# Generated by pormake.
# Topology gar, (4,6)-cn, num edge types: 1
# Building blocks:
#     Node 0, Type 0, BuildingBlock: AZAVOO_clean_sbu_0, # of connection points: 4
#     Node 1, Type 0, BuildingBlock: AZAVOO_clean_sbu_0, # of connection points: 4
#     Node 2, Type 0, BuildingBlock: AZAVOO_clean_sbu_0, # of connection points: 4
#     Node 3, Type 0, BuildingBlock: AZAVOO_clean_sbu_0, # of connection points: 4
#     Node 4, Type 0, BuildingBlock: AZAVOO_clean_sbu_0, # of connection points: 4
#     Node 5, Type 0, BuildingBlock: AZAVOO_clean_sbu_0, # of connection points: 4
#     Node 6, Type 0, BuildingBlock: AZAVOO_clean_sbu_0, # of connection points: 4
#     Node 7, Type 0, BuildingBlock: AZAVOO_clean_sbu_0, # of connection points: 4
#     Node 8, Type 0, BuildingBlock: AZAVOO_clean_sbu_0, # of connection points: 4
#     Node 9, Type 0, BuildingBlock: AZAVOO_clean_sbu_0, # of connection points: 4
#     Node 10, Type 0, BuildingBlock: AZAVOO_clean_sbu_0, # of connection points: 4
#     Node 11, Type 0, BuildingBlock: AZAVOO_clean_sbu_0, # of connection points: 4
#     Node 12, Type 0, BuildingBlock: AZAVOO_clean_sbu_0, # of connection points: 4
#     Node 13, Type 0, BuildingBlock: AZAVOO_clean_sbu_0, # of connection points: 4
#     Node 14, Type 0, BuildingBlock: AZAVOO_clean_sbu_0, # of connection points: 4
#     Node 15, Type 0, BuildingBlock: AZAVOO_clean_sbu_0, # of connection points: 4
#     Node 16, Type 0, BuildingBlock: AZAVOO_clean_sbu_0, # of connection points: 4
#     Node 17, Type 0, BuildingBlock: AZAVOO_clean_sbu_0, # of connection points: 4
#     Node 18, Type 0, BuildingBlock: AZAVOO_clean_sbu_0, # of connection points: 4
#     Node 19, Type 0, BuildingBlock: AZAVOO_clean_sbu_0, # of connection points: 4
#     Node 20, Type 0, BuildingBlock: AZAVOO_clean_sbu_0, # of connection points: 4
#     Node 21, Type 0, BuildingBlock: AZAVOO_clean_sbu_0, # of connection points: 4
#     Node 22, Type 0, BuildingBlock: AZAVOO_clean_sbu_0, # of connection points: 4
#     Node 23, Type 0, BuildingBlock: AZAVOO_clean_sbu_0, # of connection points: 4
#     Node 24, Type 1, BuildingBlock: KUMJIN_clean_sbu_0, # of connection points: 6
#     Node 25, Type 1, BuildingBlock: KUMJIN_clean_sbu_0, # of connection points: 6
#     Node 26, Type 1, BuildingBlock: KUMJIN_clean_sbu_0, # of connection points: 6
#     Node 27, Type 1, BuildingBlock: KUMJIN_clean_sbu_0, # of connection points: 6
#     Node 28, Type 1, BuildingBlock: KUMJIN_clean_sbu_0, # of connection points: 6
#     Node 29, Type 1, BuildingBlock: KUMJIN_clean_sbu_0, # of connection points: 6
#     Node 30, Type 1, BuildingBlock: KUMJIN_clean_sbu_0, # of connection points: 6
#     Node 31, Type 1, BuildingBlock: KUMJIN_clean_sbu_0, # of connection points: 6
#     Node 32, Type 1, BuildingBlock: KUMJIN_clean_sbu_0, # of connection points: 6
#     Node 33, Type 1, BuildingBlock: KUMJIN_clean_sbu_0, # of connection points: 6
#     Node 34, Type 1, BuildingBlock: KUMJIN_clean_sbu_0, # of connection points: 6
#     Node 35, Type 1, BuildingBlock: KUMJIN_clean_sbu_0, # of connection points: 6
#     Node 36, Type 1, BuildingBlock: KUMJIN_clean_sbu_0, # of connection points: 6
#     Node 37, Type 1, BuildingBlock: KUMJIN_clean_sbu_0, # of connection points: 6
#     Node 38, Type 1, BuildingBlock: KUMJIN_clean_sbu_0, # of connection points: 6
#     Node 39, Type 1, BuildingBlock: KUMJIN_clean_sbu_0, # of connection points: 6
#     Edge 40, Type (0, 1), BuildingBlock: KIFKEQ_clean_linker_1, # of connection points: 2
#     Edge 41, Type (0, 1), BuildingBlock: KIFKEQ_clean_linker_1, # of connection points: 2
#     Edge 42, Type (0, 1), BuildingBlock: KIFKEQ_clean_linker_1, # of connection points: 2
#     Edge 43, Type (0, 1), BuildingBlock: KIFKEQ_clean_linker_1, # of connection points: 2
#     Edge 44, Type (0, 1), BuildingBlock: KIFKEQ_clean_linker_1, # of connection points: 2
#     Edge 45, Type (0, 1), BuildingBlock: KIFKEQ_clean_linker_1, # of connection points: 2
#     Edge 46, Type (0, 1), BuildingBlock: KIFKEQ_clean_linker_1, # of connection points: 2
#     Edge 47, Type (0, 1), BuildingBlock: KIFKEQ_clean_linker_1, # of connection points: 2
#     Edge 48, Type (0, 1), BuildingBlock: KIFKEQ_clean_linker_1, # of connection points: 2
#     Edge 49, Type (0, 1), BuildingBlock: KIFKEQ_clean_linker_1, # of connection points: 2
#     Edge 50, Type (0, 1), BuildingBlock: KIFKEQ_clean_linker_1, # of connection points: 2
#     Edge 51, Type (0, 1), BuildingBlock: KIFKEQ_clean_linker_1, # of connection points: 2
#     Edge 52, Type (0, 1), BuildingBlock: KIFKEQ_clean_linker_1, # of connection points: 2
#     Edge 53, Type (0, 1), BuildingBlock: KIFKEQ_clean_linker_1, # of connection points: 2
#     Edge 54, Type (0, 1), BuildingBlock: KIFKEQ_clean_linker_1, # of connection points: 2
#     Edge 55, Type (0, 1), BuildingBlock: KIFKEQ_clean_linker_1, # of connection points: 2
#     Edge 56, Type (0, 1), BuildingBlock: KIFKEQ_clean_linker_1, # of connection points: 2
#     Edge 57, Type (0, 1), BuildingBlock: KIFKEQ_clean_linker_1, # of connection points: 2
#     Edge 58, Type (0, 1), BuildingBlock: KIFKEQ_clean_linker_1, # of connection points: 2
#     Edge 59, Type (0, 1), BuildingBlock: KIFKEQ_clean_linker_1, # of connection points: 2
#     Edge 60, Type (0, 1), BuildingBlock: KIFKEQ_clean_linker_1, # of connection points: 2
#     Edge 61, Type (0, 1), BuildingBlock: KIFKEQ_clean_linker_1, # of connection points: 2
#     Edge 62, Type (0, 1), BuildingBlock: KIFKEQ_clean_linker_1, # of connection points: 2
#     Edge 63, Type (0, 1), BuildingBlock: KIFKEQ_clean_linker_1, # of connection points: 2
#     Edge 64, Type (0, 1), BuildingBlock: KIFKEQ_clean_linker_1, # of connection points: 2
#     Edge 65, Type (0, 1), BuildingBlock: KIFKEQ_clean_linker_1, # of connection points: 2
#     Edge 66, Type (0, 1), BuildingBlock: KIFKEQ_clean_linker_1, # of connection points: 2
#     Edge 67, Type (0, 1), BuildingBlock: KIFKEQ_clean_linker_1, # of connection points: 2
#     Edge 68, Type (0, 1), BuildingBlock: KIFKEQ_clean_linker_1, # of connection points: 2
#     Edge 69, Type (0, 1), BuildingBlock: KIFKEQ_clean_linker_1, # of connection points: 2
#     Edge 70, Type (0, 1), BuildingBlock: KIFKEQ_clean_linker_1, # of connection points: 2
#     Edge 71, Type (0, 1), BuildingBlock: KIFKEQ_clean_linker_1, # of connection points: 2
#     Edge 72, Type (0, 1), BuildingBlock: KIFKEQ_clean_linker_1, # of connection points: 2
#     Edge 73, Type (0, 1), BuildingBlock: KIFKEQ_clean_linker_1, # of connection points: 2
#     Edge 74, Type (0, 1), BuildingBlock: KIFKEQ_clean_linker_1, # of connection points: 2
#     Edge 75, Type (0, 1), BuildingBlock: KIFKEQ_clean_linker_1, # of connection points: 2
#     Edge 76, Type (0, 1), BuildingBlock: KIFKEQ_clean_linker_1, # of connection points: 2
#     Edge 77, Type (0, 1), BuildingBlock: KIFKEQ_clean_linker_1, # of connection points: 2
#     Edge 78, Type (0, 1), BuildingBlock: KIFKEQ_clean_linker_1, # of connection points: 2
#     Edge 79, Type (0, 1), BuildingBlock: KIFKEQ_clean_linker_1, # of connection points: 2
#     Edge 80, Type (0, 1), BuildingBlock: KIFKEQ_clean_linker_1, # of connection points: 2
#     Edge 81, Type (0, 1), BuildingBlock: KIFKEQ_clean_linker_1, # of connection points: 2
#     Edge 82, Type (0, 1), BuildingBlock: KIFKEQ_clean_linker_1, # of connection points: 2
#     Edge 83, Type (0, 1), BuildingBlock: KIFKEQ_clean_linker_1, # of connection points: 2
#     Edge 84, Type (0, 1), BuildingBlock: KIFKEQ_clean_linker_1, # of connection points: 2
#     Edge 85, Type (0, 1), BuildingBlock: KIFKEQ_clean_linker_1, # of connection points: 2
#     Edge 86, Type (0, 1), BuildingBlock: KIFKEQ_clean_linker_1, # of connection points: 2
#     Edge 87, Type (0, 1), BuildingBlock: KIFKEQ_clean_linker_1, # of connection points: 2
#     Edge 88, Type (0, 1), BuildingBlock: KIFKEQ_clean_linker_1, # of connection points: 2
#     Edge 89, Type (0, 1), BuildingBlock: KIFKEQ_clean_linker_1, # of connection points: 2
#     Edge 90, Type (0, 1), BuildingBlock: KIFKEQ_clean_linker_1, # of connection points: 2
#     Edge 91, Type (0, 1), BuildingBlock: KIFKEQ_clean_linker_1, # of connection points: 2
#     Edge 92, Type (0, 1), BuildingBlock: KIFKEQ_clean_linker_1, # of connection points: 2
#     Edge 93, Type (0, 1), BuildingBlock: KIFKEQ_clean_linker_1, # of connection points: 2
#     Edge 94, Type (0, 1), BuildingBlock: KIFKEQ_clean_linker_1, # of connection points: 2
#     Edge 95, Type (0, 1), BuildingBlock: KIFKEQ_clean_linker_1, # of connection points: 2
#     Edge 96, Type (0, 1), BuildingBlock: KIFKEQ_clean_linker_1, # of connection points: 2
#     Edge 97, Type (0, 1), BuildingBlock: KIFKEQ_clean_linker_1, # of connection points: 2
#     Edge 98, Type (0, 1), BuildingBlock: KIFKEQ_clean_linker_1, # of connection points: 2
#     Edge 99, Type (0, 1), BuildingBlock: KIFKEQ_clean_linker_1, # of connection points: 2
#     Edge 100, Type (0, 1), BuildingBlock: KIFKEQ_clean_linker_1, # of connection points: 2
#     Edge 101, Type (0, 1), BuildingBlock: KIFKEQ_clean_linker_1, # of connection points: 2
#     Edge 102, Type (0, 1), BuildingBlock: KIFKEQ_clean_linker_1, # of connection points: 2
#     Edge 103, Type (0, 1), BuildingBlock: KIFKEQ_clean_linker_1, # of connection points: 2
#     Edge 104, Type (0, 1), BuildingBlock: KIFKEQ_clean_linker_1, # of connection points: 2
#     Edge 105, Type (0, 1), BuildingBlock: KIFKEQ_clean_linker_1, # of connection points: 2
#     Edge 106, Type (0, 1), BuildingBlock: KIFKEQ_clean_linker_1, # of connection points: 2
#     Edge 107, Type (0, 1), BuildingBlock: KIFKEQ_clean_linker_1, # of connection points: 2
#     Edge 108, Type (0, 1), BuildingBlock: KIFKEQ_clean_linker_1, # of connection points: 2
#     Edge 109, Type (0, 1), BuildingBlock: KIFKEQ_clean_linker_1, # of connection points: 2
#     Edge 110, Type (0, 1), BuildingBlock: KIFKEQ_clean_linker_1, # of connection points: 2
#     Edge 111, Type (0, 1), BuildingBlock: KIFKEQ_clean_linker_1, # of connection points: 2
#     Edge 112, Type (0, 1), BuildingBlock: KIFKEQ_clean_linker_1, # of connection points: 2
#     Edge 113, Type (0, 1), BuildingBlock: KIFKEQ_clean_linker_1, # of connection points: 2
#     Edge 114, Type (0, 1), BuildingBlock: KIFKEQ_clean_linker_1, # of connection points: 2
#     Edge 115, Type (0, 1), BuildingBlock: KIFKEQ_clean_linker_1, # of connection points: 2
#     Edge 116, Type (0, 1), BuildingBlock: KIFKEQ_clean_linker_1, # of connection points: 2
#     Edge 117, Type (0, 1), BuildingBlock: KIFKEQ_clean_linker_1, # of connection points: 2
#     Edge 118, Type (0, 1), BuildingBlock: KIFKEQ_clean_linker_1, # of connection points: 2
#     Edge 119, Type (0, 1), BuildingBlock: KIFKEQ_clean_linker_1, # of connection points: 2
#     Edge 120, Type (0, 1), BuildingBlock: KIFKEQ_clean_linker_1, # of connection points: 2
#     Edge 121, Type (0, 1), BuildingBlock: KIFKEQ_clean_linker_1, # of connection points: 2
#     Edge 122, Type (0, 1), BuildingBlock: KIFKEQ_clean_linker_1, # of connection points: 2
#     Edge 123, Type (0, 1), BuildingBlock: KIFKEQ_clean_linker_1, # of connection points: 2
#     Edge 124, Type (0, 1), BuildingBlock: KIFKEQ_clean_linker_1, # of connection points: 2
#     Edge 125, Type (0, 1), BuildingBlock: KIFKEQ_clean_linker_1, # of connection points: 2
#     Edge 126, Type (0, 1), BuildingBlock: KIFKEQ_clean_linker_1, # of connection points: 2
#     Edge 127, Type (0, 1), BuildingBlock: KIFKEQ_clean_linker_1, # of connection points: 2
#     Edge 128, Type (0, 1), BuildingBlock: KIFKEQ_clean_linker_1, # of connection points: 2
#     Edge 129, Type (0, 1), BuildingBlock: KIFKEQ_clean_linker_1, # of connection points: 2
#     Edge 130, Type (0, 1), BuildingBlock: KIFKEQ_clean_linker_1, # of connection points: 2
#     Edge 131, Type (0, 1), BuildingBlock: KIFKEQ_clean_linker_1, # of connection points: 2
#     Edge 132, Type (0, 1), BuildingBlock: KIFKEQ_clean_linker_1, # of connection points: 2
#     Edge 133, Type (0, 1), BuildingBlock: KIFKEQ_clean_linker_1, # of connection points: 2
#     Edge 134, Type (0, 1), BuildingBlock: KIFKEQ_clean_linker_1, # of connection points: 2
#     Edge 135, Type (0, 1), BuildingBlock: KIFKEQ_clean_linker_1, # of connection points: 2
# Relax obj value: 0.145
# Max RMSD: 0.322
# Mean RMSD: 0.191
data_MOF--net-gar--node1-AZAVOO_clean_sbu_0--node2-KUMJIN_clean_sbu_0--edge1-KIFKEQ_clean_linker_1
_symmetry_space_group_name_H-M    P1
_symmetry_Int_Tables_number       1
_symmetry_cell_setting            triclinic
loop_
_symmetry_equiv_pos_as_xyz
'x, y, z'
_cell_length_a     63.104931
_cell_length_b     56.360516
_cell_length_c     57.177813
_cell_angle_alpha  103.31212
_cell_angle_beta   93.004347
_cell_angle_gamma 103.70326
loop_
_atom_site_label
_atom_site_type_symbol
_atom_site_fract_x
_atom_site_fract_y
_atom_site_fract_z
_atom_type_partial_charge
Mg0 Mg 0.09885 0.30504 0.36613 0.0
O1 O 0.11194 0.34489 0.39187 0.0
O2 O 0.08546 0.34921 0.41602 0.0
Mg3 Mg 0.05678 0.31479 0.40641 0.0
C4 C 0.10426 0.35741 0.4095 0.0
C5 C 0.14008 0.32311 0.34245 0.0
O6 O 0.13044 0.34128 0.34194 0.0
O7 O 0.10715 0.28764 0.39654 0.0
O8 O 0.08068 0.29494 0.41961 0.0
O9 O 0.08288 0.32142 0.34075 0.0
O10 O 0.06691 0.30728 0.37016 0.0
C11 C 0.0976 0.28662 0.41552 0.0
C12 C 0.06643 0.319 0.35336 0.0
O13 O 0.13168 0.30592 0.35267 0.0
Mg14 Mg 0.00386 0.77269 0.67227 0.0
O15 O 0.99505 0.73256 0.65004 0.0
O16 O 0.96135 0.72239 0.63028 0.0
Mg17 Mg 0.9474 0.75665 0.64447 0.0
C18 C 0.97927 0.71698 0.63549 0.0
C19 C 0.04871 0.78072 0.6965 0.0
O20 O 0.03807 0.79179 0.71303 0.0
O21 O 0.00634 0.7867 0.63821 0.0
O22 O 0.97117 0.78085 0.6243 0.0
O23 O 0.99283 0.75943 0.70399 0.0
O24 O 0.97116 0.7688 0.67757 0.0
C25 C 0.99172 0.78925 0.6234 0.0
C26 C 0.97337 0.76004 0.69631 0.0
O27 O 0.03935 0.77179 0.67504 0.0
Mg28 Mg 0.60176 0.80321 0.86457 0.0
O29 O 0.6122 0.84405 0.88823 0.0
O30 O 0.58372 0.84927 0.90902 0.0
Mg31 Mg 0.55598 0.81365 0.8992 0.0
C32 C 0.60303 0.85736 0.90365 0.0
C33 C 0.64522 0.82262 0.84567 0.0
O34 O 0.63412 0.83849 0.84149 0.0
O35 O 0.6077 0.78867 0.89768 0.0
O36 O 0.57898 0.79567 0.91698 0.0
O37 O 0.58683 0.81609 0.8352 0.0
O38 O 0.56923 0.80439 0.86481 0.0
C39 C 0.59646 0.78803 0.91553 0.0
C40 C 0.56955 0.81412 0.84654 0.0
O41 O 0.63651 0.80562 0.85597 0.0
Mg42 Mg 0.50581 0.27741 0.172 0.0
O43 O 0.49767 0.23637 0.15216 0.0
O44 O 0.46462 0.22467 0.13096 0.0
Mg45 Mg 0.44968 0.25863 0.14269 0.0
C46 C 0.48257 0.21997 0.13736 0.0
C47 C 0.55209 0.28556 0.19578 0.0
O48 O 0.54348 0.2985 0.21316 0.0
O49 O 0.50853 0.2882 0.13642 0.0
O50 O 0.47346 0.28103 0.12134 0.0
O51 O 0.49382 0.268 0.2053 0.0
O52 O 0.4732 0.27452 0.17593 0.0
C53 C 0.49405 0.28939 0.12061 0.0
C54 C 0.47473 0.26847 0.19625 0.0
O55 O 0.54101 0.27586 0.17525 0.0
Mg56 Mg 0.0999 0.83077 0.12549 0.0
O57 O 0.09568 0.79032 0.09997 0.0
O58 O 0.06299 0.77923 0.07813 0.0
Mg59 Mg 0.04459 0.81018 0.09022 0.0
C60 C 0.08101 0.77432 0.08396 0.0
C61 C 0.14071 0.81771 0.14955 0.0
O62 O 0.12312 0.80157 0.15299 0.0
O63 O 0.10248 0.85494 0.09521 0.0
O64 O 0.06764 0.84209 0.07795 0.0
O65 O 0.0822 0.81389 0.15412 0.0
O66 O 0.06482 0.82416 0.12558 0.0
C67 C 0.08692 0.85675 0.0805 0.0
C68 C 0.06381 0.81529 0.14432 0.0
O69 O 0.13785 0.83325 0.13711 0.0
Mg70 Mg 0.51559 0.76133 0.41544 0.0
O71 O 0.5208 0.80084 0.44226 0.0
O72 O 0.4932 0.79834 0.46496 0.0
Mg73 Mg 0.47099 0.75729 0.45166 0.0
C74 C 0.51059 0.81119 0.45879 0.0
C75 C 0.56443 0.75838 0.4043 0.0
O76 O 0.55828 0.73595 0.40853 0.0
O77 O 0.52522 0.74069 0.44356 0.0
O78 O 0.49568 0.73474 0.46312 0.0
O79 O 0.4978 0.77507 0.38914 0.0
O80 O 0.48014 0.75443 0.41361 0.0
C81 C 0.51445 0.73075 0.45874 0.0
C82 C 0.47935 0.76643 0.39682 0.0
O83 O 0.55124 0.77253 0.40672 0.0
Mg84 Mg 0.59999 0.33136 0.62728 0.0
O85 O 0.59505 0.29096 0.6009 0.0
O86 O 0.56093 0.28045 0.58238 0.0
Mg87 Mg 0.54406 0.31282 0.59368 0.0
C88 C 0.57908 0.27503 0.58651 0.0
C89 C 0.64075 0.3175 0.65031 0.0
O90 O 0.62314 0.3016 0.65405 0.0
O91 O 0.60255 0.35595 0.59763 0.0
O92 O 0.56765 0.3438 0.58048 0.0
O93 O 0.58241 0.31396 0.65572 0.0
O94 O 0.56509 0.32595 0.62837 0.0
C95 C 0.58713 0.35799 0.58294 0.0
C96 C 0.56411 0.31632 0.64661 0.0
O97 O 0.63787 0.33315 0.63803 0.0
Mg98 Mg 0.01664 0.26363 0.91724 0.0
O99 O 0.02088 0.30264 0.94461 0.0
O100 O 0.99156 0.29949 0.96479 0.0
Mg101 Mg 0.96985 0.25818 0.95057 0.0
C102 C 0.00953 0.31266 0.96005 0.0
C103 C 0.06404 0.25944 0.90404 0.0
O104 O 0.0552 0.23565 0.90325 0.0
O105 O 0.02509 0.242 0.9454 0.0
O106 O 0.99391 0.23509 0.96213 0.0
O107 O 0.99954 0.27825 0.89074 0.0
O108 O 0.98117 0.25637 0.91382 0.0
C109 C 0.01295 0.23121 0.95918 0.0
C110 C 0.98083 0.26916 0.89768 0.0
O111 O 0.05283 0.27545 0.91028 0.0
Mg112 Mg 0.42466 0.06352 0.31124 0.0
O113 O 0.40112 0.02622 0.31066 0.0
O114 O 0.3899 0.02484 0.34679 0.0
Mg115 Mg 0.40753 0.06356 0.37158 0.0
C116 C 0.38987 0.01468 0.32439 0.0
C117 C 0.42501 0.03149 0.26224 0.0
O118 O 0.42817 0.01832 0.27766 0.0
O119 O 0.39623 0.07993 0.31319 0.0
O120 O 0.38676 0.08255 0.35084 0.0
O121 O 0.45216 0.04896 0.31922 0.0
O122 O 0.43372 0.0671 0.34718 0.0
C123 C 0.38431 0.08602 0.32966 0.0
C124 C 0.44806 0.05434 0.34148 0.0
O125 O 0.42155 0.05307 0.27028 0.0
Mg126 Mg 0.29817 0.18842 0.50232 0.0
O127 O 0.29989 0.21372 0.54107 0.0
O128 O 0.33385 0.23866 0.55092 0.0
Mg129 Mg 0.35473 0.22746 0.52024 0.0
C130 C 0.31432 0.23116 0.55606 0.0
C131 C 0.24985 0.15608 0.4855 0.0
O132 O 0.26084 0.14345 0.47063 0.0
O133 O 0.30008 0.22071 0.4826 0.0
O134 O 0.33601 0.23917 0.49101 0.0
O135 O 0.30826 0.15875 0.51737 0.0
O136 O 0.33184 0.18974 0.50797 0.0
C137 C 0.31742 0.23621 0.47916 0.0
C138 C 0.32845 0.16999 0.51626 0.0
O139 O 0.26028 0.17677 0.50016 0.0
Mg140 Mg 0.17042 1.00577 0.76766 0.0
O141 O 0.19603 0.04664 0.77371 0.0
O142 O 0.2176 0.05366 0.80788 0.0
Mg143 Mg 0.20507 0.02078 0.82695 0.0
C144 C 0.21214 0.06084 0.78927 0.0
C145 C 0.14288 0.01882 0.71985 0.0
O146 O 0.13419 0.02975 0.73841 0.0
O147 O 0.19742 0.97713 0.76277 0.0
O148 O 0.21489 0.98803 0.80012 0.0
O149 O 0.14516 0.02164 0.79308 0.0
O150 O 0.17073 0.00881 0.80824 0.0
C151 C 0.21145 0.97366 0.77865 0.0
C152 C 0.15382 0.01752 0.81214 0.0
O153 O 0.1578 0.00754 0.7247 0.0
Mg154 Mg 0.33781 0.96216 0.03359 0.0
O155 O 0.33993 0.93338 0.99876 0.0
O156 O 0.37174 0.92256 1.00196 0.0
Mg157 Mg 0.38674 0.9392 0.04099 0.0
C158 C 0.35382 0.92159 0.98995 0.0
C159 C 0.29978 0.97453 0.0064 0.0
O160 O 0.31654 0.98693 0.99763 0.0
O161 O 0.32551 0.9298 0.05078 0.0
O162 O 0.35601 0.91625 0.05258 0.0
O163 O 0.3595 0.99253 0.02005 0.0
O164 O 0.37108 0.97005 0.0426 0.0
C165 C 0.33578 0.91418 0.05544 0.0
C166 C 0.37558 0.98625 0.02991 0.0
O167 O 0.30318 0.96121 0.02062 0.0
Mg168 Mg 0.32126 0.40243 0.04431 0.0
O169 O 0.31965 0.37415 0.00712 0.0
O170 O 0.34754 0.35643 0.00855 0.0
Mg171 Mg 0.36687 0.3732 0.04667 0.0
C172 C 0.33088 0.35933 0.99695 0.0
C173 C 0.27457 0.41439 0.04882 0.0
O174 O 0.28054 0.41806 0.072 0.0
O175 O 0.30916 0.37242 0.06559 0.0
O176 O 0.33913 0.35815 0.0685 0.0
O177 O 0.34356 0.43205 0.03049 0.0
O178 O 0.35537 0.40793 0.05087 0.0
C179 C 0.31992 0.35905 0.07412 0.0
C180 C 0.35984 0.42556 0.03969 0.0
O181 O 0.2869 0.40644 0.03358 0.0
Mg182 Mg 0.78418 0.11451 0.01441 0.0
O183 O 0.77479 0.13891 0.04901 0.0
O184 O 0.80645 0.16874 0.06267 0.0
Mg185 Mg 0.835 0.16184 0.04173 0.0
C186 C 0.78611 0.15935 0.06374 0.0
C187 C 0.72998 0.09072 0.99914 0.0
O188 O 0.71515 0.07677 0.98121 0.0
O189 O 0.78546 0.14622 0.99637 0.0
O190 O 0.8179 0.17351 0.01137 0.0
O191 O 0.79346 0.08735 0.03314 0.0
O192 O 0.81571 0.12277 0.03004 0.0
C193 C 0.8 0.16648 0.99722 0.0
C194 C 0.81309 0.10219 0.0369 0.0
O195 O 0.75 0.09467 0.99565 0.0
Mg196 Mg 0.19263 0.52017 0.23134 0.0
O197 O 0.21265 0.56121 0.2411 0.0
O198 O 0.22941 0.57105 0.2788 0.0
Mg199 Mg 0.22146 0.53529 0.29192 0.0
C200 C 0.22509 0.5769 0.25914 0.0
C201 C 0.16424 0.51304 0.18964 0.0
O202 O 0.1549 0.49833 0.20302 0.0
O203 O 0.22332 0.50819 0.22271 0.0
O204 O 0.2396 0.51944 0.26072 0.0
O205 O 0.16514 0.53207 0.24712 0.0
O206 O 0.19044 0.52184 0.26821 0.0
C207 C 0.23962 0.51101 0.23798 0.0
C208 C 0.17339 0.53072 0.26773 0.0
O209 O 0.18472 0.52307 0.19399 0.0
Mg210 Mg 0.82261 0.89982 0.54326 0.0
O211 O 0.82134 0.8717 0.50615 0.0
O212 O 0.8498 0.85493 0.50765 0.0
Mg213 Mg 0.86942 0.87266 0.54561 0.0
C214 C 0.83286 0.85723 0.49604 0.0
C215 C 0.77646 0.91135 0.54864 0.0
O216 O 0.78375 0.9164 0.57166 0.0
O217 O 0.81125 0.8697 0.56458 0.0
O218 O 0.84249 0.85821 0.56856 0.0
O219 O 0.84409 0.93021 0.52953 0.0
O220 O 0.85681 0.90653 0.54967 0.0
C221 C 0.82308 0.85805 0.57413 0.0
C222 C 0.86074 0.9244 0.53876 0.0
O223 O 0.78795 0.90255 0.53286 0.0
Mg224 Mg 0.94877 0.08122 0.28024 0.0
O225 O 0.92214 0.04058 0.27435 0.0
O226 O 0.90383 0.04504 0.30683 0.0
Mg227 Mg 0.91756 0.08476 0.33324 0.0
C228 C 0.90743 0.03131 0.28701 0.0
C229 C 0.97826 0.08109 0.23128 0.0
O230 O 0.99366 0.09304 0.24932 0.0
O231 O 0.92225 0.10759 0.27481 0.0
O232 O 0.90636 0.10961 0.30877 0.0
O233 O 0.9732 0.06592 0.30247 0.0
O234 O 0.95084 0.08526 0.32083 0.0
C235 C 0.90891 0.11649 0.28898 0.0
C236 C 0.96588 0.07344 0.32281 0.0
O237 O 0.95851 0.07369 0.23695 0.0
Mg238 Mg 0.28364 0.61492 0.51304 0.0
O239 O 0.28081 0.64193 0.55 0.0
O240 O 0.31597 0.66465 0.5588 0.0
Mg241 Mg 0.33971 0.65267 0.53267 0.0
C242 C 0.29606 0.65992 0.56368 0.0
C243 C 0.22859 0.59993 0.49815 0.0
O244 O 0.21408 0.59029 0.47892 0.0
O245 O 0.28754 0.6482 0.49741 0.0
O246 O 0.32282 0.66929 0.50569 0.0
O247 O 0.28942 0.58389 0.52877 0.0
O248 O 0.31477 0.61716 0.52585 0.0
C249 C 0.30344 0.6661 0.49566 0.0
C250 C 0.30993 0.59604 0.53175 0.0
O251 O 0.24863 0.60197 0.49554 0.0
Mg252 Mg 0.4467 0.58067 0.78041 0.0
O253 O 0.42072 0.53974 0.77453 0.0
O254 O 0.40083 0.54356 0.80583 0.0
Mg255 Mg 0.41451 0.58307 0.83289 0.0
C256 C 0.40538 0.53016 0.78635 0.0
C257 C 0.47462 0.58481 0.73052 0.0
O258 O 0.48819 0.60256 0.74737 0.0
O259 O 0.41973 0.60653 0.7748 0.0
O260 O 0.40392 0.60861 0.80882 0.0
O261 O 0.4723 0.56735 0.80327 0.0
O262 O 0.44784 0.58371 0.8207 0.0
C263 C 0.40652 0.61558 0.78908 0.0
C264 C 0.46395 0.57356 0.8232 0.0
O265 O 0.45666 0.57286 0.73726 0.0
Mg266 Mg 0.69443 0.02337 0.72499 0.0
O267 O 0.71966 0.06156 0.74097 0.0
O268 O 0.73307 0.06725 0.77981 0.0
Mg269 Mg 0.72259 0.02881 0.78864 0.0
C270 C 0.73136 0.07508 0.76062 0.0
C271 C 0.66763 0.03214 0.68875 0.0
O272 O 0.6556 0.01743 0.70048 0.0
O273 O 0.72233 1.00521 0.71093 0.0
O274 O 0.72181 0.01551 0.74932 0.0
O275 O 0.6705 0.03884 0.74589 0.0
O276 O 0.69222 0.02039 0.76264 0.0
C277 C 0.73158 0.00747 0.73176 0.0
C278 C 0.67766 0.03312 0.76478 0.0
O279 O 0.6883 0.03557 0.69116 0.0
Mg280 Mg 0.79826 0.69004 1.00175 0.0
O281 O 0.79967 0.71567 0.04027 0.0
O282 O 0.83365 0.74061 0.05009 0.0
Mg283 Mg 0.85469 0.72986 0.0195 0.0
C284 C 0.81412 0.73314 0.05523 0.0
C285 C 0.75248 0.65405 0.99772 0.0
O286 O 0.76634 0.63992 0.99733 0.0
O287 O 0.79973 0.72191 0.98164 0.0
O288 O 0.83554 0.74102 0.99024 0.0
O289 O 0.80902 0.66116 0.01755 0.0
O290 O 0.83216 0.69199 0.00751 0.0
C291 C 0.81692 0.7377 0.9783 0.0
C292 C 0.82909 0.6725 0.01617 0.0
O293 O 0.76015 0.67742 0.99887 0.0
Mg294 Mg 0.9328 0.56319 0.80047 0.0
O295 O 0.90674 0.52576 0.79619 0.0
O296 O 0.90073 0.52093 0.83332 0.0
Mg297 Mg 0.92422 0.55357 0.86113 0.0
C298 C 0.89673 0.51343 0.8103 0.0
C299 C 0.9218 0.56054 0.74047 0.0
O300 O 0.90894 0.56822 0.72665 0.0
O301 O 0.90911 0.58489 0.81556 0.0
O302 O 0.90399 0.58025 0.85291 0.0
O303 O 0.95962 0.54285 0.79911 0.0
O304 O 0.94546 0.55856 0.83204 0.0
C305 C 0.9005 0.58953 0.83518 0.0
C306 C 0.95833 0.54571 0.8221 0.0
O307 O 0.92082 0.56634 0.76315 0.0
Mg308 Mg 0.83572 0.45993 0.52983 0.0
O309 O 0.83913 0.42995 0.49684 0.0
O310 O 0.87222 0.42233 0.50145 0.0
Mg311 Mg 0.88676 0.44231 0.54017 0.0
C312 C 0.8539 0.41909 0.48907 0.0
C313 C 0.8007 0.48072 0.52044 0.0
O314 O 0.81814 0.49802 0.53219 0.0
O315 O 0.82501 0.42928 0.54929 0.0
O316 O 0.85685 0.41865 0.55282 0.0
O317 O 0.85512 0.48948 0.51395 0.0
O318 O 0.86903 0.47087 0.53902 0.0
C319 C 0.83644 0.41536 0.55539 0.0
C320 C 0.87204 0.48614 0.5252 0.0
O321 O 0.8012 0.45775 0.51588 0.0
Mg322 Mg 0.67036 0.50631 0.26726 0.0
O323 O 0.69593 0.54733 0.27419 0.0
O324 O 0.71853 0.55315 0.30736 0.0
Mg325 Mg 0.70576 0.51993 0.32631 0.0
C326 C 0.71253 0.56101 0.28936 0.0
C327 C 0.63863 0.51061 0.21693 0.0
O328 O 0.62381 0.50913 0.23219 0.0
O329 O 0.6969 0.47719 0.2624 0.0
O330 O 0.71447 0.48588 0.29959 0.0
O331 O 0.64416 0.51961 0.29293 0.0
O332 O 0.67128 0.5095 0.30808 0.0
C333 C 0.71054 0.47235 0.27775 0.0
C334 C 0.65359 0.51659 0.3121 0.0
O335 O 0.65806 0.5091 0.22446 0.0
Eu336 Eu 0.03319 0.02692 1.00176 0.0
C337 C 0.10277 0.12285 0.06621 0.0
C338 C 0.11057 0.15136 0.04009 0.0
C339 C 0.11896 0.16768 0.08359 0.0
C340 C 0.10244 0.12682 0.04328 0.0
C341 C 0.11131 0.1432 0.08663 0.0
C342 C 0.11858 0.17175 0.06035 0.0
C343 C 0.10597 0.11342 0.11147 0.0
N344 N 0.09586 0.09892 0.06851 0.0
C345 C 0.098 0.09386 0.09067 0.0
C346 C 0.11255 0.13824 0.10947 0.0
Eu347 Eu 0.08442 0.06612 0.03259 0.0
N348 N 0.09519 0.10659 0.02404 0.0
C349 C 0.0966 0.10973 1.00107 0.0
C350 C 0.11105 0.15462 0.0166 0.0
C351 C 0.10412 0.13366 0.99701 0.0
H352 H 0.09336 0.07464 0.09231 0.0
H353 H 0.1047 0.13586 0.97872 0.0
H354 H 0.12492 0.19067 0.05822 0.0
H355 H 0.10726 0.10931 0.12898 0.0
H356 H 0.09148 0.09406 0.9855 0.0
H357 H 0.01163 0.9624 0.06094 0.0
H358 H 0.11715 0.17312 0.01341 0.0
H359 H 0.02625 0.01404 0.94163 0.0
H360 H 0.02601 1.00269 0.05167 0.0
H361 H 0.01177 0.97755 0.90657 0.0
H362 H 0.1256 0.18352 0.09904 0.0
H363 H 0.99804 0.92365 0.02807 0.0
H364 H 0.98991 0.90341 0.98375 0.0
H365 H 0.11901 0.15335 0.12557 0.0
H366 H 0.98992 0.90744 0.94185 0.0
N367 N 0.02166 0.98789 0.01321 0.0
C368 C 0.02033 0.9864 0.03671 0.0
C369 C 0.00461 0.94149 0.0237 0.0
C370 C 0.00522 0.94302 0.9997 0.0
C371 C 0.01218 0.9633 0.04227 0.0
C372 C 0.01402 0.96674 0.99495 0.0
H373 H 0.99807 0.93489 0.91297 0.0
N374 N 0.02205 0.99205 0.96751 0.0
C375 C 0.0125 0.9748 0.92469 0.0
C376 C 0.01419 0.96892 0.97141 0.0
C377 C 0.02081 0.99537 0.94456 0.0
C378 C 0.0048 0.95077 0.92837 0.0
C379 C 0.00536 0.9476 0.95193 0.0
O380 O 0.00751 0.03514 0.98044 0.0
O381 O 0.05241 0.06758 0.01516 0.0
O382 O 0.05984 0.0741 0.06039 0.0
O383 O 0.02941 0.04106 0.04282 0.0
O384 O 0.03955 0.05541 0.97921 0.0
O385 O 1.00178 0.02849 0.01572 0.0
O386 O 0.10916 0.05223 0.04912 0.0
O387 O 0.06514 0.02531 0.01915 0.0
O388 O 0.05865 0.01882 0.97475 0.0
O389 O 0.08749 0.05397 0.99122 0.0
O390 O 0.07767 0.03782 0.0552 0.0
O391 O 0.11713 0.07036 0.02007 0.0
C392 C 0.04935 0.07502 0.9961 0.0
C393 C 0.97069 0.02218 0.98776 0.0
C394 C 0.93299 0.02537 0.9893 0.0
C395 C 0.95538 0.03468 0.99775 0.0
C396 C 0.92616 1.00336 0.97029 0.0
C397 C 0.96374 1.00018 0.96895 0.0
C398 C 0.94149 0.99087 0.96023 0.0
C399 C 0.04003 0.0597 0.06172 0.0
C400 C 0.99383 0.0337 0.99657 0.0
C401 C 0.99683 0.92398 0.95657 0.0
C402 C 0.99681 0.92169 0.98041 0.0
C403 C 0.0678 0.01808 0.03846 0.0
C404 C 0.14648 0.06789 0.0466 0.0
C405 C 0.16115 0.05414 0.03719 0.0
C406 C 0.182 0.05859 0.04949 0.0
C407 C 0.18827 0.07739 0.07129 0.0
C408 C 0.15285 0.08687 0.0682 0.0
C409 C 0.17379 0.09165 0.08043 0.0
C410 C 0.07776 0.03431 0.9729 0.0
C411 C 0.12385 0.05901 0.03531 0.0
H412 H 0.96104 0.05203 0.01187 0.0
H413 H 0.90897 0.99559 0.96345 0.0
H414 H 0.97544 0.99041 0.96091 0.0
H415 H 0.93611 0.97394 0.94565 0.0
H416 H 0.1559 0.03901 0.02083 0.0
H417 H 0.20433 0.08107 0.08114 0.0
H418 H 0.14154 0.09744 0.07586 0.0
H419 H 0.17866 0.1061 0.09725 0.0
Eu420 Eu 0.32364 0.77959 0.24169 0.0
C421 C 0.29073 0.85848 0.3199 0.0
C422 C 0.3245 0.88884 0.33954 0.0
C423 C 0.2899 0.90058 0.34212 0.0
C424 C 0.31322 0.86459 0.3255 0.0
C425 C 0.27877 0.87637 0.32828 0.0
C426 C 0.31269 0.90672 0.3479 0.0
C427 C 0.24545 0.84423 0.31103 0.0
N428 N 0.28041 0.83473 0.30711 0.0
C429 C 0.25803 0.82706 0.30364 0.0
C430 C 0.25589 0.86909 0.32324 0.0
Eu431 Eu 0.30209 0.80561 0.29788 0.0
N432 N 0.32405 0.84672 0.31743 0.0
C433 C 0.34633 0.85202 0.32282 0.0
C434 C 0.34727 0.89434 0.34493 0.0
C435 C 0.35823 0.87585 0.33645 0.0
H436 H 0.24993 0.80748 0.29543 0.0
H437 H 0.37587 0.87994 0.34036 0.0
H438 H 0.32102 0.92533 0.35895 0.0
H439 H 0.22772 0.83812 0.3078 0.0
H440 H 0.35528 0.83825 0.3162 0.0
H441 H 0.24216 0.72347 0.19144 0.0
H442 H 0.35654 0.91277 0.35554 0.0
H443 H 0.36919 0.75992 0.24677 0.0
H444 H 0.26652 0.75867 0.21966 0.0
H445 H 0.38265 0.72236 0.23271 0.0
H446 H 0.28099 0.91452 0.34882 0.0
H447 H 0.25462 0.68591 0.17307 0.0
H448 H 0.28401 0.66334 0.17004 0.0
H449 H 0.24611 0.88226 0.32934 0.0
H450 H 0.32157 0.66237 0.18223 0.0
N451 N 0.29533 0.74436 0.21641 0.0
C452 C 0.27369 0.74401 0.21108 0.0
C453 C 0.26609 0.70204 0.18517 0.0
C454 C 0.28756 0.70147 0.19144 0.0
C455 C 0.25907 0.72324 0.19533 0.0
C456 C 0.30193 0.72297 0.20745 0.0
H457 H 0.35804 0.68384 0.20591 0.0
N458 N 0.33626 0.74243 0.23068 0.0
C459 C 0.36569 0.72176 0.22786 0.0
C460 C 0.32287 0.722 0.21486 0.0
C461 C 0.35775 0.74291 0.23626 0.0
C462 C 0.3518 0.70016 0.21266 0.0
C463 C 0.33025 0.70016 0.20569 0.0
O464 O 0.35823 0.79764 0.24098 0.0
O465 O 0.32699 0.81296 0.27278 0.0
O466 O 0.28166 0.81274 0.26655 0.0
O467 O 0.29406 0.7939 0.23013 0.0
O468 O 0.32558 0.81888 0.23777 0.0
O469 O 0.33728 0.7778 0.20741 0.0
O470 O 0.28081 0.78073 0.31587 0.0
O471 O 0.30546 0.77104 0.27168 0.0
O472 O 0.34249 0.77188 0.27395 0.0
O473 O 0.33381 0.79656 0.30879 0.0
O474 O 0.27378 0.77272 0.27936 0.0
O475 O 0.30896 0.80853 0.33668 0.0
C476 C 0.32782 0.82929 0.26066 0.0
C477 C 0.36595 0.81333 0.20674 0.0
C478 C 0.3621 0.84031 0.18003 0.0
C479 C 0.35305 0.82033 0.19012 0.0
C480 C 0.38424 0.85356 0.18685 0.0
C481 C 0.38808 0.82655 0.21329 0.0
C482 C 0.39714 0.84663 0.2034 0.0
C483 C 0.2803 0.80575 0.24234 0.0
C484 C 0.35649 0.7924 0.21741 0.0
C485 C 0.31614 0.67918 0.18947 0.0
C486 C 0.29482 0.6798 0.18242 0.0
C487 C 0.2856 0.75893 0.26808 0.0
C488 C 0.27943 0.79273 0.35771 0.0
C489 C 0.28371 0.78069 0.37554 0.0
C490 C 0.26984 0.77861 0.39366 0.0
C491 C 0.25178 0.78913 0.39425 0.0
C492 C 0.26159 0.80366 0.35858 0.0
C493 C 0.24788 0.80194 0.3769 0.0
C494 C 0.34579 0.78207 0.29772 0.0
C495 C 0.29203 0.79031 0.33693 0.0
H496 H 0.33588 0.81041 0.18509 0.0
H497 H 0.39163 0.86892 0.17906 0.0
H498 H 0.3983 0.82135 0.22605 0.0
H499 H 0.41423 0.85676 0.20845 0.0
H500 H 0.29721 0.77174 0.37462 0.0
H501 H 0.24074 0.78731 0.40799 0.0
H502 H 0.25789 0.81283 0.34486 0.0
H503 H 0.23393 0.81005 0.37731 0.0
Eu504 Eu 0.58442 0.04493 0.51219 0.0
C505 C 0.50649 0.99902 0.54983 0.0
C506 C 0.48626 0.96516 0.51612 0.0
C507 C 0.48714 0.95868 0.55659 0.0
C508 C 0.49969 0.98998 0.52528 0.0
C509 C 0.49955 0.98368 0.56581 0.0
C510 C 0.4806 0.9494 0.53178 0.0
C511 C 0.51498 0.01971 0.59921 0.0
N512 N 0.51834 0.02333 0.55833 0.0
C513 C 0.5214 0.03415 0.58275 0.0
C514 C 0.50442 0.9942 0.59072 0.0
Eu515 Eu 0.5298 0.04616 0.52882 0.0
N516 N 0.50516 1.00574 0.51053 0.0
C517 C 0.49574 0.99841 0.48695 0.0
C518 C 0.4784 0.95703 0.49157 0.0
C519 C 0.48281 0.97391 0.47705 0.0
H520 H 0.5286 0.05413 0.58985 0.0
H521 H 0.476 0.96818 0.45824 0.0
H522 H 0.47054 0.93026 0.52498 0.0
H523 H 0.51791 0.02838 0.61845 0.0
H524 H 0.49761 0.01117 0.47537 0.0
H525 H 0.62617 0.12808 0.58349 0.0
H526 H 0.46821 0.9381 0.48387 0.0
H527 H 0.59273 0.03101 0.45301 0.0
H528 H 0.60455 0.08423 0.5664 0.0
H529 H 0.60969 0.05328 0.42333 0.0
H530 H 0.48193 0.94661 0.56859 0.0
H531 H 0.641 0.15459 0.55613 0.0
H532 H 0.64641 0.15817 0.51379 0.0
H533 H 0.49925 0.98309 0.60352 0.0
H534 H 0.64172 0.1379 0.47023 0.0
N535 N 0.60617 0.08616 0.52997 0.0
C536 C 0.6106 0.0957 0.55439 0.0
C537 C 0.63137 0.13537 0.54859 0.0
C538 C 0.62773 0.12503 0.52355 0.0
C539 C 0.62304 0.12049 0.56409 0.0
C540 C 0.61499 0.09994 0.51463 0.0
H541 H 0.62831 0.0988 0.43643 0.0
N542 N 0.60066 0.06402 0.48217 0.0
C543 C 0.6103 0.06348 0.44197 0.0
C544 C 0.61211 0.08858 0.49004 0.0
C545 C 0.60072 0.05096 0.45875 0.0
C546 C 0.62077 0.08918 0.44944 0.0
C547 C 0.62221 0.10193 0.4738 0.0
O548 O 0.59987 0.01434 0.49917 0.0
O549 O 0.55216 0.0203 0.51796 0.0
O550 O 0.55459 0.05886 0.56213 0.0
O551 O 0.57871 0.03559 0.54791 0.0
O552 O 0.56543 0.00924 0.48563 0.0
O553 O 0.6162 0.04446 0.5297 0.0
O554 O 0.5165 0.07263 0.55421 0.0
O555 O 0.56432 0.07042 0.53071 0.0
O556 O 0.56615 0.05191 0.48077 0.0
O557 O 0.52974 0.04081 0.48876 0.0
O558 O 0.5392 0.08182 0.51576 0.0
O559 O 0.49876 0.05433 0.51875 0.0
C560 C 0.54984 1.00279 0.49857 0.0
C561 C 0.6383 0.02259 0.50501 0.0
C562 C 0.66968 1.00384 0.50108 0.0
C563 C 0.65086 0.00745 0.51236 0.0
C564 C 0.67518 0.01526 0.48194 0.0
C565 C 0.64503 0.03484 0.48695 0.0
C566 C 0.66315 0.0309 0.47526 0.0
C567 C 0.56963 0.04708 0.56578 0.0
C568 C 0.61727 0.02365 0.51477 0.0
C569 C 0.63408 0.12726 0.48248 0.0
C570 C 0.63679 0.1388 0.50729 0.0
C571 C 0.55995 0.08817 0.52261 0.0
C572 C 0.47829 0.07001 0.54981 0.0
C573 C 0.46475 0.08423 0.54256 0.0
C574 C 0.4458 0.08647 0.55387 0.0
C575 C 0.44035 0.07406 0.57223 0.0
C576 C 0.47233 0.05733 0.56784 0.0
C577 C 0.45344 0.05939 0.57897 0.0
C578 C 0.54492 0.04575 0.47443 0.0
C579 C 0.4992 0.07014 0.53946 0.0
H580 H 0.64591 0.99863 0.52683 0.0
H581 H 0.68877 0.01212 0.47194 0.0
H582 H 0.63616 0.04717 0.4816 0.0
H583 H 0.6678 0.03986 0.4608 0.0
H584 H 0.46926 0.09409 0.52864 0.0
H585 H 0.42582 0.07552 0.58115 0.0
H586 H 0.48236 0.04615 0.57355 0.0
H587 H 0.44902 0.04975 0.59302 0.0
Eu588 Eu 0.28483 0.29861 0.77174 0.0
C589 C 0.35966 0.26408 0.81834 0.0
C590 C 0.37459 0.29922 0.8531 0.0
C591 C 0.377 0.25716 0.85434 0.0
C592 C 0.36361 0.28948 0.82941 0.0
C593 C 0.36702 0.24779 0.83038 0.0
C594 C 0.3807 0.28282 0.86572 0.0
C595 C 0.35664 0.21498 0.7932 0.0
N596 N 0.35025 0.25568 0.7951 0.0
C597 C 0.34962 0.23185 0.78206 0.0
C598 C 0.36499 0.22284 0.81761 0.0
Eu599 Eu 0.33892 0.28519 0.77712 0.0
N600 N 0.3579 0.30489 0.81653 0.0
C601 C 0.36423 0.3305 0.82573 0.0
C602 C 0.37978 0.32526 0.86311 0.0
C603 C 0.37488 0.34099 0.84921 0.0
H604 H 0.34317 0.22577 0.76315 0.0
H605 H 0.37923 0.36122 0.85657 0.0
H606 H 0.38896 0.28994 0.88399 0.0
H607 H 0.35559 0.19594 0.78297 0.0
H608 H 0.36055 0.34314 0.81555 0.0
H609 H 0.24396 0.22287 0.69239 0.0
H610 H 0.38811 0.33346 0.88126 0.0
H611 H 0.27951 0.35767 0.78598 0.0
H612 H 0.26224 0.24084 0.73369 0.0
H613 H 0.26769 0.3877 0.76593 0.0
H614 H 0.38253 0.24488 0.86398 0.0
H615 H 0.23669 0.25085 0.66712 0.0
H616 H 0.23708 0.29461 0.66399 0.0
H617 H 0.37053 0.20978 0.82619 0.0
H618 H 0.24354 0.33968 0.68405 0.0
N619 N 0.26608 0.27912 0.73222 0.0
C620 C 0.2592 0.25352 0.7232 0.0
C621 C 0.24479 0.25897 0.68538 0.0
C622 C 0.25044 0.28505 0.69526 0.0
C623 C 0.24878 0.24312 0.69961 0.0
C624 C 0.26103 0.29467 0.71912 0.0
H625 H 0.25438 0.37443 0.72226 0.0
N626 N 0.27359 0.32819 0.75376 0.0
C627 C 0.26701 0.3688 0.75562 0.0
C628 C 0.26489 0.32003 0.73026 0.0
C629 C 0.27366 0.3518 0.7669 0.0
C630 C 0.25959 0.36126 0.73095 0.0
C631 C 0.25797 0.33645 0.71806 0.0
O632 O 0.26642 0.31289 0.80077 0.0
O633 O 0.31162 0.2955 0.79742 0.0
O634 O 0.31458 0.25093 0.78509 0.0
O635 O 0.28066 0.25684 0.77307 0.0
O636 O 0.29986 0.32752 0.80636 0.0
O637 O 0.2517 0.27732 0.77539 0.0
O638 O 0.35737 0.27056 0.74815 0.0
O639 O 0.31214 0.28841 0.75177 0.0
O640 O 0.30895 0.33294 0.76409 0.0
O641 O 0.3429 0.3271 0.77614 0.0
O642 O 0.32365 0.25634 0.74233 0.0
O643 O 0.37181 0.30664 0.77258 0.0
C644 C 0.31285 0.31552 0.81372 0.0
C645 C 0.22779 0.30088 0.79423 0.0
C646 C 0.1942 0.3031 0.81316 0.0
C647 C 0.21357 0.2948 0.81141 0.0
C648 C 0.18919 0.31745 0.79758 0.0
C649 C 0.22209 0.31458 0.77837 0.0
C650 C 0.20297 0.32294 0.78017 0.0
C651 C 0.2928 0.24266 0.7799 0.0
C652 C 0.24901 0.29417 0.79404 0.0
C653 C 0.24868 0.32728 0.69383 0.0
C654 C 0.24497 0.30162 0.68242 0.0
C655 C 0.31066 0.26853 0.73532 0.0
C656 C 0.39615 0.28313 0.75448 0.0
C657 C 0.41148 0.29024 0.73845 0.0
C658 C 0.43177 0.28356 0.73876 0.0
C659 C 0.43596 0.26898 0.75454 0.0
C660 C 0.40127 0.26923 0.7704 0.0
C661 C 0.42085 0.26192 0.77018 0.0
C662 C 0.33065 0.34131 0.76953 0.0
C663 C 0.37465 0.28951 0.75425 0.0
H664 H 0.21775 0.28406 0.82364 0.0
H665 H 0.17438 0.32402 0.79862 0.0
H666 H 0.23243 0.31898 0.76472 0.0
H667 H 0.19883 0.33374 0.76802 0.0
H668 H 0.40785 0.30124 0.72624 0.0
H669 H 0.45111 0.26313 0.75489 0.0
H670 H 0.39015 0.26395 0.78306 0.0
H671 H 0.42443 0.25088 0.78234 0.0
Eu672 Eu 0.05143 0.07023 0.53475 0.0
C673 C 0.07482 0.99 0.45137 0.0
C674 C 0.04319 0.97761 0.42122 0.0
C675 C 0.07808 0.97068 0.40946 0.0
C676 C 0.05296 0.98842 0.44533 0.0
C677 C 0.08755 0.98076 0.43357 0.0
C678 C 0.05595 0.96913 0.4033 0.0
C679 C 0.1175 0.98997 0.46504 0.0
N680 N 0.08336 0.99927 0.47489 0.0
C681 C 0.10418 0.99865 0.48206 0.0
C682 C 0.10922 0.98117 0.44065 0.0
Eu683 Eu 0.05966 0.01216 0.50313 0.0
N684 N 0.04093 0.99611 0.46319 0.0
C685 C 0.01874 0.99226 0.45819 0.0
C686 C 0.02073 0.97485 0.41594 0.0
C687 C 0.00843 0.98203 0.43458 0.0
H688 H 0.11065 1.00514 0.50091 0.0
H689 H 0.99094 0.97956 0.43082 0.0
H690 H 0.04872 0.9608 0.38472 0.0
H691 H 0.13411 0.98992 0.47077 0.0
H692 H 0.0087 0.99737 0.47214 0.0
H693 H 0.12379 0.10567 0.60248 0.0
H694 H 0.01264 0.96665 0.39769 0.0
H695 H 0.99974 0.07336 0.54124 0.0
H696 H 0.10402 0.08802 0.5619 0.0
H697 H 0.97737 0.08606 0.57376 0.0
H698 H 0.0876 0.96353 0.39554 0.0
H699 H 0.10356 0.11598 0.6377 0.0
H700 H 0.06784 0.1189 0.65374 0.0
H701 H 0.1195 0.97421 0.42752 0.0
H702 H 0.02811 0.11379 0.64596 0.0
N703 N 0.07226 0.08704 0.57351 0.0
C704 C 0.09467 0.09213 0.57685 0.0
C705 C 0.09463 0.10797 0.61981 0.0
C706 C 0.07185 0.10395 0.61623 0.0
C707 C 0.1061 0.10223 0.59999 0.0
C708 C 0.06098 0.09337 0.59256 0.0
H709 H 0.99433 0.1018 0.61625 0.0
N710 N 0.02887 0.08111 0.56517 0.0
C711 C 0.99455 0.08727 0.57811 0.0
C712 C 0.03863 0.09039 0.58824 0.0
C713 C 0.00726 0.08011 0.55976 0.0
C714 C 0.00417 0.09609 0.60206 0.0
C715 C 0.02651 0.09802 0.60737 0.0
O716 O 0.0366 0.09795 0.52436 0.0
O717 O 0.0489 0.04609 0.4962 0.0
O718 O 0.08644 0.0406 0.49207 0.0
O719 O 0.08575 0.07563 0.5225 0.0
O720 O 0.02205 0.05914 0.50608 0.0
O721 O 0.07194 0.10713 0.5341 0.0
O722 O 0.07041 0.98538 0.5199 0.0
O723 O 0.06219 0.03666 0.54147 0.0
O724 O 0.02607 0.04054 0.54613 0.0
O725 O 0.02477 0.00856 0.51231 0.0
O726 O 0.08918 0.02397 0.53195 0.0
O727 O 0.03838 0.9742 0.49944 0.0
C728 C 0.03005 0.04775 0.48777 0.0
C729 C 0.0556 0.14112 0.53532 0.0
C730 C 0.06626 0.18276 0.52796 0.0
C731 C 0.06664 0.15742 0.52239 0.0
C732 C 0.05502 0.19196 0.54717 0.0
C733 C 0.04414 0.15013 0.55434 0.0
C734 C 0.04396 0.17562 0.56028 0.0
C735 C 0.09509 0.06413 0.50462 0.0
C736 C 0.0553 0.11462 0.52681 0.0
C737 C 0.03715 0.10791 0.63103 0.0
C738 C 0.05976 0.11082 0.63546 0.0
C739 C 0.08118 0.03574 0.55005 0.0
C740 C 0.055 0.94184 0.50506 0.0
C741 C 0.04615 0.92492 0.51866 0.0
C742 C 0.05037 0.90096 0.51462 0.0
C743 C 0.06326 0.89406 0.49609 0.0
C744 C 0.06767 0.93464 0.48662 0.0
C745 C 0.07167 0.91074 0.48211 0.0
C746 C 0.01617 0.01846 0.5315 0.0
C747 C 0.05248 0.9676 0.51239 0.0
H748 H 0.07529 0.15021 0.50754 0.0
H749 H 0.05435 0.2115 0.5516 0.0
H750 H 0.03522 0.13754 0.56428 0.0
H751 H 0.03501 0.18264 0.57483 0.0
H752 H 0.03616 0.93072 0.53266 0.0
H753 H 0.06723 0.876 0.49266 0.0
H754 H 0.07475 0.94756 0.47607 0.0
H755 H 0.08167 0.90529 0.46803 0.0
Eu756 Eu 0.33116 0.80989 0.76635 0.0
C757 C 0.27562 0.73488 0.81561 0.0
C758 C 0.28385 0.69575 0.7959 0.0
C759 C 0.27349 0.70165 0.83673 0.0
C760 C 0.28214 0.72027 0.79582 0.0
C761 C 0.27067 0.72547 0.83606 0.0
C762 C 0.28009 0.68681 0.81668 0.0
C763 C 0.25818 0.76259 0.85254 0.0
N764 N 0.27267 0.75759 0.81421 0.0
C765 C 0.26312 0.77096 0.83178 0.0
C766 C 0.26227 0.7399 0.85485 0.0
Eu767 Eu 0.28251 0.77142 0.77917 0.0
N768 N 0.28527 0.7293 0.77588 0.0
C769 C 0.28834 0.71382 0.75477 0.0
C770 C 0.28846 0.68055 0.77478 0.0
C771 C 0.29033 0.68948 0.75401 0.0
H772 H 0.25985 0.78847 0.82999 0.0
H773 H 0.29338 0.67768 0.73739 0.0
H774 H 0.28155 0.66815 0.81713 0.0
H775 H 0.25117 0.77358 0.86669 0.0
H776 H 0.28998 0.72015 0.73843 0.0
H777 H 0.32322 0.90391 0.81189 0.0
H778 H 0.28994 0.66164 0.77412 0.0
H779 H 0.3511 0.79244 0.71403 0.0
H780 H 0.32428 0.86031 0.80876 0.0
H781 H 0.36143 0.80919 0.6787 0.0
H782 H 0.26998 0.69421 0.85237 0.0
H783 H 0.32848 0.922 0.77652 0.0
H784 H 0.33749 0.91705 0.73386 0.0
H785 H 0.25827 0.73333 0.87085 0.0
H786 H 0.34798 0.89137 0.69763 0.0
N787 N 0.32928 0.85249 0.77133 0.0
C788 C 0.32655 0.86746 0.79292 0.0
C789 C 0.32878 0.90254 0.77487 0.0
C790 C 0.33287 0.88771 0.75324 0.0
C791 C 0.32591 0.89245 0.79489 0.0
C792 C 0.33307 0.86244 0.752 0.0
H793 H 0.35727 0.85135 0.67707 0.0
N794 N 0.34048 0.8244 0.73164 0.0
C795 C 0.355 0.82024 0.69337 0.0
C796 C 0.33887 0.84796 0.73155 0.0
C797 C 0.34917 0.81083 0.71337 0.0
C798 C 0.35253 0.84399 0.69247 0.0
C799 C 0.34476 0.85837 0.71187 0.0
O800 O 0.36463 0.80654 0.76257 0.0
O801 O 0.319 0.7734 0.77823 0.0
O802 O 0.30209 0.78743 0.81559 0.0
O803 O 0.32807 0.81977 0.80654 0.0
O804 O 0.33805 0.77169 0.75017 0.0
O805 O 0.35832 0.83389 0.79301 0.0
O806 O 0.24906 0.77549 0.78081 0.0
O807 O 0.29486 0.80806 0.76751 0.0
O808 O 0.30979 0.7949 0.73032 0.0
O809 O 0.28662 0.76072 0.73944 0.0
O810 O 0.27545 0.80967 0.79516 0.0
O811 O 0.25584 0.74605 0.75277 0.0
C812 C 0.32883 0.75881 0.76454 0.0
C813 C 0.39375 0.84211 0.78027 0.0
C814 C 0.43342 0.85579 0.7904 0.0
C815 C 0.4129 0.84045 0.79247 0.0
C816 C 0.4344 0.87348 0.77644 0.0
C817 C 0.3949 0.85967 0.76627 0.0
C818 C 0.41519 0.87539 0.76449 0.0
C819 C 0.31797 0.80827 0.82199 0.0
C820 C 0.37308 0.82447 0.78187 0.0
C821 C 0.34363 0.88311 0.71261 0.0
C822 C 0.33766 0.89774 0.73324 0.0
C823 C 0.28515 0.82278 0.78121 0.0
C824 C 0.2198 0.73998 0.76391 0.0
C825 C 0.20111 0.74518 0.7544 0.0
C826 C 0.18015 0.73048 0.75562 0.0
C827 C 0.17807 0.70993 0.76612 0.0
C828 C 0.21773 0.71975 0.77474 0.0
C829 C 0.19684 0.70469 0.77572 0.0
C830 C 0.29475 0.77316 0.72373 0.0
C831 C 0.24098 0.75651 0.7623 0.0
H832 H 0.41183 0.82684 0.80333 0.0
H833 H 0.45002 0.88528 0.77418 0.0
H834 H 0.38026 0.86113 0.75666 0.0
H835 H 0.41609 0.8888 0.7535 0.0
H836 H 0.20292 0.76086 0.746 0.0
H837 H 0.16201 0.69837 0.76737 0.0
H838 H 0.23213 0.71565 0.78235 0.0
H839 H 0.19518 0.68906 0.78408 0.0
Eu840 Eu 0.56573 0.03379 0.04975 0.0
C841 C 0.51549 0.06413 0.96838 0.0
C842 C 0.49611 0.023 0.94327 0.0
C843 C 0.48038 0.0587 0.94533 0.0
C844 C 0.51437 0.03884 0.95939 0.0
C845 C 0.49872 0.07446 0.96102 0.0
C846 C 0.47903 0.03301 0.93655 0.0
C847 C 0.51996 0.11548 0.98422 0.0
N848 N 0.53315 0.07879 0.98396 0.0
C849 C 0.53607 0.10437 0.99109 0.0
C850 C 0.50105 0.10041 0.96938 0.0
Eu851 Eu 0.55986 0.05874 0.99502 0.0
N852 N 0.53098 0.02963 0.96656 0.0
C853 C 0.53076 1.00492 0.95715 0.0
C854 C 0.49552 0.99757 0.93436 0.0
C855 C 0.51302 0.98855 0.94118 0.0
H856 H 0.55076 0.1161 1.00253 0.0
H857 H 0.5128 0.96892 0.93426 0.0
H858 H 0.46483 0.02109 0.92435 0.0
H859 H 0.52215 0.13565 0.99036 0.0
H860 H 0.54381 0.99722 0.96232 0.0
H861 H 0.61902 0.11729 0.11367 0.0
H862 H 0.48174 0.98479 0.92207 0.0
H863 H 0.56711 0.97373 0.04339 0.0
H864 H 0.5857 0.09263 0.08699 0.0
H865 H 0.59342 0.94947 0.05173 0.0
H866 H 0.46724 0.06625 0.93969 0.0
H867 H 0.64923 0.09766 0.1202 0.0
H868 H 0.6633 0.05879 0.11295 0.0
H869 H 0.48856 0.10905 0.96409 0.0
H870 H 0.65647 0.01305 0.09584 0.0
N871 N 0.59659 0.05891 0.0777 0.0
C872 C 0.59845 0.08347 0.08959 0.0
C873 C 0.63449 0.08657 0.10844 0.0
C874 C 0.63198 0.06105 0.09742 0.0
C875 C 0.61746 0.09768 0.10485 0.0
C876 C 0.61249 0.04749 0.08219 0.0
H877 H 0.6303 0.97201 0.07332 0.0
N878 N 0.58942 0.00938 0.05883 0.0
C879 C 0.59807 0.96986 0.0574 0.0
C880 C 0.60882 0.02192 0.07233 0.0
C881 C 0.58328 0.98359 0.05266 0.0
C882 C 0.61888 0.98266 0.06956 0.0
C883 C 0.62429 0.00898 0.07772 0.0
O884 O 0.54189 1.00601 0.06211 0.0
O885 O 0.54405 0.03594 0.019 0.0
O886 O 0.5417 0.07819 0.02303 0.0
O887 O 0.55501 0.07059 0.05896 0.0
O888 O 0.53909 1.0011 0.02622 0.0
O889 O 0.55321 0.04431 0.08452 0.0
O890 O 0.57884 0.08918 0.98137 0.0
O891 O 0.58143 0.05722 0.02607 0.0
O892 O 0.58308 0.01295 0.02194 0.0
O893 O 0.57479 0.0249 0.98643 0.0
O894 O 0.586 0.09201 0.01873 0.0
O895 O 0.57564 0.05009 0.96228 0.0
C896 C 0.53188 0.01389 0.01301 0.0
C897 C 0.5415 0.01158 0.10397 0.0
C898 C 0.52299 1.0024 0.13806 0.0
C899 C 0.52468 0.0135 0.11855 0.0
C900 C 0.53833 0.98936 0.14312 0.0
C901 C 0.55717 0.99902 0.10929 0.0
C902 C 0.55553 0.9879 0.12883 0.0
C903 C 0.54412 0.08221 0.04678 0.0
C904 C 0.54121 0.02154 0.0826 0.0
C905 C 0.64423 0.02258 0.09181 0.0
C906 C 0.64809 0.04861 0.1016 0.0
C907 C 0.59317 0.07949 0.03226 0.0
C908 C 0.57978 0.07997 0.93909 0.0
C909 C 0.59437 0.0748 0.92233 0.0
C910 C 0.59286 0.08124 0.90025 0.0
C911 C 0.57645 0.09277 0.89479 0.0
C912 C 0.56311 0.09111 0.93347 0.0
C913 C 0.56149 0.09746 0.91133 0.0
C914 C 0.5832 0.01111 0.99848 0.0
C915 C 0.5828 0.0738 0.96228 0.0
H916 H 0.51255 0.0232 0.11443 0.0
H917 H 0.53715 0.98068 0.15821 0.0
H918 H 0.57044 0.99758 0.09831 0.0
H919 H 0.56751 0.97805 0.13283 0.0
H920 H 0.60723 0.06615 0.92666 0.0
H921 H 0.57511 0.09783 0.87771 0.0
H922 H 0.55153 0.09507 0.9461 0.0
H923 H 0.5487 0.10614 0.90705 0.0
Eu924 Eu 0.33146 0.33351 0.29159 0.0
C925 C 0.24093 0.25022 0.25362 0.0
C926 C 0.22566 0.24396 0.29031 0.0
C927 C 0.20201 0.23012 0.25238 0.0
C928 C 0.24396 0.25207 0.27813 0.0
C929 C 0.21987 0.23925 0.2405 0.0
C930 C 0.20488 0.23255 0.27726 0.0
C931 C 0.23547 0.24652 0.20449 0.0
N932 N 0.25843 0.2594 0.24259 0.0
C933 C 0.25595 0.25702 0.21811 0.0
C934 C 0.21731 0.23759 0.21572 0.0
Eu935 Eu 0.2939 0.27098 0.26491 0.0
N936 N 0.26435 0.26326 0.29028 0.0
C937 C 0.26639 0.26938 0.31518 0.0
C938 C 0.22851 0.24829 0.3154 0.0
C939 C 0.24885 0.26162 0.3279 0.0
H940 H 0.26985 0.26216 0.20853 0.0
H941 H 0.25097 0.26646 0.34748 0.0
H942 H 0.19082 0.22598 0.28633 0.0
H943 H 0.23384 0.24479 0.18519 0.0
H944 H 0.28093 0.28157 0.32598 0.0
H945 H 0.39114 0.33517 0.22541 0.0
H946 H 0.21488 0.24248 0.32535 0.0
H947 H 0.34045 0.35273 0.35155 0.0
H948 H 0.3547 0.3279 0.23901 0.0
H949 H 0.3715 0.36878 0.38404 0.0
H950 H 0.18583 0.22146 0.24254 0.0
H951 H 0.42424 0.34888 0.2551 0.0
H952 H 0.4405 0.36217 0.29844 0.0
H953 H 0.20147 0.2292 0.20506 0.0
H954 H 0.4352 0.37109 0.3416 0.0
N955 N 0.36631 0.33685 0.27657 0.0
C956 C 0.36869 0.33394 0.2525 0.0
C957 C 0.40812 0.34554 0.26132 0.0
C958 C 0.40572 0.34932 0.28596 0.0
C959 C 0.38951 0.33794 0.24453 0.0
C960 C 0.38433 0.34468 0.29311 0.0
H961 H 0.40958 0.37348 0.37367 0.0
N962 N 0.3606 0.346 0.32339 0.0
C963 C 0.37453 0.3631 0.36537 0.0
C964 C 0.38137 0.34942 0.3173 0.0
C965 C 0.35699 0.35371 0.34699 0.0
C966 C 0.39598 0.36574 0.35944 0.0
C967 C 0.39966 0.35931 0.33515 0.0
O968 O 0.32187 0.36629 0.31162 0.0
O969 O 0.29652 0.31133 0.28005 0.0
O970 O 0.29273 0.29598 0.23884 0.0
O971 O 0.32143 0.33219 0.25238 0.0
O972 O 0.30443 0.33356 0.31555 0.0
O973 O 0.33945 0.36902 0.28044 0.0
O974 O 0.30227 0.25322 0.22965 0.0
O975 O 0.32769 0.2956 0.26732 0.0
O976 O 0.33222 0.30954 0.31898 0.0
O977 O 0.30702 0.26979 0.30269 0.0
O978 O 0.32501 0.2603 0.27413 0.0
O979 O 0.28377 0.2302 0.25109 0.0
C980 C 0.28885 0.31929 0.29932 0.0
C981 C 0.34044 0.40707 0.30957 0.0
C982 C 0.34008 0.44989 0.30977 0.0
C983 C 0.33502 0.42433 0.29807 0.0
C984 C 0.3516 0.45862 0.33298 0.0
C985 C 0.35209 0.41556 0.33282 0.0
C986 C 0.35787 0.4414 0.34435 0.0
C987 C 0.30597 0.31672 0.23561 0.0
C988 C 0.33038 0.38056 0.29795 0.0
C989 C 0.42097 0.36344 0.32816 0.0
C990 C 0.42399 0.35841 0.3036 0.0
C991 C 0.33847 0.28065 0.27192 0.0
C992 C 0.30595 0.21179 0.22413 0.0
C993 C 0.31554 0.20244 0.24144 0.0
C994 C 0.32534 0.18244 0.23437 0.0
C995 C 0.32656 0.17285 0.20958 0.0
C996 C 0.30731 0.20217 0.19954 0.0
C997 C 0.31778 0.18291 0.19233 0.0
C998 C 0.3211 0.28676 0.32045 0.0
C999 C 0.29337 0.23046 0.2314 0.0
H1000 H 0.32541 0.41761 0.28041 0.0
H1001 H 0.35518 0.47837 0.34241 0.0
H1002 H 0.35609 0.40234 0.34223 0.0
H1003 H 0.36656 0.44796 0.3624 0.0
H1004 H 0.31483 0.21034 0.26045 0.0
H1005 H 0.33366 0.15711 0.20343 0.0
H1006 H 0.29995 0.20926 0.18593 0.0
H1007 H 0.31859 0.17529 0.1733 0.0
Eu1008 Eu 0.55011 0.57003 0.03361 0.0
C1009 C 0.57637 0.49217 0.95116 0.0
C1010 C 0.54517 0.47922 0.92036 0.0
C1011 C 0.58076 0.47424 0.90925 0.0
C1012 C 0.5544 0.48982 0.94468 0.0
C1013 C 0.5897 0.48397 0.93357 0.0
C1014 C 0.55854 0.47189 0.90266 0.0
C1015 C 0.61922 0.49336 0.9656 0.0
N1016 N 0.58444 0.50113 0.97486 0.0
C1017 C 0.60534 0.50108 0.98239 0.0
C1018 C 0.61144 0.485 0.94104 0.0
Eu1019 Eu 0.55973 0.51249 1.00249 0.0
N1020 N 0.54176 0.49637 0.9623 0.0
C1021 C 0.51951 0.49135 0.95691 0.0
C1022 C 0.5226 0.47545 0.91466 0.0
C1023 C 0.50969 0.48131 0.93307 0.0
H1024 H 0.61143 0.50723 1.00136 0.0
H1025 H 0.49213 0.47794 0.92898 0.0
H1026 H 0.55173 0.46378 0.88393 0.0
H1027 H 0.63587 0.49374 0.97162 0.0
H1028 H 0.50904 0.49534 0.97075 0.0
H1029 H 0.62303 0.60725 0.10068 0.0
H1030 H 0.51491 0.46737 0.89623 0.0
H1031 H 0.49828 0.5719 0.04056 0.0
H1032 H 0.60302 0.58854 0.06044 0.0
H1033 H 0.47608 0.58487 0.07319 0.0
H1034 H 0.59076 0.46791 0.89549 0.0
H1035 H 0.60306 0.61814 0.13598 0.0
H1036 H 0.56744 0.621 0.15224 0.0
H1037 H 0.62217 0.47882 0.92809 0.0
H1038 H 0.52758 0.61513 0.14481 0.0
N1039 N 0.57128 0.5875 0.07219 0.0
C1040 C 0.59372 0.59287 0.07536 0.0
C1041 C 0.59399 0.60963 0.11821 0.0
C1042 C 0.57117 0.60526 0.11482 0.0
C1043 C 0.60532 0.60357 0.09835 0.0
C1044 C 0.56012 0.59404 0.0913 0.0
H1045 H 0.49348 0.6019 0.11545 0.0
N1046 N 0.52773 0.58074 0.06424 0.0
C1047 C 0.49336 0.58649 0.07741 0.0
C1048 C 0.53769 0.59064 0.08718 0.0
C1049 C 0.50597 0.57917 0.059 0.0
C1050 C 0.50323 0.59604 0.10123 0.0
C1051 C 0.52569 0.59848 0.10635 0.0
O1052 O 0.53444 0.59743 0.02382 0.0
O1053 O 0.54807 0.54574 0.99536 0.0
O1054 O 0.58612 0.54144 0.99156 0.0
O1055 O 0.58447 0.57635 0.02157 0.0
O1056 O 0.52071 0.55798 0.00466 0.0
O1057 O 0.56999 0.6067 0.03155 0.0
O1058 O 0.57022 0.48653 0.0206 0.0
O1059 O 0.56149 0.5369 0.04074 0.0
O1060 O 0.52513 0.53989 0.04483 0.0
O1061 O 0.52461 0.5077 0.01141 0.0
O1062 O 0.58903 0.52515 0.03165 0.0
O1063 O 0.54006 0.47334 0.99651 0.0
C1064 C 0.52907 0.54662 0.98666 0.0
C1065 C 0.55343 0.64064 0.0346 0.0
C1066 C 0.56426 0.68286 0.02845 0.0
C1067 C 0.56454 0.65745 0.02217 0.0
C1068 C 0.55316 0.69155 0.04803 0.0
C1069 C 0.54219 0.64923 0.054 0.0
C1070 C 0.54219 0.67474 0.06074 0.0
C1071 C 0.59426 0.56509 1.004 0.0
C1072 C 0.55297 0.61415 0.02536 0.0
C1073 C 0.53653 0.60906 0.12985 0.0
C1074 C 0.55922 0.6124 0.13409 0.0
C1075 C 0.58058 0.53657 0.0496 0.0
C1076 C 0.55805 0.44282 0.00443 0.0
C1077 C 0.54839 0.42492 0.01667 0.0
C1078 C 0.55481 0.40229 0.01431 0.0
C1079 C 0.57065 0.39758 0.99862 0.0
C1080 C 0.57359 0.43773 0.9887 0.0
C1081 C 0.57975 0.41508 0.98573 0.0
C1082 C 0.51569 0.51754 0.03038 0.0
C1083 C 0.55353 0.46767 0.01106 0.0
H1084 H 0.57317 0.65055 0.00718 0.0
H1085 H 0.55251 0.71108 0.05308 0.0
H1086 H 0.53332 0.63629 0.06364 0.0
H1087 H 0.5334 0.68142 0.0756 0.0
H1088 H 0.53614 0.42905 0.02847 0.0
H1089 H 0.57641 0.38067 0.99664 0.0
H1090 H 0.58127 0.45138 0.97917 0.0
H1091 H 0.59201 0.41134 0.97383 0.0
Eu1092 Eu 0.83114 0.30947 0.26576 0.0
C1093 C 0.77392 0.23611 0.31695 0.0
C1094 C 0.78324 0.19669 0.30081 0.0
C1095 C 0.77009 0.20456 0.3403 0.0
C1096 C 0.78174 0.22079 0.29884 0.0
C1097 C 0.7675 0.22791 0.33765 0.0
C1098 C 0.77794 0.18897 0.32189 0.0
C1099 C 0.75405 0.26504 0.35023 0.0
N1100 N 0.7711 0.25826 0.31355 0.0
C1101 C 0.76039 0.27217 0.32925 0.0
C1102 C 0.75789 0.24298 0.35462 0.0
Eu1103 Eu 0.78313 0.26988 0.27817 0.0
N1104 N 0.78627 0.22861 0.27849 0.0
C1105 C 0.79054 0.21225 0.25868 0.0
C1106 C 0.78911 0.18064 0.28113 0.0
C1107 C 0.79239 0.18831 0.25982 0.0
H1108 H 0.75714 0.28912 0.32588 0.0
H1109 H 0.79634 0.17579 0.24423 0.0
H1110 H 0.77917 0.17064 0.3238 0.0
H1111 H 0.7461 0.27649 0.36292 0.0
H1112 H 0.79299 0.21754 0.24191 0.0
H1113 H 0.82329 0.40279 0.31307 0.0
H1114 H 0.79042 0.16201 0.28192 0.0
H1115 H 0.84725 0.29093 0.21125 0.0
H1116 H 0.82329 0.35858 0.30871 0.0
H1117 H 0.85692 0.30818 0.17602 0.0
H1118 H 0.76542 0.19804 0.35615 0.0
H1119 H 0.83009 0.42217 0.27866 0.0
H1120 H 0.83939 0.41812 0.23615 0.0
H1121 H 0.75276 0.23736 0.37076 0.0
H1122 H 0.84842 0.39247 0.19894 0.0
N1123 N 0.82925 0.35199 0.27163 0.0
C1124 C 0.82615 0.36641 0.29332 0.0
C1125 C 0.82992 0.40251 0.27648 0.0
C1126 C 0.83395 0.38803 0.25461 0.0
C1127 C 0.82613 0.39167 0.29596 0.0
C1128 C 0.8335 0.36246 0.25267 0.0
H1129 H 0.85504 0.35161 0.17642 0.0
N1130 N 0.83888 0.3238 0.23066 0.0
C1131 C 0.85159 0.31949 0.19145 0.0
C1132 C 0.83841 0.34795 0.23159 0.0
C1133 C 0.84607 0.30978 0.21134 0.0
C1134 C 0.85048 0.344 0.19174 0.0
C1135 C 0.84414 0.35869 0.21208 0.0
O1136 O 0.86425 0.30601 0.26064 0.0
O1137 O 0.81989 0.27294 0.27783 0.0
O1138 O 0.80173 0.28616 0.315 0.0
O1139 O 0.82853 0.31809 0.30617 0.0
O1140 O 0.83925 0.27185 0.25 0.0
O1141 O 0.8591 0.33487 0.29068 0.0
O1142 O 0.74999 0.27432 0.27277 0.0
O1143 O 0.79478 0.30707 0.26693 0.0
O1144 O 0.8086 0.29471 0.23057 0.0
O1145 O 0.79082 0.25815 0.23984 0.0
O1146 O 0.77501 0.30751 0.29413 0.0
O1147 O 0.75784 0.24067 0.25276 0.0
C1148 C 0.83034 0.25883 0.26444 0.0
C1149 C 0.89398 0.34155 0.27603 0.0
C1150 C 0.93336 0.35678 0.28816 0.0
C1151 C 0.91229 0.34454 0.29226 0.0
C1152 C 0.93559 0.3675 0.26819 0.0
C1153 C 0.8964 0.35216 0.25612 0.0
C1154 C 0.91714 0.36538 0.25244 0.0
C1155 C 0.81801 0.30666 0.3215 0.0
C1156 C 0.87333 0.32479 0.27908 0.0
C1157 C 0.84409 0.38392 0.21376 0.0
C1158 C 0.83897 0.39854 0.23495 0.0
C1159 C 0.78468 0.32132 0.28069 0.0
C1160 C 0.721 0.23796 0.26031 0.0
C1161 C 0.70299 0.24167 0.24785 0.0
C1162 C 0.68156 0.23083 0.25188 0.0
C1163 C 0.67834 0.2148 0.26765 0.0
C1164 C 0.71779 0.22226 0.27628 0.0
C1165 C 0.69643 0.21047 0.27968 0.0
C1166 C 0.79628 0.27143 0.22404 0.0
C1167 C 0.74267 0.25255 0.25741 0.0
H1168 H 0.91014 0.33631 0.30764 0.0
H1169 H 0.95162 0.37666 0.2642 0.0
H1170 H 0.8825 0.34976 0.2432 0.0
H1171 H 0.91903 0.37328 0.23689 0.0
H1172 H 0.70576 0.25381 0.23548 0.0
H1173 H 0.66198 0.20635 0.27132 0.0
H1174 H 0.73164 0.21939 0.28622 0.0
H1175 H 0.6939 0.19846 0.29212 0.0
Eu1176 Eu 0.06673 0.53235 0.55696 0.0
C1177 C 0.01309 0.56031 0.47635 0.0
C1178 C 0.99306 0.51879 0.45285 0.0
C1179 C 0.97766 0.55459 0.45386 0.0
C1180 C 0.0116 0.53492 0.46828 0.0
C1181 C 0.99636 0.57058 0.46884 0.0
C1182 C 0.976 0.52871 0.44591 0.0
C1183 C 0.01864 0.6119 0.48985 0.0
N1184 N 0.03123 0.57512 0.49104 0.0
C1185 C 0.03476 0.60077 0.49669 0.0
C1186 C 0.99917 0.59669 0.47616 0.0
Eu1187 Eu 0.0587 0.5556 0.50122 0.0
N1188 N 0.02819 0.52594 0.47577 0.0
C1189 C 0.0274 0.50088 0.46801 0.0
C1190 C 0.99219 0.49315 0.44491 0.0
C1191 C 0.00949 0.48419 0.45246 0.0
H1192 H 0.05022 0.61261 0.50634 0.0
H1193 H 0.00892 0.46434 0.4466 0.0
H1194 H 0.96155 0.51659 0.43424 0.0
H1195 H 0.02138 0.6322 0.49484 0.0
H1196 H 0.04021 0.4934 0.47419 0.0
H1197 H 0.11003 0.62315 0.62096 0.0
H1198 H 0.97823 0.48013 0.43309 0.0
H1199 H 0.08094 0.47672 0.54933 0.0
H1200 H 0.07859 0.59305 0.59632 0.0
H1201 H 0.11327 0.46164 0.55762 0.0
H1202 H 0.96455 0.56209 0.44808 0.0
H1203 H 0.14516 0.61193 0.62581 0.0
H1204 H 0.16651 0.57967 0.61751 0.0
H1205 H 0.98674 0.60533 0.47072 0.0
H1206 H 0.16758 0.53598 0.60012 0.0
N1207 N 0.09506 0.56364 0.58506 0.0
C1208 C 0.09344 0.58705 0.59729 0.0
C1209 C 0.13122 0.59819 0.61458 0.0
C1210 C 0.13264 0.57396 0.60336 0.0
C1211 C 0.11145 0.60459 0.61185 0.0
C1212 C 0.11404 0.55671 0.58873 0.0
H1213 H 0.14779 0.4919 0.5784 0.0
N1214 N 0.09693 0.51565 0.56466 0.0
C1215 C 0.11411 0.48156 0.56327 0.0
C1216 C 0.11495 0.53216 0.57832 0.0
C1217 C 0.09578 0.49031 0.55866 0.0
C1218 C 0.13353 0.4987 0.57496 0.0
C1219 C 0.13402 0.52421 0.58313 0.0
O1220 O 0.05015 0.49519 0.56144 0.0
O1221 O 0.04573 0.52789 0.52238 0.0
O1222 O 0.04517 0.57881 0.53148 0.0
O1223 O 0.0531 0.56677 0.56721 0.0
O1224 O 0.02982 0.52477 0.55293 0.0
O1225 O 0.05893 0.52837 0.59291 0.0
O1226 O 0.07827 0.58499 0.48658 0.0
O1227 O 0.0815 0.55413 0.5316 0.0
O1228 O 0.07938 0.50858 0.52549 0.0
O1229 O 0.07457 0.52345 0.49104 0.0
O1230 O 0.08487 0.58895 0.52432 0.0
O1231 O 0.07161 0.54601 0.46654 0.0
C1232 C 0.02724 0.52387 0.53031 0.0
C1233 C 0.04074 0.48799 0.60047 0.0
C1234 C 0.02051 0.4818 0.63482 0.0
C1235 C 0.03024 0.49751 0.62029 0.0
C1236 C 0.02207 0.45668 0.62967 0.0
C1237 C 0.04192 0.46282 0.59553 0.0
C1238 C 0.03278 0.44734 0.61021 0.0
C1239 C 0.04556 0.58113 0.55511 0.0
C1240 C 0.05016 0.5041 0.58471 0.0
C1241 C 0.15271 0.54167 0.59669 0.0
C1242 C 0.15206 0.56651 0.60667 0.0
C1243 C 0.09279 0.57659 0.53744 0.0
C1244 C 0.07675 0.57671 0.44418 0.0
C1245 C 0.09142 0.57338 0.42701 0.0
C1246 C 0.08817 0.57928 0.40487 0.0
C1247 C 0.07037 0.58903 0.40006 0.0
C1248 C 0.05895 0.58646 0.4393 0.0
C1249 C 0.0559 0.59278 0.41736 0.0
C1250 C 0.08136 0.50832 0.50247 0.0
C1251 C 0.08033 0.56941 0.46671 0.0
H1252 H 0.02886 0.5168 0.62376 0.0
H1253 H 0.01493 0.44422 0.64065 0.0
H1254 H 0.05002 0.45516 0.5804 0.0
H1255 H 0.03383 0.42795 0.60637 0.0
H1256 H 0.10498 0.56544 0.43054 0.0
H1257 H 0.06762 0.59349 0.38289 0.0
H1258 H 0.04736 0.58905 0.45221 0.0
H1259 H 0.04215 0.60027 0.41365 0.0
Eu1260 Eu 0.78456 0.79936 0.27156 0.0
C1261 C 0.86124 0.76549 0.31629 0.0
C1262 C 0.87709 0.80124 0.35023 0.0
C1263 C 0.88065 0.75961 0.35158 0.0
C1264 C 0.86517 0.79097 0.32702 0.0
C1265 C 0.86956 0.74967 0.32814 0.0
C1266 C 0.88433 0.78533 0.36265 0.0
C1267 C 0.8578 0.7161 0.29167 0.0
N1268 N 0.85085 0.75654 0.29347 0.0
C1269 C 0.84996 0.73255 0.28065 0.0
C1270 C 0.86734 0.72458 0.31566 0.0
Eu1271 Eu 0.83863 0.78543 0.27534 0.0
N1272 N 0.85841 0.80593 0.31429 0.0
C1273 C 0.86429 0.83159 0.32329 0.0
C1274 C 0.88198 0.8273 0.35998 0.0
C1275 C 0.87578 0.84255 0.34631 0.0
H1276 H 0.84271 0.726 0.26201 0.0
H1277 H 0.87981 0.8628 0.3535 0.0
H1278 H 0.89339 0.79288 0.38051 0.0
H1279 H 0.85655 0.69694 0.28162 0.0
H1280 H 0.85965 0.84395 0.31336 0.0
H1281 H 0.74236 0.7201 0.19544 0.0
H1282 H 0.89101 0.83588 0.37776 0.0
H1283 H 0.77902 0.85849 0.28207 0.0
H1284 H 0.76098 0.74015 0.23619 0.0
H1285 H 0.76846 0.88718 0.25935 0.0
H1286 H 0.887 0.74771 0.36104 0.0
H1287 H 0.73549 0.74613 0.16794 0.0
H1288 H 0.73685 0.78903 0.16178 0.0
H1289 H 0.87358 0.71188 0.32411 0.0
H1290 H 0.7442 0.83476 0.17913 0.0
N1291 N 0.7653 0.77783 0.2325 0.0
C1292 C 0.75814 0.7521 0.22483 0.0
C1293 C 0.74372 0.75521 0.18602 0.0
C1294 C 0.74983 0.78147 0.19438 0.0
C1295 C 0.74749 0.74047 0.20151 0.0
C1296 C 0.76052 0.79237 0.2181 0.0
H1297 H 0.75555 0.87146 0.21563 0.0
N1298 N 0.77352 0.82752 0.25117 0.0
C1299 C 0.76761 0.86786 0.25013 0.0
C1300 C 0.76485 0.81805 0.22773 0.0
C1301 C 0.77366 0.85165 0.26289 0.0
C1302 C 0.7604 0.85894 0.22546 0.0
C1303 C 0.75835 0.83358 0.21409 0.0
O1304 O 0.76659 0.81555 0.3001 0.0
O1305 O 0.81162 0.7955 0.29644 0.0
O1306 O 0.81458 0.751 0.28344 0.0
O1307 O 0.78039 0.75797 0.2744 0.0
O1308 O 0.8001 0.82765 0.3063 0.0
O1309 O 0.7514 0.77909 0.27659 0.0
O1310 O 0.85668 0.76944 0.2466 0.0
O1311 O 0.8115 0.78923 0.25078 0.0
O1312 O 0.809 0.83465 0.2659 0.0
O1313 O 0.84322 0.82722 0.27383 0.0
O1314 O 0.82247 0.75682 0.24078 0.0
O1315 O 0.87079 0.80681 0.26882 0.0
C1316 C 0.81308 0.81532 0.3131 0.0
C1317 C 0.72789 0.80394 0.29431 0.0
C1318 C 0.69259 0.8039 0.31043 0.0
C1319 C 0.71214 0.79574 0.30935 0.0
C1320 C 0.68963 0.82113 0.29696 0.0
C1321 C 0.72375 0.81995 0.28016 0.0
C1322 C 0.70498 0.82884 0.28182 0.0
C1323 C 0.7927 0.74328 0.27985 0.0
C1324 C 0.74904 0.79694 0.29448 0.0
C1325 C 0.749 0.82308 0.18998 0.0
C1326 C 0.74479 0.79705 0.18013 0.0
C1327 C 0.80962 0.76936 0.23417 0.0
C1328 C 0.8955 0.78336 0.25171 0.0
C1329 C 0.91034 0.79009 0.2351 0.0
C1330 C 0.93114 0.7847 0.23588 0.0
C1331 C 0.93646 0.77189 0.25282 0.0
C1332 C 0.90161 0.77102 0.26862 0.0
C1333 C 0.92181 0.76508 0.26897 0.0
C1334 C 0.83086 0.84226 0.26944 0.0
C1335 C 0.87363 0.78883 0.25131 0.0
H1336 H 0.71505 0.78289 0.3199 0.0
H1337 H 0.67536 0.8287 0.29804 0.0
H1338 H 0.73506 0.82579 0.26794 0.0
H1339 H 0.70229 0.84177 0.27129 0.0
H1340 H 0.90594 0.79987 0.22209 0.0
H1341 H 0.95215 0.76724 0.25366 0.0
H1342 H 0.89084 0.76597 0.28165 0.0
H1343 H 0.92621 0.75535 0.282 0.0
Eu1344 Eu 0.82432 0.27932 0.74129 0.0
C1345 C 0.79275 0.35912 0.81641 0.0
C1346 C 0.82733 0.38903 0.8341 0.0
C1347 C 0.79366 0.40283 0.83498 0.0
C1348 C 0.81521 0.36439 0.82194 0.0
C1349 C 0.78165 0.37818 0.82326 0.0
C1350 C 0.81645 0.40822 0.84042 0.0
C1351 C 0.74743 0.34656 0.80875 0.0
N1352 N 0.78161 0.33509 0.80534 0.0
C1353 C 0.75921 0.32833 0.80261 0.0
C1354 C 0.75872 0.3717 0.81885 0.0
Eu1355 Eu 0.80208 0.30463 0.79698 0.0
N1356 N 0.82517 0.34536 0.81572 0.0
C1357 C 0.8473 0.34971 0.82154 0.0
C1358 C 0.84999 0.39359 0.83979 0.0
C1359 C 0.85999 0.3738 0.83355 0.0
H1360 H 0.75049 0.30871 0.79572 0.0
H1361 H 0.87752 0.37712 0.83781 0.0
H1362 H 0.82548 0.42723 0.84982 0.0
H1363 H 0.72967 0.34116 0.80605 0.0
H1364 H 0.85555 0.33496 0.81645 0.0
H1365 H 0.74253 0.22245 0.69236 0.0
H1366 H 0.85988 0.41226 0.84903 0.0
H1367 H 0.86948 0.25867 0.74827 0.0
H1368 H 0.7671 0.25809 0.71975 0.0
H1369 H 0.88219 0.2205 0.73625 0.0
H1370 H 0.78543 0.41773 0.84033 0.0
H1371 H 0.75465 0.1843 0.67526 0.0
H1372 H 0.78367 0.16128 0.67351 0.0
H1373 H 0.74958 0.38577 0.82388 0.0
H1374 H 0.82097 0.16013 0.68653 0.0
N1375 N 0.79576 0.24348 0.71715 0.0
C1376 C 0.77415 0.24315 0.7117 0.0
C1377 C 0.76622 0.20062 0.68697 0.0
C1378 C 0.78761 0.2 0.69354 0.0
C1379 C 0.75939 0.22214 0.69643 0.0
C1380 C 0.80214 0.2218 0.70898 0.0
H1381 H 0.85733 0.18166 0.7103 0.0
N1382 N 0.83646 0.24156 0.73212 0.0
C1383 C 0.86536 0.2201 0.73097 0.0
C1384 C 0.82297 0.22083 0.71678 0.0
C1385 C 0.85778 0.24169 0.73832 0.0
C1386 C 0.85135 0.19833 0.71623 0.0
C1387 C 0.83001 0.19854 0.70867 0.0
O1388 O 0.85887 0.29589 0.73915 0.0
O1389 O 0.82717 0.31289 0.77213 0.0
O1390 O 0.78155 0.31117 0.76561 0.0
O1391 O 0.7947 0.29342 0.72934 0.0
O1392 O 0.8258 0.31835 0.73698 0.0
O1393 O 0.83682 0.27662 0.70629 0.0
O1394 O 0.77862 0.2813 0.8142 0.0
O1395 O 0.80665 0.27024 0.77144 0.0
O1396 O 0.84583 0.27647 0.774 0.0
O1397 O 0.83236 0.29358 0.8094 0.0
O1398 O 0.77458 0.27102 0.77794 0.0
O1399 O 0.80753 0.30709 0.83594 0.0
C1400 C 0.82781 0.32905 0.7598 0.0
C1401 C 0.86608 0.31133 0.70487 0.0
C1402 C 0.86224 0.33931 0.67925 0.0
C1403 C 0.85307 0.31918 0.68908 0.0
C1404 C 0.88459 0.35188 0.68552 0.0
C1405 C 0.88842 0.32384 0.71085 0.0
C1406 C 0.8976 0.3441 0.70124 0.0
C1407 C 0.78059 0.30472 0.74148 0.0
C1408 C 0.85645 0.29054 0.71559 0.0
C1409 C 0.81577 0.17727 0.69296 0.0
C1410 C 0.7946 0.17798 0.68545 0.0
C1411 C 0.78701 0.25743 0.76773 0.0
C1412 C 0.77691 0.29159 0.8561 0.0
C1413 C 0.78133 0.27921 0.87359 0.0
C1414 C 0.76727 0.27608 0.89143 0.0
C1415 C 0.74881 0.28597 0.89193 0.0
C1416 C 0.75859 0.30169 0.85684 0.0
C1417 C 0.74467 0.29899 0.87483 0.0
C1418 C 0.84684 0.28319 0.79797 0.0
C1419 C 0.78966 0.28971 0.83543 0.0
H1420 H 0.83574 0.30981 0.68451 0.0
H1421 H 0.89205 0.36734 0.67789 0.0
H1422 H 0.89872 0.318 0.72302 0.0
H1423 H 0.91484 0.35368 0.70588 0.0
H1424 H 0.7951 0.27071 0.87248 0.0
H1425 H 0.73765 0.28362 0.90548 0.0
H1426 H 0.75467 0.3109 0.8432 0.0
H1427 H 0.73038 0.3065 0.8752 0.0
Eu1428 Eu 0.83697 0.84018 0.79497 0.0
C1429 C 0.75397 0.76354 0.7419 0.0
C1430 C 0.73118 0.75999 0.77433 0.0
C1431 C 0.71414 0.75271 0.73341 0.0
C1432 C 0.75214 0.76508 0.76612 0.0
C1433 C 0.73493 0.75627 0.72512 0.0
C1434 C 0.71228 0.75466 0.75801 0.0
C1435 C 0.75811 0.75249 0.69293 0.0
N1436 N 0.77424 0.76666 0.73439 0.0
C1437 C 0.77644 0.75973 0.71024 0.0
C1438 C 0.73729 0.75133 0.70041 0.0
Eu1439 Eu 0.80476 0.77725 0.76443 0.0
N1440 N 0.77071 0.76955 0.7813 0.0
C1441 C 0.76916 0.76721 0.80448 0.0
C1442 C 0.72976 0.75922 0.79845 0.0
C1443 C 0.74883 0.76243 0.81348 0.0
H1444 H 0.79254 0.76064 0.7043 0.0
H1445 H 0.74792 0.76105 0.83199 0.0
H1446 H 0.69611 0.75098 0.76407 0.0
H1447 H 0.76007 0.74782 0.67386 0.0
H1448 H 0.78333 0.76866 0.81628 0.0
H1449 H 0.88274 0.86151 0.71871 0.0
H1450 H 0.714 0.75528 0.8054 0.0
H1451 H 0.85908 0.83027 0.8471 0.0
H1452 H 0.8522 0.83863 0.73536 0.0
H1453 H 0.89438 0.84214 0.87107 0.0
H1454 H 0.69938 0.74742 0.72083 0.0
H1455 H 0.9178 0.88297 0.74438 0.0
H1456 H 0.94057 0.89091 0.78371 0.0
H1457 H 0.72308 0.74554 0.68698 0.0
H1458 H 0.94414 0.88374 0.82432 0.0
N1459 N 0.86731 0.85065 0.77199 0.0
C1460 C 0.86615 0.84988 0.74777 0.0
C1461 C 0.90385 0.87386 0.75225 0.0
C1462 C 0.90587 0.8721 0.77618 0.0
C1463 C 0.88407 0.86197 0.73777 0.0
C1464 C 0.88718 0.8599 0.78558 0.0
H1465 H 0.92737 0.86467 0.85636 0.0
N1466 N 0.87125 0.84258 0.8164 0.0
C1467 C 0.89328 0.84562 0.85325 0.0
C1468 C 0.8893 0.85528 0.80822 0.0
C1469 C 0.87307 0.83819 0.83895 0.0
C1470 C 0.91181 0.85849 0.84499 0.0
C1471 C 0.91001 0.86359 0.82232 0.0
O1472 O 0.83368 0.86218 0.83102 0.0
O1473 O 0.8042 0.81319 0.78984 0.0
O1474 O 0.80099 0.80279 0.7394 0.0
O1475 O 0.82385 0.84309 0.75767 0.0
O1476 O 0.8048 0.84954 0.78705 0.0
O1477 O 0.84995 0.88077 0.80529 0.0
O1478 O 0.81146 0.74651 0.73764 0.0
O1479 O 0.83901 0.80105 0.7789 0.0
O1480 O 0.82653 0.81792 0.82285 0.0
O1481 O 0.81886 0.77587 0.80166 0.0
O1482 O 0.83338 0.78334 0.74263 0.0
O1483 O 0.79942 0.73943 0.77131 0.0
C1484 C 0.79235 0.82753 0.78653 0.0
C1485 C 0.83264 0.90446 0.83392 0.0
C1486 C 0.81746 0.93685 0.82346 0.0
C1487 C 0.82413 0.91458 0.81648 0.0
C1488 C 0.81839 0.94854 0.84811 0.0
C1489 C 0.83329 0.916 0.85855 0.0
C1490 C 0.826 0.93789 0.86559 0.0
C1491 C 0.81033 0.82651 0.73923 0.0
C1492 C 0.84296 0.88362 0.82654 0.0
C1493 C 0.92826 0.87694 0.81355 0.0
C1494 C 0.9262 0.88118 0.79052 0.0
C1495 C 0.8484 0.79583 0.76021 0.0
C1496 C 0.80521 0.7038 0.74106 0.0
C1497 C 0.8109 0.69035 0.75701 0.0
C1498 C 0.81351 0.66602 0.74814 0.0
C1499 C 0.80955 0.65479 0.72316 0.0
C1500 C 0.80122 0.69247 0.71611 0.0
C1501 C 0.80317 0.66792 0.70725 0.0
C1502 C 0.82345 0.79372 0.82219 0.0
C1503 C 0.80525 0.73025 0.75028 0.0
H1504 H 0.82365 0.90585 0.79739 0.0
H1505 H 0.81323 0.96581 0.85377 0.0
H1506 H 0.83992 0.90845 0.87225 0.0
H1507 H 0.82669 0.94689 0.8846 0.0
H1508 H 0.81473 0.69945 0.77618 0.0
H1509 H 0.81175 0.63609 0.716 0.0
H1510 H 0.79687 0.7027 0.70349 0.0
H1511 H 0.80025 0.6593 0.688 0.0
Eu1512 Eu 0.53177 0.52755 0.5012 0.0
C1513 C 0.60066 0.62205 0.56497 0.0
C1514 C 0.60909 0.64853 0.53714 0.0
C1515 C 0.61489 0.66749 0.58037 0.0
C1516 C 0.60127 0.62448 0.54156 0.0
C1517 C 0.60796 0.64346 0.58469 0.0
C1518 C 0.61542 0.67002 0.55662 0.0
C1519 C 0.60323 0.61564 0.61146 0.0
N1520 N 0.59436 0.59858 0.56854 0.0
C1521 C 0.59631 0.59503 0.59135 0.0
C1522 C 0.60885 0.64001 0.60814 0.0
Eu1523 Eu 0.58331 0.56394 0.534 0.0
N1524 N 0.59561 0.60324 0.5232 0.0
C1525 C 0.59886 0.6049 0.50004 0.0
C1526 C 0.61116 0.65024 0.51334 0.0
C1527 C 0.60628 0.62828 0.49476 0.0
H1528 H 0.5921 0.57618 0.59404 0.0
H1529 H 0.6082 0.6293 0.47629 0.0
H1530 H 0.62137 0.6886 0.55353 0.0
H1531 H 0.60431 0.61269 0.62948 0.0
H1532 H 0.59507 0.58852 0.48507 0.0
H1533 H 0.50664 0.4606 0.55717 0.0
H1534 H 0.61707 0.66832 0.5092 0.0
H1535 H 0.52386 0.5166 0.44113 0.0
H1536 H 0.52004 0.50181 0.54923 0.0
H1537 H 0.51179 0.48072 0.40512 0.0
H1538 H 0.62044 0.68414 0.59527 0.0
H1539 H 0.49742 0.42214 0.52358 0.0
H1540 H 0.49301 0.40278 0.47906 0.0
H1541 H 0.6144 0.65596 0.62373 0.0
H1542 H 0.49433 0.4082 0.43766 0.0
N1543 N 0.51966 0.48778 0.51105 0.0
C1544 C 0.51631 0.48562 0.53405 0.0
C1545 C 0.50359 0.44038 0.51985 0.0
C1546 C 0.50576 0.44262 0.49622 0.0
C1547 C 0.50868 0.46203 0.53882 0.0
C1548 C 0.51389 0.46686 0.49233 0.0
H1549 H 0.50111 0.43712 0.40996 0.0
N1550 N 0.52126 0.49351 0.46605 0.0
C1551 C 0.51268 0.47734 0.42299 0.0
C1552 C 0.51469 0.46985 0.4691 0.0
C1553 C 0.51957 0.49759 0.44341 0.0
C1554 C 0.50672 0.45279 0.42579 0.0
C1555 C 0.50731 0.44879 0.44904 0.0
O1556 O 0.50716 0.53803 0.48034 0.0
O1557 O 0.55231 0.56736 0.51608 0.0
O1558 O 0.55845 0.57171 0.56138 0.0
O1559 O 0.52687 0.54136 0.54209 0.0
O1560 O 0.54031 0.55689 0.4798 0.0
O1561 O 0.4998 0.52834 0.51398 0.0
O1562 O 0.60726 0.55331 0.55545 0.0
O1563 O 0.56268 0.52394 0.51958 0.0
O1564 O 0.55684 0.5205 0.47346 0.0
O1565 O 0.58866 0.54976 0.49354 0.0
O1566 O 0.57429 0.53543 0.55603 0.0
O1567 O 0.61518 0.56225 0.5215 0.0
C1568 C 0.55059 0.57561 0.49729 0.0
C1569 C 0.46985 0.52304 0.48497 0.0
C1570 C 0.4314 0.52253 0.48661 0.0
C1571 C 0.45345 0.53278 0.49604 0.0
C1572 C 0.4258 0.5025 0.46573 0.0
C1573 C 0.46421 0.50308 0.46404 0.0
C1574 C 0.44222 0.49294 0.45442 0.0
C1575 C 0.53792 0.55865 0.56174 0.0
C1576 C 0.49262 0.53496 0.49534 0.0
C1577 C 0.49999 0.42458 0.45283 0.0
C1578 C 0.49924 0.4215 0.47638 0.0
C1579 C 0.56424 0.51627 0.53882 0.0
C1580 C 0.64461 0.56569 0.55042 0.0
C1581 C 0.65955 0.5529 0.54021 0.0
C1582 C 0.68134 0.56017 0.55029 0.0
C1583 C 0.68843 0.58055 0.57069 0.0
C1584 C 0.65152 0.58618 0.57081 0.0
C1585 C 0.67348 0.59359 0.58089 0.0
C1586 C 0.57767 0.53305 0.47359 0.0
C1587 C 0.62177 0.55544 0.5403 0.0
H1588 H 0.45783 0.5483 0.51216 0.0
H1589 H 0.40883 0.49452 0.45807 0.0
H1590 H 0.47668 0.49544 0.4551 0.0
H1591 H 0.43789 0.47766 0.43819 0.0
H1592 H 0.65411 0.53683 0.52463 0.0
H1593 H 0.70535 0.58616 0.57875 0.0
H1594 H 0.64001 0.59613 0.57904 0.0
H1595 H 0.67885 0.60922 0.59674 0.0
Eu1596 Eu 0.08279 0.54765 0.00641 0.0
C1597 C 1.00267 0.50141 0.0554 0.0
C1598 C 0.98295 0.46473 0.02408 0.0
C1599 C 0.98119 0.46446 0.06636 0.0
C1600 C 0.99695 0.48935 0.03113 0.0
C1601 C 0.99436 0.48935 0.07328 0.0
C1602 C 0.97554 0.45215 0.0418 0.0
C1603 C 0.01088 0.52821 0.10341 0.0
N1604 N 0.01532 0.52548 0.06152 0.0
C1605 C 0.01864 0.53939 0.08502 0.0
C1606 C 0.99896 0.50295 0.09755 0.0
Eu1607 Eu 0.02851 0.54282 0.02944 0.0
N1608 N 0.00423 0.50209 0.01444 0.0
C1609 C 0.99681 0.49192 0.99046 0.0
C1610 C 0.97633 0.45372 0.99944 0.0
C1611 C 0.98304 0.46754 0.9826 0.0
H1612 H 0.02775 0.55898 0.08953 0.0
H1613 H 0.97766 0.4594 0.96353 0.0
H1614 H 0.96496 0.43316 0.0367 0.0
H1615 H 0.01403 0.53908 0.12206 0.0
H1616 H 1.00179 0.50214 0.97707 0.0
H1617 H 0.13286 0.63036 0.07418 0.0
H1618 H 0.96565 0.43483 0.99329 0.0
H1619 H 0.08825 0.53186 0.94761 0.0
H1620 H 0.1094 0.58749 0.0596 0.0
H1621 H 0.10272 0.55234 0.91566 0.0
H1622 H 0.97485 0.45478 0.07984 0.0
H1623 H 0.14457 0.65621 0.04537 0.0
H1624 H 0.1459 0.65895 1.00228 0.0
H1625 H 0.99286 0.49436 0.11181 0.0
H1626 H 0.13764 0.6377 0.95892 0.0
N1627 N 0.10672 0.58864 0.02247 0.0
C1628 C 0.11413 0.59822 0.04654 0.0
C1629 C 0.13408 0.63727 0.03874 0.0
C1630 C 0.12778 0.62679 0.01399 0.0
C1631 C 0.12758 0.62272 0.05504 0.0
C1632 C 0.11407 0.60204 0.00631 0.0
H1633 H 0.12186 0.59779 0.92643 0.0
N1634 N 0.0976 0.56576 0.97545 0.0
C1635 C 0.10446 0.56331 0.93419 0.0
C1636 C 0.10935 0.59019 0.98198 0.0
C1637 C 0.09615 0.55183 0.9522 0.0
C1638 C 0.11522 0.58896 0.94034 0.0
C1639 C 0.11829 0.6026 0.96458 0.0
O1640 O 0.09693 0.51663 0.99055 0.0
O1641 O 0.05231 0.52157 0.01348 0.0
O1642 O 0.0491 0.53109 0.05574 0.0
O1643 O 0.08396 0.54833 0.04599 0.0
O1644 O 0.06408 0.51056 0.98077 0.0
O1645 O 0.11342 0.54349 0.02329 0.0
O1646 O 0.01499 0.57406 0.0461 0.0
O1647 O 0.05886 0.5692 0.02218 0.0
O1648 O 0.06169 0.55555 0.97771 0.0
O1649 O 0.02669 0.54238 0.98952 0.0
O1650 O 0.04778 0.57896 0.0557 0.0
O1651 O 0.99698 0.54641 0.01443 0.0
C1652 C 0.04937 0.50376 0.99449 0.0
C1653 C 0.13511 0.52208 0.99757 0.0
C1654 C 0.16744 0.50486 0.99655 0.0
C1655 C 0.14808 0.5083 0.00673 0.0
C1656 C 0.17317 0.51517 0.9768 0.0
C1657 C 0.1418 0.53288 0.97856 0.0
C1658 C 0.16059 0.52925 0.96813 0.0
C1659 C 0.07064 0.5385 0.06024 0.0
C1660 C 0.11391 0.52351 0.00674 0.0
C1661 C 0.13084 0.62775 0.97203 0.0
C1662 C 0.13555 0.63985 0.99672 0.0
C1663 C 0.06208 0.58635 0.04182 0.0
C1664 C 0.97666 0.5677 0.04214 0.0
C1665 C 0.96415 0.58358 0.03629 0.0
C1666 C 0.9459 0.58688 0.04857 0.0
C1667 C 0.94022 0.5741 0.06662 0.0
C1668 C 0.97033 0.55455 0.05976 0.0
C1669 C 0.95228 0.55786 0.07199 0.0
C1670 C 0.04003 0.54926 0.97378 0.0
C1671 C 0.99711 0.56656 0.03114 0.0
H1672 H 0.14305 0.50037 0.02173 0.0
H1673 H 0.18731 0.51221 0.96775 0.0
H1674 H 0.13233 0.54377 0.97147 0.0
H1675 H 0.16533 0.53719 0.95307 0.0
H1676 H 0.96886 0.59374 0.02263 0.0
H1677 H 0.92619 0.57635 0.07624 0.0
H1678 H 0.97943 0.54198 0.06428 0.0
H1679 H 0.94765 0.54784 0.08574 0.0
H1680 H 0.98749 0.19368 0.97701 0.0
H1681 H 0.05435 0.22281 0.96434 0.0
H1682 H 0.99784 0.15847 0.98897 0.0
H1683 H 0.0646 0.18762 0.97665 0.0
H1684 H 0.05347 0.11998 0.03229 0.0
H1685 H 0.04627 0.15986 0.02691 0.0
H1686 H 0.03037 0.12712 0.95034 0.0
H1687 H 0.03812 0.08812 0.95534 0.0
C1688 C 0.00452 0.19306 0.97733 0.0
C1689 C 0.02002 0.21149 0.96968 0.0
C1690 C 0.01044 0.17276 0.98424 0.0
C1691 C 0.03214 0.17029 0.98413 0.0
C1692 C 0.04781 0.18903 0.97724 0.0
C1693 C 0.04186 0.20924 0.9701 0.0
C1694 C 0.04877 0.12142 0.01428 0.0
C1695 C 0.04666 0.10061 0.99426 0.0
C1696 C 0.0445 0.14425 0.01121 0.0
C1697 C 0.03769 0.14674 0.98812 0.0
C1698 C 0.03567 0.12602 0.9683 0.0
C1699 C 0.04015 0.10354 0.97128 0.0
H1700 H 0.14815 0.78967 0.18051 0.0
H1701 H 0.18355 0.84519 0.14612 0.0
H1702 H 0.18216 0.78865 0.20128 0.0
H1703 H 0.21833 0.84397 0.16732 0.0
H1704 H 0.27626 0.8092 0.19449 0.0
H1705 H 0.24422 0.81402 0.17119 0.0
H1706 H 0.20947 0.81709 0.23429 0.0
H1707 H 0.24087 0.81215 0.25705 0.0
C1708 C 0.1632 0.80176 0.17723 0.0
C1709 C 0.16272 0.81763 0.16147 0.0
C1710 C 0.1829 0.80121 0.1894 0.0
C1711 C 0.20323 0.81636 0.18634 0.0
C1712 C 0.20306 0.83195 0.17018 0.0
C1713 C 0.18307 0.83274 0.15806 0.0
C1714 C 0.26185 0.81116 0.20346 0.0
C1715 C 0.26153 0.81051 0.22802 0.0
C1716 C 0.24346 0.81406 0.19007 0.0
C1717 C 0.22399 0.81586 0.20068 0.0
C1718 C 0.22393 0.8156 0.22526 0.0
C1719 C 0.24226 0.81305 0.23858 0.0
H1720 H 0.54299 0.84585 0.44526 0.0
H1721 H 0.49322 0.84114 0.49424 0.0
H1722 H 0.55058 0.89174 0.45673 0.0
H1723 H 0.50112 0.88736 0.5059 0.0
H1724 H 0.54265 0.97527 0.53335 0.0
H1725 H 0.53284 0.92894 0.52616 0.0
H1726 H 0.52774 0.9218 0.44921 0.0
H1727 H 0.53664 0.96758 0.45638 0.0
C1728 C 0.53384 0.8545 0.45875 0.0
C1729 C 0.51737 0.83944 0.46865 0.0
C1730 C 0.53812 0.88094 0.46522 0.0
C1731 C 0.52629 0.89337 0.48205 0.0
C1732 C 0.51057 0.87849 0.49291 0.0
C1733 C 0.50606 0.85192 0.48618 0.0
C1734 C 0.53867 0.96374 0.51494 0.0
C1735 C 0.53992 0.9752 0.49543 0.0
C1736 C 0.53327 0.93718 0.5108 0.0
C1737 C 0.52979 0.92153 0.48706 0.0
C1738 C 0.53057 0.93313 0.46771 0.0
C1739 C 0.53548 0.95945 0.47183 0.0
H1740 H 0.55704 0.29529 0.68506 0.0
H1741 H 0.52374 0.32275 0.63313 0.0
H1742 H 0.52406 0.28854 0.70555 0.0
H1743 H 0.49068 0.31627 0.65389 0.0
H1744 H 0.42927 0.27778 0.68914 0.0
H1745 H 0.46027 0.28498 0.66495 0.0
H1746 H 0.50494 0.31526 0.7307 0.0
H1747 H 0.47431 0.30786 0.75446 0.0
C1748 C 0.54264 0.29971 0.67787 0.0
C1749 C 0.54317 0.30962 0.65745 0.0
C1750 C 0.52371 0.29604 0.68976 0.0
C1751 C 0.50471 0.30224 0.68167 0.0
C1752 C 0.50492 0.31123 0.66065 0.0
C1753 C 0.52394 0.31495 0.64874 0.0
C1754 C 0.4457 0.28641 0.69832 0.0
C1755 C 0.44937 0.29197 0.72372 0.0
C1756 C 0.46349 0.29045 0.68449 0.0
C1757 C 0.48526 0.30009 0.69583 0.0
C1758 C 0.48857 0.30705 0.72125 0.0
C1759 C 0.47095 0.30303 0.73493 0.0
H1760 H 0.02533 0.78603 0.59596 0.0
H1761 H 0.97469 0.82532 0.61124 0.0
H1762 H 0.03902 0.81225 0.56838 0.0
H1763 H 0.98893 0.85217 0.58439 0.0
H1764 H 0.04542 0.9133 0.56309 0.0
H1765 H 0.02968 0.88516 0.58781 0.0
H1766 H 0.02123 0.82106 0.52685 0.0
H1767 H 0.03574 0.84916 0.50141 0.0
C1768 C 0.01711 0.8002 0.59328 0.0
C1769 C 0.99893 0.80365 0.60553 0.0
C1770 C 0.02489 0.8151 0.57755 0.0
C1771 C 0.01501 0.83416 0.57441 0.0
C1772 C 0.99677 0.83755 0.58658 0.0
C1773 C 0.98859 0.82216 0.60176 0.0
C1774 C 0.03983 0.89328 0.55467 0.0
C1775 C 0.04166 0.88362 0.53004 0.0
C1776 C 0.03095 0.8772 0.56895 0.0
C1777 C 0.02418 0.85106 0.55912 0.0
C1778 C 0.02642 0.84121 0.53478 0.0
C1779 C 0.03489 0.85733 0.52031 0.0
H1780 H 0.55076 0.80754 0.80121 0.0
H1781 H 0.54744 0.84267 0.87598 0.0
H1782 H 0.51788 0.81995 0.78944 0.0
H1783 H 0.51477 0.8555 0.86411 0.0
H1784 H 0.47024 0.89153 0.81482 0.0
H1785 H 0.50459 0.88409 0.8302 0.0
H1786 H 0.47648 0.8038 0.80578 0.0
H1787 H 0.44246 0.81095 0.79034 0.0
C1788 C 0.54314 0.8182 0.81503 0.0
C1789 C 0.55122 0.82375 0.83947 0.0
C1790 C 0.52443 0.82524 0.80834 0.0
C1791 C 0.51393 0.83848 0.82596 0.0
C1792 C 0.52267 0.84523 0.85031 0.0
C1793 C 0.54113 0.83768 0.85706 0.0
C1794 C 0.47143 0.87233 0.81283 0.0
C1795 C 0.45372 0.85183 0.80126 0.0
C1796 C 0.49094 0.86813 0.82174 0.0
C1797 C 0.493 0.84341 0.81885 0.0
C1798 C 0.47518 0.823 0.80795 0.0
C1799 C 0.45571 0.82714 0.7993 0.0
H1800 H 0.4651 0.18773 0.09323 0.0
H1801 H 0.51159 0.19818 0.15527 0.0
H1802 H 0.4789 0.15287 0.07144 0.0
H1803 H 0.52471 0.16294 0.13407 0.0
H1804 H 0.56409 0.12497 0.08055 0.0
H1805 H 0.54697 0.15645 0.10285 0.0
H1806 H 0.48328 0.11141 0.06678 0.0
H1807 H 0.50087 0.08084 0.04348 0.0
C1808 C 0.47784 0.18214 0.10242 0.0
C1809 C 0.48746 0.19588 0.12581 0.0
C1810 C 0.48578 0.16216 0.08996 0.0
C1811 C 0.5033 0.15544 0.1008 0.0
C1812 C 0.51172 0.1681 0.12485 0.0
C1813 C 0.50402 0.18816 0.13712 0.0
C1814 C 0.54644 0.12191 0.07758 0.0
C1815 C 0.5337 0.10065 0.06057 0.0
C1816 C 0.53655 0.13976 0.0904 0.0
C1817 C 0.51364 0.13633 0.08688 0.0
C1818 C 0.50094 0.11483 0.06978 0.0
C1819 C 0.51095 0.09726 0.05655 0.0
H1820 H 0.15621 0.28218 0.32772 0.0
H1821 H 0.169 0.36175 0.3307 0.0
H1822 H 0.19117 0.28115 0.31156 0.0
H1823 H 0.20424 0.36056 0.3149 0.0
H1824 H 0.27188 0.33366 0.34071 0.0
H1825 H 0.2341 0.33521 0.34583 0.0
H1826 H 0.2161 0.30647 0.26885 0.0
H1827 H 0.25454 0.30628 0.2634 0.0
C1828 C 0.16636 0.29935 0.32465 0.0
C1829 C 0.16014 0.32216 0.33079 0.0
C1830 C 0.18611 0.29861 0.31513 0.0
C1831 C 0.19992 0.32069 0.31184 0.0
C1832 C 0.19344 0.34329 0.317 0.0
C1833 C 0.17349 0.34397 0.32619 0.0
C1834 C 0.25993 0.32783 0.32484 0.0
C1835 C 0.26586 0.31923 0.30171 0.0
C1836 C 0.23845 0.32879 0.32779 0.0
C1837 C 0.22259 0.32104 0.3077 0.0
C1838 C 0.22834 0.3126 0.28448 0.0
C1839 C 0.25009 0.31214 0.28144 0.0
H1840 H 0.01969 0.09509 0.21793 0.0
H1841 H 0.95371 0.05809 0.18459 0.0
H1842 H 0.03304 0.09013 0.17879 0.0
H1843 H 0.96721 0.0535 0.14446 0.0
H1844 H 1.00124 0.03141 0.07394 0.0
H1845 H 0.98571 0.03593 0.1126 0.0
H1846 H 0.03896 0.10159 0.14365 0.0
H1847 H 0.05455 0.09664 0.10527 0.0
C1848 C 0.00773 0.08593 0.20224 0.0
C1849 C 0.9853 0.07713 0.20532 0.0
C1850 C 0.01558 0.08324 0.17921 0.0
C1851 C 1.00158 0.07159 0.15738 0.0
C1852 C 0.979 0.06251 0.16029 0.0
C1853 C 0.97106 0.06525 0.18363 0.0
C1854 C 0.00975 0.04692 0.08895 0.0
C1855 C 0.02958 0.06347 0.0858 0.0
C1856 C 1.00063 0.04962 0.11149 0.0
C1857 C 0.0108 0.06904 0.13233 0.0
C1858 C 0.03043 0.08586 0.12891 0.0
C1859 C 0.03953 0.08313 0.10641 0.0
H1860 H 0.33271 0.69999 0.47782 0.0
H1861 H 0.26346 0.67213 0.48243 0.0
H1862 H 0.32422 0.72779 0.4537 0.0
H1863 H 0.25508 0.70043 0.45935 0.0
H1864 H 0.2456 0.73251 0.39472 0.0
H1865 H 0.25425 0.7054 0.41955 0.0
H1866 H 0.31147 0.76454 0.45546 0.0
H1867 H 0.3032 0.79095 0.42955 0.0
C1868 C 0.31573 0.69998 0.47388 0.0
C1869 C 0.29878 0.68374 0.48184 0.0
C1870 C 0.31084 0.716 0.4602 0.0
C1871 C 0.28893 0.71627 0.4545 0.0
C1872 C 0.27208 0.70034 0.46293 0.0
C1873 C 0.27692 0.68419 0.47631 0.0
C1874 C 0.2598 0.73969 0.40822 0.0
C1875 C 0.27361 0.76376 0.41068 0.0
C1876 C 0.26479 0.72426 0.42244 0.0
C1877 C 0.28354 0.73283 0.43959 0.0
C1878 C 0.29711 0.75721 0.44221 0.0
C1879 C 0.29228 0.77246 0.42769 0.0
H1880 H 0.67814 0.04584 0.64724 0.0
H1881 H 0.63384 0.05169 0.70215 0.0
H1882 H 0.654 0.05977 0.62127 0.0
H1883 H 0.60998 0.06576 0.67632 0.0
H1884 H 0.57892 0.08884 0.6039 0.0
H1885 H 0.60696 0.09684 0.63851 0.0
H1886 H 0.61188 0.02003 0.61522 0.0
H1887 H 0.58418 0.01202 0.58127 0.0
C1888 C 0.66378 0.05111 0.65407 0.0
C1889 C 0.65716 0.04672 0.67599 0.0
C1890 C 0.65019 0.05937 0.63946 0.0
C1891 C 0.6302 0.06345 0.64696 0.0
C1892 C 0.62537 0.06272 0.67036 0.0
C1893 C 0.63876 0.05419 0.68481 0.0
C1894 C 0.5855 0.07355 0.60687 0.0
C1895 C 0.57986 0.04995 0.59 0.0
C1896 C 0.6017 0.07826 0.62622 0.0
C1897 C 0.61196 0.05929 0.62851 0.0
C1898 C 0.60458 0.03509 0.61306 0.0
C1899 C 0.58858 0.03042 0.59397 0.0
H1900 H 0.3006 0.36641 0.96469 0.0
H1901 H 0.35119 0.32697 0.96802 0.0
H1902 H 0.29709 0.35359 0.92066 0.0
H1903 H 0.34753 0.31408 0.92371 0.0
H1904 H 0.31681 0.28077 0.84027 0.0
H1905 H 0.32069 0.2884 0.88473 0.0
H1906 H 0.32302 0.36681 0.89126 0.0
H1907 H 0.31974 0.35938 0.84744 0.0
C1908 C 0.31076 0.35467 0.95613 0.0
C1909 C 0.32631 0.34797 0.97016 0.0
C1910 C 0.30884 0.34744 0.93078 0.0
C1911 C 0.32226 0.33309 0.91858 0.0
C1912 C 0.33694 0.32511 0.93249 0.0
C1913 C 0.33903 0.33256 0.95795 0.0
C1914 C 0.31866 0.2997 0.8513 0.0
C1915 C 0.31816 0.31953 0.84031 0.0
C1916 C 0.32074 0.30405 0.87674 0.0
C1917 C 0.32177 0.32816 0.8916 0.0
C1918 C 0.32183 0.34794 0.88045 0.0
C1919 C 0.3201 0.34369 0.85528 0.0
H1920 H 0.95703 0.08999 0.37088 0.0
H1921 H 0.99626 0.04624 0.33017 0.0
H1922 H 0.97273 0.08363 0.40833 0.0
H1923 H 0.01168 0.03926 0.36744 0.0
H1924 H 0.04939 0.04397 0.44287 0.0
H1925 H 0.03449 0.04963 0.40428 0.0
H1926 H 0.97586 0.06061 0.43576 0.0
H1927 H 0.99061 0.05509 0.47352 0.0
C1928 C 0.96883 0.07873 0.36968 0.0
C1929 C 0.97493 0.06866 0.34673 0.0
C1930 C 0.97801 0.07486 0.39154 0.0
C1931 C 0.99387 0.06059 0.39195 0.0
C1932 C 0.99992 0.05057 0.36888 0.0
C1933 C 0.99077 0.05448 0.34705 0.0
C1934 C 0.03326 0.04742 0.44156 0.0
C1935 C 0.02151 0.04896 0.46211 0.0
C1936 C 0.02449 0.05074 0.41909 0.0
C1937 C 0.00363 0.05613 0.41596 0.0
C1938 C 0.99201 0.05722 0.43656 0.0
C1939 C 1.00061 0.05373 0.45867 0.0
H1940 H 0.2559 0.66504 0.57942 0.0
H1941 H 0.32613 0.69291 0.59888 0.0
H1942 H 0.25036 0.69538 0.61586 0.0
H1943 H 0.32055 0.72261 0.63408 0.0
H1944 H 0.31006 0.78837 0.6839 0.0
H1945 H 0.30577 0.76201 0.64273 0.0
H1946 H 0.25979 0.70236 0.66308 0.0
H1947 H 0.26422 0.7284 0.70423 0.0
C1948 C 0.27006 0.67749 0.59131 0.0
C1949 C 0.29145 0.67663 0.58598 0.0
C1950 C 0.2669 0.69491 0.61201 0.0
C1951 C 0.28508 0.71184 0.62737 0.0
C1952 C 0.30625 0.71047 0.62218 0.0
C1953 C 0.30938 0.69316 0.60195 0.0
C1954 C 0.29893 0.76978 0.67962 0.0
C1955 C 0.28843 0.76011 0.69772 0.0
C1956 C 0.29627 0.75476 0.65597 0.0
C1957 C 0.28282 0.72992 0.64989 0.0
C1958 C 0.27035 0.72134 0.66726 0.0
C1959 C 0.27314 0.73628 0.69095 0.0
H1960 H 0.65962 0.07255 0.77608 0.0
H1961 H 0.68014 0.01687 0.80622 0.0
H1962 H 0.64322 0.0863 0.81232 0.0
H1963 H 0.66395 0.03118 0.84328 0.0
H1964 H 0.60001 0.03579 0.88042 0.0
H1965 H 0.62584 0.02662 0.85142 0.0
H1966 H 0.64823 0.10615 0.85458 0.0
H1967 H 0.62161 0.11497 0.8828 0.0
C1968 C 0.6609 0.0635 0.79069 0.0
C1969 C 0.67072 0.04332 0.78824 0.0
C1970 C 0.65174 0.07162 0.81163 0.0
C1971 C 0.65218 0.05973 0.8306 0.0
C1972 C 0.66317 0.04047 0.82877 0.0
C1973 C 0.67248 0.03236 0.80769 0.0
C1974 C 0.61055 0.05121 0.87485 0.0
C1975 C 0.60869 0.07596 0.88321 0.0
C1976 C 0.62553 0.04606 0.85859 0.0
C1977 C 0.63902 0.06568 0.85071 0.0
C1978 C 0.63777 0.09062 0.86005 0.0
C1979 C 0.62254 0.09569 0.87602 0.0
H1980 H 0.33284 0.32206 0.09034 0.0
H1981 H 0.29087 0.37282 0.10556 0.0
H1982 H 0.32703 0.31117 0.12878 0.0
H1983 H 0.28512 0.36191 0.14424 0.0
H1984 H 0.31005 0.36227 0.22416 0.0
H1985 H 0.30968 0.3702 0.18366 0.0
H1986 H 0.29904 0.29049 0.15176 0.0
H1987 H 0.29956 0.28272 0.192 0.0
C1988 C 0.32193 0.33046 0.1016 0.0
C1989 C 0.31228 0.34828 0.09469 0.0
C1990 C 0.31862 0.32423 0.12373 0.0
C1991 C 0.30577 0.33584 0.13977 0.0
C1992 C 0.29532 0.35284 0.13245 0.0
C1993 C 0.29839 0.35882 0.1101 0.0
C1994 C 0.30734 0.34646 0.20844 0.0
C1995 C 0.30432 0.3218 0.21127 0.0
C1996 C 0.30701 0.35096 0.18523 0.0
C1997 C 0.3042 0.33095 0.16438 0.0
C1998 C 0.30119 0.30633 0.16734 0.0
C1999 C 0.30116 0.30182 0.19044 0.0
H2000 H 0.28986 0.01212 0.9888 0.0
H2001 H 0.26143 0.95089 0.02047 0.0
H2002 H 0.25774 0.02853 0.9954 0.0
H2003 H 0.22911 0.96723 0.02679 0.0
H2004 H 0.20311 0.03257 0.07312 0.0
H2005 H 0.22754 1.00662 0.05688 0.0
H2006 H 0.21743 0.02238 0.98725 0.0
H2007 H 0.19314 0.04852 1.00364 0.0
C2008 C 0.27646 1.00171 0.99646 0.0
C2009 C 0.27836 0.98054 0.00461 0.0
C2010 C 0.25802 0.01108 1.00018 0.0
C2011 C 0.24116 0.99939 0.01202 0.0
C2012 C 0.24212 0.97687 0.01808 0.0
C2013 C 0.26057 0.9675 0.01437 0.0
C2014 C 0.20622 0.0305 0.05439 0.0
C2015 C 0.19666 0.04283 0.03971 0.0
C2016 C 0.21986 0.01535 0.04497 0.0
C2017 C 0.22433 0.01249 0.02078 0.0
C2018 C 0.21432 0.02437 0.00597 0.0
C2019 C 0.2005 0.0393 0.01533 0.0
H2020 H 0.71732 0.67495 0.99365 0.0
H2021 H 0.73352 0.6066 1.00126 0.0
H2022 H 0.67819 0.65441 0.9927 0.0
H2023 H 0.69495 0.58649 1.00057 0.0
H2024 H 0.6237 0.54805 0.97482 0.0
H2025 H 0.66118 0.57048 0.97197 0.0
H2026 H 0.65203 0.63764 0.02007 0.0
H2027 H 0.61468 0.61514 0.02328 0.0
C2028 C 0.71259 0.65563 0.99513 0.0
C2029 C 0.72862 0.64242 0.99733 0.0
C2030 C 0.6902 0.64388 0.99464 0.0
C2031 C 0.68339 0.61866 0.99625 0.0
C2032 C 0.69949 0.60568 0.99869 0.0
C2033 C 0.72171 0.61735 0.99922 0.0
C2034 C 0.6296 0.56754 0.98482 0.0
C2035 C 0.6162 0.57945 0.99975 0.0
C2036 C 0.65114 0.58046 0.98317 0.0
C2037 C 0.65976 0.60581 0.99606 0.0
C2038 C 0.64597 0.61816 0.00989 0.0
C2039 C 0.62453 0.60513 0.01182 0.0
H2040 H 0.70069 0.43125 0.29731 0.0
H2041 H 0.74412 0.45944 0.24898 0.0
H2042 H 0.71822 0.397 0.29635 0.0
H2043 H 0.76241 0.42502 0.24827 0.0
H2044 H 0.78498 0.34735 0.2421 0.0
H2045 H 0.76791 0.38208 0.23926 0.0
H2046 H 0.74633 0.38277 0.30957 0.0
H2047 H 0.76319 0.34899 0.31228 0.0
C2048 C 0.71384 0.43007 0.28601 0.0
C2049 C 0.72005 0.44853 0.27272 0.0
C2050 C 0.72445 0.4102 0.28575 0.0
C2051 C 0.74256 0.4073 0.2725 0.0
C2052 C 0.74866 0.42558 0.25875 0.0
C2053 C 0.73787 0.44562 0.25898 0.0
C2054 C 0.77681 0.35501 0.25712 0.0
C2055 C 0.77597 0.34453 0.27757 0.0
C2056 C 0.76673 0.37527 0.25548 0.0
C2057 C 0.75477 0.38599 0.27393 0.0
C2058 C 0.75443 0.37554 0.29432 0.0
C2059 C 0.76456 0.35577 0.29603 0.0
H2060 H 0.90804 0.5003 0.55701 0.0
H2061 H 0.88587 0.49523 0.48278 0.0
H2062 H 0.946 0.51236 0.54872 0.0
H2063 H 0.92445 0.50704 0.47436 0.0
H2064 H 0.00582 0.56101 0.53252 0.0
H2065 H 0.96716 0.55519 0.52201 0.0
H2066 H 0.95956 0.47549 0.49395 0.0
H2067 H 0.99899 0.48142 0.50402 0.0
C2068 C 0.91137 0.50213 0.53901 0.0
C2069 C 0.89428 0.49686 0.52049 0.0
C2070 C 0.93295 0.50898 0.5343 0.0
C2071 C 0.93774 0.51036 0.51096 0.0
C2072 C 0.9208 0.50599 0.49246 0.0
C2073 C 0.89896 0.49946 0.49731 0.0
C2074 C 0.99647 0.54253 0.52277 0.0
C2075 C 0.00572 0.52184 0.51813 0.0
C2076 C 0.97421 0.53926 0.5166 0.0
C2077 C 0.96073 0.51506 0.50669 0.0
C2078 C 0.96997 0.49445 0.5008 0.0
C2079 C 0.99238 0.49781 0.50675 0.0
H2080 H 0.35374 0.0684 0.29148 0.0
H2081 H 0.37968 0.13211 0.35265 0.0
H2082 H 0.33719 0.0946 0.27159 0.0
H2083 H 0.36289 0.1585 0.33258 0.0
H2084 H 0.30629 0.17506 0.27502 0.0
H2085 H 0.31711 0.15309 0.30386 0.0
H2086 H 0.3708 0.13951 0.26366 0.0
H2087 H 0.36101 0.16273 0.23538 0.0
C2088 C 0.35491 0.08772 0.30111 0.0
C2089 C 0.36789 0.09844 0.32341 0.0
C2090 C 0.34565 0.10265 0.28971 0.0
C2091 C 0.34921 0.12838 0.30058 0.0
C2092 C 0.36006 0.13857 0.32408 0.0
C2093 C 0.36941 0.12352 0.33558 0.0
C2094 C 0.32084 0.16813 0.27264 0.0
C2095 C 0.33278 0.1706 0.25276 0.0
C2096 C 0.32685 0.15548 0.28911 0.0
C2097 C 0.34459 0.14477 0.28568 0.0
C2098 C 0.35696 0.14775 0.2664 0.0
C2099 C 0.35122 0.16075 0.25015 0.0
H2100 H 0.37155 0.19506 0.53192 0.0
H2101 H 0.32679 0.12086 0.51369 0.0
H2102 H 0.40196 0.17666 0.53963 0.0
H2103 H 0.35725 0.1025 0.52073 0.0
H2104 H 0.42186 0.0781 0.51035 0.0
H2105 H 0.39436 0.0998 0.50054 0.0
H2106 H 0.41026 0.15067 0.57171 0.0
H2107 H 0.43727 0.12852 0.58168 0.0
C2108 C 0.3682 0.17487 0.52958 0.0
C2109 C 0.34675 0.15942 0.52242 0.0
C2110 C 0.3856 0.16436 0.53396 0.0
C2111 C 0.38194 0.13815 0.53058 0.0
C2112 C 0.36054 0.12273 0.52326 0.0
C2113 C 0.34309 0.13328 0.5195 0.0
C2114 C 0.41964 0.09414 0.5237 0.0
C2115 C 0.43152 0.10163 0.54677 0.0
C2116 C 0.40389 0.10645 0.51817 0.0
C2117 C 0.40014 0.12679 0.53545 0.0
C2118 C 0.41288 0.1351 0.55807 0.0
C2119 C 0.42825 0.12243 0.56378 0.0
H2120 H 0.70184 0.58929 0.2583 0.0
H2121 H 0.75096 0.59357 0.31541 0.0
H2122 H 0.72063 0.63189 0.25597 0.0
H2123 H 0.76958 0.6361 0.31336 0.0
H2124 H 0.81019 0.70639 0.29295 0.0
H2125 H 0.79173 0.6635 0.29413 0.0
H2126 H 0.72954 0.67588 0.27253 0.0
H2127 H 0.74819 0.71855 0.27074 0.0
C2128 C 0.7167 0.59915 0.27036 0.0
C2129 C 0.72465 0.5873 0.28699 0.0
C2130 C 0.72753 0.624 0.26919 0.0
C2131 C 0.747 0.63828 0.28446 0.0
C2132 C 0.75499 0.62623 0.30091 0.0
C2133 C 0.74408 0.60151 0.3022 0.0
C2134 C 0.79261 0.7001 0.28828 0.0
C2135 C 0.78106 0.71657 0.28153 0.0
C2136 C 0.78179 0.67519 0.28918 0.0
C2137 C 0.75876 0.66534 0.2834 0.0
C2138 C 0.7472 0.68195 0.27678 0.0
C2139 C 0.75804 0.70686 0.27592 0.0
H2140 H 0.86135 0.48927 0.82905 0.0
H2141 H 0.8993 0.48028 0.76836 0.0
H2142 H 0.84155 0.44459 0.81549 0.0
H2143 H 0.87994 0.43558 0.75536 0.0
H2144 H 0.86943 0.35631 0.77282 0.0
H2145 H 0.88307 0.40229 0.78256 0.0
H2146 H 0.81658 0.40929 0.77453 0.0
H2147 H 0.80298 0.36296 0.76399 0.0
C2148 C 0.86516 0.47785 0.81261 0.0
C2149 C 0.88198 0.48813 0.79985 0.0
C2150 C 0.85382 0.45238 0.80488 0.0
C2151 C 0.85952 0.43677 0.78466 0.0
C2152 C 0.87541 0.44734 0.77113 0.0
C2153 C 0.88638 0.47289 0.7785 0.0
C2154 C 0.85778 0.36777 0.77349 0.0
C2155 C 0.83522 0.35646 0.76863 0.0
C2156 C 0.86553 0.39392 0.77878 0.0
C2157 C 0.85082 0.40915 0.77919 0.0
C2158 C 0.82817 0.39784 0.77437 0.0
C2159 C 0.82043 0.37153 0.76855 0.0
H2160 H 0.11534 0.90492 0.09471 0.0
H2161 H 0.06188 0.85956 0.04093 0.0
H2162 H 0.11164 0.94258 0.08198 0.0
H2163 H 0.05795 0.89703 0.02852 0.0
H2164 H 0.06365 0.97205 1.00343 0.0
H2165 H 0.07083 0.93283 0.01038 0.0
H2166 H 0.08582 0.96808 0.08678 0.0
H2167 H 0.07826 1.00624 0.08001 0.0
C2168 C 0.1032 0.90274 0.07975 0.0
C2169 C 0.08898 0.87885 0.06901 0.0
C2170 C 0.10078 0.92453 0.07261 0.0
C2171 C 0.08413 0.92329 0.05437 0.0
C2172 C 0.07097 0.89913 0.04253 0.0
C2173 C 0.07329 0.87745 0.04976 0.0
C2174 C 0.06826 0.97128 0.02169 0.0
C2175 C 0.07028 0.99263 0.04109 0.0
C2176 C 0.07252 0.94876 0.02575 0.0
C2177 C 0.07943 0.94707 0.04923 0.0
C2178 C 0.08116 0.96843 0.06839 0.0
C2179 C 0.07657 0.99049 0.06444 0.0
H2180 H 0.93714 0.2471 0.90158 0.0
H2181 H 0.9776 0.29789 0.86599 0.0
H2182 H 0.90426 0.24953 0.8781 0.0
H2183 H 0.9452 0.30054 0.84305 0.0
H2184 H 0.88772 0.27967 0.7854 0.0
H2185 H 0.91851 0.27549 0.81012 0.0
H2186 H 0.88021 0.2763 0.87053 0.0
H2187 H 0.84898 0.27967 0.84532 0.0
C2188 C 0.93905 0.259 0.88902 0.0
C2189 C 0.96018 0.27214 0.88569 0.0
C2190 C 0.92017 0.26042 0.8755 0.0
C2191 C 0.92191 0.27493 0.85821 0.0
C2192 C 0.94303 0.28863 0.8556 0.0
C2193 C 0.96174 0.28727 0.86904 0.0
C2194 C 0.88556 0.27835 0.80372 0.0
C2195 C 0.86556 0.27962 0.81304 0.0
C2196 C 0.90348 0.27639 0.81817 0.0
C2197 C 0.90213 0.27571 0.84258 0.0
C2198 C 0.88198 0.27657 0.85185 0.0
C2199 C 0.86405 0.27866 0.83737 0.0
H2200 H 0.54676 0.23304 0.58448 0.0
H2201 H 0.61328 0.25591 0.56791 0.0
H2202 H 0.54703 0.18879 0.57055 0.0
H2203 H 0.61315 0.21104 0.55276 0.0
H2204 H 0.57491 0.12427 0.4984 0.0
H2205 H 0.5835 0.17035 0.51454 0.0
H2206 H 0.57381 0.16003 0.58595 0.0
H2207 H 0.56606 0.11415 0.56997 0.0
C2208 C 0.56141 0.22863 0.57761 0.0
C2209 C 0.57994 0.24815 0.57718 0.0
C2210 C 0.56159 0.2032 0.56976 0.0
C2211 C 0.58009 0.19633 0.56057 0.0
C2212 C 0.59864 0.21574 0.55978 0.0
C2213 C 0.59872 0.2414 0.56844 0.0
C2214 C 0.57547 0.13194 0.51769 0.0
C2215 C 0.57033 0.11558 0.53299 0.0
C2216 C 0.58034 0.15831 0.52692 0.0
C2217 C 0.57935 0.16889 0.55155 0.0
C2218 C 0.57484 0.15252 0.56694 0.0
C2219 C 0.57054 0.12623 0.55782 0.0
H2220 H 0.59839 0.73534 0.40026 0.0
H2221 H 0.57774 0.79835 0.38444 0.0
H2222 H 0.63085 0.74543 0.379 0.0
H2223 H 0.60987 0.80809 0.36316 0.0
H2224 H 0.64828 0.79221 0.29828 0.0
H2225 H 0.61921 0.78196 0.32323 0.0
H2226 H 0.66694 0.78275 0.38041 0.0
H2227 H 0.69659 0.79416 0.35564 0.0
C2228 C 0.60087 0.75147 0.3925 0.0
C2229 C 0.58534 0.76591 0.3939 0.0
C2230 C 0.61949 0.75727 0.38043 0.0
C2231 C 0.62273 0.77737 0.36923 0.0
C2232 C 0.60764 0.79231 0.3714 0.0
C2233 C 0.58927 0.78676 0.38369 0.0
C2234 C 0.65278 0.79052 0.31625 0.0
C2235 C 0.67494 0.79469 0.3251 0.0
C2236 C 0.63603 0.78452 0.33051 0.0
C2237 C 0.64084 0.78201 0.3539 0.0
C2238 C 0.66281 0.7847 0.36244 0.0
C2239 C 0.67975 0.79113 0.34821 0.0
H2240 H 0.10963 0.2422 0.40726 0.0
H2241 H 0.10191 0.30397 0.46386 0.0
H2242 H 0.10976 0.21671 0.43665 0.0
H2243 H 0.10156 0.27876 0.49296 0.0
H2244 H 0.09665 0.22821 0.54223 0.0
H2245 H 0.11464 0.25398 0.51618 0.0
H2246 H 0.07718 0.19858 0.45326 0.0
H2247 H 0.05993 0.17285 0.47917 0.0
C2248 C 0.10886 0.25061 0.42614 0.0
C2249 C 0.10524 0.27468 0.43337 0.0
C2250 C 0.10872 0.23602 0.44292 0.0
C2251 C 0.10501 0.24548 0.46698 0.0
C2252 C 0.10437 0.2708 0.47463 0.0
C2253 C 0.10442 0.28523 0.45792 0.0
C2254 C 0.09243 0.22169 0.52281 0.0
C2255 C 0.07685 0.1988 0.51264 0.0
C2256 C 0.1028 0.23624 0.5079 0.0
C2257 C 0.0975 0.22824 0.48262 0.0
C2258 C 0.08215 0.20503 0.47256 0.0
C2259 C 0.07199 0.19046 0.48741 0.0
H2260 H 0.56724 0.24728 0.16946 0.0
H2261 H 0.58293 0.30815 0.23446 0.0
H2262 H 0.59924 0.2333 0.18091 0.0
H2263 H 0.61477 0.29417 0.24581 0.0
H2264 H 0.68065 0.27777 0.24811 0.0
H2265 H 0.65067 0.29088 0.23107 0.0
H2266 H 0.61011 0.21448 0.21522 0.0
H2267 H 0.6407 0.20091 0.23153 0.0
C2268 C 0.5777 0.25789 0.18599 0.0
C2269 C 0.57266 0.27885 0.20112 0.0
C2270 C 0.59584 0.24973 0.1926 0.0
C2271 C 0.60936 0.26262 0.21424 0.0
C2272 C 0.60468 0.28401 0.22892 0.0
C2273 C 0.58645 0.29199 0.22247 0.0
C2274 C 0.66552 0.26358 0.2406 0.0
C2275 C 0.66305 0.23825 0.24111 0.0
C2276 C 0.6483 0.27119 0.23105 0.0
C2277 C 0.62811 0.25374 0.22201 0.0
C2278 C 0.62563 0.22827 0.22198 0.0
C2279 C 0.64298 0.22058 0.23156 0.0
H2280 H 0.62339 0.87519 0.94913 0.0
H2281 H 0.60581 0.89784 0.88532 0.0
H2282 H 0.62739 0.91794 0.97369 0.0
H2283 H 0.60883 0.94035 0.9098 0.0
H2284 H 0.6088 0.01423 0.96146 0.0
H2285 H 0.62454 0.98107 0.93888 0.0
H2286 H 0.59454 0.93159 0.98228 0.0
H2287 H 0.579 0.96415 1.00411 0.0
C2288 C 0.62146 0.88972 0.94026 0.0
C2289 C 0.61427 0.88351 0.91551 0.0
C2290 C 0.62348 0.91409 0.95428 0.0
C2291 C 0.61768 0.93226 0.94378 0.0
C2292 C 0.61335 0.92681 0.91847 0.0
C2293 C 0.61163 0.90248 0.9044 0.0
C2294 C 0.60586 0.99626 0.96617 0.0
C2295 C 0.59308 0.99183 0.98485 0.0
C2296 C 0.61494 0.97741 0.95341 0.0
C2297 C 0.61125 0.95388 0.95914 0.0
C2298 C 0.59853 0.94976 0.97798 0.0
C2299 C 0.58954 0.96846 0.99057 0.0
H2300 H 0.93 0.74094 0.67933 0.0
H2301 H 0.97523 0.76494 0.74465 0.0
H2302 H 0.89936 0.74139 0.70367 0.0
H2303 H 0.94456 0.76638 0.76887 0.0
H2304 H 0.88986 0.81971 0.75334 0.0
H2305 H 0.92055 0.80208 0.74642 0.0
H2306 H 0.88229 0.73107 0.75522 0.0
H2307 H 0.8518 0.75037 0.76572 0.0
C2308 C 0.93329 0.74546 0.69884 0.0
C2309 C 0.95489 0.75351 0.71018 0.0
C2310 C 0.91578 0.74528 0.71273 0.0
C2311 C 0.91978 0.75379 0.73802 0.0
C2312 C 0.94118 0.75927 0.74941 0.0
C2313 C 0.95866 0.75875 0.73551 0.0
C2314 C 0.88826 0.80129 0.75599 0.0
C2315 C 0.86853 0.78702 0.76105 0.0
C2316 C 0.9059 0.79087 0.75156 0.0
C2317 C 0.90372 0.76538 0.75055 0.0
C2318 C 0.88438 0.75097 0.75641 0.0
C2319 C 0.86699 0.76197 0.76219 0.0
H2320 H 0.16076 0.99822 0.85219 0.0
H2321 H 0.12268 0.04371 0.82779 0.0
H2322 H 0.14244 1.0011 0.88935 0.0
H2323 H 0.10482 0.04715 0.86508 0.0
H2324 H 0.09215 0.06954 0.94658 0.0
H2325 H 0.11003 0.06572 0.90942 0.0
H2326 H 0.10654 0.98793 0.90689 0.0
H2327 H 0.08789 0.99169 0.94396 0.0
C2328 C 0.14869 0.00914 0.8547 0.0
C2329 C 0.14366 0.02087 0.83643 0.0
C2330 C 0.1379 0.01063 0.87621 0.0
C2331 C 0.12179 0.02442 0.88095 0.0
C2332 C 0.11707 0.03647 0.8628 0.0
C2333 C 0.12747 0.03449 0.8411 0.0
C2334 C 0.09509 0.05151 0.93826 0.0
C2335 C 0.08831 0.03102 0.94893 0.0
C2336 C 0.10539 0.04924 0.91653 0.0
C2337 C 0.11018 0.02649 0.90444 0.0
C2338 C 0.10354 1.00594 0.91523 0.0
C2339 C 0.09259 0.00804 0.93667 0.0
H2340 H 0.84353 0.36916 0.55031 0.0
H2341 H 0.8088 0.4198 0.59017 0.0
H2342 H 0.83899 0.3449 0.58057 0.0
H2343 H 0.80447 0.39559 0.62088 0.0
H2344 H 0.85851 0.38636 0.67918 0.0
H2345 H 0.84012 0.3987 0.64709 0.0
H2346 H 0.81684 0.32051 0.60769 0.0
H2347 H 0.83536 0.30817 0.63986 0.0
C2348 C 0.8341 0.3744 0.56507 0.0
C2349 C 0.82693 0.39653 0.56835 0.0
C2350 C 0.83134 0.36043 0.58231 0.0
C2351 C 0.82173 0.36872 0.60324 0.0
C2352 C 0.81208 0.38902 0.60493 0.0
C2353 C 0.81452 0.40279 0.58739 0.0
C2354 C 0.84909 0.37184 0.66387 0.0
C2355 C 0.84862 0.34645 0.66168 0.0
C2356 C 0.83825 0.3788 0.64573 0.0
C2357 C 0.827 0.36049 0.62499 0.0
C2358 C 0.8253 0.33491 0.62358 0.0
C2359 C 0.83596 0.32792 0.64188 0.0
H2360 H 0.44586 0.06489 0.3901 0.0
H2361 H 0.47626 0.0244 0.3333 0.0
H2362 H 0.47104 0.05823 0.42026 0.0
H2363 H 0.50163 0.01827 0.36364 0.0
H2364 H 0.53027 1.00398 0.43843 0.0
H2365 H 0.50408 1.00034 0.40368 0.0
H2366 H 0.51374 0.08125 0.42334 0.0
H2367 H 0.53985 0.08474 0.45782 0.0
C2368 C 0.45758 0.05419 0.38407 0.0
C2369 C 0.4597 0.04597 0.35948 0.0
C2370 C 0.47194 0.05044 0.40126 0.0
C2371 C 0.4885 0.03853 0.39393 0.0
C2372 C 0.48908 0.0278 0.36946 0.0
C2373 C 0.47469 0.03151 0.35224 0.0
C2374 C 0.52744 0.02094 0.43444 0.0
C2375 C 0.53695 0.04465 0.45013 0.0
C2376 C 0.51238 0.01884 0.41495 0.0
C2377 C 0.5067 0.04047 0.41159 0.0
C2378 C 0.51774 0.06436 0.42612 0.0
C2379 C 0.53288 0.06644 0.44541 0.0
H2380 H 0.83919 0.77269 0.09112 0.0
H2381 H 0.77786 0.71516 0.07689 0.0
H2382 H 0.83389 0.78388 0.13388 0.0
H2383 H 0.77268 0.72641 0.11972 0.0
H2384 H 0.79642 0.72588 0.1994 0.0
H2385 H 0.79366 0.72006 0.15564 0.0
H2386 H 0.80998 0.80081 0.1654 0.0
H2387 H 0.81232 0.80657 0.20955 0.0
C2388 C 0.82435 0.76273 0.09695 0.0
C2389 C 0.80905 0.74283 0.08041 0.0
C2390 C 0.82127 0.76928 0.12152 0.0
C2391 C 0.80293 0.75595 0.1303 0.0
C2392 C 0.78709 0.73692 0.1136 0.0
C2393 C 0.79003 0.73055 0.08898 0.0
C2394 C 0.7989 0.74238 0.19219 0.0
C2395 C 0.80433 0.76664 0.20789 0.0
C2396 C 0.79725 0.73906 0.16709 0.0
C2397 C 0.80163 0.75995 0.15694 0.0
C2398 C 0.80656 0.78432 0.17263 0.0
C2399 C 0.80776 0.78763 0.19788 0.0
H2400 H 0.15428 1.00018 0.67236 0.0
H2401 H 0.11128 0.04203 0.70828 0.0
H2402 H 0.13935 1.00444 0.6333 0.0
H2403 H 0.09682 0.04665 0.66994 0.0
H2404 H 0.06072 0.03853 0.59389 0.0
H2405 H 0.07513 0.0339 0.63303 0.0
H2406 H 0.13573 0.02651 0.60436 0.0
H2407 H 0.12133 0.03099 0.56579 0.0
C2408 C 0.14174 0.01036 0.67221 0.0
C2409 C 0.13436 0.02063 0.69436 0.0
C2410 C 0.13305 0.01303 0.64946 0.0
C2411 C 0.11641 0.02605 0.64744 0.0
C2412 C 0.10914 0.03614 0.66967 0.0
C2413 C 0.11779 0.03355 0.69221 0.0
C2414 C 0.0772 0.03617 0.59593 0.0
C2415 C 0.08961 0.03531 0.57596 0.0
C2416 C 0.08569 0.03344 0.61873 0.0
C2417 C 0.10698 0.02943 0.62282 0.0
C2418 C 0.11927 0.02893 0.60277 0.0
C2419 C 0.11089 0.0318 0.58025 0.0
H2420 H 0.87911 0.41828 0.4521 0.0
H2421 H 0.81838 0.37982 0.47312 0.0
H2422 H 0.87068 0.3892 0.41204 0.0
H2423 H 0.8106 0.34923 0.43402 0.0
H2424 H 0.78993 0.31832 0.35354 0.0
H2425 H 0.799 0.34455 0.39451 0.0
H2426 H 0.86798 0.34952 0.38842 0.0
H2427 H 0.85858 0.32456 0.34658 0.0
C2428 C 0.8641 0.40326 0.4481 0.0
C2429 C 0.84922 0.40125 0.4653 0.0
C2430 C 0.85932 0.38639 0.42529 0.0
C2431 C 0.83989 0.36671 0.4196 0.0
C2432 C 0.82541 0.36445 0.43736 0.0
C2433 C 0.82986 0.38183 0.45983 0.0
C2434 C 0.80694 0.32456 0.36123 0.0
C2435 C 0.82355 0.31922 0.34723 0.0
C2436 C 0.81224 0.33966 0.38478 0.0
C2437 C 0.83429 0.34929 0.39501 0.0
C2438 C 0.85086 0.34299 0.38109 0.0
C2439 C 0.84553 0.32843 0.35726 0.0
H2440 H 0.43204 0.9864 0.24075 0.0
H2441 H 0.43108 0.05887 0.2281 0.0
H2442 H 0.45202 0.97777 0.20631 0.0
H2443 H 0.45015 0.04958 0.1924 0.0
H2444 H 0.51739 0.04532 0.16625 0.0
H2445 H 0.48752 0.05024 0.19066 0.0
H2446 H 0.4574 0.97005 0.1655 0.0
H2447 H 0.48823 0.96526 0.14218 0.0
C2448 C 0.43545 1.00016 0.23007 0.0
C2449 C 0.43065 0.02365 0.23753 0.0
C2450 C 0.44679 0.99509 0.21009 0.0
C2451 C 0.45323 0.01327 0.19693 0.0
C2452 C 0.44602 0.03552 0.20267 0.0
C2453 C 0.43489 0.04075 0.22294 0.0
C2454 C 0.50436 0.02884 0.16616 0.0
C2455 C 0.50511 1.00489 0.15298 0.0
C2456 C 0.48704 0.03164 0.17972 0.0
C2457 C 0.46994 0.01054 0.17995 0.0
C2458 C 0.47045 0.98663 0.166 0.0
C2459 C 0.48805 0.9838 0.15277 0.0
H2460 H 0.78136 0.7407 0.94938 0.0
H2461 H 0.85232 0.75999 0.95849 0.0
H2462 H 0.78232 0.7549 0.91169 0.0
H2463 H 0.85299 0.77304 0.92081 0.0
H2464 H 0.83541 0.7538 0.83395 0.0
H2465 H 0.83295 0.7417 0.8726 0.0
H2466 H 0.8051 0.8038 0.9011 0.0
H2467 H 0.80837 0.81656 0.86295 0.0
C2468 C 0.79709 0.74817 0.94361 0.0
C2469 C 0.81672 0.74922 0.9572 0.0
C2470 C 0.79763 0.75618 0.922 0.0
C2471 C 0.81775 0.76476 0.91327 0.0
C2472 C 0.83728 0.76632 0.92703 0.0
C2473 C 0.8368 0.75896 0.94878 0.0
C2474 C 0.82884 0.76489 0.8485 0.0
C2475 C 0.82227 0.78624 0.84549 0.0
C2476 C 0.82739 0.75795 0.87054 0.0
C2477 C 0.81866 0.77172 0.88971 0.0
C2478 C 0.81174 0.79279 0.88656 0.0
C2479 C 0.81379 0.80016 0.8648 0.0
H2480 H 0.8136 0.0537 0.03452 0.0
H2481 H 0.85598 0.12923 0.04929 0.0
H2482 H 0.84515 0.03644 0.02651 0.0
H2483 H 0.88766 0.11162 0.04168 0.0
H2484 H 0.93256 0.0469 0.03734 0.0
H2485 H 0.90555 0.06784 0.05596 0.0
H2486 H 0.87004 0.05426 0.98568 0.0
H2487 H 0.89735 0.03416 0.96674 0.0
C2488 C 0.82974 0.06665 0.0372 0.0
C2489 C 0.83227 0.09283 0.04205 0.0
C2490 C 0.84772 0.05671 0.03244 0.0
C2491 C 0.86851 0.07281 0.03314 0.0
C2492 C 0.87162 0.09897 0.04095 0.0
C2493 C 0.85354 0.10897 0.04537 0.0
C2494 C 0.9192 0.04872 0.02578 0.0
C2495 C 0.91695 0.03861 1.00054 0.0
C2496 C 0.9038 0.0606 0.03649 0.0
C2497 C 0.88584 0.06227 0.02216 0.0
C2498 C 0.88377 0.0528 0.99699 0.0
C2499 C 0.89925 0.04117 0.98623 0.0
H2500 H 0.39476 0.43468 0.07326 0.0
H2501 H 0.37645 0.44658 1.00387 0.0
H2502 H 0.43264 0.45826 0.07256 0.0
H2503 H 0.41455 0.4694 1.00282 0.0
H2504 H 0.48958 0.47492 0.99988 0.0
H2505 H 0.45195 0.45363 1.00269 0.0
H2506 H 0.45277 0.50685 0.07054 0.0
H2507 H 0.49076 0.52884 0.06771 0.0
C2508 C 0.39892 0.44214 0.05776 0.0
C2509 C 0.38278 0.43871 0.03852 0.0
C2510 C 0.42049 0.45579 0.05751 0.0
C2511 C 0.42639 0.46565 0.03769 0.0
C2512 C 0.41032 0.46198 0.01831 0.0
C2513 C 0.38861 0.44893 0.01888 0.0
C2514 C 0.48189 0.48233 0.01543 0.0
C2515 C 0.4932 0.50394 0.03341 0.0
C2516 C 0.46025 0.47007 0.01694 0.0
C2517 C 0.44946 0.47878 0.03666 0.0
C2518 C 0.46081 0.49986 0.0551 0.0
C2519 C 0.48249 0.51246 0.05342 0.0
H2520 H 0.40649 0.64039 0.75061 0.0
H2521 H 0.37821 0.63801 0.81708 0.0
H2522 H 0.38809 0.67288 0.7455 0.0
H2523 H 0.35953 0.66982 0.81196 0.0
H2524 H 0.3337 0.73997 0.80672 0.0
H2525 H 0.35149 0.70689 0.81204 0.0
H2526 H 0.36306 0.69295 0.73701 0.0
H2527 H 0.34591 0.72608 0.73223 0.0
C2528 C 0.39624 0.64644 0.76418 0.0
C2529 C 0.39427 0.6356 0.7843 0.0
C2530 C 0.38531 0.6655 0.76123 0.0
C2531 C 0.37159 0.67515 0.77818 0.0
C2532 C 0.36969 0.66409 0.79821 0.0
C2533 C 0.38058 0.64516 0.80112 0.0
C2534 C 0.33985 0.72975 0.79125 0.0
C2535 C 0.33787 0.73637 0.76889 0.0
C2536 C 0.35033 0.71032 0.79425 0.0
C2537 C 0.35957 0.69618 0.77512 0.0
C2538 C 0.35708 0.70278 0.75277 0.0
C2539 C 0.34679 0.72214 0.74987 0.0
H2540 H 0.22558 0.57592 0.53423 0.0
H2541 H 0.21234 0.63994 0.51293 0.0
H2542 H 0.1956 0.57517 0.55964 0.0
H2543 H 0.18225 0.63904 0.53746 0.0
H2544 H 0.11826 0.62296 0.56107 0.0
H2545 H 0.15846 0.63566 0.56818 0.0
H2546 H 0.15986 0.55845 0.53726 0.0
H2547 H 0.1203 0.54612 0.53075 0.0
C2548 C 0.21715 0.59082 0.53626 0.0
C2549 C 0.22082 0.60777 0.52153 0.0
C2550 C 0.19983 0.59025 0.55056 0.0
C2551 C 0.18594 0.60633 0.54973 0.0
C2552 C 0.19239 0.62619 0.53844 0.0
C2553 C 0.2097 0.62678 0.52429 0.0
C2554 C 0.12734 0.60876 0.55654 0.0
C2555 C 0.11634 0.58361 0.54561 0.0
C2556 C 0.15026 0.61594 0.56068 0.0
C2557 C 0.16247 0.59814 0.55332 0.0
C2558 C 0.15118 0.57268 0.54369 0.0
C2559 C 0.12839 0.56557 0.53965 0.0
H2560 H 0.76332 0.03366 0.76755 0.0
H2561 H 0.74672 0.96871 0.70644 0.0
H2562 H 0.79126 0.01755 0.78415 0.0
H2563 H 0.77549 0.95245 0.72277 0.0
H2564 H 0.78476 0.91495 0.7868 0.0
H2565 H 0.77175 0.93418 0.75681 0.0
H2566 H 0.82289 1.00272 0.78677 0.0
H2567 H 0.83507 0.98361 0.81758 0.0
C2568 C 0.76638 0.01635 0.7572 0.0
C2569 C 0.75265 1.00196 0.7362 0.0
C2570 C 0.78257 1.00716 0.76658 0.0
C2571 C 0.78521 0.98333 0.7551 0.0
C2572 C 0.77342 0.9706 0.73228 0.0
C2573 C 0.75713 0.97992 0.72282 0.0
C2574 C 0.79322 0.93407 0.78677 0.0
C2575 C 0.81042 0.94817 0.80472 0.0
C2576 C 0.78609 0.94496 0.76934 0.0
C2577 C 0.79627 0.97005 0.76941 0.0
C2578 C 0.81451 0.9835 0.78648 0.0
C2579 C 0.82136 0.97273 0.80419 0.0
H2580 H 0.76317 0.91443 0.50344 0.0
H2581 H 0.74661 0.92824 0.57691 0.0
H2582 H 0.73548 0.93485 0.49235 0.0
H2583 H 0.71853 0.9483 0.56547 0.0
H2584 H 0.65747 0.9621 0.52012 0.0
H2585 H 0.681 0.93704 0.53206 0.0
H2586 H 0.73691 0.98456 0.5108 0.0
H2587 H 0.71421 0.0107 0.50058 0.0
C2588 C 0.75334 0.92132 0.51712 0.0
C2589 C 0.75727 0.9199 0.54113 0.0
C2590 C 0.73753 0.93306 0.51074 0.0
C2591 C 0.72503 0.94323 0.52811 0.0
C2592 C 0.72793 0.94049 0.55176 0.0
C2593 C 0.74403 0.92908 0.55828 0.0
C2594 C 0.67483 0.96758 0.51836 0.0
C2595 C 0.68372 0.98842 0.50898 0.0
C2596 C 0.68822 0.95304 0.52504 0.0
C2597 C 0.71063 0.9587 0.52195 0.0
C2598 C 0.71957 0.97954 0.5129 0.0
C2599 C 0.70641 0.99439 0.50683 0.0
H2600 H 0.36346 0.50703 0.79344 0.0
H2601 H 0.42116 0.48904 0.76494 0.0
H2602 H 0.34608 0.46216 0.78776 0.0
H2603 H 0.40387 0.44387 0.75967 0.0
H2604 H 0.3746 0.3677 0.78216 0.0
H2605 H 0.39216 0.41182 0.78364 0.0
H2606 H 0.33013 0.42154 0.75795 0.0
H2607 H 0.31282 0.37741 0.75579 0.0
C2608 C 0.37241 0.49351 0.7856 0.0
C2609 C 0.39377 0.50211 0.7794 0.0
C2610 C 0.36235 0.46753 0.78233 0.0
C2611 C 0.37337 0.44883 0.77327 0.0
C2612 C 0.39471 0.45738 0.76684 0.0
C2613 C 0.4046 0.48345 0.76959 0.0
C2614 C 0.3646 0.37907 0.77664 0.0
C2615 C 0.3419 0.36846 0.76923 0.0
C2616 C 0.37481 0.40461 0.77743 0.0
C2617 C 0.36274 0.42087 0.77115 0.0
C2618 C 0.34014 0.41014 0.76339 0.0
C2619 C 0.33005 0.38454 0.76223 0.0
H2620 H 0.21165 0.60138 0.22748 0.0
H2621 H 0.26161 0.61013 0.28577 0.0
H2622 H 0.22792 0.6444 0.22491 0.0
H2623 H 0.27762 0.65316 0.28343 0.0
H2624 H 0.31031 0.72483 0.26505 0.0
H2625 H 0.29684 0.67915 0.25821 0.0
H2626 H 0.23007 0.68584 0.25139 0.0
H2627 H 0.24362 0.7312 0.25703 0.0
C2628 C 0.22617 0.61244 0.23963 0.0
C2629 C 0.23522 0.60256 0.25703 0.0
C2630 C 0.23544 0.63705 0.23819 0.0
C2631 C 0.254 0.6521 0.25398 0.0
C2632 C 0.26345 0.6419 0.27084 0.0
C2633 C 0.25411 0.61739 0.2724 0.0
C2634 C 0.2928 0.71637 0.26136 0.0
C2635 C 0.27795 0.73134 0.26124 0.0
C2636 C 0.28509 0.69032 0.25772 0.0
C2637 C 0.26241 0.67899 0.25436 0.0
C2638 C 0.24764 0.69398 0.25354 0.0
C2639 C 0.25536 0.71993 0.25699 0.0
H2640 H 0.49657 0.70399 0.49147 0.0
H2641 H 0.55134 0.71355 0.44938 0.0
H2642 H 0.50801 0.6696 0.50393 0.0
H2643 H 0.56261 0.67938 0.46172 0.0
H2644 H 0.55481 0.59458 0.4581 0.0
H2645 H 0.5483 0.63367 0.452 0.0
H2646 H 0.53664 0.65529 0.52666 0.0
H2647 H 0.54359 0.61567 0.53283 0.0
C2648 C 0.51123 0.69913 0.48511 0.0
C2649 C 0.52285 0.7118 0.46919 0.0
C2650 C 0.51786 0.67933 0.49237 0.0
C2651 C 0.5362 0.67126 0.48374 0.0
C2652 C 0.54823 0.68459 0.46857 0.0
C2653 C 0.54177 0.70446 0.46154 0.0
C2654 C 0.55127 0.60783 0.47342 0.0
C2655 C 0.54993 0.60187 0.496 0.0
C2656 C 0.54754 0.63044 0.46992 0.0
C2657 C 0.54182 0.64797 0.48873 0.0
C2658 C 0.54084 0.64231 0.51161 0.0
C2659 C 0.54505 0.61968 0.51526 0.0
H2660 H 0.68325 0.34709 0.64895 0.0
H2661 H 0.64866 0.28647 0.67791 0.0
H2662 H 0.7181 0.34562 0.66978 0.0
H2663 H 0.68274 0.28517 0.69829 0.0
H2664 H 0.7402 0.30713 0.75542 0.0
H2665 H 0.70869 0.31234 0.73299 0.0
H2666 H 0.74519 0.31662 0.67176 0.0
H2667 H 0.77736 0.31164 0.69478 0.0
C2668 C 0.68297 0.33342 0.65956 0.0
C2669 C 0.66283 0.31701 0.66165 0.0
C2670 C 0.703 0.33252 0.67148 0.0
C2671 C 0.70339 0.31543 0.68608 0.0
C2672 C 0.68328 0.29891 0.68769 0.0
C2673 C 0.66355 0.29962 0.67575 0.0
C2674 C 0.74191 0.30976 0.73745 0.0
C2675 C 0.7617 0.30928 0.72729 0.0
C2676 C 0.72355 0.31243 0.72432 0.0
C2677 C 0.7241 0.31481 0.70035 0.0
C2678 C 0.74405 0.31498 0.69018 0.0
C2679 C 0.7625 0.31198 0.70337 0.0
H2680 H 0.04689 0.34713 0.95491 0.0
H2681 H 0.98618 0.34282 0.98721 0.0
H2682 H 0.05455 0.39314 0.96554 0.0
H2683 H 0.99422 0.38909 0.99812 0.0
H2684 H 0.03741 0.46677 0.95322 0.0
H2685 H 0.02789 0.42109 0.94813 0.0
H2686 H 0.03098 0.43197 0.02546 0.0
H2687 H 0.04134 0.47812 0.03068 0.0
C2688 C 0.03531 0.35588 0.96463 0.0
C2689 C 0.01584 0.3409 0.97007 0.0
C2690 C 0.03972 0.38235 0.97068 0.0
C2691 C 0.02498 0.39482 0.98261 0.0
C2692 C 0.006 0.38009 0.98911 0.0
C2693 C 1.00144 0.3535 0.98284 0.0
C2694 C 0.03582 0.45949 0.96919 0.0
C2695 C 0.03994 0.47621 0.99233 0.0
C2696 C 0.03044 0.43329 0.96625 0.0
C2697 C 0.02882 0.42284 0.98635 0.0
C2698 C 0.03203 0.43942 0.00959 0.0
C2699 C 0.03781 0.46585 0.01257 0.0
H2700 H 0.0223 0.81582 0.12719 0.0
H2701 H 0.05777 0.80083 0.18648 0.0
H2702 H 0.98894 0.80984 0.14753 0.0
H2703 H 0.02458 0.79487 0.20668 0.0
H2704 H 0.97194 0.81526 0.25063 0.0
H2705 H 1.00275 0.82226 0.22692 0.0
H2706 H 0.96043 0.7784 0.16196 0.0
H2707 H 0.92928 0.77165 0.18602 0.0
C2708 C 0.02295 0.8109 0.14438 0.0
C2709 C 0.04283 0.80882 0.15516 0.0
C2710 C 0.00377 0.80748 0.15605 0.0
C2711 C 0.00406 0.80223 0.17895 0.0
C2712 C 0.02379 0.7994 0.1893 0.0
C2713 C 0.04284 0.80258 0.17758 0.0
C2714 C 0.96911 0.80749 0.23122 0.0
C2715 C 0.94821 0.79285 0.22023 0.0
C2716 C 0.98684 0.81126 0.21762 0.0
C2717 C 0.98429 0.80038 0.19257 0.0
C2718 C 0.96303 0.787 0.18123 0.0
C2719 C 0.94515 0.78322 0.19495 0.0
H2720 H 0.47259 0.31697 0.09942 0.0
H2721 H 0.53244 0.29243 0.10043 0.0
H2722 H 0.48693 0.34342 0.07237 0.0
H2723 H 0.54641 0.31834 0.07279 0.0
H2724 H 0.54598 0.35039 1.00159 0.0
H2725 H 0.53074 0.32116 0.02571 0.0
H2726 H 0.52601 0.38359 0.08329 0.0
H2727 H 0.54264 0.41307 0.06031 0.0
C2728 C 0.48857 0.31681 0.09343 0.0
C2729 C 0.50145 0.3027 0.10198 0.0
C2730 C 0.49677 0.33199 0.07811 0.0
C2731 C 0.51769 0.33276 0.07064 0.0
C2732 C 0.53018 0.31786 0.0783 0.0
C2733 C 0.52222 0.30315 0.09409 0.0
C2734 C 0.54206 0.35803 0.01952 0.0
C2735 C 0.54544 0.38423 0.02879 0.0
C2736 C 0.53316 0.34123 0.03318 0.0
C2737 C 0.52704 0.35026 0.05608 0.0
C2738 C 0.53032 0.37627 0.06544 0.0
C2739 C 0.53969 0.39309 0.0521 0.0
H2740 H 0.02864 0.31506 0.37506 0.0
H2741 H 0.06304 0.34844 0.32236 0.0
H2742 H 0.99711 0.33028 0.36534 0.0
H2743 H 0.03116 0.36287 0.31206 0.0
H2744 H 0.9722 0.39344 0.30351 0.0
H2745 H 0.00542 0.38958 0.32479 0.0
H2746 H 0.97161 0.31441 0.32804 0.0
H2747 H 0.93902 0.3178 0.30645 0.0
C2748 C 0.02964 0.32597 0.36169 0.0
C2749 C 0.04821 0.33027 0.34925 0.0
C2750 C 0.01154 0.33462 0.35609 0.0
C2751 C 0.01163 0.34753 0.33779 0.0
C2752 C 0.0307 0.35316 0.32639 0.0
C2753 C 0.04885 0.34461 0.33208 0.0
C2754 C 0.97188 0.37617 0.3089 0.0
C2755 C 0.95291 0.35596 0.30323 0.0
C2756 C 0.99082 0.37404 0.32118 0.0
C2757 C 0.99103 0.35176 0.32815 0.0
C2758 C 0.97183 0.33203 0.32337 0.0
C2759 C 0.95307 0.33403 0.31095 0.0
H2760 H 0.99889 0.68886 0.65715 0.0
H2761 H 0.96813 0.69011 0.58835 0.0
H2762 H 0.01194 0.6527 0.63753 0.0
H2763 H 0.98144 0.65377 0.56849 0.0
H2764 H 0.0434 0.62562 0.54569 0.0
H2765 H 0.02157 0.65368 0.56375 0.0
H2766 H 1.00144 0.6071 0.61304 0.0
H2767 H 0.02282 0.57826 0.59415 0.0
C2768 C 0.99449 0.68092 0.63787 0.0
C2769 C 0.9827 0.69224 0.62415 0.0
C2770 C 1.00186 0.66018 0.62668 0.0
C2771 C 0.99784 0.65065 0.60152 0.0
C2772 C 0.98484 0.66097 0.58794 0.0
C2773 C 0.97712 0.68155 0.59926 0.0
C2774 C 0.03399 0.62104 0.56 0.0
C2775 C 0.03456 0.59959 0.56826 0.0
C2776 C 0.02145 0.63709 0.57032 0.0
C2777 C 0.00949 0.63224 0.58944 0.0
C2778 C 0.01044 0.61111 0.59818 0.0
C2779 C 0.02285 0.59484 0.58761 0.0
H2780 H 0.67275 0.79354 0.8526 0.0
H2781 H 0.66669 0.85353 0.81928 0.0
H2782 H 0.70805 0.79389 0.83719 0.0
H2783 H 0.70213 0.85392 0.80403 0.0
H2784 H 0.7553 0.82725 0.75999 0.0
H2785 H 0.71898 0.82577 0.7741 0.0
H2786 H 0.74512 0.82337 0.84471 0.0
H2787 H 0.781 0.82439 0.83037 0.0
C2788 C 0.67898 0.80684 0.84205 0.0
C2789 C 0.66695 0.8235 0.83714 0.0
C2790 C 0.69918 0.80704 0.83326 0.0
C2791 C 0.7077 0.82383 0.81932 0.0
C2792 C 0.69574 0.84054 0.81445 0.0
C2793 C 0.67557 0.84044 0.82335 0.0
C2794 C 0.75302 0.8262 0.77841 0.0
C2795 C 0.77044 0.82524 0.79404 0.0
C2796 C 0.73244 0.82552 0.78652 0.0
C2797 C 0.72929 0.82432 0.81045 0.0
C2798 C 0.747 0.82385 0.82609 0.0
C2799 C 0.76745 0.82442 0.81795 0.0
H2800 H 0.50757 0.61451 0.71268 0.0
H2801 H 0.45801 0.5443 0.68828 0.0
H2802 H 0.52094 0.6087 0.67364 0.0
H2803 H 0.47212 0.53769 0.64852 0.0
H2804 H 0.49547 0.53672 0.57167 0.0
H2805 H 0.47938 0.54215 0.61007 0.0
H2806 H 0.5406 0.5935 0.64576 0.0
H2807 H 0.55582 0.58903 0.60756 0.0
C2808 C 0.49942 0.59751 0.69902 0.0
C2809 C 0.48145 0.57998 0.70452 0.0
C2810 C 0.50745 0.59394 0.6761 0.0
C2811 C 0.49834 0.57232 0.65688 0.0
C2812 C 0.48001 0.55477 0.66215 0.0
C2813 C 0.47175 0.55852 0.68532 0.0
C2814 C 0.5055 0.54942 0.58766 0.0
C2815 C 0.52728 0.56245 0.58572 0.0
C2816 C 0.49619 0.55244 0.61014 0.0
C2817 C 0.50816 0.56855 0.63212 0.0
C2818 C 0.53 0.58134 0.62996 0.0
C2819 C 0.53913 0.57854 0.60756 0.0
H2820 H 0.77496 0.15193 0.95369 0.0
H2821 H 0.81516 0.21742 0.00588 0.0
H2822 H 0.76706 0.17884 0.92831 0.0
H2823 H 0.80662 0.24446 0.98102 0.0
H2824 H 0.80579 0.28143 0.91801 0.0
H2825 H 0.81406 0.25451 0.94313 0.0
H2826 H 0.74659 0.21016 0.92814 0.0
H2827 H 0.73856 0.23678 0.90238 0.0
C2828 C 0.78197 0.17211 0.95977 0.0
C2829 C 0.79568 0.18265 0.98168 0.0
C2830 C 0.77735 0.18752 0.94534 0.0
C2831 C 0.78611 0.21378 0.95274 0.0
C2832 C 0.79988 0.22426 0.97466 0.0
C2833 C 0.80474 0.20881 0.98892 0.0
C2834 C 0.79274 0.26598 0.92023 0.0
C2835 C 0.77153 0.26122 0.90847 0.0
C2836 C 0.79742 0.25066 0.93469 0.0
C2837 C 0.78097 0.23023 0.93765 0.0
C2838 C 0.75965 0.22563 0.92604 0.0
C2839 C 0.75496 0.24104 0.9116 0.0
H2840 H 0.17732 0.53927 0.1561 0.0
H2841 H 0.12042 0.50823 0.18894 0.0
H2842 H 0.1536 0.55139 0.12825 0.0
H2843 H 0.09693 0.52033 0.16113 0.0
H2844 H 0.06458 0.55686 0.10722 0.0
H2845 H 0.0885 0.55741 0.14294 0.0
H2846 H 0.12565 0.51513 0.09619 0.0
H2847 H 0.10189 0.51439 0.06108 0.0
C2848 C 0.15984 0.53523 0.15747 0.0
C2849 C 0.15053 0.52183 0.17383 0.0
C2850 C 0.14638 0.54242 0.14183 0.0
C2851 C 0.12356 0.53638 0.14255 0.0
C2852 C 0.1145 0.52508 0.16034 0.0
C2853 C 0.12791 0.51771 0.17583 0.0
C2854 C 0.07751 0.54716 0.1049 0.0
C2855 C 0.08142 0.53523 0.08179 0.0
C2856 C 0.09133 0.54787 0.12509 0.0
C2857 C 0.10911 0.5369 0.12198 0.0
C2858 C 0.11241 0.52436 0.09885 0.0
C2859 C 0.09867 0.52355 0.07891 0.0
H2860 H 0.80045 0.86114 0.46425 0.0
H2861 H 0.85509 0.82752 0.4667 0.0
H2862 H 0.7966 0.84847 0.4202 0.0
H2863 H 0.85103 0.81472 0.42235 0.0
H2864 H 0.81883 0.78027 0.33868 0.0
H2865 H 0.82333 0.78709 0.38309 0.0
H2866 H 0.82273 0.86494 0.3913 0.0
H2867 H 0.81908 0.85845 0.34759 0.0
C2868 C 0.81145 0.85069 0.4555 0.0
C2869 C 0.82823 0.84564 0.46929 0.0
C2870 C 0.80929 0.84351 0.43015 0.0
C2871 C 0.8237 0.83087 0.4177 0.0
C2872 C 0.83965 0.8244 0.43135 0.0
C2873 C 0.84196 0.8318 0.45682 0.0
C2874 C 0.8202 0.79893 0.35005 0.0
C2875 C 0.81878 0.81888 0.33957 0.0
C2876 C 0.82262 0.80281 0.37546 0.0
C2877 C 0.82298 0.82648 0.39076 0.0
C2878 C 0.82211 0.84639 0.38012 0.0
C2879 C 0.82014 0.84267 0.35501 0.0
H2880 H 0.50668 0.58923 0.84584 0.0
H2881 H 0.44283 0.54729 0.8554 0.0
H2882 H 0.52235 0.58193 0.88279 0.0
H2883 H 0.45844 0.53849 0.89161 0.0
H2884 H 0.48667 0.53958 0.96796 0.0
H2885 H 0.47149 0.54558 0.93052 0.0
H2886 H 0.53643 0.56172 0.90796 0.0
H2887 H 0.5516 0.55596 0.94624 0.0
C2888 C 0.49584 0.57827 0.85574 0.0
C2889 C 0.47317 0.56931 0.84719 0.0
C2890 C 0.50501 0.57375 0.87724 0.0
C2891 C 0.49219 0.55937 0.89136 0.0
C2892 C 0.46943 0.55014 0.88245 0.0
C2893 C 0.4602 0.55518 0.86122 0.0
C2894 C 0.49786 0.54412 0.95497 0.0
C2895 C 0.52059 0.54696 0.96077 0.0
C2896 C 0.48898 0.54759 0.93294 0.0
C2897 C 0.50222 0.55444 0.91504 0.0
C2898 C 0.52511 0.55684 0.92067 0.0
C2899 C 0.53403 0.55315 0.94285 0.0
H2900 H 0.77057 0.14364 0.10253 0.0
H2901 H 0.78168 0.20669 0.07 0.0
H2902 H 0.76863 0.17184 0.1415 0.0
H2903 H 0.77987 0.23495 0.1088 0.0
H2904 H 0.77214 0.27855 0.18616 0.0
H2905 H 0.76163 0.24938 0.14561 0.0
H2906 H 0.80153 0.20294 0.16553 0.0
H2907 H 0.81159 0.23164 0.20554 0.0
C2908 C 0.7715 0.16329 0.10349 0.0
C2909 C 0.77629 0.17311 0.08344 0.0
C2910 C 0.7707 0.17952 0.12581 0.0
C2911 C 0.77469 0.20572 0.12829 0.0
C2912 C 0.77682 0.21493 0.1075 0.0
C2913 C 0.77779 0.19875 0.08528 0.0
C2914 C 0.77887 0.2623 0.18149 0.0
C2915 C 0.79278 0.25728 0.19864 0.0
C2916 C 0.7727 0.24551 0.15852 0.0
C2917 C 0.7803 0.22352 0.15262 0.0
C2918 C 0.79478 0.2192 0.16974 0.0
C2919 C 0.80086 0.23583 0.19249 0.0
H2920 H 0.13705 0.54805 0.26932 0.0
H2921 H 0.18713 0.53427 0.3153 0.0
H2922 H 0.11843 0.56076 0.30408 0.0
H2923 H 0.16807 0.5473 0.3506 0.0
H2924 H 0.13215 0.59895 0.40602 0.0
H2925 H 0.15537 0.58791 0.37404 0.0
H2926 H 0.09878 0.53355 0.33072 0.0
H2927 H 0.07575 0.54498 0.36224 0.0
C2928 C 0.14421 0.54788 0.2869 0.0
C2929 C 0.16346 0.53988 0.28956 0.0
C2930 C 0.13347 0.55512 0.30678 0.0
C2931 C 0.14171 0.55462 0.32981 0.0
C2932 C 0.16146 0.54772 0.33287 0.0
C2933 C 0.17226 0.54022 0.31276 0.0
C2934 C 0.12487 0.58469 0.38957 0.0
C2935 C 0.10226 0.57308 0.38608 0.0
C2936 C 0.13808 0.57826 0.37152 0.0
C2937 C 0.12872 0.56007 0.35002 0.0
C2938 C 0.10623 0.54796 0.34703 0.0
C2939 C 0.09308 0.55451 0.36489 0.0
H2940 H 0.78425 0.85615 0.59514 0.0
H2941 H 0.84758 0.84028 0.60359 0.0
H2942 H 0.77761 0.84955 0.63548 0.0
H2943 H 0.84111 0.83468 0.64373 0.0
H2944 H 0.83444 0.8673 0.7247 0.0
H2945 H 0.83482 0.87243 0.68347 0.0
H2946 H 0.77766 0.80975 0.66003 0.0
H2947 H 0.77752 0.80424 0.70127 0.0
C2948 C 0.79656 0.85081 0.60526 0.0
C2949 C 0.81652 0.84891 0.59595 0.0
C2950 C 0.79278 0.84721 0.62842 0.0
C2951 C 0.80906 0.84214 0.64288 0.0
C2952 C 0.82844 0.83897 0.63313 0.0
C2953 C 0.83202 0.84201 0.60994 0.0
C2954 C 0.82196 0.85446 0.71088 0.0
C2955 C 0.80691 0.83406 0.71609 0.0
C2956 C 0.82214 0.85753 0.68723 0.0
C2957 C 0.80665 0.84102 0.66842 0.0
C2958 C 0.79007 0.82244 0.67407 0.0
C2959 C 0.79021 0.81905 0.69766 0.0
H2960 H 0.75822 0.45161 0.50904 0.0
H2961 H 0.7987 0.52742 0.51866 0.0
H2962 H 0.72527 0.46744 0.50773 0.0
H2963 H 0.76637 0.54311 0.51795 0.0
H2964 H 0.70762 0.56985 0.51609 0.0
H2965 H 0.73267 0.54542 0.49811 0.0
H2966 H 0.71234 0.49296 0.54222 0.0
H2967 H 0.68689 0.51706 0.55939 0.0
C2968 C 0.76003 0.47147 0.51029 0.0
C2969 C 0.78089 0.48844 0.51458 0.0
C2970 C 0.74127 0.48052 0.5096 0.0
C2971 C 0.74329 0.50653 0.51305 0.0
C2972 C 0.76419 0.52295 0.51501 0.0
C2973 C 0.78278 0.51399 0.51576 0.0
C2974 C 0.70861 0.55301 0.52172 0.0
C2975 C 0.69623 0.5456 0.53959 0.0
C2976 C 0.72266 0.53894 0.51134 0.0
C2977 C 0.7246 0.51745 0.51895 0.0
C2978 C 0.71107 0.50928 0.53583 0.0
C2979 C 0.69691 0.52327 0.54603 0.0
H2980 H 0.22477 0.16829 0.52204 0.0
H2981 H 0.22149 0.11782 0.45184 0.0
H2982 H 0.1873 0.14653 0.52569 0.0
H2983 H 0.1837 0.09685 0.45477 0.0
H2984 H 0.12546 0.04595 0.47778 0.0
H2985 H 0.16208 0.0688 0.47292 0.0
H2986 H 0.15012 0.13809 0.51402 0.0
H2987 H 0.11412 0.11484 0.52015 0.0
C2988 C 0.21589 0.15285 0.50716 0.0
C2989 C 0.2262 0.14478 0.48669 0.0
C2990 C 0.19427 0.14034 0.50917 0.0
C2991 C 0.18221 0.11963 0.49059 0.0
C2992 C 0.19242 0.11221 0.46977 0.0
C2993 C 0.21411 0.12446 0.46795 0.0
C2994 C 0.13064 0.066 0.48586 0.0
C2995 C 0.11682 0.07832 0.49967 0.0
C2996 C 0.1517 0.0793 0.48286 0.0
C2997 C 0.15941 0.1055 0.49315 0.0
C2998 C 0.14521 0.11792 0.50629 0.0
C2999 C 0.12434 0.10453 0.50964 0.0
H3000 H 0.24505 0.96831 0.80837 0.0
H3001 H 0.20657 0.92809 0.74028 0.0
H3002 H 0.26279 0.93446 0.80695 0.0
H3003 H 0.22494 0.89348 0.73877 0.0
H3004 H 0.27598 0.8399 0.73877 0.0
H3005 H 0.25887 0.87459 0.73558 0.0
H3006 H 0.25785 0.89338 0.81279 0.0
H3007 H 0.27425 0.85903 0.81572 0.0
C3008 C 0.2402 0.95232 0.79276 0.0
C3009 C 0.22378 0.95198 0.77451 0.0
C3010 C 0.25059 0.93231 0.79206 0.0
C3011 C 0.24563 0.91009 0.77294 0.0
C3012 C 0.22972 0.90981 0.75404 0.0
C3013 C 0.21901 0.93004 0.75486 0.0
C3014 C 0.27239 0.85159 0.75515 0.0
C3015 C 0.27713 0.84613 0.77766 0.0
C3016 C 0.2622 0.87165 0.75332 0.0
C3017 C 0.25653 0.88777 0.7739 0.0
C3018 C 0.26176 0.88234 0.79623 0.0
C3019 C 0.27138 0.86218 0.79797 0.0
H3020 H 0.38941 1.00172 0.98973 0.0
H3021 H 0.41228 0.98563 0.05557 0.0
H3022 H 0.42661 1.00605 0.97701 0.0
H3023 H 0.44861 0.98892 0.04244 0.0
H3024 H 0.50219 0.96797 1.00016 0.0
H3025 H 0.46209 0.9604 0.99791 0.0
H3026 H 0.46821 0.03988 0.00688 0.0
H3027 H 0.5076 0.04751 0.01061 0.0
C3028 C 0.40235 0.99934 1.00149 0.0
C3029 C 0.39802 0.9931 0.02349 0.0
C3030 C 0.42337 1.00138 0.99405 0.0
C3031 C 0.43991 0.99675 0.00841 0.0
C3032 C 0.43575 0.9916 0.03075 0.0
C3033 C 0.41508 0.99001 0.03832 0.0
C3034 C 0.4949 0.98366 1.00087 0.0
C3035 C 0.50815 0.00839 0.00539 0.0
C3036 C 0.47206 0.97931 0.99937 0.0
C3037 C 0.46233 0.99962 1.00193 0.0
C3038 C 0.47541 0.02393 0.00436 0.0
C3039 C 0.49809 0.0283 0.00659 0.0
H3040 H 0.91174 0.6385 0.83561 0.0
H3041 H 0.85635 0.57649 0.83519 0.0
H3042 H 0.88739 0.65995 0.81923 0.0
H3043 H 0.83184 0.59792 0.81854 0.0
H3044 H 0.79945 0.65777 0.79064 0.0
H3045 H 0.81882 0.64305 0.82076 0.0
H3046 H 0.86906 0.63437 0.77342 0.0
H3047 H 0.84977 0.64865 0.74347 0.0
C3048 C 0.89418 0.6302 0.83326 0.0
C3049 C 0.88575 0.60598 0.83646 0.0
C3050 C 0.88032 0.64233 0.82378 0.0
C3051 C 0.85797 0.63021 0.81727 0.0
C3052 C 0.84907 0.60752 0.82352 0.0
C3053 C 0.86301 0.59536 0.83312 0.0
C3054 C 0.81449 0.65234 0.7867 0.0
C3055 C 0.82315 0.65408 0.7648 0.0
C3056 C 0.82552 0.64412 0.80386 0.0
C3057 C 0.84552 0.63819 0.79945 0.0
C3058 C 0.85381 0.63933 0.77731 0.0
C3059 C 0.84266 0.6471 0.76007 0.0
H3060 H 0.8725 0.69749 0.03001 0.0
H3061 H 0.82735 0.62365 0.01478 0.0
H3062 H 0.90307 0.67895 0.0368 0.0
H3063 H 0.85791 0.60518 0.02084 0.0
H3064 H 0.9216 0.58019 0.00582 0.0
H3065 H 0.89432 0.60277 0.99764 0.0
H3066 H 0.912 0.65224 0.06937 0.0
H3067 H 0.93883 0.62916 0.07776 0.0
C3068 C 0.8691 0.67738 0.02818 0.0
C3069 C 0.84751 0.66205 0.02207 0.0
C3070 C 0.88657 0.6668 0.03201 0.0
C3071 C 0.88279 0.64065 0.0291 0.0
C3072 C 0.86125 0.62537 0.02298 0.0
C3073 C 0.84376 0.63599 0.01977 0.0
C3074 C 0.91989 0.59617 0.01961 0.0
C3075 C 0.93219 0.60299 0.04239 0.0
C3076 C 0.90427 0.60897 0.01501 0.0
C3077 C 0.90105 0.62911 0.03295 0.0
C3078 C 0.91425 0.63683 0.05525 0.0
C3079 C 0.92952 0.62366 0.06004 0.0
H3080 H 0.20197 0.08854 0.75735 0.0
H3081 H 0.25023 0.09349 0.81561 0.0
H3082 H 0.22094 0.13102 0.75484 0.0
H3083 H 0.26897 0.13587 0.81345 0.0
H3084 H 0.30996 0.20611 0.79406 0.0
H3085 H 0.29146 0.16317 0.79485 0.0
H3086 H 0.2297 0.17492 0.77075 0.0
H3087 H 0.24849 0.21757 0.76909 0.0
C3088 C 0.21668 0.09852 0.76961 0.0
C3089 C 0.22434 0.08694 0.78665 0.0
C3090 C 0.22761 0.1233 0.76834 0.0
C3091 C 0.24686 0.13771 0.78392 0.0
C3092 C 0.25456 0.12589 0.80075 0.0
C3093 C 0.24358 0.10127 0.80211 0.0
C3094 C 0.2925 0.19963 0.78868 0.0
C3095 C 0.28112 0.21591 0.78126 0.0
C3096 C 0.28162 0.17471 0.78939 0.0
C3097 C 0.25869 0.16471 0.78286 0.0
C3098 C 0.24729 0.18111 0.77558 0.0
C3099 C 0.2582 0.20601 0.7748 0.0
H3100 H 0.35785 0.98483 0.34342 0.0
H3101 H 0.39446 0.9844 0.2815 0.0
H3102 H 0.3403 0.93987 0.32666 0.0
H3103 H 0.37755 0.93977 0.26562 0.0
H3104 H 0.36936 0.8569 0.27184 0.0
H3105 H 0.38232 0.90282 0.28644 0.0
H3106 H 0.31526 0.90866 0.284 0.0
H3107 H 0.30234 0.86253 0.26858 0.0
C3108 C 0.36209 0.97526 0.32631 0.0
C3109 C 0.37777 0.98815 0.31397 0.0
C3110 C 0.35201 0.94962 0.31676 0.0
C3111 C 0.35787 0.93652 0.29513 0.0
C3112 C 0.37296 0.94953 0.28246 0.0
C3113 C 0.38263 0.97512 0.29164 0.0
C3114 C 0.35748 0.8681 0.27456 0.0
C3115 C 0.33496 0.85653 0.27008 0.0
C3116 C 0.36482 0.89419 0.28276 0.0
C3117 C 0.3497 0.909 0.2865 0.0
C3118 C 0.32712 0.89744 0.28148 0.0
C3119 C 0.31978 0.87126 0.27276 0.0
H3120 H 0.60757 0.40799 0.60389 0.0
H3121 H 0.56981 0.35922 0.53821 0.0
H3122 H 0.60182 0.44479 0.59106 0.0
H3123 H 0.56421 0.39599 0.52516 0.0
H3124 H 0.57026 0.47441 0.50432 0.0
H3125 H 0.57864 0.43619 0.5125 0.0
H3126 H 0.57041 0.4624 0.58768 0.0
H3127 H 0.56218 0.49992 0.57955 0.0
C3128 C 0.59877 0.40508 0.58626 0.0
C3129 C 0.58949 0.38039 0.57203 0.0
C3130 C 0.59506 0.42627 0.57902 0.0
C3131 C 0.58216 0.42366 0.5571 0.0
C3132 C 0.57421 0.39906 0.54209 0.0
C3133 C 0.57756 0.37785 0.54957 0.0
C3134 C 0.56987 0.47172 0.52246 0.0
C3135 C 0.56556 0.49048 0.54126 0.0
C3136 C 0.57483 0.44984 0.52726 0.0
C3137 C 0.57585 0.44621 0.551 0.0
C3138 C 0.57058 0.46457 0.56935 0.0
C3139 C 0.56556 0.48612 0.56458 0.0
H3140 H 0.47452 0.7781 0.35372 0.0
H3141 H 0.43673 0.75838 0.41039 0.0
H3142 H 0.44167 0.77997 0.33106 0.0
H3143 H 0.40335 0.7608 0.38745 0.0
H3144 H 0.35696 0.79936 0.3471 0.0
H3145 H 0.38744 0.79419 0.37199 0.0
H3146 H 0.40649 0.74944 0.30875 0.0
H3147 H 0.37576 0.75388 0.28403 0.0
C3148 C 0.45919 0.77425 0.36152 0.0
C3149 C 0.45848 0.76806 0.38407 0.0
C3150 C 0.4402 0.77517 0.3483 0.0
C3151 C 0.4197 0.77035 0.35719 0.0
C3152 C 0.41886 0.76462 0.37999 0.0
C3153 C 0.43798 0.76318 0.39315 0.0
C3154 C 0.36747 0.78819 0.33838 0.0
C3155 C 0.36385 0.77746 0.31313 0.0
C3156 C 0.38496 0.78515 0.35281 0.0
C3157 C 0.39965 0.77158 0.34245 0.0
C3158 C 0.39574 0.76034 0.31738 0.0
C3159 C 0.37805 0.76301 0.30305 0.0
H3160 H 0.11042 0.75082 0.10041 0.0
H3161 H 0.0566 0.73761 0.04528 0.0
H3162 H 0.11036 0.70623 0.088 0.0
H3163 H 0.05652 0.69317 0.03298 0.0
H3164 H 0.06685 0.61429 0.0074 0.0
H3165 H 0.07541 0.66054 0.01507 0.0
H3166 H 0.08555 0.66705 0.09177 0.0
H3167 H 0.07701 0.62125 0.08404 0.0
C3168 C 0.09884 0.7386 0.08534 0.0
C3169 C 0.08346 0.74806 0.07399 0.0
C3170 C 0.09869 0.71288 0.07831 0.0
C3171 C 0.08332 0.69582 0.05952 0.0
C3172 C 0.06874 0.70559 0.04735 0.0
C3173 C 0.06872 0.7312 0.05454 0.0
C3174 C 0.07144 0.62569 0.02581 0.0
C3175 C 0.07137 0.61406 0.0451 0.0
C3176 C 0.07614 0.65222 0.03027 0.0
C3177 C 0.08108 0.66777 0.05412 0.0
C3178 C 0.08207 0.65597 0.07319 0.0
C3179 C 0.07708 0.6296 0.06876 0.0
H3180 H 0.09359 0.23111 0.89294 0.0
H3181 H 0.08357 0.30461 0.89458 0.0
H3182 H 0.12752 0.24189 0.87483 0.0
H3183 H 0.11686 0.31505 0.87548 0.0
H3184 H 0.18364 0.33502 0.8516 0.0
H3185 H 0.15485 0.32507 0.8774 0.0
H3186 H 0.13969 0.24659 0.83808 0.0
H3187 H 0.16939 0.25664 0.81346 0.0
C3188 C 0.09866 0.24963 0.8895 0.0
C3189 C 0.08575 0.26692 0.89511 0.0
C3190 C 0.11809 0.25577 0.8789 0.0
C3191 C 0.12503 0.2793 0.87333 0.0
C3192 C 0.11239 0.29687 0.8797 0.0
C3193 C 0.09311 0.29082 0.89056 0.0
C3194 C 0.17437 0.3156 0.84892 0.0
C3195 C 0.17871 0.29655 0.83068 0.0
C3196 C 0.15768 0.30987 0.86349 0.0
C3197 C 0.14456 0.28501 0.85977 0.0
C3198 C 0.14951 0.26588 0.84189 0.0
C3199 C 0.1665 0.27158 0.82765 0.0
H3200 H 0.5937 0.80416 0.96315 0.0
H3201 H 0.61221 0.74622 0.91092 0.0
H3202 H 0.59278 0.7795 0.99289 0.0
H3203 H 0.61152 0.72133 0.94094 0.0
H3204 H 0.56069 0.67271 0.97943 0.0
H3205 H 0.57752 0.69969 0.95441 0.0
H3206 H 0.60865 0.75769 0.01857 0.0
H3207 H 0.59155 0.73042 0.04382 0.0
C3208 C 0.59831 0.78646 0.95837 0.0
C3209 C 0.60257 0.77676 0.93472 0.0
C3210 C 0.59795 0.7724 0.97546 0.0
C3211 C 0.60164 0.74826 0.96909 0.0
C3212 C 0.60826 0.73975 0.94617 0.0
C3213 C 0.60882 0.75401 0.92907 0.0
C3214 C 0.57143 0.69106 0.98822 0.0
C3215 C 0.57479 0.69956 0.01357 0.0
C3216 C 0.58127 0.70642 0.97387 0.0
C3217 C 0.59463 0.73071 0.98452 0.0
C3218 C 0.5984 0.73905 0.0099 0.0
C3219 C 0.58849 0.72361 0.02431 0.0
H3220 H 0.07238 0.7527 0.66828 0.0
H3221 H 0.07146 0.79561 0.74125 0.0
H3222 H 0.10458 0.74016 0.6818 0.0
H3223 H 0.10321 0.78284 0.75463 0.0
H3224 H 0.17306 0.77712 0.76518 0.0
H3225 H 0.14248 0.79005 0.74887 0.0
H3226 H 0.11281 0.71296 0.70937 0.0
H3227 H 0.14395 0.70002 0.72541 0.0
C3228 C 0.07916 0.75964 0.6871 0.0
C3229 C 0.06944 0.7752 0.70371 0.0
C3230 C 0.09742 0.75227 0.69485 0.0
C3231 C 0.10629 0.76048 0.71925 0.0
C3232 C 0.09684 0.77645 0.73566 0.0
C3233 C 0.07863 0.78375 0.72798 0.0
C3234 C 0.16004 0.76293 0.75295 0.0
C3235 C 0.16078 0.73757 0.74657 0.0
C3236 C 0.14252 0.77032 0.74371 0.0
C3237 C 0.1253 0.7525 0.72792 0.0
C3238 C 0.126 0.72709 0.72139 0.0
C3239 C 0.14359 0.71964 0.73077 0.0
H3240 H 0.11646 0.39808 0.3908 0.0
H3241 H 0.11711 0.37433 0.45724 0.0
H3242 H 0.11981 0.44142 0.41383 0.0
H3243 H 0.12013 0.41715 0.48025 0.0
H3244 H 0.11686 0.49384 0.51783 0.0
H3245 H 0.13382 0.4624 0.49488 0.0
H3246 H 0.08856 0.45282 0.43193 0.0
H3247 H 0.07188 0.48407 0.45486 0.0
C3248 C 0.11856 0.40245 0.41039 0.0
C3249 C 0.11626 0.38308 0.42237 0.0
C3250 C 0.12017 0.42714 0.42357 0.0
C3251 C 0.11946 0.43253 0.44879 0.0
C3252 C 0.1206 0.41372 0.46088 0.0
C3253 C 0.11888 0.38912 0.44772 0.0
C3254 C 0.1104 0.48465 0.49922 0.0
C3255 C 0.09241 0.49042 0.48844 0.0
C3256 C 0.12037 0.46706 0.48594 0.0
C3257 C 0.11254 0.45502 0.46158 0.0
C3258 C 0.09531 0.46198 0.45051 0.0
C3259 C 0.08546 0.4796 0.46377 0.0
H3260 H 0.4734 0.28742 0.24395 0.0
H3261 H 0.4333 0.24112 0.17851 0.0
H3262 H 0.4405 0.28921 0.26421 0.0
H3263 H 0.40044 0.24116 0.19903 0.0
H3264 H 0.34778 0.27784 0.22644 0.0
H3265 H 0.38126 0.27177 0.20986 0.0
H3266 H 0.40878 0.27045 0.2804 0.0
H3267 H 0.37523 0.27802 0.29712 0.0
C3268 C 0.45751 0.27691 0.23422 0.0
C3269 C 0.45564 0.26451 0.20966 0.0
C3270 C 0.43867 0.27786 0.2458 0.0
C3271 C 0.41777 0.26588 0.23306 0.0
C3272 C 0.41623 0.25144 0.2091 0.0
C3273 C 0.43498 0.25116 0.19737 0.0
C3274 C 0.3612 0.27668 0.23839 0.0
C3275 C 0.35947 0.27918 0.26306 0.0
C3276 C 0.38022 0.2727 0.22888 0.0
C3277 C 0.39766 0.27021 0.2437 0.0
C3278 C 0.39576 0.2725 0.26852 0.0
C3279 C 0.37668 0.27682 0.27811 0.0
H3280 H 0.67206 0.52026 0.35939 0.0
H3281 H 0.61122 0.51901 0.32091 0.0
H3282 H 0.6547 0.52358 0.39721 0.0
H3283 H 0.5938 0.52186 0.35832 0.0
H3284 H 0.56085 0.50552 0.4259 0.0
H3285 H 0.57886 0.50175 0.38881 0.0
H3286 H 0.63959 0.54844 0.42978 0.0
H3287 H 0.62144 0.55241 0.46683 0.0
C3288 C 0.655 0.52076 0.3588 0.0
C3289 C 0.64342 0.51954 0.33644 0.0
C3290 C 0.64487 0.52274 0.3808 0.0
C3291 C 0.62241 0.52299 0.38164 0.0
C3292 C 0.6109 0.52153 0.35916 0.0
C3293 C 0.62112 0.52009 0.33736 0.0
C3294 C 0.57803 0.51506 0.42726 0.0
C3295 C 0.58926 0.52938 0.45015 0.0
C3296 C 0.58855 0.513 0.40559 0.0
C3297 C 0.61109 0.52483 0.40542 0.0
C3298 C 0.62241 0.53872 0.42842 0.0
C3299 C 0.6118 0.54109 0.45004 0.0
H3300 H 0.34128 0.86713 0.04921 0.0
H3301 H 0.30786 0.91872 0.08997 0.0
H3302 H 0.33703 0.84305 0.07958 0.0
H3303 H 0.30361 0.89454 0.12064 0.0
H3304 H 0.35763 0.88681 0.17884 0.0
H3305 H 0.3389 0.8981 0.14633 0.0
H3306 H 0.31709 0.8195 0.10778 0.0
H3307 H 0.33607 0.80823 0.14039 0.0
C3308 C 0.33209 0.87257 0.06415 0.0
C3309 C 0.32542 0.89505 0.06773 0.0
C3310 C 0.32952 0.8587 0.08148 0.0
C3311 C 0.32049 0.86738 0.10274 0.0
C3312 C 0.3109 0.88775 0.10452 0.0
C3313 C 0.31326 0.90149 0.08696 0.0
C3314 C 0.34852 0.87196 0.1636 0.0
C3315 C 0.34855 0.84677 0.16185 0.0
C3316 C 0.33745 0.87832 0.1452 0.0
C3317 C 0.32642 0.85961 0.12461 0.0
C3318 C 0.32536 0.83422 0.12354 0.0
C3319 C 0.33627 0.82783 0.1421 0.0
H3320 H 1.00255 0.55365 0.82723 0.0
H3321 H 0.94324 0.51698 0.85231 0.0
H3322 H 0.024 0.55191 0.86344 0.0
H3323 H 0.96451 0.51474 0.88821 0.0
H3324 H 1.00075 0.55796 0.9626 0.0
H3325 H 0.98177 0.55086 0.92241 0.0
H3326 H 0.03643 0.52776 0.89019 0.0
H3327 H 0.05523 0.53479 0.93035 0.0
C3328 C 0.99431 0.5441 0.83993 0.0
C3329 C 0.97137 0.53571 0.83736 0.0
C3330 C 0.0065 0.54328 0.86072 0.0
C3331 C 0.99576 0.53393 0.87893 0.0
C3332 C 0.97308 0.52276 0.87478 0.0
C3333 C 0.96096 0.52376 0.85417 0.0
C3334 C 0.00875 0.55156 0.94691 0.0
C3335 C 0.02969 0.54742 0.94959 0.0
C3336 C 0.99783 0.54721 0.92393 0.0
C3337 C 0.00755 0.53841 0.90318 0.0
C3338 C 0.02863 0.53469 0.90586 0.0
C3339 C 0.03956 0.53908 0.92888 0.0
H3340 H 0.33838 0.27204 0.59138 0.0
H3341 H 0.279 0.21171 0.57827 0.0
H3342 H 0.33327 0.28334 0.63421 0.0
H3343 H 0.27403 0.22303 0.62114 0.0
H3344 H 0.29903 0.22474 0.70088 0.0
H3345 H 0.29603 0.21844 0.65707 0.0
H3346 H 0.30908 0.29891 0.66595 0.0
H3347 H 0.31179 0.30515 0.71017 0.0
C3348 C 0.324 0.26146 0.59748 0.0
C3349 C 0.30923 0.24077 0.58124 0.0
C3350 C 0.32102 0.26806 0.62209 0.0
C3351 C 0.30333 0.25398 0.6312 0.0
C3352 C 0.28795 0.23413 0.61478 0.0
C3353 C 0.29077 0.22772 0.59012 0.0
C3354 C 0.30079 0.24106 0.69346 0.0
C3355 C 0.30544 0.26539 0.70895 0.0
C3356 C 0.29898 0.23745 0.66833 0.0
C3357 C 0.30234 0.25815 0.65791 0.0
C3358 C 0.30648 0.28257 0.67339 0.0
C3359 C 0.30789 0.28615 0.69868 0.0
H3360 H 0.59661 0.50251 0.19512 0.0
H3361 H 0.66332 0.52806 0.1808 0.0
H3362 H 0.58315 0.50993 0.15769 0.0
H3363 H 0.64988 0.53643 0.14319 0.0
H3364 H 0.62153 0.53512 0.06644 0.0
H3365 H 0.63552 0.5292 0.10444 0.0
H3366 H 0.57312 0.53086 0.13133 0.0
H3367 H 0.55896 0.53603 0.09241 0.0
C3368 C 0.60868 0.50981 0.18405 0.0
C3369 C 0.63139 0.51435 0.1918 0.0
C3370 C 0.60074 0.51442 0.16214 0.0
C3371 C 0.61492 0.52419 0.14627 0.0
C3372 C 0.63779 0.52865 0.15395 0.0
C3373 C 0.64577 0.5238 0.17596 0.0
C3374 C 0.61063 0.53439 0.08043 0.0
C3375 C 0.58884 0.53613 0.07556 0.0
C3376 C 0.61888 0.53102 0.10279 0.0
C3377 C 0.60591 0.52913 0.12212 0.0
C3378 C 0.5841 0.53157 0.11748 0.0
C3379 C 0.5758 0.53492 0.09487 0.0
H3380 H 0.31535 0.88755 0.97126 0.0
H3381 H 0.38036 0.91793 0.95413 0.0
H3382 H 0.30694 0.85749 0.93191 0.0
H3383 H 0.37156 0.88954 0.91377 0.0
H3384 H 0.35754 0.82331 0.8492 0.0
H3385 H 0.3663 0.84944 0.89065 0.0
H3386 H 0.29829 0.85216 0.89186 0.0
H3387 H 0.28968 0.82454 0.8514 0.0
C3388 C 0.32765 0.88806 0.95871 0.0
C3389 C 0.34841 0.90495 0.96548 0.0
C3390 C 0.32285 0.87094 0.93607 0.0
C3391 C 0.33849 0.87094 0.91935 0.0
C3392 C 0.35921 0.88838 0.92619 0.0
C3393 C 0.36423 0.90491 0.94919 0.0
C3394 C 0.34451 0.82909 0.85878 0.0
C3395 C 0.32289 0.82154 0.8476 0.0
C3396 C 0.3495 0.84439 0.88237 0.0
C3397 C 0.33306 0.85319 0.89484 0.0
C3398 C 0.31137 0.84536 0.88335 0.0
C3399 C 0.30633 0.82948 0.8601 0.0
H3400 H 0.91382 0.52873 0.69619 0.0
H3401 H 0.96276 0.55908 0.7583 0.0
H3402 H 0.93877 0.50779 0.67399 0.0
H3403 H 0.98808 0.53767 0.73586 0.0
H3404 H 0.03108 0.52713 0.66902 0.0
H3405 H 0.00781 0.54353 0.69833 0.0
H3406 H 0.95751 0.47359 0.67384 0.0
H3407 H 0.98045 0.45744 0.64439 0.0
C3408 C 0.92985 0.53052 0.70526 0.0
C3409 C 0.93633 0.54537 0.72901 0.0
C3410 C 0.94411 0.5184 0.69256 0.0
C3411 C 0.96536 0.52099 0.7032 0.0
C3412 C 0.97178 0.53538 0.72724 0.0
C3413 C 0.95727 0.54735 0.74015 0.0
C3414 C 0.01512 0.51524 0.67007 0.0
C3415 C 0.00754 0.49106 0.65428 0.0
C3416 C 1.00193 0.5245 0.68703 0.0
C3417 C 0.98083 0.50986 0.68831 0.0
C3418 C 0.97366 0.48535 0.67318 0.0
C3419 C 0.98685 0.47605 0.6564 0.0
H3420 H 0.35299 0.25785 0.45913 0.0
H3421 H 0.28205 0.23956 0.45019 0.0
H3422 H 0.3538 0.27036 0.42112 0.0
H3423 H 0.28319 0.25296 0.41206 0.0
H3424 H 0.31819 0.31706 0.36389 0.0
H3425 H 0.31609 0.30651 0.40316 0.0
H3426 H 0.32369 0.23249 0.37055 0.0
H3427 H 0.32523 0.2428 0.33096 0.0
C3428 C 0.33751 0.25697 0.44941 0.0
C3429 C 0.31738 0.24762 0.45795 0.0
C3430 C 0.33808 0.26403 0.4275 0.0
C3431 C 0.3186 0.26241 0.41364 0.0
C3432 C 0.29845 0.2542 0.42244 0.0
C3433 C 0.29782 0.24667 0.4443 0.0
C3434 C 0.31986 0.29871 0.36519 0.0
C3435 C 0.32237 0.28093 0.34446 0.0
C3436 C 0.31831 0.29259 0.38757 0.0
C3437 C 0.31955 0.26866 0.38977 0.0
C3438 C 0.32248 0.251 0.36921 0.0
C3439 C 0.32353 0.25694 0.34666 0.0
H3440 H 0.35171 0.61926 0.55309 0.0
H3441 H 0.30751 0.5462 0.5213 0.0
H3442 H 0.38285 0.60054 0.54914 0.0
H3443 H 0.33832 0.52775 0.51566 0.0
H3444 H 0.3965 0.49742 0.50468 0.0
H3445 H 0.36858 0.51468 0.52541 0.0
H3446 H 0.40015 0.58822 0.51545 0.0
H3447 H 0.42864 0.57104 0.49632 0.0
C3448 C 0.34867 0.59908 0.54579 0.0
C3449 C 0.32734 0.5842 0.53709 0.0
C3450 C 0.36649 0.58838 0.5432 0.0
C3451 C 0.36326 0.56277 0.53122 0.0
C3452 C 0.34163 0.54749 0.525 0.0
C3453 C 0.32383 0.55808 0.52821 0.0
C3454 C 0.39737 0.51728 0.50715 0.0
C3455 C 0.41441 0.53291 0.49878 0.0
C3456 C 0.38144 0.52722 0.519 0.0
C3457 C 0.38194 0.55289 0.52213 0.0
C3458 C 0.39936 0.56853 0.51398 0.0
C3459 C 0.41555 0.55867 0.50265 0.0
H3460 H 0.8764 0.95027 0.50566 0.0
H3461 H 0.89618 0.9312 0.57098 0.0
H3462 H 0.9142 0.97456 0.50554 0.0
H3463 H 0.93373 0.95617 0.57121 0.0
H3464 H 0.99159 0.02947 0.56932 0.0
H3465 H 0.95342 0.00772 0.57207 0.0
H3466 H 0.95164 0.9562 0.50292 0.0
H3467 H 0.98937 0.977 0.50026 0.0
C3468 C 0.88878 0.95138 0.52001 0.0
C3469 C 0.88347 0.93866 0.53816 0.0
C3470 C 0.91031 0.96532 0.52 0.0
C3471 C 0.92668 0.96733 0.53851 0.0
C3472 C 0.92129 0.95506 0.55692 0.0
C3473 C 0.89991 0.94059 0.55659 0.0
C3474 C 0.98305 0.01352 0.55474 0.0
C3475 C 0.99353 1.00528 0.53443 0.0
C3476 C 0.96129 1.0011 0.55635 0.0
C3477 C 0.94967 0.98058 0.5375 0.0
C3478 C 0.96019 0.97223 0.51746 0.0
C3479 C 0.98188 0.98423 0.51604 0.0
H3480 H 0.91226 0.14499 0.25328 0.0
H3481 H 0.87671 0.13455 0.3138 0.0
H3482 H 0.89376 0.17747 0.24829 0.0
H3483 H 0.85787 0.16631 0.30864 0.0
H3484 H 0.83337 0.23816 0.3058 0.0
H3485 H 0.85125 0.20504 0.31101 0.0
H3486 H 0.86746 0.19551 0.23769 0.0
H3487 H 0.85001 0.22843 0.23291 0.0
C3488 C 0.90034 0.1492 0.26547 0.0
C3489 C 0.89643 0.13621 0.28398 0.0
C3490 C 0.88937 0.16823 0.26259 0.0
C3491 C 0.87364 0.17564 0.27795 0.0
C3492 C 0.86972 0.16237 0.29629 0.0
C3493 C 0.88069 0.14351 0.29919 0.0
C3494 C 0.84058 0.22893 0.29067 0.0
C3495 C 0.83974 0.23663 0.26877 0.0
C3496 C 0.85109 0.2095 0.29362 0.0
C3497 C 0.86161 0.19662 0.27494 0.0
C3498 C 0.8604 0.20439 0.25308 0.0
C3499 C 0.84996 0.22361 0.25018 0.0
H3500 H 0.72401 0.07003 0.03732 0.0
H3501 H 0.71707 0.13365 0.01075 0.0
H3502 H 0.69349 0.07366 0.06123 0.0
H3503 H 0.68614 0.13681 0.03355 0.0
H3504 H 0.62 0.12598 0.05393 0.0
H3505 H 0.66015 0.1369 0.06241 0.0
H3506 H 0.65867 0.05791 0.03758 0.0
H3507 H 0.61941 0.04749 0.02954 0.0
C3508 C 0.71683 0.08578 0.03783 0.0
C3509 C 0.72248 0.10134 0.02203 0.0
C3510 C 0.69916 0.0877 0.05126 0.0
C3511 C 0.68666 0.10468 0.0483 0.0
C3512 C 0.6951 0.12324 0.03606 0.0
C3513 C 0.71293 0.12151 0.02293 0.0
C3514 C 0.62842 0.11106 0.05096 0.0
C3515 C 0.61663 0.0859 0.04124 0.0
C3516 C 0.65132 0.11724 0.0559 0.0
C3517 C 0.66276 0.09835 0.05074 0.0
C3518 C 0.65063 0.07304 0.04237 0.0
C3519 C 0.62793 0.06698 0.03745 0.0
H3520 H 0.24139 0.46329 0.21843 0.0
H3521 H 0.28082 0.54003 0.24218 0.0
H3522 H 0.2726 0.44837 0.23021 0.0
H3523 H 0.31205 0.52521 0.25388 0.0
H3524 H 0.35913 0.47971 0.2815 0.0
H3525 H 0.3389 0.49303 0.25089 0.0
H3526 H 0.2783 0.46516 0.27908 0.0
H3527 H 0.29842 0.4526 0.30963 0.0
C3528 C 0.25719 0.47679 0.22445 0.0
C3529 C 0.25881 0.50271 0.2302 0.0
C3530 C 0.27499 0.4683 0.23132 0.0
C3531 C 0.29426 0.48585 0.24376 0.0
C3532 C 0.29722 0.51144 0.24458 0.0
C3533 C 0.27938 0.51991 0.23786 0.0
C3534 C 0.34161 0.47747 0.28157 0.0
C3535 C 0.33025 0.46573 0.298 0.0
C3536 C 0.33007 0.48444 0.26383 0.0
C3537 C 0.3071 0.47901 0.26213 0.0
C3538 C 0.29599 0.46867 0.27956 0.0
C3539 C 0.30749 0.46219 0.29742 0.0
H3540 H 0.24269 0.42887 0.0754 0.0
H3541 H 0.26406 0.42071 1.00406 0.0
H3542 H 0.21488 0.44902 0.06337 0.0
H3543 H 0.23662 0.44116 0.99239 0.0
H3544 H 0.21228 0.51393 0.999 0.0
H3545 H 0.23549 0.48895 0.01072 0.0
H3546 H 0.17931 0.43936 0.02931 0.0
H3547 H 0.15544 0.46351 0.01613 0.0
C3548 C 0.24127 0.43102 0.05708 0.0
C3549 C 0.25574 0.42332 0.04075 0.0
C3550 C 0.22532 0.4425 0.05022 0.0
C3551 C 0.22378 0.44684 0.02704 0.0
C3552 C 0.2376 0.43822 0.01044 0.0
C3553 C 0.25326 0.42642 0.01713 0.0
C3554 C 0.2046 0.49748 0.00512 0.0
C3555 C 0.18174 0.49058 0.00603 0.0
C3556 C 0.21803 0.48326 0.01201 0.0
C3557 C 0.20915 0.46205 0.0206 0.0
C3558 C 0.18653 0.45562 0.02266 0.0
C3559 C 0.17291 0.46961 0.01525 0.0
H3560 H 0.86988 0.00851 0.30382 0.0
H3561 H 0.91778 0.98972 0.25672 0.0
H3562 H 0.85248 0.96402 0.29851 0.0
H3563 H 0.90005 0.94458 0.25112 0.0
H3564 H 0.87521 0.86466 0.26821 0.0
H3565 H 0.8932 0.90888 0.27009 0.0
H3566 H 0.83039 0.92651 0.27278 0.0
H3567 H 0.81284 0.88302 0.27144 0.0
C3568 C 0.87663 0.99493 0.29195 0.0
C3569 C 0.89536 1.00332 0.2806 0.0
C3570 C 0.86647 0.96904 0.28881 0.0
C3571 C 0.87455 0.94999 0.27429 0.0
C3572 C 0.8932 0.95829 0.26264 0.0
C3573 C 0.90331 0.9844 0.26561 0.0
C3574 C 0.86514 0.87789 0.26909 0.0
C3575 C 0.84218 0.86951 0.26945 0.0
C3576 C 0.87555 0.90349 0.27005 0.0
C3577 C 0.86353 0.92197 0.27174 0.0
C3578 C 0.8406 0.91343 0.27186 0.0
C3579 C 0.83027 0.88796 0.27074 0.0
H3580 H 0.73718 0.11629 0.7983 0.0
H3581 H 0.7501 0.09266 0.72418 0.0
H3582 H 0.75218 0.16047 0.79777 0.0
H3583 H 0.76562 0.1369 0.72401 0.0
H3584 H 0.81344 0.22542 0.76754 0.0
H3585 H 0.80173 0.17993 0.76403 0.0
H3586 H 0.734 0.18243 0.75639 0.0
H3587 H 0.74558 0.22761 0.7586 0.0
C3588 C 0.74364 0.12055 0.78213 0.0
C3589 C 0.74249 0.10125 0.76126 0.0
C3590 C 0.75209 0.14568 0.78182 0.0
C3591 C 0.75991 0.15167 0.76084 0.0
C3592 C 0.75962 0.13243 0.74031 0.0
C3593 C 0.75075 0.10732 0.74043 0.0
C3594 C 0.79609 0.21608 0.76426 0.0
C3595 C 0.78037 0.22981 0.76286 0.0
C3596 C 0.78946 0.19023 0.76251 0.0
C3597 C 0.76707 0.17811 0.76006 0.0
C3598 C 0.75136 0.19165 0.75826 0.0
C3599 C 0.75797 0.21734 0.75951 0.0
loop_
_geom_bond_atom_site_label_1
_geom_bond_atom_site_label_2
_geom_bond_distance
_geom_bond_site_symmetry_2
_ccdc_geom_bond_type
Mg0 O1 2.028 . S
Mg0 O7 1.986 . S
Mg0 O9 2.114 . S
Mg0 O10 2.251 . S
Mg0 O13 2.010 . S
O1 Mg0 2.028 . S
O1 C4 1.250 . S
O2 Mg3 2.028 . S
O2 C4 1.248 . S
Mg3 O2 2.028 . S
Mg3 O8 2.032 . S
Mg3 O10 2.079 . S
C4 O1 1.250 . S
C4 O2 1.248 . S
C5 O6 1.264 . S
C5 O13 1.249 . S
O6 C5 1.264 . S
O7 Mg0 1.986 . S
O7 C11 1.246 . S
O8 Mg3 2.032 . S
O8 C11 1.259 . S
O9 Mg0 2.114 . S
O9 C12 1.252 . S
O10 Mg0 2.251 . S
O10 Mg3 2.079 . S
O10 C12 1.273 . S
C11 O7 1.246 . S
C11 O8 1.259 . S
C12 O9 1.252 . S
C12 O10 1.273 . S
O13 Mg0 2.010 . S
O13 C5 1.249 . S
Mg14 O15 2.028 . S
Mg14 O21 1.986 . S
Mg14 O23 2.114 1_455 S
Mg14 O24 2.251 1_455 S
Mg14 O27 2.010 . S
O15 Mg14 2.028 . S
O15 C18 1.250 1_455 S
O16 Mg17 2.028 . S
O16 C18 1.248 . S
Mg17 O16 2.028 . S
Mg17 O22 2.032 . S
Mg17 O24 2.079 . S
C18 O15 1.250 1_655 S
C18 O16 1.248 . S
C19 O20 1.264 . S
C19 O27 1.249 . S
O20 C19 1.264 . S
O21 Mg14 1.986 . S
O21 C25 1.246 1_455 S
O22 Mg17 2.032 . S
O22 C25 1.259 . S
O23 Mg14 2.114 1_655 S
O23 C26 1.252 . S
O24 Mg14 2.251 1_655 S
O24 Mg17 2.079 . S
O24 C26 1.273 . S
C25 O21 1.246 1_655 S
C25 O22 1.259 . S
C26 O23 1.252 . S
C26 O24 1.273 . S
O27 Mg14 2.010 . S
O27 C19 1.249 . S
Mg28 O29 2.028 . S
Mg28 O35 1.986 . S
Mg28 O37 2.114 . S
Mg28 O38 2.251 . S
Mg28 O41 2.010 . S
O29 Mg28 2.028 . S
O29 C32 1.250 . S
O30 Mg31 2.028 . S
O30 C32 1.248 . S
Mg31 O30 2.028 . S
Mg31 O36 2.032 . S
Mg31 O38 2.079 . S
C32 O29 1.250 . S
C32 O30 1.248 . S
C33 O34 1.264 . S
C33 O41 1.249 . S
O34 C33 1.264 . S
O35 Mg28 1.986 . S
O35 C39 1.246 . S
O36 Mg31 2.032 . S
O36 C39 1.259 . S
O37 Mg28 2.114 . S
O37 C40 1.252 . S
O38 Mg28 2.251 . S
O38 Mg31 2.079 . S
O38 C40 1.273 . S
C39 O35 1.246 . S
C39 O36 1.259 . S
C40 O37 1.252 . S
C40 O38 1.273 . S
O41 Mg28 2.010 . S
O41 C33 1.249 . S
Mg42 O43 2.028 . S
Mg42 O49 1.986 . S
Mg42 O51 2.114 . S
Mg42 O52 2.251 . S
Mg42 O55 2.010 . S
O43 Mg42 2.028 . S
O43 C46 1.250 . S
O44 Mg45 2.028 . S
O44 C46 1.248 . S
Mg45 O44 2.028 . S
Mg45 O50 2.032 . S
Mg45 O52 2.079 . S
C46 O43 1.250 . S
C46 O44 1.248 . S
C47 O48 1.264 . S
C47 O55 1.249 . S
O48 C47 1.264 . S
O49 Mg42 1.986 . S
O49 C53 1.246 . S
O50 Mg45 2.032 . S
O50 C53 1.259 . S
O51 Mg42 2.114 . S
O51 C54 1.252 . S
O52 Mg42 2.251 . S
O52 Mg45 2.079 . S
O52 C54 1.273 . S
C53 O49 1.246 . S
C53 O50 1.259 . S
C54 O51 1.252 . S
C54 O52 1.273 . S
O55 Mg42 2.010 . S
O55 C47 1.249 . S
Mg56 O57 2.028 . S
Mg56 O63 1.986 . S
Mg56 O65 2.114 . S
Mg56 O66 2.251 . S
Mg56 O69 2.010 . S
O57 Mg56 2.028 . S
O57 C60 1.250 . S
O58 Mg59 2.028 . S
O58 C60 1.248 . S
Mg59 O58 2.028 . S
Mg59 O64 2.032 . S
Mg59 O66 2.079 . S
C60 O57 1.250 . S
C60 O58 1.248 . S
C61 O62 1.264 . S
C61 O69 1.249 . S
O62 C61 1.264 . S
O63 Mg56 1.986 . S
O63 C67 1.246 . S
O64 Mg59 2.032 . S
O64 C67 1.259 . S
O65 Mg56 2.114 . S
O65 C68 1.252 . S
O66 Mg56 2.251 . S
O66 Mg59 2.079 . S
O66 C68 1.273 . S
C67 O63 1.246 . S
C67 O64 1.259 . S
C68 O65 1.252 . S
C68 O66 1.273 . S
O69 Mg56 2.010 . S
O69 C61 1.249 . S
Mg70 O71 2.028 . S
Mg70 O77 1.986 . S
Mg70 O79 2.114 . S
Mg70 O80 2.251 . S
Mg70 O83 2.010 . S
O71 Mg70 2.028 . S
O71 C74 1.250 . S
O72 Mg73 2.028 . S
O72 C74 1.248 . S
Mg73 O72 2.028 . S
Mg73 O78 2.032 . S
Mg73 O80 2.079 . S
C74 O71 1.250 . S
C74 O72 1.248 . S
C75 O76 1.264 . S
C75 O83 1.249 . S
O76 C75 1.264 . S
O77 Mg70 1.986 . S
O77 C81 1.246 . S
O78 Mg73 2.032 . S
O78 C81 1.259 . S
O79 Mg70 2.114 . S
O79 C82 1.252 . S
O80 Mg70 2.251 . S
O80 Mg73 2.079 . S
O80 C82 1.273 . S
C81 O77 1.246 . S
C81 O78 1.259 . S
C82 O79 1.252 . S
C82 O80 1.273 . S
O83 Mg70 2.010 . S
O83 C75 1.249 . S
Mg84 O85 2.028 . S
Mg84 O91 1.986 . S
Mg84 O93 2.114 . S
Mg84 O94 2.251 . S
Mg84 O97 2.010 . S
O85 Mg84 2.028 . S
O85 C88 1.250 . S
O86 Mg87 2.028 . S
O86 C88 1.248 . S
Mg87 O86 2.028 . S
Mg87 O92 2.032 . S
Mg87 O94 2.079 . S
C88 O85 1.250 . S
C88 O86 1.248 . S
C89 O90 1.264 . S
C89 O97 1.249 . S
O90 C89 1.264 . S
O91 Mg84 1.986 . S
O91 C95 1.246 . S
O92 Mg87 2.032 . S
O92 C95 1.259 . S
O93 Mg84 2.114 . S
O93 C96 1.252 . S
O94 Mg84 2.251 . S
O94 Mg87 2.079 . S
O94 C96 1.273 . S
C95 O91 1.246 . S
C95 O92 1.259 . S
C96 O93 1.252 . S
C96 O94 1.273 . S
O97 Mg84 2.010 . S
O97 C89 1.249 . S
Mg98 O99 2.028 . S
Mg98 O105 1.986 . S
Mg98 O107 2.116 . S
Mg98 O108 2.251 1_455 S
Mg98 O111 2.010 . S
O99 Mg98 2.028 . S
O99 C102 1.250 . S
O100 Mg101 2.028 1_455 S
O100 C102 1.248 . S
Mg101 O100 2.028 1_655 S
Mg101 O106 2.032 . S
Mg101 O108 2.079 . S
C102 O99 1.250 . S
C102 O100 1.248 . S
C103 O104 1.264 . S
C103 O111 1.249 . S
O104 C103 1.264 . S
O105 Mg98 1.986 . S
O105 C109 1.246 . S
O106 Mg101 2.032 . S
O106 C109 1.259 1_655 S
O107 Mg98 2.116 . S
O107 C110 1.248 1_455 S
O108 Mg98 2.251 1_655 S
O108 Mg101 2.079 . S
O108 C110 1.273 . S
C109 O105 1.246 . S
C109 O106 1.259 1_455 S
C110 O107 1.248 1_655 S
C110 O108 1.273 . S
O111 Mg98 2.010 . S
O111 C103 1.249 . S
Mg112 O113 2.028 1_545 S
Mg112 O119 1.986 . S
Mg112 O121 2.114 . S
Mg112 O122 2.251 . S
Mg112 O125 2.010 . S
O113 Mg112 2.028 1_565 S
O113 C116 1.250 . S
O114 Mg115 2.028 1_565 S
O114 C116 1.248 . S
Mg115 O114 2.028 1_545 S
Mg115 O120 2.032 . S
Mg115 O122 2.079 . S
C116 O113 1.250 . S
C116 O114 1.248 . S
C117 O118 1.264 . S
C117 O125 1.249 . S
O118 C117 1.264 . S
O119 Mg112 1.986 . S
O119 C123 1.246 . S
O120 Mg115 2.032 . S
O120 C123 1.259 . S
O121 Mg112 2.114 . S
O121 C124 1.252 . S
O122 Mg112 2.251 . S
O122 Mg115 2.079 . S
O122 C124 1.273 . S
C123 O119 1.246 . S
C123 O120 1.259 . S
C124 O121 1.252 . S
C124 O122 1.273 . S
O125 Mg112 2.010 . S
O125 C117 1.249 . S
Mg126 O127 2.028 . S
Mg126 O133 1.986 . S
Mg126 O135 2.114 . S
Mg126 O136 2.251 . S
Mg126 O139 2.010 . S
O127 Mg126 2.028 . S
O127 C130 1.250 . S
O128 Mg129 2.028 . S
O128 C130 1.248 . S
Mg129 O128 2.028 . S
Mg129 O134 2.032 . S
Mg129 O136 2.079 . S
C130 O127 1.250 . S
C130 O128 1.248 . S
C131 O132 1.264 . S
C131 O139 1.249 . S
O132 C131 1.264 . S
O133 Mg126 1.986 . S
O133 C137 1.246 . S
O134 Mg129 2.032 . S
O134 C137 1.259 . S
O135 Mg126 2.114 . S
O135 C138 1.252 . S
O136 Mg126 2.251 . S
O136 Mg129 2.079 . S
O136 C138 1.273 . S
C137 O133 1.246 . S
C137 O134 1.259 . S
C138 O135 1.252 . S
C138 O136 1.273 . S
O139 Mg126 2.010 . S
O139 C131 1.249 . S
Mg140 O141 2.028 1_565 S
Mg140 O147 1.986 . S
Mg140 O149 2.114 1_565 S
Mg140 O150 2.251 . S
Mg140 O153 2.010 . S
O141 Mg140 2.028 1_545 S
O141 C144 1.250 . S
O142 Mg143 2.028 . S
O142 C144 1.248 . S
Mg143 O142 2.028 . S
Mg143 O148 2.032 1_545 S
Mg143 O150 2.079 1_545 S
C144 O141 1.250 . S
C144 O142 1.248 . S
C145 O146 1.264 . S
C145 O153 1.249 . S
O146 C145 1.264 . S
O147 Mg140 1.986 . S
O147 C151 1.246 . S
O148 Mg143 2.032 1_565 S
O148 C151 1.259 . S
O149 Mg140 2.114 1_545 S
O149 C152 1.252 . S
O150 Mg140 2.251 . S
O150 Mg143 2.079 1_565 S
O150 C152 1.273 1_565 S
C151 O147 1.246 . S
C151 O148 1.259 . S
C152 O149 1.252 . S
C152 O150 1.273 1_545 S
O153 Mg140 2.010 . S
O153 C145 1.249 . S
Mg154 O155 2.028 1_554 S
Mg154 O161 1.986 . S
Mg154 O163 2.114 . S
Mg154 O164 2.251 . S
Mg154 O167 2.010 . S
O155 Mg154 2.028 1_556 S
O155 C158 1.250 . S
O156 Mg157 2.028 1_556 S
O156 C158 1.248 . S
Mg157 O156 2.028 1_554 S
Mg157 O162 2.032 . S
Mg157 O164 2.079 . S
C158 O155 1.250 . S
C158 O156 1.248 . S
C159 O160 1.264 . S
C159 O167 1.249 . S
O160 C159 1.264 . S
O161 Mg154 1.986 . S
O161 C165 1.246 . S
O162 Mg157 2.032 . S
O162 C165 1.259 . S
O163 Mg154 2.114 . S
O163 C166 1.252 . S
O164 Mg154 2.251 . S
O164 Mg157 2.079 . S
O164 C166 1.273 . S
C165 O161 1.246 . S
C165 O162 1.259 . S
C166 O163 1.252 . S
C166 O164 1.273 . S
O167 Mg154 2.010 . S
O167 C159 1.249 . S
Mg168 O169 2.028 . S
Mg168 O175 1.986 . S
Mg168 O177 2.114 . S
Mg168 O178 2.251 . S
Mg168 O181 2.010 . S
O169 Mg168 2.028 . S
O169 C172 1.250 . S
O170 Mg171 2.028 . S
O170 C172 1.248 . S
Mg171 O170 2.028 . S
Mg171 O176 2.032 . S
Mg171 O178 2.079 . S
C172 O169 1.250 . S
C172 O170 1.248 . S
C173 O174 1.264 . S
C173 O181 1.249 . S
O174 C173 1.264 . S
O175 Mg168 1.986 . S
O175 C179 1.246 . S
O176 Mg171 2.032 . S
O176 C179 1.259 . S
O177 Mg168 2.114 . S
O177 C180 1.252 . S
O178 Mg168 2.251 . S
O178 Mg171 2.079 . S
O178 C180 1.273 . S
C179 O175 1.246 . S
C179 O176 1.259 . S
C180 O177 1.252 . S
C180 O178 1.273 . S
O181 Mg168 2.010 . S
O181 C173 1.249 . S
Mg182 O183 2.028 . S
Mg182 O189 1.986 1_554 S
Mg182 O191 2.114 . S
Mg182 O192 2.251 . S
Mg182 O195 2.010 . S
O183 Mg182 2.028 . S
O183 C186 1.250 . S
O184 Mg185 2.028 . S
O184 C186 1.248 . S
Mg185 O184 2.028 . S
Mg185 O190 2.032 . S
Mg185 O192 2.079 . S
C186 O183 1.250 . S
C186 O184 1.248 . S
C187 O188 1.264 1_554 S
C187 O195 1.249 . S
O188 C187 1.264 1_556 S
O189 Mg182 1.986 1_556 S
O189 C193 1.246 . S
O190 Mg185 2.032 . S
O190 C193 1.259 1_554 S
O191 Mg182 2.114 . S
O191 C194 1.252 . S
O192 Mg182 2.251 . S
O192 Mg185 2.079 . S
O192 C194 1.273 . S
C193 O189 1.246 . S
C193 O190 1.259 1_556 S
C194 O191 1.252 . S
C194 O192 1.273 . S
O195 Mg182 2.010 . S
O195 C187 1.249 . S
Mg196 O197 2.028 . S
Mg196 O203 1.986 . S
Mg196 O205 2.114 . S
Mg196 O206 2.251 . S
Mg196 O209 2.010 . S
O197 Mg196 2.028 . S
O197 C200 1.250 . S
O198 Mg199 2.028 . S
O198 C200 1.248 . S
Mg199 O198 2.028 . S
Mg199 O204 2.032 . S
Mg199 O206 2.079 . S
C200 O197 1.250 . S
C200 O198 1.248 . S
C201 O202 1.264 . S
C201 O209 1.249 . S
O202 C201 1.264 . S
O203 Mg196 1.986 . S
O203 C207 1.246 . S
O204 Mg199 2.032 . S
O204 C207 1.259 . S
O205 Mg196 2.114 . S
O205 C208 1.252 . S
O206 Mg196 2.251 . S
O206 Mg199 2.079 . S
O206 C208 1.273 . S
C207 O203 1.246 . S
C207 O204 1.259 . S
C208 O205 1.252 . S
C208 O206 1.273 . S
O209 Mg196 2.010 . S
O209 C201 1.249 . S
Mg210 O211 2.028 . S
Mg210 O217 1.986 . S
Mg210 O219 2.114 . S
Mg210 O220 2.251 . S
Mg210 O223 2.010 . S
O211 Mg210 2.028 . S
O211 C214 1.250 . S
O212 Mg213 2.028 . S
O212 C214 1.248 . S
Mg213 O212 2.028 . S
Mg213 O218 2.032 . S
Mg213 O220 2.079 . S
C214 O211 1.250 . S
C214 O212 1.248 . S
C215 O216 1.264 . S
C215 O223 1.249 . S
O216 C215 1.264 . S
O217 Mg210 1.986 . S
O217 C221 1.246 . S
O218 Mg213 2.032 . S
O218 C221 1.259 . S
O219 Mg210 2.114 . S
O219 C222 1.252 . S
O220 Mg210 2.251 . S
O220 Mg213 2.079 . S
O220 C222 1.273 . S
C221 O217 1.246 . S
C221 O218 1.259 . S
C222 O219 1.252 . S
C222 O220 1.273 . S
O223 Mg210 2.010 . S
O223 C215 1.249 . S
Mg224 O225 2.028 . S
Mg224 O231 1.986 . S
Mg224 O233 2.114 . S
Mg224 O234 2.251 . S
Mg224 O237 2.010 . S
O225 Mg224 2.028 . S
O225 C228 1.250 . S
O226 Mg227 2.028 . S
O226 C228 1.248 . S
Mg227 O226 2.028 . S
Mg227 O232 2.032 . S
Mg227 O234 2.079 . S
C228 O225 1.250 . S
C228 O226 1.248 . S
C229 O230 1.264 . S
C229 O237 1.249 . S
O230 C229 1.264 . S
O231 Mg224 1.986 . S
O231 C235 1.246 . S
O232 Mg227 2.032 . S
O232 C235 1.259 . S
O233 Mg224 2.114 . S
O233 C236 1.252 . S
O234 Mg224 2.251 . S
O234 Mg227 2.079 . S
O234 C236 1.273 . S
C235 O231 1.246 . S
C235 O232 1.259 . S
C236 O233 1.252 . S
C236 O234 1.273 . S
O237 Mg224 2.010 . S
O237 C229 1.249 . S
Mg238 O239 2.028 . S
Mg238 O245 1.986 . S
Mg238 O247 2.114 . S
Mg238 O248 2.251 . S
Mg238 O251 2.010 . S
O239 Mg238 2.028 . S
O239 C242 1.250 . S
O240 Mg241 2.028 . S
O240 C242 1.248 . S
Mg241 O240 2.028 . S
Mg241 O246 2.032 . S
Mg241 O248 2.079 . S
C242 O239 1.250 . S
C242 O240 1.248 . S
C243 O244 1.264 . S
C243 O251 1.249 . S
O244 C243 1.264 . S
O245 Mg238 1.986 . S
O245 C249 1.246 . S
O246 Mg241 2.032 . S
O246 C249 1.259 . S
O247 Mg238 2.114 . S
O247 C250 1.252 . S
O248 Mg238 2.251 . S
O248 Mg241 2.079 . S
O248 C250 1.273 . S
C249 O245 1.246 . S
C249 O246 1.259 . S
C250 O247 1.252 . S
C250 O248 1.273 . S
O251 Mg238 2.010 . S
O251 C243 1.249 . S
Mg252 O253 2.028 . S
Mg252 O259 1.986 . S
Mg252 O261 2.114 . S
Mg252 O262 2.251 . S
Mg252 O265 2.010 . S
O253 Mg252 2.028 . S
O253 C256 1.250 . S
O254 Mg255 2.028 . S
O254 C256 1.248 . S
Mg255 O254 2.028 . S
Mg255 O260 2.032 . S
Mg255 O262 2.079 . S
C256 O253 1.250 . S
C256 O254 1.248 . S
C257 O258 1.264 . S
C257 O265 1.249 . S
O258 C257 1.264 . S
O259 Mg252 1.986 . S
O259 C263 1.246 . S
O260 Mg255 2.032 . S
O260 C263 1.259 . S
O261 Mg252 2.114 . S
O261 C264 1.252 . S
O262 Mg252 2.251 . S
O262 Mg255 2.079 . S
O262 C264 1.273 . S
C263 O259 1.246 . S
C263 O260 1.259 . S
C264 O261 1.252 . S
C264 O262 1.273 . S
O265 Mg252 2.010 . S
O265 C257 1.249 . S
Mg266 O267 2.028 . S
Mg266 O273 1.986 . S
Mg266 O275 2.114 . S
Mg266 O276 2.251 . S
Mg266 O279 2.010 . S
O267 Mg266 2.028 . S
O267 C270 1.250 . S
O268 Mg269 2.028 . S
O268 C270 1.248 . S
Mg269 O268 2.028 . S
Mg269 O274 2.032 . S
Mg269 O276 2.079 . S
C270 O267 1.250 . S
C270 O268 1.248 . S
C271 O272 1.264 . S
C271 O279 1.249 . S
O272 C271 1.264 . S
O273 Mg266 1.986 . S
O273 C277 1.246 . S
O274 Mg269 2.032 . S
O274 C277 1.259 . S
O275 Mg266 2.114 . S
O275 C278 1.252 . S
O276 Mg266 2.251 . S
O276 Mg269 2.079 . S
O276 C278 1.273 . S
C277 O273 1.246 . S
C277 O274 1.259 . S
C278 O275 1.252 . S
C278 O276 1.273 . S
O279 Mg266 2.010 . S
O279 C271 1.249 . S
Mg280 O281 2.028 1_556 S
Mg280 O287 1.986 . S
Mg280 O289 2.114 1_556 S
Mg280 O290 2.251 . S
Mg280 O293 2.010 . S
O281 Mg280 2.028 1_554 S
O281 C284 1.250 . S
O282 Mg283 2.028 . S
O282 C284 1.248 . S
Mg283 O282 2.028 . S
Mg283 O288 2.032 1_554 S
Mg283 O290 2.079 1_554 S
C284 O281 1.250 . S
C284 O282 1.248 . S
C285 O286 1.264 . S
C285 O293 1.249 . S
O286 C285 1.264 . S
O287 Mg280 1.986 . S
O287 C291 1.246 . S
O288 Mg283 2.032 1_556 S
O288 C291 1.259 . S
O289 Mg280 2.114 1_554 S
O289 C292 1.241 1_554 S
O290 Mg280 2.251 . S
O290 Mg283 2.079 1_556 S
O290 C292 1.289 . S
C291 O287 1.246 . S
C291 O288 1.259 . S
C292 O289 1.241 1_556 S
C292 O290 1.289 . S
O293 Mg280 2.010 . S
O293 C285 1.249 . S
Mg294 O295 2.028 . S
Mg294 O301 1.986 . S
Mg294 O303 2.114 . S
Mg294 O304 2.251 . S
Mg294 O307 2.010 . S
O295 Mg294 2.028 . S
O295 C298 1.250 . S
O296 Mg297 2.028 . S
O296 C298 1.248 . S
Mg297 O296 2.028 . S
Mg297 O302 2.032 . S
Mg297 O304 2.079 . S
C298 O295 1.250 . S
C298 O296 1.248 . S
C299 O300 1.264 . S
C299 O307 1.249 . S
O300 C299 1.264 . S
O301 Mg294 1.986 . S
O301 C305 1.246 . S
O302 Mg297 2.032 . S
O302 C305 1.259 . S
O303 Mg294 2.114 . S
O303 C306 1.252 . S
O304 Mg294 2.251 . S
O304 Mg297 2.079 . S
O304 C306 1.273 . S
C305 O301 1.246 . S
C305 O302 1.259 . S
C306 O303 1.252 . S
C306 O304 1.273 . S
O307 Mg294 2.010 . S
O307 C299 1.249 . S
Mg308 O309 2.028 . S
Mg308 O315 1.986 . S
Mg308 O317 2.114 . S
Mg308 O318 2.251 . S
Mg308 O321 2.010 . S
O309 Mg308 2.028 . S
O309 C312 1.250 . S
O310 Mg311 2.028 . S
O310 C312 1.248 . S
Mg311 O310 2.028 . S
Mg311 O316 2.032 . S
Mg311 O318 2.079 . S
C312 O309 1.250 . S
C312 O310 1.248 . S
C313 O314 1.264 . S
C313 O321 1.249 . S
O314 C313 1.264 . S
O315 Mg308 1.986 . S
O315 C319 1.246 . S
O316 Mg311 2.032 . S
O316 C319 1.259 . S
O317 Mg308 2.114 . S
O317 C320 1.252 . S
O318 Mg308 2.251 . S
O318 Mg311 2.079 . S
O318 C320 1.273 . S
C319 O315 1.246 . S
C319 O316 1.259 . S
C320 O317 1.252 . S
C320 O318 1.273 . S
O321 Mg308 2.010 . S
O321 C313 1.249 . S
Mg322 O323 2.028 . S
Mg322 O329 1.986 . S
Mg322 O331 2.114 . S
Mg322 O332 2.251 . S
Mg322 O335 2.010 . S
O323 Mg322 2.028 . S
O323 C326 1.250 . S
O324 Mg325 2.028 . S
O324 C326 1.248 . S
Mg325 O324 2.028 . S
Mg325 O330 2.032 . S
Mg325 O332 2.079 . S
C326 O323 1.250 . S
C326 O324 1.248 . S
C327 O328 1.264 . S
C327 O335 1.249 . S
O328 C327 1.264 . S
O329 Mg322 1.986 . S
O329 C333 1.246 . S
O330 Mg325 2.032 . S
O330 C333 1.259 . S
O331 Mg322 2.114 . S
O331 C334 1.252 . S
O332 Mg322 2.251 . S
O332 Mg325 2.079 . S
O332 C334 1.273 . S
C333 O329 1.246 . S
C333 O330 1.259 . S
C334 O331 1.252 . S
C334 O332 1.273 . S
O335 Mg322 2.010 . S
O335 C327 1.249 . S
Eu336 N367 2.657 1_546 S
Eu336 N374 2.609 1_545 S
Eu336 O380 2.558 1_455 S
Eu336 O381 2.612 1_556 S
Eu336 O383 2.339 1_556 S
Eu336 O384 2.563 . S
Eu336 O385 2.419 1_456 S
Eu336 O387 2.380 1_556 S
Eu336 O388 2.432 . S
Eu336 C400 2.848 1_455 S
C337 C340 1.429 . S
C337 C341 1.411 . S
C337 N344 1.377 . S
C338 C340 1.420 . S
C338 C342 1.423 . S
C338 C350 1.392 1_554 S
C339 C341 1.420 . S
C339 C342 1.351 . S
C339 H362 0.931 . S
C340 C337 1.429 . S
C340 C338 1.420 . S
C340 N348 1.362 . S
C341 C337 1.411 . S
C341 C339 1.420 . S
C341 C346 1.395 . S
C342 C338 1.423 . S
C342 C339 1.351 . S
C342 H354 0.930 . S
C343 C345 1.400 . S
C343 C346 1.386 . S
C343 H355 0.930 . S
N344 C337 1.377 . S
N344 C345 1.321 . S
N344 Eu347 2.609 . S
C345 C343 1.400 . S
C345 N344 1.321 . S
C345 H352 0.930 . S
C346 C341 1.395 . S
C346 C343 1.386 . S
C346 H365 0.930 . S
Eu347 N344 2.609 . S
Eu347 N348 2.657 . S
Eu347 O381 2.380 . S
Eu347 O382 2.432 . S
Eu347 O386 2.558 . S
Eu347 O387 2.612 . S
Eu347 O389 2.339 1_554 S
Eu347 O390 2.563 . S
Eu347 O391 2.419 . S
Eu347 C411 2.848 . S
N348 C340 1.362 . S
N348 Eu347 2.657 . S
N348 C349 1.334 1_554 S
C349 N348 1.334 1_556 S
C349 C351 1.413 . S
C349 H356 0.929 . S
C350 C338 1.392 1_556 S
C350 C351 1.367 . S
C350 H358 0.930 . S
C351 C349 1.413 . S
C351 C350 1.367 . S
C351 H353 0.930 . S
H352 C345 0.930 . S
H353 C351 0.930 . S
H354 C342 0.930 . S
H355 C343 0.930 . S
H356 C349 0.929 . S
H357 C371 0.931 . S
H358 C350 0.930 . S
H359 C377 0.930 . S
H360 C368 0.929 . S
H361 C375 0.930 . S
H362 C339 0.931 . S
H363 C369 0.930 . S
H364 C402 0.930 . S
H365 C346 0.930 . S
H366 C401 0.931 . S
N367 Eu336 2.657 1_564 S
N367 C368 1.334 . S
N367 C372 1.368 1_455 S
C368 H360 0.929 . S
C368 N367 1.334 . S
C368 C371 1.413 1_455 S
C369 H363 0.930 . S
C369 C370 1.392 . S
C369 C371 1.367 . S
C370 C369 1.392 . S
C370 C372 1.428 . S
C370 C402 1.423 1_554 S
C371 H357 0.931 . S
C371 C368 1.413 1_655 S
C371 C369 1.367 . S
C372 N367 1.368 1_655 S
C372 C370 1.428 . S
C372 C376 1.413 1_554 S
H373 C378 0.930 . S
N374 Eu336 2.609 1_565 S
N374 C376 1.377 1_455 S
N374 C377 1.321 . S
C375 H361 0.930 . S
C375 C377 1.400 1_655 S
C375 C378 1.386 . S
C376 C372 1.413 1_556 S
C376 N374 1.377 1_655 S
C376 C379 1.411 . S
C377 H359 0.930 . S
C377 N374 1.321 . S
C377 C375 1.400 1_455 S
C378 H373 0.930 . S
C378 C375 1.386 . S
C378 C379 1.395 . S
C379 C376 1.411 . S
C379 C378 1.395 . S
C379 C401 1.420 . S
O380 Eu336 2.558 1_655 S
O380 C400 1.257 . S
O381 Eu336 2.612 1_554 S
O381 Eu347 2.380 . S
O381 C392 1.276 . S
O382 Eu347 2.432 . S
O382 C399 1.264 . S
O383 Eu336 2.339 1_554 S
O383 C399 1.254 . S
O384 Eu336 2.563 . S
O384 C392 1.235 1_556 S
O385 Eu336 2.419 1_654 S
O385 C400 1.249 1_554 S
O386 Eu347 2.558 . S
O386 C411 1.257 . S
O387 Eu336 2.380 1_554 S
O387 Eu347 2.612 . S
O387 C403 1.276 1_545 S
O388 Eu336 2.432 . S
O388 C410 1.264 . S
O389 Eu347 2.339 1_556 S
O389 C410 1.254 . S
O390 Eu347 2.563 . S
O390 C403 1.235 1_545 S
O391 Eu347 2.419 . S
O391 C411 1.249 . S
C392 O381 1.276 . S
C392 O384 1.235 1_554 S
C393 C395 1.393 . S
C393 C397 1.395 . S
C393 C400 1.492 . S
C394 C395 1.392 . S
C394 C396 1.386 . S
C395 C393 1.393 . S
C395 C394 1.392 . S
C395 H412 0.930 1_556 S
C396 C394 1.386 . S
C396 C398 1.395 . S
C396 H413 0.930 . S
C397 C393 1.395 . S
C397 C398 1.379 . S
C397 H414 0.930 . S
C398 C396 1.395 . S
C398 C397 1.379 . S
C398 H415 0.930 . S
C399 O382 1.264 . S
C399 O383 1.254 . S
C400 Eu336 2.848 1_655 S
C400 O380 1.257 . S
C400 O385 1.249 1_556 S
C400 C393 1.492 . S
C401 H366 0.931 . S
C401 C379 1.420 . S
C401 C402 1.351 . S
C402 H364 0.930 . S
C402 C370 1.423 1_556 S
C402 C401 1.351 . S
C403 O387 1.276 1_565 S
C403 O390 1.235 1_565 S
C404 C405 1.393 . S
C404 C408 1.395 . S
C404 C411 1.492 . S
C405 C404 1.393 . S
C405 C406 1.392 . S
C405 H416 0.930 . S
C406 C405 1.392 . S
C406 C407 1.386 . S
C407 C406 1.386 . S
C407 C409 1.395 . S
C407 H417 0.930 . S
C408 C404 1.395 . S
C408 C409 1.379 . S
C408 H418 0.930 . S
C409 C407 1.395 . S
C409 C408 1.379 . S
C409 H419 0.930 . S
C410 O388 1.264 . S
C410 O389 1.254 . S
C411 Eu347 2.848 . S
C411 O386 1.257 . S
C411 O391 1.249 . S
C411 C404 1.492 . S
H412 C395 0.930 1_554 S
H413 C396 0.930 . S
H414 C397 0.930 . S
H415 C398 0.930 . S
H416 C405 0.930 . S
H417 C407 0.930 . S
H418 C408 0.930 . S
H419 C409 0.930 . S
Eu420 N451 2.657 . S
Eu420 N458 2.609 . S
Eu420 O464 2.558 . S
Eu420 O465 2.612 . S
Eu420 O467 2.339 . S
Eu420 O468 2.563 . S
Eu420 O469 2.419 . S
Eu420 O471 2.380 . S
Eu420 O472 2.432 . S
Eu420 C484 2.848 . S
C421 C424 1.429 . S
C421 C425 1.411 . S
C421 N428 1.377 . S
C422 C424 1.420 . S
C422 C426 1.423 . S
C422 C434 1.392 . S
C423 C425 1.420 . S
C423 C426 1.351 . S
C423 H446 0.931 . S
C424 C421 1.429 . S
C424 C422 1.420 . S
C424 N432 1.362 . S
C425 C421 1.411 . S
C425 C423 1.420 . S
C425 C430 1.395 . S
C426 C422 1.423 . S
C426 C423 1.351 . S
C426 H438 0.930 . S
C427 C429 1.400 . S
C427 C430 1.386 . S
C427 H439 0.930 . S
N428 C421 1.377 . S
N428 C429 1.321 . S
N428 Eu431 2.609 . S
C429 C427 1.400 . S
C429 N428 1.321 . S
C429 H436 0.930 . S
C430 C425 1.395 . S
C430 C427 1.386 . S
C430 H449 0.930 . S
Eu431 N428 2.609 . S
Eu431 N432 2.657 . S
Eu431 O465 2.380 . S
Eu431 O466 2.432 . S
Eu431 O470 2.558 . S
Eu431 O471 2.612 . S
Eu431 O473 2.339 . S
Eu431 O474 2.563 . S
Eu431 O475 2.419 . S
Eu431 C495 2.848 . S
N432 C424 1.362 . S
N432 Eu431 2.657 . S
N432 C433 1.334 . S
C433 N432 1.334 . S
C433 C435 1.413 . S
C433 H440 0.929 . S
C434 C422 1.392 . S
C434 C435 1.367 . S
C434 H442 0.930 . S
C435 C433 1.413 . S
C435 C434 1.367 . S
C435 H437 0.930 . S
H436 C429 0.930 . S
H437 C435 0.930 . S
H438 C426 0.930 . S
H439 C427 0.930 . S
H440 C433 0.929 . S
H441 C455 0.930 . S
H442 C434 0.930 . S
H443 C461 0.930 . S
H444 C452 0.929 . S
H445 C459 0.930 . S
H446 C423 0.931 . S
H447 C453 0.930 . S
H448 C486 0.930 . S
H449 C430 0.930 . S
H450 C485 0.931 . S
N451 Eu420 2.657 . S
N451 C452 1.334 . S
N451 C456 1.362 . S
C452 H444 0.929 . S
C452 N451 1.334 . S
C452 C455 1.413 . S
C453 H447 0.930 . S
C453 C454 1.392 . S
C453 C455 1.367 . S
C454 C453 1.392 . S
C454 C456 1.420 . S
C454 C486 1.423 . S
C455 H441 0.930 . S
C455 C452 1.413 . S
C455 C453 1.367 . S
C456 N451 1.362 . S
C456 C454 1.420 . S
C456 C460 1.429 . S
H457 C462 0.930 . S
N458 Eu420 2.609 . S
N458 C460 1.377 . S
N458 C461 1.321 . S
C459 H445 0.930 . S
C459 C461 1.400 . S
C459 C462 1.386 . S
C460 C456 1.429 . S
C460 N458 1.377 . S
C460 C463 1.411 . S
C461 H443 0.930 . S
C461 N458 1.321 . S
C461 C459 1.400 . S
C462 H457 0.930 . S
C462 C459 1.386 . S
C462 C463 1.395 . S
C463 C460 1.411 . S
C463 C462 1.395 . S
C463 C485 1.420 . S
O464 Eu420 2.558 . S
O464 C484 1.257 . S
O465 Eu420 2.612 . S
O465 Eu431 2.380 . S
O465 C476 1.276 . S
O466 Eu431 2.432 . S
O466 C483 1.264 . S
O467 Eu420 2.339 . S
O467 C483 1.254 . S
O468 Eu420 2.563 . S
O468 C476 1.235 . S
O469 Eu420 2.419 . S
O469 C484 1.249 . S
O470 Eu431 2.558 . S
O470 C495 1.257 . S
O471 Eu420 2.380 . S
O471 Eu431 2.612 . S
O471 C487 1.276 . S
O472 Eu420 2.432 . S
O472 C494 1.264 . S
O473 Eu431 2.339 . S
O473 C494 1.254 . S
O474 Eu431 2.563 . S
O474 C487 1.235 . S
O475 Eu431 2.419 . S
O475 C495 1.249 . S
C476 O465 1.276 . S
C476 O468 1.235 . S
C477 C479 1.393 . S
C477 C481 1.395 . S
C477 C484 1.492 . S
C478 C479 1.392 . S
C478 C480 1.386 . S
C479 C477 1.393 . S
C479 C478 1.392 . S
C479 H496 0.930 . S
C480 C478 1.386 . S
C480 C482 1.395 . S
C480 H497 0.930 . S
C481 C477 1.395 . S
C481 C482 1.379 . S
C481 H498 0.930 . S
C482 C480 1.395 . S
C482 C481 1.379 . S
C482 H499 0.930 . S
C483 O466 1.264 . S
C483 O467 1.254 . S
C484 Eu420 2.848 . S
C484 O464 1.257 . S
C484 O469 1.249 . S
C484 C477 1.492 . S
C485 H450 0.931 . S
C485 C463 1.420 . S
C485 C486 1.351 . S
C486 H448 0.930 . S
C486 C454 1.423 . S
C486 C485 1.351 . S
C487 O471 1.276 . S
C487 O474 1.235 . S
C488 C489 1.393 . S
C488 C492 1.395 . S
C488 C495 1.492 . S
C489 C488 1.393 . S
C489 C490 1.392 . S
C489 H500 0.930 . S
C490 C489 1.392 . S
C490 C491 1.386 . S
C491 C490 1.386 . S
C491 C493 1.395 . S
C491 H501 0.930 . S
C492 C488 1.395 . S
C492 C493 1.379 . S
C492 H502 0.930 . S
C493 C491 1.395 . S
C493 C492 1.379 . S
C493 H503 0.930 . S
C494 O472 1.264 . S
C494 O473 1.254 . S
C495 Eu431 2.848 . S
C495 O470 1.257 . S
C495 O475 1.249 . S
C495 C488 1.492 . S
H496 C479 0.930 . S
H497 C480 0.930 . S
H498 C481 0.930 . S
H499 C482 0.930 . S
H500 C489 0.930 . S
H501 C491 0.930 . S
H502 C492 0.930 . S
H503 C493 0.930 . S
Eu504 N535 2.657 . S
Eu504 N542 2.609 . S
Eu504 O548 2.558 . S
Eu504 O549 2.612 . S
Eu504 O551 2.339 . S
Eu504 O552 2.563 1_545 S
Eu504 O553 2.419 . S
Eu504 O555 2.380 . S
Eu504 O556 2.432 . S
Eu504 C568 2.848 . S
C505 C508 1.429 . S
C505 C509 1.411 . S
C505 N512 1.377 1_565 S
C506 C508 1.420 . S
C506 C510 1.423 . S
C506 C518 1.392 . S
C507 C509 1.420 . S
C507 C510 1.351 . S
C507 H530 0.931 . S
C508 C505 1.429 . S
C508 C506 1.420 . S
C508 N516 1.362 . S
C509 C505 1.411 . S
C509 C507 1.420 . S
C509 C514 1.395 . S
C510 C506 1.423 . S
C510 C507 1.351 . S
C510 H522 0.930 . S
C511 C513 1.400 . S
C511 C514 1.386 1_545 S
C511 H523 0.930 . S
N512 C505 1.377 1_545 S
N512 C513 1.321 . S
N512 Eu515 2.609 . S
C513 C511 1.400 . S
C513 N512 1.321 . S
C513 H520 0.930 . S
C514 C509 1.395 . S
C514 C511 1.386 1_565 S
C514 H533 0.930 . S
Eu515 N512 2.609 . S
Eu515 N516 2.657 1_545 S
Eu515 O549 2.380 . S
Eu515 O550 2.432 . S
Eu515 O554 2.558 . S
Eu515 O555 2.612 . S
Eu515 O557 2.339 . S
Eu515 O558 2.563 . S
Eu515 O559 2.419 . S
Eu515 C579 2.848 . S
N516 C508 1.362 . S
N516 Eu515 2.657 1_565 S
N516 C517 1.334 . S
C517 N516 1.334 . S
C517 C519 1.413 . S
C517 H524 0.929 . S
C518 C506 1.392 . S
C518 C519 1.367 . S
C518 H526 0.930 . S
C519 C517 1.413 . S
C519 C518 1.367 . S
C519 H521 0.930 . S
H520 C513 0.930 . S
H521 C519 0.930 . S
H522 C510 0.930 . S
H523 C511 0.930 . S
H524 C517 0.929 . S
H525 C539 0.930 . S
H526 C518 0.930 . S
H527 C545 0.930 . S
H528 C536 0.929 . S
H529 C543 0.930 . S
H530 C507 0.931 . S
H531 C537 0.930 . S
H532 C570 0.930 . S
H533 C514 0.930 . S
H534 C569 0.931 . S
N535 Eu504 2.657 . S
N535 C536 1.334 . S
N535 C540 1.362 . S
C536 H528 0.929 . S
C536 N535 1.334 . S
C536 C539 1.413 . S
C537 H531 0.930 . S
C537 C538 1.392 . S
C537 C539 1.367 . S
C538 C537 1.392 . S
C538 C540 1.420 . S
C538 C570 1.423 . S
C539 H525 0.930 . S
C539 C536 1.413 . S
C539 C537 1.367 . S
C540 N535 1.362 . S
C540 C538 1.420 . S
C540 C544 1.429 . S
H541 C546 0.930 . S
N542 Eu504 2.609 . S
N542 C544 1.377 . S
N542 C545 1.321 . S
C543 H529 0.930 . S
C543 C545 1.400 . S
C543 C546 1.386 . S
C544 C540 1.429 . S
C544 N542 1.377 . S
C544 C547 1.411 . S
C545 H527 0.930 . S
C545 N542 1.321 . S
C545 C543 1.400 . S
C546 H541 0.930 . S
C546 C543 1.386 . S
C546 C547 1.395 . S
C547 C544 1.411 . S
C547 C546 1.395 . S
C547 C569 1.420 . S
O548 Eu504 2.558 . S
O548 C568 1.257 . S
O549 Eu504 2.612 . S
O549 Eu515 2.380 . S
O549 C560 1.276 1_545 S
O550 Eu515 2.432 . S
O550 C567 1.264 . S
O551 Eu504 2.339 . S
O551 C567 1.254 . S
O552 Eu504 2.563 1_565 S
O552 C560 1.235 . S
O553 Eu504 2.419 . S
O553 C568 1.249 . S
O554 Eu515 2.558 . S
O554 C579 1.257 . S
O555 Eu504 2.380 . S
O555 Eu515 2.612 . S
O555 C571 1.276 . S
O556 Eu504 2.432 . S
O556 C578 1.264 . S
O557 Eu515 2.339 . S
O557 C578 1.254 . S
O558 Eu515 2.563 . S
O558 C571 1.235 . S
O559 Eu515 2.419 . S
O559 C579 1.249 . S
C560 O549 1.276 1_565 S
C560 O552 1.235 . S
C561 C563 1.393 1_545 S
C561 C565 1.395 . S
C561 C568 1.492 . S
C562 C563 1.392 . S
C562 C564 1.386 . S
C563 C561 1.393 1_565 S
C563 C562 1.392 . S
C563 H580 0.930 . S
C564 C562 1.386 . S
C564 C566 1.395 . S
C564 H581 0.930 . S
C565 C561 1.395 . S
C565 C566 1.379 1_545 S
C565 H582 0.930 . S
C566 C564 1.395 . S
C566 C565 1.379 1_565 S
C566 H583 0.930 . S
C567 O550 1.264 . S
C567 O551 1.254 . S
C568 Eu504 2.848 . S
C568 O548 1.257 . S
C568 O553 1.249 . S
C568 C561 1.492 . S
C569 H534 0.931 . S
C569 C547 1.420 . S
C569 C570 1.351 . S
C570 H532 0.930 . S
C570 C538 1.423 . S
C570 C569 1.351 . S
C571 O555 1.276 . S
C571 O558 1.235 . S
C572 C573 1.393 . S
C572 C576 1.395 . S
C572 C579 1.492 . S
C573 C572 1.393 . S
C573 C574 1.392 . S
C573 H584 0.930 . S
C574 C573 1.392 . S
C574 C575 1.386 . S
C575 C574 1.386 . S
C575 C577 1.395 . S
C575 H585 0.930 . S
C576 C572 1.395 . S
C576 C577 1.379 . S
C576 H586 0.930 . S
C577 C575 1.395 . S
C577 C576 1.379 . S
C577 H587 0.930 . S
C578 O556 1.264 . S
C578 O557 1.254 . S
C579 Eu515 2.848 . S
C579 O554 1.257 . S
C579 O559 1.249 . S
C579 C572 1.492 . S
H580 C563 0.930 . S
H581 C564 0.930 . S
H582 C565 0.930 . S
H583 C566 0.930 . S
H584 C573 0.930 . S
H585 C575 0.930 . S
H586 C576 0.930 . S
H587 C577 0.930 . S
Eu588 N619 2.657 . S
Eu588 N626 2.609 . S
Eu588 O632 2.558 . S
Eu588 O633 2.612 . S
Eu588 O635 2.339 . S
Eu588 O636 2.563 . S
Eu588 O637 2.419 . S
Eu588 O639 2.380 . S
Eu588 O640 2.432 . S
Eu588 C652 2.848 . S
C589 C592 1.429 . S
C589 C593 1.411 . S
C589 N596 1.377 . S
C590 C592 1.420 . S
C590 C594 1.423 . S
C590 C602 1.392 . S
C591 C593 1.420 . S
C591 C594 1.351 . S
C591 H614 0.931 . S
C592 C589 1.429 . S
C592 C590 1.420 . S
C592 N600 1.362 . S
C593 C589 1.411 . S
C593 C591 1.420 . S
C593 C598 1.395 . S
C594 C590 1.423 . S
C594 C591 1.351 . S
C594 H606 0.930 . S
C595 C597 1.400 . S
C595 C598 1.386 . S
C595 H607 0.930 . S
N596 C589 1.377 . S
N596 C597 1.321 . S
N596 Eu599 2.609 . S
C597 C595 1.400 . S
C597 N596 1.321 . S
C597 H604 0.930 . S
C598 C593 1.395 . S
C598 C595 1.386 . S
C598 H617 0.930 . S
Eu599 N596 2.609 . S
Eu599 N600 2.657 . S
Eu599 O633 2.380 . S
Eu599 O634 2.432 . S
Eu599 O638 2.558 . S
Eu599 O639 2.612 . S
Eu599 O641 2.339 . S
Eu599 O642 2.563 . S
Eu599 O643 2.419 . S
Eu599 C663 2.848 . S
N600 C592 1.362 . S
N600 Eu599 2.657 . S
N600 C601 1.334 . S
C601 N600 1.334 . S
C601 C603 1.413 . S
C601 H608 0.929 . S
C602 C590 1.392 . S
C602 C603 1.367 . S
C602 H610 0.930 . S
C603 C601 1.413 . S
C603 C602 1.367 . S
C603 H605 0.930 . S
H604 C597 0.930 . S
H605 C603 0.930 . S
H606 C594 0.930 . S
H607 C595 0.930 . S
H608 C601 0.929 . S
H609 C623 0.930 . S
H610 C602 0.930 . S
H611 C629 0.930 . S
H612 C620 0.929 . S
H613 C627 0.930 . S
H614 C591 0.931 . S
H615 C621 0.930 . S
H616 C654 0.930 . S
H617 C598 0.930 . S
H618 C653 0.931 . S
N619 Eu588 2.657 . S
N619 C620 1.334 . S
N619 C624 1.362 . S
C620 H612 0.929 . S
C620 N619 1.334 . S
C620 C623 1.413 . S
C621 H615 0.930 . S
C621 C622 1.392 . S
C621 C623 1.367 . S
C622 C621 1.392 . S
C622 C624 1.420 . S
C622 C654 1.423 . S
C623 H609 0.930 . S
C623 C620 1.413 . S
C623 C621 1.367 . S
C624 N619 1.362 . S
C624 C622 1.420 . S
C624 C628 1.429 . S
H625 C630 0.930 . S
N626 Eu588 2.609 . S
N626 C628 1.377 . S
N626 C629 1.321 . S
C627 H613 0.930 . S
C627 C629 1.400 . S
C627 C630 1.386 . S
C628 C624 1.429 . S
C628 N626 1.377 . S
C628 C631 1.411 . S
C629 H611 0.930 . S
C629 N626 1.321 . S
C629 C627 1.400 . S
C630 H625 0.930 . S
C630 C627 1.386 . S
C630 C631 1.395 . S
C631 C628 1.411 . S
C631 C630 1.395 . S
C631 C653 1.420 . S
O632 Eu588 2.558 . S
O632 C652 1.257 . S
O633 Eu588 2.612 . S
O633 Eu599 2.380 . S
O633 C644 1.276 . S
O634 Eu599 2.432 . S
O634 C651 1.264 . S
O635 Eu588 2.339 . S
O635 C651 1.254 . S
O636 Eu588 2.563 . S
O636 C644 1.235 . S
O637 Eu588 2.419 . S
O637 C652 1.249 . S
O638 Eu599 2.558 . S
O638 C663 1.257 . S
O639 Eu588 2.380 . S
O639 Eu599 2.612 . S
O639 C655 1.276 . S
O640 Eu588 2.432 . S
O640 C662 1.264 . S
O641 Eu599 2.339 . S
O641 C662 1.254 . S
O642 Eu599 2.563 . S
O642 C655 1.235 . S
O643 Eu599 2.419 . S
O643 C663 1.249 . S
C644 O633 1.276 . S
C644 O636 1.235 . S
C645 C647 1.393 . S
C645 C649 1.395 . S
C645 C652 1.492 . S
C646 C647 1.392 . S
C646 C648 1.386 . S
C647 C645 1.393 . S
C647 C646 1.392 . S
C647 H664 0.930 . S
C648 C646 1.386 . S
C648 C650 1.395 . S
C648 H665 0.930 . S
C649 C645 1.395 . S
C649 C650 1.379 . S
C649 H666 0.930 . S
C650 C648 1.395 . S
C650 C649 1.379 . S
C650 H667 0.930 . S
C651 O634 1.264 . S
C651 O635 1.254 . S
C652 Eu588 2.848 . S
C652 O632 1.257 . S
C652 O637 1.249 . S
C652 C645 1.492 . S
C653 H618 0.931 . S
C653 C631 1.420 . S
C653 C654 1.351 . S
C654 H616 0.930 . S
C654 C622 1.423 . S
C654 C653 1.351 . S
C655 O639 1.276 . S
C655 O642 1.235 . S
C656 C657 1.393 . S
C656 C660 1.395 . S
C656 C663 1.492 . S
C657 C656 1.393 . S
C657 C658 1.392 . S
C657 H668 0.930 . S
C658 C657 1.392 . S
C658 C659 1.386 . S
C659 C658 1.386 . S
C659 C661 1.395 . S
C659 H669 0.930 . S
C660 C656 1.395 . S
C660 C661 1.379 . S
C660 H670 0.930 . S
C661 C659 1.395 . S
C661 C660 1.379 . S
C661 H671 0.930 . S
C662 O640 1.264 . S
C662 O641 1.254 . S
C663 Eu599 2.848 . S
C663 O638 1.257 . S
C663 O643 1.249 . S
C663 C656 1.492 . S
H664 C647 0.930 . S
H665 C648 0.930 . S
H666 C649 0.930 . S
H667 C650 0.930 . S
H668 C657 0.930 . S
H669 C659 0.930 . S
H670 C660 0.930 . S
H671 C661 0.930 . S
Eu672 N703 2.657 . S
Eu672 N710 2.609 . S
Eu672 O716 2.558 . S
Eu672 O717 2.612 . S
Eu672 O719 2.339 . S
Eu672 O720 2.563 . S
Eu672 O721 2.419 . S
Eu672 O723 2.380 . S
Eu672 O724 2.432 . S
Eu672 C736 2.848 . S
C673 C676 1.429 . S
C673 C677 1.411 . S
C673 N680 1.377 . S
C674 C676 1.420 . S
C674 C678 1.423 . S
C674 C686 1.392 . S
C675 C677 1.420 . S
C675 C678 1.351 . S
C675 H698 0.931 . S
C676 C673 1.429 . S
C676 C674 1.420 . S
C676 N684 1.362 . S
C677 C673 1.411 . S
C677 C675 1.420 . S
C677 C682 1.395 . S
C678 C674 1.423 . S
C678 C675 1.351 . S
C678 H690 0.930 . S
C679 C681 1.400 . S
C679 C682 1.386 . S
C679 H691 0.930 . S
N680 C673 1.377 . S
N680 C681 1.321 . S
N680 Eu683 2.609 1_565 S
C681 C679 1.400 . S
C681 N680 1.321 . S
C681 H688 0.930 . S
C682 C677 1.395 . S
C682 C679 1.386 . S
C682 H701 0.930 . S
Eu683 N680 2.609 1_545 S
Eu683 N684 2.657 1_545 S
Eu683 O717 2.380 . S
Eu683 O718 2.432 . S
Eu683 O722 2.558 1_545 S
Eu683 O723 2.612 . S
Eu683 O725 2.339 . S
Eu683 O726 2.563 . S
Eu683 O727 2.419 1_545 S
Eu683 C747 2.848 1_545 S
N684 C676 1.362 . S
N684 Eu683 2.657 1_565 S
N684 C685 1.334 . S
C685 N684 1.334 . S
C685 C687 1.413 1_455 S
C685 H692 0.929 . S
C686 C674 1.392 . S
C686 C687 1.367 1_455 S
C686 H694 0.930 1_455 S
C687 C685 1.413 1_655 S
C687 C686 1.367 1_655 S
C687 H689 0.930 . S
H688 C681 0.930 . S
H689 C687 0.930 . S
H690 C678 0.930 . S
H691 C679 0.930 . S
H692 C685 0.929 . S
H693 C707 0.930 . S
H694 C686 0.930 1_655 S
H695 C713 0.908 1_655 S
H696 C704 0.929 . S
H697 C711 0.930 . S
H698 C675 0.931 . S
H699 C705 0.930 . S
H700 C738 0.930 . S
H701 C682 0.930 . S
H702 C737 0.931 . S
N703 Eu672 2.657 . S
N703 C704 1.334 . S
N703 C708 1.362 . S
C704 H696 0.929 . S
C704 N703 1.334 . S
C704 C707 1.413 . S
C705 H699 0.930 . S
C705 C706 1.392 . S
C705 C707 1.367 . S
C706 C705 1.392 . S
C706 C708 1.420 . S
C706 C738 1.423 . S
C707 H693 0.930 . S
C707 C704 1.413 . S
C707 C705 1.367 . S
C708 N703 1.362 . S
C708 C706 1.420 . S
C708 C712 1.429 . S
H709 C714 0.930 . S
N710 Eu672 2.609 . S
N710 C712 1.377 . S
N710 C713 1.321 . S
C711 H697 0.930 . S
C711 C713 1.400 1_655 S
C711 C714 1.386 1_655 S
C712 C708 1.429 . S
C712 N710 1.377 . S
C712 C715 1.411 . S
C713 H695 0.908 1_455 S
C713 N710 1.321 . S
C713 C711 1.400 1_455 S
C714 H709 0.930 . S
C714 C711 1.386 1_455 S
C714 C715 1.395 . S
C715 C712 1.411 . S
C715 C714 1.395 . S
C715 C737 1.420 . S
O716 Eu672 2.558 . S
O716 C736 1.257 . S
O717 Eu672 2.612 . S
O717 Eu683 2.380 . S
O717 C728 1.276 . S
O718 Eu683 2.432 . S
O718 C735 1.264 . S
O719 Eu672 2.339 . S
O719 C735 1.254 . S
O720 Eu672 2.563 . S
O720 C728 1.235 . S
O721 Eu672 2.419 . S
O721 C736 1.249 . S
O722 Eu683 2.558 1_565 S
O722 C747 1.257 . S
O723 Eu672 2.380 . S
O723 Eu683 2.612 . S
O723 C739 1.276 . S
O724 Eu672 2.432 . S
O724 C746 1.264 . S
O725 Eu683 2.339 . S
O725 C746 1.254 . S
O726 Eu683 2.563 . S
O726 C739 1.235 . S
O727 Eu683 2.419 1_565 S
O727 C747 1.249 . S
C728 O717 1.276 . S
C728 O720 1.235 . S
C729 C731 1.393 . S
C729 C733 1.395 . S
C729 C736 1.492 . S
C730 C731 1.392 . S
C730 C732 1.386 . S
C731 C729 1.393 . S
C731 C730 1.392 . S
C731 H748 0.930 . S
C732 C730 1.386 . S
C732 C734 1.395 . S
C732 H749 0.930 . S
C733 C729 1.395 . S
C733 C734 1.379 . S
C733 H750 0.930 . S
C734 C732 1.395 . S
C734 C733 1.379 . S
C734 H751 0.930 . S
C735 O718 1.264 . S
C735 O719 1.254 . S
C736 Eu672 2.848 . S
C736 O716 1.257 . S
C736 O721 1.249 . S
C736 C729 1.492 . S
C737 H702 0.931 . S
C737 C715 1.420 . S
C737 C738 1.351 . S
C738 H700 0.930 . S
C738 C706 1.423 . S
C738 C737 1.351 . S
C739 O723 1.276 . S
C739 O726 1.235 . S
C740 C741 1.393 . S
C740 C744 1.395 . S
C740 C747 1.492 . S
C741 C740 1.393 . S
C741 C742 1.392 . S
C741 H752 0.930 . S
C742 C741 1.392 . S
C742 C743 1.386 . S
C743 C742 1.386 . S
C743 C745 1.395 . S
C743 H753 0.930 . S
C744 C740 1.395 . S
C744 C745 1.379 . S
C744 H754 0.930 . S
C745 C743 1.395 . S
C745 C744 1.379 . S
C745 H755 0.930 . S
C746 O724 1.264 . S
C746 O725 1.254 . S
C747 Eu683 2.848 1_565 S
C747 O722 1.257 . S
C747 O727 1.249 . S
C747 C740 1.492 . S
H748 C731 0.930 . S
H749 C732 0.930 . S
H750 C733 0.930 . S
H751 C734 0.930 . S
H752 C741 0.930 . S
H753 C743 0.930 . S
H754 C744 0.930 . S
H755 C745 0.930 . S
Eu756 N787 2.657 . S
Eu756 N794 2.609 . S
Eu756 O800 2.558 . S
Eu756 O801 2.612 . S
Eu756 O803 2.339 . S
Eu756 O804 2.563 . S
Eu756 O805 2.419 . S
Eu756 O807 2.380 . S
Eu756 O808 2.432 . S
Eu756 C820 2.848 . S
C757 C760 1.429 . S
C757 C761 1.411 . S
C757 N764 1.377 . S
C758 C760 1.420 . S
C758 C762 1.423 . S
C758 C770 1.392 . S
C759 C761 1.420 . S
C759 C762 1.351 . S
C759 H782 0.931 . S
C760 C757 1.429 . S
C760 C758 1.420 . S
C760 N768 1.362 . S
C761 C757 1.411 . S
C761 C759 1.420 . S
C761 C766 1.395 . S
C762 C758 1.423 . S
C762 C759 1.351 . S
C762 H774 0.930 . S
C763 C765 1.400 . S
C763 C766 1.386 . S
C763 H775 0.930 . S
N764 C757 1.377 . S
N764 C765 1.321 . S
N764 Eu767 2.609 . S
C765 C763 1.400 . S
C765 N764 1.321 . S
C765 H772 0.930 . S
C766 C761 1.395 . S
C766 C763 1.386 . S
C766 H785 0.930 . S
Eu767 N764 2.609 . S
Eu767 N768 2.657 . S
Eu767 O801 2.380 . S
Eu767 O802 2.432 . S
Eu767 O806 2.558 . S
Eu767 O807 2.612 . S
Eu767 O809 2.339 . S
Eu767 O810 2.563 . S
Eu767 O811 2.419 . S
Eu767 C831 2.848 . S
N768 C760 1.362 . S
N768 Eu767 2.657 . S
N768 C769 1.334 . S
C769 N768 1.334 . S
C769 C771 1.413 . S
C769 H776 0.929 . S
C770 C758 1.392 . S
C770 C771 1.367 . S
C770 H778 0.930 . S
C771 C769 1.413 . S
C771 C770 1.367 . S
C771 H773 0.930 . S
H772 C765 0.930 . S
H773 C771 0.930 . S
H774 C762 0.930 . S
H775 C763 0.930 . S
H776 C769 0.929 . S
H777 C791 0.930 . S
H778 C770 0.930 . S
H779 C797 0.930 . S
H780 C788 0.929 . S
H781 C795 0.930 . S
H782 C759 0.931 . S
H783 C789 0.930 . S
H784 C822 0.930 . S
H785 C766 0.930 . S
H786 C821 0.931 . S
N787 Eu756 2.657 . S
N787 C788 1.334 . S
N787 C792 1.362 . S
C788 H780 0.929 . S
C788 N787 1.334 . S
C788 C791 1.413 . S
C789 H783 0.930 . S
C789 C790 1.392 . S
C789 C791 1.367 . S
C790 C789 1.392 . S
C790 C792 1.420 . S
C790 C822 1.423 . S
C791 H777 0.930 . S
C791 C788 1.413 . S
C791 C789 1.367 . S
C792 N787 1.362 . S
C792 C790 1.420 . S
C792 C796 1.429 . S
H793 C798 0.930 . S
N794 Eu756 2.609 . S
N794 C796 1.377 . S
N794 C797 1.321 . S
C795 H781 0.930 . S
C795 C797 1.400 . S
C795 C798 1.386 . S
C796 C792 1.429 . S
C796 N794 1.377 . S
C796 C799 1.411 . S
C797 H779 0.930 . S
C797 N794 1.321 . S
C797 C795 1.400 . S
C798 H793 0.930 . S
C798 C795 1.386 . S
C798 C799 1.395 . S
C799 C796 1.411 . S
C799 C798 1.395 . S
C799 C821 1.420 . S
O800 Eu756 2.558 . S
O800 C820 1.257 . S
O801 Eu756 2.612 . S
O801 Eu767 2.380 . S
O801 C812 1.276 . S
O802 Eu767 2.432 . S
O802 C819 1.264 . S
O803 Eu756 2.339 . S
O803 C819 1.254 . S
O804 Eu756 2.563 . S
O804 C812 1.235 . S
O805 Eu756 2.419 . S
O805 C820 1.249 . S
O806 Eu767 2.558 . S
O806 C831 1.257 . S
O807 Eu756 2.380 . S
O807 Eu767 2.612 . S
O807 C823 1.276 . S
O808 Eu756 2.432 . S
O808 C830 1.264 . S
O809 Eu767 2.339 . S
O809 C830 1.254 . S
O810 Eu767 2.563 . S
O810 C823 1.235 . S
O811 Eu767 2.419 . S
O811 C831 1.249 . S
C812 O801 1.276 . S
C812 O804 1.235 . S
C813 C815 1.393 . S
C813 C817 1.395 . S
C813 C820 1.492 . S
C814 C815 1.392 . S
C814 C816 1.386 . S
C815 C813 1.393 . S
C815 C814 1.392 . S
C815 H832 0.930 . S
C816 C814 1.386 . S
C816 C818 1.395 . S
C816 H833 0.930 . S
C817 C813 1.395 . S
C817 C818 1.379 . S
C817 H834 0.930 . S
C818 C816 1.395 . S
C818 C817 1.379 . S
C818 H835 0.930 . S
C819 O802 1.264 . S
C819 O803 1.254 . S
C820 Eu756 2.848 . S
C820 O800 1.257 . S
C820 O805 1.249 . S
C820 C813 1.492 . S
C821 H786 0.931 . S
C821 C799 1.420 . S
C821 C822 1.351 . S
C822 H784 0.930 . S
C822 C790 1.423 . S
C822 C821 1.351 . S
C823 O807 1.276 . S
C823 O810 1.235 . S
C824 C825 1.393 . S
C824 C828 1.395 . S
C824 C831 1.492 . S
C825 C824 1.393 . S
C825 C826 1.392 . S
C825 H836 0.930 . S
C826 C825 1.392 . S
C826 C827 1.386 . S
C827 C826 1.386 . S
C827 C829 1.395 . S
C827 H837 0.930 . S
C828 C824 1.395 . S
C828 C829 1.379 . S
C828 H838 0.930 . S
C829 C827 1.395 . S
C829 C828 1.379 . S
C829 H839 0.930 . S
C830 O808 1.264 . S
C830 O809 1.254 . S
C831 Eu767 2.848 . S
C831 O806 1.257 . S
C831 O811 1.249 . S
C831 C824 1.492 . S
H832 C815 0.930 . S
H833 C816 0.930 . S
H834 C817 0.930 . S
H835 C818 0.930 . S
H836 C825 0.930 . S
H837 C827 0.930 . S
H838 C828 0.930 . S
H839 C829 0.930 . S
Eu840 N871 2.657 . S
Eu840 N878 2.609 . S
Eu840 O884 2.558 1_545 S
Eu840 O885 2.612 . S
Eu840 O887 2.339 . S
Eu840 O888 2.563 . S
Eu840 O889 2.419 . S
Eu840 O891 2.380 . S
Eu840 O892 2.432 1_545 S
Eu840 C904 2.848 . S
C841 C844 1.429 . S
C841 C845 1.411 . S
C841 N848 1.377 . S
C842 C844 1.420 . S
C842 C846 1.423 . S
C842 C854 1.392 1_545 S
C843 C845 1.420 . S
C843 C846 1.351 . S
C843 H866 0.931 . S
C844 C841 1.429 . S
C844 C842 1.420 . S
C844 N852 1.362 . S
C845 C841 1.411 . S
C845 C843 1.420 . S
C845 C850 1.395 . S
C846 C842 1.423 . S
C846 C843 1.351 . S
C846 H858 0.930 . S
C847 C849 1.400 . S
C847 C850 1.386 . S
C847 H859 0.930 . S
N848 C841 1.377 . S
N848 C849 1.321 . S
N848 Eu851 2.609 . S
C849 C847 1.400 . S
C849 N848 1.321 . S
C849 H856 0.930 . S
C850 C845 1.395 . S
C850 C847 1.386 . S
C850 H869 0.930 . S
Eu851 N848 2.609 . S
Eu851 N852 2.657 . S
Eu851 O885 2.380 1_556 S
Eu851 O886 2.432 1_556 S
Eu851 O890 2.558 . S
Eu851 O891 2.612 1_556 S
Eu851 O893 2.339 . S
Eu851 O894 2.563 . S
Eu851 O895 2.419 . S
Eu851 C915 2.848 . S
N852 C844 1.362 . S
N852 Eu851 2.657 . S
N852 C853 1.334 1_545 S
C853 N852 1.334 1_565 S
C853 C855 1.413 . S
C853 H860 0.929 . S
C854 C842 1.392 1_565 S
C854 C855 1.367 . S
C854 H862 0.930 . S
C855 C853 1.413 . S
C855 C854 1.367 . S
C855 H857 0.930 . S
H856 C849 0.930 . S
H857 C855 0.930 . S
H858 C846 0.930 . S
H859 C847 0.930 . S
H860 C853 0.929 . S
H861 C875 0.930 . S
H862 C854 0.930 . S
H863 C881 0.930 . S
H864 C872 0.929 . S
H865 C879 0.930 . S
H866 C843 0.931 . S
H867 C873 0.930 . S
H868 C906 0.930 . S
H869 C850 0.930 . S
H870 C905 0.931 . S
N871 Eu840 2.657 . S
N871 C872 1.334 . S
N871 C876 1.362 . S
C872 H864 0.929 . S
C872 N871 1.334 . S
C872 C875 1.413 . S
C873 H867 0.930 . S
C873 C874 1.392 . S
C873 C875 1.367 . S
C874 C873 1.392 . S
C874 C876 1.420 . S
C874 C906 1.423 . S
C875 H861 0.930 . S
C875 C872 1.413 . S
C875 C873 1.367 . S
C876 N871 1.362 . S
C876 C874 1.420 . S
C876 C880 1.429 . S
H877 C882 0.930 . S
N878 Eu840 2.609 . S
N878 C880 1.377 . S
N878 C881 1.321 1_545 S
C879 H865 0.930 . S
C879 C881 1.400 . S
C879 C882 1.386 . S
C880 C876 1.429 . S
C880 N878 1.377 . S
C880 C883 1.411 . S
C881 H863 0.930 . S
C881 N878 1.321 1_565 S
C881 C879 1.400 . S
C882 H877 0.930 . S
C882 C879 1.386 . S
C882 C883 1.395 1_565 S
C883 C880 1.411 . S
C883 C882 1.395 1_545 S
C883 C905 1.420 . S
O884 Eu840 2.558 1_565 S
O884 C904 1.257 1_565 S
O885 Eu840 2.612 . S
O885 Eu851 2.380 1_554 S
O885 C896 1.276 . S
O886 Eu851 2.432 1_554 S
O886 C903 1.264 . S
O887 Eu840 2.339 . S
O887 C903 1.254 . S
O888 Eu840 2.563 . S
O888 C896 1.235 . S
O889 Eu840 2.419 . S
O889 C904 1.249 . S
O890 Eu851 2.558 . S
O890 C915 1.257 . S
O891 Eu840 2.380 . S
O891 Eu851 2.612 1_554 S
O891 C907 1.276 . S
O892 Eu840 2.432 1_565 S
O892 C914 1.264 1_554 S
O893 Eu851 2.339 . S
O893 C914 1.254 1_545 S
O894 Eu851 2.563 . S
O894 C907 1.235 1_556 S
O895 Eu851 2.419 . S
O895 C915 1.249 . S
C896 O885 1.276 . S
C896 O888 1.235 . S
C897 C899 1.413 . S
C897 C901 1.364 1_545 S
C897 C904 1.503 . S
C898 C899 1.392 . S
C898 C900 1.386 1_545 S
C899 C897 1.413 . S
C899 C898 1.392 . S
C899 H916 0.930 . S
C900 C898 1.386 1_565 S
C900 C902 1.395 . S
C900 H917 0.930 . S
C901 C897 1.364 1_565 S
C901 C902 1.379 . S
C901 H918 0.930 . S
C902 C900 1.395 . S
C902 C901 1.379 . S
C902 H919 0.930 . S
C903 O886 1.264 . S
C903 O887 1.254 . S
C904 Eu840 2.848 . S
C904 O884 1.257 1_545 S
C904 O889 1.249 . S
C904 C897 1.503 . S
C905 H870 0.931 . S
C905 C883 1.420 . S
C905 C906 1.351 . S
C906 H868 0.930 . S
C906 C874 1.423 . S
C906 C905 1.351 . S
C907 O891 1.276 . S
C907 O894 1.235 1_554 S
C908 C909 1.393 . S
C908 C912 1.395 . S
C908 C915 1.492 . S
C909 C908 1.393 . S
C909 C910 1.392 . S
C909 H920 0.930 . S
C910 C909 1.392 . S
C910 C911 1.386 . S
C911 C910 1.386 . S
C911 C913 1.395 . S
C911 H921 0.930 . S
C912 C908 1.395 . S
C912 C913 1.379 . S
C912 H922 0.930 . S
C913 C911 1.395 . S
C913 C912 1.379 . S
C913 H923 0.930 . S
C914 O892 1.264 1_556 S
C914 O893 1.254 1_565 S
C915 Eu851 2.848 . S
C915 O890 1.257 . S
C915 O895 1.249 . S
C915 C908 1.492 . S
H916 C899 0.930 . S
H917 C900 0.930 . S
H918 C901 0.930 . S
H919 C902 0.930 . S
H920 C909 0.930 . S
H921 C911 0.930 . S
H922 C912 0.930 . S
H923 C913 0.930 . S
Eu924 N955 2.657 . S
Eu924 N962 2.609 . S
Eu924 O968 2.558 . S
Eu924 O969 2.612 . S
Eu924 O971 2.339 . S
Eu924 O972 2.563 . S
Eu924 O973 2.419 . S
Eu924 O975 2.380 . S
Eu924 O976 2.432 . S
Eu924 C988 2.848 . S
C925 C928 1.429 . S
C925 C929 1.411 . S
C925 N932 1.377 . S
C926 C928 1.420 . S
C926 C930 1.423 . S
C926 C938 1.392 . S
C927 C929 1.420 . S
C927 C930 1.351 . S
C927 H950 0.931 . S
C928 C925 1.429 . S
C928 C926 1.420 . S
C928 N936 1.362 . S
C929 C925 1.411 . S
C929 C927 1.420 . S
C929 C934 1.395 . S
C930 C926 1.423 . S
C930 C927 1.351 . S
C930 H942 0.930 . S
C931 C933 1.400 . S
C931 C934 1.386 . S
C931 H943 0.930 . S
N932 C925 1.377 . S
N932 C933 1.321 . S
N932 Eu935 2.609 . S
C933 C931 1.400 . S
C933 N932 1.321 . S
C933 H940 0.930 . S
C934 C929 1.395 . S
C934 C931 1.386 . S
C934 H953 0.930 . S
Eu935 N932 2.609 . S
Eu935 N936 2.657 . S
Eu935 O969 2.380 . S
Eu935 O970 2.432 . S
Eu935 O974 2.558 . S
Eu935 O975 2.612 . S
Eu935 O977 2.339 . S
Eu935 O978 2.563 . S
Eu935 O979 2.419 . S
Eu935 C999 2.848 . S
N936 C928 1.362 . S
N936 Eu935 2.657 . S
N936 C937 1.334 . S
C937 N936 1.334 . S
C937 C939 1.413 . S
C937 H944 0.929 . S
C938 C926 1.392 . S
C938 C939 1.367 . S
C938 H946 0.930 . S
C939 C937 1.413 . S
C939 C938 1.367 . S
C939 H941 0.930 . S
H940 C933 0.930 . S
H941 C939 0.930 . S
H942 C930 0.930 . S
H943 C931 0.930 . S
H944 C937 0.929 . S
H945 C959 0.930 . S
H946 C938 0.930 . S
H947 C965 0.930 . S
H948 C956 0.929 . S
H949 C963 0.930 . S
H950 C927 0.931 . S
H951 C957 0.930 . S
H952 C990 0.930 . S
H953 C934 0.930 . S
H954 C989 0.931 . S
N955 Eu924 2.657 . S
N955 C956 1.334 . S
N955 C960 1.362 . S
C956 H948 0.929 . S
C956 N955 1.334 . S
C956 C959 1.413 . S
C957 H951 0.930 . S
C957 C958 1.392 . S
C957 C959 1.367 . S
C958 C957 1.392 . S
C958 C960 1.420 . S
C958 C990 1.423 . S
C959 H945 0.930 . S
C959 C956 1.413 . S
C959 C957 1.367 . S
C960 N955 1.362 . S
C960 C958 1.420 . S
C960 C964 1.429 . S
H961 C966 0.930 . S
N962 Eu924 2.609 . S
N962 C964 1.377 . S
N962 C965 1.321 . S
C963 H949 0.930 . S
C963 C965 1.400 . S
C963 C966 1.386 . S
C964 C960 1.429 . S
C964 N962 1.377 . S
C964 C967 1.411 . S
C965 H947 0.930 . S
C965 N962 1.321 . S
C965 C963 1.400 . S
C966 H961 0.930 . S
C966 C963 1.386 . S
C966 C967 1.395 . S
C967 C964 1.411 . S
C967 C966 1.395 . S
C967 C989 1.420 . S
O968 Eu924 2.558 . S
O968 C988 1.257 . S
O969 Eu924 2.612 . S
O969 Eu935 2.380 . S
O969 C980 1.276 . S
O970 Eu935 2.432 . S
O970 C987 1.264 . S
O971 Eu924 2.339 . S
O971 C987 1.254 . S
O972 Eu924 2.563 . S
O972 C980 1.235 . S
O973 Eu924 2.419 . S
O973 C988 1.249 . S
O974 Eu935 2.558 . S
O974 C999 1.257 . S
O975 Eu924 2.380 . S
O975 Eu935 2.612 . S
O975 C991 1.276 . S
O976 Eu924 2.432 . S
O976 C998 1.264 . S
O977 Eu935 2.339 . S
O977 C998 1.254 . S
O978 Eu935 2.563 . S
O978 C991 1.235 . S
O979 Eu935 2.419 . S
O979 C999 1.249 . S
C980 O969 1.276 . S
C980 O972 1.235 . S
C981 C983 1.393 . S
C981 C985 1.395 . S
C981 C988 1.492 . S
C982 C983 1.392 . S
C982 C984 1.386 . S
C983 C981 1.393 . S
C983 C982 1.392 . S
C983 H1000 0.930 . S
C984 C982 1.386 . S
C984 C986 1.395 . S
C984 H1001 0.930 . S
C985 C981 1.395 . S
C985 C986 1.379 . S
C985 H1002 0.930 . S
C986 C984 1.395 . S
C986 C985 1.379 . S
C986 H1003 0.930 . S
C987 O970 1.264 . S
C987 O971 1.254 . S
C988 Eu924 2.848 . S
C988 O968 1.257 . S
C988 O973 1.249 . S
C988 C981 1.492 . S
C989 H954 0.931 . S
C989 C967 1.420 . S
C989 C990 1.351 . S
C990 H952 0.930 . S
C990 C958 1.423 . S
C990 C989 1.351 . S
C991 O975 1.276 . S
C991 O978 1.235 . S
C992 C993 1.393 . S
C992 C996 1.395 . S
C992 C999 1.492 . S
C993 C992 1.393 . S
C993 C994 1.392 . S
C993 H1004 0.930 . S
C994 C993 1.392 . S
C994 C995 1.386 . S
C995 C994 1.386 . S
C995 C997 1.395 . S
C995 H1005 0.930 . S
C996 C992 1.395 . S
C996 C997 1.379 . S
C996 H1006 0.930 . S
C997 C995 1.395 . S
C997 C996 1.379 . S
C997 H1007 0.930 . S
C998 O976 1.264 . S
C998 O977 1.254 . S
C999 Eu935 2.848 . S
C999 O974 1.257 . S
C999 O979 1.249 . S
C999 C992 1.492 . S
H1000 C983 0.930 . S
H1001 C984 0.930 . S
H1002 C985 0.930 . S
H1003 C986 0.930 . S
H1004 C993 0.930 . S
H1005 C995 0.930 . S
H1006 C996 0.930 . S
H1007 C997 0.930 . S
Eu1008 N1039 2.657 . S
Eu1008 N1046 2.609 . S
Eu1008 O1052 2.558 . S
Eu1008 O1053 2.612 1_554 S
Eu1008 O1055 2.339 . S
Eu1008 O1056 2.563 1_554 S
Eu1008 O1057 2.419 . S
Eu1008 O1059 2.380 . S
Eu1008 O1060 2.432 . S
Eu1008 C1072 2.848 . S
C1009 C1012 1.429 . S
C1009 C1013 1.411 . S
C1009 N1016 1.377 . S
C1010 C1012 1.420 . S
C1010 C1014 1.423 . S
C1010 C1022 1.392 . S
C1011 C1013 1.420 . S
C1011 C1014 1.351 . S
C1011 H1034 0.931 . S
C1012 C1009 1.429 . S
C1012 C1010 1.420 . S
C1012 N1020 1.362 . S
C1013 C1009 1.411 . S
C1013 C1011 1.420 . S
C1013 C1018 1.395 . S
C1014 C1010 1.423 . S
C1014 C1011 1.351 . S
C1014 H1026 0.930 . S
C1015 C1017 1.400 . S
C1015 C1018 1.386 . S
C1015 H1027 0.930 . S
N1016 C1009 1.377 . S
N1016 C1017 1.321 . S
N1016 Eu1019 2.609 1_556 S
C1017 C1015 1.400 . S
C1017 N1016 1.321 . S
C1017 H1024 0.930 . S
C1018 C1013 1.395 . S
C1018 C1015 1.386 . S
C1018 H1037 0.930 . S
Eu1019 N1016 2.609 1_554 S
Eu1019 N1020 2.657 1_554 S
Eu1019 O1053 2.380 1_554 S
Eu1019 O1054 2.432 . S
Eu1019 O1058 2.558 . S
Eu1019 O1059 2.612 . S
Eu1019 O1061 2.339 . S
Eu1019 O1062 2.563 . S
Eu1019 O1063 2.419 . S
Eu1019 C1083 2.848 . S
N1020 C1012 1.362 . S
N1020 Eu1019 2.657 1_556 S
N1020 C1021 1.334 . S
C1021 N1020 1.334 . S
C1021 C1023 1.413 . S
C1021 H1028 0.929 . S
C1022 C1010 1.392 . S
C1022 C1023 1.367 . S
C1022 H1030 0.930 . S
C1023 C1021 1.413 . S
C1023 C1022 1.367 . S
C1023 H1025 0.930 . S
H1024 C1017 0.930 . S
H1025 C1023 0.930 . S
H1026 C1014 0.930 . S
H1027 C1015 0.930 . S
H1028 C1021 0.929 . S
H1029 C1043 0.930 . S
H1030 C1022 0.930 . S
H1031 C1049 0.930 . S
H1032 C1040 0.929 . S
H1033 C1047 0.930 . S
H1034 C1011 0.931 . S
H1035 C1041 0.930 . S
H1036 C1074 0.930 . S
H1037 C1018 0.930 . S
H1038 C1073 0.931 . S
N1039 Eu1008 2.657 . S
N1039 C1040 1.334 . S
N1039 C1044 1.362 . S
C1040 H1032 0.929 . S
C1040 N1039 1.334 . S
C1040 C1043 1.413 . S
C1041 H1035 0.930 . S
C1041 C1042 1.392 . S
C1041 C1043 1.367 . S
C1042 C1041 1.392 . S
C1042 C1044 1.420 . S
C1042 C1074 1.423 . S
C1043 H1029 0.930 . S
C1043 C1040 1.413 . S
C1043 C1041 1.367 . S
C1044 N1039 1.362 . S
C1044 C1042 1.420 . S
C1044 C1048 1.429 . S
H1045 C1050 0.930 . S
N1046 Eu1008 2.609 . S
N1046 C1048 1.377 . S
N1046 C1049 1.321 . S
C1047 H1033 0.930 . S
C1047 C1049 1.400 . S
C1047 C1050 1.386 . S
C1048 C1044 1.429 . S
C1048 N1046 1.377 . S
C1048 C1051 1.411 . S
C1049 H1031 0.930 . S
C1049 N1046 1.321 . S
C1049 C1047 1.400 . S
C1050 H1045 0.930 . S
C1050 C1047 1.386 . S
C1050 C1051 1.395 . S
C1051 C1048 1.411 . S
C1051 C1050 1.395 . S
C1051 C1073 1.420 . S
O1052 Eu1008 2.558 . S
O1052 C1072 1.257 . S
O1053 Eu1008 2.612 1_556 S
O1053 Eu1019 2.380 1_556 S
O1053 C1064 1.276 . S
O1054 Eu1019 2.432 . S
O1054 C1071 1.264 . S
O1055 Eu1008 2.339 . S
O1055 C1071 1.254 . S
O1056 Eu1008 2.563 1_556 S
O1056 C1064 1.235 . S
O1057 Eu1008 2.419 . S
O1057 C1072 1.249 . S
O1058 Eu1019 2.558 . S
O1058 C1083 1.257 . S
O1059 Eu1008 2.380 . S
O1059 Eu1019 2.612 . S
O1059 C1075 1.276 . S
O1060 Eu1008 2.432 . S
O1060 C1082 1.264 . S
O1061 Eu1019 2.339 . S
O1061 C1082 1.254 . S
O1062 Eu1019 2.563 . S
O1062 C1075 1.235 . S
O1063 Eu1019 2.419 . S
O1063 C1083 1.249 . S
C1064 O1053 1.276 . S
C1064 O1056 1.235 . S
C1065 C1067 1.393 . S
C1065 C1069 1.395 . S
C1065 C1072 1.492 . S
C1066 C1067 1.392 1_556 S
C1066 C1068 1.386 1_556 S
C1067 C1065 1.393 . S
C1067 C1066 1.392 1_554 S
C1067 H1084 0.930 1_554 S
C1068 C1066 1.386 1_554 S
C1068 C1070 1.395 . S
C1068 H1085 0.930 . S
C1069 C1065 1.395 . S
C1069 C1070 1.379 . S
C1069 H1086 0.930 . S
C1070 C1068 1.395 . S
C1070 C1069 1.379 . S
C1070 H1087 0.930 . S
C1071 O1054 1.264 . S
C1071 O1055 1.254 . S
C1072 Eu1008 2.848 . S
C1072 O1052 1.257 . S
C1072 O1057 1.249 . S
C1072 C1065 1.492 . S
C1073 H1038 0.931 . S
C1073 C1051 1.420 . S
C1073 C1074 1.351 . S
C1074 H1036 0.930 . S
C1074 C1042 1.423 . S
C1074 C1073 1.351 . S
C1075 O1059 1.276 . S
C1075 O1062 1.235 . S
C1076 C1077 1.393 . S
C1076 C1080 1.395 . S
C1076 C1083 1.492 . S
C1077 C1076 1.393 . S
C1077 C1078 1.392 . S
C1077 H1088 0.930 . S
C1078 C1077 1.392 . S
C1078 C1079 1.386 . S
C1079 C1078 1.386 . S
C1079 C1081 1.395 . S
C1079 H1089 0.930 . S
C1080 C1076 1.395 . S
C1080 C1081 1.379 . S
C1080 H1090 0.928 . S
C1081 C1079 1.395 . S
C1081 C1080 1.379 . S
C1081 H1091 0.930 . S
C1082 O1060 1.264 . S
C1082 O1061 1.254 . S
C1083 Eu1019 2.848 . S
C1083 O1058 1.257 . S
C1083 O1063 1.249 . S
C1083 C1076 1.492 . S
H1084 C1067 0.930 1_556 S
H1085 C1068 0.930 . S
H1086 C1069 0.930 . S
H1087 C1070 0.930 . S
H1088 C1077 0.930 . S
H1089 C1079 0.930 . S
H1090 C1080 0.928 . S
H1091 C1081 0.930 . S
Eu1092 N1123 2.657 . S
Eu1092 N1130 2.609 . S
Eu1092 O1136 2.558 . S
Eu1092 O1137 2.612 . S
Eu1092 O1139 2.339 . S
Eu1092 O1140 2.563 . S
Eu1092 O1141 2.419 . S
Eu1092 O1143 2.380 . S
Eu1092 O1144 2.432 . S
Eu1092 C1156 2.848 . S
C1093 C1096 1.429 . S
C1093 C1097 1.411 . S
C1093 N1100 1.377 . S
C1094 C1096 1.420 . S
C1094 C1098 1.423 . S
C1094 C1106 1.392 . S
C1095 C1097 1.420 . S
C1095 C1098 1.351 . S
C1095 H1118 0.931 . S
C1096 C1093 1.429 . S
C1096 C1094 1.420 . S
C1096 N1104 1.362 . S
C1097 C1093 1.411 . S
C1097 C1095 1.420 . S
C1097 C1102 1.395 . S
C1098 C1094 1.423 . S
C1098 C1095 1.351 . S
C1098 H1110 0.930 . S
C1099 C1101 1.400 . S
C1099 C1102 1.386 . S
C1099 H1111 0.930 . S
N1100 C1093 1.377 . S
N1100 C1101 1.321 . S
N1100 Eu1103 2.609 . S
C1101 C1099 1.400 . S
C1101 N1100 1.321 . S
C1101 H1108 0.930 . S
C1102 C1097 1.395 . S
C1102 C1099 1.386 . S
C1102 H1121 0.930 . S
Eu1103 N1100 2.609 . S
Eu1103 N1104 2.657 . S
Eu1103 O1137 2.380 . S
Eu1103 O1138 2.432 . S
Eu1103 O1142 2.558 . S
Eu1103 O1143 2.612 . S
Eu1103 O1145 2.339 . S
Eu1103 O1146 2.563 . S
Eu1103 O1147 2.419 . S
Eu1103 C1167 2.848 . S
N1104 C1096 1.362 . S
N1104 Eu1103 2.657 . S
N1104 C1105 1.334 . S
C1105 N1104 1.334 . S
C1105 C1107 1.413 . S
C1105 H1112 0.929 . S
C1106 C1094 1.392 . S
C1106 C1107 1.367 . S
C1106 H1114 0.930 . S
C1107 C1105 1.413 . S
C1107 C1106 1.367 . S
C1107 H1109 0.930 . S
H1108 C1101 0.930 . S
H1109 C1107 0.930 . S
H1110 C1098 0.930 . S
H1111 C1099 0.930 . S
H1112 C1105 0.929 . S
H1113 C1127 0.930 . S
H1114 C1106 0.930 . S
H1115 C1133 0.930 . S
H1116 C1124 0.929 . S
H1117 C1131 0.930 . S
H1118 C1095 0.931 . S
H1119 C1125 0.930 . S
H1120 C1158 0.930 . S
H1121 C1102 0.930 . S
H1122 C1157 0.931 . S
N1123 Eu1092 2.657 . S
N1123 C1124 1.334 . S
N1123 C1128 1.362 . S
C1124 H1116 0.929 . S
C1124 N1123 1.334 . S
C1124 C1127 1.413 . S
C1125 H1119 0.930 . S
C1125 C1126 1.392 . S
C1125 C1127 1.367 . S
C1126 C1125 1.392 . S
C1126 C1128 1.420 . S
C1126 C1158 1.423 . S
C1127 H1113 0.930 . S
C1127 C1124 1.413 . S
C1127 C1125 1.367 . S
C1128 N1123 1.362 . S
C1128 C1126 1.420 . S
C1128 C1132 1.429 . S
H1129 C1134 0.930 . S
N1130 Eu1092 2.609 . S
N1130 C1132 1.377 . S
N1130 C1133 1.321 . S
C1131 H1117 0.930 . S
C1131 C1133 1.400 . S
C1131 C1134 1.386 . S
C1132 C1128 1.429 . S
C1132 N1130 1.377 . S
C1132 C1135 1.411 . S
C1133 H1115 0.930 . S
C1133 N1130 1.321 . S
C1133 C1131 1.400 . S
C1134 H1129 0.930 . S
C1134 C1131 1.386 . S
C1134 C1135 1.395 . S
C1135 C1132 1.411 . S
C1135 C1134 1.395 . S
C1135 C1157 1.420 . S
O1136 Eu1092 2.558 . S
O1136 C1156 1.257 . S
O1137 Eu1092 2.612 . S
O1137 Eu1103 2.380 . S
O1137 C1148 1.276 . S
O1138 Eu1103 2.432 . S
O1138 C1155 1.264 . S
O1139 Eu1092 2.339 . S
O1139 C1155 1.254 . S
O1140 Eu1092 2.563 . S
O1140 C1148 1.235 . S
O1141 Eu1092 2.419 . S
O1141 C1156 1.249 . S
O1142 Eu1103 2.558 . S
O1142 C1167 1.257 . S
O1143 Eu1092 2.380 . S
O1143 Eu1103 2.612 . S
O1143 C1159 1.276 . S
O1144 Eu1092 2.432 . S
O1144 C1166 1.264 . S
O1145 Eu1103 2.339 . S
O1145 C1166 1.254 . S
O1146 Eu1103 2.563 . S
O1146 C1159 1.235 . S
O1147 Eu1103 2.419 . S
O1147 C1167 1.249 . S
C1148 O1137 1.276 . S
C1148 O1140 1.235 . S
C1149 C1151 1.393 . S
C1149 C1153 1.395 . S
C1149 C1156 1.492 . S
C1150 C1151 1.392 . S
C1150 C1152 1.386 . S
C1151 C1149 1.393 . S
C1151 C1150 1.392 . S
C1151 H1168 0.930 . S
C1152 C1150 1.386 . S
C1152 C1154 1.395 . S
C1152 H1169 0.930 . S
C1153 C1149 1.395 . S
C1153 C1154 1.379 . S
C1153 H1170 0.930 . S
C1154 C1152 1.395 . S
C1154 C1153 1.379 . S
C1154 H1171 0.930 . S
C1155 O1138 1.264 . S
C1155 O1139 1.254 . S
C1156 Eu1092 2.848 . S
C1156 O1136 1.257 . S
C1156 O1141 1.249 . S
C1156 C1149 1.492 . S
C1157 H1122 0.931 . S
C1157 C1135 1.420 . S
C1157 C1158 1.351 . S
C1158 H1120 0.930 . S
C1158 C1126 1.423 . S
C1158 C1157 1.351 . S
C1159 O1143 1.276 . S
C1159 O1146 1.235 . S
C1160 C1161 1.393 . S
C1160 C1164 1.395 . S
C1160 C1167 1.492 . S
C1161 C1160 1.393 . S
C1161 C1162 1.392 . S
C1161 H1172 0.930 . S
C1162 C1161 1.392 . S
C1162 C1163 1.386 . S
C1163 C1162 1.386 . S
C1163 C1165 1.395 . S
C1163 H1173 0.930 . S
C1164 C1160 1.395 . S
C1164 C1165 1.379 . S
C1164 H1174 0.930 . S
C1165 C1163 1.395 . S
C1165 C1164 1.379 . S
C1165 H1175 0.930 . S
C1166 O1144 1.264 . S
C1166 O1145 1.254 . S
C1167 Eu1103 2.848 . S
C1167 O1142 1.257 . S
C1167 O1147 1.249 . S
C1167 C1160 1.492 . S
H1168 C1151 0.930 . S
H1169 C1152 0.930 . S
H1170 C1153 0.930 . S
H1171 C1154 0.930 . S
H1172 C1161 0.930 . S
H1173 C1163 0.930 . S
H1174 C1164 0.930 . S
H1175 C1165 0.930 . S
Eu1176 N1207 2.657 . S
Eu1176 N1214 2.609 . S
Eu1176 O1220 2.558 . S
Eu1176 O1221 2.612 . S
Eu1176 O1223 2.339 . S
Eu1176 O1224 2.563 . S
Eu1176 O1225 2.419 . S
Eu1176 O1227 2.380 . S
Eu1176 O1228 2.432 . S
Eu1176 C1240 2.848 . S
C1177 C1180 1.434 1_455 S
C1177 C1181 1.411 1_455 S
C1177 N1184 1.377 . S
C1178 C1180 1.443 . S
C1178 C1182 1.423 . S
C1178 C1190 1.392 . S
C1179 C1181 1.420 . S
C1179 C1182 1.351 . S
C1179 H1202 0.931 . S
C1180 C1177 1.434 1_655 S
C1180 C1178 1.443 . S
C1180 N1188 1.334 1_655 S
C1181 C1177 1.411 1_655 S
C1181 C1179 1.420 . S
C1181 C1186 1.395 . S
C1182 C1178 1.423 . S
C1182 C1179 1.351 . S
C1182 H1194 0.930 . S
C1183 C1185 1.400 . S
C1183 C1186 1.386 1_455 S
C1183 H1195 0.930 . S
N1184 C1177 1.377 . S
N1184 C1185 1.321 . S
N1184 Eu1187 2.609 . S
C1185 C1183 1.400 . S
C1185 N1184 1.321 . S
C1185 H1192 0.930 . S
C1186 C1181 1.395 . S
C1186 C1183 1.386 1_655 S
C1186 H1205 0.930 . S
Eu1187 N1184 2.609 . S
Eu1187 N1188 2.657 . S
Eu1187 O1221 2.380 . S
Eu1187 O1222 2.432 . S
Eu1187 O1226 2.558 . S
Eu1187 O1227 2.612 . S
Eu1187 O1229 2.339 . S
Eu1187 O1230 2.563 . S
Eu1187 O1231 2.419 . S
Eu1187 C1251 2.848 . S
N1188 C1180 1.334 1_455 S
N1188 Eu1187 2.657 . S
N1188 C1189 1.334 . S
C1189 N1188 1.334 . S
C1189 C1191 1.413 1_455 S
C1189 H1196 0.929 . S
C1190 C1178 1.392 . S
C1190 C1191 1.367 . S
C1190 H1198 0.930 . S
C1191 C1189 1.413 1_655 S
C1191 C1190 1.367 . S
C1191 H1193 0.930 . S
H1192 C1185 0.930 . S
H1193 C1191 0.930 . S
H1194 C1182 0.930 . S
H1195 C1183 0.930 . S
H1196 C1189 0.929 . S
H1197 C1211 0.930 . S
H1198 C1190 0.930 . S
H1199 C1217 0.930 . S
H1200 C1208 0.929 . S
H1201 C1215 0.930 . S
H1202 C1179 0.931 . S
H1203 C1209 0.930 . S
H1204 C1242 0.930 . S
H1205 C1186 0.930 . S
H1206 C1241 0.931 . S
N1207 Eu1176 2.657 . S
N1207 C1208 1.334 . S
N1207 C1212 1.362 . S
C1208 H1200 0.929 . S
C1208 N1207 1.334 . S
C1208 C1211 1.413 . S
C1209 H1203 0.930 . S
C1209 C1210 1.392 . S
C1209 C1211 1.367 . S
C1210 C1209 1.392 . S
C1210 C1212 1.420 . S
C1210 C1242 1.423 . S
C1211 H1197 0.930 . S
C1211 C1208 1.413 . S
C1211 C1209 1.367 . S
C1212 N1207 1.362 . S
C1212 C1210 1.420 . S
C1212 C1216 1.429 . S
H1213 C1218 0.930 . S
N1214 Eu1176 2.609 . S
N1214 C1216 1.377 . S
N1214 C1217 1.321 . S
C1215 H1201 0.930 . S
C1215 C1217 1.400 . S
C1215 C1218 1.386 . S
C1216 C1212 1.429 . S
C1216 N1214 1.377 . S
C1216 C1219 1.411 . S
C1217 H1199 0.930 . S
C1217 N1214 1.321 . S
C1217 C1215 1.400 . S
C1218 H1213 0.930 . S
C1218 C1215 1.386 . S
C1218 C1219 1.395 . S
C1219 C1216 1.411 . S
C1219 C1218 1.395 . S
C1219 C1241 1.420 . S
O1220 Eu1176 2.558 . S
O1220 C1240 1.257 . S
O1221 Eu1176 2.612 . S
O1221 Eu1187 2.380 . S
O1221 C1232 1.276 . S
O1222 Eu1187 2.432 . S
O1222 C1239 1.264 . S
O1223 Eu1176 2.339 . S
O1223 C1239 1.254 . S
O1224 Eu1176 2.563 . S
O1224 C1232 1.235 . S
O1225 Eu1176 2.419 . S
O1225 C1240 1.249 . S
O1226 Eu1187 2.558 . S
O1226 C1251 1.257 . S
O1227 Eu1176 2.380 . S
O1227 Eu1187 2.612 . S
O1227 C1243 1.276 . S
O1228 Eu1176 2.432 . S
O1228 C1250 1.264 . S
O1229 Eu1187 2.339 . S
O1229 C1250 1.254 . S
O1230 Eu1187 2.563 . S
O1230 C1243 1.235 . S
O1231 Eu1187 2.419 . S
O1231 C1251 1.249 . S
C1232 O1221 1.276 . S
C1232 O1224 1.235 . S
C1233 C1235 1.393 . S
C1233 C1237 1.395 . S
C1233 C1240 1.492 . S
C1234 C1235 1.392 . S
C1234 C1236 1.386 . S
C1235 C1233 1.393 . S
C1235 C1234 1.392 . S
C1235 H1252 0.930 . S
C1236 C1234 1.386 . S
C1236 C1238 1.395 . S
C1236 H1253 0.930 . S
C1237 C1233 1.395 . S
C1237 C1238 1.379 . S
C1237 H1254 0.930 . S
C1238 C1236 1.395 . S
C1238 C1237 1.379 . S
C1238 H1255 0.930 . S
C1239 O1222 1.264 . S
C1239 O1223 1.254 . S
C1240 Eu1176 2.848 . S
C1240 O1220 1.257 . S
C1240 O1225 1.249 . S
C1240 C1233 1.492 . S
C1241 H1206 0.931 . S
C1241 C1219 1.420 . S
C1241 C1242 1.351 . S
C1242 H1204 0.930 . S
C1242 C1210 1.423 . S
C1242 C1241 1.351 . S
C1243 O1227 1.276 . S
C1243 O1230 1.235 . S
C1244 C1245 1.393 . S
C1244 C1248 1.395 . S
C1244 C1251 1.492 . S
C1245 C1244 1.393 . S
C1245 C1246 1.392 . S
C1245 H1256 0.930 . S
C1246 C1245 1.392 . S
C1246 C1247 1.386 . S
C1247 C1246 1.386 . S
C1247 C1249 1.395 . S
C1247 H1257 0.930 . S
C1248 C1244 1.395 . S
C1248 C1249 1.379 . S
C1248 H1258 0.930 . S
C1249 C1247 1.395 . S
C1249 C1248 1.379 . S
C1249 H1259 0.930 . S
C1250 O1228 1.264 . S
C1250 O1229 1.254 . S
C1251 Eu1187 2.848 . S
C1251 O1226 1.257 . S
C1251 O1231 1.249 . S
C1251 C1244 1.492 . S
H1252 C1235 0.930 . S
H1253 C1236 0.930 . S
H1254 C1237 0.930 . S
H1255 C1238 0.930 . S
H1256 C1245 0.930 . S
H1257 C1247 0.930 . S
H1258 C1248 0.930 . S
H1259 C1249 0.930 . S
Eu1260 N1291 2.657 . S
Eu1260 N1298 2.609 . S
Eu1260 O1304 2.558 . S
Eu1260 O1305 2.612 . S
Eu1260 O1307 2.339 . S
Eu1260 O1308 2.563 . S
Eu1260 O1309 2.419 . S
Eu1260 O1311 2.380 . S
Eu1260 O1312 2.432 . S
Eu1260 C1324 2.848 . S
C1261 C1264 1.429 . S
C1261 C1265 1.411 . S
C1261 N1268 1.377 . S
C1262 C1264 1.420 . S
C1262 C1266 1.423 . S
C1262 C1274 1.392 . S
C1263 C1265 1.420 . S
C1263 C1266 1.351 . S
C1263 H1286 0.931 . S
C1264 C1261 1.429 . S
C1264 C1262 1.420 . S
C1264 N1272 1.362 . S
C1265 C1261 1.411 . S
C1265 C1263 1.420 . S
C1265 C1270 1.395 . S
C1266 C1262 1.423 . S
C1266 C1263 1.351 . S
C1266 H1278 0.930 . S
C1267 C1269 1.400 . S
C1267 C1270 1.386 . S
C1267 H1279 0.930 . S
N1268 C1261 1.377 . S
N1268 C1269 1.321 . S
N1268 Eu1271 2.609 . S
C1269 C1267 1.400 . S
C1269 N1268 1.321 . S
C1269 H1276 0.930 . S
C1270 C1265 1.395 . S
C1270 C1267 1.386 . S
C1270 H1289 0.930 . S
Eu1271 N1268 2.609 . S
Eu1271 N1272 2.657 . S
Eu1271 O1305 2.380 . S
Eu1271 O1306 2.432 . S
Eu1271 O1310 2.558 . S
Eu1271 O1311 2.612 . S
Eu1271 O1313 2.339 . S
Eu1271 O1314 2.563 . S
Eu1271 O1315 2.419 . S
Eu1271 C1335 2.848 . S
N1272 C1264 1.362 . S
N1272 Eu1271 2.657 . S
N1272 C1273 1.334 . S
C1273 N1272 1.334 . S
C1273 C1275 1.413 . S
C1273 H1280 0.929 . S
C1274 C1262 1.392 . S
C1274 C1275 1.367 . S
C1274 H1282 0.930 . S
C1275 C1273 1.413 . S
C1275 C1274 1.367 . S
C1275 H1277 0.930 . S
H1276 C1269 0.930 . S
H1277 C1275 0.930 . S
H1278 C1266 0.930 . S
H1279 C1267 0.930 . S
H1280 C1273 0.929 . S
H1281 C1295 0.930 . S
H1282 C1274 0.930 . S
H1283 C1301 0.930 . S
H1284 C1292 0.929 . S
H1285 C1299 0.930 . S
H1286 C1263 0.931 . S
H1287 C1293 0.930 . S
H1288 C1326 0.930 . S
H1289 C1270 0.930 . S
H1290 C1325 0.931 . S
N1291 Eu1260 2.657 . S
N1291 C1292 1.334 . S
N1291 C1296 1.362 . S
C1292 H1284 0.929 . S
C1292 N1291 1.334 . S
C1292 C1295 1.413 . S
C1293 H1287 0.930 . S
C1293 C1294 1.392 . S
C1293 C1295 1.367 . S
C1294 C1293 1.392 . S
C1294 C1296 1.420 . S
C1294 C1326 1.423 . S
C1295 H1281 0.930 . S
C1295 C1292 1.413 . S
C1295 C1293 1.367 . S
C1296 N1291 1.362 . S
C1296 C1294 1.420 . S
C1296 C1300 1.429 . S
H1297 C1302 0.930 . S
N1298 Eu1260 2.609 . S
N1298 C1300 1.377 . S
N1298 C1301 1.321 . S
C1299 H1285 0.930 . S
C1299 C1301 1.400 . S
C1299 C1302 1.386 . S
C1300 C1296 1.429 . S
C1300 N1298 1.377 . S
C1300 C1303 1.411 . S
C1301 H1283 0.930 . S
C1301 N1298 1.321 . S
C1301 C1299 1.400 . S
C1302 H1297 0.930 . S
C1302 C1299 1.386 . S
C1302 C1303 1.395 . S
C1303 C1300 1.411 . S
C1303 C1302 1.395 . S
C1303 C1325 1.420 . S
O1304 Eu1260 2.558 . S
O1304 C1324 1.257 . S
O1305 Eu1260 2.612 . S
O1305 Eu1271 2.380 . S
O1305 C1316 1.276 . S
O1306 Eu1271 2.432 . S
O1306 C1323 1.264 . S
O1307 Eu1260 2.339 . S
O1307 C1323 1.254 . S
O1308 Eu1260 2.563 . S
O1308 C1316 1.235 . S
O1309 Eu1260 2.419 . S
O1309 C1324 1.249 . S
O1310 Eu1271 2.558 . S
O1310 C1335 1.257 . S
O1311 Eu1260 2.380 . S
O1311 Eu1271 2.612 . S
O1311 C1327 1.276 . S
O1312 Eu1260 2.432 . S
O1312 C1334 1.264 . S
O1313 Eu1271 2.339 . S
O1313 C1334 1.254 . S
O1314 Eu1271 2.563 . S
O1314 C1327 1.235 . S
O1315 Eu1271 2.419 . S
O1315 C1335 1.249 . S
C1316 O1305 1.276 . S
C1316 O1308 1.235 . S
C1317 C1319 1.393 . S
C1317 C1321 1.395 . S
C1317 C1324 1.492 . S
C1318 C1319 1.392 . S
C1318 C1320 1.386 . S
C1319 C1317 1.393 . S
C1319 C1318 1.392 . S
C1319 H1336 0.930 . S
C1320 C1318 1.386 . S
C1320 C1322 1.395 . S
C1320 H1337 0.930 . S
C1321 C1317 1.395 . S
C1321 C1322 1.379 . S
C1321 H1338 0.930 . S
C1322 C1320 1.395 . S
C1322 C1321 1.379 . S
C1322 H1339 0.930 . S
C1323 O1306 1.264 . S
C1323 O1307 1.254 . S
C1324 Eu1260 2.848 . S
C1324 O1304 1.257 . S
C1324 O1309 1.249 . S
C1324 C1317 1.492 . S
C1325 H1290 0.931 . S
C1325 C1303 1.420 . S
C1325 C1326 1.351 . S
C1326 H1288 0.930 . S
C1326 C1294 1.423 . S
C1326 C1325 1.351 . S
C1327 O1311 1.276 . S
C1327 O1314 1.235 . S
C1328 C1329 1.393 . S
C1328 C1332 1.395 . S
C1328 C1335 1.492 . S
C1329 C1328 1.393 . S
C1329 C1330 1.392 . S
C1329 H1340 0.930 . S
C1330 C1329 1.392 . S
C1330 C1331 1.386 . S
C1331 C1330 1.386 . S
C1331 C1333 1.395 . S
C1331 H1341 0.930 . S
C1332 C1328 1.395 . S
C1332 C1333 1.379 . S
C1332 H1342 0.930 . S
C1333 C1331 1.395 . S
C1333 C1332 1.379 . S
C1333 H1343 0.930 . S
C1334 O1312 1.264 . S
C1334 O1313 1.254 . S
C1335 Eu1271 2.848 . S
C1335 O1310 1.257 . S
C1335 O1315 1.249 . S
C1335 C1328 1.492 . S
H1336 C1319 0.930 . S
H1337 C1320 0.930 . S
H1338 C1321 0.930 . S
H1339 C1322 0.930 . S
H1340 C1329 0.930 . S
H1341 C1331 0.930 . S
H1342 C1332 0.930 . S
H1343 C1333 0.930 . S
Eu1344 N1375 2.657 . S
Eu1344 N1382 2.609 . S
Eu1344 O1388 2.558 . S
Eu1344 O1389 2.612 . S
Eu1344 O1391 2.339 . S
Eu1344 O1392 2.563 . S
Eu1344 O1393 2.419 . S
Eu1344 O1395 2.380 . S
Eu1344 O1396 2.432 . S
Eu1344 C1408 2.848 . S
C1345 C1348 1.429 . S
C1345 C1349 1.411 . S
C1345 N1352 1.377 . S
C1346 C1348 1.420 . S
C1346 C1350 1.423 . S
C1346 C1358 1.392 . S
C1347 C1349 1.420 . S
C1347 C1350 1.351 . S
C1347 H1370 0.931 . S
C1348 C1345 1.429 . S
C1348 C1346 1.420 . S
C1348 N1356 1.362 . S
C1349 C1345 1.411 . S
C1349 C1347 1.420 . S
C1349 C1354 1.395 . S
C1350 C1346 1.423 . S
C1350 C1347 1.351 . S
C1350 H1362 0.930 . S
C1351 C1353 1.400 . S
C1351 C1354 1.386 . S
C1351 H1363 0.930 . S
N1352 C1345 1.377 . S
N1352 C1353 1.321 . S
N1352 Eu1355 2.609 . S
C1353 C1351 1.400 . S
C1353 N1352 1.321 . S
C1353 H1360 0.930 . S
C1354 C1349 1.395 . S
C1354 C1351 1.386 . S
C1354 H1373 0.930 . S
Eu1355 N1352 2.609 . S
Eu1355 N1356 2.657 . S
Eu1355 O1389 2.380 . S
Eu1355 O1390 2.432 . S
Eu1355 O1394 2.558 . S
Eu1355 O1395 2.612 . S
Eu1355 O1397 2.339 . S
Eu1355 O1398 2.563 . S
Eu1355 O1399 2.419 . S
Eu1355 C1419 2.848 . S
N1356 C1348 1.362 . S
N1356 Eu1355 2.657 . S
N1356 C1357 1.334 . S
C1357 N1356 1.334 . S
C1357 C1359 1.413 . S
C1357 H1364 0.929 . S
C1358 C1346 1.392 . S
C1358 C1359 1.367 . S
C1358 H1366 0.930 . S
C1359 C1357 1.413 . S
C1359 C1358 1.367 . S
C1359 H1361 0.930 . S
H1360 C1353 0.930 . S
H1361 C1359 0.930 . S
H1362 C1350 0.930 . S
H1363 C1351 0.930 . S
H1364 C1357 0.929 . S
H1365 C1379 0.930 . S
H1366 C1358 0.930 . S
H1367 C1385 0.930 . S
H1368 C1376 0.929 . S
H1369 C1383 0.930 . S
H1370 C1347 0.931 . S
H1371 C1377 0.930 . S
H1372 C1410 0.930 . S
H1373 C1354 0.930 . S
H1374 C1409 0.931 . S
N1375 Eu1344 2.657 . S
N1375 C1376 1.334 . S
N1375 C1380 1.362 . S
C1376 H1368 0.929 . S
C1376 N1375 1.334 . S
C1376 C1379 1.413 . S
C1377 H1371 0.930 . S
C1377 C1378 1.392 . S
C1377 C1379 1.367 . S
C1378 C1377 1.392 . S
C1378 C1380 1.420 . S
C1378 C1410 1.423 . S
C1379 H1365 0.930 . S
C1379 C1376 1.413 . S
C1379 C1377 1.367 . S
C1380 N1375 1.362 . S
C1380 C1378 1.420 . S
C1380 C1384 1.429 . S
H1381 C1386 0.930 . S
N1382 Eu1344 2.609 . S
N1382 C1384 1.377 . S
N1382 C1385 1.321 . S
C1383 H1369 0.930 . S
C1383 C1385 1.400 . S
C1383 C1386 1.386 . S
C1384 C1380 1.429 . S
C1384 N1382 1.377 . S
C1384 C1387 1.411 . S
C1385 H1367 0.930 . S
C1385 N1382 1.321 . S
C1385 C1383 1.400 . S
C1386 H1381 0.930 . S
C1386 C1383 1.386 . S
C1386 C1387 1.395 . S
C1387 C1384 1.411 . S
C1387 C1386 1.395 . S
C1387 C1409 1.420 . S
O1388 Eu1344 2.558 . S
O1388 C1408 1.257 . S
O1389 Eu1344 2.612 . S
O1389 Eu1355 2.380 . S
O1389 C1400 1.276 . S
O1390 Eu1355 2.432 . S
O1390 C1407 1.264 . S
O1391 Eu1344 2.339 . S
O1391 C1407 1.254 . S
O1392 Eu1344 2.563 . S
O1392 C1400 1.235 . S
O1393 Eu1344 2.419 . S
O1393 C1408 1.249 . S
O1394 Eu1355 2.558 . S
O1394 C1419 1.257 . S
O1395 Eu1344 2.380 . S
O1395 Eu1355 2.612 . S
O1395 C1411 1.276 . S
O1396 Eu1344 2.432 . S
O1396 C1418 1.264 . S
O1397 Eu1355 2.339 . S
O1397 C1418 1.254 . S
O1398 Eu1355 2.563 . S
O1398 C1411 1.235 . S
O1399 Eu1355 2.419 . S
O1399 C1419 1.249 . S
C1400 O1389 1.276 . S
C1400 O1392 1.235 . S
C1401 C1403 1.393 . S
C1401 C1405 1.395 . S
C1401 C1408 1.492 . S
C1402 C1403 1.392 . S
C1402 C1404 1.386 . S
C1403 C1401 1.393 . S
C1403 C1402 1.392 . S
C1403 H1420 0.930 . S
C1404 C1402 1.386 . S
C1404 C1406 1.395 . S
C1404 H1421 0.930 . S
C1405 C1401 1.395 . S
C1405 C1406 1.379 . S
C1405 H1422 0.930 . S
C1406 C1404 1.395 . S
C1406 C1405 1.379 . S
C1406 H1423 0.930 . S
C1407 O1390 1.264 . S
C1407 O1391 1.254 . S
C1408 Eu1344 2.848 . S
C1408 O1388 1.257 . S
C1408 O1393 1.249 . S
C1408 C1401 1.492 . S
C1409 H1374 0.931 . S
C1409 C1387 1.420 . S
C1409 C1410 1.351 . S
C1410 H1372 0.930 . S
C1410 C1378 1.423 . S
C1410 C1409 1.351 . S
C1411 O1395 1.276 . S
C1411 O1398 1.235 . S
C1412 C1413 1.393 . S
C1412 C1416 1.395 . S
C1412 C1419 1.492 . S
C1413 C1412 1.393 . S
C1413 C1414 1.392 . S
C1413 H1424 0.930 . S
C1414 C1413 1.392 . S
C1414 C1415 1.386 . S
C1415 C1414 1.386 . S
C1415 C1417 1.395 . S
C1415 H1425 0.930 . S
C1416 C1412 1.395 . S
C1416 C1417 1.379 . S
C1416 H1426 0.930 . S
C1417 C1415 1.395 . S
C1417 C1416 1.379 . S
C1417 H1427 0.930 . S
C1418 O1396 1.264 . S
C1418 O1397 1.254 . S
C1419 Eu1355 2.848 . S
C1419 O1394 1.257 . S
C1419 O1399 1.249 . S
C1419 C1412 1.492 . S
H1420 C1403 0.930 . S
H1421 C1404 0.930 . S
H1422 C1405 0.930 . S
H1423 C1406 0.930 . S
H1424 C1413 0.930 . S
H1425 C1415 0.930 . S
H1426 C1416 0.930 . S
H1427 C1417 0.930 . S
Eu1428 N1459 2.657 . S
Eu1428 N1466 2.609 . S
Eu1428 O1472 2.558 . S
Eu1428 O1473 2.612 . S
Eu1428 O1475 2.339 . S
Eu1428 O1476 2.563 . S
Eu1428 O1477 2.419 . S
Eu1428 O1479 2.380 . S
Eu1428 O1480 2.432 . S
Eu1428 C1492 2.848 . S
C1429 C1432 1.429 . S
C1429 C1433 1.411 . S
C1429 N1436 1.377 . S
C1430 C1432 1.420 . S
C1430 C1434 1.423 . S
C1430 C1442 1.392 . S
C1431 C1433 1.420 . S
C1431 C1434 1.351 . S
C1431 H1454 0.931 . S
C1432 C1429 1.429 . S
C1432 C1430 1.420 . S
C1432 N1440 1.362 . S
C1433 C1429 1.411 . S
C1433 C1431 1.420 . S
C1433 C1438 1.395 . S
C1434 C1430 1.423 . S
C1434 C1431 1.351 . S
C1434 H1446 0.930 . S
C1435 C1437 1.400 . S
C1435 C1438 1.386 . S
C1435 H1447 0.930 . S
N1436 C1429 1.377 . S
N1436 C1437 1.321 . S
N1436 Eu1439 2.609 . S
C1437 C1435 1.400 . S
C1437 N1436 1.321 . S
C1437 H1444 0.930 . S
C1438 C1433 1.395 . S
C1438 C1435 1.386 . S
C1438 H1457 0.930 . S
Eu1439 N1436 2.609 . S
Eu1439 N1440 2.657 . S
Eu1439 O1473 2.380 . S
Eu1439 O1474 2.432 . S
Eu1439 O1478 2.558 . S
Eu1439 O1479 2.612 . S
Eu1439 O1481 2.339 . S
Eu1439 O1482 2.563 . S
Eu1439 O1483 2.419 . S
Eu1439 C1503 2.848 . S
N1440 C1432 1.362 . S
N1440 Eu1439 2.657 . S
N1440 C1441 1.334 . S
C1441 N1440 1.334 . S
C1441 C1443 1.413 . S
C1441 H1448 0.929 . S
C1442 C1430 1.392 . S
C1442 C1443 1.367 . S
C1442 H1450 0.930 . S
C1443 C1441 1.413 . S
C1443 C1442 1.367 . S
C1443 H1445 0.930 . S
H1444 C1437 0.930 . S
H1445 C1443 0.930 . S
H1446 C1434 0.930 . S
H1447 C1435 0.930 . S
H1448 C1441 0.929 . S
H1449 C1463 0.930 . S
H1450 C1442 0.930 . S
H1451 C1469 0.930 . S
H1452 C1460 0.929 . S
H1453 C1467 0.930 . S
H1454 C1431 0.931 . S
H1455 C1461 0.930 . S
H1456 C1494 0.930 . S
H1457 C1438 0.930 . S
H1458 C1493 0.931 . S
N1459 Eu1428 2.657 . S
N1459 C1460 1.334 . S
N1459 C1464 1.362 . S
C1460 H1452 0.929 . S
C1460 N1459 1.334 . S
C1460 C1463 1.413 . S
C1461 H1455 0.930 . S
C1461 C1462 1.392 . S
C1461 C1463 1.367 . S
C1462 C1461 1.392 . S
C1462 C1464 1.420 . S
C1462 C1494 1.423 . S
C1463 H1449 0.930 . S
C1463 C1460 1.413 . S
C1463 C1461 1.367 . S
C1464 N1459 1.362 . S
C1464 C1462 1.420 . S
C1464 C1468 1.429 . S
H1465 C1470 0.930 . S
N1466 Eu1428 2.609 . S
N1466 C1468 1.377 . S
N1466 C1469 1.321 . S
C1467 H1453 0.930 . S
C1467 C1469 1.400 . S
C1467 C1470 1.386 . S
C1468 C1464 1.429 . S
C1468 N1466 1.377 . S
C1468 C1471 1.411 . S
C1469 H1451 0.930 . S
C1469 N1466 1.321 . S
C1469 C1467 1.400 . S
C1470 H1465 0.930 . S
C1470 C1467 1.386 . S
C1470 C1471 1.395 . S
C1471 C1468 1.411 . S
C1471 C1470 1.395 . S
C1471 C1493 1.420 . S
O1472 Eu1428 2.558 . S
O1472 C1492 1.257 . S
O1473 Eu1428 2.612 . S
O1473 Eu1439 2.380 . S
O1473 C1484 1.276 . S
O1474 Eu1439 2.432 . S
O1474 C1491 1.264 . S
O1475 Eu1428 2.339 . S
O1475 C1491 1.254 . S
O1476 Eu1428 2.563 . S
O1476 C1484 1.235 . S
O1477 Eu1428 2.419 . S
O1477 C1492 1.249 . S
O1478 Eu1439 2.558 . S
O1478 C1503 1.257 . S
O1479 Eu1428 2.380 . S
O1479 Eu1439 2.612 . S
O1479 C1495 1.276 . S
O1480 Eu1428 2.432 . S
O1480 C1502 1.264 . S
O1481 Eu1439 2.339 . S
O1481 C1502 1.254 . S
O1482 Eu1439 2.563 . S
O1482 C1495 1.235 . S
O1483 Eu1439 2.419 . S
O1483 C1503 1.249 . S
C1484 O1473 1.276 . S
C1484 O1476 1.235 . S
C1485 C1487 1.393 . S
C1485 C1489 1.395 . S
C1485 C1492 1.492 . S
C1486 C1487 1.392 . S
C1486 C1488 1.386 . S
C1487 C1485 1.393 . S
C1487 C1486 1.392 . S
C1487 H1504 0.930 . S
C1488 C1486 1.386 . S
C1488 C1490 1.395 . S
C1488 H1505 0.930 . S
C1489 C1485 1.395 . S
C1489 C1490 1.379 . S
C1489 H1506 0.930 . S
C1490 C1488 1.395 . S
C1490 C1489 1.379 . S
C1490 H1507 0.930 . S
C1491 O1474 1.264 . S
C1491 O1475 1.254 . S
C1492 Eu1428 2.848 . S
C1492 O1472 1.257 . S
C1492 O1477 1.249 . S
C1492 C1485 1.492 . S
C1493 H1458 0.931 . S
C1493 C1471 1.420 . S
C1493 C1494 1.351 . S
C1494 H1456 0.930 . S
C1494 C1462 1.423 . S
C1494 C1493 1.351 . S
C1495 O1479 1.276 . S
C1495 O1482 1.235 . S
C1496 C1497 1.393 . S
C1496 C1500 1.395 . S
C1496 C1503 1.492 . S
C1497 C1496 1.393 . S
C1497 C1498 1.392 . S
C1497 H1508 0.930 . S
C1498 C1497 1.392 . S
C1498 C1499 1.386 . S
C1499 C1498 1.386 . S
C1499 C1501 1.395 . S
C1499 H1509 0.930 . S
C1500 C1496 1.395 . S
C1500 C1501 1.379 . S
C1500 H1510 0.930 . S
C1501 C1499 1.395 . S
C1501 C1500 1.379 . S
C1501 H1511 0.930 . S
C1502 O1480 1.264 . S
C1502 O1481 1.254 . S
C1503 Eu1439 2.848 . S
C1503 O1478 1.257 . S
C1503 O1483 1.249 . S
C1503 C1496 1.492 . S
H1504 C1487 0.930 . S
H1505 C1488 0.930 . S
H1506 C1489 0.930 . S
H1507 C1490 0.930 . S
H1508 C1497 0.930 . S
H1509 C1499 0.930 . S
H1510 C1500 0.930 . S
H1511 C1501 0.930 . S
Eu1512 N1543 2.657 . S
Eu1512 N1550 2.609 . S
Eu1512 O1556 2.558 . S
Eu1512 O1557 2.612 . S
Eu1512 O1559 2.339 . S
Eu1512 O1560 2.563 . S
Eu1512 O1561 2.419 . S
Eu1512 O1563 2.380 . S
Eu1512 O1564 2.432 . S
Eu1512 C1576 2.848 . S
C1513 C1516 1.429 . S
C1513 C1517 1.411 . S
C1513 N1520 1.377 . S
C1514 C1516 1.420 . S
C1514 C1518 1.423 . S
C1514 C1526 1.392 . S
C1515 C1517 1.420 . S
C1515 C1518 1.351 . S
C1515 H1538 0.931 . S
C1516 C1513 1.429 . S
C1516 C1514 1.420 . S
C1516 N1524 1.362 . S
C1517 C1513 1.411 . S
C1517 C1515 1.420 . S
C1517 C1522 1.395 . S
C1518 C1514 1.423 . S
C1518 C1515 1.351 . S
C1518 H1530 0.930 . S
C1519 C1521 1.400 . S
C1519 C1522 1.386 . S
C1519 H1531 0.930 . S
N1520 C1513 1.377 . S
N1520 C1521 1.321 . S
N1520 Eu1523 2.609 . S
C1521 C1519 1.400 . S
C1521 N1520 1.321 . S
C1521 H1528 0.930 . S
C1522 C1517 1.395 . S
C1522 C1519 1.386 . S
C1522 H1541 0.930 . S
Eu1523 N1520 2.609 . S
Eu1523 N1524 2.657 . S
Eu1523 O1557 2.380 . S
Eu1523 O1558 2.432 . S
Eu1523 O1562 2.558 . S
Eu1523 O1563 2.612 . S
Eu1523 O1565 2.339 . S
Eu1523 O1566 2.563 . S
Eu1523 O1567 2.419 . S
Eu1523 C1587 2.848 . S
N1524 C1516 1.362 . S
N1524 Eu1523 2.657 . S
N1524 C1525 1.334 . S
C1525 N1524 1.334 . S
C1525 C1527 1.413 . S
C1525 H1532 0.929 . S
C1526 C1514 1.392 . S
C1526 C1527 1.367 . S
C1526 H1534 0.930 . S
C1527 C1525 1.413 . S
C1527 C1526 1.367 . S
C1527 H1529 0.930 . S
H1528 C1521 0.930 . S
H1529 C1527 0.930 . S
H1530 C1518 0.930 . S
H1531 C1519 0.930 . S
H1532 C1525 0.929 . S
H1533 C1547 0.930 . S
H1534 C1526 0.930 . S
H1535 C1553 0.930 . S
H1536 C1544 0.929 . S
H1537 C1551 0.930 . S
H1538 C1515 0.931 . S
H1539 C1545 0.930 . S
H1540 C1578 0.930 . S
H1541 C1522 0.930 . S
H1542 C1577 0.931 . S
N1543 Eu1512 2.657 . S
N1543 C1544 1.334 . S
N1543 C1548 1.362 . S
C1544 H1536 0.929 . S
C1544 N1543 1.334 . S
C1544 C1547 1.413 . S
C1545 H1539 0.930 . S
C1545 C1546 1.392 . S
C1545 C1547 1.367 . S
C1546 C1545 1.392 . S
C1546 C1548 1.420 . S
C1546 C1578 1.423 . S
C1547 H1533 0.930 . S
C1547 C1544 1.413 . S
C1547 C1545 1.367 . S
C1548 N1543 1.362 . S
C1548 C1546 1.420 . S
C1548 C1552 1.429 . S
H1549 C1554 0.930 . S
N1550 Eu1512 2.609 . S
N1550 C1552 1.377 . S
N1550 C1553 1.321 . S
C1551 H1537 0.930 . S
C1551 C1553 1.400 . S
C1551 C1554 1.386 . S
C1552 C1548 1.429 . S
C1552 N1550 1.377 . S
C1552 C1555 1.411 . S
C1553 H1535 0.930 . S
C1553 N1550 1.321 . S
C1553 C1551 1.400 . S
C1554 H1549 0.930 . S
C1554 C1551 1.386 . S
C1554 C1555 1.395 . S
C1555 C1552 1.411 . S
C1555 C1554 1.395 . S
C1555 C1577 1.420 . S
O1556 Eu1512 2.558 . S
O1556 C1576 1.257 . S
O1557 Eu1512 2.612 . S
O1557 Eu1523 2.380 . S
O1557 C1568 1.276 . S
O1558 Eu1523 2.432 . S
O1558 C1575 1.264 . S
O1559 Eu1512 2.339 . S
O1559 C1575 1.254 . S
O1560 Eu1512 2.563 . S
O1560 C1568 1.235 . S
O1561 Eu1512 2.419 . S
O1561 C1576 1.249 . S
O1562 Eu1523 2.558 . S
O1562 C1587 1.257 . S
O1563 Eu1512 2.380 . S
O1563 Eu1523 2.612 . S
O1563 C1579 1.276 . S
O1564 Eu1512 2.432 . S
O1564 C1586 1.264 . S
O1565 Eu1523 2.339 . S
O1565 C1586 1.254 . S
O1566 Eu1523 2.563 . S
O1566 C1579 1.235 . S
O1567 Eu1523 2.419 . S
O1567 C1587 1.249 . S
C1568 O1557 1.276 . S
C1568 O1560 1.235 . S
C1569 C1571 1.393 . S
C1569 C1573 1.395 . S
C1569 C1576 1.492 . S
C1570 C1571 1.392 . S
C1570 C1572 1.386 . S
C1571 C1569 1.393 . S
C1571 C1570 1.392 . S
C1571 H1588 0.930 . S
C1572 C1570 1.386 . S
C1572 C1574 1.395 . S
C1572 H1589 0.930 . S
C1573 C1569 1.395 . S
C1573 C1574 1.379 . S
C1573 H1590 0.930 . S
C1574 C1572 1.395 . S
C1574 C1573 1.379 . S
C1574 H1591 0.930 . S
C1575 O1558 1.264 . S
C1575 O1559 1.254 . S
C1576 Eu1512 2.848 . S
C1576 O1556 1.257 . S
C1576 O1561 1.249 . S
C1576 C1569 1.492 . S
C1577 H1542 0.931 . S
C1577 C1555 1.420 . S
C1577 C1578 1.351 . S
C1578 H1540 0.930 . S
C1578 C1546 1.423 . S
C1578 C1577 1.351 . S
C1579 O1563 1.276 . S
C1579 O1566 1.235 . S
C1580 C1581 1.393 . S
C1580 C1584 1.395 . S
C1580 C1587 1.492 . S
C1581 C1580 1.393 . S
C1581 C1582 1.392 . S
C1581 H1592 0.930 . S
C1582 C1581 1.392 . S
C1582 C1583 1.386 . S
C1583 C1582 1.386 . S
C1583 C1585 1.395 . S
C1583 H1593 0.930 . S
C1584 C1580 1.395 . S
C1584 C1585 1.379 . S
C1584 H1594 0.930 . S
C1585 C1583 1.395 . S
C1585 C1584 1.379 . S
C1585 H1595 0.930 . S
C1586 O1564 1.264 . S
C1586 O1565 1.254 . S
C1587 Eu1523 2.848 . S
C1587 O1562 1.257 . S
C1587 O1567 1.249 . S
C1587 C1580 1.492 . S
H1588 C1571 0.930 . S
H1589 C1572 0.930 . S
H1590 C1573 0.930 . S
H1591 C1574 0.930 . S
H1592 C1581 0.930 . S
H1593 C1583 0.930 . S
H1594 C1584 0.930 . S
H1595 C1585 0.930 . S
Eu1596 N1627 2.657 . S
Eu1596 N1634 2.609 1_554 S
Eu1596 O1640 2.558 1_554 S
Eu1596 O1641 2.612 . S
Eu1596 O1643 2.339 . S
Eu1596 O1644 2.563 1_554 S
Eu1596 O1645 2.419 . S
Eu1596 O1647 2.380 . S
Eu1596 O1648 2.432 1_554 S
Eu1596 C1660 2.848 1_554 S
C1597 C1600 1.429 . S
C1597 C1601 1.411 . S
C1597 N1604 1.377 1_655 S
C1598 C1600 1.420 . S
C1598 C1602 1.423 . S
C1598 C1610 1.392 1_554 S
C1599 C1601 1.420 . S
C1599 C1602 1.351 . S
C1599 H1622 0.931 . S
C1600 C1597 1.429 . S
C1600 C1598 1.420 . S
C1600 N1608 1.362 . S
C1601 C1597 1.411 . S
C1601 C1599 1.420 . S
C1601 C1606 1.395 . S
C1602 C1598 1.423 . S
C1602 C1599 1.351 . S
C1602 H1614 0.930 . S
C1603 C1605 1.400 . S
C1603 C1606 1.386 1_455 S
C1603 H1615 0.930 . S
N1604 C1597 1.377 1_455 S
N1604 C1605 1.321 . S
N1604 Eu1607 2.609 . S
C1605 C1603 1.400 . S
C1605 N1604 1.321 . S
C1605 H1612 0.930 . S
C1606 C1601 1.395 . S
C1606 C1603 1.386 1_655 S
C1606 H1625 0.930 . S
Eu1607 N1604 2.609 . S
Eu1607 N1608 2.657 1_455 S
Eu1607 O1641 2.380 . S
Eu1607 O1642 2.432 . S
Eu1607 O1646 2.558 . S
Eu1607 O1647 2.612 . S
Eu1607 O1649 2.339 1_554 S
Eu1607 O1650 2.563 . S
Eu1607 O1651 2.419 1_455 S
Eu1607 C1671 2.848 1_455 S
N1608 C1600 1.362 . S
N1608 Eu1607 2.657 1_655 S
N1608 C1609 1.334 1_554 S
C1609 N1608 1.334 1_556 S
C1609 C1611 1.413 . S
C1609 H1616 0.931 . S
C1610 C1598 1.392 1_556 S
C1610 C1611 1.367 . S
C1610 H1618 0.930 . S
C1611 C1609 1.413 . S
C1611 C1610 1.367 . S
C1611 H1613 0.930 . S
H1612 C1605 0.930 . S
H1613 C1611 0.930 . S
H1614 C1602 0.930 . S
H1615 C1603 0.930 . S
H1616 C1609 0.931 . S
H1617 C1631 0.930 . S
H1618 C1610 0.930 . S
H1619 C1637 0.930 . S
H1620 C1628 0.929 . S
H1621 C1635 0.930 . S
H1622 C1599 0.931 . S
H1623 C1629 0.930 . S
H1624 C1662 0.930 . S
H1625 C1606 0.930 . S
H1626 C1661 0.931 . S
N1627 Eu1596 2.657 . S
N1627 C1628 1.334 . S
N1627 C1632 1.362 . S
C1628 H1620 0.929 . S
C1628 N1627 1.334 . S
C1628 C1631 1.413 . S
C1629 H1623 0.930 . S
C1629 C1630 1.392 . S
C1629 C1631 1.367 . S
C1630 C1629 1.392 . S
C1630 C1632 1.420 . S
C1630 C1662 1.423 . S
C1631 H1617 0.930 . S
C1631 C1628 1.413 . S
C1631 C1629 1.367 . S
C1632 N1627 1.362 . S
C1632 C1630 1.420 . S
C1632 C1636 1.429 1_554 S
H1633 C1638 0.930 . S
N1634 Eu1596 2.609 1_556 S
N1634 C1636 1.377 . S
N1634 C1637 1.321 . S
C1635 H1621 0.930 . S
C1635 C1637 1.400 . S
C1635 C1638 1.386 . S
C1636 C1632 1.429 1_556 S
C1636 N1634 1.377 . S
C1636 C1639 1.411 . S
C1637 H1619 0.930 . S
C1637 N1634 1.321 . S
C1637 C1635 1.400 . S
C1638 H1633 0.930 . S
C1638 C1635 1.386 . S
C1638 C1639 1.395 . S
C1639 C1636 1.411 . S
C1639 C1638 1.395 . S
C1639 C1661 1.420 . S
O1640 Eu1596 2.558 1_556 S
O1640 C1660 1.257 . S
O1641 Eu1596 2.612 . S
O1641 Eu1607 2.380 . S
O1641 C1652 1.276 . S
O1642 Eu1607 2.432 . S
O1642 C1659 1.264 . S
O1643 Eu1596 2.339 . S
O1643 C1659 1.254 . S
O1644 Eu1596 2.563 1_556 S
O1644 C1652 1.235 1_556 S
O1645 Eu1596 2.419 . S
O1645 C1660 1.249 1_554 S
O1646 Eu1607 2.558 . S
O1646 C1671 1.257 1_455 S
O1647 Eu1596 2.380 . S
O1647 Eu1607 2.612 . S
O1647 C1663 1.276 . S
O1648 Eu1596 2.432 1_556 S
O1648 C1670 1.264 . S
O1649 Eu1607 2.339 1_556 S
O1649 C1670 1.254 . S
O1650 Eu1607 2.563 . S
O1650 C1663 1.235 . S
O1651 Eu1607 2.419 1_655 S
O1651 C1671 1.249 . S
C1652 O1641 1.276 . S
C1652 O1644 1.235 1_554 S
C1653 C1655 1.393 . S
C1653 C1657 1.395 . S
C1653 C1660 1.492 . S
C1654 C1655 1.392 . S
C1654 C1656 1.386 . S
C1655 C1653 1.393 . S
C1655 C1654 1.392 . S
C1655 H1672 0.930 1_556 S
C1656 C1654 1.386 . S
C1656 C1658 1.395 . S
C1656 H1673 0.930 . S
C1657 C1653 1.395 . S
C1657 C1658 1.379 . S
C1657 H1674 0.930 . S
C1658 C1656 1.395 . S
C1658 C1657 1.379 . S
C1658 H1675 0.930 . S
C1659 O1642 1.264 . S
C1659 O1643 1.254 . S
C1660 Eu1596 2.848 1_556 S
C1660 O1640 1.257 . S
C1660 O1645 1.249 1_556 S
C1660 C1653 1.492 . S
C1661 H1626 0.931 . S
C1661 C1639 1.420 . S
C1661 C1662 1.351 1_556 S
C1662 H1624 0.930 . S
C1662 C1630 1.423 . S
C1662 C1661 1.351 1_554 S
C1663 O1647 1.276 . S
C1663 O1650 1.235 . S
C1664 C1665 1.393 . S
C1664 C1668 1.395 . S
C1664 C1671 1.492 . S
C1665 C1664 1.393 . S
C1665 C1666 1.392 . S
C1665 H1676 0.930 . S
C1666 C1665 1.392 . S
C1666 C1667 1.386 . S
C1667 C1666 1.386 . S
C1667 C1669 1.395 . S
C1667 H1677 0.930 . S
C1668 C1664 1.395 . S
C1668 C1669 1.379 . S
C1668 H1678 0.930 . S
C1669 C1667 1.395 . S
C1669 C1668 1.379 . S
C1669 H1679 0.930 . S
C1670 O1648 1.264 . S
C1670 O1649 1.254 . S
C1671 Eu1607 2.848 1_655 S
C1671 O1646 1.257 1_655 S
C1671 O1651 1.249 . S
C1671 C1664 1.492 . S
H1672 C1655 0.930 1_554 S
H1673 C1656 0.930 . S
H1674 C1657 0.930 . S
H1675 C1658 0.930 . S
H1676 C1665 0.930 . S
H1677 C1667 0.930 . S
H1678 C1668 0.930 . S
H1679 C1669 0.930 . S
H1680 C1688 0.950 1_655 S
H1681 C1693 0.950 . S
H1682 C1690 0.950 1_655 S
H1683 C1692 0.950 1_554 S
H1684 C1694 0.950 . S
H1685 C1696 0.950 . S
H1686 C1698 0.950 . S
H1687 C1699 0.950 . S
C1688 H1680 0.950 1_455 S
C1688 C1689 1.386 . S
C1688 C1690 1.391 . S
C1689 C1688 1.386 . S
C1689 C1693 1.393 . S
C1690 H1682 0.950 1_455 S
C1690 C1688 1.391 . S
C1690 C1691 1.400 . S
C1691 C1690 1.400 . S
C1691 C1692 1.398 . S
C1691 C1697 1.491 . S
C1692 H1683 0.950 1_556 S
C1692 C1691 1.398 . S
C1692 C1693 1.391 . S
C1693 H1681 0.950 . S
C1693 C1689 1.393 . S
C1693 C1692 1.391 . S
C1694 H1684 0.950 . S
C1694 C1695 1.386 . S
C1694 C1696 1.391 . S
C1695 C1694 1.386 . S
C1695 C1699 1.393 1_554 S
C1696 H1685 0.950 . S
C1696 C1694 1.391 . S
C1696 C1697 1.400 1_554 S
C1697 C1691 1.491 . S
C1697 C1696 1.400 1_556 S
C1697 C1698 1.398 . S
C1698 H1686 0.950 . S
C1698 C1697 1.398 . S
C1698 C1699 1.391 . S
C1699 H1687 0.950 . S
C1699 C1695 1.393 1_556 S
C1699 C1698 1.391 . S
H1700 C1708 0.950 . S
H1701 C1713 0.950 . S
H1702 C1710 0.950 . S
H1703 C1712 0.950 . S
H1704 C1714 0.950 . S
H1705 C1716 0.950 . S
H1706 C1718 0.950 . S
H1707 C1719 0.950 . S
C1708 H1700 0.950 . S
C1708 C1709 1.386 . S
C1708 C1710 1.391 . S
C1709 C1708 1.386 . S
C1709 C1713 1.393 . S
C1710 H1702 0.950 . S
C1710 C1708 1.391 . S
C1710 C1711 1.400 . S
C1711 C1710 1.400 . S
C1711 C1712 1.398 . S
C1711 C1717 1.491 . S
C1712 H1703 0.950 . S
C1712 C1711 1.398 . S
C1712 C1713 1.391 . S
C1713 H1701 0.950 . S
C1713 C1709 1.393 . S
C1713 C1712 1.391 . S
C1714 H1704 0.950 . S
C1714 C1715 1.386 . S
C1714 C1716 1.391 . S
C1715 C1714 1.386 . S
C1715 C1719 1.393 . S
C1716 H1705 0.950 . S
C1716 C1714 1.391 . S
C1716 C1717 1.400 . S
C1717 C1711 1.491 . S
C1717 C1716 1.400 . S
C1717 C1718 1.398 . S
C1718 H1706 0.950 . S
C1718 C1717 1.398 . S
C1718 C1719 1.391 . S
C1719 H1707 0.950 . S
C1719 C1715 1.393 . S
C1719 C1718 1.391 . S
H1720 C1728 0.950 . S
H1721 C1733 0.950 . S
H1722 C1730 0.950 . S
H1723 C1732 0.950 . S
H1724 C1734 0.950 . S
H1725 C1736 0.950 . S
H1726 C1738 0.950 . S
H1727 C1739 0.950 . S
C1728 H1720 0.950 . S
C1728 C1729 1.386 . S
C1728 C1730 1.391 . S
C1729 C1728 1.386 . S
C1729 C1733 1.393 . S
C1730 H1722 0.950 . S
C1730 C1728 1.391 . S
C1730 C1731 1.400 . S
C1731 C1730 1.400 . S
C1731 C1732 1.398 . S
C1731 C1737 1.491 . S
C1732 H1723 0.950 . S
C1732 C1731 1.398 . S
C1732 C1733 1.391 . S
C1733 H1721 0.950 . S
C1733 C1729 1.393 . S
C1733 C1732 1.391 . S
C1734 H1724 0.950 . S
C1734 C1735 1.386 . S
C1734 C1736 1.391 . S
C1735 C1734 1.386 . S
C1735 C1739 1.393 . S
C1736 H1725 0.950 . S
C1736 C1734 1.391 . S
C1736 C1737 1.400 . S
C1737 C1731 1.491 . S
C1737 C1736 1.400 . S
C1737 C1738 1.398 . S
C1738 H1726 0.950 . S
C1738 C1737 1.398 . S
C1738 C1739 1.391 . S
C1739 H1727 0.950 . S
C1739 C1735 1.393 . S
C1739 C1738 1.391 . S
H1740 C1748 0.950 . S
H1741 C1753 0.950 . S
H1742 C1750 0.950 . S
H1743 C1752 0.950 . S
H1744 C1754 0.950 . S
H1745 C1756 0.950 . S
H1746 C1758 0.950 . S
H1747 C1759 0.950 . S
C1748 H1740 0.950 . S
C1748 C1749 1.386 . S
C1748 C1750 1.391 . S
C1749 C1748 1.386 . S
C1749 C1753 1.393 . S
C1750 H1742 0.950 . S
C1750 C1748 1.391 . S
C1750 C1751 1.400 . S
C1751 C1750 1.400 . S
C1751 C1752 1.398 . S
C1751 C1757 1.491 . S
C1752 H1743 0.950 . S
C1752 C1751 1.398 . S
C1752 C1753 1.391 . S
C1753 H1741 0.950 . S
C1753 C1749 1.393 . S
C1753 C1752 1.391 . S
C1754 H1744 0.950 . S
C1754 C1755 1.386 . S
C1754 C1756 1.391 . S
C1755 C1754 1.386 . S
C1755 C1759 1.393 . S
C1756 H1745 0.950 . S
C1756 C1754 1.391 . S
C1756 C1757 1.400 . S
C1757 C1751 1.491 . S
C1757 C1756 1.400 . S
C1757 C1758 1.398 . S
C1758 H1746 0.950 . S
C1758 C1757 1.398 . S
C1758 C1759 1.391 . S
C1759 H1747 0.950 . S
C1759 C1755 1.393 . S
C1759 C1758 1.391 . S
H1760 C1768 0.950 . S
H1761 C1773 0.949 1_655 S
H1762 C1770 0.950 . S
H1763 C1772 0.950 . S
H1764 C1774 0.950 . S
H1765 C1776 0.950 . S
H1766 C1778 0.950 . S
H1767 C1779 0.950 . S
C1768 H1760 0.950 . S
C1768 C1769 1.386 . S
C1768 C1770 1.391 . S
C1769 C1768 1.386 . S
C1769 C1773 1.393 . S
C1770 H1762 0.950 . S
C1770 C1768 1.391 . S
C1770 C1771 1.400 . S
C1771 C1770 1.400 . S
C1771 C1772 1.398 . S
C1771 C1777 1.491 . S
C1772 H1763 0.950 . S
C1772 C1771 1.398 . S
C1772 C1773 1.391 . S
C1773 H1761 0.949 1_455 S
C1773 C1769 1.393 . S
C1773 C1772 1.391 . S
C1774 H1764 0.950 . S
C1774 C1775 1.386 . S
C1774 C1776 1.391 . S
C1775 C1774 1.386 . S
C1775 C1779 1.393 . S
C1776 H1765 0.950 . S
C1776 C1774 1.391 . S
C1776 C1777 1.400 . S
C1777 C1771 1.491 . S
C1777 C1776 1.400 . S
C1777 C1778 1.398 . S
C1778 H1766 0.950 . S
C1778 C1777 1.398 . S
C1778 C1779 1.391 . S
C1779 H1767 0.950 . S
C1779 C1775 1.393 . S
C1779 C1778 1.391 . S
H1780 C1788 0.950 . S
H1781 C1793 0.950 . S
H1782 C1790 0.950 . S
H1783 C1792 0.950 . S
H1784 C1794 0.950 . S
H1785 C1796 0.950 . S
H1786 C1798 0.950 . S
H1787 C1799 0.950 . S
C1788 H1780 0.950 . S
C1788 C1789 1.386 . S
C1788 C1790 1.391 . S
C1789 C1788 1.386 . S
C1789 C1793 1.393 . S
C1790 H1782 0.950 . S
C1790 C1788 1.391 . S
C1790 C1791 1.400 . S
C1791 C1790 1.400 . S
C1791 C1792 1.398 . S
C1791 C1797 1.491 . S
C1792 H1783 0.950 . S
C1792 C1791 1.398 . S
C1792 C1793 1.391 . S
C1793 H1781 0.950 . S
C1793 C1789 1.393 . S
C1793 C1792 1.391 . S
C1794 H1784 0.950 . S
C1794 C1795 1.386 . S
C1794 C1796 1.391 . S
C1795 C1794 1.386 . S
C1795 C1799 1.393 . S
C1796 H1785 0.950 . S
C1796 C1794 1.391 . S
C1796 C1797 1.400 . S
C1797 C1791 1.491 . S
C1797 C1796 1.400 . S
C1797 C1798 1.398 . S
C1798 H1786 0.950 . S
C1798 C1797 1.398 . S
C1798 C1799 1.391 . S
C1799 H1787 0.950 . S
C1799 C1795 1.393 . S
C1799 C1798 1.391 . S
H1800 C1808 0.950 . S
H1801 C1813 0.950 . S
H1802 C1810 0.950 . S
H1803 C1812 0.950 . S
H1804 C1814 0.950 . S
H1805 C1816 0.950 . S
H1806 C1818 0.950 . S
H1807 C1819 0.950 . S
C1808 H1800 0.950 . S
C1808 C1809 1.386 . S
C1808 C1810 1.391 . S
C1809 C1808 1.386 . S
C1809 C1813 1.393 . S
C1810 H1802 0.950 . S
C1810 C1808 1.391 . S
C1810 C1811 1.400 . S
C1811 C1810 1.400 . S
C1811 C1812 1.398 . S
C1811 C1817 1.491 . S
C1812 H1803 0.950 . S
C1812 C1811 1.398 . S
C1812 C1813 1.391 . S
C1813 H1801 0.950 . S
C1813 C1809 1.393 . S
C1813 C1812 1.391 . S
C1814 H1804 0.950 . S
C1814 C1815 1.386 . S
C1814 C1816 1.391 . S
C1815 C1814 1.386 . S
C1815 C1819 1.393 . S
C1816 H1805 0.950 . S
C1816 C1814 1.391 . S
C1816 C1817 1.400 . S
C1817 C1811 1.491 . S
C1817 C1816 1.400 . S
C1817 C1818 1.398 . S
C1818 H1806 0.950 . S
C1818 C1817 1.398 . S
C1818 C1819 1.391 . S
C1819 H1807 0.950 . S
C1819 C1815 1.393 . S
C1819 C1818 1.391 . S
H1820 C1828 0.950 . S
H1821 C1833 0.950 . S
H1822 C1830 0.950 . S
H1823 C1832 0.950 . S
H1824 C1834 0.950 . S
H1825 C1836 0.950 . S
H1826 C1838 0.950 . S
H1827 C1839 0.950 . S
C1828 H1820 0.950 . S
C1828 C1829 1.386 . S
C1828 C1830 1.391 . S
C1829 C1828 1.386 . S
C1829 C1833 1.393 . S
C1830 H1822 0.950 . S
C1830 C1828 1.391 . S
C1830 C1831 1.400 . S
C1831 C1830 1.400 . S
C1831 C1832 1.398 . S
C1831 C1837 1.491 . S
C1832 H1823 0.950 . S
C1832 C1831 1.398 . S
C1832 C1833 1.391 . S
C1833 H1821 0.950 . S
C1833 C1829 1.393 . S
C1833 C1832 1.391 . S
C1834 H1824 0.950 . S
C1834 C1835 1.386 . S
C1834 C1836 1.391 . S
C1835 C1834 1.386 . S
C1835 C1839 1.393 . S
C1836 H1825 0.950 . S
C1836 C1834 1.391 . S
C1836 C1837 1.400 . S
C1837 C1831 1.491 . S
C1837 C1836 1.400 . S
C1837 C1838 1.398 . S
C1838 H1826 0.950 . S
C1838 C1837 1.398 . S
C1838 C1839 1.391 . S
C1839 H1827 0.950 . S
C1839 C1835 1.393 . S
C1839 C1838 1.391 . S
H1840 C1848 0.950 . S
H1841 C1853 0.950 . S
H1842 C1850 0.950 . S
H1843 C1852 0.950 . S
H1844 C1854 0.950 1_655 S
H1845 C1856 0.950 . S
H1846 C1858 0.950 . S
H1847 C1859 0.950 . S
C1848 H1840 0.950 . S
C1848 C1849 1.386 1_455 S
C1848 C1850 1.391 . S
C1849 C1848 1.386 1_655 S
C1849 C1853 1.393 . S
C1850 H1842 0.950 . S
C1850 C1848 1.391 . S
C1850 C1851 1.394 1_455 S
C1851 C1850 1.394 1_655 S
C1851 C1852 1.412 . S
C1851 C1857 1.483 1_655 S
C1852 H1843 0.950 . S
C1852 C1851 1.412 . S
C1852 C1853 1.391 . S
C1853 H1841 0.950 . S
C1853 C1849 1.393 . S
C1853 C1852 1.391 . S
C1854 H1844 0.950 1_455 S
C1854 C1855 1.386 . S
C1854 C1856 1.391 1_455 S
C1855 C1854 1.386 . S
C1855 C1859 1.393 . S
C1856 H1845 0.950 . S
C1856 C1854 1.391 1_655 S
C1856 C1857 1.400 1_655 S
C1857 C1851 1.483 1_455 S
C1857 C1856 1.400 1_455 S
C1857 C1858 1.398 . S
C1858 H1846 0.950 . S
C1858 C1857 1.398 . S
C1858 C1859 1.391 . S
C1859 H1847 0.950 . S
C1859 C1855 1.393 . S
C1859 C1858 1.391 . S
H1860 C1868 0.950 . S
H1861 C1873 0.950 . S
H1862 C1870 0.950 . S
H1863 C1872 0.950 . S
H1864 C1874 0.950 . S
H1865 C1876 0.950 . S
H1866 C1878 0.950 . S
H1867 C1879 0.950 . S
C1868 H1860 0.950 . S
C1868 C1869 1.386 . S
C1868 C1870 1.391 . S
C1869 C1868 1.386 . S
C1869 C1873 1.393 . S
C1870 H1862 0.950 . S
C1870 C1868 1.391 . S
C1870 C1871 1.400 . S
C1871 C1870 1.400 . S
C1871 C1872 1.398 . S
C1871 C1877 1.491 . S
C1872 H1863 0.950 . S
C1872 C1871 1.398 . S
C1872 C1873 1.391 . S
C1873 H1861 0.950 . S
C1873 C1869 1.393 . S
C1873 C1872 1.391 . S
C1874 H1864 0.950 . S
C1874 C1875 1.386 . S
C1874 C1876 1.391 . S
C1875 C1874 1.386 . S
C1875 C1879 1.393 . S
C1876 H1865 0.950 . S
C1876 C1874 1.391 . S
C1876 C1877 1.400 . S
C1877 C1871 1.491 . S
C1877 C1876 1.400 . S
C1877 C1878 1.398 . S
C1878 H1866 0.950 . S
C1878 C1877 1.398 . S
C1878 C1879 1.391 . S
C1879 H1867 0.950 . S
C1879 C1875 1.393 . S
C1879 C1878 1.391 . S
H1880 C1888 0.950 . S
H1881 C1893 0.950 . S
H1882 C1890 0.950 . S
H1883 C1892 0.950 . S
H1884 C1894 0.950 . S
H1885 C1896 0.950 . S
H1886 C1898 0.950 . S
H1887 C1899 0.950 . S
C1888 H1880 0.950 . S
C1888 C1889 1.386 . S
C1888 C1890 1.391 . S
C1889 C1888 1.386 . S
C1889 C1893 1.393 . S
C1890 H1882 0.950 . S
C1890 C1888 1.391 . S
C1890 C1891 1.400 . S
C1891 C1890 1.400 . S
C1891 C1892 1.398 . S
C1891 C1897 1.491 . S
C1892 H1883 0.950 . S
C1892 C1891 1.398 . S
C1892 C1893 1.391 . S
C1893 H1881 0.950 . S
C1893 C1889 1.393 . S
C1893 C1892 1.391 . S
C1894 H1884 0.950 . S
C1894 C1895 1.386 . S
C1894 C1896 1.391 . S
C1895 C1894 1.386 . S
C1895 C1899 1.393 . S
C1896 H1885 0.950 . S
C1896 C1894 1.391 . S
C1896 C1897 1.400 . S
C1897 C1891 1.491 . S
C1897 C1896 1.400 . S
C1897 C1898 1.398 . S
C1898 H1886 0.950 . S
C1898 C1897 1.398 . S
C1898 C1899 1.391 . S
C1899 H1887 0.950 . S
C1899 C1895 1.393 . S
C1899 C1898 1.391 . S
H1900 C1908 0.950 . S
H1901 C1913 0.950 . S
H1902 C1910 0.950 . S
H1903 C1912 0.950 . S
H1904 C1914 0.950 . S
H1905 C1916 0.950 . S
H1906 C1918 0.950 . S
H1907 C1919 0.950 . S
C1908 H1900 0.950 . S
C1908 C1909 1.386 . S
C1908 C1910 1.391 . S
C1909 C1908 1.386 . S
C1909 C1913 1.393 . S
C1910 H1902 0.950 . S
C1910 C1908 1.391 . S
C1910 C1911 1.400 . S
C1911 C1910 1.400 . S
C1911 C1912 1.398 . S
C1911 C1917 1.491 . S
C1912 H1903 0.950 . S
C1912 C1911 1.398 . S
C1912 C1913 1.391 . S
C1913 H1901 0.950 . S
C1913 C1909 1.393 . S
C1913 C1912 1.391 . S
C1914 H1904 0.950 . S
C1914 C1915 1.386 . S
C1914 C1916 1.391 . S
C1915 C1914 1.386 . S
C1915 C1919 1.393 . S
C1916 H1905 0.950 . S
C1916 C1914 1.391 . S
C1916 C1917 1.400 . S
C1917 C1911 1.491 . S
C1917 C1916 1.400 . S
C1917 C1918 1.398 . S
C1918 H1906 0.950 . S
C1918 C1917 1.398 . S
C1918 C1919 1.391 . S
C1919 H1907 0.950 . S
C1919 C1915 1.393 . S
C1919 C1918 1.391 . S
H1920 C1928 0.950 . S
H1921 C1933 0.950 . S
H1922 C1930 0.950 . S
H1923 C1932 0.950 1_455 S
H1924 C1934 0.950 . S
H1925 C1936 0.950 . S
H1926 C1938 0.950 . S
H1927 C1939 0.950 . S
C1928 H1920 0.950 . S
C1928 C1929 1.386 . S
C1928 C1930 1.391 . S
C1929 C1928 1.386 . S
C1929 C1933 1.393 . S
C1930 H1922 0.950 . S
C1930 C1928 1.391 . S
C1930 C1931 1.400 1_655 S
C1931 C1930 1.400 1_455 S
C1931 C1932 1.398 1_455 S
C1931 C1937 1.491 . S
C1932 H1923 0.950 1_655 S
C1932 C1931 1.398 1_655 S
C1932 C1933 1.391 . S
C1933 H1921 0.950 . S
C1933 C1929 1.393 . S
C1933 C1932 1.391 . S
C1934 H1924 0.950 . S
C1934 C1935 1.386 . S
C1934 C1936 1.391 . S
C1935 C1934 1.386 . S
C1935 C1939 1.393 . S
C1936 H1925 0.950 . S
C1936 C1934 1.391 . S
C1936 C1937 1.400 . S
C1937 C1931 1.491 . S
C1937 C1936 1.400 . S
C1937 C1938 1.398 . S
C1938 H1926 0.950 . S
C1938 C1937 1.398 . S
C1938 C1939 1.391 . S
C1939 H1927 0.950 . S
C1939 C1935 1.393 . S
C1939 C1938 1.391 . S
H1940 C1948 0.950 . S
H1941 C1953 0.950 . S
H1942 C1950 0.950 . S
H1943 C1952 0.950 . S
H1944 C1954 0.950 . S
H1945 C1956 0.950 . S
H1946 C1958 0.950 . S
H1947 C1959 0.950 . S
C1948 H1940 0.950 . S
C1948 C1949 1.386 . S
C1948 C1950 1.391 . S
C1949 C1948 1.386 . S
C1949 C1953 1.393 . S
C1950 H1942 0.950 . S
C1950 C1948 1.391 . S
C1950 C1951 1.400 . S
C1951 C1950 1.400 . S
C1951 C1952 1.398 . S
C1951 C1957 1.491 . S
C1952 H1943 0.950 . S
C1952 C1951 1.398 . S
C1952 C1953 1.391 . S
C1953 H1941 0.950 . S
C1953 C1949 1.393 . S
C1953 C1952 1.391 . S
C1954 H1944 0.950 . S
C1954 C1955 1.386 . S
C1954 C1956 1.391 . S
C1955 C1954 1.386 . S
C1955 C1959 1.393 . S
C1956 H1945 0.950 . S
C1956 C1954 1.391 . S
C1956 C1957 1.400 . S
C1957 C1951 1.491 . S
C1957 C1956 1.400 . S
C1957 C1958 1.398 . S
C1958 H1946 0.950 . S
C1958 C1957 1.398 . S
C1958 C1959 1.391 . S
C1959 H1947 0.950 . S
C1959 C1955 1.393 . S
C1959 C1958 1.391 . S
H1960 C1968 0.950 . S
H1961 C1973 0.950 . S
H1962 C1970 0.950 . S
H1963 C1972 0.950 . S
H1964 C1974 0.950 . S
H1965 C1976 0.950 . S
H1966 C1978 0.950 . S
H1967 C1979 0.950 . S
C1968 H1960 0.950 . S
C1968 C1969 1.386 . S
C1968 C1970 1.391 . S
C1969 C1968 1.386 . S
C1969 C1973 1.393 . S
C1970 H1962 0.950 . S
C1970 C1968 1.391 . S
C1970 C1971 1.400 . S
C1971 C1970 1.400 . S
C1971 C1972 1.398 . S
C1971 C1977 1.491 . S
C1972 H1963 0.950 . S
C1972 C1971 1.398 . S
C1972 C1973 1.391 . S
C1973 H1961 0.950 . S
C1973 C1969 1.393 . S
C1973 C1972 1.391 . S
C1974 H1964 0.950 . S
C1974 C1975 1.386 . S
C1974 C1976 1.391 . S
C1975 C1974 1.386 . S
C1975 C1979 1.393 . S
C1976 H1965 0.950 . S
C1976 C1974 1.391 . S
C1976 C1977 1.400 . S
C1977 C1971 1.491 . S
C1977 C1976 1.400 . S
C1977 C1978 1.398 . S
C1978 H1966 0.950 . S
C1978 C1977 1.398 . S
C1978 C1979 1.391 . S
C1979 H1967 0.950 . S
C1979 C1975 1.393 . S
C1979 C1978 1.391 . S
H1980 C1988 0.950 . S
H1981 C1993 0.950 . S
H1982 C1990 0.950 . S
H1983 C1992 0.950 . S
H1984 C1994 0.950 . S
H1985 C1996 0.950 . S
H1986 C1998 0.950 . S
H1987 C1999 0.950 . S
C1988 H1980 0.950 . S
C1988 C1989 1.386 . S
C1988 C1990 1.391 . S
C1989 C1988 1.386 . S
C1989 C1993 1.393 . S
C1990 H1982 0.950 . S
C1990 C1988 1.391 . S
C1990 C1991 1.400 . S
C1991 C1990 1.400 . S
C1991 C1992 1.398 . S
C1991 C1997 1.491 . S
C1992 H1983 0.950 . S
C1992 C1991 1.398 . S
C1992 C1993 1.391 . S
C1993 H1981 0.950 . S
C1993 C1989 1.393 . S
C1993 C1992 1.391 . S
C1994 H1984 0.950 . S
C1994 C1995 1.386 . S
C1994 C1996 1.391 . S
C1995 C1994 1.386 . S
C1995 C1999 1.393 . S
C1996 H1985 0.950 . S
C1996 C1994 1.391 . S
C1996 C1997 1.400 . S
C1997 C1991 1.491 . S
C1997 C1996 1.400 . S
C1997 C1998 1.398 . S
C1998 H1986 0.950 . S
C1998 C1997 1.398 . S
C1998 C1999 1.391 . S
C1999 H1987 0.950 . S
C1999 C1995 1.393 . S
C1999 C1998 1.391 . S
H2000 C2008 0.950 1_546 S
H2001 C2013 0.950 . S
H2002 C2010 0.950 . S
H2003 C2012 0.950 . S
H2004 C2014 0.950 . S
H2005 C2016 0.950 . S
H2006 C2018 0.950 . S
H2007 C2019 0.950 . S
C2008 H2000 0.950 1_564 S
C2008 C2009 1.386 . S
C2008 C2010 1.391 1_565 S
C2009 C2008 1.386 . S
C2009 C2013 1.393 . S
C2010 H2002 0.950 . S
C2010 C2008 1.391 1_545 S
C2010 C2011 1.400 1_545 S
C2011 C2010 1.400 1_565 S
C2011 C2012 1.398 . S
C2011 C2017 1.491 . S
C2012 H2003 0.950 . S
C2012 C2011 1.398 . S
C2012 C2013 1.391 . S
C2013 H2001 0.950 . S
C2013 C2009 1.393 . S
C2013 C2012 1.391 . S
C2014 H2004 0.950 . S
C2014 C2015 1.386 1_565 S
C2014 C2016 1.391 . S
C2015 C2014 1.386 1_545 S
C2015 C2019 1.393 . S
C2016 H2005 0.950 . S
C2016 C2014 1.391 . S
C2016 C2017 1.400 . S
C2017 C2011 1.491 . S
C2017 C2016 1.400 . S
C2017 C2018 1.398 1_565 S
C2018 H2006 0.950 . S
C2018 C2017 1.398 1_545 S
C2018 C2019 1.391 . S
C2019 H2007 0.950 . S
C2019 C2015 1.393 . S
C2019 C2018 1.391 . S
H2020 C2028 0.950 . S
H2021 C2033 0.950 . S
H2022 C2030 0.950 . S
H2023 C2032 0.950 . S
H2024 C2034 0.950 . S
H2025 C2036 0.950 . S
H2026 C2038 0.950 . S
H2027 C2039 0.950 . S
C2028 H2020 0.950 . S
C2028 C2029 1.386 . S
C2028 C2030 1.391 . S
C2029 C2028 1.386 . S
C2029 C2033 1.393 1_556 S
C2030 H2022 0.950 . S
C2030 C2028 1.391 . S
C2030 C2031 1.400 . S
C2031 C2030 1.400 . S
C2031 C2032 1.398 1_556 S
C2031 C2037 1.491 . S
C2032 H2023 0.950 . S
C2032 C2031 1.398 1_554 S
C2032 C2033 1.391 . S
C2033 H2021 0.950 . S
C2033 C2029 1.393 1_554 S
C2033 C2032 1.391 . S
C2034 H2024 0.950 . S
C2034 C2035 1.373 1_554 S
C2034 C2036 1.391 . S
C2035 C2034 1.373 1_556 S
C2035 C2039 1.415 . S
C2036 H2025 0.950 . S
C2036 C2034 1.391 . S
C2036 C2037 1.400 1_554 S
C2037 C2031 1.491 . S
C2037 C2036 1.400 1_556 S
C2037 C2038 1.398 . S
C2038 H2026 0.950 . S
C2038 C2037 1.398 . S
C2038 C2039 1.391 . S
C2039 H2027 0.950 . S
C2039 C2035 1.415 . S
C2039 C2038 1.391 . S
H2040 C2048 0.950 . S
H2041 C2053 0.950 . S
H2042 C2050 0.950 . S
H2043 C2052 0.950 . S
H2044 C2054 0.950 . S
H2045 C2056 0.950 . S
H2046 C2058 0.950 . S
H2047 C2059 0.950 . S
C2048 H2040 0.950 . S
C2048 C2049 1.386 . S
C2048 C2050 1.391 . S
C2049 C2048 1.386 . S
C2049 C2053 1.393 . S
C2050 H2042 0.950 . S
C2050 C2048 1.391 . S
C2050 C2051 1.400 . S
C2051 C2050 1.400 . S
C2051 C2052 1.398 . S
C2051 C2057 1.491 . S
C2052 H2043 0.950 . S
C2052 C2051 1.398 . S
C2052 C2053 1.391 . S
C2053 H2041 0.950 . S
C2053 C2049 1.393 . S
C2053 C2052 1.391 . S
C2054 H2044 0.950 . S
C2054 C2055 1.386 . S
C2054 C2056 1.391 . S
C2055 C2054 1.386 . S
C2055 C2059 1.393 . S
C2056 H2045 0.950 . S
C2056 C2054 1.391 . S
C2056 C2057 1.400 . S
C2057 C2051 1.491 . S
C2057 C2056 1.400 . S
C2057 C2058 1.398 . S
C2058 H2046 0.950 . S
C2058 C2057 1.398 . S
C2058 C2059 1.391 . S
C2059 H2047 0.950 . S
C2059 C2055 1.393 . S
C2059 C2058 1.391 . S
H2060 C2068 0.950 . S
H2061 C2073 0.950 . S
H2062 C2070 0.950 . S
H2063 C2072 0.950 . S
H2064 C2074 0.950 . S
H2065 C2076 0.950 . S
H2066 C2078 0.950 . S
H2067 C2079 0.950 1_455 S
C2068 H2060 0.950 . S
C2068 C2069 1.386 . S
C2068 C2070 1.391 . S
C2069 C2068 1.386 . S
C2069 C2073 1.393 . S
C2070 H2062 0.950 . S
C2070 C2068 1.391 . S
C2070 C2071 1.400 . S
C2071 C2070 1.400 . S
C2071 C2072 1.398 . S
C2071 C2077 1.491 . S
C2072 H2063 0.950 . S
C2072 C2071 1.398 . S
C2072 C2073 1.391 . S
C2073 H2061 0.950 . S
C2073 C2069 1.393 . S
C2073 C2072 1.391 . S
C2074 H2064 0.950 . S
C2074 C2075 1.386 1_655 S
C2074 C2076 1.391 . S
C2075 C2074 1.386 1_455 S
C2075 C2079 1.393 1_455 S
C2076 H2065 0.950 . S
C2076 C2074 1.391 . S
C2076 C2077 1.400 . S
C2077 C2071 1.491 . S
C2077 C2076 1.400 . S
C2077 C2078 1.398 . S
C2078 H2066 0.950 . S
C2078 C2077 1.398 . S
C2078 C2079 1.391 . S
C2079 H2067 0.950 1_655 S
C2079 C2075 1.393 1_655 S
C2079 C2078 1.391 . S
H2080 C2088 0.950 . S
H2081 C2093 0.950 . S
H2082 C2090 0.950 . S
H2083 C2092 0.950 . S
H2084 C2094 0.950 . S
H2085 C2096 0.950 . S
H2086 C2098 0.950 . S
H2087 C2099 0.950 . S
C2088 H2080 0.950 . S
C2088 C2089 1.386 . S
C2088 C2090 1.391 . S
C2089 C2088 1.386 . S
C2089 C2093 1.393 . S
C2090 H2082 0.950 . S
C2090 C2088 1.391 . S
C2090 C2091 1.400 . S
C2091 C2090 1.400 . S
C2091 C2092 1.398 . S
C2091 C2097 1.491 . S
C2092 H2083 0.950 . S
C2092 C2091 1.398 . S
C2092 C2093 1.391 . S
C2093 H2081 0.950 . S
C2093 C2089 1.393 . S
C2093 C2092 1.391 . S
C2094 H2084 0.950 . S
C2094 C2095 1.386 . S
C2094 C2096 1.391 . S
C2095 C2094 1.386 . S
C2095 C2099 1.393 . S
C2096 H2085 0.950 . S
C2096 C2094 1.391 . S
C2096 C2097 1.400 . S
C2097 C2091 1.491 . S
C2097 C2096 1.400 . S
C2097 C2098 1.398 . S
C2098 H2086 0.950 . S
C2098 C2097 1.398 . S
C2098 C2099 1.391 . S
C2099 H2087 0.950 . S
C2099 C2095 1.393 . S
C2099 C2098 1.391 . S
H2100 C2108 0.950 . S
H2101 C2113 0.950 . S
H2102 C2110 0.950 . S
H2103 C2112 0.950 . S
H2104 C2114 0.950 . S
H2105 C2116 0.950 . S
H2106 C2118 0.950 . S
H2107 C2119 0.950 . S
C2108 H2100 0.950 . S
C2108 C2109 1.386 . S
C2108 C2110 1.391 . S
C2109 C2108 1.386 . S
C2109 C2113 1.393 . S
C2110 H2102 0.950 . S
C2110 C2108 1.391 . S
C2110 C2111 1.400 . S
C2111 C2110 1.400 . S
C2111 C2112 1.398 . S
C2111 C2117 1.491 . S
C2112 H2103 0.950 . S
C2112 C2111 1.398 . S
C2112 C2113 1.391 . S
C2113 H2101 0.950 . S
C2113 C2109 1.393 . S
C2113 C2112 1.391 . S
C2114 H2104 0.950 . S
C2114 C2115 1.386 . S
C2114 C2116 1.391 . S
C2115 C2114 1.386 . S
C2115 C2119 1.393 . S
C2116 H2105 0.950 . S
C2116 C2114 1.391 . S
C2116 C2117 1.400 . S
C2117 C2111 1.491 . S
C2117 C2116 1.400 . S
C2117 C2118 1.398 . S
C2118 H2106 0.950 . S
C2118 C2117 1.398 . S
C2118 C2119 1.391 . S
C2119 H2107 0.950 . S
C2119 C2115 1.393 . S
C2119 C2118 1.391 . S
H2120 C2128 0.950 . S
H2121 C2133 0.950 . S
H2122 C2130 0.950 . S
H2123 C2132 0.950 . S
H2124 C2134 0.950 . S
H2125 C2136 0.950 . S
H2126 C2138 0.950 . S
H2127 C2139 0.950 . S
C2128 H2120 0.950 . S
C2128 C2129 1.386 . S
C2128 C2130 1.391 . S
C2129 C2128 1.386 . S
C2129 C2133 1.393 . S
C2130 H2122 0.950 . S
C2130 C2128 1.391 . S
C2130 C2131 1.400 . S
C2131 C2130 1.400 . S
C2131 C2132 1.398 . S
C2131 C2137 1.491 . S
C2132 H2123 0.950 . S
C2132 C2131 1.398 . S
C2132 C2133 1.391 . S
C2133 H2121 0.950 . S
C2133 C2129 1.393 . S
C2133 C2132 1.391 . S
C2134 H2124 0.950 . S
C2134 C2135 1.386 . S
C2134 C2136 1.391 . S
C2135 C2134 1.386 . S
C2135 C2139 1.393 . S
C2136 H2125 0.950 . S
C2136 C2134 1.391 . S
C2136 C2137 1.400 . S
C2137 C2131 1.491 . S
C2137 C2136 1.400 . S
C2137 C2138 1.398 . S
C2138 H2126 0.950 . S
C2138 C2137 1.398 . S
C2138 C2139 1.391 . S
C2139 H2127 0.950 . S
C2139 C2135 1.393 . S
C2139 C2138 1.391 . S
H2140 C2148 0.950 . S
H2141 C2153 0.950 . S
H2142 C2150 0.950 . S
H2143 C2152 0.950 . S
H2144 C2154 0.950 . S
H2145 C2156 0.950 . S
H2146 C2158 0.950 . S
H2147 C2159 0.950 . S
C2148 H2140 0.950 . S
C2148 C2149 1.386 . S
C2148 C2150 1.391 . S
C2149 C2148 1.386 . S
C2149 C2153 1.393 . S
C2150 H2142 0.950 . S
C2150 C2148 1.391 . S
C2150 C2151 1.400 . S
C2151 C2150 1.400 . S
C2151 C2152 1.398 . S
C2151 C2157 1.491 . S
C2152 H2143 0.950 . S
C2152 C2151 1.398 . S
C2152 C2153 1.391 . S
C2153 H2141 0.950 . S
C2153 C2149 1.393 . S
C2153 C2152 1.391 . S
C2154 H2144 0.950 . S
C2154 C2155 1.386 . S
C2154 C2156 1.391 . S
C2155 C2154 1.386 . S
C2155 C2159 1.393 . S
C2156 H2145 0.950 . S
C2156 C2154 1.391 . S
C2156 C2157 1.400 . S
C2157 C2151 1.491 . S
C2157 C2156 1.400 . S
C2157 C2158 1.398 . S
C2158 H2146 0.950 . S
C2158 C2157 1.398 . S
C2158 C2159 1.391 . S
C2159 H2147 0.950 . S
C2159 C2155 1.393 . S
C2159 C2158 1.391 . S
H2160 C2168 0.950 . S
H2161 C2173 0.950 . S
H2162 C2170 0.950 . S
H2163 C2172 0.950 . S
H2164 C2174 0.950 . S
H2165 C2176 0.950 . S
H2166 C2178 0.950 . S
H2167 C2179 0.950 . S
C2168 H2160 0.950 . S
C2168 C2169 1.386 . S
C2168 C2170 1.391 . S
C2169 C2168 1.386 . S
C2169 C2173 1.393 . S
C2170 H2162 0.950 . S
C2170 C2168 1.391 . S
C2170 C2171 1.400 . S
C2171 C2170 1.400 . S
C2171 C2172 1.398 . S
C2171 C2177 1.491 . S
C2172 H2163 0.950 . S
C2172 C2171 1.398 . S
C2172 C2173 1.391 . S
C2173 H2161 0.950 . S
C2173 C2169 1.393 . S
C2173 C2172 1.391 . S
C2174 H2164 0.950 . S
C2174 C2175 1.386 . S
C2174 C2176 1.391 . S
C2175 C2174 1.386 . S
C2175 C2179 1.393 . S
C2176 H2165 0.950 . S
C2176 C2174 1.391 . S
C2176 C2177 1.400 . S
C2177 C2171 1.491 . S
C2177 C2176 1.400 . S
C2177 C2178 1.398 . S
C2178 H2166 0.950 . S
C2178 C2177 1.398 . S
C2178 C2179 1.391 . S
C2179 H2167 0.950 . S
C2179 C2175 1.393 . S
C2179 C2178 1.391 . S
H2180 C2188 0.950 . S
H2181 C2193 0.950 . S
H2182 C2190 0.950 . S
H2183 C2192 0.950 . S
H2184 C2194 0.950 . S
H2185 C2196 0.950 . S
H2186 C2198 0.950 . S
H2187 C2199 0.950 . S
C2188 H2180 0.950 . S
C2188 C2189 1.386 . S
C2188 C2190 1.391 . S
C2189 C2188 1.386 . S
C2189 C2193 1.393 . S
C2190 H2182 0.950 . S
C2190 C2188 1.391 . S
C2190 C2191 1.400 . S
C2191 C2190 1.400 . S
C2191 C2192 1.398 . S
C2191 C2197 1.491 . S
C2192 H2183 0.950 . S
C2192 C2191 1.398 . S
C2192 C2193 1.391 . S
C2193 H2181 0.950 . S
C2193 C2189 1.393 . S
C2193 C2192 1.391 . S
C2194 H2184 0.950 . S
C2194 C2195 1.386 . S
C2194 C2196 1.391 . S
C2195 C2194 1.386 . S
C2195 C2199 1.393 . S
C2196 H2185 0.950 . S
C2196 C2194 1.391 . S
C2196 C2197 1.400 . S
C2197 C2191 1.491 . S
C2197 C2196 1.400 . S
C2197 C2198 1.398 . S
C2198 H2186 0.950 . S
C2198 C2197 1.398 . S
C2198 C2199 1.391 . S
C2199 H2187 0.950 . S
C2199 C2195 1.393 . S
C2199 C2198 1.391 . S
H2200 C2208 0.950 . S
H2201 C2213 0.950 . S
H2202 C2210 0.950 . S
H2203 C2212 0.950 . S
H2204 C2214 0.950 . S
H2205 C2216 0.950 . S
H2206 C2218 0.950 . S
H2207 C2219 0.950 . S
C2208 H2200 0.950 . S
C2208 C2209 1.386 . S
C2208 C2210 1.391 . S
C2209 C2208 1.386 . S
C2209 C2213 1.393 . S
C2210 H2202 0.950 . S
C2210 C2208 1.391 . S
C2210 C2211 1.400 . S
C2211 C2210 1.400 . S
C2211 C2212 1.398 . S
C2211 C2217 1.491 . S
C2212 H2203 0.950 . S
C2212 C2211 1.398 . S
C2212 C2213 1.391 . S
C2213 H2201 0.950 . S
C2213 C2209 1.393 . S
C2213 C2212 1.391 . S
C2214 H2204 0.950 . S
C2214 C2215 1.386 . S
C2214 C2216 1.391 . S
C2215 C2214 1.386 . S
C2215 C2219 1.393 . S
C2216 H2205 0.950 . S
C2216 C2214 1.391 . S
C2216 C2217 1.400 . S
C2217 C2211 1.491 . S
C2217 C2216 1.400 . S
C2217 C2218 1.398 . S
C2218 H2206 0.950 . S
C2218 C2217 1.398 . S
C2218 C2219 1.391 . S
C2219 H2207 0.950 . S
C2219 C2215 1.393 . S
C2219 C2218 1.391 . S
H2220 C2228 0.950 . S
H2221 C2233 0.950 . S
H2222 C2230 0.950 . S
H2223 C2232 0.950 . S
H2224 C2234 0.950 . S
H2225 C2236 0.950 . S
H2226 C2238 0.950 . S
H2227 C2239 0.950 . S
C2228 H2220 0.950 . S
C2228 C2229 1.386 . S
C2228 C2230 1.391 . S
C2229 C2228 1.386 . S
C2229 C2233 1.393 . S
C2230 H2222 0.950 . S
C2230 C2228 1.391 . S
C2230 C2231 1.400 . S
C2231 C2230 1.400 . S
C2231 C2232 1.398 . S
C2231 C2237 1.491 . S
C2232 H2223 0.950 . S
C2232 C2231 1.398 . S
C2232 C2233 1.391 . S
C2233 H2221 0.950 . S
C2233 C2229 1.393 . S
C2233 C2232 1.391 . S
C2234 H2224 0.950 . S
C2234 C2235 1.386 . S
C2234 C2236 1.391 . S
C2235 C2234 1.386 . S
C2235 C2239 1.393 . S
C2236 H2225 0.950 . S
C2236 C2234 1.391 . S
C2236 C2237 1.400 . S
C2237 C2231 1.491 . S
C2237 C2236 1.400 . S
C2237 C2238 1.398 . S
C2238 H2226 0.950 . S
C2238 C2237 1.398 . S
C2238 C2239 1.391 . S
C2239 H2227 0.950 . S
C2239 C2235 1.393 . S
C2239 C2238 1.391 . S
H2240 C2248 0.950 . S
H2241 C2253 0.950 . S
H2242 C2250 0.950 . S
H2243 C2252 0.950 . S
H2244 C2254 0.950 . S
H2245 C2256 0.950 . S
H2246 C2258 0.950 . S
H2247 C2259 0.950 . S
C2248 H2240 0.950 . S
C2248 C2249 1.386 . S
C2248 C2250 1.391 . S
C2249 C2248 1.386 . S
C2249 C2253 1.393 . S
C2250 H2242 0.950 . S
C2250 C2248 1.391 . S
C2250 C2251 1.400 . S
C2251 C2250 1.400 . S
C2251 C2252 1.398 . S
C2251 C2257 1.491 . S
C2252 H2243 0.950 . S
C2252 C2251 1.398 . S
C2252 C2253 1.391 . S
C2253 H2241 0.950 . S
C2253 C2249 1.393 . S
C2253 C2252 1.391 . S
C2254 H2244 0.950 . S
C2254 C2255 1.386 . S
C2254 C2256 1.391 . S
C2255 C2254 1.386 . S
C2255 C2259 1.393 . S
C2256 H2245 0.950 . S
C2256 C2254 1.391 . S
C2256 C2257 1.400 . S
C2257 C2251 1.491 . S
C2257 C2256 1.400 . S
C2257 C2258 1.398 . S
C2258 H2246 0.950 . S
C2258 C2257 1.398 . S
C2258 C2259 1.391 . S
C2259 H2247 0.950 . S
C2259 C2255 1.393 . S
C2259 C2258 1.391 . S
H2260 C2268 0.950 . S
H2261 C2273 0.950 . S
H2262 C2270 0.950 . S
H2263 C2272 0.950 . S
H2264 C2274 0.950 . S
H2265 C2276 0.950 . S
H2266 C2278 0.950 . S
H2267 C2279 0.950 . S
C2268 H2260 0.950 . S
C2268 C2269 1.386 . S
C2268 C2270 1.391 . S
C2269 C2268 1.386 . S
C2269 C2273 1.393 . S
C2270 H2262 0.950 . S
C2270 C2268 1.391 . S
C2270 C2271 1.400 . S
C2271 C2270 1.400 . S
C2271 C2272 1.398 . S
C2271 C2277 1.491 . S
C2272 H2263 0.950 . S
C2272 C2271 1.398 . S
C2272 C2273 1.391 . S
C2273 H2261 0.950 . S
C2273 C2269 1.393 . S
C2273 C2272 1.391 . S
C2274 H2264 0.950 . S
C2274 C2275 1.386 . S
C2274 C2276 1.391 . S
C2275 C2274 1.386 . S
C2275 C2279 1.393 . S
C2276 H2265 0.950 . S
C2276 C2274 1.391 . S
C2276 C2277 1.400 . S
C2277 C2271 1.491 . S
C2277 C2276 1.400 . S
C2277 C2278 1.398 . S
C2278 H2266 0.950 . S
C2278 C2277 1.398 . S
C2278 C2279 1.391 . S
C2279 H2267 0.950 . S
C2279 C2275 1.393 . S
C2279 C2278 1.391 . S
H2280 C2288 0.950 . S
H2281 C2293 0.950 . S
H2282 C2290 0.950 . S
H2283 C2292 0.950 . S
H2284 C2294 0.950 1_545 S
H2285 C2296 0.950 . S
H2286 C2298 0.950 . S
H2287 C2299 0.950 . S
C2288 H2280 0.950 . S
C2288 C2289 1.386 . S
C2288 C2290 1.391 . S
C2289 C2288 1.386 . S
C2289 C2293 1.393 . S
C2290 H2282 0.950 . S
C2290 C2288 1.391 . S
C2290 C2291 1.400 . S
C2291 C2290 1.400 . S
C2291 C2292 1.398 . S
C2291 C2297 1.491 . S
C2292 H2283 0.950 . S
C2292 C2291 1.398 . S
C2292 C2293 1.391 . S
C2293 H2281 0.950 . S
C2293 C2289 1.393 . S
C2293 C2292 1.391 . S
C2294 H2284 0.950 1_565 S
C2294 C2295 1.386 . S
C2294 C2296 1.391 . S
C2295 C2294 1.386 . S
C2295 C2299 1.393 . S
C2296 H2285 0.950 . S
C2296 C2294 1.391 . S
C2296 C2297 1.400 . S
C2297 C2291 1.491 . S
C2297 C2296 1.400 . S
C2297 C2298 1.398 . S
C2298 H2286 0.950 . S
C2298 C2297 1.398 . S
C2298 C2299 1.391 . S
C2299 H2287 0.950 . S
C2299 C2295 1.393 . S
C2299 C2298 1.391 . S
H2300 C2308 0.950 . S
H2301 C2313 0.950 . S
H2302 C2310 0.950 . S
H2303 C2312 0.950 . S
H2304 C2314 0.950 . S
H2305 C2316 0.950 . S
H2306 C2318 0.950 . S
H2307 C2319 0.950 . S
C2308 H2300 0.950 . S
C2308 C2309 1.386 . S
C2308 C2310 1.391 . S
C2309 C2308 1.386 . S
C2309 C2313 1.393 . S
C2310 H2302 0.950 . S
C2310 C2308 1.391 . S
C2310 C2311 1.400 . S
C2311 C2310 1.400 . S
C2311 C2312 1.398 . S
C2311 C2317 1.491 . S
C2312 H2303 0.950 . S
C2312 C2311 1.398 . S
C2312 C2313 1.391 . S
C2313 H2301 0.950 . S
C2313 C2309 1.393 . S
C2313 C2312 1.391 . S
C2314 H2304 0.950 . S
C2314 C2315 1.386 . S
C2314 C2316 1.391 . S
C2315 C2314 1.386 . S
C2315 C2319 1.393 . S
C2316 H2305 0.950 . S
C2316 C2314 1.391 . S
C2316 C2317 1.400 . S
C2317 C2311 1.491 . S
C2317 C2316 1.400 . S
C2317 C2318 1.398 . S
C2318 H2306 0.950 . S
C2318 C2317 1.398 . S
C2318 C2319 1.391 . S
C2319 H2307 0.950 . S
C2319 C2315 1.393 . S
C2319 C2318 1.391 . S
H2320 C2328 0.950 . S
H2321 C2333 0.950 . S
H2322 C2330 0.950 . S
H2323 C2332 0.950 . S
H2324 C2334 0.950 . S
H2325 C2336 0.950 . S
H2326 C2338 0.950 . S
H2327 C2339 0.950 . S
C2328 H2320 0.950 . S
C2328 C2329 1.386 1_565 S
C2328 C2330 1.391 . S
C2329 C2328 1.386 1_545 S
C2329 C2333 1.393 . S
C2330 H2322 0.950 . S
C2330 C2328 1.391 . S
C2330 C2331 1.400 1_565 S
C2331 C2330 1.400 1_545 S
C2331 C2332 1.398 . S
C2331 C2337 1.491 . S
C2332 H2323 0.950 . S
C2332 C2331 1.398 . S
C2332 C2333 1.391 . S
C2333 H2321 0.950 . S
C2333 C2329 1.393 . S
C2333 C2332 1.391 . S
C2334 H2324 0.950 . S
C2334 C2335 1.386 . S
C2334 C2336 1.391 . S
C2335 C2334 1.386 . S
C2335 C2339 1.393 1_545 S
C2336 H2325 0.950 . S
C2336 C2334 1.391 . S
C2336 C2337 1.400 . S
C2337 C2331 1.491 . S
C2337 C2336 1.400 . S
C2337 C2338 1.398 1_545 S
C2338 H2326 0.950 . S
C2338 C2337 1.398 1_565 S
C2338 C2339 1.391 . S
C2339 H2327 0.950 . S
C2339 C2335 1.393 1_565 S
C2339 C2338 1.391 . S
H2340 C2348 0.950 . S
H2341 C2353 0.950 . S
H2342 C2350 0.950 . S
H2343 C2352 0.950 . S
H2344 C2354 0.950 . S
H2345 C2356 0.950 . S
H2346 C2358 0.950 . S
H2347 C2359 0.950 . S
C2348 H2340 0.950 . S
C2348 C2349 1.386 . S
C2348 C2350 1.391 . S
C2349 C2348 1.386 . S
C2349 C2353 1.393 . S
C2350 H2342 0.950 . S
C2350 C2348 1.391 . S
C2350 C2351 1.400 . S
C2351 C2350 1.400 . S
C2351 C2352 1.398 . S
C2351 C2357 1.491 . S
C2352 H2343 0.950 . S
C2352 C2351 1.398 . S
C2352 C2353 1.391 . S
C2353 H2341 0.950 . S
C2353 C2349 1.393 . S
C2353 C2352 1.391 . S
C2354 H2344 0.950 . S
C2354 C2355 1.386 . S
C2354 C2356 1.391 . S
C2355 C2354 1.386 . S
C2355 C2359 1.393 . S
C2356 H2345 0.950 . S
C2356 C2354 1.391 . S
C2356 C2357 1.400 . S
C2357 C2351 1.491 . S
C2357 C2356 1.400 . S
C2357 C2358 1.398 . S
C2358 H2346 0.950 . S
C2358 C2357 1.398 . S
C2358 C2359 1.391 . S
C2359 H2347 0.950 . S
C2359 C2355 1.393 . S
C2359 C2358 1.391 . S
H2360 C2368 0.950 . S
H2361 C2373 0.950 . S
H2362 C2370 0.950 . S
H2363 C2372 0.950 . S
H2364 C2374 0.950 . S
H2365 C2376 0.950 . S
H2366 C2378 0.950 . S
H2367 C2379 0.950 . S
C2368 H2360 0.950 . S
C2368 C2369 1.386 . S
C2368 C2370 1.391 . S
C2369 C2368 1.386 . S
C2369 C2373 1.393 . S
C2370 H2362 0.950 . S
C2370 C2368 1.391 . S
C2370 C2371 1.400 . S
C2371 C2370 1.400 . S
C2371 C2372 1.398 . S
C2371 C2377 1.491 . S
C2372 H2363 0.950 . S
C2372 C2371 1.398 . S
C2372 C2373 1.391 . S
C2373 H2361 0.950 . S
C2373 C2369 1.393 . S
C2373 C2372 1.391 . S
C2374 H2364 0.950 . S
C2374 C2375 1.386 . S
C2374 C2376 1.391 . S
C2375 C2374 1.386 . S
C2375 C2379 1.393 . S
C2376 H2365 0.950 . S
C2376 C2374 1.391 . S
C2376 C2377 1.400 . S
C2377 C2371 1.491 . S
C2377 C2376 1.400 . S
C2377 C2378 1.398 . S
C2378 H2366 0.950 . S
C2378 C2377 1.398 . S
C2378 C2379 1.391 . S
C2379 H2367 0.950 . S
C2379 C2375 1.393 . S
C2379 C2378 1.391 . S
H2380 C2388 0.950 . S
H2381 C2393 0.950 . S
H2382 C2390 0.950 . S
H2383 C2392 0.950 . S
H2384 C2394 0.950 . S
H2385 C2396 0.950 . S
H2386 C2398 0.950 . S
H2387 C2399 0.950 . S
C2388 H2380 0.950 . S
C2388 C2389 1.386 . S
C2388 C2390 1.391 . S
C2389 C2388 1.386 . S
C2389 C2393 1.393 . S
C2390 H2382 0.950 . S
C2390 C2388 1.391 . S
C2390 C2391 1.400 . S
C2391 C2390 1.400 . S
C2391 C2392 1.398 . S
C2391 C2397 1.491 . S
C2392 H2383 0.950 . S
C2392 C2391 1.398 . S
C2392 C2393 1.391 . S
C2393 H2381 0.950 . S
C2393 C2389 1.393 . S
C2393 C2392 1.391 . S
C2394 H2384 0.950 . S
C2394 C2395 1.386 . S
C2394 C2396 1.391 . S
C2395 C2394 1.386 . S
C2395 C2399 1.393 . S
C2396 H2385 0.950 . S
C2396 C2394 1.391 . S
C2396 C2397 1.400 . S
C2397 C2391 1.491 . S
C2397 C2396 1.400 . S
C2397 C2398 1.398 . S
C2398 H2386 0.950 . S
C2398 C2397 1.398 . S
C2398 C2399 1.391 . S
C2399 H2387 0.950 . S
C2399 C2395 1.393 . S
C2399 C2398 1.391 . S
H2400 C2408 0.950 . S
H2401 C2413 0.950 . S
H2402 C2410 0.950 . S
H2403 C2412 0.950 . S
H2404 C2414 0.950 . S
H2405 C2416 0.950 . S
H2406 C2418 0.950 1_565 S
H2407 C2419 0.950 . S
C2408 H2400 0.950 . S
C2408 C2409 1.386 . S
C2408 C2410 1.391 . S
C2409 C2408 1.386 . S
C2409 C2413 1.393 1_565 S
C2410 H2402 0.950 . S
C2410 C2408 1.391 . S
C2410 C2411 1.400 1_565 S
C2411 C2410 1.400 1_545 S
C2411 C2412 1.398 . S
C2411 C2417 1.491 . S
C2412 H2403 0.950 . S
C2412 C2411 1.398 . S
C2412 C2413 1.391 . S
C2413 H2401 0.950 . S
C2413 C2409 1.393 1_545 S
C2413 C2412 1.391 . S
C2414 H2404 0.950 . S
C2414 C2415 1.386 . S
C2414 C2416 1.391 . S
C2415 C2414 1.386 . S
C2415 C2419 1.393 . S
C2416 H2405 0.950 . S
C2416 C2414 1.391 . S
C2416 C2417 1.400 . S
C2417 C2411 1.491 . S
C2417 C2416 1.400 . S
C2417 C2418 1.398 . S
C2418 H2406 0.950 1_545 S
C2418 C2417 1.398 . S
C2418 C2419 1.391 . S
C2419 H2407 0.950 . S
C2419 C2415 1.393 . S
C2419 C2418 1.391 . S
H2420 C2428 0.950 . S
H2421 C2433 0.950 . S
H2422 C2430 0.950 . S
H2423 C2432 0.950 . S
H2424 C2434 0.950 . S
H2425 C2436 0.950 . S
H2426 C2438 0.950 . S
H2427 C2439 0.950 . S
C2428 H2420 0.950 . S
C2428 C2429 1.386 . S
C2428 C2430 1.391 . S
C2429 C2428 1.386 . S
C2429 C2433 1.393 . S
C2430 H2422 0.950 . S
C2430 C2428 1.391 . S
C2430 C2431 1.400 . S
C2431 C2430 1.400 . S
C2431 C2432 1.398 . S
C2431 C2437 1.491 . S
C2432 H2423 0.950 . S
C2432 C2431 1.398 . S
C2432 C2433 1.391 . S
C2433 H2421 0.950 . S
C2433 C2429 1.393 . S
C2433 C2432 1.391 . S
C2434 H2424 0.950 . S
C2434 C2435 1.386 . S
C2434 C2436 1.391 . S
C2435 C2434 1.386 . S
C2435 C2439 1.393 . S
C2436 H2425 0.950 . S
C2436 C2434 1.391 . S
C2436 C2437 1.400 . S
C2437 C2431 1.491 . S
C2437 C2436 1.400 . S
C2437 C2438 1.398 . S
C2438 H2426 0.950 . S
C2438 C2437 1.398 . S
C2438 C2439 1.391 . S
C2439 H2427 0.950 . S
C2439 C2435 1.393 . S
C2439 C2438 1.391 . S
H2440 C2448 0.950 . S
H2441 C2453 0.950 . S
H2442 C2450 0.950 . S
H2443 C2452 0.950 . S
H2444 C2454 0.950 . S
H2445 C2456 0.950 . S
H2446 C2458 0.950 . S
H2447 C2459 0.950 . S
C2448 H2440 0.950 . S
C2448 C2449 1.386 1_565 S
C2448 C2450 1.391 . S
C2449 C2448 1.386 1_545 S
C2449 C2453 1.393 . S
C2450 H2442 0.950 . S
C2450 C2448 1.391 . S
C2450 C2451 1.400 1_565 S
C2451 C2450 1.400 1_545 S
C2451 C2452 1.398 . S
C2451 C2457 1.491 . S
C2452 H2443 0.950 . S
C2452 C2451 1.398 . S
C2452 C2453 1.391 . S
C2453 H2441 0.950 . S
C2453 C2449 1.393 . S
C2453 C2452 1.391 . S
C2454 H2444 0.950 . S
C2454 C2455 1.386 . S
C2454 C2456 1.391 . S
C2455 C2454 1.386 . S
C2455 C2459 1.393 1_545 S
C2456 H2445 0.950 . S
C2456 C2454 1.391 . S
C2456 C2457 1.400 . S
C2457 C2451 1.491 . S
C2457 C2456 1.400 . S
C2457 C2458 1.398 1_545 S
C2458 H2446 0.950 . S
C2458 C2457 1.398 1_565 S
C2458 C2459 1.391 . S
C2459 H2447 0.950 . S
C2459 C2455 1.393 1_565 S
C2459 C2458 1.391 . S
H2460 C2468 0.950 . S
H2461 C2473 0.950 . S
H2462 C2470 0.950 . S
H2463 C2472 0.950 . S
H2464 C2474 0.950 . S
H2465 C2476 0.950 . S
H2466 C2478 0.950 . S
H2467 C2479 0.950 . S
C2468 H2460 0.950 . S
C2468 C2469 1.386 . S
C2468 C2470 1.391 . S
C2469 C2468 1.386 . S
C2469 C2473 1.393 . S
C2470 H2462 0.950 . S
C2470 C2468 1.391 . S
C2470 C2471 1.400 . S
C2471 C2470 1.400 . S
C2471 C2472 1.398 . S
C2471 C2477 1.491 . S
C2472 H2463 0.950 . S
C2472 C2471 1.398 . S
C2472 C2473 1.391 . S
C2473 H2461 0.950 . S
C2473 C2469 1.393 . S
C2473 C2472 1.391 . S
C2474 H2464 0.950 . S
C2474 C2475 1.386 . S
C2474 C2476 1.391 . S
C2475 C2474 1.386 . S
C2475 C2479 1.393 . S
C2476 H2465 0.950 . S
C2476 C2474 1.391 . S
C2476 C2477 1.400 . S
C2477 C2471 1.491 . S
C2477 C2476 1.400 . S
C2477 C2478 1.398 . S
C2478 H2466 0.950 . S
C2478 C2477 1.398 . S
C2478 C2479 1.391 . S
C2479 H2467 0.950 . S
C2479 C2475 1.393 . S
C2479 C2478 1.391 . S
H2480 C2488 0.950 1_556 S
H2481 C2493 0.950 . S
H2482 C2490 0.950 . S
H2483 C2492 0.950 . S
H2484 C2494 0.950 . S
H2485 C2496 0.950 . S
H2486 C2498 0.950 . S
H2487 C2499 0.950 . S
C2488 H2480 0.950 1_554 S
C2488 C2489 1.385 . S
C2488 C2490 1.391 1_554 S
C2489 C2488 1.385 . S
C2489 C2493 1.393 . S
C2490 H2482 0.950 . S
C2490 C2488 1.391 1_556 S
C2490 C2491 1.400 1_556 S
C2491 C2490 1.400 1_554 S
C2491 C2492 1.398 . S
C2491 C2497 1.491 . S
C2492 H2483 0.950 . S
C2492 C2491 1.398 . S
C2492 C2493 1.391 . S
C2493 H2481 0.950 . S
C2493 C2489 1.393 . S
C2493 C2492 1.391 . S
C2494 H2484 0.950 . S
C2494 C2495 1.386 . S
C2494 C2496 1.391 . S
C2495 C2494 1.386 . S
C2495 C2499 1.393 1_554 S
C2496 H2485 0.950 . S
C2496 C2494 1.391 . S
C2496 C2497 1.400 . S
C2497 C2491 1.491 . S
C2497 C2496 1.400 . S
C2497 C2498 1.398 1_554 S
C2498 H2486 0.950 . S
C2498 C2497 1.398 1_556 S
C2498 C2499 1.391 . S
C2499 H2487 0.950 . S
C2499 C2495 1.393 1_556 S
C2499 C2498 1.391 . S
H2500 C2508 0.950 . S
H2501 C2513 0.950 . S
H2502 C2510 0.950 . S
H2503 C2512 0.950 . S
H2504 C2514 0.976 . S
H2505 C2516 0.950 . S
H2506 C2518 0.950 . S
H2507 C2519 0.950 . S
C2508 H2500 0.950 . S
C2508 C2509 1.386 . S
C2508 C2510 1.391 . S
C2509 C2508 1.386 . S
C2509 C2513 1.393 . S
C2510 H2502 0.950 . S
C2510 C2508 1.391 . S
C2510 C2511 1.400 . S
C2511 C2510 1.400 . S
C2511 C2512 1.398 . S
C2511 C2517 1.491 . S
C2512 H2503 0.950 . S
C2512 C2511 1.398 . S
C2512 C2513 1.391 . S
C2513 H2501 0.950 . S
C2513 C2509 1.393 . S
C2513 C2512 1.391 . S
C2514 H2504 0.976 . S
C2514 C2515 1.386 . S
C2514 C2516 1.391 . S
C2515 C2514 1.386 . S
C2515 C2519 1.393 . S
C2516 H2505 0.950 . S
C2516 C2514 1.391 . S
C2516 C2517 1.400 . S
C2517 C2511 1.491 . S
C2517 C2516 1.400 . S
C2517 C2518 1.398 . S
C2518 H2506 0.950 . S
C2518 C2517 1.398 . S
C2518 C2519 1.391 . S
C2519 H2507 0.950 . S
C2519 C2515 1.393 . S
C2519 C2518 1.391 . S
H2520 C2528 0.950 . S
H2521 C2533 0.950 . S
H2522 C2530 0.950 . S
H2523 C2532 0.950 . S
H2524 C2534 0.950 . S
H2525 C2536 0.950 . S
H2526 C2538 0.950 . S
H2527 C2539 0.950 . S
C2528 H2520 0.950 . S
C2528 C2529 1.386 . S
C2528 C2530 1.391 . S
C2529 C2528 1.386 . S
C2529 C2533 1.393 . S
C2530 H2522 0.950 . S
C2530 C2528 1.391 . S
C2530 C2531 1.400 . S
C2531 C2530 1.400 . S
C2531 C2532 1.398 . S
C2531 C2537 1.491 . S
C2532 H2523 0.950 . S
C2532 C2531 1.398 . S
C2532 C2533 1.391 . S
C2533 H2521 0.950 . S
C2533 C2529 1.393 . S
C2533 C2532 1.391 . S
C2534 H2524 0.950 . S
C2534 C2535 1.386 . S
C2534 C2536 1.391 . S
C2535 C2534 1.386 . S
C2535 C2539 1.393 . S
C2536 H2525 0.950 . S
C2536 C2534 1.391 . S
C2536 C2537 1.400 . S
C2537 C2531 1.491 . S
C2537 C2536 1.400 . S
C2537 C2538 1.398 . S
C2538 H2526 0.950 . S
C2538 C2537 1.398 . S
C2538 C2539 1.391 . S
C2539 H2527 0.950 . S
C2539 C2535 1.393 . S
C2539 C2538 1.391 . S
H2540 C2548 0.950 . S
H2541 C2553 0.950 . S
H2542 C2550 0.950 . S
H2543 C2552 0.950 . S
H2544 C2554 0.950 . S
H2545 C2556 0.950 . S
H2546 C2558 0.950 . S
H2547 C2559 0.950 . S
C2548 H2540 0.950 . S
C2548 C2549 1.386 . S
C2548 C2550 1.391 . S
C2549 C2548 1.386 . S
C2549 C2553 1.393 . S
C2550 H2542 0.950 . S
C2550 C2548 1.391 . S
C2550 C2551 1.400 . S
C2551 C2550 1.400 . S
C2551 C2552 1.398 . S
C2551 C2557 1.491 . S
C2552 H2543 0.950 . S
C2552 C2551 1.398 . S
C2552 C2553 1.391 . S
C2553 H2541 0.950 . S
C2553 C2549 1.393 . S
C2553 C2552 1.391 . S
C2554 H2544 0.950 . S
C2554 C2555 1.386 . S
C2554 C2556 1.391 . S
C2555 C2554 1.386 . S
C2555 C2559 1.393 . S
C2556 H2545 0.950 . S
C2556 C2554 1.391 . S
C2556 C2557 1.400 . S
C2557 C2551 1.491 . S
C2557 C2556 1.400 . S
C2557 C2558 1.398 . S
C2558 H2546 0.950 . S
C2558 C2557 1.398 . S
C2558 C2559 1.391 . S
C2559 H2547 0.950 . S
C2559 C2555 1.393 . S
C2559 C2558 1.391 . S
H2560 C2568 0.950 . S
H2561 C2573 0.950 . S
H2562 C2570 0.950 . S
H2563 C2572 0.950 . S
H2564 C2574 0.950 . S
H2565 C2576 0.950 . S
H2566 C2578 0.950 . S
H2567 C2579 0.950 . S
C2568 H2560 0.950 . S
C2568 C2569 1.386 . S
C2568 C2570 1.391 . S
C2569 C2568 1.386 . S
C2569 C2573 1.393 1_545 S
C2570 H2562 0.950 . S
C2570 C2568 1.391 . S
C2570 C2571 1.400 1_545 S
C2571 C2570 1.400 1_565 S
C2571 C2572 1.398 . S
C2571 C2577 1.491 . S
C2572 H2563 0.950 . S
C2572 C2571 1.398 . S
C2572 C2573 1.391 . S
C2573 H2561 0.950 . S
C2573 C2569 1.393 1_565 S
C2573 C2572 1.391 . S
C2574 H2564 0.950 . S
C2574 C2575 1.386 . S
C2574 C2576 1.391 . S
C2575 C2574 1.386 . S
C2575 C2579 1.393 . S
C2576 H2565 0.950 . S
C2576 C2574 1.391 . S
C2576 C2577 1.400 . S
C2577 C2571 1.491 . S
C2577 C2576 1.400 . S
C2577 C2578 1.398 . S
C2578 H2566 0.950 . S
C2578 C2577 1.398 . S
C2578 C2579 1.391 . S
C2579 H2567 0.950 . S
C2579 C2575 1.393 . S
C2579 C2578 1.391 . S
H2580 C2588 0.950 . S
H2581 C2593 0.950 . S
H2582 C2590 0.950 . S
H2583 C2592 0.950 . S
H2584 C2594 0.950 . S
H2585 C2596 0.950 . S
H2586 C2598 0.950 . S
H2587 C2599 0.950 . S
C2588 H2580 0.950 . S
C2588 C2589 1.386 . S
C2588 C2590 1.391 . S
C2589 C2588 1.386 . S
C2589 C2593 1.393 . S
C2590 H2582 0.950 . S
C2590 C2588 1.391 . S
C2590 C2591 1.400 . S
C2591 C2590 1.400 . S
C2591 C2592 1.398 . S
C2591 C2597 1.491 . S
C2592 H2583 0.950 . S
C2592 C2591 1.398 . S
C2592 C2593 1.391 . S
C2593 H2581 0.950 . S
C2593 C2589 1.393 . S
C2593 C2592 1.391 . S
C2594 H2584 0.950 . S
C2594 C2595 1.386 . S
C2594 C2596 1.391 . S
C2595 C2594 1.386 . S
C2595 C2599 1.393 . S
C2596 H2585 0.950 . S
C2596 C2594 1.391 . S
C2596 C2597 1.400 . S
C2597 C2591 1.491 . S
C2597 C2596 1.400 . S
C2597 C2598 1.398 . S
C2598 H2586 0.950 . S
C2598 C2597 1.398 . S
C2598 C2599 1.391 . S
C2599 H2587 0.950 . S
C2599 C2595 1.393 . S
C2599 C2598 1.391 . S
H2600 C2608 0.950 . S
H2601 C2613 0.950 . S
H2602 C2610 0.950 . S
H2603 C2612 0.950 . S
H2604 C2614 0.950 . S
H2605 C2616 0.950 . S
H2606 C2618 0.950 . S
H2607 C2619 0.950 . S
C2608 H2600 0.950 . S
C2608 C2609 1.386 . S
C2608 C2610 1.391 . S
C2609 C2608 1.386 . S
C2609 C2613 1.393 . S
C2610 H2602 0.950 . S
C2610 C2608 1.391 . S
C2610 C2611 1.400 . S
C2611 C2610 1.400 . S
C2611 C2612 1.398 . S
C2611 C2617 1.491 . S
C2612 H2603 0.950 . S
C2612 C2611 1.398 . S
C2612 C2613 1.391 . S
C2613 H2601 0.950 . S
C2613 C2609 1.393 . S
C2613 C2612 1.391 . S
C2614 H2604 0.950 . S
C2614 C2615 1.386 . S
C2614 C2616 1.391 . S
C2615 C2614 1.386 . S
C2615 C2619 1.393 . S
C2616 H2605 0.950 . S
C2616 C2614 1.391 . S
C2616 C2617 1.400 . S
C2617 C2611 1.491 . S
C2617 C2616 1.400 . S
C2617 C2618 1.398 . S
C2618 H2606 0.950 . S
C2618 C2617 1.398 . S
C2618 C2619 1.391 . S
C2619 H2607 0.950 . S
C2619 C2615 1.393 . S
C2619 C2618 1.391 . S
H2620 C2628 0.950 . S
H2621 C2633 0.950 . S
H2622 C2630 0.950 . S
H2623 C2632 0.950 . S
H2624 C2634 0.950 . S
H2625 C2636 0.950 . S
H2626 C2638 0.950 . S
H2627 C2639 0.950 . S
C2628 H2620 0.950 . S
C2628 C2629 1.386 . S
C2628 C2630 1.391 . S
C2629 C2628 1.386 . S
C2629 C2633 1.393 . S
C2630 H2622 0.950 . S
C2630 C2628 1.391 . S
C2630 C2631 1.400 . S
C2631 C2630 1.400 . S
C2631 C2632 1.398 . S
C2631 C2637 1.491 . S
C2632 H2623 0.950 . S
C2632 C2631 1.398 . S
C2632 C2633 1.391 . S
C2633 H2621 0.950 . S
C2633 C2629 1.393 . S
C2633 C2632 1.391 . S
C2634 H2624 0.950 . S
C2634 C2635 1.386 . S
C2634 C2636 1.391 . S
C2635 C2634 1.386 . S
C2635 C2639 1.393 . S
C2636 H2625 0.950 . S
C2636 C2634 1.391 . S
C2636 C2637 1.400 . S
C2637 C2631 1.491 . S
C2637 C2636 1.400 . S
C2637 C2638 1.398 . S
C2638 H2626 0.950 . S
C2638 C2637 1.398 . S
C2638 C2639 1.391 . S
C2639 H2627 0.950 . S
C2639 C2635 1.393 . S
C2639 C2638 1.391 . S
H2640 C2648 0.950 . S
H2641 C2653 0.950 . S
H2642 C2650 0.950 . S
H2643 C2652 0.950 . S
H2644 C2654 0.950 . S
H2645 C2656 0.950 . S
H2646 C2658 0.950 . S
H2647 C2659 0.950 . S
C2648 H2640 0.950 . S
C2648 C2649 1.386 . S
C2648 C2650 1.391 . S
C2649 C2648 1.386 . S
C2649 C2653 1.393 . S
C2650 H2642 0.950 . S
C2650 C2648 1.391 . S
C2650 C2651 1.400 . S
C2651 C2650 1.400 . S
C2651 C2652 1.398 . S
C2651 C2657 1.491 . S
C2652 H2643 0.950 . S
C2652 C2651 1.398 . S
C2652 C2653 1.391 . S
C2653 H2641 0.950 . S
C2653 C2649 1.393 . S
C2653 C2652 1.391 . S
C2654 H2644 0.950 . S
C2654 C2655 1.386 . S
C2654 C2656 1.391 . S
C2655 C2654 1.386 . S
C2655 C2659 1.393 . S
C2656 H2645 0.950 . S
C2656 C2654 1.391 . S
C2656 C2657 1.400 . S
C2657 C2651 1.491 . S
C2657 C2656 1.400 . S
C2657 C2658 1.398 . S
C2658 H2646 0.950 . S
C2658 C2657 1.398 . S
C2658 C2659 1.391 . S
C2659 H2647 0.950 . S
C2659 C2655 1.393 . S
C2659 C2658 1.391 . S
H2660 C2668 0.950 . S
H2661 C2673 0.950 . S
H2662 C2670 0.950 . S
H2663 C2672 0.950 . S
H2664 C2674 0.950 . S
H2665 C2676 0.950 . S
H2666 C2678 0.950 . S
H2667 C2679 0.950 . S
C2668 H2660 0.950 . S
C2668 C2669 1.386 . S
C2668 C2670 1.391 . S
C2669 C2668 1.386 . S
C2669 C2673 1.393 . S
C2670 H2662 0.950 . S
C2670 C2668 1.391 . S
C2670 C2671 1.400 . S
C2671 C2670 1.400 . S
C2671 C2672 1.398 . S
C2671 C2677 1.491 . S
C2672 H2663 0.950 . S
C2672 C2671 1.398 . S
C2672 C2673 1.391 . S
C2673 H2661 0.950 . S
C2673 C2669 1.393 . S
C2673 C2672 1.391 . S
C2674 H2664 0.950 . S
C2674 C2675 1.386 . S
C2674 C2676 1.391 . S
C2675 C2674 1.386 . S
C2675 C2679 1.393 . S
C2676 H2665 0.950 . S
C2676 C2674 1.391 . S
C2676 C2677 1.400 . S
C2677 C2671 1.491 . S
C2677 C2676 1.400 . S
C2677 C2678 1.398 . S
C2678 H2666 0.950 . S
C2678 C2677 1.398 . S
C2678 C2679 1.391 . S
C2679 H2667 0.950 . S
C2679 C2675 1.393 . S
C2679 C2678 1.391 . S
H2680 C2688 0.950 . S
H2681 C2693 0.950 1_655 S
H2682 C2690 0.950 . S
H2683 C2692 0.950 . S
H2684 C2694 0.950 . S
H2685 C2696 0.950 . S
H2686 C2698 0.950 . S
H2687 C2699 0.950 . S
C2688 H2680 0.950 . S
C2688 C2689 1.386 . S
C2688 C2690 1.391 . S
C2689 C2688 1.386 . S
C2689 C2693 1.393 . S
C2690 H2682 0.950 . S
C2690 C2688 1.391 . S
C2690 C2691 1.400 . S
C2691 C2690 1.400 . S
C2691 C2692 1.398 . S
C2691 C2697 1.491 . S
C2692 H2683 0.950 . S
C2692 C2691 1.398 . S
C2692 C2693 1.391 . S
C2693 H2681 0.950 1_455 S
C2693 C2689 1.393 . S
C2693 C2692 1.391 . S
C2694 H2684 0.950 . S
C2694 C2695 1.386 1_556 S
C2694 C2696 1.391 . S
C2695 C2694 1.386 1_554 S
C2695 C2699 1.393 . S
C2696 H2685 0.950 . S
C2696 C2694 1.391 . S
C2696 C2697 1.400 . S
C2697 C2691 1.491 . S
C2697 C2696 1.400 . S
C2697 C2698 1.398 1_556 S
C2698 H2686 0.950 . S
C2698 C2697 1.398 1_554 S
C2698 C2699 1.391 . S
C2699 H2687 0.950 . S
C2699 C2695 1.393 . S
C2699 C2698 1.391 . S
H2700 C2708 0.950 . S
H2701 C2713 0.950 . S
H2702 C2710 0.950 . S
H2703 C2712 0.950 . S
H2704 C2714 0.950 . S
H2705 C2716 0.950 . S
H2706 C2718 0.950 . S
H2707 C2719 0.950 . S
C2708 H2700 0.950 . S
C2708 C2709 1.386 . S
C2708 C2710 1.391 1_455 S
C2709 C2708 1.386 . S
C2709 C2713 1.393 . S
C2710 H2702 0.950 . S
C2710 C2708 1.391 1_655 S
C2710 C2711 1.400 . S
C2711 C2710 1.400 . S
C2711 C2712 1.398 1_655 S
C2711 C2717 1.491 . S
C2712 H2703 0.950 . S
C2712 C2711 1.398 1_455 S
C2712 C2713 1.391 . S
C2713 H2701 0.950 . S
C2713 C2709 1.393 . S
C2713 C2712 1.391 . S
C2714 H2704 0.950 . S
C2714 C2715 1.386 . S
C2714 C2716 1.391 . S
C2715 C2714 1.386 . S
C2715 C2719 1.393 . S
C2716 H2705 0.950 . S
C2716 C2714 1.391 . S
C2716 C2717 1.400 . S
C2717 C2711 1.491 . S
C2717 C2716 1.400 . S
C2717 C2718 1.398 . S
C2718 H2706 0.950 . S
C2718 C2717 1.398 . S
C2718 C2719 1.391 . S
C2719 H2707 0.950 . S
C2719 C2715 1.393 . S
C2719 C2718 1.391 . S
H2720 C2728 0.950 . S
H2721 C2733 0.950 . S
H2722 C2730 0.950 . S
H2723 C2732 0.950 . S
H2724 C2734 0.950 . S
H2725 C2736 0.950 . S
H2726 C2738 0.950 . S
H2727 C2739 0.950 . S
C2728 H2720 0.950 . S
C2728 C2729 1.386 . S
C2728 C2730 1.391 . S
C2729 C2728 1.386 . S
C2729 C2733 1.393 . S
C2730 H2722 0.950 . S
C2730 C2728 1.391 . S
C2730 C2731 1.400 . S
C2731 C2730 1.400 . S
C2731 C2732 1.398 . S
C2731 C2737 1.491 . S
C2732 H2723 0.950 . S
C2732 C2731 1.398 . S
C2732 C2733 1.391 . S
C2733 H2721 0.950 . S
C2733 C2729 1.393 . S
C2733 C2732 1.391 . S
C2734 H2724 0.950 . S
C2734 C2735 1.386 . S
C2734 C2736 1.391 . S
C2735 C2734 1.386 . S
C2735 C2739 1.393 . S
C2736 H2725 0.950 . S
C2736 C2734 1.391 . S
C2736 C2737 1.400 . S
C2737 C2731 1.491 . S
C2737 C2736 1.400 . S
C2737 C2738 1.398 . S
C2738 H2726 0.950 . S
C2738 C2737 1.398 . S
C2738 C2739 1.391 . S
C2739 H2727 0.950 . S
C2739 C2735 1.393 . S
C2739 C2738 1.391 . S
H2740 C2748 0.950 . S
H2741 C2753 0.950 . S
H2742 C2750 0.950 . S
H2743 C2752 0.950 . S
H2744 C2754 0.950 . S
H2745 C2756 0.950 . S
H2746 C2758 0.950 . S
H2747 C2759 0.950 . S
C2748 H2740 0.950 . S
C2748 C2749 1.386 . S
C2748 C2750 1.391 . S
C2749 C2748 1.386 . S
C2749 C2753 1.393 . S
C2750 H2742 0.950 . S
C2750 C2748 1.391 . S
C2750 C2751 1.400 . S
C2751 C2750 1.400 . S
C2751 C2752 1.398 . S
C2751 C2757 1.491 1_455 S
C2752 H2743 0.950 . S
C2752 C2751 1.398 . S
C2752 C2753 1.391 . S
C2753 H2741 0.950 . S
C2753 C2749 1.393 . S
C2753 C2752 1.391 . S
C2754 H2744 0.950 . S
C2754 C2755 1.386 . S
C2754 C2756 1.391 . S
C2755 C2754 1.386 . S
C2755 C2759 1.393 . S
C2756 H2745 0.950 . S
C2756 C2754 1.391 . S
C2756 C2757 1.400 . S
C2757 C2751 1.491 1_655 S
C2757 C2756 1.400 . S
C2757 C2758 1.398 . S
C2758 H2746 0.950 . S
C2758 C2757 1.398 . S
C2758 C2759 1.391 . S
C2759 H2747 0.950 . S
C2759 C2755 1.393 . S
C2759 C2758 1.391 . S
H2760 C2768 0.950 . S
H2761 C2773 0.950 . S
H2762 C2770 0.950 . S
H2763 C2772 0.950 . S
H2764 C2774 0.950 . S
H2765 C2776 0.950 . S
H2766 C2778 0.950 . S
H2767 C2779 0.950 . S
C2768 H2760 0.950 . S
C2768 C2769 1.386 . S
C2768 C2770 1.391 1_655 S
C2769 C2768 1.386 . S
C2769 C2773 1.393 . S
C2770 H2762 0.950 . S
C2770 C2768 1.391 1_455 S
C2770 C2771 1.400 . S
C2771 C2770 1.400 . S
C2771 C2772 1.398 . S
C2771 C2777 1.491 . S
C2772 H2763 0.950 . S
C2772 C2771 1.398 . S
C2772 C2773 1.391 1_455 S
C2773 H2761 0.950 . S
C2773 C2769 1.393 . S
C2773 C2772 1.391 1_655 S
C2774 H2764 0.950 . S
C2774 C2775 1.386 . S
C2774 C2776 1.391 . S
C2775 C2774 1.386 . S
C2775 C2779 1.393 . S
C2776 H2765 0.950 . S
C2776 C2774 1.391 . S
C2776 C2777 1.400 . S
C2777 C2771 1.491 . S
C2777 C2776 1.400 . S
C2777 C2778 1.398 . S
C2778 H2766 0.950 . S
C2778 C2777 1.398 . S
C2778 C2779 1.391 . S
C2779 H2767 0.950 . S
C2779 C2775 1.393 . S
C2779 C2778 1.391 . S
H2780 C2788 0.950 . S
H2781 C2793 0.950 . S
H2782 C2790 0.950 . S
H2783 C2792 0.950 . S
H2784 C2794 0.950 . S
H2785 C2796 0.950 . S
H2786 C2798 0.950 . S
H2787 C2799 0.950 . S
C2788 H2780 0.950 . S
C2788 C2789 1.386 . S
C2788 C2790 1.391 . S
C2789 C2788 1.386 . S
C2789 C2793 1.393 . S
C2790 H2782 0.950 . S
C2790 C2788 1.391 . S
C2790 C2791 1.400 . S
C2791 C2790 1.400 . S
C2791 C2792 1.398 . S
C2791 C2797 1.491 . S
C2792 H2783 0.950 . S
C2792 C2791 1.398 . S
C2792 C2793 1.391 . S
C2793 H2781 0.950 . S
C2793 C2789 1.393 . S
C2793 C2792 1.391 . S
C2794 H2784 0.950 . S
C2794 C2795 1.386 . S
C2794 C2796 1.391 . S
C2795 C2794 1.386 . S
C2795 C2799 1.393 . S
C2796 H2785 0.950 . S
C2796 C2794 1.391 . S
C2796 C2797 1.400 . S
C2797 C2791 1.491 . S
C2797 C2796 1.400 . S
C2797 C2798 1.398 . S
C2798 H2786 0.950 . S
C2798 C2797 1.398 . S
C2798 C2799 1.391 . S
C2799 H2787 0.950 . S
C2799 C2795 1.393 . S
C2799 C2798 1.391 . S
H2800 C2808 0.950 . S
H2801 C2813 0.950 . S
H2802 C2810 0.950 . S
H2803 C2812 0.950 . S
H2804 C2814 0.950 . S
H2805 C2816 0.950 . S
H2806 C2818 0.950 . S
H2807 C2819 0.950 . S
C2808 H2800 0.950 . S
C2808 C2809 1.386 . S
C2808 C2810 1.391 . S
C2809 C2808 1.386 . S
C2809 C2813 1.393 . S
C2810 H2802 0.950 . S
C2810 C2808 1.391 . S
C2810 C2811 1.400 . S
C2811 C2810 1.400 . S
C2811 C2812 1.398 . S
C2811 C2817 1.491 . S
C2812 H2803 0.950 . S
C2812 C2811 1.398 . S
C2812 C2813 1.391 . S
C2813 H2801 0.950 . S
C2813 C2809 1.393 . S
C2813 C2812 1.391 . S
C2814 H2804 0.950 . S
C2814 C2815 1.386 . S
C2814 C2816 1.391 . S
C2815 C2814 1.386 . S
C2815 C2819 1.393 . S
C2816 H2805 0.950 . S
C2816 C2814 1.391 . S
C2816 C2817 1.400 . S
C2817 C2811 1.491 . S
C2817 C2816 1.400 . S
C2817 C2818 1.398 . S
C2818 H2806 0.950 . S
C2818 C2817 1.398 . S
C2818 C2819 1.391 . S
C2819 H2807 0.950 . S
C2819 C2815 1.393 . S
C2819 C2818 1.391 . S
H2820 C2828 0.950 . S
H2821 C2833 0.950 1_554 S
H2822 C2830 0.950 . S
H2823 C2832 0.950 . S
H2824 C2834 0.950 . S
H2825 C2836 0.950 . S
H2826 C2838 0.950 . S
H2827 C2839 0.950 . S
C2828 H2820 0.950 . S
C2828 C2829 1.386 . S
C2828 C2830 1.391 . S
C2829 C2828 1.386 . S
C2829 C2833 1.393 . S
C2830 H2822 0.950 . S
C2830 C2828 1.391 . S
C2830 C2831 1.400 . S
C2831 C2830 1.400 . S
C2831 C2832 1.398 . S
C2831 C2837 1.491 . S
C2832 H2823 0.950 . S
C2832 C2831 1.398 . S
C2832 C2833 1.391 . S
C2833 H2821 0.950 1_556 S
C2833 C2829 1.393 . S
C2833 C2832 1.391 . S
C2834 H2824 0.950 . S
C2834 C2835 1.386 . S
C2834 C2836 1.391 . S
C2835 C2834 1.386 . S
C2835 C2839 1.393 . S
C2836 H2825 0.950 . S
C2836 C2834 1.391 . S
C2836 C2837 1.400 . S
C2837 C2831 1.491 . S
C2837 C2836 1.400 . S
C2837 C2838 1.398 . S
C2838 H2826 0.950 . S
C2838 C2837 1.398 . S
C2838 C2839 1.391 . S
C2839 H2827 0.950 . S
C2839 C2835 1.393 . S
C2839 C2838 1.391 . S
H2840 C2848 0.950 . S
H2841 C2853 0.950 . S
H2842 C2850 0.950 . S
H2843 C2852 0.950 . S
H2844 C2854 0.950 . S
H2845 C2856 0.950 . S
H2846 C2858 0.950 . S
H2847 C2859 0.950 . S
C2848 H2840 0.950 . S
C2848 C2849 1.386 . S
C2848 C2850 1.391 . S
C2849 C2848 1.386 . S
C2849 C2853 1.393 . S
C2850 H2842 0.950 . S
C2850 C2848 1.391 . S
C2850 C2851 1.400 . S
C2851 C2850 1.400 . S
C2851 C2852 1.398 . S
C2851 C2857 1.491 . S
C2852 H2843 0.950 . S
C2852 C2851 1.398 . S
C2852 C2853 1.391 . S
C2853 H2841 0.950 . S
C2853 C2849 1.393 . S
C2853 C2852 1.391 . S
C2854 H2844 0.950 . S
C2854 C2855 1.386 . S
C2854 C2856 1.391 . S
C2855 C2854 1.386 . S
C2855 C2859 1.393 . S
C2856 H2845 0.950 . S
C2856 C2854 1.391 . S
C2856 C2857 1.400 . S
C2857 C2851 1.491 . S
C2857 C2856 1.400 . S
C2857 C2858 1.398 . S
C2858 H2846 0.950 . S
C2858 C2857 1.398 . S
C2858 C2859 1.391 . S
C2859 H2847 0.950 . S
C2859 C2855 1.393 . S
C2859 C2858 1.391 . S
H2860 C2868 0.950 . S
H2861 C2873 0.950 . S
H2862 C2870 0.950 . S
H2863 C2872 0.950 . S
H2864 C2874 0.950 . S
H2865 C2876 0.950 . S
H2866 C2878 0.950 . S
H2867 C2879 0.950 . S
C2868 H2860 0.950 . S
C2868 C2869 1.386 . S
C2868 C2870 1.391 . S
C2869 C2868 1.386 . S
C2869 C2873 1.393 . S
C2870 H2862 0.950 . S
C2870 C2868 1.391 . S
C2870 C2871 1.400 . S
C2871 C2870 1.400 . S
C2871 C2872 1.398 . S
C2871 C2877 1.491 . S
C2872 H2863 0.950 . S
C2872 C2871 1.398 . S
C2872 C2873 1.391 . S
C2873 H2861 0.950 . S
C2873 C2869 1.393 . S
C2873 C2872 1.391 . S
C2874 H2864 0.950 . S
C2874 C2875 1.386 . S
C2874 C2876 1.391 . S
C2875 C2874 1.386 . S
C2875 C2879 1.393 . S
C2876 H2865 0.950 . S
C2876 C2874 1.391 . S
C2876 C2877 1.400 . S
C2877 C2871 1.491 . S
C2877 C2876 1.400 . S
C2877 C2878 1.398 . S
C2878 H2866 0.950 . S
C2878 C2877 1.398 . S
C2878 C2879 1.391 . S
C2879 H2867 0.950 . S
C2879 C2875 1.393 . S
C2879 C2878 1.391 . S
H2880 C2888 0.950 . S
H2881 C2893 0.950 . S
H2882 C2890 0.950 . S
H2883 C2892 0.950 . S
H2884 C2894 0.950 . S
H2885 C2896 0.950 . S
H2886 C2898 0.950 . S
H2887 C2899 0.950 . S
C2888 H2880 0.950 . S
C2888 C2889 1.386 . S
C2888 C2890 1.391 . S
C2889 C2888 1.386 . S
C2889 C2893 1.393 . S
C2890 H2882 0.950 . S
C2890 C2888 1.391 . S
C2890 C2891 1.400 . S
C2891 C2890 1.400 . S
C2891 C2892 1.398 . S
C2891 C2897 1.491 . S
C2892 H2883 0.950 . S
C2892 C2891 1.398 . S
C2892 C2893 1.391 . S
C2893 H2881 0.950 . S
C2893 C2889 1.393 . S
C2893 C2892 1.391 . S
C2894 H2884 0.950 . S
C2894 C2895 1.386 . S
C2894 C2896 1.391 . S
C2895 C2894 1.386 . S
C2895 C2899 1.393 . S
C2896 H2885 0.950 . S
C2896 C2894 1.391 . S
C2896 C2897 1.400 . S
C2897 C2891 1.491 . S
C2897 C2896 1.400 . S
C2897 C2898 1.398 . S
C2898 H2886 0.950 . S
C2898 C2897 1.398 . S
C2898 C2899 1.391 . S
C2899 H2887 0.950 . S
C2899 C2895 1.393 . S
C2899 C2898 1.391 . S
H2900 C2908 0.950 . S
H2901 C2913 0.950 . S
H2902 C2910 0.950 . S
H2903 C2912 0.950 . S
H2904 C2914 0.950 . S
H2905 C2916 0.950 . S
H2906 C2918 0.950 . S
H2907 C2919 0.950 . S
C2908 H2900 0.950 . S
C2908 C2909 1.386 . S
C2908 C2910 1.391 . S
C2909 C2908 1.386 . S
C2909 C2913 1.393 . S
C2910 H2902 0.950 . S
C2910 C2908 1.391 . S
C2910 C2911 1.400 . S
C2911 C2910 1.400 . S
C2911 C2912 1.398 . S
C2911 C2917 1.491 . S
C2912 H2903 0.950 . S
C2912 C2911 1.398 . S
C2912 C2913 1.391 . S
C2913 H2901 0.950 . S
C2913 C2909 1.393 . S
C2913 C2912 1.391 . S
C2914 H2904 0.950 . S
C2914 C2915 1.386 . S
C2914 C2916 1.391 . S
C2915 C2914 1.386 . S
C2915 C2919 1.393 . S
C2916 H2905 0.950 . S
C2916 C2914 1.391 . S
C2916 C2917 1.400 . S
C2917 C2911 1.491 . S
C2917 C2916 1.400 . S
C2917 C2918 1.398 . S
C2918 H2906 0.950 . S
C2918 C2917 1.398 . S
C2918 C2919 1.391 . S
C2919 H2907 0.950 . S
C2919 C2915 1.393 . S
C2919 C2918 1.391 . S
H2920 C2928 0.950 . S
H2921 C2933 0.950 . S
H2922 C2930 0.950 . S
H2923 C2932 0.950 . S
H2924 C2934 0.950 . S
H2925 C2936 0.950 . S
H2926 C2938 0.950 . S
H2927 C2939 0.950 . S
C2928 H2920 0.950 . S
C2928 C2929 1.386 . S
C2928 C2930 1.391 . S
C2929 C2928 1.386 . S
C2929 C2933 1.393 . S
C2930 H2922 0.950 . S
C2930 C2928 1.391 . S
C2930 C2931 1.400 . S
C2931 C2930 1.400 . S
C2931 C2932 1.398 . S
C2931 C2937 1.491 . S
C2932 H2923 0.950 . S
C2932 C2931 1.398 . S
C2932 C2933 1.391 . S
C2933 H2921 0.950 . S
C2933 C2929 1.393 . S
C2933 C2932 1.391 . S
C2934 H2924 0.950 . S
C2934 C2935 1.386 . S
C2934 C2936 1.391 . S
C2935 C2934 1.386 . S
C2935 C2939 1.393 . S
C2936 H2925 0.950 . S
C2936 C2934 1.391 . S
C2936 C2937 1.400 . S
C2937 C2931 1.491 . S
C2937 C2936 1.400 . S
C2937 C2938 1.398 . S
C2938 H2926 0.950 . S
C2938 C2937 1.398 . S
C2938 C2939 1.391 . S
C2939 H2927 0.950 . S
C2939 C2935 1.393 . S
C2939 C2938 1.391 . S
H2940 C2948 0.950 . S
H2941 C2953 0.950 . S
H2942 C2950 0.950 . S
H2943 C2952 0.950 . S
H2944 C2954 0.950 . S
H2945 C2956 0.950 . S
H2946 C2958 0.950 . S
H2947 C2959 0.950 . S
C2948 H2940 0.950 . S
C2948 C2949 1.386 . S
C2948 C2950 1.391 . S
C2949 C2948 1.386 . S
C2949 C2953 1.393 . S
C2950 H2942 0.950 . S
C2950 C2948 1.391 . S
C2950 C2951 1.400 . S
C2951 C2950 1.400 . S
C2951 C2952 1.398 . S
C2951 C2957 1.491 . S
C2952 H2943 0.950 . S
C2952 C2951 1.398 . S
C2952 C2953 1.391 . S
C2953 H2941 0.950 . S
C2953 C2949 1.393 . S
C2953 C2952 1.391 . S
C2954 H2944 0.950 . S
C2954 C2955 1.386 . S
C2954 C2956 1.391 . S
C2955 C2954 1.386 . S
C2955 C2959 1.393 . S
C2956 H2945 0.950 . S
C2956 C2954 1.391 . S
C2956 C2957 1.400 . S
C2957 C2951 1.491 . S
C2957 C2956 1.400 . S
C2957 C2958 1.398 . S
C2958 H2946 0.950 . S
C2958 C2957 1.398 . S
C2958 C2959 1.391 . S
C2959 H2947 0.950 . S
C2959 C2955 1.393 . S
C2959 C2958 1.391 . S
H2960 C2968 0.950 . S
H2961 C2973 0.950 . S
H2962 C2970 0.950 . S
H2963 C2972 0.950 . S
H2964 C2974 0.950 . S
H2965 C2976 0.950 . S
H2966 C2978 0.950 . S
H2967 C2979 0.950 . S
C2968 H2960 0.950 . S
C2968 C2969 1.386 . S
C2968 C2970 1.391 . S
C2969 C2968 1.386 . S
C2969 C2973 1.393 . S
C2970 H2962 0.950 . S
C2970 C2968 1.391 . S
C2970 C2971 1.400 . S
C2971 C2970 1.400 . S
C2971 C2972 1.398 . S
C2971 C2977 1.491 . S
C2972 H2963 0.950 . S
C2972 C2971 1.398 . S
C2972 C2973 1.391 . S
C2973 H2961 0.950 . S
C2973 C2969 1.393 . S
C2973 C2972 1.391 . S
C2974 H2964 0.950 . S
C2974 C2975 1.386 . S
C2974 C2976 1.391 . S
C2975 C2974 1.386 . S
C2975 C2979 1.393 . S
C2976 H2965 0.950 . S
C2976 C2974 1.391 . S
C2976 C2977 1.400 . S
C2977 C2971 1.491 . S
C2977 C2976 1.400 . S
C2977 C2978 1.398 . S
C2978 H2966 0.950 . S
C2978 C2977 1.398 . S
C2978 C2979 1.391 . S
C2979 H2967 0.950 . S
C2979 C2975 1.393 . S
C2979 C2978 1.391 . S
H2980 C2988 0.950 . S
H2981 C2993 0.950 . S
H2982 C2990 0.950 . S
H2983 C2992 0.950 . S
H2984 C2994 0.950 . S
H2985 C2996 0.950 . S
H2986 C2998 0.950 . S
H2987 C2999 0.950 . S
C2988 H2980 0.950 . S
C2988 C2989 1.386 . S
C2988 C2990 1.391 . S
C2989 C2988 1.386 . S
C2989 C2993 1.393 . S
C2990 H2982 0.950 . S
C2990 C2988 1.391 . S
C2990 C2991 1.400 . S
C2991 C2990 1.400 . S
C2991 C2992 1.398 . S
C2991 C2997 1.491 . S
C2992 H2983 0.950 . S
C2992 C2991 1.398 . S
C2992 C2993 1.391 . S
C2993 H2981 0.950 . S
C2993 C2989 1.393 . S
C2993 C2992 1.391 . S
C2994 H2984 0.950 . S
C2994 C2995 1.386 . S
C2994 C2996 1.391 . S
C2995 C2994 1.386 . S
C2995 C2999 1.393 . S
C2996 H2985 0.950 . S
C2996 C2994 1.391 . S
C2996 C2997 1.400 . S
C2997 C2991 1.491 . S
C2997 C2996 1.400 . S
C2997 C2998 1.398 . S
C2998 H2986 0.950 . S
C2998 C2997 1.398 . S
C2998 C2999 1.391 . S
C2999 H2987 0.950 . S
C2999 C2995 1.393 . S
C2999 C2998 1.391 . S
H3000 C3008 0.950 . S
H3001 C3013 0.950 . S
H3002 C3010 0.950 . S
H3003 C3012 0.950 . S
H3004 C3014 0.950 . S
H3005 C3016 0.950 . S
H3006 C3018 0.950 . S
H3007 C3019 0.950 . S
C3008 H3000 0.950 . S
C3008 C3009 1.386 . S
C3008 C3010 1.391 . S
C3009 C3008 1.386 . S
C3009 C3013 1.393 . S
C3010 H3002 0.950 . S
C3010 C3008 1.391 . S
C3010 C3011 1.400 . S
C3011 C3010 1.400 . S
C3011 C3012 1.398 . S
C3011 C3017 1.491 . S
C3012 H3003 0.950 . S
C3012 C3011 1.398 . S
C3012 C3013 1.391 . S
C3013 H3001 0.950 . S
C3013 C3009 1.393 . S
C3013 C3012 1.391 . S
C3014 H3004 0.950 . S
C3014 C3015 1.386 . S
C3014 C3016 1.391 . S
C3015 C3014 1.386 . S
C3015 C3019 1.393 . S
C3016 H3005 0.950 . S
C3016 C3014 1.391 . S
C3016 C3017 1.400 . S
C3017 C3011 1.491 . S
C3017 C3016 1.400 . S
C3017 C3018 1.398 . S
C3018 H3006 0.950 . S
C3018 C3017 1.398 . S
C3018 C3019 1.391 . S
C3019 H3007 0.950 . S
C3019 C3015 1.393 . S
C3019 C3018 1.391 . S
H3020 C3028 0.950 1_556 S
H3021 C3033 0.950 . S
H3022 C3030 0.929 1_546 S
H3023 C3032 0.950 . S
H3024 C3034 0.950 . S
H3025 C3036 0.950 . S
H3026 C3038 0.950 1_556 S
H3027 C3039 0.913 1_556 S
C3028 H3020 0.950 1_554 S
C3028 C3029 1.386 . S
C3028 C3030 1.393 . S
C3029 C3028 1.386 . S
C3029 C3033 1.393 . S
C3030 H3022 0.929 1_564 S
C3030 C3028 1.393 . S
C3030 C3031 1.419 . S
C3031 C3030 1.419 . S
C3031 C3032 1.398 . S
C3031 C3037 1.491 . S
C3032 H3023 0.950 . S
C3032 C3031 1.398 . S
C3032 C3033 1.391 . S
C3033 H3021 0.950 . S
C3033 C3029 1.393 . S
C3033 C3032 1.391 . S
C3034 H3024 0.950 . S
C3034 C3035 1.386 1_565 S
C3034 C3036 1.391 . S
C3035 C3034 1.386 1_545 S
C3035 C3039 1.423 . S
C3036 H3025 0.950 . S
C3036 C3034 1.391 . S
C3036 C3037 1.400 . S
C3037 C3031 1.491 . S
C3037 C3036 1.400 . S
C3037 C3038 1.398 1_565 S
C3038 H3026 0.950 1_554 S
C3038 C3037 1.398 1_545 S
C3038 C3039 1.399 . S
C3039 H3027 0.913 1_554 S
C3039 C3035 1.423 . S
C3039 C3038 1.399 . S
H3040 C3048 0.950 . S
H3041 C3053 0.950 . S
H3042 C3050 0.950 . S
H3043 C3052 0.950 . S
H3044 C3054 0.950 . S
H3045 C3056 0.950 . S
H3046 C3058 0.950 . S
H3047 C3059 0.950 . S
C3048 H3040 0.950 . S
C3048 C3049 1.386 . S
C3048 C3050 1.391 . S
C3049 C3048 1.386 . S
C3049 C3053 1.393 . S
C3050 H3042 0.950 . S
C3050 C3048 1.391 . S
C3050 C3051 1.400 . S
C3051 C3050 1.400 . S
C3051 C3052 1.398 . S
C3051 C3057 1.491 . S
C3052 H3043 0.950 . S
C3052 C3051 1.398 . S
C3052 C3053 1.391 . S
C3053 H3041 0.950 . S
C3053 C3049 1.393 . S
C3053 C3052 1.391 . S
C3054 H3044 0.950 . S
C3054 C3055 1.386 . S
C3054 C3056 1.391 . S
C3055 C3054 1.386 . S
C3055 C3059 1.393 . S
C3056 H3045 0.950 . S
C3056 C3054 1.391 . S
C3056 C3057 1.400 . S
C3057 C3051 1.491 . S
C3057 C3056 1.400 . S
C3057 C3058 1.398 . S
C3058 H3046 0.950 . S
C3058 C3057 1.398 . S
C3058 C3059 1.391 . S
C3059 H3047 0.950 . S
C3059 C3055 1.393 . S
C3059 C3058 1.391 . S
H3060 C3068 0.950 . S
H3061 C3073 0.950 . S
H3062 C3070 0.950 . S
H3063 C3072 0.950 . S
H3064 C3074 0.950 1_556 S
H3065 C3076 0.950 1_556 S
H3066 C3078 0.950 . S
H3067 C3079 0.950 . S
C3068 H3060 0.950 . S
C3068 C3069 1.386 . S
C3068 C3070 1.391 . S
C3069 C3068 1.386 . S
C3069 C3073 1.393 1_554 S
C3070 H3062 0.950 . S
C3070 C3068 1.391 . S
C3070 C3071 1.400 . S
C3071 C3070 1.400 . S
C3071 C3072 1.398 1_554 S
C3071 C3077 1.491 . S
C3072 H3063 0.950 . S
C3072 C3071 1.398 1_556 S
C3072 C3073 1.391 . S
C3073 H3061 0.950 . S
C3073 C3069 1.393 1_556 S
C3073 C3072 1.391 . S
C3074 H3064 0.950 1_554 S
C3074 C3075 1.386 . S
C3074 C3076 1.391 . S
C3075 C3074 1.386 . S
C3075 C3079 1.393 . S
C3076 H3065 0.950 1_554 S
C3076 C3074 1.391 . S
C3076 C3077 1.400 . S
C3077 C3071 1.491 . S
C3077 C3076 1.400 . S
C3077 C3078 1.398 . S
C3078 H3066 0.950 . S
C3078 C3077 1.398 . S
C3078 C3079 1.391 . S
C3079 H3067 0.950 . S
C3079 C3075 1.393 . S
C3079 C3078 1.391 . S
H3080 C3088 0.950 . S
H3081 C3093 0.950 . S
H3082 C3090 0.950 . S
H3083 C3092 0.950 . S
H3084 C3094 0.950 . S
H3085 C3096 0.950 . S
H3086 C3098 0.950 . S
H3087 C3099 0.950 . S
C3088 H3080 0.950 . S
C3088 C3089 1.386 . S
C3088 C3090 1.391 . S
C3089 C3088 1.386 . S
C3089 C3093 1.393 . S
C3090 H3082 0.950 . S
C3090 C3088 1.391 . S
C3090 C3091 1.400 . S
C3091 C3090 1.400 . S
C3091 C3092 1.398 . S
C3091 C3097 1.491 . S
C3092 H3083 0.950 . S
C3092 C3091 1.398 . S
C3092 C3093 1.391 . S
C3093 H3081 0.950 . S
C3093 C3089 1.393 . S
C3093 C3092 1.391 . S
C3094 H3084 0.950 . S
C3094 C3095 1.386 . S
C3094 C3096 1.391 . S
C3095 C3094 1.386 . S
C3095 C3099 1.393 . S
C3096 H3085 0.950 . S
C3096 C3094 1.391 . S
C3096 C3097 1.400 . S
C3097 C3091 1.491 . S
C3097 C3096 1.400 . S
C3097 C3098 1.398 . S
C3098 H3086 0.950 . S
C3098 C3097 1.398 . S
C3098 C3099 1.391 . S
C3099 H3087 0.950 . S
C3099 C3095 1.393 . S
C3099 C3098 1.391 . S
H3100 C3108 0.950 . S
H3101 C3113 0.950 . S
H3102 C3110 0.950 . S
H3103 C3112 0.950 . S
H3104 C3114 0.950 . S
H3105 C3116 0.950 . S
H3106 C3118 0.950 . S
H3107 C3119 0.950 . S
C3108 H3100 0.950 . S
C3108 C3109 1.386 . S
C3108 C3110 1.391 . S
C3109 C3108 1.386 . S
C3109 C3113 1.393 . S
C3110 H3102 0.950 . S
C3110 C3108 1.391 . S
C3110 C3111 1.400 . S
C3111 C3110 1.400 . S
C3111 C3112 1.398 . S
C3111 C3117 1.491 . S
C3112 H3103 0.950 . S
C3112 C3111 1.398 . S
C3112 C3113 1.391 . S
C3113 H3101 0.950 . S
C3113 C3109 1.393 . S
C3113 C3112 1.391 . S
C3114 H3104 0.950 . S
C3114 C3115 1.386 . S
C3114 C3116 1.391 . S
C3115 C3114 1.386 . S
C3115 C3119 1.393 . S
C3116 H3105 0.950 . S
C3116 C3114 1.391 . S
C3116 C3117 1.400 . S
C3117 C3111 1.491 . S
C3117 C3116 1.400 . S
C3117 C3118 1.398 . S
C3118 H3106 0.950 . S
C3118 C3117 1.398 . S
C3118 C3119 1.391 . S
C3119 H3107 0.950 . S
C3119 C3115 1.393 . S
C3119 C3118 1.391 . S
H3120 C3128 0.950 . S
H3121 C3133 0.950 . S
H3122 C3130 0.950 . S
H3123 C3132 0.950 . S
H3124 C3134 0.950 . S
H3125 C3136 0.950 . S
H3126 C3138 0.950 . S
H3127 C3139 0.950 . S
C3128 H3120 0.950 . S
C3128 C3129 1.386 . S
C3128 C3130 1.391 . S
C3129 C3128 1.386 . S
C3129 C3133 1.393 . S
C3130 H3122 0.950 . S
C3130 C3128 1.391 . S
C3130 C3131 1.400 . S
C3131 C3130 1.400 . S
C3131 C3132 1.398 . S
C3131 C3137 1.491 . S
C3132 H3123 0.950 . S
C3132 C3131 1.398 . S
C3132 C3133 1.391 . S
C3133 H3121 0.950 . S
C3133 C3129 1.393 . S
C3133 C3132 1.391 . S
C3134 H3124 0.950 . S
C3134 C3135 1.386 . S
C3134 C3136 1.391 . S
C3135 C3134 1.386 . S
C3135 C3139 1.393 . S
C3136 H3125 0.950 . S
C3136 C3134 1.391 . S
C3136 C3137 1.400 . S
C3137 C3131 1.491 . S
C3137 C3136 1.400 . S
C3137 C3138 1.398 . S
C3138 H3126 0.950 . S
C3138 C3137 1.398 . S
C3138 C3139 1.391 . S
C3139 H3127 0.950 . S
C3139 C3135 1.393 . S
C3139 C3138 1.391 . S
H3140 C3148 0.950 . S
H3141 C3153 0.950 . S
H3142 C3150 0.950 . S
H3143 C3152 0.950 . S
H3144 C3154 0.950 . S
H3145 C3156 0.950 . S
H3146 C3158 0.950 . S
H3147 C3159 0.950 . S
C3148 H3140 0.950 . S
C3148 C3149 1.386 . S
C3148 C3150 1.391 . S
C3149 C3148 1.386 . S
C3149 C3153 1.393 . S
C3150 H3142 0.950 . S
C3150 C3148 1.391 . S
C3150 C3151 1.400 . S
C3151 C3150 1.400 . S
C3151 C3152 1.398 . S
C3151 C3157 1.491 . S
C3152 H3143 0.950 . S
C3152 C3151 1.398 . S
C3152 C3153 1.391 . S
C3153 H3141 0.950 . S
C3153 C3149 1.393 . S
C3153 C3152 1.391 . S
C3154 H3144 0.950 . S
C3154 C3155 1.386 . S
C3154 C3156 1.391 . S
C3155 C3154 1.386 . S
C3155 C3159 1.393 . S
C3156 H3145 0.950 . S
C3156 C3154 1.391 . S
C3156 C3157 1.400 . S
C3157 C3151 1.491 . S
C3157 C3156 1.400 . S
C3157 C3158 1.398 . S
C3158 H3146 0.950 . S
C3158 C3157 1.398 . S
C3158 C3159 1.391 . S
C3159 H3147 0.950 . S
C3159 C3155 1.393 . S
C3159 C3158 1.391 . S
H3160 C3168 0.950 . S
H3161 C3173 0.950 . S
H3162 C3170 0.950 . S
H3163 C3172 0.950 . S
H3164 C3174 0.950 1_556 S
H3165 C3176 0.950 . S
H3166 C3178 0.950 . S
H3167 C3179 0.950 . S
C3168 H3160 0.950 . S
C3168 C3169 1.386 . S
C3168 C3170 1.391 . S
C3169 C3168 1.386 . S
C3169 C3173 1.393 . S
C3170 H3162 0.950 . S
C3170 C3168 1.391 . S
C3170 C3171 1.400 . S
C3171 C3170 1.400 . S
C3171 C3172 1.398 . S
C3171 C3177 1.491 . S
C3172 H3163 0.950 . S
C3172 C3171 1.398 . S
C3172 C3173 1.391 . S
C3173 H3161 0.950 . S
C3173 C3169 1.393 . S
C3173 C3172 1.391 . S
C3174 H3164 0.950 1_554 S
C3174 C3175 1.386 . S
C3174 C3176 1.391 . S
C3175 C3174 1.386 . S
C3175 C3179 1.393 . S
C3176 H3165 0.950 . S
C3176 C3174 1.391 . S
C3176 C3177 1.400 . S
C3177 C3171 1.491 . S
C3177 C3176 1.400 . S
C3177 C3178 1.398 . S
C3178 H3166 0.950 . S
C3178 C3177 1.398 . S
C3178 C3179 1.391 . S
C3179 H3167 0.950 . S
C3179 C3175 1.393 . S
C3179 C3178 1.391 . S
H3180 C3188 0.950 . S
H3181 C3193 0.950 . S
H3182 C3190 0.950 . S
H3183 C3192 0.950 . S
H3184 C3194 0.950 . S
H3185 C3196 0.950 . S
H3186 C3198 0.950 . S
H3187 C3199 0.950 . S
C3188 H3180 0.950 . S
C3188 C3189 1.386 . S
C3188 C3190 1.391 . S
C3189 C3188 1.386 . S
C3189 C3193 1.393 . S
C3190 H3182 0.950 . S
C3190 C3188 1.391 . S
C3190 C3191 1.400 . S
C3191 C3190 1.400 . S
C3191 C3192 1.398 . S
C3191 C3197 1.491 . S
C3192 H3183 0.950 . S
C3192 C3191 1.398 . S
C3192 C3193 1.391 . S
C3193 H3181 0.950 . S
C3193 C3189 1.393 . S
C3193 C3192 1.391 . S
C3194 H3184 0.950 . S
C3194 C3195 1.386 . S
C3194 C3196 1.391 . S
C3195 C3194 1.386 . S
C3195 C3199 1.393 . S
C3196 H3185 0.950 . S
C3196 C3194 1.391 . S
C3196 C3197 1.400 . S
C3197 C3191 1.491 . S
C3197 C3196 1.400 . S
C3197 C3198 1.398 . S
C3198 H3186 0.950 . S
C3198 C3197 1.398 . S
C3198 C3199 1.391 . S
C3199 H3187 0.950 . S
C3199 C3195 1.393 . S
C3199 C3198 1.391 . S
H3200 C3208 0.950 . S
H3201 C3213 0.950 . S
H3202 C3210 0.950 . S
H3203 C3212 0.950 . S
H3204 C3214 0.950 . S
H3205 C3216 0.950 . S
H3206 C3218 0.950 . S
H3207 C3219 0.950 1_554 S
C3208 H3200 0.950 . S
C3208 C3209 1.386 . S
C3208 C3210 1.391 . S
C3209 C3208 1.386 . S
C3209 C3213 1.393 . S
C3210 H3202 0.950 . S
C3210 C3208 1.391 . S
C3210 C3211 1.400 . S
C3211 C3210 1.400 . S
C3211 C3212 1.398 . S
C3211 C3217 1.491 . S
C3212 H3203 0.950 . S
C3212 C3211 1.398 . S
C3212 C3213 1.391 . S
C3213 H3201 0.950 . S
C3213 C3209 1.393 . S
C3213 C3212 1.391 . S
C3214 H3204 0.950 . S
C3214 C3215 1.386 . S
C3214 C3216 1.391 . S
C3215 C3214 1.386 . S
C3215 C3219 1.393 . S
C3216 H3205 0.950 . S
C3216 C3214 1.391 . S
C3216 C3217 1.400 . S
C3217 C3211 1.491 . S
C3217 C3216 1.400 . S
C3217 C3218 1.398 . S
C3218 H3206 0.950 . S
C3218 C3217 1.398 . S
C3218 C3219 1.391 . S
C3219 H3207 0.950 1_556 S
C3219 C3215 1.393 . S
C3219 C3218 1.391 . S
H3220 C3228 0.950 . S
H3221 C3233 0.950 . S
H3222 C3230 0.950 . S
H3223 C3232 0.950 . S
H3224 C3234 0.950 . S
H3225 C3236 0.950 . S
H3226 C3238 0.950 . S
H3227 C3239 0.950 . S
C3228 H3220 0.950 . S
C3228 C3229 1.386 . S
C3228 C3230 1.391 . S
C3229 C3228 1.386 . S
C3229 C3233 1.393 . S
C3230 H3222 0.950 . S
C3230 C3228 1.391 . S
C3230 C3231 1.400 . S
C3231 C3230 1.400 . S
C3231 C3232 1.398 . S
C3231 C3237 1.491 . S
C3232 H3223 0.950 . S
C3232 C3231 1.398 . S
C3232 C3233 1.391 . S
C3233 H3221 0.950 . S
C3233 C3229 1.393 . S
C3233 C3232 1.391 . S
C3234 H3224 0.950 . S
C3234 C3235 1.386 . S
C3234 C3236 1.391 . S
C3235 C3234 1.386 . S
C3235 C3239 1.393 . S
C3236 H3225 0.950 . S
C3236 C3234 1.391 . S
C3236 C3237 1.400 . S
C3237 C3231 1.491 . S
C3237 C3236 1.400 . S
C3237 C3238 1.398 . S
C3238 H3226 0.950 . S
C3238 C3237 1.398 . S
C3238 C3239 1.391 . S
C3239 H3227 0.950 . S
C3239 C3235 1.393 . S
C3239 C3238 1.391 . S
H3240 C3248 0.950 . S
H3241 C3253 0.950 . S
H3242 C3250 0.950 . S
H3243 C3252 0.950 . S
H3244 C3254 0.950 . S
H3245 C3256 0.950 . S
H3246 C3258 0.950 . S
H3247 C3259 0.950 . S
C3248 H3240 0.950 . S
C3248 C3249 1.386 . S
C3248 C3250 1.391 . S
C3249 C3248 1.386 . S
C3249 C3253 1.393 . S
C3250 H3242 0.950 . S
C3250 C3248 1.391 . S
C3250 C3251 1.400 . S
C3251 C3250 1.400 . S
C3251 C3252 1.398 . S
C3251 C3257 1.491 . S
C3252 H3243 0.950 . S
C3252 C3251 1.398 . S
C3252 C3253 1.391 . S
C3253 H3241 0.950 . S
C3253 C3249 1.393 . S
C3253 C3252 1.391 . S
C3254 H3244 0.950 . S
C3254 C3255 1.386 . S
C3254 C3256 1.391 . S
C3255 C3254 1.386 . S
C3255 C3259 1.393 . S
C3256 H3245 0.950 . S
C3256 C3254 1.391 . S
C3256 C3257 1.400 . S
C3257 C3251 1.491 . S
C3257 C3256 1.400 . S
C3257 C3258 1.398 . S
C3258 H3246 0.950 . S
C3258 C3257 1.398 . S
C3258 C3259 1.391 . S
C3259 H3247 0.950 . S
C3259 C3255 1.393 . S
C3259 C3258 1.391 . S
H3260 C3268 0.950 . S
H3261 C3273 0.950 . S
H3262 C3270 0.950 . S
H3263 C3272 0.950 . S
H3264 C3274 0.950 . S
H3265 C3276 0.950 . S
H3266 C3278 0.950 . S
H3267 C3279 0.950 . S
C3268 H3260 0.950 . S
C3268 C3269 1.386 . S
C3268 C3270 1.391 . S
C3269 C3268 1.386 . S
C3269 C3273 1.393 . S
C3270 H3262 0.950 . S
C3270 C3268 1.391 . S
C3270 C3271 1.400 . S
C3271 C3270 1.400 . S
C3271 C3272 1.398 . S
C3271 C3277 1.491 . S
C3272 H3263 0.950 . S
C3272 C3271 1.398 . S
C3272 C3273 1.391 . S
C3273 H3261 0.950 . S
C3273 C3269 1.393 . S
C3273 C3272 1.391 . S
C3274 H3264 0.950 . S
C3274 C3275 1.386 . S
C3274 C3276 1.391 . S
C3275 C3274 1.386 . S
C3275 C3279 1.393 . S
C3276 H3265 0.950 . S
C3276 C3274 1.391 . S
C3276 C3277 1.400 . S
C3277 C3271 1.491 . S
C3277 C3276 1.400 . S
C3277 C3278 1.398 . S
C3278 H3266 0.950 . S
C3278 C3277 1.398 . S
C3278 C3279 1.391 . S
C3279 H3267 0.950 . S
C3279 C3275 1.393 . S
C3279 C3278 1.391 . S
H3280 C3288 0.950 . S
H3281 C3293 0.950 . S
H3282 C3290 0.950 . S
H3283 C3292 0.950 . S
H3284 C3294 0.950 . S
H3285 C3296 0.950 . S
H3286 C3298 0.950 . S
H3287 C3299 0.950 . S
C3288 H3280 0.950 . S
C3288 C3289 1.386 . S
C3288 C3290 1.391 . S
C3289 C3288 1.386 . S
C3289 C3293 1.393 . S
C3290 H3282 0.950 . S
C3290 C3288 1.391 . S
C3290 C3291 1.400 . S
C3291 C3290 1.400 . S
C3291 C3292 1.398 . S
C3291 C3297 1.491 . S
C3292 H3283 0.950 . S
C3292 C3291 1.398 . S
C3292 C3293 1.391 . S
C3293 H3281 0.950 . S
C3293 C3289 1.393 . S
C3293 C3292 1.391 . S
C3294 H3284 0.950 . S
C3294 C3295 1.386 . S
C3294 C3296 1.391 . S
C3295 C3294 1.386 . S
C3295 C3299 1.393 . S
C3296 H3285 0.950 . S
C3296 C3294 1.391 . S
C3296 C3297 1.400 . S
C3297 C3291 1.491 . S
C3297 C3296 1.400 . S
C3297 C3298 1.398 . S
C3298 H3286 0.950 . S
C3298 C3297 1.398 . S
C3298 C3299 1.391 . S
C3299 H3287 0.950 . S
C3299 C3295 1.393 . S
C3299 C3298 1.391 . S
H3300 C3308 0.950 . S
H3301 C3313 0.950 . S
H3302 C3310 0.950 . S
H3303 C3312 0.950 . S
H3304 C3314 0.950 . S
H3305 C3316 0.950 . S
H3306 C3318 0.950 . S
H3307 C3319 0.950 . S
C3308 H3300 0.950 . S
C3308 C3309 1.386 . S
C3308 C3310 1.391 . S
C3309 C3308 1.386 . S
C3309 C3313 1.393 . S
C3310 H3302 0.950 . S
C3310 C3308 1.391 . S
C3310 C3311 1.400 . S
C3311 C3310 1.400 . S
C3311 C3312 1.398 . S
C3311 C3317 1.491 . S
C3312 H3303 0.950 . S
C3312 C3311 1.398 . S
C3312 C3313 1.391 . S
C3313 H3301 0.950 . S
C3313 C3309 1.393 . S
C3313 C3312 1.391 . S
C3314 H3304 0.950 . S
C3314 C3315 1.386 . S
C3314 C3316 1.391 . S
C3315 C3314 1.386 . S
C3315 C3319 1.393 . S
C3316 H3305 0.950 . S
C3316 C3314 1.391 . S
C3316 C3317 1.400 . S
C3317 C3311 1.491 . S
C3317 C3316 1.400 . S
C3317 C3318 1.398 . S
C3318 H3306 0.950 . S
C3318 C3317 1.398 . S
C3318 C3319 1.391 . S
C3319 H3307 0.950 . S
C3319 C3315 1.393 . S
C3319 C3318 1.391 . S
H3320 C3328 0.950 . S
H3321 C3333 0.950 . S
H3322 C3330 0.950 1_455 S
H3323 C3332 0.950 . S
H3324 C3334 0.931 1_655 S
H3325 C3336 0.950 . S
H3326 C3338 0.950 . S
H3327 C3339 0.950 . S
C3328 H3320 0.950 . S
C3328 C3329 1.386 . S
C3328 C3330 1.391 . S
C3329 C3328 1.386 . S
C3329 C3333 1.393 . S
C3330 H3322 0.950 1_655 S
C3330 C3328 1.391 . S
C3330 C3331 1.400 . S
C3331 C3330 1.400 . S
C3331 C3332 1.398 . S
C3331 C3337 1.491 . S
C3332 H3323 0.950 . S
C3332 C3331 1.398 . S
C3332 C3333 1.391 . S
C3333 H3321 0.950 . S
C3333 C3329 1.393 . S
C3333 C3332 1.391 . S
C3334 H3324 0.931 1_455 S
C3334 C3335 1.386 . S
C3334 C3336 1.391 1_455 S
C3335 C3334 1.386 . S
C3335 C3339 1.393 . S
C3336 H3325 0.950 . S
C3336 C3334 1.391 1_655 S
C3336 C3337 1.400 . S
C3337 C3331 1.491 . S
C3337 C3336 1.400 . S
C3337 C3338 1.398 1_655 S
C3338 H3326 0.950 . S
C3338 C3337 1.398 1_455 S
C3338 C3339 1.391 . S
C3339 H3327 0.950 . S
C3339 C3335 1.393 . S
C3339 C3338 1.391 . S
H3340 C3348 0.950 . S
H3341 C3353 0.950 . S
H3342 C3350 0.950 . S
H3343 C3352 0.950 . S
H3344 C3354 0.950 . S
H3345 C3356 0.950 . S
H3346 C3358 0.950 . S
H3347 C3359 0.950 . S
C3348 H3340 0.950 . S
C3348 C3349 1.386 . S
C3348 C3350 1.391 . S
C3349 C3348 1.386 . S
C3349 C3353 1.393 . S
C3350 H3342 0.950 . S
C3350 C3348 1.391 . S
C3350 C3351 1.400 . S
C3351 C3350 1.400 . S
C3351 C3352 1.398 . S
C3351 C3357 1.491 . S
C3352 H3343 0.950 . S
C3352 C3351 1.398 . S
C3352 C3353 1.391 . S
C3353 H3341 0.950 . S
C3353 C3349 1.393 . S
C3353 C3352 1.391 . S
C3354 H3344 0.950 . S
C3354 C3355 1.386 . S
C3354 C3356 1.391 . S
C3355 C3354 1.386 . S
C3355 C3359 1.393 . S
C3356 H3345 0.950 . S
C3356 C3354 1.391 . S
C3356 C3357 1.400 . S
C3357 C3351 1.491 . S
C3357 C3356 1.400 . S
C3357 C3358 1.398 . S
C3358 H3346 0.950 . S
C3358 C3357 1.398 . S
C3358 C3359 1.391 . S
C3359 H3347 0.950 . S
C3359 C3355 1.393 . S
C3359 C3358 1.391 . S
H3360 C3368 0.950 . S
H3361 C3373 0.950 . S
H3362 C3370 0.950 . S
H3363 C3372 0.950 . S
H3364 C3374 0.950 . S
H3365 C3376 0.950 . S
H3366 C3378 0.950 . S
H3367 C3379 0.950 . S
C3368 H3360 0.950 . S
C3368 C3369 1.386 . S
C3368 C3370 1.391 . S
C3369 C3368 1.386 . S
C3369 C3373 1.393 . S
C3370 H3362 0.950 . S
C3370 C3368 1.391 . S
C3370 C3371 1.400 . S
C3371 C3370 1.400 . S
C3371 C3372 1.398 . S
C3371 C3377 1.491 . S
C3372 H3363 0.950 . S
C3372 C3371 1.398 . S
C3372 C3373 1.391 . S
C3373 H3361 0.950 . S
C3373 C3369 1.393 . S
C3373 C3372 1.391 . S
C3374 H3364 0.950 . S
C3374 C3375 1.386 . S
C3374 C3376 1.391 . S
C3375 C3374 1.386 . S
C3375 C3379 1.393 . S
C3376 H3365 0.950 . S
C3376 C3374 1.391 . S
C3376 C3377 1.400 . S
C3377 C3371 1.491 . S
C3377 C3376 1.400 . S
C3377 C3378 1.398 . S
C3378 H3366 0.950 . S
C3378 C3377 1.398 . S
C3378 C3379 1.391 . S
C3379 H3367 0.950 . S
C3379 C3375 1.393 . S
C3379 C3378 1.391 . S
H3380 C3388 0.950 . S
H3381 C3393 0.950 . S
H3382 C3390 0.950 . S
H3383 C3392 0.950 . S
H3384 C3394 0.950 . S
H3385 C3396 0.950 . S
H3386 C3398 0.950 . S
H3387 C3399 0.950 . S
C3388 H3380 0.950 . S
C3388 C3389 1.386 . S
C3388 C3390 1.391 . S
C3389 C3388 1.386 . S
C3389 C3393 1.393 . S
C3390 H3382 0.950 . S
C3390 C3388 1.391 . S
C3390 C3391 1.400 . S
C3391 C3390 1.400 . S
C3391 C3392 1.398 . S
C3391 C3397 1.491 . S
C3392 H3383 0.950 . S
C3392 C3391 1.398 . S
C3392 C3393 1.391 . S
C3393 H3381 0.950 . S
C3393 C3389 1.393 . S
C3393 C3392 1.391 . S
C3394 H3384 0.950 . S
C3394 C3395 1.386 . S
C3394 C3396 1.391 . S
C3395 C3394 1.386 . S
C3395 C3399 1.393 . S
C3396 H3385 0.950 . S
C3396 C3394 1.391 . S
C3396 C3397 1.400 . S
C3397 C3391 1.491 . S
C3397 C3396 1.400 . S
C3397 C3398 1.398 . S
C3398 H3386 0.950 . S
C3398 C3397 1.398 . S
C3398 C3399 1.391 . S
C3399 H3387 0.950 . S
C3399 C3395 1.393 . S
C3399 C3398 1.391 . S
H3400 C3408 0.950 . S
H3401 C3413 0.950 . S
H3402 C3410 0.950 . S
H3403 C3412 0.950 . S
H3404 C3414 0.950 . S
H3405 C3416 0.970 . S
H3406 C3418 0.950 . S
H3407 C3419 0.950 . S
C3408 H3400 0.950 . S
C3408 C3409 1.386 . S
C3408 C3410 1.391 . S
C3409 C3408 1.386 . S
C3409 C3413 1.393 . S
C3410 H3402 0.950 . S
C3410 C3408 1.391 . S
C3410 C3411 1.400 . S
C3411 C3410 1.400 . S
C3411 C3412 1.398 . S
C3411 C3417 1.491 . S
C3412 H3403 0.950 . S
C3412 C3411 1.398 . S
C3412 C3413 1.391 . S
C3413 H3401 0.950 . S
C3413 C3409 1.393 . S
C3413 C3412 1.391 . S
C3414 H3404 0.950 . S
C3414 C3415 1.386 1_455 S
C3414 C3416 1.411 . S
C3415 C3414 1.386 1_655 S
C3415 C3419 1.393 . S
C3416 H3405 0.970 . S
C3416 C3414 1.411 . S
C3416 C3417 1.362 1_455 S
C3417 C3411 1.491 . S
C3417 C3416 1.362 1_655 S
C3417 C3418 1.398 . S
C3418 H3406 0.950 . S
C3418 C3417 1.398 . S
C3418 C3419 1.391 . S
C3419 H3407 0.950 . S
C3419 C3415 1.393 . S
C3419 C3418 1.391 . S
H3420 C3428 0.950 . S
H3421 C3433 0.950 . S
H3422 C3430 0.950 . S
H3423 C3432 0.950 . S
H3424 C3434 0.950 . S
H3425 C3436 0.950 . S
H3426 C3438 0.950 . S
H3427 C3439 0.950 . S
C3428 H3420 0.950 . S
C3428 C3429 1.386 . S
C3428 C3430 1.391 . S
C3429 C3428 1.386 . S
C3429 C3433 1.393 . S
C3430 H3422 0.950 . S
C3430 C3428 1.391 . S
C3430 C3431 1.400 . S
C3431 C3430 1.400 . S
C3431 C3432 1.398 . S
C3431 C3437 1.491 . S
C3432 H3423 0.950 . S
C3432 C3431 1.398 . S
C3432 C3433 1.391 . S
C3433 H3421 0.950 . S
C3433 C3429 1.393 . S
C3433 C3432 1.391 . S
C3434 H3424 0.950 . S
C3434 C3435 1.386 . S
C3434 C3436 1.391 . S
C3435 C3434 1.386 . S
C3435 C3439 1.393 . S
C3436 H3425 0.950 . S
C3436 C3434 1.391 . S
C3436 C3437 1.400 . S
C3437 C3431 1.491 . S
C3437 C3436 1.400 . S
C3437 C3438 1.398 . S
C3438 H3426 0.950 . S
C3438 C3437 1.398 . S
C3438 C3439 1.391 . S
C3439 H3427 0.950 . S
C3439 C3435 1.393 . S
C3439 C3438 1.391 . S
H3440 C3448 0.950 . S
H3441 C3453 0.950 . S
H3442 C3450 0.950 . S
H3443 C3452 0.950 . S
H3444 C3454 0.950 . S
H3445 C3456 0.950 . S
H3446 C3458 0.950 . S
H3447 C3459 0.950 . S
C3448 H3440 0.950 . S
C3448 C3449 1.386 . S
C3448 C3450 1.391 . S
C3449 C3448 1.386 . S
C3449 C3453 1.393 . S
C3450 H3442 0.950 . S
C3450 C3448 1.391 . S
C3450 C3451 1.400 . S
C3451 C3450 1.400 . S
C3451 C3452 1.398 . S
C3451 C3457 1.491 . S
C3452 H3443 0.950 . S
C3452 C3451 1.398 . S
C3452 C3453 1.391 . S
C3453 H3441 0.950 . S
C3453 C3449 1.393 . S
C3453 C3452 1.391 . S
C3454 H3444 0.950 . S
C3454 C3455 1.386 . S
C3454 C3456 1.391 . S
C3455 C3454 1.386 . S
C3455 C3459 1.393 . S
C3456 H3445 0.950 . S
C3456 C3454 1.391 . S
C3456 C3457 1.400 . S
C3457 C3451 1.491 . S
C3457 C3456 1.400 . S
C3457 C3458 1.398 . S
C3458 H3446 0.950 . S
C3458 C3457 1.398 . S
C3458 C3459 1.391 . S
C3459 H3447 0.950 . S
C3459 C3455 1.393 . S
C3459 C3458 1.391 . S
H3460 C3468 0.950 . S
H3461 C3473 0.950 . S
H3462 C3470 0.950 . S
H3463 C3472 0.950 . S
H3464 C3474 0.950 1_545 S
H3465 C3476 0.950 . S
H3466 C3478 0.950 . S
H3467 C3479 0.950 . S
C3468 H3460 0.950 . S
C3468 C3469 1.386 . S
C3468 C3470 1.391 . S
C3469 C3468 1.386 . S
C3469 C3473 1.393 . S
C3470 H3462 0.950 . S
C3470 C3468 1.391 . S
C3470 C3471 1.400 . S
C3471 C3470 1.400 . S
C3471 C3472 1.398 . S
C3471 C3477 1.491 . S
C3472 H3463 0.950 . S
C3472 C3471 1.398 . S
C3472 C3473 1.391 . S
C3473 H3461 0.950 . S
C3473 C3469 1.393 . S
C3473 C3472 1.391 . S
C3474 H3464 0.950 1_565 S
C3474 C3475 1.386 . S
C3474 C3476 1.391 . S
C3475 C3474 1.386 . S
C3475 C3479 1.393 . S
C3476 H3465 0.950 . S
C3476 C3474 1.391 . S
C3476 C3477 1.400 . S
C3477 C3471 1.491 . S
C3477 C3476 1.400 . S
C3477 C3478 1.398 . S
C3478 H3466 0.950 . S
C3478 C3477 1.398 . S
C3478 C3479 1.391 . S
C3479 H3467 0.950 . S
C3479 C3475 1.393 . S
C3479 C3478 1.391 . S
H3480 C3488 0.950 . S
H3481 C3493 0.950 . S
H3482 C3490 0.950 . S
H3483 C3492 0.950 . S
H3484 C3494 0.950 . S
H3485 C3496 0.950 . S
H3486 C3498 0.950 . S
H3487 C3499 0.950 . S
C3488 H3480 0.950 . S
C3488 C3489 1.386 . S
C3488 C3490 1.391 . S
C3489 C3488 1.386 . S
C3489 C3493 1.393 . S
C3490 H3482 0.950 . S
C3490 C3488 1.391 . S
C3490 C3491 1.400 . S
C3491 C3490 1.400 . S
C3491 C3492 1.398 . S
C3491 C3497 1.491 . S
C3492 H3483 0.950 . S
C3492 C3491 1.398 . S
C3492 C3493 1.391 . S
C3493 H3481 0.950 . S
C3493 C3489 1.393 . S
C3493 C3492 1.391 . S
C3494 H3484 0.950 . S
C3494 C3495 1.386 . S
C3494 C3496 1.391 . S
C3495 C3494 1.386 . S
C3495 C3499 1.393 . S
C3496 H3485 0.950 . S
C3496 C3494 1.391 . S
C3496 C3497 1.400 . S
C3497 C3491 1.491 . S
C3497 C3496 1.400 . S
C3497 C3498 1.398 . S
C3498 H3486 0.950 . S
C3498 C3497 1.398 . S
C3498 C3499 1.391 . S
C3499 H3487 0.950 . S
C3499 C3495 1.393 . S
C3499 C3498 1.391 . S
H3500 C3508 0.950 . S
H3501 C3513 0.950 . S
H3502 C3510 0.950 . S
H3503 C3512 0.950 . S
H3504 C3514 0.950 . S
H3505 C3516 0.950 . S
H3506 C3518 0.961 . S
H3507 C3519 0.951 1_556 S
C3508 H3500 0.950 . S
C3508 C3509 1.386 . S
C3508 C3510 1.391 . S
C3509 C3508 1.386 . S
C3509 C3513 1.393 . S
C3510 H3502 0.950 . S
C3510 C3508 1.391 . S
C3510 C3511 1.400 . S
C3511 C3510 1.400 . S
C3511 C3512 1.398 . S
C3511 C3517 1.491 . S
C3512 H3503 0.950 . S
C3512 C3511 1.398 . S
C3512 C3513 1.391 . S
C3513 H3501 0.950 . S
C3513 C3509 1.393 . S
C3513 C3512 1.391 . S
C3514 H3504 0.950 . S
C3514 C3515 1.386 . S
C3514 C3516 1.391 . S
C3515 C3514 1.386 . S
C3515 C3519 1.393 . S
C3516 H3505 0.950 . S
C3516 C3514 1.391 . S
C3516 C3517 1.400 . S
C3517 C3511 1.491 . S
C3517 C3516 1.400 . S
C3517 C3518 1.398 . S
C3518 H3506 0.961 . S
C3518 C3517 1.398 . S
C3518 C3519 1.391 . S
C3519 H3507 0.951 1_554 S
C3519 C3515 1.393 . S
C3519 C3518 1.391 . S
H3520 C3528 0.950 . S
H3521 C3533 0.950 . S
H3522 C3530 0.950 . S
H3523 C3532 0.950 . S
H3524 C3534 0.950 . S
H3525 C3536 0.950 . S
H3526 C3538 0.950 . S
H3527 C3539 0.950 . S
C3528 H3520 0.950 . S
C3528 C3529 1.386 . S
C3528 C3530 1.391 . S
C3529 C3528 1.386 . S
C3529 C3533 1.393 . S
C3530 H3522 0.950 . S
C3530 C3528 1.391 . S
C3530 C3531 1.400 . S
C3531 C3530 1.400 . S
C3531 C3532 1.398 . S
C3531 C3537 1.491 . S
C3532 H3523 0.950 . S
C3532 C3531 1.398 . S
C3532 C3533 1.391 . S
C3533 H3521 0.950 . S
C3533 C3529 1.393 . S
C3533 C3532 1.391 . S
C3534 H3524 0.950 . S
C3534 C3535 1.386 . S
C3534 C3536 1.391 . S
C3535 C3534 1.386 . S
C3535 C3539 1.393 . S
C3536 H3525 0.950 . S
C3536 C3534 1.391 . S
C3536 C3537 1.400 . S
C3537 C3531 1.491 . S
C3537 C3536 1.400 . S
C3537 C3538 1.398 . S
C3538 H3526 0.950 . S
C3538 C3537 1.398 . S
C3538 C3539 1.391 . S
C3539 H3527 0.950 . S
C3539 C3535 1.393 . S
C3539 C3538 1.391 . S
H3540 C3548 0.950 . S
H3541 C3553 0.950 . S
H3542 C3550 0.950 . S
H3543 C3552 0.950 1_556 S
H3544 C3554 0.950 . S
H3545 C3556 0.950 . S
H3546 C3558 0.950 . S
H3547 C3559 0.950 . S
C3548 H3540 0.950 . S
C3548 C3549 1.386 . S
C3548 C3550 1.391 . S
C3549 C3548 1.386 . S
C3549 C3553 1.393 . S
C3550 H3542 0.950 . S
C3550 C3548 1.391 . S
C3550 C3551 1.400 . S
C3551 C3550 1.400 . S
C3551 C3552 1.398 . S
C3551 C3557 1.491 . S
C3552 H3543 0.950 1_554 S
C3552 C3551 1.398 . S
C3552 C3553 1.391 . S
C3553 H3541 0.950 . S
C3553 C3549 1.393 . S
C3553 C3552 1.391 . S
C3554 H3544 0.950 . S
C3554 C3555 1.386 1_556 S
C3554 C3556 1.391 . S
C3555 C3554 1.386 1_554 S
C3555 C3559 1.393 . S
C3556 H3545 0.950 . S
C3556 C3554 1.391 . S
C3556 C3557 1.400 1_556 S
C3557 C3551 1.491 . S
C3557 C3556 1.400 1_554 S
C3557 C3558 1.398 . S
C3558 H3546 0.950 . S
C3558 C3557 1.398 . S
C3558 C3559 1.391 . S
C3559 H3547 0.950 . S
C3559 C3555 1.393 . S
C3559 C3558 1.391 . S
H3560 C3568 0.950 1_545 S
H3561 C3573 0.950 . S
H3562 C3570 0.950 . S
H3563 C3572 0.950 . S
H3564 C3574 0.950 . S
H3565 C3576 0.950 . S
H3566 C3578 0.950 . S
H3567 C3579 0.950 . S
C3568 H3560 0.950 1_565 S
C3568 C3569 1.386 . S
C3568 C3570 1.391 . S
C3569 C3568 1.386 . S
C3569 C3573 1.393 . S
C3570 H3562 0.950 . S
C3570 C3568 1.391 . S
C3570 C3571 1.400 . S
C3571 C3570 1.400 . S
C3571 C3572 1.398 . S
C3571 C3577 1.491 . S
C3572 H3563 0.950 . S
C3572 C3571 1.398 . S
C3572 C3573 1.391 . S
C3573 H3561 0.950 . S
C3573 C3569 1.393 . S
C3573 C3572 1.391 . S
C3574 H3564 0.950 . S
C3574 C3575 1.386 . S
C3574 C3576 1.391 . S
C3575 C3574 1.386 . S
C3575 C3579 1.393 . S
C3576 H3565 0.950 . S
C3576 C3574 1.391 . S
C3576 C3577 1.400 . S
C3577 C3571 1.491 . S
C3577 C3576 1.400 . S
C3577 C3578 1.398 . S
C3578 H3566 0.950 . S
C3578 C3577 1.398 . S
C3578 C3579 1.391 . S
C3579 H3567 0.950 . S
C3579 C3575 1.393 . S
C3579 C3578 1.391 . S
H3580 C3588 0.950 . S
H3581 C3593 0.950 . S
H3582 C3590 0.950 . S
H3583 C3592 0.950 . S
H3584 C3594 0.950 . S
H3585 C3596 0.950 . S
H3586 C3598 0.950 . S
H3587 C3599 0.950 . S
C3588 H3580 0.950 . S
C3588 C3589 1.386 . S
C3588 C3590 1.391 . S
C3589 C3588 1.386 . S
C3589 C3593 1.393 . S
C3590 H3582 0.950 . S
C3590 C3588 1.391 . S
C3590 C3591 1.400 . S
C3591 C3590 1.400 . S
C3591 C3592 1.398 . S
C3591 C3597 1.491 . S
C3592 H3583 0.950 . S
C3592 C3591 1.398 . S
C3592 C3593 1.391 . S
C3593 H3581 0.950 . S
C3593 C3589 1.393 . S
C3593 C3592 1.391 . S
C3594 H3584 0.950 . S
C3594 C3595 1.386 . S
C3594 C3596 1.391 . S
C3595 C3594 1.386 . S
C3595 C3599 1.393 . S
C3596 H3585 0.950 . S
C3596 C3594 1.391 . S
C3596 C3597 1.400 . S
C3597 C3591 1.491 . S
C3597 C3596 1.400 . S
C3597 C3598 1.398 . S
C3598 H3586 0.950 . S
C3598 C3597 1.398 . S
C3598 C3599 1.391 . S
C3599 H3587 0.950 . S
C3599 C3595 1.393 . S
C3599 C3598 1.391 . S
C1689 C109 1.741 . S
C1695 C392 1.621 . S
C1709 C61 1.926 . S
C1715 C483 2.084 . S
C1729 C74 1.555 . S
C1735 C560 1.525 . S
C1755 C658 1.446 . S
C1749 C96 1.605 . S
C1769 C25 1.465 1_455 S
C1775 C742 1.396 . S
C1795 C814 0.886 . S
C1789 C40 0.981 . S
C1815 C903 0.974 . S
C1809 C46 0.965 . S
C1829 C5 1.061 . S
C1835 C980 1.270 . S
C1855 C399 1.922 . S
C1849 C229 1.751 . S
C1869 C249 0.630 . S
C1875 C490 0.631 . S
C1895 C567 0.994 . S
C1889 C271 0.876 . S
C1915 C644 1.684 . S
C1909 C172 1.713 1_556 S
C1929 C236 2.035 . S
C1935 C728 1.888 . S
C1955 C830 1.287 . S
C1949 C242 1.325 . S
C1975 C910 0.747 . S
C1969 C278 0.720 . S
C1995 C987 1.554 . S
C1989 C179 1.650 . S
C2015 C406 1.311 . S
C2009 C159 1.212 . S
C2029 C285 1.627 . S
C2035 C1071 1.757 1_556 S
C2055 C1159 2.132 . S
C2049 C333 2.275 . S
C2075 C1232 0.490 . S
C2069 C320 0.417 . S
C2089 C123 0.803 . S
C2095 C994 0.812 . S
C2109 C138 1.459 . S
C2115 C574 1.413 . S
C2129 C326 2.325 . S
C2135 C1323 2.255 . S
C2155 C1400 0.754 . S
C2149 C298 0.753 . S
C2175 C403 1.579 . S
C2169 C67 1.658 . S
C2195 C1418 2.044 . S
C2189 C110 2.091 . S
C2209 C88 1.548 . S
C2215 C571 1.505 . S
C2229 C75 1.246 . S
C2235 C1318 1.361 . S
C2255 C730 1.387 . S
C2249 C11 1.419 . S
C2269 C47 0.881 . S
C2275 C1162 0.853 . S
C2295 C914 0.786 . S
C2289 C32 0.806 . S
C2315 C1495 1.286 . S
C2309 C26 1.476 . S
C2335 C410 1.991 . S
C2329 C152 2.103 . S
C2355 C1402 0.679 . S
C2349 C319 0.625 . S
C2369 C124 1.039 . S
C2375 C578 1.021 . S
C2389 C284 1.774 . S
C2395 C1327 1.685 . S
C2409 C145 1.895 . S
C2415 C739 1.871 . S
C2435 C1155 1.140 . S
C2429 C312 1.210 . S
C2449 C117 0.729 . S
C2455 C898 0.623 . S
C2469 C291 1.529 . S
C2475 C1502 1.426 . S
C2489 C194 1.450 . S
C2495 C394 1.371 1_554 S
C2509 C180 1.842 . S
C2515 C1082 1.757 . S
C2529 C263 2.141 . S
C2535 C812 1.984 . S
C2549 C243 0.680 . S
C2555 C1243 0.456 . S
C2575 C1486 0.942 . S
C2569 C277 0.891 . S
C2589 C215 1.300 . S
C2595 C562 1.382 . S
C2615 C662 2.163 . S
C2609 C256 2.203 . S
C2635 C487 0.792 . S
C2629 C200 0.809 . S
C2649 C81 1.743 . S
C2655 C1568 1.635 . S
C2675 C1407 2.074 . S
C2669 C89 1.895 . S
C2689 C102 1.560 . S
C2695 C1652 1.532 . S
C2709 C68 1.604 . S
C2715 C1330 1.479 . S
C2729 C53 1.472 . S
C2735 C1078 1.410 . S
C2755 C1150 0.911 . S
C2749 C12 0.983 . S
C2775 C1239 0.958 . S
C2769 C18 0.978 . S
C2795 C1484 1.261 . S
C2789 C33 1.040 . S
C2815 C1575 1.921 . S
C2809 C257 1.748 . S
C2829 C193 0.646 . S
C2835 C1414 0.698 . S
C2855 C1659 0.988 . S
C2849 C201 0.873 . S
C2875 C1316 1.692 . S
C2869 C214 1.717 . S
C2895 C1064 1.899 . S
C2889 C264 2.040 . S
C2909 C186 1.313 . S
C2915 C1166 1.269 . S
C2935 C1246 0.695 . S
C2929 C208 0.715 . S
C2949 C221 1.656 . S
C2955 C1491 1.561 . S
C2975 C1582 1.346 . S
C2969 C313 1.158 . S
C2989 C131 1.639 . S
C2995 C735 1.775 . S
C3015 C823 2.147 . S
C3009 C151 2.274 . S
C3035 C896 0.518 . S
C3029 C166 0.455 . S
C3055 C1498 0.821 . S
C3049 C305 0.797 . S
C3069 C292 1.452 1_554 S
C3075 C1666 1.410 . S
C3095 C651 2.254 . S
C3089 C144 2.319 . S
C3115 C476 0.738 . S
C3109 C116 0.748 . S
C3129 C95 1.660 . S
C3135 C1579 1.604 . S
C3155 C494 2.026 . S
C3149 C82 2.098 . S
C3169 C60 1.540 . S
C3175 C1663 1.521 . S
C3189 C103 1.262 . S
C3195 C646 1.380 . S
C3209 C39 1.393 . S
C3215 C1066 1.411 . S
C3235 C826 0.876 . S
C3229 C19 0.855 . S
C3249 C4 0.749 . S
C3255 C1250 0.806 . S
C3269 C54 1.472 . S
C3275 C991 1.312 . S
C3295 C1586 2.001 . S
C3289 C334 2.105 . S
C3309 C165 0.627 . S
C3315 C478 0.673 . S
C3335 C1670 0.986 . S
C3329 C306 1.039 . S
C3349 C130 1.775 . S
C3355 C655 1.691 . S
C3369 C327 1.917 . S
C3375 C1075 1.861 . S
C3395 C819 1.180 . S
C3389 C158 1.226 . S
C3409 C299 0.659 . S
C3415 C1234 0.625 1_655 S
C3435 C998 1.435 . S
C3429 C137 1.534 . S
C3455 C1570 1.377 . S
C3449 C250 1.460 . S
C3475 C746 1.764 1_665 S
C3469 C222 1.844 . S
C3489 C235 2.146 . S
C3495 C1148 1.996 . S
C3515 C907 0.446 . S
C3509 C187 0.673 . S
C3529 C207 0.924 . S
C3535 C982 0.934 . S
C3549 C173 1.259 . S
C3555 C1654 1.384 1_554 S
C3575 C1334 2.164 . S
C3569 C228 2.205 1_565 S
C3595 C1411 0.788 . S
C3589 C270 0.810 . S
