# Generated by pormake.
# Topology tsx, (6,3)-cn, num edge types: 1
# Building blocks:
#     Node 0, Type 0, BuildingBlock: CIFDUS_clean_sbu_1, # of connection points: 6
#     Node 1, Type 0, BuildingBlock: CIFDUS_clean_sbu_1, # of connection points: 6
#     Node 2, Type 1, BuildingBlock: WUSLED_clean_sbu_0, # of connection points: 3
#     Node 3, Type 1, BuildingBlock: WUSLED_clean_sbu_0, # of connection points: 3
#     Node 4, Type 1, BuildingBlock: WUSLED_clean_sbu_0, # of connection points: 3
#     Node 5, Type 1, BuildingBlock: WUSLED_clean_sbu_0, # of connection points: 3
#     Edge 6, Type (0, 1), BuildingBlock: XIVTED_clean_linker_0, # of connection points: 2
#     Edge 7, Type (0, 1), BuildingBlock: XIVTED_clean_linker_0, # of connection points: 2
#     Edge 8, Type (0, 1), BuildingBlock: XIVTED_clean_linker_0, # of connection points: 2
#     Edge 9, Type (0, 1), BuildingBlock: XIVTED_clean_linker_0, # of connection points: 2
#     Edge 10, Type (0, 1), BuildingBlock: XIVTED_clean_linker_0, # of connection points: 2
#     Edge 11, Type (0, 1), BuildingBlock: XIVTED_clean_linker_0, # of connection points: 2
#     Edge 12, Type (0, 1), BuildingBlock: XIVTED_clean_linker_0, # of connection points: 2
#     Edge 13, Type (0, 1), BuildingBlock: XIVTED_clean_linker_0, # of connection points: 2
#     Edge 14, Type (0, 1), BuildingBlock: XIVTED_clean_linker_0, # of connection points: 2
#     Edge 15, Type (0, 1), BuildingBlock: XIVTED_clean_linker_0, # of connection points: 2
#     Edge 16, Type (0, 1), BuildingBlock: XIVTED_clean_linker_0, # of connection points: 2
#     Edge 17, Type (0, 1), BuildingBlock: XIVTED_clean_linker_0, # of connection points: 2
# Relax obj value: 0.120
# Max RMSD: 0.152
# Mean RMSD: 0.113
data_MOF--net-tsx--node1-CIFDUS_clean_sbu_1--node2-WUSLED_clean_sbu_0--edge1-XIVTED_clean_linker_0
_symmetry_space_group_name_H-M    P1
_symmetry_Int_Tables_number       1
_symmetry_cell_setting            triclinic
loop_
_symmetry_equiv_pos_as_xyz
'x, y, z'
_cell_length_a     23.981532
_cell_length_b     28.892507
_cell_length_c     47.640897
_cell_angle_alpha  97.196504
_cell_angle_beta   90.525582
_cell_angle_gamma 90.655185
loop_
_atom_site_label
_atom_site_type_symbol
_atom_site_fract_x
_atom_site_fract_y
_atom_site_fract_z
_atom_type_partial_charge
O0 O 0.01613 0.10227 0.01908 0.0
Mn1 Mn 0.05721 0.03696 0.01353 0.0
O2 O 0.92582 0.0867 0.01391 0.0
Mn3 Mn 0.9431 0.03369 0.9908 0.0
O4 O 0.10213 0.97251 0.00687 0.0
O5 O 0.13025 0.07469 0.01858 0.0
Mn6 Mn 0.17214 0.03942 0.03842 0.0
O7 O 0.0505 0.03376 0.05691 0.0
O8 O 0.1927 0.99256 0.01161 0.0
O9 O 0.0623 0.04045 0.9696 0.0
O10 O 0.97257 0.04058 0.95605 0.0
O11 O 0.20004 0.09782 0.04732 0.0
O12 O 0.13746 0.01855 0.0693 0.0
C13 C 0.93907 0.97005 0.00523 0.0
C14 C 0.96506 0.11508 0.02121 0.0
C15 C 0.15456 0.96312 1.00321 0.0
C16 C 0.15662 0.10932 0.0335 0.0
C17 C 0.08604 0.02243 0.07494 0.0
C18 C 0.02424 0.0417 0.95049 0.0
O19 O 0.98488 0.99593 0.00846 0.0
O20 O 0.8969 0.98548 0.9921 0.0
O21 O 0.50551 0.597 0.51702 0.0
Mn22 Mn 0.55332 0.5353 0.51212 0.0
O23 O 0.42482 0.57862 0.49378 0.0
Mn24 Mn 0.44791 0.52166 0.47687 0.0
O25 O 0.60052 0.47315 0.50671 0.0
O26 O 0.6228 0.57731 0.52217 0.0
Mn27 Mn 0.65898 0.54628 0.54654 0.0
O28 O 0.53785 0.52789 0.5551 0.0
O29 O 0.68169 0.4893 0.52961 0.0
O30 O 0.56901 0.54265 0.46913 0.0
O31 O 0.49014 0.52159 0.44502 0.0
O32 O 0.70363 0.59589 0.54431 0.0
O33 O 0.61822 0.54494 0.57877 0.0
C34 C 0.44204 0.46362 0.49854 0.0
C35 C 0.45577 0.60704 0.50952 0.0
C36 C 0.64972 0.46157 0.51409 0.0
C37 C 0.66516 0.60652 0.52701 0.0
C38 C 0.56687 0.53413 0.57818 0.0
C39 C 0.54103 0.53393 0.44583 0.0
O40 O 0.48388 0.49341 0.50239 0.0
O41 O 0.40449 0.4714 0.48002 0.0
C42 C 0.96876 0.10748 0.47176 0.0
C43 C 0.96256 0.13742 0.45088 0.0
C44 C 0.89007 0.18043 0.47841 0.0
C45 C 0.92389 0.17364 0.45424 0.0
C46 C 0.89616 0.14981 0.49906 0.0
C47 C 0.93517 0.11389 0.49578 0.0
U48 U 0.05396 0.02201 0.4236 0.0
O49 O 0.13978 0.99677 0.42668 0.0
O50 O 0.06936 0.94684 0.42335 0.0
C51 C 0.12361 0.95302 0.42632 0.0
C52 C 0.00893 0.06882 0.46832 0.0
C53 C 0.15298 0.92419 0.44522 0.0
C54 C 0.21903 0.9148 0.48329 0.0
C55 C 0.18555 0.94356 0.4686 0.0
C56 C 0.18607 0.84714 0.45217 0.0
C57 C 0.22003 0.86632 0.47498 0.0
C58 C 0.15314 0.87574 0.43746 0.0
C59 C 0.02907 0.03676 0.3435 0.0
C60 C 0.08075 0.01258 0.30052 0.0
C61 C 0.98852 0.04502 0.29755 0.0
C62 C 0.98486 0.04988 0.32694 0.0
C63 C 0.03675 0.027 0.28387 0.0
C64 C 0.077 0.01752 0.33017 0.0
C65 C 0.02382 0.04644 0.37445 0.0
O66 O 0.98871 0.02875 0.45611 0.0
O67 O 0.05833 0.07905 0.45883 0.0
O68 O 0.06735 0.06459 0.389 0.0
O69 O 0.99625 0.01553 0.38707 0.0
H70 H 0.98777 0.13288 0.432 0.0
H71 H 0.92116 0.19669 0.43804 0.0
H72 H 0.87031 0.1531 0.51769 0.0
H73 H 0.93887 0.0909 0.51199 0.0
H74 H 0.24453 0.93043 0.50093 0.0
H75 H 0.18634 0.98086 0.47503 0.0
H76 H 0.18652 0.81005 0.44499 0.0
H77 H 0.1291 0.86005 0.41928 0.0
H78 H 0.11864 0.99874 0.29072 0.0
H79 H 0.95333 0.05553 0.28553 0.0
H80 H 0.94751 0.06471 0.33685 0.0
H81 H 0.11166 0.00716 0.34262 0.0
C82 C 0.92208 0.98811 0.5537 0.0
C83 C 0.91714 0.95567 0.5732 0.0
C84 C 0.85167 0.9087 0.54173 0.0
C85 C 0.88256 0.91621 0.56719 0.0
C86 C 0.85533 0.942 0.52266 0.0
C87 C 0.8905 0.98124 0.52854 0.0
U88 U 0.01251 0.06911 0.60477 0.0
O89 O 0.09822 0.09516 0.60148 0.0
O90 O 0.02948 0.14503 0.60846 0.0
C91 C 0.08335 0.13917 0.60468 0.0
C92 C 0.96109 0.02833 0.55912 0.0
C93 C 0.11378 0.17164 0.5884 0.0
C94 C 0.18781 0.18668 0.5559 0.0
C95 C 0.14992 0.15576 0.56628 0.0
C96 C 0.1516 0.25016 0.58832 0.0
C97 C 0.19044 0.23402 0.5675 0.0
C98 C 0.11393 0.21931 0.59867 0.0
C99 C 0.00709 0.04216 0.68295 0.0
C100 C 0.04426 0.08679 0.72603 0.0
C101 C 0.99951 0.01164 0.72787 0.0
C102 C 0.99041 0.0069 0.69875 0.0
C103 C 0.02549 0.05194 0.742 0.0
C104 C 0.03486 0.08203 0.69659 0.0
C105 C 0.99243 0.03613 0.65264 0.0
O106 O 0.94168 0.06541 0.5746 0.0
O107 O 0.01209 0.01813 0.5664 0.0
O108 O 0.03138 0.01967 0.63506 0.0
O109 O 0.96288 0.06923 0.64337 0.0
H110 H 0.94075 0.96045 0.59287 0.0
H111 H 0.8802 0.89135 0.58239 0.0
H112 H 0.83237 0.93692 0.5028 0.0
H113 H 0.89371 0.00585 0.51322 0.0
H114 H 0.21701 0.17286 0.53988 0.0
H115 H 0.15096 0.11913 0.55798 0.0
H116 H 0.15127 0.28649 0.59728 0.0
H117 H 0.08675 0.23241 0.61583 0.0
H118 H 0.06433 0.11822 0.7364 0.0
H119 H 0.98539 0.98383 0.73947 0.0
H120 H 0.96921 0.97582 0.68859 0.0
H121 H 0.04819 0.10962 0.68464 0.0
C122 C 0.46404 0.60285 0.97347 0.0
C123 C 0.44927 0.62511 0.94999 0.0
C124 C 0.38755 0.67736 0.97912 0.0
C125 C 0.4115 0.66188 0.95276 0.0
C126 C 0.4021 0.65455 1.00258 0.0
C127 C 0.44004 0.61766 0.99975 0.0
U128 U 0.55008 0.51959 0.9251 0.0
O129 O 0.63695 0.4964 0.92759 0.0
O130 O 0.5681 0.44476 0.92394 0.0
C131 C 0.62229 0.45212 0.92578 0.0
C132 C 0.50432 0.56431 0.97035 0.0
C133 C 0.65553 0.42157 0.94177 0.0
C134 C 0.69402 0.39677 0.98494 0.0
C135 C 0.66019 0.4271 0.97144 0.0
C136 C 0.71854 0.35622 0.93921 0.0
C137 C 0.72345 0.36071 0.96889 0.0
C138 C 0.68484 0.38598 0.92595 0.0
C139 C 0.52551 0.53921 0.84553 0.0
C140 C 0.56188 0.50022 0.80123 0.0
C141 C 0.49958 0.56554 0.80089 0.0
C142 C 0.49616 0.56947 0.83024 0.0
C143 C 0.53285 0.53129 0.78591 0.0
C144 C 0.55836 0.50424 0.83095 0.0
C145 C 0.51956 0.54601 0.8765 0.0
O146 O 0.48473 0.5244 0.95755 0.0
O147 O 0.55372 0.57521 0.96118 0.0
O148 O 0.56207 0.56473 0.8916 0.0
O149 O 0.49349 0.51313 0.88813 0.0
H150 H 0.46703 0.61401 0.92944 0.0
H151 H 0.40068 0.67788 0.9341 0.0
H152 H 0.385 0.66572 0.02324 0.0
H153 H 0.45091 0.60089 0.01811 0.0
H154 H 0.69665 0.40126 0.00782 0.0
H155 H 0.63794 0.45462 0.98404 0.0
H156 H 0.74159 0.33006 0.92595 0.0
H157 H 0.68218 0.38143 0.90304 0.0
H158 H 0.58799 0.47352 0.79035 0.0
H159 H 0.47563 0.58937 0.78989 0.0
H160 H 0.47028 0.59642 0.8411 0.0
H161 H 0.58126 0.48042 0.84245 0.0
C162 C 0.4242 0.48709 0.05435 0.0
C163 C 0.39944 0.46929 0.07736 0.0
C164 C 0.35101 0.40869 0.04542 0.0
C165 C 0.36299 0.43087 0.07296 0.0
C166 C 0.37572 0.42711 0.02239 0.0
C167 C 0.41182 0.46598 0.02684 0.0
U168 U 0.5113 0.57115 0.10485 0.0
O169 O 0.59755 0.59661 0.1024 0.0
O170 O 0.52868 0.64674 0.10661 0.0
C171 C 0.58276 0.64057 0.10418 0.0
C172 C 0.46382 0.52685 0.05906 0.0
C173 C 0.61482 0.67176 0.08781 0.0
C174 C 0.68413 0.68451 0.05237 0.0
C175 C 0.64507 0.65528 0.06351 0.0
C176 C 0.66083 0.74732 0.08874 0.0
C177 C 0.6939 0.73036 0.06558 0.0
C178 C 0.62185 0.71836 0.09968 0.0
C179 C 0.49915 0.55225 0.18417 0.0
C180 C 0.56106 0.57921 0.22387 0.0
C181 C 0.47628 0.53643 0.2316 0.0
C182 C 0.46305 0.5335 0.20285 0.0
C183 C 0.52598 0.55835 0.24238 0.0
C184 C 0.54788 0.57596 0.19486 0.0
C185 C 0.48625 0.5431 0.15366 0.0
O186 O 0.44396 0.56538 0.07279 0.0
O187 O 0.51359 0.51671 0.06813 0.0
O188 O 0.52631 0.52494 0.13733 0.0
O189 O 0.45788 0.57503 0.14251 0.0
H190 H 0.4084 0.48512 0.0988 0.0
H191 H 0.34402 0.41882 0.0913 0.0
H192 H 0.3683 0.41099 1.00091 0.0
H193 H 0.43065 0.4792 0.0088 0.0
H194 H 0.70876 0.67044 0.03442 0.0
H195 H 0.64044 0.61939 0.05395 0.0
H196 H 0.66627 0.78272 0.09902 0.0
H197 H 0.59911 0.73181 0.11846 0.0
H198 H 0.59965 0.59628 0.23161 0.0
H199 H 0.44797 0.52071 0.24537 0.0
H200 H 0.42518 0.51526 0.19503 0.0
H201 H 0.57632 0.59072 0.18074 0.0
H202 H 0.17459 0.14923 0.98493 0.0
H203 H 0.33935 0.33972 0.07989 0.0
H204 H 0.1403 0.18073 0.07376 0.0
H205 H 0.27851 0.379 1.00062 0.0
H206 H 0.27597 0.27297 0.07414 0.0
H207 H 0.21679 0.2277 0.98562 0.0
C208 C 0.17291 0.17359 0.00413 0.0
C209 C 0.15318 0.15881 0.02927 0.0
C210 C 0.27625 0.29647 0.05811 0.0
C211 C 0.20415 0.24669 0.03058 0.0
C212 C 0.31231 0.33494 0.06142 0.0
C213 C 0.31384 0.36621 0.04108 0.0
C214 C 0.242 0.28804 0.03397 0.0
C215 C 0.27921 0.35607 0.0169 0.0
C216 C 0.19794 0.21795 0.00464 0.0
C217 C 0.15423 0.19105 0.05386 0.0
N218 N 0.24489 0.31767 0.01391 0.0
N219 N 0.18074 0.23284 0.0541 0.0
H220 H 0.23085 0.94017 0.96304 0.0
H221 H 0.29218 0.68969 0.01136 0.0
H222 H 0.12774 0.88026 0.02302 0.0
H223 H 0.39332 0.75715 0.95351 0.0
H224 H 0.22805 0.75571 0.0145 0.0
H225 H 0.28457 0.86874 0.95616 0.0
C226 C 0.2184 0.91115 0.97406 0.0
C227 C 0.17417 0.91574 0.99318 0.0
C228 C 0.26413 0.75582 1.00101 0.0
C229 C 0.23721 0.83408 0.9864 0.0
C230 C 0.30109 0.71831 0.99937 0.0
C231 C 0.34824 0.71745 0.98194 0.0
C232 C 0.27434 0.7928 0.98512 0.0
C233 C 0.35711 0.7555 0.96676 0.0
C234 C 0.24959 0.87053 0.97045 0.0
C235 C 0.16071 0.8776 0.00755 0.0
N236 N 0.32066 0.79137 0.96871 0.0
N237 N 0.19258 0.83845 0.00413 0.0
H238 H 0.91543 0.89029 0.97189 0.0
H239 H 0.76749 0.78492 0.09963 0.0
H240 H 0.93826 0.94704 0.05923 0.0
H241 H 0.72761 0.74222 0.01163 0.0
H242 H 0.84172 0.83535 0.08556 0.0
H243 H 0.86203 0.82517 0.98655 0.0
C244 C 0.91151 0.8877 0.9943 0.0
C245 C 0.93201 0.92366 0.01444 0.0
C246 C 0.81697 0.81483 0.0693 0.0
C247 C 0.86864 0.85029 0.03139 0.0
C248 C 0.77417 0.78627 0.0773 0.0
C249 C 0.74057 0.7597 0.05679 0.0
C250 C 0.8267 0.81698 0.04052 0.0
C251 C 0.7524 0.76198 0.02817 0.0
C252 C 0.88005 0.85098 1.00263 0.0
C253 C 0.92419 0.91952 0.0431 0.0
N254 N 0.79418 0.79039 0.0209 0.0
N255 N 0.89231 0.88386 0.05074 0.0
H256 H 0.90676 0.16795 0.06228 0.0
H257 H 0.7389 0.26764 0.95176 0.0
H258 H 0.98113 0.16994 0.98052 0.0
H259 H 0.79119 0.37786 0.01679 0.0
H260 H 0.80845 0.21691 0.96901 0.0
H261 H 0.84919 0.23509 0.05365 0.0
C262 C 0.91303 0.18411 0.04321 0.0
C263 C 0.94986 0.16442 0.02241 0.0
C264 C 0.80435 0.25221 0.97949 0.0
C265 C 0.88214 0.23842 0.01179 0.0
C266 C 0.76492 0.28139 0.96964 0.0
C267 C 0.76002 0.32784 0.98225 0.0
C268 C 0.83834 0.26882 1.00265 0.0
C269 C 0.79351 0.34252 0.00627 0.0
C270 C 0.8798 0.22188 0.03819 0.0
C271 C 0.95457 0.18511 0.99743 0.0
N272 N 0.83151 0.31305 0.01574 0.0
N273 N 0.91984 0.22008 0.99243 0.0
H274 H 0.60408 0.68694 0.53522 0.0
H275 H 0.88536 0.81968 0.5442 0.0
H276 H 0.75009 0.6262 0.49439 0.0
H277 H 0.74249 0.89812 0.5229 0.0
H278 H 0.83119 0.74749 0.53254 0.0
H279 H 0.64631 0.76512 0.53444 0.0
C280 C 0.64349 0.69018 0.52466 0.0
C281 C 0.67338 0.65014 0.51447 0.0
C282 C 0.81178 0.7805 0.53025 0.0
C283 C 0.72296 0.73847 0.51514 0.0
C284 C 0.84249 0.82168 0.53713 0.0
C285 C 0.81837 0.86494 0.53455 0.0
C286 C 0.75602 0.78236 0.52125 0.0
C287 C 0.76263 0.8654 0.52506 0.0
C288 C 0.66796 0.73466 0.52468 0.0
C289 C 0.72537 0.65622 0.50207 0.0
N290 N 0.73292 0.82468 0.51909 0.0
N291 N 0.74916 0.6993 0.50348 0.0
H292 H 0.6838 0.40587 0.55156 0.0
H293 H 0.8266 0.21734 0.43788 0.0
H294 H 0.66609 0.41009 0.46185 0.0
H295 H 0.85987 0.23333 0.52787 0.0
H296 H 0.76084 0.28191 0.44524 0.0
H297 H 0.73787 0.33494 0.54229 0.0
C298 C 0.69032 0.39103 0.5298 0.0
C299 C 0.67013 0.41351 0.50744 0.0
C300 C 0.78239 0.271 0.46333 0.0
C301 C 0.73382 0.33275 0.49651 0.0
C302 C 0.82038 0.23432 0.45917 0.0
C303 C 0.84913 0.21941 0.48228 0.0
C304 C 0.77264 0.29284 0.49082 0.0
C305 C 0.83824 0.24256 0.50937 0.0
C306 C 0.7217 0.35076 0.5245 0.0
C307 C 0.68029 0.39328 0.47965 0.0
N308 N 0.80105 0.27788 0.51282 0.0
N309 N 0.71204 0.35414 0.47493 0.0
H310 H 0.43578 0.37425 0.47555 0.0
H311 H 0.2479 0.30304 0.60144 0.0
H312 H 0.4187 0.46272 0.55461 0.0
H313 H 0.23675 0.23742 0.51496 0.0
H314 H 0.32178 0.35443 0.58782 0.0
H315 H 0.37884 0.31448 0.49384 0.0
C316 C 0.42237 0.38005 0.49736 0.0
C317 C 0.43292 0.42306 0.5138 0.0
C318 C 0.30324 0.32869 0.57188 0.0
C319 C 0.36518 0.35567 0.53449 0.0
C320 C 0.26054 0.29955 0.57952 0.0
C321 C 0.23539 0.26583 0.55929 0.0
C322 C 0.32162 0.32396 0.54382 0.0
C323 C 0.255 0.26239 0.53141 0.0
C324 C 0.38878 0.34632 0.50758 0.0
C325 C 0.4127 0.42955 0.54153 0.0
N326 N 0.29677 0.29106 0.52454 0.0
N327 N 0.37904 0.39644 0.55091 0.0
H328 H 0.35725 0.62405 0.53488 0.0
H329 H 0.33179 0.87886 0.48743 0.0
H330 H 0.49625 0.69348 0.50069 0.0
H331 H 0.19455 0.78299 0.49348 0.0
H332 H 0.39537 0.82187 0.50447 0.0
H333 H 0.30147 0.69378 0.53354 0.0
C334 C 0.37664 0.65479 0.52809 0.0
C335 C 0.43142 0.65321 0.51802 0.0
C336 C 0.35122 0.81372 0.50239 0.0
C337 C 0.36716 0.73271 0.51543 0.0
C338 C 0.31491 0.84624 0.49286 0.0
C339 C 0.25786 0.83546 0.48887 0.0
C340 C 0.33006 0.77055 0.50838 0.0
C341 C 0.23827 0.79255 0.49598 0.0
C342 C 0.34457 0.69436 0.52697 0.0
C343 C 0.45435 0.69364 0.50898 0.0
N344 N 0.27426 0.7617 0.50526 0.0
N345 N 0.42173 0.73168 0.50743 0.0
H346 H 0.12787 0.96096 0.10805 0.0
H347 H 0.99982 0.09034 0.24972 0.0
H348 H 0.00802 0.0711 0.10833 0.0
H349 H 0.08328 0.95816 0.2462 0.0
H350 H 1.0042 0.08498 0.1983 0.0
H351 H 0.11238 0.95932 0.15853 0.0
C352 C 0.09765 0.98439 0.11874 0.0
C353 C 0.06921 0.01625 0.10404 0.0
C354 C 0.0212 0.05697 0.20874 0.0
C355 C 0.05225 0.01538 0.16205 0.0
C356 C 0.01864 0.0599 0.23816 0.0
C357 C 0.04086 0.02444 0.25248 0.0
C358 C 0.04669 0.01853 0.19331 0.0
C359 C 0.06607 0.98655 0.23623 0.0
C360 C 0.08892 0.9835 0.14756 0.0
C361 C 0.03048 0.04577 0.11885 0.0
N362 N 0.06839 0.98467 0.20756 0.0
N363 N 0.02371 0.0451 0.14717 0.0
H364 H 0.1067 0.09067 0.92492 0.0
H365 H 0.94288 0.03727 0.77824 0.0
H366 H 0.97051 0.99224 0.90709 0.0
H367 H 0.11582 0.07967 0.77733 0.0
H368 H 0.94971 0.03586 0.82893 0.0
H369 H 0.11164 0.09778 0.87357 0.0
C370 C 0.07881 0.06994 0.91022 0.0
C371 C 0.03773 0.04119 0.92021 0.0
C372 C 0.98641 0.04547 0.81779 0.0
C373 C 0.04217 0.04995 0.86237 0.0
C374 C 0.98245 0.04634 0.78879 0.0
C375 C 0.02917 0.05751 0.77343 0.0
C376 C 0.03748 0.05592 0.83193 0.0
C377 C 0.07895 0.07045 0.78844 0.0
C378 C 0.08134 0.07427 0.8811 0.0
C379 C 1.00227 0.01535 0.90041 0.0
N380 N 0.08207 0.06893 0.81699 0.0
N381 N 1.00496 0.02073 0.87269 0.0
H382 H 0.55628 0.45466 0.60297 0.0
H383 H 0.54211 0.60452 0.75515 0.0
H384 H 0.53 0.60282 0.61687 0.0
H385 H 0.53331 0.45408 0.745 0.0
H386 H 0.53986 0.60282 0.70407 0.0
H387 H 0.54605 0.45139 0.65406 0.0
C388 C 0.54591 0.48612 0.61668 0.0
C389 C 0.54219 0.52888 0.60574 0.0
C390 C 0.53814 0.57005 0.71288 0.0
C391 C 0.53345 0.52595 0.66409 0.0
C392 C 0.53942 0.57099 0.74216 0.0
C393 C 0.53693 0.5294 0.75454 0.0
C394 C 0.53486 0.52717 0.69545 0.0
C395 C 0.5353 0.48702 0.73643 0.0
C396 C 0.54099 0.48439 0.64584 0.0
C397 C 0.53148 0.56903 0.62443 0.0
N398 N 0.53417 0.48696 0.70776 0.0
N399 N 0.52798 0.56666 0.65267 0.0
H400 H 0.56416 0.46382 0.40516 0.0
H401 H 0.56486 0.62948 0.2822 0.0
H402 H 0.56696 0.61361 0.42302 0.0
H403 H 0.52358 0.48262 0.27099 0.0
H404 H 0.58496 0.62467 0.3326 0.0
H405 H 0.5721 0.47037 0.35477 0.0
C406 C 0.56887 0.49813 0.39846 0.0
C407 C 0.56615 0.5382 0.41821 0.0
C408 C 0.5719 0.59352 0.31899 0.0
C409 C 0.57232 0.54624 0.36038 0.0
C410 C 0.56059 0.59621 0.29028 0.0
C411 C 0.54193 0.55648 0.27248 0.0
C412 C 0.56535 0.55063 0.32974 0.0
C413 C 0.53697 0.51428 0.28402 0.0
C414 C 0.57244 0.50194 0.36965 0.0
C415 C 0.57034 0.58192 0.40841 0.0
N416 N 0.54844 0.51253 0.31181 0.0
N417 N 0.57248 0.58487 0.38007 0.0
loop_
_geom_bond_atom_site_label_1
_geom_bond_atom_site_label_2
_geom_bond_distance
_geom_bond_site_symmetry_2
_ccdc_geom_bond_type
O0 Mn1 2.163 . S
O0 C14 1.244 1_455 S
Mn1 O0 2.163 . S
Mn1 O4 2.160 1_545 S
Mn1 O5 2.221 . S
Mn1 O7 2.163 . S
Mn1 O9 2.160 1_554 S
Mn1 O19 2.221 1_444 S
O2 Mn3 2.087 . S
O2 C14 1.256 1_556 S
Mn3 O2 2.087 . S
Mn3 O10 2.089 . S
Mn3 O19 2.290 1_545 S
Mn3 O20 2.251 1_546 S
O4 Mn1 2.160 1_565 S
O4 C15 1.255 . S
O5 Mn1 2.221 . S
O5 Mn6 2.290 . S
O5 C16 1.278 . S
Mn6 O5 2.290 . S
Mn6 O8 2.089 1_545 S
Mn6 O11 2.251 . S
Mn6 O12 2.087 . S
O7 Mn1 2.163 . S
O7 C17 1.244 . S
O8 Mn6 2.089 1_565 S
O8 C15 1.256 . S
O9 Mn1 2.160 1_556 S
O9 C18 1.239 . S
O10 Mn3 2.089 . S
O10 C18 1.256 1_655 S
O11 Mn6 2.251 . S
O11 C16 1.241 . S
O12 Mn6 2.087 . S
O12 C17 1.256 . S
C13 O19 1.278 1_554 S
C13 O20 1.241 . S
C14 O0 1.244 1_655 S
C14 O2 1.256 1_554 S
C15 O4 1.255 . S
C15 O8 1.256 . S
C16 O5 1.278 . S
C16 O11 1.241 . S
C17 O7 1.244 . S
C17 O12 1.256 . S
C18 O9 1.239 . S
C18 O10 1.256 1_455 S
O19 Mn1 2.221 1_666 S
O19 Mn3 2.290 1_565 S
O19 C13 1.278 1_556 S
O20 Mn3 2.251 1_564 S
O20 C13 1.241 . S
O21 Mn22 2.163 . S
O21 C35 1.244 . S
Mn22 O21 2.163 . S
Mn22 O25 2.160 . S
Mn22 O26 2.221 . S
Mn22 O28 2.163 . S
Mn22 O30 2.160 . S
Mn22 O40 2.221 . S
O23 Mn24 2.087 . S
O23 C35 1.256 . S
Mn24 O23 2.087 . S
Mn24 O31 2.089 . S
Mn24 O40 2.290 . S
Mn24 O41 2.251 . S
O25 Mn22 2.160 . S
O25 C36 1.239 . S
O26 Mn22 2.221 . S
O26 Mn27 2.290 . S
O26 C37 1.278 . S
Mn27 O26 2.290 . S
Mn27 O29 2.089 . S
Mn27 O32 2.251 . S
Mn27 O33 2.087 . S
O28 Mn22 2.163 . S
O28 C38 1.244 . S
O29 Mn27 2.089 . S
O29 C36 1.256 . S
O30 Mn22 2.160 . S
O30 C39 1.239 . S
O31 Mn24 2.089 . S
O31 C39 1.256 . S
O32 Mn27 2.251 . S
O32 C37 1.241 . S
O33 Mn27 2.087 . S
O33 C38 1.256 . S
C34 O40 1.278 . S
C34 O41 1.241 . S
C35 O21 1.244 . S
C35 O23 1.256 . S
C36 O25 1.239 . S
C36 O29 1.256 . S
C37 O26 1.278 . S
C37 O32 1.241 . S
C38 O28 1.244 . S
C38 O33 1.256 . S
C39 O30 1.239 . S
C39 O31 1.256 . S
O40 Mn22 2.221 . S
O40 Mn24 2.290 . S
O40 C34 1.278 . S
O41 Mn24 2.251 . S
O41 C34 1.241 . S
C42 C43 1.264 . S
C42 C47 1.479 . S
C42 C52 1.465 1_655 S
C43 C42 1.264 . S
C43 C45 1.339 . S
C43 H70 0.931 . S
C44 C45 1.395 . S
C44 C46 1.320 . S
C45 C43 1.339 . S
C45 C44 1.395 . S
C45 H71 0.929 . S
C46 C44 1.320 . S
C46 C47 1.405 . S
C46 H72 0.930 . S
C47 C42 1.479 . S
C47 C46 1.405 . S
C47 H73 0.931 . S
U48 O49 2.454 1_545 S
U48 O50 2.458 1_545 S
U48 C51 2.984 1_545 S
U48 C52 2.847 . S
U48 C65 2.882 . S
U48 O66 2.441 . S
U48 O67 2.420 . S
U48 O68 2.455 1_545 S
U48 O69 2.449 . S
O49 U48 2.454 1_565 S
O49 C51 1.353 . S
O50 U48 2.458 1_565 S
O50 C51 1.286 . S
C51 U48 2.984 1_565 S
C51 O49 1.353 . S
C51 O50 1.286 . S
C51 C53 1.363 . S
C52 C42 1.465 1_455 S
C52 U48 2.847 . S
C52 O66 1.249 . S
C52 O67 1.202 . S
C53 C51 1.363 . S
C53 C55 1.408 . S
C53 C58 1.342 . S
C54 C55 1.310 . S
C54 C57 1.461 . S
C54 H74 0.932 . S
C55 C53 1.408 . S
C55 C54 1.310 . S
C55 H75 0.930 . S
C56 C57 1.474 . S
C56 C58 1.285 . S
C56 H76 0.929 . S
C57 C54 1.461 . S
C57 C56 1.474 . S
C58 C53 1.342 . S
C58 C56 1.285 . S
C58 H77 0.930 . S
C59 C62 1.424 . S
C59 C64 1.245 1_545 S
C59 C65 1.428 . S
C60 C63 1.268 . S
C60 C64 1.477 . S
C60 H78 0.932 . S
C61 C62 1.384 . S
C61 C63 1.469 1_545 S
C61 H79 0.929 . S
C62 C59 1.424 . S
C62 C61 1.384 . S
C62 H80 0.928 . S
C63 C60 1.268 . S
C63 C61 1.469 1_565 S
C64 C59 1.245 1_565 S
C64 C60 1.477 . S
C64 H81 0.932 . S
C65 U48 2.882 . S
C65 C59 1.428 . S
C65 O68 1.301 1_545 S
C65 O69 1.282 . S
O66 U48 2.441 . S
O66 C52 1.249 . S
O67 U48 2.420 . S
O67 C52 1.202 . S
O68 U48 2.455 1_565 S
O68 C65 1.301 1_565 S
O69 U48 2.449 . S
O69 C65 1.282 . S
H70 C43 0.931 . S
H71 C45 0.929 . S
H72 C46 0.930 . S
H73 C47 0.931 . S
H74 C54 0.932 . S
H75 C55 0.930 . S
H76 C56 0.929 . S
H77 C58 0.930 . S
H78 C60 0.932 . S
H79 C61 0.929 . S
H80 C62 0.928 . S
H81 C64 0.932 . S
C82 C83 1.264 . S
C82 C87 1.479 . S
C82 C92 1.465 . S
C83 C82 1.264 . S
C83 C85 1.339 . S
C83 H110 0.931 . S
C84 C85 1.395 . S
C84 C86 1.320 . S
C85 C83 1.339 . S
C85 C84 1.395 . S
C85 H111 0.929 . S
C86 C84 1.320 . S
C86 C87 1.405 . S
C86 H112 0.930 . S
C87 C82 1.479 . S
C87 C86 1.405 . S
C87 H113 0.931 . S
U88 O89 2.454 . S
U88 O90 2.458 . S
U88 C91 2.984 . S
U88 C92 2.847 1_445 S
U88 C105 2.882 . S
U88 O106 2.441 1_455 S
U88 O107 2.420 1_445 S
U88 O108 2.455 . S
U88 O109 2.449 . S
O89 U88 2.454 . S
O89 C91 1.353 . S
O90 U88 2.458 . S
O90 C91 1.286 . S
C91 U88 2.984 . S
C91 O89 1.353 . S
C91 O90 1.286 . S
C91 C93 1.363 . S
C92 C82 1.465 . S
C92 U88 2.847 1_665 S
C92 O106 1.249 1_565 S
C92 O107 1.202 . S
C93 C91 1.363 . S
C93 C95 1.408 . S
C93 C98 1.342 . S
C94 C95 1.310 . S
C94 C97 1.461 . S
C94 H114 0.932 . S
C95 C93 1.408 . S
C95 C94 1.310 . S
C95 H115 0.930 . S
C96 C97 1.474 . S
C96 C98 1.285 . S
C96 H116 0.929 . S
C97 C94 1.461 . S
C97 C96 1.474 . S
C98 C93 1.342 . S
C98 C96 1.285 . S
C98 H117 0.930 . S
C99 C102 1.424 1_455 S
C99 C104 1.245 . S
C99 C105 1.428 . S
C100 C103 1.260 . S
C100 C104 1.477 . S
C100 H118 0.932 . S
C101 C102 1.384 . S
C101 C103 1.479 1_655 S
C101 H119 0.929 . S
C102 C99 1.424 1_655 S
C102 C101 1.384 . S
C102 H120 0.928 . S
C103 C100 1.260 . S
C103 C101 1.479 1_455 S
C104 C99 1.245 . S
C104 C100 1.477 . S
C104 H121 0.932 . S
C105 U88 2.882 . S
C105 C99 1.428 . S
C105 O108 1.301 . S
C105 O109 1.282 . S
O106 U88 2.441 1_655 S
O106 C92 1.249 1_545 S
O107 U88 2.420 1_665 S
O107 C92 1.202 . S
O108 U88 2.455 . S
O108 C105 1.301 . S
O109 U88 2.449 . S
O109 C105 1.282 . S
H110 C83 0.931 . S
H111 C85 0.929 . S
H112 C86 0.930 . S
H113 C87 0.931 . S
H114 C94 0.932 . S
H115 C95 0.930 . S
H116 C96 0.929 . S
H117 C98 0.930 . S
H118 C100 0.932 . S
H119 C101 0.929 . S
H120 C102 0.928 . S
H121 C104 0.932 . S
C122 C123 1.264 . S
C122 C127 1.486 . S
C122 C132 1.465 . S
C123 C122 1.264 . S
C123 C125 1.339 . S
C123 H150 0.931 . S
C124 C125 1.395 . S
C124 C126 1.320 1_556 S
C125 C123 1.339 . S
C125 C124 1.395 . S
C125 H151 0.929 . S
C126 C124 1.320 1_554 S
C126 C127 1.402 1_554 S
C126 H152 0.930 . S
C127 C122 1.486 . S
C127 C126 1.402 1_556 S
C127 H153 0.926 1_556 S
U128 O129 2.454 . S
U128 O130 2.458 . S
U128 C131 2.984 . S
U128 C132 2.847 . S
U128 C145 2.882 . S
U128 O146 2.441 . S
U128 O147 2.420 . S
U128 O148 2.455 . S
U128 O149 2.449 . S
O129 U128 2.454 . S
O129 C131 1.353 . S
O130 U128 2.458 . S
O130 C131 1.286 . S
C131 U128 2.984 . S
C131 O129 1.353 . S
C131 O130 1.286 . S
C131 C133 1.363 . S
C132 C122 1.465 . S
C132 U128 2.847 . S
C132 O146 1.249 . S
C132 O147 1.202 . S
C133 C131 1.363 . S
C133 C135 1.408 . S
C133 C138 1.342 . S
C134 C135 1.310 1_554 S
C134 C137 1.461 1_554 S
C134 H154 0.932 . S
C135 C133 1.408 . S
C135 C134 1.310 1_556 S
C135 H155 0.930 1_556 S
C136 C137 1.474 . S
C136 C138 1.285 . S
C136 H156 0.929 . S
C137 C134 1.461 1_556 S
C137 C136 1.474 . S
C138 C133 1.342 . S
C138 C136 1.285 . S
C138 H157 0.930 . S
C139 C142 1.424 . S
C139 C144 1.245 . S
C139 C145 1.428 . S
C140 C143 1.260 . S
C140 C144 1.477 . S
C140 H158 0.932 . S
C141 C142 1.384 . S
C141 C143 1.479 . S
C141 H159 0.929 . S
C142 C139 1.424 . S
C142 C141 1.384 . S
C142 H160 0.928 . S
C143 C140 1.260 . S
C143 C141 1.479 . S
C144 C139 1.245 . S
C144 C140 1.477 . S
C144 H161 0.932 . S
C145 U128 2.882 . S
C145 C139 1.428 . S
C145 O148 1.301 . S
C145 O149 1.282 . S
O146 U128 2.441 . S
O146 C132 1.249 . S
O147 U128 2.420 . S
O147 C132 1.202 . S
O148 U128 2.455 . S
O148 C145 1.301 . S
O149 U128 2.449 . S
O149 C145 1.282 . S
H150 C123 0.931 . S
H151 C125 0.929 . S
H152 C126 0.930 . S
H153 C127 0.926 1_554 S
H154 C134 0.932 . S
H155 C135 0.930 1_554 S
H156 C136 0.929 . S
H157 C138 0.930 . S
H158 C140 0.932 . S
H159 C141 0.929 . S
H160 C142 0.928 . S
H161 C144 0.932 . S
C162 C163 1.264 . S
C162 C167 1.479 . S
C162 C172 1.465 . S
C163 C162 1.264 . S
C163 C165 1.339 . S
C163 H190 0.931 . S
C164 C165 1.395 . S
C164 C166 1.320 . S
C165 C163 1.339 . S
C165 C164 1.395 . S
C165 H191 0.929 . S
C166 C164 1.320 . S
C166 C167 1.405 . S
C166 H192 0.930 1_554 S
C167 C162 1.479 . S
C167 C166 1.405 . S
C167 H193 0.931 . S
U168 O169 2.454 . S
U168 O170 2.458 . S
U168 C171 2.984 . S
U168 C172 2.847 . S
U168 C185 2.882 . S
U168 O186 2.441 . S
U168 O187 2.420 . S
U168 O188 2.455 . S
U168 O189 2.449 . S
O169 U168 2.454 . S
O169 C171 1.353 . S
O170 U168 2.458 . S
O170 C171 1.286 . S
C171 U168 2.984 . S
C171 O169 1.353 . S
C171 O170 1.286 . S
C171 C173 1.363 . S
C172 C162 1.465 . S
C172 U168 2.847 . S
C172 O186 1.249 . S
C172 O187 1.202 . S
C173 C171 1.363 . S
C173 C175 1.408 . S
C173 C178 1.342 . S
C174 C175 1.310 . S
C174 C177 1.461 . S
C174 H194 0.932 1_554 S
C175 C173 1.408 . S
C175 C174 1.310 . S
C175 H195 0.930 . S
C176 C177 1.474 . S
C176 C178 1.285 . S
C176 H196 0.929 . S
C177 C174 1.461 . S
C177 C176 1.474 . S
C178 C173 1.342 . S
C178 C176 1.285 . S
C178 H197 0.930 . S
C179 C182 1.424 . S
C179 C184 1.245 . S
C179 C185 1.428 . S
C180 C183 1.260 . S
C180 C184 1.477 . S
C180 H198 0.932 . S
C181 C182 1.384 . S
C181 C183 1.479 . S
C181 H199 0.929 . S
C182 C179 1.424 . S
C182 C181 1.384 . S
C182 H200 0.928 . S
C183 C180 1.260 . S
C183 C181 1.479 . S
C184 C179 1.245 . S
C184 C180 1.477 . S
C184 H201 0.932 . S
C185 U168 2.882 . S
C185 C179 1.428 . S
C185 O188 1.301 . S
C185 O189 1.282 . S
O186 U168 2.441 . S
O186 C172 1.249 . S
O187 U168 2.420 . S
O187 C172 1.202 . S
O188 U168 2.455 . S
O188 C185 1.301 . S
O189 U168 2.449 . S
O189 C185 1.282 . S
H190 C163 0.931 . S
H191 C165 0.929 . S
H192 C166 0.930 1_556 S
H193 C167 0.931 . S
H194 C174 0.932 1_556 S
H195 C175 0.930 . S
H196 C176 0.929 . S
H197 C178 0.930 . S
H198 C180 0.932 . S
H199 C181 0.929 . S
H200 C182 0.928 . S
H201 C184 0.932 . S
H202 C208 0.930 . S
H203 C212 0.930 . S
H204 C217 0.929 . S
H205 C215 0.929 . S
H206 C210 0.929 . S
H207 C216 0.929 . S
C208 H202 0.930 . S
C208 C209 1.367 1_556 S
C208 C216 1.378 . S
C209 C208 1.367 1_554 S
C209 C217 1.433 . S
C210 H206 0.929 . S
C210 C212 1.378 . S
C210 C214 1.350 . S
C211 C214 1.463 . S
C211 C216 1.350 1_554 S
C211 N219 1.427 . S
C212 H203 0.930 . S
C212 C210 1.378 . S
C212 C213 1.367 . S
C213 C212 1.367 . S
C213 C215 1.433 1_554 S
C214 C210 1.350 . S
C214 C211 1.463 . S
C214 N218 1.427 1_554 S
C215 H205 0.929 . S
C215 C213 1.433 1_556 S
C215 N218 1.384 . S
C216 H207 0.929 . S
C216 C208 1.378 . S
C216 C211 1.350 1_556 S
C217 H204 0.929 . S
C217 C209 1.433 . S
C217 N219 1.384 . S
N218 C214 1.427 1_556 S
N218 C215 1.384 . S
N219 C211 1.427 . S
N219 C217 1.384 . S
H220 C226 0.930 . S
H221 C230 0.930 . S
H222 C235 0.929 . S
H223 C233 0.929 . S
H224 C228 0.929 . S
H225 C234 0.929 . S
C226 H220 0.930 . S
C226 C227 1.367 1_556 S
C226 C234 1.378 . S
C227 C226 1.367 1_554 S
C227 C235 1.433 . S
C228 H224 0.929 . S
C228 C230 1.378 . S
C228 C232 1.350 . S
C229 C232 1.463 . S
C229 C234 1.350 1_554 S
C229 N237 1.427 . S
C230 H221 0.930 . S
C230 C228 1.378 . S
C230 C231 1.367 . S
C231 C230 1.367 . S
C231 C233 1.433 1_554 S
C232 C228 1.350 . S
C232 C229 1.463 . S
C232 N236 1.427 1_554 S
C233 H223 0.929 . S
C233 C231 1.433 1_556 S
C233 N236 1.384 . S
C234 H225 0.929 . S
C234 C226 1.378 . S
C234 C229 1.350 1_556 S
C235 H222 0.929 . S
C235 C227 1.433 . S
C235 N237 1.384 . S
N236 C232 1.427 1_556 S
N236 C233 1.384 . S
N237 C229 1.427 . S
N237 C235 1.384 . S
H238 C244 0.930 . S
H239 C248 0.930 . S
H240 C253 0.929 . S
H241 C251 0.929 1_556 S
H242 C246 0.929 . S
H243 C252 0.929 . S
C244 H238 0.930 . S
C244 C245 1.367 1_556 S
C244 C252 1.378 . S
C245 C244 1.367 1_554 S
C245 C253 1.433 . S
C246 H242 0.929 . S
C246 C248 1.378 . S
C246 C250 1.350 . S
C247 C250 1.463 . S
C247 C252 1.350 1_554 S
C247 N255 1.427 . S
C248 H239 0.930 . S
C248 C246 1.378 . S
C248 C249 1.367 . S
C249 C248 1.367 . S
C249 C251 1.433 . S
C250 C246 1.350 . S
C250 C247 1.463 . S
C250 N254 1.427 . S
C251 H241 0.929 1_554 S
C251 C249 1.433 . S
C251 N254 1.384 . S
C252 H243 0.929 . S
C252 C244 1.378 . S
C252 C247 1.350 1_556 S
C253 H240 0.929 . S
C253 C245 1.433 . S
C253 N255 1.384 . S
N254 C250 1.427 . S
N254 C251 1.384 . S
N255 C247 1.427 . S
N255 C253 1.384 . S
H256 C262 0.930 . S
H257 C266 0.930 . S
H258 C271 0.929 . S
H259 C269 0.929 . S
H260 C264 0.929 . S
H261 C270 0.929 . S
C262 H256 0.930 . S
C262 C263 1.367 . S
C262 C270 1.378 . S
C263 C262 1.367 . S
C263 C271 1.433 1_554 S
C264 H260 0.929 . S
C264 C266 1.378 . S
C264 C268 1.350 . S
C265 C268 1.463 1_554 S
C265 C270 1.350 . S
C265 N273 1.427 1_554 S
C266 H257 0.930 . S
C266 C264 1.378 . S
C266 C267 1.367 . S
C267 C266 1.367 . S
C267 C269 1.433 1_556 S
C268 C264 1.350 . S
C268 C265 1.463 1_556 S
C268 N272 1.427 1_556 S
C269 H259 0.929 . S
C269 C267 1.433 1_554 S
C269 N272 1.384 . S
C270 H261 0.929 . S
C270 C262 1.378 . S
C270 C265 1.350 . S
C271 H258 0.929 . S
C271 C263 1.433 1_556 S
C271 N273 1.384 . S
N272 C268 1.427 1_554 S
N272 C269 1.384 . S
N273 C265 1.427 1_556 S
N273 C271 1.384 . S
H274 C280 0.930 . S
H275 C284 0.930 . S
H276 C289 0.929 . S
H277 C287 0.929 . S
H278 C282 0.929 . S
H279 C288 0.929 . S
C280 H274 0.930 . S
C280 C281 1.367 . S
C280 C288 1.378 . S
C281 C280 1.367 . S
C281 C289 1.433 . S
C282 H278 0.929 . S
C282 C284 1.378 . S
C282 C286 1.350 . S
C283 C286 1.463 . S
C283 C288 1.350 . S
C283 N291 1.427 . S
C284 H275 0.930 . S
C284 C282 1.378 . S
C284 C285 1.367 . S
C285 C284 1.367 . S
C285 C287 1.433 . S
C286 C282 1.350 . S
C286 C283 1.463 . S
C286 N290 1.427 . S
C287 H277 0.929 . S
C287 C285 1.433 . S
C287 N290 1.384 . S
C288 H279 0.929 . S
C288 C280 1.378 . S
C288 C283 1.350 . S
C289 H276 0.929 . S
C289 C281 1.433 . S
C289 N291 1.384 . S
N290 C286 1.427 . S
N290 C287 1.384 . S
N291 C283 1.427 . S
N291 C289 1.384 . S
H292 C298 0.930 . S
H293 C302 0.930 . S
H294 C307 0.929 . S
H295 C305 0.929 . S
H296 C300 0.929 . S
H297 C306 0.929 . S
C298 H292 0.930 . S
C298 C299 1.367 . S
C298 C306 1.378 . S
C299 C298 1.367 . S
C299 C307 1.433 . S
C300 H296 0.929 . S
C300 C302 1.378 . S
C300 C304 1.350 . S
C301 C304 1.463 . S
C301 C306 1.350 . S
C301 N309 1.427 . S
C302 H293 0.930 . S
C302 C300 1.378 . S
C302 C303 1.367 . S
C303 C302 1.367 . S
C303 C305 1.433 . S
C304 C300 1.350 . S
C304 C301 1.463 . S
C304 N308 1.427 . S
C305 H295 0.929 . S
C305 C303 1.433 . S
C305 N308 1.384 . S
C306 H297 0.929 . S
C306 C298 1.378 . S
C306 C301 1.350 . S
C307 H294 0.929 . S
C307 C299 1.433 . S
C307 N309 1.384 . S
N308 C304 1.427 . S
N308 C305 1.384 . S
N309 C301 1.427 . S
N309 C307 1.384 . S
H310 C316 0.930 . S
H311 C320 0.930 . S
H312 C325 0.929 . S
H313 C323 0.929 . S
H314 C318 0.929 . S
H315 C324 0.929 . S
C316 H310 0.930 . S
C316 C317 1.367 . S
C316 C324 1.378 . S
C317 C316 1.367 . S
C317 C325 1.433 . S
C318 H314 0.929 . S
C318 C320 1.378 . S
C318 C322 1.350 . S
C319 C322 1.463 . S
C319 C324 1.350 . S
C319 N327 1.427 . S
C320 H311 0.930 . S
C320 C318 1.378 . S
C320 C321 1.367 . S
C321 C320 1.367 . S
C321 C323 1.433 . S
C322 C318 1.350 . S
C322 C319 1.463 . S
C322 N326 1.427 . S
C323 H313 0.929 . S
C323 C321 1.433 . S
C323 N326 1.384 . S
C324 H315 0.929 . S
C324 C316 1.378 . S
C324 C319 1.350 . S
C325 H312 0.929 . S
C325 C317 1.433 . S
C325 N327 1.384 . S
N326 C322 1.427 . S
N326 C323 1.384 . S
N327 C319 1.427 . S
N327 C325 1.384 . S
H328 C334 0.930 . S
H329 C338 0.930 . S
H330 C343 0.929 . S
H331 C341 0.929 . S
H332 C336 0.929 . S
H333 C342 0.929 . S
C334 H328 0.930 . S
C334 C335 1.367 . S
C334 C342 1.378 . S
C335 C334 1.367 . S
C335 C343 1.433 . S
C336 H332 0.929 . S
C336 C338 1.378 . S
C336 C340 1.350 . S
C337 C340 1.463 . S
C337 C342 1.350 . S
C337 N345 1.427 . S
C338 H329 0.930 . S
C338 C336 1.378 . S
C338 C339 1.367 . S
C339 C338 1.367 . S
C339 C341 1.433 . S
C340 C336 1.350 . S
C340 C337 1.463 . S
C340 N344 1.427 . S
C341 H331 0.929 . S
C341 C339 1.433 . S
C341 N344 1.384 . S
C342 H333 0.929 . S
C342 C334 1.378 . S
C342 C337 1.350 . S
C343 H330 0.929 . S
C343 C335 1.433 . S
C343 N345 1.384 . S
N344 C340 1.427 . S
N344 C341 1.384 . S
N345 C337 1.427 . S
N345 C343 1.384 . S
H346 C352 0.930 . S
H347 C356 0.930 . S
H348 C361 0.929 . S
H349 C359 0.929 . S
H350 C354 0.929 . S
H351 C360 0.929 . S
C352 H346 0.930 . S
C352 C353 1.367 1_565 S
C352 C360 1.378 . S
C353 C352 1.367 1_545 S
C353 C361 1.433 . S
C354 H350 0.929 . S
C354 C356 1.378 . S
C354 C358 1.350 . S
C355 C358 1.463 . S
C355 C360 1.350 1_545 S
C355 N363 1.427 . S
C356 H347 0.930 . S
C356 C354 1.378 . S
C356 C357 1.367 1_545 S
C357 C356 1.367 1_565 S
C357 C359 1.433 . S
C358 C354 1.350 . S
C358 C355 1.463 . S
C358 N362 1.427 1_545 S
C359 H349 0.929 . S
C359 C357 1.433 . S
C359 N362 1.384 . S
C360 H351 0.929 . S
C360 C352 1.378 . S
C360 C355 1.350 1_565 S
C361 H348 0.929 . S
C361 C353 1.433 . S
C361 N363 1.384 . S
N362 C358 1.427 1_565 S
N362 C359 1.384 . S
N363 C355 1.427 . S
N363 C361 1.384 . S
H364 C370 0.930 . S
H365 C374 0.930 . S
H366 C379 0.927 1_665 S
H367 C377 0.929 . S
H368 C372 0.929 . S
H369 C378 0.929 . S
C370 H364 0.930 . S
C370 C371 1.367 . S
C370 C378 1.378 . S
C371 C370 1.367 . S
C371 C379 1.435 . S
C372 H368 0.929 . S
C372 C374 1.378 . S
C372 C376 1.350 1_655 S
C373 C376 1.463 . S
C373 C378 1.350 . S
C373 N381 1.427 1_455 S
C374 H365 0.930 . S
C374 C372 1.378 . S
C374 C375 1.367 1_655 S
C375 C374 1.367 1_455 S
C375 C377 1.433 . S
C376 C372 1.350 1_455 S
C376 C373 1.463 . S
C376 N380 1.427 . S
C377 H367 0.929 . S
C377 C375 1.433 . S
C377 N380 1.384 . S
C378 H369 0.929 . S
C378 C370 1.378 . S
C378 C373 1.350 . S
C379 H366 0.927 1_445 S
C379 C371 1.435 . S
C379 N381 1.383 1_455 S
N380 C376 1.427 . S
N380 C377 1.384 . S
N381 C373 1.427 1_655 S
N381 C379 1.383 1_655 S
H382 C388 0.930 . S
H383 C392 0.930 . S
H384 C397 0.929 . S
H385 C395 0.929 . S
H386 C390 0.929 . S
H387 C396 0.929 . S
C388 H382 0.930 . S
C388 C389 1.367 . S
C388 C396 1.378 . S
C389 C388 1.367 . S
C389 C397 1.433 . S
C390 H386 0.929 . S
C390 C392 1.378 . S
C390 C394 1.350 . S
C391 C394 1.463 . S
C391 C396 1.350 . S
C391 N399 1.427 . S
C392 H383 0.930 . S
C392 C390 1.378 . S
C392 C393 1.367 . S
C393 C392 1.367 . S
C393 C395 1.433 . S
C394 C390 1.350 . S
C394 C391 1.463 . S
C394 N398 1.427 . S
C395 H385 0.929 . S
C395 C393 1.433 . S
C395 N398 1.384 . S
C396 H387 0.929 . S
C396 C388 1.378 . S
C396 C391 1.350 . S
C397 H384 0.929 . S
C397 C389 1.433 . S
C397 N399 1.384 . S
N398 C394 1.427 . S
N398 C395 1.384 . S
N399 C391 1.427 . S
N399 C397 1.384 . S
H400 C406 0.930 . S
H401 C410 0.930 . S
H402 C415 0.929 . S
H403 C413 0.929 . S
H404 C408 0.929 . S
H405 C414 0.929 . S
C406 H400 0.930 . S
C406 C407 1.367 . S
C406 C414 1.378 . S
C407 C406 1.367 . S
C407 C415 1.433 . S
C408 H404 0.929 . S
C408 C410 1.378 . S
C408 C412 1.350 . S
C409 C412 1.463 . S
C409 C414 1.350 . S
C409 N417 1.427 . S
C410 H401 0.930 . S
C410 C408 1.378 . S
C410 C411 1.367 . S
C411 C410 1.367 . S
C411 C413 1.433 . S
C412 C408 1.350 . S
C412 C409 1.463 . S
C412 N416 1.427 . S
C413 H403 0.929 . S
C413 C411 1.433 . S
C413 N416 1.384 . S
C414 H405 0.929 . S
C414 C406 1.378 . S
C414 C409 1.350 . S
C415 H402 0.929 . S
C415 C407 1.433 . S
C415 N417 1.384 . S
N416 C412 1.427 . S
N416 C413 1.384 . S
N417 C409 1.427 . S
N417 C415 1.384 . S
C213 C164 1.506 . S
C209 C16 1.423 . S
C227 C15 1.588 . S
C231 C124 1.580 1_554 S
C245 C13 1.304 . S
C249 C177 1.508 . S
C263 C14 1.380 . S
C267 C137 1.399 . S
C281 C37 1.423 . S
C285 C84 1.508 . S
C299 C36 1.587 . S
C303 C44 1.568 . S
C321 C97 1.508 . S
C317 C34 1.305 . S
C339 C57 1.401 . S
C335 C35 1.366 . S
C353 C17 1.523 . S
C357 C63 1.542 . S
C371 C18 1.395 . S
C375 C103 1.408 . S
C393 C143 1.542 . S
C389 C38 1.527 . S
C407 C39 1.386 . S
C411 C183 1.413 . S
