# Generated by pormake.
# Topology gar, (4,6)-cn, num edge types: 1
# Building blocks:
#     Node 0, Type 0, BuildingBlock: NAHDIM_clean_sbu_0, # of connection points: 4
#     Node 1, Type 0, BuildingBlock: NAHDIM_clean_sbu_0, # of connection points: 4
#     Node 2, Type 0, BuildingBlock: NAHDIM_clean_sbu_0, # of connection points: 4
#     Node 3, Type 0, BuildingBlock: NAHDIM_clean_sbu_0, # of connection points: 4
#     Node 4, Type 0, BuildingBlock: NAHDIM_clean_sbu_0, # of connection points: 4
#     Node 5, Type 0, BuildingBlock: NAHDIM_clean_sbu_0, # of connection points: 4
#     Node 6, Type 0, BuildingBlock: NAHDIM_clean_sbu_0, # of connection points: 4
#     Node 7, Type 0, BuildingBlock: NAHDIM_clean_sbu_0, # of connection points: 4
#     Node 8, Type 0, BuildingBlock: NAHDIM_clean_sbu_0, # of connection points: 4
#     Node 9, Type 0, BuildingBlock: NAHDIM_clean_sbu_0, # of connection points: 4
#     Node 10, Type 0, BuildingBlock: NAHDIM_clean_sbu_0, # of connection points: 4
#     Node 11, Type 0, BuildingBlock: NAHDIM_clean_sbu_0, # of connection points: 4
#     Node 12, Type 0, BuildingBlock: NAHDIM_clean_sbu_0, # of connection points: 4
#     Node 13, Type 0, BuildingBlock: NAHDIM_clean_sbu_0, # of connection points: 4
#     Node 14, Type 0, BuildingBlock: NAHDIM_clean_sbu_0, # of connection points: 4
#     Node 15, Type 0, BuildingBlock: NAHDIM_clean_sbu_0, # of connection points: 4
#     Node 16, Type 0, BuildingBlock: NAHDIM_clean_sbu_0, # of connection points: 4
#     Node 17, Type 0, BuildingBlock: NAHDIM_clean_sbu_0, # of connection points: 4
#     Node 18, Type 0, BuildingBlock: NAHDIM_clean_sbu_0, # of connection points: 4
#     Node 19, Type 0, BuildingBlock: NAHDIM_clean_sbu_0, # of connection points: 4
#     Node 20, Type 0, BuildingBlock: NAHDIM_clean_sbu_0, # of connection points: 4
#     Node 21, Type 0, BuildingBlock: NAHDIM_clean_sbu_0, # of connection points: 4
#     Node 22, Type 0, BuildingBlock: NAHDIM_clean_sbu_0, # of connection points: 4
#     Node 23, Type 0, BuildingBlock: NAHDIM_clean_sbu_0, # of connection points: 4
#     Node 24, Type 1, BuildingBlock: KUMBUR_clean_sbu_0, # of connection points: 6
#     Node 25, Type 1, BuildingBlock: KUMBUR_clean_sbu_0, # of connection points: 6
#     Node 26, Type 1, BuildingBlock: KUMBUR_clean_sbu_0, # of connection points: 6
#     Node 27, Type 1, BuildingBlock: KUMBUR_clean_sbu_0, # of connection points: 6
#     Node 28, Type 1, BuildingBlock: KUMBUR_clean_sbu_0, # of connection points: 6
#     Node 29, Type 1, BuildingBlock: KUMBUR_clean_sbu_0, # of connection points: 6
#     Node 30, Type 1, BuildingBlock: KUMBUR_clean_sbu_0, # of connection points: 6
#     Node 31, Type 1, BuildingBlock: KUMBUR_clean_sbu_0, # of connection points: 6
#     Node 32, Type 1, BuildingBlock: KUMBUR_clean_sbu_0, # of connection points: 6
#     Node 33, Type 1, BuildingBlock: KUMBUR_clean_sbu_0, # of connection points: 6
#     Node 34, Type 1, BuildingBlock: KUMBUR_clean_sbu_0, # of connection points: 6
#     Node 35, Type 1, BuildingBlock: KUMBUR_clean_sbu_0, # of connection points: 6
#     Node 36, Type 1, BuildingBlock: KUMBUR_clean_sbu_0, # of connection points: 6
#     Node 37, Type 1, BuildingBlock: KUMBUR_clean_sbu_0, # of connection points: 6
#     Node 38, Type 1, BuildingBlock: KUMBUR_clean_sbu_0, # of connection points: 6
#     Node 39, Type 1, BuildingBlock: KUMBUR_clean_sbu_0, # of connection points: 6
#     Edge 40, Type (0, 1), BuildingBlock: OJICUG_clean_linker_0, # of connection points: 2
#     Edge 41, Type (0, 1), BuildingBlock: OJICUG_clean_linker_0, # of connection points: 2
#     Edge 42, Type (0, 1), BuildingBlock: OJICUG_clean_linker_0, # of connection points: 2
#     Edge 43, Type (0, 1), BuildingBlock: OJICUG_clean_linker_0, # of connection points: 2
#     Edge 44, Type (0, 1), BuildingBlock: OJICUG_clean_linker_0, # of connection points: 2
#     Edge 45, Type (0, 1), BuildingBlock: OJICUG_clean_linker_0, # of connection points: 2
#     Edge 46, Type (0, 1), BuildingBlock: OJICUG_clean_linker_0, # of connection points: 2
#     Edge 47, Type (0, 1), BuildingBlock: OJICUG_clean_linker_0, # of connection points: 2
#     Edge 48, Type (0, 1), BuildingBlock: OJICUG_clean_linker_0, # of connection points: 2
#     Edge 49, Type (0, 1), BuildingBlock: OJICUG_clean_linker_0, # of connection points: 2
#     Edge 50, Type (0, 1), BuildingBlock: OJICUG_clean_linker_0, # of connection points: 2
#     Edge 51, Type (0, 1), BuildingBlock: OJICUG_clean_linker_0, # of connection points: 2
#     Edge 52, Type (0, 1), BuildingBlock: OJICUG_clean_linker_0, # of connection points: 2
#     Edge 53, Type (0, 1), BuildingBlock: OJICUG_clean_linker_0, # of connection points: 2
#     Edge 54, Type (0, 1), BuildingBlock: OJICUG_clean_linker_0, # of connection points: 2
#     Edge 55, Type (0, 1), BuildingBlock: OJICUG_clean_linker_0, # of connection points: 2
#     Edge 56, Type (0, 1), BuildingBlock: OJICUG_clean_linker_0, # of connection points: 2
#     Edge 57, Type (0, 1), BuildingBlock: OJICUG_clean_linker_0, # of connection points: 2
#     Edge 58, Type (0, 1), BuildingBlock: OJICUG_clean_linker_0, # of connection points: 2
#     Edge 59, Type (0, 1), BuildingBlock: OJICUG_clean_linker_0, # of connection points: 2
#     Edge 60, Type (0, 1), BuildingBlock: OJICUG_clean_linker_0, # of connection points: 2
#     Edge 61, Type (0, 1), BuildingBlock: OJICUG_clean_linker_0, # of connection points: 2
#     Edge 62, Type (0, 1), BuildingBlock: OJICUG_clean_linker_0, # of connection points: 2
#     Edge 63, Type (0, 1), BuildingBlock: OJICUG_clean_linker_0, # of connection points: 2
#     Edge 64, Type (0, 1), BuildingBlock: OJICUG_clean_linker_0, # of connection points: 2
#     Edge 65, Type (0, 1), BuildingBlock: OJICUG_clean_linker_0, # of connection points: 2
#     Edge 66, Type (0, 1), BuildingBlock: OJICUG_clean_linker_0, # of connection points: 2
#     Edge 67, Type (0, 1), BuildingBlock: OJICUG_clean_linker_0, # of connection points: 2
#     Edge 68, Type (0, 1), BuildingBlock: OJICUG_clean_linker_0, # of connection points: 2
#     Edge 69, Type (0, 1), BuildingBlock: OJICUG_clean_linker_0, # of connection points: 2
#     Edge 70, Type (0, 1), BuildingBlock: OJICUG_clean_linker_0, # of connection points: 2
#     Edge 71, Type (0, 1), BuildingBlock: OJICUG_clean_linker_0, # of connection points: 2
#     Edge 72, Type (0, 1), BuildingBlock: OJICUG_clean_linker_0, # of connection points: 2
#     Edge 73, Type (0, 1), BuildingBlock: OJICUG_clean_linker_0, # of connection points: 2
#     Edge 74, Type (0, 1), BuildingBlock: OJICUG_clean_linker_0, # of connection points: 2
#     Edge 75, Type (0, 1), BuildingBlock: OJICUG_clean_linker_0, # of connection points: 2
#     Edge 76, Type (0, 1), BuildingBlock: OJICUG_clean_linker_0, # of connection points: 2
#     Edge 77, Type (0, 1), BuildingBlock: OJICUG_clean_linker_0, # of connection points: 2
#     Edge 78, Type (0, 1), BuildingBlock: OJICUG_clean_linker_0, # of connection points: 2
#     Edge 79, Type (0, 1), BuildingBlock: OJICUG_clean_linker_0, # of connection points: 2
#     Edge 80, Type (0, 1), BuildingBlock: OJICUG_clean_linker_0, # of connection points: 2
#     Edge 81, Type (0, 1), BuildingBlock: OJICUG_clean_linker_0, # of connection points: 2
#     Edge 82, Type (0, 1), BuildingBlock: OJICUG_clean_linker_0, # of connection points: 2
#     Edge 83, Type (0, 1), BuildingBlock: OJICUG_clean_linker_0, # of connection points: 2
#     Edge 84, Type (0, 1), BuildingBlock: OJICUG_clean_linker_0, # of connection points: 2
#     Edge 85, Type (0, 1), BuildingBlock: OJICUG_clean_linker_0, # of connection points: 2
#     Edge 86, Type (0, 1), BuildingBlock: OJICUG_clean_linker_0, # of connection points: 2
#     Edge 87, Type (0, 1), BuildingBlock: OJICUG_clean_linker_0, # of connection points: 2
#     Edge 88, Type (0, 1), BuildingBlock: OJICUG_clean_linker_0, # of connection points: 2
#     Edge 89, Type (0, 1), BuildingBlock: OJICUG_clean_linker_0, # of connection points: 2
#     Edge 90, Type (0, 1), BuildingBlock: OJICUG_clean_linker_0, # of connection points: 2
#     Edge 91, Type (0, 1), BuildingBlock: OJICUG_clean_linker_0, # of connection points: 2
#     Edge 92, Type (0, 1), BuildingBlock: OJICUG_clean_linker_0, # of connection points: 2
#     Edge 93, Type (0, 1), BuildingBlock: OJICUG_clean_linker_0, # of connection points: 2
#     Edge 94, Type (0, 1), BuildingBlock: OJICUG_clean_linker_0, # of connection points: 2
#     Edge 95, Type (0, 1), BuildingBlock: OJICUG_clean_linker_0, # of connection points: 2
#     Edge 96, Type (0, 1), BuildingBlock: OJICUG_clean_linker_0, # of connection points: 2
#     Edge 97, Type (0, 1), BuildingBlock: OJICUG_clean_linker_0, # of connection points: 2
#     Edge 98, Type (0, 1), BuildingBlock: OJICUG_clean_linker_0, # of connection points: 2
#     Edge 99, Type (0, 1), BuildingBlock: OJICUG_clean_linker_0, # of connection points: 2
#     Edge 100, Type (0, 1), BuildingBlock: OJICUG_clean_linker_0, # of connection points: 2
#     Edge 101, Type (0, 1), BuildingBlock: OJICUG_clean_linker_0, # of connection points: 2
#     Edge 102, Type (0, 1), BuildingBlock: OJICUG_clean_linker_0, # of connection points: 2
#     Edge 103, Type (0, 1), BuildingBlock: OJICUG_clean_linker_0, # of connection points: 2
#     Edge 104, Type (0, 1), BuildingBlock: OJICUG_clean_linker_0, # of connection points: 2
#     Edge 105, Type (0, 1), BuildingBlock: OJICUG_clean_linker_0, # of connection points: 2
#     Edge 106, Type (0, 1), BuildingBlock: OJICUG_clean_linker_0, # of connection points: 2
#     Edge 107, Type (0, 1), BuildingBlock: OJICUG_clean_linker_0, # of connection points: 2
#     Edge 108, Type (0, 1), BuildingBlock: OJICUG_clean_linker_0, # of connection points: 2
#     Edge 109, Type (0, 1), BuildingBlock: OJICUG_clean_linker_0, # of connection points: 2
#     Edge 110, Type (0, 1), BuildingBlock: OJICUG_clean_linker_0, # of connection points: 2
#     Edge 111, Type (0, 1), BuildingBlock: OJICUG_clean_linker_0, # of connection points: 2
#     Edge 112, Type (0, 1), BuildingBlock: OJICUG_clean_linker_0, # of connection points: 2
#     Edge 113, Type (0, 1), BuildingBlock: OJICUG_clean_linker_0, # of connection points: 2
#     Edge 114, Type (0, 1), BuildingBlock: OJICUG_clean_linker_0, # of connection points: 2
#     Edge 115, Type (0, 1), BuildingBlock: OJICUG_clean_linker_0, # of connection points: 2
#     Edge 116, Type (0, 1), BuildingBlock: OJICUG_clean_linker_0, # of connection points: 2
#     Edge 117, Type (0, 1), BuildingBlock: OJICUG_clean_linker_0, # of connection points: 2
#     Edge 118, Type (0, 1), BuildingBlock: OJICUG_clean_linker_0, # of connection points: 2
#     Edge 119, Type (0, 1), BuildingBlock: OJICUG_clean_linker_0, # of connection points: 2
#     Edge 120, Type (0, 1), BuildingBlock: OJICUG_clean_linker_0, # of connection points: 2
#     Edge 121, Type (0, 1), BuildingBlock: OJICUG_clean_linker_0, # of connection points: 2
#     Edge 122, Type (0, 1), BuildingBlock: OJICUG_clean_linker_0, # of connection points: 2
#     Edge 123, Type (0, 1), BuildingBlock: OJICUG_clean_linker_0, # of connection points: 2
#     Edge 124, Type (0, 1), BuildingBlock: OJICUG_clean_linker_0, # of connection points: 2
#     Edge 125, Type (0, 1), BuildingBlock: OJICUG_clean_linker_0, # of connection points: 2
#     Edge 126, Type (0, 1), BuildingBlock: OJICUG_clean_linker_0, # of connection points: 2
#     Edge 127, Type (0, 1), BuildingBlock: OJICUG_clean_linker_0, # of connection points: 2
#     Edge 128, Type (0, 1), BuildingBlock: OJICUG_clean_linker_0, # of connection points: 2
#     Edge 129, Type (0, 1), BuildingBlock: OJICUG_clean_linker_0, # of connection points: 2
#     Edge 130, Type (0, 1), BuildingBlock: OJICUG_clean_linker_0, # of connection points: 2
#     Edge 131, Type (0, 1), BuildingBlock: OJICUG_clean_linker_0, # of connection points: 2
#     Edge 132, Type (0, 1), BuildingBlock: OJICUG_clean_linker_0, # of connection points: 2
#     Edge 133, Type (0, 1), BuildingBlock: OJICUG_clean_linker_0, # of connection points: 2
#     Edge 134, Type (0, 1), BuildingBlock: OJICUG_clean_linker_0, # of connection points: 2
#     Edge 135, Type (0, 1), BuildingBlock: OJICUG_clean_linker_0, # of connection points: 2
# Relax obj value: 0.160
# Max RMSD: 0.345
# Mean RMSD: 0.182
data_MOF--net-gar--node1-NAHDIM_clean_sbu_0--node2-KUMBUR_clean_sbu_0--edge1-OJICUG_clean_linker_0
_symmetry_space_group_name_H-M    P1
_symmetry_Int_Tables_number       1
_symmetry_cell_setting            triclinic
loop_
_symmetry_equiv_pos_as_xyz
'x, y, z'
_cell_length_a     47.33666
_cell_length_b     41.340709
_cell_length_c     40.616992
_cell_angle_alpha  101.8962
_cell_angle_beta   94.553462
_cell_angle_gamma 102.99709
loop_
_atom_site_label
_atom_site_type_symbol
_atom_site_fract_x
_atom_site_fract_y
_atom_site_fract_z
_atom_type_partial_charge
C0 C 0.21193 0.36414 0.36323 0.0
O1 O 0.21401 0.37781 0.39578 0.0
O2 O 0.14532 0.30676 0.39806 0.0
Zn3 Zn 0.14973 0.34042 0.36765 0.0
O4 O 0.14699 0.38427 0.39723 0.0
C5 C 0.09132 0.30773 0.32859 0.0
O6 O 0.08781 0.28833 0.35056 0.0
O7 O 0.1873 0.34687 0.34697 0.0
C8 C 0.12257 0.38176 0.40862 0.0
O9 O 0.10298 0.35239 0.40037 0.0
C10 C 0.15707 0.31794 0.42887 0.0
O11 O 0.17402 0.349 0.43827 0.0
O12 O 0.11578 0.32889 0.33034 0.0
C13 C 0.96173 0.74628 0.70211 0.0
O14 O 0.95857 0.74009 0.66881 0.0
O15 O 0.02337 0.71485 0.66612 0.0
Zn16 Zn 0.02206 0.76048 0.69304 0.0
O17 O 0.02159 0.79022 0.65923 0.0
C18 C 0.08166 0.76965 0.71156 0.0
O19 O 0.07884 0.75779 0.67855 0.0
O20 O 0.98728 0.75602 0.71848 0.0
C21 C 0.04203 0.81631 0.65992 0.0
O22 O 0.0626 0.82759 0.68612 0.0
C23 C 1.01506 0.70572 0.6344 0.0
O24 O 1.00084 0.72395 0.61975 0.0
O25 O 0.05952 0.77568 0.72511 0.0
C26 C 0.70381 0.84759 0.85614 0.0
O27 O 0.69151 0.87027 0.84667 0.0
O28 O 0.64331 0.80759 0.9265 0.0
Zn29 Zn 0.65311 0.83483 0.89166 0.0
O30 O 0.65683 0.88306 0.91645 0.0
C31 C 0.59469 0.82785 0.86639 0.0
O32 O 0.59491 0.83761 0.89934 0.0
O33 O 0.69093 0.82899 0.87449 0.0
C34 C 0.64632 0.90322 0.90235 0.0
O35 O 0.63825 0.89474 0.8694 0.0
C36 C 0.65525 0.81933 0.95713 0.0
O37 O 0.67596 0.84782 0.965 0.0
O38 O 0.61805 0.82257 0.8552 0.0
C39 C 0.47328 0.25807 0.23165 0.0
O40 O 0.49236 0.25823 0.25704 0.0
O41 O 0.52173 0.21284 0.16371 0.0
Zn42 Zn 0.52137 0.25922 0.1897 0.0
O43 O 0.53162 0.28915 0.15738 0.0
C44 C 0.57769 0.26655 0.21576 0.0
O45 O 0.57706 0.25832 0.18263 0.0
O46 O 0.48144 0.25917 0.20278 0.0
C47 C 0.54443 0.32065 0.16498 0.0
O48 O 0.55011 0.3373 0.19696 0.0
C49 C 0.51258 0.20284 0.13219 0.0
O50 O 0.49843 0.22101 0.11734 0.0
O51 O 0.55449 0.27099 0.22784 0.0
C52 C 0.07768 0.81676 0.15298 0.0
O53 O 0.06766 0.8056 0.12053 0.0
O54 O 0.12193 0.77607 0.09955 0.0
Zn55 Zn 0.13349 0.82914 0.12578 0.0
O56 O 0.12693 0.87243 0.10408 0.0
C57 C 0.19107 0.81556 0.14846 0.0
O58 O 0.18134 0.7894 0.12246 0.0
O59 O 0.10519 0.8286 0.16165 0.0
C60 C 0.12313 0.88006 0.07496 0.0
O61 O 0.12348 0.85703 0.04747 0.0
C62 C 0.11608 0.75452 0.07065 0.0
O63 O 0.11575 0.76598 0.04281 0.0
O64 O 0.17568 0.83756 0.15434 0.0
C65 C 0.5933 0.79032 0.41189 0.0
O66 O 0.6028 0.80027 0.44453 0.0
O67 O 0.54491 0.73677 0.4606 0.0
Zn68 Zn 0.53863 0.77993 0.43914 0.0
O69 O 0.55172 0.83267 0.46511 0.0
C70 C 0.48602 0.75931 0.38297 0.0
O71 O 0.50186 0.74166 0.36528 0.0
O72 O 0.56583 0.77952 0.40253 0.0
C73 C 0.55422 0.85392 0.49377 0.0
O74 O 0.54795 0.84216 0.52069 0.0
C75 C 0.55146 0.73035 0.48971 0.0
O76 O 0.55486 0.75487 0.51711 0.0
O77 O 0.4961 0.77472 0.41387 0.0
C78 C 0.58059 0.32336 0.64977 0.0
O79 O 0.57116 0.31363 0.6171 0.0
O80 O 0.62596 0.28311 0.59718 0.0
Zn81 Zn 0.63688 0.33587 0.62345 0.0
O82 O 0.63 0.37884 0.60175 0.0
C83 C 0.69534 0.32328 0.64507 0.0
O84 O 0.68572 0.29692 0.61925 0.0
O85 O 0.6081 0.33454 0.65918 0.0
C86 C 0.62394 0.38555 0.57265 0.0
O87 O 0.62135 0.36139 0.54513 0.0
C88 C 0.62479 0.26196 0.56875 0.0
O89 O 0.63131 0.27388 0.54199 0.0
O90 O 0.67951 0.3448 0.65122 0.0
C91 C 0.09159 0.26837 0.90207 0.0
O92 O 0.09733 0.2513 0.92465 0.0
O93 O 0.04416 0.22987 0.95613 0.0
Zn94 Zn 0.03841 0.27419 0.93601 0.0
O95 O 0.04746 0.32549 0.96523 0.0
C96 C 0.98227 0.28922 0.91073 0.0
O97 O 0.99121 0.3149 0.93728 0.0
O98 O 0.06838 0.27918 0.90216 0.0
C99 C 0.05182 0.34653 0.99427 0.0
O100 O 0.05195 0.33471 0.02191 0.0
C101 C 0.05128 0.2237 0.98522 0.0
O102 O 0.05561 0.24864 0.01243 0.0
O103 O 0.99734 0.26679 0.90566 0.0
C104 C 0.37679 0.06643 0.31575 0.0
O105 O 0.37218 0.03824 0.29199 0.0
O106 O 0.4539 0.06592 0.28584 0.0
Zn107 Zn 0.43208 0.05249 0.32294 0.0
O108 O 0.46176 0.06082 0.36363 0.0
C109 C 0.42495 0.98228 0.29042 0.0
O110 O 0.4499 0.99452 0.28014 0.0
O111 O 0.40188 0.07851 0.33307 0.0
C112 C 0.48615 0.0535 0.35955 0.0
O113 O 0.49103 0.03993 0.32903 0.0
C114 C 0.47651 0.09069 0.29205 0.0
O115 O 0.48223 0.11203 0.32197 0.0
O116 O 0.41279 1.00231 0.30898 0.0
C117 C 0.36548 0.17506 0.52571 0.0
O118 O 0.37373 0.2073 0.54197 0.0
O119 O 0.31488 0.21877 0.55994 0.0
Zn120 Zn 0.31059 0.19261 0.51009 0.0
O121 O 0.31422 0.22069 0.47318 0.0
C122 C 0.24735 0.1681 0.49589 0.0
O123 O 0.24892 0.20019 0.49564 0.0
O124 O 0.34005 0.16365 0.50892 0.0
C125 C 0.33195 0.21733 0.45133 0.0
O126 O 0.34954 0.19727 0.45391 0.0
C127 C 0.31742 0.24914 0.5769 0.0
O128 O 0.31774 0.27376 0.56091 0.0
O129 O 0.2709 0.15889 0.50073 0.0
C130 C 0.24574 0.95637 0.75769 0.0
O131 O 0.24024 0.95589 0.72537 0.0
O132 O 0.185 0.02098 0.72449 0.0
Zn133 Zn 0.20947 0.02225 0.7774 0.0
O134 O 0.17939 0.0227 0.82066 0.0
C135 C 0.23354 0.0993 0.77765 0.0
O136 O 0.20623 0.09438 0.76455 0.0
O137 O 0.23603 0.97876 0.77915 0.0
C138 C 0.18521 0.04005 0.85231 0.0
O139 O 0.21146 0.06065 0.8613 0.0
C140 C 0.16245 0.03231 0.71549 0.0
O141 O 0.14838 0.04436 0.73989 0.0
O142 O 0.2408 0.07362 0.78662 0.0
C143 C 0.33 0.0235 0.06618 0.0
O144 O 0.33638 1.00705 0.08907 0.0
O145 O 0.34603 0.93933 0.04815 0.0
Zn146 Zn 0.35582 0.9766 0.02333 0.0
O147 O 0.34681 0.95317 0.97454 0.0
C148 C 0.41309 0.97017 0.02626 0.0
O149 O 0.39829 0.93812 0.01628 0.0
O150 O 0.336 1.01459 0.03622 0.0
C151 C 0.36378 0.96062 0.95315 0.0
O152 O 0.38412 0.98938 0.96088 0.0
C153 C 0.33129 0.90952 0.03286 0.0
O154 O 0.31636 0.90478 1.00288 0.0
O155 O 0.39927 0.99337 0.03216 0.0
C156 C 0.30431 0.4288 0.02528 0.0
O157 O 0.29421 0.39592 0.01231 0.0
O158 O 0.35209 0.3868 0.08582 0.0
Zn159 Zn 0.35669 0.40687 0.04314 0.0
O160 O 0.34941 0.37295 0.9962 0.0
C161 C 0.41466 0.4583 0.06868 0.0
O162 O 0.40342 0.47049 0.09568 0.0
O163 O 0.33034 0.4397 0.04069 0.0
C164 C 0.35722 0.38938 0.97366 0.0
O165 O 0.36721 0.42266 0.98354 0.0
C166 C 0.32816 0.37329 0.09561 0.0
O167 O 0.30339 0.36928 0.0764 0.0
O168 O 0.39913 0.43309 0.04617 0.0
C169 C 0.84829 0.11516 0.01452 0.0
O170 O 0.85808 0.14837 0.02547 0.0
O171 O 0.80464 0.15142 0.08352 0.0
Zn172 Zn 0.79598 0.13251 0.03297 0.0
O173 O 0.80127 0.17272 0.01119 0.0
C174 C 0.73744 0.12963 0.03499 0.0
O175 O 0.75011 0.16132 0.05078 0.0
O176 O 0.82152 0.1016 0.01539 0.0
C177 C 0.78331 0.17584 0.98785 0.0
O178 O 0.76141 0.14981 0.9731 0.0
C179 C 0.81801 0.18268 0.09353 0.0
O180 O 0.83016 0.19899 0.07173 0.0
O181 O 0.75329 0.10963 0.02421 0.0
C182 C 0.24459 0.49507 0.2761 0.0
O183 O 0.21761 0.49274 0.28276 0.0
O184 O 0.21707 0.52863 0.1886 0.0
Zn185 Zn 0.23037 0.54225 0.23849 0.0
O186 O 0.19374 0.54033 0.26117 0.0
C187 C 0.2473 0.61162 0.23392 0.0
O188 O 0.22537 0.60088 0.20925 0.0
O189 O 0.25439 0.51327 0.25585 0.0
C190 C 0.17227 0.55136 0.25128 0.0
O191 O 0.17381 0.56651 0.22586 0.0
C192 C 0.19261 0.50713 0.17845 0.0
O193 O 0.18163 0.48787 0.19864 0.0
O194 O 0.25428 0.59074 0.25006 0.0
C195 C 0.81544 0.93132 0.54285 0.0
O196 O 0.80526 0.89927 0.52656 0.0
O197 O 0.86528 0.88143 0.593 0.0
Zn198 Zn 0.86737 0.90724 0.55422 0.0
O199 O 0.85757 0.87971 0.50464 0.0
C200 C 0.9224 0.96264 0.5764 0.0
O201 O 0.90907 0.97703 0.60035 0.0
O202 O 0.84138 0.94076 0.55853 0.0
C203 C 0.85655 0.8503 0.48638 0.0
O204 O 0.86193 0.82626 0.50077 0.0
C205 C 0.84262 0.87452 0.60777 0.0
O206 O 0.81858 0.88168 0.59625 0.0
O207 O 0.90905 0.93435 0.55644 0.0
C208 C 0.93122 0.15315 0.30237 0.0
O209 O 0.93795 0.15438 0.33468 0.0
O210 O 0.98823 0.07499 0.23556 0.0
Zn211 Zn 0.96341 0.08419 0.28276 0.0
O212 O 0.98938 0.08685 0.33503 0.0
C213 C 0.93882 1.00831 0.28499 0.0
O214 O 0.96675 1.01238 0.29479 0.0
O215 O 0.93899 0.12926 0.28061 0.0
C216 C 1.01173 0.0753 0.34414 0.0
O217 O 0.02507 0.06171 0.31975 0.0
C218 C 1.00286 0.09531 0.2186 0.0
O219 O 1.0058 0.12815 0.2302 0.0
O220 O 0.93104 0.03434 0.27751 0.0
C221 C 0.33505 0.58114 0.49765 0.0
O222 O 0.33347 0.60343 0.47917 0.0
O223 O 0.30525 0.63883 0.58695 0.0
Zn224 Zn 0.29879 0.61743 0.53673 0.0
O225 O 0.30921 0.65646 0.51373 0.0
C226 C 0.24161 0.62225 0.53123 0.0
O227 O 0.25608 0.65347 0.54657 0.0
O228 O 0.32161 0.58183 0.52361 0.0
C229 C 0.29375 0.65854 0.48764 0.0
O230 O 0.2731 0.63188 0.47114 0.0
C231 C 0.32229 0.66849 0.59616 0.0
O232 O 0.33866 0.68043 0.57462 0.0
O233 O 0.25557 0.59924 0.52448 0.0
C234 C 0.43309 0.65494 0.80091 0.0
O235 O 0.44034 0.65694 0.83329 0.0
O236 O 0.48968 0.57745 0.73545 0.0
Zn237 Zn 0.46408 0.58527 0.78189 0.0
O238 O 0.48892 0.5869 0.83471 0.0
C239 C 0.43847 0.50891 0.7816 0.0
O240 O 0.46616 0.51269 0.79248 0.0
O241 O 0.4402 0.63039 0.77939 0.0
C242 C 0.51156 0.5761 0.84439 0.0
O243 O 0.52603 0.56391 0.82047 0.0
C244 C 0.50477 0.59854 0.71959 0.0
O245 O 0.50786 0.63124 0.73228 0.0
O246 O 0.43122 0.53538 0.77454 0.0
C247 C 0.79081 0.04231 0.76854 0.0
O248 O 0.79642 0.07331 0.78779 0.0
O249 O 0.71897 0.04627 0.70126 0.0
Zn250 Zn 0.73638 0.05629 0.74924 0.0
O251 O 0.70218 0.04506 0.77476 0.0
C252 C 0.7491 0.12688 0.74716 0.0
O253 O 0.72984 0.11501 0.71976 0.0
O254 O 0.76569 0.02897 0.7516 0.0
C255 C 0.68176 0.0591 0.76798 0.0
O256 O 0.68576 0.08059 0.74812 0.0
C257 C 0.69583 0.0229 0.68961 0.0
O258 O 0.68606 1.00076 0.70762 0.0
O259 O 0.75594 0.10648 0.76404 0.0
C260 C 0.86073 0.67266 0.037 0.0
O261 O 0.87039 0.70507 0.05231 0.0
O262 O 0.81802 0.72474 0.06994 0.0
Zn263 Zn 0.80981 0.69631 0.02135 0.0
O264 O 0.81519 0.7221 0.98312 0.0
C265 C 0.75488 0.64135 0.99821 0.0
O266 O 0.76962 0.62555 0.97696 0.0
O267 O 0.83529 0.66252 0.02006 0.0
C268 C 0.83935 0.73261 0.97227 0.0
O269 O 0.86355 0.72883 0.98746 0.0
C270 C 0.81942 0.75468 0.08709 0.0
O271 O 0.81578 0.7786 0.07152 0.0
O272 O 0.76746 0.67043 0.01722 0.0
C273 C 0.93308 0.60994 0.76667 0.0
O274 O 0.95879 0.60874 0.75723 0.0
O275 O 0.98232 0.56251 0.78423 0.0
Zn276 Zn 0.9477 0.56562 0.80864 0.0
O277 O 0.96561 0.58243 0.85777 0.0
C278 C 0.93761 0.49458 0.80245 0.0
O279 O 0.96594 0.50467 0.81232 0.0
O280 O 0.92424 0.59483 0.78967 0.0
C281 C 0.95865 0.56437 0.879 0.0
O282 O 0.93445 0.5399 0.8714 0.0
C283 C 1.00813 0.57964 0.79674 0.0
O284 O 1.01241 0.60333 0.82495 0.0
O285 O 0.9235 0.51689 0.79962 0.0
C286 C 0.84393 0.5494 0.55817 0.0
O287 O 0.86253 0.54853 0.58357 0.0
O288 O 0.84998 0.46299 0.56274 0.0
Zn289 Zn 0.86075 0.48929 0.52799 0.0
O290 O 0.85121 0.45502 0.4835 0.0
C291 C 0.91778 0.48291 0.53324 0.0
O292 O 0.90276 0.45108 0.52849 0.0
O293 O 0.84001 0.52672 0.5307 0.0
C294 C 0.86537 0.46058 0.45914 0.0
O295 O 0.88261 0.49094 0.46164 0.0
C296 C 0.82469 0.44353 0.56067 0.0
O297 O 0.80393 0.44393 0.53739 0.0
O298 O 0.90415 0.50633 0.53518 0.0
C299 C 0.74494 0.45505 0.26027 0.0
O300 O 0.74012 0.45448 0.22784 0.0
O301 O 0.68422 0.51814 0.22486 0.0
Zn302 Zn 0.70894 0.52093 0.27828 0.0
O303 O 0.67946 0.52233 0.32171 0.0
C304 C 0.73365 0.598 0.27859 0.0
O305 O 0.70672 0.59318 0.26425 0.0
O306 O 0.735 0.47755 0.28124 0.0
C307 C 0.68524 0.54176 0.35246 0.0
O308 O 0.71078 0.56401 0.35987 0.0
C309 C 0.6613 0.52855 0.21528 0.0
O310 O 0.64715 0.54101 0.2394 0.0
O311 O 0.74043 0.57217 0.28775 0.0
Tb312 Tb 0.05337 0.02402 1.00774 0.0
C313 C 0.12775 0.15188 0.10369 0.0
C314 C 0.13397 0.1942 0.07004 0.0
C315 C 0.13542 0.21185 0.13114 0.0
C316 C 0.12858 0.15984 0.07251 0.0
C317 C 0.13181 0.1778 0.13354 0.0
C318 C 0.13661 0.22007 0.09942 0.0
C319 C 0.13111 0.13491 0.16595 0.0
N320 N 0.12457 0.11878 0.10487 0.0
C321 C 0.12729 0.11017 0.13564 0.0
C322 C 0.13302 0.16885 0.1649 0.0
Tb323 Tb 0.11746 0.07963 0.05376 0.0
N324 N 0.12608 0.13408 0.04485 0.0
C325 C 0.13149 0.14155 0.01426 0.0
C326 C 0.13754 0.2016 0.03835 0.0
C327 C 0.13677 0.17518 0.01045 0.0
H328 H 0.12563 0.08399 0.13689 0.0
H329 H 0.14013 0.18065 0.98592 0.0
H330 H 0.14038 0.24656 0.09799 0.0
H331 H 0.13255 0.12775 0.19008 0.0
H332 H 0.13087 0.12177 0.99216 0.0
H333 H 0.036 0.91682 0.06757 0.0
H334 H 0.14167 0.22762 0.03534 0.0
H335 H 0.03393 0.02259 0.92574 0.0
H336 H 0.04108 0.97668 0.06537 0.0
H337 H 0.02714 0.98179 0.87074 0.0
H338 H 0.13812 0.23207 0.15372 0.0
H339 H 0.03858 0.87416 0.01611 0.0
H340 H 0.04034 0.86014 0.95331 0.0
H341 H 0.13615 0.18802 0.18841 0.0
H342 H 0.03799 0.87805 0.89928 0.0
N343 N 0.04856 0.96909 0.01348 0.0
C344 C 0.04261 0.95872 0.04266 0.0
C345 C 0.04111 0.90061 0.01498 0.0
C346 C 0.04415 0.91069 0.98437 0.0
C347 C 0.03954 0.92458 0.04404 0.0
C348 C 0.04732 0.94546 0.98429 0.0
H349 H 0.03196 0.92304 0.86819 0.0
N350 N 0.04495 0.98831 0.9546 0.0
C351 C 0.03271 0.97417 0.89387 0.0
C352 C 0.0455 0.95542 0.9538 0.0
C353 C 0.0368 0.99737 0.92526 0.0
C354 C 0.03553 0.94107 0.89253 0.0
C355 C 0.04113 0.93102 0.92274 0.0
O356 O 1.0104 0.99378 1.00279 0.0
O357 O 0.07585 0.07765 0.02613 0.0
O358 O 0.08196 0.08709 0.08565 0.0
O359 O 0.04872 0.03505 0.0643 0.0
O360 O 0.05502 0.06262 0.97748 0.0
O361 O 0.01827 0.04797 0.01166 0.0
O362 O 0.15493 0.07482 0.08222 0.0
O363 O 0.09534 0.02558 0.0348 0.0
O364 O 0.08565 0.02191 0.9694 0.0
O365 O 0.12491 0.06563 0.9989 0.0
O366 O 0.11569 0.04026 0.08321 0.0
O367 O 0.15695 0.08721 0.03326 0.0
C368 C 0.06995 0.08901 0.99994 0.0
C369 C 0.97273 1.01572 0.98079 0.0
C370 C 0.9275 0.03249 0.96813 0.0
C371 C 0.95356 0.03655 0.98947 0.0
C372 C 0.92099 1.00739 0.93758 0.0
C373 C 0.96581 0.99065 0.95022 0.0
C374 C 0.94014 0.98672 0.92868 0.0
C375 C 0.05862 0.06356 0.089 0.0
C376 C 0.99858 1.01937 1.00528 0.0
C377 C 0.04081 0.89701 0.92288 0.0
C378 C 0.04222 0.88682 0.95366 0.0
C379 C 0.10161 1.0139 0.06057 0.0
C380 C 0.20036 0.10591 0.07168 0.0
C381 C 0.22397 0.09173 0.07714 0.0
C382 C 0.25269 0.11206 0.08356 0.0
C383 C 0.25763 0.14721 0.0854 0.0
C384 C 0.20533 0.14111 0.07407 0.0
C385 C 0.23391 0.16165 0.08102 0.0
C386 C 0.11226 0.04226 0.97048 0.0
C387 C 0.17157 0.08248 0.05959 0.0
H388 H 0.95854 0.05528 0.01349 0.0
H389 H 0.90117 1.00382 0.92055 0.0
H390 H 0.97992 0.97378 0.94319 0.0
H391 H 0.9349 0.96735 0.90518 0.0
H392 H 0.2201 0.06433 0.07429 0.0
H393 H 0.2797 0.16324 0.08968 0.0
H394 H 0.18736 0.15248 0.0695 0.0
H395 H 0.23765 0.18859 0.08183 0.0
Tb396 Tb 0.35115 0.77389 0.23232 0.0
C397 C 0.3079 0.88596 0.32917 0.0
C398 C 0.3506 0.93219 0.352 0.0
C399 C 0.30253 0.94383 0.34763 0.0
C400 C 0.33767 0.89735 0.33753 0.0
C401 C 0.28979 0.90884 0.33482 0.0
C402 C 0.33294 0.9555 0.35621 0.0
C403 C 0.24795 0.8605 0.31801 0.0
N404 N 0.29655 0.85201 0.3173 0.0
C405 C 0.26688 0.83887 0.31299 0.0
C406 C 0.25945 0.89571 0.32852 0.0
Tb407 Tb 0.32899 0.81819 0.30944 0.0
N408 N 0.35382 0.87394 0.33311 0.0
C409 C 0.38302 0.88358 0.3453 0.0
C410 C 0.38071 0.94235 0.36268 0.0
C411 C 0.39691 0.91783 0.35975 0.0
H412 H 0.25764 0.81173 0.30468 0.0
H413 H 0.42015 0.92527 0.36847 0.0
H414 H 0.34248 0.98242 0.36689 0.0
H415 H 0.22452 0.84997 0.31373 0.0
H416 H 0.39613 0.86524 0.34325 0.0
H417 H 0.26247 0.66874 0.16271 0.0
H418 H 0.39151 0.96886 0.37384 0.0
H419 H 0.42256 0.77983 0.24223 0.0
H420 H 0.28574 0.72802 0.19117 0.0
H421 H 0.45559 0.74141 0.23533 0.0
H422 H 0.28904 0.96189 0.35185 0.0
H423 H 0.29036 0.62461 0.16008 0.0
H424 H 0.33851 0.61026 0.17164 0.0
H425 H 0.24476 0.91241 0.33254 0.0
H426 H 0.39137 0.63013 0.1914 0.0
N427 N 0.32687 0.71857 0.20595 0.0
C428 C 0.29857 0.70956 0.19047 0.0
C429 C 0.30086 0.65083 0.17273 0.0
C430 C 0.3303 0.66043 0.18661 0.0
C431 C 0.2851 0.67568 0.17409 0.0
C432 C 0.34286 0.69497 0.20276 0.0
H433 H 0.43537 0.67916 0.21451 0.0
N434 N 0.38358 0.73987 0.22619 0.0
C435 C 0.43219 0.73106 0.22916 0.0
C436 C 0.37236 0.70604 0.21343 0.0
C437 C 0.4133 0.7528 0.23291 0.0
C438 C 0.4207 0.69595 0.21756 0.0
C439 C 0.39046 0.68306 0.20892 0.0
O440 O 0.37776 0.79103 0.19695 0.0
O441 O 0.3523 0.82146 0.26658 0.0
O442 O 0.30423 0.82983 0.26632 0.0
O443 O 0.3071 0.78389 0.22311 0.0
O444 O 0.3895 0.81734 0.24561 0.0
O445 O 0.33047 0.77975 0.18744 0.0
O446 O 0.3038 0.79437 0.34213 0.0
O447 O 0.32805 0.7709 0.27496 0.0
O448 O 0.37281 0.76017 0.27604 0.0
O449 O 0.37255 0.8071 0.31912 0.0
O450 O 0.29087 0.77417 0.29668 0.0
O451 O 0.34933 0.82107 0.35818 0.0
C452 C 0.37784 0.83767 0.26506 0.0
C453 C 0.35527 0.78003 0.1399 0.0
C454 C 0.35049 0.79667 0.08619 0.0
C455 C 0.35373 0.80471 0.12165 0.0
C456 C 0.34882 0.76303 0.06885 0.0
C457 C 0.3538 0.74649 0.1228 0.0
C458 C 0.35075 0.73812 0.08721 0.0
C459 C 0.2951 0.80949 0.23543 0.0
C460 C 0.35504 0.79046 0.17634 0.0
C461 C 0.3779 0.64827 0.19479 0.0
C462 C 0.34782 0.63696 0.18358 0.0
C463 C 0.30269 0.75436 0.27672 0.0
C464 C 0.31955 0.81036 0.401 0.0
C465 C 0.31124 0.78236 0.41522 0.0
C466 C 0.30688 0.78659 0.44927 0.0
C467 C 0.31079 0.81968 0.46935 0.0
C468 C 0.32305 0.84344 0.42071 0.0
C469 C 0.31853 0.84799 0.45491 0.0
C470 C 0.38297 0.7803 0.30677 0.0
C471 C 0.32578 0.80286 0.36609 0.0
H472 H 0.35385 0.83028 0.13531 0.0
H473 H 0.34615 0.75612 0.04137 0.0
H474 H 0.35443 0.72694 0.13677 0.0
H475 H 0.34945 0.71222 0.07382 0.0
H476 H 0.30921 0.75691 0.39982 0.0
H477 H 0.30783 0.82356 0.49592 0.0
H478 H 0.32957 0.86542 0.4099 0.0
H479 H 0.3214 0.87347 0.47035 0.0
Tb480 Tb 0.62737 0.06486 0.51512 0.0
C481 C 0.53603 1.00344 0.59905 0.0
C482 C 0.50821 0.94938 0.56364 0.0
C483 C 0.51385 0.95763 0.62504 0.0
C484 C 0.5254 0.98285 0.56727 0.0
C485 C 0.53018 0.99129 0.6284 0.0
C486 C 0.50286 0.93671 0.5927 0.0
C487 C 0.55578 0.04709 0.66202 0.0
N488 N 0.5516 0.03577 0.60114 0.0
C489 C 0.56083 0.058 0.63213 0.0
C490 C 0.54056 1.01351 0.66017 0.0
Tb491 Tb 0.55933 0.051 0.55078 0.0
N492 N 0.53105 0.99611 0.53991 0.0
C493 C 0.51851 0.97771 0.50807 0.0
C494 C 0.49649 0.92994 0.53099 0.0
C495 C 0.50142 0.94432 0.50312 0.0
H496 H 0.57279 0.08394 0.63395 0.0
H497 H 0.49214 0.92968 0.47777 0.0
H498 H 0.48988 0.91098 0.59044 0.0
H499 H 0.56363 0.06459 0.68646 0.0
H500 H 0.52208 0.98823 0.48613 0.0
H501 H 0.69009 0.18786 0.59023 0.0
H502 H 0.48324 0.90408 0.52708 0.0
H503 H 0.62284 0.03058 0.43313 0.0
H504 H 0.66173 0.12861 0.58084 0.0
H505 H 0.63543 0.04937 0.38123 0.0
H506 H 0.50922 0.94773 0.64727 0.0
H507 H 0.70046 0.21379 0.54142 0.0
H508 H 0.69715 0.20652 0.47806 0.0
H509 H 0.53659 1.00516 0.68336 0.0
H510 H 0.68232 0.1687 0.42095 0.0
N511 N 0.65471 0.12048 0.52684 0.0
C512 C 0.66582 0.13917 0.55905 0.0
C513 C 0.6878 0.18761 0.53705 0.0
C514 C 0.67793 0.16783 0.50411 0.0
C515 C 0.68206 0.17303 0.56462 0.0
C516 C 0.66145 0.13393 0.49989 0.0
H517 H 0.65963 0.10983 0.38457 0.0
N518 N 0.63887 0.08007 0.4657 0.0
C519 C 0.64045 0.06759 0.4055 0.0
C520 C 0.65322 0.11288 0.46807 0.0
C521 C 0.63337 0.05703 0.43506 0.0
C522 C 0.65403 0.10173 0.40746 0.0
C523 C 0.66103 0.12478 0.43912 0.0
O524 O 0.65259 0.03033 0.4972 0.0
O525 O 0.59121 0.02795 0.52646 0.0
O526 O 0.59124 0.03488 0.58136 0.0
O527 O 0.63145 0.0724 0.57051 0.0
O528 O 0.60896 1.01228 0.48435 0.0
O529 O 0.66634 0.06696 0.54482 0.0
O530 O 0.53407 0.08382 0.57245 0.0
O531 O 0.59445 0.08819 0.53763 0.0
O532 O 0.59537 0.07538 0.47966 0.0
O533 O 0.55266 0.04501 0.49561 0.0
O534 O 0.57832 0.10329 0.58135 0.0
O535 O 0.51961 0.04967 0.52313 0.0
C536 C 0.58936 1.00206 0.50258 0.0
C537 C 0.70329 0.04736 0.51736 0.0
C538 C 0.74889 0.02901 0.52124 0.0
C539 C 0.71901 0.02419 0.52508 0.0
C540 C 0.76274 0.05752 0.50948 0.0
C541 C 0.71744 0.07549 0.50554 0.0
C542 C 0.74705 0.08048 0.50163 0.0
C543 C 0.61926 0.05079 0.58815 0.0
C544 C 0.67259 0.04237 0.52347 0.0
C545 C 0.6763 0.15894 0.44288 0.0
C546 C 0.68474 0.18047 0.47538 0.0
C547 C 0.59645 0.11399 0.56175 0.0
C548 C 0.48312 0.06676 0.55357 0.0
C549 C 0.46635 0.08894 0.54597 0.0
C550 C 0.43662 0.08305 0.55055 0.0
C551 C 0.42397 0.05455 0.56301 0.0
C552 C 0.47022 0.03862 0.56616 0.0
C553 C 0.44073 0.03261 0.57086 0.0
C554 C 0.56683 0.06157 0.4748 0.0
C555 C 0.51356 0.07284 0.54653 0.0
H556 H 0.70804 1.00274 0.53469 0.0
H557 H 0.78558 0.0618 0.50583 0.0
H558 H 0.7057 0.09365 0.49963 0.0
H559 H 0.75792 0.10225 0.4925 0.0
H560 H 0.47634 0.11043 0.5358 0.0
H561 H 0.40122 0.04948 0.56713 0.0
H562 H 0.48279 0.02125 0.57208 0.0
H563 H 0.43081 1.01083 0.58055 0.0
Tb564 Tb 0.30094 0.31422 0.76827 0.0
C565 C 0.38899 0.2521 0.83721 0.0
C566 C 0.40857 0.29256 0.89043 0.0
C567 C 0.40539 0.23231 0.886 0.0
C568 C 0.39564 0.28496 0.85633 0.0
C569 C 0.39463 0.22543 0.85138 0.0
C570 C 0.41236 0.2659 0.90554 0.0
C571 C 0.38246 0.1885 0.79522 0.0
N572 N 0.3794 0.24689 0.8038 0.0
C573 C 0.37735 0.21588 0.78239 0.0
C574 C 0.39063 0.19312 0.82999 0.0
Tb575 Tb 0.37004 0.29274 0.78497 0.0
N576 N 0.39238 0.30986 0.84036 0.0
C577 C 0.40495 0.34324 0.85613 0.0
C578 C 0.41886 0.32677 0.9076 0.0
C579 C 0.41772 0.35221 0.89007 0.0
H580 H 0.37084 0.21183 0.7555 0.0
H581 H 0.42661 0.37878 0.90268 0.0
H582 H 0.42187 0.27116 0.93183 0.0
H583 H 0.38003 0.16383 0.77829 0.0
H584 H 0.40439 0.36341 0.84322 0.0
H585 H 0.24657 0.2221 0.65284 0.0
H586 H 0.42893 0.33375 0.9338 0.0
H587 H 0.29983 0.39534 0.79363 0.0
H588 H 0.27011 0.24061 0.71159 0.0
H589 H 0.28853 0.44102 0.7684 0.0
H590 H 0.40953 0.21212 0.89752 0.0
H591 H 0.2399 0.26467 0.62012 0.0
H592 H 0.24381 0.32621 0.61947 0.0
H593 H 0.39475 0.17194 0.83985 0.0
H594 H 0.25526 0.3862 0.65111 0.0
N595 N 0.27814 0.29393 0.71306 0.0
C596 C 0.26752 0.2599 0.69826 0.0
C597 C 0.25041 0.27313 0.64616 0.0
C598 C 0.25932 0.30779 0.66205 0.0
C599 C 0.25404 0.24906 0.66458 0.0
C600 C 0.27297 0.31737 0.69599 0.0
H601 H 0.27135 0.4292 0.70697 0.0
N602 N 0.29002 0.35793 0.74681 0.0
C603 C 0.28596 0.41577 0.75259 0.0
C604 C 0.27925 0.35075 0.71357 0.0
C605 C 0.29225 0.3897 0.76681 0.0
C606 C 0.2764 0.40905 0.7179 0.0
C607 C 0.27233 0.37601 0.69804 0.0
O608 O 0.27238 0.33209 0.80101 0.0
O609 O 0.33395 0.3097 0.80613 0.0
O610 O 0.33596 0.25023 0.7956 0.0
O611 O 0.29438 0.25845 0.76698 0.0
O612 O 0.31467 0.34984 0.81729 0.0
O613 O 0.26162 0.28032 0.7723 0.0
O614 O 0.39757 0.27636 0.74995 0.0
O615 O 0.33759 0.29894 0.74747 0.0
O616 O 0.33555 0.35751 0.75937 0.0
O617 O 0.377 0.34884 0.78809 0.0
O618 O 0.35523 0.25796 0.73517 0.0
O619 O 0.41122 0.32524 0.78447 0.0
C620 C 0.33327 0.33548 0.829 0.0
C621 C 0.22207 0.30395 0.78693 0.0
C622 C 0.17314 0.29716 0.80501 0.0
C623 C 0.20312 0.29777 0.81128 0.0
C624 C 0.16273 0.30288 0.77376 0.0
C625 C 0.21109 0.30983 0.75625 0.0
C626 C 0.18158 0.30929 0.74977 0.0
C627 C 0.3079 0.23911 0.78199 0.0
C628 C 0.25296 0.30305 0.79352 0.0
C629 C 0.26044 0.36713 0.66365 0.0
C630 C 0.25393 0.33299 0.64565 0.0
C631 C 0.33745 0.27359 0.72388 0.0
C632 C 0.4486 0.29921 0.76562 0.0
C633 C 0.46828 0.30672 0.74223 0.0
C634 C 0.49723 0.3029 0.74693 0.0
C635 C 0.50583 0.29124 0.77547 0.0
C636 C 0.45791 0.28777 0.79376 0.0
C637 C 0.48635 0.28382 0.79858 0.0
C638 C 0.36356 0.36855 0.77351 0.0
C639 C 0.41859 0.30381 0.76056 0.0
H640 H 0.21186 0.29365 0.83512 0.0
H641 H 0.13984 0.30187 0.76748 0.0
H642 H 0.22525 0.31451 0.73721 0.0
H643 H 0.17319 0.31355 0.72588 0.0
H644 H 0.4611 0.31592 0.72068 0.0
H645 H 0.52753 0.28725 0.77972 0.0
H646 H 0.44323 0.28195 0.81201 0.0
H647 H 0.49333 0.27481 0.82032 0.0
Tb648 Tb 0.08505 0.09617 0.55215 0.0
C649 C 0.11064 0.98762 0.43887 0.0
C650 C 0.06962 0.97503 0.39495 0.0
C651 C 0.11649 0.96641 0.37997 0.0
C652 C 0.08196 0.98683 0.42935 0.0
C653 C 0.12823 0.97695 0.41442 0.0
C654 C 0.08719 0.96544 0.37024 0.0
C655 C 0.16699 0.98575 0.46007 0.0
N656 N 0.12099 0.99773 0.47239 0.0
C657 C 0.14861 0.99592 0.48332 0.0
C658 C 0.15686 0.97653 0.42541 0.0
Tb659 Tb 0.08972 1.01544 0.50874 0.0
N660 N 0.0658 0.99616 0.45405 0.0
C661 C 0.03632 0.99192 0.446 0.0
C662 C 0.03986 0.97241 0.38654 0.0
C663 C 0.02306 0.98045 0.41226 0.0
H664 H 0.15699 1.00296 0.50993 0.0
H665 H 0.99988 0.97796 0.40615 0.0
H666 H 0.07818 0.95657 0.34367 0.0
H667 H 0.18896 0.98504 0.46892 0.0
H668 H 0.0227 0.99797 0.4652 0.0
H669 H 0.17491 0.13351 0.65447 0.0
H670 H 0.02954 0.96352 0.36043 0.0
H671 H 0.01707 0.10641 0.55112 0.0
H672 H 0.15199 0.11366 0.59531 0.0
H673 H 0.98499 0.1238 0.59232 0.0
H674 H 0.12969 0.95833 0.36078 0.0
H675 H 0.14521 0.14749 0.7003 0.0
H676 H 0.09646 0.15392 0.7172 0.0
H677 H 0.1711 0.96854 0.40746 0.0
H678 H 0.04477 0.15152 0.70026 0.0
N679 N 0.10893 0.11504 0.60674 0.0
C680 C 0.13842 0.11946 0.61468 0.0
C681 C 0.13487 0.13864 0.6742 0.0
C682 C 0.10505 0.1358 0.66586 0.0
C683 C 0.15169 0.13083 0.64841 0.0
C684 C 0.09269 0.12407 0.63148 0.0
H685 H 1.00311 0.14069 0.65372 0.0
N686 N 0.05343 0.11271 0.58854 0.0
C687 C 1.00713 0.1236 0.60106 0.0
C688 C 0.06389 0.12293 0.62203 0.0
C689 C 0.02556 0.1138 0.5777 0.0
C690 C 0.01741 0.13304 0.63568 0.0
C691 C 0.04622 0.13316 0.64656 0.0
O692 O 0.0735 0.13661 0.53467 0.0
O693 O 0.07885 0.06242 0.50111 0.0
O694 O 0.12343 0.05139 0.49147 0.0
O695 O 0.12895 0.09637 0.5382 0.0
O696 O 0.04837 0.08863 0.51171 0.0
O697 O 0.11818 0.14022 0.55433 0.0
O698 O 0.10071 0.97561 0.52814 0.0
O699 O 0.09609 0.04927 0.55976 0.0
O700 O 0.05201 0.05979 0.56964 0.0
O701 O 0.04565 1.01655 0.52161 0.0
O702 O 0.12685 0.02369 0.54877 0.0
O703 O 0.05639 0.97167 0.50688 0.0
C704 C 0.05565 0.06845 0.4872 0.0
C705 C 0.10595 0.19174 0.54974 0.0
C706 C 0.12103 0.24553 0.53254 0.0
C707 C 0.11511 0.20981 0.52531 0.0
C708 C 0.11789 0.26303 0.56515 0.0
C709 C 0.10278 0.20928 0.58204 0.0
C710 C 0.10881 0.24493 0.58967 0.0
C711 C 0.13777 0.08159 0.51021 0.0
C712 C 0.10044 0.15464 0.54001 0.0
C713 C 0.05803 0.14375 0.68099 0.0
C714 C 0.08743 0.14508 0.69064 0.0
C715 C 0.11957 0.04364 0.57348 0.0
C716 C 0.06757 0.92074 0.51605 0.0
C717 C 0.06406 0.90608 0.54403 0.0
C718 C 0.05657 0.87056 0.53997 0.0
C719 C 0.05251 0.8497 0.50702 0.0
C720 C 0.06366 0.89988 0.48335 0.0
C721 C 0.05617 0.86436 0.47894 0.0
C722 C 0.0367 0.03061 0.54986 0.0
C723 C 0.0737 0.95789 0.5227 0.0
H724 H 0.11802 0.19585 0.50061 0.0
H725 H 0.12206 0.29058 0.57155 0.0
H726 H 0.09578 0.1955 0.60114 0.0
H727 H 0.10636 0.25861 0.61462 0.0
H728 H 0.06649 0.92258 0.56914 0.0
H729 H 0.04684 0.82217 0.50303 0.0
H730 H 0.06613 0.91099 0.46148 0.0
H731 H 0.05308 0.84813 0.45369 0.0
Tb732 Tb 0.36934 0.8294 0.75997 0.0
C733 C 0.32178 0.7697 0.87132 0.0
C734 C 0.33715 0.71692 0.86483 0.0
C735 C 0.33139 0.74721 0.92082 0.0
C736 C 0.32991 0.74305 0.85086 0.0
C737 C 0.32145 0.77135 0.90637 0.0
C738 C 0.33916 0.71997 0.90006 0.0
C739 C 0.29694 0.81685 0.90928 0.0
N740 N 0.3115 0.79205 0.85625 0.0
C741 C 0.29762 0.81422 0.87448 0.0
C742 C 0.30957 0.79594 0.92549 0.0
Tb743 Tb 0.31511 0.78551 0.79901 0.0
N744 N 0.32701 0.74047 0.81679 0.0
C745 C 0.32706 0.71029 0.79527 0.0
C746 C 0.34007 0.68739 0.84281 0.0
C747 C 0.33409 0.68363 0.80787 0.0
H748 H 0.28714 0.83037 0.86285 0.0
H749 H 0.33505 0.6603 0.79057 0.0
H750 H 0.34523 0.70047 0.91127 0.0
H751 H 0.28664 0.83506 0.9236 0.0
H752 H 0.32229 0.70663 0.76826 0.0
H753 H 0.34791 0.95422 0.76803 0.0
H754 H 0.34546 0.66668 0.8525 0.0
H755 H 0.3962 0.78276 0.69572 0.0
H756 H 0.35976 0.90798 0.7906 0.0
H757 H 0.39698 0.77815 0.63526 0.0
H758 H 0.33171 0.74839 0.94776 0.0
H759 H 0.34036 0.94891 0.70609 0.0
H760 H 0.3426 0.91601 0.64771 0.0
H761 H 0.30885 0.79796 0.95242 0.0
H762 H 0.35612 0.86797 0.61149 0.0
N763 N 0.35842 0.87508 0.74224 0.0
C764 C 0.35679 0.9047 0.76361 0.0
C765 C 0.34565 0.92822 0.7159 0.0
C766 C 0.34961 0.89914 0.69413 0.0
C767 C 0.35004 0.93137 0.75084 0.0
C768 C 0.3566 0.87294 0.70823 0.0
H769 H 0.37708 0.81706 0.60675 0.0
N770 N 0.37391 0.82311 0.70289 0.0
C771 C 0.38751 0.79716 0.64968 0.0
C772 C 0.36467 0.84616 0.6879 0.0
C773 C 0.38664 0.7998 0.68444 0.0
C774 C 0.37624 0.81913 0.63367 0.0
C775 C 0.36528 0.84452 0.65288 0.0
O776 O 0.40924 0.83566 0.79082 0.0
O777 O 0.36004 0.78732 0.78678 0.0
O778 O 0.34631 0.82202 0.8397 0.0
O779 O 0.36705 0.8608 0.80935 0.0
O780 O 0.38444 0.78155 0.74857 0.0
O781 O 0.40618 0.86659 0.75506 0.0
O782 O 0.27357 0.77945 0.77177 0.0
O783 O 0.32407 0.82739 0.77193 0.0
O784 O 0.33685 0.79561 0.71958 0.0
O785 O 0.3168 0.75504 0.74827 0.0
O786 O 0.29875 0.83244 0.80943 0.0
O787 O 0.28037 0.74542 0.80307 0.0
C788 C 0.374 0.76618 0.77106 0.0
C789 C 0.45082 0.8504 0.76301 0.0
C790 C 0.49888 0.83887 0.77434 0.0
C791 C 0.47227 0.84407 0.78518 0.0
C792 C 0.50334 0.83965 0.74061 0.0
C793 C 0.45592 0.8509 0.72947 0.0
C794 C 0.48194 0.84539 0.71841 0.0
C795 C 0.36163 0.8525 0.83826 0.0
C796 C 0.4237 0.85735 0.77546 0.0
C797 C 0.35613 0.8691 0.63839 0.0
C798 C 0.34838 0.89641 0.65899 0.0
C799 C 0.30931 0.84807 0.78711 0.0
C800 C 0.23479 0.75959 0.80156 0.0
C801 C 0.21128 0.76504 0.78208 0.0
C802 C 0.18512 0.7673 0.79559 0.0
C803 C 0.18324 0.76509 0.8295 0.0
C804 C 0.23236 0.75723 0.83532 0.0
C805 C 0.20681 0.7603 0.84921 0.0
C806 C 0.32185 0.76474 0.71981 0.0
C807 C 0.26116 0.7554 0.78582 0.0
H808 H 0.46811 0.84325 0.81087 0.0
H809 H 0.52366 0.83664 0.73143 0.0
H810 H 0.43996 0.85583 0.71177 0.0
H811 H 0.48575 0.84608 0.6926 0.0
H812 H 0.2134 0.76724 0.7562 0.0
H813 H 0.16331 0.76611 0.8406 0.0
H814 H 0.25002 0.75271 0.85096 0.0
H815 H 0.20506 0.75832 0.87517 0.0
Tb816 Tb 0.59169 0.04127 0.0617 0.0
C817 C 0.50144 0.07219 0.96027 0.0
C818 C 0.46178 0.02129 0.94394 0.0
C819 C 0.45252 0.07642 0.942 0.0
C820 C 0.49137 0.0375 0.95607 0.0
C821 C 0.48228 0.09214 0.95293 0.0
C822 C 0.4423 0.04101 0.93738 0.0
C823 C 0.52379 0.141 0.96523 0.0
N824 N 0.53037 0.0862 0.97032 0.0
C825 C 0.54195 0.12003 0.97188 0.0
C826 C 0.49377 0.12706 0.95598 0.0
Tb827 Tb 0.55838 0.04986 0.98047 0.0
N828 N 0.511 1.0194 0.96215 0.0
C829 C 0.50273 0.98452 0.95438 0.0
C830 C 0.45294 0.98572 0.93773 0.0
C831 C 0.47357 0.96722 0.94257 0.0
H832 H 0.56509 0.13114 0.97909 0.0
H833 H 0.46705 0.93964 0.93722 0.0
H834 H 0.41949 0.02908 0.92795 0.0
H835 H 0.53298 0.16788 0.96717 0.0
H836 H 0.51844 0.96983 0.95789 0.0
H837 H 0.67894 0.15401 0.11525 0.0
H838 H 0.43047 0.97224 0.92845 0.0
H839 H 0.58807 0.9596 0.058 0.0
H840 H 0.6287 0.12234 0.09128 0.0
H841 H 0.62189 0.92388 0.06726 0.0
H842 H 0.43739 0.09128 0.93629 0.0
H843 H 0.71736 0.1231 0.12172 0.0
H844 H 0.73089 0.06694 0.1168 0.0
H845 H 0.47978 0.1433 0.95063 0.0
H846 H 0.71533 1.00415 0.10382 0.0
N847 N 0.63809 0.07341 0.08354 0.0
C848 C 0.64497 0.10821 0.09399 0.0
C849 C 0.6952 0.10893 0.11127 0.0
C850 C 0.68777 0.07327 0.1021 0.0
C851 C 0.67357 0.12643 0.1077 0.0
C852 C 0.6586 0.05613 0.08861 0.0
H853 H 0.67459 0.95053 0.08575 0.0
N854 N 0.6213 1.00611 0.07053 0.0
C855 C 0.63009 0.95123 0.07137 0.0
C856 C 0.64989 0.02114 0.08174 0.0
C857 C 0.61095 0.97161 0.0663 0.0
C858 C 0.65983 0.96635 0.08172 0.0
C859 C 0.67002 1.0018 0.08749 0.0
O860 O 0.57425 1.02015 0.10097 0.0
O861 O 0.55336 0.03179 0.02609 0.0
O862 O 0.54289 0.0827 0.0202 0.0
O863 O 0.58057 0.09093 0.06431 0.0
O864 O 0.55423 0.9965 0.05377 0.0
O865 O 0.58637 0.0748 0.10533 0.0
O866 O 0.57986 0.06814 0.94218 0.0
O867 O 0.59634 0.05954 0.01654 0.0
O868 O 0.60881 1.01139 0.02074 0.0
O869 O 0.56981 1.00065 0.97811 0.0
O870 O 0.59701 0.09336 0.98676 0.0
O871 O 0.55617 1.01524 0.9343 0.0
C872 C 0.53824 1.00477 0.03146 0.0
C873 C 0.58402 0.05674 0.15611 0.0
C874 C 0.56942 0.07211 0.21208 0.0
C875 C 0.56305 0.06402 0.17669 0.0
C876 C 0.59775 0.07365 0.22681 0.0
C877 C 0.61221 0.05813 0.1707 0.0
C878 C 0.61901 0.06664 0.20611 0.0
C879 C 0.5571 0.09865 0.05071 0.0
C880 C 0.57553 0.05029 0.11967 0.0
C881 C 0.69944 1.01854 0.09946 0.0
C882 C 0.7083 0.05426 0.10682 0.0
C883 C 0.61205 0.08579 0.01047 0.0
C884 C 0.56237 0.03773 0.88594 0.0
C885 C 0.58338 0.03657 0.86398 0.0
C886 C 0.57671 0.03623 0.82974 0.0
C887 C 0.54834 0.0372 0.81756 0.0
C888 C 0.53397 0.03834 0.87385 0.0
C889 C 0.52702 0.03803 0.83959 0.0
C890 C 0.59468 0.99506 0.99025 0.0
C891 C 0.57161 0.03835 0.92115 0.0
H892 H 0.5416 0.06385 0.16489 0.0
H893 H 0.60329 0.07969 0.25413 0.0
H894 H 0.62881 0.05303 0.15487 0.0
H895 H 0.64077 0.06777 0.21754 0.0
H896 H 0.60543 0.03686 0.87396 0.0
H897 H 0.54273 0.0373 0.79121 0.0
H898 H 0.51743 0.03919 0.89074 0.0
H899 H 0.50516 0.03865 0.83015 0.0
Tb900 Tb 0.36263 0.33389 0.29799 0.0
C901 C 0.24864 0.26701 0.20498 0.0
C902 C 0.21035 0.28253 0.23626 0.0
C903 C 0.20376 0.27157 0.17471 0.0
C904 C 0.2387 0.27705 0.23563 0.0
C905 C 0.23098 0.26344 0.17413 0.0
C906 C 0.19336 0.28088 0.20572 0.0
C907 C 0.2671 0.24097 0.14445 0.0
N908 N 0.27494 0.25885 0.20543 0.0
C909 C 0.28355 0.24422 0.17561 0.0
C910 C 0.24081 0.25086 0.14364 0.0
Tb911 Tb 0.29996 0.26562 0.25845 0.0
N912 N 0.25559 0.27803 0.26464 0.0
C913 C 0.24407 0.28071 0.29467 0.0
C914 C 0.19924 0.28743 0.26731 0.0
C915 C 0.21585 0.28545 0.29643 0.0
H916 H 0.30352 0.23592 0.17529 0.0
H917 H 0.20701 0.28773 0.32033 0.0
H918 H 0.17173 0.28553 0.20574 0.0
H919 H 0.27482 0.23084 0.12109 0.0
H920 H 0.25644 0.27891 0.31738 0.0
H921 H 0.42006 0.33366 0.18482 0.0
H922 H 0.17745 0.29132 0.26883 0.0
H923 H 0.38837 0.32235 0.37314 0.0
H924 H 0.37798 0.31891 0.21349 0.0
H925 H 0.4356 0.32925 0.40576 0.0
H926 H 0.19017 0.26959 0.15127 0.0
H927 H 0.4695 0.35383 0.21706 0.0
H928 H 0.50116 0.36325 0.2719 0.0
H929 H 0.22795 0.24792 0.11943 0.0
H930 H 0.50546 0.35983 0.33168 0.0
N931 N 0.40098 0.33729 0.26416 0.0
C932 C 0.39841 0.33114 0.22927 0.0
C933 C 0.4506 0.34923 0.23042 0.0
C934 C 0.45376 0.35143 0.26527 0.0
C935 C 0.42278 0.33808 0.21223 0.0
C936 C 0.42833 0.34492 0.28147 0.0
H937 H 0.48119 0.34571 0.38112 0.0
N938 N 0.40586 0.33271 0.32816 0.0
C939 C 0.43464 0.33278 0.38005 0.0
C940 C 0.43081 0.34221 0.31464 0.0
C941 C 0.40765 0.32839 0.36088 0.0
C942 C 0.46029 0.34232 0.36619 0.0
C943 C 0.45866 0.34704 0.33311 0.0
O944 O 0.3579 0.35356 0.34847 0.0
O945 O 0.31564 0.31385 0.2944 0.0
O946 O 0.30771 0.30112 0.22387 0.0
O947 O 0.34996 0.34504 0.24869 0.0
O948 O 0.33023 0.36276 0.28996 0.0
O949 O 0.38211 0.38604 0.31983 0.0
O950 O 0.30639 0.21633 0.25674 0.0
O951 O 0.34654 0.28187 0.27261 0.0
O952 O 0.35587 0.29022 0.32302 0.0
O953 O 0.30579 0.27327 0.31438 0.0
O954 O 0.33182 0.24673 0.22775 0.0
O955 O 0.26443 0.2259 0.26186 0.0
C956 C 0.30722 0.34021 0.29203 0.0
C957 C 0.35745 0.41099 0.36385 0.0
C958 C 0.32353 0.44672 0.35876 0.0
C959 C 0.34184 0.42697 0.34405 0.0
C960 C 0.32303 0.45288 0.39404 0.0
C961 C 0.35661 0.41736 0.39899 0.0
C962 C 0.33987 0.43867 0.41405 0.0
C963 C 0.32817 0.32915 0.22346 0.0
C964 C 0.37178 0.38446 0.3485 0.0
C965 C 0.48396 0.35573 0.31781 0.0
C966 C 0.48151 0.35788 0.28387 0.0
C967 C 0.3549 0.2647 0.24779 0.0
C968 C 0.27844 0.18825 0.29266 0.0
C969 C 0.29418 0.16372 0.29456 0.0
C970 C 0.29493 0.14955 0.32302 0.0
C971 C 0.2795 0.15975 0.34975 0.0
C972 C 0.26236 0.19769 0.31919 0.0
C973 C 0.26288 0.18337 0.34751 0.0
C974 C 0.33093 0.27565 0.33263 0.0
C975 C 0.28035 0.20457 0.26361 0.0
H976 H 0.34263 0.4227 0.31702 0.0
H977 H 0.30946 0.46846 0.40607 0.0
H978 H 0.36834 0.40507 0.41464 0.0
H979 H 0.33922 0.44334 0.44117 0.0
H980 H 0.30668 0.15637 0.27425 0.0
H981 H 0.28016 0.14927 0.37206 0.0
H982 H 0.24983 0.21648 0.31844 0.0
H983 H 0.25079 0.19106 0.36802 0.0
Tb984 Tb 0.58069 0.58856 0.05349 0.0
C985 C 0.61036 0.49115 0.93864 0.0
C986 C 0.57166 0.48447 0.89306 0.0
C987 C 0.6196 0.47833 0.87984 0.0
C988 C 0.58198 0.49206 0.92807 0.0
C989 C 0.62913 0.48324 0.91454 0.0
C990 C 0.5909 0.47889 0.86912 0.0
C991 C 0.66388 0.48087 0.96026 0.0
N992 N 0.61873 0.4953 0.9724 0.0
C993 C 0.64451 0.48848 0.98323 0.0
C994 C 0.65643 0.47892 0.92587 0.0
Tb995 Tb 0.58535 0.50965 1.00719 0.0
N996 N 0.56374 0.49707 0.95189 0.0
C997 C 0.53428 0.49078 0.94201 0.0
C998 C 0.54198 0.48097 0.88307 0.0
C999 C 0.52312 0.48336 0.90763 0.0
H1000 H 0.65067 0.48938 1.00957 0.0
H1001 H 0.49994 0.47956 0.90012 0.0
H1002 H 0.58346 0.4736 0.84219 0.0
H1003 H 0.68452 0.4764 0.96911 0.0
H1004 H 0.51901 0.49216 0.96016 0.0
H1005 H 0.66851 0.62484 0.15812 0.0
H1006 H 0.53322 0.47514 0.85646 0.0
H1007 H 0.51164 0.595 0.0515 0.0
H1008 H 0.64702 0.60662 0.09852 0.0
H1009 H 0.47793 0.60853 0.09222 0.0
H1010 H 0.63385 0.47269 0.86101 0.0
H1011 H 0.63723 0.63468 0.20324 0.0
H1012 H 0.58743 0.63731 0.2191 0.0
H1013 H 0.67142 0.47279 0.90813 0.0
H1014 H 0.53555 0.63307 0.20117 0.0
N1015 N 0.60317 0.60497 0.10875 0.0
C1016 C 0.63273 0.61072 0.11746 0.0
C1017 C 0.6275 0.62659 0.17689 0.0
C1018 C 0.59757 0.6224 0.16788 0.0
C1019 C 0.64521 0.62115 0.15151 0.0
C1020 C 0.58603 0.61178 0.13318 0.0
H1021 H 0.49463 0.62278 0.1539 0.0
N1022 N 0.54746 0.60091 0.08949 0.0
C1023 C 0.50015 0.6089 0.10131 0.0
C1024 C 0.55711 0.60968 0.12319 0.0
C1025 C 0.51948 0.60133 0.07825 0.0
C1026 C 0.50962 0.61683 0.13609 0.0
C1027 C 0.53851 0.6177 0.14745 0.0
O1028 O 0.56861 0.63199 0.04362 0.0
O1029 O 0.57547 0.55766 1.00091 0.0
O1030 O 0.62385 0.54518 0.99779 0.0
O1031 O 0.62546 0.59173 0.04152 0.0
O1032 O 0.54561 0.58457 0.01212 0.0
O1033 O 0.614 0.63233 0.05594 0.0
O1034 O 0.57029 0.47478 0.037 0.0
O1035 O 0.59234 0.54134 0.05906 0.0
O1036 O 0.5476 0.5494 0.06742 0.0
O1037 O 0.54036 0.51069 0.0161 0.0
O1038 O 0.62196 0.51399 0.04693 0.0
O1039 O 0.57382 0.45708 0.98453 0.0
C1040 C 0.55304 0.56528 0.98705 0.0
C1041 C 0.60242 0.6857 0.06417 0.0
C1042 C 0.6176 0.74371 0.05675 0.0
C1043 C 0.6094 0.70842 0.04332 0.0
C1044 C 0.61898 0.75615 0.09192 0.0
C1045 C 0.60353 0.69807 0.09918 0.0
C1046 C 0.61179 0.73334 0.11296 0.0
C1047 C 0.63715 0.57559 0.01671 0.0
C1048 C 0.59569 0.64947 0.04786 0.0
C1049 C 0.54952 0.627 0.18212 0.0
C1050 C 0.57903 0.62939 0.19233 0.0
C1051 C 0.61552 0.53445 0.07213 0.0
C1052 C 0.58327 0.42256 0.02185 0.0
C1053 C 0.57507 0.4088 0.04946 0.0
C1054 C 0.58718 0.3832 0.05812 0.0
C1055 C 0.60794 0.37162 0.03906 0.0
C1056 C 0.60409 0.41074 1.003 0.0
C1057 C 0.61643 0.38551 0.01176 0.0
C1058 C 0.53135 0.52246 0.04514 0.0
C1059 C 0.56913 0.4484 0.01287 0.0
H1060 H 0.60917 0.69837 0.01638 0.0
H1061 H 0.62537 0.78332 0.10301 0.0
H1062 H 0.59836 0.68065 0.11566 0.0
H1063 H 0.6128 0.74302 0.14001 0.0
H1064 H 0.55863 0.4174 0.06368 0.0
H1065 H 0.61756 0.35186 0.04531 0.0
H1066 H 0.61066 0.42068 0.98138 0.0
H1067 H 0.63242 0.37646 0.99715 0.0
Tb1068 Tb 0.86626 0.32792 0.26492 0.0
C1069 C 0.81767 0.26489 0.37421 0.0
C1070 C 0.83304 0.21203 0.36589 0.0
C1071 C 0.82651 0.24025 0.42239 0.0
C1072 C 0.82602 0.23889 0.35301 0.0
C1073 C 0.81676 0.26508 0.4089 0.0
C1074 C 0.8346 0.21371 0.40088 0.0
C1075 C 0.7919 0.3104 0.41312 0.0
N1076 N 0.80756 0.2879 0.36005 0.0
C1077 C 0.7932 0.30922 0.37862 0.0
C1078 C 0.80441 0.28887 0.42855 0.0
Tb1079 Tb 0.81174 0.28358 0.30329 0.0
N1080 N 0.82342 0.23757 0.31917 0.0
C1081 C 0.82351 0.20796 0.29671 0.0
C1082 C 0.83614 0.18314 0.34298 0.0
C1083 C 0.83042 0.18066 0.30821 0.0
H1084 H 0.78282 0.32571 0.36739 0.0
H1085 H 0.83146 0.1578 0.29022 0.0
H1086 H 0.84049 0.19364 0.41129 0.0
H1087 H 0.78119 0.32792 0.42777 0.0
H1088 H 0.81882 0.20525 0.26979 0.0
H1089 H 0.84793 0.45461 0.27842 0.0
H1090 H 0.84139 0.16192 0.35182 0.0
H1091 H 0.88733 0.27862 0.19723 0.0
H1092 H 0.85814 0.40629 0.29868 0.0
H1093 H 0.88713 0.27581 0.13697 0.0
H1094 H 0.82639 0.2403 0.44907 0.0
H1095 H 0.84082 0.45192 0.21692 0.0
H1096 H 0.84186 0.42046 0.1576 0.0
H1097 H 0.80319 0.28973 0.45523 0.0
H1098 H 0.85261 0.37181 0.11915 0.0
N1099 N 0.85648 0.37506 0.24935 0.0
C1100 C 0.85539 0.40425 0.27183 0.0
C1101 C 0.84541 0.43037 0.22569 0.0
C1102 C 0.84842 0.40146 0.20279 0.0
C1103 C 0.84954 0.43204 0.26039 0.0
C1104 C 0.85447 0.37406 0.21553 0.0
H1105 H 0.87003 0.31831 0.11135 0.0
N1106 N 0.86882 0.32206 0.20742 0.0
C1107 C 0.87946 0.29576 0.15265 0.0
C1108 C 0.86096 0.34684 0.19391 0.0
C1109 C 0.87926 0.29748 0.18735 0.0
C1110 C 0.86976 0.31975 0.13826 0.0
C1111 C 0.86092 0.34608 0.15897 0.0
O1112 O 0.90804 0.32985 0.28926 0.0
O1113 O 0.85701 0.28545 0.29151 0.0
O1114 O 0.84199 0.31961 0.34518 0.0
O1115 O 0.86562 0.35789 0.31576 0.0
O1116 O 0.87984 0.2793 0.25172 0.0
O1117 O 0.9021 0.36768 0.26245 0.0
O1118 O 0.77003 0.27945 0.2773 0.0
O1119 O 0.82142 0.32604 0.27738 0.0
O1120 O 0.83176 0.29762 0.22519 0.0
O1121 O 0.81329 0.25476 0.25173 0.0
O1122 O 0.79617 0.33114 0.31481 0.0
O1123 O 0.77676 0.24279 0.30531 0.0
C1124 C 0.87014 0.26399 0.27459 0.0
C1125 C 0.94536 0.34846 0.25718 0.0
C1126 C 0.99169 0.33174 0.25439 0.0
C1127 C 0.96859 0.33833 0.27248 0.0
C1128 C 0.99101 0.33506 0.22058 0.0
C1129 C 0.94547 0.35212 0.2235 0.0
C1130 C 0.96806 0.34522 0.20535 0.0
C1131 C 0.85872 0.34959 0.34431 0.0
C1132 C 0.92098 0.3545 0.27632 0.0
C1133 C 0.85304 0.3722 0.14595 0.0
C1134 C 0.84687 0.39987 0.16783 0.0
C1135 C 0.80709 0.34697 0.29274 0.0
C1136 C 0.73102 0.25675 0.30554 0.0
C1137 C 0.70705 0.26201 0.28665 0.0
C1138 C 0.68061 0.26243 0.30027 0.0
C1139 C 0.67898 0.25873 0.33379 0.0
C1140 C 0.72875 0.25275 0.33886 0.0
C1141 C 0.70298 0.25414 0.35293 0.0
C1142 C 0.81716 0.26631 0.22402 0.0
C1143 C 0.75756 0.254 0.28946 0.0
H1144 H 0.9689 0.33618 0.29865 0.0
H1145 H 1.00822 0.32976 0.20587 0.0
H1146 H 0.9281 0.36018 0.21102 0.0
H1147 H 0.96781 0.34783 0.17936 0.0
H1148 H 0.70902 0.2654 0.2611 0.0
H1149 H 0.65892 0.25836 0.34496 0.0
H1150 H 0.7467 0.24818 0.35398 0.0
H1151 H 0.70139 0.25093 0.37856 0.0
Tb1152 Tb 0.09772 0.5478 0.56028 0.0
C1153 C 1.0051 0.5807 0.46268 0.0
C1154 C 0.96427 0.53101 0.44906 0.0
C1155 C 0.95613 0.5867 0.44752 0.0
C1156 C 0.99432 0.54625 0.45924 0.0
C1157 C 0.98628 0.60139 0.45639 0.0
C1158 C 0.94513 0.55152 0.44382 0.0
C1159 C 0.02874 0.64888 0.4658 0.0
N1160 N 0.03433 0.59372 0.47102 0.0
C1161 C 0.04649 0.62721 0.47163 0.0
C1162 C 0.99846 0.63599 0.45846 0.0
Tb1163 Tb 0.06171 0.55647 0.48038 0.0
N1164 N 1.01359 0.52741 0.46427 0.0
C1165 C 1.00434 0.49259 0.45724 0.0
C1166 C 0.95456 0.49556 0.44353 0.0
C1167 C 0.97474 0.47624 0.44724 0.0
H1168 H 0.06983 0.63755 0.47746 0.0
H1169 H 0.96751 0.44873 0.44247 0.0
H1170 H 0.92194 0.54034 0.43617 0.0
H1171 H 0.03844 0.6755 0.46699 0.0
H1172 H 0.01951 0.47713 0.46002 0.0
H1173 H 0.1861 0.66022 0.60999 0.0
H1174 H 0.93173 0.4828 0.43566 0.0
H1175 H 0.09447 0.46645 0.55743 0.0
H1176 H 0.13536 0.6288 0.58804 0.0
H1177 H 0.12898 0.43045 0.56314 0.0
H1178 H 0.94125 0.60217 0.44277 0.0
H1179 H 0.22486 0.62916 0.61288 0.0
H1180 H 0.23871 0.57302 0.60451 0.0
H1181 H 0.98477 0.65279 0.45384 0.0
H1182 H 0.22318 0.51023 0.59121 0.0
N1183 N 0.14478 0.57987 0.57815 0.0
C1184 C 0.15181 0.61464 0.58915 0.0
C1185 C 0.20249 0.61509 0.60331 0.0
C1186 C 0.19506 0.57948 0.59315 0.0
C1187 C 0.18067 0.63269 0.60176 0.0
C1188 C 0.16559 0.56244 0.58105 0.0
H1189 H 0.18219 0.45678 0.57619 0.0
N1190 N 0.12794 0.51242 0.5656 0.0
C1191 C 0.13714 0.45768 0.56618 0.0
C1192 C 0.15688 0.52738 0.57424 0.0
C1193 C 0.11767 0.47814 0.56307 0.0
C1194 C 0.16716 0.47262 0.57343 0.0
C1195 C 0.17734 0.508 0.5783 0.0
O1196 O 0.08206 0.52531 0.59937 0.0
O1197 O 0.05807 0.54025 0.52728 0.0
O1198 O 0.04854 0.59076 0.5208 0.0
O1199 O 0.08595 0.59741 0.56499 0.0
O1200 O 0.05901 0.50498 0.55521 0.0
O1201 O 0.09789 0.58015 0.60731 0.0
O1202 O 0.08222 0.57384 0.4411 0.0
O1203 O 0.10081 0.56489 0.51436 0.0
O1204 O 0.11092 0.51532 0.51803 0.0
O1205 O 0.07011 0.5059 0.47802 0.0
O1206 O 0.10084 0.59897 0.4851 0.0
O1207 O 0.0585 0.52113 0.43417 0.0
C1208 C 0.04259 0.51411 0.53398 0.0
C1209 C 0.10233 0.55654 0.65483 0.0
C1210 C 0.09721 0.55995 0.71432 0.0
C1211 C 0.08493 0.55618 0.68083 0.0
C1212 C 0.12746 0.56417 0.72175 0.0
C1213 C 0.13251 0.5602 0.6621 0.0
C1214 C 0.14499 0.56394 0.69554 0.0
C1215 C 0.06298 0.60609 0.55136 0.0
C1216 C 0.08802 0.55474 0.62104 0.0
C1217 C 0.20704 0.52466 0.58823 0.0
C1218 C 0.21588 0.56039 0.5958 0.0
C1219 C 0.11651 0.59089 0.50787 0.0
C1220 C 0.06297 0.54351 0.38531 0.0
C1221 C 0.08299 0.54231 0.36198 0.0
C1222 C 0.07481 0.54152 0.32783 0.0
C1223 C 0.04607 0.54259 0.31737 0.0
C1224 C 0.03427 0.54433 0.37479 0.0
C1225 C 0.02591 0.54392 0.34082 0.0
C1226 C 0.09388 0.49776 0.48969 0.0
C1227 C 0.07341 0.54401 0.42027 0.0
H1228 H 0.06169 0.554 0.67508 0.0
H1229 H 0.13736 0.56749 0.74758 0.0
H1230 H 0.14637 0.5606 0.64229 0.0
H1231 H 0.1683 0.56702 0.70118 0.0
H1232 H 0.1053 0.54249 0.37074 0.0
H1233 H 0.03915 0.54207 0.29116 0.0
H1234 H 0.01853 0.54535 0.39268 0.0
H1235 H 1.00377 0.5446 0.33262 0.0
Tb1236 Tb 0.803 0.81537 0.27891 0.0
C1237 C 0.89279 0.75344 0.34598 0.0
C1238 C 0.91276 0.79456 0.39876 0.0
C1239 C 0.91162 0.73477 0.39438 0.0
C1240 C 0.89916 0.78641 0.36488 0.0
C1241 C 0.89969 0.72729 0.36009 0.0
C1242 C 0.91815 0.76841 0.41372 0.0
C1243 C 0.88593 0.68953 0.30443 0.0
N1244 N 0.88193 0.74757 0.31288 0.0
C1245 C 0.87968 0.71644 0.29162 0.0
C1246 C 0.89553 0.69482 0.33895 0.0
Tb1247 Tb 0.87149 0.79277 0.29391 0.0
N1248 N 0.89397 0.81085 0.34923 0.0
C1249 C 0.90435 0.84454 0.36544 0.0
C1250 C 0.92154 0.82884 0.41609 0.0
C1251 C 0.91775 0.85396 0.39913 0.0
H1252 H 0.87216 0.71198 0.2649 0.0
H1253 H 0.92507 0.88063 0.41202 0.0
H1254 H 0.92825 0.7741 0.43982 0.0
H1255 H 0.88333 0.66475 0.28765 0.0
H1256 H 0.90163 0.86454 0.35314 0.0
H1257 H 0.74914 0.72969 0.15976 0.0
H1258 H 0.93199 0.8362 0.44214 0.0
H1259 H 0.80283 0.89618 0.30926 0.0
H1260 H 0.77208 0.74455 0.21883 0.0
H1261 H 0.79241 0.9442 0.28734 0.0
H1262 H 0.91679 0.71498 0.40583 0.0
H1263 H 0.74358 0.77506 0.13033 0.0
H1264 H 0.74836 0.8375 0.13364 0.0
H1265 H 0.90057 0.67403 0.34878 0.0
H1266 H 0.76014 0.89625 0.16856 0.0
N1267 N 0.78087 0.79841 0.22345 0.0
C1268 C 0.76996 0.76493 0.2068 0.0
C1269 C 0.75385 0.78188 0.15645 0.0
C1270 C 0.76305 0.81597 0.17427 0.0
C1271 C 0.75685 0.75622 0.17301 0.0
C1272 C 0.77636 0.8234 0.2082 0.0
H1273 H 0.77595 0.93619 0.22619 0.0
N1274 N 0.79332 0.86135 0.26082 0.0
C1275 C 0.78979 0.91961 0.2702 0.0
C1276 C 0.78287 0.85618 0.22765 0.0
C1277 C 0.79561 0.89226 0.28253 0.0
C1278 C 0.78063 0.91504 0.23566 0.0
C1279 C 0.77646 0.88282 0.21401 0.0
O1280 O 0.77523 0.83159 0.31359 0.0
O1281 O 0.83502 0.80758 0.31578 0.0
O1282 O 0.83714 0.74916 0.30244 0.0
O1283 O 0.7956 0.75908 0.2753 0.0
O1284 O 0.81789 0.84887 0.32929 0.0
O1285 O 0.76171 0.78285 0.27839 0.0
O1286 O 0.8987 0.77618 0.25864 0.0
O1287 O 0.83936 0.80025 0.2572 0.0
O1288 O 0.837 0.85815 0.26898 0.0
O1289 O 0.8786 0.84904 0.29672 0.0
O1290 O 0.85639 0.75873 0.24398 0.0
O1291 O 0.91265 0.82513 0.29329 0.0
C1292 C 0.83527 0.83243 0.33999 0.0
C1293 C 0.72444 0.80938 0.29612 0.0
C1294 C 0.67593 0.80737 0.31418 0.0
C1295 C 0.70464 0.80321 0.31957 0.0
C1296 C 0.66757 0.81793 0.28485 0.0
C1297 C 0.71546 0.81972 0.2671 0.0
C1298 C 0.68719 0.82398 0.26157 0.0
C1299 C 0.809 0.73871 0.28889 0.0
C1300 C 0.75412 0.80433 0.3021 0.0
C1301 C 0.76492 0.87607 0.17965 0.0
C1302 C 0.75822 0.84264 0.15978 0.0
C1303 C 0.83897 0.77513 0.23325 0.0
C1304 C 0.94971 0.79878 0.27401 0.0
C1305 C 0.96865 0.80472 0.24958 0.0
C1306 C 0.99754 0.80078 0.25385 0.0
C1307 C 1.0069 0.79058 0.28302 0.0
C1308 C 0.9597 0.78877 0.3028 0.0
C1309 C 0.98812 0.78468 0.3072 0.0
C1310 C 0.86508 0.86892 0.28244 0.0
C1311 C 0.9198 0.80357 0.26924 0.0
H1312 H 0.71154 0.79472 0.34173 0.0
H1313 H 0.64597 0.82204 0.2801 0.0
H1314 H 0.7302 0.82437 0.24868 0.0
H1315 H 0.68046 0.83212 0.23915 0.0
H1316 H 0.96097 0.81286 0.22754 0.0
H1317 H 0.02864 0.78662 0.28698 0.0
H1318 H 0.94559 0.7842 0.32188 0.0
H1319 H 0.99563 0.77679 0.32945 0.0
Tb1320 Tb 0.85542 0.28679 0.73888 0.0
C1321 C 0.80924 0.40334 0.82381 0.0
C1322 C 0.85135 0.4488 0.85082 0.0
C1323 C 0.80456 0.46178 0.83895 0.0
C1324 C 0.83849 0.41403 0.83586 0.0
C1325 C 0.79165 0.42688 0.82589 0.0
C1326 C 0.83441 0.47274 0.85146 0.0
C1327 C 0.74955 0.37937 0.80566 0.0
N1328 N 0.79766 0.36943 0.81215 0.0
C1329 C 0.76794 0.35708 0.80435 0.0
C1330 C 0.7615 0.41449 0.816 0.0
Tb1331 Tb 0.82913 0.33428 0.81044 0.0
N1332 N 0.85388 0.38998 0.83495 0.0
C1333 C 0.88195 0.39902 0.85124 0.0
C1334 C 0.88048 0.45823 0.8658 0.0
C1335 C 0.89571 0.43313 0.86643 0.0
H1336 H 0.75832 0.33002 0.79606 0.0
H1337 H 0.91813 0.44003 0.87851 0.0
H1338 H 0.84396 0.49959 0.86247 0.0
H1339 H 0.72618 0.36941 0.79861 0.0
H1340 H 0.8944 0.38035 0.85203 0.0
H1341 H 0.77008 0.17503 0.6765 0.0
H1342 H 0.89113 0.4846 0.87769 0.0
H1343 H 0.9285 0.29549 0.74693 0.0
H1344 H 0.79183 0.23642 0.69747 0.0
H1345 H 0.96188 0.25809 0.74826 0.0
H1346 H 0.79149 0.48033 0.84048 0.0
H1347 H 0.79835 0.13348 0.68588 0.0
H1348 H 0.84622 0.12271 0.70555 0.0
H1349 H 0.74722 0.43171 0.8172 0.0
H1350 H 0.89882 0.14554 0.72514 0.0
N1351 N 0.83187 0.23031 0.72028 0.0
C1352 C 0.80448 0.21886 0.70223 0.0
C1353 C 0.80807 0.16054 0.69535 0.0
C1354 C 0.83698 0.17244 0.71119 0.0
C1355 C 0.79207 0.18391 0.68996 0.0
C1356 C 0.84868 0.20797 0.72279 0.0
H1357 H 0.94225 0.1959 0.74002 0.0
N1358 N 0.88962 0.25527 0.73993 0.0
C1359 C 0.93847 0.24733 0.74428 0.0
C1360 C 0.87851 0.22086 0.73305 0.0
C1361 C 0.91931 0.26853 0.74356 0.0
C1362 C 0.92731 0.21225 0.73975 0.0
C1363 C 0.89705 0.19849 0.73311 0.0
O1364 O 0.85575 0.26347 0.68776 0.0
O1365 O 0.85593 0.33555 0.77026 0.0
O1366 O 0.80881 0.34406 0.7634 0.0
O1367 O 0.81156 0.29499 0.72442 0.0
O1368 O 0.8945 0.32944 0.75278 0.0
O1369 O 0.86457 0.31769 0.70371 0.0
O1370 O 0.79936 0.31465 0.84155 0.0
O1371 O 0.8286 0.28527 0.77898 0.0
O1372 O 0.8787 0.27839 0.7846 0.0
O1373 O 0.87149 0.32305 0.82621 0.0
O1374 O 0.79029 0.29153 0.79645 0.0
O1375 O 0.84554 0.33503 0.86021 0.0
C1376 C 0.88233 0.35067 0.77071 0.0
C1377 C 0.83631 0.29203 0.65022 0.0
C1378 C 0.81476 0.32432 0.61553 0.0
C1379 C 0.83459 0.32314 0.64266 0.0
C1380 C 0.79543 0.29376 0.59697 0.0
C1381 C 0.81712 0.2617 0.63099 0.0
C1382 C 0.79655 0.26272 0.60485 0.0
C1383 C 0.80004 0.32169 0.73355 0.0
C1384 C 0.85834 0.29172 0.67796 0.0
C1385 C 0.88496 0.16309 0.72477 0.0
C1386 C 0.85499 0.15008 0.71368 0.0
C1387 C 0.80242 0.27007 0.77929 0.0
C1388 C 0.81291 0.32749 0.90105 0.0
C1389 C 0.8032 0.2995 0.91496 0.0
C1390 C 0.79855 0.30389 0.94895 0.0
C1391 C 0.80329 0.33709 0.96912 0.0
C1392 C 0.81732 0.36065 0.92091 0.0
C1393 C 0.81229 0.36535 0.95494 0.0
C1394 C 0.88473 0.29815 0.81583 0.0
C1395 C 0.82002 0.31988 0.86652 0.0
H1396 H 0.84911 0.34654 0.65779 0.0
H1397 H 0.78012 0.29359 0.57563 0.0
H1398 H 0.81791 0.2372 0.63609 0.0
H1399 H 0.78181 0.23929 0.59022 0.0
H1400 H 0.80056 0.27395 0.8995 0.0
H1401 H 0.80014 0.34109 0.99564 0.0
H1402 H 0.825 0.38257 0.91036 0.0
H1403 H 0.81587 0.3909 0.9705 0.0
Tb1404 Tb 0.87338 0.84053 0.81082 0.0
C1405 C 0.74576 0.76527 0.78293 0.0
C1406 C 0.73207 0.72183 0.81458 0.0
C1407 C 0.69653 0.75183 0.7986 0.0
C1408 C 0.75302 0.74152 0.79902 0.0
C1409 C 0.71714 0.77024 0.78196 0.0
C1410 C 0.70399 0.72767 0.81494 0.0
C1411 C 0.73085 0.81023 0.74716 0.0
N1412 N 0.76644 0.78274 0.76738 0.0
C1413 C 0.75897 0.80474 0.74911 0.0
C1414 C 0.7099 0.79315 0.76389 0.0
Tb1415 Tb 0.81172 0.76999 0.77082 0.0
N1416 N 0.78021 0.73642 0.79787 0.0
C1417 C 0.78691 0.70954 0.80911 0.0
C1418 C 0.73962 0.69607 0.82827 0.0
C1419 C 0.76703 0.68955 0.82503 0.0
H1420 H 0.77427 0.8192 0.73634 0.0
H1421 H 0.77286 0.66909 0.83472 0.0
H1422 H 0.68769 0.71305 0.82701 0.0
H1423 H 0.72549 0.82803 0.733 0.0
H1424 H 0.80807 0.70421 0.80662 0.0
H1425 H 0.96655 0.8227 0.74682 0.0
H1426 H 0.72415 0.68042 0.84043 0.0
H1427 H 0.87141 0.86969 0.89423 0.0
H1428 H 0.91727 0.83135 0.75108 0.0
H1429 H 0.90123 0.87446 0.94796 0.0
H1430 H 0.67461 0.75564 0.79844 0.0
H1431 H 0.99642 0.81714 0.79712 0.0
H1432 H 1.00262 0.82062 0.85976 0.0
H1433 H 0.68821 0.79768 0.76253 0.0
H1434 H 0.98479 0.83505 0.91484 0.0
N1435 N 0.91821 0.82969 0.80332 0.0
C1436 C 0.92965 0.82854 0.77329 0.0
C1437 C 0.97462 0.82082 0.7992 0.0
C1438 C 0.96369 0.82437 0.83038 0.0
C1439 C 0.95785 0.82397 0.77078 0.0
C1440 C 0.93529 0.82956 0.83178 0.0
H1441 H 0.94744 0.85612 0.948 0.0
N1442 N 0.89926 0.84652 0.86318 0.0
C1443 C 0.90818 0.86393 0.92419 0.0
C1444 C 0.92555 0.8384 0.86279 0.0
C1445 C 0.89123 0.86104 0.89342 0.0
C1446 C 0.93422 0.85349 0.92412 0.0
C1447 C 0.94356 0.8413 0.8932 0.0
O1448 O 0.86563 0.88946 0.81489 0.0
O1449 O 0.82654 0.82251 0.79652 0.0
O1450 O 0.81875 0.80836 0.73982 0.0
O1451 O 0.8681 0.8346 0.75499 0.0
O1452 O 0.84121 0.85742 0.84208 0.0
O1453 O 0.90808 0.88164 0.80859 0.0
O1454 O 0.80746 0.75782 0.71705 0.0
O1455 O 0.85845 0.7914 0.7764 0.0
O1456 O 0.86681 0.80476 0.84461 0.0
O1457 O 0.81854 0.77283 0.82595 0.0
O1458 O 0.84524 0.74226 0.77876 0.0
O1459 O 0.79769 0.71869 0.74404 0.0
C1460 C 0.81826 0.83885 0.82221 0.0
C1461 C 0.89348 0.92217 0.78235 0.0
C1462 C 0.87657 0.96404 0.75731 0.0
C1463 C 0.87746 0.94681 0.78346 0.0
C1464 C 0.89236 0.95705 0.73003 0.0
C1465 C 0.90993 0.9159 0.75541 0.0
C1466 C 0.90935 0.93337 0.72941 0.0
C1467 C 0.84357 0.82711 0.73365 0.0
C1468 C 0.89168 0.90279 0.809 0.0
C1469 C 0.97084 0.83341 0.89177 0.0
C1470 C 0.98095 0.82507 0.86041 0.0
C1471 C 0.86794 0.76581 0.77848 0.0
C1472 C 0.82159 0.70685 0.69577 0.0
C1473 C 0.83735 0.68733 0.71089 0.0
C1474 C 0.85771 0.67245 0.69391 0.0
C1475 C 0.86091 0.67583 0.66054 0.0
C1476 C 0.82551 0.71021 0.6627 0.0
C1477 C 0.84483 0.69447 0.64509 0.0
C1478 C 0.84245 0.78345 0.84866 0.0
C1479 C 0.8024 0.7253 0.71496 0.0
H1480 H 0.86464 0.95166 0.80412 0.0
H1481 H 0.89153 0.96987 0.70938 0.0
H1482 H 0.92278 0.89716 0.75404 0.0
H1483 H 0.92167 0.9281 0.70846 0.0
H1484 H 0.8348 0.68505 0.73659 0.0
H1485 H 0.87585 0.66412 0.6463 0.0
H1486 H 0.81379 0.72525 0.65059 0.0
H1487 H 0.84758 0.697 0.61947 0.0
Tb1488 Tb 0.5556 0.52983 0.50837 0.0
C1489 C 0.6292 0.65776 0.60589 0.0
C1490 C 0.6341 0.70102 0.57335 0.0
C1491 C 0.63635 0.71729 0.63467 0.0
C1492 C 0.62945 0.66649 0.57502 0.0
C1493 C 0.63343 0.68309 0.63623 0.0
C1494 C 0.6367 0.72625 0.60324 0.0
C1495 C 0.635 0.63955 0.66735 0.0
N1496 N 0.62703 0.6246 0.60627 0.0
C1497 C 0.63112 0.61545 0.63658 0.0
C1498 C 0.63575 0.67346 0.6672 0.0
Tb1499 Tb 0.61985 0.58655 0.55446 0.0
N1500 N 0.6273 0.64139 0.54687 0.0
C1501 C 0.63225 0.64973 0.51653 0.0
C1502 C 0.63716 0.70928 0.54192 0.0
C1503 C 0.63673 0.68356 0.5135 0.0
H1504 H 0.63049 0.58932 0.63714 0.0
H1505 H 0.63973 0.68972 0.48917 0.0
H1506 H 0.63993 0.75286 0.60242 0.0
H1507 H 0.63744 0.63196 0.69116 0.0
H1508 H 0.63189 0.63042 0.4941 0.0
H1509 H 0.53628 0.42672 0.57383 0.0
H1510 H 0.6407 0.73547 0.53952 0.0
H1511 H 0.5428 0.5268 0.42588 0.0
H1512 H 0.54432 0.48597 0.56889 0.0
H1513 H 0.53411 0.48403 0.37178 0.0
H1514 H 0.63933 0.7371 0.65766 0.0
H1515 H 0.53413 0.38074 0.52325 0.0
H1516 H 0.53345 0.36313 0.46009 0.0
H1517 H 0.63901 0.69214 0.69107 0.0
H1518 H 0.5329 0.37881 0.4048 0.0
N1519 N 0.54799 0.47488 0.51586 0.0
C1520 C 0.54347 0.46662 0.54634 0.0
C1521 C 0.53777 0.40693 0.52085 0.0
C1522 C 0.54021 0.41508 0.4893 0.0
C1523 C 0.53887 0.43278 0.54939 0.0
C1524 C 0.54502 0.44964 0.48764 0.0
H1525 H 0.5322 0.4237 0.37156 0.0
N1526 N 0.54679 0.49148 0.45654 0.0
C1527 C 0.53714 0.47643 0.3955 0.0
C1528 C 0.54443 0.45828 0.45677 0.0
C1529 C 0.54202 0.50062 0.42636 0.0
C1530 C 0.5362 0.44245 0.39547 0.0
C1531 C 0.53932 0.43287 0.42636 0.0
O1532 O 0.51794 0.53835 0.48364 0.0
O1533 O 0.57763 0.58369 0.52799 0.0
O1534 O 0.58518 0.59349 0.58772 0.0
O1535 O 0.55028 0.54294 0.56463 0.0
O1536 O 0.55682 0.56972 0.47975 0.0
O1537 O 0.51628 0.51946 0.52919 0.0
O1538 O 0.6575 0.57931 0.58021 0.0
O1539 O 0.59804 0.53264 0.53456 0.0
O1540 O 0.5897 0.52415 0.47311 0.0
O1541 O 0.62563 0.57318 0.49889 0.0
O1542 O 0.61874 0.54649 0.58287 0.0
O1543 O 0.65962 0.59842 0.53474 0.0
C1544 C 0.57121 0.59575 0.50259 0.0
C1545 C 0.47234 0.50564 0.49181 0.0
C1546 C 0.42007 0.50098 0.48065 0.0
C1547 C 0.4489 0.52093 0.48991 0.0
C1548 C 0.41493 0.46528 0.47289 0.0
C1549 C 0.46708 0.46997 0.48319 0.0
C1550 C 0.43841 0.4499 0.47363 0.0
C1551 C 0.56117 0.57045 0.5902 0.0
C1552 C 0.5015 0.52781 0.50531 0.0
C1553 C 0.53639 0.39865 0.42784 0.0
C1554 C 0.53677 0.38974 0.45931 0.0
C1555 C 0.60449 0.52048 0.55989 0.0
C1556 C 0.70269 0.61395 0.57361 0.0
C1557 C 0.72775 0.60256 0.56701 0.0
C1558 C 0.75569 0.6235 0.58027 0.0
C1559 C 0.75827 0.65623 0.60047 0.0
C1560 C 0.70544 0.64677 0.59358 0.0
C1561 C 0.73321 0.66782 0.60697 0.0
C1562 C 0.61457 0.54688 0.47223 0.0
C1563 C 0.67426 0.59061 0.55912 0.0
H1564 H 0.45303 0.54853 0.49701 0.0
H1565 H 0.39285 0.4494 0.46636 0.0
H1566 H 0.48494 0.45771 0.48455 0.0
H1567 H 0.43432 0.42237 0.46736 0.0
H1568 H 0.72542 0.57695 0.55193 0.0
H1569 H 0.77957 0.67284 0.61084 0.0
H1570 H 0.68633 0.65607 0.59884 0.0
H1571 H 0.73532 0.69313 0.62243 0.0
Tb1572 Tb 0.11173 0.55646 1.00926 0.0
C1573 C 0.03433 0.49897 0.10938 0.0
C1574 C 1.00427 0.44408 0.07841 0.0
C1575 C 0.01695 0.45483 0.13952 0.0
C1576 C 0.02061 0.47732 0.07912 0.0
C1577 C 0.03263 0.48814 0.14005 0.0
C1578 C 1.00276 0.43283 0.10874 0.0
C1579 C 0.06139 0.54419 0.1694 0.0
N1580 N 0.0493 0.53084 0.10869 0.0
C1581 C 0.06232 0.55377 0.13833 0.0
C1582 C 0.04658 0.51118 0.17027 0.0
Tb1583 Tb 0.05043 0.54375 0.05633 0.0
N1584 N 0.02271 0.48917 0.05045 0.0
C1585 C 1.00741 0.46947 0.02028 0.0
C1586 C 0.98963 0.42336 0.04733 0.0
C1587 C 0.991 0.43626 0.01819 0.0
H1588 H 0.07416 0.57925 0.13821 0.0
H1589 H 0.97948 0.42061 0.99406 0.0
H1590 H 0.99045 0.40732 0.1087 0.0
H1591 H 0.07216 0.56226 0.19266 0.0
H1592 H 1.00819 0.47877 0.99738 0.0
H1593 H 0.18379 0.67668 0.07782 0.0
H1594 H 0.97691 0.39764 0.04565 0.0
H1595 H 0.09157 0.52444 0.9267 0.0
H1596 H 0.15458 0.61803 0.071 0.0
H1597 H 0.09472 0.54463 0.87375 0.0
H1598 H 1.01545 0.44595 0.16279 0.0
H1599 H 0.18665 0.70344 0.02864 0.0
H1600 H 0.17346 0.69769 0.96605 0.0
H1601 H 0.04589 0.50385 0.19437 0.0
H1602 H 0.14927 0.66168 0.9104 0.0
N1603 N 0.13999 0.61124 0.01839 0.0
C1604 C 0.15548 0.62903 0.04914 0.0
C1605 C 0.17371 0.67753 0.02542 0.0
C1606 C 0.15906 0.65863 0.99365 0.0
C1607 C 0.17218 0.66249 0.05321 0.0
C1608 C 0.14243 0.62507 0.99094 0.0
H1609 H 0.12001 0.60442 0.87565 0.0
N1610 N 0.11439 0.57249 0.95857 0.0
C1611 C 0.10445 0.56191 0.89783 0.0
C1612 C 0.12908 0.60495 0.95986 0.0
C1613 C 0.10282 0.55053 0.92793 0.0
C1614 C 0.11868 0.59569 0.899 0.0
C1615 C 0.13157 0.61759 0.93026 0.0
O1616 O 0.13508 0.52399 0.98242 0.0
O1617 O 0.07891 0.51982 0.02584 0.0
O1618 O 0.0851 0.52674 0.08094 0.0
O1619 O 0.12402 0.56176 0.06415 0.0
O1620 O 0.0905 0.50422 0.97959 0.0
O1621 O 0.15265 0.55537 0.03223 0.0
O1622 O 0.02668 0.57668 0.08154 0.0
O1623 O 0.08304 0.58047 0.03907 0.0
O1624 O 0.07517 0.56982 0.98244 0.0
O1625 O 0.03755 0.53509 1.00163 0.0
O1626 O 0.072 0.5962 0.08544 0.0
O1627 O 1.0091 0.54264 0.03286 0.0
C1628 C 0.07445 0.49393 1.00126 0.0
C1629 C 0.18671 0.53793 0.99786 0.0
C1630 C 0.23319 0.52116 0.99923 0.0
C1631 C 0.20381 0.51597 1.00544 0.0
C1632 C 0.24509 0.54881 0.98516 0.0
C1633 C 0.19895 0.56523 0.98379 0.0
C1634 C 0.22803 0.57055 0.97743 0.0
C1635 C 0.11337 0.54097 0.08353 0.0
C1636 C 0.15682 0.53279 1.00689 0.0
C1637 C 0.14723 0.65138 0.9328 0.0
C1638 C 0.16099 0.67188 0.96448 0.0
C1639 C 0.08795 0.60635 0.06367 0.0
C1640 C 0.97504 0.56127 0.06634 0.0
C1641 C 0.9583 0.58343 0.05866 0.0
C1642 C 0.92891 0.57849 0.06453 0.0
C1643 C 0.91653 0.55085 0.07835 0.0
C1644 C 0.96247 0.53397 0.08025 0.0
C1645 C 0.93329 0.52887 0.08627 0.0
C1646 C 0.04713 0.55416 0.98047 0.0
C1647 C 1.0048 0.56617 0.05717 0.0
H1648 H 0.19436 0.49525 0.01691 0.0
H1649 H 0.26748 0.55338 0.97968 0.0
H1650 H 0.18615 0.58251 0.97804 0.0
H1651 H 0.23744 0.59167 0.96655 0.0
H1652 H 0.96804 0.60412 0.0473 0.0
H1653 H 0.89404 0.5465 0.08345 0.0
H1654 H 0.97503 0.5165 0.08605 0.0
H1655 H 0.92357 0.50774 0.09697 0.0
C1656 C 0.05935 0.18145 0.02152 0.0
C1657 C 0.0559 0.18906 0.98909 0.0
H1658 H 0.06586 0.14485 0.05082 0.0
C1659 C 0.05775 0.16345 0.96103 0.0
H1660 H 0.05809 0.2001 0.04402 0.0
C1661 C 0.06292 0.13194 0.96519 0.0
C1662 C 0.06649 0.12438 0.99751 0.0
H1663 H 0.05541 0.16781 0.93568 0.0
H1664 H 0.06409 0.11318 0.94271 0.0
C1665 C 0.06416 0.14966 0.02561 0.0
C1666 C 0.23523 0.7932 0.16036 0.0
C1667 C 0.21876 0.81706 0.17081 0.0
H1668 H 0.27125 0.77246 0.17132 0.0
C1669 C 0.22852 0.84002 0.20275 0.0
H1670 H 0.22895 0.77515 0.136 0.0
C1671 C 0.25348 0.83837 0.22366 0.0
C1672 C 0.26929 0.81358 0.21337 0.0
H1673 H 0.21664 0.85888 0.21185 0.0
H1674 H 0.2602 0.85638 0.24793 0.0
C1675 C 0.25982 0.79155 0.18101 0.0
C1676 C 0.56884 0.91577 0.52828 0.0
C1677 C 0.56271 0.89208 0.49647 0.0
H1678 H 0.58237 0.96849 0.55558 0.0
C1679 C 0.56447 0.90544 0.46725 0.0
H1680 H 0.56789 0.9068 0.5515 0.0
C1681 C 0.5721 0.94094 0.4697 0.0
C1682 C 0.57817 0.96459 0.50138 0.0
H1683 H 0.55997 0.88843 0.44229 0.0
H1684 H 0.5735 0.95 0.44654 0.0
C1685 C 0.57682 0.95139 0.53071 0.0
C1686 C 0.56859 0.32953 0.71002 0.0
C1687 C 0.55927 0.31991 0.67488 0.0
H1688 H 0.55653 0.33255 0.76012 0.0
C1689 C 0.52916 0.30608 0.66373 0.0
H1690 H 0.59151 0.34045 0.71962 0.0
C1691 C 0.50905 0.30131 0.68696 0.0
C1692 C 0.51839 0.3102 0.72211 0.0
H1693 H 0.52107 0.29836 0.63688 0.0
H1694 H 0.48625 0.28969 0.67723 0.0
C1695 C 0.54845 0.32478 0.73327 0.0
C1696 C 0.06855 0.85828 0.62956 0.0
C1697 C 0.04486 0.83085 0.62955 0.0
H1698 H 0.09122 0.89161 0.60117 0.0
C1699 C 0.02515 0.81609 0.59957 0.0
H1700 H 0.08431 0.87005 0.65206 0.0
C1701 C 0.02916 0.8285 0.57025 0.0
C1702 C 0.05287 0.85598 0.57035 0.0
H1703 H 1.00676 0.79476 0.59863 0.0
H1704 H 1.01345 0.81693 0.54768 0.0
C1705 C 0.07253 0.87065 0.60034 0.0
C1706 C 0.56472 0.81108 0.80887 0.0
C1707 C 0.56923 0.82847 0.84311 0.0
H1708 H 0.53836 0.79938 0.76068 0.0
C1709 C 0.54984 0.84811 0.8549 0.0
H1710 H 0.57923 0.79561 0.79912 0.0
C1711 C 0.52693 0.85112 0.83278 0.0
C1712 C 0.52242 0.83405 0.79832 0.0
H1713 H 0.55294 0.86221 0.88109 0.0
H1714 H 0.51336 0.86775 0.84264 0.0
C1715 C 0.54139 0.81353 0.78681 0.0
C1716 C 0.54768 0.16609 0.1245 0.0
C1717 C 0.52279 0.17502 0.11168 0.0
H1718 H 0.57868 0.13626 0.11506 0.0
C1719 C 0.50939 0.15901 0.07846 0.0
H1720 H 0.5588 0.17839 0.14986 0.0
C1721 C 0.52058 0.13427 0.05851 0.0
C1722 C 0.54577 0.12567 0.07119 0.0
H1723 H 0.49024 0.16553 0.06792 0.0
H1724 H 0.50939 0.12189 0.03324 0.0
C1725 C 0.55921 0.14198 0.10439 0.0
C1726 C 0.23868 0.36749 0.31291 0.0
C1727 C 0.23843 0.36413 0.34666 0.0
H1728 H 0.26148 0.36307 0.26905 0.0
C1729 C 0.2625 0.3568 0.36327 0.0
H1730 H 0.22036 0.37343 0.29977 0.0
C1731 C 0.28529 0.34989 0.34552 0.0
C1732 C 0.28463 0.35101 0.31116 0.0
H1733 H 0.26278 0.35415 0.38927 0.0
H1734 H 0.30281 0.34231 0.3583 0.0
C1735 C 0.26201 0.36155 0.29539 0.0
C1736 C 0.03796 0.10948 0.17507 0.0
C1737 C 0.01721 0.08444 0.18585 0.0
H1738 H 0.06624 0.12329 0.13848 0.0
C1739 C 1.01023 0.05143 0.16366 0.0
H1740 H 0.0445 0.13534 0.19038 0.0
C1741 C 0.02305 0.04439 0.13261 0.0
C1742 C 0.04383 0.06983 0.12215 0.0
H1743 H 0.99441 0.031 0.16988 0.0
H1744 H 0.01664 1.01877 0.11678 0.0
C1745 C 0.05081 0.10245 0.14462 0.0
C1746 C 0.31681 0.72122 0.49845 0.0
C1747 C 0.2961 0.69203 0.47926 0.0
H1748 H 0.336 0.77466 0.50439 0.0
C1749 C 0.27665 0.69545 0.45302 0.0
H1750 H 0.3318 0.71952 0.51924 0.0
C1751 C 0.27874 0.72704 0.44509 0.0
C1752 C 0.30037 0.75582 0.46312 0.0
H1753 H 0.26008 0.67364 0.43821 0.0
H1754 H 0.26417 0.72875 0.42389 0.0
C1755 C 0.31892 0.75291 0.49043 0.0
C1756 C 0.64733 1.0081 0.6533 0.0
C1757 C 0.67663 0.02702 0.66131 0.0
H1758 H 0.60578 1.00108 0.62395 0.0
C1759 C 0.68662 0.05347 0.64508 0.0
H1760 H 0.63894 0.98781 0.66573 0.0
C1761 C 0.66763 0.06163 0.6222 0.0
C1762 C 0.6383 0.04303 0.61425 0.0
H1763 H 0.70901 0.06872 0.65079 0.0
H1764 H 0.67611 0.08282 0.61098 0.0
C1765 C 0.62827 1.01601 0.62982 0.0
C1766 C 0.3605 0.39442 0.91396 0.0
C1767 C 0.35418 0.37311 0.9367 0.0
H1768 H 0.35921 0.39873 0.86241 0.0
C1769 C 0.34432 0.33759 0.92327 0.0
H1770 H 0.36829 0.42182 0.92299 0.0
C1771 C 0.33974 0.32412 0.88778 0.0
C1772 C 0.34495 0.34608 0.86544 0.0
H1773 H 0.33936 0.32042 0.94004 0.0
H1774 H 0.33072 0.297 0.87785 0.0
C1775 C 0.35555 0.38119 0.87904 0.0
C1776 C 0.05018 0.06617 0.38888 0.0
C1777 C 0.02305 0.07461 0.38125 0.0
H1778 H 0.082 0.05801 0.42603 0.0
C1779 C 1.00725 0.08003 0.40915 0.0
H1780 H 0.06357 0.06154 0.36887 0.0
C1781 C 0.0178 0.07707 0.44223 0.0
C1782 C 0.04484 0.06861 0.44984 0.0
H1783 H 0.98636 0.08623 0.40544 0.0
H1784 H 1.00446 0.08164 0.46232 0.0
C1785 C 0.06092 0.06367 0.42212 0.0
C1786 C 0.31333 0.68048 0.65702 0.0
C1787 C 0.31939 0.69193 0.62753 0.0
H1788 H 0.30912 0.69469 0.7098 0.0
C1789 C 0.32199 0.7264 0.6276 0.0
H1790 H 0.31062 0.65381 0.65728 0.0
C1791 C 0.32005 0.74943 0.65706 0.0
C1792 C 0.31664 0.7388 0.68748 0.0
H1793 H 0.32565 0.73569 0.60483 0.0
H1794 H 0.32246 0.77591 0.65627 0.0
C1795 C 0.31222 0.70385 0.68695 0.0
C1796 C 0.6469 0.02408 0.79765 0.0
C1797 C 0.65338 0.05058 0.78067 0.0
H1798 H 0.61656 0.99768 0.82528 0.0
C1799 C 0.63241 0.06905 0.77576 0.0
H1800 H 0.66235 1.00894 0.80115 0.0
C1801 C 0.60622 0.06264 0.78957 0.0
C1802 C 0.60057 0.03758 0.80839 0.0
H1803 H 0.63664 0.08936 0.76233 0.0
H1804 H 0.59125 0.07863 0.78726 0.0
C1805 C 0.62063 1.0175 0.81122 0.0
C1806 C 0.35257 0.37508 0.1539 0.0
C1807 C 0.32798 0.36306 0.12886 0.0
H1808 H 0.37151 0.37552 0.20369 0.0
C1809 C 0.30277 0.34182 0.13631 0.0
H1810 H 0.37218 0.39206 0.14943 0.0
C1811 C 0.30255 0.33186 0.16732 0.0
C1812 C 0.32742 0.34284 0.19198 0.0
H1813 H 0.2832 0.33247 0.11796 0.0
H1814 H 0.28277 0.31555 0.17195 0.0
C1815 C 0.35214 0.36553 0.18517 0.0
C1816 C 0.29732 0.05141 0.10147 0.0
C1817 C 0.31385 0.0502 0.07421 0.0
H1818 H 0.26478 0.07244 0.12589 0.0
C1819 C 0.31318 0.07323 0.05323 0.0
H1820 H 0.29746 0.03403 0.1181 0.0
C1821 C 0.29502 0.0957 0.05823 0.0
C1822 C 0.27694 0.09509 0.08393 0.0
H1823 H 0.32593 0.07308 0.03222 0.0
H1824 H 0.29367 0.11191 0.04063 0.0
C1825 C 0.27875 0.07343 0.10605 0.0
C1826 C 0.709 0.5938 0.97967 0.0
C1827 C 0.72441 0.62471 1.00186 0.0
H1828 H 0.66919 0.55438 0.96638 0.0
C1829 C 0.71069 0.63939 0.02844 0.0
H1830 H 0.71887 0.58187 0.95881 0.0
C1831 C 0.68251 0.6234 0.03309 0.0
C1832 C 0.66708 0.59232 0.01117 0.0
H1833 H 0.72187 0.66314 0.04609 0.0
H1834 H 0.67297 0.6355 0.05414 0.0
C1835 C 0.68057 0.57788 0.98415 0.0
C1836 C 0.77021 0.40444 0.24373 0.0
C1837 C 0.7619 0.42841 0.26975 0.0
H1838 H 0.78987 0.36159 0.22898 0.0
C1839 C 0.77024 0.42532 0.30309 0.0
H1840 H 0.76473 0.40473 0.21744 0.0
C1841 C 0.78541 0.40014 0.30966 0.0
C1842 C 0.79375 0.37634 0.28363 0.0
H1843 H 0.76484 0.44224 0.32443 0.0
H1844 H 0.7905 0.39912 0.33584 0.0
C1845 C 0.78526 0.37923 0.25032 0.0
C1846 C 0.96574 0.52476 0.53793 0.0
C1847 C 0.94982 0.49095 0.53421 0.0
H1848 H 1.00747 0.55862 0.54166 0.0
C1849 C 0.96473 0.46484 0.53077 0.0
H1850 H 0.95496 0.5455 0.54096 0.0
C1851 C 0.995 0.47245 0.53058 0.0
C1852 C 1.01068 0.50614 0.53323 0.0
H1853 H 0.95305 0.4385 0.52803 0.0
H1854 H 1.00611 0.452 0.52785 0.0
C1855 C 0.9959 0.53228 0.53776 0.0
C1856 C 0.32887 0.07617 0.29613 0.0
C1857 C 0.35384 0.08519 0.32037 0.0
H1858 H 0.29037 0.08977 0.27827 0.0
C1859 C 0.35734 0.11335 0.34789 0.0
H1860 H 0.32547 0.05451 0.27476 0.0
C1861 C 0.33694 0.13317 0.35011 0.0
C1862 C 0.31303 0.12523 0.32467 0.0
H1863 H 0.37627 0.1207 0.36711 0.0
H1864 H 0.34068 0.15568 0.37062 0.0
C1865 C 0.30875 0.0962 0.29814 0.0
C1866 C 0.37345 0.11607 0.51848 0.0
C1867 C 0.3844 0.1516 0.52978 0.0
H1868 H 0.38132 0.06662 0.51616 0.0
C1869 C 0.41308 0.1644 0.54682 0.0
H1870 H 0.35146 0.10533 0.50528 0.0
C1871 C 0.43018 0.14218 0.553 0.0
C1872 C 0.41892 0.10665 0.54255 0.0
H1873 H 0.4222 0.19161 0.55589 0.0
H1874 H 0.45196 0.15283 0.5668 0.0
C1875 C 0.39046 0.09386 0.52494 0.0
C1876 C 0.78387 0.64389 0.29848 0.0
C1877 C 0.75451 0.63352 0.28248 0.0
H1878 H 0.82384 0.68428 0.31367 0.0
C1879 C 0.7441 0.65845 0.26927 0.0
H1880 H 0.79314 0.62608 0.30919 0.0
C1881 C 0.76164 0.69158 0.27163 0.0
C1882 C 0.79092 0.70227 0.28741 0.0
H1883 H 0.7219 0.65245 0.25668 0.0
H1884 H 0.75188 0.70895 0.26076 0.0
C1885 C 0.80167 0.67759 0.30097 0.0
C1886 C 0.89291 0.44595 0.7817 0.0
C1887 C 0.92281 0.45782 0.79456 0.0
H1888 H 0.85645 0.40228 0.7639 0.0
C1889 C 0.9389 0.43404 0.79935 0.0
H1890 H 0.87998 0.4636 0.77747 0.0
C1891 C 0.92543 0.39925 0.79175 0.0
C1892 C 0.89552 0.38754 0.77975 0.0
H1893 H 0.96199 0.44223 0.80899 0.0
H1894 H 0.93834 0.38145 0.79563 0.0
C1895 C 0.8794 0.41099 0.77411 0.0
C1896 C 0.11624 0.9232 0.03912 0.0
C1897 C 0.11766 0.91445 0.07118 0.0
H1898 H 0.11051 0.96037 1.01016 0.0
C1899 C 0.11339 0.93885 0.09894 0.0
H1900 H 0.11942 0.90556 0.01685 0.0
C1901 C 0.10785 0.97025 0.09483 0.0
C1902 C 0.1061 0.97882 0.06282 0.0
H1903 H 0.11422 0.9337 0.12403 0.0
H1904 H 0.1048 0.98805 0.11708 0.0
C1905 C 0.11085 0.95478 0.03506 0.0
C1906 C 0.94669 0.26503 0.85523 0.0
C1907 C 0.95616 0.28898 0.88655 0.0
H1908 H 0.91658 0.24839 0.8089 0.0
C1909 C 0.94103 0.31477 0.8945 0.0
H1910 H 0.95754 0.2447 0.84805 0.0
C1911 C 0.91793 0.31719 0.87194 0.0
C1912 C 0.90883 0.29397 0.84023 0.0
H1913 H 0.94725 0.33374 0.91828 0.0
H1914 H 0.90743 0.33775 0.87948 0.0
C1915 C 0.92329 0.26741 0.83252 0.0
C1916 C 0.61627 0.21083 0.59577 0.0
C1917 C 0.61801 0.22385 0.56637 0.0
H1918 H 0.60886 0.16669 0.6171 0.0
C1919 C 0.61368 0.19993 0.53482 0.0
H1920 H 0.61954 0.22802 0.62055 0.0
C1921 C 0.60733 0.16435 0.53283 0.0
C1922 C 0.60582 0.15155 0.56239 0.0
H1923 H 0.6148 0.20866 0.51149 0.0
H1924 H 0.6032 0.14689 0.50814 0.0
C1925 C 0.61027 0.17546 0.59378 0.0
C1926 C 0.6049 0.78245 0.35166 0.0
C1927 C 0.61441 0.79316 0.38672 0.0
H1928 H 0.61675 0.77779 0.30139 0.0
C1929 C 0.64444 0.80747 0.3977 0.0
H1930 H 0.58198 0.77115 0.34227 0.0
C1931 C 0.66437 0.81157 0.37428 0.0
C1932 C 0.65486 0.80141 0.33918 0.0
H1933 H 0.6526 0.81608 0.42451 0.0
H1934 H 0.68716 0.82355 0.38377 0.0
C1935 C 0.62487 0.78647 0.3282 0.0
C1936 C 0.12686 0.26786 0.44664 0.0
C1937 C 0.14892 0.29836 0.45489 0.0
H1938 H 0.10022 0.22785 0.4647 0.0
C1939 C 0.16184 0.31135 0.48889 0.0
H1940 H 0.11622 0.25736 0.4208 0.0
C1941 C 0.15273 0.29439 0.5141 0.0
C1942 C 0.13048 0.26403 0.50592 0.0
H1943 H 0.17889 0.33484 0.49617 0.0
H1944 H 0.16334 0.3049 0.53995 0.0
C1945 C 0.1177 0.25095 0.47186 0.0
C1946 C 0.62464 0.25012 0.22381 0.0
C1947 C 0.60415 0.26688 0.23776 0.0
H1948 H 0.66389 0.23445 0.23253 0.0
C1949 C 0.60897 0.28274 0.27247 0.0
H1950 H 0.62135 0.23719 0.19722 0.0
C1951 C 0.63403 0.28193 0.29279 0.0
C1952 C 0.65444 0.26476 0.27885 0.0
H1953 H 0.59352 0.29591 0.28383 0.0
H1954 H 0.63744 0.29488 0.31936 0.0
C1955 C 0.64927 0.24877 0.2441 0.0
C1956 C 0.60907 0.93666 0.91211 0.0
C1957 C 0.63512 0.92945 0.92385 0.0
H1958 H 0.57512 0.96136 0.92418 0.0
C1959 C 0.64785 0.94382 0.95764 0.0
H1960 H 0.59839 0.92526 0.88641 0.0
C1961 C 0.63468 0.96506 0.97935 0.0
C1962 C 0.60819 0.97164 0.96785 0.0
H1963 H 0.66779 0.9383 0.96737 0.0
H1964 H 0.64521 0.9761 1.00515 0.0
C1965 C 0.59557 0.95716 0.93398 0.0
C1966 C 0.93665 0.74107 0.75355 0.0
C1967 C 0.93613 0.74646 0.72041 0.0
H1968 H 0.91479 0.7426 0.79816 0.0
C1969 C 0.91175 0.75483 0.70571 0.0
H1970 H 0.95513 0.73417 0.76522 0.0
C1971 C 0.88935 0.76037 0.72467 0.0
C1972 C 0.89063 0.75693 0.75839 0.0
H1973 H 0.91068 0.75891 0.68019 0.0
H1974 H 0.87141 0.76838 0.71329 0.0
C1975 C 0.91373 0.74583 0.77234 0.0
C1976 C 0.13643 1.01618 0.87837 0.0
C1977 C 0.16439 0.03901 0.88069 0.0
H1978 H 0.09853 0.99853 0.90314 0.0
C1979 C 0.17382 0.06227 0.91286 0.0
H1980 H 0.12763 0.99754 0.85481 0.0
C1981 C 0.15711 0.0629 0.94059 0.0
C1982 C 0.1294 0.04026 0.93877 0.0
H1983 H 0.19478 0.08065 0.91706 0.0
H1984 H 0.16637 0.08166 0.96395 0.0
C1985 C 0.11948 1.01677 0.9066 0.0
C1986 C 0.79344 0.3937 0.57778 0.0
C1987 C 0.82096 0.41589 0.57901 0.0
H1988 H 0.76962 0.34774 0.58939 0.0
C1989 C 0.8458 0.40923 0.5948 0.0
H1990 H 0.77389 0.39831 0.56587 0.0
C1991 C 0.84353 0.37998 0.60721 0.0
C1992 C 0.81623 0.35694 0.60499 0.0
H1993 H 0.8674 0.42563 0.59601 0.0
H1994 H 0.86354 0.37479 0.61711 0.0
C1995 C 0.79106 0.36458 0.59091 0.0
C1996 C 0.50275 0.07191 0.42168 0.0
C1997 C 0.50853 0.05929 0.3888 0.0
H1998 H 0.51747 0.08331 0.47478 0.0
C1999 C 0.53546 0.05106 0.38427 0.0
H2000 H 0.48239 0.07888 0.42598 0.0
C2001 C 0.55558 0.05367 0.41234 0.0
C2002 C 0.54892 0.06448 0.44512 0.0
H2003 H 0.54062 0.04153 0.35914 0.0
H2004 H 0.5754 0.04544 0.40839 0.0
C2005 C 0.52278 0.0744 0.44959 0.0
C2006 C 0.82912 0.79428 0.14575 0.0
C2007 C 0.82358 0.76118 0.1248 0.0
H2008 H 0.83863 0.82508 0.19698 0.0
C2009 C 0.82203 0.73345 0.14022 0.0
H2010 H 0.83049 0.8162 0.1347 0.0
C2011 C 0.82615 0.73852 0.17541 0.0
C2012 C 0.83179 0.77137 0.19636 0.0
H2013 H 0.81769 0.70758 0.12511 0.0
H2014 H 0.82509 0.71654 0.18635 0.0
C2015 C 0.83352 0.79938 0.18133 0.0
C2016 C 0.16751 0.02977 0.65076 0.0
C2017 C 0.15155 0.03438 0.67863 0.0
H2018 H 0.17061 0.02968 0.5979 0.0
C2019 C 0.12453 0.04318 0.67127 0.0
H2020 H 0.18833 0.02335 0.65424 0.0
C2021 C 0.11402 0.04674 0.63835 0.0
C2022 C 0.13019 0.04248 0.61064 0.0
H2023 H 0.11101 0.04725 0.69125 0.0
H2024 H 0.09301 0.05264 0.63467 0.0
C2025 C 0.15717 0.03374 0.61799 0.0
C2026 C 0.87596 0.43855 0.40057 0.0
C2027 C 0.86525 0.43211 0.4304 0.0
H2028 H 0.88391 0.41762 0.35074 0.0
C2029 C 0.85588 0.39814 0.43323 0.0
H2030 H 0.88394 0.46445 0.39791 0.0
C2031 C 0.85599 0.37117 0.40614 0.0
C2032 C 0.8646 0.37754 0.37533 0.0
H2033 H 0.84853 0.39234 0.45643 0.0
H2034 H 0.84891 0.34538 0.40919 0.0
C2035 C 0.87584 0.41157 0.37344 0.0
C2036 C 0.49466 0.0625 0.2407 0.0
C2037 C 0.49973 0.08894 0.27001 0.0
H2038 H 0.51282 0.03561 0.20064 0.0
C2039 C 0.52806 0.11038 0.28016 0.0
H2040 H 0.47322 0.04526 0.23231 0.0
C2041 C 0.55097 0.10492 0.26166 0.0
C2042 C 0.54586 0.07796 0.23275 0.0
H2043 H 0.53273 0.1308 0.30284 0.0
H2044 H 0.57258 0.1218 0.26985 0.0
C2045 C 0.51744 0.05691 0.22252 0.0
C2046 C 0.86689 0.76124 0.93115 0.0
C2047 C 0.84007 0.7469 0.94139 0.0
H2048 H 0.88871 0.78365 0.89402 0.0
C2049 C 0.81405 0.74514 0.92106 0.0
H2050 H 0.8874 0.76297 0.94608 0.0
C2051 C 0.81483 0.75697 0.8911 0.0
C2052 C 0.84164 0.77117 0.88073 0.0
H2053 H 0.79299 0.73413 0.92798 0.0
H2054 H 0.79431 0.75495 0.87615 0.0
C2055 C 0.86765 0.77327 0.90128 0.0
C2056 C 0.89836 0.10889 1.0039 0.0
C2057 C 0.86828 0.09404 1.00166 0.0
H2058 H 0.94055 0.10117 0.99474 0.0
C2059 C 0.85765 0.05894 0.98721 0.0
H2060 H 0.90728 0.13588 0.01475 0.0
C2061 C 0.87677 0.03906 0.97563 0.0
C2062 C 0.90692 0.05384 0.97848 0.0
H2063 H 0.83458 0.04673 0.98502 0.0
H2064 H 0.86804 1.01197 0.96521 0.0
C2065 C 0.91747 0.089 0.99253 0.0
C2066 C 0.4555 0.46314 0.03285 0.0
C2067 C 0.44486 0.4744 0.06343 0.0
H2068 H 0.49079 0.46926 1.00319 0.0
C2069 C 0.46321 0.5013 0.08838 0.0
H2070 H 0.44207 0.44246 0.01304 0.0
C2071 C 0.49142 0.51671 0.08273 0.0
C2072 C 0.50179 0.50582 0.05185 0.0
H2073 H 0.4558 0.51051 0.11229 0.0
H2074 H 0.50505 0.53714 0.10259 0.0
C2075 C 0.48354 0.47863 0.02715 0.0
C2076 C 0.41164 0.70845 0.81859 0.0
C2077 C 0.41692 0.68244 0.79213 0.0
H2078 H 0.39499 0.75355 0.83417 0.0
C2079 C 0.40654 0.68449 0.75903 0.0
H2080 H 0.41888 0.70908 0.84471 0.0
C2081 C 0.39223 0.71057 0.75308 0.0
C2082 C 0.38676 0.73626 0.77961 0.0
H2083 H 0.40966 0.66603 0.7374 0.0
H2084 H 0.38542 0.71069 0.72703 0.0
C2085 C 0.39739 0.73448 0.81262 0.0
C2086 C 0.19513 0.64089 0.52565 0.0
C2087 C 0.20975 0.61449 0.52171 0.0
H2088 H 0.15362 0.65382 0.52419 0.0
C2089 C 0.19354 0.58063 0.50949 0.0
H2090 H 0.20714 0.66735 0.53423 0.0
C2091 C 0.16314 0.57314 0.50386 0.0
C2092 C 0.14849 0.59924 0.51087 0.0
H2093 H 0.20422 0.55982 0.50528 0.0
H2094 H 0.15121 0.54691 0.49436 0.0
C2095 C 0.16462 0.63329 0.51988 0.0
C2096 C 0.81161 0.99727 0.73596 0.0
C2097 C 0.81395 0.02387 0.76467 0.0
H2098 H 0.83046 0.95798 0.71075 0.0
C2099 C 0.83858 0.03274 0.78933 0.0
H2100 H 0.793 0.99021 0.71634 0.0
C2101 C 0.85985 1.0142 0.78613 0.0
C2102 C 0.85705 0.98708 0.75787 0.0
H2103 H 0.84095 0.05326 0.81158 0.0
H2104 H 0.87811 1.0204 0.8061 0.0
C2105 C 0.83315 0.97916 0.73247 0.0
C2106 C 0.76881 0.94532 0.52378 0.0
C2107 C 0.79784 0.95644 0.53998 0.0
H2108 H 0.73079 0.9593 0.50503 0.0
C2109 C 0.81023 0.99171 0.55139 0.0
H2110 H 0.75854 0.91836 0.51464 0.0
C2111 C 0.79426 1.01525 0.54578 0.0
C2112 C 0.76545 1.00409 0.52886 0.0
H2113 H 0.83251 1.00119 0.56397 0.0
H2114 H 0.80452 0.04224 0.5546 0.0
C2115 C 0.75281 0.96882 0.51838 0.0
C2116 C 0.42806 0.44915 0.79253 0.0
C2117 C 0.41748 0.47376 0.77896 0.0
H2118 H 0.42058 0.39892 0.80159 0.0
C2119 C 0.38807 0.46315 0.76312 0.0
H2120 H 0.4503 0.45539 0.80507 0.0
C2121 C 0.37046 0.42943 0.76091 0.0
C2122 C 0.38139 0.40503 0.77472 0.0
H2123 H 0.37872 0.4807 0.75206 0.0
H2124 H 0.3483 0.4225 0.74815 0.0
C2125 C 0.41066 0.41604 0.79054 0.0
C2126 C 0.2463 0.67236 0.24071 0.0
C2127 C 0.26207 0.64807 0.2444 0.0
H2128 H 0.24716 0.72545 0.24867 0.0
C2129 C 0.29163 0.65898 0.2586 0.0
H2130 H 0.22339 0.66455 0.23026 0.0
C2131 C 0.30538 0.6938 0.26828 0.0
C2132 C 0.28954 0.71791 0.26424 0.0
H2133 H 0.30414 0.64063 0.26177 0.0
H2134 H 0.32817 0.70189 0.27923 0.0
C2135 C 0.25981 0.70705 0.25122 0.0
C2136 C 0.55874 0.67072 0.46503 0.0
C2137 C 0.55644 0.69581 0.49329 0.0
H2138 H 0.56564 0.62086 0.44612 0.0
C2139 C 0.55967 0.68771 0.52552 0.0
H2140 H 0.55655 0.67545 0.43982 0.0
C2141 C 0.56474 0.6559 0.5292 0.0
C2142 C 0.5675 0.63114 0.50086 0.0
H2143 H 0.55807 0.70597 0.54815 0.0
H2144 H 0.56631 0.65066 0.55423 0.0
C2145 C 0.56412 0.63922 0.46876 0.0
C2146 C 0.73521 0.35191 0.6963 0.0
C2147 C 0.72327 0.32539 0.66729 0.0
H2148 H 0.76909 0.37247 0.73913 0.0
C2149 C 0.73792 0.29909 0.65978 0.0
H2150 H 0.7249 0.3728 0.70298 0.0
C2151 C 0.76273 0.2985 0.68083 0.0
C2152 C 0.77438 0.32434 0.71032 0.0
H2153 H 0.72989 0.27819 0.63771 0.0
H2154 H 0.77248 0.2772 0.67403 0.0
C2155 C 0.76053 0.35152 0.7173 0.0
C2156 C 0.06361 0.40841 0.02845 0.0
C2157 C 0.05603 0.38443 0.99683 0.0
H2158 H 0.0755 0.46133 0.05509 0.0
C2159 C 0.0527 0.39721 0.96756 0.0
H2160 H 0.06641 0.39985 0.05168 0.0
C2161 C 0.05737 0.43251 0.9697 0.0
C2162 C 0.06544 0.45651 1.00111 0.0
H2163 H 0.04678 0.37992 0.94275 0.0
H2164 H 0.05521 0.44117 0.94641 0.0
C2165 C 0.06852 0.44388 0.03053 0.0
C2166 C 0.02697 0.79971 0.16886 0.0
C2167 C 0.05712 0.81425 0.17889 0.0
H2168 H 0.98475 0.78382 0.18426 0.0
C2169 C 0.0673 0.82554 0.21379 0.0
H2170 H 0.01827 0.79068 0.14223 0.0
C2171 C 0.04796 0.82182 0.23797 0.0
C2172 C 0.01786 0.80662 0.22797 0.0
H2173 H 0.0903 0.83704 0.2225 0.0
H2174 H 0.05665 0.83089 0.2646 0.0
C2175 C 1.00764 0.79596 0.19303 0.0
C2176 C 0.56492 0.37278 0.14366 0.0
C2177 C 0.55522 0.33714 0.13788 0.0
H2178 H 0.58268 0.41541 0.12267 0.0
C2179 C 0.55661 0.3169 0.10592 0.0
H2180 H 0.56417 0.38898 0.16804 0.0
C2181 C 0.56754 0.33193 0.08032 0.0
C2182 C 0.57695 0.3675 0.08596 0.0
H2183 H 0.54948 0.28933 0.1007 0.0
H2184 H 0.56815 0.31573 0.05588 0.0
C2185 C 0.57547 0.38787 0.11778 0.0
C2186 C 0.03718 0.29386 0.31032 0.0
C2187 C 0.06579 0.31013 0.30648 0.0
H2188 H 0.99126 0.28777 0.29675 0.0
C2189 C 0.06971 0.33167 0.2837 0.0
H2190 H 0.03339 0.27713 0.32768 0.0
C2191 C 0.04564 0.33794 0.26625 0.0
C2192 C 0.01704 0.32283 0.27111 0.0
H2193 H 0.09142 0.34464 0.28013 0.0
H2194 H 0.04952 0.3557 0.2499 0.0
C2195 C 1.01304 0.30022 0.29288 0.0
C2196 C 1.0144 0.66496 0.57957 0.0
C2197 C 0.02633 0.67908 0.61358 0.0
H2198 H 1.01641 0.63067 0.53334 0.0
C2199 C 0.05076 0.66958 0.62689 0.0
H2200 H 0.99563 0.67192 0.56865 0.0
C2201 C 0.06325 0.64668 0.60641 0.0
C2202 C 0.05129 0.63238 0.57236 0.0
H2203 H 0.0607 0.68041 0.65296 0.0
H2204 H 0.08214 0.64008 0.61747 0.0
C2205 C 0.02659 0.64161 0.55924 0.0
C2206 C 0.74656 0.86378 0.82494 0.0
C2207 C 0.73295 0.84476 0.84687 0.0
H2208 H 0.7843 0.87619 0.79955 0.0
C2209 C 0.74784 0.82368 0.86058 0.0
H2210 H 0.7359 0.88061 0.81429 0.0
C2211 C 0.77555 0.8215 0.85229 0.0
C2212 C 0.78839 0.83927 0.82921 0.0
H2213 H 0.73826 0.80914 0.87803 0.0
H2214 H 0.7869 0.80599 0.86396 0.0
C2215 C 0.77412 0.86116 0.81633 0.0
C2216 C 0.54089 0.61399 0.67747 0.0
C2217 C 0.51938 0.58868 0.68688 0.0
H2218 H 0.56997 0.62879 0.64194 0.0
C2219 C 0.5118 0.55641 0.66341 0.0
H2220 H 0.54787 0.63934 0.69386 0.0
C2221 C 0.52478 0.55032 0.63241 0.0
C2222 C 0.54632 0.57599 0.62331 0.0
H2223 H 0.49537 0.53588 0.66857 0.0
H2224 H 0.51787 0.52523 0.61553 0.0
C2225 C 0.55394 0.60786 0.64705 0.0
C2226 C 0.80685 0.23838 0.99861 0.0
C2227 C 0.78567 0.20947 0.9797 0.0
H2228 H 0.82702 0.29148 1.00412 0.0
C2229 C 0.7664 0.21319 0.95344 0.0
H2230 H 0.82175 0.23647 0.01937 0.0
C2231 C 0.76925 0.24474 0.94509 0.0
C2232 C 0.79133 0.2732 0.9629 0.0
H2233 H 0.74959 0.19157 0.93874 0.0
H2234 H 0.75492 0.24664 0.92378 0.0
C2235 C 0.8096 0.27001 0.99032 0.0
C2236 C 0.18339 0.53735 0.13289 0.0
C2237 C 0.17311 0.5123 0.15078 0.0
H2238 H 0.17261 0.56679 0.09851 0.0
C2239 C 0.14312 0.49608 0.14558 0.0
H2240 H 0.20633 0.55053 0.13646 0.0
C2241 C 0.12371 0.50557 0.12392 0.0
C2242 C 0.13388 0.53141 0.10691 0.0
H2243 H 0.13442 0.47687 0.15915 0.0
H2244 H 0.10069 0.4928 0.12079 0.0
C2245 C 0.16398 0.54688 0.11129 0.0
C2246 C 0.84637 0.81189 0.42698 0.0
C2247 C 0.85129 0.84459 0.44864 0.0
H2248 H 0.83706 0.78197 0.37536 0.0
C2249 C 0.8515 0.87255 0.43386 0.0
H2250 H 0.84598 0.78975 0.43744 0.0
C2251 C 0.84701 0.86812 0.39866 0.0
C2252 C 0.84225 0.83568 0.377 0.0
H2253 H 0.85526 0.89812 0.4495 0.0
H2254 H 0.84724 0.8903 0.38827 0.0
C2255 C 0.84153 0.80742 0.39145 0.0
C2256 C 0.50496 0.5769 0.90852 0.0
C2257 C 0.52221 0.57489 0.88161 0.0
H2258 H 0.50056 0.57487 0.96078 0.0
C2259 C 0.55031 0.56918 0.8902 0.0
H2260 H 0.4833 0.58093 0.90406 0.0
C2261 C 0.56051 0.56583 0.92331 0.0
C2262 C 0.54294 0.56698 0.94991 0.0
H2263 H 0.56487 0.56732 0.87104 0.0
H2264 H 0.58236 0.56242 0.928 0.0
C2265 C 0.51503 0.57307 0.94149 0.0
C2266 C 0.81214 0.23585 0.12997 0.0
C2267 C 0.81472 0.20227 0.12687 0.0
H2268 H 0.80903 0.28178 0.16311 0.0
C2269 C 0.8135 0.18799 0.15539 0.0
H2270 H 0.81212 0.24713 0.10814 0.0
C2271 C 0.81211 0.20812 0.1872 0.0
C2272 C 0.8114 0.24246 0.19053 0.0
H2273 H 0.81494 0.16189 0.15335 0.0
H2274 H 0.81324 0.19737 0.20925 0.0
C2275 C 0.81006 0.25556 0.16138 0.0
C2276 C 0.1246 0.56501 0.26337 0.0
C2277 C 0.14558 0.54649 0.26795 0.0
H2278 H 0.08555 0.57807 0.27893 0.0
C2279 C 0.14112 0.52349 0.28916 0.0
H2280 H 0.12733 0.58265 0.24683 0.0
C2281 C 0.11699 0.52033 0.30681 0.0
C2282 C 0.09704 0.54054 0.30416 0.0
H2283 H 0.15652 0.50826 0.29257 0.0
H2284 H 0.11445 0.50275 0.32343 0.0
C2285 C 0.10054 0.56216 0.28146 0.0
C2286 C 0.86997 0.86157 0.65787 0.0
C2287 C 0.84341 0.86068 0.63898 0.0
H2288 H 0.89097 0.85164 0.70236 0.0
C2289 C 0.81717 0.84776 0.65108 0.0
H2290 H 0.89064 0.87137 0.64939 0.0
C2291 C 0.81738 0.83653 0.68133 0.0
C2292 C 0.84384 0.8383 0.70087 0.0
H2293 H 0.79628 0.84642 0.63721 0.0
H2294 H 0.79661 0.82681 0.68948 0.0
C2295 C 0.87017 0.85056 0.68847 0.0
C2296 C 0.82422 0.59327 0.59531 0.0
C2297 C 0.82478 0.57328 0.56293 0.0
H2298 H 0.80157 0.62488 0.62624 0.0
C2299 C 0.80491 0.5739 0.53563 0.0
H2300 H 0.83937 0.59351 0.61685 0.0
C2301 C 0.78358 0.5921 0.54099 0.0
C2302 C 0.78164 0.61001 0.57377 0.0
H2303 H 0.80502 0.55917 0.51029 0.0
H2304 H 0.76781 0.59105 0.5197 0.0
C2305 C 0.80274 0.61144 0.60069 0.0
C2306 C 0.21646 0.1096 0.49527 0.0
C2307 C 0.21856 0.14399 0.49444 0.0
H2308 H 0.18887 0.06242 0.5005 0.0
C2309 C 0.193 0.15587 0.49465 0.0
H2310 H 0.23573 0.09959 0.49501 0.0
C2311 C 0.16639 0.1346 0.49775 0.0
C2312 C 0.16461 0.10088 0.50031 0.0
H2313 H 0.19368 0.18206 0.49383 0.0
H2314 H 0.1473 0.14488 0.49915 0.0
C2315 C 0.18963 0.08817 0.49809 0.0
C2316 C 0.27099 0.90582 0.73979 0.0
C2317 C 0.26318 0.92975 0.76636 0.0
H2318 H 0.29053 0.86303 0.72387 0.0
C2319 C 0.27251 0.92661 0.79941 0.0
H2320 H 0.26476 0.90611 0.71366 0.0
C2321 C 0.28807 0.90147 0.80518 0.0
C2322 C 0.29589 0.87771 0.77861 0.0
H2323 H 0.26759 0.94346 0.82115 0.0
H2324 H 0.29384 0.90042 0.83121 0.0
C2325 C 0.28641 0.88063 0.74559 0.0
C2326 C 0.46057 0.95333 0.02419 0.0
C2327 C 0.4452 0.97902 0.02841 0.0
H2328 H 0.50245 0.94168 0.02191 0.0
C2329 C 0.46075 1.01323 0.03403 0.0
H2330 H 0.44917 0.92671 0.02005 0.0
C2331 C 0.49101 0.02157 0.03489 0.0
C2332 C 0.50626 0.99591 0.02965 0.0
H2333 H 0.44958 0.03362 0.03765 0.0
H2334 H 0.5023 0.04815 0.04018 0.0
C2335 C 0.49095 0.96178 0.0252 0.0
C2336 C 0.88443 0.62267 0.75397 0.0
C2337 C 0.91384 0.62634 0.74866 0.0
H2338 H 0.84342 0.63305 0.74013 0.0
C2339 C 0.92445 0.64456 0.72471 0.0
H2340 H 0.87545 0.60843 0.77192 0.0
C2341 C 0.90613 0.65885 0.70655 0.0
C2342 C 0.8767 0.6554 0.71189 0.0
H2343 H 0.947 0.64791 0.71996 0.0
H2344 H 0.91532 0.67323 0.68882 0.0
C2345 C 0.86606 0.63689 0.73572 0.0
C2346 C 0.90745 0.66036 0.05813 0.0
C2347 C 0.87842 0.64822 0.04207 0.0
H2348 H 0.94591 0.64802 0.07799 0.0
C2349 C 0.86622 0.61278 0.03279 0.0
H2350 H 0.91754 0.68748 0.0657 0.0
C2351 C 0.88253 0.59009 0.04005 0.0
C2352 C 0.91147 0.60234 0.05643 0.0
H2353 H 0.8439 0.60258 0.02048 0.0
H2354 H 0.87253 0.56294 0.03269 0.0
C2355 C 0.92378 0.63772 0.06511 0.0
C2356 C 0.28361 0.14574 0.79586 0.0
C2357 C 0.25421 0.1346 0.77998 0.0
H2358 H 0.32327 0.18665 0.80984 0.0
C2359 C 0.2435 0.15856 0.76542 0.0
H2360 H 0.29309 0.12871 0.80761 0.0
C2361 C 0.26079 0.19148 0.76638 0.0
C2362 C 0.29009 0.20295 0.78206 0.0
H2363 H 0.22126 0.15192 0.7528 0.0
H2364 H 0.25079 0.20805 0.75453 0.0
C2365 C 0.30111 0.17928 0.79702 0.0
C2366 C 0.43113 0.92332 0.2823 0.0
C2367 C 0.41247 0.94533 0.28278 0.0
H2368 H 0.43435 0.87177 0.27727 0.0
C2369 C 0.38206 0.93176 0.27662 0.0
H2370 H 0.45466 0.93328 0.28693 0.0
C2371 C 0.37048 0.89652 0.27032 0.0
C2372 C 0.38919 0.87474 0.2717 0.0
H2373 H 0.36733 0.94837 0.2765 0.0
H2374 H 0.34701 0.88638 0.26492 0.0
C2375 C 0.41956 0.88829 0.27695 0.0
C2376 C 0.61686 0.44535 0.59741 0.0
C2377 C 0.61888 0.42012 0.56911 0.0
H2378 H 0.61036 0.49539 0.61638 0.0
C2379 C 0.61548 0.42819 0.53688 0.0
H2380 H 0.61919 0.44067 0.62263 0.0
C2381 C 0.61052 0.46007 0.53322 0.0
C2382 C 0.60812 0.485 0.5616 0.0
H2383 H 0.61686 0.40985 0.5142 0.0
H2384 H 0.60874 0.46522 0.50816 0.0
C2385 C 0.61164 0.47695 0.59371 0.0
C2386 C 0.44589 0.79093 0.37769 0.0
C2387 C 0.45802 0.76328 0.36552 0.0
H2388 H 0.41338 0.81824 0.36899 0.0
C2389 C 0.44416 0.74041 0.33473 0.0
H2390 H 0.45586 0.80921 0.40115 0.0
C2391 C 0.41948 0.74529 0.31645 0.0
C2392 C 0.40808 0.77373 0.32772 0.0
H2393 H 0.45253 0.71863 0.32448 0.0
H2394 H 0.4095 0.72675 0.2932 0.0
C2395 C 0.42146 0.79617 0.35903 0.0
C2396 C 0.11285 0.70334 0.09748 0.0
C2397 C 0.10996 0.71636 0.06829 0.0
H2398 H 0.10875 0.6591 0.11857 0.0
C2399 C 0.10098 0.69232 0.03675 0.0
H2400 H 0.1197 0.72059 0.12223 0.0
C2401 C 0.09458 0.65672 0.03467 0.0
C2402 C 0.09752 0.64388 0.06397 0.0
H2403 H 0.09838 0.70098 0.01355 0.0
H2404 H 0.08677 0.6393 1.01017 0.0
C2405 C 0.10667 0.66787 0.09534 0.0
C2406 C 0.10949 0.29898 0.85722 0.0
C2407 C 0.11244 0.27572 0.87732 0.0
H2408 H 0.12654 0.32479 0.81982 0.0
C2409 C 0.13583 0.25995 0.87389 0.0
H2410 H 0.09196 0.3119 0.85939 0.0
C2411 C 0.15555 0.26697 0.85073 0.0
C2412 C 0.1526 0.2902 0.8305 0.0
H2413 H 0.13879 0.24184 0.88889 0.0
H2414 H 0.17279 0.25364 0.8483 0.0
C2415 C 0.12934 0.30625 0.83432 0.0
C2416 C 0.61833 0.77687 0.97691 0.0
C2417 C 0.64484 0.80196 0.98381 0.0
H2418 H 0.58835 0.73993 0.99518 0.0
C2419 C 0.66095 0.81036 0.01634 0.0
H2420 H 0.60508 0.77033 0.95236 0.0
C2421 C 0.65141 0.79268 0.04094 0.0
C2422 C 0.62552 0.76652 0.0334 0.0
H2423 H 0.68135 0.82986 0.02246 0.0
H2424 H 0.6649 0.79843 0.06524 0.0
C2425 C 0.60869 0.75955 1.00149 0.0
C2426 C 0.11486 0.78949 0.76682 0.0
C2427 C 0.10907 0.77167 0.73266 0.0
H2428 H 0.14394 0.8031 0.81332 0.0
C2429 C 0.12895 0.75372 0.71904 0.0
H2430 H 0.09992 0.80365 0.7779 0.0
C2431 C 0.15365 0.75264 0.73939 0.0
C2432 C 0.15943 0.77005 0.77376 0.0
H2433 H 0.12491 0.73938 0.69288 0.0
H2434 H 0.16768 0.73719 0.7283 0.0
C2435 C 0.13994 0.78891 0.78713 0.0
C2436 C 0.13764 0.43714 0.45156 0.0
C2437 C 0.1156 0.41128 0.42997 0.0
H2438 H 0.14781 0.48465 0.4885 0.0
C2439 C 0.08643 0.41349 0.42895 0.0
H2440 H 0.16025 0.43567 0.45292 0.0
C2441 C 0.07941 0.44161 0.44861 0.0
C2442 C 0.10136 0.46757 0.47018 0.0
H2443 H 0.06908 0.39378 0.41244 0.0
H2444 H 0.05676 0.44292 0.44696 0.0
C2445 C 0.1305 0.46495 0.47195 0.0
C2446 C 0.43346 0.2615 0.26863 0.0
C2447 C 0.44241 0.25685 0.23617 0.0
H2448 H 0.39822 0.26664 0.29775 0.0
C2449 C 0.42154 0.25147 0.20768 0.0
H2450 H 0.44886 0.26502 0.29103 0.0
C2451 C 0.39275 0.25253 0.21165 0.0
C2452 C 0.38451 0.26006 0.24419 0.0
H2453 H 0.42752 0.24707 0.18224 0.0
H2454 H 0.37731 0.24929 0.18933 0.0
C2455 C 0.40461 0.26287 0.27256 0.0
C2456 C 0.63875 0.51652 0.3812 0.0
C2457 C 0.66505 0.54141 0.38137 0.0
H2458 H 0.60276 0.49784 0.40819 0.0
C2459 C 0.67351 0.56743 0.41182 0.0
H2460 H 0.63086 0.49572 0.35905 0.0
C2461 C 0.65733 0.56875 0.43999 0.0
C2462 C 0.63128 0.54406 0.44031 0.0
H2463 H 0.69323 0.58748 0.41425 0.0
H2464 H 0.66566 0.58964 0.46198 0.0
C2465 C 0.6224 0.51778 0.40989 0.0
C2466 C 0.36032 0.88441 0.06977 0.0
C2467 C 0.33623 0.87994 0.04534 0.0
H2468 H 0.38458 0.86112 0.10027 0.0
C2469 C 0.31859 0.84685 0.03142 0.0
H2470 H 0.37488 0.90937 0.08029 0.0
C2471 C 0.32415 0.81899 0.04311 0.0
C2472 C 0.34759 0.82391 0.06858 0.0
H2473 H 0.30021 0.8426 0.01203 0.0
H2474 H 0.30946 0.79399 0.03332 0.0
C2475 C 0.36609 0.8567 0.08097 0.0
C2476 C 1.00971 0.58512 0.91084 0.0
C2477 C 0.98088 0.56478 0.90702 0.0
H2478 H 0.05354 0.59752 0.93672 0.0
C2479 C 0.9743 0.54154 0.92769 0.0
H2480 H 1.0156 0.60315 0.89511 0.0
C2481 C 0.99598 0.53803 0.95096 0.0
C2482 C 0.02493 0.55784 0.95454 0.0
H2483 H 0.95247 0.52527 0.92532 0.0
H2484 H 0.98988 0.51931 0.9659 0.0
C2485 C 0.03156 0.58165 0.93438 0.0
C2486 C 0.32648 0.28977 0.63505 0.0
C2487 C 0.32085 0.2563 0.61478 0.0
H2488 H 0.33622 0.32187 0.68574 0.0
C2489 C 0.31931 0.22922 0.63114 0.0
H2490 H 0.32788 0.31128 0.62338 0.0
C2491 C 0.32381 0.23531 0.6665 0.0
C2492 C 0.32962 0.26857 0.68675 0.0
H2493 H 0.31502 0.20312 0.61661 0.0
H2494 H 0.32298 0.21382 0.67815 0.0
C2495 C 0.33105 0.29588 0.67074 0.0
C2496 C 0.66579 0.52477 0.15008 0.0
C2497 C 0.64974 0.52878 0.17798 0.0
H2498 H 0.66827 0.52399 0.09688 0.0
C2499 C 0.6218 0.53528 0.17021 0.0
H2500 H 0.68724 0.51998 0.1538 0.0
C2501 C 0.61061 0.53746 0.13702 0.0
C2502 C 0.62695 0.53421 0.10936 0.0
H2503 H 0.60809 0.53864 0.19011 0.0
H2504 H 0.58894 0.54158 0.13311 0.0
C2505 C 0.65472 0.52739 0.11696 0.0
C2506 C 0.37441 0.94107 0.89414 0.0
C2507 C 0.36517 0.93345 0.92414 0.0
H2508 H 0.38209 0.92147 0.84382 0.0
C2509 C 0.35887 0.89943 0.92729 0.0
H2510 H 0.38031 0.96724 0.89158 0.0
C2511 C 0.36027 0.87328 0.9002 0.0
C2512 C 0.36692 0.88044 0.86905 0.0
H2513 H 0.35301 0.89299 0.9508 0.0
H2514 H 0.35551 0.8474 0.90345 0.0
C2515 C 0.3754 0.91477 0.86683 0.0
C2516 C 0.02897 0.54208 0.75475 0.0
C2517 C 0.03298 0.57243 0.7796 0.0
H2518 H 0.04707 0.51377 0.71538 0.0
C2519 C 0.06049 0.5959 0.78692 0.0
H2520 H 1.00825 0.52311 0.74918 0.0
C2521 C 0.0828 0.59044 0.7675 0.0
C2522 C 0.0778 0.56136 0.74084 0.0
H2523 H 0.06425 0.61928 0.80633 0.0
H2524 H 0.10311 0.61 0.77172 0.0
C2525 C 0.05124 0.53654 0.73567 0.0
C2526 C 0.30842 0.24701 0.41218 0.0
C2527 C 0.33201 0.23402 0.42204 0.0
H2528 H 0.28937 0.26989 0.37588 0.0
C2529 C 0.35536 0.23557 0.40251 0.0
H2530 H 0.28998 0.24601 0.42643 0.0
C2531 C 0.35514 0.24955 0.37389 0.0
C2532 C 0.33131 0.26179 0.36361 0.0
H2533 H 0.37388 0.22582 0.40925 0.0
H2534 H 0.37341 0.25013 0.35938 0.0
C2535 C 0.30798 0.26049 0.38311 0.0
C2536 C 0.35298 0.53018 0.50574 0.0
C2537 C 0.35445 0.55779 0.49013 0.0
H2538 H 0.3724 0.48994 0.5143 0.0
C2539 C 0.37584 0.56413 0.46858 0.0
H2540 H 0.33657 0.52448 0.52224 0.0
C2541 C 0.39639 0.54462 0.46434 0.0
C2542 C 0.39569 0.518 0.48109 0.0
H2543 H 0.37751 0.5851 0.45606 0.0
H2544 H 0.41338 0.55093 0.44869 0.0
C2545 C 0.3733 0.51027 0.50103 0.0
C2546 C 0.96837 1.01049 0.59315 0.0
C2547 C 0.9521 0.98 0.57088 0.0
H2548 H 1.00809 0.0503 0.60443 0.0
C2549 C 0.96416 0.96636 0.54229 0.0
H2550 H 0.95974 0.02164 0.61548 0.0
C2551 C 0.99147 0.98289 0.53577 0.0
C2552 C 1.00777 1.01351 0.55775 0.0
H2553 H 0.95232 0.94299 0.52451 0.0
H2554 H 0.99965 0.97153 0.51321 0.0
C2555 C 0.99602 0.027 0.58675 0.0
C2556 C 0.90881 0.2059 0.3209 0.0
C2557 C 0.91475 0.18069 0.29407 0.0
H2558 H 0.89126 0.25019 0.33732 0.0
C2559 C 0.9046 0.18351 0.26117 0.0
H2560 H 0.9158 0.20595 0.34693 0.0
C2561 C 0.88988 0.20946 0.25576 0.0
C2562 C 0.88378 0.23436 0.28263 0.0
H2563 H 0.90815 0.1657 0.23926 0.0
H2564 H 0.88322 0.21009 0.22981 0.0
C2565 C 0.89418 0.23183 0.31547 0.0
C2566 C 0.68836 0.14242 0.03179 0.0
C2567 C 0.70535 0.11833 0.02826 0.0
H2568 H 0.64512 0.15064 0.02858 0.0
C2569 C 0.6914 0.0835 0.01787 0.0
H2570 H 0.69857 0.16951 0.03921 0.0
C2571 C 0.66098 0.07292 0.0121 0.0
C2572 C 0.64402 0.0969 0.01697 0.0
H2573 H 0.70394 0.06441 0.01442 0.0
H2574 H 0.65095 0.04602 1.00329 0.0
C2575 C 0.65788 0.13176 0.02568 0.0
C2576 C 0.29377 0.48432 0.28986 0.0
C2577 C 0.2644 0.48059 0.29548 0.0
H2578 H 0.33565 0.47691 0.30578 0.0
C2579 C 0.25458 0.465 0.32152 0.0
H2580 H 0.30202 0.49626 0.27002 0.0
C2581 C 0.27389 0.45428 0.34213 0.0
C2582 C 0.30336 0.45862 0.33697 0.0
H2583 H 0.23208 0.4616 0.32648 0.0
H2584 H 0.26567 0.44234 0.362 0.0
C2585 C 0.31304 0.47331 0.31035 0.0
C2586 C 0.25652 0.44005 1.00559 0.0
C2587 C 0.28596 0.45274 0.02021 0.0
H2588 H 0.21698 0.45145 0.98742 0.0
C2589 C 0.29774 0.48826 0.02869 0.0
H2590 H 0.24667 0.41286 0.9987 0.0
C2591 C 0.28064 0.51046 0.0221 0.0
C2592 C 0.25127 0.4977 1.00713 0.0
H2593 H 0.32031 0.49894 0.03997 0.0
H2594 H 0.2904 0.53766 0.02888 0.0
C2595 C 0.2394 0.46222 0.99925 0.0
C2596 C 0.88873 0.96211 0.26853 0.0
C2597 C 0.91819 0.97341 0.28408 0.0
H2598 H 0.84926 0.92104 0.25492 0.0
C2599 C 0.92917 0.94974 0.29886 0.0
H2600 H 0.87911 0.97891 0.25658 0.0
C2601 C 0.91205 0.9168 0.29822 0.0
C2602 C 0.88276 0.90513 0.28261 0.0
H2603 H 0.95149 0.95663 0.31127 0.0
H2604 H 0.92215 0.90032 0.31013 0.0
C2605 C 0.87145 0.92861 0.26766 0.0
C2606 C 0.79108 0.17608 0.77509 0.0
C2607 C 0.76246 0.16364 0.75791 0.0
H2608 H 0.82682 0.22024 0.79453 0.0
C2609 C 0.74692 0.18658 0.74943 0.0
H2610 H 0.80339 0.15878 0.78199 0.0
C2611 C 0.76008 0.22136 0.75697 0.0
C2612 C 0.78929 0.23349 0.77191 0.0
H2613 H 0.72467 0.17761 0.73665 0.0
H2614 H 0.74781 0.2387 0.75003 0.0
C2615 C 0.80453 0.21095 0.7819 0.0
loop_
_geom_bond_atom_site_label_1
_geom_bond_atom_site_label_2
_geom_bond_distance
_geom_bond_site_symmetry_2
_ccdc_geom_bond_type
C0 O1 1.160 . S
C0 O7 1.185 . S
O1 C0 1.160 . S
O2 Zn3 1.899 . S
O2 C10 1.284 . S
Zn3 O2 1.899 . S
Zn3 O4 2.032 . S
Zn3 O7 2.086 . S
Zn3 O12 1.977 . S
O4 Zn3 2.032 . S
O4 C8 1.278 . S
C5 O6 1.203 . S
C5 O12 1.267 . S
O6 C5 1.203 . S
O7 C0 1.185 . S
O7 Zn3 2.086 . S
C8 O4 1.278 . S
C8 O9 1.211 . S
O9 C8 1.211 . S
C10 O2 1.284 . S
C10 O11 1.273 . S
O11 C10 1.273 . S
O12 Zn3 1.977 . S
O12 C5 1.267 . S
C13 O14 1.160 . S
C13 O20 1.185 . S
O14 C13 1.160 . S
O15 Zn16 1.899 . S
O15 C23 1.284 . S
Zn16 O15 1.899 . S
Zn16 O17 2.032 . S
Zn16 O20 2.086 . S
Zn16 O25 1.977 1_655 S
O17 Zn16 2.032 . S
O17 C21 1.278 1_655 S
C18 O19 1.203 . S
C18 O25 1.267 . S
O19 C18 1.203 . S
O20 C13 1.185 . S
O20 Zn16 2.086 . S
C21 O17 1.278 1_455 S
C21 O22 1.211 . S
O22 C21 1.211 . S
C23 O15 1.284 . S
C23 O24 1.273 1_655 S
O24 C23 1.273 1_455 S
O25 Zn16 1.977 1_455 S
O25 C18 1.267 . S
C26 O27 1.160 . S
C26 O33 1.185 . S
O27 C26 1.160 . S
O28 Zn29 1.899 . S
O28 C36 1.284 . S
Zn29 O28 1.899 . S
Zn29 O30 2.032 . S
Zn29 O33 2.086 . S
Zn29 O38 1.977 . S
O30 Zn29 2.032 . S
O30 C34 1.278 . S
C31 O32 1.203 . S
C31 O38 1.267 . S
O32 C31 1.203 . S
O33 C26 1.185 . S
O33 Zn29 2.086 . S
C34 O30 1.278 . S
C34 O35 1.211 . S
O35 C34 1.211 . S
C36 O28 1.284 . S
C36 O37 1.273 . S
O37 C36 1.273 . S
O38 Zn29 1.977 . S
O38 C31 1.267 . S
C39 O40 1.160 . S
C39 O46 1.185 . S
O40 C39 1.160 . S
O41 Zn42 1.899 . S
O41 C49 1.284 . S
Zn42 O41 1.899 . S
Zn42 O43 2.032 . S
Zn42 O46 2.086 . S
Zn42 O51 1.977 . S
O43 Zn42 2.032 . S
O43 C47 1.278 . S
C44 O45 1.203 . S
C44 O51 1.267 . S
O45 C44 1.203 . S
O46 C39 1.185 . S
O46 Zn42 2.086 . S
C47 O43 1.278 . S
C47 O48 1.211 . S
O48 C47 1.211 . S
C49 O41 1.284 . S
C49 O50 1.273 . S
O50 C49 1.273 . S
O51 Zn42 1.977 . S
O51 C44 1.267 . S
C52 O53 1.160 . S
C52 O59 1.185 . S
O53 C52 1.160 . S
O54 Zn55 1.899 . S
O54 C62 1.284 . S
Zn55 O54 1.899 . S
Zn55 O56 2.032 . S
Zn55 O59 2.086 . S
Zn55 O64 1.977 . S
O56 Zn55 2.032 . S
O56 C60 1.278 . S
C57 O58 1.203 . S
C57 O64 1.267 . S
O58 C57 1.203 . S
O59 C52 1.185 . S
O59 Zn55 2.086 . S
C60 O56 1.278 . S
C60 O61 1.211 . S
O61 C60 1.211 . S
C62 O54 1.284 . S
C62 O63 1.273 . S
O63 C62 1.273 . S
O64 Zn55 1.977 . S
O64 C57 1.267 . S
C65 O66 1.160 . S
C65 O72 1.185 . S
O66 C65 1.160 . S
O67 Zn68 1.899 . S
O67 C75 1.284 . S
Zn68 O67 1.899 . S
Zn68 O69 2.032 . S
Zn68 O72 2.086 . S
Zn68 O77 1.977 . S
O69 Zn68 2.032 . S
O69 C73 1.278 . S
C70 O71 1.203 . S
C70 O77 1.267 . S
O71 C70 1.203 . S
O72 C65 1.185 . S
O72 Zn68 2.086 . S
C73 O69 1.278 . S
C73 O74 1.211 . S
O74 C73 1.211 . S
C75 O67 1.284 . S
C75 O76 1.273 . S
O76 C75 1.273 . S
O77 Zn68 1.977 . S
O77 C70 1.267 . S
C78 O79 1.160 . S
C78 O85 1.185 . S
O79 C78 1.160 . S
O80 Zn81 1.899 . S
O80 C88 1.284 . S
Zn81 O80 1.899 . S
Zn81 O82 2.032 . S
Zn81 O85 2.086 . S
Zn81 O90 1.977 . S
O82 Zn81 2.032 . S
O82 C86 1.278 . S
C83 O84 1.203 . S
C83 O90 1.267 . S
O84 C83 1.203 . S
O85 C78 1.185 . S
O85 Zn81 2.086 . S
C86 O82 1.278 . S
C86 O87 1.211 . S
O87 C86 1.211 . S
C88 O80 1.284 . S
C88 O89 1.273 . S
O89 C88 1.273 . S
O90 Zn81 1.977 . S
O90 C83 1.267 . S
C91 O92 1.160 . S
C91 O98 1.185 . S
O92 C91 1.160 . S
O93 Zn94 1.899 . S
O93 C101 1.284 . S
Zn94 O93 1.899 . S
Zn94 O95 2.032 . S
Zn94 O98 2.086 . S
Zn94 O103 1.977 1_455 S
O95 Zn94 2.032 . S
O95 C99 1.278 . S
C96 O97 1.203 . S
C96 O103 1.267 . S
O97 C96 1.203 . S
O98 C91 1.185 . S
O98 Zn94 2.086 . S
C99 O95 1.278 . S
C99 O100 1.211 . S
O100 C99 1.211 . S
C101 O93 1.284 . S
C101 O102 1.271 1_556 S
O102 C101 1.271 1_554 S
O103 Zn94 1.977 1_655 S
O103 C96 1.267 . S
C104 O105 1.160 . S
C104 O111 1.185 . S
O105 C104 1.160 . S
O106 Zn107 1.899 . S
O106 C114 1.284 1_545 S
Zn107 O106 1.899 . S
Zn107 O108 2.032 . S
Zn107 O111 2.086 . S
Zn107 O116 1.977 1_545 S
O108 Zn107 2.032 . S
O108 C112 1.278 . S
C109 O110 1.203 . S
C109 O116 1.267 . S
O110 C109 1.203 . S
O111 C104 1.185 . S
O111 Zn107 2.086 . S
C112 O108 1.278 . S
C112 O113 1.211 1_545 S
O113 C112 1.211 1_565 S
C114 O106 1.284 1_565 S
C114 O115 1.273 . S
O115 C114 1.273 . S
O116 Zn107 1.977 1_565 S
O116 C109 1.267 . S
C117 O118 1.160 . S
C117 O124 1.185 . S
O118 C117 1.160 . S
O119 Zn120 1.899 . S
O119 C127 1.284 . S
Zn120 O119 1.899 . S
Zn120 O121 2.032 . S
Zn120 O124 2.086 . S
Zn120 O129 1.977 . S
O121 Zn120 2.032 . S
O121 C125 1.278 . S
C122 O123 1.203 . S
C122 O129 1.267 . S
O123 C122 1.203 . S
O124 C117 1.185 . S
O124 Zn120 2.086 . S
C125 O121 1.278 . S
C125 O126 1.211 . S
O126 C125 1.211 . S
C127 O119 1.284 . S
C127 O128 1.273 . S
O128 C127 1.273 . S
O129 Zn120 1.977 . S
O129 C122 1.267 . S
C130 O131 1.160 . S
C130 O137 1.185 . S
O131 C130 1.160 . S
O132 Zn133 1.899 . S
O132 C140 1.284 . S
Zn133 O132 1.899 . S
Zn133 O134 2.032 . S
Zn133 O137 2.086 . S
Zn133 O142 1.977 1_565 S
O134 Zn133 2.032 . S
O134 C138 1.278 1_565 S
C135 O136 1.203 . S
C135 O142 1.267 . S
O136 C135 1.203 . S
O137 C130 1.185 . S
O137 Zn133 2.086 . S
C138 O134 1.278 1_545 S
C138 O139 1.211 . S
O139 C138 1.211 . S
C140 O132 1.284 . S
C140 O141 1.273 1_565 S
O141 C140 1.273 1_545 S
O142 Zn133 1.977 1_545 S
O142 C135 1.267 . S
C143 O144 1.160 . S
C143 O150 1.185 . S
O144 C143 1.160 . S
O145 Zn146 1.899 . S
O145 C153 1.284 . S
Zn146 O145 1.899 . S
Zn146 O147 2.032 1_554 S
Zn146 O150 2.086 . S
Zn146 O155 1.977 . S
O147 Zn146 2.032 1_556 S
O147 C151 1.278 . S
C148 O149 1.203 . S
C148 O155 1.267 . S
O149 C148 1.203 . S
O150 C143 1.185 . S
O150 Zn146 2.086 . S
C151 O147 1.278 . S
C151 O152 1.211 . S
O152 C151 1.211 . S
C153 O145 1.284 . S
C153 O154 1.273 . S
O154 C153 1.273 . S
O155 Zn146 1.977 . S
O155 C148 1.267 . S
C156 O157 1.160 . S
C156 O163 1.185 . S
O157 C156 1.160 . S
O158 Zn159 1.899 . S
O158 C166 1.284 . S
Zn159 O158 1.899 . S
Zn159 O160 2.058 . S
Zn159 O163 2.086 . S
Zn159 O168 1.977 . S
O160 Zn159 2.058 . S
O160 C164 1.259 1_554 S
C161 O162 1.203 . S
C161 O168 1.267 . S
O162 C161 1.203 . S
O163 C156 1.185 . S
O163 Zn159 2.086 . S
C164 O160 1.259 1_556 S
C164 O165 1.211 . S
O165 C164 1.211 . S
C166 O158 1.284 . S
C166 O167 1.273 . S
O167 C166 1.273 . S
O168 Zn159 1.977 . S
O168 C161 1.267 . S
C169 O170 1.160 . S
C169 O176 1.185 . S
O170 C169 1.160 . S
O171 Zn172 1.899 . S
O171 C179 1.284 . S
Zn172 O171 1.899 . S
Zn172 O173 2.032 . S
Zn172 O176 2.086 . S
Zn172 O181 1.977 . S
O173 Zn172 2.032 . S
O173 C177 1.278 1_554 S
C174 O175 1.203 . S
C174 O181 1.267 . S
O175 C174 1.203 . S
O176 C169 1.185 . S
O176 Zn172 2.086 . S
C177 O173 1.278 1_556 S
C177 O178 1.211 . S
O178 C177 1.211 . S
C179 O171 1.284 . S
C179 O180 1.273 . S
O180 C179 1.273 . S
O181 Zn172 1.977 . S
O181 C174 1.267 . S
C182 O183 1.160 . S
C182 O189 1.185 . S
O183 C182 1.160 . S
O184 Zn185 1.899 . S
O184 C192 1.284 . S
Zn185 O184 1.899 . S
Zn185 O186 2.032 . S
Zn185 O189 2.086 . S
Zn185 O194 1.977 . S
O186 Zn185 2.032 . S
O186 C190 1.278 . S
C187 O188 1.203 . S
C187 O194 1.267 . S
O188 C187 1.203 . S
O189 C182 1.185 . S
O189 Zn185 2.086 . S
C190 O186 1.278 . S
C190 O191 1.211 . S
O191 C190 1.211 . S
C192 O184 1.284 . S
C192 O193 1.273 . S
O193 C192 1.273 . S
O194 Zn185 1.977 . S
O194 C187 1.267 . S
C195 O196 1.160 . S
C195 O202 1.185 . S
O196 C195 1.160 . S
O197 Zn198 1.899 . S
O197 C205 1.284 . S
Zn198 O197 1.899 . S
Zn198 O199 2.032 . S
Zn198 O202 2.086 . S
Zn198 O207 1.977 . S
O199 Zn198 2.032 . S
O199 C203 1.278 . S
C200 O201 1.203 . S
C200 O207 1.267 . S
O201 C200 1.203 . S
O202 C195 1.185 . S
O202 Zn198 2.086 . S
C203 O199 1.278 . S
C203 O204 1.211 . S
O204 C203 1.211 . S
C205 O197 1.284 . S
C205 O206 1.273 . S
O206 C205 1.273 . S
O207 Zn198 1.977 . S
O207 C200 1.267 . S
C208 O209 1.160 . S
C208 O215 1.185 . S
O209 C208 1.160 . S
O210 Zn211 1.899 . S
O210 C218 1.284 . S
Zn211 O210 1.899 . S
Zn211 O212 2.032 . S
Zn211 O215 2.086 . S
Zn211 O220 1.977 . S
O212 Zn211 2.032 . S
O212 C216 1.278 . S
C213 O214 1.203 . S
C213 O220 1.265 1_565 S
O214 C213 1.203 . S
O215 C208 1.185 . S
O215 Zn211 2.086 . S
C216 O212 1.278 . S
C216 O217 1.211 . S
O217 C216 1.211 . S
C218 O210 1.284 . S
C218 O219 1.273 1_655 S
O219 C218 1.273 1_455 S
O220 Zn211 1.977 . S
O220 C213 1.265 1_545 S
C221 O222 1.160 . S
C221 O228 1.185 . S
O222 C221 1.160 . S
O223 Zn224 1.899 . S
O223 C231 1.284 . S
Zn224 O223 1.899 . S
Zn224 O225 2.032 . S
Zn224 O228 2.086 . S
Zn224 O233 1.977 . S
O225 Zn224 2.032 . S
O225 C229 1.278 . S
C226 O227 1.203 . S
C226 O233 1.267 . S
O227 C226 1.203 . S
O228 C221 1.185 . S
O228 Zn224 2.086 . S
C229 O225 1.278 . S
C229 O230 1.211 . S
O230 C229 1.211 . S
C231 O223 1.284 . S
C231 O232 1.273 . S
O232 C231 1.273 . S
O233 Zn224 1.977 . S
O233 C226 1.267 . S
C234 O235 1.160 . S
C234 O241 1.185 . S
O235 C234 1.160 . S
O236 Zn237 1.899 . S
O236 C244 1.284 . S
Zn237 O236 1.899 . S
Zn237 O238 2.032 . S
Zn237 O241 2.086 . S
Zn237 O246 1.977 . S
O238 Zn237 2.032 . S
O238 C242 1.278 . S
C239 O240 1.203 . S
C239 O246 1.267 . S
O240 C239 1.203 . S
O241 C234 1.185 . S
O241 Zn237 2.086 . S
C242 O238 1.278 . S
C242 O243 1.211 . S
O243 C242 1.211 . S
C244 O236 1.284 . S
C244 O245 1.273 . S
O245 C244 1.273 . S
O246 Zn237 1.977 . S
O246 C239 1.267 . S
C247 O248 1.160 1_545 S
C247 O254 1.185 . S
O248 C247 1.160 1_565 S
O249 Zn250 1.899 . S
O249 C257 1.284 . S
Zn250 O249 1.899 . S
Zn250 O251 2.032 . S
Zn250 O254 2.086 . S
Zn250 O259 1.977 . S
O251 Zn250 2.032 . S
O251 C255 1.278 . S
C252 O253 1.203 . S
C252 O259 1.267 . S
O253 C252 1.203 . S
O254 C247 1.185 . S
O254 Zn250 2.086 . S
C255 O251 1.278 . S
C255 O256 1.211 . S
O256 C255 1.211 . S
C257 O249 1.284 . S
C257 O258 1.273 . S
O258 C257 1.273 . S
O259 Zn250 1.977 . S
O259 C252 1.267 . S
C260 O261 1.160 . S
C260 O267 1.185 1_554 S
O261 C260 1.160 . S
O262 Zn263 1.899 . S
O262 C270 1.284 . S
Zn263 O262 1.899 . S
Zn263 O264 2.032 1_554 S
Zn263 O267 2.086 1_554 S
Zn263 O272 1.977 1_554 S
O264 Zn263 2.032 1_556 S
O264 C268 1.278 . S
C265 O266 1.203 1_556 S
C265 O272 1.267 . S
O266 C265 1.203 1_554 S
O267 C260 1.185 1_556 S
O267 Zn263 2.086 1_556 S
C268 O264 1.278 . S
C268 O269 1.211 . S
O269 C268 1.211 . S
C270 O262 1.284 . S
C270 O271 1.273 . S
O271 C270 1.273 . S
O272 Zn263 1.977 1_556 S
O272 C265 1.267 . S
C273 O274 1.160 . S
C273 O280 1.185 . S
O274 C273 1.160 . S
O275 Zn276 1.899 . S
O275 C283 1.284 . S
Zn276 O275 1.899 . S
Zn276 O277 2.032 . S
Zn276 O280 2.086 . S
Zn276 O285 1.977 . S
O277 Zn276 2.032 . S
O277 C281 1.278 . S
C278 O279 1.203 . S
C278 O285 1.267 . S
O279 C278 1.203 . S
O280 C273 1.185 . S
O280 Zn276 2.086 . S
C281 O277 1.278 . S
C281 O282 1.211 . S
O282 C281 1.211 . S
C283 O275 1.284 . S
C283 O284 1.273 . S
O284 C283 1.273 . S
O285 Zn276 1.977 . S
O285 C278 1.267 . S
C286 O287 1.160 . S
C286 O293 1.185 . S
O287 C286 1.160 . S
O288 Zn289 1.899 . S
O288 C296 1.284 . S
Zn289 O288 1.899 . S
Zn289 O290 2.032 . S
Zn289 O293 2.086 . S
Zn289 O298 1.977 . S
O290 Zn289 2.032 . S
O290 C294 1.278 . S
C291 O292 1.203 . S
C291 O298 1.267 . S
O292 C291 1.203 . S
O293 C286 1.185 . S
O293 Zn289 2.086 . S
C294 O290 1.278 . S
C294 O295 1.211 . S
O295 C294 1.211 . S
C296 O288 1.284 . S
C296 O297 1.273 . S
O297 C296 1.273 . S
O298 Zn289 1.977 . S
O298 C291 1.267 . S
C299 O300 1.160 . S
C299 O306 1.185 . S
O300 C299 1.160 . S
O301 Zn302 1.899 . S
O301 C309 1.284 . S
Zn302 O301 1.899 . S
Zn302 O303 2.032 . S
Zn302 O306 2.086 . S
Zn302 O311 1.977 . S
O303 Zn302 2.032 . S
O303 C307 1.278 . S
C304 O305 1.203 . S
C304 O311 1.267 . S
O305 C304 1.203 . S
O306 C299 1.185 . S
O306 Zn302 2.086 . S
C307 O303 1.278 . S
C307 O308 1.211 . S
O308 C307 1.211 . S
C309 O301 1.284 . S
C309 O310 1.273 . S
O310 C309 1.273 . S
O311 Zn302 1.977 . S
O311 C304 1.267 . S
Tb312 N343 2.660 1_546 S
Tb312 N350 2.600 1_545 S
Tb312 O356 2.546 1_455 S
Tb312 O357 2.610 1_556 S
Tb312 O359 2.320 1_556 S
Tb312 O360 2.552 . S
Tb312 O361 2.413 1_456 S
Tb312 O363 2.362 1_546 S
Tb312 O364 2.421 . S
Tb312 C376 2.833 1_455 S
C313 C316 1.432 . S
C313 C317 1.414 . S
C313 N320 1.359 . S
C314 C316 1.417 . S
C314 C318 1.432 . S
C314 C326 1.410 1_554 S
C315 C317 1.444 . S
C315 C318 1.317 . S
C315 H338 0.929 . S
C316 C313 1.432 . S
C316 C314 1.417 . S
C316 N324 1.360 . S
C317 C313 1.414 . S
C317 C315 1.444 . S
C317 C322 1.385 . S
C318 C314 1.432 . S
C318 C315 1.317 . S
C318 H330 0.930 . S
C319 C321 1.392 . S
C319 C322 1.370 . S
C319 H331 0.931 . S
N320 C313 1.359 . S
N320 C321 1.327 . S
N320 Tb323 2.600 . S
C321 C319 1.392 . S
C321 N320 1.327 . S
C321 H328 0.930 . S
C322 C317 1.385 . S
C322 C319 1.370 . S
C322 H341 0.930 . S
Tb323 N320 2.600 . S
Tb323 N324 2.660 . S
Tb323 O357 2.362 . S
Tb323 O358 2.421 . S
Tb323 O362 2.546 . S
Tb323 O363 2.610 1_545 S
Tb323 O365 2.320 1_554 S
Tb323 O366 2.552 1_545 S
Tb323 O367 2.413 . S
Tb323 C387 2.833 . S
N324 C316 1.360 . S
N324 Tb323 2.660 . S
N324 C325 1.305 1_554 S
C325 N324 1.305 1_556 S
C325 C327 1.407 . S
C325 H332 0.930 . S
C326 C314 1.410 1_556 S
C326 C327 1.345 . S
C326 H334 0.930 . S
C327 C325 1.407 . S
C327 C326 1.345 . S
C327 H329 0.930 . S
H328 C321 0.930 . S
H329 C327 0.930 . S
H330 C318 0.930 . S
H331 C319 0.931 . S
H332 C325 0.930 . S
H333 C347 0.929 . S
H334 C326 0.930 . S
H335 C353 0.930 . S
H336 C344 0.930 . S
H337 C351 0.931 . S
H338 C315 0.929 . S
H339 C345 0.930 . S
H340 C378 0.930 . S
H341 C322 0.930 . S
H342 C377 0.929 . S
N343 Tb312 2.660 1_564 S
N343 C344 1.305 . S
N343 C348 1.360 1_454 S
C344 H336 0.930 . S
C344 N343 1.305 . S
C344 C347 1.407 1_455 S
C345 H339 0.930 . S
C345 C346 1.410 . S
C345 C347 1.345 . S
C346 C345 1.410 . S
C346 C348 1.417 1_554 S
C346 C378 1.432 1_554 S
C347 H333 0.929 . S
C347 C344 1.407 1_655 S
C347 C345 1.345 . S
C348 N343 1.360 1_656 S
C348 C346 1.417 1_556 S
C348 C352 1.432 . S
H349 C354 0.930 . S
N350 Tb312 2.600 1_565 S
N350 C352 1.359 1_455 S
N350 C353 1.327 . S
C351 H337 0.931 . S
C351 C353 1.392 1_655 S
C351 C354 1.370 . S
C352 C348 1.432 . S
C352 N350 1.359 1_655 S
C352 C355 1.414 . S
C353 H335 0.930 . S
C353 N350 1.327 . S
C353 C351 1.392 1_455 S
C354 H349 0.930 . S
C354 C351 1.370 . S
C354 C355 1.385 . S
C355 C352 1.414 . S
C355 C354 1.385 . S
C355 C377 1.444 . S
O356 Tb312 2.546 1_655 S
O356 C376 1.251 . S
O357 Tb312 2.610 1_554 S
O357 Tb323 2.362 . S
O357 C368 1.283 . S
O358 Tb323 2.421 . S
O358 C375 1.262 . S
O359 Tb312 2.320 1_554 S
O359 C375 1.260 . S
O360 Tb312 2.552 . S
O360 C368 1.243 1_556 S
O361 Tb312 2.413 1_654 S
O361 C376 1.256 1_554 S
O362 Tb323 2.546 . S
O362 C387 1.251 . S
O363 Tb312 2.362 1_564 S
O363 Tb323 2.610 1_565 S
O363 C379 1.283 . S
O364 Tb312 2.421 . S
O364 C386 1.262 . S
O365 Tb323 2.320 1_556 S
O365 C386 1.260 . S
O366 Tb323 2.552 1_565 S
O366 C379 1.243 . S
O367 Tb323 2.413 . S
O367 C387 1.256 . S
C368 O357 1.283 . S
C368 O360 1.243 1_554 S
C369 C371 1.382 . S
C369 C373 1.393 1_545 S
C369 C376 1.500 . S
C370 C371 1.400 . S
C370 C372 1.384 . S
C371 C369 1.382 . S
C371 C370 1.400 . S
C371 H388 0.930 1_556 S
C372 C370 1.384 . S
C372 C374 1.392 . S
C372 H389 0.931 . S
C373 C369 1.393 1_565 S
C373 C374 1.401 1_565 S
C373 H390 0.930 . S
C374 C372 1.392 . S
C374 C373 1.401 1_545 S
C374 H391 0.930 1_545 S
C375 O358 1.262 . S
C375 O359 1.260 . S
C376 Tb312 2.833 1_655 S
C376 O356 1.251 . S
C376 O361 1.256 1_556 S
C376 C369 1.500 . S
C377 H342 0.929 . S
C377 C355 1.444 . S
C377 C378 1.317 . S
C378 H340 0.930 . S
C378 C346 1.432 1_556 S
C378 C377 1.317 . S
C379 O363 1.283 . S
C379 O366 1.243 . S
C380 C381 1.382 . S
C380 C384 1.393 . S
C380 C387 1.500 . S
C381 C380 1.382 . S
C381 C382 1.400 . S
C381 H392 0.930 . S
C382 C381 1.400 . S
C382 C383 1.384 . S
C383 C382 1.384 . S
C383 C385 1.392 . S
C383 H393 0.931 . S
C384 C380 1.393 . S
C384 C385 1.401 . S
C384 H394 0.930 . S
C385 C383 1.392 . S
C385 C384 1.401 . S
C385 H395 0.930 . S
C386 O364 1.262 . S
C386 O365 1.260 . S
C387 Tb323 2.833 . S
C387 O362 1.251 . S
C387 O367 1.256 . S
C387 C380 1.500 . S
H388 C371 0.930 1_554 S
H389 C372 0.931 . S
H390 C373 0.930 . S
H391 C374 0.930 1_565 S
H392 C381 0.930 . S
H393 C383 0.931 . S
H394 C384 0.930 . S
H395 C385 0.930 . S
Tb396 N427 2.660 . S
Tb396 N434 2.600 . S
Tb396 O440 2.546 . S
Tb396 O441 2.610 . S
Tb396 O443 2.320 . S
Tb396 O444 2.552 . S
Tb396 O445 2.413 . S
Tb396 O447 2.362 . S
Tb396 O448 2.421 . S
Tb396 C460 2.833 . S
C397 C400 1.432 . S
C397 C401 1.414 . S
C397 N404 1.359 . S
C398 C400 1.417 . S
C398 C402 1.432 . S
C398 C410 1.410 . S
C399 C401 1.444 . S
C399 C402 1.317 . S
C399 H422 0.929 . S
C400 C397 1.432 . S
C400 C398 1.417 . S
C400 N408 1.360 . S
C401 C397 1.414 . S
C401 C399 1.444 . S
C401 C406 1.385 . S
C402 C398 1.432 . S
C402 C399 1.317 . S
C402 H414 0.930 . S
C403 C405 1.392 . S
C403 C406 1.370 . S
C403 H415 0.931 . S
N404 C397 1.359 . S
N404 C405 1.327 . S
N404 Tb407 2.600 . S
C405 C403 1.392 . S
C405 N404 1.327 . S
C405 H412 0.930 . S
C406 C401 1.385 . S
C406 C403 1.370 . S
C406 H425 0.930 . S
Tb407 N404 2.600 . S
Tb407 N408 2.660 . S
Tb407 O441 2.362 . S
Tb407 O442 2.421 . S
Tb407 O446 2.546 . S
Tb407 O447 2.610 . S
Tb407 O449 2.320 . S
Tb407 O450 2.552 . S
Tb407 O451 2.413 . S
Tb407 C471 2.833 . S
N408 C400 1.360 . S
N408 Tb407 2.660 . S
N408 C409 1.305 . S
C409 N408 1.305 . S
C409 C411 1.407 . S
C409 H416 0.930 . S
C410 C398 1.410 . S
C410 C411 1.345 . S
C410 H418 0.930 . S
C411 C409 1.407 . S
C411 C410 1.345 . S
C411 H413 0.930 . S
H412 C405 0.930 . S
H413 C411 0.930 . S
H414 C402 0.930 . S
H415 C403 0.931 . S
H416 C409 0.930 . S
H417 C431 0.930 . S
H418 C410 0.930 . S
H419 C437 0.930 . S
H420 C428 0.930 . S
H421 C435 0.931 . S
H422 C399 0.929 . S
H423 C429 0.930 . S
H424 C462 0.930 . S
H425 C406 0.930 . S
H426 C461 0.929 . S
N427 Tb396 2.660 . S
N427 C428 1.305 . S
N427 C432 1.360 . S
C428 H420 0.930 . S
C428 N427 1.305 . S
C428 C431 1.407 . S
C429 H423 0.930 . S
C429 C430 1.410 . S
C429 C431 1.345 . S
C430 C429 1.410 . S
C430 C432 1.417 . S
C430 C462 1.432 . S
C431 H417 0.930 . S
C431 C428 1.407 . S
C431 C429 1.345 . S
C432 N427 1.360 . S
C432 C430 1.417 . S
C432 C436 1.432 . S
H433 C438 0.930 . S
N434 Tb396 2.600 . S
N434 C436 1.359 . S
N434 C437 1.327 . S
C435 H421 0.931 . S
C435 C437 1.392 . S
C435 C438 1.370 . S
C436 C432 1.432 . S
C436 N434 1.359 . S
C436 C439 1.414 . S
C437 H419 0.930 . S
C437 N434 1.327 . S
C437 C435 1.392 . S
C438 H433 0.930 . S
C438 C435 1.370 . S
C438 C439 1.385 . S
C439 C436 1.414 . S
C439 C438 1.385 . S
C439 C461 1.444 . S
O440 Tb396 2.546 . S
O440 C460 1.251 . S
O441 Tb396 2.610 . S
O441 Tb407 2.362 . S
O441 C452 1.283 . S
O442 Tb407 2.421 . S
O442 C459 1.262 . S
O443 Tb396 2.320 . S
O443 C459 1.260 . S
O444 Tb396 2.552 . S
O444 C452 1.243 . S
O445 Tb396 2.413 . S
O445 C460 1.256 . S
O446 Tb407 2.546 . S
O446 C471 1.251 . S
O447 Tb396 2.362 . S
O447 Tb407 2.610 . S
O447 C463 1.283 . S
O448 Tb396 2.421 . S
O448 C470 1.262 . S
O449 Tb407 2.320 . S
O449 C470 1.260 . S
O450 Tb407 2.552 . S
O450 C463 1.243 . S
O451 Tb407 2.413 . S
O451 C471 1.256 . S
C452 O441 1.283 . S
C452 O444 1.243 . S
C453 C455 1.382 . S
C453 C457 1.393 . S
C453 C460 1.500 . S
C454 C455 1.400 . S
C454 C456 1.384 . S
C455 C453 1.382 . S
C455 C454 1.400 . S
C455 H472 0.930 . S
C456 C454 1.384 . S
C456 C458 1.392 . S
C456 H473 0.931 . S
C457 C453 1.393 . S
C457 C458 1.401 . S
C457 H474 0.930 . S
C458 C456 1.392 . S
C458 C457 1.401 . S
C458 H475 0.930 . S
C459 O442 1.262 . S
C459 O443 1.260 . S
C460 Tb396 2.833 . S
C460 O440 1.251 . S
C460 O445 1.256 . S
C460 C453 1.500 . S
C461 H426 0.929 . S
C461 C439 1.444 . S
C461 C462 1.317 . S
C462 H424 0.930 . S
C462 C430 1.432 . S
C462 C461 1.317 . S
C463 O447 1.283 . S
C463 O450 1.243 . S
C464 C465 1.382 . S
C464 C468 1.393 . S
C464 C471 1.500 . S
C465 C464 1.382 . S
C465 C466 1.400 . S
C465 H476 0.930 . S
C466 C465 1.400 . S
C466 C467 1.384 . S
C467 C466 1.384 . S
C467 C469 1.392 . S
C467 H477 0.931 . S
C468 C464 1.393 . S
C468 C469 1.401 . S
C468 H478 0.930 . S
C469 C467 1.392 . S
C469 C468 1.401 . S
C469 H479 0.930 . S
C470 O448 1.262 . S
C470 O449 1.260 . S
C471 Tb407 2.833 . S
C471 O446 1.251 . S
C471 O451 1.256 . S
C471 C464 1.500 . S
H472 C455 0.930 . S
H473 C456 0.931 . S
H474 C457 0.930 . S
H475 C458 0.930 . S
H476 C465 0.930 . S
H477 C467 0.931 . S
H478 C468 0.930 . S
H479 C469 0.930 . S
Tb480 N511 2.660 . S
Tb480 N518 2.600 . S
Tb480 O524 2.546 . S
Tb480 O525 2.612 1_545 S
Tb480 O527 2.320 . S
Tb480 O528 2.552 1_545 S
Tb480 O529 2.413 . S
Tb480 O531 2.362 . S
Tb480 O532 2.421 . S
Tb480 C544 2.833 . S
C481 C484 1.432 . S
C481 C485 1.414 . S
C481 N488 1.359 1_565 S
C482 C484 1.417 . S
C482 C486 1.432 . S
C482 C494 1.410 . S
C483 C485 1.444 . S
C483 C486 1.317 . S
C483 H506 0.929 . S
C484 C481 1.432 . S
C484 C482 1.417 . S
C484 N492 1.360 . S
C485 C481 1.414 . S
C485 C483 1.444 . S
C485 C490 1.385 . S
C486 C482 1.432 . S
C486 C483 1.317 . S
C486 H498 0.930 . S
C487 C489 1.385 1_565 S
C487 C490 1.380 . S
C487 H499 0.928 1_565 S
N488 C481 1.359 1_545 S
N488 C489 1.327 . S
N488 Tb491 2.600 . S
C489 C487 1.385 1_545 S
C489 N488 1.327 . S
C489 H496 0.930 . S
C490 C485 1.385 . S
C490 C487 1.380 . S
C490 H509 0.930 . S
Tb491 N488 2.600 . S
Tb491 N492 2.660 1_545 S
Tb491 O525 2.365 1_545 S
Tb491 O526 2.421 . S
Tb491 O530 2.546 . S
Tb491 O531 2.610 . S
Tb491 O533 2.320 . S
Tb491 O534 2.552 . S
Tb491 O535 2.413 . S
Tb491 C555 2.833 . S
N492 C484 1.360 . S
N492 Tb491 2.660 1_565 S
N492 C493 1.305 . S
C493 N492 1.305 . S
C493 C495 1.407 . S
C493 H500 0.930 . S
C494 C482 1.410 . S
C494 C495 1.345 . S
C494 H502 0.930 . S
C495 C493 1.407 . S
C495 C494 1.345 . S
C495 H497 0.930 . S
H496 C489 0.930 . S
H497 C495 0.930 . S
H498 C486 0.930 . S
H499 C487 0.928 1_545 S
H500 C493 0.930 . S
H501 C515 0.930 . S
H502 C494 0.930 . S
H503 C521 0.930 . S
H504 C512 0.930 . S
H505 C519 0.931 . S
H506 C483 0.929 . S
H507 C513 0.930 . S
H508 C546 0.930 . S
H509 C490 0.930 . S
H510 C545 0.929 . S
N511 Tb480 2.660 . S
N511 C512 1.305 . S
N511 C516 1.360 . S
C512 H504 0.930 . S
C512 N511 1.305 . S
C512 C515 1.407 . S
C513 H507 0.930 . S
C513 C514 1.410 . S
C513 C515 1.345 . S
C514 C513 1.410 . S
C514 C516 1.417 . S
C514 C546 1.432 . S
C515 H501 0.930 . S
C515 C512 1.407 . S
C515 C513 1.345 . S
C516 N511 1.360 . S
C516 C514 1.417 . S
C516 C520 1.432 . S
H517 C522 0.930 . S
N518 Tb480 2.600 . S
N518 C520 1.359 . S
N518 C521 1.327 . S
C519 H505 0.931 . S
C519 C521 1.392 . S
C519 C522 1.370 . S
C520 C516 1.432 . S
C520 N518 1.359 . S
C520 C523 1.414 . S
C521 H503 0.930 . S
C521 N518 1.327 . S
C521 C519 1.392 . S
C522 H517 0.930 . S
C522 C519 1.370 . S
C522 C523 1.385 . S
C523 C520 1.414 . S
C523 C522 1.385 . S
C523 C545 1.444 . S
O524 Tb480 2.546 . S
O524 C544 1.251 . S
O525 Tb480 2.612 1_565 S
O525 Tb491 2.365 1_565 S
O525 C536 1.279 . S
O526 Tb491 2.421 . S
O526 C543 1.262 . S
O527 Tb480 2.320 . S
O527 C543 1.260 . S
O528 Tb480 2.552 1_565 S
O528 C536 1.243 . S
O529 Tb480 2.413 . S
O529 C544 1.256 . S
O530 Tb491 2.546 . S
O530 C555 1.251 . S
O531 Tb480 2.362 . S
O531 Tb491 2.610 . S
O531 C547 1.283 . S
O532 Tb480 2.421 . S
O532 C554 1.262 . S
O533 Tb491 2.320 . S
O533 C554 1.260 . S
O534 Tb491 2.552 . S
O534 C547 1.243 . S
O535 Tb491 2.413 . S
O535 C555 1.256 . S
C536 O525 1.279 . S
C536 O528 1.243 . S
C537 C539 1.382 . S
C537 C541 1.393 . S
C537 C544 1.500 1_565 S
C538 C539 1.400 . S
C538 C540 1.384 . S
C539 C537 1.382 . S
C539 C538 1.400 . S
C539 H556 0.930 . S
C540 C538 1.384 . S
C540 C542 1.392 . S
C540 H557 0.931 . S
C541 C537 1.393 . S
C541 C542 1.401 . S
C541 H558 0.930 . S
C542 C540 1.392 . S
C542 C541 1.401 . S
C542 H559 0.930 . S
C543 O526 1.262 . S
C543 O527 1.260 . S
C544 Tb480 2.833 . S
C544 O524 1.251 . S
C544 O529 1.256 . S
C544 C537 1.500 1_545 S
C545 H510 0.929 . S
C545 C523 1.444 . S
C545 C546 1.317 . S
C546 H508 0.930 . S
C546 C514 1.432 . S
C546 C545 1.317 . S
C547 O531 1.283 . S
C547 O534 1.243 . S
C548 C549 1.382 . S
C548 C552 1.393 . S
C548 C555 1.500 . S
C549 C548 1.382 . S
C549 C550 1.400 . S
C549 H560 0.930 . S
C550 C549 1.400 . S
C550 C551 1.384 . S
C551 C550 1.384 . S
C551 C553 1.392 . S
C551 H561 0.931 . S
C552 C548 1.393 . S
C552 C553 1.401 . S
C552 H562 0.930 . S
C553 C551 1.392 . S
C553 C552 1.401 . S
C553 H563 0.930 . S
C554 O532 1.262 . S
C554 O533 1.260 . S
C555 Tb491 2.833 . S
C555 O530 1.251 . S
C555 O535 1.256 . S
C555 C548 1.500 . S
H556 C539 0.930 . S
H557 C540 0.931 . S
H558 C541 0.930 . S
H559 C542 0.930 . S
H560 C549 0.930 . S
H561 C551 0.931 . S
H562 C552 0.930 . S
H563 C553 0.930 . S
Tb564 N595 2.660 . S
Tb564 N602 2.600 . S
Tb564 O608 2.546 . S
Tb564 O609 2.610 . S
Tb564 O611 2.320 . S
Tb564 O612 2.552 . S
Tb564 O613 2.413 . S
Tb564 O615 2.362 . S
Tb564 O616 2.421 . S
Tb564 C628 2.833 . S
C565 C568 1.432 . S
C565 C569 1.414 . S
C565 N572 1.359 . S
C566 C568 1.417 . S
C566 C570 1.432 . S
C566 C578 1.410 . S
C567 C569 1.444 . S
C567 C570 1.317 . S
C567 H590 0.929 . S
C568 C565 1.432 . S
C568 C566 1.417 . S
C568 N576 1.360 . S
C569 C565 1.414 . S
C569 C567 1.444 . S
C569 C574 1.385 . S
C570 C566 1.432 . S
C570 C567 1.317 . S
C570 H582 0.930 . S
C571 C573 1.392 . S
C571 C574 1.370 . S
C571 H583 0.931 . S
N572 C565 1.359 . S
N572 C573 1.327 . S
N572 Tb575 2.600 . S
C573 C571 1.392 . S
C573 N572 1.327 . S
C573 H580 0.930 . S
C574 C569 1.385 . S
C574 C571 1.370 . S
C574 H593 0.930 . S
Tb575 N572 2.600 . S
Tb575 N576 2.660 . S
Tb575 O609 2.362 . S
Tb575 O610 2.421 . S
Tb575 O614 2.546 . S
Tb575 O615 2.610 . S
Tb575 O617 2.320 . S
Tb575 O618 2.552 . S
Tb575 O619 2.413 . S
Tb575 C639 2.833 . S
N576 C568 1.360 . S
N576 Tb575 2.660 . S
N576 C577 1.305 . S
C577 N576 1.305 . S
C577 C579 1.407 . S
C577 H584 0.930 . S
C578 C566 1.410 . S
C578 C579 1.345 . S
C578 H586 0.930 . S
C579 C577 1.407 . S
C579 C578 1.345 . S
C579 H581 0.930 . S
H580 C573 0.930 . S
H581 C579 0.930 . S
H582 C570 0.930 . S
H583 C571 0.931 . S
H584 C577 0.930 . S
H585 C599 0.930 . S
H586 C578 0.930 . S
H587 C605 0.930 . S
H588 C596 0.930 . S
H589 C603 0.931 . S
H590 C567 0.929 . S
H591 C597 0.930 . S
H592 C630 0.930 . S
H593 C574 0.930 . S
H594 C629 0.929 . S
N595 Tb564 2.660 . S
N595 C596 1.305 . S
N595 C600 1.360 . S
C596 H588 0.930 . S
C596 N595 1.305 . S
C596 C599 1.407 . S
C597 H591 0.930 . S
C597 C598 1.410 . S
C597 C599 1.345 . S
C598 C597 1.410 . S
C598 C600 1.417 . S
C598 C630 1.432 . S
C599 H585 0.930 . S
C599 C596 1.407 . S
C599 C597 1.345 . S
C600 N595 1.360 . S
C600 C598 1.417 . S
C600 C604 1.432 . S
H601 C606 0.930 . S
N602 Tb564 2.600 . S
N602 C604 1.359 . S
N602 C605 1.327 . S
C603 H589 0.931 . S
C603 C605 1.392 . S
C603 C606 1.370 . S
C604 C600 1.432 . S
C604 N602 1.359 . S
C604 C607 1.414 . S
C605 H587 0.930 . S
C605 N602 1.327 . S
C605 C603 1.392 . S
C606 H601 0.930 . S
C606 C603 1.370 . S
C606 C607 1.385 . S
C607 C604 1.414 . S
C607 C606 1.385 . S
C607 C629 1.444 . S
O608 Tb564 2.546 . S
O608 C628 1.251 . S
O609 Tb564 2.610 . S
O609 Tb575 2.362 . S
O609 C620 1.283 . S
O610 Tb575 2.421 . S
O610 C627 1.262 . S
O611 Tb564 2.320 . S
O611 C627 1.260 . S
O612 Tb564 2.552 . S
O612 C620 1.243 . S
O613 Tb564 2.413 . S
O613 C628 1.256 . S
O614 Tb575 2.546 . S
O614 C639 1.251 . S
O615 Tb564 2.362 . S
O615 Tb575 2.610 . S
O615 C631 1.283 . S
O616 Tb564 2.421 . S
O616 C638 1.262 . S
O617 Tb575 2.320 . S
O617 C638 1.260 . S
O618 Tb575 2.552 . S
O618 C631 1.243 . S
O619 Tb575 2.413 . S
O619 C639 1.256 . S
C620 O609 1.283 . S
C620 O612 1.243 . S
C621 C623 1.382 . S
C621 C625 1.393 . S
C621 C628 1.500 . S
C622 C623 1.400 . S
C622 C624 1.384 . S
C623 C621 1.382 . S
C623 C622 1.400 . S
C623 H640 0.930 . S
C624 C622 1.384 . S
C624 C626 1.392 . S
C624 H641 0.931 . S
C625 C621 1.393 . S
C625 C626 1.401 . S
C625 H642 0.930 . S
C626 C624 1.392 . S
C626 C625 1.401 . S
C626 H643 0.930 . S
C627 O610 1.262 . S
C627 O611 1.260 . S
C628 Tb564 2.833 . S
C628 O608 1.251 . S
C628 O613 1.256 . S
C628 C621 1.500 . S
C629 H594 0.929 . S
C629 C607 1.444 . S
C629 C630 1.317 . S
C630 H592 0.930 . S
C630 C598 1.432 . S
C630 C629 1.317 . S
C631 O615 1.283 . S
C631 O618 1.243 . S
C632 C633 1.382 . S
C632 C636 1.393 . S
C632 C639 1.500 . S
C633 C632 1.382 . S
C633 C634 1.400 . S
C633 H644 0.930 . S
C634 C633 1.400 . S
C634 C635 1.384 . S
C635 C634 1.384 . S
C635 C637 1.392 . S
C635 H645 0.931 . S
C636 C632 1.393 . S
C636 C637 1.401 . S
C636 H646 0.930 . S
C637 C635 1.392 . S
C637 C636 1.401 . S
C637 H647 0.930 . S
C638 O616 1.262 . S
C638 O617 1.260 . S
C639 Tb575 2.833 . S
C639 O614 1.251 . S
C639 O619 1.256 . S
C639 C632 1.500 . S
H640 C623 0.930 . S
H641 C624 0.931 . S
H642 C625 0.930 . S
H643 C626 0.930 . S
H644 C633 0.930 . S
H645 C635 0.931 . S
H646 C636 0.930 . S
H647 C637 0.930 . S
Tb648 N679 2.660 . S
Tb648 N686 2.600 . S
Tb648 O692 2.546 . S
Tb648 O693 2.610 . S
Tb648 O695 2.320 . S
Tb648 O696 2.552 . S
Tb648 O697 2.413 . S
Tb648 O699 2.362 . S
Tb648 O700 2.421 . S
Tb648 C712 2.833 . S
C649 C652 1.432 . S
C649 C653 1.414 . S
C649 N656 1.359 . S
C650 C652 1.417 . S
C650 C654 1.432 . S
C650 C662 1.410 1_455 S
C651 C653 1.444 . S
C651 C654 1.317 . S
C651 H674 0.929 . S
C652 C649 1.432 . S
C652 C650 1.417 . S
C652 N660 1.360 . S
C653 C649 1.414 . S
C653 C651 1.444 . S
C653 C658 1.385 . S
C654 C650 1.432 . S
C654 C651 1.317 . S
C654 H666 0.930 . S
C655 C657 1.392 . S
C655 C658 1.370 . S
C655 H667 0.931 . S
N656 C649 1.359 . S
N656 C657 1.327 . S
N656 Tb659 2.600 . S
C657 C655 1.392 . S
C657 N656 1.327 . S
C657 H664 0.930 . S
C658 C653 1.385 . S
C658 C655 1.370 . S
C658 H677 0.930 . S
Tb659 N656 2.600 . S
Tb659 N660 2.660 . S
Tb659 O693 2.362 1_565 S
Tb659 O694 2.421 1_565 S
Tb659 O698 2.546 . S
Tb659 O699 2.610 1_565 S
Tb659 O701 2.320 . S
Tb659 O702 2.552 . S
Tb659 O703 2.413 . S
Tb659 C723 2.833 . S
N660 C652 1.360 . S
N660 Tb659 2.660 . S
N660 C661 1.305 . S
C661 N660 1.305 . S
C661 C663 1.407 1_455 S
C661 H668 0.930 . S
C662 C650 1.410 1_655 S
C662 C663 1.345 . S
C662 H670 0.930 . S
C663 C661 1.407 1_655 S
C663 C662 1.345 . S
C663 H665 0.930 . S
H664 C657 0.930 . S
H665 C663 0.930 . S
H666 C654 0.930 . S
H667 C655 0.931 . S
H668 C661 0.930 . S
H669 C683 0.930 . S
H670 C662 0.930 . S
H671 C689 0.930 . S
H672 C680 0.930 . S
H673 C687 0.931 1_655 S
H674 C651 0.929 . S
H675 C681 0.930 . S
H676 C714 0.930 . S
H677 C658 0.930 . S
H678 C713 0.929 . S
N679 Tb648 2.660 . S
N679 C680 1.305 . S
N679 C684 1.360 . S
C680 H672 0.930 . S
C680 N679 1.305 . S
C680 C683 1.407 . S
C681 H675 0.930 . S
C681 C682 1.410 . S
C681 C683 1.345 . S
C682 C681 1.410 . S
C682 C684 1.417 . S
C682 C714 1.432 . S
C683 H669 0.930 . S
C683 C680 1.407 . S
C683 C681 1.345 . S
C684 N679 1.360 . S
C684 C682 1.417 . S
C684 C688 1.432 . S
H685 C690 0.930 . S
N686 Tb648 2.600 . S
N686 C688 1.359 . S
N686 C689 1.327 . S
C687 H673 0.931 1_455 S
C687 C689 1.392 . S
C687 C690 1.370 . S
C688 C684 1.432 . S
C688 N686 1.359 . S
C688 C691 1.414 . S
C689 H671 0.930 . S
C689 N686 1.327 . S
C689 C687 1.392 . S
C690 H685 0.930 . S
C690 C687 1.370 . S
C690 C691 1.385 . S
C691 C688 1.414 . S
C691 C690 1.385 . S
C691 C713 1.444 . S
O692 Tb648 2.546 . S
O692 C712 1.251 . S
O693 Tb648 2.610 . S
O693 Tb659 2.362 1_545 S
O693 C704 1.283 . S
O694 Tb659 2.421 1_545 S
O694 C711 1.262 . S
O695 Tb648 2.320 . S
O695 C711 1.260 . S
O696 Tb648 2.552 . S
O696 C704 1.243 . S
O697 Tb648 2.413 . S
O697 C712 1.256 . S
O698 Tb659 2.546 . S
O698 C723 1.251 . S
O699 Tb648 2.362 . S
O699 Tb659 2.610 1_545 S
O699 C715 1.283 . S
O700 Tb648 2.421 . S
O700 C722 1.262 . S
O701 Tb659 2.320 . S
O701 C722 1.260 1_565 S
O702 Tb659 2.552 . S
O702 C715 1.243 1_565 S
O703 Tb659 2.413 . S
O703 C723 1.256 . S
C704 O693 1.283 . S
C704 O696 1.243 . S
C705 C707 1.382 . S
C705 C709 1.393 . S
C705 C712 1.500 . S
C706 C707 1.400 . S
C706 C708 1.384 . S
C707 C705 1.382 . S
C707 C706 1.400 . S
C707 H724 0.930 . S
C708 C706 1.384 . S
C708 C710 1.392 . S
C708 H725 0.931 . S
C709 C705 1.393 . S
C709 C710 1.401 . S
C709 H726 0.930 . S
C710 C708 1.392 . S
C710 C709 1.401 . S
C710 H727 0.930 . S
C711 O694 1.262 . S
C711 O695 1.260 . S
C712 Tb648 2.833 . S
C712 O692 1.251 . S
C712 O697 1.256 . S
C712 C705 1.500 . S
C713 H678 0.929 . S
C713 C691 1.444 . S
C713 C714 1.317 . S
C714 H676 0.930 . S
C714 C682 1.432 . S
C714 C713 1.317 . S
C715 O699 1.283 . S
C715 O702 1.243 1_545 S
C716 C717 1.382 . S
C716 C720 1.393 . S
C716 C723 1.500 . S
C717 C716 1.382 . S
C717 C718 1.400 . S
C717 H728 0.930 . S
C718 C717 1.400 . S
C718 C719 1.384 . S
C719 C718 1.384 . S
C719 C721 1.392 . S
C719 H729 0.931 . S
C720 C716 1.393 . S
C720 C721 1.401 . S
C720 H730 0.930 . S
C721 C719 1.392 . S
C721 C720 1.401 . S
C721 H731 0.930 . S
C722 O700 1.262 . S
C722 O701 1.260 1_545 S
C723 Tb659 2.833 . S
C723 O698 1.251 . S
C723 O703 1.256 . S
C723 C716 1.500 . S
H724 C707 0.930 . S
H725 C708 0.931 . S
H726 C709 0.930 . S
H727 C710 0.930 . S
H728 C717 0.930 . S
H729 C719 0.931 . S
H730 C720 0.930 . S
H731 C721 0.930 . S
Tb732 N763 2.660 . S
Tb732 N770 2.600 . S
Tb732 O776 2.546 . S
Tb732 O777 2.610 . S
Tb732 O779 2.320 . S
Tb732 O780 2.552 . S
Tb732 O781 2.413 . S
Tb732 O783 2.362 . S
Tb732 O784 2.421 . S
Tb732 C796 2.833 . S
C733 C736 1.432 . S
C733 C737 1.414 . S
C733 N740 1.359 . S
C734 C736 1.417 . S
C734 C738 1.432 . S
C734 C746 1.410 . S
C735 C737 1.444 . S
C735 C738 1.317 . S
C735 H758 0.929 . S
C736 C733 1.432 . S
C736 C734 1.417 . S
C736 N744 1.360 . S
C737 C733 1.414 . S
C737 C735 1.444 . S
C737 C742 1.385 . S
C738 C734 1.432 . S
C738 C735 1.317 . S
C738 H750 0.930 . S
C739 C741 1.392 . S
C739 C742 1.370 . S
C739 H751 0.931 . S
N740 C733 1.359 . S
N740 C741 1.327 . S
N740 Tb743 2.600 . S
C741 C739 1.392 . S
C741 N740 1.327 . S
C741 H748 0.930 . S
C742 C737 1.385 . S
C742 C739 1.370 . S
C742 H761 0.930 . S
Tb743 N740 2.600 . S
Tb743 N744 2.660 . S
Tb743 O777 2.362 . S
Tb743 O778 2.421 . S
Tb743 O782 2.546 . S
Tb743 O783 2.610 . S
Tb743 O785 2.320 . S
Tb743 O786 2.552 . S
Tb743 O787 2.413 . S
Tb743 C807 2.833 . S
N744 C736 1.360 . S
N744 Tb743 2.660 . S
N744 C745 1.305 . S
C745 N744 1.305 . S
C745 C747 1.407 . S
C745 H752 0.930 . S
C746 C734 1.410 . S
C746 C747 1.345 . S
C746 H754 0.930 . S
C747 C745 1.407 . S
C747 C746 1.345 . S
C747 H749 0.930 . S
H748 C741 0.930 . S
H749 C747 0.930 . S
H750 C738 0.930 . S
H751 C739 0.931 . S
H752 C745 0.930 . S
H753 C767 0.930 . S
H754 C746 0.930 . S
H755 C773 0.930 . S
H756 C764 0.930 . S
H757 C771 0.931 . S
H758 C735 0.929 . S
H759 C765 0.930 . S
H760 C798 0.930 . S
H761 C742 0.930 . S
H762 C797 0.929 . S
N763 Tb732 2.660 . S
N763 C764 1.305 . S
N763 C768 1.360 . S
C764 H756 0.930 . S
C764 N763 1.305 . S
C764 C767 1.407 . S
C765 H759 0.930 . S
C765 C766 1.410 . S
C765 C767 1.345 . S
C766 C765 1.410 . S
C766 C768 1.417 . S
C766 C798 1.432 . S
C767 H753 0.930 . S
C767 C764 1.407 . S
C767 C765 1.345 . S
C768 N763 1.360 . S
C768 C766 1.417 . S
C768 C772 1.432 . S
H769 C774 0.930 . S
N770 Tb732 2.600 . S
N770 C772 1.359 . S
N770 C773 1.327 . S
C771 H757 0.931 . S
C771 C773 1.392 . S
C771 C774 1.370 . S
C772 C768 1.432 . S
C772 N770 1.359 . S
C772 C775 1.414 . S
C773 H755 0.930 . S
C773 N770 1.327 . S
C773 C771 1.392 . S
C774 H769 0.930 . S
C774 C771 1.370 . S
C774 C775 1.385 . S
C775 C772 1.414 . S
C775 C774 1.385 . S
C775 C797 1.444 . S
O776 Tb732 2.546 . S
O776 C796 1.251 . S
O777 Tb732 2.610 . S
O777 Tb743 2.362 . S
O777 C788 1.283 . S
O778 Tb743 2.421 . S
O778 C795 1.262 . S
O779 Tb732 2.320 . S
O779 C795 1.260 . S
O780 Tb732 2.552 . S
O780 C788 1.243 . S
O781 Tb732 2.413 . S
O781 C796 1.256 . S
O782 Tb743 2.546 . S
O782 C807 1.251 . S
O783 Tb732 2.362 . S
O783 Tb743 2.610 . S
O783 C799 1.283 . S
O784 Tb732 2.421 . S
O784 C806 1.262 . S
O785 Tb743 2.320 . S
O785 C806 1.260 . S
O786 Tb743 2.552 . S
O786 C799 1.243 . S
O787 Tb743 2.413 . S
O787 C807 1.256 . S
C788 O777 1.283 . S
C788 O780 1.243 . S
C789 C791 1.382 . S
C789 C793 1.393 . S
C789 C796 1.500 . S
C790 C791 1.400 . S
C790 C792 1.384 . S
C791 C789 1.382 . S
C791 C790 1.400 . S
C791 H808 0.930 . S
C792 C790 1.384 . S
C792 C794 1.392 . S
C792 H809 0.931 . S
C793 C789 1.393 . S
C793 C794 1.401 . S
C793 H810 0.930 . S
C794 C792 1.392 . S
C794 C793 1.401 . S
C794 H811 0.930 . S
C795 O778 1.262 . S
C795 O779 1.260 . S
C796 Tb732 2.833 . S
C796 O776 1.251 . S
C796 O781 1.256 . S
C796 C789 1.500 . S
C797 H762 0.929 . S
C797 C775 1.444 . S
C797 C798 1.317 . S
C798 H760 0.930 . S
C798 C766 1.432 . S
C798 C797 1.317 . S
C799 O783 1.283 . S
C799 O786 1.243 . S
C800 C801 1.382 . S
C800 C804 1.393 . S
C800 C807 1.500 . S
C801 C800 1.382 . S
C801 C802 1.400 . S
C801 H812 0.930 . S
C802 C801 1.400 . S
C802 C803 1.384 . S
C803 C802 1.384 . S
C803 C805 1.392 . S
C803 H813 0.931 . S
C804 C800 1.393 . S
C804 C805 1.401 . S
C804 H814 0.930 . S
C805 C803 1.392 . S
C805 C804 1.401 . S
C805 H815 0.930 . S
C806 O784 1.262 . S
C806 O785 1.260 . S
C807 Tb743 2.833 . S
C807 O782 1.251 . S
C807 O787 1.256 . S
C807 C800 1.500 . S
H808 C791 0.930 . S
H809 C792 0.931 . S
H810 C793 0.930 . S
H811 C794 0.930 . S
H812 C801 0.930 . S
H813 C803 0.931 . S
H814 C804 0.930 . S
H815 C805 0.930 . S
Tb816 N847 2.660 . S
Tb816 N854 2.600 1_545 S
Tb816 O860 2.546 1_545 S
Tb816 O861 2.610 . S
Tb816 O863 2.320 . S
Tb816 O864 2.552 1_545 S
Tb816 O865 2.413 . S
Tb816 O867 2.362 . S
Tb816 O868 2.421 1_545 S
Tb816 C880 2.833 1_545 S
C817 C820 1.432 . S
C817 C821 1.414 . S
C817 N824 1.359 . S
C818 C820 1.417 1_565 S
C818 C822 1.432 1_565 S
C818 C830 1.410 . S
C819 C821 1.444 . S
C819 C822 1.317 . S
C819 H842 0.929 . S
C820 C817 1.432 . S
C820 C818 1.417 1_545 S
C820 N828 1.360 . S
C821 C817 1.414 . S
C821 C819 1.444 . S
C821 C826 1.385 . S
C822 C818 1.432 1_545 S
C822 C819 1.317 . S
C822 H834 0.930 1_545 S
C823 C825 1.392 . S
C823 C826 1.370 . S
C823 H835 0.931 . S
N824 C817 1.359 . S
N824 C825 1.327 . S
N824 Tb827 2.600 . S
C825 C823 1.392 . S
C825 N824 1.327 . S
C825 H832 0.930 . S
C826 C821 1.385 . S
C826 C823 1.370 . S
C826 H845 0.930 . S
Tb827 N824 2.600 . S
Tb827 N828 2.660 . S
Tb827 O861 2.362 1_556 S
Tb827 O862 2.421 1_556 S
Tb827 O866 2.546 . S
Tb827 O867 2.610 1_556 S
Tb827 O869 2.320 1_545 S
Tb827 O870 2.552 . S
Tb827 O871 2.413 . S
Tb827 C891 2.833 . S
N828 C820 1.360 . S
N828 Tb827 2.660 . S
N828 C829 1.305 1_545 S
C829 N828 1.305 1_565 S
C829 C831 1.407 . S
C829 H836 0.930 . S
C830 C818 1.410 . S
C830 C831 1.345 . S
C830 H838 0.930 . S
C831 C829 1.407 . S
C831 C830 1.345 . S
C831 H833 0.930 . S
H832 C825 0.930 . S
H833 C831 0.930 . S
H834 C822 0.930 1_565 S
H835 C823 0.931 . S
H836 C829 0.930 . S
H837 C851 0.930 . S
H838 C830 0.930 . S
H839 C857 0.930 . S
H840 C848 0.930 . S
H841 C855 0.931 . S
H842 C819 0.929 . S
H843 C849 0.930 . S
H844 C882 0.930 . S
H845 C826 0.930 . S
H846 C881 0.929 . S
N847 Tb816 2.660 . S
N847 C848 1.305 . S
N847 C852 1.360 . S
C848 H840 0.930 . S
C848 N847 1.305 . S
C848 C851 1.407 . S
C849 H843 0.930 . S
C849 C850 1.410 . S
C849 C851 1.345 . S
C850 C849 1.410 . S
C850 C852 1.417 . S
C850 C882 1.432 . S
C851 H837 0.930 . S
C851 C848 1.407 . S
C851 C849 1.345 . S
C852 N847 1.360 . S
C852 C850 1.417 . S
C852 C856 1.432 . S
H853 C858 0.930 . S
N854 Tb816 2.600 1_565 S
N854 C856 1.359 1_565 S
N854 C857 1.327 . S
C855 H841 0.931 . S
C855 C857 1.392 . S
C855 C858 1.370 . S
C856 C852 1.432 . S
C856 N854 1.359 1_545 S
C856 C859 1.414 1_545 S
C857 H839 0.930 . S
C857 N854 1.327 . S
C857 C855 1.392 . S
C858 H853 0.930 . S
C858 C855 1.370 . S
C858 C859 1.385 . S
C859 C856 1.414 1_565 S
C859 C858 1.385 . S
C859 C881 1.444 1_565 S
O860 Tb816 2.546 1_565 S
O860 C880 1.251 . S
O861 Tb816 2.610 . S
O861 Tb827 2.362 1_554 S
O861 C872 1.283 . S
O862 Tb827 2.421 1_554 S
O862 C879 1.262 . S
O863 Tb816 2.320 . S
O863 C879 1.260 . S
O864 Tb816 2.552 1_565 S
O864 C872 1.243 1_565 S
O865 Tb816 2.413 . S
O865 C880 1.256 1_545 S
O866 Tb827 2.546 . S
O866 C891 1.251 . S
O867 Tb816 2.362 . S
O867 Tb827 2.610 1_554 S
O867 C883 1.283 . S
O868 Tb816 2.421 1_565 S
O868 C890 1.262 1_554 S
O869 Tb827 2.320 1_565 S
O869 C890 1.260 . S
O870 Tb827 2.552 . S
O870 C883 1.243 1_556 S
O871 Tb827 2.413 . S
O871 C891 1.256 . S
C872 O861 1.283 . S
C872 O864 1.243 1_545 S
C873 C875 1.362 1_565 S
C873 C877 1.393 . S
C873 C880 1.500 . S
C874 C875 1.389 1_565 S
C874 C876 1.384 . S
C875 C873 1.362 1_545 S
C875 C874 1.389 1_545 S
C875 H892 0.962 . S
C876 C874 1.384 . S
C876 C878 1.392 . S
C876 H893 0.931 . S
C877 C873 1.393 . S
C877 C878 1.401 . S
C877 H894 0.930 . S
C878 C876 1.392 . S
C878 C877 1.401 . S
C878 H895 0.930 . S
C879 O862 1.262 . S
C879 O863 1.260 . S
C880 Tb816 2.833 1_565 S
C880 O860 1.251 . S
C880 O865 1.256 1_565 S
C880 C873 1.500 . S
C881 H846 0.929 . S
C881 C859 1.444 1_545 S
C881 C882 1.317 . S
C882 H844 0.930 . S
C882 C850 1.432 . S
C882 C881 1.317 . S
C883 O867 1.283 . S
C883 O870 1.243 1_554 S
C884 C885 1.382 . S
C884 C888 1.393 . S
C884 C891 1.500 . S
C885 C884 1.382 . S
C885 C886 1.400 . S
C885 H896 0.930 . S
C886 C885 1.400 . S
C886 C887 1.384 . S
C887 C886 1.384 . S
C887 C889 1.392 . S
C887 H897 0.931 . S
C888 C884 1.393 . S
C888 C889 1.401 . S
C888 H898 0.930 . S
C889 C887 1.392 . S
C889 C888 1.401 . S
C889 H899 0.930 . S
C890 O868 1.262 1_556 S
C890 O869 1.260 . S
C891 Tb827 2.833 . S
C891 O866 1.251 . S
C891 O871 1.256 . S
C891 C884 1.500 . S
H892 C875 0.962 . S
H893 C876 0.931 . S
H894 C877 0.930 . S
H895 C878 0.930 . S
H896 C885 0.930 . S
H897 C887 0.931 . S
H898 C888 0.930 . S
H899 C889 0.930 . S
Tb900 N931 2.660 . S
Tb900 N938 2.600 . S
Tb900 O944 2.546 . S
Tb900 O945 2.610 . S
Tb900 O947 2.320 . S
Tb900 O948 2.552 . S
Tb900 O949 2.413 . S
Tb900 O951 2.362 . S
Tb900 O952 2.421 . S
Tb900 C964 2.833 . S
C901 C904 1.432 . S
C901 C905 1.414 . S
C901 N908 1.359 . S
C902 C904 1.417 . S
C902 C906 1.432 . S
C902 C914 1.410 . S
C903 C905 1.444 . S
C903 C906 1.317 . S
C903 H926 0.929 . S
C904 C901 1.432 . S
C904 C902 1.417 . S
C904 N912 1.360 . S
C905 C901 1.414 . S
C905 C903 1.444 . S
C905 C910 1.385 . S
C906 C902 1.432 . S
C906 C903 1.317 . S
C906 H918 0.930 . S
C907 C909 1.392 . S
C907 C910 1.370 . S
C907 H919 0.931 . S
N908 C901 1.359 . S
N908 C909 1.327 . S
N908 Tb911 2.600 . S
C909 C907 1.392 . S
C909 N908 1.327 . S
C909 H916 0.930 . S
C910 C905 1.385 . S
C910 C907 1.370 . S
C910 H929 0.930 . S
Tb911 N908 2.600 . S
Tb911 N912 2.660 . S
Tb911 O945 2.362 . S
Tb911 O946 2.421 . S
Tb911 O950 2.546 . S
Tb911 O951 2.610 . S
Tb911 O953 2.320 . S
Tb911 O954 2.552 . S
Tb911 O955 2.413 . S
Tb911 C975 2.833 . S
N912 C904 1.360 . S
N912 Tb911 2.660 . S
N912 C913 1.305 . S
C913 N912 1.305 . S
C913 C915 1.407 . S
C913 H920 0.930 . S
C914 C902 1.410 . S
C914 C915 1.345 . S
C914 H922 0.930 . S
C915 C913 1.407 . S
C915 C914 1.345 . S
C915 H917 0.930 . S
H916 C909 0.930 . S
H917 C915 0.930 . S
H918 C906 0.930 . S
H919 C907 0.931 . S
H920 C913 0.930 . S
H921 C935 0.930 . S
H922 C914 0.930 . S
H923 C941 0.930 . S
H924 C932 0.930 . S
H925 C939 0.931 . S
H926 C903 0.929 . S
H927 C933 0.930 . S
H928 C966 0.930 . S
H929 C910 0.930 . S
H930 C965 0.929 . S
N931 Tb900 2.660 . S
N931 C932 1.305 . S
N931 C936 1.360 . S
C932 H924 0.930 . S
C932 N931 1.305 . S
C932 C935 1.407 . S
C933 H927 0.930 . S
C933 C934 1.410 . S
C933 C935 1.345 . S
C934 C933 1.410 . S
C934 C936 1.417 . S
C934 C966 1.432 . S
C935 H921 0.930 . S
C935 C932 1.407 . S
C935 C933 1.345 . S
C936 N931 1.360 . S
C936 C934 1.417 . S
C936 C940 1.432 . S
H937 C942 0.930 . S
N938 Tb900 2.600 . S
N938 C940 1.359 . S
N938 C941 1.327 . S
C939 H925 0.931 . S
C939 C941 1.392 . S
C939 C942 1.370 . S
C940 C936 1.432 . S
C940 N938 1.359 . S
C940 C943 1.414 . S
C941 H923 0.930 . S
C941 N938 1.327 . S
C941 C939 1.392 . S
C942 H937 0.930 . S
C942 C939 1.370 . S
C942 C943 1.385 . S
C943 C940 1.414 . S
C943 C942 1.385 . S
C943 C965 1.444 . S
O944 Tb900 2.546 . S
O944 C964 1.251 . S
O945 Tb900 2.610 . S
O945 Tb911 2.362 . S
O945 C956 1.283 . S
O946 Tb911 2.421 . S
O946 C963 1.262 . S
O947 Tb900 2.320 . S
O947 C963 1.260 . S
O948 Tb900 2.552 . S
O948 C956 1.243 . S
O949 Tb900 2.413 . S
O949 C964 1.256 . S
O950 Tb911 2.546 . S
O950 C975 1.251 . S
O951 Tb900 2.362 . S
O951 Tb911 2.610 . S
O951 C967 1.283 . S
O952 Tb900 2.421 . S
O952 C974 1.262 . S
O953 Tb911 2.320 . S
O953 C974 1.260 . S
O954 Tb911 2.552 . S
O954 C967 1.243 . S
O955 Tb911 2.413 . S
O955 C975 1.256 . S
C956 O945 1.283 . S
C956 O948 1.243 . S
C957 C959 1.382 . S
C957 C961 1.393 . S
C957 C964 1.500 . S
C958 C959 1.400 . S
C958 C960 1.384 . S
C959 C957 1.382 . S
C959 C958 1.400 . S
C959 H976 0.930 . S
C960 C958 1.384 . S
C960 C962 1.392 . S
C960 H977 0.931 . S
C961 C957 1.393 . S
C961 C962 1.401 . S
C961 H978 0.930 . S
C962 C960 1.392 . S
C962 C961 1.401 . S
C962 H979 0.930 . S
C963 O946 1.262 . S
C963 O947 1.260 . S
C964 Tb900 2.833 . S
C964 O944 1.251 . S
C964 O949 1.256 . S
C964 C957 1.500 . S
C965 H930 0.929 . S
C965 C943 1.444 . S
C965 C966 1.317 . S
C966 H928 0.930 . S
C966 C934 1.432 . S
C966 C965 1.317 . S
C967 O951 1.283 . S
C967 O954 1.243 . S
C968 C969 1.382 . S
C968 C972 1.393 . S
C968 C975 1.500 . S
C969 C968 1.382 . S
C969 C970 1.400 . S
C969 H980 0.930 . S
C970 C969 1.400 . S
C970 C971 1.384 . S
C971 C970 1.384 . S
C971 C973 1.392 . S
C971 H981 0.931 . S
C972 C968 1.393 . S
C972 C973 1.401 . S
C972 H982 0.930 . S
C973 C971 1.392 . S
C973 C972 1.401 . S
C973 H983 0.930 . S
C974 O952 1.262 . S
C974 O953 1.260 . S
C975 Tb911 2.833 . S
C975 O950 1.251 . S
C975 O955 1.256 . S
C975 C968 1.500 . S
H976 C959 0.930 . S
H977 C960 0.931 . S
H978 C961 0.930 . S
H979 C962 0.930 . S
H980 C969 0.930 . S
H981 C971 0.931 . S
H982 C972 0.930 . S
H983 C973 0.930 . S
Tb984 N1015 2.660 . S
Tb984 N1022 2.600 . S
Tb984 O1028 2.546 . S
Tb984 O1029 2.610 1_554 S
Tb984 O1031 2.320 . S
Tb984 O1032 2.552 1_554 S
Tb984 O1033 2.413 . S
Tb984 O1035 2.362 . S
Tb984 O1036 2.421 . S
Tb984 C1048 2.833 . S
C985 C988 1.432 . S
C985 C989 1.414 . S
C985 N992 1.359 . S
C986 C988 1.417 . S
C986 C990 1.432 . S
C986 C998 1.410 . S
C987 C989 1.444 . S
C987 C990 1.317 . S
C987 H1010 0.929 . S
C988 C985 1.432 . S
C988 C986 1.417 . S
C988 N996 1.360 . S
C989 C985 1.414 . S
C989 C987 1.444 . S
C989 C994 1.385 . S
C990 C986 1.432 . S
C990 C987 1.317 . S
C990 H1002 0.930 . S
C991 C993 1.392 . S
C991 C994 1.370 . S
C991 H1003 0.931 . S
N992 C985 1.359 . S
N992 C993 1.327 . S
N992 Tb995 2.600 1_556 S
C993 C991 1.392 . S
C993 N992 1.327 . S
C993 H1000 0.930 . S
C994 C989 1.385 . S
C994 C991 1.370 . S
C994 H1013 0.930 . S
Tb995 N992 2.600 1_554 S
Tb995 N996 2.660 1_554 S
Tb995 O1029 2.362 1_554 S
Tb995 O1030 2.421 . S
Tb995 O1034 2.546 . S
Tb995 O1035 2.610 . S
Tb995 O1037 2.320 . S
Tb995 O1038 2.552 . S
Tb995 O1039 2.413 . S
Tb995 C1059 2.833 . S
N996 C988 1.360 . S
N996 Tb995 2.660 1_556 S
N996 C997 1.305 . S
C997 N996 1.305 . S
C997 C999 1.407 . S
C997 H1004 0.930 . S
C998 C986 1.410 . S
C998 C999 1.345 . S
C998 H1006 0.930 . S
C999 C997 1.407 . S
C999 C998 1.345 . S
C999 H1001 0.930 . S
H1000 C993 0.930 . S
H1001 C999 0.930 . S
H1002 C990 0.930 . S
H1003 C991 0.931 . S
H1004 C997 0.930 . S
H1005 C1019 0.930 . S
H1006 C998 0.930 . S
H1007 C1025 0.930 . S
H1008 C1016 0.930 . S
H1009 C1023 0.931 . S
H1010 C987 0.929 . S
H1011 C1017 0.930 . S
H1012 C1050 0.930 . S
H1013 C994 0.930 . S
H1014 C1049 0.929 . S
N1015 Tb984 2.660 . S
N1015 C1016 1.305 . S
N1015 C1020 1.360 . S
C1016 H1008 0.930 . S
C1016 N1015 1.305 . S
C1016 C1019 1.407 . S
C1017 H1011 0.930 . S
C1017 C1018 1.410 . S
C1017 C1019 1.345 . S
C1018 C1017 1.410 . S
C1018 C1020 1.417 . S
C1018 C1050 1.432 . S
C1019 H1005 0.930 . S
C1019 C1016 1.407 . S
C1019 C1017 1.345 . S
C1020 N1015 1.360 . S
C1020 C1018 1.417 . S
C1020 C1024 1.432 . S
H1021 C1026 0.930 . S
N1022 Tb984 2.600 . S
N1022 C1024 1.359 . S
N1022 C1025 1.327 . S
C1023 H1009 0.931 . S
C1023 C1025 1.392 . S
C1023 C1026 1.370 . S
C1024 C1020 1.432 . S
C1024 N1022 1.359 . S
C1024 C1027 1.414 . S
C1025 H1007 0.930 . S
C1025 N1022 1.327 . S
C1025 C1023 1.392 . S
C1026 H1021 0.930 . S
C1026 C1023 1.370 . S
C1026 C1027 1.385 . S
C1027 C1024 1.414 . S
C1027 C1026 1.385 . S
C1027 C1049 1.444 . S
O1028 Tb984 2.546 . S
O1028 C1048 1.251 . S
O1029 Tb984 2.610 1_556 S
O1029 Tb995 2.362 1_556 S
O1029 C1040 1.283 . S
O1030 Tb995 2.421 . S
O1030 C1047 1.262 . S
O1031 Tb984 2.320 . S
O1031 C1047 1.260 . S
O1032 Tb984 2.552 1_556 S
O1032 C1040 1.243 . S
O1033 Tb984 2.413 . S
O1033 C1048 1.256 . S
O1034 Tb995 2.546 . S
O1034 C1059 1.251 . S
O1035 Tb984 2.362 . S
O1035 Tb995 2.610 . S
O1035 C1051 1.283 . S
O1036 Tb984 2.421 . S
O1036 C1058 1.262 . S
O1037 Tb995 2.320 . S
O1037 C1058 1.260 . S
O1038 Tb995 2.552 . S
O1038 C1051 1.243 . S
O1039 Tb995 2.413 . S
O1039 C1059 1.256 . S
C1040 O1029 1.283 . S
C1040 O1032 1.243 . S
C1041 C1043 1.382 . S
C1041 C1045 1.393 . S
C1041 C1048 1.500 . S
C1042 C1043 1.400 1_556 S
C1042 C1044 1.384 1_556 S
C1043 C1041 1.382 . S
C1043 C1042 1.400 1_554 S
C1043 H1060 0.930 1_554 S
C1044 C1042 1.384 1_554 S
C1044 C1046 1.392 . S
C1044 H1061 0.931 . S
C1045 C1041 1.393 . S
C1045 C1046 1.401 . S
C1045 H1062 0.930 . S
C1046 C1044 1.392 . S
C1046 C1045 1.401 . S
C1046 H1063 0.930 . S
C1047 O1030 1.262 . S
C1047 O1031 1.260 . S
C1048 Tb984 2.833 . S
C1048 O1028 1.251 . S
C1048 O1033 1.256 . S
C1048 C1041 1.500 . S
C1049 H1014 0.929 . S
C1049 C1027 1.444 . S
C1049 C1050 1.317 . S
C1050 H1012 0.930 . S
C1050 C1018 1.432 . S
C1050 C1049 1.317 . S
C1051 O1035 1.283 . S
C1051 O1038 1.243 . S
C1052 C1053 1.382 . S
C1052 C1056 1.393 . S
C1052 C1059 1.500 . S
C1053 C1052 1.382 . S
C1053 C1054 1.400 . S
C1053 H1064 0.930 . S
C1054 C1053 1.400 . S
C1054 C1055 1.384 . S
C1055 C1054 1.384 . S
C1055 C1057 1.392 . S
C1055 H1065 0.931 . S
C1056 C1052 1.393 . S
C1056 C1057 1.401 . S
C1056 H1066 0.930 1_554 S
C1057 C1055 1.392 . S
C1057 C1056 1.401 . S
C1057 H1067 0.930 . S
C1058 O1036 1.262 . S
C1058 O1037 1.260 . S
C1059 Tb995 2.833 . S
C1059 O1034 1.251 . S
C1059 O1039 1.256 . S
C1059 C1052 1.500 . S
H1060 C1043 0.930 1_556 S
H1061 C1044 0.931 . S
H1062 C1045 0.930 . S
H1063 C1046 0.930 . S
H1064 C1053 0.930 . S
H1065 C1055 0.931 . S
H1066 C1056 0.930 1_556 S
H1067 C1057 0.930 . S
Tb1068 N1099 2.660 . S
Tb1068 N1106 2.600 . S
Tb1068 O1112 2.546 . S
Tb1068 O1113 2.610 . S
Tb1068 O1115 2.320 . S
Tb1068 O1116 2.552 . S
Tb1068 O1117 2.413 . S
Tb1068 O1119 2.362 . S
Tb1068 O1120 2.421 . S
Tb1068 C1132 2.833 . S
C1069 C1072 1.432 . S
C1069 C1073 1.414 . S
C1069 N1076 1.359 . S
C1070 C1072 1.417 . S
C1070 C1074 1.432 . S
C1070 C1082 1.410 . S
C1071 C1073 1.444 . S
C1071 C1074 1.317 . S
C1071 H1094 0.929 . S
C1072 C1069 1.432 . S
C1072 C1070 1.417 . S
C1072 N1080 1.360 . S
C1073 C1069 1.414 . S
C1073 C1071 1.444 . S
C1073 C1078 1.385 . S
C1074 C1070 1.432 . S
C1074 C1071 1.317 . S
C1074 H1086 0.930 . S
C1075 C1077 1.392 . S
C1075 C1078 1.370 . S
C1075 H1087 0.931 . S
N1076 C1069 1.359 . S
N1076 C1077 1.327 . S
N1076 Tb1079 2.600 . S
C1077 C1075 1.392 . S
C1077 N1076 1.327 . S
C1077 H1084 0.930 . S
C1078 C1073 1.385 . S
C1078 C1075 1.370 . S
C1078 H1097 0.930 . S
Tb1079 N1076 2.600 . S
Tb1079 N1080 2.660 . S
Tb1079 O1113 2.362 . S
Tb1079 O1114 2.421 . S
Tb1079 O1118 2.546 . S
Tb1079 O1119 2.610 . S
Tb1079 O1121 2.320 . S
Tb1079 O1122 2.552 . S
Tb1079 O1123 2.413 . S
Tb1079 C1143 2.833 . S
N1080 C1072 1.360 . S
N1080 Tb1079 2.660 . S
N1080 C1081 1.305 . S
C1081 N1080 1.305 . S
C1081 C1083 1.407 . S
C1081 H1088 0.930 . S
C1082 C1070 1.410 . S
C1082 C1083 1.345 . S
C1082 H1090 0.930 . S
C1083 C1081 1.407 . S
C1083 C1082 1.345 . S
C1083 H1085 0.930 . S
H1084 C1077 0.930 . S
H1085 C1083 0.930 . S
H1086 C1074 0.930 . S
H1087 C1075 0.931 . S
H1088 C1081 0.930 . S
H1089 C1103 0.930 . S
H1090 C1082 0.930 . S
H1091 C1109 0.930 . S
H1092 C1100 0.930 . S
H1093 C1107 0.931 . S
H1094 C1071 0.929 . S
H1095 C1101 0.930 . S
H1096 C1134 0.930 . S
H1097 C1078 0.930 . S
H1098 C1133 0.929 . S
N1099 Tb1068 2.660 . S
N1099 C1100 1.305 . S
N1099 C1104 1.360 . S
C1100 H1092 0.930 . S
C1100 N1099 1.305 . S
C1100 C1103 1.407 . S
C1101 H1095 0.930 . S
C1101 C1102 1.410 . S
C1101 C1103 1.345 . S
C1102 C1101 1.410 . S
C1102 C1104 1.417 . S
C1102 C1134 1.432 . S
C1103 H1089 0.930 . S
C1103 C1100 1.407 . S
C1103 C1101 1.345 . S
C1104 N1099 1.360 . S
C1104 C1102 1.417 . S
C1104 C1108 1.432 . S
H1105 C1110 0.930 . S
N1106 Tb1068 2.600 . S
N1106 C1108 1.359 . S
N1106 C1109 1.327 . S
C1107 H1093 0.931 . S
C1107 C1109 1.392 . S
C1107 C1110 1.370 . S
C1108 C1104 1.432 . S
C1108 N1106 1.359 . S
C1108 C1111 1.414 . S
C1109 H1091 0.930 . S
C1109 N1106 1.327 . S
C1109 C1107 1.392 . S
C1110 H1105 0.930 . S
C1110 C1107 1.370 . S
C1110 C1111 1.385 . S
C1111 C1108 1.414 . S
C1111 C1110 1.385 . S
C1111 C1133 1.444 . S
O1112 Tb1068 2.546 . S
O1112 C1132 1.251 . S
O1113 Tb1068 2.610 . S
O1113 Tb1079 2.362 . S
O1113 C1124 1.283 . S
O1114 Tb1079 2.421 . S
O1114 C1131 1.262 . S
O1115 Tb1068 2.320 . S
O1115 C1131 1.260 . S
O1116 Tb1068 2.552 . S
O1116 C1124 1.243 . S
O1117 Tb1068 2.413 . S
O1117 C1132 1.256 . S
O1118 Tb1079 2.546 . S
O1118 C1143 1.251 . S
O1119 Tb1068 2.362 . S
O1119 Tb1079 2.610 . S
O1119 C1135 1.283 . S
O1120 Tb1068 2.421 . S
O1120 C1142 1.262 . S
O1121 Tb1079 2.320 . S
O1121 C1142 1.260 . S
O1122 Tb1079 2.552 . S
O1122 C1135 1.243 . S
O1123 Tb1079 2.413 . S
O1123 C1143 1.256 . S
C1124 O1113 1.283 . S
C1124 O1116 1.243 . S
C1125 C1127 1.382 . S
C1125 C1129 1.393 . S
C1125 C1132 1.500 . S
C1126 C1127 1.400 . S
C1126 C1128 1.384 1_655 S
C1127 C1125 1.382 . S
C1127 C1126 1.400 . S
C1127 H1144 0.930 . S
C1128 C1126 1.384 1_455 S
C1128 C1130 1.392 1_455 S
C1128 H1145 0.931 . S
C1129 C1125 1.393 . S
C1129 C1130 1.401 . S
C1129 H1146 0.930 . S
C1130 C1128 1.392 1_655 S
C1130 C1129 1.401 . S
C1130 H1147 0.930 1_655 S
C1131 O1114 1.262 . S
C1131 O1115 1.260 . S
C1132 Tb1068 2.833 . S
C1132 O1112 1.251 . S
C1132 O1117 1.256 . S
C1132 C1125 1.500 . S
C1133 H1098 0.929 . S
C1133 C1111 1.444 . S
C1133 C1134 1.317 . S
C1134 H1096 0.930 . S
C1134 C1102 1.432 . S
C1134 C1133 1.317 . S
C1135 O1119 1.283 . S
C1135 O1122 1.243 . S
C1136 C1137 1.382 . S
C1136 C1140 1.393 . S
C1136 C1143 1.500 . S
C1137 C1136 1.382 . S
C1137 C1138 1.400 . S
C1137 H1148 0.930 . S
C1138 C1137 1.400 . S
C1138 C1139 1.384 . S
C1139 C1138 1.384 . S
C1139 C1141 1.392 . S
C1139 H1149 0.931 . S
C1140 C1136 1.393 . S
C1140 C1141 1.401 . S
C1140 H1150 0.930 . S
C1141 C1139 1.392 . S
C1141 C1140 1.401 . S
C1141 H1151 0.930 . S
C1142 O1120 1.262 . S
C1142 O1121 1.260 . S
C1143 Tb1079 2.833 . S
C1143 O1118 1.251 . S
C1143 O1123 1.256 . S
C1143 C1136 1.500 . S
H1144 C1127 0.930 . S
H1145 C1128 0.931 . S
H1146 C1129 0.930 . S
H1147 C1130 0.930 1_455 S
H1148 C1137 0.930 . S
H1149 C1139 0.931 . S
H1150 C1140 0.930 . S
H1151 C1141 0.930 . S
Tb1152 N1183 2.660 . S
Tb1152 N1190 2.600 . S
Tb1152 O1196 2.546 . S
Tb1152 O1197 2.610 . S
Tb1152 O1199 2.320 . S
Tb1152 O1200 2.552 . S
Tb1152 O1201 2.413 . S
Tb1152 O1203 2.362 . S
Tb1152 O1204 2.421 . S
Tb1152 C1216 2.833 . S
C1153 C1156 1.432 . S
C1153 C1157 1.414 1_455 S
C1153 N1160 1.359 . S
C1154 C1156 1.417 1_655 S
C1154 C1158 1.432 . S
C1154 C1166 1.410 . S
C1155 C1157 1.444 . S
C1155 C1158 1.317 . S
C1155 H1178 0.929 . S
C1156 C1153 1.432 . S
C1156 C1154 1.417 1_455 S
C1156 N1164 1.360 . S
C1157 C1153 1.414 1_655 S
C1157 C1155 1.444 . S
C1157 C1162 1.385 . S
C1158 C1154 1.432 . S
C1158 C1155 1.317 . S
C1158 H1170 0.930 . S
C1159 C1161 1.392 . S
C1159 C1162 1.370 1_455 S
C1159 H1171 0.931 . S
N1160 C1153 1.359 . S
N1160 C1161 1.327 . S
N1160 Tb1163 2.600 . S
C1161 C1159 1.392 . S
C1161 N1160 1.327 . S
C1161 H1168 0.930 . S
C1162 C1157 1.385 . S
C1162 C1159 1.370 1_655 S
C1162 H1181 0.930 . S
Tb1163 N1160 2.600 . S
Tb1163 N1164 2.660 . S
Tb1163 O1197 2.362 . S
Tb1163 O1198 2.421 . S
Tb1163 O1202 2.546 . S
Tb1163 O1203 2.610 . S
Tb1163 O1205 2.320 . S
Tb1163 O1206 2.552 . S
Tb1163 O1207 2.413 . S
Tb1163 C1227 2.833 . S
N1164 C1156 1.360 . S
N1164 Tb1163 2.660 . S
N1164 C1165 1.305 . S
C1165 N1164 1.305 . S
C1165 C1167 1.407 1_455 S
C1165 H1172 0.930 . S
C1166 C1154 1.410 . S
C1166 C1167 1.345 . S
C1166 H1174 0.930 . S
C1167 C1165 1.407 1_655 S
C1167 C1166 1.345 . S
C1167 H1169 0.930 . S
H1168 C1161 0.930 . S
H1169 C1167 0.930 . S
H1170 C1158 0.930 . S
H1171 C1159 0.931 . S
H1172 C1165 0.930 . S
H1173 C1187 0.930 . S
H1174 C1166 0.930 . S
H1175 C1193 0.930 . S
H1176 C1184 0.930 . S
H1177 C1191 0.931 . S
H1178 C1155 0.929 . S
H1179 C1185 0.930 . S
H1180 C1218 0.930 . S
H1181 C1162 0.930 . S
H1182 C1217 0.929 . S
N1183 Tb1152 2.660 . S
N1183 C1184 1.305 . S
N1183 C1188 1.360 . S
C1184 H1176 0.930 . S
C1184 N1183 1.305 . S
C1184 C1187 1.407 . S
C1185 H1179 0.930 . S
C1185 C1186 1.410 . S
C1185 C1187 1.345 . S
C1186 C1185 1.410 . S
C1186 C1188 1.417 . S
C1186 C1218 1.432 . S
C1187 H1173 0.930 . S
C1187 C1184 1.407 . S
C1187 C1185 1.345 . S
C1188 N1183 1.360 . S
C1188 C1186 1.417 . S
C1188 C1192 1.432 . S
H1189 C1194 0.930 . S
N1190 Tb1152 2.600 . S
N1190 C1192 1.359 . S
N1190 C1193 1.327 . S
C1191 H1177 0.931 . S
C1191 C1193 1.392 . S
C1191 C1194 1.370 . S
C1192 C1188 1.432 . S
C1192 N1190 1.359 . S
C1192 C1195 1.414 . S
C1193 H1175 0.930 . S
C1193 N1190 1.327 . S
C1193 C1191 1.392 . S
C1194 H1189 0.930 . S
C1194 C1191 1.370 . S
C1194 C1195 1.385 . S
C1195 C1192 1.414 . S
C1195 C1194 1.385 . S
C1195 C1217 1.444 . S
O1196 Tb1152 2.546 . S
O1196 C1216 1.251 . S
O1197 Tb1152 2.610 . S
O1197 Tb1163 2.362 . S
O1197 C1208 1.283 . S
O1198 Tb1163 2.421 . S
O1198 C1215 1.262 . S
O1199 Tb1152 2.320 . S
O1199 C1215 1.260 . S
O1200 Tb1152 2.552 . S
O1200 C1208 1.243 . S
O1201 Tb1152 2.413 . S
O1201 C1216 1.256 . S
O1202 Tb1163 2.546 . S
O1202 C1227 1.251 . S
O1203 Tb1152 2.362 . S
O1203 Tb1163 2.610 . S
O1203 C1219 1.283 . S
O1204 Tb1152 2.421 . S
O1204 C1226 1.262 . S
O1205 Tb1163 2.320 . S
O1205 C1226 1.260 . S
O1206 Tb1163 2.552 . S
O1206 C1219 1.243 . S
O1207 Tb1163 2.413 . S
O1207 C1227 1.256 . S
C1208 O1197 1.283 . S
C1208 O1200 1.243 . S
C1209 C1211 1.382 . S
C1209 C1213 1.393 . S
C1209 C1216 1.500 . S
C1210 C1211 1.400 . S
C1210 C1212 1.384 . S
C1211 C1209 1.382 . S
C1211 C1210 1.400 . S
C1211 H1228 0.930 . S
C1212 C1210 1.384 . S
C1212 C1214 1.392 . S
C1212 H1229 0.915 1_455 S
C1213 C1209 1.393 . S
C1213 C1214 1.401 . S
C1213 H1230 0.930 . S
C1214 C1212 1.392 . S
C1214 C1213 1.401 . S
C1214 H1231 0.930 . S
C1215 O1198 1.262 . S
C1215 O1199 1.260 . S
C1216 Tb1152 2.833 . S
C1216 O1196 1.251 . S
C1216 O1201 1.256 . S
C1216 C1209 1.500 . S
C1217 H1182 0.929 . S
C1217 C1195 1.444 . S
C1217 C1218 1.317 . S
C1218 H1180 0.930 . S
C1218 C1186 1.432 . S
C1218 C1217 1.317 . S
C1219 O1203 1.283 . S
C1219 O1206 1.243 . S
C1220 C1221 1.382 . S
C1220 C1224 1.393 . S
C1220 C1227 1.500 . S
C1221 C1220 1.382 . S
C1221 C1222 1.400 . S
C1221 H1232 0.930 . S
C1222 C1221 1.400 . S
C1222 C1223 1.384 . S
C1223 C1222 1.384 . S
C1223 C1225 1.392 . S
C1223 H1233 0.931 . S
C1224 C1220 1.393 . S
C1224 C1225 1.401 . S
C1224 H1234 0.930 . S
C1225 C1223 1.392 . S
C1225 C1224 1.401 . S
C1225 H1235 0.930 . S
C1226 O1204 1.262 . S
C1226 O1205 1.260 . S
C1227 Tb1163 2.833 . S
C1227 O1202 1.251 . S
C1227 O1207 1.256 . S
C1227 C1220 1.500 . S
H1228 C1211 0.930 . S
H1229 C1212 0.915 1_655 S
H1230 C1213 0.930 . S
H1231 C1214 0.930 . S
H1232 C1221 0.930 . S
H1233 C1223 0.931 . S
H1234 C1224 0.930 . S
H1235 C1225 0.930 . S
Tb1236 N1267 2.660 . S
Tb1236 N1274 2.600 . S
Tb1236 O1280 2.546 . S
Tb1236 O1281 2.610 . S
Tb1236 O1283 2.320 . S
Tb1236 O1284 2.552 . S
Tb1236 O1285 2.413 . S
Tb1236 O1287 2.362 . S
Tb1236 O1288 2.421 . S
Tb1236 C1300 2.833 . S
C1237 C1240 1.432 . S
C1237 C1241 1.414 . S
C1237 N1244 1.359 . S
C1238 C1240 1.417 . S
C1238 C1242 1.432 . S
C1238 C1250 1.410 . S
C1239 C1241 1.444 . S
C1239 C1242 1.317 . S
C1239 H1262 0.929 . S
C1240 C1237 1.432 . S
C1240 C1238 1.417 . S
C1240 N1248 1.360 . S
C1241 C1237 1.414 . S
C1241 C1239 1.444 . S
C1241 C1246 1.385 . S
C1242 C1238 1.432 . S
C1242 C1239 1.317 . S
C1242 H1254 0.930 . S
C1243 C1245 1.392 . S
C1243 C1246 1.370 . S
C1243 H1255 0.931 . S
N1244 C1237 1.359 . S
N1244 C1245 1.327 . S
N1244 Tb1247 2.600 . S
C1245 C1243 1.392 . S
C1245 N1244 1.327 . S
C1245 H1252 0.930 . S
C1246 C1241 1.385 . S
C1246 C1243 1.370 . S
C1246 H1265 0.930 . S
Tb1247 N1244 2.600 . S
Tb1247 N1248 2.660 . S
Tb1247 O1281 2.362 . S
Tb1247 O1282 2.421 . S
Tb1247 O1286 2.546 . S
Tb1247 O1287 2.610 . S
Tb1247 O1289 2.320 . S
Tb1247 O1290 2.552 . S
Tb1247 O1291 2.413 . S
Tb1247 C1311 2.833 . S
N1248 C1240 1.360 . S
N1248 Tb1247 2.660 . S
N1248 C1249 1.305 . S
C1249 N1248 1.305 . S
C1249 C1251 1.407 . S
C1249 H1256 0.930 . S
C1250 C1238 1.410 . S
C1250 C1251 1.345 . S
C1250 H1258 0.930 . S
C1251 C1249 1.407 . S
C1251 C1250 1.345 . S
C1251 H1253 0.930 . S
H1252 C1245 0.930 . S
H1253 C1251 0.930 . S
H1254 C1242 0.930 . S
H1255 C1243 0.931 . S
H1256 C1249 0.930 . S
H1257 C1271 0.930 . S
H1258 C1250 0.930 . S
H1259 C1277 0.930 . S
H1260 C1268 0.930 . S
H1261 C1275 0.931 . S
H1262 C1239 0.929 . S
H1263 C1269 0.930 . S
H1264 C1302 0.930 . S
H1265 C1246 0.930 . S
H1266 C1301 0.929 . S
N1267 Tb1236 2.660 . S
N1267 C1268 1.305 . S
N1267 C1272 1.360 . S
C1268 H1260 0.930 . S
C1268 N1267 1.305 . S
C1268 C1271 1.407 . S
C1269 H1263 0.930 . S
C1269 C1270 1.410 . S
C1269 C1271 1.345 . S
C1270 C1269 1.410 . S
C1270 C1272 1.417 . S
C1270 C1302 1.432 . S
C1271 H1257 0.930 . S
C1271 C1268 1.407 . S
C1271 C1269 1.345 . S
C1272 N1267 1.360 . S
C1272 C1270 1.417 . S
C1272 C1276 1.432 . S
H1273 C1278 0.930 . S
N1274 Tb1236 2.600 . S
N1274 C1276 1.359 . S
N1274 C1277 1.327 . S
C1275 H1261 0.931 . S
C1275 C1277 1.392 . S
C1275 C1278 1.370 . S
C1276 C1272 1.432 . S
C1276 N1274 1.359 . S
C1276 C1279 1.414 . S
C1277 H1259 0.930 . S
C1277 N1274 1.327 . S
C1277 C1275 1.392 . S
C1278 H1273 0.930 . S
C1278 C1275 1.370 . S
C1278 C1279 1.385 . S
C1279 C1276 1.414 . S
C1279 C1278 1.385 . S
C1279 C1301 1.444 . S
O1280 Tb1236 2.546 . S
O1280 C1300 1.251 . S
O1281 Tb1236 2.610 . S
O1281 Tb1247 2.362 . S
O1281 C1292 1.283 . S
O1282 Tb1247 2.421 . S
O1282 C1299 1.262 . S
O1283 Tb1236 2.320 . S
O1283 C1299 1.260 . S
O1284 Tb1236 2.552 . S
O1284 C1292 1.243 . S
O1285 Tb1236 2.413 . S
O1285 C1300 1.256 . S
O1286 Tb1247 2.546 . S
O1286 C1311 1.251 . S
O1287 Tb1236 2.362 . S
O1287 Tb1247 2.610 . S
O1287 C1303 1.283 . S
O1288 Tb1236 2.421 . S
O1288 C1310 1.262 . S
O1289 Tb1247 2.320 . S
O1289 C1310 1.260 . S
O1290 Tb1247 2.552 . S
O1290 C1303 1.243 . S
O1291 Tb1247 2.413 . S
O1291 C1311 1.256 . S
C1292 O1281 1.283 . S
C1292 O1284 1.243 . S
C1293 C1295 1.382 . S
C1293 C1297 1.393 . S
C1293 C1300 1.500 . S
C1294 C1295 1.400 . S
C1294 C1296 1.384 . S
C1295 C1293 1.382 . S
C1295 C1294 1.400 . S
C1295 H1312 0.930 . S
C1296 C1294 1.384 . S
C1296 C1298 1.392 . S
C1296 H1313 0.931 . S
C1297 C1293 1.393 . S
C1297 C1298 1.401 . S
C1297 H1314 0.930 . S
C1298 C1296 1.392 . S
C1298 C1297 1.401 . S
C1298 H1315 0.930 . S
C1299 O1282 1.262 . S
C1299 O1283 1.260 . S
C1300 Tb1236 2.833 . S
C1300 O1280 1.251 . S
C1300 O1285 1.256 . S
C1300 C1293 1.500 . S
C1301 H1266 0.929 . S
C1301 C1279 1.444 . S
C1301 C1302 1.317 . S
C1302 H1264 0.930 . S
C1302 C1270 1.432 . S
C1302 C1301 1.317 . S
C1303 O1287 1.283 . S
C1303 O1290 1.243 . S
C1304 C1305 1.382 . S
C1304 C1308 1.393 . S
C1304 C1311 1.500 . S
C1305 C1304 1.382 . S
C1305 C1306 1.400 . S
C1305 H1316 0.930 . S
C1306 C1305 1.400 . S
C1306 C1307 1.384 . S
C1307 C1306 1.384 . S
C1307 C1309 1.392 . S
C1307 H1317 0.931 . S
C1308 C1304 1.393 . S
C1308 C1309 1.401 . S
C1308 H1318 0.930 . S
C1309 C1307 1.392 . S
C1309 C1308 1.401 . S
C1309 H1319 0.930 . S
C1310 O1288 1.262 . S
C1310 O1289 1.260 . S
C1311 Tb1247 2.833 . S
C1311 O1286 1.251 . S
C1311 O1291 1.256 . S
C1311 C1304 1.500 . S
H1312 C1295 0.930 . S
H1313 C1296 0.931 . S
H1314 C1297 0.930 . S
H1315 C1298 0.930 . S
H1316 C1305 0.930 . S
H1317 C1307 0.931 . S
H1318 C1308 0.930 . S
H1319 C1309 0.930 . S
Tb1320 N1351 2.660 . S
Tb1320 N1358 2.600 . S
Tb1320 O1364 2.546 . S
Tb1320 O1365 2.610 . S
Tb1320 O1367 2.320 . S
Tb1320 O1368 2.552 . S
Tb1320 O1369 2.413 . S
Tb1320 O1371 2.362 . S
Tb1320 O1372 2.421 . S
Tb1320 C1384 2.833 . S
C1321 C1324 1.432 . S
C1321 C1325 1.414 . S
C1321 N1328 1.359 . S
C1322 C1324 1.417 . S
C1322 C1326 1.432 . S
C1322 C1334 1.410 . S
C1323 C1325 1.444 . S
C1323 C1326 1.317 . S
C1323 H1346 0.929 . S
C1324 C1321 1.432 . S
C1324 C1322 1.417 . S
C1324 N1332 1.360 . S
C1325 C1321 1.414 . S
C1325 C1323 1.444 . S
C1325 C1330 1.385 . S
C1326 C1322 1.432 . S
C1326 C1323 1.317 . S
C1326 H1338 0.930 . S
C1327 C1329 1.392 . S
C1327 C1330 1.370 . S
C1327 H1339 0.931 . S
N1328 C1321 1.359 . S
N1328 C1329 1.327 . S
N1328 Tb1331 2.600 . S
C1329 C1327 1.392 . S
C1329 N1328 1.327 . S
C1329 H1336 0.930 . S
C1330 C1325 1.385 . S
C1330 C1327 1.370 . S
C1330 H1349 0.930 . S
Tb1331 N1328 2.600 . S
Tb1331 N1332 2.660 . S
Tb1331 O1365 2.362 . S
Tb1331 O1366 2.421 . S
Tb1331 O1370 2.546 . S
Tb1331 O1371 2.610 . S
Tb1331 O1373 2.320 . S
Tb1331 O1374 2.552 . S
Tb1331 O1375 2.413 . S
Tb1331 C1395 2.833 . S
N1332 C1324 1.360 . S
N1332 Tb1331 2.660 . S
N1332 C1333 1.305 . S
C1333 N1332 1.305 . S
C1333 C1335 1.407 . S
C1333 H1340 0.930 . S
C1334 C1322 1.410 . S
C1334 C1335 1.345 . S
C1334 H1342 0.930 . S
C1335 C1333 1.407 . S
C1335 C1334 1.345 . S
C1335 H1337 0.930 . S
H1336 C1329 0.930 . S
H1337 C1335 0.930 . S
H1338 C1326 0.930 . S
H1339 C1327 0.931 . S
H1340 C1333 0.930 . S
H1341 C1355 0.930 . S
H1342 C1334 0.930 . S
H1343 C1361 0.930 . S
H1344 C1352 0.930 . S
H1345 C1359 0.931 . S
H1346 C1323 0.929 . S
H1347 C1353 0.930 . S
H1348 C1386 0.930 . S
H1349 C1330 0.930 . S
H1350 C1385 0.929 . S
N1351 Tb1320 2.660 . S
N1351 C1352 1.305 . S
N1351 C1356 1.360 . S
C1352 H1344 0.930 . S
C1352 N1351 1.305 . S
C1352 C1355 1.407 . S
C1353 H1347 0.930 . S
C1353 C1354 1.410 . S
C1353 C1355 1.345 . S
C1354 C1353 1.410 . S
C1354 C1356 1.417 . S
C1354 C1386 1.432 . S
C1355 H1341 0.930 . S
C1355 C1352 1.407 . S
C1355 C1353 1.345 . S
C1356 N1351 1.360 . S
C1356 C1354 1.417 . S
C1356 C1360 1.432 . S
H1357 C1362 0.930 . S
N1358 Tb1320 2.600 . S
N1358 C1360 1.359 . S
N1358 C1361 1.327 . S
C1359 H1345 0.931 . S
C1359 C1361 1.392 . S
C1359 C1362 1.370 . S
C1360 C1356 1.432 . S
C1360 N1358 1.359 . S
C1360 C1363 1.414 . S
C1361 H1343 0.930 . S
C1361 N1358 1.327 . S
C1361 C1359 1.392 . S
C1362 H1357 0.930 . S
C1362 C1359 1.370 . S
C1362 C1363 1.385 . S
C1363 C1360 1.414 . S
C1363 C1362 1.385 . S
C1363 C1385 1.444 . S
O1364 Tb1320 2.546 . S
O1364 C1384 1.251 . S
O1365 Tb1320 2.610 . S
O1365 Tb1331 2.362 . S
O1365 C1376 1.283 . S
O1366 Tb1331 2.421 . S
O1366 C1383 1.262 . S
O1367 Tb1320 2.320 . S
O1367 C1383 1.260 . S
O1368 Tb1320 2.552 . S
O1368 C1376 1.243 . S
O1369 Tb1320 2.413 . S
O1369 C1384 1.256 . S
O1370 Tb1331 2.546 . S
O1370 C1395 1.251 . S
O1371 Tb1320 2.362 . S
O1371 Tb1331 2.610 . S
O1371 C1387 1.283 . S
O1372 Tb1320 2.421 . S
O1372 C1394 1.262 . S
O1373 Tb1331 2.320 . S
O1373 C1394 1.260 . S
O1374 Tb1331 2.552 . S
O1374 C1387 1.243 . S
O1375 Tb1331 2.413 . S
O1375 C1395 1.256 . S
C1376 O1365 1.283 . S
C1376 O1368 1.243 . S
C1377 C1379 1.382 . S
C1377 C1381 1.393 . S
C1377 C1384 1.500 . S
C1378 C1379 1.400 . S
C1378 C1380 1.384 . S
C1379 C1377 1.382 . S
C1379 C1378 1.400 . S
C1379 H1396 0.930 . S
C1380 C1378 1.384 . S
C1380 C1382 1.392 . S
C1380 H1397 0.931 . S
C1381 C1377 1.393 . S
C1381 C1382 1.401 . S
C1381 H1398 0.930 . S
C1382 C1380 1.392 . S
C1382 C1381 1.401 . S
C1382 H1399 0.930 . S
C1383 O1366 1.262 . S
C1383 O1367 1.260 . S
C1384 Tb1320 2.833 . S
C1384 O1364 1.251 . S
C1384 O1369 1.256 . S
C1384 C1377 1.500 . S
C1385 H1350 0.929 . S
C1385 C1363 1.444 . S
C1385 C1386 1.317 . S
C1386 H1348 0.930 . S
C1386 C1354 1.432 . S
C1386 C1385 1.317 . S
C1387 O1371 1.283 . S
C1387 O1374 1.243 . S
C1388 C1389 1.382 . S
C1388 C1392 1.393 . S
C1388 C1395 1.500 . S
C1389 C1388 1.382 . S
C1389 C1390 1.400 . S
C1389 H1400 0.930 . S
C1390 C1389 1.400 . S
C1390 C1391 1.384 . S
C1391 C1390 1.384 . S
C1391 C1393 1.392 . S
C1391 H1401 0.931 . S
C1392 C1388 1.393 . S
C1392 C1393 1.401 . S
C1392 H1402 0.930 . S
C1393 C1391 1.392 . S
C1393 C1392 1.401 . S
C1393 H1403 0.930 . S
C1394 O1372 1.262 . S
C1394 O1373 1.260 . S
C1395 Tb1331 2.833 . S
C1395 O1370 1.251 . S
C1395 O1375 1.256 . S
C1395 C1388 1.500 . S
H1396 C1379 0.930 . S
H1397 C1380 0.931 . S
H1398 C1381 0.930 . S
H1399 C1382 0.930 . S
H1400 C1389 0.930 . S
H1401 C1391 0.931 . S
H1402 C1392 0.930 . S
H1403 C1393 0.930 . S
Tb1404 N1435 2.660 . S
Tb1404 N1442 2.600 . S
Tb1404 O1448 2.546 . S
Tb1404 O1449 2.610 . S
Tb1404 O1451 2.320 . S
Tb1404 O1452 2.552 . S
Tb1404 O1453 2.413 . S
Tb1404 O1455 2.362 . S
Tb1404 O1456 2.421 . S
Tb1404 C1468 2.833 . S
C1405 C1408 1.432 . S
C1405 C1409 1.414 . S
C1405 N1412 1.359 . S
C1406 C1408 1.417 . S
C1406 C1410 1.432 . S
C1406 C1418 1.410 . S
C1407 C1409 1.444 . S
C1407 C1410 1.317 . S
C1407 H1430 0.929 . S
C1408 C1405 1.432 . S
C1408 C1406 1.417 . S
C1408 N1416 1.360 . S
C1409 C1405 1.414 . S
C1409 C1407 1.444 . S
C1409 C1414 1.385 . S
C1410 C1406 1.432 . S
C1410 C1407 1.317 . S
C1410 H1422 0.930 . S
C1411 C1413 1.392 . S
C1411 C1414 1.370 . S
C1411 H1423 0.931 . S
N1412 C1405 1.359 . S
N1412 C1413 1.327 . S
N1412 Tb1415 2.600 . S
C1413 C1411 1.392 . S
C1413 N1412 1.327 . S
C1413 H1420 0.930 . S
C1414 C1409 1.385 . S
C1414 C1411 1.370 . S
C1414 H1433 0.930 . S
Tb1415 N1412 2.600 . S
Tb1415 N1416 2.660 . S
Tb1415 O1449 2.362 . S
Tb1415 O1450 2.421 . S
Tb1415 O1454 2.546 . S
Tb1415 O1455 2.610 . S
Tb1415 O1457 2.320 . S
Tb1415 O1458 2.552 . S
Tb1415 O1459 2.413 . S
Tb1415 C1479 2.833 . S
N1416 C1408 1.360 . S
N1416 Tb1415 2.660 . S
N1416 C1417 1.305 . S
C1417 N1416 1.305 . S
C1417 C1419 1.407 . S
C1417 H1424 0.930 . S
C1418 C1406 1.410 . S
C1418 C1419 1.345 . S
C1418 H1426 0.930 . S
C1419 C1417 1.407 . S
C1419 C1418 1.345 . S
C1419 H1421 0.930 . S
H1420 C1413 0.930 . S
H1421 C1419 0.930 . S
H1422 C1410 0.930 . S
H1423 C1411 0.931 . S
H1424 C1417 0.930 . S
H1425 C1439 0.930 . S
H1426 C1418 0.930 . S
H1427 C1445 0.930 . S
H1428 C1436 0.930 . S
H1429 C1443 0.931 . S
H1430 C1407 0.929 . S
H1431 C1437 0.930 . S
H1432 C1470 0.930 . S
H1433 C1414 0.930 . S
H1434 C1469 0.929 . S
N1435 Tb1404 2.660 . S
N1435 C1436 1.305 . S
N1435 C1440 1.360 . S
C1436 H1428 0.930 . S
C1436 N1435 1.305 . S
C1436 C1439 1.407 . S
C1437 H1431 0.930 . S
C1437 C1438 1.410 . S
C1437 C1439 1.345 . S
C1438 C1437 1.410 . S
C1438 C1440 1.417 . S
C1438 C1470 1.432 . S
C1439 H1425 0.930 . S
C1439 C1436 1.407 . S
C1439 C1437 1.345 . S
C1440 N1435 1.360 . S
C1440 C1438 1.417 . S
C1440 C1444 1.432 . S
H1441 C1446 0.930 . S
N1442 Tb1404 2.600 . S
N1442 C1444 1.359 . S
N1442 C1445 1.327 . S
C1443 H1429 0.931 . S
C1443 C1445 1.392 . S
C1443 C1446 1.370 . S
C1444 C1440 1.432 . S
C1444 N1442 1.359 . S
C1444 C1447 1.414 . S
C1445 H1427 0.930 . S
C1445 N1442 1.327 . S
C1445 C1443 1.392 . S
C1446 H1441 0.930 . S
C1446 C1443 1.370 . S
C1446 C1447 1.385 . S
C1447 C1444 1.414 . S
C1447 C1446 1.385 . S
C1447 C1469 1.444 . S
O1448 Tb1404 2.546 . S
O1448 C1468 1.251 . S
O1449 Tb1404 2.610 . S
O1449 Tb1415 2.362 . S
O1449 C1460 1.283 . S
O1450 Tb1415 2.421 . S
O1450 C1467 1.262 . S
O1451 Tb1404 2.320 . S
O1451 C1467 1.260 . S
O1452 Tb1404 2.552 . S
O1452 C1460 1.243 . S
O1453 Tb1404 2.413 . S
O1453 C1468 1.256 . S
O1454 Tb1415 2.546 . S
O1454 C1479 1.251 . S
O1455 Tb1404 2.362 . S
O1455 Tb1415 2.610 . S
O1455 C1471 1.283 . S
O1456 Tb1404 2.421 . S
O1456 C1478 1.262 . S
O1457 Tb1415 2.320 . S
O1457 C1478 1.260 . S
O1458 Tb1415 2.552 . S
O1458 C1471 1.243 . S
O1459 Tb1415 2.413 . S
O1459 C1479 1.256 . S
C1460 O1449 1.283 . S
C1460 O1452 1.243 . S
C1461 C1463 1.382 . S
C1461 C1465 1.393 . S
C1461 C1468 1.500 . S
C1462 C1463 1.400 . S
C1462 C1464 1.384 1_565 S
C1463 C1461 1.382 . S
C1463 C1462 1.400 . S
C1463 H1480 0.930 . S
C1464 C1462 1.384 1_545 S
C1464 C1466 1.392 1_545 S
C1464 H1481 0.931 . S
C1465 C1461 1.393 . S
C1465 C1466 1.401 . S
C1465 H1482 0.930 . S
C1466 C1464 1.392 1_565 S
C1466 C1465 1.401 . S
C1466 H1483 0.930 1_565 S
C1467 O1450 1.262 . S
C1467 O1451 1.260 . S
C1468 Tb1404 2.833 . S
C1468 O1448 1.251 . S
C1468 O1453 1.256 . S
C1468 C1461 1.500 . S
C1469 H1434 0.929 . S
C1469 C1447 1.444 . S
C1469 C1470 1.317 . S
C1470 H1432 0.930 . S
C1470 C1438 1.432 . S
C1470 C1469 1.317 . S
C1471 O1455 1.283 . S
C1471 O1458 1.243 . S
C1472 C1473 1.382 . S
C1472 C1476 1.393 . S
C1472 C1479 1.500 . S
C1473 C1472 1.382 . S
C1473 C1474 1.400 . S
C1473 H1484 0.930 . S
C1474 C1473 1.400 . S
C1474 C1475 1.384 . S
C1475 C1474 1.384 . S
C1475 C1477 1.392 . S
C1475 H1485 0.931 . S
C1476 C1472 1.393 . S
C1476 C1477 1.401 . S
C1476 H1486 0.930 . S
C1477 C1475 1.392 . S
C1477 C1476 1.401 . S
C1477 H1487 0.930 . S
C1478 O1456 1.262 . S
C1478 O1457 1.260 . S
C1479 Tb1415 2.833 . S
C1479 O1454 1.251 . S
C1479 O1459 1.256 . S
C1479 C1472 1.500 . S
H1480 C1463 0.930 . S
H1481 C1464 0.931 . S
H1482 C1465 0.930 . S
H1483 C1466 0.930 1_545 S
H1484 C1473 0.930 . S
H1485 C1475 0.931 . S
H1486 C1476 0.930 . S
H1487 C1477 0.930 . S
Tb1488 N1519 2.660 . S
Tb1488 N1526 2.600 . S
Tb1488 O1532 2.546 . S
Tb1488 O1533 2.610 . S
Tb1488 O1535 2.320 . S
Tb1488 O1536 2.552 . S
Tb1488 O1537 2.413 . S
Tb1488 O1539 2.362 . S
Tb1488 O1540 2.421 . S
Tb1488 C1552 2.833 . S
C1489 C1492 1.432 . S
C1489 C1493 1.414 . S
C1489 N1496 1.359 . S
C1490 C1492 1.417 . S
C1490 C1494 1.432 . S
C1490 C1502 1.410 . S
C1491 C1493 1.444 . S
C1491 C1494 1.317 . S
C1491 H1514 0.929 . S
C1492 C1489 1.432 . S
C1492 C1490 1.417 . S
C1492 N1500 1.360 . S
C1493 C1489 1.414 . S
C1493 C1491 1.444 . S
C1493 C1498 1.385 . S
C1494 C1490 1.432 . S
C1494 C1491 1.317 . S
C1494 H1506 0.930 . S
C1495 C1497 1.392 . S
C1495 C1498 1.370 . S
C1495 H1507 0.931 . S
N1496 C1489 1.359 . S
N1496 C1497 1.327 . S
N1496 Tb1499 2.600 . S
C1497 C1495 1.392 . S
C1497 N1496 1.327 . S
C1497 H1504 0.930 . S
C1498 C1493 1.385 . S
C1498 C1495 1.370 . S
C1498 H1517 0.930 . S
Tb1499 N1496 2.600 . S
Tb1499 N1500 2.660 . S
Tb1499 O1533 2.362 . S
Tb1499 O1534 2.421 . S
Tb1499 O1538 2.546 . S
Tb1499 O1539 2.610 . S
Tb1499 O1541 2.320 . S
Tb1499 O1542 2.552 . S
Tb1499 O1543 2.413 . S
Tb1499 C1563 2.833 . S
N1500 C1492 1.360 . S
N1500 Tb1499 2.660 . S
N1500 C1501 1.305 . S
C1501 N1500 1.305 . S
C1501 C1503 1.407 . S
C1501 H1508 0.930 . S
C1502 C1490 1.410 . S
C1502 C1503 1.345 . S
C1502 H1510 0.930 . S
C1503 C1501 1.407 . S
C1503 C1502 1.345 . S
C1503 H1505 0.930 . S
H1504 C1497 0.930 . S
H1505 C1503 0.930 . S
H1506 C1494 0.930 . S
H1507 C1495 0.931 . S
H1508 C1501 0.930 . S
H1509 C1523 0.930 . S
H1510 C1502 0.930 . S
H1511 C1529 0.930 . S
H1512 C1520 0.930 . S
H1513 C1527 0.931 . S
H1514 C1491 0.929 . S
H1515 C1521 0.930 . S
H1516 C1554 0.930 . S
H1517 C1498 0.930 . S
H1518 C1553 0.929 . S
N1519 Tb1488 2.660 . S
N1519 C1520 1.305 . S
N1519 C1524 1.360 . S
C1520 H1512 0.930 . S
C1520 N1519 1.305 . S
C1520 C1523 1.407 . S
C1521 H1515 0.930 . S
C1521 C1522 1.410 . S
C1521 C1523 1.345 . S
C1522 C1521 1.410 . S
C1522 C1524 1.417 . S
C1522 C1554 1.432 . S
C1523 H1509 0.930 . S
C1523 C1520 1.407 . S
C1523 C1521 1.345 . S
C1524 N1519 1.360 . S
C1524 C1522 1.417 . S
C1524 C1528 1.432 . S
H1525 C1530 0.930 . S
N1526 Tb1488 2.600 . S
N1526 C1528 1.359 . S
N1526 C1529 1.327 . S
C1527 H1513 0.931 . S
C1527 C1529 1.392 . S
C1527 C1530 1.370 . S
C1528 C1524 1.432 . S
C1528 N1526 1.359 . S
C1528 C1531 1.414 . S
C1529 H1511 0.930 . S
C1529 N1526 1.327 . S
C1529 C1527 1.392 . S
C1530 H1525 0.930 . S
C1530 C1527 1.370 . S
C1530 C1531 1.385 . S
C1531 C1528 1.414 . S
C1531 C1530 1.385 . S
C1531 C1553 1.444 . S
O1532 Tb1488 2.546 . S
O1532 C1552 1.251 . S
O1533 Tb1488 2.610 . S
O1533 Tb1499 2.362 . S
O1533 C1544 1.283 . S
O1534 Tb1499 2.421 . S
O1534 C1551 1.262 . S
O1535 Tb1488 2.320 . S
O1535 C1551 1.260 . S
O1536 Tb1488 2.552 . S
O1536 C1544 1.243 . S
O1537 Tb1488 2.413 . S
O1537 C1552 1.256 . S
O1538 Tb1499 2.546 . S
O1538 C1563 1.251 . S
O1539 Tb1488 2.362 . S
O1539 Tb1499 2.610 . S
O1539 C1555 1.283 . S
O1540 Tb1488 2.421 . S
O1540 C1562 1.262 . S
O1541 Tb1499 2.320 . S
O1541 C1562 1.260 . S
O1542 Tb1499 2.552 . S
O1542 C1555 1.243 . S
O1543 Tb1499 2.413 . S
O1543 C1563 1.256 . S
C1544 O1533 1.283 . S
C1544 O1536 1.243 . S
C1545 C1547 1.382 . S
C1545 C1549 1.393 . S
C1545 C1552 1.500 . S
C1546 C1547 1.400 . S
C1546 C1548 1.384 . S
C1547 C1545 1.382 . S
C1547 C1546 1.400 . S
C1547 H1564 0.930 . S
C1548 C1546 1.384 . S
C1548 C1550 1.392 . S
C1548 H1565 0.931 . S
C1549 C1545 1.393 . S
C1549 C1550 1.401 . S
C1549 H1566 0.930 . S
C1550 C1548 1.392 . S
C1550 C1549 1.401 . S
C1550 H1567 0.930 . S
C1551 O1534 1.262 . S
C1551 O1535 1.260 . S
C1552 Tb1488 2.833 . S
C1552 O1532 1.251 . S
C1552 O1537 1.256 . S
C1552 C1545 1.500 . S
C1553 H1518 0.929 . S
C1553 C1531 1.444 . S
C1553 C1554 1.317 . S
C1554 H1516 0.930 . S
C1554 C1522 1.432 . S
C1554 C1553 1.317 . S
C1555 O1539 1.283 . S
C1555 O1542 1.243 . S
C1556 C1557 1.382 . S
C1556 C1560 1.393 . S
C1556 C1563 1.500 . S
C1557 C1556 1.382 . S
C1557 C1558 1.400 . S
C1557 H1568 0.930 . S
C1558 C1557 1.400 . S
C1558 C1559 1.384 . S
C1559 C1558 1.384 . S
C1559 C1561 1.392 . S
C1559 H1569 0.931 . S
C1560 C1556 1.393 . S
C1560 C1561 1.401 . S
C1560 H1570 0.930 . S
C1561 C1559 1.392 . S
C1561 C1560 1.401 . S
C1561 H1571 0.930 . S
C1562 O1540 1.262 . S
C1562 O1541 1.260 . S
C1563 Tb1499 2.833 . S
C1563 O1538 1.251 . S
C1563 O1543 1.256 . S
C1563 C1556 1.500 . S
H1564 C1547 0.930 . S
H1565 C1548 0.931 . S
H1566 C1549 0.930 . S
H1567 C1550 0.930 . S
H1568 C1557 0.930 . S
H1569 C1559 0.931 . S
H1570 C1560 0.930 . S
H1571 C1561 0.930 . S
Tb1572 N1603 2.660 1_556 S
Tb1572 N1610 2.600 . S
Tb1572 O1616 2.546 . S
Tb1572 O1617 2.610 1_556 S
Tb1572 O1619 2.320 1_556 S
Tb1572 O1620 2.552 . S
Tb1572 O1621 2.413 1_556 S
Tb1572 O1623 2.362 1_556 S
Tb1572 O1624 2.421 . S
Tb1572 C1636 2.833 . S
C1573 C1576 1.432 . S
C1573 C1577 1.414 . S
C1573 N1580 1.359 1_655 S
C1574 C1576 1.417 . S
C1574 C1578 1.432 . S
C1574 C1586 1.410 1_554 S
C1575 C1577 1.444 . S
C1575 C1578 1.317 . S
C1575 H1598 0.929 . S
C1576 C1573 1.432 . S
C1576 C1574 1.417 . S
C1576 N1584 1.371 . S
C1577 C1573 1.414 . S
C1577 C1575 1.444 . S
C1577 C1582 1.385 . S
C1578 C1574 1.432 . S
C1578 C1575 1.317 . S
C1578 H1590 0.930 . S
C1579 C1581 1.392 . S
C1579 C1582 1.370 1_455 S
C1579 H1591 0.931 . S
N1580 C1573 1.359 1_455 S
N1580 C1581 1.327 . S
N1580 Tb1583 2.600 . S
C1581 C1579 1.392 . S
C1581 N1580 1.327 . S
C1581 H1588 0.930 . S
C1582 C1577 1.385 . S
C1582 C1579 1.370 1_655 S
C1582 H1601 0.930 . S
Tb1583 N1580 2.600 . S
Tb1583 N1584 2.645 1_455 S
Tb1583 O1617 2.362 . S
Tb1583 O1618 2.421 . S
Tb1583 O1622 2.546 . S
Tb1583 O1623 2.610 . S
Tb1583 O1625 2.320 1_554 S
Tb1583 O1626 2.552 . S
Tb1583 O1627 2.413 1_455 S
Tb1583 C1647 2.833 1_455 S
N1584 C1576 1.371 . S
N1584 Tb1583 2.645 1_655 S
N1584 C1585 1.309 1_554 S
C1585 N1584 1.309 1_556 S
C1585 C1587 1.407 . S
C1585 H1592 0.940 . S
C1586 C1574 1.410 1_556 S
C1586 C1587 1.345 . S
C1586 H1594 0.930 . S
C1587 C1585 1.407 . S
C1587 C1586 1.345 . S
C1587 H1589 0.930 . S
H1588 C1581 0.930 . S
H1589 C1587 0.930 . S
H1590 C1578 0.930 . S
H1591 C1579 0.931 . S
H1592 C1585 0.940 . S
H1593 C1607 0.930 . S
H1594 C1586 0.930 . S
H1595 C1613 0.930 . S
H1596 C1604 0.930 . S
H1597 C1611 0.931 . S
H1598 C1575 0.929 . S
H1599 C1605 0.930 . S
H1600 C1638 0.930 . S
H1601 C1582 0.930 . S
H1602 C1637 0.929 . S
N1603 Tb1572 2.660 1_554 S
N1603 C1604 1.305 . S
N1603 C1608 1.360 1_554 S
C1604 H1596 0.930 . S
C1604 N1603 1.305 . S
C1604 C1607 1.407 . S
C1605 H1599 0.930 . S
C1605 C1606 1.410 . S
C1605 C1607 1.345 . S
C1606 C1605 1.410 . S
C1606 C1608 1.417 1_554 S
C1606 C1638 1.432 1_554 S
C1607 H1593 0.930 . S
C1607 C1604 1.407 . S
C1607 C1605 1.345 . S
C1608 N1603 1.360 1_556 S
C1608 C1606 1.417 1_556 S
C1608 C1612 1.432 . S
H1609 C1614 0.930 . S
N1610 Tb1572 2.600 . S
N1610 C1612 1.359 . S
N1610 C1613 1.327 . S
C1611 H1597 0.931 . S
C1611 C1613 1.392 . S
C1611 C1614 1.370 . S
C1612 C1608 1.432 . S
C1612 N1610 1.359 . S
C1612 C1615 1.414 . S
C1613 H1595 0.930 . S
C1613 N1610 1.327 . S
C1613 C1611 1.392 . S
C1614 H1609 0.930 . S
C1614 C1611 1.370 . S
C1614 C1615 1.385 . S
C1615 C1612 1.414 . S
C1615 C1614 1.385 . S
C1615 C1637 1.444 . S
O1616 Tb1572 2.546 . S
O1616 C1636 1.251 . S
O1617 Tb1572 2.610 1_554 S
O1617 Tb1583 2.362 . S
O1617 C1628 1.283 . S
O1618 Tb1583 2.421 . S
O1618 C1635 1.262 . S
O1619 Tb1572 2.320 1_554 S
O1619 C1635 1.260 . S
O1620 Tb1572 2.552 . S
O1620 C1628 1.243 1_556 S
O1621 Tb1572 2.413 1_554 S
O1621 C1636 1.256 1_554 S
O1622 Tb1583 2.546 . S
O1622 C1647 1.251 1_455 S
O1623 Tb1572 2.362 1_554 S
O1623 Tb1583 2.610 . S
O1623 C1639 1.283 . S
O1624 Tb1572 2.421 . S
O1624 C1646 1.262 . S
O1625 Tb1583 2.320 1_556 S
O1625 C1646 1.260 . S
O1626 Tb1583 2.552 . S
O1626 C1639 1.243 . S
O1627 Tb1583 2.413 1_655 S
O1627 C1647 1.256 . S
C1628 O1617 1.283 . S
C1628 O1620 1.243 1_554 S
C1629 C1631 1.382 . S
C1629 C1633 1.393 . S
C1629 C1636 1.500 . S
C1630 C1631 1.400 . S
C1630 C1632 1.384 . S
C1631 C1629 1.382 . S
C1631 C1630 1.400 . S
C1631 H1648 0.930 1_556 S
C1632 C1630 1.384 . S
C1632 C1634 1.392 . S
C1632 H1649 0.931 . S
C1633 C1629 1.393 . S
C1633 C1634 1.401 . S
C1633 H1650 0.930 . S
C1634 C1632 1.392 . S
C1634 C1633 1.401 . S
C1634 H1651 0.930 . S
C1635 O1618 1.262 . S
C1635 O1619 1.260 . S
C1636 Tb1572 2.833 . S
C1636 O1616 1.251 . S
C1636 O1621 1.256 1_556 S
C1636 C1629 1.500 . S
C1637 H1602 0.929 . S
C1637 C1615 1.444 . S
C1637 C1638 1.317 . S
C1638 H1600 0.930 . S
C1638 C1606 1.432 1_556 S
C1638 C1637 1.317 . S
C1639 O1623 1.283 . S
C1639 O1626 1.243 . S
C1640 C1641 1.382 . S
C1640 C1644 1.393 . S
C1640 C1647 1.500 . S
C1641 C1640 1.382 . S
C1641 C1642 1.400 . S
C1641 H1652 0.930 . S
C1642 C1641 1.400 . S
C1642 C1643 1.384 . S
C1643 C1642 1.384 . S
C1643 C1645 1.392 . S
C1643 H1653 0.931 . S
C1644 C1640 1.393 . S
C1644 C1645 1.401 . S
C1644 H1654 0.930 . S
C1645 C1643 1.392 . S
C1645 C1644 1.401 . S
C1645 H1655 0.930 . S
C1646 O1624 1.262 . S
C1646 O1625 1.260 . S
C1647 Tb1583 2.833 1_655 S
C1647 O1622 1.251 1_655 S
C1647 O1627 1.256 . S
C1647 C1640 1.500 . S
H1648 C1631 0.930 1_554 S
H1649 C1632 0.931 . S
H1650 C1633 0.930 . S
H1651 C1634 0.930 . S
H1652 C1641 0.930 . S
H1653 C1643 0.931 . S
H1654 C1644 0.930 . S
H1655 C1645 0.930 . S
C1656 C1657 1.387 1_554 S
C1656 H1660 0.950 . S
C1656 C1665 1.390 . S
C1657 C1656 1.387 1_556 S
C1657 C1659 1.387 . S
H1658 C1665 0.950 . S
C1659 C1657 1.387 . S
C1659 C1661 1.390 . S
C1659 H1663 0.950 . S
H1660 C1656 0.950 . S
C1661 C1659 1.390 . S
C1661 C1662 1.387 1_556 S
C1661 H1664 0.950 . S
C1662 C1661 1.387 1_554 S
C1662 C1665 1.387 . S
H1663 C1659 0.950 . S
H1664 C1661 0.950 . S
C1665 C1656 1.390 . S
C1665 H1658 0.950 . S
C1665 C1662 1.387 . S
C1666 C1667 1.387 . S
C1666 H1670 0.950 . S
C1666 C1675 1.390 . S
C1667 C1666 1.387 . S
C1667 C1669 1.387 . S
H1668 C1675 0.950 . S
C1669 C1667 1.387 . S
C1669 C1671 1.390 . S
C1669 H1673 0.950 . S
H1670 C1666 0.950 . S
C1671 C1669 1.390 . S
C1671 C1672 1.387 . S
C1671 H1674 0.950 . S
C1672 C1671 1.387 . S
C1672 C1675 1.387 . S
H1673 C1669 0.950 . S
H1674 C1671 0.950 . S
C1675 C1666 1.390 . S
C1675 H1668 0.950 . S
C1675 C1672 1.387 . S
C1676 C1677 1.387 . S
C1676 H1680 0.950 . S
C1676 C1685 1.390 . S
C1677 C1676 1.387 . S
C1677 C1679 1.387 . S
H1678 C1685 0.950 . S
C1679 C1677 1.387 . S
C1679 C1681 1.390 . S
C1679 H1683 0.950 . S
H1680 C1676 0.950 . S
C1681 C1679 1.390 . S
C1681 C1682 1.387 . S
C1681 H1684 0.950 . S
C1682 C1681 1.387 . S
C1682 C1685 1.387 . S
H1683 C1679 0.950 . S
H1684 C1681 0.950 . S
C1685 C1676 1.390 . S
C1685 H1678 0.950 . S
C1685 C1682 1.387 . S
C1686 C1687 1.387 . S
C1686 H1690 0.950 . S
C1686 C1695 1.390 . S
C1687 C1686 1.387 . S
C1687 C1689 1.387 . S
H1688 C1695 0.950 . S
C1689 C1687 1.387 . S
C1689 C1691 1.390 . S
C1689 H1693 0.950 . S
H1690 C1686 0.950 . S
C1691 C1689 1.390 . S
C1691 C1692 1.387 . S
C1691 H1694 0.950 . S
C1692 C1691 1.387 . S
C1692 C1695 1.387 . S
H1693 C1689 0.950 . S
H1694 C1691 0.950 . S
C1695 C1686 1.390 . S
C1695 H1688 0.950 . S
C1695 C1692 1.387 . S
C1696 C1697 1.387 . S
C1696 H1700 0.950 . S
C1696 C1705 1.390 . S
C1697 C1696 1.387 . S
C1697 C1699 1.387 . S
H1698 C1705 0.950 . S
C1699 C1697 1.387 . S
C1699 C1701 1.390 . S
C1699 H1703 0.950 1_455 S
H1700 C1696 0.950 . S
C1701 C1699 1.390 . S
C1701 C1702 1.387 . S
C1701 H1704 0.950 . S
C1702 C1701 1.387 . S
C1702 C1705 1.387 . S
H1703 C1699 0.950 1_655 S
H1704 C1701 0.950 . S
C1705 C1696 1.390 . S
C1705 H1698 0.950 . S
C1705 C1702 1.387 . S
C1706 C1707 1.387 . S
C1706 H1710 0.950 . S
C1706 C1715 1.390 . S
C1707 C1706 1.387 . S
C1707 C1709 1.387 . S
H1708 C1715 0.950 . S
C1709 C1707 1.387 . S
C1709 C1711 1.390 . S
C1709 H1713 0.950 . S
H1710 C1706 0.950 . S
C1711 C1709 1.390 . S
C1711 C1712 1.387 . S
C1711 H1714 0.950 . S
C1712 C1711 1.387 . S
C1712 C1715 1.387 . S
H1713 C1709 0.950 . S
H1714 C1711 0.950 . S
C1715 C1706 1.390 . S
C1715 H1708 0.950 . S
C1715 C1712 1.387 . S
C1716 C1717 1.387 . S
C1716 H1720 0.950 . S
C1716 C1725 1.390 . S
C1717 C1716 1.387 . S
C1717 C1719 1.387 . S
H1718 C1725 0.950 . S
C1719 C1717 1.387 . S
C1719 C1721 1.390 . S
C1719 H1723 0.950 . S
H1720 C1716 0.950 . S
C1721 C1719 1.390 . S
C1721 C1722 1.387 . S
C1721 H1724 0.950 . S
C1722 C1721 1.387 . S
C1722 C1725 1.387 . S
H1723 C1719 0.950 . S
H1724 C1721 0.950 . S
C1725 C1716 1.390 . S
C1725 H1718 0.950 . S
C1725 C1722 1.387 . S
C1726 C1727 1.387 . S
C1726 H1730 0.950 . S
C1726 C1735 1.390 . S
C1727 C1726 1.387 . S
C1727 C1729 1.387 . S
H1728 C1735 0.950 . S
C1729 C1727 1.387 . S
C1729 C1731 1.390 . S
C1729 H1733 0.950 . S
H1730 C1726 0.950 . S
C1731 C1729 1.390 . S
C1731 C1732 1.387 . S
C1731 H1734 0.950 . S
C1732 C1731 1.387 . S
C1732 C1735 1.387 . S
H1733 C1729 0.950 . S
H1734 C1731 0.950 . S
C1735 C1726 1.390 . S
C1735 H1728 0.950 . S
C1735 C1732 1.387 . S
C1736 C1737 1.387 . S
C1736 H1740 0.950 . S
C1736 C1745 1.390 . S
C1737 C1736 1.387 . S
C1737 C1739 1.387 . S
H1738 C1745 0.950 . S
C1739 C1737 1.387 . S
C1739 C1741 1.390 . S
C1739 H1743 0.950 . S
H1740 C1736 0.950 . S
C1741 C1739 1.390 . S
C1741 C1742 1.387 . S
C1741 H1744 0.950 . S
C1742 C1741 1.387 . S
C1742 C1745 1.387 . S
H1743 C1739 0.950 . S
H1744 C1741 0.950 . S
C1745 C1736 1.390 . S
C1745 H1738 0.950 . S
C1745 C1742 1.387 . S
C1746 C1747 1.387 . S
C1746 H1750 0.950 . S
C1746 C1755 1.390 . S
C1747 C1746 1.387 . S
C1747 C1749 1.387 . S
H1748 C1755 0.950 . S
C1749 C1747 1.387 . S
C1749 C1751 1.390 . S
C1749 H1753 0.950 . S
H1750 C1746 0.950 . S
C1751 C1749 1.390 . S
C1751 C1752 1.387 . S
C1751 H1754 0.950 . S
C1752 C1751 1.387 . S
C1752 C1755 1.387 . S
H1753 C1749 0.950 . S
H1754 C1751 0.950 . S
C1755 C1746 1.390 . S
C1755 H1748 0.950 . S
C1755 C1752 1.387 . S
C1756 C1757 1.387 . S
C1756 H1760 0.950 . S
C1756 C1765 1.390 . S
C1757 C1756 1.387 . S
C1757 C1759 1.387 . S
H1758 C1765 0.950 . S
C1759 C1757 1.387 . S
C1759 C1761 1.390 . S
C1759 H1763 0.922 1_545 S
H1760 C1756 0.950 . S
C1761 C1759 1.390 . S
C1761 C1762 1.387 . S
C1761 H1764 0.950 1_545 S
C1762 C1761 1.387 . S
C1762 C1765 1.387 . S
H1763 C1759 0.922 1_565 S
H1764 C1761 0.950 1_565 S
C1765 C1756 1.390 . S
C1765 H1758 0.950 . S
C1765 C1762 1.387 . S
C1766 C1767 1.387 . S
C1766 H1770 0.950 . S
C1766 C1775 1.390 . S
C1767 C1766 1.387 . S
C1767 C1769 1.387 . S
H1768 C1775 0.950 . S
C1769 C1767 1.387 . S
C1769 C1771 1.390 . S
C1769 H1773 0.950 . S
H1770 C1766 0.950 . S
C1771 C1769 1.390 . S
C1771 C1772 1.387 . S
C1771 H1774 0.950 . S
C1772 C1771 1.387 . S
C1772 C1775 1.387 . S
H1773 C1769 0.950 . S
H1774 C1771 0.950 . S
C1775 C1766 1.390 . S
C1775 H1768 0.950 . S
C1775 C1772 1.387 . S
C1776 C1777 1.387 . S
C1776 H1780 0.950 . S
C1776 C1785 1.390 . S
C1777 C1776 1.387 . S
C1777 C1779 1.387 . S
H1778 C1785 0.950 . S
C1779 C1777 1.387 . S
C1779 C1781 1.390 . S
C1779 H1783 0.950 . S
H1780 C1776 0.950 . S
C1781 C1779 1.390 . S
C1781 C1782 1.387 . S
C1781 H1784 0.950 . S
C1782 C1781 1.387 . S
C1782 C1785 1.387 . S
H1783 C1779 0.950 . S
H1784 C1781 0.950 . S
C1785 C1776 1.390 . S
C1785 H1778 0.950 . S
C1785 C1782 1.387 . S
C1786 C1787 1.387 . S
C1786 H1790 0.950 . S
C1786 C1795 1.390 . S
C1787 C1786 1.387 . S
C1787 C1789 1.387 . S
H1788 C1795 0.950 . S
C1789 C1787 1.387 . S
C1789 C1791 1.390 . S
C1789 H1793 0.950 . S
H1790 C1786 0.950 . S
C1791 C1789 1.390 . S
C1791 C1792 1.387 . S
C1791 H1794 0.950 . S
C1792 C1791 1.387 . S
C1792 C1795 1.387 . S
H1793 C1789 0.950 . S
H1794 C1791 0.950 . S
C1795 C1786 1.390 . S
C1795 H1788 0.950 . S
C1795 C1792 1.387 . S
C1796 C1797 1.387 . S
C1796 H1800 0.950 . S
C1796 C1805 1.390 . S
C1797 C1796 1.387 . S
C1797 C1799 1.387 . S
H1798 C1805 0.950 . S
C1799 C1797 1.387 . S
C1799 C1801 1.390 . S
C1799 H1803 0.950 . S
H1800 C1796 0.950 . S
C1801 C1799 1.390 . S
C1801 C1802 1.387 . S
C1801 H1804 0.950 . S
C1802 C1801 1.387 . S
C1802 C1805 1.387 . S
H1803 C1799 0.950 . S
H1804 C1801 0.950 . S
C1805 C1796 1.390 . S
C1805 H1798 0.950 . S
C1805 C1802 1.387 . S
C1806 C1807 1.387 . S
C1806 H1810 0.950 . S
C1806 C1815 1.390 . S
C1807 C1806 1.387 . S
C1807 C1809 1.387 . S
H1808 C1815 0.950 . S
C1809 C1807 1.387 . S
C1809 C1811 1.390 . S
C1809 H1813 0.950 . S
H1810 C1806 0.950 . S
C1811 C1809 1.390 . S
C1811 C1812 1.387 . S
C1811 H1814 0.950 . S
C1812 C1811 1.387 . S
C1812 C1815 1.387 . S
H1813 C1809 0.950 . S
H1814 C1811 0.950 . S
C1815 C1806 1.390 . S
C1815 H1808 0.950 . S
C1815 C1812 1.387 . S
C1816 C1817 1.387 . S
C1816 H1820 0.950 . S
C1816 C1825 1.390 . S
C1817 C1816 1.387 . S
C1817 C1819 1.387 1_564 S
H1818 C1825 0.950 . S
C1819 C1817 1.387 1_546 S
C1819 C1821 1.390 1_556 S
C1819 H1823 0.950 . S
H1820 C1816 0.950 . S
C1821 C1819 1.390 1_554 S
C1821 C1822 1.387 . S
C1821 H1824 0.950 . S
C1822 C1821 1.387 . S
C1822 C1825 1.387 1_545 S
H1823 C1819 0.950 . S
H1824 C1821 0.950 . S
C1825 C1816 1.390 . S
C1825 H1818 0.950 . S
C1825 C1822 1.387 1_565 S
C1826 C1827 1.387 . S
C1826 H1830 0.950 . S
C1826 C1835 1.390 . S
C1827 C1826 1.387 . S
C1827 C1829 1.387 1_556 S
H1828 C1835 0.950 . S
C1829 C1827 1.387 1_554 S
C1829 C1831 1.390 . S
C1829 H1833 0.950 . S
H1830 C1826 0.950 . S
C1831 C1829 1.390 . S
C1831 C1832 1.387 1_554 S
C1831 H1834 0.950 . S
C1832 C1831 1.387 1_556 S
C1832 C1835 1.387 . S
H1833 C1829 0.950 . S
H1834 C1831 0.950 . S
C1835 C1826 1.390 . S
C1835 H1828 0.950 . S
C1835 C1832 1.387 . S
C1836 C1837 1.387 . S
C1836 H1840 0.950 . S
C1836 C1845 1.390 . S
C1837 C1836 1.387 . S
C1837 C1839 1.387 . S
H1838 C1845 0.950 . S
C1839 C1837 1.387 . S
C1839 C1841 1.390 . S
C1839 H1843 0.950 . S
H1840 C1836 0.950 . S
C1841 C1839 1.390 . S
C1841 C1842 1.387 . S
C1841 H1844 0.950 . S
C1842 C1841 1.387 . S
C1842 C1845 1.387 . S
H1843 C1839 0.950 . S
H1844 C1841 0.950 . S
C1845 C1836 1.390 . S
C1845 H1838 0.950 . S
C1845 C1842 1.387 . S
C1846 C1847 1.387 . S
C1846 H1850 0.950 . S
C1846 C1855 1.390 . S
C1847 C1846 1.387 . S
C1847 C1849 1.387 . S
H1848 C1855 0.950 . S
C1849 C1847 1.387 . S
C1849 C1851 1.390 . S
C1849 H1853 0.950 . S
H1850 C1846 0.950 . S
C1851 C1849 1.390 . S
C1851 C1852 1.387 1_655 S
C1851 H1854 0.950 . S
C1852 C1851 1.387 1_455 S
C1852 C1855 1.387 1_455 S
H1853 C1849 0.950 . S
H1854 C1851 0.950 . S
C1855 C1846 1.390 . S
C1855 H1848 0.950 . S
C1855 C1852 1.387 1_655 S
C1856 C1857 1.387 . S
C1856 H1860 0.950 . S
C1856 C1865 1.390 . S
C1857 C1856 1.387 . S
C1857 C1859 1.387 . S
H1858 C1865 0.950 . S
C1859 C1857 1.387 . S
C1859 C1861 1.390 . S
C1859 H1863 0.950 . S
H1860 C1856 0.950 . S
C1861 C1859 1.390 . S
C1861 C1862 1.387 . S
C1861 H1864 0.950 . S
C1862 C1861 1.387 . S
C1862 C1865 1.387 . S
H1863 C1859 0.950 . S
H1864 C1861 0.950 . S
C1865 C1856 1.390 . S
C1865 H1858 0.950 . S
C1865 C1862 1.387 . S
C1866 C1867 1.387 . S
C1866 H1870 0.950 . S
C1866 C1875 1.390 . S
C1867 C1866 1.387 . S
C1867 C1869 1.387 . S
H1868 C1875 0.950 . S
C1869 C1867 1.387 . S
C1869 C1871 1.390 . S
C1869 H1873 0.950 . S
H1870 C1866 0.950 . S
C1871 C1869 1.390 . S
C1871 C1872 1.387 . S
C1871 H1874 0.950 . S
C1872 C1871 1.387 . S
C1872 C1875 1.387 . S
H1873 C1869 0.950 . S
H1874 C1871 0.950 . S
C1875 C1866 1.390 . S
C1875 H1868 0.950 . S
C1875 C1872 1.387 . S
C1876 C1877 1.387 . S
C1876 H1880 0.950 . S
C1876 C1885 1.390 . S
C1877 C1876 1.387 . S
C1877 C1879 1.387 . S
H1878 C1885 0.950 . S
C1879 C1877 1.387 . S
C1879 C1881 1.390 . S
C1879 H1883 0.950 . S
H1880 C1876 0.950 . S
C1881 C1879 1.390 . S
C1881 C1882 1.387 . S
C1881 H1884 0.950 . S
C1882 C1881 1.387 . S
C1882 C1885 1.387 . S
H1883 C1879 0.950 . S
H1884 C1881 0.950 . S
C1885 C1876 1.390 . S
C1885 H1878 0.950 . S
C1885 C1882 1.387 . S
C1886 C1887 1.387 . S
C1886 H1890 0.950 . S
C1886 C1895 1.390 . S
C1887 C1886 1.387 . S
C1887 C1889 1.387 . S
H1888 C1895 0.950 . S
C1889 C1887 1.387 . S
C1889 C1891 1.390 . S
C1889 H1893 0.950 . S
H1890 C1886 0.950 . S
C1891 C1889 1.390 . S
C1891 C1892 1.387 . S
C1891 H1894 0.950 . S
C1892 C1891 1.387 . S
C1892 C1895 1.387 . S
H1893 C1889 0.950 . S
H1894 C1891 0.950 . S
C1895 C1886 1.390 . S
C1895 H1888 0.950 . S
C1895 C1892 1.387 . S
C1896 C1897 1.387 . S
C1896 H1900 0.950 1_554 S
C1896 C1905 1.390 . S
C1897 C1896 1.387 . S
C1897 C1899 1.387 . S
H1898 C1905 0.950 1_556 S
C1899 C1897 1.387 . S
C1899 C1901 1.390 . S
C1899 H1903 0.950 . S
H1900 C1896 0.950 1_556 S
C1901 C1899 1.390 . S
C1901 C1902 1.387 . S
C1901 H1904 0.950 . S
C1902 C1901 1.387 . S
C1902 C1905 1.387 . S
H1903 C1899 0.950 . S
H1904 C1901 0.950 . S
C1905 C1896 1.390 . S
C1905 H1898 0.950 1_554 S
C1905 C1902 1.387 . S
C1906 C1907 1.387 . S
C1906 H1910 0.950 . S
C1906 C1915 1.390 . S
C1907 C1906 1.387 . S
C1907 C1909 1.387 . S
H1908 C1915 0.950 . S
C1909 C1907 1.387 . S
C1909 C1911 1.390 . S
C1909 H1913 0.950 . S
H1910 C1906 0.950 . S
C1911 C1909 1.390 . S
C1911 C1912 1.387 . S
C1911 H1914 0.950 . S
C1912 C1911 1.387 . S
C1912 C1915 1.387 . S
H1913 C1909 0.950 . S
H1914 C1911 0.950 . S
C1915 C1906 1.390 . S
C1915 H1908 0.950 . S
C1915 C1912 1.387 . S
C1916 C1917 1.387 . S
C1916 H1920 0.950 . S
C1916 C1925 1.390 . S
C1917 C1916 1.387 . S
C1917 C1919 1.387 . S
H1918 C1925 0.950 . S
C1919 C1917 1.387 . S
C1919 C1921 1.390 . S
C1919 H1923 0.950 . S
H1920 C1916 0.950 . S
C1921 C1919 1.390 . S
C1921 C1922 1.387 . S
C1921 H1924 0.950 . S
C1922 C1921 1.387 . S
C1922 C1925 1.387 . S
H1923 C1919 0.950 . S
H1924 C1921 0.950 . S
C1925 C1916 1.390 . S
C1925 H1918 0.950 . S
C1925 C1922 1.387 . S
C1926 C1927 1.387 . S
C1926 H1930 0.950 . S
C1926 C1935 1.390 . S
C1927 C1926 1.387 . S
C1927 C1929 1.387 . S
H1928 C1935 0.950 . S
C1929 C1927 1.387 . S
C1929 C1931 1.390 . S
C1929 H1933 0.950 . S
H1930 C1926 0.950 . S
C1931 C1929 1.390 . S
C1931 C1932 1.387 . S
C1931 H1934 0.950 . S
C1932 C1931 1.387 . S
C1932 C1935 1.387 . S
H1933 C1929 0.950 . S
H1934 C1931 0.950 . S
C1935 C1926 1.390 . S
C1935 H1928 0.950 . S
C1935 C1932 1.387 . S
C1936 C1937 1.387 . S
C1936 H1940 0.950 . S
C1936 C1945 1.390 . S
C1937 C1936 1.387 . S
C1937 C1939 1.387 . S
H1938 C1945 0.950 . S
C1939 C1937 1.387 . S
C1939 C1941 1.390 . S
C1939 H1943 0.950 . S
H1940 C1936 0.950 . S
C1941 C1939 1.390 . S
C1941 C1942 1.387 . S
C1941 H1944 0.950 . S
C1942 C1941 1.387 . S
C1942 C1945 1.387 . S
H1943 C1939 0.950 . S
H1944 C1941 0.950 . S
C1945 C1936 1.390 . S
C1945 H1938 0.950 . S
C1945 C1942 1.387 . S
C1946 C1947 1.387 . S
C1946 H1950 0.950 . S
C1946 C1955 1.390 . S
C1947 C1946 1.387 . S
C1947 C1949 1.387 . S
H1948 C1955 0.950 . S
C1949 C1947 1.387 . S
C1949 C1951 1.390 . S
C1949 H1953 0.950 . S
H1950 C1946 0.950 . S
C1951 C1949 1.390 . S
C1951 C1952 1.387 . S
C1951 H1954 0.950 . S
C1952 C1951 1.387 . S
C1952 C1955 1.387 . S
H1953 C1949 0.950 . S
H1954 C1951 0.950 . S
C1955 C1946 1.390 . S
C1955 H1948 0.950 . S
C1955 C1952 1.387 . S
C1956 C1957 1.387 . S
C1956 H1960 0.950 . S
C1956 C1965 1.390 . S
C1957 C1956 1.387 . S
C1957 C1959 1.387 . S
H1958 C1965 0.950 . S
C1959 C1957 1.387 . S
C1959 C1961 1.390 . S
C1959 H1963 0.950 . S
H1960 C1956 0.950 . S
C1961 C1959 1.390 . S
C1961 C1962 1.387 . S
C1961 H1964 0.950 1_556 S
C1962 C1961 1.387 . S
C1962 C1965 1.387 . S
H1963 C1959 0.950 . S
H1964 C1961 0.950 1_554 S
C1965 C1956 1.390 . S
C1965 H1958 0.950 . S
C1965 C1962 1.387 . S
C1966 C1967 1.387 . S
C1966 H1970 0.950 . S
C1966 C1975 1.390 . S
C1967 C1966 1.387 . S
C1967 C1969 1.387 . S
H1968 C1975 0.950 . S
C1969 C1967 1.387 . S
C1969 C1971 1.390 . S
C1969 H1973 0.950 . S
H1970 C1966 0.950 . S
C1971 C1969 1.390 . S
C1971 C1972 1.387 . S
C1971 H1974 0.950 . S
C1972 C1971 1.387 . S
C1972 C1975 1.387 . S
H1973 C1969 0.950 . S
H1974 C1971 0.950 . S
C1975 C1966 1.390 . S
C1975 H1968 0.950 . S
C1975 C1972 1.387 . S
C1976 C1977 1.357 1_565 S
C1976 H1980 0.950 . S
C1976 C1985 1.390 . S
C1977 C1976 1.357 1_545 S
C1977 C1979 1.416 . S
H1978 C1985 0.950 . S
C1979 C1977 1.416 . S
C1979 C1981 1.390 . S
C1979 H1983 0.950 . S
H1980 C1976 0.950 . S
C1981 C1979 1.390 . S
C1981 C1982 1.387 . S
C1981 H1984 0.950 . S
C1982 C1981 1.387 . S
C1982 C1985 1.387 1_545 S
H1983 C1979 0.950 . S
H1984 C1981 0.950 . S
C1985 C1976 1.390 . S
C1985 H1978 0.950 . S
C1985 C1982 1.387 1_565 S
C1986 C1987 1.387 . S
C1986 H1990 0.950 . S
C1986 C1995 1.390 . S
C1987 C1986 1.387 . S
C1987 C1989 1.387 . S
H1988 C1995 0.950 . S
C1989 C1987 1.387 . S
C1989 C1991 1.390 . S
C1989 H1993 0.950 . S
H1990 C1986 0.950 . S
C1991 C1989 1.390 . S
C1991 C1992 1.387 . S
C1991 H1994 0.950 . S
C1992 C1991 1.387 . S
C1992 C1995 1.387 . S
H1993 C1989 0.950 . S
H1994 C1991 0.950 . S
C1995 C1986 1.390 . S
C1995 H1988 0.950 . S
C1995 C1992 1.387 . S
C1996 C1997 1.387 . S
C1996 H2000 0.950 . S
C1996 C2005 1.390 . S
C1997 C1996 1.387 . S
C1997 C1999 1.387 1_545 S
H1998 C2005 0.950 . S
C1999 C1997 1.387 1_565 S
C1999 C2001 1.390 1_565 S
C1999 H2003 0.950 . S
H2000 C1996 0.950 . S
C2001 C1999 1.390 1_545 S
C2001 C2002 1.387 . S
C2001 H2004 0.950 1_545 S
C2002 C2001 1.387 . S
C2002 C2005 1.387 . S
H2003 C1999 0.950 . S
H2004 C2001 0.950 1_565 S
C2005 C1996 1.390 . S
C2005 H1998 0.950 . S
C2005 C2002 1.387 . S
C2006 C2007 1.387 . S
C2006 H2010 0.950 . S
C2006 C2015 1.390 . S
C2007 C2006 1.387 . S
C2007 C2009 1.387 . S
H2008 C2015 0.950 . S
C2009 C2007 1.387 . S
C2009 C2011 1.390 . S
C2009 H2013 0.950 . S
H2010 C2006 0.950 . S
C2011 C2009 1.390 . S
C2011 C2012 1.387 . S
C2011 H2014 0.950 . S
C2012 C2011 1.387 . S
C2012 C2015 1.387 . S
H2013 C2009 0.950 . S
H2014 C2011 0.950 . S
C2015 C2006 1.390 . S
C2015 H2008 0.950 . S
C2015 C2012 1.387 . S
C2016 C2017 1.387 . S
C2016 H2020 0.950 . S
C2016 C2025 1.390 . S
C2017 C2016 1.387 . S
C2017 C2019 1.387 1_565 S
H2018 C2025 0.950 . S
C2019 C2017 1.387 1_545 S
C2019 C2021 1.390 . S
C2019 H2023 0.950 . S
H2020 C2016 0.950 . S
C2021 C2019 1.390 . S
C2021 C2022 1.387 . S
C2021 H2024 0.950 . S
C2022 C2021 1.387 . S
C2022 C2025 1.387 1_545 S
H2023 C2019 0.950 . S
H2024 C2021 0.950 . S
C2025 C2016 1.390 . S
C2025 H2018 0.950 . S
C2025 C2022 1.387 1_565 S
C2026 C2027 1.387 . S
C2026 H2030 0.950 . S
C2026 C2035 1.390 . S
C2027 C2026 1.387 . S
C2027 C2029 1.387 . S
H2028 C2035 0.950 . S
C2029 C2027 1.387 . S
C2029 C2031 1.390 . S
C2029 H2033 0.950 . S
H2030 C2026 0.950 . S
C2031 C2029 1.390 . S
C2031 C2032 1.387 . S
C2031 H2034 0.950 . S
C2032 C2031 1.387 . S
C2032 C2035 1.387 . S
H2033 C2029 0.950 . S
H2034 C2031 0.950 . S
C2035 C2026 1.390 . S
C2035 H2028 0.950 . S
C2035 C2032 1.387 . S
C2036 C2037 1.387 . S
C2036 H2040 0.950 . S
C2036 C2045 1.390 . S
C2037 C2036 1.387 . S
C2037 C2039 1.387 1_565 S
H2038 C2045 0.950 . S
C2039 C2037 1.387 1_545 S
C2039 C2041 1.390 . S
C2039 H2043 0.950 . S
H2040 C2036 0.950 . S
C2041 C2039 1.390 . S
C2041 C2042 1.387 . S
C2041 H2044 0.950 . S
C2042 C2041 1.387 . S
C2042 C2045 1.388 1_545 S
H2043 C2039 0.950 . S
H2044 C2041 0.950 . S
C2045 C2036 1.390 . S
C2045 H2038 0.950 . S
C2045 C2042 1.388 1_565 S
C2046 C2047 1.387 . S
C2046 H2050 0.950 . S
C2046 C2055 1.390 . S
C2047 C2046 1.387 . S
C2047 C2049 1.387 . S
H2048 C2055 0.950 . S
C2049 C2047 1.387 . S
C2049 C2051 1.390 . S
C2049 H2053 0.950 . S
H2050 C2046 0.950 . S
C2051 C2049 1.390 . S
C2051 C2052 1.387 . S
C2051 H2054 0.950 . S
C2052 C2051 1.387 . S
C2052 C2055 1.387 . S
H2053 C2049 0.950 . S
H2054 C2051 0.950 . S
C2055 C2046 1.390 . S
C2055 H2048 0.950 . S
C2055 C2052 1.387 . S
C2056 C2057 1.387 . S
C2056 H2060 0.950 . S
C2056 C2065 1.390 . S
C2057 C2056 1.387 . S
C2057 C2059 1.387 . S
H2058 C2065 0.950 . S
C2059 C2057 1.387 . S
C2059 C2061 1.390 . S
C2059 H2063 0.950 . S
H2060 C2056 0.950 . S
C2061 C2059 1.390 . S
C2061 C2062 1.387 . S
C2061 H2064 0.950 . S
C2062 C2061 1.387 . S
C2062 C2065 1.387 . S
H2063 C2059 0.950 . S
H2064 C2061 0.950 . S
C2065 C2056 1.390 . S
C2065 H2058 0.950 . S
C2065 C2062 1.387 . S
C2066 C2067 1.387 . S
C2066 H2070 0.950 . S
C2066 C2075 1.390 . S
C2067 C2066 1.387 . S
C2067 C2069 1.387 . S
H2068 C2075 0.950 . S
C2069 C2067 1.387 . S
C2069 C2071 1.390 . S
C2069 H2073 0.950 . S
H2070 C2066 0.950 . S
C2071 C2069 1.390 . S
C2071 C2072 1.387 . S
C2071 H2074 0.950 . S
C2072 C2071 1.387 . S
C2072 C2075 1.387 . S
H2073 C2069 0.950 . S
H2074 C2071 0.950 . S
C2075 C2066 1.390 . S
C2075 H2068 0.950 . S
C2075 C2072 1.387 . S
C2076 C2077 1.387 . S
C2076 H2080 0.950 . S
C2076 C2085 1.390 . S
C2077 C2076 1.387 . S
C2077 C2079 1.387 . S
H2078 C2085 0.950 . S
C2079 C2077 1.387 . S
C2079 C2081 1.390 . S
C2079 H2083 0.950 . S
H2080 C2076 0.950 . S
C2081 C2079 1.390 . S
C2081 C2082 1.387 . S
C2081 H2084 0.950 . S
C2082 C2081 1.387 . S
C2082 C2085 1.387 . S
H2083 C2079 0.950 . S
H2084 C2081 0.950 . S
C2085 C2076 1.390 . S
C2085 H2078 0.950 . S
C2085 C2082 1.387 . S
C2086 C2087 1.387 . S
C2086 H2090 0.950 . S
C2086 C2095 1.390 . S
C2087 C2086 1.387 . S
C2087 C2089 1.387 . S
H2088 C2095 0.950 . S
C2089 C2087 1.387 . S
C2089 C2091 1.390 . S
C2089 H2093 0.950 . S
H2090 C2086 0.950 . S
C2091 C2089 1.390 . S
C2091 C2092 1.387 . S
C2091 H2094 0.950 . S
C2092 C2091 1.387 . S
C2092 C2095 1.387 . S
H2093 C2089 0.950 . S
H2094 C2091 0.950 . S
C2095 C2086 1.390 . S
C2095 H2088 0.950 . S
C2095 C2092 1.387 . S
C2096 C2097 1.387 1_545 S
C2096 H2100 0.950 . S
C2096 C2105 1.390 . S
C2097 C2096 1.387 1_565 S
C2097 C2099 1.387 . S
H2098 C2105 0.950 . S
C2099 C2097 1.387 . S
C2099 C2101 1.390 . S
C2099 H2103 0.950 . S
H2100 C2096 0.950 . S
C2101 C2099 1.390 . S
C2101 C2102 1.387 . S
C2101 H2104 0.950 . S
C2102 C2101 1.387 . S
C2102 C2105 1.387 1_565 S
H2103 C2099 0.950 . S
H2104 C2101 0.950 . S
C2105 C2096 1.390 . S
C2105 H2098 0.950 . S
C2105 C2102 1.387 1_545 S
C2106 C2107 1.387 . S
C2106 H2110 0.950 . S
C2106 C2115 1.390 . S
C2107 C2106 1.387 . S
C2107 C2109 1.387 . S
H2108 C2115 0.950 . S
C2109 C2107 1.387 . S
C2109 C2111 1.390 . S
C2109 H2113 0.950 . S
H2110 C2106 0.950 . S
C2111 C2109 1.390 . S
C2111 C2112 1.387 . S
C2111 H2114 0.950 . S
C2112 C2111 1.387 . S
C2112 C2115 1.387 . S
H2113 C2109 0.950 . S
H2114 C2111 0.950 . S
C2115 C2106 1.390 . S
C2115 H2108 0.950 . S
C2115 C2112 1.387 . S
C2116 C2117 1.387 . S
C2116 H2120 0.950 . S
C2116 C2125 1.390 . S
C2117 C2116 1.387 . S
C2117 C2119 1.387 . S
H2118 C2125 0.950 . S
C2119 C2117 1.387 . S
C2119 C2121 1.390 . S
C2119 H2123 0.950 . S
H2120 C2116 0.950 . S
C2121 C2119 1.390 . S
C2121 C2122 1.387 . S
C2121 H2124 0.950 . S
C2122 C2121 1.387 . S
C2122 C2125 1.387 . S
H2123 C2119 0.950 . S
H2124 C2121 0.950 . S
C2125 C2116 1.390 . S
C2125 H2118 0.950 . S
C2125 C2122 1.387 . S
C2126 C2127 1.387 . S
C2126 H2130 0.950 . S
C2126 C2135 1.390 . S
C2127 C2126 1.387 . S
C2127 C2129 1.387 . S
H2128 C2135 0.950 . S
C2129 C2127 1.387 . S
C2129 C2131 1.390 . S
C2129 H2133 0.950 . S
H2130 C2126 0.950 . S
C2131 C2129 1.390 . S
C2131 C2132 1.387 . S
C2131 H2134 0.950 . S
C2132 C2131 1.387 . S
C2132 C2135 1.387 . S
H2133 C2129 0.950 . S
H2134 C2131 0.950 . S
C2135 C2126 1.390 . S
C2135 H2128 0.950 . S
C2135 C2132 1.387 . S
C2136 C2137 1.387 . S
C2136 H2140 0.950 . S
C2136 C2145 1.390 . S
C2137 C2136 1.387 . S
C2137 C2139 1.387 . S
H2138 C2145 0.950 . S
C2139 C2137 1.387 . S
C2139 C2141 1.390 . S
C2139 H2143 0.950 . S
H2140 C2136 0.950 . S
C2141 C2139 1.390 . S
C2141 C2142 1.387 . S
C2141 H2144 0.950 . S
C2142 C2141 1.387 . S
C2142 C2145 1.387 . S
H2143 C2139 0.950 . S
H2144 C2141 0.950 . S
C2145 C2136 1.390 . S
C2145 H2138 0.950 . S
C2145 C2142 1.387 . S
C2146 C2147 1.387 . S
C2146 H2150 0.950 . S
C2146 C2155 1.390 . S
C2147 C2146 1.387 . S
C2147 C2149 1.387 . S
H2148 C2155 0.950 . S
C2149 C2147 1.387 . S
C2149 C2151 1.390 . S
C2149 H2153 0.950 . S
H2150 C2146 0.950 . S
C2151 C2149 1.390 . S
C2151 C2152 1.387 . S
C2151 H2154 0.950 . S
C2152 C2151 1.387 . S
C2152 C2155 1.387 . S
H2153 C2149 0.950 . S
H2154 C2151 0.950 . S
C2155 C2146 1.390 . S
C2155 H2148 0.950 . S
C2155 C2152 1.387 . S
C2156 C2157 1.368 1_554 S
C2156 H2160 0.950 . S
C2156 C2165 1.390 . S
C2157 C2156 1.368 1_556 S
C2157 C2159 1.410 . S
H2158 C2165 0.950 . S
C2159 C2157 1.410 . S
C2159 C2161 1.390 . S
C2159 H2163 0.950 . S
H2160 C2156 0.950 . S
C2161 C2159 1.390 . S
C2161 C2162 1.387 1_556 S
C2161 H2164 0.950 . S
C2162 C2161 1.387 1_554 S
C2162 C2165 1.387 . S
H2163 C2159 0.950 . S
H2164 C2161 0.950 . S
C2165 C2156 1.390 . S
C2165 H2158 0.950 . S
C2165 C2162 1.387 . S
C2166 C2167 1.387 . S
C2166 H2170 0.950 . S
C2166 C2175 1.390 1_455 S
C2167 C2166 1.387 . S
C2167 C2169 1.387 . S
H2168 C2175 0.950 . S
C2169 C2167 1.387 . S
C2169 C2171 1.377 1_455 S
C2169 H2173 0.950 . S
H2170 C2166 0.950 . S
C2171 C2169 1.377 1_655 S
C2171 C2172 1.391 . S
C2171 H2174 0.960 . S
C2172 C2171 1.391 . S
C2172 C2175 1.387 . S
H2173 C2169 0.950 . S
H2174 C2171 0.960 . S
C2175 C2166 1.390 1_655 S
C2175 H2168 0.950 . S
C2175 C2172 1.387 . S
C2176 C2177 1.387 . S
C2176 H2180 0.950 . S
C2176 C2185 1.390 . S
C2177 C2176 1.387 . S
C2177 C2179 1.387 . S
H2178 C2185 0.950 . S
C2179 C2177 1.387 . S
C2179 C2181 1.390 . S
C2179 H2183 0.950 . S
H2180 C2176 0.950 . S
C2181 C2179 1.390 . S
C2181 C2182 1.387 . S
C2181 H2184 0.950 . S
C2182 C2181 1.387 . S
C2182 C2185 1.387 . S
H2183 C2179 0.950 . S
H2184 C2181 0.950 . S
C2185 C2176 1.390 . S
C2185 H2178 0.950 . S
C2185 C2182 1.387 . S
C2186 C2187 1.387 . S
C2186 H2190 0.950 . S
C2186 C2195 1.390 . S
C2187 C2186 1.387 . S
C2187 C2189 1.387 . S
H2188 C2195 0.950 1_655 S
C2189 C2187 1.387 . S
C2189 C2191 1.390 . S
C2189 H2193 0.950 . S
H2190 C2186 0.950 . S
C2191 C2189 1.390 . S
C2191 C2192 1.387 . S
C2191 H2194 0.950 . S
C2192 C2191 1.387 . S
C2192 C2195 1.387 . S
H2193 C2189 0.950 . S
H2194 C2191 0.950 . S
C2195 C2186 1.390 . S
C2195 H2188 0.950 1_455 S
C2195 C2192 1.387 . S
C2196 C2197 1.386 1_455 S
C2196 H2200 0.950 . S
C2196 C2205 1.390 . S
C2197 C2196 1.386 1_655 S
C2197 C2199 1.386 1_655 S
H2198 C2205 0.950 . S
C2199 C2197 1.386 1_455 S
C2199 C2201 1.390 . S
C2199 H2203 0.950 1_455 S
H2200 C2196 0.950 . S
C2201 C2199 1.390 . S
C2201 C2202 1.387 . S
C2201 H2204 0.950 . S
C2202 C2201 1.387 . S
C2202 C2205 1.387 . S
H2203 C2199 0.950 1_655 S
H2204 C2201 0.950 . S
C2205 C2196 1.390 . S
C2205 H2198 0.950 . S
C2205 C2202 1.387 . S
C2206 C2207 1.387 . S
C2206 H2210 0.950 . S
C2206 C2215 1.390 . S
C2207 C2206 1.387 . S
C2207 C2209 1.387 . S
H2208 C2215 0.950 . S
C2209 C2207 1.387 . S
C2209 C2211 1.390 . S
C2209 H2213 0.950 . S
H2210 C2206 0.950 . S
C2211 C2209 1.390 . S
C2211 C2212 1.387 . S
C2211 H2214 0.950 . S
C2212 C2211 1.387 . S
C2212 C2215 1.387 . S
H2213 C2209 0.950 . S
H2214 C2211 0.950 . S
C2215 C2206 1.390 . S
C2215 H2208 0.950 . S
C2215 C2212 1.387 . S
C2216 C2217 1.387 . S
C2216 H2220 0.950 . S
C2216 C2225 1.390 . S
C2217 C2216 1.387 . S
C2217 C2219 1.387 . S
H2218 C2225 0.950 . S
C2219 C2217 1.387 . S
C2219 C2221 1.390 . S
C2219 H2223 0.950 . S
H2220 C2216 0.950 . S
C2221 C2219 1.390 . S
C2221 C2222 1.387 . S
C2221 H2224 0.950 . S
C2222 C2221 1.387 . S
C2222 C2225 1.387 . S
H2223 C2219 0.950 . S
H2224 C2221 0.950 . S
C2225 C2216 1.390 . S
C2225 H2218 0.950 . S
C2225 C2222 1.387 . S
C2226 C2227 1.387 . S
C2226 H2230 0.950 1_556 S
C2226 C2235 1.390 . S
C2227 C2226 1.387 . S
C2227 C2229 1.387 . S
H2228 C2235 0.950 . S
C2229 C2227 1.387 . S
C2229 C2231 1.390 . S
C2229 H2233 0.950 . S
H2230 C2226 0.950 1_554 S
C2231 C2229 1.390 . S
C2231 C2232 1.387 . S
C2231 H2234 0.950 . S
C2232 C2231 1.387 . S
C2232 C2235 1.387 . S
H2233 C2229 0.950 . S
H2234 C2231 0.950 . S
C2235 C2226 1.390 . S
C2235 H2228 0.950 . S
C2235 C2232 1.387 . S
C2236 C2237 1.387 . S
C2236 H2240 0.950 . S
C2236 C2245 1.390 . S
C2237 C2236 1.387 . S
C2237 C2239 1.387 . S
H2238 C2245 0.950 . S
C2239 C2237 1.387 . S
C2239 C2241 1.390 . S
C2239 H2243 0.950 . S
H2240 C2236 0.950 . S
C2241 C2239 1.390 . S
C2241 C2242 1.387 . S
C2241 H2244 0.950 . S
C2242 C2241 1.387 . S
C2242 C2245 1.387 . S
H2243 C2239 0.950 . S
H2244 C2241 0.950 . S
C2245 C2236 1.390 . S
C2245 H2238 0.950 . S
C2245 C2242 1.387 . S
C2246 C2247 1.387 . S
C2246 H2250 0.950 . S
C2246 C2255 1.390 . S
C2247 C2246 1.387 . S
C2247 C2249 1.387 . S
H2248 C2255 0.950 . S
C2249 C2247 1.387 . S
C2249 C2251 1.390 . S
C2249 H2253 0.950 . S
H2250 C2246 0.950 . S
C2251 C2249 1.390 . S
C2251 C2252 1.387 . S
C2251 H2254 0.950 . S
C2252 C2251 1.387 . S
C2252 C2255 1.387 . S
H2253 C2249 0.950 . S
H2254 C2251 0.950 . S
C2255 C2246 1.390 . S
C2255 H2248 0.950 . S
C2255 C2252 1.387 . S
C2256 C2257 1.387 . S
C2256 H2260 0.950 . S
C2256 C2265 1.390 . S
C2257 C2256 1.387 . S
C2257 C2259 1.387 . S
H2258 C2265 0.950 . S
C2259 C2257 1.387 . S
C2259 C2261 1.390 . S
C2259 H2263 0.950 . S
H2260 C2256 0.950 . S
C2261 C2259 1.390 . S
C2261 C2262 1.387 . S
C2261 H2264 0.950 . S
C2262 C2261 1.387 . S
C2262 C2265 1.387 . S
H2263 C2259 0.950 . S
H2264 C2261 0.950 . S
C2265 C2256 1.390 . S
C2265 H2258 0.950 . S
C2265 C2262 1.387 . S
C2266 C2267 1.387 . S
C2266 H2270 0.950 . S
C2266 C2275 1.390 . S
C2267 C2266 1.387 . S
C2267 C2269 1.387 . S
H2268 C2275 0.950 . S
C2269 C2267 1.387 . S
C2269 C2271 1.390 . S
C2269 H2273 0.950 . S
H2270 C2266 0.950 . S
C2271 C2269 1.390 . S
C2271 C2272 1.387 . S
C2271 H2274 0.950 . S
C2272 C2271 1.387 . S
C2272 C2275 1.387 . S
H2273 C2269 0.950 . S
H2274 C2271 0.950 . S
C2275 C2266 1.390 . S
C2275 H2268 0.950 . S
C2275 C2272 1.387 . S
C2276 C2277 1.387 . S
C2276 H2280 0.950 . S
C2276 C2285 1.390 . S
C2277 C2276 1.387 . S
C2277 C2279 1.387 . S
H2278 C2285 0.950 . S
C2279 C2277 1.387 . S
C2279 C2281 1.390 . S
C2279 H2283 0.950 . S
H2280 C2276 0.950 . S
C2281 C2279 1.390 . S
C2281 C2282 1.387 . S
C2281 H2284 0.950 . S
C2282 C2281 1.387 . S
C2282 C2285 1.387 . S
H2283 C2279 0.950 . S
H2284 C2281 0.950 . S
C2285 C2276 1.390 . S
C2285 H2278 0.950 . S
C2285 C2282 1.387 . S
C2286 C2287 1.387 . S
C2286 H2290 0.950 . S
C2286 C2295 1.390 . S
C2287 C2286 1.387 . S
C2287 C2289 1.387 . S
H2288 C2295 0.950 . S
C2289 C2287 1.387 . S
C2289 C2291 1.390 . S
C2289 H2293 0.950 . S
H2290 C2286 0.950 . S
C2291 C2289 1.390 . S
C2291 C2292 1.387 . S
C2291 H2294 0.950 . S
C2292 C2291 1.387 . S
C2292 C2295 1.387 . S
H2293 C2289 0.950 . S
H2294 C2291 0.950 . S
C2295 C2286 1.390 . S
C2295 H2288 0.950 . S
C2295 C2292 1.387 . S
C2296 C2297 1.387 . S
C2296 H2300 0.950 . S
C2296 C2305 1.390 . S
C2297 C2296 1.387 . S
C2297 C2299 1.387 . S
H2298 C2305 0.950 . S
C2299 C2297 1.387 . S
C2299 C2301 1.390 . S
C2299 H2303 0.950 . S
H2300 C2296 0.950 . S
C2301 C2299 1.390 . S
C2301 C2302 1.387 . S
C2301 H2304 0.950 . S
C2302 C2301 1.387 . S
C2302 C2305 1.387 . S
H2303 C2299 0.950 . S
H2304 C2301 0.950 . S
C2305 C2296 1.390 . S
C2305 H2298 0.950 . S
C2305 C2302 1.387 . S
C2306 C2307 1.387 . S
C2306 H2310 0.950 . S
C2306 C2315 1.390 . S
C2307 C2306 1.387 . S
C2307 C2309 1.387 . S
H2308 C2315 0.950 . S
C2309 C2307 1.387 . S
C2309 C2311 1.390 . S
C2309 H2313 0.950 . S
H2310 C2306 0.950 . S
C2311 C2309 1.390 . S
C2311 C2312 1.387 . S
C2311 H2314 0.950 . S
C2312 C2311 1.387 . S
C2312 C2315 1.387 . S
H2313 C2309 0.950 . S
H2314 C2311 0.950 . S
C2315 C2306 1.390 . S
C2315 H2308 0.950 . S
C2315 C2312 1.387 . S
C2316 C2317 1.387 . S
C2316 H2320 0.950 . S
C2316 C2325 1.390 . S
C2317 C2316 1.387 . S
C2317 C2319 1.387 . S
H2318 C2325 0.950 . S
C2319 C2317 1.387 . S
C2319 C2321 1.390 . S
C2319 H2323 0.950 . S
H2320 C2316 0.950 . S
C2321 C2319 1.390 . S
C2321 C2322 1.387 . S
C2321 H2324 0.950 . S
C2322 C2321 1.387 . S
C2322 C2325 1.387 . S
H2323 C2319 0.950 . S
H2324 C2321 0.950 . S
C2325 C2316 1.390 . S
C2325 H2318 0.950 . S
C2325 C2322 1.387 . S
C2326 C2327 1.387 . S
C2326 H2330 0.950 . S
C2326 C2335 1.390 . S
C2327 C2326 1.387 . S
C2327 C2329 1.387 1_564 S
H2328 C2335 0.950 . S
C2329 C2327 1.387 1_546 S
C2329 C2331 1.390 . S
C2329 H2333 0.950 . S
H2330 C2326 0.950 . S
C2331 C2329 1.390 . S
C2331 C2332 1.387 1_556 S
C2331 H2334 0.950 . S
C2332 C2331 1.387 1_554 S
C2332 C2335 1.387 1_545 S
H2333 C2329 0.950 . S
H2334 C2331 0.950 . S
C2335 C2326 1.390 . S
C2335 H2328 0.950 . S
C2335 C2332 1.387 1_565 S
C2336 C2337 1.387 . S
C2336 H2340 0.950 . S
C2336 C2345 1.390 . S
C2337 C2336 1.387 . S
C2337 C2339 1.387 . S
H2338 C2345 0.950 . S
C2339 C2337 1.387 . S
C2339 C2341 1.390 . S
C2339 H2343 0.950 . S
H2340 C2336 0.950 . S
C2341 C2339 1.390 . S
C2341 C2342 1.387 . S
C2341 H2344 0.950 . S
C2342 C2341 1.387 . S
C2342 C2345 1.387 . S
H2343 C2339 0.950 . S
H2344 C2341 0.950 . S
C2345 C2336 1.390 . S
C2345 H2338 0.950 . S
C2345 C2342 1.387 . S
C2346 C2347 1.387 . S
C2346 H2350 0.950 . S
C2346 C2355 1.390 . S
C2347 C2346 1.387 . S
C2347 C2349 1.387 1_554 S
H2348 C2355 0.950 . S
C2349 C2347 1.387 1_556 S
C2349 C2351 1.390 1_556 S
C2349 H2353 0.950 . S
H2350 C2346 0.950 . S
C2351 C2349 1.390 1_554 S
C2351 C2352 1.387 . S
C2351 H2354 0.950 1_554 S
C2352 C2351 1.387 . S
C2352 C2355 1.387 . S
H2353 C2349 0.950 . S
H2354 C2351 0.950 1_556 S
C2355 C2346 1.390 . S
C2355 H2348 0.950 . S
C2355 C2352 1.387 . S
C2356 C2357 1.387 . S
C2356 H2360 0.950 . S
C2356 C2365 1.390 . S
C2357 C2356 1.387 . S
C2357 C2359 1.387 . S
H2358 C2365 0.950 . S
C2359 C2357 1.387 . S
C2359 C2361 1.390 . S
C2359 H2363 0.950 . S
H2360 C2356 0.950 . S
C2361 C2359 1.390 . S
C2361 C2362 1.387 . S
C2361 H2364 0.950 . S
C2362 C2361 1.387 . S
C2362 C2365 1.387 . S
H2363 C2359 0.950 . S
H2364 C2361 0.950 . S
C2365 C2356 1.390 . S
C2365 H2358 0.950 . S
C2365 C2362 1.387 . S
C2366 C2367 1.387 . S
C2366 H2370 0.950 . S
C2366 C2375 1.390 . S
C2367 C2366 1.387 . S
C2367 C2369 1.387 . S
H2368 C2375 0.950 . S
C2369 C2367 1.387 . S
C2369 C2371 1.390 . S
C2369 H2373 0.950 . S
H2370 C2366 0.950 . S
C2371 C2369 1.390 . S
C2371 C2372 1.387 . S
C2371 H2374 0.950 . S
C2372 C2371 1.387 . S
C2372 C2375 1.387 . S
H2373 C2369 0.950 . S
H2374 C2371 0.950 . S
C2375 C2366 1.390 . S
C2375 H2368 0.950 . S
C2375 C2372 1.387 . S
C2376 C2377 1.387 . S
C2376 H2380 0.950 . S
C2376 C2385 1.390 . S
C2377 C2376 1.387 . S
C2377 C2379 1.387 . S
H2378 C2385 0.950 . S
C2379 C2377 1.387 . S
C2379 C2381 1.390 . S
C2379 H2383 0.950 . S
H2380 C2376 0.950 . S
C2381 C2379 1.390 . S
C2381 C2382 1.387 . S
C2381 H2384 0.950 . S
C2382 C2381 1.387 . S
C2382 C2385 1.387 . S
H2383 C2379 0.950 . S
H2384 C2381 0.950 . S
C2385 C2376 1.390 . S
C2385 H2378 0.950 . S
C2385 C2382 1.387 . S
C2386 C2387 1.387 . S
C2386 H2390 0.950 . S
C2386 C2395 1.390 . S
C2387 C2386 1.387 . S
C2387 C2389 1.387 . S
H2388 C2395 0.950 . S
C2389 C2387 1.387 . S
C2389 C2391 1.390 . S
C2389 H2393 0.950 . S
H2390 C2386 0.950 . S
C2391 C2389 1.390 . S
C2391 C2392 1.387 . S
C2391 H2394 0.950 . S
C2392 C2391 1.387 . S
C2392 C2395 1.387 . S
H2393 C2389 0.950 . S
H2394 C2391 0.950 . S
C2395 C2386 1.390 . S
C2395 H2388 0.950 . S
C2395 C2392 1.387 . S
C2396 C2397 1.387 . S
C2396 H2400 0.950 . S
C2396 C2405 1.390 . S
C2397 C2396 1.387 . S
C2397 C2399 1.387 . S
H2398 C2405 0.950 . S
C2399 C2397 1.387 . S
C2399 C2401 1.390 1_554 S
C2399 H2403 0.950 1_554 S
H2400 C2396 0.950 . S
C2401 C2399 1.390 1_556 S
C2401 C2402 1.387 1_556 S
C2401 H2404 0.950 . S
C2402 C2401 1.387 1_554 S
C2402 C2405 1.387 . S
H2403 C2399 0.950 1_556 S
H2404 C2401 0.950 . S
C2405 C2396 1.390 . S
C2405 H2398 0.950 . S
C2405 C2402 1.387 . S
C2406 C2407 1.387 . S
C2406 H2410 0.950 . S
C2406 C2415 1.390 . S
C2407 C2406 1.387 . S
C2407 C2409 1.387 . S
H2408 C2415 0.950 . S
C2409 C2407 1.387 . S
C2409 C2411 1.390 . S
C2409 H2413 0.950 . S
H2410 C2406 0.950 . S
C2411 C2409 1.390 . S
C2411 C2412 1.387 . S
C2411 H2414 0.950 . S
C2412 C2411 1.387 . S
C2412 C2415 1.387 . S
H2413 C2409 0.950 . S
H2414 C2411 0.950 . S
C2415 C2406 1.390 . S
C2415 H2408 0.950 . S
C2415 C2412 1.387 . S
C2416 C2417 1.387 . S
C2416 H2420 0.950 . S
C2416 C2425 1.390 . S
C2417 C2416 1.387 . S
C2417 C2419 1.387 . S
H2418 C2425 0.950 . S
C2419 C2417 1.387 . S
C2419 C2421 1.390 . S
C2419 H2423 0.950 . S
H2420 C2416 0.950 . S
C2421 C2419 1.390 . S
C2421 C2422 1.387 . S
C2421 H2424 0.950 1_556 S
C2422 C2421 1.387 . S
C2422 C2425 1.387 . S
H2423 C2419 0.950 . S
H2424 C2421 0.950 1_554 S
C2425 C2416 1.390 . S
C2425 H2418 0.950 . S
C2425 C2422 1.387 . S
C2426 C2427 1.387 . S
C2426 H2430 0.950 . S
C2426 C2435 1.390 . S
C2427 C2426 1.387 . S
C2427 C2429 1.387 . S
H2428 C2435 0.950 . S
C2429 C2427 1.387 . S
C2429 C2431 1.390 . S
C2429 H2433 0.950 . S
H2430 C2426 0.950 . S
C2431 C2429 1.390 . S
C2431 C2432 1.387 . S
C2431 H2434 0.950 . S
C2432 C2431 1.387 . S
C2432 C2435 1.387 . S
H2433 C2429 0.950 . S
H2434 C2431 0.950 . S
C2435 C2426 1.390 . S
C2435 H2428 0.950 . S
C2435 C2432 1.387 . S
C2436 C2437 1.387 . S
C2436 H2440 0.950 . S
C2436 C2445 1.390 . S
C2437 C2436 1.387 . S
C2437 C2439 1.387 . S
H2438 C2445 0.950 . S
C2439 C2437 1.387 . S
C2439 C2441 1.390 . S
C2439 H2443 0.950 . S
H2440 C2436 0.950 . S
C2441 C2439 1.390 . S
C2441 C2442 1.387 . S
C2441 H2444 0.950 . S
C2442 C2441 1.387 . S
C2442 C2445 1.387 . S
H2443 C2439 0.950 . S
H2444 C2441 0.950 . S
C2445 C2436 1.390 . S
C2445 H2438 0.950 . S
C2445 C2442 1.387 . S
C2446 C2447 1.387 . S
C2446 H2450 0.950 . S
C2446 C2455 1.390 . S
C2447 C2446 1.387 . S
C2447 C2449 1.387 . S
H2448 C2455 0.950 . S
C2449 C2447 1.387 . S
C2449 C2451 1.390 . S
C2449 H2453 0.950 . S
H2450 C2446 0.950 . S
C2451 C2449 1.390 . S
C2451 C2452 1.387 . S
C2451 H2454 0.950 . S
C2452 C2451 1.387 . S
C2452 C2455 1.387 . S
H2453 C2449 0.950 . S
H2454 C2451 0.950 . S
C2455 C2446 1.390 . S
C2455 H2448 0.950 . S
C2455 C2452 1.387 . S
C2456 C2457 1.387 . S
C2456 H2460 0.950 . S
C2456 C2465 1.390 . S
C2457 C2456 1.387 . S
C2457 C2459 1.387 . S
H2458 C2465 0.950 . S
C2459 C2457 1.387 . S
C2459 C2461 1.390 . S
C2459 H2463 0.950 . S
H2460 C2456 0.950 . S
C2461 C2459 1.390 . S
C2461 C2462 1.387 . S
C2461 H2464 0.950 . S
C2462 C2461 1.387 . S
C2462 C2465 1.387 . S
H2463 C2459 0.950 . S
H2464 C2461 0.950 . S
C2465 C2456 1.390 . S
C2465 H2458 0.950 . S
C2465 C2462 1.387 . S
C2466 C2467 1.387 . S
C2466 H2470 0.950 . S
C2466 C2475 1.390 . S
C2467 C2466 1.387 . S
C2467 C2469 1.387 . S
H2468 C2475 0.950 . S
C2469 C2467 1.387 . S
C2469 C2471 1.390 . S
C2469 H2473 0.950 . S
H2470 C2466 0.950 . S
C2471 C2469 1.390 . S
C2471 C2472 1.387 . S
C2471 H2474 0.950 . S
C2472 C2471 1.387 . S
C2472 C2475 1.387 . S
H2473 C2469 0.950 . S
H2474 C2471 0.950 . S
C2475 C2466 1.390 . S
C2475 H2468 0.950 . S
C2475 C2472 1.387 . S
C2476 C2477 1.387 . S
C2476 H2480 0.950 . S
C2476 C2485 1.390 1_655 S
C2477 C2476 1.387 . S
C2477 C2479 1.387 . S
H2478 C2485 0.950 . S
C2479 C2477 1.387 . S
C2479 C2481 1.390 1_655 S
C2479 H2483 0.950 . S
H2480 C2476 0.950 . S
C2481 C2479 1.390 1_455 S
C2481 C2482 1.387 . S
C2481 H2484 0.950 . S
C2482 C2481 1.387 . S
C2482 C2485 1.387 . S
H2483 C2479 0.950 . S
H2484 C2481 0.950 . S
C2485 C2476 1.390 1_455 S
C2485 H2478 0.950 . S
C2485 C2482 1.387 . S
C2486 C2487 1.387 . S
C2486 H2490 0.950 . S
C2486 C2495 1.390 . S
C2487 C2486 1.387 . S
C2487 C2489 1.387 . S
H2488 C2495 0.950 . S
C2489 C2487 1.387 . S
C2489 C2491 1.390 . S
C2489 H2493 0.950 . S
H2490 C2486 0.950 . S
C2491 C2489 1.390 . S
C2491 C2492 1.387 . S
C2491 H2494 0.950 . S
C2492 C2491 1.387 . S
C2492 C2495 1.387 . S
H2493 C2489 0.950 . S
H2494 C2491 0.950 . S
C2495 C2486 1.390 . S
C2495 H2488 0.950 . S
C2495 C2492 1.387 . S
C2496 C2497 1.387 . S
C2496 H2500 0.950 . S
C2496 C2505 1.390 . S
C2497 C2496 1.387 . S
C2497 C2499 1.387 . S
H2498 C2505 0.950 . S
C2499 C2497 1.387 . S
C2499 C2501 1.390 . S
C2499 H2503 0.950 . S
H2500 C2496 0.950 . S
C2501 C2499 1.390 . S
C2501 C2502 1.387 . S
C2501 H2504 0.950 . S
C2502 C2501 1.387 . S
C2502 C2505 1.387 . S
H2503 C2499 0.950 . S
H2504 C2501 0.950 . S
C2505 C2496 1.390 . S
C2505 H2498 0.950 . S
C2505 C2502 1.387 . S
C2506 C2507 1.387 . S
C2506 H2510 0.950 . S
C2506 C2515 1.390 . S
C2507 C2506 1.387 . S
C2507 C2509 1.387 . S
H2508 C2515 0.950 . S
C2509 C2507 1.387 . S
C2509 C2511 1.390 . S
C2509 H2513 0.950 . S
H2510 C2506 0.950 . S
C2511 C2509 1.390 . S
C2511 C2512 1.387 . S
C2511 H2514 0.950 . S
C2512 C2511 1.387 . S
C2512 C2515 1.387 . S
H2513 C2509 0.950 . S
H2514 C2511 0.950 . S
C2515 C2506 1.390 . S
C2515 H2508 0.950 . S
C2515 C2512 1.387 . S
C2516 C2517 1.387 . S
C2516 H2520 0.950 . S
C2516 C2525 1.390 . S
C2517 C2516 1.387 . S
C2517 C2519 1.387 . S
H2518 C2525 0.950 . S
C2519 C2517 1.387 . S
C2519 C2521 1.390 . S
C2519 H2523 0.950 . S
H2520 C2516 0.950 . S
C2521 C2519 1.390 . S
C2521 C2522 1.387 . S
C2521 H2524 0.950 . S
C2522 C2521 1.387 . S
C2522 C2525 1.387 . S
H2523 C2519 0.950 . S
H2524 C2521 0.950 . S
C2525 C2516 1.390 . S
C2525 H2518 0.950 . S
C2525 C2522 1.387 . S
C2526 C2527 1.387 . S
C2526 H2530 0.950 . S
C2526 C2535 1.390 . S
C2527 C2526 1.387 . S
C2527 C2529 1.387 . S
H2528 C2535 0.950 . S
C2529 C2527 1.387 . S
C2529 C2531 1.390 . S
C2529 H2533 0.950 . S
H2530 C2526 0.950 . S
C2531 C2529 1.390 . S
C2531 C2532 1.387 . S
C2531 H2534 0.950 . S
C2532 C2531 1.387 . S
C2532 C2535 1.387 . S
H2533 C2529 0.950 . S
H2534 C2531 0.950 . S
C2535 C2526 1.390 . S
C2535 H2528 0.950 . S
C2535 C2532 1.387 . S
C2536 C2537 1.387 . S
C2536 H2540 0.950 . S
C2536 C2545 1.390 . S
C2537 C2536 1.387 . S
C2537 C2539 1.387 . S
H2538 C2545 0.950 . S
C2539 C2537 1.387 . S
C2539 C2541 1.390 . S
C2539 H2543 0.950 . S
H2540 C2536 0.950 . S
C2541 C2539 1.390 . S
C2541 C2542 1.387 . S
C2541 H2544 0.950 . S
C2542 C2541 1.387 . S
C2542 C2545 1.387 . S
H2543 C2539 0.950 . S
H2544 C2541 0.950 . S
C2545 C2536 1.390 . S
C2545 H2538 0.950 . S
C2545 C2542 1.387 . S
C2546 C2547 1.387 . S
C2546 H2550 0.950 . S
C2546 C2555 1.390 . S
C2547 C2546 1.387 . S
C2547 C2549 1.387 . S
H2548 C2555 0.950 1_545 S
C2549 C2547 1.387 . S
C2549 C2551 1.390 . S
C2549 H2553 0.950 . S
H2550 C2546 0.950 . S
C2551 C2549 1.390 . S
C2551 C2552 1.387 . S
C2551 H2554 0.950 . S
C2552 C2551 1.387 . S
C2552 C2555 1.387 . S
H2553 C2549 0.950 . S
H2554 C2551 0.950 . S
C2555 C2546 1.390 . S
C2555 H2548 0.950 1_565 S
C2555 C2552 1.387 . S
C2556 C2557 1.387 . S
C2556 H2560 0.950 . S
C2556 C2565 1.390 . S
C2557 C2556 1.387 . S
C2557 C2559 1.387 . S
H2558 C2565 0.950 . S
C2559 C2557 1.387 . S
C2559 C2561 1.390 . S
C2559 H2563 0.950 . S
H2560 C2556 0.950 . S
C2561 C2559 1.390 . S
C2561 C2562 1.387 . S
C2561 H2564 0.950 . S
C2562 C2561 1.387 . S
C2562 C2565 1.387 . S
H2563 C2559 0.950 . S
H2564 C2561 0.950 . S
C2565 C2556 1.390 . S
C2565 H2558 0.950 . S
C2565 C2562 1.387 . S
C2566 C2567 1.387 . S
C2566 H2570 0.950 . S
C2566 C2575 1.390 . S
C2567 C2566 1.387 . S
C2567 C2569 1.387 1_554 S
H2568 C2575 0.950 . S
C2569 C2567 1.387 1_556 S
C2569 C2571 1.390 . S
C2569 H2573 0.950 . S
H2570 C2566 0.950 . S
C2571 C2569 1.390 . S
C2571 C2572 1.387 1_556 S
C2571 H2574 0.950 . S
C2572 C2571 1.387 1_554 S
C2572 C2575 1.387 . S
H2573 C2569 0.950 . S
H2574 C2571 0.950 . S
C2575 C2566 1.390 . S
C2575 H2568 0.950 . S
C2575 C2572 1.387 . S
C2576 C2577 1.387 . S
C2576 H2580 0.950 . S
C2576 C2585 1.390 . S
C2577 C2576 1.387 . S
C2577 C2579 1.387 . S
H2578 C2585 0.950 . S
C2579 C2577 1.387 . S
C2579 C2581 1.390 . S
C2579 H2583 0.950 . S
H2580 C2576 0.950 . S
C2581 C2579 1.390 . S
C2581 C2582 1.387 . S
C2581 H2584 0.950 . S
C2582 C2581 1.387 . S
C2582 C2585 1.387 . S
H2583 C2579 0.950 . S
H2584 C2581 0.950 . S
C2585 C2576 1.390 . S
C2585 H2578 0.950 . S
C2585 C2582 1.387 . S
C2586 C2587 1.387 . S
C2586 H2590 0.950 . S
C2586 C2595 1.390 . S
C2587 C2586 1.387 . S
C2587 C2589 1.380 1_554 S
H2588 C2595 0.950 . S
C2589 C2587 1.380 1_556 S
C2589 C2591 1.394 . S
C2589 H2593 0.953 . S
H2590 C2586 0.950 . S
C2591 C2589 1.394 . S
C2591 C2592 1.389 1_556 S
C2591 H2594 0.950 . S
C2592 C2591 1.389 1_554 S
C2592 C2595 1.384 . S
H2593 C2589 0.953 . S
H2594 C2591 0.950 . S
C2595 C2586 1.390 . S
C2595 H2588 0.950 . S
C2595 C2592 1.384 . S
C2596 C2597 1.387 . S
C2596 H2600 0.950 . S
C2596 C2605 1.390 . S
C2597 C2596 1.387 . S
C2597 C2599 1.387 . S
H2598 C2605 0.950 . S
C2599 C2597 1.387 . S
C2599 C2601 1.390 . S
C2599 H2603 0.950 . S
H2600 C2596 0.950 . S
C2601 C2599 1.390 . S
C2601 C2602 1.387 . S
C2601 H2604 0.950 . S
C2602 C2601 1.387 . S
C2602 C2605 1.387 . S
H2603 C2599 0.950 . S
H2604 C2601 0.950 . S
C2605 C2596 1.390 . S
C2605 H2598 0.950 . S
C2605 C2602 1.387 . S
C2606 C2607 1.387 . S
C2606 H2610 0.950 . S
C2606 C2615 1.390 . S
C2607 C2606 1.387 . S
C2607 C2609 1.387 . S
H2608 C2615 0.950 . S
C2609 C2607 1.387 . S
C2609 C2611 1.390 . S
C2609 H2613 0.950 . S
H2610 C2606 0.950 . S
C2611 C2609 1.390 . S
C2611 C2612 1.387 . S
C2611 H2614 0.950 . S
C2612 C2611 1.387 . S
C2612 C2615 1.387 . S
H2613 C2609 0.950 . S
H2614 C2611 0.950 . S
C2615 C2606 1.390 . S
C2615 H2608 0.950 . S
C2615 C2612 1.387 . S
C1657 C101 2.088 . S
C1662 C368 1.980 . S
C1667 C57 2.196 . S
C1672 C459 2.190 . S
C1677 C73 1.771 . S
C1682 C536 1.821 . S
C1692 C634 1.323 . S
C1687 C78 1.392 . S
C1697 C21 1.490 . S
C1702 C718 1.583 . S
C1712 C790 1.031 . S
C1707 C31 1.089 . S
C1722 C879 1.363 . S
C1717 C49 1.235 . S
C1727 C0 1.585 . S
C1732 C956 1.495 . S
C1742 C375 2.105 . S
C1737 C218 2.213 1_455 S
C1747 C229 0.831 . S
C1752 C466 0.817 . S
C1762 C543 1.169 . S
C1757 C257 1.201 . S
C1772 C620 1.705 . S
C1767 C164 1.675 . S
C1777 C216 2.055 1_455 S
C1782 C704 2.030 . S
C1792 C806 1.212 . S
C1787 C231 1.299 . S
C1802 C886 0.828 . S
C1797 C255 0.867 . S
C1812 C963 1.685 . S
C1807 C166 1.863 . S
C1822 C382 1.396 . S
C1817 C143 1.352 . S
C1827 C265 1.887 . S
C1832 C1047 1.855 1_556 S
C1842 C1135 2.232 . S
C1837 C299 2.402 . S
C1852 C1208 0.781 . S
C1847 C291 0.771 . S
C1857 C104 1.119 . S
C1862 C970 1.318 . S
C1867 C117 1.404 . S
C1872 C550 1.516 . S
C1877 C304 2.089 . S
C1882 C1299 2.063 . S
C1892 C1376 0.726 . S
C1887 C278 0.718 . S
C1902 C379 1.927 . S
C1897 C60 2.077 . S
C1912 C1394 2.135 . S
C1907 C96 2.201 . S
C1917 C88 1.787 . S
C1922 C547 1.726 . S
C1927 C65 1.365 . S
C1932 C1294 1.266 . S
C1942 C706 1.560 . S
C1937 C10 1.522 . S
C1947 C44 1.032 . S
C1952 C1138 1.007 . S
C1962 C890 1.251 . S
C1957 C34 1.029 . S
C1972 C1471 1.470 . S
C1967 C13 1.792 . S
C1982 C386 2.052 . S
C1977 C138 2.130 . S
C1992 C1378 0.796 . S
C1987 C296 0.805 . S
C1997 C112 1.191 . S
C2002 C554 1.141 . S
C2007 C270 1.704 . S
C2012 C1303 1.624 . S
C2017 C140 2.129 . S
C2022 C715 1.965 . S
C2032 C1131 1.178 . S
C2027 C294 1.294 . S
C2037 C114 0.810 . S
C2042 C874 0.794 1_545 S
C2047 C268 1.830 . S
C2052 C1478 1.630 . S
C2057 C169 1.424 . S
C2062 C370 1.389 1_554 S
C2067 C161 1.863 . S
C2072 C1058 1.806 . S
C2077 C234 2.386 . S
C2082 C788 2.181 . S
C2087 C226 0.683 . S
C2092 C1219 0.661 . S
C2102 C1462 1.492 . S
C2097 C247 1.448 1_565 S
C2107 C195 1.551 . S
C2112 C538 1.536 . S
C2122 C638 2.006 . S
C2117 C239 2.043 . S
C2132 C463 0.712 . S
C2127 C187 0.679 . S
C2137 C75 2.089 . S
C2142 C1544 1.983 . S
C2152 C1383 2.189 . S
C2147 C83 2.196 . S
C2157 C99 1.773 . S
C2162 C1628 1.822 . S
C2167 C52 1.391 . S
C2172 C1306 1.321 . S
C2177 C47 1.490 . S
C2182 C1054 1.584 . S
C2192 C1126 1.032 1_455 S
C2187 C5 1.090 . S
C2202 C1215 1.363 . S
C2197 C23 1.240 . S
C2212 C1460 1.500 . S
C2207 C26 1.587 . S
C2222 C1551 2.104 . S
C2217 C244 2.213 . S
C2227 C177 0.830 . S
C2232 C1390 0.820 . S
C2242 C1635 1.170 . S
C2237 C192 1.204 . S
C2252 C1292 1.704 . S
C2247 C203 1.675 . S
C2262 C1040 2.032 . S
C2257 C242 2.057 . S
C2267 C179 1.299 . S
C2272 C1142 1.213 . S
C2282 C1222 0.822 . S
C2277 C190 0.864 . S
C2287 C205 1.863 . S
C2292 C1467 1.683 . S
C2302 C1558 1.396 . S
C2297 C286 1.352 . S
C2307 C122 1.887 . S
C2312 C711 1.856 . S
C2322 C799 2.232 . S
C2317 C130 2.406 . S
C2332 C872 0.784 . S
C2327 C148 0.777 . S
C2342 C1474 1.318 . S
C2337 C273 1.122 . S
C2347 C260 1.407 . S
C2352 C1642 1.511 . S
C2362 C627 2.062 . S
C2357 C135 2.085 . S
C2372 C452 0.720 . S
C2367 C109 0.720 . S
C2377 C86 2.076 . S
C2382 C1555 1.925 . S
C2392 C470 2.134 . S
C2387 C70 2.201 . S
C2397 C62 1.787 . S
C2402 C1639 1.726 . S
C2407 C91 1.366 . S
C2412 C622 1.270 . S
C2417 C36 1.523 . S
C2422 C1042 1.559 . S
C2432 C802 1.003 . S
C2427 C18 1.028 . S
C2437 C8 1.021 . S
C2442 C1226 1.251 . S
C2447 C39 1.789 . S
C2452 C967 1.465 . S
C2462 C1562 2.052 . S
C2457 C307 2.123 . S
C2467 C153 0.800 . S
C2472 C454 0.799 . S
C2482 C1646 1.142 . S
C2477 C281 1.190 . S
C2487 C127 1.703 . S
C2492 C631 1.630 . S
C2497 C309 2.129 . S
C2502 C1051 1.965 . S
C2512 C795 1.178 . S
C2507 C151 1.294 . S
C2517 C283 0.810 . S
C2522 C1210 0.795 1_655 S
C2532 C974 1.624 . S
C2527 C125 1.831 . S
C2542 C1546 1.386 . S
C2537 C221 1.423 . S
C2552 C722 1.808 1_665 S
C2547 C200 1.864 . S
C2557 C208 2.386 . S
C2562 C1124 2.181 . S
C2572 C883 0.662 . S
C2567 C174 0.684 . S
C2577 C182 1.447 . S
C2582 C958 1.492 . S
C2587 C156 1.551 . S
C2592 C1630 1.536 1_554 S
C2602 C1310 2.006 . S
C2597 C213 2.044 . S
C2612 C1387 0.703 . S
C2607 C252 0.681 . S
