# Generated by pormake.
# Topology gar, (4,6)-cn, num edge types: 1
# Building blocks:
#     Node 0, Type 0, BuildingBlock: GALJAG_clean_sbu_0, # of connection points: 4
#     Node 1, Type 0, BuildingBlock: GALJAG_clean_sbu_0, # of connection points: 4
#     Node 2, Type 0, BuildingBlock: GALJAG_clean_sbu_0, # of connection points: 4
#     Node 3, Type 0, BuildingBlock: GALJAG_clean_sbu_0, # of connection points: 4
#     Node 4, Type 0, BuildingBlock: GALJAG_clean_sbu_0, # of connection points: 4
#     Node 5, Type 0, BuildingBlock: GALJAG_clean_sbu_0, # of connection points: 4
#     Node 6, Type 0, BuildingBlock: GALJAG_clean_sbu_0, # of connection points: 4
#     Node 7, Type 0, BuildingBlock: GALJAG_clean_sbu_0, # of connection points: 4
#     Node 8, Type 0, BuildingBlock: GALJAG_clean_sbu_0, # of connection points: 4
#     Node 9, Type 0, BuildingBlock: GALJAG_clean_sbu_0, # of connection points: 4
#     Node 10, Type 0, BuildingBlock: GALJAG_clean_sbu_0, # of connection points: 4
#     Node 11, Type 0, BuildingBlock: GALJAG_clean_sbu_0, # of connection points: 4
#     Node 12, Type 0, BuildingBlock: GALJAG_clean_sbu_0, # of connection points: 4
#     Node 13, Type 0, BuildingBlock: GALJAG_clean_sbu_0, # of connection points: 4
#     Node 14, Type 0, BuildingBlock: GALJAG_clean_sbu_0, # of connection points: 4
#     Node 15, Type 0, BuildingBlock: GALJAG_clean_sbu_0, # of connection points: 4
#     Node 16, Type 0, BuildingBlock: GALJAG_clean_sbu_0, # of connection points: 4
#     Node 17, Type 0, BuildingBlock: GALJAG_clean_sbu_0, # of connection points: 4
#     Node 18, Type 0, BuildingBlock: GALJAG_clean_sbu_0, # of connection points: 4
#     Node 19, Type 0, BuildingBlock: GALJAG_clean_sbu_0, # of connection points: 4
#     Node 20, Type 0, BuildingBlock: GALJAG_clean_sbu_0, # of connection points: 4
#     Node 21, Type 0, BuildingBlock: GALJAG_clean_sbu_0, # of connection points: 4
#     Node 22, Type 0, BuildingBlock: GALJAG_clean_sbu_0, # of connection points: 4
#     Node 23, Type 0, BuildingBlock: GALJAG_clean_sbu_0, # of connection points: 4
#     Node 24, Type 1, BuildingBlock: PAMTOO_clean_sbu_0, # of connection points: 6
#     Node 25, Type 1, BuildingBlock: PAMTOO_clean_sbu_0, # of connection points: 6
#     Node 26, Type 1, BuildingBlock: PAMTOO_clean_sbu_0, # of connection points: 6
#     Node 27, Type 1, BuildingBlock: PAMTOO_clean_sbu_0, # of connection points: 6
#     Node 28, Type 1, BuildingBlock: PAMTOO_clean_sbu_0, # of connection points: 6
#     Node 29, Type 1, BuildingBlock: PAMTOO_clean_sbu_0, # of connection points: 6
#     Node 30, Type 1, BuildingBlock: PAMTOO_clean_sbu_0, # of connection points: 6
#     Node 31, Type 1, BuildingBlock: PAMTOO_clean_sbu_0, # of connection points: 6
#     Node 32, Type 1, BuildingBlock: PAMTOO_clean_sbu_0, # of connection points: 6
#     Node 33, Type 1, BuildingBlock: PAMTOO_clean_sbu_0, # of connection points: 6
#     Node 34, Type 1, BuildingBlock: PAMTOO_clean_sbu_0, # of connection points: 6
#     Node 35, Type 1, BuildingBlock: PAMTOO_clean_sbu_0, # of connection points: 6
#     Node 36, Type 1, BuildingBlock: PAMTOO_clean_sbu_0, # of connection points: 6
#     Node 37, Type 1, BuildingBlock: PAMTOO_clean_sbu_0, # of connection points: 6
#     Node 38, Type 1, BuildingBlock: PAMTOO_clean_sbu_0, # of connection points: 6
#     Node 39, Type 1, BuildingBlock: PAMTOO_clean_sbu_0, # of connection points: 6
#     Edge 40, Type (0, 1), BuildingBlock: AJUNOK_clean_linker_0, # of connection points: 2
#     Edge 41, Type (0, 1), BuildingBlock: AJUNOK_clean_linker_0, # of connection points: 2
#     Edge 42, Type (0, 1), BuildingBlock: AJUNOK_clean_linker_0, # of connection points: 2
#     Edge 43, Type (0, 1), BuildingBlock: AJUNOK_clean_linker_0, # of connection points: 2
#     Edge 44, Type (0, 1), BuildingBlock: AJUNOK_clean_linker_0, # of connection points: 2
#     Edge 45, Type (0, 1), BuildingBlock: AJUNOK_clean_linker_0, # of connection points: 2
#     Edge 46, Type (0, 1), BuildingBlock: AJUNOK_clean_linker_0, # of connection points: 2
#     Edge 47, Type (0, 1), BuildingBlock: AJUNOK_clean_linker_0, # of connection points: 2
#     Edge 48, Type (0, 1), BuildingBlock: AJUNOK_clean_linker_0, # of connection points: 2
#     Edge 49, Type (0, 1), BuildingBlock: AJUNOK_clean_linker_0, # of connection points: 2
#     Edge 50, Type (0, 1), BuildingBlock: AJUNOK_clean_linker_0, # of connection points: 2
#     Edge 51, Type (0, 1), BuildingBlock: AJUNOK_clean_linker_0, # of connection points: 2
#     Edge 52, Type (0, 1), BuildingBlock: AJUNOK_clean_linker_0, # of connection points: 2
#     Edge 53, Type (0, 1), BuildingBlock: AJUNOK_clean_linker_0, # of connection points: 2
#     Edge 54, Type (0, 1), BuildingBlock: AJUNOK_clean_linker_0, # of connection points: 2
#     Edge 55, Type (0, 1), BuildingBlock: AJUNOK_clean_linker_0, # of connection points: 2
#     Edge 56, Type (0, 1), BuildingBlock: AJUNOK_clean_linker_0, # of connection points: 2
#     Edge 57, Type (0, 1), BuildingBlock: AJUNOK_clean_linker_0, # of connection points: 2
#     Edge 58, Type (0, 1), BuildingBlock: AJUNOK_clean_linker_0, # of connection points: 2
#     Edge 59, Type (0, 1), BuildingBlock: AJUNOK_clean_linker_0, # of connection points: 2
#     Edge 60, Type (0, 1), BuildingBlock: AJUNOK_clean_linker_0, # of connection points: 2
#     Edge 61, Type (0, 1), BuildingBlock: AJUNOK_clean_linker_0, # of connection points: 2
#     Edge 62, Type (0, 1), BuildingBlock: AJUNOK_clean_linker_0, # of connection points: 2
#     Edge 63, Type (0, 1), BuildingBlock: AJUNOK_clean_linker_0, # of connection points: 2
#     Edge 64, Type (0, 1), BuildingBlock: AJUNOK_clean_linker_0, # of connection points: 2
#     Edge 65, Type (0, 1), BuildingBlock: AJUNOK_clean_linker_0, # of connection points: 2
#     Edge 66, Type (0, 1), BuildingBlock: AJUNOK_clean_linker_0, # of connection points: 2
#     Edge 67, Type (0, 1), BuildingBlock: AJUNOK_clean_linker_0, # of connection points: 2
#     Edge 68, Type (0, 1), BuildingBlock: AJUNOK_clean_linker_0, # of connection points: 2
#     Edge 69, Type (0, 1), BuildingBlock: AJUNOK_clean_linker_0, # of connection points: 2
#     Edge 70, Type (0, 1), BuildingBlock: AJUNOK_clean_linker_0, # of connection points: 2
#     Edge 71, Type (0, 1), BuildingBlock: AJUNOK_clean_linker_0, # of connection points: 2
#     Edge 72, Type (0, 1), BuildingBlock: AJUNOK_clean_linker_0, # of connection points: 2
#     Edge 73, Type (0, 1), BuildingBlock: AJUNOK_clean_linker_0, # of connection points: 2
#     Edge 74, Type (0, 1), BuildingBlock: AJUNOK_clean_linker_0, # of connection points: 2
#     Edge 75, Type (0, 1), BuildingBlock: AJUNOK_clean_linker_0, # of connection points: 2
#     Edge 76, Type (0, 1), BuildingBlock: AJUNOK_clean_linker_0, # of connection points: 2
#     Edge 77, Type (0, 1), BuildingBlock: AJUNOK_clean_linker_0, # of connection points: 2
#     Edge 78, Type (0, 1), BuildingBlock: AJUNOK_clean_linker_0, # of connection points: 2
#     Edge 79, Type (0, 1), BuildingBlock: AJUNOK_clean_linker_0, # of connection points: 2
#     Edge 80, Type (0, 1), BuildingBlock: AJUNOK_clean_linker_0, # of connection points: 2
#     Edge 81, Type (0, 1), BuildingBlock: AJUNOK_clean_linker_0, # of connection points: 2
#     Edge 82, Type (0, 1), BuildingBlock: AJUNOK_clean_linker_0, # of connection points: 2
#     Edge 83, Type (0, 1), BuildingBlock: AJUNOK_clean_linker_0, # of connection points: 2
#     Edge 84, Type (0, 1), BuildingBlock: AJUNOK_clean_linker_0, # of connection points: 2
#     Edge 85, Type (0, 1), BuildingBlock: AJUNOK_clean_linker_0, # of connection points: 2
#     Edge 86, Type (0, 1), BuildingBlock: AJUNOK_clean_linker_0, # of connection points: 2
#     Edge 87, Type (0, 1), BuildingBlock: AJUNOK_clean_linker_0, # of connection points: 2
#     Edge 88, Type (0, 1), BuildingBlock: AJUNOK_clean_linker_0, # of connection points: 2
#     Edge 89, Type (0, 1), BuildingBlock: AJUNOK_clean_linker_0, # of connection points: 2
#     Edge 90, Type (0, 1), BuildingBlock: AJUNOK_clean_linker_0, # of connection points: 2
#     Edge 91, Type (0, 1), BuildingBlock: AJUNOK_clean_linker_0, # of connection points: 2
#     Edge 92, Type (0, 1), BuildingBlock: AJUNOK_clean_linker_0, # of connection points: 2
#     Edge 93, Type (0, 1), BuildingBlock: AJUNOK_clean_linker_0, # of connection points: 2
#     Edge 94, Type (0, 1), BuildingBlock: AJUNOK_clean_linker_0, # of connection points: 2
#     Edge 95, Type (0, 1), BuildingBlock: AJUNOK_clean_linker_0, # of connection points: 2
#     Edge 96, Type (0, 1), BuildingBlock: AJUNOK_clean_linker_0, # of connection points: 2
#     Edge 97, Type (0, 1), BuildingBlock: AJUNOK_clean_linker_0, # of connection points: 2
#     Edge 98, Type (0, 1), BuildingBlock: AJUNOK_clean_linker_0, # of connection points: 2
#     Edge 99, Type (0, 1), BuildingBlock: AJUNOK_clean_linker_0, # of connection points: 2
#     Edge 100, Type (0, 1), BuildingBlock: AJUNOK_clean_linker_0, # of connection points: 2
#     Edge 101, Type (0, 1), BuildingBlock: AJUNOK_clean_linker_0, # of connection points: 2
#     Edge 102, Type (0, 1), BuildingBlock: AJUNOK_clean_linker_0, # of connection points: 2
#     Edge 103, Type (0, 1), BuildingBlock: AJUNOK_clean_linker_0, # of connection points: 2
#     Edge 104, Type (0, 1), BuildingBlock: AJUNOK_clean_linker_0, # of connection points: 2
#     Edge 105, Type (0, 1), BuildingBlock: AJUNOK_clean_linker_0, # of connection points: 2
#     Edge 106, Type (0, 1), BuildingBlock: AJUNOK_clean_linker_0, # of connection points: 2
#     Edge 107, Type (0, 1), BuildingBlock: AJUNOK_clean_linker_0, # of connection points: 2
#     Edge 108, Type (0, 1), BuildingBlock: AJUNOK_clean_linker_0, # of connection points: 2
#     Edge 109, Type (0, 1), BuildingBlock: AJUNOK_clean_linker_0, # of connection points: 2
#     Edge 110, Type (0, 1), BuildingBlock: AJUNOK_clean_linker_0, # of connection points: 2
#     Edge 111, Type (0, 1), BuildingBlock: AJUNOK_clean_linker_0, # of connection points: 2
#     Edge 112, Type (0, 1), BuildingBlock: AJUNOK_clean_linker_0, # of connection points: 2
#     Edge 113, Type (0, 1), BuildingBlock: AJUNOK_clean_linker_0, # of connection points: 2
#     Edge 114, Type (0, 1), BuildingBlock: AJUNOK_clean_linker_0, # of connection points: 2
#     Edge 115, Type (0, 1), BuildingBlock: AJUNOK_clean_linker_0, # of connection points: 2
#     Edge 116, Type (0, 1), BuildingBlock: AJUNOK_clean_linker_0, # of connection points: 2
#     Edge 117, Type (0, 1), BuildingBlock: AJUNOK_clean_linker_0, # of connection points: 2
#     Edge 118, Type (0, 1), BuildingBlock: AJUNOK_clean_linker_0, # of connection points: 2
#     Edge 119, Type (0, 1), BuildingBlock: AJUNOK_clean_linker_0, # of connection points: 2
#     Edge 120, Type (0, 1), BuildingBlock: AJUNOK_clean_linker_0, # of connection points: 2
#     Edge 121, Type (0, 1), BuildingBlock: AJUNOK_clean_linker_0, # of connection points: 2
#     Edge 122, Type (0, 1), BuildingBlock: AJUNOK_clean_linker_0, # of connection points: 2
#     Edge 123, Type (0, 1), BuildingBlock: AJUNOK_clean_linker_0, # of connection points: 2
#     Edge 124, Type (0, 1), BuildingBlock: AJUNOK_clean_linker_0, # of connection points: 2
#     Edge 125, Type (0, 1), BuildingBlock: AJUNOK_clean_linker_0, # of connection points: 2
#     Edge 126, Type (0, 1), BuildingBlock: AJUNOK_clean_linker_0, # of connection points: 2
#     Edge 127, Type (0, 1), BuildingBlock: AJUNOK_clean_linker_0, # of connection points: 2
#     Edge 128, Type (0, 1), BuildingBlock: AJUNOK_clean_linker_0, # of connection points: 2
#     Edge 129, Type (0, 1), BuildingBlock: AJUNOK_clean_linker_0, # of connection points: 2
#     Edge 130, Type (0, 1), BuildingBlock: AJUNOK_clean_linker_0, # of connection points: 2
#     Edge 131, Type (0, 1), BuildingBlock: AJUNOK_clean_linker_0, # of connection points: 2
#     Edge 132, Type (0, 1), BuildingBlock: AJUNOK_clean_linker_0, # of connection points: 2
#     Edge 133, Type (0, 1), BuildingBlock: AJUNOK_clean_linker_0, # of connection points: 2
#     Edge 134, Type (0, 1), BuildingBlock: AJUNOK_clean_linker_0, # of connection points: 2
#     Edge 135, Type (0, 1), BuildingBlock: AJUNOK_clean_linker_0, # of connection points: 2
# Relax obj value: 0.195
# Max RMSD: 0.282
# Mean RMSD: 0.181
data_MOF--net-gar--node1-GALJAG_clean_sbu_0--node2-PAMTOO_clean_sbu_0--edge1-AJUNOK_clean_linker_0
_symmetry_space_group_name_H-M    P1
_symmetry_Int_Tables_number       1
_symmetry_cell_setting            triclinic
loop_
_symmetry_equiv_pos_as_xyz
'x, y, z'
_cell_length_a     44.705782
_cell_length_b     45.101818
_cell_length_c     42.931111
_cell_angle_alpha  96.293473
_cell_angle_beta   96.30357
_cell_angle_gamma 101.84464
loop_
_atom_site_label
_atom_site_type_symbol
_atom_site_fract_x
_atom_site_fract_y
_atom_site_fract_z
_atom_type_partial_charge
In0 In 0.08953 0.36033 0.37231 0.0
O1 O 0.1181 0.3412 0.33272 0.0
O2 O 0.14401 0.37142 0.37085 0.0
C3 C 1.02687 0.35297 0.34662 0.0
C4 C 0.08228 0.31193 0.40587 0.0
C5 C 0.09298 0.41604 0.40895 0.0
O6 O 0.04896 0.36371 0.33174 0.0
O7 O 0.0366 0.34566 0.37273 0.0
O8 O 0.09668 0.39193 0.41976 0.0
O9 O 0.0892 0.41292 0.37897 0.0
C10 C 0.14514 0.35405 0.34606 0.0
O11 O 0.09825 0.33807 0.41742 0.0
O12 O 0.07118 0.30984 0.37718 0.0
In13 In 0.06132 0.7734 0.721 0.0
O14 O 0.06117 0.79638 0.67602 0.0
O15 O 0.07645 0.82524 0.71943 0.0
C16 C 0.05312 0.71974 0.67914 0.0
C17 C 0.12457 0.78159 0.74708 0.0
C18 C 1.00448 0.77566 0.74675 0.0
O19 O 0.05342 0.74598 0.6713 0.0
O20 O 0.05547 0.71972 0.70897 0.0
O21 O 1.02891 0.77287 0.76333 0.0
O22 O 1.0086 0.77608 0.71821 0.0
C23 C 0.0718 0.82324 0.68971 0.0
O24 O 0.10661 0.79731 0.75794 0.0
O25 O 0.11011 0.76044 0.72579 0.0
In26 In 0.59249 0.86062 0.87533 0.0
O27 O 0.62062 0.84116 0.83574 0.0
O28 O 0.64681 0.87248 0.87296 0.0
C29 C 0.52957 0.85265 0.85007 0.0
C30 C 0.58775 0.81275 0.90946 0.0
C31 C 0.59424 0.91567 0.91203 0.0
O32 O 0.5513 0.86608 0.83626 0.0
O33 O 0.5399 0.84271 0.87438 0.0
O34 O 0.59615 0.89116 0.92296 0.0
O35 O 0.59339 0.91328 0.88224 0.0
C36 C 0.64772 0.85455 0.8485 0.0
O37 O 0.60363 0.83914 0.92036 0.0
O38 O 0.57514 0.81029 0.88123 0.0
In39 In 0.5577 0.2709 0.22148 0.0
O40 O 0.54292 0.2401 0.17353 0.0
O41 O 0.55981 0.21901 0.21127 0.0
C42 C 0.5628 0.32006 0.18898 0.0
C43 C 0.50307 0.274 0.25093 0.0
C44 C 0.62148 0.2793 0.24418 0.0
O45 O 0.55312 0.29282 0.17592 0.0
O46 O 0.5685 0.32271 0.21872 0.0
O47 O 0.60051 0.27087 0.26125 0.0
O48 O 0.61016 0.28332 0.21721 0.0
C49 C 0.55004 0.2162 0.18194 0.0
O50 O 0.52988 0.28972 0.26164 0.0
O51 O 0.50408 0.25532 0.2271 0.0
In52 In 0.11723 0.83362 0.13581 0.0
O53 O 0.08595 0.78507 0.11249 0.0
O54 O 0.13308 0.7899 0.11155 0.0
C55 C 0.11165 0.88915 0.10837 0.0
C56 C 0.07199 0.82173 0.17252 0.0
C57 C 0.1699 0.83957 0.17975 0.0
O58 O 0.13216 0.87427 0.10286 0.0
O59 O 0.09424 0.87573 0.12598 0.0
O60 O 0.14548 0.84714 0.18663 0.0
O61 O 0.16861 0.83102 0.15046 0.0
C62 C 0.10705 0.77144 0.10654 0.0
O63 O 0.09983 0.83318 0.18387 0.0
O64 O 0.06696 0.81686 0.14264 0.0
In65 In 0.52884 0.80189 0.49333 0.0
O66 O 0.54545 0.80572 0.445 0.0
O67 O 0.57959 0.80832 0.48419 0.0
C68 C 0.47358 0.801 0.45626 0.0
C69 C 0.53339 0.74397 0.51512 0.0
C70 C 0.54012 0.86351 0.52377 0.0
O71 O 0.49901 0.80099 0.44605 0.0
O72 O 0.47496 0.79929 0.48569 0.0
O73 O 0.51574 0.84372 0.525 0.0
O74 O 0.55939 0.85148 0.51058 0.0
C75 C 0.57377 0.80937 0.4549 0.0
O76 O 0.54229 0.76974 0.5324 0.0
O77 O 0.52065 0.74729 0.48837 0.0
In78 In 0.61451 0.33108 0.63875 0.0
O79 O 0.62761 0.28714 0.61026 0.0
O80 O 0.58395 0.28111 0.62459 0.0
C81 C 0.61388 0.3877 0.61239 0.0
C82 C 0.56523 0.32506 0.6711 0.0
C83 C 0.66712 0.335 0.68166 0.0
O84 O 0.60575 0.36136 0.59614 0.0
O85 O 0.62366 0.38541 0.64051 0.0
O86 O 0.64129 0.33782 0.68935 0.0
O87 O 0.66709 0.33118 0.65191 0.0
C88 C 0.6029 0.26801 0.61222 0.0
O89 O 0.59277 0.33072 0.68447 0.0
O90 O 0.56257 0.32366 0.64134 0.0
In91 In 1.02836 0.30382 0.99309 0.0
O92 O 0.04516 0.2738 0.03246 0.0
O93 O 1.01811 0.24936 0.99147 0.0
C94 C 0.03877 0.3667 0.01879 0.0
C95 C 0.07632 0.30812 0.95857 0.0
C96 C 0.97178 0.30236 0.95836 0.0
O97 O 1.0275 0.34518 0.03394 0.0
O98 O 0.04528 0.35633 0.99254 0.0
O99 O 0.99672 0.30337 0.94695 0.0
O100 O 0.97439 0.30025 0.98771 0.0
C101 C 0.03364 0.24733 0.01728 0.0
O102 O 0.04892 0.29521 0.94702 0.0
O103 O 0.07974 0.3176 0.98783 0.0
In104 In 0.43177 0.05857 0.35918 0.0
O105 O 0.4673 0.07151 0.32591 0.0
O106 O 0.43646 0.02795 0.31575 0.0
C107 C 0.46538 0.08707 0.41313 0.0
C108 C 0.38757 0.08481 0.33567 0.0
C109 C 0.41386 1.0043 0.37767 0.0
O110 O 0.47641 0.0856 0.38733 0.0
O111 O 0.43705 0.07523 0.41129 0.0
O112 O 0.39803 0.02444 0.37978 0.0
O113 O 0.43963 0.01245 0.36811 0.0
C114 C 0.45847 0.04645 0.30776 0.0
O115 O 0.38474 0.05635 0.33299 0.0
O116 O 0.4128 0.10026 0.35057 0.0
In117 In 0.29631 0.23827 0.54634 0.0
O118 O 0.28838 0.27715 0.58393 0.0
O119 O 0.31155 0.24376 0.59915 0.0
C120 C 0.30327 0.25721 0.48811 0.0
C121 C 0.34592 0.2136 0.55051 0.0
C122 C 0.24114 0.19904 0.54472 0.0
O123 O 0.31035 0.27587 0.51348 0.0
O124 O 0.29116 0.23053 0.49238 0.0
O125 O 0.26667 0.19127 0.54788 0.0
O126 O 0.24317 0.22704 0.54207 0.0
C127 C 0.30119 0.26697 0.60713 0.0
O128 O 0.3193 0.19851 0.53895 0.0
O129 O 0.3479 0.24161 0.55973 0.0
In130 In 0.15359 0.0919 0.81485 0.0
O131 O 0.11927 0.0654 0.77138 0.0
O132 O 0.13282 0.11313 0.77289 0.0
C133 C 0.13385 0.08293 0.8729 0.0
C134 C 0.18604 0.04994 0.79701 0.0
C135 C 0.19248 0.14771 0.82561 0.0
O136 O 0.11563 0.08574 0.8492 0.0
O137 O 0.16107 0.085 0.86715 0.0
O138 O 0.20143 0.1231 0.82726 0.0
O139 O 0.16354 0.14438 0.81931 0.0
C140 C 0.11814 0.08821 0.75703 0.0
O141 O 0.19551 0.07822 0.79688 0.0
O142 O 0.15988 0.04262 0.80599 0.0
In143 In 0.32258 0.95256 0.01221 0.0
O144 O 0.31039 0.92248 0.04969 0.0
O145 O 0.3576 0.93527 0.04285 0.0
C146 C 0.2892 0.91838 0.96002 0.0
C147 C 0.30356 0.99436 0.04942 0.0
C148 C 0.3751 0.98015 0.99408 0.0
O149 O 0.30062 0.90739 0.98292 0.0
O150 O 0.29345 0.94712 0.96394 0.0
O151 O 0.3515 0.99152 0.99235 0.0
O152 O 0.37115 0.95383 1.00254 0.0
C153 C 0.338 0.92126 0.05812 0.0
O154 O 0.32862 1.00011 0.03834 0.0
O155 O 0.28693 0.96803 0.04009 0.0
In156 In 0.35427 0.40413 0.06996 0.0
O157 O 0.34426 0.36285 0.09823 0.0
O158 O 0.35775 0.4072 0.12392 0.0
C159 C 0.34941 0.37812 0.00843 0.0
C160 C 0.30333 0.42693 0.0693 0.0
C161 C 0.40985 0.44314 0.07361 0.0
O162 O 0.35513 0.36365 0.03132 0.0
O163 O 0.34626 0.40481 0.01695 0.0
O164 O 0.38462 0.45151 0.07181 0.0
O165 O 0.4073 0.41474 0.07413 0.0
C166 C 0.34903 0.37905 0.12505 0.0
O167 O 0.32951 0.44161 0.08255 0.0
O168 O 0.30251 0.40031 0.0561 0.0
In169 In 0.79987 0.16878 0.10439 0.0
O170 O 0.8215 0.12868 0.09516 0.0
O171 O 0.83943 0.16916 0.07549 0.0
C172 C 0.75074 0.12433 0.08282 0.0
C173 C 0.81548 0.18775 0.16644 0.0
C174 C 0.78655 0.21865 0.08175 0.0
O175 O 0.76478 0.14135 0.06514 0.0
O176 O 0.762 0.12955 0.11176 0.0
O177 O 0.81386 0.21566 0.08833 0.0
O178 O 0.76615 0.19676 0.08703 0.0
C179 C 0.84006 0.14176 0.0783 0.0
O180 O 0.83516 0.18496 0.14812 0.0
O181 O 0.7879 0.17893 0.15357 0.0
In182 In 0.22992 0.59243 0.25832 0.0
O183 O 0.26976 0.569 0.26363 0.0
O184 O 0.23142 0.55514 0.28834 0.0
C185 C 0.26476 0.645 0.24908 0.0
C186 C 0.19511 0.56177 0.20573 0.0
C187 C 0.20155 0.61826 0.30265 0.0
O188 O 0.27581 0.62558 0.26291 0.0
O189 O 0.23661 0.63653 0.23789 0.0
O190 O 0.18913 0.61015 0.27435 0.0
O191 O 0.22818 0.61333 0.30839 0.0
C192 C 0.25791 0.55241 0.28291 0.0
O193 O 0.2208 0.5795 0.20525 0.0
O194 O 0.18821 0.55805 0.23291 0.0
In195 In 0.85498 0.90107 0.56854 0.0
O196 O 0.84626 0.86204 0.60011 0.0
O197 O 0.85303 0.90765 0.62193 0.0
C198 C 0.85166 0.87267 0.50785 0.0
C199 C 0.8042 0.92343 0.55871 0.0
C200 C 0.90999 0.94212 0.57703 0.0
O201 O 0.8582 0.85949 0.5315 0.0
O202 O 0.84708 0.89891 0.51528 0.0
O203 O 0.88436 0.94943 0.57727 0.0
O204 O 0.90834 0.91355 0.57378 0.0
C205 C 0.84712 0.87977 0.62537 0.0
O206 O 0.83117 0.93893 0.55954 0.0
O207 O 0.80231 0.89607 0.56379 0.0
In208 In 0.98423 0.03686 0.29339 0.0
O209 O 1.02319 0.03822 0.2611 0.0
O210 O 0.97974 0.04308 0.24062 0.0
C211 C 1.01331 0.03992 0.35417 0.0
C212 C 0.95866 0.08603 0.30034 0.0
C213 C 0.94397 0.98167 0.28643 0.0
O214 O 1.02824 0.04661 0.33154 0.0
O215 O 0.98464 0.03154 0.34583 0.0
O216 O 0.93626 1.00701 0.28874 0.0
O217 O 0.9727 0.98371 0.28666 0.0
C218 C 1.00706 0.04257 0.23658 0.0
O219 O 0.94378 0.05931 0.29008 0.0
O220 O 0.98736 0.08852 0.30722 0.0
In221 In 0.29916 0.66218 0.59183 0.0
O222 O 0.32862 0.62882 0.60081 0.0
O223 O 0.32943 0.64796 0.55738 0.0
C224 C 0.25007 0.61684 0.57611 0.0
C225 C 0.31371 0.69306 0.6489 0.0
C226 C 0.28893 0.71097 0.56586 0.0
O227 O 0.26357 0.63097 0.55601 0.0
O228 O 0.26171 0.62566 0.60467 0.0
O229 O 0.31573 0.70624 0.57167 0.0
O230 O 0.26745 0.69039 0.57171 0.0
C231 C 0.33825 0.62932 0.57429 0.0
O232 O 0.33416 0.6883 0.63216 0.0
O233 O 0.28635 0.67955 0.63806 0.0
In234 In 0.48437 0.53647 0.79255 0.0
O235 O 0.44475 0.55945 0.77839 0.0
O236 O 0.48319 0.58632 0.8094 0.0
C237 C 0.44537 0.48112 0.79099 0.0
C238 C 0.50955 0.54104 0.7366 0.0
C239 C 0.51385 0.53954 0.85303 0.0
O240 O 0.43658 0.50598 0.79126 0.0
O241 O 0.47411 0.48392 0.79076 0.0
O242 O 0.52769 0.53611 0.82905 0.0
O243 O 0.48623 0.54136 0.8461 0.0
C244 C 0.45683 0.58492 0.79468 0.0
O245 O 0.52303 0.55598 0.7628 0.0
O246 O 0.48474 0.5229 0.73912 0.0
In247 In 0.72908 0.09021 0.76143 0.0
O248 O 0.76732 0.06556 0.75635 0.0
O249 O 0.73742 0.05357 0.79068 0.0
C250 C 0.76517 0.1426 0.75343 0.0
C251 C 0.69051 0.06124 0.71066 0.0
C252 C 0.70342 0.11599 0.80823 0.0
O253 O 0.77502 0.12326 0.76837 0.0
O254 O 0.73743 0.13437 0.74084 0.0
O255 O 0.69143 0.11187 0.77969 0.0
O256 O 0.72776 0.10628 0.81312 0.0
C257 C 0.76112 0.05009 0.77848 0.0
O258 O 0.68534 0.05678 0.73828 0.0
O259 O 0.71597 0.07875 0.70893 0.0
In260 In 0.79603 0.73838 0.0473 0.0
O261 O 0.80957 0.69977 0.07052 0.0
O262 O 0.84431 0.72789 0.05035 0.0
C263 C 0.74104 0.69835 0.04044 0.0
C264 C 0.80214 0.77546 0.104 0.0
C265 C 0.8032 0.75553 0.988 0.0
O266 O 0.7664 0.69043 0.03951 0.0
O267 O 0.74308 0.72702 0.04367 0.0
O268 O 0.80747 0.77489 0.01264 0.0
O269 O 0.79478 0.72847 0.99336 0.0
C270 C 0.83706 0.7052 0.06499 0.0
O271 O 0.82471 0.77051 0.09059 0.0
O272 O 0.77638 0.76436 0.08729 0.0
In273 In 0.92806 0.55273 0.85323 0.0
O274 O 0.88168 0.54615 0.82359 0.0
O275 O 0.89957 0.58874 0.85302 0.0
C276 C 0.91265 0.5008 0.87776 0.0
C277 C 0.94752 0.54225 0.79733 0.0
C278 C 0.97184 0.58635 0.89776 0.0
O279 O 0.89672 0.52082 0.87915 0.0
O280 O 0.93738 0.50827 0.86623 0.0
O281 O 0.9777 0.57531 0.87145 0.0
O282 O 0.94358 0.58188 0.90072 0.0
C283 C 0.87806 0.5724 0.83302 0.0
O284 O 0.94934 0.56912 0.81069 0.0
O285 O 0.93647 0.5212 0.81256 0.0
In286 In 0.8214 0.45534 0.51403 0.0
O287 O 0.82064 0.41445 0.54068 0.0
O288 O 0.85393 0.45561 0.55812 0.0
C289 C 0.79233 0.42458 0.45817 0.0
C290 C 0.78829 0.48895 0.5449 0.0
C291 C 0.87571 0.48325 0.49927 0.0
O292 O 0.79728 0.41167 0.48217 0.0
O293 O 0.79989 0.45329 0.46313 0.0
O294 O 0.85561 0.49743 0.50717 0.0
O295 O 0.8681 0.45457 0.4982 0.0
C296 C 0.84256 0.4284 0.56169 0.0
O297 O 0.8044 0.49867 0.52439 0.0
O298 O 0.78663 0.46125 0.54791 0.0
In299 In 0.65505 0.591 0.31419 0.0
O300 O 0.69757 0.57054 0.31933 0.0
O301 O 0.65742 0.54347 0.29081 0.0
C302 C 0.69624 0.64456 0.31595 0.0
C303 C 0.61986 0.58768 0.25658 0.0
C304 C 0.63459 0.58475 0.37244 0.0
O305 O 0.70086 0.61885 0.30572 0.0
O306 O 0.6703 0.64355 0.32556 0.0
O307 O 0.61684 0.58714 0.34822 0.0
O308 O 0.66176 0.58551 0.36709 0.0
C309 C 0.6854 0.546 0.30141 0.0
O310 O 0.61926 0.56523 0.27191 0.0
O311 O 0.63584 0.61251 0.27168 0.0
Dy312 Dy 0.10744 0.08514 0.07457 0.0
Dy313 Dy 0.04172 0.04921 0.0399 0.0
C314 C 0.09712 0.0646 0.99843 0.0
O315 O 0.08165 0.12393 0.07054 0.0
O316 O 0.04085 0.09926 0.03388 0.0
O317 O 0.14904 0.11982 0.07627 0.0
O318 O 0.14114 0.09614 0.11655 0.0
O319 O 0.03206 0.06356 0.08923 0.0
O320 O 0.0812 0.07007 0.11342 0.0
O321 O 0.06231 0.01144 0.05956 0.0
O322 O 0.11337 0.03506 0.07008 0.0
O323 O 1.00152 0.01253 0.03687 0.0
O324 O 1.00601 0.04132 0.99992 0.0
C325 C 0.05795 0.1252 0.04971 0.0
O326 O 0.11392 0.08235 0.02317 0.0
O327 O 0.07097 0.04621 1.00101 0.0
C328 C 0.18997 0.10344 0.10181 0.0
C329 C 0.24084 0.07674 0.1019 0.0
C330 C 0.21599 0.06703 0.07765 0.0
C331 C 0.19072 0.08022 0.07762 0.0
C332 C 0.21508 0.11379 0.12588 0.0
C333 C 0.24074 0.10044 0.12588 0.0
C334 C 0.16125 0.11357 0.10303 0.0
C335 C 0.05161 0.06542 0.115 0.0
C336 C 0.09123 1.00993 0.06819 0.0
C337 C 0.9583 0.03056 0.01762 0.0
C338 C 0.91531 0.06587 0.02899 0.0
C339 C 0.93082 0.05546 0.05421 0.0
C340 C 0.95215 0.03783 0.04861 0.0
C341 C 0.94074 0.03879 0.99212 0.0
C342 C 0.91918 0.05645 0.99782 0.0
C343 C 0.98732 0.02171 0.01283 0.0
H344 H 0.21589 0.04868 0.05903 0.0
H345 H 0.1713 0.07161 0.05917 0.0
H346 H 0.21444 0.13144 0.14491 0.0
H347 H 0.25995 0.10798 0.14469 0.0
H348 H 0.92754 0.06229 0.07839 0.0
H349 H 0.96538 0.03196 0.0688 0.0
H350 H 0.94539 0.03362 0.96812 0.0
H351 H 0.90694 0.06421 0.97819 0.0
Dy352 Dy 0.34302 0.8297 0.29999 0.0
Dy353 Dy 0.29463 0.82275 0.3506 0.0
C354 C 0.3371 0.88515 0.34492 0.0
O355 O 0.37297 0.83271 0.34595 0.0
O356 O 0.33741 0.80978 0.37542 0.0
O357 O 0.38363 0.85452 0.28391 0.0
O358 O 0.35882 0.8105 0.2584 0.0
O359 O 0.28459 0.78104 0.31501 0.0
O360 O 0.33472 0.78262 0.31113 0.0
O361 O 0.26906 0.83859 0.30886 0.0
O362 O 0.29668 0.82392 0.27029 0.0
O363 O 0.26344 0.79423 0.37535 0.0
O364 O 0.26791 0.84343 0.38224 0.0
C365 C 0.36656 0.8196 0.37105 0.0
O366 O 0.33324 0.87479 0.31481 0.0
O367 O 0.32837 0.86678 0.36521 0.0
C368 C 0.37714 0.84846 0.22883 0.0
C369 C 0.367 0.86951 0.17082 0.0
C370 C 0.3504 0.87704 0.19523 0.0
C371 C 0.35546 0.86657 0.22413 0.0
C372 C 0.39387 0.84097 0.20455 0.0
C373 C 0.38891 0.85164 0.17555 0.0
C374 C 0.37983 0.83521 0.25806 0.0
C375 C 0.30634 0.76737 0.30724 0.0
C376 C 0.27177 0.83232 0.27858 0.0
C377 C 0.26251 0.8172 0.42624 0.0
C378 C 0.27072 0.80176 0.4876 0.0
C379 C 0.29582 0.80734 0.47035 0.0
C380 C 0.29179 0.81536 0.44009 0.0
C381 C 0.238 0.81443 0.44415 0.0
C382 C 0.24218 0.80709 0.4749 0.0
C383 C 0.25706 0.81752 0.39214 0.0
H384 H 0.33351 0.89094 0.19185 0.0
H385 H 0.34205 0.8721 0.24264 0.0
H386 H 0.41023 0.82652 0.20784 0.0
H387 H 0.40166 0.84555 0.15668 0.0
H388 H 0.31791 0.80272 0.47876 0.0
H389 H 0.31099 0.81763 0.42656 0.0
H390 H 0.21528 0.81603 0.43374 0.0
H391 H 0.22251 0.80325 0.48777 0.0
Dy392 Dy 0.53199 0.06107 0.58768 0.0
Dy393 Dy 0.606 0.06938 0.55333 0.0
C394 C 0.55298 0.08081 0.51559 0.0
O395 O 0.53684 0.01197 0.57046 0.0
O396 O 0.58168 0.01835 0.54523 0.0
O397 O 0.48407 0.04919 0.56739 0.0
O398 O 0.49761 0.07142 0.61604 0.0
O399 O 0.58255 0.06135 0.59361 0.0
O400 O 0.55779 0.05118 0.63178 0.0
O401 O 0.60283 0.1185 0.57033 0.0
O402 O 0.55669 0.11254 0.59338 0.0
O403 O 0.65224 0.07388 0.57652 0.0
O404 O 0.6422 0.0655 0.52506 0.0
C405 C 0.5572 1.0006 0.55458 0.0
O406 O 0.5453 0.07344 0.54249 0.0
O407 O 0.58113 0.08082 0.51067 0.0
C408 C 0.45951 0.08812 0.58534 0.0
C409 C 0.43057 0.13661 0.57556 0.0
C410 C 0.45429 0.13169 0.55819 0.0
C411 C 0.46897 0.10783 0.56336 0.0
C412 C 0.43596 0.0932 0.60284 0.0
C413 C 0.42162 0.11739 0.59806 0.0
C414 C 0.4758 0.06388 0.59187 0.0
C415 C 0.58435 0.05429 0.62201 0.0
C416 C 0.58191 0.13012 0.58489 0.0
C417 C 0.67784 0.03997 0.54936 0.0
C418 C 0.70971 0.99227 0.5478 0.0
C419 C 0.70788 1.00911 0.57675 0.0
C420 C 0.69217 0.03285 0.57753 0.0
C421 C 0.67872 0.02224 0.52053 0.0
C422 C 0.69439 0.99852 0.5198 0.0
C423 C 0.66204 0.0657 0.54998 0.0
H424 H 0.46143 0.14631 0.54072 0.0
H425 H 0.48779 0.10487 0.55032 0.0
H426 H 0.42875 0.07853 0.62025 0.0
H427 H 0.40307 0.12068 0.6114 0.0
H428 H 0.71979 1.00483 0.59861 0.0
H429 H 0.69181 0.04601 0.60011 0.0
H430 H 0.66776 0.02697 0.4984 0.0
H431 H 0.69532 0.9856 0.49725 0.0
Dy432 Dy 0.34763 0.29658 0.81029 0.0
Dy433 Dy 0.28945 0.33143 0.80872 0.0
C434 C 0.35756 0.36746 0.80028 0.0
O435 O 0.35244 0.32102 0.85954 0.0
O436 O 0.30234 0.32588 0.85943 0.0
O437 O 0.39516 0.2958 0.82515 0.0
O438 O 0.36624 0.25829 0.79266 0.0
O439 O 0.27028 0.28111 0.80357 0.0
O440 O 0.31037 0.2651 0.82919 0.0
O441 O 0.29866 0.32674 0.75786 0.0
O442 O 0.32175 0.2861 0.76125 0.0
O443 O 0.24227 0.33221 0.79167 0.0
O444 O 0.26821 0.36655 0.82944 0.0
C445 C 0.32991 0.32722 0.87446 0.0
O446 O 0.36455 0.34096 0.79279 0.0
O447 O 0.3312 0.3694 0.81049 0.0
C448 C 0.41707 0.27627 0.78258 0.0
C449 C 0.46308 0.28987 0.74298 0.0
C450 C 0.43712 0.30298 0.74045 0.0
C451 C 0.41426 0.29605 0.75988 0.0
C452 C 0.44258 0.26268 0.7849 0.0
C453 C 0.46538 0.26936 0.76519 0.0
C454 C 0.39438 0.27176 0.80498 0.0
C455 C 0.28081 0.26094 0.81889 0.0
C456 C 0.30908 0.30395 0.7442 0.0
C457 C 0.21616 0.34634 0.83431 0.0
C458 C 0.17143 0.33362 0.87581 0.0
C459 C 0.18479 0.31036 0.86266 0.0
C460 C 0.20709 0.31669 0.84235 0.0
C461 C 0.20261 0.36952 0.84711 0.0
C462 C 0.18047 0.36324 0.86765 0.0
C463 C 0.24097 0.35357 0.81428 0.0
H464 H 0.43494 0.31939 0.72419 0.0
H465 H 0.39474 0.30682 0.75776 0.0
H466 H 0.44515 0.24738 0.80229 0.0
H467 H 0.48503 0.25876 0.76757 0.0
H468 H 0.17839 0.28737 0.86859 0.0
H469 H 0.21751 0.29846 0.83321 0.0
H470 H 0.20936 0.39257 0.84145 0.0
H471 H 0.17027 0.38154 0.87705 0.0
Dy472 Dy 0.09252 0.04177 0.55385 0.0
Dy473 Dy 0.05622 0.09873 0.55411 0.0
C474 C 1.02072 0.03223 0.56547 0.0
O475 O 0.08526 0.05045 0.50291 0.0
O476 O 0.04198 0.06941 0.50705 0.0
O477 O 0.0951 0.99558 0.53635 0.0
O478 O 0.13067 0.02315 0.57214 0.0
O479 O 0.10088 0.11317 0.53555 0.0
O480 O 0.12938 0.08464 0.56124 0.0
O481 O 0.07632 0.1005 0.6053 0.0
O482 O 0.08326 0.05132 0.60379 0.0
O483 O 0.05782 0.14666 0.568 0.0
O484 O 1.0197 0.11939 0.53496 0.0
C485 C 0.05997 0.05731 0.48969 0.0
O486 O 0.04268 0.02092 0.55384 0.0
O487 O 1.0223 0.06194 0.57097 0.0
C488 C 0.11384 0.9714 0.57787 0.0
C489 C 0.10279 0.9245 0.61651 0.0
C490 C 0.09035 0.95053 0.62153 0.0
C491 C 0.09592 0.97374 0.6025 0.0
C492 C 0.12645 0.94557 0.57272 0.0
C493 C 0.12095 0.92227 0.59188 0.0
C494 C 0.11852 0.99573 0.55743 0.0
C495 C 0.12754 0.10911 0.54794 0.0
C496 C 0.08161 0.07735 0.61981 0.0
C497 C 0.03963 0.16995 0.52534 0.0
C498 C 0.05243 0.21545 0.48513 0.0
C499 C 0.06848 0.19175 0.48511 0.0
C500 C 0.06184 0.169 0.50468 0.0
C501 C 1.02342 0.19349 0.52528 0.0
C502 C 1.0296 0.21594 0.50519 0.0
C503 C 0.03417 0.14697 0.54745 0.0
H504 H 0.07554 0.95257 0.6396 0.0
H505 H 0.08579 0.99336 0.60667 0.0
H506 H 0.14033 0.94333 0.55381 0.0
H507 H 0.13089 0.9025 0.58745 0.0
H508 H 0.08603 0.1907 0.46975 0.0
H509 H 0.07431 0.15081 0.5039 0.0
H510 H 1.00615 0.19467 0.54094 0.0
H511 H 1.01696 0.23402 0.50574 0.0
Dy512 Dy 0.33021 0.85683 0.78217 0.0
Dy513 Dy 0.32542 0.79292 0.81192 0.0
C514 C 0.30851 0.85017 0.84956 0.0
O515 O 0.38063 0.85226 0.79216 0.0
O516 O 0.37359 0.82105 0.83053 0.0
O517 O 0.34754 0.9056 0.78519 0.0
O518 O 0.31725 0.88082 0.74369 0.0
O519 O 0.35114 0.79222 0.77095 0.0
O520 O 0.32379 0.81915 0.74279 0.0
O521 O 0.27778 0.78918 0.784 0.0
O522 O 0.27856 0.84016 0.78426 0.0
O523 O 0.31126 0.74387 0.80248 0.0
O524 O 0.33604 0.76549 0.84832 0.0
C525 C 0.39245 0.83921 0.81544 0.0
O526 O 0.32618 0.86711 0.8329 0.0
O527 O 0.30233 0.82023 0.84401 0.0
C528 C 0.30858 0.92825 0.76364 0.0
C529 C 0.26599 0.96594 0.77076 0.0
C530 C 0.26862 0.94403 0.79119 0.0
C531 C 0.28941 0.92513 0.78739 0.0
C532 C 0.30631 0.95016 0.74329 0.0
C533 C 0.28514 0.96889 0.74681 0.0
C534 C 0.32978 0.90758 0.75963 0.0
C535 C 0.33881 0.79732 0.74383 0.0
C536 C 0.2629 0.8114 0.78036 0.0
C537 C 0.34781 0.71961 0.82591 0.0
C538 C 0.3864 0.67834 0.81582 0.0
C539 C 0.38924 0.70432 0.80024 0.0
C540 C 0.37026 0.72496 0.80546 0.0
C541 C 0.3453 0.6939 0.84187 0.0
C542 C 0.36462 0.67346 0.837 0.0
C543 C 0.32603 0.7399 0.82913 0.0
H544 H 0.2549 0.94169 0.81043 0.0
H545 H 0.29052 0.90799 0.803 0.0
H546 H 0.32071 0.95264 0.72461 0.0
H547 H 0.2836 0.98554 0.73067 0.0
H548 H 0.40596 0.70849 0.78388 0.0
H549 H 0.37268 0.74479 0.79309 0.0
H550 H 0.32809 0.68935 0.85765 0.0
H551 H 0.36208 0.65345 0.84915 0.0
Dy552 Dy 0.56251 0.08894 0.01404 0.0
Dy553 Dy 0.55806 0.04207 0.06685 0.0
C554 C 0.57119 0.01985 0.99564 0.0
O555 O 0.51607 0.05822 1.00316 0.0
O556 O 0.51267 0.05353 0.05452 0.0
O557 O 0.5482 0.10186 0.96876 0.0
O558 O 0.58107 0.13429 1.00347 0.0
O559 O 0.56638 0.08891 0.09542 0.0
O560 O 0.54662 0.11286 0.05639 0.0
O561 O 0.6073 0.04955 0.06094 0.0
O562 O 0.61064 0.09256 0.03595 0.0
O563 O 0.57253 0.02609 0.11029 0.0
O564 O 0.53074 1.00134 0.08009 0.0
C565 C 0.49945 0.05077 0.02538 0.0
O566 O 0.57807 0.04853 0.99009 0.0
O567 O 0.55881 0.01265 0.02109 0.0
C568 C 0.59022 0.13216 0.95101 0.0
C569 C 0.63352 0.13957 0.90831 0.0
C570 C 0.62633 0.11217 0.92129 0.0
C571 C 0.60507 0.1086 0.94256 0.0
C572 C 0.5975 0.15982 0.93855 0.0
C573 C 0.61912 0.16354 0.9172 0.0
C574 C 0.56845 0.12781 0.97403 0.0
C575 C 0.55537 0.11212 0.08664 0.0
C576 C 0.62321 0.07279 0.04991 0.0
C577 C 0.53023 1.00683 0.13467 0.0
C578 C 0.5045 0.01666 0.19031 0.0
C579 C 0.50178 0.03548 0.16672 0.0
C580 C 0.51468 0.03066 0.1391 0.0
C581 C 0.53155 0.98694 0.15736 0.0
C582 C 0.51855 0.99175 0.18512 0.0
C583 C 0.54731 1.00492 0.10779 0.0
H584 H 0.63679 0.09318 0.91459 0.0
H585 H 0.60015 0.08731 0.95236 0.0
H586 H 0.58658 0.17842 0.94535 0.0
H587 H 0.62459 0.185 0.90774 0.0
H588 H 0.49049 0.05445 0.17009 0.0
H589 H 0.51354 0.04622 0.1217 0.0
H590 H 0.54354 0.96848 0.15414 0.0
H591 H 0.52066 0.97691 0.20307 0.0
Dy592 Dy 0.30547 0.27852 0.28555 0.0
Dy593 Dy 0.34306 0.34344 0.32193 0.0
C594 C 0.32677 0.28822 0.36197 0.0
O595 O 0.26783 0.30597 0.28902 0.0
O596 O 0.29269 0.34308 0.32899 0.0
O597 O 0.2637 0.24319 0.27867 0.0
O598 O 0.29945 0.23962 0.24961 0.0
O599 O 0.33171 0.35314 0.27192 0.0
O600 O 0.31592 0.30454 0.24578 0.0
O601 O 0.38221 0.32268 0.30647 0.0
O602 O 0.35621 0.27404 0.28554 0.0
O603 O 0.37635 0.38591 0.32357 0.0
O604 O 0.35263 0.37686 0.36381 0.0
C605 C 0.26662 0.32792 0.31165 0.0
O606 O 0.30828 0.27221 0.33716 0.0
O607 O 0.3465 0.3134 0.35948 0.0
C608 C 0.27386 0.19449 0.26533 0.0
C609 C 0.29493 0.14478 0.2853 0.0
C610 C 0.28101 0.16234 0.30581 0.0
C611 C 0.27063 0.18723 0.29596 0.0
C612 C 0.2836 0.17422 0.2435 0.0
C613 C 0.29431 0.14945 0.25351 0.0
C614 C 0.27392 0.22555 0.25828 0.0
C615 C 0.32526 0.33388 0.24549 0.0
C616 C 0.38252 0.2951 0.29264 0.0
C617 C 0.35408 0.42341 0.34606 0.0
C618 C 0.32331 0.47026 0.33735 0.0
C619 C 0.31125 0.44095 0.32097 0.0
C620 C 0.32649 0.41778 0.32531 0.0
C621 C 0.36645 0.45264 0.36267 0.0
C622 C 0.35111 0.47626 0.35808 0.0
C623 C 0.36837 0.39765 0.34964 0.0
H624 H 0.28109 0.15868 0.33032 0.0
H625 H 0.2629 0.20228 0.31325 0.0
H626 H 0.28602 0.17936 0.2197 0.0
H627 H 0.30511 0.13612 0.2374 0.0
H628 H 0.29035 0.43611 0.30414 0.0
H629 H 0.31679 0.39538 0.31213 0.0
H630 H 0.38777 0.45713 0.37878 0.0
H631 H 0.36083 0.49903 0.37048 0.0
Dy632 Dy 0.59457 0.53893 0.0522 0.0
Dy633 Dy 0.5595 0.59687 0.05381 0.0
C634 C 0.52291 0.5304 0.06247 0.0
O635 O 0.58702 0.54737 1.00115 0.0
O636 O 0.54511 0.56854 1.00623 0.0
O637 O 0.59611 0.49259 0.03407 0.0
O638 O 0.63063 0.51822 0.07189 0.0
O639 O 0.60338 0.61055 0.03405 0.0
O640 O 0.63245 0.58097 0.05745 0.0
O641 O 0.58115 0.59861 0.10431 0.0
O642 O 0.58521 0.54865 0.10223 0.0
O643 O 0.56171 0.64463 0.06914 0.0
O644 O 0.52354 0.61859 0.03533 0.0
C645 C 0.56216 0.55543 0.9884 0.0
O646 O 0.54413 0.51953 0.04901 0.0
O647 O 0.52564 0.56001 0.07057 0.0
C648 C 0.61054 0.46654 0.07595 0.0
C649 C 0.59535 0.4196 0.11387 0.0
C650 C 0.58202 0.44522 0.11649 0.0
C651 C 0.58957 0.46842 0.09776 0.0
C652 C 0.62383 0.44096 0.07307 0.0
C653 C 0.61621 0.41759 0.09181 0.0
C654 C 0.61797 0.49128 0.0563 0.0
C655 C 0.63017 0.60593 0.04517 0.0
C656 C 0.58535 0.57507 0.11862 0.0
C657 C 0.54482 0.6693 0.0271 0.0
C658 C 0.55945 0.71569 0.98827 0.0
C659 C 0.5755 0.692 0.98861 0.0
C660 C 0.56803 0.6689 1.00756 0.0
C661 C 0.52848 0.69272 0.02654 0.0
C662 C 0.53555 0.71559 1.00708 0.0
C663 C 0.53843 0.64582 0.04853 0.0
H664 H 0.5653 0.44704 0.13263 0.0
H665 H 0.57874 0.48776 0.10004 0.0
H666 H 0.64002 0.43902 0.05634 0.0
H667 H 0.6268 0.39806 0.08927 0.0
H668 H 0.59369 0.69122 0.97401 0.0
H669 H 0.58061 0.65082 1.00711 0.0
H670 H 0.51042 0.69346 0.0413 0.0
H671 H 0.52274 0.73353 1.00716 0.0
Dy672 Dy 0.82688 0.35314 0.27127 0.0
Dy673 Dy 0.82172 0.29091 0.31806 0.0
C674 C 0.8071 0.35234 0.34615 0.0
O675 O 0.87722 0.35195 0.29089 0.0
O676 O 0.8728 0.31456 0.32523 0.0
O677 O 0.84289 0.40196 0.27326 0.0
O678 O 0.81125 0.37608 0.23303 0.0
O679 O 0.8315 0.30593 0.27544 0.0
O680 O 0.83657 0.31988 0.2317 0.0
O681 O 0.77146 0.29109 0.30235 0.0
O682 O 0.77618 0.32607 0.26562 0.0
O683 O 0.8123 0.2428 0.30174 0.0
O684 O 0.83028 0.26028 0.35147 0.0
C685 C 0.88976 0.33607 0.31146 0.0
O686 O 0.81194 0.36371 0.3194 0.0
O687 O 0.8108 0.32517 0.35209 0.0
C688 C 0.80217 0.42318 0.25358 0.0
C689 C 0.7614 0.46155 0.26569 0.0
C690 C 0.76225 0.43687 0.28265 0.0
C691 C 0.78216 0.41759 0.27632 0.0
C692 C 0.80107 0.44759 0.23619 0.0
C693 C 0.78059 0.46663 0.2421 0.0
C694 C 0.82377 0.40316 0.24837 0.0
C695 C 0.83607 0.29729 0.2475 0.0
C696 C 0.75914 0.30539 0.28037 0.0
C697 C 0.84735 0.21829 0.32769 0.0
C698 C 0.8894 0.18019 0.32177 0.0
C699 C 0.89374 0.2076 0.30849 0.0
C700 C 0.87278 0.22659 0.31143 0.0
C701 C 0.84366 0.19155 0.34187 0.0
C702 C 0.8645 0.1726 0.33891 0.0
C703 C 0.82397 0.23672 0.3291 0.0
H704 H 0.74755 0.43258 0.30086 0.0
H705 H 0.78211 0.39842 0.28941 0.0
H706 H 0.81612 0.45202 0.21832 0.0
H707 H 0.78021 0.48569 0.22885 0.0
H708 H 0.91253 0.21369 0.29483 0.0
H709 H 0.87593 0.24728 0.30037 0.0
H710 H 0.82424 0.18494 0.35459 0.0
H711 H 0.86078 0.15158 0.34937 0.0
Dy712 Dy 0.06343 0.5905 0.51093 0.0
Dy713 Dy 0.05486 0.54279 0.56296 0.0
C714 C 0.07204 0.52144 0.49232 0.0
O715 O 1.01849 0.55807 0.49666 0.0
O716 O 1.01017 0.55428 0.54714 0.0
O717 O 0.08645 0.63389 0.49897 0.0
O718 O 0.04629 0.60662 0.46844 0.0
O719 O 0.06293 0.58901 0.59288 0.0
O720 O 0.04806 0.61508 0.55329 0.0
O721 O 0.10457 0.54942 0.56003 0.0
O722 O 0.11091 0.59096 0.5325 0.0
O723 O 0.06514 0.52606 0.60711 0.0
O724 O 1.027 0.50059 0.57229 0.0
C725 C 0.99972 0.55145 0.51716 0.0
O726 O 0.07775 0.54986 0.48576 0.0
O727 O 0.06005 0.51432 0.51803 0.0
C728 C 0.08665 0.63282 0.44466 0.0
C729 C 0.12521 0.63832 0.3976 0.0
C730 C 0.11399 0.60963 0.4066 0.0
C731 C 0.09487 0.60688 0.43001 0.0
C732 C 0.09728 0.6615 0.43521 0.0
C733 C 0.11649 0.66425 0.41157 0.0
C734 C 0.06942 0.63013 0.4716 0.0
C735 C 0.05504 0.61363 0.58371 0.0
C736 C 0.12183 0.57127 0.54827 0.0
C737 C 1.02041 0.50305 0.62567 0.0
C738 C 0.98945 0.51144 0.6779 0.0
C739 C 0.98232 0.52461 0.65071 0.0
C740 C 0.99785 0.52058 0.62477 0.0
C741 C 1.02608 0.48818 0.65191 0.0
C742 C 1.01055 0.49227 0.67795 0.0
C743 C 0.04067 0.50377 0.60131 0.0
H744 H 0.12062 0.58945 0.39593 0.0
H745 H 0.08714 0.58461 0.43722 0.0
H746 H 0.09137 0.68176 0.44663 0.0
H747 H 0.12519 0.68655 0.40484 0.0
H748 H 0.96568 0.53902 0.65008 0.0
H749 H 0.99332 0.53231 0.60464 0.0
H750 H 0.04358 0.47474 0.6529 0.0
H751 H 1.0163 0.48191 0.69877 0.0
Dy752 Dy 0.85104 0.79768 0.30788 0.0
Dy753 Dy 0.79096 0.82942 0.30732 0.0
C754 C 0.85727 0.86859 0.29808 0.0
O755 O 0.84219 0.80344 0.35876 0.0
O756 O 0.81949 0.8441 0.35474 0.0
O757 O 0.89761 0.79616 0.32631 0.0
O758 O 0.87171 0.76166 0.28864 0.0
O759 O 0.77831 0.78479 0.32601 0.0
O760 O 0.80914 0.75974 0.2997 0.0
O761 O 0.79042 0.81002 0.25634 0.0
O762 O 0.84132 0.80762 0.25819 0.0
O763 O 0.74248 0.82618 0.29257 0.0
O764 O 0.76858 0.86479 0.32565 0.0
C765 C 0.83354 0.82745 0.37206 0.0
O766 O 0.87002 0.84769 0.30978 0.0
O767 O 0.82708 0.86461 0.29107 0.0
C768 C 0.92416 0.77995 0.28564 0.0
C769 C 0.97257 0.79188 0.24874 0.0
C770 C 0.94925 0.80855 0.24732 0.0
C771 C 0.92532 0.80271 0.26569 0.0
C772 C 0.9471 0.76294 0.28685 0.0
C773 C 0.97117 0.76886 0.26852 0.0
C774 C 0.89874 0.77386 0.30469 0.0
C775 C 0.78461 0.75923 0.31387 0.0
C776 C 0.8145 0.80722 0.24195 0.0
C777 C 0.71727 0.84444 0.33405 0.0
C778 C 0.67102 0.8344 0.37434 0.0
C779 C 0.68632 0.81121 0.36526 0.0
C780 C 0.70915 0.81618 0.34534 0.0
C781 C 0.70249 0.86785 0.34355 0.0
C782 C 0.67961 0.86291 0.36351 0.0
C783 C 0.7412 0.84963 0.31267 0.0
H784 H 0.9498 0.82644 0.23235 0.0
H785 H 0.90774 0.81605 0.26444 0.0
H786 H 0.94639 0.74512 0.30191 0.0
H787 H 0.98856 0.75532 0.26964 0.0
H788 H 0.68026 0.789 0.37314 0.0
H789 H 0.72034 0.79784 0.33856 0.0
H790 H 0.7086 0.88996 0.33548 0.0
H791 H 0.66875 0.88147 0.37063 0.0
Dy792 Dy 0.84179 0.32872 0.80187 0.0
Dy793 Dy 0.79219 0.31958 0.8521 0.0
C794 C 0.83393 0.38269 0.84746 0.0
O795 O 0.87126 0.33139 0.8483 0.0
O796 O 0.8352 0.30747 0.87694 0.0
O797 O 0.88274 0.3542 0.78694 0.0
O798 O 0.85729 0.31152 0.75908 0.0
O799 O 0.78374 0.27869 0.81569 0.0
O800 O 0.83421 0.28135 0.81208 0.0
O801 O 0.76658 0.33517 0.81031 0.0
O802 O 0.79559 0.32285 0.77195 0.0
O803 O 0.76165 0.2892 0.87579 0.0
O804 O 0.76425 0.33806 0.88401 0.0
C805 C 0.86435 0.31834 0.87338 0.0
O806 O 0.82972 0.37256 0.81728 0.0
O807 O 0.8251 0.36413 0.86756 0.0
C808 C 0.8777 0.35094 0.7315 0.0
C809 C 0.87084 0.37596 0.67499 0.0
C810 C 0.86126 0.38907 0.70225 0.0
C811 C 0.86448 0.37653 0.73031 0.0
C812 C 0.88735 0.33785 0.70429 0.0
C813 C 0.88379 0.35022 0.67605 0.0
C814 C 0.87878 0.33618 0.76013 0.0
C815 C 0.806 0.26564 0.80827 0.0
C816 C 0.77017 0.33023 0.7801 0.0
C817 C 0.75864 0.31023 0.92704 0.0
C818 C 0.7658 0.29676 0.98944 0.0
C819 C 0.79113 0.30131 0.97242 0.0
C820 C 0.78763 0.3083 0.94165 0.0
C821 C 0.73364 0.30751 0.94433 0.0
C822 C 0.73724 0.30099 0.97547 0.0
C823 C 0.75406 0.31152 0.89298 0.0
H824 H 0.8507 0.40862 0.70163 0.0
H825 H 0.85616 0.3865 0.75088 0.0
H826 H 0.89707 0.31776 0.70476 0.0
H827 H 0.89108 0.33975 0.65509 0.0
H828 H 0.8132 0.29729 0.98186 0.0
H829 H 0.80717 0.31031 0.92858 0.0
H830 H 0.7111 0.309 0.93332 0.0
H831 H 0.71733 0.29768 0.98803 0.0
Dy832 Dy 0.80698 0.77924 0.78433 0.0
Dy833 Dy 0.84619 0.84262 0.82323 0.0
C834 C 0.82692 0.78739 0.86179 0.0
O835 O 0.76805 0.80345 0.79198 0.0
O836 O 0.79518 0.84453 0.82695 0.0
O837 O 0.77283 0.7375 0.78307 0.0
O838 O 0.79682 0.74529 0.74282 0.0
O839 O 0.84182 0.85161 0.77243 0.0
O840 O 0.80654 0.80942 0.74671 0.0
O841 O 0.88563 0.81961 0.81247 0.0
O842 O 0.85754 0.77793 0.77862 0.0
O843 O 0.88241 0.88333 0.82769 0.0
O844 O 0.85216 0.87757 0.86346 0.0
C845 C 0.7683 0.82765 0.81238 0.0
O846 O 0.80894 0.77243 0.83609 0.0
O847 O 0.84744 0.8123 0.86052 0.0
C848 C 0.78763 0.6961 0.75737 0.0
C849 C 0.80474 0.64346 0.77444 0.0
C850 C 0.8274 0.66948 0.77262 0.0
C851 C 0.81892 0.69569 0.76424 0.0
C852 C 0.76496 0.66942 0.75712 0.0
C853 C 0.77353 0.64301 0.76571 0.0
C854 C 0.77896 0.72544 0.75626 0.0
C855 C 0.82477 0.83609 0.74657 0.0
C856 C 0.88467 0.79545 0.79162 0.0
C857 C 0.86034 0.92355 0.84343 0.0
C858 C 0.83554 0.97233 0.82701 0.0
C859 C 0.82419 0.94325 0.81001 0.0
C860 C 0.83636 0.91903 0.81829 0.0
C861 C 0.87176 0.95262 0.8608 0.0
C862 C 0.85915 0.97715 0.85263 0.0
C863 C 0.8716 0.89683 0.85096 0.0
H864 H 0.8516 0.67005 0.77955 0.0
H865 H 0.83675 0.71614 0.76504 0.0
H866 H 0.74071 0.66961 0.75219 0.0
H867 H 0.75592 0.62297 0.76724 0.0
H868 H 0.80563 0.93925 0.79049 0.0
H869 H 0.82682 0.89658 0.80514 0.0
H870 H 0.89002 0.95621 0.88051 0.0
H871 H 0.86774 0.99966 0.86605 0.0
Dy872 Dy 0.61047 0.58523 0.57578 0.0
Dy873 Dy 0.54726 0.54589 0.53745 0.0
C874 C 0.60122 0.56761 0.49931 0.0
O875 O 0.58441 0.62326 0.56911 0.0
O876 O 0.54538 0.59604 0.53165 0.0
O877 O 0.65863 0.60238 0.57412 0.0
O878 O 0.63889 0.61447 0.61629 0.0
O879 O 0.53586 0.55441 0.58729 0.0
O880 O 0.58401 0.57214 0.61526 0.0
O881 O 0.56889 0.50711 0.55203 0.0
O882 O 0.61434 0.53513 0.58024 0.0
O883 O 0.50645 0.50957 0.53185 0.0
O884 O 0.51398 0.53855 0.49535 0.0
C885 C 0.56085 0.6228 0.54741 0.0
O886 O 0.61278 0.5887 0.52367 0.0
O887 O 0.58028 0.54374 0.50257 0.0
C888 C 0.68881 0.60455 0.62164 0.0
C889 C 0.73501 0.5715 0.62226 0.0
C890 C 0.7056 0.55788 0.62883 0.0
C891 C 0.68263 0.57454 0.62888 0.0
C892 C 0.71931 0.61976 0.62108 0.0
C893 C 0.74256 0.60331 0.6219 0.0
C894 C 0.66415 0.61479 0.60365 0.0
C895 C 0.55431 0.56157 0.6144 0.0
C896 C 0.59506 0.50816 0.57012 0.0
C897 C 0.4667 0.53099 0.51333 0.0
C898 C 0.41681 0.55434 0.52953 0.0
C899 C 0.44648 0.56795 0.54464 0.0
C900 C 0.47117 0.55639 0.53657 0.0
C901 C 0.43717 0.51758 0.49738 0.0
C902 C 0.41204 0.52951 0.50539 0.0
C903 C 0.49387 0.51959 0.50746 0.0
H904 H 0.69896 0.53347 0.62918 0.0
H905 H 0.65914 0.56266 0.62967 0.0
H906 H 0.72446 0.64303 0.61568 0.0
H907 H 0.76531 0.61446 0.61756 0.0
H908 H 0.45054 0.5876 0.56278 0.0
H909 H 0.49389 0.56725 0.54878 0.0
H910 H 0.43362 0.4981 0.47917 0.0
H911 H 0.38908 0.51925 0.49328 0.0
Dy912 Dy 0.03558 0.56559 0.08533 0.0
Dy913 Dy 0.10584 0.57115 0.05023 0.0
C914 C 0.04708 0.58381 0.01185 0.0
O915 O 0.04008 0.51606 0.06942 0.0
O916 O 0.08293 0.52019 0.04201 0.0
O917 O 0.98633 0.54808 0.07656 0.0
O918 O 1.00727 0.57854 0.1197 0.0
O919 O 0.08589 0.56551 0.09173 0.0
O920 O 0.06265 0.55579 0.12968 0.0
O921 O 0.10459 0.62101 0.06451 0.0
O922 O 0.06015 0.61695 0.08976 0.0
O923 O 0.15354 0.58018 0.07008 0.0
O924 O 0.13954 0.56333 0.01976 0.0
C925 C 0.05894 0.50347 0.05268 0.0
O926 O 0.03085 0.57889 0.03573 0.0
O927 O 0.07568 0.58087 0.01129 0.0
C928 C 0.95891 0.58379 0.09707 0.0
C929 C 0.91926 0.62423 0.09026 0.0
C930 C 0.9321 0.6132 0.06421 0.0
C931 C 0.95187 0.59321 0.06756 0.0
C932 C 0.94566 0.59438 0.12305 0.0
C933 C 0.92597 0.61453 0.1197 0.0
C934 C 0.98166 0.56483 0.10166 0.0
C935 C 0.08884 0.55835 0.11968 0.0
C936 C 0.08501 0.63367 0.08001 0.0
C937 C 0.178 0.5436 0.04684 0.0
C938 C 0.21057 0.49718 0.05299 0.0
C939 C 0.18796 0.50057 0.07249 0.0
C940 C 0.17158 0.52349 0.06927 0.0
C941 C 0.19986 0.53957 0.02669 0.0
C942 C 0.21599 0.51638 0.02966 0.0
C943 C 0.16147 0.56827 0.04386 0.0
H944 H 0.92664 0.61999 0.04123 0.0
H945 H 0.96185 0.58538 0.04718 0.0
H946 H 0.95103 0.58752 0.14606 0.0
H947 H 0.91643 0.62293 0.14018 0.0
H948 H 0.18346 0.48587 0.09056 0.0
H949 H 0.15427 0.5258 0.08463 0.0
H950 H 0.20474 0.55462 0.009 0.0
H951 H 0.23354 0.51418 0.01458 0.0
C952 C 1.02336 0.18785 0.00984 0.0
C953 C 0.03904 0.21647 0.02736 0.0
C954 C 1.02894 0.1591 0.01751 0.0
C955 C 0.05093 0.15663 0.04312 0.0
H956 H 1.00654 0.18755 0.98958 0.0
H957 H 1.01608 0.13848 1.00264 0.0
S958 S 0.09843 0.22411 0.09744 0.0
N959 N 0.07753 0.23962 0.07242 0.0
N960 N 0.08818 0.1868 0.08637 0.0
C961 C 0.06658 0.1851 0.06103 0.0
C962 C 0.06066 0.21437 0.05336 0.0
C963 C 0.19863 0.85194 0.23605 0.0
C964 C 0.19664 0.83847 0.20434 0.0
C965 C 0.2227 0.84995 0.25971 0.0
C966 C 0.24612 0.83433 0.253 0.0
H967 H 0.18133 0.86414 0.24277 0.0
H968 H 0.22294 0.86089 0.28351 0.0
S969 S 0.25042 0.79281 0.1743 0.0
N970 N 0.21977 0.80757 0.16814 0.0
N971 N 0.2644 0.80375 0.21196 0.0
C972 C 0.24413 0.82044 0.22141 0.0
C973 C 0.21968 0.82252 0.19738 0.0
C974 C 0.52097 0.91231 0.54246 0.0
C975 C 0.545 0.8983 0.53363 0.0
C976 C 0.52492 0.94481 0.54925 0.0
C977 C 0.55308 0.96551 0.54739 0.0
H978 H 0.49859 0.89805 0.54371 0.0
H979 H 0.5054 0.95376 0.55563 0.0
S980 S 0.62425 0.94115 0.52732 0.0
N981 N 0.59869 0.90859 0.52488 0.0
N982 N 0.606 0.96833 0.53727 0.0
C983 C 0.57739 0.95165 0.53908 0.0
C984 C 0.57341 0.91869 0.53235 0.0
C985 C 0.54374 0.31605 0.72148 0.0
C986 C 0.53851 0.31746 0.68878 0.0
C987 C 0.51928 0.30691 0.73862 0.0
C988 C 0.4885 0.29887 0.72384 0.0
H989 H 0.567 0.32173 0.734 0.0
H990 H 0.52453 0.30643 0.76377 0.0
S991 S 0.4622 0.29824 0.63863 0.0
N992 N 0.50007 0.30988 0.64221 0.0
N993 N 0.45414 0.2925 0.67441 0.0
C994 C 0.48286 0.30028 0.69117 0.0
C995 C 0.50783 0.30958 0.67367 0.0
C996 C 0.07782 0.84457 0.63877 0.0
C997 C 0.07951 0.84969 0.67195 0.0
C998 C 0.08579 0.86877 0.6212 0.0
C999 C 0.09563 0.89918 0.63601 0.0
H1000 H 0.0704 0.82159 0.62616 0.0
H1001 H 0.08374 0.86363 0.59571 0.0
S1002 S 0.10443 0.92509 0.72229 0.0
N1003 N 0.09196 0.88764 0.71896 0.0
N1004 N 0.10716 0.93308 0.68596 0.0
C1005 C 0.09749 0.90469 0.66918 0.0
C1006 C 0.08942 0.87999 0.68712 0.0
C1007 C 0.48205 0.86212 0.81479 0.0
C1008 C 0.4947 0.84925 0.84048 0.0
C1009 C 0.44949 0.85929 0.80699 0.0
C1010 C 0.42757 0.84344 0.82441 0.0
H1011 H 0.49743 0.8746 0.80055 0.0
H1012 H 0.44146 0.86952 0.78692 0.0
S1013 S 0.44812 0.80568 0.89426 0.0
N1014 N 0.48173 0.82007 0.88337 0.0
N1015 N 0.42207 0.81496 0.86913 0.0
C1016 C 0.4401 0.83064 0.85018 0.0
C1017 C 0.47299 0.83348 0.85804 0.0
C1018 C 0.56509 0.16554 0.16584 0.0
C1019 C 0.54911 0.18834 0.15838 0.0
C1020 C 0.56663 0.1409 0.1429 0.0
C1021 C 0.55231 0.1378 0.11126 0.0
H1022 H 0.57719 0.16709 0.18944 0.0
H1023 H 0.57971 0.12446 0.14996 0.0
S1024 S 0.50491 0.18965 0.08011 0.0
N1025 N 0.51687 0.20477 0.11729 0.0
N1026 N 0.51967 0.15911 0.07473 0.0
C1027 C 0.53543 0.15997 0.10387 0.0
C1028 C 0.53387 0.18495 0.12717 0.0
C1029 C 0.20493 0.36423 0.35156 0.0
C1030 C 0.17573 0.34807 0.33533 0.0
C1031 C 0.23354 0.35811 0.34349 0.0
C1032 C 0.23524 0.33522 0.31863 0.0
H1033 H 0.20582 0.38182 0.37116 0.0
H1034 H 0.25467 0.3714 0.35736 0.0
S1035 S 0.16596 0.28601 0.26785 0.0
N1036 N 0.15109 0.30797 0.2924 0.0
N1037 N 0.20377 0.29649 0.27755 0.0
C1038 C 0.20618 0.31909 0.30194 0.0
C1039 C 0.17702 0.32543 0.31013 0.0
C1040 C 0.99855 0.0498 0.17887 0.0
C1041 C 1.01897 0.04797 0.20582 0.0
C1042 C 1.0091 0.05568 0.14983 0.0
C1043 C 0.04065 0.06031 0.14639 0.0
H1044 H 0.97405 0.04658 0.18012 0.0
H1045 H 0.9923 0.05655 0.12994 0.0
S1046 S 0.10387 0.05826 0.20994 0.0
N1047 N 0.07232 0.05143 0.22705 0.0
N1048 N 0.0923 0.06266 0.17323 0.0
C1049 C 0.06133 0.05867 0.17334 0.0
C1050 C 0.0505 0.05246 0.20275 0.0
C1051 C 0.25423 0.73493 0.53285 0.0
C1052 C 0.28276 0.73745 0.55133 0.0
C1053 C 0.24936 0.75762 0.51449 0.0
C1054 C 0.27271 0.78385 0.5144 0.0
H1055 H 0.23627 0.71436 0.53078 0.0
H1056 H 0.22806 0.75322 0.49836 0.0
S1057 S 0.34836 0.80471 0.56567 0.0
N1058 N 0.33258 0.7702 0.57309 0.0
N1059 N 0.32296 0.81373 0.53947 0.0
C1060 C 0.29997 0.78819 0.53577 0.0
C1061 C 0.30516 0.76472 0.55398 0.0
C1062 C 0.6657 0.07516 0.66211 0.0
C1063 C 0.66568 0.0542 0.68404 0.0
C1064 C 0.63918 0.07451 0.64156 0.0
C1065 C 0.61245 0.05201 0.64115 0.0
H1066 H 0.68541 0.09385 0.66259 0.0
H1067 H 0.63895 0.09301 0.62752 0.0
S1068 S 0.60122 0.99032 0.6917 0.0
N1069 N 0.63709 1.00957 0.70333 0.0
N1070 N 0.58745 1.00735 0.66292 0.0
C1071 C 0.61244 0.02994 0.6617 0.0
C1072 C 0.63921 0.03109 0.6834 0.0
C1073 C 0.34664 0.33446 0.96468 0.0
C1074 C 0.34587 0.36525 0.97419 0.0
C1075 C 0.34212 0.32211 0.93234 0.0
C1076 C 0.33637 0.34006 0.90846 0.0
H1077 H 0.35041 0.3197 0.98231 0.0
H1078 H 0.34248 0.29828 0.92602 0.0
S1079 S 0.33418 0.42211 0.92 0.0
N1080 N 0.34063 0.4136 0.95621 0.0
N1081 N 0.33163 0.39014 0.89616 0.0
C1082 C 0.33611 0.3708 0.91752 0.0
C1083 C 0.341 0.38346 0.95016 0.0
C1084 C 1.00746 0.035 0.41098 0.0
C1085 C 1.02713 0.04266 0.38816 0.0
C1086 C 1.01859 0.03906 0.44341 0.0
C1087 C 0.05006 0.05048 0.45477 0.0
H1088 H 0.98293 0.02631 0.40387 0.0
H1089 H 1.00223 0.03343 0.45985 0.0
S1090 S 0.11168 0.074 0.4055 0.0
N1091 N 0.08005 0.0623 0.37962 0.0
N1092 N 0.10097 0.06932 0.44061 0.0
C1093 C 0.07027 0.05753 0.43235 0.0
C1094 C 0.05883 0.0538 0.39912 0.0
C1095 C 0.34575 0.72472 0.6962 0.0
C1096 C 0.31998 0.71944 0.67307 0.0
C1097 C 0.35286 0.7512 0.71811 0.0
C1098 C 0.3347 0.77326 0.71699 0.0
H1099 H 0.36011 0.70813 0.69762 0.0
H1100 H 0.37231 0.75408 0.73644 0.0
S1101 S 0.26775 0.7717 0.657 0.0
N1102 N 0.27828 0.73924 0.64764 0.0
N1103 N 0.29183 0.7894 0.68857 0.0
C1104 C 0.30998 0.76895 0.69256 0.0
C1105 C 0.30247 0.74179 0.67069 0.0
C1106 C 0.69907 0.12488 0.8655 0.0
C1107 C 0.6888 0.1285 0.8343 0.0
C1108 C 0.68239 0.13128 0.89009 0.0
C1109 C 0.65492 0.14156 0.88436 0.0
H1110 H 0.7191 0.11533 0.87074 0.0
H1111 H 0.69002 0.12638 0.91344 0.0
S1112 S 0.62186 0.16085 0.80812 0.0
N1113 N 0.65238 0.14775 0.79986 0.0
N1114 N 0.62063 0.15934 0.84624 0.0
C1115 C 0.6461 0.1482 0.85393 0.0
C1116 C 0.66312 0.14167 0.8288 0.0
C1117 C 0.34425 0.38711 0.1832 0.0
C1118 C 0.34313 0.36683 0.15536 0.0
C1119 C 0.33797 0.37644 0.21197 0.0
C1120 C 0.33018 0.34495 0.21428 0.0
H1121 H 0.34993 0.41158 0.1828 0.0
H1122 H 0.33935 0.39309 0.23257 0.0
S1123 S 0.32496 0.28216 0.1484 0.0
N1124 N 0.33411 0.31373 0.13215 0.0
N1125 N 0.32242 0.2935 0.18569 0.0
C1126 C 0.32905 0.3244 0.1865 0.0
C1127 C 0.33548 0.33534 0.15727 0.0
C1128 C 0.30238 0.04825 0.06659 0.0
C1129 C 0.29391 0.01724 0.07045 0.0
C1130 C 0.28826 0.06968 0.0816 0.0
C1131 C 0.26585 0.06055 0.10112 0.0
H1132 H 0.31784 0.0555 0.04978 0.0
H1133 H 0.29232 0.09261 0.07518 0.0
S1134 S 0.24229 0.98388 0.12539 0.0
N1135 N 0.26661 0.97962 0.09978 0.0
N1136 N 0.24023 0.02022 0.12834 0.0
C1137 C 0.26045 0.03056 0.10845 0.0
C1138 C 0.27437 1.00867 0.09282 0.0
C1139 C 0.71218 0.64396 0.03595 0.0
C1140 C 0.71195 0.6754 0.04017 0.0
C1141 C 0.68577 0.62154 0.03779 0.0
C1142 C 0.65804 0.62968 0.04357 0.0
H1143 H 0.73305 0.63652 0.03151 0.0
H1144 H 0.68703 0.59769 0.03439 0.0
S1145 S 0.64539 0.70862 0.05796 0.0
N1146 N 0.68166 0.71336 0.05139 0.0
N1147 N 0.63212 0.67131 0.05483 0.0
C1148 C 0.65743 0.66097 0.04788 0.0
C1149 C 0.68434 0.6838 0.04616 0.0
C1150 C 0.72997 0.52162 0.31213 0.0
C1151 C 0.70338 0.52321 0.29217 0.0
C1152 C 0.74851 0.50144 0.30335 0.0
C1153 C 0.74149 0.48272 0.27399 0.0
H1154 H 0.73649 0.53603 0.33478 0.0
H1155 H 0.76869 0.50068 0.31947 0.0
S1156 S 0.67487 0.47834 0.21292 0.0
N1157 N 0.6709 0.50414 0.24171 0.0
N1158 N 0.70641 0.46674 0.22494 0.0
C1159 C 0.71512 0.48407 0.25372 0.0
C1160 C 0.69584 0.50417 0.2629 0.0
C1161 C 0.91366 0.53176 0.49909 0.0
C1162 C 0.90718 0.49961 0.49682 0.0
C1163 C 0.94405 0.54872 0.50401 0.0
C1164 C 0.9686 0.53391 0.50641 0.0
H1165 H 0.89521 0.54403 0.49882 0.0
H1166 H 0.94836 0.57347 0.50741 0.0
S1167 S 0.96454 0.45064 0.49828 0.0
N1168 N 0.92817 0.45372 0.49441 0.0
N1169 N 0.98539 0.48598 0.50347 0.0
C1170 C 0.96269 0.50195 0.50195 0.0
C1171 C 0.93183 0.48461 0.49704 0.0
C1172 C 0.36417 0.12973 0.33333 0.0
C1173 C 0.36309 0.09894 0.32277 0.0
C1174 C 0.34126 0.1439 0.32164 0.0
C1175 C 0.31667 0.12782 0.2988 0.0
H1176 H 0.38282 0.14302 0.35077 0.0
H1177 H 0.34319 0.16788 0.32998 0.0
S1178 S 0.30361 0.0471 0.26283 0.0
N1179 N 0.33561 0.05274 0.28798 0.0
N1180 N 0.29257 0.07997 0.2656 0.0
C1181 C 0.31532 0.09715 0.28782 0.0
C1182 C 0.33852 0.08251 0.29999 0.0
C1183 C 0.37486 0.17527 0.5323 0.0
C1184 C 0.3717 0.19839 0.5556 0.0
C1185 C 0.39559 0.15656 0.53842 0.0
C1186 C 0.41313 0.15994 0.5683 0.0
H1187 H 0.36048 0.17097 0.50955 0.0
H1188 H 0.39666 0.13828 0.52026 0.0
S1189 S 0.41414 0.21785 0.63684 0.0
N1190 N 0.38885 0.2248 0.60904 0.0
N1191 N 0.42725 0.18883 0.62091 0.0
C1192 C 0.41103 0.18368 0.59143 0.0
C1193 C 0.39043 0.2032 0.58495 0.0
C1194 C 0.71509 0.70134 0.33063 0.0
C1195 C 0.71938 0.67338 0.31595 0.0
C1196 C 0.73659 0.72881 0.33042 0.0
C1197 C 0.76312 0.72952 0.31526 0.0
H1198 H 0.69498 0.70208 0.34239 0.0
H1199 H 0.73218 0.74963 0.34216 0.0
S1200 S 0.78539 0.66221 0.27382 0.0
N1201 N 0.75256 0.64792 0.28636 0.0
N1202 N 0.79261 0.69932 0.28569 0.0
C1203 C 0.76784 0.70156 0.30083 0.0
C1204 C 0.74606 0.6736 0.3012 0.0
C1205 C 0.90014 0.44917 0.84919 0.0
C1206 C 0.89781 0.46866 0.87619 0.0
C1207 C 0.87924 0.4214 0.84032 0.0
C1208 C 0.85589 0.41168 0.85865 0.0
H1209 H 0.9166 0.45643 0.83329 0.0
H1210 H 0.8811 0.40781 0.81852 0.0
S1211 S 0.84381 0.45199 0.93462 0.0
N1212 N 0.87276 0.47541 0.92304 0.0
N1213 N 0.83417 0.42161 0.90729 0.0
C1214 C 0.85503 0.42963 0.88727 0.0
C1215 C 0.87587 0.45858 0.89583 0.0
C1216 C 0.07982 0.92995 0.09876 0.0
C1217 C 0.10764 0.91977 0.09651 0.0
C1218 C 0.07499 0.95823 0.08929 0.0
C1219 C 0.09785 0.97921 0.07749 0.0
H1220 H 0.06117 0.91573 0.10801 0.0
H1221 H 0.05294 0.96395 0.09186 0.0
S1222 S 0.17511 0.96458 0.06572 0.0
N1223 N 0.15845 0.93381 0.08023 0.0
N1224 N 0.14988 0.98668 0.06377 0.0
C1225 C 0.12592 0.96952 0.07513 0.0
C1226 C 0.13062 0.94019 0.08415 0.0
C1227 C 0.91354 0.28976 0.93912 0.0
C1228 C 0.94348 0.30758 0.9391 0.0
C1229 C 0.88777 0.29367 0.91862 0.0
C1230 C 0.89082 0.31576 0.89747 0.0
H1231 H 0.91016 0.27202 0.95428 0.0
H1232 H 0.8655 0.27871 0.91876 0.0
S1233 S 0.96341 0.37176 0.8925 0.0
N1234 N 0.97378 0.35022 0.91859 0.0
N1235 N 0.92616 0.35813 0.88126 0.0
C1236 C 0.92045 0.33475 0.89879 0.0
C1237 C 0.94646 0.33051 0.9192 0.0
C1238 C 0.61982 0.21785 0.59371 0.0
C1239 C 0.59694 0.23292 0.60366 0.0
C1240 C 0.61486 0.18523 0.58774 0.0
C1241 C 0.58677 0.16535 0.59155 0.0
H1242 H 0.64207 0.23139 0.5908 0.0
H1243 H 0.63358 0.17553 0.58031 0.0
S1244 S 0.51831 0.19254 0.6156 0.0
N1245 N 0.54426 0.22445 0.61587 0.0
N1246 N 0.53518 0.16443 0.60497 0.0
C1247 C 0.56355 0.18022 0.60106 0.0
C1248 C 0.56855 0.21336 0.60699 0.0
C1249 C 0.62739 0.80948 0.44217 0.0
C1250 C 0.59819 0.81582 0.43409 0.0
C1251 C 0.65072 0.81544 0.42275 0.0
C1252 C 0.64602 0.82859 0.3948 0.0
H1253 H 0.63215 0.7995 0.4635 0.0
H1254 H 0.67276 0.80999 0.42984 0.0
S1255 S 0.57395 0.85029 0.36347 0.0
N1256 N 0.56604 0.83636 0.39636 0.0
N1257 N 0.60984 0.84783 0.36018 0.0
C1258 C 0.61703 0.83537 0.38668 0.0
C1259 C 0.59315 0.82889 0.40619 0.0
C1260 C 0.09693 0.28155 0.44859 0.0
C1261 C 0.07468 0.28669 0.42517 0.0
C1262 C 0.08972 0.25814 0.46752 0.0
C1263 C 0.05973 0.2397 0.46441 0.0
H1264 H 0.12015 0.29552 0.4521 0.0
H1265 H 0.10759 0.25477 0.4851 0.0
S1266 S 0.99274 0.24508 0.40789 0.0
N1267 N 1.0213 0.27178 0.40038 0.0
N1268 N 1.00755 0.22867 0.43662 0.0
C1269 C 0.0372 0.24496 0.44143 0.0
C1270 C 0.04473 0.26821 0.42164 0.0
C1271 C 0.67053 0.28777 0.28555 0.0
C1272 C 0.65654 0.28446 0.25373 0.0
C1273 C 0.70331 0.29399 0.294 0.0
C1274 C 0.72403 0.2976 0.2712 0.0
H1275 H 0.65609 0.286 0.30421 0.0
H1276 H 0.71252 0.29667 0.3188 0.0
S1277 S 0.7 0.28765 0.18442 0.0
N1278 N 0.66705 0.28286 0.19922 0.0
N1279 N 0.72738 0.29485 0.21507 0.0
C1280 C 0.71031 0.2936 0.2394 0.0
C1281 C 0.67714 0.287 0.23075 0.0
C1282 C 0.58467 0.94127 0.96414 0.0
C1283 C 0.59026 0.94357 0.93269 0.0
C1284 C 0.57864 0.96587 0.98386 0.0
C1285 C 0.57819 0.99444 0.97349 0.0
H1286 H 0.58435 0.91994 0.97363 0.0
H1287 H 0.57432 0.9623 1.00765 0.0
S1288 S 0.59257 0.01337 0.89353 0.0
N1289 N 0.59555 0.97735 0.89228 0.0
N1290 N 0.5848 0.02363 0.92938 0.0
C1291 C 0.58441 0.99739 0.94226 0.0
C1292 C 0.59024 0.97206 0.92194 0.0
C1293 C 0.97142 0.78892 0.79096 0.0
C1294 C 0.97363 0.77913 0.75884 0.0
C1295 C 0.94319 0.79408 0.80144 0.0
C1296 C 0.91496 0.78885 0.78074 0.0
H1297 H 0.99193 0.79342 0.80821 0.0
H1298 H 0.94354 0.80215 0.8262 0.0
S1299 S 0.90729 0.76364 0.6942 0.0
N1300 N 0.944 0.76526 0.70645 0.0
N1301 N 0.89202 0.77356 0.726 0.0
C1302 C 0.91684 0.7787 0.74874 0.0
C1303 C 0.9456 0.77425 0.73795 0.0
C1304 C 0.09343 0.07116 0.90976 0.0
C1305 C 0.12466 0.07744 0.90487 0.0
C1306 C 0.0847 0.06592 0.93972 0.0
C1307 C 0.1068 0.06723 0.96629 0.0
H1308 H 0.07553 0.07032 0.89031 0.0
H1309 H 0.0604 0.06166 0.94227 0.0
S1310 S 0.19149 0.08134 0.96631 0.0
N1311 N 0.17769 0.08327 0.92947 0.0
N1312 N 0.16121 0.07427 0.98535 0.0
C1313 C 0.138 0.07318 0.9617 0.0
C1314 C 0.14691 0.07801 0.93118 0.0
C1315 C 0.84016 0.38378 0.59156 0.0
C1316 C 0.85252 0.41473 0.58958 0.0
C1317 C 0.84713 0.37098 0.61897 0.0
C1318 C 0.86641 0.38884 0.64529 0.0
H1319 H 0.82449 0.36949 0.57208 0.0
H1320 H 0.83655 0.3473 0.62002 0.0
S1321 S 0.90615 0.47024 0.65171 0.0
N1322 N 0.88634 0.46241 0.61591 0.0
N1323 N 0.89899 0.43819 0.66753 0.0
C1324 C 0.87961 0.41945 0.6434 0.0
C1325 C 0.87282 0.43245 0.61546 0.0
C1326 C 0.47696 0.07618 0.4674 0.0
C1327 C 0.48548 0.09359 0.44332 0.0
C1328 C 0.49907 0.07325 0.4916 0.0
C1329 C 0.5301 0.0879 0.49254 0.0
H1330 H 0.45379 0.06246 0.46601 0.0
H1331 H 0.49213 0.05778 0.50838 0.0
S1332 S 0.56203 0.14287 0.44039 0.0
N1333 N 0.5254 0.13031 0.42523 0.0
N1334 N 0.56714 0.12527 0.47169 0.0
C1335 C 0.5382 0.10815 0.47088 0.0
C1336 C 0.5157 0.111 0.44603 0.0
C1337 C 0.77941 0.78552 0.15458 0.0
C1338 C 0.80544 0.78816 0.13836 0.0
C1339 C 0.78237 0.79271 0.1878 0.0
C1340 C 0.81153 0.80273 0.2064 0.0
H1341 H 0.75651 0.77667 0.14167 0.0
H1342 H 0.76163 0.78927 0.19906 0.0
S1343 S 0.88692 0.81702 0.1753 0.0
N1344 N 0.8613 0.80408 0.14349 0.0
N1345 N 0.86689 0.81756 0.20536 0.0
C1346 C 0.83765 0.80689 0.19026 0.0
C1347 C 0.83461 0.79965 0.1565 0.0
C1348 C 0.10872 0.11148 0.70671 0.0
C1349 C 0.10462 0.08561 0.72292 0.0
C1350 C 0.09999 0.10896 0.67369 0.0
C1351 C 0.08697 0.08042 0.65532 0.0
H1352 H 0.11978 0.13381 0.71942 0.0
H1353 H 0.1047 0.1294 0.66233 0.0
S1354 S 0.06751 1.00614 0.68659 0.0
N1355 N 0.0839 0.03086 0.71809 0.0
N1356 N 0.0675 0.02616 0.65662 0.0
C1357 C 0.08129 0.05464 0.6715 0.0
C1358 C 0.09007 0.05722 0.70505 0.0
C1359 C 0.77894 0.37533 0.42287 0.0
C1360 C 0.78702 0.40739 0.42619 0.0
C1361 C 0.7839 0.3577 0.39595 0.0
C1362 C 0.7972 0.3715 0.37142 0.0
H1363 H 0.77081 0.36375 0.44217 0.0
H1364 H 0.77866 0.33306 0.39516 0.0
S1365 S 0.81692 0.45475 0.36616 0.0
N1366 N 0.8044 0.45234 0.40076 0.0
N1367 N 0.81433 0.41916 0.35025 0.0
C1368 C 0.80242 0.40352 0.37301 0.0
C1369 C 0.79708 0.4215 0.4004 0.0
C1370 C 0.46168 1.00982 0.26115 0.0
C1371 C 0.47191 0.03912 0.27882 0.0
C1372 C 0.47272 1.00244 0.23273 0.0
C1373 C 0.49414 0.0242 0.22097 0.0
H1374 H 0.44474 0.99249 0.26911 0.0
H1375 H 0.46397 0.97983 0.21953 0.0
S1376 S 0.52987 0.10327 0.25896 0.0
N1377 N 0.5059 0.08944 0.28314 0.0
N1378 N 0.52661 0.07546 0.22956 0.0
C1379 C 0.50515 0.05327 0.23866 0.0
C1380 C 0.49406 0.06076 0.26768 0.0
C1381 C 0.82584 0.79217 0.95157 0.0
C1382 C 0.80883 0.76323 0.9556 0.0
C1383 C 0.83235 0.79928 0.92145 0.0
C1384 C 0.82184 0.77796 0.89374 0.0
H1385 H 0.83445 0.80948 0.97191 0.0
H1386 H 0.84527 0.82205 0.91989 0.0
S1387 S 0.77629 0.69877 0.89113 0.0
N1388 N 0.78178 0.71289 0.92897 0.0
N1389 N 0.79352 0.72641 0.87275 0.0
C1390 C 0.80477 0.74893 0.89746 0.0
C1391 C 0.79843 0.74156 0.92818 0.0
C1392 C 0.84596 0.09639 0.04436 0.0
C1393 C 0.85945 0.1252 0.06164 0.0
C1394 C 0.86425 0.07797 0.03143 0.0
C1395 C 0.89639 0.08782 0.03608 0.0
H1396 H 0.82121 0.08772 0.04168 0.0
H1397 H 0.8534 0.05529 0.01939 0.0
S1398 S 0.9425 0.162 0.07812 0.0
N1399 N 0.90631 0.16361 0.08116 0.0
N1400 N 0.94106 0.12843 0.05752 0.0
C1401 C 0.91006 0.11714 0.05209 0.0
C1402 C 0.8914 0.13609 0.06475 0.0
C1403 C 0.44034 0.49657 0.07459 0.0
C1404 C 0.43956 0.46502 0.07326 0.0
C1405 C 0.46748 0.5177 0.07194 0.0
C1406 C 0.49488 0.50811 0.06749 0.0
H1407 H 0.41965 0.50505 0.07723 0.0
H1408 H 0.4667 0.5416 0.07255 0.0
S1409 S 0.50569 0.4282 0.06461 0.0
N1410 N 0.46906 0.42548 0.069 0.0
N1411 N 0.51987 0.46483 0.06366 0.0
C1412 C 0.4946 0.47666 0.067 0.0
C1413 C 0.46704 0.45523 0.07 0.0
C1414 C 0.44701 0.63107 0.82639 0.0
C1415 C 0.44024 0.61008 0.7984 0.0
C1416 C 0.42962 0.6533 0.83183 0.0
C1417 C 0.40536 0.6557 0.80919 0.0
H1418 H 0.46521 0.62968 0.84467 0.0
H1419 H 0.43501 0.66858 0.85397 0.0
S1420 S 0.37959 0.60784 0.73129 0.0
N1421 N 0.40817 0.59396 0.74736 0.0
N1422 N 0.37617 0.63634 0.75735 0.0
C1423 C 0.39899 0.63561 0.78074 0.0
C1424 C 0.41626 0.61263 0.77541 0.0
C1425 C 0.20416 0.59624 0.53668 0.0
C1426 C 0.21958 0.59655 0.5671 0.0
C1427 C 0.17236 0.58585 0.53009 0.0
C1428 C 0.15521 0.57485 0.55347 0.0
H1429 H 0.21619 0.60651 0.51861 0.0
H1430 H 0.16093 0.5881 0.50713 0.0
S1431 S 0.18573 0.56347 0.63402 0.0
N1432 N 0.21639 0.57975 0.61886 0.0
N1433 N 0.15612 0.55948 0.60609 0.0
C1434 C 0.17071 0.57126 0.58257 0.0
C1435 C 0.20319 0.5823 0.58949 0.0
C1436 C 0.77828 0.02171 0.82087 0.0
C1437 C 0.78171 0.03166 0.79127 0.0
C1438 C 0.79782 1.00447 0.83388 0.0
C1439 C 0.82125 0.99679 0.81762 0.0
H1440 H 0.76017 0.02693 0.83392 0.0
H1441 H 0.79368 0.99584 0.85597 0.0
S1442 S 0.84044 0.01766 0.74009 0.0
N1443 N 0.81094 0.03321 0.74657 0.0
N1444 N 0.84753 1.00045 0.77124 0.0
C1445 C 0.82551 1.00719 0.78855 0.0
C1446 C 0.80572 0.02476 0.77527 0.0
C1447 C 0.75209 0.93093 0.5687 0.0
C1448 C 0.77745 0.937 0.55196 0.0
C1449 C 0.72923 0.94806 0.56631 0.0
C1450 C 0.73089 0.97116 0.54661 0.0
H1451 H 0.75083 0.91415 0.58501 0.0
H1452 H 0.71069 0.94391 0.58063 0.0
S1453 S 0.79117 0.99332 0.49549 0.0
N1454 N 0.80174 0.96576 0.5133 0.0
N1455 N 0.75883 0.99776 0.50866 0.0
C1456 C 0.75521 0.97603 0.52837 0.0
C1457 C 0.77852 0.95896 0.5311 0.0
C1458 C 0.39214 0.45105 0.79422 0.0
C1459 C 0.42351 0.45154 0.79218 0.0
C1460 C 0.37104 0.4239 0.79669 0.0
C1461 C 0.38027 0.39591 0.79697 0.0
H1462 H 0.38375 0.47194 0.79423 0.0
H1463 H 0.34727 0.42494 0.79835 0.0
S1464 S 0.45994 0.38462 0.79252 0.0
N1465 N 0.46277 0.42146 0.79077 0.0
N1466 N 0.42336 0.37054 0.79529 0.0
C1467 C 0.4116 0.39601 0.79473 0.0
C1468 C 0.43311 0.42374 0.79238 0.0
C1469 C 0.26089 0.69878 0.25231 0.0
C1470 C 0.2797 0.67752 0.25528 0.0
C1471 C 0.26998 0.72808 0.26901 0.0
C1472 C 0.29848 0.73725 0.28841 0.0
H1473 H 0.23785 0.69205 0.23928 0.0
H1474 H 0.25418 0.74332 0.26738 0.0
S1475 S 0.35917 0.69273 0.29798 0.0
N1476 N 0.33014 0.66917 0.2747 0.0
N1477 N 0.34769 0.72499 0.3056 0.0
C1478 C 0.31903 0.71754 0.28867 0.0
C1479 C 0.30957 0.68745 0.27199 0.0
C1480 C 0.55848 0.71035 0.55169 0.0
C1481 C 0.53886 0.71272 0.52412 0.0
C1482 C 0.56512 0.68183 0.55907 0.0
C1483 C 0.55234 0.65335 0.53968 0.0
H1484 H 0.56941 0.73095 0.56766 0.0
H1485 H 0.58068 0.68224 0.58036 0.0
S1486 S 0.4991 0.64574 0.46468 0.0
N1487 N 0.50667 0.68276 0.47735 0.0
N1488 N 0.51844 0.63036 0.49118 0.0
C1489 C 0.53234 0.65538 0.51228 0.0
C1490 C 0.52587 0.68442 0.5046 0.0
C1491 C 0.69187 0.33926 0.73868 0.0
C1492 C 0.69436 0.33487 0.70601 0.0
C1493 C 0.71629 0.33808 0.76217 0.0
C1494 C 0.74467 0.33235 0.75442 0.0
H1495 H 0.67064 0.34345 0.74632 0.0
H1496 H 0.71266 0.34143 0.78672 0.0
S1497 S 0.76376 0.31991 0.67233 0.0
N1498 N 0.7281 0.32502 0.66734 0.0
N1499 N 0.77366 0.32279 0.71092 0.0
C1500 C 0.74759 0.32823 0.72176 0.0
C1501 C 0.72267 0.32949 0.69784 0.0
C1502 C 0.05458 0.42226 1.00827 0.0
C1503 C 0.04359 0.40139 0.02907 0.0
C1504 C 0.05937 0.45455 0.01607 0.0
C1505 C 0.05304 0.46841 0.04507 0.0
H1506 H 0.05965 0.41358 0.98536 0.0
H1507 H 0.06787 0.46884 0.99884 0.0
S1508 S 1.02574 0.42522 0.10941 0.0
N1509 N 1.02789 0.39801 0.08117 0.0
N1510 N 0.03627 0.45798 0.09548 0.0
C1511 C 0.04216 0.44795 0.06628 0.0
C1512 C 0.03764 0.41491 0.05845 0.0
C1513 C 1.01604 0.80758 0.17884 0.0
C1514 C 0.04718 0.81402 0.19248 0.0
C1515 C 0.99208 0.80034 0.19715 0.0
C1516 C 0.99834 0.79881 0.2297 0.0
H1517 H 1.01006 0.8084 0.15385 0.0
H1518 H 0.96845 0.79573 0.1857 0.0
S1519 S 0.0758 0.8132 0.27682 0.0
N1520 N 0.0829 0.81807 0.24057 0.0
N1521 N 0.03786 0.80433 0.27485 0.0
C1522 C 1.02932 0.80485 0.24358 0.0
C1523 C 0.05373 0.81253 0.22502 0.0
C1524 C 0.56819 0.34045 0.13735 0.0
C1525 C 0.56979 0.34616 0.17051 0.0
C1526 C 0.57672 0.36421 0.11931 0.0
C1527 C 0.58691 0.39475 0.13362 0.0
H1528 H 0.5607 0.31731 0.12516 0.0
H1529 H 0.57509 0.35866 0.0939 0.0
S1530 S 0.59576 0.42226 0.21952 0.0
N1531 N 0.58271 0.38492 0.21688 0.0
N1532 N 0.59851 0.42948 0.18293 0.0
C1533 C 0.58845 0.4009 0.16668 0.0
C1534 C 0.57998 0.37667 0.18512 0.0
C1535 C 0.97068 0.33739 0.35588 0.0
C1536 C 0.9922 0.34937 0.33606 0.0
C1537 C 0.93833 0.33359 0.34784 0.0
C1538 C 0.92502 0.34181 0.31951 0.0
H1539 H 0.97888 0.33067 0.37816 0.0
H1540 H 0.92355 0.32413 0.36432 0.0
S1541 S 0.9703 0.37323 0.25809 0.0
N1542 N 0.99706 0.36875 0.28586 0.0
N1543 N 0.93681 0.36195 0.27091 0.0
C1544 C 0.94619 0.35384 0.2993 0.0
C1545 C 0.97936 0.35749 0.30745 0.0
C1546 C 0.0537 0.66313 0.66348 0.0
C1547 C 0.05222 0.69223 0.65484 0.0
C1548 C 0.05446 0.63796 0.64068 0.0
C1549 C 0.05366 0.64046 0.60799 0.0
H1550 H 0.05457 0.65979 0.68813 0.0
H1551 H 0.05571 0.6163 0.64884 0.0
S1552 S 0.05039 0.71169 0.57267 0.0
N1553 N 0.0503 0.72169 0.61077 0.0
N1554 N 0.05171 0.67521 0.56871 0.0
C1555 C 0.05206 0.66943 0.59916 0.0
C1556 C 0.05136 0.69494 0.62225 0.0
C1557 C 0.70751 0.86613 0.85165 0.0
C1558 C 0.67811 0.84843 0.83747 0.0
C1559 C 0.73597 0.85988 0.84316 0.0
C1560 C 0.73723 0.83529 0.81999 0.0
H1561 H 0.70867 0.88506 0.8699 0.0
H1562 H 0.75732 0.87439 0.85536 0.0
S1563 S 0.6672 0.78124 0.77547 0.0
N1564 N 0.65281 0.80484 0.79865 0.0
N1565 N 0.70507 0.79304 0.78308 0.0
C1566 C 0.70791 0.81752 0.80552 0.0
C1567 C 0.67898 0.82403 0.81406 0.0
C1568 C 0.54889 0.56581 0.70356 0.0
C1569 C 0.52065 0.54566 0.7052 0.0
C1570 C 0.55928 0.57104 0.6743 0.0
C1571 C 0.54178 0.55672 0.64511 0.0
H1572 H 0.56322 0.57768 0.7251 0.0
H1573 H 0.5813 0.5866 0.67463 0.0
S1574 S 0.46607 0.50174 0.63597 0.0
N1575 N 0.47537 0.51112 0.67461 0.0
N1576 N 0.4946 0.5212 0.62009 0.0
C1577 C 0.51337 0.53667 0.64641 0.0
C1578 C 0.50295 0.53108 0.67621 0.0
C1579 C 0.75066 0.23719 0.0442 0.0
C1580 C 0.77887 0.24296 0.06422 0.0
C1581 C 0.74546 0.25641 0.02172 0.0
C1582 C 0.76812 0.28233 0.01881 0.0
H1583 H 0.73341 0.21643 0.04413 0.0
H1584 H 0.72455 0.24946 1.00494 0.0
S1585 S 0.84256 0.31139 0.07119 0.0
N1586 N 0.82755 0.27881 0.08344 0.0
N1587 N 0.81726 0.31582 0.04197 0.0
C1588 C 0.79493 0.29015 0.04116 0.0
C1589 C 0.80046 0.27023 0.06368 0.0
C1590 C 0.17119 0.57622 0.15704 0.0
C1591 C 0.17116 0.55463 0.17828 0.0
C1592 C 0.14436 0.5766 0.13739 0.0
C1593 C 0.11722 0.55467 0.13735 0.0
H1594 H 0.19104 0.59481 0.15779 0.0
H1595 H 0.14421 0.59561 0.12407 0.0
S1596 S 0.10625 0.49093 0.1853 0.0
N1597 N 0.14247 0.50936 0.19641 0.0
N1598 N 0.09217 0.50929 0.15791 0.0
C1599 C 0.11735 0.53167 0.15673 0.0
C1600 C 0.1445 0.53164 0.17736 0.0
C1601 C 0.84501 0.87891 0.45067 0.0
C1602 C 0.84908 0.85966 0.47378 0.0
C1603 C 0.84072 0.8682 0.41829 0.0
C1604 C 0.84035 0.8376 0.40701 0.0
H1605 H 0.84478 0.90269 0.45755 0.0
H1606 H 0.83749 0.88428 0.40191 0.0
S1607 S 0.8505 0.77747 0.4573 0.0
N1608 N 0.85298 0.80828 0.483 0.0
N1609 N 0.845 0.78803 0.42181 0.0
C1610 C 0.84509 0.81804 0.42971 0.0
C1611 C 0.84939 0.82905 0.46307 0.0
C1612 C 0.50829 0.54204 0.9106 0.0
C1613 C 0.52775 0.54164 0.88693 0.0
C1614 C 0.51976 0.54567 0.94286 0.0
C1615 C 0.55137 0.54896 0.95346 0.0
H1616 H 0.48374 0.53989 0.90426 0.0
H1617 H 0.50347 0.54613 0.95974 0.0
S1618 S 0.61257 0.54909 0.90156 0.0
N1619 N 0.58058 0.54445 0.87654 0.0
N1620 N 0.60215 0.55114 0.93738 0.0
C1621 C 0.57121 0.54787 0.93017 0.0
C1622 C 0.55945 0.54429 0.89697 0.0
C1623 C 0.79924 0.21762 0.21061 0.0
C1624 C 0.82344 0.20872 0.19625 0.0
C1625 C 0.80405 0.24599 0.22916 0.0
C1626 C 0.83318 0.26576 0.23414 0.0
H1627 H 0.77583 0.20416 0.20486 0.0
H1628 H 0.78446 0.25341 0.23768 0.0
S1629 S 0.90574 0.24942 0.21047 0.0
N1630 N 0.87893 0.21892 0.19462 0.0
N1631 N 0.88764 0.27264 0.22958 0.0
C1632 C 0.8583 0.25559 0.22375 0.0
C1633 C 0.85354 0.22663 0.20501 0.0
C1634 C 0.1555 0.6354 0.31945 0.0
C1635 C 0.1849 0.62951 0.32763 0.0
C1636 C 0.13689 0.64085 0.34268 0.0
C1637 C 0.14722 0.64057 0.37465 0.0
H1638 H 0.14618 0.63432 0.29487 0.0
H1639 H 0.11366 0.64343 0.3355 0.0
S1640 S 0.22328 0.62992 0.40895 0.0
N1641 N 0.22445 0.62676 0.37044 0.0
N1642 N 0.18905 0.63665 0.41388 0.0
C1643 C 0.17718 0.63681 0.38337 0.0
C1644 C 0.19621 0.63143 0.35987 0.0
C1645 C 0.83467 0.83766 0.65939 0.0
C1646 C 0.84076 0.86906 0.65636 0.0
C1647 C 0.82854 0.82722 0.68832 0.0
C1648 C 0.82852 0.84771 0.71562 0.0
H1649 H 0.83483 0.82095 0.6393 0.0
H1650 H 0.82462 0.80288 0.68952 0.0
S1651 S 0.84072 0.93195 0.72015 0.0
N1652 N 0.84449 0.92043 0.68322 0.0
N1653 N 0.83364 0.90072 0.73733 0.0
C1654 C 0.83408 0.87905 0.71286 0.0
C1655 C 0.83998 0.88972 0.68337 0.0
C1656 C 0.77229 0.53781 0.5567 0.0
C1657 C 0.77534 0.50954 0.56578 0.0
C1658 C 0.76112 0.55852 0.57627 0.0
C1659 C 0.75289 0.55195 0.60593 0.0
H1660 H 0.77796 0.54378 0.53395 0.0
H1661 H 0.75756 0.57923 0.5673 0.0
S1662 S 0.76002 0.48241 0.64223 0.0
N1663 N 0.77154 0.47672 0.60723 0.0
N1664 N 0.75085 0.51617 0.64447 0.0
C1665 C 0.75705 0.52425 0.61589 0.0
C1666 C 0.76817 0.50291 0.59571 0.0
C1667 C 0.21185 0.14575 0.54644 0.0
C1668 C 0.21159 0.17675 0.54472 0.0
C1669 C 0.18465 0.12407 0.54741 0.0
C1670 C 0.15598 0.1324 0.54645 0.0
H1671 H 0.23331 0.13807 0.54718 0.0
H1672 H 0.18611 0.10055 0.54873 0.0
S1673 S 0.14268 0.21076 0.54332 0.0
N1674 N 0.18017 0.21473 0.54284 0.0
N1675 N 0.12912 0.17411 0.54484 0.0
C1676 C 0.15535 0.16332 0.5448 0.0
C1677 C 0.1831 0.18544 0.54389 0.0
C1678 C 0.23504 0.03825 0.78158 0.0
C1679 C 0.20494 0.02763 0.7885 0.0
C1680 C 0.25428 0.01808 0.77515 0.0
C1681 C 0.24421 0.98645 0.77531 0.0
H1682 H 0.24414 0.06246 0.78174 0.0
H1683 H 0.27756 0.0275 0.77092 0.0
S1684 S 0.16657 0.9466 0.78943 0.0
N1685 N 0.1654 0.98316 0.79354 0.0
N1686 N 0.20137 0.94517 0.78079 0.0
C1687 C 0.21381 0.97538 0.78117 0.0
C1688 C 0.19423 0.99596 0.78788 0.0
C1689 C 0.42302 1.00961 0.97742 0.0
C1690 C 0.40563 1.00024 1.00118 0.0
C1691 C 0.45316 0.02732 0.98544 0.0
C1692 C 0.46644 0.03606 0.01738 0.0
H1693 H 0.41364 1.00257 0.95274 0.0
H1694 H 0.46642 0.0333 0.9665 0.0
S1695 S 0.42801 0.019 0.08789 0.0
N1696 N 0.40219 1.00213 0.05734 0.0
N1697 N 0.45841 0.03563 0.07266 0.0
C1698 C 0.44833 0.02781 0.04118 0.0
C1699 C 0.41797 1.00975 0.03297 0.0
C1700 C 0.84266 0.60763 0.83697 0.0
C1701 C 0.85265 0.58459 0.81899 0.0
C1702 C 0.82363 0.62451 0.82251 0.0
C1703 C 0.81447 0.619 0.78968 0.0
H1704 H 0.85105 0.61381 0.86198 0.0
H1705 H 0.81816 0.64366 0.8366 0.0
S1706 S 0.83201 0.55944 0.73271 0.0
N1707 N 0.84968 0.5551 0.76725 0.0
N1708 N 0.81443 0.58781 0.73997 0.0
C1709 C 0.8223 0.5946 0.77182 0.0
C1710 C 0.84133 0.57705 0.78658 0.0
C1711 C 0.88864 0.69184 0.06622 0.0
C1712 C 0.85837 0.68552 0.07377 0.0
C1713 C 0.90847 0.67221 0.0723 0.0
C1714 C 0.89876 0.64574 0.08632 0.0
H1715 H 0.89692 0.71175 0.055 0.0
H1716 H 0.93149 0.67759 0.06571 0.0
S1717 S 0.82209 0.61907 0.11116 0.0
N1718 N 0.81989 0.65111 0.09669 0.0
N1719 N 0.85729 0.61428 0.10788 0.0
C1720 C 0.86889 0.63952 0.09469 0.0
C1721 C 0.84864 0.6594 0.08845 0.0
C1722 C 0.20602 0.2005 0.81098 0.0
C1723 C 0.21454 0.1775 0.82725 0.0
C1724 C 0.22753 0.22738 0.80884 0.0
C1725 C 0.2585 0.23257 0.82307 0.0
H1726 H 0.18281 0.19727 0.79879 0.0
H1727 H 0.21977 0.24394 0.79532 0.0
S1728 S 0.29136 0.18086 0.87191 0.0
N1729 N 0.25526 0.16253 0.86005 0.0
N1730 N 0.29564 0.2132 0.85649 0.0
C1731 C 0.26693 0.21025 0.84065 0.0
C1732 C 0.245 0.18272 0.84261 0.0
C1733 C 0.40235 0.95296 0.34817 0.0
C1734 C 0.39887 0.9721 0.37494 0.0
C1735 C 0.382 0.92488 0.33869 0.0
C1736 C 0.35805 0.91468 0.35615 0.0
H1737 H 0.41948 0.96061 0.33307 0.0
H1738 H 0.38488 0.91129 0.31726 0.0
S1739 S 0.34229 0.95448 0.43073 0.0
N1740 N 0.37169 0.97827 0.42035 0.0
N1741 N 0.33403 0.92415 0.40337 0.0
C1742 C 0.35577 0.93252 0.38435 0.0
C1743 C 0.37609 0.96165 0.39355 0.0
C1744 C 0.59319 0.42037 0.57165 0.0
C1745 C 0.61088 0.41864 0.60071 0.0
C1746 C 0.58866 0.44882 0.56193 0.0
C1747 C 0.60201 0.47779 0.58016 0.0
H1748 H 0.58202 0.39939 0.5564 0.0
H1749 H 0.57429 0.44799 0.5397 0.0
S1750 S 0.65024 0.48706 0.65848 0.0
N1751 N 0.64159 0.44968 0.64772 0.0
N1752 N 0.63367 0.50188 0.6295 0.0
C1753 C 0.62006 0.47636 0.60902 0.0
C1754 C 0.62428 0.44743 0.61916 0.0
C1755 C 0.4152 0.79659 0.44165 0.0
C1756 C 0.4459 0.80585 0.43535 0.0
C1757 C 0.38963 0.80107 0.4212 0.0
C1758 C 0.39359 0.81548 0.39377 0.0
H1759 H 0.41084 0.78536 0.46225 0.0
H1760 H 0.3666 0.79305 0.42691 0.0
S1761 S 0.4697 0.84674 0.36841 0.0
N1762 N 0.47856 0.8317 0.40053 0.0
N1763 N 0.43174 0.84061 0.3631 0.0
C1764 C 0.42441 0.82561 0.38799 0.0
C1765 C 0.45011 0.82069 0.40842 0.0
C1766 C 0.07209 0.71707 0.09551 0.0
C1767 C 0.10187 0.73643 0.09813 0.0
C1768 C 0.0669 0.68446 0.09003 0.0
C1769 C 0.09111 0.6689 0.08649 0.0
H1770 H 0.05238 0.72721 0.0981 0.0
H1771 H 0.04347 0.67131 0.08829 0.0
S1772 S 0.17388 0.70801 0.0928 0.0
N1773 N 0.15615 0.73657 0.09777 0.0
N1774 N 0.14658 0.67638 0.08717 0.0
C1775 C 0.121 0.68798 0.08908 0.0
C1776 C 0.1263 0.72116 0.09495 0.0
C1777 C 0.09918 0.29645 0.90894 0.0
C1778 C 0.10171 0.31392 0.93876 0.0
C1779 C 0.12204 0.30261 0.88902 0.0
C1780 C 0.14803 0.3269 0.89783 0.0
H1781 H 0.07931 0.2779 0.90083 0.0
H1782 H 0.119 0.28865 0.86622 0.0
S1783 S 0.1659 0.3794 0.97353 0.0
N1784 N 0.13272 0.35633 0.97627 0.0
N1785 N 0.17529 0.36807 0.93873 0.0
C1786 C 0.15094 0.34443 0.92765 0.0
C1787 C 0.12793 0.33788 0.94814 0.0
C1788 C 0.55185 0.76879 0.92598 0.0
C1789 C 0.58164 0.78758 0.92908 0.0
C1790 C 0.54478 0.74586 0.94541 0.0
C1791 C 0.56745 0.7403 0.96811 0.0
H1792 H 0.53362 0.77231 0.9089 0.0
H1793 H 0.52146 0.73218 0.94247 0.0
S1794 S 0.64929 0.78227 0.98471 0.0
N1795 N 0.63403 0.79887 0.95638 0.0
N1796 N 0.62109 0.75509 0.99208 0.0
C1797 C 0.59748 0.75853 0.97099 0.0
C1798 C 0.60447 0.78237 0.95174 0.0
C1799 C 0.1757 0.81282 0.77988 0.0
C1800 C 0.15988 0.78857 0.75617 0.0
C1801 C 0.20858 0.8203 0.7873 0.0
C1802 C 0.2277 0.80373 0.77179 0.0
H1803 H 0.16256 0.8264 0.7928 0.0
H1804 H 0.21912 0.83908 0.80574 0.0
S1805 S 0.19915 0.73997 0.70601 0.0
N1806 N 0.1673 0.74942 0.71585 0.0
N1807 N 0.22789 0.76288 0.73025 0.0
C1808 C 0.21229 0.7797 0.74793 0.0
C1809 C 0.17896 0.77235 0.74005 0.0
C1810 C 0.08179 0.46965 0.41774 0.0
C1811 C 0.09057 0.4444 0.43013 0.0
C1812 C 0.07678 0.49498 0.4377 0.0
C1813 C 0.07987 0.49602 0.47093 0.0
H1814 H 0.07808 0.46957 0.39238 0.0
H1815 H 0.06946 0.5134 0.42693 0.0
S1816 S 0.10576 0.43778 0.51576 0.0
N1817 N 0.10462 0.42386 0.47836 0.0
N1818 N 0.09489 0.47055 0.51518 0.0
C1819 C 0.0897 0.47149 0.48354 0.0
C1820 C 0.09511 0.44603 0.4634 0.0
C1821 C 0.44372 0.25861 0.25168 0.0
C1822 C 0.47277 0.27845 0.26349 0.0
C1823 C 0.41524 0.26335 0.26168 0.0
C1824 C 0.41365 0.28852 0.28396 0.0
H1825 H 0.44281 0.23918 0.23412 0.0
H1826 H 0.3941 0.24738 0.25115 0.0
S1827 S 0.48273 0.34741 0.32307 0.0
N1828 N 0.4974 0.32424 0.29969 0.0
N1829 N 0.44514 0.33331 0.31785 0.0
C1830 C 0.44265 0.30832 0.29617 0.0
C1831 C 0.47159 0.3033 0.28622 0.0
C1832 C 0.64796 0.58341 0.43097 0.0
C1833 C 0.62517 0.5811 0.40465 0.0
C1834 C 0.64022 0.57951 0.4615 0.0
C1835 C 0.6093 0.57234 0.46701 0.0
H1836 H 0.67215 0.58836 0.42801 0.0
H1837 H 0.65859 0.58156 0.48083 0.0
S1838 S 0.54072 0.56555 0.40729 0.0
N1839 N 0.57018 0.57279 0.38708 0.0
N1840 N 0.55573 0.56459 0.44398 0.0
C1841 C 0.58628 0.57027 0.44114 0.0
C1842 C 0.59416 0.57487 0.41017 0.0
C1843 C 0.32425 0.88489 0.09613 0.0
C1844 C 0.34681 0.9062 0.08509 0.0
C1845 C 0.33131 0.87221 0.12348 0.0
C1846 C 0.3611 0.8805 0.14046 0.0
H1847 H 0.30087 0.87835 0.0839 0.0
H1848 H 0.31326 0.8563 0.13179 0.0
S1849 S 0.42804 0.93588 0.12212 0.0
N1850 N 0.40005 0.93525 0.09338 0.0
N1851 N 0.41314 0.91126 0.14506 0.0
C1852 C 0.38401 0.90129 0.12948 0.0
C1853 C 0.37689 0.91422 0.10163 0.0
C1854 C 1.02216 0.58295 0.92524 0.0
C1855 C 0.99558 0.595 0.92546 0.0
C1856 C 0.03979 0.581 0.95349 0.0
C1857 C 0.03149 0.59123 0.98276 0.0
H1858 H 1.02786 0.57244 0.9034 0.0
H1859 H 0.05873 0.56947 0.95233 0.0
S1860 S 0.96994 0.6334 0.99515 0.0
N1861 N 0.96572 0.62324 0.95652 0.0
N1862 N 0.99947 0.62015 0.00999 0.0
C1863 C 1.00732 0.60674 0.98309 0.0
C1864 C 0.98926 0.60861 0.95425 0.0
C1865 C 0.32253 0.26821 0.66366 0.0
C1866 C 0.30372 0.27952 0.64143 0.0
C1867 C 0.3242 0.27677 0.69629 0.0
C1868 C 0.30712 0.29717 0.70882 0.0
H1869 H 0.33604 0.25212 0.65586 0.0
H1870 H 0.33909 0.26693 0.71183 0.0
S1871 S 0.25511 0.33468 0.66102 0.0
N1872 N 0.26823 0.31321 0.63432 0.0
N1873 N 0.27137 0.32945 0.69588 0.0
C1874 C 0.28877 0.30947 0.68693 0.0
C1875 C 0.28706 0.30063 0.65331 0.0
C1876 C 0.61005 0.61006 0.20575 0.0
C1877 C 0.60715 0.58436 0.22216 0.0
C1878 C 0.60198 0.60705 0.17259 0.0
C1879 C 0.59095 0.57815 0.1542 0.0
H1880 H 0.61947 0.63275 0.21849 0.0
H1881 H 0.60545 0.62753 0.16121 0.0
S1882 S 0.57675 0.50363 0.18574 0.0
N1883 N 0.59064 0.52906 0.21733 0.0
N1884 N 0.57562 0.52338 0.15563 0.0
C1885 C 0.58691 0.55236 0.17051 0.0
C1886 C 0.59492 0.55545 0.20422 0.0
C1887 C 0.29094 0.91459 0.90284 0.0
C1888 C 0.28182 0.90024 0.92866 0.0
C1889 C 0.29806 0.89775 0.87658 0.0
C1890 C 0.29564 0.86596 0.87501 0.0
H1891 H 0.29597 0.93929 0.90428 0.0
H1892 H 0.30736 0.9102 0.85837 0.0
S1893 S 0.26366 0.81694 0.93272 0.0
N1894 N 0.26433 0.85216 0.94859 0.0
N1895 N 0.27696 0.82009 0.89855 0.0
C1896 C 0.28228 0.85087 0.8987 0.0
C1897 C 0.27537 0.86817 0.92569 0.0
C1898 C 0.95308 0.50462 0.75274 0.0
C1899 C 0.95733 0.53536 0.76622 0.0
C1900 C 0.96298 0.49701 0.72378 0.0
C1901 C 0.97717 0.51988 0.7072 0.0
H1902 H 0.94231 0.48619 0.76476 0.0
H1903 H 0.95966 0.4731 0.71435 0.0
S1904 S 0.99396 0.60365 0.73209 0.0
N1905 N 0.97667 0.58877 0.76065 0.0
N1906 N 0.99543 0.57434 0.7061 0.0
C1907 C 0.98124 0.55068 0.72009 0.0
C1908 C 0.97126 0.55846 0.74966 0.0
C1909 C 0.32044 0.2953 0.45071 0.0
C1910 C 0.31001 0.26485 0.456 0.0
C1911 C 0.32682 0.3025 0.42056 0.0
C1912 C 0.32293 0.27959 0.39428 0.0
H1913 H 0.32339 0.31379 0.46991 0.0
H1914 H 0.33403 0.32636 0.41764 0.0
S1915 S 0.29945 0.19611 0.39593 0.0
N1916 N 0.29849 0.2114 0.43245 0.0
N1917 N 0.31 0.2251 0.37623 0.0
C1918 C 0.31328 0.24907 0.3994 0.0
C1919 C 0.307 0.24169 0.43006 0.0
C1920 C 0.36053 0.60478 0.53066 0.0
C1921 C 0.35641 0.60798 0.56278 0.0
C1922 C 0.37799 0.58481 0.51904 0.0
C1923 C 0.39171 0.56762 0.53927 0.0
H1924 H 0.35074 0.6182 0.51449 0.0
H1925 H 0.38227 0.58414 0.49463 0.0
S1926 S 0.38691 0.56649 0.62471 0.0
N1927 N 0.36648 0.5913 0.61429 0.0
N1928 N 0.39939 0.55369 0.59215 0.0
C1929 C 0.38676 0.56958 0.57104 0.0
C1930 C 0.3691 0.58989 0.58292 0.0
C1931 C 0.93726 0.99524 0.5712 0.0
C1932 C 0.93889 0.96546 0.57738 0.0
C1933 C 0.96385 0.01714 0.56845 0.0
C1934 C 0.99312 1.01008 0.57165 0.0
H1935 H 0.91513 1.00149 0.56747 0.0
H1936 H 0.9613 0.03934 0.56265 0.0
S1937 S 1.01042 0.93689 0.59237 0.0
N1938 N 0.9725 0.93118 0.58966 0.0
N1939 N 1.02242 0.97209 0.58457 0.0
C1940 C 0.99519 0.98085 0.57931 0.0
C1941 C 0.96813 0.95861 0.58213 0.0
C1942 C 0.91044 0.10527 0.29644 0.0
C1943 C 0.94268 0.11153 0.30467 0.0
C1944 C 0.89374 0.12784 0.30169 0.0
C1945 C 0.90853 0.1577 0.31524 0.0
H1946 H 0.89774 0.08253 0.28622 0.0
H1947 H 0.86891 0.12181 0.29521 0.0
S1948 S 0.99253 0.18661 0.33993 0.0
N1949 N 0.98897 0.15017 0.32628 0.0
N1950 N 0.95726 0.19292 0.33599 0.0
C1951 C 0.94081 0.16473 0.32282 0.0
C1952 C 0.95796 0.14154 0.31763 0.0
C1953 C 0.70334 0.08953 0.09339 0.0
C1954 C 0.72056 0.10386 0.07152 0.0
C1955 C 0.6718 0.07694 0.08534 0.0
C1956 C 0.65678 0.07865 0.05537 0.0
H1957 H 0.71372 0.08993 0.1175 0.0
H1958 H 0.65875 0.06807 0.10342 0.0
S1959 S 0.69259 0.10716 0.98752 0.0
N1960 N 0.72128 0.11387 0.01687 0.0
N1961 N 0.66171 0.09072 1.00218 0.0
C1962 C 0.6742 0.08996 0.03235 0.0
C1963 C 0.70631 0.1024 0.04032 0.0
C1964 C 0.30669 0.53725 0.30015 0.0
C1965 C 0.27454 0.53273 0.29942 0.0
C1966 C 0.32305 0.51842 0.31522 0.0
C1967 C 0.30764 0.49451 0.32976 0.0
H1968 H 0.31923 0.55508 0.28854 0.0
H1969 H 0.34754 0.52144 0.31389 0.0
S1970 S 0.22413 0.47426 0.33611 0.0
N1971 N 0.22814 0.5036 0.31588 0.0
N1972 N 0.25914 0.46818 0.34431 0.0
C1973 C 0.27579 0.49062 0.33049 0.0
C1974 C 0.25912 0.50974 0.3152 0.0
C1975 C 0.2555 0.43547 0.03947 0.0
C1976 C 0.27659 0.44119 0.0674 0.0
C1977 C 0.23318 0.45297 0.03522 0.0
C1978 C 0.23092 0.47603 0.05911 0.0
H1979 H 0.25737 0.41863 0.02017 0.0
H1980 H 0.2182 0.44907 0.01287 0.0
S1981 S 0.27876 0.49769 0.1376 0.0
N1982 N 0.29258 0.47002 0.11991 0.0
N1983 N 0.25014 0.50236 0.11218 0.0
C1984 C 0.2507 0.48067 0.08775 0.0
C1985 C 0.2737 0.46335 0.09184 0.0
C1986 C 0.93095 0.92516 0.28912 0.0
C1987 C 0.92111 0.95252 0.28634 0.0
C1988 C 0.91003 0.89815 0.2923 0.0
C1989 C 0.8783 0.89728 0.29273 0.0
H1990 H 0.95513 0.92472 0.28962 0.0
H1991 H 0.91898 0.87784 0.29477 0.0
S1992 S 0.84036 0.9624 0.2846 0.0
N1993 N 0.87711 0.97675 0.28289 0.0
N1994 N 0.83803 0.92611 0.2889 0.0
C1995 C 0.868 0.92424 0.28895 0.0
C1996 C 0.88931 0.95179 0.2858 0.0
C1997 C 0.76332 0.19659 0.75261 0.0
C1998 C 0.78081 0.17488 0.75918 0.0
C1999 C 0.77203 0.22631 0.76833 0.0
C2000 C 0.79888 0.23529 0.79029 0.0
H2001 H 0.74136 0.19001 0.73741 0.0
H2002 H 0.75718 0.24205 0.76399 0.0
S2003 S 0.85607 0.1892 0.81051 0.0
N2004 N 0.82864 0.16567 0.78524 0.0
N2005 N 0.84538 0.2222 0.81438 0.0
C2006 C 0.81841 0.21499 0.79436 0.0
C2007 C 0.80936 0.18455 0.77866 0.0
loop_
_geom_bond_atom_site_label_1
_geom_bond_atom_site_label_2
_geom_bond_distance
_geom_bond_site_symmetry_2
_ccdc_geom_bond_type
In0 O1 2.294 . S
In0 O2 2.326 . S
In0 O6 2.266 . S
In0 O7 2.326 1_455 S
In0 O8 2.266 . S
In0 O9 2.326 . S
In0 O11 2.294 . S
In0 O12 2.326 . S
O1 In0 2.294 . S
O1 C10 1.240 . S
O2 In0 2.326 . S
O2 C10 1.252 . S
C3 O6 1.252 1_655 S
C3 O7 1.260 . S
C4 O11 1.240 . S
C4 O12 1.252 . S
C5 O8 1.252 . S
C5 O9 1.260 . S
O6 In0 2.266 . S
O6 C3 1.252 1_455 S
O7 In0 2.326 1_655 S
O7 C3 1.260 . S
O8 In0 2.266 . S
O8 C5 1.252 . S
O9 In0 2.326 . S
O9 C5 1.260 . S
C10 O1 1.240 . S
C10 O2 1.252 . S
O11 In0 2.294 . S
O11 C4 1.240 . S
O12 In0 2.326 . S
O12 C4 1.252 . S
In13 O14 2.294 . S
In13 O15 2.326 . S
In13 O19 2.266 . S
In13 O20 2.326 . S
In13 O21 2.266 . S
In13 O22 2.326 1_455 S
In13 O24 2.294 . S
In13 O25 2.326 . S
O14 In13 2.294 . S
O14 C23 1.240 . S
O15 In13 2.326 . S
O15 C23 1.252 . S
C16 O19 1.252 . S
C16 O20 1.260 . S
C17 O24 1.240 . S
C17 O25 1.252 . S
C18 O21 1.252 1_655 S
C18 O22 1.260 . S
O19 In13 2.266 . S
O19 C16 1.252 . S
O20 In13 2.326 . S
O20 C16 1.260 . S
O21 In13 2.266 . S
O21 C18 1.252 1_455 S
O22 In13 2.326 1_655 S
O22 C18 1.260 . S
C23 O14 1.240 . S
C23 O15 1.252 . S
O24 In13 2.294 . S
O24 C17 1.240 . S
O25 In13 2.326 . S
O25 C17 1.252 . S
In26 O27 2.294 . S
In26 O28 2.326 . S
In26 O32 2.266 . S
In26 O33 2.326 . S
In26 O34 2.266 . S
In26 O35 2.326 . S
In26 O37 2.294 . S
In26 O38 2.326 . S
O27 In26 2.294 . S
O27 C36 1.240 . S
O28 In26 2.326 . S
O28 C36 1.252 . S
C29 O32 1.252 . S
C29 O33 1.260 . S
C30 O37 1.240 . S
C30 O38 1.252 . S
C31 O34 1.252 . S
C31 O35 1.260 . S
O32 In26 2.266 . S
O32 C29 1.252 . S
O33 In26 2.326 . S
O33 C29 1.260 . S
O34 In26 2.266 . S
O34 C31 1.252 . S
O35 In26 2.326 . S
O35 C31 1.260 . S
C36 O27 1.240 . S
C36 O28 1.252 . S
O37 In26 2.294 . S
O37 C30 1.240 . S
O38 In26 2.326 . S
O38 C30 1.252 . S
In39 O40 2.294 . S
In39 O41 2.326 . S
In39 O45 2.266 . S
In39 O46 2.326 . S
In39 O47 2.266 . S
In39 O48 2.326 . S
In39 O50 2.294 . S
In39 O51 2.326 . S
O40 In39 2.294 . S
O40 C49 1.240 . S
O41 In39 2.326 . S
O41 C49 1.252 . S
C42 O45 1.252 . S
C42 O46 1.260 . S
C43 O50 1.240 . S
C43 O51 1.252 . S
C44 O47 1.252 . S
C44 O48 1.260 . S
O45 In39 2.266 . S
O45 C42 1.252 . S
O46 In39 2.326 . S
O46 C42 1.260 . S
O47 In39 2.266 . S
O47 C44 1.252 . S
O48 In39 2.326 . S
O48 C44 1.260 . S
C49 O40 1.240 . S
C49 O41 1.252 . S
O50 In39 2.294 . S
O50 C43 1.240 . S
O51 In39 2.326 . S
O51 C43 1.252 . S
In52 O53 2.294 . S
In52 O54 2.326 . S
In52 O58 2.266 . S
In52 O59 2.326 . S
In52 O60 2.266 . S
In52 O61 2.326 . S
In52 O63 2.294 . S
In52 O64 2.326 . S
O53 In52 2.294 . S
O53 C62 1.240 . S
O54 In52 2.326 . S
O54 C62 1.252 . S
C55 O58 1.252 . S
C55 O59 1.260 . S
C56 O63 1.240 . S
C56 O64 1.252 . S
C57 O60 1.252 . S
C57 O61 1.260 . S
O58 In52 2.266 . S
O58 C55 1.252 . S
O59 In52 2.326 . S
O59 C55 1.260 . S
O60 In52 2.266 . S
O60 C57 1.252 . S
O61 In52 2.326 . S
O61 C57 1.260 . S
C62 O53 1.240 . S
C62 O54 1.252 . S
O63 In52 2.294 . S
O63 C56 1.240 . S
O64 In52 2.326 . S
O64 C56 1.252 . S
In65 O66 2.294 . S
In65 O67 2.326 . S
In65 O71 2.266 . S
In65 O72 2.326 . S
In65 O73 2.266 . S
In65 O74 2.326 . S
In65 O76 2.294 . S
In65 O77 2.326 . S
O66 In65 2.294 . S
O66 C75 1.240 . S
O67 In65 2.326 . S
O67 C75 1.252 . S
C68 O71 1.252 . S
C68 O72 1.260 . S
C69 O76 1.240 . S
C69 O77 1.252 . S
C70 O73 1.252 . S
C70 O74 1.260 . S
O71 In65 2.266 . S
O71 C68 1.252 . S
O72 In65 2.326 . S
O72 C68 1.260 . S
O73 In65 2.266 . S
O73 C70 1.252 . S
O74 In65 2.326 . S
O74 C70 1.260 . S
C75 O66 1.240 . S
C75 O67 1.252 . S
O76 In65 2.294 . S
O76 C69 1.240 . S
O77 In65 2.326 . S
O77 C69 1.252 . S
In78 O79 2.294 . S
In78 O80 2.326 . S
In78 O84 2.266 . S
In78 O85 2.326 . S
In78 O86 2.266 . S
In78 O87 2.326 . S
In78 O89 2.294 . S
In78 O90 2.326 . S
O79 In78 2.294 . S
O79 C88 1.240 . S
O80 In78 2.326 . S
O80 C88 1.252 . S
C81 O84 1.252 . S
C81 O85 1.260 . S
C82 O89 1.240 . S
C82 O90 1.252 . S
C83 O86 1.252 . S
C83 O87 1.260 . S
O84 In78 2.266 . S
O84 C81 1.252 . S
O85 In78 2.326 . S
O85 C81 1.260 . S
O86 In78 2.266 . S
O86 C83 1.252 . S
O87 In78 2.326 . S
O87 C83 1.260 . S
C88 O79 1.240 . S
C88 O80 1.252 . S
O89 In78 2.294 . S
O89 C82 1.240 . S
O90 In78 2.326 . S
O90 C82 1.252 . S
In91 O92 2.294 1_556 S
In91 O93 2.326 1_455 S
In91 O97 2.266 1_556 S
In91 O98 2.326 . S
In91 O99 2.266 1_455 S
In91 O100 2.326 1_455 S
In91 O102 2.294 . S
In91 O103 2.326 . S
O92 In91 2.294 1_554 S
O92 C101 1.240 . S
O93 In91 2.326 1_655 S
O93 C101 1.252 1_656 S
C94 O97 1.252 . S
C94 O98 1.260 1_554 S
C95 O102 1.240 . S
C95 O103 1.252 . S
C96 O99 1.252 . S
C96 O100 1.260 . S
O97 In91 2.266 1_554 S
O97 C94 1.252 . S
O98 In91 2.326 . S
O98 C94 1.260 1_556 S
O99 In91 2.266 1_655 S
O99 C96 1.252 . S
O100 In91 2.326 1_655 S
O100 C96 1.260 . S
C101 O92 1.240 . S
C101 O93 1.252 1_454 S
O102 In91 2.294 . S
O102 C95 1.240 . S
O103 In91 2.326 . S
O103 C95 1.252 . S
In104 O105 2.295 . S
In104 O106 2.328 1_545 S
In104 O110 2.264 . S
In104 O111 2.327 . S
In104 O112 2.262 1_545 S
In104 O113 2.318 1_545 S
In104 O115 2.300 . S
In104 O116 2.334 . S
O105 In104 2.295 . S
O105 C114 1.240 . S
O106 In104 2.328 1_565 S
O106 C114 1.252 1_565 S
C107 O110 1.252 . S
C107 O111 1.256 . S
C108 O115 1.240 . S
C108 O116 1.252 . S
C109 O112 1.252 . S
C109 O113 1.260 . S
O110 In104 2.264 . S
O110 C107 1.252 . S
O111 In104 2.327 . S
O111 C107 1.256 . S
O112 In104 2.262 1_565 S
O112 C109 1.252 . S
O113 In104 2.318 1_565 S
O113 C109 1.260 . S
C114 O105 1.240 . S
C114 O106 1.252 1_545 S
O115 In104 2.300 . S
O115 C108 1.240 . S
O116 In104 2.334 . S
O116 C108 1.252 . S
In117 O118 2.294 . S
In117 O119 2.326 . S
In117 O123 2.266 . S
In117 O124 2.326 . S
In117 O125 2.266 . S
In117 O126 2.326 . S
In117 O128 2.294 . S
In117 O129 2.326 . S
O118 In117 2.294 . S
O118 C127 1.240 . S
O119 In117 2.326 . S
O119 C127 1.252 . S
C120 O123 1.252 . S
C120 O124 1.260 . S
C121 O128 1.240 . S
C121 O129 1.252 . S
C122 O125 1.252 . S
C122 O126 1.260 . S
O123 In117 2.266 . S
O123 C120 1.252 . S
O124 In117 2.326 . S
O124 C120 1.260 . S
O125 In117 2.266 . S
O125 C122 1.252 . S
O126 In117 2.326 . S
O126 C122 1.260 . S
C127 O118 1.240 . S
C127 O119 1.252 . S
O128 In117 2.294 . S
O128 C121 1.240 . S
O129 In117 2.326 . S
O129 C121 1.252 . S
In130 O131 2.294 . S
In130 O132 2.326 . S
In130 O136 2.266 . S
In130 O137 2.326 . S
In130 O138 2.266 . S
In130 O139 2.326 . S
In130 O141 2.294 . S
In130 O142 2.326 . S
O131 In130 2.294 . S
O131 C140 1.240 . S
O132 In130 2.326 . S
O132 C140 1.252 . S
C133 O136 1.252 . S
C133 O137 1.260 . S
C134 O141 1.240 . S
C134 O142 1.252 . S
C135 O138 1.252 . S
C135 O139 1.260 . S
O136 In130 2.266 . S
O136 C133 1.252 . S
O137 In130 2.326 . S
O137 C133 1.260 . S
O138 In130 2.266 . S
O138 C135 1.252 . S
O139 In130 2.326 . S
O139 C135 1.260 . S
C140 O131 1.240 . S
C140 O132 1.252 . S
O141 In130 2.294 . S
O141 C134 1.240 . S
O142 In130 2.326 . S
O142 C134 1.252 . S
In143 O144 2.296 . S
In143 O145 2.329 . S
In143 O149 2.264 1_554 S
In143 O150 2.322 1_554 S
In143 O151 2.267 . S
In143 O152 2.326 . S
In143 O154 2.294 . S
In143 O155 2.327 . S
O144 In143 2.296 . S
O144 C153 1.240 . S
O145 In143 2.329 . S
O145 C153 1.252 . S
C146 O149 1.252 . S
C146 O150 1.260 . S
C147 O154 1.240 . S
C147 O155 1.252 . S
C148 O151 1.252 . S
C148 O152 1.263 . S
O149 In143 2.264 1_556 S
O149 C146 1.252 . S
O150 In143 2.322 1_556 S
O150 C146 1.260 . S
O151 In143 2.267 . S
O151 C148 1.252 . S
O152 In143 2.326 . S
O152 C148 1.263 . S
C153 O144 1.240 . S
C153 O145 1.252 . S
O154 In143 2.294 . S
O154 C147 1.240 . S
O155 In143 2.327 . S
O155 C147 1.252 . S
In156 O157 2.294 . S
In156 O158 2.326 . S
In156 O162 2.266 . S
In156 O163 2.351 . S
In156 O164 2.266 . S
In156 O165 2.326 . S
In156 O167 2.294 . S
In156 O168 2.326 . S
O157 In156 2.294 . S
O157 C166 1.240 . S
O158 In156 2.326 . S
O158 C166 1.252 . S
C159 O162 1.252 1_556 S
C159 O163 1.259 1_556 S
C160 O167 1.240 . S
C160 O168 1.252 . S
C161 O164 1.252 . S
C161 O165 1.260 . S
O162 In156 2.266 . S
O162 C159 1.252 1_554 S
O163 In156 2.351 . S
O163 C159 1.259 1_554 S
O164 In156 2.266 . S
O164 C161 1.252 . S
O165 In156 2.326 . S
O165 C161 1.260 . S
C166 O157 1.240 . S
C166 O158 1.252 . S
O167 In156 2.294 . S
O167 C160 1.240 . S
O168 In156 2.326 . S
O168 C160 1.252 . S
In169 O170 2.294 . S
In169 O171 2.326 . S
In169 O175 2.266 . S
In169 O176 2.326 . S
In169 O177 2.266 . S
In169 O178 2.326 . S
In169 O180 2.294 . S
In169 O181 2.326 . S
O170 In169 2.294 . S
O170 C179 1.240 . S
O171 In169 2.326 . S
O171 C179 1.252 . S
C172 O175 1.252 . S
C172 O176 1.260 . S
C173 O180 1.240 . S
C173 O181 1.252 . S
C174 O177 1.252 . S
C174 O178 1.260 . S
O175 In169 2.266 . S
O175 C172 1.252 . S
O176 In169 2.326 . S
O176 C172 1.260 . S
O177 In169 2.266 . S
O177 C174 1.252 . S
O178 In169 2.326 . S
O178 C174 1.260 . S
C179 O170 1.240 . S
C179 O171 1.252 . S
O180 In169 2.294 . S
O180 C173 1.240 . S
O181 In169 2.326 . S
O181 C173 1.252 . S
In182 O183 2.294 . S
In182 O184 2.326 . S
In182 O188 2.266 . S
In182 O189 2.326 . S
In182 O190 2.266 . S
In182 O191 2.326 . S
In182 O193 2.294 . S
In182 O194 2.326 . S
O183 In182 2.294 . S
O183 C192 1.240 . S
O184 In182 2.326 . S
O184 C192 1.252 . S
C185 O188 1.252 . S
C185 O189 1.260 . S
C186 O193 1.240 . S
C186 O194 1.252 . S
C187 O190 1.252 . S
C187 O191 1.260 . S
O188 In182 2.266 . S
O188 C185 1.252 . S
O189 In182 2.326 . S
O189 C185 1.260 . S
O190 In182 2.266 . S
O190 C187 1.252 . S
O191 In182 2.326 . S
O191 C187 1.260 . S
C192 O183 1.240 . S
C192 O184 1.252 . S
O193 In182 2.294 . S
O193 C186 1.240 . S
O194 In182 2.326 . S
O194 C186 1.252 . S
In195 O196 2.294 . S
In195 O197 2.326 . S
In195 O201 2.266 . S
In195 O202 2.326 . S
In195 O203 2.266 . S
In195 O204 2.326 . S
In195 O206 2.294 . S
In195 O207 2.326 . S
O196 In195 2.294 . S
O196 C205 1.240 . S
O197 In195 2.326 . S
O197 C205 1.252 . S
C198 O201 1.252 . S
C198 O202 1.260 . S
C199 O206 1.240 . S
C199 O207 1.252 . S
C200 O203 1.252 . S
C200 O204 1.260 . S
O201 In195 2.266 . S
O201 C198 1.252 . S
O202 In195 2.326 . S
O202 C198 1.260 . S
O203 In195 2.266 . S
O203 C200 1.252 . S
O204 In195 2.326 . S
O204 C200 1.260 . S
C205 O196 1.240 . S
C205 O197 1.252 . S
O206 In195 2.294 . S
O206 C199 1.240 . S
O207 In195 2.326 . S
O207 C199 1.252 . S
In208 O209 2.294 . S
In208 O210 2.326 . S
In208 O214 2.266 . S
In208 O215 2.326 . S
In208 O216 2.266 1_545 S
In208 O217 2.326 1_545 S
In208 O219 2.294 . S
In208 O220 2.326 . S
O209 In208 2.294 . S
O209 C218 1.240 . S
O210 In208 2.326 . S
O210 C218 1.252 . S
C211 O214 1.252 . S
C211 O215 1.260 . S
C212 O219 1.240 . S
C212 O220 1.252 . S
C213 O216 1.252 . S
C213 O217 1.260 . S
O214 In208 2.266 . S
O214 C211 1.252 . S
O215 In208 2.326 . S
O215 C211 1.260 . S
O216 In208 2.266 1_565 S
O216 C213 1.252 . S
O217 In208 2.326 1_565 S
O217 C213 1.260 . S
C218 O209 1.240 . S
C218 O210 1.252 . S
O219 In208 2.294 . S
O219 C212 1.240 . S
O220 In208 2.326 . S
O220 C212 1.252 . S
In221 O222 2.294 . S
In221 O223 2.326 . S
In221 O227 2.266 . S
In221 O228 2.326 . S
In221 O229 2.266 . S
In221 O230 2.326 . S
In221 O232 2.294 . S
In221 O233 2.326 . S
O222 In221 2.294 . S
O222 C231 1.240 . S
O223 In221 2.326 . S
O223 C231 1.252 . S
C224 O227 1.252 . S
C224 O228 1.260 . S
C225 O232 1.240 . S
C225 O233 1.252 . S
C226 O229 1.252 . S
C226 O230 1.260 . S
O227 In221 2.266 . S
O227 C224 1.252 . S
O228 In221 2.326 . S
O228 C224 1.260 . S
O229 In221 2.266 . S
O229 C226 1.252 . S
O230 In221 2.326 . S
O230 C226 1.260 . S
C231 O222 1.240 . S
C231 O223 1.252 . S
O232 In221 2.294 . S
O232 C225 1.240 . S
O233 In221 2.326 . S
O233 C225 1.252 . S
In234 O235 2.294 . S
In234 O236 2.326 . S
In234 O240 2.266 . S
In234 O241 2.326 . S
In234 O242 2.266 . S
In234 O243 2.326 . S
In234 O245 2.294 . S
In234 O246 2.326 . S
O235 In234 2.294 . S
O235 C244 1.240 . S
O236 In234 2.326 . S
O236 C244 1.252 . S
C237 O240 1.252 . S
C237 O241 1.260 . S
C238 O245 1.240 . S
C238 O246 1.252 . S
C239 O242 1.252 . S
C239 O243 1.260 . S
O240 In234 2.266 . S
O240 C237 1.252 . S
O241 In234 2.326 . S
O241 C237 1.260 . S
O242 In234 2.266 . S
O242 C239 1.252 . S
O243 In234 2.326 . S
O243 C239 1.260 . S
C244 O235 1.240 . S
C244 O236 1.252 . S
O245 In234 2.294 . S
O245 C238 1.240 . S
O246 In234 2.326 . S
O246 C238 1.252 . S
In247 O248 2.294 . S
In247 O249 2.326 . S
In247 O253 2.266 . S
In247 O254 2.326 . S
In247 O255 2.266 . S
In247 O256 2.326 . S
In247 O258 2.294 . S
In247 O259 2.326 . S
O248 In247 2.294 . S
O248 C257 1.240 . S
O249 In247 2.326 . S
O249 C257 1.252 . S
C250 O253 1.252 . S
C250 O254 1.260 . S
C251 O258 1.240 . S
C251 O259 1.252 . S
C252 O255 1.252 . S
C252 O256 1.260 . S
O253 In247 2.266 . S
O253 C250 1.252 . S
O254 In247 2.326 . S
O254 C250 1.260 . S
O255 In247 2.266 . S
O255 C252 1.252 . S
O256 In247 2.326 . S
O256 C252 1.260 . S
C257 O248 1.240 . S
C257 O249 1.252 . S
O258 In247 2.294 . S
O258 C251 1.240 . S
O259 In247 2.326 . S
O259 C251 1.252 . S
In260 O261 2.294 . S
In260 O262 2.326 . S
In260 O266 2.266 . S
In260 O267 2.326 . S
In260 O268 2.266 . S
In260 O269 2.326 1_554 S
In260 O271 2.294 . S
In260 O272 2.326 . S
O261 In260 2.294 . S
O261 C270 1.240 . S
O262 In260 2.326 . S
O262 C270 1.252 . S
C263 O266 1.252 . S
C263 O267 1.260 . S
C264 O271 1.240 . S
C264 O272 1.252 . S
C265 O268 1.252 1_556 S
C265 O269 1.260 . S
O266 In260 2.266 . S
O266 C263 1.252 . S
O267 In260 2.326 . S
O267 C263 1.260 . S
O268 In260 2.266 . S
O268 C265 1.252 1_554 S
O269 In260 2.326 1_556 S
O269 C265 1.260 . S
C270 O261 1.240 . S
C270 O262 1.252 . S
O271 In260 2.294 . S
O271 C264 1.240 . S
O272 In260 2.326 . S
O272 C264 1.252 . S
In273 O274 2.294 . S
In273 O275 2.326 . S
In273 O279 2.266 . S
In273 O280 2.326 . S
In273 O281 2.266 . S
In273 O282 2.326 . S
In273 O284 2.294 . S
In273 O285 2.326 . S
O274 In273 2.294 . S
O274 C283 1.240 . S
O275 In273 2.326 . S
O275 C283 1.252 . S
C276 O279 1.252 . S
C276 O280 1.260 . S
C277 O284 1.240 . S
C277 O285 1.252 . S
C278 O281 1.252 . S
C278 O282 1.260 . S
O279 In273 2.266 . S
O279 C276 1.252 . S
O280 In273 2.326 . S
O280 C276 1.260 . S
O281 In273 2.266 . S
O281 C278 1.252 . S
O282 In273 2.326 . S
O282 C278 1.260 . S
C283 O274 1.240 . S
C283 O275 1.252 . S
O284 In273 2.294 . S
O284 C277 1.240 . S
O285 In273 2.326 . S
O285 C277 1.252 . S
In286 O287 2.294 . S
In286 O288 2.326 . S
In286 O292 2.266 . S
In286 O293 2.326 . S
In286 O294 2.266 . S
In286 O295 2.326 . S
In286 O297 2.294 . S
In286 O298 2.326 . S
O287 In286 2.294 . S
O287 C296 1.240 . S
O288 In286 2.326 . S
O288 C296 1.252 . S
C289 O292 1.252 . S
C289 O293 1.260 . S
C290 O297 1.240 . S
C290 O298 1.252 . S
C291 O294 1.252 . S
C291 O295 1.260 . S
O292 In286 2.266 . S
O292 C289 1.252 . S
O293 In286 2.326 . S
O293 C289 1.260 . S
O294 In286 2.266 . S
O294 C291 1.252 . S
O295 In286 2.326 . S
O295 C291 1.260 . S
C296 O287 1.240 . S
C296 O288 1.252 . S
O297 In286 2.294 . S
O297 C290 1.240 . S
O298 In286 2.326 . S
O298 C290 1.252 . S
In299 O300 2.294 . S
In299 O301 2.326 . S
In299 O305 2.266 . S
In299 O306 2.326 . S
In299 O307 2.266 . S
In299 O308 2.326 . S
In299 O310 2.294 . S
In299 O311 2.326 . S
O300 In299 2.294 . S
O300 C309 1.240 . S
O301 In299 2.326 . S
O301 C309 1.252 . S
C302 O305 1.252 . S
C302 O306 1.260 . S
C303 O310 1.240 . S
C303 O311 1.252 . S
C304 O307 1.252 . S
C304 O308 1.260 . S
O305 In299 2.266 . S
O305 C302 1.252 . S
O306 In299 2.326 . S
O306 C302 1.260 . S
O307 In299 2.266 . S
O307 C304 1.252 . S
O308 In299 2.326 . S
O308 C304 1.260 . S
C309 O300 1.240 . S
C309 O301 1.252 . S
O310 In299 2.294 . S
O310 C303 1.240 . S
O311 In299 2.326 . S
O311 C303 1.252 . S
Dy312 O315 2.307 . S
Dy312 O317 2.395 . S
Dy312 O318 2.379 . S
Dy312 O320 2.339 . S
Dy312 O322 2.298 . S
Dy312 O326 2.275 . S
Dy312 C334 2.738 . S
Dy313 O316 2.298 . S
Dy313 O319 2.275 . S
Dy313 O321 2.307 . S
Dy313 O323 2.395 1_455 S
Dy313 O324 2.379 1_455 S
Dy313 O327 2.339 1_554 S
Dy313 C343 2.738 1_455 S
C314 O326 1.254 . S
C314 O327 1.257 1_554 S
O315 Dy312 2.307 . S
O315 C325 1.266 . S
O316 Dy313 2.298 . S
O316 C325 1.236 . S
O317 Dy312 2.395 . S
O317 C334 1.255 . S
O318 Dy312 2.379 . S
O318 C334 1.249 . S
O319 Dy313 2.275 . S
O319 C335 1.254 . S
O320 Dy312 2.339 . S
O320 C335 1.257 . S
O321 Dy313 2.307 . S
O321 C336 1.266 . S
O322 Dy312 2.298 . S
O322 C336 1.236 . S
O323 Dy313 2.395 1_655 S
O323 C343 1.255 . S
O324 Dy313 2.379 1_655 S
O324 C343 1.249 . S
C325 O315 1.266 . S
C325 O316 1.236 . S
O326 Dy312 2.275 . S
O326 C314 1.254 . S
O327 Dy313 2.339 1_556 S
O327 C314 1.257 1_556 S
C328 C331 1.344 . S
C328 C332 1.328 . S
C328 C334 1.516 . S
C329 C330 1.304 . S
C329 C333 1.323 . S
C330 C329 1.304 . S
C330 C331 1.371 . S
C330 H344 0.930 . S
C331 C328 1.344 . S
C331 C330 1.371 . S
C331 H345 0.931 . S
C332 C328 1.328 . S
C332 C333 1.433 . S
C332 H346 0.931 . S
C333 C329 1.323 . S
C333 C332 1.433 . S
C333 H347 0.933 . S
C334 Dy312 2.738 . S
C334 O317 1.255 . S
C334 O318 1.249 . S
C334 C328 1.516 . S
C335 O319 1.254 . S
C335 O320 1.257 . S
C336 O321 1.266 . S
C336 O322 1.236 . S
C337 C340 1.344 . S
C337 C341 1.328 . S
C337 C343 1.516 . S
C338 C339 1.304 . S
C338 C342 1.323 . S
C339 C338 1.304 . S
C339 C340 1.371 . S
C339 H348 0.930 . S
C340 C337 1.344 . S
C340 C339 1.371 . S
C340 H349 0.931 . S
C341 C337 1.328 . S
C341 C342 1.433 . S
C341 H350 0.931 1_554 S
C342 C338 1.323 . S
C342 C341 1.433 . S
C342 H351 0.933 1_554 S
C343 Dy313 2.738 1_655 S
C343 O323 1.255 . S
C343 O324 1.249 . S
C343 C337 1.516 . S
H344 C330 0.930 . S
H345 C331 0.931 . S
H346 C332 0.931 . S
H347 C333 0.933 . S
H348 C339 0.930 . S
H349 C340 0.931 . S
H350 C341 0.931 1_556 S
H351 C342 0.933 1_556 S
Dy352 O355 2.307 . S
Dy352 O357 2.395 . S
Dy352 O358 2.379 . S
Dy352 O360 2.339 . S
Dy352 O362 2.298 . S
Dy352 O366 2.275 . S
Dy352 C374 2.738 . S
Dy353 O356 2.298 . S
Dy353 O359 2.275 . S
Dy353 O361 2.307 . S
Dy353 O363 2.395 . S
Dy353 O364 2.379 . S
Dy353 O367 2.339 . S
Dy353 C383 2.738 . S
C354 O366 1.254 . S
C354 O367 1.257 . S
O355 Dy352 2.307 . S
O355 C365 1.266 . S
O356 Dy353 2.298 . S
O356 C365 1.236 . S
O357 Dy352 2.395 . S
O357 C374 1.255 . S
O358 Dy352 2.379 . S
O358 C374 1.249 . S
O359 Dy353 2.275 . S
O359 C375 1.254 . S
O360 Dy352 2.339 . S
O360 C375 1.257 . S
O361 Dy353 2.307 . S
O361 C376 1.266 . S
O362 Dy352 2.298 . S
O362 C376 1.236 . S
O363 Dy353 2.395 . S
O363 C383 1.255 . S
O364 Dy353 2.379 . S
O364 C383 1.249 . S
C365 O355 1.266 . S
C365 O356 1.236 . S
O366 Dy352 2.275 . S
O366 C354 1.254 . S
O367 Dy353 2.339 . S
O367 C354 1.257 . S
C368 C371 1.344 . S
C368 C372 1.328 . S
C368 C374 1.516 . S
C369 C370 1.304 . S
C369 C373 1.323 . S
C370 C369 1.304 . S
C370 C371 1.371 . S
C370 H384 0.930 . S
C371 C368 1.344 . S
C371 C370 1.371 . S
C371 H385 0.931 . S
C372 C368 1.328 . S
C372 C373 1.433 . S
C372 H386 0.931 . S
C373 C369 1.323 . S
C373 C372 1.433 . S
C373 H387 0.933 . S
C374 Dy352 2.738 . S
C374 O357 1.255 . S
C374 O358 1.249 . S
C374 C368 1.516 . S
C375 O359 1.254 . S
C375 O360 1.257 . S
C376 O361 1.266 . S
C376 O362 1.236 . S
C377 C380 1.344 . S
C377 C381 1.328 . S
C377 C383 1.516 . S
C378 C379 1.304 . S
C378 C382 1.323 . S
C379 C378 1.304 . S
C379 C380 1.371 . S
C379 H388 0.930 . S
C380 C377 1.344 . S
C380 C379 1.371 . S
C380 H389 0.931 . S
C381 C377 1.328 . S
C381 C382 1.433 . S
C381 H390 0.931 . S
C382 C378 1.323 . S
C382 C381 1.433 . S
C382 H391 0.933 . S
C383 Dy353 2.738 . S
C383 O363 1.255 . S
C383 O364 1.249 . S
C383 C377 1.516 . S
H384 C370 0.930 . S
H385 C371 0.931 . S
H386 C372 0.931 . S
H387 C373 0.933 . S
H388 C379 0.930 . S
H389 C380 0.931 . S
H390 C381 0.931 . S
H391 C382 0.933 . S
Dy392 O395 2.298 1_545 S
Dy392 O397 2.395 . S
Dy392 O398 2.379 . S
Dy392 O400 2.339 . S
Dy392 O402 2.298 . S
Dy392 O406 2.275 . S
Dy392 C414 2.738 . S
Dy393 O396 2.298 . S
Dy393 O399 2.275 . S
Dy393 O401 2.307 . S
Dy393 O403 2.395 . S
Dy393 O404 2.379 . S
Dy393 O407 2.339 . S
Dy393 C423 2.738 . S
C394 O406 1.254 . S
C394 O407 1.257 . S
O395 Dy392 2.298 1_565 S
O395 C405 1.271 . S
O396 Dy393 2.298 . S
O396 C405 1.236 1_545 S
O397 Dy392 2.395 . S
O397 C414 1.255 . S
O398 Dy392 2.379 . S
O398 C414 1.249 . S
O399 Dy393 2.275 . S
O399 C415 1.254 . S
O400 Dy392 2.339 . S
O400 C415 1.257 . S
O401 Dy393 2.307 . S
O401 C416 1.266 . S
O402 Dy392 2.298 . S
O402 C416 1.236 . S
O403 Dy393 2.395 . S
O403 C423 1.255 . S
O404 Dy393 2.379 . S
O404 C423 1.249 . S
C405 O395 1.271 . S
C405 O396 1.236 1_565 S
O406 Dy392 2.275 . S
O406 C394 1.254 . S
O407 Dy393 2.339 . S
O407 C394 1.257 . S
C408 C411 1.344 . S
C408 C412 1.328 . S
C408 C414 1.516 . S
C409 C410 1.304 . S
C409 C413 1.323 . S
C410 C409 1.304 . S
C410 C411 1.371 . S
C410 H424 0.930 . S
C411 C408 1.344 . S
C411 C410 1.371 . S
C411 H425 0.931 . S
C412 C408 1.328 . S
C412 C413 1.433 . S
C412 H426 0.931 . S
C413 C409 1.323 . S
C413 C412 1.433 . S
C413 H427 0.933 . S
C414 Dy392 2.738 . S
C414 O397 1.255 . S
C414 O398 1.249 . S
C414 C408 1.516 . S
C415 O399 1.254 . S
C415 O400 1.257 . S
C416 O401 1.266 . S
C416 O402 1.236 . S
C417 C420 1.341 . S
C417 C421 1.327 . S
C417 C423 1.519 1_565 S
C418 C419 1.304 . S
C418 C422 1.323 . S
C419 C418 1.304 . S
C419 C420 1.371 . S
C419 H428 0.930 . S
C420 C417 1.341 . S
C420 C419 1.371 . S
C420 H429 0.931 . S
C421 C417 1.327 . S
C421 C422 1.433 . S
C421 H430 0.936 . S
C422 C418 1.323 . S
C422 C421 1.433 . S
C422 H431 0.933 . S
C423 Dy393 2.738 . S
C423 O403 1.255 . S
C423 O404 1.249 . S
C423 C417 1.519 1_545 S
H424 C410 0.930 . S
H425 C411 0.931 . S
H426 C412 0.931 . S
H427 C413 0.933 . S
H428 C419 0.930 . S
H429 C420 0.931 . S
H430 C421 0.936 . S
H431 C422 0.933 . S
Dy432 O435 2.307 . S
Dy432 O437 2.395 . S
Dy432 O438 2.379 . S
Dy432 O440 2.339 . S
Dy432 O442 2.298 . S
Dy432 O446 2.275 . S
Dy432 C454 2.738 . S
Dy433 O436 2.298 . S
Dy433 O439 2.275 . S
Dy433 O441 2.307 . S
Dy433 O443 2.395 . S
Dy433 O444 2.379 . S
Dy433 O447 2.339 . S
Dy433 C463 2.738 . S
C434 O446 1.254 . S
C434 O447 1.257 . S
O435 Dy432 2.307 . S
O435 C445 1.266 . S
O436 Dy433 2.298 . S
O436 C445 1.236 . S
O437 Dy432 2.395 . S
O437 C454 1.255 . S
O438 Dy432 2.379 . S
O438 C454 1.249 . S
O439 Dy433 2.275 . S
O439 C455 1.254 . S
O440 Dy432 2.339 . S
O440 C455 1.257 . S
O441 Dy433 2.307 . S
O441 C456 1.266 . S
O442 Dy432 2.298 . S
O442 C456 1.236 . S
O443 Dy433 2.395 . S
O443 C463 1.255 . S
O444 Dy433 2.379 . S
O444 C463 1.249 . S
C445 O435 1.266 . S
C445 O436 1.236 . S
O446 Dy432 2.275 . S
O446 C434 1.254 . S
O447 Dy433 2.339 . S
O447 C434 1.257 . S
C448 C451 1.344 . S
C448 C452 1.328 . S
C448 C454 1.516 . S
C449 C450 1.304 . S
C449 C453 1.323 . S
C450 C449 1.304 . S
C450 C451 1.371 . S
C450 H464 0.930 . S
C451 C448 1.344 . S
C451 C450 1.371 . S
C451 H465 0.931 . S
C452 C448 1.328 . S
C452 C453 1.433 . S
C452 H466 0.931 . S
C453 C449 1.323 . S
C453 C452 1.433 . S
C453 H467 0.933 . S
C454 Dy432 2.738 . S
C454 O437 1.255 . S
C454 O438 1.249 . S
C454 C448 1.516 . S
C455 O439 1.254 . S
C455 O440 1.257 . S
C456 O441 1.266 . S
C456 O442 1.236 . S
C457 C460 1.344 . S
C457 C461 1.328 . S
C457 C463 1.516 . S
C458 C459 1.304 . S
C458 C462 1.323 . S
C459 C458 1.304 . S
C459 C460 1.371 . S
C459 H468 0.930 . S
C460 C457 1.344 . S
C460 C459 1.371 . S
C460 H469 0.931 . S
C461 C457 1.328 . S
C461 C462 1.433 . S
C461 H470 0.931 . S
C462 C458 1.323 . S
C462 C461 1.433 . S
C462 H471 0.933 . S
C463 Dy433 2.738 . S
C463 O443 1.255 . S
C463 O444 1.249 . S
C463 C457 1.516 . S
H464 C450 0.930 . S
H465 C451 0.931 . S
H466 C452 0.931 . S
H467 C453 0.933 . S
H468 C459 0.930 . S
H469 C460 0.931 . S
H470 C461 0.931 . S
H471 C462 0.933 . S
Dy472 O475 2.307 . S
Dy472 O477 2.395 1_545 S
Dy472 O478 2.379 1_545 S
Dy472 O480 2.339 . S
Dy472 O482 2.298 . S
Dy472 O486 2.275 . S
Dy472 C494 2.738 1_545 S
Dy473 O476 2.298 . S
Dy473 O479 2.275 . S
Dy473 O481 2.307 . S
Dy473 O483 2.395 . S
Dy473 O484 2.379 . S
Dy473 O487 2.339 1_455 S
Dy473 C503 2.738 . S
C474 O486 1.254 1_655 S
C474 O487 1.257 . S
O475 Dy472 2.307 . S
O475 C485 1.266 . S
O476 Dy473 2.298 . S
O476 C485 1.236 . S
O477 Dy472 2.395 1_565 S
O477 C494 1.255 . S
O478 Dy472 2.379 1_565 S
O478 C494 1.249 . S
O479 Dy473 2.275 . S
O479 C495 1.254 . S
O480 Dy472 2.339 . S
O480 C495 1.257 . S
O481 Dy473 2.307 . S
O481 C496 1.266 . S
O482 Dy472 2.298 . S
O482 C496 1.236 . S
O483 Dy473 2.395 . S
O483 C503 1.255 . S
O484 Dy473 2.379 . S
O484 C503 1.249 . S
C485 O475 1.266 . S
C485 O476 1.236 . S
O486 Dy472 2.275 . S
O486 C474 1.254 1_455 S
O487 Dy473 2.339 1_655 S
O487 C474 1.257 . S
C488 C491 1.344 . S
C488 C492 1.328 . S
C488 C494 1.516 . S
C489 C490 1.304 . S
C489 C493 1.323 . S
C490 C489 1.304 . S
C490 C491 1.371 . S
C490 H504 0.930 . S
C491 C488 1.344 . S
C491 C490 1.371 . S
C491 H505 0.931 . S
C492 C488 1.328 . S
C492 C493 1.433 . S
C492 H506 0.931 . S
C493 C489 1.323 . S
C493 C492 1.433 . S
C493 H507 0.933 . S
C494 Dy472 2.738 1_565 S
C494 O477 1.255 . S
C494 O478 1.249 . S
C494 C488 1.516 . S
C495 O479 1.254 . S
C495 O480 1.257 . S
C496 O481 1.266 . S
C496 O482 1.236 . S
C497 C500 1.344 . S
C497 C501 1.345 . S
C497 C503 1.516 . S
C498 C499 1.304 . S
C498 C502 1.323 1_455 S
C499 C498 1.304 . S
C499 C500 1.371 . S
C499 H508 0.930 . S
C500 C497 1.344 . S
C500 C499 1.371 . S
C500 H509 0.931 . S
C501 C497 1.345 . S
C501 C502 1.428 1_455 S
C501 H510 0.919 1_455 S
C502 C498 1.323 1_655 S
C502 C501 1.428 1_655 S
C502 H511 0.933 . S
C503 Dy473 2.738 . S
C503 O483 1.255 . S
C503 O484 1.249 . S
C503 C497 1.516 . S
H504 C490 0.930 . S
H505 C491 0.931 . S
H506 C492 0.931 . S
H507 C493 0.933 . S
H508 C499 0.930 . S
H509 C500 0.931 . S
H510 C501 0.919 1_655 S
H511 C502 0.933 . S
Dy512 O515 2.307 . S
Dy512 O517 2.395 . S
Dy512 O518 2.379 . S
Dy512 O520 2.339 . S
Dy512 O522 2.298 . S
Dy512 O526 2.275 . S
Dy512 C534 2.738 . S
Dy513 O516 2.298 . S
Dy513 O519 2.275 . S
Dy513 O521 2.307 . S
Dy513 O523 2.395 . S
Dy513 O524 2.379 . S
Dy513 O527 2.339 . S
Dy513 C543 2.738 . S
C514 O526 1.254 . S
C514 O527 1.257 . S
O515 Dy512 2.307 . S
O515 C525 1.266 . S
O516 Dy513 2.298 . S
O516 C525 1.236 . S
O517 Dy512 2.395 . S
O517 C534 1.255 . S
O518 Dy512 2.379 . S
O518 C534 1.249 . S
O519 Dy513 2.275 . S
O519 C535 1.254 . S
O520 Dy512 2.339 . S
O520 C535 1.257 . S
O521 Dy513 2.307 . S
O521 C536 1.266 . S
O522 Dy512 2.298 . S
O522 C536 1.236 . S
O523 Dy513 2.395 . S
O523 C543 1.255 . S
O524 Dy513 2.379 . S
O524 C543 1.249 . S
C525 O515 1.266 . S
C525 O516 1.236 . S
O526 Dy512 2.275 . S
O526 C514 1.254 . S
O527 Dy513 2.339 . S
O527 C514 1.257 . S
C528 C531 1.344 . S
C528 C532 1.328 . S
C528 C534 1.516 . S
C529 C530 1.304 . S
C529 C533 1.323 . S
C530 C529 1.304 . S
C530 C531 1.371 . S
C530 H544 0.930 . S
C531 C528 1.344 . S
C531 C530 1.371 . S
C531 H545 0.931 . S
C532 C528 1.328 . S
C532 C533 1.433 . S
C532 H546 0.931 . S
C533 C529 1.323 . S
C533 C532 1.433 . S
C533 H547 0.933 . S
C534 Dy512 2.738 . S
C534 O517 1.255 . S
C534 O518 1.249 . S
C534 C528 1.516 . S
C535 O519 1.254 . S
C535 O520 1.257 . S
C536 O521 1.266 . S
C536 O522 1.236 . S
C537 C540 1.344 . S
C537 C541 1.328 . S
C537 C543 1.516 . S
C538 C539 1.304 . S
C538 C542 1.323 . S
C539 C538 1.304 . S
C539 C540 1.371 . S
C539 H548 0.930 . S
C540 C537 1.344 . S
C540 C539 1.371 . S
C540 H549 0.931 . S
C541 C537 1.328 . S
C541 C542 1.433 . S
C541 H550 0.931 . S
C542 C538 1.323 . S
C542 C541 1.433 . S
C542 H551 0.933 . S
C543 Dy513 2.738 . S
C543 O523 1.255 . S
C543 O524 1.249 . S
C543 C537 1.516 . S
H544 C530 0.930 . S
H545 C531 0.931 . S
H546 C532 0.931 . S
H547 C533 0.933 . S
H548 C539 0.930 . S
H549 C540 0.931 . S
H550 C541 0.931 . S
H551 C542 0.933 . S
Dy552 O555 2.307 1_556 S
Dy552 O557 2.395 . S
Dy552 O558 2.379 . S
Dy552 O560 2.339 1_556 S
Dy552 O562 2.298 1_556 S
Dy552 O566 2.275 1_556 S
Dy552 C574 2.738 . S
Dy553 O556 2.298 . S
Dy553 O559 2.275 . S
Dy553 O561 2.307 . S
Dy553 O563 2.395 . S
Dy553 O564 2.379 . S
Dy553 O567 2.339 . S
Dy553 C583 2.738 . S
C554 O566 1.254 . S
C554 O567 1.257 . S
O555 Dy552 2.307 1_554 S
O555 C565 1.266 . S
O556 Dy553 2.298 . S
O556 C565 1.236 . S
O557 Dy552 2.395 . S
O557 C574 1.255 . S
O558 Dy552 2.379 . S
O558 C574 1.249 . S
O559 Dy553 2.275 . S
O559 C575 1.254 . S
O560 Dy552 2.339 1_554 S
O560 C575 1.257 . S
O561 Dy553 2.307 . S
O561 C576 1.266 . S
O562 Dy552 2.298 1_554 S
O562 C576 1.236 . S
O563 Dy553 2.395 . S
O563 C583 1.255 . S
O564 Dy553 2.379 . S
O564 C583 1.249 . S
C565 O555 1.266 . S
C565 O556 1.236 . S
O566 Dy552 2.275 1_554 S
O566 C554 1.254 . S
O567 Dy553 2.339 . S
O567 C554 1.257 . S
C568 C571 1.344 . S
C568 C572 1.328 . S
C568 C574 1.516 . S
C569 C570 1.304 . S
C569 C573 1.323 . S
C570 C569 1.304 . S
C570 C571 1.371 . S
C570 H584 0.930 . S
C571 C568 1.344 . S
C571 C570 1.371 . S
C571 H585 0.931 . S
C572 C568 1.328 . S
C572 C573 1.433 . S
C572 H586 0.931 . S
C573 C569 1.323 . S
C573 C572 1.433 . S
C573 H587 0.933 . S
C574 Dy552 2.738 . S
C574 O557 1.255 . S
C574 O558 1.249 . S
C574 C568 1.516 . S
C575 O559 1.254 . S
C575 O560 1.257 . S
C576 O561 1.266 . S
C576 O562 1.236 . S
C577 C580 1.344 . S
C577 C581 1.328 1_545 S
C577 C583 1.516 . S
C578 C579 1.265 1_565 S
C578 C582 1.352 . S
C579 C578 1.265 1_545 S
C579 C580 1.371 . S
C579 H588 0.930 . S
C580 C577 1.344 . S
C580 C579 1.371 . S
C580 H589 0.931 . S
C581 C577 1.328 1_565 S
C581 C582 1.433 . S
C581 H590 0.931 . S
C582 C578 1.352 . S
C582 C581 1.433 . S
C582 H591 0.933 . S
C583 Dy553 2.738 . S
C583 O563 1.255 . S
C583 O564 1.249 . S
C583 C577 1.516 . S
H584 C570 0.930 . S
H585 C571 0.931 . S
H586 C572 0.931 . S
H587 C573 0.933 . S
H588 C579 0.930 . S
H589 C580 0.931 . S
H590 C581 0.931 . S
H591 C582 0.933 . S
Dy592 O595 2.307 . S
Dy592 O597 2.395 . S
Dy592 O598 2.379 . S
Dy592 O600 2.339 . S
Dy592 O602 2.298 . S
Dy592 O606 2.275 . S
Dy592 C614 2.738 . S
Dy593 O596 2.298 . S
Dy593 O599 2.275 . S
Dy593 O601 2.307 . S
Dy593 O603 2.395 . S
Dy593 O604 2.379 . S
Dy593 O607 2.339 . S
Dy593 C623 2.738 . S
C594 O606 1.254 . S
C594 O607 1.257 . S
O595 Dy592 2.307 . S
O595 C605 1.266 . S
O596 Dy593 2.298 . S
O596 C605 1.236 . S
O597 Dy592 2.395 . S
O597 C614 1.255 . S
O598 Dy592 2.379 . S
O598 C614 1.249 . S
O599 Dy593 2.275 . S
O599 C615 1.254 . S
O600 Dy592 2.339 . S
O600 C615 1.257 . S
O601 Dy593 2.307 . S
O601 C616 1.266 . S
O602 Dy592 2.298 . S
O602 C616 1.236 . S
O603 Dy593 2.395 . S
O603 C623 1.255 . S
O604 Dy593 2.379 . S
O604 C623 1.249 . S
C605 O595 1.266 . S
C605 O596 1.236 . S
O606 Dy592 2.275 . S
O606 C594 1.254 . S
O607 Dy593 2.339 . S
O607 C594 1.257 . S
C608 C611 1.344 . S
C608 C612 1.328 . S
C608 C614 1.516 . S
C609 C610 1.304 . S
C609 C613 1.323 . S
C610 C609 1.304 . S
C610 C611 1.371 . S
C610 H624 0.930 . S
C611 C608 1.344 . S
C611 C610 1.371 . S
C611 H625 0.931 . S
C612 C608 1.328 . S
C612 C613 1.433 . S
C612 H626 0.931 . S
C613 C609 1.323 . S
C613 C612 1.433 . S
C613 H627 0.933 . S
C614 Dy592 2.738 . S
C614 O597 1.255 . S
C614 O598 1.249 . S
C614 C608 1.516 . S
C615 O599 1.254 . S
C615 O600 1.257 . S
C616 O601 1.266 . S
C616 O602 1.236 . S
C617 C620 1.344 . S
C617 C621 1.328 . S
C617 C623 1.516 . S
C618 C619 1.304 . S
C618 C622 1.323 . S
C619 C618 1.304 . S
C619 C620 1.371 . S
C619 H628 0.930 . S
C620 C617 1.344 . S
C620 C619 1.371 . S
C620 H629 0.931 . S
C621 C617 1.328 . S
C621 C622 1.433 . S
C621 H630 0.931 . S
C622 C618 1.323 . S
C622 C621 1.433 . S
C622 H631 0.933 . S
C623 Dy593 2.738 . S
C623 O603 1.255 . S
C623 O604 1.249 . S
C623 C617 1.516 . S
H624 C610 0.930 . S
H625 C611 0.931 . S
H626 C612 0.931 . S
H627 C613 0.933 . S
H628 C619 0.930 . S
H629 C620 0.931 . S
H630 C621 0.931 . S
H631 C622 0.933 . S
Dy632 O635 2.307 1_554 S
Dy632 O637 2.395 . S
Dy632 O638 2.379 . S
Dy632 O640 2.339 . S
Dy632 O642 2.298 . S
Dy632 O646 2.275 . S
Dy632 C654 2.738 . S
Dy633 O636 2.298 1_554 S
Dy633 O639 2.275 . S
Dy633 O641 2.307 . S
Dy633 O643 2.395 . S
Dy633 O644 2.379 . S
Dy633 O647 2.339 . S
Dy633 C663 2.738 . S
C634 O646 1.254 . S
C634 O647 1.257 . S
O635 Dy632 2.307 1_556 S
O635 C645 1.266 . S
O636 Dy633 2.298 1_556 S
O636 C645 1.236 . S
O637 Dy632 2.395 . S
O637 C654 1.255 . S
O638 Dy632 2.379 . S
O638 C654 1.249 . S
O639 Dy633 2.275 . S
O639 C655 1.254 . S
O640 Dy632 2.339 . S
O640 C655 1.257 . S
O641 Dy633 2.307 . S
O641 C656 1.266 . S
O642 Dy632 2.298 . S
O642 C656 1.236 . S
O643 Dy633 2.395 . S
O643 C663 1.255 . S
O644 Dy633 2.379 . S
O644 C663 1.249 . S
C645 O635 1.266 . S
C645 O636 1.236 . S
O646 Dy632 2.275 . S
O646 C634 1.254 . S
O647 Dy633 2.339 . S
O647 C634 1.257 . S
C648 C651 1.344 . S
C648 C652 1.328 . S
C648 C654 1.516 . S
C649 C650 1.304 . S
C649 C653 1.323 . S
C650 C649 1.304 . S
C650 C651 1.371 . S
C650 H664 0.930 . S
C651 C648 1.344 . S
C651 C650 1.371 . S
C651 H665 0.931 . S
C652 C648 1.328 . S
C652 C653 1.433 . S
C652 H666 0.931 . S
C653 C649 1.323 . S
C653 C652 1.433 . S
C653 H667 0.933 . S
C654 Dy632 2.738 . S
C654 O637 1.255 . S
C654 O638 1.249 . S
C654 C648 1.516 . S
C655 O639 1.254 . S
C655 O640 1.257 . S
C656 O641 1.266 . S
C656 O642 1.236 . S
C657 C660 1.344 . S
C657 C661 1.328 . S
C657 C663 1.516 1_556 S
C658 C659 1.304 . S
C658 C662 1.323 . S
C659 C658 1.304 . S
C659 C660 1.371 . S
C659 H668 0.930 . S
C660 C657 1.344 . S
C660 C659 1.371 . S
C660 H669 0.931 . S
C661 C657 1.328 . S
C661 C662 1.433 . S
C661 H670 0.931 1_556 S
C662 C658 1.323 . S
C662 C661 1.433 . S
C662 H671 0.933 . S
C663 Dy633 2.738 . S
C663 O643 1.255 . S
C663 O644 1.249 . S
C663 C657 1.516 1_554 S
H664 C650 0.930 . S
H665 C651 0.931 . S
H666 C652 0.931 . S
H667 C653 0.933 . S
H668 C659 0.930 . S
H669 C660 0.931 . S
H670 C661 0.931 1_554 S
H671 C662 0.933 . S
Dy672 O675 2.307 . S
Dy672 O677 2.395 . S
Dy672 O678 2.379 . S
Dy672 O680 2.339 . S
Dy672 O682 2.298 . S
Dy672 O686 2.275 . S
Dy672 C694 2.738 . S
Dy673 O676 2.298 . S
Dy673 O679 2.275 . S
Dy673 O681 2.307 . S
Dy673 O683 2.395 . S
Dy673 O684 2.379 . S
Dy673 O687 2.339 . S
Dy673 C703 2.738 . S
C674 O686 1.254 . S
C674 O687 1.257 . S
O675 Dy672 2.307 . S
O675 C685 1.266 . S
O676 Dy673 2.298 . S
O676 C685 1.236 . S
O677 Dy672 2.395 . S
O677 C694 1.255 . S
O678 Dy672 2.379 . S
O678 C694 1.249 . S
O679 Dy673 2.275 . S
O679 C695 1.254 . S
O680 Dy672 2.339 . S
O680 C695 1.257 . S
O681 Dy673 2.307 . S
O681 C696 1.266 . S
O682 Dy672 2.298 . S
O682 C696 1.236 . S
O683 Dy673 2.395 . S
O683 C703 1.255 . S
O684 Dy673 2.379 . S
O684 C703 1.249 . S
C685 O675 1.266 . S
C685 O676 1.236 . S
O686 Dy672 2.275 . S
O686 C674 1.254 . S
O687 Dy673 2.339 . S
O687 C674 1.257 . S
C688 C691 1.344 . S
C688 C692 1.328 . S
C688 C694 1.516 . S
C689 C690 1.304 . S
C689 C693 1.323 . S
C690 C689 1.304 . S
C690 C691 1.371 . S
C690 H704 0.930 . S
C691 C688 1.344 . S
C691 C690 1.371 . S
C691 H705 0.931 . S
C692 C688 1.328 . S
C692 C693 1.433 . S
C692 H706 0.931 . S
C693 C689 1.323 . S
C693 C692 1.433 . S
C693 H707 0.933 . S
C694 Dy672 2.738 . S
C694 O677 1.255 . S
C694 O678 1.249 . S
C694 C688 1.516 . S
C695 O679 1.254 . S
C695 O680 1.257 . S
C696 O681 1.266 . S
C696 O682 1.236 . S
C697 C700 1.344 . S
C697 C701 1.328 . S
C697 C703 1.516 . S
C698 C699 1.304 . S
C698 C702 1.323 . S
C699 C698 1.304 . S
C699 C700 1.371 . S
C699 H708 0.930 . S
C700 C697 1.344 . S
C700 C699 1.371 . S
C700 H709 0.931 . S
C701 C697 1.328 . S
C701 C702 1.433 . S
C701 H710 0.931 . S
C702 C698 1.323 . S
C702 C701 1.433 . S
C702 H711 0.933 . S
C703 Dy673 2.738 . S
C703 O683 1.255 . S
C703 O684 1.249 . S
C703 C697 1.516 . S
H704 C690 0.930 . S
H705 C691 0.931 . S
H706 C692 0.931 . S
H707 C693 0.933 . S
H708 C699 0.930 . S
H709 C700 0.931 . S
H710 C701 0.931 . S
H711 C702 0.933 . S
Dy712 O715 2.307 1_455 S
Dy712 O717 2.395 . S
Dy712 O718 2.379 . S
Dy712 O720 2.339 . S
Dy712 O722 2.298 . S
Dy712 O726 2.275 . S
Dy712 C734 2.738 . S
Dy713 O716 2.298 1_455 S
Dy713 O719 2.275 . S
Dy713 O721 2.307 . S
Dy713 O723 2.394 . S
Dy713 O724 2.379 . S
Dy713 O727 2.339 . S
Dy713 C743 2.738 1_455 S
C714 O726 1.254 . S
C714 O727 1.257 . S
O715 Dy712 2.307 1_655 S
O715 C725 1.266 . S
O716 Dy713 2.298 1_655 S
O716 C725 1.236 . S
O717 Dy712 2.395 . S
O717 C734 1.255 . S
O718 Dy712 2.379 . S
O718 C734 1.249 . S
O719 Dy713 2.275 . S
O719 C735 1.254 . S
O720 Dy712 2.339 . S
O720 C735 1.257 . S
O721 Dy713 2.307 . S
O721 C736 1.266 . S
O722 Dy712 2.298 . S
O722 C736 1.236 . S
O723 Dy713 2.394 . S
O723 C743 1.255 1_455 S
O724 Dy713 2.379 . S
O724 C743 1.249 1_455 S
C725 O715 1.266 . S
C725 O716 1.236 . S
O726 Dy712 2.275 . S
O726 C714 1.254 . S
O727 Dy713 2.339 . S
O727 C714 1.257 . S
C728 C731 1.344 . S
C728 C732 1.328 . S
C728 C734 1.516 . S
C729 C730 1.304 . S
C729 C733 1.323 . S
C730 C729 1.304 . S
C730 C731 1.371 . S
C730 H744 0.930 . S
C731 C728 1.344 . S
C731 C730 1.371 . S
C731 H745 0.931 . S
C732 C728 1.328 . S
C732 C733 1.433 . S
C732 H746 0.931 . S
C733 C729 1.323 . S
C733 C732 1.433 . S
C733 H747 0.933 . S
C734 Dy712 2.738 . S
C734 O717 1.255 . S
C734 O718 1.249 . S
C734 C728 1.516 . S
C735 O719 1.254 . S
C735 O720 1.257 . S
C736 O721 1.266 . S
C736 O722 1.236 . S
C737 C740 1.344 . S
C737 C741 1.328 . S
C737 C743 1.516 . S
C738 C739 1.304 . S
C738 C742 1.323 . S
C739 C738 1.304 . S
C739 C740 1.371 . S
C739 H748 0.930 . S
C740 C737 1.344 . S
C740 C739 1.371 . S
C740 H749 0.931 . S
C741 C737 1.328 . S
C741 C742 1.433 . S
C741 H750 0.931 . S
C742 C738 1.323 . S
C742 C741 1.433 . S
C742 H751 0.933 . S
C743 Dy713 2.738 1_655 S
C743 O723 1.255 1_655 S
C743 O724 1.249 1_655 S
C743 C737 1.516 . S
H744 C730 0.930 . S
H745 C731 0.931 . S
H746 C732 0.931 . S
H747 C733 0.933 . S
H748 C739 0.930 . S
H749 C740 0.931 . S
H750 C741 0.931 . S
H751 C742 0.933 . S
Dy752 O755 2.307 . S
Dy752 O757 2.395 . S
Dy752 O758 2.379 . S
Dy752 O760 2.339 . S
Dy752 O762 2.298 . S
Dy752 O766 2.275 . S
Dy752 C774 2.738 . S
Dy753 O756 2.298 . S
Dy753 O759 2.275 . S
Dy753 O761 2.307 . S
Dy753 O763 2.395 . S
Dy753 O764 2.379 . S
Dy753 O767 2.339 . S
Dy753 C783 2.738 . S
C754 O766 1.254 . S
C754 O767 1.257 . S
O755 Dy752 2.307 . S
O755 C765 1.266 . S
O756 Dy753 2.298 . S
O756 C765 1.236 . S
O757 Dy752 2.395 . S
O757 C774 1.255 . S
O758 Dy752 2.379 . S
O758 C774 1.249 . S
O759 Dy753 2.275 . S
O759 C775 1.254 . S
O760 Dy752 2.339 . S
O760 C775 1.257 . S
O761 Dy753 2.307 . S
O761 C776 1.266 . S
O762 Dy752 2.298 . S
O762 C776 1.236 . S
O763 Dy753 2.395 . S
O763 C783 1.255 . S
O764 Dy753 2.379 . S
O764 C783 1.249 . S
C765 O755 1.266 . S
C765 O756 1.236 . S
O766 Dy752 2.275 . S
O766 C754 1.254 . S
O767 Dy753 2.339 . S
O767 C754 1.257 . S
C768 C771 1.344 . S
C768 C772 1.328 . S
C768 C774 1.516 . S
C769 C770 1.304 . S
C769 C773 1.323 . S
C770 C769 1.304 . S
C770 C771 1.371 . S
C770 H784 0.930 . S
C771 C768 1.344 . S
C771 C770 1.371 . S
C771 H785 0.931 . S
C772 C768 1.328 . S
C772 C773 1.433 . S
C772 H786 0.931 . S
C773 C769 1.323 . S
C773 C772 1.433 . S
C773 H787 0.933 . S
C774 Dy752 2.738 . S
C774 O757 1.255 . S
C774 O758 1.249 . S
C774 C768 1.516 . S
C775 O759 1.254 . S
C775 O760 1.257 . S
C776 O761 1.266 . S
C776 O762 1.236 . S
C777 C780 1.344 . S
C777 C781 1.328 . S
C777 C783 1.516 . S
C778 C779 1.304 . S
C778 C782 1.323 . S
C779 C778 1.304 . S
C779 C780 1.371 . S
C779 H788 0.930 . S
C780 C777 1.344 . S
C780 C779 1.371 . S
C780 H789 0.931 . S
C781 C777 1.328 . S
C781 C782 1.433 . S
C781 H790 0.931 . S
C782 C778 1.323 . S
C782 C781 1.433 . S
C782 H791 0.933 . S
C783 Dy753 2.738 . S
C783 O763 1.255 . S
C783 O764 1.249 . S
C783 C777 1.516 . S
H784 C770 0.930 . S
H785 C771 0.931 . S
H786 C772 0.931 . S
H787 C773 0.933 . S
H788 C779 0.930 . S
H789 C780 0.931 . S
H790 C781 0.931 . S
H791 C782 0.933 . S
Dy792 O795 2.307 . S
Dy792 O797 2.395 . S
Dy792 O798 2.379 . S
Dy792 O800 2.339 . S
Dy792 O802 2.298 . S
Dy792 O806 2.275 . S
Dy792 C814 2.738 . S
Dy793 O796 2.298 . S
Dy793 O799 2.275 . S
Dy793 O801 2.307 . S
Dy793 O803 2.395 . S
Dy793 O804 2.379 . S
Dy793 O807 2.339 . S
Dy793 C823 2.738 . S
C794 O806 1.254 . S
C794 O807 1.257 . S
O795 Dy792 2.307 . S
O795 C805 1.266 . S
O796 Dy793 2.298 . S
O796 C805 1.236 . S
O797 Dy792 2.395 . S
O797 C814 1.255 . S
O798 Dy792 2.379 . S
O798 C814 1.249 . S
O799 Dy793 2.275 . S
O799 C815 1.254 . S
O800 Dy792 2.339 . S
O800 C815 1.257 . S
O801 Dy793 2.307 . S
O801 C816 1.266 . S
O802 Dy792 2.298 . S
O802 C816 1.236 . S
O803 Dy793 2.395 . S
O803 C823 1.255 . S
O804 Dy793 2.379 . S
O804 C823 1.249 . S
C805 O795 1.266 . S
C805 O796 1.236 . S
O806 Dy792 2.275 . S
O806 C794 1.254 . S
O807 Dy793 2.339 . S
O807 C794 1.257 . S
C808 C811 1.344 . S
C808 C812 1.328 . S
C808 C814 1.516 . S
C809 C810 1.304 . S
C809 C813 1.323 . S
C810 C809 1.304 . S
C810 C811 1.371 . S
C810 H824 0.930 . S
C811 C808 1.344 . S
C811 C810 1.371 . S
C811 H825 0.931 . S
C812 C808 1.328 . S
C812 C813 1.433 . S
C812 H826 0.931 . S
C813 C809 1.323 . S
C813 C812 1.433 . S
C813 H827 0.933 . S
C814 Dy792 2.738 . S
C814 O797 1.255 . S
C814 O798 1.249 . S
C814 C808 1.516 . S
C815 O799 1.254 . S
C815 O800 1.257 . S
C816 O801 1.266 . S
C816 O802 1.236 . S
C817 C820 1.344 . S
C817 C821 1.328 . S
C817 C823 1.516 . S
C818 C819 1.304 . S
C818 C822 1.323 . S
C819 C818 1.304 . S
C819 C820 1.371 . S
C819 H828 0.930 . S
C820 C817 1.344 . S
C820 C819 1.371 . S
C820 H829 0.931 . S
C821 C817 1.328 . S
C821 C822 1.433 . S
C821 H830 0.931 . S
C822 C818 1.323 . S
C822 C821 1.433 . S
C822 H831 0.933 1_556 S
C823 Dy793 2.738 . S
C823 O803 1.255 . S
C823 O804 1.249 . S
C823 C817 1.516 . S
H824 C810 0.930 . S
H825 C811 0.931 . S
H826 C812 0.931 . S
H827 C813 0.933 . S
H828 C819 0.930 . S
H829 C820 0.931 . S
H830 C821 0.931 . S
H831 C822 0.933 1_554 S
Dy832 O835 2.307 . S
Dy832 O837 2.395 . S
Dy832 O838 2.379 . S
Dy832 O840 2.339 . S
Dy832 O842 2.298 . S
Dy832 O846 2.275 . S
Dy832 C854 2.738 . S
Dy833 O836 2.298 . S
Dy833 O839 2.275 . S
Dy833 O841 2.307 . S
Dy833 O843 2.395 . S
Dy833 O844 2.379 . S
Dy833 O847 2.339 . S
Dy833 C863 2.738 . S
C834 O846 1.254 . S
C834 O847 1.257 . S
O835 Dy832 2.307 . S
O835 C845 1.266 . S
O836 Dy833 2.298 . S
O836 C845 1.236 . S
O837 Dy832 2.395 . S
O837 C854 1.255 . S
O838 Dy832 2.379 . S
O838 C854 1.249 . S
O839 Dy833 2.275 . S
O839 C855 1.254 . S
O840 Dy832 2.339 . S
O840 C855 1.257 . S
O841 Dy833 2.307 . S
O841 C856 1.266 . S
O842 Dy832 2.298 . S
O842 C856 1.236 . S
O843 Dy833 2.395 . S
O843 C863 1.255 . S
O844 Dy833 2.379 . S
O844 C863 1.249 . S
C845 O835 1.266 . S
C845 O836 1.236 . S
O846 Dy832 2.275 . S
O846 C834 1.254 . S
O847 Dy833 2.339 . S
O847 C834 1.257 . S
C848 C851 1.344 . S
C848 C852 1.328 . S
C848 C854 1.516 . S
C849 C850 1.304 . S
C849 C853 1.323 . S
C850 C849 1.304 . S
C850 C851 1.371 . S
C850 H864 0.930 . S
C851 C848 1.344 . S
C851 C850 1.371 . S
C851 H865 0.931 . S
C852 C848 1.328 . S
C852 C853 1.433 . S
C852 H866 0.931 . S
C853 C849 1.323 . S
C853 C852 1.433 . S
C853 H867 0.933 . S
C854 Dy832 2.738 . S
C854 O837 1.255 . S
C854 O838 1.249 . S
C854 C848 1.516 . S
C855 O839 1.254 . S
C855 O840 1.257 . S
C856 O841 1.266 . S
C856 O842 1.236 . S
C857 C860 1.344 . S
C857 C861 1.328 . S
C857 C863 1.516 . S
C858 C859 1.304 . S
C858 C862 1.323 . S
C859 C858 1.304 . S
C859 C860 1.371 . S
C859 H868 0.930 . S
C860 C857 1.344 . S
C860 C859 1.371 . S
C860 H869 0.931 . S
C861 C857 1.328 . S
C861 C862 1.433 . S
C861 H870 0.931 . S
C862 C858 1.323 . S
C862 C861 1.433 . S
C862 H871 0.933 . S
C863 Dy833 2.738 . S
C863 O843 1.255 . S
C863 O844 1.249 . S
C863 C857 1.516 . S
H864 C850 0.930 . S
H865 C851 0.931 . S
H866 C852 0.931 . S
H867 C853 0.933 . S
H868 C859 0.930 . S
H869 C860 0.931 . S
H870 C861 0.931 . S
H871 C862 0.933 . S
Dy872 O875 2.307 . S
Dy872 O877 2.395 . S
Dy872 O878 2.379 . S
Dy872 O880 2.339 . S
Dy872 O882 2.298 . S
Dy872 O886 2.275 . S
Dy872 C894 2.738 . S
Dy873 O876 2.298 . S
Dy873 O879 2.275 . S
Dy873 O881 2.307 . S
Dy873 O883 2.395 . S
Dy873 O884 2.379 . S
Dy873 O887 2.339 . S
Dy873 C903 2.738 . S
C874 O886 1.254 . S
C874 O887 1.257 . S
O875 Dy872 2.307 . S
O875 C885 1.266 . S
O876 Dy873 2.298 . S
O876 C885 1.236 . S
O877 Dy872 2.395 . S
O877 C894 1.255 . S
O878 Dy872 2.379 . S
O878 C894 1.249 . S
O879 Dy873 2.275 . S
O879 C895 1.254 . S
O880 Dy872 2.339 . S
O880 C895 1.257 . S
O881 Dy873 2.307 . S
O881 C896 1.266 . S
O882 Dy872 2.298 . S
O882 C896 1.236 . S
O883 Dy873 2.395 . S
O883 C903 1.255 . S
O884 Dy873 2.379 . S
O884 C903 1.249 . S
C885 O875 1.266 . S
C885 O876 1.236 . S
O886 Dy872 2.275 . S
O886 C874 1.254 . S
O887 Dy873 2.339 . S
O887 C874 1.257 . S
C888 C891 1.344 . S
C888 C892 1.328 . S
C888 C894 1.516 . S
C889 C890 1.304 . S
C889 C893 1.323 . S
C890 C889 1.304 . S
C890 C891 1.371 . S
C890 H904 0.930 . S
C891 C888 1.344 . S
C891 C890 1.371 . S
C891 H905 0.931 . S
C892 C888 1.328 . S
C892 C893 1.433 . S
C892 H906 0.931 . S
C893 C889 1.323 . S
C893 C892 1.433 . S
C893 H907 0.933 . S
C894 Dy872 2.738 . S
C894 O877 1.255 . S
C894 O878 1.249 . S
C894 C888 1.516 . S
C895 O879 1.254 . S
C895 O880 1.257 . S
C896 O881 1.266 . S
C896 O882 1.236 . S
C897 C900 1.344 . S
C897 C901 1.328 . S
C897 C903 1.516 . S
C898 C899 1.304 . S
C898 C902 1.323 . S
C899 C898 1.304 . S
C899 C900 1.371 . S
C899 H908 0.930 . S
C900 C897 1.344 . S
C900 C899 1.371 . S
C900 H909 0.931 . S
C901 C897 1.328 . S
C901 C902 1.433 . S
C901 H910 0.931 . S
C902 C898 1.323 . S
C902 C901 1.433 . S
C902 H911 0.933 . S
C903 Dy873 2.738 . S
C903 O883 1.255 . S
C903 O884 1.249 . S
C903 C897 1.516 . S
H904 C890 0.930 . S
H905 C891 0.931 . S
H906 C892 0.931 . S
H907 C893 0.933 . S
H908 C899 0.930 . S
H909 C900 0.931 . S
H910 C901 0.931 . S
H911 C902 0.933 . S
Dy912 O915 2.307 1_655 S
Dy912 O917 2.395 . S
Dy912 O918 2.379 . S
Dy912 O920 2.339 1_655 S
Dy912 O922 2.298 1_655 S
Dy912 O926 2.275 1_655 S
Dy912 C934 2.738 . S
Dy913 O916 2.298 . S
Dy913 O919 2.275 . S
Dy913 O921 2.307 . S
Dy913 O923 2.395 . S
Dy913 O924 2.379 . S
Dy913 O927 2.339 1_554 S
Dy913 C943 2.738 . S
C914 O926 1.254 . S
C914 O927 1.257 1_554 S
O915 Dy912 2.307 1_455 S
O915 C925 1.266 . S
O916 Dy913 2.298 . S
O916 C925 1.236 . S
O917 Dy912 2.395 . S
O917 C934 1.255 . S
O918 Dy912 2.379 . S
O918 C934 1.249 . S
O919 Dy913 2.275 . S
O919 C935 1.254 . S
O920 Dy912 2.339 1_455 S
O920 C935 1.257 . S
O921 Dy913 2.307 . S
O921 C936 1.266 . S
O922 Dy912 2.298 1_455 S
O922 C936 1.236 . S
O923 Dy913 2.395 . S
O923 C943 1.255 . S
O924 Dy913 2.379 . S
O924 C943 1.249 . S
C925 O915 1.266 . S
C925 O916 1.236 . S
O926 Dy912 2.275 1_455 S
O926 C914 1.254 . S
O927 Dy913 2.339 1_556 S
O927 C914 1.257 1_556 S
C928 C931 1.344 . S
C928 C932 1.328 . S
C928 C934 1.516 . S
C929 C930 1.304 . S
C929 C933 1.323 . S
C930 C929 1.304 . S
C930 C931 1.371 . S
C930 H944 0.930 . S
C931 C928 1.344 . S
C931 C930 1.371 . S
C931 H945 0.931 . S
C932 C928 1.328 . S
C932 C933 1.433 . S
C932 H946 0.931 . S
C933 C929 1.323 . S
C933 C932 1.433 . S
C933 H947 0.933 . S
C934 Dy912 2.738 . S
C934 O917 1.255 . S
C934 O918 1.249 . S
C934 C928 1.516 . S
C935 O919 1.254 . S
C935 O920 1.257 . S
C936 O921 1.266 . S
C936 O922 1.236 . S
C937 C940 1.344 . S
C937 C941 1.328 . S
C937 C943 1.516 . S
C938 C939 1.304 . S
C938 C942 1.323 1_554 S
C939 C938 1.304 . S
C939 C940 1.371 . S
C939 H948 0.930 . S
C940 C937 1.344 . S
C940 C939 1.371 . S
C940 H949 0.931 . S
C941 C937 1.328 . S
C941 C942 1.433 1_554 S
C941 H950 0.931 1_554 S
C942 C938 1.323 1_556 S
C942 C941 1.433 1_556 S
C942 H951 0.933 . S
C943 Dy913 2.738 . S
C943 O923 1.255 . S
C943 O924 1.249 . S
C943 C937 1.516 . S
H944 C930 0.930 . S
H945 C931 0.931 . S
H946 C932 0.931 . S
H947 C933 0.933 . S
H948 C939 0.930 . S
H949 C940 0.931 . S
H950 C941 0.931 1_556 S
H951 C942 0.933 . S
C952 C953 1.369 . S
C952 C954 1.419 . S
C952 H956 0.930 1_454 S
C953 C952 1.369 . S
C953 C962 1.429 . S
C954 C952 1.419 . S
C954 C955 1.363 . S
C954 H957 0.929 . S
C955 C954 1.363 . S
C955 C961 1.428 . S
H956 C952 0.930 1_656 S
H957 C954 0.929 . S
S958 N959 1.613 . S
S958 N960 1.610 . S
N959 S958 1.613 . S
N959 C962 1.350 . S
N960 S958 1.610 . S
N960 C961 1.351 . S
C961 C955 1.428 . S
C961 N960 1.351 . S
C961 C962 1.434 . S
C962 C953 1.429 . S
C962 N959 1.350 . S
C962 C961 1.434 . S
C963 C964 1.369 . S
C963 C965 1.419 . S
C963 H967 0.930 . S
C964 C963 1.369 . S
C964 C973 1.429 . S
C965 C963 1.419 . S
C965 C966 1.363 . S
C965 H968 0.929 . S
C966 C965 1.363 . S
C966 C972 1.428 . S
H967 C963 0.930 . S
H968 C965 0.929 . S
S969 N970 1.613 . S
S969 N971 1.610 . S
N970 S969 1.613 . S
N970 C973 1.350 . S
N971 S969 1.610 . S
N971 C972 1.351 . S
C972 C966 1.428 . S
C972 N971 1.351 . S
C972 C973 1.434 . S
C973 C964 1.429 . S
C973 N970 1.350 . S
C973 C972 1.434 . S
C974 C975 1.369 . S
C974 C976 1.419 . S
C974 H978 0.930 . S
C975 C974 1.369 . S
C975 C984 1.429 . S
C976 C974 1.419 . S
C976 C977 1.363 . S
C976 H979 0.929 . S
C977 C976 1.363 . S
C977 C983 1.428 . S
H978 C974 0.930 . S
H979 C976 0.929 . S
S980 N981 1.613 . S
S980 N982 1.610 . S
N981 S980 1.613 . S
N981 C984 1.350 . S
N982 S980 1.610 . S
N982 C983 1.351 . S
C983 C977 1.428 . S
C983 N982 1.351 . S
C983 C984 1.434 . S
C984 C975 1.429 . S
C984 N981 1.350 . S
C984 C983 1.434 . S
C985 C986 1.369 . S
C985 C987 1.419 . S
C985 H989 0.930 . S
C986 C985 1.369 . S
C986 C995 1.429 . S
C987 C985 1.419 . S
C987 C988 1.363 . S
C987 H990 0.929 . S
C988 C987 1.363 . S
C988 C994 1.428 . S
H989 C985 0.930 . S
H990 C987 0.929 . S
S991 N992 1.613 . S
S991 N993 1.610 . S
N992 S991 1.613 . S
N992 C995 1.350 . S
N993 S991 1.610 . S
N993 C994 1.351 . S
C994 C988 1.428 . S
C994 N993 1.351 . S
C994 C995 1.434 . S
C995 C986 1.429 . S
C995 N992 1.350 . S
C995 C994 1.434 . S
C996 C997 1.369 . S
C996 C998 1.419 . S
C996 H1000 0.930 . S
C997 C996 1.369 . S
C997 C1006 1.429 . S
C998 C996 1.419 . S
C998 C999 1.363 . S
C998 H1001 0.929 . S
C999 C998 1.363 . S
C999 C1005 1.428 . S
H1000 C996 0.930 . S
H1001 C998 0.929 . S
S1002 N1003 1.613 . S
S1002 N1004 1.610 . S
N1003 S1002 1.613 . S
N1003 C1006 1.350 . S
N1004 S1002 1.610 . S
N1004 C1005 1.351 . S
C1005 C999 1.428 . S
C1005 N1004 1.351 . S
C1005 C1006 1.434 . S
C1006 C997 1.429 . S
C1006 N1003 1.350 . S
C1006 C1005 1.434 . S
C1007 C1008 1.369 . S
C1007 C1009 1.419 . S
C1007 H1011 0.930 . S
C1008 C1007 1.369 . S
C1008 C1017 1.429 . S
C1009 C1007 1.419 . S
C1009 C1010 1.363 . S
C1009 H1012 0.929 . S
C1010 C1009 1.363 . S
C1010 C1016 1.428 . S
H1011 C1007 0.930 . S
H1012 C1009 0.929 . S
S1013 N1014 1.613 . S
S1013 N1015 1.610 . S
N1014 S1013 1.613 . S
N1014 C1017 1.350 . S
N1015 S1013 1.610 . S
N1015 C1016 1.351 . S
C1016 C1010 1.428 . S
C1016 N1015 1.351 . S
C1016 C1017 1.434 . S
C1017 C1008 1.429 . S
C1017 N1014 1.350 . S
C1017 C1016 1.434 . S
C1018 C1019 1.369 . S
C1018 C1020 1.419 . S
C1018 H1022 0.930 . S
C1019 C1018 1.369 . S
C1019 C1028 1.429 . S
C1020 C1018 1.419 . S
C1020 C1021 1.363 . S
C1020 H1023 0.929 . S
C1021 C1020 1.363 . S
C1021 C1027 1.428 . S
H1022 C1018 0.930 . S
H1023 C1020 0.929 . S
S1024 N1025 1.613 . S
S1024 N1026 1.610 . S
N1025 S1024 1.613 . S
N1025 C1028 1.350 . S
N1026 S1024 1.610 . S
N1026 C1027 1.351 . S
C1027 C1021 1.428 . S
C1027 N1026 1.351 . S
C1027 C1028 1.434 . S
C1028 C1019 1.429 . S
C1028 N1025 1.350 . S
C1028 C1027 1.434 . S
C1029 C1030 1.369 . S
C1029 C1031 1.419 . S
C1029 H1033 0.930 . S
C1030 C1029 1.369 . S
C1030 C1039 1.429 . S
C1031 C1029 1.419 . S
C1031 C1032 1.363 . S
C1031 H1034 0.929 . S
C1032 C1031 1.363 . S
C1032 C1038 1.428 . S
H1033 C1029 0.930 . S
H1034 C1031 0.929 . S
S1035 N1036 1.613 . S
S1035 N1037 1.610 . S
N1036 S1035 1.613 . S
N1036 C1039 1.350 . S
N1037 S1035 1.610 . S
N1037 C1038 1.351 . S
C1038 C1032 1.428 . S
C1038 N1037 1.351 . S
C1038 C1039 1.434 . S
C1039 C1030 1.429 . S
C1039 N1036 1.350 . S
C1039 C1038 1.434 . S
C1040 C1041 1.369 . S
C1040 C1042 1.419 . S
C1040 H1044 0.930 . S
C1041 C1040 1.369 . S
C1041 C1050 1.429 1_655 S
C1042 C1040 1.419 . S
C1042 C1043 1.363 1_655 S
C1042 H1045 0.929 . S
C1043 C1042 1.363 1_455 S
C1043 C1049 1.428 . S
H1044 C1040 0.930 . S
H1045 C1042 0.929 . S
S1046 N1047 1.613 . S
S1046 N1048 1.610 . S
N1047 S1046 1.613 . S
N1047 C1050 1.350 . S
N1048 S1046 1.610 . S
N1048 C1049 1.351 . S
C1049 C1043 1.428 . S
C1049 N1048 1.351 . S
C1049 C1050 1.434 . S
C1050 C1041 1.429 1_455 S
C1050 N1047 1.350 . S
C1050 C1049 1.434 . S
C1051 C1052 1.369 . S
C1051 C1053 1.419 . S
C1051 H1055 0.930 . S
C1052 C1051 1.369 . S
C1052 C1061 1.429 . S
C1053 C1051 1.419 . S
C1053 C1054 1.363 . S
C1053 H1056 0.929 . S
C1054 C1053 1.363 . S
C1054 C1060 1.428 . S
H1055 C1051 0.930 . S
H1056 C1053 0.929 . S
S1057 N1058 1.613 . S
S1057 N1059 1.610 . S
N1058 S1057 1.613 . S
N1058 C1061 1.350 . S
N1059 S1057 1.610 . S
N1059 C1060 1.351 . S
C1060 C1054 1.428 . S
C1060 N1059 1.351 . S
C1060 C1061 1.434 . S
C1061 C1052 1.429 . S
C1061 N1058 1.350 . S
C1061 C1060 1.434 . S
C1062 C1063 1.369 . S
C1062 C1064 1.419 . S
C1062 H1066 0.930 . S
C1063 C1062 1.369 . S
C1063 C1072 1.429 . S
C1064 C1062 1.419 . S
C1064 C1065 1.363 . S
C1064 H1067 0.929 . S
C1065 C1064 1.363 . S
C1065 C1071 1.428 . S
H1066 C1062 0.930 . S
H1067 C1064 0.929 . S
S1068 N1069 1.613 . S
S1068 N1070 1.610 . S
N1069 S1068 1.613 . S
N1069 C1072 1.350 . S
N1070 S1068 1.610 . S
N1070 C1071 1.351 . S
C1071 C1065 1.428 . S
C1071 N1070 1.351 . S
C1071 C1072 1.434 . S
C1072 C1063 1.429 . S
C1072 N1069 1.350 . S
C1072 C1071 1.434 . S
C1073 C1074 1.369 . S
C1073 C1075 1.419 . S
C1073 H1077 0.930 . S
C1074 C1073 1.369 . S
C1074 C1083 1.429 . S
C1075 C1073 1.419 . S
C1075 C1076 1.363 . S
C1075 H1078 0.929 . S
C1076 C1075 1.363 . S
C1076 C1082 1.428 . S
H1077 C1073 0.930 . S
H1078 C1075 0.929 . S
S1079 N1080 1.613 . S
S1079 N1081 1.610 . S
N1080 S1079 1.613 . S
N1080 C1083 1.350 . S
N1081 S1079 1.610 . S
N1081 C1082 1.351 . S
C1082 C1076 1.428 . S
C1082 N1081 1.351 . S
C1082 C1083 1.434 . S
C1083 C1074 1.429 . S
C1083 N1080 1.350 . S
C1083 C1082 1.434 . S
C1084 C1085 1.369 . S
C1084 C1086 1.411 1_655 S
C1084 H1088 0.930 . S
C1085 C1084 1.369 . S
C1085 C1094 1.429 1_655 S
C1086 C1084 1.411 1_455 S
C1086 C1087 1.376 . S
C1086 H1089 0.924 1_455 S
C1087 C1086 1.376 . S
C1087 C1093 1.428 . S
H1088 C1084 0.930 . S
H1089 C1086 0.924 1_655 S
S1090 N1091 1.613 . S
S1090 N1092 1.610 . S
N1091 S1090 1.613 . S
N1091 C1094 1.350 . S
N1092 S1090 1.610 . S
N1092 C1093 1.351 . S
C1093 C1087 1.428 . S
C1093 N1092 1.351 . S
C1093 C1094 1.434 . S
C1094 C1085 1.429 1_455 S
C1094 N1091 1.350 . S
C1094 C1093 1.434 . S
C1095 C1096 1.369 . S
C1095 C1097 1.419 . S
C1095 H1099 0.930 . S
C1096 C1095 1.369 . S
C1096 C1105 1.429 . S
C1097 C1095 1.419 . S
C1097 C1098 1.363 . S
C1097 H1100 0.929 . S
C1098 C1097 1.363 . S
C1098 C1104 1.428 . S
H1099 C1095 0.930 . S
H1100 C1097 0.929 . S
S1101 N1102 1.613 . S
S1101 N1103 1.610 . S
N1102 S1101 1.613 . S
N1102 C1105 1.350 . S
N1103 S1101 1.610 . S
N1103 C1104 1.351 . S
C1104 C1098 1.428 . S
C1104 N1103 1.351 . S
C1104 C1105 1.434 . S
C1105 C1096 1.429 . S
C1105 N1102 1.350 . S
C1105 C1104 1.434 . S
C1106 C1107 1.369 . S
C1106 C1108 1.419 . S
C1106 H1110 0.930 . S
C1107 C1106 1.369 . S
C1107 C1116 1.429 . S
C1108 C1106 1.419 . S
C1108 C1109 1.363 . S
C1108 H1111 0.929 . S
C1109 C1108 1.363 . S
C1109 C1115 1.428 . S
H1110 C1106 0.930 . S
H1111 C1108 0.929 . S
S1112 N1113 1.613 . S
S1112 N1114 1.610 . S
N1113 S1112 1.613 . S
N1113 C1116 1.350 . S
N1114 S1112 1.610 . S
N1114 C1115 1.351 . S
C1115 C1109 1.428 . S
C1115 N1114 1.351 . S
C1115 C1116 1.434 . S
C1116 C1107 1.429 . S
C1116 N1113 1.350 . S
C1116 C1115 1.434 . S
C1117 C1118 1.369 . S
C1117 C1119 1.419 . S
C1117 H1121 0.930 . S
C1118 C1117 1.369 . S
C1118 C1127 1.429 . S
C1119 C1117 1.419 . S
C1119 C1120 1.363 . S
C1119 H1122 0.929 . S
C1120 C1119 1.363 . S
C1120 C1126 1.428 . S
H1121 C1117 0.930 . S
H1122 C1119 0.929 . S
S1123 N1124 1.613 . S
S1123 N1125 1.610 . S
N1124 S1123 1.613 . S
N1124 C1127 1.350 . S
N1125 S1123 1.610 . S
N1125 C1126 1.351 . S
C1126 C1120 1.428 . S
C1126 N1125 1.351 . S
C1126 C1127 1.434 . S
C1127 C1118 1.429 . S
C1127 N1124 1.350 . S
C1127 C1126 1.434 . S
C1128 C1129 1.369 1_545 S
C1128 C1130 1.419 . S
C1128 H1132 0.930 . S
C1129 C1128 1.369 1_565 S
C1129 C1138 1.429 . S
C1130 C1128 1.419 . S
C1130 C1131 1.363 . S
C1130 H1133 0.929 . S
C1131 C1130 1.363 . S
C1131 C1137 1.428 1_545 S
H1132 C1128 0.930 . S
H1133 C1130 0.929 . S
S1134 N1135 1.613 . S
S1134 N1136 1.610 . S
N1135 S1134 1.613 . S
N1135 C1138 1.350 . S
N1136 S1134 1.610 . S
N1136 C1137 1.351 . S
C1137 C1131 1.428 1_565 S
C1137 N1136 1.351 . S
C1137 C1138 1.434 . S
C1138 C1129 1.429 . S
C1138 N1135 1.350 . S
C1138 C1137 1.434 . S
C1139 C1140 1.369 . S
C1139 C1141 1.419 . S
C1139 H1143 0.930 1_554 S
C1140 C1139 1.369 . S
C1140 C1149 1.429 . S
C1141 C1139 1.419 . S
C1141 C1142 1.363 . S
C1141 H1144 0.929 1_554 S
C1142 C1141 1.363 . S
C1142 C1148 1.428 . S
H1143 C1139 0.930 1_556 S
H1144 C1141 0.929 1_556 S
S1145 N1146 1.613 . S
S1145 N1147 1.610 . S
N1146 S1145 1.613 . S
N1146 C1149 1.350 . S
N1147 S1145 1.610 . S
N1147 C1148 1.351 . S
C1148 C1142 1.428 . S
C1148 N1147 1.351 . S
C1148 C1149 1.434 . S
C1149 C1140 1.429 . S
C1149 N1146 1.350 . S
C1149 C1148 1.434 . S
C1150 C1151 1.369 . S
C1150 C1152 1.419 . S
C1150 H1154 0.930 . S
C1151 C1150 1.369 . S
C1151 C1160 1.429 . S
C1152 C1150 1.419 . S
C1152 C1153 1.363 . S
C1152 H1155 0.929 . S
C1153 C1152 1.363 . S
C1153 C1159 1.428 . S
H1154 C1150 0.930 . S
H1155 C1152 0.929 . S
S1156 N1157 1.613 . S
S1156 N1158 1.610 . S
N1157 S1156 1.613 . S
N1157 C1160 1.350 . S
N1158 S1156 1.610 . S
N1158 C1159 1.351 . S
C1159 C1153 1.428 . S
C1159 N1158 1.351 . S
C1159 C1160 1.434 . S
C1160 C1151 1.429 . S
C1160 N1157 1.350 . S
C1160 C1159 1.434 . S
C1161 C1162 1.369 . S
C1161 C1163 1.419 . S
C1161 H1165 0.930 . S
C1162 C1161 1.369 . S
C1162 C1171 1.429 . S
C1163 C1161 1.419 . S
C1163 C1164 1.363 . S
C1163 H1166 0.929 . S
C1164 C1163 1.363 . S
C1164 C1170 1.428 . S
H1165 C1161 0.930 . S
H1166 C1163 0.929 . S
S1167 N1168 1.613 . S
S1167 N1169 1.610 . S
N1168 S1167 1.613 . S
N1168 C1171 1.350 . S
N1169 S1167 1.610 . S
N1169 C1170 1.351 . S
C1170 C1164 1.428 . S
C1170 N1169 1.351 . S
C1170 C1171 1.434 . S
C1171 C1162 1.429 . S
C1171 N1168 1.350 . S
C1171 C1170 1.434 . S
C1172 C1173 1.369 . S
C1172 C1174 1.419 . S
C1172 H1176 0.930 . S
C1173 C1172 1.369 . S
C1173 C1182 1.429 . S
C1174 C1172 1.419 . S
C1174 C1175 1.363 . S
C1174 H1177 0.929 . S
C1175 C1174 1.363 . S
C1175 C1181 1.428 . S
H1176 C1172 0.930 . S
H1177 C1174 0.929 . S
S1178 N1179 1.613 . S
S1178 N1180 1.610 . S
N1179 S1178 1.613 . S
N1179 C1182 1.350 . S
N1180 S1178 1.610 . S
N1180 C1181 1.351 . S
C1181 C1175 1.428 . S
C1181 N1180 1.351 . S
C1181 C1182 1.434 . S
C1182 C1173 1.429 . S
C1182 N1179 1.350 . S
C1182 C1181 1.434 . S
C1183 C1184 1.369 . S
C1183 C1185 1.419 . S
C1183 H1187 0.930 . S
C1184 C1183 1.369 . S
C1184 C1193 1.429 . S
C1185 C1183 1.419 . S
C1185 C1186 1.363 . S
C1185 H1188 0.929 . S
C1186 C1185 1.363 . S
C1186 C1192 1.428 . S
H1187 C1183 0.930 . S
H1188 C1185 0.929 . S
S1189 N1190 1.613 . S
S1189 N1191 1.610 . S
N1190 S1189 1.613 . S
N1190 C1193 1.350 . S
N1191 S1189 1.610 . S
N1191 C1192 1.351 . S
C1192 C1186 1.428 . S
C1192 N1191 1.351 . S
C1192 C1193 1.434 . S
C1193 C1184 1.429 . S
C1193 N1190 1.350 . S
C1193 C1192 1.434 . S
C1194 C1195 1.369 . S
C1194 C1196 1.419 . S
C1194 H1198 0.930 . S
C1195 C1194 1.369 . S
C1195 C1204 1.429 . S
C1196 C1194 1.419 . S
C1196 C1197 1.363 . S
C1196 H1199 0.929 . S
C1197 C1196 1.363 . S
C1197 C1203 1.428 . S
H1198 C1194 0.930 . S
H1199 C1196 0.929 . S
S1200 N1201 1.613 . S
S1200 N1202 1.610 . S
N1201 S1200 1.613 . S
N1201 C1204 1.350 . S
N1202 S1200 1.610 . S
N1202 C1203 1.351 . S
C1203 C1197 1.428 . S
C1203 N1202 1.351 . S
C1203 C1204 1.434 . S
C1204 C1195 1.429 . S
C1204 N1201 1.350 . S
C1204 C1203 1.434 . S
C1205 C1206 1.369 . S
C1205 C1207 1.419 . S
C1205 H1209 0.930 . S
C1206 C1205 1.369 . S
C1206 C1215 1.429 . S
C1207 C1205 1.419 . S
C1207 C1208 1.363 . S
C1207 H1210 0.929 . S
C1208 C1207 1.363 . S
C1208 C1214 1.428 . S
H1209 C1205 0.930 . S
H1210 C1207 0.929 . S
S1211 N1212 1.613 . S
S1211 N1213 1.610 . S
N1212 S1211 1.613 . S
N1212 C1215 1.350 . S
N1213 S1211 1.610 . S
N1213 C1214 1.351 . S
C1214 C1208 1.428 . S
C1214 N1213 1.351 . S
C1214 C1215 1.434 . S
C1215 C1206 1.429 . S
C1215 N1212 1.350 . S
C1215 C1214 1.434 . S
C1216 C1217 1.369 . S
C1216 C1218 1.419 . S
C1216 H1220 0.930 . S
C1217 C1216 1.369 . S
C1217 C1226 1.429 . S
C1218 C1216 1.419 . S
C1218 C1219 1.363 . S
C1218 H1221 0.929 . S
C1219 C1218 1.363 . S
C1219 C1225 1.428 . S
H1220 C1216 0.930 . S
H1221 C1218 0.929 . S
S1222 N1223 1.613 . S
S1222 N1224 1.610 . S
N1223 S1222 1.613 . S
N1223 C1226 1.350 . S
N1224 S1222 1.610 . S
N1224 C1225 1.351 . S
C1225 C1219 1.428 . S
C1225 N1224 1.351 . S
C1225 C1226 1.434 . S
C1226 C1217 1.429 . S
C1226 N1223 1.350 . S
C1226 C1225 1.434 . S
C1227 C1228 1.369 . S
C1227 C1229 1.419 . S
C1227 H1231 0.930 . S
C1228 C1227 1.369 . S
C1228 C1237 1.429 . S
C1229 C1227 1.419 . S
C1229 C1230 1.363 . S
C1229 H1232 0.929 . S
C1230 C1229 1.363 . S
C1230 C1236 1.428 . S
H1231 C1227 0.930 . S
H1232 C1229 0.929 . S
S1233 N1234 1.613 . S
S1233 N1235 1.610 . S
N1234 S1233 1.613 . S
N1234 C1237 1.350 . S
N1235 S1233 1.610 . S
N1235 C1236 1.351 . S
C1236 C1230 1.428 . S
C1236 N1235 1.351 . S
C1236 C1237 1.434 . S
C1237 C1228 1.429 . S
C1237 N1234 1.350 . S
C1237 C1236 1.434 . S
C1238 C1239 1.369 . S
C1238 C1240 1.419 . S
C1238 H1242 0.930 . S
C1239 C1238 1.369 . S
C1239 C1248 1.429 . S
C1240 C1238 1.419 . S
C1240 C1241 1.363 . S
C1240 H1243 0.929 . S
C1241 C1240 1.363 . S
C1241 C1247 1.428 . S
H1242 C1238 0.930 . S
H1243 C1240 0.929 . S
S1244 N1245 1.613 . S
S1244 N1246 1.610 . S
N1245 S1244 1.613 . S
N1245 C1248 1.350 . S
N1246 S1244 1.610 . S
N1246 C1247 1.351 . S
C1247 C1241 1.428 . S
C1247 N1246 1.351 . S
C1247 C1248 1.434 . S
C1248 C1239 1.429 . S
C1248 N1245 1.350 . S
C1248 C1247 1.434 . S
C1249 C1250 1.369 . S
C1249 C1251 1.419 . S
C1249 H1253 0.930 . S
C1250 C1249 1.369 . S
C1250 C1259 1.429 . S
C1251 C1249 1.419 . S
C1251 C1252 1.363 . S
C1251 H1254 0.929 . S
C1252 C1251 1.363 . S
C1252 C1258 1.428 . S
H1253 C1249 0.930 . S
H1254 C1251 0.929 . S
S1255 N1256 1.613 . S
S1255 N1257 1.610 . S
N1256 S1255 1.613 . S
N1256 C1259 1.350 . S
N1257 S1255 1.610 . S
N1257 C1258 1.351 . S
C1258 C1252 1.428 . S
C1258 N1257 1.351 . S
C1258 C1259 1.434 . S
C1259 C1250 1.429 . S
C1259 N1256 1.350 . S
C1259 C1258 1.434 . S
C1260 C1261 1.369 . S
C1260 C1262 1.419 . S
C1260 H1264 0.930 . S
C1261 C1260 1.369 . S
C1261 C1270 1.429 . S
C1262 C1260 1.419 . S
C1262 C1263 1.363 . S
C1262 H1265 0.929 . S
C1263 C1262 1.363 . S
C1263 C1269 1.429 1_455 S
H1264 C1260 0.930 . S
H1265 C1262 0.929 . S
S1266 N1267 1.613 . S
S1266 N1268 1.610 . S
N1267 S1266 1.613 . S
N1267 C1270 1.350 1_655 S
N1268 S1266 1.610 . S
N1268 C1269 1.350 . S
C1269 C1263 1.429 1_655 S
C1269 N1268 1.350 . S
C1269 C1270 1.434 1_655 S
C1270 C1261 1.429 . S
C1270 N1267 1.350 1_455 S
C1270 C1269 1.434 1_455 S
C1271 C1272 1.369 . S
C1271 C1273 1.419 . S
C1271 H1275 0.930 . S
C1272 C1271 1.369 . S
C1272 C1281 1.429 . S
C1273 C1271 1.419 . S
C1273 C1274 1.363 . S
C1273 H1276 0.929 . S
C1274 C1273 1.363 . S
C1274 C1280 1.428 . S
H1275 C1271 0.930 . S
H1276 C1273 0.929 . S
S1277 N1278 1.613 . S
S1277 N1279 1.610 . S
N1278 S1277 1.613 . S
N1278 C1281 1.350 . S
N1279 S1277 1.610 . S
N1279 C1280 1.351 . S
C1280 C1274 1.428 . S
C1280 N1279 1.351 . S
C1280 C1281 1.434 . S
C1281 C1272 1.429 . S
C1281 N1278 1.350 . S
C1281 C1280 1.434 . S
C1282 C1283 1.369 . S
C1282 C1284 1.419 . S
C1282 H1286 0.930 . S
C1283 C1282 1.369 . S
C1283 C1292 1.429 . S
C1284 C1282 1.419 . S
C1284 C1285 1.363 . S
C1284 H1287 0.929 1_556 S
C1285 C1284 1.363 . S
C1285 C1291 1.428 . S
H1286 C1282 0.930 . S
H1287 C1284 0.929 1_554 S
S1288 N1289 1.613 1_545 S
S1288 N1290 1.610 . S
N1289 S1288 1.613 1_565 S
N1289 C1292 1.350 . S
N1290 S1288 1.610 . S
N1290 C1291 1.351 1_545 S
C1291 C1285 1.428 . S
C1291 N1290 1.351 1_565 S
C1291 C1292 1.434 . S
C1292 C1283 1.429 . S
C1292 N1289 1.350 . S
C1292 C1291 1.434 . S
C1293 C1294 1.369 . S
C1293 C1295 1.419 . S
C1293 H1297 0.930 . S
C1294 C1293 1.369 . S
C1294 C1303 1.429 . S
C1295 C1293 1.419 . S
C1295 C1296 1.363 . S
C1295 H1298 0.929 . S
C1296 C1295 1.363 . S
C1296 C1302 1.428 . S
H1297 C1293 0.930 . S
H1298 C1295 0.929 . S
S1299 N1300 1.613 . S
S1299 N1301 1.610 . S
N1300 S1299 1.613 . S
N1300 C1303 1.350 . S
N1301 S1299 1.610 . S
N1301 C1302 1.351 . S
C1302 C1296 1.428 . S
C1302 N1301 1.351 . S
C1302 C1303 1.434 . S
C1303 C1294 1.429 . S
C1303 N1300 1.350 . S
C1303 C1302 1.434 . S
C1304 C1305 1.369 . S
C1304 C1306 1.419 . S
C1304 H1308 0.930 . S
C1305 C1304 1.369 . S
C1305 C1314 1.429 . S
C1306 C1304 1.419 . S
C1306 C1307 1.363 . S
C1306 H1309 0.929 . S
C1307 C1306 1.363 . S
C1307 C1313 1.428 . S
H1308 C1304 0.930 . S
H1309 C1306 0.929 . S
S1310 N1311 1.613 . S
S1310 N1312 1.610 . S
N1311 S1310 1.613 . S
N1311 C1314 1.350 . S
N1312 S1310 1.610 . S
N1312 C1313 1.351 . S
C1313 C1307 1.428 . S
C1313 N1312 1.351 . S
C1313 C1314 1.434 . S
C1314 C1305 1.429 . S
C1314 N1311 1.350 . S
C1314 C1313 1.434 . S
C1315 C1316 1.369 . S
C1315 C1317 1.419 . S
C1315 H1319 0.930 . S
C1316 C1315 1.369 . S
C1316 C1325 1.429 . S
C1317 C1315 1.419 . S
C1317 C1318 1.363 . S
C1317 H1320 0.929 . S
C1318 C1317 1.363 . S
C1318 C1324 1.428 . S
H1319 C1315 0.930 . S
H1320 C1317 0.929 . S
S1321 N1322 1.613 . S
S1321 N1323 1.610 . S
N1322 S1321 1.613 . S
N1322 C1325 1.350 . S
N1323 S1321 1.610 . S
N1323 C1324 1.351 . S
C1324 C1318 1.428 . S
C1324 N1323 1.351 . S
C1324 C1325 1.434 . S
C1325 C1316 1.429 . S
C1325 N1322 1.350 . S
C1325 C1324 1.434 . S
C1326 C1327 1.369 1_565 S
C1326 C1328 1.419 1_565 S
C1326 H1330 0.930 . S
C1327 C1326 1.369 1_545 S
C1327 C1336 1.429 . S
C1328 C1326 1.419 1_545 S
C1328 C1329 1.363 . S
C1328 H1331 0.929 1_545 S
C1329 C1328 1.363 . S
C1329 C1335 1.428 . S
H1330 C1326 0.930 . S
H1331 C1328 0.929 1_565 S
S1332 N1333 1.613 . S
S1332 N1334 1.610 . S
N1333 S1332 1.613 . S
N1333 C1336 1.350 . S
N1334 S1332 1.610 . S
N1334 C1335 1.351 . S
C1335 C1329 1.428 . S
C1335 N1334 1.351 . S
C1335 C1336 1.434 . S
C1336 C1327 1.429 . S
C1336 N1333 1.350 . S
C1336 C1335 1.434 . S
C1337 C1338 1.369 . S
C1337 C1339 1.419 . S
C1337 H1341 0.930 . S
C1338 C1337 1.369 . S
C1338 C1347 1.429 . S
C1339 C1337 1.419 . S
C1339 C1340 1.363 . S
C1339 H1342 0.929 . S
C1340 C1339 1.363 . S
C1340 C1346 1.428 . S
H1341 C1337 0.930 . S
H1342 C1339 0.929 . S
S1343 N1344 1.613 . S
S1343 N1345 1.610 . S
N1344 S1343 1.613 . S
N1344 C1347 1.350 . S
N1345 S1343 1.610 . S
N1345 C1346 1.351 . S
C1346 C1340 1.428 . S
C1346 N1345 1.351 . S
C1346 C1347 1.434 . S
C1347 C1338 1.429 . S
C1347 N1344 1.350 . S
C1347 C1346 1.434 . S
C1348 C1349 1.369 . S
C1348 C1350 1.419 . S
C1348 H1352 0.930 . S
C1349 C1348 1.369 . S
C1349 C1358 1.429 . S
C1350 C1348 1.419 . S
C1350 C1351 1.363 . S
C1350 H1353 0.929 . S
C1351 C1350 1.363 . S
C1351 C1357 1.428 . S
H1352 C1348 0.930 . S
H1353 C1350 0.929 . S
S1354 N1355 1.613 1_565 S
S1354 N1356 1.610 1_565 S
N1355 S1354 1.613 1_545 S
N1355 C1358 1.350 . S
N1356 S1354 1.610 1_545 S
N1356 C1357 1.351 . S
C1357 C1351 1.428 . S
C1357 N1356 1.351 . S
C1357 C1358 1.434 . S
C1358 C1349 1.429 . S
C1358 N1355 1.350 . S
C1358 C1357 1.434 . S
C1359 C1360 1.369 . S
C1359 C1361 1.419 . S
C1359 H1363 0.930 . S
C1360 C1359 1.369 . S
C1360 C1369 1.429 . S
C1361 C1359 1.419 . S
C1361 C1362 1.363 . S
C1361 H1364 0.929 . S
C1362 C1361 1.363 . S
C1362 C1368 1.428 . S
H1363 C1359 0.930 . S
H1364 C1361 0.929 . S
S1365 N1366 1.613 . S
S1365 N1367 1.610 . S
N1366 S1365 1.613 . S
N1366 C1369 1.350 . S
N1367 S1365 1.610 . S
N1367 C1368 1.351 . S
C1368 C1362 1.428 . S
C1368 N1367 1.351 . S
C1368 C1369 1.434 . S
C1369 C1360 1.429 . S
C1369 N1366 1.350 . S
C1369 C1368 1.434 . S
C1370 C1371 1.369 1_565 S
C1370 C1372 1.419 . S
C1370 H1374 0.930 . S
C1371 C1370 1.369 1_545 S
C1371 C1380 1.429 . S
C1372 C1370 1.419 . S
C1372 C1373 1.363 . S
C1372 H1375 0.929 . S
C1373 C1372 1.363 . S
C1373 C1379 1.428 1_565 S
H1374 C1370 0.930 . S
H1375 C1372 0.929 . S
S1376 N1377 1.613 . S
S1376 N1378 1.610 . S
N1377 S1376 1.613 . S
N1377 C1380 1.350 . S
N1378 S1376 1.610 . S
N1378 C1379 1.351 . S
C1379 C1373 1.428 1_545 S
C1379 N1378 1.351 . S
C1379 C1380 1.434 . S
C1380 C1371 1.429 . S
C1380 N1377 1.350 . S
C1380 C1379 1.434 . S
C1381 C1382 1.369 . S
C1381 C1383 1.419 . S
C1381 H1385 0.930 . S
C1382 C1381 1.369 . S
C1382 C1391 1.429 . S
C1383 C1381 1.419 . S
C1383 C1384 1.363 . S
C1383 H1386 0.929 . S
C1384 C1383 1.363 . S
C1384 C1390 1.428 . S
H1385 C1381 0.930 . S
H1386 C1383 0.929 . S
S1387 N1388 1.613 . S
S1387 N1389 1.610 . S
N1388 S1387 1.613 . S
N1388 C1391 1.350 . S
N1389 S1387 1.610 . S
N1389 C1390 1.351 . S
C1390 C1384 1.428 . S
C1390 N1389 1.351 . S
C1390 C1391 1.434 . S
C1391 C1382 1.429 . S
C1391 N1388 1.350 . S
C1391 C1390 1.434 . S
C1392 C1393 1.369 . S
C1392 C1394 1.419 . S
C1392 H1396 0.930 . S
C1393 C1392 1.369 . S
C1393 C1402 1.429 . S
C1394 C1392 1.419 . S
C1394 C1395 1.363 . S
C1394 H1397 0.929 . S
C1395 C1394 1.363 . S
C1395 C1401 1.428 . S
H1396 C1392 0.930 . S
H1397 C1394 0.929 . S
S1398 N1399 1.613 . S
S1398 N1400 1.610 . S
N1399 S1398 1.613 . S
N1399 C1402 1.350 . S
N1400 S1398 1.610 . S
N1400 C1401 1.351 . S
C1401 C1395 1.428 . S
C1401 N1400 1.351 . S
C1401 C1402 1.434 . S
C1402 C1393 1.429 . S
C1402 N1399 1.350 . S
C1402 C1401 1.434 . S
C1403 C1404 1.369 . S
C1403 C1405 1.419 . S
C1403 H1407 0.930 . S
C1404 C1403 1.369 . S
C1404 C1413 1.429 . S
C1405 C1403 1.419 . S
C1405 C1406 1.363 . S
C1405 H1408 0.929 . S
C1406 C1405 1.363 . S
C1406 C1412 1.428 . S
H1407 C1403 0.930 . S
H1408 C1405 0.929 . S
S1409 N1410 1.613 . S
S1409 N1411 1.610 . S
N1410 S1409 1.613 . S
N1410 C1413 1.350 . S
N1411 S1409 1.610 . S
N1411 C1412 1.351 . S
C1412 C1406 1.428 . S
C1412 N1411 1.351 . S
C1412 C1413 1.434 . S
C1413 C1404 1.429 . S
C1413 N1410 1.350 . S
C1413 C1412 1.434 . S
C1414 C1415 1.369 . S
C1414 C1416 1.419 . S
C1414 H1418 0.930 . S
C1415 C1414 1.369 . S
C1415 C1424 1.429 . S
C1416 C1414 1.419 . S
C1416 C1417 1.363 . S
C1416 H1419 0.929 . S
C1417 C1416 1.363 . S
C1417 C1423 1.428 . S
H1418 C1414 0.930 . S
H1419 C1416 0.929 . S
S1420 N1421 1.613 . S
S1420 N1422 1.610 . S
N1421 S1420 1.613 . S
N1421 C1424 1.350 . S
N1422 S1420 1.610 . S
N1422 C1423 1.351 . S
C1423 C1417 1.428 . S
C1423 N1422 1.351 . S
C1423 C1424 1.434 . S
C1424 C1415 1.429 . S
C1424 N1421 1.350 . S
C1424 C1423 1.434 . S
C1425 C1426 1.369 . S
C1425 C1427 1.419 . S
C1425 H1429 0.930 . S
C1426 C1425 1.369 . S
C1426 C1435 1.429 . S
C1427 C1425 1.419 . S
C1427 C1428 1.363 . S
C1427 H1430 0.929 . S
C1428 C1427 1.363 . S
C1428 C1434 1.428 . S
H1429 C1425 0.930 . S
H1430 C1427 0.929 . S
S1431 N1432 1.613 . S
S1431 N1433 1.610 . S
N1432 S1431 1.613 . S
N1432 C1435 1.350 . S
N1433 S1431 1.610 . S
N1433 C1434 1.351 . S
C1434 C1428 1.428 . S
C1434 N1433 1.351 . S
C1434 C1435 1.434 . S
C1435 C1426 1.429 . S
C1435 N1432 1.350 . S
C1435 C1434 1.434 . S
C1436 C1437 1.369 . S
C1436 C1438 1.419 . S
C1436 H1440 0.930 . S
C1437 C1436 1.369 . S
C1437 C1446 1.429 . S
C1438 C1436 1.419 . S
C1438 C1439 1.363 . S
C1438 H1441 0.929 . S
C1439 C1438 1.363 . S
C1439 C1445 1.428 . S
H1440 C1436 0.930 . S
H1441 C1438 0.929 . S
S1442 N1443 1.606 1_565 S
S1442 N1444 1.613 . S
N1443 S1442 1.606 1_545 S
N1443 C1446 1.350 . S
N1444 S1442 1.613 . S
N1444 C1445 1.351 1_565 S
C1445 C1439 1.428 . S
C1445 N1444 1.351 1_545 S
C1445 C1446 1.434 . S
C1446 C1437 1.429 . S
C1446 N1443 1.350 . S
C1446 C1445 1.434 . S
C1447 C1448 1.369 . S
C1447 C1449 1.419 . S
C1447 H1451 0.930 . S
C1448 C1447 1.369 . S
C1448 C1457 1.429 . S
C1449 C1447 1.419 . S
C1449 C1450 1.363 . S
C1449 H1452 0.929 . S
C1450 C1449 1.363 . S
C1450 C1456 1.428 . S
H1451 C1447 0.930 . S
H1452 C1449 0.929 . S
S1453 N1454 1.613 . S
S1453 N1455 1.610 . S
N1454 S1453 1.613 . S
N1454 C1457 1.350 . S
N1455 S1453 1.610 . S
N1455 C1456 1.351 . S
C1456 C1450 1.428 . S
C1456 N1455 1.351 . S
C1456 C1457 1.434 . S
C1457 C1448 1.429 . S
C1457 N1454 1.350 . S
C1457 C1456 1.434 . S
C1458 C1459 1.369 . S
C1458 C1460 1.419 . S
C1458 H1462 0.930 . S
C1459 C1458 1.369 . S
C1459 C1468 1.429 . S
C1460 C1458 1.419 . S
C1460 C1461 1.363 . S
C1460 H1463 0.929 . S
C1461 C1460 1.363 . S
C1461 C1467 1.428 . S
H1462 C1458 0.930 . S
H1463 C1460 0.929 . S
S1464 N1465 1.613 . S
S1464 N1466 1.610 . S
N1465 S1464 1.613 . S
N1465 C1468 1.350 . S
N1466 S1464 1.610 . S
N1466 C1467 1.351 . S
C1467 C1461 1.428 . S
C1467 N1466 1.351 . S
C1467 C1468 1.434 . S
C1468 C1459 1.429 . S
C1468 N1465 1.350 . S
C1468 C1467 1.434 . S
C1469 C1470 1.369 . S
C1469 C1471 1.419 . S
C1469 H1473 0.930 . S
C1470 C1469 1.369 . S
C1470 C1479 1.429 . S
C1471 C1469 1.419 . S
C1471 C1472 1.363 . S
C1471 H1474 0.929 . S
C1472 C1471 1.363 . S
C1472 C1478 1.428 . S
H1473 C1469 0.930 . S
H1474 C1471 0.929 . S
S1475 N1476 1.613 . S
S1475 N1477 1.610 . S
N1476 S1475 1.613 . S
N1476 C1479 1.350 . S
N1477 S1475 1.610 . S
N1477 C1478 1.351 . S
C1478 C1472 1.428 . S
C1478 N1477 1.351 . S
C1478 C1479 1.434 . S
C1479 C1470 1.429 . S
C1479 N1476 1.350 . S
C1479 C1478 1.434 . S
C1480 C1481 1.369 . S
C1480 C1482 1.419 . S
C1480 H1484 0.930 . S
C1481 C1480 1.369 . S
C1481 C1490 1.429 . S
C1482 C1480 1.419 . S
C1482 C1483 1.363 . S
C1482 H1485 0.929 . S
C1483 C1482 1.363 . S
C1483 C1489 1.428 . S
H1484 C1480 0.930 . S
H1485 C1482 0.929 . S
S1486 N1487 1.613 . S
S1486 N1488 1.610 . S
N1487 S1486 1.613 . S
N1487 C1490 1.350 . S
N1488 S1486 1.610 . S
N1488 C1489 1.351 . S
C1489 C1483 1.428 . S
C1489 N1488 1.351 . S
C1489 C1490 1.434 . S
C1490 C1481 1.429 . S
C1490 N1487 1.350 . S
C1490 C1489 1.434 . S
C1491 C1492 1.369 . S
C1491 C1493 1.419 . S
C1491 H1495 0.930 . S
C1492 C1491 1.369 . S
C1492 C1501 1.429 . S
C1493 C1491 1.419 . S
C1493 C1494 1.363 . S
C1493 H1496 0.929 . S
C1494 C1493 1.363 . S
C1494 C1500 1.428 . S
H1495 C1491 0.930 . S
H1496 C1493 0.929 . S
S1497 N1498 1.613 . S
S1497 N1499 1.610 . S
N1498 S1497 1.613 . S
N1498 C1501 1.350 . S
N1499 S1497 1.610 . S
N1499 C1500 1.351 . S
C1500 C1494 1.428 . S
C1500 N1499 1.351 . S
C1500 C1501 1.434 . S
C1501 C1492 1.429 . S
C1501 N1498 1.350 . S
C1501 C1500 1.434 . S
C1502 C1503 1.369 . S
C1502 C1504 1.419 . S
C1502 H1506 0.930 1_454 S
C1503 C1502 1.369 . S
C1503 C1512 1.429 . S
C1504 C1502 1.419 . S
C1504 C1505 1.363 . S
C1504 H1507 0.929 1_455 S
C1505 C1504 1.363 . S
C1505 C1511 1.428 . S
H1506 C1502 0.930 1_656 S
H1507 C1504 0.929 1_655 S
S1508 N1509 1.613 . S
S1508 N1510 1.610 . S
N1509 S1508 1.613 . S
N1509 C1512 1.350 . S
N1510 S1508 1.610 . S
N1510 C1511 1.351 . S
C1511 C1505 1.428 . S
C1511 N1510 1.351 . S
C1511 C1512 1.434 . S
C1512 C1503 1.429 . S
C1512 N1509 1.350 . S
C1512 C1511 1.434 . S
C1513 C1514 1.365 1_655 S
C1513 C1515 1.419 . S
C1513 H1517 0.930 . S
C1514 C1513 1.365 1_455 S
C1514 C1523 1.430 . S
C1515 C1513 1.419 . S
C1515 C1516 1.363 . S
C1515 H1518 0.929 . S
C1516 C1515 1.363 . S
C1516 C1522 1.439 . S
H1517 C1513 0.930 . S
H1518 C1515 0.929 . S
S1519 N1520 1.613 . S
S1519 N1521 1.610 . S
N1520 S1519 1.613 . S
N1520 C1523 1.350 . S
N1521 S1519 1.610 . S
N1521 C1522 1.345 1_455 S
C1522 C1516 1.439 . S
C1522 N1521 1.345 1_655 S
C1522 C1523 1.428 1_655 S
C1523 C1514 1.430 . S
C1523 N1520 1.350 . S
C1523 C1522 1.428 1_455 S
C1524 C1525 1.369 . S
C1524 C1526 1.419 . S
C1524 H1528 0.930 . S
C1525 C1524 1.369 . S
C1525 C1534 1.429 . S
C1526 C1524 1.419 . S
C1526 C1527 1.363 . S
C1526 H1529 0.929 . S
C1527 C1526 1.363 . S
C1527 C1533 1.428 . S
H1528 C1524 0.930 . S
H1529 C1526 0.929 . S
S1530 N1531 1.613 . S
S1530 N1532 1.610 . S
N1531 S1530 1.613 . S
N1531 C1534 1.350 . S
N1532 S1530 1.610 . S
N1532 C1533 1.351 . S
C1533 C1527 1.428 . S
C1533 N1532 1.351 . S
C1533 C1534 1.434 . S
C1534 C1525 1.429 . S
C1534 N1531 1.350 . S
C1534 C1533 1.434 . S
C1535 C1536 1.369 . S
C1535 C1537 1.419 . S
C1535 H1539 0.930 . S
C1536 C1535 1.369 . S
C1536 C1545 1.429 . S
C1537 C1535 1.419 . S
C1537 C1538 1.363 . S
C1537 H1540 0.929 . S
C1538 C1537 1.363 . S
C1538 C1544 1.428 . S
H1539 C1535 0.930 . S
H1540 C1537 0.929 . S
S1541 N1542 1.613 . S
S1541 N1543 1.610 . S
N1542 S1541 1.613 . S
N1542 C1545 1.350 . S
N1543 S1541 1.610 . S
N1543 C1544 1.351 . S
C1544 C1538 1.428 . S
C1544 N1543 1.351 . S
C1544 C1545 1.434 . S
C1545 C1536 1.429 . S
C1545 N1542 1.350 . S
C1545 C1544 1.434 . S
C1546 C1547 1.368 1_655 S
C1546 C1548 1.417 1_655 S
C1546 H1550 0.932 . S
C1547 C1546 1.368 1_455 S
C1547 C1556 1.429 . S
C1548 C1546 1.417 1_455 S
C1548 C1549 1.363 . S
C1548 H1551 0.929 1_455 S
C1549 C1548 1.363 . S
C1549 C1555 1.428 . S
H1550 C1546 0.932 . S
H1551 C1548 0.929 1_655 S
S1552 N1553 1.613 . S
S1552 N1554 1.610 . S
N1553 S1552 1.613 . S
N1553 C1556 1.350 . S
N1554 S1552 1.610 . S
N1554 C1555 1.351 . S
C1555 C1549 1.428 . S
C1555 N1554 1.351 . S
C1555 C1556 1.434 . S
C1556 C1547 1.429 . S
C1556 N1553 1.350 . S
C1556 C1555 1.434 . S
C1557 C1558 1.369 . S
C1557 C1559 1.419 . S
C1557 H1561 0.930 . S
C1558 C1557 1.369 . S
C1558 C1567 1.429 . S
C1559 C1557 1.419 . S
C1559 C1560 1.363 . S
C1559 H1562 0.929 . S
C1560 C1559 1.363 . S
C1560 C1566 1.428 . S
H1561 C1557 0.930 . S
H1562 C1559 0.929 . S
S1563 N1564 1.613 . S
S1563 N1565 1.610 . S
N1564 S1563 1.613 . S
N1564 C1567 1.350 . S
N1565 S1563 1.610 . S
N1565 C1566 1.351 . S
C1566 C1560 1.428 . S
C1566 N1565 1.351 . S
C1566 C1567 1.434 . S
C1567 C1558 1.429 . S
C1567 N1564 1.350 . S
C1567 C1566 1.434 . S
C1568 C1569 1.369 . S
C1568 C1570 1.419 . S
C1568 H1572 0.930 . S
C1569 C1568 1.369 . S
C1569 C1578 1.429 . S
C1570 C1568 1.419 . S
C1570 C1571 1.363 . S
C1570 H1573 0.929 . S
C1571 C1570 1.363 . S
C1571 C1577 1.428 . S
H1572 C1568 0.930 . S
H1573 C1570 0.929 . S
S1574 N1575 1.613 . S
S1574 N1576 1.610 . S
N1575 S1574 1.613 . S
N1575 C1578 1.350 . S
N1576 S1574 1.610 . S
N1576 C1577 1.351 . S
C1577 C1571 1.428 . S
C1577 N1576 1.351 . S
C1577 C1578 1.434 . S
C1578 C1569 1.429 . S
C1578 N1575 1.350 . S
C1578 C1577 1.434 . S
C1579 C1580 1.369 1_556 S
C1579 C1581 1.419 . S
C1579 H1583 0.930 . S
C1580 C1579 1.369 1_554 S
C1580 C1589 1.429 . S
C1581 C1579 1.419 . S
C1581 C1582 1.363 1_556 S
C1581 H1584 0.929 . S
C1582 C1581 1.363 1_554 S
C1582 C1588 1.428 . S
H1583 C1579 0.930 . S
H1584 C1581 0.929 . S
S1585 N1586 1.613 . S
S1585 N1587 1.610 . S
N1586 S1585 1.613 . S
N1586 C1589 1.350 . S
N1587 S1585 1.610 . S
N1587 C1588 1.351 . S
C1588 C1582 1.428 . S
C1588 N1587 1.351 . S
C1588 C1589 1.434 . S
C1589 C1580 1.429 . S
C1589 N1586 1.350 . S
C1589 C1588 1.434 . S
C1590 C1591 1.369 . S
C1590 C1592 1.419 . S
C1590 H1594 0.930 . S
C1591 C1590 1.369 . S
C1591 C1600 1.429 . S
C1592 C1590 1.419 . S
C1592 C1593 1.363 . S
C1592 H1595 0.929 . S
C1593 C1592 1.363 . S
C1593 C1599 1.428 . S
H1594 C1590 0.930 . S
H1595 C1592 0.929 . S
S1596 N1597 1.613 . S
S1596 N1598 1.610 . S
N1597 S1596 1.613 . S
N1597 C1600 1.350 . S
N1598 S1596 1.610 . S
N1598 C1599 1.351 . S
C1599 C1593 1.428 . S
C1599 N1598 1.351 . S
C1599 C1600 1.434 . S
C1600 C1591 1.429 . S
C1600 N1597 1.350 . S
C1600 C1599 1.434 . S
C1601 C1602 1.369 . S
C1601 C1603 1.419 . S
C1601 H1605 0.930 . S
C1602 C1601 1.369 . S
C1602 C1611 1.429 . S
C1603 C1601 1.419 . S
C1603 C1604 1.363 . S
C1603 H1606 0.929 . S
C1604 C1603 1.363 . S
C1604 C1610 1.428 . S
H1605 C1601 0.930 . S
H1606 C1603 0.929 . S
S1607 N1608 1.613 . S
S1607 N1609 1.610 . S
N1608 S1607 1.613 . S
N1608 C1611 1.350 . S
N1609 S1607 1.610 . S
N1609 C1610 1.351 . S
C1610 C1604 1.428 . S
C1610 N1609 1.351 . S
C1610 C1611 1.434 . S
C1611 C1602 1.429 . S
C1611 N1608 1.350 . S
C1611 C1610 1.434 . S
C1612 C1613 1.369 . S
C1612 C1614 1.419 . S
C1612 H1616 0.930 . S
C1613 C1612 1.369 . S
C1613 C1622 1.429 . S
C1614 C1612 1.419 . S
C1614 C1615 1.363 . S
C1614 H1617 0.929 . S
C1615 C1614 1.363 . S
C1615 C1621 1.428 . S
H1616 C1612 0.930 . S
H1617 C1614 0.929 . S
S1618 N1619 1.613 . S
S1618 N1620 1.610 . S
N1619 S1618 1.613 . S
N1619 C1622 1.350 . S
N1620 S1618 1.610 . S
N1620 C1621 1.351 . S
C1621 C1615 1.428 . S
C1621 N1620 1.351 . S
C1621 C1622 1.434 . S
C1622 C1613 1.429 . S
C1622 N1619 1.350 . S
C1622 C1621 1.434 . S
C1623 C1624 1.369 . S
C1623 C1625 1.419 . S
C1623 H1627 0.930 . S
C1624 C1623 1.369 . S
C1624 C1633 1.429 . S
C1625 C1623 1.419 . S
C1625 C1626 1.363 . S
C1625 H1628 0.929 . S
C1626 C1625 1.363 . S
C1626 C1632 1.428 . S
H1627 C1623 0.930 . S
H1628 C1625 0.929 . S
S1629 N1630 1.613 . S
S1629 N1631 1.610 . S
N1630 S1629 1.613 . S
N1630 C1633 1.350 . S
N1631 S1629 1.610 . S
N1631 C1632 1.351 . S
C1632 C1626 1.428 . S
C1632 N1631 1.351 . S
C1632 C1633 1.434 . S
C1633 C1624 1.429 . S
C1633 N1630 1.350 . S
C1633 C1632 1.434 . S
C1634 C1635 1.369 . S
C1634 C1636 1.419 . S
C1634 H1638 0.930 . S
C1635 C1634 1.369 . S
C1635 C1644 1.429 . S
C1636 C1634 1.419 . S
C1636 C1637 1.363 . S
C1636 H1639 0.929 . S
C1637 C1636 1.363 . S
C1637 C1643 1.428 . S
H1638 C1634 0.930 . S
H1639 C1636 0.929 . S
S1640 N1641 1.613 . S
S1640 N1642 1.610 . S
N1641 S1640 1.613 . S
N1641 C1644 1.350 . S
N1642 S1640 1.610 . S
N1642 C1643 1.351 . S
C1643 C1637 1.428 . S
C1643 N1642 1.351 . S
C1643 C1644 1.434 . S
C1644 C1635 1.429 . S
C1644 N1641 1.350 . S
C1644 C1643 1.434 . S
C1645 C1646 1.369 . S
C1645 C1647 1.419 . S
C1645 H1649 0.930 . S
C1646 C1645 1.369 . S
C1646 C1655 1.429 . S
C1647 C1645 1.419 . S
C1647 C1648 1.363 . S
C1647 H1650 0.929 . S
C1648 C1647 1.363 . S
C1648 C1654 1.428 . S
H1649 C1645 0.930 . S
H1650 C1647 0.929 . S
S1651 N1652 1.613 . S
S1651 N1653 1.610 . S
N1652 S1651 1.613 . S
N1652 C1655 1.350 . S
N1653 S1651 1.610 . S
N1653 C1654 1.351 . S
C1654 C1648 1.428 . S
C1654 N1653 1.351 . S
C1654 C1655 1.434 . S
C1655 C1646 1.429 . S
C1655 N1652 1.350 . S
C1655 C1654 1.434 . S
C1656 C1657 1.369 . S
C1656 C1658 1.419 . S
C1656 H1660 0.930 . S
C1657 C1656 1.369 . S
C1657 C1666 1.429 . S
C1658 C1656 1.419 . S
C1658 C1659 1.363 . S
C1658 H1661 0.929 . S
C1659 C1658 1.363 . S
C1659 C1665 1.428 . S
H1660 C1656 0.930 . S
H1661 C1658 0.929 . S
S1662 N1663 1.613 . S
S1662 N1664 1.610 . S
N1663 S1662 1.613 . S
N1663 C1666 1.350 . S
N1664 S1662 1.610 . S
N1664 C1665 1.351 . S
C1665 C1659 1.428 . S
C1665 N1664 1.351 . S
C1665 C1666 1.434 . S
C1666 C1657 1.429 . S
C1666 N1663 1.350 . S
C1666 C1665 1.434 . S
C1667 C1668 1.369 . S
C1667 C1669 1.419 . S
C1667 H1671 0.930 . S
C1668 C1667 1.369 . S
C1668 C1677 1.429 . S
C1669 C1667 1.419 . S
C1669 C1670 1.363 . S
C1669 H1672 0.929 . S
C1670 C1669 1.363 . S
C1670 C1676 1.428 . S
H1671 C1667 0.930 . S
H1672 C1669 0.929 . S
S1673 N1674 1.613 . S
S1673 N1675 1.610 . S
N1674 S1673 1.613 . S
N1674 C1677 1.350 . S
N1675 S1673 1.610 . S
N1675 C1676 1.351 . S
C1676 C1670 1.428 . S
C1676 N1675 1.351 . S
C1676 C1677 1.434 . S
C1677 C1668 1.429 . S
C1677 N1674 1.350 . S
C1677 C1676 1.434 . S
C1678 C1679 1.369 . S
C1678 C1680 1.419 . S
C1678 H1682 0.930 . S
C1679 C1678 1.369 . S
C1679 C1688 1.429 1_545 S
C1680 C1678 1.419 . S
C1680 C1681 1.363 1_545 S
C1680 H1683 0.929 . S
C1681 C1680 1.363 1_565 S
C1681 C1687 1.428 . S
H1682 C1678 0.930 . S
H1683 C1680 0.929 . S
S1684 N1685 1.613 . S
S1684 N1686 1.610 . S
N1685 S1684 1.613 . S
N1685 C1688 1.350 . S
N1686 S1684 1.610 . S
N1686 C1687 1.351 . S
C1687 C1681 1.428 . S
C1687 N1686 1.351 . S
C1687 C1688 1.434 . S
C1688 C1679 1.429 1_565 S
C1688 N1685 1.350 . S
C1688 C1687 1.434 . S
C1689 C1690 1.369 1_556 S
C1689 C1691 1.419 1_565 S
C1689 H1693 0.930 . S
C1690 C1689 1.369 1_554 S
C1690 C1699 1.429 . S
C1691 C1689 1.419 1_545 S
C1691 C1692 1.363 1_556 S
C1691 H1694 0.929 . S
C1692 C1691 1.363 1_554 S
C1692 C1698 1.428 . S
H1693 C1689 0.930 . S
H1694 C1691 0.929 . S
S1695 N1696 1.613 . S
S1695 N1697 1.610 1_565 S
N1696 S1695 1.613 . S
N1696 C1699 1.350 . S
N1697 S1695 1.610 1_545 S
N1697 C1698 1.351 . S
C1698 C1692 1.428 . S
C1698 N1697 1.351 . S
C1698 C1699 1.434 1_545 S
C1699 C1690 1.429 . S
C1699 N1696 1.350 . S
C1699 C1698 1.434 1_565 S
C1700 C1701 1.369 . S
C1700 C1702 1.419 . S
C1700 H1704 0.930 . S
C1701 C1700 1.369 . S
C1701 C1710 1.429 . S
C1702 C1700 1.419 . S
C1702 C1703 1.363 . S
C1702 H1705 0.929 . S
C1703 C1702 1.363 . S
C1703 C1709 1.428 . S
H1704 C1700 0.930 . S
H1705 C1702 0.929 . S
S1706 N1707 1.613 . S
S1706 N1708 1.610 . S
N1707 S1706 1.613 . S
N1707 C1710 1.350 . S
N1708 S1706 1.610 . S
N1708 C1709 1.351 . S
C1709 C1703 1.428 . S
C1709 N1708 1.351 . S
C1709 C1710 1.434 . S
C1710 C1701 1.429 . S
C1710 N1707 1.350 . S
C1710 C1709 1.434 . S
C1711 C1712 1.369 . S
C1711 C1713 1.419 . S
C1711 H1715 0.930 . S
C1712 C1711 1.369 . S
C1712 C1721 1.429 . S
C1713 C1711 1.419 . S
C1713 C1714 1.363 . S
C1713 H1716 0.929 . S
C1714 C1713 1.363 . S
C1714 C1720 1.428 . S
H1715 C1711 0.930 . S
H1716 C1713 0.929 . S
S1717 N1718 1.613 . S
S1717 N1719 1.610 . S
N1718 S1717 1.613 . S
N1718 C1721 1.350 . S
N1719 S1717 1.610 . S
N1719 C1720 1.351 . S
C1720 C1714 1.428 . S
C1720 N1719 1.351 . S
C1720 C1721 1.434 . S
C1721 C1712 1.429 . S
C1721 N1718 1.350 . S
C1721 C1720 1.434 . S
C1722 C1723 1.369 . S
C1722 C1724 1.419 . S
C1722 H1726 0.930 . S
C1723 C1722 1.369 . S
C1723 C1732 1.429 . S
C1724 C1722 1.419 . S
C1724 C1725 1.363 . S
C1724 H1727 0.929 . S
C1725 C1724 1.363 . S
C1725 C1731 1.428 . S
H1726 C1722 0.930 . S
H1727 C1724 0.929 . S
S1728 N1729 1.613 . S
S1728 N1730 1.610 . S
N1729 S1728 1.613 . S
N1729 C1732 1.350 . S
N1730 S1728 1.610 . S
N1730 C1731 1.351 . S
C1731 C1725 1.428 . S
C1731 N1730 1.351 . S
C1731 C1732 1.434 . S
C1732 C1723 1.429 . S
C1732 N1729 1.350 . S
C1732 C1731 1.434 . S
C1733 C1734 1.369 . S
C1733 C1735 1.419 . S
C1733 H1737 0.930 . S
C1734 C1733 1.369 . S
C1734 C1743 1.429 . S
C1735 C1733 1.419 . S
C1735 C1736 1.363 . S
C1735 H1738 0.929 . S
C1736 C1735 1.363 . S
C1736 C1742 1.428 . S
H1737 C1733 0.930 . S
H1738 C1735 0.929 . S
S1739 N1740 1.613 . S
S1739 N1741 1.610 . S
N1740 S1739 1.613 . S
N1740 C1743 1.350 . S
N1741 S1739 1.610 . S
N1741 C1742 1.351 . S
C1742 C1736 1.428 . S
C1742 N1741 1.351 . S
C1742 C1743 1.434 . S
C1743 C1734 1.429 . S
C1743 N1740 1.350 . S
C1743 C1742 1.434 . S
C1744 C1745 1.369 . S
C1744 C1746 1.419 . S
C1744 H1748 0.930 . S
C1745 C1744 1.369 . S
C1745 C1754 1.429 . S
C1746 C1744 1.419 . S
C1746 C1747 1.363 . S
C1746 H1749 0.929 . S
C1747 C1746 1.363 . S
C1747 C1753 1.428 . S
H1748 C1744 0.930 . S
H1749 C1746 0.929 . S
S1750 N1751 1.613 . S
S1750 N1752 1.610 . S
N1751 S1750 1.613 . S
N1751 C1754 1.350 . S
N1752 S1750 1.610 . S
N1752 C1753 1.351 . S
C1753 C1747 1.428 . S
C1753 N1752 1.351 . S
C1753 C1754 1.434 . S
C1754 C1745 1.429 . S
C1754 N1751 1.350 . S
C1754 C1753 1.434 . S
C1755 C1756 1.369 . S
C1755 C1757 1.419 . S
C1755 H1759 0.930 . S
C1756 C1755 1.369 . S
C1756 C1765 1.429 . S
C1757 C1755 1.419 . S
C1757 C1758 1.363 . S
C1757 H1760 0.929 . S
C1758 C1757 1.363 . S
C1758 C1764 1.428 . S
H1759 C1755 0.930 . S
H1760 C1757 0.929 . S
S1761 N1762 1.613 . S
S1761 N1763 1.610 . S
N1762 S1761 1.613 . S
N1762 C1765 1.350 . S
N1763 S1761 1.610 . S
N1763 C1764 1.351 . S
C1764 C1758 1.428 . S
C1764 N1763 1.351 . S
C1764 C1765 1.434 . S
C1765 C1756 1.429 . S
C1765 N1762 1.350 . S
C1765 C1764 1.434 . S
C1766 C1767 1.369 . S
C1766 C1768 1.419 . S
C1766 H1770 0.930 . S
C1767 C1766 1.369 . S
C1767 C1776 1.429 . S
C1768 C1766 1.419 . S
C1768 C1769 1.363 . S
C1768 H1771 0.929 . S
C1769 C1768 1.363 . S
C1769 C1775 1.428 . S
H1770 C1766 0.930 . S
H1771 C1768 0.929 . S
S1772 N1773 1.613 . S
S1772 N1774 1.610 . S
N1773 S1772 1.613 . S
N1773 C1776 1.350 . S
N1774 S1772 1.610 . S
N1774 C1775 1.351 . S
C1775 C1769 1.428 . S
C1775 N1774 1.351 . S
C1775 C1776 1.434 . S
C1776 C1767 1.429 . S
C1776 N1773 1.350 . S
C1776 C1775 1.434 . S
C1777 C1778 1.369 . S
C1777 C1779 1.419 . S
C1777 H1781 0.930 . S
C1778 C1777 1.369 . S
C1778 C1787 1.429 . S
C1779 C1777 1.419 . S
C1779 C1780 1.363 . S
C1779 H1782 0.929 . S
C1780 C1779 1.363 . S
C1780 C1786 1.428 . S
H1781 C1777 0.930 . S
H1782 C1779 0.929 . S
S1783 N1784 1.613 . S
S1783 N1785 1.610 . S
N1784 S1783 1.613 . S
N1784 C1787 1.350 . S
N1785 S1783 1.610 . S
N1785 C1786 1.351 . S
C1786 C1780 1.428 . S
C1786 N1785 1.351 . S
C1786 C1787 1.434 . S
C1787 C1778 1.429 . S
C1787 N1784 1.350 . S
C1787 C1786 1.434 . S
C1788 C1789 1.369 . S
C1788 C1790 1.419 . S
C1788 H1792 0.930 . S
C1789 C1788 1.369 . S
C1789 C1798 1.429 . S
C1790 C1788 1.419 . S
C1790 C1791 1.363 . S
C1790 H1793 0.929 . S
C1791 C1790 1.363 . S
C1791 C1797 1.428 . S
H1792 C1788 0.930 . S
H1793 C1790 0.929 . S
S1794 N1795 1.613 . S
S1794 N1796 1.610 . S
N1795 S1794 1.613 . S
N1795 C1798 1.350 . S
N1796 S1794 1.610 . S
N1796 C1797 1.351 . S
C1797 C1791 1.428 . S
C1797 N1796 1.351 . S
C1797 C1798 1.434 . S
C1798 C1789 1.429 . S
C1798 N1795 1.350 . S
C1798 C1797 1.434 . S
C1799 C1800 1.369 . S
C1799 C1801 1.419 . S
C1799 H1803 0.930 . S
C1800 C1799 1.369 . S
C1800 C1809 1.429 . S
C1801 C1799 1.419 . S
C1801 C1802 1.363 . S
C1801 H1804 0.929 . S
C1802 C1801 1.363 . S
C1802 C1808 1.428 . S
H1803 C1799 0.930 . S
H1804 C1801 0.929 . S
S1805 N1806 1.613 . S
S1805 N1807 1.610 . S
N1806 S1805 1.613 . S
N1806 C1809 1.350 . S
N1807 S1805 1.610 . S
N1807 C1808 1.351 . S
C1808 C1802 1.428 . S
C1808 N1807 1.351 . S
C1808 C1809 1.434 . S
C1809 C1800 1.429 . S
C1809 N1806 1.350 . S
C1809 C1808 1.434 . S
C1810 C1811 1.369 . S
C1810 C1812 1.419 . S
C1810 H1814 0.930 . S
C1811 C1810 1.369 . S
C1811 C1820 1.429 . S
C1812 C1810 1.419 . S
C1812 C1813 1.363 . S
C1812 H1815 0.929 . S
C1813 C1812 1.363 . S
C1813 C1819 1.428 . S
H1814 C1810 0.930 . S
H1815 C1812 0.929 . S
S1816 N1817 1.613 . S
S1816 N1818 1.610 . S
N1817 S1816 1.613 . S
N1817 C1820 1.350 . S
N1818 S1816 1.610 . S
N1818 C1819 1.351 . S
C1819 C1813 1.428 . S
C1819 N1818 1.351 . S
C1819 C1820 1.434 . S
C1820 C1811 1.429 . S
C1820 N1817 1.350 . S
C1820 C1819 1.434 . S
C1821 C1822 1.369 . S
C1821 C1823 1.419 . S
C1821 H1825 0.930 . S
C1822 C1821 1.369 . S
C1822 C1831 1.429 . S
C1823 C1821 1.419 . S
C1823 C1824 1.363 . S
C1823 H1826 0.929 . S
C1824 C1823 1.363 . S
C1824 C1830 1.428 . S
H1825 C1821 0.930 . S
H1826 C1823 0.929 . S
S1827 N1828 1.613 . S
S1827 N1829 1.610 . S
N1828 S1827 1.613 . S
N1828 C1831 1.350 . S
N1829 S1827 1.610 . S
N1829 C1830 1.351 . S
C1830 C1824 1.428 . S
C1830 N1829 1.351 . S
C1830 C1831 1.434 . S
C1831 C1822 1.429 . S
C1831 N1828 1.350 . S
C1831 C1830 1.434 . S
C1832 C1833 1.369 . S
C1832 C1834 1.419 . S
C1832 H1836 0.930 . S
C1833 C1832 1.369 . S
C1833 C1842 1.429 . S
C1834 C1832 1.419 . S
C1834 C1835 1.363 . S
C1834 H1837 0.929 . S
C1835 C1834 1.363 . S
C1835 C1841 1.428 . S
H1836 C1832 0.930 . S
H1837 C1834 0.929 . S
S1838 N1839 1.613 . S
S1838 N1840 1.610 . S
N1839 S1838 1.613 . S
N1839 C1842 1.350 . S
N1840 S1838 1.610 . S
N1840 C1841 1.351 . S
C1841 C1835 1.428 . S
C1841 N1840 1.351 . S
C1841 C1842 1.434 . S
C1842 C1833 1.429 . S
C1842 N1839 1.350 . S
C1842 C1841 1.434 . S
C1843 C1844 1.369 . S
C1843 C1845 1.419 . S
C1843 H1847 0.930 . S
C1844 C1843 1.369 . S
C1844 C1853 1.429 . S
C1845 C1843 1.419 . S
C1845 C1846 1.363 . S
C1845 H1848 0.929 . S
C1846 C1845 1.363 . S
C1846 C1852 1.428 . S
H1847 C1843 0.930 . S
H1848 C1845 0.929 . S
S1849 N1850 1.613 . S
S1849 N1851 1.610 . S
N1850 S1849 1.613 . S
N1850 C1853 1.350 . S
N1851 S1849 1.610 . S
N1851 C1852 1.351 . S
C1852 C1846 1.428 . S
C1852 N1851 1.351 . S
C1852 C1853 1.434 . S
C1853 C1844 1.429 . S
C1853 N1850 1.350 . S
C1853 C1852 1.434 . S
C1854 C1855 1.369 . S
C1854 C1856 1.419 . S
C1854 H1858 0.930 . S
C1855 C1854 1.369 . S
C1855 C1864 1.429 . S
C1856 C1854 1.419 . S
C1856 C1857 1.363 . S
C1856 H1859 0.929 . S
C1857 C1856 1.363 . S
C1857 C1863 1.428 . S
H1858 C1854 0.930 . S
H1859 C1856 0.929 . S
S1860 N1861 1.613 . S
S1860 N1862 1.610 . S
N1861 S1860 1.613 . S
N1861 C1864 1.350 . S
N1862 S1860 1.610 . S
N1862 C1863 1.351 . S
C1863 C1857 1.428 . S
C1863 N1862 1.351 . S
C1863 C1864 1.434 . S
C1864 C1855 1.429 . S
C1864 N1861 1.350 . S
C1864 C1863 1.434 . S
C1865 C1866 1.369 . S
C1865 C1867 1.419 . S
C1865 H1869 0.930 . S
C1866 C1865 1.369 . S
C1866 C1875 1.429 . S
C1867 C1865 1.419 . S
C1867 C1868 1.363 . S
C1867 H1870 0.929 . S
C1868 C1867 1.363 . S
C1868 C1874 1.428 . S
H1869 C1865 0.930 . S
H1870 C1867 0.929 . S
S1871 N1872 1.613 . S
S1871 N1873 1.610 . S
N1872 S1871 1.613 . S
N1872 C1875 1.350 . S
N1873 S1871 1.610 . S
N1873 C1874 1.351 . S
C1874 C1868 1.428 . S
C1874 N1873 1.351 . S
C1874 C1875 1.434 . S
C1875 C1866 1.429 . S
C1875 N1872 1.350 . S
C1875 C1874 1.434 . S
C1876 C1877 1.369 . S
C1876 C1878 1.419 . S
C1876 H1880 0.930 . S
C1877 C1876 1.369 . S
C1877 C1886 1.429 . S
C1878 C1876 1.419 . S
C1878 C1879 1.363 . S
C1878 H1881 0.929 . S
C1879 C1878 1.363 . S
C1879 C1885 1.428 . S
H1880 C1876 0.930 . S
H1881 C1878 0.929 . S
S1882 N1883 1.613 . S
S1882 N1884 1.610 . S
N1883 S1882 1.613 . S
N1883 C1886 1.350 . S
N1884 S1882 1.610 . S
N1884 C1885 1.351 . S
C1885 C1879 1.428 . S
C1885 N1884 1.351 . S
C1885 C1886 1.434 . S
C1886 C1877 1.429 . S
C1886 N1883 1.350 . S
C1886 C1885 1.434 . S
C1887 C1888 1.369 . S
C1887 C1889 1.419 . S
C1887 H1891 0.930 . S
C1888 C1887 1.369 . S
C1888 C1897 1.429 . S
C1889 C1887 1.419 . S
C1889 C1890 1.363 . S
C1889 H1892 0.929 . S
C1890 C1889 1.363 . S
C1890 C1896 1.428 . S
H1891 C1887 0.930 . S
H1892 C1889 0.929 . S
S1893 N1894 1.613 . S
S1893 N1895 1.610 . S
N1894 S1893 1.613 . S
N1894 C1897 1.350 . S
N1895 S1893 1.610 . S
N1895 C1896 1.351 . S
C1896 C1890 1.428 . S
C1896 N1895 1.351 . S
C1896 C1897 1.434 . S
C1897 C1888 1.429 . S
C1897 N1894 1.350 . S
C1897 C1896 1.434 . S
C1898 C1899 1.369 . S
C1898 C1900 1.419 . S
C1898 H1902 0.930 . S
C1899 C1898 1.369 . S
C1899 C1908 1.429 . S
C1900 C1898 1.419 . S
C1900 C1901 1.363 . S
C1900 H1903 0.929 . S
C1901 C1900 1.363 . S
C1901 C1907 1.428 . S
H1902 C1898 0.930 . S
H1903 C1900 0.929 . S
S1904 N1905 1.613 . S
S1904 N1906 1.610 . S
N1905 S1904 1.613 . S
N1905 C1908 1.350 . S
N1906 S1904 1.610 . S
N1906 C1907 1.351 . S
C1907 C1901 1.428 . S
C1907 N1906 1.351 . S
C1907 C1908 1.434 . S
C1908 C1899 1.429 . S
C1908 N1905 1.350 . S
C1908 C1907 1.434 . S
C1909 C1910 1.369 . S
C1909 C1911 1.419 . S
C1909 H1913 0.930 . S
C1910 C1909 1.369 . S
C1910 C1919 1.429 . S
C1911 C1909 1.419 . S
C1911 C1912 1.363 . S
C1911 H1914 0.929 . S
C1912 C1911 1.363 . S
C1912 C1918 1.428 . S
H1913 C1909 0.930 . S
H1914 C1911 0.929 . S
S1915 N1916 1.613 . S
S1915 N1917 1.610 . S
N1916 S1915 1.613 . S
N1916 C1919 1.350 . S
N1917 S1915 1.610 . S
N1917 C1918 1.351 . S
C1918 C1912 1.428 . S
C1918 N1917 1.351 . S
C1918 C1919 1.434 . S
C1919 C1910 1.429 . S
C1919 N1916 1.350 . S
C1919 C1918 1.434 . S
C1920 C1921 1.369 . S
C1920 C1922 1.419 . S
C1920 H1924 0.930 . S
C1921 C1920 1.369 . S
C1921 C1930 1.429 . S
C1922 C1920 1.419 . S
C1922 C1923 1.363 . S
C1922 H1925 0.929 . S
C1923 C1922 1.363 . S
C1923 C1929 1.428 . S
H1924 C1920 0.930 . S
H1925 C1922 0.929 . S
S1926 N1927 1.613 . S
S1926 N1928 1.610 . S
N1927 S1926 1.613 . S
N1927 C1930 1.350 . S
N1928 S1926 1.610 . S
N1928 C1929 1.351 . S
C1929 C1923 1.428 . S
C1929 N1928 1.351 . S
C1929 C1930 1.434 . S
C1930 C1921 1.429 . S
C1930 N1927 1.350 . S
C1930 C1929 1.434 . S
C1931 C1932 1.369 . S
C1931 C1933 1.419 . S
C1931 H1935 0.930 . S
C1932 C1931 1.369 . S
C1932 C1941 1.429 . S
C1933 C1931 1.419 . S
C1933 C1934 1.363 . S
C1933 H1936 0.929 . S
C1934 C1933 1.363 . S
C1934 C1940 1.428 . S
H1935 C1931 0.930 . S
H1936 C1933 0.929 . S
S1937 N1938 1.613 . S
S1937 N1939 1.610 . S
N1938 S1937 1.613 . S
N1938 C1941 1.350 . S
N1939 S1937 1.610 . S
N1939 C1940 1.351 . S
C1940 C1934 1.428 . S
C1940 N1939 1.351 . S
C1940 C1941 1.434 . S
C1941 C1932 1.429 . S
C1941 N1938 1.350 . S
C1941 C1940 1.434 . S
C1942 C1943 1.369 . S
C1942 C1944 1.419 . S
C1942 H1946 0.930 . S
C1943 C1942 1.369 . S
C1943 C1952 1.429 . S
C1944 C1942 1.419 . S
C1944 C1945 1.363 . S
C1944 H1947 0.929 . S
C1945 C1944 1.363 . S
C1945 C1951 1.428 . S
H1946 C1942 0.930 . S
H1947 C1944 0.929 . S
S1948 N1949 1.613 . S
S1948 N1950 1.610 . S
N1949 S1948 1.613 . S
N1949 C1952 1.350 . S
N1950 S1948 1.610 . S
N1950 C1951 1.351 . S
C1951 C1945 1.428 . S
C1951 N1950 1.351 . S
C1951 C1952 1.434 . S
C1952 C1943 1.429 . S
C1952 N1949 1.350 . S
C1952 C1951 1.434 . S
C1953 C1954 1.369 . S
C1953 C1955 1.419 . S
C1953 H1957 0.930 . S
C1954 C1953 1.369 . S
C1954 C1963 1.429 . S
C1955 C1953 1.419 . S
C1955 C1956 1.363 . S
C1955 H1958 0.929 . S
C1956 C1955 1.363 . S
C1956 C1962 1.428 . S
H1957 C1953 0.930 . S
H1958 C1955 0.929 . S
S1959 N1960 1.613 1_556 S
S1959 N1961 1.610 . S
N1960 S1959 1.613 1_554 S
N1960 C1963 1.350 . S
N1961 S1959 1.610 . S
N1961 C1962 1.351 1_556 S
C1962 C1956 1.428 . S
C1962 N1961 1.351 1_554 S
C1962 C1963 1.434 . S
C1963 C1954 1.429 . S
C1963 N1960 1.350 . S
C1963 C1962 1.434 . S
C1964 C1965 1.369 . S
C1964 C1966 1.419 . S
C1964 H1968 0.930 . S
C1965 C1964 1.369 . S
C1965 C1974 1.429 . S
C1966 C1964 1.419 . S
C1966 C1967 1.363 . S
C1966 H1969 0.929 . S
C1967 C1966 1.363 . S
C1967 C1973 1.428 . S
H1968 C1964 0.930 . S
H1969 C1966 0.929 . S
S1970 N1971 1.613 . S
S1970 N1972 1.610 . S
N1971 S1970 1.613 . S
N1971 C1974 1.350 . S
N1972 S1970 1.610 . S
N1972 C1973 1.351 . S
C1973 C1967 1.428 . S
C1973 N1972 1.351 . S
C1973 C1974 1.434 . S
C1974 C1965 1.429 . S
C1974 N1971 1.350 . S
C1974 C1973 1.434 . S
C1975 C1976 1.369 . S
C1975 C1977 1.419 . S
C1975 H1979 0.930 . S
C1976 C1975 1.369 . S
C1976 C1985 1.429 . S
C1977 C1975 1.419 . S
C1977 C1978 1.363 . S
C1977 H1980 0.929 1_554 S
C1978 C1977 1.363 . S
C1978 C1984 1.428 . S
H1979 C1975 0.930 . S
H1980 C1977 0.929 1_556 S
S1981 N1982 1.613 . S
S1981 N1983 1.610 . S
N1982 S1981 1.613 . S
N1982 C1985 1.350 . S
N1983 S1981 1.610 . S
N1983 C1984 1.351 . S
C1984 C1978 1.428 . S
C1984 N1983 1.351 . S
C1984 C1985 1.434 . S
C1985 C1976 1.429 . S
C1985 N1982 1.350 . S
C1985 C1984 1.434 . S
C1986 C1987 1.369 . S
C1986 C1988 1.419 . S
C1986 H1990 0.930 . S
C1987 C1986 1.369 . S
C1987 C1996 1.429 . S
C1988 C1986 1.419 . S
C1988 C1989 1.363 . S
C1988 H1991 0.929 . S
C1989 C1988 1.363 . S
C1989 C1995 1.428 . S
H1990 C1986 0.930 . S
H1991 C1988 0.929 . S
S1992 N1993 1.613 . S
S1992 N1994 1.610 . S
N1993 S1992 1.613 . S
N1993 C1996 1.350 . S
N1994 S1992 1.610 . S
N1994 C1995 1.351 . S
C1995 C1989 1.428 . S
C1995 N1994 1.351 . S
C1995 C1996 1.434 . S
C1996 C1987 1.429 . S
C1996 N1993 1.350 . S
C1996 C1995 1.434 . S
C1997 C1998 1.369 . S
C1997 C1999 1.419 . S
C1997 H2001 0.930 . S
C1998 C1997 1.369 . S
C1998 C2007 1.429 . S
C1999 C1997 1.419 . S
C1999 C2000 1.363 . S
C1999 H2002 0.929 . S
C2000 C1999 1.363 . S
C2000 C2006 1.428 . S
H2001 C1997 0.930 . S
H2002 C1999 0.929 . S
S2003 N2004 1.613 . S
S2003 N2005 1.610 . S
N2004 S2003 1.613 . S
N2004 C2007 1.350 . S
N2005 S2003 1.610 . S
N2005 C2006 1.351 . S
C2006 C2000 1.428 . S
C2006 N2005 1.351 . S
C2006 C2007 1.434 . S
C2007 C1998 1.429 . S
C2007 N2004 1.350 . S
C2007 C2006 1.434 . S
C953 C101 2.345 . S
C955 C325 2.301 . S
C964 C57 2.061 . S
C966 C376 2.119 . S
C975 C70 1.656 . S
C977 C405 1.610 . S
C988 C449 1.493 . S
C986 C82 1.584 . S
C997 C23 1.483 . S
C999 C489 1.392 . S
C1010 C525 1.626 . S
C1008 C29 1.680 . S
C1021 C575 2.025 . S
C1019 C49 1.915 . S
C1030 C10 2.460 . S
C1032 C605 2.413 . S
C1043 C335 2.009 . S
C1041 C218 2.029 . S
C1052 C226 1.064 . S
C1054 C378 1.005 . S
C1065 C415 1.492 . S
C1063 C251 1.408 . S
C1076 C445 1.405 . S
C1074 C159 1.446 . S
C1085 C211 1.494 . S
C1087 C485 1.455 . S
C1098 C535 1.125 . S
C1096 C225 1.064 . S
C1109 C569 1.064 . S
C1107 C252 1.137 . S
C1120 C615 1.994 . S
C1118 C166 2.017 . S
C1131 C329 1.538 . S
C1129 C147 1.662 . S
C1140 C263 1.725 . S
C1142 C655 1.812 . S
C1153 C689 1.640 . S
C1151 C309 1.739 . S
C1164 C725 0.894 . S
C1162 C291 0.931 . S
C1173 C108 1.723 . S
C1175 C609 1.622 . S
C1184 C121 1.789 . S
C1186 C409 1.688 . S
C1195 C302 1.652 . S
C1197 C775 1.744 . S
C1208 C794 0.551 . S
C1206 C276 0.526 . S
C1219 C336 2.460 1_565 S
C1217 C55 2.454 . S
C1230 C805 2.331 . S
C1228 C96 2.301 . S
C1239 C88 1.935 . S
C1241 C416 1.940 . S
C1250 C75 1.606 . S
C1252 C778 1.553 . S
C1263 C498 1.446 . S
C1261 C4 1.498 . S
C1272 C44 1.940 . S
C1274 C696 1.941 . S
C1285 C554 2.178 1_566 S
C1283 C31 2.134 . S
C1296 C856 2.557 . S
C1294 C18 2.556 . S
C1307 C314 2.202 1_556 S
C1305 C133 2.223 . S
C1318 C809 0.870 . S
C1316 C296 0.888 . S
C1327 C107 1.520 . S
C1329 C394 1.543 . S
C1338 C264 1.707 . S
C1340 C776 1.707 . S
C1349 C140 1.751 . S
C1351 C496 1.749 . S
C1362 C674 1.171 . S
C1360 C289 1.169 . S
C1371 C114 1.113 . S
C1373 C578 1.073 . S
C1382 C265 2.219 . S
C1384 C834 2.194 . S
C1393 C179 1.501 . S
C1395 C338 1.417 . S
C1404 C161 1.896 . S
C1406 C634 1.920 . S
C1415 C244 1.598 . S
C1417 C538 1.538 . S
C1426 C224 1.046 . S
C1428 C736 1.033 . S
C1439 C858 1.586 1_545 S
C1437 C257 1.664 . S
C1448 C199 1.655 . S
C1450 C418 1.600 . S
C1461 C434 1.851 . S
C1459 C237 1.826 . S
C1472 C375 0.619 . S
C1470 C185 0.613 . S
C1481 C69 2.349 . S
C1483 C885 2.297 . S
C1494 C816 2.117 . S
C1492 C83 2.063 . S
C1503 C94 1.658 . S
C1505 C925 1.613 . S
C1514 C56 1.577 . S
C1516 C769 1.502 . S
C1525 C42 1.498 . S
C1527 C649 1.396 . S
C1538 C685 1.631 . S
C1536 C3 1.681 . S
C1549 C735 2.034 . S
C1547 C16 1.916 . S
C1560 C845 2.411 . S
C1558 C36 2.460 . S
C1571 C895 2.008 . S
C1569 C238 2.032 . S
C1580 C174 1.061 . S
C1582 C818 1.005 1_554 S
C1593 C935 1.492 . S
C1591 C186 1.404 . S
C1604 C765 1.410 . S
C1602 C198 1.444 . S
C1615 C645 1.457 . S
C1613 C239 1.495 . S
C1624 C173 1.077 . S
C1626 C695 1.126 . S
C1637 C729 1.050 . S
C1635 C187 1.149 . S
C1646 C205 2.018 . S
C1648 C855 1.996 . S
C1659 C889 1.542 . S
C1657 C290 1.655 . S
C1668 C122 1.728 . S
C1670 C495 1.812 . S
C1681 C529 1.637 . S
C1679 C134 1.742 . S
C1692 C565 0.902 . S
C1690 C148 0.920 . S
C1703 C849 1.621 . S
C1701 C283 1.723 . S
C1712 C270 1.783 . S
C1714 C929 1.688 . S
C1725 C455 1.742 . S
C1723 C135 1.660 . S
C1736 C354 0.554 . S
C1734 C109 0.521 . S
C1745 C81 2.450 . S
C1747 C896 2.459 . S
C1758 C365 2.331 . S
C1756 C68 2.299 . S
C1767 C62 1.935 . S
C1769 C936 1.940 . S
C1778 C95 1.606 . S
C1780 C458 1.551 . S
C1789 C30 1.504 . S
C1791 C658 1.436 . S
C1802 C536 1.933 . S
C1800 C17 1.936 . S
C1811 C5 2.131 . S
C1813 C714 2.178 . S
C1822 C43 2.558 . S
C1824 C616 2.550 . S
C1835 C874 2.198 . S
C1833 C304 2.226 . S
C1844 C153 0.885 . S
C1846 C369 0.870 . S
C1857 C914 1.544 1_656 S
C1855 C278 1.522 . S
C1866 C127 1.705 . S
C1868 C456 1.708 . S
C1877 C303 1.748 . S
C1879 C656 1.745 . S
C1890 C514 1.168 . S
C1888 C146 1.163 . S
C1899 C277 1.111 . S
C1901 C738 1.060 . S
C1912 C594 2.194 . S
C1910 C120 2.216 . S
C1923 C898 1.417 . S
C1921 C231 1.503 . S
C1934 C474 1.920 1_565 S
C1932 C200 1.893 . S
C1943 C212 1.594 . S
C1945 C698 1.543 . S
C1956 C576 1.033 . S
C1954 C172 1.042 . S
C1965 C192 1.657 . S
C1967 C618 1.590 . S
C1976 C160 1.662 . S
C1978 C938 1.593 . S
C1989 C754 1.852 . S
C1987 C213 1.822 . S
C2000 C815 0.625 . S
C1998 C250 0.611 . S
