# Generated by pormake.
# Topology anh, (6,3)-cn, num edge types: 1
# Building blocks:
#     Node 0, Type 0, BuildingBlock: BETDAH_clean_sbu_0, # of connection points: 6
#     Node 1, Type 0, BuildingBlock: BETDAH_clean_sbu_0, # of connection points: 6
#     Node 2, Type 0, BuildingBlock: BETDAH_clean_sbu_0, # of connection points: 6
#     Node 3, Type 1, BuildingBlock: OLANEW_clean_sbu_2, # of connection points: 3
#     Node 4, Type 1, BuildingBlock: OLANEW_clean_sbu_2, # of connection points: 3
#     Node 5, Type 1, BuildingBlock: OLANEW_clean_sbu_2, # of connection points: 3
#     Node 6, Type 1, BuildingBlock: OLANEW_clean_sbu_2, # of connection points: 3
#     Node 7, Type 1, BuildingBlock: OLANEW_clean_sbu_2, # of connection points: 3
#     Node 8, Type 1, BuildingBlock: OLANEW_clean_sbu_2, # of connection points: 3
#     Edge 9, Type (0, 1), BuildingBlock: EYOCIG_clean_linker_4, # of connection points: 2
#     Edge 10, Type (0, 1), BuildingBlock: EYOCIG_clean_linker_4, # of connection points: 2
#     Edge 11, Type (0, 1), BuildingBlock: EYOCIG_clean_linker_4, # of connection points: 2
#     Edge 12, Type (0, 1), BuildingBlock: EYOCIG_clean_linker_4, # of connection points: 2
#     Edge 13, Type (0, 1), BuildingBlock: EYOCIG_clean_linker_4, # of connection points: 2
#     Edge 14, Type (0, 1), BuildingBlock: EYOCIG_clean_linker_4, # of connection points: 2
#     Edge 15, Type (0, 1), BuildingBlock: EYOCIG_clean_linker_4, # of connection points: 2
#     Edge 16, Type (0, 1), BuildingBlock: EYOCIG_clean_linker_4, # of connection points: 2
#     Edge 17, Type (0, 1), BuildingBlock: EYOCIG_clean_linker_4, # of connection points: 2
#     Edge 18, Type (0, 1), BuildingBlock: EYOCIG_clean_linker_4, # of connection points: 2
#     Edge 19, Type (0, 1), BuildingBlock: EYOCIG_clean_linker_4, # of connection points: 2
#     Edge 20, Type (0, 1), BuildingBlock: EYOCIG_clean_linker_4, # of connection points: 2
#     Edge 21, Type (0, 1), BuildingBlock: EYOCIG_clean_linker_4, # of connection points: 2
#     Edge 22, Type (0, 1), BuildingBlock: EYOCIG_clean_linker_4, # of connection points: 2
#     Edge 23, Type (0, 1), BuildingBlock: EYOCIG_clean_linker_4, # of connection points: 2
#     Edge 24, Type (0, 1), BuildingBlock: EYOCIG_clean_linker_4, # of connection points: 2
#     Edge 25, Type (0, 1), BuildingBlock: EYOCIG_clean_linker_4, # of connection points: 2
#     Edge 26, Type (0, 1), BuildingBlock: EYOCIG_clean_linker_4, # of connection points: 2
# Relax obj value: 0.179
# Max RMSD: 0.189
# Mean RMSD: 0.121
data_MOF--net-anh--node1-BETDAH_clean_sbu_0--node2-OLANEW_clean_sbu_2--edge1-EYOCIG_clean_linker_4
_symmetry_space_group_name_H-M    P1
_symmetry_Int_Tables_number       1
_symmetry_cell_setting            triclinic
loop_
_symmetry_equiv_pos_as_xyz
'x, y, z'
_cell_length_a     31.081749
_cell_length_b     35.301435
_cell_length_c     40.247919
_cell_angle_alpha  92.047713
_cell_angle_beta   89.466428
_cell_angle_gamma 132.06628
loop_
_atom_site_label
_atom_site_type_symbol
_atom_site_fract_x
_atom_site_fract_y
_atom_site_fract_z
_atom_type_partial_charge
Ho0 Ho 0.07341 0.50091 0.16715 0.0
Ho1 Ho 1.00184 0.53043 0.16509 0.0
C2 C 0.13799 0.62157 0.16938 0.0
C3 C 0.15103 0.49537 0.16012 0.0
C4 C 0.21328 0.52982 0.1679 0.0
C5 C 0.25441 0.56155 0.14364 0.0
C6 C 0.31163 0.5835 0.14814 0.0
C7 C 0.32676 0.57241 0.17645 0.0
C8 C 0.28856 0.54804 0.20271 0.0
C9 C 0.23174 0.52632 0.1984 0.0
C10 C 0.03478 0.50352 0.22669 0.0
C11 C 0.93865 0.41115 0.1609 0.0
C12 C 0.93309 0.54145 0.18691 0.0
C13 C 0.86979 0.50746 0.18566 0.0
C14 C 0.83673 0.47507 0.21209 0.0
C15 C 0.77675 0.44383 0.2116 0.0
C16 C 0.74985 0.44545 0.18493 0.0
C17 C 0.78205 0.476 0.15797 0.0
C18 C 0.84178 0.50677 0.15822 0.0
C19 C 0.01693 0.51473 0.10035 0.0
O20 O 0.14282 0.58709 0.16917 0.0
O21 O 0.08783 0.60968 0.16894 0.0
O22 O 0.1168 0.47747 0.18556 0.0
O23 O 0.13506 0.50778 0.13602 0.0
O24 O 0.03688 0.46931 0.21756 0.0
O25 O 0.05476 0.53541 0.20417 0.0
O26 O 0.9348 0.44508 0.16981 0.0
O27 O 0.9882 0.42419 0.15305 0.0
O28 O 0.96038 0.56015 0.1588 0.0
O29 O 0.95294 0.52601 0.2052 0.0
O30 O 0.98826 0.52782 0.10941 0.0
O31 O 0.0357 0.5103 0.12643 0.0
H32 H 0.24142 0.56545 0.12006 0.0
H33 H 0.34077 0.60173 0.12737 0.0
H34 H 0.29993 0.53898 0.22454 0.0
H35 H 0.20129 0.50271 0.21776 0.0
H36 H 0.8573 0.4749 0.23358 0.0
H37 H 0.75212 0.4212 0.23288 0.0
H38 H 0.76131 0.47796 0.13745 0.0
H39 H 0.86598 0.53103 0.13746 0.0
Ho40 Ho 0.54306 0.98877 0.48341 0.0
Ho41 Ho 0.49037 0.0366 0.48525 0.0
C42 C 0.40237 0.91644 0.48514 0.0
C43 C 0.56735 0.93292 0.4933 0.0
C44 C 0.5407 0.87906 0.48981 0.0
C45 C 0.51282 0.84692 0.5169 0.0
C46 C 0.5005 0.80092 0.51671 0.0
C47 C 0.51585 0.78658 0.48949 0.0
C48 C 0.53848 0.8158 0.46118 0.0
C49 C 0.55088 0.86187 0.46132 0.0
C50 C 0.52667 0.00942 0.42385 0.0
C51 C 0.63116 0.1092 0.48613 0.0
C52 C 0.46754 0.09334 0.47435 0.0
C53 C 0.49581 0.14772 0.47808 0.0
C54 C 0.52593 0.18084 0.45155 0.0
C55 C 0.54315 0.2291 0.45298 0.0
C56 C 0.53032 0.2446 0.4809 0.0
C57 C 0.50399 0.21335 0.50822 0.0
C58 C 0.48683 0.16529 0.50686 0.0
C59 C 0.50589 0.01502 0.54459 0.0
O60 O 0.4478 0.92151 0.49094 0.0
O61 O 0.4074 0.95531 0.47739 0.0
O62 O 0.57981 0.95725 0.466 0.0
O63 O 0.54783 0.94473 0.5165 0.0
O64 O 0.5699 0.01326 0.43114 0.0
O65 O 0.49175 0.99136 0.44743 0.0
O66 O 0.58592 0.10403 0.47954 0.0
O67 O 0.62599 0.07 0.49306 0.0
O68 O 0.45377 0.06859 0.50164 0.0
O69 O 0.487 0.08101 0.45151 0.0
O70 O 0.46325 0.01221 0.53768 0.0
O71 O 0.54088 0.03341 0.52109 0.0
H72 H 0.50392 0.85875 0.53911 0.0
H73 H 0.48233 0.7782 0.53863 0.0
H74 H 0.54994 0.80471 0.43985 0.0
H75 H 0.57188 0.88548 0.43994 0.0
H76 H 0.53369 0.16858 0.42906 0.0
H77 H 0.56374 0.25306 0.43171 0.0
H78 H 0.49406 0.22503 0.53002 0.0
H79 H 0.4639 0.14096 0.52776 0.0
Ho80 Ho 0.58528 0.584 0.84063 0.0
Ho81 Ho 0.50935 0.46624 0.83156 0.0
C82 C 0.44116 0.50586 0.83589 0.0
C83 C 0.62359 0.67458 0.83358 0.0
C84 C 0.59923 0.69931 0.83639 0.0
C85 C 0.56931 0.69736 0.80932 0.0
C86 C 0.55259 0.72561 0.81048 0.0
C87 C 0.56538 0.75629 0.83862 0.0
C88 C 0.59235 0.75647 0.86641 0.0
C89 C 0.60925 0.72823 0.8653 0.0
C90 C 0.54912 0.53109 0.89532 0.0
C91 C 0.65269 0.54355 0.83998 0.0
C92 C 0.46986 0.37607 0.84171 0.0
C93 C 0.49034 0.34833 0.83852 0.0
C94 C 0.51635 0.34584 0.86585 0.0
C95 C 0.52727 0.31326 0.86439 0.0
C96 C 0.51235 0.2829 0.83566 0.0
C97 C 0.48986 0.28745 0.80773 0.0
C98 C 0.47885 0.31986 0.80912 0.0
C99 C 0.5405 0.5163 0.77579 0.0
O100 O 0.49293 0.55259 0.83346 0.0
O101 O 0.43582 0.46538 0.83896 0.0
O102 O 0.63048 0.66031 0.86113 0.0
O103 O 0.60479 0.64155 0.80866 0.0
O104 O 0.59806 0.57802 0.89466 0.0
O105 O 0.52093 0.51748 0.86897 0.0
O106 O 0.60061 0.49689 0.84004 0.0
O107 O 0.65937 0.58482 0.83725 0.0
O108 O 0.45964 0.38794 0.81419 0.0
O109 O 0.49431 0.41215 0.86512 0.0
O110 O 0.49271 0.46915 0.77838 0.0
O111 O 0.57237 0.53267 0.80133 0.0
H112 H 0.56052 0.67544 0.78672 0.0
H113 H 0.53162 0.72499 0.78882 0.0
H114 H 0.60245 0.77996 0.88841 0.0
H115 H 0.63195 0.73049 0.88663 0.0
H116 H 0.52626 0.36756 0.88878 0.0
H117 H 0.54569 0.31067 0.88597 0.0
H118 H 0.47905 0.2647 0.78515 0.0
H119 H 0.4593 0.32108 0.78755 0.0
O120 O 0.55843 0.05926 0.24519 0.0
Cd121 Cd 0.58026 0.07292 0.18593 0.0
O122 O 0.51704 0.97855 0.24944 0.0
Cd123 Cd 0.50974 0.95616 0.19731 0.0
O124 O 0.43311 0.8862 0.17249 0.0
C125 C 0.3936 0.85563 0.19286 0.0
O126 O 0.40293 0.8677 0.2248 0.0
C127 C 0.5352 0.02044 0.26243 0.0
C128 C 0.686 0.17157 0.17587 0.0
O129 O 0.63973 0.1636 0.18049 0.0
O130 O 0.68277 0.13347 0.17583 0.0
O131 O 0.5425 0.51724 0.5987 0.0
Cd132 Cd 0.51868 0.49652 0.53931 0.0
O133 O 0.46837 0.51014 0.6117 0.0
Cd134 Cd 0.4441 0.49848 0.55986 0.0
O135 O 0.4661 0.55415 0.52523 0.0
C136 C 0.48656 0.59584 0.53984 0.0
O137 O 0.49203 0.6007 0.57239 0.0
C138 C 0.51403 0.51963 0.62006 0.0
C139 C 0.52678 0.42682 0.51524 0.0
O140 O 0.57219 0.47333 0.5221 0.0
O141 O 0.47695 0.41248 0.51982 0.0
O142 O 0.08817 0.51609 0.92274 0.0
Cd143 Cd 0.14535 0.52564 0.87023 0.0
O144 O 0.01713 0.51499 0.9101 0.0
Cd145 Cd 0.94476 0.51542 0.89362 0.0
O146 O 0.88632 0.52544 0.86635 0.0
C147 C 0.84213 0.51679 0.87858 0.0
O148 O 0.82626 0.49952 0.90863 0.0
C149 C 0.04658 0.51387 0.93207 0.0
C150 C 0.22948 0.51407 0.8599 0.0
O151 O 0.24359 0.55369 0.87509 0.0
O152 O 0.17619 0.47888 0.85076 0.0
O153 O 0.04675 0.54638 0.4094 0.0
Cd154 Cd 0.06518 0.56496 0.47006 0.0
O155 O 0.95107 0.4857 0.40277 0.0
Cd156 Cd 0.92243 0.46508 0.4542 0.0
O157 O 0.86529 0.39362 0.48087 0.0
C158 C 0.83158 0.35388 0.46194 0.0
O159 O 0.83118 0.35877 0.4298 0.0
C160 C 1.00159 0.5168 0.39075 0.0
C161 C 0.16155 0.66915 0.48239 0.0
O162 O 0.1682 0.63749 0.47642 0.0
O163 O 0.10998 0.65198 0.48346 0.0
O164 O 0.51023 0.97975 0.72448 0.0
Cd165 Cd 0.52038 0.98622 0.78501 0.0
O166 O 0.58566 0.06081 0.71591 0.0
Cd167 Cd 0.59625 0.08132 0.7683 0.0
O168 O 0.57234 0.11229 0.80312 0.0
C169 C 0.55607 0.13243 0.78885 0.0
O170 O 0.55641 0.13362 0.75628 0.0
C171 C 0.54403 0.01573 0.70484 0.0
C172 C 0.52892 0.91736 0.80647 0.0
O173 O 0.47936 0.90308 0.80079 0.0
O174 O 0.57458 0.96402 0.80226 0.0
O175 O 0.51768 0.48466 0.06737 0.0
Cd176 Cd 0.55974 0.53055 0.11934 0.0
O177 O 0.54565 0.5515 0.04114 0.0
Cd178 Cd 0.56409 0.59014 0.08804 0.0
O179 O 0.49757 0.55152 0.12423 0.0
C180 C 0.44724 0.50894 0.11751 0.0
O181 O 0.43265 0.48926 0.08701 0.0
C182 C 0.52208 0.50514 0.04101 0.0
C183 C 0.5999 0.48901 0.14412 0.0
O184 O 0.54592 0.46281 0.13927 0.0
O185 O 0.6366 0.53658 0.13784 0.0
C186 C 0.38029 0.54018 0.17236 0.0
C187 C 0.3624 0.56125 0.17172 0.0
C188 C 0.38833 0.50782 0.16078 0.0
C189 C 0.40404 0.49511 0.13978 0.0
C190 C 0.72659 0.20591 0.48577 0.0
C191 C 0.6868 0.16035 0.48692 0.0
C192 C 0.7664 0.25924 0.48147 0.0
C193 C 0.7973 0.30357 0.47463 0.0
C194 C 0.54587 0.81829 0.83354 0.0
C195 C 0.55568 0.7909 0.83734 0.0
C196 C 0.53797 0.85201 0.82556 0.0
C197 C 0.53327 0.88147 0.81684 0.0
C198 C 0.65344 0.42291 0.1806 0.0
C199 C 0.69254 0.42562 0.18768 0.0
C200 C 0.62954 0.44174 0.16835 0.0
C201 C 0.61762 0.46466 0.15725 0.0
C202 C 0.30187 0.82159 0.48757 0.0
C203 C 0.34606 0.86582 0.48603 0.0
C204 C 0.25242 0.76863 0.48765 0.0
C205 C 0.2109 0.72327 0.48526 0.0
C206 C 0.52196 0.21428 0.83045 0.0
C207 C 0.51873 0.24619 0.8346 0.0
C208 C 0.53003 0.18089 0.82048 0.0
C209 C 0.54233 0.15793 0.80788 0.0
C210 C 0.51151 0.71049 0.4979 0.0
C211 C 0.51452 0.74543 0.4924 0.0
C212 C 0.50593 0.67008 0.50888 0.0
C213 C 0.49647 0.63498 0.52168 0.0
C214 C 0.7394 0.54388 0.84635 0.0
C215 C 0.70296 0.54758 0.84328 0.0
C216 C 0.77908 0.53621 0.85267 0.0
C217 C 0.81081 0.52894 0.8616 0.0
C218 C 0.23567 0.71786 0.17265 0.0
C219 C 0.19004 0.67439 0.17115 0.0
C220 C 0.29098 0.76726 0.17603 0.0
C221 C 0.33873 0.80812 0.18167 0.0
C222 C 0.54073 0.32506 0.48497 0.0
C223 C 0.53801 0.28955 0.48074 0.0
C224 C 0.53717 0.36194 0.49354 0.0
C225 C 0.53201 0.3913 0.50344 0.0
C226 C 0.35182 0.50191 0.84254 0.0
C227 C 0.39065 0.50122 0.83963 0.0
C228 C 0.30843 0.50547 0.84783 0.0
C229 C 0.27239 0.50919 0.85325 0.0
C230 C 0.84128 0.31457 0.16355 0.0
C231 C 0.88695 0.35798 0.16189 0.0
C232 C 0.78693 0.26467 0.16721 0.0
C233 C 0.74068 0.22233 0.17118 0.0
C234 C 0.03207 0.51018 0.03482 0.0
C235 C 0.02831 0.51105 0.06526 0.0
C236 C 0.03373 0.51067 -0.00129 0.0
C237 C 0.03642 0.51201 0.96817 0.0
C238 C 0.51312 0.01786 0.36132 0.0
C239 C 0.51416 0.01283 0.3906 0.0
C240 C 0.51928 0.02193 0.32663 0.0
C241 C 0.52747 0.0231 0.29727 0.0
C242 C 0.56067 0.55056 0.71651 0.0
C243 C 0.55858 0.54113 0.74506 0.0
C244 C 0.55024 0.54637 0.68225 0.0
C245 C 0.53427 0.53421 0.65374 0.0
C246 C 0.52314 0.00354 0.60562 0.0
C247 C 0.5179 0.00941 0.57724 0.0
C248 C 0.52836 0.00212 0.64005 0.0
C249 C 0.53355 0.00617 0.66981 0.0
C250 C 0.50655 0.4776 0.94827 0.0
C251 C 0.52482 0.50112 0.92359 0.0
C252 C 0.49646 0.46654 0.98155 0.0
C253 C 0.50431 0.47721 0.0105 0.0
C254 C 0.0193 0.51422 0.29029 0.0
C255 C 0.02684 0.51143 0.26099 0.0
C256 C 0.01263 0.51615 0.32521 0.0
C257 C 1.00779 0.51657 0.35512 0.0
loop_
_geom_bond_atom_site_label_1
_geom_bond_atom_site_label_2
_geom_bond_distance
_geom_bond_site_symmetry_2
_ccdc_geom_bond_type
Ho0 C3 2.811 . S
Ho0 O20 2.322 . S
Ho0 O22 2.378 . S
Ho0 O23 2.524 . S
Ho0 O24 2.381 . S
Ho0 O25 2.669 . S
Ho0 O27 2.346 1_455 S
Ho0 O31 2.305 . S
Ho1 C12 2.811 . S
Ho1 O21 2.346 1_655 S
Ho1 O25 2.305 1_655 S
Ho1 O26 2.322 . S
Ho1 O28 2.378 . S
Ho1 O29 2.524 . S
Ho1 O30 2.385 . S
Ho1 O31 2.669 1_655 S
C2 O20 1.259 . S
C2 O21 1.268 . S
C3 Ho0 2.811 . S
C3 C4 1.488 . S
C3 O22 1.215 . S
C3 O23 1.289 . S
C4 C3 1.488 . S
C4 C5 1.348 . S
C4 C9 1.413 . S
C5 C4 1.348 . S
C5 C6 1.442 . S
C5 H32 0.930 . S
C6 C5 1.442 . S
C6 C7 1.381 . S
C6 H33 0.931 . S
C7 C6 1.381 . S
C7 C8 1.321 . S
C8 C7 1.321 . S
C8 C9 1.403 . S
C8 H34 0.934 . S
C9 C4 1.413 . S
C9 C8 1.403 . S
C9 H35 0.930 . S
C10 O24 1.275 . S
C10 O25 1.256 . S
C11 O26 1.259 . S
C11 O27 1.268 . S
C12 Ho1 2.811 . S
C12 C13 1.488 . S
C12 O28 1.215 . S
C12 O29 1.289 . S
C13 C12 1.488 . S
C13 C14 1.348 . S
C13 C18 1.413 . S
C14 C13 1.348 . S
C14 C15 1.442 . S
C14 H36 0.930 . S
C15 C14 1.442 . S
C15 C16 1.381 . S
C15 H37 0.931 . S
C16 C15 1.381 . S
C16 C17 1.321 . S
C17 C16 1.321 . S
C17 C18 1.403 . S
C17 H38 0.934 . S
C18 C13 1.413 . S
C18 C17 1.403 . S
C18 H39 0.930 . S
C19 O30 1.252 1_455 S
C19 O31 1.256 . S
O20 Ho0 2.322 . S
O20 C2 1.259 . S
O21 Ho1 2.346 1_455 S
O21 C2 1.268 . S
O22 Ho0 2.378 . S
O22 C3 1.215 . S
O23 Ho0 2.524 . S
O23 C3 1.289 . S
O24 Ho0 2.381 . S
O24 C10 1.275 . S
O25 Ho0 2.669 . S
O25 Ho1 2.305 1_455 S
O25 C10 1.256 . S
O26 Ho1 2.322 . S
O26 C11 1.259 . S
O27 Ho0 2.346 1_655 S
O27 C11 1.268 . S
O28 Ho1 2.378 . S
O28 C12 1.215 . S
O29 Ho1 2.524 . S
O29 C12 1.289 . S
O30 Ho1 2.385 . S
O30 C19 1.252 1_655 S
O31 Ho0 2.305 . S
O31 Ho1 2.669 1_455 S
O31 C19 1.256 . S
H32 C5 0.930 . S
H33 C6 0.931 . S
H34 C8 0.934 . S
H35 C9 0.930 . S
H36 C14 0.930 . S
H37 C15 0.931 . S
H38 C17 0.934 . S
H39 C18 0.930 . S
Ho40 C43 2.811 . S
Ho40 O60 2.322 . S
Ho40 O62 2.378 . S
Ho40 O63 2.524 . S
Ho40 O64 2.381 . S
Ho40 O65 2.669 1_565 S
Ho40 O67 2.346 1_565 S
Ho40 O71 2.305 1_565 S
Ho41 C52 2.811 . S
Ho41 O61 2.346 1_545 S
Ho41 O65 2.305 . S
Ho41 O66 2.322 . S
Ho41 O68 2.378 . S
Ho41 O69 2.524 . S
Ho41 O70 2.381 . S
Ho41 O71 2.669 . S
C42 O60 1.259 . S
C42 O61 1.268 . S
C43 Ho40 2.811 . S
C43 C44 1.488 . S
C43 O62 1.215 . S
C43 O63 1.289 . S
C44 C43 1.488 . S
C44 C45 1.348 . S
C44 C49 1.413 . S
C45 C44 1.348 . S
C45 C46 1.442 . S
C45 H72 0.930 . S
C46 C45 1.442 . S
C46 C47 1.381 . S
C46 H73 0.931 . S
C47 C46 1.381 . S
C47 C48 1.321 . S
C48 C47 1.321 . S
C48 C49 1.403 . S
C48 H74 0.934 . S
C49 C44 1.413 . S
C49 C48 1.403 . S
C49 H75 0.930 . S
C50 O64 1.275 1_545 S
C50 O65 1.256 . S
C51 O66 1.259 . S
C51 O67 1.268 . S
C52 Ho41 2.811 . S
C52 C53 1.488 . S
C52 O68 1.215 . S
C52 O69 1.289 . S
C53 C52 1.488 . S
C53 C54 1.348 . S
C53 C58 1.413 . S
C54 C53 1.348 . S
C54 C55 1.442 . S
C54 H76 0.930 . S
C55 C54 1.442 . S
C55 C56 1.381 . S
C55 H77 0.931 . S
C56 C55 1.381 . S
C56 C57 1.321 . S
C57 C56 1.321 . S
C57 C58 1.403 . S
C57 H78 0.934 . S
C58 C53 1.413 . S
C58 C57 1.403 . S
C58 H79 0.930 . S
C59 O70 1.275 . S
C59 O71 1.256 . S
O60 Ho40 2.322 . S
O60 C42 1.259 . S
O61 Ho41 2.346 1_565 S
O61 C42 1.268 . S
O62 Ho40 2.378 . S
O62 C43 1.215 . S
O63 Ho40 2.524 . S
O63 C43 1.289 . S
O64 Ho40 2.381 . S
O64 C50 1.275 1_565 S
O65 Ho40 2.669 1_545 S
O65 Ho41 2.305 . S
O65 C50 1.256 . S
O66 Ho41 2.322 . S
O66 C51 1.259 . S
O67 Ho40 2.346 1_545 S
O67 C51 1.268 . S
O68 Ho41 2.378 . S
O68 C52 1.215 . S
O69 Ho41 2.524 . S
O69 C52 1.289 . S
O70 Ho41 2.381 . S
O70 C59 1.275 . S
O71 Ho40 2.305 1_545 S
O71 Ho41 2.669 . S
O71 C59 1.256 . S
H72 C45 0.930 . S
H73 C46 0.931 . S
H74 C48 0.934 . S
H75 C49 0.930 . S
H76 C54 0.930 . S
H77 C55 0.931 . S
H78 C57 0.934 . S
H79 C58 0.930 . S
Ho80 C83 2.811 . S
Ho80 O100 2.322 . S
Ho80 O102 2.378 . S
Ho80 O103 2.524 . S
Ho80 O104 2.381 . S
Ho80 O105 2.669 . S
Ho80 O107 2.346 . S
Ho80 O111 2.305 . S
Ho81 C92 2.811 . S
Ho81 O101 2.346 . S
Ho81 O105 2.305 . S
Ho81 O106 2.322 . S
Ho81 O108 2.378 . S
Ho81 O109 2.524 . S
Ho81 O110 2.381 . S
Ho81 O111 2.669 . S
C82 O100 1.259 . S
C82 O101 1.268 . S
C83 Ho80 2.811 . S
C83 C84 1.488 . S
C83 O102 1.215 . S
C83 O103 1.289 . S
C84 C83 1.488 . S
C84 C85 1.348 . S
C84 C89 1.413 . S
C85 C84 1.348 . S
C85 C86 1.442 . S
C85 H112 0.930 . S
C86 C85 1.442 . S
C86 C87 1.381 . S
C86 H113 0.931 . S
C87 C86 1.381 . S
C87 C88 1.321 . S
C88 C87 1.321 . S
C88 C89 1.403 . S
C88 H114 0.934 . S
C89 C84 1.413 . S
C89 C88 1.403 . S
C89 H115 0.930 . S
C90 O104 1.275 . S
C90 O105 1.256 . S
C91 O106 1.259 . S
C91 O107 1.268 . S
C92 Ho81 2.811 . S
C92 C93 1.488 . S
C92 O108 1.215 . S
C92 O109 1.289 . S
C93 C92 1.488 . S
C93 C94 1.348 . S
C93 C98 1.413 . S
C94 C93 1.348 . S
C94 C95 1.442 . S
C94 H116 0.930 . S
C95 C94 1.442 . S
C95 C96 1.381 . S
C95 H117 0.931 . S
C96 C95 1.381 . S
C96 C97 1.321 . S
C97 C96 1.321 . S
C97 C98 1.403 . S
C97 H118 0.934 . S
C98 C93 1.413 . S
C98 C97 1.403 . S
C98 H119 0.930 . S
C99 O110 1.275 . S
C99 O111 1.256 . S
O100 Ho80 2.322 . S
O100 C82 1.259 . S
O101 Ho81 2.346 . S
O101 C82 1.268 . S
O102 Ho80 2.378 . S
O102 C83 1.215 . S
O103 Ho80 2.524 . S
O103 C83 1.289 . S
O104 Ho80 2.381 . S
O104 C90 1.275 . S
O105 Ho80 2.669 . S
O105 Ho81 2.305 . S
O105 C90 1.256 . S
O106 Ho81 2.322 . S
O106 C91 1.259 . S
O107 Ho80 2.346 . S
O107 C91 1.268 . S
O108 Ho81 2.378 . S
O108 C92 1.215 . S
O109 Ho81 2.524 . S
O109 C92 1.289 . S
O110 Ho81 2.381 . S
O110 C99 1.275 . S
O111 Ho80 2.305 . S
O111 Ho81 2.669 . S
O111 C99 1.256 . S
H112 C85 0.930 . S
H113 C86 0.931 . S
H114 C88 0.934 . S
H115 C89 0.930 . S
H116 C94 0.930 . S
H117 C95 0.931 . S
H118 C97 0.934 . S
H119 C98 0.930 . S
O120 Cd121 2.300 . S
O120 C127 1.275 . S
Cd121 O120 2.300 . S
Cd121 O129 2.381 . S
Cd121 O130 2.378 . S
O122 Cd123 2.385 . S
O122 C127 1.255 1_565 S
Cd123 O122 2.385 . S
Cd123 O124 2.317 . S
O124 Cd123 2.317 . S
O124 C125 1.232 . S
C125 O124 1.232 . S
C125 O126 1.218 . S
O126 C125 1.218 . S
C127 O120 1.275 . S
C127 O122 1.255 1_545 S
C128 O129 1.258 . S
C128 O130 1.256 . S
O129 Cd121 2.381 . S
O129 C128 1.258 . S
O130 Cd121 2.378 . S
O130 C128 1.256 . S
O131 Cd132 2.300 . S
O131 C138 1.275 . S
Cd132 O131 2.300 . S
Cd132 O140 2.381 . S
Cd132 O141 2.378 . S
O133 Cd134 2.385 . S
O133 C138 1.255 . S
Cd134 O133 2.385 . S
Cd134 O135 2.317 . S
O135 Cd134 2.317 . S
O135 C136 1.232 . S
C136 O135 1.232 . S
C136 O137 1.218 . S
O137 C136 1.218 . S
C138 O131 1.275 . S
C138 O133 1.255 . S
C139 O140 1.258 . S
C139 O141 1.256 . S
O140 Cd132 2.381 . S
O140 C139 1.258 . S
O141 Cd132 2.378 . S
O141 C139 1.256 . S
O142 Cd143 2.300 . S
O142 C149 1.275 . S
Cd143 O142 2.300 . S
Cd143 O151 2.381 . S
Cd143 O152 2.378 . S
O144 Cd145 2.385 . S
O144 C149 1.255 1_655 S
Cd145 O144 2.385 . S
Cd145 O146 2.317 . S
O146 Cd145 2.317 . S
O146 C147 1.232 . S
C147 O146 1.232 . S
C147 O148 1.218 . S
O148 C147 1.218 . S
C149 O142 1.275 . S
C149 O144 1.255 1_455 S
C150 O151 1.258 . S
C150 O152 1.256 . S
O151 Cd143 2.381 . S
O151 C150 1.258 . S
O152 Cd143 2.378 . S
O152 C150 1.256 . S
O153 Cd154 2.300 . S
O153 C160 1.275 1_455 S
Cd154 O153 2.300 . S
Cd154 O162 2.381 . S
Cd154 O163 2.378 . S
O155 Cd156 2.385 . S
O155 C160 1.255 . S
Cd156 O155 2.385 . S
Cd156 O157 2.317 . S
O157 Cd156 2.317 . S
O157 C158 1.232 . S
C158 O157 1.232 . S
C158 O159 1.218 . S
O159 C158 1.218 . S
C160 O153 1.275 1_655 S
C160 O155 1.255 . S
C161 O162 1.258 . S
C161 O163 1.256 . S
O162 Cd154 2.381 . S
O162 C161 1.258 . S
O163 Cd154 2.378 . S
O163 C161 1.256 . S
O164 Cd165 2.300 . S
O164 C171 1.275 1_565 S
Cd165 O164 2.300 . S
Cd165 O173 2.381 . S
Cd165 O174 2.378 . S
O166 Cd167 2.385 . S
O166 C171 1.255 . S
Cd167 O166 2.385 . S
Cd167 O168 2.317 . S
O168 Cd167 2.317 . S
O168 C169 1.232 . S
C169 O168 1.232 . S
C169 O170 1.218 . S
O170 C169 1.218 . S
C171 O164 1.275 1_545 S
C171 O166 1.255 . S
C172 O173 1.258 . S
C172 O174 1.256 . S
O173 Cd165 2.381 . S
O173 C172 1.258 . S
O174 Cd165 2.378 . S
O174 C172 1.256 . S
O175 Cd176 2.300 . S
O175 C182 1.275 . S
Cd176 O175 2.300 . S
Cd176 O184 2.381 . S
Cd176 O185 2.378 . S
O177 Cd178 2.385 . S
O177 C182 1.255 . S
Cd178 O177 2.385 . S
Cd178 O179 2.317 . S
O179 Cd178 2.317 . S
O179 C180 1.232 . S
C180 O179 1.232 . S
C180 O181 1.218 . S
O181 C180 1.218 . S
C182 O175 1.275 . S
C182 O177 1.255 . S
C183 O184 1.258 . S
C183 O185 1.256 . S
O184 Cd176 2.381 . S
O184 C183 1.258 . S
O185 Cd176 2.378 . S
O185 C183 1.256 . S
C186 C187 1.170 . S
C186 C188 1.380 . S
C187 C186 1.170 . S
C188 C186 1.380 . S
C188 C189 1.170 . S
C189 C188 1.170 . S
C190 C191 1.170 . S
C190 C192 1.380 . S
C191 C190 1.170 . S
C192 C190 1.380 . S
C192 C193 1.170 . S
C193 C192 1.170 . S
C194 C195 1.170 . S
C194 C196 1.380 . S
C195 C194 1.170 . S
C196 C194 1.380 . S
C196 C197 1.170 . S
C197 C196 1.170 . S
C198 C199 1.170 . S
C198 C200 1.380 . S
C199 C198 1.170 . S
C200 C198 1.380 . S
C200 C201 1.170 . S
C201 C200 1.170 . S
C202 C203 1.170 . S
C202 C204 1.380 . S
C203 C202 1.170 . S
C204 C202 1.380 . S
C204 C205 1.170 . S
C205 C204 1.170 . S
C206 C207 1.170 . S
C206 C208 1.380 . S
C207 C206 1.170 . S
C208 C206 1.380 . S
C208 C209 1.170 . S
C209 C208 1.170 . S
C210 C211 1.170 . S
C210 C212 1.380 . S
C211 C210 1.170 . S
C212 C210 1.380 . S
C212 C213 1.170 . S
C213 C212 1.170 . S
C214 C215 1.170 . S
C214 C216 1.380 . S
C215 C214 1.170 . S
C216 C214 1.380 . S
C216 C217 1.170 . S
C217 C216 1.170 . S
C218 C219 1.170 . S
C218 C220 1.380 . S
C219 C218 1.170 . S
C220 C218 1.380 . S
C220 C221 1.170 . S
C221 C220 1.170 . S
C222 C223 1.170 . S
C222 C224 1.380 . S
C223 C222 1.170 . S
C224 C222 1.380 . S
C224 C225 1.170 . S
C225 C224 1.170 . S
C226 C227 1.170 . S
C226 C228 1.380 . S
C227 C226 1.170 . S
C228 C226 1.380 . S
C228 C229 1.170 . S
C229 C228 1.170 . S
C230 C231 1.170 . S
C230 C232 1.380 . S
C231 C230 1.170 . S
C232 C230 1.380 . S
C232 C233 1.170 . S
C233 C232 1.170 . S
C234 C235 1.170 . S
C234 C236 1.380 . S
C235 C234 1.170 . S
C236 C234 1.380 . S
C236 C237 1.170 1_554 S
C237 C236 1.170 1_556 S
C238 C239 1.170 . S
C238 C240 1.380 . S
C239 C238 1.170 . S
C240 C238 1.380 . S
C240 C241 1.170 . S
C241 C240 1.170 . S
C242 C243 1.170 . S
C242 C244 1.380 . S
C243 C242 1.170 . S
C244 C242 1.380 . S
C244 C245 1.170 . S
C245 C244 1.170 . S
C246 C247 1.170 . S
C246 C248 1.380 . S
C247 C246 1.170 . S
C248 C246 1.380 . S
C248 C249 1.170 . S
C249 C248 1.170 . S
C250 C251 1.170 . S
C250 C252 1.380 . S
C251 C250 1.170 . S
C252 C250 1.380 . S
C252 C253 1.170 1_556 S
C253 C252 1.170 1_554 S
C254 C255 1.170 . S
C254 C256 1.380 . S
C255 C254 1.170 . S
C256 C254 1.380 . S
C256 C257 1.170 1_455 S
C257 C256 1.170 1_655 S
C187 C7 0.918 . S
C189 C180 0.705 . S
C191 C51 2.041 . S
C193 C158 1.748 . S
C195 C87 1.150 . S
C197 C172 1.154 . S
C199 C16 0.541 . S
C201 C183 0.354 . S
C205 C161 1.855 . S
C203 C42 1.927 . S
C209 C169 1.282 . S
C207 C96 1.395 . S
C211 C47 1.363 . S
C213 C136 1.140 . S
C215 C91 3.263 . S
C217 C147 2.931 . S
C219 C2 2.110 . S
C221 C125 1.801 . S
C225 C139 1.160 . S
C223 C56 1.163 . S
C229 C150 2.901 . S
C227 C82 2.974 . S
C231 C11 1.857 . S
C233 C128 1.813 . S
C237 C149 1.663 . S
C235 C19 1.672 . S
C239 C50 1.398 . S
C241 C127 1.377 . S
C243 C99 1.536 . S
C245 C138 1.495 . S
C249 C171 1.412 . S
C247 C59 1.472 . S
C253 C182 1.173 . S
C251 C90 1.212 . S
C255 C10 1.416 . S
C257 C160 1.371 . S
