# Generated by pormake.
# Topology zzz, (3,6)-cn, num edge types: 1
# Building blocks:
#     Node 0, Type 0, BuildingBlock: OLANEW_clean_sbu_2, # of connection points: 3
#     Node 1, Type 0, BuildingBlock: OLANEW_clean_sbu_2, # of connection points: 3
#     Node 2, Type 0, BuildingBlock: OLANEW_clean_sbu_2, # of connection points: 3
#     Node 3, Type 0, BuildingBlock: OLANEW_clean_sbu_2, # of connection points: 3
#     Node 4, Type 0, BuildingBlock: OLANEW_clean_sbu_2, # of connection points: 3
#     Node 5, Type 0, BuildingBlock: OLANEW_clean_sbu_2, # of connection points: 3
#     Node 6, Type 0, BuildingBlock: OLANEW_clean_sbu_2, # of connection points: 3
#     Node 7, Type 0, BuildingBlock: OLANEW_clean_sbu_2, # of connection points: 3
#     Node 8, Type 1, BuildingBlock: BETFEN_clean_sbu_0, # of connection points: 6
#     Node 9, Type 1, BuildingBlock: BETFEN_clean_sbu_0, # of connection points: 6
#     Node 10, Type 1, BuildingBlock: BETFEN_clean_sbu_0, # of connection points: 6
#     Node 11, Type 1, BuildingBlock: BETFEN_clean_sbu_0, # of connection points: 6
#     Edge 12, Type (0, 1), BuildingBlock: EYOCIG_clean_linker_4, # of connection points: 2
#     Edge 13, Type (0, 1), BuildingBlock: EYOCIG_clean_linker_4, # of connection points: 2
#     Edge 14, Type (0, 1), BuildingBlock: EYOCIG_clean_linker_4, # of connection points: 2
#     Edge 15, Type (0, 1), BuildingBlock: EYOCIG_clean_linker_4, # of connection points: 2
#     Edge 16, Type (0, 1), BuildingBlock: EYOCIG_clean_linker_4, # of connection points: 2
#     Edge 17, Type (0, 1), BuildingBlock: EYOCIG_clean_linker_4, # of connection points: 2
#     Edge 18, Type (0, 1), BuildingBlock: EYOCIG_clean_linker_4, # of connection points: 2
#     Edge 19, Type (0, 1), BuildingBlock: EYOCIG_clean_linker_4, # of connection points: 2
#     Edge 20, Type (0, 1), BuildingBlock: EYOCIG_clean_linker_4, # of connection points: 2
#     Edge 21, Type (0, 1), BuildingBlock: EYOCIG_clean_linker_4, # of connection points: 2
#     Edge 22, Type (0, 1), BuildingBlock: EYOCIG_clean_linker_4, # of connection points: 2
#     Edge 23, Type (0, 1), BuildingBlock: EYOCIG_clean_linker_4, # of connection points: 2
#     Edge 24, Type (0, 1), BuildingBlock: EYOCIG_clean_linker_4, # of connection points: 2
#     Edge 25, Type (0, 1), BuildingBlock: EYOCIG_clean_linker_4, # of connection points: 2
#     Edge 26, Type (0, 1), BuildingBlock: EYOCIG_clean_linker_4, # of connection points: 2
#     Edge 27, Type (0, 1), BuildingBlock: EYOCIG_clean_linker_4, # of connection points: 2
#     Edge 28, Type (0, 1), BuildingBlock: EYOCIG_clean_linker_4, # of connection points: 2
#     Edge 29, Type (0, 1), BuildingBlock: EYOCIG_clean_linker_4, # of connection points: 2
#     Edge 30, Type (0, 1), BuildingBlock: EYOCIG_clean_linker_4, # of connection points: 2
#     Edge 31, Type (0, 1), BuildingBlock: EYOCIG_clean_linker_4, # of connection points: 2
#     Edge 32, Type (0, 1), BuildingBlock: EYOCIG_clean_linker_4, # of connection points: 2
#     Edge 33, Type (0, 1), BuildingBlock: EYOCIG_clean_linker_4, # of connection points: 2
#     Edge 34, Type (0, 1), BuildingBlock: EYOCIG_clean_linker_4, # of connection points: 2
#     Edge 35, Type (0, 1), BuildingBlock: EYOCIG_clean_linker_4, # of connection points: 2
# Relax obj value: 0.294
# Max RMSD: 0.206
# Mean RMSD: 0.173
data_MOF--net-zzz--node1-OLANEW_clean_sbu_2--node2-BETFEN_clean_sbu_0--edge1-EYOCIG_clean_linker_4
_symmetry_space_group_name_H-M    P1
_symmetry_Int_Tables_number       1
_symmetry_cell_setting            triclinic
loop_
_symmetry_equiv_pos_as_xyz
'x, y, z'
_cell_length_a     46.03502
_cell_length_b     46.049293
_cell_length_c     12.473321
_cell_angle_alpha  89.647406
_cell_angle_beta   89.892015
_cell_angle_gamma 90.006709
loop_
_atom_site_label
_atom_site_type_symbol
_atom_site_fract_x
_atom_site_fract_y
_atom_site_fract_z
_atom_type_partial_charge
O0 O 0.71675 0.49467 0.31229 0.0
Cd1 Cd 0.6732 0.49578 0.42309 0.0
O2 O 0.72632 0.46916 0.45465 0.0
Cd3 Cd 0.75514 0.44717 0.56179 0.0
O4 O 0.78748 0.47888 0.60292 0.0
C5 C 0.80481 0.47503 0.67998 0.0
O6 O 0.80169 0.45229 0.7429 0.0
C7 C 0.73435 0.47901 0.36422 0.0
C8 C 0.62745 0.49112 0.28424 0.0
O9 O 0.63879 0.51573 0.30603 0.0
O10 O 0.63698 0.46822 0.33123 0.0
O11 O 0.9904 0.71515 0.30767 0.0
Cd12 Cd 0.98949 0.67219 0.42203 0.0
O13 O 0.01648 0.72577 0.44654 0.0
Cd14 Cd 0.03974 0.75491 0.54751 0.0
O15 O 0.0094 0.78829 0.59104 0.0
C16 C 0.01296 0.80413 0.67213 0.0
O17 O 0.03465 0.79899 0.73773 0.0
C18 C 0.00665 0.73294 0.35527 0.0
C19 C -0.00224 0.62676 0.28418 0.0
O20 O 0.97243 0.63691 0.30333 0.0
O21 O 0.01969 0.6372 0.33397 0.0
O22 O 0.77855 0.99109 0.30974 0.0
Cd23 Cd 0.82163 0.98921 0.42271 0.0
O24 O 0.76847 0.017 0.4495 0.0
Cd25 Cd 0.73988 0.04027 0.55321 0.0
O26 O 0.7072 0.00925 0.59917 0.0
C27 C 0.69072 0.01303 0.67881 0.0
O28 O 0.69499 0.03527 0.74223 0.0
C29 C 0.76101 0.00743 0.35853 0.0
C30 C 0.86734 0.99696 0.28414 0.0
O31 O 0.85686 0.97175 0.30363 0.0
O32 O 0.85709 0.01897 0.33385 0.0
O33 O 0.49568 0.7774 0.31445 0.0
Cd34 Cd 0.49571 0.82074 0.42513 0.0
O35 O 0.46928 0.76757 0.45414 0.0
Cd36 Cd 0.44665 0.73878 0.56011 0.0
O37 O 0.47864 0.7068 0.60325 0.0
C38 C 0.47536 0.68983 0.68217 0.0
O39 O 0.45292 0.69303 0.74612 0.0
C40 C 0.47973 0.75968 0.36482 0.0
C41 C 0.49107 0.86631 0.28427 0.0
O42 O 0.51577 0.85554 0.30922 0.0
O43 O 0.46806 0.85636 0.32929 0.0
O44 O 0.27865 0.50783 0.21145 0.0
Cd45 Cd 0.3199 0.50006 0.09404 0.0
O46 O 0.26219 0.47765 0.09416 0.0
Cd47 Cd 0.23333 0.46189 0.97481 0.0
O48 O 0.21167 0.49357 0.87722 0.0
C49 C 0.19541 0.48321 0.806 0.0
O50 O 0.20387 0.45981 0.75517 0.0
C51 C 0.25715 0.49561 0.16878 0.0
C52 C 0.36728 0.49824 0.22447 0.0
O53 O 0.35588 0.52257 0.19794 0.0
O54 O 0.35709 0.47471 0.18535 0.0
O55 O 0.99639 0.27893 0.21823 0.0
Cd56 Cd 0.00501 0.31967 0.09874 0.0
O57 O 0.02492 0.2616 0.09669 0.0
Cd58 Cd 0.03843 0.23272 0.97388 0.0
O59 O 0.00732 0.2114 0.87421 0.0
C60 C 0.01824 0.19481 0.80515 0.0
O61 O 0.04263 0.20253 0.7584 0.0
C62 C 0.00723 0.25708 0.17322 0.0
C63 C 0.00347 0.36697 0.22826 0.0
O64 O 0.97986 0.35503 0.19728 0.0
O65 O 0.02783 0.35747 0.19338 0.0
O66 O 0.21572 0.99559 0.21456 0.0
Cd67 Cd 0.17544 0.00482 0.09421 0.0
O68 O 0.23411 0.02465 0.09588 0.0
Cd69 Cd 0.26421 0.03872 0.9767 0.0
O70 O 0.28316 0.00717 0.87183 0.0
C71 C 0.29996 0.01757 0.80167 0.0
O72 O 0.2923 0.04153 0.7518 0.0
C73 C 0.23796 0.00674 0.17233 0.0
C74 C 0.12783 0.00445 0.22392 0.0
O75 O 0.1394 0.98059 0.19376 0.0
O76 O 0.1378 0.02858 0.18792 0.0
O77 O 0.50851 0.21582 0.20625 0.0
Cd78 Cd 0.50038 0.17496 0.0885 0.0
O79 O 0.47759 0.23399 0.09389 0.0
Cd80 Cd 0.46146 0.26504 0.98141 0.0
O81 O 0.49413 0.28266 0.87598 0.0
C82 C 0.48483 0.29934 0.80335 0.0
O83 O 0.46236 0.29105 0.74665 0.0
C84 C 0.49585 0.23787 0.16865 0.0
C85 C 0.49752 0.12795 0.22194 0.0
O86 O 0.5221 0.13869 0.19468 0.0
O87 O 0.4742 0.1385 0.18172 0.0
Pr88 Pr 0.01685 0.98371 0.84776 0.0
Pr89 Pr 0.9777 0.01064 0.65545 0.0
C90 C 0.03052 0.94808 0.0124 0.0
C91 C 0.03301 0.91628 0.03453 0.0
C92 C 0.06029 0.90257 0.04474 0.0
C93 C 0.06222 0.87362 0.08121 0.0
C94 C 0.03684 0.85821 0.10793 0.0
C95 C 0.00978 0.87112 0.09094 0.0
C96 C 0.00782 0.89977 0.05488 0.0
C97 C 0.04553 0.99426 0.65706 0.0
C98 C 0.98153 0.94015 0.67119 0.0
C99 C 0.96453 0.04758 0.49346 0.0
C100 C 0.96197 0.07951 0.47161 0.0
C101 C 0.93467 0.0932 0.4596 0.0
C102 C 0.93274 0.12185 0.41937 0.0
C103 C 0.95816 0.13697 0.39082 0.0
C104 C 0.98517 0.12433 0.41117 0.0
C105 C 0.98713 0.09601 0.45075 0.0
C106 C 0.94911 2e-05 0.84687 0.0
C107 C 0.01139 0.05399 0.83578 0.0
O108 O 0.00431 0.9582 0.99497 0.0
O109 O 0.05046 0.96077 0.95312 0.0
O110 O 0.01999 0.98487 0.66565 0.0
O111 O 0.05874 0.99586 0.74927 0.0
O112 O 0.97431 0.96172 0.60564 0.0
O113 O 0.99498 0.944 0.76339 0.0
O114 O 0.99069 0.03734 0.51114 0.0
O115 O 0.94444 0.03454 0.55104 0.0
O116 O 0.9746 0.00944 0.83743 0.0
O117 O 0.93592 -0.00158 0.7546 0.0
O118 O 0.01902 0.03237 0.90008 0.0
O119 O -0.00124 0.05025 0.74217 0.0
H120 H 0.0801 0.91456 0.02891 0.0
H121 H 0.08339 0.86383 0.09296 0.0
H122 H 0.98999 0.85943 0.11028 0.0
H123 H 0.98641 0.90928 0.04735 0.0
H124 H 0.91485 0.08129 0.47606 0.0
H125 H 0.91158 0.13147 0.40564 0.0
H126 H 0.005 0.13586 0.39095 0.0
H127 H 0.00855 0.08663 0.45975 0.0
Pr128 Pr 0.51109 0.01625 0.84749 0.0
Pr129 Pr 0.48461 0.97732 0.6552 0.0
C130 C 0.54638 0.02993 0.012 0.0
C131 C 0.57812 0.03246 0.03496 0.0
C132 C 0.59176 0.05977 0.04491 0.0
C133 C 0.62053 0.06178 0.08255 0.0
C134 C 0.63584 0.03647 0.11074 0.0
C135 C 0.62304 0.00938 0.09408 0.0
C136 C 0.59456 0.00733 0.05681 0.0
C137 C 0.50126 0.04501 0.65622 0.0
C138 C 0.55512 0.98057 0.67286 0.0
C139 C 0.44809 0.96484 0.49246 0.0
C140 C 0.41618 0.96246 0.47051 0.0
C141 C 0.40228 0.93526 0.45975 0.0
C142 C 0.37359 0.9335 0.42063 0.0
C143 C 0.35861 0.95897 0.39187 0.0
C144 C 0.37153 0.98591 0.4104 0.0
C145 C 0.39989 0.98771 0.44891 0.0
C146 C 0.49406 0.94867 0.84742 0.0
C147 C 0.4408 0.01106 0.83512 0.0
O148 O 0.5363 0.00373 0.99498 0.0
O149 O 0.53388 0.04985 0.95214 0.0
O150 O 0.51062 0.01946 0.6652 0.0
O151 O 0.49919 0.0581 0.74836 0.0
O152 O 0.53375 0.97338 0.607 0.0
O153 O 0.55096 0.99414 0.76447 0.0
O154 O 0.45835 0.99089 0.51112 0.0
O155 O 0.46094 0.94452 0.5494 0.0
O156 O 0.48506 0.97425 0.83699 0.0
O157 O 0.49577 0.93535 0.75554 0.0
O158 O 0.46228 0.01847 0.89971 0.0
O159 O 0.44479 -0.00148 0.7415 0.0
H160 H 0.57983 0.07954 0.02799 0.0
H161 H 0.63023 0.08298 0.09394 0.0
H162 H 0.63466 0.98964 0.11448 0.0
H163 H 0.58511 0.98591 0.04957 0.0
H164 H 0.41402 0.91538 0.47663 0.0
H165 H 0.36378 0.91239 0.40816 0.0
H166 H 0.36014 0.00579 0.38988 0.0
H167 H 0.40946 0.00906 0.45677 0.0
Pr168 Pr 0.47799 0.51042 0.84818 0.0
Pr169 Pr 0.51819 0.48528 0.65542 0.0
C170 C 0.46349 0.5451 0.0131 0.0
C171 C 0.4606 0.57674 0.03642 0.0
C172 C 0.43313 0.58988 0.04911 0.0
C173 C 0.43081 0.61829 0.08937 0.0
C174 C 0.45597 0.63374 0.11738 0.0
C175 C 0.48321 0.62163 0.09679 0.0
C176 C 0.48557 0.5935 0.05689 0.0
C177 C 0.45017 0.50084 0.65581 0.0
C178 C 0.51322 0.55572 0.67497 0.0
C179 C 0.53149 0.44949 0.49148 0.0
C180 C 0.53442 0.41768 0.46872 0.0
C181 C 0.56184 0.4042 0.45758 0.0
C182 C 0.56407 0.37552 0.419 0.0
C183 C 0.53884 0.36013 0.39105 0.0
C184 C 0.51169 0.37271 0.40929 0.0
C185 C 0.50944 0.40104 0.44729 0.0
C186 C 0.54594 0.49475 0.84844 0.0
C187 C 0.48517 0.44026 0.83552 0.0
O188 O 0.48985 0.53534 0.99616 0.0
O189 O 0.44383 0.53251 0.9531 0.0
O190 O 0.47555 0.51047 0.66592 0.0
O191 O 0.43668 0.49832 0.7475 0.0
O192 O 0.52116 0.53471 0.6088 0.0
O193 O 0.49945 0.55099 0.7663 0.0
O194 O 0.50523 0.45921 0.51095 0.0
O195 O 0.55154 0.46254 0.54836 0.0
O196 O 0.52054 0.48538 0.83703 0.0
O197 O 0.55965 0.4968 0.75696 0.0
O198 O 0.47679 0.46145 0.89972 0.0
O199 O 0.49798 0.44472 0.74217 0.0
H200 H 0.41348 0.57774 0.03289 0.0
H201 H 0.4095 0.62754 0.10333 0.0
H202 H 0.50284 0.63344 0.1166 0.0
H203 H 0.50711 0.58447 0.04708 0.0
H204 H 0.58153 0.41623 0.47409 0.0
H205 H 0.58534 0.36602 0.40657 0.0
H206 H 0.492 0.36103 0.38923 0.0
H207 H 0.48793 0.41029 0.45523 0.0
Pr208 Pr 0.98437 0.47783 0.849 0.0
Pr209 Pr 0.00995 0.5178 0.65526 0.0
C210 C 0.94925 0.46322 0.01368 0.0
C211 C 0.91756 0.45992 0.0362 0.0
C212 C 0.90473 0.43228 0.04907 0.0
C213 C 0.87626 0.42959 0.08937 0.0
C214 C 0.86046 0.45455 0.11713 0.0
C215 C 0.87224 0.48194 0.0959 0.0
C216 C 0.90043 0.48466 0.05601 0.0
C217 C 0.99504 0.44965 0.65848 0.0
C218 C 0.93941 0.51217 0.6732 0.0
C219 C 0.04624 0.53124 0.49168 0.0
C220 C 0.07806 0.53461 0.46901 0.0
C221 C 0.09108 0.56222 0.45597 0.0
C222 C 0.11958 0.56483 0.41511 0.0
C223 C 0.13524 0.5398 0.38691 0.0
C224 C 0.12328 0.51249 0.40822 0.0
C225 C 0.09511 0.50986 0.44842 0.0
C226 C -0.00013 0.54587 0.84725 0.0
C227 C 0.05447 0.48508 0.83646 0.0
O228 O 0.95872 0.48968 0.99582 0.0
O229 O 0.96238 0.4436 0.95498 0.0
O230 O 0.9851 0.47496 0.66692 0.0
O231 O 0.99729 0.43641 0.75087 0.0
O232 O 0.96065 0.52019 0.60735 0.0
O233 O 0.94388 0.49863 0.76524 0.0
O234 O 0.03684 0.50489 0.51219 0.0
O235 O 0.03268 0.55122 0.54727 0.0
O236 O 0.00931 0.52048 0.83689 0.0
O237 O -0.00191 0.55941 0.75523 0.0
O238 O 0.03315 0.47697 0.90126 0.0
O239 O 0.05024 0.49758 0.74238 0.0
H240 H 0.91716 0.4128 0.03318 0.0
H241 H 0.86725 0.40817 0.10373 0.0
H242 H 0.86014 0.50141 0.11542 0.0
H243 H 0.90922 0.50632 0.04591 0.0
H244 H 0.07875 0.58174 0.47217 0.0
H245 H 0.12868 0.58621 0.4007 0.0
H246 H 0.13523 0.49295 0.38833 0.0
H247 H 0.08625 0.48822 0.45813 0.0
C248 C 0.08896 0.00283 0.37793 0.0
C249 C 0.10669 0.0042 0.30744 0.0
C250 C 0.07208 0.0004 0.47143 0.0
C251 C 0.05975 -0.00246 0.55581 0.0
C252 C 0.49609 0.08919 0.37702 0.0
C253 C 0.49606 0.10688 0.30594 0.0
C254 C 0.49713 0.0721 0.4706 0.0
C255 C 0.49908 0.05953 0.55498 0.0
C256 C 0.40664 0.49727 0.37636 0.0
C257 C 0.38867 0.49718 0.30678 0.0
C258 C 0.42373 0.49794 0.46943 0.0
C259 C 0.43602 0.49933 0.55413 0.0
C260 C 0.00154 0.4059 0.3808 0.0
C261 C 0.00276 0.38812 0.31103 0.0
C262 C -0.00026 0.42294 0.47353 0.0
C263 C -0.00247 0.43535 0.55757 0.0
C264 C 0.90554 0.00036 0.12793 0.0
C265 C 0.88824 0.00039 0.20022 0.0
C266 C 0.92223 -0.0006 0.0334 0.0
C267 C 0.9343 -0.00037 0.94779 0.0
C268 C 0.49064 0.90453 0.12735 0.0
C269 C 0.48938 0.88721 0.1996 0.0
C270 C 0.49282 0.9214 0.03337 0.0
C271 C 0.49337 0.9339 0.94852 0.0
C272 C 0.58899 0.49076 0.12927 0.0
C273 C 0.60636 0.48934 0.20085 0.0
C274 C 0.57234 0.49316 0.03529 0.0
C275 C 0.56024 0.49388 0.95 0.0
C276 C 0.00127 0.58896 0.128 0.0
C277 C 0.00137 0.60608 0.20036 0.0
C278 C 6e-05 0.57243 0.03361 0.0
C279 C -2e-05 0.56027 0.94855 0.0
C280 C 0.98153 0.20834 0.23153 0.0
C281 C 0.99499 0.22899 0.19738 0.0
C282 C 0.96626 0.18534 0.28278 0.0
C283 C 0.95806 0.16408 0.33162 0.0
C284 C 0.28665 0.98178 0.23538 0.0
C285 C 0.26595 0.99482 0.19978 0.0
C286 C 0.30986 0.96697 0.28681 0.0
C287 C 0.3313 0.95897 0.33458 0.0
C288 C 0.51818 0.28723 0.23668 0.0
C289 C 0.50626 0.26614 0.19945 0.0
C290 C 0.53194 0.31092 0.28834 0.0
C291 C 0.53932 0.33267 0.3351 0.0
C292 C 0.2073 0.51886 0.22759 0.0
C293 C 0.22853 0.50641 0.19356 0.0
C294 C 0.18372 0.53309 0.27861 0.0
C295 C 0.16227 0.54056 0.32743 0.0
C296 C 0.02284 0.78214 0.26144 0.0
C297 C 0.01538 0.75966 0.30385 0.0
C298 C 0.03216 0.80767 0.20737 0.0
C299 C 0.03741 0.83033 0.1618 0.0
C300 C 0.71172 0.0234 0.26567 0.0
C301 C 0.73413 0.01629 0.30899 0.0
C302 C 0.68617 0.03226 0.21111 0.0
C303 C 0.66357 0.03719 0.16508 0.0
C304 C 0.46661 0.70896 0.27823 0.0
C305 C 0.47236 0.73201 0.31896 0.0
C306 C 0.45906 0.68311 0.22377 0.0
C307 C 0.45491 0.66083 0.17534 0.0
C308 C 0.78518 0.46523 0.27872 0.0
C309 C 0.76209 0.47129 0.31901 0.0
C310 C 0.81107 0.4574 0.22448 0.0
C311 C 0.83337 0.45319 0.17568 0.0
C312 C 0.01135 0.13932 0.84441 0.0
C313 C 0.01431 0.16476 0.82705 0.0
C314 C 0.0124 0.10946 0.86626 0.0
C315 C 0.01387 0.08346 0.86807 0.0
C316 C 0.35537 0.01136 0.84346 0.0
C317 C 0.32998 0.01406 0.82484 0.0
C318 C 0.38521 0.01234 0.8655 0.0
C319 C 0.41123 0.01364 0.86719 0.0
C320 C 0.48822 0.35485 0.84703 0.0
C321 C 0.48682 0.32942 0.82765 0.0
C322 C 0.48594 0.38466 0.86803 0.0
C323 C 0.48364 0.41062 0.8684 0.0
C324 C 0.13977 0.48788 0.84605 0.0
C325 C 0.16526 0.48587 0.82818 0.0
C326 C 0.10997 0.48584 0.86779 0.0
C327 C 0.08402 0.48356 0.86913 0.0
C328 C 0.98752 0.85518 0.66123 0.0
C329 C -0.00038 0.83212 0.6696 0.0
C330 C 0.97917 0.88431 0.64475 0.0
C331 C 0.97771 0.91042 0.64145 0.0
C332 C 0.64004 0.98691 0.66642 0.0
C333 C 0.6629 -0.00067 0.67531 0.0
C334 C 0.61107 0.97825 0.64868 0.0
C335 C 0.58498 0.97666 0.64405 0.0
C336 C 0.50362 0.64032 0.66903 0.0
C337 C 0.49026 0.66264 0.67803 0.0
C338 C 0.51355 0.61176 0.65128 0.0
C339 C 0.51616 0.58575 0.64636 0.0
C340 C 0.85467 0.50276 0.66523 0.0
C341 C 0.83213 0.48971 0.67427 0.0
C342 C 0.88342 0.51237 0.64797 0.0
C343 C 0.90946 0.51494 0.64386 0.0
loop_
_geom_bond_atom_site_label_1
_geom_bond_atom_site_label_2
_geom_bond_distance
_geom_bond_site_symmetry_2
_ccdc_geom_bond_type
O0 Cd1 2.300 . S
O0 C7 1.275 . S
Cd1 O0 2.300 . S
Cd1 O9 2.381 . S
Cd1 O10 2.378 . S
O2 Cd3 2.385 . S
O2 C7 1.255 . S
Cd3 O2 2.385 . S
Cd3 O4 2.317 . S
O4 Cd3 2.317 . S
O4 C5 1.232 . S
C5 O4 1.232 . S
C5 O6 1.218 . S
O6 C5 1.218 . S
C7 O0 1.275 . S
C7 O2 1.255 . S
C8 O9 1.258 . S
C8 O10 1.256 . S
O9 Cd1 2.381 . S
O9 C8 1.258 . S
O10 Cd1 2.378 . S
O10 C8 1.256 . S
O11 Cd12 2.300 1_655 S
O11 C18 1.275 1_655 S
Cd12 O11 2.300 1_455 S
Cd12 O20 2.381 1_455 S
Cd12 O21 2.378 . S
O13 Cd14 2.385 . S
O13 C18 1.255 . S
Cd14 O13 2.385 . S
Cd14 O15 2.317 . S
O15 Cd14 2.317 . S
O15 C16 1.232 . S
C16 O15 1.232 . S
C16 O17 1.218 . S
O17 C16 1.218 . S
C18 O11 1.275 1_455 S
C18 O13 1.255 . S
C19 O20 1.258 1_455 S
C19 O21 1.256 . S
O20 Cd12 2.381 1_655 S
O20 C19 1.258 1_655 S
O21 Cd12 2.378 . S
O21 C19 1.256 . S
O22 Cd23 2.300 1_565 S
O22 C29 1.275 1_565 S
Cd23 O22 2.300 1_545 S
Cd23 O31 2.381 1_545 S
Cd23 O32 2.378 . S
O24 Cd25 2.385 . S
O24 C29 1.255 . S
Cd25 O24 2.385 . S
Cd25 O26 2.317 . S
O26 Cd25 2.317 . S
O26 C27 1.232 . S
C27 O26 1.232 . S
C27 O28 1.218 . S
O28 C27 1.218 . S
C29 O22 1.275 1_545 S
C29 O24 1.255 . S
C30 O31 1.258 1_545 S
C30 O32 1.256 . S
O31 Cd23 2.381 1_565 S
O31 C30 1.258 1_565 S
O32 Cd23 2.378 . S
O32 C30 1.256 . S
O33 Cd34 2.300 . S
O33 C40 1.275 . S
Cd34 O33 2.300 . S
Cd34 O42 2.381 . S
Cd34 O43 2.378 . S
O35 Cd36 2.385 . S
O35 C40 1.255 . S
Cd36 O35 2.385 . S
Cd36 O37 2.317 . S
O37 Cd36 2.317 . S
O37 C38 1.232 . S
C38 O37 1.232 . S
C38 O39 1.218 . S
O39 C38 1.218 . S
C40 O33 1.275 . S
C40 O35 1.255 . S
C41 O42 1.258 . S
C41 O43 1.256 . S
O42 Cd34 2.381 . S
O42 C41 1.258 . S
O43 Cd34 2.378 . S
O43 C41 1.256 . S
O44 Cd45 2.300 . S
O44 C51 1.275 . S
Cd45 O44 2.300 . S
Cd45 O53 2.381 . S
Cd45 O54 2.378 . S
O46 Cd47 2.385 1_554 S
O46 C51 1.255 . S
Cd47 O46 2.385 1_556 S
Cd47 O48 2.317 . S
O48 Cd47 2.317 . S
O48 C49 1.232 . S
C49 O48 1.232 . S
C49 O50 1.218 . S
O50 C49 1.218 . S
C51 O44 1.275 . S
C51 O46 1.255 . S
C52 O53 1.258 . S
C52 O54 1.256 . S
O53 Cd45 2.381 . S
O53 C52 1.258 . S
O54 Cd45 2.378 . S
O54 C52 1.256 . S
O55 Cd56 2.300 1_655 S
O55 C62 1.275 1_655 S
Cd56 O55 2.300 1_455 S
Cd56 O64 2.381 1_455 S
Cd56 O65 2.378 . S
O57 Cd58 2.385 1_554 S
O57 C62 1.255 . S
Cd58 O57 2.385 1_556 S
Cd58 O59 2.317 . S
O59 Cd58 2.317 . S
O59 C60 1.232 . S
C60 O59 1.232 . S
C60 O61 1.218 . S
O61 C60 1.218 . S
C62 O55 1.275 1_455 S
C62 O57 1.255 . S
C63 O64 1.258 1_455 S
C63 O65 1.256 . S
O64 Cd56 2.381 1_655 S
O64 C63 1.258 1_655 S
O65 Cd56 2.378 . S
O65 C63 1.256 . S
O66 Cd67 2.300 1_565 S
O66 C73 1.275 1_565 S
Cd67 O66 2.300 1_545 S
Cd67 O75 2.381 1_545 S
Cd67 O76 2.378 . S
O68 Cd69 2.385 1_554 S
O68 C73 1.255 . S
Cd69 O68 2.385 1_556 S
Cd69 O70 2.317 . S
O70 Cd69 2.317 . S
O70 C71 1.232 . S
C71 O70 1.232 . S
C71 O72 1.218 . S
O72 C71 1.218 . S
C73 O66 1.275 1_545 S
C73 O68 1.255 . S
C74 O75 1.258 1_545 S
C74 O76 1.256 . S
O75 Cd67 2.381 1_565 S
O75 C74 1.258 1_565 S
O76 Cd67 2.378 . S
O76 C74 1.256 . S
O77 Cd78 2.300 . S
O77 C84 1.275 . S
Cd78 O77 2.300 . S
Cd78 O86 2.381 . S
Cd78 O87 2.378 . S
O79 Cd80 2.385 1_554 S
O79 C84 1.255 . S
Cd80 O79 2.385 1_556 S
Cd80 O81 2.317 . S
O81 Cd80 2.317 . S
O81 C82 1.232 . S
C82 O81 1.232 . S
C82 O83 1.218 . S
O83 C82 1.218 . S
C84 O77 1.275 . S
C84 O79 1.255 . S
C85 O86 1.258 . S
C85 O87 1.256 . S
O86 Cd78 2.381 . S
O86 C85 1.258 . S
O87 Cd78 2.378 . S
O87 C85 1.256 . S
Pr88 C90 2.880 . S
Pr88 O108 2.562 . S
Pr88 O109 2.490 . S
Pr88 O110 2.695 1_565 S
Pr88 O111 2.512 . S
Pr88 O113 2.437 . S
Pr88 O116 2.436 1_455 S
Pr88 O118 2.438 1_565 S
Pr89 C99 2.880 . S
Pr89 O110 2.436 1_655 S
Pr89 O112 2.438 1_545 S
Pr89 O114 2.562 . S
Pr89 O115 2.490 . S
Pr89 O116 2.695 1_545 S
Pr89 O117 2.512 . S
Pr89 O119 2.437 . S
C90 Pr88 2.880 . S
C90 C91 1.491 1_556 S
C90 O108 1.254 . S
C90 O109 1.225 . S
C91 C90 1.491 1_554 S
C91 C92 1.392 . S
C91 C96 1.356 . S
C92 C91 1.392 . S
C92 C93 1.368 . S
C92 H120 0.929 . S
C93 C92 1.368 . S
C93 C94 1.386 . S
C93 H121 0.929 . S
C94 C93 1.386 . S
C94 C95 1.373 . S
C95 C94 1.373 . S
C95 C96 1.409 . S
C95 H122 0.931 1_455 S
C96 C91 1.356 . S
C96 C95 1.409 . S
C96 H123 0.930 1_455 S
C97 O110 1.270 1_565 S
C97 O111 1.248 . S
C98 O112 1.267 . S
C98 O113 1.278 1_655 S
C99 Pr89 2.880 . S
C99 C100 1.491 . S
C99 O114 1.254 . S
C99 O115 1.225 . S
C100 C99 1.491 . S
C100 C101 1.392 . S
C100 C105 1.356 . S
C101 C100 1.392 . S
C101 C102 1.368 . S
C101 H124 0.929 . S
C102 C101 1.368 . S
C102 C103 1.386 . S
C102 H125 0.929 . S
C103 C102 1.386 . S
C103 C104 1.373 . S
C104 C103 1.373 . S
C104 C105 1.409 . S
C104 H126 0.931 1_655 S
C105 C100 1.356 . S
C105 C104 1.409 . S
C105 H127 0.930 1_655 S
C106 O116 1.270 1_545 S
C106 O117 1.248 . S
C107 O118 1.267 . S
C107 O119 1.278 1_455 S
O108 Pr88 2.562 . S
O108 C90 1.254 . S
O109 Pr88 2.490 . S
O109 C90 1.225 . S
O110 Pr88 2.695 1_545 S
O110 Pr89 2.436 1_455 S
O110 C97 1.270 1_545 S
O111 Pr88 2.512 . S
O111 C97 1.248 . S
O112 Pr89 2.438 1_565 S
O112 C98 1.267 . S
O113 Pr88 2.437 . S
O113 C98 1.278 1_455 S
O114 Pr89 2.562 . S
O114 C99 1.254 . S
O115 Pr89 2.490 . S
O115 C99 1.225 . S
O116 Pr88 2.436 1_655 S
O116 Pr89 2.695 1_565 S
O116 C106 1.270 1_565 S
O117 Pr89 2.512 . S
O117 C106 1.248 . S
O118 Pr88 2.438 1_545 S
O118 C107 1.267 . S
O119 Pr89 2.437 . S
O119 C107 1.278 1_655 S
H120 C92 0.929 . S
H121 C93 0.929 . S
H122 C95 0.931 1_655 S
H123 C96 0.930 1_655 S
H124 C101 0.929 . S
H125 C102 0.929 . S
H126 C104 0.931 1_455 S
H127 C105 0.930 1_455 S
Pr128 C130 2.880 . S
Pr128 O148 2.562 . S
Pr128 O149 2.490 . S
Pr128 O150 2.695 . S
Pr128 O151 2.512 . S
Pr128 O153 2.437 . S
Pr128 O156 2.436 1_545 S
Pr128 O158 2.438 . S
Pr129 C139 2.880 . S
Pr129 O150 2.436 1_565 S
Pr129 O152 2.438 . S
Pr129 O154 2.562 . S
Pr129 O155 2.490 . S
Pr129 O156 2.695 . S
Pr129 O157 2.512 . S
Pr129 O159 2.437 . S
C130 Pr128 2.880 . S
C130 C131 1.491 1_556 S
C130 O148 1.254 . S
C130 O149 1.225 . S
C131 C130 1.491 1_554 S
C131 C132 1.392 . S
C131 C136 1.356 . S
C132 C131 1.392 . S
C132 C133 1.368 . S
C132 H160 0.929 . S
C133 C132 1.368 . S
C133 C134 1.386 . S
C133 H161 0.929 . S
C134 C133 1.386 . S
C134 C135 1.373 . S
C135 C134 1.373 . S
C135 C136 1.409 . S
C135 H162 0.931 1_545 S
C136 C131 1.356 . S
C136 C135 1.409 . S
C136 H163 0.930 1_545 S
C137 O150 1.270 . S
C137 O151 1.248 . S
C138 O152 1.267 . S
C138 O153 1.278 1_565 S
C139 Pr129 2.880 . S
C139 C140 1.491 . S
C139 O154 1.254 . S
C139 O155 1.225 . S
C140 C139 1.491 . S
C140 C141 1.392 . S
C140 C145 1.356 . S
C141 C140 1.392 . S
C141 C142 1.368 . S
C141 H164 0.929 . S
C142 C141 1.368 . S
C142 C143 1.386 . S
C142 H165 0.929 . S
C143 C142 1.386 . S
C143 C144 1.373 . S
C144 C143 1.373 . S
C144 C145 1.409 . S
C144 H166 0.931 1_565 S
C145 C140 1.356 . S
C145 C144 1.409 . S
C145 H167 0.930 1_565 S
C146 O156 1.270 . S
C146 O157 1.248 . S
C147 O158 1.267 . S
C147 O159 1.278 1_545 S
O148 Pr128 2.562 . S
O148 C130 1.254 . S
O149 Pr128 2.490 . S
O149 C130 1.225 . S
O150 Pr128 2.695 . S
O150 Pr129 2.436 1_545 S
O150 C137 1.270 . S
O151 Pr128 2.512 . S
O151 C137 1.248 . S
O152 Pr129 2.438 . S
O152 C138 1.267 . S
O153 Pr128 2.437 . S
O153 C138 1.278 1_545 S
O154 Pr129 2.562 . S
O154 C139 1.254 . S
O155 Pr129 2.490 . S
O155 C139 1.225 . S
O156 Pr128 2.436 1_565 S
O156 Pr129 2.695 . S
O156 C146 1.270 . S
O157 Pr129 2.512 . S
O157 C146 1.248 . S
O158 Pr128 2.438 . S
O158 C147 1.267 . S
O159 Pr129 2.437 . S
O159 C147 1.278 1_565 S
H160 C132 0.929 . S
H161 C133 0.929 . S
H162 C135 0.931 1_565 S
H163 C136 0.930 1_565 S
H164 C141 0.929 . S
H165 C142 0.929 . S
H166 C144 0.931 1_545 S
H167 C145 0.930 1_545 S
Pr168 C170 2.880 . S
Pr168 O188 2.562 . S
Pr168 O189 2.490 . S
Pr168 O190 2.695 . S
Pr168 O191 2.512 . S
Pr168 O193 2.437 . S
Pr168 O196 2.436 . S
Pr168 O198 2.438 . S
Pr169 C179 2.880 . S
Pr169 O190 2.436 . S
Pr169 O192 2.438 . S
Pr169 O194 2.562 . S
Pr169 O195 2.490 . S
Pr169 O196 2.695 . S
Pr169 O197 2.512 . S
Pr169 O199 2.437 . S
C170 Pr168 2.880 . S
C170 C171 1.491 1_556 S
C170 O188 1.254 . S
C170 O189 1.225 . S
C171 C170 1.491 1_554 S
C171 C172 1.392 . S
C171 C176 1.356 . S
C172 C171 1.392 . S
C172 C173 1.368 . S
C172 H200 0.929 . S
C173 C172 1.368 . S
C173 C174 1.386 . S
C173 H201 0.929 . S
C174 C173 1.386 . S
C174 C175 1.373 . S
C175 C174 1.373 . S
C175 C176 1.409 . S
C175 H202 0.931 . S
C176 C171 1.356 . S
C176 C175 1.409 . S
C176 H203 0.930 . S
C177 O190 1.270 . S
C177 O191 1.248 . S
C178 O192 1.267 . S
C178 O193 1.278 . S
C179 Pr169 2.880 . S
C179 C180 1.491 . S
C179 O194 1.254 . S
C179 O195 1.225 . S
C180 C179 1.491 . S
C180 C181 1.392 . S
C180 C185 1.356 . S
C181 C180 1.392 . S
C181 C182 1.368 . S
C181 H204 0.929 . S
C182 C181 1.368 . S
C182 C183 1.386 . S
C182 H205 0.929 . S
C183 C182 1.386 . S
C183 C184 1.373 . S
C184 C183 1.373 . S
C184 C185 1.409 . S
C184 H206 0.931 . S
C185 C180 1.356 . S
C185 C184 1.409 . S
C185 H207 0.930 . S
C186 O196 1.270 . S
C186 O197 1.248 . S
C187 O198 1.267 . S
C187 O199 1.278 . S
O188 Pr168 2.562 . S
O188 C170 1.254 . S
O189 Pr168 2.490 . S
O189 C170 1.225 . S
O190 Pr168 2.695 . S
O190 Pr169 2.436 . S
O190 C177 1.270 . S
O191 Pr168 2.512 . S
O191 C177 1.248 . S
O192 Pr169 2.438 . S
O192 C178 1.267 . S
O193 Pr168 2.437 . S
O193 C178 1.278 . S
O194 Pr169 2.562 . S
O194 C179 1.254 . S
O195 Pr169 2.490 . S
O195 C179 1.225 . S
O196 Pr168 2.436 . S
O196 Pr169 2.695 . S
O196 C186 1.270 . S
O197 Pr169 2.512 . S
O197 C186 1.248 . S
O198 Pr168 2.438 . S
O198 C187 1.267 . S
O199 Pr169 2.437 . S
O199 C187 1.278 . S
H200 C172 0.929 . S
H201 C173 0.929 . S
H202 C175 0.931 . S
H203 C176 0.930 . S
H204 C181 0.929 . S
H205 C182 0.929 . S
H206 C184 0.931 . S
H207 C185 0.930 . S
Pr208 C210 2.880 . S
Pr208 O228 2.562 . S
Pr208 O229 2.490 . S
Pr208 O230 2.695 1_655 S
Pr208 O231 2.512 . S
Pr208 O233 2.437 . S
Pr208 O236 2.436 . S
Pr208 O238 2.438 1_655 S
Pr209 C219 2.880 . S
Pr209 O230 2.436 . S
Pr209 O232 2.438 1_455 S
Pr209 O234 2.562 . S
Pr209 O235 2.490 . S
Pr209 O236 2.695 1_455 S
Pr209 O237 2.512 . S
Pr209 O239 2.437 . S
C210 Pr208 2.880 . S
C210 C211 1.491 1_556 S
C210 O228 1.254 . S
C210 O229 1.225 . S
C211 C210 1.491 1_554 S
C211 C212 1.392 . S
C211 C216 1.356 . S
C212 C211 1.392 . S
C212 C213 1.368 . S
C212 H240 0.929 . S
C213 C212 1.368 . S
C213 C214 1.386 . S
C213 H241 0.929 . S
C214 C213 1.386 . S
C214 C215 1.373 . S
C215 C214 1.373 . S
C215 C216 1.409 . S
C215 H242 0.931 . S
C216 C211 1.356 . S
C216 C215 1.409 . S
C216 H243 0.930 . S
C217 O230 1.261 1_655 S
C217 O231 1.264 . S
C218 O232 1.267 . S
C218 O233 1.278 . S
C219 Pr209 2.880 . S
C219 C220 1.491 . S
C219 O234 1.254 . S
C219 O235 1.225 . S
C220 C219 1.491 . S
C220 C221 1.392 . S
C220 C225 1.356 . S
C221 C220 1.392 . S
C221 C222 1.368 . S
C221 H244 0.929 . S
C222 C221 1.368 . S
C222 C223 1.386 . S
C222 H245 0.929 . S
C223 C222 1.386 . S
C223 C224 1.373 . S
C224 C223 1.373 . S
C224 C225 1.409 . S
C224 H246 0.931 . S
C225 C220 1.356 . S
C225 C224 1.409 . S
C225 H247 0.930 . S
C226 O236 1.259 1_455 S
C226 O237 1.268 . S
C227 O238 1.267 . S
C227 O239 1.278 . S
O228 Pr208 2.562 . S
O228 C210 1.254 . S
O229 Pr208 2.490 . S
O229 C210 1.225 . S
O230 Pr208 2.695 1_455 S
O230 Pr209 2.436 . S
O230 C217 1.261 1_455 S
O231 Pr208 2.512 . S
O231 C217 1.264 . S
O232 Pr209 2.438 1_655 S
O232 C218 1.267 . S
O233 Pr208 2.437 . S
O233 C218 1.278 . S
O234 Pr209 2.562 . S
O234 C219 1.254 . S
O235 Pr209 2.490 . S
O235 C219 1.225 . S
O236 Pr208 2.436 . S
O236 Pr209 2.695 1_655 S
O236 C226 1.259 1_655 S
O237 Pr209 2.512 . S
O237 C226 1.268 . S
O238 Pr208 2.438 1_455 S
O238 C227 1.267 . S
O239 Pr209 2.437 . S
O239 C227 1.278 . S
H240 C212 0.929 . S
H241 C213 0.929 . S
H242 C215 0.931 . S
H243 C216 0.930 . S
H244 C221 0.929 . S
H245 C222 0.929 . S
H246 C224 0.931 . S
H247 C225 0.930 . S
C248 C249 1.170 . S
C248 C250 1.380 . S
C249 C248 1.170 . S
C250 C248 1.380 . S
C250 C251 1.170 . S
C251 C250 1.170 . S
C252 C253 1.170 . S
C252 C254 1.380 . S
C253 C252 1.170 . S
C254 C252 1.380 . S
C254 C255 1.170 . S
C255 C254 1.170 . S
C256 C257 1.170 . S
C256 C258 1.380 . S
C257 C256 1.170 . S
C258 C256 1.380 . S
C258 C259 1.170 . S
C259 C258 1.170 . S
C260 C261 1.171 . S
C260 C262 1.381 . S
C261 C260 1.171 . S
C262 C260 1.381 . S
C262 C263 1.169 1_655 S
C263 C262 1.169 1_455 S
C264 C265 1.170 . S
C264 C266 1.380 . S
C265 C264 1.170 . S
C266 C264 1.380 . S
C266 C267 1.170 1_554 S
C267 C266 1.170 1_556 S
C268 C269 1.170 . S
C268 C270 1.380 . S
C269 C268 1.170 . S
C270 C268 1.380 . S
C270 C271 1.170 1_554 S
C271 C270 1.170 1_556 S
C272 C273 1.170 . S
C272 C274 1.380 . S
C273 C272 1.170 . S
C274 C272 1.380 . S
C274 C275 1.170 1_554 S
C275 C274 1.170 1_556 S
C276 C277 1.170 . S
C276 C278 1.381 . S
C277 C276 1.170 . S
C278 C276 1.381 . S
C278 C279 1.169 1_454 S
C279 C278 1.169 1_656 S
C280 C281 1.170 . S
C280 C282 1.380 . S
C281 C280 1.170 . S
C282 C280 1.380 . S
C282 C283 1.170 . S
C283 C282 1.170 . S
C284 C285 1.170 . S
C284 C286 1.380 . S
C285 C284 1.170 . S
C286 C284 1.380 . S
C286 C287 1.170 . S
C287 C286 1.170 . S
C288 C289 1.170 . S
C288 C290 1.380 . S
C289 C288 1.170 . S
C290 C288 1.380 . S
C290 C291 1.170 . S
C291 C290 1.170 . S
C292 C293 1.170 . S
C292 C294 1.380 . S
C293 C292 1.170 . S
C294 C292 1.380 . S
C294 C295 1.170 . S
C295 C294 1.170 . S
C296 C297 1.167 1_455 S
C296 C298 1.380 . S
C297 C296 1.167 1_655 S
C298 C296 1.380 . S
C298 C299 1.170 . S
C299 C298 1.170 . S
C300 C301 1.170 . S
C300 C302 1.380 . S
C301 C300 1.170 . S
C302 C300 1.380 . S
C302 C303 1.170 . S
C303 C302 1.170 . S
C304 C305 1.170 . S
C304 C306 1.380 . S
C305 C304 1.170 . S
C306 C304 1.380 . S
C306 C307 1.170 . S
C307 C306 1.170 . S
C308 C309 1.170 . S
C308 C310 1.380 . S
C309 C308 1.170 . S
C310 C308 1.380 . S
C310 C311 1.170 . S
C311 C310 1.170 . S
C312 C313 1.170 . S
C312 C314 1.380 . S
C313 C312 1.170 . S
C314 C312 1.380 . S
C314 C315 1.170 . S
C315 C314 1.170 . S
C316 C317 1.170 . S
C316 C318 1.380 . S
C317 C316 1.170 . S
C318 C316 1.380 . S
C318 C319 1.170 . S
C319 C318 1.170 . S
C320 C321 1.170 . S
C320 C322 1.380 . S
C321 C320 1.170 . S
C322 C320 1.380 . S
C322 C323 1.170 . S
C323 C322 1.170 . S
C324 C325 1.170 . S
C324 C326 1.380 . S
C325 C324 1.170 . S
C326 C324 1.380 . S
C326 C327 1.170 . S
C327 C326 1.170 . S
C328 C329 1.170 . S
C328 C330 1.380 . S
C329 C328 1.170 . S
C330 C328 1.380 . S
C330 C331 1.170 . S
C331 C330 1.170 . S
C332 C333 1.170 . S
C332 C334 1.380 . S
C333 C332 1.170 . S
C334 C332 1.380 . S
C334 C335 1.170 . S
C335 C334 1.170 . S
C336 C337 1.170 . S
C336 C338 1.380 . S
C337 C336 1.170 . S
C338 C336 1.380 . S
C338 C339 1.170 . S
C339 C338 1.170 . S
C340 C341 1.170 . S
C340 C342 1.380 . S
C341 C340 1.170 . S
C342 C340 1.380 . S
C342 C343 1.170 . S
C343 C342 1.170 . S
C249 C74 1.874 . S
C251 C97 2.058 1_545 S
C255 C137 2.073 . S
C253 C85 1.886 . S
C259 C177 2.069 . S
C257 C52 1.920 . S
C263 C217 2.055 1_455 S
C261 C63 1.878 1_655 S
C267 C106 2.056 1_565 S
C265 C30 1.909 1_565 S
C269 C41 1.889 . S
C271 C146 2.075 . S
C273 C8 1.931 . S
C275 C186 2.071 . S
C277 C19 1.912 . S
C279 C226 2.055 1_655 S
C283 C103 0.847 . S
C281 C62 0.812 1_655 S
C287 C143 0.842 . S
C285 C73 0.805 1_565 S
C291 C183 0.771 . S
C289 C84 0.804 . S
C293 C51 0.823 . S
C295 C223 0.808 . S
C297 C18 0.822 1_655 S
C299 C94 0.800 . S
C303 C134 0.846 . S
C301 C29 0.758 . S
C307 C174 0.758 . S
C305 C40 0.834 . S
C309 C7 0.789 . S
C311 C214 0.787 . S
C313 C60 1.875 . S
C315 C107 2.480 . S
C317 C71 1.862 . S
C319 C147 2.455 . S
C323 C187 2.451 . S
C321 C82 1.831 . S
C327 C227 2.489 . S
C325 C49 1.811 . S
C329 C16 1.996 1_655 S
C331 C98 2.499 . S
C335 C138 2.468 . S
C333 C27 1.980 1_565 S
C339 C178 2.458 . S
C337 C38 1.997 . S
C341 C5 2.005 . S
C343 C218 2.482 . S
