# Generated by pormake.
# Topology nia, (6,6)-cn, num edge types: 1
# Building blocks:
#     Node 0, Type 0, BuildingBlock: BETDIP_clean_sbu_0, # of connection points: 6
#     Node 1, Type 0, BuildingBlock: BETDIP_clean_sbu_0, # of connection points: 6
#     Node 2, Type 1, BuildingBlock: MIDCAF_clean_sbu_0, # of connection points: 6
#     Node 3, Type 1, BuildingBlock: MIDCAF_clean_sbu_0, # of connection points: 6
#     Edge 4, Type (0, 1), BuildingBlock: KIFKEQ_clean_linker_1, # of connection points: 2
#     Edge 5, Type (0, 1), BuildingBlock: KIFKEQ_clean_linker_1, # of connection points: 2
#     Edge 6, Type (0, 1), BuildingBlock: KIFKEQ_clean_linker_1, # of connection points: 2
#     Edge 7, Type (0, 1), BuildingBlock: KIFKEQ_clean_linker_1, # of connection points: 2
#     Edge 8, Type (0, 1), BuildingBlock: KIFKEQ_clean_linker_1, # of connection points: 2
#     Edge 9, Type (0, 1), BuildingBlock: KIFKEQ_clean_linker_1, # of connection points: 2
#     Edge 10, Type (0, 1), BuildingBlock: KIFKEQ_clean_linker_1, # of connection points: 2
#     Edge 11, Type (0, 1), BuildingBlock: KIFKEQ_clean_linker_1, # of connection points: 2
#     Edge 12, Type (0, 1), BuildingBlock: KIFKEQ_clean_linker_1, # of connection points: 2
#     Edge 13, Type (0, 1), BuildingBlock: KIFKEQ_clean_linker_1, # of connection points: 2
#     Edge 14, Type (0, 1), BuildingBlock: KIFKEQ_clean_linker_1, # of connection points: 2
#     Edge 15, Type (0, 1), BuildingBlock: KIFKEQ_clean_linker_1, # of connection points: 2
# Relax obj value: 0.305
# Max RMSD: 0.270
# Mean RMSD: 0.242
data_MOF--net-nia--node1-BETDIP_clean_sbu_0--node2-MIDCAF_clean_sbu_0--edge1-KIFKEQ_clean_linker_1
_symmetry_space_group_name_H-M    P1
_symmetry_Int_Tables_number       1
_symmetry_cell_setting            triclinic
loop_
_symmetry_equiv_pos_as_xyz
'x, y, z'
_cell_length_a     29.205156
_cell_length_b     25.779003
_cell_length_c     32.459516
_cell_angle_alpha  102.57145
_cell_angle_beta   67.873747
_cell_angle_gamma 129.02859
loop_
_atom_site_label
_atom_site_type_symbol
_atom_site_fract_x
_atom_site_fract_y
_atom_site_fract_z
_atom_type_partial_charge
Tb0 Tb 0.95237 0.05789 1.05552 0.0
Tb1 Tb -0.00638 0.98332 0.08041 0.0
C2 C 0.89094 0.09263 1.05128 0.0
C3 C 0.8858 0.11614 1.01682 0.0
C4 C 0.88457 0.17099 1.02551 0.0
C5 C 0.87629 0.19228 0.99467 0.0
C6 C 0.86872 0.15886 0.9545 0.0
C7 C 0.8713 0.1047 0.94538 0.0
C8 C 0.88006 0.08368 0.97618 0.0
C9 C 0.07075 0.10869 1.01168 0.0
C10 C 0.0073 0.10438 0.13565 0.0
C11 C 0.04327 0.93406 0.08466 0.0
C12 C 0.05525 0.91828 0.1189 0.0
C13 C 0.09471 0.96859 0.14307 0.0
C14 C 0.10873 0.95255 0.1729 0.0
C15 C 0.08334 0.88593 0.17935 0.0
C16 C 0.04279 0.83568 0.15587 0.0
C17 C 0.02913 0.85173 0.12591 0.0
C18 C 0.88222 0.95048 0.12816 0.0
C19 C 0.95078 0.94513 0.99338 0.0
O20 O 0.94303 0.13369 1.06089 0.0
O21 O 0.87093 0.03048 1.04942 0.0
O22 O 0.03073 0.06218 1.03998 0.0
O23 O 0.04363 0.13059 1.00637 0.0
O24 O -0.03324 0.09632 0.12049 0.0
O25 O 0.03114 0.0715 0.11979 0.0
O26 O -0.01496 0.89785 0.08608 0.0
O27 O 0.07435 0.99748 0.07541 0.0
O28 O 0.90972 0.96659 0.08756 0.0
O29 O 0.91563 0.94713 0.14329 0.0
O30 O -0.02146 0.94195 1.01618 0.0
O31 O 0.93328 0.98419 1.00391 0.0
H32 H 0.88879 0.19664 1.05665 0.0
H33 H 0.87354 0.23348 1.00305 0.0
H34 H 0.86603 0.07826 0.91461 0.0
H35 H 0.88134 0.04148 0.96848 0.0
H36 H 0.11558 0.02045 0.13851 0.0
H37 H 0.13979 0.99233 0.19069 0.0
H38 H 0.02325 0.78401 0.15944 0.0
H39 H -0.00098 0.8121 0.10747 0.0
Tb40 Tb 0.01621 0.06194 0.61238 0.0
Tb41 Tb 0.96571 0.0132 0.53006 0.0
C42 C 0.04714 0.07782 0.67892 0.0
C43 C 0.07299 0.05866 0.69779 0.0
C44 C 0.08809 0.08957 0.73656 0.0
C45 C 0.12438 0.08414 0.75077 0.0
C46 C 0.14621 0.04741 0.72641 0.0
C47 C 0.1265 0.01188 0.68943 0.0
C48 C 0.09032 0.01776 0.67507 0.0
C49 C 0.06052 0.15431 0.55561 0.0
C50 C 0.06541 0.999 0.52884 0.0
C51 C 0.95213 0.01404 0.45849 0.0
C52 C 0.90116 0.98497 0.44095 0.0
C53 C 0.90813 0.02254 0.4106 0.0
C54 C 0.85977 0.99642 0.39408 0.0
C55 C 0.80393 0.93208 0.40748 0.0
C56 C 0.79734 0.8944 0.43767 0.0
C57 C 0.84545 0.92075 0.45445 0.0
C58 C 0.89996 0.91676 0.59187 0.0
C59 C 0.91123 0.0688 0.61638 0.0
O60 O -0.00973 0.03162 0.6774 0.0
O61 O 0.08522 0.11595 0.64275 0.0
O62 O 0.04668 0.09699 0.54626 0.0
O63 O 0.05374 0.16307 0.59773 0.0
O64 O 0.05592 0.0111 0.57204 0.0
O65 O 0.04296 0.00819 0.50485 0.0
O66 O 0.95858 0.05876 0.4891 0.0
O67 O 0.9587 0.97232 0.46767 0.0
O68 O 0.94506 0.97668 0.59078 0.0
O69 O 0.8867 0.90822 0.55581 0.0
O70 O 0.92071 0.05717 0.57313 0.0
O71 O 0.93642 0.06291 0.63988 0.0
H72 H 0.07514 0.12151 0.75435 0.0
H73 H 0.13907 0.11309 0.77893 0.0
H74 H 0.14153 0.98222 0.67034 0.0
H75 H 0.07858 0.99327 0.64513 0.0
H76 H 0.95087 0.0723 0.39993 0.0
H77 H 0.86604 0.02639 0.37079 0.0
H78 H 0.75435 0.84514 0.44918 0.0
H79 H 0.83892 0.89119 0.47822 0.0
Zn80 Zn 0.31375 0.66666 0.24677 0.0
Zn81 Zn 0.26715 0.66643 0.41803 0.0
Zn82 Zn 0.28892 0.66589 0.3329 0.0
C83 C 0.39157 0.72211 0.3792 0.0
C84 C 0.19217 0.5342 0.39873 0.0
O85 O 0.2533 0.71295 0.31886 0.0
O86 O 0.26421 0.69482 0.24706 0.0
C87 C 0.42754 0.74264 0.25846 0.0
O88 O 0.37803 0.71838 0.3447 0.0
O89 O 0.34951 0.69674 0.41611 0.0
O90 O 0.19608 0.57087 0.43212 0.0
O91 O 0.22541 0.56081 0.35923 0.0
O92 O 0.40556 0.7319 0.22814 0.0
O93 O 0.391 0.71982 0.29843 0.0
O94 O 0.23667 0.56042 0.31299 0.0
O95 O 0.27626 0.57026 0.2396 0.0
C96 C 0.24084 0.53387 0.27455 0.0
O97 O 0.25038 0.72251 0.36364 0.0
O98 O 0.25172 0.73354 0.43281 0.0
C99 C 0.24528 0.71592 0.28324 0.0
C100 C 0.24299 0.74698 0.40265 0.0
Zn101 Zn 0.63775 0.37284 0.88946 0.0
Zn102 Zn 0.68759 0.37617 0.71658 0.0
Zn103 Zn 0.66237 0.37882 0.80387 0.0
C104 C 0.73328 0.50733 0.74078 0.0
C105 C 0.55785 0.28826 0.7562 0.0
O106 O 0.70021 0.33398 0.81837 0.0
O107 O 0.66181 0.31757 0.89144 0.0
C108 C 0.72572 0.50906 0.86011 0.0
O109 O 0.71609 0.48296 0.77909 0.0
O110 O 0.72424 0.47044 0.7075 0.0
O111 O 0.59939 0.30292 0.71893 0.0
O112 O 0.57248 0.31561 0.7919 0.0
O113 O 0.69932 0.47099 0.89325 0.0
O114 O 0.71498 0.48442 0.82293 0.0
O115 O 0.55989 0.32437 0.83846 0.0
O116 O 0.54827 0.33037 0.91044 0.0
C117 C 0.5251 0.31221 0.87956 0.0
O118 O 0.70967 0.331 0.77209 0.0
O119 O 0.74318 0.35073 0.69971 0.0
C120 C 0.69321 0.31194 0.85405 0.0
C121 C 0.7394 0.32688 0.73193 0.0
H122 H 0.19961 0.9523 0.18488 0.0
H123 H 0.00899 0.78032 0.23848 0.0
H124 H 0.2323 0.91448 0.22272 0.0
H125 H 0.04172 0.74252 0.27639 0.0
H126 H 0.14416 0.65052 0.25784 0.0
H127 H 0.09952 0.69659 0.24417 0.0
H128 H 0.22954 0.88679 0.29305 0.0
H129 H 0.27457 0.83979 0.3065 0.0
C130 C 0.16445 0.90737 0.20571 0.0
C131 C 0.10179 0.86876 0.20809 0.0
C132 C 0.1832 0.88577 0.22752 0.0
C133 C 0.13969 0.82509 0.25218 0.0
C134 C 0.07651 0.7889 0.25701 0.0
C135 C 0.05779 0.81045 0.2352 0.0
C136 C 0.16208 0.70168 0.26668 0.0
C137 C 0.21228 0.74159 0.28346 0.0
C138 C 0.13637 0.72807 0.2591 0.0
C139 C 0.16097 0.79544 0.26749 0.0
C140 C 0.20983 0.83482 0.28603 0.0
C141 C 0.23527 0.80798 0.29404 0.0
H142 H 0.16107 0.05798 0.80749 0.0
H143 H 0.24734 0.05801 0.666 0.0
H144 H 0.2579 0.10485 0.81996 0.0
H145 H 0.34229 0.10135 0.67906 0.0
H146 H 0.46922 0.30616 0.78888 0.0
H147 H 0.36097 0.22697 0.78996 0.0
H148 H 0.39485 0.0854 0.72088 0.0
H149 H 0.50223 0.16357 0.723 0.0
C150 C 0.19992 0.06623 0.77919 0.0
C151 C 0.19671 0.05573 0.73561 0.0
C152 C 0.25512 0.09267 0.78644 0.0
C153 C 0.3075 0.10738 0.75038 0.0
C154 C 0.30235 0.09013 0.70743 0.0
C155 C 0.24761 0.06489 0.70005 0.0
C156 C 0.45218 0.25662 0.77656 0.0
C157 C 0.49251 0.23945 0.75803 0.0
C158 C 0.39077 0.21169 0.77645 0.0
C159 C 0.36941 0.14961 0.75625 0.0
C160 C 0.41008 0.13258 0.7372 0.0
C161 C 0.47125 0.17719 0.73824 0.0
H162 H 0.08934 0.13417 0.17458 0.0
H163 H -0.02393 0.18841 0.17475 0.0
H164 H 0.13884 0.22795 0.22163 0.0
H165 H 0.02607 0.28248 0.22195 0.0
H166 H 0.11787 0.44007 0.31862 0.0
H167 H 0.051 0.32381 0.29657 0.0
H168 H 0.21221 0.34925 0.19658 0.0
H169 H 0.27796 0.46453 0.21793 0.0
C170 C 0.07412 0.16529 0.18522 0.0
C171 C 0.02954 0.15449 0.17006 0.0
C172 C 0.10247 0.21893 0.21231 0.0
C173 C 0.08669 0.26277 0.22512 0.0
C174 C 0.03883 0.24916 0.21285 0.0
C175 C 0.01058 0.19557 0.18548 0.0
C176 C 0.13887 0.41983 0.29288 0.0
C177 C 0.2028 0.46094 0.26971 0.0
C178 C 0.10071 0.35371 0.28009 0.0
C179 C 0.12642 0.32769 0.24473 0.0
C180 C 0.19108 0.36761 0.22417 0.0
C181 C 0.22875 0.43368 0.23626 0.0
H182 H 0.87231 0.11074 0.57627 0.0
H183 H 0.8746 0.09367 0.70504 0.0
H184 H 0.83059 0.17266 0.60897 0.0
H185 H 0.83228 0.15601 0.73775 0.0
H186 H 0.8435 0.35633 0.66578 0.0
H187 H 0.88098 0.28932 0.64155 0.0
H188 H 0.73335 0.14849 0.75034 0.0
H189 H 0.69449 0.2149 0.77388 0.0
C190 C 0.86304 0.11916 0.61169 0.0
C191 C 0.87722 0.09744 0.63794 0.0
C192 C 0.83958 0.15519 0.63032 0.0
C193 C 0.82917 0.16994 0.6757 0.0
C194 C 0.84007 0.14535 0.70262 0.0
C195 C 0.86429 0.10974 0.68384 0.0
C196 C 0.81949 0.31152 0.68487 0.0
C197 C 0.76663 0.29127 0.72208 0.0
C198 C 0.84076 0.27306 0.67091 0.0
C199 C 0.80963 0.21343 0.69382 0.0
C200 C 0.7583 0.19445 0.73224 0.0
C201 C 0.7365 0.23273 0.74595 0.0
H202 H 0.79891 0.91862 0.09088 0.0
H203 H 0.81723 0.92043 0.2171 0.0
H204 H 0.69089 0.87436 0.12722 0.0
H205 H 0.70746 0.8744 0.25397 0.0
H206 H 0.51801 0.85511 0.20709 0.0
H207 H 0.62957 0.91037 0.17995 0.0
H208 H 0.60104 0.76699 0.25424 0.0
H209 H 0.48888 0.71163 0.2814 0.0
C210 C 0.78017 0.911 0.12662 0.0
C211 C 0.81692 0.9246 0.15128 0.0
C212 C 0.71806 0.88521 0.14747 0.0
C213 C 0.69079 0.87164 0.19357 0.0
C214 C 0.72725 0.88437 0.21838 0.0
C215 C 0.78995 0.91085 0.19737 0.0
C216 C 0.53579 0.83604 0.21805 0.0
C217 C 0.49519 0.77975 0.2467 0.0
C218 C 0.59953 0.86745 0.20245 0.0
C219 C 0.62408 0.84281 0.21474 0.0
C220 C 0.58359 0.7875 0.24449 0.0
C221 C 0.51954 0.75588 0.26005 0.0
H222 H 0.95626 0.91754 0.64288 0.0
H223 H 0.78636 0.79567 0.60959 0.0
H224 H 0.91661 0.82635 0.68977 0.0
H225 H 0.74664 0.70402 0.65609 0.0
H226 H 0.67316 0.56219 0.76343 0.0
H227 H 0.71306 0.66874 0.73494 0.0
H228 H 0.89427 0.71405 0.67204 0.0
H229 H 0.85388 0.60742 0.70039 0.0
C230 C 0.90977 0.87189 0.64659 0.0
C231 C 0.87393 0.86397 0.62323 0.0
C232 C 0.88734 0.81939 0.67301 0.0
C233 C 0.82831 0.75804 0.6769 0.0
C234 C 0.79186 0.75096 0.65442 0.0
C235 C 0.81468 0.8032 0.62757 0.0
C236 C 0.72199 0.59623 0.74484 0.0
C237 C 0.76086 0.57751 0.73459 0.0
C238 C 0.74468 0.65673 0.72812 0.0
C239 C 0.80671 0.69961 0.70095 0.0
C240 C 0.84646 0.68253 0.6932 0.0
C241 C 0.82352 0.62167 0.70949 0.0
H242 H 0.094 0.96763 0.44118 0.0
H243 H 0.11347 0.96499 0.56618 0.0
H244 H 0.1426 0.91264 0.40599 0.0
H245 H 0.1609 0.90902 0.53116 0.0
H246 H 0.28978 0.85847 0.45056 0.0
H247 H 0.25341 0.92637 0.47725 0.0
H248 H 0.1174 0.80245 0.40784 0.0
H249 H 0.15456 0.73461 0.38093 0.0
C250 C 0.10897 0.9558 0.46116 0.0
C251 C 0.09977 0.97084 0.50663 0.0
C252 C 0.13644 0.92381 0.44097 0.0
C253 C 0.15551 0.90629 0.46572 0.0
C254 C 0.14754 0.92264 0.51092 0.0
C255 C 0.12007 0.95458 0.53111 0.0
C256 C 0.25264 0.84638 0.44056 0.0
C257 C 0.22525 0.79181 0.4134 0.0
C258 C 0.23156 0.88497 0.45605 0.0
C259 C 0.18205 0.86944 0.44513 0.0
C260 C 0.15604 0.81614 0.41654 0.0
C261 C 0.17737 0.77745 0.40094 0.0
H262 H 0.11958 0.04084 0.99077 0.0
H263 H 0.16778 0.23454 0.98018 0.0
H264 H 0.22787 0.08498 0.95259 0.0
H265 H 0.27643 0.28048 0.94485 0.0
H266 H 0.46528 0.34653 0.85876 0.0
H267 H 0.35378 0.29104 0.88383 0.0
H268 H 0.32389 0.14997 0.96188 0.0
H269 H 0.43439 0.20164 0.93249 0.0
C270 C 0.15377 0.09319 0.98083 0.0
C271 C 0.13584 0.13459 0.98876 0.0
C272 C 0.21595 0.11876 0.959 0.0
C273 C 0.26177 0.18676 0.94558 0.0
C274 C 0.24298 0.22771 0.95354 0.0
C275 C 0.18066 0.20165 0.97431 0.0
C276 C 0.4341 0.30156 0.87943 0.0
C277 C 0.45767 0.2763 0.89199 0.0
C278 C 0.3703 0.27072 0.89498 0.0
C279 C 0.32898 0.21564 0.92521 0.0
C280 C 0.35331 0.19092 0.93788 0.0
C281 C 0.41684 0.22084 0.92137 0.0
H282 H 0.0899 0.15412 0.46442 0.0
H283 H 0.05531 0.25767 0.58119 0.0
H284 H 0.1083 0.23251 0.41747 0.0
H285 H 0.07511 0.33617 0.53512 0.0
H286 H 0.2271 0.45408 0.36003 0.0
H287 H 0.18572 0.35006 0.39298 0.0
H288 H 0.03473 0.34827 0.48965 0.0
H289 H 0.07806 0.45359 0.45808 0.0
C290 C 0.08594 0.19338 0.47997 0.0
C291 C 0.07103 0.19982 0.52638 0.0
C292 C 0.09663 0.23831 0.45317 0.0
C293 C 0.09243 0.29027 0.47245 0.0
C294 C 0.07719 0.29593 0.51899 0.0
C295 C 0.06662 0.25136 0.54551 0.0
C296 C 0.18381 0.42995 0.38727 0.0
C297 C 0.15617 0.46212 0.40702 0.0
C298 C 0.16011 0.37039 0.40628 0.0
C299 C 0.10801 0.34194 0.44495 0.0
C300 C 0.07616 0.37003 0.46087 0.0
C301 C 0.10045 0.42993 0.44249 0.0
H302 H 0.78055 0.07592 0.91273 0.0
H303 H 0.922 0.28456 0.92824 0.0
H304 H 0.74372 0.10699 0.87366 0.0
H305 H 0.88425 0.31554 0.89008 0.0
H306 H 0.81303 0.3565 0.81011 0.0
H307 H 0.86364 0.31448 0.82089 0.0
H308 H 0.68764 0.15633 0.90759 0.0
H309 H 0.63795 0.1983 0.89688 0.0
C310 C 0.8048 0.12841 0.90682 0.0
C311 C 0.85363 0.1778 0.92414 0.0
C312 C 0.78345 0.14617 0.88467 0.0
C313 C 0.81067 0.21366 0.87919 0.0
C314 C 0.86252 0.26312 0.89351 0.0
C315 C 0.88366 0.24537 0.91586 0.0
C316 C 0.78524 0.31177 0.83046 0.0
C317 C 0.7218 0.28053 0.85279 0.0
C318 C 0.81409 0.28795 0.8368 0.0
C319 C 0.77965 0.23222 0.8652 0.0
C320 C 0.71539 0.19878 0.88509 0.0
C321 C 0.68694 0.22303 0.87923 0.0
H322 H 0.73071 0.80768 0.37675 0.0
H323 H 0.7583 0.99558 0.40344 0.0
H324 H 0.63522 0.75817 0.36123 0.0
H325 H 0.66234 0.94592 0.3886 0.0
H326 H 0.49686 0.84132 0.33864 0.0
H327 H 0.60343 0.89426 0.33543 0.0
H328 H 0.53501 0.72753 0.41177 0.0
H329 H 0.42969 0.67466 0.41384 0.0
C330 C 0.71652 0.83846 0.37892 0.0
C331 C 0.75126 0.90508 0.39194 0.0
C332 C 0.66195 0.8102 0.37007 0.0
C333 C 0.64078 0.84786 0.37443 0.0
C334 C 0.67762 0.91573 0.3847 0.0
C335 C 0.73247 0.94413 0.39331 0.0
C336 C 0.5052 0.81602 0.35417 0.0
C337 C 0.45573 0.7538 0.376 0.0
C338 C 0.56586 0.84631 0.35258 0.0
C339 C 0.57766 0.81474 0.37298 0.0
C340 C 0.52774 0.75243 0.39481 0.0
C341 C 0.46739 0.72245 0.39647 0.0
H342 H 0.00657 0.88818 0.94351 0.0
H343 H 0.85563 0.89403 0.96156 0.0
H344 H 0.96485 0.79219 0.89611 0.0
H345 H 0.81256 0.79635 0.91537 0.0
H346 H 0.74668 0.61519 0.82779 0.0
H347 H 0.81519 0.73356 0.84558 0.0
H348 H 0.87373 0.68097 0.92291 0.0
H349 H 0.80716 0.56502 0.90458 0.0
C350 C 0.96506 0.86966 0.93669 0.0
C351 C 0.93361 0.89764 0.95703 0.0
C352 C 0.94109 0.81461 0.90958 0.0
C353 C 0.88452 0.78556 0.90288 0.0
C354 C 0.85624 0.81749 0.91977 0.0
C355 C 0.88079 0.87332 0.94647 0.0
C356 C 0.77575 0.62975 0.84741 0.0
C357 C 0.77177 0.58125 0.86483 0.0
C358 C 0.81446 0.69719 0.85796 0.0
C359 C 0.85021 0.71686 0.88553 0.0
C360 C 0.84796 0.66819 0.90094 0.0
C361 C 0.80918 0.60142 0.89085 0.0
loop_
_geom_bond_atom_site_label_1
_geom_bond_atom_site_label_2
_geom_bond_distance
_geom_bond_site_symmetry_2
_ccdc_geom_bond_type
Tb0 C2 2.809 . S
Tb0 O20 2.484 . S
Tb0 O21 2.440 1_655 S
Tb0 O22 2.658 1_655 S
Tb0 O23 2.409 1_655 S
Tb0 O24 2.378 1_656 S
Tb0 O28 2.325 1_546 S
Tb0 O31 2.341 1_545 S
Tb1 C11 2.809 . S
Tb1 O22 2.325 1_564 S
Tb1 O25 2.341 1_565 S
Tb1 O26 2.484 . S
Tb1 O27 2.440 . S
Tb1 O28 2.658 1_455 S
Tb1 O29 2.409 1_455 S
Tb1 O30 2.378 1_455 S
C2 Tb0 2.809 . S
C2 C3 1.514 . S
C2 O20 1.248 . S
C2 O21 1.266 1_655 S
C3 C2 1.514 . S
C3 C4 1.359 . S
C3 C8 1.348 1_655 S
C4 C3 1.359 . S
C4 C5 1.380 . S
C4 H32 0.929 . S
C5 C4 1.380 . S
C5 C6 1.347 . S
C5 H33 0.931 . S
C6 C5 1.347 . S
C6 C7 1.369 . S
C7 C6 1.369 . S
C7 C8 1.408 1_655 S
C7 H34 0.930 1_655 S
C8 C3 1.348 1_455 S
C8 C7 1.408 1_455 S
C8 H35 0.930 . S
C9 O22 1.281 . S
C9 O23 1.254 . S
C10 O24 1.236 . S
C10 O25 1.266 . S
C11 Tb1 2.809 . S
C11 C12 1.514 . S
C11 O26 1.248 . S
C11 O27 1.266 . S
C12 C11 1.514 . S
C12 C13 1.359 . S
C12 C17 1.348 . S
C13 C12 1.359 . S
C13 C14 1.380 . S
C13 H36 0.929 . S
C14 C13 1.380 . S
C14 C15 1.347 . S
C14 H37 0.931 . S
C15 C14 1.347 . S
C15 C16 1.369 . S
C16 C15 1.369 . S
C16 C17 1.408 . S
C16 H38 0.930 1_455 S
C17 C12 1.348 . S
C17 C16 1.408 . S
C17 H39 0.930 1_455 S
C18 O28 1.281 . S
C18 O29 1.254 . S
C19 O30 1.236 1_556 S
C19 O31 1.266 . S
O20 Tb0 2.484 . S
O20 C2 1.248 . S
O21 Tb0 2.440 1_455 S
O21 C2 1.266 1_455 S
O22 Tb0 2.658 1_455 S
O22 Tb1 2.325 1_546 S
O22 C9 1.281 . S
O23 Tb0 2.409 1_455 S
O23 C9 1.254 . S
O24 Tb0 2.378 1_454 S
O24 C10 1.236 . S
O25 Tb1 2.341 1_545 S
O25 C10 1.266 . S
O26 Tb1 2.484 . S
O26 C11 1.248 . S
O27 Tb1 2.440 . S
O27 C11 1.266 . S
O28 Tb0 2.325 1_564 S
O28 Tb1 2.658 1_655 S
O28 C18 1.281 . S
O29 Tb1 2.409 1_655 S
O29 C18 1.254 . S
O30 Tb1 2.378 1_655 S
O30 C19 1.236 1_554 S
O31 Tb0 2.341 1_565 S
O31 C19 1.266 . S
H32 C4 0.929 . S
H33 C5 0.931 . S
H34 C7 0.930 1_455 S
H35 C8 0.930 . S
H36 C13 0.929 . S
H37 C14 0.931 . S
H38 C16 0.930 1_655 S
H39 C17 0.930 1_655 S
Tb40 C42 2.809 . S
Tb40 O60 2.484 . S
Tb40 O61 2.440 . S
Tb40 O62 2.658 . S
Tb40 O63 2.409 . S
Tb40 O64 2.378 . S
Tb40 O68 2.325 1_445 S
Tb40 O71 2.341 1_455 S
Tb41 C51 2.809 . S
Tb41 O62 2.325 1_665 S
Tb41 O65 2.341 1_655 S
Tb41 O66 2.484 . S
Tb41 O67 2.440 . S
Tb41 O68 2.658 . S
Tb41 O69 2.409 . S
Tb41 O70 2.378 . S
C42 Tb40 2.809 . S
C42 C43 1.514 . S
C42 O60 1.248 . S
C42 O61 1.266 . S
C43 C42 1.514 . S
C43 C44 1.359 . S
C43 C48 1.348 . S
C44 C43 1.359 . S
C44 C45 1.380 . S
C44 H72 0.929 . S
C45 C44 1.380 . S
C45 C46 1.347 . S
C45 H73 0.931 . S
C46 C45 1.347 . S
C46 C47 1.369 . S
C47 C46 1.369 . S
C47 C48 1.408 . S
C47 H74 0.930 . S
C48 C43 1.348 . S
C48 C47 1.408 . S
C48 H75 0.930 . S
C49 O62 1.281 . S
C49 O63 1.254 . S
C50 O64 1.236 1_565 S
C50 O65 1.266 . S
C51 Tb41 2.809 . S
C51 C52 1.514 . S
C51 O66 1.248 . S
C51 O67 1.266 . S
C52 C51 1.514 . S
C52 C53 1.359 . S
C52 C57 1.348 . S
C53 C52 1.359 . S
C53 C54 1.380 . S
C53 H76 0.929 1_565 S
C54 C53 1.380 . S
C54 C55 1.347 . S
C54 H77 0.931 . S
C55 C54 1.347 . S
C55 C56 1.369 . S
C56 C55 1.369 . S
C56 C57 1.408 . S
C56 H78 0.930 . S
C57 C52 1.348 . S
C57 C56 1.408 . S
C57 H79 0.930 . S
C58 O68 1.281 . S
C58 O69 1.254 . S
C59 O70 1.236 1_545 S
C59 O71 1.266 . S
O60 Tb40 2.484 . S
O60 C42 1.248 . S
O61 Tb40 2.440 . S
O61 C42 1.266 . S
O62 Tb40 2.658 . S
O62 Tb41 2.325 1_445 S
O62 C49 1.281 . S
O63 Tb40 2.409 . S
O63 C49 1.254 . S
O64 Tb40 2.378 . S
O64 C50 1.236 1_545 S
O65 Tb41 2.341 1_455 S
O65 C50 1.266 . S
O66 Tb41 2.484 . S
O66 C51 1.248 . S
O67 Tb41 2.440 . S
O67 C51 1.266 . S
O68 Tb40 2.325 1_665 S
O68 Tb41 2.658 . S
O68 C58 1.281 . S
O69 Tb41 2.409 . S
O69 C58 1.254 . S
O70 Tb41 2.378 . S
O70 C59 1.236 1_565 S
O71 Tb40 2.341 1_655 S
O71 C59 1.266 . S
H72 C44 0.929 . S
H73 C45 0.931 . S
H74 C47 0.930 . S
H75 C48 0.930 . S
H76 C53 0.929 1_545 S
H77 C54 0.931 . S
H78 C56 0.930 . S
H79 C57 0.930 . S
Zn80 O86 1.920 . S
Zn80 O92 1.898 . S
Zn80 O95 1.905 . S
Zn81 O89 1.905 . S
Zn81 O90 1.898 . S
Zn81 O98 1.920 . S
Zn82 O85 2.080 . S
Zn82 O88 2.114 . S
Zn82 O91 2.120 . S
Zn82 O93 2.120 . S
Zn82 O94 2.114 . S
Zn82 O97 2.080 . S
C83 O88 1.166 . S
C83 O89 1.182 . S
C84 O90 1.167 . S
C84 O91 1.299 . S
O85 Zn82 2.080 . S
O85 C99 1.305 . S
O86 Zn80 1.920 . S
O86 C99 1.234 . S
C87 O92 1.167 . S
C87 O93 1.299 . S
O88 Zn82 2.114 . S
O88 C83 1.166 . S
O89 Zn81 1.905 . S
O89 C83 1.182 . S
O90 Zn81 1.898 . S
O90 C84 1.167 . S
O91 Zn82 2.120 . S
O91 C84 1.299 . S
O92 Zn80 1.898 . S
O92 C87 1.167 . S
O93 Zn82 2.120 . S
O93 C87 1.299 . S
O94 Zn82 2.114 . S
O94 C96 1.166 . S
O95 Zn80 1.905 . S
O95 C96 1.182 . S
C96 O94 1.166 . S
C96 O95 1.182 . S
O97 Zn82 2.080 . S
O97 C100 1.305 . S
O98 Zn81 1.920 . S
O98 C100 1.234 . S
C99 O85 1.305 . S
C99 O86 1.234 . S
C100 O97 1.305 . S
C100 O98 1.234 . S
Zn101 O107 1.920 . S
Zn101 O113 1.898 . S
Zn101 O116 1.905 . S
Zn102 O110 1.905 . S
Zn102 O111 1.898 . S
Zn102 O119 1.920 . S
Zn103 O106 2.080 . S
Zn103 O109 2.114 . S
Zn103 O112 2.120 . S
Zn103 O114 2.120 . S
Zn103 O115 2.114 . S
Zn103 O118 2.080 . S
C104 O109 1.166 . S
C104 O110 1.182 . S
C105 O111 1.167 . S
C105 O112 1.299 . S
O106 Zn103 2.080 . S
O106 C120 1.305 . S
O107 Zn101 1.920 . S
O107 C120 1.234 . S
C108 O113 1.167 . S
C108 O114 1.299 . S
O109 Zn103 2.114 . S
O109 C104 1.166 . S
O110 Zn102 1.905 . S
O110 C104 1.182 . S
O111 Zn102 1.898 . S
O111 C105 1.167 . S
O112 Zn103 2.120 . S
O112 C105 1.299 . S
O113 Zn101 1.898 . S
O113 C108 1.167 . S
O114 Zn103 2.120 . S
O114 C108 1.299 . S
O115 Zn103 2.114 . S
O115 C117 1.166 . S
O116 Zn101 1.905 . S
O116 C117 1.182 . S
C117 O115 1.166 . S
C117 O116 1.182 . S
O118 Zn103 2.080 . S
O118 C121 1.305 . S
O119 Zn102 1.920 . S
O119 C121 1.234 . S
C120 O106 1.305 . S
C120 O107 1.234 . S
C121 O118 1.305 . S
C121 O119 1.234 . S
H122 C130 0.950 . S
H123 C135 0.950 . S
H124 C132 0.950 . S
H125 C134 0.950 . S
H126 C136 0.950 . S
H127 C138 0.950 . S
H128 C140 0.950 . S
H129 C141 0.950 . S
C130 H122 0.950 . S
C130 C131 1.386 . S
C130 C132 1.391 . S
C131 C130 1.386 . S
C131 C135 1.393 . S
C132 H124 0.950 . S
C132 C130 1.391 . S
C132 C133 1.400 . S
C133 C132 1.400 . S
C133 C134 1.398 . S
C133 C139 1.491 . S
C134 H125 0.950 . S
C134 C133 1.398 . S
C134 C135 1.391 . S
C135 H123 0.950 . S
C135 C131 1.393 . S
C135 C134 1.391 . S
C136 H126 0.950 . S
C136 C137 1.386 . S
C136 C138 1.391 . S
C137 C136 1.386 . S
C137 C141 1.393 . S
C138 H127 0.950 . S
C138 C136 1.391 . S
C138 C139 1.400 . S
C139 C133 1.491 . S
C139 C138 1.400 . S
C139 C140 1.398 . S
C140 H128 0.950 . S
C140 C139 1.398 . S
C140 C141 1.391 . S
C141 H129 0.950 . S
C141 C137 1.393 . S
C141 C140 1.391 . S
H142 C150 0.950 . S
H143 C155 0.950 . S
H144 C152 0.950 . S
H145 C154 0.950 . S
H146 C156 0.950 . S
H147 C158 0.950 . S
H148 C160 0.950 . S
H149 C161 0.950 . S
C150 H142 0.950 . S
C150 C151 1.386 . S
C150 C152 1.391 . S
C151 C150 1.386 . S
C151 C155 1.393 . S
C152 H144 0.950 . S
C152 C150 1.391 . S
C152 C153 1.400 . S
C153 C152 1.400 . S
C153 C154 1.398 . S
C153 C159 1.491 . S
C154 H145 0.950 . S
C154 C153 1.398 . S
C154 C155 1.391 . S
C155 H143 0.950 . S
C155 C151 1.393 . S
C155 C154 1.391 . S
C156 H146 0.950 . S
C156 C157 1.386 . S
C156 C158 1.391 . S
C157 C156 1.386 . S
C157 C161 1.393 . S
C158 H147 0.950 . S
C158 C156 1.391 . S
C158 C159 1.400 . S
C159 C153 1.491 . S
C159 C158 1.400 . S
C159 C160 1.398 . S
C160 H148 0.950 . S
C160 C159 1.398 . S
C160 C161 1.391 . S
C161 H149 0.950 . S
C161 C157 1.393 . S
C161 C160 1.391 . S
H162 C170 0.950 . S
H163 C175 0.950 . S
H164 C172 0.950 . S
H165 C174 0.950 . S
H166 C176 0.950 . S
H167 C178 0.950 . S
H168 C180 0.950 . S
H169 C181 0.950 . S
C170 H162 0.950 . S
C170 C171 1.386 . S
C170 C172 1.391 . S
C171 C170 1.386 . S
C171 C175 1.393 . S
C172 H164 0.950 . S
C172 C170 1.391 . S
C172 C173 1.400 . S
C173 C172 1.400 . S
C173 C174 1.398 . S
C173 C179 1.491 . S
C174 H165 0.950 . S
C174 C173 1.398 . S
C174 C175 1.391 . S
C175 H163 0.950 . S
C175 C171 1.393 . S
C175 C174 1.391 . S
C176 H166 0.950 . S
C176 C177 1.386 . S
C176 C178 1.391 . S
C177 C176 1.386 . S
C177 C181 1.393 . S
C178 H167 0.950 . S
C178 C176 1.391 . S
C178 C179 1.400 . S
C179 C173 1.491 . S
C179 C178 1.400 . S
C179 C180 1.398 . S
C180 H168 0.950 . S
C180 C179 1.398 . S
C180 C181 1.391 . S
C181 H169 0.950 . S
C181 C177 1.393 . S
C181 C180 1.391 . S
H182 C190 0.950 . S
H183 C195 0.950 . S
H184 C192 0.950 . S
H185 C194 0.950 . S
H186 C196 0.950 . S
H187 C198 0.950 . S
H188 C200 0.950 . S
H189 C201 0.950 . S
C190 H182 0.950 . S
C190 C191 1.386 . S
C190 C192 1.391 . S
C191 C190 1.386 . S
C191 C195 1.393 . S
C192 H184 0.950 . S
C192 C190 1.391 . S
C192 C193 1.400 . S
C193 C192 1.400 . S
C193 C194 1.398 . S
C193 C199 1.491 . S
C194 H185 0.950 . S
C194 C193 1.398 . S
C194 C195 1.391 . S
C195 H183 0.950 . S
C195 C191 1.393 . S
C195 C194 1.391 . S
C196 H186 0.950 . S
C196 C197 1.386 . S
C196 C198 1.391 . S
C197 C196 1.386 . S
C197 C201 1.393 . S
C198 H187 0.950 . S
C198 C196 1.391 . S
C198 C199 1.400 . S
C199 C193 1.491 . S
C199 C198 1.400 . S
C199 C200 1.398 . S
C200 H188 0.950 . S
C200 C199 1.398 . S
C200 C201 1.391 . S
C201 H189 0.950 . S
C201 C197 1.393 . S
C201 C200 1.391 . S
H202 C210 0.950 . S
H203 C215 0.950 . S
H204 C212 0.950 . S
H205 C214 0.950 . S
H206 C216 0.950 . S
H207 C218 0.950 . S
H208 C220 0.950 . S
H209 C221 0.950 . S
C210 H202 0.950 . S
C210 C211 1.386 . S
C210 C212 1.391 . S
C211 C210 1.386 . S
C211 C215 1.393 . S
C212 H204 0.950 . S
C212 C210 1.391 . S
C212 C213 1.400 . S
C213 C212 1.400 . S
C213 C214 1.398 . S
C213 C219 1.491 . S
C214 H205 0.950 . S
C214 C213 1.398 . S
C214 C215 1.391 . S
C215 H203 0.950 . S
C215 C211 1.393 . S
C215 C214 1.391 . S
C216 H206 0.950 . S
C216 C217 1.386 . S
C216 C218 1.391 . S
C217 C216 1.386 . S
C217 C221 1.393 . S
C218 H207 0.950 . S
C218 C216 1.391 . S
C218 C219 1.400 . S
C219 C213 1.491 . S
C219 C218 1.400 . S
C219 C220 1.398 . S
C220 H208 0.950 . S
C220 C219 1.398 . S
C220 C221 1.391 . S
C221 H209 0.950 . S
C221 C217 1.393 . S
C221 C220 1.391 . S
H222 C230 0.950 . S
H223 C235 0.950 . S
H224 C232 0.950 . S
H225 C234 0.950 . S
H226 C236 0.950 . S
H227 C238 0.950 . S
H228 C240 0.950 . S
H229 C241 0.950 . S
C230 H222 0.950 . S
C230 C231 1.386 . S
C230 C232 1.391 . S
C231 C230 1.386 . S
C231 C235 1.393 . S
C232 H224 0.950 . S
C232 C230 1.391 . S
C232 C233 1.400 . S
C233 C232 1.400 . S
C233 C234 1.398 . S
C233 C239 1.491 . S
C234 H225 0.950 . S
C234 C233 1.398 . S
C234 C235 1.391 . S
C235 H223 0.950 . S
C235 C231 1.393 . S
C235 C234 1.391 . S
C236 H226 0.950 . S
C236 C237 1.386 . S
C236 C238 1.391 . S
C237 C236 1.386 . S
C237 C241 1.393 . S
C238 H227 0.950 . S
C238 C236 1.391 . S
C238 C239 1.400 . S
C239 C233 1.491 . S
C239 C238 1.400 . S
C239 C240 1.398 . S
C240 H228 0.950 . S
C240 C239 1.398 . S
C240 C241 1.391 . S
C241 H229 0.950 . S
C241 C237 1.393 . S
C241 C240 1.391 . S
H242 C250 0.950 . S
H243 C255 0.950 1_545 S
H244 C252 0.950 . S
H245 C254 0.950 . S
H246 C256 0.950 . S
H247 C258 0.950 . S
H248 C260 0.950 . S
H249 C261 0.950 . S
C250 H242 0.950 . S
C250 C251 1.386 . S
C250 C252 1.391 . S
C251 C250 1.386 . S
C251 C255 1.393 . S
C252 H244 0.950 . S
C252 C250 1.391 . S
C252 C253 1.400 . S
C253 C252 1.400 . S
C253 C254 1.398 . S
C253 C259 1.491 . S
C254 H245 0.950 . S
C254 C253 1.398 . S
C254 C255 1.391 . S
C255 H243 0.950 1_565 S
C255 C251 1.393 . S
C255 C254 1.391 . S
C256 H246 0.950 . S
C256 C257 1.386 . S
C256 C258 1.391 . S
C257 C256 1.386 . S
C257 C261 1.393 . S
C258 H247 0.950 . S
C258 C256 1.391 . S
C258 C259 1.400 . S
C259 C253 1.491 . S
C259 C258 1.400 . S
C259 C260 1.398 . S
C260 H248 0.950 . S
C260 C259 1.398 . S
C260 C261 1.391 . S
C261 H249 0.950 . S
C261 C257 1.393 . S
C261 C260 1.391 . S
H262 C270 0.950 . S
H263 C275 0.950 . S
H264 C272 0.950 . S
H265 C274 0.950 . S
H266 C276 0.950 . S
H267 C278 0.950 . S
H268 C280 0.950 . S
H269 C281 0.950 . S
C270 H262 0.950 . S
C270 C271 1.386 . S
C270 C272 1.391 . S
C271 C270 1.386 . S
C271 C275 1.393 . S
C272 H264 0.950 . S
C272 C270 1.391 . S
C272 C273 1.400 . S
C273 C272 1.400 . S
C273 C274 1.398 . S
C273 C279 1.491 . S
C274 H265 0.950 . S
C274 C273 1.398 . S
C274 C275 1.391 . S
C275 H263 0.950 . S
C275 C271 1.393 . S
C275 C274 1.391 . S
C276 H266 0.950 . S
C276 C277 1.386 . S
C276 C278 1.391 . S
C277 C276 1.386 . S
C277 C281 1.393 . S
C278 H267 0.950 . S
C278 C276 1.391 . S
C278 C279 1.400 . S
C279 C273 1.491 . S
C279 C278 1.400 . S
C279 C280 1.398 . S
C280 H268 0.950 . S
C280 C279 1.398 . S
C280 C281 1.391 . S
C281 H269 0.950 . S
C281 C277 1.393 . S
C281 C280 1.391 . S
H282 C290 0.950 . S
H283 C295 0.950 . S
H284 C292 0.950 . S
H285 C294 0.950 . S
H286 C296 0.950 . S
H287 C298 0.950 . S
H288 C300 0.950 . S
H289 C301 0.950 . S
C290 H282 0.950 . S
C290 C291 1.386 . S
C290 C292 1.391 . S
C291 C290 1.386 . S
C291 C295 1.393 . S
C292 H284 0.950 . S
C292 C290 1.391 . S
C292 C293 1.400 . S
C293 C292 1.400 . S
C293 C294 1.398 . S
C293 C299 1.491 . S
C294 H285 0.950 . S
C294 C293 1.398 . S
C294 C295 1.391 . S
C295 H283 0.950 . S
C295 C291 1.393 . S
C295 C294 1.391 . S
C296 H286 0.950 . S
C296 C297 1.386 . S
C296 C298 1.391 . S
C297 C296 1.386 . S
C297 C301 1.393 . S
C298 H287 0.950 . S
C298 C296 1.391 . S
C298 C299 1.400 . S
C299 C293 1.491 . S
C299 C298 1.400 . S
C299 C300 1.398 . S
C300 H288 0.950 . S
C300 C299 1.398 . S
C300 C301 1.391 . S
C301 H289 0.950 . S
C301 C297 1.393 . S
C301 C300 1.391 . S
H302 C310 0.950 . S
H303 C315 0.950 . S
H304 C312 0.950 . S
H305 C314 0.950 . S
H306 C316 0.950 . S
H307 C318 0.950 . S
H308 C320 0.950 . S
H309 C321 0.950 . S
C310 H302 0.950 . S
C310 C311 1.386 . S
C310 C312 1.391 . S
C311 C310 1.386 . S
C311 C315 1.393 . S
C312 H304 0.950 . S
C312 C310 1.391 . S
C312 C313 1.400 . S
C313 C312 1.400 . S
C313 C314 1.398 . S
C313 C319 1.491 . S
C314 H305 0.950 . S
C314 C313 1.398 . S
C314 C315 1.391 . S
C315 H303 0.950 . S
C315 C311 1.393 . S
C315 C314 1.391 . S
C316 H306 0.950 . S
C316 C317 1.386 . S
C316 C318 1.391 . S
C317 C316 1.386 . S
C317 C321 1.393 . S
C318 H307 0.950 . S
C318 C316 1.391 . S
C318 C319 1.400 . S
C319 C313 1.491 . S
C319 C318 1.400 . S
C319 C320 1.398 . S
C320 H308 0.950 . S
C320 C319 1.398 . S
C320 C321 1.391 . S
C321 H309 0.950 . S
C321 C317 1.393 . S
C321 C320 1.391 . S
H322 C330 0.950 . S
H323 C335 0.950 . S
H324 C332 0.950 . S
H325 C334 0.950 . S
H326 C336 0.950 . S
H327 C338 0.950 . S
H328 C340 0.950 . S
H329 C341 0.950 . S
C330 H322 0.950 . S
C330 C331 1.386 . S
C330 C332 1.391 . S
C331 C330 1.386 . S
C331 C335 1.393 . S
C332 H324 0.950 . S
C332 C330 1.391 . S
C332 C333 1.400 . S
C333 C332 1.400 . S
C333 C334 1.398 . S
C333 C339 1.491 . S
C334 H325 0.950 . S
C334 C333 1.398 . S
C334 C335 1.391 . S
C335 H323 0.950 . S
C335 C331 1.393 . S
C335 C334 1.391 . S
C336 H326 0.950 . S
C336 C337 1.386 . S
C336 C338 1.391 . S
C337 C336 1.386 . S
C337 C341 1.393 . S
C338 H327 0.950 . S
C338 C336 1.391 . S
C338 C339 1.400 . S
C339 C333 1.491 . S
C339 C338 1.400 . S
C339 C340 1.398 . S
C340 H328 0.950 . S
C340 C339 1.398 . S
C340 C341 1.391 . S
C341 H329 0.950 . S
C341 C337 1.393 . S
C341 C340 1.391 . S
H342 C350 0.950 1_455 S
H343 C355 0.950 . S
H344 C352 0.950 . S
H345 C354 0.950 . S
H346 C356 0.950 . S
H347 C358 0.950 . S
H348 C360 0.950 . S
H349 C361 0.950 . S
C350 H342 0.950 1_655 S
C350 C351 1.386 . S
C350 C352 1.391 . S
C351 C350 1.386 . S
C351 C355 1.393 . S
C352 H344 0.950 . S
C352 C350 1.391 . S
C352 C353 1.400 . S
C353 C352 1.400 . S
C353 C354 1.398 . S
C353 C359 1.491 . S
C354 H345 0.950 . S
C354 C353 1.398 . S
C354 C355 1.391 . S
C355 H343 0.950 . S
C355 C351 1.393 . S
C355 C354 1.391 . S
C356 H346 0.950 . S
C356 C357 1.386 . S
C356 C358 1.391 . S
C357 C356 1.386 . S
C357 C361 1.393 . S
C358 H347 0.950 . S
C358 C356 1.391 . S
C358 C359 1.400 . S
C359 C353 1.491 . S
C359 C358 1.400 . S
C359 C360 1.398 . S
C360 H348 0.950 . S
C360 C359 1.398 . S
C360 C361 1.391 . S
C361 H349 0.950 . S
C361 C357 1.393 . S
C361 C360 1.391 . S
C131 C15 1.273 . S
C137 C99 1.189 . S
C151 C46 0.997 . S
C157 C105 0.947 . S
C171 C10 1.316 . S
C177 C96 1.255 . S
C191 C59 2.107 . S
C197 C121 1.980 . S
C211 C18 2.049 . S
C217 C87 1.965 . S
C237 C104 1.835 . S
C231 C58 1.918 . S
C251 C50 1.864 . S
C257 C100 1.762 . S
C277 C117 2.124 . S
C271 C9 2.194 . S
C297 C84 2.086 . S
C291 C49 2.238 . S
C317 C120 1.293 . S
C311 C6 1.410 . S
C337 C83 0.972 . S
C331 C55 1.023 . S
C357 C108 1.051 . S
C351 C19 1.099 . S
