# Generated by pormake.
# Topology gar, (4,6)-cn, num edge types: 1
# Building blocks:
#     Node 0, Type 0, BuildingBlock: TATPOV_clean_sbu_0, # of connection points: 4
#     Node 1, Type 0, BuildingBlock: TATPOV_clean_sbu_0, # of connection points: 4
#     Node 2, Type 0, BuildingBlock: TATPOV_clean_sbu_0, # of connection points: 4
#     Node 3, Type 0, BuildingBlock: TATPOV_clean_sbu_0, # of connection points: 4
#     Node 4, Type 0, BuildingBlock: TATPOV_clean_sbu_0, # of connection points: 4
#     Node 5, Type 0, BuildingBlock: TATPOV_clean_sbu_0, # of connection points: 4
#     Node 6, Type 0, BuildingBlock: TATPOV_clean_sbu_0, # of connection points: 4
#     Node 7, Type 0, BuildingBlock: TATPOV_clean_sbu_0, # of connection points: 4
#     Node 8, Type 0, BuildingBlock: TATPOV_clean_sbu_0, # of connection points: 4
#     Node 9, Type 0, BuildingBlock: TATPOV_clean_sbu_0, # of connection points: 4
#     Node 10, Type 0, BuildingBlock: TATPOV_clean_sbu_0, # of connection points: 4
#     Node 11, Type 0, BuildingBlock: TATPOV_clean_sbu_0, # of connection points: 4
#     Node 12, Type 0, BuildingBlock: TATPOV_clean_sbu_0, # of connection points: 4
#     Node 13, Type 0, BuildingBlock: TATPOV_clean_sbu_0, # of connection points: 4
#     Node 14, Type 0, BuildingBlock: TATPOV_clean_sbu_0, # of connection points: 4
#     Node 15, Type 0, BuildingBlock: TATPOV_clean_sbu_0, # of connection points: 4
#     Node 16, Type 0, BuildingBlock: TATPOV_clean_sbu_0, # of connection points: 4
#     Node 17, Type 0, BuildingBlock: TATPOV_clean_sbu_0, # of connection points: 4
#     Node 18, Type 0, BuildingBlock: TATPOV_clean_sbu_0, # of connection points: 4
#     Node 19, Type 0, BuildingBlock: TATPOV_clean_sbu_0, # of connection points: 4
#     Node 20, Type 0, BuildingBlock: TATPOV_clean_sbu_0, # of connection points: 4
#     Node 21, Type 0, BuildingBlock: TATPOV_clean_sbu_0, # of connection points: 4
#     Node 22, Type 0, BuildingBlock: TATPOV_clean_sbu_0, # of connection points: 4
#     Node 23, Type 0, BuildingBlock: TATPOV_clean_sbu_0, # of connection points: 4
#     Node 24, Type 1, BuildingBlock: KUMJIN_clean_sbu_1, # of connection points: 6
#     Node 25, Type 1, BuildingBlock: KUMJIN_clean_sbu_1, # of connection points: 6
#     Node 26, Type 1, BuildingBlock: KUMJIN_clean_sbu_1, # of connection points: 6
#     Node 27, Type 1, BuildingBlock: KUMJIN_clean_sbu_1, # of connection points: 6
#     Node 28, Type 1, BuildingBlock: KUMJIN_clean_sbu_1, # of connection points: 6
#     Node 29, Type 1, BuildingBlock: KUMJIN_clean_sbu_1, # of connection points: 6
#     Node 30, Type 1, BuildingBlock: KUMJIN_clean_sbu_1, # of connection points: 6
#     Node 31, Type 1, BuildingBlock: KUMJIN_clean_sbu_1, # of connection points: 6
#     Node 32, Type 1, BuildingBlock: KUMJIN_clean_sbu_1, # of connection points: 6
#     Node 33, Type 1, BuildingBlock: KUMJIN_clean_sbu_1, # of connection points: 6
#     Node 34, Type 1, BuildingBlock: KUMJIN_clean_sbu_1, # of connection points: 6
#     Node 35, Type 1, BuildingBlock: KUMJIN_clean_sbu_1, # of connection points: 6
#     Node 36, Type 1, BuildingBlock: KUMJIN_clean_sbu_1, # of connection points: 6
#     Node 37, Type 1, BuildingBlock: KUMJIN_clean_sbu_1, # of connection points: 6
#     Node 38, Type 1, BuildingBlock: KUMJIN_clean_sbu_1, # of connection points: 6
#     Node 39, Type 1, BuildingBlock: KUMJIN_clean_sbu_1, # of connection points: 6
#     Edge 40, Type (0, 1), BuildingBlock: EZIPEK_clean_linker_0, # of connection points: 2
#     Edge 41, Type (0, 1), BuildingBlock: EZIPEK_clean_linker_0, # of connection points: 2
#     Edge 42, Type (0, 1), BuildingBlock: EZIPEK_clean_linker_0, # of connection points: 2
#     Edge 43, Type (0, 1), BuildingBlock: EZIPEK_clean_linker_0, # of connection points: 2
#     Edge 44, Type (0, 1), BuildingBlock: EZIPEK_clean_linker_0, # of connection points: 2
#     Edge 45, Type (0, 1), BuildingBlock: EZIPEK_clean_linker_0, # of connection points: 2
#     Edge 46, Type (0, 1), BuildingBlock: EZIPEK_clean_linker_0, # of connection points: 2
#     Edge 47, Type (0, 1), BuildingBlock: EZIPEK_clean_linker_0, # of connection points: 2
#     Edge 48, Type (0, 1), BuildingBlock: EZIPEK_clean_linker_0, # of connection points: 2
#     Edge 49, Type (0, 1), BuildingBlock: EZIPEK_clean_linker_0, # of connection points: 2
#     Edge 50, Type (0, 1), BuildingBlock: EZIPEK_clean_linker_0, # of connection points: 2
#     Edge 51, Type (0, 1), BuildingBlock: EZIPEK_clean_linker_0, # of connection points: 2
#     Edge 52, Type (0, 1), BuildingBlock: EZIPEK_clean_linker_0, # of connection points: 2
#     Edge 53, Type (0, 1), BuildingBlock: EZIPEK_clean_linker_0, # of connection points: 2
#     Edge 54, Type (0, 1), BuildingBlock: EZIPEK_clean_linker_0, # of connection points: 2
#     Edge 55, Type (0, 1), BuildingBlock: EZIPEK_clean_linker_0, # of connection points: 2
#     Edge 56, Type (0, 1), BuildingBlock: EZIPEK_clean_linker_0, # of connection points: 2
#     Edge 57, Type (0, 1), BuildingBlock: EZIPEK_clean_linker_0, # of connection points: 2
#     Edge 58, Type (0, 1), BuildingBlock: EZIPEK_clean_linker_0, # of connection points: 2
#     Edge 59, Type (0, 1), BuildingBlock: EZIPEK_clean_linker_0, # of connection points: 2
#     Edge 60, Type (0, 1), BuildingBlock: EZIPEK_clean_linker_0, # of connection points: 2
#     Edge 61, Type (0, 1), BuildingBlock: EZIPEK_clean_linker_0, # of connection points: 2
#     Edge 62, Type (0, 1), BuildingBlock: EZIPEK_clean_linker_0, # of connection points: 2
#     Edge 63, Type (0, 1), BuildingBlock: EZIPEK_clean_linker_0, # of connection points: 2
#     Edge 64, Type (0, 1), BuildingBlock: EZIPEK_clean_linker_0, # of connection points: 2
#     Edge 65, Type (0, 1), BuildingBlock: EZIPEK_clean_linker_0, # of connection points: 2
#     Edge 66, Type (0, 1), BuildingBlock: EZIPEK_clean_linker_0, # of connection points: 2
#     Edge 67, Type (0, 1), BuildingBlock: EZIPEK_clean_linker_0, # of connection points: 2
#     Edge 68, Type (0, 1), BuildingBlock: EZIPEK_clean_linker_0, # of connection points: 2
#     Edge 69, Type (0, 1), BuildingBlock: EZIPEK_clean_linker_0, # of connection points: 2
#     Edge 70, Type (0, 1), BuildingBlock: EZIPEK_clean_linker_0, # of connection points: 2
#     Edge 71, Type (0, 1), BuildingBlock: EZIPEK_clean_linker_0, # of connection points: 2
#     Edge 72, Type (0, 1), BuildingBlock: EZIPEK_clean_linker_0, # of connection points: 2
#     Edge 73, Type (0, 1), BuildingBlock: EZIPEK_clean_linker_0, # of connection points: 2
#     Edge 74, Type (0, 1), BuildingBlock: EZIPEK_clean_linker_0, # of connection points: 2
#     Edge 75, Type (0, 1), BuildingBlock: EZIPEK_clean_linker_0, # of connection points: 2
#     Edge 76, Type (0, 1), BuildingBlock: EZIPEK_clean_linker_0, # of connection points: 2
#     Edge 77, Type (0, 1), BuildingBlock: EZIPEK_clean_linker_0, # of connection points: 2
#     Edge 78, Type (0, 1), BuildingBlock: EZIPEK_clean_linker_0, # of connection points: 2
#     Edge 79, Type (0, 1), BuildingBlock: EZIPEK_clean_linker_0, # of connection points: 2
#     Edge 80, Type (0, 1), BuildingBlock: EZIPEK_clean_linker_0, # of connection points: 2
#     Edge 81, Type (0, 1), BuildingBlock: EZIPEK_clean_linker_0, # of connection points: 2
#     Edge 82, Type (0, 1), BuildingBlock: EZIPEK_clean_linker_0, # of connection points: 2
#     Edge 83, Type (0, 1), BuildingBlock: EZIPEK_clean_linker_0, # of connection points: 2
#     Edge 84, Type (0, 1), BuildingBlock: EZIPEK_clean_linker_0, # of connection points: 2
#     Edge 85, Type (0, 1), BuildingBlock: EZIPEK_clean_linker_0, # of connection points: 2
#     Edge 86, Type (0, 1), BuildingBlock: EZIPEK_clean_linker_0, # of connection points: 2
#     Edge 87, Type (0, 1), BuildingBlock: EZIPEK_clean_linker_0, # of connection points: 2
#     Edge 88, Type (0, 1), BuildingBlock: EZIPEK_clean_linker_0, # of connection points: 2
#     Edge 89, Type (0, 1), BuildingBlock: EZIPEK_clean_linker_0, # of connection points: 2
#     Edge 90, Type (0, 1), BuildingBlock: EZIPEK_clean_linker_0, # of connection points: 2
#     Edge 91, Type (0, 1), BuildingBlock: EZIPEK_clean_linker_0, # of connection points: 2
#     Edge 92, Type (0, 1), BuildingBlock: EZIPEK_clean_linker_0, # of connection points: 2
#     Edge 93, Type (0, 1), BuildingBlock: EZIPEK_clean_linker_0, # of connection points: 2
#     Edge 94, Type (0, 1), BuildingBlock: EZIPEK_clean_linker_0, # of connection points: 2
#     Edge 95, Type (0, 1), BuildingBlock: EZIPEK_clean_linker_0, # of connection points: 2
#     Edge 96, Type (0, 1), BuildingBlock: EZIPEK_clean_linker_0, # of connection points: 2
#     Edge 97, Type (0, 1), BuildingBlock: EZIPEK_clean_linker_0, # of connection points: 2
#     Edge 98, Type (0, 1), BuildingBlock: EZIPEK_clean_linker_0, # of connection points: 2
#     Edge 99, Type (0, 1), BuildingBlock: EZIPEK_clean_linker_0, # of connection points: 2
#     Edge 100, Type (0, 1), BuildingBlock: EZIPEK_clean_linker_0, # of connection points: 2
#     Edge 101, Type (0, 1), BuildingBlock: EZIPEK_clean_linker_0, # of connection points: 2
#     Edge 102, Type (0, 1), BuildingBlock: EZIPEK_clean_linker_0, # of connection points: 2
#     Edge 103, Type (0, 1), BuildingBlock: EZIPEK_clean_linker_0, # of connection points: 2
#     Edge 104, Type (0, 1), BuildingBlock: EZIPEK_clean_linker_0, # of connection points: 2
#     Edge 105, Type (0, 1), BuildingBlock: EZIPEK_clean_linker_0, # of connection points: 2
#     Edge 106, Type (0, 1), BuildingBlock: EZIPEK_clean_linker_0, # of connection points: 2
#     Edge 107, Type (0, 1), BuildingBlock: EZIPEK_clean_linker_0, # of connection points: 2
#     Edge 108, Type (0, 1), BuildingBlock: EZIPEK_clean_linker_0, # of connection points: 2
#     Edge 109, Type (0, 1), BuildingBlock: EZIPEK_clean_linker_0, # of connection points: 2
#     Edge 110, Type (0, 1), BuildingBlock: EZIPEK_clean_linker_0, # of connection points: 2
#     Edge 111, Type (0, 1), BuildingBlock: EZIPEK_clean_linker_0, # of connection points: 2
#     Edge 112, Type (0, 1), BuildingBlock: EZIPEK_clean_linker_0, # of connection points: 2
#     Edge 113, Type (0, 1), BuildingBlock: EZIPEK_clean_linker_0, # of connection points: 2
#     Edge 114, Type (0, 1), BuildingBlock: EZIPEK_clean_linker_0, # of connection points: 2
#     Edge 115, Type (0, 1), BuildingBlock: EZIPEK_clean_linker_0, # of connection points: 2
#     Edge 116, Type (0, 1), BuildingBlock: EZIPEK_clean_linker_0, # of connection points: 2
#     Edge 117, Type (0, 1), BuildingBlock: EZIPEK_clean_linker_0, # of connection points: 2
#     Edge 118, Type (0, 1), BuildingBlock: EZIPEK_clean_linker_0, # of connection points: 2
#     Edge 119, Type (0, 1), BuildingBlock: EZIPEK_clean_linker_0, # of connection points: 2
#     Edge 120, Type (0, 1), BuildingBlock: EZIPEK_clean_linker_0, # of connection points: 2
#     Edge 121, Type (0, 1), BuildingBlock: EZIPEK_clean_linker_0, # of connection points: 2
#     Edge 122, Type (0, 1), BuildingBlock: EZIPEK_clean_linker_0, # of connection points: 2
#     Edge 123, Type (0, 1), BuildingBlock: EZIPEK_clean_linker_0, # of connection points: 2
#     Edge 124, Type (0, 1), BuildingBlock: EZIPEK_clean_linker_0, # of connection points: 2
#     Edge 125, Type (0, 1), BuildingBlock: EZIPEK_clean_linker_0, # of connection points: 2
#     Edge 126, Type (0, 1), BuildingBlock: EZIPEK_clean_linker_0, # of connection points: 2
#     Edge 127, Type (0, 1), BuildingBlock: EZIPEK_clean_linker_0, # of connection points: 2
#     Edge 128, Type (0, 1), BuildingBlock: EZIPEK_clean_linker_0, # of connection points: 2
#     Edge 129, Type (0, 1), BuildingBlock: EZIPEK_clean_linker_0, # of connection points: 2
#     Edge 130, Type (0, 1), BuildingBlock: EZIPEK_clean_linker_0, # of connection points: 2
#     Edge 131, Type (0, 1), BuildingBlock: EZIPEK_clean_linker_0, # of connection points: 2
#     Edge 132, Type (0, 1), BuildingBlock: EZIPEK_clean_linker_0, # of connection points: 2
#     Edge 133, Type (0, 1), BuildingBlock: EZIPEK_clean_linker_0, # of connection points: 2
#     Edge 134, Type (0, 1), BuildingBlock: EZIPEK_clean_linker_0, # of connection points: 2
#     Edge 135, Type (0, 1), BuildingBlock: EZIPEK_clean_linker_0, # of connection points: 2
# Relax obj value: 0.121
# Max RMSD: 0.205
# Mean RMSD: 0.135
data_MOF--net-gar--node1-TATPOV_clean_sbu_0--node2-KUMJIN_clean_sbu_1--edge1-EZIPEK_clean_linker_0
_symmetry_space_group_name_H-M    P1
_symmetry_Int_Tables_number       1
_symmetry_cell_setting            triclinic
loop_
_symmetry_equiv_pos_as_xyz
'x, y, z'
_cell_length_a     45.81379
_cell_length_b     45.522522
_cell_length_c     42.23615
_cell_angle_alpha  97.416046
_cell_angle_beta   98.064499
_cell_angle_gamma 104.44955
loop_
_atom_site_label
_atom_site_type_symbol
_atom_site_fract_x
_atom_site_fract_y
_atom_site_fract_z
_atom_type_partial_charge
Zn0 Zn 0.03344 0.33744 0.39569 0.0
Zn1 Zn 0.07106 0.34171 0.35695 0.0
O2 O 0.08028 0.38692 0.39008 0.0
O3 O 0.04212 0.37963 0.41751 0.0
O4 O 0.1155 0.33738 0.33754 0.0
O5 O 0.04452 0.30782 0.4212 0.0
O6 O 0.06848 0.30263 0.38009 0.0
C7 C 0.0654 0.39743 0.41092 0.0
C8 C 0.99614 0.32617 0.33521 0.0
O9 O 0.02302 0.33395 0.32645 0.0
O10 O 0.99498 0.32312 0.36427 0.0
C11 C 0.13209 0.34071 0.31465 0.0
O12 O 0.12167 0.35157 0.28938 0.0
C13 C 0.05908 0.29321 0.40509 0.0
Zn14 Zn 0.03622 0.73284 0.74765 0.0
Zn15 Zn 0.03849 0.76886 0.70874 0.0
O16 O 0.99983 0.777 0.73138 0.0
O17 O 0.99385 0.74138 0.76107 0.0
O18 O 0.04369 0.80204 0.68141 0.0
O19 O 0.08354 0.75283 0.77056 0.0
O20 O 0.08621 0.78005 0.73221 0.0
C21 C 0.98374 0.76256 0.75013 0.0
C22 C 0.02871 0.70063 0.6792 0.0
O23 O 0.028 0.72753 0.67403 0.0
O24 O 0.03319 0.69763 0.70884 0.0
C25 C 0.02352 0.80582 0.65966 0.0
O26 O 0.99602 0.78652 0.65249 0.0
C27 C 0.10039 0.77184 0.75647 0.0
Zn28 Zn 0.53557 0.83671 0.89795 0.0
Zn29 Zn 0.57241 0.84321 0.8591 0.0
O30 O 0.58159 0.88906 0.89046 0.0
O31 O 0.54355 0.87975 0.91786 0.0
O32 O 0.61471 0.83757 0.83701 0.0
O33 O 0.54875 0.80954 0.92515 0.0
O34 O 0.57418 0.80663 0.88507 0.0
C35 C 0.56613 0.89859 0.9112 0.0
C36 C 0.4969 0.82453 0.83903 0.0
O37 O 0.52347 0.83452 0.83026 0.0
O38 O 0.49658 0.81923 0.86755 0.0
C39 C 0.63452 0.84666 0.81833 0.0
O40 O 0.63098 0.86883 0.80239 0.0
C41 C 0.56538 0.79678 0.91011 0.0
Zn42 Zn 0.53362 0.22979 0.24801 0.0
Zn43 Zn 0.53958 0.27011 0.21139 0.0
O44 O 0.49687 0.27388 0.2286 0.0
O45 O 0.4945 0.24413 0.26491 0.0
O46 O 0.54554 0.30391 0.18452 0.0
O47 O 0.58287 0.24474 0.26609 0.0
O48 O 0.58566 0.28262 0.23901 0.0
C49 C 0.48243 0.2623 0.25014 0.0
C50 C 0.53195 0.20239 0.18028 0.0
O51 O 0.53663 0.23075 0.17737 0.0
O52 O 0.52683 0.19478 0.20739 0.0
C53 C 0.52574 0.30748 0.16218 0.0
O54 O 0.49837 0.28793 0.15444 0.0
C55 C 0.59969 0.26771 0.25675 0.0
Zn56 Zn 0.12215 0.81582 0.07881 0.0
Zn57 Zn 0.0866 0.81334 0.11876 0.0
O58 O 0.08155 0.85538 0.09925 0.0
O59 O 0.11133 0.85847 0.06421 0.0
O60 O 0.05446 0.80954 0.1466 0.0
O61 O 0.10386 0.7665 0.0581 0.0
O62 O 0.07636 0.76469 0.0963 0.0
C63 C 0.09388 0.8712 0.07905 0.0
C64 C 0.15257 0.81964 0.14821 0.0
O65 O 0.12602 0.82053 0.1535 0.0
O66 O 0.15751 0.819 0.11917 0.0
C67 C 0.03065 0.81885 0.14086 0.0
O68 O 0.02582 0.83195 0.11543 0.0
C69 C 0.08587 0.75001 0.07357 0.0
Zn70 Zn 0.47628 0.77725 0.49861 0.0
Zn71 Zn 0.51274 0.78219 0.45883 0.0
O72 O 0.5294 0.82919 0.48628 0.0
O73 O 0.49338 0.82747 0.51476 0.0
O74 O 0.53925 0.7842 0.42456 0.0
O75 O 0.4922 0.73782 0.51487 0.0
O76 O 0.5195 0.73996 0.47658 0.0
C77 C 0.51615 0.84411 0.50501 0.0
C78 C 0.44301 0.7742 0.43327 0.0
O79 O 0.47071 0.7793 0.42867 0.0
O80 O 0.43756 0.76942 0.46117 0.0
C81 C 0.56809 0.79494 0.43237 0.0
O82 O 0.58071 0.80336 0.46319 0.0
C83 C 0.50974 0.72594 0.49926 0.0
Zn84 Zn 0.62349 0.31625 0.57796 0.0
Zn85 Zn 0.58824 0.3147 0.61925 0.0
O86 O 0.58388 0.35721 0.59917 0.0
O87 O 0.61149 0.35752 0.56128 0.0
O88 O 0.55701 0.31134 0.64868 0.0
O89 O 0.6049 0.26673 0.5592 0.0
O90 O 0.57635 0.266 0.59647 0.0
C91 C 0.59451 0.37065 0.57645 0.0
C92 C 0.65508 0.31982 0.64669 0.0
O93 O 0.62843 0.31978 0.65246 0.0
O94 O 0.65989 0.3205 0.61771 0.0
C95 C 0.53405 0.32233 0.64573 0.0
O96 O 0.5292 0.33766 0.62216 0.0
C97 C 0.58624 0.2508 0.57445 0.0
Zn98 Zn 0.97851 0.27689 0.99863 0.0
Zn99 Zn 0.01472 0.28192 0.95927 0.0
O100 O 0.03105 0.32895 0.98675 0.0
O101 O 0.99474 0.327 0.01488 0.0
O102 O 0.04251 0.28355 0.92609 0.0
O103 O 0.99394 0.23799 0.01649 0.0
O104 O 0.02073 0.23936 0.9778 0.0
C105 C 0.0175 0.34374 0.00524 0.0
C106 C 0.94542 0.27431 0.93269 0.0
O107 O 0.97313 0.27994 0.92806 0.0
O108 O 0.94035 0.2685 0.96047 0.0
C109 C 0.07126 0.29456 0.93492 0.0
O110 O 0.08281 0.30379 0.96593 0.0
C111 C 0.01121 0.22572 0.0009 0.0
Zn112 Zn 0.40702 0.96887 0.30574 0.0
Zn113 Zn 0.39887 0.03426 0.32909 0.0
O114 O 0.42128 0.02726 0.36805 0.0
O115 O 0.42773 0.98108 0.35304 0.0
O116 O 0.39389 0.07632 0.33928 0.0
O117 O 0.43625 0.98952 0.28112 0.0
O118 O 0.42426 0.03391 0.29236 0.0
C119 C 0.43226 1.00524 0.37382 0.0
C120 C 0.35075 0.98224 0.3005 0.0
O121 O 0.35656 1.00573 0.32184 0.0
O122 O 0.37058 0.98038 0.2833 0.0
C123 C 0.36757 0.07578 0.34569 0.0
O124 O 0.35466 0.05476 0.36178 0.0
C125 C 0.438 0.01698 0.27703 0.0
Zn126 Zn 0.24125 0.23743 0.52195 0.0
Zn127 Zn 0.28127 0.2041 0.52414 0.0
O128 O 0.29077 0.22638 0.48411 0.0
O129 O 0.25599 0.25173 0.48051 0.0
O130 O 0.31123 0.17864 0.52958 0.0
O131 O 0.25832 0.25706 0.57055 0.0
O132 O 0.29085 0.22883 0.57085 0.0
C133 C 0.27768 0.24374 0.4692 0.0
C134 C 0.21213 0.17308 0.51721 0.0
O135 O 0.23963 0.1713 0.51887 0.0
O136 O 0.20618 0.19876 0.51686 0.0
C137 C 0.3283 0.17107 0.5106 0.0
O138 O 0.32807 0.1802 0.48235 0.0
C139 C 0.27879 0.24738 0.5861 0.0
Zn140 Zn 0.1143 0.10567 0.80591 0.0
Zn141 Zn 0.14156 0.06377 0.80239 0.0
O142 O 0.12431 0.05964 0.84567 0.0
O143 O 0.09345 0.08945 0.84315 0.0
O144 O 0.16417 0.0318 0.79959 0.0
O145 O 0.09845 0.09297 0.75645 0.0
O146 O 0.11271 0.051 0.75679 0.0
C147 C 0.10462 0.07094 0.85776 0.0
C148 C 0.17779 0.13166 0.81125 0.0
O149 O 0.17627 0.10327 0.80362 0.0
O150 O 0.15422 0.13961 0.81702 0.0
C151 C 0.19081 0.03531 0.81546 0.0
O152 O 0.20475 0.0608 0.83604 0.0
C153 C 0.1 0.06782 0.74087 0.0
Zn154 Zn 0.36283 0.94014 0.0098 0.0
Zn155 Zn 0.31972 0.95987 -0.00028 0.0
O156 O 0.30264 0.92343 0.96577 0.0
O157 O 0.35027 0.92379 0.96252 0.0
O158 O 0.29051 0.98352 -0.00031 0.0
O159 O 0.34702 0.91386 0.04024 0.0
O160 O 0.32102 0.9482 0.04513 0.0
C161 C 0.32196 0.91502 0.95071 0.0
C162 C 0.38082 0.9973 0.00263 0.0
O163 O 0.35474 0.98778 0.98491 0.0
O164 O 0.387 0.9838 0.02596 0.0
C165 C 0.26837 0.98301 0.97798 0.0
O166 O 0.26276 0.96482 0.94982 0.0
C167 C 0.33022 0.9264 0.05532 0.0
Zn168 Zn 0.36232 0.36319 0.05826 0.0
Zn169 Zn 0.32061 0.3934 0.05042 0.0
O170 O 0.31008 0.36486 0.00565 0.0
O171 O 0.34947 0.34554 0.00888 0.0
O172 O 0.28847 0.41578 0.04483 0.0
O173 O 0.34455 0.34601 0.09706 0.0
O174 O 0.31402 0.37621 0.09308 0.0
C175 C 0.32624 0.34987 0.99187 0.0
C176 C 0.38869 0.42717 0.06051 0.0
O177 O 0.36069 0.42678 0.05288 0.0
O178 O 0.39591 0.40325 0.06703 0.0
C179 C 0.29108 0.44312 0.05825 0.0
O180 O 0.31653 0.45925 0.07775 0.0
C181 C 0.32482 0.35764 0.10821 0.0
Zn182 Zn 0.74137 0.15773 0.08983 0.0
Zn183 Zn 0.78216 0.13379 0.08695 0.0
O184 O 0.78644 0.16222 0.05342 0.0
O185 O 0.73673 0.1548 0.0411 0.0
O186 O 0.81723 0.11741 0.08853 0.0
O187 O 0.77302 0.19395 0.11448 0.0
O188 O 0.78941 0.15668 0.13203 0.0
C189 C 0.76321 0.16412 0.03435 0.0
C190 C 0.72407 0.0998 0.09295 0.0
O191 O 0.74242 0.09928 0.07327 0.0
O192 O 0.73243 0.12241 0.11537 0.0
C193 C 0.81471 0.09374 0.06828 0.0
O194 O 0.78829 0.07991 0.04929 0.0
C195 C 0.78787 0.18417 0.13626 0.0
Zn196 Zn 0.20092 0.62155 0.24552 0.0
Zn197 Zn 0.21045 0.56767 0.24827 0.0
O198 O 0.18145 0.5574 0.2779 0.0
O199 O 0.18541 0.60735 0.28682 0.0
O200 O 0.22871 0.5338 0.23765 0.0
O201 O 0.16885 0.61132 0.20721 0.0
O202 O 0.18539 0.56956 0.20631 0.0
C203 C 0.17611 0.58049 0.29369 0.0
C204 C 0.25754 0.62133 0.25774 0.0
O205 O 0.24583 0.60226 0.27451 0.0
O206 O 0.24152 0.62034 0.23076 0.0
C207 C 0.23947 0.52663 0.26376 0.0
O208 O 0.23555 0.54056 0.29145 0.0
C209 C 0.16915 0.58516 0.1933 0.0
Zn210 Zn 0.86122 0.86347 0.5584 0.0
Zn211 Zn 0.82141 0.89343 0.55168 0.0
O212 O 0.81272 0.86642 0.50614 0.0
O213 O 0.84982 0.84379 0.50989 0.0
O214 O 0.78801 0.9147 0.54578 0.0
O215 O 0.84624 0.84476 0.59618 0.0
O216 O 0.81306 0.87193 0.59265 0.0
C217 C 0.82763 0.84966 0.49273 0.0
C218 C 0.88968 0.92747 0.56318 0.0
O219 O 0.86204 0.92835 0.55515 0.0
O220 O 0.89496 0.90266 0.56953 0.0
C221 C 0.78982 0.94229 0.55775 0.0
O222 O 0.81518 0.95968 0.57646 0.0
C223 C 0.82496 0.85358 0.60723 0.0
Zn224 Zn 0.98645 0.98456 0.26828 0.0
Zn225 Zn 0.95116 0.02359 0.27037 0.0
O226 O 0.97585 0.03273 0.3178 0.0
O227 O 1.00745 1.00337 0.31573 0.0
O228 O 0.92361 0.05152 0.27044 0.0
O229 O 1.00081 0.99973 0.22711 0.0
O230 O 0.97213 0.03184 0.23045 0.0
C231 C 0.99682 0.02247 0.33195 0.0
C232 C 0.92128 0.9556 0.26413 0.0
O233 O 0.91916 0.98289 0.26457 0.0
O234 O 0.94702 0.94981 0.26482 0.0
C235 C 0.93289 0.07944 0.28418 0.0
O236 O 0.96196 0.09141 0.29704 0.0
C237 C 0.99042 0.02041 0.21591 0.0
Zn238 Zn 0.25618 0.67478 0.57484 0.0
Zn239 Zn 0.28637 0.64088 0.58474 0.0
O240 O 0.29057 0.65472 0.54016 0.0
O241 O 0.28382 0.70049 0.55136 0.0
O242 O 0.31754 0.61995 0.59385 0.0
O243 O 0.25621 0.68863 0.61994 0.0
O244 O 0.29606 0.67018 0.62574 0.0
C245 C 0.29106 0.6809 0.53238 0.0
C246 C 0.22331 0.61317 0.56443 0.0
O247 O 0.24658 0.61055 0.58257 0.0
O248 O 0.22385 0.6374 0.55263 0.0
C249 C 0.31746 0.60033 0.57004 0.0
O250 O 0.29456 0.59262 0.54538 0.0
C251 C 0.27926 0.68513 0.63755 0.0
Zn252 Zn 0.48505 0.48456 0.7657 0.0
Zn253 Zn 0.45374 0.52463 0.76789 0.0
O254 O 0.47748 0.53399 0.81555 0.0
O255 O 0.50925 0.50508 0.81166 0.0
O256 O 0.42591 0.55234 0.76699 0.0
O257 O 0.49739 0.49622 0.72263 0.0
O258 O 0.47863 0.53561 0.73022 0.0
C259 C 0.49902 0.52395 0.82875 0.0
C260 C 0.4217 0.45613 0.7644 0.0
O261 O 0.42039 0.48345 0.76249 0.0
O262 O 0.44712 0.44967 0.76598 0.0
C263 C 0.43452 0.57983 0.782 0.0
O264 O 0.46306 0.59155 0.79684 0.0
C265 C 0.4934 0.52077 0.71379 0.0
Zn266 Zn 0.69932 0.12269 0.74653 0.0
Zn267 Zn 0.71494 0.07145 0.74754 0.0
O268 O 0.68807 0.05985 0.77909 0.0
O269 O 0.68778 0.10874 0.78872 0.0
O270 O 0.73752 0.04125 0.73712 0.0
O271 O 0.6666 0.10894 0.7089 0.0
O272 O 0.68802 0.07043 0.70574 0.0
C273 C 0.68139 0.08171 0.7956 0.0
C274 C 0.75881 0.12884 0.75875 0.0
O275 O 0.74885 0.10667 0.77267 0.0
O276 O 0.74143 0.13216 0.73444 0.0
C277 C 0.73014 0.01636 0.74773 0.0
O278 O 0.70418 0.00871 0.75838 0.0
C279 C 0.66895 0.08396 0.69415 0.0
Zn280 Zn 0.74537 0.73513 0.0257 0.0
Zn281 Zn 0.7836 0.70288 0.02576 0.0
O282 O 0.7908 0.72402 0.98426 0.0
O283 O 0.75744 0.75058 0.98411 0.0
O284 O 0.81657 0.6815 0.03209 0.0
O285 O 0.76099 0.75855 0.07251 0.0
O286 O 0.78986 0.72668 0.0736 0.0
C287 C 0.77688 0.74116 0.96999 0.0
C288 C 0.71729 0.66829 0.01767 0.0
O289 O 0.74449 0.66666 0.01685 0.0
O290 O 0.71209 0.69454 0.02131 0.0
C291 C 0.82524 0.66537 0.01043 0.0
O292 O 0.81328 0.66253 0.97969 0.0
C293 C 0.77979 0.74731 0.08847 0.0
Zn294 Zn 0.91366 0.47752 0.80963 0.0
Zn295 Zn 0.89946 0.53385 0.82909 0.0
O296 O 0.92313 0.53327 0.86978 0.0
O297 O 0.92709 0.48572 0.85816 0.0
O298 O 0.88816 0.5729 0.83361 0.0
O299 O 0.94704 0.49794 0.79036 0.0
O300 O 0.92633 0.53684 0.79386 0.0
C301 C 0.93247 0.5109 0.8776 0.0
C302 C 0.85403 0.47805 0.80002 0.0
O303 O 0.8608 0.49976 0.82371 0.0
O304 O 0.87352 0.47685 0.78217 0.0
C305 C 0.86097 0.57106 0.83762 0.0
O306 O 0.84707 0.54951 0.85252 0.0
C307 C 0.94552 0.52375 0.78336 0.0
Zn308 Zn 0.87716 0.43801 0.50836 0.0
Zn309 Zn 0.81249 0.44989 0.50613 0.0
O310 O 0.81041 0.42447 0.46394 0.0
O311 O 0.85943 0.43453 0.46007 0.0
O312 O 0.7774 0.46615 0.50161 0.0
O313 O 0.8538 0.41754 0.54172 0.0
O314 O 0.80697 0.42332 0.53864 0.0
C315 C 0.83131 0.42281 0.44778 0.0
C316 C 0.86762 0.49404 0.50505 0.0
O317 O 0.84778 0.48797 0.52284 0.0
O318 O 0.86914 0.47227 0.48425 0.0
C319 C 0.77714 0.48791 0.48582 0.0
O320 O 0.79789 0.49582 0.46768 0.0
C321 C 0.82805 0.41268 0.55091 0.0
Zn322 Zn 0.61241 0.60721 0.30244 0.0
Zn323 Zn 0.64395 0.56572 0.30015 0.0
O324 O 0.6232 0.55836 0.34007 0.0
O325 O 0.59503 0.59098 0.34226 0.0
O326 O 0.66706 0.53441 0.297 0.0
O327 O 0.59441 0.59141 0.25366 0.0
O328 O 0.6193 0.55605 0.25325 0.0
C329 C 0.60471 0.57006 0.35386 0.0
C330 C 0.67816 0.63328 0.30906 0.0
O331 O 0.67852 0.60529 0.30723 0.0
O332 O 0.65314 0.64047 0.30924 0.0
C333 C 0.67839 0.52295 0.31996 0.0
O334 O 0.67457 0.53078 0.34981 0.0
C335 C 0.60219 0.56971 0.23799 0.0
Eu336 Eu 0.09258 0.06907 0.06168 0.0
C337 C 0.98961 0.95529 0.98339 0.0
N338 N 1.00646 0.98241 0.97702 0.0
C339 C 1.00228 0.9594 0.92162 0.0
C340 C 0.97829 0.92918 0.95869 0.0
C341 C 0.01239 0.98489 0.94655 0.0
C342 C 0.98506 0.93149 0.92768 0.0
C343 C 0.96425 0.92613 0.02103 0.0
C344 C 0.98247 0.95383 0.01438 0.0
C345 C 0.95281 0.90036 0.99631 0.0
C346 C 0.95977 0.9019 0.96529 0.0
Eu347 Eu 0.01193 0.02521 0.01726 0.0
N348 N 0.99245 0.97959 0.03764 0.0
C349 C 0.95737 0.92527 0.05218 0.0
C350 C 0.98596 0.97858 0.06808 0.0
C351 C 0.96859 0.95153 0.0759 0.0
H352 H 0.02313 1.0069 0.94075 0.0
H353 H 0.96351 0.95115 0.10014 0.0
H354 H 0.10276 0.09953 0.14036 0.0
H355 H 0.1613 0.12377 0.9777 0.0
H356 H 0.99399 0.99831 0.08659 0.0
H357 H 0.94337 0.90448 0.05814 0.0
H358 H 0.13413 0.08045 0.00128 0.0
H359 H 1.0068 0.96161 0.89744 0.0
H360 H 0.93833 0.87914 0.00087 0.0
H361 H 0.95047 0.88184 0.94651 0.0
H362 H 0.10683 0.15055 0.17259 0.0
H363 H 0.97655 0.91206 0.90808 0.0
H364 H 0.1659 0.17737 0.00266 0.0
N365 N 0.10694 0.11696 0.09691 0.0
C366 C 0.11829 0.14229 0.08401 0.0
C367 C 0.10961 0.14864 0.14748 0.0
C368 C 0.1235 0.17207 0.10174 0.0
C369 C 0.10618 0.11977 0.12912 0.0
C370 C 0.11652 0.17484 0.13302 0.0
N371 N 0.12124 0.10894 0.03786 0.0
C372 C 0.13511 0.1036 0.01194 0.0
C373 C 0.14184 0.16374 0.0413 0.0
C374 C 0.12648 0.13817 0.05384 0.0
C375 C 0.15364 0.1584 0.01295 0.0
C376 C 0.15105 0.12818 0.99878 0.0
H377 H 0.11859 0.19719 0.14698 0.0
H378 H 0.14047 0.2209 0.10139 0.0
H379 H 0.15738 0.21361 0.04874 0.0
O380 O 0.12963 0.05013 0.05209 0.0
O381 O 0.06596 0.10369 0.04275 0.0
O382 O 0.01515 0.07795 0.02271 0.0
O383 O 0.13319 0.07699 0.10022 0.0
O384 O 0.08623 0.04578 0.00861 0.0
O385 O 0.04091 0.05159 0.98556 0.0
O386 O 0.96303 0.01258 0.01651 0.0
O387 O 0.04601 0.99428 0.02575 0.0
O388 O 0.07534 0.01964 0.07414 0.0
O389 O 0.98013 0.02464 0.97329 0.0
O390 O 0.01122 0.04649 0.06918 0.0
O391 O 0.06041 0.05949 0.09878 0.0
C392 C 0.03761 0.10413 0.03034 0.0
C393 C 0.17637 0.05716 0.08949 0.0
C394 C 0.21781 0.03981 0.07129 0.0
C395 C 0.23409 0.04644 0.10319 0.0
C396 C 0.19251 0.0641 0.12157 0.0
C397 C 0.22136 0.05866 0.12833 0.0
C398 C 0.18934 0.04533 0.06462 0.0
C399 C 0.06909 0.05161 0.98387 0.0
C400 C 0.14606 0.06186 0.08082 0.0
C401 C 0.13644 0.19779 0.0882 0.0
C402 C 0.14602 0.19363 0.0582 0.0
C403 C 0.06419 0.9935 0.05301 0.0
C404 C 0.93145 0.03016 0.97906 0.0
C405 C 0.89548 0.05531 0.99851 0.0
C406 C 0.87672 0.04652 0.96768 0.0
C407 C 0.91284 0.02138 0.94822 0.0
C408 C 0.92361 0.04866 0.00365 0.0
C409 C 0.88572 0.03004 0.94242 0.0
C410 C 0.03042 0.05463 0.09723 0.0
C411 C 0.95615 0.01605 0.98649 0.0
H412 H 0.25613 0.04173 0.10857 0.0
H413 H 0.18279 0.07336 0.14124 0.0
H414 H 0.23367 0.06351 0.15306 0.0
H415 H 0.17715 0.03979 0.03971 0.0
H416 H 0.85493 0.05195 0.96341 0.0
H417 H 0.91877 1.00696 0.92904 0.0
H418 H 0.93799 0.05574 0.02751 0.0
H419 H 0.87113 0.023 0.91876 0.0
Eu420 Eu 0.27103 0.79887 0.32806 0.0
C421 C 0.34872 0.75345 0.21814 0.0
N422 N 0.35703 0.77099 0.24824 0.0
C423 C 0.3968 0.74637 0.26125 0.0
C424 C 0.36359 0.73081 0.20894 0.0
C425 C 0.38126 0.76825 0.26947 0.0
C426 C 0.38769 0.72729 0.23103 0.0
C427 C 0.31704 0.74074 0.16449 0.0
C428 C 0.32583 0.75859 0.19607 0.0
C429 C 0.33103 0.7175 0.15581 0.0
C430 C 0.35434 0.71265 0.17791 0.0
Eu431 Eu 0.32877 0.8069 0.26035 0.0
N432 N 0.31229 0.78098 0.20519 0.0
C433 C 0.29449 0.74681 0.14243 0.0
C434 C 0.29285 0.78902 0.18231 0.0
C435 C 0.28278 0.77147 0.15121 0.0
H436 H 0.3893 0.7832 0.29263 0.0
H437 H 0.26646 0.77742 0.1338 0.0
H438 H 0.20509 0.8158 0.30529 0.0
H439 H 0.36053 0.85358 0.4366 0.0
H440 H 0.28525 0.80922 0.1874 0.0
H441 H 0.28682 0.73335 0.11822 0.0
H442 H 0.33119 0.81148 0.39368 0.0
H443 H 0.41595 0.74437 0.27822 0.0
H444 H 0.32425 0.70341 0.13187 0.0
H445 H 0.36528 0.69495 0.17067 0.0
H446 H 0.17995 0.85655 0.31945 0.0
H447 H 0.39978 0.71034 0.22477 0.0
H448 H 0.34265 0.90006 0.44799 0.0
N449 N 0.24456 0.83572 0.34199 0.0
C450 C 0.25911 0.85924 0.36679 0.0
C451 C 0.20222 0.85762 0.3329 0.0
C452 C 0.24569 0.8832 0.37536 0.0
C453 C 0.21652 0.83461 0.32497 0.0
C454 C 0.21689 0.88207 0.35815 0.0
N455 N 0.29962 0.83552 0.37519 0.0
C456 C 0.32419 0.83233 0.39571 0.0
C457 C 0.30284 0.88347 0.40968 0.0
C458 C 0.28758 0.85942 0.38346 0.0
C459 C 0.33019 0.88199 0.42785 0.0
C460 C 0.34046 0.85592 0.42135 0.0
H461 H 0.2058 0.89995 0.36414 0.0
H462 H 0.25143 0.92615 0.40751 0.0
H463 H 0.30144 0.92638 0.43761 0.0
O464 O 0.26493 0.76057 0.35392 0.0
O465 O 0.28031 0.84343 0.31085 0.0
O466 O 0.32659 0.84031 0.3035 0.0
O467 O 0.22794 0.78143 0.34545 0.0
O468 O 0.31757 0.78739 0.34073 0.0
O469 O 0.35434 0.80859 0.31107 0.0
O470 O 0.33885 0.85163 0.24544 0.0
O471 O 0.31067 0.76008 0.27308 0.0
O472 O 0.26357 0.76243 0.28377 0.0
O473 O 0.37403 0.82757 0.25003 0.0
O474 O 0.27934 0.80766 0.2411 0.0
O475 O 0.2449 0.79937 0.27712 0.0
C476 C 0.30594 0.85564 0.30247 0.0
C477 C 0.23699 0.76334 0.39531 0.0
C478 C 0.25182 0.74476 0.4446 0.0
C479 C 0.24169 0.76712 0.46263 0.0
C480 C 0.22697 0.78593 0.41331 0.0
C481 C 0.22907 0.78753 0.4469 0.0
C482 C 0.24877 0.7425 0.4111 0.0
C483 C 0.34636 0.79529 0.33575 0.0
C484 C 0.23866 0.76244 0.36087 0.0
C485 C 0.26134 0.90751 0.4007 0.0
C486 C 0.28988 0.90771 0.41773 0.0
C487 C 0.28315 0.74673 0.278 0.0
C488 C 0.37225 0.85628 0.20764 0.0
C489 C 0.35877 0.874 0.15745 0.0
C490 C 0.38515 0.86885 0.14717 0.0
C491 C 0.39883 0.85141 0.19741 0.0
C492 C 0.35202 0.86717 0.18721 0.0
C493 C 0.40506 0.85743 0.1671 0.0
C494 C 0.25164 0.80514 0.24835 0.0
C495 C 0.36579 0.85048 0.23964 0.0
H496 H 0.2435 0.76868 0.48868 0.0
H497 H 0.21807 0.80253 0.40164 0.0
H498 H 0.22132 0.80485 0.4608 0.0
H499 H 0.2566 0.725 0.39741 0.0
H500 H 0.39052 0.87415 0.12402 0.0
H501 H 0.4148 0.84305 0.21284 0.0
H502 H 0.33149 0.87138 0.19462 0.0
H503 H 0.42553 0.85367 0.15926 0.0
Eu504 Eu 0.5147 0.04592 0.56102 0.0
C505 C 0.61611 0.1113 0.4859 0.0
N506 N 0.59466 0.08342 0.47862 0.0
C507 C 0.58417 0.08965 0.42303 0.0
C508 C 0.62181 0.12969 0.46178 0.0
C509 C 0.57956 0.07199 0.44752 0.0
C510 C 0.60526 0.11866 0.4302 0.0
C511 C 0.65548 0.14995 0.52528 0.0
C512 C 0.63297 0.12134 0.51745 0.0
C513 C 0.66092 0.16826 0.50127 0.0
C514 C 0.64419 0.15816 0.46966 0.0
Eu515 Eu 0.59185 0.05482 0.52134 0.0
N516 N 0.62758 0.10313 0.54037 0.0
C517 C 0.67227 0.15917 0.55693 0.0
C518 C 0.64456 0.11154 0.57096 0.0
C519 C 0.66685 0.13983 0.57981 0.0
H520 H 0.56428 0.04905 0.44127 0.0
H521 H 0.68011 0.14652 0.60416 0.0
H522 H 0.52728 0.06003 0.64284 0.0
H523 H 0.4159 0.96567 0.47974 0.0
H524 H 0.64142 0.0964 0.58857 0.0
H525 H 0.68977 0.18095 0.56383 0.0
H526 H 0.45852 0.01342 0.49684 0.0
H527 H 0.57182 0.08064 0.3985 0.0
H528 H 0.67826 0.1902 0.50683 0.0
H529 H 0.64894 0.17246 0.45136 0.0
H530 H 0.5107 0.03329 0.68751 0.0
H531 H 0.60904 0.13211 0.41103 0.0
H532 H 0.40349 0.93017 0.51863 0.0
N533 N 0.49918 0.02411 0.60575 0.0
C534 C 0.4773 0.99672 0.59833 0.0
C535 C 0.50128 0.02267 0.66251 0.0
C536 C 0.46777 0.9803 0.62287 0.0
C537 C 0.51049 0.0378 0.63727 0.0
C538 C 0.48044 0.99344 0.65527 0.0
N539 N 0.471 1.00373 0.54369 0.0
C540 C 0.45377 0.99747 0.5134 0.0
C541 C 0.43864 0.95885 0.55794 0.0
C542 C 0.46284 0.98615 0.5663 0.0
C543 C 0.42239 0.95085 0.52601 0.0
C544 C 0.42943 0.97074 0.50391 0.0
H545 H 0.47362 0.98164 0.67485 0.0
H546 H 0.43795 0.93872 0.63282 0.0
H547 H 0.41247 0.9199 0.57588 0.0
O548 O 0.47724 0.06395 0.54147 0.0
O549 O 0.52061 0.99718 0.54113 0.0
O550 O 0.56932 1.00353 0.52686 0.0
O551 O 0.50036 0.07974 0.59187 0.0
O552 O 0.52121 0.05384 0.51115 0.0
O553 O 0.54929 0.02667 0.48758 0.0
O554 O 0.63552 0.04464 0.53596 0.0
O555 O 0.57282 0.09824 0.52818 0.0
O556 O 0.55239 0.09324 0.57449 0.0
O557 O 0.61759 0.04102 0.48526 0.0
O558 O 0.59196 0.05942 0.57485 0.0
O559 O 0.55095 0.03328 0.59315 0.0
C560 C 0.54318 0.98548 0.53252 0.0
C561 C 0.44922 0.08308 0.5787 0.0
C562 C 0.40509 0.10374 0.57106 0.0
C563 C 0.39608 0.0929 0.59878 0.0
C564 C 0.4399 0.07208 0.6063 0.0
C565 C 0.41339 0.077 0.61621 0.0
C566 C 0.43156 0.09864 0.56102 0.0
C567 C 0.52295 0.03226 0.48861 0.0
C568 C 0.47839 0.08107 0.5692 0.0
C569 C 0.44515 0.95197 0.61437 0.0
C570 C 0.43064 0.94124 0.58194 0.0
C571 C 0.56384 0.11103 0.55394 0.0
C572 C 0.64594 1.00635 0.49903 0.0
C573 C 0.6813 0.97486 0.50707 0.0
C574 C 0.66113 0.95077 0.48403 0.0
C575 C 0.62621 0.98213 0.47564 0.0
C576 C 0.67361 1.00263 0.5146 0.0
C577 C 0.63372 0.95446 0.46839 0.0
C578 C 0.57977 0.03806 0.59078 0.0
C579 C 0.63851 0.0359 0.50632 0.0
H580 H 0.37583 0.09695 0.60697 0.0
H581 H 0.4533 0.06018 0.62043 0.0
H582 H 0.40644 0.0688 0.63768 0.0
H583 H 0.43881 0.10755 0.53994 0.0
H584 H 0.66689 0.92932 0.47785 0.0
H585 H 0.60519 0.98471 0.46258 0.0
H586 H 0.68931 0.02135 0.5322 0.0
H587 H 0.61842 0.93597 0.45033 0.0
Eu588 Eu 0.3386 0.28188 0.7919 0.0
C589 C 0.23581 0.32813 0.71322 0.0
N590 N 0.25559 0.34226 0.74128 0.0
C591 C 0.2644 0.39057 0.72227 0.0
C592 C 0.2308 0.34461 0.68784 0.0
C593 C 0.2687 0.3733 0.74673 0.0
C594 C 0.2458 0.37607 0.69249 0.0
C595 C 0.1976 0.28274 0.68223 0.0
C596 C 0.21935 0.29746 0.7105 0.0
C597 C 0.19373 0.29867 0.65631 0.0
C598 C 0.21023 0.32953 0.65913 0.0
Eu599 Eu 0.26074 0.31142 0.78135 0.0
N600 N 0.22316 0.28267 0.7362 0.0
C601 C 0.17941 0.25287 0.68136 0.0
C602 C 0.20336 0.25485 0.73657 0.0
C603 C 0.18185 0.23915 0.70893 0.0
H604 H 0.28283 0.38482 0.76981 0.0
H605 H 0.16675 0.21673 0.70916 0.0
H606 H 0.32509 0.20766 0.8035 0.0
H607 H 0.42992 0.38191 0.85644 0.0
H608 H 0.20346 0.24482 0.7583 0.0
H609 H 0.16244 0.24082 0.66013 0.0
H610 H 0.38958 0.35118 0.81071 0.0
H611 H 0.2754 0.41505 0.72643 0.0
H612 H 0.17728 0.28764 0.63436 0.0
H613 H 0.20627 0.34179 0.6393 0.0
H614 H 0.34059 0.17858 0.84516 0.0
H615 H 0.24243 0.38954 0.67362 0.0
H616 H 0.44487 0.35782 0.90325 0.0
N617 N 0.35417 0.25095 0.82867 0.0
C618 C 0.37668 0.26578 0.85438 0.0
C619 C 0.35077 0.20315 0.84817 0.0
C620 C 0.38634 0.24999 0.87873 0.0
C621 C 0.34184 0.21982 0.82476 0.0
C622 C 0.37286 0.21834 0.87547 0.0
N623 N 0.38022 0.3113 0.83258 0.0
C624 C 0.39537 0.3409 0.83142 0.0
C625 C 0.41311 0.31329 0.883 0.0
C626 C 0.38981 0.29698 0.85661 0.0
C627 C 0.42701 0.34445 0.88334 0.0
C628 C 0.41854 0.35815 0.85705 0.0
H629 H 0.37955 0.2054 0.89368 0.0
H630 H 0.41614 0.25464 0.92483 0.0
H631 H 0.43967 0.31012 0.92851 0.0
O632 O 0.37168 0.29468 0.75983 0.0
O633 O 0.33242 0.31244 0.83677 0.0
O634 O 0.27975 0.3038 0.83219 0.0
O635 O 0.35801 0.24781 0.76839 0.0
O636 O 0.33845 0.32592 0.77156 0.0
O637 O 0.30618 0.34828 0.79711 0.0
O638 O 0.21453 0.30672 0.79223 0.0
O639 O 0.28174 0.30077 0.73575 0.0
O640 O 0.2989 0.26132 0.75021 0.0
O641 O 0.24794 0.351 0.80398 0.0
O642 O 0.25202 0.26295 0.79299 0.0
O643 O 0.29593 0.24498 0.79681 0.0
C644 C 0.30775 0.31247 0.84968 0.0
C645 C 0.40717 0.2648 0.75466 0.0
C646 C 0.45295 0.27518 0.73027 0.0
C647 C 0.46432 0.25515 0.74798 0.0
C648 C 0.41896 0.24498 0.77254 0.0
C649 C 0.44742 0.24025 0.76915 0.0
C650 C 0.4245 0.28014 0.73382 0.0
C651 C 0.33044 0.35036 0.78328 0.0
C652 C 0.37573 0.26727 0.75462 0.0
C653 C 0.40878 0.2663 0.90566 0.0
C654 C 0.42211 0.2979 0.90782 0.0
C655 C 0.29203 0.27678 0.72757 0.0
C656 C 0.20847 0.34268 0.83561 0.0
C657 C 0.16925 0.33171 0.86936 0.0
C658 C 0.18378 0.35977 0.89011 0.0
C659 C 0.22216 0.37104 0.8564 0.0
C660 C 0.1817 0.32301 0.84218 0.0
C661 C 0.2101 0.37928 0.88366 0.0
C662 C 0.26649 0.2417 0.79746 0.0
C663 C 0.22035 0.33544 0.80555 0.0
H664 H 0.48615 0.25093 0.74519 0.0
H665 H 0.40598 0.23264 0.7886 0.0
H666 H 0.45619 0.22465 0.78262 0.0
H667 H 0.41548 0.29512 0.71954 0.0
H668 H 0.17441 0.36677 0.91111 0.0
H669 H 0.24195 0.38721 0.85133 0.0
H670 H 0.17016 0.3015 0.82595 0.0
H671 H 0.22089 0.40112 0.89952 0.0
Eu672 Eu 0.06963 0.00952 0.52683 0.0
C673 C 0.01773 0.12711 0.59256 0.0
N674 N 1.00376 0.10256 0.56878 0.0
C675 C 0.95502 0.10234 0.58358 0.0
C676 C 1.00093 0.13958 0.6137 0.0
C677 C 0.97269 0.09071 0.56333 0.0
C678 C 0.96927 0.12654 0.60923 0.0
C679 C 0.06359 0.16754 0.61787 0.0
C680 C 0.04859 0.14088 0.59461 0.0
C681 C 0.04734 0.17912 0.64002 0.0
C682 C 0.01606 0.16516 0.63794 0.0
Eu683 Eu 0.03546 0.08373 0.53624 0.0
N684 N 0.06379 0.12887 0.57317 0.0
C685 C 0.0944 0.18192 0.61794 0.0
C686 C 0.09296 0.14435 0.57142 0.0
C687 C 0.10898 0.17058 0.59418 0.0
H688 H 0.96147 0.07205 0.54343 0.0
H689 H 0.13237 0.1823 0.59305 0.0
H690 H 0.14166 0.03347 0.51289 0.0
H691 H 0.96786 0.92801 0.45096 0.0
H692 H 0.10373 0.1372 0.55201 0.0
H693 H 0.10678 0.2023 0.6355 0.0
H694 H 0.99632 0.96734 0.49807 0.0
H695 H 0.93044 0.09255 0.57943 0.0
H696 H 0.05859 0.19922 0.65838 0.0
H697 H 1.00361 0.17478 0.65467 0.0
H698 H 0.17075 0.0233 0.46969 0.0
H699 H 0.95554 0.1355 0.62489 0.0
H700 H 0.99389 0.915 0.40582 0.0
N701 N 0.09918 1.00438 0.48629 0.0
C702 C 0.08441 0.98355 0.45911 0.0
C703 C 0.14646 0.01215 0.46633 0.0
C704 C 0.10035 0.97653 0.43419 0.0
C705 C 0.12985 0.01815 0.49058 0.0
C706 C 0.13166 0.99131 0.438 0.0
N707 N 0.03817 0.97626 0.48042 0.0
C708 C 1.00806 0.96168 0.47891 0.0
C709 C 0.03765 0.94692 0.42847 0.0
C710 C 0.05323 0.96894 0.45621 0.0
C711 C 1.00661 0.93214 0.42665 0.0
C712 C 0.99183 0.93939 0.4521 0.0
H713 H 0.14469 0.98649 0.4194 0.0
H714 H 0.09671 0.94901 0.3872 0.0
H715 H 0.04195 0.9231 0.38226 0.0
O716 O 0.05841 0.96326 0.53875 0.0
O717 O 0.05698 0.03045 0.48174 0.0
O718 O 0.0154 0.0434 0.49536 0.0
O719 O 0.10567 0.9876 0.541 0.0
O720 O 0.02606 1.00315 0.54783 0.0
O721 O 1.00009 0.04059 0.5425 0.0
O722 O 0.04833 0.1157 0.50311 0.0
O723 O 0.05262 0.072 0.58578 0.0
O724 O 0.08214 0.03735 0.57846 0.0
O725 O 1.00071 0.09949 0.50767 0.0
O726 O 0.08141 0.08537 0.51972 0.0
O727 O 0.10632 0.05397 0.54429 0.0
C728 C 0.03149 0.038 0.47314 0.0
C729 C 0.09534 0.94993 0.57534 0.0
C730 C 0.08312 0.91077 0.60946 0.0
C731 C 0.1129 0.92185 0.6276 0.0
C732 C 0.12517 0.96057 0.59371 0.0
C733 C 0.13375 0.94668 0.61977 0.0
C734 C 0.07429 0.925 0.58353 0.0
C735 C 1.00244 0.01416 0.55102 0.0
C736 C 0.08681 0.96285 0.54615 0.0
C737 C 0.08476 0.95477 0.4065 0.0
C738 C 0.05356 0.94 0.40368 0.0
C739 C 0.07037 0.05525 0.59726 0.0
C740 C 0.01748 0.14933 0.49412 0.0
C741 C 0.0286 0.19603 0.47047 0.0
C742 C 1.01016 0.20804 0.48953 0.0
C743 C 0.99926 0.16175 0.51325 0.0
C744 C 0.03236 0.16671 0.47292 0.0
C745 C 0.99565 0.19099 0.51088 0.0
C746 C 0.10665 0.07945 0.53295 0.0
C747 C 0.0206 0.11805 0.495 0.0
H748 H 0.12005 0.91103 0.6476 0.0
H749 H 0.14202 0.97939 0.58776 0.0
H750 H 0.15679 0.95493 0.63369 0.0
H751 H 0.05136 0.91608 0.56933 0.0
H752 H 1.00696 0.23061 0.48778 0.0
H753 H 0.98762 0.14886 0.52982 0.0
H754 H 0.04642 0.15732 0.458 0.0
H755 H 0.98143 0.20038 0.52547 0.0
Eu756 Eu 0.30773 0.8426 0.76669 0.0
C757 C 0.2468 0.72646 0.84931 0.0
N758 N 0.27198 0.75112 0.85551 0.0
C759 C 0.2672 0.75986 0.91162 0.0
C760 C 0.22993 0.71866 0.87404 0.0
C761 C 0.28342 0.7664 0.88659 0.0
C762 C 0.23996 0.73631 0.90516 0.0
C763 C 0.2145 0.68036 0.8131 0.0
C764 C 0.23902 0.70747 0.81893 0.0
C765 C 0.19681 0.67362 0.83714 0.0
C766 C 0.20441 0.69278 0.86745 0.0
Eu767 Eu 0.29566 0.76058 0.81008 0.0
N768 N 0.25602 0.71459 0.79556 0.0
C769 C 0.20883 0.66042 0.78345 0.0
C770 C 0.25173 0.69438 0.7675 0.0
C771 C 0.22798 0.66709 0.7609 0.0
H772 H 0.305 0.78378 0.89209 0.0
H773 H 0.22478 0.6509 0.73876 0.0
H774 H 0.30404 0.81727 0.68512 0.0
H775 H 0.39234 0.93603 0.84953 0.0
H776 H 0.26754 0.69869 0.75101 0.0
H777 H 0.19042 0.63927 0.77822 0.0
H778 H 0.34349 0.89503 0.8319 0.0
H779 H 0.27594 0.77273 0.93595 0.0
H780 H 0.17762 0.65318 0.83281 0.0
H781 H 0.19103 0.68675 0.88605 0.0
H782 H 0.3377 0.82553 0.64503 0.0
H783 H 0.22759 0.73104 0.92471 0.0
H784 H 0.42959 0.94515 0.81232 0.0
N785 N 0.33675 0.84755 0.72432 0.0
C786 C 0.36451 0.86916 0.73289 0.0
C787 C 0.34563 0.83765 0.66976 0.0
C788 C 0.38419 0.875 0.71016 0.0
C789 C 0.3267 0.83272 0.6929 0.0
C790 C 0.37458 0.8586 0.67847 0.0
N791 N 0.3537 0.88102 0.78578 0.0
C792 C 0.35977 0.89892 0.81564 0.0
C793 C 0.40112 0.90955 0.77328 0.0
C794 C 0.37301 0.88648 0.76422 0.0
C795 C 0.40823 0.92722 0.80448 0.0
C796 C 0.38726 0.92216 0.82558 0.0
H797 H 0.38902 0.8625 0.66034 0.0
H798 H 0.42788 0.90212 0.70227 0.0
H799 H 0.44268 0.9322 0.75744 0.0
O800 O 0.28986 0.87986 0.78682 0.0
O801 O 0.35354 0.83005 0.78347 0.0
O802 O 0.34651 0.78901 0.81304 0.0
O803 O 0.29836 0.87595 0.73735 0.0
O804 O 0.318 0.83472 0.81723 0.0
O805 O 0.28731 0.8005 0.83957 0.0
O806 O 0.31408 0.72137 0.79635 0.0
O807 O 0.24922 0.76641 0.78481 0.0
O808 O 0.2568 0.81589 0.77024 0.0
O809 O 0.32727 0.74921 0.84603 0.0
O810 O 0.30743 0.78062 0.76706 0.0
O811 O 0.28457 0.80094 0.73008 0.0
C812 C 0.36432 0.81102 0.80061 0.0
C813 C 0.26019 0.89977 0.7489 0.0
C814 C 0.22969 0.93572 0.75653 0.0
C815 C 0.20931 0.92042 0.72778 0.0
C816 C 0.23994 0.88475 0.7199 0.0
C817 C 0.2145 0.89501 0.70952 0.0
C818 C 0.25511 0.9254 0.76694 0.0
C819 C 0.29769 0.82877 0.83566 0.0
C820 C 0.28791 0.89071 0.7597 0.0
C821 C 0.41251 0.89748 0.71943 0.0
C822 C 0.42095 0.91466 0.75086 0.0
C823 C 0.23826 0.78914 0.77483 0.0
C824 C 0.3503 0.70725 0.83659 0.0
C825 C 0.37544 0.66677 0.82564 0.0
C826 C 0.39137 0.67438 0.85777 0.0
C827 C 0.36655 0.7145 0.8687 0.0
C828 C 0.35456 0.68299 0.81509 0.0
C829 C 0.38687 0.69806 0.87918 0.0
C830 C 0.28908 0.77635 0.73957 0.0
C831 C 0.3301 0.72603 0.82584 0.0
H832 H 0.18967 0.92839 0.71936 0.0
H833 H 0.2439 0.86533 0.70515 0.0
H834 H 0.19893 0.8834 0.6872 0.0
H835 H 0.27109 0.93757 0.78891 0.0
H836 H 0.40747 0.66199 0.86622 0.0
H837 H 0.3638 0.73308 0.88579 0.0
H838 H 0.34229 0.6771 0.79025 0.0
H839 H 0.39933 0.70386 0.90389 0.0
Eu840 Eu 0.55127 0.082 0.99879 0.0
C841 C 0.62029 0.02079 0.10717 0.0
N842 N 0.59551 1.0062 0.08393 0.0
C843 C 0.61605 0.96313 0.07348 0.0
C844 C 0.64502 1.00779 0.11306 0.0
C845 C 0.59219 0.97702 0.06849 0.0
C846 C 0.64294 0.97892 0.09527 0.0
C847 C 0.64344 0.06091 0.15379 0.0
C848 C 0.61939 0.04709 0.12723 0.0
C849 C 0.66939 0.04965 0.15798 0.0
C850 C 0.67014 0.02307 0.13769 0.0
Eu851 Eu 0.55688 0.03147 0.0756 0.0
N852 N 0.59345 0.05676 0.12317 0.0
C853 C 0.63981 0.08426 0.17659 0.0
C854 C 0.58847 0.07687 0.14739 0.0
C855 C 0.61183 0.09152 0.17394 0.0
H856 H 0.57123 0.96449 0.05203 0.0
H857 H 0.60809 0.10814 0.19258 0.0
H858 H 0.54486 0.15412 0.01716 0.0
H859 H 0.49076 1.00162 0.88783 0.0
H860 H 0.5665 0.08167 0.14658 0.0
H861 H 0.65772 0.09546 0.19732 0.0
H862 H 0.5354 0.02931 0.93014 0.0
H863 H 0.61364 0.94026 0.0606 0.0
H864 H 0.68828 0.06036 0.17791 0.0
H865 H 0.68957 0.01369 0.14226 0.0
H866 H 0.50675 0.18323 0.00631 0.0
H867 H 0.66131 0.96803 0.09928 0.0
H868 H 0.44327 0.01853 0.88389 0.0
N869 N 0.51641 0.11212 0.9886 0.0
C870 C 0.49001 0.09839 0.96731 0.0
C871 C 0.50153 0.15921 0.99552 0.0
C872 C 0.46731 0.11387 0.9608 0.0
C873 C 0.52312 0.14265 0.00149 0.0
C874 C 0.47317 0.14452 0.97575 0.0
N875 N 0.51235 0.0592 0.95251 0.0
C876 C 0.51448 0.03615 0.9296 0.0
C877 C 0.462 0.05635 0.92419 0.0
C878 C 0.48766 0.07047 0.94893 0.0
C879 C 0.46255 0.03022 0.90309 0.0
C880 C 0.48933 0.02068 0.90518 0.0
H881 H 0.45656 0.15742 0.97103 0.0
H882 H 0.42257 0.11021 0.93308 0.0
H883 H 0.41765 0.05932 0.90136 0.0
O884 O 0.58871 0.08284 0.97222 0.0
O885 O 0.51766 0.03985 0.00532 0.0
O886 O 0.51337 0.04392 0.05837 0.0
O887 O 0.57621 0.12466 0.98552 0.0
O888 O 0.56206 0.03528 0.98422 0.0
O889 O 0.55571 1.00425 0.02473 0.0
O890 O 0.54859 1.00864 0.11669 0.0
O891 O 0.59753 0.04474 0.05172 0.0
O892 O 0.58381 0.08651 0.04344 0.0
O893 O 0.51945 0.98941 0.06987 0.0
O894 O 0.54928 0.08038 0.09051 0.0
O895 O 0.54749 0.10927 0.04796 0.0
C896 C 0.50131 0.04156 0.02787 0.0
C897 C 0.59398 0.11811 0.93616 0.0
C898 C 0.61243 0.10902 0.886 0.0
C899 C 0.59902 0.13071 0.87375 0.0
C900 C 0.58062 0.14002 0.924 0.0
C901 C 0.58309 0.14615 0.89278 0.0
C902 C 0.60965 0.10257 0.91691 0.0
C903 C 0.56102 0.00889 0.99526 0.0
C904 C 0.59258 0.11146 0.96894 0.0
C905 C 0.44054 0.09895 0.93801 0.0
C906 C 0.43774 0.07 0.91992 0.0
C907 C 0.60337 0.07061 0.04104 0.0
C908 C 0.49737 0.98249 0.11661 0.0
C909 C 0.47286 0.99524 0.16172 0.0
C910 C 0.44879 0.96831 0.15043 0.0
C911 C 0.47332 0.95554 0.10555 0.0
C912 C 0.49655 1.00281 0.14425 0.0
C913 C 0.44893 0.94869 0.12226 0.0
C914 C 0.54629 0.10581 0.07878 0.0
C915 C 0.52417 0.98794 0.10069 0.0
H916 H 0.60135 0.13599 0.84979 0.0
H917 H 0.56842 0.15245 0.93852 0.0
H918 H 0.57294 0.16309 0.88349 0.0
H919 H 0.62048 0.08598 0.9262 0.0
H920 H 0.43014 0.96231 0.16369 0.0
H921 H 0.47369 0.93961 0.0843 0.0
H922 H 0.51485 0.0238 0.15313 0.0
H923 H 0.43045 0.92784 0.11378 0.0
Eu924 Eu 0.28848 0.25925 0.26695 0.0
C925 C 0.40294 0.35537 0.33902 0.0
N926 N 0.37564 0.34043 0.3464 0.0
C927 C 0.40166 0.33141 0.39601 0.0
C928 C 0.43078 0.35778 0.35963 0.0
C929 C 0.37464 0.32977 0.3751 0.0
C930 C 0.42985 0.34502 0.38802 0.0
C931 C 0.43119 0.38401 0.30297 0.0
C932 C 0.40309 0.36807 0.31061 0.0
C933 C 0.45882 0.38639 0.32354 0.0
C934 C 0.45863 0.37325 0.35168 0.0
Eu935 Eu 0.33146 0.3415 0.31082 0.0
N936 N 0.37595 0.36562 0.29098 0.0
C937 C 0.43079 0.39768 0.27517 0.0
C938 C 0.37564 0.37999 0.26447 0.0
C939 C 0.40287 0.39583 0.25598 0.0
H940 H 0.35317 0.32068 0.38251 0.0
H941 H 0.40224 0.40693 0.23482 0.0
H942 H 0.26725 0.2435 0.18548 0.0
H943 H 0.22738 0.19728 0.35166 0.0
H944 H 0.35462 0.38032 0.25022 0.0
H945 H 0.45187 0.41015 0.2686 0.0
H946 H 0.27249 0.22255 0.33014 0.0
H947 H 0.40072 0.32261 0.41858 0.0
H948 H 0.48052 0.39861 0.31803 0.0
H949 H 0.48018 0.37554 0.36742 0.0
H950 H 0.21969 0.22349 0.14471 0.0
H951 H 0.45075 0.34638 0.40442 0.0
H952 H 0.17562 0.18579 0.31833 0.0
N953 N 0.24458 0.23747 0.22574 0.0
C954 C 0.21805 0.22451 0.23546 0.0
C955 C 0.21886 0.22423 0.17027 0.0
C956 C 0.19029 0.21316 0.21316 0.0
C957 C 0.24564 0.23569 0.19344 0.0
C958 C 0.19098 0.21405 0.18033 0.0
N959 N 0.24684 0.2295 0.2872 0.0
C960 C 0.25015 0.21965 0.31634 0.0
C961 C 0.19255 0.20505 0.27798 0.0
C962 C 0.21916 0.22052 0.26733 0.0
C963 C 0.19544 0.19784 0.30927 0.0
C964 C 0.22455 0.2044 0.3282 0.0
H965 H 0.17053 0.20575 0.16234 0.0
H966 H 0.14145 0.1926 0.20772 0.0
H967 H 0.14347 0.18483 0.26447 0.0
O968 O 0.30775 0.22277 0.28103 0.0
O969 O 0.2541 0.28374 0.28806 0.0
O970 O 0.27843 0.33592 0.29672 0.0
O971 O 0.29442 0.22436 0.23019 0.0
O972 O 0.31019 0.26688 0.32087 0.0
O973 O 0.30512 0.31285 0.34277 0.0
O974 O 0.34528 0.39131 0.31721 0.0
O975 O 0.36041 0.30586 0.30364 0.0
O976 O 0.33628 0.28027 0.25411 0.0
O977 O 0.32819 0.36958 0.35574 0.0
O978 O 0.31309 0.34181 0.25766 0.0
O979 O 0.29013 0.29214 0.23015 0.0
C980 C 0.25313 0.31294 0.29491 0.0
C981 C 0.29093 0.17555 0.2444 0.0
C982 C 0.29332 0.12695 0.25969 0.0
C983 C 0.27485 0.1112 0.23002 0.0
C984 C 0.27228 0.15999 0.21458 0.0
C985 C 0.26406 0.12783 0.20763 0.0
C986 C 0.30077 0.15882 0.26695 0.0
C987 C 0.30373 0.28417 0.34495 0.0
C988 C 0.30393 0.20888 0.25111 0.0
C989 C 0.16318 0.20028 0.22419 0.0
C990 C 0.16431 0.19607 0.25658 0.0
C991 C 0.36191 0.28989 0.27573 0.0
C992 C 0.31572 0.41553 0.34698 0.0
C993 C 0.289 0.44917 0.32291 0.0
C994 C 0.27666 0.45385 0.3511 0.0
C995 C 0.30378 0.42075 0.37542 0.0
C996 C 0.30822 0.42995 0.32075 0.0
C997 C 0.28405 0.43961 0.37727 0.0
C998 C 0.29909 0.32219 0.23078 0.0
C999 C 0.336 0.39525 0.34467 0.0
H1000 H 0.2699 0.0864 0.22381 0.0
H1001 H 0.26481 0.17255 0.19636 0.0
H1002 H 0.25028 0.11594 0.18445 0.0
H1003 H 0.31627 0.17069 0.28937 0.0
H1004 H 0.26187 0.46898 0.35301 0.0
H1005 H 0.30942 0.40995 0.39598 0.0
H1006 H 0.31763 0.42689 0.29877 0.0
H1007 H 0.27466 0.44339 0.39909 0.0
Eu1008 Eu 0.56582 0.5088 0.02772 0.0
C1009 C 0.51933 0.62384 0.10001 0.0
N1010 N 0.50502 0.60156 0.07383 0.0
C1011 C 0.4562 0.60077 0.08875 0.0
C1012 C 0.50251 0.63419 0.12256 0.0
C1013 C 0.47375 0.59111 0.06714 0.0
C1014 C 0.47065 0.62208 0.1168 0.0
C1015 C 0.56638 0.65863 0.13213 0.0
C1016 C 0.55102 0.6359 0.10483 0.0
C1017 C 0.54971 0.66837 0.15488 0.0
C1018 C 0.51789 0.65622 0.1501 0.0
Eu1019 Eu 0.53719 0.5872 0.03891 0.0
N1020 N 0.56679 0.6258 0.08272 0.0
C1021 C 0.59804 0.67126 0.13556 0.0
C1022 C 0.59733 0.63951 0.08495 0.0
C1023 C 0.6135 0.66196 0.11161 0.0
H1024 H 0.46219 0.57523 0.04505 0.0
H1025 H 0.63783 0.67223 0.11353 0.0
H1026 H 0.63532 0.53593 0.00826 0.0
H1027 H 0.47204 0.4081 0.96564 0.0
H1028 H 0.60928 0.63317 0.06626 0.0
H1029 H 0.61063 0.68872 0.15619 0.0
H1030 H 0.50006 0.44932 0.01101 0.0
H1031 H 0.4315 0.59189 0.08367 0.0
H1032 H 0.56118 0.6856 0.17609 0.0
H1033 H 0.50533 0.6642 0.16776 0.0
H1034 H 0.66199 0.52802 0.96269 0.0
H1035 H 0.45697 0.62944 0.13356 0.0
H1036 H 0.49377 0.40065 0.91582 0.0
N1037 N 0.59323 0.50357 0.98493 0.0
C1038 C 0.57886 0.48077 0.95927 0.0
C1039 C 0.63845 0.51496 0.96115 0.0
C1040 C 0.59351 0.47524 0.93273 0.0
C1041 C 0.623 0.51978 0.98678 0.0
C1042 C 0.62352 0.49289 0.93382 0.0
N1043 N 0.53639 0.46741 0.98626 0.0
C1044 C 0.50945 0.44736 0.98906 0.0
C1045 C 0.53456 0.43843 0.93359 0.0
C1046 C 0.54961 0.46248 0.95979 0.0
C1047 C 0.50602 0.41926 0.93549 0.0
C1048 C 0.49365 0.42346 0.96354 0.0
H1049 H 0.63563 0.48913 0.91405 0.0
H1050 H 0.58897 0.44753 0.88565 0.0
H1051 H 0.53732 0.41546 0.88629 0.0
O1052 O 0.56358 0.4625 0.03756 0.0
O1053 O 0.55648 0.52876 0.98138 0.0
O1054 O 0.51873 0.55234 0.99091 0.0
O1055 O 0.60616 0.49795 0.05284 0.0
O1056 O 0.51619 0.50168 0.03578 0.0
O1057 O 0.50078 0.54668 0.04697 0.0
O1058 O 0.54925 0.63305 0.02565 0.0
O1059 O 0.56756 0.57846 0.08313 0.0
O1060 O 0.5569 0.52556 0.07805 0.0
O1061 O 0.503 0.60257 0.00857 0.0
O1062 O 0.57755 0.58409 0.01485 0.0
O1063 O 0.60305 0.55523 0.04087 0.0
C1064 C 0.53395 0.54017 0.97077 0.0
C1065 C 0.59798 0.4552 0.08169 0.0
C1066 C 0.58432 0.4138 0.11317 0.0
C1067 C 0.61356 0.42449 0.13253 0.0
C1068 C 0.62721 0.46525 0.10132 0.0
C1069 C 0.63481 0.45011 0.12666 0.0
C1070 C 0.57646 0.42927 0.08783 0.0
C1071 C 0.49609 0.51667 0.04344 0.0
C1072 C 0.5917 0.46935 0.05264 0.0
C1073 C 0.57811 0.45195 0.9063 0.0
C1074 C 0.54869 0.43368 0.90667 0.0
C1075 C 0.56673 0.55329 0.09587 0.0
C1076 C 0.51369 0.65265 0.99194 0.0
C1077 C 0.52745 0.69606 0.96388 0.0
C1078 C 0.49696 0.69763 0.95983 0.0
C1079 C 0.48327 0.6544 0.98764 0.0
C1080 C 0.53583 0.67357 0.98003 0.0
C1081 C 0.47501 0.67691 0.97172 0.0
C1082 C 0.60349 0.58063 0.02856 0.0
C1083 C 0.52217 0.62906 0.00887 0.0
H1084 H 0.62001 0.41278 0.15204 0.0
H1085 H 0.64448 0.48447 0.09665 0.0
H1086 H 0.65746 0.45796 0.1415 0.0
H1087 H 0.55401 0.42055 0.07257 0.0
H1088 H 0.4902 0.71491 0.94737 0.0
H1089 H 0.46596 0.63853 0.99683 0.0
H1090 H 0.55935 0.67228 0.98301 0.0
H1091 H 0.45155 0.67827 0.96856 0.0
Eu1092 Eu 0.80572 0.34148 0.26544 0.0
C1093 C 0.7442 0.23196 0.34952 0.0
N1094 N 0.77134 0.25431 0.35614 0.0
C1095 C 0.76728 0.26323 0.4124 0.0
C1096 C 0.72681 0.22562 0.37415 0.0
C1097 C 0.7838 0.26865 0.38736 0.0
C1098 C 0.73841 0.24206 0.40566 0.0
C1099 C 0.70767 0.18915 0.31214 0.0
C1100 C 0.73465 0.21377 0.31866 0.0
C1101 C 0.68951 0.18415 0.3361 0.0
C1102 C 0.69905 0.2023 0.36699 0.0
Eu1103 Eu 0.7955 0.26181 0.31074 0.0
N1104 N 0.75267 0.21872 0.29577 0.0
C1105 C 0.70041 0.16939 0.28217 0.0
C1106 C 0.74704 0.1982 0.26772 0.0
C1107 C 0.72059 0.17348 0.26021 0.0
H1108 H 0.80635 0.28465 0.39286 0.0
H1109 H 0.716 0.15727 0.23783 0.0
H1110 H 0.80122 0.31499 0.18476 0.0
H1111 H 0.88894 0.43805 0.34609 0.0
H1112 H 0.76349 0.20047 0.25174 0.0
H1113 H 0.68003 0.15009 0.27637 0.0
H1114 H 0.84071 0.39623 0.32955 0.0
H1115 H 0.77692 0.27522 0.43692 0.0
H1116 H 0.66856 0.16556 0.33134 0.0
H1117 H 0.68528 0.19742 0.38554 0.0
H1118 H 0.83377 0.32361 0.14345 0.0
H1119 H 0.72576 0.23775 0.4252 0.0
H1120 H 0.92535 0.44755 0.30804 0.0
N1121 N 0.83382 0.34693 0.22266 0.0
C1122 C 0.86092 0.36946 0.23037 0.0
C1123 C 0.8418 0.33639 0.16789 0.0
C1124 C 0.88002 0.37538 0.20715 0.0
C1125 C 0.82353 0.33132 0.1916 0.0
C1126 C 0.8703 0.35823 0.17578 0.0
N1127 N 0.85036 0.38201 0.28321 0.0
C1128 C 0.85657 0.40022 0.31293 0.0
C1129 C 0.89701 0.41115 0.26969 0.0
C1130 C 0.86932 0.38748 0.26133 0.0
C1131 C 0.90424 0.42922 0.30069 0.0
C1132 C 0.88375 0.42395 0.32225 0.0
H1133 H 0.88429 0.36217 0.15726 0.0
H1134 H 0.92287 0.4033 0.19815 0.0
H1135 H 0.93781 0.43434 0.25288 0.0
O1136 O 0.7881 0.38031 0.2831 0.0
O1137 O 0.85241 0.33029 0.2812 0.0
O1138 O 0.84625 0.28948 0.31105 0.0
O1139 O 0.78957 0.36774 0.23125 0.0
O1140 O 0.8187 0.33576 0.31606 0.0
O1141 O 0.78923 0.30298 0.34066 0.0
O1142 O 0.81032 0.21981 0.29884 0.0
O1143 O 0.74883 0.2663 0.28471 0.0
O1144 O 0.75612 0.31675 0.27304 0.0
O1145 O 0.82632 0.24961 0.3471 0.0
O1146 O 0.80903 0.27632 0.26553 0.0
O1147 O 0.78337 0.29796 0.2314 0.0
C1148 C 0.86374 0.31155 0.29833 0.0
C1149 C 0.77103 0.41176 0.24508 0.0
C1150 C 0.74441 0.45034 0.25775 0.0
C1151 C 0.74729 0.45965 0.22769 0.0
C1152 C 0.77387 0.42127 0.21498 0.0
C1153 C 0.76204 0.44513 0.2064 0.0
C1154 C 0.75626 0.4264 0.26646 0.0
C1155 C 0.79982 0.33095 0.33602 0.0
C1156 C 0.78315 0.38636 0.25366 0.0
C1157 C 0.90789 0.39859 0.21567 0.0
C1158 C 0.91639 0.41634 0.24684 0.0
C1159 C 0.73809 0.28986 0.27731 0.0
C1160 C 0.84574 0.20488 0.33912 0.0
C1161 C 0.87162 0.16493 0.32825 0.0
C1162 C 0.88585 0.17125 0.36098 0.0
C1163 C 0.86023 0.21075 0.37183 0.0
C1164 C 0.85117 0.1815 0.31734 0.0
C1165 C 0.88005 0.19394 0.38264 0.0
C1166 C 0.78994 0.27342 0.23887 0.0
C1167 C 0.82725 0.22503 0.32781 0.0
H1168 H 0.73788 0.47794 0.22067 0.0
H1169 H 0.78523 0.41028 0.19806 0.0
H1170 H 0.76418 0.45226 0.18316 0.0
H1171 H 0.75361 0.41908 0.28957 0.0
H1172 H 0.90163 0.15864 0.3697 0.0
H1173 H 0.85661 0.22868 0.3891 0.0
H1174 H 0.84041 0.17679 0.292 0.0
H1175 H 0.89125 0.19876 0.4078 0.0
Eu1176 Eu 0.04719 0.58064 0.4995 0.0
C1177 C 0.10589 0.51047 0.61093 0.0
N1178 N 0.08158 0.4962 0.58684 0.0
C1179 C 0.0953 0.44873 0.58552 0.0
C1180 C 0.12668 0.49431 0.62238 0.0
C1181 C 0.07535 0.46562 0.57488 0.0
C1182 C 0.12131 0.46324 0.60904 0.0
C1183 C 0.13436 0.55561 0.65066 0.0
C1184 C 0.10949 0.54095 0.62498 0.0
C1185 C 0.15551 0.53979 0.66131 0.0
C1186 C 0.15168 0.50927 0.64723 0.0
Eu1187 Eu 0.04823 0.52516 0.57101 0.0
N1188 N 0.08859 0.55594 0.6142 0.0
C1189 C 0.13718 0.58566 0.6654 0.0
C1190 C 0.09176 0.58552 0.62883 0.0
C1191 C 0.11574 0.60059 0.65449 0.0
H1192 H 0.05506 0.45438 0.55686 0.0
H1193 H 0.11781 0.62399 0.66563 0.0
H1194 H 0.04349 0.65313 0.51911 0.0
H1195 H 0.98462 0.49478 0.39012 0.0
H1196 H 0.07675 0.59863 0.62119 0.0
H1197 H 0.15583 0.59757 0.68522 0.0
H1198 H 0.01973 0.51307 0.44066 0.0
H1199 H 0.09062 0.42456 0.57556 0.0
H1200 H 0.17471 0.55087 0.68082 0.0
H1201 H 0.16794 0.49724 0.65615 0.0
H1202 H 0.01246 0.68703 0.50098 0.0
H1203 H 0.13673 0.45008 0.61726 0.0
H1204 H 0.95092 0.52559 0.3704 0.0
N1205 N 0.01933 0.61489 0.48238 0.0
C1206 C 0.99692 0.6041 0.45575 0.0
C1207 C 1.00774 0.66373 0.48809 0.0
C1208 C 0.97847 0.62274 0.44473 0.0
C1209 C 0.02525 0.64443 0.49827 0.0
C1210 C 0.98399 0.65272 0.46144 0.0
N1211 N 0.01081 0.55713 0.45012 0.0
C1212 C 1.00788 0.52874 0.43236 0.0
C1213 C 0.97035 0.56361 0.41031 0.0
C1214 C 0.99278 0.57468 0.43896 0.0
C1215 C 0.9677 0.53475 0.39251 0.0
C1216 C 0.98678 0.51742 0.40344 0.0
H1217 H 0.97035 0.66768 0.45368 0.0
H1218 H 0.94084 0.62504 0.40866 0.0
H1219 H 0.93387 0.5733 0.37838 0.0
O1220 O 0.0861 0.58172 0.47542 0.0
O1221 O 1.0013 0.56391 0.51259 0.0
O1222 O 1.01053 0.52113 0.52834 0.0
O1223 O 0.0758 0.62427 0.49092 0.0
O1224 O 0.05575 0.53274 0.4849 0.0
O1225 O 0.05527 0.49975 0.52312 0.0
O1226 O 0.03814 0.50701 0.61429 0.0
O1227 O 0.09232 0.53849 0.55373 0.0
O1228 O 0.07745 0.57941 0.5447 0.0
O1229 O 1.0091 0.48489 0.5685 0.0
O1230 O 0.03399 0.56991 0.58442 0.0
O1231 O 0.04296 0.60619 0.54988 0.0
C1232 C 0.99278 0.5396 0.52594 0.0
C1233 C 0.09332 0.61789 0.44077 0.0
C1234 C 0.11013 0.60762 0.38944 0.0
C1235 C 0.09587 0.62878 0.37726 0.0
C1236 C 0.07925 0.63923 0.42844 0.0
C1237 C 0.0805 0.64451 0.39674 0.0
C1238 C 0.10855 0.60199 0.42098 0.0
C1239 C 0.0589 0.50644 0.49386 0.0
C1240 C 0.09146 0.61075 0.47351 0.0
C1241 C 0.9554 0.61117 0.41718 0.0
C1242 C 0.95143 0.58173 0.39996 0.0
C1243 C 0.09803 0.56432 0.54316 0.0
C1244 C 0.98698 0.48221 0.61606 0.0
C1245 C 0.96552 0.49558 0.66344 0.0
C1246 C 0.93954 0.47055 0.65189 0.0
C1247 C 0.96097 0.45718 0.6046 0.0
C1248 C 0.98858 0.50195 0.64501 0.0
C1249 C 0.93714 0.45165 0.6223 0.0
C1250 C 0.03389 0.59745 0.57697 0.0
C1251 C 0.0136 0.48586 0.59973 0.0
H1252 H 0.09706 0.6334 0.35287 0.0
H1253 H 0.06715 0.65165 0.44309 0.0
H1254 H 0.06966 0.66094 0.38731 0.0
H1255 H 0.11962 0.58556 0.43018 0.0
H1256 H 0.92144 0.46543 0.66598 0.0
H1257 H 0.9594 0.44159 0.58237 0.0
H1258 H 1.0085 0.52131 0.65446 0.0
H1259 H 0.91717 0.43227 0.61349 0.0
Eu1260 Eu 0.84269 0.78351 0.29723 0.0
C1261 C 0.73436 0.82745 0.21916 0.0
N1262 N 0.75494 0.84159 0.24664 0.0
C1263 C 0.76235 0.89004 0.22808 0.0
C1264 C 0.72771 0.84417 0.19447 0.0
C1265 C 0.76823 0.87256 0.25188 0.0
C1266 C 0.74224 0.87574 0.19911 0.0
C1267 C 0.69727 0.78138 0.18801 0.0
C1268 C 0.71924 0.79633 0.21605 0.0
C1269 C 0.6913 0.79779 0.16302 0.0
C1270 C 0.70641 0.8291 0.16627 0.0
Eu1271 Eu 0.76329 0.81038 0.28535 0.0
N1272 N 0.72528 0.78097 0.24074 0.0
C1273 C 0.68136 0.75051 0.18617 0.0
C1274 C 0.7086 0.75129 0.23968 0.0
C1275 C 0.68676 0.73557 0.2123 0.0
H1276 H 0.78332 0.88396 0.27447 0.0
H1277 H 0.67401 0.71192 0.21142 0.0
H1278 H 0.82732 0.71007 0.31387 0.0
H1279 H 0.933 0.88453 0.36085 0.0
H1280 H 0.71166 0.73932 0.25973 0.0
H1281 H 0.66436 0.73824 0.16504 0.0
H1282 H 0.89347 0.85257 0.31491 0.0
H1283 H 0.77321 0.91455 0.23217 0.0
H1284 H 0.67458 0.78661 0.14131 0.0
H1285 H 0.70112 0.84156 0.14702 0.0
H1286 H 0.83951 0.68394 0.35921 0.0
H1287 H 0.73763 0.88938 0.18076 0.0
H1288 H 0.94454 0.86318 0.41067 0.0
N1289 N 0.85331 0.7549 0.33876 0.0
C1290 C 0.87426 0.77111 0.36532 0.0
C1291 C 0.84909 0.70854 0.36146 0.0
C1292 C 0.88252 0.75669 0.39155 0.0
C1293 C 0.84175 0.72369 0.33599 0.0
C1294 C 0.86923 0.72516 0.38954 0.0
N1295 N 0.88112 0.81497 0.33972 0.0
C1296 C 0.89775 0.8436 0.33699 0.0
C1297 C 0.91139 0.81899 0.39232 0.0
C1298 C 0.88861 0.80193 0.36578 0.0
C1299 C 0.92687 0.84934 0.3908 0.0
C1300 C 0.92039 0.8615 0.36276 0.0
H1301 H 0.87502 0.71327 0.40914 0.0
H1302 H 0.91062 0.76328 0.43904 0.0
H1303 H 0.93591 0.81781 0.4397 0.0
O1304 O 0.87928 0.79513 0.26818 0.0
O1305 O 0.83557 0.81617 0.3395 0.0
O1306 O 0.78354 0.80009 0.33367 0.0
O1307 O 0.86893 0.75125 0.28572 0.0
O1308 O 0.84167 0.82561 0.27406 0.0
O1309 O 0.80836 0.84774 0.29831 0.0
O1310 O 0.71802 0.80482 0.29901 0.0
O1311 O 0.78358 0.80037 0.2396 0.0
O1312 O 0.80664 0.76264 0.25128 0.0
O1313 O 0.75342 0.84872 0.31467 0.0
O1314 O 0.75637 0.76268 0.2975 0.0
O1315 O 0.8002 0.74519 0.29819 0.0
C1316 C 0.81041 0.81411 0.35158 0.0
C1317 C 0.91087 0.76014 0.25643 0.0
C1318 C 0.95096 0.76922 0.22398 0.0
C1319 C 0.95979 0.74362 0.23281 0.0
C1320 C 0.91995 0.73448 0.26506 0.0
C1321 C 0.94429 0.72632 0.25327 0.0
C1322 C 0.92645 0.77748 0.23573 0.0
C1323 C 0.83228 0.84966 0.28398 0.0
C1324 C 0.8863 0.76939 0.27052 0.0
C1325 C 0.90426 0.77394 0.4186 0.0
C1326 C 0.91865 0.80501 0.41899 0.0
C1327 C 0.79594 0.77817 0.23028 0.0
C1328 C 0.70498 0.84504 0.33359 0.0
C1329 C 0.66141 0.83648 0.36181 0.0
C1330 C 0.67099 0.86763 0.37642 0.0
C1331 C 0.71407 0.87614 0.34845 0.0
C1332 C 0.67806 0.82536 0.33973 0.0
C1333 C 0.69701 0.88734 0.36956 0.0
C1334 C 0.771 0.7414 0.29993 0.0
C1335 C 0.72603 0.83242 0.31612 0.0
H1336 H 0.97862 0.73701 0.22373 0.0
H1337 H 0.90849 0.72089 0.28126 0.0
H1338 H 0.9512 0.70661 0.26009 0.0
H1339 H 0.91974 0.79731 0.22883 0.0
H1340 H 0.65845 0.87661 0.3935 0.0
H1341 H 0.7349 0.89163 0.34455 0.0
H1342 H 0.67094 0.8012 0.32885 0.0
H1343 H 0.70438 0.91123 0.38125 0.0
Eu1344 Eu 0.77081 0.30633 0.83245 0.0
C1345 C 0.84629 0.25754 0.71062 0.0
N1346 N 0.8571 0.27545 0.74015 0.0
C1347 C 0.89965 0.25364 0.7472 0.0
C1348 C 0.86083 0.23554 0.69885 0.0
C1349 C 0.8841 0.27477 0.75791 0.0
C1350 C 0.8876 0.23344 0.71782 0.0
C1351 C 0.8104 0.24516 0.65993 0.0
C1352 C 0.82169 0.26251 0.69145 0.0
C1353 C 0.82339 0.22173 0.64887 0.0
C1354 C 0.8487 0.21703 0.66825 0.0
Eu1355 Eu 0.82833 0.30835 0.75915 0.0
N1356 N 0.80971 0.28526 0.70311 0.0
C1357 C 0.78701 0.25246 0.6402 0.0
C1358 C 0.78959 0.2948 0.68236 0.0
C1359 C 0.77716 0.27795 0.65116 0.0
H1360 H 0.89365 0.29045 0.78055 0.0
H1361 H 0.76018 0.28481 0.63549 0.0
H1362 H 0.70106 0.31555 0.81027 0.0
H1363 H 0.86976 0.38649 0.91745 0.0
H1364 H 0.7827 0.3153 0.68969 0.0
H1365 H 0.77746 0.23951 0.61599 0.0
H1366 H 0.84484 0.34504 0.87208 0.0
H1367 H 0.92084 0.25291 0.76165 0.0
H1368 H 0.81467 0.20781 0.62499 0.0
H1369 H 0.85918 0.1996 0.65905 0.0
H1370 H 0.66966 0.34933 0.82822 0.0
H1371 H 0.8996 0.21701 0.70959 0.0
H1372 H 0.83963 0.41742 0.94346 0.0
N1373 N 0.73977 0.33833 0.84688 0.0
C1374 C 0.75214 0.36136 0.87282 0.0
C1375 C 0.69276 0.35286 0.84104 0.0
C1376 C 0.73491 0.38096 0.88404 0.0
C1377 C 0.71061 0.33389 0.83086 0.0
C1378 C 0.70486 0.37633 0.8679 0.0
N1379 N 0.79979 0.34954 0.87293 0.0
C1380 C 0.83074 0.35701 0.88346 0.0
C1381 C 0.79678 0.39197 0.91208 0.0
C1382 C 0.78291 0.36691 0.8865 0.0
C1383 C 0.82818 0.39846 0.92383 0.0
C1384 C 0.84526 0.38109 0.90921 0.0
H1385 H 0.691 0.39106 0.87563 0.0
H1386 H 0.73544 0.42023 0.91933 0.0
H1387 H 0.78949 0.42967 0.94405 0.0
O1388 O 0.77118 0.28258 0.8735 0.0
O1389 O 0.78233 0.354 0.82072 0.0
O1390 O 0.80763 0.3281 0.79627 0.0
O1391 O 0.72714 0.27967 0.84365 0.0
O1392 O 0.81716 0.2942 0.84521 0.0
O1393 O 0.85264 0.30238 0.80976 0.0
O1394 O 0.83576 0.3528 0.7447 0.0
O1395 O 0.81424 0.26399 0.77653 0.0
O1396 O 0.76829 0.26797 0.78999 0.0
O1397 O 0.875 0.33851 0.76337 0.0
O1398 O 0.77683 0.30619 0.74213 0.0
O1399 O 0.74353 0.30208 0.78063 0.0
C1400 C 0.80096 0.35429 0.80096 0.0
C1401 C 0.7266 0.25296 0.89038 0.0
C1402 C 0.73084 0.22232 0.93283 0.0
C1403 C 0.69881 0.21277 0.9291 0.0
C1404 C 0.69455 0.24337 0.88676 0.0
C1405 C 0.68074 0.22331 0.90612 0.0
C1406 C 0.74466 0.24238 0.91356 0.0
C1407 C 0.84467 0.29481 0.83773 0.0
C1408 C 0.74152 0.27235 0.86896 0.0
C1409 C 0.74842 0.40511 0.91025 0.0
C1410 C 0.77921 0.41049 0.92433 0.0
C1411 C 0.78848 0.25214 0.78621 0.0
C1412 C 0.87775 0.36509 0.71877 0.0
C1413 C 0.86961 0.37567 0.66391 0.0
C1414 C 0.90052 0.37838 0.6625 0.0
C1415 C 0.90879 0.36806 0.71743 0.0
C1416 C 0.85821 0.36839 0.69155 0.0
C1417 C 0.92002 0.37445 0.6892 0.0
C1418 C 0.74946 0.30472 0.75082 0.0
C1419 C 0.86522 0.3581 0.74795 0.0
H1420 H 0.68787 0.19735 0.9441 0.0
H1421 H 0.68023 0.25113 0.86885 0.0
H1422 H 0.65602 0.21586 0.90327 0.0
H1423 H 0.76946 0.24944 0.91662 0.0
H1424 H 0.90955 0.38394 0.64098 0.0
H1425 H 0.92423 0.36538 0.73806 0.0
H1426 H 0.83415 0.36638 0.69185 0.0
H1427 H 0.94392 0.37668 0.68815 0.0
Eu1428 Eu 0.78543 0.75678 0.77225 0.0
C1429 C 0.90166 0.85995 0.83301 0.0
N1430 N 0.87594 0.84362 0.84242 0.0
C1431 C 0.90652 0.83636 0.89015 0.0
C1432 C 0.93095 0.86365 0.85131 0.0
C1433 C 0.87798 0.83317 0.87128 0.0
C1434 C 0.93313 0.8512 0.87987 0.0
C1435 C 0.92521 0.88747 0.79326 0.0
C1436 C 0.89879 0.87173 0.80403 0.0
C1437 C 0.95429 0.89135 0.81173 0.0
C1438 C 0.95715 0.87942 0.84056 0.0
Eu1439 Eu 0.82907 0.84139 0.80923 0.0
N1440 N 0.87033 0.86708 0.78601 0.0
C1441 C 0.92172 0.89873 0.76406 0.0
C1442 C 0.86684 0.87893 0.75802 0.0
C1443 C 0.89242 0.89456 0.74647 0.0
H1444 H 0.85787 0.82311 0.8805 0.0
H1445 H 0.8895 0.90369 0.72417 0.0
H1446 H 0.75786 0.77037 0.69726 0.0
H1447 H 0.72457 0.69393 0.85564 0.0
H1448 H 0.84441 0.8773 0.74494 0.0
H1449 H 0.94148 0.9109 0.75501 0.0
H1450 H 0.76962 0.7226 0.83622 0.0
H1451 H 0.90797 0.82767 0.91283 0.0
H1452 H 0.97479 0.90343 0.8038 0.0
H1453 H 0.97981 0.88244 0.85435 0.0
H1454 H 0.70824 0.76127 0.66208 0.0
H1455 H 0.95524 0.85335 0.89442 0.0
H1456 H 0.67293 0.68349 0.82258 0.0
N1457 N 0.73917 0.75189 0.73632 0.0
C1458 C 0.71335 0.7357 0.74563 0.0
C1459 C 0.70936 0.75438 0.68571 0.0
C1460 C 0.68444 0.72908 0.72543 0.0
C1461 C 0.73758 0.76018 0.70626 0.0
C1462 C 0.68269 0.73918 0.69556 0.0
N1463 N 0.74378 0.73123 0.79435 0.0
C1464 C 0.7472 0.71977 0.82251 0.0
C1465 C 0.68936 0.70773 0.7849 0.0
C1466 C 0.71574 0.725 0.7752 0.0
C1467 C 0.69263 0.6969 0.81439 0.0
C1468 C 0.7217 0.70286 0.8332 0.0
H1469 H 0.66087 0.73488 0.67979 0.0
H1470 H 0.63589 0.70687 0.71996 0.0
H1471 H 0.64022 0.68809 0.77182 0.0
O1472 O 0.79111 0.71204 0.77837 0.0
O1473 O 0.75411 0.7844 0.79489 0.0
O1474 O 0.77636 0.8359 0.79546 0.0
O1475 O 0.77461 0.72 0.7296 0.0
O1476 O 0.81067 0.76414 0.8247 0.0
O1477 O 0.8064 0.81152 0.84325 0.0
O1478 O 0.83885 0.89081 0.81251 0.0
O1479 O 0.86195 0.8125 0.79365 0.0
O1480 O 0.83668 0.76306 0.76832 0.0
O1481 O 0.82831 0.87066 0.85431 0.0
O1482 O 0.80577 0.83585 0.75692 0.0
O1483 O 0.80389 0.78628 0.73631 0.0
C1484 C 0.75208 0.81321 0.79713 0.0
C1485 C 0.78097 0.66923 0.73473 0.0
C1486 C 0.79348 0.62253 0.74526 0.0
C1487 C 0.77532 0.60663 0.71544 0.0
C1488 C 0.76323 0.65367 0.70459 0.0
C1489 C 0.7607 0.6224 0.69488 0.0
C1490 C 0.79701 0.65388 0.75411 0.0
C1491 C 0.80878 0.7845 0.84895 0.0
C1492 C 0.78203 0.70088 0.74751 0.0
C1493 C 0.65821 0.71212 0.73523 0.0
C1494 C 0.66067 0.70142 0.7648 0.0
C1495 C 0.86241 0.78538 0.77839 0.0
C1496 C 0.81055 0.91385 0.84495 0.0
C1497 C 0.783 0.94762 0.82269 0.0
C1498 C 0.766 0.94605 0.84783 0.0
C1499 C 0.79353 0.91228 0.87022 0.0
C1500 C 0.80557 0.93222 0.82169 0.0
C1501 C 0.77141 0.92849 0.87166 0.0
C1502 C 0.80574 0.8148 0.73245 0.0
C1503 C 0.83242 0.89549 0.84139 0.0
H1504 H 0.7726 0.58225 0.7082 0.0
H1505 H 0.75093 0.66541 0.68901 0.0
H1506 H 0.74688 0.61025 0.67177 0.0
H1507 H 0.81144 0.66599 0.77703 0.0
H1508 H 0.74856 0.95825 0.84885 0.0
H1509 H 0.79703 0.8983 0.88855 0.0
H1510 H 0.81861 0.93408 0.80213 0.0
H1511 H 0.75822 0.92716 0.89102 0.0
Eu1512 Eu 0.59741 0.57421 0.55913 0.0
C1513 C 0.48364 0.45422 0.49029 0.0
N1514 N 0.49631 0.48005 0.47866 0.0
C1515 C 0.48074 0.4522 0.42413 0.0
C1516 C 0.471 0.42576 0.46913 0.0
C1517 C 0.49305 0.47975 0.44601 0.0
C1518 C 0.47039 0.42497 0.43583 0.0
C1519 C 0.46516 0.4306 0.53467 0.0
C1520 C 0.48008 0.45682 0.52266 0.0
C1521 C 0.4549 0.40181 0.5142 0.0
C1522 C 0.45753 0.39945 0.48143 0.0
Eu1523 Eu 0.51334 0.52627 0.51648 0.0
N1524 N 0.4884 0.48536 0.54139 0.0
C1525 C 0.45924 0.43436 0.56632 0.0
C1526 C 0.47925 0.4893 0.57067 0.0
C1527 C 0.46574 0.46393 0.58414 0.0
H1528 H 0.49939 0.50094 0.43662 0.0
H1529 H 0.45932 0.4673 0.60777 0.0
H1530 H 0.58259 0.58768 0.63663 0.0
H1531 H 0.66264 0.65621 0.49383 0.0
H1532 H 0.48064 0.51185 0.58296 0.0
H1533 H 0.44792 0.41479 0.57643 0.0
H1534 H 0.63318 0.60589 0.50207 0.0
H1535 H 0.4787 0.4521 0.39827 0.0
H1536 H 0.44343 0.38149 0.52307 0.0
H1537 H 0.44793 0.37741 0.46552 0.0
H1538 H 0.58295 0.63165 0.67668 0.0
H1539 H 0.46041 0.4038 0.41883 0.0
H1540 H 0.66735 0.70268 0.5337 0.0
N1541 N 0.59851 0.61466 0.60164 0.0
C1542 C 0.6125 0.6437 0.59719 0.0
C1543 C 0.59078 0.63538 0.65414 0.0
C1544 C 0.61469 0.6697 0.62056 0.0
C1545 C 0.58958 0.61029 0.63063 0.0
C1546 C 0.6028 0.66523 0.64879 0.0
N1547 N 0.62144 0.62263 0.54633 0.0
C1548 C 0.63474 0.62562 0.51952 0.0
C1549 C 0.64062 0.67738 0.56483 0.0
C1550 C 0.62484 0.64769 0.56924 0.0
C1551 C 0.65443 0.68038 0.53749 0.0
C1552 C 0.65169 0.6543 0.51487 0.0
H1553 H 0.60367 0.68462 0.66703 0.0
H1554 H 0.62902 0.71954 0.63188 0.0
H1555 H 0.65356 0.72612 0.58437 0.0
O1556 O 0.64311 0.57518 0.55122 0.0
O1557 O 0.56898 0.60679 0.53942 0.0
O1558 O 0.51841 0.57928 0.52048 0.0
O1559 O 0.63473 0.58071 0.60042 0.0
O1560 O 0.59427 0.56007 0.50492 0.0
O1561 O 0.54598 0.53025 0.4797 0.0
O1562 O 0.46384 0.51475 0.51033 0.0
O1563 O 0.54178 0.49288 0.53385 0.0
O1564 O 0.59201 0.52066 0.55498 0.0
O1565 O 0.48699 0.53876 0.47571 0.0
O1566 O 0.51967 0.55209 0.56816 0.0
O1567 O 0.56656 0.54798 0.58999 0.0
C1568 C 0.54027 0.60589 0.52707 0.0
C1569 C 0.67576 0.55953 0.5895 0.0
C1570 C 0.7133 0.53472 0.57225 0.0
C1571 C 0.71947 0.52717 0.60317 0.0
C1572 C 0.68191 0.55201 0.62056 0.0
C1573 C 0.70372 0.53584 0.62729 0.0
C1574 C 0.6918 0.55095 0.56567 0.0
C1575 C 0.57493 0.54367 0.47896 0.0
C1576 C 0.65466 0.57823 0.58179 0.0
C1577 C 0.62857 0.69934 0.61507 0.0
C1578 C 0.64214 0.70313 0.58772 0.0
C1579 C 0.57031 0.49368 0.54701 0.0
C1580 C 0.4385 0.54494 0.48164 0.0
C1581 C 0.40255 0.5676 0.50507 0.0
C1582 C 0.39032 0.57223 0.47433 0.0
C1583 C 0.4263 0.54948 0.45085 0.0
C1584 C 0.42716 0.55487 0.50891 0.0
C1585 C 0.40241 0.56339 0.4473 0.0
C1586 C 0.53852 0.5485 0.59299 0.0
C1587 C 0.46087 0.52723 0.48437 0.0
H1588 H 0.73636 0.51473 0.60856 0.0
H1589 H 0.67021 0.55887 0.63962 0.0
H1590 H 0.70855 0.53021 0.65125 0.0
H1591 H 0.6879 0.55708 0.54174 0.0
H1592 H 0.37125 0.58231 0.47131 0.0
H1593 H 0.43483 0.54169 0.42954 0.0
H1594 H 0.43637 0.55152 0.53287 0.0
H1595 H 0.39283 0.5667 0.42353 0.0
Eu1596 Eu 0.01513 0.5452 0.06208 0.0
C1597 C 0.11661 0.60985 0.98536 0.0
N1598 N 0.09545 0.58181 0.97837 0.0
C1599 C 0.08538 0.58699 0.9224 0.0
C1600 C 0.12234 0.62782 0.9609 0.0
C1601 C 0.08071 0.56978 0.94724 0.0
C1602 C 0.10614 0.61618 0.92927 0.0
C1603 C 0.15552 0.64923 0.0245 0.0
C1604 C 0.13326 0.62047 0.01695 0.0
C1605 C 0.1609 0.66717 0.00017 0.0
C1606 C 0.14442 0.6565 0.96851 0.0
Eu1607 Eu 0.09247 0.55416 0.0219 0.0
N1608 N 0.12787 0.60265 0.0402 0.0
C1609 C 0.1721 0.65897 0.05622 0.0
C1610 C 0.14466 0.61154 0.07084 0.0
C1611 C 0.16674 0.63997 0.07942 0.0
H1612 H 0.06563 0.54673 0.94122 0.0
H1613 H 0.17983 0.64707 0.10384 0.0
H1614 H 0.0281 0.55939 0.14388 0.0
H1615 H 0.9138 0.46695 0.98242 0.0
H1616 H 0.14141 0.59667 0.08871 0.0
H1617 H 0.1894 0.6809 0.06292 0.0
H1618 H 0.95769 0.51373 0.99869 0.0
H1619 H 0.07333 0.57751 0.89784 0.0
H1620 H 0.17802 0.68924 0.00553 0.0
H1621 H 0.14916 0.67049 0.94996 0.0
H1622 H 0.01167 0.53274 0.18868 0.0
H1623 H 0.10996 0.62929 0.90984 0.0
H1624 H 0.9021 0.43097 0.02088 0.0
N1625 N 0.99992 0.52341 0.10691 0.0
C1626 C 0.97793 0.4961 0.09959 0.0
C1627 C 1.00219 0.52208 0.1637 0.0
C1628 C 0.9685 0.47972 0.1242 0.0
C1629 C 0.01132 0.53716 0.13839 0.0
C1630 C 0.98135 0.49285 0.15655 0.0
N1631 N 0.97098 0.5034 0.04504 0.0
C1632 C 0.9531 0.49764 0.01514 0.0
C1633 C 0.93846 0.45874 0.05955 0.0
C1634 C 0.96305 0.48573 0.06766 0.0
C1635 C 0.92143 0.45128 0.02799 0.0
C1636 C 0.92815 0.4714 0.00606 0.0
H1637 H 0.97458 0.4811 0.17619 0.0
H1638 H 0.93855 0.4383 0.13434 0.0
H1639 H 0.91224 0.41992 0.07765 0.0
O1640 O 0.97764 0.56336 0.04298 0.0
O1641 O 0.02064 0.49651 0.04121 0.0
O1642 O 0.06936 0.50286 0.02678 0.0
O1643 O 1.00171 0.57953 0.09311 0.0
O1644 O 0.02306 0.55423 0.01313 0.0
O1645 O 0.04987 0.52671 0.98814 0.0
O1646 O 0.13569 0.54355 0.03747 0.0
O1647 O 0.07413 0.59794 0.02933 0.0
O1648 O 0.05273 0.59266 0.07517 0.0
O1649 O 0.11891 0.54056 0.98654 0.0
O1650 O 0.09201 0.55874 0.07531 0.0
O1651 O 0.0513 0.53213 0.09364 0.0
C1652 C 0.04316 0.48483 0.03233 0.0
C1653 C 0.95074 0.58356 0.08079 0.0
C1654 C 0.90631 0.60356 0.07224 0.0
C1655 C 0.89872 0.59555 0.10162 0.0
C1656 C 0.94293 0.57546 0.11013 0.0
C1657 C 0.91696 0.58144 0.12041 0.0
C1658 C 0.93215 0.59732 0.06181 0.0
C1659 C 0.02391 0.53274 0.99011 0.0
C1660 C 0.97946 0.58083 0.07073 0.0
C1661 C 0.94566 0.45153 0.11584 0.0
C1662 C 0.93068 0.44104 0.08355 0.0
C1663 C 0.06426 0.61044 0.05459 0.0
C1664 C 0.14679 0.50575 0.00061 0.0
C1665 C 0.18272 0.47497 0.00823 0.0
C1666 C 0.163 0.45089 0.98487 0.0
C1667 C 0.12725 0.4815 0.97709 0.0
C1668 C 0.17455 0.50234 0.01613 0.0
C1669 C 0.1353 0.45417 0.96943 0.0
C1670 C 0.08007 0.53707 0.09103 0.0
C1671 C 0.13932 0.53518 0.00797 0.0
H1672 H 0.87889 0.60045 0.11004 0.0
H1673 H 0.95711 0.56505 0.12532 0.0
H1674 H 0.91117 0.5755 0.14318 0.0
H1675 H 0.93823 0.604 0.03934 0.0
H1676 H 0.16922 0.42973 0.97842 0.0
H1677 H 0.10603 0.48383 0.96425 0.0
H1678 H 0.19 0.52105 0.03394 0.0
H1679 H 0.12023 0.43567 0.95121 0.0
C1680 C 0.03627 0.19275 0.03863 0.0
C1681 C 0.01873 0.19472 0.00836 0.0
C1682 C 0.0158 0.13833 0.99151 0.0
C1683 C 0.03095 0.13558 0.02284 0.0
N1684 N 0.05039 0.1613 0.07797 0.0
N1685 N 0.98797 0.16605 0.9578 0.0
C1686 C 0.03991 0.16329 0.04667 0.0
C1687 C 1.00765 0.1665 0.98543 0.0
N1688 N 0.05059 0.21946 0.05974 0.0
N1689 N 1.01021 0.1143 0.96652 0.0
H1690 H 0.98177 0.18556 0.95219 0.0
H1691 H 0.97572 0.14591 0.94192 0.0
H1692 H 0.01544 0.09372 0.9693 0.0
H1693 H 1.00314 0.11577 0.94239 0.0
H1694 H 0.06672 0.22077 0.08024 0.0
H1695 H 0.04837 0.24083 0.05506 0.0
H1696 H 0.0543 0.17927 0.09735 0.0
H1697 H 0.05226 0.14064 0.08505 0.0
C1698 C 0.17153 0.79288 0.19399 0.0
C1699 C 0.17719 0.81716 0.1754 0.0
C1700 C 0.23177 0.83262 0.2026 0.0
C1701 C 0.22618 0.80888 0.2223 0.0
N1702 N 0.18941 0.76641 0.23593 0.0
N1703 N 0.21125 0.86393 0.16752 0.0
C1704 C 0.1956 0.78932 0.21787 0.0
C1705 C 0.20698 0.8378 0.1811 0.0
N1706 N 0.14345 0.77174 0.18749 0.0
N1707 N 0.2608 0.85068 0.20403 0.0
H1708 H 0.19374 0.869 0.15247 0.0
H1709 H 0.23105 0.8822 0.17371 0.0
H1710 H 0.27942 0.85175 0.22164 0.0
H1711 H 0.26702 0.86378 0.18634 0.0
H1712 H 0.1387 0.75111 0.19636 0.0
H1713 H 0.1248 0.77366 0.1716 0.0
H1714 H 0.1675 0.75592 0.23961 0.0
H1715 H 0.20622 0.75773 0.24749 0.0
C1716 C 0.51959 0.89701 0.54237 0.0
C1717 C 0.52532 0.88072 0.51323 0.0
C1718 C 0.54323 0.93317 0.49698 0.0
C1719 C 0.53778 0.94931 0.52617 0.0
N1720 N 0.52488 0.9452 0.57888 0.0
N1721 N 0.54606 0.88658 0.46388 0.0
C1722 C 0.52668 0.93062 0.54913 0.0
C1723 C 0.53839 0.89988 0.49126 0.0
N1724 N 0.50779 0.88042 0.56458 0.0
N1725 N 0.55064 0.94926 0.47273 0.0
H1726 H 0.53649 0.86379 0.45289 0.0
H1727 H 0.5623 0.89853 0.45181 0.0
H1728 H 0.55418 0.97289 0.47481 0.0
H1729 H 0.55055 0.9391 0.44918 0.0
H1730 H 0.4969 0.88891 0.58229 0.0
H1731 H 0.50878 0.85795 0.56542 0.0
H1732 H 0.52038 0.93422 0.59849 0.0
H1733 H 0.53049 0.96904 0.5851 0.0
C1734 C 0.51364 0.33024 0.69713 0.0
C1735 C 0.51036 0.31327 0.66562 0.0
C1736 C 0.46515 0.27533 0.67436 0.0
C1737 C 0.47069 0.29015 0.70715 0.0
N1738 N 0.4981 0.33226 0.75003 0.0
N1739 N 0.48402 0.26986 0.62363 0.0
C1740 C 0.4942 0.31801 0.71855 0.0
C1741 C 0.48611 0.28609 0.65388 0.0
N1742 N 0.53532 0.358 0.70627 0.0
N1743 N 0.4397 0.25111 0.66286 0.0
H1744 H 0.49826 0.27761 0.60746 0.0
H1745 H 0.46933 0.24797 0.61495 0.0
H1746 H 0.42432 0.24207 0.67743 0.0
H1747 H 0.43242 0.24132 0.63847 0.0
H1748 H 0.53814 0.37273 0.72809 0.0
H1749 H 0.54978 0.36733 0.69095 0.0
H1750 H 0.51611 0.35128 0.76111 0.0
H1751 H 0.48338 0.3245 0.76577 0.0
C1752 C 0.0306 0.86134 0.65586 0.0
C1753 C 0.03196 0.83173 0.64198 0.0
C1754 C 0.05991 0.85367 0.60132 0.0
C1755 C 0.06175 0.88356 0.61755 0.0
N1756 N 0.04461 0.9166 0.65561 0.0
N1757 N 0.04662 0.79858 0.60168 0.0
C1758 C 0.04558 0.8876 0.64337 0.0
C1759 C 0.04573 0.82752 0.61431 0.0
N1760 N 0.01582 0.86414 0.68163 0.0
N1761 N 0.07165 0.85046 0.57343 0.0
H1762 H 0.03526 0.77887 0.60976 0.0
H1763 H 0.05942 0.79393 0.58413 0.0
H1764 H 0.08282 0.86918 0.56373 0.0
H1765 H 0.0686 0.82949 0.55852 0.0
H1766 H 0.01524 0.8849 0.69466 0.0
H1767 H 1.0038 0.84511 0.69034 0.0
H1768 H 0.03278 0.92178 0.67388 0.0
H1769 H 0.05482 0.93596 0.64626 0.0
C1770 C 0.45133 0.847 0.83674 0.0
C1771 C 0.46553 0.82566 0.82152 0.0
C1772 C 0.41355 0.79448 0.79268 0.0
C1773 C 0.39933 0.81587 0.80784 0.0
N1774 N 0.40497 0.86159 0.84605 0.0
N1775 N 0.4605 0.78226 0.78075 0.0
C1776 C 0.4185 0.84211 0.83001 0.0
C1777 C 0.44662 0.80047 0.79804 0.0
N1778 N 0.46965 0.87157 0.85887 0.0
N1779 N 0.39532 0.76744 0.77454 0.0
H1780 H 0.4843 0.78643 0.78445 0.0
H1781 H 0.44901 0.76508 0.76108 0.0
H1782 H 0.37149 0.76177 0.77133 0.0
H1783 H 0.40352 0.74953 0.76489 0.0
H1784 H 0.46205 0.8874 0.87318 0.0
H1785 H 0.49346 0.87635 0.86297 0.0
H1786 H 0.41655 0.88213 0.86144 0.0
H1787 H 0.38132 0.85693 0.8443 0.0
C1788 C 0.56045 0.16487 0.15793 0.0
C1789 C 0.53594 0.17889 0.15321 0.0
C1790 C 0.51992 0.14842 0.09739 0.0
C1791 C 0.54372 0.13328 0.10279 0.0
N1792 N 0.59415 0.1398 0.13244 0.0
N1793 N 0.49639 0.18874 0.11569 0.0
C1794 C 0.56601 0.14499 0.13157 0.0
C1795 C 0.51708 0.17222 0.12197 0.0
N1796 N 0.5791 0.17083 0.18756 0.0
N1797 N 0.49955 0.13982 0.06893 0.0
H1798 H 0.49197 0.20434 0.13348 0.0
H1799 H 0.48482 0.18855 0.09262 0.0
H1800 H 0.50156 0.12389 0.05015 0.0
H1801 H 0.4798 0.14705 0.06424 0.0
H1802 H 0.5948 0.15843 0.19342 0.0
H1803 H 0.57789 0.18698 0.20686 0.0
H1804 H 0.61287 0.15097 0.15073 0.0
H1805 H 0.59956 0.12674 0.1131 0.0
C1806 C 0.16403 0.30518 0.29244 0.0
C1807 C 0.16298 0.33157 0.31419 0.0
C1808 C 0.2207 0.34437 0.32616 0.0
C1809 C 0.22196 0.32006 0.3013 0.0
N1810 N 0.1918 0.28291 0.25514 0.0
N1811 N 0.19269 0.37954 0.34727 0.0
C1812 C 0.19267 0.30182 0.28323 0.0
C1813 C 0.19205 0.35199 0.32968 0.0
N1814 N 0.13734 0.28283 0.2803 0.0
N1815 N 0.24657 0.35957 0.34801 0.0
H1816 H 0.17277 0.38545 0.35136 0.0
H1817 H 0.21281 0.39722 0.35561 0.0
H1818 H 0.26749 0.35467 0.34755 0.0
H1819 H 0.24632 0.3744 0.36886 0.0
H1820 H 0.13663 0.26154 0.26723 0.0
H1821 H 0.11639 0.28448 0.28629 0.0
H1822 H 0.17151 0.27096 0.23933 0.0
H1823 H 0.21145 0.28271 0.24544 0.0
C1824 C 0.02973 0.04915 0.18631 0.0
C1825 C 0.9994 0.03147 0.18571 0.0
C1826 C 0.98558 0.04003 0.12937 0.0
C1827 C 0.01713 0.05311 0.12874 0.0
N1828 N 0.05679 0.09152 0.16446 0.0
N1829 N 0.94786 0.00945 0.15591 0.0
C1830 C 0.03661 0.06333 0.15926 0.0
C1831 C 0.977 0.0271 0.15712 0.0
N1832 N 0.05193 0.05372 0.21302 0.0
N1833 N 0.96374 0.04274 0.10523 0.0
H1834 H 0.9408 0.99958 0.17547 0.0
H1835 H 0.93143 1.00249 0.13475 0.0
H1836 H 0.96908 0.05636 0.08772 0.0
H1837 H 0.94034 0.0358 0.10539 0.0
H1838 H 0.07486 0.06464 0.21299 0.0
H1839 H 0.04782 0.0451 0.23416 0.0
H1840 H 0.07019 0.10211 0.18706 0.0
H1841 H 0.05497 0.10589 0.14738 0.0
C1842 C 0.30849 0.71077 0.4912 0.0
C1843 C 0.28781 0.68503 0.49838 0.0
C1844 C 0.24504 0.69471 0.46438 0.0
C1845 C 0.26491 0.72272 0.46034 0.0
N1846 N 0.31633 0.75402 0.4621 0.0
N1847 N 0.24064 0.64512 0.48128 0.0
C1848 C 0.2971 0.72947 0.47084 0.0
C1849 C 0.25756 0.67429 0.48081 0.0
N1850 N 0.33846 0.71804 0.50591 0.0
N1851 N 0.21412 0.68857 0.4544 0.0
H1852 H 0.24995 0.62989 0.49308 0.0
H1853 H 0.21886 0.6352 0.46741 0.0
H1854 H 0.20406 0.70235 0.441 0.0
H1855 H 0.19837 0.67102 0.4615 0.0
H1856 H 0.35494 0.73797 0.50449 0.0
H1857 H 0.34651 0.70352 0.52008 0.0
H1858 H 0.3401 0.75916 0.46737 0.0
H1859 H 0.30841 0.76852 0.44789 0.0
C1860 C 0.6537 0.05574 0.63798 0.0
C1861 C 0.64528 0.06615 0.66756 0.0
C1862 C 0.59312 0.03435 0.64843 0.0
C1863 C 0.60023 0.03138 0.61723 0.0
N1864 N 0.63741 0.01805 0.58854 0.0
N1865 N 0.60766 0.06191 0.70336 0.0
C1866 C 0.6308 0.03524 0.61389 0.0
C1867 C 0.6152 0.05424 0.67378 0.0
N1868 N 0.68272 0.06668 0.63226 0.0
N1869 N 0.56677 0.01578 0.65401 0.0
H1870 H 0.62356 0.07454 0.72367 0.0
H1871 H 0.58512 0.05665 0.7073 0.0
H1872 H 0.55186 0.9993 0.63542 0.0
H1873 H 0.56179 0.01425 0.67717 0.0
H1874 H 0.68879 0.06165 0.6097 0.0
H1875 H 0.69999 0.08271 0.64921 0.0
H1876 H 0.65969 0.01785 0.58613 0.0
H1877 H 0.6199 1.00204 0.57173 0.0
C1878 C 0.32214 0.31036 0.94187 0.0
C1879 C 0.31969 0.33972 0.95541 0.0
C1880 C 0.3065 0.34998 0.89963 0.0
C1881 C 0.31162 0.32179 0.88619 0.0
N1882 N 0.32762 0.27667 0.89516 0.0
N1883 N 0.31625 0.39035 0.94638 0.0
C1884 C 0.32066 0.30263 0.90762 0.0
C1885 C 0.31337 0.36023 0.93408 0.0
N1886 N 0.32449 0.28915 0.96162 0.0
N1887 N 0.29552 0.36743 0.87945 0.0
H1888 H 0.32353 0.39987 0.97085 0.0
H1889 H 0.31489 0.4071 0.93206 0.0
H1890 H 0.2922 0.36196 0.85429 0.0
H1891 H 0.28783 0.38622 0.88761 0.0
H1892 H 0.32434 0.26657 0.95338 0.0
H1893 H 0.3234 0.29292 0.98623 0.0
H1894 H 0.3377 0.26333 0.90904 0.0
H1895 H 0.3247 0.26935 0.87038 0.0
C1896 C 0.0263 0.05557 0.38553 0.0
C1897 C 1.00469 0.02823 0.36832 0.0
C1898 C 0.99426 0.01315 0.42046 0.0
C1899 C 0.01991 0.03713 0.43757 0.0
N1900 N 0.0603 0.08218 0.43582 0.0
N1901 N 0.97128 0.97836 0.36988 0.0
C1902 C 0.0359 0.05866 0.41987 0.0
C1903 C 0.98959 1.00628 0.38594 0.0
N1904 N 0.03737 0.07871 0.36913 0.0
N1905 N 0.97349 0.99757 0.43683 0.0
H1906 H 0.96731 0.97216 0.3447 0.0
H1907 H 0.96237 0.96037 0.38179 0.0
H1908 H 0.97519 1.00262 0.46188 0.0
H1909 H 0.95288 0.98189 0.42514 0.0
H1910 H 0.05051 0.10062 0.38054 0.0
H1911 H 0.03133 0.07673 0.34403 0.0
H1912 H 0.07506 0.09664 0.42424 0.0
H1913 H 0.06663 0.08627 0.46087 0.0
C1914 C 0.26098 0.70054 0.68561 0.0
C1915 C 0.28669 0.70004 0.67114 0.0
C1916 C 0.31591 0.74831 0.705 0.0
C1917 C 0.28816 0.75092 0.71506 0.0
N1918 N 0.23306 0.73345 0.7088 0.0
N1919 N 0.34021 0.72028 0.66903 0.0
C1920 C 0.2602 0.72824 0.70355 0.0
C1921 C 0.315 0.72259 0.68204 0.0
N1922 N 0.23697 0.67474 0.68044 0.0
N1923 N 0.34267 0.7709 0.71641 0.0
H1924 H 0.3417 0.69995 0.65582 0.0
H1925 H 0.36 0.73821 0.67152 0.0
H1926 H 0.34386 0.79159 0.73081 0.0
H1927 H 0.3641 0.76926 0.71232 0.0
H1928 H 0.21742 0.67334 0.69075 0.0
H1929 H 0.23857 0.6539 0.66832 0.0
H1930 H 0.2118 0.71784 0.69935 0.0
H1931 H 0.23163 0.75492 0.7191 0.0
C1932 C 0.68081 0.09411 0.85335 0.0
C1933 C 0.66556 0.07665 0.82291 0.0
C1934 C 0.6164 0.07031 0.84068 0.0
C1935 C 0.63108 0.09428 0.86718 0.0
N1936 N 0.67738 0.12833 0.90054 0.0
N1937 N 0.61948 0.04483 0.78768 0.0
C1938 C 0.66345 0.10548 0.87461 0.0
C1939 C 0.63355 0.06295 0.81688 0.0
N1940 N 0.71192 0.10033 0.86116 0.0
N1941 N 0.58625 0.055 0.83837 0.0
H1942 H 0.63172 0.0382 0.77031 0.0
H1943 H 0.5958 0.03725 0.78027 0.0
H1944 H 0.57334 0.06016 0.85574 0.0
H1945 H 0.57493 0.03557 0.82105 0.0
H1946 H 0.72436 0.11075 0.88414 0.0
H1947 H 0.72471 0.09191 0.84534 0.0
H1948 H 0.70062 0.13961 0.90486 0.0
H1949 H 0.66547 0.13747 0.91679 0.0
C1950 C 0.32043 0.37321 0.16722 0.0
C1951 C 0.31443 0.34998 0.13912 0.0
C1952 C 0.28486 0.31378 0.16878 0.0
C1953 C 0.29741 0.33414 0.19846 0.0
N1954 N 0.30701 0.38786 0.21958 0.0
N1955 N 0.28983 0.29716 0.11365 0.0
C1956 C 0.30955 0.3655 0.19614 0.0
C1957 C 0.29644 0.31993 0.14009 0.0
N1958 N 0.33772 0.40229 0.16692 0.0
N1959 N 0.25776 0.2924 0.16656 0.0
H1960 H 0.29656 0.30079 0.09157 0.0
H1961 H 0.27911 0.27428 0.11466 0.0
H1962 H 0.24591 0.29196 0.18598 0.0
H1963 H 0.24531 0.27917 0.14454 0.0
H1964 H 0.34556 0.41912 0.18768 0.0
H1965 H 0.34622 0.40887 0.1465 0.0
H1966 H 0.31259 0.41116 0.21786 0.0
H1967 H 0.29557 0.38259 0.23868 0.0
C1968 C 0.22785 0.97707 0.00967 0.0
C1969 C 0.24485 0.99515 0.99014 0.0
C1970 C 0.24196 0.04252 0.02209 0.0
C1971 C 0.22846 0.02462 0.04415 0.0
N1972 N 0.20281 0.97539 0.05655 0.0
N1973 N 0.26521 0.04327 0.97362 0.0
C1974 C 0.21953 0.99195 0.03713 0.0
C1975 C 0.25023 0.02739 0.99463 0.0
N1976 N 0.22228 0.94573 0.00324 0.0
N1977 N 0.2467 0.07378 0.02757 0.0
H1978 H 0.27021 0.03188 0.9528 0.0
H1979 H 0.2728 0.06712 0.97652 0.0
H1980 H 0.24218 0.08567 0.04833 0.0
H1981 H 0.25425 0.08809 0.01138 0.0
H1982 H 0.21376 0.93088 0.01857 0.0
H1983 H 0.22695 0.93445 0.9822 0.0
H1984 H 0.19324 0.95169 0.0514 0.0
H1985 H 0.19725 0.98549 0.07766 0.0
C1986 C 0.6907 0.61733 0.03348 0.0
C1987 C 0.6907 0.64034 0.01392 0.0
C1988 C 0.6347 0.62532 0.0033 0.0
C1989 C 0.63372 0.6026 0.02445 0.0
N1990 N 0.66339 0.58705 0.06829 0.0
N1991 N 0.66363 0.6564 0.96979 0.0
C1992 C 0.66249 0.60087 0.04145 0.0
C1993 C 0.66295 0.64092 0.99551 0.0
N1994 N 0.71742 0.61052 0.04397 0.0
N1995 N 0.60995 0.63559 0.99342 0.0
H1996 H 0.68412 0.66756 0.96317 0.0
H1997 H 0.64422 0.65488 0.95281 0.0
H1998 H 0.58894 0.62883 -0.00011 0.0
H1999 H 0.61136 0.65495 0.98233 0.0
H2000 H 0.71817 0.59139 0.05486 0.0
H2001 H 0.73825 0.62128 0.03796 0.0
H2002 H 0.68366 0.58673 0.08273 0.0
H2003 H 0.64462 0.5809 0.07969 0.0
C2004 C 0.7271 0.5076 0.3207 0.0
C2005 C 0.69472 0.49975 0.31174 0.0
C2006 C 0.69492 0.45502 0.27283 0.0
C2007 C 0.72737 0.46484 0.27929 0.0
N2008 N 0.7746 0.495 0.31372 0.0
N2009 N 0.64704 0.46528 0.28247 0.0
C2010 C 0.74356 0.48931 0.30486 0.0
C2011 C 0.67838 0.47283 0.28912 0.0
N2012 N 0.74213 0.53381 0.34245 0.0
N2013 N 0.68022 0.42848 0.25137 0.0
H2014 H 0.63439 0.47672 0.29579 0.0
H2015 H 0.63335 0.44816 0.26383 0.0
H2016 H 0.69188 0.4149 0.23927 0.0
H2017 H 0.65666 0.41869 0.24657 0.0
H2018 H 0.76578 0.54306 0.3473 0.0
H2019 H 0.73078 0.54732 0.35509 0.0
H2020 H 0.7876 0.51043 0.33411 0.0
H2021 H 0.78741 0.48267 0.30179 0.0
C2022 C 0.913 0.52272 0.54718 0.0
C2023 C 0.89598 0.51926 0.5155 0.0
C2024 C 0.94146 0.52339 0.49241 0.0
C2025 C 0.95938 0.52773 0.52335 0.0
N2026 N 0.96301 0.53409 0.58118 0.0
N2027 N 0.89608 0.5302 0.46146 0.0
C2028 C 0.94542 0.52844 0.55121 0.0
C2029 C 0.9115 0.52605 0.4898 0.0
N2030 N 0.89817 0.51906 0.57283 0.0
N2031 N 0.95175 0.51275 0.4658 0.0
H2032 H 0.87315 0.53056 0.45909 0.0
H2033 H 0.90698 0.5358 0.44208 0.0
H2034 H 0.9715 0.50519 0.46851 0.0
H2035 H 0.93825 0.50667 0.44269 0.0
H2036 H 0.90855 0.51619 0.59534 0.0
H2037 H 0.87533 0.51925 0.57145 0.0
H2038 H 0.95514 0.53921 0.60258 0.0
H2039 H 0.98576 0.53371 0.58411 0.0
C2040 C 0.35049 0.08668 0.29055 0.0
C2041 C 0.3475 0.08815 0.32376 0.0
C2042 C 0.30358 0.10894 0.31246 0.0
C2043 C 0.31019 0.11155 0.281 0.0
N2044 N 0.34668 0.1123 0.2446 0.0
N2045 N 0.32373 0.10542 0.36761 0.0
C2046 C 0.33581 0.10351 0.27146 0.0
C2047 C 0.32462 0.10054 0.33519 0.0
N2048 N 0.3649 0.06725 0.27606 0.0
N2049 N 0.27736 0.11449 0.32046 0.0
H2050 H 0.33948 0.10055 0.38508 0.0
H2051 H 0.30921 0.11697 0.3774 0.0
H2052 H 0.26166 0.12084 0.30418 0.0
H2053 H 0.26998 0.11023 0.34208 0.0
H2054 H 0.36514 0.06454 0.25123 0.0
H2055 H 0.37174 0.05035 0.28709 0.0
H2056 H 0.36745 0.1094 0.23923 0.0
H2057 H 0.33678 0.12508 0.22968 0.0
C2058 C 0.34627 0.12329 0.50995 0.0
C2059 C 0.35079 0.15485 0.52253 0.0
C2060 C 0.39433 0.15387 0.56314 0.0
C2061 C 0.38739 0.12155 0.55315 0.0
N2062 N 0.35695 0.0748 0.51798 0.0
N2063 N 0.37876 0.20083 0.56052 0.0
C2064 C 0.36359 0.10609 0.52655 0.0
C2065 C 0.37488 0.17037 0.54886 0.0
N2066 N 0.32538 0.10985 0.48221 0.0
N2067 N 0.4199 0.16879 0.58585 0.0
H2068 H 0.36663 0.2143 0.5491 0.0
H2069 H 0.39307 0.21262 0.58215 0.0
H2070 H 0.43429 0.15735 0.59732 0.0
H2071 H 0.42824 0.19262 0.59179 0.0
H2072 H 0.323 0.08785 0.46982 0.0
H2073 H 0.31169 0.12155 0.47008 0.0
H2074 H 0.33788 0.06148 0.50125 0.0
H2075 H 0.36972 0.06165 0.52902 0.0
C2076 C 0.72422 0.65711 0.28485 0.0
C2077 C 0.70673 0.65791 0.31016 0.0
C2078 C 0.73673 0.71078 0.33278 0.0
C2079 C 0.75273 0.71124 0.3061 0.0
N2080 N 0.76308 0.68461 0.25746 0.0
N2081 N 0.70313 0.68079 0.36347 0.0
C2082 C 0.74754 0.684 0.28289 0.0
C2083 C 0.71507 0.68338 0.33569 0.0
N2084 N 0.71827 0.63083 0.26246 0.0
N2085 N 0.74134 0.73692 0.35487 0.0
H2086 H 0.68786 0.66063 0.36671 0.0
H2087 H 0.7106 0.69721 0.38456 0.0
H2088 H 0.75881 0.75664 0.35581 0.0
H2089 H 0.72702 0.7396 0.37147 0.0
H2090 H 0.73239 0.6269 0.24609 0.0
H2091 H 0.69962 0.61182 0.26071 0.0
H2092 H 0.75806 0.66725 0.23736 0.0
H2093 H 0.78086 0.70318 0.25546 0.0
C2094 C 0.8131 0.4315 0.775 0.0
C2095 C 0.83463 0.44816 0.80276 0.0
C2096 C 0.84257 0.40069 0.81752 0.0
C2097 C 0.81769 0.38378 0.79353 0.0
N2098 N 0.78113 0.38219 0.74616 0.0
N2099 N 0.86198 0.44736 0.85596 0.0
C2100 C 0.80319 0.39897 0.77138 0.0
C2101 C 0.84688 0.43244 0.82584 0.0
N2102 N 0.80319 0.44686 0.75176 0.0
N2103 N 0.86237 0.38647 0.83201 0.0
H2104 H 0.86412 0.47045 0.86432 0.0
H2105 H 0.86824 0.4353 0.87397 0.0
H2106 H 0.86032 0.36317 0.82468 0.0
H2107 H 0.88235 0.39854 0.84832 0.0
H2108 H 0.7904 0.43611 0.72902 0.0
H2109 H 0.80882 0.47088 0.75509 0.0
H2110 H 0.76702 0.39144 0.73123 0.0
H2111 H 0.77761 0.35868 0.74008 0.0
C2112 C 0.10002 0.92128 0.0493 0.0
C2113 C 0.08784 0.90396 0.07336 0.0
C2114 C 0.06247 0.94732 0.0859 0.0
C2115 C 0.07242 0.96262 0.06011 0.0
N2116 N 0.09883 0.9608 0.01511 0.0
N2117 N 0.06663 0.91073 0.12247 0.0
C2118 C 0.09037 0.9483 0.04123 0.0
C2119 C 0.07114 0.91966 0.09344 0.0
N2120 N 0.12381 0.9146 0.03639 0.0
N2121 N 0.04411 0.95923 0.10362 0.0
H2122 H 0.07728 0.89576 0.13281 0.0
H2123 H 0.05655 0.92165 0.1393 0.0
H2124 H 0.04069 0.98081 0.1021 0.0
H2125 H 0.03076 0.94711 0.1182 0.0
H2126 H 0.13581 0.92787 0.02164 0.0
H2127 H 0.13527 0.89915 0.04416 0.0
H2128 H 0.10753 0.94963 0.99707 0.0
H2129 H 0.09513 0.98158 0.01029 0.0
C2130 C 0.90014 0.29644 0.91805 0.0
C2131 C 0.91959 0.27859 0.90771 0.0
C2132 C 0.88794 0.26835 0.85212 0.0
C2133 C 0.8686 0.28659 0.86269 0.0
N2134 N 0.84953 0.30311 0.91123 0.0
N2135 N 0.9337 0.2503 0.86278 0.0
C2136 C 0.87266 0.29639 0.89713 0.0
C2137 C 0.914 0.26545 0.87408 0.0
N2138 N 0.9087 0.3154 0.94757 0.0
N2139 N 0.87887 0.25019 0.82223 0.0
H2140 H 0.9509 0.24499 0.87797 0.0
H2141 H 0.93413 0.2445 0.83822 0.0
H2142 H 0.85814 0.24856 0.80748 0.0
H2143 H 0.88956 0.23391 0.81365 0.0
H2144 H 0.89715 0.33148 0.95474 0.0
H2145 H 0.92938 0.31813 0.96303 0.0
H2146 H 0.85083 0.30729 0.93632 0.0
H2147 H 0.82747 0.2998 0.8991 0.0
C2148 C 0.59121 0.19964 0.5943 0.0
C2149 C 0.57923 0.21471 0.56966 0.0
C2150 C 0.55377 0.16171 0.5373 0.0
C2151 C 0.56829 0.14685 0.56031 0.0
N2152 N 0.6039 0.15373 0.60996 0.0
N2153 N 0.55127 0.20852 0.51558 0.0
C2154 C 0.58765 0.16651 0.58867 0.0
C2155 C 0.56133 0.19515 0.54053 0.0
N2156 N 0.60608 0.21704 0.62363 0.0
N2157 N 0.5309 0.14373 0.5132 0.0
H2158 H 0.55483 0.23228 0.51753 0.0
H2159 H 0.54132 0.19632 0.49238 0.0
H2160 H 0.52337 0.11993 0.51165 0.0
H2161 H 0.51709 0.15243 0.49729 0.0
H2162 H 0.61223 0.20775 0.644 0.0
H2163 H 0.61047 0.24091 0.62842 0.0
H2164 H 0.62148 0.16654 0.62871 0.0
H2165 H 0.60145 0.13011 0.6074 0.0
C2166 C 0.58351 0.81668 0.38323 0.0
C2167 C 0.58769 0.79814 0.40721 0.0
C2168 C 0.63728 0.79603 0.39309 0.0
C2169 C 0.63399 0.81634 0.37084 0.0
N2170 N 0.60019 0.83587 0.33585 0.0
N2171 N 0.61244 0.76135 0.42647 0.0
C2172 C 0.60558 0.82298 0.36278 0.0
C2173 C 0.61261 0.78482 0.40926 0.0
N2174 N 0.56001 0.83025 0.38156 0.0
N2175 N 0.66444 0.78888 0.40019 0.0
H2176 H 0.59429 0.75243 0.43801 0.0
H2177 H 0.62853 0.74874 0.42655 0.0
H2178 H 0.68275 0.79601 0.38832 0.0
H2179 H 0.66937 0.7771 0.41891 0.0
H2180 H 0.55807 0.84672 0.367 0.0
H2181 H 0.54357 0.82694 0.39642 0.0
H2182 H 0.57896 0.83891 0.32693 0.0
H2183 H 0.61625 0.84048 0.3206 0.0
C2184 C 0.08008 0.26182 0.44119 0.0
C2185 C 0.05995 0.26278 0.413 0.0
C2186 C 0.0271 0.21213 0.416 0.0
C2187 C 0.04343 0.2146 0.44774 0.0
N2188 N 0.08779 0.23839 0.48922 0.0
N2189 N 0.01635 0.23823 0.37085 0.0
C2190 C 0.07112 0.23812 0.45964 0.0
C2191 C 0.03456 0.23722 0.39903 0.0
N2192 N 0.10723 0.2842 0.4504 0.0
N2193 N 1.00413 0.18611 0.40263 0.0
H2194 H 0.02211 0.2558 0.35736 0.0
H2195 H 0.99529 0.22239 0.36127 0.0
H2196 H 0.99807 0.16764 0.41489 0.0
H2197 H 0.99275 0.18166 0.37868 0.0
H2198 H 0.12407 0.28453 0.46982 0.0
H2199 H 0.11374 0.30144 0.43666 0.0
H2200 H 0.10671 0.25623 0.50098 0.0
H2201 H 0.0822 0.22057 0.50244 0.0
C2202 C 0.65237 0.28106 0.23688 0.0
C2203 C 0.63557 0.27466 0.26273 0.0
C2204 C 0.6862 0.27955 0.29829 0.0
C2205 C 0.70274 0.28542 0.27236 0.0
N2206 N 0.70095 0.29236 0.21674 0.0
N2207 N 0.63774 0.26685 0.31826 0.0
C2208 C 0.68555 0.28686 0.24182 0.0
C2209 C 0.65298 0.2735 0.29337 0.0
N2210 N 0.63638 0.28034 0.20677 0.0
N2211 N 0.70268 0.28183 0.32856 0.0
H2212 H 0.61488 0.26666 0.31758 0.0
H2213 H 0.64729 0.26073 0.33939 0.0
H2214 H 0.72652 0.28733 0.33332 0.0
H2215 H 0.6934 0.28066 0.3496 0.0
H2216 H 0.64593 0.28934 0.18802 0.0
H2217 H 0.61299 0.26991 0.19976 0.0
H2218 H 0.69084 0.29147 0.19294 0.0
H2219 H 0.72466 0.29722 0.21928 0.0
C2220 C 0.59368 0.94429 0.95591 0.0
C2221 C 0.57144 0.93156 0.92728 0.0
C2222 C 0.54173 0.96708 0.94487 0.0
C2223 C 0.5649 0.98191 0.97224 0.0
N2224 N 0.61474 0.98536 0.00243 0.0
N2225 N 0.52862 0.93676 0.89084 0.0
C2226 C 0.59151 0.97077 0.97723 0.0
C2227 C 0.54703 0.9451 0.92066 0.0
N2228 N 0.61612 0.93015 0.96346 0.0
N2229 N 0.51349 0.97203 0.9431 0.0
H2230 H 0.53298 0.92181 0.87231 0.0
H2231 H 0.51162 0.94728 0.88359 0.0
H2232 H 0.50871 0.98771 0.96037 0.0
H2233 H 0.49444 0.95879 0.92619 0.0
H2234 H 0.63095 0.93546 0.98571 0.0
H2235 H 0.61897 0.91191 0.94761 0.0
H2236 H 0.63603 0.98083 0.00569 0.0
H2237 H 0.61322 1.00342 0.01926 0.0
C2238 C 0.93977 0.76024 0.78566 0.0
C2239 C 0.95289 0.76947 0.75813 0.0
C2240 C 0.90927 0.79383 0.74788 0.0
C2241 C 0.89379 0.78011 0.7717 0.0
N2242 N 0.89412 0.74569 0.81024 0.0
N2243 N 0.94178 0.78876 0.70804 0.0
C2244 C 0.90894 0.76172 0.78933 0.0
C2245 C 0.93539 0.78473 0.73805 0.0
N2246 N 0.95732 0.75202 0.81003 0.0
N2247 N 0.89909 0.81574 0.73408 0.0
H2248 H 0.95735 0.77946 0.69749 0.0
H2249 H 0.92835 0.79738 0.6916 0.0
H2250 H 0.87992 0.82229 0.73956 0.0
H2251 H 0.91128 0.82916 0.71951 0.0
H2252 H 0.95004 0.74757 0.83165 0.0
H2253 H 0.98054 0.75398 0.81094 0.0
H2254 H 0.90209 0.72918 0.82109 0.0
H2255 H 0.87258 0.74704 0.81453 0.0
C2256 C 0.09843 0.09101 0.91453 0.0
C2257 C 0.09724 0.06547 0.89066 0.0
C2258 C 0.08423 0.03149 0.93083 0.0
C2259 C 0.08053 0.05648 0.95248 0.0
N2260 N 0.08017 0.10986 0.96189 0.0
N2261 N 0.08431 0.01027 0.87502 0.0
C2262 C 0.08618 0.08607 0.94322 0.0
C2263 C 0.08911 0.03536 0.89861 0.0
N2264 N 0.11311 0.12015 0.91096 0.0
N2265 N 0.0829 1.00393 0.94084 0.0
H2266 H 0.08667 0.01202 0.85109 0.0
H2267 H 0.07511 0.98778 0.87841 0.0
H2268 H 0.07831 0.99995 0.96361 0.0
H2269 H 0.08844 0.98585 0.92748 0.0
H2270 H 0.11745 0.13924 0.92921 0.0
H2271 H 0.12431 0.12482 0.89158 0.0
H2272 H 0.08038 0.13082 0.95434 0.0
H2273 H 0.07336 0.10806 0.98415 0.0
C2274 C 0.82524 0.36869 0.58003 0.0
C2275 C 0.82567 0.39992 0.58069 0.0
C2276 C 0.84432 0.41181 0.63904 0.0
C2277 C 0.84943 0.38223 0.63705 0.0
N2278 N 0.83511 0.32934 0.61058 0.0
N2279 N 0.83172 0.45081 0.61 0.0
C2280 C 0.83658 0.35948 0.60903 0.0
C2281 C 0.8329 0.42108 0.61022 0.0
N2282 N 0.81573 0.34866 0.55121 0.0
N2283 N 0.85061 0.43096 0.66835 0.0
H2284 H 0.82221 0.45815 0.5896 0.0
H2285 H 0.84099 0.46867 0.62961 0.0
H2286 H 0.86047 0.4256 0.68984 0.0
H2287 H 0.8441 0.45128 0.67206 0.0
H2288 H 0.81759 0.3262 0.54795 0.0
H2289 H 0.80621 0.35505 0.5301 0.0
H2290 H 0.82413 0.31114 0.59175 0.0
H2291 H 0.84298 0.32227 0.63195 0.0
C2292 C 0.4576 0.98799 0.42128 0.0
C2293 C 0.45603 0.01108 0.40236 0.0
C2294 C 0.49782 0.0482 0.44015 0.0
C2295 C 0.50095 0.02461 0.45809 0.0
N2296 N 0.48846 0.97022 0.46103 0.0
N2297 N 0.4827 0.05883 0.38706 0.0
C2298 C 0.48265 0.99381 0.44684 0.0
C2299 C 0.47833 0.04006 0.40982 0.0
N2300 N 0.43461 0.96119 0.41601 0.0
N2301 N 0.51381 0.07824 0.45134 0.0
H2302 H 0.47147 0.05239 0.36296 0.0
H2303 H 0.50051 0.07901 0.39081 0.0
H2304 H 0.53128 0.08529 0.47151 0.0
H2305 H 0.50873 0.09639 0.44103 0.0
H2306 H 0.43342 0.94475 0.43115 0.0
H2307 H 0.41514 0.95649 0.39823 0.0
H2308 H 0.47846 0.94706 0.45119 0.0
H2309 H 0.50471 0.97395 0.48162 0.0
C2310 C 0.76817 0.73359 0.14247 0.0
C2311 C 0.7857 0.75408 0.12497 0.0
C2312 C 0.81423 0.78615 0.17692 0.0
C2313 C 0.79405 0.76818 0.19428 0.0
N2314 N 0.75158 0.72443 0.19347 0.0
N2315 N 0.82376 0.80137 0.1254 0.0
C2316 C 0.7711 0.74163 0.17697 0.0
C2317 C 0.80822 0.78081 0.1422 0.0
N2318 N 0.74883 0.70622 0.12606 0.0
N2319 N 0.84036 0.8071 0.19359 0.0
H2320 H 0.82085 0.79759 0.10011 0.0
H2321 H 0.83783 0.82305 0.13636 0.0
H2322 H 0.84632 0.81018 0.21866 0.0
H2323 H 0.85759 0.81888 0.18256 0.0
H2324 H 0.73796 0.68863 0.13733 0.0
H2325 H 0.74507 0.70006 0.10087 0.0
H2326 H 0.7321 0.70694 0.18237 0.0
H2327 H 0.75402 0.72875 0.21864 0.0
C2328 C 0.09782 0.03761 0.68267 0.0
C2329 C 0.08962 0.06039 0.70396 0.0
C2330 C 0.0759 0.08225 0.65581 0.0
C2331 C 0.07792 0.05674 0.63403 0.0
N2332 N 0.08134 1.00401 0.63053 0.0
N2333 N 0.05706 0.09529 0.70434 0.0
C2334 C 0.08604 0.03246 0.64846 0.0
C2335 C 0.07405 0.07964 0.68854 0.0
N2336 N 0.11749 0.02153 0.6937 0.0
N2337 N 0.07914 0.11018 0.6467 0.0
H2338 H 0.05109 0.09086 0.72653 0.0
H2339 H 0.04523 0.10896 0.69279 0.0
H2340 H 0.08772 0.11439 0.62572 0.0
H2341 H 0.07916 0.12961 0.66283 0.0
H2342 H 0.12545 1.00706 0.67786 0.0
H2343 H 0.12879 0.02481 0.71746 0.0
H2344 H 0.08578 0.98563 0.64086 0.0
H2345 H 0.06892 0.99754 0.60697 0.0
C2346 C 0.8364 0.3749 0.41851 0.0
C2347 C 0.82377 0.40028 0.41852 0.0
C2348 C 0.7911 0.37694 0.36655 0.0
C2349 C 0.80684 0.35394 0.36479 0.0
N2350 N 0.84934 0.33474 0.38571 0.0
N2351 N 0.79332 0.42872 0.39085 0.0
C2352 C 0.83112 0.3541 0.38962 0.0
C2353 C 0.8023 0.40237 0.392 0.0
N2354 N 0.85173 0.36941 0.44642 0.0
N2355 N 0.76523 0.37405 0.34459 0.0
H2356 H 0.80163 0.44797 0.40922 0.0
H2357 H 0.77995 0.4324 0.37044 0.0
H2358 H 0.75595 0.3549 0.32628 0.0
H2359 H 0.75156 0.38915 0.34639 0.0
H2360 H 0.85849 0.34929 0.44768 0.0
H2361 H 0.8546 0.38285 0.46914 0.0
H2362 H 0.86956 0.33705 0.40179 0.0
H2363 H 0.84571 0.31789 0.36538 0.0
C2364 C 0.48331 0.02235 0.2515 0.0
C2365 C 0.45406 0.02737 0.2512 0.0
C2366 C 0.44926 0.0292 0.19348 0.0
C2367 C 0.47306 0.01478 0.19245 0.0
N2368 N 0.51514 0.99956 0.22058 0.0
N2369 N 0.40815 0.0349 0.22122 0.0
C2370 C 0.49155 0.01282 0.22157 0.0
C2371 C 0.43716 0.0319 0.22229 0.0
N2372 N 0.50196 0.02479 0.2805 0.0
N2373 N 0.43728 0.03855 0.16636 0.0
H2374 H 0.39761 0.03538 0.24139 0.0
H2375 H 0.39366 0.03442 0.19971 0.0
H2376 H 0.44597 0.03624 0.14487 0.0
H2377 H 0.42127 0.05128 0.16641 0.0
H2378 H 0.52438 0.02312 0.28252 0.0
H2379 H 0.4956 0.03135 0.30259 0.0
H2380 H 0.52695 0.99416 0.24096 0.0
H2381 H 0.52205 0.99258 0.19905 0.0
C2382 C 0.77686 0.77757 0.92774 0.0
C2383 C 0.78404 0.751 0.93772 0.0
C2384 C 0.81245 0.74875 0.89154 0.0
C2385 C 0.80535 0.7756 0.88249 0.0
N2386 N 0.79735 0.82347 0.90697 0.0
N2387 N 0.79982 0.70559 0.92005 0.0
C2388 C 0.79243 0.79243 0.90487 0.0
C2389 C 0.79979 0.73515 0.91732 0.0
N2390 N 0.75347 0.78781 0.93767 0.0
N2391 N 0.8335 0.73769 0.87744 0.0
H2392 H 0.78706 0.69307 0.93482 0.0
H2393 H 0.80839 0.69185 0.90415 0.0
H2394 H 0.84582 0.74918 0.86164 0.0
H2395 H 0.84208 0.7201 0.88495 0.0
H2396 H 0.74726 0.8065 0.92969 0.0
H2397 H 0.73665 0.77481 0.9482 0.0
H2398 H 0.78986 0.83667 0.92454 0.0
H2399 H 0.81315 0.8366 0.89543 0.0
C2400 C 0.85572 0.10741 0.03626 0.0
C2401 C 0.84254 0.0894 0.05826 0.0
C2402 C 0.87374 0.0543 0.04978 0.0
C2403 C 0.88466 0.07067 0.02538 0.0
N2404 N 0.89652 0.11843 0.00519 0.0
N2405 N 0.84662 0.05413 0.09527 0.0
C2406 C 0.87937 0.09942 0.02225 0.0
C2407 C 0.85435 0.06573 0.06839 0.0
N2408 N 0.84437 0.13074 0.0272 0.0
N2409 N 0.87986 0.02695 0.0535 0.0
H2410 H 0.83217 0.06237 0.109 0.0
H2411 H 0.85675 0.03871 0.10564 0.0
H2412 H 0.89402 0.01764 0.04044 0.0
H2413 H 0.86967 0.01261 0.06852 0.0
H2414 H 0.85066 0.14202 0.00825 0.0
H2415 H 0.82725 0.13769 0.03735 0.0
H2416 H 0.89533 0.14084 0.00415 0.0
H2417 H 0.9142 0.11264 0.99487 0.0
C2418 C 0.42345 0.45144 0.02509 0.0
C2419 C 0.41289 0.45319 0.05506 0.0
C2420 C 0.45398 0.5002 0.0768 0.0
C2421 C 0.46518 0.49782 0.04703 0.0
N2422 N 0.45025 0.48131 0.98963 0.0
N2423 N 0.41172 0.48396 0.10536 0.0
C2424 C 0.44697 0.47626 0.02013 0.0
C2425 C 0.426 0.47926 0.07961 0.0
N2426 N 0.41111 0.42622 0.00128 0.0
N2427 N 0.47056 0.5216 0.10266 0.0
H2428 H 0.39138 0.46868 0.10798 0.0
H2429 H 0.41841 0.50419 0.12237 0.0
H2430 H 0.49074 0.53689 0.1007 0.0
H2431 H 0.46541 0.52289 0.12595 0.0
H2432 H 0.42049 0.42269 0.98047 0.0
H2433 H 0.39275 0.40804 0.00323 0.0
H2434 H 0.43631 0.46733 0.96872 0.0
H2435 H 0.46366 0.50234 0.98602 0.0
C2436 C 0.41671 0.62564 0.77128 0.0
C2437 C 0.41223 0.59816 0.78451 0.0
C2438 C 0.37154 0.61129 0.81036 0.0
C2439 C 0.38148 0.64156 0.80389 0.0
N2440 N 0.41127 0.67759 0.77575 0.0
N2441 N 0.38411 0.56327 0.81525 0.0
C2442 C 0.40287 0.64857 0.7829 0.0
C2443 C 0.38867 0.59007 0.80295 0.0
N2444 N 0.43409 0.62954 0.74757 0.0
N2445 N 0.34612 0.60337 0.82424 0.0
H2446 H 0.39604 0.54699 0.81032 0.0
H2447 H 0.3697 0.55784 0.83188 0.0
H2448 H 0.33343 0.61888 0.82973 0.0
H2449 H 0.33602 0.58101 0.82735 0.0
H2450 H 0.43613 0.64782 0.73479 0.0
H2451 H 0.44415 0.61276 0.73855 0.0
H2452 H 0.42932 0.68523 0.76371 0.0
H2453 H 0.40083 0.69458 0.78305 0.0
C2454 C 0.17967 0.57264 0.53399 0.0
C2455 C 0.19352 0.59265 0.56326 0.0
C2456 C 0.14547 0.60186 0.57216 0.0
C2457 C 0.13038 0.5796 0.54441 0.0
N2458 N 0.13305 0.5433 0.49847 0.0
N2459 N 0.18954 0.61786 0.61525 0.0
C2460 C 0.14749 0.56462 0.52527 0.0
C2461 C 0.17612 0.60395 0.58427 0.0
N2462 N 0.19759 0.56275 0.51403 0.0
N2463 N 0.13132 0.62195 0.58604 0.0
H2464 H 0.21207 0.61845 0.62439 0.0
H2465 H 0.17751 0.62548 0.63231 0.0
H2466 H 0.10981 0.62348 0.57602 0.0
H2467 H 0.14264 0.63986 0.60514 0.0
H2468 H 0.18936 0.5511 0.49032 0.0
H2469 H 0.22127 0.5673 0.52129 0.0
H2470 H 0.14331 0.52833 0.48636 0.0
H2471 H 0.11063 0.54109 0.48829 0.0
C2472 C 0.77762 0.016 0.78402 0.0
C2473 C 0.7537 1.00107 0.75729 0.0
C2474 C 0.75706 0.95067 0.76756 0.0
C2475 C 0.77718 0.96548 0.79712 0.0
N2476 N 0.81532 0.01037 0.8276 0.0
N2477 N 0.72944 0.95691 0.71635 0.0
C2478 C 0.79053 0.99764 0.80329 0.0
C2479 C 0.74665 0.96914 0.74646 0.0
N2480 N 0.78633 0.04738 0.79237 0.0
N2481 N 0.74683 0.91926 0.76069 0.0
H2482 H 0.72208 0.97083 0.7009 0.0
H2483 H 0.72482 0.93394 0.70568 0.0
H2484 H 0.75458 0.90511 0.7755 0.0
H2485 H 0.73001 0.90712 0.74095 0.0
H2486 H 0.80004 0.05923 0.81431 0.0
H2487 H 0.77971 0.06195 0.77751 0.0
H2488 H 0.82795 0.03335 0.83152 0.0
H2489 H 0.82498 0.99721 0.84225 0.0
C2490 C 0.74428 0.96087 0.56772 0.0
C2491 C 0.76467 0.9556 0.54668 0.0
C2492 C 0.73391 0.97055 0.50248 0.0
C2493 C 0.71119 0.97117 0.52197 0.0
N2494 N 0.69327 0.96522 0.57243 0.0
N2495 N 0.77921 0.95452 0.49387 0.0
C2496 C 0.71612 0.96631 0.55461 0.0
C2497 C 0.75966 0.96035 0.51403 0.0
N2498 N 0.75172 0.96038 0.60011 0.0
N2499 N 0.73115 0.98047 0.47326 0.0
H2500 H 0.79952 0.94914 0.50193 0.0
H2501 H 0.77459 0.95348 0.46884 0.0
H2502 H 0.71271 0.98844 0.46426 0.0
H2503 H 0.74833 0.98347 0.45929 0.0
H2504 H 0.73942 0.96716 0.6173 0.0
H2505 H 0.77172 0.95551 0.61026 0.0
H2506 H 0.6941 0.95854 0.59511 0.0
H2507 H 0.67229 0.9689 0.56357 0.0
C2508 C 0.38925 0.42949 0.80109 0.0
C2509 C 0.39425 0.43271 0.76908 0.0
C2510 C 0.35058 0.38784 0.74706 0.0
C2511 C 0.34906 0.38122 0.77891 0.0
N2512 N 0.36476 0.39714 0.83681 0.0
N2513 N 0.37893 0.41678 0.71137 0.0
C2514 C 0.36737 0.40283 0.80617 0.0
C2515 C 0.37439 0.41265 0.74199 0.0
N2516 N 0.40539 0.45214 0.82648 0.0
N2517 N 0.32842 0.37107 0.72174 0.0
H2518 H 0.39513 0.43567 0.70688 0.0
H2519 H 0.36775 0.40091 0.69053 0.0
H2520 H 0.31127 0.35228 0.72445 0.0
H2521 H 0.32556 0.37699 0.69873 0.0
H2522 H 0.40175 0.45269 0.85027 0.0
H2523 H 0.42116 0.47198 0.82334 0.0
H2524 H 0.37944 0.40994 0.85779 0.0
H2525 H 0.3486 0.37834 0.8414 0.0
C2526 C 0.26637 0.66719 0.29879 0.0
C2527 C 0.27708 0.65201 0.27334 0.0
C2528 C 0.28524 0.69733 0.24816 0.0
C2529 C 0.2741 0.71265 0.27288 0.0
N2530 N 0.24024 0.70576 0.31156 0.0
N2531 N 0.30708 0.65609 0.23134 0.0
C2532 C 0.26115 0.6962 0.29603 0.0
C2533 C 0.29114 0.66895 0.25142 0.0
N2534 N 0.26066 0.65355 0.32499 0.0
N2535 N 0.28492 0.70742 0.21927 0.0
H2536 H 0.31032 0.63439 0.23305 0.0
H2537 H 0.31884 0.66808 0.21545 0.0
H2538 H 0.27605 0.7259 0.21518 0.0
H2539 H 0.28879 0.69473 0.19868 0.0
H2540 H 0.25432 0.66444 0.34515 0.0
H2541 H 0.266 0.63296 0.32791 0.0
H2542 H 0.2284 0.69333 0.32708 0.0
H2543 H 0.23123 0.72328 0.30461 0.0
C2544 C 0.50548 0.66654 0.48413 0.0
C2545 C 0.51768 0.69512 0.50638 0.0
C2546 C 0.54085 0.66445 0.5437 0.0
C2547 C 0.53201 0.63673 0.51996 0.0
N2548 N 0.50901 0.61482 0.46433 0.0
N2549 N 0.55226 0.72058 0.55602 0.0
C2550 C 0.51502 0.63886 0.48939 0.0
C2551 C 0.5369 0.6937 0.53568 0.0
N2552 N 0.48367 0.66531 0.45805 0.0
N2553 N 0.55087 0.66255 0.57508 0.0
H2554 H 0.54988 0.74191 0.55137 0.0
H2555 H 0.56934 0.72185 0.57566 0.0
H2556 H 0.55126 0.64159 0.58232 0.0
H2557 H 0.55492 0.68078 0.59423 0.0
H2558 H 0.47083 0.6448 0.44311 0.0
H2559 H 0.47642 0.68451 0.45317 0.0
H2560 H 0.49947 0.61562 0.44069 0.0
H2561 H 0.51651 0.59523 0.46639 0.0
C2562 C 0.69055 0.28921 0.67047 0.0
C2563 C 0.67939 0.31597 0.67336 0.0
C2564 C 0.71129 0.33346 0.72848 0.0
C2565 C 0.72375 0.30759 0.72499 0.0
N2566 N 0.72007 0.25767 0.69565 0.0
N2567 N 0.68288 0.36567 0.70333 0.0
C2568 C 0.7121 0.28475 0.69658 0.0
C2569 C 0.69054 0.33842 0.7021 0.0
N2570 N 0.68064 0.26798 0.64252 0.0
N2571 N 0.71883 0.35326 0.7574 0.0
H2572 H 0.66818 0.3703 0.68461 0.0
H2573 H 0.69306 0.38478 0.72141 0.0
H2574 H 0.73537 0.35214 0.77638 0.0
H2575 H 0.70759 0.36988 0.76339 0.0
H2576 H 0.69015 0.24995 0.63667 0.0
H2577 H 0.66349 0.26898 0.62402 0.0
H2578 H 0.71055 0.23844 0.67763 0.0
H2579 H 0.7348 0.2534 0.7146 0.0
C2580 C 0.03866 0.39945 0.99097 0.0
C2581 C 0.02628 0.38031 0.01328 0.0
C2582 C 0.02754 0.4301 0.04924 0.0
C2583 C 0.03788 0.44873 0.02596 0.0
N2584 N 0.04998 0.44877 0.9722 0.0
N2585 N 1.0096 0.3799 0.06506 0.0
C2586 C 0.04308 0.43267 0.99659 0.0
C2587 C 0.02079 0.39652 0.04259 0.0
N2588 N 0.0461 0.38618 0.96343 0.0
N2589 N 0.02619 0.44472 0.07916 0.0
H2590 H 0.01073 0.35744 0.06572 0.0
H2591 H 0.99902 0.38831 0.0831 0.0
H2592 H 0.03167 0.46856 0.08536 0.0
H2593 H 0.02226 0.43377 0.09891 0.0
H2594 H 0.06181 0.39827 0.9509 0.0
H2595 H 0.03698 0.36323 0.95283 0.0
H2596 H 0.04956 0.4386 0.94856 0.0
H2597 H 0.05357 0.47241 0.97436 0.0
C2598 C 1.0103 0.82653 0.19206 0.0
C2599 C 1.00644 0.81038 0.16009 0.0
C2600 C 0.96038 0.77338 0.16798 0.0
C2601 C 0.96712 0.78647 0.20133 0.0
N2602 N 0.99736 0.8257 0.24585 0.0
N2603 N 0.97896 0.76808 0.11721 0.0
C2604 C 0.9915 0.81347 0.21354 0.0
C2605 C 0.98147 0.78399 0.1477 0.0
N2606 N 0.0319 0.85429 0.20161 0.0
N2607 N 0.93374 0.75081 0.15585 0.0
H2608 H 0.99359 0.77545 0.10127 0.0
H2609 H 0.9636 0.74656 0.10831 0.0
H2610 H 0.91785 0.74255 0.17027 0.0
H2611 H 0.92601 0.74223 0.13121 0.0
H2612 H 0.03441 0.86861 0.22367 0.0
H2613 H 0.04593 0.86421 0.1862 0.0
H2614 H 0.01662 0.84339 0.25711 0.0
H2615 H 0.98344 0.81717 0.26197 0.0
C2616 C 0.52967 0.36219 0.15599 0.0
C2617 C 0.53437 0.33338 0.14439 0.0
C2618 C 0.56344 0.35634 0.10494 0.0
C2619 C 0.5626 0.38586 0.11974 0.0
N2620 N 0.54285 0.41757 0.15651 0.0
N2621 N 0.55421 0.30178 0.1075 0.0
C2622 C 0.54466 0.38891 0.14417 0.0
C2623 C 0.55041 0.33 0.11836 0.0
N2624 N 0.51119 0.36381 0.1786 0.0
N2625 N 0.57669 0.35369 0.07804 0.0
H2626 H 0.54375 0.28184 0.11582 0.0
H2627 H 0.56855 0.29808 0.09127 0.0
H2628 H 0.5866 0.37265 0.06793 0.0
H2629 H 0.57589 0.33278 0.06419 0.0
H2630 H 0.50539 0.38357 0.18742 0.0
H2631 H 0.50011 0.34455 0.18761 0.0
H2632 H 0.53225 0.42235 0.176 0.0
H2633 H 0.5525 0.43719 0.14722 0.0
C2634 C 0.95187 0.34938 0.32441 0.0
C2635 C 0.96498 0.32493 0.31542 0.0
C2636 C 0.91186 0.2923 0.2916 0.0
C2637 C 0.89873 0.31589 0.304 0.0
N2638 N 0.90752 0.36449 0.3388 0.0
N2639 N 0.95681 0.2723 0.29135 0.0
C2640 C 0.91919 0.34395 0.32176 0.0
C2641 C 0.94467 0.29627 0.29887 0.0
N2642 N 0.97106 0.37806 0.33639 0.0
N2643 N 0.89295 0.26593 0.27281 0.0
H2644 H 0.98044 0.27515 0.29492 0.0
H2645 H 0.94379 0.2497 0.28279 0.0
H2646 H 0.86917 0.26138 0.26876 0.0
H2647 H 0.90071 0.24929 0.25983 0.0
H2648 H 0.96341 0.39767 0.34077 0.0
H2649 H 0.99483 0.38257 0.33877 0.0
H2650 H 0.92103 0.3838 0.35515 0.0
H2651 H 0.88421 0.36033 0.33941 0.0
C2652 C 0.02494 0.64299 0.65986 0.0
C2653 C 0.02506 0.67278 0.65169 0.0
C2654 C 0.01955 0.64807 0.59391 0.0
C2655 C 0.02657 0.62123 0.60274 0.0
N2656 N 0.01987 0.58877 0.64414 0.0
N2657 N 0.02395 0.70213 0.60695 0.0
C2658 C 0.02525 0.61749 0.63585 0.0
C2659 C 0.02284 0.6749 0.61771 0.0
N2660 N 0.02328 0.63812 0.69083 0.0
N2661 N 1.00494 0.6464 0.56307 0.0
H2662 H 0.02316 0.72233 0.62072 0.0
H2663 H 0.02701 0.70488 0.58338 0.0
H2664 H 0.99734 0.62561 0.54682 0.0
H2665 H 0.9959 0.66379 0.55566 0.0
H2666 H 0.03373 0.62314 0.7017 0.0
H2667 H 1.00939 0.64729 0.7045 0.0
H2668 H 0.01737 0.58406 0.6672 0.0
H2669 H 0.01266 0.56847 0.62768 0.0
C2670 C 0.68725 0.83656 0.84033 0.0
C2671 C 0.66279 0.83374 0.81401 0.0
C2672 C 0.69699 0.81843 0.77653 0.0
C2673 C 0.72108 0.82031 0.8029 0.0
N2674 N 0.73595 0.82665 0.86063 0.0
N2675 N 0.64335 0.81606 0.75702 0.0
C2676 C 0.71506 0.82802 0.83492 0.0
C2677 C 0.66758 0.82299 0.78216 0.0
N2678 N 0.68462 0.84883 0.87071 0.0
N2679 N 0.70252 0.81311 0.74568 0.0
H2680 H 0.62181 0.81838 0.7602 0.0
H2681 H 0.64352 0.80531 0.73379 0.0
H2682 H 0.72334 0.81 0.74088 0.0
H2683 H 0.68773 0.81414 0.72505 0.0
H2684 H 0.70253 0.85535 0.89051 0.0
H2685 H 0.66487 0.85445 0.87579 0.0
H2686 H 0.73232 0.82868 0.88446 0.0
H2687 H 0.7562 0.82117 0.85759 0.0
C2688 C 0.53144 0.52145 0.6751 0.0
C2689 C 0.50641 0.53156 0.68454 0.0
C2690 C 0.50805 0.55973 0.63792 0.0
C2691 C 0.52785 0.54358 0.62502 0.0
N2692 N 0.54952 0.50061 0.6289 0.0
N2693 N 0.46692 0.55677 0.66857 0.0
C2694 C 0.53717 0.52212 0.64297 0.0
C2695 C 0.49362 0.54992 0.66432 0.0
N2696 N 0.55071 0.51212 0.69684 0.0
N2697 N 0.50342 0.58487 0.62572 0.0
H2698 H 0.45381 0.54838 0.68528 0.0
H2699 H 0.45585 0.56784 0.65257 0.0
H2700 H 0.51472 0.5937 0.6078 0.0
H2701 H 0.49129 0.59893 0.63619 0.0
H2702 H 0.57009 0.50618 0.69092 0.0
H2703 H 0.54997 0.51471 0.72159 0.0
H2704 H 0.55469 0.48329 0.64073 0.0
H2705 H 0.5501 0.49733 0.60421 0.0
C2706 C 0.76439 0.16824 0.97636 0.0
C2707 C 0.76692 0.18281 0.00861 0.0
C2708 C 0.75735 0.22877 0.99007 0.0
C2709 C 0.74977 0.21205 0.95804 0.0
N2710 N 0.75822 0.17287 0.91938 0.0
N2711 N 0.77517 0.22909 0.0472 0.0
C2712 C 0.75739 0.18398 0.95071 0.0
C2713 C 0.76689 0.21411 0.01576 0.0
N2714 N 0.76705 0.13889 0.97046 0.0
N2715 N 0.75492 0.25828 0.99554 0.0
H2716 H 0.78391 0.21903 0.06581 0.0
H2717 H 0.77509 0.25169 0.05489 0.0
H2718 H 0.74885 0.26959 0.97674 0.0
H2719 H 0.75937 0.27199 0.01826 0.0
H2720 H 0.76204 0.12556 0.94742 0.0
H2721 H 0.77355 0.12759 0.98913 0.0
H2722 H 0.76665 0.1542 0.9127 0.0
H2723 H 0.75288 0.1842 0.90036 0.0
C2724 C 0.15391 0.55626 0.13756 0.0
C2725 C 0.14536 0.5683 0.16646 0.0
C2726 C 0.09366 0.5352 0.14868 0.0
C2727 C 0.10056 0.53066 0.11754 0.0
N2728 N 0.13781 0.51647 0.08968 0.0
N2729 N 0.10727 0.5668 0.20155 0.0
C2730 C 0.13112 0.53467 0.11419 0.0
C2731 C 0.11527 0.55697 0.17286 0.0
N2732 N 0.18307 0.56644 0.13193 0.0
N2733 N 0.06795 0.51655 0.15543 0.0
H2734 H 0.12267 0.58163 0.22101 0.0
H2735 H 0.08465 0.56137 0.20526 0.0
H2736 H 0.05328 0.49897 0.13767 0.0
H2737 H 0.06338 0.51632 0.17891 0.0
H2738 H 0.18942 0.56009 0.10985 0.0
H2739 H 0.2002 0.58308 0.14845 0.0
H2740 H 0.1601 0.51618 0.08743 0.0
H2741 H 0.12033 0.49993 0.07336 0.0
C2742 C 0.81755 0.80872 0.44254 0.0
C2743 C 0.8213 0.83989 0.45648 0.0
C2744 C 0.81324 0.85275 0.40146 0.0
C2745 C 0.81291 0.82253 0.38765 0.0
N2746 N 0.81484 0.77143 0.39477 0.0
N2747 N 0.8286 0.89288 0.44878 0.0
C2748 C 0.81517 0.80045 0.4082 0.0
C2749 C 0.82044 0.86222 0.43582 0.0
N2750 N 0.81499 0.78678 0.46206 0.0
N2751 N 0.80607 0.87242 0.38177 0.0
H2752 H 0.83579 0.90139 0.47351 0.0
H2753 H 0.83146 0.91028 0.43479 0.0
H2754 H 0.8016 0.86671 0.35661 0.0
H2755 H 0.80191 0.89322 0.39037 0.0
H2756 H 0.80985 0.76327 0.45358 0.0
H2757 H 0.8155 0.79177 0.48695 0.0
H2758 H 0.81978 0.755 0.40803 0.0
H2759 H 0.81081 0.76404 0.3698 0.0
C2760 C 0.49738 0.50409 0.88174 0.0
C2761 C 0.50757 0.5289 0.86506 0.0
C2762 C 0.53643 0.56063 0.91712 0.0
C2763 C 0.52419 0.53679 0.93429 0.0
N2764 N 0.48957 0.48717 0.93253 0.0
N2765 N 0.53281 0.58246 0.86753 0.0
C2766 C 0.50372 0.50894 0.91635 0.0
C2767 C 0.52573 0.55774 0.88301 0.0
N2768 N 0.48187 0.47553 0.86453 0.0
N2769 N 0.55955 0.58543 0.933 0.0
H2770 H 0.52632 0.58087 0.84255 0.0
H2771 H 0.543 0.60489 0.87975 0.0
H2772 H 0.56838 0.58764 0.95742 0.0
H2773 H 0.57184 0.60202 0.92146 0.0
H2774 H 0.47764 0.45566 0.87486 0.0
H2775 H 0.47479 0.47109 0.83943 0.0
H2776 H 0.47115 0.46835 0.92173 0.0
H2777 H 0.49523 0.48932 0.95746 0.0
C2778 C 0.76735 0.1996 0.18257 0.0
C2779 C 0.79361 0.20139 0.16838 0.0
C2780 C 0.81877 0.25121 0.20112 0.0
C2781 C 0.79066 0.25067 0.21216 0.0
N2782 N 0.73611 0.22654 0.207 0.0
N2783 N 0.84336 0.22894 0.16073 0.0
C2784 C 0.76426 0.22604 0.20051 0.0
C2785 C 0.81935 0.22708 0.17698 0.0
N2786 N 0.74463 0.1728 0.1777 0.0
N2787 N 0.84458 0.27469 0.21327 0.0
H2788 H 0.84471 0.21051 0.14402 0.0
H2789 H 0.86099 0.24894 0.16258 0.0
H2790 H 0.84477 0.29385 0.22956 0.0
H2791 H 0.8662 0.27454 0.20842 0.0
H2792 H 0.72397 0.17126 0.18599 0.0
H2793 H 0.74828 0.15196 0.1685 0.0
H2794 H 0.73159 0.24546 0.21999 0.0
H2795 H 0.73159 0.24546 0.21999 0.0
C2796 C 0.12843 0.56364 0.31672 0.0
C2797 C 0.16045 0.57723 0.32152 0.0
C2798 C 0.16048 0.60392 0.3752 0.0
C2799 C 0.12807 0.59266 0.36941 0.0
N2800 N 0.08263 0.55406 0.341 0.0
N2801 N 0.20805 0.59991 0.35837 0.0
C2802 C 0.1125 0.5697 0.34224 0.0
C2803 C 0.17684 0.59373 0.35203 0.0
N2804 N 0.11314 0.54673 0.2873 0.0
N2805 N 0.17539 0.62587 0.40157 0.0
H2806 H 0.22025 0.59217 0.34147 0.0
H2807 H 0.22139 0.60978 0.3811 0.0
H2808 H 0.16425 0.63382 0.41932 0.0
H2809 H 0.19852 0.63753 0.40481 0.0
H2810 H 0.08935 0.53916 0.28112 0.0
H2811 H 0.12435 0.5413 0.26843 0.0
H2812 H 0.07068 0.53527 0.32315 0.0
H2813 H 0.07075 0.5582 0.35973 0.0
C2814 C 0.80512 0.86056 0.66158 0.0
C2815 C 0.81494 0.8423 0.63732 0.0
C2816 C 0.82006 0.80669 0.67557 0.0
C2817 C 0.80742 0.82317 0.69883 0.0
N2818 N 0.77631 0.85876 0.70543 0.0
N2819 N 0.81814 0.79098 0.61834 0.0
C2820 C 0.79634 0.84795 0.68927 0.0
C2821 C 0.81801 0.81314 0.64338 0.0
N2822 N 0.80533 0.89029 0.65958 0.0
N2823 N 0.83556 0.78594 0.68378 0.0
H2824 H 0.81398 0.79367 0.5941 0.0
H2825 H 0.81811 0.76862 0.62149 0.0
H2826 H 0.8405 0.78151 0.70711 0.0
H2827 H 0.84718 0.77594 0.6678 0.0
H2828 H 0.80077 0.90479 0.67835 0.0
H2829 H 0.81322 0.90161 0.6413 0.0
H2830 H 0.76607 0.87527 0.6977 0.0
H2831 H 0.76661 0.84825 0.72341 0.0
C2832 C 0.77517 0.53438 0.52152 0.0
C2833 C 0.75964 0.50872 0.49699 0.0
C2834 C 0.71332 0.5017 0.52033 0.0
C2835 C 0.72924 0.52619 0.54606 0.0
N2836 N 0.77175 0.57124 0.56671 0.0
N2837 N 0.71267 0.47507 0.46643 0.0
C2838 C 0.75905 0.5444 0.54516 0.0
C2839 C 0.728 0.49517 0.49403 0.0
N2840 N 0.80579 0.54759 0.52361 0.0
N2841 N 0.68498 0.48372 0.52197 0.0
H2842 H 0.72377 0.47021 0.44721 0.0
H2843 H 0.68899 0.46574 0.46143 0.0
H2844 H 0.67367 0.48749 0.54126 0.0
H2845 H 0.67365 0.46367 0.50551 0.0
H2846 H 0.81944 0.56312 0.54367 0.0
H2847 H 0.81786 0.54234 0.50551 0.0
H2848 H 0.79205 0.58706 0.56509 0.0
H2849 H 0.76079 0.57893 0.58486 0.0
C2850 C 0.17997 0.14443 0.55272 0.0
C2851 C 0.18766 0.14633 0.52144 0.0
C2852 C 0.14428 0.1015 0.49782 0.0
C2853 C 0.13668 0.09955 0.5292 0.0
N2854 N 0.15198 0.11376 0.58729 0.0
N2855 N 0.18154 0.12344 0.46552 0.0
C2856 C 0.15632 0.11906 0.55693 0.0
C2857 C 0.17124 0.1237 0.49438 0.0
N2858 N 0.19422 0.16772 0.57818 0.0
N2859 N 0.12551 0.08239 0.47124 0.0
H2860 H 0.20081 0.13984 0.46222 0.0
H2861 H 0.17257 0.10582 0.44562 0.0
H2862 H 0.10693 0.06454 0.47304 0.0
H2863 H 0.12752 0.0848 0.44741 0.0
H2864 H 0.18737 0.16939 0.60068 0.0
H2865 H 0.21136 0.18692 0.57608 0.0
H2866 H 0.16744 0.1252 0.60836 0.0
H2867 H 0.13415 0.09616 0.59136 0.0
C2868 C 0.21916 0.01539 0.77548 0.0
C2869 C 0.20793 0.01362 0.80498 0.0
C2870 C 0.21489 0.9622 0.80523 0.0
C2871 C 0.22506 0.9635 0.77505 0.0
N2872 N 0.24548 0.99382 0.73638 0.0
N2873 N 0.20301 0.99023 0.85251 0.0
C2874 C 0.22998 0.99098 0.76173 0.0
C2875 C 0.20859 0.98862 0.82148 0.0
N2876 N 0.21847 0.03995 0.76012 0.0
N2877 N 0.20968 0.93531 0.81739 0.0
H2878 H 0.19816 0.0094 0.86469 0.0
H2879 H 0.20594 0.97405 0.86711 0.0
H2880 H 0.21383 0.91537 0.80608 0.0
H2881 H 0.19935 0.932 0.83755 0.0
H2882 H 0.22252 0.04075 0.73656 0.0
H2883 H 0.21241 0.05915 0.7705 0.0
H2884 H 0.25236 0.01431 0.72757 0.0
H2885 H 0.25397 0.97636 0.72597 0.0
C2886 C 0.42504 0.99619 0.9799 0.0
C2887 C 0.40653 0.01452 0.99018 0.0
C2888 C 0.45002 0.05171 0.02422 0.0
C2889 C 0.46808 0.03127 0.01774 0.0
N2890 N 0.47013 0.98012 0.99678 0.0
N2891 N 0.40209 0.06439 0.00862 0.0
C2892 C 0.45514 1.00254 0.99698 0.0
C2893 C 0.41963 0.04429 0.0073 0.0
N2894 N 0.41268 0.97139 0.95579 0.0
N2895 N 0.46048 0.07586 0.04915 0.0
H2896 H 0.37932 0.0578 0.99654 0.0
H2897 H 0.41083 0.08763 0.01873 0.0
H2898 H 0.48098 0.07901 0.06502 0.0
H2899 H 0.44724 0.09017 0.05644 0.0
H2900 H 0.42547 0.95765 0.94609 0.0
H2901 H 0.39013 0.96692 0.94366 0.0
H2902 H 0.46019 0.95757 0.98478 0.0
H2903 H 0.49151 0.98342 0.01113 0.0
C2904 C 0.84439 0.57697 0.78065 0.0
C2905 C 0.84221 0.58284 0.81402 0.0
C2906 C 0.80261 0.60841 0.80041 0.0
C2907 C 0.80881 0.607 0.76822 0.0
N2908 N 0.84193 0.59699 0.73069 0.0
N2909 N 0.82247 0.60815 0.85659 0.0
C2910 C 0.83154 0.59334 0.75912 0.0
C2911 C 0.82218 0.59969 0.82427 0.0
N2912 N 0.85734 0.55476 0.76903 0.0
N2913 N 0.77774 0.61741 0.80794 0.0
H2914 H 0.83668 0.60214 0.87473 0.0
H2915 H 0.81062 0.62333 0.86533 0.0
H2916 H 0.76211 0.62274 0.7907 0.0
H2917 H 0.77095 0.61654 0.83041 0.0
H2918 H 0.85714 0.5484 0.74436 0.0
H2919 H 0.86458 0.53997 0.78319 0.0
H2920 H 0.86081 0.58988 0.72502 0.0
H2921 H 0.83394 0.60989 0.71451 0.0
C2922 C 0.8774 0.6667 0.03822 0.0
C2923 C 0.84813 0.64909 0.02081 0.0
C2924 C 0.86007 0.6014 0.03175 0.0
C2925 C 0.88747 0.61921 0.05265 0.0
N2926 N 0.92358 0.66829 0.07552 0.0
N2927 N 0.81034 0.60007 0.00216 0.0
C2928 C 0.8967 0.65177 0.05558 0.0
C2929 C 0.83929 0.61648 0.01737 0.0
N2930 N 0.88656 0.69765 0.03785 0.0
N2931 N 0.85418 0.57003 0.02543 0.0
H2932 H 0.79443 0.61008 0.99101 0.0
H2933 H 0.80121 0.57676 0.00234 0.0
H2934 H 0.8687 0.55822 0.03603 0.0
H2935 H 0.83636 0.55584 0.00775 0.0
H2936 H 0.90802 0.71205 0.04864 0.0
H2937 H 0.87312 0.70892 0.02461 0.0
H2938 H 0.93093 0.69218 0.08084 0.0
H2939 H 0.93846 0.65801 0.08809 0.0
C2940 C 0.22863 0.1706 0.83228 0.0
C2941 C 0.20441 0.15563 0.80617 0.0
C2942 C 0.22624 0.19232 0.77244 0.0
C2943 C 0.24704 0.21067 0.80019 0.0
N2944 N 0.26613 0.21847 0.85756 0.0
N2945 N 0.17938 0.15189 0.75106 0.0
C2946 C 0.24815 0.19984 0.83033 0.0
C2947 C 0.20325 0.16615 0.776 0.0
N2948 N 0.2327 0.15698 0.85892 0.0
N2949 N 0.22866 0.19971 0.74249 0.0
H2950 H 0.16296 0.13165 0.75202 0.0
H2951 H 0.17488 0.16101 0.7301 0.0
H2952 H 0.24368 0.21993 0.73936 0.0
H2953 H 0.21688 0.1853 0.72089 0.0
H2954 H 0.25169 0.16525 0.87752 0.0
H2955 H 0.21844 0.13568 0.86075 0.0
H2956 H 0.26657 0.21298 0.88077 0.0
H2957 H 0.27801 0.24097 0.85709 0.0
C2958 C 0.34338 0.94061 0.33371 0.0
C2959 C 0.33256 0.95304 0.3067 0.0
C2960 C 0.29711 0.90325 0.28406 0.0
C2961 C 0.31418 0.88938 0.30539 0.0
N2962 N 0.353 0.89578 0.35293 0.0
N2963 N 0.30004 0.94544 0.25453 0.0
C2964 C 0.33724 0.90829 0.33094 0.0
C2965 C 0.30958 0.93417 0.28142 0.0
N2966 N 0.3584 0.95922 0.36233 0.0
N2967 N 0.26848 0.88782 0.2676 0.0
H2968 H 0.30765 0.96858 0.25239 0.0
H2969 H 0.28591 0.93123 0.23381 0.0
H2970 H 0.25732 0.86565 0.27014 0.0
H2971 H 0.25461 0.89842 0.25402 0.0
H2972 H 0.36281 0.95061 0.38365 0.0
H2973 H 0.36257 0.98302 0.36634 0.0
H2974 H 0.37272 0.90858 0.36916 0.0
H2975 H 0.34706 0.8725 0.3543 0.0
C2976 C 0.56753 0.40395 0.54087 0.0
C2977 C 0.58842 0.40229 0.56886 0.0
C2978 C 0.59726 0.46022 0.58358 0.0
C2979 C 0.57782 0.46229 0.55429 0.0
N2980 N 0.55053 0.43419 0.50177 0.0
N2981 N 0.6268 0.43152 0.61414 0.0
C2982 C 0.56453 0.43345 0.53229 0.0
C2983 C 0.60416 0.43128 0.58927 0.0
N2984 N 0.5497 0.37694 0.52236 0.0
N2985 N 0.60838 0.48564 0.60729 0.0
H2986 H 0.63184 0.41145 0.6197 0.0
H2987 H 0.64225 0.45157 0.62747 0.0
H2988 H 0.60459 0.50691 0.60513 0.0
H2989 H 0.61901 0.48509 0.63058 0.0
H2990 H 0.53132 0.37566 0.50419 0.0
H2991 H 0.55167 0.35552 0.52715 0.0
H2992 H 0.54275 0.41501 0.4834 0.0
H2993 H 0.54996 0.45465 0.49348 0.0
C2994 C 0.41929 0.80926 0.40174 0.0
C2995 C 0.41828 0.77899 0.40781 0.0
C2996 C 0.36979 0.75925 0.36737 0.0
C2997 C 0.37159 0.78947 0.36014 0.0
N2998 N 0.4015 0.84261 0.36777 0.0
N2999 N 0.39463 0.72462 0.39344 0.0
C3000 C 0.39745 0.81416 0.37642 0.0
C3001 C 0.39393 0.75388 0.38989 0.0
N3002 N 0.44038 0.83384 0.42148 0.0
N3003 N 0.34509 0.73541 0.35235 0.0
H3004 H 0.41162 0.72006 0.40971 0.0
H3005 H 0.37986 0.70485 0.37889 0.0
H3006 H 0.32882 0.73741 0.33347 0.0
H3007 H 0.33995 0.71384 0.35923 0.0
H3008 H 0.44003 0.85662 0.42148 0.0
H3009 H 0.45681 0.83153 0.44004 0.0
H3010 H 0.42184 0.86013 0.37495 0.0
H3011 H 0.38542 0.84843 0.35169 0.0
C3012 C 0.0603 0.69398 0.04066 0.0
C3013 C 0.07974 0.71397 0.06872 0.0
C3014 C 0.08912 0.66618 0.08803 0.0
C3015 C 0.06849 0.64618 0.06068 0.0
N3016 N 0.02928 0.64222 0.015 0.0
N3017 N 0.11174 0.71776 0.12011 0.0
C3018 C 0.05291 0.66059 0.03805 0.0
C3019 C 0.09365 0.69946 0.09265 0.0
N3020 N 0.04886 0.70692 0.01603 0.0
N3021 N 0.10549 0.65343 0.10926 0.0
H3022 H 0.11819 0.74167 0.12277 0.0
H3023 H 0.11945 0.70955 0.14066 0.0
H3024 H 0.10205 0.62973 0.10756 0.0
H3025 H 0.12367 0.66604 0.12744 0.0
H3026 H 0.03763 0.69439 0.99333 0.0
H3027 H 0.05264 0.73067 0.01757 0.0
H3028 H 0.01481 0.65055 0.99945 0.0
H3029 H 0.02196 0.61846 0.01398 0.0
C3030 C 0.08952 0.31498 0.88625 0.0
C3031 C 0.092 0.29664 0.91081 0.0
C3032 C 0.14171 0.29218 0.89888 0.0
C3033 C 0.14036 0.31266 0.87654 0.0
N3034 N 0.10971 0.33441 0.84046 0.0
N3035 N 0.11476 0.25964 0.93282 0.0
C3036 C 0.11293 0.32074 0.86721 0.0
C3037 C 0.1163 0.28249 0.91455 0.0
N3038 N 0.06625 0.3288 0.88275 0.0
N3039 N 0.16784 0.2832 0.90606 0.0
H3040 H 0.09601 0.25175 0.94394 0.0
H3041 H 0.13045 0.24662 0.93453 0.0
H3042 H 0.18606 0.28879 0.89362 0.0
H3043 H 0.1719 0.27119 0.92483 0.0
H3044 H 0.06525 0.34514 0.8678 0.0
H3045 H 0.04878 0.3256 0.89635 0.0
H3046 H 0.08927 0.33844 0.83045 0.0
H3047 H 0.1268 0.33886 0.82639 0.0
C3048 C 0.55759 0.7397 0.90107 0.0
C3049 C 0.57143 0.76887 0.92094 0.0
C3050 C 0.56804 0.74594 0.96994 0.0
C3051 C 0.54993 0.71801 0.95023 0.0
N3052 N 0.53727 0.68452 0.89861 0.0
N3053 N 0.6007 0.79754 0.97194 0.0
C3054 C 0.54833 0.71359 0.91619 0.0
C3055 C 0.58078 0.77094 0.9547 0.0
N3056 N 0.55109 0.73744 0.86815 0.0
N3057 N 0.57111 0.74913 0.00294 0.0
H3058 H 0.60982 0.81591 0.96053 0.0
H3059 H 0.61008 0.80035 0.99642 0.0
H3060 H 0.56259 0.73086 0.01467 0.0
H3061 H 0.58114 0.76995 0.01862 0.0
H3062 H 0.53728 0.71774 0.85263 0.0
H3063 H 0.55932 0.75562 0.85628 0.0
H3064 H 0.53743 0.67916 0.87393 0.0
H3065 H 0.53044 0.66527 0.9096 0.0
C3066 C 0.15578 0.80188 0.74918 0.0
C3067 C 0.13639 0.78046 0.76469 0.0
C3068 C 0.18201 0.76215 0.78193 0.0
C3069 C 0.20234 0.78428 0.76821 0.0
N3070 N 0.20246 0.81594 0.7267 0.0
N3071 N 0.13878 0.75238 0.80946 0.0
C3072 C 0.1876 0.80201 0.74888 0.0
C3073 C 0.15187 0.76449 0.78527 0.0
N3074 N 0.14484 0.8242 0.73705 0.0
N3075 N 0.18897 0.73568 0.78714 0.0
H3076 H 0.11925 0.75713 0.8163 0.0
H3077 H 0.15029 0.7422 0.82612 0.0
H3078 H 0.2046 0.72801 0.77505 0.0
H3079 H 0.17433 0.71836 0.79588 0.0
H3080 H 0.15846 0.84238 0.72855 0.0
H3081 H 0.12357 0.82731 0.74005 0.0
H3082 H 0.19186 0.8258 0.7091 0.0
H3083 H 0.22349 0.81319 0.72225 0.0
C3084 C 0.08364 0.43411 0.4641 0.0
C3085 C 0.07448 0.42972 0.42988 0.0
C3086 C 0.06686 0.48205 0.4364 0.0
C3087 C 0.06941 0.48331 0.47082 0.0
N3088 N 0.10181 0.47068 0.51393 0.0
N3089 N 0.05668 0.44989 0.38324 0.0
C3090 C 0.08394 0.46214 0.48387 0.0
C3091 C 0.06636 0.45402 0.41598 0.0
N3092 N 0.09108 0.41092 0.47814 0.0
N3093 N 0.06888 0.50817 0.42328 0.0
H3094 H 0.0572 0.43041 0.36756 0.0
H3095 H 0.04655 0.46494 0.3721 0.0
H3096 H 0.07418 0.52992 0.43724 0.0
H3097 H 0.06995 0.50891 0.39891 0.0
H3098 H 0.09366 0.41109 0.5031 0.0
H3099 H 0.09309 0.39088 0.46462 0.0
H3100 H 0.11569 0.45776 0.52339 0.0
H3101 H 0.10646 0.49278 0.52711 0.0
C3102 C 0.44441 0.29786 0.25263 0.0
C3103 C 0.45137 0.26938 0.25718 0.0
C3104 C 0.40099 0.25587 0.27758 0.0
C3105 C 0.39258 0.28242 0.26893 0.0
N3106 N 0.40479 0.32349 0.23852 0.0
N3107 N 0.42874 0.21768 0.26606 0.0
C3108 C 0.41391 0.30177 0.2536 0.0
C3109 C 0.42754 0.24747 0.26761 0.0
N3110 N 0.4672 0.32228 0.249 0.0
N3111 N 0.3837 0.23834 0.29566 0.0
H3112 H 0.44553 0.20952 0.25654 0.0
H3113 H 0.41084 0.2002 0.27018 0.0
H3114 H 0.36493 0.24388 0.30365 0.0
H3115 H 0.38986 0.22035 0.30532 0.0
H3116 H 0.46412 0.34417 0.24857 0.0
H3117 H 0.48997 0.32179 0.25068 0.0
H3118 H 0.41808 0.33659 0.22452 0.0
H3119 H 0.3825 0.32557 0.23689 0.0
C3120 C 0.62013 0.57289 0.41426 0.0
C3121 C 0.59757 0.56137 0.38559 0.0
C3122 C 0.56624 0.52782 0.41664 0.0
C3123 C 0.58565 0.54394 0.44613 0.0
N3124 N 0.63978 0.56218 0.46638 0.0
N3125 N 0.54855 0.52696 0.35954 0.0
C3126 C 0.61531 0.56121 0.44343 0.0
C3127 C 0.57041 0.53856 0.38679 0.0
N3128 N 0.646 0.59554 0.41403 0.0
N3129 N 0.54822 0.4991 0.41625 0.0
H3130 H 0.55115 0.53368 0.33715 0.0
H3131 H 0.52711 0.51239 0.35994 0.0
H3132 H 0.54993 0.48857 0.43673 0.0
H3133 H 0.53575 0.48447 0.39502 0.0
H3134 H 0.66151 0.60683 0.43518 0.0
H3135 H 0.65055 0.60475 0.39329 0.0
H3136 H 0.66239 0.57183 0.46412 0.0
H3137 H 0.63753 0.54971 0.48539 0.0
C3138 C 0.30936 0.88483 0.08417 0.0
C3139 C 0.32367 0.91648 0.08573 0.0
C3140 C 0.34671 0.9209 0.14221 0.0
C3141 C 0.33934 0.88841 0.13748 0.0
N3142 N 0.3082 0.83908 0.10866 0.0
N3143 N 0.3527 0.96604 0.11652 0.0
C3144 C 0.31824 0.8702 0.11011 0.0
C3145 C 0.34037 0.93522 0.11528 0.0
N3146 N 0.28879 0.86898 0.05702 0.0
N3147 N 0.36053 0.93777 0.17209 0.0
H3148 H 0.34749 0.97743 0.09752 0.0
H3149 H 0.36882 0.98016 0.13586 0.0
H3150 H 0.36574 0.92761 0.19212 0.0
H3151 H 0.36427 0.96151 0.17778 0.0
H3152 H 0.27694 0.84583 0.05392 0.0
H3153 H 0.28232 0.87999 0.03806 0.0
H3154 H 0.29425 0.82382 0.08864 0.0
H3155 H 0.31404 0.82846 0.12817 0.0
C3156 C 0.97944 0.54446 0.91351 0.0
C3157 C 0.95558 0.51657 0.90654 0.0
C3158 C 0.98205 0.49665 0.94879 0.0
C3159 C 1.00191 0.52665 0.96008 0.0
N3160 N 0.01745 0.58057 0.95457 0.0
N3161 N 0.9315 0.46783 0.92088 0.0
C3162 C 0.99973 0.55115 0.94317 0.0
C3163 C 0.95617 0.49297 0.925 0.0
N3164 N 0.98471 0.56322 0.89085 0.0
N3165 N 0.98705 0.472 0.96152 0.0
H3166 H 0.9108 0.46634 0.90623 0.0
H3167 H 0.93034 0.45025 0.93457 0.0
H3168 H 1.00466 0.47427 0.98052 0.0
H3169 H 0.97514 0.44927 0.95161 0.0
H3170 H 1.00359 0.58242 0.89445 0.0
H3171 H 0.9732 0.55752 0.86687 0.0
H3172 H 0.01336 0.59944 0.94493 0.0
H3173 H 0.03532 0.58644 0.9743 0.0
C3174 C 0.30047 0.28382 0.63972 0.0
C3175 C 0.28533 0.25377 0.62266 0.0
C3176 C 0.28121 0.23589 0.67542 0.0
C3177 C 0.29416 0.26675 0.69217 0.0
N3178 N 0.33167 0.31323 0.68992 0.0
N3179 N 0.2662 0.19959 0.62443 0.0
C3180 C 0.30797 0.289 0.67424 0.0
C3181 C 0.27719 0.2293 0.64061 0.0
N3182 N 0.30832 0.30758 0.62312 0.0
N3183 N 0.27355 0.21263 0.69261 0.0
H3184 H 0.26196 0.19366 0.59928 0.0
H3185 H 0.26244 0.18025 0.63556 0.0
H3186 H 0.28329 0.21445 0.71675 0.0
H3187 H 0.25876 0.19102 0.68285 0.0
H3188 H 0.31652 0.33049 0.63465 0.0
H3189 H 0.30489 0.30458 0.59783 0.0
H3190 H 0.34527 0.32842 0.67792 0.0
H3191 H 0.34026 0.31531 0.71445 0.0
C3192 C 0.61408 0.55771 0.1807 0.0
C3193 C 0.59283 0.56197 0.20151 0.0
C3194 C 0.5567 0.56406 0.15371 0.0
C3195 C 0.57605 0.55632 0.13236 0.0
N3196 N 0.62195 0.54111 0.12632 0.0
N3197 N 0.54037 0.55986 0.20529 0.0
C3198 C 0.60418 0.55129 0.14614 0.0
C3199 C 0.56309 0.5623 0.1872 0.0
N3200 N 0.64428 0.56211 0.19343 0.0
N3201 N 0.53252 0.57423 0.14236 0.0
H3202 H 0.54354 0.5566 0.2294 0.0
H3203 H 0.51756 0.55727 0.19523 0.0
H3204 H 0.52761 0.57589 0.11817 0.0
H3205 H 0.51954 0.58346 0.15724 0.0
H3206 H 0.66114 0.56235 0.17921 0.0
H3207 H 0.65339 0.56889 0.21805 0.0
H3208 H 0.64077 0.5335 0.13479 0.0
H3209 H 0.61658 0.5384 0.10119 0.0
C3210 C 0.32448 0.86633 0.9216 0.0
C3211 C 0.31203 0.89169 0.92202 0.0
C3212 C 0.28517 0.87237 0.86677 0.0
C3213 C 0.30239 0.85065 0.86489 0.0
N3214 N 0.34458 0.83233 0.88852 0.0
N3215 N 0.28547 0.92271 0.89304 0.0
C3216 C 0.32404 0.84925 0.89164 0.0
C3217 C 0.29348 0.89588 0.89414 0.0
N3218 N 0.33607 0.85813 0.94975 0.0
N3219 N 0.26094 0.87035 0.84297 0.0
H3220 H 0.29295 0.94127 0.91216 0.0
H3221 H 0.2742 0.92756 0.87195 0.0
H3222 H 0.25373 0.85252 0.82306 0.0
H3223 H 0.24647 0.88466 0.8447 0.0
H3224 H 0.3431 0.83806 0.95011 0.0
H3225 H 0.33524 0.86934 0.97264 0.0
H3226 H 0.36264 0.83358 0.90713 0.0
H3227 H 0.34493 0.81876 0.86688 0.0
C3228 C 0.98775 0.52323 0.75396 0.0
C3229 C 0.96258 0.53493 0.75821 0.0
C3230 C 0.95014 0.53428 0.70029 0.0
C3231 C 0.96919 0.51438 0.69568 0.0
N3232 N 1.00952 0.49285 0.7175 0.0
N3233 N 0.92999 0.56506 0.73886 0.0
C3234 C 0.98989 0.51057 0.72227 0.0
C3235 C 0.94731 0.54533 0.73239 0.0
N3236 N 1.00784 0.52241 0.78077 0.0
N3237 N 0.93447 0.54174 0.67394 0.0
H3238 H 0.93091 0.57591 0.76243 0.0
H3239 H 0.91671 0.57263 0.72136 0.0
H3240 H 0.93717 0.53454 0.65039 0.0
H3241 H 0.91928 0.55524 0.67503 0.0
H3242 H 0.02768 0.51534 0.77998 0.0
H3243 H 1.00547 0.53142 0.80402 0.0
H3244 H 0.02306 0.48697 0.73623 0.0
H3245 H 0.01144 0.48261 0.69466 0.0
C3246 C 0.28134 0.28196 0.42956 0.0
C3247 C 0.28682 0.25434 0.43819 0.0
C3248 C 0.30958 0.2493 0.38849 0.0
C3249 C 0.29802 0.27309 0.37691 0.0
N3250 N 0.26217 0.30342 0.3846 0.0
N3251 N 0.29863 0.20694 0.41807 0.0
C3252 C 0.28085 0.28701 0.39694 0.0
C3253 C 0.29888 0.23656 0.4155 0.0
N3254 N 0.27744 0.30408 0.45236 0.0
N3255 N 0.33129 0.23915 0.37477 0.0
H3256 H 0.28827 0.19529 0.43496 0.0
H3257 H 0.30501 0.19271 0.40048 0.0
H3258 H 0.34207 0.24951 0.35735 0.0
H3259 H 0.34144 0.22317 0.38398 0.0
H3260 H 0.27515 0.32522 0.44696 0.0
H3261 H 0.28086 0.30316 0.4771 0.0
H3262 H 0.24817 0.31255 0.39821 0.0
H3263 H 0.25703 0.30348 0.35984 0.0
C3264 C 0.37037 0.61646 0.5589 0.0
C3265 C 0.34604 0.59331 0.56576 0.0
C3266 C 0.36658 0.5528 0.54311 0.0
C3267 C 0.38878 0.57572 0.53303 0.0
N3268 N 0.41974 0.62807 0.5418 0.0
N3269 N 0.32694 0.542 0.57597 0.0
C3270 C 0.39355 0.60722 0.54493 0.0
C3271 C 0.34639 0.56223 0.56203 0.0
N3272 N 0.36998 0.64666 0.56288 0.0
N3273 N 0.36349 0.52232 0.53275 0.0
H3274 H 0.31205 0.54901 0.59001 0.0
H3275 H 0.32755 0.51933 0.57622 0.0
H3276 H 0.37839 0.51464 0.51933 0.0
H3277 H 0.34549 0.50467 0.53631 0.0
H3278 H 0.38509 0.66359 0.55423 0.0
H3279 H 0.35361 0.65488 0.57321 0.0
H3280 H 0.42576 0.65121 0.5524 0.0
H3281 H 0.43689 0.62137 0.53128 0.0
C3282 C 0.92311 0.98358 0.57436 0.0
C3283 C 0.91649 0.95228 0.55908 0.0
C3284 C 0.96909 0.96072 0.55101 0.0
C3285 C 0.97494 0.99293 0.5601 0.0
N3286 N 0.96185 0.0329 0.59306 0.0
N3287 N 0.93113 0.91548 0.52222 0.0
C3288 C 0.95282 1.00411 0.57489 0.0
C3289 C 0.93875 0.94247 0.54372 0.0
N3290 N 0.90127 0.99351 0.58811 0.0
N3291 N 0.99213 0.94669 0.55357 0.0
H3292 H 0.90851 0.90211 0.51444 0.0
H3293 H 0.94702 0.90871 0.50953 0.0
H3294 H 0.01365 0.95788 0.5674 0.0
H3295 H 0.98805 0.92284 0.54792 0.0
H3296 H 0.9033 0.01643 0.59712 0.0
H3297 H 0.88014 0.97878 0.58916 0.0
H3298 H 0.94811 0.04248 0.60646 0.0
H3299 H 0.98464 0.04609 0.59735 0.0
C3300 C 0.91602 0.1263 0.27533 0.0
C3301 C 0.9109 0.0981 0.2873 0.0
C3302 C 0.86868 0.10992 0.31131 0.0
C3303 C 0.87895 0.14064 0.30635 0.0
N3304 N 0.91068 0.17832 0.28148 0.0
N3305 N 0.88183 0.06235 0.31673 0.0
C3306 C 0.90167 0.14877 0.28703 0.0
C3307 C 0.88651 0.08924 0.30457 0.0
N3308 N 0.93439 0.1313 0.25262 0.0
N3309 N 0.84222 0.10097 0.32323 0.0
H3310 H 0.89461 0.04664 0.31307 0.0
H3311 H 0.86666 0.05653 0.33254 0.0
H3312 H 0.82901 0.11607 0.32831 0.0
H3313 H 0.83191 0.07823 0.3249 0.0
H3314 H 0.93694 0.1502 0.24072 0.0
H3315 H 0.94477 0.1149 0.24337 0.0
H3316 H 0.92958 0.18662 0.27085 0.0
H3317 H 0.8999 0.19502 0.28879 0.0
C3318 C 0.68061 0.06711 0.05058 0.0
C3319 C 0.69092 0.08901 0.07964 0.0
C3320 C 0.64823 0.11046 0.0664 0.0
C3321 C 0.63539 0.08578 0.04104 0.0
N3322 N 0.64439 0.05001 -0.00033 0.0
N3323 N 0.67577 0.12203 0.12081 0.0
C3324 C 0.65332 0.06698 0.03008 0.0
C3325 C 0.67222 0.10807 0.08937 0.0
N3326 N 0.69572 0.04536 0.04403 0.0
N3327 N 0.6367 0.13533 0.06913 0.0
H3328 H 0.68974 0.11675 0.13971 0.0
H3329 H 0.66134 0.13488 0.12846 0.0
H3330 H 0.61958 0.13754 0.05121 0.0
H3331 H 0.64664 0.15476 0.08699 0.0
H3332 H 0.68803 0.02732 0.0244 0.0
H3333 H 0.71434 0.04369 0.06038 0.0
H3334 H 0.65781 0.03793 0.98853 0.0
H3335 H 0.62411 0.05 0.98495 0.0
C3336 C 0.24819 0.47502 0.25282 0.0
C3337 C 0.26018 0.50688 0.26437 0.0
C3338 C 0.30118 0.49827 0.30189 0.0
C3339 C 0.28406 0.46702 0.29702 0.0
N3340 N 0.2461 0.42346 0.26375 0.0
N3341 N 0.30238 0.54969 0.29077 0.0
C3342 C 0.25949 0.45448 0.27048 0.0
C3343 C 0.28871 0.51871 0.28542 0.0
N3344 N 0.22569 0.46487 0.22594 0.0
N3345 N 0.32844 0.50816 0.32312 0.0
H3346 H 0.29359 0.56439 0.2775 0.0
H3347 H 0.32213 0.56083 0.30763 0.0
H3348 H 0.33792 0.49316 0.33515 0.0
H3349 H 0.34249 0.53059 0.32772 0.0
H3350 H 0.21681 0.44188 0.21511 0.0
H3351 H 0.21779 0.48005 0.21273 0.0
H3352 H 0.22646 0.41293 0.24647 0.0
H3353 H 0.25466 0.40808 0.27606 0.0
C3354 C 0.24475 0.45959 0.06856 0.0
C3355 C 0.26657 0.45747 0.04832 0.0
C3356 C 0.23659 0.4744 0.00518 0.0
C3357 C 0.21262 0.47177 0.02343 0.0
N3358 N 0.19262 0.46098 0.07181 0.0
N3359 N 0.28401 0.46234 0.99747 0.0
C3360 C 0.21649 0.46457 0.05519 0.0
C3361 C 0.26284 0.46502 0.01673 0.0
N3362 N 0.25104 0.4566 0.1004 0.0
N3363 N 0.23437 0.48636 0.97713 0.0
H3364 H 0.30451 0.45743 0.00583 0.0
H3365 H 0.28069 0.46351 0.97282 0.0
H3366 H 0.21537 0.49348 0.96803 0.0
H3367 H 0.25227 0.49171 0.96433 0.0
H3368 H 0.23744 0.46079 0.11731 0.0
H3369 H 0.27136 0.45237 0.11063 0.0
H3370 H 0.19274 0.45246 0.09352 0.0
H3371 H 0.17166 0.46466 0.06285 0.0
C3372 C 0.8762 0.90995 0.24146 0.0
C3373 C 0.89451 0.93152 0.26843 0.0
C3374 C 0.86752 0.90271 0.30578 0.0
C3375 C 0.85016 0.88017 0.27885 0.0
N3376 N 0.83073 0.8675 0.22135 0.0
N3377 N 0.90175 0.95392 0.32492 0.0
C3378 C 0.85229 0.88539 0.2467 0.0
C3379 C 0.88816 0.92972 0.30018 0.0
N3380 N 0.88203 0.9127 0.21096 0.0
N3381 N 0.86567 0.89756 0.3367 0.0
H3382 H 0.91695 0.9741 0.32171 0.0
H3383 H 0.89597 0.95532 0.34792 0.0
H3384 H 0.85091 0.87811 0.34186 0.0
H3385 H 0.88045 0.91118 0.35725 0.0
H3386 H 0.87179 0.89589 0.19058 0.0
H3387 H 0.89839 0.93136 0.20627 0.0
H3388 H 0.82898 0.87192 0.19769 0.0
H3389 H 0.81272 0.8497 0.22457 0.0
C3390 C 0.7714 0.17088 0.80416 0.0
C3391 C 0.78088 0.15688 0.777 0.0
C3392 C 0.78907 0.20314 0.75456 0.0
C3393 C 0.77948 0.21812 0.78096 0.0
N3394 N 0.75423 0.21391 0.82692 0.0
N3395 N 0.81128 0.16291 0.73565 0.0
C3396 C 0.76894 0.2015 0.80519 0.0
C3397 C 0.79553 0.17496 0.75655 0.0
N3398 N 0.76374 0.15419 0.82782 0.0
N3399 N 0.78788 0.21395 0.72602 0.0
H3400 H 0.81425 0.14093 0.73613 0.0
H3401 H 0.82307 0.17578 0.72037 0.0
H3402 H 0.77907 0.23264 0.72296 0.0
H3403 H 0.79138 0.2018 0.70485 0.0
H3404 H 0.75609 0.16237 0.84831 0.0
H3405 H 0.76756 0.13254 0.82788 0.0
H3406 H 0.74491 0.20301 0.84481 0.0
H3407 H 0.74794 0.23379 0.82384 0.0
loop_
_geom_bond_atom_site_label_1
_geom_bond_atom_site_label_2
_geom_bond_distance
_geom_bond_site_symmetry_2
_ccdc_geom_bond_type
Zn0 O3 2.031 . S
Zn0 O5 2.049 . S
Zn0 O10 2.067 1_455 S
Zn1 O2 1.962 . S
Zn1 O4 1.986 . S
Zn1 O6 1.996 . S
Zn1 O9 1.943 . S
O2 Zn1 1.962 . S
O2 C7 1.254 . S
O3 Zn0 2.031 . S
O3 C7 1.269 . S
O4 Zn1 1.986 . S
O4 C11 1.262 . S
O5 Zn0 2.049 . S
O5 C13 1.260 . S
O6 Zn1 1.996 . S
O6 C13 1.257 . S
C7 O2 1.254 . S
C7 O3 1.269 . S
C8 O9 1.249 . S
C8 O10 1.270 1_455 S
O9 Zn1 1.943 . S
O9 C8 1.249 . S
O10 Zn0 2.067 1_655 S
O10 C8 1.270 1_655 S
C11 O4 1.262 . S
C11 O12 1.232 . S
O12 C11 1.232 . S
C13 O5 1.260 . S
C13 O6 1.257 . S
Zn14 O17 2.031 1_455 S
Zn14 O19 2.049 . S
Zn14 O24 2.067 . S
Zn15 O16 1.962 1_455 S
Zn15 O18 1.986 . S
Zn15 O20 1.996 . S
Zn15 O23 1.943 . S
O16 Zn15 1.962 1_655 S
O16 C21 1.254 . S
O17 Zn14 2.031 1_655 S
O17 C21 1.269 . S
O18 Zn15 1.986 . S
O18 C25 1.262 . S
O19 Zn14 2.049 . S
O19 C27 1.260 . S
O20 Zn15 1.996 . S
O20 C27 1.257 . S
C21 O16 1.254 . S
C21 O17 1.269 . S
C22 O23 1.249 . S
C22 O24 1.270 . S
O23 Zn15 1.943 . S
O23 C22 1.249 . S
O24 Zn14 2.067 . S
O24 C22 1.270 . S
C25 O18 1.262 . S
C25 O26 1.232 . S
O26 C25 1.232 . S
C27 O19 1.260 . S
C27 O20 1.257 . S
Zn28 O31 2.031 . S
Zn28 O33 2.049 . S
Zn28 O38 2.067 . S
Zn29 O30 1.962 . S
Zn29 O32 1.986 . S
Zn29 O34 1.996 . S
Zn29 O37 1.943 . S
O30 Zn29 1.962 . S
O30 C35 1.254 . S
O31 Zn28 2.031 . S
O31 C35 1.269 . S
O32 Zn29 1.986 . S
O32 C39 1.262 . S
O33 Zn28 2.049 . S
O33 C41 1.260 . S
O34 Zn29 1.996 . S
O34 C41 1.257 . S
C35 O30 1.254 . S
C35 O31 1.269 . S
C36 O37 1.249 . S
C36 O38 1.270 . S
O37 Zn29 1.943 . S
O37 C36 1.249 . S
O38 Zn28 2.067 . S
O38 C36 1.270 . S
C39 O32 1.262 . S
C39 O40 1.232 . S
O40 C39 1.232 . S
C41 O33 1.260 . S
C41 O34 1.257 . S
Zn42 O45 2.031 . S
Zn42 O47 2.049 . S
Zn42 O52 2.067 . S
Zn43 O44 1.962 . S
Zn43 O46 1.986 . S
Zn43 O48 1.996 . S
Zn43 O51 1.943 . S
O44 Zn43 1.962 . S
O44 C49 1.254 . S
O45 Zn42 2.031 . S
O45 C49 1.269 . S
O46 Zn43 1.986 . S
O46 C53 1.262 . S
O47 Zn42 2.049 . S
O47 C55 1.260 . S
O48 Zn43 1.996 . S
O48 C55 1.257 . S
C49 O44 1.254 . S
C49 O45 1.269 . S
C50 O51 1.249 . S
C50 O52 1.270 . S
O51 Zn43 1.943 . S
O51 C50 1.249 . S
O52 Zn42 2.067 . S
O52 C50 1.270 . S
C53 O46 1.262 . S
C53 O54 1.232 . S
O54 C53 1.232 . S
C55 O47 1.260 . S
C55 O48 1.257 . S
Zn56 O59 2.031 . S
Zn56 O61 2.049 . S
Zn56 O66 2.067 . S
Zn57 O58 1.962 . S
Zn57 O60 1.986 . S
Zn57 O62 1.996 . S
Zn57 O65 1.943 . S
O58 Zn57 1.962 . S
O58 C63 1.254 . S
O59 Zn56 2.031 . S
O59 C63 1.269 . S
O60 Zn57 1.986 . S
O60 C67 1.262 . S
O61 Zn56 2.049 . S
O61 C69 1.260 . S
O62 Zn57 1.996 . S
O62 C69 1.257 . S
C63 O58 1.254 . S
C63 O59 1.269 . S
C64 O65 1.249 . S
C64 O66 1.270 . S
O65 Zn57 1.943 . S
O65 C64 1.249 . S
O66 Zn56 2.067 . S
O66 C64 1.270 . S
C67 O60 1.262 . S
C67 O68 1.232 . S
O68 C67 1.232 . S
C69 O61 1.260 . S
C69 O62 1.257 . S
Zn70 O73 2.031 . S
Zn70 O75 2.049 . S
Zn70 O80 2.067 . S
Zn71 O72 1.962 . S
Zn71 O74 1.986 . S
Zn71 O76 1.996 . S
Zn71 O79 1.943 . S
O72 Zn71 1.962 . S
O72 C77 1.254 . S
O73 Zn70 2.031 . S
O73 C77 1.269 . S
O74 Zn71 1.986 . S
O74 C81 1.262 . S
O75 Zn70 2.049 . S
O75 C83 1.260 . S
O76 Zn71 1.996 . S
O76 C83 1.257 . S
C77 O72 1.254 . S
C77 O73 1.269 . S
C78 O79 1.249 . S
C78 O80 1.270 . S
O79 Zn71 1.943 . S
O79 C78 1.249 . S
O80 Zn70 2.067 . S
O80 C78 1.270 . S
C81 O74 1.262 . S
C81 O82 1.232 . S
O82 C81 1.232 . S
C83 O75 1.260 . S
C83 O76 1.257 . S
Zn84 O87 2.031 . S
Zn84 O89 2.049 . S
Zn84 O94 2.067 . S
Zn85 O86 1.962 . S
Zn85 O88 1.986 . S
Zn85 O90 1.996 . S
Zn85 O93 1.943 . S
O86 Zn85 1.962 . S
O86 C91 1.254 . S
O87 Zn84 2.031 . S
O87 C91 1.269 . S
O88 Zn85 1.986 . S
O88 C95 1.262 . S
O89 Zn84 2.049 . S
O89 C97 1.260 . S
O90 Zn85 1.996 . S
O90 C97 1.257 . S
C91 O86 1.254 . S
C91 O87 1.269 . S
C92 O93 1.249 . S
C92 O94 1.270 . S
O93 Zn85 1.943 . S
O93 C92 1.249 . S
O94 Zn84 2.067 . S
O94 C92 1.270 . S
C95 O88 1.262 . S
C95 O96 1.232 . S
O96 C95 1.232 . S
C97 O89 1.260 . S
C97 O90 1.257 . S
Zn98 O101 2.031 1_554 S
Zn98 O103 2.049 . S
Zn98 O108 2.067 1_554 S
Zn99 O100 1.962 . S
Zn99 O102 1.986 . S
Zn99 O104 1.996 . S
Zn99 O107 1.943 1_455 S
O100 Zn99 1.962 . S
O100 C105 1.254 1_556 S
O101 Zn98 2.031 1_556 S
O101 C105 1.269 1_656 S
O102 Zn99 1.986 . S
O102 C109 1.262 . S
O103 Zn98 2.049 . S
O103 C111 1.260 . S
O104 Zn99 1.996 . S
O104 C111 1.257 1_456 S
C105 O100 1.254 1_554 S
C105 O101 1.269 1_454 S
C106 O107 1.249 . S
C106 O108 1.270 . S
O107 Zn99 1.943 1_655 S
O107 C106 1.249 . S
O108 Zn98 2.067 1_556 S
O108 C106 1.270 . S
C109 O102 1.262 . S
C109 O110 1.232 . S
O110 C109 1.232 . S
C111 O103 1.260 . S
C111 O104 1.257 1_654 S
Zn112 O115 2.031 . S
Zn112 O117 2.049 . S
Zn112 O122 2.067 . S
Zn113 O114 1.962 . S
Zn113 O116 1.986 . S
Zn113 O118 1.996 . S
Zn113 O121 1.943 1_545 S
O114 Zn113 1.962 . S
O114 C119 1.254 . S
O115 Zn112 2.031 . S
O115 C119 1.269 1_565 S
O116 Zn113 1.986 . S
O116 C123 1.262 . S
O117 Zn112 2.049 . S
O117 C125 1.260 . S
O118 Zn113 1.996 . S
O118 C125 1.257 1_545 S
C119 O114 1.254 . S
C119 O115 1.269 1_545 S
C120 O121 1.249 . S
C120 O122 1.270 . S
O121 Zn113 1.943 1_565 S
O121 C120 1.249 . S
O122 Zn112 2.067 . S
O122 C120 1.270 . S
C123 O116 1.262 . S
C123 O124 1.232 . S
O124 C123 1.232 . S
C125 O117 1.260 . S
C125 O118 1.257 1_565 S
Zn126 O129 2.031 . S
Zn126 O131 2.049 . S
Zn126 O136 2.067 . S
Zn127 O128 1.962 . S
Zn127 O130 1.986 . S
Zn127 O132 1.996 . S
Zn127 O135 1.943 . S
O128 Zn127 1.962 . S
O128 C133 1.254 . S
O129 Zn126 2.031 . S
O129 C133 1.269 . S
O130 Zn127 1.986 . S
O130 C137 1.262 . S
O131 Zn126 2.049 . S
O131 C139 1.260 . S
O132 Zn127 1.996 . S
O132 C139 1.257 . S
C133 O128 1.254 . S
C133 O129 1.269 . S
C134 O135 1.249 . S
C134 O136 1.270 . S
O135 Zn127 1.943 . S
O135 C134 1.249 . S
O136 Zn126 2.067 . S
O136 C134 1.270 . S
C137 O130 1.262 . S
C137 O138 1.232 . S
O138 C137 1.232 . S
C139 O131 1.260 . S
C139 O132 1.257 . S
Zn140 O143 2.031 . S
Zn140 O145 2.049 . S
Zn140 O150 2.067 . S
Zn141 O142 1.962 . S
Zn141 O144 1.986 . S
Zn141 O146 1.996 . S
Zn141 O149 1.943 . S
O142 Zn141 1.962 . S
O142 C147 1.254 . S
O143 Zn140 2.031 . S
O143 C147 1.269 . S
O144 Zn141 1.986 . S
O144 C151 1.262 . S
O145 Zn140 2.049 . S
O145 C153 1.260 . S
O146 Zn141 1.996 . S
O146 C153 1.257 . S
C147 O142 1.254 . S
C147 O143 1.269 . S
C148 O149 1.249 . S
C148 O150 1.270 . S
O149 Zn141 1.943 . S
O149 C148 1.249 . S
O150 Zn140 2.067 . S
O150 C148 1.270 . S
C151 O144 1.262 . S
C151 O152 1.232 . S
O152 C151 1.232 . S
C153 O145 1.260 . S
C153 O146 1.257 . S
Zn154 O157 2.031 1_554 S
Zn154 O159 2.049 . S
Zn154 O164 2.067 . S
Zn155 O156 1.962 . S
Zn155 O158 1.986 1_556 S
Zn155 O160 1.996 1_556 S
Zn155 O163 1.943 1_556 S
O156 Zn155 1.962 . S
O156 C161 1.254 . S
O157 Zn154 2.031 1_556 S
O157 C161 1.269 . S
O158 Zn155 1.986 1_554 S
O158 C165 1.262 1_554 S
O159 Zn154 2.049 . S
O159 C167 1.260 . S
O160 Zn155 1.996 1_554 S
O160 C167 1.257 . S
C161 O156 1.254 . S
C161 O157 1.269 . S
C162 O163 1.249 . S
C162 O164 1.270 . S
O163 Zn155 1.943 1_554 S
O163 C162 1.249 . S
O164 Zn154 2.067 . S
O164 C162 1.270 . S
C165 O158 1.262 1_556 S
C165 O166 1.232 . S
O166 C165 1.232 . S
C167 O159 1.260 . S
C167 O160 1.257 . S
Zn168 O171 2.031 . S
Zn168 O173 2.049 . S
Zn168 O178 2.067 . S
Zn169 O170 1.962 . S
Zn169 O172 1.986 . S
Zn169 O174 1.996 . S
Zn169 O177 1.943 . S
O170 Zn169 1.962 . S
O170 C175 1.254 1_554 S
O171 Zn168 2.031 . S
O171 C175 1.269 1_554 S
O172 Zn169 1.986 . S
O172 C179 1.262 . S
O173 Zn168 2.049 . S
O173 C181 1.260 . S
O174 Zn169 1.996 . S
O174 C181 1.257 . S
C175 O170 1.254 1_556 S
C175 O171 1.269 1_556 S
C176 O177 1.249 . S
C176 O178 1.270 . S
O177 Zn169 1.943 . S
O177 C176 1.249 . S
O178 Zn168 2.067 . S
O178 C176 1.270 . S
C179 O172 1.262 . S
C179 O180 1.232 . S
O180 C179 1.232 . S
C181 O173 1.260 . S
C181 O174 1.257 . S
Zn182 O185 2.031 . S
Zn182 O187 2.049 . S
Zn182 O192 2.067 . S
Zn183 O184 1.962 . S
Zn183 O186 1.986 . S
Zn183 O188 1.996 . S
Zn183 O191 1.943 . S
O184 Zn183 1.962 . S
O184 C189 1.254 . S
O185 Zn182 2.031 . S
O185 C189 1.269 . S
O186 Zn183 1.986 . S
O186 C193 1.262 . S
O187 Zn182 2.049 . S
O187 C195 1.260 . S
O188 Zn183 1.996 . S
O188 C195 1.257 . S
C189 O184 1.254 . S
C189 O185 1.269 . S
C190 O191 1.249 . S
C190 O192 1.270 . S
O191 Zn183 1.943 . S
O191 C190 1.249 . S
O192 Zn182 2.067 . S
O192 C190 1.270 . S
C193 O186 1.262 . S
C193 O194 1.232 . S
O194 C193 1.232 . S
C195 O187 1.260 . S
C195 O188 1.257 . S
Zn196 O199 2.031 . S
Zn196 O201 2.049 . S
Zn196 O206 2.067 . S
Zn197 O198 1.962 . S
Zn197 O200 1.986 . S
Zn197 O202 1.996 . S
Zn197 O205 1.943 . S
O198 Zn197 1.962 . S
O198 C203 1.254 . S
O199 Zn196 2.031 . S
O199 C203 1.269 . S
O200 Zn197 1.986 . S
O200 C207 1.262 . S
O201 Zn196 2.049 . S
O201 C209 1.260 . S
O202 Zn197 1.996 . S
O202 C209 1.257 . S
C203 O198 1.254 . S
C203 O199 1.269 . S
C204 O205 1.249 . S
C204 O206 1.270 . S
O205 Zn197 1.943 . S
O205 C204 1.249 . S
O206 Zn196 2.067 . S
O206 C204 1.270 . S
C207 O200 1.262 . S
C207 O208 1.232 . S
O208 C207 1.232 . S
C209 O201 1.260 . S
C209 O202 1.257 . S
Zn210 O213 2.031 . S
Zn210 O215 2.049 . S
Zn210 O220 2.067 . S
Zn211 O212 1.962 . S
Zn211 O214 1.986 . S
Zn211 O216 1.996 . S
Zn211 O219 1.943 . S
O212 Zn211 1.962 . S
O212 C217 1.254 . S
O213 Zn210 2.031 . S
O213 C217 1.269 . S
O214 Zn211 1.986 . S
O214 C221 1.262 . S
O215 Zn210 2.049 . S
O215 C223 1.260 . S
O216 Zn211 1.996 . S
O216 C223 1.257 . S
C217 O212 1.254 . S
C217 O213 1.269 . S
C218 O219 1.249 . S
C218 O220 1.270 . S
O219 Zn211 1.943 . S
O219 C218 1.249 . S
O220 Zn210 2.067 . S
O220 C218 1.270 . S
C221 O214 1.262 . S
C221 O222 1.232 . S
O222 C221 1.232 . S
C223 O215 1.260 . S
C223 O216 1.257 . S
Zn224 O227 2.031 . S
Zn224 O229 2.049 . S
Zn224 O234 2.067 . S
Zn225 O226 1.962 . S
Zn225 O228 1.986 . S
Zn225 O230 1.996 . S
Zn225 O233 1.943 1_545 S
O226 Zn225 1.962 . S
O226 C231 1.254 . S
O227 Zn224 2.031 . S
O227 C231 1.269 1_565 S
O228 Zn225 1.986 . S
O228 C235 1.262 . S
O229 Zn224 2.049 . S
O229 C237 1.260 1_565 S
O230 Zn225 1.996 . S
O230 C237 1.257 . S
C231 O226 1.254 . S
C231 O227 1.269 1_545 S
C232 O233 1.249 . S
C232 O234 1.270 . S
O233 Zn225 1.943 1_565 S
O233 C232 1.249 . S
O234 Zn224 2.067 . S
O234 C232 1.270 . S
C235 O228 1.262 . S
C235 O236 1.232 . S
O236 C235 1.232 . S
C237 O229 1.260 1_545 S
C237 O230 1.257 . S
Zn238 O241 2.031 . S
Zn238 O243 2.049 . S
Zn238 O248 2.067 . S
Zn239 O240 1.962 . S
Zn239 O242 1.986 . S
Zn239 O244 1.996 . S
Zn239 O247 1.943 . S
O240 Zn239 1.962 . S
O240 C245 1.254 . S
O241 Zn238 2.031 . S
O241 C245 1.269 . S
O242 Zn239 1.986 . S
O242 C249 1.262 . S
O243 Zn238 2.049 . S
O243 C251 1.260 . S
O244 Zn239 1.996 . S
O244 C251 1.257 . S
C245 O240 1.254 . S
C245 O241 1.269 . S
C246 O247 1.249 . S
C246 O248 1.270 . S
O247 Zn239 1.943 . S
O247 C246 1.249 . S
O248 Zn238 2.067 . S
O248 C246 1.270 . S
C249 O242 1.262 . S
C249 O250 1.232 . S
O250 C249 1.232 . S
C251 O243 1.260 . S
C251 O244 1.257 . S
Zn252 O255 2.031 . S
Zn252 O257 2.049 . S
Zn252 O262 2.067 . S
Zn253 O254 1.962 . S
Zn253 O256 1.986 . S
Zn253 O258 1.996 . S
Zn253 O261 1.943 . S
O254 Zn253 1.962 . S
O254 C259 1.254 . S
O255 Zn252 2.031 . S
O255 C259 1.269 . S
O256 Zn253 1.986 . S
O256 C263 1.262 . S
O257 Zn252 2.049 . S
O257 C265 1.260 . S
O258 Zn253 1.996 . S
O258 C265 1.257 . S
C259 O254 1.254 . S
C259 O255 1.269 . S
C260 O261 1.249 . S
C260 O262 1.270 . S
O261 Zn253 1.943 . S
O261 C260 1.249 . S
O262 Zn252 2.067 . S
O262 C260 1.270 . S
C263 O256 1.262 . S
C263 O264 1.232 . S
O264 C263 1.232 . S
C265 O257 1.260 . S
C265 O258 1.257 . S
Zn266 O269 2.031 . S
Zn266 O271 2.049 . S
Zn266 O276 2.067 . S
Zn267 O268 1.962 . S
Zn267 O270 1.986 . S
Zn267 O272 1.996 . S
Zn267 O275 1.943 . S
O268 Zn267 1.962 . S
O268 C273 1.254 . S
O269 Zn266 2.031 . S
O269 C273 1.269 . S
O270 Zn267 1.986 . S
O270 C277 1.262 . S
O271 Zn266 2.049 . S
O271 C279 1.260 . S
O272 Zn267 1.996 . S
O272 C279 1.257 . S
C273 O268 1.254 . S
C273 O269 1.269 . S
C274 O275 1.249 . S
C274 O276 1.270 . S
O275 Zn267 1.943 . S
O275 C274 1.249 . S
O276 Zn266 2.067 . S
O276 C274 1.270 . S
C277 O270 1.262 . S
C277 O278 1.232 . S
O278 C277 1.232 . S
C279 O271 1.260 . S
C279 O272 1.257 . S
Zn280 O283 2.031 1_554 S
Zn280 O285 2.049 . S
Zn280 O290 2.067 . S
Zn281 O282 1.962 1_554 S
Zn281 O284 1.986 . S
Zn281 O286 1.996 . S
Zn281 O289 1.943 . S
O282 Zn281 1.962 1_556 S
O282 C287 1.254 . S
O283 Zn280 2.031 1_556 S
O283 C287 1.269 . S
O284 Zn281 1.986 . S
O284 C291 1.262 . S
O285 Zn280 2.049 . S
O285 C293 1.260 . S
O286 Zn281 1.996 . S
O286 C293 1.257 . S
C287 O282 1.254 . S
C287 O283 1.269 . S
C288 O289 1.249 . S
C288 O290 1.270 . S
O289 Zn281 1.943 . S
O289 C288 1.249 . S
O290 Zn280 2.067 . S
O290 C288 1.270 . S
C291 O284 1.262 . S
C291 O292 1.232 1_554 S
O292 C291 1.232 1_556 S
C293 O285 1.260 . S
C293 O286 1.257 . S
Zn294 O297 2.031 . S
Zn294 O299 2.049 . S
Zn294 O304 2.067 . S
Zn295 O296 1.962 . S
Zn295 O298 1.986 . S
Zn295 O300 1.996 . S
Zn295 O303 1.943 . S
O296 Zn295 1.962 . S
O296 C301 1.254 . S
O297 Zn294 2.031 . S
O297 C301 1.269 . S
O298 Zn295 1.986 . S
O298 C305 1.262 . S
O299 Zn294 2.049 . S
O299 C307 1.260 . S
O300 Zn295 1.996 . S
O300 C307 1.257 . S
C301 O296 1.254 . S
C301 O297 1.269 . S
C302 O303 1.249 . S
C302 O304 1.270 . S
O303 Zn295 1.943 . S
O303 C302 1.249 . S
O304 Zn294 2.067 . S
O304 C302 1.270 . S
C305 O298 1.262 . S
C305 O306 1.232 . S
O306 C305 1.232 . S
C307 O299 1.260 . S
C307 O300 1.257 . S
Zn308 O311 2.031 . S
Zn308 O313 2.049 . S
Zn308 O318 2.067 . S
Zn309 O310 1.962 . S
Zn309 O312 1.986 . S
Zn309 O314 1.996 . S
Zn309 O317 1.943 . S
O310 Zn309 1.962 . S
O310 C315 1.254 . S
O311 Zn308 2.031 . S
O311 C315 1.269 . S
O312 Zn309 1.986 . S
O312 C319 1.262 . S
O313 Zn308 2.049 . S
O313 C321 1.260 . S
O314 Zn309 1.996 . S
O314 C321 1.257 . S
C315 O310 1.254 . S
C315 O311 1.269 . S
C316 O317 1.249 . S
C316 O318 1.270 . S
O317 Zn309 1.943 . S
O317 C316 1.249 . S
O318 Zn308 2.067 . S
O318 C316 1.270 . S
C319 O312 1.262 . S
C319 O320 1.232 . S
O320 C319 1.232 . S
C321 O313 1.260 . S
C321 O314 1.257 . S
Zn322 O325 2.031 . S
Zn322 O327 2.049 . S
Zn322 O332 2.067 . S
Zn323 O324 1.962 . S
Zn323 O326 1.986 . S
Zn323 O328 1.996 . S
Zn323 O331 1.943 . S
O324 Zn323 1.962 . S
O324 C329 1.254 . S
O325 Zn322 2.031 . S
O325 C329 1.269 . S
O326 Zn323 1.986 . S
O326 C333 1.262 . S
O327 Zn322 2.049 . S
O327 C335 1.260 . S
O328 Zn323 1.996 . S
O328 C335 1.257 . S
C329 O324 1.254 . S
C329 O325 1.269 . S
C330 O331 1.249 . S
C330 O332 1.270 . S
O331 Zn323 1.943 . S
O331 C330 1.249 . S
O332 Zn322 2.067 . S
O332 C330 1.270 . S
C333 O326 1.262 . S
C333 O334 1.232 . S
O334 C333 1.232 . S
C335 O327 1.260 . S
C335 O328 1.257 . S
Eu336 N365 2.600 . S
Eu336 N371 2.562 . S
Eu336 O380 2.462 . S
Eu336 O381 2.373 . S
Eu336 O383 2.432 . S
Eu336 O384 2.291 . S
Eu336 O388 2.335 . S
Eu336 O391 2.372 . S
Eu336 C400 2.787 . S
C337 N338 1.365 . S
C337 C340 1.405 . S
C337 C344 1.448 1_556 S
N338 C337 1.365 . S
N338 C341 1.319 . S
N338 Eu347 2.600 1_566 S
C339 C341 1.397 . S
C339 C342 1.367 . S
C339 H359 0.931 . S
C340 C337 1.405 . S
C340 C342 1.403 . S
C340 C346 1.439 . S
C341 N338 1.319 . S
C341 C339 1.397 . S
C341 H352 0.930 . S
C342 C339 1.367 . S
C342 C340 1.403 . S
C342 H363 0.929 . S
C343 C344 1.430 . S
C343 C345 1.387 1_554 S
C343 C349 1.404 . S
C344 C337 1.448 1_554 S
C344 C343 1.430 . S
C344 N348 1.351 . S
C345 C343 1.387 1_556 S
C345 C346 1.374 . S
C345 H360 0.931 . S
C346 C340 1.439 . S
C346 C345 1.374 . S
C346 H361 0.931 . S
Eu347 N338 2.600 1_544 S
Eu347 N348 2.562 1_545 S
Eu347 O382 2.335 1_655 S
Eu347 O385 2.372 1_654 S
Eu347 O386 2.462 . S
Eu347 O387 2.373 1_645 S
Eu347 O389 2.432 1_554 S
Eu347 O390 2.291 1_655 S
Eu347 C411 2.787 . S
N348 C344 1.351 . S
N348 Eu347 2.562 1_565 S
N348 C350 1.325 . S
C349 C343 1.404 . S
C349 C351 1.366 . S
C349 H357 0.930 . S
C350 N348 1.325 . S
C350 C351 1.416 . S
C350 H356 0.929 . S
C351 C349 1.366 . S
C351 C350 1.416 . S
C351 H353 0.930 . S
H352 C341 0.930 . S
H353 C351 0.930 . S
H354 C369 0.930 . S
H355 C376 0.930 1_556 S
H356 C350 0.929 . S
H357 C349 0.930 . S
H358 C372 0.929 . S
H359 C339 0.931 . S
H360 C345 0.931 . S
H361 C346 0.931 . S
H362 C367 0.931 . S
H363 C342 0.929 . S
H364 C375 0.930 . S
N365 Eu336 2.600 . S
N365 C366 1.365 . S
N365 C369 1.319 . S
C366 N365 1.365 . S
C366 C368 1.405 . S
C366 C374 1.448 . S
C367 H362 0.931 . S
C367 C369 1.397 . S
C367 C370 1.367 . S
C368 C366 1.405 . S
C368 C370 1.403 . S
C368 C401 1.439 . S
C369 H354 0.930 . S
C369 N365 1.319 . S
C369 C367 1.397 . S
C370 C367 1.367 . S
C370 C368 1.403 . S
C370 H377 0.929 . S
N371 Eu336 2.562 . S
N371 C372 1.325 . S
N371 C374 1.351 . S
C372 H358 0.929 . S
C372 N371 1.325 . S
C372 C376 1.416 . S
C373 C374 1.430 . S
C373 C375 1.404 . S
C373 C402 1.387 . S
C374 C366 1.448 . S
C374 N371 1.351 . S
C374 C373 1.430 . S
C375 H364 0.930 . S
C375 C373 1.404 . S
C375 C376 1.366 . S
C376 H355 0.930 1_554 S
C376 C372 1.416 . S
C376 C375 1.366 . S
H377 C370 0.929 . S
H378 C401 0.931 . S
H379 C402 0.931 . S
O380 Eu336 2.462 . S
O380 C400 1.252 . S
O381 Eu336 2.373 . S
O381 C392 1.249 . S
O382 Eu347 2.335 1_455 S
O382 C392 1.264 . S
O383 Eu336 2.432 . S
O383 C400 1.268 . S
O384 Eu336 2.291 . S
O384 C399 1.255 1_554 S
O385 Eu347 2.372 1_456 S
O385 C399 1.257 . S
O386 Eu347 2.462 . S
O386 C411 1.252 . S
O387 Eu347 2.373 1_465 S
O387 C403 1.249 . S
O388 Eu336 2.335 . S
O388 C403 1.264 1_545 S
O389 Eu347 2.432 1_556 S
O389 C411 1.268 1_556 S
O390 Eu347 2.291 1_455 S
O390 C410 1.255 . S
O391 Eu336 2.372 . S
O391 C410 1.257 . S
C392 O381 1.249 . S
C392 O382 1.264 . S
C393 C396 1.382 . S
C393 C398 1.390 . S
C393 C400 1.506 . S
C394 C395 1.398 . S
C394 C398 1.392 . S
C395 C394 1.398 . S
C395 C397 1.372 . S
C395 H412 0.931 . S
C396 C393 1.382 . S
C396 C397 1.390 . S
C396 H413 0.931 . S
C397 C395 1.372 . S
C397 C396 1.390 . S
C397 H414 0.929 . S
C398 C393 1.390 . S
C398 C394 1.392 . S
C398 H415 0.930 . S
C399 O384 1.255 1_556 S
C399 O385 1.257 . S
C400 Eu336 2.787 . S
C400 O380 1.252 . S
C400 O383 1.268 . S
C400 C393 1.506 . S
C401 C368 1.439 . S
C401 H378 0.931 . S
C401 C402 1.374 . S
C402 C373 1.387 . S
C402 H379 0.931 . S
C402 C401 1.374 . S
C403 O387 1.249 . S
C403 O388 1.264 1_565 S
C404 C407 1.382 1_554 S
C404 C408 1.390 . S
C404 C411 1.506 . S
C405 C406 1.398 1_554 S
C405 C408 1.392 . S
C406 C405 1.398 1_556 S
C406 C409 1.372 . S
C406 H416 0.931 . S
C407 C404 1.382 1_556 S
C407 C409 1.390 . S
C407 H417 0.931 . S
C408 C404 1.390 . S
C408 C405 1.392 . S
C408 H418 0.930 . S
C409 C406 1.372 . S
C409 C407 1.390 . S
C409 H419 0.929 . S
C410 O390 1.255 . S
C410 O391 1.257 . S
C411 Eu347 2.787 . S
C411 O386 1.252 . S
C411 O389 1.268 1_554 S
C411 C404 1.506 . S
H412 C395 0.931 . S
H413 C396 0.931 . S
H414 C397 0.929 . S
H415 C398 0.930 . S
H416 C406 0.931 . S
H417 C407 0.931 . S
H418 C408 0.930 . S
H419 C409 0.929 . S
Eu420 N449 2.600 . S
Eu420 N455 2.562 . S
Eu420 O464 2.462 . S
Eu420 O465 2.373 . S
Eu420 O467 2.432 . S
Eu420 O468 2.291 . S
Eu420 O472 2.335 . S
Eu420 O475 2.372 . S
Eu420 C484 2.787 . S
C421 N422 1.365 . S
C421 C424 1.405 . S
C421 C428 1.448 . S
N422 C421 1.365 . S
N422 C425 1.319 . S
N422 Eu431 2.600 . S
C423 C425 1.397 . S
C423 C426 1.367 . S
C423 H443 0.931 . S
C424 C421 1.405 . S
C424 C426 1.403 . S
C424 C430 1.439 . S
C425 N422 1.319 . S
C425 C423 1.397 . S
C425 H436 0.930 . S
C426 C423 1.367 . S
C426 C424 1.403 . S
C426 H447 0.929 . S
C427 C428 1.430 . S
C427 C429 1.387 . S
C427 C433 1.404 . S
C428 C421 1.448 . S
C428 C427 1.430 . S
C428 N432 1.351 . S
C429 C427 1.387 . S
C429 C430 1.374 . S
C429 H444 0.931 . S
C430 C424 1.439 . S
C430 C429 1.374 . S
C430 H445 0.931 . S
Eu431 N422 2.600 . S
Eu431 N432 2.562 . S
Eu431 O466 2.335 . S
Eu431 O469 2.372 . S
Eu431 O470 2.462 . S
Eu431 O471 2.373 . S
Eu431 O473 2.432 . S
Eu431 O474 2.291 . S
Eu431 C495 2.787 . S
N432 C428 1.351 . S
N432 Eu431 2.562 . S
N432 C434 1.325 . S
C433 C427 1.404 . S
C433 C435 1.366 . S
C433 H441 0.930 . S
C434 N432 1.325 . S
C434 C435 1.416 . S
C434 H440 0.929 . S
C435 C433 1.366 . S
C435 C434 1.416 . S
C435 H437 0.930 . S
H436 C425 0.930 . S
H437 C435 0.930 . S
H438 C453 0.930 . S
H439 C460 0.930 . S
H440 C434 0.929 . S
H441 C433 0.930 . S
H442 C456 0.929 . S
H443 C423 0.931 . S
H444 C429 0.931 . S
H445 C430 0.931 . S
H446 C451 0.931 . S
H447 C426 0.929 . S
H448 C459 0.930 . S
N449 Eu420 2.600 . S
N449 C450 1.365 . S
N449 C453 1.319 . S
C450 N449 1.365 . S
C450 C452 1.405 . S
C450 C458 1.448 . S
C451 H446 0.931 . S
C451 C453 1.397 . S
C451 C454 1.367 . S
C452 C450 1.405 . S
C452 C454 1.403 . S
C452 C485 1.439 . S
C453 H438 0.930 . S
C453 N449 1.319 . S
C453 C451 1.397 . S
C454 C451 1.367 . S
C454 C452 1.403 . S
C454 H461 0.929 . S
N455 Eu420 2.562 . S
N455 C456 1.325 . S
N455 C458 1.351 . S
C456 H442 0.929 . S
C456 N455 1.325 . S
C456 C460 1.416 . S
C457 C458 1.430 . S
C457 C459 1.404 . S
C457 C486 1.387 . S
C458 C450 1.448 . S
C458 N455 1.351 . S
C458 C457 1.430 . S
C459 H448 0.930 . S
C459 C457 1.404 . S
C459 C460 1.366 . S
C460 H439 0.930 . S
C460 C456 1.416 . S
C460 C459 1.366 . S
H461 C454 0.929 . S
H462 C485 0.931 . S
H463 C486 0.931 . S
O464 Eu420 2.462 . S
O464 C484 1.252 . S
O465 Eu420 2.373 . S
O465 C476 1.249 . S
O466 Eu431 2.335 . S
O466 C476 1.264 . S
O467 Eu420 2.432 . S
O467 C484 1.268 . S
O468 Eu420 2.291 . S
O468 C483 1.255 . S
O469 Eu431 2.372 . S
O469 C483 1.257 . S
O470 Eu431 2.462 . S
O470 C495 1.252 . S
O471 Eu431 2.373 . S
O471 C487 1.249 . S
O472 Eu420 2.335 . S
O472 C487 1.264 . S
O473 Eu431 2.432 . S
O473 C495 1.268 . S
O474 Eu431 2.291 . S
O474 C494 1.255 . S
O475 Eu420 2.372 . S
O475 C494 1.257 . S
C476 O465 1.249 . S
C476 O466 1.264 . S
C477 C480 1.382 . S
C477 C482 1.390 . S
C477 C484 1.506 . S
C478 C479 1.398 . S
C478 C482 1.392 . S
C479 C478 1.398 . S
C479 C481 1.372 . S
C479 H496 0.931 . S
C480 C477 1.382 . S
C480 C481 1.390 . S
C480 H497 0.931 . S
C481 C479 1.372 . S
C481 C480 1.390 . S
C481 H498 0.929 . S
C482 C477 1.390 . S
C482 C478 1.392 . S
C482 H499 0.930 . S
C483 O468 1.255 . S
C483 O469 1.257 . S
C484 Eu420 2.787 . S
C484 O464 1.252 . S
C484 O467 1.268 . S
C484 C477 1.506 . S
C485 C452 1.439 . S
C485 H462 0.931 . S
C485 C486 1.374 . S
C486 C457 1.387 . S
C486 H463 0.931 . S
C486 C485 1.374 . S
C487 O471 1.249 . S
C487 O472 1.264 . S
C488 C491 1.382 . S
C488 C492 1.390 . S
C488 C495 1.506 . S
C489 C490 1.398 . S
C489 C492 1.392 . S
C490 C489 1.398 . S
C490 C493 1.372 . S
C490 H500 0.931 . S
C491 C488 1.382 . S
C491 C493 1.390 . S
C491 H501 0.931 . S
C492 C488 1.390 . S
C492 C489 1.392 . S
C492 H502 0.930 . S
C493 C490 1.372 . S
C493 C491 1.390 . S
C493 H503 0.929 . S
C494 O474 1.255 . S
C494 O475 1.257 . S
C495 Eu431 2.787 . S
C495 O470 1.252 . S
C495 O473 1.268 . S
C495 C488 1.506 . S
H496 C479 0.931 . S
H497 C480 0.931 . S
H498 C481 0.929 . S
H499 C482 0.930 . S
H500 C490 0.931 . S
H501 C491 0.931 . S
H502 C492 0.930 . S
H503 C493 0.929 . S
Eu504 N533 2.600 . S
Eu504 N539 2.562 1_545 S
Eu504 O548 2.462 . S
Eu504 O549 2.373 1_545 S
Eu504 O551 2.432 . S
Eu504 O552 2.291 . S
Eu504 O556 2.335 . S
Eu504 O559 2.372 . S
Eu504 C568 2.787 . S
C505 N506 1.365 . S
C505 C508 1.405 . S
C505 C512 1.448 . S
N506 C505 1.365 . S
N506 C509 1.319 . S
N506 Eu515 2.600 . S
C507 C509 1.397 . S
C507 C510 1.367 . S
C507 H527 0.931 . S
C508 C505 1.405 . S
C508 C510 1.403 . S
C508 C514 1.439 . S
C509 N506 1.319 . S
C509 C507 1.397 . S
C509 H520 0.930 . S
C510 C507 1.367 . S
C510 C508 1.403 . S
C510 H531 0.929 . S
C511 C512 1.430 . S
C511 C513 1.387 . S
C511 C517 1.404 . S
C512 C505 1.448 . S
C512 C511 1.430 . S
C512 N516 1.351 . S
C513 C511 1.387 . S
C513 C514 1.374 . S
C513 H528 0.931 . S
C514 C508 1.439 . S
C514 C513 1.374 . S
C514 H529 0.931 . S
Eu515 N506 2.600 . S
Eu515 N516 2.562 . S
Eu515 O550 2.335 1_545 S
Eu515 O553 2.372 . S
Eu515 O554 2.462 . S
Eu515 O555 2.373 . S
Eu515 O557 2.432 . S
Eu515 O558 2.291 . S
Eu515 C579 2.787 . S
N516 C512 1.351 . S
N516 Eu515 2.562 . S
N516 C518 1.325 . S
C517 C511 1.404 . S
C517 C519 1.366 . S
C517 H525 0.930 . S
C518 N516 1.325 . S
C518 C519 1.416 . S
C518 H524 0.929 . S
C519 C517 1.366 . S
C519 C518 1.416 . S
C519 H521 0.930 . S
H520 C509 0.930 . S
H521 C519 0.930 . S
H522 C537 0.930 . S
H523 C544 0.930 . S
H524 C518 0.929 . S
H525 C517 0.930 . S
H526 C540 0.929 . S
H527 C507 0.931 . S
H528 C513 0.931 . S
H529 C514 0.931 . S
H530 C535 0.931 . S
H531 C510 0.929 . S
H532 C543 0.930 . S
N533 Eu504 2.600 . S
N533 C534 1.365 1_545 S
N533 C537 1.319 . S
C534 N533 1.365 1_565 S
C534 C536 1.405 . S
C534 C542 1.448 . S
C535 H530 0.931 . S
C535 C537 1.397 1_565 S
C535 C538 1.367 . S
C536 C534 1.405 . S
C536 C538 1.403 . S
C536 C569 1.439 . S
C537 H522 0.930 . S
C537 N533 1.319 . S
C537 C535 1.397 1_545 S
C538 C535 1.367 . S
C538 C536 1.403 . S
C538 H545 0.929 . S
N539 Eu504 2.562 1_565 S
N539 C540 1.325 . S
N539 C542 1.351 . S
C540 H526 0.929 . S
C540 N539 1.325 . S
C540 C544 1.416 . S
C541 C542 1.430 . S
C541 C543 1.404 . S
C541 C570 1.387 . S
C542 C534 1.448 . S
C542 N539 1.351 . S
C542 C541 1.430 . S
C543 H532 0.930 . S
C543 C541 1.404 . S
C543 C544 1.366 . S
C544 H523 0.930 . S
C544 C540 1.416 . S
C544 C543 1.366 . S
H545 C538 0.929 . S
H546 C569 0.931 . S
H547 C570 0.931 . S
O548 Eu504 2.462 . S
O548 C568 1.252 . S
O549 Eu504 2.373 1_565 S
O549 C560 1.249 . S
O550 Eu515 2.335 1_565 S
O550 C560 1.264 . S
O551 Eu504 2.432 . S
O551 C568 1.268 . S
O552 Eu504 2.291 . S
O552 C567 1.255 . S
O553 Eu515 2.372 . S
O553 C567 1.257 . S
O554 Eu515 2.462 . S
O554 C579 1.252 . S
O555 Eu515 2.373 . S
O555 C571 1.249 . S
O556 Eu504 2.335 . S
O556 C571 1.264 . S
O557 Eu515 2.432 . S
O557 C579 1.268 . S
O558 Eu515 2.291 . S
O558 C578 1.255 . S
O559 Eu504 2.372 . S
O559 C578 1.257 . S
C560 O549 1.249 . S
C560 O550 1.264 . S
C561 C564 1.382 . S
C561 C566 1.390 . S
C561 C568 1.506 . S
C562 C563 1.398 . S
C562 C566 1.392 . S
C563 C562 1.398 . S
C563 C565 1.372 . S
C563 H580 0.931 . S
C564 C561 1.382 . S
C564 C565 1.390 . S
C564 H581 0.931 . S
C565 C563 1.372 . S
C565 C564 1.390 . S
C565 H582 0.929 . S
C566 C561 1.390 . S
C566 C562 1.392 . S
C566 H583 0.930 . S
C567 O552 1.255 . S
C567 O553 1.257 . S
C568 Eu504 2.787 . S
C568 O548 1.252 . S
C568 O551 1.268 . S
C568 C561 1.506 . S
C569 C536 1.439 . S
C569 H546 0.931 . S
C569 C570 1.374 . S
C570 C541 1.387 . S
C570 H547 0.931 . S
C570 C569 1.374 . S
C571 O555 1.249 . S
C571 O556 1.264 . S
C572 C575 1.382 . S
C572 C576 1.390 . S
C572 C579 1.506 1_565 S
C573 C574 1.398 . S
C573 C576 1.392 . S
C574 C573 1.398 . S
C574 C577 1.372 . S
C574 H584 0.931 . S
C575 C572 1.382 . S
C575 C577 1.390 . S
C575 H585 0.931 . S
C576 C572 1.390 . S
C576 C573 1.392 . S
C576 H586 0.930 . S
C577 C574 1.372 . S
C577 C575 1.390 . S
C577 H587 0.929 . S
C578 O558 1.255 . S
C578 O559 1.257 . S
C579 Eu515 2.787 . S
C579 O554 1.252 . S
C579 O557 1.268 . S
C579 C572 1.506 1_545 S
H580 C563 0.931 . S
H581 C564 0.931 . S
H582 C565 0.929 . S
H583 C566 0.930 . S
H584 C574 0.931 . S
H585 C575 0.931 . S
H586 C576 0.930 . S
H587 C577 0.929 . S
Eu588 N617 2.600 . S
Eu588 N623 2.562 . S
Eu588 O632 2.462 . S
Eu588 O633 2.373 . S
Eu588 O635 2.432 . S
Eu588 O636 2.291 . S
Eu588 O640 2.335 . S
Eu588 O643 2.372 . S
Eu588 C652 2.787 . S
C589 N590 1.365 . S
C589 C592 1.405 . S
C589 C596 1.448 . S
N590 C589 1.365 . S
N590 C593 1.319 . S
N590 Eu599 2.600 . S
C591 C593 1.397 . S
C591 C594 1.367 . S
C591 H611 0.931 . S
C592 C589 1.405 . S
C592 C594 1.403 . S
C592 C598 1.439 . S
C593 N590 1.319 . S
C593 C591 1.397 . S
C593 H604 0.930 . S
C594 C591 1.367 . S
C594 C592 1.403 . S
C594 H615 0.929 . S
C595 C596 1.430 . S
C595 C597 1.387 . S
C595 C601 1.404 . S
C596 C589 1.448 . S
C596 C595 1.430 . S
C596 N600 1.351 . S
C597 C595 1.387 . S
C597 C598 1.374 . S
C597 H612 0.931 . S
C598 C592 1.439 . S
C598 C597 1.374 . S
C598 H613 0.931 . S
Eu599 N590 2.600 . S
Eu599 N600 2.562 . S
Eu599 O634 2.335 . S
Eu599 O637 2.372 . S
Eu599 O638 2.462 . S
Eu599 O639 2.373 . S
Eu599 O641 2.432 . S
Eu599 O642 2.291 . S
Eu599 C663 2.787 . S
N600 C596 1.351 . S
N600 Eu599 2.562 . S
N600 C602 1.325 . S
C601 C595 1.404 . S
C601 C603 1.366 . S
C601 H609 0.930 . S
C602 N600 1.325 . S
C602 C603 1.416 . S
C602 H608 0.929 . S
C603 C601 1.366 . S
C603 C602 1.416 . S
C603 H605 0.930 . S
H604 C593 0.930 . S
H605 C603 0.930 . S
H606 C621 0.930 . S
H607 C628 0.930 . S
H608 C602 0.929 . S
H609 C601 0.930 . S
H610 C624 0.929 . S
H611 C591 0.931 . S
H612 C597 0.931 . S
H613 C598 0.931 . S
H614 C619 0.931 . S
H615 C594 0.929 . S
H616 C627 0.930 . S
N617 Eu588 2.600 . S
N617 C618 1.365 . S
N617 C621 1.319 . S
C618 N617 1.365 . S
C618 C620 1.405 . S
C618 C626 1.448 . S
C619 H614 0.931 . S
C619 C621 1.397 . S
C619 C622 1.367 . S
C620 C618 1.405 . S
C620 C622 1.403 . S
C620 C653 1.439 . S
C621 H606 0.930 . S
C621 N617 1.319 . S
C621 C619 1.397 . S
C622 C619 1.367 . S
C622 C620 1.403 . S
C622 H629 0.929 . S
N623 Eu588 2.562 . S
N623 C624 1.325 . S
N623 C626 1.351 . S
C624 H610 0.929 . S
C624 N623 1.325 . S
C624 C628 1.416 . S
C625 C626 1.430 . S
C625 C627 1.404 . S
C625 C654 1.387 . S
C626 C618 1.448 . S
C626 N623 1.351 . S
C626 C625 1.430 . S
C627 H616 0.930 . S
C627 C625 1.404 . S
C627 C628 1.366 . S
C628 H607 0.930 . S
C628 C624 1.416 . S
C628 C627 1.366 . S
H629 C622 0.929 . S
H630 C653 0.931 . S
H631 C654 0.931 . S
O632 Eu588 2.462 . S
O632 C652 1.252 . S
O633 Eu588 2.373 . S
O633 C644 1.249 . S
O634 Eu599 2.335 . S
O634 C644 1.264 . S
O635 Eu588 2.432 . S
O635 C652 1.268 . S
O636 Eu588 2.291 . S
O636 C651 1.255 . S
O637 Eu599 2.372 . S
O637 C651 1.257 . S
O638 Eu599 2.462 . S
O638 C663 1.252 . S
O639 Eu599 2.373 . S
O639 C655 1.249 . S
O640 Eu588 2.335 . S
O640 C655 1.264 . S
O641 Eu599 2.432 . S
O641 C663 1.268 . S
O642 Eu599 2.291 . S
O642 C662 1.255 . S
O643 Eu588 2.372 . S
O643 C662 1.257 . S
C644 O633 1.249 . S
C644 O634 1.264 . S
C645 C648 1.382 . S
C645 C650 1.390 . S
C645 C652 1.506 . S
C646 C647 1.398 . S
C646 C650 1.392 . S
C647 C646 1.398 . S
C647 C649 1.372 . S
C647 H664 0.931 . S
C648 C645 1.382 . S
C648 C649 1.390 . S
C648 H665 0.931 . S
C649 C647 1.372 . S
C649 C648 1.390 . S
C649 H666 0.929 . S
C650 C645 1.390 . S
C650 C646 1.392 . S
C650 H667 0.930 . S
C651 O636 1.255 . S
C651 O637 1.257 . S
C652 Eu588 2.787 . S
C652 O632 1.252 . S
C652 O635 1.268 . S
C652 C645 1.506 . S
C653 C620 1.439 . S
C653 H630 0.931 . S
C653 C654 1.374 . S
C654 C625 1.387 . S
C654 H631 0.931 . S
C654 C653 1.374 . S
C655 O639 1.249 . S
C655 O640 1.264 . S
C656 C659 1.382 . S
C656 C660 1.390 . S
C656 C663 1.506 . S
C657 C658 1.398 . S
C657 C660 1.392 . S
C658 C657 1.398 . S
C658 C661 1.372 . S
C658 H668 0.931 . S
C659 C656 1.382 . S
C659 C661 1.390 . S
C659 H669 0.931 . S
C660 C656 1.390 . S
C660 C657 1.392 . S
C660 H670 0.930 . S
C661 C658 1.372 . S
C661 C659 1.390 . S
C661 H671 0.929 . S
C662 O642 1.255 . S
C662 O643 1.257 . S
C663 Eu599 2.787 . S
C663 O638 1.252 . S
C663 O641 1.268 . S
C663 C656 1.506 . S
H664 C647 0.931 . S
H665 C648 0.931 . S
H666 C649 0.929 . S
H667 C650 0.930 . S
H668 C658 0.931 . S
H669 C659 0.931 . S
H670 C660 0.930 . S
H671 C661 0.929 . S
Eu672 N701 2.588 1_545 S
Eu672 N707 2.541 1_545 S
Eu672 O716 2.435 1_545 S
Eu672 O717 2.392 . S
Eu672 O719 2.406 1_545 S
Eu672 O720 2.302 . S
Eu672 O724 2.346 . S
Eu672 O727 2.393 . S
Eu672 C736 2.757 1_545 S
C673 N674 1.365 1_455 S
C673 C676 1.405 1_455 S
C673 C680 1.448 . S
N674 C673 1.365 1_655 S
N674 C677 1.319 . S
N674 Eu683 2.600 1_655 S
C675 C677 1.397 . S
C675 C678 1.367 . S
C675 H695 0.931 . S
C676 C673 1.405 1_655 S
C676 C678 1.403 . S
C676 C682 1.439 1_655 S
C677 N674 1.319 . S
C677 C675 1.397 . S
C677 H688 0.930 . S
C678 C675 1.367 . S
C678 C676 1.403 . S
C678 H699 0.929 . S
C679 C680 1.430 . S
C679 C681 1.387 . S
C679 C685 1.404 . S
C680 C673 1.448 . S
C680 C679 1.430 . S
C680 N684 1.351 . S
C681 C679 1.387 . S
C681 C682 1.374 . S
C681 H696 0.931 . S
C682 C676 1.439 1_455 S
C682 C681 1.374 . S
C682 H697 0.931 . S
Eu683 N674 2.600 1_455 S
Eu683 N684 2.562 . S
Eu683 O718 2.335 . S
Eu683 O721 2.372 1_455 S
Eu683 O722 2.462 . S
Eu683 O723 2.373 . S
Eu683 O725 2.432 1_455 S
Eu683 O726 2.291 . S
Eu683 C747 2.787 . S
N684 C680 1.351 . S
N684 Eu683 2.562 . S
N684 C686 1.325 . S
C685 C679 1.404 . S
C685 C687 1.366 . S
C685 H693 0.930 . S
C686 N684 1.325 . S
C686 C687 1.416 . S
C686 H692 0.929 . S
C687 C685 1.366 . S
C687 C686 1.416 . S
C687 H689 0.930 . S
H688 C677 0.930 . S
H689 C687 0.930 . S
H690 C705 0.930 1_545 S
H691 C712 0.930 . S
H692 C686 0.929 . S
H693 C685 0.930 . S
H694 C708 0.929 . S
H695 C675 0.931 . S
H696 C681 0.931 . S
H697 C682 0.931 . S
H698 C703 0.931 1_545 S
H699 C678 0.929 . S
H700 C711 0.930 . S
N701 Eu672 2.588 1_565 S
N701 C702 1.365 . S
N701 C705 1.319 . S
C702 N701 1.365 . S
C702 C704 1.405 . S
C702 C710 1.448 . S
C703 H698 0.931 1_565 S
C703 C705 1.397 . S
C703 C706 1.367 . S
C704 C702 1.405 . S
C704 C706 1.403 . S
C704 C737 1.439 . S
C705 H690 0.930 1_565 S
C705 N701 1.319 . S
C705 C703 1.397 . S
C706 C703 1.367 . S
C706 C704 1.403 . S
C706 H713 0.929 . S
N707 Eu672 2.541 1_565 S
N707 C708 1.325 1_455 S
N707 C710 1.351 . S
C708 H694 0.929 . S
C708 N707 1.325 1_655 S
C708 C712 1.416 . S
C709 C710 1.430 . S
C709 C711 1.404 1_455 S
C709 C738 1.387 . S
C710 C702 1.448 . S
C710 N707 1.351 . S
C710 C709 1.430 . S
C711 H700 0.930 . S
C711 C709 1.404 1_655 S
C711 C712 1.366 . S
C712 H691 0.930 . S
C712 C708 1.416 . S
C712 C711 1.366 . S
H713 C706 0.929 . S
H714 C737 0.931 . S
H715 C738 0.931 . S
O716 Eu672 2.435 1_565 S
O716 C736 1.252 . S
O717 Eu672 2.392 . S
O717 C728 1.249 . S
O718 Eu683 2.335 . S
O718 C728 1.264 . S
O719 Eu672 2.406 1_565 S
O719 C736 1.268 . S
O720 Eu672 2.302 . S
O720 C735 1.255 1_455 S
O721 Eu683 2.372 1_655 S
O721 C735 1.257 . S
O722 Eu683 2.462 . S
O722 C747 1.252 . S
O723 Eu683 2.373 . S
O723 C739 1.249 . S
O724 Eu672 2.346 . S
O724 C739 1.264 . S
O725 Eu683 2.432 1_655 S
O725 C747 1.268 1_655 S
O726 Eu683 2.291 . S
O726 C746 1.255 . S
O727 Eu672 2.393 . S
O727 C746 1.257 . S
C728 O717 1.249 . S
C728 O718 1.264 . S
C729 C732 1.382 . S
C729 C734 1.390 . S
C729 C736 1.506 . S
C730 C731 1.398 . S
C730 C734 1.392 . S
C731 C730 1.398 . S
C731 C733 1.372 . S
C731 H748 0.931 . S
C732 C729 1.382 . S
C732 C733 1.390 . S
C732 H749 0.931 . S
C733 C731 1.372 . S
C733 C732 1.390 . S
C733 H750 0.929 . S
C734 C729 1.390 . S
C734 C730 1.392 . S
C734 H751 0.930 . S
C735 O720 1.255 1_655 S
C735 O721 1.257 . S
C736 Eu672 2.757 1_565 S
C736 O716 1.252 . S
C736 O719 1.268 . S
C736 C729 1.506 . S
C737 C704 1.439 . S
C737 H714 0.931 . S
C737 C738 1.374 . S
C738 C709 1.387 . S
C738 H715 0.931 . S
C738 C737 1.374 . S
C739 O723 1.249 . S
C739 O724 1.264 . S
C740 C743 1.382 1_455 S
C740 C744 1.390 . S
C740 C747 1.506 . S
C741 C742 1.422 . S
C741 C744 1.392 . S
C742 C741 1.422 . S
C742 C745 1.356 1_455 S
C742 H752 0.923 1_455 S
C743 C740 1.382 1_655 S
C743 C745 1.390 . S
C743 H753 0.931 . S
C744 C740 1.390 . S
C744 C741 1.392 . S
C744 H754 0.930 . S
C745 C742 1.356 1_655 S
C745 C743 1.390 . S
C745 H755 0.929 . S
C746 O726 1.255 . S
C746 O727 1.257 . S
C747 Eu683 2.787 . S
C747 O722 1.252 . S
C747 O725 1.268 1_455 S
C747 C740 1.506 . S
H748 C731 0.931 . S
H749 C732 0.931 . S
H750 C733 0.929 . S
H751 C734 0.930 . S
H752 C742 0.923 1_655 S
H753 C743 0.931 . S
H754 C744 0.930 . S
H755 C745 0.929 . S
Eu756 N785 2.600 . S
Eu756 N791 2.562 . S
Eu756 O800 2.462 . S
Eu756 O801 2.373 . S
Eu756 O803 2.432 . S
Eu756 O804 2.291 . S
Eu756 O808 2.335 . S
Eu756 O811 2.372 . S
Eu756 C820 2.787 . S
C757 N758 1.365 . S
C757 C760 1.405 . S
C757 C764 1.448 . S
N758 C757 1.365 . S
N758 C761 1.319 . S
N758 Eu767 2.600 . S
C759 C761 1.397 . S
C759 C762 1.367 . S
C759 H779 0.931 . S
C760 C757 1.405 . S
C760 C762 1.403 . S
C760 C766 1.439 . S
C761 N758 1.319 . S
C761 C759 1.397 . S
C761 H772 0.930 . S
C762 C759 1.367 . S
C762 C760 1.403 . S
C762 H783 0.929 . S
C763 C764 1.430 . S
C763 C765 1.387 . S
C763 C769 1.404 . S
C764 C757 1.448 . S
C764 C763 1.430 . S
C764 N768 1.351 . S
C765 C763 1.387 . S
C765 C766 1.374 . S
C765 H780 0.931 . S
C766 C760 1.439 . S
C766 C765 1.374 . S
C766 H781 0.931 . S
Eu767 N758 2.600 . S
Eu767 N768 2.562 . S
Eu767 O802 2.335 . S
Eu767 O805 2.372 . S
Eu767 O806 2.462 . S
Eu767 O807 2.373 . S
Eu767 O809 2.432 . S
Eu767 O810 2.291 . S
Eu767 C831 2.787 . S
N768 C764 1.351 . S
N768 Eu767 2.562 . S
N768 C770 1.325 . S
C769 C763 1.404 . S
C769 C771 1.366 . S
C769 H777 0.930 . S
C770 N768 1.325 . S
C770 C771 1.416 . S
C770 H776 0.929 . S
C771 C769 1.366 . S
C771 C770 1.416 . S
C771 H773 0.930 . S
H772 C761 0.930 . S
H773 C771 0.930 . S
H774 C789 0.930 . S
H775 C796 0.930 . S
H776 C770 0.929 . S
H777 C769 0.930 . S
H778 C792 0.929 . S
H779 C759 0.931 . S
H780 C765 0.931 . S
H781 C766 0.931 . S
H782 C787 0.931 . S
H783 C762 0.929 . S
H784 C795 0.930 . S
N785 Eu756 2.600 . S
N785 C786 1.365 . S
N785 C789 1.319 . S
C786 N785 1.365 . S
C786 C788 1.405 . S
C786 C794 1.448 . S
C787 H782 0.931 . S
C787 C789 1.397 . S
C787 C790 1.367 . S
C788 C786 1.405 . S
C788 C790 1.403 . S
C788 C821 1.439 . S
C789 H774 0.930 . S
C789 N785 1.319 . S
C789 C787 1.397 . S
C790 C787 1.367 . S
C790 C788 1.403 . S
C790 H797 0.929 . S
N791 Eu756 2.562 . S
N791 C792 1.325 . S
N791 C794 1.351 . S
C792 H778 0.929 . S
C792 N791 1.325 . S
C792 C796 1.416 . S
C793 C794 1.430 . S
C793 C795 1.404 . S
C793 C822 1.387 . S
C794 C786 1.448 . S
C794 N791 1.351 . S
C794 C793 1.430 . S
C795 H784 0.930 . S
C795 C793 1.404 . S
C795 C796 1.366 . S
C796 H775 0.930 . S
C796 C792 1.416 . S
C796 C795 1.366 . S
H797 C790 0.929 . S
H798 C821 0.931 . S
H799 C822 0.931 . S
O800 Eu756 2.462 . S
O800 C820 1.252 . S
O801 Eu756 2.373 . S
O801 C812 1.249 . S
O802 Eu767 2.335 . S
O802 C812 1.264 . S
O803 Eu756 2.432 . S
O803 C820 1.268 . S
O804 Eu756 2.291 . S
O804 C819 1.255 . S
O805 Eu767 2.372 . S
O805 C819 1.257 . S
O806 Eu767 2.462 . S
O806 C831 1.252 . S
O807 Eu767 2.373 . S
O807 C823 1.249 . S
O808 Eu756 2.335 . S
O808 C823 1.264 . S
O809 Eu767 2.432 . S
O809 C831 1.268 . S
O810 Eu767 2.291 . S
O810 C830 1.255 . S
O811 Eu756 2.372 . S
O811 C830 1.257 . S
C812 O801 1.249 . S
C812 O802 1.264 . S
C813 C816 1.382 . S
C813 C818 1.390 . S
C813 C820 1.506 . S
C814 C815 1.398 . S
C814 C818 1.392 . S
C815 C814 1.398 . S
C815 C817 1.372 . S
C815 H832 0.931 . S
C816 C813 1.382 . S
C816 C817 1.390 . S
C816 H833 0.931 . S
C817 C815 1.372 . S
C817 C816 1.390 . S
C817 H834 0.929 . S
C818 C813 1.390 . S
C818 C814 1.392 . S
C818 H835 0.930 . S
C819 O804 1.255 . S
C819 O805 1.257 . S
C820 Eu756 2.787 . S
C820 O800 1.252 . S
C820 O803 1.268 . S
C820 C813 1.506 . S
C821 C788 1.439 . S
C821 H798 0.931 . S
C821 C822 1.374 . S
C822 C793 1.387 . S
C822 H799 0.931 . S
C822 C821 1.374 . S
C823 O807 1.249 . S
C823 O808 1.264 . S
C824 C827 1.382 . S
C824 C828 1.390 . S
C824 C831 1.506 . S
C825 C826 1.398 . S
C825 C828 1.392 . S
C826 C825 1.398 . S
C826 C829 1.372 . S
C826 H836 0.931 . S
C827 C824 1.382 . S
C827 C829 1.390 . S
C827 H837 0.931 . S
C828 C824 1.390 . S
C828 C825 1.392 . S
C828 H838 0.930 . S
C829 C826 1.372 . S
C829 C827 1.390 . S
C829 H839 0.929 . S
C830 O810 1.255 . S
C830 O811 1.257 . S
C831 Eu767 2.787 . S
C831 O806 1.252 . S
C831 O809 1.268 . S
C831 C824 1.506 . S
H832 C815 0.931 . S
H833 C816 0.931 . S
H834 C817 0.929 . S
H835 C818 0.930 . S
H836 C826 0.931 . S
H837 C827 0.931 . S
H838 C828 0.930 . S
H839 C829 0.929 . S
Eu840 N869 2.600 . S
Eu840 N875 2.562 . S
Eu840 O884 2.462 . S
Eu840 O885 2.373 1_556 S
Eu840 O887 2.432 . S
Eu840 O888 2.291 . S
Eu840 O892 2.335 1_556 S
Eu840 O895 2.372 1_556 S
Eu840 C904 2.787 . S
C841 N842 1.365 1_545 S
C841 C844 1.405 1_545 S
C841 C848 1.448 . S
N842 C841 1.365 1_565 S
N842 C845 1.319 . S
N842 Eu851 2.600 1_565 S
C843 C845 1.397 . S
C843 C846 1.367 . S
C843 H863 0.931 . S
C844 C841 1.405 1_565 S
C844 C846 1.403 . S
C844 C850 1.439 1_565 S
C845 N842 1.319 . S
C845 C843 1.397 . S
C845 H856 0.930 . S
C846 C843 1.367 . S
C846 C844 1.403 . S
C846 H867 0.929 . S
C847 C848 1.430 . S
C847 C849 1.387 . S
C847 C853 1.404 . S
C848 C841 1.448 . S
C848 C847 1.430 . S
C848 N852 1.351 . S
C849 C847 1.387 . S
C849 C850 1.374 . S
C849 H864 0.931 . S
C850 C844 1.439 1_545 S
C850 C849 1.374 . S
C850 H865 0.931 1_545 S
Eu851 N842 2.600 1_545 S
Eu851 N852 2.562 . S
Eu851 O886 2.335 . S
Eu851 O889 2.372 1_545 S
Eu851 O890 2.462 . S
Eu851 O891 2.373 . S
Eu851 O893 2.432 1_545 S
Eu851 O894 2.291 . S
Eu851 C915 2.787 . S
N852 C848 1.351 . S
N852 Eu851 2.562 . S
N852 C854 1.325 . S
C853 C847 1.404 . S
C853 C855 1.366 . S
C853 H861 0.930 . S
C854 N852 1.325 . S
C854 C855 1.416 . S
C854 H860 0.929 . S
C855 C853 1.366 . S
C855 C854 1.416 . S
C855 H857 0.930 . S
H856 C845 0.930 . S
H857 C855 0.930 . S
H858 C873 0.930 1_554 S
H859 C880 0.926 1_565 S
H860 C854 0.929 . S
H861 C853 0.930 . S
H862 C876 0.929 . S
H863 C843 0.931 . S
H864 C849 0.931 . S
H865 C850 0.931 1_565 S
H866 C871 0.931 . S
H867 C846 0.929 . S
H868 C879 0.930 . S
N869 Eu840 2.600 . S
N869 C870 1.365 . S
N869 C873 1.319 . S
C870 N869 1.365 . S
C870 C872 1.405 . S
C870 C878 1.448 . S
C871 H866 0.931 . S
C871 C873 1.397 . S
C871 C874 1.367 . S
C872 C870 1.405 . S
C872 C874 1.403 . S
C872 C905 1.439 . S
C873 H858 0.930 1_556 S
C873 N869 1.319 . S
C873 C871 1.397 . S
C874 C871 1.367 . S
C874 C872 1.403 . S
C874 H881 0.929 . S
N875 Eu840 2.562 . S
N875 C876 1.325 . S
N875 C878 1.351 . S
C876 H862 0.929 . S
C876 N875 1.325 . S
C876 C880 1.417 . S
C877 C878 1.430 . S
C877 C879 1.404 . S
C877 C906 1.387 . S
C878 C870 1.448 . S
C878 N875 1.351 . S
C878 C877 1.430 . S
C879 H868 0.930 . S
C879 C877 1.404 . S
C879 C880 1.369 . S
C880 H859 0.926 1_545 S
C880 C876 1.417 . S
C880 C879 1.369 . S
H881 C874 0.929 . S
H882 C905 0.931 . S
H883 C906 0.931 . S
O884 Eu840 2.462 . S
O884 C904 1.252 . S
O885 Eu840 2.373 1_554 S
O885 C896 1.249 . S
O886 Eu851 2.335 . S
O886 C896 1.264 . S
O887 Eu840 2.432 . S
O887 C904 1.268 . S
O888 Eu840 2.291 . S
O888 C903 1.255 1_546 S
O889 Eu851 2.372 1_565 S
O889 C903 1.257 . S
O890 Eu851 2.462 . S
O890 C915 1.252 . S
O891 Eu851 2.373 . S
O891 C907 1.249 . S
O892 Eu840 2.335 1_554 S
O892 C907 1.264 . S
O893 Eu851 2.432 1_565 S
O893 C915 1.268 1_565 S
O894 Eu851 2.291 . S
O894 C914 1.255 . S
O895 Eu840 2.372 1_554 S
O895 C914 1.257 . S
C896 O885 1.249 . S
C896 O886 1.264 . S
C897 C900 1.382 . S
C897 C902 1.390 . S
C897 C904 1.506 . S
C898 C899 1.398 . S
C898 C902 1.392 . S
C899 C898 1.398 . S
C899 C901 1.372 . S
C899 H916 0.931 . S
C900 C897 1.382 . S
C900 C901 1.390 . S
C900 H917 0.931 . S
C901 C899 1.372 . S
C901 C900 1.390 . S
C901 H918 0.929 . S
C902 C897 1.390 . S
C902 C898 1.392 . S
C902 H919 0.930 . S
C903 O888 1.255 1_564 S
C903 O889 1.257 . S
C904 Eu840 2.787 . S
C904 O884 1.252 . S
C904 O887 1.268 . S
C904 C897 1.506 . S
C905 C872 1.439 . S
C905 H882 0.931 . S
C905 C906 1.374 . S
C906 C877 1.387 . S
C906 H883 0.931 . S
C906 C905 1.374 . S
C907 O891 1.249 . S
C907 O892 1.264 . S
C908 C911 1.382 . S
C908 C912 1.390 1_565 S
C908 C915 1.506 1_565 S
C909 C910 1.398 1_545 S
C909 C912 1.392 . S
C910 C909 1.398 1_565 S
C910 C913 1.372 . S
C910 H920 0.931 . S
C911 C908 1.382 . S
C911 C913 1.390 . S
C911 H921 0.931 . S
C912 C908 1.390 1_545 S
C912 C909 1.392 . S
C912 H922 0.930 . S
C913 C910 1.372 . S
C913 C911 1.390 . S
C913 H923 0.929 . S
C914 O894 1.255 . S
C914 O895 1.257 . S
C915 Eu851 2.787 . S
C915 O890 1.252 . S
C915 O893 1.268 1_545 S
C915 C908 1.506 1_545 S
H916 C899 0.931 . S
H917 C900 0.931 . S
H918 C901 0.929 . S
H919 C902 0.930 . S
H920 C910 0.931 . S
H921 C911 0.931 . S
H922 C912 0.930 . S
H923 C913 0.929 . S
Eu924 N953 2.600 . S
Eu924 N959 2.562 . S
Eu924 O968 2.462 . S
Eu924 O969 2.373 . S
Eu924 O971 2.432 . S
Eu924 O972 2.291 . S
Eu924 O976 2.335 . S
Eu924 O979 2.372 . S
Eu924 C988 2.787 . S
C925 N926 1.365 . S
C925 C928 1.405 . S
C925 C932 1.448 . S
N926 C925 1.365 . S
N926 C929 1.319 . S
N926 Eu935 2.600 . S
C927 C929 1.397 . S
C927 C930 1.367 . S
C927 H947 0.931 . S
C928 C925 1.405 . S
C928 C930 1.403 . S
C928 C934 1.439 . S
C929 N926 1.319 . S
C929 C927 1.397 . S
C929 H940 0.930 . S
C930 C927 1.367 . S
C930 C928 1.403 . S
C930 H951 0.929 . S
C931 C932 1.430 . S
C931 C933 1.387 . S
C931 C937 1.404 . S
C932 C925 1.448 . S
C932 C931 1.430 . S
C932 N936 1.351 . S
C933 C931 1.387 . S
C933 C934 1.374 . S
C933 H948 0.931 . S
C934 C928 1.439 . S
C934 C933 1.374 . S
C934 H949 0.931 . S
Eu935 N926 2.600 . S
Eu935 N936 2.562 . S
Eu935 O970 2.335 . S
Eu935 O973 2.372 . S
Eu935 O974 2.462 . S
Eu935 O975 2.373 . S
Eu935 O977 2.432 . S
Eu935 O978 2.291 . S
Eu935 C999 2.787 . S
N936 C932 1.351 . S
N936 Eu935 2.562 . S
N936 C938 1.325 . S
C937 C931 1.404 . S
C937 C939 1.366 . S
C937 H945 0.930 . S
C938 N936 1.325 . S
C938 C939 1.416 . S
C938 H944 0.929 . S
C939 C937 1.366 . S
C939 C938 1.416 . S
C939 H941 0.930 . S
H940 C929 0.930 . S
H941 C939 0.930 . S
H942 C957 0.930 . S
H943 C964 0.930 . S
H944 C938 0.929 . S
H945 C937 0.930 . S
H946 C960 0.929 . S
H947 C927 0.931 . S
H948 C933 0.931 . S
H949 C934 0.931 . S
H950 C955 0.931 . S
H951 C930 0.929 . S
H952 C963 0.930 . S
N953 Eu924 2.600 . S
N953 C954 1.365 . S
N953 C957 1.319 . S
C954 N953 1.365 . S
C954 C956 1.405 . S
C954 C962 1.448 . S
C955 H950 0.931 . S
C955 C957 1.397 . S
C955 C958 1.367 . S
C956 C954 1.405 . S
C956 C958 1.403 . S
C956 C989 1.439 . S
C957 H942 0.930 . S
C957 N953 1.319 . S
C957 C955 1.397 . S
C958 C955 1.367 . S
C958 C956 1.403 . S
C958 H965 0.929 . S
N959 Eu924 2.562 . S
N959 C960 1.325 . S
N959 C962 1.351 . S
C960 H946 0.929 . S
C960 N959 1.325 . S
C960 C964 1.416 . S
C961 C962 1.430 . S
C961 C963 1.404 . S
C961 C990 1.387 . S
C962 C954 1.448 . S
C962 N959 1.351 . S
C962 C961 1.430 . S
C963 H952 0.930 . S
C963 C961 1.404 . S
C963 C964 1.366 . S
C964 H943 0.930 . S
C964 C960 1.416 . S
C964 C963 1.366 . S
H965 C958 0.929 . S
H966 C989 0.931 . S
H967 C990 0.931 . S
O968 Eu924 2.462 . S
O968 C988 1.252 . S
O969 Eu924 2.373 . S
O969 C980 1.249 . S
O970 Eu935 2.335 . S
O970 C980 1.264 . S
O971 Eu924 2.432 . S
O971 C988 1.268 . S
O972 Eu924 2.291 . S
O972 C987 1.255 . S
O973 Eu935 2.372 . S
O973 C987 1.257 . S
O974 Eu935 2.462 . S
O974 C999 1.252 . S
O975 Eu935 2.373 . S
O975 C991 1.249 . S
O976 Eu924 2.335 . S
O976 C991 1.264 . S
O977 Eu935 2.432 . S
O977 C999 1.268 . S
O978 Eu935 2.291 . S
O978 C998 1.255 . S
O979 Eu924 2.372 . S
O979 C998 1.257 . S
C980 O969 1.249 . S
C980 O970 1.264 . S
C981 C984 1.382 . S
C981 C986 1.390 . S
C981 C988 1.506 . S
C982 C983 1.398 . S
C982 C986 1.392 . S
C983 C982 1.398 . S
C983 C985 1.372 . S
C983 H1000 0.931 . S
C984 C981 1.382 . S
C984 C985 1.390 . S
C984 H1001 0.931 . S
C985 C983 1.372 . S
C985 C984 1.390 . S
C985 H1002 0.929 . S
C986 C981 1.390 . S
C986 C982 1.392 . S
C986 H1003 0.930 . S
C987 O972 1.255 . S
C987 O973 1.257 . S
C988 Eu924 2.787 . S
C988 O968 1.252 . S
C988 O971 1.268 . S
C988 C981 1.506 . S
C989 C956 1.439 . S
C989 H966 0.931 . S
C989 C990 1.374 . S
C990 C961 1.387 . S
C990 H967 0.931 . S
C990 C989 1.374 . S
C991 O975 1.249 . S
C991 O976 1.264 . S
C992 C995 1.382 . S
C992 C996 1.390 . S
C992 C999 1.506 . S
C993 C994 1.398 . S
C993 C996 1.392 . S
C994 C993 1.398 . S
C994 C997 1.372 . S
C994 H1004 0.931 . S
C995 C992 1.382 . S
C995 C997 1.390 . S
C995 H1005 0.931 . S
C996 C992 1.390 . S
C996 C993 1.392 . S
C996 H1006 0.930 . S
C997 C994 1.372 . S
C997 C995 1.390 . S
C997 H1007 0.929 . S
C998 O978 1.255 . S
C998 O979 1.257 . S
C999 Eu935 2.787 . S
C999 O974 1.252 . S
C999 O977 1.268 . S
C999 C992 1.506 . S
H1000 C983 0.931 . S
H1001 C984 0.931 . S
H1002 C985 0.929 . S
H1003 C986 0.930 . S
H1004 C994 0.931 . S
H1005 C995 0.931 . S
H1006 C996 0.930 . S
H1007 C997 0.929 . S
Eu1008 N1037 2.600 1_554 S
Eu1008 N1043 2.562 1_554 S
Eu1008 O1052 2.462 . S
Eu1008 O1053 2.373 1_554 S
Eu1008 O1055 2.432 . S
Eu1008 O1056 2.291 . S
Eu1008 O1060 2.335 . S
Eu1008 O1063 2.372 . S
Eu1008 C1072 2.787 . S
C1009 N1010 1.365 . S
C1009 C1012 1.405 . S
C1009 C1016 1.448 . S
N1010 C1009 1.365 . S
N1010 C1013 1.319 . S
N1010 Eu1019 2.600 . S
C1011 C1013 1.397 . S
C1011 C1014 1.367 . S
C1011 H1031 0.931 . S
C1012 C1009 1.405 . S
C1012 C1014 1.403 . S
C1012 C1018 1.439 . S
C1013 N1010 1.319 . S
C1013 C1011 1.397 . S
C1013 H1024 0.930 . S
C1014 C1011 1.367 . S
C1014 C1012 1.403 . S
C1014 H1035 0.929 . S
C1015 C1016 1.430 . S
C1015 C1017 1.387 . S
C1015 C1021 1.404 . S
C1016 C1009 1.448 . S
C1016 C1015 1.430 . S
C1016 N1020 1.351 . S
C1017 C1015 1.387 . S
C1017 C1018 1.374 . S
C1017 H1032 0.931 . S
C1018 C1012 1.439 . S
C1018 C1017 1.374 . S
C1018 H1033 0.931 . S
Eu1019 N1010 2.600 . S
Eu1019 N1020 2.562 . S
Eu1019 O1054 2.335 1_554 S
Eu1019 O1057 2.372 . S
Eu1019 O1058 2.462 . S
Eu1019 O1059 2.373 . S
Eu1019 O1061 2.432 . S
Eu1019 O1062 2.291 . S
Eu1019 C1083 2.787 . S
N1020 C1016 1.351 . S
N1020 Eu1019 2.562 . S
N1020 C1022 1.325 . S
C1021 C1015 1.404 . S
C1021 C1023 1.366 . S
C1021 H1029 0.930 . S
C1022 N1020 1.325 . S
C1022 C1023 1.416 . S
C1022 H1028 0.929 . S
C1023 C1021 1.366 . S
C1023 C1022 1.416 . S
C1023 H1025 0.930 . S
H1024 C1013 0.930 . S
H1025 C1023 0.930 . S
H1026 C1041 0.930 1_554 S
H1027 C1048 0.930 . S
H1028 C1022 0.929 . S
H1029 C1021 0.930 . S
H1030 C1044 0.929 . S
H1031 C1011 0.931 . S
H1032 C1017 0.931 . S
H1033 C1018 0.931 . S
H1034 C1039 0.931 . S
H1035 C1014 0.929 . S
H1036 C1047 0.930 . S
N1037 Eu1008 2.600 1_556 S
N1037 C1038 1.365 . S
N1037 C1041 1.319 . S
C1038 N1037 1.365 . S
C1038 C1040 1.405 . S
C1038 C1046 1.448 . S
C1039 H1034 0.931 . S
C1039 C1041 1.397 . S
C1039 C1042 1.367 . S
C1040 C1038 1.405 . S
C1040 C1042 1.403 . S
C1040 C1073 1.439 . S
C1041 H1026 0.930 1_556 S
C1041 N1037 1.319 . S
C1041 C1039 1.397 . S
C1042 C1039 1.367 . S
C1042 C1040 1.403 . S
C1042 H1049 0.929 . S
N1043 Eu1008 2.562 1_556 S
N1043 C1044 1.325 . S
N1043 C1046 1.351 . S
C1044 H1030 0.929 . S
C1044 N1043 1.325 . S
C1044 C1048 1.416 . S
C1045 C1046 1.430 . S
C1045 C1047 1.404 . S
C1045 C1074 1.387 . S
C1046 C1038 1.448 . S
C1046 N1043 1.351 . S
C1046 C1045 1.430 . S
C1047 H1036 0.930 . S
C1047 C1045 1.404 . S
C1047 C1048 1.366 . S
C1048 H1027 0.930 . S
C1048 C1044 1.416 . S
C1048 C1047 1.366 . S
H1049 C1042 0.929 . S
H1050 C1073 0.931 . S
H1051 C1074 0.931 . S
O1052 Eu1008 2.462 . S
O1052 C1072 1.252 . S
O1053 Eu1008 2.373 1_556 S
O1053 C1064 1.249 . S
O1054 Eu1019 2.335 1_556 S
O1054 C1064 1.264 . S
O1055 Eu1008 2.432 . S
O1055 C1072 1.268 . S
O1056 Eu1008 2.291 . S
O1056 C1071 1.255 . S
O1057 Eu1019 2.372 . S
O1057 C1071 1.257 . S
O1058 Eu1019 2.462 . S
O1058 C1083 1.252 . S
O1059 Eu1019 2.373 . S
O1059 C1075 1.249 . S
O1060 Eu1008 2.335 . S
O1060 C1075 1.264 . S
O1061 Eu1019 2.432 . S
O1061 C1083 1.268 . S
O1062 Eu1019 2.291 . S
O1062 C1082 1.255 . S
O1063 Eu1008 2.372 . S
O1063 C1082 1.257 . S
C1064 O1053 1.249 . S
C1064 O1054 1.264 . S
C1065 C1068 1.382 . S
C1065 C1070 1.390 . S
C1065 C1072 1.506 . S
C1066 C1067 1.398 . S
C1066 C1070 1.392 . S
C1067 C1066 1.398 . S
C1067 C1069 1.372 . S
C1067 H1084 0.931 . S
C1068 C1065 1.382 . S
C1068 C1069 1.390 . S
C1068 H1085 0.931 . S
C1069 C1067 1.372 . S
C1069 C1068 1.390 . S
C1069 H1086 0.929 . S
C1070 C1065 1.390 . S
C1070 C1066 1.392 . S
C1070 H1087 0.930 . S
C1071 O1056 1.255 . S
C1071 O1057 1.257 . S
C1072 Eu1008 2.787 . S
C1072 O1052 1.252 . S
C1072 O1055 1.268 . S
C1072 C1065 1.506 . S
C1073 C1040 1.439 . S
C1073 H1050 0.931 . S
C1073 C1074 1.374 . S
C1074 C1045 1.387 . S
C1074 H1051 0.931 . S
C1074 C1073 1.374 . S
C1075 O1059 1.249 . S
C1075 O1060 1.264 . S
C1076 C1079 1.382 . S
C1076 C1080 1.390 . S
C1076 C1083 1.506 1_556 S
C1077 C1078 1.398 . S
C1077 C1080 1.392 . S
C1078 C1077 1.398 . S
C1078 C1081 1.372 . S
C1078 H1088 0.931 . S
C1079 C1076 1.382 . S
C1079 C1081 1.390 . S
C1079 H1089 0.931 . S
C1080 C1076 1.390 . S
C1080 C1077 1.392 . S
C1080 H1090 0.930 . S
C1081 C1078 1.372 . S
C1081 C1079 1.390 . S
C1081 H1091 0.929 . S
C1082 O1062 1.255 . S
C1082 O1063 1.257 . S
C1083 Eu1019 2.787 . S
C1083 O1058 1.252 . S
C1083 O1061 1.268 . S
C1083 C1076 1.506 1_554 S
H1084 C1067 0.931 . S
H1085 C1068 0.931 . S
H1086 C1069 0.929 . S
H1087 C1070 0.930 . S
H1088 C1078 0.931 . S
H1089 C1079 0.931 . S
H1090 C1080 0.930 . S
H1091 C1081 0.929 . S
Eu1092 N1121 2.600 . S
Eu1092 N1127 2.562 . S
Eu1092 O1136 2.462 . S
Eu1092 O1137 2.373 . S
Eu1092 O1139 2.432 . S
Eu1092 O1140 2.291 . S
Eu1092 O1144 2.335 . S
Eu1092 O1147 2.372 . S
Eu1092 C1156 2.787 . S
C1093 N1094 1.365 . S
C1093 C1096 1.405 . S
C1093 C1100 1.448 . S
N1094 C1093 1.365 . S
N1094 C1097 1.319 . S
N1094 Eu1103 2.600 . S
C1095 C1097 1.397 . S
C1095 C1098 1.367 . S
C1095 H1115 0.931 . S
C1096 C1093 1.405 . S
C1096 C1098 1.403 . S
C1096 C1102 1.439 . S
C1097 N1094 1.319 . S
C1097 C1095 1.397 . S
C1097 H1108 0.930 . S
C1098 C1095 1.367 . S
C1098 C1096 1.403 . S
C1098 H1119 0.929 . S
C1099 C1100 1.430 . S
C1099 C1101 1.387 . S
C1099 C1105 1.404 . S
C1100 C1093 1.448 . S
C1100 C1099 1.430 . S
C1100 N1104 1.351 . S
C1101 C1099 1.387 . S
C1101 C1102 1.374 . S
C1101 H1116 0.931 . S
C1102 C1096 1.439 . S
C1102 C1101 1.374 . S
C1102 H1117 0.931 . S
Eu1103 N1094 2.600 . S
Eu1103 N1104 2.562 . S
Eu1103 O1138 2.335 . S
Eu1103 O1141 2.372 . S
Eu1103 O1142 2.462 . S
Eu1103 O1143 2.373 . S
Eu1103 O1145 2.432 . S
Eu1103 O1146 2.291 . S
Eu1103 C1167 2.787 . S
N1104 C1100 1.351 . S
N1104 Eu1103 2.562 . S
N1104 C1106 1.325 . S
C1105 C1099 1.404 . S
C1105 C1107 1.366 . S
C1105 H1113 0.930 . S
C1106 N1104 1.325 . S
C1106 C1107 1.416 . S
C1106 H1112 0.929 . S
C1107 C1105 1.366 . S
C1107 C1106 1.416 . S
C1107 H1109 0.930 . S
H1108 C1097 0.930 . S
H1109 C1107 0.930 . S
H1110 C1125 0.930 . S
H1111 C1132 0.930 . S
H1112 C1106 0.929 . S
H1113 C1105 0.930 . S
H1114 C1128 0.929 . S
H1115 C1095 0.931 . S
H1116 C1101 0.931 . S
H1117 C1102 0.931 . S
H1118 C1123 0.931 . S
H1119 C1098 0.929 . S
H1120 C1131 0.930 . S
N1121 Eu1092 2.600 . S
N1121 C1122 1.365 . S
N1121 C1125 1.319 . S
C1122 N1121 1.365 . S
C1122 C1124 1.405 . S
C1122 C1130 1.448 . S
C1123 H1118 0.931 . S
C1123 C1125 1.397 . S
C1123 C1126 1.367 . S
C1124 C1122 1.405 . S
C1124 C1126 1.403 . S
C1124 C1157 1.439 . S
C1125 H1110 0.930 . S
C1125 N1121 1.319 . S
C1125 C1123 1.397 . S
C1126 C1123 1.367 . S
C1126 C1124 1.403 . S
C1126 H1133 0.929 . S
N1127 Eu1092 2.562 . S
N1127 C1128 1.325 . S
N1127 C1130 1.351 . S
C1128 H1114 0.929 . S
C1128 N1127 1.325 . S
C1128 C1132 1.416 . S
C1129 C1130 1.430 . S
C1129 C1131 1.404 . S
C1129 C1158 1.387 . S
C1130 C1122 1.448 . S
C1130 N1127 1.351 . S
C1130 C1129 1.430 . S
C1131 H1120 0.930 . S
C1131 C1129 1.404 . S
C1131 C1132 1.366 . S
C1132 H1111 0.930 . S
C1132 C1128 1.416 . S
C1132 C1131 1.366 . S
H1133 C1126 0.929 . S
H1134 C1157 0.931 . S
H1135 C1158 0.931 . S
O1136 Eu1092 2.462 . S
O1136 C1156 1.252 . S
O1137 Eu1092 2.373 . S
O1137 C1148 1.249 . S
O1138 Eu1103 2.335 . S
O1138 C1148 1.264 . S
O1139 Eu1092 2.432 . S
O1139 C1156 1.268 . S
O1140 Eu1092 2.291 . S
O1140 C1155 1.255 . S
O1141 Eu1103 2.372 . S
O1141 C1155 1.257 . S
O1142 Eu1103 2.462 . S
O1142 C1167 1.252 . S
O1143 Eu1103 2.373 . S
O1143 C1159 1.249 . S
O1144 Eu1092 2.335 . S
O1144 C1159 1.264 . S
O1145 Eu1103 2.432 . S
O1145 C1167 1.268 . S
O1146 Eu1103 2.291 . S
O1146 C1166 1.255 . S
O1147 Eu1092 2.372 . S
O1147 C1166 1.257 . S
C1148 O1137 1.249 . S
C1148 O1138 1.264 . S
C1149 C1152 1.382 . S
C1149 C1154 1.390 . S
C1149 C1156 1.506 . S
C1150 C1151 1.398 . S
C1150 C1154 1.392 . S
C1151 C1150 1.398 . S
C1151 C1153 1.372 . S
C1151 H1168 0.931 . S
C1152 C1149 1.382 . S
C1152 C1153 1.390 . S
C1152 H1169 0.931 . S
C1153 C1151 1.372 . S
C1153 C1152 1.390 . S
C1153 H1170 0.929 . S
C1154 C1149 1.390 . S
C1154 C1150 1.392 . S
C1154 H1171 0.930 . S
C1155 O1140 1.255 . S
C1155 O1141 1.257 . S
C1156 Eu1092 2.787 . S
C1156 O1136 1.252 . S
C1156 O1139 1.268 . S
C1156 C1149 1.506 . S
C1157 C1124 1.439 . S
C1157 H1134 0.931 . S
C1157 C1158 1.374 . S
C1158 C1129 1.387 . S
C1158 H1135 0.931 . S
C1158 C1157 1.374 . S
C1159 O1143 1.249 . S
C1159 O1144 1.264 . S
C1160 C1163 1.382 . S
C1160 C1164 1.390 . S
C1160 C1167 1.506 . S
C1161 C1162 1.398 . S
C1161 C1164 1.392 . S
C1162 C1161 1.398 . S
C1162 C1165 1.372 . S
C1162 H1172 0.931 . S
C1163 C1160 1.382 . S
C1163 C1165 1.390 . S
C1163 H1173 0.931 . S
C1164 C1160 1.390 . S
C1164 C1161 1.392 . S
C1164 H1174 0.930 . S
C1165 C1162 1.372 . S
C1165 C1163 1.390 . S
C1165 H1175 0.929 . S
C1166 O1146 1.255 . S
C1166 O1147 1.257 . S
C1167 Eu1103 2.787 . S
C1167 O1142 1.252 . S
C1167 O1145 1.268 . S
C1167 C1160 1.506 . S
H1168 C1151 0.931 . S
H1169 C1152 0.931 . S
H1170 C1153 0.929 . S
H1171 C1154 0.930 . S
H1172 C1162 0.931 . S
H1173 C1163 0.931 . S
H1174 C1164 0.930 . S
H1175 C1165 0.929 . S
Eu1176 N1205 2.585 1_455 S
Eu1176 N1211 2.562 1_455 S
Eu1176 O1220 2.462 . S
Eu1176 O1221 2.373 1_455 S
Eu1176 O1223 2.432 . S
Eu1176 O1224 2.291 . S
Eu1176 O1228 2.335 . S
Eu1176 O1231 2.372 . S
Eu1176 C1240 2.787 . S
C1177 N1178 1.365 . S
C1177 C1180 1.405 . S
C1177 C1184 1.448 . S
N1178 C1177 1.365 . S
N1178 C1181 1.319 . S
N1178 Eu1187 2.600 . S
C1179 C1181 1.397 . S
C1179 C1182 1.367 . S
C1179 H1199 0.931 . S
C1180 C1177 1.405 . S
C1180 C1182 1.403 . S
C1180 C1186 1.439 . S
C1181 N1178 1.319 . S
C1181 C1179 1.397 . S
C1181 H1192 0.930 . S
C1182 C1179 1.367 . S
C1182 C1180 1.403 . S
C1182 H1203 0.929 . S
C1183 C1184 1.430 . S
C1183 C1185 1.387 . S
C1183 C1189 1.404 . S
C1184 C1177 1.448 . S
C1184 C1183 1.430 . S
C1184 N1188 1.351 . S
C1185 C1183 1.387 . S
C1185 C1186 1.374 . S
C1185 H1200 0.931 . S
C1186 C1180 1.439 . S
C1186 C1185 1.374 . S
C1186 H1201 0.931 . S
Eu1187 N1178 2.600 . S
Eu1187 N1188 2.562 . S
Eu1187 O1222 2.335 1_455 S
Eu1187 O1225 2.372 . S
Eu1187 O1226 2.462 . S
Eu1187 O1227 2.373 . S
Eu1187 O1229 2.432 . S
Eu1187 O1230 2.291 . S
Eu1187 C1251 2.787 . S
N1188 C1184 1.351 . S
N1188 Eu1187 2.562 . S
N1188 C1190 1.325 . S
C1189 C1183 1.404 . S
C1189 C1191 1.366 . S
C1189 H1197 0.930 . S
C1190 N1188 1.325 . S
C1190 C1191 1.416 . S
C1190 H1196 0.929 . S
C1191 C1189 1.366 . S
C1191 C1190 1.416 . S
C1191 H1193 0.930 . S
H1192 C1181 0.930 . S
H1193 C1191 0.930 . S
H1194 C1209 0.930 . S
H1195 C1216 0.930 . S
H1196 C1190 0.929 . S
H1197 C1189 0.930 . S
H1198 C1212 0.929 1_455 S
H1199 C1179 0.931 . S
H1200 C1185 0.931 . S
H1201 C1186 0.931 . S
H1202 C1207 0.931 . S
H1203 C1182 0.929 . S
H1204 C1215 0.930 . S
N1205 Eu1176 2.585 1_655 S
N1205 C1206 1.378 . S
N1205 C1209 1.324 1_655 S
C1206 N1205 1.378 . S
C1206 C1208 1.405 . S
C1206 C1214 1.448 . S
C1207 H1202 0.931 . S
C1207 C1209 1.397 1_655 S
C1207 C1210 1.367 . S
C1208 C1206 1.405 . S
C1208 C1210 1.403 . S
C1208 C1241 1.439 . S
C1209 H1194 0.930 . S
C1209 N1205 1.324 1_455 S
C1209 C1207 1.397 1_455 S
C1210 C1207 1.367 . S
C1210 C1208 1.403 . S
C1210 H1217 0.929 . S
N1211 Eu1176 2.562 1_655 S
N1211 C1212 1.325 . S
N1211 C1214 1.351 . S
C1212 H1198 0.929 1_655 S
C1212 N1211 1.325 . S
C1212 C1216 1.416 . S
C1213 C1214 1.430 . S
C1213 C1215 1.404 . S
C1213 C1242 1.387 . S
C1214 C1206 1.448 . S
C1214 N1211 1.351 . S
C1214 C1213 1.430 . S
C1215 H1204 0.930 . S
C1215 C1213 1.404 . S
C1215 C1216 1.366 . S
C1216 H1195 0.930 . S
C1216 C1212 1.416 . S
C1216 C1215 1.366 . S
H1217 C1210 0.929 . S
H1218 C1241 0.931 . S
H1219 C1242 0.931 . S
O1220 Eu1176 2.462 . S
O1220 C1240 1.252 . S
O1221 Eu1176 2.373 1_655 S
O1221 C1232 1.249 . S
O1222 Eu1187 2.335 1_655 S
O1222 C1232 1.264 . S
O1223 Eu1176 2.432 . S
O1223 C1240 1.268 . S
O1224 Eu1176 2.291 . S
O1224 C1239 1.255 . S
O1225 Eu1187 2.372 . S
O1225 C1239 1.257 . S
O1226 Eu1187 2.462 . S
O1226 C1251 1.252 . S
O1227 Eu1187 2.373 . S
O1227 C1243 1.249 . S
O1228 Eu1176 2.335 . S
O1228 C1243 1.264 . S
O1229 Eu1187 2.432 . S
O1229 C1251 1.268 . S
O1230 Eu1187 2.291 . S
O1230 C1250 1.255 . S
O1231 Eu1176 2.372 . S
O1231 C1250 1.257 . S
C1232 O1221 1.249 . S
C1232 O1222 1.264 . S
C1233 C1236 1.382 . S
C1233 C1238 1.390 . S
C1233 C1240 1.506 . S
C1234 C1235 1.398 . S
C1234 C1238 1.392 . S
C1235 C1234 1.398 . S
C1235 C1237 1.372 . S
C1235 H1252 0.931 . S
C1236 C1233 1.382 . S
C1236 C1237 1.390 . S
C1236 H1253 0.931 . S
C1237 C1235 1.372 . S
C1237 C1236 1.390 . S
C1237 H1254 0.929 . S
C1238 C1233 1.390 . S
C1238 C1234 1.392 . S
C1238 H1255 0.930 . S
C1239 O1224 1.255 . S
C1239 O1225 1.257 . S
C1240 Eu1176 2.787 . S
C1240 O1220 1.252 . S
C1240 O1223 1.268 . S
C1240 C1233 1.506 . S
C1241 C1208 1.439 . S
C1241 H1218 0.931 . S
C1241 C1242 1.374 . S
C1242 C1213 1.387 . S
C1242 H1219 0.931 . S
C1242 C1241 1.374 . S
C1243 O1227 1.249 . S
C1243 O1228 1.264 . S
C1244 C1247 1.382 . S
C1244 C1248 1.390 . S
C1244 C1251 1.506 1_655 S
C1245 C1246 1.398 . S
C1245 C1248 1.392 . S
C1246 C1245 1.398 . S
C1246 C1249 1.372 . S
C1246 H1256 0.931 . S
C1247 C1244 1.382 . S
C1247 C1249 1.390 . S
C1247 H1257 0.931 . S
C1248 C1244 1.390 . S
C1248 C1245 1.392 . S
C1248 H1258 0.930 . S
C1249 C1246 1.372 . S
C1249 C1247 1.390 . S
C1249 H1259 0.929 . S
C1250 O1230 1.255 . S
C1250 O1231 1.257 . S
C1251 Eu1187 2.787 . S
C1251 O1226 1.252 . S
C1251 O1229 1.268 . S
C1251 C1244 1.506 1_455 S
H1252 C1235 0.931 . S
H1253 C1236 0.931 . S
H1254 C1237 0.929 . S
H1255 C1238 0.930 . S
H1256 C1246 0.931 . S
H1257 C1247 0.931 . S
H1258 C1248 0.930 . S
H1259 C1249 0.929 . S
Eu1260 N1289 2.600 . S
Eu1260 N1295 2.562 . S
Eu1260 O1304 2.462 . S
Eu1260 O1305 2.373 . S
Eu1260 O1307 2.432 . S
Eu1260 O1308 2.291 . S
Eu1260 O1312 2.335 . S
Eu1260 O1315 2.372 . S
Eu1260 C1324 2.787 . S
C1261 N1262 1.365 . S
C1261 C1264 1.405 . S
C1261 C1268 1.448 . S
N1262 C1261 1.365 . S
N1262 C1265 1.319 . S
N1262 Eu1271 2.600 . S
C1263 C1265 1.397 . S
C1263 C1266 1.367 . S
C1263 H1283 0.931 . S
C1264 C1261 1.405 . S
C1264 C1266 1.403 . S
C1264 C1270 1.439 . S
C1265 N1262 1.319 . S
C1265 C1263 1.397 . S
C1265 H1276 0.930 . S
C1266 C1263 1.367 . S
C1266 C1264 1.403 . S
C1266 H1287 0.929 . S
C1267 C1268 1.430 . S
C1267 C1269 1.387 . S
C1267 C1273 1.404 . S
C1268 C1261 1.448 . S
C1268 C1267 1.430 . S
C1268 N1272 1.351 . S
C1269 C1267 1.387 . S
C1269 C1270 1.374 . S
C1269 H1284 0.931 . S
C1270 C1264 1.439 . S
C1270 C1269 1.374 . S
C1270 H1285 0.931 . S
Eu1271 N1262 2.600 . S
Eu1271 N1272 2.562 . S
Eu1271 O1306 2.335 . S
Eu1271 O1309 2.372 . S
Eu1271 O1310 2.462 . S
Eu1271 O1311 2.373 . S
Eu1271 O1313 2.432 . S
Eu1271 O1314 2.291 . S
Eu1271 C1335 2.787 . S
N1272 C1268 1.351 . S
N1272 Eu1271 2.562 . S
N1272 C1274 1.325 . S
C1273 C1267 1.404 . S
C1273 C1275 1.366 . S
C1273 H1281 0.930 . S
C1274 N1272 1.325 . S
C1274 C1275 1.416 . S
C1274 H1280 0.929 . S
C1275 C1273 1.366 . S
C1275 C1274 1.416 . S
C1275 H1277 0.930 . S
H1276 C1265 0.930 . S
H1277 C1275 0.930 . S
H1278 C1293 0.930 . S
H1279 C1300 0.930 . S
H1280 C1274 0.929 . S
H1281 C1273 0.930 . S
H1282 C1296 0.929 . S
H1283 C1263 0.931 . S
H1284 C1269 0.931 . S
H1285 C1270 0.931 . S
H1286 C1291 0.931 . S
H1287 C1266 0.929 . S
H1288 C1299 0.930 . S
N1289 Eu1260 2.600 . S
N1289 C1290 1.365 . S
N1289 C1293 1.319 . S
C1290 N1289 1.365 . S
C1290 C1292 1.405 . S
C1290 C1298 1.448 . S
C1291 H1286 0.931 . S
C1291 C1293 1.397 . S
C1291 C1294 1.367 . S
C1292 C1290 1.405 . S
C1292 C1294 1.403 . S
C1292 C1325 1.439 . S
C1293 H1278 0.930 . S
C1293 N1289 1.319 . S
C1293 C1291 1.397 . S
C1294 C1291 1.367 . S
C1294 C1292 1.403 . S
C1294 H1301 0.929 . S
N1295 Eu1260 2.562 . S
N1295 C1296 1.325 . S
N1295 C1298 1.351 . S
C1296 H1282 0.929 . S
C1296 N1295 1.325 . S
C1296 C1300 1.416 . S
C1297 C1298 1.430 . S
C1297 C1299 1.404 . S
C1297 C1326 1.387 . S
C1298 C1290 1.448 . S
C1298 N1295 1.351 . S
C1298 C1297 1.430 . S
C1299 H1288 0.930 . S
C1299 C1297 1.404 . S
C1299 C1300 1.366 . S
C1300 H1279 0.930 . S
C1300 C1296 1.416 . S
C1300 C1299 1.366 . S
H1301 C1294 0.929 . S
H1302 C1325 0.931 . S
H1303 C1326 0.931 . S
O1304 Eu1260 2.462 . S
O1304 C1324 1.252 . S
O1305 Eu1260 2.373 . S
O1305 C1316 1.249 . S
O1306 Eu1271 2.335 . S
O1306 C1316 1.264 . S
O1307 Eu1260 2.432 . S
O1307 C1324 1.268 . S
O1308 Eu1260 2.291 . S
O1308 C1323 1.255 . S
O1309 Eu1271 2.372 . S
O1309 C1323 1.257 . S
O1310 Eu1271 2.462 . S
O1310 C1335 1.252 . S
O1311 Eu1271 2.373 . S
O1311 C1327 1.249 . S
O1312 Eu1260 2.335 . S
O1312 C1327 1.264 . S
O1313 Eu1271 2.432 . S
O1313 C1335 1.268 . S
O1314 Eu1271 2.291 . S
O1314 C1334 1.255 . S
O1315 Eu1260 2.372 . S
O1315 C1334 1.257 . S
C1316 O1305 1.249 . S
C1316 O1306 1.264 . S
C1317 C1320 1.382 . S
C1317 C1322 1.390 . S
C1317 C1324 1.506 . S
C1318 C1319 1.398 . S
C1318 C1322 1.392 . S
C1319 C1318 1.398 . S
C1319 C1321 1.372 . S
C1319 H1336 0.931 . S
C1320 C1317 1.382 . S
C1320 C1321 1.390 . S
C1320 H1337 0.931 . S
C1321 C1319 1.372 . S
C1321 C1320 1.390 . S
C1321 H1338 0.929 . S
C1322 C1317 1.390 . S
C1322 C1318 1.392 . S
C1322 H1339 0.930 . S
C1323 O1308 1.255 . S
C1323 O1309 1.257 . S
C1324 Eu1260 2.787 . S
C1324 O1304 1.252 . S
C1324 O1307 1.268 . S
C1324 C1317 1.506 . S
C1325 C1292 1.439 . S
C1325 H1302 0.931 . S
C1325 C1326 1.374 . S
C1326 C1297 1.387 . S
C1326 H1303 0.931 . S
C1326 C1325 1.374 . S
C1327 O1311 1.249 . S
C1327 O1312 1.264 . S
C1328 C1331 1.382 . S
C1328 C1332 1.390 . S
C1328 C1335 1.506 . S
C1329 C1330 1.398 . S
C1329 C1332 1.392 . S
C1330 C1329 1.398 . S
C1330 C1333 1.372 . S
C1330 H1340 0.931 . S
C1331 C1328 1.382 . S
C1331 C1333 1.390 . S
C1331 H1341 0.931 . S
C1332 C1328 1.390 . S
C1332 C1329 1.392 . S
C1332 H1342 0.930 . S
C1333 C1330 1.372 . S
C1333 C1331 1.390 . S
C1333 H1343 0.929 . S
C1334 O1314 1.255 . S
C1334 O1315 1.257 . S
C1335 Eu1271 2.787 . S
C1335 O1310 1.252 . S
C1335 O1313 1.268 . S
C1335 C1328 1.506 . S
H1336 C1319 0.931 . S
H1337 C1320 0.931 . S
H1338 C1321 0.929 . S
H1339 C1322 0.930 . S
H1340 C1330 0.931 . S
H1341 C1331 0.931 . S
H1342 C1332 0.930 . S
H1343 C1333 0.929 . S
Eu1344 N1373 2.600 . S
Eu1344 N1379 2.562 . S
Eu1344 O1388 2.462 . S
Eu1344 O1389 2.373 . S
Eu1344 O1391 2.432 . S
Eu1344 O1392 2.291 . S
Eu1344 O1396 2.335 . S
Eu1344 O1399 2.372 . S
Eu1344 C1408 2.787 . S
C1345 N1346 1.365 . S
C1345 C1348 1.405 . S
C1345 C1352 1.448 . S
N1346 C1345 1.365 . S
N1346 C1349 1.319 . S
N1346 Eu1355 2.600 . S
C1347 C1349 1.397 . S
C1347 C1350 1.367 . S
C1347 H1367 0.931 . S
C1348 C1345 1.405 . S
C1348 C1350 1.403 . S
C1348 C1354 1.439 . S
C1349 N1346 1.319 . S
C1349 C1347 1.397 . S
C1349 H1360 0.930 . S
C1350 C1347 1.367 . S
C1350 C1348 1.403 . S
C1350 H1371 0.929 . S
C1351 C1352 1.430 . S
C1351 C1353 1.387 . S
C1351 C1357 1.404 . S
C1352 C1345 1.448 . S
C1352 C1351 1.430 . S
C1352 N1356 1.351 . S
C1353 C1351 1.387 . S
C1353 C1354 1.374 . S
C1353 H1368 0.931 . S
C1354 C1348 1.439 . S
C1354 C1353 1.374 . S
C1354 H1369 0.931 . S
Eu1355 N1346 2.600 . S
Eu1355 N1356 2.562 . S
Eu1355 O1390 2.335 . S
Eu1355 O1393 2.372 . S
Eu1355 O1394 2.462 . S
Eu1355 O1395 2.373 . S
Eu1355 O1397 2.432 . S
Eu1355 O1398 2.291 . S
Eu1355 C1419 2.787 . S
N1356 C1352 1.351 . S
N1356 Eu1355 2.562 . S
N1356 C1358 1.325 . S
C1357 C1351 1.404 . S
C1357 C1359 1.366 . S
C1357 H1365 0.930 . S
C1358 N1356 1.325 . S
C1358 C1359 1.416 . S
C1358 H1364 0.929 . S
C1359 C1357 1.366 . S
C1359 C1358 1.416 . S
C1359 H1361 0.930 . S
H1360 C1349 0.930 . S
H1361 C1359 0.930 . S
H1362 C1377 0.930 . S
H1363 C1384 0.930 . S
H1364 C1358 0.929 . S
H1365 C1357 0.930 . S
H1366 C1380 0.929 . S
H1367 C1347 0.931 . S
H1368 C1353 0.931 . S
H1369 C1354 0.931 . S
H1370 C1375 0.931 . S
H1371 C1350 0.929 . S
H1372 C1383 0.930 . S
N1373 Eu1344 2.600 . S
N1373 C1374 1.365 . S
N1373 C1377 1.319 . S
C1374 N1373 1.365 . S
C1374 C1376 1.405 . S
C1374 C1382 1.448 . S
C1375 H1370 0.931 . S
C1375 C1377 1.397 . S
C1375 C1378 1.367 . S
C1376 C1374 1.405 . S
C1376 C1378 1.403 . S
C1376 C1409 1.439 . S
C1377 H1362 0.930 . S
C1377 N1373 1.319 . S
C1377 C1375 1.397 . S
C1378 C1375 1.367 . S
C1378 C1376 1.403 . S
C1378 H1385 0.929 . S
N1379 Eu1344 2.562 . S
N1379 C1380 1.325 . S
N1379 C1382 1.351 . S
C1380 H1366 0.929 . S
C1380 N1379 1.325 . S
C1380 C1384 1.416 . S
C1381 C1382 1.430 . S
C1381 C1383 1.404 . S
C1381 C1410 1.387 . S
C1382 C1374 1.448 . S
C1382 N1379 1.351 . S
C1382 C1381 1.430 . S
C1383 H1372 0.930 . S
C1383 C1381 1.404 . S
C1383 C1384 1.366 . S
C1384 H1363 0.930 . S
C1384 C1380 1.416 . S
C1384 C1383 1.366 . S
H1385 C1378 0.929 . S
H1386 C1409 0.931 . S
H1387 C1410 0.931 . S
O1388 Eu1344 2.462 . S
O1388 C1408 1.252 . S
O1389 Eu1344 2.373 . S
O1389 C1400 1.249 . S
O1390 Eu1355 2.335 . S
O1390 C1400 1.264 . S
O1391 Eu1344 2.432 . S
O1391 C1408 1.268 . S
O1392 Eu1344 2.291 . S
O1392 C1407 1.255 . S
O1393 Eu1355 2.372 . S
O1393 C1407 1.257 . S
O1394 Eu1355 2.462 . S
O1394 C1419 1.252 . S
O1395 Eu1355 2.373 . S
O1395 C1411 1.249 . S
O1396 Eu1344 2.335 . S
O1396 C1411 1.264 . S
O1397 Eu1355 2.432 . S
O1397 C1419 1.268 . S
O1398 Eu1355 2.291 . S
O1398 C1418 1.255 . S
O1399 Eu1344 2.372 . S
O1399 C1418 1.257 . S
C1400 O1389 1.249 . S
C1400 O1390 1.264 . S
C1401 C1404 1.382 . S
C1401 C1406 1.390 . S
C1401 C1408 1.506 . S
C1402 C1403 1.398 . S
C1402 C1406 1.392 . S
C1403 C1402 1.398 . S
C1403 C1405 1.372 . S
C1403 H1420 0.931 . S
C1404 C1401 1.382 . S
C1404 C1405 1.390 . S
C1404 H1421 0.931 . S
C1405 C1403 1.372 . S
C1405 C1404 1.390 . S
C1405 H1422 0.929 . S
C1406 C1401 1.390 . S
C1406 C1402 1.392 . S
C1406 H1423 0.930 . S
C1407 O1392 1.255 . S
C1407 O1393 1.257 . S
C1408 Eu1344 2.787 . S
C1408 O1388 1.252 . S
C1408 O1391 1.268 . S
C1408 C1401 1.506 . S
C1409 C1376 1.439 . S
C1409 H1386 0.931 . S
C1409 C1410 1.374 . S
C1410 C1381 1.387 . S
C1410 H1387 0.931 . S
C1410 C1409 1.374 . S
C1411 O1395 1.249 . S
C1411 O1396 1.264 . S
C1412 C1415 1.382 . S
C1412 C1416 1.390 . S
C1412 C1419 1.506 . S
C1413 C1414 1.398 . S
C1413 C1416 1.392 . S
C1414 C1413 1.398 . S
C1414 C1417 1.372 . S
C1414 H1424 0.931 . S
C1415 C1412 1.382 . S
C1415 C1417 1.390 . S
C1415 H1425 0.931 . S
C1416 C1412 1.390 . S
C1416 C1413 1.392 . S
C1416 H1426 0.930 . S
C1417 C1414 1.372 . S
C1417 C1415 1.390 . S
C1417 H1427 0.929 . S
C1418 O1398 1.255 . S
C1418 O1399 1.257 . S
C1419 Eu1355 2.787 . S
C1419 O1394 1.252 . S
C1419 O1397 1.268 . S
C1419 C1412 1.506 . S
H1420 C1403 0.931 . S
H1421 C1404 0.931 . S
H1422 C1405 0.929 . S
H1423 C1406 0.930 . S
H1424 C1414 0.931 . S
H1425 C1415 0.931 . S
H1426 C1416 0.930 . S
H1427 C1417 0.929 . S
Eu1428 N1457 2.600 . S
Eu1428 N1463 2.562 . S
Eu1428 O1472 2.462 . S
Eu1428 O1473 2.373 . S
Eu1428 O1475 2.432 . S
Eu1428 O1476 2.291 . S
Eu1428 O1480 2.335 . S
Eu1428 O1483 2.372 . S
Eu1428 C1492 2.787 . S
C1429 N1430 1.365 . S
C1429 C1432 1.405 . S
C1429 C1436 1.448 . S
N1430 C1429 1.365 . S
N1430 C1433 1.319 . S
N1430 Eu1439 2.600 . S
C1431 C1433 1.397 . S
C1431 C1434 1.367 . S
C1431 H1451 0.931 . S
C1432 C1429 1.405 . S
C1432 C1434 1.403 . S
C1432 C1438 1.439 . S
C1433 N1430 1.319 . S
C1433 C1431 1.397 . S
C1433 H1444 0.930 . S
C1434 C1431 1.367 . S
C1434 C1432 1.403 . S
C1434 H1455 0.929 . S
C1435 C1436 1.430 . S
C1435 C1437 1.387 . S
C1435 C1441 1.404 . S
C1436 C1429 1.448 . S
C1436 C1435 1.430 . S
C1436 N1440 1.351 . S
C1437 C1435 1.387 . S
C1437 C1438 1.374 . S
C1437 H1452 0.931 . S
C1438 C1432 1.439 . S
C1438 C1437 1.374 . S
C1438 H1453 0.931 . S
Eu1439 N1430 2.600 . S
Eu1439 N1440 2.562 . S
Eu1439 O1474 2.335 . S
Eu1439 O1477 2.372 . S
Eu1439 O1478 2.462 . S
Eu1439 O1479 2.373 . S
Eu1439 O1481 2.432 . S
Eu1439 O1482 2.291 . S
Eu1439 C1503 2.787 . S
N1440 C1436 1.351 . S
N1440 Eu1439 2.562 . S
N1440 C1442 1.325 . S
C1441 C1435 1.404 . S
C1441 C1443 1.366 . S
C1441 H1449 0.930 . S
C1442 N1440 1.325 . S
C1442 C1443 1.416 . S
C1442 H1448 0.929 . S
C1443 C1441 1.366 . S
C1443 C1442 1.416 . S
C1443 H1445 0.930 . S
H1444 C1433 0.930 . S
H1445 C1443 0.930 . S
H1446 C1461 0.930 . S
H1447 C1468 0.930 . S
H1448 C1442 0.929 . S
H1449 C1441 0.930 . S
H1450 C1464 0.929 . S
H1451 C1431 0.931 . S
H1452 C1437 0.931 . S
H1453 C1438 0.931 . S
H1454 C1459 0.931 . S
H1455 C1434 0.929 . S
H1456 C1467 0.930 . S
N1457 Eu1428 2.600 . S
N1457 C1458 1.365 . S
N1457 C1461 1.319 . S
C1458 N1457 1.365 . S
C1458 C1460 1.405 . S
C1458 C1466 1.448 . S
C1459 H1454 0.931 . S
C1459 C1461 1.397 . S
C1459 C1462 1.367 . S
C1460 C1458 1.405 . S
C1460 C1462 1.403 . S
C1460 C1493 1.439 . S
C1461 H1446 0.930 . S
C1461 N1457 1.319 . S
C1461 C1459 1.397 . S
C1462 C1459 1.367 . S
C1462 C1460 1.403 . S
C1462 H1469 0.929 . S
N1463 Eu1428 2.562 . S
N1463 C1464 1.325 . S
N1463 C1466 1.351 . S
C1464 H1450 0.929 . S
C1464 N1463 1.325 . S
C1464 C1468 1.416 . S
C1465 C1466 1.430 . S
C1465 C1467 1.404 . S
C1465 C1494 1.387 . S
C1466 C1458 1.448 . S
C1466 N1463 1.351 . S
C1466 C1465 1.430 . S
C1467 H1456 0.930 . S
C1467 C1465 1.404 . S
C1467 C1468 1.366 . S
C1468 H1447 0.930 . S
C1468 C1464 1.416 . S
C1468 C1467 1.366 . S
H1469 C1462 0.929 . S
H1470 C1493 0.931 . S
H1471 C1494 0.931 . S
O1472 Eu1428 2.462 . S
O1472 C1492 1.252 . S
O1473 Eu1428 2.373 . S
O1473 C1484 1.249 . S
O1474 Eu1439 2.335 . S
O1474 C1484 1.264 . S
O1475 Eu1428 2.432 . S
O1475 C1492 1.268 . S
O1476 Eu1428 2.291 . S
O1476 C1491 1.255 . S
O1477 Eu1439 2.372 . S
O1477 C1491 1.257 . S
O1478 Eu1439 2.462 . S
O1478 C1503 1.252 . S
O1479 Eu1439 2.373 . S
O1479 C1495 1.249 . S
O1480 Eu1428 2.335 . S
O1480 C1495 1.264 . S
O1481 Eu1439 2.432 . S
O1481 C1503 1.268 . S
O1482 Eu1439 2.291 . S
O1482 C1502 1.255 . S
O1483 Eu1428 2.372 . S
O1483 C1502 1.257 . S
C1484 O1473 1.249 . S
C1484 O1474 1.264 . S
C1485 C1488 1.382 . S
C1485 C1490 1.390 . S
C1485 C1492 1.506 . S
C1486 C1487 1.398 . S
C1486 C1490 1.392 . S
C1487 C1486 1.398 . S
C1487 C1489 1.372 . S
C1487 H1504 0.931 . S
C1488 C1485 1.382 . S
C1488 C1489 1.390 . S
C1488 H1505 0.931 . S
C1489 C1487 1.372 . S
C1489 C1488 1.390 . S
C1489 H1506 0.929 . S
C1490 C1485 1.390 . S
C1490 C1486 1.392 . S
C1490 H1507 0.930 . S
C1491 O1476 1.255 . S
C1491 O1477 1.257 . S
C1492 Eu1428 2.787 . S
C1492 O1472 1.252 . S
C1492 O1475 1.268 . S
C1492 C1485 1.506 . S
C1493 C1460 1.439 . S
C1493 H1470 0.931 . S
C1493 C1494 1.374 . S
C1494 C1465 1.387 . S
C1494 H1471 0.931 . S
C1494 C1493 1.374 . S
C1495 O1479 1.249 . S
C1495 O1480 1.264 . S
C1496 C1499 1.382 . S
C1496 C1500 1.390 . S
C1496 C1503 1.506 . S
C1497 C1498 1.398 . S
C1497 C1500 1.392 . S
C1498 C1497 1.398 . S
C1498 C1501 1.372 . S
C1498 H1508 0.931 . S
C1499 C1496 1.382 . S
C1499 C1501 1.390 . S
C1499 H1509 0.931 . S
C1500 C1496 1.390 . S
C1500 C1497 1.392 . S
C1500 H1510 0.930 . S
C1501 C1498 1.372 . S
C1501 C1499 1.390 . S
C1501 H1511 0.929 . S
C1502 O1482 1.255 . S
C1502 O1483 1.257 . S
C1503 Eu1439 2.787 . S
C1503 O1478 1.252 . S
C1503 O1481 1.268 . S
C1503 C1496 1.506 . S
H1504 C1487 0.931 . S
H1505 C1488 0.931 . S
H1506 C1489 0.929 . S
H1507 C1490 0.930 . S
H1508 C1498 0.931 . S
H1509 C1499 0.931 . S
H1510 C1500 0.930 . S
H1511 C1501 0.929 . S
Eu1512 N1541 2.600 . S
Eu1512 N1547 2.562 . S
Eu1512 O1556 2.462 . S
Eu1512 O1557 2.373 . S
Eu1512 O1559 2.432 . S
Eu1512 O1560 2.291 . S
Eu1512 O1564 2.335 . S
Eu1512 O1567 2.372 . S
Eu1512 C1576 2.787 . S
C1513 N1514 1.365 . S
C1513 C1516 1.405 . S
C1513 C1520 1.448 . S
N1514 C1513 1.365 . S
N1514 C1517 1.319 . S
N1514 Eu1523 2.600 . S
C1515 C1517 1.397 . S
C1515 C1518 1.367 . S
C1515 H1535 0.931 . S
C1516 C1513 1.405 . S
C1516 C1518 1.403 . S
C1516 C1522 1.439 . S
C1517 N1514 1.319 . S
C1517 C1515 1.397 . S
C1517 H1528 0.930 . S
C1518 C1515 1.367 . S
C1518 C1516 1.403 . S
C1518 H1539 0.929 . S
C1519 C1520 1.430 . S
C1519 C1521 1.387 . S
C1519 C1525 1.404 . S
C1520 C1513 1.448 . S
C1520 C1519 1.430 . S
C1520 N1524 1.351 . S
C1521 C1519 1.387 . S
C1521 C1522 1.374 . S
C1521 H1536 0.931 . S
C1522 C1516 1.439 . S
C1522 C1521 1.374 . S
C1522 H1537 0.931 . S
Eu1523 N1514 2.600 . S
Eu1523 N1524 2.562 . S
Eu1523 O1558 2.335 . S
Eu1523 O1561 2.372 . S
Eu1523 O1562 2.462 . S
Eu1523 O1563 2.373 . S
Eu1523 O1565 2.432 . S
Eu1523 O1566 2.291 . S
Eu1523 C1587 2.787 . S
N1524 C1520 1.351 . S
N1524 Eu1523 2.562 . S
N1524 C1526 1.325 . S
C1525 C1519 1.404 . S
C1525 C1527 1.366 . S
C1525 H1533 0.930 . S
C1526 N1524 1.325 . S
C1526 C1527 1.416 . S
C1526 H1532 0.929 . S
C1527 C1525 1.366 . S
C1527 C1526 1.416 . S
C1527 H1529 0.930 . S
H1528 C1517 0.930 . S
H1529 C1527 0.930 . S
H1530 C1545 0.930 . S
H1531 C1552 0.930 . S
H1532 C1526 0.929 . S
H1533 C1525 0.930 . S
H1534 C1548 0.929 . S
H1535 C1515 0.931 . S
H1536 C1521 0.931 . S
H1537 C1522 0.931 . S
H1538 C1543 0.931 . S
H1539 C1518 0.929 . S
H1540 C1551 0.930 . S
N1541 Eu1512 2.600 . S
N1541 C1542 1.365 . S
N1541 C1545 1.319 . S
C1542 N1541 1.365 . S
C1542 C1544 1.405 . S
C1542 C1550 1.448 . S
C1543 H1538 0.931 . S
C1543 C1545 1.397 . S
C1543 C1546 1.367 . S
C1544 C1542 1.405 . S
C1544 C1546 1.403 . S
C1544 C1577 1.439 . S
C1545 H1530 0.930 . S
C1545 N1541 1.319 . S
C1545 C1543 1.397 . S
C1546 C1543 1.367 . S
C1546 C1544 1.403 . S
C1546 H1553 0.929 . S
N1547 Eu1512 2.562 . S
N1547 C1548 1.325 . S
N1547 C1550 1.351 . S
C1548 H1534 0.929 . S
C1548 N1547 1.325 . S
C1548 C1552 1.416 . S
C1549 C1550 1.430 . S
C1549 C1551 1.404 . S
C1549 C1578 1.387 . S
C1550 C1542 1.448 . S
C1550 N1547 1.351 . S
C1550 C1549 1.430 . S
C1551 H1540 0.930 . S
C1551 C1549 1.404 . S
C1551 C1552 1.366 . S
C1552 H1531 0.930 . S
C1552 C1548 1.416 . S
C1552 C1551 1.366 . S
H1553 C1546 0.929 . S
H1554 C1577 0.931 . S
H1555 C1578 0.931 . S
O1556 Eu1512 2.462 . S
O1556 C1576 1.252 . S
O1557 Eu1512 2.373 . S
O1557 C1568 1.249 . S
O1558 Eu1523 2.335 . S
O1558 C1568 1.264 . S
O1559 Eu1512 2.432 . S
O1559 C1576 1.268 . S
O1560 Eu1512 2.291 . S
O1560 C1575 1.255 . S
O1561 Eu1523 2.372 . S
O1561 C1575 1.257 . S
O1562 Eu1523 2.462 . S
O1562 C1587 1.252 . S
O1563 Eu1523 2.373 . S
O1563 C1579 1.249 . S
O1564 Eu1512 2.335 . S
O1564 C1579 1.264 . S
O1565 Eu1523 2.432 . S
O1565 C1587 1.268 . S
O1566 Eu1523 2.291 . S
O1566 C1586 1.255 . S
O1567 Eu1512 2.372 . S
O1567 C1586 1.257 . S
C1568 O1557 1.249 . S
C1568 O1558 1.264 . S
C1569 C1572 1.382 . S
C1569 C1574 1.390 . S
C1569 C1576 1.506 . S
C1570 C1571 1.398 . S
C1570 C1574 1.392 . S
C1571 C1570 1.398 . S
C1571 C1573 1.372 . S
C1571 H1588 0.931 . S
C1572 C1569 1.382 . S
C1572 C1573 1.390 . S
C1572 H1589 0.931 . S
C1573 C1571 1.372 . S
C1573 C1572 1.390 . S
C1573 H1590 0.929 . S
C1574 C1569 1.390 . S
C1574 C1570 1.392 . S
C1574 H1591 0.930 . S
C1575 O1560 1.255 . S
C1575 O1561 1.257 . S
C1576 Eu1512 2.787 . S
C1576 O1556 1.252 . S
C1576 O1559 1.268 . S
C1576 C1569 1.506 . S
C1577 C1544 1.439 . S
C1577 H1554 0.931 . S
C1577 C1578 1.374 . S
C1578 C1549 1.387 . S
C1578 H1555 0.931 . S
C1578 C1577 1.374 . S
C1579 O1563 1.249 . S
C1579 O1564 1.264 . S
C1580 C1583 1.382 . S
C1580 C1584 1.390 . S
C1580 C1587 1.506 . S
C1581 C1582 1.398 . S
C1581 C1584 1.392 . S
C1582 C1581 1.398 . S
C1582 C1585 1.372 . S
C1582 H1592 0.931 . S
C1583 C1580 1.382 . S
C1583 C1585 1.390 . S
C1583 H1593 0.931 . S
C1584 C1580 1.390 . S
C1584 C1581 1.392 . S
C1584 H1594 0.930 . S
C1585 C1582 1.372 . S
C1585 C1583 1.390 . S
C1585 H1595 0.929 . S
C1586 O1566 1.255 . S
C1586 O1567 1.257 . S
C1587 Eu1523 2.787 . S
C1587 O1562 1.252 . S
C1587 O1565 1.268 . S
C1587 C1580 1.506 . S
H1588 C1571 0.931 . S
H1589 C1572 0.931 . S
H1590 C1573 0.929 . S
H1591 C1574 0.930 . S
H1592 C1582 0.931 . S
H1593 C1583 0.931 . S
H1594 C1584 0.930 . S
H1595 C1585 0.929 . S
Eu1596 N1625 2.593 1_455 S
Eu1596 N1631 2.543 1_455 S
Eu1596 O1640 2.434 1_455 S
Eu1596 O1641 2.391 . S
Eu1596 O1643 2.410 1_455 S
Eu1596 O1644 2.297 1_455 S
Eu1596 O1648 2.343 . S
Eu1596 O1651 2.394 . S
Eu1596 C1660 2.759 1_455 S
C1597 N1598 1.365 . S
C1597 C1600 1.405 . S
C1597 C1604 1.448 1_556 S
N1598 C1597 1.365 . S
N1598 C1601 1.319 . S
N1598 Eu1607 2.600 1_556 S
C1599 C1601 1.397 . S
C1599 C1602 1.367 . S
C1599 H1619 0.931 . S
C1600 C1597 1.405 . S
C1600 C1602 1.403 . S
C1600 C1606 1.439 . S
C1601 N1598 1.319 . S
C1601 C1599 1.397 . S
C1601 H1612 0.930 . S
C1602 C1599 1.367 . S
C1602 C1600 1.403 . S
C1602 H1623 0.929 . S
C1603 C1604 1.430 . S
C1603 C1605 1.371 1_554 S
C1603 C1609 1.404 . S
C1604 C1597 1.448 1_554 S
C1604 C1603 1.430 . S
C1604 N1608 1.351 . S
C1605 C1603 1.371 1_556 S
C1605 C1606 1.392 . S
C1605 H1620 0.930 1_556 S
C1606 C1600 1.439 . S
C1606 C1605 1.392 . S
C1606 H1621 0.931 . S
Eu1607 N1598 2.600 1_554 S
Eu1607 N1608 2.562 . S
Eu1607 O1642 2.335 . S
Eu1607 O1645 2.372 1_554 S
Eu1607 O1646 2.462 . S
Eu1607 O1647 2.373 . S
Eu1607 O1649 2.432 1_554 S
Eu1607 O1650 2.291 . S
Eu1607 C1671 2.787 . S
N1608 C1604 1.351 . S
N1608 Eu1607 2.562 . S
N1608 C1610 1.325 . S
C1609 C1603 1.404 . S
C1609 C1611 1.366 . S
C1609 H1617 0.930 . S
C1610 N1608 1.325 . S
C1610 C1611 1.416 . S
C1610 H1616 0.929 . S
C1611 C1609 1.366 . S
C1611 C1610 1.416 . S
C1611 H1613 0.930 . S
H1612 C1601 0.930 . S
H1613 C1611 0.930 . S
H1614 C1629 0.930 . S
H1615 C1636 0.930 1_556 S
H1616 C1610 0.929 . S
H1617 C1609 0.930 . S
H1618 C1632 0.929 . S
H1619 C1599 0.931 . S
H1620 C1605 0.930 1_554 S
H1621 C1606 0.931 . S
H1622 C1627 0.931 1_455 S
H1623 C1602 0.929 . S
H1624 C1635 0.930 . S
N1625 Eu1596 2.593 1_655 S
N1625 C1626 1.365 . S
N1625 C1629 1.319 1_655 S
C1626 N1625 1.365 . S
C1626 C1628 1.405 . S
C1626 C1634 1.448 . S
C1627 H1622 0.931 1_655 S
C1627 C1629 1.397 1_655 S
C1627 C1630 1.367 . S
C1628 C1626 1.405 . S
C1628 C1630 1.403 . S
C1628 C1661 1.439 . S
C1629 H1614 0.930 . S
C1629 N1625 1.319 1_455 S
C1629 C1627 1.397 1_455 S
C1630 C1627 1.367 . S
C1630 C1628 1.403 . S
C1630 H1637 0.929 . S
N1631 Eu1596 2.543 1_655 S
N1631 C1632 1.325 . S
N1631 C1634 1.351 . S
C1632 H1618 0.929 . S
C1632 N1631 1.325 . S
C1632 C1636 1.416 . S
C1633 C1634 1.430 . S
C1633 C1635 1.404 . S
C1633 C1662 1.387 . S
C1634 C1626 1.448 . S
C1634 N1631 1.351 . S
C1634 C1633 1.430 . S
C1635 H1624 0.930 . S
C1635 C1633 1.404 . S
C1635 C1636 1.366 . S
C1636 H1615 0.930 1_554 S
C1636 C1632 1.416 . S
C1636 C1635 1.366 . S
H1637 C1630 0.929 . S
H1638 C1661 0.931 . S
H1639 C1662 0.931 . S
O1640 Eu1596 2.434 1_655 S
O1640 C1660 1.252 . S
O1641 Eu1596 2.391 . S
O1641 C1652 1.249 . S
O1642 Eu1607 2.335 . S
O1642 C1652 1.264 . S
O1643 Eu1596 2.410 1_655 S
O1643 C1660 1.268 . S
O1644 Eu1596 2.297 1_655 S
O1644 C1659 1.254 1_654 S
O1645 Eu1607 2.372 1_556 S
O1645 C1659 1.257 . S
O1646 Eu1607 2.462 . S
O1646 C1671 1.252 . S
O1647 Eu1607 2.373 . S
O1647 C1663 1.249 . S
O1648 Eu1596 2.343 . S
O1648 C1663 1.264 . S
O1649 Eu1607 2.432 1_556 S
O1649 C1671 1.268 1_556 S
O1650 Eu1607 2.291 . S
O1650 C1670 1.255 . S
O1651 Eu1596 2.394 . S
O1651 C1670 1.257 . S
C1652 O1641 1.249 . S
C1652 O1642 1.264 . S
C1653 C1656 1.382 . S
C1653 C1658 1.390 . S
C1653 C1660 1.506 . S
C1654 C1655 1.398 . S
C1654 C1658 1.392 . S
C1655 C1654 1.398 . S
C1655 C1657 1.372 . S
C1655 H1672 0.931 . S
C1656 C1653 1.382 . S
C1656 C1657 1.390 . S
C1656 H1673 0.931 . S
C1657 C1655 1.372 . S
C1657 C1656 1.390 . S
C1657 H1674 0.929 . S
C1658 C1653 1.390 . S
C1658 C1654 1.392 . S
C1658 H1675 0.930 . S
C1659 O1644 1.254 1_456 S
C1659 O1645 1.257 . S
C1660 Eu1596 2.759 1_655 S
C1660 O1640 1.252 . S
C1660 O1643 1.268 . S
C1660 C1653 1.506 . S
C1661 C1628 1.439 . S
C1661 H1638 0.931 . S
C1661 C1662 1.374 . S
C1662 C1633 1.387 . S
C1662 H1639 0.931 . S
C1662 C1661 1.374 . S
C1663 O1647 1.249 . S
C1663 O1648 1.264 . S
C1664 C1667 1.382 . S
C1664 C1668 1.390 1_556 S
C1664 C1671 1.506 1_556 S
C1665 C1666 1.398 1_554 S
C1665 C1668 1.392 . S
C1666 C1665 1.398 1_556 S
C1666 C1669 1.372 . S
C1666 H1676 0.931 . S
C1667 C1664 1.382 . S
C1667 C1669 1.390 . S
C1667 H1677 0.931 . S
C1668 C1664 1.390 1_554 S
C1668 C1665 1.392 . S
C1668 H1678 0.930 . S
C1669 C1666 1.372 . S
C1669 C1667 1.390 . S
C1669 H1679 0.929 . S
C1670 O1650 1.255 . S
C1670 O1651 1.257 . S
C1671 Eu1607 2.787 . S
C1671 O1646 1.252 . S
C1671 O1649 1.268 1_554 S
C1671 C1664 1.506 1_554 S
H1672 C1655 0.931 . S
H1673 C1656 0.931 . S
H1674 C1657 0.929 . S
H1675 C1658 0.930 . S
H1676 C1666 0.931 . S
H1677 C1667 0.931 . S
H1678 C1668 0.930 . S
H1679 C1669 0.929 . S
C1680 C1681 1.363 . S
C1680 C1686 1.379 . S
C1680 N1688 1.356 . S
C1681 C1680 1.363 . S
C1681 C1687 1.363 1_454 S
C1682 C1683 1.363 1_556 S
C1682 C1687 1.379 1_455 S
C1682 N1689 1.356 . S
C1683 C1682 1.363 1_554 S
C1683 C1686 1.363 . S
N1684 C1686 1.356 . S
N1684 H1696 0.984 . S
N1684 H1697 0.985 . S
N1685 C1687 1.356 . S
N1685 H1690 0.984 . S
N1685 H1691 0.985 . S
C1686 C1680 1.379 . S
C1686 C1683 1.363 . S
C1686 N1684 1.356 . S
C1687 C1681 1.363 1_656 S
C1687 C1682 1.379 1_655 S
C1687 N1685 1.356 . S
N1688 C1680 1.356 . S
N1688 H1694 0.984 . S
N1688 H1695 0.984 . S
N1689 C1682 1.356 . S
N1689 H1692 0.984 . S
N1689 H1693 0.985 1_455 S
H1690 N1685 0.984 . S
H1691 N1685 0.985 . S
H1692 N1689 0.984 . S
H1693 N1689 0.985 1_655 S
H1694 N1688 0.984 . S
H1695 N1688 0.984 . S
H1696 N1684 0.984 . S
H1697 N1684 0.985 . S
C1698 C1699 1.363 . S
C1698 C1704 1.379 . S
C1698 N1706 1.356 . S
C1699 C1698 1.363 . S
C1699 C1705 1.363 . S
C1700 C1701 1.363 . S
C1700 C1705 1.379 . S
C1700 N1707 1.356 . S
C1701 C1700 1.363 . S
C1701 C1704 1.363 . S
N1702 C1704 1.356 . S
N1702 H1714 0.984 . S
N1702 H1715 0.985 . S
N1703 C1705 1.356 . S
N1703 H1708 0.984 . S
N1703 H1709 0.985 . S
C1704 C1698 1.379 . S
C1704 C1701 1.363 . S
C1704 N1702 1.356 . S
C1705 C1699 1.363 . S
C1705 C1700 1.379 . S
C1705 N1703 1.356 . S
N1706 C1698 1.356 . S
N1706 H1712 0.984 . S
N1706 H1713 0.984 . S
N1707 C1700 1.356 . S
N1707 H1710 0.984 . S
N1707 H1711 0.985 . S
H1708 N1703 0.984 . S
H1709 N1703 0.985 . S
H1710 N1707 0.984 . S
H1711 N1707 0.985 . S
H1712 N1706 0.984 . S
H1713 N1706 0.984 . S
H1714 N1702 0.984 . S
H1715 N1702 0.985 . S
C1716 C1717 1.363 . S
C1716 C1722 1.379 . S
C1716 N1724 1.356 . S
C1717 C1716 1.363 . S
C1717 C1723 1.363 . S
C1718 C1719 1.363 . S
C1718 C1723 1.379 . S
C1718 N1725 1.356 . S
C1719 C1718 1.363 . S
C1719 C1722 1.363 . S
N1720 C1722 1.356 . S
N1720 H1732 0.984 . S
N1720 H1733 0.985 . S
N1721 C1723 1.356 . S
N1721 H1726 0.984 . S
N1721 H1727 0.985 . S
C1722 C1716 1.379 . S
C1722 C1719 1.363 . S
C1722 N1720 1.356 . S
C1723 C1717 1.363 . S
C1723 C1718 1.379 . S
C1723 N1721 1.356 . S
N1724 C1716 1.356 . S
N1724 H1730 0.984 . S
N1724 H1731 0.984 . S
N1725 C1718 1.356 . S
N1725 H1728 0.984 . S
N1725 H1729 0.985 . S
H1726 N1721 0.984 . S
H1727 N1721 0.985 . S
H1728 N1725 0.984 . S
H1729 N1725 0.985 . S
H1730 N1724 0.984 . S
H1731 N1724 0.984 . S
H1732 N1720 0.984 . S
H1733 N1720 0.985 . S
C1734 C1735 1.363 . S
C1734 C1740 1.379 . S
C1734 N1742 1.356 . S
C1735 C1734 1.363 . S
C1735 C1741 1.363 . S
C1736 C1737 1.363 . S
C1736 C1741 1.379 . S
C1736 N1743 1.356 . S
C1737 C1736 1.363 . S
C1737 C1740 1.363 . S
N1738 C1740 1.356 . S
N1738 H1750 0.984 . S
N1738 H1751 0.985 . S
N1739 C1741 1.356 . S
N1739 H1744 0.984 . S
N1739 H1745 0.985 . S
C1740 C1734 1.379 . S
C1740 C1737 1.363 . S
C1740 N1738 1.356 . S
C1741 C1735 1.363 . S
C1741 C1736 1.379 . S
C1741 N1739 1.356 . S
N1742 C1734 1.356 . S
N1742 H1748 0.984 . S
N1742 H1749 0.984 . S
N1743 C1736 1.356 . S
N1743 H1746 0.984 . S
N1743 H1747 0.985 . S
H1744 N1739 0.984 . S
H1745 N1739 0.985 . S
H1746 N1743 0.984 . S
H1747 N1743 0.985 . S
H1748 N1742 0.984 . S
H1749 N1742 0.984 . S
H1750 N1738 0.984 . S
H1751 N1738 0.985 . S
C1752 C1753 1.363 . S
C1752 C1758 1.379 . S
C1752 N1760 1.356 . S
C1753 C1752 1.363 . S
C1753 C1759 1.363 . S
C1754 C1755 1.363 . S
C1754 C1759 1.379 . S
C1754 N1761 1.356 . S
C1755 C1754 1.363 . S
C1755 C1758 1.363 . S
N1756 C1758 1.356 . S
N1756 H1768 0.984 . S
N1756 H1769 0.985 . S
N1757 C1759 1.356 . S
N1757 H1762 0.984 . S
N1757 H1763 0.985 . S
C1758 C1752 1.379 . S
C1758 C1755 1.363 . S
C1758 N1756 1.356 . S
C1759 C1753 1.363 . S
C1759 C1754 1.379 . S
C1759 N1757 1.356 . S
N1760 C1752 1.356 . S
N1760 H1766 0.984 . S
N1760 H1767 0.984 . S
N1761 C1754 1.356 . S
N1761 H1764 0.984 . S
N1761 H1765 0.985 . S
H1762 N1757 0.984 . S
H1763 N1757 0.985 . S
H1764 N1761 0.984 . S
H1765 N1761 0.985 . S
H1766 N1760 0.984 . S
H1767 N1760 0.984 . S
H1768 N1756 0.984 . S
H1769 N1756 0.985 . S
C1770 C1771 1.363 . S
C1770 C1776 1.379 . S
C1770 N1778 1.356 . S
C1771 C1770 1.363 . S
C1771 C1777 1.363 . S
C1772 C1773 1.363 . S
C1772 C1777 1.379 . S
C1772 N1779 1.356 . S
C1773 C1772 1.363 . S
C1773 C1776 1.363 . S
N1774 C1776 1.356 . S
N1774 H1786 0.984 . S
N1774 H1787 0.985 . S
N1775 C1777 1.356 . S
N1775 H1780 0.984 . S
N1775 H1781 0.985 . S
C1776 C1770 1.379 . S
C1776 C1773 1.363 . S
C1776 N1774 1.356 . S
C1777 C1771 1.363 . S
C1777 C1772 1.379 . S
C1777 N1775 1.356 . S
N1778 C1770 1.356 . S
N1778 H1784 0.984 . S
N1778 H1785 0.984 . S
N1779 C1772 1.356 . S
N1779 H1782 0.984 . S
N1779 H1783 0.985 . S
H1780 N1775 0.984 . S
H1781 N1775 0.985 . S
H1782 N1779 0.984 . S
H1783 N1779 0.985 . S
H1784 N1778 0.984 . S
H1785 N1778 0.984 . S
H1786 N1774 0.984 . S
H1787 N1774 0.985 . S
C1788 C1789 1.363 . S
C1788 C1794 1.379 . S
C1788 N1796 1.356 . S
C1789 C1788 1.363 . S
C1789 C1795 1.363 . S
C1790 C1791 1.363 . S
C1790 C1795 1.379 . S
C1790 N1797 1.356 . S
C1791 C1790 1.363 . S
C1791 C1794 1.363 . S
N1792 C1794 1.356 . S
N1792 H1804 0.984 . S
N1792 H1805 0.985 . S
N1793 C1795 1.356 . S
N1793 H1798 0.984 . S
N1793 H1799 0.985 . S
C1794 C1788 1.379 . S
C1794 C1791 1.363 . S
C1794 N1792 1.356 . S
C1795 C1789 1.363 . S
C1795 C1790 1.379 . S
C1795 N1793 1.356 . S
N1796 C1788 1.356 . S
N1796 H1802 0.984 . S
N1796 H1803 0.984 . S
N1797 C1790 1.356 . S
N1797 H1800 0.984 . S
N1797 H1801 0.985 . S
H1798 N1793 0.984 . S
H1799 N1793 0.985 . S
H1800 N1797 0.984 . S
H1801 N1797 0.985 . S
H1802 N1796 0.984 . S
H1803 N1796 0.984 . S
H1804 N1792 0.984 . S
H1805 N1792 0.985 . S
C1806 C1807 1.363 . S
C1806 C1812 1.379 . S
C1806 N1814 1.356 . S
C1807 C1806 1.363 . S
C1807 C1813 1.363 . S
C1808 C1809 1.363 . S
C1808 C1813 1.379 . S
C1808 N1815 1.356 . S
C1809 C1808 1.363 . S
C1809 C1812 1.363 . S
N1810 C1812 1.356 . S
N1810 H1822 0.984 . S
N1810 H1823 0.985 . S
N1811 C1813 1.356 . S
N1811 H1816 0.984 . S
N1811 H1817 0.985 . S
C1812 C1806 1.379 . S
C1812 C1809 1.363 . S
C1812 N1810 1.356 . S
C1813 C1807 1.363 . S
C1813 C1808 1.379 . S
C1813 N1811 1.356 . S
N1814 C1806 1.356 . S
N1814 H1820 0.984 . S
N1814 H1821 0.984 . S
N1815 C1808 1.356 . S
N1815 H1818 0.984 . S
N1815 H1819 0.985 . S
H1816 N1811 0.984 . S
H1817 N1811 0.985 . S
H1818 N1815 0.984 . S
H1819 N1815 0.985 . S
H1820 N1814 0.984 . S
H1821 N1814 0.984 . S
H1822 N1810 0.984 . S
H1823 N1810 0.985 . S
C1824 C1825 1.363 1_455 S
C1824 C1830 1.379 . S
C1824 N1832 1.356 . S
C1825 C1824 1.363 1_655 S
C1825 C1831 1.363 . S
C1826 C1827 1.363 1_655 S
C1826 C1831 1.379 . S
C1826 N1833 1.356 . S
C1827 C1826 1.363 1_455 S
C1827 C1830 1.363 . S
N1828 C1830 1.356 . S
N1828 H1840 0.984 . S
N1828 H1841 0.985 . S
N1829 C1831 1.363 . S
N1829 H1834 0.979 1_545 S
N1829 H1835 0.984 1_545 S
C1830 C1824 1.379 . S
C1830 C1827 1.363 . S
C1830 N1828 1.356 . S
C1831 C1825 1.363 . S
C1831 C1826 1.379 . S
C1831 N1829 1.363 . S
N1832 C1824 1.356 . S
N1832 H1838 0.984 . S
N1832 H1839 0.984 . S
N1833 C1826 1.356 . S
N1833 H1836 0.984 . S
N1833 H1837 0.985 . S
H1834 N1829 0.979 1_565 S
H1835 N1829 0.984 1_565 S
H1836 N1833 0.984 . S
H1837 N1833 0.985 . S
H1838 N1832 0.984 . S
H1839 N1832 0.984 . S
H1840 N1828 0.984 . S
H1841 N1828 0.985 . S
C1842 C1843 1.363 . S
C1842 C1848 1.379 . S
C1842 N1850 1.356 . S
C1843 C1842 1.363 . S
C1843 C1849 1.363 . S
C1844 C1845 1.363 . S
C1844 C1849 1.379 . S
C1844 N1851 1.356 . S
C1845 C1844 1.363 . S
C1845 C1848 1.363 . S
N1846 C1848 1.356 . S
N1846 H1858 0.984 . S
N1846 H1859 0.985 . S
N1847 C1849 1.356 . S
N1847 H1852 0.984 . S
N1847 H1853 0.985 . S
C1848 C1842 1.379 . S
C1848 C1845 1.363 . S
C1848 N1846 1.356 . S
C1849 C1843 1.363 . S
C1849 C1844 1.379 . S
C1849 N1847 1.356 . S
N1850 C1842 1.356 . S
N1850 H1856 0.984 . S
N1850 H1857 0.984 . S
N1851 C1844 1.356 . S
N1851 H1854 0.984 . S
N1851 H1855 0.985 . S
H1852 N1847 0.984 . S
H1853 N1847 0.985 . S
H1854 N1851 0.984 . S
H1855 N1851 0.985 . S
H1856 N1850 0.984 . S
H1857 N1850 0.984 . S
H1858 N1846 0.984 . S
H1859 N1846 0.985 . S
C1860 C1861 1.363 . S
C1860 C1866 1.379 . S
C1860 N1868 1.356 . S
C1861 C1860 1.363 . S
C1861 C1867 1.363 . S
C1862 C1863 1.363 . S
C1862 C1867 1.379 . S
C1862 N1869 1.356 . S
C1863 C1862 1.363 . S
C1863 C1866 1.363 . S
N1864 C1866 1.356 . S
N1864 H1876 0.984 . S
N1864 H1877 0.985 . S
N1865 C1867 1.356 . S
N1865 H1870 0.984 . S
N1865 H1871 0.985 . S
C1866 C1860 1.379 . S
C1866 C1863 1.363 . S
C1866 N1864 1.356 . S
C1867 C1861 1.363 . S
C1867 C1862 1.379 . S
C1867 N1865 1.356 . S
N1868 C1860 1.356 . S
N1868 H1874 0.984 . S
N1868 H1875 0.984 . S
N1869 C1862 1.356 . S
N1869 H1872 0.984 . S
N1869 H1873 0.985 . S
H1870 N1865 0.984 . S
H1871 N1865 0.985 . S
H1872 N1869 0.984 . S
H1873 N1869 0.985 . S
H1874 N1868 0.984 . S
H1875 N1868 0.984 . S
H1876 N1864 0.984 . S
H1877 N1864 0.985 . S
C1878 C1879 1.363 . S
C1878 C1884 1.379 . S
C1878 N1886 1.356 . S
C1879 C1878 1.363 . S
C1879 C1885 1.363 . S
C1880 C1881 1.363 . S
C1880 C1885 1.379 . S
C1880 N1887 1.356 . S
C1881 C1880 1.363 . S
C1881 C1884 1.363 . S
N1882 C1884 1.356 . S
N1882 H1894 0.984 . S
N1882 H1895 0.985 . S
N1883 C1885 1.356 . S
N1883 H1888 0.984 . S
N1883 H1889 0.985 . S
C1884 C1878 1.379 . S
C1884 C1881 1.363 . S
C1884 N1882 1.356 . S
C1885 C1879 1.363 . S
C1885 C1880 1.379 . S
C1885 N1883 1.356 . S
N1886 C1878 1.356 . S
N1886 H1892 0.984 . S
N1886 H1893 0.984 . S
N1887 C1880 1.356 . S
N1887 H1890 0.984 . S
N1887 H1891 0.985 . S
H1888 N1883 0.984 . S
H1889 N1883 0.985 . S
H1890 N1887 0.984 . S
H1891 N1887 0.985 . S
H1892 N1886 0.984 . S
H1893 N1886 0.984 . S
H1894 N1882 0.984 . S
H1895 N1882 0.985 . S
C1896 C1897 1.363 1_455 S
C1896 C1902 1.379 . S
C1896 N1904 1.356 . S
C1897 C1896 1.363 1_655 S
C1897 C1903 1.361 . S
C1898 C1899 1.363 1_655 S
C1898 C1903 1.379 . S
C1898 N1905 1.356 1_545 S
C1899 C1898 1.363 1_455 S
C1899 C1902 1.363 . S
N1900 C1902 1.356 . S
N1900 H1912 0.984 . S
N1900 H1913 0.985 . S
N1901 C1903 1.357 1_565 S
N1901 H1906 0.984 . S
N1901 H1907 0.985 . S
C1902 C1896 1.379 . S
C1902 C1899 1.363 . S
C1902 N1900 1.356 . S
C1903 C1897 1.361 . S
C1903 C1898 1.379 . S
C1903 N1901 1.357 1_545 S
N1904 C1896 1.356 . S
N1904 H1910 0.984 . S
N1904 H1911 0.984 . S
N1905 C1898 1.356 1_565 S
N1905 H1908 0.984 . S
N1905 H1909 0.985 . S
H1906 N1901 0.984 . S
H1907 N1901 0.985 . S
H1908 N1905 0.984 . S
H1909 N1905 0.985 . S
H1910 N1904 0.984 . S
H1911 N1904 0.984 . S
H1912 N1900 0.984 . S
H1913 N1900 0.985 . S
C1914 C1915 1.363 . S
C1914 C1920 1.379 . S
C1914 N1922 1.356 . S
C1915 C1914 1.363 . S
C1915 C1921 1.363 . S
C1916 C1917 1.363 . S
C1916 C1921 1.379 . S
C1916 N1923 1.356 . S
C1917 C1916 1.363 . S
C1917 C1920 1.363 . S
N1918 C1920 1.356 . S
N1918 H1930 0.984 . S
N1918 H1931 0.985 . S
N1919 C1921 1.356 . S
N1919 H1924 0.984 . S
N1919 H1925 0.985 . S
C1920 C1914 1.379 . S
C1920 C1917 1.363 . S
C1920 N1918 1.356 . S
C1921 C1915 1.363 . S
C1921 C1916 1.379 . S
C1921 N1919 1.356 . S
N1922 C1914 1.356 . S
N1922 H1928 0.984 . S
N1922 H1929 0.984 . S
N1923 C1916 1.356 . S
N1923 H1926 0.984 . S
N1923 H1927 0.985 . S
H1924 N1919 0.984 . S
H1925 N1919 0.985 . S
H1926 N1923 0.984 . S
H1927 N1923 0.985 . S
H1928 N1922 0.984 . S
H1929 N1922 0.984 . S
H1930 N1918 0.984 . S
H1931 N1918 0.985 . S
C1932 C1933 1.363 . S
C1932 C1938 1.379 . S
C1932 N1940 1.356 . S
C1933 C1932 1.363 . S
C1933 C1939 1.363 . S
C1934 C1935 1.363 . S
C1934 C1939 1.379 . S
C1934 N1941 1.356 . S
C1935 C1934 1.363 . S
C1935 C1938 1.363 . S
N1936 C1938 1.356 . S
N1936 H1948 0.984 . S
N1936 H1949 0.985 . S
N1937 C1939 1.356 . S
N1937 H1942 0.984 . S
N1937 H1943 0.985 . S
C1938 C1932 1.379 . S
C1938 C1935 1.363 . S
C1938 N1936 1.356 . S
C1939 C1933 1.363 . S
C1939 C1934 1.379 . S
C1939 N1937 1.356 . S
N1940 C1932 1.356 . S
N1940 H1946 0.984 . S
N1940 H1947 0.984 . S
N1941 C1934 1.356 . S
N1941 H1944 0.984 . S
N1941 H1945 0.985 . S
H1942 N1937 0.984 . S
H1943 N1937 0.985 . S
H1944 N1941 0.984 . S
H1945 N1941 0.985 . S
H1946 N1940 0.984 . S
H1947 N1940 0.984 . S
H1948 N1936 0.984 . S
H1949 N1936 0.985 . S
C1950 C1951 1.363 . S
C1950 C1956 1.379 . S
C1950 N1958 1.356 . S
C1951 C1950 1.363 . S
C1951 C1957 1.363 . S
C1952 C1953 1.363 . S
C1952 C1957 1.379 . S
C1952 N1959 1.356 . S
C1953 C1952 1.363 . S
C1953 C1956 1.363 . S
N1954 C1956 1.356 . S
N1954 H1966 0.984 . S
N1954 H1967 0.985 . S
N1955 C1957 1.356 . S
N1955 H1960 0.984 . S
N1955 H1961 0.985 . S
C1956 C1950 1.379 . S
C1956 C1953 1.363 . S
C1956 N1954 1.356 . S
C1957 C1951 1.363 . S
C1957 C1952 1.379 . S
C1957 N1955 1.356 . S
N1958 C1950 1.356 . S
N1958 H1964 0.984 . S
N1958 H1965 0.984 . S
N1959 C1952 1.356 . S
N1959 H1962 0.984 . S
N1959 H1963 0.985 . S
H1960 N1955 0.984 . S
H1961 N1955 0.985 . S
H1962 N1959 0.984 . S
H1963 N1959 0.985 . S
H1964 N1958 0.984 . S
H1965 N1958 0.984 . S
H1966 N1954 0.984 . S
H1967 N1954 0.985 . S
C1968 C1969 1.363 . S
C1968 C1974 1.379 . S
C1968 N1976 1.356 . S
C1969 C1968 1.363 . S
C1969 C1975 1.363 1_565 S
C1970 C1971 1.363 . S
C1970 C1975 1.379 . S
C1970 N1977 1.356 . S
C1971 C1970 1.363 . S
C1971 C1974 1.363 1_545 S
N1972 C1974 1.356 . S
N1972 H1984 0.984 . S
N1972 H1985 0.985 . S
N1973 C1975 1.356 1_556 S
N1973 H1978 0.984 . S
N1973 H1979 0.985 . S
C1974 C1968 1.379 . S
C1974 C1971 1.363 1_565 S
C1974 N1972 1.356 . S
C1975 C1969 1.363 1_545 S
C1975 C1970 1.379 . S
C1975 N1973 1.356 1_554 S
N1976 C1968 1.356 . S
N1976 H1982 0.984 . S
N1976 H1983 0.984 . S
N1977 C1970 1.356 . S
N1977 H1980 0.984 . S
N1977 H1981 0.985 . S
H1978 N1973 0.984 . S
H1979 N1973 0.985 . S
H1980 N1977 0.984 . S
H1981 N1977 0.985 . S
H1982 N1976 0.984 . S
H1983 N1976 0.984 . S
H1984 N1972 0.984 . S
H1985 N1972 0.985 . S
C1986 C1987 1.363 . S
C1986 C1992 1.379 . S
C1986 N1994 1.356 . S
C1987 C1986 1.363 . S
C1987 C1993 1.363 . S
C1988 C1989 1.363 . S
C1988 C1993 1.379 . S
C1988 N1995 1.356 . S
C1989 C1988 1.363 . S
C1989 C1992 1.363 . S
N1990 C1992 1.356 . S
N1990 H2002 0.984 . S
N1990 H2003 0.985 . S
N1991 C1993 1.356 . S
N1991 H1996 0.984 . S
N1991 H1997 0.985 . S
C1992 C1986 1.379 . S
C1992 C1989 1.363 . S
C1992 N1990 1.356 . S
C1993 C1987 1.363 . S
C1993 C1988 1.379 . S
C1993 N1991 1.356 . S
N1994 C1986 1.356 . S
N1994 H2000 0.984 . S
N1994 H2001 0.984 . S
N1995 C1988 1.356 . S
N1995 H1998 0.984 . S
N1995 H1999 0.985 . S
H1996 N1991 0.984 . S
H1997 N1991 0.985 . S
H1998 N1995 0.984 . S
H1999 N1995 0.985 . S
H2000 N1994 0.984 . S
H2001 N1994 0.984 . S
H2002 N1990 0.984 . S
H2003 N1990 0.985 . S
C2004 C2005 1.363 . S
C2004 C2010 1.379 . S
C2004 N2012 1.356 . S
C2005 C2004 1.363 . S
C2005 C2011 1.363 . S
C2006 C2007 1.363 . S
C2006 C2011 1.379 . S
C2006 N2013 1.356 . S
C2007 C2006 1.363 . S
C2007 C2010 1.363 . S
N2008 C2010 1.356 . S
N2008 H2020 0.984 . S
N2008 H2021 0.985 . S
N2009 C2011 1.356 . S
N2009 H2014 0.984 . S
N2009 H2015 0.985 . S
C2010 C2004 1.379 . S
C2010 C2007 1.363 . S
C2010 N2008 1.356 . S
C2011 C2005 1.363 . S
C2011 C2006 1.379 . S
C2011 N2009 1.356 . S
N2012 C2004 1.356 . S
N2012 H2018 0.984 . S
N2012 H2019 0.984 . S
N2013 C2006 1.356 . S
N2013 H2016 0.984 . S
N2013 H2017 0.985 . S
H2014 N2009 0.984 . S
H2015 N2009 0.985 . S
H2016 N2013 0.984 . S
H2017 N2013 0.985 . S
H2018 N2012 0.984 . S
H2019 N2012 0.984 . S
H2020 N2008 0.984 . S
H2021 N2008 0.985 . S
C2022 C2023 1.363 . S
C2022 C2028 1.379 . S
C2022 N2030 1.356 . S
C2023 C2022 1.363 . S
C2023 C2029 1.363 . S
C2024 C2025 1.363 . S
C2024 C2029 1.379 . S
C2024 N2031 1.356 . S
C2025 C2024 1.363 . S
C2025 C2028 1.363 . S
N2026 C2028 1.356 . S
N2026 H2038 0.984 . S
N2026 H2039 0.985 . S
N2027 C2029 1.356 . S
N2027 H2032 0.984 . S
N2027 H2033 0.985 . S
C2028 C2022 1.379 . S
C2028 C2025 1.363 . S
C2028 N2026 1.356 . S
C2029 C2023 1.363 . S
C2029 C2024 1.379 . S
C2029 N2027 1.356 . S
N2030 C2022 1.356 . S
N2030 H2036 0.984 . S
N2030 H2037 0.984 . S
N2031 C2024 1.356 . S
N2031 H2034 0.984 . S
N2031 H2035 0.985 . S
H2032 N2027 0.984 . S
H2033 N2027 0.985 . S
H2034 N2031 0.984 . S
H2035 N2031 0.985 . S
H2036 N2030 0.984 . S
H2037 N2030 0.984 . S
H2038 N2026 0.984 . S
H2039 N2026 0.985 . S
C2040 C2041 1.363 . S
C2040 C2046 1.379 . S
C2040 N2048 1.356 . S
C2041 C2040 1.363 . S
C2041 C2047 1.363 . S
C2042 C2043 1.363 . S
C2042 C2047 1.379 . S
C2042 N2049 1.356 . S
C2043 C2042 1.363 . S
C2043 C2046 1.363 . S
N2044 C2046 1.356 . S
N2044 H2056 0.984 . S
N2044 H2057 0.985 . S
N2045 C2047 1.356 . S
N2045 H2050 0.984 . S
N2045 H2051 0.985 . S
C2046 C2040 1.379 . S
C2046 C2043 1.363 . S
C2046 N2044 1.356 . S
C2047 C2041 1.363 . S
C2047 C2042 1.379 . S
C2047 N2045 1.356 . S
N2048 C2040 1.356 . S
N2048 H2054 0.984 . S
N2048 H2055 0.984 . S
N2049 C2042 1.356 . S
N2049 H2052 0.984 . S
N2049 H2053 0.985 . S
H2050 N2045 0.984 . S
H2051 N2045 0.985 . S
H2052 N2049 0.984 . S
H2053 N2049 0.985 . S
H2054 N2048 0.984 . S
H2055 N2048 0.984 . S
H2056 N2044 0.984 . S
H2057 N2044 0.985 . S
C2058 C2059 1.363 . S
C2058 C2064 1.379 . S
C2058 N2066 1.356 . S
C2059 C2058 1.363 . S
C2059 C2065 1.363 . S
C2060 C2061 1.363 . S
C2060 C2065 1.379 . S
C2060 N2067 1.356 . S
C2061 C2060 1.363 . S
C2061 C2064 1.363 . S
N2062 C2064 1.356 . S
N2062 H2074 0.984 . S
N2062 H2075 0.985 . S
N2063 C2065 1.356 . S
N2063 H2068 0.984 . S
N2063 H2069 0.985 . S
C2064 C2058 1.379 . S
C2064 C2061 1.363 . S
C2064 N2062 1.356 . S
C2065 C2059 1.363 . S
C2065 C2060 1.379 . S
C2065 N2063 1.356 . S
N2066 C2058 1.356 . S
N2066 H2072 0.984 . S
N2066 H2073 0.984 . S
N2067 C2060 1.356 . S
N2067 H2070 0.984 . S
N2067 H2071 0.985 . S
H2068 N2063 0.984 . S
H2069 N2063 0.985 . S
H2070 N2067 0.984 . S
H2071 N2067 0.985 . S
H2072 N2066 0.984 . S
H2073 N2066 0.984 . S
H2074 N2062 0.984 . S
H2075 N2062 0.985 . S
C2076 C2077 1.363 . S
C2076 C2082 1.379 . S
C2076 N2084 1.356 . S
C2077 C2076 1.363 . S
C2077 C2083 1.363 . S
C2078 C2079 1.363 . S
C2078 C2083 1.379 . S
C2078 N2085 1.356 . S
C2079 C2078 1.363 . S
C2079 C2082 1.363 . S
N2080 C2082 1.356 . S
N2080 H2092 0.984 . S
N2080 H2093 0.985 . S
N2081 C2083 1.356 . S
N2081 H2086 0.984 . S
N2081 H2087 0.985 . S
C2082 C2076 1.379 . S
C2082 C2079 1.363 . S
C2082 N2080 1.356 . S
C2083 C2077 1.363 . S
C2083 C2078 1.379 . S
C2083 N2081 1.356 . S
N2084 C2076 1.356 . S
N2084 H2090 0.984 . S
N2084 H2091 0.984 . S
N2085 C2078 1.356 . S
N2085 H2088 0.984 . S
N2085 H2089 0.985 . S
H2086 N2081 0.984 . S
H2087 N2081 0.985 . S
H2088 N2085 0.984 . S
H2089 N2085 0.985 . S
H2090 N2084 0.984 . S
H2091 N2084 0.984 . S
H2092 N2080 0.984 . S
H2093 N2080 0.985 . S
C2094 C2095 1.363 . S
C2094 C2100 1.379 . S
C2094 N2102 1.356 . S
C2095 C2094 1.363 . S
C2095 C2101 1.363 . S
C2096 C2097 1.363 . S
C2096 C2101 1.379 . S
C2096 N2103 1.356 . S
C2097 C2096 1.363 . S
C2097 C2100 1.363 . S
N2098 C2100 1.356 . S
N2098 H2110 0.984 . S
N2098 H2111 0.985 . S
N2099 C2101 1.356 . S
N2099 H2104 0.984 . S
N2099 H2105 0.985 . S
C2100 C2094 1.379 . S
C2100 C2097 1.363 . S
C2100 N2098 1.356 . S
C2101 C2095 1.363 . S
C2101 C2096 1.379 . S
C2101 N2099 1.356 . S
N2102 C2094 1.356 . S
N2102 H2108 0.984 . S
N2102 H2109 0.984 . S
N2103 C2096 1.356 . S
N2103 H2106 0.984 . S
N2103 H2107 0.985 . S
H2104 N2099 0.984 . S
H2105 N2099 0.985 . S
H2106 N2103 0.984 . S
H2107 N2103 0.985 . S
H2108 N2102 0.984 . S
H2109 N2102 0.984 . S
H2110 N2098 0.984 . S
H2111 N2098 0.985 . S
C2112 C2113 1.363 . S
C2112 C2118 1.379 . S
C2112 N2120 1.356 . S
C2113 C2112 1.363 . S
C2113 C2119 1.363 . S
C2114 C2115 1.363 . S
C2114 C2119 1.379 . S
C2114 N2121 1.356 . S
C2115 C2114 1.363 . S
C2115 C2118 1.363 . S
N2116 C2118 1.356 . S
N2116 H2128 0.984 . S
N2116 H2129 0.985 . S
N2117 C2119 1.356 . S
N2117 H2122 0.984 . S
N2117 H2123 0.985 . S
C2118 C2112 1.379 . S
C2118 C2115 1.363 . S
C2118 N2116 1.356 . S
C2119 C2113 1.363 . S
C2119 C2114 1.379 . S
C2119 N2117 1.356 . S
N2120 C2112 1.356 . S
N2120 H2126 0.984 . S
N2120 H2127 0.984 . S
N2121 C2114 1.356 . S
N2121 H2124 0.984 . S
N2121 H2125 0.985 . S
H2122 N2117 0.984 . S
H2123 N2117 0.985 . S
H2124 N2121 0.984 . S
H2125 N2121 0.985 . S
H2126 N2120 0.984 . S
H2127 N2120 0.984 . S
H2128 N2116 0.984 . S
H2129 N2116 0.985 . S
C2130 C2131 1.363 . S
C2130 C2136 1.379 . S
C2130 N2138 1.356 . S
C2131 C2130 1.363 . S
C2131 C2137 1.363 . S
C2132 C2133 1.363 . S
C2132 C2137 1.379 . S
C2132 N2139 1.356 . S
C2133 C2132 1.363 . S
C2133 C2136 1.363 . S
N2134 C2136 1.356 . S
N2134 H2146 0.984 . S
N2134 H2147 0.985 . S
N2135 C2137 1.356 . S
N2135 H2140 0.984 . S
N2135 H2141 0.985 . S
C2136 C2130 1.379 . S
C2136 C2133 1.363 . S
C2136 N2134 1.356 . S
C2137 C2131 1.363 . S
C2137 C2132 1.379 . S
C2137 N2135 1.356 . S
N2138 C2130 1.356 . S
N2138 H2144 0.984 . S
N2138 H2145 0.984 . S
N2139 C2132 1.356 . S
N2139 H2142 0.984 . S
N2139 H2143 0.985 . S
H2140 N2135 0.984 . S
H2141 N2135 0.985 . S
H2142 N2139 0.984 . S
H2143 N2139 0.985 . S
H2144 N2138 0.984 . S
H2145 N2138 0.984 . S
H2146 N2134 0.984 . S
H2147 N2134 0.985 . S
C2148 C2149 1.363 . S
C2148 C2154 1.379 . S
C2148 N2156 1.356 . S
C2149 C2148 1.363 . S
C2149 C2155 1.363 . S
C2150 C2151 1.363 . S
C2150 C2155 1.379 . S
C2150 N2157 1.356 . S
C2151 C2150 1.363 . S
C2151 C2154 1.363 . S
N2152 C2154 1.356 . S
N2152 H2164 0.984 . S
N2152 H2165 0.985 . S
N2153 C2155 1.356 . S
N2153 H2158 0.984 . S
N2153 H2159 0.985 . S
C2154 C2148 1.379 . S
C2154 C2151 1.363 . S
C2154 N2152 1.356 . S
C2155 C2149 1.363 . S
C2155 C2150 1.379 . S
C2155 N2153 1.356 . S
N2156 C2148 1.356 . S
N2156 H2162 0.984 . S
N2156 H2163 0.984 . S
N2157 C2150 1.356 . S
N2157 H2160 0.984 . S
N2157 H2161 0.985 . S
H2158 N2153 0.984 . S
H2159 N2153 0.985 . S
H2160 N2157 0.984 . S
H2161 N2157 0.985 . S
H2162 N2156 0.984 . S
H2163 N2156 0.984 . S
H2164 N2152 0.984 . S
H2165 N2152 0.985 . S
C2166 C2167 1.363 . S
C2166 C2172 1.379 . S
C2166 N2174 1.356 . S
C2167 C2166 1.363 . S
C2167 C2173 1.363 . S
C2168 C2169 1.363 . S
C2168 C2173 1.379 . S
C2168 N2175 1.356 . S
C2169 C2168 1.363 . S
C2169 C2172 1.363 . S
N2170 C2172 1.356 . S
N2170 H2182 0.984 . S
N2170 H2183 0.985 . S
N2171 C2173 1.356 . S
N2171 H2176 0.984 . S
N2171 H2177 0.985 . S
C2172 C2166 1.379 . S
C2172 C2169 1.363 . S
C2172 N2170 1.356 . S
C2173 C2167 1.363 . S
C2173 C2168 1.379 . S
C2173 N2171 1.356 . S
N2174 C2166 1.356 . S
N2174 H2180 0.984 . S
N2174 H2181 0.984 . S
N2175 C2168 1.356 . S
N2175 H2178 0.984 . S
N2175 H2179 0.985 . S
H2176 N2171 0.984 . S
H2177 N2171 0.985 . S
H2178 N2175 0.984 . S
H2179 N2175 0.985 . S
H2180 N2174 0.984 . S
H2181 N2174 0.984 . S
H2182 N2170 0.984 . S
H2183 N2170 0.985 . S
C2184 C2185 1.363 . S
C2184 C2190 1.379 . S
C2184 N2192 1.356 . S
C2185 C2184 1.363 . S
C2185 C2191 1.363 . S
C2186 C2187 1.363 . S
C2186 C2191 1.379 . S
C2186 N2193 1.356 1_455 S
C2187 C2186 1.363 . S
C2187 C2190 1.363 . S
N2188 C2190 1.356 . S
N2188 H2200 0.984 . S
N2188 H2201 0.985 . S
N2189 C2191 1.356 . S
N2189 H2194 0.984 . S
N2189 H2195 0.985 1_455 S
C2190 C2184 1.379 . S
C2190 C2187 1.363 . S
C2190 N2188 1.356 . S
C2191 C2185 1.363 . S
C2191 C2186 1.379 . S
C2191 N2189 1.356 . S
N2192 C2184 1.356 . S
N2192 H2198 0.984 . S
N2192 H2199 0.984 . S
N2193 C2186 1.356 1_655 S
N2193 H2196 0.984 1_655 S
N2193 H2197 0.985 . S
H2194 N2189 0.984 . S
H2195 N2189 0.985 1_655 S
H2196 N2193 0.984 1_455 S
H2197 N2193 0.985 . S
H2198 N2192 0.984 . S
H2199 N2192 0.984 . S
H2200 N2188 0.984 . S
H2201 N2188 0.985 . S
C2202 C2203 1.363 . S
C2202 C2208 1.379 . S
C2202 N2210 1.356 . S
C2203 C2202 1.363 . S
C2203 C2209 1.363 . S
C2204 C2205 1.363 . S
C2204 C2209 1.379 . S
C2204 N2211 1.356 . S
C2205 C2204 1.363 . S
C2205 C2208 1.363 . S
N2206 C2208 1.356 . S
N2206 H2218 0.984 . S
N2206 H2219 0.985 . S
N2207 C2209 1.356 . S
N2207 H2212 0.984 . S
N2207 H2213 0.985 . S
C2208 C2202 1.379 . S
C2208 C2205 1.363 . S
C2208 N2206 1.356 . S
C2209 C2203 1.363 . S
C2209 C2204 1.379 . S
C2209 N2207 1.356 . S
N2210 C2202 1.356 . S
N2210 H2216 0.984 . S
N2210 H2217 0.984 . S
N2211 C2204 1.356 . S
N2211 H2214 0.984 . S
N2211 H2215 0.985 . S
H2212 N2207 0.984 . S
H2213 N2207 0.985 . S
H2214 N2211 0.984 . S
H2215 N2211 0.985 . S
H2216 N2210 0.984 . S
H2217 N2210 0.984 . S
H2218 N2206 0.984 . S
H2219 N2206 0.985 . S
C2220 C2221 1.363 . S
C2220 C2226 1.379 . S
C2220 N2228 1.356 . S
C2221 C2220 1.363 . S
C2221 C2227 1.363 . S
C2222 C2223 1.363 . S
C2222 C2227 1.379 . S
C2222 N2229 1.356 . S
C2223 C2222 1.363 . S
C2223 C2226 1.363 . S
N2224 C2226 1.356 . S
N2224 H2236 0.984 1_556 S
N2224 H2237 0.985 1_556 S
N2225 C2227 1.356 . S
N2225 H2230 0.984 . S
N2225 H2231 0.985 . S
C2226 C2220 1.379 . S
C2226 C2223 1.363 . S
C2226 N2224 1.356 . S
C2227 C2221 1.363 . S
C2227 C2222 1.379 . S
C2227 N2225 1.356 . S
N2228 C2220 1.356 . S
N2228 H2234 0.984 . S
N2228 H2235 0.984 . S
N2229 C2222 1.356 . S
N2229 H2232 0.984 . S
N2229 H2233 0.985 . S
H2230 N2225 0.984 . S
H2231 N2225 0.985 . S
H2232 N2229 0.984 . S
H2233 N2229 0.985 . S
H2234 N2228 0.984 . S
H2235 N2228 0.984 . S
H2236 N2224 0.984 1_554 S
H2237 N2224 0.985 1_554 S
C2238 C2239 1.363 . S
C2238 C2244 1.379 . S
C2238 N2246 1.356 . S
C2239 C2238 1.363 . S
C2239 C2245 1.363 . S
C2240 C2241 1.363 . S
C2240 C2245 1.379 . S
C2240 N2247 1.356 . S
C2241 C2240 1.363 . S
C2241 C2244 1.363 . S
N2242 C2244 1.356 . S
N2242 H2254 0.984 . S
N2242 H2255 0.985 . S
N2243 C2245 1.356 . S
N2243 H2248 0.984 . S
N2243 H2249 0.985 . S
C2244 C2238 1.379 . S
C2244 C2241 1.363 . S
C2244 N2242 1.356 . S
C2245 C2239 1.363 . S
C2245 C2240 1.379 . S
C2245 N2243 1.356 . S
N2246 C2238 1.356 . S
N2246 H2252 0.984 . S
N2246 H2253 0.984 . S
N2247 C2240 1.356 . S
N2247 H2250 0.984 . S
N2247 H2251 0.985 . S
H2248 N2243 0.984 . S
H2249 N2243 0.985 . S
H2250 N2247 0.984 . S
H2251 N2247 0.985 . S
H2252 N2246 0.984 . S
H2253 N2246 0.984 . S
H2254 N2242 0.984 . S
H2255 N2242 0.985 . S
C2256 C2257 1.363 . S
C2256 C2262 1.379 . S
C2256 N2264 1.356 . S
C2257 C2256 1.363 . S
C2257 C2263 1.363 . S
C2258 C2259 1.363 . S
C2258 C2263 1.379 . S
C2258 N2265 1.356 1_545 S
C2259 C2258 1.363 . S
C2259 C2262 1.363 . S
N2260 C2262 1.356 . S
N2260 H2272 0.984 . S
N2260 H2273 0.985 . S
N2261 C2263 1.356 . S
N2261 H2266 0.984 . S
N2261 H2267 0.985 1_545 S
C2262 C2256 1.379 . S
C2262 C2259 1.363 . S
C2262 N2260 1.356 . S
C2263 C2257 1.363 . S
C2263 C2258 1.379 . S
C2263 N2261 1.356 . S
N2264 C2256 1.356 . S
N2264 H2270 0.984 . S
N2264 H2271 0.984 . S
N2265 C2258 1.356 1_565 S
N2265 H2268 0.984 . S
N2265 H2269 0.985 . S
H2266 N2261 0.984 . S
H2267 N2261 0.985 1_565 S
H2268 N2265 0.984 . S
H2269 N2265 0.985 . S
H2270 N2264 0.984 . S
H2271 N2264 0.984 . S
H2272 N2260 0.984 . S
H2273 N2260 0.985 . S
C2274 C2275 1.363 . S
C2274 C2280 1.379 . S
C2274 N2282 1.356 . S
C2275 C2274 1.363 . S
C2275 C2281 1.363 . S
C2276 C2277 1.363 . S
C2276 C2281 1.379 . S
C2276 N2283 1.356 . S
C2277 C2276 1.363 . S
C2277 C2280 1.363 . S
N2278 C2280 1.356 . S
N2278 H2290 0.984 . S
N2278 H2291 0.985 . S
N2279 C2281 1.356 . S
N2279 H2284 0.984 . S
N2279 H2285 0.985 . S
C2280 C2274 1.379 . S
C2280 C2277 1.363 . S
C2280 N2278 1.356 . S
C2281 C2275 1.363 . S
C2281 C2276 1.379 . S
C2281 N2279 1.356 . S
N2282 C2274 1.356 . S
N2282 H2288 0.984 . S
N2282 H2289 0.984 . S
N2283 C2276 1.356 . S
N2283 H2286 0.984 . S
N2283 H2287 0.985 . S
H2284 N2279 0.984 . S
H2285 N2279 0.985 . S
H2286 N2283 0.984 . S
H2287 N2283 0.985 . S
H2288 N2282 0.984 . S
H2289 N2282 0.984 . S
H2290 N2278 0.984 . S
H2291 N2278 0.985 . S
C2292 C2293 1.363 1_565 S
C2292 C2298 1.379 1_565 S
C2292 N2300 1.356 . S
C2293 C2292 1.363 1_545 S
C2293 C2299 1.363 . S
C2294 C2295 1.363 . S
C2294 C2299 1.379 . S
C2294 N2301 1.356 . S
C2295 C2294 1.363 . S
C2295 C2298 1.363 . S
N2296 C2298 1.356 1_565 S
N2296 H2308 0.984 . S
N2296 H2309 0.985 1_565 S
N2297 C2299 1.356 . S
N2297 H2302 0.984 . S
N2297 H2303 0.985 . S
C2298 C2292 1.379 1_545 S
C2298 C2295 1.363 . S
C2298 N2296 1.356 1_545 S
C2299 C2293 1.363 . S
C2299 C2294 1.379 . S
C2299 N2297 1.356 . S
N2300 C2292 1.356 . S
N2300 H2306 0.984 . S
N2300 H2307 0.984 . S
N2301 C2294 1.356 . S
N2301 H2304 0.984 . S
N2301 H2305 0.985 . S
H2302 N2297 0.984 . S
H2303 N2297 0.985 . S
H2304 N2301 0.984 . S
H2305 N2301 0.985 . S
H2306 N2300 0.984 . S
H2307 N2300 0.984 . S
H2308 N2296 0.984 . S
H2309 N2296 0.985 1_545 S
C2310 C2311 1.363 . S
C2310 C2316 1.379 . S
C2310 N2318 1.356 . S
C2311 C2310 1.363 . S
C2311 C2317 1.363 . S
C2312 C2313 1.363 . S
C2312 C2317 1.379 . S
C2312 N2319 1.356 . S
C2313 C2312 1.363 . S
C2313 C2316 1.363 . S
N2314 C2316 1.356 . S
N2314 H2326 0.984 . S
N2314 H2327 0.985 . S
N2315 C2317 1.356 . S
N2315 H2320 0.984 . S
N2315 H2321 0.985 . S
C2316 C2310 1.379 . S
C2316 C2313 1.363 . S
C2316 N2314 1.356 . S
C2317 C2311 1.363 . S
C2317 C2312 1.379 . S
C2317 N2315 1.356 . S
N2318 C2310 1.356 . S
N2318 H2324 0.984 . S
N2318 H2325 0.984 . S
N2319 C2312 1.356 . S
N2319 H2322 0.984 . S
N2319 H2323 0.985 . S
H2320 N2315 0.984 . S
H2321 N2315 0.985 . S
H2322 N2319 0.984 . S
H2323 N2319 0.985 . S
H2324 N2318 0.984 . S
H2325 N2318 0.984 . S
H2326 N2314 0.984 . S
H2327 N2314 0.985 . S
C2328 C2329 1.363 . S
C2328 C2334 1.379 . S
C2328 N2336 1.356 . S
C2329 C2328 1.363 . S
C2329 C2335 1.363 . S
C2330 C2331 1.363 . S
C2330 C2335 1.379 . S
C2330 N2337 1.356 . S
C2331 C2330 1.363 . S
C2331 C2334 1.363 . S
N2332 C2334 1.356 . S
N2332 H2344 0.984 1_545 S
N2332 H2345 0.985 . S
N2333 C2335 1.356 . S
N2333 H2338 0.984 . S
N2333 H2339 0.985 . S
C2334 C2328 1.379 . S
C2334 C2331 1.363 . S
C2334 N2332 1.356 . S
C2335 C2329 1.363 . S
C2335 C2330 1.379 . S
C2335 N2333 1.356 . S
N2336 C2328 1.356 . S
N2336 H2342 0.977 1_545 S
N2336 H2343 0.984 . S
N2337 C2330 1.356 . S
N2337 H2340 0.984 . S
N2337 H2341 0.985 . S
H2338 N2333 0.984 . S
H2339 N2333 0.985 . S
H2340 N2337 0.984 . S
H2341 N2337 0.985 . S
H2342 N2336 0.977 1_565 S
H2343 N2336 0.984 . S
H2344 N2332 0.984 1_565 S
H2345 N2332 0.985 . S
C2346 C2347 1.363 . S
C2346 C2352 1.379 . S
C2346 N2354 1.356 . S
C2347 C2346 1.363 . S
C2347 C2353 1.363 . S
C2348 C2349 1.363 . S
C2348 C2353 1.379 . S
C2348 N2355 1.356 . S
C2349 C2348 1.363 . S
C2349 C2352 1.363 . S
N2350 C2352 1.356 . S
N2350 H2362 0.984 . S
N2350 H2363 0.985 . S
N2351 C2353 1.356 . S
N2351 H2356 0.984 . S
N2351 H2357 0.985 . S
C2352 C2346 1.379 . S
C2352 C2349 1.363 . S
C2352 N2350 1.356 . S
C2353 C2347 1.363 . S
C2353 C2348 1.379 . S
C2353 N2351 1.356 . S
N2354 C2346 1.356 . S
N2354 H2360 0.984 . S
N2354 H2361 0.984 . S
N2355 C2348 1.356 . S
N2355 H2358 0.984 . S
N2355 H2359 0.985 . S
H2356 N2351 0.984 . S
H2357 N2351 0.985 . S
H2358 N2355 0.984 . S
H2359 N2355 0.985 . S
H2360 N2354 0.984 . S
H2361 N2354 0.984 . S
H2362 N2350 0.984 . S
H2363 N2350 0.985 . S
C2364 C2365 1.363 1_565 S
C2364 C2370 1.379 . S
C2364 N2372 1.356 . S
C2365 C2364 1.363 1_545 S
C2365 C2371 1.363 . S
C2366 C2367 1.363 . S
C2366 C2371 1.379 . S
C2366 N2373 1.356 . S
C2367 C2366 1.363 . S
C2367 C2370 1.363 1_545 S
N2368 C2370 1.356 . S
N2368 H2380 0.984 . S
N2368 H2381 0.985 . S
N2369 C2371 1.356 . S
N2369 H2374 0.984 . S
N2369 H2375 0.985 . S
C2370 C2364 1.379 . S
C2370 C2367 1.363 1_565 S
C2370 N2368 1.356 . S
C2371 C2365 1.363 . S
C2371 C2366 1.379 . S
C2371 N2369 1.356 . S
N2372 C2364 1.356 . S
N2372 H2378 0.984 . S
N2372 H2379 0.984 . S
N2373 C2366 1.356 . S
N2373 H2376 0.984 . S
N2373 H2377 0.985 . S
H2374 N2369 0.984 . S
H2375 N2369 0.985 . S
H2376 N2373 0.984 . S
H2377 N2373 0.985 . S
H2378 N2372 0.984 . S
H2379 N2372 0.984 . S
H2380 N2368 0.984 . S
H2381 N2368 0.985 . S
C2382 C2383 1.363 . S
C2382 C2388 1.379 . S
C2382 N2390 1.356 . S
C2383 C2382 1.363 . S
C2383 C2389 1.363 . S
C2384 C2385 1.363 . S
C2384 C2389 1.379 . S
C2384 N2391 1.356 . S
C2385 C2384 1.363 . S
C2385 C2388 1.363 . S
N2386 C2388 1.356 . S
N2386 H2398 0.984 . S
N2386 H2399 0.985 . S
N2387 C2389 1.356 . S
N2387 H2392 0.984 . S
N2387 H2393 0.985 . S
C2388 C2382 1.379 . S
C2388 C2385 1.363 . S
C2388 N2386 1.356 . S
C2389 C2383 1.363 . S
C2389 C2384 1.379 . S
C2389 N2387 1.356 . S
N2390 C2382 1.356 . S
N2390 H2396 0.984 . S
N2390 H2397 0.984 . S
N2391 C2384 1.356 . S
N2391 H2394 0.984 . S
N2391 H2395 0.985 . S
H2392 N2387 0.984 . S
H2393 N2387 0.985 . S
H2394 N2391 0.984 . S
H2395 N2391 0.985 . S
H2396 N2390 0.984 . S
H2397 N2390 0.984 . S
H2398 N2386 0.984 . S
H2399 N2386 0.985 . S
C2400 C2401 1.363 . S
C2400 C2406 1.379 . S
C2400 N2408 1.356 . S
C2401 C2400 1.363 . S
C2401 C2407 1.363 . S
C2402 C2403 1.363 . S
C2402 C2407 1.379 . S
C2402 N2409 1.356 . S
C2403 C2402 1.363 . S
C2403 C2406 1.363 . S
N2404 C2406 1.356 . S
N2404 H2416 0.984 1_554 S
N2404 H2417 0.985 1_554 S
N2405 C2407 1.356 . S
N2405 H2410 0.984 . S
N2405 H2411 0.985 . S
C2406 C2400 1.379 . S
C2406 C2403 1.363 . S
C2406 N2404 1.356 . S
C2407 C2401 1.363 . S
C2407 C2402 1.379 . S
C2407 N2405 1.356 . S
N2408 C2400 1.356 . S
N2408 H2414 0.984 . S
N2408 H2415 0.984 . S
N2409 C2402 1.356 . S
N2409 H2412 0.984 . S
N2409 H2413 0.985 . S
H2410 N2405 0.984 . S
H2411 N2405 0.985 . S
H2412 N2409 0.984 . S
H2413 N2409 0.985 . S
H2414 N2408 0.984 . S
H2415 N2408 0.984 . S
H2416 N2404 0.984 1_556 S
H2417 N2404 0.985 1_556 S
C2418 C2419 1.363 . S
C2418 C2424 1.379 . S
C2418 N2426 1.356 . S
C2419 C2418 1.363 . S
C2419 C2425 1.363 . S
C2420 C2421 1.363 . S
C2420 C2425 1.379 . S
C2420 N2427 1.356 . S
C2421 C2420 1.363 . S
C2421 C2424 1.363 . S
N2422 C2424 1.356 . S
N2422 H2434 0.984 . S
N2422 H2435 0.985 . S
N2423 C2425 1.356 . S
N2423 H2428 0.984 . S
N2423 H2429 0.985 . S
C2424 C2418 1.379 . S
C2424 C2421 1.363 . S
C2424 N2422 1.356 . S
C2425 C2419 1.363 . S
C2425 C2420 1.379 . S
C2425 N2423 1.356 . S
N2426 C2418 1.356 . S
N2426 H2432 0.984 . S
N2426 H2433 0.984 . S
N2427 C2420 1.356 . S
N2427 H2430 0.984 . S
N2427 H2431 0.985 . S
H2428 N2423 0.984 . S
H2429 N2423 0.985 . S
H2430 N2427 0.984 . S
H2431 N2427 0.985 . S
H2432 N2426 0.984 . S
H2433 N2426 0.984 . S
H2434 N2422 0.984 . S
H2435 N2422 0.985 . S
C2436 C2437 1.363 . S
C2436 C2442 1.379 . S
C2436 N2444 1.356 . S
C2437 C2436 1.363 . S
C2437 C2443 1.363 . S
C2438 C2439 1.363 . S
C2438 C2443 1.379 . S
C2438 N2445 1.356 . S
C2439 C2438 1.363 . S
C2439 C2442 1.363 . S
N2440 C2442 1.356 . S
N2440 H2452 0.984 . S
N2440 H2453 0.985 . S
N2441 C2443 1.356 . S
N2441 H2446 0.984 . S
N2441 H2447 0.985 . S
C2442 C2436 1.379 . S
C2442 C2439 1.363 . S
C2442 N2440 1.356 . S
C2443 C2437 1.363 . S
C2443 C2438 1.379 . S
C2443 N2441 1.356 . S
N2444 C2436 1.356 . S
N2444 H2450 0.984 . S
N2444 H2451 0.984 . S
N2445 C2438 1.356 . S
N2445 H2448 0.984 . S
N2445 H2449 0.985 . S
H2446 N2441 0.984 . S
H2447 N2441 0.985 . S
H2448 N2445 0.984 . S
H2449 N2445 0.985 . S
H2450 N2444 0.984 . S
H2451 N2444 0.984 . S
H2452 N2440 0.984 . S
H2453 N2440 0.985 . S
C2454 C2455 1.363 . S
C2454 C2460 1.379 . S
C2454 N2462 1.356 . S
C2455 C2454 1.363 . S
C2455 C2461 1.363 . S
C2456 C2457 1.363 . S
C2456 C2461 1.379 . S
C2456 N2463 1.356 . S
C2457 C2456 1.363 . S
C2457 C2460 1.363 . S
N2458 C2460 1.356 . S
N2458 H2470 0.984 . S
N2458 H2471 0.985 . S
N2459 C2461 1.356 . S
N2459 H2464 0.984 . S
N2459 H2465 0.985 . S
C2460 C2454 1.379 . S
C2460 C2457 1.363 . S
C2460 N2458 1.356 . S
C2461 C2455 1.363 . S
C2461 C2456 1.379 . S
C2461 N2459 1.356 . S
N2462 C2454 1.356 . S
N2462 H2468 0.984 . S
N2462 H2469 0.984 . S
N2463 C2456 1.356 . S
N2463 H2466 0.984 . S
N2463 H2467 0.985 . S
H2464 N2459 0.984 . S
H2465 N2459 0.985 . S
H2466 N2463 0.984 . S
H2467 N2463 0.985 . S
H2468 N2462 0.984 . S
H2469 N2462 0.984 . S
H2470 N2458 0.984 . S
H2471 N2458 0.985 . S
C2472 C2473 1.363 . S
C2472 C2478 1.351 1_545 S
C2472 N2480 1.356 . S
C2473 C2472 1.363 . S
C2473 C2479 1.363 1_545 S
C2474 C2475 1.363 . S
C2474 C2479 1.379 . S
C2474 N2481 1.356 . S
C2475 C2474 1.363 . S
C2475 C2478 1.392 . S
N2476 C2478 1.358 . S
N2476 H2488 0.966 1_565 S
N2476 H2489 1.010 . S
N2477 C2479 1.356 . S
N2477 H2482 0.975 1_565 S
N2477 H2483 0.985 . S
C2478 C2472 1.351 1_565 S
C2478 C2475 1.392 . S
C2478 N2476 1.358 . S
C2479 C2473 1.363 1_565 S
C2479 C2474 1.379 . S
C2479 N2477 1.356 . S
N2480 C2472 1.356 . S
N2480 H2486 0.984 . S
N2480 H2487 0.984 . S
N2481 C2474 1.356 . S
N2481 H2484 0.984 . S
N2481 H2485 0.985 . S
H2482 N2477 0.975 1_545 S
H2483 N2477 0.985 . S
H2484 N2481 0.984 . S
H2485 N2481 0.985 . S
H2486 N2480 0.984 . S
H2487 N2480 0.984 . S
H2488 N2476 0.966 1_545 S
H2489 N2476 1.010 . S
C2490 C2491 1.363 . S
C2490 C2496 1.379 . S
C2490 N2498 1.356 . S
C2491 C2490 1.363 . S
C2491 C2497 1.363 . S
C2492 C2493 1.363 . S
C2492 C2497 1.379 . S
C2492 N2499 1.356 . S
C2493 C2492 1.363 . S
C2493 C2496 1.363 . S
N2494 C2496 1.356 . S
N2494 H2506 0.984 . S
N2494 H2507 0.985 . S
N2495 C2497 1.356 . S
N2495 H2500 0.984 . S
N2495 H2501 0.985 . S
C2496 C2490 1.379 . S
C2496 C2493 1.363 . S
C2496 N2494 1.356 . S
C2497 C2491 1.363 . S
C2497 C2492 1.379 . S
C2497 N2495 1.356 . S
N2498 C2490 1.356 . S
N2498 H2504 0.984 . S
N2498 H2505 0.984 . S
N2499 C2492 1.356 . S
N2499 H2502 0.984 . S
N2499 H2503 0.985 . S
H2500 N2495 0.984 . S
H2501 N2495 0.985 . S
H2502 N2499 0.984 . S
H2503 N2499 0.985 . S
H2504 N2498 0.984 . S
H2505 N2498 0.984 . S
H2506 N2494 0.984 . S
H2507 N2494 0.985 . S
C2508 C2509 1.363 . S
C2508 C2514 1.379 . S
C2508 N2516 1.356 . S
C2509 C2508 1.363 . S
C2509 C2515 1.363 . S
C2510 C2511 1.363 . S
C2510 C2515 1.379 . S
C2510 N2517 1.356 . S
C2511 C2510 1.363 . S
C2511 C2514 1.363 . S
N2512 C2514 1.356 . S
N2512 H2524 0.984 . S
N2512 H2525 0.985 . S
N2513 C2515 1.356 . S
N2513 H2518 0.984 . S
N2513 H2519 0.985 . S
C2514 C2508 1.379 . S
C2514 C2511 1.363 . S
C2514 N2512 1.356 . S
C2515 C2509 1.363 . S
C2515 C2510 1.379 . S
C2515 N2513 1.356 . S
N2516 C2508 1.356 . S
N2516 H2522 0.984 . S
N2516 H2523 0.984 . S
N2517 C2510 1.356 . S
N2517 H2520 0.984 . S
N2517 H2521 0.985 . S
H2518 N2513 0.984 . S
H2519 N2513 0.985 . S
H2520 N2517 0.984 . S
H2521 N2517 0.985 . S
H2522 N2516 0.984 . S
H2523 N2516 0.984 . S
H2524 N2512 0.984 . S
H2525 N2512 0.985 . S
C2526 C2527 1.363 . S
C2526 C2532 1.379 . S
C2526 N2534 1.356 . S
C2527 C2526 1.363 . S
C2527 C2533 1.363 . S
C2528 C2529 1.363 . S
C2528 C2533 1.379 . S
C2528 N2535 1.356 . S
C2529 C2528 1.363 . S
C2529 C2532 1.363 . S
N2530 C2532 1.356 . S
N2530 H2542 0.984 . S
N2530 H2543 0.985 . S
N2531 C2533 1.356 . S
N2531 H2536 0.984 . S
N2531 H2537 0.985 . S
C2532 C2526 1.379 . S
C2532 C2529 1.363 . S
C2532 N2530 1.356 . S
C2533 C2527 1.363 . S
C2533 C2528 1.379 . S
C2533 N2531 1.356 . S
N2534 C2526 1.356 . S
N2534 H2540 0.984 . S
N2534 H2541 0.984 . S
N2535 C2528 1.356 . S
N2535 H2538 0.984 . S
N2535 H2539 0.985 . S
H2536 N2531 0.984 . S
H2537 N2531 0.985 . S
H2538 N2535 0.984 . S
H2539 N2535 0.985 . S
H2540 N2534 0.984 . S
H2541 N2534 0.984 . S
H2542 N2530 0.984 . S
H2543 N2530 0.985 . S
C2544 C2545 1.363 . S
C2544 C2550 1.379 . S
C2544 N2552 1.356 . S
C2545 C2544 1.363 . S
C2545 C2551 1.363 . S
C2546 C2547 1.363 . S
C2546 C2551 1.379 . S
C2546 N2553 1.356 . S
C2547 C2546 1.363 . S
C2547 C2550 1.363 . S
N2548 C2550 1.356 . S
N2548 H2560 0.984 . S
N2548 H2561 0.985 . S
N2549 C2551 1.356 . S
N2549 H2554 0.984 . S
N2549 H2555 0.985 . S
C2550 C2544 1.379 . S
C2550 C2547 1.363 . S
C2550 N2548 1.356 . S
C2551 C2545 1.363 . S
C2551 C2546 1.379 . S
C2551 N2549 1.356 . S
N2552 C2544 1.356 . S
N2552 H2558 0.984 . S
N2552 H2559 0.984 . S
N2553 C2546 1.356 . S
N2553 H2556 0.984 . S
N2553 H2557 0.985 . S
H2554 N2549 0.984 . S
H2555 N2549 0.985 . S
H2556 N2553 0.984 . S
H2557 N2553 0.985 . S
H2558 N2552 0.984 . S
H2559 N2552 0.984 . S
H2560 N2548 0.984 . S
H2561 N2548 0.985 . S
C2562 C2563 1.363 . S
C2562 C2568 1.379 . S
C2562 N2570 1.356 . S
C2563 C2562 1.363 . S
C2563 C2569 1.363 . S
C2564 C2565 1.363 . S
C2564 C2569 1.379 . S
C2564 N2571 1.356 . S
C2565 C2564 1.363 . S
C2565 C2568 1.363 . S
N2566 C2568 1.356 . S
N2566 H2578 0.984 . S
N2566 H2579 0.985 . S
N2567 C2569 1.356 . S
N2567 H2572 0.984 . S
N2567 H2573 0.985 . S
C2568 C2562 1.379 . S
C2568 C2565 1.363 . S
C2568 N2566 1.356 . S
C2569 C2563 1.363 . S
C2569 C2564 1.379 . S
C2569 N2567 1.356 . S
N2570 C2562 1.356 . S
N2570 H2576 0.984 . S
N2570 H2577 0.984 . S
N2571 C2564 1.356 . S
N2571 H2574 0.984 . S
N2571 H2575 0.985 . S
H2572 N2567 0.984 . S
H2573 N2567 0.985 . S
H2574 N2571 0.984 . S
H2575 N2571 0.985 . S
H2576 N2570 0.984 . S
H2577 N2570 0.984 . S
H2578 N2566 0.984 . S
H2579 N2566 0.985 . S
C2580 C2581 1.363 1_556 S
C2580 C2586 1.379 . S
C2580 N2588 1.356 . S
C2581 C2580 1.363 1_554 S
C2581 C2587 1.363 . S
C2582 C2583 1.363 . S
C2582 C2587 1.379 . S
C2582 N2589 1.351 1_455 S
C2583 C2582 1.363 . S
C2583 C2586 1.342 1_554 S
N2584 C2586 1.374 . S
N2584 H2596 0.984 . S
N2584 H2597 0.985 . S
N2585 C2587 1.356 1_655 S
N2585 H2590 0.984 . S
N2585 H2591 0.985 . S
C2586 C2580 1.379 . S
C2586 C2583 1.342 1_556 S
C2586 N2584 1.374 . S
C2587 C2581 1.363 . S
C2587 C2582 1.379 . S
C2587 N2585 1.356 1_455 S
N2588 C2580 1.356 . S
N2588 H2594 0.984 . S
N2588 H2595 0.984 . S
N2589 C2582 1.351 1_655 S
N2589 H2592 0.984 1_655 S
N2589 H2593 0.990 . S
H2590 N2585 0.984 . S
H2591 N2585 0.985 . S
H2592 N2589 0.984 1_455 S
H2593 N2589 0.990 . S
H2594 N2588 0.984 . S
H2595 N2588 0.984 . S
H2596 N2584 0.984 . S
H2597 N2584 0.985 . S
C2598 C2599 1.363 . S
C2598 C2604 1.379 1_455 S
C2598 N2606 1.356 . S
C2599 C2598 1.363 . S
C2599 C2605 1.363 1_455 S
C2600 C2601 1.363 . S
C2600 C2605 1.379 . S
C2600 N2607 1.356 . S
C2601 C2600 1.363 . S
C2601 C2604 1.363 . S
N2602 C2604 1.356 . S
N2602 H2614 0.984 . S
N2602 H2615 0.985 . S
N2603 C2605 1.356 . S
N2603 H2608 0.984 1_655 S
N2603 H2609 0.985 . S
C2604 C2598 1.379 1_655 S
C2604 C2601 1.363 . S
C2604 N2602 1.356 . S
C2605 C2599 1.363 1_655 S
C2605 C2600 1.379 . S
C2605 N2603 1.356 . S
N2606 C2598 1.356 . S
N2606 H2612 0.984 . S
N2606 H2613 0.984 . S
N2607 C2600 1.356 . S
N2607 H2610 0.984 . S
N2607 H2611 0.985 . S
H2608 N2603 0.984 1_455 S
H2609 N2603 0.985 . S
H2610 N2607 0.984 . S
H2611 N2607 0.985 . S
H2612 N2606 0.984 . S
H2613 N2606 0.984 . S
H2614 N2602 0.984 . S
H2615 N2602 0.985 . S
C2616 C2617 1.363 . S
C2616 C2622 1.379 . S
C2616 N2624 1.356 . S
C2617 C2616 1.363 . S
C2617 C2623 1.363 . S
C2618 C2619 1.363 . S
C2618 C2623 1.379 . S
C2618 N2625 1.356 . S
C2619 C2618 1.363 . S
C2619 C2622 1.363 . S
N2620 C2622 1.356 . S
N2620 H2632 0.984 . S
N2620 H2633 0.985 . S
N2621 C2623 1.356 . S
N2621 H2626 0.984 . S
N2621 H2627 0.985 . S
C2622 C2616 1.379 . S
C2622 C2619 1.363 . S
C2622 N2620 1.356 . S
C2623 C2617 1.363 . S
C2623 C2618 1.379 . S
C2623 N2621 1.356 . S
N2624 C2616 1.356 . S
N2624 H2630 0.984 . S
N2624 H2631 0.984 . S
N2625 C2618 1.356 . S
N2625 H2628 0.984 . S
N2625 H2629 0.985 . S
H2626 N2621 0.984 . S
H2627 N2621 0.985 . S
H2628 N2625 0.984 . S
H2629 N2625 0.985 . S
H2630 N2624 0.984 . S
H2631 N2624 0.984 . S
H2632 N2620 0.984 . S
H2633 N2620 0.985 . S
C2634 C2635 1.363 . S
C2634 C2640 1.379 . S
C2634 N2642 1.356 . S
C2635 C2634 1.363 . S
C2635 C2641 1.363 . S
C2636 C2637 1.363 . S
C2636 C2641 1.379 . S
C2636 N2643 1.356 . S
C2637 C2636 1.363 . S
C2637 C2640 1.363 . S
N2638 C2640 1.356 . S
N2638 H2650 0.984 . S
N2638 H2651 0.985 . S
N2639 C2641 1.356 . S
N2639 H2644 0.984 . S
N2639 H2645 0.985 . S
C2640 C2634 1.379 . S
C2640 C2637 1.363 . S
C2640 N2638 1.356 . S
C2641 C2635 1.363 . S
C2641 C2636 1.379 . S
C2641 N2639 1.356 . S
N2642 C2634 1.356 . S
N2642 H2648 0.984 . S
N2642 H2649 0.984 . S
N2643 C2636 1.356 . S
N2643 H2646 0.984 . S
N2643 H2647 0.985 . S
H2644 N2639 0.984 . S
H2645 N2639 0.985 . S
H2646 N2643 0.984 . S
H2647 N2643 0.985 . S
H2648 N2642 0.984 . S
H2649 N2642 0.984 . S
H2650 N2638 0.984 . S
H2651 N2638 0.985 . S
C2652 C2653 1.363 . S
C2652 C2658 1.379 . S
C2652 N2660 1.356 . S
C2653 C2652 1.363 . S
C2653 C2659 1.363 . S
C2654 C2655 1.363 . S
C2654 C2659 1.379 . S
C2654 N2661 1.356 . S
C2655 C2654 1.363 . S
C2655 C2658 1.363 . S
N2656 C2658 1.356 . S
N2656 H2668 0.984 . S
N2656 H2669 0.985 . S
N2657 C2659 1.356 . S
N2657 H2662 0.984 . S
N2657 H2663 0.985 . S
C2658 C2652 1.379 . S
C2658 C2655 1.363 . S
C2658 N2656 1.356 . S
C2659 C2653 1.363 . S
C2659 C2654 1.379 . S
C2659 N2657 1.356 . S
N2660 C2652 1.356 . S
N2660 H2666 0.984 . S
N2660 H2667 0.984 . S
N2661 C2654 1.356 . S
N2661 H2664 0.984 . S
N2661 H2665 0.985 . S
H2662 N2657 0.984 . S
H2663 N2657 0.985 . S
H2664 N2661 0.984 . S
H2665 N2661 0.985 . S
H2666 N2660 0.984 . S
H2667 N2660 0.984 . S
H2668 N2656 0.984 . S
H2669 N2656 0.985 . S
C2670 C2671 1.363 . S
C2670 C2676 1.379 . S
C2670 N2678 1.356 . S
C2671 C2670 1.363 . S
C2671 C2677 1.363 . S
C2672 C2673 1.363 . S
C2672 C2677 1.379 . S
C2672 N2679 1.356 . S
C2673 C2672 1.363 . S
C2673 C2676 1.363 . S
N2674 C2676 1.356 . S
N2674 H2686 0.984 . S
N2674 H2687 0.985 . S
N2675 C2677 1.356 . S
N2675 H2680 0.984 . S
N2675 H2681 0.985 . S
C2676 C2670 1.379 . S
C2676 C2673 1.363 . S
C2676 N2674 1.356 . S
C2677 C2671 1.363 . S
C2677 C2672 1.379 . S
C2677 N2675 1.356 . S
N2678 C2670 1.356 . S
N2678 H2684 0.984 . S
N2678 H2685 0.984 . S
N2679 C2672 1.356 . S
N2679 H2682 0.984 . S
N2679 H2683 0.985 . S
H2680 N2675 0.984 . S
H2681 N2675 0.985 . S
H2682 N2679 0.984 . S
H2683 N2679 0.985 . S
H2684 N2678 0.984 . S
H2685 N2678 0.984 . S
H2686 N2674 0.984 . S
H2687 N2674 0.985 . S
C2688 C2689 1.363 . S
C2688 C2694 1.379 . S
C2688 N2696 1.356 . S
C2689 C2688 1.363 . S
C2689 C2695 1.363 . S
C2690 C2691 1.363 . S
C2690 C2695 1.379 . S
C2690 N2697 1.356 . S
C2691 C2690 1.363 . S
C2691 C2694 1.363 . S
N2692 C2694 1.356 . S
N2692 H2704 0.984 . S
N2692 H2705 0.985 . S
N2693 C2695 1.356 . S
N2693 H2698 0.984 . S
N2693 H2699 0.985 . S
C2694 C2688 1.379 . S
C2694 C2691 1.363 . S
C2694 N2692 1.356 . S
C2695 C2689 1.363 . S
C2695 C2690 1.379 . S
C2695 N2693 1.356 . S
N2696 C2688 1.356 . S
N2696 H2702 0.984 . S
N2696 H2703 0.984 . S
N2697 C2690 1.356 . S
N2697 H2700 0.984 . S
N2697 H2701 0.985 . S
H2698 N2693 0.984 . S
H2699 N2693 0.985 . S
H2700 N2697 0.984 . S
H2701 N2697 0.985 . S
H2702 N2696 0.984 . S
H2703 N2696 0.984 . S
H2704 N2692 0.984 . S
H2705 N2692 0.985 . S
C2706 C2707 1.363 1_556 S
C2706 C2712 1.379 . S
C2706 N2714 1.356 . S
C2707 C2706 1.363 1_554 S
C2707 C2713 1.363 . S
C2708 C2709 1.363 . S
C2708 C2713 1.379 1_556 S
C2708 N2715 1.356 . S
C2709 C2708 1.363 . S
C2709 C2712 1.363 . S
N2710 C2712 1.356 . S
N2710 H2722 0.984 . S
N2710 H2723 0.985 . S
N2711 C2713 1.356 . S
N2711 H2716 0.984 . S
N2711 H2717 0.985 . S
C2712 C2706 1.379 . S
C2712 C2709 1.363 . S
C2712 N2710 1.356 . S
C2713 C2707 1.363 . S
C2713 C2708 1.379 1_554 S
C2713 N2711 1.356 . S
N2714 C2706 1.356 . S
N2714 H2720 0.984 . S
N2714 H2721 0.984 1_556 S
N2715 C2708 1.356 . S
N2715 H2718 0.984 . S
N2715 H2719 0.985 1_556 S
H2716 N2711 0.984 . S
H2717 N2711 0.985 . S
H2718 N2715 0.984 . S
H2719 N2715 0.985 1_554 S
H2720 N2714 0.984 . S
H2721 N2714 0.984 1_554 S
H2722 N2710 0.984 . S
H2723 N2710 0.985 . S
C2724 C2725 1.363 . S
C2724 C2730 1.379 . S
C2724 N2732 1.356 . S
C2725 C2724 1.363 . S
C2725 C2731 1.363 . S
C2726 C2727 1.363 . S
C2726 C2731 1.379 . S
C2726 N2733 1.356 . S
C2727 C2726 1.363 . S
C2727 C2730 1.363 . S
N2728 C2730 1.356 . S
N2728 H2740 0.984 . S
N2728 H2741 0.985 . S
N2729 C2731 1.356 . S
N2729 H2734 0.984 . S
N2729 H2735 0.985 . S
C2730 C2724 1.379 . S
C2730 C2727 1.363 . S
C2730 N2728 1.356 . S
C2731 C2725 1.363 . S
C2731 C2726 1.379 . S
C2731 N2729 1.356 . S
N2732 C2724 1.356 . S
N2732 H2738 0.984 . S
N2732 H2739 0.984 . S
N2733 C2726 1.356 . S
N2733 H2736 0.984 . S
N2733 H2737 0.985 . S
H2734 N2729 0.984 . S
H2735 N2729 0.985 . S
H2736 N2733 0.984 . S
H2737 N2733 0.985 . S
H2738 N2732 0.984 . S
H2739 N2732 0.984 . S
H2740 N2728 0.984 . S
H2741 N2728 0.985 . S
C2742 C2743 1.363 . S
C2742 C2748 1.379 . S
C2742 N2750 1.356 . S
C2743 C2742 1.363 . S
C2743 C2749 1.363 . S
C2744 C2745 1.363 . S
C2744 C2749 1.379 . S
C2744 N2751 1.356 . S
C2745 C2744 1.363 . S
C2745 C2748 1.363 . S
N2746 C2748 1.356 . S
N2746 H2758 0.984 . S
N2746 H2759 0.985 . S
N2747 C2749 1.356 . S
N2747 H2752 0.984 . S
N2747 H2753 0.985 . S
C2748 C2742 1.379 . S
C2748 C2745 1.363 . S
C2748 N2746 1.356 . S
C2749 C2743 1.363 . S
C2749 C2744 1.379 . S
C2749 N2747 1.356 . S
N2750 C2742 1.356 . S
N2750 H2756 0.984 . S
N2750 H2757 0.984 . S
N2751 C2744 1.356 . S
N2751 H2754 0.984 . S
N2751 H2755 0.985 . S
H2752 N2747 0.984 . S
H2753 N2747 0.985 . S
H2754 N2751 0.984 . S
H2755 N2751 0.985 . S
H2756 N2750 0.984 . S
H2757 N2750 0.984 . S
H2758 N2746 0.984 . S
H2759 N2746 0.985 . S
C2760 C2761 1.363 . S
C2760 C2766 1.379 . S
C2760 N2768 1.356 . S
C2761 C2760 1.363 . S
C2761 C2767 1.363 . S
C2762 C2763 1.363 . S
C2762 C2767 1.379 . S
C2762 N2769 1.356 . S
C2763 C2762 1.363 . S
C2763 C2766 1.363 . S
N2764 C2766 1.356 . S
N2764 H2776 0.984 . S
N2764 H2777 0.985 . S
N2765 C2767 1.356 . S
N2765 H2770 0.984 . S
N2765 H2771 0.985 . S
C2766 C2760 1.379 . S
C2766 C2763 1.363 . S
C2766 N2764 1.356 . S
C2767 C2761 1.363 . S
C2767 C2762 1.379 . S
C2767 N2765 1.356 . S
N2768 C2760 1.356 . S
N2768 H2774 0.984 . S
N2768 H2775 0.984 . S
N2769 C2762 1.356 . S
N2769 H2772 0.984 . S
N2769 H2773 0.985 . S
H2770 N2765 0.984 . S
H2771 N2765 0.985 . S
H2772 N2769 0.984 . S
H2773 N2769 0.985 . S
H2774 N2768 0.984 . S
H2775 N2768 0.984 . S
H2776 N2764 0.984 . S
H2777 N2764 0.985 . S
C2778 C2779 1.363 . S
C2778 C2784 1.379 . S
C2778 N2786 1.356 . S
C2779 C2778 1.363 . S
C2779 C2785 1.363 . S
C2780 C2781 1.363 . S
C2780 C2785 1.379 . S
C2780 N2787 1.356 . S
C2781 C2780 1.363 . S
C2781 C2784 1.363 . S
N2782 C2784 1.356 . S
N2782 H2794 0.984 . S
N2782 H2795 0.985 . S
N2783 C2785 1.356 . S
N2783 H2788 0.984 . S
N2783 H2789 0.985 . S
C2784 C2778 1.379 . S
C2784 C2781 1.363 . S
C2784 N2782 1.356 . S
C2785 C2779 1.363 . S
C2785 C2780 1.379 . S
C2785 N2783 1.356 . S
N2786 C2778 1.356 . S
N2786 H2792 0.984 . S
N2786 H2793 0.984 . S
N2787 C2780 1.356 . S
N2787 H2790 0.984 . S
N2787 H2791 0.985 . S
H2788 N2783 0.984 . S
H2789 N2783 0.985 . S
H2790 N2787 0.984 . S
H2791 N2787 0.985 . S
H2792 N2786 0.984 . S
H2793 N2786 0.984 . S
H2794 N2782 0.984 . S
H2795 N2782 0.985 . S
C2796 C2797 1.363 . S
C2796 C2802 1.379 . S
C2796 N2804 1.356 . S
C2797 C2796 1.363 . S
C2797 C2803 1.363 . S
C2798 C2799 1.363 . S
C2798 C2803 1.379 . S
C2798 N2805 1.356 . S
C2799 C2798 1.363 . S
C2799 C2802 1.363 . S
N2800 C2802 1.356 . S
N2800 H2812 0.984 . S
N2800 H2813 0.985 . S
N2801 C2803 1.356 . S
N2801 H2806 0.984 . S
N2801 H2807 0.985 . S
C2802 C2796 1.379 . S
C2802 C2799 1.363 . S
C2802 N2800 1.356 . S
C2803 C2797 1.363 . S
C2803 C2798 1.379 . S
C2803 N2801 1.356 . S
N2804 C2796 1.356 . S
N2804 H2810 0.984 . S
N2804 H2811 0.984 . S
N2805 C2798 1.356 . S
N2805 H2808 0.984 . S
N2805 H2809 0.985 . S
H2806 N2801 0.984 . S
H2807 N2801 0.985 . S
H2808 N2805 0.984 . S
H2809 N2805 0.985 . S
H2810 N2804 0.984 . S
H2811 N2804 0.984 . S
H2812 N2800 0.984 . S
H2813 N2800 0.985 . S
C2814 C2815 1.363 . S
C2814 C2820 1.379 . S
C2814 N2822 1.356 . S
C2815 C2814 1.363 . S
C2815 C2821 1.363 . S
C2816 C2817 1.363 . S
C2816 C2821 1.379 . S
C2816 N2823 1.356 . S
C2817 C2816 1.363 . S
C2817 C2820 1.363 . S
N2818 C2820 1.356 . S
N2818 H2830 0.984 . S
N2818 H2831 0.985 . S
N2819 C2821 1.356 . S
N2819 H2824 0.984 . S
N2819 H2825 0.985 . S
C2820 C2814 1.379 . S
C2820 C2817 1.363 . S
C2820 N2818 1.356 . S
C2821 C2815 1.363 . S
C2821 C2816 1.379 . S
C2821 N2819 1.356 . S
N2822 C2814 1.356 . S
N2822 H2828 0.984 . S
N2822 H2829 0.984 . S
N2823 C2816 1.356 . S
N2823 H2826 0.984 . S
N2823 H2827 0.985 . S
H2824 N2819 0.984 . S
H2825 N2819 0.985 . S
H2826 N2823 0.984 . S
H2827 N2823 0.985 . S
H2828 N2822 0.984 . S
H2829 N2822 0.984 . S
H2830 N2818 0.984 . S
H2831 N2818 0.985 . S
C2832 C2833 1.363 . S
C2832 C2838 1.379 . S
C2832 N2840 1.356 . S
C2833 C2832 1.363 . S
C2833 C2839 1.363 . S
C2834 C2835 1.363 . S
C2834 C2839 1.379 . S
C2834 N2841 1.356 . S
C2835 C2834 1.363 . S
C2835 C2838 1.363 . S
N2836 C2838 1.356 . S
N2836 H2848 0.984 . S
N2836 H2849 0.985 . S
N2837 C2839 1.356 . S
N2837 H2842 0.984 . S
N2837 H2843 0.985 . S
C2838 C2832 1.379 . S
C2838 C2835 1.363 . S
C2838 N2836 1.356 . S
C2839 C2833 1.363 . S
C2839 C2834 1.379 . S
C2839 N2837 1.356 . S
N2840 C2832 1.356 . S
N2840 H2846 0.984 . S
N2840 H2847 0.984 . S
N2841 C2834 1.356 . S
N2841 H2844 0.984 . S
N2841 H2845 0.985 . S
H2842 N2837 0.984 . S
H2843 N2837 0.985 . S
H2844 N2841 0.984 . S
H2845 N2841 0.985 . S
H2846 N2840 0.984 . S
H2847 N2840 0.984 . S
H2848 N2836 0.984 . S
H2849 N2836 0.985 . S
C2850 C2851 1.363 . S
C2850 C2856 1.379 . S
C2850 N2858 1.356 . S
C2851 C2850 1.363 . S
C2851 C2857 1.363 . S
C2852 C2853 1.363 . S
C2852 C2857 1.379 . S
C2852 N2859 1.356 . S
C2853 C2852 1.363 . S
C2853 C2856 1.363 . S
N2854 C2856 1.356 . S
N2854 H2866 0.984 . S
N2854 H2867 0.985 . S
N2855 C2857 1.356 . S
N2855 H2860 0.984 . S
N2855 H2861 0.985 . S
C2856 C2850 1.379 . S
C2856 C2853 1.363 . S
C2856 N2854 1.356 . S
C2857 C2851 1.363 . S
C2857 C2852 1.379 . S
C2857 N2855 1.356 . S
N2858 C2850 1.356 . S
N2858 H2864 0.984 . S
N2858 H2865 0.984 . S
N2859 C2852 1.356 . S
N2859 H2862 0.984 . S
N2859 H2863 0.985 . S
H2860 N2855 0.984 . S
H2861 N2855 0.985 . S
H2862 N2859 0.984 . S
H2863 N2859 0.985 . S
H2864 N2858 0.984 . S
H2865 N2858 0.984 . S
H2866 N2854 0.984 . S
H2867 N2854 0.985 . S
C2868 C2869 1.363 . S
C2868 C2874 1.379 . S
C2868 N2876 1.356 1_565 S
C2869 C2868 1.363 . S
C2869 C2875 1.363 . S
C2870 C2871 1.363 . S
C2870 C2875 1.379 . S
C2870 N2877 1.356 . S
C2871 C2870 1.363 . S
C2871 C2874 1.363 . S
N2872 C2874 1.356 . S
N2872 H2884 0.984 . S
N2872 H2885 0.985 . S
N2873 C2875 1.356 . S
N2873 H2878 0.984 1_565 S
N2873 H2879 0.985 . S
C2874 C2868 1.379 . S
C2874 C2871 1.363 . S
C2874 N2872 1.356 . S
C2875 C2869 1.363 . S
C2875 C2870 1.379 . S
C2875 N2873 1.356 . S
N2876 C2868 1.356 1_545 S
N2876 H2882 0.984 . S
N2876 H2883 0.984 . S
N2877 C2870 1.356 . S
N2877 H2880 0.984 . S
N2877 H2881 0.985 . S
H2878 N2873 0.984 1_545 S
H2879 N2873 0.985 . S
H2880 N2877 0.984 . S
H2881 N2877 0.985 . S
H2882 N2876 0.984 . S
H2883 N2876 0.984 . S
H2884 N2872 0.984 . S
H2885 N2872 0.985 . S
C2886 C2887 1.363 . S
C2886 C2892 1.379 . S
C2886 N2894 1.356 . S
C2887 C2886 1.363 . S
C2887 C2893 1.363 1_565 S
C2888 C2889 1.363 . S
C2888 C2893 1.379 . S
C2888 N2895 1.356 . S
C2889 C2888 1.363 . S
C2889 C2892 1.363 1_545 S
N2890 C2892 1.356 . S
N2890 H2902 0.984 . S
N2890 H2903 0.985 . S
N2891 C2893 1.356 . S
N2891 H2896 0.985 1_554 S
N2891 H2897 0.985 . S
C2892 C2886 1.379 . S
C2892 C2889 1.363 1_565 S
C2892 N2890 1.356 . S
C2893 C2887 1.363 1_545 S
C2893 C2888 1.379 . S
C2893 N2891 1.356 . S
N2894 C2886 1.356 . S
N2894 H2900 0.984 . S
N2894 H2901 0.984 . S
N2895 C2888 1.356 . S
N2895 H2898 0.984 . S
N2895 H2899 0.985 . S
H2896 N2891 0.985 1_556 S
H2897 N2891 0.985 . S
H2898 N2895 0.984 . S
H2899 N2895 0.985 . S
H2900 N2894 0.984 . S
H2901 N2894 0.984 . S
H2902 N2890 0.984 . S
H2903 N2890 0.985 . S
C2904 C2905 1.363 . S
C2904 C2910 1.379 . S
C2904 N2912 1.356 . S
C2905 C2904 1.363 . S
C2905 C2911 1.363 . S
C2906 C2907 1.363 . S
C2906 C2911 1.379 . S
C2906 N2913 1.356 . S
C2907 C2906 1.363 . S
C2907 C2910 1.363 . S
N2908 C2910 1.356 . S
N2908 H2920 0.984 . S
N2908 H2921 0.985 . S
N2909 C2911 1.356 . S
N2909 H2914 0.984 . S
N2909 H2915 0.985 . S
C2910 C2904 1.379 . S
C2910 C2907 1.363 . S
C2910 N2908 1.356 . S
C2911 C2905 1.363 . S
C2911 C2906 1.379 . S
C2911 N2909 1.356 . S
N2912 C2904 1.356 . S
N2912 H2918 0.984 . S
N2912 H2919 0.984 . S
N2913 C2906 1.356 . S
N2913 H2916 0.984 . S
N2913 H2917 0.985 . S
H2914 N2909 0.984 . S
H2915 N2909 0.985 . S
H2916 N2913 0.984 . S
H2917 N2913 0.985 . S
H2918 N2912 0.984 . S
H2919 N2912 0.984 . S
H2920 N2908 0.984 . S
H2921 N2908 0.985 . S
C2922 C2923 1.363 . S
C2922 C2928 1.379 . S
C2922 N2930 1.356 . S
C2923 C2922 1.363 . S
C2923 C2929 1.363 . S
C2924 C2925 1.363 . S
C2924 C2929 1.379 . S
C2924 N2931 1.356 . S
C2925 C2924 1.363 . S
C2925 C2928 1.363 . S
N2926 C2928 1.356 . S
N2926 H2938 0.984 . S
N2926 H2939 0.985 . S
N2927 C2929 1.356 . S
N2927 H2932 0.983 1_554 S
N2927 H2933 0.985 1_554 S
C2928 C2922 1.379 . S
C2928 C2925 1.363 . S
C2928 N2926 1.356 . S
C2929 C2923 1.363 . S
C2929 C2924 1.379 . S
C2929 N2927 1.356 . S
N2930 C2922 1.356 . S
N2930 H2936 0.984 . S
N2930 H2937 0.984 . S
N2931 C2924 1.356 . S
N2931 H2934 0.984 . S
N2931 H2935 0.985 . S
H2932 N2927 0.983 1_556 S
H2933 N2927 0.985 1_556 S
H2934 N2931 0.984 . S
H2935 N2931 0.985 . S
H2936 N2930 0.984 . S
H2937 N2930 0.984 . S
H2938 N2926 0.984 . S
H2939 N2926 0.985 . S
C2940 C2941 1.363 . S
C2940 C2946 1.379 . S
C2940 N2948 1.356 . S
C2941 C2940 1.363 . S
C2941 C2947 1.363 . S
C2942 C2943 1.363 . S
C2942 C2947 1.379 . S
C2942 N2949 1.356 . S
C2943 C2942 1.363 . S
C2943 C2946 1.363 . S
N2944 C2946 1.356 . S
N2944 H2956 0.984 . S
N2944 H2957 0.985 . S
N2945 C2947 1.356 . S
N2945 H2950 0.984 . S
N2945 H2951 0.985 . S
C2946 C2940 1.379 . S
C2946 C2943 1.363 . S
C2946 N2944 1.356 . S
C2947 C2941 1.363 . S
C2947 C2942 1.379 . S
C2947 N2945 1.356 . S
N2948 C2940 1.356 . S
N2948 H2954 0.984 . S
N2948 H2955 0.984 . S
N2949 C2942 1.356 . S
N2949 H2952 0.984 . S
N2949 H2953 0.985 . S
H2950 N2945 0.984 . S
H2951 N2945 0.985 . S
H2952 N2949 0.984 . S
H2953 N2949 0.985 . S
H2954 N2948 0.984 . S
H2955 N2948 0.984 . S
H2956 N2944 0.984 . S
H2957 N2944 0.985 . S
C2958 C2959 1.363 . S
C2958 C2964 1.379 . S
C2958 N2966 1.356 . S
C2959 C2958 1.363 . S
C2959 C2965 1.363 . S
C2960 C2961 1.363 . S
C2960 C2965 1.379 . S
C2960 N2967 1.356 . S
C2961 C2960 1.363 . S
C2961 C2964 1.363 . S
N2962 C2964 1.356 . S
N2962 H2974 0.984 . S
N2962 H2975 0.985 . S
N2963 C2965 1.356 . S
N2963 H2968 0.984 . S
N2963 H2969 0.985 . S
C2964 C2958 1.379 . S
C2964 C2961 1.363 . S
C2964 N2962 1.356 . S
C2965 C2959 1.363 . S
C2965 C2960 1.379 . S
C2965 N2963 1.356 . S
N2966 C2958 1.356 . S
N2966 H2972 0.984 . S
N2966 H2973 0.984 . S
N2967 C2960 1.356 . S
N2967 H2970 0.984 . S
N2967 H2971 0.985 . S
H2968 N2963 0.984 . S
H2969 N2963 0.985 . S
H2970 N2967 0.984 . S
H2971 N2967 0.985 . S
H2972 N2966 0.984 . S
H2973 N2966 0.984 . S
H2974 N2962 0.984 . S
H2975 N2962 0.985 . S
C2976 C2977 1.363 . S
C2976 C2982 1.379 . S
C2976 N2984 1.356 . S
C2977 C2976 1.363 . S
C2977 C2983 1.363 . S
C2978 C2979 1.363 . S
C2978 C2983 1.379 . S
C2978 N2985 1.356 . S
C2979 C2978 1.363 . S
C2979 C2982 1.363 . S
N2980 C2982 1.356 . S
N2980 H2992 0.984 . S
N2980 H2993 0.985 . S
N2981 C2983 1.356 . S
N2981 H2986 0.984 . S
N2981 H2987 0.985 . S
C2982 C2976 1.379 . S
C2982 C2979 1.363 . S
C2982 N2980 1.356 . S
C2983 C2977 1.363 . S
C2983 C2978 1.379 . S
C2983 N2981 1.356 . S
N2984 C2976 1.356 . S
N2984 H2990 0.984 . S
N2984 H2991 0.984 . S
N2985 C2978 1.356 . S
N2985 H2988 0.984 . S
N2985 H2989 0.985 . S
H2986 N2981 0.984 . S
H2987 N2981 0.985 . S
H2988 N2985 0.984 . S
H2989 N2985 0.985 . S
H2990 N2984 0.984 . S
H2991 N2984 0.984 . S
H2992 N2980 0.984 . S
H2993 N2980 0.985 . S
C2994 C2995 1.363 . S
C2994 C3000 1.379 . S
C2994 N3002 1.356 . S
C2995 C2994 1.363 . S
C2995 C3001 1.363 . S
C2996 C2997 1.363 . S
C2996 C3001 1.379 . S
C2996 N3003 1.356 . S
C2997 C2996 1.363 . S
C2997 C3000 1.363 . S
N2998 C3000 1.356 . S
N2998 H3010 0.984 . S
N2998 H3011 0.985 . S
N2999 C3001 1.356 . S
N2999 H3004 0.984 . S
N2999 H3005 0.985 . S
C3000 C2994 1.379 . S
C3000 C2997 1.363 . S
C3000 N2998 1.356 . S
C3001 C2995 1.363 . S
C3001 C2996 1.379 . S
C3001 N2999 1.356 . S
N3002 C2994 1.356 . S
N3002 H3008 0.984 . S
N3002 H3009 0.984 . S
N3003 C2996 1.356 . S
N3003 H3006 0.984 . S
N3003 H3007 0.985 . S
H3004 N2999 0.984 . S
H3005 N2999 0.985 . S
H3006 N3003 0.984 . S
H3007 N3003 0.985 . S
H3008 N3002 0.984 . S
H3009 N3002 0.984 . S
H3010 N2998 0.984 . S
H3011 N2998 0.985 . S
C3012 C3013 1.363 . S
C3012 C3018 1.379 . S
C3012 N3020 1.356 . S
C3013 C3012 1.363 . S
C3013 C3019 1.363 . S
C3014 C3015 1.363 . S
C3014 C3019 1.379 . S
C3014 N3021 1.356 . S
C3015 C3014 1.363 . S
C3015 C3018 1.363 . S
N3016 C3018 1.356 . S
N3016 H3028 0.984 1_554 S
N3016 H3029 0.985 . S
N3017 C3019 1.356 . S
N3017 H3022 0.984 . S
N3017 H3023 0.985 . S
C3018 C3012 1.379 . S
C3018 C3015 1.363 . S
C3018 N3016 1.356 . S
C3019 C3013 1.363 . S
C3019 C3014 1.379 . S
C3019 N3017 1.356 . S
N3020 C3012 1.356 . S
N3020 H3026 0.963 1_554 S
N3020 H3027 0.984 . S
N3021 C3014 1.356 . S
N3021 H3024 0.984 . S
N3021 H3025 0.985 . S
H3022 N3017 0.984 . S
H3023 N3017 0.985 . S
H3024 N3021 0.984 . S
H3025 N3021 0.985 . S
H3026 N3020 0.963 1_556 S
H3027 N3020 0.984 . S
H3028 N3016 0.984 1_556 S
H3029 N3016 0.985 . S
C3030 C3031 1.363 . S
C3030 C3036 1.379 . S
C3030 N3038 1.356 . S
C3031 C3030 1.363 . S
C3031 C3037 1.363 . S
C3032 C3033 1.363 . S
C3032 C3037 1.379 . S
C3032 N3039 1.356 . S
C3033 C3032 1.363 . S
C3033 C3036 1.363 . S
N3034 C3036 1.356 . S
N3034 H3046 0.984 . S
N3034 H3047 0.985 . S
N3035 C3037 1.356 . S
N3035 H3040 0.984 . S
N3035 H3041 0.985 . S
C3036 C3030 1.379 . S
C3036 C3033 1.363 . S
C3036 N3034 1.356 . S
C3037 C3031 1.363 . S
C3037 C3032 1.379 . S
C3037 N3035 1.356 . S
N3038 C3030 1.356 . S
N3038 H3044 0.984 . S
N3038 H3045 0.984 . S
N3039 C3032 1.356 . S
N3039 H3042 0.984 . S
N3039 H3043 0.985 . S
H3040 N3035 0.984 . S
H3041 N3035 0.985 . S
H3042 N3039 0.984 . S
H3043 N3039 0.985 . S
H3044 N3038 0.984 . S
H3045 N3038 0.984 . S
H3046 N3034 0.984 . S
H3047 N3034 0.985 . S
C3048 C3049 1.363 . S
C3048 C3054 1.379 . S
C3048 N3056 1.356 . S
C3049 C3048 1.363 . S
C3049 C3055 1.363 . S
C3050 C3051 1.363 . S
C3050 C3055 1.379 . S
C3050 N3057 1.356 . S
C3051 C3050 1.363 . S
C3051 C3054 1.363 . S
N3052 C3054 1.356 . S
N3052 H3064 0.984 . S
N3052 H3065 0.985 . S
N3053 C3055 1.356 . S
N3053 H3058 0.984 . S
N3053 H3059 0.985 . S
C3054 C3048 1.379 . S
C3054 C3051 1.363 . S
C3054 N3052 1.356 . S
C3055 C3049 1.363 . S
C3055 C3050 1.379 . S
C3055 N3053 1.356 . S
N3056 C3048 1.356 . S
N3056 H3062 0.984 . S
N3056 H3063 0.984 . S
N3057 C3050 1.356 . S
N3057 H3060 0.984 1_556 S
N3057 H3061 0.985 1_556 S
H3058 N3053 0.984 . S
H3059 N3053 0.985 . S
H3060 N3057 0.984 1_554 S
H3061 N3057 0.985 1_554 S
H3062 N3056 0.984 . S
H3063 N3056 0.984 . S
H3064 N3052 0.984 . S
H3065 N3052 0.985 . S
C3066 C3067 1.363 . S
C3066 C3072 1.379 . S
C3066 N3074 1.356 . S
C3067 C3066 1.363 . S
C3067 C3073 1.363 . S
C3068 C3069 1.363 . S
C3068 C3073 1.379 . S
C3068 N3075 1.356 . S
C3069 C3068 1.363 . S
C3069 C3072 1.363 . S
N3070 C3072 1.356 . S
N3070 H3082 0.984 . S
N3070 H3083 0.985 . S
N3071 C3073 1.356 . S
N3071 H3076 0.984 . S
N3071 H3077 0.985 . S
C3072 C3066 1.379 . S
C3072 C3069 1.363 . S
C3072 N3070 1.356 . S
C3073 C3067 1.363 . S
C3073 C3068 1.379 . S
C3073 N3071 1.356 . S
N3074 C3066 1.356 . S
N3074 H3080 0.984 . S
N3074 H3081 0.984 . S
N3075 C3068 1.356 . S
N3075 H3078 0.984 . S
N3075 H3079 0.985 . S
H3076 N3071 0.984 . S
H3077 N3071 0.985 . S
H3078 N3075 0.984 . S
H3079 N3075 0.985 . S
H3080 N3074 0.984 . S
H3081 N3074 0.984 . S
H3082 N3070 0.984 . S
H3083 N3070 0.985 . S
C3084 C3085 1.363 . S
C3084 C3090 1.379 . S
C3084 N3092 1.356 . S
C3085 C3084 1.363 . S
C3085 C3091 1.363 . S
C3086 C3087 1.363 . S
C3086 C3091 1.379 . S
C3086 N3093 1.356 . S
C3087 C3086 1.363 . S
C3087 C3090 1.363 . S
N3088 C3090 1.356 . S
N3088 H3100 0.984 . S
N3088 H3101 0.985 . S
N3089 C3091 1.356 . S
N3089 H3094 0.984 . S
N3089 H3095 0.985 . S
C3090 C3084 1.379 . S
C3090 C3087 1.363 . S
C3090 N3088 1.356 . S
C3091 C3085 1.363 . S
C3091 C3086 1.379 . S
C3091 N3089 1.356 . S
N3092 C3084 1.356 . S
N3092 H3098 0.984 . S
N3092 H3099 0.984 . S
N3093 C3086 1.356 . S
N3093 H3096 0.984 . S
N3093 H3097 0.985 . S
H3094 N3089 0.984 . S
H3095 N3089 0.985 . S
H3096 N3093 0.984 . S
H3097 N3093 0.985 . S
H3098 N3092 0.984 . S
H3099 N3092 0.984 . S
H3100 N3088 0.984 . S
H3101 N3088 0.985 . S
C3102 C3103 1.363 . S
C3102 C3108 1.379 . S
C3102 N3110 1.356 . S
C3103 C3102 1.363 . S
C3103 C3109 1.363 . S
C3104 C3105 1.363 . S
C3104 C3109 1.379 . S
C3104 N3111 1.356 . S
C3105 C3104 1.363 . S
C3105 C3108 1.363 . S
N3106 C3108 1.356 . S
N3106 H3118 0.984 . S
N3106 H3119 0.985 . S
N3107 C3109 1.356 . S
N3107 H3112 0.984 . S
N3107 H3113 0.985 . S
C3108 C3102 1.379 . S
C3108 C3105 1.363 . S
C3108 N3106 1.356 . S
C3109 C3103 1.363 . S
C3109 C3104 1.379 . S
C3109 N3107 1.356 . S
N3110 C3102 1.356 . S
N3110 H3116 0.984 . S
N3110 H3117 0.984 . S
N3111 C3104 1.356 . S
N3111 H3114 0.984 . S
N3111 H3115 0.985 . S
H3112 N3107 0.984 . S
H3113 N3107 0.985 . S
H3114 N3111 0.984 . S
H3115 N3111 0.985 . S
H3116 N3110 0.984 . S
H3117 N3110 0.984 . S
H3118 N3106 0.984 . S
H3119 N3106 0.985 . S
C3120 C3121 1.363 . S
C3120 C3126 1.379 . S
C3120 N3128 1.356 . S
C3121 C3120 1.363 . S
C3121 C3127 1.363 . S
C3122 C3123 1.363 . S
C3122 C3127 1.379 . S
C3122 N3129 1.356 . S
C3123 C3122 1.363 . S
C3123 C3126 1.363 . S
N3124 C3126 1.356 . S
N3124 H3136 0.984 . S
N3124 H3137 0.985 . S
N3125 C3127 1.356 . S
N3125 H3130 0.984 . S
N3125 H3131 0.985 . S
C3126 C3120 1.379 . S
C3126 C3123 1.363 . S
C3126 N3124 1.356 . S
C3127 C3121 1.363 . S
C3127 C3122 1.379 . S
C3127 N3125 1.356 . S
N3128 C3120 1.356 . S
N3128 H3134 0.984 . S
N3128 H3135 0.984 . S
N3129 C3122 1.356 . S
N3129 H3132 0.984 . S
N3129 H3133 0.985 . S
H3130 N3125 0.984 . S
H3131 N3125 0.985 . S
H3132 N3129 0.984 . S
H3133 N3129 0.985 . S
H3134 N3128 0.984 . S
H3135 N3128 0.984 . S
H3136 N3124 0.984 . S
H3137 N3124 0.985 . S
C3138 C3139 1.363 . S
C3138 C3144 1.379 . S
C3138 N3146 1.356 . S
C3139 C3138 1.363 . S
C3139 C3145 1.363 . S
C3140 C3141 1.363 . S
C3140 C3145 1.379 . S
C3140 N3147 1.356 . S
C3141 C3140 1.363 . S
C3141 C3144 1.363 . S
N3142 C3144 1.356 . S
N3142 H3154 0.984 . S
N3142 H3155 0.985 . S
N3143 C3145 1.356 . S
N3143 H3148 0.984 . S
N3143 H3149 0.985 . S
C3144 C3138 1.379 . S
C3144 C3141 1.363 . S
C3144 N3142 1.356 . S
C3145 C3139 1.363 . S
C3145 C3140 1.379 . S
C3145 N3143 1.356 . S
N3146 C3138 1.356 . S
N3146 H3152 0.984 . S
N3146 H3153 0.984 . S
N3147 C3140 1.356 . S
N3147 H3150 0.984 . S
N3147 H3151 0.985 . S
H3148 N3143 0.984 . S
H3149 N3143 0.985 . S
H3150 N3147 0.984 . S
H3151 N3147 0.985 . S
H3152 N3146 0.984 . S
H3153 N3146 0.984 . S
H3154 N3142 0.984 . S
H3155 N3142 0.985 . S
C3156 C3157 1.363 . S
C3156 C3162 1.379 . S
C3156 N3164 1.356 . S
C3157 C3156 1.363 . S
C3157 C3163 1.363 . S
C3158 C3159 1.363 . S
C3158 C3163 1.379 . S
C3158 N3165 1.356 . S
C3159 C3158 1.363 . S
C3159 C3162 1.363 . S
N3160 C3162 1.356 1_455 S
N3160 H3172 0.984 . S
N3160 H3173 0.985 . S
N3161 C3163 1.356 . S
N3161 H3166 0.984 . S
N3161 H3167 0.985 . S
C3162 C3156 1.379 . S
C3162 C3159 1.363 . S
C3162 N3160 1.356 1_655 S
C3163 C3157 1.363 . S
C3163 C3158 1.379 . S
C3163 N3161 1.356 . S
N3164 C3156 1.356 . S
N3164 H3170 0.984 . S
N3164 H3171 0.984 . S
N3165 C3158 1.356 . S
N3165 H3168 0.984 1_556 S
N3165 H3169 0.985 . S
H3166 N3161 0.984 . S
H3167 N3161 0.985 . S
H3168 N3165 0.984 1_554 S
H3169 N3165 0.985 . S
H3170 N3164 0.984 . S
H3171 N3164 0.984 . S
H3172 N3160 0.984 . S
H3173 N3160 0.985 . S
C3174 C3175 1.363 . S
C3174 C3180 1.379 . S
C3174 N3182 1.356 . S
C3175 C3174 1.363 . S
C3175 C3181 1.363 . S
C3176 C3177 1.363 . S
C3176 C3181 1.379 . S
C3176 N3183 1.356 . S
C3177 C3176 1.363 . S
C3177 C3180 1.363 . S
N3178 C3180 1.356 . S
N3178 H3190 0.984 . S
N3178 H3191 0.985 . S
N3179 C3181 1.356 . S
N3179 H3184 0.984 . S
N3179 H3185 0.985 . S
C3180 C3174 1.379 . S
C3180 C3177 1.363 . S
C3180 N3178 1.356 . S
C3181 C3175 1.363 . S
C3181 C3176 1.379 . S
C3181 N3179 1.356 . S
N3182 C3174 1.356 . S
N3182 H3188 0.984 . S
N3182 H3189 0.984 . S
N3183 C3176 1.356 . S
N3183 H3186 0.984 . S
N3183 H3187 0.985 . S
H3184 N3179 0.984 . S
H3185 N3179 0.985 . S
H3186 N3183 0.984 . S
H3187 N3183 0.985 . S
H3188 N3182 0.984 . S
H3189 N3182 0.984 . S
H3190 N3178 0.984 . S
H3191 N3178 0.985 . S
C3192 C3193 1.363 . S
C3192 C3198 1.379 . S
C3192 N3200 1.356 . S
C3193 C3192 1.363 . S
C3193 C3199 1.363 . S
C3194 C3195 1.363 . S
C3194 C3199 1.379 . S
C3194 N3201 1.356 . S
C3195 C3194 1.363 . S
C3195 C3198 1.363 . S
N3196 C3198 1.356 . S
N3196 H3208 0.984 . S
N3196 H3209 0.985 . S
N3197 C3199 1.356 . S
N3197 H3202 0.984 . S
N3197 H3203 0.985 . S
C3198 C3192 1.379 . S
C3198 C3195 1.363 . S
C3198 N3196 1.356 . S
C3199 C3193 1.363 . S
C3199 C3194 1.379 . S
C3199 N3197 1.356 . S
N3200 C3192 1.356 . S
N3200 H3206 0.984 . S
N3200 H3207 0.984 . S
N3201 C3194 1.356 . S
N3201 H3204 0.984 . S
N3201 H3205 0.985 . S
H3202 N3197 0.984 . S
H3203 N3197 0.985 . S
H3204 N3201 0.984 . S
H3205 N3201 0.985 . S
H3206 N3200 0.984 . S
H3207 N3200 0.984 . S
H3208 N3196 0.984 . S
H3209 N3196 0.985 . S
C3210 C3211 1.363 . S
C3210 C3216 1.379 . S
C3210 N3218 1.356 . S
C3211 C3210 1.363 . S
C3211 C3217 1.363 . S
C3212 C3213 1.363 . S
C3212 C3217 1.379 . S
C3212 N3219 1.356 . S
C3213 C3212 1.363 . S
C3213 C3216 1.363 . S
N3214 C3216 1.356 . S
N3214 H3226 0.984 . S
N3214 H3227 0.985 . S
N3215 C3217 1.356 . S
N3215 H3220 0.984 . S
N3215 H3221 0.985 . S
C3216 C3210 1.379 . S
C3216 C3213 1.363 . S
C3216 N3214 1.356 . S
C3217 C3211 1.363 . S
C3217 C3212 1.379 . S
C3217 N3215 1.356 . S
N3218 C3210 1.356 . S
N3218 H3224 0.984 . S
N3218 H3225 0.984 . S
N3219 C3212 1.356 . S
N3219 H3222 0.984 . S
N3219 H3223 0.985 . S
H3220 N3215 0.984 . S
H3221 N3215 0.985 . S
H3222 N3219 0.984 . S
H3223 N3219 0.985 . S
H3224 N3218 0.984 . S
H3225 N3218 0.984 . S
H3226 N3214 0.984 . S
H3227 N3214 0.985 . S
C3228 C3229 1.363 . S
C3228 C3234 1.379 . S
C3228 N3236 1.356 . S
C3229 C3228 1.363 . S
C3229 C3235 1.363 . S
C3230 C3231 1.363 . S
C3230 C3235 1.379 . S
C3230 N3237 1.356 . S
C3231 C3230 1.363 . S
C3231 C3234 1.363 . S
N3232 C3234 1.356 . S
N3232 H3244 0.984 . S
N3232 H3245 0.985 . S
N3233 C3235 1.356 . S
N3233 H3238 0.984 . S
N3233 H3239 0.985 . S
C3234 C3228 1.379 . S
C3234 C3231 1.363 . S
C3234 N3232 1.356 . S
C3235 C3229 1.363 . S
C3235 C3230 1.379 . S
C3235 N3233 1.356 . S
N3236 C3228 1.356 . S
N3236 H3242 0.984 . S
N3236 H3243 0.984 . S
N3237 C3230 1.356 . S
N3237 H3240 0.984 . S
N3237 H3241 0.985 . S
H3238 N3233 0.984 . S
H3239 N3233 0.985 . S
H3240 N3237 0.984 . S
H3241 N3237 0.985 . S
H3242 N3236 0.984 . S
H3243 N3236 0.984 . S
H3244 N3232 0.984 . S
H3245 N3232 0.985 . S
C3246 C3247 1.363 . S
C3246 C3252 1.379 . S
C3246 N3254 1.356 . S
C3247 C3246 1.363 . S
C3247 C3253 1.363 . S
C3248 C3249 1.363 . S
C3248 C3253 1.379 . S
C3248 N3255 1.356 . S
C3249 C3248 1.363 . S
C3249 C3252 1.363 . S
N3250 C3252 1.356 . S
N3250 H3262 0.984 . S
N3250 H3263 0.985 . S
N3251 C3253 1.356 . S
N3251 H3256 0.984 . S
N3251 H3257 0.985 . S
C3252 C3246 1.379 . S
C3252 C3249 1.363 . S
C3252 N3250 1.356 . S
C3253 C3247 1.363 . S
C3253 C3248 1.379 . S
C3253 N3251 1.356 . S
N3254 C3246 1.356 . S
N3254 H3260 0.984 . S
N3254 H3261 0.984 . S
N3255 C3248 1.356 . S
N3255 H3258 0.984 . S
N3255 H3259 0.985 . S
H3256 N3251 0.984 . S
H3257 N3251 0.985 . S
H3258 N3255 0.984 . S
H3259 N3255 0.985 . S
H3260 N3254 0.984 . S
H3261 N3254 0.984 . S
H3262 N3250 0.984 . S
H3263 N3250 0.985 . S
C3264 C3265 1.363 . S
C3264 C3270 1.379 . S
C3264 N3272 1.356 . S
C3265 C3264 1.363 . S
C3265 C3271 1.363 . S
C3266 C3267 1.363 . S
C3266 C3271 1.379 . S
C3266 N3273 1.356 . S
C3267 C3266 1.363 . S
C3267 C3270 1.363 . S
N3268 C3270 1.356 . S
N3268 H3280 0.984 . S
N3268 H3281 0.985 . S
N3269 C3271 1.356 . S
N3269 H3274 0.984 . S
N3269 H3275 0.985 . S
C3270 C3264 1.379 . S
C3270 C3267 1.363 . S
C3270 N3268 1.356 . S
C3271 C3265 1.363 . S
C3271 C3266 1.379 . S
C3271 N3269 1.356 . S
N3272 C3264 1.356 . S
N3272 H3278 0.984 . S
N3272 H3279 0.984 . S
N3273 C3266 1.356 . S
N3273 H3276 0.984 . S
N3273 H3277 0.985 . S
H3274 N3269 0.984 . S
H3275 N3269 0.985 . S
H3276 N3273 0.984 . S
H3277 N3273 0.985 . S
H3278 N3272 0.984 . S
H3279 N3272 0.984 . S
H3280 N3268 0.984 . S
H3281 N3268 0.985 . S
C3282 C3283 1.363 . S
C3282 C3288 1.379 . S
C3282 N3290 1.356 . S
C3283 C3282 1.363 . S
C3283 C3289 1.363 . S
C3284 C3285 1.363 . S
C3284 C3289 1.379 . S
C3284 N3291 1.356 . S
C3285 C3284 1.363 . S
C3285 C3288 1.363 . S
N3286 C3288 1.356 1_545 S
N3286 H3298 0.984 . S
N3286 H3299 0.985 . S
N3287 C3289 1.356 . S
N3287 H3292 0.984 . S
N3287 H3293 0.985 . S
C3288 C3282 1.379 . S
C3288 C3285 1.363 . S
C3288 N3286 1.356 1_565 S
C3289 C3283 1.363 . S
C3289 C3284 1.379 . S
C3289 N3287 1.356 . S
N3290 C3282 1.356 . S
N3290 H3296 0.948 1_565 S
N3290 H3297 0.984 . S
N3291 C3284 1.356 . S
N3291 H3294 0.984 . S
N3291 H3295 0.985 . S
H3292 N3287 0.984 . S
H3293 N3287 0.985 . S
H3294 N3291 0.984 . S
H3295 N3291 0.985 . S
H3296 N3290 0.948 1_545 S
H3297 N3290 0.984 . S
H3298 N3286 0.984 . S
H3299 N3286 0.985 . S
C3300 C3301 1.363 . S
C3300 C3306 1.379 . S
C3300 N3308 1.356 . S
C3301 C3300 1.363 . S
C3301 C3307 1.363 . S
C3302 C3303 1.363 . S
C3302 C3307 1.379 . S
C3302 N3309 1.356 . S
C3303 C3302 1.363 . S
C3303 C3306 1.363 . S
N3304 C3306 1.356 . S
N3304 H3316 0.984 . S
N3304 H3317 0.985 . S
N3305 C3307 1.356 . S
N3305 H3310 0.984 . S
N3305 H3311 0.985 . S
C3306 C3300 1.379 . S
C3306 C3303 1.363 . S
C3306 N3304 1.356 . S
C3307 C3301 1.363 . S
C3307 C3302 1.379 . S
C3307 N3305 1.356 . S
N3308 C3300 1.356 . S
N3308 H3314 0.984 . S
N3308 H3315 0.984 . S
N3309 C3302 1.356 . S
N3309 H3312 0.984 . S
N3309 H3313 0.985 . S
H3310 N3305 0.984 . S
H3311 N3305 0.985 . S
H3312 N3309 0.984 . S
H3313 N3309 0.985 . S
H3314 N3308 0.984 . S
H3315 N3308 0.984 . S
H3316 N3304 0.984 . S
H3317 N3304 0.985 . S
C3318 C3319 1.363 . S
C3318 C3324 1.379 . S
C3318 N3326 1.356 . S
C3319 C3318 1.363 . S
C3319 C3325 1.363 . S
C3320 C3321 1.363 . S
C3320 C3325 1.379 . S
C3320 N3327 1.356 . S
C3321 C3320 1.363 . S
C3321 C3324 1.363 . S
N3322 C3324 1.356 . S
N3322 H3334 0.984 . S
N3322 H3335 0.985 . S
N3323 C3325 1.356 . S
N3323 H3328 0.984 . S
N3323 H3329 0.985 . S
C3324 C3318 1.379 . S
C3324 C3321 1.363 . S
C3324 N3322 1.356 . S
C3325 C3319 1.363 . S
C3325 C3320 1.379 . S
C3325 N3323 1.356 . S
N3326 C3318 1.356 . S
N3326 H3332 0.984 . S
N3326 H3333 0.984 . S
N3327 C3320 1.356 . S
N3327 H3330 0.984 . S
N3327 H3331 0.985 . S
H3328 N3323 0.984 . S
H3329 N3323 0.985 . S
H3330 N3327 0.984 . S
H3331 N3327 0.985 . S
H3332 N3326 0.984 . S
H3333 N3326 0.984 . S
H3334 N3322 0.984 . S
H3335 N3322 0.985 . S
C3336 C3337 1.363 . S
C3336 C3342 1.379 . S
C3336 N3344 1.356 . S
C3337 C3336 1.363 . S
C3337 C3343 1.363 . S
C3338 C3339 1.363 . S
C3338 C3343 1.379 . S
C3338 N3345 1.356 . S
C3339 C3338 1.363 . S
C3339 C3342 1.363 . S
N3340 C3342 1.356 . S
N3340 H3352 0.984 . S
N3340 H3353 0.985 . S
N3341 C3343 1.356 . S
N3341 H3346 0.984 . S
N3341 H3347 0.985 . S
C3342 C3336 1.379 . S
C3342 C3339 1.363 . S
C3342 N3340 1.356 . S
C3343 C3337 1.363 . S
C3343 C3338 1.379 . S
C3343 N3341 1.356 . S
N3344 C3336 1.356 . S
N3344 H3350 0.984 . S
N3344 H3351 0.984 . S
N3345 C3338 1.356 . S
N3345 H3348 0.984 . S
N3345 H3349 0.985 . S
H3346 N3341 0.984 . S
H3347 N3341 0.985 . S
H3348 N3345 0.984 . S
H3349 N3345 0.985 . S
H3350 N3344 0.984 . S
H3351 N3344 0.984 . S
H3352 N3340 0.984 . S
H3353 N3340 0.985 . S
C3354 C3355 1.363 . S
C3354 C3360 1.379 . S
C3354 N3362 1.356 . S
C3355 C3354 1.363 . S
C3355 C3361 1.363 . S
C3356 C3357 1.363 . S
C3356 C3361 1.379 . S
C3356 N3363 1.356 1_554 S
C3357 C3356 1.363 . S
C3357 C3360 1.363 . S
N3358 C3360 1.356 . S
N3358 H3370 0.984 . S
N3358 H3371 0.985 . S
N3359 C3361 1.356 . S
N3359 H3364 0.984 . S
N3359 H3365 0.985 1_554 S
C3360 C3354 1.379 . S
C3360 C3357 1.363 . S
C3360 N3358 1.356 . S
C3361 C3355 1.363 . S
C3361 C3356 1.379 . S
C3361 N3359 1.356 . S
N3362 C3354 1.356 . S
N3362 H3368 0.984 . S
N3362 H3369 0.984 . S
N3363 C3356 1.356 1_556 S
N3363 H3366 0.984 . S
N3363 H3367 0.985 . S
H3364 N3359 0.984 . S
H3365 N3359 0.985 1_556 S
H3366 N3363 0.984 . S
H3367 N3363 0.985 . S
H3368 N3362 0.984 . S
H3369 N3362 0.984 . S
H3370 N3358 0.984 . S
H3371 N3358 0.985 . S
C3372 C3373 1.363 . S
C3372 C3378 1.379 . S
C3372 N3380 1.356 . S
C3373 C3372 1.363 . S
C3373 C3379 1.363 . S
C3374 C3375 1.363 . S
C3374 C3379 1.379 . S
C3374 N3381 1.356 . S
C3375 C3374 1.363 . S
C3375 C3378 1.363 . S
N3376 C3378 1.356 . S
N3376 H3388 0.984 . S
N3376 H3389 0.985 . S
N3377 C3379 1.356 . S
N3377 H3382 0.984 . S
N3377 H3383 0.985 . S
C3378 C3372 1.379 . S
C3378 C3375 1.363 . S
C3378 N3376 1.356 . S
C3379 C3373 1.363 . S
C3379 C3374 1.379 . S
C3379 N3377 1.356 . S
N3380 C3372 1.356 . S
N3380 H3386 0.984 . S
N3380 H3387 0.984 . S
N3381 C3374 1.356 . S
N3381 H3384 0.984 . S
N3381 H3385 0.985 . S
H3382 N3377 0.984 . S
H3383 N3377 0.985 . S
H3384 N3381 0.984 . S
H3385 N3381 0.985 . S
H3386 N3380 0.984 . S
H3387 N3380 0.984 . S
H3388 N3376 0.984 . S
H3389 N3376 0.985 . S
C3390 C3391 1.363 . S
C3390 C3396 1.379 . S
C3390 N3398 1.356 . S
C3391 C3390 1.363 . S
C3391 C3397 1.363 . S
C3392 C3393 1.363 . S
C3392 C3397 1.379 . S
C3392 N3399 1.356 . S
C3393 C3392 1.363 . S
C3393 C3396 1.363 . S
N3394 C3396 1.356 . S
N3394 H3406 0.984 . S
N3394 H3407 0.985 . S
N3395 C3397 1.356 . S
N3395 H3400 0.984 . S
N3395 H3401 0.985 . S
C3396 C3390 1.379 . S
C3396 C3393 1.363 . S
C3396 N3394 1.356 . S
C3397 C3391 1.363 . S
C3397 C3392 1.379 . S
C3397 N3395 1.356 . S
N3398 C3390 1.356 . S
N3398 H3404 0.984 . S
N3398 H3405 0.984 . S
N3399 C3392 1.356 . S
N3399 H3402 0.984 . S
N3399 H3403 0.985 . S
H3400 N3395 0.984 . S
H3401 N3395 0.985 . S
H3402 N3399 0.984 . S
H3403 N3399 0.985 . S
H3404 N3398 0.984 . S
H3405 N3398 0.984 . S
H3406 N3394 0.984 . S
H3407 N3394 0.985 . S
C1681 C111 2.309 1_455 S
C1683 C392 2.297 . S
C1699 C64 1.925 . S
C1701 C494 2.021 . S
C1717 C77 1.910 . S
C1719 C560 1.921 . S
C1737 C646 1.195 . S
C1735 C95 1.277 . S
C1753 C25 1.284 . S
C1755 C730 1.198 . S
C1773 C812 1.990 . S
C1771 C36 1.844 . S
C1791 C914 2.003 . S
C1789 C50 1.909 . S
C1807 C11 2.206 . S
C1809 C980 2.230 . S
C1827 C410 1.777 . S
C1825 C237 1.812 . S
C1843 C245 0.950 . S
C1845 C478 0.911 . S
C1863 C578 1.143 . S
C1861 C279 1.056 . S
C1881 C644 1.610 . S
C1879 C175 1.613 . S
C1897 C231 1.584 . S
C1899 C728 1.581 . S
C1917 C830 1.145 . S
C1915 C251 1.055 . S
C1935 C898 0.939 . S
C1933 C273 0.976 . S
C1953 C998 1.783 . S
C1951 C181 1.819 . S
C1971 C394 1.162 . S
C1969 C165 1.155 1_554 S
C1987 C288 1.630 . S
C1989 C1082 1.704 . S
C2007 C1150 1.346 . S
C2005 C333 1.401 . S
C2025 C1232 0.828 . S
C2023 C316 0.813 . S
C2041 C123 1.142 . S
C2043 C982 1.150 . S
C2059 C137 1.381 . S
C2061 C562 1.330 . S
C2077 C330 1.630 . S
C2079 C1334 1.703 . S
C2097 C1400 0.841 . S
C2095 C302 0.822 . S
C2115 C403 2.402 . S
C2113 C63 2.383 . S
C2133 C1407 2.033 . S
C2131 C106 2.033 . S
C2149 C97 1.936 . S
C2151 C571 1.985 . S
C2167 C81 1.310 . S
C2169 C1329 1.228 . S
C2187 C741 1.271 . S
C2185 C13 1.283 . S
C2203 C55 1.932 . S
C2205 C1159 1.985 . S
C2223 C903 1.943 1_556 S
C2221 C35 1.896 . S
C2241 C1495 2.396 . S
C2239 C21 2.377 . S
C2259 C399 1.887 . S
C2257 C147 1.954 . S
C2277 C1413 0.908 . S
C2275 C321 0.935 . S
C2293 C119 1.168 . S
C2295 C567 1.171 . S
C2311 C293 1.633 . S
C2313 C1327 1.693 . S
C2329 C153 1.633 . S
C2331 C739 1.697 . S
C2349 C1155 1.188 . S
C2347 C315 1.182 . S
C2365 C125 0.942 1_545 S
C2367 C909 0.912 . S
C2383 C287 1.946 . S
C2385 C1491 1.875 . S
C2401 C193 1.131 . S
C2403 C405 1.196 . S
C2419 C176 1.701 . S
C2421 C1071 1.704 . S
C2437 C263 1.345 . S
C2439 C825 1.342 . S
C2455 C246 0.947 . S
C2457 C1243 0.989 . S
C2475 C1497 1.160 . S
C2473 C277 1.114 . S
C2491 C221 1.342 . S
C2493 C573 1.320 . S
C2511 C651 1.720 . S
C2509 C260 1.717 . S
C2529 C487 0.973 . S
C2527 C204 0.934 . S
C2545 C83 2.309 . S
C2547 C1568 2.297 . S
C2565 C1418 2.021 . S
C2563 C92 1.925 . S
C2581 C105 1.911 . S
C2583 C1652 1.921 . S
C2599 C67 1.277 . S
C2601 C1318 1.195 . S
C2617 C53 1.284 . S
C2619 C1066 1.198 . S
C2637 C1148 1.990 . S
C2635 C8 1.844 1_655 S
C2655 C1250 2.003 . S
C2653 C22 1.909 . S
C2673 C1484 2.230 . S
C2671 C39 2.206 . S
C2691 C1586 1.778 . S
C2689 C265 1.813 . S
C2707 C189 0.950 . S
C2709 C1402 0.911 . S
C2727 C1670 1.144 . S
C2725 C209 1.056 . S
C2745 C1316 1.610 . S
C2743 C217 1.613 . S
C2763 C1064 1.581 . S
C2761 C259 1.584 . S
C2779 C195 1.056 . S
C2781 C1166 1.146 . S
C2799 C1234 0.939 . S
C2797 C203 0.976 . S
C2815 C223 1.819 . S
C2817 C1502 1.783 . S
C2835 C1570 1.162 . S
C2833 C319 1.156 . S
C2851 C134 1.630 . S
C2853 C746 1.704 . S
C2871 C814 1.346 . S
C2869 C151 1.401 1_565 S
C2889 C896 0.828 . S
C2887 C162 0.813 . S
C2907 C1486 1.151 . S
C2905 C305 1.142 . S
C2923 C291 1.380 . S
C2925 C1654 1.330 . S
C2943 C662 1.703 . S
C2941 C148 1.630 . S
C2961 C476 0.841 . S
C2959 C120 0.822 . S
C2977 C91 2.383 . S
C2979 C1579 2.402 . S
C2997 C483 2.032 . S
C2995 C78 2.033 . S
C3013 C69 1.936 . S
C3015 C1663 1.985 . S
C3031 C109 1.309 . S
C3033 C657 1.228 . S
C3049 C41 1.283 . S
C3051 C1077 1.271 . S
C3069 C823 1.985 . S
C3067 C27 1.932 . S
C3085 C7 1.896 . S
C3087 C1239 1.943 . S
C3103 C49 2.378 . S
C3105 C991 2.396 . S
C3123 C1575 1.887 . S
C3121 C329 1.954 . S
C3139 C167 0.935 . S
C3141 C489 0.908 . S
C3159 C1659 1.171 1_655 S
C3157 C301 1.168 . S
C3175 C139 1.633 . S
C3177 C655 1.694 . S
C3193 C335 1.633 . S
C3195 C1075 1.697 . S
C3213 C819 1.188 . S
C3211 C161 1.182 . S
C3229 C307 0.942 . S
C3231 C1245 0.912 . S
C3249 C987 1.874 . S
C3247 C133 1.946 . S
C3267 C1581 1.196 . S
C3265 C249 1.131 . S
C3285 C735 1.704 1_565 S
C3283 C218 1.701 . S
C3301 C235 1.345 . S
C3303 C1161 1.342 . S
C3321 C907 0.989 . S
C3319 C190 0.946 . S
C3337 C207 1.114 . S
C3339 C993 1.160 . S
C3355 C179 1.342 . S
C3357 C1665 1.320 . S
C3375 C1323 1.720 . S
C3373 C232 1.717 . S
C3393 C1411 0.973 . S
C3391 C274 0.934 . S
