# Generated by pormake.
# Topology pth, (4,4)-cn, num edge types: 1
# Building blocks:
#     Node 0, Type 0, BuildingBlock: UXUYUI_clean_sbu_0, # of connection points: 4
#     Node 1, Type 0, BuildingBlock: UXUYUI_clean_sbu_0, # of connection points: 4
#     Node 2, Type 0, BuildingBlock: UXUYUI_clean_sbu_0, # of connection points: 4
#     Node 3, Type 1, BuildingBlock: NAWXER_clean_sbu_0, # of connection points: 4
#     Node 4, Type 1, BuildingBlock: NAWXER_clean_sbu_0, # of connection points: 4
#     Node 5, Type 1, BuildingBlock: NAWXER_clean_sbu_0, # of connection points: 4
#     Edge 6, Type (0, 1), BuildingBlock: EZIPEK_clean_linker_0, # of connection points: 2
#     Edge 7, Type (0, 1), BuildingBlock: EZIPEK_clean_linker_0, # of connection points: 2
#     Edge 8, Type (0, 1), BuildingBlock: EZIPEK_clean_linker_0, # of connection points: 2
#     Edge 9, Type (0, 1), BuildingBlock: EZIPEK_clean_linker_0, # of connection points: 2
#     Edge 10, Type (0, 1), BuildingBlock: EZIPEK_clean_linker_0, # of connection points: 2
#     Edge 11, Type (0, 1), BuildingBlock: EZIPEK_clean_linker_0, # of connection points: 2
#     Edge 12, Type (0, 1), BuildingBlock: EZIPEK_clean_linker_0, # of connection points: 2
#     Edge 13, Type (0, 1), BuildingBlock: EZIPEK_clean_linker_0, # of connection points: 2
#     Edge 14, Type (0, 1), BuildingBlock: EZIPEK_clean_linker_0, # of connection points: 2
#     Edge 15, Type (0, 1), BuildingBlock: EZIPEK_clean_linker_0, # of connection points: 2
#     Edge 16, Type (0, 1), BuildingBlock: EZIPEK_clean_linker_0, # of connection points: 2
#     Edge 17, Type (0, 1), BuildingBlock: EZIPEK_clean_linker_0, # of connection points: 2
# Relax obj value: 0.086
# Max RMSD: 0.218
# Mean RMSD: 0.120
data_MOF--net-pth--node1-UXUYUI_clean_sbu_0--node2-NAWXER_clean_sbu_0--edge1-EZIPEK_clean_linker_0
_symmetry_space_group_name_H-M    P1
_symmetry_Int_Tables_number       1
_symmetry_cell_setting            triclinic
loop_
_symmetry_equiv_pos_as_xyz
'x, y, z'
_cell_length_a     21.93886
_cell_length_b     22.014312
_cell_length_c     54.847883
_cell_angle_alpha  90.025544
_cell_angle_beta   90.129033
_cell_angle_gamma 119.89257
loop_
_atom_site_label
_atom_site_type_symbol
_atom_site_fract_x
_atom_site_fract_y
_atom_site_fract_z
_atom_type_partial_charge
Li0 Li 0.07685 0.05161 0.06924 0.0
Li1 Li 0.9948 0.05063 0.10346 0.0
Li2 Li 0.03122 0.96169 0.10063 0.0
Li3 Li 0.95164 0.96148 0.07167 0.0
C4 C 0.14276 0.06505 0.1202 0.0
N5 N 0.23945 0.05814 0.15075 0.0
C6 C 0.1355 0.06606 0.14548 0.0
C7 C 0.19932 0.06077 0.11045 0.0
C8 C 0.18486 0.06236 0.16062 0.0
C9 C 0.24769 0.05741 0.1262 0.0
C10 C 0.94243 0.06432 0.05248 0.0
C11 C 0.82904 0.05468 0.04632 0.0
N12 N 0.83845 0.05592 0.02178 0.0
C13 C 0.95116 0.06588 0.02721 0.0
C14 C 0.88098 0.05881 0.06214 0.0
C15 C 0.8979 0.0614 0.012 0.0
C16 C 0.14499 0.09547 0.02399 0.0
N17 N 0.15222 0.10946 0.04831 0.0
C18 C 0.26461 0.21107 0.04217 0.0
C19 C 0.21067 0.1655 0.05764 0.0
C20 C 0.25712 0.19965 0.01689 0.0
C21 C 0.1969 0.14062 1.0078 0.0
H22 H 0.09808 0.05015 0.01716 0.0
H23 H 0.21469 0.17565 0.07704 0.0
C24 C 0.9707 0.09411 0.14896 0.0
N25 N 0.97704 0.10804 0.12465 0.0
C26 C 0.96451 0.13945 0.16528 0.0
C27 C 0.967 0.21 0.13107 0.0
C28 C 0.97462 0.16414 0.11546 0.0
C29 C 0.96361 0.19868 0.15634 0.0
H30 H 0.97232 0.04876 0.15568 0.0
H31 H 0.98041 0.17423 0.09607 0.0
C32 C 0.04851 0.89897 0.05991 0.0
N33 N 0.07888 0.79399 0.04991 0.0
C34 C 0.99745 0.82888 0.06343 0.0
C35 C 0.11465 0.91576 0.05096 0.0
C36 C 0.01395 0.77654 0.05838 0.0
C37 C 0.12907 0.86188 0.04609 0.0
C38 C 0.86957 0.90214 0.11247 0.0
C39 C 0.84532 0.8304 0.11044 0.0
C40 C 0.82379 0.9252 0.12015 0.0
C41 C 0.77499 0.78274 0.11563 0.0
C42 C 0.75386 0.87586 0.12522 0.0
N43 N 0.73109 0.80627 0.12283 0.0
C44 C 0.01512 0.88278 0.14234 0.0
C45 C 0.10388 0.88849 0.11626 0.0
C46 C 0.02613 0.84082 0.15876 0.0
N47 N 0.05304 0.90485 0.12139 0.0
C48 C 0.11633 0.84617 0.13212 0.0
C49 C 0.07664 0.8216 0.1535 0.0
H50 H 0.97604 0.89763 0.14626 0.0
H51 H 0.13502 0.90833 0.09996 0.0
C52 C 0.89203 0.88498 0.02918 0.0
N53 N 0.87411 0.90444 0.05031 0.0
C54 C 0.84044 0.84275 0.01234 0.0
C55 C 0.75259 0.84279 0.03884 0.0
C56 C 0.80604 0.88548 0.05514 0.0
C57 C 0.76988 0.8206 0.01732 0.0
H58 H 0.94657 0.90204 0.02544 0.0
H59 H 0.79296 0.90342 0.07154 0.0
O60 O 0.0937 0.06617 0.10506 0.0
O61 O 0.99277 0.06602 0.06768 0.0
O62 O 0.03344 0.95098 0.06468 0.0
O63 O 0.93831 0.94959 0.10767 0.0
H64 H 0.09189 0.06897 0.15333 0.0
H65 H 0.20505 0.05865 0.09092 0.0
H66 H 0.17965 0.06265 0.18022 0.0
H67 H 0.29144 0.05361 0.1189 0.0
H68 H 0.78102 0.04993 0.05355 0.0
H69 H 0.99818 0.06976 0.01943 0.0
H70 H 0.8729 0.05649 0.08165 0.0
H71 H 0.90373 0.06207 0.9924 0.0
H72 H 0.3104 0.25635 0.04971 0.0
H73 H 0.18951 0.13056 0.98838 0.0
H74 H 0.96231 0.12951 0.18469 0.0
H75 H 0.96679 0.25549 0.12365 0.0
H76 H 0.94567 0.81511 0.06995 0.0
H77 H 0.15455 0.96984 0.048 0.0
H78 H 0.97509 0.72205 0.06115 0.0
H79 H 0.18017 0.87404 0.0393 0.0
H80 H 0.88047 0.81174 0.10499 0.0
H81 H 0.84191 0.98056 0.122 0.0
H82 H 0.75535 0.72704 0.11401 0.0
H83 H 0.71768 0.89291 0.13103 0.0
H84 H 0.99463 0.82235 0.17514 0.0
H85 H 0.15575 0.83205 0.12767 0.0
H86 H 0.85518 0.82625 0.99584 0.0
H87 H 0.69838 0.82647 0.04309 0.0
Li88 Li 0.98879 0.94752 0.40306 0.0
Li89 Li 0.07598 0.03055 0.43437 0.0
Li90 Li 0.95225 0.99532 0.43655 0.0
Li91 Li 0.02438 0.07684 0.40633 0.0
C92 C 0.95875 0.88912 0.4564 0.0
N93 N 0.88098 0.80031 0.49373 0.0
C94 C 0.97636 0.91019 0.48065 0.0
C95 C 0.90208 0.82278 0.45109 0.0
C96 C 0.93621 0.86456 0.49928 0.0
C97 C 0.86332 0.77864 0.47024 0.0
C98 C 0.14942 0.04569 0.3935 0.0
C99 C 0.2754 0.12048 0.39541 0.0
N100 N 0.28354 0.06826 0.38557 0.0
C101 C 0.15908 0.99302 0.38319 0.0
C102 C 0.20805 0.1102 0.39944 0.0
C103 C 0.22728 1.00536 0.37939 0.0
C104 C 0.94082 0.8678 0.35946 0.0
N105 N 0.96824 0.87091 0.38199 0.0
C106 C 0.97803 0.76958 0.37351 0.0
C107 C 0.98583 0.82266 0.38939 0.0
C108 C 0.95098 0.76582 0.35001 0.0
C109 C 0.93071 0.81469 0.34319 0.0
H110 H 0.92814 0.90742 0.35399 0.0
H111 H 1.00828 0.827 0.40732 0.0
C112 C 0.18053 0.09362 0.47133 0.0
N113 N 0.15626 0.04571 0.45294 0.0
C114 C 0.2351 0.10052 0.48641 0.0
C115 C 0.23951 0.00956 0.46308 0.0
C116 C 0.18442 1.0039 0.44862 0.0
C117 C 0.26453 0.05763 0.48241 0.0
H118 H 0.15588 0.12472 0.47486 0.0
H119 H 0.16268 0.96471 0.43439 0.0
C120 C 0.85864 0.96843 0.40095 0.0
N121 N 0.71551 0.91949 0.40073 0.0
C122 C 0.83238 0.01062 0.40964 0.0
C123 C 0.81194 0.90127 0.39216 0.0
C124 C 0.75991 0.98494 0.40939 0.0
C125 C 0.73981 0.87752 0.39218 0.0
C126 C 0.05359 0.15883 0.44354 0.0
C127 C 1.00278 0.17872 0.44689 0.0
C128 C 0.12408 0.21038 0.44084 0.0
C129 C 0.02331 0.24985 0.44726 0.0
C130 C 0.14249 0.28095 0.44125 0.0
N131 N 0.09214 0.29907 0.44441 0.0
C132 C 0.88878 0.01438 0.47849 0.0
C133 C 0.81305 0.91047 0.45675 0.0
C134 C 0.83497 1.00215 0.49474 0.0
N135 N 0.87648 0.96999 0.45948 0.0
C136 C 0.75762 0.89624 0.47257 0.0
C137 C 0.76825 0.94329 0.4915 0.0
H138 H 0.94023 0.05988 0.48087 0.0
H139 H 0.80496 0.87455 0.44206 0.0
C140 C 0.10043 0.18489 0.37179 0.0
N141 N 0.04298 0.15648 0.38654 0.0
C142 C 0.11337 0.24015 0.35615 0.0
C143 C 1.00844 0.2368 0.37133 0.0
C144 C 0.99739 0.18149 0.38659 0.0
C145 C 0.06652 0.26599 0.35572 0.0
H146 H 0.13535 0.1636 0.37171 0.0
H147 H 0.95183 0.15802 0.3982 0.0
O148 O 0.99613 0.93374 0.43793 0.0
O149 O 0.08296 0.03421 0.39766 0.0
O150 O 0.92952 0.99266 0.40094 0.0
O151 O 0.03438 0.08936 0.44267 0.0
H152 H 0.02006 0.96155 0.485 0.0
H153 H 0.88766 0.80597 0.43238 0.0
H154 H 0.94885 0.88027 0.51815 0.0
H155 H 0.81901 0.72729 0.46643 0.0
H156 H 0.32118 0.16997 0.4001 0.0
H157 H 0.11452 0.94311 0.37818 0.0
H158 H 0.20169 0.15176 0.40722 0.0
H159 H 0.23546 0.96492 0.37153 0.0
H160 H 0.99455 0.7329 0.37925 0.0
H161 H 0.90994 0.8133 0.32513 0.0
H162 H 0.25255 0.13712 0.50152 0.0
H163 H 0.26033 0.97479 0.45991 0.0
H164 H 0.86726 0.06187 0.41709 0.0
H165 H 0.83095 0.86741 0.38566 0.0
H166 H 0.73895 0.01689 0.41624 0.0
H167 H 0.70314 0.82559 0.38549 0.0
H168 H 0.94788 0.13977 0.44881 0.0
H169 H 0.1642 0.19615 0.4384 0.0
H170 H 0.98444 0.2659 0.44966 0.0
H171 H 0.19683 0.32132 0.43906 0.0
H172 H 0.84484 0.03894 0.50941 0.0
H173 H 0.70676 0.84992 0.46981 0.0
H174 H 0.1583 0.26129 0.34406 0.0
H175 H 0.97106 0.25536 0.37121 0.0
Li176 Li 0.05854 0.98765 0.73834 0.0
Li177 Li 0.05278 0.06915 0.76956 0.0
Li178 Li 0.96303 0.94647 0.76791 0.0
Li179 Li 0.96528 0.02412 0.73754 0.0
C180 C 0.06759 0.9491 0.79318 0.0
N181 N 0.0643 0.86821 0.83215 0.0
C182 C 0.05387 0.96401 0.81663 0.0
C183 C 0.08032 0.89358 0.78954 0.0
C184 C 0.05218 0.9223 0.8361 0.0
C185 C 0.07832 0.8532 0.80949 0.0
C186 C 0.12383 0.14941 0.73155 0.0
C187 C 0.17422 0.27399 0.73734 0.0
N188 N 0.23684 0.28413 0.72887 0.0
C189 C 0.18859 0.16109 0.7228 0.0
C190 C 0.11639 0.20631 0.73873 0.0
C191 C 0.2451 0.22959 0.7216 0.0
C192 C 0.10535 0.95412 0.69552 0.0
N193 N 0.12082 0.9708 0.71945 0.0
C194 C 0.23198 0.9767 0.71485 0.0
C195 C 0.18212 0.98115 0.72941 0.0
C196 C 0.21798 0.96122 0.68997 0.0
C197 C 0.15336 0.94856 0.68037 0.0
H198 H 0.05651 0.94709 0.68809 0.0
H199 H 0.19334 0.99547 0.74844 0.0
C200 C 0.08652 0.17211 0.80692 0.0
N201 N 0.11318 0.14553 0.79038 0.0
C202 C 0.13156 0.22689 0.82236 0.0
C203 C 0.23043 0.22496 0.80377 0.0
C204 C 0.18356 0.17026 0.78873 0.0
C205 C 0.20433 0.25355 0.82084 0.0
H206 H 0.03033 0.14992 0.80849 0.0
H207 H 0.2032 0.14697 0.77584 0.0
C208 C 0.91328 0.85894 0.72985 0.0
N209 N 0.82762 0.71543 0.7257 0.0
C210 C 0.84067 0.82821 0.73317 0.0
C211 C 0.94219 0.81663 0.7242 0.0
C212 C 0.79831 0.75558 0.7311 0.0
C213 C 0.89802 0.7442 0.7222 0.0
C214 C 0.89721 0.04387 0.77163 0.0
C215 C 0.82799 0.99027 0.76783 0.0
C216 C 0.91193 0.11331 0.77304 0.0
C217 C 0.77473 0.00707 0.76528 0.0
C218 C 0.85717 0.12797 0.77046 0.0
N219 N 0.7903 0.075 0.76663 0.0
C220 C 0.86518 0.87718 0.80571 0.0
C221 C 0.90389 0.80565 0.78676 0.0
C222 C 0.82156 0.82254 0.82128 0.0
N223 N 0.90444 0.86766 0.78859 0.0
C224 C 0.86065 0.74941 0.80187 0.0
C225 C 0.81874 0.75778 0.81925 0.0
H226 H 0.86798 0.9274 0.80739 0.0
H227 H 0.93728 0.79978 0.7737 0.0
C228 C 0.86189 0.99243 0.70133 0.0
N229 N 0.91087 0.04563 0.71524 0.0
C230 C 0.81996 1.00435 0.68506 0.0
C231 C 0.88001 0.12599 0.69738 0.0
C232 C 0.92128 0.11182 0.71329 0.0
C233 C 0.82872 0.07166 0.68311 0.0
H234 H 0.85539 0.94066 0.7028 0.0
H235 H 0.96108 0.15354 0.72423 0.0
O236 O 0.06723 0.98788 0.7738 0.0
O237 O 0.06824 0.08258 0.73323 0.0
O238 O 0.95577 0.93002 0.73184 0.0
O239 O 0.9503 0.02846 0.77354 0.0
H240 H 0.04369 0.00675 0.81967 0.0
H241 H 0.09061 0.88122 0.77144 0.0
H242 H 0.04103 0.93278 0.85433 0.0
H243 H 0.08756 0.80973 0.80695 0.0
H244 H 0.16941 0.31841 0.74311 0.0
H245 H 0.19527 0.1178 0.71704 0.0
H246 H 0.06703 0.1982 0.74588 0.0
H247 H 0.29556 0.23937 0.71493 0.0
H248 H 0.28186 0.9877 0.72267 0.0
H249 H 0.14154 0.93732 0.66115 0.0
H250 H 0.10995 0.24729 0.83567 0.0
H251 H 0.28632 0.24391 0.80244 0.0
H252 H 0.81723 0.85997 0.73743 0.0
H253 H 0.9982 0.8392 0.72173 0.0
H254 H 0.74214 0.73113 0.7338 0.0
H255 H 0.91976 0.71084 0.71798 0.0
H256 H 0.81552 0.93628 0.76675 0.0
H257 H 0.96521 0.1557 0.77554 0.0
H258 H 0.72103 0.9661 0.76219 0.0
H259 H 0.86795 0.18152 0.77132 0.0
H260 H 0.79013 0.83056 0.83472 0.0
H261 H 0.86001 0.7001 0.8001 0.0
H262 H 0.78082 0.96147 0.67418 0.0
H263 H 0.88794 0.17855 0.69619 0.0
C264 C 0.96147 0.5685 0.28272 0.0
C265 C 0.97494 0.41047 0.2227 0.0
O266 O 0.0246 0.58419 0.27752 0.0
Zn267 Zn 0.07738 0.54597 0.25471 0.0
O268 O 0.90994 0.51549 0.27278 0.0
Zn269 Zn 0.96522 0.4884 0.25262 0.0
O270 O 0.01155 0.44995 0.27865 0.0
O271 O 0.12696 0.52049 0.27813 0.0
O272 O 0.9199 0.41092 0.22971 0.0
O273 O 0.03486 0.45686 0.23103 0.0
O274 O 0.12898 0.62364 0.23224 0.0
O275 O 0.014 0.57519 0.22837 0.0
C276 C 0.07308 0.46673 0.28654 0.0
C277 C 0.076 0.62214 0.22213 0.0
C278 C 0.63218 0.07467 0.6145 0.0
C279 C 0.46053 0.05213 0.55259 0.0
O280 O 0.58284 0.01139 0.61109 0.0
Zn281 Zn 0.49163 0.95568 0.58823 0.0
O282 O 0.63338 0.12449 0.60234 0.0
Zn283 Zn 0.54858 0.06678 0.58372 0.0
O284 O 0.47074 0.03068 0.61167 0.0
O285 O 0.41427 0.91541 0.6113 0.0
O286 O 0.51248 0.10847 0.56059 0.0
O287 O 0.44951 0.99323 0.56092 0.0
O288 O 0.51682 0.8967 0.56951 0.0
O289 O 0.58226 0.00965 0.56112 0.0
C290 C 0.42154 0.97239 0.61988 0.0
C291 C 0.56681 0.94598 0.55767 0.0
C292 C 0.45808 0.40739 0.94988 0.0
C293 C 0.62185 0.55667 0.88685 0.0
O294 O 0.44458 0.45379 0.9416 0.0
Zn295 Zn 0.48945 0.54073 0.91706 0.0
O296 O 0.51238 0.40644 0.9423 0.0
Zn297 Zn 0.54276 0.48195 0.91876 0.0
O298 O 0.58552 0.57113 0.94207 0.0
O299 O 0.52002 0.62082 0.93886 0.0
O300 O 0.62135 0.50487 0.8973 0.0
O301 O 0.57608 0.57423 0.89249 0.0
O302 O 0.41126 0.51398 0.89488 0.0
O303 O 0.45453 0.44208 0.89404 0.0
C304 C 0.57208 0.61917 0.9484 0.0
C305 C 0.40939 0.45895 0.88671 0.0
C306 C 0.02576 0.32007 0.17386 0.0
C307 C 0.96572 0.25222 0.17342 0.0
C308 C 0.91651 0.28482 0.20772 0.0
C309 C 0.971 0.35592 0.2055 0.0
N310 N 0.07098 0.44236 0.18219 0.0
N311 N 0.84762 0.17347 0.18715 0.0
C312 C 0.02383 0.37396 0.18737 0.0
C313 C 0.90904 0.23562 0.18948 0.0
N314 N 0.08595 0.33274 0.16216 0.0
N315 N 0.87483 0.26273 0.22797 0.0
H316 H 0.83993 0.13641 0.17384 0.0
H317 H 0.80239 0.16193 0.1969 0.0
H318 H 0.88217 0.295 0.24288 0.0
H319 H 0.83877 0.21016 0.23128 0.0
H320 H 0.13347 0.37945 0.16414 0.0
H321 H 0.09068 0.29422 0.15269 0.0
H322 H 0.10468 0.45727 0.16726 0.0
H323 H 0.07225 0.48468 0.19101 0.0
C324 C 0.66178 0.95503 0.49921 0.0
C325 C 0.70922 0.93314 0.50742 0.0
C326 C 0.65738 0.91122 0.54829 0.0
C327 C 0.60909 0.93186 0.53995 0.0
N328 N 0.55459 0.95864 0.5067 0.0
N329 N 0.74309 0.87641 0.53773 0.0
C330 C 0.60791 0.94899 0.5151 0.0
C331 C 0.7039 0.90654 0.53134 0.0
N332 N 0.67024 0.98453 0.47664 0.0
N333 N 0.66172 0.90019 0.57261 0.0
H334 H 0.77808 0.87281 0.52576 0.0
H335 H 0.73661 0.84975 0.55405 0.0
H336 H 0.62823 0.90246 0.58558 0.0
H337 H 0.70152 0.89354 0.58021 0.0
H338 H 0.64286 0.00913 0.47069 0.0
H339 H 0.70826 0.9888 0.46429 0.0
H340 H 0.5467 0.96474 0.48835 0.0
H341 H 0.51415 0.95413 0.51791 0.0
C342 C 0.70092 0.65274 0.8279 0.0
C343 C 0.77125 0.69891 0.83535 0.0
C344 C 0.74603 0.64556 0.87599 0.0
C345 C 0.6758 0.59903 0.86849 0.0
N346 N 0.58961 0.54776 0.83646 0.0
N347 N 0.86531 0.73082 0.86424 0.0
C348 C 0.65432 0.59935 0.84411 0.0
C349 C 0.7953 0.69235 0.85869 0.0
N350 N 0.67819 0.66158 0.80564 0.0
N351 N 0.76453 0.64792 0.89995 0.0
H352 H 0.90251 0.76669 0.85216 0.0
H353 H 0.88748 0.72332 0.87994 0.0
H354 H 0.73032 0.61397 0.91312 0.0
H355 H 0.81219 0.68639 0.90719 0.0
H356 H 0.62573 0.63538 0.8002 0.0
H357 H 0.7115 0.69839 0.79294 0.0
H358 H 0.57273 0.54088 0.8184 0.0
H359 H 0.55464 0.50771 0.84792 0.0
C360 C 0.04175 0.69864 0.165 0.0
C361 C 0.08367 0.77138 0.16962 0.0
C362 C 0.12319 0.74735 0.20844 0.0
C363 C 0.08388 0.67428 0.20332 0.0
N364 N 0.01583 0.58109 0.1746 0.0
N365 N 0.17426 0.86612 0.19294 0.0
C366 C 0.0462 0.65021 0.18094 0.0
C367 C 0.12785 0.79605 0.19043 0.0
N368 N 0.99559 0.67567 0.1458 0.0
N369 N 0.15186 0.77028 0.23107 0.0
H370 H 0.1778 0.90321 0.18032 0.0
H371 H 0.21318 0.88678 0.20633 0.0
H372 H 0.14804 0.73677 0.24513 0.0
H373 H 0.17388 0.82217 0.23672 0.0
H374 H 0.95684 0.62358 0.14335 0.0
H375 H 0.99259 0.70932 0.13309 0.0
H376 H 0.99551 0.56193 0.15733 0.0
H377 H 0.01572 0.54323 0.18593 0.0
C378 C 0.28916 0.01193 0.5207 0.0
C379 C 0.31523 0.05682 0.50022 0.0
C380 C 0.43623 0.09269 0.5125 0.0
C381 C 0.41057 0.05348 0.53439 0.0
N382 N 0.31158 0.98288 0.56087 0.0
N383 N 0.41276 0.14654 0.47779 0.0
C384 C 0.33674 0.01475 0.53887 0.0
C385 C 0.3886 0.09934 0.4965 0.0
N386 N 0.2187 0.9652 0.52257 0.0
N387 N 0.5053 0.12004 0.50623 0.0
H388 H 0.37931 0.15124 0.46534 0.0
H389 H 0.46542 0.18451 0.47572 0.0
H390 H 0.54118 0.11362 0.51684 0.0
H391 H 0.52553 0.14291 0.48939 0.0
H392 H 0.19753 0.92472 0.53527 0.0
H393 H 0.18147 0.96308 0.51021 0.0
H394 H 0.2596 0.96286 0.56632 0.0
H395 H 0.34293 0.98077 0.57466 0.0
C396 C 0.29568 0.37846 0.83007 0.0
C397 C 0.25313 0.30832 0.83814 0.0
C398 C 0.30339 0.34219 0.87915 0.0
C399 C 0.35188 0.41004 0.87037 0.0
N400 N 0.39966 0.49182 0.83707 0.0
N401 N 0.22263 0.22059 0.86934 0.0
C402 C 0.34923 0.42824 0.84574 0.0
C403 C 0.25841 0.28942 0.86245 0.0
N404 N 0.28404 0.39758 0.80759 0.0
N405 N 0.29906 0.32877 0.90362 0.0
H406 H 0.1888 0.18019 0.85771 0.0
H407 H 0.23081 0.20269 0.88592 0.0
H408 H 0.33002 0.3667 0.91646 0.0
H409 H 0.26019 0.28252 0.91144 0.0
H410 H 0.3083 0.44926 0.80158 0.0
H411 H 0.24567 0.36227 0.79562 0.0
H412 H 0.40562 0.50514 0.81867 0.0
H413 H 0.43894 0.52984 0.84811 0.0
C414 C 0.71648 0.07196 0.67441 0.0
C415 C 0.78304 0.08421 0.66627 0.0
C416 C 0.75427 0.09991 0.62434 0.0
C417 C 0.68778 0.08778 0.63248 0.0
N418 N 0.61011 0.07609 0.66531 0.0
N419 N 0.87162 0.12364 0.63502 0.0
C420 C 0.67041 0.07824 0.6576 0.0
C421 C 0.80404 0.10294 0.6417 0.0
N422 N 0.69655 0.05201 0.69801 0.0
N423 N 0.76824 0.10449 0.59991 0.0
H424 H 0.90887 0.12482 0.64716 0.0
H425 H 0.89249 0.14488 0.61805 0.0
H426 H 0.73371 0.10393 0.58668 0.0
H427 H 0.81192 0.10447 0.59255 0.0
H428 H 0.64586 0.03415 0.70446 0.0
H429 H 0.73004 0.04972 0.71106 0.0
H430 H 0.597 0.07556 0.68356 0.0
H431 H 0.57555 0.08075 0.65338 0.0
C432 C 0.6942 0.79371 0.97997 0.0
C433 C 0.71416 0.7697 1.00081 0.0
C434 C 0.63228 0.64806 0.98928 0.0
C435 C 0.61783 0.67162 0.96697 0.0
N436 N 0.64485 0.76703 0.93922 0.0
N437 N 0.70918 0.67476 0.02427 0.0
C438 C 0.65082 0.74459 0.96188 0.0
C439 C 0.68489 0.69707 1.00523 0.0
N440 N 0.71664 0.86352 0.97752 0.0
N441 N 0.5944 0.57894 0.99563 0.0
H442 H 0.74583 0.70878 0.03695 0.0
H443 H 0.69693 0.62295 0.02655 0.0
H444 H 0.55673 0.54057 0.98438 0.0
H445 H 0.59614 0.56021 0.0129 0.0
H446 H 0.69791 0.88356 0.9641 0.0
H447 H 0.74967 0.90095 0.99019 0.0
H448 H 0.67387 0.81901 0.93363 0.0
H449 H 0.61598 0.73308 0.92509 0.0
C450 C 0.9925 0.73803 0.3111 0.0
C451 C 0.9488 0.71406 0.33201 0.0
C452 C 0.91106 0.59236 0.32062 0.0
C453 C 0.95061 0.61658 0.29879 0.0
N454 N 0.01187 0.71107 0.27014 0.0
N455 N 0.85504 0.61822 0.35397 0.0
C456 C 0.98607 0.68905 0.29308 0.0
C457 C 0.90445 0.64104 0.33595 0.0
N458 N 0.04268 0.80708 0.30893 0.0
N459 N 0.88276 0.52383 0.32738 0.0
H460 H 0.8482 0.6524 0.36532 0.0
H461 H 0.8167 0.56585 0.35615 0.0
H462 H 0.88701 0.48674 0.31682 0.0
H463 H 0.86014 0.50508 0.34439 0.0
H464 H 0.08058 0.82563 0.29524 0.0
H465 H 0.05127 0.8447 0.3221 0.0
H466 H 0.03244 0.76272 0.26438 0.0
H467 H 1.00535 0.67642 0.25608 0.0
C468 C 0.30498 0.02263 0.65672 0.0
C469 C 0.2736 0.96611 0.67333 0.0
C470 C 0.35035 0.92307 0.65835 0.0
C471 C 0.37267 0.97223 0.63887 0.0
N472 N 0.36047 0.06311 0.61777 0.0
N473 N 0.26004 0.85713 0.68827 0.0
C474 C 0.34746 0.0208 0.63761 0.0
C475 C 0.29446 0.91471 0.67369 0.0
N476 N 0.29568 0.07923 0.65953 0.0
N477 N 0.38498 0.88719 0.66314 0.0
H478 H 0.2192 0.84951 0.69987 0.0
H479 H 0.26813 0.81439 0.68731 0.0
H480 H 0.42954 0.89555 0.6536 0.0
H481 H 0.37478 0.85552 0.67844 0.0
H482 H 0.32378 0.12538 0.6496 0.0
H483 H 0.2656 0.08313 0.6735 0.0
H484 H 0.33534 0.09209 0.61492 0.0
H485 H 0.39064 0.06515 0.60293 0.0
C486 C 0.31927 0.32113 0.9995 0.0
C487 C 0.30948 0.25249 0.99991 0.0
C488 C 0.39004 0.28247 0.96539 0.0
C489 C 0.40836 0.3541 0.96751 0.0
N490 N 0.39885 0.44274 0.99099 0.0
N491 N 0.34631 0.17161 0.98625 0.0
C492 C 0.37548 0.37384 0.98584 0.0
C493 C 0.34829 0.2343 0.98381 0.0
N494 N 0.27317 0.33567 0.0113 0.0
N495 N 0.40784 0.25888 0.94508 0.0
H496 H 0.3171 0.13536 0.99975 0.0
H497 H 0.37904 0.15889 0.97642 0.0
H498 H 0.43262 0.29035 0.93002 0.0
H499 H 0.38998 0.20595 0.94188 0.0
H500 H 0.27391 0.38314 0.00937 0.0
H501 H 0.22952 0.29805 0.02082 0.0
H502 H 0.38128 0.45881 1.00598 0.0
H503 H 0.44054 0.48413 0.98208 0.0
C504 C 0.10372 0.39067 0.34478 0.0
C505 C 0.07474 0.3196 0.33758 0.0
C506 C 0.05977 0.34986 0.29588 0.0
C507 C 0.08036 0.41888 0.30375 0.0
N508 N 0.11648 0.50457 0.33595 0.0
N509 N 0.01729 0.22903 0.30719 0.0
C510 C 0.10157 0.43952 0.32824 0.0
C511 C 0.05088 0.29851 0.31333 0.0
N512 N 0.13399 0.41144 0.36729 0.0
N513 N 0.05072 0.33397 0.27155 0.0
H514 H 1.01059 0.18968 0.31931 0.0
H515 H 0.9912 0.20966 0.29067 0.0
H516 H 0.05859 0.37079 0.25819 0.0
H517 H 0.04244 0.28661 0.2644 0.0
H518 H 0.16236 0.4636 0.37279 0.0
H519 H 0.13549 0.37671 0.3799 0.0
H520 H 0.12449 0.5201 0.35416 0.0
H521 H 0.11623 0.54184 0.32428 0.0
loop_
_geom_bond_atom_site_label_1
_geom_bond_atom_site_label_2
_geom_bond_distance
_geom_bond_site_symmetry_2
_ccdc_geom_bond_type
Li0 N17 1.990 . S
Li0 O60 1.956 . S
Li0 O61 1.970 1_455 S
Li0 O62 1.961 1_545 S
Li1 N25 1.990 . S
Li1 O60 1.970 1_655 S
Li1 O61 1.956 . S
Li1 O63 1.961 1_545 S
Li2 N47 1.990 . S
Li2 O60 1.961 1_565 S
Li2 O62 1.956 . S
Li2 O63 1.970 1_455 S
Li3 N53 1.990 . S
Li3 O61 1.961 1_565 S
Li3 O62 1.970 1_655 S
Li3 O63 1.956 . S
C4 C6 1.348 . S
C4 C7 1.356 . S
C4 O60 1.325 . S
N5 C8 1.314 . S
N5 C9 1.279 . S
C6 C4 1.348 . S
C6 C8 1.353 . S
C6 H64 0.929 . S
C7 C4 1.356 . S
C7 C9 1.358 . S
C7 H65 0.930 . S
C8 N5 1.314 . S
C8 C6 1.353 . S
C8 H66 0.930 . S
C9 N5 1.279 . S
C9 C7 1.358 . S
C9 H67 0.930 . S
C10 C13 1.348 1_655 S
C10 C14 1.356 . S
C10 O61 1.325 . S
C11 N12 1.279 . S
C11 C14 1.358 . S
C11 H68 0.930 . S
N12 C11 1.279 . S
N12 C15 1.314 . S
C13 C10 1.348 1_455 S
C13 C15 1.353 1_455 S
C13 H69 0.929 . S
C14 C10 1.356 . S
C14 C11 1.358 . S
C14 H70 0.930 . S
C15 N12 1.314 . S
C15 C13 1.353 1_655 S
C15 H71 0.930 1_655 S
C16 N17 1.314 . S
C16 C21 1.353 . S
C16 H22 0.930 . S
N17 Li0 1.990 . S
N17 C16 1.314 . S
N17 C19 1.279 . S
C18 C19 1.358 . S
C18 C20 1.356 . S
C18 H72 0.930 . S
C19 N17 1.279 . S
C19 C18 1.358 . S
C19 H23 0.930 . S
C20 C18 1.356 . S
C20 C21 1.348 . S
C21 C16 1.353 . S
C21 C20 1.348 . S
C21 H73 0.929 1_554 S
H22 C16 0.930 . S
H23 C19 0.930 . S
C24 N25 1.314 . S
C24 C26 1.353 . S
C24 H30 0.930 . S
N25 Li1 1.990 . S
N25 C24 1.314 . S
N25 C28 1.279 . S
C26 C24 1.353 . S
C26 C29 1.348 . S
C26 H74 0.929 . S
C27 C28 1.358 . S
C27 C29 1.356 . S
C27 H75 0.930 . S
C28 N25 1.279 . S
C28 C27 1.358 . S
C28 H31 0.930 . S
C29 C26 1.348 . S
C29 C27 1.356 . S
H30 C24 0.930 . S
H31 C28 0.930 . S
C32 C34 1.348 1_455 S
C32 C35 1.356 . S
C32 O62 1.325 . S
N33 C36 1.314 . S
N33 C37 1.279 . S
C34 C32 1.348 1_655 S
C34 C36 1.353 1_655 S
C34 H76 0.929 . S
C35 C32 1.356 . S
C35 C37 1.358 . S
C35 H77 0.930 . S
C36 N33 1.314 . S
C36 C34 1.353 1_455 S
C36 H78 0.930 1_455 S
C37 N33 1.279 . S
C37 C35 1.358 . S
C37 H79 0.930 . S
C38 C39 1.348 . S
C38 C40 1.356 . S
C38 O63 1.325 . S
C39 C38 1.348 . S
C39 C41 1.353 . S
C39 H80 0.929 . S
C40 C38 1.356 . S
C40 C42 1.358 . S
C40 H81 0.930 . S
C41 C39 1.353 . S
C41 N43 1.314 . S
C41 H82 0.930 . S
C42 C40 1.358 . S
C42 N43 1.279 . S
C42 H83 0.930 . S
N43 C41 1.314 . S
N43 C42 1.279 . S
C44 C46 1.353 . S
C44 N47 1.314 . S
C44 H50 0.930 . S
C45 N47 1.279 . S
C45 C48 1.358 . S
C45 H51 0.930 . S
C46 C44 1.353 . S
C46 C49 1.348 . S
C46 H84 0.929 . S
N47 Li2 1.990 . S
N47 C44 1.314 . S
N47 C45 1.279 . S
C48 C45 1.358 . S
C48 C49 1.356 . S
C48 H85 0.930 . S
C49 C46 1.348 . S
C49 C48 1.356 . S
H50 C44 0.930 . S
H51 C45 0.930 . S
C52 N53 1.314 . S
C52 C54 1.353 . S
C52 H58 0.930 . S
N53 Li3 1.990 . S
N53 C52 1.314 . S
N53 C56 1.279 . S
C54 C52 1.353 . S
C54 C57 1.348 . S
C54 H86 0.929 1_554 S
C55 C56 1.358 . S
C55 C57 1.356 . S
C55 H87 0.930 . S
C56 N53 1.279 . S
C56 C55 1.358 . S
C56 H59 0.930 . S
C57 C54 1.348 . S
C57 C55 1.356 . S
H58 C52 0.930 . S
H59 C56 0.930 . S
O60 Li0 1.956 . S
O60 Li1 1.970 1_455 S
O60 Li2 1.961 1_545 S
O60 C4 1.325 . S
O61 Li0 1.970 1_655 S
O61 Li1 1.956 . S
O61 Li3 1.961 1_545 S
O61 C10 1.325 . S
O62 Li0 1.961 1_565 S
O62 Li2 1.956 . S
O62 Li3 1.970 1_455 S
O62 C32 1.325 . S
O63 Li1 1.961 1_565 S
O63 Li2 1.970 1_655 S
O63 Li3 1.956 . S
O63 C38 1.325 . S
H64 C6 0.929 . S
H65 C7 0.930 . S
H66 C8 0.930 . S
H67 C9 0.930 . S
H68 C11 0.930 . S
H69 C13 0.929 . S
H70 C14 0.930 . S
H71 C15 0.930 1_455 S
H72 C18 0.930 . S
H73 C21 0.929 1_556 S
H74 C26 0.929 . S
H75 C27 0.930 . S
H76 C34 0.929 . S
H77 C35 0.930 . S
H78 C36 0.930 1_655 S
H79 C37 0.930 . S
H80 C39 0.929 . S
H81 C40 0.930 . S
H82 C41 0.930 . S
H83 C42 0.930 . S
H84 C46 0.929 . S
H85 C48 0.930 . S
H86 C54 0.929 1_556 S
H87 C55 0.930 . S
Li88 N105 1.990 . S
Li88 O148 1.956 . S
Li88 O149 1.970 1_665 S
Li88 O150 1.961 . S
Li89 N113 1.990 . S
Li89 O148 1.970 1_445 S
Li89 O149 1.956 . S
Li89 O151 1.961 . S
Li90 N135 1.990 . S
Li90 O148 1.961 . S
Li90 O150 1.956 . S
Li90 O151 1.970 1_665 S
Li91 N141 1.990 . S
Li91 O149 1.961 . S
Li91 O150 1.970 1_445 S
Li91 O151 1.956 . S
C92 C94 1.348 1_655 S
C92 C95 1.356 . S
C92 O148 1.325 . S
N93 C96 1.314 . S
N93 C97 1.279 . S
C94 C92 1.348 1_455 S
C94 C96 1.353 1_455 S
C94 H152 0.929 . S
C95 C92 1.356 . S
C95 C97 1.358 . S
C95 H153 0.930 . S
C96 N93 1.314 . S
C96 C94 1.353 1_655 S
C96 H154 0.930 1_655 S
C97 N93 1.279 . S
C97 C95 1.358 . S
C97 H155 0.930 . S
C98 C101 1.348 1_545 S
C98 C102 1.356 . S
C98 O149 1.325 . S
C99 N100 1.279 . S
C99 C102 1.358 . S
C99 H156 0.930 . S
N100 C99 1.279 . S
N100 C103 1.314 . S
C101 C98 1.348 1_565 S
C101 C103 1.353 1_565 S
C101 H157 0.929 . S
C102 C98 1.356 . S
C102 C99 1.358 . S
C102 H158 0.930 . S
C103 N100 1.314 . S
C103 C101 1.353 1_545 S
C103 H159 0.930 1_545 S
C104 N105 1.314 . S
C104 C109 1.353 . S
C104 H110 0.930 . S
N105 Li88 1.990 . S
N105 C104 1.314 . S
N105 C107 1.279 . S
C106 C107 1.358 . S
C106 C108 1.356 . S
C106 H160 0.930 . S
C107 N105 1.279 . S
C107 C106 1.358 . S
C107 H111 0.930 . S
C108 C106 1.356 . S
C108 C109 1.348 . S
C109 C104 1.353 . S
C109 C108 1.348 . S
C109 H161 0.929 . S
H110 C104 0.930 . S
H111 C107 0.930 . S
C112 N113 1.314 . S
C112 C114 1.353 . S
C112 H118 0.930 . S
N113 Li89 1.990 . S
N113 C112 1.314 . S
N113 C116 1.279 . S
C114 C112 1.353 . S
C114 C117 1.348 . S
C114 H162 0.929 . S
C115 C116 1.358 . S
C115 C117 1.356 . S
C115 H163 0.930 . S
C116 N113 1.279 . S
C116 C115 1.358 . S
C116 H119 0.930 . S
C117 C114 1.348 . S
C117 C115 1.356 . S
H118 C112 0.930 . S
H119 C116 0.930 . S
C120 C122 1.348 1_565 S
C120 C123 1.356 . S
C120 O150 1.325 . S
N121 C124 1.314 . S
N121 C125 1.279 . S
C122 C120 1.348 1_545 S
C122 C124 1.353 1_545 S
C122 H164 0.929 . S
C123 C120 1.356 . S
C123 C125 1.358 . S
C123 H165 0.930 . S
C124 N121 1.314 . S
C124 C122 1.353 1_565 S
C124 H166 0.930 1_565 S
C125 N121 1.279 . S
C125 C123 1.358 . S
C125 H167 0.930 . S
C126 C127 1.348 1_455 S
C126 C128 1.356 . S
C126 O151 1.325 . S
C127 C126 1.348 1_655 S
C127 C129 1.353 1_655 S
C127 H168 0.929 . S
C128 C126 1.356 . S
C128 C130 1.358 . S
C128 H169 0.930 . S
C129 C127 1.353 1_455 S
C129 N131 1.314 . S
C129 H170 0.930 1_455 S
C130 C128 1.358 . S
C130 N131 1.279 . S
C130 H171 0.930 . S
N131 C129 1.314 . S
N131 C130 1.279 . S
C132 C134 1.353 . S
C132 N135 1.314 . S
C132 H138 0.930 . S
C133 N135 1.279 . S
C133 C136 1.358 . S
C133 H139 0.930 . S
C134 C132 1.353 . S
C134 C137 1.348 . S
C134 H172 0.929 . S
N135 Li90 1.990 . S
N135 C132 1.314 . S
N135 C133 1.279 . S
C136 C133 1.358 . S
C136 C137 1.356 . S
C136 H173 0.930 . S
C137 C134 1.348 . S
C137 C136 1.356 . S
H138 C132 0.930 . S
H139 C133 0.930 . S
C140 N141 1.314 . S
C140 C142 1.353 . S
C140 H146 0.930 . S
N141 Li91 1.990 . S
N141 C140 1.314 . S
N141 C144 1.279 . S
C142 C140 1.353 . S
C142 C145 1.348 . S
C142 H174 0.929 . S
C143 C144 1.358 . S
C143 C145 1.356 . S
C143 H175 0.930 . S
C144 N141 1.279 . S
C144 C143 1.358 . S
C144 H147 0.930 . S
C145 C142 1.348 . S
C145 C143 1.356 . S
H146 C140 0.930 . S
H147 C144 0.930 . S
O148 Li88 1.956 . S
O148 Li89 1.970 1_665 S
O148 Li90 1.961 . S
O148 C92 1.325 . S
O149 Li88 1.970 1_445 S
O149 Li89 1.956 . S
O149 Li91 1.961 . S
O149 C98 1.325 . S
O150 Li88 1.961 . S
O150 Li90 1.956 . S
O150 Li91 1.970 1_665 S
O150 C120 1.325 . S
O151 Li89 1.961 . S
O151 Li90 1.970 1_445 S
O151 Li91 1.956 . S
O151 C126 1.325 . S
H152 C94 0.929 . S
H153 C95 0.930 . S
H154 C96 0.930 1_455 S
H155 C97 0.930 . S
H156 C99 0.930 . S
H157 C101 0.929 . S
H158 C102 0.930 . S
H159 C103 0.930 1_565 S
H160 C106 0.930 . S
H161 C109 0.929 . S
H162 C114 0.929 . S
H163 C115 0.930 . S
H164 C122 0.929 . S
H165 C123 0.930 . S
H166 C124 0.930 1_545 S
H167 C125 0.930 . S
H168 C127 0.929 . S
H169 C128 0.930 . S
H170 C129 0.930 1_655 S
H171 C130 0.930 . S
H172 C134 0.929 . S
H173 C136 0.930 . S
H174 C142 0.929 . S
H175 C143 0.930 . S
Li176 N193 1.990 . S
Li176 O236 1.956 . S
Li176 O237 1.970 1_565 S
Li176 O238 1.961 1_455 S
Li177 N201 1.990 . S
Li177 O236 1.970 1_545 S
Li177 O237 1.956 . S
Li177 O239 1.961 1_455 S
Li178 N223 1.990 . S
Li178 O236 1.961 1_655 S
Li178 O238 1.956 . S
Li178 O239 1.970 1_565 S
Li179 N229 1.990 . S
Li179 O237 1.961 1_655 S
Li179 O238 1.970 1_545 S
Li179 O239 1.956 . S
C180 C182 1.348 1_565 S
C180 C183 1.356 . S
C180 O236 1.325 . S
N181 C184 1.314 . S
N181 C185 1.279 . S
C182 C180 1.348 1_545 S
C182 C184 1.353 1_545 S
C182 H240 0.929 . S
C183 C180 1.356 . S
C183 C185 1.358 . S
C183 H241 0.930 . S
C184 N181 1.314 . S
C184 C182 1.353 1_565 S
C184 H242 0.930 1_565 S
C185 N181 1.279 . S
C185 C183 1.358 . S
C185 H243 0.930 . S
C186 C189 1.348 . S
C186 C190 1.356 . S
C186 O237 1.325 . S
C187 N188 1.279 . S
C187 C190 1.358 . S
C187 H244 0.930 . S
N188 C187 1.279 . S
N188 C191 1.314 . S
C189 C186 1.348 . S
C189 C191 1.353 . S
C189 H245 0.929 . S
C190 C186 1.356 . S
C190 C187 1.358 . S
C190 H246 0.930 . S
C191 N188 1.314 . S
C191 C189 1.353 . S
C191 H247 0.930 . S
C192 N193 1.314 . S
C192 C197 1.353 . S
C192 H198 0.930 . S
N193 Li176 1.990 . S
N193 C192 1.314 . S
N193 C195 1.279 . S
C194 C195 1.358 . S
C194 C196 1.356 . S
C194 H248 0.930 . S
C195 N193 1.279 . S
C195 C194 1.358 . S
C195 H199 0.930 . S
C196 C194 1.356 . S
C196 C197 1.348 . S
C197 C192 1.353 . S
C197 C196 1.348 . S
C197 H249 0.929 . S
H198 C192 0.930 . S
H199 C195 0.930 . S
C200 N201 1.314 . S
C200 C202 1.353 . S
C200 H206 0.930 . S
N201 Li177 1.990 . S
N201 C200 1.314 . S
N201 C204 1.279 . S
C202 C200 1.353 . S
C202 C205 1.348 . S
C202 H250 0.929 . S
C203 C204 1.358 . S
C203 C205 1.356 . S
C203 H251 0.930 . S
C204 N201 1.279 . S
C204 C203 1.358 . S
C204 H207 0.930 . S
C205 C202 1.348 . S
C205 C203 1.356 . S
H206 C200 0.930 . S
H207 C204 0.930 . S
C208 C210 1.348 . S
C208 C211 1.356 . S
C208 O238 1.325 . S
N209 C212 1.314 . S
N209 C213 1.279 . S
C210 C208 1.348 . S
C210 C212 1.353 . S
C210 H252 0.929 . S
C211 C208 1.356 . S
C211 C213 1.358 . S
C211 H253 0.930 . S
C212 N209 1.314 . S
C212 C210 1.353 . S
C212 H254 0.930 . S
C213 N209 1.279 . S
C213 C211 1.358 . S
C213 H255 0.930 . S
C214 C215 1.348 1_545 S
C214 C216 1.356 . S
C214 O239 1.325 . S
C215 C214 1.348 1_565 S
C215 C217 1.353 1_565 S
C215 H256 0.929 . S
C216 C214 1.356 . S
C216 C218 1.358 . S
C216 H257 0.930 . S
C217 C215 1.353 1_545 S
C217 N219 1.314 . S
C217 H258 0.930 1_545 S
C218 C216 1.358 . S
C218 N219 1.279 . S
C218 H259 0.930 . S
N219 C217 1.314 . S
N219 C218 1.279 . S
C220 C222 1.353 . S
C220 N223 1.314 . S
C220 H226 0.930 . S
C221 N223 1.279 . S
C221 C224 1.358 . S
C221 H227 0.930 . S
C222 C220 1.353 . S
C222 C225 1.348 . S
C222 H260 0.929 . S
N223 Li178 1.990 . S
N223 C220 1.314 . S
N223 C221 1.279 . S
C224 C221 1.358 . S
C224 C225 1.356 . S
C224 H261 0.930 . S
C225 C222 1.348 . S
C225 C224 1.356 . S
H226 C220 0.930 . S
H227 C221 0.930 . S
C228 N229 1.314 . S
C228 C230 1.353 . S
C228 H234 0.930 . S
N229 Li179 1.990 . S
N229 C228 1.314 . S
N229 C232 1.279 . S
C230 C228 1.353 . S
C230 C233 1.348 . S
C230 H262 0.929 . S
C231 C232 1.358 . S
C231 C233 1.356 . S
C231 H263 0.930 . S
C232 N229 1.279 . S
C232 C231 1.358 . S
C232 H235 0.930 . S
C233 C230 1.348 . S
C233 C231 1.356 . S
H234 C228 0.930 . S
H235 C232 0.930 . S
O236 Li176 1.956 . S
O236 Li177 1.970 1_565 S
O236 Li178 1.961 1_455 S
O236 C180 1.325 . S
O237 Li176 1.970 1_545 S
O237 Li177 1.956 . S
O237 Li179 1.961 1_455 S
O237 C186 1.325 . S
O238 Li176 1.961 1_655 S
O238 Li178 1.956 . S
O238 Li179 1.970 1_565 S
O238 C208 1.325 . S
O239 Li177 1.961 1_655 S
O239 Li178 1.970 1_545 S
O239 Li179 1.956 . S
O239 C214 1.325 . S
H240 C182 0.929 . S
H241 C183 0.930 . S
H242 C184 0.930 1_545 S
H243 C185 0.930 . S
H244 C187 0.930 . S
H245 C189 0.929 . S
H246 C190 0.930 . S
H247 C191 0.930 . S
H248 C194 0.930 . S
H249 C197 0.929 . S
H250 C202 0.929 . S
H251 C203 0.930 . S
H252 C210 0.929 . S
H253 C211 0.930 . S
H254 C212 0.930 . S
H255 C213 0.930 . S
H256 C215 0.929 . S
H257 C216 0.930 . S
H258 C217 0.930 1_565 S
H259 C218 0.930 . S
H260 C222 0.929 . S
H261 C224 0.930 . S
H262 C230 0.929 . S
H263 C231 0.930 . S
C264 O266 1.252 . S
C264 O268 1.255 1_455 S
C265 O272 1.248 . S
C265 O273 1.258 1_655 S
O266 C264 1.252 . S
O266 Zn267 2.028 . S
Zn267 O266 2.028 . S
Zn267 O271 2.035 . S
Zn267 O273 2.035 . S
Zn267 O274 2.028 . S
O268 C264 1.255 1_655 S
O268 Zn269 2.035 . S
Zn269 O268 2.035 . S
Zn269 O270 2.028 . S
Zn269 O272 2.028 . S
Zn269 O275 2.035 . S
O270 Zn269 2.028 . S
O270 C276 1.248 . S
O271 Zn267 2.035 . S
O271 C276 1.258 1_455 S
O272 C265 1.248 . S
O272 Zn269 2.028 . S
O273 C265 1.258 1_455 S
O273 Zn267 2.035 . S
O274 Zn267 2.028 . S
O274 C277 1.252 . S
O275 Zn269 2.035 . S
O275 C277 1.255 1_655 S
C276 O270 1.248 . S
C276 O271 1.258 1_655 S
C277 O274 1.252 . S
C277 O275 1.255 1_455 S
C278 O280 1.247 . S
C278 O282 1.257 1_565 S
C279 O286 1.250 . S
C279 O287 1.253 1_545 S
O280 C278 1.247 . S
O280 Zn281 2.028 . S
Zn281 O280 2.028 . S
Zn281 O285 2.035 . S
Zn281 O287 2.035 . S
Zn281 O288 2.028 . S
O282 C278 1.257 1_545 S
O282 Zn283 2.035 . S
Zn283 O282 2.035 . S
Zn283 O284 2.028 . S
Zn283 O286 2.028 . S
Zn283 O289 2.035 . S
O284 Zn283 2.028 . S
O284 C290 1.250 . S
O285 Zn281 2.035 . S
O285 C290 1.253 1_565 S
O286 C279 1.250 . S
O286 Zn283 2.028 . S
O287 C279 1.253 1_565 S
O287 Zn281 2.035 . S
O288 Zn281 2.028 . S
O288 C291 1.247 . S
O289 Zn283 2.035 . S
O289 C291 1.257 1_545 S
C290 O284 1.250 . S
C290 O285 1.253 1_545 S
C291 O288 1.247 . S
C291 O289 1.257 1_565 S
C292 O294 1.247 . S
C292 O296 1.258 . S
C293 O300 1.247 . S
C293 O301 1.258 . S
O294 C292 1.247 . S
O294 Zn295 2.028 . S
Zn295 O294 2.028 . S
Zn295 O299 2.035 . S
Zn295 O301 2.035 . S
Zn295 O302 2.028 . S
O296 C292 1.258 . S
O296 Zn297 2.035 . S
Zn297 O296 2.035 . S
Zn297 O298 2.028 . S
Zn297 O300 2.028 . S
Zn297 O303 2.035 . S
O298 Zn297 2.028 . S
O298 C304 1.247 . S
O299 Zn295 2.035 . S
O299 C304 1.258 . S
O300 C293 1.247 . S
O300 Zn297 2.028 . S
O301 C293 1.258 . S
O301 Zn295 2.035 . S
O302 Zn295 2.028 . S
O302 C305 1.247 . S
O303 Zn297 2.035 . S
O303 C305 1.258 . S
C304 O298 1.247 . S
C304 O299 1.258 . S
C305 O302 1.247 . S
C305 O303 1.258 . S
C306 C307 1.363 1_455 S
C306 C312 1.379 . S
C306 N314 1.356 . S
C307 C306 1.363 1_655 S
C307 C313 1.363 . S
C308 C309 1.363 . S
C308 C313 1.379 . S
C308 N315 1.356 . S
C309 C308 1.363 . S
C309 C312 1.363 1_655 S
N310 C312 1.356 . S
N310 H322 0.984 . S
N310 H323 0.985 . S
N311 C313 1.356 . S
N311 H316 0.984 . S
N311 H317 0.985 . S
C312 C306 1.379 . S
C312 C309 1.363 1_455 S
C312 N310 1.356 . S
C313 C307 1.363 . S
C313 C308 1.379 . S
C313 N311 1.356 . S
N314 C306 1.356 . S
N314 H320 0.984 . S
N314 H321 0.984 . S
N315 C308 1.356 . S
N315 H318 0.984 . S
N315 H319 0.985 . S
H316 N311 0.984 . S
H317 N311 0.985 . S
H318 N315 0.984 . S
H319 N315 0.985 . S
H320 N314 0.984 . S
H321 N314 0.984 . S
H322 N310 0.984 . S
H323 N310 0.985 . S
C324 C325 1.363 . S
C324 C330 1.379 1_565 S
C324 N332 1.356 1_565 S
C325 C324 1.363 . S
C325 C331 1.363 . S
C326 C327 1.363 . S
C326 C331 1.379 . S
C326 N333 1.356 . S
C327 C326 1.363 . S
C327 C330 1.363 1_565 S
N328 C330 1.356 . S
N328 H340 0.984 . S
N328 H341 0.985 . S
N329 C331 1.356 . S
N329 H334 0.984 . S
N329 H335 0.985 . S
C330 C324 1.379 1_545 S
C330 C327 1.363 1_545 S
C330 N328 1.356 . S
C331 C325 1.363 . S
C331 C326 1.379 . S
C331 N329 1.356 . S
N332 C324 1.356 1_545 S
N332 H338 0.984 . S
N332 H339 0.984 1_545 S
N333 C326 1.356 . S
N333 H336 0.984 . S
N333 H337 0.985 . S
H334 N329 0.984 . S
H335 N329 0.985 . S
H336 N333 0.984 . S
H337 N333 0.985 . S
H338 N332 0.984 . S
H339 N332 0.984 1_565 S
H340 N328 0.984 . S
H341 N328 0.985 . S
C342 C343 1.363 . S
C342 C348 1.379 . S
C342 N350 1.356 . S
C343 C342 1.363 . S
C343 C349 1.363 . S
C344 C345 1.363 . S
C344 C349 1.379 . S
C344 N351 1.356 . S
C345 C344 1.363 . S
C345 C348 1.363 . S
N346 C348 1.356 . S
N346 H358 0.984 . S
N346 H359 0.985 . S
N347 C349 1.356 . S
N347 H352 0.984 . S
N347 H353 0.985 . S
C348 C342 1.379 . S
C348 C345 1.363 . S
C348 N346 1.356 . S
C349 C343 1.363 . S
C349 C344 1.379 . S
C349 N347 1.356 . S
N350 C342 1.356 . S
N350 H356 0.984 . S
N350 H357 0.984 . S
N351 C344 1.356 . S
N351 H354 0.984 . S
N351 H355 0.985 . S
H352 N347 0.984 . S
H353 N347 0.985 . S
H354 N351 0.984 . S
H355 N351 0.985 . S
H356 N350 0.984 . S
H357 N350 0.984 . S
H358 N346 0.984 . S
H359 N346 0.985 . S
C360 C361 1.363 . S
C360 C366 1.379 . S
C360 N368 1.356 . S
C361 C360 1.363 . S
C361 C367 1.363 . S
C362 C363 1.363 . S
C362 C367 1.379 . S
C362 N369 1.356 . S
C363 C362 1.363 . S
C363 C366 1.363 . S
N364 C366 1.356 1_655 S
N364 H376 0.984 . S
N364 H377 0.985 . S
N365 C367 1.356 . S
N365 H370 0.984 . S
N365 H371 0.985 . S
C366 C360 1.379 . S
C366 C363 1.363 . S
C366 N364 1.356 1_455 S
C367 C361 1.363 . S
C367 C362 1.379 . S
C367 N365 1.356 . S
N368 C360 1.356 . S
N368 H374 0.984 1_455 S
N368 H375 0.984 . S
N369 C362 1.356 . S
N369 H372 0.984 . S
N369 H373 0.985 . S
H370 N365 0.984 . S
H371 N365 0.985 . S
H372 N369 0.984 . S
H373 N369 0.985 . S
H374 N368 0.984 1_655 S
H375 N368 0.984 . S
H376 N364 0.984 . S
H377 N364 0.985 . S
C378 C379 1.363 1_565 S
C378 C384 1.379 . S
C378 N386 1.356 . S
C379 C378 1.363 1_545 S
C379 C385 1.363 . S
C380 C381 1.363 . S
C380 C385 1.379 . S
C380 N387 1.356 . S
C381 C380 1.363 . S
C381 C384 1.363 1_545 S
N382 C384 1.356 . S
N382 H394 0.984 . S
N382 H395 0.985 . S
N383 C385 1.356 . S
N383 H388 0.984 . S
N383 H389 0.985 . S
C384 C378 1.379 . S
C384 C381 1.363 1_565 S
C384 N382 1.356 . S
C385 C379 1.363 . S
C385 C380 1.379 . S
C385 N383 1.356 . S
N386 C378 1.356 . S
N386 H392 0.984 . S
N386 H393 0.984 . S
N387 C380 1.356 . S
N387 H390 0.984 . S
N387 H391 0.985 . S
H388 N383 0.984 . S
H389 N383 0.985 . S
H390 N387 0.984 . S
H391 N387 0.985 . S
H392 N386 0.984 . S
H393 N386 0.984 . S
H394 N382 0.984 . S
H395 N382 0.985 . S
C396 C397 1.363 . S
C396 C402 1.379 . S
C396 N404 1.356 . S
C397 C396 1.363 . S
C397 C403 1.363 . S
C398 C399 1.363 . S
C398 C403 1.379 . S
C398 N405 1.356 . S
C399 C398 1.363 . S
C399 C402 1.363 . S
N400 C402 1.356 . S
N400 H412 0.984 . S
N400 H413 0.985 . S
N401 C403 1.356 . S
N401 H406 0.984 . S
N401 H407 0.985 . S
C402 C396 1.379 . S
C402 C399 1.363 . S
C402 N400 1.356 . S
C403 C397 1.363 . S
C403 C398 1.379 . S
C403 N401 1.356 . S
N404 C396 1.356 . S
N404 H410 0.984 . S
N404 H411 0.984 . S
N405 C398 1.356 . S
N405 H408 0.984 . S
N405 H409 0.985 . S
H406 N401 0.984 . S
H407 N401 0.985 . S
H408 N405 0.984 . S
H409 N405 0.985 . S
H410 N404 0.984 . S
H411 N404 0.984 . S
H412 N400 0.984 . S
H413 N400 0.985 . S
C414 C415 1.362 . S
C414 C420 1.379 1_545 S
C414 N422 1.357 1_545 S
C415 C414 1.362 . S
C415 C421 1.363 . S
C416 C417 1.363 . S
C416 C421 1.379 . S
C416 N423 1.356 . S
C417 C416 1.363 . S
C417 C420 1.363 1_545 S
N418 C420 1.356 . S
N418 H430 0.984 . S
N418 H431 0.985 . S
N419 C421 1.356 . S
N419 H424 0.984 . S
N419 H425 0.985 . S
C420 C414 1.379 1_565 S
C420 C417 1.363 1_565 S
C420 N418 1.356 . S
C421 C415 1.363 . S
C421 C416 1.379 . S
C421 N419 1.356 . S
N422 C414 1.357 1_565 S
N422 H428 0.984 . S
N422 H429 0.984 1_565 S
N423 C416 1.356 . S
N423 H426 0.984 . S
N423 H427 0.985 . S
H424 N419 0.984 . S
H425 N419 0.985 . S
H426 N423 0.984 . S
H427 N423 0.985 . S
H428 N422 0.984 . S
H429 N422 0.984 1_545 S
H430 N418 0.984 . S
H431 N418 0.985 . S
C432 C433 1.363 . S
C432 C438 1.379 . S
C432 N440 1.356 . S
C433 C432 1.363 . S
C433 C439 1.363 . S
C434 C435 1.363 . S
C434 C439 1.379 . S
C434 N441 1.356 . S
C435 C434 1.363 . S
C435 C438 1.363 . S
N436 C438 1.356 . S
N436 H448 0.984 . S
N436 H449 0.985 . S
N437 C439 1.356 1_554 S
N437 H442 0.984 . S
N437 H443 0.985 . S
C438 C432 1.379 . S
C438 C435 1.363 . S
C438 N436 1.356 . S
C439 C433 1.363 . S
C439 C434 1.379 . S
C439 N437 1.356 1_556 S
N440 C432 1.356 . S
N440 H446 0.984 . S
N440 H447 0.984 . S
N441 C434 1.356 . S
N441 H444 0.984 . S
N441 H445 0.985 . S
H442 N437 0.984 . S
H443 N437 0.985 . S
H444 N441 0.984 . S
H445 N441 0.985 . S
H446 N440 0.984 . S
H447 N440 0.984 . S
H448 N436 0.984 . S
H449 N436 0.985 . S
C450 C451 1.363 . S
C450 C456 1.379 . S
C450 N458 1.356 . S
C451 C450 1.363 . S
C451 C457 1.363 . S
C452 C453 1.363 . S
C452 C457 1.379 . S
C452 N459 1.356 . S
C453 C452 1.363 . S
C453 C456 1.363 . S
N454 C456 1.356 1_455 S
N454 H466 0.984 . S
N454 H467 0.985 . S
N455 C457 1.356 . S
N455 H460 0.984 . S
N455 H461 0.985 . S
C456 C450 1.379 . S
C456 C453 1.363 . S
C456 N454 1.356 1_655 S
C457 C451 1.363 . S
C457 C452 1.379 . S
C457 N455 1.356 . S
N458 C450 1.356 . S
N458 H464 0.984 . S
N458 H465 0.984 . S
N459 C452 1.356 . S
N459 H462 0.984 . S
N459 H463 0.985 . S
H460 N455 0.984 . S
H461 N455 0.985 . S
H462 N459 0.984 . S
H463 N459 0.985 . S
H464 N458 0.984 . S
H465 N458 0.984 . S
H466 N454 0.984 . S
H467 N454 0.985 . S
C468 C469 1.363 . S
C468 C474 1.379 1_565 S
C468 N476 1.356 1_565 S
C469 C468 1.363 . S
C469 C475 1.363 . S
C470 C471 1.363 . S
C470 C475 1.379 . S
C470 N477 1.356 . S
C471 C470 1.363 . S
C471 C474 1.363 1_565 S
N472 C474 1.356 . S
N472 H484 0.984 . S
N472 H485 0.985 . S
N473 C475 1.356 . S
N473 H478 0.984 . S
N473 H479 0.985 . S
C474 C468 1.379 1_545 S
C474 C471 1.363 1_545 S
C474 N472 1.356 . S
C475 C469 1.363 . S
C475 C470 1.379 . S
C475 N473 1.356 . S
N476 C468 1.356 1_545 S
N476 H482 0.984 . S
N476 H483 0.984 1_545 S
N477 C470 1.356 . S
N477 H480 0.984 . S
N477 H481 0.985 . S
H478 N473 0.984 . S
H479 N473 0.985 . S
H480 N477 0.984 . S
H481 N477 0.985 . S
H482 N476 0.984 . S
H483 N476 0.984 1_565 S
H484 N472 0.984 . S
H485 N472 0.985 . S
C486 C487 1.363 . S
C486 C492 1.379 . S
C486 N494 1.356 1_556 S
C487 C486 1.363 . S
C487 C493 1.363 . S
C488 C489 1.363 . S
C488 C493 1.379 . S
C488 N495 1.356 . S
C489 C488 1.363 . S
C489 C492 1.363 . S
N490 C492 1.356 . S
N490 H502 0.984 . S
N490 H503 0.985 . S
N491 C493 1.356 . S
N491 H496 0.984 . S
N491 H497 0.985 . S
C492 C486 1.379 . S
C492 C489 1.363 . S
C492 N490 1.356 . S
C493 C487 1.363 . S
C493 C488 1.379 . S
C493 N491 1.356 . S
N494 C486 1.356 1_554 S
N494 H500 0.984 . S
N494 H501 0.984 . S
N495 C488 1.356 . S
N495 H498 0.984 . S
N495 H499 0.985 . S
H496 N491 0.984 . S
H497 N491 0.985 . S
H498 N495 0.984 . S
H499 N495 0.985 . S
H500 N494 0.984 . S
H501 N494 0.984 . S
H502 N490 0.984 . S
H503 N490 0.985 . S
C504 C505 1.363 . S
C504 C510 1.379 . S
C504 N512 1.356 . S
C505 C504 1.363 . S
C505 C511 1.351 1_455 S
C506 C507 1.363 1_655 S
C506 C511 1.389 . S
C506 N513 1.356 . S
C507 C506 1.363 1_455 S
C507 C510 1.363 . S
N508 C510 1.356 . S
N508 H520 0.984 . S
N508 H521 0.985 . S
N509 C511 1.354 . S
N509 H514 0.984 1_655 S
N509 H515 0.985 . S
C510 C504 1.379 . S
C510 C507 1.363 . S
C510 N508 1.356 . S
C511 C505 1.351 1_655 S
C511 C506 1.389 . S
C511 N509 1.354 . S
N512 C504 1.356 . S
N512 H518 0.984 . S
N512 H519 0.984 . S
N513 C506 1.356 . S
N513 H516 0.984 . S
N513 H517 0.985 . S
H514 N509 0.984 1_455 S
H515 N509 0.985 . S
H516 N513 0.984 . S
H517 N513 0.985 . S
H518 N512 0.984 . S
H519 N512 0.984 . S
H520 N508 0.984 . S
H521 N508 0.985 . S
C309 C265 1.546 . S
C307 C29 1.516 . S
C325 C137 1.518 . S
C327 C291 1.548 . S
C343 C225 1.518 . S
C345 C293 1.548 . S
C361 C49 1.518 . S
C363 C277 1.546 . S
C381 C279 1.549 . S
C379 C117 1.516 . S
C397 C205 1.518 . S
C399 C305 1.544 . S
C417 C278 1.548 1_545 S
C415 C233 1.519 . S
C433 C57 1.518 1_556 S
C435 C304 1.549 . S
C453 C264 1.545 1_655 S
C451 C108 1.519 . S
C471 C290 1.549 1_565 S
C469 C196 1.516 . S
C489 C292 1.548 . S
C487 C20 1.516 1_556 S
C505 C145 1.518 . S
C507 C276 1.545 1_455 S
