# Generated by pormake.
# Topology gar, (4,6)-cn, num edge types: 1
# Building blocks:
#     Node 0, Type 0, BuildingBlock: KUFVIS_clean_sbu_0, # of connection points: 4
#     Node 1, Type 0, BuildingBlock: KUFVIS_clean_sbu_0, # of connection points: 4
#     Node 2, Type 0, BuildingBlock: KUFVIS_clean_sbu_0, # of connection points: 4
#     Node 3, Type 0, BuildingBlock: KUFVIS_clean_sbu_0, # of connection points: 4
#     Node 4, Type 0, BuildingBlock: KUFVIS_clean_sbu_0, # of connection points: 4
#     Node 5, Type 0, BuildingBlock: KUFVIS_clean_sbu_0, # of connection points: 4
#     Node 6, Type 0, BuildingBlock: KUFVIS_clean_sbu_0, # of connection points: 4
#     Node 7, Type 0, BuildingBlock: KUFVIS_clean_sbu_0, # of connection points: 4
#     Node 8, Type 0, BuildingBlock: KUFVIS_clean_sbu_0, # of connection points: 4
#     Node 9, Type 0, BuildingBlock: KUFVIS_clean_sbu_0, # of connection points: 4
#     Node 10, Type 0, BuildingBlock: KUFVIS_clean_sbu_0, # of connection points: 4
#     Node 11, Type 0, BuildingBlock: KUFVIS_clean_sbu_0, # of connection points: 4
#     Node 12, Type 0, BuildingBlock: KUFVIS_clean_sbu_0, # of connection points: 4
#     Node 13, Type 0, BuildingBlock: KUFVIS_clean_sbu_0, # of connection points: 4
#     Node 14, Type 0, BuildingBlock: KUFVIS_clean_sbu_0, # of connection points: 4
#     Node 15, Type 0, BuildingBlock: KUFVIS_clean_sbu_0, # of connection points: 4
#     Node 16, Type 0, BuildingBlock: KUFVIS_clean_sbu_0, # of connection points: 4
#     Node 17, Type 0, BuildingBlock: KUFVIS_clean_sbu_0, # of connection points: 4
#     Node 18, Type 0, BuildingBlock: KUFVIS_clean_sbu_0, # of connection points: 4
#     Node 19, Type 0, BuildingBlock: KUFVIS_clean_sbu_0, # of connection points: 4
#     Node 20, Type 0, BuildingBlock: KUFVIS_clean_sbu_0, # of connection points: 4
#     Node 21, Type 0, BuildingBlock: KUFVIS_clean_sbu_0, # of connection points: 4
#     Node 22, Type 0, BuildingBlock: KUFVIS_clean_sbu_0, # of connection points: 4
#     Node 23, Type 0, BuildingBlock: KUFVIS_clean_sbu_0, # of connection points: 4
#     Node 24, Type 1, BuildingBlock: CUWYAW_clean_sbu_0, # of connection points: 6
#     Node 25, Type 1, BuildingBlock: CUWYAW_clean_sbu_0, # of connection points: 6
#     Node 26, Type 1, BuildingBlock: CUWYAW_clean_sbu_0, # of connection points: 6
#     Node 27, Type 1, BuildingBlock: CUWYAW_clean_sbu_0, # of connection points: 6
#     Node 28, Type 1, BuildingBlock: CUWYAW_clean_sbu_0, # of connection points: 6
#     Node 29, Type 1, BuildingBlock: CUWYAW_clean_sbu_0, # of connection points: 6
#     Node 30, Type 1, BuildingBlock: CUWYAW_clean_sbu_0, # of connection points: 6
#     Node 31, Type 1, BuildingBlock: CUWYAW_clean_sbu_0, # of connection points: 6
#     Node 32, Type 1, BuildingBlock: CUWYAW_clean_sbu_0, # of connection points: 6
#     Node 33, Type 1, BuildingBlock: CUWYAW_clean_sbu_0, # of connection points: 6
#     Node 34, Type 1, BuildingBlock: CUWYAW_clean_sbu_0, # of connection points: 6
#     Node 35, Type 1, BuildingBlock: CUWYAW_clean_sbu_0, # of connection points: 6
#     Node 36, Type 1, BuildingBlock: CUWYAW_clean_sbu_0, # of connection points: 6
#     Node 37, Type 1, BuildingBlock: CUWYAW_clean_sbu_0, # of connection points: 6
#     Node 38, Type 1, BuildingBlock: CUWYAW_clean_sbu_0, # of connection points: 6
#     Node 39, Type 1, BuildingBlock: CUWYAW_clean_sbu_0, # of connection points: 6
#     Edge 40, Type (0, 1), BuildingBlock: AJUNOK_clean_linker_0, # of connection points: 2
#     Edge 41, Type (0, 1), BuildingBlock: AJUNOK_clean_linker_0, # of connection points: 2
#     Edge 42, Type (0, 1), BuildingBlock: AJUNOK_clean_linker_0, # of connection points: 2
#     Edge 43, Type (0, 1), BuildingBlock: AJUNOK_clean_linker_0, # of connection points: 2
#     Edge 44, Type (0, 1), BuildingBlock: AJUNOK_clean_linker_0, # of connection points: 2
#     Edge 45, Type (0, 1), BuildingBlock: AJUNOK_clean_linker_0, # of connection points: 2
#     Edge 46, Type (0, 1), BuildingBlock: AJUNOK_clean_linker_0, # of connection points: 2
#     Edge 47, Type (0, 1), BuildingBlock: AJUNOK_clean_linker_0, # of connection points: 2
#     Edge 48, Type (0, 1), BuildingBlock: AJUNOK_clean_linker_0, # of connection points: 2
#     Edge 49, Type (0, 1), BuildingBlock: AJUNOK_clean_linker_0, # of connection points: 2
#     Edge 50, Type (0, 1), BuildingBlock: AJUNOK_clean_linker_0, # of connection points: 2
#     Edge 51, Type (0, 1), BuildingBlock: AJUNOK_clean_linker_0, # of connection points: 2
#     Edge 52, Type (0, 1), BuildingBlock: AJUNOK_clean_linker_0, # of connection points: 2
#     Edge 53, Type (0, 1), BuildingBlock: AJUNOK_clean_linker_0, # of connection points: 2
#     Edge 54, Type (0, 1), BuildingBlock: AJUNOK_clean_linker_0, # of connection points: 2
#     Edge 55, Type (0, 1), BuildingBlock: AJUNOK_clean_linker_0, # of connection points: 2
#     Edge 56, Type (0, 1), BuildingBlock: AJUNOK_clean_linker_0, # of connection points: 2
#     Edge 57, Type (0, 1), BuildingBlock: AJUNOK_clean_linker_0, # of connection points: 2
#     Edge 58, Type (0, 1), BuildingBlock: AJUNOK_clean_linker_0, # of connection points: 2
#     Edge 59, Type (0, 1), BuildingBlock: AJUNOK_clean_linker_0, # of connection points: 2
#     Edge 60, Type (0, 1), BuildingBlock: AJUNOK_clean_linker_0, # of connection points: 2
#     Edge 61, Type (0, 1), BuildingBlock: AJUNOK_clean_linker_0, # of connection points: 2
#     Edge 62, Type (0, 1), BuildingBlock: AJUNOK_clean_linker_0, # of connection points: 2
#     Edge 63, Type (0, 1), BuildingBlock: AJUNOK_clean_linker_0, # of connection points: 2
#     Edge 64, Type (0, 1), BuildingBlock: AJUNOK_clean_linker_0, # of connection points: 2
#     Edge 65, Type (0, 1), BuildingBlock: AJUNOK_clean_linker_0, # of connection points: 2
#     Edge 66, Type (0, 1), BuildingBlock: AJUNOK_clean_linker_0, # of connection points: 2
#     Edge 67, Type (0, 1), BuildingBlock: AJUNOK_clean_linker_0, # of connection points: 2
#     Edge 68, Type (0, 1), BuildingBlock: AJUNOK_clean_linker_0, # of connection points: 2
#     Edge 69, Type (0, 1), BuildingBlock: AJUNOK_clean_linker_0, # of connection points: 2
#     Edge 70, Type (0, 1), BuildingBlock: AJUNOK_clean_linker_0, # of connection points: 2
#     Edge 71, Type (0, 1), BuildingBlock: AJUNOK_clean_linker_0, # of connection points: 2
#     Edge 72, Type (0, 1), BuildingBlock: AJUNOK_clean_linker_0, # of connection points: 2
#     Edge 73, Type (0, 1), BuildingBlock: AJUNOK_clean_linker_0, # of connection points: 2
#     Edge 74, Type (0, 1), BuildingBlock: AJUNOK_clean_linker_0, # of connection points: 2
#     Edge 75, Type (0, 1), BuildingBlock: AJUNOK_clean_linker_0, # of connection points: 2
#     Edge 76, Type (0, 1), BuildingBlock: AJUNOK_clean_linker_0, # of connection points: 2
#     Edge 77, Type (0, 1), BuildingBlock: AJUNOK_clean_linker_0, # of connection points: 2
#     Edge 78, Type (0, 1), BuildingBlock: AJUNOK_clean_linker_0, # of connection points: 2
#     Edge 79, Type (0, 1), BuildingBlock: AJUNOK_clean_linker_0, # of connection points: 2
#     Edge 80, Type (0, 1), BuildingBlock: AJUNOK_clean_linker_0, # of connection points: 2
#     Edge 81, Type (0, 1), BuildingBlock: AJUNOK_clean_linker_0, # of connection points: 2
#     Edge 82, Type (0, 1), BuildingBlock: AJUNOK_clean_linker_0, # of connection points: 2
#     Edge 83, Type (0, 1), BuildingBlock: AJUNOK_clean_linker_0, # of connection points: 2
#     Edge 84, Type (0, 1), BuildingBlock: AJUNOK_clean_linker_0, # of connection points: 2
#     Edge 85, Type (0, 1), BuildingBlock: AJUNOK_clean_linker_0, # of connection points: 2
#     Edge 86, Type (0, 1), BuildingBlock: AJUNOK_clean_linker_0, # of connection points: 2
#     Edge 87, Type (0, 1), BuildingBlock: AJUNOK_clean_linker_0, # of connection points: 2
#     Edge 88, Type (0, 1), BuildingBlock: AJUNOK_clean_linker_0, # of connection points: 2
#     Edge 89, Type (0, 1), BuildingBlock: AJUNOK_clean_linker_0, # of connection points: 2
#     Edge 90, Type (0, 1), BuildingBlock: AJUNOK_clean_linker_0, # of connection points: 2
#     Edge 91, Type (0, 1), BuildingBlock: AJUNOK_clean_linker_0, # of connection points: 2
#     Edge 92, Type (0, 1), BuildingBlock: AJUNOK_clean_linker_0, # of connection points: 2
#     Edge 93, Type (0, 1), BuildingBlock: AJUNOK_clean_linker_0, # of connection points: 2
#     Edge 94, Type (0, 1), BuildingBlock: AJUNOK_clean_linker_0, # of connection points: 2
#     Edge 95, Type (0, 1), BuildingBlock: AJUNOK_clean_linker_0, # of connection points: 2
#     Edge 96, Type (0, 1), BuildingBlock: AJUNOK_clean_linker_0, # of connection points: 2
#     Edge 97, Type (0, 1), BuildingBlock: AJUNOK_clean_linker_0, # of connection points: 2
#     Edge 98, Type (0, 1), BuildingBlock: AJUNOK_clean_linker_0, # of connection points: 2
#     Edge 99, Type (0, 1), BuildingBlock: AJUNOK_clean_linker_0, # of connection points: 2
#     Edge 100, Type (0, 1), BuildingBlock: AJUNOK_clean_linker_0, # of connection points: 2
#     Edge 101, Type (0, 1), BuildingBlock: AJUNOK_clean_linker_0, # of connection points: 2
#     Edge 102, Type (0, 1), BuildingBlock: AJUNOK_clean_linker_0, # of connection points: 2
#     Edge 103, Type (0, 1), BuildingBlock: AJUNOK_clean_linker_0, # of connection points: 2
#     Edge 104, Type (0, 1), BuildingBlock: AJUNOK_clean_linker_0, # of connection points: 2
#     Edge 105, Type (0, 1), BuildingBlock: AJUNOK_clean_linker_0, # of connection points: 2
#     Edge 106, Type (0, 1), BuildingBlock: AJUNOK_clean_linker_0, # of connection points: 2
#     Edge 107, Type (0, 1), BuildingBlock: AJUNOK_clean_linker_0, # of connection points: 2
#     Edge 108, Type (0, 1), BuildingBlock: AJUNOK_clean_linker_0, # of connection points: 2
#     Edge 109, Type (0, 1), BuildingBlock: AJUNOK_clean_linker_0, # of connection points: 2
#     Edge 110, Type (0, 1), BuildingBlock: AJUNOK_clean_linker_0, # of connection points: 2
#     Edge 111, Type (0, 1), BuildingBlock: AJUNOK_clean_linker_0, # of connection points: 2
#     Edge 112, Type (0, 1), BuildingBlock: AJUNOK_clean_linker_0, # of connection points: 2
#     Edge 113, Type (0, 1), BuildingBlock: AJUNOK_clean_linker_0, # of connection points: 2
#     Edge 114, Type (0, 1), BuildingBlock: AJUNOK_clean_linker_0, # of connection points: 2
#     Edge 115, Type (0, 1), BuildingBlock: AJUNOK_clean_linker_0, # of connection points: 2
#     Edge 116, Type (0, 1), BuildingBlock: AJUNOK_clean_linker_0, # of connection points: 2
#     Edge 117, Type (0, 1), BuildingBlock: AJUNOK_clean_linker_0, # of connection points: 2
#     Edge 118, Type (0, 1), BuildingBlock: AJUNOK_clean_linker_0, # of connection points: 2
#     Edge 119, Type (0, 1), BuildingBlock: AJUNOK_clean_linker_0, # of connection points: 2
#     Edge 120, Type (0, 1), BuildingBlock: AJUNOK_clean_linker_0, # of connection points: 2
#     Edge 121, Type (0, 1), BuildingBlock: AJUNOK_clean_linker_0, # of connection points: 2
#     Edge 122, Type (0, 1), BuildingBlock: AJUNOK_clean_linker_0, # of connection points: 2
#     Edge 123, Type (0, 1), BuildingBlock: AJUNOK_clean_linker_0, # of connection points: 2
#     Edge 124, Type (0, 1), BuildingBlock: AJUNOK_clean_linker_0, # of connection points: 2
#     Edge 125, Type (0, 1), BuildingBlock: AJUNOK_clean_linker_0, # of connection points: 2
#     Edge 126, Type (0, 1), BuildingBlock: AJUNOK_clean_linker_0, # of connection points: 2
#     Edge 127, Type (0, 1), BuildingBlock: AJUNOK_clean_linker_0, # of connection points: 2
#     Edge 128, Type (0, 1), BuildingBlock: AJUNOK_clean_linker_0, # of connection points: 2
#     Edge 129, Type (0, 1), BuildingBlock: AJUNOK_clean_linker_0, # of connection points: 2
#     Edge 130, Type (0, 1), BuildingBlock: AJUNOK_clean_linker_0, # of connection points: 2
#     Edge 131, Type (0, 1), BuildingBlock: AJUNOK_clean_linker_0, # of connection points: 2
#     Edge 132, Type (0, 1), BuildingBlock: AJUNOK_clean_linker_0, # of connection points: 2
#     Edge 133, Type (0, 1), BuildingBlock: AJUNOK_clean_linker_0, # of connection points: 2
#     Edge 134, Type (0, 1), BuildingBlock: AJUNOK_clean_linker_0, # of connection points: 2
#     Edge 135, Type (0, 1), BuildingBlock: AJUNOK_clean_linker_0, # of connection points: 2
# Relax obj value: 0.272
# Max RMSD: 0.346
# Mean RMSD: 0.161
data_MOF--net-gar--node1-KUFVIS_clean_sbu_0--node2-CUWYAW_clean_sbu_0--edge1-AJUNOK_clean_linker_0
_symmetry_space_group_name_H-M    P1
_symmetry_Int_Tables_number       1
_symmetry_cell_setting            triclinic
loop_
_symmetry_equiv_pos_as_xyz
'x, y, z'
_cell_length_a     49.978943
_cell_length_b     40.153087
_cell_length_c     41.167456
_cell_angle_alpha  99.241662
_cell_angle_beta   96.066419
_cell_angle_gamma 99.372815
loop_
_atom_site_label
_atom_site_type_symbol
_atom_site_fract_x
_atom_site_fract_y
_atom_site_fract_z
_atom_type_partial_charge
Mn0 Mn 0.10771 0.33063 0.46827 0.0
Mn1 Mn 0.08023 0.38034 0.4203 0.0
C2 C 0.06197 0.33278 0.46628 0.0
C3 C 0.12039 0.28076 0.47928 0.0
C4 C 0.11208 0.40733 0.48891 0.0
O5 O 0.13612 0.33992 0.43826 0.0
O6 O 0.1157 0.37119 0.40603 0.0
C7 C 0.06895 0.32843 0.35822 0.0
N8 N 0.06024 0.35173 0.3806 0.0
C9 C 1.01481 0.33861 0.35021 0.0
C10 C 1.02361 0.31543 0.32622 0.0
C11 C 0.05075 0.3101 0.33041 0.0
C12 C 0.03395 0.35625 0.37734 0.0
H13 H 0.08949 0.32342 0.36185 0.0
C14 C 0.13531 0.35588 0.41399 0.0
O15 O 0.1325 0.31049 0.49599 0.0
O16 O 0.10288 0.28035 0.45337 0.0
N17 N 0.04556 0.3911 0.42954 0.0
C18 C 0.0398 0.41256 0.45597 0.0
C19 C 1.0133 0.41985 0.45604 0.0
C20 C 0.993 0.40531 0.42903 0.0
C21 C 0.99937 0.38344 0.40205 0.0
C22 C 1.02629 0.37754 0.40301 0.0
H23 H 0.05529 0.42415 0.47681 0.0
O24 O 0.07487 0.32314 0.49113 0.0
O25 O 0.07603 0.3402 0.44263 0.0
O26 O 0.11755 0.3788 0.49387 0.0
O27 O 0.0993 0.41175 0.46176 0.0
C28 C 0.97996 0.3668 0.37452 0.0
C29 C 0.98763 0.34422 0.34871 0.0
H30 H 1.00956 0.30106 0.30486 0.0
H31 H 0.05755 0.29167 0.3124 0.0
H32 H 1.00857 0.43681 0.47674 0.0
H33 H 0.97259 0.41108 0.42928 0.0
H34 H 0.95895 0.37068 0.37326 0.0
H35 H 0.9724 0.331 0.328 0.0
Mn36 Mn 1.03118 0.74085 0.71258 0.0
Mn37 Mn 0.07437 0.80066 0.76945 0.0
C38 C 0.07791 0.74386 0.71677 0.0
C39 C 1.00851 0.68586 0.68974 0.0
C40 C 0.05196 0.81418 0.70372 0.0
O41 O 1.00476 0.75598 0.74337 0.0
O42 O 0.03551 0.80026 0.77385 0.0
C43 C 0.06109 0.76626 0.82582 0.0
N44 N 0.07997 0.77965 0.8076 0.0
C45 C 0.11653 0.76425 0.84169 0.0
C46 C 0.09747 0.75037 0.86082 0.0
C47 C 0.06962 0.75132 0.85279 0.0
C48 C 0.10677 0.77839 0.81482 0.0
H49 H 0.03965 0.76686 0.81983 0.0
C50 C 1.01114 0.78353 0.76494 0.0
O51 O 1.00217 0.71202 0.67779 0.0
O52 O 1.02283 0.69277 0.71901 0.0
N53 N 0.11303 0.80455 0.769 0.0
C54 C 0.12909 0.82237 0.75044 0.0
C55 C 0.15767 0.82548 0.75642 0.0
C56 C 0.16949 0.81088 0.78189 0.0
C57 C 0.15265 0.79408 0.80168 0.0
C58 C 0.12433 0.79212 0.79476 0.0
H59 H 0.12014 0.83393 0.73106 0.0
O60 O 0.06245 0.73047 0.68911 0.0
O61 O 0.06593 0.75509 0.74171 0.0
O62 O 0.03461 0.78629 0.6967 0.0
O63 O 0.06973 0.82216 0.72981 0.0
C64 C 0.16291 0.77991 0.82851 0.0
C65 C 0.14485 0.76476 0.84834 0.0
H66 H 0.10399 0.739 0.88176 0.0
H67 H 0.05476 0.74063 0.86741 0.0
H68 H 0.17054 0.83904 0.74139 0.0
H69 H 0.19153 0.8132 0.78636 0.0
H70 H 0.18467 0.78071 0.83422 0.0
H71 H 0.153 0.75398 0.86892 0.0
Mn72 Mn 0.60081 0.8435 0.98438 0.0
Mn73 Mn 0.60412 0.90611 0.93925 0.0
C74 C 0.56478 0.87077 0.97746 0.0
C75 C 0.58924 0.78763 0.99063 0.0
C76 C 0.62973 0.91663 1.01113 0.0
O77 O 0.631 0.83479 0.95837 0.0
O78 O 0.6328 0.87767 0.92897 0.0
C79 C 0.58945 0.8643 0.87141 0.0
N80 N 0.58417 0.88863 0.89584 0.0
C81 C 0.54473 0.89685 0.8612 0.0
C82 C 0.54987 0.87205 0.83571 0.0
C83 C 0.57232 0.85569 0.84087 0.0
C84 C 0.56268 0.90468 0.89104 0.0
H85 H 0.60658 0.85147 0.87505 0.0
C86 C 0.63986 0.84991 0.93581 0.0
O87 O 0.60797 0.8092 1.01143 0.0
O88 O 0.57885 0.79783 0.96456 0.0
N89 N 0.57636 0.93349 0.94554 0.0
C90 C 0.57311 0.95536 0.9732 0.0
C91 C 0.55096 0.97287 0.97236 0.0
C92 C 0.5322 0.96744 0.94335 0.0
C93 C 0.53581 0.94466 0.91529 0.0
C94 C 0.55844 0.92822 0.91739 0.0
H95 H 0.5873 0.9595 0.99574 0.0
O96 O 0.56858 0.85626 1.00312 0.0
O97 O 0.5826 0.86935 0.95661 0.0
O98 O 0.6245 0.88529 1.01367 0.0
O99 O 0.62408 0.9274 0.98409 0.0
C100 C 0.5176 0.93732 0.88546 0.0
C101 C 0.5221 0.91351 0.8584 0.0
H102 H 0.53656 0.8651 0.81221 0.0
H103 H 0.57636 0.83638 0.82137 0.0
H104 H 0.54844 0.9908 0.99388 0.0
H105 H 0.51506 0.98083 0.94293 0.0
H106 H 0.49993 0.94965 0.88316 0.0
H107 H 0.50782 0.90786 0.83568 0.0
Mn108 Mn 0.51494 0.20784 0.18841 0.0
Mn109 Mn 0.46196 0.20798 0.13232 0.0
C110 C 0.49518 0.15763 0.15184 0.0
C111 C 0.56206 0.21701 0.20318 0.0
C112 C 0.46294 0.22491 0.2069 0.0
O113 O 0.51664 0.25772 0.18315 0.0
O114 O 0.48849 0.25067 0.13452 0.0
C115 C 0.48497 0.20378 0.06883 0.0
N116 N 0.46772 0.18951 0.08839 0.0
C117 C 0.45576 0.13666 0.04881 0.0
C118 C 0.47345 0.15075 0.02826 0.0
C119 C 0.48796 0.18456 0.03821 0.0
C120 C 0.45305 0.15737 0.07862 0.0
H121 H 0.49671 0.22944 0.07684 0.0
C122 C 0.50761 0.2683 0.15705 0.0
O123 O 0.54565 0.21981 0.22549 0.0
O124 O 0.55109 0.20875 0.17233 0.0
N125 N 0.43668 0.16594 0.12962 0.0
C126 C 0.42111 0.15576 0.15274 0.0
C127 C 0.40506 0.12269 0.14641 0.0
C128 C 0.40543 0.10028 0.11659 0.0
C129 C 0.4216 0.11134 0.09317 0.0
C130 C 0.43655 0.14492 0.10042 0.0
H131 H 0.421 0.17267 0.17589 0.0
O132 O 0.50871 0.15604 0.18019 0.0
O133 O 0.4922 0.18813 0.14848 0.0
O134 O 0.4825 0.20954 0.21389 0.0
O135 O 0.4545 0.22757 0.1772 0.0
C136 C 0.42429 0.08993 0.06353 0.0
C137 C 0.44144 0.10254 0.04142 0.0
H138 H 0.47626 0.13574 1.00496 0.0
H139 H 0.50177 0.19555 1.02258 0.0
H140 H 0.39269 0.11433 0.16466 0.0
H141 H 0.39345 0.07455 0.11207 0.0
H142 H 0.4136 0.06353 0.05776 0.0
H143 H 0.44361 0.08569 1.01889 0.0
Mn144 Mn 0.1272 0.81727 0.21617 0.0
Mn145 Mn 0.07783 0.79089 0.149 0.0
C146 C 0.11392 0.75877 0.19165 0.0
C147 C 0.17424 0.83123 0.24254 0.0
C148 C 0.06429 0.80992 0.21918 0.0
O149 O 0.12541 0.86352 0.19805 0.0
O150 O 0.09226 0.84055 0.15521 0.0
C151 C 0.1138 0.80256 0.09764 0.0
N152 N 0.09514 0.78124 0.11019 0.0
C153 C 0.09393 0.73512 0.0645 0.0
C154 C 0.11306 0.75664 0.051 0.0
C155 C 0.12314 0.79044 0.06774 0.0
C156 C 0.08569 0.74847 0.09461 0.0
H157 H 0.12146 0.82862 0.11034 0.0
C158 C 0.10881 0.86641 0.1727 0.0
O159 O 0.15414 0.83971 0.25761 0.0
O160 O 0.16749 0.81797 0.21129 0.0
N161 N 0.06131 0.74328 0.13923 0.0
C162 C 0.04181 0.72645 0.15461 0.0
C163 C 1.02908 0.6926 0.14058 0.0
C164 C 0.03611 0.67663 0.11057 0.0
C165 C 0.05564 0.69477 0.0947 0.0
C166 C 0.06748 0.72853 0.10973 0.0
H167 H 0.03593 0.73876 0.17737 0.0
O168 O 0.12508 0.76795 0.22232 0.0
O169 O 0.11037 0.78371 0.17617 0.0
O170 O 0.0892 0.81841 0.2335 0.0
O171 O 0.05821 0.79929 0.18788 0.0
C172 C 0.06358 0.6808 0.06434 0.0
C173 C 0.08284 0.7009 0.04936 0.0
H174 H 0.12021 0.74744 0.02786 0.0
H175 H 0.13797 0.80717 0.05753 0.0
H176 H 1.01381 0.67891 0.15279 0.0
H177 H 1.02622 0.65055 0.09981 0.0
H178 H 0.05498 0.65464 0.05231 0.0
H179 H 0.08888 0.68984 0.0261 0.0
Mn180 Mn 0.51453 0.76096 0.47752 0.0
Mn181 Mn 0.50908 0.80456 0.41362 0.0
C182 C 0.47026 0.76285 0.44977 0.0
C183 C 0.52306 0.71307 0.50268 0.0
C184 C 0.51841 0.84023 0.48525 0.0
O185 O 0.55383 0.76712 0.46461 0.0
O186 O 0.54752 0.79918 0.42563 0.0
C187 C 0.52218 0.75006 0.36335 0.0
N188 N 0.50529 0.77202 0.37324 0.0
C189 C 0.47579 0.75454 0.32106 0.0
C190 C 0.49297 0.73192 0.31022 0.0
C191 C 0.51618 0.72953 0.33155 0.0
C192 C 0.4827 0.77408 0.35311 0.0
H193 H 0.54013 0.74825 0.37955 0.0
C194 C 0.56292 0.78486 0.44361 0.0
O195 O 0.52817 0.74435 0.51867 0.0
O196 O 0.51213 0.70902 0.4718 0.0
N197 N 0.47405 0.81256 0.39757 0.0
C198 C 0.45906 0.83433 0.41249 0.0
C199 C 0.4341 0.83745 0.39557 0.0
C200 C 0.42599 0.821 0.36237 0.0
C201 C 0.44229 0.79958 0.3471 0.0
C202 C 0.46628 0.79585 0.36589 0.0
H203 H 0.46525 0.84745 0.43785 0.0
O204 O 0.47355 0.75603 0.47959 0.0
O205 O 0.49291 0.76741 0.43634 0.0
O206 O 0.52048 0.81294 0.49688 0.0
O207 O 0.51266 0.84022 0.45422 0.0
C208 C 0.43522 0.7808 0.31447 0.0
C209 C 0.45194 0.75823 0.30147 0.0
H210 H 0.48844 0.71611 0.28568 0.0
H211 H 0.52948 0.71202 0.32344 0.0
H212 H 0.4205 0.85069 0.4091 0.0
H213 H 0.40668 0.82376 0.34942 0.0
H214 H 0.41682 0.78316 0.29932 0.0
H215 H 0.44609 0.74355 0.27653 0.0
Mn216 Mn 0.62808 0.31661 0.71795 0.0
Mn217 Mn 0.57937 0.28951 0.65035 0.0
C218 C 0.61431 0.25768 0.69477 0.0
C219 C 0.67489 0.33118 0.74482 0.0
C220 C 0.56519 0.31074 0.72004 0.0
O221 O 0.62716 0.36209 0.69828 0.0
O222 O 0.59499 0.33876 0.65456 0.0
C223 C 0.61801 0.29626 0.6009 0.0
N224 N 0.59714 0.2773 0.61241 0.0
C225 C 0.59503 0.22961 0.56799 0.0
C226 C 0.61568 0.24918 0.55485 0.0
C227 C 0.62747 0.2825 0.57163 0.0
C228 C 0.58656 0.24467 0.59733 0.0
H229 H 0.62754 0.32152 0.61417 0.0
C230 C 0.61196 0.36449 0.67158 0.0
O231 O 0.65464 0.34013 0.75929 0.0
O232 O 0.66839 0.31672 0.71384 0.0
N233 N 0.5618 0.24232 0.64197 0.0
C234 C 0.54206 0.22682 0.6579 0.0
C235 C 0.52863 0.19306 0.64478 0.0
C236 C 0.53523 0.17578 0.61507 0.0
C237 C 0.55507 0.19251 0.59865 0.0
C238 C 0.56759 0.22628 0.61276 0.0
H239 H 0.53658 0.24007 0.68049 0.0
O240 O 0.62537 0.26752 0.72545 0.0
O241 O 0.61124 0.28225 0.67863 0.0
O242 O 0.59005 0.31884 0.7345 0.0
O243 O 0.55927 0.30025 0.68865 0.0
C244 C 0.56286 0.17702 0.56877 0.0
C245 C 0.58296 0.19549 0.55357 0.0
H246 H 0.62308 0.23862 0.53233 0.0
H247 H 0.64388 0.29747 0.56211 0.0
H248 H 0.51324 0.18044 0.65757 0.0
H249 H 0.52495 0.1497 0.60502 0.0
H250 H 0.55369 0.15083 0.55743 0.0
H251 H 0.5891 0.18315 0.53088 0.0
Mn252 Mn 1.01389 0.26398 0.97709 0.0
Mn253 Mn 1.00756 0.30336 0.91002 0.0
C254 C 0.96948 0.26583 0.94988 0.0
C255 C 1.02263 0.21714 1.00378 0.0
C256 C 1.02148 0.3424 0.98128 0.0
O257 O 0.05294 0.26967 0.96309 0.0
O258 O 0.04464 0.29141 0.91676 0.0
C259 C 1.00949 0.24251 0.85963 0.0
N260 N 0.99697 0.26896 0.87084 0.0
C261 C 0.96162 0.25261 0.82383 0.0
C262 C 0.97447 0.22561 0.8114 0.0
C263 C 0.9984 0.22039 0.82953 0.0
C264 C 0.97354 0.27362 0.85408 0.0
H265 H 1.02766 0.23817 0.87372 0.0
C266 C 0.06058 0.2803 0.93718 0.0
O267 O 1.02802 0.24879 1.01873 0.0
O268 O 1.01129 0.21204 0.97297 0.0
N269 N 0.97339 0.317 0.89883 0.0
C270 C 0.96351 0.34407 0.91433 0.0
C271 C 0.93958 0.3527 0.89972 0.0
C272 C 0.9264 0.33404 0.86877 0.0
C273 C 0.9374 0.30692 0.85275 0.0
C274 C 0.96137 0.29955 0.86858 0.0
H275 H 0.97361 0.35868 0.93787 0.0
O276 O 0.97295 0.25963 0.97993 0.0
O277 O 0.99184 0.26946 0.93609 0.0
O278 O 1.02014 0.31584 0.99477 0.0
O279 O 1.01771 0.34099 0.94978 0.0
C280 C 0.92534 0.28662 0.82192 0.0
C281 C 0.93732 0.25929 0.80759 0.0
H282 H 0.96598 0.20854 0.78817 0.0
H283 H 1.00825 0.19935 0.82033 0.0
H284 H 0.93126 0.3734 0.91271 0.0
H285 H 0.90772 0.34042 0.85768 0.0
H286 H 0.90672 0.29159 0.80921 0.0
H287 H 0.92765 0.24355 0.7841 0.0
Mn288 Mn 0.456 0.06069 0.33149 0.0
Mn289 Mn 0.4068 0.05771 0.38483 0.0
C290 C 0.42853 1.00489 0.33873 0.0
C291 C 0.48008 0.06232 0.2782 0.0
C292 C 0.46902 0.07005 0.41178 0.0
O293 O 0.44142 0.11071 0.33413 0.0
O294 O 0.41065 0.10411 0.37001 0.0
C295 C 0.35921 0.05907 0.3356 0.0
N296 N 0.37119 0.04393 0.3592 0.0
C297 C 0.33142 0.99925 0.35218 0.0
C298 C 0.31862 1.01467 0.32816 0.0
C299 C 0.33264 0.04462 0.31972 0.0
C300 C 0.35808 1.01461 0.36691 0.0
H301 H 0.36984 0.08187 0.32872 0.0
C302 C 0.42203 0.12188 0.3501 0.0
O303 O 0.49136 0.07419 0.30834 0.0
O304 O 0.45405 0.0513 0.27809 0.0
N305 N 0.39832 1.01575 0.40158 0.0
C306 C 0.41258 1.00522 0.42698 0.0
C307 C 0.40069 0.97677 0.43974 0.0
C308 C 0.37424 0.95923 0.42631 0.0
C309 C 0.35957 0.971 0.40095 0.0
C310 C 0.37218 1.00017 0.38989 0.0
H311 H 0.43289 1.01835 0.43767 0.0
O312 O 0.45259 1.00752 0.32902 0.0
O313 O 0.42149 0.03489 0.34507 0.0
O314 O 0.47638 0.06877 0.38233 0.0
O315 O 0.44362 0.06979 0.41516 0.0
C316 C 0.33273 0.95525 0.38664 0.0
C317 C 0.31876 0.96917 0.36202 0.0
H318 H 0.29808 1.00367 0.31595 0.0
H319 H 0.32299 0.05657 0.30101 0.0
H320 H 0.412 0.96822 0.45974 0.0
H321 H 0.36531 0.93695 0.43587 0.0
H322 H 0.32264 0.93242 0.3944 0.0
H323 H 0.29818 0.95672 0.35105 0.0
Mn324 Mn 0.26995 0.19163 0.57754 0.0
Mn325 Mn 0.25542 0.12343 0.51517 0.0
C326 C 0.22356 0.16361 0.56043 0.0
C327 C 0.28181 0.21575 0.63495 0.0
C328 C 0.27349 0.19709 0.50343 0.0
O329 O 0.30722 0.17488 0.57564 0.0
O330 O 0.29366 0.12654 0.53744 0.0
C331 C 0.25581 0.06849 0.55529 0.0
N332 N 0.24234 0.08335 0.53263 0.0
C333 C 0.20089 0.04237 0.52996 0.0
C334 C 0.21437 1.02652 0.55311 0.0
C335 C 0.24194 0.03966 0.56583 0.0
C336 C 0.21576 0.07103 0.52039 0.0
H337 H 0.27691 0.0787 0.56543 0.0
C338 C 0.31196 0.14688 0.55915 0.0
O339 O 0.2868 0.23357 0.61194 0.0
O340 O 0.27025 0.18387 0.62476 0.0
N341 N 0.2191 0.11694 0.49207 0.0
C342 C 0.20923 0.1348 0.46945 0.0
C343 C 0.18224 0.12415 0.4534 0.0
C344 C 0.1656 0.09545 0.46096 0.0
C345 C 0.1763 0.07724 0.48402 0.0
C346 C 0.20359 0.08849 0.49852 0.0
H347 H 0.22188 0.1569 0.46355 0.0
O348 O 0.22962 0.19529 0.57574 0.0
O349 O 0.24499 0.15003 0.55479 0.0
O350 O 0.27343 0.2112 0.53369 0.0
O351 O 0.26817 0.16432 0.4943 0.0
C352 C 0.16096 0.04838 0.49319 0.0
C353 C 0.1732 0.03109 0.51631 0.0
H354 H 0.20372 1.00436 0.56142 0.0
H355 H 0.25244 1.02768 0.58385 0.0
H356 H 0.17417 0.13825 0.43552 0.0
H357 H 0.14465 0.08767 0.44895 0.0
H358 H 0.13971 0.03936 0.48271 0.0
H359 H 0.16113 1.0091 0.52338 0.0
Mn360 Mn 0.19119 0.04197 0.84718 0.0
Mn361 Mn 0.24184 0.05914 0.91276 0.0
C362 C 0.21985 0.10101 0.86465 0.0
C363 C 0.16747 0.03237 0.78719 0.0
C364 C 0.18045 0.04284 0.92451 0.0
O365 O 0.20654 0.99216 0.84669 0.0
O366 O 0.24007 1.00967 0.89016 0.0
C367 C 0.29013 0.05489 0.8771 0.0
N368 N 0.27712 0.07248 0.89973 0.0
C369 C 0.31469 0.12045 0.91127 0.0
C370 C 0.32911 0.10192 0.88962 0.0
C371 C 0.31664 0.06915 0.87217 0.0
C372 C 0.28857 0.10455 0.91581 0.0
H373 H 0.28012 0.03054 0.86234 0.0
C374 C 0.22792 0.98614 0.86541 0.0
O375 O 0.15561 1.02568 0.81239 0.0
O376 O 0.1938 0.04156 0.79575 0.0
N377 N 0.24667 0.10576 0.9354 0.0
C378 C 0.22848 0.1221 0.95113 0.0
C379 C 0.23649 0.15661 0.96666 0.0
C380 C 0.26307 0.17404 0.96581 0.0
C381 C 0.28136 0.15685 0.94922 0.0
C382 C 0.2723 0.12234 0.93438 0.0
H383 H 0.20793 0.10905 0.95166 0.0
O384 O 0.1945 0.09554 0.85122 0.0
O385 O 0.22655 0.07218 0.87055 0.0
O386 O 0.17187 0.04114 0.89317 0.0
O387 O 0.20643 0.04687 0.9333 0.0
C388 C 0.30793 0.17293 0.94598 0.0
C389 C 0.32463 0.1547 0.92711 0.0
H390 H 0.34934 0.11312 0.88525 0.0
H391 H 0.32722 0.05517 0.8545 0.0
H392 H 0.22216 0.16981 0.97913 0.0
H393 H 0.26908 0.20078 0.97754 0.0
H394 H 0.3155 0.19956 0.95725 0.0
H395 H 0.34473 0.16764 0.92404 0.0
Mn396 Mn 0.2884 0.92197 0.05563 0.0
Mn397 Mn 0.30356 0.96671 0.99595 0.0
C398 C 0.33118 0.92633 0.04008 0.0
C399 C 0.28791 0.91686 0.11029 0.0
C400 C 0.27535 0.89245 0.98154 0.0
O401 O 0.25813 0.94871 0.05366 0.0
O402 O 0.26753 0.97373 1.0103 0.0
C403 C 0.31013 0.03506 0.03912 0.0
N404 N 0.3198 1.01271 1.01676 0.0
C405 C 0.35717 0.05649 1.01138 0.0
C406 C 0.34717 0.08026 0.03354 0.0
C407 C 0.3238 0.06932 0.04795 0.0
C408 C 0.34315 1.02247 1.00437 0.0
H409 H 0.29219 1.02685 0.05021 0.0
C410 C 0.2527 0.96766 0.03294 0.0
O411 O 0.27161 0.89509 0.08684 0.0
O412 O 0.30154 0.94388 0.10213 0.0
N413 N 0.33786 0.96503 0.97938 0.0
C414 C 0.34555 0.93879 0.9594 0.0
C415 C 0.36879 0.94565 0.9433 0.0
C416 C 0.38446 0.9788 0.94888 0.0
C417 C 0.37635 1.00528 0.96972 0.0
C418 C 0.35266 0.9973 0.98443 0.0
H419 H 0.33317 0.91337 0.95435 0.0
O420 O 0.32117 0.90165 0.05447 0.0
O421 O 0.31592 0.94933 0.03586 0.0
O422 O 0.27212 0.89055 1.01149 0.0
O423 O 0.28755 0.91935 0.97254 0.0
C424 C 0.3902 0.03959 0.97531 0.0
C425 C 0.38043 0.06523 0.99586 0.0
H426 H 0.35749 0.1068 0.04002 0.0
H427 H 0.31618 0.08732 0.06552 0.0
H428 H 0.37446 0.92581 0.92588 0.0
H429 H 0.40231 0.98377 0.93636 0.0
H430 H 0.40828 0.04659 0.96373 0.0
H431 H 0.39101 0.0916 0.9997 0.0
Mn432 Mn 0.37209 0.40982 0.12886 0.0
Mn433 Mn 0.37974 0.47705 0.08798 0.0
C434 C 0.41716 0.4387 0.12405 0.0
C435 C 0.36389 0.38454 0.1776 0.0
C436 C 0.36185 0.40257 0.05309 0.0
O437 O 0.33326 0.42395 0.12367 0.0
O438 O 0.34451 0.47483 0.1071 0.0
C439 C 0.38688 0.53477 0.14466 0.0
N440 N 0.39609 0.51892 0.11741 0.0
C441 C 0.43568 0.56375 0.12428 0.0
C442 C 0.42637 0.58086 0.15213 0.0
C443 C 0.40193 0.56619 0.16247 0.0
C444 C 0.41982 0.53248 0.1076 0.0
H445 H 0.3683 0.52335 0.15281 0.0
C446 C 0.32725 0.4523 0.11661 0.0
O447 O 0.35796 0.36752 0.14751 0.0
O448 O 0.37417 0.4169 0.17983 0.0
N449 N 0.41257 0.48268 0.06766 0.0
C450 C 0.41892 0.46278 0.04049 0.0
C451 C 0.44284 0.47369 0.02709 0.0
C452 C 0.45991 0.50504 0.04157 0.0
C453 C 0.45267 0.52542 0.06903 0.0
C454 C 0.42837 0.51348 0.081 0.0
H455 H 0.40584 0.4388 0.02894 0.0
O456 O 0.41306 0.40839 0.13193 0.0
O457 O 0.39499 0.45172 0.12066 0.0
O458 O 0.3668 0.38906 0.07864 0.0
O459 O 0.3634 0.43493 0.05475 0.0
C460 C 0.46875 0.557 0.08514 0.0
C461 C 0.46031 0.57617 0.11279 0.0
H462 H 0.43796 0.60506 0.16597 0.0
H463 H 0.39475 0.57905 0.18414 0.0
H464 H 0.44814 0.45793 1.0057 0.0
H465 H 0.47852 0.51319 0.03141 0.0
H466 H 0.48785 0.56637 0.07674 0.0
H467 H 0.47302 0.60027 0.12519 0.0
Mn468 Mn 0.88031 0.20625 0.18288 0.0
Mn469 Mn 0.83733 0.13511 0.14056 0.0
C470 C 0.83334 0.20182 0.18037 0.0
C471 C 0.90395 0.24374 0.22954 0.0
C472 C 0.85977 0.19394 0.10899 0.0
O473 O 0.90702 0.17293 0.17721 0.0
O474 O 0.87611 0.13064 0.14453 0.0
C475 C 0.84785 0.09551 0.19404 0.0
N476 N 0.82992 0.1058 0.17213 0.0
C477 C 0.79144 0.07378 0.19101 0.0
C478 C 0.80951 0.06214 0.21316 0.0
C479 C 0.83784 0.0734 0.21496 0.0
C480 C 0.80262 0.09651 0.17142 0.0
H481 H 0.86959 0.1044 0.19583 0.0
C482 C 0.90044 0.14349 0.15842 0.0
O483 O 0.90966 0.24683 0.20004 0.0
O484 O 0.88791 0.21563 0.23211 0.0
N485 N 0.79863 0.13331 0.13358 0.0
C486 C 0.78405 0.14494 0.10922 0.0
C487 C 0.75547 0.13521 0.10337 0.0
C488 C 0.74216 0.11244 0.12158 0.0
C489 C 0.7576 0.09967 0.14558 0.0
C490 C 0.78607 0.11034 0.15035 0.0
H491 H 0.79414 0.16148 0.09422 0.0
O492 O 0.84928 0.23144 0.1863 0.0
O493 O 0.84493 0.17493 0.17688 0.0
O494 O 0.87785 0.20779 0.13363 0.0
O495 O 0.84311 0.16594 0.10804 0.0
C496 C 0.74591 0.07612 0.16438 0.0
C497 C 0.76279 0.06363 0.1875 0.0
H498 H 0.80187 0.04477 0.22907 0.0
H499 H 0.85192 0.06499 0.23238 0.0
H500 H 0.74377 0.14507 0.08465 0.0
H501 H 0.72011 0.10465 0.11667 0.0
H502 H 0.72394 0.06749 0.1613 0.0
H503 H 0.75354 0.04586 0.2021 0.0
Mn504 Mn 0.18651 0.53518 0.33887 0.0
Mn505 Mn 0.23938 0.55485 0.40243 0.0
C506 C 0.21401 0.59418 0.35518 0.0
C507 C 0.16024 0.52538 0.28007 0.0
C508 C 0.17862 0.54161 0.41695 0.0
O509 O 0.20241 0.48597 0.33896 0.0
O510 O 0.235 0.50366 0.38363 0.0
C511 C 0.28584 0.54168 0.3658 0.0
N512 N 0.27382 0.56357 0.38586 0.0
C513 C 0.31206 0.60964 0.38917 0.0
C514 C 0.32487 0.58745 0.36884 0.0
C515 C 0.31167 0.55335 0.35707 0.0
C516 C 0.28643 0.59646 0.39741 0.0
H517 H 0.27586 0.51548 0.3564 0.0
C518 C 0.22285 0.4798 0.35914 0.0
O519 O 0.14997 0.5177 0.30601 0.0
O520 O 0.18667 0.53506 0.28697 0.0
N521 N 0.2472 0.60275 0.42187 0.0
C522 C 0.23131 0.6218 0.43904 0.0
C523 C 0.24153 0.65654 0.45238 0.0
C524 C 0.26768 0.67169 0.44708 0.0
C525 C 0.28333 0.65194 0.42842 0.0
C526 C 0.27242 0.61712 0.41664 0.0
H527 H 0.21075 0.61085 0.44191 0.0
O528 O 0.18837 0.58814 0.34282 0.0
O529 O 0.2221 0.56593 0.36037 0.0
O530 O 0.16893 0.53481 0.38557 0.0
O531 O 0.20478 0.5482 0.42502 0.0
C532 C 0.30897 0.6657 0.42027 0.0
C533 C 0.32341 0.64456 0.40081 0.0
H534 H 0.34467 0.59645 0.36174 0.0
H535 H 0.32133 0.53613 0.34114 0.0
H536 H 0.22907 0.67177 0.46616 0.0
H537 H 0.27528 0.69868 0.45682 0.0
H538 H 0.31748 0.69271 0.42824 0.0
H539 H 0.34302 0.65557 0.39446 0.0
Mn540 Mn 0.87067 0.91106 0.62926 0.0
Mn541 Mn 0.87917 0.97751 0.58657 0.0
C542 C 0.91573 0.93918 0.62324 0.0
C543 C 0.86324 0.88612 0.67864 0.0
C544 C 0.86293 0.90283 0.55233 0.0
O545 O 0.83183 0.92519 0.62486 0.0
O546 O 0.84205 0.97116 0.60038 0.0
C547 C 0.87868 0.03356 0.64262 0.0
N548 N 0.89128 1.01954 0.61745 0.0
C549 C 0.92836 0.068 0.6288 0.0
C550 C 0.91572 0.08308 0.65476 0.0
C551 C 0.89084 0.06569 0.6618 0.0
C552 C 0.91546 0.03574 0.61087 0.0
H553 H 0.85949 1.0203 0.64794 0.0
C554 C 0.82507 0.95072 0.61253 0.0
O555 O 0.85669 0.8691 0.6486 0.0
O556 O 0.87369 0.91837 0.68048 0.0
N557 N 0.91358 0.98744 0.5704 0.0
C558 C 0.92234 0.9702 0.54341 0.0
C559 C 0.94663 0.98446 0.53252 0.0
C560 C 0.96141 1.01654 0.5491 0.0
C561 C 0.95152 0.03433 0.57609 0.0
C562 C 0.92707 1.01897 0.58563 0.0
H563 H 0.91087 0.94578 0.5302 0.0
O564 O 0.91147 0.90901 0.63137 0.0
O565 O 0.8938 0.95275 0.62028 0.0
O566 O 0.86436 0.8898 0.57879 0.0
O567 O 0.8672 0.93517 0.5527 0.0
C568 C 0.96481 0.06686 0.59369 0.0
C569 C 0.95333 0.0836 0.62016 0.0
H570 H 0.92497 0.10791 0.66951 0.0
H571 H 0.88102 0.0771 0.68187 0.0
H572 H 0.95392 0.97078 0.51137 0.0
H573 H 0.98021 1.02733 0.54079 0.0
H574 H 0.98386 0.07921 0.58707 0.0
H575 H 0.96383 0.10853 0.63362 0.0
Mn576 Mn 0.94556 0.05191 0.31876 0.0
Mn577 Mn 0.89776 0.04772 0.37425 0.0
C578 C 0.91849 0.99519 0.32693 0.0
C579 C 0.96999 0.05568 0.26485 0.0
C580 C 0.96001 0.06267 0.39902 0.0
O581 O 0.92994 0.10172 0.32261 0.0
O582 O 0.90017 0.09371 0.35945 0.0
C583 C 0.8476 0.04815 0.32893 0.0
N584 N 0.86123 0.03345 0.35159 0.0
C585 C 0.82122 0.99092 0.3514 0.0
C586 C 0.80669 1.00585 0.32835 0.0
C587 C 0.82 0.03444 0.31689 0.0
C588 C 0.84873 1.0056 0.36238 0.0
H589 H 0.85766 0.07016 0.32006 0.0
C590 C 0.91077 0.11218 0.33961 0.0
O591 O 0.98079 0.06722 0.29519 0.0
O592 O 0.94418 0.04334 0.26483 0.0
N593 N 0.89149 1.00557 0.39096 0.0
C594 C 0.9089 0.99243 0.41111 0.0
C595 C 0.89903 0.96296 0.42369 0.0
C596 C 0.87132 0.94744 0.41574 0.0
C597 C 0.85373 0.9615 0.39519 0.0
C598 C 0.8647 0.991 0.38347 0.0
H599 H 0.93019 1.00424 0.41759 0.0
O600 O 0.94219 0.99817 0.3162 0.0
O601 O 0.9115 1.02523 0.3334 0.0
O602 O 0.96689 0.06027 0.36929 0.0
O603 O 0.93477 0.06158 0.40295 0.0
C604 C 0.82585 0.94701 0.38537 0.0
C605 C 0.80964 0.96161 0.36337 0.0
H606 H 0.78541 0.99534 0.31898 0.0
H607 H 0.80899 0.04593 0.29888 0.0
H608 H 0.91275 0.95225 0.43952 0.0
H609 H 0.86383 0.92456 0.4253 0.0
H610 H 0.81682 0.9242 0.39404 0.0
H611 H 0.78839 0.94978 0.35542 0.0
Mn612 Mn 0.38485 0.7238 0.66067 0.0
Mn613 Mn 0.35299 0.66223 0.59667 0.0
C614 C 0.33789 0.71486 0.64594 0.0
C615 C 0.3984 0.74789 0.71546 0.0
C616 C 0.3833 0.73078 0.58809 0.0
O617 O 0.41356 0.69338 0.65585 0.0
O618 O 0.39058 0.65609 0.61064 0.0
C619 C 0.35014 0.60465 0.63384 0.0
N620 N 0.33734 0.62385 0.61498 0.0
C621 C 0.29314 0.59211 0.61953 0.0
C622 C 0.30588 0.57191 0.63885 0.0
C623 C 0.33453 0.57823 0.64604 0.0
C624 C 0.30977 0.6181 0.60808 0.0
H625 H 0.37205 0.60956 0.6397 0.0
C626 C 0.41149 0.66745 0.63267 0.0
O627 O 0.40957 0.76096 0.69225 0.0
O628 O 0.38207 0.71832 0.70709 0.0
N629 N 0.31612 0.66479 0.58095 0.0
C630 C 0.30709 0.68559 0.56075 0.0
C631 C 0.27892 0.68191 0.55039 0.0
C632 C 0.2604 0.65685 0.56078 0.0
C633 C 0.27026 0.63499 0.58066 0.0
C634 C 0.29857 0.63941 0.58961 0.0
H635 H 0.32123 0.70496 0.55274 0.0
O636 O 0.35112 0.74472 0.66089 0.0
O637 O 0.35248 0.6914 0.63923 0.0
O638 O 0.3927 0.74063 0.61853 0.0
O639 O 0.36761 0.70188 0.57665 0.0
C640 C 0.25317 0.6092 0.59222 0.0
C641 C 0.26457 0.58777 0.61159 0.0
H642 H 0.29388 0.55161 0.64842 0.0
H643 H 0.34456 0.56289 0.66107 0.0
H644 H 0.27148 0.69861 0.53474 0.0
H645 H 0.23868 0.65487 0.55353 0.0
H646 H 0.23119 0.60596 0.58701 0.0
H647 H 0.25115 0.56817 0.62042 0.0
Mn648 Mn 0.44836 0.55521 0.82364 0.0
Mn649 Mn 0.40107 0.55164 0.87978 0.0
C650 C 0.42041 0.49887 0.83107 0.0
C651 C 0.47275 0.55859 0.76965 0.0
C652 C 0.46329 0.56456 0.90355 0.0
O653 O 0.43408 0.60595 0.82905 0.0
O654 O 0.40439 0.59833 0.86615 0.0
C655 C 0.35076 0.55473 0.83604 0.0
N656 N 0.3643 0.53882 0.85767 0.0
C657 C 0.32375 0.49702 0.85722 0.0
C658 C 0.30934 0.51316 0.83517 0.0
C659 C 0.32294 0.54202 0.8244 0.0
C660 C 0.35147 0.51079 0.86792 0.0
H661 H 0.36106 0.57698 0.82774 0.0
C662 C 0.41546 0.61698 0.84674 0.0
O663 O 0.4837 0.56962 0.80001 0.0
O664 O 0.44679 0.54722 0.76965 0.0
N665 N 0.39418 0.50899 0.89551 0.0
C666 C 0.41146 0.49473 0.91474 0.0
C667 C 0.40125 0.46489 0.92656 0.0
C668 C 0.37337 0.45014 0.91879 0.0
C669 C 0.35595 0.46533 0.89917 0.0
C670 C 0.36725 0.49514 0.88817 0.0
H671 H 0.43288 0.50591 0.92104 0.0
O672 O 0.44404 0.50138 0.82018 0.0
O673 O 0.414 0.52921 0.83822 0.0
O674 O 0.46992 0.56241 0.87374 0.0
O675 O 0.43823 0.564 0.90796 0.0
C676 C 0.3279 0.45166 0.88954 0.0
C677 C 0.31184 0.46743 0.86849 0.0
H678 H 0.28789 0.50342 0.82609 0.0
H679 H 0.31199 0.55449 0.80723 0.0
H680 H 0.41485 0.4533 0.94166 0.0
H681 H 0.36561 0.42698 0.92776 0.0
H682 H 0.31861 0.42863 0.89764 0.0
H683 H 0.29043 0.45626 0.86071 0.0
Mn684 Mn 0.68706 0.03626 0.84429 0.0
Mn685 Mn 0.74159 0.05541 0.90597 0.0
C686 C 0.71522 0.09513 0.86003 0.0
C687 C 0.65925 1.02617 0.78604 0.0
C688 C 0.68167 0.0425 0.92315 0.0
O689 O 0.70227 0.98656 0.84368 0.0
O690 O 0.73651 1.00451 0.88646 0.0
C691 C 0.7867 0.04225 0.86693 0.0
N692 N 0.77538 0.06406 0.88798 0.0
C693 C 0.81399 0.10961 0.89122 0.0
C694 C 0.82611 0.08749 0.86989 0.0
C695 C 0.81235 0.0537 0.85762 0.0
C696 C 0.78846 0.09668 0.89988 0.0
H697 H 0.77629 1.01628 0.85723 0.0
C698 C 0.72338 0.98043 0.86277 0.0
O699 O 0.64983 1.01888 0.8126 0.0
O700 O 0.68572 0.03587 0.79202 0.0
N701 N 0.74999 0.10315 0.92586 0.0
C702 C 0.73471 0.12216 0.94414 0.0
C703 C 0.74532 0.15678 0.95757 0.0
C704 C 0.77133 0.17169 0.95164 0.0
C705 C 0.78653 0.15187 0.93236 0.0
C706 C 0.77508 0.11732 0.92004 0.0
H707 H 0.71436 0.11125 0.94791 0.0
O708 O 0.68942 0.08942 0.84842 0.0
O709 O 0.72316 0.0667 0.86472 0.0
O710 O 0.67107 0.03616 0.89205 0.0
O711 O 0.70791 0.04872 0.93012 0.0
C712 C 0.81229 0.1653 0.92423 0.0
C713 C 0.82602 0.14418 0.90368 0.0
H714 H 0.8458 0.0963 0.86243 0.0
H715 H 0.82147 0.03655 0.84092 0.0
H716 H 0.73328 0.17209 0.972 0.0
H717 H 0.77918 0.19856 0.96133 0.0
H718 H 0.82157 0.19197 0.93331 0.0
H719 H 0.84568 0.15491 0.89727 0.0
Mn720 Mn 0.77027 0.68969 0.07826 0.0
Mn721 Mn 0.75337 0.6215 1.01615 0.0
C722 C 0.72366 0.66188 0.06391 0.0
C723 C 0.78385 0.71452 0.13516 0.0
C724 C 0.77092 0.69497 1.00386 0.0
O725 O 0.80724 0.67259 0.074 0.0
O726 O 0.79226 0.62399 0.0364 0.0
C727 C 0.75514 0.56524 0.05443 0.0
N728 N 0.74096 0.58093 0.03319 0.0
C729 C 0.69987 0.53941 0.03084 0.0
C730 C 0.71415 0.5226 0.05237 0.0
C731 C 0.74189 0.53561 0.06424 0.0
C732 C 0.71423 0.56865 1.02165 0.0
H733 H 0.77635 0.57541 0.06403 0.0
C734 C 0.81127 0.64424 0.05735 0.0
O735 O 0.78809 0.73187 0.11162 0.0
O736 O 0.77242 0.6825 0.12578 0.0
N737 N 0.71633 0.61614 0.99556 0.0
C738 C 0.70505 0.63652 0.97662 0.0
C739 C 0.67721 0.62761 0.96356 0.0
C740 C 0.66121 0.59797 0.97021 0.0
C741 C 0.67326 0.57734 0.9897 0.0
C742 C 0.70121 0.58724 1.00165 0.0
H743 H 0.71715 0.65951 0.97165 0.0
O744 O 0.73019 0.6937 0.07878 0.0
O745 O 0.74471 0.648 0.05698 0.0
O746 O 0.77191 0.70917 0.03426 0.0
O747 O 0.76536 0.66224 0.9949 0.0
C748 C 0.6585 0.54774 0.99826 0.0
C749 C 0.67179 0.5288 1.01883 0.0
H750 H 0.70393 0.49993 0.06027 0.0
H751 H 0.75299 0.52296 0.0811 0.0
H752 H 0.66802 0.64375 0.94867 0.0
H753 H 0.63964 0.59146 0.96049 0.0
H754 H 0.63683 0.53958 0.98953 0.0
H755 H 0.66013 0.50638 0.02565 0.0
Mn756 Mn 0.95589 0.56035 0.82884 0.0
Mn757 Mn 0.9088 0.55915 0.88491 0.0
C758 C 0.92829 0.50512 0.83799 0.0
C759 C 0.97907 0.56068 0.77447 0.0
C760 C 0.97138 0.57115 0.90881 0.0
O761 O 0.9418 0.61088 0.83189 0.0
O762 O 0.91196 0.60524 0.86908 0.0
C763 C 0.85904 0.56038 0.83913 0.0
N764 N 0.87224 0.54543 0.86191 0.0
C765 C 0.83221 0.50212 0.85937 0.0
C766 C 0.81812 0.51747 0.83632 0.0
C767 C 0.83167 0.54659 0.82599 0.0
C768 C 0.85955 0.51691 0.87146 0.0
H769 H 0.86931 0.58255 0.83091 0.0
C770 C 0.92294 0.62264 0.84854 0.0
O771 O 0.99082 0.57254 0.8044 0.0
O772 O 0.95303 0.55044 0.77515 0.0
N773 N 0.9015 0.51737 0.90225 0.0
C774 C 0.91784 0.50528 0.92461 0.0
C775 C 0.90724 0.47628 0.93746 0.0
C776 C 0.87989 0.46002 0.92745 0.0
C777 C 0.86333 0.47305 0.90479 0.0
C778 C 0.8749 0.50235 0.89316 0.0
H779 H 0.93886 0.51747 0.93268 0.0
O780 O 0.95188 0.50705 0.82708 0.0
O781 O 0.92174 0.53543 0.84418 0.0
O782 O 0.97763 0.56896 0.87884 0.0
O783 O 0.94634 0.57148 0.91349 0.0
C784 C 0.83579 0.45799 0.89324 0.0
C785 C 0.82028 0.4724 0.8704 0.0
H786 H 0.79701 0.50687 0.8261 0.0
H787 H 0.82105 0.55839 0.80792 0.0
H788 H 0.92018 0.46641 0.95497 0.0
H789 H 0.87187 0.43745 0.93716 0.0
H790 H 0.8264 0.43514 0.90156 0.0
H791 H 0.79922 0.46035 0.86138 0.0
Mn792 Mn 0.77345 0.41562 0.54538 0.0
Mn793 Mn 0.79639 0.46416 0.49106 0.0
C794 C 0.81805 0.41915 0.53524 0.0
C795 C 0.76597 0.40542 0.59723 0.0
C796 C 0.76393 0.39181 0.47076 0.0
O797 O 0.74527 0.44563 0.54206 0.0
O798 O 0.76148 0.47605 0.50489 0.0
C799 C 0.80847 0.52995 0.53911 0.0
N800 N 0.81631 0.50742 0.51513 0.0
C801 C 0.86014 0.54404 0.51899 0.0
C802 C 0.85202 0.5683 0.54257 0.0
C803 C 0.82616 0.56104 0.55293 0.0
C804 C 0.84148 0.51364 0.50581 0.0
H805 H 0.78905 0.52406 0.548 0.0
C806 C 0.74429 0.46918 0.52493 0.0
O807 O 0.7514 0.38675 0.57062 0.0
O808 O 0.78287 0.43244 0.59367 0.0
N809 N 0.83043 0.45779 0.47569 0.0
C810 C 0.83615 0.43057 0.455 0.0
C811 C 0.86169 0.4333 0.4433 0.0
C812 C 0.8812 0.46353 0.45327 0.0
C813 C 0.87494 0.49114 0.47459 0.0
C814 C 0.84887 0.48748 0.48467 0.0
H815 H 0.82126 0.40715 0.44716 0.0
O816 O 0.80575 0.3932 0.54641 0.0
O817 O 0.80387 0.44294 0.53034 0.0
O818 O 0.7593 0.3881 0.4997 0.0
O819 O 0.77721 0.41934 0.46408 0.0
C820 C 0.89369 0.522 0.48652 0.0
C821 C 0.88635 0.54837 0.50886 0.0
H822 H 0.86573 0.59217 0.55353 0.0
H823 H 0.81997 0.57922 0.57175 0.0
H824 H 0.86638 0.41252 0.42621 0.0
H825 H 0.90091 0.46525 0.44433 0.0
H826 H 0.914 0.52545 0.47918 0.0
H827 H 0.90116 0.57166 0.51851 0.0
Mn828 Mn 0.69209 0.54048 0.34951 0.0
Mn829 Mn 0.74273 0.556 0.41495 0.0
C830 C 0.72093 0.59896 0.36796 0.0
C831 C 0.66859 0.53242 0.29002 0.0
C832 C 0.68122 0.54112 0.42682 0.0
O833 O 0.70734 0.49116 0.34706 0.0
O834 O 0.73901 0.50551 0.39285 0.0
C835 C 0.79227 0.54478 0.38378 0.0
N836 N 0.77841 0.56612 0.40177 0.0
C837 C 0.81723 0.6124 0.41105 0.0
C838 C 0.83186 0.59082 0.39279 0.0
C839 C 0.8193 0.55688 0.37909 0.0
C840 C 0.7905 0.59873 0.41547 0.0
H841 H 0.78293 0.51863 0.37315 0.0
C842 C 0.72743 0.48354 0.36648 0.0
O843 O 0.65672 0.52353 0.31449 0.0
O844 O 0.69472 0.54313 0.29899 0.0
N845 N 0.74945 0.60328 0.43624 0.0
C846 C 0.73204 0.62155 0.45137 0.0
C847 C 0.74112 0.6564 0.46517 0.0
C848 C 0.76787 0.67228 0.4629 0.0
C849 C 0.78522 0.65322 0.44656 0.0
C850 C 0.77508 0.61849 0.43341 0.0
H851 H 0.71133 0.60972 0.45273 0.0
O852 O 0.69536 0.59407 0.3554 0.0
O853 O 0.72768 0.56984 0.37295 0.0
O854 O 0.67274 0.53702 0.39515 0.0
O855 O 0.70721 0.54734 0.43605 0.0
C856 C 0.81197 0.66753 0.4422 0.0
C857 C 0.82803 0.64708 0.42465 0.0
H858 H 0.85262 0.60016 0.3888 0.0
H859 H 0.83042 0.54008 0.36484 0.0
H860 H 0.72746 0.67105 0.47733 0.0
H861 H 0.77473 0.69925 0.47335 0.0
H862 H 0.82033 0.69432 0.45206 0.0
H863 H 0.84855 0.6584 0.42138 0.0
C864 C 0.13532 0.10044 0.14661 0.0
Eu865 Eu 0.08917 0.06788 0.1129 0.0
C866 C 0.16105 0.10089 0.13223 0.0
C867 C 0.18147 0.08635 0.14772 0.0
C868 C 0.19797 0.06885 0.12854 0.0
C869 C 0.19435 0.06608 0.09381 0.0
C870 C 0.17724 0.08541 0.07914 0.0
C871 C 0.16065 0.10282 0.09828 0.0
C872 C 0.04221 0.06142 0.14792 0.0
C873 C 0.08956 0.98936 0.11685 0.0
C874 C 1.01205 1.00098 0.0355 0.0
Eu875 Eu 0.05773 0.02937 0.07239 0.0
C876 C 0.98621 1.00945 0.04617 0.0
C877 C 0.97563 0.03624 0.03421 0.0
C878 C 0.96168 0.05705 0.0542 0.0
C879 C 0.95756 0.05088 0.08612 0.0
C880 C 0.96416 1.02088 0.09562 0.0
C881 C 0.97828 1.00024 0.07581 0.0
C882 C 0.10563 0.03621 0.03903 0.0
C883 C 0.05519 0.10682 0.07041 0.0
O884 O 0.11745 0.11631 0.13329 0.0
O885 O 0.1241 0.06985 0.15006 0.0
O886 O 0.0591 0.08924 0.14674 0.0
O887 O 0.04981 0.03745 0.12786 0.0
O888 O 0.10609 1.01899 0.12024 0.0
O889 O 0.06549 0.98696 0.09999 0.0
O890 O 1.02546 0.98416 0.05415 0.0
O891 O 1.0283 1.02684 0.02848 0.0
O892 O 0.0902 1.00787 0.04212 0.0
O893 O 0.09634 0.06007 0.05714 0.0
O894 O 0.03908 0.07753 0.06962 0.0
O895 O 0.08039 0.1091 0.08376 0.0
H896 H 0.18214 0.08443 0.17374 0.0
H897 H 0.21169 0.05474 0.1404 0.0
H898 H 0.1746 0.08413 0.05248 0.0
H899 H 0.14517 0.11393 0.08557 0.0
H900 H 0.98088 0.04358 1.01115 0.0
H901 H 0.95537 0.07894 0.04537 0.0
H902 H 0.96014 1.01471 0.11947 0.0
H903 H 0.9855 0.97931 0.08556 0.0
C904 C 0.3035 0.83673 0.43393 0.0
Eu905 Eu 0.31453 0.81497 0.37465 0.0
C906 C 0.32179 0.84576 0.46531 0.0
C907 C 0.31186 0.836 0.49354 0.0
C908 C 0.32986 0.82865 0.51849 0.0
C909 C 0.35771 0.83102 0.51507 0.0
C910 C 0.36817 0.84614 0.48965 0.0
C911 C 0.35018 0.85348 0.46465 0.0
C912 C 0.2801 0.82506 0.32101 0.0
C913 C 0.28764 0.73133 0.35106 0.0
C914 C 0.34578 0.7709 0.26488 0.0
Eu915 Eu 0.33045 0.78521 0.32313 0.0
C916 C 0.34654 0.79242 0.23924 0.0
C917 C 0.32923 0.78057 0.20912 0.0
C918 C 0.32184 0.80382 0.18966 0.0
C919 C 0.33149 0.83923 0.20023 0.0
C920 C 0.35082 0.85067 0.22877 0.0
C921 C 0.35871 0.82734 0.24776 0.0
C922 C 0.36286 0.77181 0.3767 0.0
C923 C 0.35698 0.86718 0.34643 0.0
O924 O 0.30787 0.85671 0.41232 0.0
O925 O 0.30028 0.80436 0.42063 0.0
O926 O 0.29185 0.84826 0.34605 0.0
O927 O 0.28806 0.79719 0.32431 0.0
O928 O 0.29063 0.75901 0.37478 0.0
O929 O 0.30109 0.73507 0.32552 0.0
O930 O 0.32121 0.75996 0.27126 0.0
O931 O 0.36299 0.78248 0.29195 0.0
O932 O 0.35055 0.7495 0.35117 0.0
O933 O 0.35631 0.80075 0.37399 0.0
O934 O 0.34542 0.84362 0.32015 0.0
O935 O 0.35168 0.85851 0.37498 0.0
H936 H 0.29004 0.82977 0.49431 0.0
H937 H 0.32156 0.81692 0.53809 0.0
H938 H 0.3897 0.8484 0.48707 0.0
H939 H 0.35823 0.861 0.44296 0.0
H940 H 0.31969 0.75375 0.20203 0.0
H941 H 0.30745 0.79429 0.16721 0.0
H942 H 0.35856 0.87778 0.23763 0.0
H943 H 0.37261 0.8372 0.27053 0.0
C944 C 0.49113 0.06184 0.62395 0.0
Eu945 Eu 0.53963 0.0479 0.6126 0.0
C946 C 0.4658 0.0742 0.61082 0.0
C947 C 0.4413 0.05112 0.59734 0.0
C948 C 0.41701 0.06303 0.58805 0.0
C949 C 0.41625 0.09849 0.59205 0.0
C950 C 0.44071 0.1215 0.60578 0.0
C951 C 0.46493 0.10959 0.61504 0.0
C952 C 0.58036 0.03499 0.66159 0.0
C953 C 0.58679 0.11584 0.62465 0.0
C954 C 0.6419 0.03102 0.56911 0.0
Eu955 Eu 0.59325 0.04443 0.58024 0.0
C956 C 0.66791 1.02017 0.58218 0.0
C957 C 0.69327 0.03766 0.57651 0.0
C958 C 0.71767 1.0253 0.58357 0.0
C959 C 0.71773 0.99484 0.59656 0.0
C960 C 0.69254 0.97811 0.60378 0.0
C961 C 0.66797 0.99042 0.59647 0.0
C962 C 0.55209 0.05766 0.53146 0.0
C963 C 0.54701 0.97631 0.56993 0.0
O964 O 0.51409 0.08401 0.63114 0.0
O965 O 0.49516 0.03091 0.61237 0.0
O966 O 0.55467 0.03559 0.66411 0.0
O967 O 0.58236 0.0388 0.63135 0.0
O968 O 0.56034 0.10343 0.62116 0.0
O969 O 0.6044 0.0972 0.61314 0.0
O970 O 0.63752 0.06202 0.57966 0.0
O971 O 0.61924 1.00828 0.56292 0.0
O972 O 0.57739 0.05539 0.52799 0.0
O973 O 0.55062 0.05382 0.56176 0.0
O974 O 0.5735 0.98873 0.57566 0.0
O975 O 0.52896 0.99576 0.57826 0.0
H976 H 0.44075 1.02372 0.59444 0.0
H977 H 0.3986 0.0443 0.57841 0.0
H978 H 0.44118 0.14891 0.60941 0.0
H979 H 0.48293 0.12831 0.62619 0.0
H980 H 0.69413 0.06045 0.5654 0.0
H981 H 0.73659 0.03932 0.57812 0.0
H982 H 0.69164 0.95465 0.61377 0.0
H983 H 0.6489 0.97601 0.60107 0.0
C984 C 0.3965 0.27229 0.8403 0.0
Eu985 Eu 0.34649 0.2829 0.84723 0.0
C986 C 0.42181 0.28429 0.82579 0.0
C987 C 0.44666 0.27531 0.83742 0.0
C988 C 0.47026 0.28292 0.82214 0.0
C989 C 0.46986 0.29995 0.79473 0.0
C990 C 0.44498 0.30956 0.78354 0.0
C991 C 0.42131 0.30188 0.79886 0.0
C992 C 0.30294 0.23137 0.8572 0.0
C993 C 0.30814 0.27705 0.7766 0.0
C994 C 0.24582 0.3272 0.85373 0.0
Eu995 Eu 0.29557 0.31599 0.84669 0.0
C996 C 0.22005 0.31591 0.86765 0.0
C997 C 0.19481 0.31717 0.84981 0.0
C998 C 0.17021 0.30936 0.86294 0.0
C999 C 0.16985 0.29975 0.89442 0.0
C1000 C 0.19524 0.29812 0.91221 0.0
C1001 C 0.22001 0.30632 0.89911 0.0
C1002 C 0.33913 0.36717 0.83654 0.0
C1003 C 0.33425 0.32366 0.91698 0.0
O1004 O 0.39048 0.29172 0.86619 0.0
O1005 O 0.37466 0.25726 0.81957 0.0
O1006 O 0.32856 0.22907 0.85707 0.0
O1007 O 0.30182 0.2625 0.85339 0.0
O1008 O 0.33251 0.27617 0.79192 0.0
O1009 O 0.2894 0.28954 0.79267 0.0
O1010 O 0.25165 0.30768 0.82777 0.0
O1011 O 0.26767 0.34198 0.87455 0.0
O1012 O 0.31349 0.36954 0.83612 0.0
O1013 O 0.34012 0.33612 0.84052 0.0
O1014 O 0.30953 0.32294 0.90179 0.0
O1015 O 0.35306 0.31133 0.90083 0.0
H1016 H 0.44763 0.26138 0.85784 0.0
H1017 H 0.48859 0.27422 0.83111 0.0
H1018 H 0.44373 0.32277 0.76263 0.0
H1019 H 0.40247 0.30906 0.7892 0.0
H1020 H 0.19413 0.32492 0.82575 0.0
H1021 H 0.15138 0.31152 0.84848 0.0
H1022 H 0.19605 0.29008 0.9361 0.0
H1023 H 0.23911 0.30513 0.91359 0.0
C1024 C 0.09206 0.96843 0.54753 0.0
Eu1025 Eu 0.07825 1.02601 0.57252 0.0
C1026 C 0.08261 0.93482 0.55559 0.0
C1027 C 0.10188 0.91532 0.56514 0.0
C1028 C 0.095 0.89075 0.58469 0.0
C1029 C 0.06888 0.88575 0.5948 0.0
C1030 C 0.04887 0.90281 0.5823 0.0
C1031 C 0.05564 0.92701 0.5626 0.0
C1032 C 0.113 0.08576 0.56719 0.0
C1033 C 0.1016 0.04124 0.65399 0.0
C1034 C 0.05214 0.13467 0.62861 0.0
Eu1035 Eu 0.06173 0.07409 0.60681 0.0
C1036 C 0.06677 0.16566 0.61942 0.0
C1037 C 0.0517 0.18558 0.60244 0.0
C1038 C 0.06381 0.20426 0.58039 0.0
C1039 C 0.091 0.20305 0.5752 0.0
C1040 C 0.10703 0.18693 0.59543 0.0
C1041 C 0.095 0.16836 0.6175 0.0
C1042 C 1.02657 1.01633 0.61494 0.0
C1043 C 0.03626 0.05686 0.52584 0.0
O1044 O 0.07349 0.98188 0.53242 0.0
O1045 O 0.10677 0.99026 0.57226 0.0
O1046 O 0.10086 0.06222 0.54268 0.0
O1047 O 0.10468 0.07782 0.59343 0.0
O1048 O 0.09693 1.01806 0.62588 0.0
O1049 O 0.09071 0.06884 0.65265 0.0
O1050 O 0.06679 0.11869 0.64664 0.0
O1051 O 0.03694 0.11369 0.60363 0.0
O1052 O 0.03796 0.04193 0.63789 0.0
O1053 O 0.03542 1.0211 0.58777 0.0
O1054 O 0.04099 0.08009 0.55383 0.0
O1055 O 0.04793 0.02984 0.52707 0.0
H1056 H 0.12283 0.92133 0.56021 0.0
H1057 H 0.11063 0.87754 0.59395 0.0
H1058 H 1.02875 0.8999 0.59018 0.0
H1059 H 0.04049 0.94203 0.55584 0.0
H1060 H 1.02994 0.18372 0.60346 0.0
H1061 H 0.05141 0.21772 0.56574 0.0
H1062 H 0.12819 0.18626 0.59222 0.0
H1063 H 0.10719 0.15317 0.63022 0.0
C1064 C 0.27923 0.74979 0.76435 0.0
Eu1065 Eu 0.30403 0.78274 0.82157 0.0
C1066 C 0.24966 0.74228 0.7536 0.0
C1067 C 0.23191 0.73677 0.77717 0.0
C1068 C 0.20396 0.7343 0.76911 0.0
C1069 C 0.1926 0.7356 0.73672 0.0
C1070 C 0.21061 0.74154 0.71323 0.0
C1071 C 0.23889 0.74469 0.72151 0.0
C1072 C 0.27713 0.78208 0.87649 0.0
C1073 C 0.28958 0.85957 0.85092 0.0
C1074 C 0.36287 0.84776 0.94154 0.0
Eu1075 Eu 0.33766 0.81717 0.88396 0.0
C1076 C 0.39242 0.8524 0.9517 0.0
C1077 C 0.40751 0.88548 0.96353 0.0
C1078 C 0.43588 0.89171 0.9654 0.0
C1079 C 0.44961 0.86469 0.95595 0.0
C1080 C 0.43469 0.83113 0.94617 0.0
C1081 C 0.40629 0.82507 0.94365 0.0
C1082 C 0.36569 0.81925 0.83173 0.0
C1083 C 0.35314 0.74136 0.85184 0.0
O1084 O 0.29057 0.78232 0.76923 0.0
O1085 O 0.2873 0.73442 0.78836 0.0
O1086 O 0.26587 0.78317 0.8471 0.0
O1087 O 0.30116 0.7772 0.87411 0.0
O1088 O 0.28598 0.83424 0.82433 0.0
O1089 O 0.30757 0.85711 0.87693 0.0
O1090 O 0.34923 0.81624 0.93644 0.0
O1091 O 0.3564 0.8641 0.91775 0.0
O1092 O 0.3764 0.8176 0.86116 0.0
O1093 O 0.34106 0.82299 0.83167 0.0
O1094 O 0.35509 0.76515 0.87942 0.0
O1095 O 0.33606 0.74479 0.82558 0.0
H1096 H 0.23965 0.73539 0.80236 0.0
H1097 H 0.19166 0.73278 0.78903 0.0
H1098 H 0.20303 0.74467 0.68866 0.0
H1099 H 0.25233 0.74992 0.70322 0.0
H1100 H 0.39737 0.90664 0.97079 0.0
H1101 H 0.44703 0.91771 0.97355 0.0
H1102 H 0.44494 0.80961 0.94005 0.0
H1103 H 0.39523 0.79921 0.93426 0.0
C1104 C 0.62855 0.14209 0.14944 0.0
Eu1105 Eu 0.60226 0.08247 0.11925 0.0
C1106 C 0.65817 0.15538 0.15634 0.0
C1107 C 0.67578 0.13468 0.16776 0.0
C1108 C 0.7038 0.14637 0.17379 0.0
C1109 C 0.71532 0.17914 0.16859 0.0
C1110 C 0.69752 0.20019 0.15766 0.0
C1111 C 0.66922 0.18804 0.15088 0.0
C1112 C 0.62756 1.02663 0.11622 0.0
C1113 C 0.61269 0.04998 0.04184 0.0
C1114 C 0.53584 0.95697 0.07139 0.0
Eu1115 Eu 0.56605 1.01722 0.08641 0.0
C1116 C 0.50596 0.94986 0.06331 0.0
C1117 C 0.49306 0.96769 0.04133 0.0
C1118 C 0.46468 0.96399 0.03646 0.0
C1119 C 0.44871 0.94252 0.05349 0.0
C1120 C 0.46159 0.92506 0.0758 0.0
C1121 C 0.49004 0.92859 0.08055 0.0
C1122 C 0.54612 0.07338 0.07219 0.0
C1123 C 0.54993 0.05285 0.16025 0.0
O1124 O 0.61751 0.13653 0.11819 0.0
O1125 O 0.62001 0.11714 0.16496 0.0
O1126 O 0.63981 0.05737 0.11571 0.0
O1127 O 0.60358 1.02816 0.12208 0.0
O1128 O 0.61456 0.07867 0.06467 0.0
O1129 O 0.59694 1.02139 0.04694 0.0
O1130 O 0.54495 0.9717 0.10204 0.0
O1131 O 0.54945 0.9709 0.05009 0.0
O1132 O 0.54204 0.04428 0.05197 0.0
O1133 O 0.55897 0.06985 0.0988 0.0
O1134 O 0.54323 1.02753 0.13363 0.0
O1135 O 0.57235 0.0766 0.16041 0.0
H1136 H 0.66801 0.10904 0.17169 0.0
H1137 H 0.71636 0.12903 0.18193 0.0
H1138 H 0.70515 0.22616 0.15472 0.0
H1139 H 0.65598 0.20405 0.14134 0.0
H1140 H 0.50484 0.98479 0.0281 0.0
H1141 H 0.45521 0.97768 1.01914 0.0
H1142 H 0.4497 0.90909 0.08996 0.0
H1143 H 0.49964 0.9154 0.09824 0.0
C1144 C 0.38806 0.35579 0.38866 0.0
Eu1145 Eu 0.33983 0.31993 0.36778 0.0
C1146 C 0.40955 0.35255 0.36684 0.0
C1147 C 0.43107 0.33573 0.37544 0.0
C1148 C 0.4439 0.31895 0.35062 0.0
C1149 C 0.43463 0.31758 0.31675 0.0
C1150 C 0.41545 0.33803 0.30878 0.0
C1151 C 0.40356 0.35585 0.33349 0.0
C1152 C 0.30564 0.28311 0.40275 0.0
C1153 C 0.35627 0.24151 0.34091 0.0
C1154 C 0.25575 0.24022 0.29368 0.0
Eu1155 Eu 0.30251 0.27644 0.32319 0.0
C1156 C 0.22888 0.25087 0.29197 0.0
C1157 C 0.22579 0.28198 0.28164 0.0
C1158 C 0.2069 0.30072 0.2946 0.0
C1159 C 0.19156 0.28875 0.3182 0.0
C1160 C 0.19127 0.25519 0.32392 0.0
C1161 C 0.20964 0.23608 0.31044 0.0
C1162 C 0.33835 0.31179 0.28924 0.0
C1163 C 0.28641 0.35555 0.35131 0.0
O1164 O 0.3678 0.36951 0.37755 0.0
O1165 O 0.37918 0.32791 0.39966 0.0
O1166 O 0.31514 0.31591 0.41078 0.0
O1167 O 0.31448 0.27129 0.37617 0.0
O1168 O 0.36483 0.27405 0.35672 0.0
O1169 O 0.33075 0.2348 0.32509 0.0
O1170 O 0.26614 0.23877 0.32375 0.0
O1171 O 0.27394 0.2553 0.27766 0.0
O1172 O 0.33059 0.27864 0.28339 0.0
O1173 O 0.32819 0.32439 0.3145 0.0
O1174 O 0.27876 0.32439 0.3318 0.0
O1175 O 0.31057 0.36038 0.3702 0.0
H1176 H 0.43632 0.33299 0.40097 0.0
H1177 H 0.45999 0.30561 0.35808 0.0
H1178 H 0.40782 0.33832 0.28326 0.0
H1179 H 0.38737 0.36899 0.32577 0.0
H1180 H 0.23999 0.2938 0.26686 0.0
H1181 H 0.20638 0.32603 0.28913 0.0
H1182 H 0.17899 0.24528 0.34162 0.0
H1183 H 0.21136 0.21194 0.31833 0.0
C1184 C 0.59069 0.46446 0.06 0.0
Eu1185 Eu 0.57882 0.52465 0.07786 0.0
C1186 C 0.58308 0.43657 0.07781 0.0
C1187 C 0.59165 0.405 0.07087 0.0
C1188 C 0.58213 0.37869 0.08766 0.0
C1189 C 0.56409 0.38418 0.11116 0.0
C1190 C 0.55648 0.41613 0.11876 0.0
C1191 C 0.56595 0.44208 0.10224 0.0
C1192 C 0.61361 0.58364 0.07193 0.0
C1193 C 0.60161 0.54403 0.15933 0.0
C1194 C 0.54658 0.63418 0.13483 0.0
Eu1195 Eu 0.56174 0.57666 0.11195 0.0
C1196 C 0.53586 0.65915 0.11739 0.0
C1197 C 0.52035 0.64786 0.08585 0.0
C1198 C 0.522 0.66882 0.06201 0.0
C1199 C 0.5387 0.70127 0.0701 0.0
C1200 C 0.54981 0.71473 0.1033 0.0
C1201 C 0.54845 0.69361 0.12696 0.0
C1202 C 0.5279 0.51725 0.11832 0.0
C1203 C 0.53877 0.55736 0.02989 0.0
O1204 O 0.56976 0.47451 0.04545 0.0
O1205 O 0.60845 0.49018 0.07733 0.0
O1206 O 0.60325 0.55843 0.04791 0.0
O1207 O 0.60446 0.57691 0.0983 0.0
O1208 O 0.59457 0.51902 0.13281 0.0
O1209 O 0.59297 0.57296 0.15651 0.0
O1210 O 0.5717 0.63163 0.13056 0.0
O1211 O 0.53098 0.60425 0.13167 0.0
O1212 O 0.53977 0.5415 0.14266 0.0
O1213 O 0.53641 0.52407 0.09162 0.0
O1214 O 0.54212 0.58048 0.0579 0.0
O1215 O 0.55095 0.53062 0.0312 0.0
H1216 H 0.60495 0.40051 0.05212 0.0
H1217 H 0.58787 0.3538 0.08143 0.0
H1218 H 0.54245 0.42062 0.13667 0.0
H1219 H 0.55905 0.46622 0.10775 0.0
H1220 H 0.5099 0.6216 0.07827 0.0
H1221 H 0.51305 0.6582 0.03657 0.0
H1222 H 0.5624 0.74012 0.10996 0.0
H1223 H 0.56031 0.70284 0.15128 0.0
C1224 C 0.76712 0.24474 0.25714 0.0
Eu1225 Eu 0.79574 0.27636 0.31244 0.0
C1226 C 0.73745 0.24122 0.24598 0.0
C1227 C 0.71947 0.21163 0.24952 0.0
C1228 C 0.69124 0.20931 0.24302 0.0
C1229 C 0.68023 0.23672 0.23328 0.0
C1230 C 0.69808 0.26588 0.2285 0.0
C1231 C 0.72647 0.26812 0.23479 0.0
C1232 C 0.76926 0.28126 0.36736 0.0
C1233 C 0.78717 0.35653 0.34482 0.0
C1234 C 0.86079 0.32977 0.43228 0.0
Eu1235 Eu 0.83228 0.31157 0.37386 0.0
C1236 C 0.88939 0.32829 0.4432 0.0
C1237 C 0.90823 0.35885 0.4551 0.0
C1238 C 0.93603 0.3581 0.46132 0.0
C1239 C 0.94537 0.32685 0.45493 0.0
C1240 C 0.92655 0.29625 0.44371 0.0
C1241 C 0.89873 0.29697 0.43825 0.0
C1242 C 0.85447 0.32186 0.31718 0.0
C1243 C 0.84584 0.23415 0.34067 0.0
O1244 O 0.78247 0.27531 0.25997 0.0
O1245 O 0.773 0.22924 0.28202 0.0
O1246 O 0.75791 0.28045 0.33764 0.0
O1247 O 0.79312 0.27539 0.36564 0.0
O1248 O 0.78527 0.33314 0.31669 0.0
O1249 O 0.80258 0.35135 0.37156 0.0
O1250 O 0.84387 0.30048 0.42298 0.0
O1251 O 0.85759 0.3509 0.41188 0.0
O1252 O 0.85833 0.34444 0.34425 0.0
O1253 O 0.83992 0.29536 0.32251 0.0
O1254 O 0.85186 0.26126 0.36576 0.0
O1255 O 0.82502 0.23452 0.31694 0.0
H1256 H 0.7272 0.19033 0.25789 0.0
H1257 H 0.67801 0.18596 0.24563 0.0
H1258 H 0.69009 0.28724 0.22066 0.0
H1259 H 0.73971 0.29129 0.23177 0.0
H1260 H 0.90148 0.38333 0.45897 0.0
H1261 H 0.95028 0.38202 0.47022 0.0
H1262 H 0.93339 0.27189 0.43891 0.0
H1263 H 0.88461 0.27316 0.42922 0.0
C1264 C 0.13642 0.63109 0.64468 0.0
Eu1265 Eu 0.10069 0.57789 0.6143 0.0
C1266 C 0.16579 0.64365 0.64597 0.0
C1267 C 0.18491 0.62218 0.64978 0.0
C1268 C 0.21271 0.63474 0.65053 0.0
C1269 C 0.22204 0.66909 0.64763 0.0
C1270 C 0.20246 0.68971 0.64184 0.0
C1271 C 0.1747 0.67734 0.64165 0.0
C1272 C 0.11427 0.51521 0.5997 0.0
C1273 C 0.10692 0.5527 0.53319 0.0
C1274 C 1.02193 0.46991 0.54197 0.0
Eu1275 Eu 0.05467 0.52453 0.57396 0.0
C1276 C 0.99218 0.45801 0.54035 0.0
C1277 C 0.97394 0.46678 0.51609 0.0
C1278 C 0.94583 0.45837 0.51609 0.0
C1279 C 0.93542 0.44071 0.54002 0.0
C1280 C 0.95335 0.43085 0.56366 0.0
C1281 C 0.98159 0.43967 0.56398 0.0
C1282 C 0.03935 0.58682 0.58817 0.0
C1283 C 0.04637 0.54903 0.65379 0.0
O1284 O 0.12152 0.63049 0.61635 0.0
O1285 O 0.12898 0.60413 0.65819 0.0
O1286 O 0.13154 0.54369 0.60444 0.0
O1287 O 0.09142 0.52139 0.60706 0.0
O1288 O 0.11601 0.57536 0.56152 0.0
O1289 O 0.0838 0.53019 0.5325 0.0
O1290 O 0.03707 0.47056 0.57022 0.0
O1291 O 1.02917 0.49705 0.52868 0.0
O1292 O 1.02253 0.55779 0.58012 0.0
O1293 O 0.06312 0.58173 0.58266 0.0
O1294 O 0.03672 0.52736 0.62502 0.0
O1295 O 0.07094 0.56943 0.65562 0.0
H1296 H 0.17841 0.59564 0.65199 0.0
H1297 H 0.22668 0.6171 0.6528 0.0
H1298 H 0.20851 0.71584 0.63832 0.0
H1299 H 0.16014 0.69412 0.63801 0.0
H1300 H 0.98135 0.48085 0.4975 0.0
H1301 H 0.93219 0.46605 0.49764 0.0
H1302 H 0.94552 0.41732 0.58241 0.0
H1303 H 0.99508 0.43272 0.58312 0.0
C1304 C 0.89793 0.7701 0.34293 0.0
Eu1305 Eu 0.84751 0.77992 0.34826 0.0
C1306 C 0.92283 0.78072 0.32724 0.0
C1307 C 0.94462 0.76275 0.32995 0.0
C1308 C 0.96788 0.77071 0.3142 0.0
C1309 C 0.97006 0.79689 0.29506 0.0
C1310 C 0.94843 0.81554 0.29311 0.0
C1311 C 0.92506 0.80746 0.30886 0.0
C1312 C 0.80423 0.72853 0.359 0.0
C1313 C 0.80989 0.77487 0.27686 0.0
C1314 C 0.74519 0.82009 0.35307 0.0
Eu1315 Eu 0.79581 0.81218 0.34685 0.0
C1316 C 0.72156 0.81109 0.37182 0.0
C1317 C 0.71864 0.83257 0.40137 0.0
C1318 C 0.69477 0.82704 0.41656 0.0
C1319 C 0.67284 0.80004 0.40258 0.0
C1320 C 0.6762 0.77765 0.37384 0.0
C1321 C 0.70011 0.7832 0.35858 0.0
C1322 C 0.83882 0.86317 0.33544 0.0
C1323 C 0.83466 0.82147 0.4175 0.0
O1324 O 0.89153 0.79207 0.36661 0.0
O1325 O 0.87626 0.75243 0.32336 0.0
O1326 O 0.82988 0.72636 0.35895 0.0
O1327 O 0.8031 0.75949 0.35464 0.0
O1328 O 0.83363 0.77222 0.29275 0.0
O1329 O 0.79124 0.78826 0.29237 0.0
O1330 O 0.75152 0.79608 0.33128 0.0
O1331 O 0.76691 0.84149 0.369 0.0
O1332 O 0.81309 0.86528 0.33489 0.0
O1333 O 0.84017 0.8324 0.34022 0.0
O1334 O 0.81021 0.82165 0.402 0.0
O1335 O 0.85328 0.80799 0.40191 0.0
H1336 H 0.94348 0.74199 0.34392 0.0
H1337 H 0.98387 0.75562 0.31626 0.0
H1338 H 0.94948 0.8364 0.27931 0.0
H1339 H 0.90865 0.82185 0.3064 0.0
H1340 H 0.73451 0.85442 0.41235 0.0
H1341 H 0.69325 0.84447 0.43899 0.0
H1342 H 0.6598 0.75666 0.36226 0.0
H1343 H 0.70136 0.76625 0.33573 0.0
C1344 C 0.80355 0.3321 0.93941 0.0
Eu1345 Eu 0.814 0.31602 0.87878 0.0
C1346 C 0.80988 0.31637 0.96861 0.0
C1347 C 0.83588 0.32616 0.98755 0.0
C1348 C 0.84424 0.30681 1.01054 0.0
C1349 C 0.82639 0.27812 1.01607 0.0
C1350 C 0.79969 0.26975 0.99898 0.0
C1351 C 0.79152 0.28861 0.97527 0.0
C1352 C 0.77979 0.32765 0.82614 0.0
C1353 C 0.78929 0.23172 0.85519 0.0
C1354 C 0.835 0.2723 0.76041 0.0
Eu1355 Eu 0.8288 0.28549 0.82257 0.0
C1356 C 0.82441 0.2922 0.73695 0.0
C1357 C 0.82542 0.28436 0.7028 0.0
C1358 C 0.81369 0.30374 0.68168 0.0
C1359 C 0.8012 0.33097 0.69487 0.0
C1360 C 0.80014 0.33842 0.72889 0.0
C1361 C 0.81151 0.31906 0.74963 0.0
C1362 C 0.8631 0.27298 0.87472 0.0
C1363 C 0.8551 0.36903 0.847 0.0
O1364 O 0.82456 0.34769 0.92804 0.0
O1365 O 0.78563 0.31324 0.91552 0.0
O1366 O 0.79086 0.35035 0.852 0.0
O1367 O 0.78781 0.2997 0.82878 0.0
O1368 O 0.79488 0.25846 0.88024 0.0
O1369 O 0.79957 0.23622 0.82757 0.0
O1370 O 0.81591 0.25455 0.7731 0.0
O1371 O 0.85457 0.28979 0.78321 0.0
O1372 O 0.85336 0.25144 0.84752 0.0
O1373 O 0.85485 0.30104 0.87293 0.0
O1374 O 0.84768 0.34315 0.82142 0.0
O1375 O 0.84631 0.36374 0.8753 0.0
H1376 H 0.8503 0.34782 0.98347 0.0
H1377 H 0.865 0.31374 1.0233 0.0
H1378 H 0.78532 0.24837 1.00369 0.0
H1379 H 0.77119 0.28073 0.96138 0.0
H1380 H 0.835 0.26341 0.6926 0.0
H1381 H 0.81455 0.29776 0.65524 0.0
H1382 H 0.79023 0.35896 0.73938 0.0
H1383 H 0.80985 0.32481 0.7757 0.0
C1384 C 0.88066 0.85653 0.90683 0.0
Eu1385 Eu 0.83717 0.81828 0.87106 0.0
C1386 C 0.90766 0.86268 0.89559 0.0
C1387 C 0.9275 0.84432 0.90626 0.0
C1388 C 0.94672 0.83584 0.88572 0.0
C1389 C 0.94641 0.84607 0.85467 0.0
C1390 C 0.92917 0.86851 0.84632 0.0
C1391 C 0.91022 0.87728 0.86695 0.0
C1392 C 0.79946 0.78024 0.90166 0.0
C1393 C 0.8573 0.74326 0.84212 0.0
C1394 C 0.75803 0.74186 0.79164 0.0
Eu1395 Eu 0.8035 0.77808 0.82423 0.0
C1396 C 0.73106 0.74433 0.80243 0.0
C1397 C 0.71552 0.76684 0.78992 0.0
C1398 C 0.69679 0.78059 0.80851 0.0
C1399 C 0.69334 0.77192 0.83967 0.0
C1400 C 0.70654 0.7465 0.85026 0.0
C1401 C 0.72482 0.73234 0.83152 0.0
C1402 C 0.841 0.81399 0.79227 0.0
C1403 C 0.78497 0.85466 0.85275 0.0
O1404 O 0.86161 0.86896 0.8913 0.0
O1405 O 0.87201 0.82489 0.9097 0.0
O1406 O 0.80734 0.81315 0.90903 0.0
O1407 O 0.8105 0.76918 0.87677 0.0
O1408 O 0.86507 0.77547 0.85919 0.0
O1409 O 0.83211 0.73678 0.82548 0.0
O1410 O 0.77457 0.72956 0.81124 0.0
O1411 O 0.77055 0.76931 0.78267 0.0
O1412 O 0.8327 0.78103 0.786 0.0
O1413 O 0.83085 0.82654 0.81765 0.0
O1414 O 0.77678 0.82269 0.83526 0.0
O1415 O 0.80984 0.86024 0.86963 0.0
H1416 H 0.92609 0.83308 0.9284 0.0
H1417 H 0.96037 0.81911 0.89289 0.0
H1418 H 0.92847 0.8767 0.82248 0.0
H1419 H 0.8955 0.89199 0.85819 0.0
H1420 H 0.71971 0.77631 0.76743 0.0
H1421 H 0.68624 0.79951 0.79951 0.0
H1422 H 0.70448 0.73943 0.87431 0.0
H1423 H 0.73613 0.71475 0.84181 0.0
C1424 C 0.63614 0.60219 0.65012 0.0
Eu1425 Eu 0.59059 0.56746 0.61593 0.0
C1426 C 0.6627 0.60457 0.63733 0.0
C1427 C 0.68222 0.58769 0.6514 0.0
C1428 C 0.69916 0.572 0.63142 0.0
C1429 C 0.6972 0.57385 0.59747 0.0
C1430 C 0.68171 0.59637 0.5853 0.0
C1431 C 0.66436 0.61156 0.60507 0.0
C1432 C 0.54379 0.56138 0.65109 0.0
C1433 C 0.59351 0.48868 0.61939 0.0
C1434 C 0.51291 0.49708 0.5413 0.0
Eu1435 Eu 0.55918 0.52718 0.576 0.0
C1436 C 0.4876 0.50679 0.55206 0.0
C1437 C 0.47285 0.52521 0.53268 0.0
C1438 C 0.45975 0.5505 0.548 0.0
C1439 C 0.46146 0.55777 0.58287 0.0
C1440 C 0.47227 0.53546 0.60134 0.0
C1441 C 0.48491 0.5099 0.58605 0.0
C1442 C 0.60604 0.53373 0.54099 0.0
C1443 C 0.55623 0.60384 0.57049 0.0
O1444 O 0.61783 0.61681 0.63588 0.0
O1445 O 0.62574 0.57119 0.65328 0.0
O1446 O 0.56008 0.58918 0.64853 0.0
O1447 O 0.55175 0.537 0.63183 0.0
O1448 O 0.60822 0.51975 0.62565 0.0
O1449 O 0.57005 0.48414 0.60062 0.0
O1450 O 0.52666 0.4817 0.56111 0.0
O1451 O 0.52883 0.52202 0.53235 0.0
O1452 O 0.59 0.50568 0.54354 0.0
O1453 O 0.59784 0.55792 0.56019 0.0
O1454 O 0.54038 0.57452 0.57032 0.0
O1455 O 0.58126 0.60736 0.58507 0.0
H1456 H 0.68156 0.58224 0.67628 0.0
H1457 H 0.71165 0.55547 0.64159 0.0
H1458 H 0.68067 0.59914 0.55954 0.0
H1459 H 0.64988 0.62496 0.59356 0.0
H1460 H 0.47426 0.52304 0.50636 0.0
H1461 H 0.44993 0.56583 0.53273 0.0
H1462 H 0.47309 0.53958 0.62803 0.0
H1463 H 0.4956 0.49573 0.60179 0.0
C1464 C 0.99279 0.56163 0.11765 0.0
Eu1465 Eu 0.04197 0.54941 0.10734 0.0
C1466 C 0.96786 0.57533 0.10576 0.0
C1467 C 0.95657 0.59719 0.12865 0.0
C1468 C 0.93223 0.60888 0.11945 0.0
C1469 C 0.91817 0.59935 0.08683 0.0
C1470 C 0.93006 0.57826 0.06358 0.0
C1471 C 0.95426 0.5661 0.07299 0.0
C1472 C 0.08252 0.53604 0.15615 0.0
C1473 C 0.08856 0.61794 0.11957 0.0
C1474 C 0.14619 0.53477 0.06666 0.0
Eu1475 Eu 0.0969 0.54704 0.07613 0.0
C1476 C 0.17119 0.52217 0.08047 0.0
C1477 C 0.19717 0.54326 0.08448 0.0
C1478 C 0.22127 0.53094 0.09345 0.0
C1479 C 0.22046 0.49697 0.09896 0.0
C1480 C 0.19438 0.47587 0.0952 0.0
C1481 C 0.17019 0.48822 0.08616 0.0
C1482 C 0.05603 0.56031 0.02718 0.0
C1483 C 0.0514 0.47827 0.06571 0.0
O1484 O 0.99729 0.53216 0.10249 0.0
O1485 O 1.01555 0.58355 0.12841 0.0
O1486 O 0.05681 0.53644 0.15881 0.0
O1487 O 0.08449 0.54045 0.12615 0.0
O1488 O 0.06213 0.6051 0.1153 0.0
O1489 O 0.10674 0.59979 0.10886 0.0
O1490 O 0.14155 0.56493 0.07979 0.0
O1491 O 0.12345 0.51254 0.0566 0.0
O1492 O 0.08151 0.55864 1.02412 0.0
O1493 O 0.05431 0.55607 0.0573 0.0
O1494 O 0.07779 0.49128 0.07197 0.0
O1495 O 0.03282 0.49707 0.07359 0.0
H1496 H 0.96636 0.60476 0.15415 0.0
H1497 H 0.92406 0.62479 0.13834 0.0
H1498 H 0.92075 0.57106 0.03792 0.0
H1499 H 0.96214 0.54924 0.05463 0.0
H1500 H 0.19895 0.56922 0.07967 0.0
H1501 H 0.24072 0.54794 0.09496 0.0
H1502 H 0.19263 0.44963 0.09914 0.0
H1503 H 0.15071 0.47089 0.08301 0.0
C1504 C 1.01689 0.15455 1.0116 0.0
C1505 C 1.03044 0.18903 1.02122 0.0
C1506 C 1.02424 0.12838 0.02828 0.0
C1507 C 0.04595 0.13529 0.05481 0.0
H1508 H 1.00033 0.14773 0.99116 0.0
H1509 H 1.01328 0.10235 1.01972 0.0
S1510 S 0.08805 0.2211 0.08991 0.0
N1511 N 0.06647 0.22835 0.05974 0.0
N1512 N 0.08056 0.17953 0.08996 0.0
C1513 C 0.05957 0.1696 0.06462 0.0
C1514 C 0.05177 0.19627 0.04818 0.0
C1515 C 0.21791 0.80641 0.2515 0.0
C1516 C 0.20237 0.83197 0.26113 0.0
C1517 C 0.24282 0.80425 0.27062 0.0
C1518 C 0.25391 0.82805 0.29999 0.0
H1519 H 0.21029 0.78707 0.2295 0.0
H1520 H 0.25342 0.78363 0.26234 0.0
S1521 S 0.22239 0.90137 0.33521 0.0
N1522 N 0.2007 0.88211 0.30189 0.0
N1523 N 0.24741 0.87916 0.33667 0.0
C1524 C 0.23899 0.85441 0.3092 0.0
C1525 C 0.21336 0.85605 0.29021 0.0
C1526 C 0.50923 0.89995 0.50442 0.0
C1527 C 0.52435 0.87386 0.50881 0.0
C1528 C 0.5156 0.93239 0.52552 0.0
C1529 C 0.53784 0.94039 0.55127 0.0
H1530 H 0.49245 0.89536 0.48437 0.0
H1531 H 0.50376 0.95182 0.52069 0.0
S1532 S 0.58385 0.88129 0.57338 0.0
N1533 N 0.56217 0.85826 0.54158 0.0
N1534 N 0.57467 0.91923 0.58018 0.0
C1535 C 0.5529 0.91444 0.55608 0.0
C1536 C 0.54602 0.88123 0.53519 0.0
C1537 C 0.51426 0.30072 0.72396 0.0
C1538 C 0.54149 0.31115 0.74016 0.0
C1539 C 0.49154 0.29804 0.74163 0.0
C1540 C 0.49462 0.30555 0.7766 0.0
H1541 H 0.51027 0.29379 0.69714 0.0
H1542 H 0.47135 0.28898 0.72763 0.0
S1543 S 0.56092 0.33688 0.83158 0.0
N1544 N 0.56974 0.3309 0.79382 0.0
N1545 N 0.52721 0.32626 0.8268 0.0
C1546 C 0.52158 0.317 0.79324 0.0
C1547 C 0.54484 0.31975 0.77518 0.0
C1548 C 0.07749 0.86018 0.6789 0.0
C1549 C 0.05391 0.83528 0.67756 0.0
C1550 C 0.08232 0.87587 0.65168 0.0
C1551 C 0.06376 0.86729 0.62222 0.0
H1552 H 0.09277 0.86696 0.70069 0.0
H1553 H 0.10071 0.89501 0.65379 0.0
S1554 S 0.99773 0.8063 0.60669 0.0
N1555 N 1.01055 0.80499 0.64498 0.0
N1556 N 1.02039 0.83395 0.59353 0.0
C1557 C 0.03964 0.84352 0.62084 0.0
C1558 C 0.0345 0.82773 0.64862 0.0
C1559 C 0.52362 0.89201 0.99256 0.0
C1560 C 0.53713 0.87628 0.96794 0.0
C1561 C 0.49529 0.88948 0.98768 0.0
C1562 C 0.47962 0.8712 0.95805 0.0
H1563 H 0.53487 0.90427 1.01655 0.0
H1564 H 0.48528 0.89967 1.00803 0.0
S1565 S 0.5053 0.82501 0.88591 0.0
N1566 N 0.53287 0.84085 0.91324 0.0
N1567 N 0.4796 0.83832 0.90302 0.0
C1568 C 0.49301 0.85661 0.93256 0.0
C1569 C 0.52185 0.85862 0.93777 0.0
C1570 C 0.52036 0.14968 0.10381 0.0
C1571 C 0.50074 0.13544 0.12235 0.0
C1572 C 0.53204 0.12878 0.08103 0.0
C1573 C 0.52422 0.0931 0.0759 0.0
H1574 H 0.52862 0.17694 0.10913 0.0
H1575 H 0.54959 0.14032 0.0707 0.0
S1576 S 0.46841 0.04415 0.11119 0.0
N1577 N 0.47069 0.0843 0.12995 0.0
N1578 N 0.49149 0.04487 0.08525 0.0
C1579 C 0.50168 0.07905 0.09039 0.0
C1580 C 0.49049 0.10023 0.11461 0.0
C1581 C 0.14634 0.34707 0.35581 0.0
C1582 C 0.15482 0.34968 0.39008 0.0
C1583 C 0.15911 0.32864 0.33201 0.0
C1584 C 0.18097 0.31306 0.34197 0.0
H1585 H 0.12834 0.35667 0.34728 0.0
H1586 H 0.15085 0.3248 0.306 0.0
S1587 S 0.21666 0.32231 0.42741 0.0
N1588 N 0.19042 0.34209 0.43195 0.0
N1589 N 0.21473 0.30823 0.38713 0.0
C1590 C 0.19204 0.31971 0.37563 0.0
C1591 C 0.17898 0.33807 0.39977 0.0
C1592 C 1.00633 0.08557 0.23007 0.0
C1593 C 0.98689 0.05633 0.23345 0.0
C1594 C 1.02292 0.08672 0.20304 0.0
C1595 C 1.02286 0.05836 0.17688 0.0
H1596 H 1.00876 0.10855 0.24871 0.0
H1597 H 0.03653 0.11064 0.2031 0.0
S1598 S 0.97801 0.97344 0.17367 0.0
N1599 N 0.96992 0.99713 0.20662 0.0
N1600 N 1.00149 0.99854 0.15878 0.0
C1601 C 1.00405 1.02854 0.18035 0.0
C1602 C 0.98634 1.02774 0.20734 0.0
C1603 C 0.38927 0.79225 0.58282 0.0
C1604 C 0.38568 0.75746 0.56722 0.0
C1605 C 0.38255 0.81732 0.56512 0.0
C1606 C 0.37285 0.80851 0.53123 0.0
H1607 H 0.39474 0.79979 0.60947 0.0
H1608 H 0.38298 0.84302 0.57841 0.0
S1609 S 0.36552 0.72329 0.47745 0.0
N1610 N 0.37615 0.71703 0.51496 0.0
N1611 N 0.36336 0.76432 0.48163 0.0
C1612 C 0.37211 0.77488 0.51462 0.0
C1613 C 0.37871 0.74928 0.53265 0.0
C1614 C 0.64923 0.03709 0.72347 0.0
C1615 C 0.64002 1.02631 0.75262 0.0
C1616 C 0.63089 0.03898 0.69406 0.0
C1617 C 0.60172 0.03053 0.6914 0.0
H1618 H 0.67101 0.04472 0.7234 0.0
H1619 H 0.63982 0.04798 0.6735 0.0
S1620 S 0.56598 0.99971 0.75923 0.0
N1621 N 0.59857 1.00617 0.77484 0.0
N1622 N 0.56541 1.00991 0.72194 0.0
C1623 C 0.59251 1.01936 0.7202 0.0
C1624 C 0.611 1.01723 0.74973 0.0
C1625 C 0.33421 0.3877 0.99639 0.0
C1626 C 0.35425 0.38026 1.01946 0.0
C1627 C 0.32757 0.36862 0.9639 0.0
C1628 C 0.34115 0.3417 0.95249 0.0
H1629 H 0.32351 0.40856 1.00351 0.0
H1630 H 0.31208 0.37577 0.94727 0.0
S1631 S 0.39591 0.31242 1.00271 0.0
N1632 N 0.38775 0.34399 0.02855 0.0
N1633 N 0.37594 0.30889 0.9672 0.0
C1634 C 0.36141 0.3341 0.97523 0.0
C1635 C 0.36773 0.35308 1.00871 0.0
C1636 C 1.00309 0.04544 0.43105 0.0
C1637 C 0.98123 0.06427 0.43095 0.0
C1638 C 1.02033 0.0433 0.46095 0.0
C1639 C 1.0178 0.06055 0.49336 0.0
H1640 H 1.00643 0.031 0.40774 0.0
H1641 H 0.03597 1.02767 0.45849 0.0
S1642 S 0.9645 0.11407 0.5085 0.0
N1643 N 0.95855 0.10044 0.46789 0.0
N1644 N 0.99095 0.09788 0.52216 0.0
C1645 C 0.99645 0.08006 0.49349 0.0
C1646 C 0.97841 0.08145 0.46324 0.0
C1647 C 0.40343 0.76415 0.77689 0.0
C1648 C 0.39503 0.77075 0.74545 0.0
C1649 C 0.39536 0.78206 0.80513 0.0
C1650 C 0.3774 0.80551 0.80238 0.0
H1651 H 0.41555 0.74445 0.77954 0.0
H1652 H 0.40196 0.77595 0.82904 0.0
S1653 S 0.35088 0.8326 0.72544 0.0
N1654 N 0.36981 0.80412 0.71312 0.0
N1655 N 0.35285 0.83568 0.76615 0.0
C1656 C 0.36959 0.81297 0.77117 0.0
C1657 C 0.37881 0.79596 0.74264 0.0
C1658 C 0.63503 0.03053 0.95016 0.0
C1659 C 0.66362 0.04438 0.95321 0.0
C1660 C 0.61911 0.03244 0.97787 0.0
C1661 C 0.62992 0.0491 1.01119 0.0
H1662 H 0.6246 1.01761 0.92593 0.0
H1663 H 0.59762 1.0214 0.97271 0.0
S1664 S 0.7031 0.09124 0.03453 0.0
N1665 N 0.70144 0.0757 0.9946 0.0
N1666 N 0.67194 0.08102 0.0441 0.0
C1667 C 0.65819 0.06383 1.01437 0.0
C1668 C 0.67462 0.06096 0.98657 0.0
C1669 C 0.35207 0.38397 0.23699 0.0
C1670 C 0.35949 0.36702 0.20732 0.0
C1671 C 0.34593 0.36652 0.26363 0.0
C1672 C 0.34727 0.33135 0.2622 0.0
H1673 H 0.35015 0.41069 0.23928 0.0
H1674 H 0.33954 0.38062 0.28526 0.0
S1675 S 0.36957 0.27635 0.19234 0.0
N1676 N 0.37009 0.3135 0.17986 0.0
N1677 N 0.35941 0.2815 0.2294 0.0
C1678 C 0.35597 0.31473 0.23333 0.0
C1679 C 0.36181 0.33226 0.20618 0.0
C1680 C 0.23488 1.02233 0.0326 0.0
C1681 C 0.23182 0.98899 0.04019 0.0
C1682 C 0.22178 0.04718 0.04898 0.0
C1683 C 0.20505 0.03917 0.07301 0.0
H1684 H 0.24914 0.03018 1.01602 0.0
H1685 H 0.22599 0.07317 0.04425 0.0
S1686 S 0.18316 0.95302 0.09324 0.0
N1687 N 0.20587 0.9475 0.06745 0.0
N1688 N 0.18086 0.99401 0.09757 0.0
C1689 C 0.19901 1.00493 0.07743 0.0
C1690 C 0.21241 0.97981 0.06105 0.0
C1691 C 0.69196 0.61373 0.08181 0.0
C1692 C 0.6954 0.64158 0.06461 0.0
C1693 C 0.66564 0.59594 0.08503 0.0
C1694 C 0.64137 0.605 0.07112 0.0
H1695 H 0.70983 0.60571 0.09315 0.0
H1696 H 0.66431 0.57444 0.09802 0.0
S1697 S 0.63864 0.67621 1.02419 0.0
N1698 N 0.67176 0.67796 0.03464 0.0
N1699 N 0.6228 0.64382 0.03928 0.0
C1700 C 0.64452 0.63277 0.05394 0.0
C1701 C 0.67128 0.65133 0.05128 0.0
C1702 C 0.76254 0.44371 0.38195 0.0
C1703 C 0.74064 0.44936 0.35916 0.0
C1704 C 0.77687 0.41508 0.37674 0.0
C1705 C 0.77116 0.38847 0.34808 0.0
H1706 H 0.76917 0.46212 0.4048 0.0
H1707 H 0.79294 0.41388 0.39603 0.0
S1708 S 0.71589 0.38807 0.27913 0.0
N1709 N 0.71447 0.42333 0.30539 0.0
N1710 N 0.74052 0.37076 0.29602 0.0
C1711 C 0.74927 0.39342 0.32482 0.0
C1712 C 0.73452 0.42291 0.33015 0.0
C1713 C 0.86388 0.45689 0.54634 0.0
C1714 C 0.84793 0.42398 0.53603 0.0
C1715 C 0.89232 0.46214 0.54757 0.0
C1716 C 0.90579 0.43425 0.54091 0.0
H1717 H 0.85435 0.47871 0.55373 0.0
H1718 H 0.9039 0.4881 0.5541 0.0
S1719 S 0.87411 0.3422 0.52301 0.0
N1720 N 0.848 0.36262 0.52437 0.0
N1721 N 0.90187 0.37234 0.53007 0.0
C1722 C 0.89043 0.40093 0.53411 0.0
C1723 C 0.86136 0.39574 0.53115 0.0
C1724 C 0.38632 0.15371 0.3198 0.0
C1725 C 0.40895 0.15503 0.34482 0.0
C1726 C 0.37018 0.18078 0.31847 0.0
C1727 C 0.37503 0.21242 0.34184 0.0
H1728 H 0.38025 0.13067 0.3011 0.0
H1729 H 0.35329 0.1765 0.29863 0.0
S1730 S 0.43117 0.23089 0.4134 0.0
N1731 N 0.43398 0.19224 0.39467 0.0
N1732 N 0.40564 0.24216 0.39138 0.0
C1733 C 0.3978 0.2143 0.36676 0.0
C1734 C 0.41379 0.18633 0.36856 0.0
C1735 C 0.35732 0.15023 0.59583 0.0
C1736 C 0.33939 0.13593 0.56619 0.0
C1737 C 0.382 0.13836 0.60379 0.0
C1738 C 0.39011 0.1115 0.58261 0.0
H1739 H 0.35199 0.1703 0.6135 0.0
H1740 H 0.39456 0.14991 0.62721 0.0
S1741 S 0.35241 0.06756 0.50025 0.0
N1742 N 0.33299 0.09464 0.51445 0.0
N1743 N 0.37895 0.07299 0.52929 0.0
C1744 C 0.37282 0.0977 0.55249 0.0
C1745 C 0.34772 0.1097 0.54436 0.0
C1746 C 0.73744 0.66686 0.37682 0.0
C1747 C 0.74189 0.63264 0.36633 0.0
C1748 C 0.75648 0.69753 0.37415 0.0
C1749 C 0.78146 0.69648 0.3604 0.0
H1750 H 0.71905 0.67014 0.38772 0.0
H1751 H 0.75165 0.72232 0.38349 0.0
S1752 S 0.80119 0.61436 0.32327 0.0
N1753 N 0.77238 0.60121 0.33749 0.0
N1754 N 0.80729 0.65664 0.33317 0.0
C1755 C 0.78544 0.66241 0.34883 0.0
C1756 C 0.76615 0.63151 0.35144 0.0
C1757 C 0.91739 0.44722 0.86013 0.0
C1758 C 0.90945 0.47021 0.8396 0.0
C1759 C 0.89978 0.4159 0.86294 0.0
C1760 C 0.87356 0.40368 0.84392 0.0
H1761 H 0.93719 0.45411 0.87532 0.0
H1762 H 0.90689 0.40106 0.88049 0.0
S1763 S 0.84327 0.45128 0.78328 0.0
N1764 N 0.87296 0.47654 0.79853 0.0
N1765 N 0.8416 0.41765 0.80194 0.0
C1766 C 0.86591 0.42556 0.82207 0.0
C1767 C 0.88328 0.45828 0.82027 0.0
C1768 C 0.08066 0.90153 0.14299 0.0
C1769 C 0.10574 0.90023 0.16189 0.0
C1770 C 0.07624 0.93001 0.1288 0.0
C1771 C 0.09646 0.95963 0.1326 0.0
H1772 H 0.06382 0.87992 0.13867 0.0
H1773 H 0.05643 0.92853 0.11459 0.0
S1774 S 0.16557 0.97177 0.18124 0.0
N1775 N 0.15112 0.93257 0.18454 0.0
N1776 N 0.14266 0.98669 0.15834 0.0
C1777 C 0.12157 0.95958 0.15219 0.0
C1778 C 0.1262 0.92999 0.16673 0.0
C1779 C 0.93014 0.2433 0.90295 0.0
C1780 C 0.94138 0.26651 0.93254 0.0
C1781 C 0.90447 0.24469 0.88542 0.0
C1782 C 0.88888 0.2698 0.89619 0.0
H1783 H 0.94156 0.22427 0.89285 0.0
H1784 H 0.89735 0.22669 0.86239 0.0
S1785 S 0.90798 0.33459 0.97393 0.0
N1786 N 0.93353 0.31316 0.97354 0.0
N1787 N 0.8863 0.31698 0.94005 0.0
C1788 C 0.89936 0.29209 0.92662 0.0
C1789 C 0.92518 0.29002 0.94493 0.0
C1790 C 0.59098 0.19643 0.68936 0.0
C1791 C 0.60954 0.22104 0.67846 0.0
C1792 C 0.58415 0.16239 0.67197 0.0
C1793 C 0.59649 0.15129 0.64387 0.0
H1794 H 0.58059 0.20396 0.7104 0.0
H1795 H 0.56871 0.1447 0.68032 0.0
S1796 S 0.65095 0.2042 0.61002 0.0
N1797 N 0.64298 0.2311 0.64074 0.0
N1798 N 0.63102 0.16679 0.60894 0.0
C1799 C 0.6169 0.17498 0.6346 0.0
C1800 C 0.62327 0.20991 0.65174 0.0
C1801 C 0.60605 0.76132 0.43278 0.0
C1802 C 0.59242 0.78942 0.43823 0.0
C1803 C 0.63214 0.76488 0.4218 0.0
C1804 C 0.64591 0.79679 0.4164 0.0
H1805 H 0.59597 0.73612 0.43551 0.0
H1806 H 0.64147 0.74236 0.4171 0.0
S1807 S 0.61942 0.87853 0.42846 0.0
N1808 N 0.59515 0.85036 0.43838 0.0
N1809 N 0.64368 0.85706 0.41819 0.0
C1810 C 0.63276 0.82518 0.42288 0.0
C1811 C 0.60623 0.82148 0.43363 0.0
C1812 C 0.13597 0.25568 0.5271 0.0
C1813 C 0.11921 0.25123 0.49639 0.0
C1814 C 0.12728 0.23886 0.55233 0.0
C1815 C 0.10197 0.21648 0.54719 0.0
H1816 H 0.1544 0.27512 0.53305 0.0
H1817 H 0.13954 0.24517 0.57656 0.0
S1818 S 0.05584 0.1863 0.46758 0.0
N1819 N 0.07984 0.21618 0.45957 0.0
N1820 N 0.06392 0.18367 0.5069 0.0
C1821 C 0.08723 0.20772 0.51509 0.0
C1822 C 0.09599 0.22499 0.48946 0.0
C1823 C 0.60912 0.23554 0.19002 0.0
C1824 C 0.59203 0.22346 0.21226 0.0
C1825 C 0.63766 0.24165 0.19784 0.0
C1826 C 0.65011 0.23425 0.22742 0.0
H1827 H 0.6004 0.24057 0.16646 0.0
H1828 H 0.65004 0.25126 0.18013 0.0
S1829 S 0.61443 0.2042 0.29489 0.0
N1830 N 0.5895 0.20638 0.26604 0.0
N1831 N 0.64319 0.21649 0.28016 0.0
C1832 C 0.63323 0.22291 0.25022 0.0
C1833 C 0.60417 0.2177 0.24271 0.0
C1834 C 0.65204 0.97413 0.04481 0.0
C1835 C 0.63553 0.94181 0.04258 0.0
C1836 C 0.65226 1.00064 0.07169 0.0
C1837 C 0.63462 0.99629 0.09586 0.0
H1838 H 0.6638 0.97943 1.02498 0.0
H1839 H 0.66441 1.02553 0.07182 0.0
S1840 S 0.5908 0.91527 0.10412 0.0
N1841 N 0.60431 0.90555 0.06973 0.0
N1842 N 0.60356 0.95616 0.11869 0.0
C1843 C 0.61995 0.96341 0.09546 0.0
C1844 C 0.62053 0.93604 0.069 0.0
C1845 C 0.97343 0.77823 0.79933 0.0
C1846 C 0.99033 0.79802 0.78181 0.0
C1847 C 0.95908 0.7941 0.82286 0.0
C1848 C 0.96141 0.83009 0.82944 0.0
H1849 H 0.97255 0.75074 0.79626 0.0
H1850 H 0.94645 0.77818 0.83639 0.0
S1851 S 1.0014 0.89248 0.78756 0.0
N1852 N 1.007 0.85467 0.77023 0.0
N1853 N 0.98062 0.88463 0.81515 0.0
C1854 C 0.97722 0.84983 0.81079 0.0
C1855 C 0.99154 0.8337 0.78673 0.0
C1856 C 0.14497 0.06672 0.96381 0.0
C1857 C 0.16027 0.04067 0.95271 0.0
C1858 C 0.12847 0.06603 0.99121 0.0
C1859 C 0.12506 0.03885 1.01008 0.0
H1860 H 0.14605 0.08865 0.95145 0.0
H1861 H 0.11787 0.08718 0.99731 0.0
S1862 S 0.16042 0.96389 0.99324 0.0
N1863 N 0.1707 0.98706 0.96563 0.0
N1864 N 0.13991 0.98491 1.01403 0.0
C1865 C 0.14024 1.01275 0.99915 0.0
C1866 C 0.15752 1.01391 0.97193 0.0
C1867 C 0.75753 0.35587 0.62594 0.0
C1868 C 0.76931 0.39057 0.62751 0.0
C1869 C 0.76765 0.33678 0.64831 0.0
C1870 C 0.78933 0.35202 0.67337 0.0
H1871 H 0.74186 0.3425 0.60576 0.0
H1872 H 0.75909 0.30971 0.64538 0.0
S1873 S 0.8238 0.44316 0.69223 0.0
N1874 N 0.80129 0.44041 0.65908 0.0
N1875 N 0.82002 0.40431 0.70152 0.0
C1876 C 0.79948 0.38732 0.67735 0.0
C1877 C 0.78938 0.40675 0.65441 0.0
C1878 C 0.5177 0.06446 0.44115 0.0
C1879 C 0.49027 0.06927 0.44341 0.0
C1880 C 0.5366 0.06116 0.46915 0.0
C1881 C 0.53006 0.06203 0.50227 0.0
H1882 H 0.52482 0.06273 0.41711 0.0
H1883 H 0.55691 0.05745 0.46444 0.0
S1884 S 0.46161 0.07524 0.52405 0.0
N1885 N 0.45843 0.0757 0.4838 0.0
N1886 N 0.49302 0.06915 0.53473 0.0
C1887 C 0.50282 0.06714 0.50513 0.0
C1888 C 0.48352 0.07076 0.47658 0.0
C1889 C 0.80185 0.7127 0.1943 0.0
C1890 C 0.79093 0.73075 0.17101 0.0
C1891 C 0.80853 0.72755 0.22826 0.0
C1892 C 0.80364 0.76055 0.24054 0.0
H1893 H 0.80557 0.68704 0.18615 0.0
H1894 H 0.81704 0.71272 0.24519 0.0
S1895 S 0.7748 0.81825 0.19018 0.0
N1896 N 0.77575 0.78367 0.1628 0.0
N1897 N 0.78697 0.81067 0.22665 0.0
C1898 C 0.7924 0.77867 0.21763 0.0
C1899 C 0.78644 0.76403 0.1829 0.0
C1900 C 0.12504 0.04329 0.74979 0.0
C1901 C 0.15112 0.03314 0.75233 0.0
C1902 C 0.10973 0.04574 0.71878 0.0
C1903 C 0.11848 0.03684 0.68722 0.0
H1904 H 0.11642 0.05037 0.7724 0.0
H1905 H 0.09042 0.05458 0.71966 0.0
S1906 S 0.18491 1.00787 0.67795 0.0
N1907 N 0.18479 1.01443 0.71863 0.0
N1908 N 0.1559 1.01695 0.66155 0.0
C1909 C 0.14427 1.02595 0.6892 0.0
C1910 C 0.1604 1.02468 0.72099 0.0
C1911 C 0.74502 0.35631 0.41485 0.0
C1912 C 0.76014 0.35997 0.44623 0.0
C1913 C 0.74515 0.32779 0.39023 0.0
C1914 C 0.76163 0.3033 0.39591 0.0
H1915 H 0.73393 0.37609 0.40896 0.0
H1916 H 0.73436 0.32679 0.36575 0.0
S1917 S 0.79923 0.29733 0.47644 0.0
N1918 N 0.78741 0.33351 0.48376 0.0
N1919 N 0.78855 0.28088 0.4369 0.0
C1920 C 0.77438 0.30494 0.42815 0.0
C1921 C 0.77359 0.33327 0.45343 0.0
C1922 C 0.52211 0.08276 0.24678 0.0
C1923 C 0.49679 0.06023 0.24698 0.0
C1924 C 0.53841 0.08063 0.21951 0.0
C1925 C 0.53152 0.05507 0.18995 0.0
H1926 H 0.52961 0.10284 0.2682 0.0
H1927 H 0.55705 0.09938 0.222 0.0
S1928 S 0.46846 0.98737 0.17704 0.0
N1929 N 0.46648 1.01048 0.21345 0.0
N1930 N 0.49685 1.00528 0.16464 0.0
C1931 C 0.50648 0.03194 0.1901 0.0
C1932 C 0.48948 0.03475 0.21749 0.0
C1933 C 0.7817 0.70252 0.94558 0.0
C1934 C 0.77682 0.71717 0.97762 0.0
C1935 C 0.78828 0.72269 0.92114 0.0
C1936 C 0.79016 0.75871 0.9271 0.0
H1937 H 0.78094 0.67511 0.93937 0.0
H1938 H 0.79233 0.70987 0.89743 0.0
S1939 S 0.77737 0.81017 1.00559 0.0
N1940 N 0.7732 0.77053 1.01286 0.0
N1941 N 0.78509 0.80782 0.96737 0.0
C1942 C 0.78455 0.77359 0.95861 0.0
C1943 C 0.77806 0.75313 0.9836 0.0
C1944 C 0.91342 0.08659 0.14725 0.0
C1945 C 0.92092 0.12233 0.14954 0.0
C1946 C 0.92607 0.06374 0.12771 0.0
C1947 C 0.9468 0.07574 0.1097 0.0
H1948 H 0.89612 0.07603 0.15853 0.0
H1949 H 0.91835 0.0365 0.12514 0.0
S1950 S 0.97755 0.16697 0.11235 0.0
N1951 N 0.95262 0.16879 0.13561 0.0
N1952 N 0.97735 0.12575 0.09962 0.0
C1953 C 0.95632 0.11146 0.11428 0.0
C1954 C 0.94325 0.1348 0.13418 0.0
C1955 C 0.45697 0.48849 0.14465 0.0
C1956 C 0.44573 0.4576 0.12247 0.0
C1957 C 0.48357 0.50679 0.1436 0.0
C1958 C 0.50029 0.49555 0.11992 0.0
H1959 H 0.44498 0.49885 0.16292 0.0
H1960 H 0.49074 0.53064 0.161 0.0
S1961 S 0.48181 0.41433 0.05831 0.0
N1962 N 0.45479 0.41485 0.07823 0.0
N1963 N 0.5037 0.44999 0.07491 0.0
C1964 C 0.48957 0.46416 0.09822 0.0
C1965 C 0.46276 0.44498 0.09998 0.0
C1966 C 0.38788 0.6597 0.81821 0.0
C1967 C 0.40389 0.65211 0.84621 0.0
C1968 C 0.37229 0.68768 0.81997 0.0
C1969 C 0.3709 0.71099 0.84992 0.0
H1970 H 0.3864 0.6429 0.79448 0.0
H1971 H 0.36075 0.69068 0.79719 0.0
S1972 S 0.40869 0.70419 0.93121 0.0
N1973 N 0.41631 0.67215 0.90548 0.0
N1974 N 0.3887 0.72315 0.90853 0.0
C1975 C 0.38715 0.70394 0.87787 0.0
C1976 C 0.40274 0.67536 0.87612 0.0
C1977 C 0.28919 0.71931 0.63052 0.0
C1978 C 0.30871 0.70542 0.64828 0.0
C1979 C 0.26119 0.70778 0.63068 0.0
C1980 C 0.25188 0.68318 0.64994 0.0
H1981 H 0.29554 0.73774 0.61501 0.0
H1982 H 0.24694 0.71723 0.6144 0.0
S1983 S 0.29628 0.64749 0.70866 0.0
N1984 N 0.31784 0.67059 0.68963 0.0
N1985 N 0.26545 0.65152 0.69295 0.0
C1986 C 0.27171 0.67219 0.67068 0.0
C1987 C 0.30008 0.68281 0.66926 0.0
C1988 C 0.7602 0.944 0.88074 0.0
C1989 C 0.73639 0.94584 0.8587 0.0
C1990 C 0.77468 0.91542 0.87855 0.0
C1991 C 0.76708 0.88479 0.85419 0.0
H1992 H 0.76847 0.96563 0.90048 0.0
H1993 H 0.79252 0.91769 0.89668 0.0
S1994 S 0.70684 0.87351 0.78854 0.0
N1995 N 0.70657 0.91184 0.81026 0.0
N1996 N 0.73296 0.85934 0.80631 0.0
C1997 C 0.74321 0.88574 0.83177 0.0
C1998 C 0.72837 0.91533 0.83392 0.0
C1999 C 0.77962 0.95925 0.63416 0.0
C2000 C 0.79585 0.9566 0.6081 0.0
C2001 C 0.75404 0.97056 0.63026 0.0
C2002 C 0.74372 0.97991 0.60025 0.0
H2003 H 0.7872 0.95399 0.65808 0.0
H2004 H 0.74276 0.97319 0.6513 0.0
S2005 S 0.7763 0.97258 0.52302 0.0
N2006 N 0.79797 0.96089 0.5502 0.0
N2007 N 0.7508 0.98178 0.54312 0.0
C2008 C 0.7592 0.97556 0.57371 0.0
C2009 C 0.7849 0.96406 0.57758 0.0
C2010 C 0.37291 0.45704 0.8176 0.0
C2011 C 0.401 0.46356 0.83114 0.0
C2012 C 0.35419 0.42609 0.81879 0.0
C2013 C 0.36181 0.3982 0.83288 0.0
H2014 H 0.36494 0.4766 0.8063 0.0
H2015 H 0.33298 0.42432 0.80877 0.0
S2016 S 0.43353 0.39889 0.8689 0.0
N2017 N 0.43567 0.43662 0.85711 0.0
N2018 N 0.40118 0.37949 0.85896 0.0
C2019 C 0.39021 0.40341 0.84494 0.0
C2020 C 0.40938 0.43528 0.84395 0.0
C2021 C 0.22852 0.6614 0.37075 0.0
C2022 C 0.2334 0.62906 0.35511 0.0
C2023 C 0.24613 0.69356 0.37031 0.0
C2024 C 0.26927 0.69614 0.3528 0.0
H2025 H 0.21102 0.66192 0.38411 0.0
H2026 H 0.24109 0.71685 0.3834 0.0
S2027 S 0.29012 0.62006 0.30442 0.0
N2028 N 0.2631 0.60292 0.31999 0.0
N2029 N 0.29471 0.66189 0.3179 0.0
C2030 C 0.27377 0.66403 0.33617 0.0
C2031 C 0.25637 0.6313 0.3375 0.0
C2032 C 0.55022 0.69194 0.54815 0.0
C2033 C 0.53077 0.68431 0.51919 0.0
C2034 C 0.55827 0.66601 0.56442 0.0
C2035 C 0.54676 0.63108 0.55318 0.0
H2036 H 0.5597 0.71832 0.55823 0.0
H2037 H 0.57354 0.67348 0.58624 0.0
S2038 S 0.49472 0.5968 0.47887 0.0
N2039 N 0.50035 0.6387 0.47999 0.0
N2040 N 0.51474 0.59033 0.51096 0.0
C2041 C 0.52711 0.62302 0.52444 0.0
C2042 C 0.51937 0.64942 0.50737 0.0
C2043 C 0.71879 0.30747 0.75529 0.0
C2044 C 0.70294 0.33291 0.76393 0.0
C2045 C 0.74351 0.30605 0.77511 0.0
C2046 C 0.75411 0.33051 0.80419 0.0
H2047 H 0.71152 0.2876 0.73362 0.0
H2048 H 0.75431 0.28538 0.76768 0.0
S2049 S 0.72189 0.40416 0.83653 0.0
N2050 N 0.70058 0.38393 0.8032 0.0
N2051 N 0.74707 0.38231 0.83927 0.0
C2052 C 0.73901 0.35689 0.81229 0.0
C2053 C 0.71353 0.35779 0.79259 0.0
C2054 C 1.01191 0.40129 1.00242 0.0
C2055 C 1.0288 0.37654 1.00357 0.0
C2056 C 1.01864 0.4335 1.02374 0.0
C2057 C 0.04285 0.44251 0.04658 0.0
H2058 H 0.99321 0.39576 0.9852 0.0
H2059 H 1.00521 0.45188 1.02151 0.0
S2060 S 0.09386 0.38653 0.05962 0.0
N2061 N 0.07036 0.36287 0.03003 0.0
N2062 N 0.0835 0.42346 0.06928 0.0
C2063 C 0.05978 0.41779 0.04811 0.0
C2064 C 0.05262 0.38483 0.02688 0.0
C2065 C 0.04394 0.80807 0.27331 0.0
C2066 C 0.04069 0.8104 0.23932 0.0
C2067 C 1.02128 0.80442 0.29125 0.0
C2068 C 0.99427 0.80337 0.27625 0.0
H2069 H 0.06403 0.80791 0.28596 0.0
H2070 H 1.02495 0.80209 0.31712 0.0
S2071 S 0.97442 0.80976 0.18824 0.0
N2072 N 1.00795 0.81267 0.19184 0.0
N2073 N 0.96595 0.8055 0.22521 0.0
C2074 C 0.99087 0.80663 0.24256 0.0
C2075 C 1.01382 0.81018 0.22428 0.0
C2076 C 0.50795 0.31825 0.12886 0.0
C2077 C 0.52196 0.30068 0.14999 0.0
C2078 C 0.5219 0.34554 0.11673 0.0
C2079 C 0.55032 0.35587 0.12505 0.0
H2080 H 0.48614 0.31027 0.12092 0.0
H2081 H 0.51051 0.35818 0.10007 0.0
S2082 S 0.59631 0.32057 0.18138 0.0
N2083 N 0.56574 0.29709 0.18039 0.0
N2084 N 0.59192 0.34868 0.157 0.0
C2085 C 0.56453 0.33959 0.14699 0.0
C2086 C 0.55031 0.31196 0.15976 0.0
C2087 C 1.01524 0.31303 0.43494 0.0
C2088 C 0.03227 0.33063 0.46396 0.0
C2089 C 0.98686 0.31109 0.43235 0.0
C2090 C 0.97484 0.3264 0.45892 0.0
H2091 H 1.02395 0.30114 0.41403 0.0
H2092 H 0.97435 0.29849 0.40916 0.0
S2093 S 1.01004 0.36847 0.5424 0.0
N2094 N 0.0348 0.35866 0.52123 0.0
N2095 N 0.98143 0.35524 0.51638 0.0
C2096 C 0.99147 0.34189 0.48873 0.0
C2097 C 1.02023 0.34368 0.49135 0.0
C2098 C 0.99612 0.64194 0.63648 0.0
C2099 C 1.01401 0.65676 0.66583 0.0
C2100 C 1.00471 0.62007 0.61073 0.0
C2101 C 0.03214 0.61503 0.61205 0.0
H2102 H 0.9755 0.64715 0.63349 0.0
H2103 H 0.98986 0.60726 0.58949 0.0
S2104 S 0.08727 0.65138 0.68196 0.0
N2105 N 0.05969 0.66251 0.6953 0.0
N2106 N 0.07719 0.63104 0.64348 0.0
C2107 C 0.05025 0.63202 0.64017 0.0
C2108 C 0.0408 0.65009 0.66797 0.0
C2109 C 0.67222 0.84679 0.89322 0.0
C2110 C 0.65443 0.83023 0.91229 0.0
C2111 C 0.68424 0.82772 0.86906 0.0
C2112 C 0.67842 0.79155 0.86278 0.0
H2113 H 0.67703 0.87456 0.89713 0.0
H2114 H 0.69859 0.84137 0.85569 0.0
S2115 S 0.63067 0.73587 0.90301 0.0
N2116 N 0.63016 0.77531 0.92153 0.0
N2117 N 0.65218 0.74005 0.87557 0.0
C2118 C 0.66001 0.77477 0.88088 0.0
C2119 C 0.64816 0.79396 0.90576 0.0
C2120 C 0.48744 0.53104 0.71085 0.0
C2121 C 0.4897 0.55901 0.73824 0.0
C2122 C 0.50462 0.53102 0.68402 0.0
C2123 C 0.52516 0.55948 0.68099 0.0
H2124 H 0.47253 0.50812 0.7104 0.0
H2125 H 0.50134 0.50819 0.66507 0.0
S2126 S 0.54039 0.63998 0.74506 0.0
N2127 N 0.5159 0.616 0.75941 0.0
N2128 N 0.54568 0.61694 0.71013 0.0
C2129 C 0.52727 0.58757 0.7081 0.0
C2130 C 0.51054 0.5871 0.73583 0.0
C2131 C 0.84039 0.20045 0.05218 0.0
C2132 C 0.85414 0.2154 0.08404 0.0
C2133 C 0.83156 0.2209 0.03013 0.0
C2134 C 0.83581 0.25686 0.03947 0.0
H2135 H 0.83612 0.17281 0.04442 0.0
H2136 H 0.82131 0.2085 1.00564 0.0
S2137 S 0.86845 0.30847 0.12101 0.0
N2138 N 0.87054 0.26854 0.12419 0.0
N2139 N 0.85312 0.30639 0.08307 0.0
C2140 C 0.84926 0.27207 0.07127 0.0
C2141 C 0.85865 0.25148 0.09347 0.0
C2142 C 0.1128 0.52109 0.24446 0.0
C2143 C 0.14184 0.52641 0.2465 0.0
C2144 C 0.09487 0.52378 0.21563 0.0
C2145 C 0.10401 0.53175 0.18564 0.0
H2146 H 0.10349 0.51523 0.26594 0.0
H2147 H 0.07312 0.51973 0.21716 0.0
S2148 S 0.17802 0.54757 0.17543 0.0
N2149 N 0.17861 0.53999 0.21381 0.0
N2150 N 0.14546 0.5444 0.16055 0.0
C2151 C 0.13303 0.53666 0.18683 0.0
C2152 C 0.15152 0.53421 0.21659 0.0
C2153 C 0.83702 0.889 0.49484 0.0
C2154 C 0.85517 0.87993 0.51907 0.0
C2155 C 0.83016 0.86937 0.46265 0.0
C2156 C 0.84167 0.84016 0.45271 0.0
H2157 H 0.82797 0.9116 0.50083 0.0
H2158 H 0.81621 0.87781 0.44507 0.0
S2159 S 0.8907 0.80555 0.50641 0.0
N2160 N 0.88443 0.83943 0.53093 0.0
N2161 N 0.87233 0.80321 0.47001 0.0
C2162 C 0.85999 0.83081 0.4766 0.0
C2163 C 0.86646 0.85042 0.50982 0.0
C2164 C 0.4805 0.57971 0.96773 0.0
C2165 C 0.48458 0.56529 0.93498 0.0
C2166 C 0.49809 0.5781 0.99737 0.0
C2167 C 0.52087 0.56092 0.9971 0.0
H2168 H 0.46318 0.59244 0.97069 0.0
H2169 H 0.4931 0.58968 1.02102 0.0
S2170 S 0.54124 0.51755 0.91882 0.0
N2171 N 0.51427 0.53294 0.90531 0.0
N2172 N 0.54591 0.52881 0.95971 0.0
C2173 C 0.52512 0.54618 0.96458 0.0
C2174 C 0.50761 0.54862 0.93429 0.0
C2175 C 0.88704 0.29786 0.24221 0.0
C2176 C 0.90297 0.27492 0.25339 0.0
C2177 C 0.87383 0.31783 0.26423 0.0
C2178 C 0.87723 0.31661 0.29819 0.0
H2179 H 0.88169 0.29697 0.21583 0.0
H2180 H 0.85867 0.33125 0.25417 0.0
S2181 S 0.92312 0.26857 0.34094 0.0
N2182 N 0.92519 0.25677 0.30105 0.0
N2183 N 0.90248 0.29687 0.34293 0.0
C2184 C 0.89671 0.29823 0.31021 0.0
C2185 C 0.90906 0.27661 0.28764 0.0
C2186 C 0.13105 0.52934 0.44259 0.0
C2187 C 0.15957 0.54401 0.44606 0.0
C2188 C 0.11447 0.53196 0.46975 0.0
C2189 C 0.1245 0.55056 0.50273 0.0
H2190 H 0.12129 0.51502 0.41856 0.0
H2191 H 0.09327 0.5192 0.46458 0.0
S2192 S 0.19713 0.59439 0.52671 0.0
N2193 N 0.19637 0.57732 0.48742 0.0
N2194 N 0.16588 0.584 0.53576 0.0
C2195 C 0.15272 0.56562 0.50622 0.0
C2196 C 0.16974 0.56194 0.4791 0.0
C2197 C 0.85575 0.88645 0.74002 0.0
C2198 C 0.85947 0.86862 0.70867 0.0
C2199 C 0.85054 0.86924 0.76717 0.0
C2200 C 0.84923 0.83336 0.76464 0.0
H2201 H 0.85609 0.91382 0.74339 0.0
H2202 H 0.84701 0.88416 0.79015 0.0
S2203 S 0.86053 0.77514 0.68933 0.0
N2204 N 0.86314 0.81301 0.678 0.0
N2205 N 0.85431 0.78144 0.72821 0.0
C2206 C 0.85411 0.81569 0.73383 0.0
C2207 C 0.85892 0.833 0.70624 0.0
C2208 C 0.70795 0.48668 0.55712 0.0
C2209 C 0.72651 0.49429 0.53475 0.0
C2210 C 0.69813 0.51265 0.57647 0.0
C2211 C 0.70632 0.54728 0.57418 0.0
H2212 H 0.70239 0.46071 0.56151 0.0
H2213 H 0.68469 0.50563 0.59425 0.0
S2214 S 0.74945 0.58042 0.51446 0.0
N2215 N 0.74851 0.53858 0.50701 0.0
N2216 N 0.73051 0.58757 0.54446 0.0
C2217 C 0.72235 0.55505 0.54948 0.0
C2218 C 0.7322 0.52845 0.52935 0.0
C2219 C 0.19119 0.11916 0.58217 0.0
C2220 C 0.19535 0.14287 0.56044 0.0
C2221 C 0.16465 0.10173 0.58505 0.0
C2222 C 0.14093 0.10648 0.56573 0.0
H2223 H 0.20863 0.1144 0.59755 0.0
H2224 H 0.16278 0.08382 0.60211 0.0
S2225 S 0.14043 0.16461 0.50423 0.0
N2226 N 0.173 0.17065 0.52004 0.0
N2227 N 0.12388 0.13581 0.52302 0.0
C2228 C 0.14491 0.12958 0.54348 0.0
C2229 C 0.17177 0.1484 0.54163 0.0
C2230 C 0.2319 0.91991 0.83816 0.0
C2231 C 0.24235 0.95249 0.85952 0.0
C2232 C 0.2467 0.89094 0.8347 0.0
C2233 C 0.2733 0.89139 0.85245 0.0
H2234 H 0.21184 0.91636 0.82394 0.0
H2235 H 0.23665 0.86742 0.81824 0.0
S2236 S 0.31338 0.97149 0.90547 0.0
N2237 N 0.28382 0.98246 0.89534 0.0
N2238 N 0.31023 0.93081 0.88822 0.0
C2239 C 0.2842 0.92407 0.87239 0.0
C2240 C 0.26936 0.9532 0.876 0.0
C2241 C 0.37723 0.96329 0.04455 0.0
C2242 C 0.36059 0.93059 0.03727 0.0
C2243 C 0.40582 0.96703 0.04881 0.0
C2244 C 0.4186 0.93816 0.04761 0.0
H2245 H 0.3682 0.98606 0.04877 0.0
H2246 H 0.41798 0.99268 0.05462 0.0
S2247 S 0.38413 0.84693 0.03099 0.0
N2248 N 0.35898 0.8688 0.02858 0.0
N2249 N 0.41255 0.87595 0.03932 0.0
C2250 C 0.40219 0.90538 0.0408 0.0
C2251 C 0.37325 0.90157 0.03493 0.0
C2252 C 0.88508 0.65374 0.82134 0.0
C2253 C 0.9099 0.65599 0.84326 0.0
C2254 C 0.86918 0.68113 0.8208 0.0
C2255 C 0.87626 0.71414 0.84205 0.0
H2256 H 0.87716 0.62978 0.80444 0.0
H2257 H 0.85055 0.6759 0.8034 0.0
S2258 S 0.9391 0.73603 0.90496 0.0
N2259 N 0.93994 0.69617 0.88765 0.0
N2260 N 0.91161 0.74635 0.88599 0.0
C2261 C 0.90131 0.7171 0.86375 0.0
C2262 C 0.91732 0.68892 0.8646 0.0
C2263 C 0.86133 0.65471 0.0842 0.0
C2264 C 0.83883 0.63302 0.06331 0.0
C2265 C 0.88669 0.64398 0.09114 0.0
C2266 C 0.89111 0.61086 0.07774 0.0
H2267 H 0.85938 0.68031 0.09555 0.0
H2268 H 0.90307 0.66204 0.10722 0.0
S2269 S 0.83883 0.54314 1.02242 0.0
N2270 N 0.82313 0.57617 0.02937 0.0
N2271 N 0.86986 0.55607 0.0432 0.0
C2272 C 0.86879 0.5889 0.05681 0.0
C2273 C 0.84306 0.59988 0.04949 0.0
C2274 C 0.26698 0.13502 0.85441 0.0
C2275 C 0.24056 0.1353 0.86413 0.0
C2276 C 0.286 0.16557 0.85265 0.0
C2277 C 0.2802 0.1995 0.85916 0.0
H2278 H 0.27315 0.11056 0.84752 0.0
H2279 H 0.30578 0.16226 0.84551 0.0
S2280 S 0.21322 0.21632 0.88342 0.0
N2281 N 0.20956 0.17411 0.87917 0.0
N2282 N 0.24425 0.23025 0.8749 0.0
C2283 C 0.25346 0.20031 0.86788 0.0
C2284 C 0.23414 0.16898 0.8703 0.0
C2285 C 0.38491 0.95611 0.31947 0.0
C2286 C 0.41035 0.96965 0.3402 0.0
C2287 C 0.36839 0.92336 0.3208 0.0
C2288 C 0.37535 0.90235 0.34405 0.0
H2289 H 0.37766 0.9709 0.30171 0.0
H2290 H 0.34949 0.9149 0.30391 0.0
S2291 S 0.43992 0.92505 0.40359 0.0
N2292 N 0.44226 0.9569 0.38265 0.0
N2293 N 0.41013 0.89991 0.38869 0.0
C2294 C 0.40056 0.91615 0.36492 0.0
C2295 C 0.41817 0.94813 0.36202 0.0
C2296 C 0.61868 0.43063 0.67829 0.0
C2297 C 0.61231 0.39766 0.65802 0.0
C2298 C 0.61412 0.46056 0.66556 0.0
C2299 C 0.60279 0.45871 0.63215 0.0
H2300 H 0.62599 0.43317 0.70444 0.0
H2301 H 0.61819 0.48501 0.68241 0.0
S2302 S 0.58636 0.38023 0.56728 0.0
N2303 N 0.59696 0.36669 0.60129 0.0
N2304 N 0.58821 0.42191 0.57857 0.0
C2305 C 0.59788 0.42645 0.61143 0.0
C2306 C 0.6027 0.39635 0.62399 0.0
C2307 C 0.42437 0.78381 0.44635 0.0
C2308 C 0.44186 0.76276 0.43223 0.0
C2309 C 0.39894 0.78642 0.42862 0.0
C2310 C 0.38889 0.76675 0.3968 0.0
H2311 H 0.43116 0.80007 0.47043 0.0
H2312 H 0.38732 0.80467 0.43951 0.0
S2313 S 0.42327 0.70071 0.35276 0.0
N2314 N 0.44494 0.71776 0.38672 0.0
N2315 N 0.39707 0.72095 0.35469 0.0
C2316 C 0.40494 0.74292 0.38414 0.0
C2317 C 0.43124 0.74125 0.40153 0.0
C2318 C 0.09172 0.6971 0.18542 0.0
C2319 C 0.10959 0.72249 0.1746 0.0
C2320 C 0.0854 0.66326 0.16755 0.0
C2321 C 0.09762 0.65325 0.13907 0.0
H2322 H 0.08148 0.70382 0.2068 0.0
H2323 H 0.07048 0.64486 0.17585 0.0
S2324 S 0.15022 0.70868 0.10489 0.0
N2325 N 0.14217 0.73459 0.13633 0.0
N2326 N 0.13118 0.67063 0.10361 0.0
C2327 C 0.11734 0.67777 0.12977 0.0
C2328 C 0.12316 0.71248 0.1474 0.0
C2329 C 0.0933 0.26876 0.8963 0.0
C2330 C 0.08921 0.28053 0.92921 0.0
C2331 C 0.11939 0.27369 0.88598 0.0
C2332 C 0.14289 0.29145 0.9078 0.0
H2333 H 0.07599 0.25622 0.87794 0.0
H2334 H 0.12099 0.26404 0.86028 0.0
S2335 S 0.14337 0.32784 0.99696 0.0
N2336 N 0.111 0.31009 0.98396 0.0
N2337 N 0.15992 0.32063 0.96459 0.0
C2338 C 0.13921 0.30261 0.94119 0.0
C2339 C 0.1125 0.29695 0.95182 0.0
C2340 C 0.59147 0.74206 1.02338 0.0
C2341 C 0.5759 0.75685 1.00126 0.0
C2342 C 0.57884 0.72241 0.0443 0.0
C2343 C 0.5503 0.7172 0.04387 0.0
H2344 H 0.61364 0.74801 0.02641 0.0
H2345 H 0.59161 0.7128 0.06228 0.0
S2346 S 0.50012 0.74528 0.98646 0.0
N2347 N 0.53027 0.76104 0.9767 0.0
N2348 N 0.50651 0.72384 1.0166 0.0
C2349 C 0.53426 0.72866 1.01953 0.0
C2350 C 0.54713 0.74858 0.99793 0.0
C2351 C 0.12444 0.75431 0.70058 0.0
C2352 C 0.10648 0.73996 0.72058 0.0
C2353 C 0.15217 0.75207 0.7052 0.0
C2354 C 0.16245 0.73344 0.72853 0.0
H2355 H 0.11736 0.76919 0.68277 0.0
H2356 H 0.16557 0.76656 0.69144 0.0
S2357 S 0.12035 0.68166 0.77865 0.0
N2358 N 0.0989 0.70234 0.76044 0.0
N2359 N 0.14995 0.69311 0.76548 0.0
C2360 C 0.14344 0.71527 0.74549 0.0
C2361 C 0.1157 0.7197 0.7424 0.0
C2362 C 0.13159 0.46621 0.52091 0.0
C2363 C 0.11534 0.4339 0.51874 0.0
C2364 C 0.13355 0.49139 0.54933 0.0
C2365 C 0.1173 0.486 0.57471 0.0
H2366 H 0.14286 0.47194 0.50079 0.0
H2367 H 0.14674 0.51586 0.55058 0.0
S2368 S 0.07776 0.40324 0.58463 0.0
N2369 N 0.08845 0.39523 0.54801 0.0
N2370 N 0.08912 0.44446 0.59904 0.0
C2371 C 0.10268 0.45319 0.57386 0.0
C2372 C 0.10227 0.42677 0.54622 0.0
C2373 C 0.44922 0.27931 0.23101 0.0
C2374 C 0.45374 0.24639 0.23455 0.0
C2375 C 0.44433 0.30244 0.25798 0.0
C2376 C 0.44282 0.29336 0.28955 0.0
H2377 H 0.45056 0.28788 0.20748 0.0
H2378 H 0.44197 0.32782 0.25389 0.0
S2379 S 0.45309 0.2094 0.31118 0.0
N2380 N 0.45723 0.20577 0.27166 0.0
N2381 N 0.44586 0.24797 0.32207 0.0
C2382 C 0.44705 0.2601 0.2932 0.0
C2383 C 0.45291 0.23694 0.26579 0.0
C2384 C 0.65831 0.56847 0.47895 0.0
C2385 C 0.66079 0.53938 0.45475 0.0
C2386 C 0.64089 0.5671 0.50535 0.0
C2387 C 0.6249 0.53625 0.5114 0.0
H2388 H 0.66993 0.59324 0.47744 0.0
H2389 H 0.64013 0.59094 0.52145 0.0
S2390 S 0.62354 0.45153 0.45701 0.0
N2391 N 0.6444 0.4781 0.44023 0.0
N2392 N 0.61387 0.47516 0.4888 0.0
C2393 C 0.62746 0.50697 0.48753 0.0
C2394 C 0.64457 0.50855 0.46015 0.0
C2395 C 0.28066 0.8791 0.15176 0.0
C2396 C 0.29761 0.90521 0.14073 0.0
C2397 C 0.29172 0.85899 0.17249 0.0
C2398 C 0.32014 0.86397 0.18237 0.0
H2399 H 0.25899 0.8727 0.14257 0.0
H2400 H 0.27804 0.8384 0.17962 0.0
S2401 S 0.37306 0.93112 0.16272 0.0
N2402 N 0.34393 0.93735 0.14393 0.0
N2403 N 0.36475 0.89847 0.1817 0.0
C2404 C 0.33708 0.89159 0.17351 0.0
C2405 C 0.32577 0.91256 0.153 0.0
C2406 C 0.98676 0.56939 0.9725 0.0
C2407 C 0.99347 0.57071 0.9396 0.0
C2408 C 1.00617 0.56641 1.00031 0.0
C2409 C 0.03413 0.56447 0.99782 0.0
H2410 H 0.9659 0.57022 0.97697 0.0
H2411 H 0.99904 0.56546 1.02409 0.0
S2412 S 0.06381 0.56729 0.91843 0.0
N2413 N 1.03156 0.57004 0.90781 0.0
N2414 N 0.06691 0.56483 0.95826 0.0
C2415 C 0.04111 0.56618 0.96523 0.0
C2416 C 1.02142 0.56913 0.93704 0.0
C2417 C 0.28546 0.26507 0.68288 0.0
C2418 C 0.2887 0.23115 0.6711 0.0
C2419 C 0.2912 0.27969 0.71705 0.0
C2420 C 0.30136 0.2614 0.74059 0.0
H2421 H 0.27795 0.28024 0.66563 0.0
H2422 H 0.28812 0.30568 0.72501 0.0
S2423 S 0.31402 0.17216 0.72279 0.0
N2424 N 0.3025 0.17976 0.68608 0.0
N2425 N 0.3145 0.20766 0.74962 0.0
C2426 C 0.30505 0.22771 0.72906 0.0
C2427 C 0.2984 0.21249 0.69454 0.0
C2428 C 0.6543 0.5649 0.2424 0.0
C2429 C 0.65249 0.53402 0.25552 0.0
C2430 C 0.63796 0.56788 0.2123 0.0
C2431 C 0.61908 0.53992 0.19208 0.0
H2432 H 0.66808 0.58762 0.25611 0.0
H2433 H 0.64043 0.59263 0.20462 0.0
S2434 S 0.60628 0.45252 0.21356 0.0
N2435 N 0.62923 0.47459 0.24467 0.0
N2436 N 0.60049 0.47951 0.18839 0.0
C2437 C 0.61753 0.50867 0.20451 0.0
C2438 C 0.63347 0.50595 0.23579 0.0
C2439 C 0.28747 0.83608 0.96179 0.0
C2440 C 0.27035 0.86 0.95761 0.0
C2441 C 0.2871 0.80795 0.93662 0.0
C2442 C 0.27012 0.80336 0.90623 0.0
H2443 H 0.30236 0.84021 0.98386 0.0
H2444 H 0.30131 0.79081 0.94016 0.0
S2445 S 0.21487 0.85222 0.88845 0.0
N2446 N 0.23152 0.87296 0.92474 0.0
N2447 N 0.23061 0.81991 0.87722 0.0
C2448 C 0.25031 0.82451 0.90375 0.0
C2449 C 0.25075 0.85324 0.92938 0.0
C2450 C 1.02337 0.57396 0.74439 0.0
C2451 C 0.99533 0.5579 0.74274 0.0
C2452 C 0.03914 0.57121 0.71662 0.0
C2453 C 1.02874 0.55149 0.68431 0.0
H2454 H 0.03359 0.58928 0.76781 0.0
H2455 H 0.06011 0.58482 0.72083 0.0
S2456 S 0.95648 0.50384 0.66433 0.0
N2457 N 0.95823 0.52142 0.70384 0.0
N2458 N 0.98698 0.51581 0.65345 0.0
C2459 C 1.00068 0.53532 0.68223 0.0
C2460 C 0.9845 0.53853 0.71045 0.0
C2461 C 0.28618 0.20503 0.44589 0.0
C2462 C 0.2805 0.21952 0.4776 0.0
C2463 C 0.29366 0.22535 0.42184 0.0
C2464 C 0.29582 0.26143 0.42791 0.0
H2465 H 0.28528 0.1776 0.4396 0.0
H2466 H 0.2982 0.21259 0.39836 0.0
S2467 S 0.28115 0.31259 0.50549 0.0
N2468 N 0.27638 0.27285 0.51254 0.0
N2469 N 0.29007 0.31041 0.46783 0.0
C2470 C 0.2895 0.27618 0.45909 0.0
C2471 C 0.28201 0.25554 0.48364 0.0
C2472 C 0.4301 0.61697 0.64334 0.0
C2473 C 0.4332 0.64732 0.63024 0.0
C2474 C 0.43985 0.58832 0.62841 0.0
C2475 C 0.45356 0.58938 0.60028 0.0
H2476 H 0.41773 0.61423 0.66317 0.0
H2477 H 0.43508 0.56465 0.63779 0.0
S2478 S 0.47232 0.66617 0.562 0.0
N2479 N 0.45399 0.67882 0.59113 0.0
N2480 N 0.47428 0.62593 0.56429 0.0
C2481 C 0.45954 0.62109 0.58959 0.0
C2482 C 0.44906 0.64993 0.60445 0.0
C2483 C 0.96067 0.94596 0.59788 0.0
C2484 C 0.94437 0.95787 0.62176 0.0
C2485 C 0.987 0.96463 0.59551 0.0
C2486 C 0.99887 0.99532 0.61788 0.0
H2487 H 0.95255 0.92268 0.57999 0.0
H2488 H 0.99802 0.95503 0.57585 0.0
S2489 S 0.96647 0.03413 0.6887 0.0
N2490 N 0.94335 1.00039 0.67017 0.0
N2491 N 0.99249 0.03438 0.66709 0.0
C2492 C 0.98331 1.00603 0.64323 0.0
C2493 C 0.95635 0.98759 0.64493 0.0
C2494 C 0.88457 0.15524 0.30896 0.0
C2495 C 0.8981 0.14646 0.33814 0.0
C2496 C 0.86813 0.18242 0.30954 0.0
C2497 C 0.8635 0.20367 0.33931 0.0
H2498 H 0.88579 0.14007 0.2851 0.0
H2499 H 0.85879 0.18668 0.28597 0.0
S2500 S 0.89249 0.19171 0.42319 0.0
N2501 N 0.90394 0.16252 0.39808 0.0
N2502 N 0.87441 0.21137 0.39903 0.0
C2503 C 0.87695 0.19502 0.36835 0.0
C2504 C 0.89341 0.16745 0.36779 0.0
C2505 C 0.78989 0.18171 0.20052 0.0
C2506 C 0.80383 0.19973 0.1792 0.0
C2507 C 0.76145 0.17724 0.19824 0.0
C2508 C 0.74575 0.18997 0.17401 0.0
H2509 H 0.801 0.17039 0.21864 0.0
H2510 H 0.75179 0.16286 0.21527 0.0
S2511 S 0.77413 0.24099 0.11346 0.0
N2512 N 0.80128 0.23323 0.13539 0.0
N2513 N 0.74745 0.22281 0.12893 0.0
C2514 C 0.75998 0.20976 0.15364 0.0
C2515 C 0.78915 0.21518 0.15684 0.0
C2516 C 0.25298 0.43803 0.38306 0.0
C2517 C 0.23586 0.44515 0.35561 0.0
C2518 C 0.26822 0.40999 0.38147 0.0
C2519 C 0.26819 0.38545 0.35219 0.0
H2520 H 0.25515 0.45501 0.4068 0.0
H2521 H 0.28048 0.40772 0.40403 0.0
S2522 S 0.23013 0.39235 0.27091 0.0
N2523 N 0.22214 0.42418 0.29661 0.0
N2524 N 0.25021 0.37335 0.29352 0.0
C2525 C 0.25146 0.39224 0.32424 0.0
C2526 C 0.23576 0.421 0.3259 0.0
C2527 C 0.27594 0.43955 0.09672 0.0
C2528 C 0.2988 0.46033 0.11762 0.0
C2529 C 0.25053 0.45085 0.09174 0.0
C2530 C 0.24674 0.48357 0.10734 0.0
H2531 H 0.2781 0.41514 0.08265 0.0
H2532 H 0.23412 0.43438 0.0743 0.0
S2533 S 0.29902 0.54571 0.16829 0.0
N2534 N 0.31497 0.51386 0.15633 0.0
N2535 N 0.26775 0.5346 0.14781 0.0
C2536 C 0.26908 0.5036 0.12975 0.0
C2537 C 0.29484 0.49218 0.1346 0.0
C2538 C 0.87162 0.95206 0.31355 0.0
C2539 C 0.89961 0.95967 0.32765 0.0
C2540 C 0.85327 0.92103 0.31546 0.0
C2541 C 0.86121 0.89415 0.33095 0.0
H2542 H 0.86341 0.97085 0.30128 0.0
H2543 H 0.8321 0.91842 0.3049 0.0
S2544 S 0.93284 0.89798 0.3693 0.0
N2545 N 0.93457 0.93484 0.35584 0.0
N2546 N 0.90075 0.87766 0.3592 0.0
C2547 C 0.88953 0.90045 0.34368 0.0
C2548 C 0.90833 0.93237 0.34188 0.0
C2549 C 0.73073 0.16222 0.87651 0.0
C2550 C 0.73479 0.12986 0.85987 0.0
C2551 C 0.74859 0.19421 0.87607 0.0
C2552 C 0.77114 0.19661 0.85756 0.0
H2553 H 0.71369 0.16289 0.89064 0.0
H2554 H 0.74416 0.21753 0.88986 0.0
S2555 S 0.78984 0.12053 0.8066 0.0
N2556 N 0.76322 0.10357 0.82296 0.0
N2557 N 0.79515 0.16228 0.82076 0.0
C2558 C 0.77483 0.16453 0.83998 0.0
C2559 C 0.75724 0.13194 0.84135 0.0
loop_
_geom_bond_atom_site_label_1
_geom_bond_atom_site_label_2
_geom_bond_distance
_geom_bond_site_symmetry_2
_ccdc_geom_bond_type
Mn0 O5 2.095 . S
Mn0 O15 2.162 . S
Mn0 O16 2.297 . S
Mn0 O24 2.385 . S
Mn0 O25 2.209 . S
Mn0 O26 2.094 . S
Mn1 O6 2.121 . S
Mn1 N8 2.257 . S
Mn1 N17 2.282 . S
Mn1 O25 2.215 . S
Mn1 O27 2.117 . S
C2 O24 1.234 . S
C2 O25 1.283 . S
C3 O15 1.281 . S
C3 O16 1.236 . S
C4 O26 1.240 . S
C4 O27 1.264 . S
O5 Mn0 2.095 . S
O5 C14 1.250 . S
O6 Mn1 2.121 . S
O6 C14 1.258 . S
C7 N8 1.326 . S
C7 C11 1.460 . S
C7 H13 0.929 . S
N8 Mn1 2.257 . S
N8 C7 1.326 . S
N8 C12 1.362 . S
C9 C10 1.258 . S
C9 C12 1.431 . S
C9 C29 1.449 1_455 S
C10 C9 1.258 . S
C10 C11 1.477 . S
C10 H30 0.931 . S
C11 C7 1.460 . S
C11 C10 1.477 . S
C11 H31 0.930 . S
C12 N8 1.362 . S
C12 C9 1.431 . S
C12 C22 1.476 . S
H13 C7 0.929 . S
C14 O5 1.250 . S
C14 O6 1.258 . S
O15 Mn0 2.162 . S
O15 C3 1.281 . S
O16 Mn0 2.297 . S
O16 C3 1.236 . S
N17 Mn1 2.282 . S
N17 C18 1.328 . S
N17 C22 1.318 . S
C18 N17 1.328 . S
C18 C19 1.457 1_455 S
C18 H23 0.929 . S
C19 C18 1.457 1_655 S
C19 C20 1.291 . S
C19 H32 0.931 . S
C20 C19 1.291 . S
C20 C21 1.373 . S
C20 H33 0.929 . S
C21 C20 1.373 . S
C21 C22 1.396 1_655 S
C21 C28 1.403 . S
C22 C12 1.476 . S
C22 N17 1.318 . S
C22 C21 1.396 1_455 S
H23 C18 0.929 . S
O24 Mn0 2.385 . S
O24 C2 1.234 . S
O25 Mn0 2.209 . S
O25 Mn1 2.215 . S
O25 C2 1.283 . S
O26 Mn0 2.094 . S
O26 C4 1.240 . S
O27 Mn1 2.117 . S
O27 C4 1.264 . S
C28 C21 1.403 . S
C28 C29 1.399 . S
C28 H34 0.929 . S
C29 C9 1.449 1_655 S
C29 C28 1.399 . S
C29 H35 0.930 . S
H30 C10 0.931 . S
H31 C11 0.930 . S
H32 C19 0.931 . S
H33 C20 0.929 . S
H34 C28 0.929 . S
H35 C29 0.930 . S
Mn36 O41 2.095 1_455 S
Mn36 O51 2.162 . S
Mn36 O52 2.297 . S
Mn36 O60 2.385 . S
Mn36 O61 2.209 . S
Mn36 O62 2.094 . S
Mn37 O42 2.121 1_455 S
Mn37 N44 2.257 . S
Mn37 N53 2.282 . S
Mn37 O61 2.215 . S
Mn37 O63 2.117 . S
C38 O60 1.234 . S
C38 O61 1.283 . S
C39 O51 1.281 . S
C39 O52 1.236 . S
C40 O62 1.240 . S
C40 O63 1.264 . S
O41 Mn36 2.095 1_655 S
O41 C50 1.250 . S
O42 Mn37 2.121 1_655 S
O42 C50 1.258 . S
C43 N44 1.326 . S
C43 C47 1.460 . S
C43 H49 0.929 . S
N44 Mn37 2.257 . S
N44 C43 1.326 . S
N44 C48 1.362 . S
C45 C46 1.258 . S
C45 C48 1.431 . S
C45 C65 1.449 . S
C46 C45 1.258 . S
C46 C47 1.477 . S
C46 H66 0.931 . S
C47 C43 1.460 . S
C47 C46 1.477 . S
C47 H67 0.930 . S
C48 N44 1.362 . S
C48 C45 1.431 . S
C48 C58 1.476 . S
H49 C43 0.929 . S
C50 O41 1.250 . S
C50 O42 1.258 . S
O51 Mn36 2.162 . S
O51 C39 1.281 . S
O52 Mn36 2.297 . S
O52 C39 1.236 . S
N53 Mn37 2.282 . S
N53 C54 1.328 . S
N53 C58 1.318 . S
C54 N53 1.328 . S
C54 C55 1.457 . S
C54 H59 0.929 . S
C55 C54 1.457 . S
C55 C56 1.291 . S
C55 H68 0.931 . S
C56 C55 1.291 . S
C56 C57 1.373 . S
C56 H69 0.929 . S
C57 C56 1.373 . S
C57 C58 1.396 . S
C57 C64 1.403 . S
C58 C48 1.476 . S
C58 N53 1.318 . S
C58 C57 1.396 . S
H59 C54 0.929 . S
O60 Mn36 2.385 . S
O60 C38 1.234 . S
O61 Mn36 2.209 . S
O61 Mn37 2.215 . S
O61 C38 1.283 . S
O62 Mn36 2.094 . S
O62 C40 1.240 . S
O63 Mn37 2.117 . S
O63 C40 1.264 . S
C64 C57 1.403 . S
C64 C65 1.399 . S
C64 H70 0.929 . S
C65 C45 1.449 . S
C65 C64 1.399 . S
C65 H71 0.930 . S
H66 C46 0.931 . S
H67 C47 0.930 . S
H68 C55 0.931 . S
H69 C56 0.929 . S
H70 C64 0.929 . S
H71 C65 0.930 . S
Mn72 O77 2.095 1_554 S
Mn72 O87 2.162 . S
Mn72 O88 2.297 1_554 S
Mn72 O96 2.385 . S
Mn72 O97 2.209 1_554 S
Mn72 O98 2.094 . S
Mn73 O78 2.121 . S
Mn73 N80 2.257 . S
Mn73 N89 2.282 . S
Mn73 O97 2.215 . S
Mn73 O99 2.117 1_556 S
C74 O96 1.234 1_556 S
C74 O97 1.283 . S
C75 O87 1.281 . S
C75 O88 1.236 1_554 S
C76 O98 1.240 . S
C76 O99 1.264 . S
O77 Mn72 2.095 1_556 S
O77 C86 1.250 . S
O78 Mn73 2.121 . S
O78 C86 1.258 . S
C79 N80 1.326 . S
C79 C83 1.460 . S
C79 H85 0.929 . S
N80 Mn73 2.257 . S
N80 C79 1.326 . S
N80 C84 1.362 . S
C81 C82 1.258 . S
C81 C84 1.431 . S
C81 C101 1.449 . S
C82 C81 1.258 . S
C82 C83 1.477 . S
C82 H102 0.931 . S
C83 C79 1.460 . S
C83 C82 1.477 . S
C83 H103 0.930 . S
C84 N80 1.362 . S
C84 C81 1.431 . S
C84 C94 1.476 . S
H85 C79 0.929 . S
C86 O77 1.250 . S
C86 O78 1.258 . S
O87 Mn72 2.162 . S
O87 C75 1.281 . S
O88 Mn72 2.297 1_556 S
O88 C75 1.236 1_556 S
N89 Mn73 2.282 . S
N89 C90 1.328 . S
N89 C94 1.318 . S
C90 N89 1.328 . S
C90 C91 1.457 . S
C90 H95 0.929 . S
C91 C90 1.457 . S
C91 C92 1.291 . S
C91 H104 0.931 . S
C92 C91 1.291 . S
C92 C93 1.373 . S
C92 H105 0.929 . S
C93 C92 1.373 . S
C93 C94 1.396 . S
C93 C100 1.403 . S
C94 C84 1.476 . S
C94 N89 1.318 . S
C94 C93 1.396 . S
H95 C90 0.929 . S
O96 Mn72 2.385 . S
O96 C74 1.234 1_554 S
O97 Mn72 2.209 1_556 S
O97 Mn73 2.215 . S
O97 C74 1.283 . S
O98 Mn72 2.094 . S
O98 C76 1.240 . S
O99 Mn73 2.117 1_554 S
O99 C76 1.264 . S
C100 C93 1.403 . S
C100 C101 1.399 . S
C100 H106 0.929 . S
C101 C81 1.449 . S
C101 C100 1.399 . S
C101 H107 0.930 . S
H102 C82 0.931 . S
H103 C83 0.930 . S
H104 C91 0.931 . S
H105 C92 0.929 . S
H106 C100 0.929 . S
H107 C101 0.930 . S
Mn108 O113 2.095 . S
Mn108 O123 2.162 . S
Mn108 O124 2.297 . S
Mn108 O132 2.385 . S
Mn108 O133 2.209 . S
Mn108 O134 2.094 . S
Mn109 O114 2.121 . S
Mn109 N116 2.257 . S
Mn109 N125 2.282 . S
Mn109 O133 2.215 . S
Mn109 O135 2.117 . S
C110 O132 1.234 . S
C110 O133 1.283 . S
C111 O123 1.281 . S
C111 O124 1.236 . S
C112 O134 1.240 . S
C112 O135 1.264 . S
O113 Mn108 2.095 . S
O113 C122 1.250 . S
O114 Mn109 2.121 . S
O114 C122 1.258 . S
C115 N116 1.326 . S
C115 C119 1.460 1_554 S
C115 H121 0.929 . S
N116 Mn109 2.257 . S
N116 C115 1.326 . S
N116 C120 1.362 . S
C117 C118 1.258 . S
C117 C120 1.431 1_556 S
C117 C137 1.449 . S
C118 C117 1.258 . S
C118 C119 1.477 . S
C118 H138 0.931 . S
C119 C115 1.460 1_556 S
C119 C118 1.477 . S
C119 H139 0.930 . S
C120 N116 1.362 . S
C120 C117 1.431 1_554 S
C120 C130 1.476 . S
H121 C115 0.929 . S
C122 O113 1.250 . S
C122 O114 1.258 . S
O123 Mn108 2.162 . S
O123 C111 1.281 . S
O124 Mn108 2.297 . S
O124 C111 1.236 . S
N125 Mn109 2.282 . S
N125 C126 1.328 . S
N125 C130 1.318 . S
C126 N125 1.328 . S
C126 C127 1.457 . S
C126 H131 0.929 . S
C127 C126 1.457 . S
C127 C128 1.291 . S
C127 H140 0.931 . S
C128 C127 1.291 . S
C128 C129 1.373 . S
C128 H141 0.929 . S
C129 C128 1.373 . S
C129 C130 1.396 . S
C129 C136 1.375 1_554 S
C130 C120 1.476 . S
C130 N125 1.318 . S
C130 C129 1.396 . S
H131 C126 0.929 . S
O132 Mn108 2.385 . S
O132 C110 1.234 . S
O133 Mn108 2.209 . S
O133 Mn109 2.215 . S
O133 C110 1.283 . S
O134 Mn108 2.094 . S
O134 C112 1.240 . S
O135 Mn109 2.117 . S
O135 C112 1.264 . S
C136 C129 1.375 1_556 S
C136 C137 1.425 . S
C136 H142 0.932 . S
C137 C117 1.449 . S
C137 C136 1.425 . S
C137 H143 0.930 . S
H138 C118 0.931 . S
H139 C119 0.930 . S
H140 C127 0.931 . S
H141 C128 0.929 . S
H142 C136 0.932 . S
H143 C137 0.930 . S
Mn144 O149 2.095 . S
Mn144 O159 2.162 . S
Mn144 O160 2.297 . S
Mn144 O168 2.385 . S
Mn144 O169 2.209 . S
Mn144 O170 2.094 . S
Mn145 O150 2.121 . S
Mn145 N152 2.257 . S
Mn145 N161 2.282 . S
Mn145 O169 2.215 . S
Mn145 O171 2.117 . S
C146 O168 1.234 . S
C146 O169 1.283 . S
C147 O159 1.281 . S
C147 O160 1.236 . S
C148 O170 1.240 . S
C148 O171 1.264 . S
O149 Mn144 2.095 . S
O149 C158 1.250 . S
O150 Mn145 2.121 . S
O150 C158 1.258 . S
C151 N152 1.326 . S
C151 C155 1.460 . S
C151 H157 0.929 . S
N152 Mn145 2.257 . S
N152 C151 1.326 . S
N152 C156 1.362 . S
C153 C154 1.258 . S
C153 C156 1.431 . S
C153 C173 1.449 1_455 S
C154 C153 1.258 . S
C154 C155 1.477 . S
C154 H174 0.931 1_554 S
C155 C151 1.460 . S
C155 C154 1.477 . S
C155 H175 0.930 . S
C156 N152 1.362 . S
C156 C153 1.431 . S
C156 C166 1.476 . S
H157 C151 0.929 . S
C158 O149 1.250 . S
C158 O150 1.258 . S
O159 Mn144 2.162 . S
O159 C147 1.281 . S
O160 Mn144 2.297 . S
O160 C147 1.236 . S
N161 Mn145 2.282 . S
N161 C162 1.328 1_455 S
N161 C166 1.318 . S
C162 N161 1.328 1_655 S
C162 C163 1.457 . S
C162 H167 0.929 . S
C163 C162 1.457 . S
C163 C164 1.291 . S
C163 H176 0.931 . S
C164 C163 1.291 . S
C164 C165 1.373 . S
C164 H177 0.929 . S
C165 C164 1.373 . S
C165 C166 1.396 1_655 S
C165 C172 1.403 . S
C166 C156 1.476 . S
C166 N161 1.318 . S
C166 C165 1.396 1_455 S
H167 C162 0.929 . S
O168 Mn144 2.385 . S
O168 C146 1.234 . S
O169 Mn144 2.209 . S
O169 Mn145 2.215 . S
O169 C146 1.283 . S
O170 Mn144 2.094 . S
O170 C148 1.240 . S
O171 Mn145 2.117 . S
O171 C148 1.264 . S
C172 C165 1.403 . S
C172 C173 1.399 . S
C172 H178 0.929 . S
C173 C153 1.449 1_655 S
C173 C172 1.399 . S
C173 H179 0.930 . S
H174 C154 0.931 1_556 S
H175 C155 0.930 . S
H176 C163 0.931 . S
H177 C164 0.929 . S
H178 C172 0.929 . S
H179 C173 0.930 . S
Mn180 O185 2.095 . S
Mn180 O195 2.162 . S
Mn180 O196 2.297 . S
Mn180 O204 2.385 . S
Mn180 O205 2.209 . S
Mn180 O206 2.094 . S
Mn181 O186 2.121 . S
Mn181 N188 2.257 . S
Mn181 N197 2.282 . S
Mn181 O205 2.215 . S
Mn181 O207 2.117 . S
C182 O204 1.234 . S
C182 O205 1.283 . S
C183 O195 1.281 . S
C183 O196 1.236 . S
C184 O206 1.240 . S
C184 O207 1.264 . S
O185 Mn180 2.095 . S
O185 C194 1.250 . S
O186 Mn181 2.121 . S
O186 C194 1.258 . S
C187 N188 1.326 . S
C187 C191 1.460 . S
C187 H193 0.929 . S
N188 Mn181 2.257 . S
N188 C187 1.326 . S
N188 C192 1.362 . S
C189 C190 1.258 . S
C189 C192 1.431 . S
C189 C209 1.449 . S
C190 C189 1.258 . S
C190 C191 1.477 . S
C190 H210 0.931 . S
C191 C187 1.460 . S
C191 C190 1.477 . S
C191 H211 0.930 . S
C192 N188 1.362 . S
C192 C189 1.431 . S
C192 C202 1.476 . S
H193 C187 0.929 . S
C194 O185 1.250 . S
C194 O186 1.258 . S
O195 Mn180 2.162 . S
O195 C183 1.281 . S
O196 Mn180 2.297 . S
O196 C183 1.236 . S
N197 Mn181 2.282 . S
N197 C198 1.328 . S
N197 C202 1.318 . S
C198 N197 1.328 . S
C198 C199 1.457 . S
C198 H203 0.929 . S
C199 C198 1.457 . S
C199 C200 1.291 . S
C199 H212 0.931 . S
C200 C199 1.291 . S
C200 C201 1.373 . S
C200 H213 0.929 . S
C201 C200 1.373 . S
C201 C202 1.396 . S
C201 C208 1.403 . S
C202 C192 1.476 . S
C202 N197 1.318 . S
C202 C201 1.396 . S
H203 C198 0.929 . S
O204 Mn180 2.385 . S
O204 C182 1.234 . S
O205 Mn180 2.209 . S
O205 Mn181 2.215 . S
O205 C182 1.283 . S
O206 Mn180 2.094 . S
O206 C184 1.240 . S
O207 Mn181 2.117 . S
O207 C184 1.264 . S
C208 C201 1.403 . S
C208 C209 1.399 . S
C208 H214 0.929 . S
C209 C189 1.449 . S
C209 C208 1.399 . S
C209 H215 0.930 . S
H210 C190 0.931 . S
H211 C191 0.930 . S
H212 C199 0.931 . S
H213 C200 0.929 . S
H214 C208 0.929 . S
H215 C209 0.930 . S
Mn216 O221 2.095 . S
Mn216 O231 2.162 . S
Mn216 O232 2.297 . S
Mn216 O240 2.385 . S
Mn216 O241 2.209 . S
Mn216 O242 2.094 . S
Mn217 O222 2.121 . S
Mn217 N224 2.257 . S
Mn217 N233 2.282 . S
Mn217 O241 2.215 . S
Mn217 O243 2.117 . S
C218 O240 1.234 . S
C218 O241 1.283 . S
C219 O231 1.281 . S
C219 O232 1.236 . S
C220 O242 1.240 . S
C220 O243 1.264 . S
O221 Mn216 2.095 . S
O221 C230 1.250 . S
O222 Mn217 2.121 . S
O222 C230 1.258 . S
C223 N224 1.326 . S
C223 C227 1.460 . S
C223 H229 0.929 . S
N224 Mn217 2.257 . S
N224 C223 1.326 . S
N224 C228 1.362 . S
C225 C226 1.258 . S
C225 C228 1.431 . S
C225 C245 1.449 . S
C226 C225 1.258 . S
C226 C227 1.477 . S
C226 H246 0.931 . S
C227 C223 1.460 . S
C227 C226 1.477 . S
C227 H247 0.930 . S
C228 N224 1.362 . S
C228 C225 1.431 . S
C228 C238 1.476 . S
H229 C223 0.929 . S
C230 O221 1.250 . S
C230 O222 1.258 . S
O231 Mn216 2.162 . S
O231 C219 1.281 . S
O232 Mn216 2.297 . S
O232 C219 1.236 . S
N233 Mn217 2.282 . S
N233 C234 1.328 . S
N233 C238 1.318 . S
C234 N233 1.328 . S
C234 C235 1.457 . S
C234 H239 0.929 . S
C235 C234 1.457 . S
C235 C236 1.291 . S
C235 H248 0.931 . S
C236 C235 1.291 . S
C236 C237 1.373 . S
C236 H249 0.929 . S
C237 C236 1.373 . S
C237 C238 1.396 . S
C237 C244 1.403 . S
C238 C228 1.476 . S
C238 N233 1.318 . S
C238 C237 1.396 . S
H239 C234 0.929 . S
O240 Mn216 2.385 . S
O240 C218 1.234 . S
O241 Mn216 2.209 . S
O241 Mn217 2.215 . S
O241 C218 1.283 . S
O242 Mn216 2.094 . S
O242 C220 1.240 . S
O243 Mn217 2.117 . S
O243 C220 1.264 . S
C244 C237 1.403 . S
C244 C245 1.399 . S
C244 H250 0.929 . S
C245 C225 1.449 . S
C245 C244 1.399 . S
C245 H251 0.930 . S
H246 C226 0.931 . S
H247 C227 0.930 . S
H248 C235 0.931 . S
H249 C236 0.929 . S
H250 C244 0.929 . S
H251 C245 0.930 . S
Mn252 O257 2.095 . S
Mn252 O267 2.162 1_556 S
Mn252 O268 2.297 1_455 S
Mn252 O276 2.385 1_455 S
Mn252 O277 2.209 1_455 S
Mn252 O278 2.094 1_556 S
Mn253 O258 2.121 . S
Mn253 N260 2.257 1_455 S
Mn253 N269 2.282 1_455 S
Mn253 O277 2.215 1_455 S
Mn253 O279 2.117 . S
C254 O276 1.234 . S
C254 O277 1.283 . S
C255 O267 1.281 1_556 S
C255 O268 1.236 1_455 S
C256 O278 1.240 1_556 S
C256 O279 1.264 . S
O257 Mn252 2.095 . S
O257 C266 1.250 . S
O258 Mn253 2.121 . S
O258 C266 1.258 . S
C259 N260 1.326 . S
C259 C263 1.460 . S
C259 H265 0.929 1_655 S
N260 Mn253 2.257 1_655 S
N260 C259 1.326 . S
N260 C264 1.362 . S
C261 C262 1.258 . S
C261 C264 1.431 . S
C261 C281 1.449 . S
C262 C261 1.258 . S
C262 C263 1.477 . S
C262 H282 0.931 . S
C263 C259 1.460 . S
C263 C262 1.477 . S
C263 H283 0.930 . S
C264 N260 1.362 . S
C264 C261 1.431 . S
C264 C274 1.476 . S
H265 C259 0.929 1_455 S
C266 O257 1.250 . S
C266 O258 1.258 . S
O267 Mn252 2.162 1_554 S
O267 C255 1.281 1_554 S
O268 Mn252 2.297 1_655 S
O268 C255 1.236 1_655 S
N269 Mn253 2.282 1_655 S
N269 C270 1.328 . S
N269 C274 1.318 . S
C270 N269 1.328 . S
C270 C271 1.457 . S
C270 H275 0.929 . S
C271 C270 1.457 . S
C271 C272 1.291 . S
C271 H284 0.931 . S
C272 C271 1.291 . S
C272 C273 1.373 . S
C272 H285 0.929 . S
C273 C272 1.373 . S
C273 C274 1.396 . S
C273 C280 1.403 . S
C274 C264 1.476 . S
C274 N269 1.318 . S
C274 C273 1.396 . S
H275 C270 0.929 . S
O276 Mn252 2.385 1_655 S
O276 C254 1.234 . S
O277 Mn252 2.209 1_655 S
O277 Mn253 2.215 1_655 S
O277 C254 1.283 . S
O278 Mn252 2.094 1_554 S
O278 C256 1.240 1_554 S
O279 Mn253 2.117 . S
O279 C256 1.264 . S
C280 C273 1.403 . S
C280 C281 1.399 . S
C280 H286 0.929 . S
C281 C261 1.449 . S
C281 C280 1.399 . S
C281 H287 0.930 . S
H282 C262 0.931 . S
H283 C263 0.930 . S
H284 C271 0.931 . S
H285 C272 0.929 . S
H286 C280 0.929 . S
H287 C281 0.930 . S
Mn288 O293 2.095 . S
Mn288 O303 2.162 . S
Mn288 O304 2.297 . S
Mn288 O312 2.385 1_545 S
Mn288 O313 2.209 . S
Mn288 O314 2.094 . S
Mn289 O294 2.121 . S
Mn289 N296 2.257 . S
Mn289 N305 2.282 1_545 S
Mn289 O313 2.215 . S
Mn289 O315 2.117 . S
C290 O312 1.234 . S
C290 O313 1.283 1_565 S
C291 O303 1.281 . S
C291 O304 1.236 . S
C292 O314 1.240 . S
C292 O315 1.264 . S
O293 Mn288 2.095 . S
O293 C302 1.250 . S
O294 Mn289 2.121 . S
O294 C302 1.258 . S
C295 N296 1.326 . S
C295 C299 1.460 . S
C295 H301 0.929 . S
N296 Mn289 2.257 . S
N296 C295 1.326 . S
N296 C300 1.362 1_545 S
C297 C298 1.258 . S
C297 C300 1.431 . S
C297 C317 1.449 . S
C298 C297 1.258 . S
C298 C299 1.477 1_565 S
C298 H318 0.931 . S
C299 C295 1.460 . S
C299 C298 1.477 1_545 S
C299 H319 0.930 . S
C300 N296 1.362 1_565 S
C300 C297 1.431 . S
C300 C310 1.476 . S
H301 C295 0.929 . S
C302 O293 1.250 . S
C302 O294 1.258 . S
O303 Mn288 2.162 . S
O303 C291 1.281 . S
O304 Mn288 2.297 . S
O304 C291 1.236 . S
N305 Mn289 2.282 1_565 S
N305 C306 1.328 . S
N305 C310 1.318 . S
C306 N305 1.328 . S
C306 C307 1.457 . S
C306 H311 0.929 . S
C307 C306 1.457 . S
C307 C308 1.291 . S
C307 H320 0.931 . S
C308 C307 1.291 . S
C308 C309 1.373 . S
C308 H321 0.929 . S
C309 C308 1.373 . S
C309 C310 1.396 . S
C309 C316 1.403 . S
C310 C300 1.476 . S
C310 N305 1.318 . S
C310 C309 1.396 . S
H311 C306 0.929 . S
O312 Mn288 2.385 1_565 S
O312 C290 1.234 . S
O313 Mn288 2.209 . S
O313 Mn289 2.215 . S
O313 C290 1.283 1_545 S
O314 Mn288 2.094 . S
O314 C292 1.240 . S
O315 Mn289 2.117 . S
O315 C292 1.264 . S
C316 C309 1.403 . S
C316 C317 1.399 . S
C316 H322 0.929 . S
C317 C297 1.449 . S
C317 C316 1.399 . S
C317 H323 0.930 . S
H318 C298 0.931 . S
H319 C299 0.930 . S
H320 C307 0.931 . S
H321 C308 0.929 . S
H322 C316 0.929 . S
H323 C317 0.930 . S
Mn324 O329 2.095 . S
Mn324 O339 2.162 . S
Mn324 O340 2.297 . S
Mn324 O348 2.385 . S
Mn324 O349 2.209 . S
Mn324 O350 2.094 . S
Mn325 O330 2.121 . S
Mn325 N332 2.257 . S
Mn325 N341 2.282 . S
Mn325 O349 2.215 . S
Mn325 O351 2.117 . S
C326 O348 1.234 . S
C326 O349 1.283 . S
C327 O339 1.281 . S
C327 O340 1.236 . S
C328 O350 1.240 . S
C328 O351 1.264 . S
O329 Mn324 2.095 . S
O329 C338 1.250 . S
O330 Mn325 2.121 . S
O330 C338 1.258 . S
C331 N332 1.326 . S
C331 C335 1.460 1_545 S
C331 H337 0.929 . S
N332 Mn325 2.257 . S
N332 C331 1.326 . S
N332 C336 1.362 . S
C333 C334 1.258 1_545 S
C333 C336 1.431 . S
C333 C353 1.449 1_545 S
C334 C333 1.258 1_565 S
C334 C335 1.477 . S
C334 H354 0.931 . S
C335 C331 1.460 1_565 S
C335 C334 1.477 . S
C335 H355 0.930 . S
C336 N332 1.362 . S
C336 C333 1.431 . S
C336 C346 1.476 . S
H337 C331 0.929 . S
C338 O329 1.250 . S
C338 O330 1.258 . S
O339 Mn324 2.162 . S
O339 C327 1.281 . S
O340 Mn324 2.297 . S
O340 C327 1.236 . S
N341 Mn325 2.282 . S
N341 C342 1.328 . S
N341 C346 1.318 . S
C342 N341 1.328 . S
C342 C343 1.457 . S
C342 H347 0.929 . S
C343 C342 1.457 . S
C343 C344 1.291 . S
C343 H356 0.931 . S
C344 C343 1.291 . S
C344 C345 1.373 . S
C344 H357 0.929 . S
C345 C344 1.373 . S
C345 C346 1.396 . S
C345 C352 1.403 . S
C346 C336 1.476 . S
C346 N341 1.318 . S
C346 C345 1.396 . S
H347 C342 0.929 . S
O348 Mn324 2.385 . S
O348 C326 1.234 . S
O349 Mn324 2.209 . S
O349 Mn325 2.215 . S
O349 C326 1.283 . S
O350 Mn324 2.094 . S
O350 C328 1.240 . S
O351 Mn325 2.117 . S
O351 C328 1.264 . S
C352 C345 1.403 . S
C352 C353 1.399 1_545 S
C352 H358 0.929 . S
C353 C333 1.449 1_565 S
C353 C352 1.399 1_565 S
C353 H359 0.930 . S
H354 C334 0.931 . S
H355 C335 0.930 . S
H356 C343 0.931 . S
H357 C344 0.929 . S
H358 C352 0.929 . S
H359 C353 0.930 . S
Mn360 O365 2.095 1_545 S
Mn360 O375 2.162 1_545 S
Mn360 O376 2.297 1_545 S
Mn360 O384 2.385 . S
Mn360 O385 2.209 . S
Mn360 O386 2.094 . S
Mn361 O366 2.121 1_545 S
Mn361 N368 2.257 . S
Mn361 N377 2.282 . S
Mn361 O385 2.215 . S
Mn361 O387 2.117 . S
C362 O384 1.234 . S
C362 O385 1.283 . S
C363 O375 1.281 . S
C363 O376 1.236 . S
C364 O386 1.240 . S
C364 O387 1.264 . S
O365 Mn360 2.095 1_565 S
O365 C374 1.250 . S
O366 Mn361 2.121 1_565 S
O366 C374 1.258 . S
C367 N368 1.326 . S
C367 C371 1.460 . S
C367 H373 0.929 1_545 S
N368 Mn361 2.257 . S
N368 C367 1.326 . S
N368 C372 1.362 . S
C369 C370 1.258 . S
C369 C372 1.431 . S
C369 C389 1.449 . S
C370 C369 1.258 . S
C370 C371 1.477 . S
C370 H390 0.931 . S
C371 C367 1.460 . S
C371 C370 1.477 . S
C371 H391 0.930 . S
C372 N368 1.362 . S
C372 C369 1.431 . S
C372 C382 1.476 . S
H373 C367 0.929 1_565 S
C374 O365 1.250 . S
C374 O366 1.258 . S
O375 Mn360 2.162 1_565 S
O375 C363 1.281 . S
O376 Mn360 2.297 1_565 S
O376 C363 1.236 . S
N377 Mn361 2.282 . S
N377 C378 1.328 . S
N377 C382 1.318 . S
C378 N377 1.328 . S
C378 C379 1.457 . S
C378 H383 0.929 . S
C379 C378 1.457 . S
C379 C380 1.291 . S
C379 H392 0.931 . S
C380 C379 1.291 . S
C380 C381 1.373 . S
C380 H393 0.929 . S
C381 C380 1.373 . S
C381 C382 1.396 . S
C381 C388 1.403 . S
C382 C372 1.476 . S
C382 N377 1.318 . S
C382 C381 1.396 . S
H383 C378 0.929 . S
O384 Mn360 2.385 . S
O384 C362 1.234 . S
O385 Mn360 2.209 . S
O385 Mn361 2.215 . S
O385 C362 1.283 . S
O386 Mn360 2.094 . S
O386 C364 1.240 . S
O387 Mn361 2.117 . S
O387 C364 1.264 . S
C388 C381 1.403 . S
C388 C389 1.399 . S
C388 H394 0.929 . S
C389 C369 1.449 . S
C389 C388 1.399 . S
C389 H395 0.930 . S
H390 C370 0.931 . S
H391 C371 0.930 . S
H392 C379 0.931 . S
H393 C380 0.929 . S
H394 C388 0.929 . S
H395 C389 0.930 . S
Mn396 O401 2.095 1_554 S
Mn396 O411 2.162 . S
Mn396 O412 2.297 . S
Mn396 O420 2.385 . S
Mn396 O421 2.209 . S
Mn396 O422 2.094 1_554 S
Mn397 O402 2.121 . S
Mn397 N404 2.257 . S
Mn397 N413 2.282 . S
Mn397 O421 2.215 1_556 S
Mn397 O423 2.117 . S
C398 O420 1.234 . S
C398 O421 1.283 . S
C399 O411 1.281 . S
C399 O412 1.236 . S
C400 O422 1.240 . S
C400 O423 1.264 . S
O401 Mn396 2.095 1_556 S
O401 C410 1.250 . S
O402 Mn397 2.121 . S
O402 C410 1.258 . S
C403 N404 1.326 . S
C403 C407 1.460 . S
C403 H409 0.929 . S
N404 Mn397 2.257 . S
N404 C403 1.326 . S
N404 C408 1.362 . S
C405 C406 1.258 . S
C405 C408 1.431 . S
C405 C425 1.449 . S
C406 C405 1.258 . S
C406 C407 1.477 . S
C406 H426 0.931 1_565 S
C407 C403 1.460 . S
C407 C406 1.477 . S
C407 H427 0.930 1_556 S
C408 N404 1.362 . S
C408 C405 1.431 . S
C408 C418 1.476 . S
H409 C403 0.929 . S
C410 O401 1.250 . S
C410 O402 1.258 . S
O411 Mn396 2.162 . S
O411 C399 1.281 . S
O412 Mn396 2.297 . S
O412 C399 1.236 . S
N413 Mn397 2.282 . S
N413 C414 1.328 . S
N413 C418 1.318 . S
C414 N413 1.328 . S
C414 C415 1.457 . S
C414 H419 0.929 . S
C415 C414 1.457 . S
C415 C416 1.291 . S
C415 H428 0.931 . S
C416 C415 1.291 . S
C416 C417 1.373 . S
C416 H429 0.929 . S
C417 C416 1.373 . S
C417 C418 1.396 . S
C417 C424 1.403 . S
C418 C408 1.476 . S
C418 N413 1.318 . S
C418 C417 1.396 . S
H419 C414 0.929 . S
O420 Mn396 2.385 . S
O420 C398 1.234 . S
O421 Mn396 2.209 . S
O421 Mn397 2.215 1_554 S
O421 C398 1.283 . S
O422 Mn396 2.094 1_556 S
O422 C400 1.240 . S
O423 Mn397 2.117 . S
O423 C400 1.264 . S
C424 C417 1.403 . S
C424 C425 1.399 . S
C424 H430 0.929 . S
C425 C405 1.449 . S
C425 C424 1.399 . S
C425 H431 0.930 . S
H426 C406 0.931 1_545 S
H427 C407 0.930 1_554 S
H428 C415 0.931 . S
H429 C416 0.929 . S
H430 C424 0.929 . S
H431 C425 0.930 . S
Mn432 O437 2.095 . S
Mn432 O447 2.162 . S
Mn432 O448 2.297 . S
Mn432 O456 2.385 . S
Mn432 O457 2.209 . S
Mn432 O458 2.094 . S
Mn433 O438 2.121 . S
Mn433 N440 2.257 . S
Mn433 N449 2.282 . S
Mn433 O457 2.215 . S
Mn433 O459 2.117 . S
C434 O456 1.234 . S
C434 O457 1.283 . S
C435 O447 1.281 . S
C435 O448 1.236 . S
C436 O458 1.240 . S
C436 O459 1.264 . S
O437 Mn432 2.095 . S
O437 C446 1.250 . S
O438 Mn433 2.121 . S
O438 C446 1.258 . S
C439 N440 1.326 . S
C439 C443 1.460 . S
C439 H445 0.929 . S
N440 Mn433 2.257 . S
N440 C439 1.326 . S
N440 C444 1.362 . S
C441 C442 1.258 . S
C441 C444 1.431 . S
C441 C461 1.449 . S
C442 C441 1.258 . S
C442 C443 1.477 . S
C442 H462 0.931 . S
C443 C439 1.460 . S
C443 C442 1.477 . S
C443 H463 0.930 . S
C444 N440 1.362 . S
C444 C441 1.431 . S
C444 C454 1.476 . S
H445 C439 0.929 . S
C446 O437 1.250 . S
C446 O438 1.258 . S
O447 Mn432 2.162 . S
O447 C435 1.281 . S
O448 Mn432 2.297 . S
O448 C435 1.236 . S
N449 Mn433 2.282 . S
N449 C450 1.328 . S
N449 C454 1.318 . S
C450 N449 1.328 . S
C450 C451 1.457 . S
C450 H455 0.929 . S
C451 C450 1.457 . S
C451 C452 1.291 . S
C451 H464 0.931 1_554 S
C452 C451 1.291 . S
C452 C453 1.373 . S
C452 H465 0.929 . S
C453 C452 1.373 . S
C453 C454 1.396 . S
C453 C460 1.403 . S
C454 C444 1.476 . S
C454 N449 1.318 . S
C454 C453 1.396 . S
H455 C450 0.929 . S
O456 Mn432 2.385 . S
O456 C434 1.234 . S
O457 Mn432 2.209 . S
O457 Mn433 2.215 . S
O457 C434 1.283 . S
O458 Mn432 2.094 . S
O458 C436 1.240 . S
O459 Mn433 2.117 . S
O459 C436 1.264 . S
C460 C453 1.403 . S
C460 C461 1.399 . S
C460 H466 0.929 . S
C461 C441 1.449 . S
C461 C460 1.399 . S
C461 H467 0.930 . S
H462 C442 0.931 . S
H463 C443 0.930 . S
H464 C451 0.931 1_556 S
H465 C452 0.929 . S
H466 C460 0.929 . S
H467 C461 0.930 . S
Mn468 O473 2.095 . S
Mn468 O483 2.162 . S
Mn468 O484 2.297 . S
Mn468 O492 2.385 . S
Mn468 O493 2.209 . S
Mn468 O494 2.094 . S
Mn469 O474 2.121 . S
Mn469 N476 2.257 . S
Mn469 N485 2.282 . S
Mn469 O493 2.215 . S
Mn469 O495 2.117 . S
C470 O492 1.234 . S
C470 O493 1.283 . S
C471 O483 1.281 . S
C471 O484 1.236 . S
C472 O494 1.240 . S
C472 O495 1.264 . S
O473 Mn468 2.095 . S
O473 C482 1.250 . S
O474 Mn469 2.121 . S
O474 C482 1.258 . S
C475 N476 1.326 . S
C475 C479 1.460 . S
C475 H481 0.929 . S
N476 Mn469 2.257 . S
N476 C475 1.326 . S
N476 C480 1.362 . S
C477 C478 1.258 . S
C477 C480 1.431 . S
C477 C497 1.449 . S
C478 C477 1.258 . S
C478 C479 1.477 . S
C478 H498 0.931 . S
C479 C475 1.460 . S
C479 C478 1.477 . S
C479 H499 0.930 . S
C480 N476 1.362 . S
C480 C477 1.431 . S
C480 C490 1.476 . S
H481 C475 0.929 . S
C482 O473 1.250 . S
C482 O474 1.258 . S
O483 Mn468 2.162 . S
O483 C471 1.281 . S
O484 Mn468 2.297 . S
O484 C471 1.236 . S
N485 Mn469 2.282 . S
N485 C486 1.328 . S
N485 C490 1.318 . S
C486 N485 1.328 . S
C486 C487 1.457 . S
C486 H491 0.929 . S
C487 C486 1.457 . S
C487 C488 1.291 . S
C487 H500 0.931 . S
C488 C487 1.291 . S
C488 C489 1.373 . S
C488 H501 0.929 . S
C489 C488 1.373 . S
C489 C490 1.396 . S
C489 C496 1.403 . S
C490 C480 1.476 . S
C490 N485 1.318 . S
C490 C489 1.396 . S
H491 C486 0.929 . S
O492 Mn468 2.385 . S
O492 C470 1.234 . S
O493 Mn468 2.209 . S
O493 Mn469 2.215 . S
O493 C470 1.283 . S
O494 Mn468 2.094 . S
O494 C472 1.240 . S
O495 Mn469 2.117 . S
O495 C472 1.264 . S
C496 C489 1.403 . S
C496 C497 1.399 . S
C496 H502 0.929 . S
C497 C477 1.449 . S
C497 C496 1.399 . S
C497 H503 0.930 . S
H498 C478 0.931 . S
H499 C479 0.930 . S
H500 C487 0.931 . S
H501 C488 0.929 . S
H502 C496 0.929 . S
H503 C497 0.930 . S
Mn504 O509 2.095 . S
Mn504 O519 2.162 . S
Mn504 O520 2.297 . S
Mn504 O528 2.385 . S
Mn504 O529 2.209 . S
Mn504 O530 2.094 . S
Mn505 O510 2.121 . S
Mn505 N512 2.257 . S
Mn505 N521 2.282 . S
Mn505 O529 2.215 . S
Mn505 O531 2.117 . S
C506 O528 1.234 . S
C506 O529 1.283 . S
C507 O519 1.281 . S
C507 O520 1.236 . S
C508 O530 1.240 . S
C508 O531 1.264 . S
O509 Mn504 2.095 . S
O509 C518 1.250 . S
O510 Mn505 2.121 . S
O510 C518 1.258 . S
C511 N512 1.326 . S
C511 C515 1.460 . S
C511 H517 0.929 . S
N512 Mn505 2.257 . S
N512 C511 1.326 . S
N512 C516 1.362 . S
C513 C514 1.258 . S
C513 C516 1.431 . S
C513 C533 1.449 . S
C514 C513 1.258 . S
C514 C515 1.477 . S
C514 H534 0.931 . S
C515 C511 1.460 . S
C515 C514 1.477 . S
C515 H535 0.930 . S
C516 N512 1.362 . S
C516 C513 1.431 . S
C516 C526 1.476 . S
H517 C511 0.929 . S
C518 O509 1.250 . S
C518 O510 1.258 . S
O519 Mn504 2.162 . S
O519 C507 1.281 . S
O520 Mn504 2.297 . S
O520 C507 1.236 . S
N521 Mn505 2.282 . S
N521 C522 1.328 . S
N521 C526 1.318 . S
C522 N521 1.328 . S
C522 C523 1.457 . S
C522 H527 0.929 . S
C523 C522 1.457 . S
C523 C524 1.291 . S
C523 H536 0.931 . S
C524 C523 1.291 . S
C524 C525 1.373 . S
C524 H537 0.929 . S
C525 C524 1.373 . S
C525 C526 1.396 . S
C525 C532 1.403 . S
C526 C516 1.476 . S
C526 N521 1.318 . S
C526 C525 1.396 . S
H527 C522 0.929 . S
O528 Mn504 2.385 . S
O528 C506 1.234 . S
O529 Mn504 2.209 . S
O529 Mn505 2.215 . S
O529 C506 1.283 . S
O530 Mn504 2.094 . S
O530 C508 1.240 . S
O531 Mn505 2.117 . S
O531 C508 1.264 . S
C532 C525 1.403 . S
C532 C533 1.399 . S
C532 H538 0.929 . S
C533 C513 1.449 . S
C533 C532 1.399 . S
C533 H539 0.930 . S
H534 C514 0.931 . S
H535 C515 0.930 . S
H536 C523 0.931 . S
H537 C524 0.929 . S
H538 C532 0.929 . S
H539 C533 0.930 . S
Mn540 O545 2.095 . S
Mn540 O555 2.162 . S
Mn540 O556 2.297 . S
Mn540 O564 2.385 . S
Mn540 O565 2.209 . S
Mn540 O566 2.094 . S
Mn541 O546 2.121 . S
Mn541 N548 2.257 . S
Mn541 N557 2.282 . S
Mn541 O565 2.215 . S
Mn541 O567 2.117 . S
C542 O564 1.234 . S
C542 O565 1.283 . S
C543 O555 1.281 . S
C543 O556 1.236 . S
C544 O566 1.240 . S
C544 O567 1.264 . S
O545 Mn540 2.095 . S
O545 C554 1.250 . S
O546 Mn541 2.121 . S
O546 C554 1.258 . S
C547 N548 1.326 1_545 S
C547 C551 1.460 . S
C547 H553 0.925 1_545 S
N548 Mn541 2.257 . S
N548 C547 1.326 1_565 S
N548 C552 1.362 . S
C549 C550 1.258 . S
C549 C552 1.431 1_545 S
C549 C569 1.449 . S
C550 C549 1.258 . S
C550 C551 1.477 . S
C550 H570 0.931 . S
C551 C547 1.460 . S
C551 C550 1.477 . S
C551 H571 0.930 . S
C552 N548 1.362 . S
C552 C549 1.431 1_565 S
C552 C562 1.476 . S
H553 C547 0.925 1_565 S
C554 O545 1.250 . S
C554 O546 1.258 . S
O555 Mn540 2.162 . S
O555 C543 1.281 . S
O556 Mn540 2.297 . S
O556 C543 1.236 . S
N557 Mn541 2.282 . S
N557 C558 1.328 . S
N557 C562 1.318 . S
C558 N557 1.328 . S
C558 C559 1.457 . S
C558 H563 0.929 . S
C559 C558 1.457 . S
C559 C560 1.291 . S
C559 H572 0.931 . S
C560 C559 1.291 . S
C560 C561 1.373 . S
C560 H573 0.929 . S
C561 C560 1.373 . S
C561 C562 1.396 . S
C561 C568 1.403 1_565 S
C562 C552 1.476 . S
C562 N557 1.318 . S
C562 C561 1.396 . S
H563 C558 0.929 . S
O564 Mn540 2.385 . S
O564 C542 1.234 . S
O565 Mn540 2.209 . S
O565 Mn541 2.215 . S
O565 C542 1.283 . S
O566 Mn540 2.094 . S
O566 C544 1.240 . S
O567 Mn541 2.117 . S
O567 C544 1.264 . S
C568 C561 1.403 1_545 S
C568 C569 1.399 . S
C568 H574 0.929 . S
C569 C549 1.449 . S
C569 C568 1.399 . S
C569 H575 0.930 . S
H570 C550 0.931 . S
H571 C551 0.930 . S
H572 C559 0.931 . S
H573 C560 0.929 . S
H574 C568 0.929 . S
H575 C569 0.930 . S
Mn576 O581 2.095 . S
Mn576 O591 2.162 . S
Mn576 O592 2.297 . S
Mn576 O600 2.385 1_545 S
Mn576 O601 2.209 . S
Mn576 O602 2.094 . S
Mn577 O582 2.121 . S
Mn577 N584 2.257 . S
Mn577 N593 2.282 1_545 S
Mn577 O601 2.215 . S
Mn577 O603 2.117 . S
C578 O600 1.234 . S
C578 O601 1.283 1_565 S
C579 O591 1.281 . S
C579 O592 1.236 . S
C580 O602 1.240 . S
C580 O603 1.264 . S
O581 Mn576 2.095 . S
O581 C590 1.250 . S
O582 Mn577 2.121 . S
O582 C590 1.258 . S
C583 N584 1.326 . S
C583 C587 1.460 . S
C583 H589 0.929 . S
N584 Mn577 2.257 . S
N584 C583 1.326 . S
N584 C588 1.362 1_545 S
C585 C586 1.258 . S
C585 C588 1.431 . S
C585 C605 1.449 . S
C586 C585 1.258 . S
C586 C587 1.477 1_565 S
C586 H606 0.931 . S
C587 C583 1.460 . S
C587 C586 1.477 1_545 S
C587 H607 0.930 . S
C588 N584 1.362 1_565 S
C588 C585 1.431 . S
C588 C598 1.476 . S
H589 C583 0.929 . S
C590 O581 1.250 . S
C590 O582 1.258 . S
O591 Mn576 2.162 . S
O591 C579 1.281 . S
O592 Mn576 2.297 . S
O592 C579 1.236 . S
N593 Mn577 2.282 1_565 S
N593 C594 1.328 . S
N593 C598 1.318 . S
C594 N593 1.328 . S
C594 C595 1.457 . S
C594 H599 0.929 . S
C595 C594 1.457 . S
C595 C596 1.291 . S
C595 H608 0.931 . S
C596 C595 1.291 . S
C596 C597 1.373 . S
C596 H609 0.929 . S
C597 C596 1.373 . S
C597 C598 1.396 . S
C597 C604 1.403 . S
C598 C588 1.476 . S
C598 N593 1.318 . S
C598 C597 1.396 . S
H599 C594 0.929 . S
O600 Mn576 2.385 1_565 S
O600 C578 1.234 . S
O601 Mn576 2.209 . S
O601 Mn577 2.215 . S
O601 C578 1.283 1_545 S
O602 Mn576 2.094 . S
O602 C580 1.240 . S
O603 Mn577 2.117 . S
O603 C580 1.264 . S
C604 C597 1.403 . S
C604 C605 1.399 . S
C604 H610 0.929 . S
C605 C585 1.449 . S
C605 C604 1.399 . S
C605 H611 0.930 . S
H606 C586 0.931 . S
H607 C587 0.930 . S
H608 C595 0.931 . S
H609 C596 0.929 . S
H610 C604 0.929 . S
H611 C605 0.930 . S
Mn612 O617 2.095 . S
Mn612 O627 2.162 . S
Mn612 O628 2.297 . S
Mn612 O636 2.385 . S
Mn612 O637 2.209 . S
Mn612 O638 2.094 . S
Mn613 O618 2.121 . S
Mn613 N620 2.257 . S
Mn613 N629 2.282 . S
Mn613 O637 2.215 . S
Mn613 O639 2.117 . S
C614 O636 1.234 . S
C614 O637 1.283 . S
C615 O627 1.281 . S
C615 O628 1.236 . S
C616 O638 1.240 . S
C616 O639 1.264 . S
O617 Mn612 2.095 . S
O617 C626 1.250 . S
O618 Mn613 2.121 . S
O618 C626 1.258 . S
C619 N620 1.326 . S
C619 C623 1.460 . S
C619 H625 0.929 . S
N620 Mn613 2.257 . S
N620 C619 1.326 . S
N620 C624 1.362 . S
C621 C622 1.258 . S
C621 C624 1.431 . S
C621 C641 1.449 . S
C622 C621 1.258 . S
C622 C623 1.477 . S
C622 H642 0.931 . S
C623 C619 1.460 . S
C623 C622 1.477 . S
C623 H643 0.930 . S
C624 N620 1.362 . S
C624 C621 1.431 . S
C624 C634 1.476 . S
H625 C619 0.929 . S
C626 O617 1.250 . S
C626 O618 1.258 . S
O627 Mn612 2.162 . S
O627 C615 1.281 . S
O628 Mn612 2.297 . S
O628 C615 1.236 . S
N629 Mn613 2.282 . S
N629 C630 1.328 . S
N629 C634 1.318 . S
C630 N629 1.328 . S
C630 C631 1.457 . S
C630 H635 0.929 . S
C631 C630 1.457 . S
C631 C632 1.291 . S
C631 H644 0.931 . S
C632 C631 1.291 . S
C632 C633 1.373 . S
C632 H645 0.929 . S
C633 C632 1.373 . S
C633 C634 1.396 . S
C633 C640 1.403 . S
C634 C624 1.476 . S
C634 N629 1.318 . S
C634 C633 1.396 . S
H635 C630 0.929 . S
O636 Mn612 2.385 . S
O636 C614 1.234 . S
O637 Mn612 2.209 . S
O637 Mn613 2.215 . S
O637 C614 1.283 . S
O638 Mn612 2.094 . S
O638 C616 1.240 . S
O639 Mn613 2.117 . S
O639 C616 1.264 . S
C640 C633 1.403 . S
C640 C641 1.399 . S
C640 H646 0.929 . S
C641 C621 1.449 . S
C641 C640 1.399 . S
C641 H647 0.930 . S
H642 C622 0.931 . S
H643 C623 0.930 . S
H644 C631 0.931 . S
H645 C632 0.929 . S
H646 C640 0.929 . S
H647 C641 0.930 . S
Mn648 O653 2.095 . S
Mn648 O663 2.162 . S
Mn648 O664 2.297 . S
Mn648 O672 2.385 . S
Mn648 O673 2.209 . S
Mn648 O674 2.094 . S
Mn649 O654 2.121 . S
Mn649 N656 2.257 . S
Mn649 N665 2.282 . S
Mn649 O673 2.215 . S
Mn649 O675 2.117 . S
C650 O672 1.234 . S
C650 O673 1.283 . S
C651 O663 1.281 . S
C651 O664 1.236 . S
C652 O674 1.240 . S
C652 O675 1.264 . S
O653 Mn648 2.095 . S
O653 C662 1.250 . S
O654 Mn649 2.121 . S
O654 C662 1.258 . S
C655 N656 1.326 . S
C655 C659 1.460 . S
C655 H661 0.929 . S
N656 Mn649 2.257 . S
N656 C655 1.326 . S
N656 C660 1.362 . S
C657 C658 1.258 . S
C657 C660 1.431 . S
C657 C677 1.449 . S
C658 C657 1.258 . S
C658 C659 1.477 . S
C658 H678 0.931 . S
C659 C655 1.460 . S
C659 C658 1.477 . S
C659 H679 0.930 . S
C660 N656 1.362 . S
C660 C657 1.431 . S
C660 C670 1.476 . S
H661 C655 0.929 . S
C662 O653 1.250 . S
C662 O654 1.258 . S
O663 Mn648 2.162 . S
O663 C651 1.281 . S
O664 Mn648 2.297 . S
O664 C651 1.236 . S
N665 Mn649 2.282 . S
N665 C666 1.328 . S
N665 C670 1.318 . S
C666 N665 1.328 . S
C666 C667 1.457 . S
C666 H671 0.929 . S
C667 C666 1.457 . S
C667 C668 1.291 . S
C667 H680 0.931 . S
C668 C667 1.291 . S
C668 C669 1.373 . S
C668 H681 0.929 . S
C669 C668 1.373 . S
C669 C670 1.396 . S
C669 C676 1.403 . S
C670 C660 1.476 . S
C670 N665 1.318 . S
C670 C669 1.396 . S
H671 C666 0.929 . S
O672 Mn648 2.385 . S
O672 C650 1.234 . S
O673 Mn648 2.209 . S
O673 Mn649 2.215 . S
O673 C650 1.283 . S
O674 Mn648 2.094 . S
O674 C652 1.240 . S
O675 Mn649 2.117 . S
O675 C652 1.264 . S
C676 C669 1.403 . S
C676 C677 1.399 . S
C676 H682 0.929 . S
C677 C657 1.449 . S
C677 C676 1.399 . S
C677 H683 0.930 . S
H678 C658 0.931 . S
H679 C659 0.930 . S
H680 C667 0.931 . S
H681 C668 0.929 . S
H682 C676 0.929 . S
H683 C677 0.930 . S
Mn684 O689 2.095 1_545 S
Mn684 O699 2.162 . S
Mn684 O700 2.297 . S
Mn684 O708 2.385 . S
Mn684 O709 2.209 . S
Mn684 O710 2.094 . S
Mn685 O690 2.121 1_545 S
Mn685 N692 2.257 . S
Mn685 N701 2.282 . S
Mn685 O709 2.215 . S
Mn685 O711 2.117 . S
C686 O708 1.234 . S
C686 O709 1.283 . S
C687 O699 1.281 . S
C687 O700 1.236 . S
C688 O710 1.240 . S
C688 O711 1.264 . S
O689 Mn684 2.095 1_565 S
O689 C698 1.250 . S
O690 Mn685 2.121 1_565 S
O690 C698 1.258 . S
C691 N692 1.326 . S
C691 C695 1.460 . S
C691 H697 0.929 . S
N692 Mn685 2.257 . S
N692 C691 1.326 . S
N692 C696 1.362 . S
C693 C694 1.258 . S
C693 C696 1.431 . S
C693 C713 1.449 . S
C694 C693 1.258 . S
C694 C695 1.477 . S
C694 H714 0.931 . S
C695 C691 1.460 . S
C695 C694 1.477 . S
C695 H715 0.930 . S
C696 N692 1.362 . S
C696 C693 1.431 . S
C696 C706 1.476 . S
H697 C691 0.929 . S
C698 O689 1.250 . S
C698 O690 1.258 . S
O699 Mn684 2.162 . S
O699 C687 1.281 . S
O700 Mn684 2.297 . S
O700 C687 1.236 . S
N701 Mn685 2.282 . S
N701 C702 1.328 . S
N701 C706 1.318 . S
C702 N701 1.328 . S
C702 C703 1.457 . S
C702 H707 0.929 . S
C703 C702 1.457 . S
C703 C704 1.291 . S
C703 H716 0.931 . S
C704 C703 1.291 . S
C704 C705 1.373 . S
C704 H717 0.929 . S
C705 C704 1.373 . S
C705 C706 1.396 . S
C705 C712 1.403 . S
C706 C696 1.476 . S
C706 N701 1.318 . S
C706 C705 1.396 . S
H707 C702 0.929 . S
O708 Mn684 2.385 . S
O708 C686 1.234 . S
O709 Mn684 2.209 . S
O709 Mn685 2.215 . S
O709 C686 1.283 . S
O710 Mn684 2.094 . S
O710 C688 1.240 . S
O711 Mn685 2.117 . S
O711 C688 1.264 . S
C712 C705 1.403 . S
C712 C713 1.399 . S
C712 H718 0.929 . S
C713 C693 1.449 . S
C713 C712 1.399 . S
C713 H719 0.930 . S
H714 C694 0.931 . S
H715 C695 0.930 . S
H716 C703 0.931 . S
H717 C704 0.929 . S
H718 C712 0.929 . S
H719 C713 0.930 . S
Mn720 O725 2.095 . S
Mn720 O735 2.162 . S
Mn720 O736 2.297 . S
Mn720 O744 2.385 . S
Mn720 O745 2.209 . S
Mn720 O746 2.094 . S
Mn721 O726 2.121 1_556 S
Mn721 N728 2.257 . S
Mn721 N737 2.282 . S
Mn721 O745 2.215 1_556 S
Mn721 O747 2.117 . S
C722 O744 1.234 . S
C722 O745 1.283 . S
C723 O735 1.281 . S
C723 O736 1.236 . S
C724 O746 1.240 1_556 S
C724 O747 1.264 . S
O725 Mn720 2.095 . S
O725 C734 1.250 . S
O726 Mn721 2.121 1_554 S
O726 C734 1.258 . S
C727 N728 1.326 1_554 S
C727 C731 1.460 . S
C727 H733 0.929 . S
N728 Mn721 2.257 . S
N728 C727 1.326 1_556 S
N728 C732 1.362 . S
C729 C730 1.258 . S
C729 C732 1.431 . S
C729 C749 1.449 . S
C730 C729 1.258 . S
C730 C731 1.477 1_556 S
C730 H750 0.931 . S
C731 C727 1.460 . S
C731 C730 1.477 1_554 S
C731 H751 0.930 . S
C732 N728 1.362 . S
C732 C729 1.431 . S
C732 C742 1.476 . S
H733 C727 0.929 . S
C734 O725 1.250 . S
C734 O726 1.258 . S
O735 Mn720 2.162 . S
O735 C723 1.281 . S
O736 Mn720 2.297 . S
O736 C723 1.236 . S
N737 Mn721 2.282 . S
N737 C738 1.328 . S
N737 C742 1.318 . S
C738 N737 1.328 . S
C738 C739 1.457 . S
C738 H743 0.929 . S
C739 C738 1.457 . S
C739 C740 1.291 . S
C739 H752 0.931 . S
C740 C739 1.291 . S
C740 C741 1.373 . S
C740 H753 0.929 . S
C741 C740 1.373 . S
C741 C742 1.396 . S
C741 C748 1.403 . S
C742 C732 1.476 . S
C742 N737 1.318 . S
C742 C741 1.396 . S
H743 C738 0.929 . S
O744 Mn720 2.385 . S
O744 C722 1.234 . S
O745 Mn720 2.209 . S
O745 Mn721 2.215 1_554 S
O745 C722 1.283 . S
O746 Mn720 2.094 . S
O746 C724 1.240 1_554 S
O747 Mn721 2.117 . S
O747 C724 1.264 . S
C748 C741 1.403 . S
C748 C749 1.399 . S
C748 H754 0.929 . S
C749 C729 1.449 . S
C749 C748 1.399 . S
C749 H755 0.930 . S
H750 C730 0.931 . S
H751 C731 0.930 . S
H752 C739 0.931 . S
H753 C740 0.929 . S
H754 C748 0.929 . S
H755 C749 0.930 . S
Mn756 O761 2.095 . S
Mn756 O771 2.162 . S
Mn756 O772 2.297 . S
Mn756 O780 2.385 . S
Mn756 O781 2.209 . S
Mn756 O782 2.094 . S
Mn757 O762 2.121 . S
Mn757 N764 2.257 . S
Mn757 N773 2.282 . S
Mn757 O781 2.215 . S
Mn757 O783 2.117 . S
C758 O780 1.234 . S
C758 O781 1.283 . S
C759 O771 1.281 . S
C759 O772 1.236 . S
C760 O782 1.240 . S
C760 O783 1.264 . S
O761 Mn756 2.095 . S
O761 C770 1.250 . S
O762 Mn757 2.121 . S
O762 C770 1.258 . S
C763 N764 1.326 . S
C763 C767 1.460 . S
C763 H769 0.929 . S
N764 Mn757 2.257 . S
N764 C763 1.326 . S
N764 C768 1.362 . S
C765 C766 1.258 . S
C765 C768 1.431 . S
C765 C785 1.449 . S
C766 C765 1.258 . S
C766 C767 1.477 . S
C766 H786 0.931 . S
C767 C763 1.460 . S
C767 C766 1.477 . S
C767 H787 0.930 . S
C768 N764 1.362 . S
C768 C765 1.431 . S
C768 C778 1.476 . S
H769 C763 0.929 . S
C770 O761 1.250 . S
C770 O762 1.258 . S
O771 Mn756 2.162 . S
O771 C759 1.281 . S
O772 Mn756 2.297 . S
O772 C759 1.236 . S
N773 Mn757 2.282 . S
N773 C774 1.328 . S
N773 C778 1.318 . S
C774 N773 1.328 . S
C774 C775 1.457 . S
C774 H779 0.929 . S
C775 C774 1.457 . S
C775 C776 1.291 . S
C775 H788 0.931 . S
C776 C775 1.291 . S
C776 C777 1.373 . S
C776 H789 0.929 . S
C777 C776 1.373 . S
C777 C778 1.396 . S
C777 C784 1.403 . S
C778 C768 1.476 . S
C778 N773 1.318 . S
C778 C777 1.396 . S
H779 C774 0.929 . S
O780 Mn756 2.385 . S
O780 C758 1.234 . S
O781 Mn756 2.209 . S
O781 Mn757 2.215 . S
O781 C758 1.283 . S
O782 Mn756 2.094 . S
O782 C760 1.240 . S
O783 Mn757 2.117 . S
O783 C760 1.264 . S
C784 C777 1.403 . S
C784 C785 1.399 . S
C784 H790 0.929 . S
C785 C765 1.449 . S
C785 C784 1.399 . S
C785 H791 0.930 . S
H786 C766 0.931 . S
H787 C767 0.930 . S
H788 C775 0.931 . S
H789 C776 0.929 . S
H790 C784 0.929 . S
H791 C785 0.930 . S
Mn792 O797 2.095 . S
Mn792 O807 2.162 . S
Mn792 O808 2.297 . S
Mn792 O816 2.385 . S
Mn792 O817 2.209 . S
Mn792 O818 2.094 . S
Mn793 O798 2.121 . S
Mn793 N800 2.257 . S
Mn793 N809 2.282 . S
Mn793 O817 2.215 . S
Mn793 O819 2.117 . S
C794 O816 1.234 . S
C794 O817 1.283 . S
C795 O807 1.281 . S
C795 O808 1.236 . S
C796 O818 1.240 . S
C796 O819 1.264 . S
O797 Mn792 2.095 . S
O797 C806 1.250 . S
O798 Mn793 2.121 . S
O798 C806 1.258 . S
C799 N800 1.326 . S
C799 C803 1.460 . S
C799 H805 0.929 . S
N800 Mn793 2.257 . S
N800 C799 1.326 . S
N800 C804 1.362 . S
C801 C802 1.258 . S
C801 C804 1.431 . S
C801 C821 1.449 . S
C802 C801 1.258 . S
C802 C803 1.477 . S
C802 H822 0.931 . S
C803 C799 1.460 . S
C803 C802 1.477 . S
C803 H823 0.930 . S
C804 N800 1.362 . S
C804 C801 1.431 . S
C804 C814 1.476 . S
H805 C799 0.929 . S
C806 O797 1.250 . S
C806 O798 1.258 . S
O807 Mn792 2.162 . S
O807 C795 1.281 . S
O808 Mn792 2.297 . S
O808 C795 1.236 . S
N809 Mn793 2.282 . S
N809 C810 1.328 . S
N809 C814 1.318 . S
C810 N809 1.328 . S
C810 C811 1.457 . S
C810 H815 0.929 . S
C811 C810 1.457 . S
C811 C812 1.291 . S
C811 H824 0.931 . S
C812 C811 1.291 . S
C812 C813 1.373 . S
C812 H825 0.929 . S
C813 C812 1.373 . S
C813 C814 1.396 . S
C813 C820 1.403 . S
C814 C804 1.476 . S
C814 N809 1.318 . S
C814 C813 1.396 . S
H815 C810 0.929 . S
O816 Mn792 2.385 . S
O816 C794 1.234 . S
O817 Mn792 2.209 . S
O817 Mn793 2.215 . S
O817 C794 1.283 . S
O818 Mn792 2.094 . S
O818 C796 1.240 . S
O819 Mn793 2.117 . S
O819 C796 1.264 . S
C820 C813 1.403 . S
C820 C821 1.399 . S
C820 H826 0.929 . S
C821 C801 1.449 . S
C821 C820 1.399 . S
C821 H827 0.930 . S
H822 C802 0.931 . S
H823 C803 0.930 . S
H824 C811 0.931 . S
H825 C812 0.929 . S
H826 C820 0.929 . S
H827 C821 0.930 . S
Mn828 O833 2.095 . S
Mn828 O843 2.162 . S
Mn828 O844 2.297 . S
Mn828 O852 2.385 . S
Mn828 O853 2.209 . S
Mn828 O854 2.094 . S
Mn829 O834 2.121 . S
Mn829 N836 2.257 . S
Mn829 N845 2.282 . S
Mn829 O853 2.215 . S
Mn829 O855 2.117 . S
C830 O852 1.234 . S
C830 O853 1.283 . S
C831 O843 1.281 . S
C831 O844 1.236 . S
C832 O854 1.240 . S
C832 O855 1.264 . S
O833 Mn828 2.095 . S
O833 C842 1.250 . S
O834 Mn829 2.121 . S
O834 C842 1.258 . S
C835 N836 1.326 . S
C835 C839 1.460 . S
C835 H841 0.929 . S
N836 Mn829 2.257 . S
N836 C835 1.326 . S
N836 C840 1.362 . S
C837 C838 1.258 . S
C837 C840 1.431 . S
C837 C857 1.449 . S
C838 C837 1.258 . S
C838 C839 1.477 . S
C838 H858 0.931 . S
C839 C835 1.460 . S
C839 C838 1.477 . S
C839 H859 0.930 . S
C840 N836 1.362 . S
C840 C837 1.431 . S
C840 C850 1.476 . S
H841 C835 0.929 . S
C842 O833 1.250 . S
C842 O834 1.258 . S
O843 Mn828 2.162 . S
O843 C831 1.281 . S
O844 Mn828 2.297 . S
O844 C831 1.236 . S
N845 Mn829 2.282 . S
N845 C846 1.328 . S
N845 C850 1.318 . S
C846 N845 1.328 . S
C846 C847 1.457 . S
C846 H851 0.929 . S
C847 C846 1.457 . S
C847 C848 1.291 . S
C847 H860 0.931 . S
C848 C847 1.291 . S
C848 C849 1.373 . S
C848 H861 0.929 . S
C849 C848 1.373 . S
C849 C850 1.396 . S
C849 C856 1.403 . S
C850 C840 1.476 . S
C850 N845 1.318 . S
C850 C849 1.396 . S
H851 C846 0.929 . S
O852 Mn828 2.385 . S
O852 C830 1.234 . S
O853 Mn828 2.209 . S
O853 Mn829 2.215 . S
O853 C830 1.283 . S
O854 Mn828 2.094 . S
O854 C832 1.240 . S
O855 Mn829 2.117 . S
O855 C832 1.264 . S
C856 C849 1.403 . S
C856 C857 1.399 . S
C856 H862 0.929 . S
C857 C837 1.449 . S
C857 C856 1.399 . S
C857 H863 0.930 . S
H858 C838 0.931 . S
H859 C839 0.930 . S
H860 C847 0.931 . S
H861 C848 0.929 . S
H862 C856 0.929 . S
H863 C857 0.930 . S
C864 Eu865 2.835 1_565 S
C864 C866 1.500 . S
C864 O884 1.257 . S
C864 O885 1.260 1_565 S
Eu865 C864 2.835 1_545 S
Eu865 O884 2.473 1_545 S
Eu865 O885 2.480 . S
Eu865 O886 2.430 . S
Eu865 O887 2.670 . S
Eu865 O888 2.394 1_545 S
Eu865 O893 2.355 1_545 S
Eu865 O895 2.374 . S
C866 C864 1.500 . S
C866 C867 1.377 . S
C866 C871 1.377 . S
C867 C866 1.377 . S
C867 C868 1.395 . S
C867 H896 0.931 . S
C868 C867 1.395 . S
C868 C869 1.383 . S
C868 H897 0.931 . S
C869 C868 1.383 . S
C869 C870 1.394 . S
C870 C869 1.394 . S
C870 C871 1.378 . S
C870 H898 0.931 . S
C871 C866 1.377 . S
C871 C870 1.378 . S
C871 H899 0.931 . S
C872 O886 1.259 . S
C872 O887 1.270 . S
C873 O888 1.251 . S
C873 O889 1.251 . S
C874 Eu875 2.835 1_545 S
C874 C876 1.500 . S
C874 O890 1.257 . S
C874 O891 1.260 . S
Eu875 C874 2.835 1_565 S
Eu875 O887 2.355 1_665 S
Eu875 O889 2.374 1_655 S
Eu875 O890 2.473 1_565 S
Eu875 O891 2.480 1_565 S
Eu875 O892 2.430 1_654 S
Eu875 O893 2.670 1_655 S
Eu875 O894 2.394 1_665 S
C876 C874 1.500 . S
C876 C877 1.377 . S
C876 C881 1.377 . S
C877 C876 1.377 . S
C877 C878 1.395 . S
C877 H900 0.931 1_554 S
C878 C877 1.395 . S
C878 C879 1.383 . S
C878 H901 0.931 1_554 S
C879 C878 1.383 . S
C879 C880 1.394 . S
C880 C879 1.394 . S
C880 C881 1.378 . S
C880 H902 0.931 . S
C881 C876 1.377 . S
C881 C880 1.378 . S
C881 H903 0.931 . S
C882 O892 1.259 1_554 S
C882 O893 1.270 . S
C883 O894 1.251 . S
C883 O895 1.251 . S
O884 C864 1.257 . S
O884 Eu865 2.473 1_565 S
O885 C864 1.260 1_545 S
O885 Eu865 2.480 . S
O886 Eu865 2.430 . S
O886 C872 1.259 . S
O887 Eu865 2.670 . S
O887 C872 1.270 . S
O887 Eu875 2.355 1_445 S
O888 Eu865 2.394 1_565 S
O888 C873 1.251 . S
O889 C873 1.251 . S
O889 Eu875 2.374 1_455 S
O890 C874 1.257 . S
O890 Eu875 2.473 1_545 S
O891 C874 1.260 . S
O891 Eu875 2.480 1_545 S
O892 Eu875 2.430 1_456 S
O892 C882 1.259 1_556 S
O893 Eu865 2.355 1_565 S
O893 Eu875 2.670 1_455 S
O893 C882 1.270 . S
O894 Eu875 2.394 1_445 S
O894 C883 1.251 . S
O895 Eu865 2.374 . S
O895 C883 1.251 . S
H896 C867 0.931 . S
H897 C868 0.931 . S
H898 C870 0.931 . S
H899 C871 0.931 . S
H900 C877 0.931 1_556 S
H901 C878 0.931 1_556 S
H902 C880 0.931 . S
H903 C881 0.931 . S
C904 Eu905 2.835 . S
C904 C906 1.500 . S
C904 O924 1.257 . S
C904 O925 1.260 . S
Eu905 C904 2.835 . S
Eu905 O924 2.473 . S
Eu905 O925 2.480 . S
Eu905 O926 2.430 . S
Eu905 O927 2.670 . S
Eu905 O928 2.394 . S
Eu905 O933 2.355 . S
Eu905 O935 2.374 . S
C906 C904 1.500 . S
C906 C907 1.377 . S
C906 C911 1.377 . S
C907 C906 1.377 . S
C907 C908 1.395 . S
C907 H936 0.931 . S
C908 C907 1.395 . S
C908 C909 1.383 . S
C908 H937 0.931 . S
C909 C908 1.383 . S
C909 C910 1.394 . S
C910 C909 1.394 . S
C910 C911 1.378 . S
C910 H938 0.931 . S
C911 C906 1.377 . S
C911 C910 1.378 . S
C911 H939 0.931 . S
C912 O926 1.259 . S
C912 O927 1.270 . S
C913 O928 1.251 . S
C913 O929 1.251 . S
C914 Eu915 2.835 . S
C914 C916 1.500 . S
C914 O930 1.257 . S
C914 O931 1.260 . S
Eu915 C914 2.835 . S
Eu915 O927 2.355 . S
Eu915 O929 2.374 . S
Eu915 O930 2.473 . S
Eu915 O931 2.480 . S
Eu915 O932 2.430 . S
Eu915 O933 2.670 . S
Eu915 O934 2.394 . S
C916 C914 1.500 . S
C916 C917 1.377 . S
C916 C921 1.377 . S
C917 C916 1.377 . S
C917 C918 1.395 . S
C917 H940 0.931 . S
C918 C917 1.395 . S
C918 C919 1.383 . S
C918 H941 0.931 . S
C919 C918 1.383 . S
C919 C920 1.394 . S
C920 C919 1.394 . S
C920 C921 1.378 . S
C920 H942 0.931 . S
C921 C916 1.377 . S
C921 C920 1.378 . S
C921 H943 0.931 . S
C922 O932 1.259 . S
C922 O933 1.270 . S
C923 O934 1.251 . S
C923 O935 1.251 . S
O924 C904 1.257 . S
O924 Eu905 2.473 . S
O925 C904 1.260 . S
O925 Eu905 2.480 . S
O926 Eu905 2.430 . S
O926 C912 1.259 . S
O927 Eu905 2.670 . S
O927 C912 1.270 . S
O927 Eu915 2.355 . S
O928 Eu905 2.394 . S
O928 C913 1.251 . S
O929 C913 1.251 . S
O929 Eu915 2.374 . S
O930 C914 1.257 . S
O930 Eu915 2.473 . S
O931 C914 1.260 . S
O931 Eu915 2.480 . S
O932 Eu915 2.430 . S
O932 C922 1.259 . S
O933 Eu905 2.355 . S
O933 Eu915 2.670 . S
O933 C922 1.270 . S
O934 Eu915 2.394 . S
O934 C923 1.251 . S
O935 Eu905 2.374 . S
O935 C923 1.251 . S
H936 C907 0.931 . S
H937 C908 0.931 . S
H938 C910 0.931 . S
H939 C911 0.931 . S
H940 C917 0.931 . S
H941 C918 0.931 . S
H942 C920 0.931 . S
H943 C921 0.931 . S
C944 Eu945 2.835 . S
C944 C946 1.500 . S
C944 O964 1.257 . S
C944 O965 1.260 . S
Eu945 C944 2.835 . S
Eu945 O964 2.473 . S
Eu945 O965 2.480 . S
Eu945 O966 2.430 . S
Eu945 O967 2.670 . S
Eu945 O968 2.394 . S
Eu945 O973 2.355 . S
Eu945 O975 2.374 1_545 S
C946 C944 1.500 . S
C946 C947 1.377 . S
C946 C951 1.377 . S
C947 C946 1.377 . S
C947 C948 1.395 . S
C947 H976 0.931 . S
C948 C947 1.395 . S
C948 C949 1.383 . S
C948 H977 0.931 . S
C949 C948 1.383 . S
C949 C950 1.394 . S
C950 C949 1.394 . S
C950 C951 1.378 . S
C950 H978 0.931 . S
C951 C946 1.377 . S
C951 C950 1.378 . S
C951 H979 0.931 . S
C952 O966 1.259 . S
C952 O967 1.270 . S
C953 O968 1.251 . S
C953 O969 1.251 . S
C954 Eu955 2.835 1_565 S
C954 C956 1.500 . S
C954 O970 1.257 . S
C954 O971 1.260 1_565 S
Eu955 C954 2.835 1_545 S
Eu955 O967 2.355 . S
Eu955 O969 2.374 . S
Eu955 O970 2.473 1_545 S
Eu955 O971 2.480 . S
Eu955 O972 2.430 . S
Eu955 O973 2.670 . S
Eu955 O974 2.394 1_545 S
C956 C954 1.500 . S
C956 C957 1.377 . S
C956 C961 1.377 . S
C957 C956 1.377 . S
C957 C958 1.395 . S
C957 H980 0.931 . S
C958 C957 1.395 . S
C958 C959 1.383 . S
C958 H981 0.931 . S
C959 C958 1.383 . S
C959 C960 1.394 . S
C960 C959 1.394 . S
C960 C961 1.378 . S
C960 H982 0.931 . S
C961 C956 1.377 . S
C961 C960 1.378 . S
C961 H983 0.931 . S
C962 O972 1.259 . S
C962 O973 1.270 . S
C963 O974 1.251 . S
C963 O975 1.251 . S
O964 C944 1.257 . S
O964 Eu945 2.473 . S
O965 C944 1.260 . S
O965 Eu945 2.480 . S
O966 Eu945 2.430 . S
O966 C952 1.259 . S
O967 Eu945 2.670 . S
O967 C952 1.270 . S
O967 Eu955 2.355 . S
O968 Eu945 2.394 . S
O968 C953 1.251 . S
O969 C953 1.251 . S
O969 Eu955 2.374 . S
O970 C954 1.257 . S
O970 Eu955 2.473 1_565 S
O971 C954 1.260 1_545 S
O971 Eu955 2.480 . S
O972 Eu955 2.430 . S
O972 C962 1.259 . S
O973 Eu945 2.355 . S
O973 Eu955 2.670 . S
O973 C962 1.270 . S
O974 Eu955 2.394 1_565 S
O974 C963 1.251 . S
O975 Eu945 2.374 1_565 S
O975 C963 1.251 . S
H976 C947 0.931 . S
H977 C948 0.931 . S
H978 C950 0.931 . S
H979 C951 0.931 . S
H980 C957 0.931 . S
H981 C958 0.931 . S
H982 C960 0.931 . S
H983 C961 0.931 . S
C984 Eu985 2.835 . S
C984 C986 1.500 . S
C984 O1004 1.257 . S
C984 O1005 1.260 . S
Eu985 C984 2.835 . S
Eu985 O1004 2.473 . S
Eu985 O1005 2.480 . S
Eu985 O1006 2.430 . S
Eu985 O1007 2.670 . S
Eu985 O1008 2.394 . S
Eu985 O1013 2.355 . S
Eu985 O1015 2.374 . S
C986 C984 1.500 . S
C986 C987 1.377 . S
C986 C991 1.377 . S
C987 C986 1.377 . S
C987 C988 1.395 . S
C987 H1016 0.931 . S
C988 C987 1.395 . S
C988 C989 1.383 . S
C988 H1017 0.931 . S
C989 C988 1.383 . S
C989 C990 1.394 . S
C990 C989 1.394 . S
C990 C991 1.378 . S
C990 H1018 0.931 . S
C991 C986 1.377 . S
C991 C990 1.378 . S
C991 H1019 0.931 . S
C992 O1006 1.259 . S
C992 O1007 1.270 . S
C993 O1008 1.251 . S
C993 O1009 1.251 . S
C994 Eu995 2.835 . S
C994 C996 1.500 . S
C994 O1010 1.257 . S
C994 O1011 1.260 . S
Eu995 C994 2.835 . S
Eu995 O1007 2.355 . S
Eu995 O1009 2.374 . S
Eu995 O1010 2.473 . S
Eu995 O1011 2.480 . S
Eu995 O1012 2.430 . S
Eu995 O1013 2.670 . S
Eu995 O1014 2.394 . S
C996 C994 1.500 . S
C996 C997 1.377 . S
C996 C1001 1.377 . S
C997 C996 1.377 . S
C997 C998 1.395 . S
C997 H1020 0.931 . S
C998 C997 1.395 . S
C998 C999 1.383 . S
C998 H1021 0.931 . S
C999 C998 1.383 . S
C999 C1000 1.394 . S
C1000 C999 1.394 . S
C1000 C1001 1.378 . S
C1000 H1022 0.931 . S
C1001 C996 1.377 . S
C1001 C1000 1.378 . S
C1001 H1023 0.931 . S
C1002 O1012 1.259 . S
C1002 O1013 1.270 . S
C1003 O1014 1.251 . S
C1003 O1015 1.251 . S
O1004 C984 1.257 . S
O1004 Eu985 2.473 . S
O1005 C984 1.260 . S
O1005 Eu985 2.480 . S
O1006 Eu985 2.430 . S
O1006 C992 1.259 . S
O1007 Eu985 2.670 . S
O1007 C992 1.270 . S
O1007 Eu995 2.355 . S
O1008 Eu985 2.394 . S
O1008 C993 1.251 . S
O1009 C993 1.251 . S
O1009 Eu995 2.374 . S
O1010 C994 1.257 . S
O1010 Eu995 2.473 . S
O1011 C994 1.260 . S
O1011 Eu995 2.480 . S
O1012 Eu995 2.430 . S
O1012 C1002 1.259 . S
O1013 Eu985 2.355 . S
O1013 Eu995 2.670 . S
O1013 C1002 1.270 . S
O1014 Eu995 2.394 . S
O1014 C1003 1.251 . S
O1015 Eu985 2.374 . S
O1015 C1003 1.251 . S
H1016 C987 0.931 . S
H1017 C988 0.931 . S
H1018 C990 0.931 . S
H1019 C991 0.931 . S
H1020 C997 0.931 . S
H1021 C998 0.931 . S
H1022 C1000 0.931 . S
H1023 C1001 0.931 . S
C1024 Eu1025 2.835 . S
C1024 C1026 1.500 . S
C1024 O1044 1.257 . S
C1024 O1045 1.260 . S
Eu1025 C1024 2.835 . S
Eu1025 O1044 2.473 . S
Eu1025 O1045 2.480 . S
Eu1025 O1046 2.430 1_565 S
Eu1025 O1047 2.670 1_565 S
Eu1025 O1048 2.394 . S
Eu1025 O1053 2.355 1_565 S
Eu1025 O1055 2.374 . S
C1026 C1024 1.500 . S
C1026 C1027 1.377 . S
C1026 C1031 1.377 . S
C1027 C1026 1.377 . S
C1027 C1028 1.395 . S
C1027 H1056 0.931 . S
C1028 C1027 1.395 . S
C1028 C1029 1.383 . S
C1028 H1057 0.931 . S
C1029 C1028 1.383 . S
C1029 C1030 1.394 . S
C1030 C1029 1.394 . S
C1030 C1031 1.378 . S
C1030 H1058 0.931 . S
C1031 C1026 1.377 . S
C1031 C1030 1.378 . S
C1031 H1059 0.931 . S
C1032 O1046 1.259 . S
C1032 O1047 1.270 . S
C1033 O1048 1.251 1_545 S
C1033 O1049 1.251 . S
C1034 Eu1035 2.835 . S
C1034 C1036 1.500 . S
C1034 O1050 1.257 . S
C1034 O1051 1.260 . S
Eu1035 C1034 2.835 . S
Eu1035 O1047 2.355 . S
Eu1035 O1049 2.374 . S
Eu1035 O1050 2.473 . S
Eu1035 O1051 2.480 . S
Eu1035 O1052 2.430 1_455 S
Eu1035 O1053 2.670 . S
Eu1035 O1054 2.394 . S
C1036 C1034 1.500 . S
C1036 C1037 1.377 . S
C1036 C1041 1.377 . S
C1037 C1036 1.377 . S
C1037 C1038 1.395 . S
C1037 H1060 0.931 1_455 S
C1038 C1037 1.395 . S
C1038 C1039 1.383 . S
C1038 H1061 0.931 1_455 S
C1039 C1038 1.383 . S
C1039 C1040 1.394 . S
C1040 C1039 1.394 . S
C1040 C1041 1.378 . S
C1040 H1062 0.931 . S
C1041 C1036 1.377 . S
C1041 C1040 1.378 . S
C1041 H1063 0.931 . S
C1042 O1052 1.259 . S
C1042 O1053 1.270 1_655 S
C1043 O1054 1.251 . S
C1043 O1055 1.251 1_545 S
O1044 C1024 1.257 . S
O1044 Eu1025 2.473 . S
O1045 C1024 1.260 . S
O1045 Eu1025 2.480 . S
O1046 Eu1025 2.430 1_545 S
O1046 C1032 1.259 . S
O1047 Eu1025 2.670 1_545 S
O1047 C1032 1.270 . S
O1047 Eu1035 2.355 . S
O1048 Eu1025 2.394 . S
O1048 C1033 1.251 1_565 S
O1049 C1033 1.251 . S
O1049 Eu1035 2.374 . S
O1050 C1034 1.257 . S
O1050 Eu1035 2.473 . S
O1051 C1034 1.260 . S
O1051 Eu1035 2.480 . S
O1052 Eu1035 2.430 1_655 S
O1052 C1042 1.259 . S
O1053 Eu1025 2.355 1_545 S
O1053 Eu1035 2.670 . S
O1053 C1042 1.270 1_455 S
O1054 Eu1035 2.394 . S
O1054 C1043 1.251 . S
O1055 Eu1025 2.374 . S
O1055 C1043 1.251 1_565 S
H1056 C1027 0.931 . S
H1057 C1028 0.931 . S
H1058 C1030 0.931 . S
H1059 C1031 0.931 . S
H1060 C1037 0.931 1_655 S
H1061 C1038 0.931 1_655 S
H1062 C1040 0.931 . S
H1063 C1041 0.931 . S
C1064 Eu1065 2.835 . S
C1064 C1066 1.500 . S
C1064 O1084 1.257 . S
C1064 O1085 1.260 . S
Eu1065 C1064 2.835 . S
Eu1065 O1084 2.473 . S
Eu1065 O1085 2.480 . S
Eu1065 O1086 2.430 . S
Eu1065 O1087 2.670 . S
Eu1065 O1088 2.394 . S
Eu1065 O1093 2.355 . S
Eu1065 O1095 2.374 . S
C1066 C1064 1.500 . S
C1066 C1067 1.377 . S
C1066 C1071 1.377 . S
C1067 C1066 1.377 . S
C1067 C1068 1.395 . S
C1067 H1096 0.931 . S
C1068 C1067 1.395 . S
C1068 C1069 1.383 . S
C1068 H1097 0.931 . S
C1069 C1068 1.383 . S
C1069 C1070 1.394 . S
C1070 C1069 1.394 . S
C1070 C1071 1.378 . S
C1070 H1098 0.931 . S
C1071 C1066 1.377 . S
C1071 C1070 1.378 . S
C1071 H1099 0.931 . S
C1072 O1086 1.259 . S
C1072 O1087 1.270 . S
C1073 O1088 1.251 . S
C1073 O1089 1.251 . S
C1074 Eu1075 2.835 . S
C1074 C1076 1.500 . S
C1074 O1090 1.257 . S
C1074 O1091 1.260 . S
Eu1075 C1074 2.835 . S
Eu1075 O1087 2.355 . S
Eu1075 O1089 2.374 . S
Eu1075 O1090 2.473 . S
Eu1075 O1091 2.480 . S
Eu1075 O1092 2.430 . S
Eu1075 O1093 2.670 . S
Eu1075 O1094 2.394 . S
C1076 C1074 1.500 . S
C1076 C1077 1.377 . S
C1076 C1081 1.377 . S
C1077 C1076 1.377 . S
C1077 C1078 1.395 . S
C1077 H1100 0.931 . S
C1078 C1077 1.395 . S
C1078 C1079 1.383 . S
C1078 H1101 0.931 . S
C1079 C1078 1.383 . S
C1079 C1080 1.394 . S
C1080 C1079 1.394 . S
C1080 C1081 1.378 . S
C1080 H1102 0.931 . S
C1081 C1076 1.377 . S
C1081 C1080 1.378 . S
C1081 H1103 0.931 . S
C1082 O1092 1.259 . S
C1082 O1093 1.270 . S
C1083 O1094 1.251 . S
C1083 O1095 1.251 . S
O1084 C1064 1.257 . S
O1084 Eu1065 2.473 . S
O1085 C1064 1.260 . S
O1085 Eu1065 2.480 . S
O1086 Eu1065 2.430 . S
O1086 C1072 1.259 . S
O1087 Eu1065 2.670 . S
O1087 C1072 1.270 . S
O1087 Eu1075 2.355 . S
O1088 Eu1065 2.394 . S
O1088 C1073 1.251 . S
O1089 C1073 1.251 . S
O1089 Eu1075 2.374 . S
O1090 C1074 1.257 . S
O1090 Eu1075 2.473 . S
O1091 C1074 1.260 . S
O1091 Eu1075 2.480 . S
O1092 Eu1075 2.430 . S
O1092 C1082 1.259 . S
O1093 Eu1065 2.355 . S
O1093 Eu1075 2.670 . S
O1093 C1082 1.270 . S
O1094 Eu1075 2.394 . S
O1094 C1083 1.251 . S
O1095 Eu1065 2.374 . S
O1095 C1083 1.251 . S
H1096 C1067 0.931 . S
H1097 C1068 0.931 . S
H1098 C1070 0.931 . S
H1099 C1071 0.931 . S
H1100 C1077 0.931 . S
H1101 C1078 0.931 . S
H1102 C1080 0.931 . S
H1103 C1081 0.931 . S
C1104 Eu1105 2.835 . S
C1104 C1106 1.500 . S
C1104 O1124 1.257 . S
C1104 O1125 1.260 . S
Eu1105 C1104 2.835 . S
Eu1105 O1124 2.473 . S
Eu1105 O1125 2.480 . S
Eu1105 O1126 2.430 1_545 S
Eu1105 O1127 2.670 1_545 S
Eu1105 O1128 2.394 . S
Eu1105 O1133 2.355 . S
Eu1105 O1135 2.374 . S
C1106 C1104 1.500 . S
C1106 C1107 1.377 . S
C1106 C1111 1.377 . S
C1107 C1106 1.377 . S
C1107 C1108 1.395 . S
C1107 H1136 0.931 . S
C1108 C1107 1.395 . S
C1108 C1109 1.383 . S
C1108 H1137 0.931 . S
C1109 C1108 1.383 . S
C1109 C1110 1.394 . S
C1110 C1109 1.394 . S
C1110 C1111 1.378 . S
C1110 H1138 0.931 . S
C1111 C1106 1.377 . S
C1111 C1110 1.378 . S
C1111 H1139 0.931 . S
C1112 O1126 1.259 . S
C1112 O1127 1.270 . S
C1113 O1128 1.251 . S
C1113 O1129 1.251 . S
C1114 Eu1115 2.835 1_565 S
C1114 C1116 1.500 . S
C1114 O1130 1.257 . S
C1114 O1131 1.260 1_565 S
Eu1115 C1114 2.835 1_545 S
Eu1115 O1127 2.355 1_545 S
Eu1115 O1129 2.374 . S
Eu1115 O1130 2.473 1_545 S
Eu1115 O1131 2.480 . S
Eu1115 O1132 2.430 . S
Eu1115 O1133 2.670 . S
Eu1115 O1134 2.394 . S
C1116 C1114 1.500 . S
C1116 C1117 1.377 . S
C1116 C1121 1.377 . S
C1117 C1116 1.377 . S
C1117 C1118 1.395 . S
C1117 H1140 0.931 1_565 S
C1118 C1117 1.395 . S
C1118 C1119 1.383 . S
C1118 H1141 0.931 . S
C1119 C1118 1.383 . S
C1119 C1120 1.394 . S
C1120 C1119 1.394 . S
C1120 C1121 1.378 . S
C1120 H1142 0.931 . S
C1121 C1116 1.377 . S
C1121 C1120 1.378 . S
C1121 H1143 0.931 . S
C1122 O1132 1.259 . S
C1122 O1133 1.270 . S
C1123 O1134 1.251 . S
C1123 O1135 1.251 . S
O1124 C1104 1.257 . S
O1124 Eu1105 2.473 . S
O1125 C1104 1.260 . S
O1125 Eu1105 2.480 . S
O1126 Eu1105 2.430 1_565 S
O1126 C1112 1.259 . S
O1127 Eu1105 2.670 1_565 S
O1127 C1112 1.270 . S
O1127 Eu1115 2.355 1_565 S
O1128 Eu1105 2.394 . S
O1128 C1113 1.251 . S
O1129 C1113 1.251 . S
O1129 Eu1115 2.374 . S
O1130 C1114 1.257 . S
O1130 Eu1115 2.473 1_565 S
O1131 C1114 1.260 1_545 S
O1131 Eu1115 2.480 . S
O1132 Eu1115 2.430 . S
O1132 C1122 1.259 . S
O1133 Eu1105 2.355 . S
O1133 Eu1115 2.670 . S
O1133 C1122 1.270 . S
O1134 Eu1115 2.394 . S
O1134 C1123 1.251 . S
O1135 Eu1105 2.374 . S
O1135 C1123 1.251 . S
H1136 C1107 0.931 . S
H1137 C1108 0.931 . S
H1138 C1110 0.931 . S
H1139 C1111 0.931 . S
H1140 C1117 0.931 1_545 S
H1141 C1118 0.931 . S
H1142 C1120 0.931 . S
H1143 C1121 0.931 . S
C1144 Eu1145 2.835 . S
C1144 C1146 1.500 . S
C1144 O1164 1.257 . S
C1144 O1165 1.260 . S
Eu1145 C1144 2.835 . S
Eu1145 O1164 2.473 . S
Eu1145 O1165 2.480 . S
Eu1145 O1166 2.430 . S
Eu1145 O1167 2.670 . S
Eu1145 O1168 2.394 . S
Eu1145 O1173 2.355 . S
Eu1145 O1175 2.374 . S
C1146 C1144 1.500 . S
C1146 C1147 1.377 . S
C1146 C1151 1.377 . S
C1147 C1146 1.377 . S
C1147 C1148 1.395 . S
C1147 H1176 0.931 . S
C1148 C1147 1.395 . S
C1148 C1149 1.383 . S
C1148 H1177 0.931 . S
C1149 C1148 1.383 . S
C1149 C1150 1.394 . S
C1150 C1149 1.394 . S
C1150 C1151 1.378 . S
C1150 H1178 0.931 . S
C1151 C1146 1.377 . S
C1151 C1150 1.378 . S
C1151 H1179 0.931 . S
C1152 O1166 1.259 . S
C1152 O1167 1.270 . S
C1153 O1168 1.251 . S
C1153 O1169 1.251 . S
C1154 Eu1155 2.835 . S
C1154 C1156 1.500 . S
C1154 O1170 1.257 . S
C1154 O1171 1.260 . S
Eu1155 C1154 2.835 . S
Eu1155 O1167 2.355 . S
Eu1155 O1169 2.374 . S
Eu1155 O1170 2.473 . S
Eu1155 O1171 2.480 . S
Eu1155 O1172 2.430 . S
Eu1155 O1173 2.670 . S
Eu1155 O1174 2.394 . S
C1156 C1154 1.500 . S
C1156 C1157 1.377 . S
C1156 C1161 1.377 . S
C1157 C1156 1.377 . S
C1157 C1158 1.395 . S
C1157 H1180 0.931 . S
C1158 C1157 1.395 . S
C1158 C1159 1.383 . S
C1158 H1181 0.931 . S
C1159 C1158 1.383 . S
C1159 C1160 1.394 . S
C1160 C1159 1.394 . S
C1160 C1161 1.378 . S
C1160 H1182 0.931 . S
C1161 C1156 1.377 . S
C1161 C1160 1.378 . S
C1161 H1183 0.931 . S
C1162 O1172 1.259 . S
C1162 O1173 1.270 . S
C1163 O1174 1.251 . S
C1163 O1175 1.251 . S
O1164 C1144 1.257 . S
O1164 Eu1145 2.473 . S
O1165 C1144 1.260 . S
O1165 Eu1145 2.480 . S
O1166 Eu1145 2.430 . S
O1166 C1152 1.259 . S
O1167 Eu1145 2.670 . S
O1167 C1152 1.270 . S
O1167 Eu1155 2.355 . S
O1168 Eu1145 2.394 . S
O1168 C1153 1.251 . S
O1169 C1153 1.251 . S
O1169 Eu1155 2.374 . S
O1170 C1154 1.257 . S
O1170 Eu1155 2.473 . S
O1171 C1154 1.260 . S
O1171 Eu1155 2.480 . S
O1172 Eu1155 2.430 . S
O1172 C1162 1.259 . S
O1173 Eu1145 2.355 . S
O1173 Eu1155 2.670 . S
O1173 C1162 1.270 . S
O1174 Eu1155 2.394 . S
O1174 C1163 1.251 . S
O1175 Eu1145 2.374 . S
O1175 C1163 1.251 . S
H1176 C1147 0.931 . S
H1177 C1148 0.931 . S
H1178 C1150 0.931 . S
H1179 C1151 0.931 . S
H1180 C1157 0.931 . S
H1181 C1158 0.931 . S
H1182 C1160 0.931 . S
H1183 C1161 0.931 . S
C1184 Eu1185 2.835 . S
C1184 C1186 1.500 . S
C1184 O1204 1.257 . S
C1184 O1205 1.260 . S
Eu1185 C1184 2.835 . S
Eu1185 O1204 2.473 . S
Eu1185 O1205 2.480 . S
Eu1185 O1206 2.430 . S
Eu1185 O1207 2.670 . S
Eu1185 O1208 2.394 . S
Eu1185 O1213 2.355 . S
Eu1185 O1215 2.374 . S
C1186 C1184 1.500 . S
C1186 C1187 1.377 . S
C1186 C1191 1.377 . S
C1187 C1186 1.377 . S
C1187 C1188 1.395 . S
C1187 H1216 0.931 . S
C1188 C1187 1.395 . S
C1188 C1189 1.383 . S
C1188 H1217 0.931 . S
C1189 C1188 1.383 . S
C1189 C1190 1.394 . S
C1190 C1189 1.394 . S
C1190 C1191 1.378 . S
C1190 H1218 0.931 . S
C1191 C1186 1.377 . S
C1191 C1190 1.378 . S
C1191 H1219 0.931 . S
C1192 O1206 1.259 . S
C1192 O1207 1.270 . S
C1193 O1208 1.251 . S
C1193 O1209 1.251 . S
C1194 Eu1195 2.835 . S
C1194 C1196 1.500 . S
C1194 O1210 1.257 . S
C1194 O1211 1.260 . S
Eu1195 C1194 2.835 . S
Eu1195 O1207 2.355 . S
Eu1195 O1209 2.374 . S
Eu1195 O1210 2.473 . S
Eu1195 O1211 2.480 . S
Eu1195 O1212 2.430 . S
Eu1195 O1213 2.670 . S
Eu1195 O1214 2.394 . S
C1196 C1194 1.500 . S
C1196 C1197 1.377 . S
C1196 C1201 1.377 . S
C1197 C1196 1.377 . S
C1197 C1198 1.395 . S
C1197 H1220 0.931 . S
C1198 C1197 1.395 . S
C1198 C1199 1.383 . S
C1198 H1221 0.931 . S
C1199 C1198 1.383 . S
C1199 C1200 1.394 . S
C1200 C1199 1.394 . S
C1200 C1201 1.378 . S
C1200 H1222 0.931 . S
C1201 C1196 1.377 . S
C1201 C1200 1.378 . S
C1201 H1223 0.931 . S
C1202 O1212 1.259 . S
C1202 O1213 1.270 . S
C1203 O1214 1.251 . S
C1203 O1215 1.251 . S
O1204 C1184 1.257 . S
O1204 Eu1185 2.473 . S
O1205 C1184 1.260 . S
O1205 Eu1185 2.480 . S
O1206 Eu1185 2.430 . S
O1206 C1192 1.259 . S
O1207 Eu1185 2.670 . S
O1207 C1192 1.270 . S
O1207 Eu1195 2.355 . S
O1208 Eu1185 2.394 . S
O1208 C1193 1.251 . S
O1209 C1193 1.251 . S
O1209 Eu1195 2.374 . S
O1210 C1194 1.257 . S
O1210 Eu1195 2.473 . S
O1211 C1194 1.260 . S
O1211 Eu1195 2.480 . S
O1212 Eu1195 2.430 . S
O1212 C1202 1.259 . S
O1213 Eu1185 2.355 . S
O1213 Eu1195 2.670 . S
O1213 C1202 1.270 . S
O1214 Eu1195 2.394 . S
O1214 C1203 1.251 . S
O1215 Eu1185 2.374 . S
O1215 C1203 1.251 . S
H1216 C1187 0.931 . S
H1217 C1188 0.931 . S
H1218 C1190 0.931 . S
H1219 C1191 0.931 . S
H1220 C1197 0.931 . S
H1221 C1198 0.931 . S
H1222 C1200 0.931 . S
H1223 C1201 0.931 . S
C1224 Eu1225 2.835 . S
C1224 C1226 1.500 . S
C1224 O1244 1.257 . S
C1224 O1245 1.260 . S
Eu1225 C1224 2.835 . S
Eu1225 O1244 2.473 . S
Eu1225 O1245 2.480 . S
Eu1225 O1246 2.430 . S
Eu1225 O1247 2.670 . S
Eu1225 O1248 2.394 . S
Eu1225 O1253 2.355 . S
Eu1225 O1255 2.374 . S
C1226 C1224 1.500 . S
C1226 C1227 1.377 . S
C1226 C1231 1.377 . S
C1227 C1226 1.377 . S
C1227 C1228 1.395 . S
C1227 H1256 0.931 . S
C1228 C1227 1.395 . S
C1228 C1229 1.383 . S
C1228 H1257 0.931 . S
C1229 C1228 1.383 . S
C1229 C1230 1.394 . S
C1230 C1229 1.394 . S
C1230 C1231 1.378 . S
C1230 H1258 0.931 . S
C1231 C1226 1.377 . S
C1231 C1230 1.378 . S
C1231 H1259 0.931 . S
C1232 O1246 1.259 . S
C1232 O1247 1.270 . S
C1233 O1248 1.251 . S
C1233 O1249 1.251 . S
C1234 Eu1235 2.835 . S
C1234 C1236 1.500 . S
C1234 O1250 1.257 . S
C1234 O1251 1.260 . S
Eu1235 C1234 2.835 . S
Eu1235 O1247 2.355 . S
Eu1235 O1249 2.374 . S
Eu1235 O1250 2.473 . S
Eu1235 O1251 2.480 . S
Eu1235 O1252 2.430 . S
Eu1235 O1253 2.670 . S
Eu1235 O1254 2.394 . S
C1236 C1234 1.500 . S
C1236 C1237 1.377 . S
C1236 C1241 1.377 . S
C1237 C1236 1.377 . S
C1237 C1238 1.395 . S
C1237 H1260 0.931 . S
C1238 C1237 1.395 . S
C1238 C1239 1.383 . S
C1238 H1261 0.931 . S
C1239 C1238 1.383 . S
C1239 C1240 1.394 . S
C1240 C1239 1.394 . S
C1240 C1241 1.378 . S
C1240 H1262 0.931 . S
C1241 C1236 1.377 . S
C1241 C1240 1.378 . S
C1241 H1263 0.931 . S
C1242 O1252 1.259 . S
C1242 O1253 1.270 . S
C1243 O1254 1.251 . S
C1243 O1255 1.251 . S
O1244 C1224 1.257 . S
O1244 Eu1225 2.473 . S
O1245 C1224 1.260 . S
O1245 Eu1225 2.480 . S
O1246 Eu1225 2.430 . S
O1246 C1232 1.259 . S
O1247 Eu1225 2.670 . S
O1247 C1232 1.270 . S
O1247 Eu1235 2.355 . S
O1248 Eu1225 2.394 . S
O1248 C1233 1.251 . S
O1249 C1233 1.251 . S
O1249 Eu1235 2.374 . S
O1250 C1234 1.257 . S
O1250 Eu1235 2.473 . S
O1251 C1234 1.260 . S
O1251 Eu1235 2.480 . S
O1252 Eu1235 2.430 . S
O1252 C1242 1.259 . S
O1253 Eu1225 2.355 . S
O1253 Eu1235 2.670 . S
O1253 C1242 1.270 . S
O1254 Eu1235 2.394 . S
O1254 C1243 1.251 . S
O1255 Eu1225 2.374 . S
O1255 C1243 1.251 . S
H1256 C1227 0.931 . S
H1257 C1228 0.931 . S
H1258 C1230 0.931 . S
H1259 C1231 0.931 . S
H1260 C1237 0.931 . S
H1261 C1238 0.931 . S
H1262 C1240 0.931 . S
H1263 C1241 0.931 . S
C1264 Eu1265 2.835 . S
C1264 C1266 1.500 . S
C1264 O1284 1.257 . S
C1264 O1285 1.260 . S
Eu1265 C1264 2.835 . S
Eu1265 O1284 2.473 . S
Eu1265 O1285 2.480 . S
Eu1265 O1286 2.430 . S
Eu1265 O1287 2.670 . S
Eu1265 O1288 2.394 . S
Eu1265 O1293 2.355 . S
Eu1265 O1295 2.374 . S
C1266 C1264 1.500 . S
C1266 C1267 1.377 . S
C1266 C1271 1.377 . S
C1267 C1266 1.377 . S
C1267 C1268 1.395 . S
C1267 H1296 0.931 . S
C1268 C1267 1.395 . S
C1268 C1269 1.383 . S
C1268 H1297 0.931 . S
C1269 C1268 1.383 . S
C1269 C1270 1.394 . S
C1270 C1269 1.394 . S
C1270 C1271 1.378 . S
C1270 H1298 0.931 . S
C1271 C1266 1.377 . S
C1271 C1270 1.378 . S
C1271 H1299 0.931 . S
C1272 O1286 1.259 . S
C1272 O1287 1.270 . S
C1273 O1288 1.251 . S
C1273 O1289 1.251 . S
C1274 Eu1275 2.835 1_655 S
C1274 C1276 1.500 . S
C1274 O1290 1.257 . S
C1274 O1291 1.260 . S
Eu1275 C1274 2.835 1_455 S
Eu1275 O1287 2.355 . S
Eu1275 O1289 2.374 . S
Eu1275 O1290 2.473 1_455 S
Eu1275 O1291 2.480 1_455 S
Eu1275 O1292 2.430 . S
Eu1275 O1293 2.670 . S
Eu1275 O1294 2.394 . S
C1276 C1274 1.500 . S
C1276 C1277 1.377 . S
C1276 C1281 1.377 . S
C1277 C1276 1.377 . S
C1277 C1278 1.395 . S
C1277 H1300 0.931 . S
C1278 C1277 1.395 . S
C1278 C1279 1.383 . S
C1278 H1301 0.931 . S
C1279 C1278 1.383 . S
C1279 C1280 1.394 . S
C1280 C1279 1.394 . S
C1280 C1281 1.378 . S
C1280 H1302 0.931 . S
C1281 C1276 1.377 . S
C1281 C1280 1.378 . S
C1281 H1303 0.931 . S
C1282 O1292 1.259 . S
C1282 O1293 1.270 . S
C1283 O1294 1.251 . S
C1283 O1295 1.251 . S
O1284 C1264 1.257 . S
O1284 Eu1265 2.473 . S
O1285 C1264 1.260 . S
O1285 Eu1265 2.480 . S
O1286 Eu1265 2.430 . S
O1286 C1272 1.259 . S
O1287 Eu1265 2.670 . S
O1287 C1272 1.270 . S
O1287 Eu1275 2.355 . S
O1288 Eu1265 2.394 . S
O1288 C1273 1.251 . S
O1289 C1273 1.251 . S
O1289 Eu1275 2.374 . S
O1290 C1274 1.257 . S
O1290 Eu1275 2.473 1_655 S
O1291 C1274 1.260 . S
O1291 Eu1275 2.480 1_655 S
O1292 Eu1275 2.430 . S
O1292 C1282 1.259 . S
O1293 Eu1265 2.355 . S
O1293 Eu1275 2.670 . S
O1293 C1282 1.270 . S
O1294 Eu1275 2.394 . S
O1294 C1283 1.251 . S
O1295 Eu1265 2.374 . S
O1295 C1283 1.251 . S
H1296 C1267 0.931 . S
H1297 C1268 0.931 . S
H1298 C1270 0.931 . S
H1299 C1271 0.931 . S
H1300 C1277 0.931 . S
H1301 C1278 0.931 . S
H1302 C1280 0.931 . S
H1303 C1281 0.931 . S
C1304 Eu1305 2.835 . S
C1304 C1306 1.500 . S
C1304 O1324 1.257 . S
C1304 O1325 1.260 . S
Eu1305 C1304 2.835 . S
Eu1305 O1324 2.473 . S
Eu1305 O1325 2.480 . S
Eu1305 O1326 2.430 . S
Eu1305 O1327 2.670 . S
Eu1305 O1328 2.394 . S
Eu1305 O1333 2.355 . S
Eu1305 O1335 2.374 . S
C1306 C1304 1.500 . S
C1306 C1307 1.377 . S
C1306 C1311 1.377 . S
C1307 C1306 1.377 . S
C1307 C1308 1.395 . S
C1307 H1336 0.931 . S
C1308 C1307 1.395 . S
C1308 C1309 1.383 . S
C1308 H1337 0.931 . S
C1309 C1308 1.383 . S
C1309 C1310 1.394 . S
C1310 C1309 1.394 . S
C1310 C1311 1.378 . S
C1310 H1338 0.931 . S
C1311 C1306 1.377 . S
C1311 C1310 1.378 . S
C1311 H1339 0.931 . S
C1312 O1326 1.259 . S
C1312 O1327 1.270 . S
C1313 O1328 1.251 . S
C1313 O1329 1.251 . S
C1314 Eu1315 2.835 . S
C1314 C1316 1.500 . S
C1314 O1330 1.257 . S
C1314 O1331 1.260 . S
Eu1315 C1314 2.835 . S
Eu1315 O1327 2.355 . S
Eu1315 O1329 2.374 . S
Eu1315 O1330 2.473 . S
Eu1315 O1331 2.480 . S
Eu1315 O1332 2.430 . S
Eu1315 O1333 2.670 . S
Eu1315 O1334 2.394 . S
C1316 C1314 1.500 . S
C1316 C1317 1.377 . S
C1316 C1321 1.377 . S
C1317 C1316 1.377 . S
C1317 C1318 1.395 . S
C1317 H1340 0.931 . S
C1318 C1317 1.395 . S
C1318 C1319 1.383 . S
C1318 H1341 0.931 . S
C1319 C1318 1.383 . S
C1319 C1320 1.394 . S
C1320 C1319 1.394 . S
C1320 C1321 1.378 . S
C1320 H1342 0.931 . S
C1321 C1316 1.377 . S
C1321 C1320 1.378 . S
C1321 H1343 0.931 . S
C1322 O1332 1.259 . S
C1322 O1333 1.270 . S
C1323 O1334 1.251 . S
C1323 O1335 1.251 . S
O1324 C1304 1.257 . S
O1324 Eu1305 2.473 . S
O1325 C1304 1.260 . S
O1325 Eu1305 2.480 . S
O1326 Eu1305 2.430 . S
O1326 C1312 1.259 . S
O1327 Eu1305 2.670 . S
O1327 C1312 1.270 . S
O1327 Eu1315 2.355 . S
O1328 Eu1305 2.394 . S
O1328 C1313 1.251 . S
O1329 C1313 1.251 . S
O1329 Eu1315 2.374 . S
O1330 C1314 1.257 . S
O1330 Eu1315 2.473 . S
O1331 C1314 1.260 . S
O1331 Eu1315 2.480 . S
O1332 Eu1315 2.430 . S
O1332 C1322 1.259 . S
O1333 Eu1305 2.355 . S
O1333 Eu1315 2.670 . S
O1333 C1322 1.270 . S
O1334 Eu1315 2.394 . S
O1334 C1323 1.251 . S
O1335 Eu1305 2.374 . S
O1335 C1323 1.251 . S
H1336 C1307 0.931 . S
H1337 C1308 0.931 . S
H1338 C1310 0.931 . S
H1339 C1311 0.931 . S
H1340 C1317 0.931 . S
H1341 C1318 0.931 . S
H1342 C1320 0.931 . S
H1343 C1321 0.931 . S
C1344 Eu1345 2.835 . S
C1344 C1346 1.500 . S
C1344 O1364 1.257 . S
C1344 O1365 1.260 . S
Eu1345 C1344 2.835 . S
Eu1345 O1364 2.473 . S
Eu1345 O1365 2.480 . S
Eu1345 O1366 2.430 . S
Eu1345 O1367 2.670 . S
Eu1345 O1368 2.394 . S
Eu1345 O1373 2.355 . S
Eu1345 O1375 2.374 . S
C1346 C1344 1.500 . S
C1346 C1347 1.377 . S
C1346 C1351 1.377 . S
C1347 C1346 1.377 . S
C1347 C1348 1.395 . S
C1347 H1376 0.931 . S
C1348 C1347 1.395 . S
C1348 C1349 1.383 1_556 S
C1348 H1377 0.931 1_556 S
C1349 C1348 1.383 1_554 S
C1349 C1350 1.394 1_554 S
C1350 C1349 1.394 1_556 S
C1350 C1351 1.378 . S
C1350 H1378 0.931 . S
C1351 C1346 1.377 . S
C1351 C1350 1.378 . S
C1351 H1379 0.931 . S
C1352 O1366 1.259 . S
C1352 O1367 1.270 . S
C1353 O1368 1.251 . S
C1353 O1369 1.251 . S
C1354 Eu1355 2.835 . S
C1354 C1356 1.500 . S
C1354 O1370 1.257 . S
C1354 O1371 1.260 . S
Eu1355 C1354 2.835 . S
Eu1355 O1367 2.355 . S
Eu1355 O1369 2.374 . S
Eu1355 O1370 2.473 . S
Eu1355 O1371 2.480 . S
Eu1355 O1372 2.430 . S
Eu1355 O1373 2.670 . S
Eu1355 O1374 2.394 . S
C1356 C1354 1.500 . S
C1356 C1357 1.377 . S
C1356 C1361 1.377 . S
C1357 C1356 1.377 . S
C1357 C1358 1.395 . S
C1357 H1380 0.931 . S
C1358 C1357 1.395 . S
C1358 C1359 1.383 . S
C1358 H1381 0.931 . S
C1359 C1358 1.383 . S
C1359 C1360 1.394 . S
C1360 C1359 1.394 . S
C1360 C1361 1.378 . S
C1360 H1382 0.931 . S
C1361 C1356 1.377 . S
C1361 C1360 1.378 . S
C1361 H1383 0.931 . S
C1362 O1372 1.259 . S
C1362 O1373 1.270 . S
C1363 O1374 1.251 . S
C1363 O1375 1.251 . S
O1364 C1344 1.257 . S
O1364 Eu1345 2.473 . S
O1365 C1344 1.260 . S
O1365 Eu1345 2.480 . S
O1366 Eu1345 2.430 . S
O1366 C1352 1.259 . S
O1367 Eu1345 2.670 . S
O1367 C1352 1.270 . S
O1367 Eu1355 2.355 . S
O1368 Eu1345 2.394 . S
O1368 C1353 1.251 . S
O1369 C1353 1.251 . S
O1369 Eu1355 2.374 . S
O1370 C1354 1.257 . S
O1370 Eu1355 2.473 . S
O1371 C1354 1.260 . S
O1371 Eu1355 2.480 . S
O1372 Eu1355 2.430 . S
O1372 C1362 1.259 . S
O1373 Eu1345 2.355 . S
O1373 Eu1355 2.670 . S
O1373 C1362 1.270 . S
O1374 Eu1355 2.394 . S
O1374 C1363 1.251 . S
O1375 Eu1345 2.374 . S
O1375 C1363 1.251 . S
H1376 C1347 0.931 . S
H1377 C1348 0.931 1_554 S
H1378 C1350 0.931 . S
H1379 C1351 0.931 . S
H1380 C1357 0.931 . S
H1381 C1358 0.931 . S
H1382 C1360 0.931 . S
H1383 C1361 0.931 . S
C1384 Eu1385 2.835 . S
C1384 C1386 1.500 . S
C1384 O1404 1.257 . S
C1384 O1405 1.260 . S
Eu1385 C1384 2.835 . S
Eu1385 O1404 2.473 . S
Eu1385 O1405 2.480 . S
Eu1385 O1406 2.430 . S
Eu1385 O1407 2.670 . S
Eu1385 O1408 2.394 . S
Eu1385 O1413 2.355 . S
Eu1385 O1415 2.374 . S
C1386 C1384 1.500 . S
C1386 C1387 1.377 . S
C1386 C1391 1.377 . S
C1387 C1386 1.377 . S
C1387 C1388 1.395 . S
C1387 H1416 0.931 . S
C1388 C1387 1.395 . S
C1388 C1389 1.383 . S
C1388 H1417 0.931 . S
C1389 C1388 1.383 . S
C1389 C1390 1.394 . S
C1390 C1389 1.394 . S
C1390 C1391 1.378 . S
C1390 H1418 0.931 . S
C1391 C1386 1.377 . S
C1391 C1390 1.378 . S
C1391 H1419 0.931 . S
C1392 O1406 1.259 . S
C1392 O1407 1.270 . S
C1393 O1408 1.251 . S
C1393 O1409 1.251 . S
C1394 Eu1395 2.835 . S
C1394 C1396 1.500 . S
C1394 O1410 1.257 . S
C1394 O1411 1.260 . S
Eu1395 C1394 2.835 . S
Eu1395 O1407 2.355 . S
Eu1395 O1409 2.374 . S
Eu1395 O1410 2.473 . S
Eu1395 O1411 2.480 . S
Eu1395 O1412 2.430 . S
Eu1395 O1413 2.670 . S
Eu1395 O1414 2.394 . S
C1396 C1394 1.500 . S
C1396 C1397 1.377 . S
C1396 C1401 1.377 . S
C1397 C1396 1.377 . S
C1397 C1398 1.395 . S
C1397 H1420 0.931 . S
C1398 C1397 1.395 . S
C1398 C1399 1.383 . S
C1398 H1421 0.931 . S
C1399 C1398 1.383 . S
C1399 C1400 1.394 . S
C1400 C1399 1.394 . S
C1400 C1401 1.378 . S
C1400 H1422 0.931 . S
C1401 C1396 1.377 . S
C1401 C1400 1.378 . S
C1401 H1423 0.931 . S
C1402 O1412 1.259 . S
C1402 O1413 1.270 . S
C1403 O1414 1.251 . S
C1403 O1415 1.251 . S
O1404 C1384 1.257 . S
O1404 Eu1385 2.473 . S
O1405 C1384 1.260 . S
O1405 Eu1385 2.480 . S
O1406 Eu1385 2.430 . S
O1406 C1392 1.259 . S
O1407 Eu1385 2.670 . S
O1407 C1392 1.270 . S
O1407 Eu1395 2.355 . S
O1408 Eu1385 2.394 . S
O1408 C1393 1.251 . S
O1409 C1393 1.251 . S
O1409 Eu1395 2.374 . S
O1410 C1394 1.257 . S
O1410 Eu1395 2.473 . S
O1411 C1394 1.260 . S
O1411 Eu1395 2.480 . S
O1412 Eu1395 2.430 . S
O1412 C1402 1.259 . S
O1413 Eu1385 2.355 . S
O1413 Eu1395 2.670 . S
O1413 C1402 1.270 . S
O1414 Eu1395 2.394 . S
O1414 C1403 1.251 . S
O1415 Eu1385 2.374 . S
O1415 C1403 1.251 . S
H1416 C1387 0.931 . S
H1417 C1388 0.931 . S
H1418 C1390 0.931 . S
H1419 C1391 0.931 . S
H1420 C1397 0.931 . S
H1421 C1398 0.931 . S
H1422 C1400 0.931 . S
H1423 C1401 0.931 . S
C1424 Eu1425 2.835 . S
C1424 C1426 1.500 . S
C1424 O1444 1.257 . S
C1424 O1445 1.260 . S
Eu1425 C1424 2.835 . S
Eu1425 O1444 2.473 . S
Eu1425 O1445 2.480 . S
Eu1425 O1446 2.430 . S
Eu1425 O1447 2.670 . S
Eu1425 O1448 2.394 . S
Eu1425 O1453 2.355 . S
Eu1425 O1455 2.374 . S
C1426 C1424 1.500 . S
C1426 C1427 1.377 . S
C1426 C1431 1.377 . S
C1427 C1426 1.377 . S
C1427 C1428 1.395 . S
C1427 H1456 0.931 . S
C1428 C1427 1.395 . S
C1428 C1429 1.383 . S
C1428 H1457 0.931 . S
C1429 C1428 1.383 . S
C1429 C1430 1.394 . S
C1430 C1429 1.394 . S
C1430 C1431 1.378 . S
C1430 H1458 0.931 . S
C1431 C1426 1.377 . S
C1431 C1430 1.378 . S
C1431 H1459 0.931 . S
C1432 O1446 1.259 . S
C1432 O1447 1.270 . S
C1433 O1448 1.251 . S
C1433 O1449 1.251 . S
C1434 Eu1435 2.835 . S
C1434 C1436 1.500 . S
C1434 O1450 1.257 . S
C1434 O1451 1.260 . S
Eu1435 C1434 2.835 . S
Eu1435 O1447 2.355 . S
Eu1435 O1449 2.374 . S
Eu1435 O1450 2.473 . S
Eu1435 O1451 2.480 . S
Eu1435 O1452 2.430 . S
Eu1435 O1453 2.670 . S
Eu1435 O1454 2.394 . S
C1436 C1434 1.500 . S
C1436 C1437 1.377 . S
C1436 C1441 1.377 . S
C1437 C1436 1.377 . S
C1437 C1438 1.395 . S
C1437 H1460 0.931 . S
C1438 C1437 1.395 . S
C1438 C1439 1.383 . S
C1438 H1461 0.931 . S
C1439 C1438 1.383 . S
C1439 C1440 1.394 . S
C1440 C1439 1.394 . S
C1440 C1441 1.378 . S
C1440 H1462 0.931 . S
C1441 C1436 1.377 . S
C1441 C1440 1.378 . S
C1441 H1463 0.931 . S
C1442 O1452 1.259 . S
C1442 O1453 1.270 . S
C1443 O1454 1.251 . S
C1443 O1455 1.251 . S
O1444 C1424 1.257 . S
O1444 Eu1425 2.473 . S
O1445 C1424 1.260 . S
O1445 Eu1425 2.480 . S
O1446 Eu1425 2.430 . S
O1446 C1432 1.259 . S
O1447 Eu1425 2.670 . S
O1447 C1432 1.270 . S
O1447 Eu1435 2.355 . S
O1448 Eu1425 2.394 . S
O1448 C1433 1.251 . S
O1449 C1433 1.251 . S
O1449 Eu1435 2.374 . S
O1450 C1434 1.257 . S
O1450 Eu1435 2.473 . S
O1451 C1434 1.260 . S
O1451 Eu1435 2.480 . S
O1452 Eu1435 2.430 . S
O1452 C1442 1.259 . S
O1453 Eu1425 2.355 . S
O1453 Eu1435 2.670 . S
O1453 C1442 1.270 . S
O1454 Eu1435 2.394 . S
O1454 C1443 1.251 . S
O1455 Eu1425 2.374 . S
O1455 C1443 1.251 . S
H1456 C1427 0.931 . S
H1457 C1428 0.931 . S
H1458 C1430 0.931 . S
H1459 C1431 0.931 . S
H1460 C1437 0.931 . S
H1461 C1438 0.931 . S
H1462 C1440 0.931 . S
H1463 C1441 0.931 . S
C1464 Eu1465 2.835 1_655 S
C1464 C1466 1.500 . S
C1464 O1484 1.257 . S
C1464 O1485 1.260 . S
Eu1465 C1464 2.835 1_455 S
Eu1465 O1484 2.473 1_455 S
Eu1465 O1485 2.480 1_455 S
Eu1465 O1486 2.430 . S
Eu1465 O1487 2.670 . S
Eu1465 O1488 2.394 . S
Eu1465 O1493 2.355 . S
Eu1465 O1495 2.374 . S
C1466 C1464 1.500 . S
C1466 C1467 1.377 . S
C1466 C1471 1.377 . S
C1467 C1466 1.377 . S
C1467 C1468 1.395 . S
C1467 H1496 0.931 . S
C1468 C1467 1.395 . S
C1468 C1469 1.383 . S
C1468 H1497 0.931 . S
C1469 C1468 1.383 . S
C1469 C1470 1.394 . S
C1470 C1469 1.394 . S
C1470 C1471 1.378 . S
C1470 H1498 0.931 . S
C1471 C1466 1.377 . S
C1471 C1470 1.378 . S
C1471 H1499 0.931 . S
C1472 O1486 1.259 . S
C1472 O1487 1.270 . S
C1473 O1488 1.251 . S
C1473 O1489 1.251 . S
C1474 Eu1475 2.835 . S
C1474 C1476 1.500 . S
C1474 O1490 1.257 . S
C1474 O1491 1.260 . S
Eu1475 C1474 2.835 . S
Eu1475 O1487 2.355 . S
Eu1475 O1489 2.374 . S
Eu1475 O1490 2.473 . S
Eu1475 O1491 2.480 . S
Eu1475 O1492 2.430 . S
Eu1475 O1493 2.670 . S
Eu1475 O1494 2.394 . S
C1476 C1474 1.500 . S
C1476 C1477 1.377 . S
C1476 C1481 1.377 . S
C1477 C1476 1.377 . S
C1477 C1478 1.395 . S
C1477 H1500 0.931 1_554 S
C1478 C1477 1.395 . S
C1478 C1479 1.383 . S
C1478 H1501 0.931 1_554 S
C1479 C1478 1.383 . S
C1479 C1480 1.394 . S
C1480 C1479 1.394 . S
C1480 C1481 1.378 . S
C1480 H1502 0.931 . S
C1481 C1476 1.377 . S
C1481 C1480 1.378 . S
C1481 H1503 0.931 . S
C1482 O1492 1.259 . S
C1482 O1493 1.270 . S
C1483 O1494 1.251 . S
C1483 O1495 1.251 . S
O1484 C1464 1.257 . S
O1484 Eu1465 2.473 1_655 S
O1485 C1464 1.260 . S
O1485 Eu1465 2.480 1_655 S
O1486 Eu1465 2.430 . S
O1486 C1472 1.259 . S
O1487 Eu1465 2.670 . S
O1487 C1472 1.270 . S
O1487 Eu1475 2.355 . S
O1488 Eu1465 2.394 . S
O1488 C1473 1.251 . S
O1489 C1473 1.251 . S
O1489 Eu1475 2.374 . S
O1490 C1474 1.257 . S
O1490 Eu1475 2.473 . S
O1491 C1474 1.260 . S
O1491 Eu1475 2.480 . S
O1492 Eu1475 2.430 . S
O1492 C1482 1.259 . S
O1493 Eu1465 2.355 . S
O1493 Eu1475 2.670 . S
O1493 C1482 1.270 . S
O1494 Eu1475 2.394 . S
O1494 C1483 1.251 . S
O1495 Eu1465 2.374 . S
O1495 C1483 1.251 . S
H1496 C1467 0.931 . S
H1497 C1468 0.931 . S
H1498 C1470 0.931 . S
H1499 C1471 0.931 . S
H1500 C1477 0.931 1_556 S
H1501 C1478 0.931 1_556 S
H1502 C1480 0.931 . S
H1503 C1481 0.931 . S
C1504 C1505 1.369 . S
C1504 C1506 1.419 . S
C1504 H1508 0.930 . S
C1505 C1504 1.369 . S
C1505 C1514 1.429 1_455 S
C1506 C1504 1.419 . S
C1506 C1507 1.363 . S
C1506 H1509 0.929 . S
C1507 C1506 1.363 . S
C1507 C1513 1.428 1_455 S
H1508 C1504 0.930 . S
H1509 C1506 0.929 . S
S1510 N1511 1.613 . S
S1510 N1512 1.610 . S
N1511 S1510 1.613 . S
N1511 C1514 1.350 . S
N1512 S1510 1.610 . S
N1512 C1513 1.351 . S
C1513 C1507 1.428 1_655 S
C1513 N1512 1.351 . S
C1513 C1514 1.434 . S
C1514 C1505 1.429 1_655 S
C1514 N1511 1.350 . S
C1514 C1513 1.434 . S
C1515 C1516 1.369 . S
C1515 C1517 1.419 . S
C1515 H1519 0.930 . S
C1516 C1515 1.369 . S
C1516 C1525 1.429 . S
C1517 C1515 1.419 . S
C1517 C1518 1.363 . S
C1517 H1520 0.929 . S
C1518 C1517 1.363 . S
C1518 C1524 1.428 . S
H1519 C1515 0.930 . S
H1520 C1517 0.929 . S
S1521 N1522 1.613 . S
S1521 N1523 1.610 . S
N1522 S1521 1.613 . S
N1522 C1525 1.350 . S
N1523 S1521 1.610 . S
N1523 C1524 1.351 . S
C1524 C1518 1.428 . S
C1524 N1523 1.351 . S
C1524 C1525 1.434 . S
C1525 C1516 1.429 . S
C1525 N1522 1.350 . S
C1525 C1524 1.434 . S
C1526 C1527 1.369 . S
C1526 C1528 1.419 . S
C1526 H1530 0.930 . S
C1527 C1526 1.369 . S
C1527 C1536 1.429 . S
C1528 C1526 1.419 . S
C1528 C1529 1.363 . S
C1528 H1531 0.929 . S
C1529 C1528 1.363 . S
C1529 C1535 1.428 . S
H1530 C1526 0.930 . S
H1531 C1528 0.929 . S
S1532 N1533 1.613 . S
S1532 N1534 1.610 . S
N1533 S1532 1.613 . S
N1533 C1536 1.350 . S
N1534 S1532 1.610 . S
N1534 C1535 1.351 . S
C1535 C1529 1.428 . S
C1535 N1534 1.351 . S
C1535 C1536 1.434 . S
C1536 C1527 1.429 . S
C1536 N1533 1.350 . S
C1536 C1535 1.434 . S
C1537 C1538 1.369 . S
C1537 C1539 1.419 . S
C1537 H1541 0.930 . S
C1538 C1537 1.369 . S
C1538 C1547 1.429 . S
C1539 C1537 1.419 . S
C1539 C1540 1.363 . S
C1539 H1542 0.929 . S
C1540 C1539 1.363 . S
C1540 C1546 1.428 . S
H1541 C1537 0.930 . S
H1542 C1539 0.929 . S
S1543 N1544 1.613 . S
S1543 N1545 1.610 . S
N1544 S1543 1.613 . S
N1544 C1547 1.350 . S
N1545 S1543 1.610 . S
N1545 C1546 1.351 . S
C1546 C1540 1.428 . S
C1546 N1545 1.351 . S
C1546 C1547 1.434 . S
C1547 C1538 1.429 . S
C1547 N1544 1.350 . S
C1547 C1546 1.434 . S
C1548 C1549 1.369 . S
C1548 C1550 1.419 . S
C1548 H1552 0.930 . S
C1549 C1548 1.369 . S
C1549 C1558 1.429 . S
C1550 C1548 1.419 . S
C1550 C1551 1.363 . S
C1550 H1553 0.929 . S
C1551 C1550 1.363 . S
C1551 C1557 1.428 . S
H1552 C1548 0.930 . S
H1553 C1550 0.929 . S
S1554 N1555 1.613 1_455 S
S1554 N1556 1.610 . S
N1555 S1554 1.613 1_655 S
N1555 C1558 1.350 1_655 S
N1556 S1554 1.610 . S
N1556 C1557 1.351 . S
C1557 C1551 1.428 . S
C1557 N1556 1.351 . S
C1557 C1558 1.434 . S
C1558 C1549 1.429 . S
C1558 N1555 1.350 1_455 S
C1558 C1557 1.434 . S
C1559 C1560 1.369 . S
C1559 C1561 1.419 . S
C1559 H1563 0.930 . S
C1560 C1559 1.369 . S
C1560 C1569 1.429 . S
C1561 C1559 1.419 . S
C1561 C1562 1.363 . S
C1561 H1564 0.929 . S
C1562 C1561 1.363 . S
C1562 C1568 1.428 . S
H1563 C1559 0.930 . S
H1564 C1561 0.929 . S
S1565 N1566 1.613 . S
S1565 N1567 1.610 . S
N1566 S1565 1.613 . S
N1566 C1569 1.350 . S
N1567 S1565 1.610 . S
N1567 C1568 1.351 . S
C1568 C1562 1.428 . S
C1568 N1567 1.351 . S
C1568 C1569 1.434 . S
C1569 C1560 1.429 . S
C1569 N1566 1.350 . S
C1569 C1568 1.434 . S
C1570 C1571 1.369 . S
C1570 C1572 1.419 . S
C1570 H1574 0.930 . S
C1571 C1570 1.369 . S
C1571 C1580 1.429 . S
C1572 C1570 1.419 . S
C1572 C1573 1.363 . S
C1572 H1575 0.929 . S
C1573 C1572 1.363 . S
C1573 C1579 1.428 . S
H1574 C1570 0.930 . S
H1575 C1572 0.929 . S
S1576 N1577 1.613 . S
S1576 N1578 1.610 . S
N1577 S1576 1.613 . S
N1577 C1580 1.350 . S
N1578 S1576 1.610 . S
N1578 C1579 1.351 . S
C1579 C1573 1.428 . S
C1579 N1578 1.351 . S
C1579 C1580 1.434 . S
C1580 C1571 1.429 . S
C1580 N1577 1.350 . S
C1580 C1579 1.434 . S
C1581 C1582 1.369 . S
C1581 C1583 1.419 . S
C1581 H1585 0.930 . S
C1582 C1581 1.369 . S
C1582 C1591 1.429 . S
C1583 C1581 1.419 . S
C1583 C1584 1.363 . S
C1583 H1586 0.929 . S
C1584 C1583 1.363 . S
C1584 C1590 1.428 . S
H1585 C1581 0.930 . S
H1586 C1583 0.929 . S
S1587 N1588 1.613 . S
S1587 N1589 1.610 . S
N1588 S1587 1.613 . S
N1588 C1591 1.350 . S
N1589 S1587 1.610 . S
N1589 C1590 1.351 . S
C1590 C1584 1.428 . S
C1590 N1589 1.351 . S
C1590 C1591 1.434 . S
C1591 C1582 1.429 . S
C1591 N1588 1.350 . S
C1591 C1590 1.434 . S
C1592 C1593 1.369 . S
C1592 C1594 1.419 1_655 S
C1592 H1596 0.930 1_655 S
C1593 C1592 1.369 . S
C1593 C1602 1.429 . S
C1594 C1592 1.419 1_455 S
C1594 C1595 1.363 . S
C1594 H1597 0.929 . S
C1595 C1594 1.363 . S
C1595 C1601 1.428 1_455 S
H1596 C1592 0.930 1_455 S
H1597 C1594 0.929 . S
S1598 N1599 1.613 . S
S1598 N1600 1.610 . S
N1599 S1598 1.613 . S
N1599 C1602 1.350 1_565 S
N1600 S1598 1.610 . S
N1600 C1601 1.351 1_565 S
C1601 C1595 1.428 1_655 S
C1601 N1600 1.351 1_545 S
C1601 C1602 1.434 . S
C1602 C1593 1.429 . S
C1602 N1599 1.350 1_545 S
C1602 C1601 1.434 . S
C1603 C1604 1.369 . S
C1603 C1605 1.419 . S
C1603 H1607 0.930 . S
C1604 C1603 1.369 . S
C1604 C1613 1.429 . S
C1605 C1603 1.419 . S
C1605 C1606 1.363 . S
C1605 H1608 0.929 . S
C1606 C1605 1.363 . S
C1606 C1612 1.428 . S
H1607 C1603 0.930 . S
H1608 C1605 0.929 . S
S1609 N1610 1.613 . S
S1609 N1611 1.610 . S
N1610 S1609 1.613 . S
N1610 C1613 1.350 . S
N1611 S1609 1.610 . S
N1611 C1612 1.351 . S
C1612 C1606 1.428 . S
C1612 N1611 1.351 . S
C1612 C1613 1.434 . S
C1613 C1604 1.429 . S
C1613 N1610 1.350 . S
C1613 C1612 1.434 . S
C1614 C1615 1.369 . S
C1614 C1616 1.419 . S
C1614 H1618 0.930 . S
C1615 C1614 1.369 . S
C1615 C1624 1.429 1_545 S
C1616 C1614 1.419 . S
C1616 C1617 1.363 . S
C1616 H1619 0.929 . S
C1617 C1616 1.363 . S
C1617 C1623 1.414 1_545 S
H1618 C1614 0.930 . S
H1619 C1616 0.929 . S
S1620 N1621 1.613 . S
S1620 N1622 1.610 . S
N1621 S1620 1.613 . S
N1621 C1624 1.350 . S
N1622 S1620 1.610 . S
N1622 C1623 1.358 . S
C1623 C1617 1.414 1_565 S
C1623 N1622 1.358 . S
C1623 C1624 1.444 . S
C1624 C1615 1.429 1_565 S
C1624 N1621 1.350 . S
C1624 C1623 1.444 . S
C1625 C1626 1.369 . S
C1625 C1627 1.419 . S
C1625 H1629 0.930 . S
C1626 C1625 1.369 . S
C1626 C1635 1.429 . S
C1627 C1625 1.419 . S
C1627 C1628 1.363 . S
C1627 H1630 0.929 . S
C1628 C1627 1.363 . S
C1628 C1634 1.428 . S
H1629 C1625 0.930 . S
H1630 C1627 0.929 . S
S1631 N1632 1.613 . S
S1631 N1633 1.610 . S
N1632 S1631 1.613 . S
N1632 C1635 1.350 . S
N1633 S1631 1.610 . S
N1633 C1634 1.351 . S
C1634 C1628 1.428 . S
C1634 N1633 1.351 . S
C1634 C1635 1.434 . S
C1635 C1626 1.429 . S
C1635 N1632 1.350 . S
C1635 C1634 1.434 . S
C1636 C1637 1.369 . S
C1636 C1638 1.419 . S
C1636 H1640 0.930 . S
C1637 C1636 1.369 . S
C1637 C1646 1.429 . S
C1638 C1636 1.419 . S
C1638 C1639 1.342 1_655 S
C1638 H1641 0.929 1_545 S
C1639 C1638 1.342 1_455 S
C1639 C1645 1.436 . S
H1640 C1636 0.930 . S
H1641 C1638 0.929 1_565 S
S1642 N1643 1.613 . S
S1642 N1644 1.610 . S
N1643 S1642 1.613 . S
N1643 C1646 1.350 1_455 S
N1644 S1642 1.610 . S
N1644 C1645 1.351 . S
C1645 C1639 1.436 . S
C1645 N1644 1.351 . S
C1645 C1646 1.434 1_455 S
C1646 C1637 1.429 . S
C1646 N1643 1.350 1_655 S
C1646 C1645 1.434 1_655 S
C1647 C1648 1.369 . S
C1647 C1649 1.419 . S
C1647 H1651 0.930 . S
C1648 C1647 1.369 . S
C1648 C1657 1.429 . S
C1649 C1647 1.419 . S
C1649 C1650 1.363 . S
C1649 H1652 0.929 . S
C1650 C1649 1.363 . S
C1650 C1656 1.428 . S
H1651 C1647 0.930 . S
H1652 C1649 0.929 . S
S1653 N1654 1.613 . S
S1653 N1655 1.610 . S
N1654 S1653 1.613 . S
N1654 C1657 1.350 . S
N1655 S1653 1.610 . S
N1655 C1656 1.351 . S
C1656 C1650 1.428 . S
C1656 N1655 1.351 . S
C1656 C1657 1.434 . S
C1657 C1648 1.429 . S
C1657 N1654 1.350 . S
C1657 C1656 1.434 . S
C1658 C1659 1.369 . S
C1658 C1660 1.419 . S
C1658 H1662 0.930 . S
C1659 C1658 1.369 . S
C1659 C1668 1.429 . S
C1660 C1658 1.419 . S
C1660 C1661 1.363 . S
C1660 H1663 0.929 . S
C1661 C1660 1.363 . S
C1661 C1667 1.428 . S
H1662 C1658 0.930 . S
H1663 C1660 0.929 . S
S1664 N1665 1.613 1_554 S
S1664 N1666 1.610 . S
N1665 S1664 1.613 1_556 S
N1665 C1668 1.350 . S
N1666 S1664 1.610 . S
N1666 C1667 1.351 1_554 S
C1667 C1661 1.428 . S
C1667 N1666 1.351 1_556 S
C1667 C1668 1.434 . S
C1668 C1659 1.429 . S
C1668 N1665 1.350 . S
C1668 C1667 1.434 . S
C1669 C1670 1.369 . S
C1669 C1671 1.419 . S
C1669 H1673 0.930 . S
C1670 C1669 1.369 . S
C1670 C1679 1.429 . S
C1671 C1669 1.419 . S
C1671 C1672 1.363 . S
C1671 H1674 0.929 . S
C1672 C1671 1.363 . S
C1672 C1678 1.428 . S
H1673 C1669 0.930 . S
H1674 C1671 0.929 . S
S1675 N1676 1.613 . S
S1675 N1677 1.610 . S
N1676 S1675 1.613 . S
N1676 C1679 1.350 . S
N1677 S1675 1.610 . S
N1677 C1678 1.351 . S
C1678 C1672 1.428 . S
C1678 N1677 1.351 . S
C1678 C1679 1.434 . S
C1679 C1670 1.429 . S
C1679 N1676 1.350 . S
C1679 C1678 1.434 . S
C1680 C1681 1.369 . S
C1680 C1682 1.419 . S
C1680 H1684 0.930 . S
C1681 C1680 1.369 . S
C1681 C1690 1.429 . S
C1682 C1680 1.419 . S
C1682 C1683 1.363 . S
C1682 H1685 0.929 . S
C1683 C1682 1.363 . S
C1683 C1689 1.428 . S
H1684 C1680 0.930 . S
H1685 C1682 0.929 . S
S1686 N1687 1.613 . S
S1686 N1688 1.610 . S
N1687 S1686 1.613 . S
N1687 C1690 1.350 . S
N1688 S1686 1.610 . S
N1688 C1689 1.351 . S
C1689 C1683 1.428 . S
C1689 N1688 1.351 . S
C1689 C1690 1.434 . S
C1690 C1681 1.429 . S
C1690 N1687 1.350 . S
C1690 C1689 1.434 . S
C1691 C1692 1.369 . S
C1691 C1693 1.419 . S
C1691 H1695 0.930 . S
C1692 C1691 1.369 . S
C1692 C1701 1.429 . S
C1693 C1691 1.419 . S
C1693 C1694 1.363 . S
C1693 H1696 0.929 . S
C1694 C1693 1.363 . S
C1694 C1700 1.428 . S
H1695 C1691 0.930 . S
H1696 C1693 0.929 . S
S1697 N1698 1.613 . S
S1697 N1699 1.610 . S
N1698 S1697 1.613 . S
N1698 C1701 1.350 . S
N1699 S1697 1.610 . S
N1699 C1700 1.351 . S
C1700 C1694 1.428 . S
C1700 N1699 1.351 . S
C1700 C1701 1.434 . S
C1701 C1692 1.429 . S
C1701 N1698 1.350 . S
C1701 C1700 1.434 . S
C1702 C1703 1.369 . S
C1702 C1704 1.419 . S
C1702 H1706 0.930 . S
C1703 C1702 1.369 . S
C1703 C1712 1.429 . S
C1704 C1702 1.419 . S
C1704 C1705 1.363 . S
C1704 H1707 0.929 . S
C1705 C1704 1.363 . S
C1705 C1711 1.428 . S
H1706 C1702 0.930 . S
H1707 C1704 0.929 . S
S1708 N1709 1.613 . S
S1708 N1710 1.610 . S
N1709 S1708 1.613 . S
N1709 C1712 1.350 . S
N1710 S1708 1.610 . S
N1710 C1711 1.351 . S
C1711 C1705 1.428 . S
C1711 N1710 1.351 . S
C1711 C1712 1.434 . S
C1712 C1703 1.429 . S
C1712 N1709 1.350 . S
C1712 C1711 1.434 . S
C1713 C1714 1.369 . S
C1713 C1715 1.419 . S
C1713 H1717 0.930 . S
C1714 C1713 1.369 . S
C1714 C1723 1.429 . S
C1715 C1713 1.419 . S
C1715 C1716 1.363 . S
C1715 H1718 0.929 . S
C1716 C1715 1.363 . S
C1716 C1722 1.428 . S
H1717 C1713 0.930 . S
H1718 C1715 0.929 . S
S1719 N1720 1.613 . S
S1719 N1721 1.610 . S
N1720 S1719 1.613 . S
N1720 C1723 1.350 . S
N1721 S1719 1.610 . S
N1721 C1722 1.351 . S
C1722 C1716 1.428 . S
C1722 N1721 1.351 . S
C1722 C1723 1.434 . S
C1723 C1714 1.429 . S
C1723 N1720 1.350 . S
C1723 C1722 1.434 . S
C1724 C1725 1.369 . S
C1724 C1726 1.419 . S
C1724 H1728 0.930 . S
C1725 C1724 1.369 . S
C1725 C1734 1.429 . S
C1726 C1724 1.419 . S
C1726 C1727 1.363 . S
C1726 H1729 0.929 . S
C1727 C1726 1.363 . S
C1727 C1733 1.428 . S
H1728 C1724 0.930 . S
H1729 C1726 0.929 . S
S1730 N1731 1.613 . S
S1730 N1732 1.610 . S
N1731 S1730 1.613 . S
N1731 C1734 1.350 . S
N1732 S1730 1.610 . S
N1732 C1733 1.351 . S
C1733 C1727 1.428 . S
C1733 N1732 1.351 . S
C1733 C1734 1.434 . S
C1734 C1725 1.429 . S
C1734 N1731 1.350 . S
C1734 C1733 1.434 . S
C1735 C1736 1.369 . S
C1735 C1737 1.419 . S
C1735 H1739 0.930 . S
C1736 C1735 1.369 . S
C1736 C1745 1.429 . S
C1737 C1735 1.419 . S
C1737 C1738 1.363 . S
C1737 H1740 0.929 . S
C1738 C1737 1.363 . S
C1738 C1744 1.428 . S
H1739 C1735 0.930 . S
H1740 C1737 0.929 . S
S1741 N1742 1.613 . S
S1741 N1743 1.610 . S
N1742 S1741 1.613 . S
N1742 C1745 1.350 . S
N1743 S1741 1.610 . S
N1743 C1744 1.351 . S
C1744 C1738 1.428 . S
C1744 N1743 1.351 . S
C1744 C1745 1.434 . S
C1745 C1736 1.429 . S
C1745 N1742 1.350 . S
C1745 C1744 1.434 . S
C1746 C1747 1.369 . S
C1746 C1748 1.419 . S
C1746 H1750 0.930 . S
C1747 C1746 1.369 . S
C1747 C1756 1.429 . S
C1748 C1746 1.419 . S
C1748 C1749 1.363 . S
C1748 H1751 0.929 . S
C1749 C1748 1.363 . S
C1749 C1755 1.428 . S
H1750 C1746 0.930 . S
H1751 C1748 0.929 . S
S1752 N1753 1.613 . S
S1752 N1754 1.610 . S
N1753 S1752 1.613 . S
N1753 C1756 1.350 . S
N1754 S1752 1.610 . S
N1754 C1755 1.351 . S
C1755 C1749 1.428 . S
C1755 N1754 1.351 . S
C1755 C1756 1.434 . S
C1756 C1747 1.429 . S
C1756 N1753 1.350 . S
C1756 C1755 1.434 . S
C1757 C1758 1.369 . S
C1757 C1759 1.419 . S
C1757 H1761 0.930 . S
C1758 C1757 1.369 . S
C1758 C1767 1.429 . S
C1759 C1757 1.419 . S
C1759 C1760 1.363 . S
C1759 H1762 0.929 . S
C1760 C1759 1.363 . S
C1760 C1766 1.428 . S
H1761 C1757 0.930 . S
H1762 C1759 0.929 . S
S1763 N1764 1.613 . S
S1763 N1765 1.610 . S
N1764 S1763 1.613 . S
N1764 C1767 1.350 . S
N1765 S1763 1.610 . S
N1765 C1766 1.351 . S
C1766 C1760 1.428 . S
C1766 N1765 1.351 . S
C1766 C1767 1.434 . S
C1767 C1758 1.429 . S
C1767 N1764 1.350 . S
C1767 C1766 1.434 . S
C1768 C1769 1.369 . S
C1768 C1770 1.419 . S
C1768 H1772 0.930 . S
C1769 C1768 1.369 . S
C1769 C1778 1.429 . S
C1770 C1768 1.419 . S
C1770 C1771 1.363 . S
C1770 H1773 0.929 . S
C1771 C1770 1.363 . S
C1771 C1777 1.428 . S
H1772 C1768 0.930 . S
H1773 C1770 0.929 . S
S1774 N1775 1.613 . S
S1774 N1776 1.610 . S
N1775 S1774 1.613 . S
N1775 C1778 1.350 . S
N1776 S1774 1.610 . S
N1776 C1777 1.351 . S
C1777 C1771 1.428 . S
C1777 N1776 1.351 . S
C1777 C1778 1.434 . S
C1778 C1769 1.429 . S
C1778 N1775 1.350 . S
C1778 C1777 1.434 . S
C1779 C1780 1.369 . S
C1779 C1781 1.419 . S
C1779 H1783 0.930 . S
C1780 C1779 1.369 . S
C1780 C1789 1.429 . S
C1781 C1779 1.419 . S
C1781 C1782 1.363 . S
C1781 H1784 0.929 . S
C1782 C1781 1.363 . S
C1782 C1788 1.428 . S
H1783 C1779 0.930 . S
H1784 C1781 0.929 . S
S1785 N1786 1.613 . S
S1785 N1787 1.610 . S
N1786 S1785 1.613 . S
N1786 C1789 1.350 . S
N1787 S1785 1.610 . S
N1787 C1788 1.351 . S
C1788 C1782 1.428 . S
C1788 N1787 1.351 . S
C1788 C1789 1.434 . S
C1789 C1780 1.429 . S
C1789 N1786 1.350 . S
C1789 C1788 1.434 . S
C1790 C1791 1.369 . S
C1790 C1792 1.419 . S
C1790 H1794 0.930 . S
C1791 C1790 1.369 . S
C1791 C1800 1.429 . S
C1792 C1790 1.419 . S
C1792 C1793 1.363 . S
C1792 H1795 0.929 . S
C1793 C1792 1.363 . S
C1793 C1799 1.428 . S
H1794 C1790 0.930 . S
H1795 C1792 0.929 . S
S1796 N1797 1.613 . S
S1796 N1798 1.610 . S
N1797 S1796 1.613 . S
N1797 C1800 1.350 . S
N1798 S1796 1.610 . S
N1798 C1799 1.351 . S
C1799 C1793 1.428 . S
C1799 N1798 1.351 . S
C1799 C1800 1.434 . S
C1800 C1791 1.429 . S
C1800 N1797 1.350 . S
C1800 C1799 1.434 . S
C1801 C1802 1.369 . S
C1801 C1803 1.419 . S
C1801 H1805 0.930 . S
C1802 C1801 1.369 . S
C1802 C1811 1.429 . S
C1803 C1801 1.419 . S
C1803 C1804 1.363 . S
C1803 H1806 0.929 . S
C1804 C1803 1.363 . S
C1804 C1810 1.428 . S
H1805 C1801 0.930 . S
H1806 C1803 0.929 . S
S1807 N1808 1.613 . S
S1807 N1809 1.610 . S
N1808 S1807 1.613 . S
N1808 C1811 1.350 . S
N1809 S1807 1.610 . S
N1809 C1810 1.351 . S
C1810 C1804 1.428 . S
C1810 N1809 1.351 . S
C1810 C1811 1.434 . S
C1811 C1802 1.429 . S
C1811 N1808 1.350 . S
C1811 C1810 1.434 . S
C1812 C1813 1.369 . S
C1812 C1814 1.419 . S
C1812 H1816 0.930 . S
C1813 C1812 1.369 . S
C1813 C1822 1.429 . S
C1814 C1812 1.419 . S
C1814 C1815 1.363 . S
C1814 H1817 0.929 . S
C1815 C1814 1.363 . S
C1815 C1821 1.428 . S
H1816 C1812 0.930 . S
H1817 C1814 0.929 . S
S1818 N1819 1.613 1_655 S
S1818 N1820 1.610 . S
N1819 S1818 1.613 1_455 S
N1819 C1822 1.350 . S
N1820 S1818 1.610 . S
N1820 C1821 1.351 1_655 S
C1821 C1815 1.428 . S
C1821 N1820 1.351 1_455 S
C1821 C1822 1.434 . S
C1822 C1813 1.429 . S
C1822 N1819 1.350 . S
C1822 C1821 1.434 . S
C1823 C1824 1.369 . S
C1823 C1825 1.419 . S
C1823 H1827 0.930 . S
C1824 C1823 1.369 . S
C1824 C1833 1.429 . S
C1825 C1823 1.419 . S
C1825 C1826 1.363 . S
C1825 H1828 0.929 . S
C1826 C1825 1.363 . S
C1826 C1832 1.428 . S
H1827 C1823 0.930 . S
H1828 C1825 0.929 . S
S1829 N1830 1.613 . S
S1829 N1831 1.610 . S
N1830 S1829 1.613 . S
N1830 C1833 1.350 . S
N1831 S1829 1.610 . S
N1831 C1832 1.351 . S
C1832 C1826 1.428 . S
C1832 N1831 1.351 . S
C1832 C1833 1.434 . S
C1833 C1824 1.429 . S
C1833 N1830 1.350 . S
C1833 C1832 1.434 . S
C1834 C1835 1.369 . S
C1834 C1836 1.419 . S
C1834 H1838 0.930 . S
C1835 C1834 1.369 . S
C1835 C1844 1.429 . S
C1836 C1834 1.419 . S
C1836 C1837 1.363 . S
C1836 H1839 0.929 . S
C1837 C1836 1.363 . S
C1837 C1843 1.428 . S
H1838 C1834 0.930 . S
H1839 C1836 0.929 . S
S1840 N1841 1.613 . S
S1840 N1842 1.610 1_556 S
N1841 S1840 1.613 . S
N1841 C1844 1.350 1_556 S
N1842 S1840 1.610 1_554 S
N1842 C1843 1.351 . S
C1843 C1837 1.428 . S
C1843 N1842 1.351 . S
C1843 C1844 1.434 . S
C1844 C1835 1.429 . S
C1844 N1841 1.350 1_554 S
C1844 C1843 1.434 . S
C1845 C1846 1.369 . S
C1845 C1847 1.419 . S
C1845 H1849 0.930 . S
C1846 C1845 1.369 . S
C1846 C1855 1.429 . S
C1847 C1845 1.419 . S
C1847 C1848 1.363 . S
C1847 H1850 0.929 . S
C1848 C1847 1.363 . S
C1848 C1854 1.428 . S
H1849 C1845 0.930 . S
H1850 C1847 0.929 . S
S1851 N1852 1.613 . S
S1851 N1853 1.610 . S
N1852 S1851 1.613 . S
N1852 C1855 1.350 . S
N1853 S1851 1.610 . S
N1853 C1854 1.351 . S
C1854 C1848 1.428 . S
C1854 N1853 1.351 . S
C1854 C1855 1.434 . S
C1855 C1846 1.429 . S
C1855 N1852 1.350 . S
C1855 C1854 1.434 . S
C1856 C1857 1.369 . S
C1856 C1858 1.419 . S
C1856 H1860 0.930 . S
C1857 C1856 1.369 . S
C1857 C1866 1.429 1_545 S
C1858 C1856 1.419 . S
C1858 C1859 1.363 1_545 S
C1858 H1861 0.929 . S
C1859 C1858 1.363 1_565 S
C1859 C1865 1.428 . S
H1860 C1856 0.930 . S
H1861 C1858 0.929 . S
S1862 N1863 1.613 . S
S1862 N1864 1.610 . S
N1863 S1862 1.613 . S
N1863 C1866 1.350 . S
N1864 S1862 1.610 . S
N1864 C1865 1.351 . S
C1865 C1859 1.428 . S
C1865 N1864 1.351 . S
C1865 C1866 1.434 . S
C1866 C1857 1.429 1_565 S
C1866 N1863 1.350 . S
C1866 C1865 1.434 . S
C1867 C1868 1.369 . S
C1867 C1869 1.419 . S
C1867 H1871 0.930 . S
C1868 C1867 1.369 . S
C1868 C1877 1.429 . S
C1869 C1867 1.419 . S
C1869 C1870 1.363 . S
C1869 H1872 0.929 . S
C1870 C1869 1.363 . S
C1870 C1876 1.428 . S
H1871 C1867 0.930 . S
H1872 C1869 0.929 . S
S1873 N1874 1.613 . S
S1873 N1875 1.610 . S
N1874 S1873 1.613 . S
N1874 C1877 1.350 . S
N1875 S1873 1.610 . S
N1875 C1876 1.351 . S
C1876 C1870 1.428 . S
C1876 N1875 1.351 . S
C1876 C1877 1.434 . S
C1877 C1868 1.429 . S
C1877 N1874 1.350 . S
C1877 C1876 1.434 . S
C1878 C1879 1.369 . S
C1878 C1880 1.419 . S
C1878 H1882 0.930 . S
C1879 C1878 1.369 . S
C1879 C1888 1.429 . S
C1880 C1878 1.419 . S
C1880 C1881 1.363 . S
C1880 H1883 0.929 . S
C1881 C1880 1.363 . S
C1881 C1887 1.428 . S
H1882 C1878 0.930 . S
H1883 C1880 0.929 . S
S1884 N1885 1.613 . S
S1884 N1886 1.610 . S
N1885 S1884 1.613 . S
N1885 C1888 1.350 . S
N1886 S1884 1.610 . S
N1886 C1887 1.351 . S
C1887 C1881 1.428 . S
C1887 N1886 1.351 . S
C1887 C1888 1.434 . S
C1888 C1879 1.429 . S
C1888 N1885 1.350 . S
C1888 C1887 1.434 . S
C1889 C1890 1.369 . S
C1889 C1891 1.419 . S
C1889 H1893 0.930 . S
C1890 C1889 1.369 . S
C1890 C1899 1.429 . S
C1891 C1889 1.419 . S
C1891 C1892 1.363 . S
C1891 H1894 0.929 . S
C1892 C1891 1.363 . S
C1892 C1898 1.428 . S
H1893 C1889 0.930 . S
H1894 C1891 0.929 . S
S1895 N1896 1.613 . S
S1895 N1897 1.610 . S
N1896 S1895 1.613 . S
N1896 C1899 1.350 . S
N1897 S1895 1.610 . S
N1897 C1898 1.351 . S
C1898 C1892 1.428 . S
C1898 N1897 1.351 . S
C1898 C1899 1.434 . S
C1899 C1890 1.429 . S
C1899 N1896 1.350 . S
C1899 C1898 1.434 . S
C1900 C1901 1.369 1_545 S
C1900 C1902 1.419 . S
C1900 H1904 0.930 . S
C1901 C1900 1.369 1_565 S
C1901 C1910 1.429 . S
C1902 C1900 1.419 . S
C1902 C1903 1.363 . S
C1902 H1905 0.929 . S
C1903 C1902 1.363 . S
C1903 C1909 1.428 1_545 S
H1904 C1900 0.930 . S
H1905 C1902 0.929 . S
S1906 N1907 1.613 . S
S1906 N1908 1.610 . S
N1907 S1906 1.613 . S
N1907 C1910 1.350 . S
N1908 S1906 1.610 . S
N1908 C1909 1.351 . S
C1909 C1903 1.428 1_565 S
C1909 N1908 1.351 . S
C1909 C1910 1.434 . S
C1910 C1901 1.429 . S
C1910 N1907 1.350 . S
C1910 C1909 1.434 . S
C1911 C1912 1.369 . S
C1911 C1913 1.419 . S
C1911 H1915 0.930 . S
C1912 C1911 1.369 . S
C1912 C1921 1.429 . S
C1913 C1911 1.419 . S
C1913 C1914 1.363 . S
C1913 H1916 0.929 . S
C1914 C1913 1.363 . S
C1914 C1920 1.428 . S
H1915 C1911 0.930 . S
H1916 C1913 0.929 . S
S1917 N1918 1.613 . S
S1917 N1919 1.610 . S
N1918 S1917 1.613 . S
N1918 C1921 1.350 . S
N1919 S1917 1.610 . S
N1919 C1920 1.351 . S
C1920 C1914 1.428 . S
C1920 N1919 1.351 . S
C1920 C1921 1.434 . S
C1921 C1912 1.429 . S
C1921 N1918 1.350 . S
C1921 C1920 1.434 . S
C1922 C1923 1.369 . S
C1922 C1924 1.419 . S
C1922 H1926 0.930 . S
C1923 C1922 1.369 . S
C1923 C1932 1.429 . S
C1924 C1922 1.419 . S
C1924 C1925 1.363 . S
C1924 H1927 0.929 . S
C1925 C1924 1.363 . S
C1925 C1931 1.428 . S
H1926 C1922 0.930 . S
H1927 C1924 0.929 . S
S1928 N1929 1.613 1_565 S
S1928 N1930 1.610 . S
N1929 S1928 1.613 1_545 S
N1929 C1932 1.350 . S
N1930 S1928 1.610 . S
N1930 C1931 1.351 1_565 S
C1931 C1925 1.428 . S
C1931 N1930 1.351 1_545 S
C1931 C1932 1.434 . S
C1932 C1923 1.429 . S
C1932 N1929 1.350 . S
C1932 C1931 1.434 . S
C1933 C1934 1.369 . S
C1933 C1935 1.419 . S
C1933 H1937 0.930 . S
C1934 C1933 1.369 . S
C1934 C1943 1.429 . S
C1935 C1933 1.419 . S
C1935 C1936 1.363 . S
C1935 H1938 0.929 . S
C1936 C1935 1.363 . S
C1936 C1942 1.428 . S
H1937 C1933 0.930 . S
H1938 C1935 0.929 . S
S1939 N1940 1.613 . S
S1939 N1941 1.610 . S
N1940 S1939 1.613 . S
N1940 C1943 1.350 . S
N1941 S1939 1.610 . S
N1941 C1942 1.351 . S
C1942 C1936 1.428 . S
C1942 N1941 1.351 . S
C1942 C1943 1.434 . S
C1943 C1934 1.429 . S
C1943 N1940 1.350 . S
C1943 C1942 1.434 . S
C1944 C1945 1.369 . S
C1944 C1946 1.419 . S
C1944 H1948 0.930 . S
C1945 C1944 1.369 . S
C1945 C1954 1.429 . S
C1946 C1944 1.419 . S
C1946 C1947 1.363 . S
C1946 H1949 0.929 . S
C1947 C1946 1.363 . S
C1947 C1953 1.428 . S
H1948 C1944 0.930 . S
H1949 C1946 0.929 . S
S1950 N1951 1.613 . S
S1950 N1952 1.610 . S
N1951 S1950 1.613 . S
N1951 C1954 1.350 . S
N1952 S1950 1.610 . S
N1952 C1953 1.351 . S
C1953 C1947 1.428 . S
C1953 N1952 1.351 . S
C1953 C1954 1.434 . S
C1954 C1945 1.429 . S
C1954 N1951 1.350 . S
C1954 C1953 1.434 . S
C1955 C1956 1.369 . S
C1955 C1957 1.419 . S
C1955 H1959 0.930 . S
C1956 C1955 1.369 . S
C1956 C1965 1.429 . S
C1957 C1955 1.419 . S
C1957 C1958 1.363 . S
C1957 H1960 0.929 . S
C1958 C1957 1.363 . S
C1958 C1964 1.428 . S
H1959 C1955 0.930 . S
H1960 C1957 0.929 . S
S1961 N1962 1.613 . S
S1961 N1963 1.610 . S
N1962 S1961 1.613 . S
N1962 C1965 1.350 . S
N1963 S1961 1.610 . S
N1963 C1964 1.351 . S
C1964 C1958 1.428 . S
C1964 N1963 1.351 . S
C1964 C1965 1.434 . S
C1965 C1956 1.429 . S
C1965 N1962 1.350 . S
C1965 C1964 1.434 . S
C1966 C1967 1.369 . S
C1966 C1968 1.419 . S
C1966 H1970 0.930 . S
C1967 C1966 1.369 . S
C1967 C1976 1.429 . S
C1968 C1966 1.419 . S
C1968 C1969 1.363 . S
C1968 H1971 0.929 . S
C1969 C1968 1.363 . S
C1969 C1975 1.428 . S
H1970 C1966 0.930 . S
H1971 C1968 0.929 . S
S1972 N1973 1.613 . S
S1972 N1974 1.610 . S
N1973 S1972 1.613 . S
N1973 C1976 1.350 . S
N1974 S1972 1.610 . S
N1974 C1975 1.351 . S
C1975 C1969 1.428 . S
C1975 N1974 1.351 . S
C1975 C1976 1.434 . S
C1976 C1967 1.429 . S
C1976 N1973 1.350 . S
C1976 C1975 1.434 . S
C1977 C1978 1.369 . S
C1977 C1979 1.419 . S
C1977 H1981 0.930 . S
C1978 C1977 1.369 . S
C1978 C1987 1.429 . S
C1979 C1977 1.419 . S
C1979 C1980 1.363 . S
C1979 H1982 0.929 . S
C1980 C1979 1.363 . S
C1980 C1986 1.428 . S
H1981 C1977 0.930 . S
H1982 C1979 0.929 . S
S1983 N1984 1.613 . S
S1983 N1985 1.610 . S
N1984 S1983 1.613 . S
N1984 C1987 1.350 . S
N1985 S1983 1.610 . S
N1985 C1986 1.351 . S
C1986 C1980 1.428 . S
C1986 N1985 1.351 . S
C1986 C1987 1.434 . S
C1987 C1978 1.429 . S
C1987 N1984 1.350 . S
C1987 C1986 1.434 . S
C1988 C1989 1.369 . S
C1988 C1990 1.419 . S
C1988 H1992 0.930 . S
C1989 C1988 1.369 . S
C1989 C1998 1.429 . S
C1990 C1988 1.419 . S
C1990 C1991 1.363 . S
C1990 H1993 0.929 . S
C1991 C1990 1.363 . S
C1991 C1997 1.428 . S
H1992 C1988 0.930 . S
H1993 C1990 0.929 . S
S1994 N1995 1.613 . S
S1994 N1996 1.610 . S
N1995 S1994 1.613 . S
N1995 C1998 1.350 . S
N1996 S1994 1.610 . S
N1996 C1997 1.351 . S
C1997 C1991 1.428 . S
C1997 N1996 1.351 . S
C1997 C1998 1.434 . S
C1998 C1989 1.429 . S
C1998 N1995 1.350 . S
C1998 C1997 1.434 . S
C1999 C2000 1.369 . S
C1999 C2001 1.419 . S
C1999 H2003 0.930 . S
C2000 C1999 1.369 . S
C2000 C2009 1.429 . S
C2001 C1999 1.419 . S
C2001 C2002 1.363 . S
C2001 H2004 0.929 . S
C2002 C2001 1.363 . S
C2002 C2008 1.428 . S
H2003 C1999 0.930 . S
H2004 C2001 0.929 . S
S2005 N2006 1.613 . S
S2005 N2007 1.610 . S
N2006 S2005 1.613 . S
N2006 C2009 1.350 . S
N2007 S2005 1.610 . S
N2007 C2008 1.351 . S
C2008 C2002 1.428 . S
C2008 N2007 1.351 . S
C2008 C2009 1.434 . S
C2009 C2000 1.429 . S
C2009 N2006 1.350 . S
C2009 C2008 1.434 . S
C2010 C2011 1.369 . S
C2010 C2012 1.419 . S
C2010 H2014 0.930 . S
C2011 C2010 1.369 . S
C2011 C2020 1.429 . S
C2012 C2010 1.419 . S
C2012 C2013 1.363 . S
C2012 H2015 0.929 . S
C2013 C2012 1.363 . S
C2013 C2019 1.428 . S
H2014 C2010 0.930 . S
H2015 C2012 0.929 . S
S2016 N2017 1.613 . S
S2016 N2018 1.610 . S
N2017 S2016 1.613 . S
N2017 C2020 1.350 . S
N2018 S2016 1.610 . S
N2018 C2019 1.351 . S
C2019 C2013 1.428 . S
C2019 N2018 1.351 . S
C2019 C2020 1.434 . S
C2020 C2011 1.429 . S
C2020 N2017 1.350 . S
C2020 C2019 1.434 . S
C2021 C2022 1.369 . S
C2021 C2023 1.419 . S
C2021 H2025 0.930 . S
C2022 C2021 1.369 . S
C2022 C2031 1.429 . S
C2023 C2021 1.419 . S
C2023 C2024 1.363 . S
C2023 H2026 0.929 . S
C2024 C2023 1.363 . S
C2024 C2030 1.428 . S
H2025 C2021 0.930 . S
H2026 C2023 0.929 . S
S2027 N2028 1.613 . S
S2027 N2029 1.610 . S
N2028 S2027 1.613 . S
N2028 C2031 1.350 . S
N2029 S2027 1.610 . S
N2029 C2030 1.351 . S
C2030 C2024 1.428 . S
C2030 N2029 1.351 . S
C2030 C2031 1.434 . S
C2031 C2022 1.429 . S
C2031 N2028 1.350 . S
C2031 C2030 1.434 . S
C2032 C2033 1.369 . S
C2032 C2034 1.419 . S
C2032 H2036 0.930 . S
C2033 C2032 1.369 . S
C2033 C2042 1.429 . S
C2034 C2032 1.419 . S
C2034 C2035 1.363 . S
C2034 H2037 0.929 . S
C2035 C2034 1.363 . S
C2035 C2041 1.428 . S
H2036 C2032 0.930 . S
H2037 C2034 0.929 . S
S2038 N2039 1.613 . S
S2038 N2040 1.610 . S
N2039 S2038 1.613 . S
N2039 C2042 1.350 . S
N2040 S2038 1.610 . S
N2040 C2041 1.351 . S
C2041 C2035 1.428 . S
C2041 N2040 1.351 . S
C2041 C2042 1.434 . S
C2042 C2033 1.429 . S
C2042 N2039 1.350 . S
C2042 C2041 1.434 . S
C2043 C2044 1.369 . S
C2043 C2045 1.419 . S
C2043 H2047 0.930 . S
C2044 C2043 1.369 . S
C2044 C2053 1.429 . S
C2045 C2043 1.419 . S
C2045 C2046 1.363 . S
C2045 H2048 0.929 . S
C2046 C2045 1.363 . S
C2046 C2052 1.428 . S
H2047 C2043 0.930 . S
H2048 C2045 0.929 . S
S2049 N2050 1.613 . S
S2049 N2051 1.610 . S
N2050 S2049 1.613 . S
N2050 C2053 1.350 . S
N2051 S2049 1.610 . S
N2051 C2052 1.351 . S
C2052 C2046 1.428 . S
C2052 N2051 1.351 . S
C2052 C2053 1.434 . S
C2053 C2044 1.429 . S
C2053 N2050 1.350 . S
C2053 C2052 1.434 . S
C2054 C2055 1.369 . S
C2054 C2056 1.419 . S
C2054 H2058 0.930 1_454 S
C2055 C2054 1.369 . S
C2055 C2064 1.429 . S
C2056 C2054 1.419 . S
C2056 C2057 1.363 . S
C2056 H2059 0.944 . S
C2057 C2056 1.363 . S
C2057 C2063 1.428 . S
H2058 C2054 0.930 1_656 S
H2059 C2056 0.944 . S
S2060 N2061 1.613 . S
S2060 N2062 1.610 . S
N2061 S2060 1.613 . S
N2061 C2064 1.350 . S
N2062 S2060 1.610 . S
N2062 C2063 1.351 . S
C2063 C2057 1.428 . S
C2063 N2062 1.351 . S
C2063 C2064 1.434 . S
C2064 C2055 1.429 . S
C2064 N2061 1.350 . S
C2064 C2063 1.434 . S
C2065 C2066 1.369 . S
C2065 C2067 1.419 . S
C2065 H2069 0.920 1_655 S
C2066 C2065 1.369 . S
C2066 C2075 1.429 . S
C2067 C2065 1.419 . S
C2067 C2068 1.363 . S
C2067 H2070 0.929 . S
C2068 C2067 1.363 . S
C2068 C2074 1.428 . S
H2069 C2065 0.920 1_455 S
H2070 C2067 0.929 . S
S2071 N2072 1.613 . S
S2071 N2073 1.610 . S
N2072 S2071 1.613 . S
N2072 C2075 1.350 . S
N2073 S2071 1.610 . S
N2073 C2074 1.351 . S
C2074 C2068 1.428 . S
C2074 N2073 1.351 . S
C2074 C2075 1.434 . S
C2075 C2066 1.429 . S
C2075 N2072 1.350 . S
C2075 C2074 1.434 . S
C2076 C2077 1.369 . S
C2076 C2078 1.419 . S
C2076 H2080 0.930 . S
C2077 C2076 1.369 . S
C2077 C2086 1.429 . S
C2078 C2076 1.419 . S
C2078 C2079 1.363 . S
C2078 H2081 0.929 . S
C2079 C2078 1.363 . S
C2079 C2085 1.428 . S
H2080 C2076 0.930 . S
H2081 C2078 0.929 . S
S2082 N2083 1.613 . S
S2082 N2084 1.610 . S
N2083 S2082 1.613 . S
N2083 C2086 1.350 . S
N2084 S2082 1.610 . S
N2084 C2085 1.351 . S
C2085 C2079 1.428 . S
C2085 N2084 1.351 . S
C2085 C2086 1.434 . S
C2086 C2077 1.429 . S
C2086 N2083 1.350 . S
C2086 C2085 1.434 . S
C2087 C2088 1.369 . S
C2087 C2089 1.419 1_455 S
C2087 H2091 0.930 . S
C2088 C2087 1.369 . S
C2088 C2097 1.429 1_455 S
C2089 C2087 1.419 1_655 S
C2089 C2090 1.363 . S
C2089 H2092 0.929 . S
C2090 C2089 1.363 . S
C2090 C2096 1.428 . S
H2091 C2087 0.930 . S
H2092 C2089 0.929 . S
S2093 N2094 1.613 . S
S2093 N2095 1.610 . S
N2094 S2093 1.613 . S
N2094 C2097 1.350 . S
N2095 S2093 1.610 . S
N2095 C2096 1.351 . S
C2096 C2090 1.428 . S
C2096 N2095 1.351 . S
C2096 C2097 1.434 . S
C2097 C2088 1.429 1_655 S
C2097 N2094 1.350 . S
C2097 C2096 1.434 . S
C2098 C2099 1.359 1_455 S
C2098 C2100 1.459 . S
C2098 H2102 0.900 1_455 S
C2099 C2098 1.359 1_655 S
C2099 C2108 1.429 1_655 S
C2100 C2098 1.459 . S
C2100 C2101 1.363 . S
C2100 H2103 0.929 . S
C2101 C2100 1.363 . S
C2101 C2107 1.428 . S
H2102 C2098 0.900 1_655 S
H2103 C2100 0.929 . S
S2104 N2105 1.613 . S
S2104 N2106 1.610 . S
N2105 S2104 1.613 . S
N2105 C2108 1.350 . S
N2106 S2104 1.610 . S
N2106 C2107 1.351 . S
C2107 C2101 1.428 . S
C2107 N2106 1.351 . S
C2107 C2108 1.434 . S
C2108 C2099 1.429 1_455 S
C2108 N2105 1.350 . S
C2108 C2107 1.434 . S
C2109 C2110 1.369 . S
C2109 C2111 1.419 . S
C2109 H2113 0.930 . S
C2110 C2109 1.369 . S
C2110 C2119 1.429 . S
C2111 C2109 1.419 . S
C2111 C2112 1.363 . S
C2111 H2114 0.929 . S
C2112 C2111 1.363 . S
C2112 C2118 1.428 . S
H2113 C2109 0.930 . S
H2114 C2111 0.929 . S
S2115 N2116 1.613 . S
S2115 N2117 1.610 . S
N2116 S2115 1.613 . S
N2116 C2119 1.350 . S
N2117 S2115 1.610 . S
N2117 C2118 1.351 . S
C2118 C2112 1.428 . S
C2118 N2117 1.351 . S
C2118 C2119 1.434 . S
C2119 C2110 1.429 . S
C2119 N2116 1.350 . S
C2119 C2118 1.434 . S
C2120 C2121 1.369 . S
C2120 C2122 1.419 . S
C2120 H2124 0.930 . S
C2121 C2120 1.369 . S
C2121 C2130 1.429 . S
C2122 C2120 1.419 . S
C2122 C2123 1.363 . S
C2122 H2125 0.929 . S
C2123 C2122 1.363 . S
C2123 C2129 1.428 . S
H2124 C2120 0.930 . S
H2125 C2122 0.929 . S
S2126 N2127 1.613 . S
S2126 N2128 1.610 . S
N2127 S2126 1.613 . S
N2127 C2130 1.350 . S
N2128 S2126 1.610 . S
N2128 C2129 1.351 . S
C2129 C2123 1.428 . S
C2129 N2128 1.351 . S
C2129 C2130 1.434 . S
C2130 C2121 1.429 . S
C2130 N2127 1.350 . S
C2130 C2129 1.434 . S
C2131 C2132 1.369 . S
C2131 C2133 1.419 . S
C2131 H2135 0.930 . S
C2132 C2131 1.369 . S
C2132 C2141 1.429 . S
C2133 C2131 1.419 . S
C2133 C2134 1.363 . S
C2133 H2136 0.929 1_554 S
C2134 C2133 1.363 . S
C2134 C2140 1.428 . S
H2135 C2131 0.930 . S
H2136 C2133 0.929 1_556 S
S2137 N2138 1.613 . S
S2137 N2139 1.610 . S
N2138 S2137 1.613 . S
N2138 C2141 1.350 . S
N2139 S2137 1.610 . S
N2139 C2140 1.351 . S
C2140 C2134 1.428 . S
C2140 N2139 1.351 . S
C2140 C2141 1.434 . S
C2141 C2132 1.429 . S
C2141 N2138 1.350 . S
C2141 C2140 1.434 . S
C2142 C2143 1.369 . S
C2142 C2144 1.419 . S
C2142 H2146 0.930 . S
C2143 C2142 1.369 . S
C2143 C2152 1.429 . S
C2144 C2142 1.419 . S
C2144 C2145 1.363 . S
C2144 H2147 0.929 . S
C2145 C2144 1.363 . S
C2145 C2151 1.428 . S
H2146 C2142 0.930 . S
H2147 C2144 0.929 . S
S2148 N2149 1.613 . S
S2148 N2150 1.610 . S
N2149 S2148 1.613 . S
N2149 C2152 1.350 . S
N2150 S2148 1.610 . S
N2150 C2151 1.351 . S
C2151 C2145 1.428 . S
C2151 N2150 1.351 . S
C2151 C2152 1.434 . S
C2152 C2143 1.429 . S
C2152 N2149 1.350 . S
C2152 C2151 1.434 . S
C2153 C2154 1.369 . S
C2153 C2155 1.419 . S
C2153 H2157 0.930 . S
C2154 C2153 1.369 . S
C2154 C2163 1.429 . S
C2155 C2153 1.419 . S
C2155 C2156 1.363 . S
C2155 H2158 0.929 . S
C2156 C2155 1.363 . S
C2156 C2162 1.428 . S
H2157 C2153 0.930 . S
H2158 C2155 0.929 . S
S2159 N2160 1.613 . S
S2159 N2161 1.610 . S
N2160 S2159 1.613 . S
N2160 C2163 1.350 . S
N2161 S2159 1.610 . S
N2161 C2162 1.351 . S
C2162 C2156 1.428 . S
C2162 N2161 1.351 . S
C2162 C2163 1.434 . S
C2163 C2154 1.429 . S
C2163 N2160 1.350 . S
C2163 C2162 1.434 . S
C2164 C2165 1.369 . S
C2164 C2166 1.419 . S
C2164 H2168 0.930 . S
C2165 C2164 1.369 . S
C2165 C2174 1.429 . S
C2166 C2164 1.419 . S
C2166 C2167 1.363 . S
C2166 H2169 0.929 . S
C2167 C2166 1.363 . S
C2167 C2173 1.428 . S
H2168 C2164 0.930 . S
H2169 C2166 0.929 . S
S2170 N2171 1.613 . S
S2170 N2172 1.610 . S
N2171 S2170 1.613 . S
N2171 C2174 1.350 . S
N2172 S2170 1.610 . S
N2172 C2173 1.351 . S
C2173 C2167 1.428 . S
C2173 N2172 1.351 . S
C2173 C2174 1.434 . S
C2174 C2165 1.429 . S
C2174 N2171 1.350 . S
C2174 C2173 1.434 . S
C2175 C2176 1.369 . S
C2175 C2177 1.419 . S
C2175 H2179 0.930 . S
C2176 C2175 1.369 . S
C2176 C2185 1.429 . S
C2177 C2175 1.419 . S
C2177 C2178 1.363 . S
C2177 H2180 0.929 . S
C2178 C2177 1.363 . S
C2178 C2184 1.428 . S
H2179 C2175 0.930 . S
H2180 C2177 0.929 . S
S2181 N2182 1.613 . S
S2181 N2183 1.610 . S
N2182 S2181 1.613 . S
N2182 C2185 1.350 . S
N2183 S2181 1.610 . S
N2183 C2184 1.351 . S
C2184 C2178 1.428 . S
C2184 N2183 1.351 . S
C2184 C2185 1.434 . S
C2185 C2176 1.429 . S
C2185 N2182 1.350 . S
C2185 C2184 1.434 . S
C2186 C2187 1.369 . S
C2186 C2188 1.419 . S
C2186 H2190 0.930 . S
C2187 C2186 1.369 . S
C2187 C2196 1.429 . S
C2188 C2186 1.419 . S
C2188 C2189 1.363 . S
C2188 H2191 0.929 . S
C2189 C2188 1.363 . S
C2189 C2195 1.428 . S
H2190 C2186 0.930 . S
H2191 C2188 0.929 . S
S2192 N2193 1.613 . S
S2192 N2194 1.610 . S
N2193 S2192 1.613 . S
N2193 C2196 1.350 . S
N2194 S2192 1.610 . S
N2194 C2195 1.351 . S
C2195 C2189 1.428 . S
C2195 N2194 1.351 . S
C2195 C2196 1.434 . S
C2196 C2187 1.429 . S
C2196 N2193 1.350 . S
C2196 C2195 1.434 . S
C2197 C2198 1.369 . S
C2197 C2199 1.419 . S
C2197 H2201 0.930 . S
C2198 C2197 1.369 . S
C2198 C2207 1.429 . S
C2199 C2197 1.419 . S
C2199 C2200 1.363 . S
C2199 H2202 0.929 . S
C2200 C2199 1.363 . S
C2200 C2206 1.428 . S
H2201 C2197 0.930 . S
H2202 C2199 0.929 . S
S2203 N2204 1.613 . S
S2203 N2205 1.610 . S
N2204 S2203 1.613 . S
N2204 C2207 1.350 . S
N2205 S2203 1.610 . S
N2205 C2206 1.351 . S
C2206 C2200 1.428 . S
C2206 N2205 1.351 . S
C2206 C2207 1.434 . S
C2207 C2198 1.429 . S
C2207 N2204 1.350 . S
C2207 C2206 1.434 . S
C2208 C2209 1.369 . S
C2208 C2210 1.419 . S
C2208 H2212 0.930 . S
C2209 C2208 1.369 . S
C2209 C2218 1.429 . S
C2210 C2208 1.419 . S
C2210 C2211 1.363 . S
C2210 H2213 0.929 . S
C2211 C2210 1.363 . S
C2211 C2217 1.428 . S
H2212 C2208 0.930 . S
H2213 C2210 0.929 . S
S2214 N2215 1.613 . S
S2214 N2216 1.610 . S
N2215 S2214 1.613 . S
N2215 C2218 1.350 . S
N2216 S2214 1.610 . S
N2216 C2217 1.351 . S
C2217 C2211 1.428 . S
C2217 N2216 1.351 . S
C2217 C2218 1.434 . S
C2218 C2209 1.429 . S
C2218 N2215 1.350 . S
C2218 C2217 1.434 . S
C2219 C2220 1.369 . S
C2219 C2221 1.419 . S
C2219 H2223 0.930 . S
C2220 C2219 1.369 . S
C2220 C2229 1.429 . S
C2221 C2219 1.419 . S
C2221 C2222 1.363 . S
C2221 H2224 0.929 . S
C2222 C2221 1.363 . S
C2222 C2228 1.428 . S
H2223 C2219 0.930 . S
H2224 C2221 0.929 . S
S2225 N2226 1.613 . S
S2225 N2227 1.610 . S
N2226 S2225 1.613 . S
N2226 C2229 1.350 . S
N2227 S2225 1.610 . S
N2227 C2228 1.351 . S
C2228 C2222 1.428 . S
C2228 N2227 1.351 . S
C2228 C2229 1.434 . S
C2229 C2220 1.429 . S
C2229 N2226 1.350 . S
C2229 C2228 1.434 . S
C2230 C2231 1.369 . S
C2230 C2232 1.419 . S
C2230 H2234 0.930 . S
C2231 C2230 1.369 . S
C2231 C2240 1.429 . S
C2232 C2230 1.419 . S
C2232 C2233 1.363 . S
C2232 H2235 0.929 . S
C2233 C2232 1.363 . S
C2233 C2239 1.428 . S
H2234 C2230 0.930 . S
H2235 C2232 0.929 . S
S2236 N2237 1.613 . S
S2236 N2238 1.610 . S
N2237 S2236 1.613 . S
N2237 C2240 1.350 . S
N2238 S2236 1.610 . S
N2238 C2239 1.351 . S
C2239 C2233 1.428 . S
C2239 N2238 1.351 . S
C2239 C2240 1.434 . S
C2240 C2231 1.429 . S
C2240 N2237 1.350 . S
C2240 C2239 1.434 . S
C2241 C2242 1.369 . S
C2241 C2243 1.419 . S
C2241 H2245 0.930 . S
C2242 C2241 1.369 . S
C2242 C2251 1.429 1_554 S
C2243 C2241 1.419 . S
C2243 C2244 1.363 . S
C2243 H2246 0.929 . S
C2244 C2243 1.363 . S
C2244 C2250 1.428 . S
H2245 C2241 0.930 . S
H2246 C2243 0.929 . S
S2247 N2248 1.613 . S
S2247 N2249 1.610 . S
N2248 S2247 1.613 . S
N2248 C2251 1.350 . S
N2249 S2247 1.610 . S
N2249 C2250 1.351 1_556 S
C2250 C2244 1.428 . S
C2250 N2249 1.351 1_554 S
C2250 C2251 1.434 1_554 S
C2251 C2242 1.429 1_556 S
C2251 N2248 1.350 . S
C2251 C2250 1.434 1_556 S
C2252 C2253 1.369 . S
C2252 C2254 1.419 . S
C2252 H2256 0.930 . S
C2253 C2252 1.369 . S
C2253 C2262 1.429 . S
C2254 C2252 1.419 . S
C2254 C2255 1.363 . S
C2254 H2257 0.929 . S
C2255 C2254 1.363 . S
C2255 C2261 1.428 . S
H2256 C2252 0.930 . S
H2257 C2254 0.929 . S
S2258 N2259 1.613 . S
S2258 N2260 1.610 . S
N2259 S2258 1.613 . S
N2259 C2262 1.350 . S
N2260 S2258 1.610 . S
N2260 C2261 1.351 . S
C2261 C2255 1.428 . S
C2261 N2260 1.351 . S
C2261 C2262 1.434 . S
C2262 C2253 1.429 . S
C2262 N2259 1.350 . S
C2262 C2261 1.434 . S
C2263 C2264 1.369 . S
C2263 C2265 1.419 . S
C2263 H2267 0.930 . S
C2264 C2263 1.369 . S
C2264 C2273 1.429 . S
C2265 C2263 1.419 . S
C2265 C2266 1.363 . S
C2265 H2268 0.929 . S
C2266 C2265 1.363 . S
C2266 C2272 1.428 . S
H2267 C2263 0.930 . S
H2268 C2265 0.929 . S
S2269 N2270 1.613 . S
S2269 N2271 1.610 . S
N2270 S2269 1.613 . S
N2270 C2273 1.350 . S
N2271 S2269 1.610 . S
N2271 C2272 1.351 . S
C2272 C2266 1.428 . S
C2272 N2271 1.351 . S
C2272 C2273 1.434 . S
C2273 C2264 1.429 . S
C2273 N2270 1.350 . S
C2273 C2272 1.434 . S
C2274 C2275 1.369 . S
C2274 C2276 1.419 . S
C2274 H2278 0.930 . S
C2275 C2274 1.369 . S
C2275 C2284 1.429 . S
C2276 C2274 1.419 . S
C2276 C2277 1.363 . S
C2276 H2279 0.929 . S
C2277 C2276 1.363 . S
C2277 C2283 1.428 . S
H2278 C2274 0.930 . S
H2279 C2276 0.929 . S
S2280 N2281 1.613 . S
S2280 N2282 1.610 . S
N2281 S2280 1.613 . S
N2281 C2284 1.350 . S
N2282 S2280 1.610 . S
N2282 C2283 1.351 . S
C2283 C2277 1.428 . S
C2283 N2282 1.351 . S
C2283 C2284 1.434 . S
C2284 C2275 1.429 . S
C2284 N2281 1.350 . S
C2284 C2283 1.434 . S
C2285 C2286 1.369 . S
C2285 C2287 1.419 . S
C2285 H2289 0.930 . S
C2286 C2285 1.369 . S
C2286 C2295 1.429 . S
C2287 C2285 1.419 . S
C2287 C2288 1.363 . S
C2287 H2290 0.929 . S
C2288 C2287 1.363 . S
C2288 C2294 1.428 . S
H2289 C2285 0.930 . S
H2290 C2287 0.929 . S
S2291 N2292 1.613 . S
S2291 N2293 1.610 . S
N2292 S2291 1.613 . S
N2292 C2295 1.350 . S
N2293 S2291 1.610 . S
N2293 C2294 1.351 . S
C2294 C2288 1.428 . S
C2294 N2293 1.351 . S
C2294 C2295 1.434 . S
C2295 C2286 1.429 . S
C2295 N2292 1.350 . S
C2295 C2294 1.434 . S
C2296 C2297 1.369 . S
C2296 C2298 1.419 . S
C2296 H2300 0.930 . S
C2297 C2296 1.369 . S
C2297 C2306 1.429 . S
C2298 C2296 1.419 . S
C2298 C2299 1.363 . S
C2298 H2301 0.929 . S
C2299 C2298 1.363 . S
C2299 C2305 1.428 . S
H2300 C2296 0.930 . S
H2301 C2298 0.929 . S
S2302 N2303 1.613 . S
S2302 N2304 1.610 . S
N2303 S2302 1.613 . S
N2303 C2306 1.350 . S
N2304 S2302 1.610 . S
N2304 C2305 1.351 . S
C2305 C2299 1.428 . S
C2305 N2304 1.351 . S
C2305 C2306 1.434 . S
C2306 C2297 1.429 . S
C2306 N2303 1.350 . S
C2306 C2305 1.434 . S
C2307 C2308 1.369 . S
C2307 C2309 1.419 . S
C2307 H2311 0.930 . S
C2308 C2307 1.369 . S
C2308 C2317 1.429 . S
C2309 C2307 1.419 . S
C2309 C2310 1.363 . S
C2309 H2312 0.929 . S
C2310 C2309 1.363 . S
C2310 C2316 1.428 . S
H2311 C2307 0.930 . S
H2312 C2309 0.929 . S
S2313 N2314 1.613 . S
S2313 N2315 1.610 . S
N2314 S2313 1.613 . S
N2314 C2317 1.350 . S
N2315 S2313 1.610 . S
N2315 C2316 1.351 . S
C2316 C2310 1.428 . S
C2316 N2315 1.351 . S
C2316 C2317 1.434 . S
C2317 C2308 1.429 . S
C2317 N2314 1.350 . S
C2317 C2316 1.434 . S
C2318 C2319 1.369 . S
C2318 C2320 1.419 . S
C2318 H2322 0.930 . S
C2319 C2318 1.369 . S
C2319 C2328 1.429 . S
C2320 C2318 1.419 . S
C2320 C2321 1.363 . S
C2320 H2323 0.929 . S
C2321 C2320 1.363 . S
C2321 C2327 1.428 . S
H2322 C2318 0.930 . S
H2323 C2320 0.929 . S
S2324 N2325 1.613 . S
S2324 N2326 1.610 . S
N2325 S2324 1.613 . S
N2325 C2328 1.350 . S
N2326 S2324 1.610 . S
N2326 C2327 1.351 . S
C2327 C2321 1.428 . S
C2327 N2326 1.351 . S
C2327 C2328 1.434 . S
C2328 C2319 1.429 . S
C2328 N2325 1.350 . S
C2328 C2327 1.434 . S
C2329 C2330 1.369 . S
C2329 C2331 1.419 . S
C2329 H2333 0.930 . S
C2330 C2329 1.369 . S
C2330 C2339 1.429 . S
C2331 C2329 1.419 . S
C2331 C2332 1.363 . S
C2331 H2334 0.929 . S
C2332 C2331 1.363 . S
C2332 C2338 1.428 . S
H2333 C2329 0.930 . S
H2334 C2331 0.929 . S
S2335 N2336 1.613 . S
S2335 N2337 1.610 . S
N2336 S2335 1.613 . S
N2336 C2339 1.350 . S
N2337 S2335 1.610 . S
N2337 C2338 1.351 . S
C2338 C2332 1.428 . S
C2338 N2337 1.351 . S
C2338 C2339 1.434 . S
C2339 C2330 1.429 . S
C2339 N2336 1.350 . S
C2339 C2338 1.434 . S
C2340 C2341 1.369 . S
C2340 C2342 1.419 . S
C2340 H2344 0.941 . S
C2341 C2340 1.369 . S
C2341 C2350 1.429 . S
C2342 C2340 1.419 . S
C2342 C2343 1.363 . S
C2342 H2345 0.929 1_554 S
C2343 C2342 1.363 . S
C2343 C2349 1.428 . S
H2344 C2340 0.941 . S
H2345 C2342 0.929 1_556 S
S2346 N2347 1.613 . S
S2346 N2348 1.610 . S
N2347 S2346 1.613 . S
N2347 C2350 1.350 . S
N2348 S2346 1.610 . S
N2348 C2349 1.351 . S
C2349 C2343 1.428 . S
C2349 N2348 1.351 . S
C2349 C2350 1.434 . S
C2350 C2341 1.429 . S
C2350 N2347 1.350 . S
C2350 C2349 1.434 . S
C2351 C2352 1.369 . S
C2351 C2353 1.419 . S
C2351 H2355 0.930 . S
C2352 C2351 1.369 . S
C2352 C2361 1.429 . S
C2353 C2351 1.419 . S
C2353 C2354 1.363 . S
C2353 H2356 0.929 . S
C2354 C2353 1.363 . S
C2354 C2360 1.428 . S
H2355 C2351 0.930 . S
H2356 C2353 0.929 . S
S2357 N2358 1.613 . S
S2357 N2359 1.610 . S
N2358 S2357 1.613 . S
N2358 C2361 1.350 . S
N2359 S2357 1.610 . S
N2359 C2360 1.351 . S
C2360 C2354 1.428 . S
C2360 N2359 1.351 . S
C2360 C2361 1.434 . S
C2361 C2352 1.429 . S
C2361 N2358 1.350 . S
C2361 C2360 1.434 . S
C2362 C2363 1.369 . S
C2362 C2364 1.419 . S
C2362 H2366 0.930 . S
C2363 C2362 1.369 . S
C2363 C2372 1.429 . S
C2364 C2362 1.419 . S
C2364 C2365 1.363 . S
C2364 H2367 0.929 . S
C2365 C2364 1.363 . S
C2365 C2371 1.428 . S
H2366 C2362 0.930 . S
H2367 C2364 0.929 . S
S2368 N2369 1.613 . S
S2368 N2370 1.610 . S
N2369 S2368 1.613 . S
N2369 C2372 1.350 . S
N2370 S2368 1.610 . S
N2370 C2371 1.351 . S
C2371 C2365 1.428 . S
C2371 N2370 1.351 . S
C2371 C2372 1.434 . S
C2372 C2363 1.429 . S
C2372 N2369 1.350 . S
C2372 C2371 1.434 . S
C2373 C2374 1.369 . S
C2373 C2375 1.419 . S
C2373 H2377 0.930 . S
C2374 C2373 1.369 . S
C2374 C2383 1.429 . S
C2375 C2373 1.419 . S
C2375 C2376 1.363 . S
C2375 H2378 0.929 . S
C2376 C2375 1.363 . S
C2376 C2382 1.428 . S
H2377 C2373 0.930 . S
H2378 C2375 0.929 . S
S2379 N2380 1.613 . S
S2379 N2381 1.610 . S
N2380 S2379 1.613 . S
N2380 C2383 1.350 . S
N2381 S2379 1.610 . S
N2381 C2382 1.351 . S
C2382 C2376 1.428 . S
C2382 N2381 1.351 . S
C2382 C2383 1.434 . S
C2383 C2374 1.429 . S
C2383 N2380 1.350 . S
C2383 C2382 1.434 . S
C2384 C2385 1.369 . S
C2384 C2386 1.419 . S
C2384 H2388 0.930 . S
C2385 C2384 1.369 . S
C2385 C2394 1.429 . S
C2386 C2384 1.419 . S
C2386 C2387 1.363 . S
C2386 H2389 0.929 . S
C2387 C2386 1.363 . S
C2387 C2393 1.428 . S
H2388 C2384 0.930 . S
H2389 C2386 0.929 . S
S2390 N2391 1.613 . S
S2390 N2392 1.610 . S
N2391 S2390 1.613 . S
N2391 C2394 1.350 . S
N2392 S2390 1.610 . S
N2392 C2393 1.351 . S
C2393 C2387 1.428 . S
C2393 N2392 1.351 . S
C2393 C2394 1.434 . S
C2394 C2385 1.429 . S
C2394 N2391 1.350 . S
C2394 C2393 1.434 . S
C2395 C2396 1.369 . S
C2395 C2397 1.419 . S
C2395 H2399 0.930 . S
C2396 C2395 1.369 . S
C2396 C2405 1.429 . S
C2397 C2395 1.419 . S
C2397 C2398 1.363 . S
C2397 H2400 0.929 . S
C2398 C2397 1.363 . S
C2398 C2404 1.428 . S
H2399 C2395 0.930 . S
H2400 C2397 0.929 . S
S2401 N2402 1.613 . S
S2401 N2403 1.610 . S
N2402 S2401 1.613 . S
N2402 C2405 1.350 . S
N2403 S2401 1.610 . S
N2403 C2404 1.351 . S
C2404 C2398 1.428 . S
C2404 N2403 1.351 . S
C2404 C2405 1.434 . S
C2405 C2396 1.429 . S
C2405 N2402 1.350 . S
C2405 C2404 1.434 . S
C2406 C2407 1.369 . S
C2406 C2408 1.419 . S
C2406 H2410 0.930 . S
C2407 C2406 1.369 . S
C2407 C2416 1.429 . S
C2408 C2406 1.419 . S
C2408 C2409 1.363 1_655 S
C2408 H2411 0.929 . S
C2409 C2408 1.363 1_455 S
C2409 C2415 1.428 1_455 S
H2410 C2406 0.930 . S
H2411 C2408 0.929 . S
S2412 N2413 1.613 . S
S2412 N2414 1.610 1_655 S
N2413 S2412 1.613 . S
N2413 C2416 1.350 . S
N2414 S2412 1.610 1_455 S
N2414 C2415 1.351 1_455 S
C2415 C2409 1.428 1_655 S
C2415 N2414 1.351 1_655 S
C2415 C2416 1.434 . S
C2416 C2407 1.429 . S
C2416 N2413 1.350 . S
C2416 C2415 1.434 . S
C2417 C2418 1.369 . S
C2417 C2419 1.419 . S
C2417 H2421 0.930 . S
C2418 C2417 1.369 . S
C2418 C2427 1.429 . S
C2419 C2417 1.419 . S
C2419 C2420 1.363 . S
C2419 H2422 0.929 . S
C2420 C2419 1.363 . S
C2420 C2426 1.428 . S
H2421 C2417 0.930 . S
H2422 C2419 0.929 . S
S2423 N2424 1.613 . S
S2423 N2425 1.610 . S
N2424 S2423 1.613 . S
N2424 C2427 1.350 . S
N2425 S2423 1.610 . S
N2425 C2426 1.351 . S
C2426 C2420 1.428 . S
C2426 N2425 1.351 . S
C2426 C2427 1.434 . S
C2427 C2418 1.429 . S
C2427 N2424 1.350 . S
C2427 C2426 1.434 . S
C2428 C2429 1.369 . S
C2428 C2430 1.419 . S
C2428 H2432 0.930 . S
C2429 C2428 1.369 . S
C2429 C2438 1.429 . S
C2430 C2428 1.419 . S
C2430 C2431 1.363 . S
C2430 H2433 0.929 . S
C2431 C2430 1.363 . S
C2431 C2437 1.428 . S
H2432 C2428 0.930 . S
H2433 C2430 0.929 . S
S2434 N2435 1.613 . S
S2434 N2436 1.610 . S
N2435 S2434 1.613 . S
N2435 C2438 1.350 . S
N2436 S2434 1.610 . S
N2436 C2437 1.351 . S
C2437 C2431 1.428 . S
C2437 N2436 1.351 . S
C2437 C2438 1.434 . S
C2438 C2429 1.429 . S
C2438 N2435 1.350 . S
C2438 C2437 1.434 . S
C2439 C2440 1.369 . S
C2439 C2441 1.419 . S
C2439 H2443 0.930 . S
C2440 C2439 1.369 . S
C2440 C2449 1.429 . S
C2441 C2439 1.419 . S
C2441 C2442 1.363 . S
C2441 H2444 0.929 . S
C2442 C2441 1.363 . S
C2442 C2448 1.428 . S
H2443 C2439 0.930 . S
H2444 C2441 0.929 . S
S2445 N2446 1.613 . S
S2445 N2447 1.610 . S
N2446 S2445 1.613 . S
N2446 C2449 1.350 . S
N2447 S2445 1.610 . S
N2447 C2448 1.351 . S
C2448 C2442 1.428 . S
C2448 N2447 1.351 . S
C2448 C2449 1.434 . S
C2449 C2440 1.429 . S
C2449 N2446 1.350 . S
C2449 C2448 1.434 . S
C2450 C2451 1.369 . S
C2450 C2452 1.419 . S
C2450 H2454 0.930 . S
C2451 C2450 1.369 . S
C2451 C2460 1.429 . S
C2452 C2450 1.419 . S
C2452 C2453 1.363 . S
C2452 H2455 0.929 1_655 S
C2453 C2452 1.363 . S
C2453 C2459 1.428 . S
H2454 C2450 0.930 . S
H2455 C2452 0.929 1_455 S
S2456 N2457 1.613 . S
S2456 N2458 1.610 . S
N2457 S2456 1.613 . S
N2457 C2460 1.350 . S
N2458 S2456 1.610 . S
N2458 C2459 1.351 . S
C2459 C2453 1.428 . S
C2459 N2458 1.351 . S
C2459 C2460 1.434 . S
C2460 C2451 1.429 . S
C2460 N2457 1.350 . S
C2460 C2459 1.434 . S
C2461 C2462 1.369 . S
C2461 C2463 1.419 . S
C2461 H2465 0.930 . S
C2462 C2461 1.369 . S
C2462 C2471 1.429 . S
C2463 C2461 1.419 . S
C2463 C2464 1.363 . S
C2463 H2466 0.929 . S
C2464 C2463 1.363 . S
C2464 C2470 1.428 . S
H2465 C2461 0.930 . S
H2466 C2463 0.929 . S
S2467 N2468 1.613 . S
S2467 N2469 1.610 . S
N2468 S2467 1.613 . S
N2468 C2471 1.350 . S
N2469 S2467 1.610 . S
N2469 C2470 1.351 . S
C2470 C2464 1.428 . S
C2470 N2469 1.351 . S
C2470 C2471 1.434 . S
C2471 C2462 1.429 . S
C2471 N2468 1.350 . S
C2471 C2470 1.434 . S
C2472 C2473 1.369 . S
C2472 C2474 1.419 . S
C2472 H2476 0.930 . S
C2473 C2472 1.369 . S
C2473 C2482 1.429 . S
C2474 C2472 1.419 . S
C2474 C2475 1.363 . S
C2474 H2477 0.929 . S
C2475 C2474 1.363 . S
C2475 C2481 1.428 . S
H2476 C2472 0.930 . S
H2477 C2474 0.929 . S
S2478 N2479 1.613 . S
S2478 N2480 1.610 . S
N2479 S2478 1.613 . S
N2479 C2482 1.350 . S
N2480 S2478 1.610 . S
N2480 C2481 1.351 . S
C2481 C2475 1.428 . S
C2481 N2480 1.351 . S
C2481 C2482 1.434 . S
C2482 C2473 1.429 . S
C2482 N2479 1.350 . S
C2482 C2481 1.434 . S
C2483 C2484 1.369 . S
C2483 C2485 1.419 . S
C2483 H2487 0.930 . S
C2484 C2483 1.369 . S
C2484 C2493 1.429 . S
C2485 C2483 1.419 . S
C2485 C2486 1.363 . S
C2485 H2488 0.929 . S
C2486 C2485 1.363 . S
C2486 C2492 1.428 . S
H2487 C2483 0.930 . S
H2488 C2485 0.929 . S
S2489 N2490 1.613 1_545 S
S2489 N2491 1.610 . S
N2490 S2489 1.613 1_565 S
N2490 C2493 1.350 . S
N2491 S2489 1.610 . S
N2491 C2492 1.351 1_545 S
C2492 C2486 1.428 . S
C2492 N2491 1.351 1_565 S
C2492 C2493 1.434 . S
C2493 C2484 1.429 . S
C2493 N2490 1.350 . S
C2493 C2492 1.434 . S
C2494 C2495 1.369 . S
C2494 C2496 1.419 . S
C2494 H2498 0.930 . S
C2495 C2494 1.369 . S
C2495 C2504 1.429 . S
C2496 C2494 1.419 . S
C2496 C2497 1.363 . S
C2496 H2499 0.929 . S
C2497 C2496 1.363 . S
C2497 C2503 1.428 . S
H2498 C2494 0.930 . S
H2499 C2496 0.929 . S
S2500 N2501 1.613 . S
S2500 N2502 1.610 . S
N2501 S2500 1.613 . S
N2501 C2504 1.350 . S
N2502 S2500 1.610 . S
N2502 C2503 1.351 . S
C2503 C2497 1.428 . S
C2503 N2502 1.351 . S
C2503 C2504 1.434 . S
C2504 C2495 1.429 . S
C2504 N2501 1.350 . S
C2504 C2503 1.434 . S
C2505 C2506 1.369 . S
C2505 C2507 1.419 . S
C2505 H2509 0.930 . S
C2506 C2505 1.369 . S
C2506 C2515 1.429 . S
C2507 C2505 1.419 . S
C2507 C2508 1.363 . S
C2507 H2510 0.929 . S
C2508 C2507 1.363 . S
C2508 C2514 1.428 . S
H2509 C2505 0.930 . S
H2510 C2507 0.929 . S
S2511 N2512 1.613 . S
S2511 N2513 1.610 . S
N2512 S2511 1.613 . S
N2512 C2515 1.350 . S
N2513 S2511 1.610 . S
N2513 C2514 1.351 . S
C2514 C2508 1.428 . S
C2514 N2513 1.351 . S
C2514 C2515 1.434 . S
C2515 C2506 1.429 . S
C2515 N2512 1.350 . S
C2515 C2514 1.434 . S
C2516 C2517 1.369 . S
C2516 C2518 1.419 . S
C2516 H2520 0.930 . S
C2517 C2516 1.369 . S
C2517 C2526 1.429 . S
C2518 C2516 1.419 . S
C2518 C2519 1.363 . S
C2518 H2521 0.929 . S
C2519 C2518 1.363 . S
C2519 C2525 1.428 . S
H2520 C2516 0.930 . S
H2521 C2518 0.929 . S
S2522 N2523 1.613 . S
S2522 N2524 1.610 . S
N2523 S2522 1.613 . S
N2523 C2526 1.350 . S
N2524 S2522 1.610 . S
N2524 C2525 1.351 . S
C2525 C2519 1.428 . S
C2525 N2524 1.351 . S
C2525 C2526 1.434 . S
C2526 C2517 1.429 . S
C2526 N2523 1.350 . S
C2526 C2525 1.434 . S
C2527 C2528 1.369 . S
C2527 C2529 1.419 . S
C2527 H2531 0.930 . S
C2528 C2527 1.369 . S
C2528 C2537 1.429 . S
C2529 C2527 1.419 . S
C2529 C2530 1.363 . S
C2529 H2532 0.929 . S
C2530 C2529 1.363 . S
C2530 C2536 1.428 . S
H2531 C2527 0.930 . S
H2532 C2529 0.929 . S
S2533 N2534 1.613 . S
S2533 N2535 1.610 . S
N2534 S2533 1.613 . S
N2534 C2537 1.350 . S
N2535 S2533 1.610 . S
N2535 C2536 1.351 . S
C2536 C2530 1.428 . S
C2536 N2535 1.351 . S
C2536 C2537 1.434 . S
C2537 C2528 1.429 . S
C2537 N2534 1.350 . S
C2537 C2536 1.434 . S
C2538 C2539 1.369 . S
C2538 C2540 1.419 . S
C2538 H2542 0.930 . S
C2539 C2538 1.369 . S
C2539 C2548 1.429 . S
C2540 C2538 1.419 . S
C2540 C2541 1.363 . S
C2540 H2543 0.929 . S
C2541 C2540 1.363 . S
C2541 C2547 1.428 . S
H2542 C2538 0.930 . S
H2543 C2540 0.929 . S
S2544 N2545 1.613 . S
S2544 N2546 1.610 . S
N2545 S2544 1.613 . S
N2545 C2548 1.350 . S
N2546 S2544 1.610 . S
N2546 C2547 1.351 . S
C2547 C2541 1.428 . S
C2547 N2546 1.351 . S
C2547 C2548 1.434 . S
C2548 C2539 1.429 . S
C2548 N2545 1.350 . S
C2548 C2547 1.434 . S
C2549 C2550 1.369 . S
C2549 C2551 1.419 . S
C2549 H2553 0.930 . S
C2550 C2549 1.369 . S
C2550 C2559 1.429 . S
C2551 C2549 1.419 . S
C2551 C2552 1.363 . S
C2551 H2554 0.929 . S
C2552 C2551 1.363 . S
C2552 C2558 1.428 . S
H2553 C2549 0.930 . S
H2554 C2551 0.929 . S
S2555 N2556 1.613 . S
S2555 N2557 1.610 . S
N2556 S2555 1.613 . S
N2556 C2559 1.350 . S
N2557 S2555 1.610 . S
N2557 C2558 1.351 . S
C2558 C2552 1.428 . S
C2558 N2557 1.351 . S
C2558 C2559 1.434 . S
C2559 C2550 1.429 . S
C2559 N2556 1.350 . S
C2559 C2558 1.434 . S
C1505 C255 2.140 1_554 S
C1507 C883 2.094 . S
C1516 C147 2.224 . S
C1518 C912 2.217 . S
C1527 C184 1.309 . S
C1529 C963 1.295 . S
C1540 C989 1.552 . S
C1538 C220 1.554 . S
C1549 C40 0.847 . S
C1551 C1029 0.841 . S
C1562 C1079 0.628 . S
C1560 C74 0.619 . S
C1573 C1122 1.027 . S
C1571 C110 0.960 . S
C1582 C14 1.774 . S
C1584 C1159 1.704 . S
C1595 C872 2.482 . S
C1593 C579 2.450 . S
C1604 C616 0.805 . S
C1606 C909 0.844 . S
C1617 C952 2.369 . S
C1615 C687 2.377 . S
C1628 C1003 1.454 . S
C1626 C436 1.462 1_556 S
C1637 C580 1.975 . S
C1639 C1043 1.972 . S
C1650 C1082 0.712 . S
C1648 C615 0.648 . S
C1661 C1113 2.098 1_556 S
C1659 C688 2.200 . S
C1672 C1162 2.147 . S
C1670 C435 2.106 . S
C1683 C869 1.841 . S
C1681 C410 1.992 1_554 S
C1692 C722 2.334 . S
C1694 C1192 2.333 . S
C1705 C1233 2.513 . S
C1703 C842 2.488 . S
C1716 C1279 0.797 . S
C1714 C794 0.800 . S
C1725 C302 2.600 . S
C1727 C1153 2.572 . S
C1736 C338 1.686 . S
C1738 C949 1.587 . S
C1747 C830 2.262 . S
C1749 C1312 2.250 . S
C1760 C1363 1.995 . S
C1758 C758 2.009 . S
C1771 C873 2.111 . S
C1769 C158 2.038 . S
C1782 C1362 2.215 . S
C1780 C254 2.210 . S
C1791 C218 1.298 . S
C1793 C953 1.280 . S
C1802 C194 1.461 . S
C1804 C1319 1.536 . S
C1815 C1039 0.877 . S
C1813 C3 0.876 . S
C1824 C111 0.551 . S
C1826 C1229 0.547 . S
C1837 C1112 0.855 . S
C1835 C76 0.802 . S
C1848 C1389 1.692 . S
C1846 C50 1.492 . S
C1859 C882 2.492 1_556 S
C1857 C364 2.486 . S
C1870 C1359 0.867 . S
C1868 C795 0.884 . S
C1879 C292 2.315 . S
C1881 C962 2.323 . S
C1890 C723 1.420 . S
C1892 C1313 1.400 . S
C1901 C363 1.976 . S
C1903 C1033 1.946 . S
C1914 C1232 0.711 . S
C1912 C796 0.718 . S
C1923 C291 2.126 . S
C1925 C1123 2.062 . S
C1934 C724 2.163 . S
C1936 C1392 2.176 . S
C1945 C482 1.798 . S
C1947 C879 2.007 . S
C1956 C434 2.293 . S
C1958 C1202 2.295 . S
C1967 C662 2.387 . S
C1969 C1083 2.448 . S
C1978 C614 0.744 . S
C1980 C1269 0.750 . S
C1991 C1403 2.566 . S
C1989 C698 2.535 . S
C2000 C554 1.440 . S
C2002 C959 1.538 . S
C2013 C1002 2.216 . S
C2011 C650 2.216 . S
C2024 C913 1.985 . S
C2022 C506 2.027 . S
C2033 C183 2.141 . S
C2035 C1443 2.093 . S
C2046 C1352 2.208 . S
C2044 C219 2.216 . S
C2055 C256 1.309 1_554 S
C2057 C1483 1.293 . S
C2066 C148 1.540 1_655 S
C2068 C1309 1.542 . S
C2077 C122 0.944 . S
C2079 C1189 0.915 . S
C2090 C1239 0.614 . S
C2088 C2 0.618 . S
C2101 C1282 1.029 . S
C2099 C39 0.979 1_655 S
C2112 C1399 1.593 . S
C2110 C86 1.647 . S
C2123 C1432 2.509 . S
C2121 C651 2.473 . S
C2132 C472 0.816 . S
C2134 C1349 0.868 . S
C2145 C1472 2.352 . S
C2143 C507 2.360 . S
C2156 C1323 1.452 . S
C2154 C544 1.460 . S
C2167 C1203 1.974 1_556 S
C2165 C652 1.984 . S
C2176 C471 0.657 . S
C2178 C1242 0.688 . S
C2189 C1273 2.085 . S
C2187 C508 2.173 . S
C2198 C543 2.110 . S
C2200 C1402 2.142 . S
C2211 C1429 1.905 . S
C2209 C806 2.069 . S
C2220 C326 2.296 . S
C2222 C1032 2.291 . S
C2233 C1073 2.478 . S
C2231 C374 2.455 . S
C2244 C1119 0.838 . S
C2242 C398 0.851 . S
C2255 C1393 2.558 . S
C2253 C770 2.576 . S
C2264 C734 1.674 . S
C2266 C1469 1.573 . S
C2277 C992 2.245 . S
C2275 C362 2.256 . S
C2288 C923 2.015 . S
C2286 C290 2.031 . S
C2297 C230 2.035 . S
C2299 C1433 2.106 . S
C2310 C922 2.228 . S
C2308 C182 2.225 . S
C2319 C146 1.303 . S
C2321 C1473 1.287 . S
C2330 C266 1.459 . S
C2332 C999 1.531 . S
C2341 C75 0.902 . S
C2343 C1199 0.890 . S
C2354 C1069 0.583 . S
C2352 C38 0.596 . S
C2363 C4 1.002 . S
C2365 C1272 1.036 . S
C2374 C112 1.770 . S
C2376 C1149 1.657 . S
C2387 C1442 2.496 . S
C2385 C832 2.489 . S
C2396 C399 0.859 . S
C2398 C919 0.852 . S
C2409 C1482 2.317 1_556 S
C2407 C760 2.308 . S
C2418 C327 1.409 . S
C2420 C993 1.389 . S
C2429 C831 2.016 . S
C2431 C1193 1.986 . S
C2442 C1072 0.663 . S
C2440 C400 0.695 . S
C2451 C759 2.141 . S
C2453 C1283 2.058 1_655 S
C2464 C1152 2.156 . S
C2462 C328 2.147 . S
C2475 C1439 1.992 . S
C2473 C626 1.784 . S
C2486 C1042 2.283 1_565 S
C2484 C542 2.287 . S
C2495 C590 2.351 . S
C2497 C1243 2.406 . S
C2508 C1109 0.749 . S
C2506 C470 0.750 . S
C2517 C518 2.502 . S
C2519 C1163 2.532 . S
C2528 C446 1.439 . S
C2530 C1479 1.524 . S
C2541 C1322 2.233 . S
C2539 C578 2.237 . S
C2552 C1353 1.952 . S
C2550 C686 1.994 . S
