# Generated by pormake.
# Topology rtl, (3,6)-cn, num edge types: 1
# Building blocks:
#     Node 0, Type 0, BuildingBlock: OLANEW_clean_sbu_2, # of connection points: 3
#     Node 1, Type 0, BuildingBlock: OLANEW_clean_sbu_2, # of connection points: 3
#     Node 2, Type 0, BuildingBlock: OLANEW_clean_sbu_2, # of connection points: 3
#     Node 3, Type 0, BuildingBlock: OLANEW_clean_sbu_2, # of connection points: 3
#     Node 4, Type 1, BuildingBlock: KUMJIN_clean_sbu_1, # of connection points: 6
#     Node 5, Type 1, BuildingBlock: KUMJIN_clean_sbu_1, # of connection points: 6
#     Edge 6, Type (0, 1), BuildingBlock: XUDNAN_clean_linker_2, # of connection points: 2
#     Edge 7, Type (0, 1), BuildingBlock: XUDNAN_clean_linker_2, # of connection points: 2
#     Edge 8, Type (0, 1), BuildingBlock: XUDNAN_clean_linker_2, # of connection points: 2
#     Edge 9, Type (0, 1), BuildingBlock: XUDNAN_clean_linker_2, # of connection points: 2
#     Edge 10, Type (0, 1), BuildingBlock: XUDNAN_clean_linker_2, # of connection points: 2
#     Edge 11, Type (0, 1), BuildingBlock: XUDNAN_clean_linker_2, # of connection points: 2
#     Edge 12, Type (0, 1), BuildingBlock: XUDNAN_clean_linker_2, # of connection points: 2
#     Edge 13, Type (0, 1), BuildingBlock: XUDNAN_clean_linker_2, # of connection points: 2
#     Edge 14, Type (0, 1), BuildingBlock: XUDNAN_clean_linker_2, # of connection points: 2
#     Edge 15, Type (0, 1), BuildingBlock: XUDNAN_clean_linker_2, # of connection points: 2
#     Edge 16, Type (0, 1), BuildingBlock: XUDNAN_clean_linker_2, # of connection points: 2
#     Edge 17, Type (0, 1), BuildingBlock: XUDNAN_clean_linker_2, # of connection points: 2
# Relax obj value: 0.043
# Max RMSD: 0.166
# Mean RMSD: 0.131
data_MOF--net-rtl--node1-OLANEW_clean_sbu_2--node2-KUMJIN_clean_sbu_1--edge1-XUDNAN_clean_linker_2
_symmetry_space_group_name_H-M    P1
_symmetry_Int_Tables_number       1
_symmetry_cell_setting            triclinic
loop_
_symmetry_equiv_pos_as_xyz
'x, y, z'
_cell_length_a     37.723769
_cell_length_b     37.601911
_cell_length_c     29.245213
_cell_angle_alpha  75.572319
_cell_angle_beta   102.5826
_cell_angle_gamma 91.003972
loop_
_atom_site_label
_atom_site_type_symbol
_atom_site_fract_x
_atom_site_fract_y
_atom_site_fract_z
_atom_type_partial_charge
O0 O 0.22199 0.84988 0.9687 0.0
Cd1 Cd 0.27196 0.82426 0.03834 0.0
O2 O 0.21397 0.89596 -8e-05 0.0
Cd3 Cd 0.24365 0.87647 0.07455 0.0
O4 O 0.21927 0.88793 0.13105 0.0
C5 C 0.18547 0.89661 0.11691 0.0
O6 O 0.16923 0.89682 0.07227 0.0
C7 C 0.20655 0.88057 0.96508 0.0
C8 C 0.31582 0.77177 0.02154 0.0
O9 O 0.29269 0.76186 0.04806 0.0
O10 O 0.31819 0.80615 0.00306 0.0
O11 O 0.6601 0.74427 0.73497 0.0
Cd12 Cd 0.67929 0.79627 0.67546 0.0
O13 O 0.64673 0.71847 0.67455 0.0
Cd14 Cd 0.62525 0.67622 0.63764 0.0
O15 O 0.60352 0.64371 0.58664 0.0
C16 C 0.59207 0.66201 0.54318 0.0
O17 O 0.59331 0.69802 0.53311 0.0
C18 C 0.64524 0.71845 0.71758 0.0
C19 C 0.75076 0.81957 0.67921 0.0
O20 O 0.73192 0.82639 0.70784 0.0
O21 O 0.73674 0.79982 0.65041 0.0
O22 O 0.78132 0.15546 0.14591 0.0
Cd23 Cd 0.73327 0.16768 0.07187 0.0
O24 O 0.79266 0.09795 0.14658 0.0
Cd25 Cd 0.7674 0.10204 0.07077 0.0
O26 O 0.78461 0.09114 0.00857 0.0
C27 C 0.80647 0.06355 0.01821 0.0
O28 O 0.81497 0.04311 0.0629 0.0
C29 C 0.79735 0.12431 0.16707 0.0
C30 C 0.69832 0.2371 0.04965 0.0
O31 O 0.68994 0.2102 0.08157 0.0
O32 O 0.72337 0.23139 0.02863 0.0
O33 O 0.34073 0.27645 0.54506 0.0
Cd34 Cd 0.32355 0.24573 0.4791 0.0
O35 O 0.34348 0.33167 0.49786 0.0
Cd36 Cd 0.33497 0.31813 0.42809 0.0
O37 O 0.35687 0.338 0.36343 0.0
C38 C 0.39069 0.34352 0.37332 0.0
O39 O 0.40812 0.33508 0.41896 0.0
C40 C 0.34601 0.31057 0.53992 0.0
C41 C 0.27241 0.19288 0.5 0.0
O42 O 0.30648 0.18606 0.51769 0.0
O43 O 0.26227 0.22461 0.47162 0.0
Eu44 Eu 0.01826 0.97108 0.53787 0.0
C45 C 0.9492 0.12607 0.51995 0.0
N46 N 0.98302 0.11252 0.54462 0.0
C47 C 0.00858 0.17026 0.51555 0.0
C48 C 0.94388 0.16269 0.49166 0.0
C49 C 0.01261 0.13375 0.54286 0.0
C50 C 0.97405 0.18484 0.48998 0.0
C51 C 0.88508 0.11575 0.49364 0.0
C52 C 0.92013 0.10264 0.52079 0.0
C53 C 0.87966 0.15234 0.46597 0.0
C54 C 0.90893 0.17574 0.46504 0.0
Eu55 Eu 0.98664 0.05181 0.5919 0.0
N56 N 0.92621 0.06701 0.54719 0.0
C57 C 0.85642 0.09169 0.49505 0.0
C58 C 0.89795 0.04407 0.55047 0.0
C59 C 0.86285 0.0558 0.52388 0.0
H60 H 0.03926 0.12266 0.56312 0.0
H61 H 0.84064 0.0373 0.52625 0.0
H62 H 0.9602 0.90231 0.55048 0.0
H63 H 0.16657 0.96502 0.59056 0.0
H64 H 0.90179 0.01706 0.57439 0.0
H65 H 0.82913 0.1007 0.47465 0.0
H66 H 0.10613 0.99268 0.54751 0.0
H67 H 0.03206 0.18713 0.5143 0.0
H68 H 0.85291 0.1628 0.44494 0.0
H69 H 0.90433 0.20378 0.44312 0.0
H70 H 0.96073 0.83739 0.59573 0.0
H71 H 0.97105 0.2131 0.46864 0.0
H72 H 0.17237 0.901 0.6408 0.0
N73 N 0.01635 0.90833 0.57736 0.0
C74 C 0.04863 0.89127 0.60311 0.0
C75 C 0.98559 0.8523 0.59851 0.0
C76 C 0.05049 0.85386 0.62822 0.0
C77 C 0.98521 0.88926 0.5736 0.0
C78 C 0.01833 0.83458 0.62628 0.0
N79 N 0.07753 0.94691 0.57773 0.0
C80 C 0.10804 0.96576 0.57164 0.0
C81 C 0.11433 0.89339 0.62649 0.0
C82 C 0.08018 0.91093 0.60266 0.0
C83 C 0.14563 0.91347 0.62302 0.0
C84 C 0.14247 0.94969 0.59498 0.0
H85 H 0.01861 0.80582 0.64512 0.0
H86 H 0.08627 0.80805 0.67319 0.0
H87 H 0.14214 0.84257 0.6714 0.0
O88 O 0.03919 0.9827 0.47167 0.0
O89 O 0.03448 0.96065 0.62067 0.0
O90 O 0.03738 0.01856 0.63426 0.0
O91 O 0.00613 0.93583 0.48761 0.0
O92 O 0.04677 0.02613 0.5242 0.0
O93 O 0.04576 0.05183 0.58848 0.0
O94 O 0.96014 0.0508 0.65227 0.0
O95 O 0.9826 0.06202 0.51123 0.0
O96 O 0.96674 0.00567 0.49995 0.0
O97 O 1.00078 0.09139 0.63557 0.0
O98 O 0.96581 0.99476 0.61568 0.0
O99 O 0.961 0.9684 0.55142 0.0
C100 C 0.04247 0.98282 0.64965 0.0
C101 C 0.05325 0.9302 0.44769 0.0
C102 C 0.08745 0.91835 0.39069 0.0
C103 C 0.1063 0.8889 0.42713 0.0
C104 C 0.07176 0.90003 0.48294 0.0
C105 C 0.09833 0.87977 0.47286 0.0
C106 C 0.0609 0.93907 0.40125 0.0
C107 C 0.06028 0.0473 0.55318 0.0
C108 C 0.02681 0.953 0.45958 0.0
C109 C 0.08434 0.83672 0.65348 0.0
C110 C 0.11617 0.85637 0.65243 0.0
C111 C 0.96704 0.04136 0.48314 0.0
C112 C 0.97391 0.09458 0.70276 0.0
C113 C 0.94737 0.09436 0.77177 0.0
C114 C 0.96378 0.12764 0.77531 0.0
C115 C 0.99044 0.1277 0.70728 0.0
C116 C 0.95267 0.07768 0.73564 0.0
C117 C 0.98541 0.14404 0.74341 0.0
C118 C 0.95366 0.96923 0.5932 0.0
C119 C 0.97817 0.07863 0.66292 0.0
H120 H 0.12653 0.87226 0.41984 0.0
H121 H 0.0656 0.89187 0.5182 0.0
H122 H 0.11254 0.85667 0.50046 0.0
H123 H 0.04646 0.96209 0.3736 0.0
H124 H 0.96006 0.14077 0.80306 0.0
H125 H 0.00696 0.14127 0.68253 0.0
H126 H 0.93979 0.0521 0.73273 0.0
H127 H 0.99812 0.16962 0.74651 0.0
Eu128 Eu 0.4628 0.49074 0.97005 0.0
C129 C 0.62054 0.54962 0.0538 0.0
N130 N 0.60426 0.51706 0.06538 0.0
C131 C 0.66059 0.48439 0.07504 0.0
C132 C 0.65756 0.55074 0.05165 0.0
C133 C 0.6241 0.48469 0.07795 0.0
C134 C 0.67732 0.51755 0.06134 0.0
C135 C 0.61732 0.61615 0.03796 0.0
C136 C 0.60069 0.58198 0.04681 0.0
C137 C 0.65395 0.61739 0.03486 0.0
C138 C 0.67398 0.58478 0.04152 0.0
Eu139 Eu 0.54259 0.52078 0.07017 0.0
N140 N 0.56533 0.57998 0.04999 0.0
C141 C 0.59671 0.64803 0.03312 0.0
C142 C 0.54551 0.61073 0.04724 0.0
C143 C 0.56069 0.64526 0.03804 0.0
H144 H 0.61235 0.45898 0.09166 0.0
H145 H 0.54476 0.66966 0.03535 0.0
H146 H 0.39239 0.54231 0.97233 0.0
H147 H 0.48748 0.34103 0.02878 0.0
H148 H 0.51812 0.60859 0.0527 0.0
H149 H 0.6085 0.6748 0.02629 0.0
H150 H 0.50175 0.40451 0.99432 0.0
H151 H 0.67599 0.45859 0.08441 0.0
H152 H 0.66713 0.64341 0.02772 0.0
H153 H 0.70235 0.58614 0.03959 0.0
H154 H 0.33199 0.53331 0.99261 0.0
H155 H 0.70577 0.51725 0.05994 0.0
H156 H 0.42868 0.32756 0.0524 0.0
N157 N 0.40681 0.4853 0.99315 0.0
C158 C 0.39622 0.4504 0.00859 0.0
C159 C 0.34987 0.50981 0.99753 0.0
C160 C 0.36181 0.444 0.01986 0.0
C161 C 0.38416 0.51487 0.98657 0.0
C162 C 0.33864 0.47424 0.01427 0.0
N163 N 0.45352 0.42797 0.00322 0.0
C164 C 0.47698 0.39966 0.00688 0.0
C165 C 0.41048 0.38474 0.03255 0.0
C166 C 0.42043 0.42106 0.01467 0.0
C167 C 0.43526 0.35581 0.03855 0.0
C168 C 0.46855 0.36331 0.02546 0.0
H169 H 0.31201 0.47041 0.02265 0.0
H170 H 0.3253 0.40234 0.04522 0.0
H171 H 0.36798 0.35057 0.05694 0.0
O172 O 0.44339 0.46416 0.9109 0.0
O173 O 0.45591 0.48354 0.04762 0.0
O174 O 0.51442 0.46763 0.08012 0.0
O175 O 0.42663 0.52126 0.90304 0.0
O176 O 0.51958 0.46776 0.97576 0.0
O177 O 0.54885 0.46473 0.05496 0.0
O178 O 0.52709 0.53531 0.13153 0.0
O179 O 0.5374 0.55529 0.99282 0.0
O180 O 0.51221 0.51685 0.94417 0.0
O181 O 0.57778 0.50548 0.14223 0.0
O182 O 0.4857 0.54779 0.0529 0.0
O183 O 0.46131 0.55016 0.97228 0.0
C184 C 0.48113 0.46777 0.08521 0.0
C185 C 0.40239 0.49496 0.83485 0.0
C186 C 0.38251 0.46725 0.76661 0.0
C187 C 0.35929 0.49828 0.74258 0.0
C188 C 0.37915 0.52567 0.80993 0.0
C189 C 0.35772 0.52721 0.76412 0.0
C190 C 0.40392 0.46573 0.81305 0.0
C191 C 0.54718 0.45675 0.01308 0.0
C192 C 0.4243 0.49332 0.88379 0.0
C193 C 0.3517 0.40781 0.03659 0.0
C194 C 0.37607 0.37831 0.04337 0.0
C195 C 0.53032 0.54609 0.95118 0.0
C196 C 0.57727 0.5487 0.18806 0.0
C197 C 0.58415 0.57932 0.25368 0.0
C198 C 0.61395 0.59774 0.23841 0.0
C199 C 0.6075 0.56695 0.17408 0.0
C200 C 0.56578 0.5548 0.22814 0.0
C201 C 0.6255 0.59151 0.19888 0.0
C202 C 0.46524 0.5639 0.01017 0.0
C203 C 0.55796 0.5232 0.16119 0.0
H204 H 0.34188 0.5 0.7073 0.0
H205 H 0.37727 0.54841 0.82599 0.0
H206 H 0.33965 0.55085 0.74532 0.0
H207 H 0.42201 0.44206 0.8319 0.0
H208 H 0.62897 0.61629 0.25782 0.0
H209 H 0.6176 0.56192 0.14441 0.0
H210 H 0.54264 0.54058 0.23932 0.0
H211 H 0.64876 0.60541 0.1878 0.0
H212 H 0.20329 0.1859 0.44878 0.0
H213 H 0.28105 0.13812 0.58265 0.0
H214 H 0.23566 0.09424 0.60901 0.0
H215 H 0.12412 0.17926 0.49667 0.0
H216 H 0.09485 0.16639 0.44634 0.0
H217 H 0.13359 0.19366 0.43708 0.0
H218 H 0.15731 0.14545 0.40005 0.0
H219 H 0.11854 0.11807 0.4091 0.0
H220 H 0.16385 0.09809 0.43418 0.0
H221 H 0.18064 0.06014 0.62448 0.0
H222 H 0.12052 0.03292 0.62461 0.0
H223 H 0.07952 0.09783 0.47791 0.0
C224 C 0.21075 0.16601 0.48348 0.0
C225 C 0.2456 0.16544 0.51384 0.0
C226 C 0.25455 0.1389 0.5588 0.0
C227 C 0.22895 0.11394 0.57412 0.0
C228 C 0.19476 0.11537 0.5436 0.0
C229 C 0.18573 0.14024 0.49887 0.0
C230 C 0.1471 0.13552 0.47302 0.0
C231 C 0.12353 0.17081 0.46269 0.0
C232 C 0.14669 0.12357 0.42632 0.0
C233 C 0.13557 0.10481 0.5108 0.0
C234 C 0.1635 0.09384 0.55136 0.0
C235 C 0.1588 0.06791 0.59261 0.0
C236 C 0.12466 0.05274 0.59245 0.0
C237 C 0.096 0.06289 0.55097 0.0
C238 C 0.10148 0.08905 0.50951 0.0
H239 H 0.34878 0.70823 0.08415 0.0
H240 H 0.33444 0.77411 0.93635 0.0
H241 H 0.37163 0.72824 0.91787 0.0
H242 H 0.4437 0.68167 0.09531 0.0
H243 H 0.44049 0.63639 0.13306 0.0
H244 H 0.41206 0.6739 0.13461 0.0
H245 H 0.35475 0.63681 0.11428 0.0
H246 H 0.38302 0.59922 0.11273 0.0
H247 H 0.34727 0.61924 0.06107 0.0
H248 H 0.40728 0.67416 0.91426 0.0
H249 H 0.44358 0.61726 0.92695 0.0
H250 H 0.43962 0.58822 0.07896 0.0
C251 C 0.35348 0.71281 0.04793 0.0
C252 C 0.33858 0.74442 0.01142 0.0
C253 C 0.3457 0.75002 0.96468 0.0
C254 C 0.36669 0.72412 0.95388 0.0
C255 C 0.38107 0.69325 0.99059 0.0
C256 C 0.3753 0.68771 0.03689 0.0
C257 C 0.39518 0.65284 0.07004 0.0
C258 C 0.4246 0.66174 0.11066 0.0
C259 C 0.36845 0.62541 0.09073 0.0
C260 C 0.41204 0.63911 0.03475 0.0
C261 C 0.40341 0.66285 0.98911 0.0
C262 C 0.41456 0.65555 0.94992 0.0
C263 C 0.43506 0.6231 0.95748 0.0
C264 C 0.44456 0.59846 0.00397 0.0
C265 C 0.43313 0.60679 0.04318 0.0
H266 H 0.78499 0.83597 0.60263 0.0
H267 H 0.7963 0.84267 0.75109 0.0
H268 H 0.85232 0.87686 0.74631 0.0
H269 H 0.88427 0.82931 0.60529 0.0
H270 H 0.87905 0.85792 0.54465 0.0
H271 H 0.84258 0.82944 0.56118 0.0
H272 H 0.79863 0.88673 0.53301 0.0
H273 H 0.83491 0.9153 0.5165 0.0
H274 H 0.81021 0.9257 0.55814 0.0
H275 H 0.90404 0.91351 0.72468 0.0
H276 H 0.94775 0.95284 0.68685 0.0
H277 H 0.90181 0.92692 0.54983 0.0
C278 C 0.79986 0.8438 0.6345 0.0
C279 C 0.78655 0.83622 0.67755 0.0
C280 C 0.80612 0.8479 0.71796 0.0
C281 C 0.83802 0.86726 0.71561 0.0
C282 C 0.85 0.87499 0.67246 0.0
C283 C 0.83162 0.86372 0.63252 0.0
C284 C 0.84883 0.8785 0.58937 0.0
C285 C 0.86461 0.8469 0.57423 0.0
C286 C 0.82151 0.90302 0.54675 0.0
C287 C 0.87894 0.90076 0.61098 0.0
C288 C 0.87944 0.8976 0.65923 0.0
C289 C 0.90406 0.91603 0.68701 0.0
C290 C 0.92871 0.93851 0.66498 0.0
C291 C 0.92848 0.94295 0.6153 0.0
C292 C 0.90325 0.92359 0.58804 0.0
H293 H 0.66279 0.26663 0.1051 0.0
H294 H 0.69004 0.28936 0.9642 0.0
H295 H 0.6555 0.34881 0.94011 0.0
H296 H 0.57282 0.30593 0.06685 0.0
H297 H 0.5756 0.32557 0.11772 0.0
H298 H 0.60271 0.28496 0.12417 0.0
H299 H 0.66105 0.31789 0.15376 0.0
H300 H 0.63397 0.35858 0.14735 0.0
H301 H 0.67088 0.36132 0.11669 0.0
H302 H 0.61445 0.40369 0.92937 0.0
H303 H 0.5737 0.45252 0.93519 0.0
H304 H 0.57674 0.3963 0.08475 0.0
C305 C 0.66156 0.28421 0.06925 0.0
C306 C 0.67894 0.27336 0.03638 0.0
C307 C 0.67703 0.29722 0.98997 0.0
C308 C 0.65741 0.33098 0.97593 0.0
C309 C 0.64044 0.3408 0.00905 0.0
C310 C 0.64274 0.31839 0.05501 0.0
C311 C 0.62246 0.33578 0.08389 0.0
C312 C 0.59157 0.31161 0.09903 0.0
C313 C 0.64866 0.34386 0.12804 0.0
C314 C 0.60771 0.371 0.04662 0.0
C315 C 0.61826 0.37331 0.00362 0.0
C316 C 0.60646 0.40244 0.96307 0.0
C317 C 0.58329 0.42994 0.96663 0.0
C318 C 0.57263 0.42832 0.01054 0.0
C319 C 0.58516 0.39855 0.05105 0.0
H320 H 0.21122 0.90852 0.20717 0.0
H321 H 0.11174 0.9059 0.10065 0.0
H322 H 0.07583 0.9194 0.15578 0.0
H323 H 0.18061 0.86398 0.30904 0.0
H324 H 0.20376 0.89172 0.34765 0.0
H325 H 0.2217 0.88619 0.29762 0.0
H326 H 0.22025 0.95696 0.26442 0.0
H327 H 0.20206 0.96271 0.31438 0.0
H328 H 0.17825 0.9831 0.25306 0.0
H329 H 0.0504 0.92761 0.22517 0.0
H330 H 0.03778 0.92667 0.30503 0.0
H331 H 0.15352 0.92458 0.3659 0.0
C332 C 0.18191 0.9112 0.19524 0.0
C333 C 0.16432 0.9061 0.14963 0.0
C334 C 0.12589 0.9098 0.13537 0.0
C335 C 0.10521 0.91765 0.16634 0.0
C336 C 0.12335 0.92226 0.21122 0.0
C337 C 0.16085 0.91935 0.22556 0.0
C338 C 0.17354 0.9234 0.27674 0.0
C339 C 0.19622 0.88928 0.30969 0.0
C340 C 0.19479 0.95863 0.27716 0.0
C341 C 0.13731 0.92665 0.28997 0.0
C342 C 0.10867 0.92697 0.25127 0.0
C343 C 0.0726 0.92794 0.25554 0.0
C344 C 0.06566 0.92756 0.30092 0.0
C345 C 0.09467 0.92565 0.34143 0.0
C346 C 0.13085 0.92615 0.33541 0.0
H347 H 0.65694 0.6907 0.81665 0.0
H348 H 0.58386 0.68594 0.68171 0.0
H349 H 0.54849 0.63974 0.72619 0.0
H350 H 0.65549 0.59503 0.8796 0.0
H351 H 0.65425 0.60387 0.93694 0.0
H352 H 0.67596 0.63535 0.89519 0.0
H353 H 0.63508 0.68924 0.89635 0.0
H354 H 0.6131 0.65868 0.9385 0.0
H355 H 0.58634 0.68589 0.88243 0.0
H356 H 0.52076 0.59381 0.78518 0.0
H357 H 0.50065 0.55418 0.85514 0.0
H358 H 0.58873 0.59144 0.9523 0.0
C359 C 0.63376 0.67956 0.79652 0.0
C360 C 0.62441 0.69051 0.74536 0.0
C361 C 0.59315 0.67619 0.72048 0.0
C362 C 0.57239 0.65037 0.74558 0.0
C363 C 0.5827 0.63958 0.79582 0.0
C364 C 0.61241 0.65392 0.82114 0.0
C365 C 0.61642 0.63891 0.87525 0.0
C366 C 0.6527 0.61701 0.89807 0.0
C367 C 0.6125 0.67004 0.89954 0.0
C368 C 0.58444 0.61388 0.87625 0.0
C369 C 0.5655 0.61451 0.83001 0.0
C370 C 0.53533 0.59318 0.82162 0.0
C371 C 0.52419 0.57063 0.86161 0.0
C372 C 0.54293 0.56981 0.90948 0.0
C373 C 0.57343 0.59182 0.91655 0.0
H374 H 0.8245 0.05904 0.23108 0.0
H375 H 0.82835 0.17738 0.21044 0.0
H376 H 0.87404 0.1685 0.28735 0.0
H377 H 0.8315 0.03672 0.35974 0.0
H378 H 0.85945 0.99564 0.37153 0.0
H379 H 0.82782 0.01133 0.31421 0.0
H380 H 0.8804 0.0121 0.26981 0.0
H381 H 0.91225 0.99675 0.32708 0.0
H382 H 0.91975 0.0384 0.28455 0.0
H383 H 0.92277 0.14697 0.36232 0.0
H384 H 0.96413 0.11448 0.43781 0.0
H385 H 0.92328 0.00999 0.4159 0.0
C386 C 0.83488 0.08311 0.24278 0.0
C387 C 0.82298 0.11895 0.21461 0.0
C388 C 0.83702 0.14969 0.2314 0.0
C389 C 0.86313 0.14493 0.27487 0.0
C390 C 0.8746 0.10927 0.30135 0.0
C391 C 0.86054 0.07886 0.28644 0.0
C392 C 0.8767 0.04352 0.32258 0.0
C393 C 0.84709 0.02046 0.34325 0.0
C394 C 0.89856 0.02139 0.29962 0.0
C395 C 0.90156 0.05886 0.3606 0.0
C396 C 0.90059 0.09684 0.34685 0.0
C397 C 0.92292 0.11731 0.37417 0.0
C398 C 0.94603 0.09854 0.41743 0.0
C399 C 0.94552 0.0598 0.43434 0.0
C400 C 0.92357 0.03968 0.40477 0.0
H401 H 0.35927 0.38216 0.54016 0.0
H402 H 0.35456 0.27452 0.63637 0.0
H403 H 0.3692 0.30188 0.70669 0.0
H404 H 0.43364 0.4156 0.62012 0.0
H405 H 0.41393 0.46167 0.60173 0.0
H406 H 0.40619 0.43284 0.55995 0.0
H407 H 0.33657 0.44256 0.54806 0.0
H408 H 0.34404 0.47136 0.58973 0.0
H409 H 0.31644 0.43179 0.60019 0.0
H410 H 0.38014 0.34263 0.76602 0.0
H411 H 0.38434 0.39276 0.80786 0.0
H412 H 0.38282 0.47261 0.67171 0.0
C413 C 0.36159 0.36413 0.57598 0.0
C414 C 0.35563 0.32617 0.58267 0.0
C415 C 0.35891 0.30371 0.63028 0.0
C416 C 0.36738 0.31898 0.67046 0.0
C417 C 0.37272 0.35666 0.66239 0.0
C418 C 0.37004 0.37883 0.61624 0.0
C419 C 0.37504 0.41873 0.61664 0.0
C420 C 0.40924 0.43304 0.59854 0.0
C421 C 0.341 0.44249 0.58691 0.0
C422 C 0.37988 0.41584 0.6701 0.0
C423 C 0.37897 0.37984 0.69615 0.0
C424 C 0.38126 0.37086 0.74598 0.0
C425 C 0.38379 0.3995 0.76948 0.0
C426 C 0.38374 0.43665 0.74303 0.0
C427 C 0.38255 0.44458 0.6929 0.0
H428 H 0.5826 0.69253 0.44642 0.0
H429 H 0.57826 0.58896 0.55112 0.0
H430 H 0.56623 0.55717 0.48501 0.0
H431 H 0.51395 0.67364 0.34385 0.0
H432 H 0.53977 0.6963 0.30055 0.0
H433 H 0.5417 0.71146 0.35483 0.0
H434 H 0.61193 0.70258 0.37625 0.0
H435 H 0.61024 0.68735 0.32229 0.0
H436 H 0.63214 0.65847 0.38039 0.0
H437 H 0.56202 0.53592 0.4086 0.0
H438 H 0.56926 0.52682 0.33012 0.0
H439 H 0.57709 0.64443 0.27664 0.0
C440 C 0.57814 0.66332 0.4554 0.0
C441 C 0.58109 0.64325 0.50381 0.0
C442 C 0.57596 0.60489 0.51416 0.0
C443 C 0.56893 0.58666 0.47684 0.0
C444 C 0.56708 0.60721 0.4295 0.0
C445 C 0.57151 0.64474 0.41878 0.0
C446 C 0.5725 0.66001 0.36615 0.0
C447 C 0.54004 0.68694 0.3398 0.0
C448 C 0.60885 0.67815 0.36101 0.0
C449 C 0.56911 0.62508 0.34914 0.0
C450 C 0.56531 0.59495 0.38584 0.0
C451 C 0.56436 0.55939 0.37938 0.0
C452 C 0.56836 0.55448 0.33468 0.0
C453 C 0.5737 0.58494 0.29743 0.0
C454 C 0.57303 0.62066 0.30452 0.0
H455 H 0.80118 0.10482 0.92497 0.0
H456 H 0.85527 0.00744 0.02906 0.0
H457 H 0.89192 0.99984 0.97163 0.0
H458 H 0.8027 0.07183 0.81409 0.0
H459 H 0.81074 0.11724 0.78051 0.0
H460 H 0.78456 0.11162 0.82643 0.0
H461 H 0.82829 0.15317 0.86938 0.0
H462 H 0.85449 0.15889 0.82376 0.0
H463 H 0.87636 0.14155 0.88667 0.0
H464 H 0.92755 0.00673 0.90668 0.0
H465 H 0.96051 0.02947 0.84094 0.0
H466 H 0.8844 0.12286 0.78078 0.0
C467 C 0.82006 0.08137 0.93523 0.0
C468 C 0.82519 0.05665 0.98146 0.0
C469 C 0.85066 0.02665 0.99375 0.0
C470 C 0.87155 0.02199 0.96127 0.0
C471 C 0.86644 0.04734 0.91641 0.0
C472 C 0.84116 0.07634 0.90325 0.0
C473 C 0.8432 0.1016 0.85478 0.0
C474 C 0.80822 0.1005 0.8167 0.0
C475 C 0.85107 0.14112 0.85895 0.0
C476 C 0.87502 0.0836 0.8442 0.0
C477 C 0.8874 0.05171 0.8794 0.0
C478 C 0.91772 0.03133 0.8785 0.0
C479 C 0.93622 0.04433 0.84116 0.0
C480 C 0.92465 0.07764 0.80603 0.0
C481 C 0.89338 0.0971 0.80714 0.0
H482 H 0.36164 0.37756 0.27739 0.0
H483 H 0.46383 0.34903 0.38312 0.0
H484 H 0.49708 0.37948 0.32133 0.0
H485 H 0.39396 0.36481 0.17431 0.0
H486 H 0.36659 0.40331 0.13331 0.0
H487 H 0.35187 0.37823 0.18628 0.0
H488 H 0.34749 0.44032 0.20946 0.0
H489 H 0.36388 0.46432 0.15708 0.0
H490 H 0.38727 0.46744 0.21658 0.0
H491 H 0.51952 0.41155 0.24927 0.0
H492 H 0.53054 0.44313 0.16976 0.0
H493 H 0.41419 0.45322 0.10924 0.0
C494 C 0.39101 0.37759 0.28742 0.0
C495 C 0.41015 0.36078 0.3351 0.0
C496 C 0.44856 0.36169 0.3469 0.0
C497 C 0.46772 0.37898 0.31207 0.0
C498 C 0.44811 0.39548 0.26562 0.0
C499 C 0.41066 0.39506 0.25309 0.0
C500 C 0.39646 0.41491 0.20033 0.0
C501 C 0.37605 0.38868 0.17192 0.0
C502 C 0.37235 0.44876 0.19561 0.0
C503 C 0.43187 0.42607 0.18511 0.0
C504 C 0.46121 0.41459 0.22359 0.0
C505 C 0.4968 0.42079 0.21885 0.0
C506 C 0.50273 0.43881 0.1734 0.0
C507 C 0.47324 0.45067 0.13309 0.0
C508 C 0.43728 0.44454 0.13926 0.0
H509 H 0.18515 0.86095 0.87775 0.0
H510 H 0.16459 0.94138 0.95399 0.0
H511 H 0.11804 0.97253 0.8836 0.0
H512 H 0.17571 0.92508 0.76194 0.0
H513 H 0.15369 0.89388 0.72797 0.0
H514 H 0.18451 0.87619 0.78536 0.0
H515 H 0.13391 0.83544 0.81533 0.0
H516 H 0.10285 0.85353 0.75802 0.0
H517 H 0.09086 0.85653 0.81337 0.0
H518 H 0.07586 0.99675 0.80615 0.0
H519 H 0.0409 0.01469 0.72221 0.0
H520 H 0.08633 0.91938 0.6934 0.0
C521 C 0.17065 0.88495 0.87966 0.0
C522 C 0.17863 0.89859 0.92161 0.0
C523 C 0.1592 0.93029 0.92246 0.0
C524 C 0.13247 0.94819 0.88267 0.0
C525 C 0.12528 0.93416 0.84208 0.0
C526 C 0.14368 0.9034 0.83991 0.0
C527 C 0.13137 0.89549 0.79048 0.0
C528 C 0.16322 0.89782 0.76495 0.0
C529 C 0.11369 0.85801 0.79457 0.0
C530 C 0.10348 0.92683 0.76547 0.0
C531 C 0.10048 0.94855 0.79628 0.0
C532 C 0.07782 0.97992 0.78163 0.0
C533 C 0.05815 0.98992 0.73377 0.0
C534 C 0.06116 0.96866 0.70091 0.0
C535 C 0.08349 0.93618 0.7174 0.0
loop_
_geom_bond_atom_site_label_1
_geom_bond_atom_site_label_2
_geom_bond_distance
_geom_bond_site_symmetry_2
_ccdc_geom_bond_type
O0 Cd1 2.300 1_556 S
O0 C7 1.275 . S
Cd1 O0 2.300 1_554 S
Cd1 O9 2.381 . S
Cd1 O10 2.378 . S
O2 Cd3 2.385 1_556 S
O2 C7 1.255 . S
Cd3 O2 2.385 1_554 S
Cd3 O4 2.317 . S
O4 Cd3 2.317 . S
O4 C5 1.232 . S
C5 O4 1.232 . S
C5 O6 1.218 . S
O6 C5 1.218 . S
C7 O0 1.275 . S
C7 O2 1.255 . S
C8 O9 1.258 . S
C8 O10 1.256 . S
O9 Cd1 2.381 . S
O9 C8 1.258 . S
O10 Cd1 2.378 . S
O10 C8 1.256 . S
O11 Cd12 2.300 . S
O11 C18 1.275 . S
Cd12 O11 2.300 . S
Cd12 O20 2.381 . S
Cd12 O21 2.378 . S
O13 Cd14 2.385 . S
O13 C18 1.255 . S
Cd14 O13 2.385 . S
Cd14 O15 2.317 . S
O15 Cd14 2.317 . S
O15 C16 1.232 . S
C16 O15 1.232 . S
C16 O17 1.218 . S
O17 C16 1.218 . S
C18 O11 1.275 . S
C18 O13 1.255 . S
C19 O20 1.258 . S
C19 O21 1.256 . S
O20 Cd12 2.381 . S
O20 C19 1.258 . S
O21 Cd12 2.378 . S
O21 C19 1.256 . S
O22 Cd23 2.300 . S
O22 C29 1.275 . S
Cd23 O22 2.300 . S
Cd23 O31 2.381 . S
Cd23 O32 2.378 . S
O24 Cd25 2.385 . S
O24 C29 1.255 . S
Cd25 O24 2.385 . S
Cd25 O26 2.317 . S
O26 Cd25 2.317 . S
O26 C27 1.232 . S
C27 O26 1.232 . S
C27 O28 1.218 . S
O28 C27 1.218 . S
C29 O22 1.275 . S
C29 O24 1.255 . S
C30 O31 1.258 . S
C30 O32 1.256 . S
O31 Cd23 2.381 . S
O31 C30 1.258 . S
O32 Cd23 2.378 . S
O32 C30 1.256 . S
O33 Cd34 2.300 . S
O33 C40 1.275 . S
Cd34 O33 2.300 . S
Cd34 O42 2.381 . S
Cd34 O43 2.378 . S
O35 Cd36 2.385 . S
O35 C40 1.255 . S
Cd36 O35 2.385 . S
Cd36 O37 2.317 . S
O37 Cd36 2.317 . S
O37 C38 1.232 . S
C38 O37 1.232 . S
C38 O39 1.218 . S
O39 C38 1.218 . S
C40 O33 1.275 . S
C40 O35 1.255 . S
C41 O42 1.258 . S
C41 O43 1.256 . S
O42 Cd34 2.381 . S
O42 C41 1.258 . S
O43 Cd34 2.378 . S
O43 C41 1.256 . S
Eu44 N73 2.600 . S
Eu44 N79 2.562 . S
Eu44 O88 2.462 . S
Eu44 O89 2.373 . S
Eu44 O91 2.432 . S
Eu44 O92 2.291 1_565 S
Eu44 O96 2.335 1_465 S
Eu44 O99 2.372 1_455 S
Eu44 C108 2.787 . S
C45 N46 1.365 . S
C45 C48 1.405 . S
C45 C52 1.448 . S
N46 C45 1.365 . S
N46 C49 1.319 1_655 S
N46 Eu55 2.600 . S
C47 C49 1.397 . S
C47 C50 1.367 1_455 S
C47 H67 0.931 . S
C48 C45 1.405 . S
C48 C50 1.403 . S
C48 C54 1.439 . S
C49 N46 1.319 1_455 S
C49 C47 1.397 . S
C49 H60 0.930 . S
C50 C47 1.367 1_655 S
C50 C48 1.403 . S
C50 H71 0.929 . S
C51 C52 1.430 . S
C51 C53 1.387 . S
C51 C57 1.404 . S
C52 C45 1.448 . S
C52 C51 1.430 . S
C52 N56 1.351 . S
C53 C51 1.387 . S
C53 C54 1.374 . S
C53 H68 0.931 . S
C54 C48 1.439 . S
C54 C53 1.374 . S
C54 H69 0.931 . S
Eu55 N46 2.600 . S
Eu55 N56 2.562 . S
Eu55 O90 2.335 1_655 S
Eu55 O93 2.372 1_655 S
Eu55 O94 2.462 . S
Eu55 O95 2.373 . S
Eu55 O97 2.432 . S
Eu55 O98 2.291 1_545 S
Eu55 C119 2.787 . S
N56 C52 1.351 . S
N56 Eu55 2.562 . S
N56 C58 1.325 . S
C57 C51 1.404 . S
C57 C59 1.366 . S
C57 H65 0.930 . S
C58 N56 1.325 . S
C58 C59 1.416 . S
C58 H64 0.929 . S
C59 C57 1.366 . S
C59 C58 1.416 . S
C59 H61 0.930 . S
H60 C49 0.930 . S
H61 C59 0.930 . S
H62 C77 0.930 1_655 S
H63 C84 0.930 . S
H64 C58 0.929 . S
H65 C57 0.930 . S
H66 C80 0.929 . S
H67 C47 0.931 . S
H68 C53 0.931 . S
H69 C54 0.931 . S
H70 C75 0.931 1_655 S
H71 C50 0.929 . S
H72 C83 0.930 . S
N73 Eu44 2.600 . S
N73 C74 1.365 . S
N73 C77 1.319 . S
C74 N73 1.365 . S
C74 C76 1.405 . S
C74 C82 1.448 . S
C75 H70 0.931 1_455 S
C75 C77 1.397 . S
C75 C78 1.367 . S
C76 C74 1.405 . S
C76 C78 1.403 . S
C76 C109 1.439 . S
C77 H62 0.930 1_455 S
C77 N73 1.319 . S
C77 C75 1.397 . S
C78 C75 1.367 . S
C78 C76 1.403 . S
C78 H85 0.929 . S
N79 Eu44 2.562 . S
N79 C80 1.325 . S
N79 C82 1.351 . S
C80 H66 0.929 . S
C80 N79 1.325 . S
C80 C84 1.416 . S
C81 C82 1.430 . S
C81 C83 1.404 . S
C81 C110 1.387 . S
C82 C74 1.448 . S
C82 N79 1.351 . S
C82 C81 1.430 . S
C83 H72 0.930 . S
C83 C81 1.404 . S
C83 C84 1.366 . S
C84 H63 0.930 . S
C84 C80 1.416 . S
C84 C83 1.366 . S
H85 C78 0.929 . S
H86 C109 0.931 . S
H87 C110 0.931 . S
O88 Eu44 2.462 . S
O88 C108 1.252 . S
O89 Eu44 2.373 . S
O89 C100 1.249 . S
O90 Eu55 2.335 1_455 S
O90 C100 1.264 1_545 S
O91 Eu44 2.432 . S
O91 C108 1.268 . S
O92 Eu44 2.291 1_545 S
O92 C107 1.255 . S
O93 Eu55 2.372 1_455 S
O93 C107 1.257 . S
O94 Eu55 2.462 . S
O94 C119 1.252 . S
O95 Eu55 2.373 . S
O95 C111 1.249 . S
O96 Eu44 2.335 1_645 S
O96 C111 1.264 . S
O97 Eu55 2.432 . S
O97 C119 1.268 . S
O98 Eu55 2.291 1_565 S
O98 C118 1.255 . S
O99 Eu44 2.372 1_655 S
O99 C118 1.257 . S
C100 O89 1.249 . S
C100 O90 1.264 1_565 S
C101 C104 1.382 . S
C101 C106 1.390 . S
C101 C108 1.506 . S
C102 C103 1.398 . S
C102 C106 1.392 . S
C103 C102 1.398 . S
C103 C105 1.372 . S
C103 H120 0.931 . S
C104 C101 1.382 . S
C104 C105 1.390 . S
C104 H121 0.931 . S
C105 C103 1.372 . S
C105 C104 1.390 . S
C105 H122 0.929 . S
C106 C101 1.390 . S
C106 C102 1.392 . S
C106 H123 0.930 . S
C107 O92 1.255 . S
C107 O93 1.257 . S
C108 Eu44 2.787 . S
C108 O88 1.252 . S
C108 O91 1.268 . S
C108 C101 1.506 . S
C109 C76 1.439 . S
C109 H86 0.931 . S
C109 C110 1.374 . S
C110 C81 1.387 . S
C110 H87 0.931 . S
C110 C109 1.374 . S
C111 O95 1.249 . S
C111 O96 1.264 . S
C112 C115 1.382 . S
C112 C116 1.390 . S
C112 C119 1.506 . S
C113 C114 1.398 . S
C113 C116 1.392 . S
C114 C113 1.398 . S
C114 C117 1.372 . S
C114 H124 0.931 . S
C115 C112 1.382 . S
C115 C117 1.390 . S
C115 H125 0.931 . S
C116 C112 1.390 . S
C116 C113 1.392 . S
C116 H126 0.930 . S
C117 C114 1.372 . S
C117 C115 1.390 . S
C117 H127 0.929 . S
C118 O98 1.255 . S
C118 O99 1.257 . S
C119 Eu55 2.787 . S
C119 O94 1.252 . S
C119 O97 1.268 . S
C119 C112 1.506 . S
H120 C103 0.931 . S
H121 C104 0.931 . S
H122 C105 0.929 . S
H123 C106 0.930 . S
H124 C114 0.931 . S
H125 C115 0.931 . S
H126 C116 0.930 . S
H127 C117 0.929 . S
Eu128 N157 2.600 . S
Eu128 N163 2.562 1_556 S
Eu128 O172 2.462 . S
Eu128 O173 2.373 1_556 S
Eu128 O175 2.432 . S
Eu128 O176 2.291 1_556 S
Eu128 O180 2.335 . S
Eu128 O183 2.372 . S
Eu128 C192 2.787 . S
C129 N130 1.365 . S
C129 C132 1.405 . S
C129 C136 1.448 . S
N130 C129 1.365 . S
N130 C133 1.319 . S
N130 Eu139 2.600 . S
C131 C133 1.397 . S
C131 C134 1.367 . S
C131 H151 0.931 . S
C132 C129 1.405 . S
C132 C134 1.403 . S
C132 C138 1.439 . S
C133 N130 1.319 . S
C133 C131 1.397 . S
C133 H144 0.930 . S
C134 C131 1.367 . S
C134 C132 1.403 . S
C134 H155 0.929 . S
C135 C136 1.430 . S
C135 C137 1.387 . S
C135 C141 1.404 . S
C136 C129 1.448 . S
C136 C135 1.430 . S
C136 N140 1.351 . S
C137 C135 1.387 . S
C137 C138 1.374 . S
C137 H152 0.931 . S
C138 C132 1.439 . S
C138 C137 1.374 . S
C138 H153 0.931 . S
Eu139 N130 2.600 . S
Eu139 N140 2.562 . S
Eu139 O174 2.335 . S
Eu139 O177 2.372 . S
Eu139 O178 2.462 . S
Eu139 O179 2.373 1_554 S
Eu139 O181 2.432 . S
Eu139 O182 2.291 . S
Eu139 C203 2.787 . S
N140 C136 1.351 . S
N140 Eu139 2.562 . S
N140 C142 1.325 . S
C141 C135 1.404 . S
C141 C143 1.366 . S
C141 H149 0.930 . S
C142 N140 1.325 . S
C142 C143 1.416 . S
C142 H148 0.929 . S
C143 C141 1.366 . S
C143 C142 1.416 . S
C143 H145 0.930 . S
H144 C133 0.930 . S
H145 C143 0.930 . S
H146 C161 0.930 . S
H147 C168 0.930 . S
H148 C142 0.929 . S
H149 C141 0.930 . S
H150 C164 0.929 . S
H151 C131 0.931 . S
H152 C137 0.931 . S
H153 C138 0.931 . S
H154 C159 0.931 . S
H155 C134 0.929 . S
H156 C167 0.930 . S
N157 Eu128 2.600 . S
N157 C158 1.365 1_556 S
N157 C161 1.319 . S
C158 N157 1.365 1_554 S
C158 C160 1.405 . S
C158 C166 1.448 . S
C159 H154 0.931 . S
C159 C161 1.397 . S
C159 C162 1.364 1_556 S
C160 C158 1.405 . S
C160 C162 1.403 . S
C160 C193 1.439 . S
C161 H146 0.930 . S
C161 N157 1.319 . S
C161 C159 1.397 . S
C162 C159 1.364 1_554 S
C162 C160 1.403 . S
C162 H169 0.933 . S
N163 Eu128 2.562 1_554 S
N163 C164 1.325 . S
N163 C166 1.351 . S
C164 H150 0.929 . S
C164 N163 1.325 . S
C164 C168 1.416 . S
C165 C166 1.430 . S
C165 C167 1.404 . S
C165 C194 1.387 . S
C166 C158 1.448 . S
C166 N163 1.351 . S
C166 C165 1.430 . S
C167 H156 0.930 . S
C167 C165 1.404 . S
C167 C168 1.366 . S
C168 H147 0.930 . S
C168 C164 1.416 . S
C168 C167 1.366 . S
H169 C162 0.933 . S
H170 C193 0.931 . S
H171 C194 0.931 . S
O172 Eu128 2.462 . S
O172 C192 1.252 . S
O173 Eu128 2.373 1_554 S
O173 C184 1.249 . S
O174 Eu139 2.335 . S
O174 C184 1.264 . S
O175 Eu128 2.432 . S
O175 C192 1.268 . S
O176 Eu128 2.291 1_554 S
O176 C191 1.255 . S
O177 Eu139 2.372 . S
O177 C191 1.257 . S
O178 Eu139 2.462 . S
O178 C203 1.252 . S
O179 Eu139 2.373 1_556 S
O179 C195 1.249 . S
O180 Eu128 2.335 . S
O180 C195 1.264 . S
O181 Eu139 2.432 . S
O181 C203 1.268 . S
O182 Eu139 2.291 . S
O182 C202 1.255 . S
O183 Eu128 2.372 . S
O183 C202 1.257 1_556 S
C184 O173 1.249 . S
C184 O174 1.264 . S
C185 C188 1.382 . S
C185 C190 1.390 . S
C185 C192 1.506 . S
C186 C187 1.398 . S
C186 C190 1.392 . S
C187 C186 1.398 . S
C187 C189 1.372 . S
C187 H204 0.931 . S
C188 C185 1.382 . S
C188 C189 1.390 . S
C188 H205 0.931 . S
C189 C187 1.372 . S
C189 C188 1.390 . S
C189 H206 0.929 . S
C190 C185 1.390 . S
C190 C186 1.392 . S
C190 H207 0.930 . S
C191 O176 1.255 . S
C191 O177 1.257 . S
C192 Eu128 2.787 . S
C192 O172 1.252 . S
C192 O175 1.268 . S
C192 C185 1.506 . S
C193 C160 1.439 . S
C193 H170 0.931 . S
C193 C194 1.374 . S
C194 C165 1.387 . S
C194 H171 0.931 . S
C194 C193 1.374 . S
C195 O179 1.249 . S
C195 O180 1.264 . S
C196 C199 1.382 . S
C196 C200 1.390 . S
C196 C203 1.506 . S
C197 C198 1.398 . S
C197 C200 1.392 . S
C198 C197 1.398 . S
C198 C201 1.372 . S
C198 H208 0.931 . S
C199 C196 1.382 . S
C199 C201 1.390 . S
C199 H209 0.931 . S
C200 C196 1.390 . S
C200 C197 1.392 . S
C200 H210 0.930 . S
C201 C198 1.372 . S
C201 C199 1.390 . S
C201 H211 0.929 . S
C202 O182 1.255 . S
C202 O183 1.257 1_554 S
C203 Eu139 2.787 . S
C203 O178 1.252 . S
C203 O181 1.268 . S
C203 C196 1.506 . S
H204 C187 0.931 . S
H205 C188 0.931 . S
H206 C189 0.929 . S
H207 C190 0.930 . S
H208 C198 0.931 . S
H209 C199 0.931 . S
H210 C200 0.930 . S
H211 C201 0.929 . S
H212 C224 0.930 . S
H213 C226 0.930 . S
H214 C227 0.930 . S
H215 C231 0.959 . S
H216 C231 0.959 . S
H217 C231 0.961 . S
H218 C232 0.960 . S
H219 C232 0.961 . S
H220 C232 0.959 . S
H221 C235 0.929 . S
H222 C236 0.931 . S
H223 C238 0.930 . S
C224 H212 0.930 . S
C224 C225 1.399 . S
C224 C229 1.399 . S
C225 C224 1.399 . S
C225 C226 1.376 . S
C226 H213 0.930 . S
C226 C225 1.376 . S
C226 C227 1.388 . S
C227 H214 0.930 . S
C227 C226 1.388 . S
C227 C228 1.390 . S
C228 C227 1.390 . S
C228 C229 1.394 . S
C228 C234 1.465 . S
C229 C224 1.399 . S
C229 C228 1.394 . S
C229 C230 1.516 . S
C230 C229 1.516 . S
C230 C231 1.502 . S
C230 C232 1.561 . S
C230 C233 1.526 . S
C231 H215 0.959 . S
C231 H216 0.959 . S
C231 H217 0.961 . S
C231 C230 1.502 . S
C232 H218 0.960 . S
C232 H219 0.961 . S
C232 H220 0.959 . S
C232 C230 1.561 . S
C233 C230 1.526 . S
C233 C234 1.396 . S
C233 C238 1.390 . S
C234 C228 1.465 . S
C234 C233 1.396 . S
C234 C235 1.399 . S
C235 H221 0.929 . S
C235 C234 1.399 . S
C235 C236 1.385 . S
C236 H222 0.931 . S
C236 C235 1.385 . S
C236 C237 1.389 . S
C237 C236 1.389 . S
C237 C238 1.387 . S
C238 H223 0.930 . S
C238 C233 1.390 . S
C238 C237 1.387 . S
H239 C251 0.930 . S
H240 C253 0.930 . S
H241 C254 0.930 . S
H242 C258 0.959 . S
H243 C258 0.959 . S
H244 C258 0.961 . S
H245 C259 0.960 . S
H246 C259 0.961 . S
H247 C259 0.959 . S
H248 C262 0.929 . S
H249 C263 0.931 . S
H250 C265 0.930 . S
C251 H239 0.930 . S
C251 C252 1.399 . S
C251 C256 1.399 . S
C252 C251 1.399 . S
C252 C253 1.376 1_554 S
C253 H240 0.930 . S
C253 C252 1.376 1_556 S
C253 C254 1.388 . S
C254 H241 0.930 . S
C254 C253 1.388 . S
C254 C255 1.390 1_556 S
C255 C254 1.390 1_554 S
C255 C256 1.394 . S
C255 C261 1.465 . S
C256 C251 1.399 . S
C256 C255 1.394 . S
C256 C257 1.516 . S
C257 C256 1.516 . S
C257 C258 1.502 . S
C257 C259 1.561 . S
C257 C260 1.526 . S
C258 H242 0.959 . S
C258 H243 0.959 . S
C258 H244 0.961 . S
C258 C257 1.502 . S
C259 H245 0.960 . S
C259 H246 0.961 . S
C259 H247 0.959 . S
C259 C257 1.561 . S
C260 C257 1.526 . S
C260 C261 1.396 . S
C260 C265 1.390 . S
C261 C255 1.465 . S
C261 C260 1.396 . S
C261 C262 1.399 1_554 S
C262 H248 0.929 . S
C262 C261 1.399 1_556 S
C262 C263 1.385 . S
C263 H249 0.931 . S
C263 C262 1.385 . S
C263 C264 1.389 1_556 S
C264 C263 1.389 1_554 S
C264 C265 1.387 . S
C265 H250 0.930 . S
C265 C260 1.390 . S
C265 C264 1.387 . S
H266 C278 0.930 . S
H267 C280 0.930 . S
H268 C281 0.930 . S
H269 C285 0.959 . S
H270 C285 0.959 . S
H271 C285 0.961 . S
H272 C286 0.960 . S
H273 C286 0.961 . S
H274 C286 0.959 . S
H275 C289 0.929 . S
H276 C290 0.931 . S
H277 C292 0.930 . S
C278 H266 0.930 . S
C278 C279 1.399 . S
C278 C283 1.399 . S
C279 C278 1.399 . S
C279 C280 1.376 . S
C280 H267 0.930 . S
C280 C279 1.376 . S
C280 C281 1.388 . S
C281 H268 0.930 . S
C281 C280 1.388 . S
C281 C282 1.390 . S
C282 C281 1.390 . S
C282 C283 1.394 . S
C282 C288 1.465 . S
C283 C278 1.399 . S
C283 C282 1.394 . S
C283 C284 1.516 . S
C284 C283 1.516 . S
C284 C285 1.502 . S
C284 C286 1.561 . S
C284 C287 1.526 . S
C285 H269 0.959 . S
C285 H270 0.959 . S
C285 H271 0.961 . S
C285 C284 1.502 . S
C286 H272 0.960 . S
C286 H273 0.961 . S
C286 H274 0.959 . S
C286 C284 1.561 . S
C287 C284 1.526 . S
C287 C288 1.396 . S
C287 C292 1.390 . S
C288 C282 1.465 . S
C288 C287 1.396 . S
C288 C289 1.399 . S
C289 H275 0.929 . S
C289 C288 1.399 . S
C289 C290 1.385 . S
C290 H276 0.931 . S
C290 C289 1.385 . S
C290 C291 1.389 . S
C291 C290 1.389 . S
C291 C292 1.387 . S
C292 H277 0.930 . S
C292 C287 1.390 . S
C292 C291 1.387 . S
H293 C305 0.930 . S
H294 C307 0.930 1_556 S
H295 C308 0.930 . S
H296 C312 0.959 . S
H297 C312 0.959 . S
H298 C312 0.961 . S
H299 C313 0.960 . S
H300 C313 0.961 . S
H301 C313 0.959 . S
H302 C316 0.929 . S
H303 C317 0.931 . S
H304 C319 0.930 . S
C305 H293 0.930 . S
C305 C306 1.399 . S
C305 C310 1.399 . S
C306 C305 1.399 . S
C306 C307 1.376 . S
C307 H294 0.930 1_554 S
C307 C306 1.376 . S
C307 C308 1.388 1_554 S
C308 H295 0.930 . S
C308 C307 1.388 1_556 S
C308 C309 1.390 1_556 S
C309 C308 1.390 1_554 S
C309 C310 1.394 . S
C309 C315 1.465 . S
C310 C305 1.399 . S
C310 C309 1.394 . S
C310 C311 1.516 . S
C311 C310 1.516 . S
C311 C312 1.502 . S
C311 C313 1.561 . S
C311 C314 1.526 . S
C312 H296 0.959 . S
C312 H297 0.959 . S
C312 H298 0.961 . S
C312 C311 1.502 . S
C313 H299 0.960 . S
C313 H300 0.961 . S
C313 H301 0.959 . S
C313 C311 1.561 . S
C314 C311 1.526 . S
C314 C315 1.396 . S
C314 C319 1.390 . S
C315 C309 1.465 . S
C315 C314 1.396 . S
C315 C316 1.399 1_554 S
C316 H302 0.929 . S
C316 C315 1.399 1_556 S
C316 C317 1.385 . S
C317 H303 0.931 . S
C317 C316 1.385 . S
C317 C318 1.389 1_556 S
C318 C317 1.389 1_554 S
C318 C319 1.387 . S
C319 H304 0.930 . S
C319 C314 1.390 . S
C319 C318 1.387 . S
H320 C332 0.930 . S
H321 C334 0.930 . S
H322 C335 0.930 . S
H323 C339 0.959 . S
H324 C339 0.959 . S
H325 C339 0.961 . S
H326 C340 0.961 . S
H327 C340 0.978 . S
H328 C340 0.957 . S
H329 C343 0.929 . S
H330 C344 0.931 . S
H331 C346 0.930 . S
C332 H320 0.930 . S
C332 C333 1.399 . S
C332 C337 1.399 . S
C333 C332 1.399 . S
C333 C334 1.376 . S
C334 H321 0.930 . S
C334 C333 1.376 . S
C334 C335 1.388 . S
C335 H322 0.930 . S
C335 C334 1.388 . S
C335 C336 1.390 . S
C336 C335 1.390 . S
C336 C337 1.394 . S
C336 C342 1.465 . S
C337 C332 1.399 . S
C337 C336 1.394 . S
C337 C338 1.516 . S
C338 C337 1.516 . S
C338 C339 1.502 . S
C338 C340 1.546 1_565 S
C338 C341 1.526 . S
C339 H323 0.959 . S
C339 H324 0.959 . S
C339 H325 0.961 . S
C339 C338 1.502 . S
C340 H326 0.961 . S
C340 H327 0.978 . S
C340 H328 0.957 . S
C340 C338 1.546 1_545 S
C341 C338 1.526 . S
C341 C342 1.396 . S
C341 C346 1.390 . S
C342 C336 1.465 . S
C342 C341 1.396 . S
C342 C343 1.399 . S
C343 H329 0.929 . S
C343 C342 1.399 . S
C343 C344 1.385 . S
C344 H330 0.931 . S
C344 C343 1.385 . S
C344 C345 1.389 . S
C345 C344 1.389 . S
C345 C346 1.387 . S
C346 H331 0.930 . S
C346 C341 1.390 . S
C346 C345 1.387 . S
H347 C359 0.930 . S
H348 C361 0.930 . S
H349 C362 0.930 . S
H350 C366 0.959 . S
H351 C366 0.959 . S
H352 C366 0.961 . S
H353 C367 0.960 . S
H354 C367 0.961 . S
H355 C367 0.959 . S
H356 C370 0.929 . S
H357 C371 0.931 . S
H358 C373 0.930 . S
C359 H347 0.930 . S
C359 C360 1.399 . S
C359 C364 1.399 . S
C360 C359 1.399 . S
C360 C361 1.376 . S
C361 H348 0.930 . S
C361 C360 1.376 . S
C361 C362 1.388 . S
C362 H349 0.930 . S
C362 C361 1.388 . S
C362 C363 1.390 . S
C363 C362 1.390 . S
C363 C364 1.394 . S
C363 C369 1.465 . S
C364 C359 1.399 . S
C364 C363 1.394 . S
C364 C365 1.516 . S
C365 C364 1.516 . S
C365 C366 1.502 . S
C365 C367 1.561 . S
C365 C368 1.526 . S
C366 H350 0.959 . S
C366 H351 0.959 . S
C366 H352 0.961 . S
C366 C365 1.502 . S
C367 H353 0.960 . S
C367 H354 0.961 . S
C367 H355 0.959 . S
C367 C365 1.561 . S
C368 C365 1.526 . S
C368 C369 1.396 . S
C368 C373 1.390 . S
C369 C363 1.465 . S
C369 C368 1.396 . S
C369 C370 1.399 . S
C370 H356 0.929 . S
C370 C369 1.399 . S
C370 C371 1.385 . S
C371 H357 0.931 . S
C371 C370 1.385 . S
C371 C372 1.389 . S
C372 C371 1.389 . S
C372 C373 1.387 . S
C373 H358 0.930 . S
C373 C368 1.390 . S
C373 C372 1.387 . S
H374 C386 0.930 . S
H375 C388 0.930 . S
H376 C389 0.930 . S
H377 C393 0.959 . S
H378 C393 0.959 1_565 S
H379 C393 0.961 . S
H380 C394 0.960 . S
H381 C394 0.961 . S
H382 C394 0.959 . S
H383 C397 0.929 . S
H384 C398 0.931 . S
H385 C400 0.930 . S
C386 H374 0.930 . S
C386 C387 1.399 . S
C386 C391 1.399 . S
C387 C386 1.399 . S
C387 C388 1.376 . S
C388 H375 0.930 . S
C388 C387 1.376 . S
C388 C389 1.388 . S
C389 H376 0.930 . S
C389 C388 1.388 . S
C389 C390 1.390 . S
C390 C389 1.390 . S
C390 C391 1.394 . S
C390 C396 1.465 . S
C391 C386 1.399 . S
C391 C390 1.394 . S
C391 C392 1.516 . S
C392 C391 1.516 . S
C392 C393 1.502 . S
C392 C394 1.561 . S
C392 C395 1.526 . S
C393 H377 0.959 . S
C393 H378 0.959 1_545 S
C393 H379 0.961 . S
C393 C392 1.502 . S
C394 H380 0.960 . S
C394 H381 0.961 . S
C394 H382 0.959 . S
C394 C392 1.561 . S
C395 C392 1.526 . S
C395 C396 1.396 . S
C395 C400 1.390 . S
C396 C390 1.465 . S
C396 C395 1.396 . S
C396 C397 1.399 . S
C397 H383 0.929 . S
C397 C396 1.399 . S
C397 C398 1.385 . S
C398 H384 0.931 . S
C398 C397 1.385 . S
C398 C399 1.389 . S
C399 C398 1.389 . S
C399 C400 1.387 . S
C400 H385 0.930 . S
C400 C395 1.390 . S
C400 C399 1.387 . S
H401 C413 0.930 . S
H402 C415 0.930 . S
H403 C416 0.930 . S
H404 C420 0.959 . S
H405 C420 0.959 . S
H406 C420 0.961 . S
H407 C421 0.960 . S
H408 C421 0.961 . S
H409 C421 0.959 . S
H410 C424 0.929 . S
H411 C425 0.931 . S
H412 C427 0.930 . S
C413 H401 0.930 . S
C413 C414 1.399 . S
C413 C418 1.399 . S
C414 C413 1.399 . S
C414 C415 1.376 . S
C415 H402 0.930 . S
C415 C414 1.376 . S
C415 C416 1.388 . S
C416 H403 0.930 . S
C416 C415 1.388 . S
C416 C417 1.390 . S
C417 C416 1.390 . S
C417 C418 1.394 . S
C417 C423 1.465 . S
C418 C413 1.399 . S
C418 C417 1.394 . S
C418 C419 1.516 . S
C419 C418 1.516 . S
C419 C420 1.502 . S
C419 C421 1.561 . S
C419 C422 1.526 . S
C420 H404 0.959 . S
C420 H405 0.959 . S
C420 H406 0.961 . S
C420 C419 1.502 . S
C421 H407 0.960 . S
C421 H408 0.961 . S
C421 H409 0.959 . S
C421 C419 1.561 . S
C422 C419 1.526 . S
C422 C423 1.396 . S
C422 C427 1.390 . S
C423 C417 1.465 . S
C423 C422 1.396 . S
C423 C424 1.399 . S
C424 H410 0.929 . S
C424 C423 1.399 . S
C424 C425 1.385 . S
C425 H411 0.931 . S
C425 C424 1.385 . S
C425 C426 1.389 . S
C426 C425 1.389 . S
C426 C427 1.387 . S
C427 H412 0.930 . S
C427 C422 1.390 . S
C427 C426 1.387 . S
H428 C440 0.930 . S
H429 C442 0.930 . S
H430 C443 0.930 . S
H431 C447 0.959 . S
H432 C447 0.959 . S
H433 C447 0.961 . S
H434 C448 0.960 . S
H435 C448 0.961 . S
H436 C448 0.959 . S
H437 C451 0.929 . S
H438 C452 0.931 . S
H439 C454 0.930 . S
C440 H428 0.930 . S
C440 C441 1.399 . S
C440 C445 1.399 . S
C441 C440 1.399 . S
C441 C442 1.376 . S
C442 H429 0.930 . S
C442 C441 1.376 . S
C442 C443 1.388 . S
C443 H430 0.930 . S
C443 C442 1.388 . S
C443 C444 1.390 . S
C444 C443 1.390 . S
C444 C445 1.394 . S
C444 C450 1.465 . S
C445 C440 1.399 . S
C445 C444 1.394 . S
C445 C446 1.516 . S
C446 C445 1.516 . S
C446 C447 1.502 . S
C446 C448 1.561 . S
C446 C449 1.526 . S
C447 H431 0.959 . S
C447 H432 0.959 . S
C447 H433 0.961 . S
C447 C446 1.502 . S
C448 H434 0.960 . S
C448 H435 0.961 . S
C448 H436 0.959 . S
C448 C446 1.561 . S
C449 C446 1.526 . S
C449 C450 1.396 . S
C449 C454 1.390 . S
C450 C444 1.465 . S
C450 C449 1.396 . S
C450 C451 1.399 . S
C451 H437 0.929 . S
C451 C450 1.399 . S
C451 C452 1.385 . S
C452 H438 0.931 . S
C452 C451 1.385 . S
C452 C453 1.389 . S
C453 C452 1.389 . S
C453 C454 1.387 . S
C454 H439 0.930 . S
C454 C449 1.390 . S
C454 C453 1.387 . S
H455 C467 0.930 . S
H456 C469 0.930 1_554 S
H457 C470 0.930 . S
H458 C474 0.959 . S
H459 C474 0.959 . S
H460 C474 0.961 . S
H461 C475 0.960 . S
H462 C475 0.961 . S
H463 C475 0.959 . S
H464 C478 0.929 . S
H465 C479 0.931 . S
H466 C481 0.930 . S
C467 H455 0.930 . S
C467 C468 1.399 . S
C467 C472 1.399 . S
C468 C467 1.399 . S
C468 C469 1.376 . S
C469 H456 0.930 1_556 S
C469 C468 1.376 . S
C469 C470 1.388 . S
C470 H457 0.930 . S
C470 C469 1.388 . S
C470 C471 1.390 . S
C471 C470 1.390 . S
C471 C472 1.394 . S
C471 C477 1.465 . S
C472 C467 1.399 . S
C472 C471 1.394 . S
C472 C473 1.516 . S
C473 C472 1.516 . S
C473 C474 1.502 . S
C473 C475 1.561 . S
C473 C476 1.526 . S
C474 H458 0.959 . S
C474 H459 0.959 . S
C474 H460 0.961 . S
C474 C473 1.502 . S
C475 H461 0.960 . S
C475 H462 0.961 . S
C475 H463 0.959 . S
C475 C473 1.561 . S
C476 C473 1.526 . S
C476 C477 1.396 . S
C476 C481 1.390 . S
C477 C471 1.465 . S
C477 C476 1.396 . S
C477 C478 1.399 . S
C478 H464 0.929 . S
C478 C477 1.399 . S
C478 C479 1.385 . S
C479 H465 0.931 . S
C479 C478 1.385 . S
C479 C480 1.389 . S
C480 C479 1.389 . S
C480 C481 1.387 . S
C481 H466 0.930 . S
C481 C476 1.390 . S
C481 C480 1.387 . S
H482 C494 0.930 . S
H483 C496 0.930 . S
H484 C497 0.930 . S
H485 C501 0.959 . S
H486 C501 0.959 . S
H487 C501 0.961 . S
H488 C502 0.960 . S
H489 C502 0.961 . S
H490 C502 0.959 . S
H491 C505 0.929 . S
H492 C506 0.931 . S
H493 C508 0.930 . S
C494 H482 0.930 . S
C494 C495 1.399 . S
C494 C499 1.399 . S
C495 C494 1.399 . S
C495 C496 1.376 . S
C496 H483 0.930 . S
C496 C495 1.376 . S
C496 C497 1.388 . S
C497 H484 0.930 . S
C497 C496 1.388 . S
C497 C498 1.390 . S
C498 C497 1.390 . S
C498 C499 1.394 . S
C498 C504 1.465 . S
C499 C494 1.399 . S
C499 C498 1.394 . S
C499 C500 1.516 . S
C500 C499 1.516 . S
C500 C501 1.502 . S
C500 C502 1.561 . S
C500 C503 1.526 . S
C501 H485 0.959 . S
C501 H486 0.959 . S
C501 H487 0.961 . S
C501 C500 1.502 . S
C502 H488 0.960 . S
C502 H489 0.961 . S
C502 H490 0.959 . S
C502 C500 1.561 . S
C503 C500 1.526 . S
C503 C504 1.396 . S
C503 C508 1.390 . S
C504 C498 1.465 . S
C504 C503 1.396 . S
C504 C505 1.399 . S
C505 H491 0.929 . S
C505 C504 1.399 . S
C505 C506 1.385 . S
C506 H492 0.931 . S
C506 C505 1.385 . S
C506 C507 1.389 . S
C507 C506 1.389 . S
C507 C508 1.387 . S
C508 H493 0.930 . S
C508 C503 1.390 . S
C508 C507 1.387 . S
H509 C521 0.930 . S
H510 C523 0.930 . S
H511 C524 0.930 . S
H512 C528 0.959 . S
H513 C528 0.959 . S
H514 C528 0.961 . S
H515 C529 0.960 . S
H516 C529 0.961 . S
H517 C529 0.959 . S
H518 C532 0.924 1_545 S
H519 C533 0.931 1_545 S
H520 C535 0.930 . S
C521 H509 0.930 . S
C521 C522 1.399 . S
C521 C526 1.399 . S
C522 C521 1.399 . S
C522 C523 1.376 . S
C523 H510 0.930 . S
C523 C522 1.376 . S
C523 C524 1.388 . S
C524 H511 0.930 . S
C524 C523 1.388 . S
C524 C525 1.390 . S
C525 C524 1.390 . S
C525 C526 1.394 . S
C525 C531 1.465 . S
C526 C521 1.399 . S
C526 C525 1.394 . S
C526 C527 1.516 . S
C527 C526 1.516 . S
C527 C528 1.502 . S
C527 C529 1.561 . S
C527 C530 1.526 . S
C528 H512 0.959 . S
C528 H513 0.959 . S
C528 H514 0.961 . S
C528 C527 1.502 . S
C529 H515 0.960 . S
C529 H516 0.961 . S
C529 H517 0.959 . S
C529 C527 1.561 . S
C530 C527 1.526 . S
C530 C531 1.396 . S
C530 C535 1.390 . S
C531 C525 1.465 . S
C531 C530 1.396 . S
C531 C532 1.399 . S
C532 H518 0.924 1_565 S
C532 C531 1.399 . S
C532 C533 1.385 . S
C533 H519 0.931 1_565 S
C533 C532 1.385 . S
C533 C534 1.389 . S
C534 C533 1.389 . S
C534 C535 1.387 . S
C535 H520 0.930 . S
C535 C530 1.390 . S
C535 C534 1.387 . S
C237 C107 1.603 . S
C225 C41 1.634 . S
C252 C8 1.628 . S
C264 C202 1.617 . S
C279 C19 1.754 . S
C291 C118 1.766 . S
C306 C30 1.594 . S
C318 C191 1.634 . S
C345 C102 1.408 . S
C333 C5 1.517 . S
C372 C195 1.800 . S
C360 C18 1.769 . S
C387 C29 1.561 . S
C399 C111 1.699 . S
C414 C40 1.592 . S
C426 C186 1.550 . S
C453 C197 1.330 . S
C441 C16 1.237 . S
C480 C113 1.326 . S
C468 C27 1.213 1_556 S
C507 C184 1.543 . S
C495 C38 1.285 . S
C522 C7 1.500 . S
C534 C100 1.510 . S
