# Generated by pormake.
# Topology ocu, (6,8)-cn, num edge types: 1
# Building blocks:
#     Node 0, Type 0, BuildingBlock: FUNLAD_clean_sbu_0, # of connection points: 6
#     Node 1, Type 0, BuildingBlock: FUNLAD_clean_sbu_0, # of connection points: 6
#     Node 2, Type 0, BuildingBlock: FUNLAD_clean_sbu_0, # of connection points: 6
#     Node 3, Type 0, BuildingBlock: FUNLAD_clean_sbu_0, # of connection points: 6
#     Node 4, Type 0, BuildingBlock: FUNLAD_clean_sbu_0, # of connection points: 6
#     Node 5, Type 0, BuildingBlock: FUNLAD_clean_sbu_0, # of connection points: 6
#     Node 6, Type 0, BuildingBlock: FUNLAD_clean_sbu_0, # of connection points: 6
#     Node 7, Type 0, BuildingBlock: FUNLAD_clean_sbu_0, # of connection points: 6
#     Node 8, Type 1, BuildingBlock: VETTIZ_charged_sbu_0, # of connection points: 8
#     Node 9, Type 1, BuildingBlock: VETTIZ_charged_sbu_0, # of connection points: 8
#     Node 10, Type 1, BuildingBlock: VETTIZ_charged_sbu_0, # of connection points: 8
#     Node 11, Type 1, BuildingBlock: VETTIZ_charged_sbu_0, # of connection points: 8
#     Node 12, Type 1, BuildingBlock: VETTIZ_charged_sbu_0, # of connection points: 8
#     Node 13, Type 1, BuildingBlock: VETTIZ_charged_sbu_0, # of connection points: 8
#     Edge 14, Type (0, 1), BuildingBlock: KIFKEQ_clean_linker_1, # of connection points: 2
#     Edge 15, Type (0, 1), BuildingBlock: KIFKEQ_clean_linker_1, # of connection points: 2
#     Edge 16, Type (0, 1), BuildingBlock: KIFKEQ_clean_linker_1, # of connection points: 2
#     Edge 17, Type (0, 1), BuildingBlock: KIFKEQ_clean_linker_1, # of connection points: 2
#     Edge 18, Type (0, 1), BuildingBlock: KIFKEQ_clean_linker_1, # of connection points: 2
#     Edge 19, Type (0, 1), BuildingBlock: KIFKEQ_clean_linker_1, # of connection points: 2
#     Edge 20, Type (0, 1), BuildingBlock: KIFKEQ_clean_linker_1, # of connection points: 2
#     Edge 21, Type (0, 1), BuildingBlock: KIFKEQ_clean_linker_1, # of connection points: 2
#     Edge 22, Type (0, 1), BuildingBlock: KIFKEQ_clean_linker_1, # of connection points: 2
#     Edge 23, Type (0, 1), BuildingBlock: KIFKEQ_clean_linker_1, # of connection points: 2
#     Edge 24, Type (0, 1), BuildingBlock: KIFKEQ_clean_linker_1, # of connection points: 2
#     Edge 25, Type (0, 1), BuildingBlock: KIFKEQ_clean_linker_1, # of connection points: 2
#     Edge 26, Type (0, 1), BuildingBlock: KIFKEQ_clean_linker_1, # of connection points: 2
#     Edge 27, Type (0, 1), BuildingBlock: KIFKEQ_clean_linker_1, # of connection points: 2
#     Edge 28, Type (0, 1), BuildingBlock: KIFKEQ_clean_linker_1, # of connection points: 2
#     Edge 29, Type (0, 1), BuildingBlock: KIFKEQ_clean_linker_1, # of connection points: 2
#     Edge 30, Type (0, 1), BuildingBlock: KIFKEQ_clean_linker_1, # of connection points: 2
#     Edge 31, Type (0, 1), BuildingBlock: KIFKEQ_clean_linker_1, # of connection points: 2
#     Edge 32, Type (0, 1), BuildingBlock: KIFKEQ_clean_linker_1, # of connection points: 2
#     Edge 33, Type (0, 1), BuildingBlock: KIFKEQ_clean_linker_1, # of connection points: 2
#     Edge 34, Type (0, 1), BuildingBlock: KIFKEQ_clean_linker_1, # of connection points: 2
#     Edge 35, Type (0, 1), BuildingBlock: KIFKEQ_clean_linker_1, # of connection points: 2
#     Edge 36, Type (0, 1), BuildingBlock: KIFKEQ_clean_linker_1, # of connection points: 2
#     Edge 37, Type (0, 1), BuildingBlock: KIFKEQ_clean_linker_1, # of connection points: 2
#     Edge 38, Type (0, 1), BuildingBlock: KIFKEQ_clean_linker_1, # of connection points: 2
#     Edge 39, Type (0, 1), BuildingBlock: KIFKEQ_clean_linker_1, # of connection points: 2
#     Edge 40, Type (0, 1), BuildingBlock: KIFKEQ_clean_linker_1, # of connection points: 2
#     Edge 41, Type (0, 1), BuildingBlock: KIFKEQ_clean_linker_1, # of connection points: 2
#     Edge 42, Type (0, 1), BuildingBlock: KIFKEQ_clean_linker_1, # of connection points: 2
#     Edge 43, Type (0, 1), BuildingBlock: KIFKEQ_clean_linker_1, # of connection points: 2
#     Edge 44, Type (0, 1), BuildingBlock: KIFKEQ_clean_linker_1, # of connection points: 2
#     Edge 45, Type (0, 1), BuildingBlock: KIFKEQ_clean_linker_1, # of connection points: 2
#     Edge 46, Type (0, 1), BuildingBlock: KIFKEQ_clean_linker_1, # of connection points: 2
#     Edge 47, Type (0, 1), BuildingBlock: KIFKEQ_clean_linker_1, # of connection points: 2
#     Edge 48, Type (0, 1), BuildingBlock: KIFKEQ_clean_linker_1, # of connection points: 2
#     Edge 49, Type (0, 1), BuildingBlock: KIFKEQ_clean_linker_1, # of connection points: 2
#     Edge 50, Type (0, 1), BuildingBlock: KIFKEQ_clean_linker_1, # of connection points: 2
#     Edge 51, Type (0, 1), BuildingBlock: KIFKEQ_clean_linker_1, # of connection points: 2
#     Edge 52, Type (0, 1), BuildingBlock: KIFKEQ_clean_linker_1, # of connection points: 2
#     Edge 53, Type (0, 1), BuildingBlock: KIFKEQ_clean_linker_1, # of connection points: 2
#     Edge 54, Type (0, 1), BuildingBlock: KIFKEQ_clean_linker_1, # of connection points: 2
#     Edge 55, Type (0, 1), BuildingBlock: KIFKEQ_clean_linker_1, # of connection points: 2
#     Edge 56, Type (0, 1), BuildingBlock: KIFKEQ_clean_linker_1, # of connection points: 2
#     Edge 57, Type (0, 1), BuildingBlock: KIFKEQ_clean_linker_1, # of connection points: 2
#     Edge 58, Type (0, 1), BuildingBlock: KIFKEQ_clean_linker_1, # of connection points: 2
#     Edge 59, Type (0, 1), BuildingBlock: KIFKEQ_clean_linker_1, # of connection points: 2
#     Edge 60, Type (0, 1), BuildingBlock: KIFKEQ_clean_linker_1, # of connection points: 2
#     Edge 61, Type (0, 1), BuildingBlock: KIFKEQ_clean_linker_1, # of connection points: 2
# Relax obj value: 0.148
# Max RMSD: 0.260
# Mean RMSD: 0.155
data_MOF--net-ocu--node1-FUNLAD_clean_sbu_0--node2-VETTIZ_charged_sbu_0--edge1-KIFKEQ_clean_linker_1
_symmetry_space_group_name_H-M    P1
_symmetry_Int_Tables_number       1
_symmetry_cell_setting            triclinic
loop_
_symmetry_equiv_pos_as_xyz
'x, y, z'
_cell_length_a     39.401793
_cell_length_b     39.525013
_cell_length_c     39.511829
_cell_angle_alpha  84.423552
_cell_angle_beta   84.552838
_cell_angle_gamma 81.68387
loop_
_atom_site_label
_atom_site_type_symbol
_atom_site_fract_x
_atom_site_fract_y
_atom_site_fract_z
_atom_type_partial_charge
C0 C 0.20895 0.26842 0.31025 0.0
N1 N 0.20111 0.18262 0.25795 0.0
C2 C 0.18826 0.1681 0.2881 0.0
C3 C 0.16498 0.1448 0.28839 0.0
C4 C 0.15501 0.13645 0.25742 0.0
C5 C 0.16898 0.15112 0.22663 0.0
C6 C 0.19222 0.17448 0.22751 0.0
Zn7 Zn 0.2326 0.21861 0.25813 0.0
C8 C 0.20911 0.2803 0.21154 0.0
N9 N 0.29752 0.2953 0.25353 0.0
C10 C 0.30826 0.30683 0.28159 0.0
C11 C 0.30542 0.30953 0.22159 0.0
C12 C 0.324 0.33698 0.21684 0.0
C13 C 0.33462 0.34999 0.24518 0.0
C14 C 0.32726 0.3345 0.27793 0.0
Zn15 Zn 0.26663 0.25838 0.25605 0.0
O16 O 0.20032 0.24262 0.29799 0.0
C17 C 0.29019 0.1979 0.30319 0.0
O18 O 0.23627 0.28014 0.29774 0.0
H19 H 0.2966 0.30007 0.19968 0.0
H20 H 0.19573 0.175 0.31188 0.0
H21 H 0.30154 0.29505 0.30673 0.0
O22 O 0.26292 0.18769 0.29538 0.0
O23 O 0.29797 0.22665 0.28988 0.0
H24 H 0.20278 0.18648 0.20385 0.0
O25 O 0.29739 0.2356 0.2141 0.0
O26 O 0.26519 0.19438 0.21949 0.0
O27 O 0.23465 0.29059 0.22258 0.0
O28 O 0.20266 0.25009 0.221 0.0
C29 C 0.29108 0.2073 0.20515 0.0
H30 H 0.15452 0.13357 0.31257 0.0
H31 H 0.16167 0.14499 0.20244 0.0
H32 H 0.32968 0.34835 0.19121 0.0
H33 H 0.3354 0.34408 0.30018 0.0
C34 C 0.6991 0.30799 0.24145 0.0
N35 N 0.73703 0.21199 0.2082 0.0
C36 C 0.70264 0.20998 0.21267 0.0
C37 C 0.6876 0.18981 0.19318 0.0
C38 C 0.70776 0.17146 0.16821 0.0
C39 C 0.74311 0.1744 0.16312 0.0
C40 C 0.75742 0.1948 0.18381 0.0
Zn41 Zn 0.75245 0.2428 0.2416 0.0
C42 C 0.79827 0.29188 0.21363 0.0
N43 N 0.76722 0.30938 0.31558 0.0
C44 C 0.74373 0.3297 0.33495 0.0
C45 C 0.80162 0.3094 0.31687 0.0
C46 C 0.81365 0.32997 0.33833 0.0
C47 C 0.79017 0.35128 0.35828 0.0
C48 C 0.75479 0.35131 0.35655 0.0
Zn49 Zn 0.75404 0.27863 0.28155 0.0
O50 O 0.71059 0.28017 0.22818 0.0
C51 C 0.7104 0.2283 0.31053 0.0
O52 O 0.71352 0.31614 0.26629 0.0
H53 H 0.81997 0.29375 0.30083 0.0
H54 H 0.68642 0.22412 0.23157 0.0
H55 H 0.71652 0.32947 0.33335 0.0
O56 O 0.72092 0.21879 0.28109 0.0
O57 O 0.71926 0.25565 0.31937 0.0
H58 H 0.78464 0.19683 0.18043 0.0
O59 O 0.79426 0.24056 0.29626 0.0
O60 O 0.79432 0.20603 0.25585 0.0
O61 O 0.78889 0.30067 0.24363 0.0
O62 O 0.78573 0.26714 0.20319 0.0
C63 C 0.80698 0.21349 0.28219 0.0
H64 H 0.66015 0.18893 0.19739 0.0
H65 H 0.75944 0.16072 0.14385 0.0
H66 H 0.84114 0.32976 0.33887 0.0
H67 H 0.73611 0.36778 0.37161 0.0
C68 C 0.79435 0.70069 0.30179 0.0
N69 N 0.81849 0.79917 0.28965 0.0
C70 C 0.81459 0.79443 0.32432 0.0
C71 C 0.83843 0.80372 0.34404 0.0
C72 C 0.86708 0.81788 0.32825 0.0
C73 C 0.86994 0.82422 0.29252 0.0
C74 C 0.84523 0.81432 0.27349 0.0
Zn75 Zn 0.78701 0.77378 0.2657 0.0
C76 C 0.8216 0.73688 0.20949 0.0
N77 N 0.72199 0.71133 0.22721 0.0
C78 C 0.70268 0.68772 0.24337 0.0
C79 C 0.72341 0.71786 0.19267 0.0
C80 C 0.7056 0.70031 0.17297 0.0
C81 C 0.68617 0.67518 0.18858 0.0
C82 C 0.68437 0.66925 0.2244 0.0
Zn83 Zn 0.75218 0.73873 0.25104 0.0
O84 O 0.80375 0.73027 0.29822 0.0
C85 C 0.71782 0.77616 0.30769 0.0
O86 O 0.77125 0.69441 0.28374 0.0
H87 H 0.73889 0.73652 0.18 0.0
H88 H 0.79395 0.78155 0.33701 0.0
H89 H 0.7019 0.68281 0.27083 0.0
O90 O 0.7461 0.78829 0.30175 0.0
O91 O 0.71155 0.7532 0.28952 0.0
H92 H 0.84825 0.81735 0.24591 0.0
O93 O 0.73462 0.78323 0.21896 0.0
O94 O 0.76938 0.81761 0.23271 0.0
O95 O 0.79292 0.72531 0.21353 0.0
O96 O 0.82768 0.75857 0.22902 0.0
C97 C 0.74544 0.81227 0.2152 0.0
H98 H 0.83474 0.7992 0.37154 0.0
H99 H 0.89163 0.83539 0.27946 0.0
H100 H 0.70723 0.70633 0.14558 0.0
H101 H 0.66977 0.64998 0.2375 0.0
C102 C 0.1977 0.81473 0.28408 0.0
N103 N 0.2956 0.77704 0.31234 0.0
C104 C 0.29338 0.81145 0.31473 0.0
C105 C 0.31165 0.82428 0.33774 0.0
C106 C 0.33327 0.80176 0.35837 0.0
C107 C 0.33602 0.7663 0.35518 0.0
C108 C 0.31647 0.75433 0.332 0.0
Zn109 Zn 0.2654 0.76481 0.2767 0.0
C110 C 0.21694 0.71659 0.3015 0.0
N111 N 0.19808 0.75487 0.2013 0.0
C112 C 0.16606 0.74665 0.21136 0.0
C113 C 0.21362 0.74795 0.17 0.0
C114 C 0.19842 0.72918 0.14888 0.0
C115 C 0.16685 0.71758 0.15999 0.0
C116 C 0.14983 0.72796 0.19092 0.0
Zn117 Zn 0.22828 0.76605 0.23715 0.0
O118 O 0.22626 0.80173 0.29519 0.0
C119 C 0.27602 0.81502 0.21266 0.0
O120 O 0.18909 0.80472 0.25684 0.0
H121 H 0.23914 0.75451 0.16252 0.0
H122 H 0.2775 0.82941 0.29849 0.0
H123 H 0.15427 0.75208 0.23645 0.0
O124 O 0.2864 0.80288 0.24146 0.0
O125 O 0.25018 0.80419 0.20241 0.0
H126 H 0.31814 0.7271 0.32957 0.0
O127 O 0.26788 0.72787 0.21849 0.0
O128 O 0.30451 0.72711 0.25715 0.0
O129 O 0.20718 0.72826 0.27231 0.0
O130 O 0.24316 0.72689 0.31168 0.0
C131 C 0.29682 0.71631 0.22992 0.0
H132 H 0.30952 0.85182 0.33872 0.0
H133 H 0.35284 0.7482 0.3705 0.0
H134 H 0.21212 0.72222 0.12493 0.0
H135 H 0.12551 0.71949 0.20049 0.0
C136 C 0.20821 0.79809 0.72976 0.0
N137 N 0.24481 0.70084 0.69707 0.0
C138 C 0.21027 0.70246 0.69526 0.0
C139 C 0.19741 0.68227 0.67397 0.0
C140 C 0.22016 0.65947 0.65489 0.0
C141 C 0.25567 0.65765 0.65732 0.0
C142 C 0.2676 0.67906 0.67854 0.0
Zn143 Zn 0.25939 0.73119 0.73081 0.0
C144 C 0.30421 0.78016 0.70123 0.0
N145 N 0.27939 0.79719 0.80367 0.0
C146 C 0.26034 0.81441 0.82886 0.0
C147 C 0.31414 0.79695 0.7992 0.0
C148 C 0.33116 0.81334 0.82056 0.0
C149 C 0.31265 0.83042 0.84731 0.0
C150 C 0.2766 0.83157 0.85107 0.0
Zn151 Zn 0.26206 0.76738 0.77029 0.0
O152 O 0.22008 0.77051 0.71615 0.0
C153 C 0.2153 0.71944 0.79905 0.0
O154 O 0.22112 0.80539 0.75605 0.0
H155 H 0.32926 0.78324 0.77933 0.0
H156 H 0.19241 0.71907 0.71082 0.0
H157 H 0.23278 0.81433 0.83217 0.0
O158 O 0.22417 0.71029 0.76909 0.0
O159 O 0.22836 0.74411 0.80901 0.0
H160 H 0.29493 0.67794 0.68056 0.0
O161 O 0.30287 0.72878 0.78359 0.0
O162 O 0.29911 0.69256 0.74601 0.0
O163 O 0.29402 0.79016 0.73054 0.0
O164 O 0.29468 0.75298 0.69271 0.0
C165 C 0.31374 0.70063 0.77074 0.0
H166 H 0.16982 0.68383 0.67304 0.0
H167 H 0.27382 0.64002 0.64299 0.0
H168 H 0.35886 0.81231 0.81633 0.0
H169 H 0.26142 0.84459 0.87146 0.0
C170 C 0.2757 0.19654 0.79983 0.0
N171 N 0.29729 0.29747 0.78209 0.0
C172 C 0.2985 0.29091 0.81647 0.0
C173 C 0.31818 0.30833 0.83436 0.0
C174 C 0.3368 0.33326 0.81705 0.0
C175 C 0.33501 0.34003 0.78157 0.0
C176 C 0.31509 0.32153 0.7644 0.0
Zn177 Zn 0.26602 0.26916 0.76102 0.0
C178 C 0.29898 0.22882 0.70646 0.0
N179 N 0.19873 0.20562 0.72977 0.0
C180 C 0.1699 0.19469 0.74655 0.0
C181 C 0.2037 0.20679 0.69511 0.0
C182 C 0.17885 0.19861 0.67597 0.0
C183 C 0.14787 0.18976 0.69221 0.0
C184 C 0.14392 0.18639 0.72806 0.0
Zn185 Zn 0.23092 0.23242 0.7514 0.0
O186 O 0.28629 0.22544 0.79219 0.0
C187 C 0.19812 0.27193 0.80605 0.0
O188 O 0.24912 0.1904 0.78671 0.0
H189 H 0.22568 0.21679 0.68162 0.0
H190 H 0.28376 0.27228 0.83041 0.0
H191 H 0.16598 0.1945 0.77403 0.0
O192 O 0.22704 0.28296 0.80052 0.0
O193 O 0.19094 0.24976 0.78766 0.0
H194 H 0.31367 0.32652 0.73713 0.0
O195 O 0.2135 0.27432 0.71653 0.0
O196 O 0.24474 0.31234 0.7288 0.0
O197 O 0.27174 0.21561 0.71578 0.0
O198 O 0.3048 0.25456 0.72099 0.0
C199 C 0.22171 0.3044 0.71166 0.0
H200 H 0.31812 0.30286 0.86177 0.0
H201 H 0.34897 0.35921 0.76731 0.0
H202 H 0.18332 0.2007 0.6484 0.0
H203 H 0.12038 0.17929 0.74148 0.0
C204 C 0.7149 0.29453 0.7831 0.0
N205 N 0.81359 0.26451 0.8144 0.0
C206 C 0.81203 0.29931 0.81102 0.0
C207 C 0.8306 0.31583 0.83079 0.0
C208 C 0.85098 0.29669 0.85485 0.0
C209 C 0.85161 0.26085 0.859 0.0
C210 C 0.83271 0.24506 0.83805 0.0
Zn211 Zn 0.78527 0.24716 0.78015 0.0
C212 C 0.73959 0.19717 0.8069 0.0
N213 N 0.72165 0.22806 0.705 0.0
C214 C 0.70067 0.24952 0.6844 0.0
C215 C 0.72516 0.19343 0.70365 0.0
C216 C 0.7078 0.17909 0.68087 0.0
C217 C 0.68595 0.20036 0.65939 0.0
C218 C 0.68217 0.23606 0.6614 0.0
Zn219 Zn 0.74978 0.24395 0.74017 0.0
O220 O 0.74388 0.28506 0.79511 0.0
C221 C 0.79705 0.29193 0.71215 0.0
O222 O 0.70817 0.28123 0.75688 0.0
H223 H 0.74128 0.17657 0.72058 0.0
H224 H 0.79643 0.31466 0.79261 0.0
H225 H 0.69811 0.27696 0.68597 0.0
O226 O 0.80688 0.28185 0.7416 0.0
O227 O 0.77045 0.28138 0.70319 0.0
H228 H 0.83351 0.21746 0.84049 0.0
O229 O 0.79144 0.20692 0.72478 0.0
O230 O 0.82603 0.20895 0.76484 0.0
O231 O 0.73035 0.20664 0.77705 0.0
O232 O 0.7636 0.21077 0.81758 0.0
C233 C 0.81951 0.19632 0.73817 0.0
H234 H 0.82895 0.34354 0.82731 0.0
H235 H 0.86701 0.24535 0.87758 0.0
H236 H 0.71075 0.15141 0.68076 0.0
H237 H 0.66528 0.25325 0.64535 0.0
C238 C 0.72752 0.79573 0.80885 0.0
N239 N 0.72042 0.70867 0.75958 0.0
C240 C 0.71162 0.69498 0.79151 0.0
C241 C 0.69039 0.66965 0.79625 0.0
C242 C 0.67806 0.6583 0.76791 0.0
C243 C 0.68746 0.67239 0.73509 0.0
C244 C 0.709 0.69795 0.73146 0.0
Zn245 Zn 0.75122 0.74555 0.75691 0.0
C246 C 0.72717 0.80567 0.71061 0.0
N247 N 0.81638 0.82152 0.75468 0.0
C248 C 0.82715 0.82961 0.78432 0.0
C249 C 0.82368 0.83934 0.7244 0.0
C250 C 0.84159 0.86723 0.72324 0.0
C251 C 0.85228 0.87665 0.75346 0.0
C252 C 0.84566 0.85722 0.78424 0.0
Zn253 Zn 0.78604 0.78451 0.75543 0.0
O254 O 0.71978 0.769 0.7977 0.0
C255 C 0.80962 0.72311 0.80149 0.0
O256 O 0.75477 0.80736 0.79621 0.0
H257 H 0.81503 0.83228 0.70122 0.0
H258 H 0.721 0.70383 0.81346 0.0
H259 H 0.82081 0.81508 0.80813 0.0
O260 O 0.7827 0.71427 0.79166 0.0
O261 O 0.81784 0.75242 0.79067 0.0
H262 H 0.71647 0.70931 0.70633 0.0
O263 O 0.81712 0.76189 0.71399 0.0
O264 O 0.78221 0.72314 0.71599 0.0
O265 O 0.7537 0.81614 0.7198 0.0
O266 O 0.72011 0.77623 0.72234 0.0
C267 C 0.80887 0.73549 0.70251 0.0
H268 H 0.68342 0.65906 0.8219 0.0
H269 H 0.67812 0.66396 0.71284 0.0
H270 H 0.84702 0.88144 0.69892 0.0
H271 H 0.85395 0.86378 0.80784 0.0
Fe272 Fe 0.99916 0.04773 0.4979 0.0
O273 O 0.97606 0.00641 0.49698 0.0
Fe274 Fe 0.08517 0.01407 0.50435 0.0
Fe275 Fe 0.9275 0.00636 0.51257 0.0
O276 O 0.03601 0.01534 0.51986 0.0
O277 O 0.03682 0.01205 0.52003 0.0
O278 O 0.97685 1.00325 0.49709 0.0
Fe279 Fe 0.01418 0.97044 0.51805 0.0
C280 C 0.94334 0.06317 0.5524 0.0
O281 O 0.95802 0.07579 0.47261 0.0
O282 O 0.92162 0.03606 0.46735 0.0
O283 O 0.0375 0.96217 0.46999 0.0
O284 O 0.09054 0.97031 0.47879 0.0
O285 O 0.07646 0.04246 0.45871 0.0
O286 O 0.02213 0.03888 0.45048 0.0
O287 O 0.93419 0.95888 0.49365 0.0
O288 O 0.98551 0.93079 0.51259 0.0
C289 C 0.0529 0.04129 0.43909 0.0
O290 O 0.05593 0.94195 0.54191 0.0
O291 O 0.09222 0.9816 0.54792 0.0
O292 O 0.97563 0.05745 0.54536 0.0
O293 O 0.92253 0.05227 0.53469 0.0
C294 C 0.93399 0.06459 0.45787 0.0
C295 C 0.95681 0.93185 0.49834 0.0
C296 C 0.96083 0.97831 0.57826 0.0
O297 O 0.93545 0.98143 0.55995 0.0
O298 O 0.99185 0.97737 0.56606 0.0
C299 C 0.06955 0.95975 0.46095 0.0
O300 O 0.07727 0.06005 0.52607 0.0
O301 O 0.0277 0.08754 0.50303 0.0
C302 C 0.0804 0.95261 0.55643 0.0
C303 C 0.05461 0.08677 0.52002 0.0
Fe304 Fe 0.5167 0.92677 0.04145 0.0
O305 O 0.51361 0.9767 0.03258 0.0
Fe306 Fe 0.47001 1.00298 0.00977 0.0
Fe307 Fe 0.55025 1.00029 1.00526 0.0
O308 O 0.50989 0.97701 0.03319 0.0
O309 O 0.5067 0.02683 0.98256 0.0
O310 O 0.51046 0.02664 0.98211 0.0
Fe311 Fe 0.50431 0.07702 0.9747 0.0
C312 C 0.5827 0.94865 0.062 0.0
O313 O 0.55575 0.91683 1.00352 0.0
O314 O 0.55704 0.965 0.96927 0.0
O315 O 0.46562 0.07005 0.9452 0.0
O316 O 0.43333 0.03389 0.98003 0.0
O317 O 0.47428 0.96776 0.97409 0.0
O318 O 0.48107 0.91967 0.00837 0.0
O319 O 0.58345 0.02979 0.9726 0.0
O320 O 0.54622 0.06676 0.93991 0.0
C321 C 0.47005 0.93653 0.98151 0.0
O322 O 0.46579 0.08703 0.01307 0.0
O323 O 0.46287 0.03802 0.04576 0.0
O324 O 0.55504 0.93453 0.07121 0.0
O325 O 0.58704 0.96943 0.03462 0.0
C326 C 0.56451 0.93263 0.97507 0.0
C327 C 0.57693 0.05233 0.94665 0.0
C328 C 0.55102 0.06594 0.03436 0.0
O329 O 0.54586 0.03497 0.04124 0.0
O330 O 0.54057 0.08337 0.00757 0.0
C331 C 0.43809 0.05537 0.95322 0.0
O332 O 0.43697 0.97362 0.04269 0.0
O333 O 0.47433 0.93713 0.07574 0.0
C334 C 0.45628 0.07048 0.04077 0.0
C335 C 0.44359 0.95152 0.06898 0.0
Fe336 Fe 0.01127 0.5438 1.00416 0.0
O337 O 0.98391 0.51054 0.03225 0.0
Fe338 Fe 0.0869 0.49146 0.97972 0.0
Fe339 Fe 0.93356 0.51627 0.03798 0.0
O340 O 0.03632 0.50165 0.98437 0.0
O341 O 0.03664 0.49811 0.98576 0.0
O342 O 0.98422 0.50698 0.03365 0.0
Fe343 Fe 0.0094 0.46492 0.01394 0.0
C344 C 0.95857 0.58165 0.05603 0.0
O345 O 0.97795 0.55139 0.96592 0.0
O346 O 0.92772 0.55295 0.99736 0.0
O347 O 0.03919 0.42528 0.98791 0.0
O348 O 0.07784 0.45298 0.95125 0.0
O349 O 0.08127 0.53249 0.94312 0.0
O350 O 0.04446 0.57316 0.97166 0.0
O351 O 0.92662 0.47862 1.00689 0.0
O352 O 0.97662 0.47008 0.97618 0.0
C353 C 0.06801 0.56404 0.94736 0.0
O354 O 0.04289 0.45775 0.05193 0.0
O355 O 0.0923 0.4532 0.01915 0.0
O356 O 0.98131 0.58338 0.0299 0.0
O357 O 0.94169 0.55589 0.06555 0.0
C358 C 0.94549 0.56031 0.96967 0.0
C359 C 0.94523 0.46599 0.98175 0.0
C360 C 0.95278 0.44463 0.07109 0.0
O361 O 0.93976 0.47622 0.07542 0.0
O362 O 0.97624 0.43549 0.04668 0.0
C363 C 0.06126 0.42712 0.96122 0.0
O364 O 0.09448 0.52763 0.01201 0.0
O365 O 0.04416 0.53889 0.04209 0.0
C366 C 0.07476 0.44648 0.04713 0.0
C367 C 0.07619 0.54067 0.03715 0.0
Fe368 Fe 0.50618 0.49788 0.9691 0.0
O369 O 0.53092 0.47719 0.00948 0.0
Fe370 Fe 0.42989 0.54059 1.00512 0.0
Fe371 Fe 0.58153 0.46809 0.00801 0.0
O372 O 0.48008 0.53016 1.0013 0.0
O373 O 0.48056 0.53159 1.0041 0.0
O374 O 0.53135 0.47854 0.01223 0.0
Fe375 Fe 0.50487 0.51041 0.04467 0.0
C376 C 0.56005 0.43519 0.94859 0.0
O377 O 0.54051 0.53182 0.9579 0.0
O378 O 0.58958 0.49691 0.96192 0.0
O379 O 0.47321 0.54669 0.0739 0.0
O380 O 0.4375 0.57805 0.03568 0.0
O381 O 0.43934 0.56555 0.95738 0.0
O382 O 0.47742 0.52434 0.9304 0.0
O383 O 0.58873 0.50857 0.03462 0.0
O384 O 0.53983 0.54478 0.0361 0.0
C385 C 0.45563 0.55242 0.93048 0.0
O386 O 0.47029 0.4763 0.05511 0.0
O387 O 0.42169 0.51198 0.05108 0.0
O388 O 0.5374 0.46134 0.93988 0.0
O389 O 0.57377 0.43045 0.97768 0.0
C390 C 0.57154 0.5227 0.94752 0.0
C391 C 0.57169 0.53758 0.04071 0.0
C392 C 0.55572 0.45577 0.08288 0.0
O393 O 0.57233 0.44312 0.05586 0.0
O394 O 0.53339 0.48346 0.08327 0.0
C395 C 0.45082 0.57302 0.065 0.0
O396 O 0.42283 0.50012 0.97812 0.0
O397 O 0.47136 0.4637 0.97897 0.0
C398 C 0.43921 0.48571 0.06522 0.0
C399 C 0.43996 0.47094 0.9728 0.0
Fe400 Fe 1.00631 0.4625 0.51193 0.0
O401 O 0.98654 0.50508 0.53399 0.0
Fe402 Fe 0.0289 0.49432 0.42844 0.0
Fe403 Fe 0.98616 0.50879 0.58301 0.0
O404 O 0.02942 0.49489 0.47822 0.0
O405 O 0.02922 0.49842 0.47743 0.0
O406 O 0.98623 0.50861 0.53315 0.0
Fe407 Fe 0.00953 0.54103 0.4996 0.0
C408 C 0.95357 0.4451 0.57336 0.0
O409 O 0.04854 0.45529 0.54031 0.0
O410 O 0.0219 0.46569 0.59123 0.0
O411 O 0.03853 0.56908 0.46117 0.0
O412 O 0.06472 0.52809 0.42572 0.0
O413 O 0.06094 0.44903 0.43801 0.0
O414 O 0.03103 0.42189 0.48358 0.0
O415 O 0.02602 0.5381 0.58031 0.0
O416 O 0.05147 0.53543 0.52753 0.0
C417 C 0.05468 0.42224 0.45809 0.0
O418 O 0.9672 0.54837 0.47127 0.0
O419 O 0.99299 0.53716 0.42024 0.0
O420 O 0.97769 0.43431 0.55024 0.0
O421 O 0.94987 0.47526 0.58494 0.0
C422 C 0.0482 0.45348 0.57269 0.0
C423 C 0.05197 0.54051 0.55873 0.0
C424 C 0.96101 0.58121 0.55343 0.0
O425 O 0.95449 0.55436 0.57332 0.0
O426 O 0.98479 0.58158 0.52804 0.0
C427 C 0.06159 0.55832 0.43703 0.0
O428 O 0.9893 0.46468 0.43168 0.0
O429 O 0.96415 0.46813 0.48438 0.0
C430 C 0.96703 0.54972 0.43895 0.0
C431 C 0.9633 0.46301 0.45328 0.0
Fe432 Fe 0.51093 0.96289 0.5118 0.0
O433 O 0.48622 1.00381 0.5341 0.0
Fe434 Fe 0.53483 0.99782 0.43006 0.0
Fe435 Fe 0.48313 0.00749 0.58345 0.0
O436 O 0.53253 0.99791 0.48005 0.0
O437 O 0.53218 1.00144 0.47947 0.0
O438 O 0.48589 0.0073 0.53353 0.0
Fe439 Fe 0.50744 0.04235 0.50184 0.0
C440 C 0.45927 0.93962 0.57182 0.0
O441 O 0.55135 0.95862 0.54236 0.0
O442 O 0.52203 0.96757 0.59246 0.0
O443 O 0.53454 0.07375 0.46544 0.0
O444 O 0.56606 0.03569 0.42959 0.0
O445 O 0.56994 0.95469 0.43992 0.0
O446 O 0.5401 0.92457 0.48333 0.0
O447 O 0.51782 0.04201 0.58281 0.0
O448 O 0.54741 0.04074 0.53205 0.0
C449 C 0.56387 0.92665 0.45812 0.0
O450 O 0.46692 0.04651 0.47146 0.0
O451 O 0.49599 0.03776 0.42127 0.0
O452 O 0.48373 0.93151 0.54808 0.0
O453 O 0.45196 0.96964 0.58369 0.0
C454 C 0.54906 0.95551 0.57485 0.0
C455 C 0.5435 0.04903 0.56261 0.0
C456 C 0.45385 0.07852 0.55486 0.0
O457 O 0.44789 0.05053 0.57323 0.0
O458 O 0.47812 0.08069 0.53017 0.0
C459 C 0.55882 0.06571 0.4415 0.0
O460 O 0.50011 0.96322 0.43084 0.0
O461 O 0.47089 0.96463 0.4817 0.0
C462 C 0.46901 0.04965 0.439 0.0
C463 C 0.47471 0.95596 0.45129 0.0
H464 H 0.08624 0.15181 0.26774 0.0
H465 H 0.16742 0.06787 0.25249 0.0
H466 H 0.05108 0.11309 0.30109 0.0
H467 H 0.13193 0.02849 0.28534 0.0
H468 H 0.00874 0.05348 0.38823 0.0
H469 H 0.02428 0.06248 0.32689 0.0
H470 H 0.13195 0.04069 0.34559 0.0
H471 H 0.11663 0.03229 0.40604 0.0
C472 C 0.09547 0.12456 0.26952 0.0
C473 C 0.1296 0.1127 0.25862 0.0
C474 C 0.0753 0.1022 0.28858 0.0
C475 C 0.08955 0.06808 0.29714 0.0
C476 C 0.12081 0.05494 0.27983 0.0
C477 C 0.14111 0.0774 0.26096 0.0
C478 C 0.0357 0.05002 0.37902 0.0
C479 C 0.06157 0.04311 0.40194 0.0
C480 C 0.04451 0.05478 0.34393 0.0
C481 C 0.07926 0.05221 0.33132 0.0
C482 C 0.10488 0.04232 0.35421 0.0
C483 C 0.09614 0.03816 0.38909 0.0
H484 H 0.82437 0.14403 0.27888 0.0
H485 H 0.85121 0.23114 0.32347 0.0
H486 H 0.86169 0.10548 0.31639 0.0
H487 H 0.88751 0.19307 0.3611 0.0
H488 H 0.96053 0.11776 0.41957 0.0
H489 H 0.93756 0.15099 0.36946 0.0
H490 H 0.85342 0.09084 0.37782 0.0
H491 H 0.87651 0.05733 0.42724 0.0
C492 C 0.83888 0.15492 0.29604 0.0
C493 C 0.83454 0.19044 0.2987 0.0
C494 C 0.85997 0.13293 0.31769 0.0
C495 C 0.87713 0.14624 0.34206 0.0
C496 C 0.87487 0.18194 0.34256 0.0
C497 C 0.8538 0.20377 0.32115 0.0
C498 C 0.93711 0.11167 0.41073 0.0
C499 C 0.92009 0.08521 0.42775 0.0
C500 C 0.92408 0.13057 0.38191 0.0
C501 C 0.89374 0.12347 0.36961 0.0
C502 C 0.87721 0.09654 0.3862 0.0
C503 C 0.89025 0.0776 0.41487 0.0
H504 H 0.89638 0.87688 0.32491 0.0
H505 H 0.89551 0.77755 0.38104 0.0
H506 H 0.92737 0.89516 0.36938 0.0
H507 H 0.92564 0.79634 0.42573 0.0
H508 H 1.00468 0.88695 0.46492 0.0
H509 H 0.99261 0.85208 0.42028 0.0
H510 H 0.88388 0.87473 0.44873 0.0
H511 H 0.89564 0.91037 0.49215 0.0
C512 C 0.90389 0.8586 0.34602 0.0
C513 C 0.893 0.82608 0.34988 0.0
C514 C 0.92158 0.86902 0.37138 0.0
C515 C 0.92873 0.84698 0.40067 0.0
C516 C 0.92057 0.81352 0.40314 0.0
C517 C 0.90309 0.80302 0.37777 0.0
C518 C 0.97834 0.88358 0.46224 0.0
C519 C 0.95104 0.90183 0.4814 0.0
C520 C 0.9715 0.86382 0.43672 0.0
C521 C 0.93737 0.86142 0.4311 0.0
C522 C 0.91038 0.87656 0.4527 0.0
C523 C 0.91713 0.89672 0.47759 0.0
H524 H 0.21722 0.84648 0.33487 0.0
H525 H 0.12879 0.84154 0.27951 0.0
H526 H 0.18295 0.88445 0.37233 0.0
H527 H 0.09378 0.88167 0.31732 0.0
H528 H 0.04143 0.91529 0.42544 0.0
H529 H 0.06947 0.88413 0.37733 0.0
H530 H 0.15565 0.941 0.37441 0.0
H531 H 0.12918 0.96949 0.42372 0.0
C532 C 0.19038 0.85391 0.33029 0.0
C533 C 0.17579 0.84076 0.30409 0.0
C534 C 0.17066 0.8762 0.35177 0.0
C535 C 0.1356 0.88666 0.3477 0.0
C536 C 0.12076 0.87406 0.32116 0.0
C537 C 0.14078 0.85134 0.29938 0.0
C538 C 0.0664 0.92091 0.4145 0.0
C539 C 0.08363 0.94389 0.42918 0.0
C540 C 0.08227 0.90344 0.38662 0.0
C541 C 0.11527 0.90937 0.37252 0.0
C542 C 0.13082 0.93479 0.38536 0.0
C543 C 0.11555 0.95129 0.41364 0.0
H544 H 0.19233 0.86778 0.73292 0.0
H545 H 0.16435 0.78188 0.68719 0.0
H546 H 0.15599 0.90723 0.6952 0.0
H547 H 0.1291 0.82082 0.64934 0.0
H548 H 0.0552 0.89784 0.59316 0.0
H549 H 0.07934 0.863 0.64178 0.0
H550 H 0.16324 0.9234 0.63408 0.0
H551 H 0.1389 0.9586 0.58612 0.0
C552 C 0.17784 0.85735 0.71541 0.0
C553 C 0.18148 0.82186 0.71267 0.0
C554 C 0.15733 0.87986 0.69361 0.0
C555 C 0.14004 0.86715 0.66895 0.0
C556 C 0.14182 0.83153 0.66811 0.0
C557 C 0.16229 0.80918 0.68969 0.0
C558 C 0.07884 0.90364 0.60178 0.0
C559 C 0.09532 0.93077 0.58543 0.0
C560 C 0.09257 0.88377 0.62976 0.0
C561 C 0.12316 0.89049 0.64188 0.0
C562 C 0.1393 0.91793 0.62584 0.0
C563 C 0.12552 0.93787 0.59802 0.0
H564 H 0.1082 0.13756 0.69783 0.0
H565 H 0.12558 0.23179 0.63792 0.0
H566 H 0.07406 0.12356 0.6536 0.0
H567 H 0.09267 0.21709 0.59344 0.0
H568 H 0.10977 0.12054 0.5187 0.0
H569 H 0.12102 0.15591 0.56272 0.0
H570 H 0.01853 0.15089 0.61053 0.0
H571 H 1.00663 0.11703 0.5651 0.0
C572 C 0.10374 0.15577 0.67586 0.0
C573 C 0.12023 0.18525 0.67082 0.0
C574 C 0.0842 0.14783 0.65064 0.0
C575 C 0.08114 0.16924 0.6202 0.0
C576 C 0.0948 0.20027 0.61672 0.0
C577 C 0.11383 0.20842 0.64201 0.0
C578 C 0.08915 0.12852 0.53761 0.0
C579 C 0.05734 0.11643 0.53859 0.0
C580 C 0.09557 0.14853 0.56283 0.0
C581 C 0.07063 0.15579 0.58992 0.0
C582 C 0.038 0.14563 0.58974 0.0
C583 C 0.03119 0.12654 0.56375 0.0
H584 H 0.8879 0.19772 0.71861 0.0
H585 H 0.80494 0.13775 0.71742 0.0
H586 H 0.92204 0.1632 0.67558 0.0
H587 H 0.83902 0.10273 0.6757 0.0
H588 H 0.87736 0.09269 0.5655 0.0
H589 H 0.8521 0.1207 0.6156 0.0
H590 H 0.95117 0.10543 0.65726 0.0
H591 H 0.97683 0.07711 0.6065 0.0
C592 C 0.87764 0.17625 0.7102 0.0
C593 C 0.84387 0.17034 0.72105 0.0
C594 C 0.89704 0.15661 0.68551 0.0
C595 C 0.88282 0.13084 0.67165 0.0
C596 C 0.85031 0.12301 0.68519 0.0
C597 C 0.83093 0.14277 0.70933 0.0
C598 C 0.89391 0.09532 0.5852 0.0
C599 C 0.92913 0.08269 0.58192 0.0
C600 C 0.87935 0.11115 0.61412 0.0
C601 C 0.89951 0.1147 0.64073 0.0
C602 C 0.935 0.10302 0.63718 0.0
C603 C 0.94968 0.08701 0.60805 0.0
H604 H 0.91839 0.87786 0.76793 0.0
H605 H 0.82825 0.94196 0.73337 0.0
H606 H 0.9546 0.91883 0.73922 0.0
H607 H 0.86337 0.98143 0.703 0.0
H608 H 0.91635 0.02112 0.61601 0.0
H609 H 0.90036 0.01398 0.6768 0.0
H610 H 0.97125 0.91918 0.68324 0.0
H611 H 0.99053 0.9299 0.62368 0.0
C612 C 0.90629 0.90151 0.75536 0.0
C613 C 0.87093 0.90641 0.75141 0.0
C614 C 0.92699 0.92478 0.73835 0.0
C615 C 0.91245 0.95217 0.71632 0.0
C616 C 0.87627 0.96031 0.7185 0.0
C617 C 0.85572 0.93751 0.73596 0.0
C618 C 0.92927 0.99957 0.63095 0.0
C619 C 0.95389 0.97554 0.61535 0.0
C620 C 0.91991 0.99513 0.66581 0.0
C621 C 0.93285 0.96493 0.68509 0.0
C622 C 0.96013 0.9427 0.6698 0.0
C623 C 0.9709 0.94834 0.6353 0.0
H624 H 0.33098 0.23217 0.15038 0.0
H625 H 0.30601 0.13826 0.20569 0.0
H626 H 0.37082 0.1991 0.11082 0.0
H627 H 0.34765 0.10512 0.16848 0.0
H628 H 0.40056 0.05051 0.07909 0.0
H629 H 0.36012 0.08402 0.11728 0.0
H630 H 0.42261 0.16666 0.10055 0.0
H631 H 0.46127 0.13382 0.06003 0.0
C632 C 0.33431 0.20441 0.15417 0.0
C633 C 0.31515 0.18776 0.18077 0.0
C634 C 0.35747 0.18531 0.13175 0.0
C635 C 0.36281 0.14908 0.13609 0.0
C636 C 0.34385 0.13273 0.16332 0.0
C637 C 0.32 0.15178 0.18496 0.0
C638 C 0.40565 0.07578 0.08385 0.0
C639 C 0.43401 0.08958 0.06672 0.0
C640 C 0.38253 0.0951 0.10597 0.0
C641 C 0.38775 0.12839 0.11242 0.0
C642 C 0.41693 0.14164 0.09584 0.0
C643 C 0.43945 0.12267 0.07288 0.0
H644 H 0.84117 0.33159 0.23545 0.0
H645 H 0.81542 0.29329 0.14382 0.0
H646 H 0.88271 0.36354 0.20229 0.0
H647 H 0.85655 0.3268 0.10993 0.0
H648 H 0.9505 0.37674 0.06039 0.0
H649 H 0.91604 0.33658 0.09446 0.0
H650 H 0.88152 0.41341 0.16541 0.0
H651 H 0.91637 0.4524 0.13255 0.0
C652 C 0.84418 0.33015 0.20806 0.0
C653 C 0.82445 0.31018 0.19231 0.0
C654 C 0.86807 0.3487 0.18891 0.0
C655 C 0.8728 0.34844 0.15318 0.0
C656 C 0.85385 0.32758 0.13738 0.0
C657 C 0.83005 0.30853 0.15676 0.0
C658 C 0.93618 0.38464 0.08374 0.0
C659 C 0.93644 0.41787 0.09369 0.0
C660 C 0.91599 0.36179 0.10304 0.0
C661 C 0.89579 0.37156 0.13285 0.0
C662 C 0.89701 0.40446 0.14308 0.0
C663 C 0.91701 0.42708 0.12397 0.0
H664 H 0.72979 0.80299 0.15202 0.0
H665 H 0.7244 0.88068 0.22258 0.0
H666 H 0.6959 0.84346 0.11341 0.0
H667 H 0.68918 0.92116 0.18419 0.0
H668 H 0.57973 0.94041 0.13123 0.0
H669 H 0.62556 0.91406 0.1669 0.0
H670 H 0.69666 0.90485 0.07721 0.0
H671 H 0.6509 0.93227 0.04147 0.0
C672 C 0.72183 0.829 0.15893 0.0
C673 C 0.72971 0.83878 0.19021 0.0
C674 C 0.70258 0.85218 0.13677 0.0
C675 C 0.68999 0.88544 0.14578 0.0
C676 C 0.69874 0.89568 0.17661 0.0
C677 C 0.71893 0.87265 0.19846 0.0
C678 C 0.60538 0.93357 0.11924 0.0
C679 C 0.61178 0.93826 0.08361 0.0
C680 C 0.63163 0.91868 0.13967 0.0
C681 C 0.66461 0.90742 0.1248 0.0
C682 C 0.67144 0.91343 0.08929 0.0
C683 C 0.64535 0.92917 0.06889 0.0
H684 H 0.20368 0.66084 0.134 0.0
H685 H 0.10055 0.71518 0.14519 0.0
H686 H 0.18268 0.6163 0.1067 0.0
H687 H 0.07943 0.6709 0.117 0.0
H688 H 0.04665 0.57061 0.09457 0.0
H689 H 0.06879 0.6126 0.12469 0.0
H690 H 0.16104 0.60517 0.05575 0.0
H691 H 0.13948 0.56242 0.02644 0.0
C692 C 0.17655 0.6636 0.13002 0.0
C693 C 0.15382 0.69174 0.14146 0.0
C694 C 0.16447 0.63797 0.11439 0.0
C695 C 0.12932 0.63989 0.10954 0.0
C696 C 0.10658 0.66821 0.12081 0.0
C697 C 0.11867 0.69375 0.13675 0.0
C698 C 0.07191 0.57753 0.08615 0.0
C699 C 0.0913 0.56299 0.05808 0.0
C700 C 0.08444 0.60195 0.10321 0.0
C701 C 0.1166 0.61262 0.09252 0.0
C702 C 0.13636 0.59736 0.06503 0.0
C703 C 0.12395 0.57278 0.04813 0.0
H704 H 0.36894 0.79975 0.87832 0.0
H705 H 0.30077 0.89541 0.86934 0.0
H706 H 0.40655 0.8258 0.91015 0.0
H707 H 0.33814 0.92163 0.90257 0.0
H708 H 0.43584 0.96544 0.92583 0.0
H709 H 0.39534 0.94025 0.89599 0.0
H710 H 0.41097 0.84745 0.96328 0.0
H711 H 0.45194 0.87199 0.99228 0.0
C712 C 0.36176 0.82634 0.88364 0.0
C713 C 0.33203 0.84561 0.87114 0.0
C714 C 0.38325 0.84126 0.90211 0.0
C715 C 0.37555 0.87592 0.90885 0.0
C716 C 0.3451 0.895 0.8974 0.0
C717 C 0.32344 0.87992 0.87881 0.0
C718 C 0.43096 0.9395 0.93398 0.0
C719 C 0.44752 0.92067 0.9613 0.0
C720 C 0.40736 0.92522 0.91715 0.0
C721 C 0.39977 0.89181 0.92724 0.0
C722 C 0.41647 0.87305 0.95445 0.0
C723 C 0.44006 0.8872 0.97114 0.0
H724 H 0.21181 0.29579 0.86464 0.0
H725 H 0.12789 0.28057 0.8075 0.0
H726 H 0.17101 0.32583 0.90576 0.0
H727 H 0.08697 0.31171 0.84836 0.0
H728 H 0.05787 0.4247 0.89355 0.0
H729 H 0.08534 0.37876 0.85876 0.0
H730 H 0.11576 0.31691 0.94986 0.0
H731 H 0.08723 0.36266 0.98479 0.0
C732 C 0.18456 0.29846 0.8612 0.0
C733 C 0.17295 0.28608 0.83286 0.0
C734 C 0.16123 0.31538 0.88485 0.0
C735 C 0.12592 0.3209 0.88021 0.0
C736 C 0.1141 0.30754 0.85251 0.0
C737 C 0.13744 0.28979 0.82923 0.0
C738 C 0.06937 0.40075 0.9061 0.0
C739 C 0.0705 0.39694 0.94165 0.0
C740 C 0.08494 0.3745 0.88629 0.0
C741 C 0.10266 0.34443 0.90171 0.0
C742 C 0.10212 0.33986 0.93748 0.0
C743 C 0.08575 0.36585 0.95739 0.0
H744 H 0.734 0.1834 0.87722 0.0
H745 H 0.70459 0.1506 0.78445 0.0
H746 H 0.69861 0.14372 0.91078 0.0
H747 H 0.6707 0.1105 0.81745 0.0
H748 H 0.57527 0.08337 0.88217 0.0
H749 H 0.61763 0.11486 0.85 0.0
H750 H 0.68721 0.0852 0.92917 0.0
H751 H 0.64368 0.05407 0.96229 0.0
C752 C 0.72051 0.16735 0.864 0.0
C753 C 0.72173 0.17065 0.82813 0.0
C754 C 0.7003 0.14445 0.88322 0.0
C755 C 0.68114 0.12414 0.86696 0.0
C756 C 0.68413 0.12627 0.83106 0.0
C757 C 0.70382 0.14927 0.81203 0.0
C758 C 0.59974 0.08302 0.89268 0.0
C759 C 0.6059 0.066 0.92493 0.0
C760 C 0.62431 0.10107 0.87401 0.0
C761 C 0.65615 0.10275 0.88676 0.0
C762 C 0.66292 0.08482 0.9186 0.0
C763 C 0.63814 0.06653 0.9374 0.0
H764 H 0.8697 0.73214 0.82789 0.0
H765 H 0.7986 0.65868 0.82702 0.0
H766 H 0.90425 0.69158 0.86625 0.0
H767 H 0.83321 0.6183 0.86448 0.0
H768 H 0.87633 0.57421 0.96472 0.0
H769 H 0.84549 0.61321 0.92338 0.0
H770 H 0.94188 0.63528 0.87049 0.0
H771 H 0.97319 0.59627 0.9127 0.0
C772 C 0.86149 0.70737 0.83576 0.0
C773 C 0.83117 0.69886 0.82458 0.0
C774 C 0.88145 0.68401 0.85751 0.0
C775 C 0.87145 0.65169 0.86863 0.0
C776 C 0.84144 0.64312 0.85694 0.0
C777 C 0.82159 0.66634 0.8353 0.0
C778 C 0.89115 0.58713 0.94423 0.0
C779 C 0.92735 0.58199 0.94215 0.0
C780 C 0.87335 0.60945 0.92031 0.0
C781 C 0.89112 0.62742 0.89349 0.0
C782 C 0.92738 0.62207 0.89101 0.0
C783 C 0.94532 0.59946 0.915 0.0
H784 H 0.16714 0.26388 0.16584 0.0
H785 H 0.20027 0.35015 0.20647 0.0
H786 H 0.13165 0.30363 0.12741 0.0
H787 H 0.16405 0.38962 0.16887 0.0
H788 H 0.06423 0.44428 0.1171 0.0
H789 H 0.09448 0.40315 0.15881 0.0
H790 H 0.15207 0.35052 0.07648 0.0
H791 H 0.12292 0.39186 0.03505 0.0
C792 C 0.16658 0.29126 0.16679 0.0
C793 C 0.18669 0.30389 0.18895 0.0
C794 C 0.1463 0.31393 0.14486 0.0
C795 C 0.14503 0.34962 0.14541 0.0
C796 C 0.16436 0.36224 0.16821 0.0
C797 C 0.18527 0.33962 0.18948 0.0
C798 C 0.0833 0.42386 0.10805 0.0
C799 C 0.0915 0.42146 0.0729 0.0
C800 C 0.10057 0.40044 0.13181 0.0
C801 C 0.12546 0.37368 0.12074 0.0
C802 C 0.13285 0.37077 0.08564 0.0
C803 C 0.11635 0.3946 0.062 0.0
H804 H 0.17246 0.67858 0.77902 0.0
H805 H 0.19951 0.71903 0.86896 0.0
H806 H 0.13264 0.64572 0.81379 0.0
H807 H 0.16003 0.68481 0.90439 0.0
H808 H 0.06821 0.63264 0.95661 0.0
H809 H 0.10068 0.67359 0.92116 0.0
H810 H 0.13731 0.59589 0.85167 0.0
H811 H 0.10456 0.55596 0.88598 0.0
C812 C 0.17003 0.68039 0.80635 0.0
C813 C 0.18967 0.70116 0.82117 0.0
C814 C 0.14716 0.66134 0.82641 0.0
C815 C 0.14337 0.66196 0.86212 0.0
C816 C 0.16208 0.68373 0.87699 0.0
C817 C 0.1849 0.70321 0.85672 0.0
C818 C 0.08264 0.62463 0.93335 0.0
C819 C 0.08359 0.59091 0.92422 0.0
C820 C 0.10163 0.64798 0.91324 0.0
C821 C 0.12176 0.63822 0.8834 0.0
C822 C 0.12181 0.60477 0.87402 0.0
C823 C 0.10304 0.58163 0.89397 0.0
H824 H 0.33755 0.20142 0.82197 0.0
H825 H 0.25962 0.13375 0.83047 0.0
H826 H 0.37244 0.16071 0.85837 0.0
H827 H 0.29539 0.0924 0.86797 0.0
H828 H 0.36764 0.06463 0.96884 0.0
H829 H 0.32407 0.09378 0.93106 0.0
H830 H 0.40278 0.09815 0.84768 0.0
H831 H 0.44583 0.06959 0.88489 0.0
C832 C 0.32769 0.17783 0.83165 0.0
C833 C 0.29573 0.17085 0.82298 0.0
C834 C 0.34788 0.15441 0.85252 0.0
C835 C 0.33681 0.12326 0.86572 0.0
C836 C 0.3045 0.11627 0.85802 0.0
C837 C 0.28418 0.13981 0.83651 0.0
C838 C 0.37531 0.07094 0.94219 0.0
C839 C 0.41023 0.06544 0.92996 0.0
C840 C 0.35041 0.08754 0.92061 0.0
C841 C 0.36022 0.09862 0.88661 0.0
C842 C 0.39459 0.09029 0.87387 0.0
C843 C 0.41925 0.074 0.89525 0.0
H844 H 0.84928 0.29654 0.92429 0.0
H845 H 0.89645 0.33986 0.83011 0.0
H846 H 0.87377 0.33643 0.95592 0.0
H847 H 0.92023 0.37993 0.86117 0.0
H848 H 0.97953 0.43095 0.92962 0.0
H849 H 0.96076 0.38581 0.90141 0.0
H850 H 0.86287 0.39876 0.96126 0.0
H851 H 0.88193 0.44359 0.99026 0.0
C852 C 0.86556 0.31403 0.91054 0.0
C853 C 0.87106 0.31521 0.87487 0.0
C854 C 0.87914 0.33718 0.92849 0.0
C855 C 0.89861 0.36165 0.91101 0.0
C856 C 0.90559 0.36135 0.8755 0.0
C857 C 0.89194 0.33843 0.85766 0.0
C858 C 0.95385 0.42447 0.93665 0.0
C859 C 0.93214 0.44117 0.96211 0.0
C860 C 0.94313 0.39847 0.92046 0.0
C861 C 0.91038 0.38851 0.92919 0.0
C862 C 0.88849 0.40541 0.95436 0.0
C863 C 0.89923 0.43146 0.97064 0.0
H864 H 0.7349 0.85568 0.83487 0.0
H865 H 0.66624 0.77908 0.8399 0.0
H866 H 0.69442 0.88876 0.87381 0.0
H867 H 0.62553 0.81248 0.87848 0.0
H868 H 0.5986 0.95671 0.91556 0.0
H869 H 0.63746 0.92329 0.87536 0.0
H870 H 0.61946 0.82983 0.93631 0.0
H871 H 0.58034 0.86293 0.97602 0.0
C872 C 0.71123 0.8458 0.84437 0.0
C873 C 0.70389 0.81463 0.83431 0.0
C874 C 0.68785 0.86498 0.86645 0.0
C875 C 0.65659 0.85343 0.87912 0.0
C876 C 0.64948 0.82201 0.86943 0.0
C877 C 0.67282 0.80286 0.84727 0.0
C878 C 0.60267 0.92901 0.92021 0.0
C879 C 0.58633 0.91259 0.94913 0.0
C880 C 0.62518 0.90987 0.89732 0.0
C881 C 0.63174 0.87386 0.9027 0.0
C882 C 0.61479 0.85745 0.93118 0.0
C883 C 0.59245 0.87654 0.95409 0.0
H884 H 0.89151 0.72574 0.2116 0.0
H885 H 0.81014 0.71772 0.14812 0.0
H886 H 0.93329 0.69467 0.17137 0.0
H887 H 0.85183 0.68781 0.10768 0.0
H888 H 0.95774 0.58227 0.12437 0.0
H889 H 0.93135 0.62873 0.1589 0.0
H890 H 0.9102 0.69406 0.06716 0.0
H891 H 0.93774 0.64767 0.03252 0.0
C892 C 0.8828 0.71824 0.18859 0.0
C893 C 0.84768 0.72377 0.18299 0.0
C894 C 0.90661 0.70054 0.16568 0.0
C895 C 0.8957 0.6891 0.13645 0.0
C896 C 0.86094 0.69677 0.12979 0.0
C897 C 0.83709 0.71361 0.15304 0.0
C898 C 0.94848 0.60697 0.11168 0.0
C899 C 0.94959 0.6116 0.07597 0.0
C900 C 0.93359 0.63355 0.13136 0.0
C901 C 0.91879 0.66486 0.1156 0.0
C902 C 0.92163 0.67014 0.0798 0.0
C903 C 0.93737 0.64376 0.06007 0.0
H904 H 0.27816 0.83187 0.14301 0.0
H905 H 0.31698 0.85663 0.23477 0.0
H906 H 0.31511 0.86952 0.10884 0.0
H907 H 0.35247 0.89504 0.20121 0.0
H908 H 0.44667 0.91799 0.13242 0.0
H909 H 0.40339 0.88892 0.16591 0.0
H910 H 0.33062 0.92611 0.09109 0.0
H911 H 0.37507 0.95464 0.05644 0.0
C912 C 0.29407 0.84582 0.15593 0.0
C913 C 0.29495 0.84081 0.1916 0.0
C914 C 0.31518 0.86758 0.13636 0.0
C915 C 0.33741 0.88509 0.15206 0.0
C916 C 0.33662 0.88137 0.18793 0.0
C917 C 0.31602 0.8594 0.20731 0.0
C918 C 0.42139 0.92044 0.12305 0.0
C919 C 0.4146 0.93875 0.0915 0.0
C920 C 0.39626 0.90383 0.14257 0.0
C921 C 0.36317 0.90502 0.13148 0.0
C922 C 0.35585 0.92425 0.10039 0.0
C923 C 0.38123 0.94101 0.08068 0.0
H924 H 0.71077 0.17149 0.0986 0.0
H925 H 0.66545 0.12447 0.19192 0.0
H926 H 0.67431 0.14398 0.06572 0.0
H927 H 0.62862 0.09776 0.15948 0.0
H928 H 0.57119 0.12995 0.026 0.0
H929 H 0.6128 0.15176 0.05708 0.0
H930 H 0.62631 0.0557 0.1197 0.0
H931 H 0.58427 0.03404 0.08912 0.0
C932 C 0.69354 0.15472 0.11198 0.0
C933 C 0.6908 0.15022 0.14776 0.0
C934 C 0.67233 0.13935 0.09325 0.0
C935 C 0.64819 0.11901 0.11 0.0
C936 C 0.64696 0.11307 0.1457 0.0
C937 C 0.66798 0.12849 0.16432 0.0
C938 C 0.58278 0.11354 0.04659 0.0
C939 C 0.5741 0.0803 0.05516 0.0
C940 C 0.60701 0.12592 0.06413 0.0
C941 C 0.62316 0.10539 0.0907 0.0
C942 C 0.6142 0.0723 0.09954 0.0
C943 C 0.58999 0.05991 0.08201 0.0
H944 H 0.61015 0.66925 0.78519 0.0
H945 H 0.69535 0.58952 0.76854 0.0
H946 H 0.57993 0.62952 0.82307 0.0
H947 H 0.66463 0.54871 0.80551 0.0
H948 H 0.6383 0.52225 0.92141 0.0
H949 H 0.65882 0.54791 0.86611 0.0
H950 H 0.55363 0.58076 0.84202 0.0
H951 H 0.53335 0.55674 0.89784 0.0
C952 C 0.62131 0.6425 0.78796 0.0
C953 C 0.65491 0.63224 0.77435 0.0
C954 C 0.60414 0.61964 0.80986 0.0
C955 C 0.62042 0.58617 0.81821 0.0
C956 C 0.65192 0.57464 0.80035 0.0
C957 C 0.66924 0.59771 0.77868 0.0
C958 C 0.61967 0.53503 0.90427 0.0
C959 C 0.58436 0.53825 0.91428 0.0
C960 C 0.63132 0.5492 0.8723 0.0
C961 C 0.60782 0.56632 0.84948 0.0
C962 C 0.57243 0.5682 0.85908 0.0
C963 C 0.56084 0.55462 0.89122 0.0
H964 H 0.33975 0.63449 0.75677 0.0
H965 H 0.3527 0.71516 0.81893 0.0
H966 H 0.38351 0.59569 0.78685 0.0
H967 H 0.39493 0.67671 0.84927 0.0
H968 H 0.47617 0.61037 0.89793 0.0
H969 H 0.45024 0.64447 0.84955 0.0
H970 H 0.38466 0.5668 0.84327 0.0
H971 H 0.41206 0.53228 0.89043 0.0
C972 C 0.35216 0.64401 0.77653 0.0
C973 C 0.34244 0.67769 0.78579 0.0
C974 C 0.37711 0.62182 0.7938 0.0
C975 C 0.39275 0.63302 0.82053 0.0
C976 C 0.38404 0.66724 0.82848 0.0
C977 C 0.35933 0.68926 0.8113 0.0
C978 C 0.45699 0.60033 0.8853 0.0
C979 C 0.44577 0.5691 0.8976 0.0
C980 C 0.44197 0.61981 0.85784 0.0
C981 C 0.41484 0.60871 0.84297 0.0
C982 C 0.4056 0.57606 0.85385 0.0
C983 C 0.42108 0.55636 0.88095 0.0
H984 H 0.33803 0.40263 0.81274 0.0
H985 H 0.37952 0.3076 0.8666 0.0
H986 H 0.36417 0.43472 0.85087 0.0
H987 H 0.40484 0.33955 0.90519 0.0
H988 H 0.47071 0.41008 0.94868 0.0
H989 H 0.4486 0.37681 0.90892 0.0
H990 H 0.35328 0.44627 0.91124 0.0
H991 H 0.37535 0.47978 0.95057 0.0
C992 C 0.35317 0.38861 0.83237 0.0
C993 C 0.35653 0.35264 0.83682 0.0
C994 C 0.36775 0.40696 0.8545 0.0
C995 C 0.38617 0.38969 0.88139 0.0
C996 C 0.39089 0.35365 0.88475 0.0
C997 C 0.37621 0.33536 0.86276 0.0
C998 C 0.44483 0.41801 0.94115 0.0
C999 C 0.42485 0.44768 0.95292 0.0
C1000 C 0.4322 0.39896 0.91825 0.0
C1001 C 0.39936 0.40918 0.90653 0.0
C1002 C 0.37898 0.43814 0.91918 0.0
C1003 C 0.39152 0.45711 0.94211 0.0
H1004 H 0.64534 0.31268 0.77474 0.0
H1005 H 0.72589 0.33021 0.83535 0.0
H1006 H 0.60263 0.34581 0.81284 0.0
H1007 H 0.6837 0.3624 0.87288 0.0
H1008 H 0.55347 0.44292 0.87918 0.0
H1009 H 0.58767 0.40939 0.83562 0.0
H1010 H 0.63526 0.341 0.91473 0.0
H1011 H 0.60138 0.37388 0.95806 0.0
C1012 C 0.65401 0.32394 0.79575 0.0
C1013 C 0.68902 0.31841 0.80217 0.0
C1014 C 0.62957 0.34279 0.81755 0.0
C1015 C 0.63981 0.35601 0.84621 0.0
C1016 C 0.67495 0.35187 0.85145 0.0
C1017 C 0.69917 0.33348 0.82974 0.0
C1018 C 0.57059 0.42024 0.88732 0.0
C1019 C 0.57499 0.41149 0.92225 0.0
C1020 C 0.59018 0.40109 0.86231 0.0
C1021 C 0.61457 0.37302 0.87182 0.0
C1022 C 0.61711 0.36292 0.90666 0.0
C1023 C 0.59756 0.3818 0.93152 0.0
H1024 H 0.65939 0.2929 0.19412 0.0
H1025 H 0.67297 0.37398 0.25547 0.0
H1026 H 0.61665 0.33118 0.1641 0.0
H1027 H 0.62887 0.41256 0.22573 0.0
H1028 H 0.53485 0.39814 0.11602 0.0
H1029 H 0.56123 0.36392 0.16415 0.0
H1030 H 0.62805 0.44081 0.16891 0.0
H1031 H 0.6004 0.47535 0.12194 0.0
C1032 C 0.65279 0.31884 0.20163 0.0
C1033 C 0.67001 0.3306 0.22677 0.0
C1034 C 0.62783 0.34075 0.18466 0.0
C1035 C 0.61927 0.37504 0.19244 0.0
C1036 C 0.63516 0.38638 0.2189 0.0
C1037 C 0.66031 0.3643 0.23599 0.0
C1038 C 0.55442 0.40798 0.12827 0.0
C1039 C 0.5659 0.43901 0.11563 0.0
C1040 C 0.56968 0.38844 0.15558 0.0
C1041 C 0.5972 0.39933 0.16999 0.0
C1042 C 0.60677 0.43175 0.15871 0.0
C1043 C 0.59115 0.45147 0.13173 0.0
H1044 H 0.62157 0.65521 0.19956 0.0
H1045 H 0.71214 0.64943 0.12847 0.0
H1046 H 0.59349 0.62382 0.16222 0.0
H1047 H 0.68377 0.61977 0.09076 0.0
H1048 H 0.63952 0.53208 0.05211 0.0
H1049 H 0.66609 0.56508 0.0882 0.0
H1050 H 0.56907 0.6296 0.1067 0.0
H1051 H 0.54195 0.59574 0.07107 0.0
C1052 C 0.63548 0.64722 0.17606 0.0
C1053 C 0.66904 0.655 0.16697 0.0
C1054 C 0.61924 0.62966 0.15443 0.0
C1055 C 0.6363 0.61938 0.12337 0.0
C1056 C 0.66992 0.62698 0.11456 0.0
C1057 C 0.68609 0.64436 0.13609 0.0
C1058 C 0.62381 0.55354 0.06347 0.0
C1059 C 0.58855 0.56121 0.05854 0.0
C1060 C 0.63914 0.57257 0.08418 0.0
C1061 C 0.61974 0.59998 0.1005 0.0
C1062 C 0.58465 0.60835 0.0949 0.0
C1063 C 0.56922 0.58922 0.07408 0.0
H1064 H 0.28606 0.68961 0.17163 0.0
H1065 H 0.3641 0.68996 0.24143 0.0
H1066 H 0.32742 0.65643 0.13414 0.0
H1067 H 0.40593 0.65622 0.20328 0.0
H1068 H 0.45225 0.5627 0.13488 0.0
H1069 H 0.41753 0.59695 0.17751 0.0
H1070 H 0.37964 0.67043 0.09706 0.0
H1071 H 0.41397 0.63659 0.05467 0.0
C1072 C 0.31202 0.68244 0.17918 0.0
C1073 C 0.32175 0.69278 0.20952 0.0
C1074 C 0.33584 0.66355 0.15747 0.0
C1075 C 0.37011 0.65426 0.16541 0.0
C1076 C 0.3797 0.66316 0.19645 0.0
C1077 C 0.35576 0.68243 0.21826 0.0
C1078 C 0.43717 0.5866 0.12634 0.0
C1079 C 0.43561 0.59663 0.09124 0.0
C1080 C 0.41723 0.60615 0.1508 0.0
C1081 C 0.39534 0.63599 0.14057 0.0
C1082 C 0.39566 0.64714 0.10569 0.0
C1083 C 0.41551 0.62777 0.08138 0.0
H1084 H 0.30693 0.41463 0.22749 0.0
H1085 H 0.40317 0.35145 0.24564 0.0
H1086 H 0.33692 0.45457 0.18982 0.0
H1087 H 0.43406 0.39243 0.2091 0.0
H1088 H 0.45672 0.42085 0.09357 0.0
H1089 H 0.43632 0.39614 0.14916 0.0
H1090 H 0.37478 0.49319 0.16898 0.0
H1091 H 0.39391 0.51716 0.11244 0.0
C1092 C 0.33482 0.41061 0.22506 0.0
C1093 C 0.35286 0.38002 0.23887 0.0
C1094 C 0.35217 0.43344 0.20331 0.0
C1095 C 0.38787 0.42602 0.19536 0.0
C1096 C 0.40639 0.39819 0.21377 0.0
C1097 C 0.38888 0.37506 0.23522 0.0
C1098 C 0.43865 0.43673 0.1098 0.0
C1099 C 0.42602 0.47047 0.09838 0.0
C1100 C 0.42746 0.42287 0.142 0.0
C1101 C 0.40392 0.44271 0.16377 0.0
C1102 C 0.39245 0.477 0.15273 0.0
C1103 C 0.40313 0.49064 0.12023 0.0
H1104 H 0.86693 0.75523 0.66636 0.0
H1105 H 0.79955 0.67719 0.67509 0.0
H1106 H 0.9035 0.72518 0.62204 0.0
H1107 H 0.83629 0.64688 0.6319 0.0
H1108 H 0.89417 0.60252 0.54351 0.0
H1109 H 0.85613 0.64642 0.57347 0.0
H1110 H 0.94362 0.67354 0.61792 0.0
H1111 H 0.98153 0.63053 0.58661 0.0
C1112 C 0.85984 0.73177 0.65875 0.0
C1113 C 0.83038 0.71855 0.67441 0.0
C1114 C 0.88086 0.71449 0.63341 0.0
C1115 C 0.87288 0.68362 0.62319 0.0
C1116 C 0.84297 0.67092 0.63845 0.0
C1117 C 0.82199 0.68818 0.66359 0.0
C1118 C 0.90526 0.61896 0.55859 0.0
C1119 C 0.94064 0.61362 0.56256 0.0
C1120 C 0.8835 0.64373 0.57619 0.0
C1121 C 0.89664 0.66307 0.59878 0.0
C1122 C 0.93254 0.65937 0.60064 0.0
C1123 C 0.95435 0.63483 0.58264 0.0
H1124 H 0.30368 0.84849 0.70016 0.0
H1125 H 0.35328 0.76048 0.64918 0.0
H1126 H 0.34104 0.88449 0.66629 0.0
H1127 H 0.39245 0.79674 0.61569 0.0
H1128 H 0.43848 0.8851 0.54388 0.0
H1129 H 0.40052 0.84467 0.57215 0.0
H1130 H 0.39882 0.89249 0.66623 0.0
H1131 H 0.43489 0.93306 0.63797 0.0
C1132 C 0.32281 0.83675 0.68172 0.0
C1133 C 0.32584 0.8015 0.67775 0.0
C1134 C 0.34451 0.85743 0.66236 0.0
C1135 C 0.37058 0.84348 0.63882 0.0
C1136 C 0.37276 0.80838 0.63364 0.0
C1137 C 0.35042 0.78758 0.65284 0.0
C1138 C 0.42996 0.88671 0.57063 0.0
C1139 C 0.43911 0.9127 0.58852 0.0
C1140 C 0.40832 0.86353 0.58686 0.0
C1141 C 0.39581 0.86574 0.62135 0.0
C1142 C 0.40673 0.89065 0.63939 0.0
C1143 C 0.42768 0.9139 0.62319 0.0
H1144 H 0.21182 0.37516 0.70875 0.0
H1145 H 0.18861 0.28968 0.65896 0.0
H1146 H 0.17411 0.41455 0.67202 0.0
H1147 H 0.15133 0.32861 0.62267 0.0
H1148 H 0.10182 0.40847 0.54634 0.0
H1149 H 0.1491 0.37576 0.57652 0.0
H1150 H 0.11037 0.42482 0.66809 0.0
H1151 H 0.06337 0.45755 0.63806 0.0
C1152 C 0.19922 0.36487 0.68961 0.0
C1153 C 0.20306 0.32931 0.68693 0.0
C1154 C 0.17746 0.38735 0.66874 0.0
C1155 C 0.15961 0.37472 0.64444 0.0
C1156 C 0.16489 0.33931 0.64078 0.0
C1157 C 0.18614 0.31694 0.66182 0.0
C1158 C 0.10359 0.41253 0.5728 0.0
C1159 C 0.07848 0.43528 0.58989 0.0
C1160 C 0.13064 0.39373 0.59013 0.0
C1161 C 0.13346 0.39757 0.62479 0.0
C1162 C 0.10919 0.42143 0.64137 0.0
C1163 C 0.08199 0.43993 0.6242 0.0
H1164 H 0.6169 0.2132 0.65259 0.0
H1165 H 0.70983 0.15064 0.61648 0.0
H1166 H 0.58269 0.17858 0.62493 0.0
H1167 H 0.67571 0.11577 0.58924 0.0
H1168 H 0.60008 0.0729 0.52705 0.0
H1169 H 0.63438 0.11405 0.54473 0.0
H1170 H 0.57238 0.118 0.6408 0.0
H1171 H 0.53828 0.07726 0.62347 0.0
C1172 C 0.63002 0.19263 0.638 0.0
C1173 C 0.66593 0.18438 0.63692 0.0
C1174 C 0.61047 0.17259 0.62249 0.0
C1175 C 0.62653 0.14414 0.6054 0.0
C1176 C 0.66261 0.13752 0.60218 0.0
C1177 C 0.68211 0.15737 0.6179 0.0
C1178 C 0.59396 0.08234 0.55205 0.0
C1179 C 0.56647 0.0716 0.57386 0.0
C1180 C 0.61353 0.106 0.56209 0.0
C1181 C 0.60573 0.11961 0.59394 0.0
C1182 C 0.57855 0.10855 0.6158 0.0
C1183 C 0.55927 0.0848 0.60597 0.0
H1184 H 0.79378 0.41922 0.34468 0.0
H1185 H 0.81939 0.33312 0.41771 0.0
H1186 H 0.83037 0.45259 0.37118 0.0
H1187 H 0.85582 0.36619 0.44435 0.0
H1188 H 0.91 0.43911 0.4936 0.0
H1189 H 0.86001 0.41807 0.47516 0.0
H1190 H 0.89503 0.44288 0.36997 0.0
H1191 H 0.9449 0.46401 0.38825 0.0
C1192 C 0.80623 0.40803 0.36723 0.0
C1193 C 0.80371 0.37393 0.37953 0.0
C1194 C 0.82739 0.42688 0.38214 0.0
C1195 C 0.84613 0.41187 0.40964 0.0
C1196 C 0.84144 0.37855 0.42343 0.0
C1197 C 0.82061 0.35964 0.4083 0.0
C1198 C 0.90681 0.44048 0.46654 0.0
C1199 C 0.93165 0.4528 0.44232 0.0
C1200 C 0.87821 0.4284 0.45604 0.0
C1201 C 0.87364 0.42884 0.42117 0.0
C1202 C 0.89766 0.44258 0.39705 0.0
C1203 C 0.92644 0.45431 0.4075 0.0
H1204 H 0.64931 0.76787 0.32244 0.0
H1205 H 0.73093 0.81511 0.35641 0.0
H1206 H 0.60881 0.79565 0.36583 0.0
H1207 H 0.69099 0.84299 0.39856 0.0
H1208 H 0.61949 0.8841 0.48117 0.0
H1209 H 0.6546 0.83853 0.45036 0.0
H1210 H 0.58279 0.85436 0.37222 0.0
H1211 H 0.54773 0.89895 0.40353 0.0
C1212 C 0.65867 0.78378 0.33933 0.0
C1213 C 0.69322 0.7896 0.33562 0.0
C1214 C 0.63552 0.79977 0.36412 0.0
C1215 C 0.6466 0.82162 0.38576 0.0
C1216 C 0.68151 0.82598 0.38289 0.0
C1217 C 0.70443 0.81023 0.35825 0.0
C1218 C 0.61087 0.87688 0.45799 0.0
C1219 C 0.58114 0.89476 0.44455 0.0
C1220 C 0.63099 0.85107 0.44016 0.0
C1221 C 0.62177 0.84303 0.40851 0.0
C1222 C 0.59058 0.85951 0.39655 0.0
C1223 C 0.57057 0.88519 0.41436 0.0
H1224 H 0.21721 0.69795 0.37096 0.0
H1225 H 0.16896 0.6814 0.2814 0.0
H1226 H 0.18002 0.66075 0.40598 0.0
H1227 H 0.13236 0.64472 0.31599 0.0
H1228 H 0.10228 0.55001 0.37777 0.0
H1229 H 0.14076 0.58745 0.34792 0.0
H1230 H 0.11508 0.65833 0.4258 0.0
H1231 H 0.07594 0.62028 0.45644 0.0
C1232 C 0.19896 0.68622 0.35869 0.0
C1233 C 0.19636 0.69253 0.32325 0.0
C1234 C 0.17742 0.66521 0.37881 0.0
C1235 C 0.15322 0.64964 0.36382 0.0
C1236 C 0.1509 0.65592 0.32841 0.0
C1237 C 0.17196 0.67707 0.30852 0.0
C1238 C 0.10467 0.57344 0.38892 0.0
C1239 C 0.08557 0.58201 0.41966 0.0
C1240 C 0.12679 0.59507 0.37154 0.0
C1241 C 0.13092 0.62607 0.38422 0.0
C1242 C 0.11259 0.63455 0.41537 0.0
C1243 C 0.08996 0.61287 0.43278 0.0
H1244 H 0.27938 0.13891 0.34368 0.0
H1245 H 0.35483 0.20792 0.31465 0.0
H1246 H 0.32069 0.10225 0.37895 0.0
H1247 H 0.39567 0.17133 0.34926 0.0
H1248 H 0.47085 0.07396 0.37207 0.0
H1249 H 0.42564 0.10913 0.34184 0.0
H1250 H 0.35669 0.10655 0.43335 0.0
H1251 H 0.40243 0.07126 0.4643 0.0
C1252 C 0.30459 0.14635 0.34494 0.0
C1253 C 0.31384 0.17625 0.32618 0.0
C1254 C 0.32811 0.12548 0.36523 0.0
C1255 C 0.3614 0.1339 0.36661 0.0
C1256 C 0.37029 0.16409 0.34841 0.0
C1257 C 0.34678 0.18509 0.32865 0.0
C1258 C 0.44608 0.08061 0.38592 0.0
C1259 C 0.44039 0.06981 0.42074 0.0
C1260 C 0.42021 0.10092 0.36854 0.0
C1261 C 0.38777 0.1107 0.3853 0.0
C1262 C 0.3815 0.09924 0.41984 0.0
C1263 C 0.4077 0.07921 0.43753 0.0
H1264 H 0.73755 0.86588 0.67208 0.0
H1265 H 0.66298 0.79539 0.69781 0.0
H1266 H 0.69637 0.90298 0.63698 0.0
H1267 H 0.62221 0.83246 0.66344 0.0
H1268 H 0.54631 0.92983 0.64139 0.0
H1269 H 0.59125 0.89437 0.67182 0.0
H1270 H 0.66155 0.89928 0.58144 0.0
H1271 H 0.61609 0.9348 0.5503 0.0
C1272 C 0.71255 0.85823 0.67015 0.0
C1273 C 0.70353 0.82774 0.68789 0.0
C1274 C 0.6891 0.87936 0.64996 0.0
C1275 C 0.65608 0.87064 0.6477 0.0
C1276 C 0.64739 0.83994 0.66496 0.0
C1277 C 0.67085 0.81866 0.68458 0.0
C1278 C 0.57132 0.92363 0.62785 0.0
C1279 C 0.57748 0.93515 0.59327 0.0
C1280 C 0.59704 0.90315 0.64534 0.0
C1281 C 0.6298 0.89396 0.62895 0.0
C1282 C 0.6365 0.90612 0.59467 0.0
C1283 C 0.61046 0.92629 0.57687 0.0
H1284 H 0.66243 0.24636 0.36402 0.0
H1285 H 0.71061 0.16009 0.30964 0.0
H1286 H 0.62426 0.20922 0.39765 0.0
H1287 H 0.67433 0.12315 0.34369 0.0
H1288 H 0.58207 0.07265 0.37502 0.0
H1289 H 0.61717 0.11376 0.34612 0.0
H1290 H 0.61718 0.16107 0.44025 0.0
H1291 H 0.58013 0.12013 0.46915 0.0
C1292 C 0.66517 0.21945 0.35959 0.0
C1293 C 0.68911 0.20632 0.33375 0.0
C1294 C 0.64341 0.19812 0.3789 0.0
C1295 C 0.64551 0.16321 0.37294 0.0
C1296 C 0.67087 0.15004 0.3483 0.0
C1297 C 0.69198 0.17127 0.32883 0.0
C1298 C 0.58947 0.0918 0.38967 0.0
C1299 C 0.57871 0.09275 0.42452 0.0
C1300 C 0.60989 0.11538 0.3731 0.0
C1301 C 0.62099 0.14037 0.39091 0.0
C1302 C 0.60924 0.14222 0.42565 0.0
C1303 C 0.5881 0.11873 0.44226 0.0
H1304 H 0.80538 0.6301 0.3011 0.0
H1305 H 0.82344 0.71285 0.35787 0.0
H1306 H 0.84243 0.58951 0.33754 0.0
H1307 H 0.86015 0.67292 0.39368 0.0
H1308 H 0.9118 0.59212 0.46648 0.0
H1309 H 0.86391 0.62433 0.43693 0.0
H1310 H 0.90518 0.57991 0.34351 0.0
H1311 H 0.95264 0.54749 0.37296 0.0
C1312 C 0.81663 0.63947 0.32173 0.0
C1313 C 0.81168 0.67466 0.32644 0.0
C1314 C 0.83804 0.61634 0.34243 0.0
C1315 C 0.85443 0.62797 0.36849 0.0
C1316 C 0.84777 0.6629 0.37421 0.0
C1317 C 0.82684 0.68589 0.35343 0.0
C1318 C 0.91047 0.58895 0.43973 0.0
C1319 C 0.93644 0.56762 0.42201 0.0
C1320 C 0.88304 0.60746 0.42276 0.0
C1321 C 0.88074 0.60486 0.38775 0.0
C1322 C 0.90589 0.58233 0.37049 0.0
C1323 C 0.93339 0.56403 0.38736 0.0
H1324 H 0.40286 0.78996 0.36199 0.0
H1325 H 0.31023 0.84806 0.40477 0.0
H1326 H 0.43752 0.82489 0.38881 0.0
H1327 H 0.34462 0.88327 0.43112 0.0
H1328 H 0.47888 0.9279 0.39036 0.0
H1329 H 0.44582 0.88559 0.37432 0.0
H1330 H 0.38727 0.88696 0.47241 0.0
H1331 H 0.42035 0.92979 0.48862 0.0
C1332 C 0.38998 0.8095 0.37797 0.0
C1333 C 0.35395 0.81651 0.38116 0.0
C1334 C 0.40973 0.82978 0.39296 0.0
C1335 C 0.39376 0.85725 0.41156 0.0
C1336 C 0.35772 0.86234 0.41702 0.0
C1337 C 0.33802 0.84223 0.40188 0.0
C1338 C 0.45886 0.91944 0.40855 0.0
C1339 C 0.45222 0.93248 0.44077 0.0
C1340 C 0.44019 0.89477 0.39948 0.0
C1341 C 0.41427 0.88252 0.42227 0.0
C1342 C 0.40712 0.8959 0.45429 0.0
C1343 C 0.42598 0.92054 0.4635 0.0
H1344 H 0.15026 0.24895 0.34518 0.0
H1345 H 0.21817 0.32636 0.33846 0.0
H1346 H 0.11313 0.27885 0.38918 0.0
H1347 H 0.18084 0.35659 0.38136 0.0
H1348 H 0.12121 0.40065 0.46927 0.0
H1349 H 0.15976 0.35693 0.43951 0.0
H1350 H 0.07326 0.33055 0.39283 0.0
H1351 H 0.03485 0.37338 0.42387 0.0
C1352 C 0.15734 0.27226 0.35315 0.0
C1353 C 0.18711 0.28534 0.33816 0.0
C1354 C 0.136 0.28945 0.37832 0.0
C1355 C 0.14393 0.32014 0.389 0.0
C1356 C 0.17416 0.33269 0.37442 0.0
C1357 C 0.19548 0.31549 0.34946 0.0
C1358 C 0.11043 0.38439 0.45374 0.0
C1359 C 0.07519 0.38987 0.44907 0.0
C1360 C 0.13249 0.35974 0.43626 0.0
C1361 C 0.11979 0.34065 0.41314 0.0
C1362 C 0.084 0.34451 0.41055 0.0
C1363 C 0.0619 0.36894 0.42839 0.0
H1364 H 0.28847 0.17773 0.6693 0.0
H1365 H 0.36323 0.24485 0.68093 0.0
H1366 H 0.32702 0.14919 0.62675 0.0
H1367 H 0.40221 0.21633 0.63683 0.0
H1368 H 0.47407 0.11834 0.59858 0.0
H1369 H 0.4373 0.16149 0.63067 0.0
H1370 H 0.35323 0.15277 0.57061 0.0
H1371 H 0.3899 0.10843 0.53981 0.0
C1372 C 0.3131 0.18677 0.66248 0.0
C1373 C 0.32281 0.21351 0.67886 0.0
C1374 C 0.33517 0.17054 0.63756 0.0
C1375 C 0.36773 0.18055 0.62793 0.0
C1376 C 0.37736 0.20784 0.64372 0.0
C1377 C 0.35504 0.22425 0.66892 0.0
C1378 C 0.44798 0.12656 0.59168 0.0
C1379 C 0.43463 0.11037 0.56682 0.0
C1380 C 0.4269 0.15131 0.60999 0.0
C1381 C 0.39205 0.16029 0.6037 0.0
C1382 C 0.3797 0.14593 0.57671 0.0
C1383 C 0.40069 0.12086 0.55875 0.0
H1384 H 0.77821 0.33627 0.65626 0.0
H1385 H 0.86491 0.2964 0.71429 0.0
H1386 H 0.81487 0.37237 0.619 0.0
H1387 H 0.90127 0.33146 0.67688 0.0
H1388 H 0.96422 0.37455 0.58248 0.0
H1389 H 0.92523 0.33655 0.61288 0.0
H1390 H 0.84804 0.4239 0.62902 0.0
H1391 H 0.88711 0.46192 0.59939 0.0
C1392 C 0.80503 0.33502 0.66093 0.0
C1393 C 0.81849 0.31361 0.68844 0.0
C1394 C 0.826 0.35569 0.63966 0.0
C1395 C 0.86107 0.35462 0.64487 0.0
C1396 C 0.87453 0.33266 0.67192 0.0
C1397 C 0.85352 0.31275 0.69355 0.0
C1398 C 0.9388 0.38561 0.59216 0.0
C1399 C 0.92896 0.42134 0.58869 0.0
C1400 C 0.91651 0.36386 0.60968 0.0
C1401 C 0.88352 0.37722 0.62342 0.0
C1402 C 0.87314 0.41277 0.61859 0.0
C1403 C 0.89567 0.43455 0.60179 0.0
H1404 H 0.22085 0.59043 0.66537 0.0
H1405 H 0.18537 0.6789 0.59885 0.0
H1406 H 0.18535 0.55593 0.63874 0.0
H1407 H 0.15027 0.64465 0.57196 0.0
H1408 H 0.10251 0.56948 0.51884 0.0
H1409 H 0.15069 0.59329 0.53773 0.0
H1410 H 0.11971 0.56123 0.6423 0.0
H1411 H 0.07149 0.53746 0.62356 0.0
C1412 C 0.20635 0.60207 0.64425 0.0
C1413 C 0.20582 0.63708 0.63387 0.0
C1414 C 0.18587 0.58252 0.62927 0.0
C1415 C 0.16497 0.59769 0.60342 0.0
C1416 C 0.16637 0.63219 0.59157 0.0
C1417 C 0.18639 0.6518 0.60689 0.0
C1418 C 0.10626 0.56706 0.54583 0.0
C1419 C 0.08296 0.55196 0.56979 0.0
C1420 C 0.1338 0.58075 0.55659 0.0
C1421 C 0.1389 0.57912 0.59144 0.0
C1422 C 0.1166 0.56254 0.61524 0.0
C1423 C 0.08879 0.54926 0.60454 0.0
loop_
_geom_bond_atom_site_label_1
_geom_bond_atom_site_label_2
_geom_bond_distance
_geom_bond_site_symmetry_2
_ccdc_geom_bond_type
C0 O16 1.251 . S
C0 O18 1.254 . S
N1 C2 1.333 . S
N1 C6 1.307 . S
N1 Zn7 2.020 . S
C2 N1 1.333 . S
C2 C3 1.379 . S
C2 H20 0.952 . S
C3 C2 1.379 . S
C3 C4 1.390 . S
C3 H30 0.949 . S
C4 C3 1.390 . S
C4 C5 1.357 . S
C5 C4 1.357 . S
C5 C6 1.370 . S
C5 H31 0.950 . S
C6 N1 1.307 . S
C6 C5 1.370 . S
C6 H24 0.948 . S
Zn7 N1 2.020 . S
Zn7 O16 2.039 . S
Zn7 O22 2.034 . S
Zn7 O26 2.025 . S
Zn7 O28 2.024 . S
C8 O27 1.246 . S
C8 O28 1.249 . S
N9 C10 1.307 . S
N9 C11 1.333 . S
N9 Zn15 2.020 . S
C10 N9 1.307 . S
C10 C14 1.370 . S
C10 H21 0.948 . S
C11 N9 1.333 . S
C11 C12 1.379 . S
C11 H19 0.952 . S
C12 C11 1.379 . S
C12 C13 1.390 . S
C12 H32 0.949 . S
C13 C12 1.390 . S
C13 C14 1.357 . S
C14 C10 1.370 . S
C14 C13 1.357 . S
C14 H33 0.950 . S
Zn15 N9 2.020 . S
Zn15 O18 2.025 . S
Zn15 O23 2.024 . S
Zn15 O25 2.039 . S
Zn15 O27 2.034 . S
O16 C0 1.251 . S
O16 Zn7 2.039 . S
C17 O22 1.246 . S
C17 O23 1.249 . S
O18 C0 1.254 . S
O18 Zn15 2.025 . S
H19 C11 0.952 . S
H20 C2 0.952 . S
H21 C10 0.948 . S
O22 Zn7 2.034 . S
O22 C17 1.246 . S
O23 Zn15 2.024 . S
O23 C17 1.249 . S
H24 C6 0.948 . S
O25 Zn15 2.039 . S
O25 C29 1.251 . S
O26 Zn7 2.025 . S
O26 C29 1.254 . S
O27 C8 1.246 . S
O27 Zn15 2.034 . S
O28 Zn7 2.024 . S
O28 C8 1.249 . S
C29 O25 1.251 . S
C29 O26 1.254 . S
H30 C3 0.949 . S
H31 C5 0.950 . S
H32 C12 0.949 . S
H33 C14 0.950 . S
C34 O50 1.251 . S
C34 O52 1.254 . S
N35 C36 1.333 . S
N35 C40 1.307 . S
N35 Zn41 2.020 . S
C36 N35 1.333 . S
C36 C37 1.379 . S
C36 H54 0.952 . S
C37 C36 1.379 . S
C37 C38 1.390 . S
C37 H64 0.949 . S
C38 C37 1.390 . S
C38 C39 1.357 . S
C39 C38 1.357 . S
C39 C40 1.370 . S
C39 H65 0.950 . S
C40 N35 1.307 . S
C40 C39 1.370 . S
C40 H58 0.948 . S
Zn41 N35 2.020 . S
Zn41 O50 2.039 . S
Zn41 O56 2.034 . S
Zn41 O60 2.025 . S
Zn41 O62 2.024 . S
C42 O61 1.246 . S
C42 O62 1.249 . S
N43 C44 1.307 . S
N43 C45 1.333 . S
N43 Zn49 2.020 . S
C44 N43 1.307 . S
C44 C48 1.370 . S
C44 H55 0.948 . S
C45 N43 1.333 . S
C45 C46 1.379 . S
C45 H53 0.952 . S
C46 C45 1.379 . S
C46 C47 1.390 . S
C46 H66 0.949 . S
C47 C46 1.390 . S
C47 C48 1.357 . S
C48 C44 1.370 . S
C48 C47 1.357 . S
C48 H67 0.950 . S
Zn49 N43 2.020 . S
Zn49 O52 2.025 . S
Zn49 O57 2.024 . S
Zn49 O59 2.039 . S
Zn49 O61 2.034 . S
O50 C34 1.251 . S
O50 Zn41 2.039 . S
C51 O56 1.246 . S
C51 O57 1.249 . S
O52 C34 1.254 . S
O52 Zn49 2.025 . S
H53 C45 0.952 . S
H54 C36 0.952 . S
H55 C44 0.948 . S
O56 Zn41 2.034 . S
O56 C51 1.246 . S
O57 Zn49 2.024 . S
O57 C51 1.249 . S
H58 C40 0.948 . S
O59 Zn49 2.039 . S
O59 C63 1.251 . S
O60 Zn41 2.025 . S
O60 C63 1.254 . S
O61 C42 1.246 . S
O61 Zn49 2.034 . S
O62 Zn41 2.024 . S
O62 C42 1.249 . S
C63 O59 1.251 . S
C63 O60 1.254 . S
H64 C37 0.949 . S
H65 C39 0.950 . S
H66 C46 0.949 . S
H67 C48 0.950 . S
C68 O84 1.251 . S
C68 O86 1.254 . S
N69 C70 1.333 . S
N69 C74 1.307 . S
N69 Zn75 2.020 . S
C70 N69 1.333 . S
C70 C71 1.379 . S
C70 H88 0.952 . S
C71 C70 1.379 . S
C71 C72 1.390 . S
C71 H98 0.949 . S
C72 C71 1.390 . S
C72 C73 1.357 . S
C73 C72 1.357 . S
C73 C74 1.370 . S
C73 H99 0.950 . S
C74 N69 1.307 . S
C74 C73 1.370 . S
C74 H92 0.948 . S
Zn75 N69 2.020 . S
Zn75 O84 2.039 . S
Zn75 O90 2.034 . S
Zn75 O94 2.025 . S
Zn75 O96 2.024 . S
C76 O95 1.246 . S
C76 O96 1.249 . S
N77 C78 1.307 . S
N77 C79 1.333 . S
N77 Zn83 2.020 . S
C78 N77 1.307 . S
C78 C82 1.370 . S
C78 H89 0.948 . S
C79 N77 1.333 . S
C79 C80 1.379 . S
C79 H87 0.952 . S
C80 C79 1.379 . S
C80 C81 1.390 . S
C80 H100 0.949 . S
C81 C80 1.390 . S
C81 C82 1.357 . S
C82 C78 1.370 . S
C82 C81 1.357 . S
C82 H101 0.950 . S
Zn83 N77 2.020 . S
Zn83 O86 2.025 . S
Zn83 O91 2.024 . S
Zn83 O93 2.039 . S
Zn83 O95 2.034 . S
O84 C68 1.251 . S
O84 Zn75 2.039 . S
C85 O90 1.246 . S
C85 O91 1.249 . S
O86 C68 1.254 . S
O86 Zn83 2.025 . S
H87 C79 0.952 . S
H88 C70 0.952 . S
H89 C78 0.948 . S
O90 Zn75 2.034 . S
O90 C85 1.246 . S
O91 Zn83 2.024 . S
O91 C85 1.249 . S
H92 C74 0.948 . S
O93 Zn83 2.039 . S
O93 C97 1.251 . S
O94 Zn75 2.025 . S
O94 C97 1.254 . S
O95 C76 1.246 . S
O95 Zn83 2.034 . S
O96 Zn75 2.024 . S
O96 C76 1.249 . S
C97 O93 1.251 . S
C97 O94 1.254 . S
H98 C71 0.949 . S
H99 C73 0.950 . S
H100 C80 0.949 . S
H101 C82 0.950 . S
C102 O118 1.251 . S
C102 O120 1.254 . S
N103 C104 1.333 . S
N103 C108 1.307 . S
N103 Zn109 2.020 . S
C104 N103 1.333 . S
C104 C105 1.379 . S
C104 H122 0.952 . S
C105 C104 1.379 . S
C105 C106 1.390 . S
C105 H132 0.949 . S
C106 C105 1.390 . S
C106 C107 1.357 . S
C107 C106 1.357 . S
C107 C108 1.370 . S
C107 H133 0.950 . S
C108 N103 1.307 . S
C108 C107 1.370 . S
C108 H126 0.948 . S
Zn109 N103 2.020 . S
Zn109 O118 2.039 . S
Zn109 O124 2.034 . S
Zn109 O128 2.025 . S
Zn109 O130 2.024 . S
C110 O129 1.246 . S
C110 O130 1.249 . S
N111 C112 1.307 . S
N111 C113 1.333 . S
N111 Zn117 2.020 . S
C112 N111 1.307 . S
C112 C116 1.370 . S
C112 H123 0.948 . S
C113 N111 1.333 . S
C113 C114 1.379 . S
C113 H121 0.952 . S
C114 C113 1.379 . S
C114 C115 1.390 . S
C114 H134 0.949 . S
C115 C114 1.390 . S
C115 C116 1.357 . S
C116 C112 1.370 . S
C116 C115 1.357 . S
C116 H135 0.950 . S
Zn117 N111 2.020 . S
Zn117 O120 2.025 . S
Zn117 O125 2.024 . S
Zn117 O127 2.039 . S
Zn117 O129 2.034 . S
O118 C102 1.251 . S
O118 Zn109 2.039 . S
C119 O124 1.246 . S
C119 O125 1.249 . S
O120 C102 1.254 . S
O120 Zn117 2.025 . S
H121 C113 0.952 . S
H122 C104 0.952 . S
H123 C112 0.948 . S
O124 Zn109 2.034 . S
O124 C119 1.246 . S
O125 Zn117 2.024 . S
O125 C119 1.249 . S
H126 C108 0.948 . S
O127 Zn117 2.039 . S
O127 C131 1.251 . S
O128 Zn109 2.025 . S
O128 C131 1.254 . S
O129 C110 1.246 . S
O129 Zn117 2.034 . S
O130 Zn109 2.024 . S
O130 C110 1.249 . S
C131 O127 1.251 . S
C131 O128 1.254 . S
H132 C105 0.949 . S
H133 C107 0.950 . S
H134 C114 0.949 . S
H135 C116 0.950 . S
C136 O152 1.251 . S
C136 O154 1.254 . S
N137 C138 1.333 . S
N137 C142 1.307 . S
N137 Zn143 2.020 . S
C138 N137 1.333 . S
C138 C139 1.379 . S
C138 H156 0.952 . S
C139 C138 1.379 . S
C139 C140 1.390 . S
C139 H166 0.949 . S
C140 C139 1.390 . S
C140 C141 1.357 . S
C141 C140 1.357 . S
C141 C142 1.370 . S
C141 H167 0.950 . S
C142 N137 1.307 . S
C142 C141 1.370 . S
C142 H160 0.948 . S
Zn143 N137 2.020 . S
Zn143 O152 2.039 . S
Zn143 O158 2.034 . S
Zn143 O162 2.025 . S
Zn143 O164 2.024 . S
C144 O163 1.246 . S
C144 O164 1.249 . S
N145 C146 1.307 . S
N145 C147 1.333 . S
N145 Zn151 2.020 . S
C146 N145 1.307 . S
C146 C150 1.370 . S
C146 H157 0.948 . S
C147 N145 1.333 . S
C147 C148 1.379 . S
C147 H155 0.952 . S
C148 C147 1.379 . S
C148 C149 1.390 . S
C148 H168 0.949 . S
C149 C148 1.390 . S
C149 C150 1.357 . S
C150 C146 1.370 . S
C150 C149 1.357 . S
C150 H169 0.950 . S
Zn151 N145 2.020 . S
Zn151 O154 2.025 . S
Zn151 O159 2.024 . S
Zn151 O161 2.039 . S
Zn151 O163 2.034 . S
O152 C136 1.251 . S
O152 Zn143 2.039 . S
C153 O158 1.246 . S
C153 O159 1.249 . S
O154 C136 1.254 . S
O154 Zn151 2.025 . S
H155 C147 0.952 . S
H156 C138 0.952 . S
H157 C146 0.948 . S
O158 Zn143 2.034 . S
O158 C153 1.246 . S
O159 Zn151 2.024 . S
O159 C153 1.249 . S
H160 C142 0.948 . S
O161 Zn151 2.039 . S
O161 C165 1.251 . S
O162 Zn143 2.025 . S
O162 C165 1.254 . S
O163 C144 1.246 . S
O163 Zn151 2.034 . S
O164 Zn143 2.024 . S
O164 C144 1.249 . S
C165 O161 1.251 . S
C165 O162 1.254 . S
H166 C139 0.949 . S
H167 C141 0.950 . S
H168 C148 0.949 . S
H169 C150 0.950 . S
C170 O186 1.251 . S
C170 O188 1.254 . S
N171 C172 1.333 . S
N171 C176 1.307 . S
N171 Zn177 2.020 . S
C172 N171 1.333 . S
C172 C173 1.379 . S
C172 H190 0.952 . S
C173 C172 1.379 . S
C173 C174 1.390 . S
C173 H200 0.949 . S
C174 C173 1.390 . S
C174 C175 1.357 . S
C175 C174 1.357 . S
C175 C176 1.370 . S
C175 H201 0.950 . S
C176 N171 1.307 . S
C176 C175 1.370 . S
C176 H194 0.948 . S
Zn177 N171 2.020 . S
Zn177 O186 2.039 . S
Zn177 O192 2.034 . S
Zn177 O196 2.025 . S
Zn177 O198 2.024 . S
C178 O197 1.246 . S
C178 O198 1.249 . S
N179 C180 1.307 . S
N179 C181 1.333 . S
N179 Zn185 2.020 . S
C180 N179 1.307 . S
C180 C184 1.370 . S
C180 H191 0.948 . S
C181 N179 1.333 . S
C181 C182 1.379 . S
C181 H189 0.952 . S
C182 C181 1.379 . S
C182 C183 1.390 . S
C182 H202 0.949 . S
C183 C182 1.390 . S
C183 C184 1.357 . S
C184 C180 1.370 . S
C184 C183 1.357 . S
C184 H203 0.950 . S
Zn185 N179 2.020 . S
Zn185 O188 2.025 . S
Zn185 O193 2.024 . S
Zn185 O195 2.039 . S
Zn185 O197 2.034 . S
O186 C170 1.251 . S
O186 Zn177 2.039 . S
C187 O192 1.246 . S
C187 O193 1.249 . S
O188 C170 1.254 . S
O188 Zn185 2.025 . S
H189 C181 0.952 . S
H190 C172 0.952 . S
H191 C180 0.948 . S
O192 Zn177 2.034 . S
O192 C187 1.246 . S
O193 Zn185 2.024 . S
O193 C187 1.249 . S
H194 C176 0.948 . S
O195 Zn185 2.039 . S
O195 C199 1.251 . S
O196 Zn177 2.025 . S
O196 C199 1.254 . S
O197 C178 1.246 . S
O197 Zn185 2.034 . S
O198 Zn177 2.024 . S
O198 C178 1.249 . S
C199 O195 1.251 . S
C199 O196 1.254 . S
H200 C173 0.949 . S
H201 C175 0.950 . S
H202 C182 0.949 . S
H203 C184 0.950 . S
C204 O220 1.251 . S
C204 O222 1.254 . S
N205 C206 1.333 . S
N205 C210 1.307 . S
N205 Zn211 2.020 . S
C206 N205 1.333 . S
C206 C207 1.379 . S
C206 H224 0.952 . S
C207 C206 1.379 . S
C207 C208 1.390 . S
C207 H234 0.949 . S
C208 C207 1.390 . S
C208 C209 1.357 . S
C209 C208 1.357 . S
C209 C210 1.370 . S
C209 H235 0.950 . S
C210 N205 1.307 . S
C210 C209 1.370 . S
C210 H228 0.948 . S
Zn211 N205 2.020 . S
Zn211 O220 2.039 . S
Zn211 O226 2.034 . S
Zn211 O230 2.025 . S
Zn211 O232 2.024 . S
C212 O231 1.246 . S
C212 O232 1.249 . S
N213 C214 1.307 . S
N213 C215 1.333 . S
N213 Zn219 2.020 . S
C214 N213 1.307 . S
C214 C218 1.370 . S
C214 H225 0.948 . S
C215 N213 1.333 . S
C215 C216 1.379 . S
C215 H223 0.952 . S
C216 C215 1.379 . S
C216 C217 1.390 . S
C216 H236 0.949 . S
C217 C216 1.390 . S
C217 C218 1.357 . S
C218 C214 1.370 . S
C218 C217 1.357 . S
C218 H237 0.950 . S
Zn219 N213 2.020 . S
Zn219 O222 2.025 . S
Zn219 O227 2.024 . S
Zn219 O229 2.039 . S
Zn219 O231 2.034 . S
O220 C204 1.251 . S
O220 Zn211 2.039 . S
C221 O226 1.246 . S
C221 O227 1.249 . S
O222 C204 1.254 . S
O222 Zn219 2.025 . S
H223 C215 0.952 . S
H224 C206 0.952 . S
H225 C214 0.948 . S
O226 Zn211 2.034 . S
O226 C221 1.246 . S
O227 Zn219 2.024 . S
O227 C221 1.249 . S
H228 C210 0.948 . S
O229 Zn219 2.039 . S
O229 C233 1.251 . S
O230 Zn211 2.025 . S
O230 C233 1.254 . S
O231 C212 1.246 . S
O231 Zn219 2.034 . S
O232 Zn211 2.024 . S
O232 C212 1.249 . S
C233 O229 1.251 . S
C233 O230 1.254 . S
H234 C207 0.949 . S
H235 C209 0.950 . S
H236 C216 0.949 . S
H237 C218 0.950 . S
C238 O254 1.251 . S
C238 O256 1.254 . S
N239 C240 1.333 . S
N239 C244 1.307 . S
N239 Zn245 2.020 . S
C240 N239 1.333 . S
C240 C241 1.379 . S
C240 H258 0.952 . S
C241 C240 1.379 . S
C241 C242 1.390 . S
C241 H268 0.949 . S
C242 C241 1.390 . S
C242 C243 1.357 . S
C243 C242 1.357 . S
C243 C244 1.370 . S
C243 H269 0.950 . S
C244 N239 1.307 . S
C244 C243 1.370 . S
C244 H262 0.948 . S
Zn245 N239 2.020 . S
Zn245 O254 2.039 . S
Zn245 O260 2.034 . S
Zn245 O264 2.025 . S
Zn245 O266 2.024 . S
C246 O265 1.246 . S
C246 O266 1.249 . S
N247 C248 1.307 . S
N247 C249 1.333 . S
N247 Zn253 2.020 . S
C248 N247 1.307 . S
C248 C252 1.370 . S
C248 H259 0.948 . S
C249 N247 1.333 . S
C249 C250 1.379 . S
C249 H257 0.952 . S
C250 C249 1.379 . S
C250 C251 1.390 . S
C250 H270 0.949 . S
C251 C250 1.390 . S
C251 C252 1.357 . S
C252 C248 1.370 . S
C252 C251 1.357 . S
C252 H271 0.950 . S
Zn253 N247 2.020 . S
Zn253 O256 2.025 . S
Zn253 O261 2.024 . S
Zn253 O263 2.039 . S
Zn253 O265 2.034 . S
O254 C238 1.251 . S
O254 Zn245 2.039 . S
C255 O260 1.246 . S
C255 O261 1.249 . S
O256 C238 1.254 . S
O256 Zn253 2.025 . S
H257 C249 0.952 . S
H258 C240 0.952 . S
H259 C248 0.948 . S
O260 Zn245 2.034 . S
O260 C255 1.246 . S
O261 Zn253 2.024 . S
O261 C255 1.249 . S
H262 C244 0.948 . S
O263 Zn253 2.039 . S
O263 C267 1.251 . S
O264 Zn245 2.025 . S
O264 C267 1.254 . S
O265 C246 1.246 . S
O265 Zn253 2.034 . S
O266 Zn245 2.024 . S
O266 C246 1.249 . S
C267 O263 1.251 . S
C267 O264 1.254 . S
H268 C241 0.949 . S
H269 C243 0.950 . S
H270 C250 0.949 . S
H271 C252 0.950 . S
Fe272 O273 1.886 . S
Fe272 O276 1.715 1_655 S
Fe272 O281 2.077 . S
Fe272 O286 1.935 1_655 S
Fe272 O292 2.077 . S
Fe272 O301 1.935 1_655 S
O273 Fe272 1.886 . S
O273 Fe275 1.715 . S
Fe274 O276 1.886 1_565 S
Fe274 O277 1.715 . S
Fe274 O284 1.935 . S
Fe274 O285 2.077 1_565 S
Fe274 O291 1.935 . S
Fe274 O300 2.077 1_565 S
Fe275 O273 1.715 . S
Fe275 O278 1.886 1_545 S
Fe275 O282 1.935 . S
Fe275 O287 2.077 1_545 S
Fe275 O293 1.935 . S
Fe275 O297 2.077 1_545 S
O276 Fe272 1.715 1_455 S
O276 Fe274 1.886 1_545 S
O277 Fe274 1.715 . S
O277 Fe279 1.886 . S
O278 Fe275 1.886 1_565 S
O278 Fe279 1.715 1_655 S
Fe279 O277 1.886 . S
Fe279 O278 1.715 1_455 S
Fe279 O283 2.077 . S
Fe279 O288 1.935 1_455 S
Fe279 O290 2.077 . S
Fe279 O298 1.935 1_455 S
C280 O292 1.381 . S
C280 O293 1.421 . S
O281 Fe272 2.077 . S
O281 C294 1.381 . S
O282 Fe275 1.935 . S
O282 C294 1.421 . S
O283 Fe279 2.077 . S
O283 C299 1.381 . S
O284 Fe274 1.935 . S
O284 C299 1.421 . S
O285 Fe274 2.077 1_545 S
O285 C289 1.381 . S
O286 Fe272 1.935 1_455 S
O286 C289 1.421 . S
O287 Fe275 2.077 1_565 S
O287 C295 1.381 . S
O288 Fe279 1.935 1_655 S
O288 C295 1.421 . S
C289 O285 1.381 . S
C289 O286 1.421 . S
O290 Fe279 2.077 . S
O290 C302 1.381 . S
O291 Fe274 1.935 . S
O291 C302 1.421 . S
O292 Fe272 2.077 . S
O292 C280 1.381 . S
O293 Fe275 1.935 . S
O293 C280 1.421 . S
C294 O281 1.381 . S
C294 O282 1.421 . S
C295 O287 1.381 . S
C295 O288 1.421 . S
C296 O297 1.381 . S
C296 O298 1.421 . S
O297 Fe275 2.077 1_565 S
O297 C296 1.381 . S
O298 Fe279 1.935 1_655 S
O298 C296 1.421 . S
C299 O283 1.381 . S
C299 O284 1.421 . S
O300 Fe274 2.077 1_545 S
O300 C303 1.381 . S
O301 Fe272 1.935 1_455 S
O301 C303 1.421 . S
C302 O290 1.381 . S
C302 O291 1.421 . S
C303 O300 1.381 . S
C303 O301 1.421 . S
Fe304 O305 1.885 1_554 S
Fe304 O308 1.715 . S
Fe304 O313 2.077 1_554 S
Fe304 O318 1.935 1_554 S
Fe304 O324 2.077 . S
Fe304 O333 1.935 . S
O305 Fe304 1.885 1_556 S
O305 Fe307 1.715 . S
Fe306 O308 1.886 1_545 S
Fe306 O309 1.715 . S
Fe306 O316 1.935 1_554 S
Fe306 O317 2.077 1_544 S
Fe306 O323 1.935 . S
Fe306 O332 2.077 1_545 S
Fe307 O305 1.715 . S
Fe307 O310 1.886 1_565 S
Fe307 O314 1.935 . S
Fe307 O319 2.077 1_565 S
Fe307 O325 1.935 1_556 S
Fe307 O329 2.077 1_566 S
O308 Fe304 1.715 . S
O308 Fe306 1.886 1_565 S
O309 Fe306 1.715 . S
O309 Fe311 1.886 1_554 S
O310 Fe307 1.886 1_545 S
O310 Fe311 1.715 . S
Fe311 O309 1.886 1_556 S
Fe311 O310 1.715 . S
Fe311 O315 2.077 . S
Fe311 O320 1.935 . S
Fe311 O322 2.077 1_556 S
Fe311 O330 1.935 1_556 S
C312 O324 1.381 . S
C312 O325 1.421 . S
O313 Fe304 2.077 1_556 S
O313 C326 1.381 . S
O314 Fe307 1.935 . S
O314 C326 1.421 . S
O315 Fe311 2.077 . S
O315 C331 1.381 . S
O316 Fe306 1.935 1_556 S
O316 C331 1.421 . S
O317 Fe306 2.077 1_566 S
O317 C321 1.381 . S
O318 Fe304 1.935 1_556 S
O318 C321 1.421 . S
O319 Fe307 2.077 1_545 S
O319 C327 1.381 . S
O320 Fe311 1.935 . S
O320 C327 1.421 . S
C321 O317 1.381 . S
C321 O318 1.421 . S
O322 Fe311 2.077 1_554 S
O322 C334 1.381 . S
O323 Fe306 1.935 . S
O323 C334 1.421 . S
O324 Fe304 2.077 . S
O324 C312 1.381 . S
O325 Fe307 1.935 1_554 S
O325 C312 1.421 . S
C326 O313 1.381 . S
C326 O314 1.421 . S
C327 O319 1.381 . S
C327 O320 1.421 . S
C328 O329 1.381 . S
C328 O330 1.421 . S
O329 Fe307 2.077 1_544 S
O329 C328 1.381 . S
O330 Fe311 1.935 1_554 S
O330 C328 1.421 . S
C331 O315 1.381 . S
C331 O316 1.421 . S
O332 Fe306 2.077 1_565 S
O332 C335 1.381 . S
O333 Fe304 1.935 . S
O333 C335 1.421 . S
C334 O322 1.381 . S
C334 O323 1.421 . S
C335 O332 1.381 . S
C335 O333 1.421 . S
Fe336 O337 1.886 1_556 S
Fe336 O340 1.715 1_655 S
Fe336 O345 2.077 . S
Fe336 O350 1.935 1_655 S
Fe336 O356 2.077 1_556 S
Fe336 O365 1.935 1_656 S
O337 Fe336 1.886 1_554 S
O337 Fe339 1.715 . S
Fe338 O340 1.886 . S
Fe338 O341 1.715 . S
Fe338 O348 1.935 . S
Fe338 O349 2.077 . S
Fe338 O355 1.935 1_556 S
Fe338 O364 2.077 1_556 S
Fe339 O337 1.715 . S
Fe339 O342 1.886 . S
Fe339 O346 1.935 1_554 S
Fe339 O351 2.077 1_554 S
Fe339 O357 1.935 . S
Fe339 O361 2.077 . S
O340 Fe336 1.715 1_455 S
O340 Fe338 1.886 . S
O341 Fe338 1.715 . S
O341 Fe343 1.885 1_556 S
O342 Fe339 1.886 . S
O342 Fe343 1.715 1_655 S
Fe343 O341 1.885 1_554 S
Fe343 O342 1.715 1_455 S
Fe343 O347 2.077 1_554 S
Fe343 O352 1.935 1_454 S
Fe343 O354 2.077 . S
Fe343 O362 1.935 1_455 S
C344 O356 1.381 . S
C344 O357 1.421 . S
O345 Fe336 2.077 . S
O345 C358 1.381 . S
O346 Fe339 1.935 1_556 S
O346 C358 1.421 . S
O347 Fe343 2.077 1_556 S
O347 C363 1.381 . S
O348 Fe338 1.935 . S
O348 C363 1.421 . S
O349 Fe338 2.077 . S
O349 C353 1.381 . S
O350 Fe336 1.935 1_455 S
O350 C353 1.421 . S
O351 Fe339 2.077 1_556 S
O351 C359 1.381 . S
O352 Fe343 1.935 1_656 S
O352 C359 1.421 . S
C353 O349 1.381 . S
C353 O350 1.421 . S
O354 Fe343 2.077 . S
O354 C366 1.381 . S
O355 Fe338 1.935 1_554 S
O355 C366 1.421 . S
O356 Fe336 2.077 1_554 S
O356 C344 1.381 . S
O357 Fe339 1.935 . S
O357 C344 1.421 . S
C358 O345 1.381 . S
C358 O346 1.421 . S
C359 O351 1.381 . S
C359 O352 1.421 . S
C360 O361 1.381 . S
C360 O362 1.421 . S
O361 Fe339 2.077 . S
O361 C360 1.381 . S
O362 Fe343 1.935 1_655 S
O362 C360 1.421 . S
C363 O347 1.381 . S
C363 O348 1.421 . S
O364 Fe338 2.077 1_554 S
O364 C367 1.381 . S
O365 Fe336 1.935 1_454 S
O365 C367 1.421 . S
C366 O354 1.381 . S
C366 O355 1.421 . S
C367 O364 1.381 . S
C367 O365 1.421 . S
Fe368 O369 1.886 . S
Fe368 O372 1.715 . S
Fe368 O377 2.077 . S
Fe368 O382 1.935 . S
Fe368 O388 2.077 . S
Fe368 O397 1.935 . S
O369 Fe368 1.886 . S
O369 Fe371 1.715 . S
Fe370 O372 1.886 1_554 S
Fe370 O373 1.715 . S
Fe370 O380 1.935 . S
Fe370 O381 2.077 1_554 S
Fe370 O387 1.935 . S
Fe370 O396 2.077 1_554 S
Fe371 O369 1.715 . S
Fe371 O374 1.886 1_556 S
Fe371 O378 1.935 . S
Fe371 O383 2.077 1_556 S
Fe371 O389 1.935 . S
Fe371 O393 2.077 1_556 S
O372 Fe368 1.715 . S
O372 Fe370 1.886 1_556 S
O373 Fe370 1.715 . S
O373 Fe375 1.886 . S
O374 Fe371 1.886 1_554 S
O374 Fe375 1.715 . S
Fe375 O373 1.886 . S
Fe375 O374 1.715 . S
Fe375 O379 2.077 . S
Fe375 O384 1.935 . S
Fe375 O386 2.077 . S
Fe375 O394 1.935 . S
C376 O388 1.381 . S
C376 O389 1.421 . S
O377 Fe368 2.077 . S
O377 C390 1.381 . S
O378 Fe371 1.935 . S
O378 C390 1.421 . S
O379 Fe375 2.077 . S
O379 C395 1.381 . S
O380 Fe370 1.935 . S
O380 C395 1.421 . S
O381 Fe370 2.077 1_556 S
O381 C385 1.381 . S
O382 Fe368 1.935 . S
O382 C385 1.421 . S
O383 Fe371 2.077 1_554 S
O383 C391 1.381 . S
O384 Fe375 1.935 . S
O384 C391 1.421 . S
C385 O381 1.381 . S
C385 O382 1.421 . S
O386 Fe375 2.077 . S
O386 C398 1.381 . S
O387 Fe370 1.935 . S
O387 C398 1.421 . S
O388 Fe368 2.077 . S
O388 C376 1.381 . S
O389 Fe371 1.935 . S
O389 C376 1.421 . S
C390 O377 1.381 . S
C390 O378 1.421 . S
C391 O383 1.381 . S
C391 O384 1.421 . S
C392 O393 1.381 . S
C392 O394 1.421 . S
O393 Fe371 2.077 1_554 S
O393 C392 1.381 . S
O394 Fe375 1.935 . S
O394 C392 1.421 . S
C395 O379 1.381 . S
C395 O380 1.421 . S
O396 Fe370 2.077 1_556 S
O396 C399 1.381 . S
O397 Fe368 1.935 . S
O397 C399 1.421 . S
C398 O386 1.381 . S
C398 O387 1.421 . S
C399 O396 1.381 . S
C399 O397 1.421 . S
Fe400 O401 1.886 . S
Fe400 O404 1.715 . S
Fe400 O409 2.077 . S
Fe400 O414 1.935 . S
Fe400 O420 2.077 1_455 S
Fe400 O429 1.935 1_455 S
O401 Fe400 1.886 . S
O401 Fe403 1.715 1_455 S
Fe402 O404 1.886 . S
Fe402 O405 1.715 1_455 S
Fe402 O412 1.935 . S
Fe402 O413 2.077 . S
Fe402 O419 1.935 1_455 S
Fe402 O428 2.077 1_455 S
Fe403 O401 1.715 1_655 S
Fe403 O406 1.886 . S
Fe403 O410 1.935 1_655 S
Fe403 O415 2.077 1_655 S
Fe403 O421 1.935 . S
Fe403 O425 2.077 . S
O404 Fe400 1.715 . S
O404 Fe402 1.886 . S
O405 Fe402 1.715 1_655 S
O405 Fe407 1.886 . S
O406 Fe403 1.886 . S
O406 Fe407 1.715 . S
Fe407 O405 1.886 . S
Fe407 O406 1.715 . S
Fe407 O411 2.077 1_655 S
Fe407 O416 1.935 1_655 S
Fe407 O418 2.077 . S
Fe407 O426 1.935 . S
C408 O420 1.381 . S
C408 O421 1.421 . S
O409 Fe400 2.077 . S
O409 C422 1.381 . S
O410 Fe403 1.935 1_455 S
O410 C422 1.421 . S
O411 Fe407 2.077 1_455 S
O411 C427 1.381 . S
O412 Fe402 1.935 . S
O412 C427 1.421 . S
O413 Fe402 2.077 . S
O413 C417 1.381 . S
O414 Fe400 1.935 . S
O414 C417 1.421 . S
O415 Fe403 2.077 1_455 S
O415 C423 1.381 . S
O416 Fe407 1.935 1_455 S
O416 C423 1.421 . S
C417 O413 1.381 . S
C417 O414 1.421 . S
O418 Fe407 2.077 . S
O418 C430 1.381 . S
O419 Fe402 1.935 1_655 S
O419 C430 1.421 . S
O420 Fe400 2.077 1_655 S
O420 C408 1.381 . S
O421 Fe403 1.935 . S
O421 C408 1.421 . S
C422 O409 1.381 . S
C422 O410 1.421 . S
C423 O415 1.381 . S
C423 O416 1.421 . S
C424 O425 1.381 . S
C424 O426 1.421 . S
O425 Fe403 2.077 . S
O425 C424 1.381 . S
O426 Fe407 1.935 . S
O426 C424 1.421 . S
C427 O411 1.381 . S
C427 O412 1.421 . S
O428 Fe402 2.077 1_655 S
O428 C431 1.381 . S
O429 Fe400 1.935 1_655 S
O429 C431 1.421 . S
C430 O418 1.381 . S
C430 O419 1.421 . S
C431 O428 1.381 . S
C431 O429 1.421 . S
Fe432 O433 1.886 . S
Fe432 O436 1.715 . S
Fe432 O441 2.077 . S
Fe432 O446 1.935 . S
Fe432 O452 2.077 . S
Fe432 O461 1.935 . S
O433 Fe432 1.886 . S
O433 Fe435 1.715 . S
Fe434 O436 1.886 1_545 S
Fe434 O437 1.715 . S
Fe434 O444 1.935 . S
Fe434 O445 2.077 1_545 S
Fe434 O451 1.935 . S
Fe434 O460 2.077 1_545 S
Fe435 O433 1.715 . S
Fe435 O438 1.886 1_565 S
Fe435 O442 1.935 . S
Fe435 O447 2.077 1_565 S
Fe435 O453 1.935 . S
Fe435 O457 2.077 1_565 S
O436 Fe432 1.715 . S
O436 Fe434 1.886 1_565 S
O437 Fe434 1.715 . S
O437 Fe439 1.886 . S
O438 Fe435 1.886 1_545 S
O438 Fe439 1.715 . S
Fe439 O437 1.886 . S
Fe439 O438 1.715 . S
Fe439 O443 2.077 . S
Fe439 O448 1.935 . S
Fe439 O450 2.077 . S
Fe439 O458 1.935 . S
C440 O452 1.381 . S
C440 O453 1.421 . S
O441 Fe432 2.077 . S
O441 C454 1.381 . S
O442 Fe435 1.935 . S
O442 C454 1.421 . S
O443 Fe439 2.077 . S
O443 C459 1.381 . S
O444 Fe434 1.935 . S
O444 C459 1.421 . S
O445 Fe434 2.077 1_565 S
O445 C449 1.381 . S
O446 Fe432 1.935 . S
O446 C449 1.421 . S
O447 Fe435 2.077 1_545 S
O447 C455 1.381 . S
O448 Fe439 1.935 . S
O448 C455 1.421 . S
C449 O445 1.381 . S
C449 O446 1.421 . S
O450 Fe439 2.077 . S
O450 C462 1.381 . S
O451 Fe434 1.935 . S
O451 C462 1.421 . S
O452 Fe432 2.077 . S
O452 C440 1.381 . S
O453 Fe435 1.935 . S
O453 C440 1.421 . S
C454 O441 1.381 . S
C454 O442 1.421 . S
C455 O447 1.381 . S
C455 O448 1.421 . S
C456 O457 1.381 . S
C456 O458 1.421 . S
O457 Fe435 2.077 1_545 S
O457 C456 1.381 . S
O458 Fe439 1.935 . S
O458 C456 1.421 . S
C459 O443 1.381 . S
C459 O444 1.421 . S
O460 Fe434 2.077 1_565 S
O460 C463 1.381 . S
O461 Fe432 1.935 . S
O461 C463 1.421 . S
C462 O450 1.381 . S
C462 O451 1.421 . S
C463 O460 1.381 . S
C463 O461 1.421 . S
H464 C472 0.950 . S
H465 C477 0.950 . S
H466 C474 0.950 . S
H467 C476 0.950 . S
H468 C478 0.950 . S
H469 C480 0.950 . S
H470 C482 0.950 . S
H471 C483 0.950 . S
C472 H464 0.950 . S
C472 C473 1.386 . S
C472 C474 1.391 . S
C473 C472 1.386 . S
C473 C477 1.393 . S
C474 H466 0.950 . S
C474 C472 1.391 . S
C474 C475 1.400 . S
C475 C474 1.400 . S
C475 C476 1.398 . S
C475 C481 1.491 . S
C476 H467 0.950 . S
C476 C475 1.398 . S
C476 C477 1.391 . S
C477 H465 0.950 . S
C477 C473 1.393 . S
C477 C476 1.391 . S
C478 H468 0.950 . S
C478 C479 1.386 . S
C478 C480 1.391 . S
C479 C478 1.386 . S
C479 C483 1.393 . S
C480 H469 0.950 . S
C480 C478 1.391 . S
C480 C481 1.400 . S
C481 C475 1.491 . S
C481 C480 1.400 . S
C481 C482 1.398 . S
C482 H470 0.950 . S
C482 C481 1.398 . S
C482 C483 1.391 . S
C483 H471 0.950 . S
C483 C479 1.393 . S
C483 C482 1.391 . S
H484 C492 0.950 . S
H485 C497 0.950 . S
H486 C494 0.950 . S
H487 C496 0.950 . S
H488 C498 0.950 . S
H489 C500 0.950 . S
H490 C502 0.950 . S
H491 C503 0.950 . S
C492 H484 0.950 . S
C492 C493 1.386 . S
C492 C494 1.391 . S
C493 C492 1.386 . S
C493 C497 1.393 . S
C494 H486 0.950 . S
C494 C492 1.391 . S
C494 C495 1.400 . S
C495 C494 1.400 . S
C495 C496 1.398 . S
C495 C501 1.491 . S
C496 H487 0.950 . S
C496 C495 1.398 . S
C496 C497 1.391 . S
C497 H485 0.950 . S
C497 C493 1.393 . S
C497 C496 1.391 . S
C498 H488 0.950 . S
C498 C499 1.386 . S
C498 C500 1.391 . S
C499 C498 1.386 . S
C499 C503 1.393 . S
C500 H489 0.950 . S
C500 C498 1.391 . S
C500 C501 1.400 . S
C501 C495 1.491 . S
C501 C500 1.400 . S
C501 C502 1.398 . S
C502 H490 0.950 . S
C502 C501 1.398 . S
C502 C503 1.391 . S
C503 H491 0.950 . S
C503 C499 1.393 . S
C503 C502 1.391 . S
H504 C512 0.950 . S
H505 C517 0.950 . S
H506 C514 0.950 . S
H507 C516 0.950 . S
H508 C518 0.950 . S
H509 C520 0.950 . S
H510 C522 0.950 . S
H511 C523 0.950 . S
C512 H504 0.950 . S
C512 C513 1.386 . S
C512 C514 1.391 . S
C513 C512 1.386 . S
C513 C517 1.393 . S
C514 H506 0.950 . S
C514 C512 1.391 . S
C514 C515 1.400 . S
C515 C514 1.400 . S
C515 C516 1.398 . S
C515 C521 1.491 . S
C516 H507 0.950 . S
C516 C515 1.398 . S
C516 C517 1.391 . S
C517 H505 0.950 . S
C517 C513 1.393 . S
C517 C516 1.391 . S
C518 H508 0.950 . S
C518 C519 1.386 . S
C518 C520 1.391 . S
C519 C518 1.386 . S
C519 C523 1.393 . S
C520 H509 0.950 . S
C520 C518 1.391 . S
C520 C521 1.400 . S
C521 C515 1.491 . S
C521 C520 1.400 . S
C521 C522 1.398 . S
C522 H510 0.950 . S
C522 C521 1.398 . S
C522 C523 1.391 . S
C523 H511 0.950 . S
C523 C519 1.393 . S
C523 C522 1.391 . S
H524 C532 0.950 . S
H525 C537 0.950 . S
H526 C534 0.950 . S
H527 C536 0.950 . S
H528 C538 0.950 . S
H529 C540 0.950 . S
H530 C542 0.950 . S
H531 C543 0.950 . S
C532 H524 0.950 . S
C532 C533 1.386 . S
C532 C534 1.391 . S
C533 C532 1.386 . S
C533 C537 1.393 . S
C534 H526 0.950 . S
C534 C532 1.391 . S
C534 C535 1.400 . S
C535 C534 1.400 . S
C535 C536 1.398 . S
C535 C541 1.491 . S
C536 H527 0.950 . S
C536 C535 1.398 . S
C536 C537 1.391 . S
C537 H525 0.950 . S
C537 C533 1.393 . S
C537 C536 1.391 . S
C538 H528 0.950 . S
C538 C539 1.386 . S
C538 C540 1.391 . S
C539 C538 1.386 . S
C539 C543 1.393 . S
C540 H529 0.950 . S
C540 C538 1.391 . S
C540 C541 1.400 . S
C541 C535 1.491 . S
C541 C540 1.400 . S
C541 C542 1.398 . S
C542 H530 0.950 . S
C542 C541 1.398 . S
C542 C543 1.391 . S
C543 H531 0.950 . S
C543 C539 1.393 . S
C543 C542 1.391 . S
H544 C552 0.950 . S
H545 C557 0.950 . S
H546 C554 0.950 . S
H547 C556 0.950 . S
H548 C558 0.950 . S
H549 C560 0.950 . S
H550 C562 0.950 . S
H551 C563 0.950 . S
C552 H544 0.950 . S
C552 C553 1.386 . S
C552 C554 1.391 . S
C553 C552 1.386 . S
C553 C557 1.393 . S
C554 H546 0.950 . S
C554 C552 1.391 . S
C554 C555 1.400 . S
C555 C554 1.400 . S
C555 C556 1.398 . S
C555 C561 1.491 . S
C556 H547 0.950 . S
C556 C555 1.398 . S
C556 C557 1.391 . S
C557 H545 0.950 . S
C557 C553 1.393 . S
C557 C556 1.391 . S
C558 H548 0.950 . S
C558 C559 1.386 . S
C558 C560 1.391 . S
C559 C558 1.386 . S
C559 C563 1.393 . S
C560 H549 0.950 . S
C560 C558 1.391 . S
C560 C561 1.400 . S
C561 C555 1.491 . S
C561 C560 1.400 . S
C561 C562 1.398 . S
C562 H550 0.950 . S
C562 C561 1.398 . S
C562 C563 1.391 . S
C563 H551 0.950 . S
C563 C559 1.393 . S
C563 C562 1.391 . S
H564 C572 0.950 . S
H565 C577 0.950 . S
H566 C574 0.950 . S
H567 C576 0.950 . S
H568 C578 0.950 . S
H569 C580 0.950 . S
H570 C582 0.950 . S
H571 C583 0.950 . S
C572 H564 0.950 . S
C572 C573 1.386 . S
C572 C574 1.391 . S
C573 C572 1.386 . S
C573 C577 1.393 . S
C574 H566 0.950 . S
C574 C572 1.391 . S
C574 C575 1.400 . S
C575 C574 1.400 . S
C575 C576 1.398 . S
C575 C581 1.491 . S
C576 H567 0.950 . S
C576 C575 1.398 . S
C576 C577 1.391 . S
C577 H565 0.950 . S
C577 C573 1.393 . S
C577 C576 1.391 . S
C578 H568 0.950 . S
C578 C579 1.386 . S
C578 C580 1.391 . S
C579 C578 1.386 . S
C579 C583 1.393 . S
C580 H569 0.950 . S
C580 C578 1.391 . S
C580 C581 1.400 . S
C581 C575 1.491 . S
C581 C580 1.400 . S
C581 C582 1.398 . S
C582 H570 0.950 . S
C582 C581 1.398 . S
C582 C583 1.391 . S
C583 H571 0.950 . S
C583 C579 1.393 . S
C583 C582 1.391 . S
H584 C592 0.950 . S
H585 C597 0.950 . S
H586 C594 0.950 . S
H587 C596 0.950 . S
H588 C598 0.950 . S
H589 C600 0.950 . S
H590 C602 0.950 . S
H591 C603 0.950 . S
C592 H584 0.950 . S
C592 C593 1.386 . S
C592 C594 1.391 . S
C593 C592 1.386 . S
C593 C597 1.393 . S
C594 H586 0.950 . S
C594 C592 1.391 . S
C594 C595 1.400 . S
C595 C594 1.400 . S
C595 C596 1.398 . S
C595 C601 1.491 . S
C596 H587 0.950 . S
C596 C595 1.398 . S
C596 C597 1.391 . S
C597 H585 0.950 . S
C597 C593 1.393 . S
C597 C596 1.391 . S
C598 H588 0.950 . S
C598 C599 1.386 . S
C598 C600 1.391 . S
C599 C598 1.386 . S
C599 C603 1.393 . S
C600 H589 0.950 . S
C600 C598 1.391 . S
C600 C601 1.400 . S
C601 C595 1.491 . S
C601 C600 1.400 . S
C601 C602 1.398 . S
C602 H590 0.950 . S
C602 C601 1.398 . S
C602 C603 1.391 . S
C603 H591 0.950 . S
C603 C599 1.393 . S
C603 C602 1.391 . S
H604 C612 0.950 . S
H605 C617 0.950 . S
H606 C614 0.950 . S
H607 C616 0.950 . S
H608 C618 0.950 . S
H609 C620 0.950 . S
H610 C622 0.950 . S
H611 C623 0.950 . S
C612 H604 0.950 . S
C612 C613 1.386 . S
C612 C614 1.391 . S
C613 C612 1.386 . S
C613 C617 1.393 . S
C614 H606 0.950 . S
C614 C612 1.391 . S
C614 C615 1.400 . S
C615 C614 1.400 . S
C615 C616 1.398 . S
C615 C621 1.491 . S
C616 H607 0.950 . S
C616 C615 1.398 . S
C616 C617 1.391 . S
C617 H605 0.950 . S
C617 C613 1.393 . S
C617 C616 1.391 . S
C618 H608 0.950 . S
C618 C619 1.386 . S
C618 C620 1.391 . S
C619 C618 1.386 . S
C619 C623 1.393 . S
C620 H609 0.950 . S
C620 C618 1.391 . S
C620 C621 1.400 . S
C621 C615 1.491 . S
C621 C620 1.400 . S
C621 C622 1.398 . S
C622 H610 0.950 . S
C622 C621 1.398 . S
C622 C623 1.391 . S
C623 H611 0.950 . S
C623 C619 1.393 . S
C623 C622 1.391 . S
H624 C632 0.950 . S
H625 C637 0.950 . S
H626 C634 0.950 . S
H627 C636 0.950 . S
H628 C638 0.950 . S
H629 C640 0.950 . S
H630 C642 0.950 . S
H631 C643 0.950 . S
C632 H624 0.950 . S
C632 C633 1.386 . S
C632 C634 1.391 . S
C633 C632 1.386 . S
C633 C637 1.393 . S
C634 H626 0.950 . S
C634 C632 1.391 . S
C634 C635 1.400 . S
C635 C634 1.400 . S
C635 C636 1.398 . S
C635 C641 1.491 . S
C636 H627 0.950 . S
C636 C635 1.398 . S
C636 C637 1.391 . S
C637 H625 0.950 . S
C637 C633 1.393 . S
C637 C636 1.391 . S
C638 H628 0.950 . S
C638 C639 1.386 . S
C638 C640 1.391 . S
C639 C638 1.386 . S
C639 C643 1.393 . S
C640 H629 0.950 . S
C640 C638 1.391 . S
C640 C641 1.400 . S
C641 C635 1.491 . S
C641 C640 1.400 . S
C641 C642 1.398 . S
C642 H630 0.950 . S
C642 C641 1.398 . S
C642 C643 1.391 . S
C643 H631 0.950 . S
C643 C639 1.393 . S
C643 C642 1.391 . S
H644 C652 0.950 . S
H645 C657 0.950 . S
H646 C654 0.950 . S
H647 C656 0.950 . S
H648 C658 0.950 . S
H649 C660 0.950 . S
H650 C662 0.950 . S
H651 C663 0.950 . S
C652 H644 0.950 . S
C652 C653 1.386 . S
C652 C654 1.391 . S
C653 C652 1.386 . S
C653 C657 1.393 . S
C654 H646 0.950 . S
C654 C652 1.391 . S
C654 C655 1.400 . S
C655 C654 1.400 . S
C655 C656 1.398 . S
C655 C661 1.491 . S
C656 H647 0.950 . S
C656 C655 1.398 . S
C656 C657 1.391 . S
C657 H645 0.950 . S
C657 C653 1.393 . S
C657 C656 1.391 . S
C658 H648 0.950 . S
C658 C659 1.386 . S
C658 C660 1.391 . S
C659 C658 1.386 . S
C659 C663 1.393 . S
C660 H649 0.950 . S
C660 C658 1.391 . S
C660 C661 1.400 . S
C661 C655 1.491 . S
C661 C660 1.400 . S
C661 C662 1.398 . S
C662 H650 0.950 . S
C662 C661 1.398 . S
C662 C663 1.391 . S
C663 H651 0.950 . S
C663 C659 1.393 . S
C663 C662 1.391 . S
H664 C672 0.950 . S
H665 C677 0.950 . S
H666 C674 0.950 . S
H667 C676 0.950 . S
H668 C678 0.950 . S
H669 C680 0.950 . S
H670 C682 0.950 . S
H671 C683 0.950 . S
C672 H664 0.950 . S
C672 C673 1.386 . S
C672 C674 1.391 . S
C673 C672 1.386 . S
C673 C677 1.393 . S
C674 H666 0.950 . S
C674 C672 1.391 . S
C674 C675 1.400 . S
C675 C674 1.400 . S
C675 C676 1.398 . S
C675 C681 1.491 . S
C676 H667 0.950 . S
C676 C675 1.398 . S
C676 C677 1.391 . S
C677 H665 0.950 . S
C677 C673 1.393 . S
C677 C676 1.391 . S
C678 H668 0.950 . S
C678 C679 1.386 . S
C678 C680 1.391 . S
C679 C678 1.386 . S
C679 C683 1.393 . S
C680 H669 0.950 . S
C680 C678 1.391 . S
C680 C681 1.400 . S
C681 C675 1.491 . S
C681 C680 1.400 . S
C681 C682 1.398 . S
C682 H670 0.950 . S
C682 C681 1.398 . S
C682 C683 1.391 . S
C683 H671 0.950 . S
C683 C679 1.393 . S
C683 C682 1.391 . S
H684 C692 0.950 . S
H685 C697 0.950 . S
H686 C694 0.950 . S
H687 C696 0.950 . S
H688 C698 0.950 . S
H689 C700 0.950 . S
H690 C702 0.950 . S
H691 C703 0.950 . S
C692 H684 0.950 . S
C692 C693 1.386 . S
C692 C694 1.391 . S
C693 C692 1.386 . S
C693 C697 1.393 . S
C694 H686 0.950 . S
C694 C692 1.391 . S
C694 C695 1.400 . S
C695 C694 1.400 . S
C695 C696 1.398 . S
C695 C701 1.491 . S
C696 H687 0.950 . S
C696 C695 1.398 . S
C696 C697 1.391 . S
C697 H685 0.950 . S
C697 C693 1.393 . S
C697 C696 1.391 . S
C698 H688 0.950 . S
C698 C699 1.386 . S
C698 C700 1.391 . S
C699 C698 1.386 . S
C699 C703 1.393 . S
C700 H689 0.950 . S
C700 C698 1.391 . S
C700 C701 1.400 . S
C701 C695 1.491 . S
C701 C700 1.400 . S
C701 C702 1.398 . S
C702 H690 0.950 . S
C702 C701 1.398 . S
C702 C703 1.391 . S
C703 H691 0.950 . S
C703 C699 1.393 . S
C703 C702 1.391 . S
H704 C712 0.950 . S
H705 C717 0.950 . S
H706 C714 0.950 . S
H707 C716 0.950 . S
H708 C718 0.950 . S
H709 C720 0.950 . S
H710 C722 0.950 . S
H711 C723 0.950 . S
C712 H704 0.950 . S
C712 C713 1.386 . S
C712 C714 1.391 . S
C713 C712 1.386 . S
C713 C717 1.393 . S
C714 H706 0.950 . S
C714 C712 1.391 . S
C714 C715 1.400 . S
C715 C714 1.400 . S
C715 C716 1.398 . S
C715 C721 1.491 . S
C716 H707 0.950 . S
C716 C715 1.398 . S
C716 C717 1.391 . S
C717 H705 0.950 . S
C717 C713 1.393 . S
C717 C716 1.391 . S
C718 H708 0.950 . S
C718 C719 1.386 . S
C718 C720 1.391 . S
C719 C718 1.386 . S
C719 C723 1.393 . S
C720 H709 0.950 . S
C720 C718 1.391 . S
C720 C721 1.400 . S
C721 C715 1.491 . S
C721 C720 1.400 . S
C721 C722 1.398 . S
C722 H710 0.950 . S
C722 C721 1.398 . S
C722 C723 1.391 . S
C723 H711 0.950 . S
C723 C719 1.393 . S
C723 C722 1.391 . S
H724 C732 0.950 . S
H725 C737 0.950 . S
H726 C734 0.950 . S
H727 C736 0.950 . S
H728 C738 0.950 . S
H729 C740 0.950 . S
H730 C742 0.950 . S
H731 C743 0.950 . S
C732 H724 0.950 . S
C732 C733 1.386 . S
C732 C734 1.391 . S
C733 C732 1.386 . S
C733 C737 1.393 . S
C734 H726 0.950 . S
C734 C732 1.391 . S
C734 C735 1.400 . S
C735 C734 1.400 . S
C735 C736 1.398 . S
C735 C741 1.491 . S
C736 H727 0.950 . S
C736 C735 1.398 . S
C736 C737 1.391 . S
C737 H725 0.950 . S
C737 C733 1.393 . S
C737 C736 1.391 . S
C738 H728 0.950 . S
C738 C739 1.386 . S
C738 C740 1.391 . S
C739 C738 1.386 . S
C739 C743 1.393 . S
C740 H729 0.950 . S
C740 C738 1.391 . S
C740 C741 1.400 . S
C741 C735 1.491 . S
C741 C740 1.400 . S
C741 C742 1.398 . S
C742 H730 0.950 . S
C742 C741 1.398 . S
C742 C743 1.391 . S
C743 H731 0.950 . S
C743 C739 1.393 . S
C743 C742 1.391 . S
H744 C752 0.950 . S
H745 C757 0.950 . S
H746 C754 0.950 . S
H747 C756 0.950 . S
H748 C758 0.950 . S
H749 C760 0.950 . S
H750 C762 0.950 . S
H751 C763 0.950 . S
C752 H744 0.950 . S
C752 C753 1.386 . S
C752 C754 1.391 . S
C753 C752 1.386 . S
C753 C757 1.393 . S
C754 H746 0.950 . S
C754 C752 1.391 . S
C754 C755 1.400 . S
C755 C754 1.400 . S
C755 C756 1.398 . S
C755 C761 1.491 . S
C756 H747 0.950 . S
C756 C755 1.398 . S
C756 C757 1.391 . S
C757 H745 0.950 . S
C757 C753 1.393 . S
C757 C756 1.391 . S
C758 H748 0.950 . S
C758 C759 1.386 . S
C758 C760 1.391 . S
C759 C758 1.386 . S
C759 C763 1.393 . S
C760 H749 0.950 . S
C760 C758 1.391 . S
C760 C761 1.400 . S
C761 C755 1.491 . S
C761 C760 1.400 . S
C761 C762 1.398 . S
C762 H750 0.950 . S
C762 C761 1.398 . S
C762 C763 1.391 . S
C763 H751 0.950 . S
C763 C759 1.393 . S
C763 C762 1.391 . S
H764 C772 0.950 . S
H765 C777 0.950 . S
H766 C774 0.950 . S
H767 C776 0.950 . S
H768 C778 0.950 . S
H769 C780 0.950 . S
H770 C782 0.950 . S
H771 C783 0.950 . S
C772 H764 0.950 . S
C772 C773 1.386 . S
C772 C774 1.391 . S
C773 C772 1.386 . S
C773 C777 1.393 . S
C774 H766 0.950 . S
C774 C772 1.391 . S
C774 C775 1.400 . S
C775 C774 1.400 . S
C775 C776 1.398 . S
C775 C781 1.491 . S
C776 H767 0.950 . S
C776 C775 1.398 . S
C776 C777 1.391 . S
C777 H765 0.950 . S
C777 C773 1.393 . S
C777 C776 1.391 . S
C778 H768 0.950 . S
C778 C779 1.386 . S
C778 C780 1.391 . S
C779 C778 1.386 . S
C779 C783 1.393 . S
C780 H769 0.950 . S
C780 C778 1.391 . S
C780 C781 1.400 . S
C781 C775 1.491 . S
C781 C780 1.400 . S
C781 C782 1.398 . S
C782 H770 0.950 . S
C782 C781 1.398 . S
C782 C783 1.391 . S
C783 H771 0.950 . S
C783 C779 1.393 . S
C783 C782 1.391 . S
H784 C792 0.950 . S
H785 C797 0.950 . S
H786 C794 0.950 . S
H787 C796 0.950 . S
H788 C798 0.950 . S
H789 C800 0.950 . S
H790 C802 0.950 . S
H791 C803 0.950 . S
C792 H784 0.950 . S
C792 C793 1.386 . S
C792 C794 1.391 . S
C793 C792 1.386 . S
C793 C797 1.393 . S
C794 H786 0.950 . S
C794 C792 1.391 . S
C794 C795 1.400 . S
C795 C794 1.400 . S
C795 C796 1.398 . S
C795 C801 1.491 . S
C796 H787 0.950 . S
C796 C795 1.398 . S
C796 C797 1.391 . S
C797 H785 0.950 . S
C797 C793 1.393 . S
C797 C796 1.391 . S
C798 H788 0.950 . S
C798 C799 1.386 . S
C798 C800 1.391 . S
C799 C798 1.386 . S
C799 C803 1.393 . S
C800 H789 0.950 . S
C800 C798 1.391 . S
C800 C801 1.400 . S
C801 C795 1.491 . S
C801 C800 1.400 . S
C801 C802 1.398 . S
C802 H790 0.950 . S
C802 C801 1.398 . S
C802 C803 1.391 . S
C803 H791 0.950 . S
C803 C799 1.393 . S
C803 C802 1.391 . S
H804 C812 0.950 . S
H805 C817 0.950 . S
H806 C814 0.950 . S
H807 C816 0.950 . S
H808 C818 0.950 . S
H809 C820 0.950 . S
H810 C822 0.950 . S
H811 C823 0.950 . S
C812 H804 0.950 . S
C812 C813 1.386 . S
C812 C814 1.391 . S
C813 C812 1.386 . S
C813 C817 1.393 . S
C814 H806 0.950 . S
C814 C812 1.391 . S
C814 C815 1.400 . S
C815 C814 1.400 . S
C815 C816 1.398 . S
C815 C821 1.491 . S
C816 H807 0.950 . S
C816 C815 1.398 . S
C816 C817 1.391 . S
C817 H805 0.950 . S
C817 C813 1.393 . S
C817 C816 1.391 . S
C818 H808 0.950 . S
C818 C819 1.386 . S
C818 C820 1.391 . S
C819 C818 1.386 . S
C819 C823 1.393 . S
C820 H809 0.950 . S
C820 C818 1.391 . S
C820 C821 1.400 . S
C821 C815 1.491 . S
C821 C820 1.400 . S
C821 C822 1.398 . S
C822 H810 0.950 . S
C822 C821 1.398 . S
C822 C823 1.391 . S
C823 H811 0.950 . S
C823 C819 1.393 . S
C823 C822 1.391 . S
H824 C832 0.950 . S
H825 C837 0.950 . S
H826 C834 0.950 . S
H827 C836 0.950 . S
H828 C838 0.950 . S
H829 C840 0.950 . S
H830 C842 0.950 . S
H831 C843 0.950 . S
C832 H824 0.950 . S
C832 C833 1.386 . S
C832 C834 1.391 . S
C833 C832 1.386 . S
C833 C837 1.393 . S
C834 H826 0.950 . S
C834 C832 1.391 . S
C834 C835 1.400 . S
C835 C834 1.400 . S
C835 C836 1.398 . S
C835 C841 1.491 . S
C836 H827 0.950 . S
C836 C835 1.398 . S
C836 C837 1.391 . S
C837 H825 0.950 . S
C837 C833 1.393 . S
C837 C836 1.391 . S
C838 H828 0.950 . S
C838 C839 1.386 . S
C838 C840 1.391 . S
C839 C838 1.386 . S
C839 C843 1.393 . S
C840 H829 0.950 . S
C840 C838 1.391 . S
C840 C841 1.400 . S
C841 C835 1.491 . S
C841 C840 1.400 . S
C841 C842 1.398 . S
C842 H830 0.950 . S
C842 C841 1.398 . S
C842 C843 1.391 . S
C843 H831 0.950 . S
C843 C839 1.393 . S
C843 C842 1.391 . S
H844 C852 0.950 . S
H845 C857 0.950 . S
H846 C854 0.950 . S
H847 C856 0.950 . S
H848 C858 0.950 . S
H849 C860 0.950 . S
H850 C862 0.950 . S
H851 C863 0.950 . S
C852 H844 0.950 . S
C852 C853 1.386 . S
C852 C854 1.391 . S
C853 C852 1.386 . S
C853 C857 1.393 . S
C854 H846 0.950 . S
C854 C852 1.391 . S
C854 C855 1.400 . S
C855 C854 1.400 . S
C855 C856 1.398 . S
C855 C861 1.491 . S
C856 H847 0.950 . S
C856 C855 1.398 . S
C856 C857 1.391 . S
C857 H845 0.950 . S
C857 C853 1.393 . S
C857 C856 1.391 . S
C858 H848 0.950 . S
C858 C859 1.386 . S
C858 C860 1.391 . S
C859 C858 1.386 . S
C859 C863 1.393 . S
C860 H849 0.950 . S
C860 C858 1.391 . S
C860 C861 1.400 . S
C861 C855 1.491 . S
C861 C860 1.400 . S
C861 C862 1.398 . S
C862 H850 0.950 . S
C862 C861 1.398 . S
C862 C863 1.391 . S
C863 H851 0.950 . S
C863 C859 1.393 . S
C863 C862 1.391 . S
H864 C872 0.950 . S
H865 C877 0.950 . S
H866 C874 0.950 . S
H867 C876 0.950 . S
H868 C878 0.950 . S
H869 C880 0.950 . S
H870 C882 0.950 . S
H871 C883 0.950 . S
C872 H864 0.950 . S
C872 C873 1.386 . S
C872 C874 1.391 . S
C873 C872 1.386 . S
C873 C877 1.393 . S
C874 H866 0.950 . S
C874 C872 1.391 . S
C874 C875 1.400 . S
C875 C874 1.400 . S
C875 C876 1.398 . S
C875 C881 1.491 . S
C876 H867 0.950 . S
C876 C875 1.398 . S
C876 C877 1.391 . S
C877 H865 0.950 . S
C877 C873 1.393 . S
C877 C876 1.391 . S
C878 H868 0.950 . S
C878 C879 1.386 . S
C878 C880 1.391 . S
C879 C878 1.386 . S
C879 C883 1.393 . S
C880 H869 0.950 . S
C880 C878 1.391 . S
C880 C881 1.400 . S
C881 C875 1.491 . S
C881 C880 1.400 . S
C881 C882 1.398 . S
C882 H870 0.950 . S
C882 C881 1.398 . S
C882 C883 1.391 . S
C883 H871 0.950 . S
C883 C879 1.393 . S
C883 C882 1.391 . S
H884 C892 0.950 . S
H885 C897 0.950 . S
H886 C894 0.950 . S
H887 C896 0.950 . S
H888 C898 0.950 . S
H889 C900 0.950 . S
H890 C902 0.950 . S
H891 C903 0.950 . S
C892 H884 0.950 . S
C892 C893 1.386 . S
C892 C894 1.391 . S
C893 C892 1.386 . S
C893 C897 1.393 . S
C894 H886 0.950 . S
C894 C892 1.391 . S
C894 C895 1.400 . S
C895 C894 1.400 . S
C895 C896 1.398 . S
C895 C901 1.491 . S
C896 H887 0.950 . S
C896 C895 1.398 . S
C896 C897 1.391 . S
C897 H885 0.950 . S
C897 C893 1.393 . S
C897 C896 1.391 . S
C898 H888 0.950 . S
C898 C899 1.386 . S
C898 C900 1.391 . S
C899 C898 1.386 . S
C899 C903 1.393 . S
C900 H889 0.950 . S
C900 C898 1.391 . S
C900 C901 1.400 . S
C901 C895 1.491 . S
C901 C900 1.400 . S
C901 C902 1.398 . S
C902 H890 0.950 . S
C902 C901 1.398 . S
C902 C903 1.391 . S
C903 H891 0.950 . S
C903 C899 1.393 . S
C903 C902 1.391 . S
H904 C912 0.950 . S
H905 C917 0.950 . S
H906 C914 0.950 . S
H907 C916 0.950 . S
H908 C918 0.950 . S
H909 C920 0.950 . S
H910 C922 0.950 . S
H911 C923 0.950 . S
C912 H904 0.950 . S
C912 C913 1.386 . S
C912 C914 1.391 . S
C913 C912 1.386 . S
C913 C917 1.393 . S
C914 H906 0.950 . S
C914 C912 1.391 . S
C914 C915 1.400 . S
C915 C914 1.400 . S
C915 C916 1.398 . S
C915 C921 1.491 . S
C916 H907 0.950 . S
C916 C915 1.398 . S
C916 C917 1.391 . S
C917 H905 0.950 . S
C917 C913 1.393 . S
C917 C916 1.391 . S
C918 H908 0.950 . S
C918 C919 1.386 . S
C918 C920 1.391 . S
C919 C918 1.386 . S
C919 C923 1.393 . S
C920 H909 0.950 . S
C920 C918 1.391 . S
C920 C921 1.400 . S
C921 C915 1.491 . S
C921 C920 1.400 . S
C921 C922 1.398 . S
C922 H910 0.950 . S
C922 C921 1.398 . S
C922 C923 1.391 . S
C923 H911 0.950 . S
C923 C919 1.393 . S
C923 C922 1.391 . S
H924 C932 0.950 . S
H925 C937 0.950 . S
H926 C934 0.950 . S
H927 C936 0.950 . S
H928 C938 0.950 . S
H929 C940 0.950 . S
H930 C942 0.950 . S
H931 C943 0.950 . S
C932 H924 0.950 . S
C932 C933 1.386 . S
C932 C934 1.391 . S
C933 C932 1.386 . S
C933 C937 1.393 . S
C934 H926 0.950 . S
C934 C932 1.391 . S
C934 C935 1.400 . S
C935 C934 1.400 . S
C935 C936 1.398 . S
C935 C941 1.491 . S
C936 H927 0.950 . S
C936 C935 1.398 . S
C936 C937 1.391 . S
C937 H925 0.950 . S
C937 C933 1.393 . S
C937 C936 1.391 . S
C938 H928 0.950 . S
C938 C939 1.386 . S
C938 C940 1.391 . S
C939 C938 1.386 . S
C939 C943 1.393 . S
C940 H929 0.950 . S
C940 C938 1.391 . S
C940 C941 1.400 . S
C941 C935 1.491 . S
C941 C940 1.400 . S
C941 C942 1.398 . S
C942 H930 0.950 . S
C942 C941 1.398 . S
C942 C943 1.391 . S
C943 H931 0.950 . S
C943 C939 1.393 . S
C943 C942 1.391 . S
H944 C952 0.950 . S
H945 C957 0.950 . S
H946 C954 0.950 . S
H947 C956 0.950 . S
H948 C958 0.950 . S
H949 C960 0.950 . S
H950 C962 0.950 . S
H951 C963 0.950 . S
C952 H944 0.950 . S
C952 C953 1.386 . S
C952 C954 1.391 . S
C953 C952 1.386 . S
C953 C957 1.393 . S
C954 H946 0.950 . S
C954 C952 1.391 . S
C954 C955 1.400 . S
C955 C954 1.400 . S
C955 C956 1.398 . S
C955 C961 1.491 . S
C956 H947 0.950 . S
C956 C955 1.398 . S
C956 C957 1.391 . S
C957 H945 0.950 . S
C957 C953 1.393 . S
C957 C956 1.391 . S
C958 H948 0.950 . S
C958 C959 1.386 . S
C958 C960 1.391 . S
C959 C958 1.386 . S
C959 C963 1.393 . S
C960 H949 0.950 . S
C960 C958 1.391 . S
C960 C961 1.400 . S
C961 C955 1.491 . S
C961 C960 1.400 . S
C961 C962 1.398 . S
C962 H950 0.950 . S
C962 C961 1.398 . S
C962 C963 1.391 . S
C963 H951 0.950 . S
C963 C959 1.393 . S
C963 C962 1.391 . S
H964 C972 0.950 . S
H965 C977 0.950 . S
H966 C974 0.950 . S
H967 C976 0.950 . S
H968 C978 0.950 . S
H969 C980 0.950 . S
H970 C982 0.950 . S
H971 C983 0.950 . S
C972 H964 0.950 . S
C972 C973 1.386 . S
C972 C974 1.391 . S
C973 C972 1.386 . S
C973 C977 1.393 . S
C974 H966 0.950 . S
C974 C972 1.391 . S
C974 C975 1.400 . S
C975 C974 1.400 . S
C975 C976 1.398 . S
C975 C981 1.491 . S
C976 H967 0.950 . S
C976 C975 1.398 . S
C976 C977 1.391 . S
C977 H965 0.950 . S
C977 C973 1.393 . S
C977 C976 1.391 . S
C978 H968 0.950 . S
C978 C979 1.386 . S
C978 C980 1.391 . S
C979 C978 1.386 . S
C979 C983 1.393 . S
C980 H969 0.950 . S
C980 C978 1.391 . S
C980 C981 1.400 . S
C981 C975 1.491 . S
C981 C980 1.400 . S
C981 C982 1.398 . S
C982 H970 0.950 . S
C982 C981 1.398 . S
C982 C983 1.391 . S
C983 H971 0.950 . S
C983 C979 1.393 . S
C983 C982 1.391 . S
H984 C992 0.950 . S
H985 C997 0.950 . S
H986 C994 0.950 . S
H987 C996 0.950 . S
H988 C998 0.950 . S
H989 C1000 0.950 . S
H990 C1002 0.950 . S
H991 C1003 0.950 . S
C992 H984 0.950 . S
C992 C993 1.386 . S
C992 C994 1.391 . S
C993 C992 1.386 . S
C993 C997 1.393 . S
C994 H986 0.950 . S
C994 C992 1.391 . S
C994 C995 1.400 . S
C995 C994 1.400 . S
C995 C996 1.398 . S
C995 C1001 1.491 . S
C996 H987 0.950 . S
C996 C995 1.398 . S
C996 C997 1.391 . S
C997 H985 0.950 . S
C997 C993 1.393 . S
C997 C996 1.391 . S
C998 H988 0.950 . S
C998 C999 1.386 . S
C998 C1000 1.391 . S
C999 C998 1.386 . S
C999 C1003 1.393 . S
C1000 H989 0.950 . S
C1000 C998 1.391 . S
C1000 C1001 1.400 . S
C1001 C995 1.491 . S
C1001 C1000 1.400 . S
C1001 C1002 1.398 . S
C1002 H990 0.950 . S
C1002 C1001 1.398 . S
C1002 C1003 1.391 . S
C1003 H991 0.950 . S
C1003 C999 1.393 . S
C1003 C1002 1.391 . S
H1004 C1012 0.950 . S
H1005 C1017 0.950 . S
H1006 C1014 0.950 . S
H1007 C1016 0.950 . S
H1008 C1018 0.950 . S
H1009 C1020 0.950 . S
H1010 C1022 0.950 . S
H1011 C1023 0.950 . S
C1012 H1004 0.950 . S
C1012 C1013 1.386 . S
C1012 C1014 1.391 . S
C1013 C1012 1.386 . S
C1013 C1017 1.393 . S
C1014 H1006 0.950 . S
C1014 C1012 1.391 . S
C1014 C1015 1.400 . S
C1015 C1014 1.400 . S
C1015 C1016 1.398 . S
C1015 C1021 1.491 . S
C1016 H1007 0.950 . S
C1016 C1015 1.398 . S
C1016 C1017 1.391 . S
C1017 H1005 0.950 . S
C1017 C1013 1.393 . S
C1017 C1016 1.391 . S
C1018 H1008 0.950 . S
C1018 C1019 1.386 . S
C1018 C1020 1.391 . S
C1019 C1018 1.386 . S
C1019 C1023 1.393 . S
C1020 H1009 0.950 . S
C1020 C1018 1.391 . S
C1020 C1021 1.400 . S
C1021 C1015 1.491 . S
C1021 C1020 1.400 . S
C1021 C1022 1.398 . S
C1022 H1010 0.950 . S
C1022 C1021 1.398 . S
C1022 C1023 1.391 . S
C1023 H1011 0.950 . S
C1023 C1019 1.393 . S
C1023 C1022 1.391 . S
H1024 C1032 0.950 . S
H1025 C1037 0.950 . S
H1026 C1034 0.950 . S
H1027 C1036 0.950 . S
H1028 C1038 0.950 . S
H1029 C1040 0.950 . S
H1030 C1042 0.950 . S
H1031 C1043 0.950 . S
C1032 H1024 0.950 . S
C1032 C1033 1.386 . S
C1032 C1034 1.391 . S
C1033 C1032 1.386 . S
C1033 C1037 1.393 . S
C1034 H1026 0.950 . S
C1034 C1032 1.391 . S
C1034 C1035 1.400 . S
C1035 C1034 1.400 . S
C1035 C1036 1.398 . S
C1035 C1041 1.491 . S
C1036 H1027 0.950 . S
C1036 C1035 1.398 . S
C1036 C1037 1.391 . S
C1037 H1025 0.950 . S
C1037 C1033 1.393 . S
C1037 C1036 1.391 . S
C1038 H1028 0.950 . S
C1038 C1039 1.386 . S
C1038 C1040 1.391 . S
C1039 C1038 1.386 . S
C1039 C1043 1.393 . S
C1040 H1029 0.950 . S
C1040 C1038 1.391 . S
C1040 C1041 1.400 . S
C1041 C1035 1.491 . S
C1041 C1040 1.400 . S
C1041 C1042 1.398 . S
C1042 H1030 0.950 . S
C1042 C1041 1.398 . S
C1042 C1043 1.391 . S
C1043 H1031 0.950 . S
C1043 C1039 1.393 . S
C1043 C1042 1.391 . S
H1044 C1052 0.950 . S
H1045 C1057 0.950 . S
H1046 C1054 0.950 . S
H1047 C1056 0.950 . S
H1048 C1058 0.950 . S
H1049 C1060 0.950 . S
H1050 C1062 0.950 . S
H1051 C1063 0.950 . S
C1052 H1044 0.950 . S
C1052 C1053 1.386 . S
C1052 C1054 1.391 . S
C1053 C1052 1.386 . S
C1053 C1057 1.393 . S
C1054 H1046 0.950 . S
C1054 C1052 1.391 . S
C1054 C1055 1.400 . S
C1055 C1054 1.400 . S
C1055 C1056 1.398 . S
C1055 C1061 1.491 . S
C1056 H1047 0.950 . S
C1056 C1055 1.398 . S
C1056 C1057 1.391 . S
C1057 H1045 0.950 . S
C1057 C1053 1.393 . S
C1057 C1056 1.391 . S
C1058 H1048 0.950 . S
C1058 C1059 1.386 . S
C1058 C1060 1.391 . S
C1059 C1058 1.386 . S
C1059 C1063 1.393 . S
C1060 H1049 0.950 . S
C1060 C1058 1.391 . S
C1060 C1061 1.400 . S
C1061 C1055 1.491 . S
C1061 C1060 1.400 . S
C1061 C1062 1.398 . S
C1062 H1050 0.950 . S
C1062 C1061 1.398 . S
C1062 C1063 1.391 . S
C1063 H1051 0.950 . S
C1063 C1059 1.393 . S
C1063 C1062 1.391 . S
H1064 C1072 0.950 . S
H1065 C1077 0.950 . S
H1066 C1074 0.950 . S
H1067 C1076 0.950 . S
H1068 C1078 0.950 . S
H1069 C1080 0.950 . S
H1070 C1082 0.950 . S
H1071 C1083 0.950 . S
C1072 H1064 0.950 . S
C1072 C1073 1.386 . S
C1072 C1074 1.391 . S
C1073 C1072 1.386 . S
C1073 C1077 1.393 . S
C1074 H1066 0.950 . S
C1074 C1072 1.391 . S
C1074 C1075 1.400 . S
C1075 C1074 1.400 . S
C1075 C1076 1.398 . S
C1075 C1081 1.491 . S
C1076 H1067 0.950 . S
C1076 C1075 1.398 . S
C1076 C1077 1.391 . S
C1077 H1065 0.950 . S
C1077 C1073 1.393 . S
C1077 C1076 1.391 . S
C1078 H1068 0.950 . S
C1078 C1079 1.386 . S
C1078 C1080 1.391 . S
C1079 C1078 1.386 . S
C1079 C1083 1.393 . S
C1080 H1069 0.950 . S
C1080 C1078 1.391 . S
C1080 C1081 1.400 . S
C1081 C1075 1.491 . S
C1081 C1080 1.400 . S
C1081 C1082 1.398 . S
C1082 H1070 0.950 . S
C1082 C1081 1.398 . S
C1082 C1083 1.391 . S
C1083 H1071 0.950 . S
C1083 C1079 1.393 . S
C1083 C1082 1.391 . S
H1084 C1092 0.950 . S
H1085 C1097 0.950 . S
H1086 C1094 0.950 . S
H1087 C1096 0.950 . S
H1088 C1098 0.950 . S
H1089 C1100 0.950 . S
H1090 C1102 0.950 . S
H1091 C1103 0.950 . S
C1092 H1084 0.950 . S
C1092 C1093 1.386 . S
C1092 C1094 1.391 . S
C1093 C1092 1.386 . S
C1093 C1097 1.393 . S
C1094 H1086 0.950 . S
C1094 C1092 1.391 . S
C1094 C1095 1.400 . S
C1095 C1094 1.400 . S
C1095 C1096 1.398 . S
C1095 C1101 1.491 . S
C1096 H1087 0.950 . S
C1096 C1095 1.398 . S
C1096 C1097 1.391 . S
C1097 H1085 0.950 . S
C1097 C1093 1.393 . S
C1097 C1096 1.391 . S
C1098 H1088 0.950 . S
C1098 C1099 1.386 . S
C1098 C1100 1.391 . S
C1099 C1098 1.386 . S
C1099 C1103 1.393 . S
C1100 H1089 0.950 . S
C1100 C1098 1.391 . S
C1100 C1101 1.400 . S
C1101 C1095 1.491 . S
C1101 C1100 1.400 . S
C1101 C1102 1.398 . S
C1102 H1090 0.950 . S
C1102 C1101 1.398 . S
C1102 C1103 1.391 . S
C1103 H1091 0.950 . S
C1103 C1099 1.393 . S
C1103 C1102 1.391 . S
H1104 C1112 0.950 . S
H1105 C1117 0.950 . S
H1106 C1114 0.950 . S
H1107 C1116 0.950 . S
H1108 C1118 0.950 . S
H1109 C1120 0.950 . S
H1110 C1122 0.950 . S
H1111 C1123 0.950 . S
C1112 H1104 0.950 . S
C1112 C1113 1.386 . S
C1112 C1114 1.391 . S
C1113 C1112 1.386 . S
C1113 C1117 1.393 . S
C1114 H1106 0.950 . S
C1114 C1112 1.391 . S
C1114 C1115 1.400 . S
C1115 C1114 1.400 . S
C1115 C1116 1.398 . S
C1115 C1121 1.491 . S
C1116 H1107 0.950 . S
C1116 C1115 1.398 . S
C1116 C1117 1.391 . S
C1117 H1105 0.950 . S
C1117 C1113 1.393 . S
C1117 C1116 1.391 . S
C1118 H1108 0.950 . S
C1118 C1119 1.386 . S
C1118 C1120 1.391 . S
C1119 C1118 1.386 . S
C1119 C1123 1.393 . S
C1120 H1109 0.950 . S
C1120 C1118 1.391 . S
C1120 C1121 1.400 . S
C1121 C1115 1.491 . S
C1121 C1120 1.400 . S
C1121 C1122 1.398 . S
C1122 H1110 0.950 . S
C1122 C1121 1.398 . S
C1122 C1123 1.391 . S
C1123 H1111 0.950 . S
C1123 C1119 1.393 . S
C1123 C1122 1.391 . S
H1124 C1132 0.950 . S
H1125 C1137 0.950 . S
H1126 C1134 0.950 . S
H1127 C1136 0.950 . S
H1128 C1138 0.950 . S
H1129 C1140 0.950 . S
H1130 C1142 0.950 . S
H1131 C1143 0.950 . S
C1132 H1124 0.950 . S
C1132 C1133 1.386 . S
C1132 C1134 1.391 . S
C1133 C1132 1.386 . S
C1133 C1137 1.393 . S
C1134 H1126 0.950 . S
C1134 C1132 1.391 . S
C1134 C1135 1.400 . S
C1135 C1134 1.400 . S
C1135 C1136 1.398 . S
C1135 C1141 1.491 . S
C1136 H1127 0.950 . S
C1136 C1135 1.398 . S
C1136 C1137 1.391 . S
C1137 H1125 0.950 . S
C1137 C1133 1.393 . S
C1137 C1136 1.391 . S
C1138 H1128 0.950 . S
C1138 C1139 1.386 . S
C1138 C1140 1.391 . S
C1139 C1138 1.386 . S
C1139 C1143 1.393 . S
C1140 H1129 0.950 . S
C1140 C1138 1.391 . S
C1140 C1141 1.400 . S
C1141 C1135 1.491 . S
C1141 C1140 1.400 . S
C1141 C1142 1.398 . S
C1142 H1130 0.950 . S
C1142 C1141 1.398 . S
C1142 C1143 1.391 . S
C1143 H1131 0.950 . S
C1143 C1139 1.393 . S
C1143 C1142 1.391 . S
H1144 C1152 0.950 . S
H1145 C1157 0.950 . S
H1146 C1154 0.950 . S
H1147 C1156 0.950 . S
H1148 C1158 0.950 . S
H1149 C1160 0.950 . S
H1150 C1162 0.950 . S
H1151 C1163 0.950 . S
C1152 H1144 0.950 . S
C1152 C1153 1.386 . S
C1152 C1154 1.391 . S
C1153 C1152 1.386 . S
C1153 C1157 1.393 . S
C1154 H1146 0.950 . S
C1154 C1152 1.391 . S
C1154 C1155 1.400 . S
C1155 C1154 1.400 . S
C1155 C1156 1.398 . S
C1155 C1161 1.491 . S
C1156 H1147 0.950 . S
C1156 C1155 1.398 . S
C1156 C1157 1.391 . S
C1157 H1145 0.950 . S
C1157 C1153 1.393 . S
C1157 C1156 1.391 . S
C1158 H1148 0.950 . S
C1158 C1159 1.386 . S
C1158 C1160 1.391 . S
C1159 C1158 1.386 . S
C1159 C1163 1.393 . S
C1160 H1149 0.950 . S
C1160 C1158 1.391 . S
C1160 C1161 1.400 . S
C1161 C1155 1.491 . S
C1161 C1160 1.400 . S
C1161 C1162 1.398 . S
C1162 H1150 0.950 . S
C1162 C1161 1.398 . S
C1162 C1163 1.391 . S
C1163 H1151 0.950 . S
C1163 C1159 1.393 . S
C1163 C1162 1.391 . S
H1164 C1172 0.950 . S
H1165 C1177 0.950 . S
H1166 C1174 0.950 . S
H1167 C1176 0.950 . S
H1168 C1178 0.950 . S
H1169 C1180 0.950 . S
H1170 C1182 0.950 . S
H1171 C1183 0.950 . S
C1172 H1164 0.950 . S
C1172 C1173 1.386 . S
C1172 C1174 1.391 . S
C1173 C1172 1.386 . S
C1173 C1177 1.393 . S
C1174 H1166 0.950 . S
C1174 C1172 1.391 . S
C1174 C1175 1.400 . S
C1175 C1174 1.400 . S
C1175 C1176 1.398 . S
C1175 C1181 1.491 . S
C1176 H1167 0.950 . S
C1176 C1175 1.398 . S
C1176 C1177 1.391 . S
C1177 H1165 0.950 . S
C1177 C1173 1.393 . S
C1177 C1176 1.391 . S
C1178 H1168 0.950 . S
C1178 C1179 1.386 . S
C1178 C1180 1.391 . S
C1179 C1178 1.386 . S
C1179 C1183 1.393 . S
C1180 H1169 0.950 . S
C1180 C1178 1.391 . S
C1180 C1181 1.400 . S
C1181 C1175 1.491 . S
C1181 C1180 1.400 . S
C1181 C1182 1.398 . S
C1182 H1170 0.950 . S
C1182 C1181 1.398 . S
C1182 C1183 1.391 . S
C1183 H1171 0.950 . S
C1183 C1179 1.393 . S
C1183 C1182 1.391 . S
H1184 C1192 0.950 . S
H1185 C1197 0.950 . S
H1186 C1194 0.950 . S
H1187 C1196 0.950 . S
H1188 C1198 0.950 . S
H1189 C1200 0.950 . S
H1190 C1202 0.950 . S
H1191 C1203 0.950 . S
C1192 H1184 0.950 . S
C1192 C1193 1.386 . S
C1192 C1194 1.391 . S
C1193 C1192 1.386 . S
C1193 C1197 1.393 . S
C1194 H1186 0.950 . S
C1194 C1192 1.391 . S
C1194 C1195 1.400 . S
C1195 C1194 1.400 . S
C1195 C1196 1.398 . S
C1195 C1201 1.491 . S
C1196 H1187 0.950 . S
C1196 C1195 1.398 . S
C1196 C1197 1.391 . S
C1197 H1185 0.950 . S
C1197 C1193 1.393 . S
C1197 C1196 1.391 . S
C1198 H1188 0.950 . S
C1198 C1199 1.386 . S
C1198 C1200 1.391 . S
C1199 C1198 1.386 . S
C1199 C1203 1.393 . S
C1200 H1189 0.950 . S
C1200 C1198 1.391 . S
C1200 C1201 1.400 . S
C1201 C1195 1.491 . S
C1201 C1200 1.400 . S
C1201 C1202 1.398 . S
C1202 H1190 0.950 . S
C1202 C1201 1.398 . S
C1202 C1203 1.391 . S
C1203 H1191 0.950 . S
C1203 C1199 1.393 . S
C1203 C1202 1.391 . S
H1204 C1212 0.950 . S
H1205 C1217 0.950 . S
H1206 C1214 0.950 . S
H1207 C1216 0.950 . S
H1208 C1218 0.950 . S
H1209 C1220 0.950 . S
H1210 C1222 0.950 . S
H1211 C1223 0.950 . S
C1212 H1204 0.950 . S
C1212 C1213 1.386 . S
C1212 C1214 1.391 . S
C1213 C1212 1.386 . S
C1213 C1217 1.393 . S
C1214 H1206 0.950 . S
C1214 C1212 1.391 . S
C1214 C1215 1.400 . S
C1215 C1214 1.400 . S
C1215 C1216 1.398 . S
C1215 C1221 1.491 . S
C1216 H1207 0.950 . S
C1216 C1215 1.398 . S
C1216 C1217 1.391 . S
C1217 H1205 0.950 . S
C1217 C1213 1.393 . S
C1217 C1216 1.391 . S
C1218 H1208 0.950 . S
C1218 C1219 1.386 . S
C1218 C1220 1.391 . S
C1219 C1218 1.386 . S
C1219 C1223 1.393 . S
C1220 H1209 0.950 . S
C1220 C1218 1.391 . S
C1220 C1221 1.400 . S
C1221 C1215 1.491 . S
C1221 C1220 1.400 . S
C1221 C1222 1.398 . S
C1222 H1210 0.950 . S
C1222 C1221 1.398 . S
C1222 C1223 1.391 . S
C1223 H1211 0.950 . S
C1223 C1219 1.393 . S
C1223 C1222 1.391 . S
H1224 C1232 0.950 . S
H1225 C1237 0.950 . S
H1226 C1234 0.950 . S
H1227 C1236 0.950 . S
H1228 C1238 0.950 . S
H1229 C1240 0.950 . S
H1230 C1242 0.950 . S
H1231 C1243 0.950 . S
C1232 H1224 0.950 . S
C1232 C1233 1.386 . S
C1232 C1234 1.391 . S
C1233 C1232 1.386 . S
C1233 C1237 1.393 . S
C1234 H1226 0.950 . S
C1234 C1232 1.391 . S
C1234 C1235 1.400 . S
C1235 C1234 1.400 . S
C1235 C1236 1.398 . S
C1235 C1241 1.491 . S
C1236 H1227 0.950 . S
C1236 C1235 1.398 . S
C1236 C1237 1.391 . S
C1237 H1225 0.950 . S
C1237 C1233 1.393 . S
C1237 C1236 1.391 . S
C1238 H1228 0.950 . S
C1238 C1239 1.386 . S
C1238 C1240 1.391 . S
C1239 C1238 1.386 . S
C1239 C1243 1.393 . S
C1240 H1229 0.950 . S
C1240 C1238 1.391 . S
C1240 C1241 1.400 . S
C1241 C1235 1.491 . S
C1241 C1240 1.400 . S
C1241 C1242 1.398 . S
C1242 H1230 0.950 . S
C1242 C1241 1.398 . S
C1242 C1243 1.391 . S
C1243 H1231 0.950 . S
C1243 C1239 1.393 . S
C1243 C1242 1.391 . S
H1244 C1252 0.950 . S
H1245 C1257 0.950 . S
H1246 C1254 0.950 . S
H1247 C1256 0.950 . S
H1248 C1258 0.950 . S
H1249 C1260 0.950 . S
H1250 C1262 0.950 . S
H1251 C1263 0.950 . S
C1252 H1244 0.950 . S
C1252 C1253 1.386 . S
C1252 C1254 1.391 . S
C1253 C1252 1.386 . S
C1253 C1257 1.393 . S
C1254 H1246 0.950 . S
C1254 C1252 1.391 . S
C1254 C1255 1.400 . S
C1255 C1254 1.400 . S
C1255 C1256 1.398 . S
C1255 C1261 1.491 . S
C1256 H1247 0.950 . S
C1256 C1255 1.398 . S
C1256 C1257 1.391 . S
C1257 H1245 0.950 . S
C1257 C1253 1.393 . S
C1257 C1256 1.391 . S
C1258 H1248 0.950 . S
C1258 C1259 1.386 . S
C1258 C1260 1.391 . S
C1259 C1258 1.386 . S
C1259 C1263 1.393 . S
C1260 H1249 0.950 . S
C1260 C1258 1.391 . S
C1260 C1261 1.400 . S
C1261 C1255 1.491 . S
C1261 C1260 1.400 . S
C1261 C1262 1.398 . S
C1262 H1250 0.950 . S
C1262 C1261 1.398 . S
C1262 C1263 1.391 . S
C1263 H1251 0.950 . S
C1263 C1259 1.393 . S
C1263 C1262 1.391 . S
H1264 C1272 0.950 . S
H1265 C1277 0.950 . S
H1266 C1274 0.950 . S
H1267 C1276 0.950 . S
H1268 C1278 0.950 . S
H1269 C1280 0.950 . S
H1270 C1282 0.950 . S
H1271 C1283 0.950 . S
C1272 H1264 0.950 . S
C1272 C1273 1.386 . S
C1272 C1274 1.391 . S
C1273 C1272 1.386 . S
C1273 C1277 1.393 . S
C1274 H1266 0.950 . S
C1274 C1272 1.391 . S
C1274 C1275 1.400 . S
C1275 C1274 1.400 . S
C1275 C1276 1.398 . S
C1275 C1281 1.491 . S
C1276 H1267 0.950 . S
C1276 C1275 1.398 . S
C1276 C1277 1.391 . S
C1277 H1265 0.950 . S
C1277 C1273 1.393 . S
C1277 C1276 1.391 . S
C1278 H1268 0.950 . S
C1278 C1279 1.386 . S
C1278 C1280 1.391 . S
C1279 C1278 1.386 . S
C1279 C1283 1.393 . S
C1280 H1269 0.950 . S
C1280 C1278 1.391 . S
C1280 C1281 1.400 . S
C1281 C1275 1.491 . S
C1281 C1280 1.400 . S
C1281 C1282 1.398 . S
C1282 H1270 0.950 . S
C1282 C1281 1.398 . S
C1282 C1283 1.391 . S
C1283 H1271 0.950 . S
C1283 C1279 1.393 . S
C1283 C1282 1.391 . S
H1284 C1292 0.950 . S
H1285 C1297 0.950 . S
H1286 C1294 0.950 . S
H1287 C1296 0.950 . S
H1288 C1298 0.950 . S
H1289 C1300 0.950 . S
H1290 C1302 0.950 . S
H1291 C1303 0.950 . S
C1292 H1284 0.950 . S
C1292 C1293 1.386 . S
C1292 C1294 1.391 . S
C1293 C1292 1.386 . S
C1293 C1297 1.393 . S
C1294 H1286 0.950 . S
C1294 C1292 1.391 . S
C1294 C1295 1.400 . S
C1295 C1294 1.400 . S
C1295 C1296 1.398 . S
C1295 C1301 1.491 . S
C1296 H1287 0.950 . S
C1296 C1295 1.398 . S
C1296 C1297 1.391 . S
C1297 H1285 0.950 . S
C1297 C1293 1.393 . S
C1297 C1296 1.391 . S
C1298 H1288 0.950 . S
C1298 C1299 1.386 . S
C1298 C1300 1.391 . S
C1299 C1298 1.386 . S
C1299 C1303 1.393 . S
C1300 H1289 0.950 . S
C1300 C1298 1.391 . S
C1300 C1301 1.400 . S
C1301 C1295 1.491 . S
C1301 C1300 1.400 . S
C1301 C1302 1.398 . S
C1302 H1290 0.950 . S
C1302 C1301 1.398 . S
C1302 C1303 1.391 . S
C1303 H1291 0.950 . S
C1303 C1299 1.393 . S
C1303 C1302 1.391 . S
H1304 C1312 0.950 . S
H1305 C1317 0.950 . S
H1306 C1314 0.950 . S
H1307 C1316 0.950 . S
H1308 C1318 0.950 . S
H1309 C1320 0.950 . S
H1310 C1322 0.950 . S
H1311 C1323 0.950 . S
C1312 H1304 0.950 . S
C1312 C1313 1.386 . S
C1312 C1314 1.391 . S
C1313 C1312 1.386 . S
C1313 C1317 1.393 . S
C1314 H1306 0.950 . S
C1314 C1312 1.391 . S
C1314 C1315 1.400 . S
C1315 C1314 1.400 . S
C1315 C1316 1.398 . S
C1315 C1321 1.491 . S
C1316 H1307 0.950 . S
C1316 C1315 1.398 . S
C1316 C1317 1.391 . S
C1317 H1305 0.950 . S
C1317 C1313 1.393 . S
C1317 C1316 1.391 . S
C1318 H1308 0.950 . S
C1318 C1319 1.386 . S
C1318 C1320 1.391 . S
C1319 C1318 1.386 . S
C1319 C1323 1.393 . S
C1320 H1309 0.950 . S
C1320 C1318 1.391 . S
C1320 C1321 1.400 . S
C1321 C1315 1.491 . S
C1321 C1320 1.400 . S
C1321 C1322 1.398 . S
C1322 H1310 0.950 . S
C1322 C1321 1.398 . S
C1322 C1323 1.391 . S
C1323 H1311 0.950 . S
C1323 C1319 1.393 . S
C1323 C1322 1.391 . S
H1324 C1332 0.950 . S
H1325 C1337 0.950 . S
H1326 C1334 0.950 . S
H1327 C1336 0.950 . S
H1328 C1338 0.950 . S
H1329 C1340 0.950 . S
H1330 C1342 0.950 . S
H1331 C1343 0.950 . S
C1332 H1324 0.950 . S
C1332 C1333 1.386 . S
C1332 C1334 1.391 . S
C1333 C1332 1.386 . S
C1333 C1337 1.393 . S
C1334 H1326 0.950 . S
C1334 C1332 1.391 . S
C1334 C1335 1.400 . S
C1335 C1334 1.400 . S
C1335 C1336 1.398 . S
C1335 C1341 1.491 . S
C1336 H1327 0.950 . S
C1336 C1335 1.398 . S
C1336 C1337 1.391 . S
C1337 H1325 0.950 . S
C1337 C1333 1.393 . S
C1337 C1336 1.391 . S
C1338 H1328 0.950 . S
C1338 C1339 1.386 . S
C1338 C1340 1.391 . S
C1339 C1338 1.386 . S
C1339 C1343 1.393 . S
C1340 H1329 0.950 . S
C1340 C1338 1.391 . S
C1340 C1341 1.400 . S
C1341 C1335 1.491 . S
C1341 C1340 1.400 . S
C1341 C1342 1.398 . S
C1342 H1330 0.950 . S
C1342 C1341 1.398 . S
C1342 C1343 1.391 . S
C1343 H1331 0.950 . S
C1343 C1339 1.393 . S
C1343 C1342 1.391 . S
H1344 C1352 0.950 . S
H1345 C1357 0.950 . S
H1346 C1354 0.950 . S
H1347 C1356 0.950 . S
H1348 C1358 0.950 . S
H1349 C1360 0.950 . S
H1350 C1362 0.950 . S
H1351 C1363 0.950 . S
C1352 H1344 0.950 . S
C1352 C1353 1.386 . S
C1352 C1354 1.391 . S
C1353 C1352 1.386 . S
C1353 C1357 1.393 . S
C1354 H1346 0.950 . S
C1354 C1352 1.391 . S
C1354 C1355 1.400 . S
C1355 C1354 1.400 . S
C1355 C1356 1.398 . S
C1355 C1361 1.491 . S
C1356 H1347 0.950 . S
C1356 C1355 1.398 . S
C1356 C1357 1.391 . S
C1357 H1345 0.950 . S
C1357 C1353 1.393 . S
C1357 C1356 1.391 . S
C1358 H1348 0.950 . S
C1358 C1359 1.386 . S
C1358 C1360 1.391 . S
C1359 C1358 1.386 . S
C1359 C1363 1.393 . S
C1360 H1349 0.950 . S
C1360 C1358 1.391 . S
C1360 C1361 1.400 . S
C1361 C1355 1.491 . S
C1361 C1360 1.400 . S
C1361 C1362 1.398 . S
C1362 H1350 0.950 . S
C1362 C1361 1.398 . S
C1362 C1363 1.391 . S
C1363 H1351 0.950 . S
C1363 C1359 1.393 . S
C1363 C1362 1.391 . S
H1364 C1372 0.950 . S
H1365 C1377 0.950 . S
H1366 C1374 0.950 . S
H1367 C1376 0.950 . S
H1368 C1378 0.950 . S
H1369 C1380 0.950 . S
H1370 C1382 0.950 . S
H1371 C1383 0.950 . S
C1372 H1364 0.950 . S
C1372 C1373 1.386 . S
C1372 C1374 1.391 . S
C1373 C1372 1.386 . S
C1373 C1377 1.393 . S
C1374 H1366 0.950 . S
C1374 C1372 1.391 . S
C1374 C1375 1.400 . S
C1375 C1374 1.400 . S
C1375 C1376 1.398 . S
C1375 C1381 1.491 . S
C1376 H1367 0.950 . S
C1376 C1375 1.398 . S
C1376 C1377 1.391 . S
C1377 H1365 0.950 . S
C1377 C1373 1.393 . S
C1377 C1376 1.391 . S
C1378 H1368 0.950 . S
C1378 C1379 1.386 . S
C1378 C1380 1.391 . S
C1379 C1378 1.386 . S
C1379 C1383 1.393 . S
C1380 H1369 0.950 . S
C1380 C1378 1.391 . S
C1380 C1381 1.400 . S
C1381 C1375 1.491 . S
C1381 C1380 1.400 . S
C1381 C1382 1.398 . S
C1382 H1370 0.950 . S
C1382 C1381 1.398 . S
C1382 C1383 1.391 . S
C1383 H1371 0.950 . S
C1383 C1379 1.393 . S
C1383 C1382 1.391 . S
H1384 C1392 0.950 . S
H1385 C1397 0.950 . S
H1386 C1394 0.950 . S
H1387 C1396 0.950 . S
H1388 C1398 0.950 . S
H1389 C1400 0.950 . S
H1390 C1402 0.950 . S
H1391 C1403 0.950 . S
C1392 H1384 0.950 . S
C1392 C1393 1.386 . S
C1392 C1394 1.391 . S
C1393 C1392 1.386 . S
C1393 C1397 1.393 . S
C1394 H1386 0.950 . S
C1394 C1392 1.391 . S
C1394 C1395 1.400 . S
C1395 C1394 1.400 . S
C1395 C1396 1.398 . S
C1395 C1401 1.491 . S
C1396 H1387 0.950 . S
C1396 C1395 1.398 . S
C1396 C1397 1.391 . S
C1397 H1385 0.950 . S
C1397 C1393 1.393 . S
C1397 C1396 1.391 . S
C1398 H1388 0.950 . S
C1398 C1399 1.386 . S
C1398 C1400 1.391 . S
C1399 C1398 1.386 . S
C1399 C1403 1.393 . S
C1400 H1389 0.950 . S
C1400 C1398 1.391 . S
C1400 C1401 1.400 . S
C1401 C1395 1.491 . S
C1401 C1400 1.400 . S
C1401 C1402 1.398 . S
C1402 H1390 0.950 . S
C1402 C1401 1.398 . S
C1402 C1403 1.391 . S
C1403 H1391 0.950 . S
C1403 C1399 1.393 . S
C1403 C1402 1.391 . S
H1404 C1412 0.950 . S
H1405 C1417 0.950 . S
H1406 C1414 0.950 . S
H1407 C1416 0.950 . S
H1408 C1418 0.950 . S
H1409 C1420 0.950 . S
H1410 C1422 0.950 . S
H1411 C1423 0.950 . S
C1412 H1404 0.950 . S
C1412 C1413 1.386 . S
C1412 C1414 1.391 . S
C1413 C1412 1.386 . S
C1413 C1417 1.393 . S
C1414 H1406 0.950 . S
C1414 C1412 1.391 . S
C1414 C1415 1.400 . S
C1415 C1414 1.400 . S
C1415 C1416 1.398 . S
C1415 C1421 1.491 . S
C1416 H1407 0.950 . S
C1416 C1415 1.398 . S
C1416 C1417 1.391 . S
C1417 H1405 0.950 . S
C1417 C1413 1.393 . S
C1417 C1416 1.391 . S
C1418 H1408 0.950 . S
C1418 C1419 1.386 . S
C1418 C1420 1.391 . S
C1419 C1418 1.386 . S
C1419 C1423 1.393 . S
C1420 H1409 0.950 . S
C1420 C1418 1.391 . S
C1420 C1421 1.400 . S
C1421 C1415 1.491 . S
C1421 C1420 1.400 . S
C1421 C1422 1.398 . S
C1422 H1410 0.950 . S
C1422 C1421 1.398 . S
C1422 C1423 1.391 . S
C1423 H1411 0.950 . S
C1423 C1419 1.393 . S
C1423 C1422 1.391 . S
C479 C289 0.295 . S
C473 C4 0.337 . S
C499 C294 1.518 . S
C493 C63 1.521 . S
C519 C295 1.167 . S
C513 C72 1.139 . S
C533 C102 1.537 . S
C539 C299 1.520 . S
C553 C136 1.522 . S
C559 C302 1.526 . S
C579 C303 1.154 . S
C573 C183 1.151 . S
C593 C233 1.532 . S
C599 C280 1.524 . S
C613 C251 0.265 . S
C619 C296 0.352 . S
C639 C334 1.441 . S
C633 C29 1.480 . S
C653 C42 1.952 . S
C659 C360 1.866 . S
C679 C312 1.465 . S
C673 C97 1.509 . S
C699 C367 1.096 . S
C693 C115 1.139 . S
C713 C149 1.157 . S
C719 C321 1.142 . S
C739 C363 1.486 . S
C733 C187 1.510 . S
C753 C212 1.972 . S
C759 C327 1.905 . S
C773 C255 1.485 . S
C779 C358 1.467 . S
C793 C8 1.491 . S
C799 C366 1.441 . S
C813 C153 1.962 . S
C819 C353 1.890 . S
C839 C331 1.486 . S
C833 C170 1.511 . S
C859 C359 1.132 . S
C853 C208 1.169 . S
C873 C238 1.491 . S
C879 C326 1.454 . S
C893 C76 1.521 . S
C899 C344 1.487 . S
C919 C335 1.890 . S
C913 C119 1.971 . S
C933 C38 1.160 . S
C939 C328 1.116 . S
C953 C242 0.265 . S
C959 C390 0.433 . S
C973 C165 1.497 . S
C979 C385 1.429 . S
C999 C399 1.067 . S
C993 C174 1.104 . S
C1019 C376 1.466 . S
C1013 C204 1.496 . S
C1033 C34 1.497 . S
C1039 C392 1.425 . S
C1059 C391 1.088 . S
C1053 C81 1.103 . S
C1073 C131 1.505 . S
C1079 C395 1.460 . S
C1093 C13 0.324 . S
C1099 C398 0.388 . S
C1113 C267 1.476 . S
C1119 C424 1.453 . S
C1139 C440 1.955 . S
C1133 C144 1.986 . S
C1153 C199 1.508 . S
C1159 C422 1.471 . S
C1173 C217 1.189 . S
C1179 C455 1.156 . S
C1199 C431 1.190 . S
C1193 C47 1.184 . S
C1213 C85 1.525 . S
C1219 C449 1.453 . S
C1239 C427 1.971 . S
C1233 C110 1.975 . S
C1259 C462 1.448 . S
C1253 C17 1.502 . S
C1279 C454 1.451 . S
C1273 C246 1.509 . S
C1293 C51 1.992 . S
C1299 C459 1.957 . S
C1313 C68 1.501 . S
C1319 C430 1.491 . S
C1339 C463 1.144 . S
C1333 C106 1.166 . S
C1353 C0 1.481 . S
C1359 C417 1.431 . S
C1373 C178 1.535 . S
C1379 C456 1.476 . S
C1399 C408 1.973 . S
C1393 C221 1.975 . S
C1419 C423 1.205 . S
C1413 C140 1.165 . S
