# Generated by pormake.
# Topology anh, (6,3)-cn, num edge types: 1
# Building blocks:
#     Node 0, Type 0, BuildingBlock: INOVEN_clean_sbu_0, # of connection points: 6
#     Node 1, Type 0, BuildingBlock: INOVEN_clean_sbu_0, # of connection points: 6
#     Node 2, Type 0, BuildingBlock: INOVEN_clean_sbu_0, # of connection points: 6
#     Node 3, Type 1, BuildingBlock: OLANEW_clean_sbu_2, # of connection points: 3
#     Node 4, Type 1, BuildingBlock: OLANEW_clean_sbu_2, # of connection points: 3
#     Node 5, Type 1, BuildingBlock: OLANEW_clean_sbu_2, # of connection points: 3
#     Node 6, Type 1, BuildingBlock: OLANEW_clean_sbu_2, # of connection points: 3
#     Node 7, Type 1, BuildingBlock: OLANEW_clean_sbu_2, # of connection points: 3
#     Node 8, Type 1, BuildingBlock: OLANEW_clean_sbu_2, # of connection points: 3
#     Edge 9, Type (0, 1), BuildingBlock: UVAHIK_clean_linker_0, # of connection points: 2
#     Edge 10, Type (0, 1), BuildingBlock: UVAHIK_clean_linker_0, # of connection points: 2
#     Edge 11, Type (0, 1), BuildingBlock: UVAHIK_clean_linker_0, # of connection points: 2
#     Edge 12, Type (0, 1), BuildingBlock: UVAHIK_clean_linker_0, # of connection points: 2
#     Edge 13, Type (0, 1), BuildingBlock: UVAHIK_clean_linker_0, # of connection points: 2
#     Edge 14, Type (0, 1), BuildingBlock: UVAHIK_clean_linker_0, # of connection points: 2
#     Edge 15, Type (0, 1), BuildingBlock: UVAHIK_clean_linker_0, # of connection points: 2
#     Edge 16, Type (0, 1), BuildingBlock: UVAHIK_clean_linker_0, # of connection points: 2
#     Edge 17, Type (0, 1), BuildingBlock: UVAHIK_clean_linker_0, # of connection points: 2
#     Edge 18, Type (0, 1), BuildingBlock: UVAHIK_clean_linker_0, # of connection points: 2
#     Edge 19, Type (0, 1), BuildingBlock: UVAHIK_clean_linker_0, # of connection points: 2
#     Edge 20, Type (0, 1), BuildingBlock: UVAHIK_clean_linker_0, # of connection points: 2
#     Edge 21, Type (0, 1), BuildingBlock: UVAHIK_clean_linker_0, # of connection points: 2
#     Edge 22, Type (0, 1), BuildingBlock: UVAHIK_clean_linker_0, # of connection points: 2
#     Edge 23, Type (0, 1), BuildingBlock: UVAHIK_clean_linker_0, # of connection points: 2
#     Edge 24, Type (0, 1), BuildingBlock: UVAHIK_clean_linker_0, # of connection points: 2
#     Edge 25, Type (0, 1), BuildingBlock: UVAHIK_clean_linker_0, # of connection points: 2
#     Edge 26, Type (0, 1), BuildingBlock: UVAHIK_clean_linker_0, # of connection points: 2
# Relax obj value: 0.112
# Max RMSD: 0.159
# Mean RMSD: 0.111
data_MOF--net-anh--node1-INOVEN_clean_sbu_0--node2-OLANEW_clean_sbu_2--edge1-UVAHIK_clean_linker_0
_symmetry_space_group_name_H-M    P1
_symmetry_Int_Tables_number       1
_symmetry_cell_setting            triclinic
loop_
_symmetry_equiv_pos_as_xyz
'x, y, z'
_cell_length_a     45.971388
_cell_length_b     50.251077
_cell_length_c     64.910455
_cell_angle_alpha  92.733699
_cell_angle_beta   89.609197
_cell_angle_gamma 128.51352
loop_
_atom_site_label
_atom_site_type_symbol
_atom_site_fract_x
_atom_site_fract_y
_atom_site_fract_z
_atom_type_partial_charge
Gd0 Gd 0.02734 0.48466 0.1364 0.0
Gd1 Gd 0.99439 0.51567 0.15751 0.0
C2 C 0.07869 0.5677 0.14506 0.0
C3 C 0.05976 0.46859 0.11229 0.0
C4 C 0.09685 0.47782 0.11196 0.0
C5 C 0.12436 0.50203 0.12655 0.0
C6 C 0.10408 0.46064 0.09798 0.0
C7 C 0.16574 0.49071 0.11374 0.0
C8 C 0.1383 0.46706 0.09883 0.0
C9 C 0.1586 0.50848 0.12741 0.0
C10 C 0.03308 0.49003 0.17803 0.0
C11 C 0.94252 0.43361 0.14785 0.0
C12 C 0.96123 0.52819 0.18364 0.0
C13 C 0.92341 0.50836 0.19184 0.0
C14 C 0.89258 0.4962 0.17898 0.0
C15 C 0.9179 0.50119 0.21281 0.0
C16 C 0.85146 0.47113 0.20809 0.0
C17 C 0.88228 0.48266 0.22086 0.0
C18 C 0.85712 0.47797 0.18701 0.0
C19 C 0.99117 0.51249 0.11589 0.0
O20 O 0.07362 0.54176 0.13448 0.0
O21 O 0.05311 0.56328 0.15734 0.0
O22 O 0.03976 0.45075 0.1278 0.0
O23 O 0.05785 0.49288 0.10865 0.0
O24 O 0.02884 0.46559 0.16704 0.0
O25 O 0.03704 0.51134 0.1665 0.0
O26 O 0.94902 0.45898 0.15976 0.0
O27 O 0.9671 0.43865 0.13449 0.0
O28 O 0.96519 0.53594 0.16428 0.0
O29 O 0.9808 0.51874 0.18905 0.0
O30 O 0.99566 0.5369 0.12724 0.0
O31 O 0.98568 0.49 0.12703 0.0
H32 H 0.11898 0.51529 0.13757 0.0
H33 H 0.083 0.44181 0.08667 0.0
H34 H 0.1432 0.45335 0.08789 0.0
H35 H 0.17899 0.52656 0.1392 0.0
H36 H 0.89579 0.50115 0.16273 0.0
H37 H 0.94125 0.51013 0.22303 0.0
H38 H 0.87897 0.4777 0.2371 0.0
H39 H 0.83435 0.47034 0.17675 0.0
Gd40 Gd 0.5436 0.01143 0.49723 0.0
Gd41 Gd 0.49494 0.03113 0.48812 0.0
C42 C 0.45431 0.9523 0.4871 0.0
C43 C 0.57259 0.98543 0.51195 0.0
C44 C 0.56328 0.95165 0.51265 0.0
C45 C 0.5918 0.94896 0.51143 0.0
C46 C 0.52638 0.92206 0.51424 0.0
C47 C 0.54675 0.88735 0.51339 0.0
C48 C 0.51817 0.89019 0.51458 0.0
C49 C 0.58368 0.91717 0.51183 0.0
C50 C 0.54061 0.02245 0.45741 0.0
C51 C 0.5845 0.09038 0.49686 0.0
C52 C 0.46671 0.05842 0.47444 0.0
C53 C 0.47588 0.09213 0.47684 0.0
C54 C 0.50456 0.1175 0.49053 0.0
C55 C 0.45543 0.09891 0.46564 0.0
C56 C 0.49164 0.15606 0.48215 0.0
C57 C 0.46321 0.13058 0.46826 0.0
C58 C 0.51242 0.1492 0.49315 0.0
C59 C 0.49974 0.02137 0.5281 0.0
O60 O 0.48502 0.96069 0.49611 0.0
O61 O 0.45306 0.97555 0.47963 0.0
O62 O 0.5802 0.99818 0.49379 0.0
O63 O 0.55213 0.99054 0.52275 0.0
O64 O 0.57031 0.03061 0.46664 0.0
O65 O 0.51341 0.00705 0.46922 0.0
O66 O 0.55324 0.08157 0.48846 0.0
O67 O 0.58641 0.06753 0.50438 0.0
O68 O 0.45556 0.0411 0.49106 0.0
O69 O 0.49025 0.05693 0.46411 0.0
O70 O 0.46948 0.01258 0.51928 0.0
O71 O 0.52603 0.03641 0.5158 0.0
H72 H 0.62046 0.97154 0.51023 0.0
H73 H 0.50394 0.92357 0.51524 0.0
H74 H 0.4894 0.86777 0.51556 0.0
H75 H 0.60643 0.91603 0.51122 0.0
H76 H 0.52056 0.11262 0.49937 0.0
H77 H 0.43327 0.07962 0.45495 0.0
H78 H 0.44703 0.13516 0.45934 0.0
H79 H 0.5342 0.16805 0.50414 0.0
Gd80 Gd 0.56483 0.55739 0.84486 0.0
Gd81 Gd 0.51663 0.48647 0.86013 0.0
C82 C 0.47766 0.52017 0.85528 0.0
C83 C 0.59171 0.61128 0.82485 0.0
C84 C 0.58471 0.63609 0.823 0.0
C85 C 0.61394 0.67083 0.82723 0.0
C86 C 0.54946 0.62581 0.8173 0.0
C87 C 0.57301 0.68485 0.8201 0.0
C88 C 0.54371 0.64995 0.81581 0.0
C89 C 0.60817 0.69492 0.82589 0.0
C90 C 0.56644 0.55519 0.88617 0.0
C91 C 0.60507 0.52532 0.85249 0.0
C92 C 0.48861 0.43063 0.87822 0.0
C93 C 0.4937 0.40449 0.87635 0.0
C94 C 0.52106 0.40889 0.86363 0.0
C95 C 0.47019 0.37433 0.88666 0.0
C96 C 0.50065 0.3526 0.87114 0.0
C97 C 0.4736 0.34858 0.88409 0.0
C98 C 0.52458 0.38322 0.86109 0.0
C99 C 0.51728 0.49002 0.81865 0.0
O100 O 0.50666 0.54251 0.84417 0.0
O101 O 0.47763 0.49853 0.86613 0.0
O102 O 0.60542 0.61203 0.84264 0.0
O103 O 0.56649 0.58026 0.81695 0.0
O104 O 0.59474 0.57818 0.87572 0.0
O105 O 0.53787 0.53607 0.8746 0.0
O106 O 0.57473 0.50185 0.86231 0.0
O107 O 0.6062 0.5475 0.84155 0.0
O108 O 0.47285 0.43229 0.86219 0.0
O109 O 0.51709 0.46067 0.88581 0.0
O110 O 0.48787 0.46763 0.8286 0.0
O111 O 0.54491 0.50804 0.83085 0.0
H112 H 0.64132 0.67937 0.83173 0.0
H113 H 0.52633 0.59917 0.81395 0.0
H114 H 0.51638 0.64124 0.81106 0.0
H115 H 0.63124 0.72142 0.82968 0.0
H116 H 0.53928 0.43194 0.8554 0.0
H117 H 0.44891 0.37052 0.89653 0.0
H118 H 0.45504 0.32551 0.89225 0.0
H119 H 0.54537 0.387 0.8508 0.0
O120 O 0.53696 0.03574 0.226 0.0
Cd121 Cd 0.53686 0.03501 0.18833 0.0
O122 O 0.47712 0.99376 0.22899 0.0
Cd123 Cd 0.46313 0.97564 0.19657 0.0
O124 O 0.42456 0.92963 0.17669 0.0
C125 C 0.41826 0.90274 0.1826 0.0
O126 O 0.43669 0.90513 0.19891 0.0
C127 C 0.50889 0.01733 0.23722 0.0
C128 C 0.59969 0.09827 0.17636 0.0
O129 O 0.56935 0.09328 0.18039 0.0
O130 O 0.60013 0.07314 0.17754 0.0
O131 O 0.55712 0.52358 0.58804 0.0
Cd132 Cd 0.55929 0.52587 0.55048 0.0
O133 O 0.50399 0.51492 0.58975 0.0
Cd134 Cd 0.50734 0.5329 0.55915 0.0
O135 O 0.50955 0.57109 0.54261 0.0
C136 C 0.48959 0.57859 0.54992 0.0
O137 O 0.46857 0.56205 0.5656 0.0
C138 C 0.52975 0.51646 0.59843 0.0
C139 C 0.55061 0.46893 0.53362 0.0
O140 O 0.58297 0.49695 0.53825 0.0
O141 O 0.52243 0.46805 0.53656 0.0
O142 O 0.07396 0.5222 0.89388 0.0
Cd143 Cd 0.11053 0.53417 0.86244 0.0
O144 O 0.03332 0.52902 0.88339 0.0
Cd145 Cd 0.98444 0.52848 0.88576 0.0
O146 O 0.93371 0.52507 0.8838 0.0
C147 C 0.9329 0.54521 0.87305 0.0
O148 O 0.9629 0.56856 0.86325 0.0
C149 C 0.04681 0.52249 0.89759 0.0
C150 C 0.16835 0.52884 0.86465 0.0
O151 O 0.17351 0.55601 0.87119 0.0
O152 O 0.13576 0.50384 0.85758 0.0
O153 O 0.05452 0.52797 0.41093 0.0
Cd154 Cd 0.05864 0.5364 0.44852 0.0
O155 O 0.99339 0.49038 0.4075 0.0
Cd156 Cd 0.97941 0.47914 0.43985 0.0
O157 O 0.93792 0.439 0.4598 0.0
C158 C 0.90465 0.42823 0.45758 0.0
O159 O 0.89776 0.44331 0.44479 0.0
C160 C 0.0252 0.50951 0.39951 0.0
C161 C 0.12218 0.60283 0.45959 0.0
O162 O 0.12335 0.57798 0.45851 0.0
O163 O 0.09085 0.59617 0.45584 0.0
O164 O 0.51158 0.99172 0.75765 0.0
Cd165 Cd 0.51685 0.99052 0.79499 0.0
O166 O 0.55898 0.04638 0.75668 0.0
Cd167 Cd 0.559 0.05944 0.78932 0.0
O168 O 0.55594 0.09362 0.80976 0.0
C169 C 0.52459 0.08714 0.81179 0.0
O170 O 0.49496 0.05889 0.80291 0.0
C171 C 0.53473 0.01759 0.74738 0.0
C172 C 0.52567 0.94159 0.80307 0.0
O173 O 0.4934 0.93402 0.8028 0.0
O174 O 0.55378 0.97239 0.79993 0.0
O175 O 0.68684 0.58866 0.09748 0.0
Cd176 Cd 0.72112 0.60514 0.13 0.0
O177 O 0.64389 0.58591 0.11445 0.0
Cd178 Cd 0.59052 0.57528 0.11796 0.0
O179 O 0.53883 0.56776 0.12095 0.0
C180 C 0.50787 0.53792 0.11993 0.0
O181 O 0.50754 0.51166 0.11713 0.0
C182 C 0.65574 0.58283 0.09748 0.0
C183 C 0.68792 0.54992 0.15476 0.0
O184 O 0.70918 0.55447 0.14011 0.0
O185 O 0.68204 0.57159 0.15781 0.0
C186 C 0.2351 0.52889 0.11907 0.0
C187 C 0.20121 0.49602 0.11543 0.0
C188 C 0.2684 0.53374 0.12079 0.0
C189 C 0.30613 0.48866 0.13115 0.0
H190 H 0.39231 0.56285 0.10321 0.0
C191 C 0.43825 0.50028 0.11905 0.0
C192 C 0.47273 0.53303 0.12129 0.0
C193 C 0.40513 0.49592 0.1196 0.0
C194 C 0.36864 0.54229 0.11133 0.0
H195 H 0.17559 0.44239 0.11119 0.0
H196 H 0.23377 0.45092 0.11375 0.0
H197 H 0.33455 0.55515 0.10179 0.0
H198 H 0.49949 0.58685 0.12641 0.0
H199 H 0.44176 0.57918 0.12755 0.0
H200 H 0.34025 0.47567 0.14055 0.0
C201 C 0.23457 0.47292 0.11544 0.0
C202 C 0.33555 0.53788 0.11052 0.0
C203 C 0.20131 0.46809 0.11369 0.0
C204 C 0.47339 0.56127 0.12448 0.0
C205 C 0.44032 0.55692 0.12503 0.0
C206 C 0.33926 0.49307 0.13197 0.0
C207 C 0.26849 0.5058 0.11896 0.0
C208 C 0.30389 0.51095 0.12034 0.0
C209 C 0.40584 0.52424 0.1224 0.0
C210 C 0.37084 0.51987 0.122 0.0
H211 H 0.23596 0.55094 0.12036 0.0
H212 H 0.29406 0.55935 0.12371 0.0
H213 H 0.28235 0.46796 0.13913 0.0
H214 H 0.4368 0.478 0.11657 0.0
H215 H 0.37899 0.47044 0.11732 0.0
C216 C 0.65246 0.13691 0.50503 0.0
C217 C 0.61804 0.12671 0.49758 0.0
C218 C 0.68448 0.1709 0.50448 0.0
C219 C 0.71683 0.25873 0.49857 0.0
H220 H 0.80575 0.27503 0.47795 0.0
C221 C 0.83679 0.38487 0.46419 0.0
C222 C 0.87349 0.39687 0.46725 0.0
C223 C 0.80687 0.35351 0.47134 0.0
C224 C 0.78142 0.27104 0.48409 0.0
H225 H 0.5902 0.14456 0.4842 0.0
H226 H 0.6459 0.20353 0.48311 0.0
H227 H 0.7511 0.21714 0.48409 0.0
H228 H 0.90758 0.38589 0.48105 0.0
H229 H 0.85527 0.33118 0.49368 0.0
H230 H 0.74695 0.31261 0.49812 0.0
C231 C 0.64817 0.18539 0.48957 0.0
C232 C 0.75003 0.23779 0.48761 0.0
C233 C 0.61621 0.15145 0.49007 0.0
C234 C 0.87966 0.37735 0.47835 0.0
C235 C 0.84966 0.34589 0.48548 0.0
C236 C 0.74824 0.29199 0.49506 0.0
C237 C 0.68279 0.19548 0.49653 0.0
C238 C 0.71714 0.23116 0.49456 0.0
C239 C 0.81286 0.33332 0.48173 0.0
C240 C 0.78072 0.29849 0.48745 0.0
H241 H 0.65486 0.11857 0.51099 0.0
H242 H 0.71062 0.17789 0.5102 0.0
H243 H 0.69217 0.25459 0.50427 0.0
H244 H 0.83101 0.39924 0.45573 0.0
H245 H 0.77892 0.34451 0.46798 0.0
C246 C 0.59514 0.74292 0.81113 0.0
C247 C 0.56709 0.71073 0.81859 0.0
C248 C 0.5901 0.76755 0.81018 0.0
C249 C 0.51835 0.77856 0.80758 0.0
H250 H 0.59833 0.87157 0.82689 0.0
C251 C 0.49997 0.88257 0.81185 0.0
C252 C 0.53027 0.91537 0.80633 0.0
C253 C 0.50408 0.85753 0.81423 0.0
C254 C 0.57586 0.84584 0.82118 0.0
H255 H 0.51161 0.67944 0.83089 0.0
H256 H 0.5026 0.72226 0.82879 0.0
H257 H 0.60607 0.82798 0.82887 0.0
H258 H 0.5887 0.94758 0.79901 0.0
H259 H 0.59569 0.90384 0.80266 0.0
H260 H 0.48838 0.79642 0.79945 0.0
C261 C 0.52847 0.72829 0.82365 0.0
C262 C 0.58029 0.82083 0.82238 0.0
C263 C 0.53362 0.70371 0.82478 0.0
C264 C 0.56483 0.92263 0.80339 0.0
C265 C 0.56888 0.89754 0.80561 0.0
C266 C 0.51402 0.80363 0.80621 0.0
C267 C 0.55675 0.76056 0.81646 0.0
C268 C 0.55165 0.78694 0.81553 0.0
C269 C 0.53854 0.86459 0.811 0.0
C270 C 0.54277 0.83766 0.81293 0.0
H271 H 0.62097 0.74907 0.80581 0.0
H272 H 0.61217 0.79198 0.80425 0.0
H273 H 0.49593 0.75274 0.80197 0.0
H274 H 0.47299 0.87618 0.81433 0.0
H275 H 0.48024 0.83267 0.81873 0.0
C276 C 0.81061 0.46756 0.23567 0.0
C277 C 0.81414 0.45513 0.21673 0.0
C278 C 0.77656 0.45965 0.24092 0.0
C279 C 0.68129 0.41923 0.21723 0.0
H280 H 0.71513 0.5109 0.22911 0.0
C281 C 0.67152 0.49398 0.16214 0.0
C282 C 0.67359 0.52212 0.16874 0.0
C283 C 0.66662 0.47165 0.17636 0.0
C284 C 0.7043 0.48473 0.22629 0.0
H285 H 0.78321 0.41967 0.19042 0.0
H286 H 0.72521 0.40807 0.19855 0.0
H287 H 0.7511 0.4952 0.2418 0.0
H288 H 0.66795 0.54691 0.19489 0.0
H289 H 0.66058 0.50836 0.21998 0.0
H290 H 0.63682 0.41073 0.19941 0.0
C291 C 0.74811 0.42371 0.20964 0.0
C292 C 0.72515 0.47552 0.23366 0.0
C293 C 0.78184 0.43093 0.20467 0.0
C294 C 0.66677 0.52554 0.18944 0.0
C295 C 0.66243 0.50344 0.20378 0.0
C296 C 0.66077 0.42872 0.20952 0.0
C297 C 0.74573 0.44008 0.22705 0.0
C298 C 0.71581 0.44368 0.22758 0.0
C299 C 0.66434 0.47739 0.19751 0.0
C300 C 0.67397 0.46249 0.21256 0.0
H301 H 0.83471 0.48579 0.2456 0.0
H302 H 0.77546 0.4715 0.25496 0.0
H303 H 0.67211 0.39387 0.21313 0.0
H304 H 0.67614 0.49047 0.14619 0.0
H305 H 0.6685 0.45204 0.17098 0.0
C306 C 0.42254 0.88986 0.4891 0.0
C307 C 0.4207 0.91602 0.48505 0.0
C308 C 0.39061 0.8557 0.48731 0.0
C309 C 0.28811 0.80097 0.48732 0.0
H310 H 0.29215 0.73345 0.45938 0.0
C311 C 0.15539 0.66568 0.46325 0.0
C312 C 0.15618 0.63827 0.4644 0.0
C313 C 0.1878 0.69923 0.46684 0.0
C314 C 0.2906 0.75184 0.46751 0.0
H315 H 0.3837 0.92668 0.47592 0.0
H316 H 0.32817 0.86723 0.47278 0.0
H317 H 0.34852 0.79246 0.46363 0.0
H318 H 0.19157 0.62465 0.47067 0.0
H319 H 0.24793 0.68312 0.47734 0.0
H320 H 0.2303 0.76046 0.49131 0.0
C321 C 0.35426 0.87313 0.4775 0.0
C322 C 0.32295 0.7857 0.46991 0.0
C323 C 0.38619 0.90722 0.47915 0.0
C324 C 0.19002 0.64518 0.46956 0.0
C325 C 0.22242 0.67875 0.47325 0.0
C326 C 0.25582 0.76709 0.48504 0.0
C327 C 0.35607 0.84696 0.48157 0.0
C328 C 0.32201 0.81071 0.47968 0.0
C329 C 0.22181 0.70625 0.47178 0.0
C330 C 0.25654 0.7421 0.47495 0.0
H331 H 0.44866 0.89568 0.49355 0.0
H332 H 0.39289 0.83614 0.49068 0.0
H333 H 0.28659 0.81953 0.49523 0.0
H334 H 0.12984 0.66128 0.45921 0.0
H335 H 0.18631 0.71971 0.46526 0.0
C336 C 0.53781 0.33153 0.86642 0.0
C337 C 0.5031 0.32455 0.86757 0.0
C338 C 0.53996 0.30521 0.86229 0.0
C339 C 0.48573 0.21811 0.8384 0.0
H340 H 0.55807 0.21561 0.86654 0.0
C341 C 0.48711 0.10505 0.82426 0.0
C342 C 0.52197 0.11271 0.82181 0.0
C343 C 0.48456 0.13008 0.8317 0.0
C344 C 0.53793 0.21609 0.85841 0.0
H345 H 0.44342 0.28431 0.8653 0.0
H346 H 0.44717 0.23845 0.8584 0.0
H347 H 0.55427 0.26105 0.8758 0.0
H348 H 0.58151 0.15251 0.82596 0.0
H349 H 0.57709 0.19631 0.83867 0.0
H350 H 0.46968 0.17359 0.82079 0.0
C351 C 0.47276 0.26431 0.86054 0.0
C352 C 0.53575 0.24214 0.86373 0.0
C353 C 0.47061 0.29058 0.86473 0.0
C354 C 0.5542 0.14571 0.82769 0.0
C355 C 0.55165 0.17082 0.83506 0.0
C356 C 0.48796 0.19217 0.83305 0.0
C357 C 0.50745 0.27131 0.85912 0.0
C358 C 0.50962 0.24345 0.85377 0.0
C359 C 0.5168 0.16348 0.83679 0.0
C360 C 0.51407 0.19079 0.84297 0.0
H361 H 0.56337 0.35737 0.86873 0.0
H362 H 0.56713 0.31153 0.86114 0.0
H363 H 0.46575 0.21869 0.83015 0.0
H364 H 0.4617 0.07983 0.82004 0.0
H365 H 0.45723 0.1233 0.83324 0.0
C366 C 0.55739 0.84562 0.50166 0.0
C367 C 0.53826 0.85357 0.51408 0.0
C368 C 0.55038 0.81438 0.50287 0.0
C369 C 0.48142 0.72704 0.52039 0.0
H370 H 0.56591 0.72748 0.52363 0.0
C371 C 0.47039 0.61552 0.55104 0.0
C372 C 0.49199 0.6072 0.54222 0.0
C373 C 0.47436 0.64393 0.54506 0.0
C374 C 0.54194 0.72675 0.52238 0.0
H375 H 0.49665 0.8347 0.53749 0.0
H376 H 0.48431 0.78021 0.53951 0.0
H377 H 0.57597 0.78023 0.51799 0.0
H378 H 0.53396 0.62168 0.51969 0.0
H379 H 0.54062 0.67121 0.50907 0.0
H380 H 0.4474 0.67365 0.52503 0.0
C381 C 0.50442 0.79799 0.52864 0.0
C382 C 0.54773 0.75704 0.51918 0.0
C383 C 0.5115 0.82926 0.52748 0.0
C384 C 0.51698 0.62745 0.52684 0.0
C385 C 0.52096 0.65595 0.52085 0.0
C386 C 0.47562 0.69674 0.52354 0.0
C387 C 0.52397 0.79028 0.51647 0.0
C388 C 0.51758 0.75764 0.51846 0.0
C389 C 0.49999 0.66476 0.53007 0.0
C390 C 0.50586 0.69631 0.52489 0.0
H391 H 0.5777 0.86348 0.4909 0.0
H392 H 0.56553 0.80902 0.49307 0.0
H393 H 0.45755 0.72652 0.51954 0.0
H394 H 0.45089 0.60052 0.56294 0.0
H395 H 0.45812 0.65016 0.55271 0.0
C396 C 0.67154 0.5515 0.84432 0.0
C397 C 0.63815 0.52632 0.85382 0.0
C398 C 0.70284 0.55282 0.84617 0.0
C399 C 0.74393 0.52394 0.87875 0.0
H400 H 0.80785 0.54722 0.83233 0.0
C401 C 0.86561 0.51682 0.88079 0.0
C402 C 0.89869 0.54239 0.8712 0.0
C403 C 0.83352 0.51424 0.87866 0.0
C404 C 0.7906 0.54106 0.84556 0.0
H405 H 0.61166 0.48242 0.87252 0.0
H406 H 0.66583 0.48454 0.87555 0.0
H407 H 0.75306 0.54407 0.8285 0.0
H408 H 0.92373 0.58549 0.85197 0.0
H409 H 0.86834 0.5813 0.84851 0.0
H410 H 0.78155 0.52106 0.89583 0.0
C411 C 0.66812 0.50366 0.86692 0.0
C412 C 0.75906 0.53925 0.84334 0.0
C413 C 0.63686 0.50232 0.86505 0.0
C414 C 0.89881 0.56535 0.85952 0.0
C415 C 0.86682 0.56279 0.85741 0.0
C416 C 0.7755 0.52579 0.88097 0.0
C417 C 0.70167 0.52902 0.8576 0.0
C418 C 0.73526 0.53073 0.85991 0.0
C419 C 0.83361 0.53715 0.86687 0.0
C420 C 0.79942 0.53449 0.86443 0.0
H421 H 0.67369 0.57048 0.8356 0.0
H422 H 0.72823 0.57296 0.83896 0.0
H423 H 0.72668 0.51781 0.89197 0.0
H424 H 0.86439 0.49862 0.88985 0.0
H425 H 0.80845 0.49392 0.88601 0.0
C426 C 0.14427 0.60837 0.13282 0.0
C427 C 0.11468 0.60244 0.14412 0.0
C428 C 0.17855 0.64115 0.13275 0.0
C429 C 0.22283 0.73247 0.14486 0.0
H430 H 0.31274 0.74246 0.15278 0.0
C431 C 0.36561 0.86534 0.15659 0.0
C432 C 0.38789 0.86879 0.17291 0.0
C433 C 0.33456 0.83301 0.14907 0.0
C434 C 0.2879 0.74013 0.15056 0.0
H435 H 0.0979 0.62652 0.16394 0.0
H436 H 0.15737 0.68309 0.16403 0.0
H437 H 0.25317 0.68569 0.1475 0.0
H438 H 0.3959 0.8409 0.19347 0.0
H439 H 0.34171 0.78489 0.18068 0.0
H440 H 0.25712 0.78668 0.149 0.0
C441 C 0.1541 0.66269 0.15496 0.0
C442 C 0.25377 0.70757 0.14729 0.0
C443 C 0.11998 0.63006 0.15504 0.0
C444 C 0.37934 0.83922 0.18091 0.0
C445 C 0.34832 0.80699 0.17345 0.0
C446 C 0.25689 0.76498 0.14819 0.0
C447 C 0.18391 0.66868 0.14391 0.0
C448 C 0.22069 0.7033 0.1449 0.0
C449 C 0.32509 0.80344 0.1577 0.0
C450 C 0.28976 0.7692 0.15155 0.0
H451 H 0.14113 0.58768 0.12421 0.0
H452 H 0.20085 0.64493 0.12395 0.0
H453 H 0.19798 0.73015 0.14271 0.0
H454 H 0.37156 0.88759 0.14999 0.0
H455 H 0.31761 0.83121 0.13671 0.0
C456 C 0.53563 0.21991 0.48792 0.0
C457 C 0.49902 0.18932 0.48552 0.0
C458 C 0.5424 0.25103 0.4916 0.0
C459 C 0.49862 0.2925 0.48745 0.0
H460 H 0.57355 0.35732 0.5289 0.0
C461 C 0.51014 0.40724 0.52152 0.0
C462 C 0.54585 0.43818 0.52581 0.0
C463 C 0.5055 0.37778 0.5152 0.0
C464 C 0.55289 0.33974 0.51707 0.0
H465 H 0.44084 0.16756 0.48528 0.0
H466 H 0.45265 0.22172 0.49167 0.0
H467 H 0.5636 0.30437 0.5205 0.0
H468 H 0.60479 0.46256 0.52635 0.0
H469 H 0.59671 0.41125 0.51512 0.0
H470 H 0.48769 0.32777 0.48416 0.0
C471 C 0.47616 0.22175 0.49038 0.0
C472 C 0.54718 0.30935 0.51225 0.0
C473 C 0.46939 0.19066 0.48671 0.0
C474 C 0.57687 0.43912 0.52325 0.0
C475 C 0.57224 0.40965 0.51694 0.0
C476 C 0.50435 0.32291 0.49226 0.0
C477 C 0.51274 0.25231 0.49296 0.0
C478 C 0.51979 0.28524 0.49748 0.0
C479 C 0.53647 0.37854 0.51301 0.0
C480 C 0.53138 0.3468 0.50724 0.0
H481 H 0.55911 0.21986 0.48679 0.0
H482 H 0.57093 0.27413 0.49322 0.0
H483 H 0.47772 0.27475 0.47576 0.0
H484 H 0.48563 0.4056 0.52337 0.0
H485 H 0.47755 0.35419 0.51254 0.0
C486 C 0.44152 0.53867 0.84228 0.0
C487 C 0.44555 0.52062 0.85634 0.0
C488 C 0.41128 0.53906 0.84327 0.0
C489 C 0.34203 0.52829 0.87878 0.0
H490 H 0.2868 0.51355 0.82885 0.0
C491 C 0.2331 0.55181 0.87545 0.0
C492 C 0.19937 0.52683 0.86461 0.0
C493 C 0.26272 0.55051 0.87484 0.0
C494 C 0.30185 0.5176 0.84294 0.0
H495 H 0.42085 0.48902 0.88261 0.0
H496 H 0.3685 0.49015 0.8845 0.0
H497 H 0.33924 0.51247 0.82691 0.0
H498 H 0.17053 0.48085 0.84463 0.0
H499 H 0.22236 0.4789 0.84334 0.0
H500 H 0.30482 0.5337 0.89479 0.0
C501 C 0.38872 0.50394 0.87267 0.0
C502 C 0.3321 0.51725 0.84181 0.0
C503 C 0.41866 0.50314 0.8715 0.0
C504 C 0.19603 0.50047 0.8532 0.0
C505 C 0.22584 0.49947 0.85235 0.0
C506 C 0.31212 0.52915 0.87987 0.0
C507 C 0.38456 0.52182 0.85853 0.0
C508 C 0.35251 0.52247 0.85972 0.0
C509 C 0.2596 0.5245 0.86313 0.0
C510 C 0.29154 0.52368 0.86198 0.0
H511 H 0.46162 0.55239 0.83039 0.0
H512 H 0.40911 0.55331 0.83225 0.0
H513 H 0.35729 0.53265 0.89285 0.0
H514 H 0.23669 0.57249 0.88438 0.0
H515 H 0.2884 0.57033 0.8832 0.0
C516 C 0.87661 0.39493 0.1591 0.0
C517 C 0.90642 0.3992 0.14918 0.0
C518 C 0.84273 0.36244 0.16084 0.0
C519 C 0.78815 0.27233 0.14009 0.0
H520 H 0.73373 0.25392 0.19032 0.0
C521 C 0.66498 0.13666 0.16382 0.0
C522 C 0.63357 0.13237 0.17126 0.0
C523 C 0.69754 0.16912 0.15996 0.0
C524 C 0.74846 0.25878 0.17613 0.0
H525 H 0.92409 0.3727 0.13331 0.0
H526 H 0.86544 0.31593 0.13691 0.0
H527 H 0.79211 0.31049 0.18607 0.0
H528 H 0.61159 0.15876 0.18026 0.0
H529 H 0.66863 0.21545 0.17378 0.0
H530 H 0.74471 0.22004 0.13055 0.0
C531 C 0.86779 0.33769 0.1429 0.0
C532 C 0.7819 0.29127 0.17362 0.0
C533 C 0.90155 0.37027 0.14093 0.0
C534 C 0.63528 0.16118 0.17452 0.0
C535 C 0.66798 0.19366 0.17092 0.0
C536 C 0.75489 0.23968 0.14273 0.0
C537 C 0.83794 0.33331 0.15296 0.0
C538 C 0.80219 0.29857 0.15554 0.0
C539 C 0.69951 0.19799 0.16373 0.0
C540 C 0.73467 0.23262 0.16076 0.0
H541 H 0.87931 0.41673 0.16547 0.0
H542 H 0.82023 0.36026 0.16828 0.0
H543 H 0.80258 0.27704 0.12581 0.0
H544 H 0.66452 0.11496 0.16114 0.0
H545 H 0.72151 0.17175 0.15454 0.0
C546 C 0.99052 0.48512 0.08255 0.0
C547 C 0.99222 0.5111 0.09314 0.0
C548 C 0.99305 0.48449 0.06108 0.0
C549 C 0.98023 0.5139 0.01384 0.0
H550 H 0.05115 0.50361 0.99118 0.0
C551 C 0.02205 0.53489 0.92793 0.0
C552 C 0.03234 0.51612 0.91869 0.0
C553 C 0.01369 0.53223 0.9489 0.0
C554 C 0.03063 0.50583 0.99711 0.0
H555 H 0.99695 0.55631 0.08962 0.0
H556 H 1.00074 0.55488 0.05196 0.0
H557 H 0.0429 0.50263 0.02822 0.0
H558 H 0.0401 0.47861 0.92374 0.0
H559 H 0.02388 0.47267 0.95989 0.0
H560 H 0.96744 0.51654 0.9827 0.0
C561 C 0.99761 0.53511 0.0603 0.0
C562 C 0.0261 0.50545 0.01841 0.0
C563 C 0.99561 0.53601 0.08183 0.0
C564 C 0.03247 0.49354 0.93052 0.0
C565 C 0.02353 0.49043 0.95133 0.0
C566 C 0.98438 0.51382 0.99243 0.0
C567 C 0.99677 0.50955 0.04973 0.0
C568 C 1.00094 0.50955 0.02702 0.0
C569 C 0.01508 0.51046 0.961 0.0
C570 C 0.0097 0.50981 0.98376 0.0
H571 H 0.98768 0.46546 0.09086 0.0
H572 H 0.99199 0.46432 0.05333 0.0
H573 H 0.96042 0.51686 0.02006 0.0
H574 H 0.02245 0.55301 0.91928 0.0
H575 H 0.00775 0.54838 0.95579 0.0
C576 C 0.50351 0.01087 0.42541 0.0
C577 C 0.5381 0.02649 0.43531 0.0
C578 C 0.50128 0.01325 0.40418 0.0
C579 C 0.55457 0.0303 0.35684 0.0
H580 H 0.48186 0.0359 0.3325 0.0
C581 C 0.54865 0.0447 0.26964 0.0
C582 C 0.51315 0.02255 0.26 0.0
C583 C 0.5526 0.04813 0.29116 0.0
C584 C 0.5022 0.0342 0.3391 0.0
H585 H 0.59756 0.05798 0.43112 0.0
H586 H 0.59385 0.06286 0.39423 0.0
H587 H 0.4872 0.03684 0.36999 0.0
H588 H 0.45395 0.98742 0.26549 0.0
H589 H 0.46095 0.99352 0.30298 0.0
H590 H 0.56955 0.02766 0.32596 0.0
C591 C 0.56831 0.04799 0.40264 0.0
C592 C 0.5052 0.03463 0.36056 0.0
C593 C 0.57048 0.04537 0.4238 0.0
C594 C 0.48172 0.00463 0.27239 0.0
C595 C 0.48567 0.00827 0.29389 0.0
C596 C 0.55174 0.0301 0.33542 0.0
C597 C 0.53365 0.03153 0.39248 0.0
C598 C 0.53125 0.03244 0.3697 0.0
C599 C 0.52117 0.02973 0.3035 0.0
C600 C 0.52534 0.03178 0.32631 0.0
H601 H 0.47811 0.99617 0.43397 0.0
H602 H 0.47409 0.99995 0.39685 0.0
H603 H 0.57446 0.0279 0.36328 0.0
H604 H 0.57344 0.05895 0.26057 0.0
H605 H 0.5803 0.06514 0.29815 0.0
C606 C 0.48598 0.47416 0.78395 0.0
C607 C 0.51885 0.49228 0.79607 0.0
C608 C 0.48744 0.47621 0.76252 0.0
C609 C 0.55154 0.52857 0.72072 0.0
H610 H 0.47681 0.44894 0.68591 0.0
C611 C 0.56059 0.5221 0.63188 0.0
C612 C 0.5284 0.51118 0.62077 0.0
C613 C 0.55974 0.51893 0.65321 0.0
C614 C 0.49776 0.47139 0.69547 0.0
H615 H 0.57902 0.52662 0.79547 0.0
H616 H 0.58175 0.52934 0.75805 0.0
H617 H 0.47506 0.44525 0.72328 0.0
H618 H 0.46986 0.48752 0.62322 0.0
H619 H 0.46832 0.48143 0.6604 0.0
H620 H 0.57459 0.55438 0.69273 0.0
C621 C 0.55474 0.51419 0.765 0.0
C622 C 0.49669 0.4694 0.7169 0.0
C623 C 0.55324 0.51247 0.78645 0.0
C624 C 0.49515 0.49626 0.63135 0.0
C625 C 0.4942 0.49262 0.6526 0.0
C626 C 0.55288 0.5304 0.69928 0.0
C627 C 0.52185 0.49611 0.75272 0.0
C628 C 0.52341 0.49804 0.72984 0.0
C629 C 0.52657 0.50428 0.66377 0.0
C630 C 0.52587 0.5019 0.68646 0.0
H631 H 0.4591 0.45861 0.79104 0.0
H632 H 0.46153 0.46247 0.75368 0.0
H633 H 0.5722 0.55134 0.73013 0.0
H634 H 0.58665 0.53377 0.62419 0.0
H635 H 0.58503 0.52789 0.66145 0.0
C636 C 0.4725 0.99722 0.56211 0.0
C637 C 0.50394 0.01805 0.5501 0.0
C638 C 0.47659 0.99491 0.58313 0.0
C639 C 0.53959 0.04378 0.62707 0.0
H640 H 0.48676 0.95742 0.65281 0.0
C641 C 0.56349 0.03946 0.71323 0.0
C642 C 0.53268 0.01476 0.72456 0.0
C643 C 0.56102 0.03809 0.69172 0.0
C644 C 0.50134 0.98178 0.64596 0.0
H645 H 0.56421 0.05239 0.55041 0.0
H646 H 0.57133 0.04898 0.58729 0.0
H647 H 0.47969 0.95818 0.61563 0.0
H648 H 0.47523 0.96897 0.72225 0.0
H649 H 0.47034 0.96728 0.6848 0.0
H650 H 0.56011 0.06762 0.65722 0.0
C651 C 0.5436 0.03435 0.58042 0.0
C652 C 0.4974 0.98215 0.62464 0.0
C653 C 0.53952 0.03622 0.55936 0.0
C654 C 0.49953 0.98827 0.71392 0.0
C655 C 0.49682 0.98723 0.6924 0.0
C656 C 0.54307 0.04346 0.64839 0.0
C657 C 0.51218 0.01382 0.59252 0.0
C658 C 0.51657 0.01316 0.61502 0.0
C659 C 0.52744 0.01235 0.681 0.0
C660 C 0.52407 0.01247 0.65816 0.0
H661 H 0.44477 0.98285 0.55528 0.0
H662 H 0.45194 0.97905 0.59216 0.0
H663 H 0.55427 0.06805 0.62005 0.0
H664 H 0.58957 0.05998 0.72099 0.0
H665 H 0.58551 0.05739 0.68352 0.0
C666 C 0.599 0.581 0.92024 0.0
C667 C 0.56696 0.55461 0.90881 0.0
C668 C 0.60019 0.58081 0.94167 0.0
C669 C 0.5621 0.52444 0.98408 0.0
H670 H 0.60834 0.60874 0.01715 0.0
C671 C 0.63648 0.55365 0.06245 0.0
C672 C 0.63437 0.57288 0.07789 0.0
C673 C 0.61941 0.54679 0.0431 0.0
C674 C 0.59476 0.58482 0.00825 0.0
H675 H 0.51097 0.50726 0.91069 0.0
H676 H 0.51331 0.5066 0.94844 0.0
H677 H 0.595 0.6064 0.98055 0.0
H678 H 0.61291 0.60018 0.08517 0.0
H679 H 0.58257 0.58779 0.0514 0.0
H680 H 0.56298 0.50318 0.0117 0.0
C681 C 0.53737 0.52751 0.94072 0.0
C682 C 0.58747 0.58359 0.98725 0.0
C683 C 0.53602 0.52791 0.91919 0.0
C684 C 0.61412 0.58448 0.07379 0.0
C685 C 0.59719 0.57778 0.05436 0.0
C686 C 0.56965 0.52573 0.0051 0.0
C687 C 0.56948 0.55406 0.95214 0.0
C688 C 0.57201 0.55369 0.97485 0.0
C689 C 0.60022 0.55937 0.0387 0.0
C690 C 0.58691 0.55619 0.01728 0.0
H691 H 0.62329 0.60184 0.91262 0.0
H692 H 0.62552 0.60132 0.95004 0.0
H693 H 0.55025 0.50109 0.97486 0.0
H694 H 0.65204 0.5445 0.0652 0.0
H695 H 0.62275 0.53298 0.03128 0.0
C696 C 0.02835 0.46757 0.21249 0.0
C697 C 0.03525 0.49364 0.20076 0.0
C698 C 0.02926 0.47067 0.23405 0.0
C699 C 0.01739 0.51323 0.27668 0.0
H700 H 0.06759 0.48998 0.31005 0.0
C701 C 0.99589 0.49448 0.3641 0.0
C702 C 0.0279 0.50974 0.37675 0.0
C703 C 0.99811 0.49397 0.34263 0.0
C704 C 0.05365 0.49675 0.30092 0.0
H705 H 0.04982 0.54386 0.20228 0.0
H706 H 0.05066 0.54897 0.23992 0.0
H707 H 0.06946 0.48629 0.27239 0.0
H708 H 0.08739 0.5365 0.3767 0.0
H709 H 0.09112 0.53525 0.33911 0.0
H710 H 1.00132 0.52343 0.30516 0.0
C711 C 0.04424 0.52605 0.23247 0.0
C712 C 0.05445 0.49435 0.2794 0.0
C713 C 0.04375 0.52311 0.21095 0.0
C714 C 0.06222 0.52458 0.36741 0.0
C715 C 0.06435 0.52371 0.3459 0.0
C716 C 0.01623 0.51524 0.29817 0.0
C717 C 0.03682 0.49979 0.24424 0.0
C718 C 0.03633 0.50257 0.26707 0.0
C719 C 0.03231 0.50838 0.33331 0.0
C720 C 0.03431 0.50699 0.31051 0.0
H721 H 0.02181 0.44462 0.205 0.0
H722 H 0.02322 0.44996 0.24275 0.0
H723 H 1.00294 0.51948 0.26755 0.0
H724 H 0.96902 0.48286 0.37078 0.0
H725 H 0.97291 0.48173 0.33331 0.0
loop_
_geom_bond_atom_site_label_1
_geom_bond_atom_site_label_2
_geom_bond_distance
_geom_bond_site_symmetry_2
_ccdc_geom_bond_type
Gd0 C3 2.818 . S
Gd0 O20 2.377 . S
Gd0 O22 2.448 . S
Gd0 O23 2.506 . S
Gd0 O24 2.435 . S
Gd0 O25 2.717 . S
Gd0 O27 2.395 1_455 S
Gd0 O31 2.327 . S
Gd1 C12 2.818 1_455 S
Gd1 O21 2.395 . S
Gd1 O25 2.327 . S
Gd1 O26 2.377 1_455 S
Gd1 O28 2.448 1_455 S
Gd1 O29 2.506 1_455 S
Gd1 O30 2.435 . S
Gd1 O31 2.717 . S
C2 O20 1.240 . S
C2 O21 1.240 . S
C3 Gd0 2.818 . S
C3 C4 1.510 . S
C3 O22 1.249 . S
C3 O23 1.252 . S
C4 C3 1.510 . S
C4 C5 1.404 . S
C4 C6 1.352 . S
C5 C4 1.404 . S
C5 C9 1.389 . S
C5 H32 0.930 . S
C6 C4 1.352 . S
C6 C8 1.374 . S
C6 H33 0.931 . S
C7 C8 1.359 . S
C7 C9 1.364 . S
C8 C6 1.374 . S
C8 C7 1.359 . S
C8 H34 0.931 . S
C9 C5 1.389 . S
C9 C7 1.364 . S
C9 H35 0.931 . S
C10 O24 1.256 . S
C10 O25 1.257 . S
C11 O26 1.240 . S
C11 O27 1.240 . S
C12 Gd1 2.818 1_655 S
C12 C13 1.510 . S
C12 O28 1.249 . S
C12 O29 1.252 . S
C13 C12 1.510 . S
C13 C14 1.404 . S
C13 C15 1.352 . S
C14 C13 1.404 . S
C14 C18 1.389 . S
C14 H36 0.930 . S
C15 C13 1.352 . S
C15 C17 1.374 . S
C15 H37 0.931 . S
C16 C17 1.359 . S
C16 C18 1.364 . S
C17 C15 1.374 . S
C17 C16 1.359 . S
C17 H38 0.931 . S
C18 C14 1.389 . S
C18 C16 1.364 . S
C18 H39 0.931 . S
C19 O30 1.256 . S
C19 O31 1.257 . S
O20 Gd0 2.377 . S
O20 C2 1.240 . S
O21 Gd1 2.395 . S
O21 C2 1.240 . S
O22 Gd0 2.448 . S
O22 C3 1.249 . S
O23 Gd0 2.506 . S
O23 C3 1.252 . S
O24 Gd0 2.435 . S
O24 C10 1.256 . S
O25 Gd0 2.717 . S
O25 Gd1 2.327 . S
O25 C10 1.257 . S
O26 Gd1 2.377 1_655 S
O26 C11 1.240 . S
O27 Gd0 2.395 1_655 S
O27 C11 1.240 . S
O28 Gd1 2.448 1_655 S
O28 C12 1.249 . S
O29 Gd1 2.506 1_655 S
O29 C12 1.252 . S
O30 Gd1 2.435 . S
O30 C19 1.256 . S
O31 Gd0 2.327 . S
O31 Gd1 2.717 . S
O31 C19 1.257 . S
H32 C5 0.930 . S
H33 C6 0.931 . S
H34 C8 0.931 . S
H35 C9 0.931 . S
H36 C14 0.930 . S
H37 C15 0.931 . S
H38 C17 0.931 . S
H39 C18 0.931 . S
Gd40 C43 2.818 . S
Gd40 O60 2.377 . S
Gd40 O62 2.448 . S
Gd40 O63 2.506 . S
Gd40 O64 2.435 . S
Gd40 O65 2.717 1_565 S
Gd40 O67 2.395 1_565 S
Gd40 O71 2.327 1_565 S
Gd41 C52 2.818 . S
Gd41 O61 2.395 1_545 S
Gd41 O65 2.327 . S
Gd41 O66 2.377 . S
Gd41 O68 2.448 . S
Gd41 O69 2.506 . S
Gd41 O70 2.435 . S
Gd41 O71 2.717 . S
C42 O60 1.240 . S
C42 O61 1.240 . S
C43 Gd40 2.818 . S
C43 C44 1.510 . S
C43 O62 1.249 . S
C43 O63 1.252 . S
C44 C43 1.510 . S
C44 C45 1.404 . S
C44 C46 1.352 . S
C45 C44 1.404 . S
C45 C49 1.389 . S
C45 H72 0.930 . S
C46 C44 1.352 . S
C46 C48 1.374 . S
C46 H73 0.931 . S
C47 C48 1.359 . S
C47 C49 1.364 . S
C48 C46 1.374 . S
C48 C47 1.359 . S
C48 H74 0.931 . S
C49 C45 1.389 . S
C49 C47 1.364 . S
C49 H75 0.931 . S
C50 O64 1.256 1_545 S
C50 O65 1.257 . S
C51 O66 1.240 . S
C51 O67 1.240 . S
C52 Gd41 2.818 . S
C52 C53 1.510 . S
C52 O68 1.249 . S
C52 O69 1.252 . S
C53 C52 1.510 . S
C53 C54 1.404 . S
C53 C55 1.352 . S
C54 C53 1.404 . S
C54 C58 1.389 . S
C54 H76 0.930 . S
C55 C53 1.352 . S
C55 C57 1.374 . S
C55 H77 0.931 . S
C56 C57 1.359 . S
C56 C58 1.364 . S
C57 C55 1.374 . S
C57 C56 1.359 . S
C57 H78 0.931 . S
C58 C54 1.389 . S
C58 C56 1.364 . S
C58 H79 0.931 . S
C59 O70 1.256 . S
C59 O71 1.257 . S
O60 Gd40 2.377 . S
O60 C42 1.240 . S
O61 Gd41 2.395 1_565 S
O61 C42 1.240 . S
O62 Gd40 2.448 . S
O62 C43 1.249 . S
O63 Gd40 2.506 . S
O63 C43 1.252 . S
O64 Gd40 2.435 . S
O64 C50 1.256 1_565 S
O65 Gd40 2.717 1_545 S
O65 Gd41 2.327 . S
O65 C50 1.257 . S
O66 Gd41 2.377 . S
O66 C51 1.240 . S
O67 Gd40 2.395 1_545 S
O67 C51 1.240 . S
O68 Gd41 2.448 . S
O68 C52 1.249 . S
O69 Gd41 2.506 . S
O69 C52 1.252 . S
O70 Gd41 2.435 . S
O70 C59 1.256 . S
O71 Gd40 2.327 1_545 S
O71 Gd41 2.717 . S
O71 C59 1.257 . S
H72 C45 0.930 . S
H73 C46 0.931 . S
H74 C48 0.931 . S
H75 C49 0.931 . S
H76 C54 0.930 . S
H77 C55 0.931 . S
H78 C57 0.931 . S
H79 C58 0.931 . S
Gd80 C83 2.818 . S
Gd80 O100 2.377 . S
Gd80 O102 2.448 . S
Gd80 O103 2.506 . S
Gd80 O104 2.435 . S
Gd80 O105 2.717 . S
Gd80 O107 2.395 . S
Gd80 O111 2.327 . S
Gd81 C92 2.818 . S
Gd81 O101 2.395 . S
Gd81 O105 2.327 . S
Gd81 O106 2.377 . S
Gd81 O108 2.448 . S
Gd81 O109 2.506 . S
Gd81 O110 2.435 . S
Gd81 O111 2.717 . S
C82 O100 1.240 . S
C82 O101 1.240 . S
C83 Gd80 2.818 . S
C83 C84 1.510 . S
C83 O102 1.249 . S
C83 O103 1.252 . S
C84 C83 1.510 . S
C84 C85 1.404 . S
C84 C86 1.352 . S
C85 C84 1.404 . S
C85 C89 1.389 . S
C85 H112 0.930 . S
C86 C84 1.352 . S
C86 C88 1.374 . S
C86 H113 0.931 . S
C87 C88 1.359 . S
C87 C89 1.364 . S
C88 C86 1.374 . S
C88 C87 1.359 . S
C88 H114 0.931 . S
C89 C85 1.389 . S
C89 C87 1.364 . S
C89 H115 0.931 . S
C90 O104 1.256 . S
C90 O105 1.257 . S
C91 O106 1.240 . S
C91 O107 1.240 . S
C92 Gd81 2.818 . S
C92 C93 1.510 . S
C92 O108 1.249 . S
C92 O109 1.252 . S
C93 C92 1.510 . S
C93 C94 1.404 . S
C93 C95 1.352 . S
C94 C93 1.404 . S
C94 C98 1.389 . S
C94 H116 0.930 . S
C95 C93 1.352 . S
C95 C97 1.374 . S
C95 H117 0.931 . S
C96 C97 1.359 . S
C96 C98 1.364 . S
C97 C95 1.374 . S
C97 C96 1.359 . S
C97 H118 0.931 . S
C98 C94 1.389 . S
C98 C96 1.364 . S
C98 H119 0.931 . S
C99 O110 1.256 . S
C99 O111 1.257 . S
O100 Gd80 2.377 . S
O100 C82 1.240 . S
O101 Gd81 2.395 . S
O101 C82 1.240 . S
O102 Gd80 2.448 . S
O102 C83 1.249 . S
O103 Gd80 2.506 . S
O103 C83 1.252 . S
O104 Gd80 2.435 . S
O104 C90 1.256 . S
O105 Gd80 2.717 . S
O105 Gd81 2.327 . S
O105 C90 1.257 . S
O106 Gd81 2.377 . S
O106 C91 1.240 . S
O107 Gd80 2.395 . S
O107 C91 1.240 . S
O108 Gd81 2.448 . S
O108 C92 1.249 . S
O109 Gd81 2.506 . S
O109 C92 1.252 . S
O110 Gd81 2.435 . S
O110 C99 1.256 . S
O111 Gd80 2.327 . S
O111 Gd81 2.717 . S
O111 C99 1.257 . S
H112 C85 0.930 . S
H113 C86 0.931 . S
H114 C88 0.931 . S
H115 C89 0.931 . S
H116 C94 0.930 . S
H117 C95 0.931 . S
H118 C97 0.931 . S
H119 C98 0.931 . S
O120 Cd121 2.300 . S
O120 C127 1.275 . S
Cd121 O120 2.300 . S
Cd121 O129 2.381 . S
Cd121 O130 2.378 . S
O122 Cd123 2.347 1_545 S
O122 C127 1.293 . S
Cd123 O122 2.347 1_565 S
Cd123 O124 2.317 . S
O124 Cd123 2.317 . S
O124 C125 1.232 . S
C125 O124 1.232 . S
C125 O126 1.218 . S
O126 C125 1.218 . S
C127 O120 1.275 . S
C127 O122 1.293 . S
C128 O129 1.258 . S
C128 O130 1.256 . S
O129 Cd121 2.381 . S
O129 C128 1.258 . S
O130 Cd121 2.378 . S
O130 C128 1.256 . S
O131 Cd132 2.300 . S
O131 C138 1.275 . S
Cd132 O131 2.300 . S
Cd132 O140 2.381 . S
Cd132 O141 2.378 . S
O133 Cd134 2.385 . S
O133 C138 1.255 . S
Cd134 O133 2.385 . S
Cd134 O135 2.317 . S
O135 Cd134 2.317 . S
O135 C136 1.232 . S
C136 O135 1.232 . S
C136 O137 1.218 . S
O137 C136 1.218 . S
C138 O131 1.275 . S
C138 O133 1.255 . S
C139 O140 1.258 . S
C139 O141 1.256 . S
O140 Cd132 2.381 . S
O140 C139 1.258 . S
O141 Cd132 2.378 . S
O141 C139 1.256 . S
O142 Cd143 2.300 . S
O142 C149 1.275 . S
Cd143 O142 2.300 . S
Cd143 O151 2.381 . S
Cd143 O152 2.378 . S
O144 Cd145 2.385 1_455 S
O144 C149 1.255 . S
Cd145 O144 2.385 1_655 S
Cd145 O146 2.317 . S
O146 Cd145 2.317 . S
O146 C147 1.232 . S
C147 O146 1.232 . S
C147 O148 1.218 . S
O148 C147 1.218 . S
C149 O142 1.275 . S
C149 O144 1.255 . S
C150 O151 1.258 . S
C150 O152 1.256 . S
O151 Cd143 2.381 . S
O151 C150 1.258 . S
O152 Cd143 2.378 . S
O152 C150 1.256 . S
O153 Cd154 2.300 . S
O153 C160 1.275 1_455 S
Cd154 O153 2.300 . S
Cd154 O162 2.381 . S
Cd154 O163 2.378 . S
O155 Cd156 2.385 . S
O155 C160 1.255 . S
Cd156 O155 2.385 . S
Cd156 O157 2.317 . S
O157 Cd156 2.317 . S
O157 C158 1.232 . S
C158 O157 1.232 . S
C158 O159 1.218 . S
O159 C158 1.218 . S
C160 O153 1.275 1_655 S
C160 O155 1.255 . S
C161 O162 1.258 . S
C161 O163 1.256 . S
O162 Cd154 2.381 . S
O162 C161 1.258 . S
O163 Cd154 2.378 . S
O163 C161 1.256 . S
O164 Cd165 2.300 . S
O164 C171 1.275 1_565 S
Cd165 O164 2.300 . S
Cd165 O173 2.381 . S
Cd165 O174 2.378 . S
O166 Cd167 2.385 . S
O166 C171 1.255 . S
Cd167 O166 2.385 . S
Cd167 O168 2.317 . S
O168 Cd167 2.317 . S
O168 C169 1.232 . S
C169 O168 1.232 . S
C169 O170 1.218 . S
O170 C169 1.218 . S
C171 O164 1.275 1_545 S
C171 O166 1.255 . S
C172 O173 1.258 . S
C172 O174 1.256 . S
O173 Cd165 2.381 . S
O173 C172 1.258 . S
O174 Cd165 2.378 . S
O174 C172 1.256 . S
O175 Cd176 2.300 . S
O175 C182 1.275 . S
Cd176 O175 2.300 . S
Cd176 O184 2.381 . S
Cd176 O185 2.378 . S
O177 Cd178 2.385 . S
O177 C182 1.255 . S
Cd178 O177 2.385 . S
Cd178 O179 2.317 . S
O179 Cd178 2.317 . S
O179 C180 1.232 . S
C180 O179 1.232 . S
C180 O181 1.218 . S
O181 C180 1.218 . S
C182 O175 1.275 . S
C182 O177 1.255 . S
C183 O184 1.258 . S
C183 O185 1.256 . S
O184 Cd176 2.381 . S
O184 C183 1.258 . S
O185 Cd176 2.378 . S
O185 C183 1.256 . S
C186 C187 1.349 . S
C186 C188 1.327 . S
C186 H211 0.950 . S
C187 C186 1.349 . S
C187 C203 1.349 . S
C188 C186 1.327 . S
C188 C207 1.429 . S
C188 H212 0.950 . S
C189 C206 1.574 . S
C189 C208 1.368 . S
C189 H213 0.949 . S
H190 C194 0.949 . S
C191 C192 1.349 . S
C191 C193 1.327 . S
C191 H214 0.950 . S
C192 C191 1.349 . S
C192 C204 1.349 . S
C193 C191 1.327 . S
C193 C209 1.429 . S
C193 H215 0.950 . S
C194 H190 0.949 . S
C194 C202 1.574 . S
C194 C210 1.368 . S
H195 C203 0.950 . S
H196 C201 0.950 . S
H197 C202 0.949 . S
H198 C204 0.950 . S
H199 C205 0.950 . S
H200 C206 0.949 . S
C201 H196 0.950 . S
C201 C203 1.327 . S
C201 C207 1.429 . S
C202 C194 1.574 . S
C202 H197 0.949 . S
C202 C208 1.368 . S
C203 C187 1.349 . S
C203 H195 0.950 . S
C203 C201 1.327 . S
C204 C192 1.349 . S
C204 H198 0.950 . S
C204 C205 1.327 . S
C205 H199 0.950 . S
C205 C204 1.327 . S
C205 C209 1.429 . S
C206 C189 1.574 . S
C206 H200 0.949 . S
C206 C210 1.368 . S
C207 C188 1.429 . S
C207 C201 1.429 . S
C207 C208 1.523 . S
C208 C189 1.368 . S
C208 C202 1.368 . S
C208 C207 1.523 . S
C209 C193 1.429 . S
C209 C205 1.429 . S
C209 C210 1.523 . S
C210 C194 1.368 . S
C210 C206 1.368 . S
C210 C209 1.523 . S
H211 C186 0.950 . S
H212 C188 0.950 . S
H213 C189 0.949 . S
H214 C191 0.950 . S
H215 C193 0.950 . S
C216 C217 1.349 . S
C216 C218 1.327 . S
C216 H241 0.950 . S
C217 C216 1.349 . S
C217 C233 1.349 . S
C218 C216 1.327 . S
C218 C237 1.429 . S
C218 H242 0.950 . S
C219 C236 1.574 . S
C219 C238 1.368 . S
C219 H243 0.949 . S
H220 C224 0.949 . S
C221 C222 1.349 . S
C221 C223 1.327 . S
C221 H244 0.950 . S
C222 C221 1.349 . S
C222 C234 1.349 . S
C223 C221 1.327 . S
C223 C239 1.429 . S
C223 H245 0.950 . S
C224 H220 0.949 . S
C224 C232 1.574 . S
C224 C240 1.368 . S
H225 C233 0.950 . S
H226 C231 0.950 . S
H227 C232 0.949 . S
H228 C234 0.950 . S
H229 C235 0.950 . S
H230 C236 0.949 . S
C231 H226 0.950 . S
C231 C233 1.327 . S
C231 C237 1.429 . S
C232 C224 1.574 . S
C232 H227 0.949 . S
C232 C238 1.368 . S
C233 C217 1.349 . S
C233 H225 0.950 . S
C233 C231 1.327 . S
C234 C222 1.349 . S
C234 H228 0.950 . S
C234 C235 1.327 . S
C235 H229 0.950 . S
C235 C234 1.327 . S
C235 C239 1.429 . S
C236 C219 1.574 . S
C236 H230 0.949 . S
C236 C240 1.368 . S
C237 C218 1.429 . S
C237 C231 1.429 . S
C237 C238 1.523 . S
C238 C219 1.368 . S
C238 C232 1.368 . S
C238 C237 1.523 . S
C239 C223 1.429 . S
C239 C235 1.429 . S
C239 C240 1.523 . S
C240 C224 1.368 . S
C240 C236 1.368 . S
C240 C239 1.523 . S
H241 C216 0.950 . S
H242 C218 0.950 . S
H243 C219 0.949 . S
H244 C221 0.950 . S
H245 C223 0.950 . S
C246 C247 1.349 . S
C246 C248 1.327 . S
C246 H271 0.950 . S
C247 C246 1.349 . S
C247 C263 1.349 . S
C248 C246 1.327 . S
C248 C267 1.429 . S
C248 H272 0.950 . S
C249 C266 1.574 . S
C249 C268 1.368 . S
C249 H273 0.949 . S
H250 C254 0.949 . S
C251 C252 1.349 . S
C251 C253 1.327 . S
C251 H274 0.950 . S
C252 C251 1.349 . S
C252 C264 1.349 . S
C253 C251 1.327 . S
C253 C269 1.429 . S
C253 H275 0.950 . S
C254 H250 0.949 . S
C254 C262 1.574 . S
C254 C270 1.368 . S
H255 C263 0.950 . S
H256 C261 0.950 . S
H257 C262 0.949 . S
H258 C264 0.950 . S
H259 C265 0.950 . S
H260 C266 0.949 . S
C261 H256 0.950 . S
C261 C263 1.327 . S
C261 C267 1.429 . S
C262 C254 1.574 . S
C262 H257 0.949 . S
C262 C268 1.368 . S
C263 C247 1.349 . S
C263 H255 0.950 . S
C263 C261 1.327 . S
C264 C252 1.349 . S
C264 H258 0.950 . S
C264 C265 1.327 . S
C265 H259 0.950 . S
C265 C264 1.327 . S
C265 C269 1.429 . S
C266 C249 1.574 . S
C266 H260 0.949 . S
C266 C270 1.368 . S
C267 C248 1.429 . S
C267 C261 1.429 . S
C267 C268 1.523 . S
C268 C249 1.368 . S
C268 C262 1.368 . S
C268 C267 1.523 . S
C269 C253 1.429 . S
C269 C265 1.429 . S
C269 C270 1.523 . S
C270 C254 1.368 . S
C270 C266 1.368 . S
C270 C269 1.523 . S
H271 C246 0.950 . S
H272 C248 0.950 . S
H273 C249 0.949 . S
H274 C251 0.950 . S
H275 C253 0.950 . S
C276 C277 1.349 . S
C276 C278 1.327 . S
C276 H301 0.950 . S
C277 C276 1.349 . S
C277 C293 1.349 . S
C278 C276 1.327 . S
C278 C297 1.429 . S
C278 H302 0.950 . S
C279 C296 1.574 . S
C279 C298 1.368 . S
C279 H303 0.949 . S
H280 C284 0.949 . S
C281 C282 1.349 . S
C281 C283 1.327 . S
C281 H304 0.950 . S
C282 C281 1.349 . S
C282 C294 1.349 . S
C283 C281 1.327 . S
C283 C299 1.429 . S
C283 H305 0.950 . S
C284 H280 0.949 . S
C284 C292 1.574 . S
C284 C300 1.368 . S
H285 C293 0.950 . S
H286 C291 0.950 . S
H287 C292 0.949 . S
H288 C294 0.950 . S
H289 C295 0.950 . S
H290 C296 0.949 . S
C291 H286 0.950 . S
C291 C293 1.327 . S
C291 C297 1.429 . S
C292 C284 1.574 . S
C292 H287 0.949 . S
C292 C298 1.368 . S
C293 C277 1.349 . S
C293 H285 0.950 . S
C293 C291 1.327 . S
C294 C282 1.349 . S
C294 H288 0.950 . S
C294 C295 1.327 . S
C295 H289 0.950 . S
C295 C294 1.327 . S
C295 C299 1.429 . S
C296 C279 1.574 . S
C296 H290 0.949 . S
C296 C300 1.368 . S
C297 C278 1.429 . S
C297 C291 1.429 . S
C297 C298 1.523 . S
C298 C279 1.368 . S
C298 C292 1.368 . S
C298 C297 1.523 . S
C299 C283 1.429 . S
C299 C295 1.429 . S
C299 C300 1.523 . S
C300 C284 1.368 . S
C300 C296 1.368 . S
C300 C299 1.523 . S
H301 C276 0.950 . S
H302 C278 0.950 . S
H303 C279 0.949 . S
H304 C281 0.950 . S
H305 C283 0.950 . S
C306 C307 1.349 . S
C306 C308 1.327 . S
C306 H331 0.950 . S
C307 C306 1.349 . S
C307 C323 1.349 . S
C308 C306 1.327 . S
C308 C327 1.429 . S
C308 H332 0.950 . S
C309 C326 1.574 . S
C309 C328 1.368 . S
C309 H333 0.949 . S
H310 C314 0.949 . S
C311 C312 1.349 . S
C311 C313 1.327 . S
C311 H334 0.950 . S
C312 C311 1.349 . S
C312 C324 1.349 . S
C313 C311 1.327 . S
C313 C329 1.429 . S
C313 H335 0.950 . S
C314 H310 0.949 . S
C314 C322 1.574 . S
C314 C330 1.368 . S
H315 C323 0.950 . S
H316 C321 0.950 . S
H317 C322 0.949 . S
H318 C324 0.950 . S
H319 C325 0.950 . S
H320 C326 0.949 . S
C321 H316 0.950 . S
C321 C323 1.327 . S
C321 C327 1.429 . S
C322 C314 1.574 . S
C322 H317 0.949 . S
C322 C328 1.368 . S
C323 C307 1.349 . S
C323 H315 0.950 . S
C323 C321 1.327 . S
C324 C312 1.349 . S
C324 H318 0.950 . S
C324 C325 1.327 . S
C325 H319 0.950 . S
C325 C324 1.327 . S
C325 C329 1.429 . S
C326 C309 1.574 . S
C326 H320 0.949 . S
C326 C330 1.368 . S
C327 C308 1.429 . S
C327 C321 1.429 . S
C327 C328 1.523 . S
C328 C309 1.368 . S
C328 C322 1.368 . S
C328 C327 1.523 . S
C329 C313 1.429 . S
C329 C325 1.429 . S
C329 C330 1.523 . S
C330 C314 1.368 . S
C330 C326 1.368 . S
C330 C329 1.523 . S
H331 C306 0.950 . S
H332 C308 0.950 . S
H333 C309 0.949 . S
H334 C311 0.950 . S
H335 C313 0.950 . S
C336 C337 1.349 . S
C336 C338 1.327 . S
C336 H361 0.950 . S
C337 C336 1.349 . S
C337 C353 1.349 . S
C338 C336 1.327 . S
C338 C357 1.429 . S
C338 H362 0.950 . S
C339 C356 1.574 . S
C339 C358 1.368 . S
C339 H363 0.949 . S
H340 C344 0.949 . S
C341 C342 1.349 . S
C341 C343 1.327 . S
C341 H364 0.950 . S
C342 C341 1.349 . S
C342 C354 1.349 . S
C343 C341 1.327 . S
C343 C359 1.429 . S
C343 H365 0.950 . S
C344 H340 0.949 . S
C344 C352 1.574 . S
C344 C360 1.368 . S
H345 C353 0.950 . S
H346 C351 0.950 . S
H347 C352 0.949 . S
H348 C354 0.950 . S
H349 C355 0.950 . S
H350 C356 0.949 . S
C351 H346 0.950 . S
C351 C353 1.327 . S
C351 C357 1.429 . S
C352 C344 1.574 . S
C352 H347 0.949 . S
C352 C358 1.368 . S
C353 C337 1.349 . S
C353 H345 0.950 . S
C353 C351 1.327 . S
C354 C342 1.349 . S
C354 H348 0.950 . S
C354 C355 1.327 . S
C355 H349 0.950 . S
C355 C354 1.327 . S
C355 C359 1.429 . S
C356 C339 1.574 . S
C356 H350 0.949 . S
C356 C360 1.368 . S
C357 C338 1.429 . S
C357 C351 1.429 . S
C357 C358 1.523 . S
C358 C339 1.368 . S
C358 C352 1.368 . S
C358 C357 1.523 . S
C359 C343 1.429 . S
C359 C355 1.429 . S
C359 C360 1.523 . S
C360 C344 1.368 . S
C360 C356 1.368 . S
C360 C359 1.523 . S
H361 C336 0.950 . S
H362 C338 0.950 . S
H363 C339 0.949 . S
H364 C341 0.950 . S
H365 C343 0.950 . S
C366 C367 1.349 . S
C366 C368 1.327 . S
C366 H391 0.950 . S
C367 C366 1.349 . S
C367 C383 1.349 . S
C368 C366 1.327 . S
C368 C387 1.429 . S
C368 H392 0.950 . S
C369 C386 1.574 . S
C369 C388 1.368 . S
C369 H393 0.949 . S
H370 C374 0.949 . S
C371 C372 1.349 . S
C371 C373 1.327 . S
C371 H394 0.950 . S
C372 C371 1.349 . S
C372 C384 1.349 . S
C373 C371 1.327 . S
C373 C389 1.429 . S
C373 H395 0.950 . S
C374 H370 0.949 . S
C374 C382 1.574 . S
C374 C390 1.368 . S
H375 C383 0.950 . S
H376 C381 0.950 . S
H377 C382 0.949 . S
H378 C384 0.950 . S
H379 C385 0.950 . S
H380 C386 0.949 . S
C381 H376 0.950 . S
C381 C383 1.327 . S
C381 C387 1.429 . S
C382 C374 1.574 . S
C382 H377 0.949 . S
C382 C388 1.368 . S
C383 C367 1.349 . S
C383 H375 0.950 . S
C383 C381 1.327 . S
C384 C372 1.349 . S
C384 H378 0.950 . S
C384 C385 1.327 . S
C385 H379 0.950 . S
C385 C384 1.327 . S
C385 C389 1.429 . S
C386 C369 1.574 . S
C386 H380 0.949 . S
C386 C390 1.368 . S
C387 C368 1.429 . S
C387 C381 1.429 . S
C387 C388 1.523 . S
C388 C369 1.368 . S
C388 C382 1.368 . S
C388 C387 1.523 . S
C389 C373 1.429 . S
C389 C385 1.429 . S
C389 C390 1.523 . S
C390 C374 1.368 . S
C390 C386 1.368 . S
C390 C389 1.523 . S
H391 C366 0.950 . S
H392 C368 0.950 . S
H393 C369 0.949 . S
H394 C371 0.950 . S
H395 C373 0.950 . S
C396 C397 1.349 . S
C396 C398 1.327 . S
C396 H421 0.950 . S
C397 C396 1.349 . S
C397 C413 1.349 . S
C398 C396 1.327 . S
C398 C417 1.429 . S
C398 H422 0.950 . S
C399 C416 1.574 . S
C399 C418 1.368 . S
C399 H423 0.949 . S
H400 C404 0.949 . S
C401 C402 1.349 . S
C401 C403 1.327 . S
C401 H424 0.950 . S
C402 C401 1.349 . S
C402 C414 1.349 . S
C403 C401 1.327 . S
C403 C419 1.429 . S
C403 H425 0.950 . S
C404 H400 0.949 . S
C404 C412 1.574 . S
C404 C420 1.368 . S
H405 C413 0.950 . S
H406 C411 0.950 . S
H407 C412 0.949 . S
H408 C414 0.950 . S
H409 C415 0.950 . S
H410 C416 0.949 . S
C411 H406 0.950 . S
C411 C413 1.327 . S
C411 C417 1.429 . S
C412 C404 1.574 . S
C412 H407 0.949 . S
C412 C418 1.368 . S
C413 C397 1.349 . S
C413 H405 0.950 . S
C413 C411 1.327 . S
C414 C402 1.349 . S
C414 H408 0.950 . S
C414 C415 1.327 . S
C415 H409 0.950 . S
C415 C414 1.327 . S
C415 C419 1.429 . S
C416 C399 1.574 . S
C416 H410 0.949 . S
C416 C420 1.368 . S
C417 C398 1.429 . S
C417 C411 1.429 . S
C417 C418 1.523 . S
C418 C399 1.368 . S
C418 C412 1.368 . S
C418 C417 1.523 . S
C419 C403 1.429 . S
C419 C415 1.429 . S
C419 C420 1.523 . S
C420 C404 1.368 . S
C420 C416 1.368 . S
C420 C419 1.523 . S
H421 C396 0.950 . S
H422 C398 0.950 . S
H423 C399 0.949 . S
H424 C401 0.950 . S
H425 C403 0.950 . S
C426 C427 1.349 . S
C426 C428 1.327 . S
C426 H451 0.950 . S
C427 C426 1.349 . S
C427 C443 1.349 . S
C428 C426 1.327 . S
C428 C447 1.429 . S
C428 H452 0.950 . S
C429 C446 1.574 . S
C429 C448 1.368 . S
C429 H453 0.949 . S
H430 C434 0.949 . S
C431 C432 1.349 . S
C431 C433 1.327 . S
C431 H454 0.950 . S
C432 C431 1.349 . S
C432 C444 1.349 . S
C433 C431 1.327 . S
C433 C449 1.429 . S
C433 H455 0.950 . S
C434 H430 0.949 . S
C434 C442 1.574 . S
C434 C450 1.368 . S
H435 C443 0.950 . S
H436 C441 0.950 . S
H437 C442 0.949 . S
H438 C444 0.950 . S
H439 C445 0.950 . S
H440 C446 0.949 . S
C441 H436 0.950 . S
C441 C443 1.327 . S
C441 C447 1.429 . S
C442 C434 1.574 . S
C442 H437 0.949 . S
C442 C448 1.368 . S
C443 C427 1.349 . S
C443 H435 0.950 . S
C443 C441 1.327 . S
C444 C432 1.349 . S
C444 H438 0.950 . S
C444 C445 1.327 . S
C445 H439 0.950 . S
C445 C444 1.327 . S
C445 C449 1.429 . S
C446 C429 1.574 . S
C446 H440 0.949 . S
C446 C450 1.368 . S
C447 C428 1.429 . S
C447 C441 1.429 . S
C447 C448 1.523 . S
C448 C429 1.368 . S
C448 C442 1.368 . S
C448 C447 1.523 . S
C449 C433 1.429 . S
C449 C445 1.429 . S
C449 C450 1.523 . S
C450 C434 1.368 . S
C450 C446 1.368 . S
C450 C449 1.523 . S
H451 C426 0.950 . S
H452 C428 0.950 . S
H453 C429 0.949 . S
H454 C431 0.950 . S
H455 C433 0.950 . S
C456 C457 1.349 . S
C456 C458 1.327 . S
C456 H481 0.950 . S
C457 C456 1.349 . S
C457 C473 1.349 . S
C458 C456 1.327 . S
C458 C477 1.429 . S
C458 H482 0.950 . S
C459 C476 1.574 . S
C459 C478 1.368 . S
C459 H483 0.949 . S
H460 C464 0.949 . S
C461 C462 1.349 . S
C461 C463 1.327 . S
C461 H484 0.950 . S
C462 C461 1.349 . S
C462 C474 1.349 . S
C463 C461 1.327 . S
C463 C479 1.429 . S
C463 H485 0.950 . S
C464 H460 0.949 . S
C464 C472 1.574 . S
C464 C480 1.368 . S
H465 C473 0.950 . S
H466 C471 0.950 . S
H467 C472 0.949 . S
H468 C474 0.950 . S
H469 C475 0.950 . S
H470 C476 0.949 . S
C471 H466 0.950 . S
C471 C473 1.327 . S
C471 C477 1.429 . S
C472 C464 1.574 . S
C472 H467 0.949 . S
C472 C478 1.368 . S
C473 C457 1.349 . S
C473 H465 0.950 . S
C473 C471 1.327 . S
C474 C462 1.349 . S
C474 H468 0.950 . S
C474 C475 1.327 . S
C475 H469 0.950 . S
C475 C474 1.327 . S
C475 C479 1.429 . S
C476 C459 1.574 . S
C476 H470 0.949 . S
C476 C480 1.368 . S
C477 C458 1.429 . S
C477 C471 1.429 . S
C477 C478 1.523 . S
C478 C459 1.368 . S
C478 C472 1.368 . S
C478 C477 1.523 . S
C479 C463 1.429 . S
C479 C475 1.429 . S
C479 C480 1.523 . S
C480 C464 1.368 . S
C480 C476 1.368 . S
C480 C479 1.523 . S
H481 C456 0.950 . S
H482 C458 0.950 . S
H483 C459 0.949 . S
H484 C461 0.950 . S
H485 C463 0.950 . S
C486 C487 1.349 . S
C486 C488 1.327 . S
C486 H511 0.950 . S
C487 C486 1.349 . S
C487 C503 1.349 . S
C488 C486 1.327 . S
C488 C507 1.429 . S
C488 H512 0.950 . S
C489 C506 1.574 . S
C489 C508 1.368 . S
C489 H513 0.949 . S
H490 C494 0.949 . S
C491 C492 1.349 . S
C491 C493 1.327 . S
C491 H514 0.950 . S
C492 C491 1.349 . S
C492 C504 1.349 . S
C493 C491 1.327 . S
C493 C509 1.429 . S
C493 H515 0.950 . S
C494 H490 0.949 . S
C494 C502 1.574 . S
C494 C510 1.368 . S
H495 C503 0.950 . S
H496 C501 0.950 . S
H497 C502 0.949 . S
H498 C504 0.950 . S
H499 C505 0.950 . S
H500 C506 0.949 . S
C501 H496 0.950 . S
C501 C503 1.327 . S
C501 C507 1.429 . S
C502 C494 1.574 . S
C502 H497 0.949 . S
C502 C508 1.368 . S
C503 C487 1.349 . S
C503 H495 0.950 . S
C503 C501 1.327 . S
C504 C492 1.349 . S
C504 H498 0.950 . S
C504 C505 1.327 . S
C505 H499 0.950 . S
C505 C504 1.327 . S
C505 C509 1.429 . S
C506 C489 1.574 . S
C506 H500 0.949 . S
C506 C510 1.368 . S
C507 C488 1.429 . S
C507 C501 1.429 . S
C507 C508 1.523 . S
C508 C489 1.368 . S
C508 C502 1.368 . S
C508 C507 1.523 . S
C509 C493 1.429 . S
C509 C505 1.429 . S
C509 C510 1.523 . S
C510 C494 1.368 . S
C510 C506 1.368 . S
C510 C509 1.523 . S
H511 C486 0.950 . S
H512 C488 0.950 . S
H513 C489 0.949 . S
H514 C491 0.950 . S
H515 C493 0.950 . S
C516 C517 1.349 . S
C516 C518 1.327 . S
C516 H541 0.950 . S
C517 C516 1.349 . S
C517 C533 1.349 . S
C518 C516 1.327 . S
C518 C537 1.429 . S
C518 H542 0.950 . S
C519 C536 1.574 . S
C519 C538 1.368 . S
C519 H543 0.949 . S
H520 C524 0.949 . S
C521 C522 1.349 . S
C521 C523 1.327 . S
C521 H544 0.950 . S
C522 C521 1.349 . S
C522 C534 1.349 . S
C523 C521 1.327 . S
C523 C539 1.429 . S
C523 H545 0.950 . S
C524 H520 0.949 . S
C524 C532 1.574 . S
C524 C540 1.368 . S
H525 C533 0.950 . S
H526 C531 0.950 . S
H527 C532 0.949 . S
H528 C534 0.950 . S
H529 C535 0.950 . S
H530 C536 0.949 . S
C531 H526 0.950 . S
C531 C533 1.327 . S
C531 C537 1.429 . S
C532 C524 1.574 . S
C532 H527 0.949 . S
C532 C538 1.368 . S
C533 C517 1.349 . S
C533 H525 0.950 . S
C533 C531 1.327 . S
C534 C522 1.349 . S
C534 H528 0.950 . S
C534 C535 1.327 . S
C535 H529 0.950 . S
C535 C534 1.327 . S
C535 C539 1.429 . S
C536 C519 1.574 . S
C536 H530 0.949 . S
C536 C540 1.368 . S
C537 C518 1.429 . S
C537 C531 1.429 . S
C537 C538 1.523 . S
C538 C519 1.368 . S
C538 C532 1.368 . S
C538 C537 1.523 . S
C539 C523 1.429 . S
C539 C535 1.429 . S
C539 C540 1.523 . S
C540 C524 1.368 . S
C540 C536 1.368 . S
C540 C539 1.523 . S
H541 C516 0.950 . S
H542 C518 0.950 . S
H543 C519 0.949 . S
H544 C521 0.950 . S
H545 C523 0.950 . S
C546 C547 1.349 . S
C546 C548 1.327 . S
C546 H571 0.950 . S
C547 C546 1.349 . S
C547 C563 1.349 . S
C548 C546 1.327 . S
C548 C567 1.429 . S
C548 H572 0.950 . S
C549 C566 1.574 . S
C549 C568 1.368 . S
C549 H573 0.949 1_455 S
H550 C554 0.949 . S
C551 C552 1.349 . S
C551 C553 1.327 . S
C551 H574 0.950 1_455 S
C552 C551 1.349 . S
C552 C564 1.349 . S
C553 C551 1.327 . S
C553 C569 1.429 . S
C553 H575 0.950 1_455 S
C554 H550 0.949 . S
C554 C562 1.574 . S
C554 C570 1.392 . S
H555 C563 0.950 1_655 S
H556 C561 0.950 1_655 S
H557 C562 0.949 . S
H558 C564 0.950 . S
H559 C565 0.950 . S
H560 C566 0.949 1_656 S
C561 H556 0.950 1_455 S
C561 C563 1.327 . S
C561 C567 1.429 . S
C562 C554 1.574 . S
C562 H557 0.949 . S
C562 C568 1.368 . S
C563 C547 1.349 . S
C563 H555 0.950 1_455 S
C563 C561 1.327 . S
C564 C552 1.349 . S
C564 H558 0.950 . S
C564 C565 1.327 . S
C565 H559 0.950 . S
C565 C564 1.327 . S
C565 C569 1.429 . S
C566 C549 1.574 . S
C566 H560 0.949 1_454 S
C566 C570 1.388 . S
C567 C548 1.429 . S
C567 C561 1.429 . S
C567 C568 1.523 . S
C568 C549 1.368 . S
C568 C562 1.368 . S
C568 C567 1.523 . S
C569 C553 1.429 . S
C569 C565 1.429 . S
C569 C570 1.469 1_556 S
C570 C554 1.392 . S
C570 C566 1.388 . S
C570 C569 1.469 1_554 S
H571 C546 0.950 . S
H572 C548 0.950 . S
H573 C549 0.949 1_655 S
H574 C551 0.950 1_655 S
H575 C553 0.950 1_655 S
C576 C577 1.349 1_565 S
C576 C578 1.327 . S
C576 H601 0.950 . S
C577 C576 1.349 1_545 S
C577 C593 1.349 . S
C578 C576 1.327 . S
C578 C597 1.429 1_565 S
C578 H602 0.950 . S
C579 C596 1.574 . S
C579 C598 1.368 . S
C579 H603 0.949 . S
H580 C584 0.949 . S
C581 C582 1.349 . S
C581 C583 1.327 . S
C581 H604 0.950 . S
C582 C581 1.349 . S
C582 C594 1.349 1_545 S
C583 C581 1.327 . S
C583 C599 1.429 . S
C583 H605 0.950 . S
C584 H580 0.949 . S
C584 C592 1.574 . S
C584 C600 1.368 1_565 S
H585 C593 0.950 . S
H586 C591 0.950 . S
H587 C592 0.949 . S
H588 C594 0.950 . S
H589 C595 0.950 . S
H590 C596 0.949 . S
C591 H586 0.950 . S
C591 C593 1.327 . S
C591 C597 1.429 . S
C592 C584 1.574 . S
C592 H587 0.949 . S
C592 C598 1.368 1_565 S
C593 C577 1.349 . S
C593 H585 0.950 . S
C593 C591 1.327 . S
C594 C582 1.349 1_565 S
C594 H588 0.950 . S
C594 C595 1.327 . S
C595 H589 0.950 . S
C595 C594 1.327 . S
C595 C599 1.429 1_565 S
C596 C579 1.574 . S
C596 H590 0.949 . S
C596 C600 1.368 . S
C597 C578 1.429 1_545 S
C597 C591 1.429 . S
C597 C598 1.523 . S
C598 C579 1.368 . S
C598 C592 1.368 1_545 S
C598 C597 1.523 . S
C599 C583 1.429 . S
C599 C595 1.429 1_545 S
C599 C600 1.523 . S
C600 C584 1.368 1_545 S
C600 C596 1.368 . S
C600 C599 1.523 . S
H601 C576 0.950 . S
H602 C578 0.950 . S
H603 C579 0.949 . S
H604 C581 0.950 . S
H605 C583 0.950 . S
C606 C607 1.349 . S
C606 C608 1.327 . S
C606 H631 0.950 . S
C607 C606 1.349 . S
C607 C623 1.349 . S
C608 C606 1.327 . S
C608 C627 1.429 . S
C608 H632 0.950 . S
C609 C626 1.574 . S
C609 C628 1.368 . S
C609 H633 0.949 . S
H610 C614 0.949 . S
C611 C612 1.349 . S
C611 C613 1.327 . S
C611 H634 0.950 . S
C612 C611 1.349 . S
C612 C624 1.349 . S
C613 C611 1.327 . S
C613 C629 1.429 . S
C613 H635 0.950 . S
C614 H610 0.949 . S
C614 C622 1.574 . S
C614 C630 1.368 . S
H615 C623 0.950 . S
H616 C621 0.950 . S
H617 C622 0.949 . S
H618 C624 0.950 . S
H619 C625 0.950 . S
H620 C626 0.949 . S
C621 H616 0.950 . S
C621 C623 1.327 . S
C621 C627 1.429 . S
C622 C614 1.574 . S
C622 H617 0.949 . S
C622 C628 1.368 . S
C623 C607 1.349 . S
C623 H615 0.950 . S
C623 C621 1.327 . S
C624 C612 1.349 . S
C624 H618 0.950 . S
C624 C625 1.327 . S
C625 H619 0.950 . S
C625 C624 1.327 . S
C625 C629 1.429 . S
C626 C609 1.574 . S
C626 H620 0.949 . S
C626 C630 1.368 . S
C627 C608 1.429 . S
C627 C621 1.429 . S
C627 C628 1.523 . S
C628 C609 1.368 . S
C628 C622 1.368 . S
C628 C627 1.523 . S
C629 C613 1.429 . S
C629 C625 1.429 . S
C629 C630 1.523 . S
C630 C614 1.368 . S
C630 C626 1.368 . S
C630 C629 1.523 . S
H631 C606 0.950 . S
H632 C608 0.950 . S
H633 C609 0.949 . S
H634 C611 0.950 . S
H635 C613 0.950 . S
C636 C637 1.349 1_565 S
C636 C638 1.327 . S
C636 H661 0.950 . S
C637 C636 1.349 1_545 S
C637 C653 1.349 . S
C638 C636 1.327 . S
C638 C657 1.429 1_565 S
C638 H662 0.950 . S
C639 C656 1.574 . S
C639 C658 1.368 . S
C639 H663 0.949 . S
H640 C644 0.949 . S
C641 C642 1.349 . S
C641 C643 1.327 . S
C641 H664 0.950 . S
C642 C641 1.349 . S
C642 C654 1.349 1_545 S
C643 C641 1.327 . S
C643 C659 1.429 . S
C643 H665 0.950 . S
C644 H640 0.949 . S
C644 C652 1.574 . S
C644 C660 1.368 1_565 S
H645 C653 0.950 . S
H646 C651 0.950 . S
H647 C652 0.949 . S
H648 C654 0.950 . S
H649 C655 0.950 . S
H650 C656 0.949 . S
C651 H646 0.950 . S
C651 C653 1.327 . S
C651 C657 1.429 . S
C652 C644 1.574 . S
C652 H647 0.949 . S
C652 C658 1.368 1_565 S
C653 C637 1.349 . S
C653 H645 0.950 . S
C653 C651 1.327 . S
C654 C642 1.349 1_565 S
C654 H648 0.950 . S
C654 C655 1.327 . S
C655 H649 0.950 . S
C655 C654 1.327 . S
C655 C659 1.429 1_565 S
C656 C639 1.574 . S
C656 H650 0.949 . S
C656 C660 1.368 . S
C657 C638 1.429 1_545 S
C657 C651 1.429 . S
C657 C658 1.523 . S
C658 C639 1.368 . S
C658 C652 1.368 1_545 S
C658 C657 1.523 . S
C659 C643 1.429 . S
C659 C655 1.429 1_545 S
C659 C660 1.523 . S
C660 C644 1.368 1_545 S
C660 C656 1.368 . S
C660 C659 1.523 . S
H661 C636 0.950 . S
H662 C638 0.950 . S
H663 C639 0.949 . S
H664 C641 0.950 . S
H665 C643 0.950 . S
C666 C667 1.349 . S
C666 C668 1.327 . S
C666 H691 0.950 . S
C667 C666 1.349 . S
C667 C683 1.349 . S
C668 C666 1.327 . S
C668 C687 1.429 . S
C668 H692 0.950 . S
C669 C686 1.574 . S
C669 C688 1.368 . S
C669 H693 0.949 . S
H670 C674 0.949 1_554 S
C671 C672 1.349 . S
C671 C673 1.327 . S
C671 H694 0.950 . S
C672 C671 1.349 . S
C672 C684 1.349 . S
C673 C671 1.327 . S
C673 C689 1.429 . S
C673 H695 0.950 . S
C674 H670 0.949 1_556 S
C674 C682 1.574 . S
C674 C690 1.368 1_556 S
H675 C683 0.950 . S
H676 C681 0.950 . S
H677 C682 0.949 . S
H678 C684 0.950 . S
H679 C685 0.950 . S
H680 C686 0.949 . S
C681 H676 0.950 . S
C681 C683 1.327 . S
C681 C687 1.429 . S
C682 C674 1.574 . S
C682 H677 0.949 . S
C682 C688 1.368 . S
C683 C667 1.349 . S
C683 H675 0.950 . S
C683 C681 1.327 . S
C684 C672 1.349 . S
C684 H678 0.950 . S
C684 C685 1.327 . S
C685 H679 0.950 . S
C685 C684 1.327 . S
C685 C689 1.429 . S
C686 C669 1.574 . S
C686 H680 0.949 . S
C686 C690 1.368 1_556 S
C687 C668 1.429 . S
C687 C681 1.429 . S
C687 C688 1.523 . S
C688 C669 1.368 . S
C688 C682 1.368 . S
C688 C687 1.523 . S
C689 C673 1.429 . S
C689 C685 1.429 . S
C689 C690 1.523 . S
C690 C674 1.368 1_554 S
C690 C686 1.368 1_554 S
C690 C689 1.523 . S
H691 C666 0.950 . S
H692 C668 0.950 . S
H693 C669 0.949 . S
H694 C671 0.950 . S
H695 C673 0.950 . S
C696 C697 1.349 . S
C696 C698 1.327 . S
C696 H721 0.950 . S
C697 C696 1.349 . S
C697 C713 1.349 . S
C698 C696 1.327 . S
C698 C717 1.429 . S
C698 H722 0.950 . S
C699 C716 1.574 . S
C699 C718 1.368 . S
C699 H723 0.949 . S
H700 C704 0.949 . S
C701 C702 1.349 . S
C701 C703 1.327 . S
C701 H724 0.950 . S
C702 C701 1.349 . S
C702 C714 1.349 . S
C703 C701 1.327 . S
C703 C719 1.429 . S
C703 H725 0.950 . S
C704 H700 0.949 . S
C704 C712 1.574 . S
C704 C720 1.368 . S
H705 C713 0.950 . S
H706 C711 0.950 . S
H707 C712 0.949 . S
H708 C714 0.950 . S
H709 C715 0.950 . S
H710 C716 0.949 . S
C711 H706 0.950 . S
C711 C713 1.327 . S
C711 C717 1.429 . S
C712 C704 1.574 . S
C712 H707 0.949 . S
C712 C718 1.368 . S
C713 C697 1.349 . S
C713 H705 0.950 . S
C713 C711 1.327 . S
C714 C702 1.349 . S
C714 H708 0.950 . S
C714 C715 1.327 . S
C715 H709 0.950 . S
C715 C714 1.327 . S
C715 C719 1.429 . S
C716 C699 1.574 . S
C716 H710 0.949 . S
C716 C720 1.368 . S
C717 C698 1.429 . S
C717 C711 1.429 . S
C717 C718 1.523 . S
C718 C699 1.368 . S
C718 C712 1.368 . S
C718 C717 1.523 . S
C719 C703 1.429 . S
C719 C715 1.429 . S
C719 C720 1.523 1_655 S
C720 C704 1.368 . S
C720 C716 1.368 . S
C720 C719 1.523 1_455 S
H721 C696 0.950 . S
H722 C698 0.950 . S
H723 C699 0.949 . S
H724 C701 0.950 . S
H725 C703 0.950 . S
C187 C7 0.618 . S
C192 C180 0.723 . S
C217 C51 2.054 . S
C222 C158 1.779 . S
C247 C87 0.977 . S
C252 C172 0.964 . S
C277 C16 0.236 . S
C282 C183 0.262 . S
C312 C161 1.765 . S
C307 C42 1.812 . S
C342 C169 1.221 . S
C337 C96 1.437 . S
C367 C47 1.354 . S
C372 C136 1.157 . S
C397 C91 3.299 . S
C402 C147 2.944 . S
C427 C2 2.167 . S
C432 C125 1.845 . S
C462 C139 1.033 . S
C457 C56 1.046 . S
C492 C150 2.727 . S
C487 C82 2.785 . S
C517 C11 1.710 . S
C522 C128 1.667 . S
C552 C149 1.637 . S
C547 C19 1.644 . S
C577 C50 1.415 . S
C582 C127 1.402 . S
C607 C99 1.511 . S
C612 C138 1.484 . S
C642 C171 1.449 . S
C637 C59 1.465 . S
C672 C182 1.233 . S
C667 C90 1.271 . S
C697 C10 1.435 . S
C702 C160 1.406 . S
