# Generated by pormake.
# Topology pyr, (3,6)-cn, num edge types: 1
# Building blocks:
#     Node 0, Type 0, BuildingBlock: OLANEW_clean_sbu_2, # of connection points: 3
#     Node 1, Type 0, BuildingBlock: OLANEW_clean_sbu_2, # of connection points: 3
#     Node 2, Type 0, BuildingBlock: OLANEW_clean_sbu_2, # of connection points: 3
#     Node 3, Type 0, BuildingBlock: OLANEW_clean_sbu_2, # of connection points: 3
#     Node 4, Type 0, BuildingBlock: OLANEW_clean_sbu_2, # of connection points: 3
#     Node 5, Type 0, BuildingBlock: OLANEW_clean_sbu_2, # of connection points: 3
#     Node 6, Type 0, BuildingBlock: OLANEW_clean_sbu_2, # of connection points: 3
#     Node 7, Type 0, BuildingBlock: OLANEW_clean_sbu_2, # of connection points: 3
#     Node 8, Type 1, BuildingBlock: PAMTOO_clean_sbu_0, # of connection points: 6
#     Node 9, Type 1, BuildingBlock: PAMTOO_clean_sbu_0, # of connection points: 6
#     Node 10, Type 1, BuildingBlock: PAMTOO_clean_sbu_0, # of connection points: 6
#     Node 11, Type 1, BuildingBlock: PAMTOO_clean_sbu_0, # of connection points: 6
#     Edge 12, Type (0, 1), BuildingBlock: XUDNAN_clean_linker_2, # of connection points: 2
#     Edge 13, Type (0, 1), BuildingBlock: XUDNAN_clean_linker_2, # of connection points: 2
#     Edge 14, Type (0, 1), BuildingBlock: XUDNAN_clean_linker_2, # of connection points: 2
#     Edge 15, Type (0, 1), BuildingBlock: XUDNAN_clean_linker_2, # of connection points: 2
#     Edge 16, Type (0, 1), BuildingBlock: XUDNAN_clean_linker_2, # of connection points: 2
#     Edge 17, Type (0, 1), BuildingBlock: XUDNAN_clean_linker_2, # of connection points: 2
#     Edge 18, Type (0, 1), BuildingBlock: XUDNAN_clean_linker_2, # of connection points: 2
#     Edge 19, Type (0, 1), BuildingBlock: XUDNAN_clean_linker_2, # of connection points: 2
#     Edge 20, Type (0, 1), BuildingBlock: XUDNAN_clean_linker_2, # of connection points: 2
#     Edge 21, Type (0, 1), BuildingBlock: XUDNAN_clean_linker_2, # of connection points: 2
#     Edge 22, Type (0, 1), BuildingBlock: XUDNAN_clean_linker_2, # of connection points: 2
#     Edge 23, Type (0, 1), BuildingBlock: XUDNAN_clean_linker_2, # of connection points: 2
#     Edge 24, Type (0, 1), BuildingBlock: XUDNAN_clean_linker_2, # of connection points: 2
#     Edge 25, Type (0, 1), BuildingBlock: XUDNAN_clean_linker_2, # of connection points: 2
#     Edge 26, Type (0, 1), BuildingBlock: XUDNAN_clean_linker_2, # of connection points: 2
#     Edge 27, Type (0, 1), BuildingBlock: XUDNAN_clean_linker_2, # of connection points: 2
#     Edge 28, Type (0, 1), BuildingBlock: XUDNAN_clean_linker_2, # of connection points: 2
#     Edge 29, Type (0, 1), BuildingBlock: XUDNAN_clean_linker_2, # of connection points: 2
#     Edge 30, Type (0, 1), BuildingBlock: XUDNAN_clean_linker_2, # of connection points: 2
#     Edge 31, Type (0, 1), BuildingBlock: XUDNAN_clean_linker_2, # of connection points: 2
#     Edge 32, Type (0, 1), BuildingBlock: XUDNAN_clean_linker_2, # of connection points: 2
#     Edge 33, Type (0, 1), BuildingBlock: XUDNAN_clean_linker_2, # of connection points: 2
#     Edge 34, Type (0, 1), BuildingBlock: XUDNAN_clean_linker_2, # of connection points: 2
#     Edge 35, Type (0, 1), BuildingBlock: XUDNAN_clean_linker_2, # of connection points: 2
# Relax obj value: 0.126
# Max RMSD: 0.213
# Mean RMSD: 0.127
data_MOF--net-pyr--node1-OLANEW_clean_sbu_2--node2-PAMTOO_clean_sbu_0--edge1-XUDNAN_clean_linker_2
_symmetry_space_group_name_H-M    P1
_symmetry_Int_Tables_number       1
_symmetry_cell_setting            triclinic
loop_
_symmetry_equiv_pos_as_xyz
'x, y, z'
_cell_length_a     39.152912
_cell_length_b     43.306903
_cell_length_c     43.02702
_cell_angle_alpha  94.321991
_cell_angle_beta   89.165019
_cell_angle_gamma 106.77576
loop_
_atom_site_label
_atom_site_type_symbol
_atom_site_fract_x
_atom_site_fract_y
_atom_site_fract_z
_atom_type_partial_charge
O0 O 0.38725 0.25877 0.10757 0.0
Cd1 Cd 0.37522 0.31038 0.09923 0.0
O2 O 0.36679 0.26079 0.15505 0.0
Cd3 Cd 0.3554 0.24426 0.20179 0.0
O4 O 0.33456 0.2218 0.24438 0.0
C5 C 0.33326 0.23859 0.26965 0.0
O6 O 0.3456 0.27025 0.27029 0.0
C7 C 0.38075 0.24654 0.13372 0.0
C8 C 0.30552 0.31008 0.08448 0.0
O9 O 0.32678 0.30421 0.06341 0.0
O10 O 0.31666 0.3149 0.11281 0.0
O11 O 0.19899 0.80944 0.78138 0.0
Cd12 Cd 0.18292 0.79578 0.72647 0.0
O13 O 0.14605 0.78732 0.8008 0.0
Cd14 Cd 0.12367 0.78228 0.7539 0.0
O15 O 0.11768 0.80281 0.71019 0.0
C16 C 0.09134 0.81353 0.7057 0.0
O17 O 0.06616 0.80996 0.7268 0.0
C18 C 0.17912 0.8016 0.80487 0.0
C19 C 0.22135 0.7547 0.70214 0.0
O20 O 0.234 0.78548 0.70185 0.0
O21 O 0.19004 0.74332 0.71325 0.0
O22 O 0.69926 0.4116 0.86049 0.0
Cd23 Cd 0.64575 0.40083 0.82518 0.0
O24 O 0.67338 0.3681 0.88467 0.0
Cd25 Cd 0.6579 0.32673 0.91526 0.0
O26 O 0.62438 0.28422 0.93893 0.0
C27 C 0.63445 0.26019 0.94627 0.0
O28 O 0.66735 0.2599 0.94022 0.0
C29 C 0.70031 0.39287 0.8819 0.0
C30 C 0.64119 0.43444 0.77168 0.0
O31 O 0.63016 0.44292 0.79828 0.0
O32 O 0.65609 0.4116 0.7707 0.0
O33 O 0.95157 0.74201 0.33148 0.0
Cd34 Cd 0.94134 0.68496 0.31019 0.0
O35 O 0.90859 0.71793 0.36195 0.0
Cd36 Cd 0.87256 0.71229 0.40197 0.0
O37 O 0.8344 0.69075 0.43751 0.0
C38 C 0.80834 0.70122 0.44618 0.0
O39 O 0.80429 0.72694 0.43412 0.0
C40 C 0.93094 0.74389 0.35428 0.0
C41 C 0.94853 0.66472 0.24731 0.0
O42 O 0.92074 0.67252 0.25687 0.0
O43 O 0.97396 0.66832 0.26696 0.0
O44 O 0.73732 0.79764 0.82943 0.0
Cd45 Cd 0.71015 0.78058 0.87902 0.0
O46 O 0.71642 0.83916 0.82458 0.0
Cd47 Cd 0.68535 0.83547 0.86754 0.0
O48 O 0.65033 0.85045 0.90194 0.0
C49 C 0.61825 0.84702 0.89392 0.0
O50 O 0.60717 0.83315 0.86622 0.0
C51 C 0.73512 0.82105 0.81424 0.0
C52 C 0.75614 0.75324 0.90862 0.0
O53 O 0.75715 0.78287 0.91509 0.0
O54 O 0.73269 0.73631 0.8889 0.0
O55 O 0.81861 0.22201 0.39347 0.0
Cd56 Cd 0.86857 0.25775 0.42365 0.0
O57 O 0.82265 0.25564 0.35692 0.0
Cd58 Cd 0.84829 0.29724 0.38869 0.0
O59 O 0.82731 0.33337 0.41399 0.0
C60 C 0.80054 0.33776 0.40057 0.0
O61 O 0.79006 0.32201 0.37345 0.0
C62 C 0.8098 0.22768 0.36667 0.0
C63 C 0.9137 0.21992 0.43338 0.0
O64 O 0.91757 0.2366 0.40953 0.0
O65 O 0.88961 0.22233 0.45314 0.0
O66 O 0.41109 0.74745 0.24928 0.0
Cd67 Cd 0.39788 0.69118 0.26775 0.0
O68 O 0.37392 0.73899 0.20875 0.0
Cd69 Cd 0.33925 0.68871 0.20434 0.0
O70 O 0.29736 0.65082 0.17764 0.0
C71 C 0.27184 0.65835 0.16508 0.0
O72 O 0.27042 0.68832 0.16934 0.0
C73 C 0.39871 0.7578 0.22601 0.0
C74 C 0.42729 0.67698 0.32367 0.0
O75 O 0.44674 0.68626 0.29997 0.0
O76 O 0.39423 0.67555 0.32187 0.0
O77 O 0.13921 0.41221 0.74847 0.0
Cd78 Cd 0.15211 0.40071 0.69326 0.0
O79 O 0.11942 0.36064 0.75788 0.0
Cd80 Cd 0.12881 0.33665 0.71293 0.0
O81 O 0.12915 0.29667 0.678 0.0
C82 C 0.1087 0.26846 0.68188 0.0
O83 O 0.08781 0.26432 0.70634 0.0
C84 C 0.12556 0.39044 0.76705 0.0
C85 C 0.22279 0.42176 0.67235 0.0
O86 O 0.20288 0.44069 0.6733 0.0
O87 O 0.20976 0.39363 0.68238 0.0
Dy88 Dy 0.06819 0.00836 0.50079 0.0
Dy89 Dy 0.99659 0.99818 0.54551 0.0
C90 C 0.06471 0.06116 0.55544 0.0
O91 O 0.07806 0.98468 0.54298 0.0
O92 O 0.02042 0.95965 0.55642 0.0
O93 O 0.12547 0.02061 0.49746 0.0
O94 O 0.09259 0.00476 0.45586 0.0
O95 O 0.97925 0.96345 0.50334 0.0
O96 O 0.03375 0.95852 0.4873 0.0
O97 O 0.99651 0.03926 0.51792 0.0
O98 O 0.03321 0.03269 0.4772 0.0
O99 O 0.93965 0.98797 0.55242 0.0
O100 O 0.97596 1.00016 0.59204 0.0
C101 C 0.05459 0.96256 0.55766 0.0
O102 O 0.07557 0.0561 0.52707 0.0
O103 O 0.04023 0.03866 0.56886 0.0
C104 C 0.1482 0.04344 0.45108 0.0
C105 C 0.19358 0.09462 0.42034 0.0
C106 C 0.16387 0.09897 0.43694 0.0
C107 C 0.14133 0.07354 0.45219 0.0
C108 C 0.17782 0.039 0.43478 0.0
C109 C 0.20036 0.06438 0.41951 0.0
C110 C 0.12489 0.01667 0.4671 0.0
C111 C 0.99877 0.94824 0.48667 0.0
C112 C 0.00981 0.0461 0.49027 0.0
C113 C 0.91833 0.96686 0.60071 0.0
C114 C 0.8749 0.92165 0.63919 0.0
C115 C 0.89012 0.91113 0.612 0.0
C116 C 0.91181 0.93361 0.59294 0.0
C117 C 0.90294 0.97738 0.62747 0.0
C118 C 0.88156 0.95508 0.64658 0.0
C119 C 0.94281 0.99126 0.58274 0.0
H120 H 0.15769 0.12183 0.43769 0.0
H121 H 0.11848 0.07729 0.46474 0.0
H122 H 0.18354 0.01592 0.4339 0.0
H123 H 0.22325 0.0604 0.40726 0.0
H124 H 0.88537 0.88559 0.60549 0.0
H125 H 0.92382 0.92509 0.57244 0.0
H126 H 0.90811 1.00299 0.63401 0.0
H127 H 0.87113 0.96417 0.66765 0.0
Dy128 Dy 0.44761 1.00243 0.07382 0.0
Dy129 Dy 0.52957 0.02554 0.10034 0.0
C130 C 0.47238 0.96533 0.12593 0.0
O131 O 0.4465 0.03044 0.11919 0.0
O132 O 0.50376 0.06316 0.11899 0.0
O133 O 0.3917 0.9771 0.07916 0.0
O134 O 0.40939 0.00591 0.03978 0.0
O135 O 0.53078 0.04683 0.05455 0.0
O136 O 0.47472 0.05211 0.05821 0.0
O137 O 0.52856 0.9845 0.06517 0.0
O138 O 0.4765 0.97957 0.03835 0.0
O139 O 0.5796 0.06276 0.10798 0.0
O140 O 0.57328 0.01468 0.1227 0.0
C141 C 0.47026 0.05795 0.12727 0.0
O142 O 0.45565 0.96147 0.09901 0.0
O143 O 0.49599 0.99304 0.13439 0.0
C144 C 0.35952 0.95991 0.03116 0.0
C145 C 0.31431 0.91284 0.9895 0.0
C146 C 0.3216 0.90492 0.01928 0.0
C147 C 0.34412 0.92825 0.03995 0.0
C148 C 0.35167 0.96782 1.00157 0.0
C149 C 0.32949 0.94454 0.98094 0.0
C150 C 0.38282 0.98535 0.05255 0.0
C151 C 0.50745 0.06171 0.04751 0.0
C152 C 0.50668 0.97253 0.04148 0.0
C153 C 0.61297 0.05867 0.15156 0.0
C154 C 0.65062 0.08809 0.20628 0.0
C155 C 0.66739 0.09167 0.17712 0.0
C156 C 0.6487 0.07705 0.15002 0.0
C157 C 0.59598 0.05489 0.18056 0.0
C158 C 0.61477 0.06941 0.20779 0.0
C159 C 0.59397 0.04427 0.12252 0.0
H160 H 0.31024 0.88064 0.02644 0.0
H161 H 0.3494 0.92147 0.06271 0.0
H162 H 0.36263 0.99214 0.99436 0.0
H163 H 0.32378 0.95152 0.95837 0.0
H164 H 0.69511 0.10558 0.17529 0.0
H165 H 0.66215 0.08017 0.12778 0.0
H166 H 0.56825 0.04093 0.18209 0.0
H167 H 0.60113 0.0665 0.22993 0.0
Dy168 Dy 0.52101 0.52409 0.52771 0.0
Dy169 Dy 0.51482 0.58125 0.58002 0.0
C170 C 0.55319 0.52755 0.59657 0.0
O171 O 0.47506 0.50252 0.55813 0.0
O172 O 0.4596 0.54855 0.57092 0.0
O173 O 0.51539 0.47364 0.51496 0.0
O174 O 0.53188 0.50886 0.48057 0.0
O175 O 0.51321 0.59938 0.53266 0.0
O176 O 0.48762 0.55113 0.50551 0.0
O177 O 0.57325 0.59494 0.57053 0.0
O178 O 0.57162 0.56388 0.52414 0.0
O179 O 0.51543 0.63072 0.59258 0.0
O180 O 0.50138 0.59518 0.62677 0.0
C181 C 0.45192 0.51696 0.56937 0.0
O182 O 0.55702 0.52107 0.56659 0.0
O183 O 0.53335 0.54607 0.60672 0.0
C184 C 0.56028 0.46792 0.48045 0.0
C185 C 0.6201 0.44474 0.46995 0.0
C186 C 0.62357 0.47452 0.48701 0.0
C187 C 0.59393 0.48592 0.4923 0.0
C188 C 0.5566 0.43839 0.46324 0.0
C189 C 0.58626 0.42686 0.45801 0.0
C190 C 0.52899 0.4794 0.48744 0.0
C191 C 0.49603 0.58287 0.50792 0.0
C192 C 0.58834 0.58685 0.54493 0.0
C193 C 0.46992 0.63369 0.62778 0.0
C194 C 0.40735 0.65097 0.64298 0.0
C195 C 0.44026 0.66859 0.6568 0.0
C196 C 0.47132 0.65995 0.64928 0.0
C197 C 0.43724 0.61617 0.6138 0.0
C198 C 0.40619 0.62464 0.62141 0.0
C199 C 0.50232 0.62426 0.62013 0.0
H200 H 0.64924 0.48913 0.49618 0.0
H201 H 0.59722 0.50873 0.50585 0.0
H202 H 0.53073 0.42406 0.45421 0.0
H203 H 0.58253 0.40363 0.44516 0.0
H204 H 0.44192 0.68878 0.67376 0.0
H205 H 0.49635 0.67366 0.66032 0.0
H206 H 0.43575 0.59594 0.59699 0.0
H207 H 0.38137 0.61084 0.61008 0.0
Dy208 Dy 0.00577 0.53418 0.98727 0.0
Dy209 Dy 0.00276 0.47332 0.02946 0.0
C210 C 0.97714 0.53413 0.05623 0.0
O211 O 0.05154 0.55004 0.02152 0.0
O212 O 0.05995 0.50058 0.02419 0.0
O213 O 0.02284 0.58561 0.98262 0.0
O214 O 0.99248 0.55338 0.94549 0.0
O215 O 0.014 0.45796 0.98053 0.0
O216 O 0.03901 0.50706 0.9606 0.0
O217 O 0.94554 0.46653 0.01669 0.0
O218 O 0.95563 0.49519 0.97304 0.0
O219 O 0.98776 0.42222 0.03643 0.0
O220 O 0.01955 0.45676 0.07124 0.0
C221 C 0.0715 0.53205 0.02918 0.0
O222 O 0.97042 0.53869 0.02742 0.0
O223 O 0.99457 0.51345 0.06234 0.0
C224 C 0.98015 0.60323 0.95638 0.0
C225 C 0.93203 0.64063 0.95483 0.0
C226 C 0.94033 0.63019 0.98316 0.0
C227 C 0.96398 0.61149 0.98391 0.0
C228 C 0.97183 0.61351 0.92807 0.0
C229 C 0.94787 0.63196 0.92726 0.0
C230 C 0.00486 0.58325 0.95687 0.0
C231 C 0.03329 0.47553 0.9594 0.0
C232 C 0.93434 0.47401 0.99031 0.0
C233 C 0.03491 0.40863 0.06002 0.0
C234 C 0.08897 0.37715 0.05851 0.0
C235 C 0.08514 0.3957 0.03401 0.0
C236 C 0.05852 0.41137 0.03484 0.0
C237 C 0.03852 0.39021 0.08455 0.0
C238 C 0.06539 0.37463 0.08385 0.0
C239 C 0.00792 0.4264 0.06118 0.0
H240 H 0.92817 0.63613 0.00469 0.0
H241 H 0.96954 0.60344 0.00602 0.0
H242 H 0.98385 0.60723 0.90657 0.0
H243 H 0.94213 0.63986 0.90513 0.0
H244 H 0.10321 0.39867 0.01443 0.0
H245 H 0.0566 0.42596 0.01592 0.0
H246 H 0.02074 0.38806 0.10431 0.0
H247 H 0.06753 0.36042 0.103 0.0
H248 H 0.30335 0.17379 0.27489 0.0
H249 H 0.3241 0.26721 0.32706 0.0
H250 H 0.29256 0.2404 0.37233 0.0
H251 H 0.216 0.14082 0.30217 0.0
H252 H 0.21993 0.10052 0.30382 0.0
H253 H 0.24603 0.12689 0.27636 0.0
H254 H 0.30397 0.11936 0.29881 0.0
H255 H 0.27801 0.09288 0.32632 0.0
H256 H 0.31342 0.12797 0.33996 0.0
H257 H 0.25601 0.20338 0.41098 0.0
H258 H 0.21834 0.159 0.44015 0.0
H259 H 0.22135 0.09043 0.36195 0.0
C260 C 0.30162 0.18865 0.29591 0.0
C261 C 0.31622 0.22261 0.29743 0.0
C262 C 0.31317 0.24114 0.32536 0.0
C263 C 0.29532 0.22614 0.3512 0.0
C264 C 0.28084 0.19263 0.34873 0.0
C265 C 0.28396 0.17413 0.32182 0.0
C266 C 0.26511 0.13869 0.3247 0.0
C267 C 0.23498 0.126 0.30032 0.0
C268 C 0.29172 0.11854 0.32232 0.0
C269 C 0.25045 0.14015 0.35729 0.0
C270 C 0.2599 0.17142 0.37086 0.0
C271 C 0.24859 0.17878 0.40063 0.0
C272 C 0.22702 0.15347 0.41693 0.0
C273 C 0.21699 0.12126 0.40336 0.0
C274 C 0.22905 0.11469 0.37318 0.0
H275 H 0.24716 0.83698 0.82047 0.0
H276 H 0.14589 0.78727 0.86108 0.0
H277 H 0.17145 0.806 0.91382 0.0
H278 H 0.30526 0.82313 0.8809 0.0
H279 H 0.33648 0.86268 0.87869 0.0
H280 H 0.31128 0.84226 0.84462 0.0
H281 H 0.28758 0.89163 0.83886 0.0
H282 H 0.31258 0.91213 0.87288 0.0
H283 H 0.26511 0.90607 0.87119 0.0
H284 H 0.20725 0.83401 0.96204 0.0
H285 H 0.24912 0.87023 1.00089 0.0
H286 H 0.32596 0.90126 0.9277 0.0
C287 C 0.23042 0.82949 0.84039 0.0
C288 C 0.19454 0.81053 0.83663 0.0
C289 C 0.1735 0.80169 0.86339 0.0
C290 C 0.18782 0.81214 0.89343 0.0
C291 C 0.22319 0.83126 0.89622 0.0
C292 C 0.24417 0.83977 0.87035 0.0
C293 C 0.28047 0.86241 0.87927 0.0
C294 C 0.31012 0.84667 0.87034 0.0
C295 C 0.28678 0.89498 0.86469 0.0
C296 C 0.27644 0.86604 0.91419 0.0
C297 C 0.24346 0.84758 0.92369 0.0
C298 C 0.23328 0.84827 0.95488 0.0
C299 C 0.25723 0.86879 0.97678 0.0
C300 C 0.29068 0.88852 0.96722 0.0
C301 C 0.30048 0.88655 0.93562 0.0
H302 H 0.59935 0.47515 0.7633 0.0
H303 H 0.66834 0.42601 0.71373 0.0
H304 H 0.65503 0.44612 0.66452 0.0
H305 H 0.5322 0.45814 0.7044 0.0
H306 H 0.52296 0.49659 0.71018 0.0
H307 H 0.53958 0.48028 0.74208 0.0
H308 H 0.59229 0.53257 0.74974 0.0
H309 H 0.57572 0.54911 0.71793 0.0
H310 H 0.62079 0.54635 0.71726 0.0
H311 H 0.63215 0.46922 0.62006 0.0
H312 H 0.60197 0.4941 0.5836 0.0
H313 H 0.54703 0.52854 0.66112 0.0
C314 C 0.61211 0.46903 0.74218 0.0
C315 C 0.63516 0.44906 0.74259 0.0
C316 C 0.65076 0.44129 0.71423 0.0
C317 C 0.64333 0.45262 0.68607 0.0
C318 C 0.62016 0.47179 0.6864 0.0
C319 C 0.60483 0.48006 0.7137 0.0
C320 C 0.57984 0.50007 0.70728 0.0
C321 C 0.54137 0.48273 0.71654 0.0
C322 C 0.59295 0.53404 0.72405 0.0
C323 C 0.58326 0.50146 0.67211 0.0
C324 C 0.60679 0.48505 0.66062 0.0
C325 C 0.61383 0.48226 0.62885 0.0
C326 C 0.5964 0.4965 0.60825 0.0
C327 C 0.572 0.51343 0.61927 0.0
C328 C 0.56561 0.51599 0.6518 0.0
H329 H 0.99293 0.62918 0.22506 0.0
H330 H 0.90638 0.66536 0.1973 0.0
H331 H 0.9048 0.63647 0.14534 0.0
H332 H 0.03735 0.63159 0.14911 0.0
H333 H 0.04859 0.59458 0.15327 0.0
H334 H 0.04485 0.62024 0.18733 0.0
H335 H 0.99848 0.57189 0.21027 0.0
H336 H 1.00181 0.54622 0.17613 0.0
H337 H 0.95898 0.55057 0.18796 0.0
H338 H 0.91181 0.60275 0.0966 0.0
H339 H 0.92636 0.56614 0.05501 0.0
H340 H 0.00611 0.54935 0.11529 0.0
C341 C 0.97408 0.63151 0.20787 0.0
C342 C 0.94997 0.64983 0.2152 0.0
C343 C 0.92522 0.65165 0.19222 0.0
C344 C 0.92411 0.6353 0.16262 0.0
C345 C 0.94776 0.61697 0.15635 0.0
C346 C 0.97232 0.61499 0.17829 0.0
C347 C 0.99362 0.59242 0.16608 0.0
C348 C 0.03345 0.61081 0.16381 0.0
C349 C 0.98786 0.56357 0.18632 0.0
C350 C 0.97692 0.58176 0.134 0.0
C351 C 0.9508 0.5965 0.12873 0.0
C352 C 0.93212 0.59099 0.10054 0.0
C353 C 0.94052 0.57009 0.07707 0.0
C354 C 0.96704 0.55452 0.08199 0.0
C355 C 0.98526 0.5604 0.11098 0.0
H356 H 0.43919 0.22922 0.11219 0.0
H357 H 0.34338 0.19609 0.16681 0.0
H358 H 0.35986 0.14669 0.17652 0.0
H359 H 0.43722 0.15254 0.07498 0.0
H360 H 0.48497 0.16021 0.07588 0.0
H361 H 0.46611 0.19338 0.07497 0.0
H362 H 0.50214 0.22002 0.12508 0.0
H363 H 0.52027 0.18629 0.12619 0.0
H364 H 0.49692 0.19777 0.15946 0.0
H365 H 0.38407 0.09884 0.17639 0.0
H366 H 0.41368 0.05586 0.16568 0.0
H367 H 0.49503 0.1208 0.1129 0.0
C368 C 0.42183 0.21162 0.12636 0.0
C369 C 0.39038 0.21677 0.13935 0.0
C370 C 0.36818 0.19313 0.15753 0.0
C371 C 0.37722 0.1649 0.16298 0.0
C372 C 0.40867 0.16073 0.15021 0.0
C373 C 0.43066 0.18344 0.13226 0.0
C374 C 0.46226 0.17257 0.12027 0.0
C375 C 0.46261 0.16948 0.0844 0.0
C376 C 0.49748 0.19553 0.13355 0.0
C377 C 0.4541 0.1398 0.13355 0.0
C378 C 0.42316 0.13349 0.15089 0.0
C379 C 0.40867 0.10373 0.16337 0.0
C380 C 0.4257 0.07951 0.15728 0.0
C381 C 0.45707 0.08529 0.13915 0.0
C382 C 0.47184 0.1161 0.12781 0.0
H383 H 0.03754 0.83711 0.68727 0.0
H384 H 0.14501 0.83455 0.66392 0.0
H385 H 0.1469 0.87138 0.62244 0.0
H386 H 0.00831 0.83974 0.60718 0.0
H387 H 0.98199 0.86658 0.61874 0.0
H388 H 0.9885 0.83852 0.64532 0.0
H389 H 0.0134 0.88607 0.68684 0.0
H390 H 0.00725 0.91423 0.66028 0.0
H391 H 0.05061 0.91957 0.67721 0.0
H392 H 0.13884 0.91201 0.5863 0.0
H393 H 0.11952 0.95012 0.5556 0.0
H394 H 0.01687 0.92462 0.60177 0.0
C395 C 0.06131 0.84394 0.67319 0.0
C396 C 0.09113 0.83297 0.67889 0.0
C397 C 0.12176 0.84255 0.65994 0.0
C398 C 0.12314 0.86353 0.63636 0.0
C399 C 0.09355 0.87443 0.6318 0.0
C400 C 0.06304 0.86464 0.64942 0.0
C401 C 0.03515 0.88032 0.64022 0.0
C402 C 1.00151 0.85476 0.62707 0.0
C403 C 0.02609 0.90129 0.66778 0.0
C404 C 0.05499 0.90087 0.61506 0.0
C405 C 0.08865 0.89722 0.61056 0.0
C406 C 0.11238 0.9148 0.58937 0.0
C407 C 0.10125 0.93649 0.57217 0.0
C408 C 0.06666 0.94022 0.57616 0.0
C409 C 0.04336 0.92208 0.59791 0.0
H410 H 0.76592 0.43708 0.87461 0.0
H411 H 0.70767 0.36647 0.93712 0.0
H412 H 0.76064 0.37916 0.97127 0.0
H413 H 0.85106 0.4219 0.8821 0.0
H414 H 0.87633 0.4638 0.88099 0.0
H415 H 0.8338 0.44888 0.86132 0.0
H416 H 0.81157 0.49288 0.89235 0.0
H417 H 0.85401 0.50789 0.91215 0.0
H418 H 0.81353 0.49595 0.93434 0.0
H419 H 0.82074 0.40018 0.99924 0.0
H420 H 0.8823 0.42714 0.01796 0.0
H421 H 0.90126 0.48442 0.93748 0.0
C422 C 0.7642 0.42419 0.89545 0.0
C423 C 0.73239 0.40032 0.90277 0.0
C424 C 0.73159 0.38427 0.93042 0.0
C425 C 0.76164 0.39154 0.9502 0.0
C426 C 0.79251 0.41506 0.94219 0.0
C427 C 0.79397 0.43116 0.91545 0.0
C428 C 0.83034 0.45547 0.91215 0.0
C429 C 0.84898 0.44699 0.88238 0.0
C430 C 0.82716 0.49009 0.91279 0.0
C431 C 0.84914 0.45054 0.94118 0.0
C432 C 0.82686 0.42717 0.95825 0.0
C433 C 0.83836 0.4185 0.986 0.0
C434 C 0.87347 0.43401 0.99648 0.0
C435 C 0.89691 0.45798 0.97931 0.0
C436 C 0.88425 0.46623 0.95128 0.0
H437 H 0.74654 0.7141 0.4665 0.0
H438 H 0.80865 0.64649 0.47392 0.0
H439 H 0.76134 0.61311 0.5057 0.0
H440 H 0.70729 0.70616 0.54589 0.0
H441 H 0.66492 0.70889 0.53251 0.0
H442 H 0.70545 0.72962 0.5134 0.0
H443 H 0.67958 0.70032 0.46045 0.0
H444 H 0.63908 0.67954 0.47935 0.0
H445 H 0.66391 0.65675 0.45671 0.0
H446 H 0.70467 0.58347 0.53043 0.0
H447 H 0.64257 0.56045 0.54788 0.0
H448 H 0.61761 0.64767 0.52655 0.0
C449 C 0.75053 0.69263 0.47534 0.0
C450 C 0.78138 0.68298 0.46772 0.0
C451 C 0.78534 0.65448 0.47946 0.0
C452 C 0.75864 0.63537 0.49763 0.0
C453 C 0.72828 0.64522 0.50419 0.0
C454 C 0.72416 0.67331 0.49364 0.0
C455 C 0.68787 0.67724 0.50224 0.0
C456 C 0.69162 0.70726 0.52486 0.0
C457 C 0.66635 0.67852 0.47295 0.0
C458 C 0.67179 0.64641 0.51828 0.0
C459 C 0.69571 0.62842 0.51938 0.0
C460 C 0.68602 0.59767 0.53048 0.0
C461 C 0.65084 0.58481 0.54034 0.0
C462 C 0.62606 0.60281 0.53929 0.0
C463 C 0.63668 0.63409 0.52855 0.0
H464 H 0.25976 0.3341 0.12155 0.0
H465 H 0.27157 0.29383 0.0279 0.0
H466 H 0.2152 0.30316 0.01221 0.0
H467 H 0.16167 0.30312 0.12496 0.0
H468 H 0.1574 0.33932 0.14615 0.0
H469 H 0.19691 0.32669 0.15089 0.0
H470 H 0.2361 0.3826 0.13564 0.0
H471 H 0.19677 0.39534 0.13077 0.0
H472 H 0.22781 0.39715 0.09914 0.0
H473 H 0.15997 0.32031 0.00558 0.0
H474 H 0.10965 0.34401 0.0085 0.0
H475 H 0.13394 0.3741 0.10617 0.0
C476 C 0.25014 0.32665 0.0979 0.0
C477 C 0.27003 0.31301 0.076 0.0
C478 C 0.2568 0.30419 0.04513 0.0
C479 C 0.22474 0.30935 0.036 0.0
C480 C 0.20614 0.32337 0.05798 0.0
C481 C 0.21825 0.33181 0.08833 0.0
C482 C 0.19424 0.34822 0.10687 0.0
C483 C 0.1765 0.32813 0.13381 0.0
C484 C 0.21497 0.38288 0.11879 0.0
C485 C 0.16713 0.3482 0.08204 0.0
C486 C 0.17436 0.33352 0.05409 0.0
C487 C 0.15392 0.33167 0.0274 0.0
C488 C 0.12552 0.3454 0.02925 0.0
C489 C 0.1178 0.36094 0.05754 0.0
C490 C 0.13877 0.36196 0.08433 0.0
H491 H 0.64815 0.20599 0.96662 0.0
H492 H 0.56339 0.25128 0.95927 0.0
H493 H 0.52142 0.20502 0.98295 0.0
H494 H 0.59448 0.12384 0.94869 0.0
H495 H 0.61728 0.10713 0.97616 0.0
H496 H 0.64061 0.14369 0.9585 0.0
H497 H 0.65692 0.17338 0.0132 0.0
H498 H 0.63377 0.13687 0.031 0.0
H499 H 0.62195 0.17364 0.04086 0.0
H500 H 0.48844 0.15337 0.0078 0.0
H501 H 0.4679 0.1018 0.03291 0.0
H502 H 0.57421 0.09026 0.02412 0.0
C503 C 0.62077 0.20625 0.96993 0.0
C504 C 0.60918 0.23244 0.96095 0.0
C505 C 0.57305 0.23164 0.96589 0.0
C506 C 0.54894 0.20539 0.9793 0.0
C507 C 0.56124 0.17997 0.98776 0.0
C508 C 0.59636 0.18026 0.98335 0.0
C509 C 0.60295 0.15015 0.99484 0.0
C510 C 0.61451 0.13002 0.96794 0.0
C511 C 0.63053 0.15905 0.02156 0.0
C512 C 0.56608 0.13285 0.00639 0.0
C513 C 0.54235 0.1504 1.00204 0.0
C514 C 0.50682 0.13942 0.01118 0.0
C515 C 0.49535 0.10997 0.02538 0.0
C516 C 0.51927 0.09168 0.03041 0.0
C517 C 0.55508 0.1034 0.02052 0.0
H518 H 0.99129 0.79416 0.36847 0.0
H519 H 0.87665 0.76402 0.38108 0.0
H520 H 0.88111 0.81353 0.41519 0.0
H521 H 0.0137 0.82661 0.44621 0.0
H522 H 0.05043 0.86011 0.43579 0.0
H523 H 0.03808 0.82328 0.41085 0.0
H524 H 0.03068 0.85546 0.36427 0.0
H525 H 0.0432 0.89243 0.38906 0.0
H526 H 1.00152 0.88101 0.36787 0.0
H527 H 0.89837 0.86555 0.44974 0.0
H528 H 0.92711 0.91599 0.48177 0.0
H529 H 0.0306 0.91221 0.44689 0.0
C530 C 0.96711 0.79826 0.37807 0.0
C531 C 0.93365 0.77504 0.37244 0.0
C532 C 0.90265 0.7811 0.38565 0.0
C533 C 0.90488 0.80931 0.40486 0.0
C534 C 0.93834 0.83137 0.41061 0.0
C535 C 0.96892 0.82625 0.39752 0.0
C536 C 1.00172 0.85321 0.40838 0.0
C537 C 0.02749 0.84 0.42638 0.0
C538 C 0.02037 0.87162 0.38075 0.0
C539 C 0.98486 0.87408 0.42978 0.0
C540 C 0.94826 0.86119 0.43061 0.0
C541 C 0.92702 0.87596 0.44914 0.0
C542 C 0.94361 0.90464 0.46729 0.0
C543 C 0.98115 0.91824 0.46695 0.0
C544 C 1.00185 0.90261 0.44777 0.0
H545 H 0.29086 0.77216 0.68302 0.0
H546 H 0.20082 0.68841 0.6973 0.0
H547 H 0.23812 0.6525 0.68217 0.0
H548 H 0.32799 0.73659 0.61615 0.0
H549 H 0.37343 0.75626 0.6283 0.0
H550 H 0.33897 0.77512 0.63851 0.0
H551 H 0.35625 0.77838 0.69685 0.0
H552 H 0.39058 0.75934 0.68686 0.0
H553 H 0.35668 0.742 0.71445 0.0
H554 H 0.28604 0.62586 0.66747 0.0
H555 H 0.34092 0.61058 0.6542 0.0
H556 H 0.39928 0.71192 0.6497 0.0
C557 C 0.27881 0.74626 0.68262 0.0
C558 C 0.24288 0.73308 0.69123 0.0
C559 C 0.22827 0.69905 0.6907 0.0
C560 C 0.24923 0.67846 0.68214 0.0
C561 C 0.2847 0.69229 0.67418 0.0
C562 C 0.29934 0.72541 0.67426 0.0
C563 C 0.33843 0.73422 0.66574 0.0
C564 C 0.34508 0.75156 0.63536 0.0
C565 C 0.36185 0.75469 0.69258 0.0
C566 C 0.34362 0.7009 0.6612 0.0
C567 C 0.31229 0.67701 0.66599 0.0
C568 C 0.31067 0.64435 0.66346 0.0
C569 C 0.34193 0.63591 0.65581 0.0
C570 C 0.37436 0.66006 0.65091 0.0
C571 C 0.37501 0.69293 0.65363 0.0
H572 H 0.73589 0.86863 0.77535 0.0
H573 H 0.78093 0.7896 0.78723 0.0
H574 H 0.81791 0.80366 0.74053 0.0
H575 H 0.73446 0.86151 0.68952 0.0
H576 H 0.74632 0.90471 0.68723 0.0
H577 H 0.72109 0.88653 0.7199 0.0
H578 H 0.7688 0.92391 0.75785 0.0
H579 H 0.79417 0.9421 0.72537 0.0
H580 H 0.81477 0.92423 0.75354 0.0
H581 H 0.8541 0.82961 0.69546 0.0
H582 H 0.88623 0.86522 0.65575 0.0
H583 H 0.81547 0.92561 0.67212 0.0
C584 C 0.75311 0.85393 0.76792 0.0
C585 C 0.75545 0.82798 0.785 0.0
C586 C 0.77858 0.80955 0.77453 0.0
C587 C 0.79966 0.8173 0.74798 0.0
C588 C 0.79707 0.84335 0.73198 0.0
C589 C 0.7742 0.86124 0.74145 0.0
C590 C 0.77775 0.88908 0.72122 0.0
C591 C 0.74283 0.88521 0.70341 0.0
C592 C 0.78958 0.92175 0.74066 0.0
C593 C 0.80686 0.88458 0.6994 0.0
C594 C 0.81751 0.85796 0.70578 0.0
C595 C 0.84557 0.8502 0.68989 0.0
C596 C 0.86354 0.87049 0.66721 0.0
C597 C 0.85341 0.89825 0.66067 0.0
C598 C 0.82415 0.90479 0.67665 0.0
H599 H 0.78757 0.23083 0.30721 0.0
H600 H 0.77392 0.16651 0.38208 0.0
H601 H 0.73031 0.12408 0.34977 0.0
H602 H 0.69602 0.20636 0.28156 0.0
H603 H 0.70714 0.20934 0.24088 0.0
H604 H 0.73691 0.23476 0.2701 0.0
H605 H 0.78862 0.21352 0.24818 0.0
H606 H 0.75904 0.1881 0.21886 0.0
H607 H 0.78301 0.17059 0.24459 0.0
H608 H 0.68804 0.08864 0.30912 0.0
H609 H 0.65235 0.06228 0.2623 0.0
H610 H 0.69416 0.15003 0.21456 0.0
C611 C 0.77544 0.20785 0.31688 0.0
C612 C 0.78415 0.20202 0.34719 0.0
C613 C 0.76769 0.17154 0.35889 0.0
C614 C 0.74282 0.14731 0.34076 0.0
C615 C 0.73478 0.15393 0.31101 0.0
C616 C 0.7507 0.18341 0.29912 0.0
C617 C 0.73791 0.18428 0.2663 0.0
C618 C 0.71833 0.21022 0.26463 0.0
C619 C 0.769 0.18941 0.24312 0.0
C620 C 0.71246 0.1506 0.2615 0.0
C621 C 0.7108 0.1335 0.28759 0.0
C622 C 0.68908 0.1018 0.28855 0.0
C623 C 0.6688 0.0871 0.26197 0.0
C624 C 0.67063 0.1041 0.23484 0.0
C625 C 0.69256 0.13632 0.23485 0.0
H626 H 0.39639 0.62791 0.36191 0.0
H627 H 0.49354 0.70484 0.34875 0.0
H628 H 0.52051 0.68975 0.39478 0.0
H629 H 0.39761 0.63204 0.44662 0.0
H630 H 0.38238 0.58882 0.44886 0.0
H631 H 0.36968 0.60678 0.41611 0.0
H632 H 0.39567 0.57007 0.37835 0.0
H633 H 0.40849 0.55203 0.41098 0.0
H634 H 0.44142 0.57024 0.38296 0.0
H635 H 0.53631 0.6677 0.4433 0.0
H636 H 0.5425 0.63687 0.48779 0.0
H637 H 0.43794 0.56995 0.46725 0.0
C638 C 0.4232 0.64176 0.36899 0.0
C639 C 0.44271 0.66796 0.35197 0.0
C640 C 0.47803 0.6849 0.36148 0.0
C641 C 0.49354 0.67651 0.38766 0.0
C642 C 0.47376 0.65055 0.40384 0.0
C643 C 0.43954 0.63306 0.39465 0.0
C644 C 0.42504 0.60498 0.41512 0.0
C645 C 0.3917 0.60837 0.43272 0.0
C646 C 0.4172 0.5724 0.39569 0.0
C647 C 0.45631 0.6096 0.43738 0.0
C648 C 0.48387 0.63639 0.43065 0.0
C649 C 0.51502 0.64653 0.44857 0.0
C650 C 0.51824 0.62889 0.47391 0.0
C651 C 0.49087 0.60088 0.48096 0.0
C652 C 0.45951 0.59103 0.46224 0.0
H653 H 0.11895 0.44944 0.79186 0.0
H654 H 0.10752 0.35102 0.81487 0.0
H655 H 0.08557 0.36327 0.86686 0.0
H656 H 0.14685 0.48843 0.87019 0.0
H657 H 0.12198 0.51732 0.86776 0.0
H658 H 0.13931 0.50177 0.83287 0.0
H659 H 0.07584 0.48309 0.80863 0.0
H660 H 0.05831 0.49843 0.84346 0.0
H661 H 0.04 0.45672 0.82925 0.0
H662 H 0.06154 0.38444 0.91488 0.0
H663 H 0.0376 0.41368 0.95685 0.0
H664 H 0.06405 0.49909 0.90415 0.0
C665 C 0.11238 0.43064 0.80802 0.0
C666 C 0.11512 0.39923 0.79917 0.0
C667 C 0.1057 0.37522 0.82095 0.0
C668 C 0.09323 0.38195 0.85063 0.0
C669 C 0.09026 0.41286 0.8584 0.0
C670 C 0.09967 0.43691 0.83788 0.0
C671 C 0.09239 0.46769 0.85191 0.0
C672 C 0.12721 0.49544 0.85592 0.0
C673 C 0.065 0.47702 0.83213 0.0
C674 C 0.07701 0.45693 0.88328 0.0
C675 C 0.07623 0.42522 0.88645 0.0
C676 C 0.06224 0.40936 0.91277 0.0
C677 C 0.04855 0.42623 0.9365 0.0
C678 C 0.04889 0.45878 0.93396 0.0
C679 C 0.06361 0.47434 0.90697 0.0
H680 H 0.63487 0.88347 0.94984 0.0
H681 H 0.54806 0.84215 0.88367 0.0
H682 H 0.50951 0.86811 0.91527 0.0
H683 H 0.57977 0.8764 0.01996 0.0
H684 H 0.60654 0.9143 0.03826 0.0
H685 H 0.62668 0.89081 0.01145 0.0
H686 H 0.64971 0.9402 0.97841 0.0
H687 H 0.62949 0.96376 0.005 0.0
H688 H 0.61846 0.95936 0.96407 0.0
H689 H 0.48143 0.90099 0.95226 0.0
H690 H 0.46522 0.93742 0.99289 0.0
H691 H 0.57015 0.95731 0.03523 0.0
C692 C 0.60761 0.87951 0.94219 0.0
C693 C 0.59449 0.86069 0.91426 0.0
C694 C 0.55874 0.8564 0.90497 0.0
C695 C 0.5366 0.87105 0.92278 0.0
C696 C 0.55052 0.88984 0.94988 0.0
C697 C 0.58512 0.89398 0.95968 0.0
C698 C 0.59385 0.91627 0.98919 0.0
C699 C 0.6022 0.89837 0.01632 0.0
C700 C 0.6247 0.9467 0.98383 0.0
C701 C 0.55891 0.92434 0.99418 0.0
C702 C 0.53426 0.90877 0.9713 0.0
C703 C 0.50042 0.91315 0.97044 0.0
C704 C 0.49152 0.934 0.9936 0.0
C705 C 0.51635 0.95026 0.01735 0.0
C706 C 0.55044 0.94514 0.01757 0.0
H707 H 0.90903 0.17998 0.48041 0.0
H708 H 0.96519 0.2073 0.39445 0.0
H709 H 0.99636 0.16555 0.39897 0.0
H710 H 0.98198 0.16335 0.52034 0.0
H711 H 0.95282 0.12972 0.53886 0.0
H712 H 0.93666 0.16278 0.52921 0.0
H713 H 0.88464 0.12238 0.49753 0.0
H714 H 0.90088 0.08926 0.5068 0.0
H715 H 0.89449 0.09576 0.46667 0.0
H716 H 0.02004 0.11885 0.41268 0.0
H717 H 0.0352 0.07341 0.4353 0.0
H718 H 0.96184 0.07748 0.51116 0.0
C719 C 0.92816 0.17752 0.46267 0.0
C720 C 0.93473 0.19698 0.43713 0.0
C721 C 0.95983 0.19274 0.41432 0.0
C722 C 0.97759 0.16904 0.41664 0.0
C723 C 0.96996 0.14985 0.4419 0.0
C724 C 0.94597 0.15405 0.46458 0.0
C725 C 0.94177 0.13009 0.48912 0.0
C726 C 0.95405 0.14753 0.52128 0.0
C727 C 0.90316 0.10808 0.49006 0.0
C728 C 0.96692 0.11153 0.47665 0.0
C729 C 0.9831 0.12317 0.44947 0.0
C730 C 0.00751 0.10958 0.43398 0.0
C731 C 0.01583 0.0837 0.44691 0.0
C732 C 0.99967 0.07173 0.47496 0.0
C733 C 0.97473 0.08585 0.48967 0.0
H734 H 0.21209 0.66631 0.13783 0.0
H735 H 0.27044 0.59592 0.14619 0.0
H736 H 0.2267 0.55675 0.11104 0.0
H737 H 0.12393 0.60923 0.13698 0.0
H738 H 0.1062 0.62994 0.10932 0.0
H739 H 0.14206 0.65233 0.13515 0.0
H740 H 0.18012 0.67467 0.08759 0.0
H741 H 0.14446 0.65216 0.06162 0.0
H742 H 0.1883 0.64683 0.05709 0.0
H743 H 0.17646 0.52516 0.07484 0.0
H744 H 0.12258 0.50288 0.04197 0.0
H745 H 0.09698 0.59394 0.05688 0.0
C746 C 0.21572 0.64265 0.13234 0.0
C747 C 0.24487 0.63427 0.14481 0.0
C748 C 0.2484 0.60296 0.13703 0.0
C749 C 0.22371 0.58055 0.117 0.0
C750 C 0.19549 0.58971 0.10495 0.0
C751 C 0.19124 0.61995 0.11248 0.0
C752 C 0.15834 0.62361 0.0967 0.0
C753 C 0.13102 0.6291 0.12098 0.0
C754 C 0.16842 0.65094 0.07443 0.0
C755 C 0.14487 0.59079 0.07891 0.0
C756 C 0.16667 0.57159 0.08402 0.0
C757 C 0.15928 0.54003 0.07063 0.0
C758 C 0.1286 0.52761 0.05191 0.0
C759 C 0.10558 0.54669 0.04657 0.0
C760 C 0.1142 0.57884 0.06009 0.0
H761 H 0.2615 0.48166 0.65392 0.0
H762 H 0.26571 0.383 0.65875 0.0
H763 H 0.32375 0.39675 0.63225 0.0
H764 H 0.30079 0.49429 0.57859 0.0
H765 H 0.3264 0.53565 0.58831 0.0
H766 H 0.28523 0.51861 0.60822 0.0
H767 H 0.31833 0.53374 0.66134 0.0
H768 H 0.35953 0.55095 0.64154 0.0
H769 H 0.35671 0.51998 0.668 0.0
H770 H 0.37957 0.41988 0.6033 0.0
H771 H 0.43293 0.45235 0.5775 0.0
H772 H 0.39472 0.53704 0.5924 0.0
C773 C 0.27477 0.46303 0.6496 0.0
C774 C 0.25893 0.43117 0.65842 0.0
C775 C 0.27724 0.40754 0.65235 0.0
C776 C 0.31021 0.41508 0.63718 0.0
C777 C 0.32482 0.44647 0.62842 0.0
C778 C 0.30803 0.47024 0.63471 0.0
C779 C 0.33 0.50217 0.62297 0.0
C780 C 0.30936 0.51332 0.59804 0.0
C781 C 0.34185 0.52824 0.65008 0.0
C782 C 0.36152 0.49243 0.60892 0.0
C783 C 0.35775 0.46013 0.6122 0.0
C784 C 0.38295 0.44525 0.60075 0.0
C785 C 0.41316 0.46395 0.58596 0.0
C786 C 0.4182 0.49733 0.58287 0.0
C787 C 0.39177 0.51163 0.59438 0.0
H788 H 0.77265 0.69782 0.88844 0.0
H789 H 0.79965 0.77801 0.95924 0.0
H790 H 0.84605 0.75664 0.98017 0.0
H791 H 0.78741 0.6364 0.9359 0.0
H792 H 0.80653 0.61751 0.90417 0.0
H793 H 0.77372 0.63781 0.89634 0.0
H794 H 0.8177 0.67361 0.85891 0.0
H795 H 0.8507 0.65357 0.86675 0.0
H796 H 0.86136 0.69694 0.87299 0.0
H797 H 0.89065 0.72736 0.99238 0.0
H798 H 0.93145 0.69327 0.99395 0.0
H799 H 0.87651 0.6333 0.91409 0.0
C800 C 0.78794 0.71062 0.90865 0.0
C801 C 0.78236 0.73944 0.9224 0.0
C802 C 0.8034 0.75583 0.94843 0.0
C803 C 0.82976 0.74385 0.9605 0.0
C804 C 0.83488 0.7156 0.94614 0.0
C805 C 0.81461 0.69923 0.92075 0.0
C806 C 0.82669 0.67037 0.90858 0.0
C807 C 0.79681 0.63865 0.91143 0.0
C808 C 0.8399 0.67385 0.87481 0.0
C809 C 0.85712 0.67321 0.93094 0.0
C810 C 0.86119 0.69926 0.95263 0.0
C811 C 0.88764 0.70683 0.97559 0.0
C812 C 0.91059 0.6873 0.97636 0.0
C813 C 0.90714 0.66071 0.95413 0.0
C814 C 0.87997 0.65365 0.9312 0.0
H815 H 0.38161 0.78528 0.17509 0.0
H816 H 0.45022 0.80799 0.25704 0.0
H817 H 0.47562 0.86388 0.24124 0.0
H818 H 0.44526 0.8302 0.12302 0.0
H819 H 0.4129 0.84303 0.10199 0.0
H820 H 0.39949 0.80548 0.12044 0.0
H821 H 0.35096 0.82461 0.15113 0.0
H822 H 0.36421 0.86224 0.13274 0.0
H823 H 0.36351 0.86245 0.17465 0.0
H824 H 0.4942 0.91773 0.21531 0.0
H825 H 0.50467 0.96354 0.1819 0.0
H826 H 0.42408 0.9047 0.1168 0.0
C827 C 0.40182 0.80193 0.18998 0.0
C828 C 0.41373 0.792 0.21752 0.0
C829 C 0.44048 0.81482 0.23595 0.0
C830 C 0.45507 0.84668 0.22712 0.0
C831 C 0.44276 0.85548 0.19974 0.0
C832 C 0.4167 0.83366 0.18147 0.0
C833 C 0.40848 0.8487 0.15279 0.0
C834 C 0.41705 0.83079 0.12279 0.0
C835 C 0.36948 0.84955 0.15285 0.0
C836 C 0.43404 0.88247 0.15759 0.0
C837 C 0.45352 0.88601 0.18485 0.0
C838 C 0.47898 0.91512 0.19398 0.0
C839 C 0.48473 0.94108 0.1748 0.0
C840 C 0.46522 0.93794 0.14661 0.0
C841 C 0.43947 0.90811 0.13814 0.0
H842 H 0.06607 0.20583 0.68292 0.0
H843 H 0.15068 0.26761 0.63023 0.0
H844 H 0.15022 0.22085 0.59336 0.0
H845 H 0.09649 0.13454 0.67399 0.0
H846 H 0.05213 0.10701 0.67014 0.0
H847 H 0.0595 0.14518 0.69266 0.0
H848 H 0.01274 0.15954 0.6589 0.0
H849 H 0.00512 0.12136 0.63641 0.0
H850 H 0.01766 0.1585 0.61714 0.0
H851 H 0.1397 0.16736 0.56167 0.0
H852 H 0.1192 0.11184 0.53694 0.0
H853 H 0.04151 0.08489 0.61052 0.0
C854 C 0.08461 0.20959 0.66369 0.0
C855 C 0.10848 0.24049 0.65954 0.0
C856 C 0.13215 0.24425 0.63395 0.0
C857 C 0.13213 0.21779 0.6129 0.0
C858 C 0.10829 0.1877 0.61774 0.0
C859 C 0.08491 0.18348 0.64247 0.0
C860 C 0.06149 0.14878 0.64211 0.0
C861 C 0.0678 0.13295 0.67147 0.0
C862 C 0.02192 0.14696 0.63841 0.0
C863 C 0.07526 0.1341 0.61325 0.0
C864 C 0.10231 0.15693 0.59957 0.0
C865 C 0.11865 0.14927 0.57227 0.0
C866 C 0.1068 0.11759 0.5584 0.0
C867 C 0.07882 0.0938 0.57181 0.0
C868 C 0.06318 0.10229 0.5998 0.0
H869 H 0.74276 0.35161 0.37683 0.0
H870 H 0.81071 0.36955 0.459 0.0
H871 H 0.77295 0.40043 0.48534 0.0
H872 H 0.72488 0.42979 0.38169 0.0
H873 H 0.67942 0.41273 0.36838 0.0
H874 H 0.71296 0.39363 0.35569 0.0
H875 H 0.67473 0.33976 0.37622 0.0
H876 H 0.64121 0.35873 0.38917 0.0
H877 H 0.66089 0.33903 0.41638 0.0
H878 H 0.72561 0.42681 0.50353 0.0
H879 H 0.67356 0.44772 0.51174 0.0
H880 H 0.63772 0.4132 0.41701 0.0
C881 C 0.75 0.36227 0.40026 0.0
C882 C 0.77974 0.35818 0.41586 0.0
C883 C 0.78813 0.37246 0.44656 0.0
C884 C 0.76682 0.39 0.4617 0.0
C885 C 0.73738 0.39314 0.44576 0.0
C886 C 0.72913 0.37983 0.41564 0.0
C887 C 0.6956 0.38595 0.40386 0.0
C888 C 0.70372 0.40677 0.37574 0.0
C889 C 0.66639 0.35396 0.39595 0.0
C890 C 0.68593 0.40443 0.43221 0.0
C891 C 0.71038 0.40844 0.45611 0.0
C892 C 0.70652 0.42411 0.48485 0.0
C893 C 0.67693 0.43605 0.48923 0.0
C894 C 0.65155 0.43227 0.46498 0.0
C895 C 0.65637 0.41627 0.43612 0.0
loop_
_geom_bond_atom_site_label_1
_geom_bond_atom_site_label_2
_geom_bond_distance
_geom_bond_site_symmetry_2
_ccdc_geom_bond_type
O0 Cd1 2.300 . S
O0 C7 1.275 . S
Cd1 O0 2.300 . S
Cd1 O9 2.381 . S
Cd1 O10 2.378 . S
O2 Cd3 2.385 . S
O2 C7 1.255 . S
Cd3 O2 2.385 . S
Cd3 O4 2.317 . S
O4 Cd3 2.317 . S
O4 C5 1.232 . S
C5 O4 1.232 . S
C5 O6 1.218 . S
O6 C5 1.218 . S
C7 O0 1.275 . S
C7 O2 1.255 . S
C8 O9 1.258 . S
C8 O10 1.256 . S
O9 Cd1 2.381 . S
O9 C8 1.258 . S
O10 Cd1 2.378 . S
O10 C8 1.256 . S
O11 Cd12 2.300 . S
O11 C18 1.275 . S
Cd12 O11 2.300 . S
Cd12 O20 2.381 . S
Cd12 O21 2.378 . S
O13 Cd14 2.385 . S
O13 C18 1.255 . S
Cd14 O13 2.385 . S
Cd14 O15 2.317 . S
O15 Cd14 2.317 . S
O15 C16 1.232 . S
C16 O15 1.232 . S
C16 O17 1.218 . S
O17 C16 1.218 . S
C18 O11 1.275 . S
C18 O13 1.255 . S
C19 O20 1.258 . S
C19 O21 1.256 . S
O20 Cd12 2.381 . S
O20 C19 1.258 . S
O21 Cd12 2.378 . S
O21 C19 1.256 . S
O22 Cd23 2.300 . S
O22 C29 1.275 . S
Cd23 O22 2.300 . S
Cd23 O31 2.381 . S
Cd23 O32 2.378 . S
O24 Cd25 2.385 . S
O24 C29 1.255 . S
Cd25 O24 2.385 . S
Cd25 O26 2.317 . S
O26 Cd25 2.317 . S
O26 C27 1.232 . S
C27 O26 1.232 . S
C27 O28 1.218 . S
O28 C27 1.218 . S
C29 O22 1.275 . S
C29 O24 1.255 . S
C30 O31 1.258 . S
C30 O32 1.256 . S
O31 Cd23 2.381 . S
O31 C30 1.258 . S
O32 Cd23 2.378 . S
O32 C30 1.256 . S
O33 Cd34 2.300 . S
O33 C40 1.275 . S
Cd34 O33 2.300 . S
Cd34 O42 2.381 . S
Cd34 O43 2.378 . S
O35 Cd36 2.385 . S
O35 C40 1.255 . S
Cd36 O35 2.385 . S
Cd36 O37 2.317 . S
O37 Cd36 2.317 . S
O37 C38 1.232 . S
C38 O37 1.232 . S
C38 O39 1.218 . S
O39 C38 1.218 . S
C40 O33 1.275 . S
C40 O35 1.255 . S
C41 O42 1.258 . S
C41 O43 1.256 . S
O42 Cd34 2.381 . S
O42 C41 1.258 . S
O43 Cd34 2.378 . S
O43 C41 1.256 . S
O44 Cd45 2.300 . S
O44 C51 1.275 . S
Cd45 O44 2.300 . S
Cd45 O53 2.381 . S
Cd45 O54 2.378 . S
O46 Cd47 2.385 . S
O46 C51 1.255 . S
Cd47 O46 2.385 . S
Cd47 O48 2.317 . S
O48 Cd47 2.317 . S
O48 C49 1.232 . S
C49 O48 1.232 . S
C49 O50 1.218 . S
O50 C49 1.218 . S
C51 O44 1.275 . S
C51 O46 1.255 . S
C52 O53 1.258 . S
C52 O54 1.256 . S
O53 Cd45 2.381 . S
O53 C52 1.258 . S
O54 Cd45 2.378 . S
O54 C52 1.256 . S
O55 Cd56 2.300 . S
O55 C62 1.275 . S
Cd56 O55 2.300 . S
Cd56 O64 2.381 . S
Cd56 O65 2.378 . S
O57 Cd58 2.385 . S
O57 C62 1.255 . S
Cd58 O57 2.385 . S
Cd58 O59 2.317 . S
O59 Cd58 2.317 . S
O59 C60 1.232 . S
C60 O59 1.232 . S
C60 O61 1.218 . S
O61 C60 1.218 . S
C62 O55 1.275 . S
C62 O57 1.255 . S
C63 O64 1.258 . S
C63 O65 1.256 . S
O64 Cd56 2.381 . S
O64 C63 1.258 . S
O65 Cd56 2.378 . S
O65 C63 1.256 . S
O66 Cd67 2.300 . S
O66 C73 1.275 . S
Cd67 O66 2.300 . S
Cd67 O75 2.381 . S
Cd67 O76 2.378 . S
O68 Cd69 2.385 . S
O68 C73 1.255 . S
Cd69 O68 2.385 . S
Cd69 O70 2.317 . S
O70 Cd69 2.317 . S
O70 C71 1.232 . S
C71 O70 1.232 . S
C71 O72 1.218 . S
O72 C71 1.218 . S
C73 O66 1.275 . S
C73 O68 1.255 . S
C74 O75 1.258 . S
C74 O76 1.256 . S
O75 Cd67 2.381 . S
O75 C74 1.258 . S
O76 Cd67 2.378 . S
O76 C74 1.256 . S
O77 Cd78 2.300 . S
O77 C84 1.275 . S
Cd78 O77 2.300 . S
Cd78 O86 2.381 . S
Cd78 O87 2.378 . S
O79 Cd80 2.385 . S
O79 C84 1.255 . S
Cd80 O79 2.385 . S
Cd80 O81 2.317 . S
O81 Cd80 2.317 . S
O81 C82 1.232 . S
C82 O81 1.232 . S
C82 O83 1.218 . S
O83 C82 1.218 . S
C84 O77 1.275 . S
C84 O79 1.255 . S
C85 O86 1.258 . S
C85 O87 1.256 . S
O86 Cd78 2.381 . S
O86 C85 1.258 . S
O87 Cd78 2.378 . S
O87 C85 1.256 . S
Dy88 O91 2.307 1_545 S
Dy88 O93 2.395 . S
Dy88 O94 2.379 . S
Dy88 O96 2.339 1_545 S
Dy88 O98 2.322 . S
Dy88 O102 2.275 . S
Dy88 C110 2.738 . S
Dy89 O92 2.300 1_655 S
Dy89 O95 2.277 . S
Dy89 O97 2.305 1_565 S
Dy89 O99 2.398 . S
Dy89 O100 2.379 . S
Dy89 O103 2.336 1_565 S
Dy89 C119 2.740 . S
C90 O102 1.254 . S
C90 O103 1.257 1_455 S
O91 Dy88 2.307 1_565 S
O91 C101 1.266 . S
O92 Dy89 2.300 1_455 S
O92 C101 1.236 . S
O93 Dy88 2.395 . S
O93 C110 1.255 . S
O94 Dy88 2.379 . S
O94 C110 1.249 . S
O95 Dy89 2.277 . S
O95 C111 1.254 . S
O96 Dy88 2.339 1_565 S
O96 C111 1.257 1_455 S
O97 Dy89 2.305 1_545 S
O97 C112 1.266 . S
O98 Dy88 2.322 . S
O98 C112 1.212 1_455 S
O99 Dy89 2.398 . S
O99 C119 1.255 . S
O100 Dy89 2.379 . S
O100 C119 1.249 . S
C101 O91 1.266 . S
C101 O92 1.236 . S
O102 Dy88 2.275 . S
O102 C90 1.254 . S
O103 Dy89 2.336 1_545 S
O103 C90 1.257 1_655 S
C104 C107 1.344 . S
C104 C108 1.328 . S
C104 C110 1.516 . S
C105 C106 1.304 . S
C105 C109 1.323 . S
C106 C105 1.304 . S
C106 C107 1.371 . S
C106 H120 0.930 . S
C107 C104 1.344 . S
C107 C106 1.371 . S
C107 H121 0.931 . S
C108 C104 1.328 . S
C108 C109 1.433 . S
C108 H122 0.931 . S
C109 C105 1.323 . S
C109 C108 1.433 . S
C109 H123 0.933 . S
C110 Dy88 2.738 . S
C110 O93 1.255 . S
C110 O94 1.249 . S
C110 C104 1.516 . S
C111 O95 1.254 . S
C111 O96 1.257 1_655 S
C112 O97 1.266 . S
C112 O98 1.212 1_655 S
C113 C116 1.344 . S
C113 C117 1.328 . S
C113 C119 1.516 . S
C114 C115 1.304 . S
C114 C118 1.323 . S
C115 C114 1.304 . S
C115 C116 1.371 . S
C115 H124 0.930 . S
C116 C113 1.344 . S
C116 C115 1.371 . S
C116 H125 0.931 . S
C117 C113 1.328 . S
C117 C118 1.433 . S
C117 H126 0.931 . S
C118 C114 1.323 . S
C118 C117 1.433 . S
C118 H127 0.933 . S
C119 Dy89 2.740 . S
C119 O99 1.255 . S
C119 O100 1.249 . S
C119 C113 1.516 . S
H120 C106 0.930 . S
H121 C107 0.931 . S
H122 C108 0.931 . S
H123 C109 0.933 . S
H124 C115 0.930 . S
H125 C116 0.931 . S
H126 C117 0.931 . S
H127 C118 0.933 . S
Dy128 O131 2.307 . S
Dy128 O133 2.395 1_545 S
Dy128 O134 2.379 1_554 S
Dy128 O136 2.339 . S
Dy128 O138 2.298 1_545 S
Dy128 O142 2.275 1_545 S
Dy128 C150 2.738 1_544 S
Dy129 O132 2.298 . S
Dy129 O135 2.275 . S
Dy129 O137 2.301 1_545 S
Dy129 O139 2.395 . S
Dy129 O140 2.379 . S
Dy129 O143 2.339 1_545 S
Dy129 C159 2.738 . S
C130 O142 1.254 . S
C130 O143 1.257 . S
O131 Dy128 2.307 . S
O131 C141 1.266 . S
O132 Dy129 2.298 . S
O132 C141 1.236 . S
O133 Dy128 2.395 1_565 S
O133 C150 1.255 1_554 S
O134 Dy128 2.379 1_556 S
O134 C150 1.249 1_545 S
O135 Dy129 2.275 . S
O135 C151 1.254 . S
O136 Dy128 2.339 . S
O136 C151 1.257 . S
O137 Dy129 2.301 1_565 S
O137 C152 1.268 . S
O138 Dy128 2.298 1_565 S
O138 C152 1.236 . S
O139 Dy129 2.395 . S
O139 C159 1.255 . S
O140 Dy129 2.379 . S
O140 C159 1.249 . S
C141 O131 1.266 . S
C141 O132 1.236 . S
O142 Dy128 2.275 1_565 S
O142 C130 1.254 . S
O143 Dy129 2.339 1_565 S
O143 C130 1.257 . S
C144 C147 1.344 . S
C144 C148 1.328 . S
C144 C150 1.516 . S
C145 C146 1.304 . S
C145 C149 1.323 . S
C146 C145 1.304 . S
C146 C147 1.371 . S
C146 H160 0.930 . S
C147 C144 1.344 . S
C147 C146 1.371 . S
C147 H161 0.931 . S
C148 C144 1.328 . S
C148 C149 1.433 . S
C148 H162 0.931 . S
C149 C145 1.323 . S
C149 C148 1.433 . S
C149 H163 0.933 . S
C150 Dy128 2.738 1_566 S
C150 O133 1.255 1_556 S
C150 O134 1.249 1_565 S
C150 C144 1.516 . S
C151 O135 1.254 . S
C151 O136 1.257 . S
C152 O137 1.268 . S
C152 O138 1.236 . S
C153 C156 1.344 . S
C153 C157 1.328 . S
C153 C159 1.516 . S
C154 C155 1.304 . S
C154 C158 1.323 . S
C155 C154 1.304 . S
C155 C156 1.371 . S
C155 H164 0.930 . S
C156 C153 1.344 . S
C156 C155 1.371 . S
C156 H165 0.931 . S
C157 C153 1.328 . S
C157 C158 1.433 . S
C157 H166 0.931 . S
C158 C154 1.323 . S
C158 C157 1.433 . S
C158 H167 0.933 . S
C159 Dy129 2.738 . S
C159 O139 1.255 . S
C159 O140 1.249 . S
C159 C153 1.516 . S
H160 C146 0.930 . S
H161 C147 0.931 . S
H162 C148 0.931 . S
H163 C149 0.933 . S
H164 C155 0.930 . S
H165 C156 0.931 . S
H166 C157 0.931 . S
H167 C158 0.933 . S
Dy168 O171 2.307 . S
Dy168 O173 2.395 . S
Dy168 O174 2.379 . S
Dy168 O176 2.339 . S
Dy168 O178 2.298 . S
Dy168 O182 2.275 . S
Dy168 C190 2.738 . S
Dy169 O172 2.298 . S
Dy169 O175 2.275 . S
Dy169 O177 2.307 . S
Dy169 O179 2.395 . S
Dy169 O180 2.379 . S
Dy169 O183 2.339 . S
Dy169 C199 2.738 . S
C170 O182 1.254 . S
C170 O183 1.257 . S
O171 Dy168 2.307 . S
O171 C181 1.266 . S
O172 Dy169 2.298 . S
O172 C181 1.236 . S
O173 Dy168 2.395 . S
O173 C190 1.255 . S
O174 Dy168 2.379 . S
O174 C190 1.249 . S
O175 Dy169 2.275 . S
O175 C191 1.254 . S
O176 Dy168 2.339 . S
O176 C191 1.257 . S
O177 Dy169 2.307 . S
O177 C192 1.266 . S
O178 Dy168 2.298 . S
O178 C192 1.236 . S
O179 Dy169 2.395 . S
O179 C199 1.255 . S
O180 Dy169 2.379 . S
O180 C199 1.249 . S
C181 O171 1.266 . S
C181 O172 1.236 . S
O182 Dy168 2.275 . S
O182 C170 1.254 . S
O183 Dy169 2.339 . S
O183 C170 1.257 . S
C184 C187 1.344 . S
C184 C188 1.328 . S
C184 C190 1.516 . S
C185 C186 1.304 . S
C185 C189 1.323 . S
C186 C185 1.304 . S
C186 C187 1.371 . S
C186 H200 0.930 . S
C187 C184 1.344 . S
C187 C186 1.371 . S
C187 H201 0.931 . S
C188 C184 1.328 . S
C188 C189 1.433 . S
C188 H202 0.931 . S
C189 C185 1.323 . S
C189 C188 1.433 . S
C189 H203 0.933 . S
C190 Dy168 2.738 . S
C190 O173 1.255 . S
C190 O174 1.249 . S
C190 C184 1.516 . S
C191 O175 1.254 . S
C191 O176 1.257 . S
C192 O177 1.266 . S
C192 O178 1.236 . S
C193 C196 1.344 . S
C193 C197 1.328 . S
C193 C199 1.516 . S
C194 C195 1.304 . S
C194 C198 1.323 . S
C195 C194 1.304 . S
C195 C196 1.371 . S
C195 H204 0.930 . S
C196 C193 1.344 . S
C196 C195 1.371 . S
C196 H205 0.931 . S
C197 C193 1.328 . S
C197 C198 1.433 . S
C197 H206 0.931 . S
C198 C194 1.323 . S
C198 C197 1.433 . S
C198 H207 0.933 . S
C199 Dy169 2.738 . S
C199 O179 1.255 . S
C199 O180 1.249 . S
C199 C193 1.516 . S
H200 C186 0.930 . S
H201 C187 0.931 . S
H202 C188 0.931 . S
H203 C189 0.933 . S
H204 C195 0.930 . S
H205 C196 0.931 . S
H206 C197 0.931 . S
H207 C198 0.933 . S
Dy208 O211 2.307 1_556 S
Dy208 O213 2.395 1_455 S
Dy208 O214 2.379 1_455 S
Dy208 O216 2.339 . S
Dy208 O218 2.298 1_455 S
Dy208 O222 2.275 1_556 S
Dy208 C230 2.738 1_455 S
Dy209 O212 2.298 . S
Dy209 O215 2.275 1_554 S
Dy209 O217 2.307 1_455 S
Dy209 O219 2.395 . S
Dy209 O220 2.379 . S
Dy209 O223 2.339 1_455 S
Dy209 C239 2.738 . S
C210 O222 1.254 1_655 S
C210 O223 1.257 . S
O211 Dy208 2.307 1_554 S
O211 C221 1.266 . S
O212 Dy209 2.298 . S
O212 C221 1.236 . S
O213 Dy208 2.395 1_655 S
O213 C230 1.255 . S
O214 Dy208 2.379 1_655 S
O214 C230 1.249 . S
O215 Dy209 2.275 1_556 S
O215 C231 1.254 . S
O216 Dy208 2.339 . S
O216 C231 1.257 . S
O217 Dy209 2.307 1_655 S
O217 C232 1.266 1_554 S
O218 Dy208 2.298 1_655 S
O218 C232 1.236 . S
O219 Dy209 2.395 . S
O219 C239 1.255 . S
O220 Dy209 2.379 . S
O220 C239 1.249 . S
C221 O211 1.266 . S
C221 O212 1.236 . S
O222 Dy208 2.275 1_554 S
O222 C210 1.254 1_455 S
O223 Dy209 2.339 1_655 S
O223 C210 1.257 . S
C224 C227 1.344 . S
C224 C228 1.328 . S
C224 C230 1.516 . S
C225 C226 1.304 . S
C225 C229 1.323 . S
C226 C225 1.304 . S
C226 C227 1.371 . S
C226 H240 0.930 . S
C227 C224 1.344 . S
C227 C226 1.371 . S
C227 H241 0.931 . S
C228 C224 1.328 . S
C228 C229 1.433 . S
C228 H242 0.931 . S
C229 C225 1.323 . S
C229 C228 1.433 . S
C229 H243 0.933 . S
C230 Dy208 2.738 1_655 S
C230 O213 1.255 . S
C230 O214 1.249 . S
C230 C224 1.516 . S
C231 O215 1.254 . S
C231 O216 1.257 . S
C232 O217 1.266 1_556 S
C232 O218 1.236 . S
C233 C236 1.344 . S
C233 C237 1.328 . S
C233 C239 1.516 . S
C234 C235 1.304 . S
C234 C238 1.323 . S
C235 C234 1.304 . S
C235 C236 1.371 . S
C235 H244 0.930 . S
C236 C233 1.344 . S
C236 C235 1.371 . S
C236 H245 0.931 . S
C237 C233 1.328 . S
C237 C238 1.433 . S
C237 H246 0.931 . S
C238 C234 1.323 . S
C238 C237 1.433 . S
C238 H247 0.933 . S
C239 Dy209 2.738 . S
C239 O219 1.255 . S
C239 O220 1.249 . S
C239 C233 1.516 . S
H240 C226 0.930 . S
H241 C227 0.931 . S
H242 C228 0.931 . S
H243 C229 0.933 . S
H244 C235 0.930 . S
H245 C236 0.931 . S
H246 C237 0.931 . S
H247 C238 0.933 . S
H248 C260 0.930 . S
H249 C262 0.930 . S
H250 C263 0.930 . S
H251 C267 0.959 . S
H252 C267 0.959 . S
H253 C267 0.961 . S
H254 C268 0.960 . S
H255 C268 0.961 . S
H256 C268 0.959 . S
H257 C271 0.929 . S
H258 C272 0.931 . S
H259 C274 0.930 . S
C260 H248 0.930 . S
C260 C261 1.399 . S
C260 C265 1.399 . S
C261 C260 1.399 . S
C261 C262 1.376 . S
C262 H249 0.930 . S
C262 C261 1.376 . S
C262 C263 1.388 . S
C263 H250 0.930 . S
C263 C262 1.388 . S
C263 C264 1.390 . S
C264 C263 1.390 . S
C264 C265 1.394 . S
C264 C270 1.465 . S
C265 C260 1.399 . S
C265 C264 1.394 . S
C265 C266 1.516 . S
C266 C265 1.516 . S
C266 C267 1.502 . S
C266 C268 1.561 . S
C266 C269 1.526 . S
C267 H251 0.959 . S
C267 H252 0.959 . S
C267 H253 0.961 . S
C267 C266 1.502 . S
C268 H254 0.960 . S
C268 H255 0.961 . S
C268 H256 0.959 . S
C268 C266 1.561 . S
C269 C266 1.526 . S
C269 C270 1.396 . S
C269 C274 1.390 . S
C270 C264 1.465 . S
C270 C269 1.396 . S
C270 C271 1.399 . S
C271 H257 0.929 . S
C271 C270 1.399 . S
C271 C272 1.385 . S
C272 H258 0.931 . S
C272 C271 1.385 . S
C272 C273 1.389 . S
C273 C272 1.389 . S
C273 C274 1.387 . S
C274 H259 0.930 . S
C274 C269 1.390 . S
C274 C273 1.387 . S
H275 C287 0.930 . S
H276 C289 0.930 . S
H277 C290 0.930 . S
H278 C294 0.959 . S
H279 C294 0.959 . S
H280 C294 0.961 . S
H281 C295 0.960 . S
H282 C295 0.961 . S
H283 C295 0.959 . S
H284 C298 0.929 . S
H285 C299 0.931 . S
H286 C301 0.930 . S
C287 H275 0.930 . S
C287 C288 1.399 . S
C287 C292 1.399 . S
C288 C287 1.399 . S
C288 C289 1.376 . S
C289 H276 0.930 . S
C289 C288 1.376 . S
C289 C290 1.388 . S
C290 H277 0.930 . S
C290 C289 1.388 . S
C290 C291 1.390 . S
C291 C290 1.390 . S
C291 C292 1.394 . S
C291 C297 1.465 . S
C292 C287 1.399 . S
C292 C291 1.394 . S
C292 C293 1.516 . S
C293 C292 1.516 . S
C293 C294 1.502 . S
C293 C295 1.561 . S
C293 C296 1.526 . S
C294 H278 0.959 . S
C294 H279 0.959 . S
C294 H280 0.961 . S
C294 C293 1.502 . S
C295 H281 0.960 . S
C295 H282 0.961 . S
C295 H283 0.959 . S
C295 C293 1.561 . S
C296 C293 1.526 . S
C296 C297 1.396 . S
C296 C301 1.390 . S
C297 C291 1.465 . S
C297 C296 1.396 . S
C297 C298 1.399 . S
C298 H284 0.929 . S
C298 C297 1.399 . S
C298 C299 1.385 . S
C299 H285 0.931 . S
C299 C298 1.385 . S
C299 C300 1.389 . S
C300 C299 1.389 . S
C300 C301 1.387 . S
C301 H286 0.930 . S
C301 C296 1.390 . S
C301 C300 1.387 . S
H302 C314 0.930 . S
H303 C316 0.930 . S
H304 C317 0.930 . S
H305 C321 0.959 . S
H306 C321 0.959 . S
H307 C321 0.961 . S
H308 C322 0.960 . S
H309 C322 0.961 . S
H310 C322 0.959 . S
H311 C325 0.929 . S
H312 C326 0.931 . S
H313 C328 0.930 . S
C314 H302 0.930 . S
C314 C315 1.399 . S
C314 C319 1.399 . S
C315 C314 1.399 . S
C315 C316 1.376 . S
C316 H303 0.930 . S
C316 C315 1.376 . S
C316 C317 1.388 . S
C317 H304 0.930 . S
C317 C316 1.388 . S
C317 C318 1.390 . S
C318 C317 1.390 . S
C318 C319 1.394 . S
C318 C324 1.465 . S
C319 C314 1.399 . S
C319 C318 1.394 . S
C319 C320 1.516 . S
C320 C319 1.516 . S
C320 C321 1.502 . S
C320 C322 1.561 . S
C320 C323 1.526 . S
C321 H305 0.959 . S
C321 H306 0.959 . S
C321 H307 0.961 . S
C321 C320 1.502 . S
C322 H308 0.960 . S
C322 H309 0.961 . S
C322 H310 0.959 . S
C322 C320 1.561 . S
C323 C320 1.526 . S
C323 C324 1.396 . S
C323 C328 1.390 . S
C324 C318 1.465 . S
C324 C323 1.396 . S
C324 C325 1.399 . S
C325 H311 0.929 . S
C325 C324 1.399 . S
C325 C326 1.385 . S
C326 H312 0.931 . S
C326 C325 1.385 . S
C326 C327 1.389 . S
C327 C326 1.389 . S
C327 C328 1.387 . S
C328 H313 0.930 . S
C328 C323 1.390 . S
C328 C327 1.387 . S
H329 C341 0.930 . S
H330 C343 0.930 . S
H331 C344 0.930 . S
H332 C348 0.959 1_455 S
H333 C348 0.959 . S
H334 C348 0.961 . S
H335 C349 0.960 . S
H336 C349 0.961 . S
H337 C349 0.959 . S
H338 C352 0.929 . S
H339 C353 0.931 . S
H340 C355 0.930 . S
C341 H329 0.930 . S
C341 C342 1.399 . S
C341 C346 1.399 . S
C342 C341 1.399 . S
C342 C343 1.376 . S
C343 H330 0.930 . S
C343 C342 1.376 . S
C343 C344 1.388 . S
C344 H331 0.930 . S
C344 C343 1.388 . S
C344 C345 1.390 . S
C345 C344 1.390 . S
C345 C346 1.394 . S
C345 C351 1.465 . S
C346 C341 1.399 . S
C346 C345 1.394 . S
C346 C347 1.516 . S
C347 C346 1.516 . S
C347 C348 1.502 . S
C347 C349 1.561 . S
C347 C350 1.526 . S
C348 H332 0.959 1_655 S
C348 H333 0.959 . S
C348 H334 0.961 . S
C348 C347 1.502 . S
C349 H335 0.960 . S
C349 H336 0.961 . S
C349 H337 0.959 . S
C349 C347 1.561 . S
C350 C347 1.526 . S
C350 C351 1.396 . S
C350 C355 1.390 . S
C351 C345 1.465 . S
C351 C350 1.396 . S
C351 C352 1.399 . S
C352 H338 0.929 . S
C352 C351 1.399 . S
C352 C353 1.385 . S
C353 H339 0.931 . S
C353 C352 1.385 . S
C353 C354 1.389 . S
C354 C353 1.389 . S
C354 C355 1.387 . S
C355 H340 0.930 . S
C355 C350 1.390 . S
C355 C354 1.387 . S
H356 C368 0.930 . S
H357 C370 0.930 . S
H358 C371 0.930 . S
H359 C375 0.959 . S
H360 C375 0.959 . S
H361 C375 0.961 . S
H362 C376 0.960 . S
H363 C376 0.961 . S
H364 C376 0.959 . S
H365 C379 0.929 . S
H366 C380 0.931 . S
H367 C382 0.930 . S
C368 H356 0.930 . S
C368 C369 1.399 . S
C368 C373 1.399 . S
C369 C368 1.399 . S
C369 C370 1.376 . S
C370 H357 0.930 . S
C370 C369 1.376 . S
C370 C371 1.388 . S
C371 H358 0.930 . S
C371 C370 1.388 . S
C371 C372 1.390 . S
C372 C371 1.390 . S
C372 C373 1.394 . S
C372 C378 1.465 . S
C373 C368 1.399 . S
C373 C372 1.394 . S
C373 C374 1.516 . S
C374 C373 1.516 . S
C374 C375 1.502 . S
C374 C376 1.561 . S
C374 C377 1.526 . S
C375 H359 0.959 . S
C375 H360 0.959 . S
C375 H361 0.961 . S
C375 C374 1.502 . S
C376 H362 0.960 . S
C376 H363 0.961 . S
C376 H364 0.959 . S
C376 C374 1.561 . S
C377 C374 1.526 . S
C377 C378 1.396 . S
C377 C382 1.390 . S
C378 C372 1.465 . S
C378 C377 1.396 . S
C378 C379 1.399 . S
C379 H365 0.929 . S
C379 C378 1.399 . S
C379 C380 1.385 . S
C380 H366 0.931 . S
C380 C379 1.385 . S
C380 C381 1.389 . S
C381 C380 1.389 . S
C381 C382 1.387 . S
C382 H367 0.930 . S
C382 C377 1.390 . S
C382 C381 1.387 . S
H383 C395 0.930 . S
H384 C397 0.930 . S
H385 C398 0.930 . S
H386 C402 0.959 1_655 S
H387 C402 0.949 1_655 S
H388 C402 0.961 . S
H389 C403 0.960 . S
H390 C403 0.961 . S
H391 C403 0.959 . S
H392 C406 0.929 . S
H393 C407 0.931 . S
H394 C409 0.930 . S
C395 H383 0.930 . S
C395 C396 1.399 . S
C395 C400 1.399 . S
C396 C395 1.399 . S
C396 C397 1.376 . S
C397 H384 0.930 . S
C397 C396 1.376 . S
C397 C398 1.388 . S
C398 H385 0.930 . S
C398 C397 1.388 . S
C398 C399 1.390 . S
C399 C398 1.390 . S
C399 C400 1.394 . S
C399 C405 1.465 . S
C400 C395 1.399 . S
C400 C399 1.394 . S
C400 C401 1.516 . S
C401 C400 1.516 . S
C401 C402 1.502 . S
C401 C403 1.561 . S
C401 C404 1.526 . S
C402 H386 0.959 1_455 S
C402 H387 0.949 1_455 S
C402 H388 0.961 . S
C402 C401 1.502 . S
C403 H389 0.960 . S
C403 H390 0.961 . S
C403 H391 0.959 . S
C403 C401 1.561 . S
C404 C401 1.526 . S
C404 C405 1.396 . S
C404 C409 1.390 . S
C405 C399 1.465 . S
C405 C404 1.396 . S
C405 C406 1.399 . S
C406 H392 0.929 . S
C406 C405 1.399 . S
C406 C407 1.385 . S
C407 H393 0.931 . S
C407 C406 1.385 . S
C407 C408 1.389 . S
C408 C407 1.389 . S
C408 C409 1.387 . S
C409 H394 0.930 . S
C409 C404 1.390 . S
C409 C408 1.387 . S
H410 C422 0.930 . S
H411 C424 0.930 . S
H412 C425 0.930 . S
H413 C429 0.959 . S
H414 C429 0.959 . S
H415 C429 0.961 . S
H416 C430 0.960 . S
H417 C430 0.961 . S
H418 C430 0.959 . S
H419 C433 0.929 . S
H420 C434 0.931 1_554 S
H421 C436 0.930 . S
C422 H410 0.930 . S
C422 C423 1.399 . S
C422 C427 1.399 . S
C423 C422 1.399 . S
C423 C424 1.376 . S
C424 H411 0.930 . S
C424 C423 1.376 . S
C424 C425 1.388 . S
C425 H412 0.930 . S
C425 C424 1.388 . S
C425 C426 1.390 . S
C426 C425 1.390 . S
C426 C427 1.394 . S
C426 C432 1.465 . S
C427 C422 1.399 . S
C427 C426 1.394 . S
C427 C428 1.516 . S
C428 C427 1.516 . S
C428 C429 1.502 . S
C428 C430 1.561 . S
C428 C431 1.526 . S
C429 H413 0.959 . S
C429 H414 0.959 . S
C429 H415 0.961 . S
C429 C428 1.502 . S
C430 H416 0.960 . S
C430 H417 0.961 . S
C430 H418 0.959 . S
C430 C428 1.561 . S
C431 C428 1.526 . S
C431 C432 1.396 . S
C431 C436 1.390 . S
C432 C426 1.465 . S
C432 C431 1.396 . S
C432 C433 1.399 . S
C433 H419 0.929 . S
C433 C432 1.399 . S
C433 C434 1.385 . S
C434 H420 0.931 1_556 S
C434 C433 1.385 . S
C434 C435 1.389 . S
C435 C434 1.389 . S
C435 C436 1.387 . S
C436 H421 0.930 . S
C436 C431 1.390 . S
C436 C435 1.387 . S
H437 C449 0.930 . S
H438 C451 0.930 . S
H439 C452 0.930 . S
H440 C456 0.959 . S
H441 C456 0.959 . S
H442 C456 0.961 . S
H443 C457 0.960 . S
H444 C457 0.961 . S
H445 C457 0.959 . S
H446 C460 0.929 . S
H447 C461 0.931 . S
H448 C463 0.930 . S
C449 H437 0.930 . S
C449 C450 1.399 . S
C449 C454 1.399 . S
C450 C449 1.399 . S
C450 C451 1.376 . S
C451 H438 0.930 . S
C451 C450 1.376 . S
C451 C452 1.388 . S
C452 H439 0.930 . S
C452 C451 1.388 . S
C452 C453 1.390 . S
C453 C452 1.390 . S
C453 C454 1.394 . S
C453 C459 1.465 . S
C454 C449 1.399 . S
C454 C453 1.394 . S
C454 C455 1.516 . S
C455 C454 1.516 . S
C455 C456 1.502 . S
C455 C457 1.561 . S
C455 C458 1.526 . S
C456 H440 0.959 . S
C456 H441 0.959 . S
C456 H442 0.961 . S
C456 C455 1.502 . S
C457 H443 0.960 . S
C457 H444 0.961 . S
C457 H445 0.959 . S
C457 C455 1.561 . S
C458 C455 1.526 . S
C458 C459 1.396 . S
C458 C463 1.390 . S
C459 C453 1.465 . S
C459 C458 1.396 . S
C459 C460 1.399 . S
C460 H446 0.929 . S
C460 C459 1.399 . S
C460 C461 1.385 . S
C461 H447 0.931 . S
C461 C460 1.385 . S
C461 C462 1.389 . S
C462 C461 1.389 . S
C462 C463 1.387 . S
C463 H448 0.930 . S
C463 C458 1.390 . S
C463 C462 1.387 . S
H464 C476 0.930 . S
H465 C478 0.930 . S
H466 C479 0.930 . S
H467 C483 0.959 . S
H468 C483 0.959 . S
H469 C483 0.961 . S
H470 C484 0.960 . S
H471 C484 0.961 . S
H472 C484 0.959 . S
H473 C487 0.929 . S
H474 C488 0.931 . S
H475 C490 0.930 . S
C476 H464 0.930 . S
C476 C477 1.399 . S
C476 C481 1.399 . S
C477 C476 1.399 . S
C477 C478 1.376 . S
C478 H465 0.930 . S
C478 C477 1.376 . S
C478 C479 1.388 . S
C479 H466 0.930 . S
C479 C478 1.388 . S
C479 C480 1.390 . S
C480 C479 1.390 . S
C480 C481 1.394 . S
C480 C486 1.465 . S
C481 C476 1.399 . S
C481 C480 1.394 . S
C481 C482 1.516 . S
C482 C481 1.516 . S
C482 C483 1.502 . S
C482 C484 1.561 . S
C482 C485 1.526 . S
C483 H467 0.959 . S
C483 H468 0.959 . S
C483 H469 0.961 . S
C483 C482 1.502 . S
C484 H470 0.960 . S
C484 H471 0.961 . S
C484 H472 0.959 . S
C484 C482 1.561 . S
C485 C482 1.526 . S
C485 C486 1.396 . S
C485 C490 1.390 . S
C486 C480 1.465 . S
C486 C485 1.396 . S
C486 C487 1.399 . S
C487 H473 0.929 . S
C487 C486 1.399 . S
C487 C488 1.385 . S
C488 H474 0.931 . S
C488 C487 1.385 . S
C488 C489 1.389 . S
C489 C488 1.389 . S
C489 C490 1.387 . S
C490 H475 0.930 . S
C490 C485 1.390 . S
C490 C489 1.387 . S
H491 C503 0.930 . S
H492 C505 0.930 . S
H493 C506 0.930 . S
H494 C510 0.959 1_556 S
H495 C510 0.959 . S
H496 C510 0.961 . S
H497 C511 0.960 . S
H498 C511 0.961 . S
H499 C511 0.959 . S
H500 C514 0.929 . S
H501 C515 0.931 . S
H502 C517 0.930 . S
C503 H491 0.930 . S
C503 C504 1.399 . S
C503 C508 1.399 . S
C504 C503 1.399 . S
C504 C505 1.376 . S
C505 H492 0.930 . S
C505 C504 1.376 . S
C505 C506 1.388 . S
C506 H493 0.930 . S
C506 C505 1.388 . S
C506 C507 1.390 . S
C507 C506 1.390 . S
C507 C508 1.394 . S
C507 C513 1.465 . S
C508 C503 1.399 . S
C508 C507 1.394 . S
C508 C509 1.516 . S
C509 C508 1.516 . S
C509 C510 1.502 1_556 S
C509 C511 1.561 1_556 S
C509 C512 1.526 . S
C510 H494 0.959 1_554 S
C510 H495 0.959 . S
C510 H496 0.961 . S
C510 C509 1.502 1_554 S
C511 H497 0.960 . S
C511 H498 0.961 . S
C511 H499 0.959 . S
C511 C509 1.561 1_554 S
C512 C509 1.526 . S
C512 C513 1.396 . S
C512 C517 1.390 1_556 S
C513 C507 1.465 . S
C513 C512 1.396 . S
C513 C514 1.399 . S
C514 H500 0.929 . S
C514 C513 1.399 . S
C514 C515 1.385 . S
C515 H501 0.931 . S
C515 C514 1.385 . S
C515 C516 1.389 . S
C516 C515 1.389 . S
C516 C517 1.387 1_556 S
C517 H502 0.930 . S
C517 C512 1.390 1_554 S
C517 C516 1.387 1_554 S
H518 C530 0.930 . S
H519 C532 0.930 . S
H520 C533 0.930 . S
H521 C537 0.959 1_455 S
H522 C537 0.959 . S
H523 C537 0.961 . S
H524 C538 0.960 . S
H525 C538 0.961 . S
H526 C538 0.959 . S
H527 C541 0.929 . S
H528 C542 0.931 . S
H529 C544 0.930 . S
C530 H518 0.930 . S
C530 C531 1.399 . S
C530 C535 1.399 . S
C531 C530 1.399 . S
C531 C532 1.376 . S
C532 H519 0.930 . S
C532 C531 1.376 . S
C532 C533 1.388 . S
C533 H520 0.930 . S
C533 C532 1.388 . S
C533 C534 1.390 . S
C534 C533 1.390 . S
C534 C535 1.394 . S
C534 C540 1.465 . S
C535 C530 1.399 . S
C535 C534 1.394 . S
C535 C536 1.516 . S
C536 C535 1.516 . S
C536 C537 1.502 . S
C536 C538 1.561 . S
C536 C539 1.526 . S
C537 H521 0.959 1_655 S
C537 H522 0.959 . S
C537 H523 0.961 . S
C537 C536 1.502 . S
C538 H524 0.960 . S
C538 H525 0.961 . S
C538 H526 0.959 . S
C538 C536 1.561 . S
C539 C536 1.526 . S
C539 C540 1.396 . S
C539 C544 1.390 . S
C540 C534 1.465 . S
C540 C539 1.396 . S
C540 C541 1.399 . S
C541 H527 0.929 . S
C541 C540 1.399 . S
C541 C542 1.385 . S
C542 H528 0.931 . S
C542 C541 1.385 . S
C542 C543 1.389 . S
C543 C542 1.389 . S
C543 C544 1.387 . S
C544 H529 0.930 . S
C544 C539 1.390 . S
C544 C543 1.387 . S
H545 C557 0.930 . S
H546 C559 0.930 . S
H547 C560 0.930 . S
H548 C564 0.959 . S
H549 C564 0.959 . S
H550 C564 0.961 . S
H551 C565 0.960 . S
H552 C565 0.961 . S
H553 C565 0.959 . S
H554 C568 0.929 . S
H555 C569 0.931 . S
H556 C571 0.930 . S
C557 H545 0.930 . S
C557 C558 1.399 . S
C557 C562 1.399 . S
C558 C557 1.399 . S
C558 C559 1.376 . S
C559 H546 0.930 . S
C559 C558 1.376 . S
C559 C560 1.388 . S
C560 H547 0.930 . S
C560 C559 1.388 . S
C560 C561 1.390 . S
C561 C560 1.390 . S
C561 C562 1.394 . S
C561 C567 1.465 . S
C562 C557 1.399 . S
C562 C561 1.394 . S
C562 C563 1.516 . S
C563 C562 1.516 . S
C563 C564 1.502 . S
C563 C565 1.561 . S
C563 C566 1.526 . S
C564 H548 0.959 . S
C564 H549 0.959 . S
C564 H550 0.961 . S
C564 C563 1.502 . S
C565 H551 0.960 . S
C565 H552 0.961 . S
C565 H553 0.959 . S
C565 C563 1.561 . S
C566 C563 1.526 . S
C566 C567 1.396 . S
C566 C571 1.390 . S
C567 C561 1.465 . S
C567 C566 1.396 . S
C567 C568 1.399 . S
C568 H554 0.929 . S
C568 C567 1.399 . S
C568 C569 1.385 . S
C569 H555 0.931 . S
C569 C568 1.385 . S
C569 C570 1.389 . S
C570 C569 1.389 . S
C570 C571 1.387 . S
C571 H556 0.930 . S
C571 C566 1.390 . S
C571 C570 1.387 . S
H572 C584 0.930 . S
H573 C586 0.930 . S
H574 C587 0.930 . S
H575 C591 0.959 . S
H576 C591 0.959 . S
H577 C591 0.961 . S
H578 C592 0.960 . S
H579 C592 0.961 . S
H580 C592 0.959 . S
H581 C595 0.929 . S
H582 C596 0.931 . S
H583 C598 0.930 . S
C584 H572 0.930 . S
C584 C585 1.399 . S
C584 C589 1.399 . S
C585 C584 1.399 . S
C585 C586 1.376 . S
C586 H573 0.930 . S
C586 C585 1.376 . S
C586 C587 1.388 . S
C587 H574 0.930 . S
C587 C586 1.388 . S
C587 C588 1.390 . S
C588 C587 1.390 . S
C588 C589 1.394 . S
C588 C594 1.465 . S
C589 C584 1.399 . S
C589 C588 1.394 . S
C589 C590 1.516 . S
C590 C589 1.516 . S
C590 C591 1.502 . S
C590 C592 1.561 . S
C590 C593 1.526 . S
C591 H575 0.959 . S
C591 H576 0.959 . S
C591 H577 0.961 . S
C591 C590 1.502 . S
C592 H578 0.960 . S
C592 H579 0.961 . S
C592 H580 0.959 . S
C592 C590 1.561 . S
C593 C590 1.526 . S
C593 C594 1.396 . S
C593 C598 1.390 . S
C594 C588 1.465 . S
C594 C593 1.396 . S
C594 C595 1.399 . S
C595 H581 0.929 . S
C595 C594 1.399 . S
C595 C596 1.385 . S
C596 H582 0.931 . S
C596 C595 1.385 . S
C596 C597 1.389 . S
C597 C596 1.389 . S
C597 C598 1.387 . S
C598 H583 0.930 . S
C598 C593 1.390 . S
C598 C597 1.387 . S
H599 C611 0.930 . S
H600 C613 0.930 . S
H601 C614 0.930 . S
H602 C618 0.959 . S
H603 C618 0.959 . S
H604 C618 0.961 . S
H605 C619 0.960 . S
H606 C619 0.961 . S
H607 C619 0.959 . S
H608 C622 0.929 . S
H609 C623 0.931 . S
H610 C625 0.930 . S
C611 H599 0.930 . S
C611 C612 1.399 . S
C611 C616 1.399 . S
C612 C611 1.399 . S
C612 C613 1.376 . S
C613 H600 0.930 . S
C613 C612 1.376 . S
C613 C614 1.388 . S
C614 H601 0.930 . S
C614 C613 1.388 . S
C614 C615 1.390 . S
C615 C614 1.390 . S
C615 C616 1.394 . S
C615 C621 1.465 . S
C616 C611 1.399 . S
C616 C615 1.394 . S
C616 C617 1.516 . S
C617 C616 1.516 . S
C617 C618 1.502 . S
C617 C619 1.561 . S
C617 C620 1.526 . S
C618 H602 0.959 . S
C618 H603 0.959 . S
C618 H604 0.961 . S
C618 C617 1.502 . S
C619 H605 0.960 . S
C619 H606 0.961 . S
C619 H607 0.959 . S
C619 C617 1.561 . S
C620 C617 1.526 . S
C620 C621 1.396 . S
C620 C625 1.390 . S
C621 C615 1.465 . S
C621 C620 1.396 . S
C621 C622 1.399 . S
C622 H608 0.929 . S
C622 C621 1.399 . S
C622 C623 1.385 . S
C623 H609 0.931 . S
C623 C622 1.385 . S
C623 C624 1.389 . S
C624 C623 1.389 . S
C624 C625 1.387 . S
C625 H610 0.930 . S
C625 C620 1.390 . S
C625 C624 1.387 . S
H626 C638 0.930 . S
H627 C640 0.930 . S
H628 C641 0.930 . S
H629 C645 0.959 . S
H630 C645 0.959 . S
H631 C645 0.961 . S
H632 C646 0.960 . S
H633 C646 0.961 . S
H634 C646 0.959 . S
H635 C649 0.929 . S
H636 C650 0.931 . S
H637 C652 0.930 . S
C638 H626 0.930 . S
C638 C639 1.399 . S
C638 C643 1.399 . S
C639 C638 1.399 . S
C639 C640 1.376 . S
C640 H627 0.930 . S
C640 C639 1.376 . S
C640 C641 1.388 . S
C641 H628 0.930 . S
C641 C640 1.388 . S
C641 C642 1.390 . S
C642 C641 1.390 . S
C642 C643 1.394 . S
C642 C648 1.465 . S
C643 C638 1.399 . S
C643 C642 1.394 . S
C643 C644 1.516 . S
C644 C643 1.516 . S
C644 C645 1.502 . S
C644 C646 1.561 . S
C644 C647 1.526 . S
C645 H629 0.959 . S
C645 H630 0.959 . S
C645 H631 0.961 . S
C645 C644 1.502 . S
C646 H632 0.960 . S
C646 H633 0.961 . S
C646 H634 0.959 . S
C646 C644 1.561 . S
C647 C644 1.526 . S
C647 C648 1.396 . S
C647 C652 1.390 . S
C648 C642 1.465 . S
C648 C647 1.396 . S
C648 C649 1.399 . S
C649 H635 0.929 . S
C649 C648 1.399 . S
C649 C650 1.385 . S
C650 H636 0.931 . S
C650 C649 1.385 . S
C650 C651 1.389 . S
C651 C650 1.389 . S
C651 C652 1.387 . S
C652 H637 0.930 . S
C652 C647 1.390 . S
C652 C651 1.387 . S
H653 C665 0.930 . S
H654 C667 0.930 . S
H655 C668 0.930 . S
H656 C672 0.959 . S
H657 C672 0.959 . S
H658 C672 0.961 . S
H659 C673 0.960 . S
H660 C673 0.961 . S
H661 C673 0.959 . S
H662 C676 0.929 . S
H663 C677 0.931 . S
H664 C679 0.930 . S
C665 H653 0.930 . S
C665 C666 1.399 . S
C665 C670 1.399 . S
C666 C665 1.399 . S
C666 C667 1.376 . S
C667 H654 0.930 . S
C667 C666 1.376 . S
C667 C668 1.388 . S
C668 H655 0.930 . S
C668 C667 1.388 . S
C668 C669 1.390 . S
C669 C668 1.390 . S
C669 C670 1.394 . S
C669 C675 1.465 . S
C670 C665 1.399 . S
C670 C669 1.394 . S
C670 C671 1.516 . S
C671 C670 1.516 . S
C671 C672 1.502 . S
C671 C673 1.561 . S
C671 C674 1.526 . S
C672 H656 0.959 . S
C672 H657 0.959 . S
C672 H658 0.961 . S
C672 C671 1.502 . S
C673 H659 0.960 . S
C673 H660 0.961 . S
C673 H661 0.959 . S
C673 C671 1.561 . S
C674 C671 1.526 . S
C674 C675 1.396 . S
C674 C679 1.390 . S
C675 C669 1.465 . S
C675 C674 1.396 . S
C675 C676 1.399 . S
C676 H662 0.929 . S
C676 C675 1.399 . S
C676 C677 1.385 . S
C677 H663 0.931 . S
C677 C676 1.385 . S
C677 C678 1.389 . S
C678 C677 1.389 . S
C678 C679 1.387 . S
C679 H664 0.930 . S
C679 C674 1.390 . S
C679 C678 1.387 . S
H680 C692 0.930 . S
H681 C694 0.930 . S
H682 C695 0.930 . S
H683 C699 0.957 1_554 S
H684 C699 0.940 1_554 S
H685 C699 0.962 . S
H686 C700 0.960 . S
H687 C700 0.961 . S
H688 C700 0.959 . S
H689 C703 0.929 . S
H690 C704 0.931 . S
H691 C706 0.930 1_554 S
C692 H680 0.930 . S
C692 C693 1.399 . S
C692 C697 1.399 . S
C693 C692 1.399 . S
C693 C694 1.376 . S
C694 H681 0.930 . S
C694 C693 1.376 . S
C694 C695 1.388 . S
C695 H682 0.930 . S
C695 C694 1.388 . S
C695 C696 1.390 . S
C696 C695 1.390 . S
C696 C697 1.394 . S
C696 C702 1.465 . S
C697 C692 1.399 . S
C697 C696 1.394 . S
C697 C698 1.516 . S
C698 C697 1.516 . S
C698 C699 1.524 . S
C698 C700 1.561 . S
C698 C701 1.526 . S
C699 H683 0.957 1_556 S
C699 H684 0.940 1_556 S
C699 H685 0.962 . S
C699 C698 1.524 . S
C700 H686 0.960 . S
C700 H687 0.961 . S
C700 H688 0.959 . S
C700 C698 1.561 . S
C701 C698 1.526 . S
C701 C702 1.396 . S
C701 C706 1.390 . S
C702 C696 1.465 . S
C702 C701 1.396 . S
C702 C703 1.399 . S
C703 H689 0.929 . S
C703 C702 1.399 . S
C703 C704 1.385 . S
C704 H690 0.931 . S
C704 C703 1.385 . S
C704 C705 1.389 . S
C705 C704 1.389 . S
C705 C706 1.387 . S
C706 H691 0.930 1_556 S
C706 C701 1.390 . S
C706 C705 1.387 . S
H707 C719 0.930 . S
H708 C721 0.930 . S
H709 C722 0.930 . S
H710 C726 0.959 1_455 S
H711 C726 0.959 . S
H712 C726 0.961 . S
H713 C727 0.960 . S
H714 C727 0.961 . S
H715 C727 0.959 . S
H716 C730 0.929 . S
H717 C731 0.931 . S
H718 C733 0.930 . S
C719 H707 0.930 . S
C719 C720 1.399 . S
C719 C724 1.399 . S
C720 C719 1.399 . S
C720 C721 1.376 . S
C721 H708 0.930 . S
C721 C720 1.376 . S
C721 C722 1.388 . S
C722 H709 0.930 . S
C722 C721 1.388 . S
C722 C723 1.390 . S
C723 C722 1.390 . S
C723 C724 1.394 . S
C723 C729 1.465 . S
C724 C719 1.399 . S
C724 C723 1.394 . S
C724 C725 1.516 . S
C725 C724 1.516 . S
C725 C726 1.502 . S
C725 C727 1.561 . S
C725 C728 1.526 . S
C726 H710 0.959 1_655 S
C726 H711 0.959 . S
C726 H712 0.961 . S
C726 C725 1.502 . S
C727 H713 0.960 . S
C727 H714 0.961 . S
C727 H715 0.959 . S
C727 C725 1.561 . S
C728 C725 1.526 . S
C728 C729 1.396 . S
C728 C733 1.390 . S
C729 C723 1.465 . S
C729 C728 1.396 . S
C729 C730 1.399 . S
C730 H716 0.929 . S
C730 C729 1.399 . S
C730 C731 1.385 . S
C731 H717 0.931 . S
C731 C730 1.385 . S
C731 C732 1.389 . S
C732 C731 1.389 . S
C732 C733 1.387 . S
C733 H718 0.930 . S
C733 C728 1.390 . S
C733 C732 1.387 . S
H734 C746 0.930 . S
H735 C748 0.930 . S
H736 C749 0.930 . S
H737 C753 0.959 . S
H738 C753 0.959 . S
H739 C753 0.961 . S
H740 C754 0.960 . S
H741 C754 0.961 . S
H742 C754 0.959 . S
H743 C757 0.929 . S
H744 C758 0.931 . S
H745 C760 0.930 . S
C746 H734 0.930 . S
C746 C747 1.399 . S
C746 C751 1.399 . S
C747 C746 1.399 . S
C747 C748 1.376 . S
C748 H735 0.930 . S
C748 C747 1.376 . S
C748 C749 1.388 . S
C749 H736 0.930 . S
C749 C748 1.388 . S
C749 C750 1.390 . S
C750 C749 1.390 . S
C750 C751 1.394 . S
C750 C756 1.465 . S
C751 C746 1.399 . S
C751 C750 1.394 . S
C751 C752 1.516 . S
C752 C751 1.516 . S
C752 C753 1.502 . S
C752 C754 1.561 . S
C752 C755 1.526 . S
C753 H737 0.959 . S
C753 H738 0.959 . S
C753 H739 0.961 . S
C753 C752 1.502 . S
C754 H740 0.960 . S
C754 H741 0.961 . S
C754 H742 0.959 . S
C754 C752 1.561 . S
C755 C752 1.526 . S
C755 C756 1.396 . S
C755 C760 1.390 . S
C756 C750 1.465 . S
C756 C755 1.396 . S
C756 C757 1.399 . S
C757 H743 0.929 . S
C757 C756 1.399 . S
C757 C758 1.385 . S
C758 H744 0.931 . S
C758 C757 1.385 . S
C758 C759 1.389 . S
C759 C758 1.389 . S
C759 C760 1.387 . S
C760 H745 0.930 . S
C760 C755 1.390 . S
C760 C759 1.387 . S
H761 C773 0.930 . S
H762 C775 0.930 . S
H763 C776 0.930 . S
H764 C780 0.959 . S
H765 C780 0.959 . S
H766 C780 0.961 . S
H767 C781 0.960 . S
H768 C781 0.961 . S
H769 C781 0.959 . S
H770 C784 0.929 . S
H771 C785 0.931 . S
H772 C787 0.930 . S
C773 H761 0.930 . S
C773 C774 1.399 . S
C773 C778 1.399 . S
C774 C773 1.399 . S
C774 C775 1.376 . S
C775 H762 0.930 . S
C775 C774 1.376 . S
C775 C776 1.388 . S
C776 H763 0.930 . S
C776 C775 1.388 . S
C776 C777 1.390 . S
C777 C776 1.390 . S
C777 C778 1.394 . S
C777 C783 1.465 . S
C778 C773 1.399 . S
C778 C777 1.394 . S
C778 C779 1.516 . S
C779 C778 1.516 . S
C779 C780 1.502 . S
C779 C781 1.561 . S
C779 C782 1.526 . S
C780 H764 0.959 . S
C780 H765 0.959 . S
C780 H766 0.961 . S
C780 C779 1.502 . S
C781 H767 0.960 . S
C781 H768 0.961 . S
C781 H769 0.959 . S
C781 C779 1.561 . S
C782 C779 1.526 . S
C782 C783 1.396 . S
C782 C787 1.390 . S
C783 C777 1.465 . S
C783 C782 1.396 . S
C783 C784 1.399 . S
C784 H770 0.929 . S
C784 C783 1.399 . S
C784 C785 1.385 . S
C785 H771 0.931 . S
C785 C784 1.385 . S
C785 C786 1.389 . S
C786 C785 1.389 . S
C786 C787 1.387 . S
C787 H772 0.930 . S
C787 C782 1.390 . S
C787 C786 1.387 . S
H788 C800 0.930 . S
H789 C802 0.930 . S
H790 C803 0.930 . S
H791 C807 0.959 . S
H792 C807 0.959 . S
H793 C807 0.961 . S
H794 C808 0.960 . S
H795 C808 0.961 . S
H796 C808 0.959 . S
H797 C811 0.929 . S
H798 C812 0.931 . S
H799 C814 0.930 . S
C800 H788 0.930 . S
C800 C801 1.399 . S
C800 C805 1.399 . S
C801 C800 1.399 . S
C801 C802 1.376 . S
C802 H789 0.930 . S
C802 C801 1.376 . S
C802 C803 1.388 . S
C803 H790 0.930 . S
C803 C802 1.388 . S
C803 C804 1.390 . S
C804 C803 1.390 . S
C804 C805 1.394 . S
C804 C810 1.465 . S
C805 C800 1.399 . S
C805 C804 1.394 . S
C805 C806 1.516 . S
C806 C805 1.516 . S
C806 C807 1.502 . S
C806 C808 1.561 . S
C806 C809 1.526 . S
C807 H791 0.959 . S
C807 H792 0.959 . S
C807 H793 0.961 . S
C807 C806 1.502 . S
C808 H794 0.960 . S
C808 H795 0.961 . S
C808 H796 0.959 . S
C808 C806 1.561 . S
C809 C806 1.526 . S
C809 C810 1.396 . S
C809 C814 1.390 . S
C810 C804 1.465 . S
C810 C809 1.396 . S
C810 C811 1.399 . S
C811 H797 0.929 . S
C811 C810 1.399 . S
C811 C812 1.385 . S
C812 H798 0.931 . S
C812 C811 1.385 . S
C812 C813 1.389 . S
C813 C812 1.389 . S
C813 C814 1.387 . S
C814 H799 0.930 . S
C814 C809 1.390 . S
C814 C813 1.387 . S
H815 C827 0.930 . S
H816 C829 0.930 . S
H817 C830 0.930 . S
H818 C834 0.959 . S
H819 C834 0.959 . S
H820 C834 0.961 . S
H821 C835 0.960 . S
H822 C835 0.961 . S
H823 C835 0.959 . S
H824 C838 0.929 . S
H825 C839 0.931 . S
H826 C841 0.930 . S
C827 H815 0.930 . S
C827 C828 1.399 . S
C827 C832 1.399 . S
C828 C827 1.399 . S
C828 C829 1.376 . S
C829 H816 0.930 . S
C829 C828 1.376 . S
C829 C830 1.388 . S
C830 H817 0.930 . S
C830 C829 1.388 . S
C830 C831 1.390 . S
C831 C830 1.390 . S
C831 C832 1.394 . S
C831 C837 1.465 . S
C832 C827 1.399 . S
C832 C831 1.394 . S
C832 C833 1.516 . S
C833 C832 1.516 . S
C833 C834 1.502 . S
C833 C835 1.561 . S
C833 C836 1.526 . S
C834 H818 0.959 . S
C834 H819 0.959 . S
C834 H820 0.961 . S
C834 C833 1.502 . S
C835 H821 0.960 . S
C835 H822 0.961 . S
C835 H823 0.959 . S
C835 C833 1.561 . S
C836 C833 1.526 . S
C836 C837 1.396 . S
C836 C841 1.390 . S
C837 C831 1.465 . S
C837 C836 1.396 . S
C837 C838 1.399 . S
C838 H824 0.929 . S
C838 C837 1.399 . S
C838 C839 1.385 . S
C839 H825 0.931 . S
C839 C838 1.385 . S
C839 C840 1.389 . S
C840 C839 1.389 . S
C840 C841 1.387 . S
C841 H826 0.930 . S
C841 C836 1.390 . S
C841 C840 1.387 . S
H842 C854 0.930 . S
H843 C856 0.930 . S
H844 C857 0.930 . S
H845 C861 0.959 . S
H846 C861 0.959 . S
H847 C861 0.961 . S
H848 C862 0.960 . S
H849 C862 0.961 . S
H850 C862 0.959 . S
H851 C865 0.929 . S
H852 C866 0.931 . S
H853 C868 0.930 . S
C854 H842 0.930 . S
C854 C855 1.399 . S
C854 C859 1.399 . S
C855 C854 1.399 . S
C855 C856 1.376 . S
C856 H843 0.930 . S
C856 C855 1.376 . S
C856 C857 1.388 . S
C857 H844 0.930 . S
C857 C856 1.388 . S
C857 C858 1.390 . S
C858 C857 1.390 . S
C858 C859 1.394 . S
C858 C864 1.465 . S
C859 C854 1.399 . S
C859 C858 1.394 . S
C859 C860 1.516 . S
C860 C859 1.516 . S
C860 C861 1.502 . S
C860 C862 1.561 . S
C860 C863 1.526 . S
C861 H845 0.959 . S
C861 H846 0.959 . S
C861 H847 0.961 . S
C861 C860 1.502 . S
C862 H848 0.960 . S
C862 H849 0.961 . S
C862 H850 0.959 . S
C862 C860 1.561 . S
C863 C860 1.526 . S
C863 C864 1.396 . S
C863 C868 1.390 . S
C864 C858 1.465 . S
C864 C863 1.396 . S
C864 C865 1.399 . S
C865 H851 0.929 . S
C865 C864 1.399 . S
C865 C866 1.385 . S
C866 H852 0.931 . S
C866 C865 1.385 . S
C866 C867 1.389 . S
C867 C866 1.389 . S
C867 C868 1.387 . S
C868 H853 0.930 . S
C868 C863 1.390 . S
C868 C867 1.387 . S
H869 C881 0.930 . S
H870 C883 0.930 . S
H871 C884 0.930 . S
H872 C888 0.959 . S
H873 C888 0.959 . S
H874 C888 0.961 . S
H875 C889 0.960 . S
H876 C889 0.961 . S
H877 C889 0.959 . S
H878 C892 0.929 . S
H879 C893 0.931 . S
H880 C895 0.930 . S
C881 H869 0.930 . S
C881 C882 1.399 . S
C881 C886 1.399 . S
C882 C881 1.399 . S
C882 C883 1.376 . S
C883 H870 0.930 . S
C883 C882 1.376 . S
C883 C884 1.388 . S
C884 H871 0.930 . S
C884 C883 1.388 . S
C884 C885 1.390 . S
C885 C884 1.390 . S
C885 C886 1.394 . S
C885 C891 1.465 . S
C886 C881 1.399 . S
C886 C885 1.394 . S
C886 C887 1.516 . S
C887 C886 1.516 . S
C887 C888 1.502 . S
C887 C889 1.561 . S
C887 C890 1.526 . S
C888 H872 0.959 . S
C888 H873 0.959 . S
C888 H874 0.961 . S
C888 C887 1.502 . S
C889 H875 0.960 . S
C889 H876 0.961 . S
C889 H877 0.959 . S
C889 C887 1.561 . S
C890 C887 1.526 . S
C890 C891 1.396 . S
C890 C895 1.390 . S
C891 C885 1.465 . S
C891 C890 1.396 . S
C891 C892 1.399 . S
C892 H878 0.929 . S
C892 C891 1.399 . S
C892 C893 1.385 . S
C893 H879 0.931 . S
C893 C892 1.385 . S
C893 C894 1.389 . S
C894 C893 1.389 . S
C894 C895 1.387 . S
C895 H880 0.930 . S
C895 C890 1.390 . S
C895 C894 1.387 . S
C261 C5 1.053 . S
C273 C105 1.156 . S
C288 C18 1.090 . S
C300 C145 1.110 . S
C327 C170 2.260 . S
C315 C30 2.266 . S
C342 C41 2.164 . S
C354 C210 2.125 . S
C381 C141 1.775 . S
C369 C7 1.579 . S
C408 C101 1.825 . S
C396 C16 1.793 . S
C435 C232 1.743 . S
C423 C29 1.726 . S
C462 C192 1.271 . S
C450 C38 1.170 . S
C477 C8 1.255 . S
C489 C234 1.294 . S
C516 C151 2.334 1_556 S
C504 C27 2.126 . S
C531 C40 2.283 . S
C543 C111 2.259 . S
C558 C19 1.172 . S
C570 C194 1.253 . S
C597 C114 1.189 . S
C585 C51 0.936 . S
C612 C62 1.430 . S
C624 C154 1.403 . S
C639 C74 2.392 . S
C651 C191 2.350 . S
C666 C84 2.150 . S
C678 C231 2.187 . S
C693 C49 1.600 . S
C705 C152 2.073 1_556 S
C732 C112 1.822 . S
C720 C63 1.781 . S
C759 C221 1.580 . S
C747 C71 1.451 . S
C786 C181 1.446 . S
C774 C85 1.495 . S
C801 C52 1.333 . S
C813 C225 1.347 . S
C840 C130 2.449 . S
C828 C73 2.429 . S
C867 C90 1.820 . S
C855 C82 1.679 . S
C882 C60 1.299 . S
C894 C185 1.307 . S
