# Generated by pormake.
# Topology zzz, (3,6)-cn, num edge types: 1
# Building blocks:
#     Node 0, Type 0, BuildingBlock: OLANEW_clean_sbu_2, # of connection points: 3
#     Node 1, Type 0, BuildingBlock: OLANEW_clean_sbu_2, # of connection points: 3
#     Node 2, Type 0, BuildingBlock: OLANEW_clean_sbu_2, # of connection points: 3
#     Node 3, Type 0, BuildingBlock: OLANEW_clean_sbu_2, # of connection points: 3
#     Node 4, Type 0, BuildingBlock: OLANEW_clean_sbu_2, # of connection points: 3
#     Node 5, Type 0, BuildingBlock: OLANEW_clean_sbu_2, # of connection points: 3
#     Node 6, Type 0, BuildingBlock: OLANEW_clean_sbu_2, # of connection points: 3
#     Node 7, Type 0, BuildingBlock: OLANEW_clean_sbu_2, # of connection points: 3
#     Node 8, Type 1, BuildingBlock: GEDQOX_clean_sbu_0, # of connection points: 6
#     Node 9, Type 1, BuildingBlock: GEDQOX_clean_sbu_0, # of connection points: 6
#     Node 10, Type 1, BuildingBlock: GEDQOX_clean_sbu_0, # of connection points: 6
#     Node 11, Type 1, BuildingBlock: GEDQOX_clean_sbu_0, # of connection points: 6
#     Edge 12, Type (0, 1), None
#     Edge 13, Type (0, 1), None
#     Edge 14, Type (0, 1), None
#     Edge 15, Type (0, 1), None
#     Edge 16, Type (0, 1), None
#     Edge 17, Type (0, 1), None
#     Edge 18, Type (0, 1), None
#     Edge 19, Type (0, 1), None
#     Edge 20, Type (0, 1), None
#     Edge 21, Type (0, 1), None
#     Edge 22, Type (0, 1), None
#     Edge 23, Type (0, 1), None
#     Edge 24, Type (0, 1), None
#     Edge 25, Type (0, 1), None
#     Edge 26, Type (0, 1), None
#     Edge 27, Type (0, 1), None
#     Edge 28, Type (0, 1), None
#     Edge 29, Type (0, 1), None
#     Edge 30, Type (0, 1), None
#     Edge 31, Type (0, 1), None
#     Edge 32, Type (0, 1), None
#     Edge 33, Type (0, 1), None
#     Edge 34, Type (0, 1), None
#     Edge 35, Type (0, 1), None
# Relax obj value: 0.183
# Max RMSD: 0.323
# Mean RMSD: 0.093
data_MOF--net-zzz--node1-OLANEW_clean_sbu_2--node2-GEDQOX_clean_sbu_0--edge1-none
_symmetry_space_group_name_H-M    P1
_symmetry_Int_Tables_number       1
_symmetry_cell_setting            triclinic
loop_
_symmetry_equiv_pos_as_xyz
'x, y, z'
_cell_length_a     26.756845
_cell_length_b     27.059298
_cell_length_c     12.223242
_cell_angle_alpha  70.69373
_cell_angle_beta   89.111172
_cell_angle_gamma 106.80282
loop_
_atom_site_label
_atom_site_type_symbol
_atom_site_fract_x
_atom_site_fract_y
_atom_site_fract_z
_atom_type_partial_charge
O0 O 0.87456 0.52259 0.81922 0.0
Cd1 Cd 0.77943 0.51098 0.78266 0.0
O2 O 0.86382 0.54298 0.97445 0.0
Cd3 Cd 0.89195 0.57494 0.11017 0.0
O4 O 0.93491 0.61709 0.21887 0.0
C5 C 0.94673 0.58584 0.31008 0.0
O6 O 0.93039 0.53235 0.33396 0.0
C7 C 0.89329 0.53357 0.9065 0.0
C8 C 0.70249 0.53993 0.89009 0.0
O9 O 0.72291 0.56826 0.78418 0.0
O10 O 0.72004 0.50059 0.94662 0.0
O11 O 0.06319 0.87636 0.89153 0.0
Cd12 Cd 0.05312 0.79414 0.83286 0.0
O13 O 0.05513 0.8456 0.08359 0.0
Cd14 Cd 0.04617 0.85673 0.25009 0.0
O15 O 0.04079 0.89304 0.38185 0.0
C16 C 1.00004 0.90605 0.39805 0.0
O17 O 0.96002 0.89341 0.34063 0.0
C18 C 0.06158 0.88523 -0.01258 0.0
C19 C 0.05856 0.68911 0.96334 0.0
O20 O 0.09828 0.72507 0.89244 0.0
O21 O 1.01825 0.70374 -0.02133 0.0
O22 O 0.75616 0.03637 0.96683 0.0
Cd23 Cd 0.8193 0.98268 0.00064 0.0
O24 O 0.76792 0.10675 0.02766 0.0
Cd25 Cd 0.80874 0.06958 0.16913 0.0
O26 O 0.7594 0.0286 0.33904 0.0
C27 C 0.7126 0.03097 0.33344 0.0
O28 O 0.69956 0.05603 0.23164 0.0
C29 C 0.74288 0.07716 0.97235 0.0
C30 C 0.92498 0.01403 0.03753 0.0
O31 O 0.88897 0.98275 0.12267 0.0
O32 O 0.91111 0.03391 0.93645 0.0
O33 O 0.6007 0.81171 0.424 0.0
Cd34 Cd 0.57984 0.88709 0.45837 0.0
O35 O 0.51675 0.76971 0.43288 0.0
Cd36 Cd 0.50762 0.80065 0.57242 0.0
O37 O 0.53043 0.73037 0.68217 0.0
C38 C 0.55788 0.72655 0.76663 0.0
O39 O 0.57445 0.76797 0.80426 0.0
C40 C 0.56427 0.77506 0.4036 0.0
C41 C 0.55815 0.95342 0.2472 0.0
O42 O 0.60452 0.95087 0.26413 0.0
O43 O 0.52075 0.9245 0.33049 0.0
O44 O 0.24888 0.58314 0.0817 0.0
Cd45 Cd 0.32784 0.55665 0.15954 0.0
O46 O 0.24075 0.5269 -0.01497 0.0
Cd47 Cd 0.20081 0.47843 0.88317 0.0
O48 O 0.16129 0.44888 0.75239 0.0
C49 C 0.1696 0.48436 0.65023 0.0
O50 O 0.20371 0.53333 0.63015 0.0
C51 C 0.22275 0.55912 0.01746 0.0
C52 C 0.41789 0.55706 0.03367 0.0
O53 O 0.42219 0.59007 0.09022 0.0
O54 O 0.37164 0.5266 0.03083 0.0
O55 O 0.06905 0.22887 0.01674 0.0
Cd56 Cd 0.0602 0.30149 0.0931 0.0
O57 O 0.08253 0.26278 0.82412 0.0
Cd58 Cd 0.09828 0.25335 0.6574 0.0
O59 O 0.10487 0.21725 0.52473 0.0
C60 C 0.14602 0.20528 0.50612 0.0
O61 O 0.18648 0.21867 0.56185 0.0
C62 C 0.07707 0.22288 0.91947 0.0
C63 C 0.05887 0.40845 0.96512 0.0
O64 O 1.01578 0.3706 0.01648 0.0
O65 O 0.10121 0.39516 0.96912 0.0
O66 O 0.39984 0.09418 0.92348 0.0
Cd67 Cd 0.32804 0.13734 0.90014 0.0
O68 O 0.39668 0.03434 0.83494 0.0
Cd69 Cd 0.35473 0.07294 0.69781 0.0
O70 O 0.40241 0.11364 0.52581 0.0
C71 C 0.45175 0.12388 0.53033 0.0
O72 O 0.46877 0.11269 0.63317 0.0
C73 C 0.41751 0.05862 0.90343 0.0
C74 C 0.2226 0.09974 0.86366 0.0
O75 O 0.23724 0.07981 0.96388 0.0
O76 O 0.25793 0.13372 0.77924 0.0
O77 O 0.62766 0.35932 0.45881 0.0
Cd78 Cd 0.62891 0.2787 0.41654 0.0
O79 O 0.54226 0.31932 0.48374 0.0
Cd80 Cd 0.54622 0.2947 0.33146 0.0
O81 O 0.54872 0.36414 0.17242 0.0
C82 C 0.52846 0.39784 0.19276 0.0
O83 O 0.50531 0.38552 0.298 0.0
C84 C 0.58188 0.35501 0.49865 0.0
C85 C 0.62266 0.19458 0.62813 0.0
O86 O 0.66587 0.21883 0.55942 0.0
O87 O 0.5824 0.20975 0.59732 0.0
Nd88 Nd 0.06146 0.06736 0.82503 0.0
Nd89 Nd 0.08568 0.04361 0.07753 0.0
C90 C 1.01425 0.05746 0.64218 0.0
C91 C 1.0103 0.01887 0.57988 0.0
C92 C 0.96961 1.00994 0.51114 0.0
C93 C 0.96501 0.97168 0.455 0.0
C94 C 1.00121 0.94203 0.46685 0.0
C95 C 0.0415 0.9507 0.53733 0.0
C96 C 0.04596 0.98875 0.59344 0.0
C97 C 0.16649 0.08737 0.84725 0.0
C98 C 0.06472 0.94139 -0.01615 0.0
C99 C 0.13311 0.05456 0.25961 0.0
C100 C 0.13671 0.09315 0.32209 0.0
C101 C 0.17788 0.10302 0.38924 0.0
C102 C 0.18211 0.14104 0.44594 0.0
C103 C 0.14507 0.16962 0.43636 0.0
C104 C 0.1043 0.16009 0.36737 0.0
C105 C 0.10021 0.12224 0.31067 0.0
C106 C 0.98084 0.02427 0.05428 0.0
C107 C 0.07909 0.16869 0.92025 0.0
O108 O 0.98991 0.03545 0.74872 0.0
O109 O 0.06121 0.09174 0.63413 0.0
O110 O 0.14861 0.11592 0.75807 0.0
O111 O 0.12978 0.0476 0.91587 0.0
O112 O 0.05166 0.97398 0.88941 0.0
O113 O 0.08318 0.95905 0.0686 0.0
O114 O 0.15719 0.07665 0.15279 0.0
O115 O 0.08644 0.01959 0.26843 0.0
O116 O 0.99817 0.99556 0.14433 0.0
O117 O 1.0179 0.06368 -0.01345 0.0
O118 O 0.09287 0.13663 0.01453 0.0
O119 O 0.06152 0.15083 0.8353 0.0
H120 H 0.94156 0.03262 0.50067 0.0
H121 H 0.9339 0.96633 0.40025 0.0
H122 H 0.07008 0.92866 0.54786 0.0
H123 H 0.07741 0.99483 0.64712 0.0
H124 H 0.20659 0.08118 0.39815 0.0
H125 H 0.21363 0.14703 0.49943 0.0
H126 H 0.07505 0.18125 0.35857 0.0
H127 H 0.06835 0.11547 0.25829 0.0
Nd128 Nd 0.57818 0.03564 0.86568 0.0
Nd129 Nd 0.58355 0.1048 0.00354 0.0
C130 C 0.56806 0.96928 0.74509 0.0
C131 C 0.60144 0.97621 0.63983 0.0
C132 C 0.6493 0.96405 0.64879 0.0
C133 C 0.68513 0.98039 0.54909 0.0
C134 C 0.67373 1.00917 0.43882 0.0
C135 C 0.62483 0.01889 0.42961 0.0
C136 C 0.58894 1.00211 0.52855 0.0
C137 C 0.61756 0.14591 0.7314 0.0
C138 C 0.69061 0.08014 0.94141 0.0
C139 C 0.59346 0.17255 0.12131 0.0
C140 C 0.55956 0.16854 0.22303 0.0
C141 C 0.50888 0.17396 0.21231 0.0
C142 C 0.47414 0.16114 0.3118 0.0
C143 C 0.48938 0.14263 0.42377 0.0
C144 C 0.54067 0.13923 0.43395 0.0
C145 C 0.57547 0.15252 0.33486 0.0
C146 C 0.55069 0.99421 0.14047 0.0
C147 C 0.47034 0.05721 0.9334 0.0
O148 O 0.58895 0.96099 0.84295 0.0
O149 O 0.54169 1.00431 0.73059 0.0
O150 O 0.63748 0.10879 0.72463 0.0
O151 O 0.5787 0.12491 0.80972 0.0
O152 O 0.65929 0.03813 0.91951 0.0
O153 O 0.67224 0.11809 0.95701 0.0
O154 O 0.57431 0.18096 0.02139 0.0
O155 O 0.61789 0.13566 0.14132 0.0
O156 O 0.52789 0.02913 0.14878 0.0
O157 O 0.58691 0.01739 0.05651 0.0
O158 O 0.50081 0.09921 0.9566 0.0
O159 O 0.4897 0.02045 0.91563 0.0
H160 H 0.66008 0.94389 0.73318 0.0
H161 H 0.72227 0.97187 0.55884 0.0
H162 H 0.6146 0.04086 0.34605 0.0
H163 H 0.55236 0.01184 0.5182 0.0
H164 H 0.49524 0.18615 0.12745 0.0
H165 H 0.43495 0.16434 0.3011 0.0
H166 H 0.5534 0.12405 0.51884 0.0
H167 H 0.6141 0.14773 0.34617 0.0
Nd168 Nd 0.58979 0.58199 0.0585 0.0
Nd169 Nd 0.54985 0.54642 0.85603 0.0
C170 C 0.61682 0.62275 0.22469 0.0
C171 C 0.60264 0.66125 0.27002 0.0
C172 C 0.55097 0.66372 0.27379 0.0
C173 C 0.53835 0.70101 0.31665 0.0
C174 C 0.57741 0.73678 0.35468 0.0
C175 C 0.62922 0.73457 0.34916 0.0
C176 C 0.64164 0.69691 0.30753 0.0
C177 C 0.66075 0.55215 0.94766 0.0
C178 C 0.56672 0.67362 0.82691 0.0
C179 C 0.54549 0.51747 0.66953 0.0
C180 C 0.55643 0.47558 0.6295 0.0
C181 C 0.60794 0.47548 0.60561 0.0
C182 C 0.61647 0.43534 0.56585 0.0
C183 C 0.57364 0.39472 0.54996 0.0
C184 C 0.52229 0.39465 0.57564 0.0
C185 C 0.51385 0.43487 0.61409 0.0
C186 C 0.46416 0.55411 0.97176 0.0
C187 C 0.53913 0.45398 0.10945 0.0
O188 O 0.58036 0.57561 0.24281 0.0
O189 O 0.64279 0.64435 0.11968 0.0
O190 O 0.65191 0.53811 0.05954 0.0
O191 O 0.63247 0.58101 0.89718 0.0
O192 O 0.5769 0.66163 0.93629 0.0
O193 O 0.55948 0.63796 0.77221 0.0
O194 O 0.58527 0.55631 0.68143 0.0
O195 O 0.50651 0.49892 0.75301 0.0
O196 O 0.46175 0.53812 0.88283 0.0
O197 O 0.51038 0.56366 -0.0006 0.0
O198 O 0.55209 0.46575 -0.00297 0.0
O199 O 0.53977 0.49289 0.15206 0.0
H200 H 0.5204 0.63685 0.24377 0.0
H201 H 0.49815 0.70192 0.31971 0.0
H202 H 0.66012 0.76142 0.37843 0.0
H203 H 0.68174 0.69563 0.30454 0.0
H204 H 0.64155 0.50648 0.61665 0.0
H205 H 0.65651 0.43658 0.54615 0.0
H206 H 0.48841 0.36425 0.56355 0.0
H207 H 0.47378 0.43431 0.63114 0.0
Nd208 Nd 0.0776 0.57823 0.83737 0.0
Nd209 Nd 0.04034 0.51965 0.08846 0.0
C210 C 0.09231 0.64184 0.61621 0.0
C211 C 0.05852 0.63946 0.52305 0.0
C212 C 1.00801 0.64509 0.53158 0.0
C213 C 0.97199 0.6302 0.45767 0.0
C214 C 0.98603 0.60921 0.37568 0.0
C215 C 0.0373 0.60703 0.36189 0.0
C216 C 0.0735 0.62255 0.43433 0.0
C217 C 0.06092 0.46634 0.90791 0.0
C218 C 0.94855 0.53631 0.92753 0.0
C219 C 1.02992 0.45525 0.30886 0.0
C220 C 0.06685 0.4599 0.39484 0.0
C221 C 0.05923 0.418 0.50376 0.0
C222 C 0.09385 0.42485 0.58621 0.0
C223 C 0.13634 0.47377 0.56021 0.0
C224 C 0.14456 0.51468 0.44932 0.0
C225 C 0.11015 0.50778 0.36753 0.0
C226 C 0.05693 0.63128 0.01932 0.0
C227 C 0.16888 0.56141 -0.00347 0.0
O228 O 0.07577 0.65537 0.70032 0.0
O229 O 0.11095 0.60041 0.65483 0.0
O230 O 0.10055 0.50304 0.83566 0.0
O231 O 1.03057 0.48877 0.93862 0.0
O232 O 0.98752 0.56772 0.84272 0.0
O233 O 0.95779 0.50681 0.03058 0.0
O234 O 0.04597 0.44311 0.22238 0.0
O235 O 1.00968 0.49547 0.27364 0.0
O236 O 1.01795 0.5946 0.09345 0.0
O237 O 0.08721 0.60904 -0.01256 0.0
O238 O 0.12947 0.52759 0.07774 0.0
O239 O 0.16018 0.59323 0.89582 0.0
H240 H 0.99528 0.65808 0.59908 0.0
H241 H 0.9325 0.63237 0.46856 0.0
H242 H 0.04896 0.59169 0.29773 0.0
H243 H 0.11221 0.61816 0.42565 0.0
H244 H 1.02616 0.38063 0.52569 0.0
H245 H 0.08653 0.39256 0.67108 0.0
H246 H 0.17684 0.55276 0.42643 0.0
H247 H 0.11666 0.54057 0.28359 0.0
loop_
_geom_bond_atom_site_label_1
_geom_bond_atom_site_label_2
_geom_bond_distance
_geom_bond_site_symmetry_2
_ccdc_geom_bond_type
O0 Cd1 2.300 . S
O0 C7 1.275 . S
Cd1 O0 2.300 . S
Cd1 O9 2.381 . S
Cd1 O10 2.378 . S
O2 Cd3 2.385 1_556 S
O2 C7 1.255 . S
Cd3 O2 2.385 1_554 S
Cd3 O4 2.317 . S
O4 Cd3 2.317 . S
O4 C5 1.232 . S
C5 O4 1.232 . S
C5 O6 1.218 . S
O6 C5 1.218 . S
C7 O0 1.275 . S
C7 O2 1.255 . S
C8 O9 1.258 . S
C8 O10 1.256 . S
O9 Cd1 2.381 . S
O9 C8 1.258 . S
O10 Cd1 2.378 . S
O10 C8 1.256 . S
O11 Cd12 2.300 1_656 S
O11 C18 1.275 . S
Cd12 O11 2.300 1_454 S
Cd12 O20 2.381 1_454 S
Cd12 O21 2.378 . S
O13 Cd14 2.385 . S
O13 C18 1.255 1_454 S
Cd14 O13 2.385 . S
Cd14 O15 2.317 . S
O15 Cd14 2.317 . S
O15 C16 1.232 1_455 S
C16 O15 1.232 1_655 S
C16 O17 1.218 1_655 S
O17 C16 1.218 1_455 S
C18 O11 1.275 . S
C18 O13 1.255 1_656 S
C19 O20 1.258 1_554 S
C19 O21 1.256 1_655 S
O20 Cd12 2.381 1_656 S
O20 C19 1.258 1_556 S
O21 Cd12 2.378 . S
O21 C19 1.256 1_455 S
O22 Cd23 2.300 1_565 S
O22 C29 1.275 . S
Cd23 O22 2.300 1_545 S
Cd23 O31 2.381 1_545 S
Cd23 O32 2.378 . S
O24 Cd25 2.385 1_556 S
O24 C29 1.255 1_545 S
Cd25 O24 2.385 1_554 S
Cd25 O26 2.317 . S
O26 Cd25 2.317 . S
O26 C27 1.232 . S
C27 O26 1.232 . S
C27 O28 1.218 . S
O28 C27 1.218 . S
C29 O22 1.275 . S
C29 O24 1.255 1_565 S
C30 O31 1.258 . S
C30 O32 1.256 1_565 S
O31 Cd23 2.381 1_565 S
O31 C30 1.258 . S
O32 Cd23 2.378 . S
O32 C30 1.256 1_545 S
O33 Cd34 2.300 . S
O33 C40 1.275 . S
Cd34 O33 2.300 . S
Cd34 O42 2.381 . S
Cd34 O43 2.378 . S
O35 Cd36 2.385 . S
O35 C40 1.255 . S
Cd36 O35 2.385 . S
Cd36 O37 2.317 . S
O37 Cd36 2.317 . S
O37 C38 1.232 . S
C38 O37 1.232 . S
C38 O39 1.218 . S
O39 C38 1.218 . S
C40 O33 1.275 . S
C40 O35 1.255 . S
C41 O42 1.258 . S
C41 O43 1.256 . S
O42 Cd34 2.381 . S
O42 C41 1.258 . S
O43 Cd34 2.378 . S
O43 C41 1.256 . S
O44 Cd45 2.300 . S
O44 C51 1.275 . S
Cd45 O44 2.300 . S
Cd45 O53 2.381 . S
Cd45 O54 2.378 . S
O46 Cd47 2.385 1_554 S
O46 C51 1.255 . S
Cd47 O46 2.385 1_556 S
Cd47 O48 2.317 . S
O48 Cd47 2.317 . S
O48 C49 1.232 . S
C49 O48 1.232 . S
C49 O50 1.218 . S
O50 C49 1.218 . S
C51 O44 1.275 . S
C51 O46 1.255 . S
C52 O53 1.258 . S
C52 O54 1.256 . S
O53 Cd45 2.381 . S
O53 C52 1.258 . S
O54 Cd45 2.378 . S
O54 C52 1.256 . S
O55 Cd56 2.300 1_554 S
O55 C62 1.275 . S
Cd56 O55 2.300 1_556 S
Cd56 O64 2.381 . S
Cd56 O65 2.378 . S
O57 Cd58 2.385 . S
O57 C62 1.255 1_556 S
Cd58 O57 2.385 . S
Cd58 O59 2.317 . S
O59 Cd58 2.317 . S
O59 C60 1.232 . S
C60 O59 1.232 . S
C60 O61 1.218 . S
O61 C60 1.218 . S
C62 O55 1.275 . S
C62 O57 1.255 1_554 S
C63 O64 1.258 . S
C63 O65 1.256 . S
O64 Cd56 2.381 . S
O64 C63 1.258 . S
O65 Cd56 2.378 . S
O65 C63 1.256 . S
O66 Cd67 2.300 1_554 S
O66 C73 1.275 . S
Cd67 O66 2.300 1_556 S
Cd67 O75 2.381 1_556 S
Cd67 O76 2.378 . S
O68 Cd69 2.385 . S
O68 C73 1.255 1_556 S
Cd69 O68 2.385 . S
Cd69 O70 2.317 . S
O70 Cd69 2.317 . S
O70 C71 1.232 . S
C71 O70 1.232 . S
C71 O72 1.218 . S
O72 C71 1.218 . S
C73 O66 1.275 . S
C73 O68 1.255 1_554 S
C74 O75 1.258 . S
C74 O76 1.256 1_554 S
O75 Cd67 2.381 1_554 S
O75 C74 1.258 . S
O76 Cd67 2.378 . S
O76 C74 1.256 1_556 S
O77 Cd78 2.300 . S
O77 C84 1.275 . S
Cd78 O77 2.300 . S
Cd78 O86 2.381 . S
Cd78 O87 2.378 . S
O79 Cd80 2.385 . S
O79 C84 1.255 . S
Cd80 O79 2.385 . S
Cd80 O81 2.317 . S
O81 Cd80 2.317 . S
O81 C82 1.232 . S
C82 O81 1.232 . S
C82 O83 1.218 . S
O83 C82 1.218 . S
C84 O77 1.275 . S
C84 O79 1.255 . S
C85 O86 1.258 . S
C85 O87 1.256 . S
O86 Cd78 2.381 . S
O86 C85 1.258 . S
O87 Cd78 2.378 . S
O87 C85 1.256 . S
Nd88 C90 2.836 1_545 S
Nd88 O108 2.500 1_445 S
Nd88 O109 2.492 . S
Nd88 O110 2.487 . S
Nd88 O111 2.682 . S
Nd88 O112 2.410 1_545 S
Nd88 O117 2.414 1_455 S
Nd88 O119 2.424 . S
Nd89 C99 2.836 . S
Nd89 O111 2.414 1_554 S
Nd89 O113 2.424 1_545 S
Nd89 O114 2.500 . S
Nd89 O115 2.492 . S
Nd89 O116 2.487 1_455 S
Nd89 O117 2.682 1_454 S
Nd89 O118 2.410 . S
C90 Nd88 2.836 1_565 S
C90 C91 1.498 . S
C90 O108 1.258 1_455 S
C90 O109 1.239 1_565 S
C91 C90 1.498 . S
C91 C92 1.366 1_455 S
C91 C96 1.407 . S
C92 C91 1.366 1_655 S
C92 C93 1.392 . S
C92 H120 0.930 . S
C93 C92 1.392 . S
C93 C94 1.398 . S
C93 H121 0.929 . S
C94 C93 1.398 . S
C94 C95 1.352 1_655 S
C95 C94 1.352 1_455 S
C95 C96 1.384 . S
C95 H122 0.930 . S
C96 C91 1.407 . S
C96 C95 1.384 . S
C96 H123 0.929 . S
C97 O110 1.241 . S
C97 O111 1.273 . S
C98 O112 1.251 1_554 S
C98 O113 1.268 . S
C99 Nd89 2.836 . S
C99 C100 1.498 . S
C99 O114 1.258 . S
C99 O115 1.239 . S
C100 C99 1.498 . S
C100 C101 1.366 . S
C100 C105 1.407 . S
C101 C100 1.366 . S
C101 C102 1.392 . S
C101 H124 0.930 . S
C102 C101 1.392 . S
C102 C103 1.398 . S
C102 H125 0.929 . S
C103 C102 1.398 . S
C103 C104 1.352 . S
C104 C103 1.352 . S
C104 C105 1.384 . S
C104 H126 0.930 . S
C105 C100 1.407 . S
C105 C104 1.384 . S
C105 H127 0.929 1_455 S
C106 O116 1.241 . S
C106 O117 1.273 1_554 S
C107 O118 1.251 1_556 S
C107 O119 1.268 . S
O108 Nd88 2.500 1_665 S
O108 C90 1.258 1_655 S
O109 Nd88 2.492 . S
O109 C90 1.239 1_545 S
O110 Nd88 2.487 . S
O110 C97 1.241 . S
O111 Nd88 2.682 . S
O111 Nd89 2.414 1_556 S
O111 C97 1.273 . S
O112 Nd88 2.410 1_565 S
O112 C98 1.251 1_556 S
O113 Nd89 2.424 1_565 S
O113 C98 1.268 . S
O114 Nd89 2.500 . S
O114 C99 1.258 . S
O115 Nd89 2.492 . S
O115 C99 1.239 . S
O116 Nd89 2.487 1_655 S
O116 C106 1.241 . S
O117 Nd88 2.414 1_655 S
O117 Nd89 2.682 1_656 S
O117 C106 1.273 1_556 S
O118 Nd89 2.410 . S
O118 C107 1.251 1_554 S
O119 Nd88 2.424 . S
O119 C107 1.268 . S
H120 C92 0.930 . S
H121 C93 0.929 . S
H122 C95 0.930 . S
H123 C96 0.929 . S
H124 C101 0.930 . S
H125 C102 0.929 . S
H126 C104 0.930 . S
H127 C105 0.929 1_655 S
Nd128 C130 2.836 1_545 S
Nd128 O148 2.500 1_545 S
Nd128 O149 2.492 . S
Nd128 O150 2.487 . S
Nd128 O151 2.682 . S
Nd128 O152 2.410 . S
Nd128 O157 2.414 1_546 S
Nd128 O159 2.424 . S
Nd129 C139 2.836 . S
Nd129 O151 2.414 1_554 S
Nd129 O153 2.424 . S
Nd129 O154 2.500 . S
Nd129 O155 2.492 . S
Nd129 O156 2.487 1_545 S
Nd129 O157 2.682 1_545 S
Nd129 O158 2.410 . S
C130 Nd128 2.836 1_565 S
C130 C131 1.498 . S
C130 O148 1.258 . S
C130 O149 1.239 1_565 S
C131 C130 1.498 . S
C131 C132 1.366 . S
C131 C136 1.407 . S
C132 C131 1.366 . S
C132 C133 1.392 . S
C132 H160 0.930 . S
C133 C132 1.392 . S
C133 C134 1.398 . S
C133 H161 0.929 . S
C134 C133 1.398 . S
C134 C135 1.352 . S
C135 C134 1.352 . S
C135 C136 1.384 . S
C135 H162 0.930 . S
C136 C131 1.407 . S
C136 C135 1.384 . S
C136 H163 0.929 1_565 S
C137 O150 1.241 . S
C137 O151 1.273 . S
C138 O152 1.251 . S
C138 O153 1.268 1_556 S
C139 Nd129 2.836 . S
C139 C140 1.498 . S
C139 O154 1.258 . S
C139 O155 1.239 . S
C140 C139 1.498 . S
C140 C141 1.366 . S
C140 C145 1.407 . S
C141 C140 1.366 . S
C141 C142 1.392 . S
C141 H164 0.930 . S
C142 C141 1.392 . S
C142 C143 1.398 . S
C142 H165 0.929 . S
C143 C142 1.398 . S
C143 C144 1.352 . S
C144 C143 1.352 . S
C144 C145 1.384 . S
C144 H166 0.930 . S
C145 C140 1.407 . S
C145 C144 1.384 . S
C145 H167 0.929 . S
C146 O156 1.241 . S
C146 O157 1.273 . S
C147 O158 1.251 . S
C147 O159 1.268 1_554 S
O148 Nd128 2.500 1_565 S
O148 C130 1.258 . S
O149 Nd128 2.492 . S
O149 C130 1.239 1_545 S
O150 Nd128 2.487 . S
O150 C137 1.241 . S
O151 Nd128 2.682 . S
O151 Nd129 2.414 1_556 S
O151 C137 1.273 . S
O152 Nd128 2.410 . S
O152 C138 1.251 . S
O153 Nd129 2.424 . S
O153 C138 1.268 1_554 S
O154 Nd129 2.500 . S
O154 C139 1.258 . S
O155 Nd129 2.492 . S
O155 C139 1.239 . S
O156 Nd129 2.487 1_565 S
O156 C146 1.241 . S
O157 Nd128 2.414 1_564 S
O157 Nd129 2.682 1_565 S
O157 C146 1.273 . S
O158 Nd129 2.410 . S
O158 C147 1.251 . S
O159 Nd128 2.424 . S
O159 C147 1.268 1_556 S
H160 C132 0.930 . S
H161 C133 0.929 . S
H162 C135 0.930 . S
H163 C136 0.929 1_545 S
H164 C141 0.930 . S
H165 C142 0.929 . S
H166 C144 0.930 . S
H167 C145 0.929 . S
Nd168 C170 2.836 . S
Nd168 O188 2.500 . S
Nd168 O189 2.492 . S
Nd168 O190 2.487 . S
Nd168 O191 2.682 1_554 S
Nd168 O192 2.410 1_554 S
Nd168 O197 2.414 1_554 S
Nd168 O199 2.424 . S
Nd169 C179 2.836 . S
Nd169 O191 2.414 . S
Nd169 O193 2.424 . S
Nd169 O194 2.500 . S
Nd169 O195 2.492 . S
Nd169 O196 2.487 . S
Nd169 O197 2.682 . S
Nd169 O198 2.410 1_556 S
C170 Nd168 2.836 . S
C170 C171 1.498 . S
C170 O188 1.258 . S
C170 O189 1.239 . S
C171 C170 1.498 . S
C171 C172 1.366 . S
C171 C176 1.407 . S
C172 C171 1.366 . S
C172 C173 1.392 . S
C172 H200 0.930 . S
C173 C172 1.392 . S
C173 C174 1.398 . S
C173 H201 0.929 . S
C174 C173 1.398 . S
C174 C175 1.352 . S
C175 C174 1.352 . S
C175 C176 1.384 . S
C175 H202 0.930 . S
C176 C171 1.407 . S
C176 C175 1.384 . S
C176 H203 0.929 . S
C177 O190 1.241 . S
C177 O191 1.273 1_554 S
C178 O192 1.251 . S
C178 O193 1.268 . S
C179 Nd169 2.836 . S
C179 C180 1.498 . S
C179 O194 1.258 . S
C179 O195 1.239 . S
C180 C179 1.498 . S
C180 C181 1.366 . S
C180 C185 1.407 . S
C181 C180 1.366 . S
C181 C182 1.392 . S
C181 H204 0.930 . S
C182 C181 1.392 . S
C182 C183 1.398 . S
C182 H205 0.929 . S
C183 C182 1.398 . S
C183 C184 1.352 . S
C184 C183 1.352 . S
C184 C185 1.384 . S
C184 H206 0.930 . S
C185 C180 1.407 . S
C185 C184 1.384 . S
C185 H207 0.929 . S
C186 O196 1.241 . S
C186 O197 1.273 . S
C187 O198 1.251 . S
C187 O199 1.268 . S
O188 Nd168 2.500 . S
O188 C170 1.258 . S
O189 Nd168 2.492 . S
O189 C170 1.239 . S
O190 Nd168 2.487 . S
O190 C177 1.241 . S
O191 Nd168 2.682 1_556 S
O191 Nd169 2.414 . S
O191 C177 1.273 1_556 S
O192 Nd168 2.410 1_556 S
O192 C178 1.251 . S
O193 Nd169 2.424 . S
O193 C178 1.268 . S
O194 Nd169 2.500 . S
O194 C179 1.258 . S
O195 Nd169 2.492 . S
O195 C179 1.239 . S
O196 Nd169 2.487 . S
O196 C186 1.241 . S
O197 Nd168 2.414 1_556 S
O197 Nd169 2.682 . S
O197 C186 1.273 . S
O198 Nd169 2.410 1_554 S
O198 C187 1.251 . S
O199 Nd168 2.424 . S
O199 C187 1.268 . S
H200 C172 0.930 . S
H201 C173 0.929 . S
H202 C175 0.930 . S
H203 C176 0.929 . S
H204 C181 0.930 . S
H205 C182 0.929 . S
H206 C184 0.930 . S
H207 C185 0.929 . S
Nd208 C210 2.836 1_455 S
Nd208 O228 2.500 1_455 S
Nd208 O229 2.492 1_455 S
Nd208 O230 2.487 . S
Nd208 O231 2.682 1_556 S
Nd208 O232 2.410 1_455 S
Nd208 O237 2.414 . S
Nd208 O239 2.424 . S
Nd209 C219 2.836 . S
Nd209 O231 2.414 . S
Nd209 O233 2.424 1_455 S
Nd209 O234 2.500 . S
Nd209 O235 2.492 . S
Nd209 O236 2.487 . S
Nd209 O237 2.682 1_554 S
Nd209 O238 2.410 . S
C210 Nd208 2.836 1_655 S
C210 C211 1.498 . S
C210 O228 1.258 . S
C210 O229 1.239 . S
C211 C210 1.498 . S
C211 C212 1.366 . S
C211 C216 1.407 . S
C212 C211 1.366 . S
C212 C213 1.392 . S
C212 H240 0.930 . S
C213 C212 1.392 . S
C213 C214 1.398 . S
C213 H241 0.929 . S
C214 C213 1.398 . S
C214 C215 1.352 . S
C215 C214 1.352 . S
C215 C216 1.384 . S
C215 H242 0.930 . S
C216 C211 1.407 . S
C216 C215 1.384 . S
C216 H243 0.929 . S
C217 O230 1.241 . S
C217 O231 1.273 1_556 S
C218 O232 1.251 . S
C218 O233 1.268 1_556 S
C219 Nd209 2.836 . S
C219 C220 1.498 . S
C219 O234 1.258 . S
C219 O235 1.239 . S
C220 C219 1.498 . S
C220 C221 1.366 . S
C220 C225 1.407 . S
C221 C220 1.366 . S
C221 C222 1.392 . S
C221 H244 0.930 . S
C222 C221 1.392 . S
C222 C223 1.398 . S
C222 H245 0.929 . S
C223 C222 1.398 . S
C223 C224 1.352 . S
C224 C223 1.352 . S
C224 C225 1.384 . S
C224 H246 0.930 . S
C225 C220 1.407 . S
C225 C224 1.384 . S
C225 H247 0.929 . S
C226 O236 1.241 . S
C226 O237 1.273 1_554 S
C227 O238 1.251 1_556 S
C227 O239 1.268 . S
O228 Nd208 2.500 1_655 S
O228 C210 1.258 . S
O229 Nd208 2.492 1_655 S
O229 C210 1.239 . S
O230 Nd208 2.487 . S
O230 C217 1.241 . S
O231 Nd208 2.682 1_554 S
O231 Nd209 2.414 . S
O231 C217 1.273 1_554 S
O232 Nd208 2.410 1_655 S
O232 C218 1.251 . S
O233 Nd209 2.424 1_655 S
O233 C218 1.268 1_554 S
O234 Nd209 2.500 . S
O234 C219 1.258 . S
O235 Nd209 2.492 . S
O235 C219 1.239 . S
O236 Nd209 2.487 . S
O236 C226 1.241 . S
O237 Nd208 2.414 . S
O237 Nd209 2.682 1_556 S
O237 C226 1.273 1_556 S
O238 Nd209 2.410 . S
O238 C227 1.251 1_554 S
O239 Nd208 2.424 . S
O239 C227 1.268 . S
H240 C212 0.930 . S
H241 C213 0.929 . S
H242 C215 0.930 . S
H243 C216 0.929 . S
H244 C221 0.930 . S
H245 C222 0.929 . S
H246 C224 0.930 . S
H247 C225 0.929 . S
C74 C97 2.618 1_554 S
C137 C85 2.650 . S
C186 C52 2.199 1_556 S
C217 C63 2.639 . S
C106 C30 2.481 1_544 S
C41 C146 2.446 . S
C8 C177 2.203 1_556 S
C19 C226 2.444 1_655 S
C107 C62 2.266 1_556 S
C147 C73 3.229 . S
C183 C84 1.326 . S
C51 C227 2.635 1_554 S
C18 C98 2.036 1_656 S
C138 C29 2.898 1_545 S
C174 C40 1.193 . S
C7 C218 2.465 . S
C60 C103 1.606 . S
C71 C143 1.911 . S
C187 C82 2.761 . S
C223 C49 1.727 . S
C16 C94 1.396 . S
C134 C27 2.671 1_565 S
C178 C38 2.376 . S
C5 C214 2.481 . S
