# Generated by pormake.
# Topology tsx, (6,3)-cn, num edge types: 1
# Building blocks:
#     Node 0, Type 0, BuildingBlock: JUFBIX_clean_sbu_0, # of connection points: 6
#     Node 1, Type 0, BuildingBlock: JUFBIX_clean_sbu_0, # of connection points: 6
#     Node 2, Type 1, BuildingBlock: OLANEW_clean_sbu_2, # of connection points: 3
#     Node 3, Type 1, BuildingBlock: OLANEW_clean_sbu_2, # of connection points: 3
#     Node 4, Type 1, BuildingBlock: OLANEW_clean_sbu_2, # of connection points: 3
#     Node 5, Type 1, BuildingBlock: OLANEW_clean_sbu_2, # of connection points: 3
#     Edge 6, Type (0, 1), BuildingBlock: KIFKEQ_clean_linker_1, # of connection points: 2
#     Edge 7, Type (0, 1), BuildingBlock: KIFKEQ_clean_linker_1, # of connection points: 2
#     Edge 8, Type (0, 1), BuildingBlock: KIFKEQ_clean_linker_1, # of connection points: 2
#     Edge 9, Type (0, 1), BuildingBlock: KIFKEQ_clean_linker_1, # of connection points: 2
#     Edge 10, Type (0, 1), BuildingBlock: KIFKEQ_clean_linker_1, # of connection points: 2
#     Edge 11, Type (0, 1), BuildingBlock: KIFKEQ_clean_linker_1, # of connection points: 2
#     Edge 12, Type (0, 1), BuildingBlock: KIFKEQ_clean_linker_1, # of connection points: 2
#     Edge 13, Type (0, 1), BuildingBlock: KIFKEQ_clean_linker_1, # of connection points: 2
#     Edge 14, Type (0, 1), BuildingBlock: KIFKEQ_clean_linker_1, # of connection points: 2
#     Edge 15, Type (0, 1), BuildingBlock: KIFKEQ_clean_linker_1, # of connection points: 2
#     Edge 16, Type (0, 1), BuildingBlock: KIFKEQ_clean_linker_1, # of connection points: 2
#     Edge 17, Type (0, 1), BuildingBlock: KIFKEQ_clean_linker_1, # of connection points: 2
# Relax obj value: 0.062
# Max RMSD: 0.104
# Mean RMSD: 0.074
data_MOF--net-tsx--node1-JUFBIX_clean_sbu_0--node2-OLANEW_clean_sbu_2--edge1-KIFKEQ_clean_linker_1
_symmetry_space_group_name_H-M    P1
_symmetry_Int_Tables_number       1
_symmetry_cell_setting            triclinic
loop_
_symmetry_equiv_pos_as_xyz
'x, y, z'
_cell_length_a     22.914549
_cell_length_b     26.286229
_cell_length_c     34.434192
_cell_angle_alpha  98.122054
_cell_angle_beta   87.6988
_cell_angle_gamma 98.33169
loop_
_atom_site_label
_atom_site_type_symbol
_atom_site_fract_x
_atom_site_fract_y
_atom_site_fract_z
_atom_type_partial_charge
Co0 Co 0.04094 0.98501 0.00475 0.0
C1 C 0.99263 0.01096 0.93769 0.0
Co2 Co 0.97158 0.03597 0.01632 0.0
C3 C 0.11517 0.90425 0.00727 0.0
C4 C 0.14475 0.95553 0.96517 0.0
N5 N 0.10163 0.94564 0.992 0.0
N6 N 0.16547 0.88844 0.9912 0.0
C7 C 0.18392 0.92061 0.96463 0.0
H8 H 0.08944 0.88691 0.03032 0.0
H9 H 0.14783 0.98661 0.94735 0.0
C10 C 0.02139 0.01065 0.0833 0.0
N11 N 0.91109 0.07573 0.02941 0.0
C12 C 0.894 0.11355 0.01149 0.0
C13 C 0.87383 0.07185 0.06055 0.0
N14 N 0.84807 0.13364 0.0306 0.0
C15 C 0.8354 0.10751 0.06149 0.0
C16 C 0.93014 0.92934 0.00924 0.0
O17 O 0.05243 0.98474 0.05882 0.0
O18 O 0.98401 0.03537 0.0707 0.0
O19 O 0.91598 0.97485 0.01501 0.0
O20 O 0.98428 0.92369 0.00391 0.0
O21 O 0.96064 0.03634 0.96196 0.0
H22 H 0.87418 0.04446 0.08118 0.0
H23 H 0.91507 0.12639 0.98517 0.0
O24 O 0.02924 0.98569 0.95053 0.0
O25 O 0.0967 0.04694 0.00596 0.0
O26 O 0.02734 0.09681 0.01733 0.0
C27 C 0.08158 0.09215 0.01172 0.0
H28 H 0.22278 0.91877 0.94582 0.0
H29 H 0.79991 0.11298 0.08271 0.0
Co30 Co 0.52729 0.47368 0.4925 0.0
C31 C 0.47736 0.50453 0.42757 0.0
Co32 Co 0.46471 0.53063 0.50662 0.0
C33 C 0.59552 0.38857 0.49282 0.0
C34 C 0.61796 0.43156 0.44462 0.0
N35 N 0.58231 0.42938 0.47667 0.0
N36 N 0.63739 0.36499 0.47168 0.0
C37 C 0.65151 0.39189 0.44135 0.0
H38 H 0.57421 0.37587 0.51912 0.0
H39 H 0.61943 0.4602 0.42479 0.0
C40 C 0.51582 0.50011 0.5715 0.0
N41 N 0.40844 0.57406 0.52281 0.0
C42 C 0.3896 0.61212 0.50599 0.0
C43 C 0.37319 0.5696 0.55485 0.0
N44 N 0.34378 0.63113 0.5263 0.0
C45 C 0.33391 0.60456 0.55718 0.0
C46 C 0.41432 0.42568 0.50067 0.0
O47 O 0.54365 0.47262 0.54596 0.0
O48 O 0.47991 0.52727 0.56019 0.0
O49 O 0.40444 0.47254 0.50607 0.0
O50 O 0.46697 0.4162 0.49432 0.0
O51 O 0.45119 0.5339 0.45286 0.0
H52 H 0.37471 0.54161 0.57484 0.0
H53 H 0.40763 0.62422 0.47868 0.0
O54 O 0.51036 0.475 0.43909 0.0
O55 O 0.58721 0.53183 0.49089 0.0
O56 O 0.52515 0.58805 0.50691 0.0
C57 C 0.57741 0.57871 0.49823 0.0
H58 H 0.68439 0.38381 0.41872 0.0
H59 H 0.30028 0.60959 0.57981 0.0
O60 O 0.03696 0.98259 0.39141 0.0
Cd61 Cd 0.03195 0.97839 0.46181 0.0
O62 O 0.04275 0.06759 0.39786 0.0
Cd63 Cd 0.01616 0.07721 0.45973 0.0
O64 O 0.94717 0.11643 0.49133 0.0
C65 C 0.89408 0.09774 0.48323 0.0
O66 O 0.88386 0.05338 0.45999 0.0
C67 C 0.0439 0.0244 0.37617 0.0
C68 C 0.1001 0.90378 0.47662 0.0
O69 O 0.0451 0.89164 0.46911 0.0
O70 O 0.12262 0.95156 0.47808 0.0
O71 O 0.97998 0.06845 0.63353 0.0
Cd72 Cd 0.97819 0.07702 0.56386 0.0
O73 O 0.98994 0.98565 0.62268 0.0
Cd74 Cd 0.97092 0.97446 0.56025 0.0
O75 O 0.90986 0.91578 0.52548 0.0
C76 C 0.91634 0.8692 0.52816 0.0
O77 O 0.96151 0.86086 0.54755 0.0
C78 C 0.98735 0.02692 0.64646 0.0
C79 C 0.07206 0.15004 0.54467 0.0
O80 O 0.02324 0.16383 0.55874 0.0
O81 O 0.0765 0.10148 0.53927 0.0
O82 O 0.51646 0.45199 0.87666 0.0
Cd83 Cd 0.50212 0.44195 0.94599 0.0
O84 O 0.52039 0.53699 0.88556 0.0
Cd85 Cd 0.49263 0.54605 0.94735 0.0
O86 O 0.43751 0.59529 0.98451 0.0
C87 C 0.38234 0.58748 0.97852 0.0
O88 O 0.36083 0.54714 0.95363 0.0
C89 C 0.52405 0.49492 0.86291 0.0
C90 C 0.58074 0.37826 0.96552 0.0
O91 O 0.53063 0.35896 0.95068 0.0
O92 O 0.5933 0.42781 0.97192 0.0
O93 O 0.49037 0.55517 0.11998 0.0
Cd94 Cd 0.50331 0.56042 0.04954 0.0
O95 O 0.53397 0.48534 0.11607 0.0
Cd96 Cd 0.51573 0.46339 0.05372 0.0
O97 O 0.44677 0.40516 0.02543 0.0
C98 C 0.39699 0.40421 0.04324 0.0
O99 O 0.39119 0.43946 0.07372 0.0
C100 C 0.51216 0.52231 0.13672 0.0
C101 C 0.59727 0.63737 0.03623 0.0
O102 O 0.54507 0.64837 0.04431 0.0
O103 O 0.6052 0.58975 0.03394 0.0
H104 H 0.06392 0.19383 0.01901 0.0
H105 H 0.20146 0.09589 0.0051 0.0
H106 H 0.13828 0.27047 0.02137 0.0
H107 H 0.27585 0.17258 0.00849 0.0
H108 H 0.39659 0.31897 0.98686 0.0
H109 H 0.31893 0.2446 0.9751 0.0
H110 H 0.21089 0.31724 0.06622 0.0
H111 H 0.28739 0.39164 0.07723 0.0
C112 C 0.11002 0.18863 0.0165 0.0
C113 C 0.12672 0.13871 0.01214 0.0
C114 C 0.15271 0.23262 0.01799 0.0
C115 C 0.21315 0.22781 0.01529 0.0
C116 C 0.22975 0.17778 0.01015 0.0
C117 C 0.18705 0.13377 0.00854 0.0
C118 C 0.35591 0.31929 0.00399 0.0
C119 C 0.34833 0.36118 0.0331 0.0
C120 C 0.31157 0.2765 -0.00254 0.0
C121 C 0.25871 0.27473 0.01986 0.0
C122 C 0.25061 0.31744 0.04807 0.0
C123 C 0.29477 0.36008 0.05456 0.0
H124 H 0.11413 0.7976 0.01446 0.0
H125 H 0.28239 0.8837 0.98759 0.0
H126 H 0.16317 0.72289 0.02234 0.0
H127 H 0.33098 0.80934 -0.00573 0.0
H128 H 0.41485 0.68018 0.02492 0.0
H129 H 0.35888 0.75315 0.03808 0.0
H130 H 0.21047 0.66049 0.97689 0.0
H131 H 0.26575 0.58732 0.96451 0.0
C132 C 0.1616 0.8008 0.01079 0.0
C133 C 0.19432 0.84625 -0.00011 0.0
C134 C 0.18965 0.75796 0.01502 0.0
C135 C 0.25102 0.76001 0.0088 0.0
C136 C 0.28382 0.80644 -0.00026 0.0
C137 C 0.25584 0.84893 -0.00467 0.0
C138 C 0.36983 0.675 0.01502 0.0
C139 C 0.34516 0.62817 0.99307 0.0
C140 C 0.33785 0.71694 0.02238 0.0
C141 C 0.28054 0.71298 0.00795 0.0
C142 C 0.25436 0.66489 0.9886 0.0
C143 C 0.28629 0.62295 0.98128 0.0
H144 H 0.94096 0.83026 0.02192 0.0
H145 H 0.8133 0.92646 -0.00288 0.0
H146 H 0.86143 0.75866 0.02762 0.0
H147 H 0.73453 0.85482 0.00078 0.0
H148 H 0.5994 0.74186 0.0547 0.0
H149 H 0.68084 0.81009 0.04712 0.0
H150 H 0.78883 0.69505 -0.00426 0.0
H151 H 0.70762 0.62644 0.00519 0.0
C152 C 0.89602 0.83581 0.0171 0.0
C153 C 0.88334 0.88413 0.00947 0.0
C154 C 0.85035 0.79471 0.02018 0.0
C155 C 0.79111 0.80089 0.01516 0.0
C156 C 0.77914 0.8488 0.00601 0.0
C157 C 0.82449 0.88992 0.00357 0.0
C158 C 0.64048 0.73109 0.04172 0.0
C159 C 0.64694 0.67871 0.03048 0.0
C160 C 0.68727 0.77033 0.03707 0.0
C161 C 0.74166 0.75843 0.02044 0.0
C162 C 0.74803 0.70586 0.0091 0.0
C163 C 0.70131 0.66647 0.01427 0.0
H164 H 0.82176 0.14817 0.95742 0.0
H165 H 0.80258 0.20756 0.07989 0.0
H166 H 0.75982 0.21006 0.94016 0.0
H167 H 0.74112 0.26944 0.0628 0.0
H168 H 0.67867 0.40468 0.01087 0.0
H169 H 0.74869 0.34811 0.02517 0.0
H170 H 0.64948 0.21885 0.95361 0.0
H171 H 0.5791 0.27505 0.93962 0.0
C172 C 0.80504 0.17501 0.98051 0.0
C173 C 0.81663 0.17303 0.01997 0.0
C174 C 0.76932 0.21005 0.97072 0.0
C175 C 0.74556 0.24435 0.00019 0.0
C176 C 0.75909 0.24364 0.03949 0.0
C177 C 0.79388 0.20808 0.04929 0.0
C178 C 0.67186 0.36421 -0.00183 0.0
C179 C 0.62325 0.34426 0.97426 0.0
C180 C 0.71186 0.33189 0.0064 0.0
C181 C 0.70459 0.27921 0.99033 0.0
C182 C 0.65647 0.25944 0.96601 0.0
C183 C 0.61596 0.29153 0.95829 0.0
H184 H 0.5757 0.68278 0.52033 0.0
H185 H 0.69079 0.57166 0.47311 0.0
H186 H 0.65867 0.7525 0.52164 0.0
H187 H 0.77322 0.64141 0.47338 0.0
H188 H 0.91559 0.76659 0.53318 0.0
H189 H 0.83368 0.69693 0.52159 0.0
H190 H 0.72852 0.80311 0.48252 0.0
H191 H 0.8104 0.87351 0.49518 0.0
C192 C 0.61855 0.67331 0.50983 0.0
C193 C 0.62675 0.62161 0.49702 0.0
C194 C 0.66606 0.71334 0.51028 0.0
C195 C 0.72275 0.70257 0.49775 0.0
C196 C 0.73042 0.651 0.48385 0.0
C197 C 0.68306 0.61101 0.48359 0.0
C198 C 0.87531 0.77506 0.52165 0.0
C199 C 0.86941 0.82575 0.51545 0.0
C200 C 0.82831 0.73495 0.51479 0.0
C201 C 0.77426 0.74443 0.50137 0.0
C202 C 0.7692 0.79467 0.49349 0.0
C203 C 0.8163 0.83492 0.50043 0.0
H204 H 0.66897 0.34385 0.54199 0.0
H205 H 0.66401 0.28655 0.41834 0.0
H206 H 0.72305 0.27304 0.55316 0.0
H207 H 0.71716 0.21607 0.42923 0.0
H208 H 0.77972 0.07574 0.4598 0.0
H209 H 0.70749 0.13588 0.4635 0.0
H210 H 0.82782 0.25368 0.53119 0.0
H211 H 0.90045 0.19359 0.52756 0.0
C212 C 0.67848 0.31549 0.51743 0.0
C213 C 0.66281 0.3206 0.47929 0.0
C214 C 0.70955 0.27529 0.52374 0.0
C215 C 0.72412 0.23902 0.49208 0.0
C216 C 0.70596 0.24303 0.45427 0.0
C217 C 0.67602 0.28355 0.44794 0.0
C218 C 0.79042 0.11404 0.47625 0.0
C219 C 0.84631 0.13018 0.49276 0.0
C220 C 0.74902 0.14849 0.47826 0.0
C221 C 0.7624 0.19961 0.49715 0.0
C222 C 0.81628 0.21444 0.51653 0.0
C223 C 0.85797 0.18007 0.51426 0.0
H224 H 0.41951 0.32466 0.51014 0.0
H225 H 0.29708 0.43101 0.49655 0.0
H226 H 0.33692 0.25714 0.51913 0.0
H227 H 0.21478 0.3633 0.50376 0.0
H228 H 0.08311 0.25478 0.56571 0.0
H229 H 0.1661 0.31944 0.55319 0.0
H230 H 0.25666 0.19911 0.48947 0.0
H231 H 0.17415 0.134 0.50354 0.0
C232 C 0.37496 0.33334 0.50849 0.0
C233 C 0.3648 0.38325 0.50298 0.0
C234 C 0.32754 0.29458 0.51345 0.0
C235 C 0.26895 0.30476 0.51256 0.0
C236 C 0.25913 0.35429 0.50564 0.0
C237 C 0.3064 0.3931 0.50121 0.0
C238 C 0.12065 0.2421 0.54893 0.0
C239 C 0.12205 0.18926 0.53566 0.0
C240 C 0.16822 0.27928 0.54148 0.0
C241 C 0.21822 0.26471 0.52008 0.0
C242 C 0.21935 0.21177 0.50649 0.0
C243 C 0.17189 0.17444 0.51435 0.0
H244 H 0.37969 0.71074 0.48436 0.0
H245 H 0.2294 0.638 0.54588 0.0
H246 H 0.32125 0.77655 0.46993 0.0
H247 H 0.17237 0.70428 0.53308 0.0
H248 H 0.06578 0.79929 0.47196 0.0
H249 H 0.12589 0.73277 0.48058 0.0
H250 H 0.27729 0.85056 0.50381 0.0
H251 H 0.21735 0.91717 0.49414 0.0
C252 C 0.33429 0.70869 0.4947 0.0
C253 C 0.30947 0.6693 0.51654 0.0
C254 C 0.30099 0.74665 0.48681 0.0
C255 C 0.2421 0.74575 0.5004 0.0
C256 C 0.21729 0.70592 0.52175 0.0
C257 C 0.25041 0.6682 0.52959 0.0
C258 C 0.11189 0.81106 0.47888 0.0
C259 C 0.13668 0.86357 0.48255 0.0
C260 C 0.14636 0.77291 0.48396 0.0
C261 C 0.20643 0.78631 0.49303 0.0
C262 C 0.23138 0.83882 0.49637 0.0
C263 C 0.19687 0.87704 0.49118 0.0
H264 H 0.96696 0.06767 0.14248 0.0
H265 H 0.09203 0.95804 0.12073 0.0
H266 H 0.9781 0.0711 0.21279 0.0
H267 H 0.10358 0.96199 0.19144 0.0
H268 H 0.04558 0.93909 0.32043 0.0
H269 H 0.04417 0.93604 0.24929 0.0
H270 H 0.05294 0.10283 0.2631 0.0
H271 H 0.05364 0.10601 0.33408 0.0
C272 C -0.00298 0.04442 0.15269 0.0
C273 C 0.02863 0.01259 0.126 0.0
C274 C 0.0037 0.04668 0.19302 0.0
C275 C 0.04199 0.01706 0.20765 0.0
C276 C 0.07349 0.98503 0.18101 0.0
C277 C 0.06703 0.98294 0.14056 0.0
C278 C 0.0478 0.97517 0.30829 0.0
C279 C 0.04921 0.02275 0.333 0.0
C280 C 0.04724 0.97341 0.26752 0.0
C281 C 0.04787 0.01915 0.25064 0.0
C282 C 0.05141 0.06684 0.27528 0.0
C283 C 0.05216 0.06865 0.31598 0.0
H284 H 0.05839 0.96369 0.87954 0.0
H285 H 0.92163 0.06231 0.89927 0.0
H286 H 0.0582 0.96904 0.80972 0.0
H287 H 0.92056 0.06668 0.82886 0.0
H288 H 0.98155 0.10687 0.70643 0.0
H289 H 0.98193 0.10303 0.77686 0.0
H290 H -0.00301 0.93953 0.7535 0.0
H291 H -0.00203 0.94352 0.68341 0.0
C292 C 0.02782 0.98615 0.86894 0.0
C293 C 0.98987 0.01246 0.895 0.0
C294 C 0.02759 0.98904 0.82881 0.0
C295 C 0.98932 0.01821 0.81365 0.0
C296 C 0.95109 0.04438 0.83966 0.0
C297 C 0.95135 0.04153 0.87995 0.0
C298 C 0.98531 0.07019 0.71634 0.0
C299 C 0.98994 0.02556 0.68923 0.0
C300 C 0.98501 0.0679 0.75671 0.0
C301 C 0.98938 0.02096 0.77082 0.0
C302 C -0.00567 0.97647 0.74367 0.0
C303 C -0.0053 0.97875 0.70341 0.0
H304 H 0.46748 0.5594 0.63213 0.0
H305 H 0.5816 0.44101 0.60705 0.0
H306 H 0.47673 0.55823 0.70197 0.0
H307 H 0.59151 0.44042 0.67752 0.0
H308 H 0.52494 0.41233 0.80453 0.0
H309 H 0.52922 0.41431 0.73379 0.0
H310 H 0.54891 0.5818 0.75381 0.0
H311 H 0.54366 0.57995 0.82432 0.0
C312 C 0.49496 0.53335 0.64151 0.0
C313 C 0.52378 0.50026 0.61397 0.0
C314 C 0.5006 0.53296 0.68164 0.0
C315 C 0.53512 0.49944 0.69534 0.0
C316 C 0.56429 0.46646 0.66786 0.0
C317 C 0.55884 0.46699 0.62754 0.0
C318 C 0.53083 0.4496 0.79385 0.0
C319 C 0.53327 0.49595 0.82014 0.0
C320 C 0.53357 0.45072 0.75329 0.0
C321 C 0.53876 0.49819 0.73819 0.0
C322 C 0.54379 0.54455 0.76451 0.0
C323 C 0.54106 0.54346 0.80497 0.0
H324 H 0.49562 0.42918 0.36778 0.0
H325 H 0.45313 0.58542 0.39163 0.0
H326 H 0.50195 0.43531 0.298 0.0
H327 H 0.46247 0.59288 0.32164 0.0
H328 H 0.43782 0.57204 0.18806 0.0
H329 H 0.42432 0.56752 0.25817 0.0
H330 H 0.56598 0.47433 0.25314 0.0
H331 H 0.57716 0.47678 0.18293 0.0
C332 C 0.4875 0.46488 0.35799 0.0
C333 C 0.47401 0.50685 0.38512 0.0
C334 C 0.49183 0.4687 0.31796 0.0
C335 C 0.48401 0.51501 0.304 0.0
C336 C 0.46846 0.55648 0.33114 0.0
C337 C 0.4631 0.55229 0.37129 0.0
C338 C 0.46631 0.55092 0.20208 0.0
C339 C 0.50831 0.52447 0.17993 0.0
C340 C 0.45868 0.54841 0.24235 0.0
C341 C 0.49344 0.51994 0.26146 0.0
C342 C 0.53708 0.49532 0.23938 0.0
C343 C 0.54401 0.49714 0.19911 0.0
loop_
_geom_bond_atom_site_label_1
_geom_bond_atom_site_label_2
_geom_bond_distance
_geom_bond_site_symmetry_2
_ccdc_geom_bond_type
Co0 N5 2.052 1_554 S
Co0 O17 2.021 . S
Co0 O20 2.062 1_455 S
Co0 O24 2.117 1_554 S
Co0 O25 2.020 1_565 S
C1 O21 1.259 . S
C1 O24 1.258 1_645 S
Co2 N11 2.057 . S
Co2 O18 2.117 . S
Co2 O19 2.020 1_545 S
Co2 O21 2.021 1_554 S
Co2 O26 2.062 1_655 S
C3 N5 1.296 1_554 S
C3 N6 1.347 . S
C3 H8 0.931 . S
C4 N5 1.402 . S
C4 C7 1.350 . S
C4 H9 0.930 . S
N5 Co0 2.052 1_556 S
N5 C3 1.296 1_556 S
N5 C4 1.402 . S
N6 C3 1.347 . S
N6 C7 1.373 1_554 S
C7 C4 1.350 . S
C7 N6 1.373 1_556 S
C7 H28 0.931 . S
H8 C3 0.931 . S
H9 C4 0.930 . S
C10 O17 1.259 1_545 S
C10 O18 1.258 1_455 S
N11 Co2 2.057 . S
N11 C12 1.316 . S
N11 C13 1.375 . S
C12 N11 1.316 . S
C12 N14 1.347 . S
C12 H23 0.931 1_554 S
C13 N11 1.375 . S
C13 C15 1.350 . S
C13 H22 0.930 . S
N14 C12 1.347 . S
N14 C15 1.373 . S
C15 C13 1.350 . S
C15 N14 1.373 . S
C15 H29 0.931 . S
C16 O19 1.256 . S
C16 O20 1.255 . S
O17 Co0 2.021 . S
O17 C10 1.259 1_565 S
O18 Co2 2.117 . S
O18 C10 1.258 1_655 S
O19 Co2 2.020 1_565 S
O19 C16 1.256 . S
O20 Co0 2.062 1_655 S
O20 C16 1.255 . S
O21 C1 1.259 . S
O21 Co2 2.021 1_556 S
H22 C13 0.930 . S
H23 C12 0.931 1_556 S
O24 Co0 2.117 1_556 S
O24 C1 1.258 1_465 S
O25 Co0 2.020 1_545 S
O25 C27 1.256 . S
O26 Co2 2.062 1_455 S
O26 C27 1.255 . S
C27 O25 1.256 . S
C27 O26 1.255 . S
H28 C7 0.931 . S
H29 C15 0.931 . S
Co30 N35 2.057 . S
Co30 O47 2.021 . S
Co30 O50 2.062 . S
Co30 O54 2.117 . S
Co30 O55 2.020 . S
C31 O51 1.259 . S
C31 O54 1.258 . S
Co32 N41 2.057 . S
Co32 O48 2.117 . S
Co32 O49 2.020 . S
Co32 O51 2.021 . S
Co32 O56 2.062 . S
C33 N35 1.316 . S
C33 N36 1.347 . S
C33 H38 0.931 . S
C34 N35 1.375 . S
C34 C37 1.350 . S
C34 H39 0.930 . S
N35 Co30 2.057 . S
N35 C33 1.316 . S
N35 C34 1.375 . S
N36 C33 1.347 . S
N36 C37 1.373 . S
C37 C34 1.350 . S
C37 N36 1.373 . S
C37 H58 0.931 . S
H38 C33 0.931 . S
H39 C34 0.930 . S
C40 O47 1.259 . S
C40 O48 1.258 . S
N41 Co32 2.057 . S
N41 C42 1.316 . S
N41 C43 1.375 . S
C42 N41 1.316 . S
C42 N44 1.347 . S
C42 H53 0.931 . S
C43 N41 1.375 . S
C43 C45 1.350 . S
C43 H52 0.930 . S
N44 C42 1.347 . S
N44 C45 1.373 . S
C45 C43 1.350 . S
C45 N44 1.373 . S
C45 H59 0.931 . S
C46 O49 1.256 . S
C46 O50 1.255 . S
O47 Co30 2.021 . S
O47 C40 1.259 . S
O48 Co32 2.117 . S
O48 C40 1.258 . S
O49 Co32 2.020 . S
O49 C46 1.256 . S
O50 Co30 2.062 . S
O50 C46 1.255 . S
O51 C31 1.259 . S
O51 Co32 2.021 . S
H52 C43 0.930 . S
H53 C42 0.931 . S
O54 Co30 2.117 . S
O54 C31 1.258 . S
O55 Co30 2.020 . S
O55 C57 1.256 . S
O56 Co32 2.062 . S
O56 C57 1.255 . S
C57 O55 1.256 . S
C57 O56 1.255 . S
H58 C37 0.931 . S
H59 C45 0.931 . S
O60 Cd61 2.303 . S
O60 C67 1.275 1_565 S
Cd61 O60 2.303 . S
Cd61 O69 2.401 . S
Cd61 O70 2.389 . S
O62 Cd63 2.385 . S
O62 C67 1.255 . S
Cd63 O62 2.385 . S
Cd63 O64 2.317 1_455 S
O64 Cd63 2.317 1_655 S
O64 C65 1.232 . S
C65 O64 1.232 . S
C65 O66 1.218 . S
O66 C65 1.218 . S
C67 O60 1.275 1_545 S
C67 O62 1.255 . S
C68 O69 1.258 . S
C68 O70 1.256 . S
O69 Cd61 2.401 . S
O69 C68 1.258 . S
O70 Cd61 2.389 . S
O70 C68 1.256 . S
O71 Cd72 2.300 . S
O71 C78 1.275 1_545 S
Cd72 O71 2.300 . S
Cd72 O80 2.381 . S
Cd72 O81 2.378 . S
O73 Cd74 2.385 . S
O73 C78 1.255 . S
Cd74 O73 2.385 . S
Cd74 O75 2.317 1_455 S
O75 Cd74 2.317 1_655 S
O75 C76 1.232 . S
C76 O75 1.232 . S
C76 O77 1.218 . S
O77 C76 1.218 . S
C78 O71 1.275 1_565 S
C78 O73 1.255 . S
C79 O80 1.258 . S
C79 O81 1.256 . S
O80 Cd72 2.381 . S
O80 C79 1.258 . S
O81 Cd72 2.378 . S
O81 C79 1.256 . S
O82 Cd83 2.300 . S
O82 C89 1.275 . S
Cd83 O82 2.300 . S
Cd83 O91 2.381 . S
Cd83 O92 2.378 1_556 S
O84 Cd85 2.385 . S
O84 C89 1.255 . S
Cd85 O84 2.385 . S
Cd85 O86 2.317 . S
O86 Cd85 2.317 . S
O86 C87 1.232 . S
C87 O86 1.232 . S
C87 O88 1.218 . S
O88 C87 1.218 . S
C89 O82 1.275 . S
C89 O84 1.255 . S
C90 O91 1.258 . S
C90 O92 1.256 1_556 S
O91 Cd83 2.381 . S
O91 C90 1.258 . S
O92 Cd83 2.378 1_554 S
O92 C90 1.256 1_554 S
O93 Cd94 2.300 . S
O93 C100 1.275 . S
Cd94 O93 2.300 . S
Cd94 O102 2.381 . S
Cd94 O103 2.378 . S
O95 Cd96 2.385 . S
O95 C100 1.255 . S
Cd96 O95 2.385 . S
Cd96 O97 2.317 . S
O97 Cd96 2.317 . S
O97 C98 1.232 . S
C98 O97 1.232 . S
C98 O99 1.218 . S
O99 C98 1.218 . S
C100 O93 1.275 . S
C100 O95 1.255 . S
C101 O102 1.258 . S
C101 O103 1.256 . S
O102 Cd94 2.381 . S
O102 C101 1.258 . S
O103 Cd94 2.378 . S
O103 C101 1.256 . S
H104 C112 0.950 . S
H105 C117 0.950 . S
H106 C114 0.950 . S
H107 C116 0.950 . S
H108 C118 0.950 . S
H109 C120 0.950 . S
H110 C122 0.950 . S
H111 C123 0.950 . S
C112 H104 0.950 . S
C112 C113 1.386 . S
C112 C114 1.391 . S
C113 C112 1.386 . S
C113 C117 1.393 . S
C114 H106 0.950 . S
C114 C112 1.391 . S
C114 C115 1.400 . S
C115 C114 1.400 . S
C115 C116 1.398 . S
C115 C121 1.491 . S
C116 H107 0.950 . S
C116 C115 1.398 . S
C116 C117 1.391 . S
C117 H105 0.950 . S
C117 C113 1.393 . S
C117 C116 1.391 . S
C118 H108 0.950 . S
C118 C119 1.386 . S
C118 C120 1.391 . S
C119 C118 1.386 . S
C119 C123 1.393 . S
C120 H109 0.950 . S
C120 C118 1.391 . S
C120 C121 1.400 . S
C121 C115 1.491 . S
C121 C120 1.400 . S
C121 C122 1.398 . S
C122 H110 0.950 . S
C122 C121 1.398 . S
C122 C123 1.391 . S
C123 H111 0.950 . S
C123 C119 1.393 . S
C123 C122 1.391 . S
H124 C132 0.950 . S
H125 C137 0.950 . S
H126 C134 0.950 . S
H127 C136 0.950 . S
H128 C138 0.950 . S
H129 C140 0.950 . S
H130 C142 0.950 . S
H131 C143 0.948 1_554 S
C132 H124 0.950 . S
C132 C133 1.386 . S
C132 C134 1.391 . S
C133 C132 1.386 . S
C133 C137 1.393 1_554 S
C134 H126 0.950 . S
C134 C132 1.391 . S
C134 C135 1.400 1_554 S
C135 C134 1.400 1_556 S
C135 C136 1.398 . S
C135 C141 1.491 . S
C136 H127 0.950 . S
C136 C135 1.398 . S
C136 C137 1.391 . S
C137 H125 0.950 . S
C137 C133 1.393 1_556 S
C137 C136 1.391 . S
C138 H128 0.950 . S
C138 C139 1.386 . S
C138 C140 1.391 . S
C139 C138 1.386 . S
C139 C143 1.394 . S
C140 H129 0.950 . S
C140 C138 1.391 . S
C140 C141 1.400 . S
C141 C135 1.491 . S
C141 C140 1.400 . S
C141 C142 1.398 1_556 S
C142 H130 0.950 . S
C142 C141 1.398 1_554 S
C142 C143 1.391 1_554 S
C143 H131 0.948 1_556 S
C143 C139 1.394 . S
C143 C142 1.391 1_556 S
H144 C152 0.950 . S
H145 C157 0.950 . S
H146 C154 0.950 . S
H147 C156 0.950 . S
H148 C158 0.950 1_556 S
H149 C160 0.950 1_556 S
H150 C162 0.950 . S
H151 C163 0.950 . S
C152 H144 0.950 . S
C152 C153 1.386 . S
C152 C154 1.391 . S
C153 C152 1.386 . S
C153 C157 1.393 1_554 S
C154 H146 0.950 . S
C154 C152 1.391 . S
C154 C155 1.400 . S
C155 C154 1.400 . S
C155 C156 1.398 1_554 S
C155 C161 1.491 . S
C156 H147 0.950 . S
C156 C155 1.398 1_556 S
C156 C157 1.391 . S
C157 H145 0.950 . S
C157 C153 1.393 1_556 S
C157 C156 1.391 . S
C158 H148 0.950 1_554 S
C158 C159 1.386 . S
C158 C160 1.391 . S
C159 C158 1.386 . S
C159 C163 1.393 . S
C160 H149 0.950 1_554 S
C160 C158 1.391 . S
C160 C161 1.400 . S
C161 C155 1.491 . S
C161 C160 1.400 . S
C161 C162 1.398 . S
C162 H150 0.950 . S
C162 C161 1.398 . S
C162 C163 1.391 . S
C163 H151 0.950 . S
C163 C159 1.393 . S
C163 C162 1.391 . S
H164 C172 0.950 . S
H165 C177 0.950 . S
H166 C174 0.950 . S
H167 C176 0.950 . S
H168 C178 0.950 . S
H169 C180 0.950 . S
H170 C182 0.950 . S
H171 C183 0.950 . S
C172 H164 0.950 . S
C172 C173 1.386 1_556 S
C172 C174 1.391 . S
C173 C172 1.386 1_554 S
C173 C177 1.393 . S
C174 H166 0.950 . S
C174 C172 1.391 . S
C174 C175 1.400 1_556 S
C175 C174 1.400 1_554 S
C175 C176 1.398 . S
C175 C181 1.491 . S
C176 H167 0.950 . S
C176 C175 1.398 . S
C176 C177 1.391 . S
C177 H165 0.950 . S
C177 C173 1.393 . S
C177 C176 1.391 . S
C178 H168 0.950 . S
C178 C179 1.361 1_554 S
C178 C180 1.391 . S
C179 C178 1.361 1_556 S
C179 C183 1.412 . S
C180 H169 0.950 . S
C180 C178 1.391 . S
C180 C181 1.400 . S
C181 C175 1.491 . S
C181 C180 1.400 . S
C181 C182 1.398 1_554 S
C182 H170 0.950 . S
C182 C181 1.398 1_556 S
C182 C183 1.391 . S
C183 H171 0.950 . S
C183 C179 1.412 . S
C183 C182 1.391 . S
H184 C192 0.950 . S
H185 C197 0.950 . S
H186 C194 0.950 . S
H187 C196 0.950 . S
H188 C198 0.950 . S
H189 C200 0.950 . S
H190 C202 0.950 . S
H191 C203 0.950 . S
C192 H184 0.950 . S
C192 C193 1.386 . S
C192 C194 1.391 . S
C193 C192 1.386 . S
C193 C197 1.393 . S
C194 H186 0.950 . S
C194 C192 1.391 . S
C194 C195 1.400 . S
C195 C194 1.400 . S
C195 C196 1.398 . S
C195 C201 1.491 . S
C196 H187 0.950 . S
C196 C195 1.398 . S
C196 C197 1.391 . S
C197 H185 0.950 . S
C197 C193 1.393 . S
C197 C196 1.391 . S
C198 H188 0.950 . S
C198 C199 1.386 . S
C198 C200 1.391 . S
C199 C198 1.386 . S
C199 C203 1.393 . S
C200 H189 0.950 . S
C200 C198 1.391 . S
C200 C201 1.400 . S
C201 C195 1.491 . S
C201 C200 1.400 . S
C201 C202 1.398 . S
C202 H190 0.950 . S
C202 C201 1.398 . S
C202 C203 1.391 . S
C203 H191 0.950 . S
C203 C199 1.393 . S
C203 C202 1.391 . S
H204 C212 0.950 . S
H205 C217 0.950 . S
H206 C214 0.950 . S
H207 C216 0.950 . S
H208 C218 0.950 . S
H209 C220 0.950 . S
H210 C222 0.950 . S
H211 C223 0.950 . S
C212 H204 0.950 . S
C212 C213 1.386 . S
C212 C214 1.391 . S
C213 C212 1.386 . S
C213 C217 1.393 . S
C214 H206 0.950 . S
C214 C212 1.391 . S
C214 C215 1.400 . S
C215 C214 1.400 . S
C215 C216 1.398 . S
C215 C221 1.491 . S
C216 H207 0.950 . S
C216 C215 1.398 . S
C216 C217 1.391 . S
C217 H205 0.950 . S
C217 C213 1.393 . S
C217 C216 1.391 . S
C218 H208 0.950 . S
C218 C219 1.386 . S
C218 C220 1.391 . S
C219 C218 1.386 . S
C219 C223 1.393 . S
C220 H209 0.950 . S
C220 C218 1.391 . S
C220 C221 1.400 . S
C221 C215 1.491 . S
C221 C220 1.400 . S
C221 C222 1.398 . S
C222 H210 0.950 . S
C222 C221 1.398 . S
C222 C223 1.391 . S
C223 H211 0.950 . S
C223 C219 1.393 . S
C223 C222 1.391 . S
H224 C232 0.950 . S
H225 C237 0.950 . S
H226 C234 0.950 . S
H227 C236 0.950 . S
H228 C238 0.950 . S
H229 C240 0.950 . S
H230 C242 0.950 . S
H231 C243 0.950 . S
C232 H224 0.950 . S
C232 C233 1.386 . S
C232 C234 1.391 . S
C233 C232 1.386 . S
C233 C237 1.393 . S
C234 H226 0.950 . S
C234 C232 1.391 . S
C234 C235 1.400 . S
C235 C234 1.400 . S
C235 C236 1.398 . S
C235 C241 1.491 . S
C236 H227 0.950 . S
C236 C235 1.398 . S
C236 C237 1.391 . S
C237 H225 0.950 . S
C237 C233 1.393 . S
C237 C236 1.391 . S
C238 H228 0.950 . S
C238 C239 1.386 . S
C238 C240 1.391 . S
C239 C238 1.386 . S
C239 C243 1.393 . S
C240 H229 0.950 . S
C240 C238 1.391 . S
C240 C241 1.400 . S
C241 C235 1.491 . S
C241 C240 1.400 . S
C241 C242 1.398 . S
C242 H230 0.950 . S
C242 C241 1.398 . S
C242 C243 1.391 . S
C243 H231 0.950 . S
C243 C239 1.393 . S
C243 C242 1.391 . S
H244 C252 0.950 . S
H245 C257 0.950 . S
H246 C254 0.950 . S
H247 C256 0.950 . S
H248 C258 0.950 . S
H249 C260 0.950 . S
H250 C262 0.950 . S
H251 C263 0.950 . S
C252 H244 0.950 . S
C252 C253 1.386 . S
C252 C254 1.391 . S
C253 C252 1.386 . S
C253 C257 1.393 . S
C254 H246 0.950 . S
C254 C252 1.391 . S
C254 C255 1.400 . S
C255 C254 1.400 . S
C255 C256 1.398 . S
C255 C261 1.491 . S
C256 H247 0.950 . S
C256 C255 1.398 . S
C256 C257 1.391 . S
C257 H245 0.950 . S
C257 C253 1.393 . S
C257 C256 1.391 . S
C258 H248 0.950 . S
C258 C259 1.386 . S
C258 C260 1.391 . S
C259 C258 1.386 . S
C259 C263 1.393 . S
C260 H249 0.950 . S
C260 C258 1.391 . S
C260 C261 1.400 . S
C261 C255 1.491 . S
C261 C260 1.400 . S
C261 C262 1.398 . S
C262 H250 0.950 . S
C262 C261 1.398 . S
C262 C263 1.391 . S
C263 H251 0.950 . S
C263 C259 1.393 . S
C263 C262 1.391 . S
H264 C272 0.950 . S
H265 C277 0.947 1_455 S
H266 C274 0.950 . S
H267 C276 0.948 . S
H268 C278 0.950 . S
H269 C280 0.950 . S
H270 C282 0.950 . S
H271 C283 0.952 . S
C272 H264 0.950 . S
C272 C273 1.386 . S
C272 C274 1.391 . S
C273 C272 1.386 . S
C273 C277 1.393 1_545 S
C274 H266 0.950 . S
C274 C272 1.391 . S
C274 C275 1.401 . S
C275 C274 1.401 . S
C275 C276 1.400 1_545 S
C275 C281 1.490 1_655 S
C276 H267 0.948 . S
C276 C275 1.400 1_565 S
C276 C277 1.391 . S
C277 H265 0.947 1_655 S
C277 C273 1.393 1_565 S
C277 C276 1.391 . S
C278 H268 0.950 . S
C278 C279 1.386 1_565 S
C278 C280 1.391 . S
C279 C278 1.386 1_545 S
C279 C283 1.393 . S
C280 H269 0.950 . S
C280 C278 1.391 . S
C280 C281 1.400 1_565 S
C281 C275 1.490 1_455 S
C281 C280 1.400 1_545 S
C281 C282 1.398 . S
C282 H270 0.950 . S
C282 C281 1.398 . S
C282 C283 1.391 . S
C283 H271 0.952 . S
C283 C279 1.393 . S
C283 C282 1.391 . S
H284 C292 0.950 . S
H285 C297 0.950 . S
H286 C294 0.950 . S
H287 C296 0.950 . S
H288 C298 0.950 . S
H289 C300 0.950 . S
H290 C302 0.950 . S
H291 C303 0.950 . S
C292 H284 0.950 . S
C292 C293 1.386 1_455 S
C292 C294 1.391 . S
C293 C292 1.386 1_655 S
C293 C297 1.393 1_565 S
C294 H286 0.950 . S
C294 C292 1.391 . S
C294 C295 1.400 1_455 S
C295 C294 1.400 1_655 S
C295 C296 1.398 1_565 S
C295 C301 1.491 1_655 S
C296 H287 0.950 . S
C296 C295 1.398 1_545 S
C296 C297 1.391 . S
C297 H285 0.950 . S
C297 C293 1.393 1_545 S
C297 C296 1.391 . S
C298 H288 0.950 . S
C298 C299 1.377 1_645 S
C298 C300 1.391 . S
C299 C298 1.377 1_465 S
C299 C303 1.401 . S
C300 H289 0.950 . S
C300 C298 1.391 . S
C300 C301 1.397 1_645 S
C301 C295 1.491 1_455 S
C301 C300 1.397 1_465 S
C301 C302 1.402 . S
C302 H290 0.950 . S
C302 C301 1.402 . S
C302 C303 1.391 . S
C303 H291 0.950 . S
C303 C299 1.401 . S
C303 C302 1.391 . S
H304 C312 0.950 . S
H305 C317 0.950 . S
H306 C314 0.950 . S
H307 C316 0.950 . S
H308 C318 0.950 . S
H309 C320 0.950 . S
H310 C322 0.950 . S
H311 C323 0.950 . S
C312 H304 0.950 . S
C312 C313 1.386 . S
C312 C314 1.391 . S
C313 C312 1.386 . S
C313 C317 1.393 . S
C314 H306 0.950 . S
C314 C312 1.391 . S
C314 C315 1.400 . S
C315 C314 1.400 . S
C315 C316 1.398 . S
C315 C321 1.491 . S
C316 H307 0.950 . S
C316 C315 1.398 . S
C316 C317 1.391 . S
C317 H305 0.950 . S
C317 C313 1.393 . S
C317 C316 1.391 . S
C318 H308 0.950 . S
C318 C319 1.386 . S
C318 C320 1.391 . S
C319 C318 1.386 . S
C319 C323 1.393 . S
C320 H309 0.950 . S
C320 C318 1.391 . S
C320 C321 1.400 . S
C321 C315 1.491 . S
C321 C320 1.400 . S
C321 C322 1.398 . S
C322 H310 0.950 . S
C322 C321 1.398 . S
C322 C323 1.391 . S
C323 H311 0.950 . S
C323 C319 1.393 . S
C323 C322 1.391 . S
H324 C332 0.950 . S
H325 C337 0.950 . S
H326 C334 0.950 . S
H327 C336 0.950 . S
H328 C338 0.950 . S
H329 C340 0.950 . S
H330 C342 0.950 . S
H331 C343 0.950 . S
C332 H324 0.950 . S
C332 C333 1.386 . S
C332 C334 1.391 . S
C333 C332 1.386 . S
C333 C337 1.393 . S
C334 H326 0.950 . S
C334 C332 1.391 . S
C334 C335 1.400 . S
C335 C334 1.400 . S
C335 C336 1.398 . S
C335 C341 1.491 . S
C336 H327 0.950 . S
C336 C335 1.398 . S
C336 C337 1.391 . S
C337 H325 0.950 . S
C337 C333 1.393 . S
C337 C336 1.391 . S
C338 H328 0.950 . S
C338 C339 1.386 . S
C338 C340 1.391 . S
C339 C338 1.386 . S
C339 C343 1.393 . S
C340 H329 0.950 . S
C340 C338 1.391 . S
C340 C341 1.400 . S
C341 C335 1.491 . S
C341 C340 1.400 . S
C341 C342 1.398 . S
C342 H330 0.950 . S
C342 C341 1.398 . S
C342 C343 1.391 . S
C343 H331 0.950 . S
C343 C339 1.393 . S
C343 C342 1.391 . S
C119 C98 1.268 . S
C113 C27 1.476 . S
C133 N6 1.399 . S
C139 C87 1.239 . S
C153 C16 1.446 . S
C159 C101 1.420 . S
C173 N14 1.409 . S
C179 C90 1.408 . S
C193 C57 1.477 . S
C199 C76 1.235 . S
C213 N36 1.413 . S
C219 C65 1.210 . S
C239 C79 1.425 . S
C233 C46 1.445 . S
C259 C68 1.404 . S
C253 N44 1.414 . S
C273 C10 1.456 1_655 S
C279 C67 1.395 . S
C293 C1 1.529 1_565 S
C299 C78 1.473 . S
C319 C89 1.395 . S
C313 C40 1.456 . S
C333 C31 1.532 . S
C339 C100 1.479 . S
