# Generated by pormake.
# Topology gar, (4,6)-cn, num edge types: 1
# Building blocks:
#     Node 0, Type 0, BuildingBlock: QUQFOY_clean_sbu_3, # of connection points: 4
#     Node 1, Type 0, BuildingBlock: QUQFOY_clean_sbu_3, # of connection points: 4
#     Node 2, Type 0, BuildingBlock: QUQFOY_clean_sbu_3, # of connection points: 4
#     Node 3, Type 0, BuildingBlock: QUQFOY_clean_sbu_3, # of connection points: 4
#     Node 4, Type 0, BuildingBlock: QUQFOY_clean_sbu_3, # of connection points: 4
#     Node 5, Type 0, BuildingBlock: QUQFOY_clean_sbu_3, # of connection points: 4
#     Node 6, Type 0, BuildingBlock: QUQFOY_clean_sbu_3, # of connection points: 4
#     Node 7, Type 0, BuildingBlock: QUQFOY_clean_sbu_3, # of connection points: 4
#     Node 8, Type 0, BuildingBlock: QUQFOY_clean_sbu_3, # of connection points: 4
#     Node 9, Type 0, BuildingBlock: QUQFOY_clean_sbu_3, # of connection points: 4
#     Node 10, Type 0, BuildingBlock: QUQFOY_clean_sbu_3, # of connection points: 4
#     Node 11, Type 0, BuildingBlock: QUQFOY_clean_sbu_3, # of connection points: 4
#     Node 12, Type 0, BuildingBlock: QUQFOY_clean_sbu_3, # of connection points: 4
#     Node 13, Type 0, BuildingBlock: QUQFOY_clean_sbu_3, # of connection points: 4
#     Node 14, Type 0, BuildingBlock: QUQFOY_clean_sbu_3, # of connection points: 4
#     Node 15, Type 0, BuildingBlock: QUQFOY_clean_sbu_3, # of connection points: 4
#     Node 16, Type 0, BuildingBlock: QUQFOY_clean_sbu_3, # of connection points: 4
#     Node 17, Type 0, BuildingBlock: QUQFOY_clean_sbu_3, # of connection points: 4
#     Node 18, Type 0, BuildingBlock: QUQFOY_clean_sbu_3, # of connection points: 4
#     Node 19, Type 0, BuildingBlock: QUQFOY_clean_sbu_3, # of connection points: 4
#     Node 20, Type 0, BuildingBlock: QUQFOY_clean_sbu_3, # of connection points: 4
#     Node 21, Type 0, BuildingBlock: QUQFOY_clean_sbu_3, # of connection points: 4
#     Node 22, Type 0, BuildingBlock: QUQFOY_clean_sbu_3, # of connection points: 4
#     Node 23, Type 0, BuildingBlock: QUQFOY_clean_sbu_3, # of connection points: 4
#     Node 24, Type 1, BuildingBlock: BETFEN_clean_sbu_0, # of connection points: 6
#     Node 25, Type 1, BuildingBlock: BETFEN_clean_sbu_0, # of connection points: 6
#     Node 26, Type 1, BuildingBlock: BETFEN_clean_sbu_0, # of connection points: 6
#     Node 27, Type 1, BuildingBlock: BETFEN_clean_sbu_0, # of connection points: 6
#     Node 28, Type 1, BuildingBlock: BETFEN_clean_sbu_0, # of connection points: 6
#     Node 29, Type 1, BuildingBlock: BETFEN_clean_sbu_0, # of connection points: 6
#     Node 30, Type 1, BuildingBlock: BETFEN_clean_sbu_0, # of connection points: 6
#     Node 31, Type 1, BuildingBlock: BETFEN_clean_sbu_0, # of connection points: 6
#     Node 32, Type 1, BuildingBlock: BETFEN_clean_sbu_0, # of connection points: 6
#     Node 33, Type 1, BuildingBlock: BETFEN_clean_sbu_0, # of connection points: 6
#     Node 34, Type 1, BuildingBlock: BETFEN_clean_sbu_0, # of connection points: 6
#     Node 35, Type 1, BuildingBlock: BETFEN_clean_sbu_0, # of connection points: 6
#     Node 36, Type 1, BuildingBlock: BETFEN_clean_sbu_0, # of connection points: 6
#     Node 37, Type 1, BuildingBlock: BETFEN_clean_sbu_0, # of connection points: 6
#     Node 38, Type 1, BuildingBlock: BETFEN_clean_sbu_0, # of connection points: 6
#     Node 39, Type 1, BuildingBlock: BETFEN_clean_sbu_0, # of connection points: 6
#     Edge 40, Type (0, 1), BuildingBlock: TEMPAE_clean_linker_10, # of connection points: 2
#     Edge 41, Type (0, 1), BuildingBlock: TEMPAE_clean_linker_10, # of connection points: 2
#     Edge 42, Type (0, 1), BuildingBlock: TEMPAE_clean_linker_10, # of connection points: 2
#     Edge 43, Type (0, 1), BuildingBlock: TEMPAE_clean_linker_10, # of connection points: 2
#     Edge 44, Type (0, 1), BuildingBlock: TEMPAE_clean_linker_10, # of connection points: 2
#     Edge 45, Type (0, 1), BuildingBlock: TEMPAE_clean_linker_10, # of connection points: 2
#     Edge 46, Type (0, 1), BuildingBlock: TEMPAE_clean_linker_10, # of connection points: 2
#     Edge 47, Type (0, 1), BuildingBlock: TEMPAE_clean_linker_10, # of connection points: 2
#     Edge 48, Type (0, 1), BuildingBlock: TEMPAE_clean_linker_10, # of connection points: 2
#     Edge 49, Type (0, 1), BuildingBlock: TEMPAE_clean_linker_10, # of connection points: 2
#     Edge 50, Type (0, 1), BuildingBlock: TEMPAE_clean_linker_10, # of connection points: 2
#     Edge 51, Type (0, 1), BuildingBlock: TEMPAE_clean_linker_10, # of connection points: 2
#     Edge 52, Type (0, 1), BuildingBlock: TEMPAE_clean_linker_10, # of connection points: 2
#     Edge 53, Type (0, 1), BuildingBlock: TEMPAE_clean_linker_10, # of connection points: 2
#     Edge 54, Type (0, 1), BuildingBlock: TEMPAE_clean_linker_10, # of connection points: 2
#     Edge 55, Type (0, 1), BuildingBlock: TEMPAE_clean_linker_10, # of connection points: 2
#     Edge 56, Type (0, 1), BuildingBlock: TEMPAE_clean_linker_10, # of connection points: 2
#     Edge 57, Type (0, 1), BuildingBlock: TEMPAE_clean_linker_10, # of connection points: 2
#     Edge 58, Type (0, 1), BuildingBlock: TEMPAE_clean_linker_10, # of connection points: 2
#     Edge 59, Type (0, 1), BuildingBlock: TEMPAE_clean_linker_10, # of connection points: 2
#     Edge 60, Type (0, 1), BuildingBlock: TEMPAE_clean_linker_10, # of connection points: 2
#     Edge 61, Type (0, 1), BuildingBlock: TEMPAE_clean_linker_10, # of connection points: 2
#     Edge 62, Type (0, 1), BuildingBlock: TEMPAE_clean_linker_10, # of connection points: 2
#     Edge 63, Type (0, 1), BuildingBlock: TEMPAE_clean_linker_10, # of connection points: 2
#     Edge 64, Type (0, 1), BuildingBlock: TEMPAE_clean_linker_10, # of connection points: 2
#     Edge 65, Type (0, 1), BuildingBlock: TEMPAE_clean_linker_10, # of connection points: 2
#     Edge 66, Type (0, 1), BuildingBlock: TEMPAE_clean_linker_10, # of connection points: 2
#     Edge 67, Type (0, 1), BuildingBlock: TEMPAE_clean_linker_10, # of connection points: 2
#     Edge 68, Type (0, 1), BuildingBlock: TEMPAE_clean_linker_10, # of connection points: 2
#     Edge 69, Type (0, 1), BuildingBlock: TEMPAE_clean_linker_10, # of connection points: 2
#     Edge 70, Type (0, 1), BuildingBlock: TEMPAE_clean_linker_10, # of connection points: 2
#     Edge 71, Type (0, 1), BuildingBlock: TEMPAE_clean_linker_10, # of connection points: 2
#     Edge 72, Type (0, 1), BuildingBlock: TEMPAE_clean_linker_10, # of connection points: 2
#     Edge 73, Type (0, 1), BuildingBlock: TEMPAE_clean_linker_10, # of connection points: 2
#     Edge 74, Type (0, 1), BuildingBlock: TEMPAE_clean_linker_10, # of connection points: 2
#     Edge 75, Type (0, 1), BuildingBlock: TEMPAE_clean_linker_10, # of connection points: 2
#     Edge 76, Type (0, 1), BuildingBlock: TEMPAE_clean_linker_10, # of connection points: 2
#     Edge 77, Type (0, 1), BuildingBlock: TEMPAE_clean_linker_10, # of connection points: 2
#     Edge 78, Type (0, 1), BuildingBlock: TEMPAE_clean_linker_10, # of connection points: 2
#     Edge 79, Type (0, 1), BuildingBlock: TEMPAE_clean_linker_10, # of connection points: 2
#     Edge 80, Type (0, 1), BuildingBlock: TEMPAE_clean_linker_10, # of connection points: 2
#     Edge 81, Type (0, 1), BuildingBlock: TEMPAE_clean_linker_10, # of connection points: 2
#     Edge 82, Type (0, 1), BuildingBlock: TEMPAE_clean_linker_10, # of connection points: 2
#     Edge 83, Type (0, 1), BuildingBlock: TEMPAE_clean_linker_10, # of connection points: 2
#     Edge 84, Type (0, 1), BuildingBlock: TEMPAE_clean_linker_10, # of connection points: 2
#     Edge 85, Type (0, 1), BuildingBlock: TEMPAE_clean_linker_10, # of connection points: 2
#     Edge 86, Type (0, 1), BuildingBlock: TEMPAE_clean_linker_10, # of connection points: 2
#     Edge 87, Type (0, 1), BuildingBlock: TEMPAE_clean_linker_10, # of connection points: 2
#     Edge 88, Type (0, 1), BuildingBlock: TEMPAE_clean_linker_10, # of connection points: 2
#     Edge 89, Type (0, 1), BuildingBlock: TEMPAE_clean_linker_10, # of connection points: 2
#     Edge 90, Type (0, 1), BuildingBlock: TEMPAE_clean_linker_10, # of connection points: 2
#     Edge 91, Type (0, 1), BuildingBlock: TEMPAE_clean_linker_10, # of connection points: 2
#     Edge 92, Type (0, 1), BuildingBlock: TEMPAE_clean_linker_10, # of connection points: 2
#     Edge 93, Type (0, 1), BuildingBlock: TEMPAE_clean_linker_10, # of connection points: 2
#     Edge 94, Type (0, 1), BuildingBlock: TEMPAE_clean_linker_10, # of connection points: 2
#     Edge 95, Type (0, 1), BuildingBlock: TEMPAE_clean_linker_10, # of connection points: 2
#     Edge 96, Type (0, 1), BuildingBlock: TEMPAE_clean_linker_10, # of connection points: 2
#     Edge 97, Type (0, 1), BuildingBlock: TEMPAE_clean_linker_10, # of connection points: 2
#     Edge 98, Type (0, 1), BuildingBlock: TEMPAE_clean_linker_10, # of connection points: 2
#     Edge 99, Type (0, 1), BuildingBlock: TEMPAE_clean_linker_10, # of connection points: 2
#     Edge 100, Type (0, 1), BuildingBlock: TEMPAE_clean_linker_10, # of connection points: 2
#     Edge 101, Type (0, 1), BuildingBlock: TEMPAE_clean_linker_10, # of connection points: 2
#     Edge 102, Type (0, 1), BuildingBlock: TEMPAE_clean_linker_10, # of connection points: 2
#     Edge 103, Type (0, 1), BuildingBlock: TEMPAE_clean_linker_10, # of connection points: 2
#     Edge 104, Type (0, 1), BuildingBlock: TEMPAE_clean_linker_10, # of connection points: 2
#     Edge 105, Type (0, 1), BuildingBlock: TEMPAE_clean_linker_10, # of connection points: 2
#     Edge 106, Type (0, 1), BuildingBlock: TEMPAE_clean_linker_10, # of connection points: 2
#     Edge 107, Type (0, 1), BuildingBlock: TEMPAE_clean_linker_10, # of connection points: 2
#     Edge 108, Type (0, 1), BuildingBlock: TEMPAE_clean_linker_10, # of connection points: 2
#     Edge 109, Type (0, 1), BuildingBlock: TEMPAE_clean_linker_10, # of connection points: 2
#     Edge 110, Type (0, 1), BuildingBlock: TEMPAE_clean_linker_10, # of connection points: 2
#     Edge 111, Type (0, 1), BuildingBlock: TEMPAE_clean_linker_10, # of connection points: 2
#     Edge 112, Type (0, 1), BuildingBlock: TEMPAE_clean_linker_10, # of connection points: 2
#     Edge 113, Type (0, 1), BuildingBlock: TEMPAE_clean_linker_10, # of connection points: 2
#     Edge 114, Type (0, 1), BuildingBlock: TEMPAE_clean_linker_10, # of connection points: 2
#     Edge 115, Type (0, 1), BuildingBlock: TEMPAE_clean_linker_10, # of connection points: 2
#     Edge 116, Type (0, 1), BuildingBlock: TEMPAE_clean_linker_10, # of connection points: 2
#     Edge 117, Type (0, 1), BuildingBlock: TEMPAE_clean_linker_10, # of connection points: 2
#     Edge 118, Type (0, 1), BuildingBlock: TEMPAE_clean_linker_10, # of connection points: 2
#     Edge 119, Type (0, 1), BuildingBlock: TEMPAE_clean_linker_10, # of connection points: 2
#     Edge 120, Type (0, 1), BuildingBlock: TEMPAE_clean_linker_10, # of connection points: 2
#     Edge 121, Type (0, 1), BuildingBlock: TEMPAE_clean_linker_10, # of connection points: 2
#     Edge 122, Type (0, 1), BuildingBlock: TEMPAE_clean_linker_10, # of connection points: 2
#     Edge 123, Type (0, 1), BuildingBlock: TEMPAE_clean_linker_10, # of connection points: 2
#     Edge 124, Type (0, 1), BuildingBlock: TEMPAE_clean_linker_10, # of connection points: 2
#     Edge 125, Type (0, 1), BuildingBlock: TEMPAE_clean_linker_10, # of connection points: 2
#     Edge 126, Type (0, 1), BuildingBlock: TEMPAE_clean_linker_10, # of connection points: 2
#     Edge 127, Type (0, 1), BuildingBlock: TEMPAE_clean_linker_10, # of connection points: 2
#     Edge 128, Type (0, 1), BuildingBlock: TEMPAE_clean_linker_10, # of connection points: 2
#     Edge 129, Type (0, 1), BuildingBlock: TEMPAE_clean_linker_10, # of connection points: 2
#     Edge 130, Type (0, 1), BuildingBlock: TEMPAE_clean_linker_10, # of connection points: 2
#     Edge 131, Type (0, 1), BuildingBlock: TEMPAE_clean_linker_10, # of connection points: 2
#     Edge 132, Type (0, 1), BuildingBlock: TEMPAE_clean_linker_10, # of connection points: 2
#     Edge 133, Type (0, 1), BuildingBlock: TEMPAE_clean_linker_10, # of connection points: 2
#     Edge 134, Type (0, 1), BuildingBlock: TEMPAE_clean_linker_10, # of connection points: 2
#     Edge 135, Type (0, 1), BuildingBlock: TEMPAE_clean_linker_10, # of connection points: 2
# Relax obj value: 0.187
# Max RMSD: 0.315
# Mean RMSD: 0.160
data_MOF--net-gar--node1-QUQFOY_clean_sbu_3--node2-BETFEN_clean_sbu_0--edge1-TEMPAE_clean_linker_10
_symmetry_space_group_name_H-M    P1
_symmetry_Int_Tables_number       1
_symmetry_cell_setting            triclinic
loop_
_symmetry_equiv_pos_as_xyz
'x, y, z'
_cell_length_a     64.634263
_cell_length_b     58.513981
_cell_length_c     58.312654
_cell_angle_alpha  95.324123
_cell_angle_beta   98.719517
_cell_angle_gamma 102.32559
loop_
_atom_site_label
_atom_site_type_symbol
_atom_site_fract_x
_atom_site_fract_y
_atom_site_fract_z
_atom_type_partial_charge
C0 C 0.99365 0.32086 0.37795 0.0
O1 O 0.00772 0.33387 0.36887 0.0
Cd2 Cd 0.04551 0.34388 0.38189 0.0
O3 O 0.99926 0.31162 0.39631 0.0
Cd4 Cd 0.03523 0.3118 0.4219 0.0
C5 C 0.04766 0.37225 0.4369 0.0
O6 O 0.05307 0.30678 0.38813 0.0
O7 O 0.07423 0.31495 0.42134 0.0
O8 O 0.01797 0.2706 0.42703 0.0
C9 C 0.07176 0.30883 0.39952 0.0
O10 O 0.05263 0.37301 0.41663 0.0
C11 C 0.02915 0.27067 0.44692 0.0
O12 O 0.03932 0.35252 0.44332 0.0
O13 O 0.04194 0.29014 0.45595 0.0
C14 C 0.03744 0.82465 0.67529 0.0
O15 O 0.04904 0.81341 0.68721 0.0
Cd16 Cd 0.08325 0.80779 0.68065 0.0
O17 O 0.04359 0.83392 0.65772 0.0
Cd18 Cd 0.07514 0.83869 0.63622 0.0
C19 C 0.06924 0.77797 0.62408 0.0
O20 O 0.10024 0.84563 0.67292 0.0
O21 O 0.11534 0.84466 0.64271 0.0
O22 O 0.06592 0.87722 0.63315 0.0
C23 C 0.11748 0.84727 0.66484 0.0
O24 O 0.07601 0.77886 0.6459 0.0
C25 C 0.07014 0.87973 0.61286 0.0
O26 O 0.06601 0.79657 0.61544 0.0
O27 O 0.0763 0.86281 0.60268 0.0
C28 C 0.49171 0.82008 0.87769 0.0
O29 O 0.50576 0.8324 0.86804 0.0
Cd30 Cd 0.54362 0.84289 0.8807 0.0
O31 O 0.49737 0.81128 0.89632 0.0
Cd32 Cd 0.53335 0.81094 0.92141 0.0
C33 C 0.54608 0.87172 0.93563 0.0
O34 O 0.55252 0.80702 0.88893 0.0
O35 O 0.57291 0.81596 0.92268 0.0
O36 O 0.52322 0.76804 0.92211 0.0
C37 C 0.57113 0.80997 0.90087 0.0
O38 O 0.55027 0.87217 0.91502 0.0
C39 C 0.52709 0.76825 0.94412 0.0
O40 O 0.53836 0.85209 0.94268 0.0
O41 O 0.53251 0.78852 0.95624 0.0
C42 C 0.53774 0.32545 0.17301 0.0
O43 O 0.54873 0.31362 0.1849 0.0
Cd44 Cd 0.5814 0.30468 0.17703 0.0
O45 O 0.54408 0.33406 0.15519 0.0
Cd46 Cd 0.57563 0.33714 0.13346 0.0
C47 C 0.5652 0.27605 0.12018 0.0
O48 O 0.60111 0.34179 0.16976 0.0
O49 O 0.61547 0.34065 0.13902 0.0
O50 O 0.56892 0.3769 0.13092 0.0
C51 C 0.618 0.34242 0.16115 0.0
O52 O 0.57055 0.27564 0.14204 0.0
C53 C 0.57186 0.37849 0.11005 0.0
O54 O 0.56514 0.29558 0.11189 0.0
O55 O 0.57648 0.36071 0.09949 0.0
C56 C 0.05238 0.84015 0.18912 0.0
O57 O 0.06454 0.83147 0.20332 0.0
Cd58 Cd 0.09856 0.82521 0.19652 0.0
O59 O 0.05861 0.8474 0.17077 0.0
Cd60 Cd 0.09059 0.85271 0.15062 0.0
C61 C 0.08263 0.79258 0.14124 0.0
O62 O 0.11765 0.86123 0.18616 0.0
O63 O 0.13006 0.85488 0.1546 0.0
O64 O 0.08502 0.89247 0.14734 0.0
C65 C 0.13382 0.85986 0.17672 0.0
O66 O 0.08902 0.79419 0.16323 0.0
C67 C 0.08286 0.8913 0.12524 0.0
O68 O 0.08093 0.81095 0.13149 0.0
O69 O 0.08494 0.8722 0.11446 0.0
C70 C 0.47553 0.80454 0.37582 0.0
O71 O 0.48908 0.81372 0.36373 0.0
Cd72 Cd 0.52665 0.82743 0.3775 0.0
O73 O 0.48176 0.80001 0.39647 0.0
Cd74 Cd 0.51834 0.80224 0.42167 0.0
C75 C 0.52751 0.8619 0.42953 0.0
O76 O 0.53892 0.79484 0.39096 0.0
O77 O 0.5579 0.81191 0.42403 0.0
O78 O 0.50904 0.76068 0.42807 0.0
C79 C 0.55733 0.80176 0.4037 0.0
O80 O 0.5312 0.86007 0.40866 0.0
C81 C 0.51488 0.76406 0.45014 0.0
O82 O 0.52116 0.84344 0.43902 0.0
O83 O 0.52087 0.78547 0.45948 0.0
C84 C 0.55442 0.34037 0.68323 0.0
O85 O 0.56611 0.33107 0.69733 0.0
Cd86 Cd 0.59934 0.32267 0.69052 0.0
O87 O 0.56075 0.34716 0.66475 0.0
Cd88 Cd 0.59261 0.3503 0.64439 0.0
C89 C 0.58174 0.29007 0.63534 0.0
O90 O 0.61959 0.35778 0.6798 0.0
O91 O 0.63155 0.3502 0.64821 0.0
O92 O 0.58889 0.39053 0.64066 0.0
C93 C 0.63548 0.35536 0.6703 0.0
O94 O 0.58821 0.2916 0.65731 0.0
C95 C 0.58778 0.38939 0.61866 0.0
O96 O 0.58096 0.30857 0.62548 0.0
O97 O 0.58932 0.36992 0.60813 0.0
C98 C 0.98437 0.31235 0.87058 0.0
O99 O 0.99818 0.32254 0.85929 0.0
Cd100 Cd 0.03554 0.33657 0.87428 0.0
O101 O 0.9902 0.3069 0.89093 0.0
Cd102 Cd 0.02618 0.30861 0.91683 0.0
C103 C 0.03441 0.3682 0.9273 0.0
O104 O 0.04771 0.30352 0.88647 0.0
O105 O 0.06571 0.31753 0.92091 0.0
O106 O 0.01589 0.26635 0.91986 0.0
C107 C 0.06574 0.30914 0.90008 0.0
O108 O 0.03861 0.36742 0.90662 0.0
C109 C 0.02197 0.26793 0.9418 0.0
O110 O 0.02814 0.34914 0.93593 0.0
O111 O 0.0283 0.28872 0.95276 0.0
C112 C 0.51072 0.17058 0.35871 0.0
O113 O 0.52115 0.16492 0.34314 0.0
Cd114 Cd 0.51198 0.16111 0.30175 0.0
O115 O 0.49277 0.17624 0.35302 0.0
Cd116 Cd 0.47099 0.17848 0.31421 0.0
C117 C 0.46593 0.11959 0.29917 0.0
O118 O 0.49969 0.19574 0.29431 0.0
O119 O 0.46955 0.18029 0.27197 0.0
O120 O 0.45458 0.21107 0.32576 0.0
C121 C 0.48873 0.19205 0.2739 0.0
O122 O 0.48425 0.12401 0.29287 0.0
C123 C 0.43561 0.19942 0.31681 0.0
O124 O 0.45871 0.13609 0.30847 0.0
O125 O 0.43344 0.17803 0.30867 0.0
C126 C 0.30286 0.178 0.51144 0.0
O127 O 0.2897 0.164 0.52075 0.0
Cd128 Cd 0.25647 0.16999 0.52998 0.0
O129 O 0.2983 0.19684 0.50472 0.0
Cd130 Cd 0.26733 0.21761 0.50168 0.0
C131 C 0.27543 0.2261 0.56196 0.0
O132 O 0.23991 0.18084 0.49495 0.0
O133 O 0.22716 0.21162 0.49847 0.0
O134 O 0.27807 0.2247 0.46357 0.0
C135 C 0.22353 0.18928 0.49558 0.0
O136 O 0.26819 0.20387 0.56042 0.0
C137 C 0.27568 0.2457 0.46392 0.0
O138 O 0.27728 0.23623 0.5436 0.0
O139 O 0.26934 0.25401 0.48186 0.0
C140 C 0.17333 0.12736 0.91309 0.0
O141 O 0.16724 0.14477 0.9051 0.0
Cd142 Cd 0.1744 0.15716 0.86845 0.0
O143 O 0.18667 0.11794 0.90394 0.0
Cd144 Cd 0.20814 0.12443 0.87273 0.0
C145 C 0.22724 0.18423 0.87665 0.0
O146 O 0.17529 0.12159 0.84506 0.0
O147 O 0.20447 0.12475 0.83062 0.0
O148 O 0.21076 0.08337 0.87026 0.0
C149 C 0.18425 0.12232 0.82721 0.0
O150 O 0.20785 0.18592 0.87144 0.0
C151 C 0.23115 0.08784 0.87407 0.0
O152 O 0.23151 0.16446 0.88033 0.0
O153 O 0.24092 0.10944 0.87797 0.0
C154 C 0.35634 0.98433 0.04081 0.0
O155 O 0.34487 0.99581 0.0291 0.0
Cd156 Cd 0.30737 0.98379 0.01561 0.0
O157 O 0.34769 0.96486 0.0475 0.0
Cd158 Cd 0.30975 0.94052 0.04624 0.0
C159 C 0.30365 0.92836 0.98624 0.0
O160 O 0.29422 0.97441 0.05026 0.0
O161 O 0.27071 0.94155 0.04117 0.0
O162 O 0.31805 0.9389 0.08844 0.0
C163 C 0.27466 0.96371 0.04693 0.0
O164 O 0.30344 0.95005 0.98603 0.0
C165 C 0.31317 0.91665 0.08772 0.0
O166 O 0.30582 0.91966 0.00557 0.0
O167 O 0.30724 0.90486 0.06743 0.0
C168 C 0.3667 0.47895 0.04463 0.0
O169 O 0.35358 0.48926 0.03374 0.0
Cd170 Cd 0.31561 0.47579 0.02361 0.0
O171 O 0.35974 0.45926 0.05201 0.0
Cd172 Cd 0.32233 0.43256 0.05098 0.0
C173 C 0.31357 0.4228 0.99092 0.0
O174 O 0.30385 0.46455 0.05841 0.0
O175 O 0.28305 0.43046 0.04609 0.0
O176 O 0.33543 0.42483 0.09134 0.0
C177 C 0.28491 0.4518 0.05416 0.0
O178 O 0.30977 0.44332 0.99222 0.0
C179 C 0.3248 0.40356 0.08887 0.0
O180 O 0.32002 0.41443 0.00951 0.0
O181 O 0.31423 0.39526 0.06854 0.0
C182 C 0.81862 0.18276 0.0342 0.0
O183 O 0.80571 0.17345 0.04694 0.0
Cd184 Cd 0.77202 0.18232 0.05085 0.0
O185 O 0.81463 0.1994 0.02274 0.0
Cd186 Cd 0.78549 0.22236 0.01778 0.0
C187 C 0.78989 0.23943 0.07724 0.0
O188 O 0.75745 0.18629 0.01191 0.0
O189 O 0.74564 0.21779 0.01414 0.0
O190 O 0.79433 0.22455 0.97814 0.0
C191 C 0.74139 0.19545 0.01052 0.0
O192 O 0.7796 0.21848 0.07799 0.0
C193 C 0.79157 0.24515 0.97618 0.0
O194 O 0.79598 0.24559 0.05836 0.0
O195 O 0.78689 0.25588 0.99397 0.0
C196 C 0.09191 0.47366 0.25082 0.0
O197 O 0.08047 0.48015 0.23406 0.0
Cd198 Cd 0.08934 0.4887 0.19702 0.0
O199 O 0.11047 0.47027 0.24892 0.0
Cd200 Cd 0.13473 0.47257 0.21943 0.0
C201 C 0.13591 0.53124 0.21799 0.0
O202 O 0.10723 0.4593 0.18612 0.0
O203 O 0.13814 0.47264 0.17737 0.0
O204 O 0.14947 0.43848 0.22784 0.0
C205 C 0.11806 0.46497 0.17034 0.0
O206 O 0.11671 0.52592 0.20655 0.0
C207 C 0.16812 0.45082 0.23693 0.0
O208 O 0.14506 0.51539 0.22534 0.0
O209 O 0.17118 0.47303 0.23744 0.0
C210 C 0.86299 0.97726 0.54306 0.0
O211 O 0.8497 0.98772 0.53273 0.0
Cd212 Cd 0.81166 0.97459 0.52361 0.0
O213 O 0.85621 0.95757 0.55052 0.0
Cd214 Cd 0.81892 0.93113 0.5505 0.0
C215 C 0.80879 0.92155 0.49052 0.0
O216 O 0.80052 0.96304 0.55857 0.0
O217 O 0.77977 0.92888 0.54638 0.0
O218 O 0.83242 0.92341 0.59069 0.0
C219 C 0.78162 0.95017 0.55457 0.0
O220 O 0.80518 0.94215 0.49213 0.0
C221 C 0.82183 0.90212 0.58824 0.0
O222 O 0.81553 0.91303 0.5089 0.0
O223 O 0.81119 0.8938 0.56794 0.0
C224 C 0.92717 0.0153 0.22262 0.0
O225 O 0.93447 1.00228 0.20874 0.0
Cd226 Cd 0.9213 0.99604 0.168 0.0
O227 O 0.9125 0.02562 0.21497 0.0
Cd228 Cd 0.89083 0.02983 0.1774 0.0
C229 C 0.86956 0.97087 0.17165 0.0
O230 O 0.92321 0.03679 0.16237 0.0
O231 O 0.89537 0.03596 0.13636 0.0
O232 O 0.89046 0.06747 0.19878 0.0
C233 C 0.91566 0.04078 0.1423 0.0
O234 O 0.88738 0.96742 0.16718 0.0
C235 C 0.87126 0.06734 0.18983 0.0
O236 O 0.86701 0.9917 0.17555 0.0
O237 O 0.86123 0.0498 0.17488 0.0
C238 C 0.31711 0.68004 0.53784 0.0
O239 O 0.30333 0.66892 0.54866 0.0
Cd240 Cd 0.26963 0.67704 0.55336 0.0
O241 O 0.31383 0.69813 0.52836 0.0
Cd242 Cd 0.28414 0.72054 0.52343 0.0
C243 C 0.28635 0.73359 0.58305 0.0
O244 O 0.25648 0.68421 0.51523 0.0
O245 O 0.24408 0.71525 0.51833 0.0
O246 O 0.29358 0.72467 0.48435 0.0
C247 C 0.24019 0.69298 0.51392 0.0
O248 O 0.27704 0.71195 0.58221 0.0
C249 C 0.29121 0.74556 0.48343 0.0
O250 O 0.29241 0.74163 0.56485 0.0
O251 O 0.28652 0.75557 0.50162 0.0
C252 C 0.41685 0.52228 0.72516 0.0
O253 O 0.42548 0.51061 0.71142 0.0
Cd254 Cd 0.41479 0.50566 0.67026 0.0
O255 O 0.40189 0.53211 0.71721 0.0
Cd256 Cd 0.38146 0.53691 0.67894 0.0
C257 C 0.36314 0.47713 0.67088 0.0
O258 O 0.41494 0.54641 0.66691 0.0
O259 O 0.38884 0.54702 0.63943 0.0
O260 O 0.37867 0.57297 0.70099 0.0
C261 C 0.40895 0.55203 0.64705 0.0
O262 O 0.38165 0.47528 0.66721 0.0
C263 C 0.35961 0.57226 0.69107 0.0
O264 O 0.35923 0.49735 0.67492 0.0
O265 O 0.35065 0.55494 0.67542 0.0
C266 C 0.59231 0.97572 0.75408 0.0
O267 O 0.58098 0.98356 0.73825 0.0
Cd268 Cd 0.58846 0.99186 0.70062 0.0
O269 O 0.61024 0.97119 0.75103 0.0
Cd270 Cd 0.63353 0.97365 0.72059 0.0
C271 C 0.63633 0.03286 0.7192 0.0
O272 O 0.60466 0.96118 0.68862 0.0
O273 O 0.63516 0.97198 0.67797 0.0
O274 O 0.64807 0.93923 0.72817 0.0
C275 C 0.61486 0.96544 0.67205 0.0
O276 O 0.61666 0.02838 0.70927 0.0
C277 C 0.66679 0.95138 0.73722 0.0
O278 O 0.6452 0.01645 0.72552 0.0
O279 O 0.66999 0.97363 0.73796 0.0
C280 C 0.80293 0.67824 0.01255 0.0
O281 O 0.78965 0.6644 0.02189 0.0
Cd282 Cd 0.75563 0.6697 0.0293 0.0
O283 O 0.79821 0.69671 0.00506 0.0
Cd284 Cd 0.76688 0.71699 1.00111 0.0
C285 C 0.77294 0.72572 0.06136 0.0
O286 O 0.73972 0.67989 0.99351 0.0
O287 O 0.72664 0.71051 0.99622 0.0
O288 O 0.77846 0.7247 0.9635 0.0
C289 C 0.72316 0.68819 0.99326 0.0
O290 O 0.76583 0.70347 0.0598 0.0
C291 C 0.77566 0.74554 0.96383 0.0
O292 O 0.77543 0.73576 0.04305 0.0
O293 O 0.76882 0.75349 0.98157 0.0
C294 C 0.01123 0.67353 0.86088 0.0
O295 O 0.02122 0.66769 0.84495 0.0
Cd296 Cd 0.01131 0.66356 0.80355 0.0
O297 O 0.99327 0.67929 0.85567 0.0
Cd298 Cd 0.97073 0.68119 0.81721 0.0
C299 C 0.96538 0.62228 0.80212 0.0
O300 O 0.99853 0.69779 0.79572 0.0
O301 O 0.96776 0.68194 0.7748 0.0
O302 O 0.95436 0.71396 0.8283 0.0
C303 C 0.98683 0.69355 0.77567 0.0
O304 O 0.98344 0.6266 0.79524 0.0
C305 C 0.93532 0.7019 0.82035 0.0
O306 O 0.95847 0.63882 0.81181 0.0
O307 O 0.93318 0.68027 0.81311 0.0
C308 C 0.85074 0.4826 0.53123 0.0
O309 O 0.83891 0.49364 0.51942 0.0
Cd310 Cd 0.80151 0.47981 0.50675 0.0
O311 O 0.84255 0.46306 0.53813 0.0
Cd312 Cd 0.80517 0.43721 0.53743 0.0
C313 C 0.7998 0.42475 0.47757 0.0
O314 O 0.79045 0.47195 0.54302 0.0
O315 O 0.76664 0.43933 0.53612 0.0
O316 O 0.82336 0.43177 0.57657 0.0
C317 C 0.77096 0.46152 0.5415 0.0
O318 O 0.79899 0.44626 0.47722 0.0
C319 C 0.8108 0.41235 0.57817 0.0
O320 O 0.8019 0.41615 0.49695 0.0
O321 O 0.79612 0.40376 0.56055 0.0
C322 C 0.66419 0.61289 0.3957 0.0
O323 O 0.6561 0.62299 0.37935 0.0
Cd324 Cd 0.6682 0.62939 0.34346 0.0
O325 O 0.68166 0.60625 0.39497 0.0
Cd326 Cd 0.70802 0.60606 0.36832 0.0
C327 C 0.71923 0.66464 0.36137 0.0
O328 O 0.67911 0.59372 0.33609 0.0
O329 O 0.71009 0.59556 0.32654 0.0
O330 O 0.71359 0.57023 0.38371 0.0
C331 C 0.6899 0.59158 0.32007 0.0
O332 O 0.69994 0.66178 0.35079 0.0
C333 C 0.73395 0.57589 0.38615 0.0
O334 O 0.72573 0.64785 0.37041 0.0
O335 O 0.74228 0.59613 0.38124 0.0
Pr336 Pr 0.02405 0.06595 0.02001 0.0
Pr337 Pr 0.07317 0.08781 0.04077 0.0
C338 C 0.98091 0.05206 0.01291 0.0
C339 C 0.96421 0.06577 0.01193 0.0
C340 C 0.94327 0.05542 0.01478 0.0
C341 C 0.92795 0.06908 0.01552 0.0
C342 C 0.93336 0.09333 0.01338 0.0
C343 C 0.95426 0.10344 0.00996 0.0
C344 C 0.9695 0.08981 0.00931 0.0
C345 C 0.05298 0.05943 0.9905 0.0
C346 C 0.04448 0.1208 0.01177 0.0
C347 C 0.1162 0.10281 0.04971 0.0
C348 C 0.13325 0.08961 0.05226 0.0
C349 C 0.15293 0.09823 0.0452 0.0
C350 C 0.16817 0.08442 0.04524 0.0
C351 C 0.16397 0.06183 0.05246 0.0
C352 C 0.14446 0.05357 0.06011 0.0
C353 C 0.12923 0.06729 0.05992 0.0
C354 C 0.04362 0.09403 0.06965 0.0
C355 C 0.0533 0.03295 0.04886 0.0
O356 O 0.99298 0.05377 0.03347 0.0
O357 O 0.99193 0.05331 0.99578 0.0
O358 O 0.05543 0.05799 0.01203 0.0
O359 O 0.03405 0.06285 0.9828 0.0
O360 O 0.06395 0.11696 0.0179 0.0
O361 O 0.02703 0.10548 0.01443 0.0
O362 O 0.10488 0.10027 0.02863 0.0
O363 O 0.10441 0.10198 0.06615 0.0
O364 O 0.04186 0.09599 0.04831 0.0
O365 O 0.06202 0.08947 0.07757 0.0
O366 O 0.03373 0.03657 0.04249 0.0
O367 O 0.0707 0.04842 0.04633 0.0
H368 H 0.9389 0.03691 0.01696 0.0
H369 H 0.91207 0.0608 0.01843 0.0
H370 H 0.95889 0.12195 0.00794 0.0
H371 H 0.98554 0.09813 0.00704 0.0
H372 H 0.15623 0.11531 0.03902 0.0
H373 H 0.18314 0.0913 0.03942 0.0
H374 H 0.14067 0.03618 0.06556 0.0
H375 H 0.11408 0.06021 0.06528 0.0
Pr376 Pr 0.31674 0.85282 0.29626 0.0
Pr377 Pr 0.28574 0.80685 0.27261 0.0
C378 C 0.34742 0.88878 0.32108 0.0
C379 C 0.35964 0.91162 0.31673 0.0
C380 C 0.36803 0.92969 0.33537 0.0
C381 C 0.37993 0.95142 0.33149 0.0
C382 C 0.38372 0.95538 0.30888 0.0
C383 C 0.37509 0.9372 0.29019 0.0
C384 C 0.36307 0.91552 0.29407 0.0
C385 C 0.27584 0.85802 0.27716 0.0
C386 C 0.30895 0.84558 0.23978 0.0
C387 C 0.25491 0.77199 0.24633 0.0
C388 C 0.24375 0.74714 0.24567 0.0
C389 C 0.25465 0.72883 0.24419 0.0
C390 C 0.2434 0.70535 0.24248 0.0
C391 C 0.22113 0.69982 0.24235 0.0
C392 C 0.21033 0.71817 0.24415 0.0
C393 C 0.22153 0.7416 0.24568 0.0
C394 C 0.32675 0.80161 0.29098 0.0
C395 C 0.29416 0.81386 0.3295 0.0
O396 O 0.35156 0.87017 0.31019 0.0
O397 O 0.32691 0.88693 0.32119 0.0
O398 O 0.27954 0.84142 0.28841 0.0
O399 O 0.29351 0.87339 0.27684 0.0
O400 O 0.29179 0.82935 0.24162 0.0
O401 O 0.32376 0.85522 0.25828 0.0
O402 O 0.25093 0.78726 0.26194 0.0
O403 O 0.27499 0.77653 0.24331 0.0
O404 O 0.32285 0.8183 0.28 0.0
O405 O 0.30923 0.78591 0.29106 0.0
O406 O 0.31038 0.83137 0.32781 0.0
O407 O 0.27993 0.80308 0.31088 0.0
H408 H 0.36537 0.92698 0.35292 0.0
H409 H 0.38599 0.9652 0.34619 0.0
H410 H 0.37786 0.9396 0.27262 0.0
H411 H 0.3566 0.90174 0.27942 0.0
H412 H 0.27179 0.73257 0.24416 0.0
H413 H 0.25212 0.69152 0.24131 0.0
H414 H 0.19312 0.71437 0.2438 0.0
H415 H 0.21276 0.75542 0.2466 0.0
Pr416 Pr 0.57369 0.07915 0.53792 0.0
Pr417 Pr 0.52359 0.07283 0.52344 0.0
C418 C 0.61401 0.07517 0.5537 0.0
C419 C 0.62734 0.05764 0.55545 0.0
C420 C 0.62402 0.03832 0.53803 0.0
C421 C 0.63833 0.02337 0.53887 0.0
C422 C 0.6561 0.0274 0.5572 0.0
C423 C 0.65872 0.04614 0.57513 0.0
C424 C 0.64449 0.06112 0.57422 0.0
C425 C 0.56046 0.10181 0.50045 0.0
C426 C 0.54365 0.02909 0.50556 0.0
C427 C 0.48264 0.0752 0.50831 0.0
C428 C 0.46792 0.09123 0.5059 0.0
C429 C 0.47298 0.11378 0.5188 0.0
C430 C 0.45783 0.1278 0.51748 0.0
C431 C 0.4374 0.11948 0.50323 0.0
C432 C 0.43277 0.09707 0.48994 0.0
C433 C 0.44788 0.08315 0.49126 0.0
C434 C 0.53731 0.04974 0.56055 0.0
C435 C 0.55393 0.12312 0.55534 0.0
O436 O 0.59933 0.07415 0.56701 0.0
O437 O 0.60775 0.08028 0.53274 0.0
O438 O 0.55163 0.08128 0.50374 0.0
O439 O 0.57768 0.11087 0.51595 0.0
O440 O 0.52755 0.03953 0.50076 0.0
O441 O 0.56146 0.03963 0.52044 0.0
O442 O 0.4971 0.07661 0.49469 0.0
O443 O 0.48972 0.07144 0.52956 0.0
O444 O 0.54562 0.07044 0.55735 0.0
O445 O 0.52022 0.04064 0.54493 0.0
O446 O 0.56991 0.11254 0.56019 0.0
O447 O 0.536 0.11265 0.54056 0.0
H448 H 0.61072 0.03514 0.5235 0.0
H449 H 0.63569 0.00887 0.52498 0.0
H450 H 0.67229 0.04983 0.5894 0.0
H451 H 0.64727 0.07589 0.58786 0.0
H452 H 0.48843 0.12033 0.53018 0.0
H453 H 0.46204 0.14504 0.52777 0.0
H454 H 0.41714 0.08986 0.47911 0.0
H455 H 0.44366 0.06575 0.48127 0.0
Pr456 Pr 0.27799 0.31374 0.77541 0.0
Pr457 Pr 0.32623 0.33966 0.77783 0.0
C458 C 0.23965 0.28936 0.78257 0.0
C459 C 0.22539 0.29048 0.79971 0.0
C460 C 0.20669 0.27268 0.79777 0.0
C461 C 0.19208 0.27442 0.81285 0.0
C462 C 0.19596 0.29406 0.83009 0.0
C463 C 0.21518 0.31146 0.83251 0.0
C464 C 0.2298 0.30968 0.81742 0.0
C465 C 0.28477 0.35524 0.75495 0.0
C466 C 0.30485 0.3498 0.82391 0.0
C467 C 0.36406 0.36482 0.77008 0.0
C468 C 0.38093 0.36237 0.75631 0.0
C469 C 0.38606 0.3405 0.75151 0.0
C470 C 0.40316 0.33883 0.73984 0.0
C471 C 0.41535 0.35898 0.73265 0.0
C472 C 0.40956 0.38067 0.73673 0.0
C473 C 0.39252 0.38233 0.74848 0.0
C474 C 0.31957 0.29778 0.79776 0.0
C475 C 0.29908 0.30261 0.72945 0.0
O476 O 0.25781 0.28366 0.7898 0.0
O477 O 0.24174 0.3065 0.76961 0.0
O478 O 0.29503 0.35225 0.77423 0.0
O479 O 0.26933 0.33692 0.74647 0.0
O480 O 0.31947 0.35934 0.8118 0.0
O481 O 0.2891 0.33137 0.81457 0.0
O482 O 0.34548 0.36608 0.75842 0.0
O483 O 0.36235 0.35203 0.78725 0.0
O484 O 0.30928 0.30124 0.77874 0.0
O485 O 0.33539 0.3158 0.80609 0.0
O486 O 0.28373 0.29428 0.74114 0.0
O487 O 0.31571 0.32014 0.73898 0.0
H488 H 0.20311 0.25773 0.78421 0.0
H489 H 0.17734 0.26086 0.81038 0.0
H490 H 0.21874 0.32663 0.84581 0.0
H491 H 0.24428 0.32351 0.8192 0.0
H492 H 0.37718 0.32481 0.75724 0.0
H493 H 0.40728 0.3219 0.7372 0.0
H494 H 0.41836 0.39643 0.73106 0.0
H495 H 0.38861 0.39931 0.75182 0.0
Pr496 Pr 0.03597 0.0585 0.5019 0.0
Pr497 Pr 0.06028 0.09004 0.55399 0.0
C498 C 0.00609 0.03156 0.46771 0.0
C499 C 0.99864 0.03105 0.44274 0.0
C500 C 1.0019 0.05185 0.43227 0.0
C501 C 0.99431 0.05116 0.40847 0.0
C502 C 0.98353 0.02963 0.39483 0.0
C503 C 0.98066 0.00881 0.40541 0.0
C504 C 0.98813 0.00955 0.42924 0.0
C505 C 0.07837 0.08317 0.50117 0.0
C506 C 0.03827 0.11654 0.51027 0.0
C507 C 0.08914 0.11675 0.58925 0.0
C508 C 0.09586 0.11676 0.61448 0.0
C509 C 0.09442 0.13576 0.63019 0.0
C510 C 0.10089 0.13617 0.65419 0.0
C511 C 0.10913 0.11766 0.66284 0.0
C512 C 0.11041 0.09857 0.64703 0.0
C513 C 0.10375 0.09806 0.62309 0.0
C514 C 0.01787 0.06512 0.55427 0.0
C515 C 0.05752 0.03192 0.54577 0.0
O516 O 1.00229 0.04872 0.48145 0.0
O517 O 0.02521 0.02731 0.4736 0.0
O518 O 0.06831 0.08207 0.51802 0.0
O519 O 0.06611 0.06974 0.48291 0.0
O520 O 0.05083 0.11862 0.53098 0.0
O521 O 0.02949 0.09601 0.49702 0.0
O522 O 0.09368 0.10037 0.57518 0.0
O523 O 0.07011 0.12094 0.58267 0.0
O524 O 0.02829 0.0664 0.53779 0.0
O525 O 0.02986 0.07839 0.57274 0.0
O526 O 0.0442 0.03005 0.52561 0.0
O527 O 0.06747 0.05257 0.55832 0.0
H528 H 0.01012 0.06861 0.44254 0.0
H529 H 0.99658 0.06751 0.40084 0.0
H530 H 0.97276 0.99191 0.39525 0.0
H531 H 0.98568 0.99335 0.43713 0.0
H532 H 0.08831 0.15032 0.6239 0.0
H533 H 0.09947 0.15098 0.66596 0.0
H534 H 0.11703 0.08424 0.65309 0.0
H535 H 0.105 0.08312 0.61139 0.0
Pr536 Pr 0.29063 0.80688 0.78527 0.0
Pr537 Pr 0.30701 0.85654 0.78512 0.0
C538 C 0.27156 0.76059 0.7756 0.0
C539 C 0.2779 0.7404 0.76445 0.0
C540 C 0.26504 0.71762 0.76288 0.0
C541 C 0.27141 0.69839 0.75247 0.0
C542 C 0.29072 0.70178 0.74351 0.0
C543 C 0.30338 0.72478 0.7449 0.0
C544 C 0.29701 0.74393 0.75531 0.0
C545 C 0.29185 0.83327 0.82841 0.0
C546 C 0.3411 0.8239 0.80314 0.0
C547 C 0.32558 0.90284 0.79631 0.0
C548 C 0.31918 0.92268 0.8083 0.0
C549 C 0.32688 0.94563 0.80348 0.0
C550 C 0.3197 0.96436 0.81371 0.0
C551 C 0.30473 0.96035 0.82893 0.0
C552 C 0.29747 0.93735 0.83415 0.0
C553 C 0.30457 0.91864 0.82383 0.0
C554 C 0.30584 0.83058 0.74173 0.0
C555 C 0.25665 0.83893 0.76588 0.0
O556 O 0.26766 0.77611 0.76185 0.0
O557 O 0.28313 0.77019 0.7959 0.0
O558 O 0.28484 0.83867 0.80873 0.0
O559 O 0.29815 0.81375 0.82625 0.0
O560 O 0.33623 0.84461 0.80605 0.0
O561 O 0.32682 0.80581 0.79083 0.0
O562 O 0.32989 0.88682 0.80925 0.0
O563 O 0.31407 0.89387 0.77582 0.0
O564 O 0.31254 0.82474 0.76135 0.0
O565 O 0.30051 0.85065 0.74416 0.0
O566 O 0.26161 0.81825 0.76362 0.0
O567 O 0.2707 0.85725 0.7781 0.0
H568 H 0.25018 0.71472 0.76978 0.0
H569 H 0.26125 0.68088 0.75142 0.0
H570 H 0.31848 0.72793 0.73848 0.0
H571 H 0.30711 0.76149 0.75647 0.0
H572 H 0.33814 0.94901 0.79152 0.0
H573 H 0.3257 0.98196 0.80956 0.0
H574 H 0.28575 0.93367 0.84558 0.0
H575 H 0.29831 0.90094 0.82759 0.0
Pr576 Pr 0.5643 0.07373 0.05782 0.0
Pr577 Pr 0.54411 0.07244 1.00114 0.0
C578 C 0.57814 0.08846 0.10357 0.0
C579 C 0.57328 0.10606 0.1201 0.0
C580 C 0.58566 0.11237 0.14256 0.0
C581 C 0.58034 0.12838 0.15866 0.0
C582 C 0.56267 0.13835 0.15235 0.0
C583 C 0.55075 0.13253 0.12956 0.0
C584 C 0.55598 0.11641 0.11356 0.0
C585 C 0.56637 0.032 0.03047 0.0
C586 C 0.51195 0.05233 0.0381 0.0
C587 C 0.53144 0.0562 0.95559 0.0
C588 C 0.53833 0.03953 0.93975 0.0
C589 C 0.52439 0.028 0.91927 0.0
C590 C 0.53139 0.01319 0.90346 0.0
C591 C 0.55247 0.00986 0.90792 0.0
C592 C 0.56602 0.02051 0.92906 0.0
C593 C 0.55895 0.03515 0.94493 0.0
C594 C 0.54181 0.11422 0.02806 0.0
C595 C 0.59599 0.096 0.02129 0.0
O596 O 0.58844 0.09692 0.08739 0.0
O597 O 0.56236 0.06995 0.09561 0.0
O598 O 0.55979 0.04948 0.02409 0.0
O599 O 0.5735 0.03627 0.0529 0.0
O600 O 0.51553 0.05143 0.01632 0.0
O601 O 0.52688 0.06298 0.05634 0.0
O602 O 0.52157 0.04704 0.97176 0.0
O603 O 0.54548 0.07622 0.96325 0.0
O604 O 0.54879 0.09705 0.03485 0.0
O605 O 0.53437 0.1095 0.00566 0.0
O606 O 0.59229 0.09634 0.04301 0.0
O607 O 0.58143 0.08491 0.00293 0.0
H608 H 0.59913 0.10456 0.14777 0.0
H609 H 0.58971 0.13261 0.17618 0.0
H610 H 0.5368 0.13959 0.12447 0.0
H611 H 0.54621 0.11159 0.09626 0.0
H612 H 0.50833 0.03099 0.91519 0.0
H613 H 0.52071 0.00537 0.88716 0.0
H614 H 0.58228 0.01807 0.93293 0.0
H615 H 0.56977 0.04355 0.96096 0.0
Pr616 Pr 0.2818 0.31114 0.2729 0.0
Pr617 Pr 0.32488 0.34653 0.28606 0.0
C618 C 0.2412 0.28603 0.27081 0.0
C619 C 0.22474 0.28761 0.28538 0.0
C620 C 0.20433 0.2723 0.27953 0.0
C621 C 0.1885 0.27427 0.29306 0.0
C622 C 0.19282 0.29172 0.3126 0.0
C623 C 0.21342 0.30689 0.31849 0.0
C624 C 0.22924 0.3048 0.30504 0.0
C625 C 0.29923 0.32722 0.23434 0.0
C626 C 0.28297 0.367 0.28799 0.0
C627 C 0.36517 0.37121 0.2859 0.0
C628 C 0.3818 0.36848 0.27172 0.0
C629 C 0.4035 0.37393 0.28235 0.0
C630 C 0.41936 0.37044 0.26938 0.0
C631 C 0.41384 0.36149 0.24542 0.0
C632 C 0.39201 0.35619 0.2348 0.0
C633 C 0.37615 0.35954 0.24783 0.0
C634 C 0.30787 0.33098 0.32502 0.0
C635 C 0.32373 0.29034 0.27394 0.0
O636 O 0.25814 0.27951 0.28074 0.0
O637 O 0.24605 0.3036 0.25883 0.0
O638 O 0.29895 0.33966 0.25305 0.0
O639 O 0.28973 0.30531 0.23468 0.0
O640 O 0.30241 0.37252 0.2829 0.0
O641 O 0.27421 0.34522 0.29093 0.0
O642 O 0.34797 0.37674 0.27523 0.0
O643 O 0.36082 0.35527 0.29985 0.0
O644 O 0.30736 0.3184 0.30612 0.0
O645 O 0.31902 0.35235 0.32509 0.0
O646 O 0.30417 0.2854 0.27873 0.0
O647 O 0.33251 0.31167 0.26969 0.0
H648 H 0.20058 0.25896 0.26439 0.0
H649 H 0.17274 0.26247 0.28795 0.0
H650 H 0.21733 0.3203 0.33357 0.0
H651 H 0.24497 0.31668 0.30995 0.0
H652 H 0.40818 0.38058 0.3008 0.0
H653 H 0.43591 0.3743 0.27829 0.0
H654 H 0.38714 0.34951 0.21638 0.0
H655 H 0.35945 0.35499 0.23925 0.0
Pr656 Pr 0.53546 0.55843 1.00054 0.0
Pr657 Pr 0.5644 0.58844 0.05222 0.0
C658 C 0.50299 0.53346 0.96775 0.0
C659 C 0.49366 0.53387 0.9434 0.0
C660 C 0.49553 0.55519 0.93384 0.0
C661 C 0.48626 0.5553 0.91065 0.0
C662 C 0.47514 0.53407 0.89668 0.0
C663 C 0.47354 0.51275 0.90635 0.0
C664 C 0.4827 0.51268 0.92957 0.0
C665 C 0.57746 0.58248 0.99712 0.0
C666 C 0.54078 0.61692 0.01169 0.0
C667 C 0.59699 0.6113 0.08596 0.0
C668 C 0.60647 0.60811 0.1097 0.0
C669 C 0.60612 0.62433 0.12882 0.0
C670 C 0.61502 0.62144 0.15141 0.0
C671 C 0.62463 0.60237 0.15521 0.0
C672 C 0.62506 0.58624 0.136 0.0
C673 C 0.61601 0.58901 0.11349 0.0
C674 C 0.52203 0.56496 0.05505 0.0
C675 C 0.55873 0.52984 0.04156 0.0
O676 O 0.50085 0.55046 0.98294 0.0
O677 O 0.52194 0.5283 0.97138 0.0
O678 O 0.56865 0.58042 0.0148 0.0
O679 O 0.56397 0.57017 0.97904 0.0
O680 O 0.55603 0.61817 0.03018 0.0
O681 O 0.52899 0.59663 0.9998 0.0
O682 O 0.59922 0.59634 0.06879 0.0
O683 O 0.57804 0.61655 0.08336 0.0
O684 O 0.53148 0.56613 0.03785 0.0
O685 O 0.53509 0.57784 0.07312 0.0
O686 O 0.54415 0.52875 0.02252 0.0
O687 O 0.57006 0.55008 0.05389 0.0
H688 H 0.50405 0.57173 0.94433 0.0
H689 H 0.48759 0.57201 0.90374 0.0
H690 H 0.46543 0.49607 0.89589 0.0
H691 H 0.48126 0.49609 0.93673 0.0
H692 H 0.59887 0.6392 0.12631 0.0
H693 H 0.6142 0.634 0.16591 0.0
H694 H 0.63264 0.57159 0.1383 0.0
H695 H 0.6166 0.57619 0.0991 0.0
Pr696 Pr 0.79229 0.2997 0.28 0.0
Pr697 Pr 0.81041 0.35454 0.2809 0.0
C698 C 0.77556 0.25311 0.26856 0.0
C699 C 0.78457 0.23363 0.26027 0.0
C700 C 0.77234 0.21039 0.25694 0.0
C701 C 0.78099 0.19195 0.24863 0.0
C702 C 0.80194 0.19663 0.24345 0.0
C703 C 0.81412 0.22002 0.24692 0.0
C704 C 0.80551 0.23836 0.25532 0.0
C705 C 0.79373 0.3277 0.3221 0.0
C706 C 0.84314 0.32029 0.29916 0.0
C707 C 0.8242 0.40009 0.29868 0.0
C708 C 0.81566 0.41582 0.3138 0.0
C709 C 0.79347 0.41162 0.31377 0.0
C710 C 0.78529 0.42686 0.32779 0.0
C711 C 0.79921 0.44628 0.34229 0.0
C712 C 0.82152 0.44979 0.34316 0.0
C713 C 0.8297 0.43464 0.32891 0.0
C714 C 0.81699 0.3307 0.23915 0.0
C715 C 0.75881 0.33295 0.25918 0.0
O716 O 0.77366 0.26847 0.25392 0.0
O717 O 0.7834 0.2629 0.29008 0.0
O718 O 0.78784 0.33274 0.30191 0.0
O719 O 0.79813 0.30703 0.32106 0.0
O720 O 0.83822 0.34102 0.30222 0.0
O721 O 0.82928 0.30188 0.28657 0.0
O722 O 0.83087 0.38323 0.30871 0.0
O723 O 0.8131 0.39309 0.27748 0.0
O724 O 0.80893 0.32197 0.25558 0.0
O725 O 0.82259 0.35352 0.24435 0.0
O726 O 0.76189 0.31163 0.26196 0.0
O727 O 0.77412 0.35229 0.26665 0.0
H728 H 0.75612 0.20652 0.26065 0.0
H729 H 0.77122 0.17409 0.24595 0.0
H730 H 0.83039 0.2241 0.24339 0.0
H731 H 0.81518 0.25627 0.25793 0.0
H732 H 0.78243 0.39678 0.30265 0.0
H733 H 0.76805 0.42374 0.32703 0.0
H734 H 0.83251 0.46473 0.35415 0.0
H735 H 0.84691 0.43781 0.3294 0.0
Pr736 Pr 0.05893 0.57481 0.55433 0.0
Pr737 Pr 0.04317 0.5748 0.50017 0.0
C738 C 0.07291 0.59025 0.59998 0.0
C739 C 0.06733 0.60686 0.61694 0.0
C740 C 0.07953 0.61284 0.6395 0.0
C741 C 0.07383 0.62823 0.65588 0.0
C742 C 0.05591 0.63787 0.6498 0.0
C743 C 0.04408 0.63228 0.62695 0.0
C744 C 0.04976 0.61686 0.61062 0.0
C745 C 0.06333 0.53272 0.52935 0.0
C746 C 0.00689 0.55565 0.53392 0.0
C747 C 0.02783 0.5617 0.45435 0.0
C748 C 0.03582 0.5494 0.43568 0.0
C749 C 0.05797 0.55338 0.43534 0.0
C750 C 0.0655 0.54099 0.41802 0.0
C751 C 0.05104 0.5242 0.40097 0.0
C752 C 0.02892 0.5198 0.40173 0.0
C753 C 0.02137 0.53237 0.41895 0.0
C754 C 0.04755 0.61787 0.52784 0.0
C755 C 0.09395 0.59309 0.52006 0.0
O756 O 0.08201 0.59972 0.58347 0.0
O757 O 0.05818 0.57076 0.59234 0.0
O758 O 0.05681 0.54963 0.52149 0.0
O759 O 0.0686 0.53752 0.55194 0.0
O760 O 0.01111 0.55845 0.51273 0.0
O761 O 0.02185 0.56219 0.55293 0.0
O762 O 0.02179 0.54891 0.47041 0.0
O763 O 0.03883 0.58308 0.46288 0.0
O764 O 0.03984 0.59779 0.53341 0.0
O765 O 0.05173 0.61613 0.50673 0.0
O766 O 0.08824 0.59663 0.54064 0.0
O767 O 0.08024 0.58029 0.502 0.0
H768 H 0.09324 0.60535 0.64451 0.0
H769 H 0.0832 0.63233 0.67341 0.0
H770 H 0.02996 0.63909 0.62203 0.0
H771 H 0.04019 0.6123 0.59321 0.0
H772 H 0.06947 0.56605 0.44846 0.0
H773 H 0.08264 0.54454 0.41792 0.0
H774 H 0.01744 0.50708 0.38866 0.0
H775 H 1.00426 0.5288 0.41921 0.0
Pr776 Pr 0.77029 0.81425 0.27362 0.0
Pr777 Pr 0.81955 0.83665 0.27808 0.0
C778 C 0.73051 0.79244 0.27899 0.0
C779 C 0.71486 0.7945 0.29458 0.0
C780 C 0.69371 0.79448 0.28463 0.0
C781 C 0.6785 0.79666 0.29883 0.0
C782 C 0.6841 0.79861 0.32328 0.0
C783 C 0.70528 0.79851 0.3333 0.0
C784 C 0.72063 0.79674 0.31906 0.0
C785 C 0.78061 0.85621 0.25457 0.0
C786 C 0.79746 0.84834 0.32315 0.0
C787 C 0.85938 0.8596 0.27376 0.0
C788 C 0.87748 0.85801 0.26159 0.0
C789 C 0.89844 0.86557 0.27432 0.0
C790 C 0.91609 0.86453 0.26348 0.0
C791 C 0.91317 0.85597 0.23959 0.0
C792 C 0.89208 0.84834 0.2268 0.0
C793 C 0.87435 0.84935 0.23772 0.0
C794 C 0.80895 0.79401 0.2961 0.0
C795 C 0.79223 0.80242 0.22832 0.0
O796 O 0.74784 0.78561 0.28739 0.0
O797 O 0.73413 0.80905 0.26559 0.0
O798 O 0.78986 0.85202 0.27386 0.0
O799 O 0.76423 0.83906 0.24546 0.0
O800 O 0.81289 0.85692 0.31164 0.0
O801 O 0.78097 0.8309 0.31321 0.0
O802 O 0.8418 0.86289 0.2615 0.0
O803 O 0.85576 0.84526 0.28937 0.0
O804 O 0.79999 0.79884 0.27703 0.0
O805 O 0.8251 0.81109 0.30597 0.0
O806 O 0.77617 0.79473 0.23934 0.0
O807 O 0.8094 0.81893 0.23864 0.0
H808 H 0.68893 0.79282 0.2658 0.0
H809 H 0.66224 0.79648 0.29066 0.0
H810 H 0.71001 0.80012 0.35212 0.0
H811 H 0.73695 0.79716 0.32718 0.0
H812 H 0.90118 0.87224 0.29276 0.0
H813 H 0.93206 0.87012 0.27396 0.0
H814 H 0.88929 0.84179 0.20835 0.0
H815 H 0.85827 0.84342 0.22754 0.0
Pr816 Pr 0.81941 0.35226 0.79002 0.0
Pr817 Pr 0.79299 0.30497 0.76429 0.0
C818 C 0.84694 0.38925 0.81724 0.0
C819 C 0.85834 0.41281 0.81389 0.0
C820 C 0.86652 0.43014 0.83321 0.0
C821 C 0.87805 0.45241 0.83025 0.0
C822 C 0.88166 0.45761 0.80789 0.0
C823 C 0.87311 0.44019 0.78851 0.0
C824 C 0.86147 0.41799 0.79148 0.0
C825 C 0.77812 0.35359 0.76883 0.0
C826 C 0.8154 0.34674 0.73341 0.0
C827 C 0.76548 0.26839 0.73633 0.0
C828 C 0.7529 0.24431 0.73685 0.0
C829 C 0.75756 0.22521 0.72388 0.0
C830 C 0.74518 0.20239 0.72312 0.0
C831 C 0.72774 0.19822 0.73516 0.0
C832 C 0.72323 0.21734 0.74836 0.0
C833 C 0.73569 0.24017 0.74922 0.0
C834 C 0.83448 0.3039 0.78519 0.0
C835 C 0.79729 0.31062 0.82094 0.0
O836 O 0.85303 0.37168 0.80684 0.0
O837 O 0.82605 0.38572 0.81554 0.0
O838 O 0.78265 0.33717 0.77991 0.0
O839 O 0.79492 0.37062 0.76985 0.0
O840 O 0.80089 0.32704 0.73344 0.0
O841 O 0.82694 0.35905 0.75301 0.0
O842 O 0.75939 0.28592 0.74685 0.0
O843 O 0.78639 0.27151 0.73882 0.0
O844 O 0.82971 0.32017 0.77404 0.0
O845 O 0.81776 0.28683 0.78455 0.0
O846 O 0.81253 0.32958 0.82055 0.0
O847 O 0.7848 0.29908 0.80144 0.0
H848 H 0.8641 0.42641 0.85059 0.0
H849 H 0.88407 0.46558 0.84546 0.0
H850 H 0.87575 0.44355 0.77111 0.0
H851 H 0.85517 0.40476 0.77634 0.0
H852 H 0.77069 0.22797 0.71413 0.0
H853 H 0.74928 0.18799 0.71308 0.0
H854 H 0.70975 0.21477 0.75759 0.0
H855 H 0.73161 0.25456 0.75929 0.0
Pr856 Pr 0.77998 0.8108 0.77311 0.0
Pr857 Pr 0.8231 0.84645 0.78567 0.0
C858 C 0.7395 0.78574 0.77172 0.0
C859 C 0.72349 0.78753 0.78681 0.0
C860 C 0.70292 0.77254 0.78136 0.0
C861 C 0.68752 0.77481 0.79539 0.0
C862 C 0.69245 0.79222 0.81502 0.0
C863 C 0.71322 0.80704 0.82052 0.0
C864 C 0.72861 0.80466 0.80658 0.0
C865 C 0.79691 0.82667 0.73428 0.0
C866 C 0.78116 0.86679 0.78798 0.0
C867 C 0.86325 0.87139 0.78518 0.0
C868 C 0.88101 0.86703 0.77349 0.0
C869 C 0.88361 0.84399 0.76831 0.0
C870 C 0.89966 0.83983 0.75597 0.0
C871 C 0.91348 0.85863 0.74858 0.0
C872 C 0.91094 0.88171 0.75398 0.0
C873 C 0.89479 0.88584 0.76626 0.0
C874 C 0.80641 0.83107 0.82483 0.0
C875 C 0.82202 0.79003 0.77456 0.0
O876 O 0.75654 0.77913 0.78122 0.0
O877 O 0.74413 0.80328 0.75964 0.0
O878 O 0.79677 0.83921 0.75297 0.0
O879 O 0.78756 0.80474 0.7348 0.0
O880 O 0.80058 0.87237 0.78281 0.0
O881 O 0.77246 0.84501 0.79101 0.0
O882 O 0.84626 0.87408 0.77141 0.0
O883 O 0.85846 0.85845 0.8016 0.0
O884 O 0.8059 0.81841 0.80598 0.0
O885 O 0.81728 0.85254 0.8247 0.0
O886 O 0.8024 0.78513 0.7792 0.0
O887 O 0.8309 0.81131 0.77029 0.0
H888 H 0.6987 0.75926 0.76615 0.0
H889 H 0.6716 0.76329 0.79059 0.0
H890 H 0.71759 0.82041 0.83566 0.0
H891 H 0.74448 0.81629 0.81117 0.0
H892 H 0.87318 0.82917 0.7737 0.0
H893 H 0.90138 0.82189 0.7524 0.0
H894 H 0.92119 0.89655 0.74836 0.0
H895 H 0.89292 0.90371 0.76988 0.0
Pr896 Pr 0.52595 0.56526 0.52584 0.0
Pr897 Pr 0.5729 0.59133 0.55332 0.0
C898 C 0.48288 0.55519 0.5131 0.0
C899 C 0.46714 0.56988 0.51465 0.0
C900 C 0.44568 0.56152 0.50358 0.0
C901 C 0.43087 0.57569 0.50515 0.0
C902 C 0.43734 0.59864 0.51759 0.0
C903 C 0.45898 0.60689 0.52854 0.0
C904 C 0.47359 0.59254 0.52734 0.0
C905 C 0.55895 0.56669 0.5004 0.0
C906 C 0.5442 0.62481 0.52935 0.0
C907 C 0.61532 0.60096 0.57029 0.0
C908 C 0.63129 0.5869 0.56695 0.0
C909 C 0.65021 0.59015 0.58341 0.0
C910 C 0.66484 0.57597 0.58062 0.0
C911 C 0.66076 0.55827 0.56132 0.0
C912 C 0.64174 0.55515 0.54487 0.0
C913 C 0.62716 0.56928 0.54768 0.0
C914 C 0.53895 0.59007 0.5774 0.0
C915 C 0.55621 0.53167 0.54651 0.0
O916 O 0.49257 0.5511 0.53317 0.0
O917 O 0.496 0.56042 0.49831 0.0
O918 O 0.557 0.58288 0.51505 0.0
O919 O 0.54205 0.54907 0.49636 0.0
O920 O 0.56428 0.6234 0.5364 0.0
O921 O 0.52774 0.60641 0.52773 0.0
O922 O 0.60725 0.60914 0.55167 0.0
O923 O 0.60076 0.5922 0.58244 0.0
O924 O 0.54196 0.5736 0.56397 0.0
O925 O 0.55482 0.60864 0.58025 0.0
O926 O 0.53593 0.53277 0.54041 0.0
O927 O 0.5723 0.55047 0.54825 0.0
H928 H 0.44034 0.54399 0.49389 0.0
H929 H 0.41428 0.56847 0.49694 0.0
H930 H 0.4647 0.62444 0.53813 0.0
H931 H 0.48995 0.59915 0.53645 0.0
H932 H 0.65361 0.60355 0.59845 0.0
H933 H 0.67943 0.57901 0.59348 0.0
H934 H 0.63792 0.54149 0.53 0.0
H935 H 0.61252 0.56626 0.5349 0.0
Pr936 Pr 0.07794 0.58319 0.03949 0.0
Pr937 Pr 0.02772 0.57691 0.02566 0.0
C938 C 0.11828 0.57866 0.05434 0.0
C939 C 0.13152 0.561 0.05555 0.0
C940 C 0.1285 0.54235 0.03745 0.0
C941 C 0.14273 0.52731 0.03793 0.0
C942 C 0.16013 0.53054 0.05657 0.0
C943 C 0.16247 0.54859 0.07512 0.0
C944 C 0.14833 0.56367 0.07458 0.0
C945 C 0.06415 0.60585 0.00225 0.0
C946 C 0.04754 0.53338 0.00684 0.0
C947 C 0.98707 0.58076 0.01114 0.0
C948 C 0.9725 0.59727 0.01108 0.0
C949 C 0.96362 0.60251 0.03096 0.0
C950 C 0.94796 0.61579 0.02995 0.0
C951 C 0.9407 0.62413 0.00903 0.0
C952 C 0.95011 0.61954 0.98937 0.0
C953 C 0.96578 0.60622 0.99037 0.0
C954 C 0.04175 0.55349 0.06233 0.0
C955 C 0.0584 0.62687 0.05834 0.0
O956 O 0.10384 0.57759 0.06797 0.0
O957 O 0.1118 0.58414 0.03361 0.0
O958 O 0.0555 0.5853 0.00564 0.0
O959 O 0.08147 0.61501 0.01757 0.0
O960 O 0.03142 0.54386 0.0023 0.0
O961 O 0.06541 0.54381 0.02168 0.0
O962 O 1.00193 0.58399 0.998 0.0
O963 O 0.99337 0.57341 0.031 0.0
O964 O 0.05009 0.57424 0.05924 0.0
O965 O 0.02445 0.54459 0.04691 0.0
O966 O 0.07469 0.61658 0.06225 0.0
O967 O 0.04017 0.6163 0.04409 0.0
H968 H 0.11548 0.53977 0.0227 0.0
H969 H 0.14029 0.51335 0.02355 0.0
H970 H 0.17576 0.55167 0.08966 0.0
H971 H 0.15089 0.57789 0.08874 0.0
H972 H 0.96824 0.59577 0.04717 0.0
H973 H 0.94089 0.61867 0.04536 0.0
H974 H 0.94511 0.62591 0.97305 0.0
H975 H 0.97223 0.60241 0.97472 0.0
C976 C 0.01905 0.22434 0.93993 0.0
C977 C 0.02372 0.24659 0.9534 0.0
C978 C 0.02278 0.2043 0.94992 0.0
C979 C 0.03127 0.20638 0.97408 0.0
C980 C 0.03558 0.22867 0.98792 0.0
C981 C 0.03183 0.2485 0.97741 0.0
C982 C 0.01792 0.18092 0.9345 0.0
C983 C 0.04442 0.23162 0.01377 0.0
C984 C 0.02196 0.14975 0.00229 0.0
C985 C 0.04174 0.14326 0.00293 0.0
C986 C 0.01854 0.17042 0.99345 0.0
C987 C 0.03524 0.18508 0.98483 0.0
C988 C 0.05537 0.17884 0.98569 0.0
C989 C 0.05842 0.15807 0.99482 0.0
C990 C 0.99688 0.17638 0.99307 0.0
C991 C 0.07356 0.19388 0.97654 0.0
H992 H 0.01291 0.22263 0.92134 0.0
H993 H 0.0356 0.2656 0.98796 0.0
H994 H 0.03277 0.1742 0.93496 0.0
H995 H 0.00604 0.1677 0.94114 0.0
H996 H 0.01145 0.18224 0.91603 0.0
H997 H 0.04657 0.24999 0.02219 0.0
H998 H 0.03343 0.2196 0.02264 0.0
H999 H 0.06018 0.2267 0.01659 0.0
H1000 H 0.009 0.13865 0.00875 0.0
H1001 H 0.07373 0.15322 0.9952 0.0
H1002 H 0.98912 0.17633 0.97473 0.0
H1003 H 0.9989 0.19438 0.00231 0.0
H1004 H 0.98589 0.16371 1.00138 0.0
H1005 H 0.06863 0.19461 0.9576 0.0
H1006 H 0.08839 0.18701 0.97904 0.0
H1007 H 0.07734 0.21222 0.98552 0.0
C1008 C 0.17066 0.85131 0.18137 0.0
C1009 C 0.15505 0.86041 0.1911 0.0
C1010 C 0.19027 0.85051 0.19526 0.0
C1011 C 0.19456 0.8594 0.21938 0.0
C1012 C 0.179 0.869 0.22917 0.0
C1013 C 0.1594 0.86919 0.21498 0.0
C1014 C 0.20628 0.83985 0.1842 0.0
C1015 C 0.18307 0.87913 0.25465 0.0
C1016 C 0.2367 0.83996 0.26165 0.0
C1017 C 0.25478 0.85852 0.26315 0.0
C1018 C 0.21711 0.83977 0.24716 0.0
C1019 C 0.21539 0.85896 0.23437 0.0
C1020 C 0.23354 0.87796 0.2362 0.0
C1021 C 0.25302 0.8774 0.25037 0.0
C1022 C 0.19832 0.81894 0.24539 0.0
C1023 C 0.2324 0.89893 0.2232 0.0
H1024 H 0.16738 0.84433 0.16298 0.0
H1025 H 0.14746 0.87631 0.22263 0.0
H1026 H 0.22173 0.85309 0.18609 0.0
H1027 H 0.20969 0.82489 0.19334 0.0
H1028 H 0.20043 0.83338 0.16532 0.0
H1029 H 0.16956 0.88644 0.25945 0.0
H1030 H 0.18552 0.86528 0.26585 0.0
H1031 H 0.19799 0.89336 0.25864 0.0
H1032 H 0.23789 0.82547 0.27166 0.0
H1033 H 0.26694 0.89182 0.25142 0.0
H1034 H 0.19245 0.81128 0.22681 0.0
H1035 H 0.18483 0.82479 0.25198 0.0
H1036 H 0.20257 0.80491 0.25551 0.0
H1037 H 0.22844 0.89314 0.20408 0.0
H1038 H 0.24775 0.91258 0.22702 0.0
H1039 H 0.21937 0.90707 0.22798 0.0
C1040 C 0.52315 0.88933 0.46363 0.0
C1041 C 0.53042 0.88593 0.44234 0.0
C1042 C 0.5252 0.91221 0.4751 0.0
C1043 C 0.53486 0.93213 0.46514 0.0
C1044 C 0.54258 0.92875 0.44392 0.0
C1045 C 0.54021 0.9058 0.4328 0.0
C1046 C 0.51672 0.91509 0.49767 0.0
C1047 C 0.55318 0.94944 0.4328 0.0
C1048 C 0.52274 0.99225 0.47938 0.0
C1049 C 0.5413 1.00425 0.49522 0.0
C1050 C 0.5202 0.96861 0.46995 0.0
C1051 C 0.53661 0.9566 0.47647 0.0
C1052 C 0.55523 0.96849 0.49272 0.0
C1053 C 0.55735 0.99212 0.50187 0.0
C1054 C 0.50005 0.95655 0.45275 0.0
C1055 C 0.57309 0.95638 0.50021 0.0
H1056 H 0.51554 0.87415 0.47115 0.0
H1057 H 0.54604 0.90346 0.41647 0.0
H1058 H 0.52964 0.9258 0.51167 0.0
H1059 H 0.50366 0.92473 0.49533 0.0
H1060 H 0.51034 0.89788 0.50359 0.0
H1061 H 0.55883 0.94382 0.41658 0.0
H1062 H 0.54167 0.96066 0.4284 0.0
H1063 H 0.56714 0.96055 0.44531 0.0
H1064 H 0.51015 1.00134 0.47425 0.0
H1065 H 0.57165 1.00105 0.51433 0.0
H1066 H 0.49215 0.93997 0.45876 0.0
H1067 H 0.50428 0.95172 0.43549 0.0
H1068 H 0.48833 0.9679 0.45039 0.0
H1069 H 0.56662 0.93992 0.50734 0.0
H1070 H 0.58613 0.96777 0.5137 0.0
H1071 H 0.58014 0.95132 0.48483 0.0
C1072 C 0.52045 0.35476 0.67412 0.0
C1073 C 0.53332 0.34338 0.68855 0.0
C1074 C 0.50062 0.35788 0.67934 0.0
C1075 C 0.49348 0.34938 0.69942 0.0
C1076 C 0.50629 0.3377 0.7139 0.0
C1077 C 0.52602 0.33487 0.70831 0.0
C1078 C 0.48739 0.37046 0.66352 0.0
C1079 C 0.49924 0.32833 0.73546 0.0
C1080 C 0.45379 0.3752 0.72924 0.0
C1081 C 0.43477 0.35757 0.72221 0.0
C1082 C 0.47279 0.37322 0.72117 0.0
C1083 C 0.47285 0.35306 0.70578 0.0
C1084 C 0.45355 0.33559 0.69796 0.0
C1085 C 0.43474 0.33807 0.70625 0.0
C1086 C 0.49303 0.39224 0.72991 0.0
C1087 C 0.45295 0.31388 0.68149 0.0
H1088 H 0.52593 0.36139 0.6588 0.0
H1089 H 0.53575 0.32598 0.71956 0.0
H1090 H 0.47113 0.359 0.65694 0.0
H1091 H 0.48524 0.38661 0.67352 0.0
H1092 H 0.49497 0.37557 0.64831 0.0
H1093 H 0.51089 0.3193 0.74465 0.0
H1094 H 0.49735 0.34303 0.74783 0.0
H1095 H 0.48335 0.31569 0.73061 0.0
H1096 H 0.45407 0.39019 0.74178 0.0
H1097 H 0.42004 0.32456 0.70045 0.0
H1098 H 0.50055 0.39834 0.71501 0.0
H1099 H 0.50486 0.38499 0.74114 0.0
H1100 H 0.4899 0.40769 0.74023 0.0
H1101 H 0.45973 0.31896 0.66583 0.0
H1102 H 0.43637 0.30283 0.67571 0.0
H1103 H 0.46308 0.30303 0.69031 0.0
C1104 C 0.05747 0.91743 0.61185 0.0
C1105 C 0.06842 0.90166 0.60217 0.0
C1106 C 0.05611 0.93856 0.60258 0.0
C1107 C 0.06626 0.94447 0.58332 0.0
C1108 C 0.07744 0.92869 0.57352 0.0
C1109 C 0.07823 0.90742 0.58291 0.0
C1110 C 0.04366 0.95452 0.61335 0.0
C1111 C 0.08872 0.93435 0.5532 0.0
C1112 C 0.0458 0.98806 0.54586 0.0
C1113 C 0.06045 0.00957 0.55502 0.0
C1114 C 0.0476 0.96688 0.55478 0.0
C1115 C 0.06467 0.96688 0.57316 0.0
C1116 C 0.07974 0.98844 0.58225 0.0
C1117 C 0.07735 0.00951 0.57325 0.0
C1118 C 0.03091 0.94452 0.54479 0.0
C1119 C 0.09834 0.98928 0.60163 0.0
H1120 H 0.04979 0.91318 0.62669 0.0
H1121 H 0.08686 0.89549 0.5754 0.0
H1122 H 0.05437 0.97214 0.61991 0.0
H1123 H 0.03055 0.95712 0.5999 0.0
H1124 H 0.03649 0.94733 0.62808 0.0
H1125 H 0.09721 0.92062 0.54795 0.0
H1126 H 0.0769 0.93606 0.53792 0.0
H1127 H 0.10059 0.95155 0.55787 0.0
H1128 H 0.03254 0.9878 0.53195 0.0
H1129 H 0.0888 0.02593 0.58046 0.0
H1130 H 0.02251 0.93745 0.55877 0.0
H1131 H 0.03878 0.93084 0.53802 0.0
H1132 H 0.01873 0.94736 0.53039 0.0
H1133 H 0.09219 0.98398 0.61757 0.0
H1134 H 0.10921 0.00714 0.60609 0.0
H1135 H 0.10781 0.97655 0.59643 0.0
C1136 C 0.46342 0.82215 0.84413 0.0
C1137 C 0.46866 0.81669 0.86695 0.0
C1138 C 0.44211 0.82118 0.83396 0.0
C1139 C 0.42541 0.81466 0.84686 0.0
C1140 C 0.43039 0.8083 0.8696 0.0
C1141 C 0.45198 0.80931 0.87937 0.0
C1142 C 0.43759 0.82798 0.80963 0.0
C1143 C 0.41303 0.80126 0.88391 0.0
C1144 C 0.37674 0.84007 0.82933 0.0
C1145 C 0.36241 0.82107 0.81465 0.0
C1146 C 0.39693 0.83792 0.84053 0.0
C1147 C 0.40309 0.81622 0.83698 0.0
C1148 C 0.38858 0.79681 0.82251 0.0
C1149 C 0.36841 0.79945 0.81153 0.0
C1150 C 0.41187 0.85909 0.85577 0.0
C1151 C 0.39455 0.77341 0.81822 0.0
H1152 H 0.4761 0.82761 0.83421 0.0
H1153 H 0.45583 0.80505 0.89698 0.0
H1154 H 0.42497 0.81391 0.79826 0.0
H1155 H 0.43143 0.84429 0.81042 0.0
H1156 H 0.45215 0.83114 0.80135 0.0
H1157 H 0.4192 0.79495 0.90042 0.0
H1158 H 0.40617 0.8166 0.88835 0.0
H1159 H 0.39971 0.78714 0.87363 0.0
H1160 H 0.37225 0.85681 0.83206 0.0
H1161 H 0.35742 0.78461 0.80035 0.0
H1162 H 0.42646 0.86478 0.84796 0.0
H1163 H 0.41723 0.8544 0.87334 0.0
H1164 H 0.40419 0.87424 0.85789 0.0
H1165 H 0.40832 0.7755 0.8087 0.0
H1166 H 0.38098 0.75962 0.80781 0.0
H1167 H 0.39977 0.76725 0.83511 0.0
C1168 C 0.54551 0.23376 0.11102 0.0
C1169 C 0.55938 0.25315 0.10471 0.0
C1170 C 0.54162 0.2111 0.09843 0.0
C1171 C 0.55242 0.20746 0.07948 0.0
C1172 C 0.56632 0.22708 0.0729 0.0
C1173 C 0.56938 0.24975 0.08538 0.0
C1174 C 0.52591 0.19105 0.10541 0.0
C1175 C 0.57854 0.22397 0.05317 0.0
C1176 C 0.55918 0.14496 0.0626 0.0
C1177 C 0.54374 0.13733 0.04217 0.0
C1178 C 0.5622 0.16768 0.0749 0.0
C1179 C 0.5493 0.18312 0.06672 0.0
C1180 C 0.53337 0.17521 0.04636 0.0
C1181 C 0.53096 0.15257 0.03423 0.0
C1182 C 0.57944 0.17533 0.09643 0.0
C1183 C 0.51888 0.1907 0.0373 0.0
H1184 H 0.53771 0.23635 0.12594 0.0
H1185 H 0.58039 0.26462 0.08071 0.0
H1186 H 0.51193 0.18461 0.09099 0.0
H1187 H 0.53349 0.17604 0.10833 0.0
H1188 H 0.51993 0.19637 0.1215 0.0
H1189 H 0.58865 0.24093 0.05013 0.0
H1190 H 0.58906 0.21163 0.05721 0.0
H1191 H 0.56718 0.21605 0.03676 0.0
H1192 H 0.56934 0.1334 0.06858 0.0
H1193 H 0.51902 0.14678 0.01842 0.0
H1194 H 0.57221 0.18009 0.11176 0.0
H1195 H 0.59123 0.19132 0.09393 0.0
H1196 H 0.58815 0.16135 0.10049 0.0
H1197 H 0.51045 0.19638 0.05125 0.0
H1198 H 0.50666 0.18159 0.02186 0.0
H1199 H 0.52862 0.20688 0.03229 0.0
C1200 C 0.11046 0.30756 0.40042 0.0
C1201 C 0.09002 0.30644 0.38754 0.0
C1202 C 0.12778 0.30521 0.3891 0.0
C1203 C 0.12459 0.30183 0.36433 0.0
C1204 C 0.104 0.30078 0.35127 0.0
C1205 C 0.08697 0.30301 0.36301 0.0
C1206 C 0.14946 0.30629 0.40364 0.0
C1207 C 0.09995 0.29735 0.32484 0.0
C1208 C 0.17252 0.31677 0.33326 0.0
C1209 C 0.1758 0.29434 0.32653 0.0
C1210 C 0.15612 0.3195 0.34584 0.0
C1211 C 0.14272 0.29932 0.35197 0.0
C1212 C 0.14617 0.27667 0.34554 0.0
C1213 C 0.16261 0.27445 0.33283 0.0
C1214 C 0.15285 0.34393 0.35217 0.0
C1215 C 0.13236 0.25474 0.3519 0.0
H1216 H 0.11293 0.31014 0.41937 0.0
H1217 H 0.07124 0.30217 0.35291 0.0
H1218 H 0.15465 0.28974 0.39937 0.0
H1219 H 0.16169 0.32098 0.39944 0.0
H1220 H 0.14928 0.30888 0.42272 0.0
H1221 H 0.08306 0.29716 0.31726 0.0
H1222 H 0.11083 0.31169 0.31833 0.0
H1223 H 0.10355 0.28046 0.3183 0.0
H1224 H 0.18249 0.33219 0.32821 0.0
H1225 H 0.16524 0.2571 0.32794 0.0
H1226 H 0.15367 0.34756 0.37133 0.0
H1227 H 0.13662 0.34511 0.34365 0.0
H1228 H 0.16504 0.35785 0.34672 0.0
H1229 H 0.13283 0.25633 0.37109 0.0
H1230 H 0.13762 0.23853 0.34635 0.0
H1231 H 0.11537 0.25274 0.3435 0.0
C1232 C 0.94539 0.07331 0.13843 0.0
C1233 C 0.9304 0.05259 0.12811 0.0
C1234 C 0.96292 0.08248 0.12799 0.0
C1235 C 0.96568 0.07021 0.10705 0.0
C1236 C 0.94982 0.05002 0.09581 0.0
C1237 C 0.93216 0.04146 0.10649 0.0
C1238 C 0.97921 0.10434 0.14022 0.0
C1239 C 0.95232 0.03632 0.07358 0.0
C1240 C 0.00722 0.0994 0.07311 0.0
C1241 C 0.02478 0.09 0.0812 0.0
C1242 C 0.98792 0.09341 0.08163 0.0
C1243 C 0.98611 0.07729 0.09823 0.0
C1244 C 1.00394 0.06803 0.1067 0.0
C1245 C 0.02321 0.07472 0.09823 0.0
C1246 C 0.96935 0.1039 0.07256 0.0
C1247 C 1.00246 0.05057 0.12425 0.0
H1248 H 0.94389 0.08177 0.15525 0.0
H1249 H 0.92064 0.02519 0.09881 0.0
H1250 H 0.99429 0.09947 0.1476 0.0
H1251 H 0.98324 0.11699 0.12765 0.0
H1252 H 0.97332 0.11333 0.1547 0.0
H1253 H 0.9367 0.025 0.06424 0.0
H1254 H 0.95925 0.04827 0.06164 0.0
H1255 H 0.96353 0.02478 0.07799 0.0
H1256 H 0.00848 0.11113 0.05978 0.0
H1257 H 0.03672 0.06721 0.10417 0.0
H1258 H 0.96379 0.11274 0.08735 0.0
H1259 H 0.95559 0.08967 0.06332 0.0
H1260 H 0.9737 0.11694 0.0604 0.0
H1261 H 0.9983 0.05848 0.14047 0.0
H1262 H 0.01774 0.0449 0.12889 0.0
H1263 H 0.98944 0.03473 0.11704 0.0
C1264 C 0.2997 0.74607 0.44278 0.0
C1265 C 0.29265 0.75696 0.46167 0.0
C1266 C 0.29994 0.75574 0.42156 0.0
C1267 C 0.29276 0.77676 0.41893 0.0
C1268 C 0.2858 0.78797 0.438 0.0
C1269 C 0.28592 0.77802 0.45913 0.0
C1270 C 0.30776 0.74332 0.40186 0.0
C1271 C 0.27794 0.81032 0.43596 0.0
C1272 C 0.31092 0.81247 0.371 0.0
C1273 C 0.29316 0.80513 0.35267 0.0
C1274 C 0.31094 0.80355 0.3926 0.0
C1275 C 0.29265 0.787 0.39625 0.0
C1276 C 0.27451 0.77978 0.37798 0.0
C1277 C 0.27503 0.7888 0.3564 0.0
C1278 C 0.33074 0.81151 0.41137 0.0
C1279 C 0.25462 0.76231 0.38113 0.0
H1280 H 0.30494 0.72982 0.4445 0.0
H1281 H 0.28032 0.78652 0.47353 0.0
H1282 H 0.29467 0.73789 0.38639 0.0
H1283 H 0.32128 0.75554 0.39647 0.0
H1284 H 0.31325 0.72743 0.40682 0.0
H1285 H 0.27309 0.81693 0.45235 0.0
H1286 H 0.29073 0.8243 0.43161 0.0
H1287 H 0.26395 0.80714 0.4215 0.0
H1288 H 0.32513 0.82489 0.36835 0.0
H1289 H 0.26123 0.78298 0.34243 0.0
H1290 H 0.33735 0.79612 0.4157 0.0
H1291 H 0.3265 0.8193 0.4276 0.0
H1292 H 0.34353 0.82475 0.40595 0.0
H1293 H 0.25864 0.74523 0.38428 0.0
H1294 H 0.24156 0.75918 0.36564 0.0
H1295 H 0.24853 0.76876 0.39671 0.0
C1296 C 0.58148 0.96992 0.64731 0.0
C1297 C 0.6037 0.97149 0.65013 0.0
C1298 C 0.57117 0.98085 0.63012 0.0
C1299 C 0.58321 0.99295 0.61478 0.0
C1300 C 0.60518 0.99254 0.61592 0.0
C1301 C 0.61528 0.98203 0.63383 0.0
C1302 C 0.54778 0.98108 0.62972 0.0
C1303 C 0.61838 0.00449 0.59928 0.0
C1304 C 0.54804 0.01184 0.56544 0.0
C1305 C 0.5494 0.03537 0.57411 0.0
C1306 C 0.56022 0.99822 0.57767 0.0
C1307 C 0.57321 0.0081 0.59958 0.0
C1308 C 0.57482 0.032 0.60822 0.0
C1309 C 0.56316 0.04548 0.59512 0.0
C1310 C 0.55902 0.97325 0.5673 0.0
C1311 C 0.58825 0.04309 0.63169 0.0
H1312 H 0.57233 0.96153 0.65961 0.0
H1313 H 0.63242 0.98309 0.63571 0.0
H1314 H 0.54636 0.99941 0.6346 0.0
H1315 H 0.53835 0.97495 0.61187 0.0
H1316 H 0.54044 0.96978 0.64202 0.0
H1317 H 0.63313 0.99777 0.59861 0.0
H1318 H 0.60888 1.00194 0.58133 0.0
H1319 H 0.62337 0.02373 0.60521 0.0
H1320 H 0.53773 1.00419 0.54887 0.0
H1321 H 0.56435 0.06378 0.60158 0.0
H1322 H 0.55116 0.96063 0.57817 0.0
H1323 H 0.57547 0.97048 0.56722 0.0
H1324 H 0.54985 0.96904 0.54911 0.0
H1325 H 0.58224 0.03334 0.64571 0.0
H1326 H 0.5879 0.06192 0.63575 0.0
H1327 H 0.60519 0.04194 0.63209 0.0
C1328 C 0.29985 0.41677 0.94775 0.0
C1329 C 0.3112 0.40948 0.96719 0.0
C1330 C 0.29862 0.40598 0.92489 0.0
C1331 C 0.30914 0.38745 0.9211 0.0
C1332 C 0.32024 0.37957 0.94063 0.0
C1333 C 0.32105 0.3906 0.96346 0.0
C1334 C 0.28634 0.41477 0.9047 0.0
C1335 C 0.33171 0.35991 0.93735 0.0
C1336 C 0.29097 0.34897 0.86191 0.0
C1337 C 0.30625 0.35934 0.84888 0.0
C1338 C 0.29201 0.3575 0.88551 0.0
C1339 C 0.30881 0.37686 0.89659 0.0
C1340 C 0.32454 0.38712 0.88371 0.0
C1341 C 0.32305 0.37829 0.86005 0.0
C1342 C 0.27484 0.34606 0.89845 0.0
C1343 C 0.34279 0.40769 0.89483 0.0
H1344 H 0.29199 0.43118 0.95035 0.0
H1345 H 0.32993 0.38488 0.97829 0.0
H1346 H 0.29744 0.42202 0.89303 0.0
H1347 H 0.2739 0.39994 0.89414 0.0
H1348 H 0.27834 0.42871 0.91063 0.0
H1349 H 0.33878 0.35508 0.95429 0.0
H1350 H 0.32044 0.34402 0.92705 0.0
H1351 H 0.3448 0.36537 0.9273 0.0
H1352 H 0.27803 0.33415 0.85365 0.0
H1353 H 0.33506 0.38632 0.8503 0.0
H1354 H 0.2656 0.35903 0.90368 0.0
H1355 H 0.28232 0.3404 0.91471 0.0
H1356 H 0.26343 0.33048 0.88769 0.0
H1357 H 0.33629 0.42315 0.89985 0.0
H1358 H 0.35439 0.41282 0.88293 0.0
H1359 H 0.35157 0.40325 0.91107 0.0
C1360 C 0.93095 0.03595 0.26298 0.0
C1361 C 0.93576 0.01848 0.2479 0.0
C1362 C 0.93893 0.03901 0.28704 0.0
C1363 C 0.95181 0.02407 0.29614 0.0
C1364 C 0.9568 0.00649 0.28101 0.0
C1365 C 0.94878 1.00397 0.25702 0.0
C1366 C 0.9335 0.05808 0.30274 0.0
C1367 C 0.97036 0.99013 0.29021 0.0
C1368 C 0.98758 0.04201 0.35555 0.0
C1369 C 0.97519 0.02885 0.36966 0.0
C1370 C 0.97998 0.04101 0.33159 0.0
C1371 C 0.95962 0.02634 0.3216 0.0
C1372 C 0.94693 0.01322 0.33577 0.0
C1373 C 0.95484 0.01473 0.35969 0.0
C1374 C 0.99385 0.05531 0.31693 0.0
C1375 C 0.92515 0.99735 0.32562 0.0
H1376 H 0.921 0.04732 0.256 0.0
H1377 H 0.9525 0.99039 0.24546 0.0
H1378 H 0.92431 0.05007 0.31573 0.0
H1379 H 0.94849 0.0701 0.31265 0.0
H1380 H 0.92384 0.06867 0.29277 0.0
H1381 H 0.973 0.97761 0.27603 0.0
H1382 H 0.98624 1.00051 0.29977 0.0
H1383 H 0.96242 0.97984 0.30282 0.0
H1384 H 1.00341 0.05276 0.36315 0.0
H1385 H 0.94506 0.00486 0.37063 0.0
H1386 H 0.98474 0.06666 0.30741 0.0
H1387 H 0.99831 0.04335 0.3036 0.0
H1388 H 0.00883 0.06669 0.32762 0.0
H1389 H 0.91448 0.00768 0.31687 0.0
H1390 H 0.9172 0.98858 0.33915 0.0
H1391 H 0.92687 0.98354 0.31213 0.0
C1392 C 0.30726 0.76882 0.61202 0.0
C1393 C 0.28999 0.749 0.60583 0.0
C1394 C 0.31129 0.78226 0.63432 0.0
C1395 C 0.29743 0.7761 0.6506 0.0
C1396 C 0.27978 0.75636 0.64421 0.0
C1397 C 0.27644 0.74298 0.62212 0.0
C1398 C 0.33054 0.80288 0.64059 0.0
C1399 C 0.26422 0.74944 0.66064 0.0
C1400 C 0.31403 0.79753 0.71627 0.0
C1401 C 0.30458 0.81689 0.71856 0.0
C1402 C 0.31241 0.78449 0.6942 0.0
C1403 C 0.30075 0.79071 0.67398 0.0
C1404 C 0.29118 0.81025 0.67631 0.0
C1405 C 0.29337 0.82316 0.69846 0.0
C1406 C 0.32297 0.76388 0.69259 0.0
C1407 C 0.2781 0.81717 0.65548 0.0
H1408 H 0.31793 0.77347 0.59968 0.0
H1409 H 0.26297 0.72778 0.61749 0.0
H1410 H 0.3252 0.81942 0.64434 0.0
H1411 H 0.34101 0.80055 0.65673 0.0
H1412 H 0.3402 0.80491 0.62638 0.0
H1413 H 0.25108 0.73386 0.65288 0.0
H1414 H 0.27286 0.74533 0.67711 0.0
H1415 H 0.25695 0.7644 0.66533 0.0
H1416 H 0.32275 0.79263 0.73172 0.0
H1417 H 0.28587 0.83799 0.7001 0.0
H1418 H 0.33307 0.76533 0.67877 0.0
H1419 H 0.31047 0.74719 0.68763 0.0
H1420 H 0.33314 0.76273 0.7094 0.0
H1421 H 0.28798 0.82088 0.6417 0.0
H1422 H 0.27191 0.83299 0.66015 0.0
H1423 H 0.26421 0.80234 0.64783 0.0
C1424 C 0.59595 0.96317 0.79428 0.0
C1425 C 0.58551 0.97417 0.77712 0.0
C1426 C 0.59108 0.96412 0.81699 0.0
C1427 C 0.57582 0.97683 0.8227 0.0
C1428 C 0.56461 0.98707 0.80517 0.0
C1429 C 0.56942 0.98539 0.78258 0.0
C1430 C 0.60289 0.95241 0.83507 0.0
C1431 C 0.54837 1.00103 0.81057 0.0
C1432 C 0.54943 0.97675 0.87623 0.0
C1433 C 0.56108 0.99826 0.88911 0.0
C1434 C 0.55535 0.96816 0.8555 0.0
C1435 C 0.57295 0.98177 0.8473 0.0
C1436 C 0.5857 1.00258 0.86122 0.0
C1437 C 0.57968 0.01046 0.88207 0.0
C1438 C 0.54182 0.94549 0.84153 0.0
C1439 C 0.60445 0.01777 0.85303 0.0
H1440 H 0.60825 0.95425 0.79012 0.0
H1441 H 0.56123 0.99392 0.76946 0.0
H1442 H 0.61512 0.96604 0.8474 0.0
H1443 H 0.59164 0.94283 0.84544 0.0
H1444 H 0.61121 0.93984 0.82696 0.0
H1445 H 0.54048 0.00711 0.79473 0.0
H1446 H 0.53573 0.9902 0.81849 0.0
H1447 H 0.55645 0.01673 0.82348 0.0
H1448 H 0.53517 0.96718 0.88187 0.0
H1449 H 0.58863 0.02718 0.89195 0.0
H1450 H 0.5521 0.93485 0.83408 0.0
H1451 H 0.53088 0.94962 0.82673 0.0
H1452 H 0.53187 0.93471 0.85236 0.0
H1453 H 0.61519 0.00692 0.84702 0.0
H1454 H 0.61408 0.03189 0.86699 0.0
H1455 H 0.59834 0.0262 0.83792 0.0
C1456 C 0.30392 0.37337 0.10965 0.0
C1457 C 0.32299 0.39001 0.10919 0.0
C1458 C 0.30071 0.36241 0.12976 0.0
C1459 C 0.31725 0.36751 0.14974 0.0
C1460 C 0.33696 0.38346 0.14895 0.0
C1461 C 0.33942 0.39486 0.1289 0.0
C1462 C 0.27919 0.34617 0.12997 0.0
C1463 C 0.35532 0.38884 0.16947 0.0
C1464 C 0.30173 0.36018 0.20976 0.0
C1465 C 0.30442 0.33745 0.21294 0.0
C1466 C 0.3057 0.37003 0.18928 0.0
C1467 C 0.3134 0.35727 0.17184 0.0
C1468 C 0.31682 0.33457 0.17535 0.0
C1469 C 0.31188 0.32475 0.19564 0.0
C1470 C 0.30115 0.39391 0.18612 0.0
C1471 C 0.32578 0.32071 0.15772 0.0
H1472 H 0.29104 0.36973 0.09463 0.0
H1473 H 0.35422 0.40765 0.12867 0.0
H1474 H 0.28138 0.32865 0.13421 0.0
H1475 H 0.27149 0.35351 0.14381 0.0
H1476 H 0.26811 0.34369 0.11294 0.0
H1477 H 0.37032 0.39946 0.16518 0.0
H1478 H 0.35093 0.39878 0.18442 0.0
H1479 H 0.35856 0.37222 0.1753 0.0
H1480 H 0.29587 0.37005 0.22304 0.0
H1481 H 0.3142 0.30728 0.19816 0.0
H1482 H 0.28942 0.39257 0.16976 0.0
H1483 H 0.3161 0.40655 0.18439 0.0
H1484 H 0.29458 0.40123 0.20098 0.0
H1485 H 0.31441 0.31639 0.14082 0.0
H1486 H 0.32876 0.30402 0.16366 0.0
H1487 H 0.34111 0.33151 0.15441 0.0
C1488 C 0.26325 1.00112 0.05626 0.0
C1489 C 0.25757 0.97695 0.04785 0.0
C1490 C 0.2476 0.01434 0.05701 0.0
C1491 C 0.22566 1.00322 0.04897 0.0
C1492 C 0.21976 0.9788 0.04052 0.0
C1493 C 0.2358 0.96591 0.04015 0.0
C1494 C 0.25458 0.04027 0.06635 0.0
C1495 C 0.19653 0.96637 0.03167 0.0
C1496 C 0.18473 0.03425 0.07023 0.0
C1497 C 0.17958 0.04659 0.05146 0.0
C1498 C 0.19939 0.01973 0.06948 0.0
C1499 C 0.20903 0.01733 0.04941 0.0
C1500 C 0.20362 0.02943 0.03024 0.0
C1501 C 0.18903 0.04399 0.03154 0.0
C1502 C 0.20491 0.00733 0.09037 0.0
C1503 C 0.2134 0.02718 0.00845 0.0
H1504 H 0.28004 0.00979 0.06235 0.0
H1505 H 0.2313 0.94726 0.03359 0.0
H1506 H 0.24971 0.05092 0.05259 0.0
H1507 H 0.24647 0.04407 0.08126 0.0
H1508 H 0.27225 0.04615 0.07233 0.0
H1509 H 0.19458 0.94732 0.02572 0.0
H1510 H 0.1869 0.96814 0.04567 0.0
H1511 H 0.18978 0.97474 0.01687 0.0
H1512 H 0.17756 0.03631 0.08571 0.0
H1513 H 0.1848 0.05317 0.01683 0.0
H1514 H 0.22225 0.01371 0.09791 0.0
H1515 H 0.20197 0.98807 0.08492 0.0
H1516 H 0.19539 0.01031 0.10426 0.0
H1517 H 0.23107 0.0342 0.01283 0.0
H1518 H 0.20673 0.03684 0.99467 0.0
H1519 H 0.21052 0.00832 1.00125 0.0
C1520 C 0.69947 0.64921 0.99701 0.0
C1521 C 0.70152 0.67279 0.9929 0.0
C1522 C 0.67928 0.63462 0.99772 0.0
C1523 C 0.66053 0.6436 0.99377 0.0
C1524 C 0.66246 0.6673 0.98925 0.0
C1525 C 0.68293 0.68165 0.98909 0.0
C1526 C 0.67807 0.60965 0.00303 0.0
C1527 C 0.64287 0.67749 0.98456 0.0
C1528 C 0.60678 0.59862 0.97531 0.0
C1529 C 0.59863 0.59817 0.99627 0.0
C1530 C 0.6267 0.61356 0.97414 0.0
C1531 C 0.63897 0.62821 0.99452 0.0
C1532 C 0.63073 0.62787 0.0157 0.0
C1533 C 0.61055 0.61314 0.0162 0.0
C1534 C 0.63462 0.61368 0.95109 0.0
C1535 C 0.64328 0.64296 0.03792 0.0
H1536 H 0.71375 0.64224 1.00015 0.0
H1537 H 0.68435 0.69982 0.98584 0.0
H1538 H 0.67073 0.60693 0.01887 0.0
H1539 H 0.6676 0.597 0.98836 0.0
H1540 H 0.69414 0.6054 0.00597 0.0
H1541 H 0.64699 0.69599 0.98069 0.0
H1542 H 0.63123 0.66663 0.96952 0.0
H1543 H 0.63465 0.67704 0.99994 0.0
H1544 H 0.59753 0.5873 0.95974 0.0
H1545 H 0.60404 0.61347 0.03217 0.0
H1546 H 0.64999 0.60792 0.95268 0.0
H1547 H 0.63787 0.63187 0.9463 0.0
H1548 H 0.62285 0.60191 0.93668 0.0
H1549 H 0.65935 0.63894 0.04211 0.0
H1550 H 0.63491 0.64015 0.05308 0.0
H1551 H 0.64593 0.66187 0.0355 0.0
C1552 C 0.7681 0.56261 0.38653 0.0
C1553 C 0.74692 0.55834 0.39072 0.0
C1554 C 0.77857 0.5441 0.38418 0.0
C1555 C 0.76761 0.52094 0.38636 0.0
C1556 C 0.74736 0.51715 0.3936 0.0
C1557 C 0.73715 0.53593 0.39556 0.0
C1558 C 0.80026 0.54891 0.37663 0.0
C1559 C 0.73547 0.49283 0.3968 0.0
C1560 C 0.77514 0.47397 0.34155 0.0
C1561 C 0.7903 0.46415 0.35447 0.0
C1562 C 0.76746 0.4922 0.35195 0.0
C1563 C 0.7749 0.50058 0.37601 0.0
C1564 C 0.78969 0.49017 0.3894 0.0
C1565 C 0.7975 0.47221 0.37833 0.0
C1566 C 0.75183 0.50294 0.33693 0.0
C1567 C 0.79764 0.49829 0.41517 0.0
H1568 H 0.77587 0.57998 0.38309 0.0
H1569 H 0.72091 0.53263 0.39928 0.0
H1570 H 0.8111 0.53928 0.3862 0.0
H1571 H 0.79818 0.54258 0.3577 0.0
H1572 H 0.80811 0.56803 0.37952 0.0
H1573 H 0.72243 0.49358 0.40706 0.0
H1574 H 0.72814 0.48263 0.3794 0.0
H1575 H 0.74663 0.48312 0.40574 0.0
H1576 H 0.76982 0.46788 0.32302 0.0
H1577 H 0.80921 0.4645 0.38828 0.0
H1578 H 0.75889 0.52196 0.33688 0.0
H1579 H 0.7368 0.50156 0.34423 0.0
H1580 H 0.74761 0.49422 0.31855 0.0
H1581 H 0.80945 0.51549 0.41749 0.0
H1582 H 0.8056 0.48551 0.42384 0.0
H1583 H 0.78419 0.50091 0.42413 0.0
C1584 C 0.88905 0.47866 0.54077 0.0
C1585 C 0.87428 0.49281 0.5364 0.0
C1586 C 0.91131 0.48814 0.54286 0.0
C1587 C 0.91887 0.51234 0.54081 0.0
C1588 C 0.90406 0.5269 0.53772 0.0
C1589 C 0.882 0.51696 0.53543 0.0
C1590 C 0.92661 0.47203 0.54606 0.0
C1591 C 0.91139 0.55283 0.5357 0.0
C1592 C 0.97809 0.54381 0.55803 0.0
C1593 C 0.98454 0.54426 0.53611 0.0
C1594 C 0.9569 0.53294 0.55998 0.0
C1595 C 0.94189 0.52212 0.53957 0.0
C1596 C 0.94845 0.52211 0.51749 0.0
C1597 C 0.9696 0.53323 0.51602 0.0
C1598 C 0.95045 0.53348 0.58381 0.0
C1599 C 0.93299 0.51071 0.49528 0.0
H1600 H 0.8832 0.46 0.54153 0.0
H1601 H 0.87071 0.52811 0.5324 0.0
H1602 H 0.93349 0.46972 0.52991 0.0
H1603 H 0.94023 0.47994 0.56055 0.0
H1604 H 0.91855 0.45436 0.54981 0.0
H1605 H 0.8981 0.56215 0.53556 0.0
H1606 H 0.92451 0.56152 0.55045 0.0
H1607 H 0.91792 0.55493 0.51929 0.0
H1608 H 0.98951 0.55221 0.57365 0.0
H1609 H 0.97442 0.53319 0.49901 0.0
H1610 H 0.94317 0.51536 0.58701 0.0
H1611 H 0.93807 0.54393 0.58453 0.0
H1612 H 0.96431 0.54133 0.59809 0.0
H1613 H 0.92559 0.49212 0.49688 0.0
H1614 H 0.94095 0.511 0.47967 0.0
H1615 H 0.91977 0.52006 0.49235 0.0
C1616 C 0.41861 0.23349 0.32392 0.0
C1617 C 0.41726 0.21076 0.31298 0.0
C1618 C 0.4022 0.24533 0.3179 0.0
C1619 C 0.3844 0.23432 0.30015 0.0
C1620 C 0.38273 0.21115 0.2895 0.0
C1621 C 0.39905 0.19954 0.29627 0.0
C1622 C 0.40419 0.26983 0.33006 0.0
C1623 C 0.36421 0.19901 0.27021 0.0
C1624 C 0.334 0.25813 0.29464 0.0
C1625 C 0.33758 0.27362 0.27794 0.0
C1626 C 0.34911 0.24519 0.30205 0.0
C1627 C 0.36793 0.24735 0.29203 0.0
C1628 C 0.37113 0.26212 0.27434 0.0
C1629 C 0.35602 0.27536 0.26772 0.0
C1630 C 0.34541 0.23005 0.32133 0.0
C1631 C 0.39074 0.26438 0.2628 0.0
H1632 H 0.43264 0.24219 0.33686 0.0
H1633 H 0.39797 0.18201 0.28759 0.0
H1634 H 0.4063 0.28278 0.31738 0.0
H1635 H 0.38925 0.27086 0.33689 0.0
H1636 H 0.41803 0.27507 0.3448 0.0
H1637 H 0.36495 0.18066 0.26426 0.0
H1638 H 0.34865 0.19856 0.27619 0.0
H1639 H 0.36436 0.20911 0.25501 0.0
H1640 H 0.31994 0.25709 0.3029 0.0
H1641 H 0.35883 0.28742 0.25488 0.0
H1642 H 0.35849 0.23663 0.33668 0.0
H1643 H 0.34585 0.21161 0.31545 0.0
H1644 H 0.32975 0.23 0.32702 0.0
H1645 H 0.40544 0.27232 0.27593 0.0
H1646 H 0.39015 0.2755 0.24838 0.0
H1647 H 0.39226 0.24668 0.25566 0.0
C1648 C 0.34093 0.18878 0.50374 0.0
C1649 C 0.32366 0.17201 0.50864 0.0
C1650 C 0.36085 0.18311 0.50214 0.0
C1651 C 0.36346 0.16009 0.50527 0.0
C1652 C 0.34596 0.14303 0.5098 0.0
C1653 C 0.3264 0.14921 0.51152 0.0
C1654 C 0.37918 0.20182 0.49746 0.0
C1655 C 0.34789 0.11819 0.51298 0.0
C1656 C 0.40613 0.13321 0.48241 0.0
C1657 C 0.42038 0.13321 0.50314 0.0
C1658 C 0.38816 0.14312 0.48261 0.0
C1659 C 0.38439 0.1535 0.50404 0.0
C1660 C 0.39946 0.15493 0.52478 0.0
C1661 C 0.41721 0.14471 0.52411 0.0
C1662 C 0.37255 0.14121 0.46008 0.0
C1663 C 0.39616 0.16601 0.54797 0.0
H1664 H 0.33901 0.20645 0.50156 0.0
H1665 H 0.31316 0.13602 0.51514 0.0
H1666 H 0.39281 0.20521 0.51236 0.0
H1667 H 0.38512 0.19561 0.48168 0.0
H1668 H 0.37444 0.21869 0.49485 0.0
H1669 H 0.33262 0.10687 0.5159 0.0
H1670 H 0.35267 0.10993 0.49731 0.0
H1671 H 0.36064 0.11855 0.52816 0.0
H1672 H 0.40867 0.12483 0.46603 0.0
H1673 H 0.42799 0.14471 0.54027 0.0
H1674 H 0.36862 0.15848 0.45769 0.0
H1675 H 0.3573 0.12851 0.46083 0.0
H1676 H 0.37896 0.13508 0.44458 0.0
H1677 H 0.39219 0.18337 0.54625 0.0
H1678 H 0.41059 0.16849 0.5618 0.0
H1679 H 0.38238 0.15455 0.55371 0.0
C1680 C 0.75642 0.68587 0.35875 0.0
C1681 C 0.73496 0.68648 0.35951 0.0
C1682 C 0.77028 0.70448 0.35128 0.0
C1683 C 0.76257 0.72431 0.34491 0.0
C1684 C 0.74154 0.72594 0.34771 0.0
C1685 C 0.72789 0.70688 0.35476 0.0
C1686 C 0.79254 0.702 0.34835 0.0
C1687 C 0.73295 0.74711 0.34175 0.0
C1688 C 0.80187 0.77845 0.33322 0.0
C1689 C 0.79848 0.77544 0.3087 0.0
C1690 C 0.79032 0.76196 0.34537 0.0
C1691 C 0.77542 0.74183 0.33263 0.0
C1692 C 0.77238 0.73849 0.30785 0.0
C1693 C 0.78382 0.75548 0.29618 0.0
C1694 C 0.79359 0.7664 0.37173 0.0
C1695 C 0.75676 0.71715 0.29362 0.0
H1696 H 0.76195 0.6701 0.3623 0.0
H1697 H 0.71137 0.70752 0.35555 0.0
H1698 H 0.79321 0.69909 0.32942 0.0
H1699 H 0.80472 0.71838 0.356 0.0
H1700 H 0.79698 0.68697 0.35664 0.0
H1701 H 0.71731 0.74694 0.34751 0.0
H1702 H 0.74465 0.76364 0.35002 0.0
H1703 H 0.73066 0.7474 0.32254 0.0
H1704 H 0.81299 0.79413 0.34289 0.0
H1705 H 0.78118 0.75327 0.27721 0.0
H1706 H 0.79789 0.75105 0.37944 0.0
H1707 H 0.77836 0.76857 0.37726 0.0
H1708 H 0.80639 0.78244 0.37904 0.0
H1709 H 0.76054 0.70075 0.29947 0.0
H1710 H 0.75713 0.71661 0.2746 0.0
H1711 H 0.74017 0.71723 0.29637 0.0
C1712 C 0.93428 0.59294 0.81062 0.0
C1713 C 0.95257 0.59774 0.80001 0.0
C1714 C 0.92268 0.56978 0.81035 0.0
C1715 C 0.92937 0.55092 0.799 0.0
C1716 C 0.94739 0.5556 0.78761 0.0
C1717 C 0.95886 0.579 0.78833 0.0
C1718 C 0.90362 0.56547 0.82283 0.0
C1719 C 0.95479 0.53587 0.7751 0.0
C1720 C 0.91297 0.49209 0.82119 0.0
C1721 C 0.89444 0.48107 0.80488 0.0
C1722 C 0.9248 0.5146 0.81913 0.0
C1723 C 0.91805 0.52629 0.80016 0.0
C1724 C 0.89973 0.51502 0.78325 0.0
C1725 C 0.88806 0.49256 0.78587 0.0
C1726 C 0.94421 0.52613 0.83759 0.0
C1727 C 0.89211 0.52694 0.76275 0.0
H1728 H 0.92926 0.60728 0.81969 0.0
H1729 H 0.9729 0.58257 0.77999 0.0
H1730 H 0.8891 0.55499 0.81069 0.0
H1731 H 0.90681 0.55507 0.83741 0.0
H1732 H 0.90004 0.58215 0.83009 0.0
H1733 H 0.96822 0.54255 0.76584 0.0
H1734 H 0.96023 0.52454 0.78788 0.0
H1735 H 0.94123 0.52456 0.76222 0.0
H1736 H 0.91824 0.48311 0.83565 0.0
H1737 H 0.87364 0.48425 0.77332 0.0
H1738 H 0.94143 0.54235 0.84685 0.0
H1739 H 0.95856 0.53152 0.82932 0.0
H1740 H 0.94782 0.51428 0.85071 0.0
H1741 H 0.8866 0.54268 0.76914 0.0
H1742 H 0.87866 0.51503 0.75015 0.0
H1743 H 0.90555 0.53315 0.75339 0.0
C1744 C 0.07335 0.90921 0.08841 0.0
C1745 C 0.07768 0.91118 0.11294 0.0
C1746 C 0.06809 0.92791 0.07688 0.0
C1747 C 0.06725 0.94918 0.09014 0.0
C1748 C 0.07148 0.95117 0.11489 0.0
C1749 C 0.07657 0.93221 0.12593 0.0
C1750 C 0.06364 0.92501 0.05048 0.0
C1751 C 0.07097 0.97352 0.12977 0.0
C1752 C 0.07709 0.0068 0.06363 0.0
C1753 C 0.0563 0.01085 0.05849 0.0
C1754 C 0.08074 0.98668 0.07347 0.0
C1755 C 0.0632 0.9699 0.07831 0.0
C1756 C 0.04209 0.97356 0.07278 0.0
C1757 C 0.03889 0.99399 0.06298 0.0
C1758 C 0.10353 0.98367 0.07913 0.0
C1759 C 0.02293 0.95606 0.07756 0.0
H1760 H 0.07402 0.89302 0.0782 0.0
H1761 H 0.07982 0.93395 0.14488 0.0
H1762 H 0.04768 0.9285 0.04413 0.0
H1763 H 0.07583 0.93807 0.04406 0.0
H1764 H 0.06395 0.90705 0.04269 0.0
H1765 H 0.07394 0.97201 0.14878 0.0
H1766 H 0.08338 0.98843 0.12624 0.0
H1767 H 0.05514 0.97797 0.12521 0.0
H1768 H 0.09073 0.01949 0.06015 0.0
H1769 H 0.02277 0.99685 0.05909 0.0
H1770 H 0.10473 0.96641 0.0705 0.0
H1771 H 0.1081 0.98375 0.09827 0.0
H1772 H 0.11532 0.99785 0.07349 0.0
H1773 H 0.02246 0.93817 0.069 0.0
H1774 H 0.00749 0.96079 0.07121 0.0
H1775 H 0.02439 0.95517 0.09664 0.0
C1776 C 0.94594 0.31275 0.87258 0.0
C1777 C 0.96139 0.30761 0.85972 0.0
C1778 C 0.9248 0.31173 0.86135 0.0
C1779 C 0.9189 0.30477 0.83684 0.0
C1780 C 0.93424 0.29841 0.82408 0.0
C1781 C 0.95535 0.30029 0.8356 0.0
C1782 C 0.90907 0.31917 0.87549 0.0
C1783 C 0.92852 0.29015 0.79811 0.0
C1784 C 0.85966 0.28467 0.8091 0.0
C1785 C 0.85613 0.30424 0.7982 0.0
C1786 C 0.87993 0.28462 0.82184 0.0
C1787 C 0.897 0.30487 0.82425 0.0
C1788 C 0.89342 0.32483 0.81357 0.0
C1789 C 0.87315 0.32409 0.80031 0.0
C1790 C 0.88318 0.26274 0.83233 0.0
C1791 C 0.91103 0.34696 0.81607 0.0
H1792 H 0.95068 0.31873 0.89118 0.0
H1793 H 0.96729 0.29626 0.82564 0.0
H1794 H 0.90456 0.33512 0.86932 0.0
H1795 H 0.89409 0.30512 0.87294 0.0
H1796 H 0.91584 0.32319 0.89448 0.0
H1797 H 0.94173 0.28395 0.79118 0.0
H1798 H 0.91386 0.27556 0.79425 0.0
H1799 H 0.92489 0.30478 0.7886 0.0
H1800 H 0.84658 0.26922 0.80748 0.0
H1801 H 0.87062 0.3391 0.79165 0.0
H1802 H 0.88874 0.267 0.8515 0.0
H1803 H 0.8959 0.25598 0.82493 0.0
H1804 H 0.86824 0.24849 0.82896 0.0
H1805 H 0.91798 0.35288 0.83483 0.0
H1806 H 0.90515 0.36159 0.80842 0.0
H1807 H 0.92421 0.34327 0.80722 0.0
C1808 C 0.56922 0.2464 0.63307 0.0
C1809 C 0.57513 0.26622 0.6216 0.0
C1810 C 0.56433 0.22345 0.62114 0.0
C1811 C 0.56564 0.22008 0.59711 0.0
C1812 C 0.57104 0.23999 0.58519 0.0
C1813 C 0.57556 0.26288 0.59755 0.0
C1814 C 0.55834 0.20278 0.63446 0.0
C1815 C 0.57283 0.23711 0.55963 0.0
C1816 C 0.57722 0.16121 0.57674 0.0
C1817 C 0.55678 0.148 0.56573 0.0
C1818 C 0.58041 0.18489 0.58627 0.0
C1819 C 0.56268 0.19565 0.58506 0.0
C1820 C 0.54203 0.18252 0.57376 0.0
C1821 C 0.53935 0.1589 0.56411 0.0
C1822 C 0.60274 0.1983 0.59794 0.0
C1823 C 0.52268 0.19324 0.57234 0.0
H1824 H 0.56859 0.24879 0.65159 0.0
H1825 H 0.58015 0.27809 0.58858 0.0
H1826 H 0.54304 0.19077 0.6253 0.0
H1827 H 0.57095 0.19249 0.63527 0.0
H1828 H 0.55651 0.20841 0.65262 0.0
H1829 H 0.57576 0.25426 0.55253 0.0
H1830 H 0.58626 0.22857 0.55728 0.0
H1831 H 0.55792 0.22541 0.54921 0.0
H1832 H 0.59088 0.15311 0.57783 0.0
H1833 H 0.52351 0.1489 0.55557 0.0
H1834 H 0.603 0.20316 0.61685 0.0
H1835 H 0.60732 0.21494 0.59031 0.0
H1836 H 0.61503 0.18788 0.59612 0.0
H1837 H 0.51965 0.19788 0.59022 0.0
H1838 H 0.50794 0.18108 0.56199 0.0
H1839 H 0.52577 0.20981 0.56428 0.0
C1840 C 0.59729 0.81399 0.40594 0.0
C1841 C 0.57713 0.8008 0.39413 0.0
C1842 C 0.61595 0.8141 0.39626 0.0
C1843 C 0.61441 0.80045 0.37444 0.0
C1844 C 0.59418 0.78658 0.36281 0.0
C1845 C 0.57578 0.78704 0.37272 0.0
C1846 C 0.6372 0.8293 0.40906 0.0
C1847 C 0.59188 0.77156 0.33964 0.0
C1848 C 0.65493 0.81691 0.33452 0.0
C1849 C 0.66764 0.80048 0.33805 0.0
C1850 C 0.63812 0.81771 0.34698 0.0
C1851 C 0.63368 0.80142 0.3631 0.0
C1852 C 0.64685 0.78519 0.3672 0.0
C1853 C 0.66381 0.78504 0.35473 0.0
C1854 C 0.62469 0.83554 0.34238 0.0
C1855 C 0.64247 0.76737 0.38403 0.0
H1856 H 0.59844 0.82467 0.42249 0.0
H1857 H 0.56027 0.77666 0.36359 0.0
H1858 H 0.64933 0.8185 0.4118 0.0
H1859 H 0.64333 0.84307 0.39832 0.0
H1860 H 0.63586 0.83807 0.42632 0.0
H1861 H 0.57524 0.76077 0.33353 0.0
H1862 H 0.59625 0.783 0.32615 0.0
H1863 H 0.60308 0.75958 0.3411 0.0
H1864 H 0.65806 0.82901 0.32179 0.0
H1865 H 0.67355 0.77223 0.35734 0.0
H1866 H 0.6238 0.84571 0.35909 0.0
H1867 H 0.60802 0.82629 0.33415 0.0
H1868 H 0.63125 0.8481 0.33066 0.0
H1869 H 0.6416 0.77633 0.40136 0.0
H1870 H 0.655 0.75701 0.38637 0.0
H1871 H 0.62665 0.75499 0.37743 0.0
C1872 C 0.01035 0.23035 0.45436 0.0
C1873 C 0.02898 0.24861 0.45786 0.0
C1874 C 0.01056 0.20886 0.46346 0.0
C1875 C 0.03009 0.20506 0.4755 0.0
C1876 C 0.04897 0.22345 0.47893 0.0
C1877 C 0.04808 0.24508 0.47049 0.0
C1878 C 0.98989 0.19017 0.46013 0.0
C1879 C 0.07031 0.22001 0.49085 0.0
C1880 C 0.03156 0.15726 0.51592 0.0
C1881 C 0.03479 0.13856 0.50106 0.0
C1882 C 0.02916 0.1786 0.50763 0.0
C1883 C 0.03096 0.18178 0.48412 0.0
C1884 C 0.03434 0.16293 0.46909 0.0
C1885 C 0.03579 0.14144 0.47761 0.0
C1886 C 0.02479 0.19779 0.52407 0.0
C1887 C 0.03719 0.16572 0.4442 0.0
H1888 H 0.99554 0.23295 0.44461 0.0
H1889 H 0.06262 0.25896 0.47295 0.0
H1890 H 0.99115 0.17439 0.44882 0.0
H1891 H 0.98697 0.18451 0.47724 0.0
H1892 H 0.9758 0.19647 0.45202 0.0
H1893 H 0.0836 0.2358 0.49166 0.0
H1894 H 0.0693 0.21604 0.50892 0.0
H1895 H 0.07437 0.2047 0.48133 0.0
H1896 H 0.03069 0.1551 0.53404 0.0
H1897 H 0.03856 0.12715 0.46613 0.0
H1898 H 0.01048 0.20371 0.51601 0.0
H1899 H 0.03863 0.2133 0.52738 0.0
H1900 H 0.022 0.19186 0.54113 0.0
H1901 H 0.02277 0.1701 0.4344 0.0
H1902 H 0.03992 0.14951 0.43483 0.0
H1903 H 0.0511 0.18056 0.44411 0.0
C1904 C 0.64049 0.34304 0.20033 0.0
C1905 C 0.63888 0.34249 0.17599 0.0
C1906 C 0.65983 0.34216 0.2146 0.0
C1907 C 0.67808 0.34068 0.20434 0.0
C1908 C 0.67665 0.34043 0.17981 0.0
C1909 C 0.6571 0.34135 0.16595 0.0
C1910 C 0.66063 0.34248 0.24065 0.0
C1911 C 0.69573 0.33887 0.16816 0.0
C1912 C 0.73379 0.35728 0.24261 0.0
C1913 C 0.73766 0.33507 0.24638 0.0
C1914 C 0.71444 0.35938 0.22917 0.0
C1915 C 0.69851 0.33882 0.21918 0.0
C1916 C 0.70215 0.31639 0.22323 0.0
C1917 C 0.72161 0.31479 0.23675 0.0
C1918 C 0.71117 0.38363 0.22536 0.0
C1919 C 0.68558 0.29401 0.21297 0.0
H1920 H 0.62652 0.34392 0.20828 0.0
H1921 H 0.65602 0.34092 0.14717 0.0
H1922 H 0.66432 0.32592 0.24612 0.0
H1923 H 0.67371 0.35728 0.25023 0.0
H1924 H 0.64523 0.34434 0.246 0.0
H1925 H 0.69218 0.33944 0.14901 0.0
H1926 H 0.70962 0.35362 0.17599 0.0
H1927 H 0.70068 0.32221 0.17117 0.0
H1928 H 0.74602 0.37309 0.24991 0.0
H1929 H 0.72436 0.29752 0.23945 0.0
H1930 H 0.69624 0.3862 0.23137 0.0
H1931 H 0.70918 0.38536 0.20641 0.0
H1932 H 0.72487 0.3979 0.23478 0.0
H1933 H 0.67006 0.29438 0.21875 0.0
H1934 H 0.69066 0.27796 0.21812 0.0
H1935 H 0.68264 0.29268 0.19359 0.0
C1936 C 0.5376 0.89777 0.96834 0.0
C1937 C 0.54975 0.89473 0.95077 0.0
C1938 C 0.53985 0.92018 0.98103 0.0
C1939 C 0.55498 0.93995 0.97647 0.0
C1940 C 0.5676 0.93682 0.9591 0.0
C1941 C 0.56468 0.91441 0.94637 0.0
C1942 C 0.52572 0.92284 0.999 0.0
C1943 C 0.58421 0.95717 0.9539 0.0
C1944 C 0.55002 1.00291 0.99441 0.0
C1945 C 0.56409 0.00905 0.01595 0.0
C1946 C 0.54667 0.98044 0.98148 0.0
C1947 C 0.55798 0.96382 0.99011 0.0
C1948 C 0.57257 0.97021 0.01164 0.0
C1949 C 0.57525 0.99259 0.02438 0.0
C1950 C 0.53082 0.97441 0.95874 0.0
C1951 C 0.58546 0.95342 0.0212 0.0
H1952 H 0.52585 0.88279 0.97166 0.0
H1953 H 0.57421 0.91228 0.93288 0.0
H1954 H 0.53578 0.92943 0.01648 0.0
H1955 H 0.51627 0.93608 0.99453 0.0
H1956 H 0.51441 0.90595 1.00014 0.0
H1957 H 0.59347 0.95158 0.94071 0.0
H1958 H 0.57625 0.97086 0.94724 0.0
H1959 H 0.59563 0.9655 0.97017 0.0
H1960 H 0.54122 0.01546 0.98795 0.0
H1961 H 0.58618 0.99725 0.04102 0.0
H1962 H 0.51883 0.95778 0.95898 0.0
H1963 H 0.53934 0.9715 0.94398 0.0
H1964 H 0.52217 0.98858 0.95534 0.0
H1965 H 0.57449 0.93709 0.02429 0.0
H1966 H 0.59655 0.96127 0.03787 0.0
H1967 H 0.59507 0.94821 0.00822 0.0
C1968 C 0.01095 0.81804 0.70257 0.0
C1969 C 0.01738 0.82825 0.68315 0.0
C1970 C 0.99323 0.82278 0.71174 0.0
C1971 C 0.98148 0.83807 0.70124 0.0
C1972 C 0.98739 0.84786 0.68119 0.0
C1973 C 0.00529 0.84287 0.67239 0.0
C1974 C 0.98749 0.81194 0.73314 0.0
C1975 C 0.97515 0.86409 0.6694 0.0
C1976 C 0.92623 0.83514 0.71754 0.0
C1977 C 0.93059 0.85415 0.73547 0.0
C1978 C 0.94245 0.83016 0.70568 0.0
C1979 C 0.9636 0.84443 0.71198 0.0
C1980 C 0.968 0.86394 0.72972 0.0
C1981 C 0.95145 0.86859 0.7412 0.0
C1982 C 0.93705 0.80932 0.68675 0.0
C1983 C 0.99037 0.87949 0.73711 0.0
H1984 H 0.02005 0.80664 0.71101 0.0
H1985 H 0.01008 0.85085 0.65739 0.0
H1986 H 0.9893 0.82607 0.74786 0.0
H1987 H 0.97043 0.80203 0.72962 0.0
H1988 H 0.99777 0.79977 0.73872 0.0
H1989 H 0.98091 0.86908 0.65314 0.0
H1990 H 0.95774 0.85554 0.665 0.0
H1991 H 0.9769 0.88041 0.68155 0.0
H1992 H 0.91007 0.82411 0.71278 0.0
H1993 H 0.955 0.88317 0.75517 0.0
H1994 H 0.94592 0.7959 0.69222 0.0
H1995 H 0.94222 0.8149 0.67043 0.0
H1996 H 0.91957 0.80092 0.68286 0.0
H1997 H 1.00149 0.86899 0.74468 0.0
H1998 H 0.9909 0.89467 0.7503 0.0
H1999 H 0.99646 0.88635 0.7217 0.0
C2000 C 0.1532 0.09 0.92344 0.0
C2001 C 0.16074 0.11452 0.9288 0.0
C2002 C 0.13654 0.07784 0.93361 0.0
C2003 C 0.12781 0.09049 0.95008 0.0
C2004 C 0.13679 0.11489 0.95716 0.0
C2005 C 0.15287 0.12676 0.94602 0.0
C2006 C 0.12703 0.05203 0.92499 0.0
C2007 C 0.12855 0.12869 0.97555 0.0
C2008 C 0.06946 0.07331 0.95689 0.0
C2009 C 0.07119 0.06351 0.97787 0.0
C2010 C 0.08772 0.08101 0.9469 0.0
C2011 C 0.10808 0.07896 0.95836 0.0
C2012 C 0.10963 0.06756 0.97866 0.0
C2013 C 0.09108 0.05981 0.98813 0.0
C2014 C 0.08537 0.09237 0.92473 0.0
C2015 C 0.13099 0.06455 0.99094 0.0
H2016 H 0.15902 0.08058 0.90979 0.0
H2017 H 0.15873 0.14573 0.9501 0.0
H2018 H 0.12255 0.04201 0.93942 0.0
H2019 H 0.11214 0.05032 0.91203 0.0
H2020 H 0.13831 0.04379 0.91634 0.0
H2021 H 0.13873 0.14684 0.9808 0.0
H2022 H 0.1119 0.12995 0.96873 0.0
H2023 H 0.12802 0.11947 0.99132 0.0
H2024 H 0.05404 0.07596 0.94883 0.0
H2025 H 0.09235 0.05186 0.00421 0.0
H2026 H 0.09381 0.08469 0.91183 0.0
H2027 H 0.09292 0.11151 0.92868 0.0
H2028 H 0.06825 0.09016 0.91661 0.0
H2029 H 0.13825 0.05409 0.97893 0.0
H2030 H 0.12946 0.05555 0.00675 0.0
H2031 H 0.14232 0.08205 0.99605 0.0
C2032 C 0.79372 0.38979 0.60767 0.0
C2033 C 0.81239 0.40118 0.6001 0.0
C2034 C 0.79478 0.38101 0.62942 0.0
C2035 C 0.81508 0.38278 0.64361 0.0
C2036 C 0.83403 0.39356 0.63562 0.0
C2037 C 0.83243 0.40307 0.61424 0.0
C2038 C 0.77412 0.37047 0.63753 0.0
C2039 C 0.85601 0.39508 0.64967 0.0
C2040 C 0.81832 0.38022 0.70936 0.0
C2041 C 0.81714 0.35621 0.71083 0.0
C2042 C 0.81755 0.38906 0.68765 0.0
C2043 C 0.81642 0.37372 0.66694 0.0
C2044 C 0.81604 0.34959 0.66852 0.0
C2045 C 0.81592 0.34104 0.69034 0.0
C2046 C 0.81717 0.41468 0.68679 0.0
C2047 C 0.81562 0.33273 0.64714 0.0
H2048 H 0.77817 0.38857 0.59697 0.0
H2049 H 0.84691 0.41181 0.60845 0.0
H2050 H 0.77355 0.35187 0.64033 0.0
H2051 H 0.77346 0.38022 0.65456 0.0
H2052 H 0.75965 0.37097 0.62478 0.0
H2053 H 0.86916 0.40248 0.64032 0.0
H2054 H 0.85812 0.40637 0.66661 0.0
H2055 H 0.85759 0.37729 0.65369 0.0
H2056 H 0.81888 0.39192 0.72511 0.0
H2057 H 0.81498 0.32246 0.6914 0.0
H2058 H 0.80222 0.41597 0.67531 0.0
H2059 H 0.83091 0.42367 0.67913 0.0
H2060 H 0.81793 0.42424 0.70438 0.0
H2061 H 0.8003 0.33061 0.63478 0.0
H2062 H 0.81719 0.31505 0.65158 0.0
H2063 H 0.82889 0.33995 0.6379 0.0
C2064 C 0.53857 0.16168 0.38872 0.0
C2065 C 0.51851 0.16732 0.38317 0.0
C2066 C 0.54468 0.15358 0.40995 0.0
C2067 C 0.53058 0.15148 0.42635 0.0
C2068 C 0.51109 0.15898 0.42178 0.0
C2069 C 0.50518 0.1667 0.40011 0.0
C2070 C 0.5656 0.1457 0.41406 0.0
C2071 C 0.49595 0.15762 0.43919 0.0
C2072 C 0.53641 0.10245 0.46307 0.0
C2073 C 0.55129 0.11475 0.48256 0.0
C2074 C 0.52862 0.1144 0.44511 0.0
C2075 C 0.53556 0.13928 0.44703 0.0
C2076 C 0.54951 0.1519 0.46746 0.0
C2077 C 0.55746 0.13942 0.48488 0.0
C2078 C 0.51395 0.10025 0.4235 0.0
C2079 C 0.55671 0.17845 0.47049 0.0
H2080 H 0.54915 0.16241 0.37591 0.0
H2081 H 0.4897 0.17113 0.39604 0.0
H2082 H 0.57548 0.15445 0.43108 0.0
H2083 H 0.56217 0.12639 0.41479 0.0
H2084 H 0.57523 0.14963 0.40007 0.0
H2085 H 0.48355 0.16785 0.43495 0.0
H2086 H 0.48764 0.13895 0.43916 0.0
H2087 H 0.50495 0.1643 0.45716 0.0
H2088 H 0.53149 0.08337 0.46142 0.0
H2089 H 0.56864 0.14897 0.50025 0.0
H2090 H 0.52237 0.10182 0.40829 0.0
H2091 H 0.49936 0.10726 0.41947 0.0
H2092 H 0.50889 0.08126 0.42546 0.0
H2093 H 0.56847 0.18383 0.45886 0.0
H2094 H 0.56446 0.18575 0.4888 0.0
H2095 H 0.54287 0.18646 0.46545 0.0
C2096 C 0.77725 0.76315 0.08881 0.0
C2097 C 0.77849 0.73947 0.08513 0.0
C2098 C 0.78052 0.77516 0.11168 0.0
C2099 C 0.78555 0.76335 0.13125 0.0
C2100 C 0.78778 0.73981 0.12749 0.0
C2101 C 0.78404 0.72816 0.10459 0.0
C2102 C 0.77775 0.80015 0.11493 0.0
C2103 C 0.79352 0.72664 0.14773 0.0
C2104 C 0.80866 0.79693 0.19228 0.0
C2105 C 0.79064 0.7928 0.20339 0.0
C2106 C 0.8072 0.78795 0.16867 0.0
C2107 C 0.78717 0.77481 0.1557 0.0
C2108 C 0.76883 0.77112 0.16668 0.0
C2109 C 0.77082 0.77998 0.19036 0.0
C2110 C 0.82722 0.79202 0.1578 0.0
C2111 C 0.7471 0.7575 0.15349 0.0
H2112 H 0.7729 0.77198 0.07388 0.0
H2113 H 0.78531 0.70996 0.10194 0.0
H2114 H 0.76362 0.80065 0.12349 0.0
H2115 H 0.792 0.81175 0.12659 0.0
H2116 H 0.77532 0.80743 0.09805 0.0
H2117 H 0.79629 0.70911 0.14183 0.0
H2118 H 0.80823 0.73709 0.1596 0.0
H2119 H 0.78033 0.72399 0.15807 0.0
H2120 H 0.82404 0.8069 0.20212 0.0
H2121 H 0.75671 0.77696 0.19862 0.0
H2122 H 0.82442 0.8001 0.14147 0.0
H2123 H 0.83118 0.77487 0.15297 0.0
H2124 H 0.8413 0.80363 0.1698 0.0
H2125 H 0.74288 0.76505 0.13713 0.0
H2126 H 0.73415 0.7576 0.164 0.0
H2127 H 0.74765 0.73891 0.14843 0.0
C2128 C 0.18102 0.1169 0.7839 0.0
C2129 C 0.17179 0.12107 0.80365 0.0
C2130 C 0.16947 0.11599 0.76138 0.0
C2131 C 0.14836 0.1197 0.75866 0.0
C2132 C 0.13892 0.12387 0.77853 0.0
C2133 C 0.15074 0.12434 0.80086 0.0
C2134 C 0.17991 0.11118 0.7405 0.0
C2135 C 0.11653 0.12821 0.77621 0.0
C2136 C 0.12963 0.13988 0.70103 0.0
C2137 C 0.11731 0.11866 0.68811 0.0
C2138 C 0.1391 0.14066 0.72441 0.0
C2139 C 0.1364 0.11965 0.73494 0.0
C2140 C 0.1234 0.09834 0.72229 0.0
C2141 C 0.11388 0.09814 0.69903 0.0
C2142 C 0.15268 0.16377 0.73753 0.0
C2143 C 0.12026 0.07559 0.733 0.0
H2144 H 0.19726 0.11423 0.78604 0.0
H2145 H 0.14362 0.12768 0.81615 0.0
H2146 H 0.16973 0.09559 0.72865 0.0
H2147 H 0.18135 0.12643 0.73039 0.0
H2148 H 0.19618 0.10791 0.74564 0.0
H2149 H 0.11142 0.13081 0.79343 0.0
H2150 H 0.11588 0.1441 0.76737 0.0
H2151 H 0.1048 0.11313 0.76516 0.0
H2152 H 0.13256 0.15575 0.69264 0.0
H2153 H 0.10402 0.08179 0.68924 0.0
H2154 H 0.16978 0.16271 0.7412 0.0
H2155 H 0.14766 0.16738 0.75462 0.0
H2156 H 0.15155 0.17886 0.72753 0.0
H2157 H 0.13591 0.07056 0.73696 0.0
H2158 H 0.10867 0.06085 0.72124 0.0
H2159 H 0.1144 0.07794 0.74978 0.0
C2160 C 0.78701 0.387 0.44971 0.0
C2161 C 0.79922 0.41028 0.45502 0.0
C2162 C 0.78551 0.37393 0.42768 0.0
C2163 C 0.79721 0.38404 0.41092 0.0
C2164 C 0.80995 0.40739 0.41649 0.0
C2165 C 0.81043 0.42034 0.43822 0.0
C2166 C 0.77111 0.34944 0.42219 0.0
C2167 C 0.82343 0.41856 0.39968 0.0
C2168 C 0.80932 0.34091 0.36432 0.0
C2169 C 0.79504 0.3429 0.34437 0.0
C2170 C 0.81056 0.3546 0.38585 0.0
C2171 C 0.79655 0.37004 0.3878 0.0
C2172 C 0.78206 0.37211 0.36763 0.0
C2173 C 0.78178 0.35886 0.34605 0.0
C2174 C 0.82698 0.35262 0.4065 0.0
C2175 C 0.7665 0.3879 0.36896 0.0
H2176 H 0.77811 0.37926 0.46252 0.0
H2177 H 0.81998 0.43833 0.44228 0.0
H2178 H 0.75939 0.34819 0.40583 0.0
H2179 H 0.78082 0.33631 0.4192 0.0
H2180 H 0.7621 0.34464 0.43649 0.0
H2181 H 0.83258 0.43682 0.40668 0.0
H2182 H 0.83499 0.40778 0.39587 0.0
H2183 H 0.81308 0.41903 0.38282 0.0
H2184 H 0.81978 0.3288 0.36301 0.0
H2185 H 0.77068 0.36041 0.33066 0.0
H2186 H 0.81873 0.34539 0.4205 0.0
H2187 H 0.83709 0.37035 0.41389 0.0
H2188 H 0.83764 0.34104 0.40171 0.0
H2189 H 0.75651 0.38291 0.38241 0.0
H2190 H 0.75568 0.38683 0.35196 0.0
H2191 H 0.77541 0.4065 0.37437 0.0
C2192 C 0.52152 0.20422 0.25623 0.0
C2193 C 0.49952 0.19365 0.25335 0.0
C2194 C 0.5332 0.20076 0.23833 0.0
C2195 C 0.52259 0.18621 0.21732 0.0
C2196 C 0.49997 0.17776 0.21338 0.0
C2197 C 0.48865 0.18171 0.23146 0.0
C2198 C 0.55719 0.2108 0.24277 0.0
C2199 C 0.48804 0.16246 0.19102 0.0
C2200 C 0.54987 0.17395 0.16575 0.0
C2201 C 0.55507 0.15252 0.17014 0.0
C2202 C 0.54022 0.18596 0.18154 0.0
C2203 C 0.53531 0.1759 0.20178 0.0
C2204 C 0.54128 0.15468 0.20663 0.0
C2205 C 0.55122 0.14335 0.1908 0.0
C2206 C 0.53456 0.20879 0.17597 0.0
C2207 C 0.53626 0.14328 0.22799 0.0
H2208 H 0.52992 0.21393 0.27297 0.0
H2209 H 0.47155 0.17386 0.22897 0.0
H2210 H 0.56562 0.19664 0.24691 0.0
H2211 H 0.56244 0.21766 0.22696 0.0
H2212 H 0.56224 0.22522 0.25768 0.0
H2213 H 0.47033 0.15998 0.18942 0.0
H2214 H 0.49313 0.17028 0.17559 0.0
H2215 H 0.49193 0.14486 0.19066 0.0
H2216 H 0.55308 0.18112 0.14984 0.0
H2217 H 0.55505 0.12663 0.19403 0.0
H2218 H 0.53651 0.22131 0.19207 0.0
H2219 H 0.51749 0.20508 0.16724 0.0
H2220 H 0.54465 0.21741 0.16396 0.0
H2221 H 0.54323 0.1559 0.24408 0.0
H2222 H 0.54261 0.12717 0.22951 0.0
H2223 H 0.51857 0.13835 0.22719 0.0
C2224 C 0.7703 0.77853 0.9403 0.0
C2225 C 0.78003 0.75964 0.94432 0.0
C2226 C 0.77369 0.79126 0.92127 0.0
C2227 C 0.78762 0.78543 0.90622 0.0
C2228 C 0.79782 0.76669 0.91053 0.0
C2229 C 0.79369 0.75387 0.92928 0.0
C2230 C 0.76201 0.81063 0.91697 0.0
C2231 C 0.81312 0.76011 0.89529 0.0
C2232 C 0.78384 0.80065 0.84367 0.0
C2233 C 0.80048 0.82094 0.84602 0.0
C2234 C 0.77883 0.78961 0.86321 0.0
C2235 C 0.79129 0.79853 0.88568 0.0
C2236 C 0.80798 0.81925 0.88818 0.0
C2237 C 0.81213 0.83042 0.86838 0.0
C2238 C 0.76044 0.7681 0.85968 0.0
C2239 C 0.82201 0.82909 0.91162 0.0
H2240 H 0.75959 0.783 0.95171 0.0
H2241 H 0.80138 0.73941 0.93231 0.0
H2242 H 0.77374 0.82758 0.9173 0.0
H2243 H 0.75179 0.80653 0.89934 0.0
H2244 H 0.75167 0.81297 0.93017 0.0
H2245 H 0.82062 0.74594 0.90167 0.0
H2246 H 0.80443 0.75398 0.87712 0.0
H2247 H 0.82607 0.7758 0.89467 0.0
H2248 H 0.77474 0.79332 0.82643 0.0
H2249 H 0.82513 0.846 0.87027 0.0
H2250 H 0.74965 0.76993 0.87249 0.0
H2251 H 0.76683 0.75227 0.86271 0.0
H2252 H 0.7508 0.76508 0.84174 0.0
H2253 H 0.81196 0.83251 0.92479 0.0
H2254 H 0.83382 0.84573 0.91084 0.0
H2255 H 0.83092 0.81594 0.91782 0.0
C2256 C 0.84907 0.17746 0.01343 0.0
C2257 C 0.83764 0.17284 0.03177 0.0
C2258 C 0.86561 0.16602 0.00978 0.0
C2259 C 0.87091 0.14971 0.0249 0.0
C2260 C 0.85995 0.14566 0.04392 0.0
C2261 C 0.84349 0.15721 0.04708 0.0
C2262 C 0.87696 0.17081 0.98934 0.0
C2263 C 0.8652 0.1286 0.0606 0.0
C2264 C 0.89599 0.09998 0.00443 0.0
C2265 C 0.91753 0.10823 0.0154 0.0
C2266 C 0.88081 0.11363 0.00678 0.0
C2267 C 0.88728 0.13607 0.0205 0.0
C2268 C 0.90908 0.14469 0.03127 0.0
C2269 C 0.92393 0.13067 0.02861 0.0
C2270 C 0.85772 0.10382 0.99497 0.0
C2271 C 0.91663 0.16843 0.04615 0.0
H2272 H 0.84465 0.18944 1.00148 0.0
H2273 H 0.8349 0.15363 0.06142 0.0
H2274 H 0.89462 0.17604 0.99539 0.0
H2275 H 0.87354 0.15448 0.97675 0.0
H2276 H 0.87184 0.18494 0.98 0.0
H2277 H 0.85591 0.12827 0.07515 0.0
H2278 H 0.86161 0.11053 0.051 0.0
H2279 H 0.88261 0.13336 0.06815 0.0
H2280 H 0.89099 0.08282 0.99395 0.0
H2281 H 0.94049 0.13707 0.0374 0.0
H2282 H 0.85217 0.1165 0.98387 0.0
H2283 H 0.84725 0.10124 0.00838 0.0
H2284 H 0.85552 0.08667 0.9839 0.0
H2285 H 0.91184 0.18234 0.03628 0.0
H2286 H 0.93435 0.17327 0.052 0.0
H2287 H 0.90883 0.16822 0.06184 0.0
C2288 C 0.40601 0.47909 0.05773 0.0
C2289 C 0.39017 0.49026 0.04807 0.0
C2290 C 0.42811 0.48983 0.06002 0.0
C2291 C 0.43453 0.51226 0.05253 0.0
C2292 C 0.4186 0.52366 0.04301 0.0
C2293 C 0.39677 0.51259 0.04092 0.0
C2294 C 0.44461 0.4771 0.07025 0.0
C2295 C 0.4246 0.54755 0.03478 0.0
C2296 C 0.4899 0.55323 0.07431 0.0
C2297 C 0.50013 0.55058 0.05502 0.0
C2298 C 0.46887 0.54015 0.07416 0.0
C2299 C 0.4578 0.52399 0.05423 0.0
C2300 C 0.4684 0.52071 0.03503 0.0
C2301 C 0.48944 0.53396 0.03572 0.0
C2302 C 0.45823 0.54421 0.09502 0.0
C2303 C 0.45731 0.50371 0.01343 0.0
H2304 H 0.40116 0.46187 0.06327 0.0
H2305 H 0.38481 0.52155 0.03349 0.0
H2306 H 0.45476 0.47367 0.05719 0.0
H2307 H 0.45544 0.48833 0.08565 0.0
H2308 H 0.43709 0.46004 0.07572 0.0
H2309 H 0.41028 0.55419 0.02803 0.0
H2310 H 0.43471 0.56058 0.04938 0.0
H2311 H 0.43425 0.54654 0.02068 0.0
H2312 H 0.49819 0.56588 0.0894 0.0
H2313 H 0.49752 0.53134 0.02107 0.0
H2314 H 0.45164 0.52715 0.10106 0.0
H2315 H 0.44452 0.5524 0.08993 0.0
H2316 H 0.46953 0.55589 0.10985 0.0
H2317 H 0.45106 0.48598 0.01829 0.0
H2318 H 0.4682 0.50212 1.00064 0.0
H2319 H 0.44332 0.50977 0.00473 0.0
C2320 C 0.32683 0.58879 0.68768 0.0
C2321 C 0.34842 0.59076 0.69753 0.0
C2322 C 0.31603 0.60618 0.69392 0.0
C2323 C 0.32716 0.62597 0.71028 0.0
C2324 C 0.34899 0.62814 0.72015 0.0
C2325 C 0.35935 0.61046 0.71368 0.0
C2326 C 0.2927 0.6033 0.68317 0.0
C2327 C 0.36139 0.6491 0.7376 0.0
C2328 C 0.30762 0.68256 0.71353 0.0
C2329 C 0.29824 0.68141 0.73368 0.0
C2330 C 0.31656 0.66428 0.70527 0.0
C2331 C 0.31599 0.64438 0.71743 0.0
C2332 C 0.30585 0.64273 0.73728 0.0
C2333 C 0.29712 0.66131 0.7452 0.0
C2334 C 0.32722 0.6666 0.68401 0.0
C2335 C 0.30493 0.62174 0.75066 0.0
H2336 H 0.31831 0.57357 0.67519 0.0
H2337 H 0.37606 0.61211 0.72131 0.0
H2338 H 0.28273 0.60273 0.6971 0.0
H2339 H 0.2907 0.61868 0.674 0.0
H2340 H 0.28644 0.58697 0.67052 0.0
H2341 H 0.37837 0.64825 0.74337 0.0
H2342 H 0.36127 0.66567 0.7298 0.0
H2343 H 0.35357 0.65003 0.75322 0.0
H2344 H 0.30822 0.69793 0.70438 0.0
H2345 H 0.29011 0.66046 0.76094 0.0
H2346 H 0.3205 0.65081 0.67081 0.0
H2347 H 0.34469 0.66765 0.68907 0.0
H2348 H 0.32517 0.68254 0.67577 0.0
H2349 H 0.2981 0.60511 0.7386 0.0
H2350 H 0.2951 0.62237 0.76466 0.0
H2351 H 0.32145 0.62114 0.75879 0.0
C2352 C 0.20027 0.68757 0.51137 0.0
C2353 C 0.21826 0.67775 0.5114 0.0
C2354 C 0.17969 0.6732 0.51068 0.0
C2355 C 0.1771 0.64847 0.51016 0.0
C2356 C 0.19509 0.63843 0.50944 0.0
C2357 C 0.21541 0.65316 0.50999 0.0
C2358 C 0.16086 0.68456 0.51133 0.0
C2359 C 0.19305 0.61219 0.50904 0.0
C2360 C 0.13114 0.61619 0.53695 0.0
C2361 C 0.1157 0.6056 0.51712 0.0
C2362 C 0.1512 0.62993 0.53485 0.0
C2363 C 0.15599 0.63335 0.51235 0.0
C2364 C 0.14066 0.62237 0.49221 0.0
C2365 C 0.1207 0.60852 0.49483 0.0
C2366 C 0.16717 0.64107 0.55678 0.0
C2367 C 0.14519 0.62568 0.46794 0.0
H2368 H 0.20233 0.70653 0.51233 0.0
H2369 H 0.2292 0.6454 0.50993 0.0
H2370 H 0.14741 0.67579 0.49695 0.0
H2371 H 0.1549 0.68234 0.52804 0.0
H2372 H 0.16519 0.7037 0.50976 0.0
H2373 H 0.20825 0.60698 0.50681 0.0
H2374 H 0.18855 0.60668 0.52566 0.0
H2375 H 0.18008 0.60235 0.49464 0.0
H2376 H 0.12748 0.61396 0.55426 0.0
H2377 H 0.10882 0.60053 0.47943 0.0
H2378 H 0.17077 0.66056 0.55758 0.0
H2379 H 0.18253 0.63556 0.55647 0.0
H2380 H 0.16115 0.6362 0.57294 0.0
H2381 H 0.14775 0.64464 0.46567 0.0
H2382 H 0.13184 0.61546 0.45408 0.0
H2383 H 0.16017 0.62014 0.4655 0.0
C2384 C 0.70055 0.95285 0.7649 0.0
C2385 C 0.68408 0.9403 0.74683 0.0
C2386 C 0.71711 0.94259 0.77437 0.0
C2387 C 0.71749 0.91953 0.76501 0.0
C2388 C 0.70093 0.90683 0.74665 0.0
C2389 C 0.68421 0.91726 0.73802 0.0
C2390 C 0.73414 0.95637 0.79437 0.0
C2391 C 0.7011 0.88242 0.73582 0.0
C2392 C 0.77008 0.90013 0.77009 0.0
C2393 C 0.76723 0.88365 0.78597 0.0
C2394 C 0.75427 0.91253 0.76363 0.0
C2395 C 0.7355 0.90882 0.77385 0.0
C2396 C 0.7333 0.89349 0.79119 0.0
C2397 C 0.74908 0.8808 0.79681 0.0
C2398 C 0.75697 0.92827 0.74465 0.0
C2399 C 0.71379 0.88958 0.80294 0.0
H2400 H 0.70032 0.9706 0.77189 0.0
H2401 H 0.67151 0.90762 0.72398 0.0
H2402 H 0.73508 0.94599 0.80934 0.0
H2403 H 0.75012 0.9596 0.78894 0.0
H2404 H 0.73091 0.97363 0.80041 0.0
H2405 H 0.68724 0.87513 0.72139 0.0
H2406 H 0.7162 0.88288 0.72881 0.0
H2407 H 0.70066 0.87022 0.74929 0.0
H2408 H 0.78393 0.9021 0.7614 0.0
H2409 H 0.74687 0.86804 0.8091 0.0
H2410 H 0.75473 0.94602 0.75052 0.0
H2411 H 0.74447 0.92071 0.72898 0.0
H2412 H 0.77304 0.93028 0.73945 0.0
H2413 H 0.7105 0.90673 0.80919 0.0
H2414 H 0.71578 0.87943 0.81799 0.0
H2415 H 0.69946 0.87968 0.79015 0.0
C2416 C 0.76506 0.98458 0.56185 0.0
C2417 C 0.76255 0.9602 0.55617 0.0
C2418 C 0.74714 0.99449 0.56246 0.0
C2419 C 0.72616 0.97967 0.55742 0.0
C2420 C 0.72353 0.955 0.55211 0.0
C2421 C 0.74174 0.94557 0.55149 0.0
C2422 C 0.75066 0.0209 0.56812 0.0
C2423 C 0.70145 0.93859 0.54678 0.0
C2424 C 0.68164 0.00565 0.57747 0.0
C2425 C 0.6727 0.01325 0.5569 0.0
C2426 C 0.69863 0.99409 0.57777 0.0
C2427 C 0.707 0.99017 0.55703 0.0
C2428 C 0.69767 0.99726 0.53608 0.0
C2429 C 0.68061 0.00864 0.53625 0.0
C2430 C 0.70796 0.98657 0.6004 0.0
C2431 C 0.70617 0.99355 0.51362 0.0
H2432 H 0.78106 0.99603 0.5655 0.0
H2433 H 0.73966 0.9267 0.54717 0.0
H2434 H 0.74281 0.02816 0.55309 0.0
H2435 H 0.74313 0.02516 0.58335 0.0
H2436 H 0.76799 0.02992 0.57212 0.0
H2437 H 0.70217 0.91976 0.54396 0.0
H2438 H 0.69261 0.9411 0.56136 0.0
H2439 H 0.69202 0.9428 0.53085 0.0
H2440 H 0.67545 0.00894 0.59343 0.0
H2441 H 0.67399 0.01472 0.52036 0.0
H2442 H 0.72488 0.99658 0.60615 0.0
H2443 H 0.70811 0.96759 0.59777 0.0
H2444 H 0.69879 0.98957 0.6146 0.0
H2445 H 0.72306 1.00379 0.51581 0.0
H2446 H 0.69652 0.99909 0.49861 0.0
H2447 H 0.7062 0.97468 0.50936 0.0
C2448 C 0.35426 0.4351 0.67863 0.0
C2449 C 0.34772 0.4562 0.67569 0.0
C2450 C 0.34232 0.41745 0.68928 0.0
C2451 C 0.32335 0.42096 0.69699 0.0
C2452 C 0.31573 0.44128 0.69228 0.0
C2453 C 0.32797 0.45862 0.68161 0.0
C2454 C 0.35083 0.39586 0.69379 0.0
C2455 C 0.29551 0.44558 0.70011 0.0
C2456 C 0.28636 0.3694 0.71612 0.0
C2457 C 0.29336 0.37306 0.74043 0.0
C2458 C 0.29588 0.3849 0.7017 0.0
C2459 C 0.31266 0.40458 0.71191 0.0
C2460 C 0.31943 0.40865 0.73652 0.0
C2461 C 0.30966 0.39281 0.7505 0.0
C2462 C 0.28837 0.37989 0.67554 0.0
C2463 C 0.33732 0.42943 0.74807 0.0
H2464 H 0.36945 0.43298 0.67407 0.0
H2465 H 0.32268 0.47476 0.67926 0.0
H2466 H 0.35637 0.39645 0.71285 0.0
H2467 H 0.33792 0.37961 0.68807 0.0
H2468 H 0.36452 0.39462 0.68466 0.0
H2469 H 0.29049 0.46084 0.69286 0.0
H2470 H 0.2821 0.42972 0.69475 0.0
H2471 H 0.2983 0.44912 0.71949 0.0
H2472 H 0.27384 0.35402 0.70825 0.0
H2473 H 0.31508 0.39561 0.76929 0.0
H2474 H 0.30182 0.37676 0.66683 0.0
H2475 H 0.28339 0.39538 0.66882 0.0
H2476 H 0.27468 0.36424 0.67044 0.0
H2477 H 0.35246 0.42808 0.74185 0.0
H2478 H 0.34017 0.43048 0.76745 0.0
H2479 H 0.33343 0.4461 0.74316 0.0
C2480 C 0.14018 0.57342 0.211 0.0
C2481 C 0.14805 0.55616 0.22246 0.0
C2482 C 0.15194 0.59694 0.21453 0.0
C2483 C 0.17195 0.60332 0.23 0.0
C2484 C 0.17985 0.58608 0.24187 0.0
C2485 C 0.16783 0.56268 0.23789 0.0
C2486 C 0.14311 0.61488 0.20147 0.0
C2487 C 0.20107 0.5923 0.25862 0.0
C2488 C 0.21214 0.6584 0.22238 0.0
C2489 C 0.209 0.67495 0.2397 0.0
C2490 C 0.20017 0.63499 0.21903 0.0
C2491 C 0.18483 0.628 0.23348 0.0
C2492 C 0.18179 0.64457 0.25119 0.0
C2493 C 0.19387 0.6679 0.25404 0.0
C2494 C 0.20375 0.61781 0.19988 0.0
C2495 C 0.16574 0.63766 0.26708 0.0
H2496 H 0.12495 0.56852 0.19898 0.0
H2497 H 0.174 0.54948 0.24691 0.0
H2498 H 0.1414 0.62951 0.21403 0.0
H2499 H 0.15449 0.62266 0.19029 0.0
H2500 H 0.12721 0.60708 0.19023 0.0
H2501 H 0.20464 0.57692 0.26693 0.0
H2502 H 0.2143 0.59916 0.24921 0.0
H2503 H 0.20095 0.60648 0.27258 0.0
H2504 H 0.22365 0.6639 0.21109 0.0
H2505 H 0.19159 0.68065 0.26759 0.0
H2506 H 0.18854 0.61073 0.18724 0.0
H2507 H 0.20859 0.60262 0.2074 0.0
H2508 H 0.21635 0.62607 0.19022 0.0
H2509 H 0.14936 0.6311 0.25656 0.0
H2510 H 0.1655 0.65261 0.28018 0.0
H2511 H 0.16961 0.62305 0.2765 0.0
C2512 C 0.52283 0.74772 0.48821 0.0
C2513 C 0.51667 0.74401 0.46375 0.0
C2514 C 0.5267 0.72917 0.50082 0.0
C2515 C 0.52466 0.70643 0.4887 0.0
C2516 C 0.51799 0.7025 0.46409 0.0
C2517 C 0.51396 0.72123 0.45199 0.0
C2518 C 0.53344 0.73405 0.52707 0.0
C2519 C 0.51576 0.67863 0.45039 0.0
C2520 C 0.556 0.6637 0.51461 0.0
C2521 C 0.53978 0.64705 0.52143 0.0
C2522 C 0.55142 0.68342 0.50453 0.0
C2523 C 0.53015 0.68684 0.50148 0.0
C2524 C 0.51391 0.67064 0.50928 0.0
C2525 C 0.51888 0.65091 0.51899 0.0
C2526 C 0.5692 0.70006 0.49625 0.0
C2527 C 0.4911 0.67371 0.50672 0.0
H2528 H 0.525 0.76523 0.49748 0.0
H2529 H 0.50932 0.71814 0.4331 0.0
H2530 H 0.5228 0.72124 0.53556 0.0
H2531 H 0.55005 0.73174 0.53206 0.0
H2532 H 0.53294 0.7522 0.53406 0.0
H2533 H 0.50997 0.6783 0.4314 0.0
H2534 H 0.53153 0.67371 0.45268 0.0
H2535 H 0.50435 0.66496 0.45711 0.0
H2536 H 0.57216 0.66084 0.51627 0.0
H2537 H 0.50626 0.6383 0.52439 0.0
H2538 H 0.57041 0.71848 0.50389 0.0
H2539 H 0.56544 0.69933 0.47695 0.0
H2540 H 0.58508 0.69568 0.50097 0.0
H2541 H 0.49093 0.6918 0.51419 0.0
H2542 H 0.48082 0.6608 0.51549 0.0
H2543 H 0.4839 0.67145 0.4879 0.0
C2544 C 0.67209 0.34638 0.67447 0.0
C2545 C 0.6565 0.35511 0.68459 0.0
C2546 C 0.69165 0.34517 0.68814 0.0
C2547 C 0.69586 0.3532 0.71245 0.0
C2548 C 0.68023 0.3622 0.72269 0.0
C2549 C 0.66072 0.3629 0.70869 0.0
C2550 C 0.70781 0.33527 0.67657 0.0
C2551 C 0.68421 0.37131 0.74844 0.0
C2552 C 0.73928 0.33406 0.75315 0.0
C2553 C 0.75681 0.35335 0.75504 0.0
C2554 C 0.71941 0.33356 0.73908 0.0
C2555 C 0.71692 0.35305 0.72703 0.0
C2556 C 0.73453 0.37269 0.72919 0.0
C2557 C 0.75425 0.37252 0.74301 0.0
C2558 C 0.70113 0.31214 0.73699 0.0
C2559 C 0.73256 0.39396 0.71691 0.0
H2560 H 0.66891 0.34017 0.6559 0.0
H2561 H 0.64878 0.36969 0.71664 0.0
H2562 H 0.72295 0.34896 0.67831 0.0
H2563 H 0.71183 0.32039 0.68543 0.0
H2564 H 0.70177 0.32891 0.65769 0.0
H2565 H 0.67039 0.37764 0.75374 0.0
H2566 H 0.68735 0.35721 0.75901 0.0
H2567 H 0.69873 0.38607 0.75274 0.0
H2568 H 0.74112 0.3193 0.76257 0.0
H2569 H 0.76775 0.3875 0.74436 0.0
H2570 H 0.69529 0.30484 0.71831 0.0
H2571 H 0.68744 0.31722 0.74388 0.0
H2572 H 0.70592 0.29807 0.74667 0.0
H2573 H 0.72826 0.38866 0.69772 0.0
H2574 H 0.74769 0.40795 0.72068 0.0
H2575 H 0.71945 0.4015 0.72242 0.0
C2576 C 0.02888 0.39417 0.96194 0.0
C2577 C 0.0366 0.39176 0.94081 0.0
C2578 C 0.03027 0.41666 0.97397 0.0
C2579 C 0.03969 0.43718 0.96471 0.0
C2580 C 0.04781 0.4348 0.94363 0.0
C2581 C 0.04614 0.41224 0.93198 0.0
C2582 C 0.0214 0.41848 0.99639 0.0
C2583 C 0.05816 0.45615 0.93323 0.0
C2584 C 0.02676 0.49668 0.98025 0.0
C2585 C 0.04525 0.50864 0.99622 0.0
C2586 C 0.02443 0.47318 0.97044 0.0
C2587 C 0.04097 0.46127 0.97673 0.0
C2588 C 0.05947 0.47308 0.9932 0.0
C2589 C 0.06139 0.49656 0.00269 0.0
C2590 C 1.00443 0.46122 0.953 0.0
C2591 C 0.07747 0.46108 1.00049 0.0
H2592 H 0.02147 0.37852 0.96891 0.0
H2593 H 0.05231 0.4107 0.91577 0.0
H2594 H 0.03404 0.42903 0.01075 0.0
H2595 H 0.00812 0.42781 0.99422 0.0
H2596 H 0.01521 0.40091 0.0017 0.0
H2597 H 0.06403 0.45129 0.91692 0.0
H2598 H 0.04644 0.4672 0.92921 0.0
H2599 H 0.07195 0.46716 0.94605 0.0
H2600 H 0.0141 0.50572 0.97526 0.0
H2601 H 0.07565 0.50543 0.01524 0.0
H2602 H 0.99674 0.44425 0.95847 0.0
H2603 H 0.0088 0.45711 0.93565 0.0
H2604 H 0.99248 0.47234 0.95102 0.0
H2605 H 0.07105 0.44421 0.00695 0.0
H2606 H 0.09022 0.47225 0.01442 0.0
H2607 H 0.08486 0.45679 0.98515 0.0
C2608 C 0.01729 0.85213 0.17915 0.0
C2609 C 0.03096 0.84215 0.19422 0.0
C2610 C 0.99722 0.85454 0.18424 0.0
C2611 C 0.99067 0.84682 0.20487 0.0
C2612 C 1.00425 0.83646 0.21996 0.0
C2613 C 0.02417 0.83424 0.21445 0.0
C2614 C 0.98314 0.86561 0.1677 0.0
C2615 C 0.99789 0.82803 0.24217 0.0
C2616 C 0.95083 0.87298 0.23401 0.0
C2617 C 0.93222 0.85464 0.22846 0.0
C2618 C 0.96972 0.87103 0.2257 0.0
C2619 C 0.97002 0.85028 0.21133 0.0
C2620 C 0.95101 0.83216 0.20472 0.0
C2621 C 0.93233 0.83454 0.2134 0.0
C2622 C 0.98961 0.8908 0.2331 0.0
C2623 C 0.95066 0.80982 0.18932 0.0
H2624 H 0.02234 0.85825 0.16345 0.0
H2625 H 0.03453 0.82644 0.2262 0.0
H2626 H 0.96703 0.85355 0.16203 0.0
H2627 H 0.98075 0.8821 0.17682 0.0
H2628 H 0.99017 0.86985 0.15193 0.0
H2629 H 0.01002 0.81982 0.25172 0.0
H2630 H 0.99583 0.84309 0.25395 0.0
H2631 H 0.98222 0.81495 0.23807 0.0
H2632 H 0.95073 0.88878 0.24525 0.0
H2633 H 0.91807 0.82022 0.20912 0.0
H2634 H 0.99635 0.89636 0.21757 0.0
H2635 H 1.00212 0.88451 0.24435 0.0
H2636 H 0.98631 0.90642 0.24297 0.0
H2637 H 0.95733 0.8141 0.17339 0.0
H2638 H 0.93416 0.79848 0.18394 0.0
H2639 H 0.96097 0.7996 0.19886 0.0
C2640 C 0.56049 0.41696 0.10928 0.0
C2641 C 0.57009 0.40019 0.09894 0.0
C2642 C 0.55885 0.43773 0.09941 0.0
C2643 C 0.56735 0.44225 0.07883 0.0
C2644 C 0.57716 0.42545 0.06834 0.0
C2645 C 0.57824 0.40457 0.07837 0.0
C2646 C 0.54792 0.45483 0.11103 0.0
C2647 C 0.58672 0.42964 0.04661 0.0
C2648 C 0.54606 0.4861 0.04226 0.0
C2649 C 0.56166 0.50721 0.05017 0.0
C2650 C 0.54783 0.46489 0.0512 0.0
C2651 C 0.56581 0.4645 0.06831 0.0
C2652 C 0.58186 0.48562 0.07599 0.0
C2653 C 0.57952 0.50668 0.06701 0.0
C2654 C 0.53011 0.44301 0.04276 0.0
C2655 C 0.60144 0.48604 0.09394 0.0
H2656 H 0.55405 0.41376 0.1251 0.0
H2657 H 0.58579 0.39184 0.0703 0.0
H2658 H 0.55937 0.47221 0.1165 0.0
H2659 H 0.53428 0.45762 0.09842 0.0
H2660 H 0.54173 0.44854 0.12664 0.0
H2661 H 0.59409 0.41512 0.04076 0.0
H2662 H 0.5741 0.43145 0.03217 0.0
H2663 H 0.5992 0.44642 0.04995 0.0
H2664 H 0.53208 0.48622 0.02943 0.0
H2665 H 0.59172 0.52279 0.07326 0.0
H2666 H 0.52257 0.43696 0.05768 0.0
H2667 H 0.53685 0.42852 0.0356 0.0
H2668 H 0.51741 0.44604 0.02905 0.0
H2669 H 0.59648 0.48174 0.11072 0.0
H2670 H 0.61303 0.50349 0.09718 0.0
H2671 H 0.60977 0.47241 0.08806 0.0
C2672 C 0.96574 0.32256 0.34385 0.0
C2673 C 0.97068 0.31681 0.3666 0.0
C2674 C 0.94444 0.32069 0.33301 0.0
C2675 C 0.92742 0.31297 0.34517 0.0
C2676 C 0.93214 0.30634 0.36785 0.0
C2677 C 0.95373 0.30825 0.37828 0.0
C2678 C 0.94024 0.32784 0.3088 0.0
C2679 C 0.91444 0.29807 0.3814 0.0
C2680 C 0.87801 0.33678 0.32668 0.0
C2681 C 0.86439 0.31778 0.31128 0.0
C2682 C 0.89813 0.33507 0.33843 0.0
C2683 C 0.90504 0.31385 0.33474 0.0
C2684 C 0.89125 0.2944 0.31959 0.0
C2685 C 0.87109 0.29658 0.30806 0.0
C2686 C 0.91225 0.35627 0.35439 0.0
C2687 C 0.89803 0.27149 0.31513 0.0
H2688 H 0.97864 0.3289 0.33448 0.0
H2689 H 0.95734 0.30372 0.39582 0.0
H2690 H 0.92819 0.31361 0.29696 0.0
H2691 H 0.93349 0.34375 0.3096 0.0
H2692 H 0.95508 0.33183 0.30104 0.0
H2693 H 0.92049 0.29157 0.39784 0.0
H2694 H 0.90689 0.31284 0.38589 0.0
H2695 H 0.90168 0.28376 0.37055 0.0
H2696 H 0.87301 0.3532 0.32955 0.0
H2697 H 0.86068 0.28173 0.29634 0.0
H2698 H 0.92702 0.36281 0.34715 0.0
H2699 H 0.91739 0.35128 0.37189 0.0
H2700 H 0.90399 0.37094 0.35658 0.0
H2701 H 0.91207 0.27437 0.30603 0.0
H2702 H 0.88492 0.25751 0.30425 0.0
H2703 H 0.90314 0.26514 0.33194 0.0
C2704 C 0.05311 0.75022 0.58648 0.0
C2705 C 0.06531 0.75468 0.60916 0.0
C2706 C 0.0491 0.72785 0.57301 0.0
C2707 C 0.05777 0.70957 0.58223 0.0
C2708 C 0.07012 0.71403 0.60507 0.0
C2709 C 0.07361 0.73633 0.6182 0.0
C2710 C 0.03548 0.72371 0.54893 0.0
C2711 C 0.08006 0.69536 0.61554 0.0
C2712 C 0.03577 0.64441 0.55733 0.0
C2713 C 0.05012 0.64092 0.5423 0.0
C2714 C 0.03766 0.6668 0.56991 0.0
C2715 C 0.05465 0.68599 0.56789 0.0
C2716 C 0.06934 0.68232 0.55296 0.0
C2717 C 0.06668 0.66 0.54011 0.0
C2718 C 0.0213 0.67003 0.58509 0.0
C2719 C 0.08808 0.70192 0.55076 0.0
H2720 H 0.04647 0.7641 0.57936 0.0
H2721 H 0.08316 0.73944 0.63563 0.0
H2722 H 0.0451 0.71947 0.53559 0.0
H2723 H 0.02173 0.70833 0.54768 0.0
H2724 H 0.02914 0.7393 0.54463 0.0
H2725 H 0.08776 0.70091 0.63417 0.0
H2726 H 0.06773 0.67871 0.61438 0.0
H2727 H 0.09242 0.69144 0.60546 0.0
H2728 H 0.02272 0.62981 0.55876 0.0
H2729 H 0.07784 0.65734 0.52853 0.0
H2730 H 0.01247 0.68307 0.57846 0.0
H2731 H 0.02944 0.6772 0.60326 0.0
H2732 H 0.00948 0.65327 0.58543 0.0
H2733 H 0.08216 0.71705 0.54443 0.0
H2734 H 0.09817 0.69617 0.53856 0.0
H2735 H 0.09835 0.70834 0.56818 0.0
C2736 C 0.61011 0.8094 0.90279 0.0
C2737 C 0.58983 0.80818 0.88948 0.0
C2738 C 0.6277 0.80714 0.89191 0.0
C2739 C 0.62494 0.80375 0.86715 0.0
C2740 C 0.60455 0.80278 0.85367 0.0
C2741 C 0.58726 0.80491 0.86498 0.0
C2742 C 0.64917 0.80815 0.90686 0.0
C2743 C 0.60096 0.79937 0.82725 0.0
C2744 C 0.67299 0.81783 0.83621 0.0
C2745 C 0.67585 0.79524 0.82939 0.0
C2746 C 0.6568 0.82092 0.84897 0.0
C2747 C 0.64322 0.80094 0.85519 0.0
C2748 C 0.64635 0.77814 0.84881 0.0
C2749 C 0.66258 0.77556 0.83592 0.0
C2750 C 0.65386 0.84551 0.85523 0.0
C2751 C 0.63231 0.75641 0.85525 0.0
H2752 H 0.61219 0.81187 0.92173 0.0
H2753 H 0.57167 0.80402 0.85454 0.0
H2754 H 0.65421 0.79143 0.903 0.0
H2755 H 0.66164 0.82258 0.90265 0.0
H2756 H 0.64872 0.81106 0.92586 0.0
H2757 H 0.58423 0.79948 0.81933 0.0
H2758 H 0.61219 0.81354 0.82093 0.0
H2759 H 0.60438 0.78234 0.82086 0.0
H2760 H 0.68306 0.8331 0.831 0.0
H2761 H 0.66491 0.75809 0.83096 0.0
H2762 H 0.65431 0.8491 0.87433 0.0
H2763 H 0.63785 0.84702 0.84634 0.0
H2764 H 0.66641 0.85926 0.8501 0.0
H2765 H 0.63249 0.75825 0.87439 0.0
H2766 H 0.63757 0.74009 0.85009 0.0
H2767 H 0.61542 0.75441 0.84651 0.0
C2768 C 0.44586 0.57449 0.6469 0.0
C2769 C 0.4252 0.56407 0.6343 0.0
C2770 C 0.4628 0.58321 0.63552 0.0
C2771 C 0.45901 0.5815 0.61085 0.0
C2772 C 0.43779 0.57307 0.59813 0.0
C2773 C 0.42099 0.56436 0.61006 0.0
C2774 C 0.48512 0.59225 0.64984 0.0
C2775 C 0.43315 0.57208 0.57189 0.0
C2776 C 0.50972 0.60853 0.58863 0.0
C2777 C 0.51832 0.58869 0.58538 0.0
C2778 C 0.48929 0.60629 0.59495 0.0
C2779 C 0.47782 0.58388 0.5988 0.0
C2780 C 0.4863 0.56378 0.59473 0.0
C2781 C 0.50637 0.56646 0.58794 0.0
C2782 C 0.48045 0.62799 0.59821 0.0
C2783 C 0.47474 0.53954 0.59875 0.0
H2784 H 0.44907 0.57496 0.66576 0.0
H2785 H 0.40492 0.55678 0.60035 0.0
H2786 H 0.4952 0.57961 0.64628 0.0
H2787 H 0.49291 0.60943 0.64489 0.0
H2788 H 0.48495 0.59452 0.66893 0.0
H2789 H 0.41562 0.56795 0.56488 0.0
H2790 H 0.44076 0.58923 0.56681 0.0
H2791 H 0.44026 0.55846 0.56362 0.0
H2792 H 0.51876 0.62563 0.58592 0.0
H2793 H 0.51297 0.55108 0.58506 0.0
H2794 H 0.48514 0.63599 0.61679 0.0
H2795 H 0.46263 0.62367 0.59374 0.0
H2796 H 0.48705 0.64139 0.58729 0.0
H2797 H 0.47388 0.5394 0.6176 0.0
H2798 H 0.48293 0.52559 0.59331 0.0
H2799 H 0.45802 0.53501 0.58891 0.0
C2800 C 0.80088 0.24461 0.93581 0.0
C2801 C 0.79274 0.25552 0.95382 0.0
C2802 C 0.80127 0.25351 0.9142 0.0
C2803 C 0.79303 0.27366 0.91022 0.0
C2804 C 0.78475 0.28473 0.92832 0.0
C2805 C 0.78484 0.27565 0.9499 0.0
C2806 C 0.81059 0.24135 0.89563 0.0
C2807 C 0.77564 0.30611 0.92481 0.0
C2808 C 0.81232 0.30981 0.86308 0.0
C2809 C 0.79554 0.30148 0.84384 0.0
C2810 C 0.81167 0.30096 0.88465 0.0
C2811 C 0.79364 0.28349 0.88737 0.0
C2812 C 0.77649 0.27519 0.86813 0.0
C2813 C 0.77771 0.28412 0.84657 0.0
C2814 C 0.83049 0.31009 0.90445 0.0
C2815 C 0.75686 0.25677 0.87029 0.0
H2816 H 0.80703 0.22906 0.93861 0.0
H2817 H 0.77835 0.28411 0.96359 0.0
H2818 H 0.79825 0.23518 0.87957 0.0
H2819 H 0.82416 0.25398 0.89081 0.0
H2820 H 0.81649 0.22598 0.90146 0.0
H2821 H 0.76934 0.31236 0.94034 0.0
H2822 H 0.78825 0.32071 0.92112 0.0
H2823 H 0.76243 0.30192 0.90943 0.0
H2824 H 0.82631 0.32303 0.86122 0.0
H2825 H 0.76466 0.27755 0.83188 0.0
H2826 H 0.83754 0.2953 0.90987 0.0
H2827 H 0.825 0.31783 0.91987 0.0
H2828 H 0.84332 0.3237 0.89956 0.0
H2829 H 0.76158 0.24025 0.87437 0.0
H2830 H 0.74459 0.25272 0.85404 0.0
H2831 H 0.74946 0.2629 0.88498 0.0
C2832 C 0.11931 0.48353 0.13322 0.0
C2833 C 0.10732 0.47179 0.14858 0.0
C2834 C 0.10951 0.49484 0.1158 0.0
C2835 C 0.08745 0.49496 0.11433 0.0
C2836 C 0.07504 0.48171 0.12866 0.0
C2837 C 0.08503 0.46983 0.14518 0.0
C2838 C 0.1231 0.50785 0.10008 0.0
C2839 C 0.05155 0.48165 0.12795 0.0
C2840 C 0.06749 0.54826 0.09662 0.0
C2841 C 0.05392 0.53879 0.07532 0.0
C2842 C 0.07905 0.53433 0.10924 0.0
C2843 C 0.07762 0.51071 0.09975 0.0
C2844 C 0.06489 0.50156 0.07754 0.0
C2845 C 0.05272 0.51553 0.06586 0.0
C2846 C 0.09212 0.54461 0.13309 0.0
C2847 C 0.06405 0.47703 0.0662 0.0
H2848 H 0.13651 0.48486 0.13549 0.0
H2849 H 0.07555 0.46045 0.15668 0.0
H2850 H 0.11383 0.50665 0.08219 0.0
H2851 H 0.12849 0.52678 0.1073 0.0
H2852 H 0.13765 0.50087 0.09888 0.0
H2853 H 0.04402 0.46979 0.13972 0.0
H2854 H 0.04994 0.4998 0.13333 0.0
H2855 H 0.04241 0.47601 0.10991 0.0
H2856 H 0.06854 0.56635 0.10371 0.0
H2857 H 0.04255 0.50838 0.0491 0.0
H2858 H 0.10917 0.54389 0.13351 0.0
H2859 H 0.08608 0.53399 0.14654 0.0
H2860 H 0.09145 0.56321 0.13796 0.0
H2861 H 0.0806 0.47502 0.06521 0.0
H2862 H 0.05434 0.47308 0.04827 0.0
H2863 H 0.05706 0.46372 0.07695 0.0
C2864 C 0.79532 0.91656 0.44734 0.0
C2865 C 0.80583 0.90828 0.46667 0.0
C2866 C 0.79356 0.90571 0.42441 0.0
C2867 C 0.80259 0.88601 0.42044 0.0
C2868 C 0.81278 0.87712 0.43984 0.0
C2869 C 0.81424 0.88831 0.46274 0.0
C2870 C 0.78238 0.91569 0.40434 0.0
C2871 C 0.82262 0.85615 0.43636 0.0
C2872 C 0.78283 0.8487 0.36075 0.0
C2873 C 0.79889 0.85787 0.34811 0.0
C2874 C 0.78408 0.85723 0.38441 0.0
C2875 C 0.80185 0.87536 0.39587 0.0
C2876 C 0.81827 0.88444 0.38333 0.0
C2877 C 0.81658 0.87564 0.35966 0.0
C2878 C 0.76617 0.84707 0.39703 0.0
C2879 C 0.8375 0.90375 0.39484 0.0
H2880 H 0.78858 0.93184 0.45007 0.0
H2881 H 0.82242 0.88178 0.47748 0.0
H2882 H 0.79394 0.92212 0.39282 0.0
H2883 H 0.76924 0.90172 0.39357 0.0
H2884 H 0.77548 0.93053 0.41041 0.0
H2885 H 0.82902 0.85065 0.45322 0.0
H2886 H 0.8105 0.841 0.4259 0.0
H2887 H 0.83595 0.86054 0.42639 0.0
H2888 H 0.76914 0.83485 0.35214 0.0
H2889 H 0.82918 0.88275 0.3502 0.0
H2890 H 0.75803 0.86105 0.40242 0.0
H2891 H 0.77284 0.84058 0.41318 0.0
H2892 H 0.75397 0.83231 0.38599 0.0
H2893 H 0.83216 0.91996 0.4001 0.0
H2894 H 0.84942 0.90807 0.38311 0.0
H2895 H 0.84559 0.89842 0.41098 0.0
C2896 C 0.41862 0.54113 0.76589 0.0
C2897 C 0.42446 0.52462 0.75061 0.0
C2898 C 0.42623 0.54383 0.79003 0.0
C2899 C 0.43978 0.5295 0.79902 0.0
C2900 C 0.44554 0.51264 0.78373 0.0
C2901 C 0.43788 0.51047 0.75969 0.0
C2902 C 0.41994 0.56211 0.80589 0.0
C2903 C 0.45982 0.4969 0.79278 0.0
C2904 C 0.47676 0.54811 0.85764 0.0
C2905 C 0.46548 0.53403 0.87198 0.0
C2906 C 0.46824 0.54738 0.83395 0.0
C2907 C 0.44807 0.53206 0.82442 0.0
C2908 C 0.43637 0.5182 0.8389 0.0
C2909 C 0.44519 0.51944 0.86256 0.0
C2910 C 0.48109 0.56249 0.81899 0.0
C2911 C 0.41483 0.50162 0.82926 0.0
H2912 H 0.40832 0.55219 0.75896 0.0
H2913 H 0.44235 0.49758 0.748 0.0
H2914 H 0.41162 0.55358 0.81926 0.0
H2915 H 0.43457 0.57505 0.81537 0.0
H2916 H 0.4092 0.57178 0.79611 0.0
H2917 H 0.46252 0.48445 0.77856 0.0
H2918 H 0.47565 0.5078 0.8019 0.0
H2919 H 0.4525 0.48654 0.80572 0.0
H2920 H 0.49255 0.55923 0.86477 0.0
H2921 H 0.43625 0.50885 0.87369 0.0
H2922 H 0.47107 0.57307 0.80958 0.0
H2923 H 0.48602 0.55104 0.80558 0.0
H2924 H 0.49576 0.57466 0.82945 0.0
H2925 H 0.4036 0.51135 0.82049 0.0
H2926 H 0.4074 0.49281 0.84308 0.0
H2927 H 0.41678 0.48785 0.81587 0.0
C2928 C 0.8165 0.26531 0.11019 0.0
C2929 C 0.79511 0.25611 0.09917 0.0
C2930 C 0.82144 0.27764 0.13305 0.0
C2931 C 0.80457 0.28142 0.14488 0.0
C2932 C 0.78295 0.27292 0.13332 0.0
C2933 C 0.7785 0.25999 0.11085 0.0
C2934 C 0.84466 0.28578 0.1449 0.0
C2935 C 0.76444 0.27712 0.14483 0.0
C2936 C 0.81202 0.29338 0.21165 0.0
C2937 C 0.81544 0.31801 0.21542 0.0
C2938 C 0.80933 0.2813 0.18891 0.0
C2939 C 0.80937 0.2941 0.16936 0.0
C2940 C 0.81295 0.31901 0.17319 0.0
C2941 C 0.81625 0.33064 0.19613 0.0
C2942 C 0.80612 0.25481 0.1858 0.0
C2943 C 0.8125 0.33336 0.15296 0.0
H2944 H 0.82935 0.26181 0.10141 0.0
H2945 H 0.76195 0.25264 0.10243 0.0
H2946 H 0.84867 0.30505 0.15065 0.0
H2947 H 0.84729 0.27698 0.1608 0.0
H2948 H 0.85591 0.28183 0.13327 0.0
H2949 H 0.74869 0.27085 0.13288 0.0
H2950 H 0.76391 0.26782 0.16054 0.0
H2951 H 0.76675 0.29621 0.15076 0.0
H2952 H 0.8114 0.28354 0.22649 0.0
H2953 H 0.81871 0.34968 0.19889 0.0
H2954 H 0.81745 0.2495 0.17498 0.0
H2955 H 0.78958 0.2465 0.17642 0.0
H2956 H 0.80857 0.24774 0.20279 0.0
H2957 H 0.82444 0.32992 0.14208 0.0
H2958 H 0.81598 0.35261 0.15887 0.0
H2959 H 0.79642 0.32801 0.14159 0.0
C2960 C 0.06469 0.47824 0.27593 0.0
C2961 C 0.08459 0.47312 0.27369 0.0
C2962 C 0.05922 0.48267 0.29797 0.0
C2963 C 0.0739 0.48169 0.31828 0.0
C2964 C 0.09312 0.47443 0.31612 0.0
C2965 C 0.09831 0.47031 0.2938 0.0
C2966 C 0.03852 0.49031 0.2995 0.0
C2967 C 0.10892 0.47266 0.33739 0.0
C2968 C 0.07245 0.52622 0.3689 0.0
C2969 C 0.05882 0.51254 0.38148 0.0
C2970 C 0.07827 0.51609 0.34886 0.0
C2971 C 0.07044 0.49161 0.34139 0.0
C2972 C 0.05762 0.47745 0.35475 0.0
C2973 C 0.05176 0.48815 0.37458 0.0
C2974 C 0.09185 0.53187 0.335 0.0
C2975 C 0.04938 0.45122 0.34761 0.0
H2976 H 0.05381 0.48012 0.26051 0.0
H2977 H 0.11362 0.4661 0.29225 0.0
H2978 H 0.02955 0.48027 0.31155 0.0
H2979 H 0.04227 0.50927 0.30668 0.0
H2980 H 0.0279 0.48785 0.28216 0.0
H2981 H 0.12089 0.46271 0.33283 0.0
H2982 H 0.11771 0.49065 0.34568 0.0
H2983 H 0.10043 0.46395 0.35056 0.0
H2984 H 0.07778 0.54511 0.37412 0.0
H2985 H 0.04142 0.47753 0.38453 0.0
H2986 H 0.08228 0.53225 0.31761 0.0
H2987 H 0.10599 0.52486 0.33198 0.0
H2988 H 0.09766 0.55026 0.34394 0.0
H2989 H 0.03656 0.44795 0.33192 0.0
H2990 H 0.04262 0.44226 0.36172 0.0
H2991 H 0.06244 0.44312 0.34287 0.0
C2992 C 0.83656 0.89342 0.6282 0.0
C2993 C 0.82005 0.88861 0.60857 0.0
C2994 C 0.8341 0.88215 0.64831 0.0
C2995 C 0.81434 0.86638 0.64924 0.0
C2996 C 0.79771 0.86133 0.62935 0.0
C2997 C 0.80091 0.87215 0.60917 0.0
C2998 C 0.85254 0.88745 0.66873 0.0
C2999 C 0.77612 0.84532 0.62974 0.0
C3000 C 0.80903 0.82383 0.69531 0.0
C3001 C 0.80189 0.83674 0.71273 0.0
C3002 C 0.81381 0.83349 0.6749 0.0
C3003 C 0.81054 0.85625 0.6714 0.0
C3004 C 0.80309 0.86919 0.68893 0.0
C3005 C 0.79928 0.85948 0.70952 0.0
C3006 C 0.82246 0.81942 0.65715 0.0
C3007 C 0.79867 0.89313 0.68576 0.0
H3008 H 0.8514 0.90609 0.62785 0.0
H3009 H 0.78797 0.86857 0.59421 0.0
H3010 H 0.84827 0.89743 0.68374 0.0
H3011 H 0.85573 0.87079 0.67451 0.0
H3012 H 0.86754 0.898 0.66437 0.0
H3013 H 0.76497 0.84288 0.61275 0.0
H3014 H 0.77816 0.82778 0.63402 0.0
H3015 H 0.76857 0.85285 0.64361 0.0
H3016 H 0.81124 0.80632 0.69784 0.0
H3017 H 0.79364 0.8695 0.72288 0.0
H3018 H 0.83777 0.83006 0.65362 0.0
H3019 H 0.81094 0.81512 0.64036 0.0
H3020 H 0.82538 0.80271 0.66309 0.0
H3021 H 0.81365 0.90565 0.68392 0.0
H3022 H 0.79222 0.90055 0.70066 0.0
H3023 H 0.78688 0.89182 0.66945 0.0
C3024 C 0.73247 0.46326 0.54194 0.0
C3025 C 0.75419 0.47489 0.54435 0.0
C3026 C 0.71659 0.47597 0.54459 0.0
C3027 C 0.72259 0.50089 0.54978 0.0
C3028 C 0.7445 0.51268 0.55228 0.0
C3029 C 0.75999 0.49957 0.54954 0.0
C3030 C 0.6934 0.46276 0.54179 0.0
C3031 C 0.7516 0.53921 0.55783 0.0
C3032 C 0.68123 0.53755 0.53614 0.0
C3033 C 0.67625 0.54311 0.5583 0.0
C3034 C 0.69597 0.52349 0.53305 0.0
C3035 C 0.70603 0.51476 0.55258 0.0
C3036 C 0.7009 0.52007 0.57494 0.0
C3037 C 0.68609 0.53416 0.57752 0.0
C3038 C 0.70104 0.51832 0.50893 0.0
C3039 C 0.71122 0.51107 0.59619 0.0
H3040 H 0.72785 0.44421 0.53795 0.0
H3041 H 0.77673 0.50872 0.55145 0.0
H3042 H 0.68704 0.46649 0.55802 0.0
H3043 H 0.68348 0.46888 0.52743 0.0
H3044 H 0.69138 0.44339 0.53786 0.0
H3045 H 0.76926 0.54569 0.55925 0.0
H3046 H 0.74337 0.54763 0.544 0.0
H3047 H 0.74696 0.54505 0.57457 0.0
H3048 H 0.6739 0.54459 0.52123 0.0
H3049 H 0.68208 0.53805 0.59462 0.0
H3050 H 0.69812 0.499 0.50394 0.0
H3051 H 0.7183 0.52592 0.50895 0.0
H3052 H 0.69124 0.52568 0.49542 0.0
H3053 H 0.70826 0.49155 0.59319 0.0
H3054 H 0.70505 0.5162 0.61221 0.0
H3055 H 0.7289 0.51812 0.59929 0.0
C3056 C 0.18356 0.18311 0.49424 0.0
C3057 C 0.20209 0.17402 0.49641 0.0
C3058 C 0.16329 0.16879 0.49529 0.0
C3059 C 0.16149 0.14488 0.49898 0.0
C3060 C 0.1802 0.13572 0.50144 0.0
C3061 C 0.20017 0.1503 0.49993 0.0
C3062 C 0.14375 0.17921 0.49224 0.0
C3063 C 0.17913 0.11047 0.50572 0.0
C3064 C 0.11204 0.11262 0.52137 0.0
C3065 C 0.0997 0.09886 0.50094 0.0
C3066 C 0.13218 0.12761 0.52106 0.0
C3067 C 0.14002 0.12924 0.49969 0.0
C3068 C 0.12743 0.11559 0.47894 0.0
C3069 C 0.10755 0.10048 0.47986 0.0
C3070 C 0.14513 0.14158 0.54365 0.0
C3071 C 0.13495 0.11698 0.45571 0.0
H3072 H 0.18488 0.2014 0.49151 0.0
H3073 H 0.21439 0.14313 0.50182 0.0
H3074 H 0.1318 0.16917 0.47701 0.0
H3075 H 0.13592 0.17771 0.50787 0.0
H3076 H 0.1478 0.19806 0.48949 0.0
H3077 H 0.19522 0.10624 0.50804 0.0
H3078 H 0.17203 0.10702 0.52159 0.0
H3079 H 0.16852 0.09829 0.4908 0.0
H3080 H 0.10598 0.11164 0.53761 0.0
H3081 H 0.09804 0.09004 0.46393 0.0
H3082 H 0.14813 0.16073 0.54216 0.0
H3083 H 0.16105 0.13708 0.54717 0.0
H3084 H 0.1369 0.13818 0.55882 0.0
H3085 H 0.13804 0.13549 0.45183 0.0
H3086 H 0.12302 0.10576 0.44108 0.0
H3087 H 0.15033 0.11131 0.45649 0.0
C3088 C 0.23148 0.04539 0.86509 0.0
C3089 C 0.24288 0.06883 0.87217 0.0
C3090 C 0.24225 0.02755 0.86035 0.0
C3091 C 0.26496 0.0333 0.86289 0.0
C3092 C 0.27663 0.0567 0.87121 0.0
C3093 C 0.26543 0.07423 0.8757 0.0
C3094 C 0.22925 1.0028 0.85147 0.0
C3095 C 0.30086 0.06344 0.8743 0.0
C3096 C 0.293 0.98249 0.86163 0.0
C3097 C 0.2957 0.97982 0.83819 0.0
C3098 C 0.2834 1.00015 0.87013 0.0
C3099 C 0.27625 0.01533 0.85475 0.0
C3100 C 0.27922 0.0129 0.83117 0.0
C3101 C 0.28894 0.9952 0.82319 0.0
C3102 C 0.28063 1.00236 0.89542 0.0
C3103 C 0.27165 0.02863 0.81417 0.0
H3104 H 0.21405 0.04107 0.8624 0.0
H3105 H 0.27434 0.0923 0.88129 0.0
H3106 H 0.2308 0.99816 0.83302 0.0
H3107 H 0.23546 0.98992 0.86178 0.0
H3108 H 0.21191 1.00082 0.85232 0.0
H3109 H 0.30763 0.08172 0.88322 0.0
H3110 H 0.308 0.05111 0.88458 0.0
H3111 H 0.30584 0.06209 0.85692 0.0
H3112 H 0.29838 0.97073 0.87331 0.0
H3113 H 0.29069 0.99296 0.80497 0.0
H3114 H 0.26326 0.99895 0.89646 0.0
H3115 H 0.2881 0.02059 0.90405 0.0
H3116 H 0.2879 0.98984 0.90533 0.0
H3117 H 0.25395 0.02626 0.81229 0.0
H3118 H 0.2757 0.02482 0.79658 0.0
H3119 H 0.27903 0.04742 0.82095 0.0
C3120 C 0.39425 0.97942 0.05178 0.0
C3121 C 0.38 0.99383 0.04586 0.0
C3122 C 0.41663 0.988 0.05372 0.0
C3123 C 0.42483 0.01151 0.04977 0.0
C3124 C 0.41056 0.02645 0.04515 0.0
C3125 C 0.38839 0.01744 0.04322 0.0
C3126 C 0.43136 0.97157 0.05878 0.0
C3127 C 0.41856 0.05166 0.04092 0.0
C3128 C 0.48423 0.0427 0.06401 0.0
C3129 C 0.49012 0.04076 0.04183 0.0
C3130 C 0.46325 0.0324 0.06718 0.0
C3131 C 0.44784 0.0199 0.04771 0.0
C3132 C 0.45391 0.01726 0.02547 0.0
C3133 C 0.47489 0.02768 0.02282 0.0
C3134 C 0.45738 0.03554 0.09117 0.0
C3135 C 0.438 1.00411 0.00422 0.0
H3136 H 0.38791 0.96119 0.05392 0.0
H3137 H 0.37755 0.02885 0.03901 0.0
H3138 H 0.43772 0.96694 0.04278 0.0
H3139 H 0.44534 0.98034 0.07255 0.0
H3140 H 0.42294 0.95502 0.06448 0.0
H3141 H 0.40565 0.06157 0.0397 0.0
H3142 H 0.43187 0.06106 0.05517 0.0
H3143 H 0.42502 0.05183 0.02433 0.0
H3144 H 0.49587 0.05262 0.07885 0.0
H3145 H 0.47923 0.02578 0.00562 0.0
H3146 H 0.44937 0.01829 0.09583 0.0
H3147 H 0.44579 0.04705 0.09114 0.0
H3148 H 0.47166 0.0436 0.10488 0.0
H3149 H 0.43034 0.98625 0.00775 0.0
H3150 H 0.44565 1.00228 0.98853 0.0
H3151 H 0.42503 0.01362 1.00017 0.0
C3152 C 0.89823 0.70085 0.80052 0.0
C3153 C 0.91676 0.7129 0.81641 0.0
C3154 C 0.88169 0.71202 0.79337 0.0
C3155 C 0.88344 0.73562 0.8028 0.0
C3156 C 0.90155 0.74751 0.8198 0.0
C3157 C 0.91818 0.73608 0.8262 0.0
C3158 C 0.86285 0.69893 0.77487 0.0
C3159 C 0.90363 0.77251 0.8307 0.0
C3160 C 0.854 0.77451 0.76836 0.0
C3161 C 0.83591 0.77346 0.77905 0.0
C3162 C 0.86934 0.76173 0.7755 0.0
C3163 C 0.86671 0.74812 0.79417 0.0
C3164 C 0.84821 0.74661 0.80468 0.0
C3165 C 0.83285 0.75907 0.79675 0.0
C3166 C 0.88863 0.7633 0.76348 0.0
C3167 C 0.84512 0.73274 0.82499 0.0
H3168 H 0.89709 0.68297 0.79272 0.0
H3169 H 0.93244 0.74542 0.8385 0.0
H3170 H 0.84749 0.69892 0.78114 0.0
H3171 H 0.86257 0.70804 0.75899 0.0
H3172 H 0.86358 0.68037 0.76986 0.0
H3173 H 0.91774 0.7785 0.84507 0.0
H3174 H 0.90535 0.78461 0.81719 0.0
H3175 H 0.88889 0.77401 0.83774 0.0
H3176 H 0.85637 0.78571 0.75472 0.0
H3177 H 0.81906 0.75861 0.80537 0.0
H3178 H 0.89049 0.74536 0.75767 0.0
H3179 H 0.90345 0.77244 0.77595 0.0
H3180 H 0.88735 0.77306 0.74806 0.0
H3181 H 0.84556 0.71411 0.82005 0.0
H3182 H 0.82965 0.7331 0.83098 0.0
H3183 H 0.85849 0.74012 0.83989 0.0
C3184 C 0.8286 0.65192 0.01873 0.0
C3185 C 0.82406 0.67252 0.01066 0.0
C3186 C 0.84834 0.64597 0.01747 0.0
C3187 C 0.86413 0.66094 0.00789 0.0
C3188 C 0.85974 0.68175 0.99964 0.0
C3189 C 0.83974 0.6873 1.00111 0.0
C3190 C 0.85228 0.62359 0.02646 0.0
C3191 C 0.87616 0.69814 0.9893 0.0
C3192 C 0.92062 0.65204 0.0262 0.0
C3193 C 0.92239 0.6361 0.00746 0.0
C3194 C 0.90223 0.6613 0.02604 0.0
C3195 C 0.88513 0.65449 0.00665 0.0
C3196 C 0.88728 0.63936 0.98718 0.0
C3197 C 0.90583 0.63034 0.98783 0.0
C3198 C 0.90067 0.67745 0.04713 0.0
C3199 C 0.86947 0.63164 0.96616 0.0
H3200 H 0.81669 0.64029 0.02613 0.0
H3201 H 0.83645 0.70325 0.99483 0.0
H3202 H 0.85573 0.61179 0.01222 0.0
H3203 H 0.86658 0.62783 0.04063 0.0
H3204 H 0.83833 0.61383 0.03335 0.0
H3205 H 0.87028 0.71356 0.98356 0.0
H3206 H 0.89116 0.70464 0.00238 0.0
H3207 H 0.88038 0.68847 0.97405 0.0
H3208 H 0.93347 0.65695 0.04127 0.0
H3209 H 0.90687 0.61787 0.97334 0.0
H3210 H 0.88813 0.66828 0.05633 0.0
H3211 H 0.89576 0.69345 0.04165 0.0
H3212 H 0.91612 0.68297 0.05968 0.0
H3213 H 0.85547 0.6198 0.97111 0.0
H3214 H 0.87456 0.62208 0.95143 0.0
H3215 H 0.86398 0.64709 0.96002 0.0
C3216 C 0.23974 0.22538 0.86783 0.0
C3217 C 0.24467 0.20415 0.87358 0.0
C3218 C 0.25426 0.24192 0.85863 0.0
C3219 C 0.27422 0.23715 0.85524 0.0
C3220 C 0.28014 0.2169 0.86313 0.0
C3221 C 0.26529 0.20063 0.87226 0.0
C3222 C 0.24743 0.26345 0.85065 0.0
C3223 C 0.30144 0.21143 0.86014 0.0
C3224 C 0.29479 0.26033 0.80235 0.0
C3225 C 0.31011 0.28081 0.8126 0.0
C3226 C 0.28343 0.24564 0.81616 0.0
C3227 C 0.28753 0.25165 0.84081 0.0
C3228 C 0.30355 0.27191 0.85131 0.0
C3229 C 0.31474 0.28623 0.83704 0.0
C3230 C 0.26638 0.22423 0.80427 0.0
C3231 C 0.3082 0.27907 0.87745 0.0
H3232 H 0.22395 0.22843 0.86904 0.0
H3233 H 0.26935 0.18438 0.87681 0.0
H3234 H 0.26033 0.27957 0.85705 0.0
H3235 H 0.24455 0.26159 0.83127 0.0
H3236 H 0.23246 0.26589 0.85671 0.0
H3237 H 0.30485 0.1969 0.87 0.0
H3238 H 0.30125 0.20613 0.84132 0.0
H3239 H 0.31475 0.2273 0.86605 0.0
H3240 H 0.29122 0.25622 0.78345 0.0
H3241 H 0.32645 0.30224 0.845 0.0
H3242 H 0.25033 0.22638 0.80733 0.0
H3243 H 0.26924 0.20822 0.81181 0.0
H3244 H 0.26599 0.22136 0.7851 0.0
H3245 H 0.29444 0.28531 0.88295 0.0
H3246 H 0.32292 0.29347 0.88305 0.0
H3247 H 0.31015 0.26377 0.88678 0.0
C3248 C 0.4601 0.07621 0.28617 0.0
C3249 C 0.45329 0.09497 0.29712 0.0
C3250 C 0.44893 0.05275 0.28582 0.0
C3251 C 0.43071 0.04801 0.29688 0.0
C3252 C 0.42344 0.06688 0.3074 0.0
C3253 C 0.43474 0.0901 0.30728 0.0
C3254 C 0.45694 0.03301 0.27416 0.0
C3255 C 0.40414 0.06254 0.31951 0.0
C3256 C 0.39023 0.98904 0.28517 0.0
C3257 C 0.39656 0.97846 0.30489 0.0
C3258 C 0.40172 0.01133 0.28181 0.0
C3259 C 0.41981 0.02337 0.29868 0.0
C3260 C 0.42659 0.01255 0.3183 0.0
C3261 C 0.41495 0.99017 0.32109 0.0
C3262 C 0.39409 0.0223 0.26062 0.0
C3263 C 0.44575 0.02491 0.33674 0.0
H3264 H 0.47434 0.07982 0.27817 0.0
H3265 H 0.4293 0.10444 0.31579 0.0
H3266 H 0.46265 0.02235 0.28749 0.0
H3267 H 0.44364 0.02105 0.26147 0.0
H3268 H 0.47033 0.03968 0.26486 0.0
H3269 H 0.40007 0.07919 0.32603 0.0
H3270 H 0.38991 0.05147 0.30737 0.0
H3271 H 0.40738 0.05275 0.33457 0.0
H3272 H 0.37593 0.98021 0.27268 0.0
H3273 H 0.42019 0.9819 0.33611 0.0
H3274 H 0.40766 0.0286 0.25146 0.0
H3275 H 0.38797 0.03787 0.26621 0.0
H3276 H 0.38106 0.00975 0.24806 0.0
H3277 H 0.46013 0.03034 0.32855 0.0
H3278 H 0.44953 0.0136 0.35034 0.0
H3279 H 0.44252 0.04117 0.3454 0.0
C3280 C 0.58254 0.40845 0.58175 0.0
C3281 C 0.58428 0.40971 0.60616 0.0
C3282 C 0.57849 0.42747 0.56996 0.0
C3283 C 0.57607 0.44822 0.58286 0.0
C3284 C 0.57805 0.44963 0.6075 0.0
C3285 C 0.58214 0.43045 0.6188 0.0
C3286 C 0.57656 0.42527 0.5437 0.0
C3287 C 0.57559 0.47135 0.62198 0.0
C3288 C 0.58269 0.50742 0.55906 0.0
C3289 C 0.56124 0.50917 0.55306 0.0
C3290 C 0.58776 0.48729 0.56781 0.0
C3291 C 0.571 0.46837 0.57077 0.0
C3292 C 0.54932 0.46961 0.56386 0.0
C3293 C 0.54471 0.48992 0.55507 0.0
C3294 C 0.6111 0.48672 0.57479 0.0
C3295 C 0.53093 0.4499 0.5667 0.0
H3296 H 0.58417 0.39253 0.57182 0.0
H3297 H 0.58345 0.43166 0.63764 0.0
H3298 H 0.56025 0.4266 0.53562 0.0
H3299 H 0.58824 0.43998 0.53871 0.0
H3300 H 0.57947 0.40829 0.53627 0.0
H3301 H 0.57793 0.46984 0.64101 0.0
H3302 H 0.58741 0.48709 0.61903 0.0
H3303 H 0.55931 0.47443 0.61651 0.0
H3304 H 0.59565 0.52207 0.5575 0.0
H3305 H 0.52808 0.491 0.55052 0.0
H3306 H 0.6141 0.47002 0.56686 0.0
H3307 H 0.61506 0.48735 0.59406 0.0
H3308 H 0.62216 0.50177 0.56941 0.0
H3309 H 0.53284 0.43277 0.55848 0.0
H3310 H 0.51505 0.45269 0.55883 0.0
H3311 H 0.53106 0.44858 0.58558 0.0
C3312 C 0.43767 0.80732 0.37819 0.0
C3313 C 0.45242 0.80005 0.36551 0.0
C3314 C 0.41662 0.80691 0.36704 0.0
C3315 C 0.41007 0.79842 0.34285 0.0
C3316 C 0.42462 0.78982 0.3304 0.0
C3317 C 0.44567 0.79111 0.34178 0.0
C3318 C 0.40178 0.81671 0.38083 0.0
C3319 C 0.41818 0.77992 0.30483 0.0
C3320 C 0.35043 0.78155 0.31603 0.0
C3321 C 0.34813 0.80075 0.30391 0.0
C3322 C 0.37041 0.78059 0.32889 0.0
C3323 C 0.38848 0.79954 0.33014 0.0
C3324 C 0.38616 0.81913 0.31817 0.0
C3325 C 0.36613 0.81927 0.30487 0.0
C3326 C 0.37226 0.7591 0.34082 0.0
C3327 C 0.40486 0.83993 0.31935 0.0
H3328 H 0.44297 0.81457 0.39645 0.0
H3329 H 0.45707 0.78546 0.33195 0.0
H3330 H 0.39842 0.8328 0.37382 0.0
H3331 H 0.38614 0.8038 0.37894 0.0
H3332 H 0.40878 0.82134 0.39973 0.0
H3333 H 0.43063 0.77188 0.29831 0.0
H3334 H 0.40282 0.76635 0.3019 0.0
H3335 H 0.41551 0.79417 0.29425 0.0
H3336 H 0.33658 0.76712 0.31534 0.0
H3337 H 0.36455 0.83394 0.29525 0.0
H3338 H 0.37812 0.76433 0.35985 0.0
H3339 H 0.38422 0.7506 0.33385 0.0
H3340 H 0.35667 0.74591 0.33826 0.0
H3341 H 0.4122 0.84667 0.33786 0.0
H3342 H 0.39999 0.85458 0.31072 0.0
H3343 H 0.41746 0.83434 0.31072 0.0
C3344 C 0.07696 0.76587 0.10316 0.0
C3345 C 0.07713 0.76879 0.12735 0.0
C3346 C 0.07319 0.74318 0.09054 0.0
C3347 C 0.06917 0.72297 0.10234 0.0
C3348 C 0.06864 0.72586 0.12659 0.0
C3349 C 0.07275 0.74864 0.13877 0.0
C3350 C 0.07411 0.74084 0.06475 0.0
C3351 C 0.06412 0.70486 0.13983 0.0
C3352 C 0.04329 0.66182 0.06901 0.0
C3353 C 0.06105 0.65153 0.06935 0.0
C3354 C 0.04572 0.68521 0.07922 0.0
C3355 C 0.06643 0.69878 0.08978 0.0
C3356 C 0.08447 0.68864 0.08972 0.0
C3357 C 0.08155 0.66515 0.07967 0.0
C3358 C 0.02604 0.69524 0.07916 0.0
C3359 C 0.10687 0.70253 0.10057 0.0
H3360 H 0.08038 0.78131 0.09421 0.0
H3361 H 0.07261 0.75065 0.15741 0.0
H3362 H 0.08758 0.73267 0.06153 0.0
H3363 H 0.05909 0.72902 0.05469 0.0
H3364 H 0.07644 0.75814 0.05791 0.0
H3365 H 0.06307 0.71005 0.15836 0.0
H3366 H 0.0488 0.69249 0.13128 0.0
H3367 H 0.07707 0.69513 0.13955 0.0
H3368 H 0.02739 0.65151 0.06103 0.0
H3369 H 0.09543 0.65752 0.07978 0.0
H3370 H 0.02822 0.7119 0.07122 0.0
H3371 H 0.02377 0.69952 0.09742 0.0
H3372 H 0.0112 0.68278 0.06938 0.0
H3373 H 0.11061 0.71937 0.09308 0.0
H3374 H 0.11934 0.69262 0.0978 0.0
H3375 H 0.10783 0.70703 0.11967 0.0
C3376 C 0.10555 0.31239 0.90715 0.0
C3377 C 0.08586 0.30734 0.89161 0.0
C3378 C 0.12466 0.31052 0.89921 0.0
C3379 C 0.12404 0.30356 0.87516 0.0
C3380 C 0.1042 0.29847 0.85941 0.0
C3381 C 0.08536 0.30036 0.86783 0.0
C3382 C 0.1455 0.31599 0.91651 0.0
C3383 C 0.10289 0.2911 0.8336 0.0
C3384 C 0.17358 0.31896 0.84706 0.0
C3385 C 0.17921 0.29714 0.84418 0.0
C3386 C 0.15615 0.32154 0.85796 0.0
C3387 C 0.14408 0.30182 0.86621 0.0
C3388 C 0.15025 0.28001 0.86428 0.0
C3389 C 0.16773 0.27792 0.85325 0.0
C3390 C 0.15005 0.34508 0.85964 0.0
C3391 C 0.13788 0.25864 0.87304 0.0
H3392 H 0.10602 0.31771 0.92557 0.0
H3393 H 0.07021 0.29643 0.85572 0.0
H3394 H 0.15283 0.30048 0.91614 0.0
H3395 H 0.15713 0.33077 0.91156 0.0
H3396 H 0.14321 0.32084 0.93468 0.0
H3397 H 0.08621 0.28773 0.8237 0.0
H3398 H 0.11327 0.30505 0.82609 0.0
H3399 H 0.10892 0.27483 0.831 0.0
H3400 H 0.18222 0.33381 0.83986 0.0
H3401 H 0.17221 0.2611 0.85134 0.0
H3402 H 0.14836 0.35066 0.87784 0.0
H3403 H 0.13423 0.34345 0.84834 0.0
H3404 H 0.16208 0.3591 0.85413 0.0
H3405 H 0.13611 0.26306 0.89145 0.0
H3406 H 0.14581 0.24359 0.87201 0.0
H3407 H 0.12145 0.25295 0.86247 0.0
C3408 C 0.52544 0.74456 0.97825 0.0
C3409 C 0.52713 0.74594 0.95468 0.0
C3410 C 0.52649 0.72366 0.9883 0.0
C3411 C 0.53002 0.70388 0.9747 0.0
C3412 C 0.5318 0.70529 0.95092 0.0
C3413 C 0.53001 0.72607 0.94117 0.0
C3414 C 0.52391 0.72278 0.01351 0.0
C3415 C 0.5362 0.68504 0.93587 0.0
C3416 C 0.55516 0.65892 0.00573 0.0
C3417 C 0.53764 0.63943 0.00318 0.0
C3418 C 0.55289 0.67994 0.99666 0.0
C3419 C 0.53244 0.68193 0.98535 0.0
C3420 C 0.51456 0.66249 0.9833 0.0
C3421 C 0.51744 0.64138 0.99186 0.0
C3422 C 0.57258 0.69977 0.9986 0.0
C3423 C 0.49237 0.66393 0.97192 0.0
H3424 H 0.5232 0.75977 0.98883 0.0
H3425 H 0.5316 0.72701 0.92302 0.0
H3426 H 0.51104 0.70728 0.01487 0.0
H3427 H 0.53902 0.72065 0.02402 0.0
H3428 H 0.51985 0.73898 0.02128 0.0
H3429 H 0.53742 0.68899 0.91779 0.0
H3430 H 0.55147 0.6809 0.94383 0.0
H3431 H 0.52322 0.66899 0.93492 0.0
H3432 H 0.57089 0.65749 0.01417 0.0
H3433 H 0.5038 0.62646 0.98988 0.0
H3434 H 0.5702 0.71602 0.00818 0.0
H3435 H 0.57513 0.70377 0.98086 0.0
H3436 H 0.58734 0.69544 0.00776 0.0
H3437 H 0.48809 0.67974 0.98019 0.0
H3438 H 0.47989 0.64805 0.97328 0.0
H3439 H 0.49213 0.66586 0.95315 0.0
C3440 C 0.13913 0.84816 0.70448 0.0
C3441 C 0.13831 0.84859 0.68033 0.0
C3442 C 0.15834 0.84794 0.71932 0.0
C3443 C 0.1773 0.84828 0.70984 0.0
C3444 C 0.17673 0.84935 0.68557 0.0
C3445 C 0.15724 0.84944 0.6711 0.0
C3446 C 0.15819 0.84665 0.74504 0.0
C3447 C 0.19661 0.84983 0.6748 0.0
C3448 C 0.23164 0.86391 0.75087 0.0
C3449 C 0.23578 0.84154 0.75301 0.0
C3450 C 0.21263 0.86642 0.73698 0.0
C3451 C 0.19737 0.84609 0.72507 0.0
C3452 C 0.20127 0.82347 0.7276 0.0
C3453 C 0.2204 0.82149 0.74146 0.0
C3454 C 0.20908 0.89083 0.73469 0.0
C3455 C 0.18536 0.80132 0.7154 0.0
H3456 H 0.1246 0.84752 0.7118 0.0
H3457 H 0.15677 0.84985 0.65249 0.0
H3458 H 0.16188 0.82981 0.74967 0.0
H3459 H 0.17085 0.86117 0.75573 0.0
H3460 H 0.14242 0.84774 0.74988 0.0
H3461 H 0.19384 0.8521 0.65596 0.0
H3462 H 0.21 0.86441 0.68418 0.0
H3463 H 0.20186 0.83313 0.67657 0.0
H3464 H 0.24346 0.87951 0.7596 0.0
H3465 H 0.22339 0.80411 0.743 0.0
H3466 H 0.19363 0.89236 0.74007 0.0
H3467 H 0.20792 0.89401 0.71612 0.0
H3468 H 0.22224 0.90482 0.74547 0.0
H3469 H 0.1694 0.80066 0.72048 0.0
H3470 H 0.19055 0.78505 0.71962 0.0
H3471 H 0.18326 0.80142 0.69618 0.0
C3472 C 0.06772 0.41409 0.45035 0.0
C3473 C 0.05104 0.39498 0.45235 0.0
C3474 C 0.07035 0.43641 0.46317 0.0
C3475 C 0.05556 0.44008 0.47796 0.0
C3476 C 0.03872 0.42082 0.48018 0.0
C3477 C 0.03684 0.39843 0.46761 0.0
C3478 C 0.0889 0.45613 0.46073 0.0
C3479 C 0.02231 0.42404 0.49531 0.0
C3480 C 0.07146 0.49266 0.52625 0.0
C3481 C 0.06211 0.50952 0.51575 0.0
C3482 C 0.06963 0.47016 0.51411 0.0
C3483 C 0.05775 0.46408 0.49102 0.0
C3484 C 0.04832 0.48112 0.4803 0.0
C3485 C 0.05082 0.50368 0.4927 0.0
C3486 C 0.08052 0.45291 0.52599 0.0
C3487 C 0.03536 0.47547 0.45582 0.0
H3488 H 0.07882 0.41157 0.43866 0.0
H3489 H 0.02376 0.38387 0.46902 0.0
H3490 H 0.0827 0.47041 0.45282 0.0
H3491 H 0.09846 0.46387 0.47822 0.0
H3492 H 0.09973 0.45005 0.44966 0.0
H3493 H 0.01015 0.40741 0.49513 0.0
H3494 H 0.03041 0.43052 0.51363 0.0
H3495 H 0.0139 0.43758 0.4891 0.0
H3496 H 0.08028 0.49708 0.54403 0.0
H3497 H 0.04353 0.5166 0.4845 0.0
H3498 H 0.09172 0.44721 0.51522 0.0
H3499 H 0.06836 0.43689 0.52763 0.0
H3500 H 0.0897 0.46056 0.5437 0.0
H3501 H 0.0457 0.47142 0.44319 0.0
H3502 H 0.0283 0.49027 0.45038 0.0
H3503 H 0.02216 0.45956 0.45471 0.0
C3504 C 0.51241 0.32214 0.20169 0.0
C3505 C 0.51804 0.33016 0.18099 0.0
C3506 C 0.49474 0.32743 0.21054 0.0
C3507 C 0.48211 0.34097 0.19836 0.0
C3508 C 0.48732 0.3487 0.17717 0.0
C3509 C 0.50527 0.34328 0.16877 0.0
C3510 C 0.48987 0.31892 0.23326 0.0
C3511 C 0.4741 0.36295 0.16356 0.0
C3512 C 0.42699 0.33697 0.21539 0.0
C3513 C 0.43078 0.35719 0.23183 0.0
C3514 C 0.44325 0.33201 0.20355 0.0
C3515 C 0.46391 0.34749 0.2084 0.0
C3516 C 0.46767 0.36827 0.22443 0.0
C3517 C 0.45107 0.37291 0.23584 0.0
C3518 C 0.43853 0.30973 0.1865 0.0
C3519 C 0.48948 0.38521 0.23019 0.0
H3520 H 0.52209 0.31198 0.21135 0.0
H3521 H 0.50941 0.34954 0.15276 0.0
H3522 H 0.49108 0.33426 0.24651 0.0
H3523 H 0.47316 0.30811 0.23065 0.0
H3524 H 0.50102 0.30822 0.24038 0.0
H3525 H 0.47962 0.3667 0.14687 0.0
H3526 H 0.45693 0.3534 0.1596 0.0
H3527 H 0.47505 0.37996 0.17426 0.0
H3528 H 0.41149 0.32455 0.2123 0.0
H3529 H 0.45408 0.38883 0.24812 0.0
H3530 H 0.44778 0.29728 0.1937 0.0
H3531 H 0.4437 0.31373 0.16973 0.0
H3532 H 0.42116 0.30081 0.18288 0.0
H3533 H 0.50149 0.37631 0.23886 0.0
H3534 H 0.48944 0.40126 0.24195 0.0
H3535 H 0.49485 0.39066 0.21393 0.0
C3536 C 0.65817 0.59173 0.43045 0.0
C3537 C 0.65147 0.60591 0.41399 0.0
C3538 C 0.64481 0.58269 0.44594 0.0
C3539 C 0.62432 0.58789 0.44473 0.0
C3540 C 0.61765 0.60251 0.42846 0.0
C3541 C 0.63135 0.61145 0.41342 0.0
C3542 C 0.6525 0.56751 0.46344 0.0
C3543 C 0.59595 0.60866 0.42684 0.0
C3544 C 0.57744 0.55359 0.46849 0.0
C3545 C 0.57716 0.56957 0.48775 0.0
C3546 C 0.59374 0.55845 0.45498 0.0
C3547 C 0.61009 0.57949 0.46131 0.0
C3548 C 0.61068 0.59463 0.48182 0.0
C3549 C 0.59396 0.58972 0.49445 0.0
C3550 C 0.5926 0.542 0.43308 0.0
C3551 C 0.62798 0.61706 0.48944 0.0
H3552 H 0.67367 0.58729 0.43095 0.0
H3553 H 0.62601 0.62238 0.4008 0.0
H3554 H 0.65232 0.57534 0.48147 0.0
H3555 H 0.64144 0.54978 0.46043 0.0
H3556 H 0.66903 0.56542 0.46237 0.0
H3557 H 0.59288 0.61944 0.41253 0.0
H3558 H 0.58296 0.59232 0.42379 0.0
H3559 H 0.59493 0.61869 0.44358 0.0
H3560 H 0.56445 0.53798 0.46333 0.0
H3561 H 0.5936 0.60233 0.50905 0.0
H3562 H 0.60864 0.53852 0.43186 0.0
H3563 H 0.58761 0.55043 0.41753 0.0
H3564 H 0.58089 0.52492 0.4324 0.0
H3565 H 0.64408 0.61388 0.48804 0.0
H3566 H 0.62824 0.62452 0.50774 0.0
H3567 H 0.62502 0.63043 0.47782 0.0
C3568 C 0.31385 0.88147 0.1096 0.0
C3569 C 0.31356 0.90538 0.10964 0.0
C3570 C 0.31396 0.87089 0.1304 0.0
C3571 C 0.31318 0.88436 0.15166 0.0
C3572 C 0.31273 0.90846 0.1517 0.0
C3573 C 0.31319 0.9187 0.13083 0.0
C3574 C 0.31486 0.84528 0.12964 0.0
C3575 C 0.31137 0.9234 0.17374 0.0
C3576 C 0.29155 0.85284 0.20057 0.0
C3577 C 0.31037 0.85456 0.21687 0.0
C3578 C 0.29225 0.86225 0.17928 0.0
C3579 C 0.31233 0.87326 0.17378 0.0
C3580 C 0.33145 0.87457 0.18995 0.0
C3581 C 0.33021 0.86551 0.21141 0.0
C3582 C 0.27141 0.86103 0.163 0.0
C3583 C 0.35321 0.88575 0.18466 0.0
H3584 H 0.31421 0.87107 0.09335 0.0
H3585 H 0.31277 0.93714 0.13103 0.0
H3586 H 0.32874 0.84346 0.14253 0.0
H3587 H 0.3001 0.83494 0.1346 0.0
H3588 H 0.31637 0.8375 0.11203 0.0
H3589 H 0.31089 0.94178 0.17081 0.0
H3590 H 0.29671 0.91546 0.18055 0.0
H3591 H 0.3254 0.92392 0.18749 0.0
H3592 H 0.27609 0.84473 0.20476 0.0
H3593 H 0.34482 0.86687 0.22387 0.0
H3594 H 0.27182 0.85262 0.14528 0.0
H3595 H 0.26926 0.87914 0.16127 0.0
H3596 H 0.25723 0.85097 0.16932 0.0
H3597 H 0.35526 0.87752 0.16748 0.0
H3598 H 0.36659 0.88398 0.19826 0.0
H3599 H 0.35439 0.90478 0.18345 0.0
C3600 C 0.03964 0.66472 0.89027 0.0
C3601 C 0.01953 0.67037 0.88523 0.0
C3602 C 0.04621 0.65674 0.91143 0.0
C3603 C 0.03256 0.65478 0.9283 0.0
C3604 C 0.01301 0.66224 0.9242 0.0
C3605 C 0.00663 0.66984 0.90259 0.0
C3606 C 0.06715 0.64885 0.915 0.0
C3607 C 0.99833 0.66098 0.94209 0.0
C3608 C 0.03942 0.60617 0.96525 0.0
C3609 C 0.05465 0.61864 0.98441 0.0
C3610 C 0.0312 0.61793 0.94737 0.0
C3611 C 0.03808 0.6428 0.94899 0.0
C3612 C 0.05243 0.65558 0.96908 0.0
C3613 C 0.0608 0.64329 0.98644 0.0
C3614 C 0.01609 0.60359 0.92614 0.0
C3615 C 0.05959 0.68213 0.9718 0.0
H3616 H 0.04988 0.66535 0.87713 0.0
H3617 H 0.99111 0.67426 0.89891 0.0
H3618 H 0.07738 0.65774 0.93179 0.0
H3619 H 0.06379 0.62958 0.91591 0.0
H3620 H 0.07639 0.65263 0.90066 0.0
H3621 H 0.98577 0.67107 0.93807 0.0
H3622 H 0.99021 0.64232 0.94242 0.0
H3623 H 0.00768 0.6679 0.95986 0.0
H3624 H 0.03453 0.5871 0.96382 0.0
H3625 H 0.07226 0.65298 1.00155 0.0
H3626 H 0.02406 0.60504 0.91059 0.0
H3627 H 1.00141 0.61053 0.92251 0.0
H3628 H 0.01121 0.58464 0.92831 0.0
H3629 H 0.07088 0.68739 0.95965 0.0
H3630 H 0.06785 0.6896 0.98991 0.0
H3631 H 0.04562 0.69008 0.96722 0.0
C3632 C 0.28056 0.26339 0.58983 0.0
C3633 C 0.28181 0.23975 0.58576 0.0
C3634 C 0.28453 0.27528 0.61281 0.0
C3635 C 0.29029 0.26338 0.63209 0.0
C3636 C 0.29256 0.2399 0.6279 0.0
C3637 C 0.28811 0.22837 0.6049 0.0
C3638 C 0.28167 0.3002 0.61653 0.0
C3639 C 0.29906 0.22665 0.6478 0.0
C3640 C 0.31468 0.29702 0.69284 0.0
C3641 C 0.29705 0.29272 0.70454 0.0
C3642 C 0.3127 0.28797 0.66916 0.0
C3643 C 0.29251 0.27465 0.65672 0.0
C3644 C 0.27458 0.27073 0.66833 0.0
C3645 C 0.2771 0.27961 0.69207 0.0
C3646 C 0.3323 0.29224 0.6576 0.0
C3647 C 0.25269 0.25692 0.65571 0.0
H3648 H 0.27564 0.27227 0.57514 0.0
H3649 H 0.28938 0.21019 0.60192 0.0
H3650 H 0.26787 0.30053 0.62569 0.0
H3651 H 0.29614 0.31182 0.62786 0.0
H3652 H 0.27868 0.30759 0.59979 0.0
H3653 H 0.30188 0.20925 0.64151 0.0
H3654 H 0.31394 0.23718 0.65934 0.0
H3655 H 0.28624 0.2237 0.6586 0.0
H3656 H 0.33015 0.3072 0.70228 0.0
H3657 H 0.26329 0.27648 0.70079 0.0
H3658 H 0.32905 0.3006 0.64153 0.0
H3659 H 0.33612 0.27515 0.65219 0.0
H3660 H 0.34663 0.3037 0.66936 0.0
H3661 H 0.24789 0.26454 0.63955 0.0
H3662 H 0.24009 0.25674 0.66674 0.0
H3663 H 0.25334 0.23842 0.65034 0.0
C3664 C 0.65851 0.59128 0.28952 0.0
C3665 C 0.67997 0.58966 0.2953 0.0
C3666 C 0.64933 0.59205 0.26638 0.0
C3667 C 0.66183 0.59084 0.24861 0.0
C3668 C 0.68321 0.58817 0.25415 0.0
C3669 C 0.6921 0.58774 0.27754 0.0
C3670 C 0.62653 0.59511 0.26112 0.0
C3671 C 0.69685 0.58648 0.23549 0.0
C3672 C 0.63165 0.57682 0.18624 0.0
C3673 C 0.63431 0.59936 0.1791 0.0
C3674 C 0.64091 0.57369 0.2087 0.0
C3675 C 0.65283 0.59361 0.22442 0.0
C3676 C 0.65557 0.6164 0.21737 0.0
C3677 C 0.64637 0.61898 0.19471 0.0
C3678 C 0.63775 0.54913 0.21568 0.0
C3679 C 0.66805 0.63808 0.23382 0.0
H3680 H 0.64905 0.59276 0.3032 0.0
H3681 H 0.70866 0.58636 0.28196 0.0
H3682 H 0.62651 0.61223 0.25437 0.0
H3683 H 0.6167 0.58102 0.2473 0.0
H3684 H 0.61868 0.59469 0.27681 0.0
H3685 H 0.71259 0.58273 0.24245 0.0
H3686 H 0.68823 0.57238 0.22107 0.0
H3687 H 0.69987 0.6033 0.22787 0.0
H3688 H 0.62208 0.56162 0.17435 0.0
H3689 H 0.64878 0.63638 0.18916 0.0
H3690 H 0.62862 0.54788 0.23034 0.0
H3691 H 0.65357 0.54527 0.22197 0.0
H3692 H 0.62892 0.5354 0.20098 0.0
H3693 H 0.66051 0.63976 0.24958 0.0
H3694 H 0.66876 0.65452 0.22553 0.0
H3695 H 0.68473 0.63641 0.23982 0.0
C3696 C 0.29019 0.89024 0.959 0.0
C3697 C 0.30199 0.91372 0.9635 0.0
C3698 C 0.28753 0.87705 0.93679 0.0
C3699 C 0.29757 0.88732 0.91896 0.0
C3700 C 0.3099 0.91088 0.92368 0.0
C3701 C 0.31162 0.92387 0.94569 0.0
C3702 C 0.27366 0.85228 0.93227 0.0
C3703 C 0.32151 0.92233 0.90557 0.0
C3704 C 0.3085 0.84561 0.87038 0.0
C3705 C 0.29309 0.84729 0.85131 0.0
C3706 C 0.31027 0.85872 0.89234 0.0
C3707 C 0.29575 0.87328 0.89561 0.0
C3708 C 0.27996 0.87482 0.8764 0.0
C3709 C 0.27907 0.86212 0.85437 0.0
C3710 C 0.32796 0.85729 0.91193 0.0
C3711 C 0.26387 0.88972 0.87917 0.0
H3712 H 0.2825 0.88242 0.9726 0.0
H3713 H 0.32086 0.942 0.94911 0.0
H3714 H 0.26079 0.85063 0.91685 0.0
H3715 H 0.28345 0.83953 0.92813 0.0
H3716 H 0.26608 0.84726 0.94751 0.0
H3717 H 0.33128 0.94039 0.91238 0.0
H3718 H 0.33228 0.91143 0.89965 0.0
H3719 H 0.30977 0.92345 0.88999 0.0
H3720 H 0.31954 0.83436 0.868 0.0
H3721 H 0.26711 0.86342 0.83965 0.0
H3722 H 0.32093 0.8503 0.92678 0.0
H3723 H 0.33812 0.8752 0.91851 0.0
H3724 H 0.33841 0.84582 0.90631 0.0
H3725 H 0.25559 0.88493 0.89398 0.0
H3726 H 0.25159 0.88758 0.8631 0.0
H3727 H 0.27227 0.9086 0.88332 0.0
C3728 C 0.01853 0.70474 0.756 0.0
C3729 C 0.99662 0.69439 0.7544 0.0
C3730 C 0.02924 0.70074 0.73736 0.0
C3731 C 0.01773 0.68584 0.71687 0.0
C3732 C 0.99518 0.67744 0.71427 0.0
C3733 C 0.98483 0.68197 0.73305 0.0
C3734 C 0.0532 0.71059 0.74048 0.0
C3735 C 0.9823 0.66155 0.69264 0.0
C3736 C 0.04248 0.67296 0.66346 0.0
C3737 C 0.04827 0.65179 0.66778 0.0
C3738 C 0.03336 0.68501 0.67976 0.0
C3739 C 0.02957 0.67526 0.70048 0.0
C3740 C 0.03594 0.65419 0.70513 0.0
C3741 C 0.04534 0.64281 0.68877 0.0
C3742 C 0.02719 0.70767 0.67443 0.0
C3743 C 0.03202 0.64308 0.72694 0.0
H3744 H 0.02766 0.71477 0.77237 0.0
H3745 H 0.96786 0.67425 0.73157 0.0
H3746 H 0.06171 0.69649 0.7446 0.0
H3747 H 0.05775 0.71685 0.72415 0.0
H3748 H 0.05887 0.72541 0.75498 0.0
H3749 H 0.96471 0.65938 0.69191 0.0
H3750 H 0.98669 0.66861 0.67659 0.0
H3751 H 0.986 0.64388 0.6926 0.0
H3752 H 0.04488 0.67995 0.64725 0.0
H3753 H 0.04957 0.62628 0.69195 0.0
H3754 H 0.03201 0.72112 0.69014 0.0
H3755 H 0.00946 0.70431 0.66929 0.0
H3756 H 0.03466 0.71498 0.65992 0.0
H3757 H 0.03965 0.65586 0.74276 0.0
H3758 H 0.03844 0.62698 0.72813 0.0
H3759 H 0.01449 0.63821 0.72714 0.0
C3760 C 0.27083 0.27883 0.44035 0.0
C3761 C 0.28012 0.25962 0.44429 0.0
C3762 C 0.2744 0.29148 0.42129 0.0
C3763 C 0.28808 0.28523 0.40612 0.0
C3764 C 0.29781 0.26611 0.41033 0.0
C3765 C 0.2935 0.2534 0.4291 0.0
C3766 C 0.2632 0.31125 0.41711 0.0
C3767 C 0.31285 0.25908 0.39499 0.0
C3768 C 0.28476 0.30081 0.34367 0.0
C3769 C 0.30175 0.32078 0.34612 0.0
C3770 C 0.2795 0.28977 0.36315 0.0
C3771 C 0.29206 0.29834 0.38564 0.0
C3772 C 0.30911 0.31873 0.38824 0.0
C3773 C 0.31352 0.32992 0.36852 0.0
C3774 C 0.26074 0.26863 0.35952 0.0
C3775 C 0.32326 0.32818 0.4117 0.0
H3776 H 0.26034 0.28366 0.45187 0.0
H3777 H 0.30086 0.23868 0.43206 0.0
H3778 H 0.27524 0.328 0.41757 0.0
H3779 H 0.25302 0.30745 0.39946 0.0
H3780 H 0.2529 0.31381 0.43031 0.0
H3781 H 0.31996 0.24459 0.40124 0.0
H3782 H 0.30408 0.25321 0.37681 0.0
H3783 H 0.3261 0.27449 0.39443 0.0
H3784 H 0.27555 0.29376 0.32642 0.0
H3785 H 0.32678 0.34525 0.37049 0.0
H3786 H 0.25002 0.27075 0.37235 0.0
H3787 H 0.26672 0.25254 0.36245 0.0
H3788 H 0.25112 0.26589 0.34158 0.0
H3789 H 0.31334 0.33191 0.4249 0.0
H3790 H 0.33542 0.34457 0.41099 0.0
H3791 H 0.33177 0.31468 0.41781 0.0
C3792 C 0.33716 0.6481 0.54128 0.0
C3793 C 0.33637 0.67062 0.5352 0.0
C3794 C 0.35448 0.63801 0.53804 0.0
C3795 C 0.37174 0.65081 0.52875 0.0
C3796 C 0.37133 0.67373 0.52294 0.0
C3797 C 0.35356 0.68331 0.52606 0.0
C3798 C 0.35411 0.61342 0.54423 0.0
C3799 C 0.38963 0.68804 0.51335 0.0
C3800 C 0.42272 0.62817 0.54073 0.0
C3801 C 0.42147 0.61358 0.51978 0.0
C3802 C 0.40729 0.64139 0.54345 0.0
C3803 C 0.38993 0.63977 0.52492 0.0
C3804 C 0.38886 0.62564 0.50351 0.0
C3805 C 0.4047 0.61288 0.50114 0.0
C3806 C 0.40913 0.65639 0.56651 0.0
C3807 C 0.37051 0.62323 0.48339 0.0
H3808 H 0.32397 0.63801 0.54823 0.0
H3809 H 0.35313 0.70072 0.52136 0.0
H3810 H 0.35484 0.60159 0.5285 0.0
H3811 H 0.36841 0.61367 0.55751 0.0
H3812 H 0.33944 0.6058 0.55122 0.0
H3813 H 0.38723 0.70586 0.51041 0.0
H3814 H 0.40499 0.69004 0.52563 0.0
H3815 H 0.39129 0.6787 0.49652 0.0
H3816 H 0.43539 0.62876 0.55539 0.0
H3817 H 0.40379 0.60214 0.48469 0.0
H3818 H 0.39604 0.64852 0.57569 0.0
H3819 H 0.40727 0.67435 0.56356 0.0
H3820 H 0.4248 0.6579 0.57814 0.0
H3821 H 0.35522 0.61441 0.48849 0.0
H3822 H 0.37274 0.61281 0.46741 0.0
H3823 H 0.3688 0.64089 0.47911 0.0
C3824 C 0.90239 0.97736 0.55537 0.0
C3825 C 0.88644 0.98842 0.54579 0.0
C3826 C 0.92446 0.9881 0.55732 0.0
C3827 C 0.93071 0.01044 0.54956 0.0
C3828 C 0.91467 0.02163 0.53994 0.0
C3829 C 0.89288 0.01056 0.53819 0.0
C3830 C 0.94109 0.97559 0.56766 0.0
C3831 C 0.9205 0.04543 0.53148 0.0
C3832 C 0.98533 0.05233 0.57243 0.0
C3833 C 0.99608 0.0501 0.55348 0.0
C3834 C 0.9644 0.03879 0.5718 0.0
C3835 C 0.95393 0.02257 0.55172 0.0
C3836 C 0.96503 0.01972 0.53284 0.0
C3837 C 0.98599 0.03347 0.53399 0.0
C3838 C 0.95323 0.04246 0.59232 0.0
C3839 C 0.95455 1.00265 0.51111 0.0
H3840 H 0.89767 0.96028 0.56124 0.0
H3841 H 0.88083 0.01941 0.53077 0.0
H3842 H 0.95166 0.97274 0.55488 0.0
H3843 H 0.95148 0.98672 0.58338 0.0
H3844 H 0.93368 0.95826 0.57269 0.0
H3845 H 0.9061 0.0517 0.52426 0.0
H3846 H 0.9302 0.0587 0.54611 0.0
H3847 H 0.9305 0.04451 0.51771 0.0
H3848 H 0.99314 0.06501 0.58765 0.0
H3849 H 0.99444 0.03125 0.51959 0.0
H3850 H 0.9468 0.0253 0.59825 0.0
H3851 H 0.93936 0.0503 0.58688 0.0
H3852 H 0.96413 0.0543 0.60732 0.0
H3853 H 0.9484 0.98485 0.51587 0.0
H3854 H 0.96582 1.00133 0.49868 0.0
H3855 H 0.94055 0.00843 0.50205 0.0
C3856 C 0.83973 0.08596 0.18662 0.0
C3857 C 0.86094 0.08648 0.19685 0.0
C3858 C 0.82959 0.10373 0.19354 0.0
C3859 C 0.84093 0.12238 0.21111 0.0
C3860 C 0.86238 0.12309 0.2214 0.0
C3861 C 0.87215 0.10512 0.21412 0.0
C3862 C 0.8067 0.10247 0.18216 0.0
C3863 C 0.87497 0.14274 0.2402 0.0
C3864 C 0.82245 0.17964 0.21588 0.0
C3865 C 0.81123 0.17723 0.23462 0.0
C3866 C 0.83201 0.16179 0.20786 0.0
C3867 C 0.83032 0.1411 0.2189 0.0
C3868 C 0.8188 0.13845 0.23766 0.0
C3869 C 0.80934 0.15656 0.24527 0.0
C3870 C 0.84407 0.16516 0.18771 0.0
C3871 C 0.81676 0.11665 0.24992 0.0
H3872 H 0.83099 0.0716 0.17326 0.0
H3873 H 0.88854 0.10561 0.2221 0.0
H3874 H 0.79619 0.10147 0.19559 0.0
H3875 H 0.8058 0.11871 0.17401 0.0
H3876 H 0.80023 0.08696 0.16852 0.0
H3877 H 0.89156 0.14077 0.2463 0.0
H3878 H 0.87596 0.16002 0.23353 0.0
H3879 H 0.86657 0.14311 0.25542 0.0
H3880 H 0.82369 0.1955 0.20743 0.0
H3881 H 0.80086 0.15478 0.25993 0.0
H3882 H 0.8372 0.15046 0.17333 0.0
H3883 H 0.86115 0.16482 0.19346 0.0
H3884 H 0.84348 0.18208 0.18072 0.0
H3885 H 0.80939 0.10068 0.2371 0.0
H3886 H 0.80684 0.11711 0.26386 0.0
H3887 H 0.83295 0.11487 0.25789 0.0
C3888 C 0.70176 0.19104 0.00974 0.0
C3889 C 0.71933 0.18071 0.00866 0.0
C3890 C 0.68115 0.17711 0.00978 0.0
C3891 C 0.67806 0.15229 0.00875 0.0
C3892 C 0.69559 0.14173 0.00684 0.0
C3893 C 0.71598 0.15605 0.00678 0.0
C3894 C 0.66282 0.18901 0.01176 0.0
C3895 C 0.69302 0.11537 0.00578 0.0
C3896 C 0.63333 0.11973 0.03707 0.0
C3897 C 0.61722 0.10951 0.01767 0.0
C3898 C 0.65312 0.13362 0.03434 0.0
C3899 C 0.65701 0.13753 0.01163 0.0
C3900 C 0.64096 0.12714 0.99191 0.0
C3901 C 0.62126 0.1132 0.99515 0.0
C3902 C 0.66985 0.14422 0.05584 0.0
C3903 C 0.64455 0.13094 0.96743 0.0
H3904 H 0.70421 0.21006 0.01109 0.0
H3905 H 0.72944 0.14789 0.00581 0.0
H3906 H 0.64883 0.18073 0.99782 0.0
H3907 H 0.65754 0.18668 0.0288 0.0
H3908 H 0.66742 0.20819 0.01048 0.0
H3909 H 0.70783 0.10978 0.00259 0.0
H3910 H 0.68907 0.10965 0.02253 0.0
H3911 H 0.67951 0.10603 0.99171 0.0
H3912 H 0.63048 0.117 0.05457 0.0
H3913 H 0.60892 0.10549 0.98005 0.0
H3914 H 0.67392 0.16373 0.05684 0.0
H3915 H 0.68485 0.13817 0.05471 0.0
H3916 H 0.66433 0.1394 0.07226 0.0
H3917 H 0.6477 0.15005 0.96576 0.0
H3918 H 0.63052 0.12154 0.95393 0.0
H3919 H 0.65894 0.12473 0.96384 0.0
C3920 C 0.18578 0.4169 0.23801 0.0
C3921 C 0.18552 0.43993 0.24668 0.0
C3922 C 0.20263 0.40666 0.24667 0.0
C3923 C 0.21919 0.41956 0.26492 0.0
C3924 C 0.21868 0.44262 0.27414 0.0
C3925 C 0.20199 0.45269 0.26464 0.0
C3926 C 0.20292 0.38223 0.23598 0.0
C3927 C 0.23572 0.4566 0.29404 0.0
C3928 C 0.25097 0.38111 0.2969 0.0
C3929 C 0.26906 0.38389 0.28598 0.0
C3930 C 0.23517 0.39377 0.29127 0.0
C3931 C 0.23729 0.40901 0.27384 0.0
C3932 C 0.25602 0.41267 0.26356 0.0
C3933 C 0.27186 0.4003 0.27002 0.0
C3934 C 0.21569 0.38989 0.30308 0.0
C3935 C 0.25864 0.42831 0.24448 0.0
H3936 H 0.17309 0.4071 0.22404 0.0
H3937 H 0.20166 0.47044 0.27151 0.0
H3938 H 0.21802 0.38274 0.22897 0.0
H3939 H 0.20256 0.37013 0.24954 0.0
H3940 H 0.18906 0.3748 0.22158 0.0
H3941 H 0.23241 0.47386 0.29995 0.0
H3942 H 0.23674 0.44637 0.30911 0.0
H3943 H 0.25168 0.45985 0.28857 0.0
H3944 H 0.2488 0.3684 0.30924 0.0
H3945 H 0.28568 0.40221 0.26128 0.0
H3946 H 0.20137 0.37983 0.29038 0.0
H3947 H 0.21233 0.40704 0.30919 0.0
H3948 H 0.21779 0.3799 0.31825 0.0
H3949 H 0.24617 0.4206 0.22883 0.0
H3950 H 0.27472 0.43038 0.2393 0.0
H3951 H 0.25629 0.44603 0.25024 0.0
C3952 C 0.24496 0.44764 0.04994 0.0
C3953 C 0.26587 0.46201 0.05544 0.0
C3954 C 0.22683 0.45729 0.05036 0.0
C3955 C 0.22965 0.48191 0.05635 0.0
C3956 C 0.25074 0.49646 0.06219 0.0
C3957 C 0.26855 0.48634 0.06172 0.0
C3958 C 0.20464 0.44116 0.04414 0.0
C3959 C 0.25448 0.5228 0.06862 0.0
C3960 C 0.18492 0.51222 0.03556 0.0
C3961 C 0.17662 0.51623 0.05607 0.0
C3962 C 0.20183 0.50062 0.03528 0.0
C3963 C 0.21063 0.49266 0.05599 0.0
C3964 C 0.20187 0.49598 0.07656 0.0
C3965 C 0.18504 0.50779 0.07638 0.0
C3966 C 0.21075 0.49756 0.013 0.0
C3967 C 0.21061 0.48756 0.09893 0.0
H3968 H 0.24272 0.42882 0.04513 0.0
H3969 H 0.28464 0.49759 0.06601 0.0
H3970 H 0.1955 0.44322 0.05854 0.0
H3971 H 0.19562 0.44607 0.02832 0.0
H3972 H 0.20517 0.42232 0.0407 0.0
H3973 H 0.27186 0.53159 0.07312 0.0
H3974 H 0.24702 0.53063 0.05379 0.0
H3975 H 0.2467 0.52667 0.08377 0.0
H3976 H 0.17871 0.51894 0.01987 0.0
H3977 H 0.17856 0.51059 0.09223 0.0
H3978 H 0.21063 0.47874 0.00818 0.0
H3979 H 0.22773 0.50765 0.01575 0.0
H3980 H 0.20147 0.50371 0.99812 0.0
H3981 H 0.21053 0.46855 0.09572 0.0
H3982 H 0.2012 0.4902 0.11299 0.0
H3983 H 0.22757 0.49725 0.10521 0.0
C3984 C 0.83363 0.95515 0.18199 0.0
C3985 C 0.85321 0.95112 0.17697 0.0
C3986 C 0.82018 0.9389 0.1926 0.0
C3987 C 0.82641 0.91806 0.19822 0.0
C3988 C 0.84531 0.913 0.1916 0.0
C3989 C 0.85849 0.9296 0.18098 0.0
C3990 C 0.80007 0.94482 0.19927 0.0
C3991 C 0.85238 0.89083 0.19718 0.0
C3992 C 0.80817 0.89199 0.251 0.0
C3993 C 0.79119 0.87314 0.24039 0.0
C3994 C 0.81973 0.90682 0.23743 0.0
C3995 C 0.8141 0.90259 0.2127 0.0
C3996 C 0.79673 0.88376 0.20193 0.0
C3997 C 0.78538 0.86932 0.21593 0.0
C3998 C 0.83819 0.92676 0.24954 0.0
C3999 C 0.79043 0.87857 0.17563 0.0
H4000 H 0.82933 0.97164 0.1788 0.0
H4001 H 0.87358 0.92632 0.17719 0.0
H4002 H 0.78605 0.92969 0.19334 0.0
H4003 H 0.8021 0.94838 0.2186 0.0
H4004 H 0.79643 0.96056 0.1917 0.0
H4005 H 0.86601 0.88819 0.18851 0.0
H4006 H 0.85751 0.89189 0.21636 0.0
H4007 H 0.83883 0.87512 0.1917 0.0
H4008 H 0.81267 0.89487 0.26991 0.0
H4009 H 0.77236 0.85457 0.20766 0.0
H4010 H 0.83556 0.9438 0.24425 0.0
H4011 H 0.85339 0.92427 0.24417 0.0
H4012 H 0.84019 0.92793 0.26891 0.0
H4013 H 0.78661 0.89432 0.1683 0.0
H4014 H 0.7763 0.86346 0.17003 0.0
H4015 H 0.80412 0.87448 0.16795 0.0
C4016 C 0.67179 0.062 0.72946 0.0
C4017 C 0.64935 0.05742 0.72288 0.0
C4018 C 0.6845 0.08502 0.73211 0.0
C4019 C 0.67451 0.10395 0.72831 0.0
C4020 C 0.65185 0.09956 0.72212 0.0
C4021 C 0.63953 0.07631 0.71935 0.0
C4022 C 0.70866 0.08902 0.7385 0.0
C4023 C 0.64066 0.11938 0.71816 0.0
C4024 C 0.70669 0.16571 0.75327 0.0
C4025 C 0.71402 0.17409 0.73349 0.0
C4026 C 0.69361 0.14298 0.75181 0.0
C4027 C 0.68788 0.12826 0.73009 0.0
C4028 C 0.6952 0.13661 0.71006 0.0
C4029 C 0.7081 0.15946 0.71198 0.0
C4030 C 0.68604 0.13465 0.77353 0.0
C4031 C 0.68947 0.12137 0.6866 0.0
H4032 H 0.67954 0.04752 0.73215 0.0
H4033 H 0.6222 0.07294 0.71437 0.0
H4034 H 0.71634 0.09676 0.72434 0.0
H4035 H 0.71471 0.1018 0.75463 0.0
H4036 H 0.71387 0.07245 0.74139 0.0
H4037 H 0.62286 0.11311 0.71436 0.0
H4038 H 0.64517 0.13289 0.73382 0.0
H4039 H 0.6459 0.12817 0.70327 0.0
H4040 H 0.71141 0.17682 0.77 0.0
H4041 H 0.71339 0.16597 0.69653 0.0
H4042 H 0.69226 0.11901 0.77778 0.0
H4043 H 0.66822 0.12914 0.77039 0.0
H4044 H 0.6914 0.14852 0.78891 0.0
H4045 H 0.69529 0.10494 0.68798 0.0
H4046 H 0.69652 0.13051 0.67274 0.0
H4047 H 0.67174 0.11611 0.68111 0.0
loop_
_geom_bond_atom_site_label_1
_geom_bond_atom_site_label_2
_geom_bond_distance
_geom_bond_site_symmetry_2
_ccdc_geom_bond_type
C0 O1 1.306 . S
C0 O3 1.160 . S
O1 C0 1.306 . S
O1 Cd2 2.228 1_655 S
Cd2 O1 2.228 1_455 S
Cd2 O6 2.273 . S
Cd2 O10 2.277 . S
O3 C0 1.160 . S
O3 Cd4 2.203 1_655 S
Cd4 O3 2.203 1_455 S
Cd4 O6 2.411 . S
Cd4 O7 2.333 . S
Cd4 O8 2.352 . S
Cd4 O12 2.277 . S
Cd4 O13 2.356 . S
C5 O10 1.209 . S
C5 O12 1.226 . S
O6 Cd2 2.273 . S
O6 Cd4 2.411 . S
O6 C9 1.320 . S
O7 Cd4 2.333 . S
O7 C9 1.214 . S
O8 Cd4 2.352 . S
O8 C11 1.258 . S
C9 O6 1.320 . S
C9 O7 1.214 . S
O10 Cd2 2.277 . S
O10 C5 1.209 . S
C11 O8 1.258 . S
C11 O13 1.282 . S
O12 Cd4 2.277 . S
O12 C5 1.226 . S
O13 Cd4 2.356 . S
O13 C11 1.282 . S
C14 O15 1.306 . S
C14 O17 1.160 . S
O15 C14 1.306 . S
O15 Cd16 2.228 . S
Cd16 O15 2.228 . S
Cd16 O20 2.273 . S
Cd16 O24 2.277 . S
O17 C14 1.160 . S
O17 Cd18 2.203 . S
Cd18 O17 2.203 . S
Cd18 O20 2.411 . S
Cd18 O21 2.333 . S
Cd18 O22 2.352 . S
Cd18 O26 2.277 . S
Cd18 O27 2.356 . S
C19 O24 1.209 . S
C19 O26 1.226 . S
O20 Cd16 2.273 . S
O20 Cd18 2.411 . S
O20 C23 1.320 . S
O21 Cd18 2.333 . S
O21 C23 1.214 . S
O22 Cd18 2.352 . S
O22 C25 1.258 . S
C23 O20 1.320 . S
C23 O21 1.214 . S
O24 Cd16 2.277 . S
O24 C19 1.209 . S
C25 O22 1.258 . S
C25 O27 1.282 . S
O26 Cd18 2.277 . S
O26 C19 1.226 . S
O27 Cd18 2.356 . S
O27 C25 1.282 . S
C28 O29 1.306 . S
C28 O31 1.160 . S
O29 C28 1.306 . S
O29 Cd30 2.228 . S
Cd30 O29 2.228 . S
Cd30 O34 2.273 . S
Cd30 O38 2.277 . S
O31 C28 1.160 . S
O31 Cd32 2.203 . S
Cd32 O31 2.203 . S
Cd32 O34 2.411 . S
Cd32 O35 2.333 . S
Cd32 O36 2.352 . S
Cd32 O40 2.277 . S
Cd32 O41 2.356 . S
C33 O38 1.209 . S
C33 O40 1.226 . S
O34 Cd30 2.273 . S
O34 Cd32 2.411 . S
O34 C37 1.320 . S
O35 Cd32 2.333 . S
O35 C37 1.214 . S
O36 Cd32 2.352 . S
O36 C39 1.258 . S
C37 O34 1.320 . S
C37 O35 1.214 . S
O38 Cd30 2.277 . S
O38 C33 1.209 . S
C39 O36 1.258 . S
C39 O41 1.282 . S
O40 Cd32 2.277 . S
O40 C33 1.226 . S
O41 Cd32 2.356 . S
O41 C39 1.282 . S
C42 O43 1.306 . S
C42 O45 1.160 . S
O43 C42 1.306 . S
O43 Cd44 2.228 . S
Cd44 O43 2.228 . S
Cd44 O48 2.273 . S
Cd44 O52 2.277 . S
O45 C42 1.160 . S
O45 Cd46 2.203 . S
Cd46 O45 2.203 . S
Cd46 O48 2.411 . S
Cd46 O49 2.333 . S
Cd46 O50 2.352 . S
Cd46 O54 2.277 . S
Cd46 O55 2.356 . S
C47 O52 1.209 . S
C47 O54 1.226 . S
O48 Cd44 2.273 . S
O48 Cd46 2.411 . S
O48 C51 1.320 . S
O49 Cd46 2.333 . S
O49 C51 1.214 . S
O50 Cd46 2.352 . S
O50 C53 1.258 . S
C51 O48 1.320 . S
C51 O49 1.214 . S
O52 Cd44 2.277 . S
O52 C47 1.209 . S
C53 O50 1.258 . S
C53 O55 1.282 . S
O54 Cd46 2.277 . S
O54 C47 1.226 . S
O55 Cd46 2.356 . S
O55 C53 1.282 . S
C56 O57 1.306 . S
C56 O59 1.160 . S
O57 C56 1.306 . S
O57 Cd58 2.228 . S
Cd58 O57 2.228 . S
Cd58 O62 2.273 . S
Cd58 O66 2.277 . S
O59 C56 1.160 . S
O59 Cd60 2.203 . S
Cd60 O59 2.203 . S
Cd60 O62 2.411 . S
Cd60 O63 2.333 . S
Cd60 O64 2.352 . S
Cd60 O68 2.277 . S
Cd60 O69 2.356 . S
C61 O66 1.209 . S
C61 O68 1.226 . S
O62 Cd58 2.273 . S
O62 Cd60 2.411 . S
O62 C65 1.320 . S
O63 Cd60 2.333 . S
O63 C65 1.214 . S
O64 Cd60 2.352 . S
O64 C67 1.258 . S
C65 O62 1.320 . S
C65 O63 1.214 . S
O66 Cd58 2.277 . S
O66 C61 1.209 . S
C67 O64 1.258 . S
C67 O69 1.282 . S
O68 Cd60 2.277 . S
O68 C61 1.226 . S
O69 Cd60 2.356 . S
O69 C67 1.282 . S
C70 O71 1.306 . S
C70 O73 1.160 . S
O71 C70 1.306 . S
O71 Cd72 2.228 . S
Cd72 O71 2.228 . S
Cd72 O76 2.273 . S
Cd72 O80 2.277 . S
O73 C70 1.160 . S
O73 Cd74 2.203 . S
Cd74 O73 2.203 . S
Cd74 O76 2.411 . S
Cd74 O77 2.333 . S
Cd74 O78 2.352 . S
Cd74 O82 2.277 . S
Cd74 O83 2.356 . S
C75 O80 1.209 . S
C75 O82 1.226 . S
O76 Cd72 2.273 . S
O76 Cd74 2.411 . S
O76 C79 1.320 . S
O77 Cd74 2.333 . S
O77 C79 1.214 . S
O78 Cd74 2.352 . S
O78 C81 1.258 . S
C79 O76 1.320 . S
C79 O77 1.214 . S
O80 Cd72 2.277 . S
O80 C75 1.209 . S
C81 O78 1.258 . S
C81 O83 1.282 . S
O82 Cd74 2.277 . S
O82 C75 1.226 . S
O83 Cd74 2.356 . S
O83 C81 1.282 . S
C84 O85 1.306 . S
C84 O87 1.160 . S
O85 C84 1.306 . S
O85 Cd86 2.228 . S
Cd86 O85 2.228 . S
Cd86 O90 2.273 . S
Cd86 O94 2.277 . S
O87 C84 1.160 . S
O87 Cd88 2.203 . S
Cd88 O87 2.203 . S
Cd88 O90 2.411 . S
Cd88 O91 2.333 . S
Cd88 O92 2.352 . S
Cd88 O96 2.277 . S
Cd88 O97 2.356 . S
C89 O94 1.209 . S
C89 O96 1.226 . S
O90 Cd86 2.273 . S
O90 Cd88 2.411 . S
O90 C93 1.320 . S
O91 Cd88 2.333 . S
O91 C93 1.214 . S
O92 Cd88 2.352 . S
O92 C95 1.258 . S
C93 O90 1.320 . S
C93 O91 1.214 . S
O94 Cd86 2.277 . S
O94 C89 1.209 . S
C95 O92 1.258 . S
C95 O97 1.282 . S
O96 Cd88 2.277 . S
O96 C89 1.226 . S
O97 Cd88 2.356 . S
O97 C95 1.282 . S
C98 O99 1.306 . S
C98 O101 1.160 . S
O99 C98 1.306 . S
O99 Cd100 2.228 1_655 S
Cd100 O99 2.228 1_455 S
Cd100 O104 2.273 . S
Cd100 O108 2.277 . S
O101 C98 1.160 . S
O101 Cd102 2.203 1_655 S
Cd102 O101 2.203 1_455 S
Cd102 O104 2.411 . S
Cd102 O105 2.333 . S
Cd102 O106 2.352 . S
Cd102 O110 2.277 . S
Cd102 O111 2.356 . S
C103 O108 1.209 . S
C103 O110 1.226 . S
O104 Cd100 2.273 . S
O104 Cd102 2.411 . S
O104 C107 1.320 . S
O105 Cd102 2.333 . S
O105 C107 1.214 . S
O106 Cd102 2.352 . S
O106 C109 1.258 . S
C107 O104 1.320 . S
C107 O105 1.214 . S
O108 Cd100 2.277 . S
O108 C103 1.209 . S
C109 O106 1.258 . S
C109 O111 1.282 . S
O110 Cd102 2.277 . S
O110 C103 1.226 . S
O111 Cd102 2.356 . S
O111 C109 1.282 . S
C112 O113 1.306 . S
C112 O115 1.160 . S
O113 C112 1.306 . S
O113 Cd114 2.228 . S
Cd114 O113 2.228 . S
Cd114 O118 2.273 . S
Cd114 O122 2.277 . S
O115 C112 1.160 . S
O115 Cd116 2.203 . S
Cd116 O115 2.203 . S
Cd116 O118 2.411 . S
Cd116 O119 2.333 . S
Cd116 O120 2.352 . S
Cd116 O124 2.277 . S
Cd116 O125 2.356 . S
C117 O122 1.209 . S
C117 O124 1.226 . S
O118 Cd114 2.273 . S
O118 Cd116 2.411 . S
O118 C121 1.320 . S
O119 Cd116 2.333 . S
O119 C121 1.214 . S
O120 Cd116 2.352 . S
O120 C123 1.258 . S
C121 O118 1.320 . S
C121 O119 1.214 . S
O122 Cd114 2.277 . S
O122 C117 1.209 . S
C123 O120 1.258 . S
C123 O125 1.282 . S
O124 Cd116 2.277 . S
O124 C117 1.226 . S
O125 Cd116 2.356 . S
O125 C123 1.282 . S
C126 O127 1.306 . S
C126 O129 1.160 . S
O127 C126 1.306 . S
O127 Cd128 2.228 . S
Cd128 O127 2.228 . S
Cd128 O132 2.273 . S
Cd128 O136 2.277 . S
O129 C126 1.160 . S
O129 Cd130 2.203 . S
Cd130 O129 2.203 . S
Cd130 O132 2.411 . S
Cd130 O133 2.333 . S
Cd130 O134 2.352 . S
Cd130 O138 2.277 . S
Cd130 O139 2.356 . S
C131 O136 1.209 . S
C131 O138 1.226 . S
O132 Cd128 2.273 . S
O132 Cd130 2.411 . S
O132 C135 1.320 . S
O133 Cd130 2.333 . S
O133 C135 1.214 . S
O134 Cd130 2.352 . S
O134 C137 1.258 . S
C135 O132 1.320 . S
C135 O133 1.214 . S
O136 Cd128 2.277 . S
O136 C131 1.209 . S
C137 O134 1.258 . S
C137 O139 1.282 . S
O138 Cd130 2.277 . S
O138 C131 1.226 . S
O139 Cd130 2.356 . S
O139 C137 1.282 . S
C140 O141 1.306 . S
C140 O143 1.160 . S
O141 C140 1.306 . S
O141 Cd142 2.228 . S
Cd142 O141 2.228 . S
Cd142 O146 2.273 . S
Cd142 O150 2.277 . S
O143 C140 1.160 . S
O143 Cd144 2.203 . S
Cd144 O143 2.203 . S
Cd144 O146 2.411 . S
Cd144 O147 2.333 . S
Cd144 O148 2.352 . S
Cd144 O152 2.277 . S
Cd144 O153 2.356 . S
C145 O150 1.209 . S
C145 O152 1.226 . S
O146 Cd142 2.273 . S
O146 Cd144 2.411 . S
O146 C149 1.320 . S
O147 Cd144 2.333 . S
O147 C149 1.214 . S
O148 Cd144 2.352 . S
O148 C151 1.258 . S
C149 O146 1.320 . S
C149 O147 1.214 . S
O150 Cd142 2.277 . S
O150 C145 1.209 . S
C151 O148 1.258 . S
C151 O153 1.282 . S
O152 Cd144 2.277 . S
O152 C145 1.226 . S
O153 Cd144 2.356 . S
O153 C151 1.282 . S
C154 O155 1.306 . S
C154 O157 1.160 . S
O155 C154 1.306 . S
O155 Cd156 2.228 . S
Cd156 O155 2.228 . S
Cd156 O160 2.273 . S
Cd156 O164 2.277 . S
O157 C154 1.160 . S
O157 Cd158 2.203 . S
Cd158 O157 2.203 . S
Cd158 O160 2.411 . S
Cd158 O161 2.333 . S
Cd158 O162 2.352 . S
Cd158 O166 2.277 . S
Cd158 O167 2.356 . S
C159 O164 1.209 . S
C159 O166 1.226 . S
O160 Cd156 2.273 . S
O160 Cd158 2.411 . S
O160 C163 1.320 . S
O161 Cd158 2.333 . S
O161 C163 1.214 . S
O162 Cd158 2.352 . S
O162 C165 1.258 . S
C163 O160 1.320 . S
C163 O161 1.214 . S
O164 Cd156 2.277 . S
O164 C159 1.209 . S
C165 O162 1.258 . S
C165 O167 1.282 . S
O166 Cd158 2.277 . S
O166 C159 1.226 . S
O167 Cd158 2.356 . S
O167 C165 1.282 . S
C168 O169 1.306 . S
C168 O171 1.160 . S
O169 C168 1.306 . S
O169 Cd170 2.228 . S
Cd170 O169 2.228 . S
Cd170 O174 2.273 . S
Cd170 O178 2.277 1_554 S
O171 C168 1.160 . S
O171 Cd172 2.203 . S
Cd172 O171 2.203 . S
Cd172 O174 2.411 . S
Cd172 O175 2.333 . S
Cd172 O176 2.352 . S
Cd172 O180 2.277 . S
Cd172 O181 2.356 . S
C173 O178 1.209 . S
C173 O180 1.226 1_556 S
O174 Cd170 2.273 . S
O174 Cd172 2.411 . S
O174 C177 1.320 . S
O175 Cd172 2.333 . S
O175 C177 1.214 . S
O176 Cd172 2.352 . S
O176 C179 1.258 . S
C177 O174 1.320 . S
C177 O175 1.214 . S
O178 Cd170 2.277 1_556 S
O178 C173 1.209 . S
C179 O176 1.258 . S
C179 O181 1.282 . S
O180 Cd172 2.277 . S
O180 C173 1.226 1_554 S
O181 Cd172 2.356 . S
O181 C179 1.282 . S
C182 O183 1.306 . S
C182 O185 1.169 . S
O183 C182 1.306 . S
O183 Cd184 2.228 . S
Cd184 O183 2.228 . S
Cd184 O188 2.273 1_554 S
Cd184 O192 2.277 . S
O185 C182 1.169 . S
O185 Cd186 2.204 1_554 S
Cd186 O185 2.204 1_556 S
Cd186 O188 2.411 . S
Cd186 O189 2.333 . S
Cd186 O190 2.352 . S
Cd186 O194 2.277 1_556 S
Cd186 O195 2.356 . S
C187 O192 1.209 . S
C187 O194 1.226 . S
O188 Cd184 2.273 1_556 S
O188 Cd186 2.411 . S
O188 C191 1.320 . S
O189 Cd186 2.333 . S
O189 C191 1.214 . S
O190 Cd186 2.352 . S
O190 C193 1.258 . S
C191 O188 1.320 . S
C191 O189 1.214 . S
O192 Cd184 2.277 . S
O192 C187 1.209 . S
C193 O190 1.258 . S
C193 O195 1.282 . S
O194 Cd186 2.277 1_554 S
O194 C187 1.226 . S
O195 Cd186 2.356 . S
O195 C193 1.282 . S
C196 O197 1.306 . S
C196 O199 1.160 . S
O197 C196 1.306 . S
O197 Cd198 2.228 . S
Cd198 O197 2.228 . S
Cd198 O202 2.273 . S
Cd198 O206 2.277 . S
O199 C196 1.160 . S
O199 Cd200 2.203 . S
Cd200 O199 2.203 . S
Cd200 O202 2.411 . S
Cd200 O203 2.333 . S
Cd200 O204 2.352 . S
Cd200 O208 2.277 . S
Cd200 O209 2.356 . S
C201 O206 1.209 . S
C201 O208 1.226 . S
O202 Cd198 2.273 . S
O202 Cd200 2.411 . S
O202 C205 1.320 . S
O203 Cd200 2.333 . S
O203 C205 1.214 . S
O204 Cd200 2.352 . S
O204 C207 1.258 . S
C205 O202 1.320 . S
C205 O203 1.214 . S
O206 Cd198 2.277 . S
O206 C201 1.209 . S
C207 O204 1.258 . S
C207 O209 1.282 . S
O208 Cd200 2.277 . S
O208 C201 1.226 . S
O209 Cd200 2.356 . S
O209 C207 1.282 . S
C210 O211 1.306 . S
C210 O213 1.160 . S
O211 C210 1.306 . S
O211 Cd212 2.228 . S
Cd212 O211 2.228 . S
Cd212 O216 2.273 . S
Cd212 O220 2.277 . S
O213 C210 1.160 . S
O213 Cd214 2.203 . S
Cd214 O213 2.203 . S
Cd214 O216 2.411 . S
Cd214 O217 2.333 . S
Cd214 O218 2.352 . S
Cd214 O222 2.277 . S
Cd214 O223 2.356 . S
C215 O220 1.209 . S
C215 O222 1.226 . S
O216 Cd212 2.273 . S
O216 Cd214 2.411 . S
O216 C219 1.320 . S
O217 Cd214 2.333 . S
O217 C219 1.214 . S
O218 Cd214 2.352 . S
O218 C221 1.258 . S
C219 O216 1.320 . S
C219 O217 1.214 . S
O220 Cd212 2.277 . S
O220 C215 1.209 . S
C221 O218 1.258 . S
C221 O223 1.282 . S
O222 Cd214 2.277 . S
O222 C215 1.226 . S
O223 Cd214 2.356 . S
O223 C221 1.282 . S
C224 O225 1.306 . S
C224 O227 1.160 . S
O225 C224 1.306 . S
O225 Cd226 2.228 . S
Cd226 O225 2.228 . S
Cd226 O230 2.273 . S
Cd226 O234 2.272 1_545 S
O227 C224 1.160 . S
O227 Cd228 2.203 . S
Cd228 O227 2.203 . S
Cd228 O230 2.411 . S
Cd228 O231 2.333 . S
Cd228 O232 2.352 . S
Cd228 O236 2.277 . S
Cd228 O237 2.356 . S
C229 O234 1.209 . S
C229 O236 1.226 1_565 S
O230 Cd226 2.273 . S
O230 Cd228 2.411 . S
O230 C233 1.320 . S
O231 Cd228 2.333 . S
O231 C233 1.214 . S
O232 Cd228 2.352 . S
O232 C235 1.258 . S
C233 O230 1.320 . S
C233 O231 1.214 . S
O234 Cd226 2.272 1_565 S
O234 C229 1.209 . S
C235 O232 1.258 . S
C235 O237 1.282 . S
O236 Cd228 2.277 . S
O236 C229 1.226 1_545 S
O237 Cd228 2.356 . S
O237 C235 1.282 . S
C238 O239 1.306 . S
C238 O241 1.160 . S
O239 C238 1.306 . S
O239 Cd240 2.228 . S
Cd240 O239 2.228 . S
Cd240 O244 2.273 . S
Cd240 O248 2.277 . S
O241 C238 1.160 . S
O241 Cd242 2.203 . S
Cd242 O241 2.203 . S
Cd242 O244 2.411 . S
Cd242 O245 2.333 . S
Cd242 O246 2.352 . S
Cd242 O250 2.277 . S
Cd242 O251 2.356 . S
C243 O248 1.209 . S
C243 O250 1.226 . S
O244 Cd240 2.273 . S
O244 Cd242 2.411 . S
O244 C247 1.320 . S
O245 Cd242 2.333 . S
O245 C247 1.214 . S
O246 Cd242 2.352 . S
O246 C249 1.258 . S
C247 O244 1.320 . S
C247 O245 1.214 . S
O248 Cd240 2.277 . S
O248 C243 1.209 . S
C249 O246 1.258 . S
C249 O251 1.282 . S
O250 Cd242 2.277 . S
O250 C243 1.226 . S
O251 Cd242 2.356 . S
O251 C249 1.282 . S
C252 O253 1.306 . S
C252 O255 1.160 . S
O253 C252 1.306 . S
O253 Cd254 2.228 . S
Cd254 O253 2.228 . S
Cd254 O258 2.273 . S
Cd254 O262 2.277 . S
O255 C252 1.160 . S
O255 Cd256 2.203 . S
Cd256 O255 2.203 . S
Cd256 O258 2.411 . S
Cd256 O259 2.333 . S
Cd256 O260 2.352 . S
Cd256 O264 2.277 . S
Cd256 O265 2.356 . S
C257 O262 1.209 . S
C257 O264 1.226 . S
O258 Cd254 2.273 . S
O258 Cd256 2.411 . S
O258 C261 1.320 . S
O259 Cd256 2.333 . S
O259 C261 1.214 . S
O260 Cd256 2.352 . S
O260 C263 1.258 . S
C261 O258 1.320 . S
C261 O259 1.214 . S
O262 Cd254 2.277 . S
O262 C257 1.209 . S
C263 O260 1.258 . S
C263 O265 1.282 . S
O264 Cd256 2.277 . S
O264 C257 1.226 . S
O265 Cd256 2.356 . S
O265 C263 1.282 . S
C266 O267 1.306 . S
C266 O269 1.153 1_545 S
O267 C266 1.306 . S
O267 Cd268 2.228 . S
Cd268 O267 2.228 . S
Cd268 O272 2.273 1_545 S
Cd268 O276 2.277 . S
O269 C266 1.153 1_565 S
O269 Cd270 2.203 . S
Cd270 O269 2.203 . S
Cd270 O272 2.411 . S
Cd270 O273 2.333 . S
Cd270 O274 2.352 . S
Cd270 O278 2.277 1_565 S
Cd270 O279 2.356 . S
C271 O276 1.209 . S
C271 O278 1.226 . S
O272 Cd268 2.273 1_565 S
O272 Cd270 2.411 . S
O272 C275 1.320 . S
O273 Cd270 2.333 . S
O273 C275 1.214 . S
O274 Cd270 2.352 . S
O274 C277 1.258 . S
C275 O272 1.320 . S
C275 O273 1.214 . S
O276 Cd268 2.277 . S
O276 C271 1.209 . S
C277 O274 1.258 . S
C277 O279 1.282 . S
O278 Cd270 2.277 1_545 S
O278 C271 1.226 . S
O279 Cd270 2.356 . S
O279 C277 1.282 . S
C280 O281 1.306 . S
C280 O283 1.160 . S
O281 C280 1.306 . S
O281 Cd282 2.228 . S
Cd282 O281 2.228 . S
Cd282 O286 2.273 . S
Cd282 O290 2.277 . S
O283 C280 1.160 . S
O283 Cd284 2.203 . S
Cd284 O283 2.203 . S
Cd284 O286 2.411 . S
Cd284 O287 2.333 . S
Cd284 O288 2.352 1_554 S
Cd284 O292 2.277 . S
Cd284 O293 2.356 1_554 S
C285 O290 1.209 . S
C285 O292 1.226 . S
O286 Cd282 2.273 . S
O286 Cd284 2.411 . S
O286 C289 1.320 . S
O287 Cd284 2.333 . S
O287 C289 1.214 . S
O288 Cd284 2.352 1_556 S
O288 C291 1.258 . S
C289 O286 1.320 . S
C289 O287 1.214 . S
O290 Cd282 2.277 . S
O290 C285 1.209 . S
C291 O288 1.258 . S
C291 O293 1.282 . S
O292 Cd284 2.277 . S
O292 C285 1.226 . S
O293 Cd284 2.356 1_556 S
O293 C291 1.282 . S
C294 O295 1.306 . S
C294 O297 1.160 . S
O295 C294 1.306 . S
O295 Cd296 2.228 . S
Cd296 O295 2.228 . S
Cd296 O300 2.273 . S
Cd296 O304 2.277 . S
O297 C294 1.160 . S
O297 Cd298 2.203 . S
Cd298 O297 2.203 . S
Cd298 O300 2.411 . S
Cd298 O301 2.333 . S
Cd298 O302 2.352 . S
Cd298 O306 2.277 . S
Cd298 O307 2.356 . S
C299 O304 1.209 . S
C299 O306 1.226 . S
O300 Cd296 2.273 . S
O300 Cd298 2.411 . S
O300 C303 1.320 . S
O301 Cd298 2.333 . S
O301 C303 1.214 . S
O302 Cd298 2.352 . S
O302 C305 1.258 . S
C303 O300 1.320 . S
C303 O301 1.214 . S
O304 Cd296 2.277 . S
O304 C299 1.209 . S
C305 O302 1.258 . S
C305 O307 1.282 . S
O306 Cd298 2.277 . S
O306 C299 1.226 . S
O307 Cd298 2.356 . S
O307 C305 1.282 . S
C308 O309 1.306 . S
C308 O311 1.160 . S
O309 C308 1.306 . S
O309 Cd310 2.228 . S
Cd310 O309 2.228 . S
Cd310 O314 2.273 . S
Cd310 O318 2.277 . S
O311 C308 1.160 . S
O311 Cd312 2.203 . S
Cd312 O311 2.203 . S
Cd312 O314 2.411 . S
Cd312 O315 2.333 . S
Cd312 O316 2.352 . S
Cd312 O320 2.277 . S
Cd312 O321 2.356 . S
C313 O318 1.209 . S
C313 O320 1.226 . S
O314 Cd310 2.273 . S
O314 Cd312 2.411 . S
O314 C317 1.320 . S
O315 Cd312 2.333 . S
O315 C317 1.214 . S
O316 Cd312 2.352 . S
O316 C319 1.258 . S
C317 O314 1.320 . S
C317 O315 1.214 . S
O318 Cd310 2.277 . S
O318 C313 1.209 . S
C319 O316 1.258 . S
C319 O321 1.282 . S
O320 Cd312 2.277 . S
O320 C313 1.226 . S
O321 Cd312 2.356 . S
O321 C319 1.282 . S
C322 O323 1.306 . S
C322 O325 1.160 . S
O323 C322 1.306 . S
O323 Cd324 2.228 . S
Cd324 O323 2.228 . S
Cd324 O328 2.273 . S
Cd324 O332 2.277 . S
O325 C322 1.160 . S
O325 Cd326 2.203 . S
Cd326 O325 2.203 . S
Cd326 O328 2.411 . S
Cd326 O329 2.333 . S
Cd326 O330 2.352 . S
Cd326 O334 2.277 . S
Cd326 O335 2.356 . S
C327 O332 1.209 . S
C327 O334 1.226 . S
O328 Cd324 2.273 . S
O328 Cd326 2.411 . S
O328 C331 1.320 . S
O329 Cd326 2.333 . S
O329 C331 1.214 . S
O330 Cd326 2.352 . S
O330 C333 1.258 . S
C331 O328 1.320 . S
C331 O329 1.214 . S
O332 Cd324 2.277 . S
O332 C327 1.209 . S
C333 O330 1.258 . S
C333 O335 1.282 . S
O334 Cd326 2.277 . S
O334 C327 1.226 . S
O335 Cd326 2.356 . S
O335 C333 1.282 . S
Pr336 C338 2.880 1_454 S
Pr336 O356 2.562 1_455 S
Pr336 O357 2.490 1_454 S
Pr336 O358 2.695 . S
Pr336 O359 2.512 1_554 S
Pr336 O361 2.437 . S
Pr336 O364 2.436 . S
Pr336 O366 2.438 . S
Pr337 C347 2.880 . S
Pr337 O358 2.436 . S
Pr337 O360 2.438 . S
Pr337 O362 2.562 . S
Pr337 O363 2.490 . S
Pr337 O364 2.695 . S
Pr337 O365 2.512 . S
Pr337 O367 2.437 . S
C338 Pr336 2.880 1_656 S
C338 C339 1.491 . S
C338 O356 1.254 1_556 S
C338 O357 1.225 . S
C339 C338 1.491 . S
C339 C340 1.392 . S
C339 C344 1.356 1_556 S
C340 C339 1.392 . S
C340 C341 1.368 . S
C340 H368 0.929 . S
C341 C340 1.368 . S
C341 C342 1.386 . S
C341 H369 0.929 . S
C342 C341 1.386 . S
C342 C343 1.373 . S
C343 C342 1.373 . S
C343 C344 1.409 1_556 S
C343 H370 0.931 1_556 S
C344 C339 1.356 1_554 S
C344 C343 1.409 1_554 S
C344 H371 0.930 . S
C345 O358 1.270 1_556 S
C345 O359 1.248 . S
C346 O360 1.267 . S
C346 O361 1.278 . S
C347 Pr337 2.880 . S
C347 C348 1.491 . S
C347 O362 1.254 . S
C347 O363 1.225 . S
C348 C347 1.491 . S
C348 C349 1.392 . S
C348 C353 1.356 . S
C349 C348 1.392 . S
C349 C350 1.368 . S
C349 H372 0.929 . S
C350 C349 1.368 . S
C350 C351 1.386 . S
C350 H373 0.929 . S
C351 C350 1.386 . S
C351 C352 1.373 . S
C352 C351 1.373 . S
C352 C353 1.409 . S
C352 H374 0.931 . S
C353 C348 1.356 . S
C353 C352 1.409 . S
C353 H375 0.930 . S
C354 O364 1.270 . S
C354 O365 1.248 . S
C355 O366 1.267 . S
C355 O367 1.278 . S
O356 Pr336 2.562 1_655 S
O356 C338 1.254 1_554 S
O357 Pr336 2.490 1_656 S
O357 C338 1.225 . S
O358 Pr336 2.695 . S
O358 Pr337 2.436 . S
O358 C345 1.270 1_554 S
O359 Pr336 2.512 1_556 S
O359 C345 1.248 . S
O360 Pr337 2.438 . S
O360 C346 1.267 . S
O361 Pr336 2.437 . S
O361 C346 1.278 . S
O362 Pr337 2.562 . S
O362 C347 1.254 . S
O363 Pr337 2.490 . S
O363 C347 1.225 . S
O364 Pr336 2.436 . S
O364 Pr337 2.695 . S
O364 C354 1.270 . S
O365 Pr337 2.512 . S
O365 C354 1.248 . S
O366 Pr336 2.438 . S
O366 C355 1.267 . S
O367 Pr337 2.437 . S
O367 C355 1.278 . S
H368 C340 0.929 . S
H369 C341 0.929 . S
H370 C343 0.931 1_554 S
H371 C344 0.930 . S
H372 C349 0.929 . S
H373 C350 0.929 . S
H374 C352 0.931 . S
H375 C353 0.930 . S
Pr376 C378 2.880 . S
Pr376 O396 2.562 . S
Pr376 O397 2.490 . S
Pr376 O398 2.695 . S
Pr376 O399 2.512 . S
Pr376 O401 2.437 . S
Pr376 O404 2.436 . S
Pr376 O406 2.438 . S
Pr377 C387 2.880 . S
Pr377 O398 2.436 . S
Pr377 O400 2.438 . S
Pr377 O402 2.562 . S
Pr377 O403 2.490 . S
Pr377 O404 2.695 . S
Pr377 O405 2.512 . S
Pr377 O407 2.437 . S
C378 Pr376 2.880 . S
C378 C379 1.491 . S
C378 O396 1.254 . S
C378 O397 1.225 . S
C379 C378 1.491 . S
C379 C380 1.392 . S
C379 C384 1.356 . S
C380 C379 1.392 . S
C380 C381 1.368 . S
C380 H408 0.929 . S
C381 C380 1.368 . S
C381 C382 1.386 . S
C381 H409 0.929 . S
C382 C381 1.386 . S
C382 C383 1.373 . S
C383 C382 1.373 . S
C383 C384 1.409 . S
C383 H410 0.931 . S
C384 C379 1.356 . S
C384 C383 1.409 . S
C384 H411 0.930 . S
C385 O398 1.270 . S
C385 O399 1.248 . S
C386 O400 1.267 . S
C386 O401 1.278 . S
C387 Pr377 2.880 . S
C387 C388 1.491 . S
C387 O402 1.254 . S
C387 O403 1.225 . S
C388 C387 1.491 . S
C388 C389 1.392 . S
C388 C393 1.356 . S
C389 C388 1.392 . S
C389 C390 1.368 . S
C389 H412 0.929 . S
C390 C389 1.368 . S
C390 C391 1.386 . S
C390 H413 0.929 . S
C391 C390 1.386 . S
C391 C392 1.373 . S
C392 C391 1.373 . S
C392 C393 1.409 . S
C392 H414 0.931 . S
C393 C388 1.356 . S
C393 C392 1.409 . S
C393 H415 0.930 . S
C394 O404 1.270 . S
C394 O405 1.248 . S
C395 O406 1.267 . S
C395 O407 1.278 . S
O396 Pr376 2.562 . S
O396 C378 1.254 . S
O397 Pr376 2.490 . S
O397 C378 1.225 . S
O398 Pr376 2.695 . S
O398 Pr377 2.436 . S
O398 C385 1.270 . S
O399 Pr376 2.512 . S
O399 C385 1.248 . S
O400 Pr377 2.438 . S
O400 C386 1.267 . S
O401 Pr376 2.437 . S
O401 C386 1.278 . S
O402 Pr377 2.562 . S
O402 C387 1.254 . S
O403 Pr377 2.490 . S
O403 C387 1.225 . S
O404 Pr376 2.436 . S
O404 Pr377 2.695 . S
O404 C394 1.270 . S
O405 Pr377 2.512 . S
O405 C394 1.248 . S
O406 Pr376 2.438 . S
O406 C395 1.267 . S
O407 Pr377 2.437 . S
O407 C395 1.278 . S
H408 C380 0.929 . S
H409 C381 0.929 . S
H410 C383 0.931 . S
H411 C384 0.930 . S
H412 C389 0.929 . S
H413 C390 0.929 . S
H414 C392 0.931 . S
H415 C393 0.930 . S
Pr416 C418 2.880 . S
Pr416 O436 2.562 . S
Pr416 O437 2.490 . S
Pr416 O438 2.695 . S
Pr416 O439 2.512 . S
Pr416 O441 2.437 . S
Pr416 O444 2.436 . S
Pr416 O446 2.438 . S
Pr417 C427 2.880 . S
Pr417 O438 2.436 . S
Pr417 O440 2.438 . S
Pr417 O442 2.562 . S
Pr417 O443 2.490 . S
Pr417 O444 2.695 . S
Pr417 O445 2.512 . S
Pr417 O447 2.437 . S
C418 Pr416 2.880 . S
C418 C419 1.491 . S
C418 O436 1.254 . S
C418 O437 1.225 . S
C419 C418 1.491 . S
C419 C420 1.392 . S
C419 C424 1.356 . S
C420 C419 1.392 . S
C420 C421 1.368 . S
C420 H448 0.929 . S
C421 C420 1.368 . S
C421 C422 1.386 . S
C421 H449 0.929 . S
C422 C421 1.386 . S
C422 C423 1.373 . S
C423 C422 1.373 . S
C423 C424 1.409 . S
C423 H450 0.931 1_545 S
C424 C419 1.356 . S
C424 C423 1.409 . S
C424 H451 0.930 . S
C425 O438 1.270 . S
C425 O439 1.248 . S
C426 O440 1.267 . S
C426 O441 1.278 . S
C427 Pr417 2.880 . S
C427 C428 1.491 . S
C427 O442 1.254 . S
C427 O443 1.225 . S
C428 C427 1.491 . S
C428 C429 1.392 . S
C428 C433 1.356 . S
C429 C428 1.392 . S
C429 C430 1.368 . S
C429 H452 0.929 . S
C430 C429 1.368 . S
C430 C431 1.386 . S
C430 H453 0.929 . S
C431 C430 1.386 . S
C431 C432 1.373 . S
C432 C431 1.373 . S
C432 C433 1.409 . S
C432 H454 0.931 . S
C433 C428 1.356 . S
C433 C432 1.409 . S
C433 H455 0.930 . S
C434 O444 1.270 . S
C434 O445 1.248 . S
C435 O446 1.267 . S
C435 O447 1.278 . S
O436 Pr416 2.562 . S
O436 C418 1.254 . S
O437 Pr416 2.490 . S
O437 C418 1.225 . S
O438 Pr416 2.695 . S
O438 Pr417 2.436 . S
O438 C425 1.270 . S
O439 Pr416 2.512 . S
O439 C425 1.248 . S
O440 Pr417 2.438 . S
O440 C426 1.267 . S
O441 Pr416 2.437 . S
O441 C426 1.278 . S
O442 Pr417 2.562 . S
O442 C427 1.254 . S
O443 Pr417 2.490 . S
O443 C427 1.225 . S
O444 Pr416 2.436 . S
O444 Pr417 2.695 . S
O444 C434 1.270 . S
O445 Pr417 2.512 . S
O445 C434 1.248 . S
O446 Pr416 2.438 . S
O446 C435 1.267 . S
O447 Pr417 2.437 . S
O447 C435 1.278 . S
H448 C420 0.929 . S
H449 C421 0.929 . S
H450 C423 0.931 1_565 S
H451 C424 0.930 . S
H452 C429 0.929 . S
H453 C430 0.929 . S
H454 C432 0.931 . S
H455 C433 0.930 . S
Pr456 C458 2.880 . S
Pr456 O476 2.562 . S
Pr456 O477 2.490 . S
Pr456 O478 2.695 . S
Pr456 O479 2.512 . S
Pr456 O481 2.437 . S
Pr456 O484 2.436 . S
Pr456 O486 2.438 . S
Pr457 C467 2.880 . S
Pr457 O478 2.436 . S
Pr457 O480 2.438 . S
Pr457 O482 2.562 . S
Pr457 O483 2.490 . S
Pr457 O484 2.695 . S
Pr457 O485 2.512 . S
Pr457 O487 2.437 . S
C458 Pr456 2.880 . S
C458 C459 1.491 . S
C458 O476 1.254 . S
C458 O477 1.225 . S
C459 C458 1.491 . S
C459 C460 1.392 . S
C459 C464 1.356 . S
C460 C459 1.392 . S
C460 C461 1.368 . S
C460 H488 0.929 . S
C461 C460 1.368 . S
C461 C462 1.386 . S
C461 H489 0.929 . S
C462 C461 1.386 . S
C462 C463 1.373 . S
C463 C462 1.373 . S
C463 C464 1.409 . S
C463 H490 0.931 . S
C464 C459 1.356 . S
C464 C463 1.409 . S
C464 H491 0.930 . S
C465 O478 1.270 . S
C465 O479 1.248 . S
C466 O480 1.267 . S
C466 O481 1.278 . S
C467 Pr457 2.880 . S
C467 C468 1.491 . S
C467 O482 1.254 . S
C467 O483 1.225 . S
C468 C467 1.491 . S
C468 C469 1.392 . S
C468 C473 1.356 . S
C469 C468 1.392 . S
C469 C470 1.368 . S
C469 H492 0.929 . S
C470 C469 1.368 . S
C470 C471 1.386 . S
C470 H493 0.929 . S
C471 C470 1.386 . S
C471 C472 1.373 . S
C472 C471 1.373 . S
C472 C473 1.409 . S
C472 H494 0.931 . S
C473 C468 1.356 . S
C473 C472 1.409 . S
C473 H495 0.930 . S
C474 O484 1.270 . S
C474 O485 1.248 . S
C475 O486 1.267 . S
C475 O487 1.278 . S
O476 Pr456 2.562 . S
O476 C458 1.254 . S
O477 Pr456 2.490 . S
O477 C458 1.225 . S
O478 Pr456 2.695 . S
O478 Pr457 2.436 . S
O478 C465 1.270 . S
O479 Pr456 2.512 . S
O479 C465 1.248 . S
O480 Pr457 2.438 . S
O480 C466 1.267 . S
O481 Pr456 2.437 . S
O481 C466 1.278 . S
O482 Pr457 2.562 . S
O482 C467 1.254 . S
O483 Pr457 2.490 . S
O483 C467 1.225 . S
O484 Pr456 2.436 . S
O484 Pr457 2.695 . S
O484 C474 1.270 . S
O485 Pr457 2.512 . S
O485 C474 1.248 . S
O486 Pr456 2.438 . S
O486 C475 1.267 . S
O487 Pr457 2.437 . S
O487 C475 1.278 . S
H488 C460 0.929 . S
H489 C461 0.929 . S
H490 C463 0.931 . S
H491 C464 0.930 . S
H492 C469 0.929 . S
H493 C470 0.929 . S
H494 C472 0.931 . S
H495 C473 0.930 . S
Pr496 C498 2.880 . S
Pr496 O516 2.562 . S
Pr496 O517 2.490 . S
Pr496 O518 2.695 . S
Pr496 O519 2.512 . S
Pr496 O521 2.437 . S
Pr496 O524 2.436 . S
Pr496 O526 2.438 . S
Pr497 C507 2.880 . S
Pr497 O518 2.436 . S
Pr497 O520 2.438 . S
Pr497 O522 2.562 . S
Pr497 O523 2.490 . S
Pr497 O524 2.695 . S
Pr497 O525 2.512 . S
Pr497 O527 2.437 . S
C498 Pr496 2.880 . S
C498 C499 1.491 . S
C498 O516 1.254 . S
C498 O517 1.225 . S
C499 C498 1.491 . S
C499 C500 1.392 . S
C499 C504 1.356 1_455 S
C500 C499 1.392 . S
C500 C501 1.368 . S
C500 H528 0.929 . S
C501 C500 1.368 . S
C501 C502 1.406 . S
C501 H529 0.929 . S
C502 C501 1.406 . S
C502 C503 1.358 1_455 S
C503 C502 1.358 1_655 S
C503 C504 1.409 . S
C503 H530 0.931 . S
C504 C499 1.356 1_655 S
C504 C503 1.409 . S
C504 H531 0.930 . S
C505 O518 1.270 . S
C505 O519 1.248 . S
C506 O520 1.267 . S
C506 O521 1.278 . S
C507 Pr497 2.880 . S
C507 C508 1.491 . S
C507 O522 1.254 . S
C507 O523 1.225 . S
C508 C507 1.491 . S
C508 C509 1.392 . S
C508 C513 1.356 . S
C509 C508 1.392 . S
C509 C510 1.368 . S
C509 H532 0.929 . S
C510 C509 1.368 . S
C510 C511 1.386 . S
C510 H533 0.929 . S
C511 C510 1.386 . S
C511 C512 1.373 . S
C512 C511 1.373 . S
C512 C513 1.409 . S
C512 H534 0.931 . S
C513 C508 1.356 . S
C513 C512 1.409 . S
C513 H535 0.930 . S
C514 O524 1.270 . S
C514 O525 1.248 . S
C515 O526 1.267 . S
C515 O527 1.278 . S
O516 Pr496 2.562 . S
O516 C498 1.254 . S
O517 Pr496 2.490 . S
O517 C498 1.225 . S
O518 Pr496 2.695 . S
O518 Pr497 2.436 . S
O518 C505 1.270 . S
O519 Pr496 2.512 . S
O519 C505 1.248 . S
O520 Pr497 2.438 . S
O520 C506 1.267 . S
O521 Pr496 2.437 . S
O521 C506 1.278 . S
O522 Pr497 2.562 . S
O522 C507 1.254 . S
O523 Pr497 2.490 . S
O523 C507 1.225 . S
O524 Pr496 2.436 . S
O524 Pr497 2.695 . S
O524 C514 1.270 . S
O525 Pr497 2.512 . S
O525 C514 1.248 . S
O526 Pr496 2.438 . S
O526 C515 1.267 . S
O527 Pr497 2.437 . S
O527 C515 1.278 . S
H528 C500 0.929 . S
H529 C501 0.929 . S
H530 C503 0.931 . S
H531 C504 0.930 . S
H532 C509 0.929 . S
H533 C510 0.929 . S
H534 C512 0.931 . S
H535 C513 0.930 . S
Pr536 C538 2.880 . S
Pr536 O556 2.562 . S
Pr536 O557 2.490 . S
Pr536 O558 2.695 . S
Pr536 O559 2.512 . S
Pr536 O561 2.437 . S
Pr536 O564 2.436 . S
Pr536 O566 2.438 . S
Pr537 C547 2.880 . S
Pr537 O558 2.436 . S
Pr537 O560 2.438 . S
Pr537 O562 2.562 . S
Pr537 O563 2.490 . S
Pr537 O564 2.695 . S
Pr537 O565 2.512 . S
Pr537 O567 2.437 . S
C538 Pr536 2.880 . S
C538 C539 1.491 . S
C538 O556 1.254 . S
C538 O557 1.225 . S
C539 C538 1.491 . S
C539 C540 1.392 . S
C539 C544 1.356 . S
C540 C539 1.392 . S
C540 C541 1.368 . S
C540 H568 0.929 . S
C541 C540 1.368 . S
C541 C542 1.386 . S
C541 H569 0.929 . S
C542 C541 1.386 . S
C542 C543 1.373 . S
C543 C542 1.373 . S
C543 C544 1.409 . S
C543 H570 0.931 . S
C544 C539 1.356 . S
C544 C543 1.409 . S
C544 H571 0.930 . S
C545 O558 1.270 . S
C545 O559 1.248 . S
C546 O560 1.267 . S
C546 O561 1.278 . S
C547 Pr537 2.880 . S
C547 C548 1.491 . S
C547 O562 1.254 . S
C547 O563 1.225 . S
C548 C547 1.491 . S
C548 C549 1.392 . S
C548 C553 1.356 . S
C549 C548 1.392 . S
C549 C550 1.368 . S
C549 H572 0.929 . S
C550 C549 1.368 . S
C550 C551 1.386 . S
C550 H573 0.929 . S
C551 C550 1.386 . S
C551 C552 1.373 . S
C552 C551 1.373 . S
C552 C553 1.409 . S
C552 H574 0.931 . S
C553 C548 1.356 . S
C553 C552 1.409 . S
C553 H575 0.930 . S
C554 O564 1.270 . S
C554 O565 1.248 . S
C555 O566 1.267 . S
C555 O567 1.278 . S
O556 Pr536 2.562 . S
O556 C538 1.254 . S
O557 Pr536 2.490 . S
O557 C538 1.225 . S
O558 Pr536 2.695 . S
O558 Pr537 2.436 . S
O558 C545 1.270 . S
O559 Pr536 2.512 . S
O559 C545 1.248 . S
O560 Pr537 2.438 . S
O560 C546 1.267 . S
O561 Pr536 2.437 . S
O561 C546 1.278 . S
O562 Pr537 2.562 . S
O562 C547 1.254 . S
O563 Pr537 2.490 . S
O563 C547 1.225 . S
O564 Pr536 2.436 . S
O564 Pr537 2.695 . S
O564 C554 1.270 . S
O565 Pr537 2.512 . S
O565 C554 1.248 . S
O566 Pr536 2.438 . S
O566 C555 1.267 . S
O567 Pr537 2.437 . S
O567 C555 1.278 . S
H568 C540 0.929 . S
H569 C541 0.929 . S
H570 C543 0.931 . S
H571 C544 0.930 . S
H572 C549 0.929 . S
H573 C550 0.929 . S
H574 C552 0.931 . S
H575 C553 0.930 . S
Pr576 C578 2.880 . S
Pr576 O596 2.562 . S
Pr576 O597 2.490 . S
Pr576 O598 2.695 . S
Pr576 O599 2.512 . S
Pr576 O601 2.437 . S
Pr576 O604 2.436 . S
Pr576 O606 2.438 . S
Pr577 C587 2.880 . S
Pr577 O598 2.436 1_556 S
Pr577 O600 2.438 1_556 S
Pr577 O602 2.562 . S
Pr577 O603 2.490 . S
Pr577 O604 2.695 1_556 S
Pr577 O605 2.512 1_556 S
Pr577 O607 2.437 1_556 S
C578 Pr576 2.880 . S
C578 C579 1.491 . S
C578 O596 1.254 . S
C578 O597 1.225 . S
C579 C578 1.491 . S
C579 C580 1.392 . S
C579 C584 1.356 . S
C580 C579 1.392 . S
C580 C581 1.368 . S
C580 H608 0.929 . S
C581 C580 1.368 . S
C581 C582 1.386 . S
C581 H609 0.929 . S
C582 C581 1.386 . S
C582 C583 1.373 . S
C583 C582 1.373 . S
C583 C584 1.409 . S
C583 H610 0.931 . S
C584 C579 1.356 . S
C584 C583 1.409 . S
C584 H611 0.930 . S
C585 O598 1.270 . S
C585 O599 1.248 . S
C586 O600 1.267 . S
C586 O601 1.278 . S
C587 Pr577 2.880 . S
C587 C588 1.491 . S
C587 O602 1.254 . S
C587 O603 1.225 . S
C588 C587 1.491 . S
C588 C589 1.392 . S
C588 C593 1.356 . S
C589 C588 1.392 . S
C589 C590 1.368 . S
C589 H612 0.929 . S
C590 C589 1.368 . S
C590 C591 1.386 . S
C590 H613 0.929 . S
C591 C590 1.386 . S
C591 C592 1.373 . S
C592 C591 1.373 . S
C592 C593 1.409 . S
C592 H614 0.931 . S
C593 C588 1.356 . S
C593 C592 1.409 . S
C593 H615 0.930 . S
C594 O604 1.270 . S
C594 O605 1.248 . S
C595 O606 1.267 . S
C595 O607 1.278 . S
O596 Pr576 2.562 . S
O596 C578 1.254 . S
O597 Pr576 2.490 . S
O597 C578 1.225 . S
O598 Pr576 2.695 . S
O598 Pr577 2.436 1_554 S
O598 C585 1.270 . S
O599 Pr576 2.512 . S
O599 C585 1.248 . S
O600 Pr577 2.438 1_554 S
O600 C586 1.267 . S
O601 Pr576 2.437 . S
O601 C586 1.278 . S
O602 Pr577 2.562 . S
O602 C587 1.254 . S
O603 Pr577 2.490 . S
O603 C587 1.225 . S
O604 Pr576 2.436 . S
O604 Pr577 2.695 1_554 S
O604 C594 1.270 . S
O605 Pr577 2.512 1_554 S
O605 C594 1.248 . S
O606 Pr576 2.438 . S
O606 C595 1.267 . S
O607 Pr577 2.437 1_554 S
O607 C595 1.278 . S
H608 C580 0.929 . S
H609 C581 0.929 . S
H610 C583 0.931 . S
H611 C584 0.930 . S
H612 C589 0.929 . S
H613 C590 0.929 . S
H614 C592 0.931 . S
H615 C593 0.930 . S
Pr616 C618 2.880 . S
Pr616 O636 2.562 . S
Pr616 O637 2.490 . S
Pr616 O638 2.695 . S
Pr616 O639 2.512 . S
Pr616 O641 2.437 . S
Pr616 O644 2.436 . S
Pr616 O646 2.438 . S
Pr617 C627 2.880 . S
Pr617 O638 2.436 . S
Pr617 O640 2.438 . S
Pr617 O642 2.562 . S
Pr617 O643 2.490 . S
Pr617 O644 2.695 . S
Pr617 O645 2.512 . S
Pr617 O647 2.437 . S
C618 Pr616 2.880 . S
C618 C619 1.491 . S
C618 O636 1.254 . S
C618 O637 1.225 . S
C619 C618 1.491 . S
C619 C620 1.392 . S
C619 C624 1.356 . S
C620 C619 1.392 . S
C620 C621 1.368 . S
C620 H648 0.929 . S
C621 C620 1.368 . S
C621 C622 1.386 . S
C621 H649 0.929 . S
C622 C621 1.386 . S
C622 C623 1.373 . S
C623 C622 1.373 . S
C623 C624 1.409 . S
C623 H650 0.931 . S
C624 C619 1.356 . S
C624 C623 1.409 . S
C624 H651 0.930 . S
C625 O638 1.270 . S
C625 O639 1.248 . S
C626 O640 1.267 . S
C626 O641 1.278 . S
C627 Pr617 2.880 . S
C627 C628 1.491 . S
C627 O642 1.254 . S
C627 O643 1.225 . S
C628 C627 1.491 . S
C628 C629 1.392 . S
C628 C633 1.356 . S
C629 C628 1.392 . S
C629 C630 1.368 . S
C629 H652 0.929 . S
C630 C629 1.368 . S
C630 C631 1.386 . S
C630 H653 0.929 . S
C631 C630 1.386 . S
C631 C632 1.373 . S
C632 C631 1.373 . S
C632 C633 1.409 . S
C632 H654 0.931 . S
C633 C628 1.356 . S
C633 C632 1.409 . S
C633 H655 0.930 . S
C634 O644 1.270 . S
C634 O645 1.248 . S
C635 O646 1.267 . S
C635 O647 1.278 . S
O636 Pr616 2.562 . S
O636 C618 1.254 . S
O637 Pr616 2.490 . S
O637 C618 1.225 . S
O638 Pr616 2.695 . S
O638 Pr617 2.436 . S
O638 C625 1.270 . S
O639 Pr616 2.512 . S
O639 C625 1.248 . S
O640 Pr617 2.438 . S
O640 C626 1.267 . S
O641 Pr616 2.437 . S
O641 C626 1.278 . S
O642 Pr617 2.562 . S
O642 C627 1.254 . S
O643 Pr617 2.490 . S
O643 C627 1.225 . S
O644 Pr616 2.436 . S
O644 Pr617 2.695 . S
O644 C634 1.270 . S
O645 Pr617 2.512 . S
O645 C634 1.248 . S
O646 Pr616 2.438 . S
O646 C635 1.267 . S
O647 Pr617 2.437 . S
O647 C635 1.278 . S
H648 C620 0.929 . S
H649 C621 0.929 . S
H650 C623 0.931 . S
H651 C624 0.930 . S
H652 C629 0.929 . S
H653 C630 0.929 . S
H654 C632 0.931 . S
H655 C633 0.930 . S
Pr656 C658 2.880 . S
Pr656 O676 2.562 . S
Pr656 O677 2.490 . S
Pr656 O678 2.695 1_556 S
Pr656 O679 2.512 . S
Pr656 O681 2.437 . S
Pr656 O684 2.436 1_556 S
Pr656 O686 2.438 1_556 S
Pr657 C667 2.880 . S
Pr657 O678 2.436 . S
Pr657 O680 2.438 . S
Pr657 O682 2.562 . S
Pr657 O683 2.490 . S
Pr657 O684 2.695 . S
Pr657 O685 2.512 . S
Pr657 O687 2.437 . S
C658 Pr656 2.880 . S
C658 C659 1.491 . S
C658 O676 1.254 . S
C658 O677 1.225 . S
C659 C658 1.491 . S
C659 C660 1.392 . S
C659 C664 1.356 . S
C660 C659 1.392 . S
C660 C661 1.368 . S
C660 H688 0.929 . S
C661 C660 1.368 . S
C661 C662 1.386 . S
C661 H689 0.929 . S
C662 C661 1.386 . S
C662 C663 1.373 . S
C663 C662 1.373 . S
C663 C664 1.409 . S
C663 H690 0.931 . S
C664 C659 1.356 . S
C664 C663 1.409 . S
C664 H691 0.930 . S
C665 O678 1.270 . S
C665 O679 1.248 1_554 S
C666 O680 1.267 . S
C666 O681 1.278 1_554 S
C667 Pr657 2.880 . S
C667 C668 1.491 . S
C667 O682 1.254 . S
C667 O683 1.225 . S
C668 C667 1.491 . S
C668 C669 1.392 . S
C668 C673 1.356 . S
C669 C668 1.392 . S
C669 C670 1.368 . S
C669 H692 0.929 . S
C670 C669 1.368 . S
C670 C671 1.386 . S
C670 H693 0.929 . S
C671 C670 1.386 . S
C671 C672 1.373 . S
C672 C671 1.373 . S
C672 C673 1.409 . S
C672 H694 0.931 . S
C673 C668 1.356 . S
C673 C672 1.409 . S
C673 H695 0.930 . S
C674 O684 1.270 . S
C674 O685 1.248 . S
C675 O686 1.267 . S
C675 O687 1.278 . S
O676 Pr656 2.562 . S
O676 C658 1.254 . S
O677 Pr656 2.490 . S
O677 C658 1.225 . S
O678 Pr656 2.695 1_554 S
O678 Pr657 2.436 . S
O678 C665 1.270 . S
O679 Pr656 2.512 . S
O679 C665 1.248 1_556 S
O680 Pr657 2.438 . S
O680 C666 1.267 . S
O681 Pr656 2.437 . S
O681 C666 1.278 1_556 S
O682 Pr657 2.562 . S
O682 C667 1.254 . S
O683 Pr657 2.490 . S
O683 C667 1.225 . S
O684 Pr656 2.436 1_554 S
O684 Pr657 2.695 . S
O684 C674 1.270 . S
O685 Pr657 2.512 . S
O685 C674 1.248 . S
O686 Pr656 2.438 1_554 S
O686 C675 1.267 . S
O687 Pr657 2.437 . S
O687 C675 1.278 . S
H688 C660 0.929 . S
H689 C661 0.929 . S
H690 C663 0.931 . S
H691 C664 0.930 . S
H692 C669 0.929 . S
H693 C670 0.929 . S
H694 C672 0.931 . S
H695 C673 0.930 . S
Pr696 C698 2.880 . S
Pr696 O716 2.562 . S
Pr696 O717 2.490 . S
Pr696 O718 2.695 . S
Pr696 O719 2.512 . S
Pr696 O721 2.437 . S
Pr696 O724 2.436 . S
Pr696 O726 2.438 . S
Pr697 C707 2.880 . S
Pr697 O718 2.436 . S
Pr697 O720 2.438 . S
Pr697 O722 2.562 . S
Pr697 O723 2.490 . S
Pr697 O724 2.695 . S
Pr697 O725 2.512 . S
Pr697 O727 2.437 . S
C698 Pr696 2.880 . S
C698 C699 1.491 . S
C698 O716 1.254 . S
C698 O717 1.225 . S
C699 C698 1.491 . S
C699 C700 1.392 . S
C699 C704 1.356 . S
C700 C699 1.392 . S
C700 C701 1.368 . S
C700 H728 0.929 . S
C701 C700 1.368 . S
C701 C702 1.386 . S
C701 H729 0.929 . S
C702 C701 1.386 . S
C702 C703 1.373 . S
C703 C702 1.373 . S
C703 C704 1.409 . S
C703 H730 0.931 . S
C704 C699 1.356 . S
C704 C703 1.409 . S
C704 H731 0.930 . S
C705 O718 1.270 . S
C705 O719 1.248 . S
C706 O720 1.267 . S
C706 O721 1.278 . S
C707 Pr697 2.880 . S
C707 C708 1.491 . S
C707 O722 1.254 . S
C707 O723 1.225 . S
C708 C707 1.491 . S
C708 C709 1.392 . S
C708 C713 1.356 . S
C709 C708 1.392 . S
C709 C710 1.368 . S
C709 H732 0.929 . S
C710 C709 1.368 . S
C710 C711 1.386 . S
C710 H733 0.929 . S
C711 C710 1.386 . S
C711 C712 1.373 . S
C712 C711 1.373 . S
C712 C713 1.409 . S
C712 H734 0.931 . S
C713 C708 1.356 . S
C713 C712 1.409 . S
C713 H735 0.930 . S
C714 O724 1.270 . S
C714 O725 1.248 . S
C715 O726 1.267 . S
C715 O727 1.278 . S
O716 Pr696 2.562 . S
O716 C698 1.254 . S
O717 Pr696 2.490 . S
O717 C698 1.225 . S
O718 Pr696 2.695 . S
O718 Pr697 2.436 . S
O718 C705 1.270 . S
O719 Pr696 2.512 . S
O719 C705 1.248 . S
O720 Pr697 2.438 . S
O720 C706 1.267 . S
O721 Pr696 2.437 . S
O721 C706 1.278 . S
O722 Pr697 2.562 . S
O722 C707 1.254 . S
O723 Pr697 2.490 . S
O723 C707 1.225 . S
O724 Pr696 2.436 . S
O724 Pr697 2.695 . S
O724 C714 1.270 . S
O725 Pr697 2.512 . S
O725 C714 1.248 . S
O726 Pr696 2.438 . S
O726 C715 1.267 . S
O727 Pr697 2.437 . S
O727 C715 1.278 . S
H728 C700 0.929 . S
H729 C701 0.929 . S
H730 C703 0.931 . S
H731 C704 0.930 . S
H732 C709 0.929 . S
H733 C710 0.929 . S
H734 C712 0.931 . S
H735 C713 0.930 . S
Pr736 C738 2.880 . S
Pr736 O756 2.562 . S
Pr736 O757 2.490 . S
Pr736 O758 2.695 . S
Pr736 O759 2.512 . S
Pr736 O761 2.437 . S
Pr736 O764 2.436 . S
Pr736 O766 2.438 . S
Pr737 C747 2.880 . S
Pr737 O758 2.436 . S
Pr737 O760 2.438 . S
Pr737 O762 2.562 . S
Pr737 O763 2.490 . S
Pr737 O764 2.695 . S
Pr737 O765 2.512 . S
Pr737 O767 2.437 . S
C738 Pr736 2.880 . S
C738 C739 1.491 . S
C738 O756 1.254 . S
C738 O757 1.225 . S
C739 C738 1.491 . S
C739 C740 1.392 . S
C739 C744 1.356 . S
C740 C739 1.392 . S
C740 C741 1.368 . S
C740 H768 0.929 . S
C741 C740 1.368 . S
C741 C742 1.386 . S
C741 H769 0.929 . S
C742 C741 1.386 . S
C742 C743 1.373 . S
C743 C742 1.373 . S
C743 C744 1.409 . S
C743 H770 0.931 1_455 S
C744 C739 1.356 . S
C744 C743 1.409 . S
C744 H771 0.930 . S
C745 O758 1.270 . S
C745 O759 1.248 . S
C746 O760 1.267 . S
C746 O761 1.278 . S
C747 Pr737 2.880 . S
C747 C748 1.491 . S
C747 O762 1.254 . S
C747 O763 1.225 . S
C748 C747 1.491 . S
C748 C749 1.392 . S
C748 C753 1.356 . S
C749 C748 1.392 . S
C749 C750 1.368 . S
C749 H772 0.929 . S
C750 C749 1.368 . S
C750 C751 1.386 . S
C750 H773 0.929 . S
C751 C750 1.386 . S
C751 C752 1.373 . S
C752 C751 1.373 . S
C752 C753 1.409 . S
C752 H774 0.931 . S
C753 C748 1.356 . S
C753 C752 1.409 . S
C753 H775 0.930 . S
C754 O764 1.270 . S
C754 O765 1.248 . S
C755 O766 1.267 . S
C755 O767 1.278 . S
O756 Pr736 2.562 . S
O756 C738 1.254 . S
O757 Pr736 2.490 . S
O757 C738 1.225 . S
O758 Pr736 2.695 . S
O758 Pr737 2.436 . S
O758 C745 1.270 . S
O759 Pr736 2.512 . S
O759 C745 1.248 . S
O760 Pr737 2.438 . S
O760 C746 1.267 . S
O761 Pr736 2.437 . S
O761 C746 1.278 . S
O762 Pr737 2.562 . S
O762 C747 1.254 . S
O763 Pr737 2.490 . S
O763 C747 1.225 . S
O764 Pr736 2.436 . S
O764 Pr737 2.695 . S
O764 C754 1.270 . S
O765 Pr737 2.512 . S
O765 C754 1.248 . S
O766 Pr736 2.438 . S
O766 C755 1.267 . S
O767 Pr737 2.437 . S
O767 C755 1.278 . S
H768 C740 0.929 . S
H769 C741 0.929 . S
H770 C743 0.931 1_655 S
H771 C744 0.930 . S
H772 C749 0.929 . S
H773 C750 0.929 . S
H774 C752 0.931 . S
H775 C753 0.930 . S
Pr776 C778 2.880 . S
Pr776 O796 2.562 . S
Pr776 O797 2.490 . S
Pr776 O798 2.695 . S
Pr776 O799 2.512 . S
Pr776 O801 2.437 . S
Pr776 O804 2.436 . S
Pr776 O806 2.438 . S
Pr777 C787 2.880 . S
Pr777 O798 2.436 . S
Pr777 O800 2.438 . S
Pr777 O802 2.562 . S
Pr777 O803 2.490 . S
Pr777 O804 2.695 . S
Pr777 O805 2.512 . S
Pr777 O807 2.437 . S
C778 Pr776 2.880 . S
C778 C779 1.491 . S
C778 O796 1.254 . S
C778 O797 1.225 . S
C779 C778 1.491 . S
C779 C780 1.392 . S
C779 C784 1.356 . S
C780 C779 1.392 . S
C780 C781 1.368 . S
C780 H808 0.929 . S
C781 C780 1.368 . S
C781 C782 1.386 . S
C781 H809 0.929 . S
C782 C781 1.386 . S
C782 C783 1.373 . S
C783 C782 1.373 . S
C783 C784 1.409 . S
C783 H810 0.931 . S
C784 C779 1.356 . S
C784 C783 1.409 . S
C784 H811 0.930 . S
C785 O798 1.270 . S
C785 O799 1.248 . S
C786 O800 1.267 . S
C786 O801 1.278 . S
C787 Pr777 2.880 . S
C787 C788 1.491 . S
C787 O802 1.254 . S
C787 O803 1.225 . S
C788 C787 1.491 . S
C788 C789 1.392 . S
C788 C793 1.356 . S
C789 C788 1.392 . S
C789 C790 1.368 . S
C789 H812 0.929 . S
C790 C789 1.368 . S
C790 C791 1.386 . S
C790 H813 0.929 . S
C791 C790 1.386 . S
C791 C792 1.373 . S
C792 C791 1.373 . S
C792 C793 1.409 . S
C792 H814 0.931 . S
C793 C788 1.356 . S
C793 C792 1.409 . S
C793 H815 0.930 . S
C794 O804 1.270 . S
C794 O805 1.248 . S
C795 O806 1.267 . S
C795 O807 1.278 . S
O796 Pr776 2.562 . S
O796 C778 1.254 . S
O797 Pr776 2.490 . S
O797 C778 1.225 . S
O798 Pr776 2.695 . S
O798 Pr777 2.436 . S
O798 C785 1.270 . S
O799 Pr776 2.512 . S
O799 C785 1.248 . S
O800 Pr777 2.438 . S
O800 C786 1.267 . S
O801 Pr776 2.437 . S
O801 C786 1.278 . S
O802 Pr777 2.562 . S
O802 C787 1.254 . S
O803 Pr777 2.490 . S
O803 C787 1.225 . S
O804 Pr776 2.436 . S
O804 Pr777 2.695 . S
O804 C794 1.270 . S
O805 Pr777 2.512 . S
O805 C794 1.248 . S
O806 Pr776 2.438 . S
O806 C795 1.267 . S
O807 Pr777 2.437 . S
O807 C795 1.278 . S
H808 C780 0.929 . S
H809 C781 0.929 . S
H810 C783 0.931 . S
H811 C784 0.930 . S
H812 C789 0.929 . S
H813 C790 0.929 . S
H814 C792 0.931 . S
H815 C793 0.930 . S
Pr816 C818 2.880 . S
Pr816 O836 2.562 . S
Pr816 O837 2.490 . S
Pr816 O838 2.695 . S
Pr816 O839 2.512 . S
Pr816 O841 2.437 . S
Pr816 O844 2.436 . S
Pr816 O846 2.438 . S
Pr817 C827 2.880 . S
Pr817 O838 2.436 . S
Pr817 O840 2.438 . S
Pr817 O842 2.562 . S
Pr817 O843 2.490 . S
Pr817 O844 2.695 . S
Pr817 O845 2.512 . S
Pr817 O847 2.437 . S
C818 Pr816 2.880 . S
C818 C819 1.491 . S
C818 O836 1.254 . S
C818 O837 1.225 . S
C819 C818 1.491 . S
C819 C820 1.392 . S
C819 C824 1.356 . S
C820 C819 1.392 . S
C820 C821 1.368 . S
C820 H848 0.929 . S
C821 C820 1.368 . S
C821 C822 1.386 . S
C821 H849 0.929 . S
C822 C821 1.386 . S
C822 C823 1.373 . S
C823 C822 1.373 . S
C823 C824 1.409 . S
C823 H850 0.931 . S
C824 C819 1.356 . S
C824 C823 1.409 . S
C824 H851 0.930 . S
C825 O838 1.270 . S
C825 O839 1.248 . S
C826 O840 1.267 . S
C826 O841 1.278 . S
C827 Pr817 2.880 . S
C827 C828 1.491 . S
C827 O842 1.254 . S
C827 O843 1.225 . S
C828 C827 1.491 . S
C828 C829 1.392 . S
C828 C833 1.356 . S
C829 C828 1.392 . S
C829 C830 1.368 . S
C829 H852 0.929 . S
C830 C829 1.368 . S
C830 C831 1.386 . S
C830 H853 0.929 . S
C831 C830 1.386 . S
C831 C832 1.373 . S
C832 C831 1.373 . S
C832 C833 1.409 . S
C832 H854 0.931 . S
C833 C828 1.356 . S
C833 C832 1.409 . S
C833 H855 0.930 . S
C834 O844 1.270 . S
C834 O845 1.248 . S
C835 O846 1.267 . S
C835 O847 1.278 . S
O836 Pr816 2.562 . S
O836 C818 1.254 . S
O837 Pr816 2.490 . S
O837 C818 1.225 . S
O838 Pr816 2.695 . S
O838 Pr817 2.436 . S
O838 C825 1.270 . S
O839 Pr816 2.512 . S
O839 C825 1.248 . S
O840 Pr817 2.438 . S
O840 C826 1.267 . S
O841 Pr816 2.437 . S
O841 C826 1.278 . S
O842 Pr817 2.562 . S
O842 C827 1.254 . S
O843 Pr817 2.490 . S
O843 C827 1.225 . S
O844 Pr816 2.436 . S
O844 Pr817 2.695 . S
O844 C834 1.270 . S
O845 Pr817 2.512 . S
O845 C834 1.248 . S
O846 Pr816 2.438 . S
O846 C835 1.267 . S
O847 Pr817 2.437 . S
O847 C835 1.278 . S
H848 C820 0.929 . S
H849 C821 0.929 . S
H850 C823 0.931 . S
H851 C824 0.930 . S
H852 C829 0.929 . S
H853 C830 0.929 . S
H854 C832 0.931 . S
H855 C833 0.930 . S
Pr856 C858 2.880 . S
Pr856 O876 2.562 . S
Pr856 O877 2.490 . S
Pr856 O878 2.695 . S
Pr856 O879 2.512 . S
Pr856 O881 2.437 . S
Pr856 O884 2.436 . S
Pr856 O886 2.438 . S
Pr857 C867 2.880 . S
Pr857 O878 2.436 . S
Pr857 O880 2.438 . S
Pr857 O882 2.562 . S
Pr857 O883 2.490 . S
Pr857 O884 2.695 . S
Pr857 O885 2.512 . S
Pr857 O887 2.437 . S
C858 Pr856 2.880 . S
C858 C859 1.491 . S
C858 O876 1.254 . S
C858 O877 1.225 . S
C859 C858 1.491 . S
C859 C860 1.392 . S
C859 C864 1.356 . S
C860 C859 1.392 . S
C860 C861 1.368 . S
C860 H888 0.929 . S
C861 C860 1.368 . S
C861 C862 1.386 . S
C861 H889 0.929 . S
C862 C861 1.386 . S
C862 C863 1.373 . S
C863 C862 1.373 . S
C863 C864 1.409 . S
C863 H890 0.931 . S
C864 C859 1.356 . S
C864 C863 1.409 . S
C864 H891 0.930 . S
C865 O878 1.270 . S
C865 O879 1.248 . S
C866 O880 1.267 . S
C866 O881 1.278 . S
C867 Pr857 2.880 . S
C867 C868 1.491 . S
C867 O882 1.254 . S
C867 O883 1.225 . S
C868 C867 1.491 . S
C868 C869 1.392 . S
C868 C873 1.356 . S
C869 C868 1.392 . S
C869 C870 1.368 . S
C869 H892 0.929 . S
C870 C869 1.368 . S
C870 C871 1.386 . S
C870 H893 0.929 . S
C871 C870 1.386 . S
C871 C872 1.373 . S
C872 C871 1.373 . S
C872 C873 1.409 . S
C872 H894 0.931 . S
C873 C868 1.356 . S
C873 C872 1.409 . S
C873 H895 0.930 . S
C874 O884 1.270 . S
C874 O885 1.248 . S
C875 O886 1.267 . S
C875 O887 1.278 . S
O876 Pr856 2.562 . S
O876 C858 1.254 . S
O877 Pr856 2.490 . S
O877 C858 1.225 . S
O878 Pr856 2.695 . S
O878 Pr857 2.436 . S
O878 C865 1.270 . S
O879 Pr856 2.512 . S
O879 C865 1.248 . S
O880 Pr857 2.438 . S
O880 C866 1.267 . S
O881 Pr856 2.437 . S
O881 C866 1.278 . S
O882 Pr857 2.562 . S
O882 C867 1.254 . S
O883 Pr857 2.490 . S
O883 C867 1.225 . S
O884 Pr856 2.436 . S
O884 Pr857 2.695 . S
O884 C874 1.270 . S
O885 Pr857 2.512 . S
O885 C874 1.248 . S
O886 Pr856 2.438 . S
O886 C875 1.267 . S
O887 Pr857 2.437 . S
O887 C875 1.278 . S
H888 C860 0.929 . S
H889 C861 0.929 . S
H890 C863 0.931 . S
H891 C864 0.930 . S
H892 C869 0.929 . S
H893 C870 0.929 . S
H894 C872 0.931 . S
H895 C873 0.930 . S
Pr896 C898 2.880 . S
Pr896 O916 2.562 . S
Pr896 O917 2.490 . S
Pr896 O918 2.695 . S
Pr896 O919 2.512 . S
Pr896 O921 2.437 . S
Pr896 O924 2.436 . S
Pr896 O926 2.438 . S
Pr897 C907 2.880 . S
Pr897 O918 2.436 . S
Pr897 O920 2.438 . S
Pr897 O922 2.562 . S
Pr897 O923 2.490 . S
Pr897 O924 2.695 . S
Pr897 O925 2.512 . S
Pr897 O927 2.437 . S
C898 Pr896 2.880 . S
C898 C899 1.491 . S
C898 O916 1.254 . S
C898 O917 1.225 . S
C899 C898 1.491 . S
C899 C900 1.392 . S
C899 C904 1.356 . S
C900 C899 1.392 . S
C900 C901 1.368 . S
C900 H928 0.929 . S
C901 C900 1.368 . S
C901 C902 1.386 . S
C901 H929 0.929 . S
C902 C901 1.386 . S
C902 C903 1.373 . S
C903 C902 1.373 . S
C903 C904 1.409 . S
C903 H930 0.931 . S
C904 C899 1.356 . S
C904 C903 1.409 . S
C904 H931 0.930 . S
C905 O918 1.270 . S
C905 O919 1.248 . S
C906 O920 1.267 . S
C906 O921 1.278 . S
C907 Pr897 2.880 . S
C907 C908 1.491 . S
C907 O922 1.254 . S
C907 O923 1.225 . S
C908 C907 1.491 . S
C908 C909 1.392 . S
C908 C913 1.356 . S
C909 C908 1.392 . S
C909 C910 1.368 . S
C909 H932 0.929 . S
C910 C909 1.368 . S
C910 C911 1.386 . S
C910 H933 0.929 . S
C911 C910 1.386 . S
C911 C912 1.373 . S
C912 C911 1.373 . S
C912 C913 1.409 . S
C912 H934 0.931 . S
C913 C908 1.356 . S
C913 C912 1.409 . S
C913 H935 0.930 . S
C914 O924 1.270 . S
C914 O925 1.248 . S
C915 O926 1.267 . S
C915 O927 1.278 . S
O916 Pr896 2.562 . S
O916 C898 1.254 . S
O917 Pr896 2.490 . S
O917 C898 1.225 . S
O918 Pr896 2.695 . S
O918 Pr897 2.436 . S
O918 C905 1.270 . S
O919 Pr896 2.512 . S
O919 C905 1.248 . S
O920 Pr897 2.438 . S
O920 C906 1.267 . S
O921 Pr896 2.437 . S
O921 C906 1.278 . S
O922 Pr897 2.562 . S
O922 C907 1.254 . S
O923 Pr897 2.490 . S
O923 C907 1.225 . S
O924 Pr896 2.436 . S
O924 Pr897 2.695 . S
O924 C914 1.270 . S
O925 Pr897 2.512 . S
O925 C914 1.248 . S
O926 Pr896 2.438 . S
O926 C915 1.267 . S
O927 Pr897 2.437 . S
O927 C915 1.278 . S
H928 C900 0.929 . S
H929 C901 0.929 . S
H930 C903 0.931 . S
H931 C904 0.930 . S
H932 C909 0.929 . S
H933 C910 0.929 . S
H934 C912 0.931 . S
H935 C913 0.930 . S
Pr936 C938 2.880 . S
Pr936 O956 2.562 . S
Pr936 O957 2.490 . S
Pr936 O958 2.695 . S
Pr936 O959 2.512 1_554 S
Pr936 O961 2.437 . S
Pr936 O964 2.436 . S
Pr936 O966 2.438 . S
Pr937 C947 2.880 1_455 S
Pr937 O958 2.436 . S
Pr937 O960 2.438 . S
Pr937 O962 2.562 1_455 S
Pr937 O963 2.490 1_455 S
Pr937 O964 2.695 . S
Pr937 O965 2.512 . S
Pr937 O967 2.437 . S
C938 Pr936 2.880 . S
C938 C939 1.491 . S
C938 O956 1.254 . S
C938 O957 1.225 . S
C939 C938 1.491 . S
C939 C940 1.392 1_554 S
C939 C944 1.356 . S
C940 C939 1.392 1_556 S
C940 C941 1.368 . S
C940 H968 0.929 . S
C941 C940 1.368 . S
C941 C942 1.386 . S
C941 H969 0.929 . S
C942 C941 1.386 . S
C942 C943 1.373 1_556 S
C943 C942 1.373 1_554 S
C943 C944 1.409 . S
C943 H970 0.931 . S
C944 C939 1.356 . S
C944 C943 1.409 . S
C944 H971 0.930 . S
C945 O958 1.270 1_556 S
C945 O959 1.248 . S
C946 O960 1.267 . S
C946 O961 1.278 . S
C947 Pr937 2.880 1_655 S
C947 C948 1.491 . S
C947 O962 1.254 . S
C947 O963 1.225 . S
C948 C947 1.491 . S
C948 C949 1.392 . S
C948 C953 1.356 . S
C949 C948 1.392 . S
C949 C950 1.368 . S
C949 H972 0.929 . S
C950 C949 1.368 . S
C950 C951 1.386 . S
C950 H973 0.929 . S
C951 C950 1.386 . S
C951 C952 1.373 . S
C952 C951 1.373 . S
C952 C953 1.409 . S
C952 H974 0.931 . S
C953 C948 1.356 . S
C953 C952 1.409 . S
C953 H975 0.930 . S
C954 O964 1.270 . S
C954 O965 1.248 . S
C955 O966 1.267 . S
C955 O967 1.278 . S
O956 Pr936 2.562 . S
O956 C938 1.254 . S
O957 Pr936 2.490 . S
O957 C938 1.225 . S
O958 Pr936 2.695 . S
O958 Pr937 2.436 . S
O958 C945 1.270 1_554 S
O959 Pr936 2.512 1_556 S
O959 C945 1.248 . S
O960 Pr937 2.438 . S
O960 C946 1.267 . S
O961 Pr936 2.437 . S
O961 C946 1.278 . S
O962 Pr937 2.562 1_655 S
O962 C947 1.254 . S
O963 Pr937 2.490 1_655 S
O963 C947 1.225 . S
O964 Pr936 2.436 . S
O964 Pr937 2.695 . S
O964 C954 1.270 . S
O965 Pr937 2.512 . S
O965 C954 1.248 . S
O966 Pr936 2.438 . S
O966 C955 1.267 . S
O967 Pr937 2.437 . S
O967 C955 1.278 . S
H968 C940 0.929 . S
H969 C941 0.929 . S
H970 C943 0.931 . S
H971 C944 0.930 . S
H972 C949 0.929 . S
H973 C950 0.929 . S
H974 C952 0.931 . S
H975 C953 0.930 . S
C976 C977 1.391 . S
C976 C978 1.394 . S
C976 H992 0.931 1_455 S
C977 C976 1.391 . S
C977 C981 1.376 . S
C978 C976 1.394 . S
C978 C979 1.369 . S
C978 C982 1.531 1_455 S
C979 C978 1.369 . S
C979 C980 1.410 . S
C979 C987 1.503 . S
C980 C979 1.410 . S
C980 C981 1.392 . S
C980 C983 1.511 . S
C981 C977 1.376 . S
C981 C980 1.392 . S
C981 H993 0.929 . S
C982 C978 1.531 1_655 S
C982 H994 0.960 . S
C982 H995 0.962 . S
C982 H996 0.960 . S
C983 C980 1.511 . S
C983 H997 0.961 . S
C983 H998 0.961 . S
C983 H999 0.961 . S
C984 C985 1.370 . S
C984 C986 1.363 . S
C984 H1000 0.931 . S
C985 C984 1.370 . S
C985 C989 1.408 1_554 S
C986 C984 1.363 . S
C986 C987 1.370 1_554 S
C986 C990 1.524 . S
C987 C979 1.503 . S
C987 C986 1.370 1_556 S
C987 C988 1.403 . S
C988 C987 1.403 . S
C988 C989 1.404 . S
C988 C991 1.539 . S
C989 C985 1.408 1_556 S
C989 C988 1.404 . S
C989 H1001 0.930 . S
C990 C986 1.524 . S
C990 H1002 0.956 . S
C990 H1003 0.961 . S
C990 H1004 0.961 . S
C991 C988 1.539 . S
C991 H1005 0.958 . S
C991 H1006 0.961 . S
C991 H1007 0.960 . S
H992 C976 0.931 1_655 S
H993 C981 0.929 . S
H994 C982 0.960 . S
H995 C982 0.962 . S
H996 C982 0.960 . S
H997 C983 0.961 . S
H998 C983 0.961 . S
H999 C983 0.961 . S
H1000 C984 0.931 . S
H1001 C989 0.930 . S
H1002 C990 0.956 . S
H1003 C990 0.961 . S
H1004 C990 0.961 . S
H1005 C991 0.958 . S
H1006 C991 0.961 . S
H1007 C991 0.960 . S
C1008 C1009 1.391 . S
C1008 C1010 1.394 . S
C1008 H1024 0.931 . S
C1009 C1008 1.391 . S
C1009 C1013 1.376 . S
C1010 C1008 1.394 . S
C1010 C1011 1.369 . S
C1010 C1014 1.531 . S
C1011 C1010 1.369 . S
C1011 C1012 1.410 . S
C1011 C1019 1.503 . S
C1012 C1011 1.410 . S
C1012 C1013 1.392 . S
C1012 C1015 1.511 . S
C1013 C1009 1.376 . S
C1013 C1012 1.392 . S
C1013 H1025 0.929 . S
C1014 C1010 1.531 . S
C1014 H1026 0.960 . S
C1014 H1027 0.962 . S
C1014 H1028 0.960 . S
C1015 C1012 1.511 . S
C1015 H1029 0.961 . S
C1015 H1030 0.961 . S
C1015 H1031 0.961 . S
C1016 C1017 1.370 . S
C1016 C1018 1.363 . S
C1016 H1032 0.931 . S
C1017 C1016 1.370 . S
C1017 C1021 1.408 . S
C1018 C1016 1.363 . S
C1018 C1019 1.370 . S
C1018 C1022 1.524 . S
C1019 C1011 1.503 . S
C1019 C1018 1.370 . S
C1019 C1020 1.403 . S
C1020 C1019 1.403 . S
C1020 C1021 1.404 . S
C1020 C1023 1.539 . S
C1021 C1017 1.408 . S
C1021 C1020 1.404 . S
C1021 H1033 0.930 . S
C1022 C1018 1.524 . S
C1022 H1034 0.956 . S
C1022 H1035 0.961 . S
C1022 H1036 0.961 . S
C1023 C1020 1.539 . S
C1023 H1037 0.958 . S
C1023 H1038 0.961 . S
C1023 H1039 0.960 . S
H1024 C1008 0.931 . S
H1025 C1013 0.929 . S
H1026 C1014 0.960 . S
H1027 C1014 0.962 . S
H1028 C1014 0.960 . S
H1029 C1015 0.961 . S
H1030 C1015 0.961 . S
H1031 C1015 0.961 . S
H1032 C1016 0.931 . S
H1033 C1021 0.930 . S
H1034 C1022 0.956 . S
H1035 C1022 0.961 . S
H1036 C1022 0.961 . S
H1037 C1023 0.958 . S
H1038 C1023 0.961 . S
H1039 C1023 0.960 . S
C1040 C1041 1.391 . S
C1040 C1042 1.394 . S
C1040 H1056 0.931 . S
C1041 C1040 1.391 . S
C1041 C1045 1.376 . S
C1042 C1040 1.394 . S
C1042 C1043 1.369 . S
C1042 C1046 1.531 . S
C1043 C1042 1.369 . S
C1043 C1044 1.410 . S
C1043 C1051 1.503 . S
C1044 C1043 1.410 . S
C1044 C1045 1.392 . S
C1044 C1047 1.511 . S
C1045 C1041 1.376 . S
C1045 C1044 1.392 . S
C1045 H1057 0.929 . S
C1046 C1042 1.531 . S
C1046 H1058 0.960 . S
C1046 H1059 0.962 . S
C1046 H1060 0.960 . S
C1047 C1044 1.511 . S
C1047 H1061 0.961 . S
C1047 H1062 0.961 . S
C1047 H1063 0.961 . S
C1048 C1049 1.370 1_565 S
C1048 C1050 1.363 . S
C1048 H1064 0.931 . S
C1049 C1048 1.370 1_545 S
C1049 C1053 1.408 1_545 S
C1050 C1048 1.363 . S
C1050 C1051 1.370 . S
C1050 C1054 1.524 . S
C1051 C1043 1.503 . S
C1051 C1050 1.370 . S
C1051 C1052 1.403 . S
C1052 C1051 1.403 . S
C1052 C1053 1.404 . S
C1052 C1055 1.539 . S
C1053 C1049 1.408 1_565 S
C1053 C1052 1.404 . S
C1053 H1065 0.938 . S
C1054 C1050 1.524 . S
C1054 H1066 0.956 . S
C1054 H1067 0.961 . S
C1054 H1068 0.961 . S
C1055 C1052 1.539 . S
C1055 H1069 0.958 . S
C1055 H1070 0.961 . S
C1055 H1071 0.960 . S
H1056 C1040 0.931 . S
H1057 C1045 0.929 . S
H1058 C1046 0.960 . S
H1059 C1046 0.962 . S
H1060 C1046 0.960 . S
H1061 C1047 0.961 . S
H1062 C1047 0.961 . S
H1063 C1047 0.961 . S
H1064 C1048 0.931 . S
H1065 C1053 0.938 . S
H1066 C1054 0.956 . S
H1067 C1054 0.961 . S
H1068 C1054 0.961 . S
H1069 C1055 0.958 . S
H1070 C1055 0.961 . S
H1071 C1055 0.960 . S
C1072 C1073 1.391 . S
C1072 C1074 1.394 . S
C1072 H1088 0.931 . S
C1073 C1072 1.391 . S
C1073 C1077 1.376 . S
C1074 C1072 1.394 . S
C1074 C1075 1.369 . S
C1074 C1078 1.531 . S
C1075 C1074 1.369 . S
C1075 C1076 1.410 . S
C1075 C1083 1.503 . S
C1076 C1075 1.410 . S
C1076 C1077 1.392 . S
C1076 C1079 1.511 . S
C1077 C1073 1.376 . S
C1077 C1076 1.392 . S
C1077 H1089 0.929 . S
C1078 C1074 1.531 . S
C1078 H1090 0.960 . S
C1078 H1091 0.962 . S
C1078 H1092 0.960 . S
C1079 C1076 1.511 . S
C1079 H1093 0.961 . S
C1079 H1094 0.961 . S
C1079 H1095 0.961 . S
C1080 C1081 1.370 . S
C1080 C1082 1.363 . S
C1080 H1096 0.931 . S
C1081 C1080 1.370 . S
C1081 C1085 1.408 . S
C1082 C1080 1.363 . S
C1082 C1083 1.370 . S
C1082 C1086 1.524 . S
C1083 C1075 1.503 . S
C1083 C1082 1.370 . S
C1083 C1084 1.403 . S
C1084 C1083 1.403 . S
C1084 C1085 1.404 . S
C1084 C1087 1.539 . S
C1085 C1081 1.408 . S
C1085 C1084 1.404 . S
C1085 H1097 0.930 . S
C1086 C1082 1.524 . S
C1086 H1098 0.956 . S
C1086 H1099 0.961 . S
C1086 H1100 0.961 . S
C1087 C1084 1.539 . S
C1087 H1101 0.958 . S
C1087 H1102 0.961 . S
C1087 H1103 0.960 . S
H1088 C1072 0.931 . S
H1089 C1077 0.929 . S
H1090 C1078 0.960 . S
H1091 C1078 0.962 . S
H1092 C1078 0.960 . S
H1093 C1079 0.961 . S
H1094 C1079 0.961 . S
H1095 C1079 0.961 . S
H1096 C1080 0.931 . S
H1097 C1085 0.930 . S
H1098 C1086 0.956 . S
H1099 C1086 0.961 . S
H1100 C1086 0.961 . S
H1101 C1087 0.958 . S
H1102 C1087 0.961 . S
H1103 C1087 0.960 . S
C1104 C1105 1.391 . S
C1104 C1106 1.394 . S
C1104 H1120 0.931 . S
C1105 C1104 1.391 . S
C1105 C1109 1.376 . S
C1106 C1104 1.394 . S
C1106 C1107 1.369 . S
C1106 C1110 1.531 . S
C1107 C1106 1.369 . S
C1107 C1108 1.410 . S
C1107 C1115 1.503 . S
C1108 C1107 1.410 . S
C1108 C1109 1.392 . S
C1108 C1111 1.511 . S
C1109 C1105 1.376 . S
C1109 C1108 1.392 . S
C1109 H1121 0.929 . S
C1110 C1106 1.531 . S
C1110 H1122 0.960 . S
C1110 H1123 0.962 . S
C1110 H1124 0.960 . S
C1111 C1108 1.511 . S
C1111 H1125 0.961 . S
C1111 H1126 0.961 . S
C1111 H1127 0.961 . S
C1112 C1113 1.370 1_565 S
C1112 C1114 1.363 . S
C1112 H1128 0.931 . S
C1113 C1112 1.370 1_545 S
C1113 C1117 1.408 . S
C1114 C1112 1.363 . S
C1114 C1115 1.370 . S
C1114 C1118 1.524 . S
C1115 C1107 1.503 . S
C1115 C1114 1.370 . S
C1115 C1116 1.403 . S
C1116 C1115 1.403 . S
C1116 C1117 1.404 1_565 S
C1116 C1119 1.539 1_565 S
C1117 C1113 1.408 . S
C1117 C1116 1.404 1_545 S
C1117 H1129 0.930 . S
C1118 C1114 1.524 . S
C1118 H1130 0.956 . S
C1118 H1131 0.961 . S
C1118 H1132 0.961 . S
C1119 C1116 1.539 1_545 S
C1119 H1133 0.958 . S
C1119 H1134 0.961 . S
C1119 H1135 0.960 1_545 S
H1120 C1104 0.931 . S
H1121 C1109 0.929 . S
H1122 C1110 0.960 . S
H1123 C1110 0.962 . S
H1124 C1110 0.960 . S
H1125 C1111 0.961 . S
H1126 C1111 0.961 . S
H1127 C1111 0.961 . S
H1128 C1112 0.931 . S
H1129 C1117 0.930 . S
H1130 C1118 0.956 . S
H1131 C1118 0.961 . S
H1132 C1118 0.961 . S
H1133 C1119 0.958 . S
H1134 C1119 0.961 . S
H1135 C1119 0.960 1_565 S
C1136 C1137 1.391 . S
C1136 C1138 1.394 . S
C1136 H1152 0.931 . S
C1137 C1136 1.391 . S
C1137 C1141 1.376 . S
C1138 C1136 1.394 . S
C1138 C1139 1.369 . S
C1138 C1142 1.531 . S
C1139 C1138 1.369 . S
C1139 C1140 1.410 . S
C1139 C1147 1.503 . S
C1140 C1139 1.410 . S
C1140 C1141 1.392 . S
C1140 C1143 1.511 . S
C1141 C1137 1.376 . S
C1141 C1140 1.392 . S
C1141 H1153 0.929 . S
C1142 C1138 1.531 . S
C1142 H1154 0.960 . S
C1142 H1155 0.962 . S
C1142 H1156 0.960 . S
C1143 C1140 1.511 . S
C1143 H1157 0.961 . S
C1143 H1158 0.961 . S
C1143 H1159 0.961 . S
C1144 C1145 1.370 . S
C1144 C1146 1.363 . S
C1144 H1160 0.931 . S
C1145 C1144 1.370 . S
C1145 C1149 1.408 . S
C1146 C1144 1.363 . S
C1146 C1147 1.370 . S
C1146 C1150 1.524 . S
C1147 C1139 1.503 . S
C1147 C1146 1.370 . S
C1147 C1148 1.403 . S
C1148 C1147 1.403 . S
C1148 C1149 1.404 . S
C1148 C1151 1.539 . S
C1149 C1145 1.408 . S
C1149 C1148 1.404 . S
C1149 H1161 0.930 . S
C1150 C1146 1.524 . S
C1150 H1162 0.956 . S
C1150 H1163 0.961 . S
C1150 H1164 0.961 . S
C1151 C1148 1.539 . S
C1151 H1165 0.958 . S
C1151 H1166 0.961 . S
C1151 H1167 0.960 . S
H1152 C1136 0.931 . S
H1153 C1141 0.929 . S
H1154 C1142 0.960 . S
H1155 C1142 0.962 . S
H1156 C1142 0.960 . S
H1157 C1143 0.961 . S
H1158 C1143 0.961 . S
H1159 C1143 0.961 . S
H1160 C1144 0.931 . S
H1161 C1149 0.930 . S
H1162 C1150 0.956 . S
H1163 C1150 0.961 . S
H1164 C1150 0.961 . S
H1165 C1151 0.958 . S
H1166 C1151 0.961 . S
H1167 C1151 0.960 . S
C1168 C1169 1.391 . S
C1168 C1170 1.394 . S
C1168 H1184 0.931 . S
C1169 C1168 1.391 . S
C1169 C1173 1.376 . S
C1170 C1168 1.394 . S
C1170 C1171 1.369 . S
C1170 C1174 1.531 . S
C1171 C1170 1.369 . S
C1171 C1172 1.410 . S
C1171 C1179 1.503 . S
C1172 C1171 1.410 . S
C1172 C1173 1.392 . S
C1172 C1175 1.511 . S
C1173 C1169 1.376 . S
C1173 C1172 1.392 . S
C1173 H1185 0.929 . S
C1174 C1170 1.531 . S
C1174 H1186 0.960 . S
C1174 H1187 0.962 . S
C1174 H1188 0.960 . S
C1175 C1172 1.511 . S
C1175 H1189 0.961 . S
C1175 H1190 0.961 . S
C1175 H1191 0.961 . S
C1176 C1177 1.370 . S
C1176 C1178 1.363 . S
C1176 H1192 0.931 . S
C1177 C1176 1.370 . S
C1177 C1181 1.408 . S
C1178 C1176 1.363 . S
C1178 C1179 1.370 . S
C1178 C1182 1.524 . S
C1179 C1171 1.503 . S
C1179 C1178 1.370 . S
C1179 C1180 1.403 . S
C1180 C1179 1.403 . S
C1180 C1181 1.404 . S
C1180 C1183 1.539 . S
C1181 C1177 1.408 . S
C1181 C1180 1.404 . S
C1181 H1193 0.930 . S
C1182 C1178 1.524 . S
C1182 H1194 0.956 . S
C1182 H1195 0.961 . S
C1182 H1196 0.961 . S
C1183 C1180 1.539 . S
C1183 H1197 0.958 . S
C1183 H1198 0.961 . S
C1183 H1199 0.960 . S
H1184 C1168 0.931 . S
H1185 C1173 0.929 . S
H1186 C1174 0.960 . S
H1187 C1174 0.962 . S
H1188 C1174 0.960 . S
H1189 C1175 0.961 . S
H1190 C1175 0.961 . S
H1191 C1175 0.961 . S
H1192 C1176 0.931 . S
H1193 C1181 0.930 . S
H1194 C1182 0.956 . S
H1195 C1182 0.961 . S
H1196 C1182 0.961 . S
H1197 C1183 0.958 . S
H1198 C1183 0.961 . S
H1199 C1183 0.960 . S
C1200 C1201 1.391 . S
C1200 C1202 1.394 . S
C1200 H1216 0.931 . S
C1201 C1200 1.391 . S
C1201 C1205 1.376 . S
C1202 C1200 1.394 . S
C1202 C1203 1.369 . S
C1202 C1206 1.531 . S
C1203 C1202 1.369 . S
C1203 C1204 1.410 . S
C1203 C1211 1.503 . S
C1204 C1203 1.410 . S
C1204 C1205 1.392 . S
C1204 C1207 1.511 . S
C1205 C1201 1.376 . S
C1205 C1204 1.392 . S
C1205 H1217 0.929 . S
C1206 C1202 1.531 . S
C1206 H1218 0.960 . S
C1206 H1219 0.962 . S
C1206 H1220 0.960 . S
C1207 C1204 1.511 . S
C1207 H1221 0.961 . S
C1207 H1222 0.961 . S
C1207 H1223 0.961 . S
C1208 C1209 1.370 . S
C1208 C1210 1.363 . S
C1208 H1224 0.931 . S
C1209 C1208 1.370 . S
C1209 C1213 1.408 . S
C1210 C1208 1.363 . S
C1210 C1211 1.370 . S
C1210 C1214 1.524 . S
C1211 C1203 1.503 . S
C1211 C1210 1.370 . S
C1211 C1212 1.403 . S
C1212 C1211 1.403 . S
C1212 C1213 1.404 . S
C1212 C1215 1.539 . S
C1213 C1209 1.408 . S
C1213 C1212 1.404 . S
C1213 H1225 0.930 . S
C1214 C1210 1.524 . S
C1214 H1226 0.956 . S
C1214 H1227 0.961 . S
C1214 H1228 0.961 . S
C1215 C1212 1.539 . S
C1215 H1229 0.958 . S
C1215 H1230 0.961 . S
C1215 H1231 0.960 . S
H1216 C1200 0.931 . S
H1217 C1205 0.929 . S
H1218 C1206 0.960 . S
H1219 C1206 0.962 . S
H1220 C1206 0.960 . S
H1221 C1207 0.961 . S
H1222 C1207 0.961 . S
H1223 C1207 0.961 . S
H1224 C1208 0.931 . S
H1225 C1213 0.930 . S
H1226 C1214 0.956 . S
H1227 C1214 0.961 . S
H1228 C1214 0.961 . S
H1229 C1215 0.958 . S
H1230 C1215 0.961 . S
H1231 C1215 0.960 . S
C1232 C1233 1.391 . S
C1232 C1234 1.394 . S
C1232 H1248 0.931 . S
C1233 C1232 1.391 . S
C1233 C1237 1.376 . S
C1234 C1232 1.394 . S
C1234 C1235 1.369 . S
C1234 C1238 1.531 . S
C1235 C1234 1.369 . S
C1235 C1236 1.410 . S
C1235 C1243 1.503 . S
C1236 C1235 1.410 . S
C1236 C1237 1.392 . S
C1236 C1239 1.511 . S
C1237 C1233 1.376 . S
C1237 C1236 1.392 . S
C1237 H1249 0.929 . S
C1238 C1234 1.531 . S
C1238 H1250 0.960 . S
C1238 H1251 0.962 . S
C1238 H1252 0.960 . S
C1239 C1236 1.511 . S
C1239 H1253 0.957 1_545 S
C1239 H1254 0.961 . S
C1239 H1255 0.961 . S
C1240 C1241 1.320 1_655 S
C1240 C1242 1.401 . S
C1240 H1256 0.945 . S
C1241 C1240 1.320 1_455 S
C1241 C1245 1.408 . S
C1242 C1240 1.401 . S
C1242 C1243 1.370 . S
C1242 C1246 1.524 . S
C1243 C1235 1.503 . S
C1243 C1242 1.370 . S
C1243 C1244 1.403 1_655 S
C1244 C1243 1.403 1_455 S
C1244 C1245 1.404 . S
C1244 C1247 1.539 . S
C1245 C1241 1.408 . S
C1245 C1244 1.404 . S
C1245 H1257 0.930 . S
C1246 C1242 1.524 . S
C1246 H1258 0.956 . S
C1246 H1259 0.961 . S
C1246 H1260 0.961 . S
C1247 C1244 1.539 . S
C1247 H1261 0.958 . S
C1247 H1262 0.961 . S
C1247 H1263 0.960 . S
H1248 C1232 0.931 . S
H1249 C1237 0.929 . S
H1250 C1238 0.960 . S
H1251 C1238 0.962 . S
H1252 C1238 0.960 . S
H1253 C1239 0.957 1_565 S
H1254 C1239 0.961 . S
H1255 C1239 0.961 . S
H1256 C1240 0.945 . S
H1257 C1245 0.930 . S
H1258 C1246 0.956 . S
H1259 C1246 0.961 . S
H1260 C1246 0.961 . S
H1261 C1247 0.958 . S
H1262 C1247 0.961 . S
H1263 C1247 0.960 . S
C1264 C1265 1.391 . S
C1264 C1266 1.394 . S
C1264 H1280 0.931 . S
C1265 C1264 1.391 . S
C1265 C1269 1.376 . S
C1266 C1264 1.394 . S
C1266 C1267 1.369 . S
C1266 C1270 1.531 . S
C1267 C1266 1.369 . S
C1267 C1268 1.410 . S
C1267 C1275 1.503 . S
C1268 C1267 1.410 . S
C1268 C1269 1.392 . S
C1268 C1271 1.511 . S
C1269 C1265 1.376 . S
C1269 C1268 1.392 . S
C1269 H1281 0.929 . S
C1270 C1266 1.531 . S
C1270 H1282 0.960 . S
C1270 H1283 0.962 . S
C1270 H1284 0.960 . S
C1271 C1268 1.511 . S
C1271 H1285 0.961 . S
C1271 H1286 0.961 . S
C1271 H1287 0.961 . S
C1272 C1273 1.370 . S
C1272 C1274 1.363 . S
C1272 H1288 0.931 . S
C1273 C1272 1.370 . S
C1273 C1277 1.408 . S
C1274 C1272 1.363 . S
C1274 C1275 1.370 . S
C1274 C1278 1.524 . S
C1275 C1267 1.503 . S
C1275 C1274 1.370 . S
C1275 C1276 1.403 . S
C1276 C1275 1.403 . S
C1276 C1277 1.404 . S
C1276 C1279 1.539 . S
C1277 C1273 1.408 . S
C1277 C1276 1.404 . S
C1277 H1289 0.930 . S
C1278 C1274 1.524 . S
C1278 H1290 0.956 . S
C1278 H1291 0.961 . S
C1278 H1292 0.961 . S
C1279 C1276 1.539 . S
C1279 H1293 0.958 . S
C1279 H1294 0.961 . S
C1279 H1295 0.960 . S
H1280 C1264 0.931 . S
H1281 C1269 0.929 . S
H1282 C1270 0.960 . S
H1283 C1270 0.962 . S
H1284 C1270 0.960 . S
H1285 C1271 0.961 . S
H1286 C1271 0.961 . S
H1287 C1271 0.961 . S
H1288 C1272 0.931 . S
H1289 C1277 0.930 . S
H1290 C1278 0.956 . S
H1291 C1278 0.961 . S
H1292 C1278 0.961 . S
H1293 C1279 0.958 . S
H1294 C1279 0.961 . S
H1295 C1279 0.960 . S
C1296 C1297 1.395 1_565 S
C1296 C1298 1.394 1_565 S
C1296 H1312 0.931 . S
C1297 C1296 1.395 1_545 S
C1297 C1301 1.406 . S
C1298 C1296 1.394 1_545 S
C1298 C1299 1.369 . S
C1298 C1302 1.531 . S
C1299 C1298 1.369 . S
C1299 C1300 1.410 . S
C1299 C1307 1.503 . S
C1300 C1299 1.410 . S
C1300 C1301 1.392 . S
C1300 C1303 1.511 . S
C1301 C1297 1.406 . S
C1301 C1300 1.392 . S
C1301 H1313 0.929 . S
C1302 C1298 1.531 . S
C1302 H1314 0.960 . S
C1302 H1315 0.962 1_545 S
C1302 H1316 0.960 1_545 S
C1303 C1300 1.511 . S
C1303 H1317 0.961 . S
C1303 H1318 0.961 . S
C1303 H1319 0.961 . S
C1304 C1305 1.370 . S
C1304 C1306 1.363 . S
C1304 H1320 0.931 . S
C1305 C1304 1.370 . S
C1305 C1309 1.408 . S
C1306 C1304 1.363 . S
C1306 C1307 1.370 . S
C1306 C1310 1.489 1_545 S
C1307 C1299 1.503 . S
C1307 C1306 1.370 . S
C1307 C1308 1.403 . S
C1308 C1307 1.403 . S
C1308 C1309 1.404 . S
C1308 C1311 1.539 . S
C1309 C1305 1.408 . S
C1309 C1308 1.404 . S
C1309 H1321 0.930 . S
C1310 C1306 1.489 1_565 S
C1310 H1322 0.980 . S
C1310 H1323 0.966 1_565 S
C1310 H1324 0.967 . S
C1311 C1308 1.539 . S
C1311 H1325 0.958 . S
C1311 H1326 0.961 . S
C1311 H1327 0.960 . S
H1312 C1296 0.931 . S
H1313 C1301 0.929 . S
H1314 C1302 0.960 . S
H1315 C1302 0.962 1_565 S
H1316 C1302 0.960 1_565 S
H1317 C1303 0.961 . S
H1318 C1303 0.961 . S
H1319 C1303 0.961 . S
H1320 C1304 0.931 . S
H1321 C1309 0.930 . S
H1322 C1310 0.980 . S
H1323 C1310 0.966 1_545 S
H1324 C1310 0.967 . S
H1325 C1311 0.958 . S
H1326 C1311 0.961 . S
H1327 C1311 0.960 . S
C1328 C1329 1.391 . S
C1328 C1330 1.394 . S
C1328 H1344 0.931 . S
C1329 C1328 1.391 . S
C1329 C1333 1.376 . S
C1330 C1328 1.394 . S
C1330 C1331 1.369 . S
C1330 C1334 1.531 . S
C1331 C1330 1.369 . S
C1331 C1332 1.410 . S
C1331 C1339 1.503 . S
C1332 C1331 1.410 . S
C1332 C1333 1.392 . S
C1332 C1335 1.511 . S
C1333 C1329 1.376 . S
C1333 C1332 1.392 . S
C1333 H1345 0.929 . S
C1334 C1330 1.531 . S
C1334 H1346 0.960 . S
C1334 H1347 0.962 . S
C1334 H1348 0.960 . S
C1335 C1332 1.511 . S
C1335 H1349 0.961 . S
C1335 H1350 0.961 . S
C1335 H1351 0.961 . S
C1336 C1337 1.370 . S
C1336 C1338 1.363 . S
C1336 H1352 0.931 . S
C1337 C1336 1.370 . S
C1337 C1341 1.408 . S
C1338 C1336 1.363 . S
C1338 C1339 1.370 . S
C1338 C1342 1.524 . S
C1339 C1331 1.503 . S
C1339 C1338 1.370 . S
C1339 C1340 1.403 . S
C1340 C1339 1.403 . S
C1340 C1341 1.404 . S
C1340 C1343 1.539 . S
C1341 C1337 1.408 . S
C1341 C1340 1.404 . S
C1341 H1353 0.930 . S
C1342 C1338 1.524 . S
C1342 H1354 0.956 . S
C1342 H1355 0.961 . S
C1342 H1356 0.961 . S
C1343 C1340 1.539 . S
C1343 H1357 0.958 . S
C1343 H1358 0.961 . S
C1343 H1359 0.960 . S
H1344 C1328 0.931 . S
H1345 C1333 0.929 . S
H1346 C1334 0.960 . S
H1347 C1334 0.962 . S
H1348 C1334 0.960 . S
H1349 C1335 0.961 . S
H1350 C1335 0.961 . S
H1351 C1335 0.961 . S
H1352 C1336 0.931 . S
H1353 C1341 0.930 . S
H1354 C1342 0.956 . S
H1355 C1342 0.961 . S
H1356 C1342 0.961 . S
H1357 C1343 0.958 . S
H1358 C1343 0.961 . S
H1359 C1343 0.960 . S
C1360 C1361 1.391 . S
C1360 C1362 1.394 . S
C1360 H1376 0.931 . S
C1361 C1360 1.391 . S
C1361 C1365 1.376 . S
C1362 C1360 1.394 . S
C1362 C1363 1.369 . S
C1362 C1366 1.531 . S
C1363 C1362 1.369 . S
C1363 C1364 1.410 . S
C1363 C1371 1.503 . S
C1364 C1363 1.410 . S
C1364 C1365 1.392 . S
C1364 C1367 1.511 . S
C1365 C1361 1.376 . S
C1365 C1364 1.392 . S
C1365 H1377 0.929 . S
C1366 C1362 1.531 . S
C1366 H1378 0.960 . S
C1366 H1379 0.962 . S
C1366 H1380 0.960 . S
C1367 C1364 1.511 . S
C1367 H1381 0.961 . S
C1367 H1382 0.961 . S
C1367 H1383 0.961 . S
C1368 C1369 1.380 . S
C1368 C1370 1.363 1_455 S
C1368 H1384 0.931 . S
C1369 C1368 1.380 . S
C1369 C1373 1.389 1_455 S
C1370 C1368 1.363 1_655 S
C1370 C1371 1.370 . S
C1370 C1374 1.524 . S
C1371 C1363 1.503 . S
C1371 C1370 1.370 . S
C1371 C1372 1.403 . S
C1372 C1371 1.403 . S
C1372 C1373 1.404 . S
C1372 C1375 1.539 . S
C1373 C1369 1.389 1_655 S
C1373 C1372 1.404 . S
C1373 H1385 0.930 . S
C1374 C1370 1.524 . S
C1374 H1386 0.958 . S
C1374 H1387 0.961 . S
C1374 H1388 0.961 1_655 S
C1375 C1372 1.539 . S
C1375 H1389 0.958 . S
C1375 H1390 0.961 . S
C1375 H1391 0.960 . S
H1376 C1360 0.931 . S
H1377 C1365 0.929 . S
H1378 C1366 0.960 . S
H1379 C1366 0.962 . S
H1380 C1366 0.960 . S
H1381 C1367 0.961 . S
H1382 C1367 0.961 . S
H1383 C1367 0.961 . S
H1384 C1368 0.931 . S
H1385 C1373 0.930 . S
H1386 C1374 0.958 . S
H1387 C1374 0.961 . S
H1388 C1374 0.961 1_455 S
H1389 C1375 0.958 . S
H1390 C1375 0.961 . S
H1391 C1375 0.960 . S
C1392 C1393 1.391 . S
C1392 C1394 1.394 . S
C1392 H1408 0.931 . S
C1393 C1392 1.391 . S
C1393 C1397 1.376 . S
C1394 C1392 1.394 . S
C1394 C1395 1.369 . S
C1394 C1398 1.531 . S
C1395 C1394 1.369 . S
C1395 C1396 1.410 . S
C1395 C1403 1.503 . S
C1396 C1395 1.410 . S
C1396 C1397 1.392 . S
C1396 C1399 1.511 . S
C1397 C1393 1.376 . S
C1397 C1396 1.392 . S
C1397 H1409 0.929 . S
C1398 C1394 1.531 . S
C1398 H1410 0.960 . S
C1398 H1411 0.962 . S
C1398 H1412 0.960 . S
C1399 C1396 1.511 . S
C1399 H1413 0.961 . S
C1399 H1414 0.961 . S
C1399 H1415 0.961 . S
C1400 C1401 1.370 . S
C1400 C1402 1.363 . S
C1400 H1416 0.931 . S
C1401 C1400 1.370 . S
C1401 C1405 1.408 . S
C1402 C1400 1.363 . S
C1402 C1403 1.370 . S
C1402 C1406 1.524 . S
C1403 C1395 1.503 . S
C1403 C1402 1.370 . S
C1403 C1404 1.403 . S
C1404 C1403 1.403 . S
C1404 C1405 1.404 . S
C1404 C1407 1.539 . S
C1405 C1401 1.408 . S
C1405 C1404 1.404 . S
C1405 H1417 0.930 . S
C1406 C1402 1.524 . S
C1406 H1418 0.956 . S
C1406 H1419 0.961 . S
C1406 H1420 0.961 . S
C1407 C1404 1.539 . S
C1407 H1421 0.958 . S
C1407 H1422 0.961 . S
C1407 H1423 0.960 . S
H1408 C1392 0.931 . S
H1409 C1397 0.929 . S
H1410 C1398 0.960 . S
H1411 C1398 0.962 . S
H1412 C1398 0.960 . S
H1413 C1399 0.961 . S
H1414 C1399 0.961 . S
H1415 C1399 0.961 . S
H1416 C1400 0.931 . S
H1417 C1405 0.930 . S
H1418 C1406 0.956 . S
H1419 C1406 0.961 . S
H1420 C1406 0.961 . S
H1421 C1407 0.958 . S
H1422 C1407 0.961 . S
H1423 C1407 0.960 . S
C1424 C1425 1.391 . S
C1424 C1426 1.394 . S
C1424 H1440 0.931 1_545 S
C1425 C1424 1.391 . S
C1425 C1429 1.376 . S
C1426 C1424 1.394 . S
C1426 C1427 1.369 . S
C1426 C1430 1.531 . S
C1427 C1426 1.369 . S
C1427 C1428 1.410 . S
C1427 C1435 1.503 . S
C1428 C1427 1.410 . S
C1428 C1429 1.392 . S
C1428 C1431 1.511 . S
C1429 C1425 1.376 . S
C1429 C1428 1.392 . S
C1429 H1441 0.929 . S
C1430 C1426 1.531 . S
C1430 H1442 0.960 . S
C1430 H1443 0.962 . S
C1430 H1444 0.960 . S
C1431 C1428 1.511 . S
C1431 H1445 0.961 . S
C1431 H1446 0.961 . S
C1431 H1447 0.961 . S
C1432 C1433 1.370 . S
C1432 C1434 1.363 . S
C1432 H1448 0.931 . S
C1433 C1432 1.370 . S
C1433 C1437 1.408 . S
C1434 C1432 1.363 . S
C1434 C1435 1.370 . S
C1434 C1438 1.524 . S
C1435 C1427 1.503 . S
C1435 C1434 1.370 . S
C1435 C1436 1.403 . S
C1436 C1435 1.403 . S
C1436 C1437 1.404 . S
C1436 C1439 1.539 . S
C1437 C1433 1.408 . S
C1437 C1436 1.404 . S
C1437 H1449 0.930 . S
C1438 C1434 1.524 . S
C1438 H1450 0.956 . S
C1438 H1451 0.961 . S
C1438 H1452 0.961 . S
C1439 C1436 1.539 . S
C1439 H1453 0.958 . S
C1439 H1454 0.961 . S
C1439 H1455 0.960 . S
H1440 C1424 0.931 1_565 S
H1441 C1429 0.929 . S
H1442 C1430 0.960 . S
H1443 C1430 0.962 . S
H1444 C1430 0.960 . S
H1445 C1431 0.961 . S
H1446 C1431 0.961 . S
H1447 C1431 0.961 . S
H1448 C1432 0.931 . S
H1449 C1437 0.930 . S
H1450 C1438 0.956 . S
H1451 C1438 0.961 . S
H1452 C1438 0.961 . S
H1453 C1439 0.958 . S
H1454 C1439 0.961 . S
H1455 C1439 0.960 . S
C1456 C1457 1.391 . S
C1456 C1458 1.394 . S
C1456 H1472 0.931 . S
C1457 C1456 1.391 . S
C1457 C1461 1.376 . S
C1458 C1456 1.394 . S
C1458 C1459 1.369 . S
C1458 C1462 1.531 . S
C1459 C1458 1.369 . S
C1459 C1460 1.410 . S
C1459 C1467 1.503 . S
C1460 C1459 1.410 . S
C1460 C1461 1.392 . S
C1460 C1463 1.511 . S
C1461 C1457 1.376 . S
C1461 C1460 1.392 . S
C1461 H1473 0.929 . S
C1462 C1458 1.531 . S
C1462 H1474 0.960 . S
C1462 H1475 0.962 . S
C1462 H1476 0.960 . S
C1463 C1460 1.511 . S
C1463 H1477 0.961 . S
C1463 H1478 0.961 . S
C1463 H1479 0.961 . S
C1464 C1465 1.370 . S
C1464 C1466 1.363 . S
C1464 H1480 0.931 . S
C1465 C1464 1.370 . S
C1465 C1469 1.408 . S
C1466 C1464 1.363 . S
C1466 C1467 1.370 . S
C1466 C1470 1.524 . S
C1467 C1459 1.503 . S
C1467 C1466 1.370 . S
C1467 C1468 1.403 . S
C1468 C1467 1.403 . S
C1468 C1469 1.404 . S
C1468 C1471 1.539 . S
C1469 C1465 1.408 . S
C1469 C1468 1.404 . S
C1469 H1481 0.930 . S
C1470 C1466 1.524 . S
C1470 H1482 0.956 . S
C1470 H1483 0.961 . S
C1470 H1484 0.961 . S
C1471 C1468 1.539 . S
C1471 H1485 0.958 . S
C1471 H1486 0.961 . S
C1471 H1487 0.960 . S
H1472 C1456 0.931 . S
H1473 C1461 0.929 . S
H1474 C1462 0.960 . S
H1475 C1462 0.962 . S
H1476 C1462 0.960 . S
H1477 C1463 0.961 . S
H1478 C1463 0.961 . S
H1479 C1463 0.961 . S
H1480 C1464 0.931 . S
H1481 C1469 0.930 . S
H1482 C1470 0.956 . S
H1483 C1470 0.961 . S
H1484 C1470 0.961 . S
H1485 C1471 0.958 . S
H1486 C1471 0.961 . S
H1487 C1471 0.960 . S
C1488 C1489 1.391 . S
C1488 C1490 1.394 1_565 S
C1488 H1504 0.931 1_565 S
C1489 C1488 1.391 . S
C1489 C1493 1.376 . S
C1490 C1488 1.394 1_545 S
C1490 C1491 1.369 1_545 S
C1490 C1494 1.531 . S
C1491 C1490 1.369 1_565 S
C1491 C1492 1.410 . S
C1491 C1499 1.503 1_565 S
C1492 C1491 1.410 . S
C1492 C1493 1.392 . S
C1492 C1495 1.511 . S
C1493 C1489 1.376 . S
C1493 C1492 1.392 . S
C1493 H1505 0.929 . S
C1494 C1490 1.531 . S
C1494 H1506 0.960 . S
C1494 H1507 0.962 . S
C1494 H1508 0.960 . S
C1495 C1492 1.511 . S
C1495 H1509 0.961 . S
C1495 H1510 0.961 . S
C1495 H1511 0.961 . S
C1496 C1497 1.370 . S
C1496 C1498 1.363 . S
C1496 H1512 0.931 . S
C1497 C1496 1.370 . S
C1497 C1501 1.408 . S
C1498 C1496 1.363 . S
C1498 C1499 1.370 . S
C1498 C1502 1.513 1_545 S
C1499 C1491 1.503 1_545 S
C1499 C1498 1.370 . S
C1499 C1500 1.403 . S
C1500 C1499 1.403 . S
C1500 C1501 1.404 . S
C1500 C1503 1.539 . S
C1501 C1497 1.408 . S
C1501 C1500 1.404 . S
C1501 H1513 0.930 . S
C1502 C1498 1.513 1_565 S
C1502 H1514 0.949 1_565 S
C1502 H1515 0.982 . S
C1502 H1516 0.958 1_565 S
C1503 C1500 1.539 . S
C1503 H1517 0.958 . S
C1503 H1518 0.962 . S
C1503 H1519 0.960 1_545 S
H1504 C1488 0.931 1_545 S
H1505 C1493 0.929 . S
H1506 C1494 0.960 . S
H1507 C1494 0.962 . S
H1508 C1494 0.960 . S
H1509 C1495 0.961 . S
H1510 C1495 0.961 . S
H1511 C1495 0.961 . S
H1512 C1496 0.931 . S
H1513 C1501 0.930 . S
H1514 C1502 0.949 1_545 S
H1515 C1502 0.982 . S
H1516 C1502 0.958 1_545 S
H1517 C1503 0.958 . S
H1518 C1503 0.962 . S
H1519 C1503 0.960 1_565 S
C1520 C1521 1.391 . S
C1520 C1522 1.394 . S
C1520 H1536 0.931 . S
C1521 C1520 1.391 . S
C1521 C1525 1.376 . S
C1522 C1520 1.394 . S
C1522 C1523 1.369 . S
C1522 C1526 1.531 . S
C1523 C1522 1.369 . S
C1523 C1524 1.410 . S
C1523 C1531 1.503 . S
C1524 C1523 1.410 . S
C1524 C1525 1.392 . S
C1524 C1527 1.511 . S
C1525 C1521 1.376 . S
C1525 C1524 1.392 . S
C1525 H1537 0.929 . S
C1526 C1522 1.531 . S
C1526 H1538 0.960 . S
C1526 H1539 0.962 . S
C1526 H1540 0.960 . S
C1527 C1524 1.511 . S
C1527 H1541 0.961 . S
C1527 H1542 0.961 . S
C1527 H1543 0.961 . S
C1528 C1529 1.370 . S
C1528 C1530 1.363 . S
C1528 H1544 0.931 1_554 S
C1529 C1528 1.370 . S
C1529 C1533 1.408 . S
C1530 C1528 1.363 . S
C1530 C1531 1.370 . S
C1530 C1534 1.524 1_554 S
C1531 C1523 1.503 . S
C1531 C1530 1.370 . S
C1531 C1532 1.403 . S
C1532 C1531 1.403 . S
C1532 C1533 1.404 . S
C1532 C1535 1.539 . S
C1533 C1529 1.408 . S
C1533 C1532 1.404 . S
C1533 H1545 0.930 . S
C1534 C1530 1.524 1_556 S
C1534 H1546 0.956 . S
C1534 H1547 0.961 . S
C1534 H1548 0.961 . S
C1535 C1532 1.539 . S
C1535 H1549 0.958 . S
C1535 H1550 0.961 . S
C1535 H1551 0.960 . S
H1536 C1520 0.931 . S
H1537 C1525 0.929 . S
H1538 C1526 0.960 . S
H1539 C1526 0.962 . S
H1540 C1526 0.960 . S
H1541 C1527 0.961 . S
H1542 C1527 0.961 . S
H1543 C1527 0.961 . S
H1544 C1528 0.931 1_556 S
H1545 C1533 0.930 . S
H1546 C1534 0.956 . S
H1547 C1534 0.961 . S
H1548 C1534 0.961 . S
H1549 C1535 0.958 . S
H1550 C1535 0.961 . S
H1551 C1535 0.960 . S
C1552 C1553 1.391 . S
C1552 C1554 1.394 . S
C1552 H1568 0.931 . S
C1553 C1552 1.391 . S
C1553 C1557 1.376 . S
C1554 C1552 1.394 . S
C1554 C1555 1.369 . S
C1554 C1558 1.531 . S
C1555 C1554 1.369 . S
C1555 C1556 1.410 . S
C1555 C1563 1.503 . S
C1556 C1555 1.410 . S
C1556 C1557 1.392 . S
C1556 C1559 1.511 . S
C1557 C1553 1.376 . S
C1557 C1556 1.392 . S
C1557 H1569 0.929 . S
C1558 C1554 1.531 . S
C1558 H1570 0.960 . S
C1558 H1571 0.962 . S
C1558 H1572 0.960 . S
C1559 C1556 1.511 . S
C1559 H1573 0.961 . S
C1559 H1574 0.961 . S
C1559 H1575 0.961 . S
C1560 C1561 1.370 . S
C1560 C1562 1.363 . S
C1560 H1576 0.931 . S
C1561 C1560 1.370 . S
C1561 C1565 1.408 . S
C1562 C1560 1.363 . S
C1562 C1563 1.370 . S
C1562 C1566 1.524 . S
C1563 C1555 1.503 . S
C1563 C1562 1.370 . S
C1563 C1564 1.403 . S
C1564 C1563 1.403 . S
C1564 C1565 1.404 . S
C1564 C1567 1.539 . S
C1565 C1561 1.408 . S
C1565 C1564 1.404 . S
C1565 H1577 0.930 . S
C1566 C1562 1.524 . S
C1566 H1578 0.956 . S
C1566 H1579 0.961 . S
C1566 H1580 0.961 . S
C1567 C1564 1.539 . S
C1567 H1581 0.958 . S
C1567 H1582 0.961 . S
C1567 H1583 0.960 . S
H1568 C1552 0.931 . S
H1569 C1557 0.929 . S
H1570 C1558 0.960 . S
H1571 C1558 0.962 . S
H1572 C1558 0.960 . S
H1573 C1559 0.961 . S
H1574 C1559 0.961 . S
H1575 C1559 0.961 . S
H1576 C1560 0.931 . S
H1577 C1565 0.930 . S
H1578 C1566 0.956 . S
H1579 C1566 0.961 . S
H1580 C1566 0.961 . S
H1581 C1567 0.958 . S
H1582 C1567 0.961 . S
H1583 C1567 0.960 . S
C1584 C1585 1.391 . S
C1584 C1586 1.394 . S
C1584 H1600 0.931 . S
C1585 C1584 1.391 . S
C1585 C1589 1.376 . S
C1586 C1584 1.394 . S
C1586 C1587 1.369 . S
C1586 C1590 1.531 . S
C1587 C1586 1.369 . S
C1587 C1588 1.410 . S
C1587 C1595 1.503 . S
C1588 C1587 1.410 . S
C1588 C1589 1.392 . S
C1588 C1591 1.511 . S
C1589 C1585 1.376 . S
C1589 C1588 1.392 . S
C1589 H1601 0.929 . S
C1590 C1586 1.531 . S
C1590 H1602 0.960 . S
C1590 H1603 0.962 . S
C1590 H1604 0.960 . S
C1591 C1588 1.511 . S
C1591 H1605 0.961 . S
C1591 H1606 0.961 . S
C1591 H1607 0.961 . S
C1592 C1593 1.370 . S
C1592 C1594 1.363 . S
C1592 H1608 0.931 . S
C1593 C1592 1.370 . S
C1593 C1597 1.408 . S
C1594 C1592 1.363 . S
C1594 C1595 1.370 . S
C1594 C1598 1.524 . S
C1595 C1587 1.503 . S
C1595 C1594 1.370 . S
C1595 C1596 1.403 . S
C1596 C1595 1.403 . S
C1596 C1597 1.404 . S
C1596 C1599 1.539 . S
C1597 C1593 1.408 . S
C1597 C1596 1.404 . S
C1597 H1609 0.930 . S
C1598 C1594 1.524 . S
C1598 H1610 0.956 . S
C1598 H1611 0.961 . S
C1598 H1612 0.961 . S
C1599 C1596 1.539 . S
C1599 H1613 0.958 . S
C1599 H1614 0.961 . S
C1599 H1615 0.960 . S
H1600 C1584 0.931 . S
H1601 C1589 0.929 . S
H1602 C1590 0.960 . S
H1603 C1590 0.962 . S
H1604 C1590 0.960 . S
H1605 C1591 0.961 . S
H1606 C1591 0.961 . S
H1607 C1591 0.961 . S
H1608 C1592 0.931 . S
H1609 C1597 0.930 . S
H1610 C1598 0.956 . S
H1611 C1598 0.961 . S
H1612 C1598 0.961 . S
H1613 C1599 0.958 . S
H1614 C1599 0.961 . S
H1615 C1599 0.960 . S
C1616 C1617 1.391 . S
C1616 C1618 1.394 . S
C1616 H1632 0.931 . S
C1617 C1616 1.391 . S
C1617 C1621 1.376 . S
C1618 C1616 1.394 . S
C1618 C1619 1.369 . S
C1618 C1622 1.531 . S
C1619 C1618 1.369 . S
C1619 C1620 1.410 . S
C1619 C1627 1.503 . S
C1620 C1619 1.410 . S
C1620 C1621 1.392 . S
C1620 C1623 1.511 . S
C1621 C1617 1.376 . S
C1621 C1620 1.392 . S
C1621 H1633 0.929 . S
C1622 C1618 1.531 . S
C1622 H1634 0.960 . S
C1622 H1635 0.962 . S
C1622 H1636 0.960 . S
C1623 C1620 1.511 . S
C1623 H1637 0.961 . S
C1623 H1638 0.961 . S
C1623 H1639 0.961 . S
C1624 C1625 1.370 . S
C1624 C1626 1.363 . S
C1624 H1640 0.931 . S
C1625 C1624 1.370 . S
C1625 C1629 1.408 . S
C1626 C1624 1.363 . S
C1626 C1627 1.370 . S
C1626 C1630 1.524 . S
C1627 C1619 1.503 . S
C1627 C1626 1.370 . S
C1627 C1628 1.403 . S
C1628 C1627 1.403 . S
C1628 C1629 1.404 . S
C1628 C1631 1.539 . S
C1629 C1625 1.408 . S
C1629 C1628 1.404 . S
C1629 H1641 0.930 . S
C1630 C1626 1.524 . S
C1630 H1642 0.956 . S
C1630 H1643 0.961 . S
C1630 H1644 0.961 . S
C1631 C1628 1.539 . S
C1631 H1645 0.958 . S
C1631 H1646 0.961 . S
C1631 H1647 0.960 . S
H1632 C1616 0.931 . S
H1633 C1621 0.929 . S
H1634 C1622 0.960 . S
H1635 C1622 0.962 . S
H1636 C1622 0.960 . S
H1637 C1623 0.961 . S
H1638 C1623 0.961 . S
H1639 C1623 0.961 . S
H1640 C1624 0.931 . S
H1641 C1629 0.930 . S
H1642 C1630 0.956 . S
H1643 C1630 0.961 . S
H1644 C1630 0.961 . S
H1645 C1631 0.958 . S
H1646 C1631 0.961 . S
H1647 C1631 0.960 . S
C1648 C1649 1.391 . S
C1648 C1650 1.394 . S
C1648 H1664 0.931 . S
C1649 C1648 1.391 . S
C1649 C1653 1.376 . S
C1650 C1648 1.394 . S
C1650 C1651 1.369 . S
C1650 C1654 1.531 . S
C1651 C1650 1.369 . S
C1651 C1652 1.410 . S
C1651 C1659 1.503 . S
C1652 C1651 1.410 . S
C1652 C1653 1.392 . S
C1652 C1655 1.511 . S
C1653 C1649 1.376 . S
C1653 C1652 1.392 . S
C1653 H1665 0.929 . S
C1654 C1650 1.531 . S
C1654 H1666 0.960 . S
C1654 H1667 0.962 . S
C1654 H1668 0.960 . S
C1655 C1652 1.511 . S
C1655 H1669 0.961 . S
C1655 H1670 0.961 . S
C1655 H1671 0.961 . S
C1656 C1657 1.370 . S
C1656 C1658 1.363 . S
C1656 H1672 0.931 . S
C1657 C1656 1.370 . S
C1657 C1661 1.408 . S
C1658 C1656 1.363 . S
C1658 C1659 1.370 . S
C1658 C1662 1.524 . S
C1659 C1651 1.503 . S
C1659 C1658 1.370 . S
C1659 C1660 1.403 . S
C1660 C1659 1.403 . S
C1660 C1661 1.404 . S
C1660 C1663 1.539 . S
C1661 C1657 1.408 . S
C1661 C1660 1.404 . S
C1661 H1673 0.930 . S
C1662 C1658 1.524 . S
C1662 H1674 0.956 . S
C1662 H1675 0.961 . S
C1662 H1676 0.961 . S
C1663 C1660 1.539 . S
C1663 H1677 0.958 . S
C1663 H1678 0.961 . S
C1663 H1679 0.960 . S
H1664 C1648 0.931 . S
H1665 C1653 0.929 . S
H1666 C1654 0.960 . S
H1667 C1654 0.962 . S
H1668 C1654 0.960 . S
H1669 C1655 0.961 . S
H1670 C1655 0.961 . S
H1671 C1655 0.961 . S
H1672 C1656 0.931 . S
H1673 C1661 0.930 . S
H1674 C1662 0.956 . S
H1675 C1662 0.961 . S
H1676 C1662 0.961 . S
H1677 C1663 0.958 . S
H1678 C1663 0.961 . S
H1679 C1663 0.960 . S
C1680 C1681 1.391 . S
C1680 C1682 1.394 . S
C1680 H1696 0.931 . S
C1681 C1680 1.391 . S
C1681 C1685 1.376 . S
C1682 C1680 1.394 . S
C1682 C1683 1.369 . S
C1682 C1686 1.531 . S
C1683 C1682 1.369 . S
C1683 C1684 1.410 . S
C1683 C1691 1.503 . S
C1684 C1683 1.410 . S
C1684 C1685 1.392 . S
C1684 C1687 1.511 . S
C1685 C1681 1.376 . S
C1685 C1684 1.392 . S
C1685 H1697 0.929 . S
C1686 C1682 1.531 . S
C1686 H1698 0.960 . S
C1686 H1699 0.962 . S
C1686 H1700 0.960 . S
C1687 C1684 1.511 . S
C1687 H1701 0.961 . S
C1687 H1702 0.961 . S
C1687 H1703 0.961 . S
C1688 C1689 1.370 . S
C1688 C1690 1.363 . S
C1688 H1704 0.931 . S
C1689 C1688 1.370 . S
C1689 C1693 1.408 . S
C1690 C1688 1.363 . S
C1690 C1691 1.370 . S
C1690 C1694 1.524 . S
C1691 C1683 1.503 . S
C1691 C1690 1.370 . S
C1691 C1692 1.403 . S
C1692 C1691 1.403 . S
C1692 C1693 1.404 . S
C1692 C1695 1.539 . S
C1693 C1689 1.408 . S
C1693 C1692 1.404 . S
C1693 H1705 0.930 . S
C1694 C1690 1.524 . S
C1694 H1706 0.956 . S
C1694 H1707 0.961 . S
C1694 H1708 0.961 . S
C1695 C1692 1.539 . S
C1695 H1709 0.958 . S
C1695 H1710 0.961 . S
C1695 H1711 0.960 . S
H1696 C1680 0.931 . S
H1697 C1685 0.929 . S
H1698 C1686 0.960 . S
H1699 C1686 0.962 . S
H1700 C1686 0.960 . S
H1701 C1687 0.961 . S
H1702 C1687 0.961 . S
H1703 C1687 0.961 . S
H1704 C1688 0.931 . S
H1705 C1693 0.930 . S
H1706 C1694 0.956 . S
H1707 C1694 0.961 . S
H1708 C1694 0.961 . S
H1709 C1695 0.958 . S
H1710 C1695 0.961 . S
H1711 C1695 0.960 . S
C1712 C1713 1.391 . S
C1712 C1714 1.394 . S
C1712 H1728 0.931 . S
C1713 C1712 1.391 . S
C1713 C1717 1.376 . S
C1714 C1712 1.394 . S
C1714 C1715 1.369 . S
C1714 C1718 1.531 . S
C1715 C1714 1.369 . S
C1715 C1716 1.410 . S
C1715 C1723 1.503 . S
C1716 C1715 1.410 . S
C1716 C1717 1.392 . S
C1716 C1719 1.511 . S
C1717 C1713 1.376 . S
C1717 C1716 1.392 . S
C1717 H1729 0.929 . S
C1718 C1714 1.531 . S
C1718 H1730 0.960 . S
C1718 H1731 0.962 . S
C1718 H1732 0.960 . S
C1719 C1716 1.511 . S
C1719 H1733 0.961 . S
C1719 H1734 0.961 . S
C1719 H1735 0.961 . S
C1720 C1721 1.370 . S
C1720 C1722 1.363 . S
C1720 H1736 0.931 . S
C1721 C1720 1.370 . S
C1721 C1725 1.408 . S
C1722 C1720 1.363 . S
C1722 C1723 1.370 . S
C1722 C1726 1.524 . S
C1723 C1715 1.503 . S
C1723 C1722 1.370 . S
C1723 C1724 1.403 . S
C1724 C1723 1.403 . S
C1724 C1725 1.404 . S
C1724 C1727 1.539 . S
C1725 C1721 1.408 . S
C1725 C1724 1.404 . S
C1725 H1737 0.930 . S
C1726 C1722 1.524 . S
C1726 H1738 0.956 . S
C1726 H1739 0.961 . S
C1726 H1740 0.961 . S
C1727 C1724 1.539 . S
C1727 H1741 0.958 . S
C1727 H1742 0.961 . S
C1727 H1743 0.960 . S
H1728 C1712 0.931 . S
H1729 C1717 0.929 . S
H1730 C1718 0.960 . S
H1731 C1718 0.962 . S
H1732 C1718 0.960 . S
H1733 C1719 0.961 . S
H1734 C1719 0.961 . S
H1735 C1719 0.961 . S
H1736 C1720 0.931 . S
H1737 C1725 0.930 . S
H1738 C1726 0.956 . S
H1739 C1726 0.961 . S
H1740 C1726 0.961 . S
H1741 C1727 0.958 . S
H1742 C1727 0.961 . S
H1743 C1727 0.960 . S
C1744 C1745 1.391 . S
C1744 C1746 1.394 . S
C1744 H1760 0.931 . S
C1745 C1744 1.391 . S
C1745 C1749 1.376 . S
C1746 C1744 1.394 . S
C1746 C1747 1.369 . S
C1746 C1750 1.531 . S
C1747 C1746 1.369 . S
C1747 C1748 1.410 . S
C1747 C1755 1.503 . S
C1748 C1747 1.410 . S
C1748 C1749 1.392 . S
C1748 C1751 1.511 . S
C1749 C1745 1.376 . S
C1749 C1748 1.392 . S
C1749 H1761 0.929 . S
C1750 C1746 1.531 . S
C1750 H1762 0.960 . S
C1750 H1763 0.962 . S
C1750 H1764 0.960 . S
C1751 C1748 1.511 . S
C1751 H1765 0.961 . S
C1751 H1766 0.961 . S
C1751 H1767 0.961 . S
C1752 C1753 1.370 . S
C1752 C1754 1.363 . S
C1752 H1768 0.931 1_565 S
C1753 C1752 1.370 . S
C1753 C1757 1.408 . S
C1754 C1752 1.363 . S
C1754 C1755 1.370 . S
C1754 C1758 1.524 . S
C1755 C1747 1.503 . S
C1755 C1754 1.370 . S
C1755 C1756 1.403 . S
C1756 C1755 1.403 . S
C1756 C1757 1.404 . S
C1756 C1759 1.539 . S
C1757 C1753 1.408 . S
C1757 C1756 1.404 . S
C1757 H1769 0.930 . S
C1758 C1754 1.524 . S
C1758 H1770 0.956 . S
C1758 H1771 0.961 . S
C1758 H1772 0.961 . S
C1759 C1756 1.539 . S
C1759 H1773 0.958 . S
C1759 H1774 0.961 . S
C1759 H1775 0.960 . S
H1760 C1744 0.931 . S
H1761 C1749 0.929 . S
H1762 C1750 0.960 . S
H1763 C1750 0.962 . S
H1764 C1750 0.960 . S
H1765 C1751 0.961 . S
H1766 C1751 0.961 . S
H1767 C1751 0.961 . S
H1768 C1752 0.931 1_545 S
H1769 C1757 0.930 . S
H1770 C1758 0.956 . S
H1771 C1758 0.961 . S
H1772 C1758 0.961 . S
H1773 C1759 0.958 . S
H1774 C1759 0.961 . S
H1775 C1759 0.960 . S
C1776 C1777 1.391 . S
C1776 C1778 1.394 . S
C1776 H1792 0.931 . S
C1777 C1776 1.391 . S
C1777 C1781 1.376 . S
C1778 C1776 1.394 . S
C1778 C1779 1.369 . S
C1778 C1782 1.531 . S
C1779 C1778 1.369 . S
C1779 C1780 1.410 . S
C1779 C1787 1.503 . S
C1780 C1779 1.410 . S
C1780 C1781 1.392 . S
C1780 C1783 1.511 . S
C1781 C1777 1.376 . S
C1781 C1780 1.392 . S
C1781 H1793 0.929 . S
C1782 C1778 1.531 . S
C1782 H1794 0.960 . S
C1782 H1795 0.962 . S
C1782 H1796 0.960 . S
C1783 C1780 1.511 . S
C1783 H1797 0.961 . S
C1783 H1798 0.961 . S
C1783 H1799 0.961 . S
C1784 C1785 1.370 . S
C1784 C1786 1.363 . S
C1784 H1800 0.931 . S
C1785 C1784 1.370 . S
C1785 C1789 1.408 . S
C1786 C1784 1.363 . S
C1786 C1787 1.370 . S
C1786 C1790 1.524 . S
C1787 C1779 1.503 . S
C1787 C1786 1.370 . S
C1787 C1788 1.403 . S
C1788 C1787 1.403 . S
C1788 C1789 1.404 . S
C1788 C1791 1.539 . S
C1789 C1785 1.408 . S
C1789 C1788 1.404 . S
C1789 H1801 0.930 . S
C1790 C1786 1.524 . S
C1790 H1802 0.956 . S
C1790 H1803 0.961 . S
C1790 H1804 0.961 . S
C1791 C1788 1.539 . S
C1791 H1805 0.958 . S
C1791 H1806 0.961 . S
C1791 H1807 0.960 . S
H1792 C1776 0.931 . S
H1793 C1781 0.929 . S
H1794 C1782 0.960 . S
H1795 C1782 0.962 . S
H1796 C1782 0.960 . S
H1797 C1783 0.961 . S
H1798 C1783 0.961 . S
H1799 C1783 0.961 . S
H1800 C1784 0.931 . S
H1801 C1789 0.930 . S
H1802 C1790 0.956 . S
H1803 C1790 0.961 . S
H1804 C1790 0.961 . S
H1805 C1791 0.958 . S
H1806 C1791 0.961 . S
H1807 C1791 0.960 . S
C1808 C1809 1.391 . S
C1808 C1810 1.394 . S
C1808 H1824 0.931 . S
C1809 C1808 1.391 . S
C1809 C1813 1.376 . S
C1810 C1808 1.394 . S
C1810 C1811 1.369 . S
C1810 C1814 1.531 . S
C1811 C1810 1.369 . S
C1811 C1812 1.410 . S
C1811 C1819 1.503 . S
C1812 C1811 1.410 . S
C1812 C1813 1.392 . S
C1812 C1815 1.511 . S
C1813 C1809 1.376 . S
C1813 C1812 1.392 . S
C1813 H1825 0.929 . S
C1814 C1810 1.531 . S
C1814 H1826 0.960 . S
C1814 H1827 0.962 . S
C1814 H1828 0.960 . S
C1815 C1812 1.511 . S
C1815 H1829 0.961 . S
C1815 H1830 0.961 . S
C1815 H1831 0.961 . S
C1816 C1817 1.370 . S
C1816 C1818 1.363 . S
C1816 H1832 0.931 . S
C1817 C1816 1.370 . S
C1817 C1821 1.408 . S
C1818 C1816 1.363 . S
C1818 C1819 1.370 . S
C1818 C1822 1.524 . S
C1819 C1811 1.503 . S
C1819 C1818 1.370 . S
C1819 C1820 1.403 . S
C1820 C1819 1.403 . S
C1820 C1821 1.404 . S
C1820 C1823 1.539 . S
C1821 C1817 1.408 . S
C1821 C1820 1.404 . S
C1821 H1833 0.930 . S
C1822 C1818 1.524 . S
C1822 H1834 0.956 . S
C1822 H1835 0.961 . S
C1822 H1836 0.961 . S
C1823 C1820 1.539 . S
C1823 H1837 0.958 . S
C1823 H1838 0.961 . S
C1823 H1839 0.960 . S
H1824 C1808 0.931 . S
H1825 C1813 0.929 . S
H1826 C1814 0.960 . S
H1827 C1814 0.962 . S
H1828 C1814 0.960 . S
H1829 C1815 0.961 . S
H1830 C1815 0.961 . S
H1831 C1815 0.961 . S
H1832 C1816 0.931 . S
H1833 C1821 0.930 . S
H1834 C1822 0.956 . S
H1835 C1822 0.961 . S
H1836 C1822 0.961 . S
H1837 C1823 0.958 . S
H1838 C1823 0.961 . S
H1839 C1823 0.960 . S
C1840 C1841 1.391 . S
C1840 C1842 1.394 . S
C1840 H1856 0.931 . S
C1841 C1840 1.391 . S
C1841 C1845 1.376 . S
C1842 C1840 1.394 . S
C1842 C1843 1.369 . S
C1842 C1846 1.531 . S
C1843 C1842 1.369 . S
C1843 C1844 1.410 . S
C1843 C1851 1.503 . S
C1844 C1843 1.410 . S
C1844 C1845 1.392 . S
C1844 C1847 1.511 . S
C1845 C1841 1.376 . S
C1845 C1844 1.392 . S
C1845 H1857 0.929 . S
C1846 C1842 1.531 . S
C1846 H1858 0.960 . S
C1846 H1859 0.962 . S
C1846 H1860 0.960 . S
C1847 C1844 1.511 . S
C1847 H1861 0.961 . S
C1847 H1862 0.961 . S
C1847 H1863 0.961 . S
C1848 C1849 1.370 . S
C1848 C1850 1.363 . S
C1848 H1864 0.931 . S
C1849 C1848 1.370 . S
C1849 C1853 1.408 . S
C1850 C1848 1.363 . S
C1850 C1851 1.370 . S
C1850 C1854 1.524 . S
C1851 C1843 1.503 . S
C1851 C1850 1.370 . S
C1851 C1852 1.403 . S
C1852 C1851 1.403 . S
C1852 C1853 1.404 . S
C1852 C1855 1.539 . S
C1853 C1849 1.408 . S
C1853 C1852 1.404 . S
C1853 H1865 0.930 . S
C1854 C1850 1.524 . S
C1854 H1866 0.956 . S
C1854 H1867 0.961 . S
C1854 H1868 0.961 . S
C1855 C1852 1.539 . S
C1855 H1869 0.958 . S
C1855 H1870 0.961 . S
C1855 H1871 0.960 . S
H1856 C1840 0.931 . S
H1857 C1845 0.929 . S
H1858 C1846 0.960 . S
H1859 C1846 0.962 . S
H1860 C1846 0.960 . S
H1861 C1847 0.961 . S
H1862 C1847 0.961 . S
H1863 C1847 0.961 . S
H1864 C1848 0.931 . S
H1865 C1853 0.930 . S
H1866 C1854 0.956 . S
H1867 C1854 0.961 . S
H1868 C1854 0.961 . S
H1869 C1855 0.958 . S
H1870 C1855 0.961 . S
H1871 C1855 0.960 . S
C1872 C1873 1.391 1_655 S
C1872 C1874 1.394 1_655 S
C1872 H1888 0.931 . S
C1873 C1872 1.391 1_455 S
C1873 C1877 1.376 . S
C1874 C1872 1.394 1_455 S
C1874 C1875 1.369 . S
C1874 C1878 1.531 1_455 S
C1875 C1874 1.369 . S
C1875 C1876 1.410 . S
C1875 C1883 1.503 . S
C1876 C1875 1.410 . S
C1876 C1877 1.392 . S
C1876 C1879 1.511 . S
C1877 C1873 1.376 . S
C1877 C1876 1.392 . S
C1877 H1889 0.929 . S
C1878 C1874 1.531 1_655 S
C1878 H1890 0.960 . S
C1878 H1891 0.962 . S
C1878 H1892 0.960 . S
C1879 C1876 1.511 . S
C1879 H1893 0.961 . S
C1879 H1894 0.961 . S
C1879 H1895 0.961 . S
C1880 C1881 1.370 . S
C1880 C1882 1.363 . S
C1880 H1896 0.931 . S
C1881 C1880 1.370 . S
C1881 C1885 1.408 . S
C1882 C1880 1.363 . S
C1882 C1883 1.370 . S
C1882 C1886 1.524 1_455 S
C1883 C1875 1.503 . S
C1883 C1882 1.370 . S
C1883 C1884 1.403 . S
C1884 C1883 1.403 . S
C1884 C1885 1.404 . S
C1884 C1887 1.539 . S
C1885 C1881 1.408 . S
C1885 C1884 1.404 . S
C1885 H1897 0.930 . S
C1886 C1882 1.524 1_655 S
C1886 H1898 0.956 . S
C1886 H1899 0.961 1_655 S
C1886 H1900 0.961 . S
C1887 C1884 1.539 . S
C1887 H1901 0.958 . S
C1887 H1902 0.961 . S
C1887 H1903 0.960 . S
H1888 C1872 0.931 . S
H1889 C1877 0.929 . S
H1890 C1878 0.960 . S
H1891 C1878 0.962 . S
H1892 C1878 0.960 . S
H1893 C1879 0.961 . S
H1894 C1879 0.961 . S
H1895 C1879 0.961 . S
H1896 C1880 0.931 . S
H1897 C1885 0.930 . S
H1898 C1886 0.956 . S
H1899 C1886 0.961 1_455 S
H1900 C1886 0.961 . S
H1901 C1887 0.958 . S
H1902 C1887 0.961 . S
H1903 C1887 0.960 . S
C1904 C1905 1.391 . S
C1904 C1906 1.394 . S
C1904 H1920 0.931 . S
C1905 C1904 1.391 . S
C1905 C1909 1.376 . S
C1906 C1904 1.394 . S
C1906 C1907 1.369 . S
C1906 C1910 1.531 . S
C1907 C1906 1.369 . S
C1907 C1908 1.410 . S
C1907 C1915 1.503 . S
C1908 C1907 1.410 . S
C1908 C1909 1.392 . S
C1908 C1911 1.511 . S
C1909 C1905 1.376 . S
C1909 C1908 1.392 . S
C1909 H1921 0.929 . S
C1910 C1906 1.531 . S
C1910 H1922 0.960 . S
C1910 H1923 0.962 . S
C1910 H1924 0.960 . S
C1911 C1908 1.511 . S
C1911 H1925 0.961 . S
C1911 H1926 0.961 . S
C1911 H1927 0.961 . S
C1912 C1913 1.370 . S
C1912 C1914 1.363 . S
C1912 H1928 0.931 . S
C1913 C1912 1.370 . S
C1913 C1917 1.408 . S
C1914 C1912 1.363 . S
C1914 C1915 1.370 . S
C1914 C1918 1.524 . S
C1915 C1907 1.503 . S
C1915 C1914 1.370 . S
C1915 C1916 1.403 . S
C1916 C1915 1.403 . S
C1916 C1917 1.404 . S
C1916 C1919 1.539 . S
C1917 C1913 1.408 . S
C1917 C1916 1.404 . S
C1917 H1929 0.930 . S
C1918 C1914 1.524 . S
C1918 H1930 0.956 . S
C1918 H1931 0.961 . S
C1918 H1932 0.961 . S
C1919 C1916 1.539 . S
C1919 H1933 0.958 . S
C1919 H1934 0.961 . S
C1919 H1935 0.960 . S
H1920 C1904 0.931 . S
H1921 C1909 0.929 . S
H1922 C1910 0.960 . S
H1923 C1910 0.962 . S
H1924 C1910 0.960 . S
H1925 C1911 0.961 . S
H1926 C1911 0.961 . S
H1927 C1911 0.961 . S
H1928 C1912 0.931 . S
H1929 C1917 0.930 . S
H1930 C1918 0.956 . S
H1931 C1918 0.961 . S
H1932 C1918 0.961 . S
H1933 C1919 0.958 . S
H1934 C1919 0.961 . S
H1935 C1919 0.960 . S
C1936 C1937 1.391 . S
C1936 C1938 1.394 . S
C1936 H1952 0.931 . S
C1937 C1936 1.391 . S
C1937 C1941 1.376 . S
C1938 C1936 1.394 . S
C1938 C1939 1.369 . S
C1938 C1942 1.531 . S
C1939 C1938 1.369 . S
C1939 C1940 1.410 . S
C1939 C1947 1.503 . S
C1940 C1939 1.410 . S
C1940 C1941 1.392 . S
C1940 C1943 1.511 . S
C1941 C1937 1.376 . S
C1941 C1940 1.392 . S
C1941 H1953 0.929 . S
C1942 C1938 1.531 . S
C1942 H1954 0.948 1_556 S
C1942 H1955 0.962 . S
C1942 H1956 0.960 . S
C1943 C1940 1.511 . S
C1943 H1957 0.961 . S
C1943 H1958 0.961 . S
C1943 H1959 0.961 . S
C1944 C1945 1.370 1_556 S
C1944 C1946 1.363 . S
C1944 H1960 0.931 1_565 S
C1945 C1944 1.370 1_554 S
C1945 C1949 1.408 . S
C1946 C1944 1.363 . S
C1946 C1947 1.370 . S
C1946 C1950 1.524 . S
C1947 C1939 1.503 . S
C1947 C1946 1.370 . S
C1947 C1948 1.403 1_556 S
C1948 C1947 1.403 1_554 S
C1948 C1949 1.404 . S
C1948 C1951 1.539 . S
C1949 C1945 1.408 . S
C1949 C1948 1.404 . S
C1949 H1961 0.930 . S
C1950 C1946 1.524 . S
C1950 H1962 0.956 . S
C1950 H1963 0.961 . S
C1950 H1964 0.961 . S
C1951 C1948 1.539 . S
C1951 H1965 0.958 . S
C1951 H1966 0.961 . S
C1951 H1967 0.960 . S
H1952 C1936 0.931 . S
H1953 C1941 0.929 . S
H1954 C1942 0.948 1_554 S
H1955 C1942 0.962 . S
H1956 C1942 0.960 . S
H1957 C1943 0.961 . S
H1958 C1943 0.961 . S
H1959 C1943 0.961 . S
H1960 C1944 0.931 1_545 S
H1961 C1949 0.930 . S
H1962 C1950 0.956 . S
H1963 C1950 0.961 . S
H1964 C1950 0.961 . S
H1965 C1951 0.958 . S
H1966 C1951 0.961 . S
H1967 C1951 0.960 . S
C1968 C1969 1.391 . S
C1968 C1970 1.394 . S
C1968 H1984 0.931 . S
C1969 C1968 1.391 . S
C1969 C1973 1.376 . S
C1970 C1968 1.394 . S
C1970 C1971 1.369 1_455 S
C1970 C1974 1.531 . S
C1971 C1970 1.369 1_655 S
C1971 C1972 1.410 . S
C1971 C1979 1.503 . S
C1972 C1971 1.410 . S
C1972 C1973 1.392 1_655 S
C1972 C1975 1.511 . S
C1973 C1969 1.376 . S
C1973 C1972 1.392 1_455 S
C1973 H1985 0.928 1_455 S
C1974 C1970 1.531 . S
C1974 H1986 0.960 . S
C1974 H1987 0.962 . S
C1974 H1988 0.960 . S
C1975 C1972 1.511 . S
C1975 H1989 0.961 . S
C1975 H1990 0.961 . S
C1975 H1991 0.961 . S
C1976 C1977 1.370 . S
C1976 C1978 1.363 . S
C1976 H1992 0.931 . S
C1977 C1976 1.370 . S
C1977 C1981 1.408 . S
C1978 C1976 1.363 . S
C1978 C1979 1.370 . S
C1978 C1982 1.524 . S
C1979 C1971 1.503 . S
C1979 C1978 1.370 . S
C1979 C1980 1.403 . S
C1980 C1979 1.403 . S
C1980 C1981 1.404 . S
C1980 C1983 1.539 . S
C1981 C1977 1.408 . S
C1981 C1980 1.404 . S
C1981 H1993 0.930 . S
C1982 C1978 1.524 . S
C1982 H1994 0.956 1_655 S
C1982 H1995 0.961 . S
C1982 H1996 0.961 . S
C1983 C1980 1.539 . S
C1983 H1997 0.958 . S
C1983 H1998 0.961 . S
C1983 H1999 0.960 . S
H1984 C1968 0.931 . S
H1985 C1973 0.928 1_655 S
H1986 C1974 0.960 . S
H1987 C1974 0.962 . S
H1988 C1974 0.960 . S
H1989 C1975 0.961 . S
H1990 C1975 0.961 . S
H1991 C1975 0.961 . S
H1992 C1976 0.931 . S
H1993 C1981 0.930 . S
H1994 C1982 0.956 1_455 S
H1995 C1982 0.961 . S
H1996 C1982 0.961 . S
H1997 C1983 0.958 . S
H1998 C1983 0.961 . S
H1999 C1983 0.960 . S
C2000 C2001 1.391 . S
C2000 C2002 1.394 . S
C2000 H2016 0.931 . S
C2001 C2000 1.391 . S
C2001 C2005 1.376 . S
C2002 C2000 1.394 . S
C2002 C2003 1.369 . S
C2002 C2006 1.531 . S
C2003 C2002 1.369 . S
C2003 C2004 1.410 . S
C2003 C2011 1.503 . S
C2004 C2003 1.410 . S
C2004 C2005 1.392 . S
C2004 C2007 1.511 . S
C2005 C2001 1.376 . S
C2005 C2004 1.392 . S
C2005 H2017 0.929 . S
C2006 C2002 1.531 . S
C2006 H2018 0.960 . S
C2006 H2019 0.962 . S
C2006 H2020 0.960 . S
C2007 C2004 1.511 . S
C2007 H2021 0.961 . S
C2007 H2022 0.961 . S
C2007 H2023 0.961 . S
C2008 C2009 1.370 . S
C2008 C2010 1.363 . S
C2008 H2024 0.931 . S
C2009 C2008 1.370 . S
C2009 C2013 1.408 . S
C2010 C2008 1.363 . S
C2010 C2011 1.370 . S
C2010 C2014 1.524 . S
C2011 C2003 1.503 . S
C2011 C2010 1.370 . S
C2011 C2012 1.403 . S
C2012 C2011 1.403 . S
C2012 C2013 1.404 . S
C2012 C2015 1.539 . S
C2013 C2009 1.408 . S
C2013 C2012 1.404 . S
C2013 H2025 0.930 . S
C2014 C2010 1.524 . S
C2014 H2026 0.956 . S
C2014 H2027 0.961 . S
C2014 H2028 0.961 . S
C2015 C2012 1.539 . S
C2015 H2029 0.958 . S
C2015 H2030 0.961 . S
C2015 H2031 0.960 . S
H2016 C2000 0.931 . S
H2017 C2005 0.929 . S
H2018 C2006 0.960 . S
H2019 C2006 0.962 . S
H2020 C2006 0.960 . S
H2021 C2007 0.961 . S
H2022 C2007 0.961 . S
H2023 C2007 0.961 . S
H2024 C2008 0.931 . S
H2025 C2013 0.930 . S
H2026 C2014 0.956 . S
H2027 C2014 0.961 . S
H2028 C2014 0.961 . S
H2029 C2015 0.958 . S
H2030 C2015 0.961 . S
H2031 C2015 0.960 . S
C2032 C2033 1.391 . S
C2032 C2034 1.394 . S
C2032 H2048 0.931 . S
C2033 C2032 1.391 . S
C2033 C2037 1.376 . S
C2034 C2032 1.394 . S
C2034 C2035 1.369 . S
C2034 C2038 1.531 . S
C2035 C2034 1.369 . S
C2035 C2036 1.410 . S
C2035 C2043 1.503 . S
C2036 C2035 1.410 . S
C2036 C2037 1.392 . S
C2036 C2039 1.511 . S
C2037 C2033 1.376 . S
C2037 C2036 1.392 . S
C2037 H2049 0.929 . S
C2038 C2034 1.531 . S
C2038 H2050 0.960 . S
C2038 H2051 0.962 . S
C2038 H2052 0.960 . S
C2039 C2036 1.511 . S
C2039 H2053 0.961 . S
C2039 H2054 0.961 . S
C2039 H2055 0.961 . S
C2040 C2041 1.370 . S
C2040 C2042 1.363 . S
C2040 H2056 0.931 . S
C2041 C2040 1.370 . S
C2041 C2045 1.408 . S
C2042 C2040 1.363 . S
C2042 C2043 1.370 . S
C2042 C2046 1.524 . S
C2043 C2035 1.503 . S
C2043 C2042 1.370 . S
C2043 C2044 1.403 . S
C2044 C2043 1.403 . S
C2044 C2045 1.404 . S
C2044 C2047 1.539 . S
C2045 C2041 1.408 . S
C2045 C2044 1.404 . S
C2045 H2057 0.930 . S
C2046 C2042 1.524 . S
C2046 H2058 0.956 . S
C2046 H2059 0.961 . S
C2046 H2060 0.961 . S
C2047 C2044 1.539 . S
C2047 H2061 0.958 . S
C2047 H2062 0.961 . S
C2047 H2063 0.960 . S
H2048 C2032 0.931 . S
H2049 C2037 0.929 . S
H2050 C2038 0.960 . S
H2051 C2038 0.962 . S
H2052 C2038 0.960 . S
H2053 C2039 0.961 . S
H2054 C2039 0.961 . S
H2055 C2039 0.961 . S
H2056 C2040 0.931 . S
H2057 C2045 0.930 . S
H2058 C2046 0.956 . S
H2059 C2046 0.961 . S
H2060 C2046 0.961 . S
H2061 C2047 0.958 . S
H2062 C2047 0.961 . S
H2063 C2047 0.960 . S
C2064 C2065 1.391 . S
C2064 C2066 1.394 . S
C2064 H2080 0.931 . S
C2065 C2064 1.391 . S
C2065 C2069 1.376 . S
C2066 C2064 1.394 . S
C2066 C2067 1.369 . S
C2066 C2070 1.531 . S
C2067 C2066 1.369 . S
C2067 C2068 1.410 . S
C2067 C2075 1.503 . S
C2068 C2067 1.410 . S
C2068 C2069 1.392 . S
C2068 C2071 1.511 . S
C2069 C2065 1.376 . S
C2069 C2068 1.392 . S
C2069 H2081 0.929 . S
C2070 C2066 1.531 . S
C2070 H2082 0.960 . S
C2070 H2083 0.962 . S
C2070 H2084 0.960 . S
C2071 C2068 1.511 . S
C2071 H2085 0.961 . S
C2071 H2086 0.961 . S
C2071 H2087 0.961 . S
C2072 C2073 1.370 . S
C2072 C2074 1.363 . S
C2072 H2088 0.931 . S
C2073 C2072 1.370 . S
C2073 C2077 1.408 . S
C2074 C2072 1.363 . S
C2074 C2075 1.370 . S
C2074 C2078 1.524 . S
C2075 C2067 1.503 . S
C2075 C2074 1.370 . S
C2075 C2076 1.403 . S
C2076 C2075 1.403 . S
C2076 C2077 1.404 . S
C2076 C2079 1.539 . S
C2077 C2073 1.408 . S
C2077 C2076 1.404 . S
C2077 H2089 0.930 . S
C2078 C2074 1.524 . S
C2078 H2090 0.956 . S
C2078 H2091 0.961 . S
C2078 H2092 0.961 . S
C2079 C2076 1.539 . S
C2079 H2093 0.958 . S
C2079 H2094 0.961 . S
C2079 H2095 0.960 . S
H2080 C2064 0.931 . S
H2081 C2069 0.929 . S
H2082 C2070 0.960 . S
H2083 C2070 0.962 . S
H2084 C2070 0.960 . S
H2085 C2071 0.961 . S
H2086 C2071 0.961 . S
H2087 C2071 0.961 . S
H2088 C2072 0.931 . S
H2089 C2077 0.930 . S
H2090 C2078 0.956 . S
H2091 C2078 0.961 . S
H2092 C2078 0.961 . S
H2093 C2079 0.958 . S
H2094 C2079 0.961 . S
H2095 C2079 0.960 . S
C2096 C2097 1.391 . S
C2096 C2098 1.394 . S
C2096 H2112 0.931 . S
C2097 C2096 1.391 . S
C2097 C2101 1.376 . S
C2098 C2096 1.394 . S
C2098 C2099 1.369 . S
C2098 C2102 1.531 . S
C2099 C2098 1.369 . S
C2099 C2100 1.410 . S
C2099 C2107 1.503 . S
C2100 C2099 1.410 . S
C2100 C2101 1.392 . S
C2100 C2103 1.511 . S
C2101 C2097 1.376 . S
C2101 C2100 1.392 . S
C2101 H2113 0.929 . S
C2102 C2098 1.531 . S
C2102 H2114 0.960 . S
C2102 H2115 0.962 . S
C2102 H2116 0.960 . S
C2103 C2100 1.511 . S
C2103 H2117 0.961 . S
C2103 H2118 0.961 . S
C2103 H2119 0.961 . S
C2104 C2105 1.370 . S
C2104 C2106 1.363 . S
C2104 H2120 0.931 . S
C2105 C2104 1.370 . S
C2105 C2109 1.408 . S
C2106 C2104 1.363 . S
C2106 C2107 1.370 . S
C2106 C2110 1.524 . S
C2107 C2099 1.503 . S
C2107 C2106 1.370 . S
C2107 C2108 1.403 . S
C2108 C2107 1.403 . S
C2108 C2109 1.404 . S
C2108 C2111 1.539 . S
C2109 C2105 1.408 . S
C2109 C2108 1.404 . S
C2109 H2121 0.930 . S
C2110 C2106 1.524 . S
C2110 H2122 0.956 . S
C2110 H2123 0.961 . S
C2110 H2124 0.961 . S
C2111 C2108 1.539 . S
C2111 H2125 0.958 . S
C2111 H2126 0.961 . S
C2111 H2127 0.960 . S
H2112 C2096 0.931 . S
H2113 C2101 0.929 . S
H2114 C2102 0.960 . S
H2115 C2102 0.962 . S
H2116 C2102 0.960 . S
H2117 C2103 0.961 . S
H2118 C2103 0.961 . S
H2119 C2103 0.961 . S
H2120 C2104 0.931 . S
H2121 C2109 0.930 . S
H2122 C2110 0.956 . S
H2123 C2110 0.961 . S
H2124 C2110 0.961 . S
H2125 C2111 0.958 . S
H2126 C2111 0.961 . S
H2127 C2111 0.960 . S
C2128 C2129 1.391 . S
C2128 C2130 1.394 . S
C2128 H2144 0.931 . S
C2129 C2128 1.391 . S
C2129 C2133 1.376 . S
C2130 C2128 1.394 . S
C2130 C2131 1.369 . S
C2130 C2134 1.531 . S
C2131 C2130 1.369 . S
C2131 C2132 1.410 . S
C2131 C2139 1.503 . S
C2132 C2131 1.410 . S
C2132 C2133 1.392 . S
C2132 C2135 1.511 . S
C2133 C2129 1.376 . S
C2133 C2132 1.392 . S
C2133 H2145 0.929 . S
C2134 C2130 1.531 . S
C2134 H2146 0.960 . S
C2134 H2147 0.962 . S
C2134 H2148 0.960 . S
C2135 C2132 1.511 . S
C2135 H2149 0.961 . S
C2135 H2150 0.961 . S
C2135 H2151 0.961 . S
C2136 C2137 1.370 . S
C2136 C2138 1.363 . S
C2136 H2152 0.931 . S
C2137 C2136 1.370 . S
C2137 C2141 1.408 . S
C2138 C2136 1.363 . S
C2138 C2139 1.370 . S
C2138 C2142 1.524 . S
C2139 C2131 1.503 . S
C2139 C2138 1.370 . S
C2139 C2140 1.403 . S
C2140 C2139 1.403 . S
C2140 C2141 1.404 . S
C2140 C2143 1.539 . S
C2141 C2137 1.408 . S
C2141 C2140 1.404 . S
C2141 H2153 0.930 . S
C2142 C2138 1.524 . S
C2142 H2154 0.956 . S
C2142 H2155 0.961 . S
C2142 H2156 0.961 . S
C2143 C2140 1.539 . S
C2143 H2157 0.958 . S
C2143 H2158 0.961 . S
C2143 H2159 0.960 . S
H2144 C2128 0.931 . S
H2145 C2133 0.929 . S
H2146 C2134 0.960 . S
H2147 C2134 0.962 . S
H2148 C2134 0.960 . S
H2149 C2135 0.961 . S
H2150 C2135 0.961 . S
H2151 C2135 0.961 . S
H2152 C2136 0.931 . S
H2153 C2141 0.930 . S
H2154 C2142 0.956 . S
H2155 C2142 0.961 . S
H2156 C2142 0.961 . S
H2157 C2143 0.958 . S
H2158 C2143 0.961 . S
H2159 C2143 0.960 . S
C2160 C2161 1.391 . S
C2160 C2162 1.394 . S
C2160 H2176 0.931 . S
C2161 C2160 1.391 . S
C2161 C2165 1.376 . S
C2162 C2160 1.394 . S
C2162 C2163 1.369 . S
C2162 C2166 1.531 . S
C2163 C2162 1.369 . S
C2163 C2164 1.410 . S
C2163 C2171 1.503 . S
C2164 C2163 1.410 . S
C2164 C2165 1.392 . S
C2164 C2167 1.511 . S
C2165 C2161 1.376 . S
C2165 C2164 1.392 . S
C2165 H2177 0.929 . S
C2166 C2162 1.531 . S
C2166 H2178 0.960 . S
C2166 H2179 0.962 . S
C2166 H2180 0.960 . S
C2167 C2164 1.511 . S
C2167 H2181 0.961 . S
C2167 H2182 0.961 . S
C2167 H2183 0.961 . S
C2168 C2169 1.370 . S
C2168 C2170 1.363 . S
C2168 H2184 0.931 . S
C2169 C2168 1.370 . S
C2169 C2173 1.408 . S
C2170 C2168 1.363 . S
C2170 C2171 1.370 . S
C2170 C2174 1.524 . S
C2171 C2163 1.503 . S
C2171 C2170 1.370 . S
C2171 C2172 1.403 . S
C2172 C2171 1.403 . S
C2172 C2173 1.404 . S
C2172 C2175 1.539 . S
C2173 C2169 1.408 . S
C2173 C2172 1.404 . S
C2173 H2185 0.930 . S
C2174 C2170 1.524 . S
C2174 H2186 0.956 . S
C2174 H2187 0.961 . S
C2174 H2188 0.961 . S
C2175 C2172 1.539 . S
C2175 H2189 0.958 . S
C2175 H2190 0.961 . S
C2175 H2191 0.960 . S
H2176 C2160 0.931 . S
H2177 C2165 0.929 . S
H2178 C2166 0.960 . S
H2179 C2166 0.962 . S
H2180 C2166 0.960 . S
H2181 C2167 0.961 . S
H2182 C2167 0.961 . S
H2183 C2167 0.961 . S
H2184 C2168 0.931 . S
H2185 C2173 0.930 . S
H2186 C2174 0.956 . S
H2187 C2174 0.961 . S
H2188 C2174 0.961 . S
H2189 C2175 0.958 . S
H2190 C2175 0.961 . S
H2191 C2175 0.960 . S
C2192 C2193 1.391 . S
C2192 C2194 1.394 . S
C2192 H2208 0.931 . S
C2193 C2192 1.391 . S
C2193 C2197 1.376 . S
C2194 C2192 1.394 . S
C2194 C2195 1.369 . S
C2194 C2198 1.531 . S
C2195 C2194 1.369 . S
C2195 C2196 1.410 . S
C2195 C2203 1.503 . S
C2196 C2195 1.410 . S
C2196 C2197 1.392 . S
C2196 C2199 1.511 . S
C2197 C2193 1.376 . S
C2197 C2196 1.392 . S
C2197 H2209 0.929 . S
C2198 C2194 1.531 . S
C2198 H2210 0.960 . S
C2198 H2211 0.962 . S
C2198 H2212 0.960 . S
C2199 C2196 1.511 . S
C2199 H2213 0.961 . S
C2199 H2214 0.961 . S
C2199 H2215 0.961 . S
C2200 C2201 1.370 . S
C2200 C2202 1.363 . S
C2200 H2216 0.931 . S
C2201 C2200 1.370 . S
C2201 C2205 1.408 . S
C2202 C2200 1.363 . S
C2202 C2203 1.370 . S
C2202 C2206 1.524 . S
C2203 C2195 1.503 . S
C2203 C2202 1.370 . S
C2203 C2204 1.403 . S
C2204 C2203 1.403 . S
C2204 C2205 1.404 . S
C2204 C2207 1.539 . S
C2205 C2201 1.408 . S
C2205 C2204 1.404 . S
C2205 H2217 0.930 . S
C2206 C2202 1.524 . S
C2206 H2218 0.956 . S
C2206 H2219 0.961 . S
C2206 H2220 0.961 . S
C2207 C2204 1.539 . S
C2207 H2221 0.958 . S
C2207 H2222 0.961 . S
C2207 H2223 0.960 . S
H2208 C2192 0.931 . S
H2209 C2197 0.929 . S
H2210 C2198 0.960 . S
H2211 C2198 0.962 . S
H2212 C2198 0.960 . S
H2213 C2199 0.961 . S
H2214 C2199 0.961 . S
H2215 C2199 0.961 . S
H2216 C2200 0.931 . S
H2217 C2205 0.930 . S
H2218 C2206 0.956 . S
H2219 C2206 0.961 . S
H2220 C2206 0.961 . S
H2221 C2207 0.958 . S
H2222 C2207 0.961 . S
H2223 C2207 0.960 . S
C2224 C2225 1.391 . S
C2224 C2226 1.394 . S
C2224 H2240 0.931 . S
C2225 C2224 1.391 . S
C2225 C2229 1.376 . S
C2226 C2224 1.394 . S
C2226 C2227 1.369 . S
C2226 C2230 1.531 . S
C2227 C2226 1.369 . S
C2227 C2228 1.410 . S
C2227 C2235 1.503 . S
C2228 C2227 1.410 . S
C2228 C2229 1.392 . S
C2228 C2231 1.511 . S
C2229 C2225 1.376 . S
C2229 C2228 1.392 . S
C2229 H2241 0.929 . S
C2230 C2226 1.531 . S
C2230 H2242 0.960 . S
C2230 H2243 0.962 . S
C2230 H2244 0.960 . S
C2231 C2228 1.511 . S
C2231 H2245 0.961 . S
C2231 H2246 0.961 . S
C2231 H2247 0.961 . S
C2232 C2233 1.370 . S
C2232 C2234 1.363 . S
C2232 H2248 0.931 . S
C2233 C2232 1.370 . S
C2233 C2237 1.408 . S
C2234 C2232 1.363 . S
C2234 C2235 1.370 . S
C2234 C2238 1.524 . S
C2235 C2227 1.503 . S
C2235 C2234 1.370 . S
C2235 C2236 1.403 . S
C2236 C2235 1.403 . S
C2236 C2237 1.404 . S
C2236 C2239 1.539 . S
C2237 C2233 1.408 . S
C2237 C2236 1.404 . S
C2237 H2249 0.930 . S
C2238 C2234 1.524 . S
C2238 H2250 0.956 . S
C2238 H2251 0.961 . S
C2238 H2252 0.961 . S
C2239 C2236 1.539 . S
C2239 H2253 0.958 . S
C2239 H2254 0.961 . S
C2239 H2255 0.960 . S
H2240 C2224 0.931 . S
H2241 C2229 0.929 . S
H2242 C2230 0.960 . S
H2243 C2230 0.962 . S
H2244 C2230 0.960 . S
H2245 C2231 0.961 . S
H2246 C2231 0.961 . S
H2247 C2231 0.961 . S
H2248 C2232 0.931 . S
H2249 C2237 0.930 . S
H2250 C2238 0.956 . S
H2251 C2238 0.961 . S
H2252 C2238 0.961 . S
H2253 C2239 0.958 . S
H2254 C2239 0.961 . S
H2255 C2239 0.960 . S
C2256 C2257 1.391 . S
C2256 C2258 1.392 . S
C2256 H2272 0.931 . S
C2257 C2256 1.391 . S
C2257 C2261 1.376 1_554 S
C2258 C2256 1.392 . S
C2258 C2259 1.370 1_554 S
C2258 C2262 1.531 . S
C2259 C2258 1.370 1_556 S
C2259 C2260 1.410 . S
C2259 C2267 1.503 . S
C2260 C2259 1.410 . S
C2260 C2261 1.392 . S
C2260 C2263 1.511 . S
C2261 C2257 1.376 1_556 S
C2261 C2260 1.392 . S
C2261 H2273 0.929 . S
C2262 C2258 1.531 . S
C2262 H2274 0.960 . S
C2262 H2275 0.962 1_554 S
C2262 H2276 0.960 . S
C2263 C2260 1.511 . S
C2263 H2277 0.961 . S
C2263 H2278 0.961 . S
C2263 H2279 0.961 . S
C2264 C2265 1.370 . S
C2264 C2266 1.363 . S
C2264 H2280 0.931 . S
C2265 C2264 1.370 . S
C2265 C2269 1.408 . S
C2266 C2264 1.363 . S
C2266 C2267 1.370 . S
C2266 C2270 1.524 . S
C2267 C2259 1.503 . S
C2267 C2266 1.370 . S
C2267 C2268 1.403 1_556 S
C2268 C2267 1.403 1_554 S
C2268 C2269 1.404 1_554 S
C2268 C2271 1.539 . S
C2269 C2265 1.408 . S
C2269 C2268 1.404 1_556 S
C2269 H2281 0.930 1_556 S
C2270 C2266 1.524 . S
C2270 H2282 0.956 . S
C2270 H2283 0.961 . S
C2270 H2284 0.961 . S
C2271 C2268 1.539 . S
C2271 H2285 0.958 . S
C2271 H2286 0.961 . S
C2271 H2287 0.960 . S
H2272 C2256 0.931 . S
H2273 C2261 0.929 . S
H2274 C2262 0.960 . S
H2275 C2262 0.962 1_556 S
H2276 C2262 0.960 . S
H2277 C2263 0.961 . S
H2278 C2263 0.961 . S
H2279 C2263 0.961 . S
H2280 C2264 0.931 . S
H2281 C2269 0.930 1_554 S
H2282 C2270 0.956 . S
H2283 C2270 0.961 . S
H2284 C2270 0.961 . S
H2285 C2271 0.958 . S
H2286 C2271 0.961 . S
H2287 C2271 0.960 . S
C2288 C2289 1.391 . S
C2288 C2290 1.394 . S
C2288 H2304 0.931 . S
C2289 C2288 1.391 . S
C2289 C2293 1.376 . S
C2290 C2288 1.394 . S
C2290 C2291 1.369 . S
C2290 C2294 1.531 . S
C2291 C2290 1.369 . S
C2291 C2292 1.410 . S
C2291 C2299 1.503 . S
C2292 C2291 1.410 . S
C2292 C2293 1.392 . S
C2292 C2295 1.511 1_554 S
C2293 C2289 1.376 . S
C2293 C2292 1.392 . S
C2293 H2305 0.929 . S
C2294 C2290 1.531 . S
C2294 H2306 0.960 . S
C2294 H2307 0.962 . S
C2294 H2308 0.960 . S
C2295 C2292 1.511 1_556 S
C2295 H2309 0.961 . S
C2295 H2310 0.961 . S
C2295 H2311 0.961 . S
C2296 C2297 1.370 . S
C2296 C2298 1.363 . S
C2296 H2312 0.931 . S
C2297 C2296 1.370 . S
C2297 C2301 1.408 . S
C2298 C2296 1.363 . S
C2298 C2299 1.370 . S
C2298 C2302 1.524 . S
C2299 C2291 1.503 . S
C2299 C2298 1.370 . S
C2299 C2300 1.403 . S
C2300 C2299 1.403 . S
C2300 C2301 1.404 . S
C2300 C2303 1.539 . S
C2301 C2297 1.408 . S
C2301 C2300 1.404 . S
C2301 H2313 0.930 . S
C2302 C2298 1.524 . S
C2302 H2314 0.956 . S
C2302 H2315 0.961 . S
C2302 H2316 0.961 . S
C2303 C2300 1.539 . S
C2303 H2317 0.958 . S
C2303 H2318 0.961 . S
C2303 H2319 0.960 . S
H2304 C2288 0.931 . S
H2305 C2293 0.929 . S
H2306 C2294 0.960 . S
H2307 C2294 0.962 . S
H2308 C2294 0.960 . S
H2309 C2295 0.961 . S
H2310 C2295 0.961 . S
H2311 C2295 0.961 . S
H2312 C2296 0.931 . S
H2313 C2301 0.930 . S
H2314 C2302 0.956 . S
H2315 C2302 0.961 . S
H2316 C2302 0.961 . S
H2317 C2303 0.958 . S
H2318 C2303 0.961 . S
H2319 C2303 0.960 . S
C2320 C2321 1.391 . S
C2320 C2322 1.394 . S
C2320 H2336 0.931 . S
C2321 C2320 1.391 . S
C2321 C2325 1.376 . S
C2322 C2320 1.394 . S
C2322 C2323 1.369 . S
C2322 C2326 1.531 . S
C2323 C2322 1.369 . S
C2323 C2324 1.410 . S
C2323 C2331 1.503 . S
C2324 C2323 1.410 . S
C2324 C2325 1.392 . S
C2324 C2327 1.511 . S
C2325 C2321 1.376 . S
C2325 C2324 1.392 . S
C2325 H2337 0.929 . S
C2326 C2322 1.531 . S
C2326 H2338 0.960 . S
C2326 H2339 0.962 . S
C2326 H2340 0.960 . S
C2327 C2324 1.511 . S
C2327 H2341 0.961 . S
C2327 H2342 0.961 . S
C2327 H2343 0.961 . S
C2328 C2329 1.370 . S
C2328 C2330 1.363 . S
C2328 H2344 0.931 . S
C2329 C2328 1.370 . S
C2329 C2333 1.408 . S
C2330 C2328 1.363 . S
C2330 C2331 1.370 . S
C2330 C2334 1.524 . S
C2331 C2323 1.503 . S
C2331 C2330 1.370 . S
C2331 C2332 1.403 . S
C2332 C2331 1.403 . S
C2332 C2333 1.404 . S
C2332 C2335 1.539 . S
C2333 C2329 1.408 . S
C2333 C2332 1.404 . S
C2333 H2345 0.930 . S
C2334 C2330 1.524 . S
C2334 H2346 0.956 . S
C2334 H2347 0.961 . S
C2334 H2348 0.961 . S
C2335 C2332 1.539 . S
C2335 H2349 0.958 . S
C2335 H2350 0.961 . S
C2335 H2351 0.960 . S
H2336 C2320 0.931 . S
H2337 C2325 0.929 . S
H2338 C2326 0.960 . S
H2339 C2326 0.962 . S
H2340 C2326 0.960 . S
H2341 C2327 0.961 . S
H2342 C2327 0.961 . S
H2343 C2327 0.961 . S
H2344 C2328 0.931 . S
H2345 C2333 0.930 . S
H2346 C2334 0.956 . S
H2347 C2334 0.961 . S
H2348 C2334 0.961 . S
H2349 C2335 0.958 . S
H2350 C2335 0.961 . S
H2351 C2335 0.960 . S
C2352 C2353 1.391 . S
C2352 C2354 1.394 . S
C2352 H2368 0.931 . S
C2353 C2352 1.391 . S
C2353 C2357 1.376 . S
C2354 C2352 1.394 . S
C2354 C2355 1.369 . S
C2354 C2358 1.531 . S
C2355 C2354 1.369 . S
C2355 C2356 1.410 . S
C2355 C2363 1.503 . S
C2356 C2355 1.410 . S
C2356 C2357 1.392 . S
C2356 C2359 1.511 . S
C2357 C2353 1.376 . S
C2357 C2356 1.392 . S
C2357 H2369 0.929 . S
C2358 C2354 1.531 . S
C2358 H2370 0.960 . S
C2358 H2371 0.962 . S
C2358 H2372 0.960 . S
C2359 C2356 1.511 . S
C2359 H2373 0.961 . S
C2359 H2374 0.961 . S
C2359 H2375 0.961 . S
C2360 C2361 1.370 . S
C2360 C2362 1.363 . S
C2360 H2376 0.931 . S
C2361 C2360 1.370 . S
C2361 C2365 1.408 . S
C2362 C2360 1.363 . S
C2362 C2363 1.370 . S
C2362 C2366 1.524 . S
C2363 C2355 1.503 . S
C2363 C2362 1.370 . S
C2363 C2364 1.403 . S
C2364 C2363 1.403 . S
C2364 C2365 1.404 . S
C2364 C2367 1.539 . S
C2365 C2361 1.408 . S
C2365 C2364 1.404 . S
C2365 H2377 0.930 . S
C2366 C2362 1.524 . S
C2366 H2378 0.956 . S
C2366 H2379 0.961 . S
C2366 H2380 0.961 . S
C2367 C2364 1.539 . S
C2367 H2381 0.958 . S
C2367 H2382 0.961 . S
C2367 H2383 0.960 . S
H2368 C2352 0.931 . S
H2369 C2357 0.929 . S
H2370 C2358 0.960 . S
H2371 C2358 0.962 . S
H2372 C2358 0.960 . S
H2373 C2359 0.961 . S
H2374 C2359 0.961 . S
H2375 C2359 0.961 . S
H2376 C2360 0.931 . S
H2377 C2365 0.930 . S
H2378 C2366 0.956 . S
H2379 C2366 0.961 . S
H2380 C2366 0.961 . S
H2381 C2367 0.958 . S
H2382 C2367 0.961 . S
H2383 C2367 0.960 . S
C2384 C2385 1.391 . S
C2384 C2386 1.394 . S
C2384 H2400 0.931 . S
C2385 C2384 1.391 . S
C2385 C2389 1.376 . S
C2386 C2384 1.394 . S
C2386 C2387 1.369 . S
C2386 C2390 1.531 . S
C2387 C2386 1.369 . S
C2387 C2388 1.410 . S
C2387 C2395 1.503 . S
C2388 C2387 1.410 . S
C2388 C2389 1.392 . S
C2388 C2391 1.511 . S
C2389 C2385 1.376 . S
C2389 C2388 1.392 . S
C2389 H2401 0.929 . S
C2390 C2386 1.531 . S
C2390 H2402 0.960 . S
C2390 H2403 0.962 . S
C2390 H2404 0.960 . S
C2391 C2388 1.511 . S
C2391 H2405 0.961 . S
C2391 H2406 0.961 . S
C2391 H2407 0.961 . S
C2392 C2393 1.370 . S
C2392 C2394 1.363 . S
C2392 H2408 0.931 . S
C2393 C2392 1.370 . S
C2393 C2397 1.408 . S
C2394 C2392 1.363 . S
C2394 C2395 1.370 . S
C2394 C2398 1.524 . S
C2395 C2387 1.503 . S
C2395 C2394 1.370 . S
C2395 C2396 1.403 . S
C2396 C2395 1.403 . S
C2396 C2397 1.404 . S
C2396 C2399 1.539 . S
C2397 C2393 1.408 . S
C2397 C2396 1.404 . S
C2397 H2409 0.930 . S
C2398 C2394 1.524 . S
C2398 H2410 0.956 . S
C2398 H2411 0.961 . S
C2398 H2412 0.961 . S
C2399 C2396 1.539 . S
C2399 H2413 0.958 . S
C2399 H2414 0.961 . S
C2399 H2415 0.960 . S
H2400 C2384 0.931 . S
H2401 C2389 0.929 . S
H2402 C2390 0.960 . S
H2403 C2390 0.962 . S
H2404 C2390 0.960 . S
H2405 C2391 0.961 . S
H2406 C2391 0.961 . S
H2407 C2391 0.961 . S
H2408 C2392 0.931 . S
H2409 C2397 0.930 . S
H2410 C2398 0.956 . S
H2411 C2398 0.961 . S
H2412 C2398 0.961 . S
H2413 C2399 0.958 . S
H2414 C2399 0.961 . S
H2415 C2399 0.960 . S
C2416 C2417 1.391 . S
C2416 C2418 1.394 . S
C2416 H2432 0.931 . S
C2417 C2416 1.391 . S
C2417 C2421 1.376 . S
C2418 C2416 1.394 . S
C2418 C2419 1.369 . S
C2418 C2422 1.531 . S
C2419 C2418 1.369 . S
C2419 C2420 1.410 . S
C2419 C2427 1.503 . S
C2420 C2419 1.410 . S
C2420 C2421 1.392 . S
C2420 C2423 1.511 . S
C2421 C2417 1.376 . S
C2421 C2420 1.392 . S
C2421 H2433 0.929 . S
C2422 C2418 1.531 . S
C2422 H2434 0.938 1_565 S
C2422 H2435 0.962 . S
C2422 H2436 0.960 . S
C2423 C2420 1.511 . S
C2423 H2437 0.961 . S
C2423 H2438 0.961 . S
C2423 H2439 0.961 . S
C2424 C2425 1.370 1_565 S
C2424 C2426 1.363 . S
C2424 H2440 0.931 . S
C2425 C2424 1.370 1_545 S
C2425 C2429 1.408 . S
C2426 C2424 1.363 . S
C2426 C2427 1.370 . S
C2426 C2430 1.524 . S
C2427 C2419 1.503 . S
C2427 C2426 1.370 . S
C2427 C2428 1.403 1_565 S
C2428 C2427 1.403 1_545 S
C2428 C2429 1.404 . S
C2428 C2431 1.539 . S
C2429 C2425 1.408 . S
C2429 C2428 1.404 . S
C2429 H2441 0.930 . S
C2430 C2426 1.524 . S
C2430 H2442 0.956 . S
C2430 H2443 0.961 . S
C2430 H2444 0.961 . S
C2431 C2428 1.539 . S
C2431 H2445 0.958 . S
C2431 H2446 0.961 . S
C2431 H2447 0.960 . S
H2432 C2416 0.931 . S
H2433 C2421 0.929 . S
H2434 C2422 0.938 1_545 S
H2435 C2422 0.962 . S
H2436 C2422 0.960 . S
H2437 C2423 0.961 . S
H2438 C2423 0.961 . S
H2439 C2423 0.961 . S
H2440 C2424 0.931 . S
H2441 C2429 0.930 . S
H2442 C2430 0.956 . S
H2443 C2430 0.961 . S
H2444 C2430 0.961 . S
H2445 C2431 0.958 . S
H2446 C2431 0.961 . S
H2447 C2431 0.960 . S
C2448 C2449 1.391 . S
C2448 C2450 1.394 . S
C2448 H2464 0.931 . S
C2449 C2448 1.391 . S
C2449 C2453 1.376 . S
C2450 C2448 1.394 . S
C2450 C2451 1.369 . S
C2450 C2454 1.531 . S
C2451 C2450 1.369 . S
C2451 C2452 1.410 . S
C2451 C2459 1.503 . S
C2452 C2451 1.410 . S
C2452 C2453 1.392 . S
C2452 C2455 1.511 . S
C2453 C2449 1.376 . S
C2453 C2452 1.392 . S
C2453 H2465 0.929 . S
C2454 C2450 1.531 . S
C2454 H2466 0.960 . S
C2454 H2467 0.962 . S
C2454 H2468 0.960 . S
C2455 C2452 1.511 . S
C2455 H2469 0.961 . S
C2455 H2470 0.961 . S
C2455 H2471 0.961 . S
C2456 C2457 1.370 . S
C2456 C2458 1.363 . S
C2456 H2472 0.931 . S
C2457 C2456 1.370 . S
C2457 C2461 1.408 . S
C2458 C2456 1.363 . S
C2458 C2459 1.370 . S
C2458 C2462 1.524 . S
C2459 C2451 1.503 . S
C2459 C2458 1.370 . S
C2459 C2460 1.403 . S
C2460 C2459 1.403 . S
C2460 C2461 1.404 . S
C2460 C2463 1.539 . S
C2461 C2457 1.408 . S
C2461 C2460 1.404 . S
C2461 H2473 0.930 . S
C2462 C2458 1.524 . S
C2462 H2474 0.956 . S
C2462 H2475 0.961 . S
C2462 H2476 0.961 . S
C2463 C2460 1.539 . S
C2463 H2477 0.958 . S
C2463 H2478 0.961 . S
C2463 H2479 0.960 . S
H2464 C2448 0.931 . S
H2465 C2453 0.929 . S
H2466 C2454 0.960 . S
H2467 C2454 0.962 . S
H2468 C2454 0.960 . S
H2469 C2455 0.961 . S
H2470 C2455 0.961 . S
H2471 C2455 0.961 . S
H2472 C2456 0.931 . S
H2473 C2461 0.930 . S
H2474 C2462 0.956 . S
H2475 C2462 0.961 . S
H2476 C2462 0.961 . S
H2477 C2463 0.958 . S
H2478 C2463 0.961 . S
H2479 C2463 0.960 . S
C2480 C2481 1.391 . S
C2480 C2482 1.394 . S
C2480 H2496 0.931 . S
C2481 C2480 1.391 . S
C2481 C2485 1.376 . S
C2482 C2480 1.394 . S
C2482 C2483 1.369 . S
C2482 C2486 1.531 . S
C2483 C2482 1.369 . S
C2483 C2484 1.410 . S
C2483 C2491 1.503 . S
C2484 C2483 1.410 . S
C2484 C2485 1.392 . S
C2484 C2487 1.511 . S
C2485 C2481 1.376 . S
C2485 C2484 1.392 . S
C2485 H2497 0.929 . S
C2486 C2482 1.531 . S
C2486 H2498 0.960 . S
C2486 H2499 0.962 . S
C2486 H2500 0.960 . S
C2487 C2484 1.511 . S
C2487 H2501 0.961 . S
C2487 H2502 0.961 . S
C2487 H2503 0.961 . S
C2488 C2489 1.370 . S
C2488 C2490 1.363 . S
C2488 H2504 0.931 . S
C2489 C2488 1.370 . S
C2489 C2493 1.408 . S
C2490 C2488 1.363 . S
C2490 C2491 1.370 . S
C2490 C2494 1.524 . S
C2491 C2483 1.503 . S
C2491 C2490 1.370 . S
C2491 C2492 1.403 . S
C2492 C2491 1.403 . S
C2492 C2493 1.404 . S
C2492 C2495 1.539 . S
C2493 C2489 1.408 . S
C2493 C2492 1.404 . S
C2493 H2505 0.930 . S
C2494 C2490 1.524 . S
C2494 H2506 0.956 . S
C2494 H2507 0.961 . S
C2494 H2508 0.961 . S
C2495 C2492 1.539 . S
C2495 H2509 0.958 . S
C2495 H2510 0.961 . S
C2495 H2511 0.960 . S
H2496 C2480 0.931 . S
H2497 C2485 0.929 . S
H2498 C2486 0.960 . S
H2499 C2486 0.962 . S
H2500 C2486 0.960 . S
H2501 C2487 0.961 . S
H2502 C2487 0.961 . S
H2503 C2487 0.961 . S
H2504 C2488 0.931 . S
H2505 C2493 0.930 . S
H2506 C2494 0.956 . S
H2507 C2494 0.961 . S
H2508 C2494 0.961 . S
H2509 C2495 0.958 . S
H2510 C2495 0.961 . S
H2511 C2495 0.960 . S
C2512 C2513 1.391 . S
C2512 C2514 1.394 . S
C2512 H2528 0.931 . S
C2513 C2512 1.391 . S
C2513 C2517 1.376 . S
C2514 C2512 1.394 . S
C2514 C2515 1.369 . S
C2514 C2518 1.531 . S
C2515 C2514 1.369 . S
C2515 C2516 1.410 . S
C2515 C2523 1.503 . S
C2516 C2515 1.410 . S
C2516 C2517 1.392 . S
C2516 C2519 1.511 . S
C2517 C2513 1.376 . S
C2517 C2516 1.392 . S
C2517 H2529 0.929 . S
C2518 C2514 1.531 . S
C2518 H2530 0.960 . S
C2518 H2531 0.962 . S
C2518 H2532 0.960 . S
C2519 C2516 1.511 . S
C2519 H2533 0.961 . S
C2519 H2534 0.961 . S
C2519 H2535 0.961 . S
C2520 C2521 1.370 . S
C2520 C2522 1.363 . S
C2520 H2536 0.931 . S
C2521 C2520 1.370 . S
C2521 C2525 1.408 . S
C2522 C2520 1.363 . S
C2522 C2523 1.370 . S
C2522 C2526 1.524 . S
C2523 C2515 1.503 . S
C2523 C2522 1.370 . S
C2523 C2524 1.403 . S
C2524 C2523 1.403 . S
C2524 C2525 1.404 . S
C2524 C2527 1.539 . S
C2525 C2521 1.408 . S
C2525 C2524 1.404 . S
C2525 H2537 0.930 . S
C2526 C2522 1.524 . S
C2526 H2538 0.956 . S
C2526 H2539 0.961 . S
C2526 H2540 0.961 . S
C2527 C2524 1.539 . S
C2527 H2541 0.958 . S
C2527 H2542 0.961 . S
C2527 H2543 0.960 . S
H2528 C2512 0.931 . S
H2529 C2517 0.929 . S
H2530 C2518 0.960 . S
H2531 C2518 0.962 . S
H2532 C2518 0.960 . S
H2533 C2519 0.961 . S
H2534 C2519 0.961 . S
H2535 C2519 0.961 . S
H2536 C2520 0.931 . S
H2537 C2525 0.930 . S
H2538 C2526 0.956 . S
H2539 C2526 0.961 . S
H2540 C2526 0.961 . S
H2541 C2527 0.958 . S
H2542 C2527 0.961 . S
H2543 C2527 0.960 . S
C2544 C2545 1.391 . S
C2544 C2546 1.394 . S
C2544 H2560 0.931 . S
C2545 C2544 1.391 . S
C2545 C2549 1.376 . S
C2546 C2544 1.394 . S
C2546 C2547 1.369 . S
C2546 C2550 1.531 . S
C2547 C2546 1.369 . S
C2547 C2548 1.410 . S
C2547 C2555 1.503 . S
C2548 C2547 1.410 . S
C2548 C2549 1.392 . S
C2548 C2551 1.511 . S
C2549 C2545 1.376 . S
C2549 C2548 1.392 . S
C2549 H2561 0.929 . S
C2550 C2546 1.531 . S
C2550 H2562 0.960 . S
C2550 H2563 0.962 . S
C2550 H2564 0.960 . S
C2551 C2548 1.511 . S
C2551 H2565 0.961 . S
C2551 H2566 0.961 . S
C2551 H2567 0.961 . S
C2552 C2553 1.370 . S
C2552 C2554 1.363 . S
C2552 H2568 0.931 . S
C2553 C2552 1.370 . S
C2553 C2557 1.408 . S
C2554 C2552 1.363 . S
C2554 C2555 1.370 . S
C2554 C2558 1.524 . S
C2555 C2547 1.503 . S
C2555 C2554 1.370 . S
C2555 C2556 1.403 . S
C2556 C2555 1.403 . S
C2556 C2557 1.404 . S
C2556 C2559 1.539 . S
C2557 C2553 1.408 . S
C2557 C2556 1.404 . S
C2557 H2569 0.930 . S
C2558 C2554 1.524 . S
C2558 H2570 0.956 . S
C2558 H2571 0.961 . S
C2558 H2572 0.961 . S
C2559 C2556 1.539 . S
C2559 H2573 0.958 . S
C2559 H2574 0.961 . S
C2559 H2575 0.960 . S
H2560 C2544 0.931 . S
H2561 C2549 0.929 . S
H2562 C2550 0.960 . S
H2563 C2550 0.962 . S
H2564 C2550 0.960 . S
H2565 C2551 0.961 . S
H2566 C2551 0.961 . S
H2567 C2551 0.961 . S
H2568 C2552 0.931 . S
H2569 C2557 0.930 . S
H2570 C2558 0.956 . S
H2571 C2558 0.961 . S
H2572 C2558 0.961 . S
H2573 C2559 0.958 . S
H2574 C2559 0.961 . S
H2575 C2559 0.960 . S
C2576 C2577 1.391 . S
C2576 C2578 1.394 . S
C2576 H2592 0.931 . S
C2577 C2576 1.391 . S
C2577 C2581 1.376 . S
C2578 C2576 1.394 . S
C2578 C2579 1.369 . S
C2578 C2582 1.531 1_556 S
C2579 C2578 1.369 . S
C2579 C2580 1.410 . S
C2579 C2587 1.503 . S
C2580 C2579 1.410 . S
C2580 C2581 1.392 . S
C2580 C2583 1.511 . S
C2581 C2577 1.376 . S
C2581 C2580 1.392 . S
C2581 H2593 0.929 . S
C2582 C2578 1.531 1_554 S
C2582 H2594 0.960 . S
C2582 H2595 0.962 . S
C2582 H2596 0.960 . S
C2583 C2580 1.511 . S
C2583 H2597 0.961 . S
C2583 H2598 0.961 . S
C2583 H2599 0.961 . S
C2584 C2585 1.370 1_556 S
C2584 C2586 1.363 . S
C2584 H2600 0.931 . S
C2585 C2584 1.370 1_554 S
C2585 C2589 1.408 . S
C2586 C2584 1.363 . S
C2586 C2587 1.370 . S
C2586 C2590 1.524 . S
C2587 C2579 1.503 . S
C2587 C2586 1.370 . S
C2587 C2588 1.414 . S
C2588 C2587 1.414 . S
C2588 C2589 1.397 1_556 S
C2588 C2591 1.536 1_556 S
C2589 C2585 1.408 . S
C2589 C2588 1.397 1_554 S
C2589 H2601 0.930 . S
C2590 C2586 1.524 . S
C2590 H2602 0.956 1_455 S
C2590 H2603 0.961 . S
C2590 H2604 0.961 1_455 S
C2591 C2588 1.536 1_554 S
C2591 H2605 0.958 . S
C2591 H2606 0.961 . S
C2591 H2607 0.960 1_554 S
H2592 C2576 0.931 . S
H2593 C2581 0.929 . S
H2594 C2582 0.960 . S
H2595 C2582 0.962 . S
H2596 C2582 0.960 . S
H2597 C2583 0.961 . S
H2598 C2583 0.961 . S
H2599 C2583 0.961 . S
H2600 C2584 0.931 . S
H2601 C2589 0.930 . S
H2602 C2590 0.956 1_655 S
H2603 C2590 0.961 . S
H2604 C2590 0.961 1_655 S
H2605 C2591 0.958 . S
H2606 C2591 0.961 . S
H2607 C2591 0.960 1_556 S
C2608 C2609 1.391 . S
C2608 C2610 1.394 1_455 S
C2608 H2624 0.931 . S
C2609 C2608 1.391 . S
C2609 C2613 1.376 . S
C2610 C2608 1.394 1_655 S
C2610 C2611 1.369 . S
C2610 C2614 1.531 . S
C2611 C2610 1.369 . S
C2611 C2612 1.410 . S
C2611 C2619 1.503 . S
C2612 C2611 1.410 . S
C2612 C2613 1.392 1_655 S
C2612 C2615 1.511 . S
C2613 C2609 1.376 . S
C2613 C2612 1.392 1_455 S
C2613 H2625 0.929 . S
C2614 C2610 1.531 . S
C2614 H2626 0.960 . S
C2614 H2627 0.962 . S
C2614 H2628 0.960 . S
C2615 C2612 1.511 . S
C2615 H2629 0.961 . S
C2615 H2630 0.961 . S
C2615 H2631 0.961 . S
C2616 C2617 1.370 . S
C2616 C2618 1.363 . S
C2616 H2632 0.931 . S
C2617 C2616 1.370 . S
C2617 C2621 1.408 . S
C2618 C2616 1.363 . S
C2618 C2619 1.370 . S
C2618 C2622 1.524 . S
C2619 C2611 1.503 . S
C2619 C2618 1.370 . S
C2619 C2620 1.403 . S
C2620 C2619 1.403 . S
C2620 C2621 1.404 . S
C2620 C2623 1.539 . S
C2621 C2617 1.408 . S
C2621 C2620 1.404 . S
C2621 H2633 0.930 . S
C2622 C2618 1.524 . S
C2622 H2634 0.956 . S
C2622 H2635 0.961 . S
C2622 H2636 0.961 . S
C2623 C2620 1.539 . S
C2623 H2637 0.958 . S
C2623 H2638 0.961 . S
C2623 H2639 0.960 . S
H2624 C2608 0.931 . S
H2625 C2613 0.929 . S
H2626 C2614 0.960 . S
H2627 C2614 0.962 . S
H2628 C2614 0.960 . S
H2629 C2615 0.961 . S
H2630 C2615 0.961 . S
H2631 C2615 0.961 . S
H2632 C2616 0.931 . S
H2633 C2621 0.930 . S
H2634 C2622 0.956 . S
H2635 C2622 0.961 . S
H2636 C2622 0.961 . S
H2637 C2623 0.958 . S
H2638 C2623 0.961 . S
H2639 C2623 0.960 . S
C2640 C2641 1.391 . S
C2640 C2642 1.394 . S
C2640 H2656 0.931 . S
C2641 C2640 1.391 . S
C2641 C2645 1.376 . S
C2642 C2640 1.394 . S
C2642 C2643 1.369 . S
C2642 C2646 1.531 . S
C2643 C2642 1.369 . S
C2643 C2644 1.410 . S
C2643 C2651 1.503 . S
C2644 C2643 1.410 . S
C2644 C2645 1.392 . S
C2644 C2647 1.511 . S
C2645 C2641 1.376 . S
C2645 C2644 1.392 . S
C2645 H2657 0.929 . S
C2646 C2642 1.531 . S
C2646 H2658 0.960 . S
C2646 H2659 0.962 . S
C2646 H2660 0.960 . S
C2647 C2644 1.511 . S
C2647 H2661 0.961 . S
C2647 H2662 0.961 . S
C2647 H2663 0.961 . S
C2648 C2649 1.370 . S
C2648 C2650 1.363 . S
C2648 H2664 0.931 . S
C2649 C2648 1.370 . S
C2649 C2653 1.408 . S
C2650 C2648 1.363 . S
C2650 C2651 1.370 . S
C2650 C2654 1.524 . S
C2651 C2643 1.503 . S
C2651 C2650 1.370 . S
C2651 C2652 1.403 . S
C2652 C2651 1.403 . S
C2652 C2653 1.404 . S
C2652 C2655 1.539 . S
C2653 C2649 1.408 . S
C2653 C2652 1.404 . S
C2653 H2665 0.930 . S
C2654 C2650 1.524 . S
C2654 H2666 0.956 . S
C2654 H2667 0.961 . S
C2654 H2668 0.961 . S
C2655 C2652 1.539 . S
C2655 H2669 0.958 . S
C2655 H2670 0.961 . S
C2655 H2671 0.960 . S
H2656 C2640 0.931 . S
H2657 C2645 0.929 . S
H2658 C2646 0.960 . S
H2659 C2646 0.962 . S
H2660 C2646 0.960 . S
H2661 C2647 0.961 . S
H2662 C2647 0.961 . S
H2663 C2647 0.961 . S
H2664 C2648 0.931 . S
H2665 C2653 0.930 . S
H2666 C2654 0.956 . S
H2667 C2654 0.961 . S
H2668 C2654 0.961 . S
H2669 C2655 0.958 . S
H2670 C2655 0.961 . S
H2671 C2655 0.960 . S
C2672 C2673 1.391 . S
C2672 C2674 1.394 . S
C2672 H2688 0.931 . S
C2673 C2672 1.391 . S
C2673 C2677 1.376 . S
C2674 C2672 1.394 . S
C2674 C2675 1.369 . S
C2674 C2678 1.531 . S
C2675 C2674 1.369 . S
C2675 C2676 1.410 . S
C2675 C2683 1.503 . S
C2676 C2675 1.410 . S
C2676 C2677 1.392 . S
C2676 C2679 1.511 . S
C2677 C2673 1.376 . S
C2677 C2676 1.392 . S
C2677 H2689 0.929 . S
C2678 C2674 1.531 . S
C2678 H2690 0.960 . S
C2678 H2691 0.962 . S
C2678 H2692 0.960 . S
C2679 C2676 1.511 . S
C2679 H2693 0.961 . S
C2679 H2694 0.961 . S
C2679 H2695 0.961 . S
C2680 C2681 1.370 . S
C2680 C2682 1.363 . S
C2680 H2696 0.931 . S
C2681 C2680 1.370 . S
C2681 C2685 1.408 . S
C2682 C2680 1.363 . S
C2682 C2683 1.370 . S
C2682 C2686 1.524 . S
C2683 C2675 1.503 . S
C2683 C2682 1.370 . S
C2683 C2684 1.403 . S
C2684 C2683 1.403 . S
C2684 C2685 1.404 . S
C2684 C2687 1.539 . S
C2685 C2681 1.408 . S
C2685 C2684 1.404 . S
C2685 H2697 0.930 . S
C2686 C2682 1.524 . S
C2686 H2698 0.956 . S
C2686 H2699 0.961 . S
C2686 H2700 0.961 . S
C2687 C2684 1.539 . S
C2687 H2701 0.958 . S
C2687 H2702 0.961 . S
C2687 H2703 0.960 . S
H2688 C2672 0.931 . S
H2689 C2677 0.929 . S
H2690 C2678 0.960 . S
H2691 C2678 0.962 . S
H2692 C2678 0.960 . S
H2693 C2679 0.961 . S
H2694 C2679 0.961 . S
H2695 C2679 0.961 . S
H2696 C2680 0.931 . S
H2697 C2685 0.930 . S
H2698 C2686 0.956 . S
H2699 C2686 0.961 . S
H2700 C2686 0.961 . S
H2701 C2687 0.958 . S
H2702 C2687 0.961 . S
H2703 C2687 0.960 . S
C2704 C2705 1.391 . S
C2704 C2706 1.394 . S
C2704 H2720 0.931 . S
C2705 C2704 1.391 . S
C2705 C2709 1.376 . S
C2706 C2704 1.394 . S
C2706 C2707 1.369 . S
C2706 C2710 1.531 . S
C2707 C2706 1.369 . S
C2707 C2708 1.410 . S
C2707 C2715 1.503 . S
C2708 C2707 1.410 . S
C2708 C2709 1.392 . S
C2708 C2711 1.511 . S
C2709 C2705 1.376 . S
C2709 C2708 1.392 . S
C2709 H2721 0.929 . S
C2710 C2706 1.531 . S
C2710 H2722 0.960 . S
C2710 H2723 0.962 . S
C2710 H2724 0.960 . S
C2711 C2708 1.511 . S
C2711 H2725 0.961 . S
C2711 H2726 0.961 . S
C2711 H2727 0.961 . S
C2712 C2713 1.370 . S
C2712 C2714 1.363 . S
C2712 H2728 0.931 . S
C2713 C2712 1.370 . S
C2713 C2717 1.408 . S
C2714 C2712 1.363 . S
C2714 C2715 1.370 . S
C2714 C2718 1.524 . S
C2715 C2707 1.503 . S
C2715 C2714 1.370 . S
C2715 C2716 1.403 . S
C2716 C2715 1.403 . S
C2716 C2717 1.404 . S
C2716 C2719 1.539 . S
C2717 C2713 1.408 . S
C2717 C2716 1.404 . S
C2717 H2729 0.930 . S
C2718 C2714 1.524 . S
C2718 H2730 0.956 . S
C2718 H2731 0.961 . S
C2718 H2732 0.961 . S
C2719 C2716 1.539 . S
C2719 H2733 0.958 . S
C2719 H2734 0.961 . S
C2719 H2735 0.960 . S
H2720 C2704 0.931 . S
H2721 C2709 0.929 . S
H2722 C2710 0.960 . S
H2723 C2710 0.962 . S
H2724 C2710 0.960 . S
H2725 C2711 0.961 . S
H2726 C2711 0.961 . S
H2727 C2711 0.961 . S
H2728 C2712 0.931 . S
H2729 C2717 0.930 . S
H2730 C2718 0.956 . S
H2731 C2718 0.961 . S
H2732 C2718 0.961 . S
H2733 C2719 0.958 . S
H2734 C2719 0.961 . S
H2735 C2719 0.960 . S
C2736 C2737 1.391 . S
C2736 C2738 1.394 . S
C2736 H2752 0.931 . S
C2737 C2736 1.391 . S
C2737 C2741 1.376 . S
C2738 C2736 1.394 . S
C2738 C2739 1.369 . S
C2738 C2742 1.531 . S
C2739 C2738 1.369 . S
C2739 C2740 1.410 . S
C2739 C2747 1.503 . S
C2740 C2739 1.410 . S
C2740 C2741 1.392 . S
C2740 C2743 1.511 . S
C2741 C2737 1.376 . S
C2741 C2740 1.392 . S
C2741 H2753 0.929 . S
C2742 C2738 1.531 . S
C2742 H2754 0.960 . S
C2742 H2755 0.962 . S
C2742 H2756 0.960 . S
C2743 C2740 1.511 . S
C2743 H2757 0.961 . S
C2743 H2758 0.961 . S
C2743 H2759 0.961 . S
C2744 C2745 1.370 . S
C2744 C2746 1.363 . S
C2744 H2760 0.931 . S
C2745 C2744 1.370 . S
C2745 C2749 1.408 . S
C2746 C2744 1.363 . S
C2746 C2747 1.370 . S
C2746 C2750 1.524 . S
C2747 C2739 1.503 . S
C2747 C2746 1.370 . S
C2747 C2748 1.403 . S
C2748 C2747 1.403 . S
C2748 C2749 1.404 . S
C2748 C2751 1.539 . S
C2749 C2745 1.408 . S
C2749 C2748 1.404 . S
C2749 H2761 0.930 . S
C2750 C2746 1.524 . S
C2750 H2762 0.956 . S
C2750 H2763 0.961 . S
C2750 H2764 0.961 . S
C2751 C2748 1.539 . S
C2751 H2765 0.958 . S
C2751 H2766 0.961 . S
C2751 H2767 0.960 . S
H2752 C2736 0.931 . S
H2753 C2741 0.929 . S
H2754 C2742 0.960 . S
H2755 C2742 0.962 . S
H2756 C2742 0.960 . S
H2757 C2743 0.961 . S
H2758 C2743 0.961 . S
H2759 C2743 0.961 . S
H2760 C2744 0.931 . S
H2761 C2749 0.930 . S
H2762 C2750 0.956 . S
H2763 C2750 0.961 . S
H2764 C2750 0.961 . S
H2765 C2751 0.958 . S
H2766 C2751 0.961 . S
H2767 C2751 0.960 . S
C2768 C2769 1.391 . S
C2768 C2770 1.394 . S
C2768 H2784 0.931 . S
C2769 C2768 1.391 . S
C2769 C2773 1.376 . S
C2770 C2768 1.394 . S
C2770 C2771 1.369 . S
C2770 C2774 1.531 . S
C2771 C2770 1.369 . S
C2771 C2772 1.410 . S
C2771 C2779 1.503 . S
C2772 C2771 1.410 . S
C2772 C2773 1.392 . S
C2772 C2775 1.511 . S
C2773 C2769 1.376 . S
C2773 C2772 1.392 . S
C2773 H2785 0.929 . S
C2774 C2770 1.531 . S
C2774 H2786 0.960 . S
C2774 H2787 0.962 . S
C2774 H2788 0.960 . S
C2775 C2772 1.511 . S
C2775 H2789 0.961 . S
C2775 H2790 0.961 . S
C2775 H2791 0.961 . S
C2776 C2777 1.370 . S
C2776 C2778 1.363 . S
C2776 H2792 0.931 . S
C2777 C2776 1.370 . S
C2777 C2781 1.408 . S
C2778 C2776 1.363 . S
C2778 C2779 1.370 . S
C2778 C2782 1.524 . S
C2779 C2771 1.503 . S
C2779 C2778 1.370 . S
C2779 C2780 1.403 . S
C2780 C2779 1.403 . S
C2780 C2781 1.404 . S
C2780 C2783 1.539 . S
C2781 C2777 1.408 . S
C2781 C2780 1.404 . S
C2781 H2793 0.930 . S
C2782 C2778 1.524 . S
C2782 H2794 0.956 . S
C2782 H2795 0.961 . S
C2782 H2796 0.961 . S
C2783 C2780 1.539 . S
C2783 H2797 0.958 . S
C2783 H2798 0.961 . S
C2783 H2799 0.960 . S
H2784 C2768 0.931 . S
H2785 C2773 0.929 . S
H2786 C2774 0.960 . S
H2787 C2774 0.962 . S
H2788 C2774 0.960 . S
H2789 C2775 0.961 . S
H2790 C2775 0.961 . S
H2791 C2775 0.961 . S
H2792 C2776 0.931 . S
H2793 C2781 0.930 . S
H2794 C2782 0.956 . S
H2795 C2782 0.961 . S
H2796 C2782 0.961 . S
H2797 C2783 0.958 . S
H2798 C2783 0.961 . S
H2799 C2783 0.960 . S
C2800 C2801 1.391 . S
C2800 C2802 1.394 . S
C2800 H2816 0.931 . S
C2801 C2800 1.391 . S
C2801 C2805 1.376 . S
C2802 C2800 1.394 . S
C2802 C2803 1.369 . S
C2802 C2806 1.531 . S
C2803 C2802 1.369 . S
C2803 C2804 1.410 . S
C2803 C2811 1.503 . S
C2804 C2803 1.410 . S
C2804 C2805 1.392 . S
C2804 C2807 1.511 . S
C2805 C2801 1.376 . S
C2805 C2804 1.392 . S
C2805 H2817 0.929 . S
C2806 C2802 1.531 . S
C2806 H2818 0.960 . S
C2806 H2819 0.962 . S
C2806 H2820 0.960 . S
C2807 C2804 1.511 . S
C2807 H2821 0.961 . S
C2807 H2822 0.961 . S
C2807 H2823 0.961 . S
C2808 C2809 1.370 . S
C2808 C2810 1.363 . S
C2808 H2824 0.931 . S
C2809 C2808 1.370 . S
C2809 C2813 1.408 . S
C2810 C2808 1.363 . S
C2810 C2811 1.370 . S
C2810 C2814 1.524 . S
C2811 C2803 1.503 . S
C2811 C2810 1.370 . S
C2811 C2812 1.403 . S
C2812 C2811 1.403 . S
C2812 C2813 1.404 . S
C2812 C2815 1.539 . S
C2813 C2809 1.408 . S
C2813 C2812 1.404 . S
C2813 H2825 0.930 . S
C2814 C2810 1.524 . S
C2814 H2826 0.956 . S
C2814 H2827 0.961 . S
C2814 H2828 0.961 . S
C2815 C2812 1.539 . S
C2815 H2829 0.958 . S
C2815 H2830 0.961 . S
C2815 H2831 0.960 . S
H2816 C2800 0.931 . S
H2817 C2805 0.929 . S
H2818 C2806 0.960 . S
H2819 C2806 0.962 . S
H2820 C2806 0.960 . S
H2821 C2807 0.961 . S
H2822 C2807 0.961 . S
H2823 C2807 0.961 . S
H2824 C2808 0.931 . S
H2825 C2813 0.930 . S
H2826 C2814 0.956 . S
H2827 C2814 0.961 . S
H2828 C2814 0.961 . S
H2829 C2815 0.958 . S
H2830 C2815 0.961 . S
H2831 C2815 0.960 . S
C2832 C2833 1.391 . S
C2832 C2834 1.394 . S
C2832 H2848 0.931 . S
C2833 C2832 1.391 . S
C2833 C2837 1.376 . S
C2834 C2832 1.394 . S
C2834 C2835 1.369 . S
C2834 C2838 1.531 . S
C2835 C2834 1.369 . S
C2835 C2836 1.410 . S
C2835 C2843 1.503 . S
C2836 C2835 1.410 . S
C2836 C2837 1.392 . S
C2836 C2839 1.511 . S
C2837 C2833 1.376 . S
C2837 C2836 1.392 . S
C2837 H2849 0.929 . S
C2838 C2834 1.531 . S
C2838 H2850 0.960 . S
C2838 H2851 0.962 . S
C2838 H2852 0.960 . S
C2839 C2836 1.511 . S
C2839 H2853 0.961 . S
C2839 H2854 0.961 . S
C2839 H2855 0.961 . S
C2840 C2841 1.370 . S
C2840 C2842 1.363 . S
C2840 H2856 0.931 . S
C2841 C2840 1.370 . S
C2841 C2845 1.408 . S
C2842 C2840 1.363 . S
C2842 C2843 1.370 . S
C2842 C2846 1.524 . S
C2843 C2835 1.503 . S
C2843 C2842 1.370 . S
C2843 C2844 1.403 . S
C2844 C2843 1.403 . S
C2844 C2845 1.404 . S
C2844 C2847 1.539 . S
C2845 C2841 1.408 . S
C2845 C2844 1.404 . S
C2845 H2857 0.930 . S
C2846 C2842 1.524 . S
C2846 H2858 0.956 . S
C2846 H2859 0.961 . S
C2846 H2860 0.961 . S
C2847 C2844 1.539 . S
C2847 H2861 0.958 . S
C2847 H2862 0.961 . S
C2847 H2863 0.960 . S
H2848 C2832 0.931 . S
H2849 C2837 0.929 . S
H2850 C2838 0.960 . S
H2851 C2838 0.962 . S
H2852 C2838 0.960 . S
H2853 C2839 0.961 . S
H2854 C2839 0.961 . S
H2855 C2839 0.961 . S
H2856 C2840 0.931 . S
H2857 C2845 0.930 . S
H2858 C2846 0.956 . S
H2859 C2846 0.961 . S
H2860 C2846 0.961 . S
H2861 C2847 0.958 . S
H2862 C2847 0.961 . S
H2863 C2847 0.960 . S
C2864 C2865 1.391 . S
C2864 C2866 1.394 . S
C2864 H2880 0.931 . S
C2865 C2864 1.391 . S
C2865 C2869 1.376 . S
C2866 C2864 1.394 . S
C2866 C2867 1.369 . S
C2866 C2870 1.531 . S
C2867 C2866 1.369 . S
C2867 C2868 1.410 . S
C2867 C2875 1.503 . S
C2868 C2867 1.410 . S
C2868 C2869 1.392 . S
C2868 C2871 1.511 . S
C2869 C2865 1.376 . S
C2869 C2868 1.392 . S
C2869 H2881 0.929 . S
C2870 C2866 1.531 . S
C2870 H2882 0.960 . S
C2870 H2883 0.962 . S
C2870 H2884 0.960 . S
C2871 C2868 1.511 . S
C2871 H2885 0.961 . S
C2871 H2886 0.961 . S
C2871 H2887 0.961 . S
C2872 C2873 1.370 . S
C2872 C2874 1.363 . S
C2872 H2888 0.931 . S
C2873 C2872 1.370 . S
C2873 C2877 1.408 . S
C2874 C2872 1.363 . S
C2874 C2875 1.370 . S
C2874 C2878 1.524 . S
C2875 C2867 1.503 . S
C2875 C2874 1.370 . S
C2875 C2876 1.403 . S
C2876 C2875 1.403 . S
C2876 C2877 1.404 . S
C2876 C2879 1.539 . S
C2877 C2873 1.408 . S
C2877 C2876 1.404 . S
C2877 H2889 0.930 . S
C2878 C2874 1.524 . S
C2878 H2890 0.956 . S
C2878 H2891 0.961 . S
C2878 H2892 0.961 . S
C2879 C2876 1.539 . S
C2879 H2893 0.958 . S
C2879 H2894 0.961 . S
C2879 H2895 0.960 . S
H2880 C2864 0.931 . S
H2881 C2869 0.929 . S
H2882 C2870 0.960 . S
H2883 C2870 0.962 . S
H2884 C2870 0.960 . S
H2885 C2871 0.961 . S
H2886 C2871 0.961 . S
H2887 C2871 0.961 . S
H2888 C2872 0.931 . S
H2889 C2877 0.930 . S
H2890 C2878 0.956 . S
H2891 C2878 0.961 . S
H2892 C2878 0.961 . S
H2893 C2879 0.958 . S
H2894 C2879 0.961 . S
H2895 C2879 0.960 . S
C2896 C2897 1.391 . S
C2896 C2898 1.394 . S
C2896 H2912 0.931 . S
C2897 C2896 1.391 . S
C2897 C2901 1.376 . S
C2898 C2896 1.394 . S
C2898 C2899 1.369 . S
C2898 C2902 1.531 . S
C2899 C2898 1.369 . S
C2899 C2900 1.410 . S
C2899 C2907 1.503 . S
C2900 C2899 1.410 . S
C2900 C2901 1.392 . S
C2900 C2903 1.511 . S
C2901 C2897 1.376 . S
C2901 C2900 1.392 . S
C2901 H2913 0.929 . S
C2902 C2898 1.531 . S
C2902 H2914 0.960 . S
C2902 H2915 0.962 . S
C2902 H2916 0.960 . S
C2903 C2900 1.511 . S
C2903 H2917 0.961 . S
C2903 H2918 0.961 . S
C2903 H2919 0.961 . S
C2904 C2905 1.370 . S
C2904 C2906 1.363 . S
C2904 H2920 0.931 . S
C2905 C2904 1.370 . S
C2905 C2909 1.408 . S
C2906 C2904 1.363 . S
C2906 C2907 1.370 . S
C2906 C2910 1.524 . S
C2907 C2899 1.503 . S
C2907 C2906 1.370 . S
C2907 C2908 1.403 . S
C2908 C2907 1.403 . S
C2908 C2909 1.404 . S
C2908 C2911 1.539 . S
C2909 C2905 1.408 . S
C2909 C2908 1.404 . S
C2909 H2921 0.930 . S
C2910 C2906 1.524 . S
C2910 H2922 0.956 . S
C2910 H2923 0.961 . S
C2910 H2924 0.961 . S
C2911 C2908 1.539 . S
C2911 H2925 0.958 . S
C2911 H2926 0.961 . S
C2911 H2927 0.960 . S
H2912 C2896 0.931 . S
H2913 C2901 0.929 . S
H2914 C2902 0.960 . S
H2915 C2902 0.962 . S
H2916 C2902 0.960 . S
H2917 C2903 0.961 . S
H2918 C2903 0.961 . S
H2919 C2903 0.961 . S
H2920 C2904 0.931 . S
H2921 C2909 0.930 . S
H2922 C2910 0.956 . S
H2923 C2910 0.961 . S
H2924 C2910 0.961 . S
H2925 C2911 0.958 . S
H2926 C2911 0.961 . S
H2927 C2911 0.960 . S
C2928 C2929 1.391 . S
C2928 C2930 1.394 . S
C2928 H2944 0.931 . S
C2929 C2928 1.391 . S
C2929 C2933 1.376 . S
C2930 C2928 1.394 . S
C2930 C2931 1.369 . S
C2930 C2934 1.531 . S
C2931 C2930 1.369 . S
C2931 C2932 1.410 . S
C2931 C2939 1.503 . S
C2932 C2931 1.410 . S
C2932 C2933 1.392 . S
C2932 C2935 1.511 . S
C2933 C2929 1.376 . S
C2933 C2932 1.392 . S
C2933 H2945 0.929 . S
C2934 C2930 1.531 . S
C2934 H2946 0.960 . S
C2934 H2947 0.962 . S
C2934 H2948 0.960 . S
C2935 C2932 1.511 . S
C2935 H2949 0.961 . S
C2935 H2950 0.961 . S
C2935 H2951 0.961 . S
C2936 C2937 1.370 . S
C2936 C2938 1.363 . S
C2936 H2952 0.931 . S
C2937 C2936 1.370 . S
C2937 C2941 1.408 . S
C2938 C2936 1.363 . S
C2938 C2939 1.370 . S
C2938 C2942 1.524 . S
C2939 C2931 1.503 . S
C2939 C2938 1.370 . S
C2939 C2940 1.403 . S
C2940 C2939 1.403 . S
C2940 C2941 1.404 . S
C2940 C2943 1.539 . S
C2941 C2937 1.408 . S
C2941 C2940 1.404 . S
C2941 H2953 0.930 . S
C2942 C2938 1.524 . S
C2942 H2954 0.956 . S
C2942 H2955 0.961 . S
C2942 H2956 0.961 . S
C2943 C2940 1.539 . S
C2943 H2957 0.958 . S
C2943 H2958 0.961 . S
C2943 H2959 0.960 . S
H2944 C2928 0.931 . S
H2945 C2933 0.929 . S
H2946 C2934 0.960 . S
H2947 C2934 0.962 . S
H2948 C2934 0.960 . S
H2949 C2935 0.961 . S
H2950 C2935 0.961 . S
H2951 C2935 0.961 . S
H2952 C2936 0.931 . S
H2953 C2941 0.930 . S
H2954 C2942 0.956 . S
H2955 C2942 0.961 . S
H2956 C2942 0.961 . S
H2957 C2943 0.958 . S
H2958 C2943 0.961 . S
H2959 C2943 0.960 . S
C2960 C2961 1.391 . S
C2960 C2962 1.394 . S
C2960 H2976 0.931 . S
C2961 C2960 1.391 . S
C2961 C2965 1.376 . S
C2962 C2960 1.394 . S
C2962 C2963 1.369 . S
C2962 C2966 1.531 . S
C2963 C2962 1.369 . S
C2963 C2964 1.410 . S
C2963 C2971 1.503 . S
C2964 C2963 1.410 . S
C2964 C2965 1.392 . S
C2964 C2967 1.511 . S
C2965 C2961 1.376 . S
C2965 C2964 1.392 . S
C2965 H2977 0.929 . S
C2966 C2962 1.531 . S
C2966 H2978 0.960 . S
C2966 H2979 0.962 . S
C2966 H2980 0.960 . S
C2967 C2964 1.511 . S
C2967 H2981 0.961 . S
C2967 H2982 0.961 . S
C2967 H2983 0.961 . S
C2968 C2969 1.370 . S
C2968 C2970 1.363 . S
C2968 H2984 0.931 . S
C2969 C2968 1.370 . S
C2969 C2973 1.408 . S
C2970 C2968 1.363 . S
C2970 C2971 1.370 . S
C2970 C2974 1.524 . S
C2971 C2963 1.503 . S
C2971 C2970 1.370 . S
C2971 C2972 1.403 . S
C2972 C2971 1.403 . S
C2972 C2973 1.404 . S
C2972 C2975 1.539 . S
C2973 C2969 1.408 . S
C2973 C2972 1.404 . S
C2973 H2985 0.930 . S
C2974 C2970 1.524 . S
C2974 H2986 0.956 . S
C2974 H2987 0.961 . S
C2974 H2988 0.961 . S
C2975 C2972 1.539 . S
C2975 H2989 0.958 . S
C2975 H2990 0.961 . S
C2975 H2991 0.960 . S
H2976 C2960 0.931 . S
H2977 C2965 0.929 . S
H2978 C2966 0.960 . S
H2979 C2966 0.962 . S
H2980 C2966 0.960 . S
H2981 C2967 0.961 . S
H2982 C2967 0.961 . S
H2983 C2967 0.961 . S
H2984 C2968 0.931 . S
H2985 C2973 0.930 . S
H2986 C2974 0.956 . S
H2987 C2974 0.961 . S
H2988 C2974 0.961 . S
H2989 C2975 0.958 . S
H2990 C2975 0.961 . S
H2991 C2975 0.960 . S
C2992 C2993 1.391 . S
C2992 C2994 1.394 . S
C2992 H3008 0.931 . S
C2993 C2992 1.391 . S
C2993 C2997 1.376 . S
C2994 C2992 1.394 . S
C2994 C2995 1.369 . S
C2994 C2998 1.531 . S
C2995 C2994 1.369 . S
C2995 C2996 1.410 . S
C2995 C3003 1.503 . S
C2996 C2995 1.410 . S
C2996 C2997 1.392 . S
C2996 C2999 1.511 . S
C2997 C2993 1.376 . S
C2997 C2996 1.392 . S
C2997 H3009 0.929 . S
C2998 C2994 1.531 . S
C2998 H3010 0.960 . S
C2998 H3011 0.962 . S
C2998 H3012 0.960 . S
C2999 C2996 1.511 . S
C2999 H3013 0.961 . S
C2999 H3014 0.961 . S
C2999 H3015 0.961 . S
C3000 C3001 1.370 . S
C3000 C3002 1.363 . S
C3000 H3016 0.931 . S
C3001 C3000 1.370 . S
C3001 C3005 1.408 . S
C3002 C3000 1.363 . S
C3002 C3003 1.370 . S
C3002 C3006 1.524 . S
C3003 C2995 1.503 . S
C3003 C3002 1.370 . S
C3003 C3004 1.403 . S
C3004 C3003 1.403 . S
C3004 C3005 1.404 . S
C3004 C3007 1.539 . S
C3005 C3001 1.408 . S
C3005 C3004 1.404 . S
C3005 H3017 0.930 . S
C3006 C3002 1.524 . S
C3006 H3018 0.956 . S
C3006 H3019 0.961 . S
C3006 H3020 0.961 . S
C3007 C3004 1.539 . S
C3007 H3021 0.958 . S
C3007 H3022 0.961 . S
C3007 H3023 0.960 . S
H3008 C2992 0.931 . S
H3009 C2997 0.929 . S
H3010 C2998 0.960 . S
H3011 C2998 0.962 . S
H3012 C2998 0.960 . S
H3013 C2999 0.961 . S
H3014 C2999 0.961 . S
H3015 C2999 0.961 . S
H3016 C3000 0.931 . S
H3017 C3005 0.930 . S
H3018 C3006 0.956 . S
H3019 C3006 0.961 . S
H3020 C3006 0.961 . S
H3021 C3007 0.958 . S
H3022 C3007 0.961 . S
H3023 C3007 0.960 . S
C3024 C3025 1.391 . S
C3024 C3026 1.394 . S
C3024 H3040 0.931 . S
C3025 C3024 1.391 . S
C3025 C3029 1.376 . S
C3026 C3024 1.394 . S
C3026 C3027 1.369 . S
C3026 C3030 1.531 . S
C3027 C3026 1.369 . S
C3027 C3028 1.410 . S
C3027 C3035 1.503 . S
C3028 C3027 1.410 . S
C3028 C3029 1.392 . S
C3028 C3031 1.511 . S
C3029 C3025 1.376 . S
C3029 C3028 1.392 . S
C3029 H3041 0.929 . S
C3030 C3026 1.531 . S
C3030 H3042 0.960 . S
C3030 H3043 0.962 . S
C3030 H3044 0.960 . S
C3031 C3028 1.511 . S
C3031 H3045 0.961 . S
C3031 H3046 0.961 . S
C3031 H3047 0.961 . S
C3032 C3033 1.370 . S
C3032 C3034 1.363 . S
C3032 H3048 0.931 . S
C3033 C3032 1.370 . S
C3033 C3037 1.408 . S
C3034 C3032 1.363 . S
C3034 C3035 1.370 . S
C3034 C3038 1.524 . S
C3035 C3027 1.503 . S
C3035 C3034 1.370 . S
C3035 C3036 1.403 . S
C3036 C3035 1.403 . S
C3036 C3037 1.404 . S
C3036 C3039 1.539 . S
C3037 C3033 1.408 . S
C3037 C3036 1.404 . S
C3037 H3049 0.930 . S
C3038 C3034 1.524 . S
C3038 H3050 0.956 . S
C3038 H3051 0.961 . S
C3038 H3052 0.961 . S
C3039 C3036 1.539 . S
C3039 H3053 0.958 . S
C3039 H3054 0.961 . S
C3039 H3055 0.960 . S
H3040 C3024 0.931 . S
H3041 C3029 0.929 . S
H3042 C3030 0.960 . S
H3043 C3030 0.962 . S
H3044 C3030 0.960 . S
H3045 C3031 0.961 . S
H3046 C3031 0.961 . S
H3047 C3031 0.961 . S
H3048 C3032 0.931 . S
H3049 C3037 0.930 . S
H3050 C3038 0.956 . S
H3051 C3038 0.961 . S
H3052 C3038 0.961 . S
H3053 C3039 0.958 . S
H3054 C3039 0.961 . S
H3055 C3039 0.960 . S
C3056 C3057 1.391 . S
C3056 C3058 1.394 . S
C3056 H3072 0.931 . S
C3057 C3056 1.391 . S
C3057 C3061 1.376 . S
C3058 C3056 1.394 . S
C3058 C3059 1.369 . S
C3058 C3062 1.531 . S
C3059 C3058 1.369 . S
C3059 C3060 1.410 . S
C3059 C3067 1.503 . S
C3060 C3059 1.410 . S
C3060 C3061 1.392 . S
C3060 C3063 1.511 . S
C3061 C3057 1.376 . S
C3061 C3060 1.392 . S
C3061 H3073 0.929 . S
C3062 C3058 1.531 . S
C3062 H3074 0.960 . S
C3062 H3075 0.962 . S
C3062 H3076 0.960 . S
C3063 C3060 1.511 . S
C3063 H3077 0.961 . S
C3063 H3078 0.961 . S
C3063 H3079 0.961 . S
C3064 C3065 1.370 . S
C3064 C3066 1.363 . S
C3064 H3080 0.931 . S
C3065 C3064 1.370 . S
C3065 C3069 1.408 . S
C3066 C3064 1.363 . S
C3066 C3067 1.370 . S
C3066 C3070 1.524 . S
C3067 C3059 1.503 . S
C3067 C3066 1.370 . S
C3067 C3068 1.403 . S
C3068 C3067 1.403 . S
C3068 C3069 1.404 . S
C3068 C3071 1.539 . S
C3069 C3065 1.408 . S
C3069 C3068 1.404 . S
C3069 H3081 0.930 . S
C3070 C3066 1.524 . S
C3070 H3082 0.956 . S
C3070 H3083 0.961 . S
C3070 H3084 0.961 . S
C3071 C3068 1.539 . S
C3071 H3085 0.958 . S
C3071 H3086 0.961 . S
C3071 H3087 0.960 . S
H3072 C3056 0.931 . S
H3073 C3061 0.929 . S
H3074 C3062 0.960 . S
H3075 C3062 0.962 . S
H3076 C3062 0.960 . S
H3077 C3063 0.961 . S
H3078 C3063 0.961 . S
H3079 C3063 0.961 . S
H3080 C3064 0.931 . S
H3081 C3069 0.930 . S
H3082 C3070 0.956 . S
H3083 C3070 0.961 . S
H3084 C3070 0.961 . S
H3085 C3071 0.958 . S
H3086 C3071 0.961 . S
H3087 C3071 0.960 . S
C3088 C3089 1.391 . S
C3088 C3090 1.394 . S
C3088 H3104 0.931 . S
C3089 C3088 1.391 . S
C3089 C3093 1.376 . S
C3090 C3088 1.394 . S
C3090 C3091 1.369 . S
C3090 C3094 1.531 1_545 S
C3091 C3090 1.369 . S
C3091 C3092 1.410 . S
C3091 C3099 1.484 1_545 S
C3092 C3091 1.410 . S
C3092 C3093 1.392 . S
C3092 C3095 1.511 . S
C3093 C3089 1.376 . S
C3093 C3092 1.392 . S
C3093 H3105 0.929 . S
C3094 C3090 1.531 1_565 S
C3094 H3106 0.960 . S
C3094 H3107 0.962 . S
C3094 H3108 0.960 . S
C3095 C3092 1.511 . S
C3095 H3109 0.961 . S
C3095 H3110 0.961 . S
C3095 H3111 0.961 . S
C3096 C3097 1.370 . S
C3096 C3098 1.363 . S
C3096 H3112 0.931 . S
C3097 C3096 1.370 . S
C3097 C3101 1.408 . S
C3098 C3096 1.363 . S
C3098 C3099 1.395 . S
C3098 C3102 1.524 . S
C3099 C3091 1.484 1_565 S
C3099 C3098 1.395 . S
C3099 C3100 1.398 1_565 S
C3100 C3099 1.398 1_545 S
C3100 C3101 1.404 1_545 S
C3100 C3103 1.539 . S
C3101 C3097 1.408 . S
C3101 C3100 1.404 1_565 S
C3101 H3113 0.930 . S
C3102 C3098 1.524 . S
C3102 H3114 0.956 . S
C3102 H3115 0.961 . S
C3102 H3116 0.961 . S
C3103 C3100 1.539 . S
C3103 H3117 0.958 . S
C3103 H3118 0.961 . S
C3103 H3119 0.960 . S
H3104 C3088 0.931 . S
H3105 C3093 0.929 . S
H3106 C3094 0.960 . S
H3107 C3094 0.962 . S
H3108 C3094 0.960 . S
H3109 C3095 0.961 . S
H3110 C3095 0.961 . S
H3111 C3095 0.961 . S
H3112 C3096 0.931 . S
H3113 C3101 0.930 . S
H3114 C3102 0.956 . S
H3115 C3102 0.961 . S
H3116 C3102 0.961 . S
H3117 C3103 0.958 . S
H3118 C3103 0.961 . S
H3119 C3103 0.960 . S
C3120 C3121 1.391 . S
C3120 C3122 1.394 . S
C3120 H3136 0.931 . S
C3121 C3120 1.391 . S
C3121 C3125 1.376 . S
C3122 C3120 1.394 . S
C3122 C3123 1.369 1_565 S
C3122 C3126 1.531 . S
C3123 C3122 1.369 1_545 S
C3123 C3124 1.410 . S
C3123 C3131 1.503 . S
C3124 C3123 1.410 . S
C3124 C3125 1.392 1_545 S
C3124 C3127 1.511 . S
C3125 C3121 1.376 . S
C3125 C3124 1.392 1_565 S
C3125 H3137 0.937 . S
C3126 C3122 1.531 . S
C3126 H3138 0.960 1_565 S
C3126 H3139 0.962 . S
C3126 H3140 0.960 1_554 S
C3127 C3124 1.511 . S
C3127 H3141 0.961 . S
C3127 H3142 0.961 . S
C3127 H3143 0.961 . S
C3128 C3129 1.370 . S
C3128 C3130 1.363 . S
C3128 H3144 0.931 . S
C3129 C3128 1.370 . S
C3129 C3133 1.408 . S
C3130 C3128 1.363 . S
C3130 C3131 1.370 . S
C3130 C3134 1.524 1_545 S
C3131 C3123 1.503 . S
C3131 C3130 1.370 . S
C3131 C3132 1.403 . S
C3132 C3131 1.403 . S
C3132 C3133 1.404 . S
C3132 C3135 1.539 . S
C3133 C3129 1.408 . S
C3133 C3132 1.404 . S
C3133 H3145 0.930 . S
C3134 C3130 1.524 1_565 S
C3134 H3146 0.956 . S
C3134 H3147 0.961 . S
C3134 H3148 0.961 . S
C3135 C3132 1.539 . S
C3135 H3149 0.958 . S
C3135 H3150 0.961 . S
C3135 H3151 0.960 . S
H3136 C3120 0.931 . S
H3137 C3125 0.937 . S
H3138 C3126 0.960 1_545 S
H3139 C3126 0.962 . S
H3140 C3126 0.960 1_556 S
H3141 C3127 0.961 . S
H3142 C3127 0.961 . S
H3143 C3127 0.961 . S
H3144 C3128 0.931 . S
H3145 C3133 0.930 . S
H3146 C3134 0.956 . S
H3147 C3134 0.961 . S
H3148 C3134 0.961 . S
H3149 C3135 0.958 . S
H3150 C3135 0.961 . S
H3151 C3135 0.960 . S
C3152 C3153 1.391 . S
C3152 C3154 1.394 . S
C3152 H3168 0.931 . S
C3153 C3152 1.391 . S
C3153 C3157 1.376 . S
C3154 C3152 1.394 . S
C3154 C3155 1.369 . S
C3154 C3158 1.531 . S
C3155 C3154 1.369 . S
C3155 C3156 1.410 . S
C3155 C3163 1.503 . S
C3156 C3155 1.410 . S
C3156 C3157 1.392 . S
C3156 C3159 1.511 . S
C3157 C3153 1.376 . S
C3157 C3156 1.392 . S
C3157 H3169 0.929 . S
C3158 C3154 1.531 . S
C3158 H3170 0.960 . S
C3158 H3171 0.962 . S
C3158 H3172 0.960 . S
C3159 C3156 1.511 . S
C3159 H3173 0.961 . S
C3159 H3174 0.961 . S
C3159 H3175 0.961 . S
C3160 C3161 1.370 . S
C3160 C3162 1.363 . S
C3160 H3176 0.931 . S
C3161 C3160 1.370 . S
C3161 C3165 1.408 . S
C3162 C3160 1.363 . S
C3162 C3163 1.370 . S
C3162 C3166 1.524 . S
C3163 C3155 1.503 . S
C3163 C3162 1.370 . S
C3163 C3164 1.403 . S
C3164 C3163 1.403 . S
C3164 C3165 1.404 . S
C3164 C3167 1.539 . S
C3165 C3161 1.408 . S
C3165 C3164 1.404 . S
C3165 H3177 0.930 . S
C3166 C3162 1.524 . S
C3166 H3178 0.956 . S
C3166 H3179 0.961 . S
C3166 H3180 0.961 . S
C3167 C3164 1.539 . S
C3167 H3181 0.958 . S
C3167 H3182 0.961 . S
C3167 H3183 0.960 . S
H3168 C3152 0.931 . S
H3169 C3157 0.929 . S
H3170 C3158 0.960 . S
H3171 C3158 0.962 . S
H3172 C3158 0.960 . S
H3173 C3159 0.961 . S
H3174 C3159 0.961 . S
H3175 C3159 0.961 . S
H3176 C3160 0.931 . S
H3177 C3165 0.930 . S
H3178 C3166 0.956 . S
H3179 C3166 0.961 . S
H3180 C3166 0.961 . S
H3181 C3167 0.958 . S
H3182 C3167 0.961 . S
H3183 C3167 0.960 . S
C3184 C3185 1.391 . S
C3184 C3186 1.394 . S
C3184 H3200 0.931 . S
C3185 C3184 1.391 . S
C3185 C3189 1.376 . S
C3186 C3184 1.394 . S
C3186 C3187 1.369 . S
C3186 C3190 1.531 . S
C3187 C3186 1.369 . S
C3187 C3188 1.410 . S
C3187 C3195 1.503 . S
C3188 C3187 1.410 . S
C3188 C3189 1.392 . S
C3188 C3191 1.511 . S
C3189 C3185 1.376 . S
C3189 C3188 1.392 . S
C3189 H3201 0.929 . S
C3190 C3186 1.531 . S
C3190 H3202 0.960 . S
C3190 H3203 0.962 . S
C3190 H3204 0.960 . S
C3191 C3188 1.511 . S
C3191 H3205 0.961 . S
C3191 H3206 0.961 . S
C3191 H3207 0.961 . S
C3192 C3193 1.370 . S
C3192 C3194 1.363 . S
C3192 H3208 0.931 . S
C3193 C3192 1.370 . S
C3193 C3197 1.408 . S
C3194 C3192 1.363 . S
C3194 C3195 1.370 . S
C3194 C3198 1.524 . S
C3195 C3187 1.503 . S
C3195 C3194 1.370 . S
C3195 C3196 1.403 . S
C3196 C3195 1.403 . S
C3196 C3197 1.404 . S
C3196 C3199 1.539 . S
C3197 C3193 1.408 . S
C3197 C3196 1.404 . S
C3197 H3209 0.930 . S
C3198 C3194 1.524 . S
C3198 H3210 0.956 . S
C3198 H3211 0.961 . S
C3198 H3212 0.961 . S
C3199 C3196 1.539 . S
C3199 H3213 0.958 1_554 S
C3199 H3214 0.961 1_554 S
C3199 H3215 0.960 . S
H3200 C3184 0.931 . S
H3201 C3189 0.929 . S
H3202 C3190 0.960 . S
H3203 C3190 0.962 . S
H3204 C3190 0.960 . S
H3205 C3191 0.961 . S
H3206 C3191 0.961 . S
H3207 C3191 0.961 . S
H3208 C3192 0.931 . S
H3209 C3197 0.930 . S
H3210 C3198 0.956 . S
H3211 C3198 0.961 . S
H3212 C3198 0.961 . S
H3213 C3199 0.958 1_556 S
H3214 C3199 0.961 1_556 S
H3215 C3199 0.960 . S
C3216 C3217 1.391 . S
C3216 C3218 1.394 . S
C3216 H3232 0.931 . S
C3217 C3216 1.391 . S
C3217 C3221 1.376 . S
C3218 C3216 1.394 . S
C3218 C3219 1.369 . S
C3218 C3222 1.531 . S
C3219 C3218 1.369 . S
C3219 C3220 1.410 . S
C3219 C3227 1.503 . S
C3220 C3219 1.410 . S
C3220 C3221 1.392 . S
C3220 C3223 1.511 . S
C3221 C3217 1.376 . S
C3221 C3220 1.392 . S
C3221 H3233 0.929 . S
C3222 C3218 1.531 . S
C3222 H3234 0.960 . S
C3222 H3235 0.962 . S
C3222 H3236 0.960 . S
C3223 C3220 1.511 . S
C3223 H3237 0.961 . S
C3223 H3238 0.961 . S
C3223 H3239 0.961 . S
C3224 C3225 1.370 . S
C3224 C3226 1.363 . S
C3224 H3240 0.931 . S
C3225 C3224 1.370 . S
C3225 C3229 1.408 . S
C3226 C3224 1.363 . S
C3226 C3227 1.370 . S
C3226 C3230 1.524 . S
C3227 C3219 1.503 . S
C3227 C3226 1.370 . S
C3227 C3228 1.403 . S
C3228 C3227 1.403 . S
C3228 C3229 1.404 . S
C3228 C3231 1.539 . S
C3229 C3225 1.408 . S
C3229 C3228 1.404 . S
C3229 H3241 0.930 . S
C3230 C3226 1.524 . S
C3230 H3242 0.956 . S
C3230 H3243 0.961 . S
C3230 H3244 0.961 . S
C3231 C3228 1.539 . S
C3231 H3245 0.958 . S
C3231 H3246 0.961 . S
C3231 H3247 0.960 . S
H3232 C3216 0.931 . S
H3233 C3221 0.929 . S
H3234 C3222 0.960 . S
H3235 C3222 0.962 . S
H3236 C3222 0.960 . S
H3237 C3223 0.961 . S
H3238 C3223 0.961 . S
H3239 C3223 0.961 . S
H3240 C3224 0.931 . S
H3241 C3229 0.930 . S
H3242 C3230 0.956 . S
H3243 C3230 0.961 . S
H3244 C3230 0.961 . S
H3245 C3231 0.958 . S
H3246 C3231 0.961 . S
H3247 C3231 0.960 . S
C3248 C3249 1.391 . S
C3248 C3250 1.394 . S
C3248 H3264 0.931 . S
C3249 C3248 1.391 . S
C3249 C3253 1.376 . S
C3250 C3248 1.394 . S
C3250 C3251 1.369 . S
C3250 C3254 1.531 . S
C3251 C3250 1.369 . S
C3251 C3252 1.410 . S
C3251 C3259 1.503 . S
C3252 C3251 1.410 . S
C3252 C3253 1.392 . S
C3252 C3255 1.511 . S
C3253 C3249 1.376 . S
C3253 C3252 1.392 . S
C3253 H3265 0.929 . S
C3254 C3250 1.531 . S
C3254 H3266 0.960 . S
C3254 H3267 0.962 . S
C3254 H3268 0.960 . S
C3255 C3252 1.511 . S
C3255 H3269 0.961 . S
C3255 H3270 0.961 . S
C3255 H3271 0.961 . S
C3256 C3257 1.370 1_545 S
C3256 C3258 1.363 . S
C3256 H3272 0.931 . S
C3257 C3256 1.370 1_565 S
C3257 C3261 1.408 . S
C3258 C3256 1.363 . S
C3258 C3259 1.370 . S
C3258 C3262 1.524 . S
C3259 C3251 1.503 . S
C3259 C3258 1.370 . S
C3259 C3260 1.414 . S
C3260 C3259 1.414 . S
C3260 C3261 1.395 1_545 S
C3260 C3263 1.535 1_545 S
C3261 C3257 1.408 . S
C3261 C3260 1.395 1_565 S
C3261 H3273 0.930 . S
C3262 C3258 1.524 . S
C3262 H3274 0.956 . S
C3262 H3275 0.961 . S
C3262 H3276 0.961 . S
C3263 C3260 1.535 1_565 S
C3263 H3277 0.958 . S
C3263 H3278 0.961 . S
C3263 H3279 0.960 1_565 S
H3264 C3248 0.931 . S
H3265 C3253 0.929 . S
H3266 C3254 0.960 . S
H3267 C3254 0.962 . S
H3268 C3254 0.960 . S
H3269 C3255 0.961 . S
H3270 C3255 0.961 . S
H3271 C3255 0.961 . S
H3272 C3256 0.931 . S
H3273 C3261 0.930 . S
H3274 C3262 0.956 . S
H3275 C3262 0.961 . S
H3276 C3262 0.961 . S
H3277 C3263 0.958 . S
H3278 C3263 0.961 . S
H3279 C3263 0.960 1_545 S
C3280 C3281 1.391 . S
C3280 C3282 1.394 . S
C3280 H3296 0.931 . S
C3281 C3280 1.391 . S
C3281 C3285 1.376 . S
C3282 C3280 1.394 . S
C3282 C3283 1.369 . S
C3282 C3286 1.531 . S
C3283 C3282 1.369 . S
C3283 C3284 1.410 . S
C3283 C3291 1.503 . S
C3284 C3283 1.410 . S
C3284 C3285 1.392 . S
C3284 C3287 1.511 . S
C3285 C3281 1.376 . S
C3285 C3284 1.392 . S
C3285 H3297 0.929 . S
C3286 C3282 1.531 . S
C3286 H3298 0.960 . S
C3286 H3299 0.962 . S
C3286 H3300 0.960 . S
C3287 C3284 1.511 . S
C3287 H3301 0.961 . S
C3287 H3302 0.961 . S
C3287 H3303 0.961 . S
C3288 C3289 1.370 . S
C3288 C3290 1.363 . S
C3288 H3304 0.931 . S
C3289 C3288 1.370 . S
C3289 C3293 1.408 . S
C3290 C3288 1.363 . S
C3290 C3291 1.370 . S
C3290 C3294 1.524 . S
C3291 C3283 1.503 . S
C3291 C3290 1.370 . S
C3291 C3292 1.403 . S
C3292 C3291 1.403 . S
C3292 C3293 1.404 . S
C3292 C3295 1.539 . S
C3293 C3289 1.408 . S
C3293 C3292 1.404 . S
C3293 H3305 0.930 . S
C3294 C3290 1.524 . S
C3294 H3306 0.956 . S
C3294 H3307 0.961 . S
C3294 H3308 0.961 . S
C3295 C3292 1.539 . S
C3295 H3309 0.958 . S
C3295 H3310 0.961 . S
C3295 H3311 0.960 . S
H3296 C3280 0.931 . S
H3297 C3285 0.929 . S
H3298 C3286 0.960 . S
H3299 C3286 0.962 . S
H3300 C3286 0.960 . S
H3301 C3287 0.961 . S
H3302 C3287 0.961 . S
H3303 C3287 0.961 . S
H3304 C3288 0.931 . S
H3305 C3293 0.930 . S
H3306 C3294 0.956 . S
H3307 C3294 0.961 . S
H3308 C3294 0.961 . S
H3309 C3295 0.958 . S
H3310 C3295 0.961 . S
H3311 C3295 0.960 . S
C3312 C3313 1.391 . S
C3312 C3314 1.394 . S
C3312 H3328 0.931 . S
C3313 C3312 1.391 . S
C3313 C3317 1.376 . S
C3314 C3312 1.394 . S
C3314 C3315 1.369 . S
C3314 C3318 1.531 . S
C3315 C3314 1.369 . S
C3315 C3316 1.410 . S
C3315 C3323 1.503 . S
C3316 C3315 1.410 . S
C3316 C3317 1.392 . S
C3316 C3319 1.511 . S
C3317 C3313 1.376 . S
C3317 C3316 1.392 . S
C3317 H3329 0.929 . S
C3318 C3314 1.531 . S
C3318 H3330 0.960 . S
C3318 H3331 0.962 . S
C3318 H3332 0.960 . S
C3319 C3316 1.511 . S
C3319 H3333 0.961 . S
C3319 H3334 0.961 . S
C3319 H3335 0.961 . S
C3320 C3321 1.370 . S
C3320 C3322 1.363 . S
C3320 H3336 0.931 . S
C3321 C3320 1.370 . S
C3321 C3325 1.408 . S
C3322 C3320 1.363 . S
C3322 C3323 1.370 . S
C3322 C3326 1.524 . S
C3323 C3315 1.503 . S
C3323 C3322 1.370 . S
C3323 C3324 1.403 . S
C3324 C3323 1.403 . S
C3324 C3325 1.404 . S
C3324 C3327 1.539 . S
C3325 C3321 1.408 . S
C3325 C3324 1.404 . S
C3325 H3337 0.930 . S
C3326 C3322 1.524 . S
C3326 H3338 0.956 . S
C3326 H3339 0.961 . S
C3326 H3340 0.961 . S
C3327 C3324 1.539 . S
C3327 H3341 0.958 . S
C3327 H3342 0.961 . S
C3327 H3343 0.960 . S
H3328 C3312 0.931 . S
H3329 C3317 0.929 . S
H3330 C3318 0.960 . S
H3331 C3318 0.962 . S
H3332 C3318 0.960 . S
H3333 C3319 0.961 . S
H3334 C3319 0.961 . S
H3335 C3319 0.961 . S
H3336 C3320 0.931 . S
H3337 C3325 0.930 . S
H3338 C3326 0.956 . S
H3339 C3326 0.961 . S
H3340 C3326 0.961 . S
H3341 C3327 0.958 . S
H3342 C3327 0.961 . S
H3343 C3327 0.960 . S
C3344 C3345 1.391 . S
C3344 C3346 1.394 . S
C3344 H3360 0.931 . S
C3345 C3344 1.391 . S
C3345 C3349 1.376 . S
C3346 C3344 1.394 . S
C3346 C3347 1.369 . S
C3346 C3350 1.531 . S
C3347 C3346 1.369 . S
C3347 C3348 1.410 . S
C3347 C3355 1.503 . S
C3348 C3347 1.410 . S
C3348 C3349 1.392 . S
C3348 C3351 1.511 . S
C3349 C3345 1.376 . S
C3349 C3348 1.392 . S
C3349 H3361 0.929 . S
C3350 C3346 1.531 . S
C3350 H3362 0.960 . S
C3350 H3363 0.962 . S
C3350 H3364 0.960 . S
C3351 C3348 1.511 . S
C3351 H3365 0.961 . S
C3351 H3366 0.961 . S
C3351 H3367 0.961 . S
C3352 C3353 1.370 . S
C3352 C3354 1.363 . S
C3352 H3368 0.931 . S
C3353 C3352 1.370 . S
C3353 C3357 1.408 . S
C3354 C3352 1.363 . S
C3354 C3355 1.370 . S
C3354 C3358 1.524 . S
C3355 C3347 1.503 . S
C3355 C3354 1.370 . S
C3355 C3356 1.403 . S
C3356 C3355 1.403 . S
C3356 C3357 1.404 . S
C3356 C3359 1.539 . S
C3357 C3353 1.408 . S
C3357 C3356 1.404 . S
C3357 H3369 0.930 . S
C3358 C3354 1.524 . S
C3358 H3370 0.956 . S
C3358 H3371 0.961 . S
C3358 H3372 0.961 . S
C3359 C3356 1.539 . S
C3359 H3373 0.958 . S
C3359 H3374 0.961 . S
C3359 H3375 0.960 . S
H3360 C3344 0.931 . S
H3361 C3349 0.929 . S
H3362 C3350 0.960 . S
H3363 C3350 0.962 . S
H3364 C3350 0.960 . S
H3365 C3351 0.961 . S
H3366 C3351 0.961 . S
H3367 C3351 0.961 . S
H3368 C3352 0.931 . S
H3369 C3357 0.930 . S
H3370 C3358 0.956 . S
H3371 C3358 0.961 . S
H3372 C3358 0.961 . S
H3373 C3359 0.958 . S
H3374 C3359 0.961 . S
H3375 C3359 0.960 . S
C3376 C3377 1.391 . S
C3376 C3378 1.394 . S
C3376 H3392 0.931 . S
C3377 C3376 1.391 . S
C3377 C3381 1.376 . S
C3378 C3376 1.394 . S
C3378 C3379 1.369 . S
C3378 C3382 1.531 . S
C3379 C3378 1.369 . S
C3379 C3380 1.410 . S
C3379 C3387 1.503 . S
C3380 C3379 1.410 . S
C3380 C3381 1.392 . S
C3380 C3383 1.511 . S
C3381 C3377 1.376 . S
C3381 C3380 1.392 . S
C3381 H3393 0.929 . S
C3382 C3378 1.531 . S
C3382 H3394 0.960 . S
C3382 H3395 0.962 . S
C3382 H3396 0.960 . S
C3383 C3380 1.511 . S
C3383 H3397 0.961 . S
C3383 H3398 0.961 . S
C3383 H3399 0.961 . S
C3384 C3385 1.370 . S
C3384 C3386 1.363 . S
C3384 H3400 0.931 . S
C3385 C3384 1.370 . S
C3385 C3389 1.408 . S
C3386 C3384 1.363 . S
C3386 C3387 1.370 . S
C3386 C3390 1.524 . S
C3387 C3379 1.503 . S
C3387 C3386 1.370 . S
C3387 C3388 1.403 . S
C3388 C3387 1.403 . S
C3388 C3389 1.404 . S
C3388 C3391 1.539 . S
C3389 C3385 1.408 . S
C3389 C3388 1.404 . S
C3389 H3401 0.930 . S
C3390 C3386 1.524 . S
C3390 H3402 0.956 . S
C3390 H3403 0.961 . S
C3390 H3404 0.961 . S
C3391 C3388 1.539 . S
C3391 H3405 0.958 . S
C3391 H3406 0.961 . S
C3391 H3407 0.960 . S
H3392 C3376 0.931 . S
H3393 C3381 0.929 . S
H3394 C3382 0.960 . S
H3395 C3382 0.962 . S
H3396 C3382 0.960 . S
H3397 C3383 0.961 . S
H3398 C3383 0.961 . S
H3399 C3383 0.961 . S
H3400 C3384 0.931 . S
H3401 C3389 0.930 . S
H3402 C3390 0.956 . S
H3403 C3390 0.961 . S
H3404 C3390 0.961 . S
H3405 C3391 0.958 . S
H3406 C3391 0.961 . S
H3407 C3391 0.960 . S
C3408 C3409 1.391 . S
C3408 C3410 1.394 . S
C3408 H3424 0.931 . S
C3409 C3408 1.391 . S
C3409 C3413 1.376 . S
C3410 C3408 1.394 . S
C3410 C3411 1.369 . S
C3410 C3414 1.531 . S
C3411 C3410 1.369 . S
C3411 C3412 1.410 . S
C3411 C3419 1.503 . S
C3412 C3411 1.410 . S
C3412 C3413 1.392 . S
C3412 C3415 1.511 . S
C3413 C3409 1.376 . S
C3413 C3412 1.392 . S
C3413 H3425 0.929 . S
C3414 C3410 1.531 . S
C3414 H3426 0.964 . S
C3414 H3427 0.962 1_556 S
C3414 H3428 0.960 1_556 S
C3415 C3412 1.511 . S
C3415 H3429 0.961 . S
C3415 H3430 0.961 . S
C3415 H3431 0.961 . S
C3416 C3417 1.370 . S
C3416 C3418 1.363 . S
C3416 H3432 0.931 . S
C3417 C3416 1.370 . S
C3417 C3421 1.408 . S
C3418 C3416 1.363 . S
C3418 C3419 1.370 . S
C3418 C3422 1.524 . S
C3419 C3411 1.503 . S
C3419 C3418 1.370 . S
C3419 C3420 1.403 . S
C3420 C3419 1.403 . S
C3420 C3421 1.404 . S
C3420 C3423 1.539 . S
C3421 C3417 1.408 . S
C3421 C3420 1.404 . S
C3421 H3433 0.930 . S
C3422 C3418 1.524 . S
C3422 H3434 0.956 . S
C3422 H3435 0.961 . S
C3422 H3436 0.961 . S
C3423 C3420 1.539 . S
C3423 H3437 0.958 . S
C3423 H3438 0.961 . S
C3423 H3439 0.960 . S
H3424 C3408 0.931 . S
H3425 C3413 0.929 . S
H3426 C3414 0.964 . S
H3427 C3414 0.962 1_554 S
H3428 C3414 0.960 1_554 S
H3429 C3415 0.961 . S
H3430 C3415 0.961 . S
H3431 C3415 0.961 . S
H3432 C3416 0.931 . S
H3433 C3421 0.930 . S
H3434 C3422 0.956 . S
H3435 C3422 0.961 . S
H3436 C3422 0.961 . S
H3437 C3423 0.958 . S
H3438 C3423 0.961 . S
H3439 C3423 0.960 . S
C3440 C3441 1.391 . S
C3440 C3442 1.394 . S
C3440 H3456 0.931 . S
C3441 C3440 1.391 . S
C3441 C3445 1.376 . S
C3442 C3440 1.394 . S
C3442 C3443 1.369 . S
C3442 C3446 1.531 . S
C3443 C3442 1.369 . S
C3443 C3444 1.410 . S
C3443 C3451 1.503 . S
C3444 C3443 1.410 . S
C3444 C3445 1.392 . S
C3444 C3447 1.511 . S
C3445 C3441 1.376 . S
C3445 C3444 1.392 . S
C3445 H3457 0.929 . S
C3446 C3442 1.531 . S
C3446 H3458 0.960 . S
C3446 H3459 0.962 . S
C3446 H3460 0.960 . S
C3447 C3444 1.511 . S
C3447 H3461 0.961 . S
C3447 H3462 0.961 . S
C3447 H3463 0.961 . S
C3448 C3449 1.370 . S
C3448 C3450 1.363 . S
C3448 H3464 0.931 . S
C3449 C3448 1.370 . S
C3449 C3453 1.408 . S
C3450 C3448 1.363 . S
C3450 C3451 1.370 . S
C3450 C3454 1.524 . S
C3451 C3443 1.503 . S
C3451 C3450 1.370 . S
C3451 C3452 1.403 . S
C3452 C3451 1.403 . S
C3452 C3453 1.404 . S
C3452 C3455 1.539 . S
C3453 C3449 1.408 . S
C3453 C3452 1.404 . S
C3453 H3465 0.930 . S
C3454 C3450 1.524 . S
C3454 H3466 0.956 . S
C3454 H3467 0.961 . S
C3454 H3468 0.961 . S
C3455 C3452 1.539 . S
C3455 H3469 0.958 . S
C3455 H3470 0.961 . S
C3455 H3471 0.960 . S
H3456 C3440 0.931 . S
H3457 C3445 0.929 . S
H3458 C3446 0.960 . S
H3459 C3446 0.962 . S
H3460 C3446 0.960 . S
H3461 C3447 0.961 . S
H3462 C3447 0.961 . S
H3463 C3447 0.961 . S
H3464 C3448 0.931 . S
H3465 C3453 0.930 . S
H3466 C3454 0.956 . S
H3467 C3454 0.961 . S
H3468 C3454 0.961 . S
H3469 C3455 0.958 . S
H3470 C3455 0.961 . S
H3471 C3455 0.960 . S
C3472 C3473 1.391 . S
C3472 C3474 1.394 . S
C3472 H3488 0.931 . S
C3473 C3472 1.391 . S
C3473 C3477 1.376 . S
C3474 C3472 1.394 . S
C3474 C3475 1.369 . S
C3474 C3478 1.531 . S
C3475 C3474 1.369 . S
C3475 C3476 1.410 . S
C3475 C3483 1.503 . S
C3476 C3475 1.410 . S
C3476 C3477 1.392 . S
C3476 C3479 1.511 1_455 S
C3477 C3473 1.376 . S
C3477 C3476 1.392 . S
C3477 H3489 0.929 1_455 S
C3478 C3474 1.531 . S
C3478 H3490 0.960 . S
C3478 H3491 0.962 . S
C3478 H3492 0.960 . S
C3479 C3476 1.511 1_655 S
C3479 H3493 0.961 . S
C3479 H3494 0.961 . S
C3479 H3495 0.961 . S
C3480 C3481 1.370 . S
C3480 C3482 1.363 . S
C3480 H3496 0.931 . S
C3481 C3480 1.370 . S
C3481 C3485 1.408 . S
C3482 C3480 1.363 . S
C3482 C3483 1.370 . S
C3482 C3486 1.524 . S
C3483 C3475 1.503 . S
C3483 C3482 1.370 . S
C3483 C3484 1.403 . S
C3484 C3483 1.403 . S
C3484 C3485 1.404 . S
C3484 C3487 1.539 . S
C3485 C3481 1.408 . S
C3485 C3484 1.404 . S
C3485 H3497 0.930 . S
C3486 C3482 1.524 . S
C3486 H3498 0.956 . S
C3486 H3499 0.961 . S
C3486 H3500 0.961 . S
C3487 C3484 1.539 . S
C3487 H3501 0.958 . S
C3487 H3502 0.961 . S
C3487 H3503 0.960 . S
H3488 C3472 0.931 . S
H3489 C3477 0.929 1_655 S
H3490 C3478 0.960 . S
H3491 C3478 0.962 . S
H3492 C3478 0.960 . S
H3493 C3479 0.961 . S
H3494 C3479 0.961 . S
H3495 C3479 0.961 . S
H3496 C3480 0.931 . S
H3497 C3485 0.930 . S
H3498 C3486 0.956 . S
H3499 C3486 0.961 . S
H3500 C3486 0.961 . S
H3501 C3487 0.958 . S
H3502 C3487 0.961 . S
H3503 C3487 0.960 . S
C3504 C3505 1.391 . S
C3504 C3506 1.394 . S
C3504 H3520 0.931 . S
C3505 C3504 1.391 . S
C3505 C3509 1.376 . S
C3506 C3504 1.394 . S
C3506 C3507 1.369 . S
C3506 C3510 1.531 . S
C3507 C3506 1.369 . S
C3507 C3508 1.410 . S
C3507 C3515 1.503 . S
C3508 C3507 1.410 . S
C3508 C3509 1.392 . S
C3508 C3511 1.511 . S
C3509 C3505 1.376 . S
C3509 C3508 1.392 . S
C3509 H3521 0.929 . S
C3510 C3506 1.531 . S
C3510 H3522 0.960 . S
C3510 H3523 0.962 . S
C3510 H3524 0.960 . S
C3511 C3508 1.511 . S
C3511 H3525 0.961 . S
C3511 H3526 0.961 . S
C3511 H3527 0.961 . S
C3512 C3513 1.370 . S
C3512 C3514 1.363 . S
C3512 H3528 0.931 . S
C3513 C3512 1.370 . S
C3513 C3517 1.408 . S
C3514 C3512 1.363 . S
C3514 C3515 1.370 . S
C3514 C3518 1.524 . S
C3515 C3507 1.503 . S
C3515 C3514 1.370 . S
C3515 C3516 1.403 . S
C3516 C3515 1.403 . S
C3516 C3517 1.404 . S
C3516 C3519 1.539 . S
C3517 C3513 1.408 . S
C3517 C3516 1.404 . S
C3517 H3529 0.930 . S
C3518 C3514 1.524 . S
C3518 H3530 0.956 . S
C3518 H3531 0.961 . S
C3518 H3532 0.961 . S
C3519 C3516 1.539 . S
C3519 H3533 0.958 . S
C3519 H3534 0.961 . S
C3519 H3535 0.960 . S
H3520 C3504 0.931 . S
H3521 C3509 0.929 . S
H3522 C3510 0.960 . S
H3523 C3510 0.962 . S
H3524 C3510 0.960 . S
H3525 C3511 0.961 . S
H3526 C3511 0.961 . S
H3527 C3511 0.961 . S
H3528 C3512 0.931 . S
H3529 C3517 0.930 . S
H3530 C3518 0.956 . S
H3531 C3518 0.961 . S
H3532 C3518 0.961 . S
H3533 C3519 0.958 . S
H3534 C3519 0.961 . S
H3535 C3519 0.960 . S
C3536 C3537 1.391 . S
C3536 C3538 1.394 . S
C3536 H3552 0.931 . S
C3537 C3536 1.391 . S
C3537 C3541 1.376 . S
C3538 C3536 1.394 . S
C3538 C3539 1.369 . S
C3538 C3542 1.531 . S
C3539 C3538 1.369 . S
C3539 C3540 1.410 . S
C3539 C3547 1.503 . S
C3540 C3539 1.410 . S
C3540 C3541 1.392 . S
C3540 C3543 1.511 . S
C3541 C3537 1.376 . S
C3541 C3540 1.392 . S
C3541 H3553 0.929 . S
C3542 C3538 1.531 . S
C3542 H3554 0.960 . S
C3542 H3555 0.962 . S
C3542 H3556 0.960 . S
C3543 C3540 1.511 . S
C3543 H3557 0.961 . S
C3543 H3558 0.961 . S
C3543 H3559 0.961 . S
C3544 C3545 1.370 . S
C3544 C3546 1.363 . S
C3544 H3560 0.931 . S
C3545 C3544 1.370 . S
C3545 C3549 1.408 . S
C3546 C3544 1.363 . S
C3546 C3547 1.370 . S
C3546 C3550 1.524 . S
C3547 C3539 1.503 . S
C3547 C3546 1.370 . S
C3547 C3548 1.403 . S
C3548 C3547 1.403 . S
C3548 C3549 1.404 . S
C3548 C3551 1.539 . S
C3549 C3545 1.408 . S
C3549 C3548 1.404 . S
C3549 H3561 0.930 . S
C3550 C3546 1.524 . S
C3550 H3562 0.956 . S
C3550 H3563 0.961 . S
C3550 H3564 0.961 . S
C3551 C3548 1.539 . S
C3551 H3565 0.958 . S
C3551 H3566 0.961 . S
C3551 H3567 0.960 . S
H3552 C3536 0.931 . S
H3553 C3541 0.929 . S
H3554 C3542 0.960 . S
H3555 C3542 0.962 . S
H3556 C3542 0.960 . S
H3557 C3543 0.961 . S
H3558 C3543 0.961 . S
H3559 C3543 0.961 . S
H3560 C3544 0.931 . S
H3561 C3549 0.930 . S
H3562 C3550 0.956 . S
H3563 C3550 0.961 . S
H3564 C3550 0.961 . S
H3565 C3551 0.958 . S
H3566 C3551 0.961 . S
H3567 C3551 0.960 . S
C3568 C3569 1.391 . S
C3568 C3570 1.394 . S
C3568 H3584 0.931 . S
C3569 C3568 1.391 . S
C3569 C3573 1.376 . S
C3570 C3568 1.394 . S
C3570 C3571 1.369 . S
C3570 C3574 1.531 . S
C3571 C3570 1.369 . S
C3571 C3572 1.410 . S
C3571 C3579 1.503 . S
C3572 C3571 1.410 . S
C3572 C3573 1.392 . S
C3572 C3575 1.511 . S
C3573 C3569 1.376 . S
C3573 C3572 1.392 . S
C3573 H3585 0.929 . S
C3574 C3570 1.531 . S
C3574 H3586 0.960 . S
C3574 H3587 0.962 . S
C3574 H3588 0.960 . S
C3575 C3572 1.511 . S
C3575 H3589 0.961 . S
C3575 H3590 0.961 . S
C3575 H3591 0.961 . S
C3576 C3577 1.370 . S
C3576 C3578 1.363 . S
C3576 H3592 0.931 . S
C3577 C3576 1.370 . S
C3577 C3581 1.408 . S
C3578 C3576 1.363 . S
C3578 C3579 1.370 . S
C3578 C3582 1.524 . S
C3579 C3571 1.503 . S
C3579 C3578 1.370 . S
C3579 C3580 1.403 . S
C3580 C3579 1.403 . S
C3580 C3581 1.404 . S
C3580 C3583 1.539 . S
C3581 C3577 1.408 . S
C3581 C3580 1.404 . S
C3581 H3593 0.930 . S
C3582 C3578 1.524 . S
C3582 H3594 0.956 . S
C3582 H3595 0.961 . S
C3582 H3596 0.961 . S
C3583 C3580 1.539 . S
C3583 H3597 0.958 . S
C3583 H3598 0.961 . S
C3583 H3599 0.960 . S
H3584 C3568 0.931 . S
H3585 C3573 0.929 . S
H3586 C3574 0.960 . S
H3587 C3574 0.962 . S
H3588 C3574 0.960 . S
H3589 C3575 0.961 . S
H3590 C3575 0.961 . S
H3591 C3575 0.961 . S
H3592 C3576 0.931 . S
H3593 C3581 0.930 . S
H3594 C3582 0.956 . S
H3595 C3582 0.961 . S
H3596 C3582 0.961 . S
H3597 C3583 0.958 . S
H3598 C3583 0.961 . S
H3599 C3583 0.960 . S
C3600 C3601 1.437 . S
C3600 C3602 1.370 1_655 S
C3600 H3616 0.911 1_655 S
C3601 C3600 1.437 . S
C3601 C3605 1.376 . S
C3602 C3600 1.370 1_455 S
C3602 C3603 1.369 . S
C3602 C3606 1.531 . S
C3603 C3602 1.369 . S
C3603 C3604 1.410 1_455 S
C3603 C3611 1.503 . S
C3604 C3603 1.410 1_655 S
C3604 C3605 1.392 . S
C3604 C3607 1.511 . S
C3605 C3601 1.376 . S
C3605 C3604 1.392 . S
C3605 H3617 0.929 . S
C3606 C3602 1.531 . S
C3606 H3618 0.960 . S
C3606 H3619 0.962 . S
C3606 H3620 0.960 . S
C3607 C3604 1.511 . S
C3607 H3621 0.961 . S
C3607 H3622 0.961 . S
C3607 H3623 0.961 . S
C3608 C3609 1.370 . S
C3608 C3610 1.363 . S
C3608 H3624 0.931 . S
C3609 C3608 1.370 . S
C3609 C3613 1.408 . S
C3610 C3608 1.363 . S
C3610 C3611 1.370 . S
C3610 C3614 1.524 1_455 S
C3611 C3603 1.503 . S
C3611 C3610 1.370 . S
C3611 C3612 1.403 . S
C3612 C3611 1.403 . S
C3612 C3613 1.404 . S
C3612 C3615 1.539 . S
C3613 C3609 1.408 . S
C3613 C3612 1.404 . S
C3613 H3625 0.930 . S
C3614 C3610 1.524 1_655 S
C3614 H3626 0.956 . S
C3614 H3627 0.961 . S
C3614 H3628 0.961 . S
C3615 C3612 1.539 . S
C3615 H3629 0.958 . S
C3615 H3630 0.961 . S
C3615 H3631 0.960 . S
H3616 C3600 0.911 1_455 S
H3617 C3605 0.929 . S
H3618 C3606 0.960 . S
H3619 C3606 0.962 . S
H3620 C3606 0.960 . S
H3621 C3607 0.961 . S
H3622 C3607 0.961 . S
H3623 C3607 0.961 . S
H3624 C3608 0.931 . S
H3625 C3613 0.930 . S
H3626 C3614 0.956 . S
H3627 C3614 0.961 . S
H3628 C3614 0.961 . S
H3629 C3615 0.958 . S
H3630 C3615 0.961 . S
H3631 C3615 0.960 . S
C3632 C3633 1.391 . S
C3632 C3634 1.394 . S
C3632 H3648 0.931 . S
C3633 C3632 1.391 . S
C3633 C3637 1.376 . S
C3634 C3632 1.394 . S
C3634 C3635 1.369 . S
C3634 C3638 1.531 . S
C3635 C3634 1.369 . S
C3635 C3636 1.410 . S
C3635 C3643 1.503 . S
C3636 C3635 1.410 . S
C3636 C3637 1.392 . S
C3636 C3639 1.511 . S
C3637 C3633 1.376 . S
C3637 C3636 1.392 . S
C3637 H3649 0.929 . S
C3638 C3634 1.531 . S
C3638 H3650 0.960 . S
C3638 H3651 0.962 . S
C3638 H3652 0.960 . S
C3639 C3636 1.511 . S
C3639 H3653 0.961 . S
C3639 H3654 0.961 . S
C3639 H3655 0.961 . S
C3640 C3641 1.370 . S
C3640 C3642 1.363 . S
C3640 H3656 0.931 . S
C3641 C3640 1.370 . S
C3641 C3645 1.408 . S
C3642 C3640 1.363 . S
C3642 C3643 1.370 . S
C3642 C3646 1.524 . S
C3643 C3635 1.503 . S
C3643 C3642 1.370 . S
C3643 C3644 1.403 . S
C3644 C3643 1.403 . S
C3644 C3645 1.404 . S
C3644 C3647 1.539 . S
C3645 C3641 1.408 . S
C3645 C3644 1.404 . S
C3645 H3657 0.930 . S
C3646 C3642 1.524 . S
C3646 H3658 0.956 . S
C3646 H3659 0.961 . S
C3646 H3660 0.961 . S
C3647 C3644 1.539 . S
C3647 H3661 0.958 . S
C3647 H3662 0.961 . S
C3647 H3663 0.960 . S
H3648 C3632 0.931 . S
H3649 C3637 0.929 . S
H3650 C3638 0.960 . S
H3651 C3638 0.962 . S
H3652 C3638 0.960 . S
H3653 C3639 0.961 . S
H3654 C3639 0.961 . S
H3655 C3639 0.961 . S
H3656 C3640 0.931 . S
H3657 C3645 0.930 . S
H3658 C3646 0.956 . S
H3659 C3646 0.961 . S
H3660 C3646 0.961 . S
H3661 C3647 0.958 . S
H3662 C3647 0.961 . S
H3663 C3647 0.960 . S
C3664 C3665 1.391 . S
C3664 C3666 1.394 . S
C3664 H3680 0.931 . S
C3665 C3664 1.391 . S
C3665 C3669 1.376 . S
C3666 C3664 1.394 . S
C3666 C3667 1.369 . S
C3666 C3670 1.531 . S
C3667 C3666 1.369 . S
C3667 C3668 1.410 . S
C3667 C3675 1.503 . S
C3668 C3667 1.410 . S
C3668 C3669 1.392 . S
C3668 C3671 1.511 . S
C3669 C3665 1.376 . S
C3669 C3668 1.392 . S
C3669 H3681 0.929 . S
C3670 C3666 1.531 . S
C3670 H3682 0.960 . S
C3670 H3683 0.962 . S
C3670 H3684 0.960 . S
C3671 C3668 1.511 . S
C3671 H3685 0.961 . S
C3671 H3686 0.961 . S
C3671 H3687 0.961 . S
C3672 C3673 1.370 . S
C3672 C3674 1.363 . S
C3672 H3688 0.931 . S
C3673 C3672 1.370 . S
C3673 C3677 1.408 . S
C3674 C3672 1.363 . S
C3674 C3675 1.370 . S
C3674 C3678 1.524 . S
C3675 C3667 1.503 . S
C3675 C3674 1.370 . S
C3675 C3676 1.403 . S
C3676 C3675 1.403 . S
C3676 C3677 1.404 . S
C3676 C3679 1.539 . S
C3677 C3673 1.408 . S
C3677 C3676 1.404 . S
C3677 H3689 0.930 . S
C3678 C3674 1.524 . S
C3678 H3690 0.956 . S
C3678 H3691 0.961 . S
C3678 H3692 0.961 . S
C3679 C3676 1.539 . S
C3679 H3693 0.958 . S
C3679 H3694 0.961 . S
C3679 H3695 0.960 . S
H3680 C3664 0.931 . S
H3681 C3669 0.929 . S
H3682 C3670 0.960 . S
H3683 C3670 0.962 . S
H3684 C3670 0.960 . S
H3685 C3671 0.961 . S
H3686 C3671 0.961 . S
H3687 C3671 0.961 . S
H3688 C3672 0.931 . S
H3689 C3677 0.930 . S
H3690 C3678 0.956 . S
H3691 C3678 0.961 . S
H3692 C3678 0.961 . S
H3693 C3679 0.958 . S
H3694 C3679 0.961 . S
H3695 C3679 0.960 . S
C3696 C3697 1.391 . S
C3696 C3698 1.394 . S
C3696 H3712 0.931 . S
C3697 C3696 1.391 . S
C3697 C3701 1.376 . S
C3698 C3696 1.394 . S
C3698 C3699 1.369 . S
C3698 C3702 1.531 . S
C3699 C3698 1.369 . S
C3699 C3700 1.410 . S
C3699 C3707 1.503 . S
C3700 C3699 1.410 . S
C3700 C3701 1.392 . S
C3700 C3703 1.511 . S
C3701 C3697 1.376 . S
C3701 C3700 1.392 . S
C3701 H3713 0.929 . S
C3702 C3698 1.531 . S
C3702 H3714 0.960 . S
C3702 H3715 0.962 . S
C3702 H3716 0.960 . S
C3703 C3700 1.511 . S
C3703 H3717 0.961 . S
C3703 H3718 0.961 . S
C3703 H3719 0.961 . S
C3704 C3705 1.370 . S
C3704 C3706 1.363 . S
C3704 H3720 0.931 . S
C3705 C3704 1.370 . S
C3705 C3709 1.408 . S
C3706 C3704 1.363 . S
C3706 C3707 1.370 . S
C3706 C3710 1.524 . S
C3707 C3699 1.503 . S
C3707 C3706 1.370 . S
C3707 C3708 1.403 . S
C3708 C3707 1.403 . S
C3708 C3709 1.404 . S
C3708 C3711 1.539 . S
C3709 C3705 1.408 . S
C3709 C3708 1.404 . S
C3709 H3721 0.930 . S
C3710 C3706 1.524 . S
C3710 H3722 0.956 . S
C3710 H3723 0.961 . S
C3710 H3724 0.961 . S
C3711 C3708 1.539 . S
C3711 H3725 0.958 . S
C3711 H3726 0.961 . S
C3711 H3727 0.960 . S
H3712 C3696 0.931 . S
H3713 C3701 0.929 . S
H3714 C3702 0.960 . S
H3715 C3702 0.962 . S
H3716 C3702 0.960 . S
H3717 C3703 0.961 . S
H3718 C3703 0.961 . S
H3719 C3703 0.961 . S
H3720 C3704 0.931 . S
H3721 C3709 0.930 . S
H3722 C3710 0.956 . S
H3723 C3710 0.961 . S
H3724 C3710 0.961 . S
H3725 C3711 0.958 . S
H3726 C3711 0.961 . S
H3727 C3711 0.960 . S
C3728 C3729 1.391 . S
C3728 C3730 1.394 . S
C3728 H3744 0.931 1_655 S
C3729 C3728 1.391 . S
C3729 C3733 1.376 . S
C3730 C3728 1.394 . S
C3730 C3731 1.369 . S
C3730 C3734 1.531 1_655 S
C3731 C3730 1.369 . S
C3731 C3732 1.410 . S
C3731 C3739 1.503 . S
C3732 C3731 1.410 . S
C3732 C3733 1.392 . S
C3732 C3735 1.511 . S
C3733 C3729 1.376 . S
C3733 C3732 1.392 . S
C3733 H3745 0.929 . S
C3734 C3730 1.531 1_455 S
C3734 H3746 0.960 . S
C3734 H3747 0.962 . S
C3734 H3748 0.960 . S
C3735 C3732 1.511 . S
C3735 H3749 0.961 . S
C3735 H3750 0.961 . S
C3735 H3751 0.961 . S
C3736 C3737 1.370 . S
C3736 C3738 1.365 . S
C3736 H3752 0.930 1_655 S
C3737 C3736 1.370 . S
C3737 C3741 1.408 . S
C3738 C3736 1.365 . S
C3738 C3739 1.370 . S
C3738 C3742 1.524 . S
C3739 C3731 1.503 . S
C3739 C3738 1.370 . S
C3739 C3740 1.403 . S
C3740 C3739 1.403 . S
C3740 C3741 1.404 . S
C3740 C3743 1.539 . S
C3741 C3737 1.408 . S
C3741 C3740 1.404 . S
C3741 H3753 0.930 . S
C3742 C3738 1.524 . S
C3742 H3754 0.956 1_655 S
C3742 H3755 0.961 . S
C3742 H3756 0.974 . S
C3743 C3740 1.539 . S
C3743 H3757 0.958 . S
C3743 H3758 0.961 . S
C3743 H3759 0.960 . S
H3744 C3728 0.931 1_455 S
H3745 C3733 0.929 . S
H3746 C3734 0.960 . S
H3747 C3734 0.962 . S
H3748 C3734 0.960 . S
H3749 C3735 0.961 . S
H3750 C3735 0.961 . S
H3751 C3735 0.961 . S
H3752 C3736 0.930 1_455 S
H3753 C3741 0.930 . S
H3754 C3742 0.956 1_455 S
H3755 C3742 0.961 . S
H3756 C3742 0.974 . S
H3757 C3743 0.958 . S
H3758 C3743 0.961 . S
H3759 C3743 0.960 . S
C3760 C3761 1.391 . S
C3760 C3762 1.394 . S
C3760 H3776 0.931 . S
C3761 C3760 1.391 . S
C3761 C3765 1.376 . S
C3762 C3760 1.394 . S
C3762 C3763 1.369 . S
C3762 C3766 1.531 . S
C3763 C3762 1.369 . S
C3763 C3764 1.410 . S
C3763 C3771 1.503 . S
C3764 C3763 1.410 . S
C3764 C3765 1.392 . S
C3764 C3767 1.511 . S
C3765 C3761 1.376 . S
C3765 C3764 1.392 . S
C3765 H3777 0.929 . S
C3766 C3762 1.531 . S
C3766 H3778 0.960 . S
C3766 H3779 0.962 . S
C3766 H3780 0.960 . S
C3767 C3764 1.511 . S
C3767 H3781 0.961 . S
C3767 H3782 0.961 . S
C3767 H3783 0.961 . S
C3768 C3769 1.370 . S
C3768 C3770 1.363 . S
C3768 H3784 0.931 . S
C3769 C3768 1.370 . S
C3769 C3773 1.408 . S
C3770 C3768 1.363 . S
C3770 C3771 1.370 . S
C3770 C3774 1.524 . S
C3771 C3763 1.503 . S
C3771 C3770 1.370 . S
C3771 C3772 1.403 . S
C3772 C3771 1.403 . S
C3772 C3773 1.404 . S
C3772 C3775 1.539 . S
C3773 C3769 1.408 . S
C3773 C3772 1.404 . S
C3773 H3785 0.930 . S
C3774 C3770 1.524 . S
C3774 H3786 0.956 . S
C3774 H3787 0.961 . S
C3774 H3788 0.961 . S
C3775 C3772 1.539 . S
C3775 H3789 0.958 . S
C3775 H3790 0.961 . S
C3775 H3791 0.960 . S
H3776 C3760 0.931 . S
H3777 C3765 0.929 . S
H3778 C3766 0.960 . S
H3779 C3766 0.962 . S
H3780 C3766 0.960 . S
H3781 C3767 0.961 . S
H3782 C3767 0.961 . S
H3783 C3767 0.961 . S
H3784 C3768 0.931 . S
H3785 C3773 0.930 . S
H3786 C3774 0.956 . S
H3787 C3774 0.961 . S
H3788 C3774 0.961 . S
H3789 C3775 0.958 . S
H3790 C3775 0.961 . S
H3791 C3775 0.960 . S
C3792 C3793 1.391 . S
C3792 C3794 1.394 . S
C3792 H3808 0.931 . S
C3793 C3792 1.391 . S
C3793 C3797 1.376 . S
C3794 C3792 1.394 . S
C3794 C3795 1.369 . S
C3794 C3798 1.531 . S
C3795 C3794 1.369 . S
C3795 C3796 1.410 . S
C3795 C3803 1.503 . S
C3796 C3795 1.410 . S
C3796 C3797 1.392 . S
C3796 C3799 1.511 . S
C3797 C3793 1.376 . S
C3797 C3796 1.392 . S
C3797 H3809 0.929 . S
C3798 C3794 1.531 . S
C3798 H3810 0.960 . S
C3798 H3811 0.962 . S
C3798 H3812 0.960 . S
C3799 C3796 1.511 . S
C3799 H3813 0.961 . S
C3799 H3814 0.961 . S
C3799 H3815 0.961 . S
C3800 C3801 1.370 . S
C3800 C3802 1.363 . S
C3800 H3816 0.931 . S
C3801 C3800 1.370 . S
C3801 C3805 1.408 . S
C3802 C3800 1.363 . S
C3802 C3803 1.370 . S
C3802 C3806 1.524 . S
C3803 C3795 1.503 . S
C3803 C3802 1.370 . S
C3803 C3804 1.403 . S
C3804 C3803 1.403 . S
C3804 C3805 1.404 . S
C3804 C3807 1.539 . S
C3805 C3801 1.408 . S
C3805 C3804 1.404 . S
C3805 H3817 0.930 . S
C3806 C3802 1.524 . S
C3806 H3818 0.956 . S
C3806 H3819 0.961 . S
C3806 H3820 0.961 . S
C3807 C3804 1.539 . S
C3807 H3821 0.958 . S
C3807 H3822 0.961 . S
C3807 H3823 0.960 . S
H3808 C3792 0.931 . S
H3809 C3797 0.929 . S
H3810 C3798 0.960 . S
H3811 C3798 0.962 . S
H3812 C3798 0.960 . S
H3813 C3799 0.961 . S
H3814 C3799 0.961 . S
H3815 C3799 0.961 . S
H3816 C3800 0.931 . S
H3817 C3805 0.930 . S
H3818 C3806 0.956 . S
H3819 C3806 0.961 . S
H3820 C3806 0.961 . S
H3821 C3807 0.958 . S
H3822 C3807 0.961 . S
H3823 C3807 0.960 . S
C3824 C3825 1.391 . S
C3824 C3826 1.394 . S
C3824 H3840 0.931 . S
C3825 C3824 1.391 . S
C3825 C3829 1.376 . S
C3826 C3824 1.394 . S
C3826 C3827 1.369 . S
C3826 C3830 1.531 . S
C3827 C3826 1.369 . S
C3827 C3828 1.410 . S
C3827 C3835 1.503 1_565 S
C3828 C3827 1.410 . S
C3828 C3829 1.392 . S
C3828 C3831 1.512 1_565 S
C3829 C3825 1.376 . S
C3829 C3828 1.392 . S
C3829 H3841 0.929 . S
C3830 C3826 1.531 . S
C3830 H3842 0.960 . S
C3830 H3843 0.962 . S
C3830 H3844 0.960 . S
C3831 C3828 1.512 1_545 S
C3831 H3845 0.960 . S
C3831 H3846 0.960 . S
C3831 H3847 0.961 1_545 S
C3832 C3833 1.370 . S
C3832 C3834 1.363 . S
C3832 H3848 0.931 . S
C3833 C3832 1.370 . S
C3833 C3837 1.408 . S
C3834 C3832 1.363 . S
C3834 C3835 1.370 . S
C3834 C3838 1.524 . S
C3835 C3827 1.503 1_545 S
C3835 C3834 1.370 . S
C3835 C3836 1.403 1_545 S
C3836 C3835 1.403 1_565 S
C3836 C3837 1.404 1_565 S
C3836 C3839 1.539 . S
C3837 C3833 1.408 . S
C3837 C3836 1.404 1_545 S
C3837 H3849 0.930 . S
C3838 C3834 1.524 . S
C3838 H3850 0.956 . S
C3838 H3851 0.961 . S
C3838 H3852 0.961 . S
C3839 C3836 1.539 . S
C3839 H3853 0.958 . S
C3839 H3854 0.961 . S
C3839 H3855 0.960 . S
H3840 C3824 0.931 . S
H3841 C3829 0.929 . S
H3842 C3830 0.960 . S
H3843 C3830 0.962 . S
H3844 C3830 0.960 . S
H3845 C3831 0.960 . S
H3846 C3831 0.960 . S
H3847 C3831 0.961 1_565 S
H3848 C3832 0.931 . S
H3849 C3837 0.930 . S
H3850 C3838 0.956 . S
H3851 C3838 0.961 . S
H3852 C3838 0.961 . S
H3853 C3839 0.958 . S
H3854 C3839 0.961 . S
H3855 C3839 0.960 . S
C3856 C3857 1.391 . S
C3856 C3858 1.394 . S
C3856 H3872 0.931 . S
C3857 C3856 1.391 . S
C3857 C3861 1.376 . S
C3858 C3856 1.394 . S
C3858 C3859 1.369 . S
C3858 C3862 1.531 . S
C3859 C3858 1.369 . S
C3859 C3860 1.410 . S
C3859 C3867 1.503 . S
C3860 C3859 1.410 . S
C3860 C3861 1.392 . S
C3860 C3863 1.511 . S
C3861 C3857 1.376 . S
C3861 C3860 1.392 . S
C3861 H3873 0.929 . S
C3862 C3858 1.531 . S
C3862 H3874 0.960 . S
C3862 H3875 0.962 . S
C3862 H3876 0.960 . S
C3863 C3860 1.511 . S
C3863 H3877 0.961 . S
C3863 H3878 0.961 . S
C3863 H3879 0.961 . S
C3864 C3865 1.370 . S
C3864 C3866 1.363 . S
C3864 H3880 0.931 . S
C3865 C3864 1.370 . S
C3865 C3869 1.408 . S
C3866 C3864 1.363 . S
C3866 C3867 1.370 . S
C3866 C3870 1.524 . S
C3867 C3859 1.503 . S
C3867 C3866 1.370 . S
C3867 C3868 1.403 . S
C3868 C3867 1.403 . S
C3868 C3869 1.404 . S
C3868 C3871 1.539 . S
C3869 C3865 1.408 . S
C3869 C3868 1.404 . S
C3869 H3881 0.930 . S
C3870 C3866 1.524 . S
C3870 H3882 0.956 . S
C3870 H3883 0.961 . S
C3870 H3884 0.961 . S
C3871 C3868 1.539 . S
C3871 H3885 0.958 . S
C3871 H3886 0.961 . S
C3871 H3887 0.960 . S
H3872 C3856 0.931 . S
H3873 C3861 0.929 . S
H3874 C3862 0.960 . S
H3875 C3862 0.962 . S
H3876 C3862 0.960 . S
H3877 C3863 0.961 . S
H3878 C3863 0.961 . S
H3879 C3863 0.961 . S
H3880 C3864 0.931 . S
H3881 C3869 0.930 . S
H3882 C3870 0.956 . S
H3883 C3870 0.961 . S
H3884 C3870 0.961 . S
H3885 C3871 0.958 . S
H3886 C3871 0.961 . S
H3887 C3871 0.960 . S
C3888 C3889 1.384 1_554 S
C3888 C3890 1.400 . S
C3888 H3904 0.931 . S
C3889 C3888 1.384 1_556 S
C3889 C3893 1.376 . S
C3890 C3888 1.400 . S
C3890 C3891 1.368 1_554 S
C3890 C3894 1.531 . S
C3891 C3890 1.368 1_556 S
C3891 C3892 1.425 . S
C3891 C3899 1.487 1_556 S
C3892 C3891 1.425 . S
C3892 C3893 1.392 . S
C3892 C3895 1.511 . S
C3893 C3889 1.376 . S
C3893 C3892 1.392 . S
C3893 H3905 0.929 . S
C3894 C3890 1.531 . S
C3894 H3906 0.960 . S
C3894 H3907 0.962 . S
C3894 H3908 0.960 . S
C3895 C3892 1.511 . S
C3895 H3909 0.961 . S
C3895 H3910 0.961 . S
C3895 H3911 0.961 . S
C3896 C3897 1.370 . S
C3896 C3898 1.363 . S
C3896 H3912 0.931 . S
C3897 C3896 1.370 . S
C3897 C3901 1.408 1_554 S
C3898 C3896 1.363 . S
C3898 C3899 1.370 . S
C3898 C3902 1.524 . S
C3899 C3891 1.487 1_554 S
C3899 C3898 1.370 . S
C3899 C3900 1.403 1_554 S
C3900 C3899 1.403 1_556 S
C3900 C3901 1.404 . S
C3900 C3903 1.539 . S
C3901 C3897 1.408 1_556 S
C3901 C3900 1.404 . S
C3901 H3913 0.930 . S
C3902 C3898 1.524 . S
C3902 H3914 0.956 . S
C3902 H3915 0.961 . S
C3902 H3916 0.961 . S
C3903 C3900 1.539 . S
C3903 H3917 0.958 . S
C3903 H3918 0.961 . S
C3903 H3919 0.960 . S
H3904 C3888 0.931 . S
H3905 C3893 0.929 . S
H3906 C3894 0.960 . S
H3907 C3894 0.962 . S
H3908 C3894 0.960 . S
H3909 C3895 0.961 . S
H3910 C3895 0.961 . S
H3911 C3895 0.961 . S
H3912 C3896 0.931 . S
H3913 C3901 0.930 . S
H3914 C3902 0.956 . S
H3915 C3902 0.961 . S
H3916 C3902 0.961 . S
H3917 C3903 0.958 . S
H3918 C3903 0.961 . S
H3919 C3903 0.960 . S
C3920 C3921 1.391 . S
C3920 C3922 1.394 . S
C3920 H3936 0.931 . S
C3921 C3920 1.391 . S
C3921 C3925 1.376 . S
C3922 C3920 1.394 . S
C3922 C3923 1.369 . S
C3922 C3926 1.531 . S
C3923 C3922 1.369 . S
C3923 C3924 1.410 . S
C3923 C3931 1.503 . S
C3924 C3923 1.410 . S
C3924 C3925 1.392 . S
C3924 C3927 1.511 . S
C3925 C3921 1.376 . S
C3925 C3924 1.392 . S
C3925 H3937 0.929 . S
C3926 C3922 1.531 . S
C3926 H3938 0.960 . S
C3926 H3939 0.962 . S
C3926 H3940 0.960 . S
C3927 C3924 1.511 . S
C3927 H3941 0.961 . S
C3927 H3942 0.961 . S
C3927 H3943 0.961 . S
C3928 C3929 1.370 . S
C3928 C3930 1.363 . S
C3928 H3944 0.931 . S
C3929 C3928 1.370 . S
C3929 C3933 1.408 . S
C3930 C3928 1.363 . S
C3930 C3931 1.370 . S
C3930 C3934 1.524 . S
C3931 C3923 1.503 . S
C3931 C3930 1.370 . S
C3931 C3932 1.403 . S
C3932 C3931 1.403 . S
C3932 C3933 1.404 . S
C3932 C3935 1.539 . S
C3933 C3929 1.408 . S
C3933 C3932 1.404 . S
C3933 H3945 0.930 . S
C3934 C3930 1.524 . S
C3934 H3946 0.956 . S
C3934 H3947 0.961 . S
C3934 H3948 0.961 . S
C3935 C3932 1.539 . S
C3935 H3949 0.958 . S
C3935 H3950 0.961 . S
C3935 H3951 0.960 . S
H3936 C3920 0.931 . S
H3937 C3925 0.929 . S
H3938 C3926 0.960 . S
H3939 C3926 0.962 . S
H3940 C3926 0.960 . S
H3941 C3927 0.961 . S
H3942 C3927 0.961 . S
H3943 C3927 0.961 . S
H3944 C3928 0.931 . S
H3945 C3933 0.930 . S
H3946 C3934 0.956 . S
H3947 C3934 0.961 . S
H3948 C3934 0.961 . S
H3949 C3935 0.958 . S
H3950 C3935 0.961 . S
H3951 C3935 0.960 . S
C3952 C3953 1.391 . S
C3952 C3954 1.394 1_554 S
C3952 H3968 0.931 1_554 S
C3953 C3952 1.391 . S
C3953 C3957 1.376 . S
C3954 C3952 1.394 1_556 S
C3954 C3955 1.369 1_556 S
C3954 C3958 1.531 . S
C3955 C3954 1.369 1_554 S
C3955 C3956 1.410 . S
C3955 C3963 1.503 . S
C3956 C3955 1.410 . S
C3956 C3957 1.392 . S
C3956 C3959 1.511 . S
C3957 C3953 1.376 . S
C3957 C3956 1.392 . S
C3957 H3969 0.929 . S
C3958 C3954 1.531 . S
C3958 H3970 0.960 . S
C3958 H3971 0.962 . S
C3958 H3972 0.960 . S
C3959 C3956 1.511 . S
C3959 H3973 0.961 . S
C3959 H3974 0.961 . S
C3959 H3975 0.961 . S
C3960 C3961 1.370 1_554 S
C3960 C3962 1.363 . S
C3960 H3976 0.931 . S
C3961 C3960 1.370 1_556 S
C3961 C3965 1.408 . S
C3962 C3960 1.363 . S
C3962 C3963 1.370 . S
C3962 C3966 1.524 . S
C3963 C3955 1.503 . S
C3963 C3962 1.370 . S
C3963 C3964 1.403 1_554 S
C3964 C3963 1.403 1_556 S
C3964 C3965 1.404 . S
C3964 C3967 1.539 . S
C3965 C3961 1.408 . S
C3965 C3964 1.404 . S
C3965 H3977 0.930 . S
C3966 C3962 1.524 . S
C3966 H3978 0.956 . S
C3966 H3979 0.961 . S
C3966 H3980 0.961 . S
C3967 C3964 1.539 . S
C3967 H3981 0.958 . S
C3967 H3982 0.961 . S
C3967 H3983 0.977 . S
H3968 C3952 0.931 1_556 S
H3969 C3957 0.929 . S
H3970 C3958 0.960 . S
H3971 C3958 0.962 . S
H3972 C3958 0.960 . S
H3973 C3959 0.961 . S
H3974 C3959 0.961 . S
H3975 C3959 0.961 . S
H3976 C3960 0.931 . S
H3977 C3965 0.930 . S
H3978 C3966 0.956 . S
H3979 C3966 0.961 . S
H3980 C3966 0.961 . S
H3981 C3967 0.958 . S
H3982 C3967 0.961 . S
H3983 C3967 0.977 . S
C3984 C3985 1.391 . S
C3984 C3986 1.394 . S
C3984 H4000 0.931 . S
C3985 C3984 1.391 . S
C3985 C3989 1.376 . S
C3986 C3984 1.394 . S
C3986 C3987 1.369 . S
C3986 C3990 1.531 . S
C3987 C3986 1.369 . S
C3987 C3988 1.410 . S
C3987 C3995 1.503 . S
C3988 C3987 1.410 . S
C3988 C3989 1.392 . S
C3988 C3991 1.511 . S
C3989 C3985 1.376 . S
C3989 C3988 1.392 . S
C3989 H4001 0.929 . S
C3990 C3986 1.531 . S
C3990 H4002 0.960 . S
C3990 H4003 0.962 . S
C3990 H4004 0.960 . S
C3991 C3988 1.511 . S
C3991 H4005 0.961 . S
C3991 H4006 0.961 . S
C3991 H4007 0.961 . S
C3992 C3993 1.370 . S
C3992 C3994 1.363 . S
C3992 H4008 0.931 . S
C3993 C3992 1.370 . S
C3993 C3997 1.408 . S
C3994 C3992 1.363 . S
C3994 C3995 1.370 . S
C3994 C3998 1.524 . S
C3995 C3987 1.503 . S
C3995 C3994 1.370 . S
C3995 C3996 1.403 . S
C3996 C3995 1.403 . S
C3996 C3997 1.404 . S
C3996 C3999 1.539 . S
C3997 C3993 1.408 . S
C3997 C3996 1.404 . S
C3997 H4009 0.930 . S
C3998 C3994 1.524 . S
C3998 H4010 0.956 . S
C3998 H4011 0.961 . S
C3998 H4012 0.961 . S
C3999 C3996 1.539 . S
C3999 H4013 0.958 . S
C3999 H4014 0.961 . S
C3999 H4015 0.960 . S
H4000 C3984 0.931 . S
H4001 C3989 0.929 . S
H4002 C3990 0.960 . S
H4003 C3990 0.962 . S
H4004 C3990 0.960 . S
H4005 C3991 0.961 . S
H4006 C3991 0.961 . S
H4007 C3991 0.961 . S
H4008 C3992 0.931 . S
H4009 C3997 0.930 . S
H4010 C3998 0.956 . S
H4011 C3998 0.961 . S
H4012 C3998 0.961 . S
H4013 C3999 0.958 . S
H4014 C3999 0.961 . S
H4015 C3999 0.960 . S
C4016 C4017 1.391 . S
C4016 C4018 1.394 . S
C4016 H4032 0.931 . S
C4017 C4016 1.391 . S
C4017 C4021 1.376 . S
C4018 C4016 1.394 . S
C4018 C4019 1.369 . S
C4018 C4022 1.531 . S
C4019 C4018 1.369 . S
C4019 C4020 1.410 . S
C4019 C4027 1.503 . S
C4020 C4019 1.410 . S
C4020 C4021 1.392 . S
C4020 C4023 1.511 . S
C4021 C4017 1.376 . S
C4021 C4020 1.392 . S
C4021 H4033 0.929 . S
C4022 C4018 1.531 . S
C4022 H4034 0.960 . S
C4022 H4035 0.962 . S
C4022 H4036 0.960 . S
C4023 C4020 1.511 . S
C4023 H4037 0.961 . S
C4023 H4038 0.961 . S
C4023 H4039 0.961 . S
C4024 C4025 1.370 . S
C4024 C4026 1.363 . S
C4024 H4040 0.931 . S
C4025 C4024 1.370 . S
C4025 C4029 1.408 . S
C4026 C4024 1.363 . S
C4026 C4027 1.370 . S
C4026 C4030 1.524 . S
C4027 C4019 1.503 . S
C4027 C4026 1.370 . S
C4027 C4028 1.403 . S
C4028 C4027 1.403 . S
C4028 C4029 1.404 . S
C4028 C4031 1.539 . S
C4029 C4025 1.408 . S
C4029 C4028 1.404 . S
C4029 H4041 0.930 . S
C4030 C4026 1.524 . S
C4030 H4042 0.956 . S
C4030 H4043 0.961 . S
C4030 H4044 0.961 . S
C4031 C4028 1.539 . S
C4031 H4045 0.958 . S
C4031 H4046 0.961 . S
C4031 H4047 0.960 . S
H4032 C4016 0.931 . S
H4033 C4021 0.929 . S
H4034 C4022 0.960 . S
H4035 C4022 0.962 . S
H4036 C4022 0.960 . S
H4037 C4023 0.961 . S
H4038 C4023 0.961 . S
H4039 C4023 0.961 . S
H4040 C4024 0.931 . S
H4041 C4029 0.930 . S
H4042 C4030 0.956 . S
H4043 C4030 0.961 . S
H4044 C4030 0.961 . S
H4045 C4031 0.958 . S
H4046 C4031 0.961 . S
H4047 C4031 0.960 . S
C977 C109 2.115 . S
C985 C346 2.045 . S
C1009 C65 1.800 . S
C1017 C385 1.753 . S
C1041 C75 1.431 . S
C1049 C426 1.421 . S
C1081 C471 1.448 . S
C1073 C84 1.434 . S
C1105 C25 2.053 . S
C1113 C515 2.028 . S
C1145 C546 1.330 . S
C1137 C28 1.391 . S
C1177 C594 2.005 . S
C1169 C47 2.006 . S
C1201 C9 1.755 . S
C1209 C622 1.719 . S
C1241 C354 1.594 . S
C1233 C233 1.563 . S
C1265 C249 1.425 . S
C1273 C395 1.389 . S
C1305 C434 1.483 . S
C1297 C275 1.411 1_545 S
C1337 C466 1.458 . S
C1329 C173 1.465 . S
C1361 C224 0.323 . S
C1369 C502 0.251 . S
C1401 C554 2.213 . S
C1393 C243 2.229 . S
C1433 C591 1.026 . S
C1425 C266 0.958 . S
C1465 C625 1.897 . S
C1457 C179 1.886 . S
C1497 C351 1.878 . S
C1489 C163 1.958 . S
C1521 C289 1.963 . S
C1529 C665 1.931 . S
C1561 C711 1.216 . S
C1553 C333 1.262 . S
C1593 C746 1.470 1_655 S
C1585 C308 1.455 . S
C1617 C123 1.910 . S
C1625 C635 1.930 . S
C1649 C126 1.388 . S
C1657 C431 1.411 . S
C1681 C327 1.294 . S
C1689 C794 1.362 . S
C1721 C822 0.530 . S
C1713 C299 0.456 . S
C1753 C355 2.074 1_565 S
C1745 C67 2.122 . S
C1785 C834 1.789 . S
C1777 C98 1.786 . S
C1809 C89 1.464 . S
C1817 C435 1.456 . S
C1841 C79 1.505 . S
C1849 C782 1.461 . S
C1881 C506 2.072 . S
C1873 C11 2.085 . S
C1905 C51 1.389 . S
C1913 C715 1.339 . S
C1945 C585 2.043 1_565 S
C1937 C33 2.045 . S
C1977 C871 1.671 . S
C1969 C14 1.731 . S
C2009 C345 1.563 . S
C2001 C140 1.549 . S
C2041 C826 1.410 . S
C2033 C319 1.441 . S
C2065 C112 1.474 . S
C2073 C425 1.501 . S
C2097 C285 1.505 . S
C2105 C795 1.501 . S
C2129 C149 0.265 . S
C2137 C511 0.311 . S
C2169 C705 2.263 . S
C2161 C313 2.270 . S
C2193 C121 1.007 . S
C2201 C582 1.053 . S
C2225 C291 1.910 . S
C2233 C874 1.913 . S
C2257 C182 1.937 . S
C2265 C342 1.852 . S
C2289 C168 1.975 . S
C2297 C674 1.944 . S
C2321 C263 1.224 . S
C2329 C542 1.246 . S
C2353 C247 1.569 . S
C2361 C755 1.522 . S
C2393 C866 1.910 . S
C2385 C277 1.962 . S
C2417 C219 1.459 . S
C2425 C422 1.427 . S
C2457 C465 1.407 . S
C2449 C257 1.378 . S
C2489 C391 0.514 . S
C2481 C201 0.493 . S
C2513 C81 2.109 . S
C2521 C906 2.064 . S
C2553 C825 1.745 . S
C2545 C93 1.804 . S
C2577 C103 1.431 . S
C2585 C946 1.421 . S
C2609 C56 1.467 . S
C2617 C791 1.434 . S
C2641 C53 2.052 . S
C2649 C675 2.030 . S
C2681 C706 1.352 . S
C2673 C0 1.372 . S
C2713 C754 2.004 . S
C2705 C19 2.008 . S
C2745 C862 1.716 . S
C2737 C37 1.755 . S
C2777 C914 1.595 . S
C2769 C261 1.591 . S
C2801 C193 1.420 . S
C2809 C835 1.396 . S
C2841 C954 1.473 . S
C2833 C205 1.481 . S
C2873 C786 1.459 . S
C2865 C215 1.464 . S
C2905 C662 0.240 . S
C2897 C252 0.323 . S
C2929 C187 2.228 . S
C2937 C714 2.206 . S
C2969 C751 0.989 . S
C2961 C196 1.050 . S
C2993 C221 1.894 . S
C3001 C865 1.890 . S
C3033 C911 1.895 . S
C3025 C317 1.931 . S
C3057 C135 1.969 . S
C3065 C505 1.915 . S
C3097 C551 1.246 . S
C3089 C151 1.178 . S
C3129 C586 1.473 . S
C3121 C154 1.459 . S
C3161 C875 1.910 . S
C3153 C305 1.949 . S
C3185 C280 1.434 . S
C3193 C951 1.392 . S
C3225 C474 1.350 . S
C3217 C145 1.350 . S
C3257 C382 0.482 . S
C3249 C117 0.532 . S
C3281 C95 2.122 . S
C3289 C915 2.079 . S
C3321 C394 1.790 . S
C3313 C70 1.782 . S
C3345 C61 1.458 . S
C3353 C955 1.448 . S
C3377 C107 1.506 . S
C3385 C462 1.466 . S
C3409 C39 2.099 . S
C3417 C666 2.083 1_556 S
C3449 C555 1.360 . S
C3441 C23 1.394 . S
C3473 C5 2.049 . S
C3481 C745 2.047 . S
C3505 C42 1.722 . S
C3513 C631 1.678 . S
C3545 C905 1.561 . S
C3537 C322 1.553 . S
C3569 C165 1.456 . S
C3577 C386 1.424 . S
C3609 C945 1.497 . S
C3601 C294 1.461 . S
C3633 C131 1.505 . S
C3641 C475 1.501 . S
C3665 C331 0.320 . S
C3673 C671 0.252 . S
C3705 C545 2.263 . S
C3697 C159 2.270 1_556 S
C3729 C303 1.008 . S
C3737 C742 1.053 1_655 S
C3769 C634 1.911 . S
C3761 C137 1.910 . S
C3801 C902 1.873 . S
C3793 C238 1.923 . S
C3833 C514 1.950 1_655 S
C3825 C210 1.965 . S
C3857 C235 1.218 . S
C3865 C702 1.249 . S
C3897 C595 1.511 . S
C3889 C191 1.575 . S
C3921 C207 1.948 . S
C3929 C626 1.898 . S
C3953 C177 1.451 . S
C3961 C942 1.427 . S
C3993 C785 1.392 . S
C3985 C229 1.393 . S
C4025 C831 0.481 . S
C4017 C271 0.520 . S
