# Generated by pormake.
# Topology rtl, (3,6)-cn, num edge types: 1
# Building blocks:
#     Node 0, Type 0, BuildingBlock: OLANEW_clean_sbu_2, # of connection points: 3
#     Node 1, Type 0, BuildingBlock: OLANEW_clean_sbu_2, # of connection points: 3
#     Node 2, Type 0, BuildingBlock: OLANEW_clean_sbu_2, # of connection points: 3
#     Node 3, Type 0, BuildingBlock: OLANEW_clean_sbu_2, # of connection points: 3
#     Node 4, Type 1, BuildingBlock: KUMBUR_clean_sbu_1, # of connection points: 6
#     Node 5, Type 1, BuildingBlock: KUMBUR_clean_sbu_1, # of connection points: 6
#     Edge 6, Type (0, 1), BuildingBlock: XIVTED_clean_linker_0, # of connection points: 2
#     Edge 7, Type (0, 1), BuildingBlock: XIVTED_clean_linker_0, # of connection points: 2
#     Edge 8, Type (0, 1), BuildingBlock: XIVTED_clean_linker_0, # of connection points: 2
#     Edge 9, Type (0, 1), BuildingBlock: XIVTED_clean_linker_0, # of connection points: 2
#     Edge 10, Type (0, 1), BuildingBlock: XIVTED_clean_linker_0, # of connection points: 2
#     Edge 11, Type (0, 1), BuildingBlock: XIVTED_clean_linker_0, # of connection points: 2
#     Edge 12, Type (0, 1), BuildingBlock: XIVTED_clean_linker_0, # of connection points: 2
#     Edge 13, Type (0, 1), BuildingBlock: XIVTED_clean_linker_0, # of connection points: 2
#     Edge 14, Type (0, 1), BuildingBlock: XIVTED_clean_linker_0, # of connection points: 2
#     Edge 15, Type (0, 1), BuildingBlock: XIVTED_clean_linker_0, # of connection points: 2
#     Edge 16, Type (0, 1), BuildingBlock: XIVTED_clean_linker_0, # of connection points: 2
#     Edge 17, Type (0, 1), BuildingBlock: XIVTED_clean_linker_0, # of connection points: 2
# Relax obj value: 0.043
# Max RMSD: 0.166
# Mean RMSD: 0.131
data_MOF--net-rtl--node1-OLANEW_clean_sbu_2--node2-KUMBUR_clean_sbu_1--edge1-XIVTED_clean_linker_0
_symmetry_space_group_name_H-M    P1
_symmetry_Int_Tables_number       1
_symmetry_cell_setting            triclinic
loop_
_symmetry_equiv_pos_as_xyz
'x, y, z'
_cell_length_a     37.547517
_cell_length_b     37.423033
_cell_length_c     29.184195
_cell_angle_alpha  75.898714
_cell_angle_beta   102.52985
_cell_angle_gamma 91.160508
loop_
_atom_site_label
_atom_site_type_symbol
_atom_site_fract_x
_atom_site_fract_y
_atom_site_fract_z
_atom_type_partial_charge
O0 O 0.20245 0.82443 0.99251 0.0
Cd1 Cd 0.23774 0.78875 0.07039 0.0
O2 O 0.20572 0.8789 0.00925 0.0
Cd3 Cd 0.22823 0.85826 0.08674 0.0
O4 O 0.21916 0.85527 0.15914 0.0
C5 C 0.2109 0.88527 0.16812 0.0
O6 O 0.21075 0.91625 0.1351 0.0
C7 C 0.19566 0.85903 0.97938 0.0
C8 C 0.2922 0.7445 0.05754 0.0
O9 O 0.25897 0.73467 0.0525 0.0
O10 O 0.2999 0.77518 0.06889 0.0
O11 O 0.65717 0.71513 0.66524 0.0
Cd12 Cd 0.68657 0.73592 0.59661 0.0
O13 O 0.60078 0.7211 0.62197 0.0
Cd14 Cd 0.61726 0.73285 0.55253 0.0
O15 O 0.61817 0.71401 0.4874 0.0
C16 C 0.59091 0.6954 0.47395 0.0
O17 O 0.56476 0.69086 0.49815 0.0
C18 C 0.62298 0.71297 0.66293 0.0
C19 C 0.738 0.79028 0.60673 0.0
O20 O 0.70518 0.79882 0.58275 0.0
O21 O 0.74639 0.75618 0.62673 0.0
O22 O 0.79549 0.15624 0.15127 0.0
Cd23 Cd 0.76019 0.18438 0.06968 0.0
O24 O 0.78233 0.09949 0.14656 0.0
Cd25 Cd 0.76237 0.1163 0.06825 0.0
O26 O 0.78184 0.12586 0.00118 0.0
C27 C 0.77722 0.10343 0.97411 0.0
O28 O 0.75725 0.07454 0.98425 0.0
C29 C 0.79715 0.12184 0.17101 0.0
C30 C 0.71662 0.2449 0.06711 0.0
O31 O 0.70425 0.21229 0.07397 0.0
O32 O 0.74957 0.24883 0.0617 0.0
O33 O 0.36164 0.25823 0.60264 0.0
Cd34 Cd 0.35021 0.20856 0.55991 0.0
O35 O 0.37903 0.29073 0.53885 0.0
Cd36 Cd 0.39795 0.33621 0.48753 0.0
O37 O 0.41031 0.36815 0.41959 0.0
C38 C 0.43995 0.38489 0.41765 0.0
O39 O 0.46395 0.38412 0.45805 0.0
C40 C 0.37486 0.28774 0.58177 0.0
C41 C 0.28427 0.17251 0.56074 0.0
O42 O 0.31177 0.16361 0.59651 0.0
O43 O 0.28753 0.19917 0.52496 0.0
Tb44 Tb 0.01914 0.9536 0.56002 0.0
C45 C 0.93831 0.1039 0.50349 0.0
N46 N 0.97255 0.09372 0.53029 0.0
C47 C 0.99643 0.14768 0.48527 0.0
C48 C 0.93195 0.13615 0.4655 0.0
C49 C 1.00149 0.11531 0.52235 0.0
C50 C 0.96155 0.15809 0.45661 0.0
C51 C 0.87407 0.09052 0.48557 0.0
C52 C 0.90983 0.08112 0.51332 0.0
C53 C 0.8677 0.12222 0.44703 0.0
C54 C 0.89653 0.14505 0.43714 0.0
Tb55 Tb 0.97698 0.04178 0.59159 0.0
N56 N 0.91696 0.05053 0.55092 0.0
C57 C 0.84556 0.06841 0.49828 0.0
C58 C 0.88856 0.03149 0.56645 0.0
C59 C 0.85276 0.03923 0.53951 0.0
H60 H 0.02841 0.10759 0.54481 0.0
H61 H 0.83061 0.02327 0.55134 0.0
H62 H 0.96705 0.88705 0.60331 0.0
H63 H 0.16583 0.96932 0.60133 0.0
H64 H 0.89283 0.01105 0.60042 0.0
H65 H 0.81773 0.07465 0.47785 0.0
H66 H 0.10371 0.98264 0.55195 0.0
H67 H 0.01942 0.16459 0.47884 0.0
H68 H 0.84044 0.12966 0.42512 0.0
H69 H 0.89114 0.16951 0.40748 0.0
H70 H 0.97497 0.82949 0.66821 0.0
H71 H 0.95779 0.18305 0.4277 0.0
H72 H 0.17791 0.91734 0.6742 0.0
N73 N 0.02299 0.90036 0.61925 0.0
C74 C 0.05698 0.88963 0.64651 0.0
C75 C 0.99822 0.84625 0.66263 0.0
C76 C 0.06277 0.85702 0.68392 0.0
C77 C 0.99375 0.87898 0.62618 0.0
C78 C 0.03284 0.83528 0.69176 0.0
N79 N 0.07906 0.94315 0.60068 0.0
C80 C 0.10775 0.96193 0.58565 0.0
C81 C 0.12133 0.9022 0.66568 0.0
C82 C 0.08574 0.91221 0.6377 0.0
C83 C 0.15018 0.92405 0.65361 0.0
C84 C 0.14344 0.95356 0.61274 0.0
H85 H 0.03616 0.81004 0.72019 0.0
H86 H 0.10295 0.82285 0.74203 0.0
H87 H 0.15427 0.86228 0.72589 0.0
O88 O 0.04536 0.94593 0.50472 0.0
O89 O 0.01521 0.95087 0.63488 0.0
O90 O 0.02081 0.00932 0.6478 0.0
O91 O 0.00562 0.90796 0.53131 0.0
O92 O 0.04426 0.00791 0.54187 0.0
O93 O 0.03592 0.03862 0.5993 0.0
O94 O 0.94933 0.0531 0.64384 0.0
O95 O 0.98209 0.04349 0.51732 0.0
O96 O 0.97387 0.9851 0.5059 0.0
O97 O 0.99159 0.08792 0.61849 0.0
O98 O 0.953 0.98737 0.61261 0.0
O99 O 0.96021 0.95678 0.55457 0.0
C100 C 0.02829 0.97359 0.66175 0.0
C101 C 0.03086 0.89245 0.46909 0.0
C102 C 0.06251 0.8723 0.41437 0.0
C103 C 0.03664 0.84494 0.40983 0.0
C104 C 0.00543 0.86482 0.46384 0.0
C105 C 0.0083 0.84137 0.4343 0.0
C106 C 0.05926 0.89637 0.4438 0.0
C107 C 0.05478 0.03123 0.56942 0.0
C108 C 0.02781 0.91585 0.50227 0.0
C109 C 0.09798 0.84758 0.71275 0.0
C110 C 0.12717 0.87017 0.70374 0.0
C111 C 0.96776 0.0209 0.49092 0.0
C112 C 0.96394 0.1089 0.6747 0.0
C113 C 0.93775 0.12768 0.73537 0.0
C114 C 0.95603 0.16108 0.72672 0.0
C115 C 0.9821 0.14236 0.66728 0.0
C116 C 0.9417 0.10164 0.70884 0.0
C117 C 0.9781 0.1682 0.69311 0.0
C118 C 0.94271 0.96314 0.58646 0.0
C119 C 0.96776 0.08279 0.64527 0.0
H120 H 0.03806 0.82652 0.38678 0.0
H121 H 0.98323 0.86121 0.48269 0.0
H122 H 0.9885 0.82028 0.43042 0.0
H123 H 0.07918 0.91737 0.44789 0.0
H124 H 0.95291 0.18208 0.74548 0.0
H125 H 0.99918 0.14887 0.64102 0.0
H126 H 0.92786 0.07578 0.71499 0.0
H127 H 0.99195 0.19401 0.68676 0.0
Tb128 Tb 0.48168 0.50162 0.98244 0.0
C129 C 0.60477 0.61596 0.00657 0.0
N130 N 0.60791 0.5789 0.01548 0.0
C131 C 0.65602 0.58455 0.97215 0.0
C132 C 0.62594 0.63919 0.97818 0.0
C133 C 0.63432 0.56281 0.00083 0.0
C134 C 0.65117 0.62296 0.95974 0.0
C135 C 0.58263 0.66803 0.02866 0.0
C136 C 0.58353 0.63002 0.03108 0.0
C137 C 0.60103 0.69201 0.99711 0.0
C138 C 0.62272 0.67755 0.97179 0.0
Tb139 Tb 0.56866 0.54534 0.05762 0.0
N140 N 0.56769 0.60559 0.06229 0.0
C141 C 0.56536 0.68025 0.0603 0.0
C142 C 0.5544 0.61681 0.09673 0.0
C143 C 0.55199 0.65437 0.09537 0.0
H144 H 0.63776 0.53313 0.00998 0.0
H145 H 0.54013 0.66327 0.12156 0.0
H146 H 0.43759 0.56634 0.89083 0.0
H147 H 0.42911 0.37789 0.07995 0.0
H148 H 0.54479 0.59671 0.12445 0.0
H149 H 0.564 0.70925 0.05972 0.0
H150 H 0.47569 0.41636 0.04494 0.0
H151 H 0.67621 0.5717 0.95934 0.0
H152 H 0.60023 0.72144 0.99398 0.0
H153 H 0.63826 0.69606 0.94945 0.0
H154 H 0.37465 0.59303 0.85966 0.0
H155 H 0.66804 0.63976 0.9377 0.0
H156 H 0.36613 0.40325 0.06577 0.0
N157 N 0.42387 0.52605 0.94899 0.0
C158 C 0.3967 0.50964 0.96923 0.0
C159 C 0.38051 0.56972 0.89084 0.0
C160 C 0.36035 0.52337 0.95252 0.0
C161 C 0.4161 0.55459 0.90857 0.0
C162 C 0.3526 0.55451 0.91358 0.0
N163 N 0.43981 0.46332 0.01339 0.0
C164 C 0.44833 0.42765 0.03889 0.0
C165 C 0.37741 0.45588 0.02151 0.0
C166 C 0.40505 0.47671 0.00297 0.0
C167 C 0.38654 0.42027 0.05079 0.0
C168 C 0.42202 0.4058 0.05867 0.0
H169 H 0.32502 0.56601 0.89954 0.0
H170 H 0.30477 0.51461 0.96165 0.0
H171 H 0.31976 0.45524 0.02228 0.0
O172 O 0.51412 0.4882 0.93798 0.0
O173 O 0.49338 0.48239 0.06243 0.0
O174 O 0.52445 0.52828 0.0951 0.0
O175 O 0.45856 0.47135 0.93198 0.0
O176 O 0.52574 0.46552 0.03306 0.0
O177 O 0.57407 0.50158 0.02148 0.0
O178 O 0.61537 0.54995 0.11073 0.0
O179 O 0.56178 0.54173 0.98283 0.0
O180 O 0.50219 0.55399 0.94625 0.0
O181 O 0.58956 0.4982 0.11231 0.0
O182 O 0.51429 0.57002 0.05205 0.0
O183 O 0.47233 0.55868 0.98557 0.0
C184 C 0.50445 0.49879 0.09825 0.0
C185 C 0.48046 0.48503 0.86037 0.0
C186 C 0.461 0.47014 0.7817 0.0
C187 C 0.46573 0.5071 0.75887 0.0
C188 C 0.48457 0.5218 0.83674 0.0
C189 C 0.47741 0.53266 0.78629 0.0
C190 C 0.46857 0.45935 0.83273 0.0
C191 C 0.56053 0.46883 0.03287 0.0
C192 C 0.48732 0.47315 0.91362 0.0
C193 C 0.33286 0.50433 0.97344 0.0
C194 C 0.3414 0.47053 0.00796 0.0
C195 C 0.53668 0.56115 0.94787 0.0
C196 C 0.616 0.50934 0.18766 0.0
C197 C 0.60933 0.52968 0.25886 0.0
C198 C 0.6144 0.49291 0.28622 0.0
C199 C 0.62143 0.47291 0.21589 0.0
C200 C 0.61042 0.53785 0.20949 0.0
C201 C 0.62062 0.4648 0.26485 0.0
C202 C 0.48277 0.57642 0.01993 0.0
C203 C 0.61424 0.51609 0.13527 0.0
H204 H 0.45974 0.51646 0.71977 0.0
H205 H 0.49307 0.54217 0.85716 0.0
H206 H 0.48064 0.56109 0.76833 0.0
H207 H 0.46543 0.43094 0.85105 0.0
H208 H 0.61393 0.48596 0.32435 0.0
H209 H 0.62575 0.45059 0.19978 0.0
H210 H 0.60585 0.56605 0.18804 0.0
H211 H 0.6246 0.43659 0.28626 0.0
H212 H 0.22801 0.17146 0.48334 0.0
H213 H 0.10053 0.05237 0.6428 0.0
H214 H 0.26294 0.12647 0.63746 0.0
H215 H 0.08697 0.05514 0.49142 0.0
H216 H 0.1565 0.08622 0.64006 0.0
H217 H 0.17242 0.13578 0.48402 0.0
C218 C 0.22392 0.15423 0.51732 0.0
C219 C 0.25011 0.15199 0.56047 0.0
C220 C 0.14143 0.07932 0.60744 0.0
C221 C 0.18668 0.11141 0.56141 0.0
C222 C 0.10941 0.06009 0.60893 0.0
C223 C 0.08921 0.05081 0.56731 0.0
C224 C 0.15309 0.09013 0.56374 0.0
C225 C 0.10197 0.06156 0.52437 0.0
C226 C 0.19235 0.13373 0.51757 0.0
C227 C 0.24353 0.12902 0.60337 0.0
N228 N 0.13304 0.08097 0.52354 0.0
N229 N 0.21238 0.10985 0.60279 0.0
H230 H 0.28375 0.695 0.00131 0.0
H231 H 0.4804 0.60216 0.09967 0.0
H232 H 0.36543 0.7406 0.09767 0.0
H233 H 0.42465 0.61282 0.95108 0.0
H234 H 0.43551 0.6455 0.10731 0.0
H235 H 0.33145 0.656 0.9903 0.0
C236 C 0.31171 0.69673 0.02021 0.0
C237 C 0.32073 0.72105 0.0504 0.0
C238 C 0.43334 0.63844 0.07298 0.0
C239 C 0.37505 0.67625 0.03858 0.0
C240 C 0.45918 0.61399 0.06835 0.0
C241 C 0.4566 0.6039 0.02445 0.0
C242 C 0.40407 0.6521 0.03389 0.0
C243 C 0.42742 0.61913 0.98581 0.0
C244 C 0.33884 0.67467 0.0137 0.0
C245 C 0.3574 0.72233 0.07389 0.0
N246 N 0.40205 0.64214 0.99155 0.0
N247 N 0.38322 0.69989 0.06795 0.0
H248 H 0.80304 0.78644 0.67262 0.0
H249 H 0.88713 0.95288 0.51511 0.0
H250 H 0.73673 0.85853 0.54556 0.0
H251 H 0.9242 0.92478 0.67028 0.0
H252 H 0.83467 0.91382 0.52331 0.0
H253 H 0.85096 0.83215 0.67126 0.0
C254 C 0.79846 0.81197 0.64469 0.0
C255 C 0.76592 0.81868 0.60903 0.0
C256 C 0.85407 0.91646 0.55561 0.0
C257 C 0.82068 0.87051 0.6069 0.0
C258 C 0.88401 0.93855 0.55092 0.0
C259 C 0.90978 0.94195 0.59208 0.0
C260 C 0.85049 0.8967 0.60176 0.0
C261 C 0.90461 0.92297 0.63777 0.0
C262 C 0.8257 0.83803 0.64411 0.0
C263 C 0.76136 0.85226 0.57377 0.0
N264 N 0.87576 0.90056 0.64144 0.0
N265 N 0.78866 0.87667 0.57314 0.0
H266 H 0.64489 0.24627 0.07383 0.0
H267 H 0.6338 0.46539 0.03664 0.0
H268 H 0.73552 0.31709 0.0552 0.0
H269 H 0.54102 0.39637 0.04781 0.0
H270 H 0.67194 0.41081 0.04721 0.0
H271 H 0.60695 0.30027 0.06807 0.0
C272 C 0.65686 0.27315 0.06865 0.0
C273 C 0.69345 0.27714 0.06486 0.0
C274 C 0.64325 0.40753 0.04741 0.0
C275 C 0.65013 0.33909 0.05824 0.0
C276 C 0.62139 0.43876 0.04131 0.0
C277 C 0.58403 0.43557 0.04097 0.0
C278 C 0.62774 0.37269 0.05326 0.0
C279 C 0.56964 0.4002 0.04766 0.0
C280 C 0.63515 0.30397 0.06534 0.0
C281 C 0.70745 0.31266 0.0582 0.0
N282 N 0.59149 0.37016 0.05339 0.0
N283 N 0.68578 0.3422 0.05505 0.0
H284 H 0.18744 0.94417 0.19538 0.0
H285 H 0.10561 0.8168 0.4075 0.0
H286 H 0.20246 0.82573 0.24087 0.0
H287 H 0.08683 0.93468 0.3599 0.0
H288 H 0.14825 0.82083 0.35427 0.0
H289 H 0.15778 0.94245 0.26254 0.0
C290 C 0.18489 0.91781 0.21979 0.0
C291 C 0.1971 0.88497 0.21208 0.0
C292 C 0.13513 0.84592 0.35572 0.0
C293 C 0.16297 0.88284 0.289 0.0
C294 C 0.11072 0.84361 0.38604 0.0
C295 C 0.09225 0.8754 0.38756 0.0
C296 C 0.14105 0.88026 0.32633 0.0
C297 C 0.10045 0.9095 0.35976 0.0
C298 C 0.1679 0.91687 0.25814 0.0
C299 C 0.19323 0.8517 0.24512 0.0
N300 N 0.12391 0.91098 0.32979 0.0
N301 N 0.17621 0.85147 0.28181 0.0
H302 H 0.55234 0.71247 0.67523 0.0
H303 H 0.59608 0.55137 0.91286 0.0
H304 H 0.66227 0.67531 0.75116 0.0
H305 H 0.5012 0.62302 0.88397 0.0
H306 H 0.61734 0.59256 0.84647 0.0
H307 H 0.52983 0.67736 0.74545 0.0
C308 C 0.57178 0.69736 0.70682 0.0
C309 C 0.60927 0.69668 0.70718 0.0
C310 C 0.59201 0.59952 0.85481 0.0
C311 C 0.58359 0.65604 0.78679 0.0
C312 C 0.57998 0.57616 0.89291 0.0
C313 C 0.5476 0.58462 0.90502 0.0
C314 C 0.57097 0.63114 0.82751 0.0
C315 C 0.52666 0.61592 0.87611 0.0
C316 C 0.55888 0.67738 0.74677 0.0
C317 C 0.63318 0.67667 0.74914 0.0
N318 N 0.5387 0.63819 0.83848 0.0
N319 N 0.61988 0.65674 0.78691 0.0
H320 H 0.80035 0.05157 0.22822 0.0
H321 H 0.9714 0.08685 0.42652 0.0
H322 H 0.84463 0.15914 0.22668 0.0
H323 H 0.90949 0.9882 0.44639 0.0
H324 H 0.92748 0.11284 0.35058 0.0
H325 H 0.84162 0.02697 0.30653 0.0
C326 C 0.81852 0.0701 0.24452 0.0
C327 C 0.81909 0.10747 0.22072 0.0
C328 C 0.92341 0.08556 0.37164 0.0
C329 C 0.8668 0.07932 0.31008 0.0
C330 C 0.94838 0.07082 0.41497 0.0
C331 C 0.94345 0.0358 0.44321 0.0
C332 C 0.89372 0.06473 0.35607 0.0
C333 C 0.91402 0.0155 0.42588 0.0
C334 C 0.84211 0.05601 0.28923 0.0
C335 C 0.84321 0.13017 0.24369 0.0
N336 N 0.89018 0.03029 0.38347 0.0
N337 N 0.86633 0.11567 0.28688 0.0
H338 H 0.42499 0.34166 0.56606 0.0
H339 H 0.41099 0.41631 0.79689 0.0
H340 H 0.35131 0.29906 0.6595 0.0
H341 H 0.48054 0.46262 0.699 0.0
H342 H 0.38896 0.37305 0.7472 0.0
H343 H 0.44482 0.38685 0.61325 0.0
C344 C 0.41229 0.34231 0.5957 0.0
C345 C 0.38581 0.31695 0.60804 0.0
C346 C 0.40902 0.39269 0.73654 0.0
C347 C 0.40945 0.36795 0.66362 0.0
C348 C 0.42184 0.41724 0.76514 0.0
C349 C 0.44773 0.44319 0.75222 0.0
C350 C 0.42224 0.39389 0.69469 0.0
C351 C 0.46028 0.44343 0.71013 0.0
C352 C 0.42403 0.36788 0.62316 0.0
C353 C 0.37166 0.31818 0.64845 0.0
N354 N 0.44748 0.41917 0.68299 0.0
N355 N 0.38366 0.34318 0.67477 0.0
H356 H 0.53897 0.64945 0.44276 0.0
H357 H 0.64351 0.59539 0.25617 0.0
H358 H 0.64046 0.69724 0.41633 0.0
H359 H 0.56036 0.53053 0.31519 0.0
H360 H 0.63621 0.64042 0.3026 0.0
H361 H 0.54002 0.61337 0.38393 0.0
C362 C 0.56138 0.65262 0.42431 0.0
C363 C 0.58989 0.67617 0.43494 0.0
C364 C 0.61941 0.61646 0.30505 0.0
C365 C 0.59122 0.63473 0.36734 0.0
C366 C 0.62341 0.59093 0.27841 0.0
C367 C 0.60277 0.55908 0.28237 0.0
C368 C 0.59427 0.6102 0.33527 0.0
C369 C 0.57718 0.55448 0.31174 0.0
C370 C 0.56197 0.6319 0.39075 0.0
C371 C 0.61806 0.67922 0.40954 0.0
N372 N 0.57374 0.57967 0.33715 0.0
N373 N 0.61813 0.65856 0.37707 0.0
H374 H 0.77058 0.06491 0.90369 0.0
H375 H 0.95174 0.14481 0.8233 0.0
H376 H 0.83204 0.15053 0.95757 0.0
H377 H 0.87101 0.09474 0.73094 0.0
H378 H 0.91133 0.1392 0.87935 0.0
H379 H 0.80951 0.0689 0.84508 0.0
C380 C 0.79204 0.08468 0.90301 0.0
C381 C 0.79809 0.10739 0.93566 0.0
C382 C 0.9024 0.12946 0.8468 0.0
C383 C 0.8429 0.11154 0.86954 0.0
C384 C 0.92544 0.13271 0.81466 0.0
C385 C 0.91456 0.12082 0.77179 0.0
C386 C 0.86826 0.11376 0.83659 0.0
C387 C 0.8806 0.10422 0.76354 0.0
C388 C 0.8142 0.08689 0.86962 0.0
C389 C 0.82629 0.1325 0.93314 0.0
N390 N 0.85855 0.10126 0.79561 0.0
N391 N 0.84778 0.13366 0.901 0.0
H392 H 0.39863 0.38708 0.32716 0.0
H393 H 0.53894 0.50721 0.18728 0.0
H394 H 0.49964 0.42494 0.39978 0.0
H395 H 0.44579 0.45687 0.1164 0.0
H396 H 0.52299 0.48083 0.26499 0.0
H397 H 0.41342 0.41589 0.2493 0.0
C398 C 0.42387 0.40156 0.32679 0.0
C399 C 0.44798 0.40349 0.37018 0.0
C400 C 0.50611 0.47533 0.23248 0.0
C401 C 0.46509 0.43655 0.28094 0.0
C402 C 0.51523 0.49038 0.18803 0.0
C403 C 0.49422 0.48341 0.14524 0.0
C404 C 0.47535 0.4535 0.23422 0.0
C405 C 0.46345 0.46189 0.14846 0.0
C406 C 0.43233 0.41794 0.28225 0.0
C407 C 0.48027 0.42266 0.36731 0.0
N408 N 0.45492 0.4477 0.19214 0.0
N409 N 0.48789 0.43842 0.32348 0.0
H410 H 0.15559 0.82399 0.91412 0.0
H411 H 0.08433 0.00698 0.70997 0.0
H412 H 0.18469 0.93242 0.93349 0.0
H413 H 0.02552 0.90622 0.72338 0.0
H414 H 0.12703 0.97928 0.7864 0.0
H415 H 0.11464 0.85252 0.83677 0.0
C416 C 0.15366 0.85378 0.90195 0.0
C417 C 0.17349 0.87586 0.93049 0.0
C418 C 0.10478 0.96325 0.77254 0.0
C419 C 0.12658 0.90857 0.84218 0.0
C420 C 0.08037 0.97906 0.72911 0.0
C421 C 0.05194 0.95847 0.70989 0.0
C422 C 0.10072 0.92658 0.7967 0.0
C423 C 0.04784 0.92253 0.73625 0.0
C424 C 0.13007 0.87 0.858 0.0
C425 C 0.16979 0.91433 0.91283 0.0
N426 N 0.07219 0.90754 0.77811 0.0
N427 N 0.14678 0.92948 0.86977 0.0
loop_
_geom_bond_atom_site_label_1
_geom_bond_atom_site_label_2
_geom_bond_distance
_geom_bond_site_symmetry_2
_ccdc_geom_bond_type
O0 Cd1 2.300 1_556 S
O0 C7 1.275 . S
Cd1 O0 2.300 1_554 S
Cd1 O9 2.381 . S
Cd1 O10 2.378 . S
O2 Cd3 2.385 1_556 S
O2 C7 1.255 . S
Cd3 O2 2.385 1_554 S
Cd3 O4 2.317 . S
O4 Cd3 2.317 . S
O4 C5 1.232 . S
C5 O4 1.232 . S
C5 O6 1.218 . S
O6 C5 1.218 . S
C7 O0 1.275 . S
C7 O2 1.255 . S
C8 O9 1.258 . S
C8 O10 1.256 . S
O9 Cd1 2.381 . S
O9 C8 1.258 . S
O10 Cd1 2.378 . S
O10 C8 1.256 . S
O11 Cd12 2.300 . S
O11 C18 1.275 . S
Cd12 O11 2.300 . S
Cd12 O20 2.381 . S
Cd12 O21 2.378 . S
O13 Cd14 2.385 . S
O13 C18 1.255 . S
Cd14 O13 2.385 . S
Cd14 O15 2.317 . S
O15 Cd14 2.317 . S
O15 C16 1.232 . S
C16 O15 1.232 . S
C16 O17 1.218 . S
O17 C16 1.218 . S
C18 O11 1.275 . S
C18 O13 1.255 . S
C19 O20 1.258 . S
C19 O21 1.256 . S
O20 Cd12 2.381 . S
O20 C19 1.258 . S
O21 Cd12 2.378 . S
O21 C19 1.256 . S
O22 Cd23 2.300 . S
O22 C29 1.275 . S
Cd23 O22 2.300 . S
Cd23 O31 2.381 . S
Cd23 O32 2.378 . S
O24 Cd25 2.385 . S
O24 C29 1.255 . S
Cd25 O24 2.385 . S
Cd25 O26 2.317 . S
O26 Cd25 2.317 . S
O26 C27 1.232 . S
C27 O26 1.232 . S
C27 O28 1.218 . S
O28 C27 1.218 . S
C29 O22 1.275 . S
C29 O24 1.255 . S
C30 O31 1.258 . S
C30 O32 1.256 . S
O31 Cd23 2.381 . S
O31 C30 1.258 . S
O32 Cd23 2.378 . S
O32 C30 1.256 . S
O33 Cd34 2.300 . S
O33 C40 1.275 . S
Cd34 O33 2.300 . S
Cd34 O42 2.381 . S
Cd34 O43 2.378 . S
O35 Cd36 2.385 . S
O35 C40 1.255 . S
Cd36 O35 2.385 . S
Cd36 O37 2.317 . S
O37 Cd36 2.317 . S
O37 C38 1.232 . S
C38 O37 1.232 . S
C38 O39 1.218 . S
O39 C38 1.218 . S
C40 O33 1.275 . S
C40 O35 1.255 . S
C41 O42 1.258 . S
C41 O43 1.256 . S
O42 Cd34 2.381 . S
O42 C41 1.258 . S
O43 Cd34 2.378 . S
O43 C41 1.256 . S
Tb44 N73 2.617 . S
Tb44 N79 2.572 . S
Tb44 O88 2.465 . S
Tb44 O89 2.387 . S
Tb44 O91 2.428 . S
Tb44 O92 2.308 1_565 S
Tb44 O96 2.349 1_465 S
Tb44 O99 2.393 1_455 S
Tb44 C108 2.802 . S
C45 N46 1.379 . S
C45 C48 1.416 . S
C45 C52 1.424 . S
N46 C45 1.379 . S
N46 C49 1.334 1_655 S
N46 Tb55 2.617 . S
C47 C49 1.390 . S
C47 C50 1.339 1_455 S
C47 H67 0.930 . S
C48 C45 1.416 . S
C48 C50 1.416 . S
C48 C54 1.448 . S
C49 N46 1.334 1_455 S
C49 C47 1.390 . S
C49 H60 0.930 . S
C50 C47 1.339 1_655 S
C50 C48 1.416 . S
C50 H71 0.930 . S
C51 C52 1.413 . S
C51 C53 1.427 . S
C51 C57 1.416 . S
C52 C45 1.424 . S
C52 C51 1.413 . S
C52 N56 1.361 . S
C53 C51 1.427 . S
C53 C54 1.328 . S
C53 H68 0.929 . S
C54 C48 1.448 . S
C54 C53 1.328 . S
C54 H69 0.930 . S
Tb55 N46 2.617 . S
Tb55 N56 2.572 . S
Tb55 O90 2.349 1_655 S
Tb55 O93 2.393 1_655 S
Tb55 O94 2.465 . S
Tb55 O95 2.387 . S
Tb55 O97 2.428 . S
Tb55 O98 2.308 1_545 S
Tb55 C119 2.802 . S
N56 C52 1.361 . S
N56 Tb55 2.572 . S
N56 C58 1.340 . S
C57 C51 1.416 . S
C57 C59 1.332 . S
C57 H65 0.931 . S
C58 N56 1.340 . S
C58 C59 1.407 . S
C58 H64 0.930 . S
C59 C57 1.332 . S
C59 C58 1.407 . S
C59 H61 0.929 . S
H60 C49 0.930 . S
H61 C59 0.929 . S
H62 C77 0.930 1_655 S
H63 C84 0.929 . S
H64 C58 0.930 . S
H65 C57 0.931 . S
H66 C80 0.930 . S
H67 C47 0.930 . S
H68 C53 0.929 . S
H69 C54 0.930 . S
H70 C75 0.930 1_655 S
H71 C50 0.930 . S
H72 C83 0.931 . S
N73 Tb44 2.617 . S
N73 C74 1.379 . S
N73 C77 1.334 . S
C74 N73 1.379 . S
C74 C76 1.416 . S
C74 C82 1.424 . S
C75 H70 0.930 1_455 S
C75 C77 1.390 . S
C75 C78 1.339 . S
C76 C74 1.416 . S
C76 C78 1.416 . S
C76 C109 1.448 . S
C77 H62 0.930 1_455 S
C77 N73 1.334 . S
C77 C75 1.390 . S
C78 C75 1.339 . S
C78 C76 1.416 . S
C78 H85 0.930 . S
N79 Tb44 2.572 . S
N79 C80 1.340 . S
N79 C82 1.361 . S
C80 H66 0.930 . S
C80 N79 1.340 . S
C80 C84 1.407 . S
C81 C82 1.413 . S
C81 C83 1.416 . S
C81 C110 1.427 . S
C82 C74 1.424 . S
C82 N79 1.361 . S
C82 C81 1.413 . S
C83 H72 0.931 . S
C83 C81 1.416 . S
C83 C84 1.332 . S
C84 H63 0.929 . S
C84 C80 1.407 . S
C84 C83 1.332 . S
H85 C78 0.930 . S
H86 C109 0.930 . S
H87 C110 0.929 . S
O88 Tb44 2.465 . S
O88 C108 1.264 . S
O89 Tb44 2.387 . S
O89 C100 1.264 . S
O90 Tb55 2.349 1_455 S
O90 C100 1.243 1_545 S
O91 Tb44 2.428 . S
O91 C108 1.256 . S
O92 Tb44 2.308 1_545 S
O92 C107 1.266 . S
O93 Tb55 2.393 1_455 S
O93 C107 1.248 . S
O94 Tb55 2.465 . S
O94 C119 1.264 . S
O95 Tb55 2.387 . S
O95 C111 1.264 . S
O96 Tb44 2.349 1_645 S
O96 C111 1.243 . S
O97 Tb55 2.428 . S
O97 C119 1.256 . S
O98 Tb55 2.308 1_565 S
O98 C118 1.266 . S
O99 Tb44 2.393 1_655 S
O99 C118 1.248 . S
C100 O89 1.264 . S
C100 O90 1.243 1_565 S
C101 C104 1.399 . S
C101 C106 1.383 . S
C101 C108 1.496 . S
C102 C103 1.399 . S
C102 C106 1.389 . S
C103 C102 1.399 . S
C103 C105 1.380 . S
C103 H120 0.929 . S
C104 C101 1.399 . S
C104 C105 1.392 . S
C104 H121 0.929 . S
C105 C103 1.380 . S
C105 C104 1.392 . S
C105 H122 0.929 . S
C106 C101 1.383 . S
C106 C102 1.389 . S
C106 H123 0.931 . S
C107 O92 1.266 . S
C107 O93 1.248 . S
C108 Tb44 2.802 . S
C108 O88 1.264 . S
C108 O91 1.256 . S
C108 C101 1.496 . S
C109 C76 1.448 . S
C109 H86 0.930 . S
C109 C110 1.328 . S
C110 C81 1.427 . S
C110 H87 0.929 . S
C110 C109 1.328 . S
C111 O95 1.264 . S
C111 O96 1.243 . S
C112 C115 1.399 . S
C112 C116 1.383 . S
C112 C119 1.496 . S
C113 C114 1.399 . S
C113 C116 1.389 . S
C114 C113 1.399 . S
C114 C117 1.380 . S
C114 H124 0.929 . S
C115 C112 1.399 . S
C115 C117 1.392 . S
C115 H125 0.929 . S
C116 C112 1.383 . S
C116 C113 1.389 . S
C116 H126 0.931 . S
C117 C114 1.380 . S
C117 C115 1.392 . S
C117 H127 0.929 . S
C118 O98 1.266 . S
C118 O99 1.248 . S
C119 Tb55 2.802 . S
C119 O94 1.264 . S
C119 O97 1.256 . S
C119 C112 1.496 . S
H120 C103 0.929 . S
H121 C104 0.929 . S
H122 C105 0.929 . S
H123 C106 0.931 . S
H124 C114 0.929 . S
H125 C115 0.929 . S
H126 C116 0.931 . S
H127 C117 0.929 . S
Tb128 N157 2.617 . S
Tb128 N163 2.572 1_556 S
Tb128 O172 2.465 . S
Tb128 O173 2.387 1_556 S
Tb128 O175 2.428 . S
Tb128 O176 2.308 1_556 S
Tb128 O180 2.349 . S
Tb128 O183 2.393 . S
Tb128 C192 2.802 . S
C129 N130 1.379 . S
C129 C132 1.416 . S
C129 C136 1.424 . S
N130 C129 1.379 . S
N130 C133 1.334 . S
N130 Tb139 2.617 . S
C131 C133 1.390 . S
C131 C134 1.339 . S
C131 H151 0.930 . S
C132 C129 1.416 . S
C132 C134 1.416 . S
C132 C138 1.448 . S
C133 N130 1.334 . S
C133 C131 1.390 . S
C133 H144 0.930 . S
C134 C131 1.339 . S
C134 C132 1.416 . S
C134 H155 0.930 . S
C135 C136 1.413 . S
C135 C137 1.427 . S
C135 C141 1.416 . S
C136 C129 1.424 . S
C136 C135 1.413 . S
C136 N140 1.361 . S
C137 C135 1.427 . S
C137 C138 1.328 . S
C137 H152 0.929 . S
C138 C132 1.448 . S
C138 C137 1.328 . S
C138 H153 0.930 . S
Tb139 N130 2.617 . S
Tb139 N140 2.572 . S
Tb139 O174 2.349 . S
Tb139 O177 2.393 . S
Tb139 O178 2.465 . S
Tb139 O179 2.387 1_554 S
Tb139 O181 2.428 . S
Tb139 O182 2.308 . S
Tb139 C203 2.802 . S
N140 C136 1.361 . S
N140 Tb139 2.572 . S
N140 C142 1.340 . S
C141 C135 1.416 . S
C141 C143 1.332 . S
C141 H149 0.931 . S
C142 N140 1.340 . S
C142 C143 1.407 . S
C142 H148 0.930 . S
C143 C141 1.332 . S
C143 C142 1.407 . S
C143 H145 0.929 . S
H144 C133 0.930 . S
H145 C143 0.929 . S
H146 C161 0.930 . S
H147 C168 0.929 . S
H148 C142 0.930 . S
H149 C141 0.931 . S
H150 C164 0.930 . S
H151 C131 0.930 . S
H152 C137 0.929 . S
H153 C138 0.930 . S
H154 C159 0.930 . S
H155 C134 0.930 . S
H156 C167 0.931 . S
N157 Tb128 2.617 . S
N157 C158 1.379 1_556 S
N157 C161 1.334 . S
C158 N157 1.379 1_554 S
C158 C160 1.416 . S
C158 C166 1.424 . S
C159 H154 0.930 . S
C159 C161 1.390 . S
C159 C162 1.339 1_556 S
C160 C158 1.416 . S
C160 C162 1.416 . S
C160 C193 1.448 . S
C161 H146 0.930 . S
C161 N157 1.334 . S
C161 C159 1.390 . S
C162 C159 1.339 1_554 S
C162 C160 1.416 . S
C162 H169 0.930 . S
N163 Tb128 2.572 1_554 S
N163 C164 1.340 . S
N163 C166 1.361 . S
C164 H150 0.930 . S
C164 N163 1.340 . S
C164 C168 1.407 . S
C165 C166 1.413 . S
C165 C167 1.416 . S
C165 C194 1.427 . S
C166 C158 1.424 . S
C166 N163 1.361 . S
C166 C165 1.413 . S
C167 H156 0.931 . S
C167 C165 1.416 . S
C167 C168 1.332 . S
C168 H147 0.929 . S
C168 C164 1.407 . S
C168 C167 1.332 . S
H169 C162 0.930 . S
H170 C193 0.930 . S
H171 C194 0.929 . S
O172 Tb128 2.465 . S
O172 C192 1.264 . S
O173 Tb128 2.387 1_554 S
O173 C184 1.264 . S
O174 Tb139 2.349 . S
O174 C184 1.243 . S
O175 Tb128 2.428 . S
O175 C192 1.256 . S
O176 Tb128 2.308 1_554 S
O176 C191 1.266 . S
O177 Tb139 2.393 . S
O177 C191 1.248 . S
O178 Tb139 2.465 . S
O178 C203 1.264 . S
O179 Tb139 2.387 1_556 S
O179 C195 1.264 . S
O180 Tb128 2.349 . S
O180 C195 1.243 . S
O181 Tb139 2.428 . S
O181 C203 1.256 . S
O182 Tb139 2.308 . S
O182 C202 1.266 . S
O183 Tb128 2.393 . S
O183 C202 1.248 1_556 S
C184 O173 1.264 . S
C184 O174 1.243 . S
C185 C188 1.399 . S
C185 C190 1.383 . S
C185 C192 1.496 . S
C186 C187 1.399 . S
C186 C190 1.389 . S
C187 C186 1.399 . S
C187 C189 1.380 . S
C187 H204 0.929 . S
C188 C185 1.399 . S
C188 C189 1.392 . S
C188 H205 0.929 . S
C189 C187 1.380 . S
C189 C188 1.392 . S
C189 H206 0.929 . S
C190 C185 1.383 . S
C190 C186 1.389 . S
C190 H207 0.931 . S
C191 O176 1.266 . S
C191 O177 1.248 . S
C192 Tb128 2.802 . S
C192 O172 1.264 . S
C192 O175 1.256 . S
C192 C185 1.496 . S
C193 C160 1.448 . S
C193 H170 0.930 . S
C193 C194 1.328 . S
C194 C165 1.427 . S
C194 H171 0.929 . S
C194 C193 1.328 . S
C195 O179 1.264 . S
C195 O180 1.243 . S
C196 C199 1.399 . S
C196 C200 1.383 . S
C196 C203 1.496 . S
C197 C198 1.399 . S
C197 C200 1.389 . S
C198 C197 1.399 . S
C198 C201 1.380 . S
C198 H208 0.929 . S
C199 C196 1.399 . S
C199 C201 1.392 . S
C199 H209 0.929 . S
C200 C196 1.383 . S
C200 C197 1.389 . S
C200 H210 0.931 . S
C201 C198 1.380 . S
C201 C199 1.392 . S
C201 H211 0.929 . S
C202 O182 1.266 . S
C202 O183 1.248 1_554 S
C203 Tb139 2.802 . S
C203 O178 1.264 . S
C203 O181 1.256 . S
C203 C196 1.496 . S
H204 C187 0.929 . S
H205 C188 0.929 . S
H206 C189 0.929 . S
H207 C190 0.931 . S
H208 C198 0.929 . S
H209 C199 0.929 . S
H210 C200 0.931 . S
H211 C201 0.929 . S
H212 C218 0.930 . S
H213 C222 0.930 . S
H214 C227 0.929 . S
H215 C225 0.929 . S
H216 C220 0.929 . S
H217 C226 0.929 . S
C218 H212 0.930 . S
C218 C219 1.367 . S
C218 C226 1.378 . S
C219 C218 1.367 . S
C219 C227 1.433 . S
C220 H216 0.929 . S
C220 C222 1.378 . S
C220 C224 1.350 . S
C221 C224 1.463 . S
C221 C226 1.350 . S
C221 N229 1.427 . S
C222 H213 0.930 . S
C222 C220 1.378 . S
C222 C223 1.367 . S
C223 C222 1.367 . S
C223 C225 1.433 . S
C224 C220 1.350 . S
C224 C221 1.463 . S
C224 N228 1.427 . S
C225 H215 0.929 . S
C225 C223 1.433 . S
C225 N228 1.384 . S
C226 H217 0.929 . S
C226 C218 1.378 . S
C226 C221 1.350 . S
C227 H214 0.929 . S
C227 C219 1.433 . S
C227 N229 1.384 . S
N228 C224 1.427 . S
N228 C225 1.384 . S
N229 C221 1.427 . S
N229 C227 1.384 . S
H230 C236 0.930 1_556 S
H231 C240 0.930 . S
H232 C245 0.929 . S
H233 C243 0.929 . S
H234 C238 0.929 . S
H235 C244 0.933 . S
C236 H230 0.930 1_554 S
C236 C237 1.367 . S
C236 C244 1.376 1_554 S
C237 C236 1.367 . S
C237 C245 1.433 . S
C238 H234 0.929 . S
C238 C240 1.378 . S
C238 C242 1.350 . S
C239 C242 1.463 . S
C239 C244 1.347 1_554 S
C239 N247 1.427 . S
C240 H231 0.930 . S
C240 C238 1.378 . S
C240 C241 1.367 . S
C241 C240 1.367 . S
C241 C243 1.433 1_554 S
C242 C238 1.350 . S
C242 C239 1.463 . S
C242 N246 1.427 1_554 S
C243 H233 0.929 . S
C243 C241 1.433 1_556 S
C243 N246 1.384 . S
C244 H235 0.933 . S
C244 C236 1.376 1_556 S
C244 C239 1.347 1_556 S
C245 H232 0.929 . S
C245 C237 1.433 . S
C245 N247 1.384 . S
N246 C242 1.427 1_556 S
N246 C243 1.384 . S
N247 C239 1.427 . S
N247 C245 1.384 . S
H248 C254 0.930 . S
H249 C258 0.930 . S
H250 C263 0.929 . S
H251 C261 0.929 . S
H252 C256 0.929 . S
H253 C262 0.929 . S
C254 H248 0.930 . S
C254 C255 1.367 . S
C254 C262 1.378 . S
C255 C254 1.367 . S
C255 C263 1.433 . S
C256 H252 0.929 . S
C256 C258 1.378 . S
C256 C260 1.350 . S
C257 C260 1.463 . S
C257 C262 1.350 . S
C257 N265 1.427 . S
C258 H249 0.930 . S
C258 C256 1.378 . S
C258 C259 1.367 . S
C259 C258 1.367 . S
C259 C261 1.433 . S
C260 C256 1.350 . S
C260 C257 1.463 . S
C260 N264 1.427 . S
C261 H251 0.929 . S
C261 C259 1.433 . S
C261 N264 1.384 . S
C262 H253 0.929 . S
C262 C254 1.378 . S
C262 C257 1.350 . S
C263 H250 0.929 . S
C263 C255 1.433 . S
C263 N265 1.384 . S
N264 C260 1.427 . S
N264 C261 1.384 . S
N265 C257 1.427 . S
N265 C263 1.384 . S
H266 C272 0.930 1_556 S
H267 C276 0.930 . S
H268 C281 0.929 . S
H269 C279 0.930 1_556 S
H270 C274 0.929 . S
H271 C280 0.929 1_556 S
C272 H266 0.930 1_554 S
C272 C273 1.367 . S
C272 C280 1.378 . S
C273 C272 1.367 . S
C273 C281 1.433 . S
C274 H270 0.929 . S
C274 C276 1.378 . S
C274 C278 1.350 . S
C275 C278 1.463 . S
C275 C280 1.350 . S
C275 N283 1.427 . S
C276 H267 0.930 . S
C276 C274 1.378 . S
C276 C277 1.367 . S
C277 C276 1.367 . S
C277 C279 1.432 . S
C278 C274 1.350 . S
C278 C275 1.463 . S
C278 N282 1.427 . S
C279 H269 0.930 1_554 S
C279 C277 1.432 . S
C279 N282 1.384 . S
C280 H271 0.929 1_554 S
C280 C272 1.378 . S
C280 C275 1.350 . S
C281 H268 0.929 . S
C281 C273 1.433 . S
C281 N283 1.384 . S
N282 C278 1.427 . S
N282 C279 1.384 . S
N283 C275 1.427 . S
N283 C281 1.384 . S
H284 C290 0.930 . S
H285 C294 0.930 . S
H286 C299 0.929 . S
H287 C297 0.929 . S
H288 C292 0.929 . S
H289 C298 0.929 . S
C290 H284 0.930 . S
C290 C291 1.367 . S
C290 C298 1.378 . S
C291 C290 1.367 . S
C291 C299 1.433 . S
C292 H288 0.929 . S
C292 C294 1.378 . S
C292 C296 1.350 . S
C293 C296 1.463 . S
C293 C298 1.350 . S
C293 N301 1.427 . S
C294 H285 0.930 . S
C294 C292 1.378 . S
C294 C295 1.367 . S
C295 C294 1.367 . S
C295 C297 1.433 . S
C296 C292 1.350 . S
C296 C293 1.463 . S
C296 N300 1.427 . S
C297 H287 0.929 . S
C297 C295 1.433 . S
C297 N300 1.384 . S
C298 H289 0.929 . S
C298 C290 1.378 . S
C298 C293 1.350 . S
C299 H286 0.929 . S
C299 C291 1.433 . S
C299 N301 1.384 . S
N300 C296 1.427 . S
N300 C297 1.384 . S
N301 C293 1.427 . S
N301 C299 1.384 . S
H302 C308 0.930 . S
H303 C312 0.930 . S
H304 C317 0.929 . S
H305 C315 0.929 . S
H306 C310 0.929 . S
H307 C316 0.929 . S
C308 H302 0.930 . S
C308 C309 1.367 . S
C308 C316 1.378 . S
C309 C308 1.367 . S
C309 C317 1.433 . S
C310 H306 0.929 . S
C310 C312 1.378 . S
C310 C314 1.350 . S
C311 C314 1.463 . S
C311 C316 1.350 . S
C311 N319 1.427 . S
C312 H303 0.930 . S
C312 C310 1.378 . S
C312 C313 1.367 . S
C313 C312 1.367 . S
C313 C315 1.433 . S
C314 C310 1.350 . S
C314 C311 1.463 . S
C314 N318 1.427 . S
C315 H305 0.929 . S
C315 C313 1.433 . S
C315 N318 1.384 . S
C316 H307 0.929 . S
C316 C308 1.378 . S
C316 C311 1.350 . S
C317 H304 0.929 . S
C317 C309 1.433 . S
C317 N319 1.384 . S
N318 C314 1.427 . S
N318 C315 1.384 . S
N319 C311 1.427 . S
N319 C317 1.384 . S
H320 C326 0.930 . S
H321 C330 0.930 . S
H322 C335 0.929 . S
H323 C333 0.929 . S
H324 C328 0.929 . S
H325 C334 0.929 . S
C326 H320 0.930 . S
C326 C327 1.367 . S
C326 C334 1.378 . S
C327 C326 1.367 . S
C327 C335 1.433 . S
C328 H324 0.929 . S
C328 C330 1.378 . S
C328 C332 1.350 . S
C329 C332 1.463 . S
C329 C334 1.350 . S
C329 N337 1.427 . S
C330 H321 0.930 . S
C330 C328 1.378 . S
C330 C331 1.367 . S
C331 C330 1.367 . S
C331 C333 1.433 . S
C332 C328 1.350 . S
C332 C329 1.463 . S
C332 N336 1.427 . S
C333 H323 0.929 . S
C333 C331 1.433 . S
C333 N336 1.384 . S
C334 H325 0.929 . S
C334 C326 1.378 . S
C334 C329 1.350 . S
C335 H322 0.929 . S
C335 C327 1.433 . S
C335 N337 1.384 . S
N336 C332 1.427 . S
N336 C333 1.384 . S
N337 C329 1.427 . S
N337 C335 1.384 . S
H338 C344 0.930 . S
H339 C348 0.930 . S
H340 C353 0.929 . S
H341 C351 0.929 . S
H342 C346 0.929 . S
H343 C352 0.929 . S
C344 H338 0.930 . S
C344 C345 1.367 . S
C344 C352 1.378 . S
C345 C344 1.367 . S
C345 C353 1.433 . S
C346 H342 0.929 . S
C346 C348 1.378 . S
C346 C350 1.350 . S
C347 C350 1.463 . S
C347 C352 1.350 . S
C347 N355 1.427 . S
C348 H339 0.930 . S
C348 C346 1.378 . S
C348 C349 1.367 . S
C349 C348 1.367 . S
C349 C351 1.433 . S
C350 C346 1.350 . S
C350 C347 1.463 . S
C350 N354 1.427 . S
C351 H341 0.929 . S
C351 C349 1.433 . S
C351 N354 1.384 . S
C352 H343 0.929 . S
C352 C344 1.378 . S
C352 C347 1.350 . S
C353 H340 0.929 . S
C353 C345 1.433 . S
C353 N355 1.384 . S
N354 C350 1.427 . S
N354 C351 1.384 . S
N355 C347 1.427 . S
N355 C353 1.384 . S
H356 C362 0.930 . S
H357 C366 0.930 . S
H358 C371 0.929 . S
H359 C369 0.929 . S
H360 C364 0.929 . S
H361 C370 0.929 . S
C362 H356 0.930 . S
C362 C363 1.367 . S
C362 C370 1.378 . S
C363 C362 1.367 . S
C363 C371 1.433 . S
C364 H360 0.929 . S
C364 C366 1.378 . S
C364 C368 1.350 . S
C365 C368 1.463 . S
C365 C370 1.350 . S
C365 N373 1.427 . S
C366 H357 0.930 . S
C366 C364 1.378 . S
C366 C367 1.367 . S
C367 C366 1.367 . S
C367 C369 1.433 . S
C368 C364 1.350 . S
C368 C365 1.463 . S
C368 N372 1.427 . S
C369 H359 0.929 . S
C369 C367 1.433 . S
C369 N372 1.384 . S
C370 H361 0.929 . S
C370 C362 1.378 . S
C370 C365 1.350 . S
C371 H358 0.929 . S
C371 C363 1.433 . S
C371 N373 1.384 . S
N372 C368 1.427 . S
N372 C369 1.384 . S
N373 C365 1.427 . S
N373 C371 1.384 . S
H374 C380 0.930 . S
H375 C384 0.930 . S
H376 C389 0.929 . S
H377 C387 0.929 . S
H378 C382 0.929 . S
H379 C388 0.929 . S
C380 H374 0.930 . S
C380 C381 1.367 . S
C380 C388 1.378 . S
C381 C380 1.367 . S
C381 C389 1.433 . S
C382 H378 0.929 . S
C382 C384 1.378 . S
C382 C386 1.350 . S
C383 C386 1.463 . S
C383 C388 1.350 . S
C383 N391 1.427 . S
C384 H375 0.930 . S
C384 C382 1.378 . S
C384 C385 1.367 . S
C385 C384 1.367 . S
C385 C387 1.433 . S
C386 C382 1.350 . S
C386 C383 1.463 . S
C386 N390 1.427 . S
C387 H377 0.929 . S
C387 C385 1.433 . S
C387 N390 1.384 . S
C388 H379 0.929 . S
C388 C380 1.378 . S
C388 C383 1.350 . S
C389 H376 0.929 . S
C389 C381 1.433 . S
C389 N391 1.384 . S
N390 C386 1.427 . S
N390 C387 1.384 . S
N391 C383 1.427 . S
N391 C389 1.384 . S
H392 C398 0.930 . S
H393 C402 0.930 . S
H394 C407 0.929 . S
H395 C405 0.929 . S
H396 C400 0.929 . S
H397 C406 0.929 . S
C398 H392 0.930 . S
C398 C399 1.367 . S
C398 C406 1.378 . S
C399 C398 1.367 . S
C399 C407 1.433 . S
C400 H396 0.929 . S
C400 C402 1.378 . S
C400 C404 1.350 . S
C401 C404 1.463 . S
C401 C406 1.350 . S
C401 N409 1.427 . S
C402 H393 0.930 . S
C402 C400 1.378 . S
C402 C403 1.367 . S
C403 C402 1.367 . S
C403 C405 1.433 . S
C404 C400 1.350 . S
C404 C401 1.463 . S
C404 N408 1.427 . S
C405 H395 0.929 . S
C405 C403 1.433 . S
C405 N408 1.384 . S
C406 H397 0.929 . S
C406 C398 1.378 . S
C406 C401 1.350 . S
C407 H394 0.929 . S
C407 C399 1.433 . S
C407 N409 1.384 . S
N408 C404 1.427 . S
N408 C405 1.384 . S
N409 C401 1.427 . S
N409 C407 1.384 . S
H410 C416 0.930 . S
H411 C420 0.922 1_545 S
H412 C425 0.929 . S
H413 C423 0.929 . S
H414 C418 0.929 . S
H415 C424 0.929 . S
C416 H410 0.930 . S
C416 C417 1.367 . S
C416 C424 1.378 . S
C417 C416 1.367 . S
C417 C425 1.433 . S
C418 H414 0.929 . S
C418 C420 1.378 . S
C418 C422 1.350 . S
C419 C422 1.463 . S
C419 C424 1.350 . S
C419 N427 1.427 . S
C420 H411 0.922 1_565 S
C420 C418 1.378 . S
C420 C421 1.367 . S
C421 C420 1.367 . S
C421 C423 1.433 . S
C422 C418 1.350 . S
C422 C419 1.463 . S
C422 N426 1.427 . S
C423 H413 0.929 . S
C423 C421 1.433 . S
C423 N426 1.384 . S
C424 H415 0.929 . S
C424 C416 1.378 . S
C424 C419 1.350 . S
C425 H412 0.929 . S
C425 C417 1.433 . S
C425 N427 1.384 . S
N426 C422 1.427 . S
N426 C423 1.384 . S
N427 C419 1.427 . S
N427 C425 1.384 . S
C223 C107 1.622 . S
C219 C41 1.629 . S
C237 C8 1.640 . S
C241 C202 1.639 . S
C255 C19 1.730 . S
C259 C118 1.751 . S
C273 C30 1.611 . S
C277 C191 1.610 . S
C295 C102 1.464 . S
C291 C5 1.473 . S
C313 C195 1.798 . S
C309 C18 1.749 . S
C327 C29 1.617 . S
C331 C111 1.709 . S
C345 C40 1.606 . S
C349 C186 1.505 . S
C367 C197 1.388 . S
C363 C16 1.310 . S
C385 C113 1.346 . S
C381 C27 1.306 1_556 S
C403 C184 1.546 . S
C399 C38 1.286 . S
C417 C7 1.479 . S
C421 C100 1.513 . S
