# Generated by pormake.
# Topology gar, (4,6)-cn, num edge types: 1
# Building blocks:
#     Node 0, Type 0, BuildingBlock: QUQFOY_clean_sbu_1, # of connection points: 4
#     Node 1, Type 0, BuildingBlock: QUQFOY_clean_sbu_1, # of connection points: 4
#     Node 2, Type 0, BuildingBlock: QUQFOY_clean_sbu_1, # of connection points: 4
#     Node 3, Type 0, BuildingBlock: QUQFOY_clean_sbu_1, # of connection points: 4
#     Node 4, Type 0, BuildingBlock: QUQFOY_clean_sbu_1, # of connection points: 4
#     Node 5, Type 0, BuildingBlock: QUQFOY_clean_sbu_1, # of connection points: 4
#     Node 6, Type 0, BuildingBlock: QUQFOY_clean_sbu_1, # of connection points: 4
#     Node 7, Type 0, BuildingBlock: QUQFOY_clean_sbu_1, # of connection points: 4
#     Node 8, Type 0, BuildingBlock: QUQFOY_clean_sbu_1, # of connection points: 4
#     Node 9, Type 0, BuildingBlock: QUQFOY_clean_sbu_1, # of connection points: 4
#     Node 10, Type 0, BuildingBlock: QUQFOY_clean_sbu_1, # of connection points: 4
#     Node 11, Type 0, BuildingBlock: QUQFOY_clean_sbu_1, # of connection points: 4
#     Node 12, Type 0, BuildingBlock: QUQFOY_clean_sbu_1, # of connection points: 4
#     Node 13, Type 0, BuildingBlock: QUQFOY_clean_sbu_1, # of connection points: 4
#     Node 14, Type 0, BuildingBlock: QUQFOY_clean_sbu_1, # of connection points: 4
#     Node 15, Type 0, BuildingBlock: QUQFOY_clean_sbu_1, # of connection points: 4
#     Node 16, Type 0, BuildingBlock: QUQFOY_clean_sbu_1, # of connection points: 4
#     Node 17, Type 0, BuildingBlock: QUQFOY_clean_sbu_1, # of connection points: 4
#     Node 18, Type 0, BuildingBlock: QUQFOY_clean_sbu_1, # of connection points: 4
#     Node 19, Type 0, BuildingBlock: QUQFOY_clean_sbu_1, # of connection points: 4
#     Node 20, Type 0, BuildingBlock: QUQFOY_clean_sbu_1, # of connection points: 4
#     Node 21, Type 0, BuildingBlock: QUQFOY_clean_sbu_1, # of connection points: 4
#     Node 22, Type 0, BuildingBlock: QUQFOY_clean_sbu_1, # of connection points: 4
#     Node 23, Type 0, BuildingBlock: QUQFOY_clean_sbu_1, # of connection points: 4
#     Node 24, Type 1, BuildingBlock: CUKXOW_clean_sbu_0, # of connection points: 6
#     Node 25, Type 1, BuildingBlock: CUKXOW_clean_sbu_0, # of connection points: 6
#     Node 26, Type 1, BuildingBlock: CUKXOW_clean_sbu_0, # of connection points: 6
#     Node 27, Type 1, BuildingBlock: CUKXOW_clean_sbu_0, # of connection points: 6
#     Node 28, Type 1, BuildingBlock: CUKXOW_clean_sbu_0, # of connection points: 6
#     Node 29, Type 1, BuildingBlock: CUKXOW_clean_sbu_0, # of connection points: 6
#     Node 30, Type 1, BuildingBlock: CUKXOW_clean_sbu_0, # of connection points: 6
#     Node 31, Type 1, BuildingBlock: CUKXOW_clean_sbu_0, # of connection points: 6
#     Node 32, Type 1, BuildingBlock: CUKXOW_clean_sbu_0, # of connection points: 6
#     Node 33, Type 1, BuildingBlock: CUKXOW_clean_sbu_0, # of connection points: 6
#     Node 34, Type 1, BuildingBlock: CUKXOW_clean_sbu_0, # of connection points: 6
#     Node 35, Type 1, BuildingBlock: CUKXOW_clean_sbu_0, # of connection points: 6
#     Node 36, Type 1, BuildingBlock: CUKXOW_clean_sbu_0, # of connection points: 6
#     Node 37, Type 1, BuildingBlock: CUKXOW_clean_sbu_0, # of connection points: 6
#     Node 38, Type 1, BuildingBlock: CUKXOW_clean_sbu_0, # of connection points: 6
#     Node 39, Type 1, BuildingBlock: CUKXOW_clean_sbu_0, # of connection points: 6
#     Edge 40, Type (0, 1), BuildingBlock: ZUJKAS_clean_linker_0, # of connection points: 2
#     Edge 41, Type (0, 1), BuildingBlock: ZUJKAS_clean_linker_0, # of connection points: 2
#     Edge 42, Type (0, 1), BuildingBlock: ZUJKAS_clean_linker_0, # of connection points: 2
#     Edge 43, Type (0, 1), BuildingBlock: ZUJKAS_clean_linker_0, # of connection points: 2
#     Edge 44, Type (0, 1), BuildingBlock: ZUJKAS_clean_linker_0, # of connection points: 2
#     Edge 45, Type (0, 1), BuildingBlock: ZUJKAS_clean_linker_0, # of connection points: 2
#     Edge 46, Type (0, 1), BuildingBlock: ZUJKAS_clean_linker_0, # of connection points: 2
#     Edge 47, Type (0, 1), BuildingBlock: ZUJKAS_clean_linker_0, # of connection points: 2
#     Edge 48, Type (0, 1), BuildingBlock: ZUJKAS_clean_linker_0, # of connection points: 2
#     Edge 49, Type (0, 1), BuildingBlock: ZUJKAS_clean_linker_0, # of connection points: 2
#     Edge 50, Type (0, 1), BuildingBlock: ZUJKAS_clean_linker_0, # of connection points: 2
#     Edge 51, Type (0, 1), BuildingBlock: ZUJKAS_clean_linker_0, # of connection points: 2
#     Edge 52, Type (0, 1), BuildingBlock: ZUJKAS_clean_linker_0, # of connection points: 2
#     Edge 53, Type (0, 1), BuildingBlock: ZUJKAS_clean_linker_0, # of connection points: 2
#     Edge 54, Type (0, 1), BuildingBlock: ZUJKAS_clean_linker_0, # of connection points: 2
#     Edge 55, Type (0, 1), BuildingBlock: ZUJKAS_clean_linker_0, # of connection points: 2
#     Edge 56, Type (0, 1), BuildingBlock: ZUJKAS_clean_linker_0, # of connection points: 2
#     Edge 57, Type (0, 1), BuildingBlock: ZUJKAS_clean_linker_0, # of connection points: 2
#     Edge 58, Type (0, 1), BuildingBlock: ZUJKAS_clean_linker_0, # of connection points: 2
#     Edge 59, Type (0, 1), BuildingBlock: ZUJKAS_clean_linker_0, # of connection points: 2
#     Edge 60, Type (0, 1), BuildingBlock: ZUJKAS_clean_linker_0, # of connection points: 2
#     Edge 61, Type (0, 1), BuildingBlock: ZUJKAS_clean_linker_0, # of connection points: 2
#     Edge 62, Type (0, 1), BuildingBlock: ZUJKAS_clean_linker_0, # of connection points: 2
#     Edge 63, Type (0, 1), BuildingBlock: ZUJKAS_clean_linker_0, # of connection points: 2
#     Edge 64, Type (0, 1), BuildingBlock: ZUJKAS_clean_linker_0, # of connection points: 2
#     Edge 65, Type (0, 1), BuildingBlock: ZUJKAS_clean_linker_0, # of connection points: 2
#     Edge 66, Type (0, 1), BuildingBlock: ZUJKAS_clean_linker_0, # of connection points: 2
#     Edge 67, Type (0, 1), BuildingBlock: ZUJKAS_clean_linker_0, # of connection points: 2
#     Edge 68, Type (0, 1), BuildingBlock: ZUJKAS_clean_linker_0, # of connection points: 2
#     Edge 69, Type (0, 1), BuildingBlock: ZUJKAS_clean_linker_0, # of connection points: 2
#     Edge 70, Type (0, 1), BuildingBlock: ZUJKAS_clean_linker_0, # of connection points: 2
#     Edge 71, Type (0, 1), BuildingBlock: ZUJKAS_clean_linker_0, # of connection points: 2
#     Edge 72, Type (0, 1), BuildingBlock: ZUJKAS_clean_linker_0, # of connection points: 2
#     Edge 73, Type (0, 1), BuildingBlock: ZUJKAS_clean_linker_0, # of connection points: 2
#     Edge 74, Type (0, 1), BuildingBlock: ZUJKAS_clean_linker_0, # of connection points: 2
#     Edge 75, Type (0, 1), BuildingBlock: ZUJKAS_clean_linker_0, # of connection points: 2
#     Edge 76, Type (0, 1), BuildingBlock: ZUJKAS_clean_linker_0, # of connection points: 2
#     Edge 77, Type (0, 1), BuildingBlock: ZUJKAS_clean_linker_0, # of connection points: 2
#     Edge 78, Type (0, 1), BuildingBlock: ZUJKAS_clean_linker_0, # of connection points: 2
#     Edge 79, Type (0, 1), BuildingBlock: ZUJKAS_clean_linker_0, # of connection points: 2
#     Edge 80, Type (0, 1), BuildingBlock: ZUJKAS_clean_linker_0, # of connection points: 2
#     Edge 81, Type (0, 1), BuildingBlock: ZUJKAS_clean_linker_0, # of connection points: 2
#     Edge 82, Type (0, 1), BuildingBlock: ZUJKAS_clean_linker_0, # of connection points: 2
#     Edge 83, Type (0, 1), BuildingBlock: ZUJKAS_clean_linker_0, # of connection points: 2
#     Edge 84, Type (0, 1), BuildingBlock: ZUJKAS_clean_linker_0, # of connection points: 2
#     Edge 85, Type (0, 1), BuildingBlock: ZUJKAS_clean_linker_0, # of connection points: 2
#     Edge 86, Type (0, 1), BuildingBlock: ZUJKAS_clean_linker_0, # of connection points: 2
#     Edge 87, Type (0, 1), BuildingBlock: ZUJKAS_clean_linker_0, # of connection points: 2
#     Edge 88, Type (0, 1), BuildingBlock: ZUJKAS_clean_linker_0, # of connection points: 2
#     Edge 89, Type (0, 1), BuildingBlock: ZUJKAS_clean_linker_0, # of connection points: 2
#     Edge 90, Type (0, 1), BuildingBlock: ZUJKAS_clean_linker_0, # of connection points: 2
#     Edge 91, Type (0, 1), BuildingBlock: ZUJKAS_clean_linker_0, # of connection points: 2
#     Edge 92, Type (0, 1), BuildingBlock: ZUJKAS_clean_linker_0, # of connection points: 2
#     Edge 93, Type (0, 1), BuildingBlock: ZUJKAS_clean_linker_0, # of connection points: 2
#     Edge 94, Type (0, 1), BuildingBlock: ZUJKAS_clean_linker_0, # of connection points: 2
#     Edge 95, Type (0, 1), BuildingBlock: ZUJKAS_clean_linker_0, # of connection points: 2
#     Edge 96, Type (0, 1), BuildingBlock: ZUJKAS_clean_linker_0, # of connection points: 2
#     Edge 97, Type (0, 1), BuildingBlock: ZUJKAS_clean_linker_0, # of connection points: 2
#     Edge 98, Type (0, 1), BuildingBlock: ZUJKAS_clean_linker_0, # of connection points: 2
#     Edge 99, Type (0, 1), BuildingBlock: ZUJKAS_clean_linker_0, # of connection points: 2
#     Edge 100, Type (0, 1), BuildingBlock: ZUJKAS_clean_linker_0, # of connection points: 2
#     Edge 101, Type (0, 1), BuildingBlock: ZUJKAS_clean_linker_0, # of connection points: 2
#     Edge 102, Type (0, 1), BuildingBlock: ZUJKAS_clean_linker_0, # of connection points: 2
#     Edge 103, Type (0, 1), BuildingBlock: ZUJKAS_clean_linker_0, # of connection points: 2
#     Edge 104, Type (0, 1), BuildingBlock: ZUJKAS_clean_linker_0, # of connection points: 2
#     Edge 105, Type (0, 1), BuildingBlock: ZUJKAS_clean_linker_0, # of connection points: 2
#     Edge 106, Type (0, 1), BuildingBlock: ZUJKAS_clean_linker_0, # of connection points: 2
#     Edge 107, Type (0, 1), BuildingBlock: ZUJKAS_clean_linker_0, # of connection points: 2
#     Edge 108, Type (0, 1), BuildingBlock: ZUJKAS_clean_linker_0, # of connection points: 2
#     Edge 109, Type (0, 1), BuildingBlock: ZUJKAS_clean_linker_0, # of connection points: 2
#     Edge 110, Type (0, 1), BuildingBlock: ZUJKAS_clean_linker_0, # of connection points: 2
#     Edge 111, Type (0, 1), BuildingBlock: ZUJKAS_clean_linker_0, # of connection points: 2
#     Edge 112, Type (0, 1), BuildingBlock: ZUJKAS_clean_linker_0, # of connection points: 2
#     Edge 113, Type (0, 1), BuildingBlock: ZUJKAS_clean_linker_0, # of connection points: 2
#     Edge 114, Type (0, 1), BuildingBlock: ZUJKAS_clean_linker_0, # of connection points: 2
#     Edge 115, Type (0, 1), BuildingBlock: ZUJKAS_clean_linker_0, # of connection points: 2
#     Edge 116, Type (0, 1), BuildingBlock: ZUJKAS_clean_linker_0, # of connection points: 2
#     Edge 117, Type (0, 1), BuildingBlock: ZUJKAS_clean_linker_0, # of connection points: 2
#     Edge 118, Type (0, 1), BuildingBlock: ZUJKAS_clean_linker_0, # of connection points: 2
#     Edge 119, Type (0, 1), BuildingBlock: ZUJKAS_clean_linker_0, # of connection points: 2
#     Edge 120, Type (0, 1), BuildingBlock: ZUJKAS_clean_linker_0, # of connection points: 2
#     Edge 121, Type (0, 1), BuildingBlock: ZUJKAS_clean_linker_0, # of connection points: 2
#     Edge 122, Type (0, 1), BuildingBlock: ZUJKAS_clean_linker_0, # of connection points: 2
#     Edge 123, Type (0, 1), BuildingBlock: ZUJKAS_clean_linker_0, # of connection points: 2
#     Edge 124, Type (0, 1), BuildingBlock: ZUJKAS_clean_linker_0, # of connection points: 2
#     Edge 125, Type (0, 1), BuildingBlock: ZUJKAS_clean_linker_0, # of connection points: 2
#     Edge 126, Type (0, 1), BuildingBlock: ZUJKAS_clean_linker_0, # of connection points: 2
#     Edge 127, Type (0, 1), BuildingBlock: ZUJKAS_clean_linker_0, # of connection points: 2
#     Edge 128, Type (0, 1), BuildingBlock: ZUJKAS_clean_linker_0, # of connection points: 2
#     Edge 129, Type (0, 1), BuildingBlock: ZUJKAS_clean_linker_0, # of connection points: 2
#     Edge 130, Type (0, 1), BuildingBlock: ZUJKAS_clean_linker_0, # of connection points: 2
#     Edge 131, Type (0, 1), BuildingBlock: ZUJKAS_clean_linker_0, # of connection points: 2
#     Edge 132, Type (0, 1), BuildingBlock: ZUJKAS_clean_linker_0, # of connection points: 2
#     Edge 133, Type (0, 1), BuildingBlock: ZUJKAS_clean_linker_0, # of connection points: 2
#     Edge 134, Type (0, 1), BuildingBlock: ZUJKAS_clean_linker_0, # of connection points: 2
#     Edge 135, Type (0, 1), BuildingBlock: ZUJKAS_clean_linker_0, # of connection points: 2
# Relax obj value: 0.109
# Max RMSD: 0.222
# Mean RMSD: 0.160
data_MOF--net-gar--node1-QUQFOY_clean_sbu_1--node2-CUKXOW_clean_sbu_0--edge1-ZUJKAS_clean_linker_0
_symmetry_space_group_name_H-M    P1
_symmetry_Int_Tables_number       1
_symmetry_cell_setting            triclinic
loop_
_symmetry_equiv_pos_as_xyz
'x, y, z'
_cell_length_a     72.271545
_cell_length_b     70.616983
_cell_length_c     70.951038
_cell_angle_alpha  94.181091
_cell_angle_beta   96.026543
_cell_angle_gamma 102.12625
loop_
_atom_site_label
_atom_site_type_symbol
_atom_site_fract_x
_atom_site_fract_y
_atom_site_fract_z
_atom_type_partial_charge
O0 O 0.03507 0.24857 0.43217 0.0
Cd1 Cd 0.03264 0.26829 0.41272 0.0
Cd2 Cd 0.01985 0.28733 0.44127 0.0
O3 O 0.02428 0.26395 0.4553 0.0
O4 O 0.04606 0.26016 0.39169 0.0
O5 O 0.05521 0.28892 0.40848 0.0
C6 C 0.05766 0.27692 0.39481 0.0
C7 C 0.03217 0.31789 0.45713 0.0
C8 C 0.03061 0.24961 0.44898 0.0
C9 C 0.9931 0.2754 0.40548 0.0
O10 O 0.99562 0.28406 0.42218 0.0
O11 O 0.0061 0.26803 0.39924 0.0
O12 O 0.01766 0.30641 0.46229 0.0
O13 O 0.03984 0.31208 0.44276 0.0
O14 O 0.9855 0.75668 0.61612 0.0
Cd15 Cd 0.9932 0.77882 0.6378 0.0
Cd16 Cd 0.01313 0.79754 0.61201 0.0
O17 O 1.00126 0.7722 0.59481 0.0
O18 O 0.97565 0.77109 0.65686 0.0
O19 O 0.97712 0.79825 0.6428 0.0
C20 C 0.96991 0.78701 0.65499 0.0
C21 C 0.01121 0.82654 0.5994 0.0
C22 C 0.99044 0.75712 0.59948 0.0
C23 C 0.03544 0.79123 0.64812 0.0
O24 O 0.03607 0.79821 0.63215 0.0
O25 O 0.01963 0.78276 0.653 0.0
O26 O 0.02301 0.8164 0.59418 0.0
O27 O 1.00034 0.82012 0.61195 0.0
O28 O 0.57335 0.78021 0.9269 0.0
Cd29 Cd 0.55532 0.78122 0.94744 0.0
Cd30 Cd 0.53188 0.79245 0.91965 0.0
O31 O 0.55236 0.7855 0.90418 0.0
O32 O 0.55911 0.76197 0.96552 0.0
O33 O 0.53244 0.75938 0.94595 0.0
C34 C 0.54207 0.7524 0.9591 0.0
C35 C 0.50186 0.78617 0.90194 0.0
C36 C 0.56826 0.78143 0.90943 0.0
C37 C 0.54661 0.81969 0.9559 0.0
O38 O 0.5375 0.81661 0.93926 0.0
O39 O 0.55495 0.80705 0.96255 0.0
O40 O 0.51519 0.8006 0.89933 0.0
O41 O 0.50545 0.77516 0.91498 0.0
O42 O 0.49219 0.25504 0.10247 0.0
Cd43 Cd 0.49619 0.27687 0.12425 0.0
Cd44 Cd 0.51826 0.29682 0.10107 0.0
O45 O 0.50981 0.27146 0.08298 0.0
O46 O 0.47627 0.26746 0.14061 0.0
O47 O 0.47816 0.29479 0.12678 0.0
C48 C 0.46979 0.2828 0.13776 0.0
C49 C 0.51395 0.32571 0.08957 0.0
C50 C 0.49908 0.25586 0.08673 0.0
C51 C 0.53731 0.29148 0.13929 0.0
O52 O 0.53941 0.29862 0.12352 0.0
O53 O 0.52108 0.28213 0.14238 0.0
O54 O 0.52772 0.31789 0.08517 0.0
O55 O 0.50244 0.31696 0.10056 0.0
O56 O 0.98721 0.73302 0.15838 0.0
Cd57 Cd 0.98998 0.75765 0.17733 0.0
Cd58 Cd 0.00446 0.77625 0.14756 0.0
O59 O 0.99507 0.74873 0.13364 0.0
O60 O 0.9724 0.75057 0.19693 0.0
O61 O 0.96895 0.77251 0.17691 0.0
C62 C 0.96294 0.76293 0.19074 0.0
C63 C 1.00045 0.80246 0.1302 0.0
C64 C 0.98958 0.73286 0.14085 0.0
C65 C 0.03134 0.77745 0.18367 0.0
O66 O 0.02923 0.78078 0.16629 0.0
O67 O 0.01708 0.76938 0.19154 0.0
O68 O 0.01243 0.79202 0.12641 0.0
O69 O 0.99045 0.798 0.14393 0.0
O70 O 0.56573 0.79626 0.37549 0.0
Cd71 Cd 0.5457 0.79519 0.39444 0.0
Cd72 Cd 0.52625 0.80891 0.36247 0.0
O73 O 0.55026 0.80511 0.35024 0.0
O74 O 0.55529 0.78089 0.41531 0.0
O75 O 0.52798 0.76949 0.39697 0.0
C76 C 0.54023 0.76721 0.41077 0.0
C77 C 0.49595 0.79932 0.34473 0.0
C78 C 0.56493 0.80022 0.35825 0.0
C79 C 0.53474 0.83398 0.40051 0.0
O80 O 0.52852 0.83199 0.38288 0.0
O81 O 0.5418 0.82082 0.40797 0.0
O82 O 0.50809 0.81454 0.34148 0.0
O83 O 0.50129 0.78894 0.35766 0.0
O84 O 0.48849 0.23526 0.6523 0.0
Cd85 Cd 0.49099 0.25777 0.67365 0.0
Cd86 Cd 0.5078 0.28019 0.64732 0.0
O87 O 0.50153 0.25358 0.63121 0.0
O88 O 0.47179 0.24904 0.69142 0.0
O89 O 0.47108 0.27398 0.67447 0.0
C90 C 0.46364 0.2629 0.68669 0.0
C91 C 0.50284 0.30707 0.63137 0.0
C92 C 0.49401 0.23693 0.63592 0.0
C93 C 0.53217 0.27804 0.68429 0.0
O94 O 0.5309 0.28493 0.66825 0.0
O95 O 0.51768 0.26703 0.68956 0.0
O96 O 0.5167 0.29878 0.62858 0.0
O97 O 0.4916 0.30013 0.6434 0.0
O98 O 0.02902 0.25538 0.87997 0.0
Cd99 Cd 0.02934 0.27525 0.85974 0.0
Cd100 Cd 0.01649 0.29614 0.8905 0.0
O101 O 0.02118 0.27244 0.90406 0.0
O102 O 0.04425 0.2661 0.84005 0.0
O103 O 0.05431 0.29406 0.85792 0.0
C104 C 0.05735 0.28166 0.84493 0.0
C105 C 0.02264 0.3262 0.90915 0.0
C106 C 0.0257 0.25714 0.8972 0.0
C107 C 0.9905 0.28481 0.85274 0.0
O108 O 0.99324 0.29195 0.87002 0.0
O109 O 0.0034 0.278 0.84542 0.0
O110 O 0.00854 0.31227 0.91111 0.0
O111 O 0.03373 0.32303 0.8967 0.0
O112 O 0.40896 0.08337 0.21781 0.0
Cd113 Cd 0.38935 0.08286 0.23727 0.0
Cd114 Cd 0.41907 0.06974 0.26011 0.0
O115 O 0.43196 0.07399 0.23538 0.0
O116 O 0.36998 0.09685 0.22624 0.0
O117 O 0.38792 0.10708 0.2537 0.0
C118 C 0.3746 0.10939 0.241 0.0
C119 C 0.43693 0.07661 0.2905 0.0
C120 C 0.42529 0.07909 0.21966 0.0
C121 C 0.37945 0.04314 0.25142 0.0
O122 O 0.39662 0.04615 0.25912 0.0
O123 O 0.37361 0.05592 0.24211 0.0
O124 O 0.43882 0.06266 0.27862 0.0
O125 O 0.42563 0.08753 0.28476 0.0
O126 O 0.27715 0.16456 0.53114 0.0
Cd127 Cd 0.27318 0.14391 0.50816 0.0
Cd128 Cd 0.26206 0.17326 0.48969 0.0
O129 O 0.27081 0.18889 0.51576 0.0
O130 O 0.28385 0.12302 0.51934 0.0
O131 O 0.296 0.13898 0.49622 0.0
C132 C 0.29662 0.12586 0.5079 0.0
C133 C 0.27341 0.18883 0.46411 0.0
C134 C 0.27608 0.18227 0.53107 0.0
C135 C 0.23273 0.13629 0.48945 0.0
O136 O 0.23586 0.1539 0.48565 0.0
O137 O 0.24601 0.12936 0.49752 0.0
O138 O 0.2596 0.19342 0.47221 0.0
O139 O 0.28058 0.17481 0.47027 0.0
O140 O 0.14541 0.99766 0.75619 0.0
Cd141 Cd 0.16776 0.00207 0.77772 0.0
Cd142 Cd 0.14053 0.01639 0.79821 0.0
O143 O 0.12416 0.00794 0.7721 0.0
O144 O 0.18614 0.98836 0.76656 0.0
O145 O 0.17271 0.97951 0.79201 0.0
C146 C 0.1839 0.97658 0.77957 0.0
C147 C 0.12427 0.01182 0.82513 0.0
C148 C 0.12886 1.00097 0.75673 0.0
C149 C 0.17777 0.0443 0.79362 0.0
O150 O 0.16179 0.04139 0.80016 0.0
O151 O 0.18298 0.03045 0.78463 0.0
O152 O 0.12195 0.02493 0.81398 0.0
O153 O 0.13593 1.00101 0.82102 0.0
O154 O 0.22287 0.89485 0.0642 0.0
Cd155 Cd 0.22293 0.91432 0.04353 0.0
Cd156 Cd 0.23382 0.88176 0.02218 0.0
O157 O 0.22746 0.86913 0.04703 0.0
O158 O 0.21098 0.93564 0.05374 0.0
O159 O 0.19806 0.91593 0.02804 0.0
C160 C 0.1973 0.93039 0.03997 0.0
C161 C 0.22798 0.86329 0.99223 0.0
C162 C 0.22458 0.87721 0.0628 0.0
C163 C 0.26207 0.92106 0.0302 0.0
O164 O 0.25844 0.90308 0.02433 0.0
O165 O 0.24957 0.92861 0.03742 0.0
O166 O 0.24004 0.86015 0.00566 0.0
O167 O 0.21828 0.8762 0.99602 0.0
O168 O 0.22792 0.40895 0.0775 0.0
Cd169 Cd 0.23807 0.42847 0.05888 0.0
Cd170 Cd 0.24615 0.39797 0.03919 0.0
O171 O 0.23404 0.38394 0.06079 0.0
O172 O 0.22423 0.44988 0.05901 0.0
O173 O 0.22241 0.42848 0.03398 0.0
C174 C 0.21747 0.44359 0.04157 0.0
C175 C 0.23916 0.38085 0.00905 0.0
C176 C 0.22761 0.39089 0.07513 0.0
C177 C 0.27871 0.43214 0.05398 0.0
O178 O 0.27318 0.41554 0.04456 0.0
O179 O 0.26682 0.44025 0.06152 0.0
O180 O 0.25027 0.37597 0.02234 0.0
O181 O 0.23168 0.39552 0.01293 0.0
O182 O 0.81307 0.17991 0.05072 0.0
Cd183 Cd 0.81093 0.15839 0.02847 0.0
Cd184 Cd 0.7929 0.18611 0.00866 0.0
O185 O 0.79986 0.20113 0.03575 0.0
O186 O 0.82669 0.1402 0.03863 0.0
O187 O 0.83279 0.15556 0.01331 0.0
C188 C 0.83705 0.1435 0.02501 0.0
C189 C 0.79419 0.20326 0.98118 0.0
C190 C 0.80742 0.19585 0.05098 0.0
C191 C 0.76936 0.14542 0.01211 0.0
O192 O 0.77053 0.16208 0.00603 0.0
O193 O 0.78381 0.14101 0.02109 0.0
O194 O 0.7817 0.20426 0.99267 0.0
O195 O 0.80661 0.19307 0.98562 0.0
O196 O 0.11781 0.49082 0.24638 0.0
Cd197 Cd 0.13806 0.49297 0.27001 0.0
Cd198 Cd 0.1093 0.51014 0.28656 0.0
O199 O 0.09487 0.50126 0.2595 0.0
O200 O 0.1572 0.47924 0.26009 0.0
O201 O 0.14174 0.46965 0.28406 0.0
C202 C 0.15419 0.46726 0.27283 0.0
C203 C 0.09282 0.50752 0.31352 0.0
C204 C 0.10131 0.4947 0.24492 0.0
C205 C 0.14868 0.53546 0.28566 0.0
O206 O 0.13146 0.53424 0.28868 0.0
O207 O 0.15424 0.52055 0.27933 0.0
O208 O 0.09 0.51936 0.30111 0.0
O209 O 0.10459 0.49652 0.31038 0.0
O210 O 0.73651 0.91389 0.58209 0.0
Cd211 Cd 0.74461 0.93425 0.56352 0.0
Cd212 Cd 0.7561 0.9057 0.54417 0.0
O213 O 0.74537 0.89038 0.56562 0.0
O214 O 0.72851 0.95367 0.56434 0.0
O215 O 0.7281 0.93321 0.53893 0.0
C216 C 0.72185 0.94728 0.5469 0.0
C217 C 0.75007 0.88934 0.51373 0.0
C218 C 0.73809 0.89632 0.57983 0.0
C219 C 0.78556 0.94245 0.55863 0.0
O220 O 0.78178 0.9256 0.54965 0.0
O221 O 0.77256 0.94904 0.56582 0.0
O222 O 0.76206 0.88523 0.52667 0.0
O223 O 0.74113 0.90274 0.51814 0.0
O224 O 0.88222 0.06842 0.21013 0.0
Cd225 Cd 0.86343 0.06497 0.23051 0.0
Cd226 Cd 0.89344 0.0554 0.25135 0.0
O227 O 0.90721 0.06376 0.22834 0.0
O228 O 0.84384 0.08021 0.22367 0.0
O229 O 0.86399 0.08718 0.25022 0.0
C230 C 0.85004 0.09115 0.23939 0.0
C231 C 0.91 0.06402 0.28194 0.0
C232 C 0.89977 0.06777 0.21251 0.0
C233 C 0.857 0.02442 0.24177 0.0
O234 O 0.87453 0.0288 0.24847 0.0
O235 O 0.84914 0.0371 0.23442 0.0
O236 O 0.91413 0.05116 0.27026 0.0
O237 O 0.8967 0.07263 0.27604 0.0
O238 O 0.30978 0.67869 0.54585 0.0
Cd239 Cd 0.30686 0.65814 0.52268 0.0
Cd240 Cd 0.29102 0.68823 0.505 0.0
O241 O 0.2998 0.70262 0.53228 0.0
O242 O 0.32196 0.63899 0.53183 0.0
O243 O 0.32824 0.65512 0.50697 0.0
C244 C 0.33222 0.64252 0.51818 0.0
C245 C 0.29228 0.70543 0.47757 0.0
C246 C 0.30615 0.6956 0.54707 0.0
C247 C 0.26529 0.64813 0.50731 0.0
O248 O 0.26744 0.66546 0.5027 0.0
O249 O 0.27937 0.64202 0.51495 0.0
O250 O 0.28071 0.70747 0.48979 0.0
O251 O 0.30397 0.69427 0.48131 0.0
O252 O 0.3837 0.56434 0.70716 0.0
Cd253 Cd 0.36498 0.56151 0.7275 0.0
Cd254 Cd 0.39506 0.55601 0.75035 0.0
O255 O 0.40901 0.5649 0.72759 0.0
O256 O 0.34504 0.57633 0.72066 0.0
O257 O 0.36597 0.58419 0.74665 0.0
C258 C 0.35173 0.58779 0.73598 0.0
C259 C 0.41099 0.56775 0.78061 0.0
C260 C 0.40164 0.56635 0.71086 0.0
C261 C 0.3609 0.52228 0.74135 0.0
O262 O 0.3783 0.52812 0.74834 0.0
O263 O 0.35216 0.53378 0.73301 0.0
O264 O 0.41681 0.55542 0.76973 0.0
O265 O 0.39602 0.57372 0.7743 0.0
O266 O 0.61095 0.98351 0.74199 0.0
Cd267 Cd 0.63083 0.98587 0.76601 0.0
Cd268 Cd 0.60215 0.00443 0.78086 0.0
O269 O 0.58795 0.99515 0.75375 0.0
O270 O 0.64957 0.971 0.75704 0.0
O271 O 0.63359 0.96291 0.78108 0.0
C272 C 0.64604 0.95962 0.7702 0.0
C273 C 0.58578 0.00387 0.80799 0.0
C274 C 0.59466 0.98786 0.73972 0.0
C275 C 0.64215 0.02865 0.77975 0.0
O276 O 0.62487 0.02785 0.78229 0.0
O277 O 0.64769 0.01339 0.77447 0.0
O278 O 0.58389 0.01569 0.79529 0.0
O279 O 0.59631 0.99156 0.80489 0.0
O280 O 0.77484 0.64941 0.03591 0.0
Cd281 Cd 0.77171 0.63128 0.01116 0.0
Cd282 Cd 0.76737 0.66389 0.99486 0.0
O283 O 0.77606 0.67648 0.02215 0.0
O284 O 0.78036 0.60823 0.02002 0.0
O285 O 0.79537 0.62726 1.00041 0.0
C286 C 0.79454 0.61256 0.01037 0.0
C287 C 0.78161 0.68098 0.97152 0.0
C288 C 0.77729 0.6678 0.03709 0.0
C289 C 0.73348 0.63042 0.99004 0.0
O290 O 0.73944 0.64846 0.9886 0.0
O291 O 0.74464 0.62047 0.99732 0.0
O292 O 0.76931 0.68725 0.9807 0.0
O293 O 0.78566 0.66457 0.97519 0.0
O294 O 0.90531 0.57715 0.71997 0.0
Cd295 Cd 0.88695 0.57734 0.74056 0.0
Cd296 Cd 0.9178 0.56449 0.76215 0.0
O297 O 0.92983 0.5699 0.73713 0.0
O298 O 0.86674 0.59079 0.73048 0.0
O299 O 0.88669 0.60227 0.75651 0.0
C300 C 0.87241 0.60396 0.74466 0.0
C301 C 0.9369 0.57008 0.79191 0.0
C302 C 0.92211 0.57402 0.72141 0.0
C303 C 0.87813 0.53763 0.75472 0.0
O304 O 0.89565 0.54051 0.76125 0.0
O305 O 0.87168 0.55066 0.74639 0.0
O306 O 0.93808 0.55652 0.77925 0.0
O307 O 0.92561 0.5814 0.78731 0.0
O308 O 0.72213 0.39218 0.56779 0.0
Cd309 Cd 0.72167 0.41161 0.54708 0.0
Cd310 Cd 0.7334 0.37949 0.52633 0.0
O311 O 0.72664 0.36636 0.55075 0.0
O312 O 0.70985 0.43258 0.55818 0.0
O313 O 0.69676 0.4137 0.53203 0.0
C314 C 0.69611 0.42782 0.54442 0.0
C315 C 0.7277 0.36197 0.49591 0.0
C316 C 0.72384 0.37454 0.5665 0.0
C317 C 0.76102 0.41899 0.53441 0.0
O318 O 0.75806 0.40086 0.52933 0.0
O319 O 0.74793 0.42638 0.5406 0.0
O320 O 0.73959 0.3583 0.50922 0.0
O321 O 0.71809 0.37486 0.50008 0.0
O322 O 0.64285 0.50055 0.25402 0.0
Cd323 Cd 0.66545 0.50492 0.27527 0.0
Cd324 Cd 0.63917 0.52041 0.2964 0.0
O325 O 0.62301 0.51307 0.27013 0.0
O326 O 0.68341 0.49038 0.26447 0.0
O327 O 0.66989 0.48261 0.29018 0.0
C328 C 0.68098 0.47906 0.27785 0.0
C329 C 0.62138 0.51621 0.32226 0.0
C330 C 0.62686 0.50516 0.25478 0.0
C331 C 0.67707 0.54701 0.29185 0.0
O332 O 0.66154 0.54447 0.29921 0.0
O333 O 0.68124 0.53313 0.28188 0.0
O334 O 0.6208 0.53011 0.31162 0.0
O335 O 0.63239 0.5046 0.31845 0.0
Tb336 Tb 0.02013 0.05616 0.01611 0.0
C337 C 0.02393 0.02192 0.98728 0.0
Tb338 Tb 0.00959 0.01414 0.02739 0.0
O339 O 0.0499 0.05432 0.01522 0.0
O340 O 0.03341 0.03788 0.03311 0.0
O341 O 0.02029 0.03959 0.98911 0.0
C342 C 0.0087 0.97888 0.03914 0.0
O343 O 0.02249 0.01017 1.00115 0.0
C344 C 0.98052 0.02969 0.01673 0.0
C345 C 0.00631 0.04864 0.05653 0.0
O346 O 0.99914 0.98232 0.02367 0.0
O347 O 0.0188 0.99518 0.04767 0.0
O348 O 0.97975 0.01591 0.02795 0.0
O349 O 0.99645 0.03236 0.0104 0.0
O350 O 0.00883 0.03055 0.05435 0.0
O351 O 0.00879 0.06076 0.04307 0.0
C352 C 0.02004 0.09134 0.00452 0.0
O353 O 0.00679 0.07578 0.99959 0.0
O354 O 0.03337 0.08718 0.0162 0.0
C355 C 0.0493 0.04067 0.02661 0.0
Tb356 Tb 0.2691 0.81057 0.26976 0.0
C357 C 0.30067 0.78573 0.27097 0.0
Tb358 Tb 0.25627 0.76592 0.26545 0.0
O359 O 0.28156 0.81037 0.29912 0.0
O360 O 0.25808 0.78865 0.2872 0.0
O361 O 0.29671 0.80298 0.26845 0.0
C362 C 0.24857 0.72838 0.27179 0.0
O363 O 0.28724 0.76968 0.27107 0.0
C364 C 0.25463 0.78229 0.23345 0.0
C365 C 0.22482 0.79032 0.26376 0.0
O366 O 0.25335 0.74295 0.28483 0.0
O367 O 0.24824 0.73493 0.25518 0.0
O368 O 0.24451 0.76526 0.23559 0.0
O369 O 0.26679 0.78794 0.24799 0.0
O370 O 0.229 0.77358 0.26803 0.0
O371 O 0.23812 0.80613 0.26217 0.0
C372 C 0.27806 0.84825 0.26428 0.0
O373 O 0.26962 0.84122 0.27835 0.0
O374 O 0.28138 0.8341 0.25339 0.0
C375 C 0.27048 0.79394 0.30158 0.0
Tb376 Tb 0.53332 0.03767 0.51205 0.0
C377 C 0.52185 0.02174 0.55152 0.0
Tb378 Tb 0.4925 0.03345 0.52155 0.0
O379 O 0.53775 0.06953 0.51568 0.0
O380 O 0.51917 0.05195 0.53122 0.0
O381 O 0.53364 0.0225 0.53819 0.0
C382 C 0.45991 0.04272 0.52872 0.0
O383 O 0.50555 0.02766 0.54898 0.0
C384 C 0.50068 0.00189 0.50635 0.0
C385 C 0.50391 0.04927 0.48186 0.0
O386 O 0.46164 0.0255 0.52249 0.0
O387 O 0.47649 0.05451 0.53107 0.0
O388 O 0.48795 0.00163 0.51807 0.0
O389 O 0.50661 0.01907 0.5025 0.0
O390 O 0.49146 0.04713 0.49456 0.0
O391 O 0.52087 0.04483 0.48498 0.0
C392 C 0.56567 0.02884 0.50333 0.0
O393 O 0.56456 0.04384 0.51454 0.0
O394 O 0.54865 0.01898 0.4971 0.0
C395 C 0.52508 0.06916 0.52749 0.0
Tb396 Tb 0.26732 0.29036 0.79109 0.0
C397 C 0.27525 0.32338 0.76392 0.0
Tb398 Tb 0.2624 0.27832 0.74865 0.0
O399 O 0.29849 0.29825 0.7916 0.0
O400 O 0.28192 0.27615 0.77208 0.0
O401 O 0.27045 0.31908 0.78092 0.0
C402 C 0.26906 0.27196 0.71281 0.0
O403 O 0.27429 0.30974 0.74968 0.0
C404 C 0.23118 0.28258 0.76271 0.0
C405 C 0.25559 0.24526 0.77598 0.0
O406 O 0.2527 0.26667 0.71906 0.0
O407 O 0.28165 0.2809 0.7267 0.0
O408 O 0.23128 0.27082 0.74781 0.0
O409 O 0.24778 0.29266 0.76755 0.0
O410 O 0.26065 0.2498 0.75911 0.0
O411 O 0.25585 0.25883 0.7901 0.0
C412 C 0.25915 0.2973 0.82633 0.0
O413 O 0.27624 0.29963 0.82143 0.0
O414 O 0.24681 0.29085 0.81148 0.0
C415 C 0.29849 0.28632 0.77675 0.0
Tb416 Tb 0.00202 0.03768 0.50387 0.0
C417 C 0.97307 0.03523 0.53518 0.0
Tb418 Tb 0.01699 0.03836 0.54638 0.0
O419 O 0.00507 0.00746 0.49851 0.0
O420 O 0.99978 0.01823 0.52503 0.0
O421 O 0.97625 0.03876 0.51747 0.0
C422 C 0.03105 0.02791 0.5793 0.0
O423 O 0.9865 0.03201 0.54808 0.0
C424 C 0.01496 0.07208 0.53456 0.0
C425 C 0.04612 0.04181 0.51511 0.0
O426 O 0.02489 0.04371 0.5772 0.0
O427 O 0.02947 0.01806 0.56283 0.0
O428 O 0.01428 0.06849 0.55221 0.0
O429 O 0.01905 0.05798 0.52538 0.0
O430 O 0.04301 0.03825 0.53283 0.0
O431 O 0.03253 0.04446 0.50207 0.0
C432 C 0.98772 0.0473 0.47058 0.0
O433 O 0.99361 0.03143 0.47314 0.0
O434 O 0.98976 0.05773 0.4868 0.0
C435 C 0.0039 0.00403 0.51613 0.0
Tb436 Tb 0.28999 0.78408 0.77794 0.0
C437 C 0.26069 0.79012 0.80634 0.0
Tb438 Tb 0.24794 0.77895 0.76164 0.0
O439 O 0.29236 0.81496 0.7864 0.0
O440 O 0.27317 0.80068 0.76309 0.0
O441 O 0.27783 0.78661 0.80462 0.0
C442 C 0.21358 0.78493 0.75038 0.0
O443 O 0.24756 0.78928 0.79152 0.0
C444 C 0.25944 0.74663 0.76585 0.0
C445 C 0.27726 0.77326 0.73312 0.0
O446 O 0.21688 0.77112 0.76049 0.0
O447 O 0.22956 0.79518 0.7465 0.0
O448 O 0.24551 0.74806 0.75326 0.0
O449 O 0.26473 0.76238 0.7765 0.0
O450 O 0.26006 0.77659 0.73493 0.0
O451 O 0.29049 0.77418 0.74792 0.0
C452 C 0.32408 0.77799 0.79034 0.0
O453 O 0.32118 0.7924 0.78089 0.0
O454 O 0.30785 0.76713 0.79273 0.0
C455 C 0.27844 0.81638 0.77379 0.0
Tb456 Tb 0.49375 0.02819 0.01706 0.0
C457 C 0.52265 0.0012 0.02684 0.0
Tb458 Tb 0.5368 0.04631 0.02314 0.0
O459 O 0.49233 0.03247 0.9866 0.0
O460 O 0.51727 0.02847 1.00139 0.0
O461 O 0.50464 0.00309 0.02563 0.0
C462 C 0.574 0.05683 0.02028 0.0
O463 O 0.5372 0.01578 0.02521 0.0
C464 C 0.51801 0.053 0.0519 0.0
C465 C 0.50818 0.07251 0.01269 0.0
O466 O 0.56671 0.04937 0.03479 0.0
O467 O 0.56034 0.0584 0.00744 0.0
O468 O 0.53348 0.06459 0.04842 0.0
O469 O 0.515 0.03775 0.04065 0.0
O470 O 0.52534 0.06931 0.01073 0.0
O471 O 0.49424 0.05914 0.01768 0.0
C472 C 0.45757 0.01286 0.02141 0.0
O473 O 0.46817 0.02838 0.03108 0.0
O474 O 0.46738 0.00591 0.00934 0.0
C475 C 0.5102 0.03255 0.98564 0.0
Tb476 Tb 0.24819 0.28388 0.27772 0.0
C477 C 0.28542 0.28912 0.30561 0.0
Tb478 Tb 0.28616 0.29559 0.26207 0.0
O479 O 0.25275 0.25461 0.28147 0.0
O480 O 0.26441 0.27011 0.26006 0.0
O481 O 0.26757 0.2914 0.30399 0.0
C482 C 0.31979 0.29729 0.24921 0.0
O483 O 0.29503 0.28861 0.2907 0.0
C484 C 0.26932 0.3241 0.27056 0.0
C485 C 0.24869 0.28962 0.23369 0.0
O486 O 0.30692 0.28159 0.24975 0.0
O487 O 0.31387 0.31212 0.25619 0.0
O488 O 0.28015 0.32403 0.25709 0.0
O489 O 0.26975 0.30942 0.27959 0.0
O490 O 0.26724 0.28999 0.23545 0.0
O491 O 0.23862 0.28817 0.24835 0.0
C492 C 0.21453 0.28418 0.28977 0.0
O493 O 0.22416 0.29764 0.28098 0.0
O494 O 0.22373 0.27037 0.29157 0.0
C495 C 0.26419 0.255 0.26851 0.0
Tb496 Tb 0.49589 0.53857 0.00272 0.0
C497 C 0.46917 0.52558 0.03312 0.0
Tb498 Tb 0.51399 0.53691 0.04369 0.0
O499 O 0.48763 0.50674 0.99804 0.0
O500 O 0.51134 0.52055 0.01708 0.0
O501 O 0.47097 0.53536 0.01788 0.0
C502 C 0.52554 0.52579 0.07723 0.0
O503 O 0.48415 0.52225 0.04382 0.0
C504 C 0.50943 0.57107 0.03499 0.0
C505 C 0.54135 0.5498 0.01308 0.0
O506 O 0.516 0.53926 0.0748 0.0
O507 O 0.52869 0.51869 0.06079 0.0
O508 O 0.52282 0.56865 0.04773 0.0
O509 O 0.49845 0.55492 0.0293 0.0
O510 O 0.54001 0.54421 0.03047 0.0
O511 O 0.52626 0.54923 1.00037 0.0
C512 C 0.48368 0.55 0.96952 0.0
O513 O 0.49586 0.56088 0.98274 0.0
O514 O 0.47854 0.53274 0.97495 0.0
C515 C 0.50067 0.50433 0.01109 0.0
Tb516 Tb 0.78656 0.28635 0.27875 0.0
C517 C 0.75759 0.29197 0.30747 0.0
Tb518 Tb 0.74453 0.28109 0.26273 0.0
O519 O 0.78862 0.31714 0.28731 0.0
O520 O 0.76966 0.30283 0.26384 0.0
O521 O 0.7746 0.28822 0.30558 0.0
C522 C 0.7101 0.28712 0.25169 0.0
O523 O 0.74444 0.29143 0.29271 0.0
C524 C 0.75613 0.24885 0.26713 0.0
C525 C 0.77371 0.27562 0.23393 0.0
O526 O 0.71343 0.27307 0.26144 0.0
O527 O 0.72609 0.29756 0.24805 0.0
O528 O 0.74226 0.2502 0.25441 0.0
O529 O 0.76136 0.26463 0.27774 0.0
O530 O 0.75652 0.27895 0.23587 0.0
O531 O 0.78693 0.27655 0.24872 0.0
C532 C 0.82108 0.28077 0.29008 0.0
O533 O 0.81763 0.29631 0.28303 0.0
O534 O 0.80516 0.2685 0.29075 0.0
C535 C 0.77482 0.31853 0.27456 0.0
Tb536 Tb 0.9897 0.5321 0.51714 0.0
C537 C 0.01897 0.50545 0.5209 0.0
Tb538 Tb 0.03228 0.55135 0.52203 0.0
O539 O 0.99112 0.51707 0.48952 0.0
O540 O 0.01009 0.5435 0.49891 0.0
O541 O 1.00132 0.50694 0.52313 0.0
C542 C 0.06933 0.56314 0.51859 0.0
O543 O 0.03259 0.5205 0.5183 0.0
C544 C 0.01546 0.55395 0.55289 0.0
C545 C 0.0031 0.578 0.51758 0.0
O546 O 0.06251 0.55373 0.53228 0.0
O547 O 0.05531 0.56598 0.50697 0.0
O548 O 0.03048 0.56637 0.54963 0.0
O549 O 0.01192 0.53981 0.54014 0.0
O550 O 0.02077 0.57643 0.5156 0.0
O551 O 0.98939 0.56303 0.52023 0.0
C552 C 0.95282 0.51999 0.52116 0.0
O553 O 0.95932 0.52869 0.50695 0.0
O554 O 0.96707 0.51813 0.53306 0.0
C555 C 0.00626 0.52929 0.48617 0.0
Tb556 Tb 0.76603 0.79256 0.29252 0.0
C557 C 0.77108 0.82636 0.2645 0.0
Tb558 Tb 0.76049 0.78204 0.24962 0.0
O559 O 0.7939 0.7844 0.29509 0.0
O560 O 0.78351 0.79487 0.2704 0.0
O561 O 0.76796 0.82135 0.28181 0.0
C562 C 0.76694 0.76849 0.21556 0.0
O563 O 0.77136 0.81327 0.25016 0.0
C564 C 0.72989 0.78711 0.26439 0.0
C565 C 0.75547 0.74821 0.27761 0.0
O566 O 0.753 0.77684 0.21868 0.0
O567 O 0.77701 0.76765 0.23155 0.0
O568 O 0.73247 0.78981 0.24684 0.0
O569 O 0.74299 0.77975 0.2717 0.0
O570 O 0.7586 0.7533 0.26032 0.0
O571 O 0.75511 0.76125 0.29198 0.0
C572 C 0.7603 0.80613 0.32692 0.0
O573 O 0.77418 0.79787 0.32338 0.0
O574 O 0.74981 0.80683 0.31114 0.0
C575 C 0.79654 0.78738 0.27761 0.0
Tb576 Tb 0.76785 0.30467 0.77165 0.0
C577 C 0.79916 0.27992 0.77261 0.0
Tb578 Tb 0.75482 0.2601 0.76765 0.0
O579 O 0.78108 0.30539 0.80095 0.0
O580 O 0.75809 0.28282 0.78971 0.0
O581 O 0.79504 0.2968 0.7687 0.0
C582 C 0.7462 0.22228 0.77264 0.0
O583 O 0.78582 0.26427 0.77452 0.0
C584 C 0.75232 0.27664 0.73573 0.0
C585 C 0.72347 0.28482 0.76649 0.0
O586 O 0.7532 0.22948 0.75792 0.0
O587 O 0.74402 0.23631 0.78444 0.0
O588 O 0.74136 0.26029 0.73855 0.0
O589 O 0.76506 0.28186 0.74981 0.0
O590 O 0.72759 0.26792 0.77026 0.0
O591 O 0.73685 0.30056 0.76494 0.0
C592 C 0.77609 0.34247 0.76633 0.0
O593 O 0.77007 0.33536 0.78149 0.0
O594 O 0.77732 0.3283 0.75418 0.0
C595 C 0.77099 0.28855 0.80366 0.0
Tb596 Tb 0.74309 0.77714 0.77836 0.0
C597 C 0.77613 0.78057 0.81155 0.0
Tb598 Tb 0.78369 0.79318 0.7704 0.0
O599 O 0.74894 0.74834 0.7814 0.0
O600 O 0.76339 0.76666 0.76324 0.0
O601 O 0.75762 0.77938 0.80698 0.0
C602 C 0.82004 0.79942 0.76372 0.0
O603 O 0.78876 0.78484 0.79931 0.0
C604 C 0.76374 0.81928 0.7777 0.0
C605 C 0.75072 0.78887 0.73717 0.0
O606 O 0.8089 0.78253 0.76407 0.0
O607 O 0.81081 0.81284 0.76743 0.0
O608 O 0.77703 0.82153 0.7666 0.0
O609 O 0.76335 0.80364 0.78536 0.0
O610 O 0.76904 0.78887 0.74154 0.0
O611 O 0.73832 0.78603 0.74976 0.0
C612 C 0.70722 0.77441 0.78551 0.0
O613 O 0.71394 0.76011 0.77851 0.0
O614 O 0.72061 0.79002 0.78828 0.0
C615 C 0.76255 0.75079 0.77062 0.0
Tb616 Tb 0.52181 0.55583 0.51651 0.0
C617 C 0.51756 0.52315 0.48127 0.0
Tb618 Tb 0.50446 0.51298 0.52089 0.0
O619 O 0.5493 0.55396 0.53211 0.0
O620 O 0.53137 0.52959 0.51687 0.0
O621 O 0.5199 0.54193 0.48731 0.0
C622 C 0.50131 0.47815 0.53425 0.0
O623 O 0.51331 0.50913 0.49267 0.0
C624 C 0.48004 0.53395 0.50924 0.0
C625 C 0.50896 0.54552 0.55623 0.0
O626 O 0.48835 0.48317 0.52271 0.0
O627 O 0.51591 0.49264 0.53803 0.0
O628 O 0.47703 0.51517 0.50525 0.0
O629 O 0.49502 0.53923 0.52072 0.0
O630 O 0.50655 0.52677 0.5501 0.0
O631 O 0.51323 0.55959 0.54489 0.0
C632 C 0.52417 0.59068 0.50333 0.0
O633 O 0.53723 0.58597 0.51501 0.0
O634 O 0.50995 0.57583 0.49924 0.0
C635 C 0.54632 0.53514 0.52838 0.0
Tb636 Tb 0.03614 0.53791 0.01673 0.0
C637 C 0.0257 0.52518 0.05663 0.0
Tb638 Tb 0.99474 0.53312 0.0245 0.0
O639 O 0.04479 0.56486 0.03587 0.0
O640 O 0.01731 0.5565 0.02128 0.0
O641 O 0.03748 0.52452 0.0435 0.0
C642 C 0.96221 0.53841 0.03637 0.0
O643 O 0.00883 0.52975 0.05273 0.0
C644 C 0.00334 0.50276 0.00697 0.0
C645 C 0.00499 0.5459 0.98449 0.0
O646 O 0.97823 0.55116 0.03874 0.0
O647 O 0.96461 0.52247 0.02764 0.0
O648 O 0.98651 0.50664 0.00464 0.0
O649 O 0.01365 0.51455 0.01995 0.0
O650 O 0.99253 0.54508 0.99708 0.0
O651 O 0.02242 0.54278 0.98883 0.0
C652 C 0.06745 0.53159 0.00289 0.0
O653 O 0.05016 0.52226 0.99688 0.0
O654 O 0.06711 0.5447 0.01659 0.0
C655 C 0.02784 0.5685 0.03396 0.0
H656 H 0.01109 0.25172 0.93089 0.0
H657 H 0.01134 0.22457 0.95024 0.0
H658 H 0.04289 0.19915 0.91072 0.0
H659 H 0.04205 0.22595 0.89086 0.0
H660 H 0.01506 0.17246 0.9195 0.0
H661 H 0.05287 0.21379 0.98665 0.0
H662 H 0.03194 0.22225 0.97874 0.0
H663 H 0.05139 0.22474 0.96451 0.0
C664 C 0.01824 0.24045 0.92638 0.0
C665 C 0.02661 0.24105 0.90934 0.0
C666 C 0.01849 0.22498 0.93756 0.0
C667 C 0.02749 0.20999 0.9322 0.0
C668 C 0.03595 0.2106 0.91523 0.0
H669 H 0.05091 0.12131 0.00517 0.0
H670 H 0.05285 0.15031 0.98781 0.0
C671 C 0.03546 0.22593 0.90388 0.0
C672 C 0.0272 0.19316 0.94373 0.0
H673 H 0.03681 0.18086 0.98886 0.0
C674 C 0.01996 0.17432 0.93465 0.0
C675 C 0.03386 0.19549 0.96345 0.0
C676 C 0.04314 0.21515 0.97386 0.0
C677 C 0.01885 0.15782 0.94473 0.0
C678 C 0.02452 0.16021 0.96465 0.0
C679 C 0.03215 0.17902 0.97368 0.0
C680 C 0.02301 0.14335 0.97623 0.0
C681 C 0.01199 0.13797 0.9338 0.0
C682 C 0.00548 0.13013 0.97606 0.0
C683 C 0.00443 0.11346 0.98574 0.0
C684 C 0.02079 0.10995 0.99613 0.0
C685 C 0.03809 0.1237 0.99724 0.0
C686 C 0.03921 0.14024 0.9873 0.0
H687 H 0.01392 0.13846 0.9185 0.0
H688 H 0.01968 0.12726 0.93974 0.0
H689 H 0.99654 0.13276 0.93467 0.0
H690 H 0.99265 0.13252 0.96816 0.0
H691 H 0.99086 0.10317 0.98485 0.0
H692 H 0.06487 0.78063 0.16874 0.0
H693 H 0.09682 0.78506 0.18565 0.0
H694 H 0.0742 0.78944 0.23934 0.0
H695 H 0.04187 0.78377 0.22237 0.0
H696 H 0.11934 0.81243 0.20747 0.0
H697 H 0.10352 0.74931 0.24981 0.0
H698 H 0.08648 0.75379 0.2312 0.0
H699 H 0.08956 0.76693 0.25446 0.0
C700 C 0.06667 0.78255 0.18416 0.0
C701 C 0.05081 0.7817 0.19422 0.0
C702 C 0.085 0.78511 0.19384 0.0
C703 C 0.08802 0.7872 0.21385 0.0
C704 C 0.07227 0.7872 0.22395 0.0
H705 H 0.20845 0.82204 0.26563 0.0
H706 H 0.17505 0.82275 0.25594 0.0
C707 C 0.05379 0.78415 0.21423 0.0
C708 C 0.10769 0.78924 0.22381 0.0
H709 H 0.13443 0.76935 0.25624 0.0
C710 C 0.12262 0.80299 0.21814 0.0
C711 C 0.11209 0.77682 0.23764 0.0
C712 C 0.09711 0.76076 0.24351 0.0
C713 C 0.14176 0.8043 0.22539 0.0
C714 C 0.14612 0.79214 0.23949 0.0
C715 C 0.13114 0.77878 0.24557 0.0
C716 C 0.16614 0.79186 0.24699 0.0
C717 C 0.15707 0.818 0.21706 0.0
C718 C 0.17213 0.77416 0.24628 0.0
C719 C 0.19101 0.77365 0.25241 0.0
C720 C 0.20447 0.79088 0.25916 0.0
C721 C 0.19844 0.80856 0.26032 0.0
C722 C 0.17938 0.80899 0.2546 0.0
H723 H 0.15173 0.82187 0.20291 0.0
H724 H 0.16181 0.83168 0.22666 0.0
H725 H 0.1696 0.81151 0.21542 0.0
H726 H 0.16227 0.76071 0.24053 0.0
H727 H 0.1952 0.7598 0.25121 0.0
H728 H 0.54797 0.84453 0.43838 0.0
H729 H 0.54366 0.87281 0.45827 0.0
H730 H 0.51346 0.89134 0.40982 0.0
H731 H 0.51764 0.86326 0.38985 0.0
H732 H 0.55446 0.91453 0.45269 0.0
H733 H 0.47648 0.88681 0.45173 0.0
H734 H 0.49231 0.87126 0.44563 0.0
H735 H 0.48482 0.88673 0.42874 0.0
C736 C 0.54047 0.85465 0.43193 0.0
C737 C 0.53306 0.85153 0.41252 0.0
C738 C 0.53806 0.87081 0.44331 0.0
C739 C 0.52805 0.884 0.43554 0.0
C740 C 0.52101 0.88117 0.41613 0.0
H741 H 0.51813 0.99954 0.47431 0.0
H742 H 0.52616 0.97077 0.45875 0.0
C743 C 0.52349 0.86513 0.40473 0.0
C744 C 0.52465 0.90061 0.44769 0.0
H745 H 0.48907 0.91963 0.46427 0.0
C746 C 0.5402 0.91562 0.45536 0.0
C747 C 0.50605 0.90184 0.45133 0.0
C748 C 0.48893 0.88575 0.44409 0.0
C749 C 0.53755 0.93218 0.46608 0.0
C750 C 0.51884 0.93377 0.46905 0.0
C751 C 0.50338 0.91844 0.46188 0.0
C752 C 0.51486 0.95139 0.47907 0.0
C753 C 0.55478 0.94782 0.47415 0.0
C754 C 0.50549 0.94999 0.49546 0.0
C755 C 0.50093 0.96645 0.5044 0.0
C756 C 0.50562 0.98455 0.49706 0.0
C757 C 0.5148 0.98588 0.48056 0.0
C758 C 0.51941 0.96945 0.47166 0.0
H759 H 0.56802 0.9421 0.4753 0.0
H760 H 0.55664 0.95963 0.46457 0.0
H761 H 0.55301 0.95421 0.48844 0.0
H762 H 0.50168 0.93615 0.5013 0.0
H763 H 0.49376 0.96503 0.51706 0.0
H764 H 0.44399 0.29186 0.68134 0.0
H765 H 0.41598 0.29697 0.69609 0.0
H766 H 0.41594 0.24567 0.72552 0.0
H767 H 0.44402 0.24066 0.71117 0.0
H768 H 0.37981 0.27391 0.69471 0.0
H769 H 0.41564 0.28633 0.76888 0.0
H770 H 0.42868 0.28627 0.74855 0.0
H771 H 0.4175 0.26368 0.75685 0.0
C772 C 0.43804 0.28169 0.69099 0.0
C773 C 0.44639 0.26594 0.69518 0.0
C774 C 0.422 0.28462 0.69939 0.0
C775 C 0.41402 0.27191 0.71221 0.0
C776 C 0.42208 0.25595 0.71606 0.0
H777 H 0.30135 0.25777 0.74984 0.0
H778 H 0.32907 0.25496 0.73363 0.0
C779 C 0.43811 0.25305 0.70774 0.0
C780 C 0.39724 0.27522 0.72151 0.0
H781 H 0.3818 0.28139 0.76499 0.0
C782 C 0.38026 0.27566 0.71007 0.0
C783 C 0.39788 0.27782 0.74157 0.0
C784 C 0.41595 0.27871 0.75469 0.0
C785 C 0.36382 0.27812 0.71813 0.0
C786 C 0.36423 0.27986 0.73822 0.0
C787 C 0.38136 0.27988 0.74962 0.0
C788 C 0.34716 0.28169 0.74778 0.0
C789 C 0.34628 0.27917 0.70502 0.0
C790 C 0.34816 0.29731 0.76162 0.0
C791 C 0.33238 0.29878 0.7711 0.0
C792 C 0.31527 0.28467 0.76693 0.0
C793 C 0.31429 0.26898 0.7532 0.0
C794 C 0.3301 0.26745 0.74381 0.0
H795 H 0.34994 0.28354 0.6909 0.0
H796 H 0.33649 0.2646 0.70265 0.0
H797 H 0.33858 0.28967 0.71127 0.0
H798 H 0.36117 0.30842 0.76505 0.0
H799 H 0.33354 0.31103 0.78161 0.0
H800 H 0.02912 0.84087 0.56991 0.0
H801 H 0.02788 0.87129 0.55604 0.0
H802 H 0.99025 0.8843 0.59604 0.0
H803 H 0.99129 0.85372 0.61005 0.0
H804 H 0.9914 0.88286 0.54106 0.0
H805 H 0.0373 0.93335 0.59982 0.0
H806 H 0.03844 0.90806 0.59598 0.0
H807 H 0.01866 0.91452 0.60613 0.0
C808 C 0.02059 0.85019 0.57582 0.0
C809 C 0.01031 0.84493 0.5911 0.0
C810 C 0.01991 0.86753 0.56785 0.0
C811 C 0.00911 0.87999 0.57516 0.0
C812 C 0.99879 0.87486 0.59038 0.0
H813 H 0.99257 0.99305 0.54961 0.0
H814 H 0.9938 0.96258 0.56332 0.0
C815 C 0.99935 0.8574 0.59829 0.0
C816 C 0.00839 0.8982 0.5665 0.0
H817 H 0.024 0.94746 0.5741 0.0
C818 C 0.99851 0.89702 0.54822 0.0
C819 C 0.01769 0.91652 0.57599 0.0
C820 C 0.02875 0.91835 0.59554 0.0
C821 C 0.99738 0.91384 0.53922 0.0
C822 C 0.00688 0.93221 0.54861 0.0
C823 C 0.0168 0.93334 0.56691 0.0
C824 C 0.00619 0.95054 0.54 0.0
C825 C 0.98561 0.91178 0.52001 0.0
C826 C 0.01292 0.95395 0.52241 0.0
C827 C 0.01206 0.97133 0.51445 0.0
C828 C 0.00478 0.98561 0.52416 0.0
C829 C 0.9983 0.98227 0.54185 0.0
C830 C 0.999 0.96489 0.54971 0.0
H831 H 0.97522 0.89755 0.51727 0.0
H832 H 0.97768 0.9236 0.51883 0.0
H833 H 0.9952 0.91264 0.50872 0.0
H834 H 0.01894 0.94324 0.51491 0.0
H835 H 0.01728 0.97369 0.50085 0.0
H836 H 0.47027 0.75696 0.90307 0.0
H837 H 0.43925 0.75201 0.8834 0.0
H838 H 0.46053 0.80229 0.85453 0.0
H839 H 0.49127 0.80742 0.874 0.0
H840 H 0.425 0.80147 0.86976 0.0
H841 H 0.4256 0.73345 0.82501 0.0
H842 H 0.43105 0.73372 0.8504 0.0
H843 H 0.44716 0.74904 0.83742 0.0
C844 C 0.46832 0.76688 0.89247 0.0
C845 C 0.48318 0.7826 0.89012 0.0
C846 C 0.45068 0.76397 0.88119 0.0
C847 C 0.44775 0.7767 0.86745 0.0
C848 C 0.46258 0.79228 0.86504 0.0
H849 H 0.35889 0.80159 0.78922 0.0
H850 H 0.38913 0.79976 0.8074 0.0
C851 C 0.48013 0.79519 0.87621 0.0
C852 C 0.42902 0.77465 0.8561 0.0
H853 H 0.39858 0.74705 0.81948 0.0
C854 C 0.41916 0.78954 0.85882 0.0
C855 C 0.42151 0.75901 0.84194 0.0
C856 C 0.43186 0.7429 0.83834 0.0
C857 C 0.40201 0.78935 0.84756 0.0
C858 C 0.39477 0.77404 0.83298 0.0
C859 C 0.40434 0.75884 0.83057 0.0
C860 C 0.37723 0.77371 0.82018 0.0
C861 C 0.39172 0.80548 0.85145 0.0
C862 C 0.36085 0.75916 0.82072 0.0
C863 C 0.34364 0.76012 0.8103 0.0
C864 C 0.34266 0.77562 0.79917 0.0
C865 C 0.3593 0.78958 0.79781 0.0
C866 C 0.3765 0.78859 0.80822 0.0
H867 H 0.39653 0.81321 0.8659 0.0
H868 H 0.39469 0.81625 0.84091 0.0
H869 H 0.37606 0.79973 0.85008 0.0
H870 H 0.36121 0.74752 0.8298 0.0
H871 H 0.33099 0.74911 0.81146 0.0
H872 H 0.49995 0.25313 0.0481 0.0
H873 H 0.49554 0.22328 0.02658 0.0
H874 H 0.48774 0.18908 0.07432 0.0
H875 H 0.49089 0.21853 0.09543 0.0
H876 H 0.51541 0.19817 0.02409 0.0
H877 H 0.4458 0.15767 0.0385 0.0
H878 H 0.45433 0.18311 0.04671 0.0
H879 H 0.4603 0.16453 0.06096 0.0
C880 C 0.49691 0.23917 0.05385 0.0
C881 C 0.49556 0.23811 0.07338 0.0
C882 C 0.4944 0.22214 0.04157 0.0
C883 C 0.49078 0.20382 0.04868 0.0
C884 C 0.48964 0.20288 0.06825 0.0
H885 H 0.53402 0.10614 0.02386 0.0
H886 H 0.52804 0.13874 0.02734 0.0
C887 C 0.49166 0.21979 0.08039 0.0
C888 C 0.49 0.18571 0.03627 0.0
H889 H 0.4685 0.13754 0.03067 0.0
C890 C 0.50485 0.18501 0.02513 0.0
C891 C 0.47587 0.16858 0.03684 0.0
C892 C 0.45808 0.16864 0.04622 0.0
C893 C 0.50691 0.16735 0.0161 0.0
C894 C 0.49439 0.14982 0.01911 0.0
C895 C 0.47852 0.15081 0.02871 0.0
C896 C 0.49855 0.13036 0.01447 0.0
C897 C 0.52269 0.16779 0.00369 0.0
C898 C 0.48391 0.11448 0.00651 0.0
C899 C 0.48715 0.09561 0.00528 0.0
C900 C 0.50521 0.09239 0.01152 0.0
C901 C 0.52007 0.1083 0.01859 0.0
C902 C 0.51668 0.12703 0.02039 0.0
H903 H 0.52469 0.18109 0.996 0.0
H904 H 0.5363 0.16835 0.01278 0.0
H905 H 0.51974 0.15485 0.99306 0.0
H906 H 0.46977 0.11657 0.0019 0.0
H907 H 0.47546 0.08351 0.99981 0.0
H908 H 0.08647 0.30974 0.39889 0.0
H909 H 0.11281 0.31696 0.37946 0.0
H910 H 0.09031 0.26254 0.34485 0.0
H911 H 0.06407 0.25531 0.36389 0.0
H912 H 0.13957 0.29449 0.37486 0.0
H913 H 0.1008 0.30108 0.30503 0.0
H914 H 0.09041 0.30265 0.32702 0.0
H915 H 0.09041 0.27929 0.31501 0.0
C916 C 0.08706 0.29944 0.387 0.0
C917 C 0.07323 0.28196 0.38293 0.0
C918 C 0.10206 0.3036 0.37592 0.0
C919 C 0.10326 0.29044 0.36052 0.0
C920 C 0.08937 0.27311 0.35636 0.0
H921 H 0.19507 0.25841 0.31122 0.0
H922 H 0.16819 0.26245 0.32826 0.0
C923 C 0.07447 0.26893 0.36741 0.0
C924 C 0.11984 0.29374 0.3497 0.0
H925 H 0.13168 0.29309 0.30439 0.0
C926 C 0.13793 0.29457 0.35949 0.0
C927 C 0.11768 0.29408 0.32969 0.0
C928 C 0.09879 0.29444 0.3186 0.0
C929 C 0.15373 0.29447 0.34964 0.0
C930 C 0.15123 0.29323 0.32952 0.0
C931 C 0.13343 0.29369 0.31981 0.0
C932 C 0.16673 0.29044 0.31836 0.0
C933 C 0.17288 0.2953 0.36083 0.0
C934 C 0.17421 0.30448 0.30657 0.0
C935 C 0.18946 0.30212 0.29674 0.0
C936 C 0.19729 0.28565 0.2985 0.0
C937 C 0.18931 0.27127 0.30971 0.0
C938 C 0.17408 0.27363 0.31954 0.0
H939 H 0.17359 0.30174 0.37572 0.0
H940 H 0.17525 0.28031 0.36132 0.0
H941 H 0.18459 0.30395 0.35404 0.0
H942 H 0.16857 0.31745 0.30536 0.0
H943 H 0.19541 0.31334 0.28809 0.0
H944 H 0.93768 0.0679 0.21303 0.0
H945 H 0.95625 0.06941 0.18619 0.0
H946 H 0.90719 0.07537 0.14883 0.0
H947 H 0.88832 0.07361 0.17564 0.0
H948 H 0.92386 0.04653 0.13526 0.0
H949 H 0.97898 0.11414 0.15668 0.0
H950 H 0.97709 0.09776 0.17492 0.0
H951 H 0.95728 0.10843 0.16764 0.0
C952 C 0.93085 0.06981 0.19918 0.0
C953 C 0.91146 0.0706 0.19651 0.0
C954 C 0.94157 0.07082 0.18385 0.0
C955 C 0.93321 0.07279 0.16555 0.0
C956 C 0.91397 0.07399 0.16287 0.0
H957 H 0.99333 0.0819 0.0642 0.0
H958 H 0.97578 0.08922 0.09054 0.0
C959 C 0.90321 0.07299 0.17822 0.0
C960 C 0.94411 0.07186 0.14902 0.0
H961 H 0.98575 0.09202 0.13228 0.0
C962 C 0.93727 0.05663 0.13451 0.0
C963 C 0.96153 0.08514 0.14793 0.0
C964 C 0.96908 0.10241 0.16253 0.0
C965 C 0.94773 0.05386 0.11935 0.0
C966 C 0.96564 0.06648 0.11884 0.0
C967 C 0.97214 0.0822 0.13288 0.0
C968 C 0.9779 0.06314 0.10401 0.0
C969 C 0.93962 0.03735 0.10403 0.0
C970 C 0.98543 0.04639 0.10327 0.0
C971 C 0.99552 0.04218 0.08833 0.0
C972 C 0.99832 0.05469 0.07384 0.0
C973 C 0.99153 0.07197 0.07515 0.0
C974 C 0.98143 0.07617 0.09015 0.0
H975 H 0.92402 0.032 0.104 0.0
H976 H 0.94235 0.04192 0.08974 0.0
H977 H 0.94662 0.02505 0.10659 0.0
H978 H 0.98307 0.03629 0.11401 0.0
H979 H 1.00059 0.02879 0.08787 0.0
H980 H 0.31336 0.70283 0.44769 0.0
H981 H 0.31023 0.71719 0.41732 0.0
H982 H 0.26524 0.7428 0.43581 0.0
H983 H 0.26845 0.72885 0.46613 0.0
H984 H 0.27879 0.71204 0.38939 0.0
H985 H 0.3011 0.78928 0.41911 0.0
H986 H 0.30492 0.76953 0.43273 0.0
H987 H 0.2819 0.77564 0.42999 0.0
C988 C 0.30295 0.7117 0.44536 0.0
C989 C 0.29129 0.71482 0.45946 0.0
C990 C 0.3011 0.71982 0.42795 0.0
C991 C 0.28766 0.73131 0.42433 0.0
C992 C 0.27598 0.73434 0.43836 0.0
H993 H 0.24428 0.765 0.31429 0.0
H994 H 0.24835 0.74871 0.34342 0.0
C995 C 0.27782 0.72628 0.45572 0.0
C996 C 0.28561 0.73998 0.40586 0.0
H997 H 0.28698 0.78328 0.38685 0.0
C998 C 0.28068 0.72762 0.38881 0.0
C999 C 0.28823 0.76033 0.40504 0.0
C1000 C 0.29451 0.7745 0.42266 0.0
C1001 C 0.278 0.73504 0.37104 0.0
C1002 C 0.28003 0.75536 0.37031 0.0
C1003 C 0.28523 0.76769 0.38736 0.0
C1004 C 0.27753 0.76435 0.35207 0.0
C1005 C 0.27338 0.72107 0.3532 0.0
C1006 C 0.29239 0.77878 0.3473 0.0
C1007 C 0.29001 0.78815 0.33081 0.0
C1008 C 0.27274 0.7833 0.31863 0.0
C1009 C 0.25786 0.76879 0.32326 0.0
C1010 C 0.26021 0.75944 0.33988 0.0
H1011 H 0.27735 0.707 0.35565 0.0
H1012 H 0.25781 0.71801 0.34857 0.0
H1013 H 0.28087 0.72736 0.34145 0.0
H1014 H 0.30587 0.78289 0.35643 0.0
H1015 H 0.30176 0.79926 0.3276 0.0
H1016 H 0.60574 0.97505 0.70614 0.0
H1017 H 0.5918 0.97769 0.6738 0.0
H1018 H 0.5471 1.00095 0.69612 0.0
H1019 H 0.56086 0.9983 0.72862 0.0
H1020 H 0.5348 0.973 0.66263 0.0
H1021 H 0.5966 0.03181 0.65321 0.0
H1022 H 0.60252 0.00976 0.66054 0.0
H1023 H 0.5918 0.02416 0.67627 0.0
C1024 C 0.59278 0.98047 0.70424 0.0
C1025 C 0.58455 0.98662 0.72009 0.0
C1026 C 0.5849 0.98207 0.6857 0.0
C1027 C 0.56863 0.98987 0.68255 0.0
C1028 C 0.55974 0.99501 0.69823 0.0
H1029 H 0.5041 0.02221 0.58385 0.0
H1030 H 0.51483 0.01338 0.61515 0.0
C1031 C 0.56764 0.99346 0.71682 0.0
C1032 C 0.56147 0.99353 0.663 0.0
H1033 H 0.57361 0.02068 0.62641 0.0
C1034 C 0.54325 0.98343 0.65469 0.0
C1035 C 0.57251 0.00715 0.65266 0.0
C1036 C 0.59189 0.019 0.66112 0.0
C1037 C 0.53592 0.98634 0.63619 0.0
C1038 C 0.54694 1.00006 0.62588 0.0
C1039 C 0.56517 0.01012 0.63423 0.0
C1040 C 0.53983 0.00449 0.60655 0.0
C1041 C 0.51662 0.97436 0.62772 0.0
C1042 C 0.55046 0.00283 0.59126 0.0
C1043 C 0.54446 0.00808 0.57333 0.0
C1044 C 0.52771 0.01519 0.57028 0.0
C1045 C 0.51699 0.01666 0.58558 0.0
C1046 C 0.52305 0.01148 0.60352 0.0
H1047 H 0.51271 0.96081 0.6348 0.0
H1048 H 0.50566 0.98298 0.62971 0.0
H1049 H 0.51624 0.97039 0.61223 0.0
H1050 H 0.56351 0.99758 0.59323 0.0
H1051 H 0.5531 0.00674 0.56193 0.0
H1052 H 0.25165 0.34854 0.99805 0.0
H1053 H 0.2498 0.33319 0.96584 0.0
H1054 H 0.21772 0.37371 0.94422 0.0
H1055 H 0.21973 0.38948 0.97659 0.0
H1056 H 0.219 0.31601 0.93773 0.0
H1057 H 0.26548 0.38216 0.91597 0.0
H1058 H 0.26255 0.37893 0.94056 0.0
H1059 H 0.24401 0.38547 0.92518 0.0
C1060 C 0.24404 0.35413 0.98651 0.0
C1061 C 0.23604 0.37039 0.98982 0.0
C1062 C 0.24293 0.34527 0.96811 0.0
C1063 C 0.23386 0.35249 0.95268 0.0
C1064 C 0.22503 0.36813 0.95597 0.0
H1065 H 0.22378 0.2965 0.83644 0.0
H1066 H 0.21583 0.30927 0.86687 0.0
C1067 C 0.22613 0.37706 0.97445 0.0
C1068 C 0.23493 0.34433 0.93316 0.0
H1069 H 0.25643 0.35481 0.89347 0.0
C1070 C 0.22698 0.3245 0.92792 0.0
C1071 C 0.24559 0.35546 0.92059 0.0
C1072 C 0.25505 0.37665 0.92582 0.0
C1073 C 0.22977 0.31537 0.91053 0.0
C1074 C 0.24061 0.32647 0.89808 0.0
C1075 C 0.24814 0.34639 0.90312 0.0
C1076 C 0.24512 0.31762 0.8801 0.0
C1077 C 0.22177 0.29381 0.90596 0.0
C1078 C 0.26421 0.31819 0.87748 0.0
C1079 C 0.26878 0.31102 0.86013 0.0
C1080 C 0.25432 0.30322 0.84514 0.0
C1081 C 0.23518 0.30231 0.84787 0.0
C1082 C 0.23062 0.30953 0.86523 0.0
H1083 H 0.2173 0.28668 0.91871 0.0
H1084 H 0.20909 0.29146 0.89509 0.0
H1085 H 0.23243 0.28659 0.90002 0.0
H1086 H 0.27558 0.32443 0.88882 0.0
H1087 H 0.28363 0.31193 0.85832 0.0
H1088 H 0.93726 0.04672 0.29786 0.0
H1089 H 0.95085 0.04993 0.3311 0.0
H1090 H 0.91846 0.09291 0.34437 0.0
H1091 H 0.9043 0.0894 0.31095 0.0
H1092 H 0.97208 0.08061 0.35498 0.0
H1093 H 0.90242 0.05283 0.3812 0.0
H1094 H 0.90526 0.05128 0.35622 0.0
H1095 H 0.90385 0.07404 0.36843 0.0
C1096 C 0.93306 0.05696 0.30777 0.0
C1097 C 0.91954 0.06768 0.30178 0.0
C1098 C 0.94089 0.05881 0.3268 0.0
C1099 C 0.93544 0.07141 0.34029 0.0
C1100 C 0.92255 0.08278 0.33426 0.0
H1101 H 0.97198 0.07846 0.46381 0.0
H1102 H 0.9596 0.08723 0.43278 0.0
C1103 C 0.91459 0.08086 0.31515 0.0
C1104 C 0.94295 0.07191 0.36064 0.0
H1105 H 0.92975 0.05954 0.40376 0.0
C1106 C 0.96281 0.07624 0.36569 0.0
C1107 C 0.93083 0.06617 0.37462 0.0
C1108 C 0.90941 0.06065 0.36991 0.0
C1109 C 0.97087 0.07434 0.38413 0.0
C1110 C 0.95876 0.06792 0.39784 0.0
C1111 C 0.93894 0.06448 0.39314 0.0
C1112 C 0.96642 0.06302 0.41657 0.0
C1113 C 0.99227 0.07871 0.38876 0.0
C1114 C 0.97411 0.04641 0.41762 0.0
C1115 C 0.98096 0.04128 0.43524 0.0
C1116 C 0.98031 0.05274 0.45207 0.0
C1117 C 0.97263 0.0694 0.45101 0.0
C1118 C 0.96559 0.07443 0.43336 0.0
H1119 H 0.9995 0.08741 0.37813 0.0
H1120 H 0.99674 0.08674 0.40312 0.0
H1121 H 0.99715 0.06482 0.38882 0.0
H1122 H 0.97466 0.03733 0.4048 0.0
H1123 H 0.98681 0.02838 0.43566 0.0
H1124 H 0.30562 0.67998 0.58107 0.0
H1125 H 0.30244 0.6955 0.61197 0.0
H1126 H 0.30603 0.75044 0.58808 0.0
H1127 H 0.30799 0.73457 0.55666 0.0
H1128 H 0.32247 0.72152 0.63637 0.0
H1129 H 0.25889 0.74928 0.61151 0.0
H1130 H 0.26866 0.73337 0.5963 0.0
H1131 H 0.27909 0.7591 0.59985 0.0
C1132 C 0.30586 0.69541 0.58235 0.0
C1133 C 0.30693 0.70598 0.56628 0.0
C1134 C 0.30401 0.70431 0.60012 0.0
C1135 C 0.30347 0.72412 0.60245 0.0
C1136 C 0.30565 0.735 0.58664 0.0
H1137 H 0.31208 0.77921 0.71983 0.0
H1138 H 0.31921 0.76895 0.68819 0.0
C1139 C 0.30703 0.72596 0.56868 0.0
C1140 C 0.30044 0.73303 0.62141 0.0
H1141 H 0.27254 0.75916 0.64342 0.0
C1142 C 0.3115 0.72971 0.63786 0.0
C1143 C 0.28592 0.74351 0.62358 0.0
C1144 C 0.27233 0.74635 0.6069 0.0
C1145 C 0.30836 0.73622 0.65624 0.0
C1146 C 0.29433 0.74731 0.65837 0.0
C1147 C 0.28342 0.75085 0.64192 0.0
C1148 C 0.29006 0.7546 0.67747 0.0
C1149 C 0.31957 0.7303 0.67313 0.0
C1150 C 0.27117 0.75098 0.68187 0.0
C1151 C 0.267 0.75746 0.69975 0.0
C1152 C 0.28164 0.76747 0.71381 0.0
C1153 C 0.3005 0.77133 0.70938 0.0
C1154 C 0.30462 0.76527 0.69131 0.0
H1155 H 0.32487 0.71703 0.66927 0.0
H1156 H 0.33219 0.74217 0.67824 0.0
H1157 H 0.31083 0.7274 0.685 0.0
H1158 H 0.25961 0.74284 0.67154 0.0
H1159 H 0.25233 0.75414 0.70274 0.0
H1160 H 0.56611 0.03084 0.81939 0.0
H1161 H 0.55384 0.03515 0.84985 0.0
H1162 H 0.57341 0.98505 0.86804 0.0
H1163 H 0.58591 0.98063 0.83749 0.0
H1164 H 0.53402 0.98773 0.87511 0.0
H1165 H 0.58924 0.05442 0.9017 0.0
H1166 H 0.57727 0.05428 0.87813 0.0
H1167 H 0.59224 0.03737 0.88261 0.0
C1168 C 0.56773 0.02062 0.82978 0.0
C1169 C 0.57706 0.0054 0.82598 0.0
C1170 C 0.56078 0.02319 0.84725 0.0
C1171 C 0.56293 0.01058 0.86131 0.0
C1172 C 0.5717 0.99501 0.85741 0.0
H1173 H 0.54568 0.02655 0.98102 0.0
H1174 H 0.55874 0.02122 0.95102 0.0
C1175 C 0.57881 0.9925 0.83994 0.0
C1176 C 0.55611 0.01386 0.88009 0.0
H1177 H 0.5636 0.04606 0.91999 0.0
C1178 C 0.54052 1.00043 0.88496 0.0
C1179 C 0.56471 0.03036 0.893 0.0
C1180 C 0.5819 0.0449 0.88876 0.0
C1181 C 0.53302 0.00332 0.90221 0.0
C1182 C 0.54128 0.02012 0.91486 0.0
C1183 C 0.55717 0.03329 0.9102 0.0
C1184 C 0.53363 0.02419 0.93304 0.0
C1185 C 0.51638 0.98831 0.90684 0.0
C1186 C 0.51535 0.02812 0.93293 0.0
C1187 C 0.50794 0.03139 0.95005 0.0
C1188 C 0.51866 0.03074 0.96762 0.0
C1189 C 0.53712 0.02724 0.96772 0.0
C1190 C 0.54458 0.02412 0.95059 0.0
H1191 H 0.51434 0.97436 0.89774 0.0
H1192 H 0.51842 0.98543 0.92202 0.0
H1193 H 0.50316 0.99389 0.90445 0.0
H1194 H 0.50677 0.02854 0.91956 0.0
H1195 H 0.49369 0.03408 0.94952 0.0
H1196 H 0.21705 0.40102 0.10981 0.0
H1197 H 0.21242 0.38051 0.13604 0.0
H1198 H 0.21976 0.33137 0.10012 0.0
H1199 H 0.22417 0.35157 0.07379 0.0
H1200 H 0.19163 0.32237 0.12714 0.0
H1201 H 0.26282 0.36633 0.15904 0.0
H1202 H 0.2447 0.37969 0.15337 0.0
H1203 H 0.25352 0.36705 0.13457 0.0
C1204 C 0.21724 0.38575 0.10735 0.0
C1205 C 0.22138 0.37802 0.08985 0.0
C1206 C 0.21457 0.37407 0.12234 0.0
C1207 C 0.21603 0.35456 0.12001 0.0
C1208 C 0.2186 0.34642 0.10215 0.0
H1209 H 0.2623 0.28742 0.19936 0.0
H1210 H 0.25092 0.3004 0.17049 0.0
C1211 C 0.22126 0.35805 0.08717 0.0
C1212 C 0.21776 0.34342 0.13666 0.0
H1213 H 0.24861 0.34079 0.17566 0.0
C1214 C 0.20396 0.32643 0.13789 0.0
C1215 C 0.23406 0.34867 0.1504 0.0
C1216 C 0.24973 0.36633 0.14931 0.0
C1217 C 0.20614 0.31447 0.15259 0.0
C1218 C 0.2225 0.31973 0.16621 0.0
C1219 C 0.23611 0.33683 0.16508 0.0
C1220 C 0.22633 0.30771 0.18168 0.0
C1221 C 0.19134 0.29605 0.15323 0.0
C1222 C 0.21581 0.30688 0.19722 0.0
C1223 C 0.22226 0.29944 0.21379 0.0
C1224 C 0.23945 0.29296 0.21505 0.0
C1225 C 0.24911 0.29246 0.1989 0.0
C1226 C 0.24261 0.29981 0.18237 0.0
H1227 H 0.18097 0.29258 0.14008 0.0
H1228 H 0.19829 0.28361 0.15519 0.0
H1229 H 0.18339 0.29775 0.16558 0.0
H1230 H 0.20336 0.31318 0.19701 0.0
H1231 H 0.21453 0.30009 0.22601 0.0
H1232 H 0.19712 0.96699 0.0551 0.0
H1233 H 0.17101 0.98403 0.05258 0.0
H1234 H 0.13479 0.93399 0.01891 0.0
H1235 H 0.16135 0.91727 0.02053 0.0
H1236 H 0.12819 0.96443 0.00461 0.0
H1237 H 0.12723 0.97845 0.08192 0.0
H1238 H 0.15022 0.98909 0.07562 0.0
H1239 H 0.14158 0.96302 0.07227 0.0
C1240 C 0.18358 0.95958 0.04718 0.0
C1241 C 0.1813 0.94069 0.03814 0.0
C1242 C 0.16854 0.96929 0.0459 0.0
C1243 C 0.15058 0.96017 0.03607 0.0
C1244 C 0.14838 0.94138 0.02675 0.0
H1245 H 0.05253 0.01319 0.05161 0.0
H1246 H 0.07522 0.99178 0.05286 0.0
C1247 C 0.16359 0.93179 0.02768 0.0
C1248 C 0.13437 0.97045 0.0351 0.0
H1249 H 0.11096 0.99754 0.06214 0.0
C1250 C 0.12433 0.97149 0.01725 0.0
C1251 C 0.1288 0.97932 0.05155 0.0
C1252 C 0.13739 0.97722 0.07141 0.0
C1253 C 0.10947 0.98159 0.01534 0.0
C1254 C 0.10494 0.99174 0.03164 0.0
C1255 C 0.11454 0.99015 0.04954 0.0
C1256 C 0.09056 0.00427 0.03045 0.0
C1257 C 0.09855 0.98085 0.99585 0.0
C1258 C 0.09159 0.0187 0.01771 0.0
C1259 C 0.07819 0.03043 0.01658 0.0
C1260 C 0.06364 0.02838 0.02847 0.0
C1261 C 0.06303 0.01454 0.04175 0.0
C1262 C 0.07623 0.0025 0.04264 0.0
H1263 H 0.09877 0.96732 0.98692 0.0
H1264 H 0.08347 0.98157 0.99673 0.0
H1265 H 0.10539 0.99332 0.98849 0.0
H1266 H 0.10287 0.02106 0.00868 0.0
H1267 H 0.07925 0.04114 0.00634 0.0
H1268 H 0.71739 0.59214 0.9793 0.0
H1269 H 0.68354 0.57638 0.9764 0.0
H1270 H 0.66987 0.63221 0.98914 0.0
H1271 H 0.70348 0.64806 0.99091 0.0
H1272 H 0.66322 0.57384 0.00338 0.0
H1273 H 0.62715 0.61018 0.94913 0.0
H1274 H 0.65271 0.61303 0.95238 0.0
H1275 H 0.64137 0.62807 0.96698 0.0
C1276 C 0.70706 0.60107 0.98092 0.0
C1277 C 0.71303 0.62131 0.98529 0.0
C1278 C 0.68773 0.59207 0.9793 0.0
C1279 C 0.67403 0.60308 0.98236 0.0
C1280 C 0.67997 0.6234 0.98611 0.0
H1281 H 0.57425 0.56496 0.03651 0.0
H1282 H 0.606 0.57676 0.02753 0.0
C1283 C 0.69926 0.63246 0.98726 0.0
C1284 C 0.65405 0.59318 0.98402 0.0
H1285 H 0.6076 0.59555 0.97237 0.0
C1286 C 0.65107 0.57838 0.99629 0.0
C1287 C 0.63807 0.59877 0.97458 0.0
C1288 C 0.64001 0.61323 0.95988 0.0
C1289 C 0.63272 0.56964 1.00001 0.0
C1290 C 0.6169 0.57646 0.9919 0.0
C1291 C 0.61974 0.59059 0.97892 0.0
C1292 C 0.59746 0.56959 0.99722 0.0
C1293 C 0.63056 0.55315 0.01257 0.0
C1294 C 0.58186 0.56245 0.98314 0.0
C1295 C 0.56356 0.55613 0.98825 0.0
C1296 C 0.56058 0.55667 0.00753 0.0
C1297 C 0.57616 0.56403 0.02156 0.0
C1298 C 0.59435 0.57066 0.01644 0.0
H1299 H 0.64229 0.54527 0.01178 0.0
H1300 H 0.63126 0.55912 0.0276 0.0
H1301 H 0.61676 0.54255 0.00854 0.0
H1302 H 0.58388 0.56163 0.96821 0.0
H1303 H 0.5518 0.55057 0.97711 0.0
H1304 H 0.6767 0.45035 0.30222 0.0
H1305 H 0.69208 0.42247 0.30264 0.0
H1306 H 0.72156 0.44199 0.25546 0.0
H1307 H 0.70642 0.46979 0.25495 0.0
H1308 H 0.69104 0.3926 0.27177 0.0
H1309 H 0.76429 0.43545 0.29671 0.0
H1310 H 0.7433 0.4451 0.29903 0.0
H1311 H 0.75251 0.44398 0.2765 0.0
C1312 C 0.68654 0.44875 0.29201 0.0
C1313 C 0.69042 0.46236 0.27862 0.0
C1314 C 0.69524 0.43279 0.29222 0.0
C1315 C 0.70809 0.4303 0.2792 0.0
C1316 C 0.71189 0.4438 0.2658 0.0
H1317 H 0.75227 0.32902 0.24553 0.0
H1318 H 0.735 0.35544 0.24695 0.0
C1319 C 0.70317 0.45966 0.26551 0.0
C1320 C 0.71755 0.4136 0.27946 0.0
H1321 H 0.76131 0.40231 0.28556 0.0
C1322 C 0.70639 0.39467 0.27489 0.0
C1323 C 0.73755 0.41635 0.28368 0.0
C1324 C 0.75014 0.43629 0.28943 0.0
C1325 C 0.71478 0.37841 0.27404 0.0
C1326 C 0.73486 0.38126 0.27767 0.0
C1327 C 0.74594 0.40017 0.28262 0.0
C1328 C 0.74474 0.36485 0.27675 0.0
C1329 C 0.70208 0.35835 0.26948 0.0
C1330 C 0.75628 0.36164 0.29286 0.0
C1331 C 0.76613 0.34663 0.29203 0.0
C1332 C 0.76462 0.33454 0.27507 0.0
C1333 C 0.75327 0.33785 0.25888 0.0
C1334 C 0.74341 0.35292 0.2597 0.0
H1335 H 0.68713 0.35825 0.27197 0.0
H1336 H 0.702 0.35345 0.25425 0.0
H1337 H 0.70738 0.3477 0.27819 0.0
H1338 H 0.7576 0.37073 0.30612 0.0
H1339 H 0.77478 0.34436 0.30474 0.0
H1340 H 0.79318 0.40712 0.52656 0.0
H1341 H 0.82465 0.42715 0.52471 0.0
H1342 H 0.80371 0.47901 0.53701 0.0
H1343 H 0.7721 0.45896 0.5394 0.0
H1344 H 0.8357 0.45398 0.50084 0.0
H1345 H 0.85102 0.48813 0.57544 0.0
H1346 H 0.83137 0.46772 0.56775 0.0
H1347 H 0.8295 0.49187 0.56266 0.0
C1348 C 0.79521 0.42278 0.52895 0.0
C1349 C 0.78008 0.43141 0.53321 0.0
C1350 C 0.81325 0.43423 0.52787 0.0
C1351 C 0.81664 0.45458 0.53095 0.0
C1352 C 0.80155 0.46332 0.53499 0.0
H1353 H 0.92173 0.52517 0.49848 0.0
H1354 H 0.88809 0.51123 0.50084 0.0
C1355 C 0.78346 0.45183 0.53624 0.0
C1356 C 0.83595 0.46641 0.52951 0.0
H1357 H 0.87388 0.49871 0.55477 0.0
C1358 C 0.84402 0.46383 0.5126 0.0
C1359 C 0.84687 0.4791 0.54495 0.0
C1360 C 0.83937 0.48179 0.56379 0.0
C1361 C 0.86279 0.47329 0.51079 0.0
C1362 C 0.87364 0.48617 0.52614 0.0
C1363 C 0.86549 0.48897 0.54296 0.0
C1364 C 0.89385 0.49593 0.52541 0.0
C1365 C 0.87101 0.46877 0.49272 0.0
C1366 C 0.90822 0.49268 0.53891 0.0
C1367 C 0.92739 0.50087 0.53775 0.0
C1368 C 0.93252 0.51241 0.52303 0.0
C1369 C 0.91814 0.51615 0.50985 0.0
C1370 C 0.89894 0.5081 0.51112 0.0
H1371 H 0.86271 0.45503 0.4846 0.0
H1372 H 0.87065 0.48071 0.48345 0.0
H1373 H 0.88606 0.4675 0.49586 0.0
H1374 H 0.90464 0.48342 0.55011 0.0
H1375 H 0.93821 0.49783 0.54815 0.0
H1376 H 0.34543 0.11676 0.21698 0.0
H1377 H 0.32784 0.14246 0.22115 0.0
H1378 H 0.3628 0.16416 0.27452 0.0
H1379 H 0.38063 0.13848 0.27039 0.0
H1380 H 0.30683 0.14872 0.2509 0.0
H1381 H 0.36446 0.21346 0.24641 0.0
H1382 H 0.36617 0.18905 0.23853 0.0
H1383 H 0.37025 0.19734 0.26347 0.0
C1384 C 0.34952 0.12707 0.22956 0.0
C1385 C 0.3645 0.12555 0.24335 0.0
C1386 C 0.33941 0.14176 0.23192 0.0
C1387 C 0.34411 0.15538 0.24804 0.0
C1388 C 0.35913 0.15403 0.2618 0.0
H1389 H 0.27196 0.22812 0.29188 0.0
H1390 H 0.29137 0.2041 0.28669 0.0
C1391 C 0.36925 0.13927 0.25947 0.0
C1392 C 0.33266 0.17039 0.25074 0.0
H1393 H 0.33533 0.21947 0.25543 0.0
C1394 C 0.31306 0.16418 0.25187 0.0
C1395 C 0.34075 0.19057 0.25177 0.0
C1396 C 0.36152 0.19808 0.24982 0.0
C1397 C 0.30141 0.17758 0.25428 0.0
C1398 C 0.30958 0.19776 0.25584 0.0
C1399 C 0.32911 0.204 0.25439 0.0
C1400 C 0.29804 0.21257 0.25906 0.0
C1401 C 0.28036 0.17 0.25488 0.0
C1402 C 0.29557 0.22555 0.24539 0.0
C1403 C 0.2844 0.23926 0.24831 0.0
C1404 C 0.27577 0.24041 0.26508 0.0
C1405 C 0.27836 0.22749 0.27877 0.0
C1406 C 0.28944 0.21376 0.27582 0.0
H1407 H 0.27558 0.15456 0.24883 0.0
H1408 H 0.27735 0.17089 0.2699 0.0
H1409 H 0.27182 0.17887 0.24691 0.0
H1410 H 0.30206 0.22489 0.23234 0.0
H1411 H 0.28236 0.24881 0.23738 0.0
H1412 H 0.32862 0.13143 0.48961 0.0
H1413 H 0.35489 0.11449 0.4936 0.0
H1414 H 0.32512 0.07844 0.5323 0.0
H1415 H 0.29904 0.0954 0.52865 0.0
H1416 H 0.36221 0.09523 0.5466 0.0
H1417 H 0.35799 0.0596 0.47347 0.0
H1418 H 0.35931 0.08534 0.47442 0.0
H1419 H 0.33886 0.06958 0.4816 0.0
C1420 C 0.32759 0.11973 0.49877 0.0
C1421 C 0.31181 0.11477 0.50884 0.0
C1422 C 0.34254 0.11002 0.50097 0.0
C1423 C 0.34182 0.0951 0.5131 0.0
C1424 C 0.32591 0.08989 0.52285 0.0
H1425 H 0.42387 0.02056 0.51985 0.0
H1426 H 0.39405 0.0321 0.51794 0.0
C1427 C 0.31103 0.09961 0.52073 0.0
C1428 C 0.35811 0.0857 0.51661 0.0
H1429 H 0.38591 0.05971 0.49464 0.0
C1430 C 0.36732 0.08733 0.53528 0.0
C1431 C 0.36454 0.07519 0.50185 0.0
C1432 C 0.35457 0.07213 0.48174 0.0
C1433 C 0.38315 0.07916 0.53951 0.0
C1434 C 0.39009 0.0694 0.5246 0.0
C1435 C 0.38057 0.06729 0.50603 0.0
C1436 C 0.40771 0.06201 0.52775 0.0
C1437 C 0.39225 0.081 0.55989 0.0
C1438 C 0.42515 0.07499 0.53413 0.0
C1439 C 0.4421 0.06843 0.53531 0.0
C1440 C 0.44185 0.04884 0.52996 0.0
C1441 C 0.42437 0.03572 0.52413 0.0
C1442 C 0.40739 0.04229 0.52297 0.0
H1443 H 0.38212 0.0835 0.57005 0.0
H1444 H 0.39749 0.06777 0.56318 0.0
H1445 H 0.40459 0.09364 0.5622 0.0
H1446 H 0.42575 0.09033 0.53752 0.0
H1447 H 0.45544 0.07884 0.53975 0.0
H1448 H 0.70625 0.56031 0.27114 0.0
H1449 H 0.72328 0.59406 0.27046 0.0
H1450 H 0.69266 0.61245 0.31484 0.0
H1451 H 0.67544 0.57881 0.31557 0.0
H1452 H 0.70171 0.62488 0.263 0.0
H1453 H 0.75051 0.6405 0.33097 0.0
H1454 H 0.74132 0.6161 0.31955 0.0
H1455 H 0.72626 0.62822 0.33228 0.0
C1456 C 0.7034 0.57145 0.28104 0.0
C1457 C 0.68942 0.56684 0.29337 0.0
C1458 C 0.71312 0.59073 0.28059 0.0
C1459 C 0.70929 0.60569 0.29267 0.0
C1460 C 0.69597 0.60106 0.30556 0.0
H1461 H 0.73908 0.73135 0.30712 0.0
H1462 H 0.72884 0.69662 0.31047 0.0
C1463 C 0.6861 0.58183 0.3059 0.0
C1464 C 0.71778 0.6263 0.29055 0.0
H1465 H 0.74753 0.66736 0.3136 0.0
C1466 C 0.71188 0.63416 0.27396 0.0
C1467 C 0.73082 0.63834 0.30499 0.0
C1468 C 0.73776 0.63042 0.32294 0.0
C1469 C 0.71829 0.65393 0.27159 0.0
C1470 C 0.73147 0.66604 0.28599 0.0
C1471 C 0.7375 0.65808 0.30254 0.0
C1472 C 0.73868 0.68711 0.28436 0.0
C1473 C 0.7103 0.66176 0.25401 0.0
C1474 C 0.74804 0.69336 0.2688 0.0
C1475 C 0.75371 0.71321 0.26673 0.0
C1476 C 0.75045 0.72723 0.28037 0.0
C1477 C 0.74179 0.72095 0.29634 0.0
C1478 C 0.73593 0.70108 0.29829 0.0
H1479 H 0.69664 0.65214 0.24729 0.0
H1480 H 0.7078 0.67655 0.25739 0.0
H1481 H 0.72061 0.66264 0.2434 0.0
H1482 H 0.75081 0.68287 0.25815 0.0
H1483 H 0.76058 0.71755 0.25439 0.0
H1484 H 0.84208 0.52261 0.73634 0.0
H1485 H 0.82213 0.49026 0.73794 0.0
H1486 H 0.86518 0.47756 0.77896 0.0
H1487 H 0.88537 0.50953 0.77706 0.0
H1488 H 0.8536 0.44881 0.75099 0.0
H1489 H 0.79034 0.46867 0.77826 0.0
H1490 H 0.7963 0.4794 0.75691 0.0
H1491 H 0.81258 0.48609 0.77849 0.0
C1492 C 0.8472 0.51299 0.74585 0.0
C1493 C 0.86534 0.51864 0.75653 0.0
C1494 C 0.83573 0.49455 0.74684 0.0
C1495 C 0.84205 0.48156 0.75875 0.0
C1496 C 0.85999 0.48733 0.76968 0.0
H1497 H 0.78083 0.37319 0.79331 0.0
H1498 H 0.79572 0.40726 0.79055 0.0
C1499 C 0.87152 0.50564 0.76856 0.0
C1500 C 0.83063 0.46149 0.75907 0.0
H1501 H 0.78758 0.43525 0.76802 0.0
C1502 C 0.83917 0.44586 0.75473 0.0
C1503 C 0.81186 0.45766 0.76414 0.0
C1504 C 0.80227 0.47383 0.76989 0.0
C1505 C 0.82954 0.42653 0.75536 0.0
C1506 C 0.81058 0.42265 0.75991 0.0
C1507 C 0.80202 0.43826 0.7643 0.0
C1508 C 0.7998 0.40247 0.76093 0.0
C1509 C 0.84001 0.4105 0.75169 0.0
C1510 C 0.79658 0.38861 0.74503 0.0
C1511 C 0.78828 0.36915 0.74664 0.0
C1512 C 0.78278 0.36329 0.7641 0.0
C1513 C 0.785 0.37734 0.77971 0.0
C1514 C 0.79348 0.39679 0.77814 0.0
H1515 H 0.85572 0.41612 0.7535 0.0
H1516 H 0.83659 0.39898 0.76142 0.0
H1517 H 0.83566 0.40379 0.73682 0.0
H1518 H 0.80092 0.39277 0.73149 0.0
H1519 H 0.78655 0.35861 0.73434 0.0
H1520 H 0.01396 0.8104 0.0966 0.0
H1521 H 0.01354 0.83919 0.07966 0.0
H1522 H 0.98344 0.86176 0.12238 0.0
H1523 H 0.98329 0.83257 0.13919 0.0
H1524 H 0.96979 0.86808 0.08647 0.0
H1525 H 0.04863 0.89128 0.09731 0.0
H1526 H 0.04033 0.86732 0.08519 0.0
H1527 H 0.03584 0.87199 0.10938 0.0
C1528 C 0.00716 0.82143 0.10237 0.0
C1529 C 0.99885 0.81932 0.11937 0.0
C1530 C 0.00702 0.83794 0.0927 0.0
C1531 C 0.99891 0.85287 0.1 0.0
C1532 C 0.98993 0.85049 0.11657 0.0
H1533 H 0.02536 0.97202 0.0732 0.0
H1534 H 0.02201 0.94117 0.08732 0.0
C1535 C 0.98986 0.83382 0.12617 0.0
C1536 C 1.00025 0.87114 0.09056 0.0
H1537 H 0.03219 0.90861 0.07635 0.0
C1538 C 0.98342 0.87699 0.08428 0.0
C1539 C 0.01807 0.8829 0.08796 0.0
C1540 C 0.03674 0.87819 0.09548 0.0
C1541 C 0.98393 0.89419 0.07533 0.0
C1542 C 1.00173 0.90559 0.07217 0.0
C1543 C 0.01854 0.89976 0.07855 0.0
C1544 C 0.00346 0.92421 0.06328 0.0
C1545 C 0.96542 0.90023 0.06984 0.0
C1546 C 0.99437 0.92497 0.04491 0.0
C1547 C 0.99614 0.94271 0.03685 0.0
C1548 C 0.00727 0.95988 0.04694 0.0
C1549 C 0.01669 0.95901 0.06509 0.0
C1550 C 0.01478 0.94137 0.07318 0.0
H1551 H 0.95387 0.8929 0.0777 0.0
H1552 H 0.96714 0.91622 0.07263 0.0
H1553 H 0.96085 0.8961 0.0544 0.0
H1554 H 0.98596 0.91185 0.03678 0.0
H1555 H 0.98881 0.943 0.02279 0.0
H1556 H 0.97976 0.27502 0.81415 0.0
H1557 H 0.94866 0.27449 0.79613 0.0
H1558 H 0.92778 0.29184 0.84797 0.0
H1559 H 0.95863 0.29291 0.86585 0.0
H1560 H 0.91315 0.25341 0.79853 0.0
H1561 H 0.91395 0.33131 0.81429 0.0
H1562 H 0.93496 0.32159 0.81907 0.0
H1563 H 0.9177 0.32007 0.8358 0.0
C1564 C 0.96856 0.27885 0.82166 0.0
C1565 C 0.97181 0.28422 0.84143 0.0
C1566 C 0.95079 0.27852 0.81135 0.0
C1567 C 0.93598 0.28357 0.82061 0.0
C1568 C 0.93912 0.28847 0.84038 0.0
H1569 H 0.81427 0.25339 0.7918 0.0
H1570 H 0.8479 0.25384 0.80083 0.0
C1571 C 0.95681 0.28896 0.85062 0.0
C1572 C 0.91702 0.28328 0.80995 0.0
H1573 H 0.88316 0.31029 0.80423 0.0
C1574 C 0.90668 0.26593 0.79954 0.0
C1575 C 0.90867 0.2997 0.81087 0.0
C1576 C 0.9195 0.31927 0.82044 0.0
C1577 C 0.88791 0.26429 0.79085 0.0
C1578 C 0.87904 0.28028 0.79307 0.0
C1579 C 0.88975 0.2979 0.80271 0.0
C1580 C 0.85855 0.27901 0.78619 0.0
C1581 C 0.87786 0.24545 0.77934 0.0
C1582 C 0.85315 0.29322 0.77524 0.0
C1583 C 0.83386 0.29322 0.77038 0.0
C1584 C 0.81953 0.27893 0.77625 0.0
C1585 C 0.82493 0.26444 0.7868 0.0
C1586 C 0.84421 0.2646 0.79188 0.0
H1587 H 0.88822 0.23778 0.77341 0.0
H1588 H 0.86984 0.23572 0.78872 0.0
H1589 H 0.86768 0.24793 0.76741 0.0
H1590 H 0.86388 0.30455 0.77073 0.0
H1591 H 0.83021 0.3046 0.76224 0.0
H1592 H 0.48274 0.19847 0.64225 0.0
H1593 H 0.48573 0.16989 0.62199 0.0
H1594 H 0.50684 0.20689 0.57973 0.0
H1595 H 0.50405 0.23549 0.59981 0.0
H1596 H 0.47073 0.15532 0.58271 0.0
H1597 H 0.54984 0.1779 0.59389 0.0
H1598 H 0.53491 0.18829 0.60865 0.0
H1599 H 0.53777 0.19598 0.58535 0.0
C1600 C 0.48779 0.20053 0.62854 0.0
C1601 C 0.49334 0.21934 0.62278 0.0
C1602 C 0.48949 0.18416 0.61699 0.0
C1603 C 0.49683 0.18632 0.59953 0.0
C1604 C 0.50147 0.20494 0.59332 0.0
H1605 H 0.53307 0.10671 0.51838 0.0
H1606 H 0.52499 0.13517 0.53484 0.0
C1607 C 0.49978 0.22128 0.60481 0.0
C1608 C 0.50051 0.16926 0.5882 0.0
H1609 H 0.5364 0.15036 0.57208 0.0
C1610 C 0.48507 0.15419 0.58039 0.0
C1611 C 0.51924 0.16786 0.58517 0.0
C1612 C 0.53644 0.18326 0.59381 0.0
C1613 C 0.48786 0.13784 0.5694 0.0
C1614 C 0.50663 0.13639 0.56649 0.0
C1615 C 0.52203 0.15153 0.57424 0.0
C1616 C 0.51074 0.11905 0.55598 0.0
C1617 C 0.47067 0.12246 0.5607 0.0
C1618 C 0.50566 0.10061 0.56254 0.0
C1619 C 0.51029 0.08443 0.5532 0.0
C1620 C 0.52015 0.08636 0.53715 0.0
C1621 C 0.5254 0.10482 0.53067 0.0
C1622 C 0.52076 0.12104 0.54003 0.0
H1623 H 0.45746 0.12823 0.55964 0.0
H1624 H 0.47265 0.11663 0.54627 0.0
H1625 H 0.4686 0.11024 0.5698 0.0
H1626 H 0.49842 0.09878 0.57512 0.0
H1627 H 0.50637 0.07044 0.55874 0.0
H1628 H 0.5973 0.78791 0.37018 0.0
H1629 H 0.62443 0.78628 0.3528 0.0
H1630 H 0.59713 0.80816 0.30467 0.0
H1631 H 0.56984 0.80996 0.32199 0.0
H1632 H 0.62418 0.76493 0.31696 0.0
H1633 H 0.65098 0.8445 0.31508 0.0
H1634 H 0.63453 0.83468 0.33122 0.0
H1635 H 0.62617 0.83514 0.30656 0.0
C1636 C 0.59702 0.79245 0.35592 0.0
C1637 C 0.58136 0.79914 0.34753 0.0
C1638 C 0.61257 0.79148 0.346 0.0
C1639 C 0.61292 0.79731 0.32754 0.0
C1640 C 0.5973 0.80388 0.31902 0.0
H1641 H 0.70024 0.80244 0.25013 0.0
H1642 H 0.67129 0.80459 0.2647 0.0
C1643 C 0.58166 0.8048 0.32892 0.0
C1644 C 0.62952 0.7961 0.31716 0.0
H1645 H 0.66696 0.82363 0.29888 0.0
C1646 C 0.63353 0.77776 0.31298 0.0
C1647 C 0.64163 0.81284 0.31191 0.0
C1648 C 0.63828 0.83295 0.31651 0.0
C1649 C 0.64931 0.77568 0.30366 0.0
C1650 C 0.66169 0.79246 0.29876 0.0
C1651 C 0.6575 0.81079 0.30267 0.0
C1652 C 0.67928 0.79132 0.28998 0.0
C1653 C 0.6524 0.75548 0.2989 0.0
C1654 C 0.69352 0.78343 0.29946 0.0
C1655 C 0.70994 0.78207 0.29112 0.0
C1656 C 0.71261 0.78885 0.27325 0.0
C1657 C 0.69853 0.79706 0.2639 0.0
C1658 C 0.68202 0.79833 0.27222 0.0
H1659 H 0.63898 0.74426 0.29838 0.0
H1660 H 0.65802 0.75425 0.28499 0.0
H1661 H 0.66291 0.75226 0.31008 0.0
H1662 H 0.69195 0.77832 0.31335 0.0
H1663 H 0.72051 0.77562 0.29865 0.0
H1664 H 0.04086 0.21548 0.43912 0.0
H1665 H 0.03939 0.1875 0.45762 0.0
H1666 H 0.02148 0.21914 0.50414 0.0
H1667 H 0.02262 0.24718 0.48567 0.0
H1668 H 0.05765 0.1837 0.49406 0.0
H1669 H 0.9786 0.16975 0.49139 0.0
H1670 H 0.99155 0.18586 0.47629 0.0
H1671 H 0.99148 0.19374 0.50092 0.0
C1672 C 0.03675 0.21658 0.45334 0.0
C1673 C 0.03164 0.23347 0.46085 0.0
C1674 C 0.03594 0.20059 0.46388 0.0
C1675 C 0.03001 0.20122 0.48206 0.0
C1676 C 0.02573 0.21831 0.48997 0.0
H1677 H 0.00826 0.10455 0.55331 0.0
H1678 H 0.01238 0.13722 0.54235 0.0
C1679 C 0.02648 0.23432 0.47942 0.0
C1680 C 0.02771 0.18365 0.49234 0.0
H1681 H 0.99413 0.14825 0.5073 0.0
C1682 C 0.0438 0.17601 0.49711 0.0
C1683 C 0.00959 0.17374 0.49627 0.0
C1684 C 0.99176 0.18105 0.49085 0.0
C1685 C 0.0422 0.15845 0.50542 0.0
C1686 C 0.02402 0.14827 0.50879 0.0
C1687 C 0.00802 0.1562 0.50465 0.0
C1688 C 0.02115 0.12869 0.51535 0.0
C1689 C 0.05991 0.1508 0.51035 0.0
C1690 C 0.0243 0.11319 0.50354 0.0
C1691 C 0.0219 0.09465 0.50969 0.0
C1692 C 0.01626 0.09136 0.52772 0.0
C1693 C 0.01268 0.1068 0.53937 0.0
C1694 C 0.01503 0.12538 0.53317 0.0
H1695 H 0.07305 0.1625 0.51151 0.0
H1696 H 0.05943 0.14402 0.52398 0.0
H1697 H 0.06083 0.13951 0.49897 0.0
H1698 H 0.0287 0.11547 0.48959 0.0
H1699 H 0.02478 0.08299 0.50045 0.0
H1700 H 0.5386 0.27431 0.17251 0.0
H1701 H 0.56638 0.27612 0.19592 0.0
H1702 H 0.60115 0.315 0.16298 0.0
H1703 H 0.57345 0.31327 0.13936 0.0
H1704 H 0.60101 0.26522 0.18473 0.0
H1705 H 0.61387 0.34061 0.21984 0.0
H1706 H 0.59089 0.32788 0.2077 0.0
H1707 H 0.60963 0.33797 0.19424 0.0
C1708 C 0.55209 0.28343 0.17031 0.0
C1709 C 0.55385 0.29358 0.15401 0.0
C1710 C 0.56791 0.28447 0.18373 0.0
C1711 C 0.58567 0.29585 0.18122 0.0
C1712 C 0.58743 0.30638 0.16525 0.0
H1713 H 0.70215 0.31395 0.22846 0.0
H1714 H 0.67078 0.31638 0.21352 0.0
C1715 C 0.57164 0.30525 0.15173 0.0
C1716 C 0.60273 0.29522 0.19429 0.0
H1717 H 0.63817 0.32313 0.22635 0.0
C1718 C 0.60906 0.27778 0.19402 0.0
C1719 C 0.61312 0.31171 0.20621 0.0
C1720 C 0.60652 0.33061 0.20721 0.0
C1721 C 0.62602 0.27655 0.20489 0.0
C1722 C 0.63658 0.2931 0.21676 0.0
C1723 C 0.62998 0.31045 0.21732 0.0
C1724 C 0.65517 0.293 0.22759 0.0
C1725 C 0.63289 0.25781 0.20283 0.0
C1726 C 0.65671 0.27951 0.24094 0.0
C1727 C 0.67463 0.2779 0.24926 0.0
C1728 C 0.69118 0.28999 0.24455 0.0
C1729 C 0.68957 0.30432 0.23214 0.0
C1730 C 0.67168 0.30578 0.22368 0.0
H1731 H 0.62567 0.24837 0.1898 0.0
H1732 H 0.64852 0.26075 0.20227 0.0
H1733 H 0.62974 0.24959 0.21528 0.0
H1734 H 0.64408 0.26987 0.24452 0.0
H1735 H 0.67555 0.26692 0.259 0.0
H1736 H 0.55311 0.82654 0.99482 0.0
H1737 H 0.54873 0.85506 0.01433 0.0
H1738 H 0.53562 0.88186 0.96332 0.0
H1739 H 0.53933 0.85334 0.94385 0.0
H1740 H 0.56524 0.89338 0.01817 0.0
H1741 H 0.48942 0.88346 0.98999 0.0
H1742 H 0.50275 0.86496 0.9858 0.0
H1743 H 0.5038 0.88465 0.97084 0.0
C1744 C 0.54942 0.83859 0.98781 0.0
C1745 C 0.54631 0.83762 0.96782 0.0
C1746 C 0.54687 0.85482 0.99895 0.0
C1747 C 0.54128 0.8703 0.99025 0.0
C1748 C 0.53927 0.86978 0.97032 0.0
H1749 H 0.55447 0.98917 0.01843 0.0
H1750 H 0.5588 0.95601 0.0149 0.0
C1751 C 0.54155 0.85353 0.95921 0.0
C1752 C 0.53747 0.8871 1.00174 0.0
H1753 H 0.50534 0.91603 0.0034 0.0
C1754 C 0.55201 0.89818 0.01524 0.0
C1755 C 0.51996 0.89299 0.99847 0.0
C1756 C 0.50303 0.88073 0.98565 0.0
C1757 C 0.55007 0.91585 0.02438 0.0
C1758 C 0.5334 0.92284 0.01939 0.0
C1759 C 0.51828 0.91093 0.00706 0.0
C1760 C 0.53206 0.94316 0.02482 0.0
C1761 C 0.56603 0.92691 0.03904 0.0
C1762 C 0.51548 0.94715 0.03144 0.0
C1763 C 0.5127 0.96619 0.03297 0.0
C1764 C 0.52655 0.98158 0.02806 0.0
C1765 C 0.54358 0.97769 0.02249 0.0
C1766 C 0.54619 0.95867 0.02065 0.0
H1767 H 0.57304 0.91674 0.04689 0.0
H1768 H 0.57703 0.93601 0.03175 0.0
H1769 H 0.56087 0.93647 0.04946 0.0
H1770 H 0.50433 0.93543 0.03467 0.0
H1771 H 0.49946 0.96874 0.03739 0.0
H1772 H 0.95682 0.82083 0.65726 0.0
H1773 H 0.93466 0.82958 0.67864 0.0
H1774 H 0.92936 0.77376 0.70098 0.0
H1775 H 0.95148 0.76504 0.68006 0.0
H1776 H 0.89725 0.81095 0.6809 0.0
H1777 H 0.94174 0.81119 0.74923 0.0
H1778 H 0.95138 0.81188 0.72675 0.0
H1779 H 0.93958 0.78908 0.73422 0.0
C1780 C 0.95093 0.81046 0.66677 0.0
C1781 C 0.95597 0.79229 0.66706 0.0
C1782 C 0.93836 0.8155 0.67899 0.0
C1783 C 0.93079 0.8025 0.69171 0.0
C1784 C 0.9355 0.78423 0.69168 0.0
H1785 H 0.84029 0.77226 0.75546 0.0
H1786 H 0.86921 0.77682 0.73962 0.0
C1787 C 0.94802 0.77921 0.67957 0.0
C1788 C 0.91715 0.80731 0.70443 0.0
H1789 H 0.90772 0.80641 0.75054 0.0
C1790 C 0.89968 0.81045 0.69618 0.0
C1791 C 0.92044 0.80676 0.72438 0.0
C1792 C 0.9394 0.80475 0.73418 0.0
C1793 C 0.88489 0.81164 0.70722 0.0
C1794 C 0.88779 0.80974 0.72694 0.0
C1795 C 0.90559 0.80772 0.73537 0.0
C1796 C 0.87186 0.8078 0.73855 0.0
C1797 C 0.86589 0.81376 0.69762 0.0
C1798 C 0.86423 0.82386 0.74363 0.0
C1799 C 0.84781 0.82131 0.75279 0.0
C1800 C 0.83882 0.80266 0.75684 0.0
C1801 C 0.84699 0.78677 0.75249 0.0
C1802 C 0.86345 0.78935 0.74346 0.0
H1803 H 0.86553 0.81353 0.68192 0.0
H1804 H 0.85433 0.80185 0.7009 0.0
H1805 H 0.86284 0.82774 0.7032 0.0
H1806 H 0.87065 0.8382 0.73998 0.0
H1807 H 0.84173 0.83377 0.75598 0.0
H1808 H 0.09921 0.03287 0.83644 0.0
H1809 H 0.08288 0.03058 0.8648 0.0
H1810 H 0.10939 0.9839 0.88091 0.0
H1811 H 0.12588 0.98601 0.85225 0.0
H1812 H 0.06846 0.97811 0.88437 0.0
H1813 H 0.11036 0.04914 0.91939 0.0
H1814 H 0.1003 0.05029 0.89537 0.0
H1815 H 0.11804 0.03617 0.89983 0.0
C1816 C 0.10161 0.02206 0.84595 0.0
C1817 C 0.11399 0.00971 0.84214 0.0
C1818 C 0.09229 0.02083 0.8622 0.0
C1819 C 0.09515 0.00728 0.87509 0.0
C1820 C 0.10709 0.99454 0.87117 0.0
H1821 H 0.0431 0.99268 0.98164 0.0
H1822 H 0.06042 0.98673 0.95468 0.0
C1823 C 0.11651 0.99578 0.85483 0.0
C1824 C 0.08573 0.00685 0.89268 0.0
H1825 H 0.08149 0.03591 0.93187 0.0
C1826 C 0.07147 0.99058 0.89495 0.0
C1827 C 0.08977 0.02313 0.90648 0.0
C1828 C 0.10558 0.04061 0.90529 0.0
C1829 C 0.06043 0.99064 0.91017 0.0
C1830 C 0.06393 0.00731 0.92344 0.0
C1831 C 0.07872 0.02321 0.92156 0.0
C1832 C 0.05187 0.00917 0.93884 0.0
C1833 C 0.04459 0.97328 0.91151 0.0
C1834 C 0.04123 0.02366 0.93881 0.0
C1835 C 0.03137 0.02712 0.95415 0.0
C1836 C 0.03198 0.01619 0.96991 0.0
C1837 C 0.04211 0.00119 0.96962 0.0
C1838 C 0.05203 0.99776 0.95423 0.0
H1839 H 0.04179 0.96285 0.8985 0.0
H1840 H 0.04854 0.96555 0.92387 0.0
H1841 H 0.03123 0.97803 0.91384 0.0
H1842 H 0.04095 0.03264 0.92709 0.0
H1843 H 0.02373 0.03877 0.95388 0.0
H1844 H 0.72402 0.38908 0.60347 0.0
H1845 H 0.72875 0.37299 0.63238 0.0
H1846 H 0.72958 0.32012 0.59833 0.0
H1847 H 0.72536 0.33626 0.56931 0.0
H1848 H 0.70897 0.34209 0.64665 0.0
H1849 H 0.77901 0.32771 0.63284 0.0
H1850 H 0.76728 0.34325 0.61905 0.0
H1851 H 0.76036 0.31721 0.61396 0.0
C1852 C 0.72508 0.37398 0.60207 0.0
C1853 C 0.72445 0.36405 0.58398 0.0
C1854 C 0.72783 0.3648 0.61867 0.0
C1855 C 0.73001 0.34546 0.61763 0.0
C1856 C 0.72852 0.33522 0.59958 0.0
H1857 H 0.7209 0.27041 0.70963 0.0
H1858 H 0.71574 0.2876 0.68154 0.0
C1859 C 0.72591 0.34443 0.58296 0.0
C1860 C 0.7339 0.3361 0.63541 0.0
H1861 H 0.76505 0.31246 0.65836 0.0
C1862 C 0.72127 0.33567 0.64922 0.0
C1863 C 0.75018 0.32807 0.63905 0.0
C1864 C 0.7651 0.32924 0.62554 0.0
C1865 C 0.7242 0.32709 0.66626 0.0
C1866 C 0.73997 0.31821 0.66946 0.0
C1867 C 0.75284 0.31904 0.65587 0.0
C1868 C 0.74321 0.30776 0.68666 0.0
C1869 C 0.71052 0.32795 0.68082 0.0
C1870 C 0.76067 0.31281 0.69862 0.0
C1871 C 0.76377 0.30272 0.71458 0.0
C1872 C 0.74945 0.28746 0.71891 0.0
C1873 C 0.73214 0.28224 0.70678 0.0
C1874 C 0.72909 0.2922 0.69079 0.0
H1875 H 0.70327 0.34024 0.67912 0.0
H1876 H 0.69936 0.31428 0.67885 0.0
H1877 H 0.71794 0.32958 0.69555 0.0
H1878 H 0.7719 0.32457 0.69562 0.0
H1879 H 0.77745 0.30666 0.72333 0.0
H1880 H 0.46495 0.0592 0.30491 0.0
H1881 H 0.47717 0.05897 0.33837 0.0
H1882 H 0.44167 0.09768 0.35501 0.0
H1883 H 0.42942 0.09817 0.32145 0.0
H1884 H 0.49347 0.09581 0.36966 0.0
H1885 H 0.42788 0.04247 0.38117 0.0
H1886 H 0.43579 0.04416 0.35791 0.0
H1887 H 0.42568 0.06301 0.36809 0.0
C1888 C 0.45994 0.06794 0.31563 0.0
C1889 C 0.44616 0.07868 0.31049 0.0
C1890 C 0.46696 0.06778 0.33475 0.0
C1891 C 0.46024 0.0782 0.34913 0.0
C1892 C 0.447 0.08951 0.34408 0.0
H1893 H 0.47262 0.06407 0.47108 0.0
H1894 H 0.46255 0.07326 0.43966 0.0
C1895 C 0.44008 0.08983 0.3249 0.0
C1896 C 0.46628 0.07622 0.36941 0.0
H1897 H 0.45231 0.05121 0.40677 0.0
C1898 C 0.48446 0.08619 0.37787 0.0
C1899 C 0.45444 0.06373 0.38006 0.0
C1900 C 0.43485 0.05262 0.37146 0.0
C1901 C 0.49118 0.08389 0.39673 0.0
C1902 C 0.4796 0.07082 0.40722 0.0
C1903 C 0.46124 0.06119 0.3988 0.0
C1904 C 0.48641 0.06637 0.42665 0.0
C1905 C 0.51052 0.0957 0.40528 0.0
C1906 C 0.50316 0.05934 0.42989 0.0
C1907 C 0.50905 0.05424 0.4479 0.0
C1908 C 0.49815 0.05571 0.46304 0.0
C1909 C 0.48137 0.06274 0.45978 0.0
C1910 C 0.47558 0.06801 0.44179 0.0
H1911 H 0.51453 0.10925 0.3982 0.0
H1912 H 0.51092 0.0997 0.42077 0.0
H1913 H 0.52142 0.08701 0.40324 0.0
H1914 H 0.5115 0.05737 0.41838 0.0
H1915 H 0.52193 0.04869 0.44978 0.0
H1916 H 0.77823 0.65408 0.0722 0.0
H1917 H 0.77994 0.67278 0.10299 0.0
H1918 H 0.78498 0.72571 0.07537 0.0
H1919 H 0.78346 0.70727 0.04456 0.0
H1920 H 0.80942 0.72864 0.1111 0.0
H1921 H 0.73314 0.69539 0.11489 0.0
H1922 H 0.74812 0.67843 0.11128 0.0
H1923 H 0.74396 0.69408 0.09317 0.0
C1924 C 0.77993 0.66972 0.07268 0.0
C1925 C 0.78043 0.67916 0.05591 0.0
C1926 C 0.78087 0.68035 0.09027 0.0
C1927 C 0.78229 0.70052 0.09131 0.0
C1928 C 0.78381 0.71012 0.07477 0.0
H1929 H 0.74724 0.76958 0.18094 0.0
H1930 H 0.7525 0.75478 0.15018 0.0
C1931 C 0.78286 0.69953 0.05719 0.0
C1932 C 0.78082 0.71143 0.10939 0.0
H1933 H 0.74988 0.71605 0.14164 0.0
C1934 C 0.79644 0.72594 0.11784 0.0
C1935 C 0.76371 0.70803 0.11784 0.0
C1936 C 0.74619 0.69326 0.10879 0.0
C1937 C 0.79549 0.73701 0.13481 0.0
C1938 C 0.77854 0.73322 0.14353 0.0
C1939 C 0.76287 0.71887 0.13491 0.0
C1940 C 0.77666 0.74374 0.16173 0.0
C1941 C 0.81248 0.75284 0.14308 0.0
C1942 C 0.78856 0.74248 0.17831 0.0
C1943 C 0.78561 0.75095 0.1958 0.0
C1944 C 0.77059 0.76061 0.19696 0.0
C1945 C 0.75888 0.76216 0.18035 0.0
C1946 C 0.76189 0.75375 0.16284 0.0
H1947 H 0.822 0.75749 0.13216 0.0
H1948 H 0.80792 0.76575 0.14931 0.0
H1949 H 0.82089 0.74727 0.15456 0.0
H1950 H 0.79976 0.73446 0.17782 0.0
H1951 H 0.7948 0.74956 0.20846 0.0
H1952 H 0.13396 0.98613 0.72138 0.0
H1953 H 0.11442 0.98668 0.69119 0.0
H1954 H 0.07457 0.0109 0.72114 0.0
H1955 H 0.09392 0.01042 0.75148 0.0
H1956 H 0.06513 0.97345 0.68187 0.0
H1957 H 0.10616 0.04953 0.68025 0.0
H1958 H 0.11716 0.03153 0.69095 0.0
H1959 H 0.09962 0.04093 0.70248 0.0
C1960 C 0.12085 0.99123 0.72163 0.0
C1961 C 0.11561 0.99843 0.73886 0.0
C1962 C 0.1097 0.99146 0.70437 0.0
C1963 C 0.09315 0.99884 0.70405 0.0
C1964 C 0.08729 0.00507 0.72121 0.0
H1965 H 0.03212 0.0461 0.61456 0.0
H1966 H 0.04575 0.03738 0.64488 0.0
C1967 C 0.0984 0.00482 0.7385 0.0
C1968 C 0.08324 0.00215 0.68574 0.0
H1969 H 0.08237 0.03675 0.6548 0.0
C1970 C 0.06881 0.98725 0.67587 0.0
C1971 C 0.08815 0.02019 0.67814 0.0
C1972 C 0.10363 0.03656 0.68839 0.0
C1973 C 0.05897 0.99004 0.65848 0.0
C1974 C 0.06401 0.0081 0.65076 0.0
C1975 C 0.0785 0.02294 0.66074 0.0
C1976 C 0.05442 0.01219 0.63247 0.0
C1977 C 0.04301 0.97383 0.64879 0.0
C1978 C 0.05472 1.00089 0.61542 0.0
C1979 C 0.04679 0.00578 0.59808 0.0
C1980 C 0.03873 0.0222 0.59755 0.0
C1981 C 0.03831 0.0334 0.6146 0.0
C1982 C 0.04607 0.02842 0.63191 0.0
H1983 H 0.03748 0.96339 0.65891 0.0
H1984 H 0.03103 0.97966 0.64216 0.0
H1985 H 0.04845 0.96569 0.6374 0.0
H1986 H 0.06149 0.98859 0.61544 0.0
H1987 H 0.04731 0.99694 0.58509 0.0
H1988 H 0.73168 0.32544 0.48457 0.0
H1989 H 0.73408 0.31208 0.45234 0.0
H1990 H 0.72592 0.36569 0.43072 0.0
H1991 H 0.72202 0.37842 0.46275 0.0
H1992 H 0.70985 0.33856 0.40561 0.0
H1993 H 0.78048 0.32342 0.4276 0.0
H1994 H 0.76268 0.3096 0.43991 0.0
H1995 H 0.76832 0.33584 0.44371 0.0
C1996 C 0.73009 0.33422 0.47286 0.0
C1997 C 0.72671 0.35298 0.47617 0.0
C1998 C 0.73175 0.32669 0.45444 0.0
C1999 C 0.73097 0.33809 0.43903 0.0
C2000 C 0.72678 0.35657 0.44226 0.0
H2001 H 0.78214 0.31426 0.33632 0.0
H2002 H 0.77501 0.32584 0.3675 0.0
C2003 C 0.72449 0.36386 0.4606 0.0
C2004 C 0.7348 0.33099 0.41969 0.0
H2005 H 0.76588 0.31029 0.39648 0.0
C2006 C 0.7222 0.33251 0.40364 0.0
C2007 C 0.75114 0.32345 0.41685 0.0
C2008 C 0.76652 0.32319 0.43292 0.0
C2009 C 0.72536 0.32669 0.38505 0.0
C2010 C 0.74107 0.31807 0.38233 0.0
C2011 C 0.75368 0.31662 0.39838 0.0
C2012 C 0.74517 0.31108 0.36306 0.0
C2013 C 0.71216 0.33062 0.36856 0.0
C2014 C 0.73093 0.29872 0.35 0.0
C2015 C 0.7349 0.29258 0.3319 0.0
C2016 C 0.75339 0.29797 0.32674 0.0
C2017 C 0.76779 0.30973 0.33997 0.0
C2018 C 0.76369 0.31637 0.35782 0.0
H2019 H 0.70548 0.34291 0.37254 0.0
H2020 H 0.7198 0.33414 0.35605 0.0
H2021 H 0.7005 0.31755 0.36439 0.0
H2022 H 0.71673 0.2937 0.35378 0.0
H2023 H 0.72357 0.28336 0.32203 0.0
H2024 H 0.45585 0.06252 0.21529 0.0
H2025 H 0.47129 0.05899 0.18662 0.0
H2026 H 0.43446 0.09095 0.15713 0.0
H2027 H 0.41848 0.09397 0.18558 0.0
H2028 H 0.4363 0.05968 0.13529 0.0
H2029 H 0.50994 0.0972 0.16449 0.0
H2030 H 0.5007 0.0775 0.17784 0.0
H2031 H 0.48981 0.09821 0.17726 0.0
C2032 C 0.45118 0.06905 0.2028 0.0
C2033 C 0.43595 0.07863 0.20283 0.0
C2034 C 0.46011 0.06708 0.18639 0.0
C2035 C 0.4543 0.07497 0.16971 0.0
C2036 C 0.43927 0.08477 0.16979 0.0
H2037 H 0.52056 0.0869 0.07371 0.0
H2038 H 0.50408 0.09232 0.10138 0.0
C2039 C 0.43018 0.08655 0.18613 0.0
C2040 C 0.46332 0.07233 0.15198 0.0
H2041 H 0.50625 0.07843 0.13445 0.0
C2042 C 0.4516 0.06391 0.13509 0.0
C2043 C 0.48326 0.07806 0.15154 0.0
C2044 C 0.49663 0.08843 0.1687 0.0
C2045 C 0.45922 0.06082 0.11795 0.0
C2046 C 0.47924 0.06575 0.11775 0.0
C2047 C 0.49093 0.07443 0.13457 0.0
C2048 C 0.48843 0.06244 0.10025 0.0
C2049 C 0.44566 0.0527 0.10018 0.0
C2050 C 0.48516 0.04386 0.09024 0.0
C2051 C 0.49439 0.04081 0.07422 0.0
C2052 C 0.50737 0.05621 0.06813 0.0
C2053 C 0.51066 0.07476 0.07812 0.0
C2054 C 0.50126 0.07785 0.09396 0.0
H2055 H 0.43123 0.05551 0.10131 0.0
H2056 H 0.45095 0.05908 0.08739 0.0
H2057 H 0.44419 0.03671 0.09812 0.0
H2058 H 0.47576 0.03158 0.09503 0.0
H2059 H 0.49173 0.02632 0.06689 0.0
H2060 H 0.78144 0.66967 0.93409 0.0
H2061 H 0.78995 0.69106 0.90927 0.0
H2062 H 0.81075 0.73962 0.95227 0.0
H2063 H 0.8008 0.71844 0.97684 0.0
H2064 H 0.78831 0.74974 0.92837 0.0
H2065 H 0.83459 0.71614 0.88619 0.0
H2066 H 0.8134 0.69817 0.8876 0.0
H2067 H 0.82918 0.70834 0.90904 0.0
C2068 C 0.78831 0.6848 0.93817 0.0
C2069 C 0.79051 0.69253 0.95722 0.0
C2070 C 0.79336 0.69703 0.92402 0.0
C2071 C 0.80128 0.717 0.92883 0.0
C2072 C 0.80467 0.72432 0.94813 0.0
H2073 H 0.81282 0.78233 0.82775 0.0
H2074 H 0.82268 0.77077 0.85819 0.0
C2075 C 0.79905 0.71224 0.96217 0.0
C2076 C 0.80311 0.73065 0.91378 0.0
H2077 H 0.81471 0.73501 0.86865 0.0
C2078 C 0.79457 0.74673 0.91555 0.0
C2079 C 0.81162 0.72722 0.89713 0.0
C2080 C 0.8229 0.71164 0.89503 0.0
C2081 C 0.79303 0.75849 0.90067 0.0
C2082 C 0.79944 0.75357 0.8832 0.0
C2083 C 0.80936 0.73852 0.8819 0.0
C2084 C 0.79401 0.7623 0.86564 0.0
C2085 C 0.78409 0.77579 0.90373 0.0
C2086 C 0.77468 0.7614 0.85976 0.0
C2087 C 0.76905 0.76817 0.84261 0.0
C2088 C 0.7826 0.77564 0.83069 0.0
C2089 C 0.80203 0.77675 0.83665 0.0
C2090 C 0.80769 0.77011 0.854 0.0
H2091 H 0.78718 0.78205 0.91885 0.0
H2092 H 0.78931 0.78737 0.89457 0.0
H2093 H 0.76837 0.77102 0.90037 0.0
H2094 H 0.7638 0.75486 0.86816 0.0
H2095 H 0.75394 0.76685 0.83843 0.0
H2096 H 0.86047 0.14514 0.99661 0.0
H2097 H 0.88551 0.1269 0.99268 0.0
H2098 H 0.87475 0.10093 0.04469 0.0
H2099 H 0.8497 0.11876 0.04857 0.0
H2100 H 0.91915 0.12574 0.01606 0.0
H2101 H 0.8695 0.05351 0.00663 0.0
H2102 H 0.86134 0.07589 0.00529 0.0
H2103 H 0.86751 0.06768 0.02806 0.0
C2104 C 0.86346 0.13556 0.00722 0.0
C2105 C 0.85291 0.13331 0.02282 0.0
C2106 C 0.8778 0.12515 0.00496 0.0
C2107 C 0.8818 0.11222 0.01819 0.0
C2108 C 0.87166 0.11043 0.03404 0.0
H2109 H 0.95641 0.03512 0.04235 0.0
H2110 H 0.93336 0.05596 0.04122 0.0
C2111 C 0.85736 0.12076 0.03629 0.0
C2112 C 0.89643 0.10044 0.01555 0.0
H2113 H 0.90263 0.05367 0.01306 0.0
C2114 C 0.91552 0.10997 0.01517 0.0
C2115 C 0.89172 0.07984 0.01425 0.0
C2116 C 0.87138 0.06861 0.01337 0.0
C2117 C 0.9301 0.0995 0.01444 0.0
C2118 C 0.92542 0.07894 0.01387 0.0
C2119 C 0.90626 0.06943 0.01365 0.0
C2120 C 0.94018 0.06697 0.01454 0.0
C2121 C 0.95047 0.11053 0.01506 0.0
C2122 C 0.95174 0.06608 0.99986 0.0
C2123 C 0.96497 0.05404 1.00046 0.0
C2124 C 0.96686 0.04272 0.01574 0.0
C2125 C 0.95526 0.04362 0.03035 0.0
C2126 C 0.9421 0.05559 0.02975 0.0
H2127 H 0.95214 0.12632 0.01927 0.0
H2128 H 0.96009 0.10464 0.02519 0.0
H2129 H 0.95511 0.10885 1.00073 0.0
H2130 H 0.95026 0.07437 0.98775 0.0
H2131 H 0.97336 0.05323 0.98878 0.0
H2132 H 0.30631 0.42208 0.03447 0.0
H2133 H 0.33932 0.43956 0.03564 0.0
H2134 H 0.3303 0.48241 0.07821 0.0
H2135 H 0.29692 0.46526 0.07671 0.0
H2136 H 0.3483 0.4993 0.05087 0.0
H2137 H 0.3843 0.442 0.07468 0.0
H2138 H 0.36762 0.43315 0.0538 0.0
H2139 H 0.35918 0.44046 0.07562 0.0
C2140 C 0.31135 0.43511 0.04425 0.0
C2141 C 0.29899 0.44225 0.05555 0.0
C2142 C 0.3303 0.44501 0.045 0.0
C2143 C 0.33739 0.46205 0.05731 0.0
C2144 C 0.32514 0.46919 0.06871 0.0
H2145 H 0.45987 0.51196 0.06675 0.0
H2146 H 0.42802 0.49865 0.07496 0.0
C2147 C 0.30609 0.45938 0.06784 0.0
C2148 C 0.35725 0.47299 0.05729 0.0
H2149 H 0.40309 0.46729 0.0592 0.0
C2150 C 0.36033 0.49241 0.05299 0.0
C2151 C 0.37299 0.46412 0.06042 0.0
C2152 C 0.37088 0.44386 0.0666 0.0
C2153 C 0.37861 0.50289 0.05079 0.0
C2154 C 0.39409 0.49349 0.05241 0.0
C2155 C 0.39117 0.4744 0.05766 0.0
C2156 C 0.41326 0.50281 0.04793 0.0
C2157 C 0.38109 0.5239 0.04673 0.0
C2158 C 0.41555 0.50951 0.02998 0.0
C2159 C 0.4337 0.51731 0.02532 0.0
C2160 C 0.44993 0.51821 0.0384 0.0
C2161 C 0.44763 0.51145 0.05635 0.0
C2162 C 0.42945 0.50386 0.06108 0.0
H2163 H 0.36996 0.53059 0.05244 0.0
H2164 H 0.39533 0.53261 0.05299 0.0
H2165 H 0.37965 0.52466 0.0311 0.0
H2166 H 0.40332 0.50829 0.01939 0.0
H2167 H 0.43501 0.52217 0.0113 0.0
H2168 H 0.32423 0.60079 0.71454 0.0
H2169 H 0.31071 0.62891 0.72224 0.0
H2170 H 0.34652 0.64125 0.77615 0.0
H2171 H 0.36026 0.61304 0.76856 0.0
H2172 H 0.30567 0.64158 0.77684 0.0
H2173 H 0.33971 0.68712 0.72399 0.0
H2174 H 0.32792 0.66269 0.71476 0.0
H2175 H 0.3485 0.66668 0.73232 0.0
C2176 C 0.32928 0.60945 0.72805 0.0
C2177 C 0.34339 0.6047 0.74091 0.0
C2178 C 0.32158 0.62557 0.73238 0.0
C2179 C 0.32779 0.63727 0.74965 0.0
C2180 C 0.34163 0.63244 0.7627 0.0
H2181 H 0.28258 0.73598 0.7944 0.0
H2182 H 0.30076 0.71034 0.79198 0.0
C2183 C 0.34947 0.61635 0.75832 0.0
C2184 C 0.31956 0.65438 0.754 0.0
H2185 H 0.31471 0.6977 0.73799 0.0
C2186 C 0.30779 0.65399 0.76854 0.0
C2187 C 0.3224 0.6705 0.74311 0.0
C2188 C 0.33544 0.67195 0.72777 0.0
C2189 C 0.29804 0.66894 0.77192 0.0
C2190 C 0.3005 0.68485 0.76069 0.0
C2191 C 0.31278 0.68548 0.74655 0.0
C2192 C 0.28969 0.70047 0.76253 0.0
C2193 C 0.28456 0.66711 0.78688 0.0
C2194 C 0.27777 0.70373 0.74673 0.0
C2195 C 0.26778 0.71859 0.748 0.0
C2196 C 0.2696 0.73058 0.76506 0.0
C2197 C 0.28133 0.72722 0.78097 0.0
C2198 C 0.29145 0.71239 0.77967 0.0
H2199 H 0.28088 0.65202 0.79099 0.0
H2200 H 0.29142 0.67684 0.79982 0.0
H2201 H 0.27117 0.67152 0.78176 0.0
H2202 H 0.2762 0.69475 0.73336 0.0
H2203 H 0.25885 0.72088 0.7355 0.0
H2204 H 0.25293 0.61481 0.5242 0.0
H2205 H 0.2199 0.59755 0.52471 0.0
H2206 H 0.20049 0.63616 0.48659 0.0
H2207 H 0.23335 0.65376 0.48637 0.0
H2208 H 0.18238 0.63426 0.51792 0.0
H2209 H 0.18126 0.55943 0.48718 0.0
H2210 H 0.19958 0.5683 0.50681 0.0
H2211 H 0.2004 0.5799 0.48508 0.0
C2212 C 0.24166 0.61937 0.5156 0.0
C2213 C 0.24578 0.63572 0.50531 0.0
C2214 C 0.22277 0.60942 0.51585 0.0
C2215 C 0.2077 0.61546 0.50557 0.0
C2216 C 0.21188 0.63125 0.49463 0.0
H2217 H 0.08454 0.58492 0.49167 0.0
H2218 H 0.11838 0.59691 0.48872 0.0
C2219 C 0.23069 0.64128 0.49451 0.0
C2220 C 0.18754 0.60663 0.50753 0.0
H2221 H 0.15396 0.56392 0.50161 0.0
C2222 C 0.17617 0.6189 0.51425 0.0
C2223 C 0.17947 0.58655 0.50287 0.0
C2224 C 0.19074 0.57279 0.49492 0.0
C2225 C 0.15699 0.61165 0.51644 0.0
C2226 C 0.14893 0.59164 0.51173 0.0
C2227 C 0.16027 0.57927 0.50523 0.0
C2228 C 0.12856 0.58353 0.51305 0.0
C2229 C 0.14546 0.62541 0.52392 0.0
C2230 C 0.12317 0.57184 0.52757 0.0
C2231 C 0.10384 0.56508 0.52937 0.0
C2232 C 0.0897 0.5698 0.51656 0.0
C2233 C 0.09517 0.58115 0.50179 0.0
C2234 C 0.11445 0.58799 0.50007 0.0
H2235 H 0.15461 0.63965 0.53007 0.0
H2236 H 0.13529 0.62806 0.51209 0.0
H2237 H 0.13704 0.61891 0.53499 0.0
H2238 H 0.1339 0.56826 0.5377 0.0
H2239 H 0.09998 0.55629 0.54083 0.0
H2240 H 0.6445 0.93452 0.79831 0.0
H2241 H 0.66327 0.90957 0.803 0.0
H2242 H 0.68946 0.92366 0.75247 0.0
H2243 H 0.67112 0.94859 0.74784 0.0
H2244 H 0.66617 0.87638 0.77935 0.0
H2245 H 0.73531 0.92967 0.79306 0.0
H2246 H 0.71276 0.93676 0.79347 0.0
H2247 H 0.72171 0.93243 0.77118 0.0
C2248 C 0.65424 0.93226 0.78819 0.0
C2249 C 0.65643 0.94371 0.7728 0.0
C2250 C 0.66494 0.91798 0.79088 0.0
C2251 C 0.67807 0.91499 0.7783 0.0
C2252 C 0.67977 0.92599 0.76263 0.0
H2253 H 0.75622 0.84487 0.75298 0.0
H2254 H 0.73461 0.86708 0.75513 0.0
C2255 C 0.66917 0.94021 0.75995 0.0
C2256 C 0.69024 0.90061 0.78142 0.0
H2257 H 0.73672 0.89648 0.78534 0.0
C2258 C 0.6816 0.88076 0.78095 0.0
C2259 C 0.71039 0.90634 0.7837 0.0
C2260 C 0.72061 0.92748 0.78559 0.0
C2261 C 0.69258 0.86645 0.7816 0.0
C2262 C 0.71269 0.87219 0.78289 0.0
C2263 C 0.7213 0.89207 0.78417 0.0
C2264 C 0.7251 0.8579 0.7816 0.0
C2265 C 0.6826 0.84527 0.78007 0.0
C2266 C 0.72705 0.84535 0.79584 0.0
C2267 C 0.73956 0.83265 0.79468 0.0
C2268 C 0.75021 0.83226 0.77923 0.0
C2269 C 0.74821 0.84484 0.76506 0.0
C2270 C 0.73582 0.85751 0.76624 0.0
H2271 H 0.66698 0.84308 0.77593 0.0
H2272 H 0.68854 0.83662 0.76947 0.0
H2273 H 0.68495 0.8395 0.79405 0.0
H2274 H 0.71921 0.84565 0.80801 0.0
H2275 H 0.74116 0.82342 0.806 0.0
H2276 H 0.70948 0.97953 0.55849 0.0
H2277 H 0.68432 0.99286 0.54229 0.0
H2278 H 0.67615 0.94796 0.49573 0.0
H2279 H 0.70147 0.93442 0.51187 0.0
H2280 H 0.68018 0.00465 0.50194 0.0
H2281 H 0.62343 0.9436 0.51868 0.0
H2282 H 0.64704 0.94921 0.53177 0.0
H2283 H 0.64332 0.93806 0.50777 0.0
C2284 C 0.70244 0.97252 0.54475 0.0
C2285 C 0.70733 0.95582 0.53652 0.0
C2286 C 0.68816 0.98023 0.53549 0.0
C2287 C 0.67843 0.97132 0.51791 0.0
C2288 C 0.68353 0.95495 0.50935 0.0
H2289 H 0.56889 0.99802 0.47971 0.0
H2290 H 0.59716 0.98437 0.47777 0.0
C2291 C 0.69795 0.94726 0.51858 0.0
C2292 C 0.66212 0.97864 0.50941 0.0
H2293 H 0.61373 0.97039 0.5067 0.0
C2294 C 0.6656 0.99705 0.50261 0.0
C2295 C 0.6432 0.96857 0.5102 0.0
C2296 C 0.63885 0.94878 0.51754 0.0
C2297 C 0.65056 0.00607 0.49732 0.0
C2298 C 0.6317 0.9966 0.49943 0.0
C2299 C 0.6282 0.97767 0.50515 0.0
C2300 C 0.61566 0.00665 0.4979 0.0
C2301 C 0.65508 0.02578 0.48988 0.0
C2302 C 0.61675 0.02387 0.50962 0.0
C2303 C 0.60067 0.03175 0.51063 0.0
C2304 C 0.58321 0.02235 0.50017 0.0
C2305 C 0.58226 0.00555 0.4879 0.0
C2306 C 0.59837 0.99776 0.48677 0.0
H2307 H 0.66801 0.0275 0.4824 0.0
H2308 H 0.64302 0.02813 0.47993 0.0
H2309 H 0.65804 0.03725 0.50202 0.0
H2310 H 0.62976 0.03068 0.51876 0.0
H2311 H 0.60169 0.04464 0.52029 0.0
H2312 H 0.32246 0.50657 0.73487 0.0
H2313 H 0.30602 0.47335 0.73892 0.0
H2314 H 0.36016 0.45881 0.75518 0.0
H2315 H 0.37661 0.49206 0.75178 0.0
H2316 H 0.30727 0.43885 0.72174 0.0
H2317 H 0.33184 0.44062 0.79848 0.0
H2318 H 0.33504 0.46225 0.78607 0.0
H2319 H 0.35144 0.44633 0.78482 0.0
C2320 C 0.33086 0.49631 0.73937 0.0
C2321 C 0.35084 0.50203 0.74318 0.0
C2322 C 0.32144 0.47733 0.74168 0.0
C2323 C 0.33181 0.46368 0.74776 0.0
C2324 C 0.35179 0.46922 0.75104 0.0
H2325 H 0.29452 0.3381 0.7352 0.0
H2326 H 0.30695 0.37226 0.731 0.0
C2327 C 0.36119 0.48823 0.74896 0.0
C2328 C 0.32182 0.44354 0.75034 0.0
H2329 H 0.31822 0.40921 0.78203 0.0
C2330 C 0.30953 0.43241 0.73498 0.0
C2331 C 0.32445 0.43524 0.76772 0.0
C2332 C 0.33625 0.44681 0.78526 0.0
C2333 C 0.30027 0.41305 0.73634 0.0
C2334 C 0.30381 0.4044 0.75336 0.0
C2335 C 0.31567 0.41572 0.76889 0.0
C2336 C 0.29557 0.38361 0.75541 0.0
C2337 C 0.28658 0.40221 0.71961 0.0
C2338 C 0.28545 0.37851 0.77081 0.0
C2339 C 0.27864 0.35896 0.77346 0.0
C2340 C 0.28172 0.34408 0.76068 0.0
C2341 C 0.29168 0.3492 0.74515 0.0
C2342 C 0.2987 0.36876 0.74266 0.0
H2343 H 0.28075 0.41238 0.71065 0.0
H2344 H 0.29425 0.39379 0.71055 0.0
H2345 H 0.27449 0.39194 0.72434 0.0
H2346 H 0.28292 0.38969 0.78089 0.0
H2347 H 0.27101 0.35553 0.78555 0.0
H2348 H 0.18775 0.54339 0.2886 0.0
H2349 H 0.20949 0.5754 0.29123 0.0
H2350 H 0.16143 0.60286 0.29028 0.0
H2351 H 0.13984 0.57113 0.28855 0.0
H2352 H 0.21307 0.60117 0.26733 0.0
H2353 H 0.19524 0.63642 0.3327 0.0
H2354 H 0.18714 0.61062 0.326 0.0
H2355 H 0.1739 0.62755 0.31652 0.0
C2356 C 0.18187 0.55629 0.28928 0.0
C2357 C 0.16207 0.55472 0.28848 0.0
C2358 C 0.19431 0.57458 0.29078 0.0
C2359 C 0.18718 0.59164 0.29135 0.0
C2360 C 0.16741 0.59003 0.29057 0.0
H2361 H 0.22976 0.69825 0.2463 0.0
H2362 H 0.21759 0.66465 0.25246 0.0
C2363 C 0.15502 0.57181 0.2894 0.0
C2364 C 0.20009 0.61101 0.29113 0.0
H2365 H 0.20849 0.65825 0.31017 0.0
C2366 C 0.21232 0.61357 0.27695 0.0
C2367 C 0.19961 0.62719 0.30395 0.0
C2368 C 0.18842 0.62523 0.32077 0.0
C2369 C 0.22314 0.63201 0.2745 0.0
C2370 C 0.2211 0.64849 0.28605 0.0
C2371 C 0.20981 0.64575 0.301 0.0
C2372 C 0.22952 0.66872 0.28219 0.0
C2373 C 0.23659 0.63353 0.25951 0.0
C2374 C 0.23975 0.68249 0.29696 0.0
C2375 C 0.24625 0.7019 0.29355 0.0
C2376 C 0.24278 0.70779 0.27527 0.0
C2377 C 0.23284 0.69401 0.26046 0.0
C2378 C 0.22604 0.67473 0.26394 0.0
H2379 H 0.24206 0.62003 0.25756 0.0
H2380 H 0.22879 0.63537 0.24567 0.0
H2381 H 0.24893 0.64606 0.26322 0.0
H2382 H 0.24251 0.67829 0.31119 0.0
H2383 H 0.25384 0.71232 0.30523 0.0
H2384 H 0.56445 0.7583 0.43925 0.0
H2385 H 0.56075 0.72853 0.45529 0.0
H2386 H 0.50614 0.70607 0.42179 0.0
H2387 H 0.50988 0.73576 0.40536 0.0
H2388 H 0.53329 0.71205 0.47691 0.0
H2389 H 0.53382 0.66223 0.41281 0.0
H2390 H 0.54076 0.68835 0.41318 0.0
H2391 H 0.51594 0.67641 0.41041 0.0
C2392 C 0.55163 0.74704 0.43525 0.0
C2393 C 0.5375 0.74937 0.42091 0.0
C2394 C 0.54954 0.73003 0.44447 0.0
C2395 C 0.53332 0.71493 0.43955 0.0
C2396 C 0.51897 0.71735 0.42554 0.0
H2397 H 0.49749 0.60075 0.47854 0.0
H2398 H 0.49955 0.63133 0.4639 0.0
C2399 C 0.52108 0.73438 0.41624 0.0
C2400 C 0.53152 0.69674 0.44917 0.0
H2401 H 0.52719 0.64762 0.44106 0.0
C2402 C 0.53199 0.69796 0.46908 0.0
C2403 C 0.5299 0.67837 0.43895 0.0
C2404 C 0.53025 0.67619 0.41768 0.0
C2405 C 0.53061 0.6813 0.479 0.0
C2406 C 0.52896 0.66295 0.46876 0.0
C2407 C 0.52843 0.66171 0.44887 0.0
C2408 C 0.52761 0.64479 0.47835 0.0
C2409 C 0.53055 0.6834 0.50031 0.0
C2410 C 0.54274 0.64217 0.49133 0.0
C2411 C 0.54161 0.62466 0.49972 0.0
C2412 C 0.52535 0.6095 0.49519 0.0
C2413 C 0.5102 0.61221 0.4823 0.0
C2414 C 0.51135 0.62965 0.47391 0.0
H2415 H 0.52734 0.69748 0.50537 0.0
H2416 H 0.51991 0.67136 0.50482 0.0
H2417 H 0.54483 0.68279 0.50736 0.0
H2418 H 0.55556 0.65353 0.49471 0.0
H2419 H 0.55352 0.62291 0.50954 0.0
H2420 H 0.5663 0.29866 0.67592 0.0
H2421 H 0.59797 0.30114 0.69305 0.0
H2422 H 0.57306 0.26782 0.73617 0.0
H2423 H 0.54114 0.26511 0.71906 0.0
H2424 H 0.60565 0.30458 0.74858 0.0
H2425 H 0.62052 0.24958 0.69533 0.0
H2426 H 0.61083 0.26902 0.68614 0.0
H2427 H 0.59657 0.25155 0.69884 0.0
C2428 C 0.56744 0.29203 0.68917 0.0
C2429 C 0.55111 0.28155 0.69601 0.0
C2430 C 0.5856 0.29346 0.69892 0.0
C2431 C 0.58785 0.28453 0.71576 0.0
C2432 C 0.5716 0.2748 0.72316 0.0
H2433 H 0.69201 0.25514 0.76547 0.0
H2434 H 0.65881 0.25555 0.75503 0.0
C2435 C 0.55338 0.27326 0.71335 0.0
C2436 C 0.60724 0.28438 0.7249 0.0
H2437 H 0.64602 0.26521 0.71854 0.0
C2438 C 0.61449 0.29594 0.74209 0.0
C2439 C 0.61863 0.27297 0.71645 0.0
C2440 C 0.6113 0.25994 0.69823 0.0
C2441 C 0.63307 0.29666 0.75087 0.0
C2442 C 0.64462 0.28559 0.74216 0.0
C2443 C 0.63718 0.27375 0.72517 0.0
C2444 C 0.66454 0.28603 0.7503 0.0
C2445 C 0.64015 0.30912 0.76945 0.0
C2446 C 0.67881 0.30309 0.75126 0.0
C2447 C 0.69788 0.30292 0.75719 0.0
C2448 C 0.70307 0.28565 0.76225 0.0
C2449 C 0.68861 0.26873 0.76176 0.0
C2450 C 0.66959 0.26891 0.75575 0.0
H2451 H 0.62826 0.31315 0.77641 0.0
H2452 H 0.64821 0.30146 0.77942 0.0
H2453 H 0.64994 0.32272 0.76672 0.0
H2454 H 0.67529 0.31639 0.74681 0.0
H2455 H 0.70861 0.3162 0.75728 0.0
H2456 H 0.04968 0.3597 0.90744 0.0
H2457 H 0.05246 0.39159 0.92518 0.0
H2458 H 0.00404 0.36773 0.95345 0.0
H2459 H 1.00137 0.33602 0.9362 0.0
H2460 H 0.02626 0.41441 0.92444 0.0
H2461 H 0.0417 0.39598 0.99791 0.0
H2462 H 0.04378 0.38032 0.97731 0.0
H2463 H 0.02092 0.37952 0.98558 0.0
C2464 C 0.03981 0.36122 0.91764 0.0
C2465 C 0.02535 0.3453 0.92045 0.0
C2466 C 0.0414 0.37944 0.92774 0.0
C2467 C 0.02867 0.38197 0.94091 0.0
C2468 C 0.01434 0.36604 0.94376 0.0
H2469 H 0.98306 0.47814 0.97718 0.0
H2470 H 0.992 0.45029 0.96087 0.0
C2471 C 0.01275 0.34791 0.93374 0.0
C2472 C 0.02934 0.40142 0.95081 0.0
H2473 H 0.02822 0.4243 0.99463 0.0
C2474 C 0.02702 0.41669 0.93981 0.0
C2475 C 0.03069 0.40455 0.97089 0.0
C2476 C 0.03462 0.38927 0.9836 0.0
C2477 C 0.02484 0.43458 0.94827 0.0
C2478 C 0.02457 0.4371 0.96821 0.0
C2479 C 0.02809 0.42227 0.97931 0.0
C2480 C 0.01959 0.45448 0.97771 0.0
C2481 C 0.02267 0.45053 0.93573 0.0
C2482 C 0.03185 0.46578 0.99299 0.0
C2483 C 0.02661 0.48152 0.00253 0.0
C2484 C 0.00903 0.48625 0.99692 0.0
C2485 C 0.99675 0.4749 0.9817 0.0
C2486 C 0.00194 0.45911 0.97225 0.0
H2487 H 0.02944 0.44891 0.92253 0.0
H2488 H 0.00728 0.44968 0.93147 0.0
H2489 H 0.02908 0.46513 0.9433 0.0
H2490 H 0.04545 0.46236 0.99759 0.0
H2491 H 0.03624 0.48989 0.01439 0.0
H2492 H 0.93799 0.78557 0.17934 0.0
H2493 H 0.90946 0.78993 0.1936 0.0
H2494 H 0.92023 0.75104 0.23548 0.0
H2495 H 0.94867 0.74662 0.22142 0.0
H2496 H 0.87657 0.76016 0.19961 0.0
H2497 H 0.91493 0.80091 0.26726 0.0
H2498 H 0.92655 0.79818 0.24621 0.0
H2499 H 0.92172 0.77846 0.26087 0.0
C2500 C 0.93432 0.778 0.19162 0.0
C2501 C 0.94569 0.76582 0.19928 0.0
C2502 C 0.91799 0.78047 0.19973 0.0
C2503 C 0.91285 0.77099 0.21574 0.0
C2504 C 0.92408 0.75873 0.22331 0.0
H2505 H 0.82397 0.76817 0.28986 0.0
H2506 H 0.85161 0.76364 0.27412 0.0
C2507 C 0.94032 0.75618 0.21519 0.0
C2508 C 0.89566 0.77371 0.22452 0.0
H2509 H 0.88139 0.79068 0.26569 0.0
C2510 C 0.87759 0.76694 0.21401 0.0
C2511 C 0.89703 0.78247 0.24334 0.0
C2512 C 0.91609 0.79059 0.25508 0.0
C2513 C 0.86082 0.76827 0.22198 0.0
C2514 C 0.86219 0.77703 0.24085 0.0
C2515 C 0.8803 0.78391 0.25128 0.0
C2516 C 0.84509 0.77933 0.25007 0.0
C2517 C 0.84179 0.75973 0.21032 0.0
C2518 C 0.83232 0.78984 0.24195 0.0
C2519 C 0.81654 0.79238 0.25089 0.0
C2520 C 0.81326 0.7846 0.26823 0.0
C2521 C 0.82613 0.77429 0.27649 0.0
C2522 C 0.8419 0.77168 0.2675 0.0
H2523 H 0.84302 0.74888 0.19863 0.0
H2524 H 0.83125 0.75261 0.21935 0.0
H2525 H 0.83621 0.77153 0.20376 0.0
H2526 H 0.83471 0.79636 0.22881 0.0
H2527 H 0.80699 0.80062 0.2443 0.0
H2528 H 0.48747 0.34699 0.09717 0.0
H2529 H 0.48366 0.37749 0.08436 0.0
H2530 H 0.5313 0.37664 0.05271 0.0
H2531 H 0.53518 0.34627 0.06528 0.0
H2532 H 0.51175 0.41401 0.08679 0.0
H2533 H 0.48687 0.38151 0.01243 0.0
H2534 H 0.48663 0.36709 0.03244 0.0
H2535 H 0.50851 0.37563 0.02273 0.0
C2536 C 0.4971 0.35329 0.08745 0.0
C2537 C 0.51155 0.34416 0.08214 0.0
C2538 C 0.49493 0.3707 0.0802 0.0
C2539 C 0.50706 0.37911 0.06744 0.0
C2540 C 0.52163 0.37018 0.06233 0.0
H2541 H 0.53108 0.49493 0.03115 0.0
H2542 H 0.53185 0.46469 0.04581 0.0
C2543 C 0.52384 0.35286 0.06958 0.0
C2544 C 0.50464 0.39728 0.0594 0.0
H2545 H 0.49535 0.41605 0.01737 0.0
C2546 C 0.50802 0.41449 0.07164 0.0
C2547 C 0.49959 0.39773 0.03968 0.0
C2548 C 0.49501 0.37949 0.02604 0.0
C2549 C 0.50701 0.43234 0.06455 0.0
C2550 C 0.5027 0.4329 0.0447 0.0
C2551 C 0.4988 0.41558 0.03256 0.0
C2552 C 0.50224 0.4513 0.03615 0.0
C2553 C 0.51044 0.45039 0.07835 0.0
C2554 C 0.48553 0.45353 0.02539 0.0
C2555 C 0.48511 0.47073 0.01698 0.0
C2556 C 0.5014 0.48593 0.01924 0.0
C2557 C 0.51822 0.48356 0.02966 0.0
C2558 C 0.51866 0.46634 0.03803 0.0
H2559 H 0.50832 0.44673 0.09305 0.0
H2560 H 0.52538 0.45859 0.07865 0.0
H2561 H 0.50081 0.46007 0.07397 0.0
H2562 H 0.47276 0.44201 0.02364 0.0
H2563 H 0.47198 0.47225 0.00898 0.0
H2564 H 0.96452 0.29439 0.41122 0.0
H2565 H 0.93548 0.29311 0.38968 0.0
H2566 H 0.95197 0.25221 0.35011 0.0
H2567 H 0.98122 0.25372 0.37129 0.0
H2568 H 0.94032 0.28131 0.33257 0.0
H2569 H 0.88796 0.24974 0.37978 0.0
H2570 H 0.90419 0.27153 0.39067 0.0
H2571 H 0.91307 0.25019 0.38461 0.0
C2572 C 0.9619 0.28501 0.39801 0.0
C2573 C 0.97514 0.27412 0.39298 0.0
C2574 C 0.94526 0.28423 0.38576 0.0
C2575 C 0.94148 0.27234 0.36846 0.0
C2576 C 0.95463 0.26142 0.36344 0.0
H2577 H 0.82987 0.24765 0.30167 0.0
H2578 H 0.86015 0.24415 0.31845 0.0
C2579 C 0.97131 0.2623 0.37558 0.0
C2580 C 0.9241 0.27176 0.35527 0.0
H2581 H 0.87565 0.26293 0.35237 0.0
C2582 C 0.92615 0.27714 0.33682 0.0
C2583 C 0.90567 0.26598 0.36077 0.0
C2584 C 0.90254 0.25884 0.37997 0.0
C2585 C 0.91021 0.27743 0.32384 0.0
C2586 C 0.89184 0.27263 0.32969 0.0
C2587 C 0.88978 0.26674 0.34797 0.0
C2588 C 0.87451 0.27416 0.3174 0.0
C2589 C 0.91321 0.28272 0.30399 0.0
C2590 C 0.8727 0.29211 0.31099 0.0
C2591 C 0.8555 0.29407 0.30123 0.0
C2592 C 0.83983 0.27819 0.29808 0.0
C2593 C 0.84179 0.26011 0.304 0.0
C2594 C 0.85903 0.2581 0.31357 0.0
H2595 H 0.92689 0.27986 0.29997 0.0
H2596 H 0.9014 0.27448 0.29331 0.0
H2597 H 0.91377 0.29849 0.30343 0.0
H2598 H 0.88431 0.30479 0.31418 0.0
H2599 H 0.85424 0.30818 0.29689 0.0
H2600 H 0.98695 0.75463 0.5606 0.0
H2601 H 0.98137 0.72501 0.53865 0.0
H2602 H 0.97801 0.69041 0.58643 0.0
H2603 H 0.98229 0.7197 0.60809 0.0
H2604 H 0.00284 0.70188 0.53497 0.0
H2605 H 0.93629 0.65692 0.55196 0.0
H2606 H 0.94362 0.6824 0.56041 0.0
H2607 H 0.95165 0.66424 0.57387 0.0
C2608 C 0.9845 0.74062 0.56629 0.0
C2609 C 0.98497 0.73941 0.58601 0.0
C2610 C 0.98133 0.72372 0.55377 0.0
C2611 C 0.97891 0.70536 0.56078 0.0
C2612 C 0.97906 0.70423 0.58049 0.0
H2613 H 0.02732 0.61224 0.53092 0.0
H2614 H 0.01936 0.64379 0.53672 0.0
C2615 C 0.98172 0.72105 0.59294 0.0
C2616 C 0.97866 0.68764 0.54805 0.0
H2617 H 0.96004 0.63881 0.54227 0.0
C2618 C 0.99312 0.68818 0.53618 0.0
C2619 C 0.96568 0.66978 0.54896 0.0
C2620 C 0.94832 0.66842 0.55933 0.0
C2621 C 0.99598 0.67114 0.52665 0.0
C2622 C 0.98467 0.65297 0.5298 0.0
C2623 C 0.96912 0.65262 0.54021 0.0
C2624 C 0.98983 0.63425 0.52423 0.0
C2625 C 0.01131 0.67286 0.51359 0.0
C2626 C 0.97582 0.6181 0.51574 0.0
C2627 C 0.98023 0.59982 0.51304 0.0
C2628 C 0.99881 0.59749 0.51847 0.0
C2629 C 0.01297 0.61373 0.52628 0.0
C2630 C 0.00845 0.63185 0.52944 0.0
H2631 H 0.0124 0.68643 0.50636 0.0
H2632 H 0.0253 0.67375 0.52212 0.0
H2633 H 0.00854 0.66028 0.50257 0.0
H2634 H 0.96133 0.61951 0.5117 0.0
H2635 H 0.96905 0.58747 0.507 0.0
H2636 H 0.55718 0.77135 0.87164 0.0
H2637 H 0.57695 0.76541 0.84702 0.0
H2638 H 0.62658 0.77758 0.88917 0.0
H2639 H 0.60666 0.78278 0.9141 0.0
H2640 H 0.60448 0.78959 0.83502 0.0
H2641 H 0.63338 0.72865 0.86143 0.0
H2642 H 0.61393 0.73664 0.8712 0.0
H2643 H 0.63825 0.74901 0.8792 0.0
C2644 C 0.5723 0.77262 0.87571 0.0
C2645 C 0.58041 0.77756 0.8948 0.0
C2646 C 0.58356 0.76917 0.86162 0.0
C2647 C 0.60319 0.77074 0.86627 0.0
C2648 C 0.61137 0.77572 0.88533 0.0
H2649 H 0.6936 0.80371 0.80153 0.0
H2650 H 0.66539 0.80091 0.81796 0.0
C2651 C 0.60002 0.77886 0.89953 0.0
C2652 C 0.61524 0.76848 0.85098 0.0
H2653 H 0.65062 0.74661 0.8387 0.0
C2654 C 0.61436 0.77995 0.83568 0.0
C2655 C 0.62777 0.75556 0.85153 0.0
C2656 C 0.62824 0.74162 0.86662 0.0
C2657 C 0.62641 0.77963 0.82149 0.0
C2658 C 0.64011 0.768 0.82299 0.0
C2659 C 0.64026 0.75571 0.83767 0.0
C2660 C 0.65562 0.7698 0.81076 0.0
C2661 C 0.62445 0.79193 0.80518 0.0
C2662 C 0.6596 0.75321 0.80126 0.0
C2663 C 0.67596 0.75476 0.79205 0.0
C2664 C 0.68853 0.77289 0.79233 0.0
C2665 C 0.68408 0.78956 0.80107 0.0
C2666 C 0.66786 0.788 0.81033 0.0
H2667 H 0.60954 0.79365 0.8021 0.0
H2668 H 0.63365 0.80667 0.80912 0.0
H2669 H 0.62877 0.78551 0.79202 0.0
H2670 H 0.65039 0.73902 0.80153 0.0
H2671 H 0.67918 0.7417 0.78544 0.0
H2672 H 0.39148 0.55686 0.67257 0.0
H2673 H 0.41284 0.55708 0.64796 0.0
H2674 H 0.46107 0.58261 0.68978 0.0
H2675 H 0.43991 0.58163 0.71456 0.0
H2676 H 0.43732 0.58398 0.63343 0.0
H2677 H 0.47724 0.53507 0.6696 0.0
H2678 H 0.45568 0.54015 0.67735 0.0
H2679 H 0.47808 0.5573 0.68391 0.0
C2680 C 0.40662 0.56268 0.67647 0.0
C2681 C 0.41406 0.56897 0.69553 0.0
C2682 C 0.41882 0.56279 0.66241 0.0
C2683 C 0.43864 0.56937 0.66711 0.0
C2684 C 0.44593 0.57685 0.68592 0.0
H2685 H 0.5113 0.58175 0.57455 0.0
H2686 H 0.49658 0.5894 0.60287 0.0
C2687 C 0.43379 0.57642 0.70004 0.0
C2688 C 0.45162 0.56776 0.65245 0.0
H2689 H 0.48872 0.54746 0.642 0.0
C2690 C 0.4486 0.57605 0.63531 0.0
C2691 C 0.46619 0.55717 0.65483 0.0
C2692 C 0.4694 0.54675 0.67232 0.0
C2693 C 0.45952 0.57381 0.62038 0.0
C2694 C 0.47433 0.56354 0.62291 0.0
C2695 C 0.47755 0.55554 0.64017 0.0
C2696 C 0.48541 0.55932 0.60723 0.0
C2697 C 0.45449 0.58172 0.60177 0.0
C2698 C 0.48513 0.53992 0.60103 0.0
C2699 C 0.49388 0.53551 0.58516 0.0
C2700 C 0.50299 0.55042 0.57501 0.0
C2701 C 0.50424 0.5699 0.58191 0.0
C2702 C 0.49565 0.57431 0.59798 0.0
H2703 H 0.43998 0.58481 0.60064 0.0
H2704 H 0.46481 0.59555 0.60077 0.0
H2705 H 0.45515 0.57133 0.58946 0.0
H2706 H 0.47746 0.5281 0.60803 0.0
H2707 H 0.49266 0.52034 0.58034 0.0
H2708 H 0.76907 0.22486 0.96844 0.0
H2709 H 0.76621 0.23858 0.93794 0.0
H2710 H 0.81434 0.21668 0.92212 0.0
H2711 H 0.81741 0.20292 0.95282 0.0
H2712 H 0.81515 0.25535 0.91342 0.0
H2713 H 0.74523 0.20657 0.88658 0.0
H2714 H 0.7457 0.21946 0.90946 0.0
H2715 H 0.76032 0.20195 0.90689 0.0
C2716 C 0.77914 0.22299 0.95855 0.0
C2717 C 0.79343 0.21268 0.96309 0.0
C2718 C 0.77738 0.23076 0.94102 0.0
C2719 C 0.78981 0.22836 0.92755 0.0
C2720 C 0.80448 0.21859 0.93223 0.0
H2721 H 0.77126 0.25036 0.80781 0.0
H2722 H 0.77584 0.23528 0.83748 0.0
C2723 C 0.80624 0.21075 0.94979 0.0
C2724 C 0.78741 0.23609 0.90865 0.0
H2725 H 0.75542 0.23344 0.86891 0.0
C2726 C 0.80214 0.25049 0.90364 0.0
C2727 C 0.77053 0.22956 0.89573 0.0
C2728 C 0.7546 0.2134 0.8998 0.0
C2729 C 0.80023 0.25893 0.88636 0.0
C2730 C 0.78301 0.25301 0.87384 0.0
C2731 C 0.76852 0.23818 0.87859 0.0
C2732 C 0.7797 0.26206 0.85579 0.0
C2733 C 0.81674 0.274 0.88159 0.0
C2734 C 0.78004 0.28205 0.85611 0.0
C2735 C 0.77699 0.29053 0.83913 0.0
C2736 C 0.77319 0.27915 0.82151 0.0
C2737 C 0.77293 0.2592 0.82117 0.0
C2738 C 0.77597 0.25069 0.83815 0.0
H2739 H 0.8304 0.27302 0.88983 0.0
H2740 H 0.8182 0.27238 0.86616 0.0
H2741 H 0.81422 0.28873 0.8852 0.0
H2742 H 0.78261 0.29111 0.86952 0.0
H2743 H 0.77751 0.30601 0.83978 0.0
H2744 H 0.11217 0.48508 0.21022 0.0
H2745 H 0.09647 0.48809 0.1787 0.0
H2746 H 0.05013 0.50504 0.20427 0.0
H2747 H 0.06589 0.50244 0.23592 0.0
H2748 H 0.06132 0.47108 0.15857 0.0
H2749 H 0.06803 0.55066 0.17388 0.0
H2750 H 0.08029 0.53677 0.18924 0.0
H2751 H 0.0554 0.53611 0.19016 0.0
C2752 C 0.09853 0.48924 0.20919 0.0
C2753 C 0.09042 0.49371 0.22571 0.0
C2754 C 0.08957 0.49098 0.19111 0.0
C2755 C 0.07233 0.49724 0.18911 0.0
C2756 C 0.06367 0.50068 0.20547 0.0
H2757 H 0.00733 0.52738 0.08848 0.0
H2758 H 0.01733 0.51949 0.12051 0.0
C2759 C 0.07265 0.49902 0.22357 0.0
C2760 C 0.06384 0.50073 0.16996 0.0
H2761 H 0.05167 0.53624 0.14403 0.0
C2762 C 0.05918 0.48532 0.15541 0.0
C2763 C 0.06105 0.51934 0.16579 0.0
C2764 C 0.0666 0.53673 0.18051 0.0
C2765 C 0.05178 0.48797 0.13687 0.0
C2766 C 0.04923 0.50662 0.13267 0.0
C2767 C 0.05358 0.52195 0.14728 0.0
C2768 C 0.04278 0.51073 0.11306 0.0
C2769 C 0.04663 0.47075 0.12197 0.0
C2770 C 0.05384 0.50862 0.09825 0.0
C2771 C 0.04821 0.51317 0.07995 0.0
C2772 C 0.03138 0.51997 0.07603 0.0
C2773 C 0.02031 0.52208 0.09092 0.0
C2774 C 0.02601 0.5176 0.10926 0.0
H2775 H 0.04442 0.45675 0.12851 0.0
H2776 H 0.03349 0.47113 0.1125 0.0
H2777 H 0.05843 0.47118 0.11307 0.0
H2778 H 0.06703 0.50374 0.10091 0.0
H2779 H 0.05716 0.51143 0.06891 0.0
H2780 H 0.76666 0.86041 0.50123 0.0
H2781 H 0.76503 0.84612 0.4686 0.0
H2782 H 0.72627 0.88149 0.44939 0.0
H2783 H 0.7278 0.89607 0.48221 0.0
H2784 H 0.71853 0.83669 0.43463 0.0
H2785 H 0.78953 0.88269 0.42721 0.0
H2786 H 0.78749 0.87096 0.44882 0.0
H2787 H 0.77447 0.88947 0.44414 0.0
C2788 C 0.75763 0.86507 0.49015 0.0
C2789 C 0.74749 0.87951 0.49426 0.0
C2790 C 0.75672 0.85686 0.47153 0.0
C2791 C 0.74567 0.86291 0.45671 0.0
C2792 C 0.73489 0.87672 0.46076 0.0
H2793 H 0.73222 0.82444 0.33519 0.0
H2794 H 0.72731 0.83824 0.36648 0.0
C2795 C 0.73581 0.88502 0.47945 0.0
C2796 C 0.74642 0.85548 0.43694 0.0
H2797 H 0.77651 0.85725 0.4029 0.0
C2798 C 0.73107 0.84126 0.42753 0.0
C2799 C 0.76287 0.86154 0.42792 0.0
C2800 C 0.77953 0.8771 0.43742 0.0
C2801 C 0.73205 0.83238 0.4094 0.0
C2802 C 0.74869 0.8382 0.40051 0.0
C2803 C 0.76383 0.85277 0.40982 0.0
C2804 C 0.751 0.82916 0.38171 0.0
C2805 C 0.7156 0.81639 0.40024 0.0
C2806 C 0.76614 0.8198 0.37992 0.0
C2807 C 0.7691 0.81212 0.36208 0.0
C2808 C 0.75697 0.81375 0.34579 0.0
C2809 C 0.74173 0.82298 0.34759 0.0
C2810 C 0.73882 0.83072 0.36544 0.0
H2811 H 0.7061 0.81048 0.41075 0.0
H2812 H 0.70699 0.8223 0.38918 0.0
H2813 H 0.72082 0.80428 0.39325 0.0
H2814 H 0.77574 0.81855 0.39234 0.0
H2815 H 0.78093 0.80506 0.36101 0.0
H2816 H 0.39529 0.57672 0.81253 0.0
H2817 H 0.41046 0.58003 0.84547 0.0
H2818 H 0.46395 0.57591 0.82534 0.0
H2819 H 0.44855 0.57152 0.79253 0.0
H2820 H 0.4558 0.55062 0.84877 0.0
H2821 H 0.44555 0.62006 0.88244 0.0
H2822 H 0.42326 0.60513 0.87154 0.0
H2823 H 0.44157 0.61404 0.85696 0.0
C2824 C 0.41039 0.57703 0.81519 0.0
C2825 C 0.42075 0.57372 0.80008 0.0
C2826 C 0.41911 0.57907 0.83402 0.0
C2827 C 0.43843 0.57839 0.83796 0.0
C2828 C 0.44904 0.57644 0.82271 0.0
H2829 H 0.49642 0.58423 0.95447 0.0
H2830 H 0.48647 0.59275 0.92254 0.0
C2831 C 0.44024 0.57394 0.80397 0.0
C2832 C 0.44687 0.57682 0.85765 0.0
H2833 H 0.45176 0.59632 0.90389 0.0
C2834 C 0.45516 0.56084 0.86073 0.0
C2835 C 0.44627 0.59021 0.87332 0.0
C2836 C 0.43886 0.60842 0.87086 0.0
C2837 C 0.46225 0.55749 0.87902 0.0
C2838 C 0.46039 0.57006 0.89481 0.0
C2839 C 0.45284 0.58651 0.89176 0.0
C2840 C 0.46557 0.56577 0.91455 0.0
C2841 C 0.47166 0.54046 0.88119 0.0
C2842 C 0.45674 0.54807 0.92077 0.0
C2843 C 0.46253 0.54311 0.93877 0.0
C2844 C 0.47703 0.55593 0.95101 0.0
C2845 C 0.48529 0.57406 0.94518 0.0
C2846 C 0.4796 0.57894 0.92703 0.0
H2847 H 0.47738 0.53635 0.86792 0.0
H2848 H 0.4835 0.54377 0.89306 0.0
H2849 H 0.46094 0.52768 0.88424 0.0
H2850 H 0.44554 0.53791 0.91155 0.0
H2851 H 0.45576 0.52916 0.94303 0.0
H2852 H 0.81886 0.1869 0.08674 0.0
H2853 H 0.81448 0.20256 0.11733 0.0
H2854 H 0.79129 0.2456 0.08849 0.0
H2855 H 0.7956 0.23006 0.05772 0.0
H2856 H 0.81773 0.26054 0.12317 0.0
H2857 H 0.75994 0.19801 0.13365 0.0
H2858 H 0.7819 0.19185 0.12848 0.0
H2859 H 0.76817 0.20186 0.11077 0.0
C2860 C 0.81308 0.19986 0.08683 0.0
C2861 C 0.80748 0.2071 0.06964 0.0
C2862 C 0.81048 0.20873 0.10438 0.0
C2863 C 0.80225 0.22505 0.1052 0.0
C2864 C 0.79756 0.23295 0.0882 0.0
H2865 H 0.74954 0.26743 0.20036 0.0
H2866 H 0.75665 0.25638 0.16895 0.0
C2867 C 0.80007 0.22404 0.0706 0.0
C2868 C 0.7978 0.23331 0.12369 0.0
H2869 H 0.77019 0.22249 0.15943 0.0
C2870 C 0.80732 0.25225 0.1311 0.0
C2871 C 0.78402 0.22259 0.13391 0.0
C2872 C 0.77276 0.20251 0.12629 0.0
C2873 C 0.80374 0.26055 0.14865 0.0
C2874 C 0.79035 0.24961 0.15912 0.0
C2875 C 0.78054 0.23084 0.15149 0.0
C2876 C 0.78635 0.25725 0.17806 0.0
C2877 C 0.81416 0.28106 0.15576 0.0
C2878 C 0.80065 0.26137 0.19372 0.0
C2879 C 0.79663 0.26763 0.21174 0.0
C2880 C 0.77818 0.26994 0.21455 0.0
C2881 C 0.76393 0.26596 0.19877 0.0
C2882 C 0.76795 0.25958 0.18078 0.0
H2883 H 0.82031 0.28907 0.14416 0.0
H2884 H 0.80449 0.28926 0.16223 0.0
H2885 H 0.82602 0.28059 0.16687 0.0
H2886 H 0.81486 0.25936 0.19208 0.0
H2887 H 0.80797 0.27044 0.22351 0.0
H2888 H 0.10516 0.49693 0.34822 0.0
H2889 H 0.09145 0.50039 0.37807 0.0
H2890 H 0.04547 0.5211 0.34841 0.0
H2891 H 0.05977 0.51873 0.31886 0.0
H2892 H 0.05729 0.54299 0.37925 0.0
H2893 H 0.04857 0.46739 0.39845 0.0
H2894 H 0.07292 0.47794 0.39608 0.0
H2895 H 0.05505 0.47409 0.37561 0.0
C2896 C 0.09199 0.50196 0.34805 0.0
C2897 C 0.08349 0.50747 0.33118 0.0
C2898 C 0.08407 0.50384 0.36513 0.0
C2899 C 0.06717 0.51069 0.36558 0.0
C2900 C 0.0585 0.51578 0.34856 0.0
H2901 H 0.99702 0.4998 0.45783 0.0
H2902 H 0.01206 0.49621 0.42896 0.0
C2903 C 0.06664 0.51434 0.33162 0.0
C2904 C 0.05892 0.51351 0.38378 0.0
H2905 H 0.04466 0.49102 0.42253 0.0
C2906 C 0.05442 0.53154 0.38863 0.0
C2907 C 0.05494 0.49859 0.39605 0.0
C2908 C 0.05793 0.47837 0.39119 0.0
C2909 C 0.04598 0.53503 0.40516 0.0
C2910 C 0.0427 0.52037 0.41781 0.0
C2911 C 0.04732 0.50238 0.41302 0.0
C2912 C 0.03364 0.52293 0.43556 0.0
C2913 C 0.04004 0.55415 0.40839 0.0
C2914 C 0.04065 0.53913 0.44911 0.0
C2915 C 0.03164 0.54148 0.46542 0.0
C2916 C 0.01589 0.52735 0.46891 0.0
C2917 C 0.00915 0.51097 0.45559 0.0
C2918 C 0.01783 0.50885 0.43908 0.0
H2919 H 0.03792 0.56082 0.39485 0.0
H2920 H 0.02661 0.5523 0.41502 0.0
H2921 H 0.05144 0.56449 0.41797 0.0
H2922 H 0.05311 0.54998 0.44711 0.0
H2923 H 0.03693 0.55439 0.47521 0.0
H2924 H 0.74076 0.85835 0.57971 0.0
H2925 H 0.73538 0.83737 0.60521 0.0
H2926 H 0.71719 0.88242 0.63807 0.0
H2927 H 0.72292 0.90382 0.61268 0.0
H2928 H 0.74545 0.86984 0.65739 0.0
H2929 H 0.68969 0.80607 0.62575 0.0
H2930 H 0.70861 0.81135 0.61117 0.0
H2931 H 0.69408 0.82877 0.61501 0.0
C2932 C 0.73529 0.86374 0.5922 0.0
C2933 C 0.73246 0.88285 0.59425 0.0
C2934 C 0.73201 0.8516 0.60669 0.0
C2935 C 0.72562 0.85823 0.62341 0.0
C2936 C 0.72198 0.877 0.62518 0.0
H2937 H 0.71538 0.79429 0.72413 0.0
H2938 H 0.70691 0.80958 0.69559 0.0
C2939 C 0.72532 0.88921 0.6107 0.0
C2940 C 0.72544 0.84662 0.63993 0.0
H2941 H 0.71031 0.80097 0.65328 0.0
C2942 C 0.73749 0.8549 0.65659 0.0
C2943 C 0.71497 0.82716 0.6389 0.0
C2944 C 0.70096 0.8179 0.6218 0.0
C2945 C 0.74008 0.84395 0.67191 0.0
C2946 C 0.73062 0.82416 0.67037 0.0
C2947 C 0.7178 0.81608 0.65417 0.0
C2948 C 0.7344 0.81175 0.68548 0.0
C2949 C 0.75324 0.85353 0.68953 0.0
C2950 C 0.75238 0.80724 0.68868 0.0
C2951 C 0.75731 0.79855 0.70494 0.0
C2952 C 0.7443 0.79425 0.71824 0.0
C2953 C 0.72578 0.79749 0.71422 0.0
C2954 C 0.72087 0.8062 0.69792 0.0
H2955 H 0.75611 0.86966 0.69012 0.0
H2956 H 0.74708 0.84894 0.70261 0.0
H2957 H 0.76705 0.84902 0.68951 0.0
H2958 H 0.76292 0.81134 0.67907 0.0
H2959 H 0.77164 0.79613 0.70752 0.0
H2960 H 0.66303 0.41932 0.5194 0.0
H2961 H 0.63721 0.43711 0.51738 0.0
H2962 H 0.66752 0.47793 0.56421 0.0
H2963 H 0.69327 0.46029 0.5664 0.0
H2964 H 0.61465 0.44648 0.54805 0.0
H2965 H 0.65586 0.51209 0.52053 0.0
H2966 H 0.66281 0.48896 0.51905 0.0
H2967 H 0.66731 0.50403 0.54125 0.0
C2968 C 0.66421 0.4321 0.52925 0.0
C2969 C 0.68029 0.43839 0.54302 0.0
C2970 C 0.64942 0.44223 0.5281 0.0
C2971 C 0.65051 0.45898 0.54051 0.0
C2972 C 0.66646 0.4652 0.55433 0.0
H2973 H 0.58069 0.54548 0.551 0.0
H2974 H 0.60542 0.52647 0.55494 0.0
C2975 C 0.68116 0.45503 0.55559 0.0
C2976 C 0.63499 0.46995 0.53917 0.0
H2977 H 0.6254 0.51372 0.52889 0.0
C2978 C 0.61695 0.46115 0.54378 0.0
C2979 C 0.63804 0.48915 0.53376 0.0
C2980 C 0.65699 0.49914 0.52821 0.0
C2981 C 0.60198 0.47114 0.54344 0.0
C2982 C 0.60497 0.49032 0.53783 0.0
C2983 C 0.62305 0.49908 0.53323 0.0
C2984 C 0.5895 0.50144 0.53626 0.0
C2985 C 0.5833 0.46121 0.54961 0.0
C2986 C 0.57229 0.49381 0.52443 0.0
C2987 C 0.55812 0.50458 0.5223 0.0
C2988 C 0.56091 0.52337 0.53175 0.0
C2989 C 0.5781 0.53103 0.5436 0.0
C2990 C 0.59225 0.52018 0.54582 0.0
H2991 H 0.58521 0.4497 0.55904 0.0
H2992 H 0.57659 0.47177 0.55724 0.0
H2993 H 0.57336 0.45415 0.53685 0.0
H2994 H 0.56995 0.47968 0.51645 0.0
H2995 H 0.54514 0.49834 0.51288 0.0
H2996 H 0.22239 0.09681 0.48286 0.0
H2997 H 0.19038 0.07633 0.48151 0.0
H2998 H 0.16749 0.12776 0.48904 0.0
H2999 H 0.19926 0.14822 0.48928 0.0
H3000 H 0.16964 0.07245 0.50831 0.0
H3001 H 0.12784 0.09747 0.44949 0.0
H3002 H 0.15353 0.10431 0.45327 0.0
H3003 H 0.13945 0.11785 0.46611 0.0
C3004 C 0.21041 0.10371 0.48373 0.0
C3005 C 0.21325 0.12408 0.48609 0.0
C3006 C 0.19215 0.092 0.483 0.0
C3007 C 0.17642 0.10045 0.48494 0.0
C3008 C 0.17922 0.12084 0.48689 0.0
H3009 H 0.07871 0.05623 0.53928 0.0
H3010 H 0.11068 0.06769 0.53068 0.0
C3011 C 0.19743 0.13255 0.48715 0.0
C3012 C 0.15752 0.08805 0.48691 0.0
H3013 H 0.10983 0.08244 0.47356 0.0
C3014 C 0.15659 0.07439 0.50043 0.0
C3015 C 0.14046 0.09018 0.4764 0.0
C3016 C 0.14041 0.1031 0.46037 0.0
C3017 C 0.13907 0.06354 0.50436 0.0
C3018 C 0.12196 0.06702 0.49512 0.0
C3019 C 0.12291 0.07996 0.48093 0.0
C3020 C 0.10296 0.0583 0.50057 0.0
C3021 C 0.1392 0.04845 0.51836 0.0
C3022 C 0.08782 0.04947 0.48653 0.0
C3023 C 0.06941 0.04342 0.49137 0.0
C3024 C 0.06585 0.04582 0.51039 0.0
C3025 C 0.0811 0.05391 0.52455 0.0
C3026 C 0.09943 0.06036 0.51964 0.0
H3027 H 0.15219 0.04238 0.51826 0.0
H3028 H 0.13939 0.05538 0.53295 0.0
H3029 H 0.12647 0.03627 0.51518 0.0
H3030 H 0.09015 0.04774 0.47172 0.0
H3031 H 0.05787 0.03721 0.48018 0.0
H3032 H 0.20885 0.96804 0.75573 0.0
H3033 H 0.224 0.94025 0.75493 0.0
H3034 H 0.19613 0.91968 0.80272 0.0
H3035 H 0.18067 0.94749 0.80354 0.0
H3036 H 0.24845 0.92987 0.78331 0.0
H3037 H 0.18305 0.8716 0.76311 0.0
H3038 H 0.18338 0.89699 0.761 0.0
H3039 H 0.18257 0.88763 0.78384 0.0
C3040 C 0.2059 0.95763 0.76609 0.0
C3041 C 0.19351 0.95998 0.77969 0.0
C3042 C 0.21458 0.94174 0.7656 0.0
C3043 C 0.211 0.92775 0.77858 0.0
C3044 C 0.19881 0.93012 0.79234 0.0
H3045 H 0.27933 0.843 0.80359 0.0
H3046 H 0.26275 0.86985 0.80473 0.0
C3047 C 0.19011 0.94609 0.79287 0.0
C3048 C 0.22048 0.91104 0.7779 0.0
H3049 H 0.21202 0.86145 0.77043 0.0
C3050 C 0.24049 0.91491 0.78051 0.0
C3051 C 0.21007 0.89156 0.77395 0.0
C3052 C 0.18858 0.88661 0.77014 0.0
C3053 C 0.25038 0.89982 0.7795 0.0
C3054 C 0.23997 0.8803 0.77607 0.0
C3055 C 0.21996 0.87642 0.77321 0.0
C3056 C 0.24966 0.86375 0.77544 0.0
C3057 C 0.2719 0.90493 0.78176 0.0
C3058 C 0.2475 0.85115 0.75871 0.0
C3059 C 0.25698 0.83578 0.75804 0.0
C3060 C 0.26857 0.83266 0.77416 0.0
C3061 C 0.2706 0.84519 0.79091 0.0
C3062 C 0.26115 0.86053 0.79158 0.0
H3063 H 0.27749 0.92034 0.77932 0.0
H3064 H 0.27743 0.90285 0.79648 0.0
H3065 H 0.27753 0.8954 0.77172 0.0
H3066 H 0.23871 0.8534 0.74609 0.0
H3067 H 0.2555 0.82655 0.74486 0.0
H3068 H 0.2784 0.95791 0.04727 0.0
H3069 H 0.311 0.97652 0.04618 0.0
H3070 H 0.32186 0.92978 0.0094 0.0
H3071 H 0.28955 0.91115 0.01039 0.0
H3072 H 0.34606 0.96317 0.0572 0.0
H3073 H 0.33871 0.97948 0.9818 0.0
H3074 H 0.31845 0.97276 0.99474 0.0
H3075 H 0.32981 0.95442 0.98534 0.0
C3076 C 0.28768 0.95168 0.0388 0.0
C3077 C 0.28133 0.93303 0.02891 0.0
C3078 C 0.3063 0.96231 0.03824 0.0
C3079 C 0.31875 0.9546 0.02755 0.0
C3080 C 0.31239 0.93612 0.01752 0.0
H3081 H 0.4344 0.9802 0.00227 0.0
H3082 H 0.40068 0.96719 0.00487 0.0
C3083 C 0.29391 0.92545 0.01819 0.0
C3084 C 0.3387 0.96532 0.02738 0.0
H3085 H 0.37035 0.98427 0.99752 0.0
C3086 C 0.35137 0.96805 0.04424 0.0
C3087 C 0.34555 0.97156 0.01042 0.0
C3088 C 0.33242 0.96959 0.99206 0.0
C3089 C 0.37092 0.9761 0.04441 0.0
C3090 C 0.37787 0.98196 0.02733 0.0
C3091 C 0.36505 0.97971 0.01059 0.0
C3092 C 0.39846 0.9898 0.02627 0.0
C3093 C 0.38407 0.97748 0.06269 0.0
C3094 C 0.40844 0.00689 0.03739 0.0
C3095 C 0.42776 0.01426 0.03601 0.0
C3096 C 0.43735 0.00479 0.02333 0.0
C3097 C 0.42736 0.98776 0.01218 0.0
C3098 C 0.40809 0.98035 0.01362 0.0
H3099 H 0.37739 0.96797 0.07305 0.0
H3100 H 0.39763 0.97339 0.05993 0.0
H3101 H 0.38751 0.99271 0.06938 0.0
H3102 H 0.40123 0.01466 0.04694 0.0
H3103 H 0.43511 0.02749 0.0447 0.0
H3104 H 0.88593 0.63964 0.76509 0.0
H3105 H 0.86914 0.66619 0.76892 0.0
H3106 H 0.8192 0.63078 0.73481 0.0
H3107 H 0.83627 0.60479 0.73008 0.0
H3108 H 0.82364 0.66535 0.72499 0.0
H3109 H 0.83113 0.67183 0.8038 0.0
H3110 H 0.85377 0.67617 0.79484 0.0
H3111 H 0.838 0.65247 0.79017 0.0
C3112 C 0.87137 0.63756 0.75844 0.0
C3113 C 0.86241 0.6201 0.74733 0.0
C3114 C 0.8617 0.65269 0.76077 0.0
C3115 C 0.84267 0.65044 0.75253 0.0
C3116 C 0.83382 0.63298 0.74137 0.0
H3117 H 0.76289 0.71771 0.78776 0.0
H3118 H 0.7825 0.69404 0.78249 0.0
C3119 C 0.8436 0.61808 0.73869 0.0
C3120 C 0.83194 0.66619 0.75516 0.0
H3121 H 0.81834 0.69595 0.78874 0.0
C3122 C 0.82244 0.67197 0.73896 0.0
C3123 C 0.83011 0.67477 0.77337 0.0
C3124 C 0.83863 0.66836 0.79153 0.0
C3125 C 0.81105 0.68577 0.74043 0.0
C3126 C 0.80972 0.69481 0.7586 0.0
C3127 C 0.81942 0.68921 0.77477 0.0
C3128 C 0.79762 0.70932 0.76135 0.0
C3129 C 0.79996 0.68983 0.7225 0.0
C3130 C 0.79942 0.72591 0.75124 0.0
C3131 C 0.78774 0.73919 0.75385 0.0
C3132 C 0.77458 0.73659 0.76717 0.0
C3133 C 0.77294 0.72016 0.77743 0.0
C3134 C 0.78426 0.70666 0.7745 0.0
H3135 H 0.79781 0.67762 0.71113 0.0
H3136 H 0.78576 0.69232 0.7252 0.0
H3137 H 0.80806 0.70302 0.71705 0.0
H3138 H 0.80989 0.72866 0.74136 0.0
H3139 H 0.78901 0.75146 0.74542 0.0
H3140 H 0.82815 0.61998 0.99484 0.0
H3141 H 0.85496 0.60408 1.00055 0.0
H3142 H 0.82274 0.56512 0.03535 0.0
H3143 H 0.79599 0.58098 0.0299 0.0
H3144 H 0.85923 0.58348 0.05283 0.0
H3145 H 0.86118 0.5501 0.97999 0.0
H3146 H 0.86116 0.57559 0.98125 0.0
H3147 H 0.84074 0.55858 0.98689 0.0
C3148 C 0.82667 0.60783 0.00345 0.0
C3149 C 0.80996 0.60174 0.01191 0.0
C3150 C 0.84197 0.59874 0.00666 0.0
C3151 C 0.84074 0.58334 0.01826 0.0
C3152 C 0.82393 0.57695 0.02634 0.0
H3153 H 0.92718 0.51425 0.02773 0.0
H3154 H 0.89634 0.52365 0.02598 0.0
C3155 C 0.80865 0.58602 0.02315 0.0
C3156 C 0.85735 0.57462 0.02285 0.0
H3157 H 0.88811 0.55105 0.00277 0.0
C3158 C 0.86547 0.57623 0.04193 0.0
C3159 C 0.86527 0.56497 0.00862 0.0
C3160 C 0.85656 0.56201 0.98806 0.0
C3161 C 0.88172 0.56895 0.04709 0.0
C3162 C 0.89013 0.56007 0.03274 0.0
C3163 C 0.88165 0.55794 0.01374 0.0
C3164 C 0.90823 0.55368 0.03683 0.0
C3165 C 0.88972 0.57083 0.06781 0.0
C3166 C 0.92503 0.56734 0.044 0.0
C3167 C 0.94261 0.56197 0.0451 0.0
C3168 C 0.94363 0.54292 0.03888 0.0
C3169 C 0.92674 0.52901 0.03266 0.0
C3170 C 0.90915 0.53438 0.03159 0.0
H3171 H 0.87874 0.5725 0.07728 0.0
H3172 H 0.8955 0.55797 0.07136 0.0
H3173 H 0.90151 0.58395 0.07085 0.0
H3174 H 0.92469 0.58239 0.04778 0.0
H3175 H 0.95547 0.57299 0.04982 0.0
H3176 H 0.17304 0.07668 0.8146 0.0
H3177 H 0.18953 0.11048 0.81326 0.0
H3178 H 0.22502 0.09157 0.77389 0.0
H3179 H 0.20874 0.05766 0.77518 0.0
H3180 H 0.23339 0.12898 0.81839 0.0
H3181 H 0.19301 0.12988 0.74722 0.0
H3182 H 0.18449 0.11273 0.76373 0.0
H3183 H 0.20405 0.10965 0.75111 0.0
C3184 C 0.18455 0.07964 0.80587 0.0
C3185 C 0.18947 0.06443 0.7949 0.0
C3186 C 0.19396 0.09897 0.80516 0.0
C3187 C 0.20834 0.10346 0.79336 0.0
C3188 C 0.21388 0.08834 0.78302 0.0
H3189 H 0.25979 0.21363 0.75351 0.0
H3190 H 0.24995 0.1793 0.75856 0.0
C3191 C 0.20458 0.06897 0.78382 0.0
C3192 C 0.21661 0.12403 0.7909 0.0
H3193 H 0.21486 0.1586 0.75997 0.0
C3194 C 0.22943 0.13551 0.80563 0.0
C3195 C 0.2114 0.13238 0.7742 0.0
C3196 C 0.19741 0.12065 0.75813 0.0
C3197 C 0.23734 0.15521 0.80402 0.0
C3198 C 0.23182 0.16372 0.78744 0.0
C3199 C 0.21909 0.1521 0.77267 0.0
C3200 C 0.23881 0.18468 0.78512 0.0
C3201 C 0.25178 0.16657 0.81993 0.0
C3202 C 0.23578 0.1992 0.79832 0.0
C3203 C 0.24155 0.21888 0.79555 0.0
C3204 C 0.25018 0.22445 0.77935 0.0
C3205 C 0.25317 0.20988 0.76613 0.0
C3206 C 0.24756 0.19022 0.76901 0.0
H3207 H 0.25875 0.15681 0.82841 0.0
H3208 H 0.26298 0.17722 0.81434 0.0
H3209 H 0.24445 0.17466 0.82967 0.0
H3210 H 0.22858 0.19531 0.81058 0.0
H3211 H 0.23885 0.22971 0.8059 0.0
H3212 H 0.34482 0.02696 0.23046 0.0
H3213 H 0.32467 0.99472 0.23226 0.0
H3214 H 0.36424 0.98487 0.27847 0.0
H3215 H 0.38463 0.01666 0.2764 0.0
H3216 H 0.35577 0.95503 0.25171 0.0
H3217 H 0.28877 0.97432 0.26981 0.0
H3218 H 0.29678 0.98406 0.24867 0.0
H3219 H 0.31095 0.99211 0.27134 0.0
C3220 C 0.3491 0.01799 0.24113 0.0
C3221 C 0.36637 0.02434 0.25322 0.0
C3222 C 0.3375 0.99962 0.24223 0.0
C3223 C 0.34282 0.98745 0.25565 0.0
C3224 C 0.35983 0.994 0.268 0.0
H3225 H 0.27938 0.87954 0.2898 0.0
H3226 H 0.29395 0.91371 0.28687 0.0
C3227 C 0.37149 0.01219 0.26678 0.0
C3228 C 0.33153 0.96735 0.2561 0.0
H3229 H 0.28756 0.9407 0.26188 0.0
C3230 C 0.34086 0.95192 0.25397 0.0
C3231 C 0.31213 0.96331 0.25923 0.0
C3232 C 0.30159 0.97932 0.26258 0.0
C3233 C 0.3314 0.93261 0.2549 0.0
C3234 C 0.31185 0.92848 0.25747 0.0
C3235 C 0.30248 0.94388 0.25969 0.0
C3236 C 0.30116 0.90826 0.25841 0.0
C3237 C 0.34263 0.91687 0.25366 0.0
C3238 C 0.29981 0.89401 0.24316 0.0
C3239 C 0.29174 0.87454 0.24491 0.0
C3240 C 0.28458 0.86904 0.26182 0.0
C3241 C 0.28487 0.88343 0.27665 0.0
C3242 C 0.29316 0.90292 0.27497 0.0
H3243 H 0.35822 0.92292 0.25698 0.0
H3244 H 0.33831 0.90577 0.2636 0.0
H3245 H 0.33994 0.90953 0.23896 0.0
H3246 H 0.30546 0.89789 0.23008 0.0
H3247 H 0.29146 0.86373 0.23317 0.0
H3248 H 0.52426 0.32386 0.60514 0.0
H3249 H 0.52059 0.35202 0.58836 0.0
H3250 H 0.47169 0.35676 0.61687 0.0
H3251 H 0.47539 0.32854 0.63401 0.0
H3252 H 0.48968 0.35774 0.56387 0.0
H3253 H 0.50657 0.41145 0.62799 0.0
H3254 H 0.51139 0.38741 0.62826 0.0
H3255 H 0.48749 0.39072 0.62888 0.0
C3256 C 0.51271 0.33085 0.60791 0.0
C3257 C 0.50018 0.324 0.62103 0.0
C3258 C 0.51061 0.34694 0.59823 0.0
C3259 C 0.496 0.35662 0.60149 0.0
C3260 C 0.48325 0.34968 0.61436 0.0
H3261 H 0.47034 0.44755 0.53048 0.0
H3262 H 0.46736 0.41747 0.54639 0.0
C3263 C 0.48534 0.33352 0.62408 0.0
C3264 C 0.49444 0.37405 0.59143 0.0
H3265 H 0.49932 0.4233 0.59855 0.0
C3266 C 0.49162 0.37206 0.57143 0.0
C3267 C 0.49718 0.39273 0.60135 0.0
C3268 C 0.50098 0.39585 0.62279 0.0
C3269 C 0.49176 0.3883 0.56106 0.0
C3270 C 0.49456 0.40699 0.57098 0.0
C3271 C 0.49707 0.40893 0.59098 0.0
C3272 C 0.49617 0.42489 0.56094 0.0
C3273 C 0.48964 0.38543 0.5396 0.0
C3274 C 0.51326 0.43909 0.56398 0.0
C3275 C 0.51494 0.45622 0.555 0.0
C3276 C 0.49954 0.45953 0.54285 0.0
C3277 C 0.48246 0.44529 0.53969 0.0
C3278 C 0.48077 0.4281 0.54872 0.0
H3279 H 0.49157 0.37085 0.53431 0.0
H3280 H 0.47514 0.38677 0.53385 0.0
H3281 H 0.50015 0.39673 0.5339 0.0
H3282 H 0.52532 0.43692 0.57333 0.0
H3283 H 0.52829 0.46696 0.5577 0.0
H3284 H 0.48007 0.82102 0.32005 0.0
H3285 H 0.44695 0.81544 0.30579 0.0
H3286 H 0.43393 0.76174 0.33194 0.0
H3287 H 0.46708 0.76754 0.3468 0.0
H3288 H 0.42412 0.78704 0.28133 0.0
H3289 H 0.39487 0.78936 0.35057 0.0
H3290 H 0.42007 0.79626 0.34884 0.0
H3291 H 0.40836 0.77097 0.34747 0.0
C3292 C 0.47022 0.80795 0.32273 0.0
C3293 C 0.47621 0.7948 0.33472 0.0
C3294 C 0.45125 0.80477 0.31454 0.0
C3295 C 0.43781 0.78837 0.31808 0.0
C3296 C 0.4439 0.77477 0.3294 0.0
H3297 H 0.31467 0.75525 0.28388 0.0
H3298 H 0.34793 0.75453 0.29384 0.0
C3299 C 0.4629 0.77802 0.33776 0.0
C3300 C 0.41743 0.78589 0.31016 0.0
H3301 H 0.37255 0.78231 0.32284 0.0
C3302 C 0.41285 0.78596 0.29041 0.0
C3303 C 0.40269 0.78456 0.32201 0.0
C3304 C 0.4067 0.78546 0.34341 0.0
C3305 C 0.39401 0.78478 0.28223 0.0
C3306 C 0.37936 0.78359 0.2941 0.0
C3307 C 0.38383 0.78315 0.31377 0.0
C3308 C 0.35939 0.7835 0.28655 0.0
C3309 C 0.38987 0.78476 0.26095 0.0
C3310 C 0.3548 0.80003 0.27905 0.0
C3311 C 0.33578 0.80056 0.27341 0.0
C3312 C 0.32095 0.78453 0.27511 0.0
C3313 C 0.32568 0.76781 0.28221 0.0
C3314 C 0.3447 0.76737 0.28798 0.0
H3315 H 0.40168 0.78129 0.25346 0.0
H3316 H 0.37648 0.77407 0.25535 0.0
H3317 H 0.388 0.7994 0.25758 0.0
H3318 H 0.36591 0.81275 0.27808 0.0
H3319 H 0.33269 0.81369 0.26809 0.0
H3320 H 0.98611 0.69621 0.15267 0.0
H3321 H 0.98946 0.66677 0.13401 0.0
H3322 H 0.99325 0.69781 0.08395 0.0
H3323 H 0.99014 0.72728 0.10242 0.0
H3324 H 0.96972 0.64448 0.09911 0.0
H3325 H 0.04454 0.68058 0.09261 0.0
H3326 H 0.03068 0.69006 0.10924 0.0
H3327 H 0.02709 0.69386 0.08447 0.0
C3328 C 0.9873 0.69669 0.13761 0.0
C3329 C 0.98813 0.7142 0.12911 0.0
C3330 C 0.98923 0.67985 0.12698 0.0
C3331 C 0.99199 0.68025 0.10771 0.0
C3332 C 0.9915 0.69731 0.0989 0.0
H3333 H 0.99688 0.58408 0.02506 0.0
H3334 H 0.9872 0.61042 0.04331 0.0
C3335 C 0.98965 0.71413 0.10949 0.0
C3336 C 0.99685 0.66339 0.09715 0.0
H3337 H 0.03248 0.64993 0.07506 0.0
C3338 C 0.98344 0.6456 0.09386 0.0
C3339 C 0.01487 0.66485 0.09057 0.0
C3340 C 0.03022 0.68329 0.09452 0.0
C3341 C 0.98747 0.62929 0.08386 0.0
C3342 C 0.00532 0.63094 0.07681 0.0
C3343 C 0.01877 0.64869 0.08035 0.0
C3344 C 0.01061 0.61446 0.06599 0.0
C3345 C 0.97272 0.61039 0.08124 0.0
C3346 C 0.02724 0.60828 0.07237 0.0
C3347 C 0.03287 0.59339 0.06188 0.0
C3348 C 0.02193 0.58436 0.04484 0.0
C3349 C 0.00537 0.5906 0.03835 0.0
C3350 C 0.99978 0.60556 0.04881 0.0
H3351 H 0.96251 0.60994 0.09195 0.0
H3352 H 0.96446 0.60891 0.06691 0.0
H3353 H 0.97951 0.59771 0.08229 0.0
H3354 H 0.03589 0.61501 0.08551 0.0
H3355 H 0.0457 0.58885 0.06718 0.0
H3356 H 0.06688 0.25829 0.81686 0.0
H3357 H 0.09724 0.26187 0.80383 0.0
H3358 H 0.11947 0.31516 0.84023 0.0
H3359 H 0.08907 0.31157 0.85358 0.0
H3360 H 0.11635 0.29191 0.7849 0.0
H3361 H 0.16007 0.28339 0.8518 0.0
H3362 H 0.13433 0.27712 0.84895 0.0
H3363 H 0.14677 0.30217 0.85328 0.0
C3364 C 0.07818 0.27082 0.82211 0.0
C3365 C 0.07553 0.28461 0.83634 0.0
C3366 C 0.09556 0.27284 0.81462 0.0
C3367 C 0.11076 0.28861 0.82123 0.0
C3368 C 0.10808 0.30266 0.83517 0.0
H3369 H 0.22733 0.31152 0.78903 0.0
H3370 H 0.19849 0.31456 0.80346 0.0
C3371 C 0.09064 0.30066 0.84268 0.0
C3372 C 0.12925 0.29022 0.81331 0.0
H3373 H 0.17611 0.28888 0.82477 0.0
C3374 C 0.12943 0.29133 0.79365 0.0
C3375 C 0.14637 0.28958 0.82473 0.0
C3376 C 0.14697 0.28785 0.84584 0.0
C3377 C 0.14613 0.29158 0.78506 0.0
C3378 C 0.16309 0.2903 0.79636 0.0
C3379 C 0.16309 0.28979 0.81611 0.0
C3380 C 0.18066 0.28853 0.78778 0.0
C3381 C 0.14545 0.29329 0.76393 0.0
C3382 C 0.18033 0.27273 0.77443 0.0
C3383 C 0.19676 0.27092 0.76629 0.0
C3384 C 0.21393 0.28477 0.77145 0.0
C3385 C 0.21433 0.30053 0.78491 0.0
C3386 C 0.19786 0.30231 0.79311 0.0
H3387 H 0.13354 0.29994 0.75855 0.0
H3388 H 0.15903 0.30216 0.76042 0.0
H3389 H 0.14316 0.27854 0.7563 0.0
H3390 H 0.16737 0.26168 0.77039 0.0
H3391 H 0.19605 0.25856 0.75604 0.0
H3392 H 0.55884 0.73509 0.98715 0.0
H3393 H 0.54635 0.704 0.99898 0.0
H3394 H 0.49473 0.69651 0.96011 0.0
H3395 H 0.50724 0.72774 0.94794 0.0
H3396 H 0.51173 0.6922 0.01547 0.0
H3397 H 0.51441 0.6461 0.94897 0.0
H3398 H 0.52715 0.67121 0.95325 0.0
H3399 H 0.50176 0.6654 0.94707 0.0
C3400 C 0.54481 0.72689 0.98108 0.0
C3401 C 0.53406 0.73383 0.96654 0.0
C3402 C 0.53769 0.70915 0.9879 0.0
C3403 C 0.51972 0.69794 0.98029 0.0
C3404 C 0.50875 0.70488 0.96597 0.0
H3405 H 0.4805 0.57863 0.01081 0.0
H3406 H 0.47924 0.60948 0.99735 0.0
C3407 C 0.51588 0.72273 0.95911 0.0
C3408 C 0.51287 0.6789 0.98744 0.0
H3409 H 0.50686 0.63005 0.97588 0.0
C3410 C 0.51036 0.67858 0.00676 0.0
C3411 C 0.51097 0.66121 0.97596 0.0
C3412 C 0.51379 0.66083 0.95517 0.0
C3413 C 0.50688 0.66104 0.01515 0.0
C3414 C 0.50618 0.64346 0.00397 0.0
C3415 C 0.5075 0.64363 0.98439 0.0
C3416 C 0.50622 0.62511 0.01269 0.0
C3417 C 0.50449 0.66149 0.03604 0.0
C3418 C 0.52187 0.62375 0.02559 0.0
C3419 C 0.52272 0.6062 0.03308 0.0
C3420 C 0.50796 0.58972 0.02771 0.0
C3421 C 0.49214 0.59114 0.01501 0.0
C3422 C 0.49136 0.6087 0.00739 0.0
H3423 H 0.49955 0.67466 0.04102 0.0
H3424 H 0.49416 0.64837 0.03904 0.0
H3425 H 0.51845 0.66185 0.0444 0.0
H3426 H 0.53366 0.63617 0.02954 0.0
H3427 H 0.53509 0.60545 0.0428 0.0
H3428 H 0.07169 0.80983 0.64344 0.0
H3429 H 0.1011 0.8108 0.66441 0.0
H3430 H 0.06876 0.77707 0.70298 0.0
H3431 H 0.03928 0.77596 0.68222 0.0
H3432 H 0.10989 0.82339 0.70754 0.0
H3433 H 0.10947 0.74607 0.68469 0.0
H3434 H 0.09656 0.76041 0.67047 0.0
H3435 H 0.08769 0.75143 0.69154 0.0
C3436 C 0.0708 0.8027 0.65642 0.0
C3437 C 0.05317 0.79267 0.66108 0.0
C3438 C 0.08759 0.80335 0.66839 0.0
C3439 C 0.08697 0.79392 0.68509 0.0
C3440 C 0.06942 0.78433 0.69005 0.0
H3441 H 0.17917 0.76505 0.75822 0.0
H3442 H 0.1476 0.76882 0.74491 0.0
C3443 C 0.05263 0.78372 0.67816 0.0
C3444 C 0.10481 0.79321 0.69683 0.0
H3445 H 0.13437 0.76279 0.70771 0.0
C3446 C 0.11528 0.81017 0.70769 0.0
C3447 C 0.11158 0.77586 0.69698 0.0
C3448 C 0.10087 0.75738 0.68524 0.0
C3449 C 0.13255 0.81024 0.7188 0.0
C3450 C 0.13959 0.79299 0.71856 0.0
C3451 C 0.12889 0.77597 0.7079 0.0
C3452 C 0.15849 0.79236 0.72837 0.0
C3453 C 0.14296 0.82868 0.73077 0.0
C3454 C 0.17501 0.80444 0.72357 0.0
C3455 C 0.19298 0.80238 0.73122 0.0
C3456 C 0.19467 0.78802 0.74356 0.0
C3457 C 0.17818 0.7762 0.74869 0.0
C3458 C 0.1602 0.77836 0.74114 0.0
H3459 H 0.13304 0.83814 0.73426 0.0
H3460 H 0.15042 0.82546 0.74426 0.0
H3461 H 0.15373 0.83699 0.72268 0.0
H3462 H 0.17404 0.81499 0.71338 0.0
H3463 H 0.20553 0.81165 0.72705 0.0
H3464 H 0.04019 0.35195 0.44118 0.0
H3465 H 0.04442 0.38456 0.45743 0.0
H3466 H 0.04414 0.36042 0.51167 0.0
H3467 H 0.0383 0.32769 0.49517 0.0
H3468 H 0.02098 0.38163 0.51063 0.0
H3469 H 0.08478 0.42511 0.48621 0.0
H3470 H 0.06869 0.41369 0.4657 0.0
H3471 H 0.07876 0.39892 0.48195 0.0
C3472 C 0.04155 0.35375 0.4566 0.0
C3473 C 0.03893 0.33749 0.467 0.0
C3474 C 0.04414 0.37241 0.46593 0.0
C3475 C 0.04489 0.37509 0.48587 0.0
C3476 C 0.04358 0.35879 0.4963 0.0
H3477 H 0.05344 0.4964 0.53011 0.0
H3478 H 0.06128 0.46442 0.5256 0.0
C3479 C 0.04032 0.34012 0.48692 0.0
C3480 C 0.04422 0.39431 0.49546 0.0
H3481 H 0.06095 0.44313 0.49494 0.0
C3482 C 0.03008 0.39503 0.50752 0.0
C3483 C 0.05626 0.41191 0.49189 0.0
C3484 C 0.0731 0.4123 0.48091 0.0
C3485 C 0.02693 0.41278 0.51512 0.0
C3486 C 0.03753 0.43033 0.50976 0.0
C3487 C 0.05248 0.42968 0.49872 0.0
C3488 C 0.03253 0.44933 0.5143 0.0
C3489 C 0.01217 0.4124 0.52873 0.0
C3490 C 0.01376 0.45149 0.50958 0.0
C3491 C 0.00918 0.46961 0.5126 0.0
C3492 C 0.02342 0.48603 0.51981 0.0
C3493 C 0.0422 0.48392 0.52456 0.0
C3494 C 0.04669 0.46569 0.52195 0.0
H3495 H 0.01127 0.39958 0.53706 0.0
H3496 H 0.01541 0.42577 0.53884 0.0
H3497 H 0.99796 0.41112 0.52052 0.0
H3498 H 0.00271 0.4393 0.50299 0.0
H3499 H 0.99467 0.47091 0.50848 0.0
H3500 H 0.45668 0.31653 0.14065 0.0
H3501 H 0.43113 0.32304 0.15878 0.0
H3502 H 0.4212 0.26436 0.17479 0.0
H3503 H 0.44658 0.25773 0.15692 0.0
H3504 H 0.38715 0.28103 0.159 0.0
H3505 H 0.43583 0.32479 0.22035 0.0
H3506 H 0.44004 0.32962 0.19637 0.0
H3507 H 0.4436 0.30726 0.20496 0.0
C3508 C 0.44894 0.305 0.14793 0.0
C3509 C 0.45366 0.28664 0.14743 0.0
C3510 C 0.43446 0.30877 0.15831 0.0
C3511 C 0.42449 0.29419 0.16817 0.0
C3512 C 0.42884 0.27577 0.16729 0.0
H3513 H 0.33371 0.26692 0.23569 0.0
H3514 H 0.35962 0.26802 0.21594 0.0
C3515 C 0.44335 0.27204 0.15708 0.0
C3516 C 0.40956 0.29791 0.17966 0.0
H3517 H 0.40308 0.31692 0.22345 0.0
C3518 C 0.39055 0.28908 0.173 0.0
C3519 C 0.41416 0.3085 0.19781 0.0
C3520 C 0.4345 0.31811 0.20546 0.0
C3521 C 0.37595 0.29013 0.18429 0.0
C3522 C 0.38065 0.29982 0.2029 0.0
C3523 C 0.39959 0.30937 0.20925 0.0
C3524 C 0.36618 0.29941 0.21621 0.0
C3525 C 0.35566 0.28075 0.17622 0.0
C3526 C 0.36203 0.31677 0.22374 0.0
C3527 C 0.34742 0.31617 0.23528 0.0
C3528 C 0.33682 0.29822 0.23939 0.0
C3529 C 0.3416 0.28094 0.23259 0.0
C3530 C 0.35626 0.28154 0.22119 0.0
H3531 H 0.35383 0.2794 0.16039 0.0
H3532 H 0.35191 0.26588 0.18082 0.0
H3533 H 0.34552 0.2892 0.18133 0.0
H3534 H 0.36968 0.3307 0.2202 0.0
H3535 H 0.34396 0.32969 0.24039 0.0
H3536 H 0.61654 0.48678 0.34587 0.0
H3537 H 0.59581 0.4828 0.37127 0.0
H3538 H 0.57893 0.53629 0.35977 0.0
H3539 H 0.59917 0.54019 0.33435 0.0
H3540 H 0.59672 0.50678 0.40379 0.0
H3541 H 0.52773 0.49936 0.35899 0.0
H3542 H 0.54929 0.49724 0.34908 0.0
H3543 H 0.54461 0.52085 0.35517 0.0
C3544 C 0.60834 0.49764 0.34873 0.0
C3545 C 0.60941 0.51373 0.33801 0.0
C3546 C 0.59649 0.49532 0.36321 0.0
C3547 C 0.58546 0.50901 0.3671 0.0
C3548 C 0.58684 0.52524 0.35665 0.0
H3549 H 0.52415 0.54672 0.45266 0.0
H3550 H 0.53901 0.5403 0.42415 0.0
C3551 C 0.59858 0.52752 0.34221 0.0
C3552 C 0.57314 0.507 0.38264 0.0
H3553 H 0.5281 0.50824 0.39251 0.0
C3554 C 0.58164 0.50672 0.4013 0.0
C3555 C 0.55343 0.50686 0.37935 0.0
C3556 C 0.54319 0.50588 0.35953 0.0
C3557 C 0.5712 0.50739 0.41686 0.0
C3558 C 0.55174 0.50819 0.41362 0.0
C3559 C 0.54305 0.50772 0.39492 0.0
C3560 C 0.54063 0.51093 0.4296 0.0
C3561 C 0.58124 0.50817 0.43675 0.0
C3562 C 0.536 0.49625 0.44169 0.0
C3563 C 0.52739 0.49982 0.45796 0.0
C3564 C 0.52338 0.51818 0.46245 0.0
C3565 C 0.52713 0.53247 0.4497 0.0
C3566 C 0.53562 0.52883 0.43339 0.0
H3567 H 0.59694 0.51024 0.43698 0.0
H3568 H 0.5782 0.5202 0.44606 0.0
H3569 H 0.57587 0.49434 0.44288 0.0
H3570 H 0.53958 0.48226 0.43885 0.0
H3571 H 0.52473 0.48848 0.46746 0.0
H3572 H 0.22735 0.83924 0.06547 0.0
H3573 H 0.23114 0.82283 0.09438 0.0
H3574 H 0.22757 0.87471 0.1285 0.0
H3575 H 0.22335 0.89108 0.09971 0.0
H3576 H 0.25969 0.83235 0.12345 0.0
H3577 H 0.19145 0.83416 0.15177 0.0
H3578 H 0.19532 0.83941 0.1278 0.0
H3579 H 0.20426 0.85777 0.14746 0.0
C3580 C 0.22704 0.84709 0.07909 0.0
C3581 C 0.22494 0.86651 0.08017 0.0
C3582 C 0.22928 0.83768 0.09565 0.0
C3583 C 0.22943 0.8474 0.11369 0.0
C3584 C 0.22706 0.86669 0.11479 0.0
H3585 H 0.25278 0.82035 0.23074 0.0
H3586 H 0.2478 0.8364 0.20171 0.0
C3587 C 0.22473 0.87608 0.09825 0.0
C3588 C 0.23316 0.83777 0.13134 0.0
H3589 H 0.21563 0.82559 0.17285 0.0
C3590 C 0.24997 0.83076 0.13417 0.0
C3591 C 0.22054 0.83571 0.14543 0.0
C3592 C 0.2018 0.84198 0.14291 0.0
C3593 C 0.25464 0.82208 0.15075 0.0
C3594 C 0.2421 0.82016 0.16486 0.0
C3595 C 0.2253 0.82715 0.16207 0.0
C3596 C 0.24603 0.81067 0.18249 0.0
C3597 C 0.27317 0.8154 0.15322 0.0
C3598 C 0.24659 0.79085 0.18143 0.0
C3599 C 0.24972 0.7818 0.19804 0.0
C3600 C 0.25259 0.79241 0.21603 0.0
C3601 C 0.25179 0.81214 0.21711 0.0
C3602 C 0.24854 0.8212 0.2005 0.0
H3603 H 0.28319 0.82199 0.14343 0.0
H3604 H 0.28023 0.81912 0.16809 0.0
H3605 H 0.27022 0.79935 0.15008 0.0
H3606 H 0.24427 0.7823 0.16775 0.0
H3607 H 0.24983 0.76644 0.19683 0.0
H3608 H 0.96074 0.54746 0.80521 0.0
H3609 H 0.97373 0.54613 0.83816 0.0
H3610 H 0.94857 0.59352 0.85624 0.0
H3611 H 0.93538 0.59497 0.82315 0.0
H3612 H 0.98882 0.59432 0.8738 0.0
H3613 H 0.93632 0.52522 0.87769 0.0
H3614 H 0.94959 0.52592 0.85759 0.0
H3615 H 0.93315 0.54157 0.85979 0.0
C3616 C 0.95814 0.55781 0.81611 0.0
C3617 C 0.94688 0.57125 0.81152 0.0
C3618 C 0.96555 0.55697 0.83496 0.0
C3619 C 0.96191 0.56955 0.84965 0.0
C3620 C 0.95149 0.58364 0.84509 0.0
H3621 H 0.9703 0.55188 0.96988 0.0
H3622 H 0.96048 0.55898 0.93764 0.0
C3623 C 0.94398 0.58445 0.82617 0.0
C3624 C 0.9681 0.56715 0.86981 0.0
H3625 H 0.96035 0.53555 0.90386 0.0
C3626 C 0.98259 0.58152 0.88042 0.0
C3627 C 0.9598 0.55052 0.87846 0.0
C3628 C 0.94374 0.53495 0.86791 0.0
C3629 C 0.98926 0.57948 0.89939 0.0
C3630 C 0.98129 0.56258 0.90786 0.0
C3631 C 0.96655 0.54843 0.89732 0.0
C3632 C 0.98782 0.55931 0.92771 0.0
C3633 C 0.00461 0.5955 0.91029 0.0
C3634 C 0.00647 0.55705 0.93287 0.0
C3635 C 0.01217 0.55291 0.95134 0.0
C3636 C 0.99929 0.55092 0.96503 0.0
C3637 C 0.98065 0.55335 0.95979 0.0
C3638 C 0.97497 0.5574 0.94133 0.0
H3639 H 0.00606 0.6093 0.90341 0.0
H3640 H 1.00157 0.59825 0.92514 0.0
H3641 H 0.01848 0.59104 0.91085 0.0
H3642 H 0.01653 0.5581 0.9225 0.0
H3643 H 0.0266 0.55107 0.95481 0.0
H3644 H 0.27739 0.17148 0.56719 0.0
H3645 H 0.28175 0.1926 0.59684 0.0
H3646 H 0.28988 0.24315 0.56539 0.0
H3647 H 0.28473 0.22203 0.53553 0.0
H3648 H 0.30995 0.22147 0.6148 0.0
H3649 H 0.24573 0.25029 0.59306 0.0
H3650 H 0.25156 0.23019 0.57958 0.0
H3651 H 0.26413 0.25471 0.57778 0.0
C3652 C 0.2802 0.1871 0.56658 0.0
C3653 C 0.2804 0.1951 0.54904 0.0
C3654 C 0.28276 0.19915 0.58353 0.0
C3655 C 0.28578 0.21942 0.58327 0.0
C3656 C 0.28707 0.22752 0.56585 0.0
H3657 H 0.30201 0.28435 0.69745 0.0
H3658 H 0.30864 0.27529 0.66518 0.0
C3659 C 0.28418 0.21545 0.54884 0.0
C3660 C 0.28636 0.23171 0.60121 0.0
H3661 H 0.26146 0.26058 0.62378 0.0
C3662 C 0.2995 0.23022 0.61677 0.0
C3663 C 0.27265 0.24306 0.60365 0.0
C3664 C 0.25761 0.24459 0.58771 0.0
C3665 C 0.29865 0.23889 0.63499 0.0
C3666 C 0.28459 0.24978 0.63751 0.0
C3667 C 0.27221 0.25222 0.62173 0.0
C3668 C 0.28073 0.25653 0.65663 0.0
C3669 C 0.312 0.23529 0.65153 0.0
C3670 C 0.26268 0.24956 0.66223 0.0
C3671 C 0.25879 0.25497 0.68041 0.0
C3672 C 0.27295 0.26735 0.69333 0.0
C3673 C 0.29092 0.27467 0.68769 0.0
C3674 C 0.29475 0.26942 0.66935 0.0
H3675 H 0.31931 0.22345 0.64769 0.0
H3676 H 0.32309 0.24874 0.65608 0.0
H3677 H 0.30417 0.23138 0.66384 0.0
H3678 H 0.25166 0.23959 0.65263 0.0
H3679 H 0.24483 0.24914 0.68446 0.0
H3680 H 0.59338 0.51747 0.25012 0.0
H3681 H 0.57278 0.51688 0.2204 0.0
H3682 H 0.60854 0.4869 0.19011 0.0
H3683 H 0.62932 0.48741 0.21976 0.0
H3684 H 0.58888 0.53496 0.18823 0.0
H3685 H 0.55222 0.45723 0.17012 0.0
H3686 H 0.56198 0.46723 0.19417 0.0
H3687 H 0.57755 0.46218 0.17728 0.0
C3688 C 0.59672 0.51043 0.23722 0.0
C3689 C 0.6131 0.50261 0.2373 0.0
C3690 C 0.5849 0.5101 0.22027 0.0
C3691 C 0.58909 0.50172 0.20315 0.0
C3692 C 0.60494 0.49317 0.20326 0.0
H3693 H 0.54855 0.5004 0.08389 0.0
H3694 H 0.56287 0.4937 0.11489 0.0
C3695 C 0.61685 0.4936 0.2202 0.0
C3696 C 0.5782 0.50393 0.18494 0.0
H3697 H 0.54849 0.47876 0.14656 0.0
C3698 C 0.57991 0.52271 0.17916 0.0
C3699 C 0.56676 0.48786 0.17314 0.0
C3700 C 0.56434 0.46746 0.17896 0.0
C3701 C 0.57074 0.52588 0.16166 0.0
C3702 C 0.55907 0.50985 0.14988 0.0
C3703 C 0.55734 0.49102 0.15568 0.0
C3704 C 0.54898 0.51242 0.13129 0.0
C3705 C 0.57416 0.54631 0.1557 0.0
C3706 C 0.53598 0.52465 0.13029 0.0
C3707 C 0.528 0.52868 0.11265 0.0
C3708 C 0.53269 0.52029 0.09576 0.0
C3709 C 0.54487 0.5072 0.09675 0.0
C3710 C 0.55299 0.50331 0.11441 0.0
H3711 H 0.58732 0.55573 0.16369 0.0
H3712 H 0.57541 0.54629 0.14024 0.0
H3713 H 0.56198 0.55287 0.15868 0.0
H3714 H 0.53232 0.53143 0.14317 0.0
H3715 H 0.51845 0.53862 0.11224 0.0
H3716 H 0.22213 0.87853 0.95843 0.0
H3717 H 0.22571 0.86465 0.92679 0.0
H3718 H 0.23443 0.81207 0.95034 0.0
H3719 H 0.23236 0.82663 0.98218 0.0
H3720 H 0.25896 0.82042 0.92869 0.0
H3721 H 0.19244 0.82816 0.88737 0.0
H3722 H 0.2055 0.85147 0.89821 0.0
H3723 H 0.1964 0.8327 0.91295 0.0
C3724 C 0.22442 0.86386 0.95675 0.0
C3725 C 0.22682 0.8536 0.97275 0.0
C3726 C 0.22636 0.85583 0.93858 0.0
C3727 C 0.23 0.83705 0.93587 0.0
C3728 C 0.23166 0.82656 0.95186 0.0
H3729 H 0.22639 0.78146 0.82028 0.0
H3730 H 0.219 0.79151 0.85191 0.0
C3731 C 0.23034 0.83483 0.97009 0.0
C3732 C 0.23357 0.82893 0.91679 0.0
H3733 H 0.21759 0.82331 0.86916 0.0
C3734 C 0.2497 0.82084 0.91574 0.0
C3735 C 0.22148 0.82907 0.89972 0.0
C3736 C 0.20289 0.83561 0.89966 0.0
C3737 C 0.25418 0.81323 0.89833 0.0
C3738 C 0.24286 0.81467 0.88113 0.0
C3739 C 0.22654 0.82243 0.88219 0.0
C3740 C 0.24756 0.80813 0.86197 0.0
C3741 C 0.27073 0.80324 0.89881 0.0
C3742 C 0.26603 0.81412 0.85681 0.0
C3743 C 0.27039 0.80781 0.83896 0.0
C3744 C 0.25622 0.79599 0.82554 0.0
C3745 C 0.23762 0.79049 0.83039 0.0
C3746 C 0.23339 0.79631 0.84847 0.0
H3747 H 0.27314 0.79714 0.91263 0.0
H3748 H 0.26837 0.79122 0.88723 0.0
H3749 H 0.28392 0.81401 0.89721 0.0
H3750 H 0.27709 0.82389 0.86649 0.0
H3751 H 0.28475 0.81266 0.83544 0.0
H3752 H 0.95944 0.57215 0.71936 0.0
H3753 H 0.97533 0.56971 0.69075 0.0
H3754 H 0.92335 0.57173 0.65582 0.0
H3755 H 0.90758 0.57481 0.6843 0.0
H3756 H 0.96809 0.54215 0.66182 0.0
H3757 H 0.96051 0.61143 0.63344 0.0
H3758 H 0.95561 0.60613 0.65713 0.0
H3759 H 0.93798 0.59663 0.63694 0.0
C3760 C 0.95146 0.57236 0.70561 0.0
C3761 C 0.93225 0.57384 0.7042 0.0
C3762 C 0.96055 0.57089 0.68923 0.0
C3763 C 0.95067 0.57082 0.67106 0.0
C3764 C 0.93149 0.57228 0.66963 0.0
H3765 H 0.98755 0.5267 0.56547 0.0
H3766 H 0.9711 0.53046 0.59359 0.0
C3767 C 0.92244 0.57396 0.68599 0.0
C3768 C 0.96016 0.56841 0.65362 0.0
H3769 H 0.96994 0.58837 0.61234 0.0
C3770 C 0.96858 0.55233 0.65105 0.0
C3771 C 0.96104 0.58177 0.63961 0.0
C3772 C 0.95348 0.60006 0.64199 0.0
C3773 C 0.97765 0.54915 0.63486 0.0
C3774 C 0.97786 0.5621 0.6205 0.0
C3775 C 0.96959 0.57827 0.62317 0.0
C3776 C 0.98728 0.5597 0.603 0.0
C3777 C 0.98735 0.53222 0.63362 0.0
C3778 C 1.00136 0.57505 0.59844 0.0
C3779 C 0.01034 0.57309 0.5821 0.0
C3780 C 0.00548 0.55571 0.56993 0.0
C3781 C 0.99136 0.54035 0.5744 0.0
C3782 C 0.98219 0.54239 0.59067 0.0
H3783 H 0.99072 0.52736 0.64788 0.0
H3784 H 0.97769 0.51977 0.62469 0.0
H3785 H 1.00079 0.53605 0.62709 0.0
H3786 H 0.00555 0.58856 0.60763 0.0
H3787 H 0.02116 0.58521 0.57903 0.0
H3788 H 0.26028 0.21816 0.44841 0.0
H3789 H 0.27264 0.23696 0.42329 0.0
H3790 H 0.31619 0.20388 0.41973 0.0
H3791 H 0.30371 0.18466 0.44496 0.0
H3792 H 0.31029 0.2599 0.42245 0.0
H3793 H 0.28906 0.19885 0.36454 0.0
H3794 H 0.27946 0.19748 0.387 0.0
H3795 H 0.3036 0.19538 0.38564 0.0
C3796 C 0.27246 0.21478 0.4423 0.0
C3797 C 0.28094 0.19982 0.4486 0.0
C3798 C 0.27957 0.22563 0.428 0.0
C3799 C 0.29527 0.22177 0.41964 0.0
C3800 C 0.30394 0.20694 0.42591 0.0
H3801 H 0.31593 0.27233 0.31279 0.0
H3802 H 0.32502 0.25841 0.34205 0.0
C3803 C 0.29679 0.196 0.4403 0.0
C3804 C 0.3019 0.23314 0.404 0.0
H3805 H 0.29897 0.23021 0.35558 0.0
C3806 C 0.30823 0.25339 0.40784 0.0
C3807 C 0.29937 0.22457 0.38502 0.0
C3808 C 0.29242 0.2029 0.38014 0.0
C3809 C 0.3109 0.26544 0.39305 0.0
C3810 C 0.30685 0.257 0.374 0.0
C3811 C 0.30202 0.23665 0.37023 0.0
C3812 C 0.3045 0.26878 0.35786 0.0
C3813 C 0.31729 0.28714 0.39794 0.0
C3814 C 0.29029 0.27963 0.35724 0.0
C3815 C 0.28502 0.28753 0.34058 0.0
C3816 C 0.29384 0.28467 0.3242 0.0
C3817 C 0.30895 0.27491 0.32522 0.0
C3818 C 0.31414 0.26689 0.3419 0.0
H3819 H 0.32624 0.29065 0.41199 0.0
H3820 H 0.3255 0.29414 0.38695 0.0
H3821 H 0.30457 0.29349 0.39885 0.0
H3822 H 0.28237 0.28092 0.36923 0.0
H3823 H 0.27334 0.29497 0.34025 0.0
H3824 H 0.34808 0.62121 0.54331 0.0
H3825 H 0.37331 0.60368 0.53913 0.0
H3826 H 0.37645 0.6219 0.48261 0.0
H3827 H 0.35163 0.64017 0.48704 0.0
H3828 H 0.37445 0.57397 0.51549 0.0
H3829 H 0.43175 0.63558 0.50266 0.0
H3830 H 0.4098 0.63914 0.51079 0.0
H3831 H 0.41065 0.63242 0.48597 0.0
C3832 C 0.35423 0.62164 0.53003 0.0
C3833 C 0.34788 0.63221 0.51555 0.0
C3834 C 0.36867 0.61155 0.52763 0.0
C3835 C 0.37709 0.6116 0.51065 0.0
C3836 C 0.37063 0.622 0.49606 0.0
H3837 H 0.44537 0.52432 0.48695 0.0
H3838 H 0.42027 0.54301 0.48516 0.0
C3839 C 0.35632 0.63236 0.49855 0.0
C3840 C 0.39216 0.60029 0.50823 0.0
H3841 H 0.43805 0.60404 0.49831 0.0
C3842 C 0.38836 0.58058 0.51172 0.0
C3843 C 0.41044 0.60887 0.50351 0.0
C3844 C 0.41602 0.6302 0.5007 0.0
C3845 C 0.40224 0.56933 0.51087 0.0
C3846 C 0.42036 0.57778 0.50572 0.0
C3847 C 0.42412 0.59744 0.50204 0.0
C3848 C 0.43602 0.56692 0.50535 0.0
C3849 C 0.39753 0.54874 0.51629 0.0
C3850 C 0.45365 0.57448 0.51649 0.0
C3851 C 0.4681 0.56401 0.5172 0.0
C3852 C 0.46527 0.54566 0.50686 0.0
C3853 C 0.4479 0.53834 0.4952 0.0
C3854 C 0.43348 0.54895 0.49432 0.0
H3855 H 0.38533 0.54636 0.5248 0.0
H3856 H 0.39351 0.5385 0.50317 0.0
H3857 H 0.40997 0.54513 0.52467 0.0
H3858 H 0.45608 0.5883 0.52508 0.0
H3859 H 0.48132 0.57011 0.5263 0.0
H3860 H 0.81621 0.933 0.54401 0.0
H3861 H 0.84788 0.95356 0.54451 0.0
H3862 H 0.83097 1.00005 0.57647 0.0
H3863 H 0.79894 0.97962 0.57582 0.0
H3864 H 0.84969 0.01206 0.54558 0.0
H3865 H 0.89023 0.9689 0.58903 0.0
H3866 H 0.87513 0.95426 0.56928 0.0
H3867 H 0.86464 0.96559 0.58775 0.0
C3868 C 0.81921 0.94753 0.55131 0.0
C3869 C 0.80505 0.95464 0.55994 0.0
C3870 C 0.83737 0.95922 0.55166 0.0
C3871 C 0.84182 0.97818 0.56079 0.0
C3872 C 0.8278 0.98539 0.56947 0.0
H3873 H 0.9619 0.03563 0.57066 0.0
H3874 H 0.9295 0.02602 0.57887 0.0
C3875 C 0.80955 0.97368 0.56911 0.0
C3876 C 0.86096 0.9906 0.56045 0.0
H3877 H 0.90818 0.99077 0.56976 0.0
C3878 C 0.86252 0.00764 0.55115 0.0
C3879 C 0.87763 0.98497 0.56802 0.0
C3880 C 0.87685 0.96754 0.57926 0.0
C3881 C 0.8804 0.01861 0.54826 0.0
C3882 C 0.89701 0.0121 0.55454 0.0
C3883 C 0.89544 0.99567 0.56477 0.0
C3884 C 0.91609 0.02118 0.54967 0.0
C3885 C 0.88127 0.03691 0.53836 0.0
C3886 C 0.91926 0.02208 0.53053 0.0
C3887 C 0.93777 0.02775 0.52579 0.0
C3888 C 0.95341 0.03222 0.54012 0.0
C3889 C 0.95013 0.0321 0.55929 0.0
C3890 C 0.93163 0.02666 0.56402 0.0
H3891 H 0.86884 0.04341 0.54056 0.0
H3892 H 0.89456 0.04794 0.54351 0.0
H3893 H 0.88089 0.03329 0.52282 0.0
H3894 H 0.90755 0.01745 0.51919 0.0
H3895 H 0.93985 0.02759 0.51089 0.0
H3896 H 0.82219 0.10391 0.21829 0.0
H3897 H 0.80752 0.13095 0.22672 0.0
H3898 H 0.84285 0.1427 0.28096 0.0
H3899 H 0.85795 0.11576 0.27245 0.0
H3900 H 0.78712 0.13577 0.25659 0.0
H3901 H 0.85115 0.19627 0.26121 0.0
H3902 H 0.85057 0.17215 0.25046 0.0
H3903 H 0.85355 0.17706 0.27592 0.0
C3904 C 0.82695 0.11227 0.23199 0.0
C3905 C 0.84131 0.1077 0.24468 0.0
C3906 C 0.81851 0.12773 0.2368 0.0
C3907 C 0.82423 0.13902 0.25437 0.0
C3908 C 0.83848 0.13445 0.26716 0.0
H3909 H 0.77906 0.23886 0.2963 0.0
H3910 H 0.79609 0.21213 0.29519 0.0
C3911 C 0.84701 0.11898 0.26232 0.0
C3912 C 0.81477 0.15518 0.25926 0.0
H3913 H 0.82249 0.20465 0.26814 0.0
C3914 C 0.79489 0.15081 0.25921 0.0
C3915 C 0.82492 0.17481 0.2628 0.0
C3916 C 0.8462 0.18047 0.26248 0.0
C3917 C 0.78484 0.16553 0.2622 0.0
C3918 C 0.7949 0.18517 0.26512 0.0
C3919 C 0.81484 0.18955 0.26588 0.0
C3920 C 0.78478 0.20137 0.26602 0.0
C3921 C 0.76349 0.15996 0.26205 0.0
C3922 C 0.77299 0.20425 0.24996 0.0
C3923 C 0.76355 0.21959 0.2505 0.0
C3924 C 0.76582 0.23242 0.26707 0.0
C3925 C 0.77747 0.22944 0.28322 0.0
C3926 C 0.78706 0.21413 0.28264 0.0
H3927 H 0.75865 0.1445 0.26472 0.0
H3928 H 0.7587 0.16933 0.27295 0.0
H3929 H 0.75648 0.16195 0.24788 0.0
H3930 H 0.77125 0.19473 0.23692 0.0
H3931 H 0.7547 0.22158 0.23782 0.0
H3932 H 0.75841 0.11369 0.0317 0.0
H3933 H 0.72597 0.09447 0.03187 0.0
H3934 H 0.70497 0.12748 0.9889 0.0
H3935 H 0.73723 0.14683 0.9887 0.0
H3936 H 0.69465 0.11368 0.04029 0.0
H3937 H 0.67972 0.06879 0.97051 0.0
H3938 H 0.70365 0.0788 0.98208 0.0
H3939 H 0.69041 0.09414 0.97001 0.0
C3940 C 0.74696 0.11659 0.02199 0.0
C3941 C 0.75042 0.13184 0.01022 0.0
C3942 C 0.72844 0.10564 0.02216 0.0
C3943 C 0.71312 0.10949 0.01032 0.0
C3944 C 0.71664 0.12412 0.99798 0.0
H3945 H 0.59052 0.0768 0.99277 0.0
H3946 H 0.62461 0.08844 0.99094 0.0
C3947 C 0.73509 0.13521 0.99795 0.0
C3948 C 0.69325 0.09961 0.01209 0.0
H3949 H 0.65326 0.06999 0.98744 0.0
C3950 C 0.68562 0.10393 0.02885 0.0
C3951 C 0.68153 0.0871 0.99705 0.0
C3952 C 0.68921 0.08176 0.97891 0.0
C3953 C 0.66634 0.0966 0.03075 0.0
C3954 C 0.65452 0.08411 0.01566 0.0
C3955 C 0.6623 0.07951 0.99902 0.0
C3956 C 0.63387 0.07634 0.01655 0.0
C3957 C 0.65869 0.10304 0.04857 0.0
C3958 C 0.62768 0.06536 0.03135 0.0
C3959 C 0.6082 0.05894 0.03255 0.0
C3960 C 0.59456 0.06308 0.01877 0.0
C3961 C 0.60074 0.07348 0.00362 0.0
C3962 C 0.62021 0.08009 0.00255 0.0
H3963 H 0.66804 0.11655 0.05615 0.0
H3964 H 0.64414 0.10566 0.04524 0.0
H3965 H 0.65797 0.09148 0.05843 0.0
H3966 H 0.63793 0.06182 0.04203 0.0
H3967 H 0.6038 0.05075 0.04426 0.0
H3968 H 0.15424 0.44152 0.30022 0.0
H3969 H 0.17354 0.41685 0.30327 0.0
H3970 H 0.19757 0.43277 0.25205 0.0
H3971 H 0.17875 0.45752 0.24911 0.0
H3972 H 0.17532 0.38474 0.2793 0.0
H3973 H 0.24504 0.43701 0.28929 0.0
H3974 H 0.22287 0.44457 0.29099 0.0
H3975 H 0.23056 0.44001 0.26808 0.0
C3976 C 0.16365 0.43976 0.28963 0.0
C3977 C 0.16507 0.45164 0.27452 0.0
C3978 C 0.17468 0.42565 0.29139 0.0
C3979 C 0.18735 0.42323 0.27813 0.0
C3980 C 0.18832 0.4347 0.26276 0.0
H3981 H 0.2622 0.35085 0.24688 0.0
H3982 H 0.24189 0.37416 0.25067 0.0
C3983 C 0.17742 0.44879 0.26104 0.0
C3984 C 0.19949 0.40865 0.28003 0.0
H3985 H 0.24559 0.40369 0.28071 0.0
C3986 C 0.19071 0.38889 0.27987 0.0
C3987 C 0.2196 0.41405 0.28098 0.0
C3988 C 0.23009 0.43509 0.28255 0.0
C3989 C 0.2014 0.37435 0.27958 0.0
C3990 C 0.22141 0.37973 0.27961 0.0
C3991 C 0.23023 0.39953 0.2805 0.0
C3992 C 0.23341 0.36512 0.27756 0.0
C3993 C 0.19112 0.35332 0.2786 0.0
C3994 C 0.23558 0.35233 0.29151 0.0
C3995 C 0.24736 0.33901 0.28942 0.0
C3996 C 0.25705 0.33821 0.2733 0.0
C3997 C 0.25493 0.35111 0.25946 0.0
C3998 C 0.24328 0.36442 0.26159 0.0
H3999 H 0.17551 0.35134 0.27457 0.0
H4000 H 0.19677 0.34416 0.26821 0.0
H4001 H 0.19344 0.34805 0.29282 0.0
H4002 H 0.22837 0.3528 0.30411 0.0
H4003 H 0.24895 0.32942 0.30043 0.0
H4004 H 0.20737 0.47732 0.05269 0.0
H4005 H 0.1837 0.49231 0.0361 0.0
H4006 H 0.17375 0.44713 0.98958 0.0
H4007 H 0.1975 0.43188 0.00615 0.0
H4008 H 0.18029 0.50485 0.99687 0.0
H4009 H 0.12126 0.44473 0.01102 0.0
H4010 H 0.14482 0.44881 0.02401 0.0
H4011 H 0.14062 0.43856 0.99966 0.0
C4012 C 0.20028 0.47061 0.03886 0.0
C4013 C 0.20414 0.45329 0.03081 0.0
C4014 C 0.18685 0.47927 0.02937 0.0
C4015 C 0.17697 0.47075 0.01171 0.0
C4016 C 0.18121 0.45383 0.00327 0.0
H4017 H 0.06941 0.50268 0.97615 0.0
H4018 H 0.09711 0.48862 0.97195 0.0
C4019 C 0.19475 0.44517 0.01275 0.0
C4020 C 0.16124 0.47892 0.00315 0.0
H4021 H 0.1129 0.47234 0.99964 0.0
C4022 C 0.16551 0.49764 0.99707 0.0
C4023 C 0.14202 0.46935 0.00331 0.0
C4024 C 0.13675 0.44928 0.0099 0.0
C4025 C 0.15101 0.50746 0.99202 0.0
C4026 C 0.13188 0.49847 0.99359 0.0
C4027 C 0.12758 0.47924 0.99845 0.0
C4028 C 0.11644 0.50937 0.99287 0.0
C4029 C 0.15641 0.52752 0.98551 0.0
C4030 C 0.11823 0.526 0.00564 0.0
C4031 C 0.1025 0.53412 0.00794 0.0
C4032 C 0.08466 0.52555 0.99771 0.0
C4033 C 0.08306 0.50958 0.98417 0.0
C4034 C 0.09885 0.50154 0.98177 0.0
H4035 H 0.1693 0.52901 0.97799 0.0
H4036 H 0.14463 0.53086 0.97588 0.0
H4037 H 0.15986 0.53847 0.99812 0.0
H4038 H 0.13147 0.53199 0.01475 0.0
H4039 H 0.10405 0.54637 0.01855 0.0
H4040 H 0.87082 0.99224 0.24859 0.0
H4041 H 0.85291 0.95956 0.25176 0.0
H4042 H 0.80013 0.97869 0.24174 0.0
H4043 H 0.81805 0.01146 0.23789 0.0
H4044 H 0.83008 0.94778 0.2775 0.0
H4045 H 0.78897 0.93002 0.20548 0.0
H4046 H 0.80857 0.95086 0.21121 0.0
H4047 H 0.78549 0.95169 0.21814 0.0
C4048 C 0.85539 0.9895 0.2469 0.0
C4049 C 0.84586 0.00446 0.24294 0.0
C4050 C 0.84516 0.97079 0.24874 0.0
C4051 C 0.82515 0.96657 0.24681 0.0
C4052 C 0.81554 0.98146 0.24286 0.0
H4053 H 0.76676 0.85763 0.28756 0.0
H4054 H 0.77756 0.89219 0.2835 0.0
C4055 C 0.8258 1.00021 0.24076 0.0
C4056 C 0.81466 0.9467 0.24964 0.0
H4057 H 0.78199 0.90697 0.22773 0.0
C4058 C 0.81951 0.93887 0.26663 0.0
C4059 C 0.80097 0.93504 0.2354 0.0
C4060 C 0.79578 0.94222 0.21646 0.0
C4061 C 0.81145 0.91962 0.26964 0.0
C4062 C 0.79762 0.908 0.25549 0.0
C4063 C 0.79246 0.91594 0.23864 0.0
C4064 C 0.78944 0.88716 0.25728 0.0
C4065 C 0.8185 0.91169 0.28758 0.0
C4066 C 0.79169 0.87283 0.24346 0.0
C4067 C 0.78523 0.85312 0.24556 0.0
C4068 C 0.77648 0.84728 0.26162 0.0
C4069 C 0.77367 0.86164 0.27516 0.0
C4070 C 0.77993 0.8814 0.27291 0.0
H4071 H 0.83241 0.92071 0.29442 0.0
H4072 H 0.80802 0.9117 0.29794 0.0
H4073 H 0.82016 0.89653 0.28458 0.0
H4074 H 0.79892 0.8769 0.23125 0.0
H4075 H 0.78762 0.84246 0.23484 0.0
H4076 H 0.68125 0.03679 0.78683 0.0
H4077 H 0.70305 0.06888 0.78961 0.0
H4078 H 0.65498 0.09555 0.7785 0.0
H4079 H 0.63329 0.06391 0.7768 0.0
H4080 H 0.71101 0.09419 0.76577 0.0
H4081 H 0.68175 0.1303 0.82343 0.0
H4082 H 0.67469 0.1044 0.81705 0.0
H4083 H 0.66303 0.12082 0.80443 0.0
C4084 C 0.67538 0.04957 0.78527 0.0
C4085 C 0.65556 0.04787 0.78187 0.0
C4086 C 0.68783 0.0679 0.78682 0.0
C4087 C 0.68067 0.08477 0.78477 0.0
C4088 C 0.66088 0.08293 0.78093 0.0
H4089 H 0.73465 0.19208 0.74498 0.0
H4090 H 0.72114 0.15812 0.74919 0.0
C4091 C 0.64847 0.06476 0.77981 0.0
C4092 C 0.69373 0.10424 0.78565 0.0
H4093 H 0.69892 0.15166 0.80284 0.0
C4094 C 0.70858 0.10672 0.77415 0.0
C4095 C 0.69104 0.12058 0.79697 0.0
C4096 C 0.6769 0.11881 0.81132 0.0
C4097 C 0.72009 0.12517 0.77288 0.0
C4098 C 0.71608 0.14177 0.78271 0.0
C4099 C 0.70187 0.13911 0.79497 0.0
C4100 C 0.72578 0.16205 0.78007 0.0
C4101 C 0.73647 0.12654 0.76114 0.0
C4102 C 0.73244 0.17586 0.79593 0.0
C4103 C 0.73941 0.19542 0.79349 0.0
C4104 C 0.74029 0.20147 0.77514 0.0
C4105 C 0.73434 0.18767 0.75927 0.0
C4106 C 0.7268 0.1682 0.7617 0.0
H4107 H 0.74215 0.11308 0.76115 0.0
H4108 H 0.73135 0.12808 0.74615 0.0
H4109 H 0.74831 0.13915 0.76651 0.0
H4110 H 0.73183 0.1716 0.81025 0.0
H4111 H 0.74397 0.20586 0.80594 0.0
loop_
_geom_bond_atom_site_label_1
_geom_bond_atom_site_label_2
_geom_bond_distance
_geom_bond_site_symmetry_2
_ccdc_geom_bond_type
O0 Cd1 2.223 . S
O0 C8 1.315 . S
Cd1 O0 2.223 . S
Cd1 O4 2.297 . S
Cd1 O5 2.439 . S
Cd1 O11 2.267 . S
Cd2 O3 2.240 . S
Cd2 O10 2.223 1_455 S
Cd2 O12 2.297 . S
Cd2 O13 2.439 . S
O3 Cd2 2.240 . S
O3 C8 1.279 . S
O4 Cd1 2.297 . S
O4 C6 1.247 . S
O5 Cd1 2.439 . S
O5 C6 1.208 . S
C6 O4 1.247 . S
C6 O5 1.208 . S
C7 O12 1.247 . S
C7 O13 1.208 . S
C8 O0 1.315 . S
C8 O3 1.279 . S
C9 O10 1.315 . S
C9 O11 1.254 1_655 S
O10 Cd2 2.223 1_655 S
O10 C9 1.315 . S
O11 Cd1 2.267 . S
O11 C9 1.254 1_455 S
O12 Cd2 2.297 . S
O12 C7 1.247 . S
O13 Cd2 2.439 . S
O13 C7 1.208 . S
O14 Cd15 2.222 . S
O14 C22 1.315 . S
Cd15 O14 2.222 . S
Cd15 O18 2.297 . S
Cd15 O19 2.439 . S
Cd15 O25 2.240 1_655 S
Cd16 O17 2.240 1_455 S
Cd16 O24 2.223 . S
Cd16 O26 2.297 . S
Cd16 O27 2.424 1_455 S
O17 Cd16 2.240 1_655 S
O17 C22 1.279 . S
O18 Cd15 2.297 . S
O18 C20 1.247 . S
O19 Cd15 2.439 . S
O19 C20 1.208 . S
C20 O18 1.247 . S
C20 O19 1.208 . S
C21 O26 1.247 . S
C21 O27 1.190 1_455 S
C22 O14 1.315 . S
C22 O17 1.279 . S
C23 O24 1.315 . S
C23 O25 1.279 . S
O24 Cd16 2.223 . S
O24 C23 1.315 . S
O25 Cd15 2.240 1_455 S
O25 C23 1.279 . S
O26 Cd16 2.297 . S
O26 C21 1.247 . S
O27 Cd16 2.424 1_655 S
O27 C21 1.190 1_655 S
O28 Cd29 2.223 . S
O28 C36 1.315 . S
Cd29 O28 2.223 . S
Cd29 O32 2.297 . S
Cd29 O33 2.439 . S
Cd29 O39 2.240 . S
Cd30 O31 2.240 . S
Cd30 O38 2.223 . S
Cd30 O40 2.297 . S
Cd30 O41 2.439 . S
O31 Cd30 2.240 . S
O31 C36 1.279 . S
O32 Cd29 2.297 . S
O32 C34 1.247 . S
O33 Cd29 2.439 . S
O33 C34 1.208 . S
C34 O32 1.247 . S
C34 O33 1.208 . S
C35 O40 1.247 . S
C35 O41 1.208 . S
C36 O28 1.315 . S
C36 O31 1.279 . S
C37 O38 1.315 . S
C37 O39 1.279 . S
O38 Cd30 2.223 . S
O38 C37 1.315 . S
O39 Cd29 2.240 . S
O39 C37 1.279 . S
O40 Cd30 2.297 . S
O40 C35 1.247 . S
O41 Cd30 2.439 . S
O41 C35 1.208 . S
O42 Cd43 2.223 . S
O42 C50 1.315 . S
Cd43 O42 2.223 . S
Cd43 O46 2.297 . S
Cd43 O47 2.439 . S
Cd43 O53 2.240 . S
Cd44 O45 2.240 . S
Cd44 O52 2.223 . S
Cd44 O54 2.297 . S
Cd44 O55 2.439 . S
O45 Cd44 2.240 . S
O45 C50 1.279 . S
O46 Cd43 2.297 . S
O46 C48 1.247 . S
O47 Cd43 2.439 . S
O47 C48 1.208 . S
C48 O46 1.247 . S
C48 O47 1.208 . S
C49 O54 1.247 . S
C49 O55 1.208 . S
C50 O42 1.315 . S
C50 O45 1.279 . S
C51 O52 1.315 . S
C51 O53 1.279 . S
O52 Cd44 2.223 . S
O52 C51 1.315 . S
O53 Cd43 2.240 . S
O53 C51 1.279 . S
O54 Cd44 2.297 . S
O54 C49 1.247 . S
O55 Cd44 2.439 . S
O55 C49 1.208 . S
O56 Cd57 2.223 . S
O56 C64 1.315 . S
Cd57 O56 2.223 . S
Cd57 O60 2.297 1_455 S
Cd57 O61 2.439 1_455 S
Cd57 O67 2.240 . S
Cd58 O59 2.222 1_455 S
Cd58 O66 2.223 . S
Cd58 O68 2.297 . S
Cd58 O69 2.439 . S
O59 Cd58 2.222 1_655 S
O59 C64 1.261 1_655 S
O60 Cd57 2.297 1_655 S
O60 C62 1.247 . S
O61 Cd57 2.439 1_655 S
O61 C62 1.208 . S
C62 O60 1.247 . S
C62 O61 1.208 . S
C63 O68 1.247 . S
C63 O69 1.208 . S
C64 O56 1.315 . S
C64 O59 1.261 1_455 S
C65 O66 1.315 . S
C65 O67 1.279 . S
O66 Cd58 2.223 . S
O66 C65 1.315 . S
O67 Cd57 2.240 . S
O67 C65 1.279 . S
O68 Cd58 2.297 . S
O68 C63 1.247 . S
O69 Cd58 2.439 . S
O69 C63 1.208 . S
O70 Cd71 2.223 . S
O70 C78 1.315 . S
Cd71 O70 2.223 . S
Cd71 O74 2.297 . S
Cd71 O75 2.439 . S
Cd71 O81 2.240 . S
Cd72 O73 2.240 . S
Cd72 O80 2.223 . S
Cd72 O82 2.297 . S
Cd72 O83 2.439 . S
O73 Cd72 2.240 . S
O73 C78 1.279 . S
O74 Cd71 2.297 . S
O74 C76 1.247 . S
O75 Cd71 2.439 . S
O75 C76 1.208 . S
C76 O74 1.247 . S
C76 O75 1.208 . S
C77 O82 1.247 . S
C77 O83 1.208 . S
C78 O70 1.315 . S
C78 O73 1.279 . S
C79 O80 1.315 . S
C79 O81 1.279 . S
O80 Cd72 2.223 . S
O80 C79 1.315 . S
O81 Cd71 2.240 . S
O81 C79 1.279 . S
O82 Cd72 2.297 . S
O82 C77 1.247 . S
O83 Cd72 2.439 . S
O83 C77 1.208 . S
O84 Cd85 2.223 . S
O84 C92 1.315 . S
Cd85 O84 2.223 . S
Cd85 O88 2.297 . S
Cd85 O89 2.439 . S
Cd85 O95 2.240 . S
Cd86 O87 2.240 . S
Cd86 O94 2.223 . S
Cd86 O96 2.297 . S
Cd86 O97 2.439 . S
O87 Cd86 2.240 . S
O87 C92 1.279 . S
O88 Cd85 2.297 . S
O88 C90 1.247 . S
O89 Cd85 2.439 . S
O89 C90 1.208 . S
C90 O88 1.247 . S
C90 O89 1.208 . S
C91 O96 1.247 . S
C91 O97 1.208 . S
C92 O84 1.315 . S
C92 O87 1.279 . S
C93 O94 1.315 . S
C93 O95 1.279 . S
O94 Cd86 2.223 . S
O94 C93 1.315 . S
O95 Cd85 2.240 . S
O95 C93 1.279 . S
O96 Cd86 2.297 . S
O96 C91 1.247 . S
O97 Cd86 2.439 . S
O97 C91 1.208 . S
O98 Cd99 2.223 . S
O98 C106 1.315 . S
Cd99 O98 2.223 . S
Cd99 O102 2.297 . S
Cd99 O103 2.439 . S
Cd99 O109 2.240 1_455 S
Cd100 O101 2.240 . S
Cd100 O108 2.223 1_455 S
Cd100 O110 2.302 . S
Cd100 O111 2.439 . S
O101 Cd100 2.240 . S
O101 C106 1.279 . S
O102 Cd99 2.297 . S
O102 C104 1.247 . S
O103 Cd99 2.439 . S
O103 C104 1.208 . S
C104 O102 1.247 . S
C104 O103 1.208 . S
C105 O110 1.255 . S
C105 O111 1.208 . S
C106 O98 1.315 . S
C106 O101 1.279 . S
C107 O108 1.315 . S
C107 O109 1.279 . S
O108 Cd100 2.223 1_655 S
O108 C107 1.315 . S
O109 Cd99 2.240 1_655 S
O109 C107 1.279 . S
O110 Cd100 2.302 . S
O110 C105 1.255 . S
O111 Cd100 2.439 . S
O111 C105 1.208 . S
O112 Cd113 2.223 . S
O112 C120 1.315 . S
Cd113 O112 2.223 . S
Cd113 O116 2.297 . S
Cd113 O117 2.439 . S
Cd113 O123 2.240 . S
Cd114 O115 2.240 . S
Cd114 O122 2.223 . S
Cd114 O124 2.297 . S
Cd114 O125 2.439 . S
O115 Cd114 2.240 . S
O115 C120 1.279 . S
O116 Cd113 2.297 . S
O116 C118 1.247 . S
O117 Cd113 2.439 . S
O117 C118 1.208 . S
C118 O116 1.247 . S
C118 O117 1.208 . S
C119 O124 1.247 . S
C119 O125 1.208 . S
C120 O112 1.315 . S
C120 O115 1.279 . S
C121 O122 1.315 . S
C121 O123 1.279 . S
O122 Cd114 2.223 . S
O122 C121 1.315 . S
O123 Cd113 2.240 . S
O123 C121 1.279 . S
O124 Cd114 2.297 . S
O124 C119 1.247 . S
O125 Cd114 2.439 . S
O125 C119 1.208 . S
O126 Cd127 2.223 . S
O126 C134 1.315 . S
Cd127 O126 2.223 . S
Cd127 O130 2.297 . S
Cd127 O131 2.439 . S
Cd127 O137 2.240 . S
Cd128 O129 2.240 . S
Cd128 O136 2.223 . S
Cd128 O138 2.297 . S
Cd128 O139 2.439 . S
O129 Cd128 2.240 . S
O129 C134 1.279 . S
O130 Cd127 2.297 . S
O130 C132 1.247 . S
O131 Cd127 2.439 . S
O131 C132 1.208 . S
C132 O130 1.247 . S
C132 O131 1.208 . S
C133 O138 1.247 . S
C133 O139 1.208 . S
C134 O126 1.315 . S
C134 O129 1.279 . S
C135 O136 1.315 . S
C135 O137 1.279 . S
O136 Cd128 2.223 . S
O136 C135 1.315 . S
O137 Cd127 2.240 . S
O137 C135 1.279 . S
O138 Cd128 2.297 . S
O138 C133 1.247 . S
O139 Cd128 2.439 . S
O139 C133 1.208 . S
O140 Cd141 2.223 1_545 S
O140 C148 1.315 1_545 S
Cd141 O140 2.223 1_565 S
Cd141 O144 2.297 . S
Cd141 O145 2.439 . S
Cd141 O151 2.240 1_565 S
Cd142 O143 2.240 1_545 S
Cd142 O150 2.223 . S
Cd142 O152 2.297 . S
Cd142 O153 2.439 1_545 S
O143 Cd142 2.240 1_565 S
O143 C148 1.293 . S
O144 Cd141 2.297 . S
O144 C146 1.247 . S
O145 Cd141 2.439 . S
O145 C146 1.208 . S
C146 O144 1.247 . S
C146 O145 1.208 . S
C147 O152 1.247 . S
C147 O153 1.208 1_545 S
C148 O140 1.315 1_565 S
C148 O143 1.293 . S
C149 O150 1.315 . S
C149 O151 1.279 . S
O150 Cd142 2.223 . S
O150 C149 1.315 . S
O151 Cd141 2.240 1_545 S
O151 C149 1.279 . S
O152 Cd142 2.297 . S
O152 C147 1.247 . S
O153 Cd142 2.439 1_565 S
O153 C147 1.208 1_565 S
O154 Cd155 2.223 . S
O154 C162 1.315 . S
Cd155 O154 2.223 . S
Cd155 O158 2.297 . S
Cd155 O159 2.439 . S
Cd155 O165 2.240 . S
Cd156 O157 2.240 . S
Cd156 O164 2.223 . S
Cd156 O166 2.297 1_554 S
Cd156 O167 2.439 1_554 S
O157 Cd156 2.240 . S
O157 C162 1.279 . S
O158 Cd155 2.297 . S
O158 C160 1.247 . S
O159 Cd155 2.439 . S
O159 C160 1.208 . S
C160 O158 1.247 . S
C160 O159 1.208 . S
C161 O166 1.247 . S
C161 O167 1.208 . S
C162 O154 1.315 . S
C162 O157 1.279 . S
C163 O164 1.315 . S
C163 O165 1.279 . S
O164 Cd156 2.223 . S
O164 C163 1.315 . S
O165 Cd155 2.240 . S
O165 C163 1.279 . S
O166 Cd156 2.297 1_556 S
O166 C161 1.247 . S
O167 Cd156 2.439 1_556 S
O167 C161 1.208 . S
O168 Cd169 2.223 . S
O168 C176 1.315 . S
Cd169 O168 2.223 . S
Cd169 O172 2.297 . S
Cd169 O173 2.439 . S
Cd169 O179 2.240 . S
Cd170 O171 2.240 . S
Cd170 O178 2.223 . S
Cd170 O180 2.297 1_554 S
Cd170 O181 2.439 1_554 S
O171 Cd170 2.240 . S
O171 C176 1.279 . S
O172 Cd169 2.297 . S
O172 C174 1.247 . S
O173 Cd169 2.439 . S
O173 C174 1.208 . S
C174 O172 1.247 . S
C174 O173 1.208 . S
C175 O180 1.247 . S
C175 O181 1.208 . S
C176 O168 1.315 . S
C176 O171 1.279 . S
C177 O178 1.315 . S
C177 O179 1.279 . S
O178 Cd170 2.223 . S
O178 C177 1.315 . S
O179 Cd169 2.240 . S
O179 C177 1.279 . S
O180 Cd170 2.297 1_556 S
O180 C175 1.247 . S
O181 Cd170 2.439 1_556 S
O181 C175 1.208 . S
O182 Cd183 2.223 . S
O182 C190 1.315 . S
Cd183 O182 2.223 . S
Cd183 O186 2.297 . S
Cd183 O187 2.439 1_554 S
Cd183 O193 2.240 1_554 S
Cd184 O185 2.240 1_556 S
Cd184 O192 2.223 1_556 S
Cd184 O194 2.297 . S
Cd184 O195 2.439 . S
O185 Cd184 2.240 1_554 S
O185 C190 1.279 . S
O186 Cd183 2.297 . S
O186 C188 1.247 . S
O187 Cd183 2.439 1_556 S
O187 C188 1.208 1_556 S
C188 O186 1.247 . S
C188 O187 1.208 1_554 S
C189 O194 1.247 . S
C189 O195 1.208 . S
C190 O182 1.315 . S
C190 O185 1.279 . S
C191 O192 1.313 1_556 S
C191 O193 1.297 . S
O192 Cd184 2.223 1_554 S
O192 C191 1.313 1_554 S
O193 Cd183 2.240 1_556 S
O193 C191 1.297 . S
O194 Cd184 2.297 . S
O194 C189 1.247 . S
O195 Cd184 2.439 . S
O195 C189 1.208 . S
O196 Cd197 2.223 . S
O196 C204 1.315 . S
Cd197 O196 2.223 . S
Cd197 O200 2.297 . S
Cd197 O201 2.439 . S
Cd197 O207 2.240 . S
Cd198 O199 2.240 . S
Cd198 O206 2.223 . S
Cd198 O208 2.297 . S
Cd198 O209 2.439 . S
O199 Cd198 2.240 . S
O199 C204 1.279 . S
O200 Cd197 2.297 . S
O200 C202 1.247 . S
O201 Cd197 2.439 . S
O201 C202 1.208 . S
C202 O200 1.247 . S
C202 O201 1.208 . S
C203 O208 1.247 . S
C203 O209 1.208 . S
C204 O196 1.315 . S
C204 O199 1.279 . S
C205 O206 1.315 . S
C205 O207 1.279 . S
O206 Cd198 2.223 . S
O206 C205 1.315 . S
O207 Cd197 2.240 . S
O207 C205 1.279 . S
O208 Cd198 2.297 . S
O208 C203 1.247 . S
O209 Cd198 2.439 . S
O209 C203 1.208 . S
O210 Cd211 2.223 . S
O210 C218 1.315 . S
Cd211 O210 2.223 . S
Cd211 O214 2.297 . S
Cd211 O215 2.439 . S
Cd211 O221 2.240 . S
Cd212 O213 2.240 . S
Cd212 O220 2.223 . S
Cd212 O222 2.297 . S
Cd212 O223 2.439 . S
O213 Cd212 2.240 . S
O213 C218 1.279 . S
O214 Cd211 2.297 . S
O214 C216 1.247 . S
O215 Cd211 2.439 . S
O215 C216 1.208 . S
C216 O214 1.247 . S
C216 O215 1.208 . S
C217 O222 1.247 . S
C217 O223 1.208 . S
C218 O210 1.315 . S
C218 O213 1.279 . S
C219 O220 1.315 . S
C219 O221 1.279 . S
O220 Cd212 2.223 . S
O220 C219 1.315 . S
O221 Cd211 2.240 . S
O221 C219 1.279 . S
O222 Cd212 2.297 . S
O222 C217 1.247 . S
O223 Cd212 2.439 . S
O223 C217 1.208 . S
O224 Cd225 2.223 . S
O224 C232 1.315 . S
Cd225 O224 2.223 . S
Cd225 O228 2.297 . S
Cd225 O229 2.439 . S
Cd225 O235 2.240 . S
Cd226 O227 2.240 . S
Cd226 O234 2.223 . S
Cd226 O236 2.297 . S
Cd226 O237 2.439 . S
O227 Cd226 2.240 . S
O227 C232 1.279 . S
O228 Cd225 2.297 . S
O228 C230 1.247 . S
O229 Cd225 2.439 . S
O229 C230 1.208 . S
C230 O228 1.247 . S
C230 O229 1.208 . S
C231 O236 1.247 . S
C231 O237 1.208 . S
C232 O224 1.315 . S
C232 O227 1.279 . S
C233 O234 1.315 . S
C233 O235 1.279 . S
O234 Cd226 2.223 . S
O234 C233 1.315 . S
O235 Cd225 2.240 . S
O235 C233 1.279 . S
O236 Cd226 2.297 . S
O236 C231 1.247 . S
O237 Cd226 2.439 . S
O237 C231 1.208 . S
O238 Cd239 2.223 . S
O238 C246 1.315 . S
Cd239 O238 2.223 . S
Cd239 O242 2.297 . S
Cd239 O243 2.439 . S
Cd239 O249 2.240 . S
Cd240 O241 2.240 . S
Cd240 O248 2.223 . S
Cd240 O250 2.297 . S
Cd240 O251 2.439 . S
O241 Cd240 2.240 . S
O241 C246 1.279 . S
O242 Cd239 2.297 . S
O242 C244 1.247 . S
O243 Cd239 2.439 . S
O243 C244 1.208 . S
C244 O242 1.247 . S
C244 O243 1.208 . S
C245 O250 1.247 . S
C245 O251 1.208 . S
C246 O238 1.315 . S
C246 O241 1.279 . S
C247 O248 1.315 . S
C247 O249 1.279 . S
O248 Cd240 2.223 . S
O248 C247 1.315 . S
O249 Cd239 2.240 . S
O249 C247 1.279 . S
O250 Cd240 2.297 . S
O250 C245 1.247 . S
O251 Cd240 2.439 . S
O251 C245 1.208 . S
O252 Cd253 2.223 . S
O252 C260 1.315 . S
Cd253 O252 2.223 . S
Cd253 O256 2.297 . S
Cd253 O257 2.439 . S
Cd253 O263 2.240 . S
Cd254 O255 2.240 . S
Cd254 O262 2.223 . S
Cd254 O264 2.297 . S
Cd254 O265 2.439 . S
O255 Cd254 2.240 . S
O255 C260 1.279 . S
O256 Cd253 2.297 . S
O256 C258 1.247 . S
O257 Cd253 2.439 . S
O257 C258 1.208 . S
C258 O256 1.247 . S
C258 O257 1.208 . S
C259 O264 1.247 . S
C259 O265 1.208 . S
C260 O252 1.315 . S
C260 O255 1.279 . S
C261 O262 1.315 . S
C261 O263 1.279 . S
O262 Cd254 2.223 . S
O262 C261 1.315 . S
O263 Cd253 2.240 . S
O263 C261 1.279 . S
O264 Cd254 2.297 . S
O264 C259 1.247 . S
O265 Cd254 2.439 . S
O265 C259 1.208 . S
O266 Cd267 2.223 . S
O266 C274 1.315 . S
Cd267 O266 2.223 . S
Cd267 O270 2.297 1_545 S
Cd267 O271 2.439 1_545 S
Cd267 O277 2.240 . S
Cd268 O269 2.240 . S
Cd268 O276 2.223 . S
Cd268 O278 2.297 . S
Cd268 O279 2.439 . S
O269 Cd268 2.240 . S
O269 C274 1.279 . S
O270 Cd267 2.297 1_565 S
O270 C272 1.247 . S
O271 Cd267 2.439 1_565 S
O271 C272 1.208 . S
C272 O270 1.247 . S
C272 O271 1.208 . S
C273 O278 1.247 . S
C273 O279 1.208 . S
C274 O266 1.315 . S
C274 O269 1.279 . S
C275 O276 1.315 . S
C275 O277 1.279 . S
O276 Cd268 2.223 . S
O276 C275 1.315 . S
O277 Cd267 2.240 . S
O277 C275 1.279 . S
O278 Cd268 2.297 . S
O278 C273 1.247 . S
O279 Cd268 2.439 . S
O279 C273 1.208 . S
O280 Cd281 2.223 . S
O280 C288 1.315 . S
Cd281 O280 2.223 . S
Cd281 O284 2.297 . S
Cd281 O285 2.439 . S
Cd281 O291 2.240 . S
Cd282 O283 2.240 . S
Cd282 O290 2.223 . S
Cd282 O292 2.297 1_554 S
Cd282 O293 2.439 1_554 S
O283 Cd282 2.240 . S
O283 C288 1.279 . S
O284 Cd281 2.297 . S
O284 C286 1.247 . S
O285 Cd281 2.439 . S
O285 C286 1.208 . S
C286 O284 1.247 . S
C286 O285 1.208 . S
C287 O292 1.247 . S
C287 O293 1.208 . S
C288 O280 1.315 . S
C288 O283 1.279 . S
C289 O290 1.315 . S
C289 O291 1.279 . S
O290 Cd282 2.223 . S
O290 C289 1.315 . S
O291 Cd281 2.240 . S
O291 C289 1.279 . S
O292 Cd282 2.297 1_556 S
O292 C287 1.247 . S
O293 Cd282 2.439 1_556 S
O293 C287 1.208 . S
O294 Cd295 2.223 . S
O294 C302 1.315 . S
Cd295 O294 2.223 . S
Cd295 O298 2.297 . S
Cd295 O299 2.439 . S
Cd295 O305 2.240 . S
Cd296 O297 2.240 . S
Cd296 O304 2.223 . S
Cd296 O306 2.297 . S
Cd296 O307 2.439 . S
O297 Cd296 2.240 . S
O297 C302 1.279 . S
O298 Cd295 2.297 . S
O298 C300 1.247 . S
O299 Cd295 2.439 . S
O299 C300 1.208 . S
C300 O298 1.247 . S
C300 O299 1.208 . S
C301 O306 1.247 . S
C301 O307 1.208 . S
C302 O294 1.315 . S
C302 O297 1.279 . S
C303 O304 1.315 . S
C303 O305 1.279 . S
O304 Cd296 2.223 . S
O304 C303 1.315 . S
O305 Cd295 2.240 . S
O305 C303 1.279 . S
O306 Cd296 2.297 . S
O306 C301 1.247 . S
O307 Cd296 2.439 . S
O307 C301 1.208 . S
O308 Cd309 2.223 . S
O308 C316 1.315 . S
Cd309 O308 2.223 . S
Cd309 O312 2.297 . S
Cd309 O313 2.439 . S
Cd309 O319 2.240 . S
Cd310 O311 2.240 . S
Cd310 O318 2.223 . S
Cd310 O320 2.297 . S
Cd310 O321 2.439 . S
O311 Cd310 2.240 . S
O311 C316 1.279 . S
O312 Cd309 2.297 . S
O312 C314 1.247 . S
O313 Cd309 2.439 . S
O313 C314 1.208 . S
C314 O312 1.247 . S
C314 O313 1.208 . S
C315 O320 1.247 . S
C315 O321 1.208 . S
C316 O308 1.315 . S
C316 O311 1.279 . S
C317 O318 1.315 . S
C317 O319 1.279 . S
O318 Cd310 2.223 . S
O318 C317 1.315 . S
O319 Cd309 2.240 . S
O319 C317 1.279 . S
O320 Cd310 2.297 . S
O320 C315 1.247 . S
O321 Cd310 2.439 . S
O321 C315 1.208 . S
O322 Cd323 2.223 . S
O322 C330 1.315 . S
Cd323 O322 2.223 . S
Cd323 O326 2.297 . S
Cd323 O327 2.439 . S
Cd323 O333 2.240 . S
Cd324 O325 2.240 . S
Cd324 O332 2.223 . S
Cd324 O334 2.297 . S
Cd324 O335 2.439 . S
O325 Cd324 2.240 . S
O325 C330 1.279 . S
O326 Cd323 2.297 . S
O326 C328 1.247 . S
O327 Cd323 2.439 . S
O327 C328 1.208 . S
C328 O326 1.247 . S
C328 O327 1.208 . S
C329 O334 1.247 . S
C329 O335 1.208 . S
C330 O322 1.315 . S
C330 O325 1.279 . S
C331 O332 1.315 . S
C331 O333 1.279 . S
O332 Cd324 2.223 . S
O332 C331 1.315 . S
O333 Cd323 2.240 . S
O333 C331 1.279 . S
O334 Cd324 2.297 . S
O334 C329 1.247 . S
O335 Cd324 2.439 . S
O335 C329 1.208 . S
Tb336 O339 2.453 . S
Tb336 O340 2.596 . S
Tb336 O341 2.374 1_554 S
Tb336 O349 2.343 1_455 S
Tb336 O351 2.353 . S
Tb336 O353 2.427 . S
Tb336 O354 2.513 1_554 S
C337 O341 1.251 . S
C337 O343 1.263 . S
Tb338 O340 2.343 1_655 S
Tb338 O343 2.353 1_654 S
Tb338 O346 2.427 1_645 S
Tb338 O347 2.513 1_645 S
Tb338 O348 2.453 . S
Tb338 O349 2.596 . S
Tb338 O350 2.374 . S
O339 Tb336 2.453 . S
O339 C355 1.245 . S
O340 Tb336 2.596 . S
O340 Tb338 2.343 1_455 S
O340 C355 1.259 . S
O341 Tb336 2.374 1_556 S
O341 C337 1.251 . S
C342 O346 1.275 . S
C342 O347 1.246 . S
O343 C337 1.263 . S
O343 Tb338 2.353 1_456 S
C344 O348 1.245 . S
C344 O349 1.259 . S
C345 O350 1.250 1_455 S
C345 O351 1.263 . S
O346 Tb338 2.427 1_465 S
O346 C342 1.275 . S
O347 Tb338 2.513 1_465 S
O347 C342 1.246 . S
O348 Tb338 2.453 . S
O348 C344 1.245 . S
O349 Tb336 2.343 1_655 S
O349 Tb338 2.596 . S
O349 C344 1.259 . S
O350 Tb338 2.374 . S
O350 C345 1.250 1_655 S
O351 Tb336 2.353 . S
O351 C345 1.263 . S
C352 O353 1.275 . S
C352 O354 1.246 1_554 S
O353 Tb336 2.427 . S
O353 C352 1.275 . S
O354 Tb336 2.513 1_556 S
O354 C352 1.246 1_556 S
C355 O339 1.245 . S
C355 O340 1.259 . S
Tb356 O359 2.453 . S
Tb356 O360 2.596 . S
Tb356 O361 2.374 . S
Tb356 O369 2.343 . S
Tb356 O371 2.353 . S
Tb356 O373 2.427 . S
Tb356 O374 2.513 . S
C357 O361 1.251 . S
C357 O363 1.263 . S
Tb358 O360 2.343 . S
Tb358 O363 2.353 . S
Tb358 O366 2.427 . S
Tb358 O367 2.513 . S
Tb358 O368 2.453 . S
Tb358 O369 2.596 . S
Tb358 O370 2.374 . S
O359 Tb356 2.453 . S
O359 C375 1.245 . S
O360 Tb356 2.596 . S
O360 Tb358 2.343 . S
O360 C375 1.259 . S
O361 Tb356 2.374 . S
O361 C357 1.251 . S
C362 O366 1.275 . S
C362 O367 1.246 . S
O363 C357 1.263 . S
O363 Tb358 2.353 . S
C364 O368 1.245 . S
C364 O369 1.259 . S
C365 O370 1.250 . S
C365 O371 1.263 . S
O366 Tb358 2.427 . S
O366 C362 1.275 . S
O367 Tb358 2.513 . S
O367 C362 1.246 . S
O368 Tb358 2.453 . S
O368 C364 1.245 . S
O369 Tb356 2.343 . S
O369 Tb358 2.596 . S
O369 C364 1.259 . S
O370 Tb358 2.374 . S
O370 C365 1.250 . S
O371 Tb356 2.353 . S
O371 C365 1.263 . S
C372 O373 1.275 . S
C372 O374 1.246 . S
O373 Tb356 2.427 . S
O373 C372 1.275 . S
O374 Tb356 2.513 . S
O374 C372 1.246 . S
C375 O359 1.245 . S
C375 O360 1.259 . S
Tb376 O379 2.453 . S
Tb376 O380 2.596 . S
Tb376 O381 2.374 . S
Tb376 O389 2.343 . S
Tb376 O391 2.353 . S
Tb376 O393 2.427 . S
Tb376 O394 2.513 . S
C377 O381 1.251 . S
C377 O383 1.263 . S
Tb378 O380 2.343 . S
Tb378 O383 2.353 . S
Tb378 O386 2.427 . S
Tb378 O387 2.513 . S
Tb378 O388 2.453 1_545 S
Tb378 O389 2.596 . S
Tb378 O390 2.374 . S
O379 Tb376 2.453 . S
O379 C395 1.245 . S
O380 Tb376 2.596 . S
O380 Tb378 2.343 . S
O380 C395 1.259 . S
O381 Tb376 2.374 . S
O381 C377 1.251 . S
C382 O386 1.275 . S
C382 O387 1.246 . S
O383 C377 1.263 . S
O383 Tb378 2.353 . S
C384 O388 1.245 . S
C384 O389 1.259 1_565 S
C385 O390 1.250 . S
C385 O391 1.263 . S
O386 Tb378 2.427 . S
O386 C382 1.275 . S
O387 Tb378 2.513 . S
O387 C382 1.246 . S
O388 Tb378 2.453 1_565 S
O388 C384 1.245 . S
O389 Tb376 2.343 . S
O389 Tb378 2.596 . S
O389 C384 1.259 1_545 S
O390 Tb378 2.374 . S
O390 C385 1.250 . S
O391 Tb376 2.353 . S
O391 C385 1.263 . S
C392 O393 1.275 . S
C392 O394 1.246 . S
O393 Tb376 2.427 . S
O393 C392 1.275 . S
O394 Tb376 2.513 . S
O394 C392 1.246 . S
C395 O379 1.245 . S
C395 O380 1.259 . S
Tb396 O399 2.453 . S
Tb396 O400 2.596 . S
Tb396 O401 2.374 . S
Tb396 O409 2.343 . S
Tb396 O411 2.353 . S
Tb396 O413 2.427 . S
Tb396 O414 2.513 . S
C397 O401 1.251 . S
C397 O403 1.263 . S
Tb398 O400 2.343 . S
Tb398 O403 2.353 . S
Tb398 O406 2.427 . S
Tb398 O407 2.513 . S
Tb398 O408 2.453 . S
Tb398 O409 2.596 . S
Tb398 O410 2.374 . S
O399 Tb396 2.453 . S
O399 C415 1.245 . S
O400 Tb396 2.596 . S
O400 Tb398 2.343 . S
O400 C415 1.259 . S
O401 Tb396 2.374 . S
O401 C397 1.251 . S
C402 O406 1.275 . S
C402 O407 1.246 . S
O403 C397 1.263 . S
O403 Tb398 2.353 . S
C404 O408 1.245 . S
C404 O409 1.259 . S
C405 O410 1.250 . S
C405 O411 1.263 . S
O406 Tb398 2.427 . S
O406 C402 1.275 . S
O407 Tb398 2.513 . S
O407 C402 1.246 . S
O408 Tb398 2.453 . S
O408 C404 1.245 . S
O409 Tb396 2.343 . S
O409 Tb398 2.596 . S
O409 C404 1.259 . S
O410 Tb398 2.374 . S
O410 C405 1.250 . S
O411 Tb396 2.353 . S
O411 C405 1.263 . S
C412 O413 1.275 . S
C412 O414 1.246 . S
O413 Tb396 2.427 . S
O413 C412 1.275 . S
O414 Tb396 2.513 . S
O414 C412 1.246 . S
C415 O399 1.245 . S
C415 O400 1.259 . S
Tb416 O419 2.453 1_545 S
Tb416 O420 2.596 . S
Tb416 O421 2.374 1_455 S
Tb416 O429 2.343 . S
Tb416 O431 2.353 . S
Tb416 O433 2.427 . S
Tb416 O434 2.513 1_455 S
C417 O421 1.251 . S
C417 O423 1.263 . S
Tb418 O420 2.343 . S
Tb418 O423 2.353 1_455 S
Tb418 O426 2.427 . S
Tb418 O427 2.513 . S
Tb418 O428 2.453 . S
Tb418 O429 2.596 . S
Tb418 O430 2.374 . S
O419 Tb416 2.453 1_565 S
O419 C435 1.245 1_565 S
O420 Tb416 2.596 . S
O420 Tb418 2.343 . S
O420 C435 1.259 . S
O421 Tb416 2.374 1_655 S
O421 C417 1.251 . S
C422 O426 1.275 . S
C422 O427 1.246 . S
O423 C417 1.263 . S
O423 Tb418 2.353 1_655 S
C424 O428 1.245 . S
C424 O429 1.259 . S
C425 O430 1.250 . S
C425 O431 1.263 . S
O426 Tb418 2.427 . S
O426 C422 1.275 . S
O427 Tb418 2.513 . S
O427 C422 1.246 . S
O428 Tb418 2.453 . S
O428 C424 1.245 . S
O429 Tb416 2.343 . S
O429 Tb418 2.596 . S
O429 C424 1.259 . S
O430 Tb418 2.374 . S
O430 C425 1.250 . S
O431 Tb416 2.353 . S
O431 C425 1.263 . S
C432 O433 1.275 . S
C432 O434 1.246 1_455 S
O433 Tb416 2.427 . S
O433 C432 1.275 . S
O434 Tb416 2.513 1_655 S
O434 C432 1.246 1_655 S
C435 O419 1.245 1_545 S
C435 O420 1.259 . S
Tb436 O439 2.453 . S
Tb436 O440 2.596 . S
Tb436 O441 2.374 . S
Tb436 O449 2.343 . S
Tb436 O451 2.353 . S
Tb436 O453 2.427 . S
Tb436 O454 2.513 . S
C437 O441 1.251 . S
C437 O443 1.263 . S
Tb438 O440 2.343 . S
Tb438 O443 2.353 . S
Tb438 O446 2.427 . S
Tb438 O447 2.513 . S
Tb438 O448 2.453 . S
Tb438 O449 2.596 . S
Tb438 O450 2.374 . S
O439 Tb436 2.453 . S
O439 C455 1.245 . S
O440 Tb436 2.596 . S
O440 Tb438 2.343 . S
O440 C455 1.259 . S
O441 Tb436 2.374 . S
O441 C437 1.251 . S
C442 O446 1.275 . S
C442 O447 1.246 . S
O443 C437 1.263 . S
O443 Tb438 2.353 . S
C444 O448 1.245 . S
C444 O449 1.259 . S
C445 O450 1.250 . S
C445 O451 1.263 . S
O446 Tb438 2.427 . S
O446 C442 1.275 . S
O447 Tb438 2.513 . S
O447 C442 1.246 . S
O448 Tb438 2.453 . S
O448 C444 1.245 . S
O449 Tb436 2.343 . S
O449 Tb438 2.596 . S
O449 C444 1.259 . S
O450 Tb438 2.374 . S
O450 C445 1.250 . S
O451 Tb436 2.353 . S
O451 C445 1.263 . S
C452 O453 1.275 . S
C452 O454 1.246 . S
O453 Tb436 2.427 . S
O453 C452 1.275 . S
O454 Tb436 2.513 . S
O454 C452 1.246 . S
C455 O439 1.245 . S
C455 O440 1.259 . S
Tb456 O459 2.453 1_554 S
Tb456 O460 2.596 . S
Tb456 O461 2.426 . S
Tb456 O469 2.343 . S
Tb456 O471 2.353 . S
Tb456 O473 2.427 . S
Tb456 O474 2.513 . S
C457 O461 1.225 1_565 S
C457 O463 1.263 1_565 S
Tb458 O460 2.343 . S
Tb458 O463 2.353 . S
Tb458 O466 2.427 . S
Tb458 O467 2.513 . S
Tb458 O468 2.453 . S
Tb458 O469 2.596 . S
Tb458 O470 2.374 . S
O459 Tb456 2.453 1_556 S
O459 C475 1.245 . S
O460 Tb456 2.596 . S
O460 Tb458 2.343 . S
O460 C475 1.259 1_554 S
O461 Tb456 2.426 . S
O461 C457 1.225 1_545 S
C462 O466 1.275 . S
C462 O467 1.246 . S
O463 C457 1.263 1_545 S
O463 Tb458 2.353 . S
C464 O468 1.245 . S
C464 O469 1.259 . S
C465 O470 1.250 . S
C465 O471 1.263 . S
O466 Tb458 2.427 . S
O466 C462 1.275 . S
O467 Tb458 2.513 . S
O467 C462 1.246 . S
O468 Tb458 2.453 . S
O468 C464 1.245 . S
O469 Tb456 2.343 . S
O469 Tb458 2.596 . S
O469 C464 1.259 . S
O470 Tb458 2.374 . S
O470 C465 1.250 . S
O471 Tb456 2.353 . S
O471 C465 1.263 . S
C472 O473 1.275 . S
C472 O474 1.246 . S
O473 Tb456 2.427 . S
O473 C472 1.275 . S
O474 Tb456 2.513 . S
O474 C472 1.246 . S
C475 O459 1.245 . S
C475 O460 1.259 1_556 S
Tb476 O479 2.453 . S
Tb476 O480 2.596 . S
Tb476 O481 2.374 . S
Tb476 O489 2.343 . S
Tb476 O491 2.353 . S
Tb476 O493 2.427 . S
Tb476 O494 2.513 . S
C477 O481 1.251 . S
C477 O483 1.263 . S
Tb478 O480 2.343 . S
Tb478 O483 2.353 . S
Tb478 O486 2.427 . S
Tb478 O487 2.513 . S
Tb478 O488 2.453 . S
Tb478 O489 2.596 . S
Tb478 O490 2.374 . S
O479 Tb476 2.453 . S
O479 C495 1.245 . S
O480 Tb476 2.596 . S
O480 Tb478 2.343 . S
O480 C495 1.259 . S
O481 Tb476 2.374 . S
O481 C477 1.251 . S
C482 O486 1.275 . S
C482 O487 1.246 . S
O483 C477 1.263 . S
O483 Tb478 2.353 . S
C484 O488 1.245 . S
C484 O489 1.259 . S
C485 O490 1.250 . S
C485 O491 1.263 . S
O486 Tb478 2.427 . S
O486 C482 1.275 . S
O487 Tb478 2.513 . S
O487 C482 1.246 . S
O488 Tb478 2.453 . S
O488 C484 1.245 . S
O489 Tb476 2.343 . S
O489 Tb478 2.596 . S
O489 C484 1.259 . S
O490 Tb478 2.374 . S
O490 C485 1.250 . S
O491 Tb476 2.353 . S
O491 C485 1.263 . S
C492 O493 1.275 . S
C492 O494 1.246 . S
O493 Tb476 2.427 . S
O493 C492 1.275 . S
O494 Tb476 2.513 . S
O494 C492 1.246 . S
C495 O479 1.245 . S
C495 O480 1.259 . S
Tb496 O499 2.453 1_556 S
Tb496 O500 2.596 1_556 S
Tb496 O501 2.374 1_556 S
Tb496 O509 2.343 1_556 S
Tb496 O511 2.353 1_556 S
Tb496 O513 2.427 . S
Tb496 O514 2.513 . S
C497 O501 1.251 . S
C497 O503 1.263 . S
Tb498 O500 2.343 . S
Tb498 O503 2.353 . S
Tb498 O506 2.427 . S
Tb498 O507 2.513 . S
Tb498 O508 2.453 . S
Tb498 O509 2.596 . S
Tb498 O510 2.374 . S
O499 Tb496 2.453 1_554 S
O499 C515 1.245 . S
O500 Tb496 2.596 1_554 S
O500 Tb498 2.343 . S
O500 C515 1.259 . S
O501 Tb496 2.374 1_554 S
O501 C497 1.251 . S
C502 O506 1.275 . S
C502 O507 1.246 . S
O503 C497 1.263 . S
O503 Tb498 2.353 . S
C504 O508 1.245 . S
C504 O509 1.259 . S
C505 O510 1.250 . S
C505 O511 1.263 . S
O506 Tb498 2.427 . S
O506 C502 1.275 . S
O507 Tb498 2.513 . S
O507 C502 1.246 . S
O508 Tb498 2.453 . S
O508 C504 1.245 . S
O509 Tb496 2.343 1_554 S
O509 Tb498 2.596 . S
O509 C504 1.259 . S
O510 Tb498 2.374 . S
O510 C505 1.250 . S
O511 Tb496 2.353 1_554 S
O511 C505 1.263 . S
C512 O513 1.275 . S
C512 O514 1.246 . S
O513 Tb496 2.427 . S
O513 C512 1.275 . S
O514 Tb496 2.513 . S
O514 C512 1.246 . S
C515 O499 1.245 . S
C515 O500 1.259 . S
Tb516 O519 2.453 . S
Tb516 O520 2.596 . S
Tb516 O521 2.374 . S
Tb516 O529 2.343 . S
Tb516 O531 2.353 . S
Tb516 O533 2.427 . S
Tb516 O534 2.513 . S
C517 O521 1.251 . S
C517 O523 1.263 . S
Tb518 O520 2.343 . S
Tb518 O523 2.353 . S
Tb518 O526 2.427 . S
Tb518 O527 2.513 . S
Tb518 O528 2.453 . S
Tb518 O529 2.596 . S
Tb518 O530 2.374 . S
O519 Tb516 2.453 . S
O519 C535 1.245 . S
O520 Tb516 2.596 . S
O520 Tb518 2.343 . S
O520 C535 1.259 . S
O521 Tb516 2.374 . S
O521 C517 1.251 . S
C522 O526 1.275 . S
C522 O527 1.246 . S
O523 C517 1.263 . S
O523 Tb518 2.353 . S
C524 O528 1.245 . S
C524 O529 1.259 . S
C525 O530 1.250 . S
C525 O531 1.263 . S
O526 Tb518 2.427 . S
O526 C522 1.275 . S
O527 Tb518 2.513 . S
O527 C522 1.246 . S
O528 Tb518 2.453 . S
O528 C524 1.245 . S
O529 Tb516 2.343 . S
O529 Tb518 2.596 . S
O529 C524 1.259 . S
O530 Tb518 2.374 . S
O530 C525 1.250 . S
O531 Tb516 2.353 . S
O531 C525 1.263 . S
C532 O533 1.275 . S
C532 O534 1.246 . S
O533 Tb516 2.427 . S
O533 C532 1.275 . S
O534 Tb516 2.513 . S
O534 C532 1.246 . S
C535 O519 1.245 . S
C535 O520 1.259 . S
Tb536 O539 2.453 1_655 S
Tb536 O540 2.596 1_655 S
Tb536 O541 2.374 . S
Tb536 O549 2.343 . S
Tb536 O551 2.353 . S
Tb536 O553 2.427 . S
Tb536 O554 2.513 . S
C537 O541 1.251 1_455 S
C537 O543 1.263 . S
Tb538 O540 2.343 . S
Tb538 O543 2.353 . S
Tb538 O546 2.427 . S
Tb538 O547 2.513 . S
Tb538 O548 2.453 . S
Tb538 O549 2.596 1_455 S
Tb538 O550 2.374 . S
O539 Tb536 2.453 1_455 S
O539 C555 1.245 . S
O540 Tb536 2.596 1_455 S
O540 Tb538 2.343 . S
O540 C555 1.259 . S
O541 Tb536 2.374 . S
O541 C537 1.251 1_655 S
C542 O546 1.275 . S
C542 O547 1.246 . S
O543 C537 1.263 . S
O543 Tb538 2.353 . S
C544 O548 1.245 1_655 S
C544 O549 1.259 . S
C545 O550 1.250 . S
C545 O551 1.263 1_455 S
O546 Tb538 2.427 . S
O546 C542 1.275 . S
O547 Tb538 2.513 . S
O547 C542 1.246 . S
O548 Tb538 2.453 . S
O548 C544 1.245 1_455 S
O549 Tb536 2.343 . S
O549 Tb538 2.596 1_655 S
O549 C544 1.259 . S
O550 Tb538 2.374 . S
O550 C545 1.250 . S
O551 Tb536 2.353 . S
O551 C545 1.263 1_655 S
C552 O553 1.275 . S
C552 O554 1.246 . S
O553 Tb536 2.427 . S
O553 C552 1.275 . S
O554 Tb536 2.513 . S
O554 C552 1.246 . S
C555 O539 1.245 . S
C555 O540 1.259 . S
Tb556 O559 2.453 . S
Tb556 O560 2.596 . S
Tb556 O561 2.374 . S
Tb556 O569 2.343 . S
Tb556 O571 2.353 . S
Tb556 O573 2.427 . S
Tb556 O574 2.513 . S
C557 O561 1.251 . S
C557 O563 1.263 . S
Tb558 O560 2.343 . S
Tb558 O563 2.353 . S
Tb558 O566 2.427 . S
Tb558 O567 2.513 . S
Tb558 O568 2.453 . S
Tb558 O569 2.596 . S
Tb558 O570 2.374 . S
O559 Tb556 2.453 . S
O559 C575 1.245 . S
O560 Tb556 2.596 . S
O560 Tb558 2.343 . S
O560 C575 1.259 . S
O561 Tb556 2.374 . S
O561 C557 1.251 . S
C562 O566 1.275 . S
C562 O567 1.246 . S
O563 C557 1.263 . S
O563 Tb558 2.353 . S
C564 O568 1.245 . S
C564 O569 1.259 . S
C565 O570 1.250 . S
C565 O571 1.263 . S
O566 Tb558 2.427 . S
O566 C562 1.275 . S
O567 Tb558 2.513 . S
O567 C562 1.246 . S
O568 Tb558 2.453 . S
O568 C564 1.245 . S
O569 Tb556 2.343 . S
O569 Tb558 2.596 . S
O569 C564 1.259 . S
O570 Tb558 2.374 . S
O570 C565 1.250 . S
O571 Tb556 2.353 . S
O571 C565 1.263 . S
C572 O573 1.275 . S
C572 O574 1.246 . S
O573 Tb556 2.427 . S
O573 C572 1.275 . S
O574 Tb556 2.513 . S
O574 C572 1.246 . S
C575 O559 1.245 . S
C575 O560 1.259 . S
Tb576 O579 2.453 . S
Tb576 O580 2.596 . S
Tb576 O581 2.374 . S
Tb576 O589 2.343 . S
Tb576 O591 2.353 . S
Tb576 O593 2.427 . S
Tb576 O594 2.513 . S
C577 O581 1.251 . S
C577 O583 1.263 . S
Tb578 O580 2.343 . S
Tb578 O583 2.353 . S
Tb578 O586 2.427 . S
Tb578 O587 2.513 . S
Tb578 O588 2.453 . S
Tb578 O589 2.596 . S
Tb578 O590 2.374 . S
O579 Tb576 2.453 . S
O579 C595 1.245 . S
O580 Tb576 2.596 . S
O580 Tb578 2.343 . S
O580 C595 1.259 . S
O581 Tb576 2.374 . S
O581 C577 1.251 . S
C582 O586 1.275 . S
C582 O587 1.246 . S
O583 C577 1.263 . S
O583 Tb578 2.353 . S
C584 O588 1.245 . S
C584 O589 1.259 . S
C585 O590 1.250 . S
C585 O591 1.263 . S
O586 Tb578 2.427 . S
O586 C582 1.275 . S
O587 Tb578 2.513 . S
O587 C582 1.246 . S
O588 Tb578 2.453 . S
O588 C584 1.245 . S
O589 Tb576 2.343 . S
O589 Tb578 2.596 . S
O589 C584 1.259 . S
O590 Tb578 2.374 . S
O590 C585 1.250 . S
O591 Tb576 2.353 . S
O591 C585 1.263 . S
C592 O593 1.275 . S
C592 O594 1.246 . S
O593 Tb576 2.427 . S
O593 C592 1.275 . S
O594 Tb576 2.513 . S
O594 C592 1.246 . S
C595 O579 1.245 . S
C595 O580 1.259 . S
Tb596 O599 2.453 . S
Tb596 O600 2.596 . S
Tb596 O601 2.374 . S
Tb596 O609 2.343 . S
Tb596 O611 2.353 . S
Tb596 O613 2.427 . S
Tb596 O614 2.513 . S
C597 O601 1.251 . S
C597 O603 1.263 . S
Tb598 O600 2.343 . S
Tb598 O603 2.353 . S
Tb598 O606 2.427 . S
Tb598 O607 2.513 . S
Tb598 O608 2.453 . S
Tb598 O609 2.596 . S
Tb598 O610 2.374 . S
O599 Tb596 2.453 . S
O599 C615 1.245 . S
O600 Tb596 2.596 . S
O600 Tb598 2.343 . S
O600 C615 1.259 . S
O601 Tb596 2.374 . S
O601 C597 1.251 . S
C602 O606 1.275 . S
C602 O607 1.246 . S
O603 C597 1.263 . S
O603 Tb598 2.353 . S
C604 O608 1.245 . S
C604 O609 1.259 . S
C605 O610 1.250 . S
C605 O611 1.263 . S
O606 Tb598 2.427 . S
O606 C602 1.275 . S
O607 Tb598 2.513 . S
O607 C602 1.246 . S
O608 Tb598 2.453 . S
O608 C604 1.245 . S
O609 Tb596 2.343 . S
O609 Tb598 2.596 . S
O609 C604 1.259 . S
O610 Tb598 2.374 . S
O610 C605 1.250 . S
O611 Tb596 2.353 . S
O611 C605 1.263 . S
C612 O613 1.275 . S
C612 O614 1.246 . S
O613 Tb596 2.427 . S
O613 C612 1.275 . S
O614 Tb596 2.513 . S
O614 C612 1.246 . S
C615 O599 1.245 . S
C615 O600 1.259 . S
Tb616 O619 2.453 . S
Tb616 O620 2.596 . S
Tb616 O621 2.374 . S
Tb616 O629 2.343 . S
Tb616 O631 2.353 . S
Tb616 O633 2.427 . S
Tb616 O634 2.513 . S
C617 O621 1.251 . S
C617 O623 1.263 . S
Tb618 O620 2.343 . S
Tb618 O623 2.353 . S
Tb618 O626 2.427 . S
Tb618 O627 2.513 . S
Tb618 O628 2.453 . S
Tb618 O629 2.596 . S
Tb618 O630 2.374 . S
O619 Tb616 2.453 . S
O619 C635 1.245 . S
O620 Tb616 2.596 . S
O620 Tb618 2.343 . S
O620 C635 1.259 . S
O621 Tb616 2.374 . S
O621 C617 1.251 . S
C622 O626 1.275 . S
C622 O627 1.246 . S
O623 C617 1.263 . S
O623 Tb618 2.353 . S
C624 O628 1.245 . S
C624 O629 1.259 . S
C625 O630 1.250 . S
C625 O631 1.263 . S
O626 Tb618 2.427 . S
O626 C622 1.275 . S
O627 Tb618 2.513 . S
O627 C622 1.246 . S
O628 Tb618 2.453 . S
O628 C624 1.245 . S
O629 Tb616 2.343 . S
O629 Tb618 2.596 . S
O629 C624 1.259 . S
O630 Tb618 2.374 . S
O630 C625 1.250 . S
O631 Tb616 2.353 . S
O631 C625 1.263 . S
C632 O633 1.275 . S
C632 O634 1.246 . S
O633 Tb616 2.427 . S
O633 C632 1.275 . S
O634 Tb616 2.513 . S
O634 C632 1.246 . S
C635 O619 1.245 . S
C635 O620 1.259 . S
Tb636 O639 2.453 . S
Tb636 O640 2.596 . S
Tb636 O641 2.374 . S
Tb636 O649 2.343 . S
Tb636 O651 2.353 . S
Tb636 O653 2.427 . S
Tb636 O654 2.513 . S
C637 O641 1.251 . S
C637 O643 1.263 . S
Tb638 O640 2.343 1_655 S
Tb638 O643 2.353 1_655 S
Tb638 O646 2.427 . S
Tb638 O647 2.513 . S
Tb638 O648 2.453 . S
Tb638 O649 2.596 1_655 S
Tb638 O650 2.374 . S
O639 Tb636 2.453 . S
O639 C655 1.245 . S
O640 Tb636 2.596 . S
O640 Tb638 2.343 1_455 S
O640 C655 1.259 . S
O641 Tb636 2.374 . S
O641 C637 1.251 . S
C642 O646 1.275 . S
C642 O647 1.246 . S
O643 C637 1.263 . S
O643 Tb638 2.353 1_455 S
C644 O648 1.245 1_455 S
C644 O649 1.259 . S
C645 O650 1.250 1_456 S
C645 O651 1.263 1_556 S
O646 Tb638 2.427 . S
O646 C642 1.275 . S
O647 Tb638 2.513 . S
O647 C642 1.246 . S
O648 Tb638 2.453 . S
O648 C644 1.245 1_655 S
O649 Tb636 2.343 . S
O649 Tb638 2.596 1_455 S
O649 C644 1.259 . S
O650 Tb638 2.374 . S
O650 C645 1.250 1_654 S
O651 Tb636 2.353 . S
O651 C645 1.263 1_554 S
C652 O653 1.275 . S
C652 O654 1.246 . S
O653 Tb636 2.427 . S
O653 C652 1.275 . S
O654 Tb636 2.513 . S
O654 C652 1.246 . S
C655 O639 1.245 . S
C655 O640 1.259 . S
H656 C664 0.929 . S
H657 C666 0.930 . S
H658 C668 0.930 . S
H659 C671 0.929 . S
H660 C674 0.930 . S
H661 C676 0.960 . S
H662 C676 0.960 . S
H663 C676 0.960 . S
C664 H656 0.929 . S
C664 C665 1.377 1_655 S
C664 C666 1.384 . S
C665 C664 1.377 1_455 S
C665 C671 1.390 . S
C666 H657 0.930 . S
C666 C664 1.384 . S
C666 C667 1.372 1_655 S
C667 C666 1.372 1_455 S
C667 C668 1.400 . S
C667 C672 1.490 . S
C668 H658 0.930 . S
C668 C667 1.400 . S
C668 C671 1.386 . S
H669 C685 0.930 . S
H670 C686 0.931 . S
C671 H659 0.929 . S
C671 C665 1.390 . S
C671 C668 1.386 . S
C672 C667 1.490 . S
C672 C674 1.395 1_455 S
C672 C675 1.403 . S
H673 C679 0.930 . S
C674 H660 0.930 . S
C674 C672 1.395 1_655 S
C674 C677 1.403 . S
C675 C672 1.403 . S
C675 C676 1.524 . S
C675 C679 1.400 . S
C676 H661 0.960 . S
C676 H662 0.960 . S
C676 H663 0.960 . S
C676 C675 1.524 . S
C677 C674 1.403 . S
C677 C678 1.392 1_655 S
C677 C681 1.495 . S
C678 C677 1.392 1_455 S
C678 C679 1.385 . S
C678 C680 1.478 . S
C679 H673 0.930 . S
C679 C675 1.400 . S
C679 C678 1.385 . S
C680 C678 1.478 . S
C680 C682 1.381 1_455 S
C680 C686 1.383 . S
C681 C677 1.495 . S
C681 H687 0.959 . S
C681 H688 0.961 . S
C681 H689 0.960 . S
C682 C680 1.381 1_655 S
C682 C683 1.355 1_556 S
C682 H690 0.930 . S
C683 C682 1.355 1_554 S
C683 C684 1.379 1_655 S
C683 H691 0.975 . S
C684 C683 1.379 1_455 S
C684 C685 1.382 1_554 S
C685 H669 0.930 . S
C685 C684 1.382 1_556 S
C685 C686 1.379 . S
C686 H670 0.931 . S
C686 C680 1.383 . S
C686 C685 1.379 . S
H687 C681 0.959 . S
H688 C681 0.961 . S
H689 C681 0.960 . S
H690 C682 0.930 . S
H691 C683 0.975 . S
H692 C700 0.929 . S
H693 C702 0.930 . S
H694 C704 0.930 . S
H695 C707 0.929 . S
H696 C710 0.930 . S
H697 C712 0.960 . S
H698 C712 0.960 . S
H699 C712 0.960 . S
C700 H692 0.929 . S
C700 C701 1.377 . S
C700 C702 1.384 . S
C701 C700 1.377 . S
C701 C707 1.390 . S
C702 H693 0.930 . S
C702 C700 1.384 . S
C702 C703 1.372 . S
C703 C702 1.372 . S
C703 C704 1.400 . S
C703 C708 1.490 . S
C704 H694 0.930 . S
C704 C703 1.400 . S
C704 C707 1.386 . S
H705 C721 0.930 . S
H706 C722 0.931 . S
C707 H695 0.929 . S
C707 C701 1.390 . S
C707 C704 1.386 . S
C708 C703 1.490 . S
C708 C710 1.395 . S
C708 C711 1.403 . S
H709 C715 0.930 . S
C710 H696 0.930 . S
C710 C708 1.395 . S
C710 C713 1.403 . S
C711 C708 1.403 . S
C711 C712 1.524 . S
C711 C715 1.400 . S
C712 H697 0.960 . S
C712 H698 0.960 . S
C712 H699 0.960 . S
C712 C711 1.524 . S
C713 C710 1.403 . S
C713 C714 1.392 . S
C713 C717 1.495 . S
C714 C713 1.392 . S
C714 C715 1.385 . S
C714 C716 1.478 . S
C715 H709 0.930 . S
C715 C711 1.400 . S
C715 C714 1.385 . S
C716 C714 1.478 . S
C716 C718 1.381 . S
C716 C722 1.383 . S
C717 C713 1.495 . S
C717 H723 0.959 . S
C717 H724 0.961 . S
C717 H725 0.960 . S
C718 C716 1.381 . S
C718 C719 1.394 . S
C718 H726 0.930 . S
C719 C718 1.394 . S
C719 C720 1.383 . S
C719 H727 0.929 . S
C720 C719 1.383 . S
C720 C721 1.377 . S
C721 H705 0.930 . S
C721 C720 1.377 . S
C721 C722 1.379 . S
C722 H706 0.931 . S
C722 C716 1.383 . S
C722 C721 1.379 . S
H723 C717 0.959 . S
H724 C717 0.961 . S
H725 C717 0.960 . S
H726 C718 0.930 . S
H727 C719 0.929 . S
H728 C736 0.929 . S
H729 C738 0.930 . S
H730 C740 0.930 . S
H731 C743 0.929 . S
H732 C746 0.930 . S
H733 C748 0.960 . S
H734 C748 0.960 . S
H735 C748 0.960 . S
C736 H728 0.929 . S
C736 C737 1.377 . S
C736 C738 1.384 . S
C737 C736 1.377 . S
C737 C743 1.390 . S
C738 H729 0.930 . S
C738 C736 1.384 . S
C738 C739 1.372 . S
C739 C738 1.372 . S
C739 C740 1.400 . S
C739 C744 1.490 . S
C740 H730 0.930 . S
C740 C739 1.400 . S
C740 C743 1.386 . S
H741 C757 0.930 . S
H742 C758 0.931 . S
C743 H731 0.929 . S
C743 C737 1.390 . S
C743 C740 1.386 . S
C744 C739 1.490 . S
C744 C746 1.395 . S
C744 C747 1.403 . S
H745 C751 0.930 . S
C746 H732 0.930 . S
C746 C744 1.395 . S
C746 C749 1.403 . S
C747 C744 1.403 . S
C747 C748 1.524 . S
C747 C751 1.400 . S
C748 H733 0.960 . S
C748 H734 0.960 . S
C748 H735 0.960 . S
C748 C747 1.524 . S
C749 C746 1.403 . S
C749 C750 1.392 . S
C749 C753 1.495 . S
C750 C749 1.392 . S
C750 C751 1.385 . S
C750 C752 1.478 . S
C751 H745 0.930 . S
C751 C747 1.400 . S
C751 C750 1.385 . S
C752 C750 1.478 . S
C752 C754 1.381 . S
C752 C758 1.383 . S
C753 C749 1.495 . S
C753 H759 0.959 . S
C753 H760 0.961 . S
C753 H761 0.960 . S
C754 C752 1.381 . S
C754 C755 1.394 . S
C754 H762 0.930 . S
C755 C754 1.394 . S
C755 C756 1.383 . S
C755 H763 0.929 . S
C756 C755 1.383 . S
C756 C757 1.377 . S
C757 H741 0.930 . S
C757 C756 1.377 . S
C757 C758 1.379 . S
C758 H742 0.931 . S
C758 C752 1.383 . S
C758 C757 1.379 . S
H759 C753 0.959 . S
H760 C753 0.961 . S
H761 C753 0.960 . S
H762 C754 0.930 . S
H763 C755 0.929 . S
H764 C772 0.929 . S
H765 C774 0.930 . S
H766 C776 0.930 . S
H767 C779 0.929 . S
H768 C782 0.930 . S
H769 C784 0.960 . S
H770 C784 0.960 . S
H771 C784 0.960 . S
C772 H764 0.929 . S
C772 C773 1.377 . S
C772 C774 1.384 . S
C773 C772 1.377 . S
C773 C779 1.390 . S
C774 H765 0.930 . S
C774 C772 1.384 . S
C774 C775 1.372 . S
C775 C774 1.372 . S
C775 C776 1.400 . S
C775 C780 1.490 . S
C776 H766 0.930 . S
C776 C775 1.400 . S
C776 C779 1.386 . S
H777 C793 0.930 . S
H778 C794 0.931 . S
C779 H767 0.929 . S
C779 C773 1.390 . S
C779 C776 1.386 . S
C780 C775 1.490 . S
C780 C782 1.395 . S
C780 C783 1.403 . S
H781 C787 0.930 . S
C782 H768 0.930 . S
C782 C780 1.395 . S
C782 C785 1.403 . S
C783 C780 1.403 . S
C783 C784 1.524 . S
C783 C787 1.400 . S
C784 H769 0.960 . S
C784 H770 0.960 . S
C784 H771 0.960 . S
C784 C783 1.524 . S
C785 C782 1.403 . S
C785 C786 1.392 . S
C785 C789 1.495 . S
C786 C785 1.392 . S
C786 C787 1.385 . S
C786 C788 1.478 . S
C787 H781 0.930 . S
C787 C783 1.400 . S
C787 C786 1.385 . S
C788 C786 1.478 . S
C788 C790 1.381 . S
C788 C794 1.383 . S
C789 C785 1.495 . S
C789 H795 0.959 . S
C789 H796 0.961 . S
C789 H797 0.960 . S
C790 C788 1.381 . S
C790 C791 1.394 . S
C790 H798 0.930 . S
C791 C790 1.394 . S
C791 C792 1.383 . S
C791 H799 0.929 . S
C792 C791 1.383 . S
C792 C793 1.377 . S
C793 H777 0.930 . S
C793 C792 1.377 . S
C793 C794 1.379 . S
C794 H778 0.931 . S
C794 C788 1.383 . S
C794 C793 1.379 . S
H795 C789 0.959 . S
H796 C789 0.961 . S
H797 C789 0.960 . S
H798 C790 0.930 . S
H799 C791 0.929 . S
H800 C808 0.929 . S
H801 C810 0.930 . S
H802 C812 0.930 . S
H803 C815 0.929 . S
H804 C818 0.930 1_655 S
H805 C820 0.960 . S
H806 C820 0.960 . S
H807 C820 0.960 . S
C808 H800 0.929 . S
C808 C809 1.377 . S
C808 C810 1.384 . S
C809 C808 1.377 . S
C809 C815 1.390 . S
C810 H801 0.930 . S
C810 C808 1.384 . S
C810 C811 1.372 . S
C811 C810 1.372 . S
C811 C812 1.400 . S
C811 C816 1.490 . S
C812 H802 0.930 . S
C812 C811 1.400 . S
C812 C815 1.386 . S
H813 C829 0.930 . S
H814 C830 0.931 . S
C815 H803 0.929 . S
C815 C809 1.390 . S
C815 C812 1.386 . S
C816 C811 1.490 . S
C816 C818 1.394 . S
C816 C819 1.403 . S
H817 C823 0.930 . S
C818 H804 0.930 1_455 S
C818 C816 1.394 . S
C818 C821 1.398 1_455 S
C819 C816 1.403 . S
C819 C820 1.524 . S
C819 C823 1.400 . S
C820 H805 0.960 . S
C820 H806 0.960 . S
C820 H807 0.960 . S
C820 C819 1.524 . S
C821 C818 1.398 1_655 S
C821 C822 1.374 1_655 S
C821 C825 1.520 . S
C822 C821 1.374 1_455 S
C822 C823 1.385 . S
C822 C824 1.478 . S
C823 H817 0.930 . S
C823 C819 1.400 . S
C823 C822 1.385 . S
C824 C822 1.478 . S
C824 C826 1.381 . S
C824 C830 1.383 . S
C825 C821 1.520 . S
C825 H831 0.959 . S
C825 H832 0.961 . S
C825 H833 0.960 . S
C826 C824 1.381 . S
C826 C827 1.394 . S
C826 H834 0.930 . S
C827 C826 1.394 . S
C827 C828 1.383 . S
C827 H835 0.929 . S
C828 C827 1.383 . S
C828 C829 1.377 . S
C829 H813 0.930 . S
C829 C828 1.377 . S
C829 C830 1.379 . S
C830 H814 0.931 . S
C830 C824 1.383 . S
C830 C829 1.379 . S
H831 C825 0.959 . S
H832 C825 0.961 . S
H833 C825 0.960 . S
H834 C826 0.930 . S
H835 C827 0.929 . S
H836 C844 0.929 . S
H837 C846 0.930 . S
H838 C848 0.930 . S
H839 C851 0.929 . S
H840 C854 0.930 . S
H841 C856 0.960 . S
H842 C856 0.960 . S
H843 C856 0.960 . S
C844 H836 0.929 . S
C844 C845 1.377 . S
C844 C846 1.384 . S
C845 C844 1.377 . S
C845 C851 1.390 . S
C846 H837 0.930 . S
C846 C844 1.384 . S
C846 C847 1.372 . S
C847 C846 1.372 . S
C847 C848 1.400 . S
C847 C852 1.490 . S
C848 H838 0.930 . S
C848 C847 1.400 . S
C848 C851 1.386 . S
H849 C865 0.930 . S
H850 C866 0.931 . S
C851 H839 0.929 . S
C851 C845 1.390 . S
C851 C848 1.386 . S
C852 C847 1.490 . S
C852 C854 1.395 . S
C852 C855 1.403 . S
H853 C859 0.930 . S
C854 H840 0.930 . S
C854 C852 1.395 . S
C854 C857 1.403 . S
C855 C852 1.403 . S
C855 C856 1.524 . S
C855 C859 1.400 . S
C856 H841 0.960 . S
C856 H842 0.960 . S
C856 H843 0.960 . S
C856 C855 1.524 . S
C857 C854 1.403 . S
C857 C858 1.392 . S
C857 C861 1.495 . S
C858 C857 1.392 . S
C858 C859 1.385 . S
C858 C860 1.478 . S
C859 H853 0.930 . S
C859 C855 1.400 . S
C859 C858 1.385 . S
C860 C858 1.478 . S
C860 C862 1.381 . S
C860 C866 1.383 . S
C861 C857 1.495 . S
C861 H867 0.959 . S
C861 H868 0.961 . S
C861 H869 0.960 . S
C862 C860 1.381 . S
C862 C863 1.394 . S
C862 H870 0.930 . S
C863 C862 1.394 . S
C863 C864 1.383 . S
C863 H871 0.929 . S
C864 C863 1.383 . S
C864 C865 1.377 . S
C865 H849 0.930 . S
C865 C864 1.377 . S
C865 C866 1.379 . S
C866 H850 0.931 . S
C866 C860 1.383 . S
C866 C865 1.379 . S
H867 C861 0.959 . S
H868 C861 0.961 . S
H869 C861 0.960 . S
H870 C862 0.930 . S
H871 C863 0.929 . S
H872 C880 0.929 . S
H873 C882 0.930 . S
H874 C884 0.930 . S
H875 C887 0.929 . S
H876 C890 0.930 . S
H877 C892 0.960 . S
H878 C892 0.960 . S
H879 C892 0.960 . S
C880 H872 0.929 . S
C880 C881 1.377 . S
C880 C882 1.384 . S
C881 C880 1.377 . S
C881 C887 1.390 . S
C882 H873 0.930 . S
C882 C880 1.384 . S
C882 C883 1.372 . S
C883 C882 1.372 . S
C883 C884 1.400 . S
C883 C888 1.490 . S
C884 H874 0.930 . S
C884 C883 1.400 . S
C884 C887 1.386 . S
H885 C901 0.930 . S
H886 C902 0.931 . S
C887 H875 0.929 . S
C887 C881 1.390 . S
C887 C884 1.386 . S
C888 C883 1.490 . S
C888 C890 1.395 . S
C888 C891 1.403 . S
H889 C895 0.930 . S
C890 H876 0.930 . S
C890 C888 1.395 . S
C890 C893 1.403 . S
C891 C888 1.403 . S
C891 C892 1.524 . S
C891 C895 1.400 . S
C892 H877 0.960 . S
C892 H878 0.960 . S
C892 H879 0.960 . S
C892 C891 1.524 . S
C893 C890 1.403 . S
C893 C894 1.392 . S
C893 C897 1.495 . S
C894 C893 1.392 . S
C894 C895 1.385 . S
C894 C896 1.478 . S
C895 H889 0.930 . S
C895 C891 1.400 . S
C895 C894 1.385 . S
C896 C894 1.478 . S
C896 C898 1.381 . S
C896 C902 1.383 . S
C897 C893 1.495 . S
C897 H903 0.959 . S
C897 H904 0.961 . S
C897 H905 0.960 . S
C898 C896 1.381 . S
C898 C899 1.394 . S
C898 H906 0.930 . S
C899 C898 1.394 . S
C899 C900 1.383 . S
C899 H907 0.929 . S
C900 C899 1.383 . S
C900 C901 1.377 . S
C901 H885 0.930 . S
C901 C900 1.377 . S
C901 C902 1.379 . S
C902 H886 0.931 . S
C902 C896 1.383 . S
C902 C901 1.379 . S
H903 C897 0.959 . S
H904 C897 0.961 . S
H905 C897 0.960 . S
H906 C898 0.930 . S
H907 C899 0.929 . S
H908 C916 0.929 . S
H909 C918 0.930 . S
H910 C920 0.930 . S
H911 C923 0.929 . S
H912 C926 0.930 . S
H913 C928 0.960 . S
H914 C928 0.960 . S
H915 C928 0.960 . S
C916 H908 0.929 . S
C916 C917 1.377 . S
C916 C918 1.384 . S
C917 C916 1.377 . S
C917 C923 1.390 . S
C918 H909 0.930 . S
C918 C916 1.384 . S
C918 C919 1.372 . S
C919 C918 1.372 . S
C919 C920 1.400 . S
C919 C924 1.490 . S
C920 H910 0.930 . S
C920 C919 1.400 . S
C920 C923 1.386 . S
H921 C937 0.930 . S
H922 C938 0.931 . S
C923 H911 0.929 . S
C923 C917 1.390 . S
C923 C920 1.386 . S
C924 C919 1.490 . S
C924 C926 1.395 . S
C924 C927 1.403 . S
H925 C931 0.930 . S
C926 H912 0.930 . S
C926 C924 1.395 . S
C926 C929 1.403 . S
C927 C924 1.403 . S
C927 C928 1.524 . S
C927 C931 1.400 . S
C928 H913 0.960 . S
C928 H914 0.960 . S
C928 H915 0.960 . S
C928 C927 1.524 . S
C929 C926 1.403 . S
C929 C930 1.392 . S
C929 C933 1.495 . S
C930 C929 1.392 . S
C930 C931 1.385 . S
C930 C932 1.478 . S
C931 H925 0.930 . S
C931 C927 1.400 . S
C931 C930 1.385 . S
C932 C930 1.478 . S
C932 C934 1.381 . S
C932 C938 1.383 . S
C933 C929 1.495 . S
C933 H939 0.959 . S
C933 H940 0.961 . S
C933 H941 0.960 . S
C934 C932 1.381 . S
C934 C935 1.394 . S
C934 H942 0.930 . S
C935 C934 1.394 . S
C935 C936 1.383 . S
C935 H943 0.929 . S
C936 C935 1.383 . S
C936 C937 1.377 . S
C937 H921 0.930 . S
C937 C936 1.377 . S
C937 C938 1.379 . S
C938 H922 0.931 . S
C938 C932 1.383 . S
C938 C937 1.379 . S
H939 C933 0.959 . S
H940 C933 0.961 . S
H941 C933 0.960 . S
H942 C934 0.930 . S
H943 C935 0.929 . S
H944 C952 0.929 . S
H945 C954 0.930 . S
H946 C956 0.930 . S
H947 C959 0.929 . S
H948 C962 0.930 . S
H949 C964 0.960 . S
H950 C964 0.960 . S
H951 C964 0.960 . S
C952 H944 0.929 . S
C952 C953 1.377 . S
C952 C954 1.384 . S
C953 C952 1.377 . S
C953 C959 1.390 . S
C954 H945 0.930 . S
C954 C952 1.384 . S
C954 C955 1.372 . S
C955 C954 1.372 . S
C955 C956 1.400 . S
C955 C960 1.490 . S
C956 H946 0.930 . S
C956 C955 1.400 . S
C956 C959 1.386 . S
H957 C973 0.930 . S
H958 C974 0.931 . S
C959 H947 0.929 . S
C959 C953 1.390 . S
C959 C956 1.386 . S
C960 C955 1.490 . S
C960 C962 1.395 . S
C960 C963 1.403 . S
H961 C967 0.930 . S
C962 H948 0.930 . S
C962 C960 1.395 . S
C962 C965 1.403 . S
C963 C960 1.403 . S
C963 C964 1.524 . S
C963 C967 1.400 . S
C964 H949 0.960 . S
C964 H950 0.960 . S
C964 H951 0.960 . S
C964 C963 1.524 . S
C965 C962 1.403 . S
C965 C966 1.392 . S
C965 C969 1.495 . S
C966 C965 1.392 . S
C966 C967 1.385 . S
C966 C968 1.478 . S
C967 H961 0.930 . S
C967 C963 1.400 . S
C967 C966 1.385 . S
C968 C966 1.478 . S
C968 C970 1.381 . S
C968 C974 1.383 . S
C969 C965 1.495 . S
C969 H975 0.959 . S
C969 H976 0.961 . S
C969 H977 0.960 . S
C970 C968 1.381 . S
C970 C971 1.394 . S
C970 H978 0.930 . S
C971 C970 1.394 . S
C971 C972 1.383 . S
C971 H979 0.929 1_655 S
C972 C971 1.383 . S
C972 C973 1.377 . S
C973 H957 0.930 . S
C973 C972 1.377 . S
C973 C974 1.379 . S
C974 H958 0.931 . S
C974 C968 1.383 . S
C974 C973 1.379 . S
H975 C969 0.959 . S
H976 C969 0.961 . S
H977 C969 0.960 . S
H978 C970 0.930 . S
H979 C971 0.929 1_455 S
H980 C988 0.929 . S
H981 C990 0.930 . S
H982 C992 0.930 . S
H983 C995 0.929 . S
H984 C998 0.930 . S
H985 C1000 0.960 . S
H986 C1000 0.960 . S
H987 C1000 0.960 . S
C988 H980 0.929 . S
C988 C989 1.377 . S
C988 C990 1.384 . S
C989 C988 1.377 . S
C989 C995 1.390 . S
C990 H981 0.930 . S
C990 C988 1.384 . S
C990 C991 1.372 . S
C991 C990 1.372 . S
C991 C992 1.400 . S
C991 C996 1.490 . S
C992 H982 0.930 . S
C992 C991 1.400 . S
C992 C995 1.386 . S
H993 C1009 0.930 . S
H994 C1010 0.931 . S
C995 H983 0.929 . S
C995 C989 1.390 . S
C995 C992 1.386 . S
C996 C991 1.490 . S
C996 C998 1.395 . S
C996 C999 1.403 . S
H997 C1003 0.930 . S
C998 H984 0.930 . S
C998 C996 1.395 . S
C998 C1001 1.403 . S
C999 C996 1.403 . S
C999 C1000 1.524 . S
C999 C1003 1.400 . S
C1000 H985 0.960 . S
C1000 H986 0.960 . S
C1000 H987 0.960 . S
C1000 C999 1.524 . S
C1001 C998 1.403 . S
C1001 C1002 1.392 . S
C1001 C1005 1.495 . S
C1002 C1001 1.392 . S
C1002 C1003 1.385 . S
C1002 C1004 1.478 . S
C1003 H997 0.930 . S
C1003 C999 1.400 . S
C1003 C1002 1.385 . S
C1004 C1002 1.478 . S
C1004 C1006 1.381 . S
C1004 C1010 1.383 . S
C1005 C1001 1.495 . S
C1005 H1011 0.959 . S
C1005 H1012 0.961 . S
C1005 H1013 0.960 . S
C1006 C1004 1.381 . S
C1006 C1007 1.394 . S
C1006 H1014 0.930 . S
C1007 C1006 1.394 . S
C1007 C1008 1.383 . S
C1007 H1015 0.929 . S
C1008 C1007 1.383 . S
C1008 C1009 1.377 . S
C1009 H993 0.930 . S
C1009 C1008 1.377 . S
C1009 C1010 1.379 . S
C1010 H994 0.931 . S
C1010 C1004 1.383 . S
C1010 C1009 1.379 . S
H1011 C1005 0.959 . S
H1012 C1005 0.961 . S
H1013 C1005 0.960 . S
H1014 C1006 0.930 . S
H1015 C1007 0.929 . S
H1016 C1024 0.929 1_565 S
H1017 C1026 0.930 1_565 S
H1018 C1028 0.930 . S
H1019 C1031 0.929 . S
H1020 C1034 0.930 . S
H1021 C1036 0.960 . S
H1022 C1036 0.960 . S
H1023 C1036 0.960 . S
C1024 H1016 0.929 1_545 S
C1024 C1025 1.377 . S
C1024 C1026 1.384 . S
C1025 C1024 1.377 . S
C1025 C1031 1.390 . S
C1026 H1017 0.930 1_545 S
C1026 C1024 1.384 . S
C1026 C1027 1.372 . S
C1027 C1026 1.372 . S
C1027 C1028 1.400 . S
C1027 C1032 1.490 . S
C1028 H1018 0.930 . S
C1028 C1027 1.400 . S
C1028 C1031 1.386 . S
H1029 C1045 0.930 . S
H1030 C1046 0.931 . S
C1031 H1019 0.929 . S
C1031 C1025 1.390 . S
C1031 C1028 1.386 . S
C1032 C1027 1.490 . S
C1032 C1034 1.395 . S
C1032 C1035 1.403 . S
H1033 C1039 0.930 . S
C1034 H1020 0.930 . S
C1034 C1032 1.395 . S
C1034 C1037 1.403 . S
C1035 C1032 1.403 . S
C1035 C1036 1.524 . S
C1035 C1039 1.400 . S
C1036 H1021 0.960 . S
C1036 H1022 0.960 . S
C1036 H1023 0.960 . S
C1036 C1035 1.524 . S
C1037 C1034 1.403 . S
C1037 C1038 1.392 . S
C1037 C1041 1.495 . S
C1038 C1037 1.392 . S
C1038 C1039 1.385 . S
C1038 C1040 1.478 . S
C1039 H1033 0.930 . S
C1039 C1035 1.400 . S
C1039 C1038 1.385 . S
C1040 C1038 1.478 . S
C1040 C1042 1.381 . S
C1040 C1046 1.383 . S
C1041 C1037 1.495 . S
C1041 H1047 0.959 1_545 S
C1041 H1048 0.961 . S
C1041 H1049 0.960 1_545 S
C1042 C1040 1.381 . S
C1042 C1043 1.394 . S
C1042 H1050 0.901 1_545 S
C1043 C1042 1.394 . S
C1043 C1044 1.383 . S
C1043 H1051 0.929 . S
C1044 C1043 1.383 . S
C1044 C1045 1.377 . S
C1045 H1029 0.930 . S
C1045 C1044 1.377 . S
C1045 C1046 1.379 . S
C1046 H1030 0.931 . S
C1046 C1040 1.383 . S
C1046 C1045 1.379 . S
H1047 C1041 0.959 1_565 S
H1048 C1041 0.961 . S
H1049 C1041 0.960 1_565 S
H1050 C1042 0.901 1_565 S
H1051 C1043 0.929 . S
H1052 C1060 0.929 . S
H1053 C1062 0.930 . S
H1054 C1064 0.930 . S
H1055 C1067 0.929 . S
H1056 C1070 0.930 . S
H1057 C1072 0.960 . S
H1058 C1072 0.960 . S
H1059 C1072 0.960 . S
C1060 H1052 0.929 . S
C1060 C1061 1.377 . S
C1060 C1062 1.384 . S
C1061 C1060 1.377 . S
C1061 C1067 1.390 . S
C1062 H1053 0.930 . S
C1062 C1060 1.384 . S
C1062 C1063 1.372 . S
C1063 C1062 1.372 . S
C1063 C1064 1.400 . S
C1063 C1068 1.490 . S
C1064 H1054 0.930 . S
C1064 C1063 1.400 . S
C1064 C1067 1.386 . S
H1065 C1081 0.930 . S
H1066 C1082 0.931 . S
C1067 H1055 0.929 . S
C1067 C1061 1.390 . S
C1067 C1064 1.386 . S
C1068 C1063 1.490 . S
C1068 C1070 1.395 . S
C1068 C1071 1.403 . S
H1069 C1075 0.930 . S
C1070 H1056 0.930 . S
C1070 C1068 1.395 . S
C1070 C1073 1.403 . S
C1071 C1068 1.403 . S
C1071 C1072 1.524 . S
C1071 C1075 1.400 . S
C1072 H1057 0.960 . S
C1072 H1058 0.960 . S
C1072 H1059 0.960 . S
C1072 C1071 1.524 . S
C1073 C1070 1.403 . S
C1073 C1074 1.392 . S
C1073 C1077 1.495 . S
C1074 C1073 1.392 . S
C1074 C1075 1.385 . S
C1074 C1076 1.478 . S
C1075 H1069 0.930 . S
C1075 C1071 1.400 . S
C1075 C1074 1.385 . S
C1076 C1074 1.478 . S
C1076 C1078 1.381 . S
C1076 C1082 1.383 . S
C1077 C1073 1.495 . S
C1077 H1083 0.959 . S
C1077 H1084 0.961 . S
C1077 H1085 0.960 . S
C1078 C1076 1.381 . S
C1078 C1079 1.394 . S
C1078 H1086 0.930 . S
C1079 C1078 1.394 . S
C1079 C1080 1.383 . S
C1079 H1087 0.929 . S
C1080 C1079 1.383 . S
C1080 C1081 1.377 . S
C1081 H1065 0.930 . S
C1081 C1080 1.377 . S
C1081 C1082 1.379 . S
C1082 H1066 0.931 . S
C1082 C1076 1.383 . S
C1082 C1081 1.379 . S
H1083 C1077 0.959 . S
H1084 C1077 0.961 . S
H1085 C1077 0.960 . S
H1086 C1078 0.930 . S
H1087 C1079 0.929 . S
H1088 C1096 0.929 . S
H1089 C1098 0.930 . S
H1090 C1100 0.930 . S
H1091 C1103 0.929 . S
H1092 C1106 0.930 . S
H1093 C1108 0.960 . S
H1094 C1108 0.960 . S
H1095 C1108 0.960 . S
C1096 H1088 0.929 . S
C1096 C1097 1.377 . S
C1096 C1098 1.384 . S
C1097 C1096 1.377 . S
C1097 C1103 1.390 . S
C1098 H1089 0.930 . S
C1098 C1096 1.384 . S
C1098 C1099 1.372 . S
C1099 C1098 1.372 . S
C1099 C1100 1.400 . S
C1099 C1104 1.490 . S
C1100 H1090 0.930 . S
C1100 C1099 1.400 . S
C1100 C1103 1.386 . S
H1101 C1117 0.930 . S
H1102 C1118 0.931 . S
C1103 H1091 0.929 . S
C1103 C1097 1.390 . S
C1103 C1100 1.386 . S
C1104 C1099 1.490 . S
C1104 C1106 1.395 . S
C1104 C1107 1.403 . S
H1105 C1111 0.930 . S
C1106 H1092 0.930 . S
C1106 C1104 1.395 . S
C1106 C1109 1.403 . S
C1107 C1104 1.403 . S
C1107 C1108 1.524 . S
C1107 C1111 1.400 . S
C1108 H1093 0.960 . S
C1108 H1094 0.960 . S
C1108 H1095 0.960 . S
C1108 C1107 1.524 . S
C1109 C1106 1.403 . S
C1109 C1110 1.392 . S
C1109 C1113 1.495 1_655 S
C1110 C1109 1.392 . S
C1110 C1111 1.385 . S
C1110 C1112 1.478 . S
C1111 H1105 0.930 . S
C1111 C1107 1.400 . S
C1111 C1110 1.385 . S
C1112 C1110 1.478 . S
C1112 C1114 1.381 . S
C1112 C1118 1.383 . S
C1113 C1109 1.495 1_455 S
C1113 H1119 0.959 . S
C1113 H1120 0.961 . S
C1113 H1121 0.960 . S
C1114 C1112 1.381 . S
C1114 C1115 1.394 1_655 S
C1114 H1122 0.930 . S
C1115 C1114 1.394 1_455 S
C1115 C1116 1.383 . S
C1115 H1123 0.929 . S
C1116 C1115 1.383 . S
C1116 C1117 1.377 1_455 S
C1117 H1101 0.930 . S
C1117 C1116 1.377 1_655 S
C1117 C1118 1.379 . S
C1118 H1102 0.931 . S
C1118 C1112 1.383 . S
C1118 C1117 1.379 . S
H1119 C1113 0.959 . S
H1120 C1113 0.961 . S
H1121 C1113 0.960 . S
H1122 C1114 0.930 . S
H1123 C1115 0.929 . S
H1124 C1132 0.929 . S
H1125 C1134 0.930 . S
H1126 C1136 0.930 . S
H1127 C1139 0.929 . S
H1128 C1142 0.930 . S
H1129 C1144 0.960 . S
H1130 C1144 0.960 . S
H1131 C1144 0.960 . S
C1132 H1124 0.929 . S
C1132 C1133 1.377 . S
C1132 C1134 1.384 . S
C1133 C1132 1.377 . S
C1133 C1139 1.390 . S
C1134 H1125 0.930 . S
C1134 C1132 1.384 . S
C1134 C1135 1.372 . S
C1135 C1134 1.372 . S
C1135 C1136 1.400 . S
C1135 C1140 1.490 . S
C1136 H1126 0.930 . S
C1136 C1135 1.400 . S
C1136 C1139 1.386 . S
H1137 C1153 0.930 . S
H1138 C1154 0.931 . S
C1139 H1127 0.929 . S
C1139 C1133 1.390 . S
C1139 C1136 1.386 . S
C1140 C1135 1.490 . S
C1140 C1142 1.395 . S
C1140 C1143 1.403 . S
H1141 C1147 0.930 . S
C1142 H1128 0.930 . S
C1142 C1140 1.395 . S
C1142 C1145 1.403 . S
C1143 C1140 1.403 . S
C1143 C1144 1.524 . S
C1143 C1147 1.400 . S
C1144 H1129 0.960 . S
C1144 H1130 0.960 . S
C1144 H1131 0.960 . S
C1144 C1143 1.524 . S
C1145 C1142 1.403 . S
C1145 C1146 1.392 . S
C1145 C1149 1.495 . S
C1146 C1145 1.392 . S
C1146 C1147 1.385 . S
C1146 C1148 1.478 . S
C1147 H1141 0.930 . S
C1147 C1143 1.400 . S
C1147 C1146 1.385 . S
C1148 C1146 1.478 . S
C1148 C1150 1.381 . S
C1148 C1154 1.383 . S
C1149 C1145 1.495 . S
C1149 H1155 0.959 . S
C1149 H1156 0.961 . S
C1149 H1157 0.960 . S
C1150 C1148 1.381 . S
C1150 C1151 1.394 . S
C1150 H1158 0.930 . S
C1151 C1150 1.394 . S
C1151 C1152 1.383 . S
C1151 H1159 0.929 . S
C1152 C1151 1.383 . S
C1152 C1153 1.377 . S
C1153 H1137 0.930 . S
C1153 C1152 1.377 . S
C1153 C1154 1.379 . S
C1154 H1138 0.931 . S
C1154 C1148 1.383 . S
C1154 C1153 1.379 . S
H1155 C1149 0.959 . S
H1156 C1149 0.961 . S
H1157 C1149 0.960 . S
H1158 C1150 0.930 . S
H1159 C1151 0.929 . S
H1160 C1168 0.929 . S
H1161 C1170 0.930 . S
H1162 C1172 0.930 . S
H1163 C1175 0.929 . S
H1164 C1178 0.930 . S
H1165 C1180 0.960 . S
H1166 C1180 0.960 . S
H1167 C1180 0.960 . S
C1168 H1160 0.929 . S
C1168 C1169 1.377 . S
C1168 C1170 1.384 . S
C1169 C1168 1.377 . S
C1169 C1175 1.390 . S
C1170 H1161 0.930 . S
C1170 C1168 1.384 . S
C1170 C1171 1.372 . S
C1171 C1170 1.372 . S
C1171 C1172 1.400 . S
C1171 C1176 1.490 . S
C1172 H1162 0.930 . S
C1172 C1171 1.400 . S
C1172 C1175 1.386 . S
H1173 C1189 0.930 . S
H1174 C1190 0.931 . S
C1175 H1163 0.929 . S
C1175 C1169 1.390 . S
C1175 C1172 1.386 . S
C1176 C1171 1.490 . S
C1176 C1178 1.395 . S
C1176 C1179 1.403 . S
H1177 C1183 0.930 . S
C1178 H1164 0.930 . S
C1178 C1176 1.395 . S
C1178 C1181 1.403 . S
C1179 C1176 1.403 . S
C1179 C1180 1.524 . S
C1179 C1183 1.400 . S
C1180 H1165 0.960 . S
C1180 H1166 0.960 . S
C1180 H1167 0.960 . S
C1180 C1179 1.524 . S
C1181 C1178 1.403 . S
C1181 C1182 1.392 . S
C1181 C1185 1.495 1_545 S
C1182 C1181 1.392 . S
C1182 C1183 1.385 . S
C1182 C1184 1.478 . S
C1183 H1177 0.930 . S
C1183 C1179 1.400 . S
C1183 C1182 1.385 . S
C1184 C1182 1.478 . S
C1184 C1186 1.381 . S
C1184 C1190 1.383 . S
C1185 C1181 1.495 1_565 S
C1185 H1191 0.959 . S
C1185 H1192 0.961 . S
C1185 H1193 0.933 1_565 S
C1186 C1184 1.381 . S
C1186 C1187 1.394 . S
C1186 H1194 0.930 . S
C1187 C1186 1.394 . S
C1187 C1188 1.383 . S
C1187 H1195 0.929 . S
C1188 C1187 1.383 . S
C1188 C1189 1.377 . S
C1189 H1173 0.930 . S
C1189 C1188 1.377 . S
C1189 C1190 1.379 . S
C1190 H1174 0.931 . S
C1190 C1184 1.383 . S
C1190 C1189 1.379 . S
H1191 C1185 0.959 . S
H1192 C1185 0.961 . S
H1193 C1185 0.933 1_545 S
H1194 C1186 0.930 . S
H1195 C1187 0.929 . S
H1196 C1204 0.929 . S
H1197 C1206 0.930 . S
H1198 C1208 0.930 . S
H1199 C1211 0.929 . S
H1200 C1214 0.930 . S
H1201 C1216 0.960 . S
H1202 C1216 0.960 . S
H1203 C1216 0.960 . S
C1204 H1196 0.929 . S
C1204 C1205 1.377 . S
C1204 C1206 1.384 . S
C1205 C1204 1.377 . S
C1205 C1211 1.390 . S
C1206 H1197 0.930 . S
C1206 C1204 1.384 . S
C1206 C1207 1.372 . S
C1207 C1206 1.372 . S
C1207 C1208 1.400 . S
C1207 C1212 1.490 . S
C1208 H1198 0.930 . S
C1208 C1207 1.400 . S
C1208 C1211 1.386 . S
H1209 C1225 0.930 . S
H1210 C1226 0.931 . S
C1211 H1199 0.929 . S
C1211 C1205 1.390 . S
C1211 C1208 1.386 . S
C1212 C1207 1.490 . S
C1212 C1214 1.395 . S
C1212 C1215 1.403 . S
H1213 C1219 0.930 . S
C1214 H1200 0.930 . S
C1214 C1212 1.395 . S
C1214 C1217 1.403 . S
C1215 C1212 1.403 . S
C1215 C1216 1.524 . S
C1215 C1219 1.400 . S
C1216 H1201 0.960 . S
C1216 H1202 0.960 . S
C1216 H1203 0.960 . S
C1216 C1215 1.524 . S
C1217 C1214 1.403 . S
C1217 C1218 1.392 . S
C1217 C1221 1.495 . S
C1218 C1217 1.392 . S
C1218 C1219 1.385 . S
C1218 C1220 1.478 . S
C1219 H1213 0.930 . S
C1219 C1215 1.400 . S
C1219 C1218 1.385 . S
C1220 C1218 1.478 . S
C1220 C1222 1.381 . S
C1220 C1226 1.383 . S
C1221 C1217 1.495 . S
C1221 H1227 0.959 . S
C1221 H1228 0.961 . S
C1221 H1229 0.960 . S
C1222 C1220 1.381 . S
C1222 C1223 1.394 . S
C1222 H1230 0.930 . S
C1223 C1222 1.394 . S
C1223 C1224 1.383 . S
C1223 H1231 0.929 . S
C1224 C1223 1.383 . S
C1224 C1225 1.377 . S
C1225 H1209 0.930 . S
C1225 C1224 1.377 . S
C1225 C1226 1.379 . S
C1226 H1210 0.931 . S
C1226 C1220 1.383 . S
C1226 C1225 1.379 . S
H1227 C1221 0.959 . S
H1228 C1221 0.961 . S
H1229 C1221 0.960 . S
H1230 C1222 0.930 . S
H1231 C1223 0.929 . S
H1232 C1240 0.929 . S
H1233 C1242 0.930 . S
H1234 C1244 0.930 . S
H1235 C1247 0.929 . S
H1236 C1250 0.930 . S
H1237 C1252 0.960 . S
H1238 C1252 0.960 . S
H1239 C1252 0.960 . S
C1240 H1232 0.929 . S
C1240 C1241 1.377 . S
C1240 C1242 1.384 . S
C1241 C1240 1.377 . S
C1241 C1247 1.390 . S
C1242 H1233 0.930 . S
C1242 C1240 1.384 . S
C1242 C1243 1.372 . S
C1243 C1242 1.372 . S
C1243 C1244 1.400 . S
C1243 C1248 1.490 . S
C1244 H1234 0.930 . S
C1244 C1243 1.400 . S
C1244 C1247 1.386 . S
H1245 C1261 0.930 1_565 S
H1246 C1262 0.931 . S
C1247 H1235 0.929 . S
C1247 C1241 1.390 . S
C1247 C1244 1.386 . S
C1248 C1243 1.490 . S
C1248 C1250 1.395 . S
C1248 C1251 1.403 . S
H1249 C1255 0.930 . S
C1250 H1236 0.930 . S
C1250 C1248 1.395 . S
C1250 C1253 1.403 . S
C1251 C1248 1.403 . S
C1251 C1252 1.524 . S
C1251 C1255 1.400 . S
C1252 H1237 0.960 . S
C1252 H1238 0.960 . S
C1252 H1239 0.960 . S
C1252 C1251 1.524 . S
C1253 C1250 1.403 . S
C1253 C1254 1.392 . S
C1253 C1257 1.495 1_565 S
C1254 C1253 1.392 . S
C1254 C1255 1.385 . S
C1254 C1256 1.467 1_565 S
C1255 H1249 0.930 . S
C1255 C1251 1.400 . S
C1255 C1254 1.385 . S
C1256 C1254 1.467 1_545 S
C1256 C1258 1.395 . S
C1256 C1262 1.380 1_545 S
C1257 C1253 1.495 1_545 S
C1257 H1263 0.959 . S
C1257 H1264 0.961 1_554 S
C1257 H1265 0.960 . S
C1258 C1256 1.395 . S
C1258 C1259 1.394 . S
C1258 H1266 0.930 . S
C1259 C1258 1.394 . S
C1259 C1260 1.383 . S
C1259 H1267 0.929 . S
C1260 C1259 1.383 . S
C1260 C1261 1.377 . S
C1261 H1245 0.930 1_545 S
C1261 C1260 1.377 . S
C1261 C1262 1.379 1_545 S
C1262 H1246 0.931 . S
C1262 C1256 1.380 1_565 S
C1262 C1261 1.379 1_565 S
H1263 C1257 0.959 . S
H1264 C1257 0.961 1_556 S
H1265 C1257 0.960 . S
H1266 C1258 0.930 . S
H1267 C1259 0.929 . S
H1268 C1276 0.929 . S
H1269 C1278 0.930 . S
H1270 C1280 0.930 . S
H1271 C1283 0.929 . S
H1272 C1286 0.930 . S
H1273 C1288 0.960 . S
H1274 C1288 0.960 . S
H1275 C1288 0.960 . S
C1276 H1268 0.929 . S
C1276 C1277 1.377 . S
C1276 C1278 1.384 . S
C1277 C1276 1.377 . S
C1277 C1283 1.390 . S
C1278 H1269 0.930 . S
C1278 C1276 1.384 . S
C1278 C1279 1.372 . S
C1279 C1278 1.372 . S
C1279 C1280 1.400 . S
C1279 C1284 1.490 . S
C1280 H1270 0.930 . S
C1280 C1279 1.400 . S
C1280 C1283 1.386 . S
H1281 C1297 0.930 . S
H1282 C1298 0.931 . S
C1283 H1271 0.929 . S
C1283 C1277 1.390 . S
C1283 C1280 1.386 . S
C1284 C1279 1.490 . S
C1284 C1286 1.395 . S
C1284 C1287 1.403 . S
H1285 C1291 0.930 1_556 S
C1286 H1272 0.930 . S
C1286 C1284 1.395 . S
C1286 C1289 1.403 . S
C1287 C1284 1.403 . S
C1287 C1288 1.524 1_554 S
C1287 C1291 1.400 . S
C1288 H1273 0.960 . S
C1288 H1274 0.960 . S
C1288 H1275 0.960 . S
C1288 C1287 1.524 1_556 S
C1289 C1286 1.403 . S
C1289 C1290 1.392 . S
C1289 C1293 1.495 . S
C1290 C1289 1.392 . S
C1290 C1291 1.385 . S
C1290 C1292 1.478 . S
C1291 H1285 0.930 1_554 S
C1291 C1287 1.400 . S
C1291 C1290 1.385 . S
C1292 C1290 1.478 . S
C1292 C1294 1.381 . S
C1292 C1298 1.383 . S
C1293 C1289 1.495 . S
C1293 H1299 0.959 . S
C1293 H1300 0.961 . S
C1293 H1301 0.960 . S
C1294 C1292 1.381 . S
C1294 C1295 1.394 . S
C1294 H1302 0.930 . S
C1295 C1294 1.394 . S
C1295 C1296 1.383 . S
C1295 H1303 0.929 . S
C1296 C1295 1.383 . S
C1296 C1297 1.377 . S
C1297 H1281 0.930 . S
C1297 C1296 1.377 . S
C1297 C1298 1.379 . S
C1298 H1282 0.931 . S
C1298 C1292 1.383 . S
C1298 C1297 1.379 . S
H1299 C1293 0.959 . S
H1300 C1293 0.961 . S
H1301 C1293 0.960 . S
H1302 C1294 0.930 . S
H1303 C1295 0.929 . S
H1304 C1312 0.929 . S
H1305 C1314 0.930 . S
H1306 C1316 0.930 . S
H1307 C1319 0.929 . S
H1308 C1322 0.930 . S
H1309 C1324 0.960 . S
H1310 C1324 0.960 . S
H1311 C1324 0.960 . S
C1312 H1304 0.929 . S
C1312 C1313 1.377 . S
C1312 C1314 1.384 . S
C1313 C1312 1.377 . S
C1313 C1319 1.390 . S
C1314 H1305 0.930 . S
C1314 C1312 1.384 . S
C1314 C1315 1.372 . S
C1315 C1314 1.372 . S
C1315 C1316 1.400 . S
C1315 C1320 1.490 . S
C1316 H1306 0.930 . S
C1316 C1315 1.400 . S
C1316 C1319 1.386 . S
H1317 C1333 0.930 . S
H1318 C1334 0.931 . S
C1319 H1307 0.929 . S
C1319 C1313 1.390 . S
C1319 C1316 1.386 . S
C1320 C1315 1.490 . S
C1320 C1322 1.395 . S
C1320 C1323 1.403 . S
H1321 C1327 0.930 . S
C1322 H1308 0.930 . S
C1322 C1320 1.395 . S
C1322 C1325 1.403 . S
C1323 C1320 1.403 . S
C1323 C1324 1.524 . S
C1323 C1327 1.400 . S
C1324 H1309 0.960 . S
C1324 H1310 0.960 . S
C1324 H1311 0.960 . S
C1324 C1323 1.524 . S
C1325 C1322 1.403 . S
C1325 C1326 1.392 . S
C1325 C1329 1.495 . S
C1326 C1325 1.392 . S
C1326 C1327 1.385 . S
C1326 C1328 1.478 . S
C1327 H1321 0.930 . S
C1327 C1323 1.400 . S
C1327 C1326 1.385 . S
C1328 C1326 1.478 . S
C1328 C1330 1.381 . S
C1328 C1334 1.383 . S
C1329 C1325 1.495 . S
C1329 H1335 0.959 . S
C1329 H1336 0.961 . S
C1329 H1337 0.960 . S
C1330 C1328 1.381 . S
C1330 C1331 1.394 . S
C1330 H1338 0.930 . S
C1331 C1330 1.394 . S
C1331 C1332 1.383 . S
C1331 H1339 0.929 . S
C1332 C1331 1.383 . S
C1332 C1333 1.377 . S
C1333 H1317 0.930 . S
C1333 C1332 1.377 . S
C1333 C1334 1.379 . S
C1334 H1318 0.931 . S
C1334 C1328 1.383 . S
C1334 C1333 1.379 . S
H1335 C1329 0.959 . S
H1336 C1329 0.961 . S
H1337 C1329 0.960 . S
H1338 C1330 0.930 . S
H1339 C1331 0.929 . S
H1340 C1348 0.929 . S
H1341 C1350 0.930 . S
H1342 C1352 0.930 . S
H1343 C1355 0.929 . S
H1344 C1358 0.930 . S
H1345 C1360 0.960 . S
H1346 C1360 0.960 . S
H1347 C1360 0.960 . S
C1348 H1340 0.929 . S
C1348 C1349 1.377 . S
C1348 C1350 1.384 . S
C1349 C1348 1.377 . S
C1349 C1355 1.390 . S
C1350 H1341 0.930 . S
C1350 C1348 1.384 . S
C1350 C1351 1.372 . S
C1351 C1350 1.372 . S
C1351 C1352 1.400 . S
C1351 C1356 1.490 . S
C1352 H1342 0.930 . S
C1352 C1351 1.400 . S
C1352 C1355 1.386 . S
H1353 C1369 0.930 . S
H1354 C1370 0.931 . S
C1355 H1343 0.929 . S
C1355 C1349 1.390 . S
C1355 C1352 1.386 . S
C1356 C1351 1.490 . S
C1356 C1358 1.395 . S
C1356 C1359 1.403 . S
H1357 C1363 0.930 . S
C1358 H1344 0.930 . S
C1358 C1356 1.395 . S
C1358 C1361 1.403 . S
C1359 C1356 1.403 . S
C1359 C1360 1.524 . S
C1359 C1363 1.400 . S
C1360 H1345 0.960 . S
C1360 H1346 0.960 . S
C1360 H1347 0.960 . S
C1360 C1359 1.524 . S
C1361 C1358 1.403 . S
C1361 C1362 1.392 . S
C1361 C1365 1.495 . S
C1362 C1361 1.392 . S
C1362 C1363 1.385 . S
C1362 C1364 1.478 . S
C1363 H1357 0.930 . S
C1363 C1359 1.400 . S
C1363 C1362 1.385 . S
C1364 C1362 1.478 . S
C1364 C1366 1.381 . S
C1364 C1370 1.383 . S
C1365 C1361 1.495 . S
C1365 H1371 0.959 . S
C1365 H1372 0.961 . S
C1365 H1373 0.960 . S
C1366 C1364 1.381 . S
C1366 C1367 1.394 . S
C1366 H1374 0.930 . S
C1367 C1366 1.394 . S
C1367 C1368 1.383 . S
C1367 H1375 0.929 . S
C1368 C1367 1.383 . S
C1368 C1369 1.377 . S
C1369 H1353 0.930 . S
C1369 C1368 1.377 . S
C1369 C1370 1.379 . S
C1370 H1354 0.931 . S
C1370 C1364 1.383 . S
C1370 C1369 1.379 . S
H1371 C1365 0.959 . S
H1372 C1365 0.961 . S
H1373 C1365 0.960 . S
H1374 C1366 0.930 . S
H1375 C1367 0.929 . S
H1376 C1384 0.929 . S
H1377 C1386 0.930 . S
H1378 C1388 0.930 . S
H1379 C1391 0.929 . S
H1380 C1394 0.930 . S
H1381 C1396 0.960 . S
H1382 C1396 0.960 . S
H1383 C1396 0.960 . S
C1384 H1376 0.929 . S
C1384 C1385 1.377 . S
C1384 C1386 1.384 . S
C1385 C1384 1.377 . S
C1385 C1391 1.390 . S
C1386 H1377 0.930 . S
C1386 C1384 1.384 . S
C1386 C1387 1.372 . S
C1387 C1386 1.372 . S
C1387 C1388 1.400 . S
C1387 C1392 1.490 . S
C1388 H1378 0.930 . S
C1388 C1387 1.400 . S
C1388 C1391 1.386 . S
H1389 C1405 0.930 . S
H1390 C1406 0.931 . S
C1391 H1379 0.929 . S
C1391 C1385 1.390 . S
C1391 C1388 1.386 . S
C1392 C1387 1.490 . S
C1392 C1394 1.395 . S
C1392 C1395 1.403 . S
H1393 C1399 0.930 . S
C1394 H1380 0.930 . S
C1394 C1392 1.395 . S
C1394 C1397 1.403 . S
C1395 C1392 1.403 . S
C1395 C1396 1.524 . S
C1395 C1399 1.400 . S
C1396 H1381 0.960 . S
C1396 H1382 0.960 . S
C1396 H1383 0.960 . S
C1396 C1395 1.524 . S
C1397 C1394 1.403 . S
C1397 C1398 1.392 . S
C1397 C1401 1.495 . S
C1398 C1397 1.392 . S
C1398 C1399 1.385 . S
C1398 C1400 1.478 . S
C1399 H1393 0.930 . S
C1399 C1395 1.400 . S
C1399 C1398 1.385 . S
C1400 C1398 1.478 . S
C1400 C1402 1.381 . S
C1400 C1406 1.383 . S
C1401 C1397 1.495 . S
C1401 H1407 0.959 . S
C1401 H1408 0.961 . S
C1401 H1409 0.960 . S
C1402 C1400 1.381 . S
C1402 C1403 1.394 . S
C1402 H1410 0.930 . S
C1403 C1402 1.394 . S
C1403 C1404 1.383 . S
C1403 H1411 0.929 . S
C1404 C1403 1.383 . S
C1404 C1405 1.377 . S
C1405 H1389 0.930 . S
C1405 C1404 1.377 . S
C1405 C1406 1.379 . S
C1406 H1390 0.931 . S
C1406 C1400 1.383 . S
C1406 C1405 1.379 . S
H1407 C1401 0.959 . S
H1408 C1401 0.961 . S
H1409 C1401 0.960 . S
H1410 C1402 0.930 . S
H1411 C1403 0.929 . S
H1412 C1420 0.929 . S
H1413 C1422 0.930 . S
H1414 C1424 0.930 . S
H1415 C1427 0.929 . S
H1416 C1430 0.930 . S
H1417 C1432 0.960 . S
H1418 C1432 0.960 . S
H1419 C1432 0.960 . S
C1420 H1412 0.929 . S
C1420 C1421 1.377 . S
C1420 C1422 1.384 . S
C1421 C1420 1.377 . S
C1421 C1427 1.390 . S
C1422 H1413 0.930 . S
C1422 C1420 1.384 . S
C1422 C1423 1.372 . S
C1423 C1422 1.372 . S
C1423 C1424 1.400 . S
C1423 C1428 1.490 . S
C1424 H1414 0.930 . S
C1424 C1423 1.400 . S
C1424 C1427 1.386 . S
H1425 C1441 0.930 . S
H1426 C1442 0.931 . S
C1427 H1415 0.929 . S
C1427 C1421 1.390 . S
C1427 C1424 1.386 . S
C1428 C1423 1.490 . S
C1428 C1430 1.395 . S
C1428 C1431 1.403 . S
H1429 C1435 0.930 . S
C1430 H1416 0.930 . S
C1430 C1428 1.395 . S
C1430 C1433 1.403 . S
C1431 C1428 1.403 . S
C1431 C1432 1.524 . S
C1431 C1435 1.400 . S
C1432 H1417 0.960 . S
C1432 H1418 0.960 . S
C1432 H1419 0.960 . S
C1432 C1431 1.524 . S
C1433 C1430 1.403 . S
C1433 C1434 1.392 . S
C1433 C1437 1.495 . S
C1434 C1433 1.392 . S
C1434 C1435 1.385 . S
C1434 C1436 1.478 . S
C1435 H1429 0.930 . S
C1435 C1431 1.400 . S
C1435 C1434 1.385 . S
C1436 C1434 1.478 . S
C1436 C1438 1.381 . S
C1436 C1442 1.383 . S
C1437 C1433 1.495 . S
C1437 H1443 0.959 . S
C1437 H1444 0.961 . S
C1437 H1445 0.960 . S
C1438 C1436 1.381 . S
C1438 C1439 1.394 . S
C1438 H1446 0.930 . S
C1439 C1438 1.394 . S
C1439 C1440 1.383 . S
C1439 H1447 0.929 . S
C1440 C1439 1.383 . S
C1440 C1441 1.377 . S
C1441 H1425 0.930 . S
C1441 C1440 1.377 . S
C1441 C1442 1.379 . S
C1442 H1426 0.931 . S
C1442 C1436 1.383 . S
C1442 C1441 1.379 . S
H1443 C1437 0.959 . S
H1444 C1437 0.961 . S
H1445 C1437 0.960 . S
H1446 C1438 0.930 . S
H1447 C1439 0.929 . S
H1448 C1456 0.929 . S
H1449 C1458 0.930 . S
H1450 C1460 0.930 . S
H1451 C1463 0.929 . S
H1452 C1466 0.930 . S
H1453 C1468 0.960 . S
H1454 C1468 0.960 . S
H1455 C1468 0.960 . S
C1456 H1448 0.929 . S
C1456 C1457 1.377 . S
C1456 C1458 1.384 . S
C1457 C1456 1.377 . S
C1457 C1463 1.390 . S
C1458 H1449 0.930 . S
C1458 C1456 1.384 . S
C1458 C1459 1.372 . S
C1459 C1458 1.372 . S
C1459 C1460 1.400 . S
C1459 C1464 1.490 . S
C1460 H1450 0.930 . S
C1460 C1459 1.400 . S
C1460 C1463 1.386 . S
H1461 C1477 0.930 . S
H1462 C1478 0.931 . S
C1463 H1451 0.929 . S
C1463 C1457 1.390 . S
C1463 C1460 1.386 . S
C1464 C1459 1.490 . S
C1464 C1466 1.395 . S
C1464 C1467 1.403 . S
H1465 C1471 0.930 . S
C1466 H1452 0.930 . S
C1466 C1464 1.395 . S
C1466 C1469 1.403 . S
C1467 C1464 1.403 . S
C1467 C1468 1.524 . S
C1467 C1471 1.400 . S
C1468 H1453 0.960 . S
C1468 H1454 0.960 . S
C1468 H1455 0.960 . S
C1468 C1467 1.524 . S
C1469 C1466 1.403 . S
C1469 C1470 1.392 . S
C1469 C1473 1.495 . S
C1470 C1469 1.392 . S
C1470 C1471 1.385 . S
C1470 C1472 1.478 . S
C1471 H1465 0.930 . S
C1471 C1467 1.400 . S
C1471 C1470 1.385 . S
C1472 C1470 1.478 . S
C1472 C1474 1.381 . S
C1472 C1478 1.383 . S
C1473 C1469 1.495 . S
C1473 H1479 0.959 . S
C1473 H1480 0.961 . S
C1473 H1481 0.960 . S
C1474 C1472 1.381 . S
C1474 C1475 1.394 . S
C1474 H1482 0.930 . S
C1475 C1474 1.394 . S
C1475 C1476 1.383 . S
C1475 H1483 0.929 . S
C1476 C1475 1.383 . S
C1476 C1477 1.377 . S
C1477 H1461 0.930 . S
C1477 C1476 1.377 . S
C1477 C1478 1.379 . S
C1478 H1462 0.931 . S
C1478 C1472 1.383 . S
C1478 C1477 1.379 . S
H1479 C1473 0.959 . S
H1480 C1473 0.961 . S
H1481 C1473 0.960 . S
H1482 C1474 0.930 . S
H1483 C1475 0.929 . S
H1484 C1492 0.929 . S
H1485 C1494 0.930 . S
H1486 C1496 0.930 . S
H1487 C1499 0.929 . S
H1488 C1502 0.930 . S
H1489 C1504 0.960 . S
H1490 C1504 0.960 . S
H1491 C1504 0.960 . S
C1492 H1484 0.929 . S
C1492 C1493 1.377 . S
C1492 C1494 1.384 . S
C1493 C1492 1.377 . S
C1493 C1499 1.390 . S
C1494 H1485 0.930 . S
C1494 C1492 1.384 . S
C1494 C1495 1.372 . S
C1495 C1494 1.372 . S
C1495 C1496 1.400 . S
C1495 C1500 1.490 . S
C1496 H1486 0.930 . S
C1496 C1495 1.400 . S
C1496 C1499 1.386 . S
H1497 C1513 0.930 . S
H1498 C1514 0.931 . S
C1499 H1487 0.929 . S
C1499 C1493 1.390 . S
C1499 C1496 1.386 . S
C1500 C1495 1.490 . S
C1500 C1502 1.395 . S
C1500 C1503 1.403 . S
H1501 C1507 0.930 . S
C1502 H1488 0.930 . S
C1502 C1500 1.395 . S
C1502 C1505 1.403 . S
C1503 C1500 1.403 . S
C1503 C1504 1.524 . S
C1503 C1507 1.400 . S
C1504 H1489 0.960 . S
C1504 H1490 0.960 . S
C1504 H1491 0.960 . S
C1504 C1503 1.524 . S
C1505 C1502 1.403 . S
C1505 C1506 1.392 . S
C1505 C1509 1.495 . S
C1506 C1505 1.392 . S
C1506 C1507 1.385 . S
C1506 C1508 1.478 . S
C1507 H1501 0.930 . S
C1507 C1503 1.400 . S
C1507 C1506 1.385 . S
C1508 C1506 1.478 . S
C1508 C1510 1.381 . S
C1508 C1514 1.383 . S
C1509 C1505 1.495 . S
C1509 H1515 0.959 . S
C1509 H1516 0.961 . S
C1509 H1517 0.960 . S
C1510 C1508 1.381 . S
C1510 C1511 1.394 . S
C1510 H1518 0.930 . S
C1511 C1510 1.394 . S
C1511 C1512 1.383 . S
C1511 H1519 0.929 . S
C1512 C1511 1.383 . S
C1512 C1513 1.377 . S
C1513 H1497 0.930 . S
C1513 C1512 1.377 . S
C1513 C1514 1.379 . S
C1514 H1498 0.931 . S
C1514 C1508 1.383 . S
C1514 C1513 1.379 . S
H1515 C1509 0.959 . S
H1516 C1509 0.961 . S
H1517 C1509 0.960 . S
H1518 C1510 0.930 . S
H1519 C1511 0.929 . S
H1520 C1528 0.929 . S
H1521 C1530 0.930 . S
H1522 C1532 0.930 . S
H1523 C1535 0.929 . S
H1524 C1538 0.930 . S
H1525 C1540 0.960 . S
H1526 C1540 0.960 . S
H1527 C1540 0.960 . S
C1528 H1520 0.929 . S
C1528 C1529 1.377 . S
C1528 C1530 1.384 . S
C1529 C1528 1.377 . S
C1529 C1535 1.390 . S
C1530 H1521 0.930 . S
C1530 C1528 1.384 . S
C1530 C1531 1.372 . S
C1531 C1530 1.372 . S
C1531 C1532 1.400 . S
C1531 C1536 1.490 . S
C1532 H1522 0.930 . S
C1532 C1531 1.400 . S
C1532 C1535 1.386 . S
H1533 C1549 0.930 . S
H1534 C1550 0.931 . S
C1535 H1523 0.929 . S
C1535 C1529 1.390 . S
C1535 C1532 1.386 . S
C1536 C1531 1.490 . S
C1536 C1538 1.395 1_455 S
C1536 C1539 1.403 . S
H1537 C1543 0.930 . S
C1538 H1524 0.930 . S
C1538 C1536 1.395 1_655 S
C1538 C1541 1.403 . S
C1539 C1536 1.403 . S
C1539 C1540 1.524 . S
C1539 C1543 1.400 . S
C1540 H1525 0.960 . S
C1540 H1526 0.960 . S
C1540 H1527 0.960 . S
C1540 C1539 1.524 . S
C1541 C1538 1.403 . S
C1541 C1542 1.392 1_655 S
C1541 C1545 1.495 . S
C1542 C1541 1.392 1_455 S
C1542 C1543 1.385 . S
C1542 C1544 1.478 . S
C1543 H1537 0.930 . S
C1543 C1539 1.400 . S
C1543 C1542 1.385 . S
C1544 C1542 1.478 . S
C1544 C1546 1.381 . S
C1544 C1550 1.383 . S
C1545 C1541 1.495 . S
C1545 H1551 0.959 . S
C1545 H1552 0.961 . S
C1545 H1553 0.960 . S
C1546 C1544 1.381 . S
C1546 C1547 1.394 . S
C1546 H1554 0.930 . S
C1547 C1546 1.394 . S
C1547 C1548 1.383 . S
C1547 H1555 0.929 . S
C1548 C1547 1.383 . S
C1548 C1549 1.377 . S
C1549 H1533 0.930 . S
C1549 C1548 1.377 . S
C1549 C1550 1.379 . S
C1550 H1534 0.931 . S
C1550 C1544 1.383 . S
C1550 C1549 1.379 . S
H1551 C1545 0.959 . S
H1552 C1545 0.961 . S
H1553 C1545 0.960 . S
H1554 C1546 0.930 . S
H1555 C1547 0.929 . S
H1556 C1564 0.929 . S
H1557 C1566 0.930 . S
H1558 C1568 0.930 . S
H1559 C1571 0.929 . S
H1560 C1574 0.930 . S
H1561 C1576 0.960 . S
H1562 C1576 0.960 . S
H1563 C1576 0.960 . S
C1564 H1556 0.929 . S
C1564 C1565 1.377 . S
C1564 C1566 1.384 . S
C1565 C1564 1.377 . S
C1565 C1571 1.390 . S
C1566 H1557 0.930 . S
C1566 C1564 1.384 . S
C1566 C1567 1.372 . S
C1567 C1566 1.372 . S
C1567 C1568 1.400 . S
C1567 C1572 1.490 . S
C1568 H1558 0.930 . S
C1568 C1567 1.400 . S
C1568 C1571 1.386 . S
H1569 C1585 0.930 . S
H1570 C1586 0.931 . S
C1571 H1559 0.929 . S
C1571 C1565 1.390 . S
C1571 C1568 1.386 . S
C1572 C1567 1.490 . S
C1572 C1574 1.395 . S
C1572 C1575 1.403 . S
H1573 C1579 0.930 . S
C1574 H1560 0.930 . S
C1574 C1572 1.395 . S
C1574 C1577 1.403 . S
C1575 C1572 1.403 . S
C1575 C1576 1.524 . S
C1575 C1579 1.400 . S
C1576 H1561 0.960 . S
C1576 H1562 0.960 . S
C1576 H1563 0.960 . S
C1576 C1575 1.524 . S
C1577 C1574 1.403 . S
C1577 C1578 1.392 . S
C1577 C1581 1.495 . S
C1578 C1577 1.392 . S
C1578 C1579 1.385 . S
C1578 C1580 1.478 . S
C1579 H1573 0.930 . S
C1579 C1575 1.400 . S
C1579 C1578 1.385 . S
C1580 C1578 1.478 . S
C1580 C1582 1.381 . S
C1580 C1586 1.383 . S
C1581 C1577 1.495 . S
C1581 H1587 0.959 . S
C1581 H1588 0.961 . S
C1581 H1589 0.960 . S
C1582 C1580 1.381 . S
C1582 C1583 1.394 . S
C1582 H1590 0.930 . S
C1583 C1582 1.394 . S
C1583 C1584 1.383 . S
C1583 H1591 0.929 . S
C1584 C1583 1.383 . S
C1584 C1585 1.377 . S
C1585 H1569 0.930 . S
C1585 C1584 1.377 . S
C1585 C1586 1.379 . S
C1586 H1570 0.931 . S
C1586 C1580 1.383 . S
C1586 C1585 1.379 . S
H1587 C1581 0.959 . S
H1588 C1581 0.961 . S
H1589 C1581 0.960 . S
H1590 C1582 0.930 . S
H1591 C1583 0.929 . S
H1592 C1600 0.929 . S
H1593 C1602 0.930 . S
H1594 C1604 0.930 . S
H1595 C1607 0.929 . S
H1596 C1610 0.930 . S
H1597 C1612 0.960 . S
H1598 C1612 0.960 . S
H1599 C1612 0.960 . S
C1600 H1592 0.929 . S
C1600 C1601 1.377 . S
C1600 C1602 1.384 . S
C1601 C1600 1.377 . S
C1601 C1607 1.390 . S
C1602 H1593 0.930 . S
C1602 C1600 1.384 . S
C1602 C1603 1.372 . S
C1603 C1602 1.372 . S
C1603 C1604 1.400 . S
C1603 C1608 1.490 . S
C1604 H1594 0.930 . S
C1604 C1603 1.400 . S
C1604 C1607 1.386 . S
H1605 C1621 0.930 . S
H1606 C1622 0.931 . S
C1607 H1595 0.929 . S
C1607 C1601 1.390 . S
C1607 C1604 1.386 . S
C1608 C1603 1.490 . S
C1608 C1610 1.395 . S
C1608 C1611 1.403 . S
H1609 C1615 0.930 . S
C1610 H1596 0.930 . S
C1610 C1608 1.395 . S
C1610 C1613 1.403 . S
C1611 C1608 1.403 . S
C1611 C1612 1.524 . S
C1611 C1615 1.400 . S
C1612 H1597 0.960 . S
C1612 H1598 0.960 . S
C1612 H1599 0.960 . S
C1612 C1611 1.524 . S
C1613 C1610 1.403 . S
C1613 C1614 1.392 . S
C1613 C1617 1.495 . S
C1614 C1613 1.392 . S
C1614 C1615 1.385 . S
C1614 C1616 1.478 . S
C1615 H1609 0.930 . S
C1615 C1611 1.400 . S
C1615 C1614 1.385 . S
C1616 C1614 1.478 . S
C1616 C1618 1.381 . S
C1616 C1622 1.383 . S
C1617 C1613 1.495 . S
C1617 H1623 0.959 . S
C1617 H1624 0.961 . S
C1617 H1625 0.960 . S
C1618 C1616 1.381 . S
C1618 C1619 1.394 . S
C1618 H1626 0.930 . S
C1619 C1618 1.394 . S
C1619 C1620 1.383 . S
C1619 H1627 0.929 . S
C1620 C1619 1.383 . S
C1620 C1621 1.377 . S
C1621 H1605 0.930 . S
C1621 C1620 1.377 . S
C1621 C1622 1.379 . S
C1622 H1606 0.931 . S
C1622 C1616 1.383 . S
C1622 C1621 1.379 . S
H1623 C1617 0.959 . S
H1624 C1617 0.961 . S
H1625 C1617 0.960 . S
H1626 C1618 0.930 . S
H1627 C1619 0.929 . S
H1628 C1636 0.929 . S
H1629 C1638 0.930 . S
H1630 C1640 0.930 . S
H1631 C1643 0.929 . S
H1632 C1646 0.930 . S
H1633 C1648 0.960 . S
H1634 C1648 0.960 . S
H1635 C1648 0.960 . S
C1636 H1628 0.929 . S
C1636 C1637 1.377 . S
C1636 C1638 1.384 . S
C1637 C1636 1.377 . S
C1637 C1643 1.390 . S
C1638 H1629 0.930 . S
C1638 C1636 1.384 . S
C1638 C1639 1.372 . S
C1639 C1638 1.372 . S
C1639 C1640 1.400 . S
C1639 C1644 1.490 . S
C1640 H1630 0.930 . S
C1640 C1639 1.400 . S
C1640 C1643 1.386 . S
H1641 C1657 0.930 . S
H1642 C1658 0.931 . S
C1643 H1631 0.929 . S
C1643 C1637 1.390 . S
C1643 C1640 1.386 . S
C1644 C1639 1.490 . S
C1644 C1646 1.395 . S
C1644 C1647 1.403 . S
H1645 C1651 0.930 . S
C1646 H1632 0.930 . S
C1646 C1644 1.395 . S
C1646 C1649 1.403 . S
C1647 C1644 1.403 . S
C1647 C1648 1.524 . S
C1647 C1651 1.400 . S
C1648 H1633 0.960 . S
C1648 H1634 0.960 . S
C1648 H1635 0.960 . S
C1648 C1647 1.524 . S
C1649 C1646 1.403 . S
C1649 C1650 1.392 . S
C1649 C1653 1.495 . S
C1650 C1649 1.392 . S
C1650 C1651 1.385 . S
C1650 C1652 1.478 . S
C1651 H1645 0.930 . S
C1651 C1647 1.400 . S
C1651 C1650 1.385 . S
C1652 C1650 1.478 . S
C1652 C1654 1.381 . S
C1652 C1658 1.383 . S
C1653 C1649 1.495 . S
C1653 H1659 0.959 . S
C1653 H1660 0.961 . S
C1653 H1661 0.960 . S
C1654 C1652 1.381 . S
C1654 C1655 1.394 . S
C1654 H1662 0.930 . S
C1655 C1654 1.394 . S
C1655 C1656 1.383 . S
C1655 H1663 0.929 . S
C1656 C1655 1.383 . S
C1656 C1657 1.377 . S
C1657 H1641 0.930 . S
C1657 C1656 1.377 . S
C1657 C1658 1.379 . S
C1658 H1642 0.931 . S
C1658 C1652 1.383 . S
C1658 C1657 1.379 . S
H1659 C1653 0.959 . S
H1660 C1653 0.961 . S
H1661 C1653 0.960 . S
H1662 C1654 0.930 . S
H1663 C1655 0.929 . S
H1664 C1672 0.929 . S
H1665 C1674 0.930 . S
H1666 C1676 0.949 . S
H1667 C1679 0.984 . S
H1668 C1682 0.930 . S
H1669 C1684 0.960 . S
H1670 C1684 0.960 . S
H1671 C1684 0.960 . S
C1672 H1664 0.929 . S
C1672 C1673 1.377 . S
C1672 C1674 1.384 . S
C1673 C1672 1.377 . S
C1673 C1679 1.346 1_455 S
C1674 H1665 0.930 . S
C1674 C1672 1.384 . S
C1674 C1675 1.372 . S
C1675 C1674 1.372 . S
C1675 C1676 1.377 1_455 S
C1675 C1680 1.490 . S
C1676 H1666 0.949 . S
C1676 C1675 1.377 1_655 S
C1676 C1679 1.381 . S
H1677 C1693 0.930 1_655 S
H1678 C1694 0.931 1_655 S
C1679 H1667 0.984 . S
C1679 C1673 1.346 1_655 S
C1679 C1676 1.381 . S
C1680 C1675 1.490 . S
C1680 C1682 1.395 . S
C1680 C1683 1.403 . S
H1681 C1687 0.930 1_655 S
C1682 H1668 0.930 . S
C1682 C1680 1.395 . S
C1682 C1685 1.403 . S
C1683 C1680 1.403 . S
C1683 C1684 1.524 1_455 S
C1683 C1687 1.400 . S
C1684 H1669 0.960 . S
C1684 H1670 0.960 . S
C1684 H1671 0.960 . S
C1684 C1683 1.524 1_655 S
C1685 C1682 1.403 . S
C1685 C1686 1.392 . S
C1685 C1689 1.495 . S
C1686 C1685 1.392 . S
C1686 C1687 1.385 . S
C1686 C1688 1.478 . S
C1687 H1681 0.930 1_455 S
C1687 C1683 1.400 . S
C1687 C1686 1.385 . S
C1688 C1686 1.478 . S
C1688 C1690 1.381 . S
C1688 C1694 1.383 . S
C1689 C1685 1.495 . S
C1689 H1695 0.959 . S
C1689 H1696 0.961 . S
C1689 H1697 0.960 . S
C1690 C1688 1.381 . S
C1690 C1691 1.394 . S
C1690 H1698 0.930 . S
C1691 C1690 1.394 . S
C1691 C1692 1.383 . S
C1691 H1699 0.929 . S
C1692 C1691 1.383 . S
C1692 C1693 1.377 . S
C1693 H1677 0.930 1_455 S
C1693 C1692 1.377 . S
C1693 C1694 1.379 . S
C1694 H1678 0.931 1_455 S
C1694 C1688 1.383 . S
C1694 C1693 1.379 . S
H1695 C1689 0.959 . S
H1696 C1689 0.961 . S
H1697 C1689 0.960 . S
H1698 C1690 0.930 . S
H1699 C1691 0.929 . S
H1700 C1708 0.929 . S
H1701 C1710 0.930 . S
H1702 C1712 0.930 . S
H1703 C1715 0.929 . S
H1704 C1718 0.930 . S
H1705 C1720 0.960 . S
H1706 C1720 0.960 . S
H1707 C1720 0.960 . S
C1708 H1700 0.929 . S
C1708 C1709 1.377 . S
C1708 C1710 1.384 . S
C1709 C1708 1.377 . S
C1709 C1715 1.390 . S
C1710 H1701 0.930 . S
C1710 C1708 1.384 . S
C1710 C1711 1.372 . S
C1711 C1710 1.372 . S
C1711 C1712 1.400 . S
C1711 C1716 1.490 . S
C1712 H1702 0.930 . S
C1712 C1711 1.400 . S
C1712 C1715 1.386 . S
H1713 C1729 0.930 . S
H1714 C1730 0.931 . S
C1715 H1703 0.929 . S
C1715 C1709 1.390 . S
C1715 C1712 1.386 . S
C1716 C1711 1.490 . S
C1716 C1718 1.395 . S
C1716 C1719 1.403 . S
H1717 C1723 0.930 . S
C1718 H1704 0.930 . S
C1718 C1716 1.395 . S
C1718 C1721 1.403 . S
C1719 C1716 1.403 . S
C1719 C1720 1.524 . S
C1719 C1723 1.400 . S
C1720 H1705 0.960 . S
C1720 H1706 0.960 . S
C1720 H1707 0.960 . S
C1720 C1719 1.524 . S
C1721 C1718 1.403 . S
C1721 C1722 1.392 . S
C1721 C1725 1.495 . S
C1722 C1721 1.392 . S
C1722 C1723 1.385 . S
C1722 C1724 1.478 . S
C1723 H1717 0.930 . S
C1723 C1719 1.400 . S
C1723 C1722 1.385 . S
C1724 C1722 1.478 . S
C1724 C1726 1.381 . S
C1724 C1730 1.383 . S
C1725 C1721 1.495 . S
C1725 H1731 0.959 . S
C1725 H1732 0.961 . S
C1725 H1733 0.960 . S
C1726 C1724 1.381 . S
C1726 C1727 1.394 . S
C1726 H1734 0.930 . S
C1727 C1726 1.394 . S
C1727 C1728 1.383 . S
C1727 H1735 0.929 . S
C1728 C1727 1.383 . S
C1728 C1729 1.377 . S
C1729 H1713 0.930 . S
C1729 C1728 1.377 . S
C1729 C1730 1.379 . S
C1730 H1714 0.931 . S
C1730 C1724 1.383 . S
C1730 C1729 1.379 . S
H1731 C1725 0.959 . S
H1732 C1725 0.961 . S
H1733 C1725 0.960 . S
H1734 C1726 0.930 . S
H1735 C1727 0.929 . S
H1736 C1744 0.929 . S
H1737 C1746 0.930 . S
H1738 C1748 0.930 . S
H1739 C1751 0.929 . S
H1740 C1754 0.930 . S
H1741 C1756 0.960 . S
H1742 C1756 0.960 . S
H1743 C1756 0.960 . S
C1744 H1736 0.929 . S
C1744 C1745 1.377 . S
C1744 C1746 1.384 . S
C1745 C1744 1.377 . S
C1745 C1751 1.390 . S
C1746 H1737 0.930 . S
C1746 C1744 1.384 . S
C1746 C1747 1.372 . S
C1747 C1746 1.372 . S
C1747 C1748 1.400 . S
C1747 C1752 1.490 . S
C1748 H1738 0.930 . S
C1748 C1747 1.400 . S
C1748 C1751 1.386 . S
H1749 C1765 0.930 . S
H1750 C1766 0.931 . S
C1751 H1739 0.929 . S
C1751 C1745 1.390 . S
C1751 C1748 1.386 . S
C1752 C1747 1.490 . S
C1752 C1754 1.395 . S
C1752 C1755 1.403 . S
H1753 C1759 0.930 . S
C1754 H1740 0.930 . S
C1754 C1752 1.395 . S
C1754 C1757 1.403 . S
C1755 C1752 1.403 . S
C1755 C1756 1.524 . S
C1755 C1759 1.400 . S
C1756 H1741 0.960 . S
C1756 H1742 0.960 . S
C1756 H1743 0.960 . S
C1756 C1755 1.524 . S
C1757 C1754 1.403 . S
C1757 C1758 1.392 . S
C1757 C1761 1.495 . S
C1758 C1757 1.392 . S
C1758 C1759 1.385 . S
C1758 C1760 1.478 . S
C1759 H1753 0.930 . S
C1759 C1755 1.400 . S
C1759 C1758 1.385 . S
C1760 C1758 1.478 . S
C1760 C1762 1.381 . S
C1760 C1766 1.383 . S
C1761 C1757 1.495 . S
C1761 H1767 0.959 1_556 S
C1761 H1768 0.961 1_556 S
C1761 H1769 0.960 1_556 S
C1762 C1760 1.381 . S
C1762 C1763 1.394 1_556 S
C1762 H1770 0.930 . S
C1763 C1762 1.394 1_554 S
C1763 C1764 1.393 . S
C1763 H1771 0.929 . S
C1764 C1763 1.393 . S
C1764 C1765 1.346 1_554 S
C1765 H1749 0.930 . S
C1765 C1764 1.346 1_556 S
C1765 C1766 1.379 . S
C1766 H1750 0.931 . S
C1766 C1760 1.383 . S
C1766 C1765 1.379 . S
H1767 C1761 0.959 1_554 S
H1768 C1761 0.961 1_554 S
H1769 C1761 0.960 1_554 S
H1770 C1762 0.930 . S
H1771 C1763 0.929 . S
H1772 C1780 0.929 . S
H1773 C1782 0.930 . S
H1774 C1784 0.930 . S
H1775 C1787 0.929 . S
H1776 C1790 0.930 . S
H1777 C1792 0.960 . S
H1778 C1792 0.960 . S
H1779 C1792 0.960 . S
C1780 H1772 0.929 . S
C1780 C1781 1.377 . S
C1780 C1782 1.384 . S
C1781 C1780 1.377 . S
C1781 C1787 1.390 . S
C1782 H1773 0.930 . S
C1782 C1780 1.384 . S
C1782 C1783 1.372 . S
C1783 C1782 1.372 . S
C1783 C1784 1.400 . S
C1783 C1788 1.490 . S
C1784 H1774 0.930 . S
C1784 C1783 1.400 . S
C1784 C1787 1.386 . S
H1785 C1801 0.930 . S
H1786 C1802 0.931 . S
C1787 H1775 0.929 . S
C1787 C1781 1.390 . S
C1787 C1784 1.386 . S
C1788 C1783 1.490 . S
C1788 C1790 1.395 . S
C1788 C1791 1.403 . S
H1789 C1795 0.930 . S
C1790 H1776 0.930 . S
C1790 C1788 1.395 . S
C1790 C1793 1.403 . S
C1791 C1788 1.403 . S
C1791 C1792 1.524 . S
C1791 C1795 1.400 . S
C1792 H1777 0.960 . S
C1792 H1778 0.960 . S
C1792 H1779 0.960 . S
C1792 C1791 1.524 . S
C1793 C1790 1.403 . S
C1793 C1794 1.392 . S
C1793 C1797 1.495 . S
C1794 C1793 1.392 . S
C1794 C1795 1.385 . S
C1794 C1796 1.478 . S
C1795 H1789 0.930 . S
C1795 C1791 1.400 . S
C1795 C1794 1.385 . S
C1796 C1794 1.478 . S
C1796 C1798 1.381 . S
C1796 C1802 1.383 . S
C1797 C1793 1.495 . S
C1797 H1803 0.959 . S
C1797 H1804 0.961 . S
C1797 H1805 0.960 . S
C1798 C1796 1.381 . S
C1798 C1799 1.394 . S
C1798 H1806 0.930 . S
C1799 C1798 1.394 . S
C1799 C1800 1.383 . S
C1799 H1807 0.929 . S
C1800 C1799 1.383 . S
C1800 C1801 1.377 . S
C1801 H1785 0.930 . S
C1801 C1800 1.377 . S
C1801 C1802 1.379 . S
C1802 H1786 0.931 . S
C1802 C1796 1.383 . S
C1802 C1801 1.379 . S
H1803 C1797 0.959 . S
H1804 C1797 0.961 . S
H1805 C1797 0.960 . S
H1806 C1798 0.930 . S
H1807 C1799 0.929 . S
H1808 C1816 0.929 . S
H1809 C1818 0.930 . S
H1810 C1820 0.930 . S
H1811 C1823 0.929 . S
H1812 C1826 0.930 . S
H1813 C1828 0.960 . S
H1814 C1828 0.960 . S
H1815 C1828 0.960 . S
C1816 H1808 0.929 . S
C1816 C1817 1.377 . S
C1816 C1818 1.384 . S
C1817 C1816 1.377 . S
C1817 C1823 1.390 . S
C1818 H1809 0.930 . S
C1818 C1816 1.384 . S
C1818 C1819 1.372 . S
C1819 C1818 1.372 . S
C1819 C1820 1.400 . S
C1819 C1824 1.490 . S
C1820 H1810 0.930 . S
C1820 C1819 1.400 . S
C1820 C1823 1.386 . S
H1821 C1837 0.930 . S
H1822 C1838 0.931 . S
C1823 H1811 0.929 . S
C1823 C1817 1.390 . S
C1823 C1820 1.386 . S
C1824 C1819 1.490 . S
C1824 C1826 1.395 1_545 S
C1824 C1827 1.403 . S
H1825 C1831 0.930 . S
C1826 H1812 0.930 . S
C1826 C1824 1.395 1_565 S
C1826 C1829 1.408 . S
C1827 C1824 1.403 . S
C1827 C1828 1.524 . S
C1827 C1831 1.400 . S
C1828 H1813 0.960 . S
C1828 H1814 0.960 . S
C1828 H1815 0.960 . S
C1828 C1827 1.524 . S
C1829 C1826 1.408 . S
C1829 C1830 1.360 1_565 S
C1829 C1833 1.525 . S
C1830 C1829 1.360 1_545 S
C1830 C1831 1.385 . S
C1830 C1832 1.478 . S
C1831 H1825 0.930 . S
C1831 C1827 1.400 . S
C1831 C1830 1.385 . S
C1832 C1830 1.478 . S
C1832 C1834 1.381 . S
C1832 C1838 1.383 . S
C1833 C1829 1.525 . S
C1833 H1839 0.959 . S
C1833 H1840 0.961 . S
C1833 H1841 0.960 . S
C1834 C1832 1.381 . S
C1834 C1835 1.394 . S
C1834 H1842 0.930 . S
C1835 C1834 1.394 . S
C1835 C1836 1.383 . S
C1835 H1843 0.929 . S
C1836 C1835 1.383 . S
C1836 C1837 1.377 . S
C1837 H1821 0.930 . S
C1837 C1836 1.377 . S
C1837 C1838 1.379 . S
C1838 H1822 0.931 . S
C1838 C1832 1.383 . S
C1838 C1837 1.379 . S
H1839 C1833 0.959 . S
H1840 C1833 0.961 . S
H1841 C1833 0.960 . S
H1842 C1834 0.930 . S
H1843 C1835 0.929 . S
H1844 C1852 0.929 . S
H1845 C1854 0.930 . S
H1846 C1856 0.930 . S
H1847 C1859 0.929 . S
H1848 C1862 0.930 . S
H1849 C1864 0.960 . S
H1850 C1864 0.960 . S
H1851 C1864 0.960 . S
C1852 H1844 0.929 . S
C1852 C1853 1.377 . S
C1852 C1854 1.384 . S
C1853 C1852 1.377 . S
C1853 C1859 1.390 . S
C1854 H1845 0.930 . S
C1854 C1852 1.384 . S
C1854 C1855 1.372 . S
C1855 C1854 1.372 . S
C1855 C1856 1.400 . S
C1855 C1860 1.490 . S
C1856 H1846 0.930 . S
C1856 C1855 1.400 . S
C1856 C1859 1.386 . S
H1857 C1873 0.930 . S
H1858 C1874 0.931 . S
C1859 H1847 0.929 . S
C1859 C1853 1.390 . S
C1859 C1856 1.386 . S
C1860 C1855 1.490 . S
C1860 C1862 1.395 . S
C1860 C1863 1.403 . S
H1861 C1867 0.930 . S
C1862 H1848 0.930 . S
C1862 C1860 1.395 . S
C1862 C1865 1.403 . S
C1863 C1860 1.403 . S
C1863 C1864 1.524 . S
C1863 C1867 1.400 . S
C1864 H1849 0.960 . S
C1864 H1850 0.960 . S
C1864 H1851 0.960 . S
C1864 C1863 1.524 . S
C1865 C1862 1.403 . S
C1865 C1866 1.392 . S
C1865 C1869 1.495 . S
C1866 C1865 1.392 . S
C1866 C1867 1.385 . S
C1866 C1868 1.478 . S
C1867 H1861 0.930 . S
C1867 C1863 1.400 . S
C1867 C1866 1.385 . S
C1868 C1866 1.478 . S
C1868 C1870 1.381 . S
C1868 C1874 1.383 . S
C1869 C1865 1.495 . S
C1869 H1875 0.959 . S
C1869 H1876 0.961 . S
C1869 H1877 0.960 . S
C1870 C1868 1.381 . S
C1870 C1871 1.394 . S
C1870 H1878 0.930 . S
C1871 C1870 1.394 . S
C1871 C1872 1.383 . S
C1871 H1879 0.929 . S
C1872 C1871 1.383 . S
C1872 C1873 1.377 . S
C1873 H1857 0.930 . S
C1873 C1872 1.377 . S
C1873 C1874 1.379 . S
C1874 H1858 0.931 . S
C1874 C1868 1.383 . S
C1874 C1873 1.379 . S
H1875 C1869 0.959 . S
H1876 C1869 0.961 . S
H1877 C1869 0.960 . S
H1878 C1870 0.930 . S
H1879 C1871 0.929 . S
H1880 C1888 0.929 . S
H1881 C1890 0.930 . S
H1882 C1892 0.930 . S
H1883 C1895 0.929 . S
H1884 C1898 0.930 . S
H1885 C1900 0.960 . S
H1886 C1900 0.960 . S
H1887 C1900 0.960 . S
C1888 H1880 0.929 . S
C1888 C1889 1.377 . S
C1888 C1890 1.384 . S
C1889 C1888 1.377 . S
C1889 C1895 1.390 . S
C1890 H1881 0.930 . S
C1890 C1888 1.384 . S
C1890 C1891 1.372 . S
C1891 C1890 1.372 . S
C1891 C1892 1.400 . S
C1891 C1896 1.490 . S
C1892 H1882 0.930 . S
C1892 C1891 1.400 . S
C1892 C1895 1.386 . S
H1893 C1909 0.930 . S
H1894 C1910 0.931 . S
C1895 H1883 0.929 . S
C1895 C1889 1.390 . S
C1895 C1892 1.386 . S
C1896 C1891 1.490 . S
C1896 C1898 1.395 . S
C1896 C1899 1.403 . S
H1897 C1903 0.930 . S
C1898 H1884 0.930 . S
C1898 C1896 1.395 . S
C1898 C1901 1.403 . S
C1899 C1896 1.403 . S
C1899 C1900 1.524 . S
C1899 C1903 1.400 . S
C1900 H1885 0.960 . S
C1900 H1886 0.960 . S
C1900 H1887 0.960 . S
C1900 C1899 1.524 . S
C1901 C1898 1.403 . S
C1901 C1902 1.392 . S
C1901 C1905 1.495 . S
C1902 C1901 1.392 . S
C1902 C1903 1.385 . S
C1902 C1904 1.478 . S
C1903 H1897 0.930 . S
C1903 C1899 1.400 . S
C1903 C1902 1.385 . S
C1904 C1902 1.478 . S
C1904 C1906 1.381 . S
C1904 C1910 1.383 . S
C1905 C1901 1.495 . S
C1905 H1911 0.959 . S
C1905 H1912 0.961 . S
C1905 H1913 0.960 . S
C1906 C1904 1.381 . S
C1906 C1907 1.394 . S
C1906 H1914 0.930 . S
C1907 C1906 1.394 . S
C1907 C1908 1.383 . S
C1907 H1915 0.929 . S
C1908 C1907 1.383 . S
C1908 C1909 1.377 . S
C1909 H1893 0.930 . S
C1909 C1908 1.377 . S
C1909 C1910 1.379 . S
C1910 H1894 0.931 . S
C1910 C1904 1.383 . S
C1910 C1909 1.379 . S
H1911 C1905 0.959 . S
H1912 C1905 0.961 . S
H1913 C1905 0.960 . S
H1914 C1906 0.930 . S
H1915 C1907 0.929 . S
H1916 C1924 0.929 . S
H1917 C1926 0.930 . S
H1918 C1928 0.930 . S
H1919 C1931 0.929 . S
H1920 C1934 0.930 . S
H1921 C1936 0.960 . S
H1922 C1936 0.960 . S
H1923 C1936 0.960 . S
C1924 H1916 0.929 . S
C1924 C1925 1.377 . S
C1924 C1926 1.384 . S
C1925 C1924 1.377 . S
C1925 C1931 1.390 . S
C1926 H1917 0.930 . S
C1926 C1924 1.384 . S
C1926 C1927 1.372 . S
C1927 C1926 1.372 . S
C1927 C1928 1.400 . S
C1927 C1932 1.490 . S
C1928 H1918 0.930 . S
C1928 C1927 1.400 . S
C1928 C1931 1.386 . S
H1929 C1945 0.930 . S
H1930 C1946 0.931 . S
C1931 H1919 0.929 . S
C1931 C1925 1.390 . S
C1931 C1928 1.386 . S
C1932 C1927 1.490 . S
C1932 C1934 1.395 . S
C1932 C1935 1.403 . S
H1933 C1939 0.930 . S
C1934 H1920 0.930 . S
C1934 C1932 1.395 . S
C1934 C1937 1.403 . S
C1935 C1932 1.403 . S
C1935 C1936 1.524 . S
C1935 C1939 1.400 . S
C1936 H1921 0.960 . S
C1936 H1922 0.960 . S
C1936 H1923 0.960 . S
C1936 C1935 1.524 . S
C1937 C1934 1.403 . S
C1937 C1938 1.392 . S
C1937 C1941 1.495 . S
C1938 C1937 1.392 . S
C1938 C1939 1.385 . S
C1938 C1940 1.478 . S
C1939 H1933 0.930 . S
C1939 C1935 1.400 . S
C1939 C1938 1.385 . S
C1940 C1938 1.478 . S
C1940 C1942 1.381 . S
C1940 C1946 1.383 . S
C1941 C1937 1.495 . S
C1941 H1947 0.959 . S
C1941 H1948 0.961 . S
C1941 H1949 0.960 . S
C1942 C1940 1.381 . S
C1942 C1943 1.394 . S
C1942 H1950 0.930 . S
C1943 C1942 1.394 . S
C1943 C1944 1.383 . S
C1943 H1951 0.929 . S
C1944 C1943 1.383 . S
C1944 C1945 1.377 . S
C1945 H1929 0.930 . S
C1945 C1944 1.377 . S
C1945 C1946 1.379 . S
C1946 H1930 0.931 . S
C1946 C1940 1.383 . S
C1946 C1945 1.379 . S
H1947 C1941 0.959 . S
H1948 C1941 0.961 . S
H1949 C1941 0.960 . S
H1950 C1942 0.930 . S
H1951 C1943 0.929 . S
H1952 C1960 0.929 . S
H1953 C1962 0.930 . S
H1954 C1964 0.930 . S
H1955 C1967 0.929 . S
H1956 C1970 0.930 . S
H1957 C1972 0.960 . S
H1958 C1972 0.960 . S
H1959 C1972 0.960 . S
C1960 H1952 0.929 . S
C1960 C1961 1.377 1_565 S
C1960 C1962 1.384 . S
C1961 C1960 1.377 1_545 S
C1961 C1967 1.390 . S
C1962 H1953 0.930 . S
C1962 C1960 1.384 . S
C1962 C1963 1.372 1_565 S
C1963 C1962 1.372 1_545 S
C1963 C1964 1.400 . S
C1963 C1968 1.490 . S
C1964 H1954 0.930 . S
C1964 C1963 1.400 . S
C1964 C1967 1.386 . S
H1965 C1981 0.930 . S
H1966 C1982 0.931 . S
C1967 H1955 0.929 . S
C1967 C1961 1.390 . S
C1967 C1964 1.386 . S
C1968 C1963 1.490 . S
C1968 C1970 1.395 1_545 S
C1968 C1971 1.403 . S
H1969 C1975 0.930 . S
C1970 H1956 0.930 . S
C1970 C1968 1.395 1_565 S
C1970 C1973 1.403 . S
C1971 C1968 1.403 . S
C1971 C1972 1.524 . S
C1971 C1975 1.400 . S
C1972 H1957 0.960 . S
C1972 H1958 0.960 . S
C1972 H1959 0.960 . S
C1972 C1971 1.524 . S
C1973 C1970 1.403 . S
C1973 C1974 1.392 1_565 S
C1973 C1977 1.495 . S
C1974 C1973 1.392 1_545 S
C1974 C1975 1.385 . S
C1974 C1976 1.478 . S
C1975 H1969 0.930 . S
C1975 C1971 1.400 . S
C1975 C1974 1.385 . S
C1976 C1974 1.478 . S
C1976 C1978 1.381 . S
C1976 C1982 1.383 . S
C1977 C1973 1.495 . S
C1977 H1983 0.959 . S
C1977 H1984 0.961 . S
C1977 H1985 0.960 . S
C1978 C1976 1.381 . S
C1978 C1979 1.394 . S
C1978 H1986 0.930 . S
C1979 C1978 1.394 . S
C1979 C1980 1.383 . S
C1979 H1987 0.929 . S
C1980 C1979 1.383 . S
C1980 C1981 1.377 . S
C1981 H1965 0.930 . S
C1981 C1980 1.377 . S
C1981 C1982 1.379 . S
C1982 H1966 0.931 . S
C1982 C1976 1.383 . S
C1982 C1981 1.379 . S
H1983 C1977 0.959 . S
H1984 C1977 0.961 . S
H1985 C1977 0.960 . S
H1986 C1978 0.930 . S
H1987 C1979 0.929 . S
H1988 C1996 0.929 . S
H1989 C1998 0.930 . S
H1990 C2000 0.930 . S
H1991 C2003 0.929 . S
H1992 C2006 0.930 . S
H1993 C2008 0.960 . S
H1994 C2008 0.960 . S
H1995 C2008 0.960 . S
C1996 H1988 0.929 . S
C1996 C1997 1.377 . S
C1996 C1998 1.384 . S
C1997 C1996 1.377 . S
C1997 C2003 1.390 . S
C1998 H1989 0.930 . S
C1998 C1996 1.384 . S
C1998 C1999 1.372 . S
C1999 C1998 1.372 . S
C1999 C2000 1.400 . S
C1999 C2004 1.490 . S
C2000 H1990 0.930 . S
C2000 C1999 1.400 . S
C2000 C2003 1.386 . S
H2001 C2017 0.930 . S
H2002 C2018 0.931 . S
C2003 H1991 0.929 . S
C2003 C1997 1.390 . S
C2003 C2000 1.386 . S
C2004 C1999 1.490 . S
C2004 C2006 1.395 . S
C2004 C2007 1.403 . S
H2005 C2011 0.930 . S
C2006 H1992 0.930 . S
C2006 C2004 1.395 . S
C2006 C2009 1.403 . S
C2007 C2004 1.403 . S
C2007 C2008 1.524 . S
C2007 C2011 1.400 . S
C2008 H1993 0.960 . S
C2008 H1994 0.960 . S
C2008 H1995 0.960 . S
C2008 C2007 1.524 . S
C2009 C2006 1.403 . S
C2009 C2010 1.392 . S
C2009 C2013 1.495 . S
C2010 C2009 1.392 . S
C2010 C2011 1.385 . S
C2010 C2012 1.478 . S
C2011 H2005 0.930 . S
C2011 C2007 1.400 . S
C2011 C2010 1.385 . S
C2012 C2010 1.478 . S
C2012 C2014 1.381 . S
C2012 C2018 1.383 . S
C2013 C2009 1.495 . S
C2013 H2019 0.959 . S
C2013 H2020 0.961 . S
C2013 H2021 0.960 . S
C2014 C2012 1.381 . S
C2014 C2015 1.394 . S
C2014 H2022 0.930 . S
C2015 C2014 1.394 . S
C2015 C2016 1.383 . S
C2015 H2023 0.929 . S
C2016 C2015 1.383 . S
C2016 C2017 1.377 . S
C2017 H2001 0.930 . S
C2017 C2016 1.377 . S
C2017 C2018 1.379 . S
C2018 H2002 0.931 . S
C2018 C2012 1.383 . S
C2018 C2017 1.379 . S
H2019 C2013 0.959 . S
H2020 C2013 0.961 . S
H2021 C2013 0.960 . S
H2022 C2014 0.930 . S
H2023 C2015 0.929 . S
H2024 C2032 0.929 . S
H2025 C2034 0.930 . S
H2026 C2036 0.930 . S
H2027 C2039 0.929 . S
H2028 C2042 0.930 . S
H2029 C2044 0.960 . S
H2030 C2044 0.960 . S
H2031 C2044 0.960 . S
C2032 H2024 0.929 . S
C2032 C2033 1.377 . S
C2032 C2034 1.384 . S
C2033 C2032 1.377 . S
C2033 C2039 1.390 . S
C2034 H2025 0.930 . S
C2034 C2032 1.384 . S
C2034 C2035 1.372 . S
C2035 C2034 1.372 . S
C2035 C2036 1.400 . S
C2035 C2040 1.490 . S
C2036 H2026 0.930 . S
C2036 C2035 1.400 . S
C2036 C2039 1.386 . S
H2037 C2053 0.930 . S
H2038 C2054 0.931 . S
C2039 H2027 0.929 . S
C2039 C2033 1.390 . S
C2039 C2036 1.386 . S
C2040 C2035 1.490 . S
C2040 C2042 1.395 . S
C2040 C2043 1.403 . S
H2041 C2047 0.930 . S
C2042 H2028 0.930 . S
C2042 C2040 1.395 . S
C2042 C2045 1.403 . S
C2043 C2040 1.403 . S
C2043 C2044 1.524 . S
C2043 C2047 1.400 . S
C2044 H2029 0.960 . S
C2044 H2030 0.960 . S
C2044 H2031 0.960 . S
C2044 C2043 1.524 . S
C2045 C2042 1.403 . S
C2045 C2046 1.392 . S
C2045 C2049 1.495 . S
C2046 C2045 1.392 . S
C2046 C2047 1.385 . S
C2046 C2048 1.478 . S
C2047 H2041 0.930 . S
C2047 C2043 1.400 . S
C2047 C2046 1.385 . S
C2048 C2046 1.478 . S
C2048 C2050 1.381 . S
C2048 C2054 1.383 . S
C2049 C2045 1.495 . S
C2049 H2055 0.959 . S
C2049 H2056 0.961 . S
C2049 H2057 0.960 . S
C2050 C2048 1.381 . S
C2050 C2051 1.394 . S
C2050 H2058 0.930 . S
C2051 C2050 1.394 . S
C2051 C2052 1.383 . S
C2051 H2059 0.937 . S
C2052 C2051 1.383 . S
C2052 C2053 1.377 . S
C2053 H2037 0.930 . S
C2053 C2052 1.377 . S
C2053 C2054 1.379 . S
C2054 H2038 0.931 . S
C2054 C2048 1.383 . S
C2054 C2053 1.379 . S
H2055 C2049 0.959 . S
H2056 C2049 0.961 . S
H2057 C2049 0.960 . S
H2058 C2050 0.930 . S
H2059 C2051 0.937 . S
H2060 C2068 0.929 . S
H2061 C2070 0.930 . S
H2062 C2072 0.930 . S
H2063 C2075 0.929 . S
H2064 C2078 0.930 . S
H2065 C2080 0.960 . S
H2066 C2080 0.960 . S
H2067 C2080 0.960 . S
C2068 H2060 0.929 . S
C2068 C2069 1.377 . S
C2068 C2070 1.384 . S
C2069 C2068 1.377 . S
C2069 C2075 1.390 . S
C2070 H2061 0.930 . S
C2070 C2068 1.384 . S
C2070 C2071 1.372 . S
C2071 C2070 1.372 . S
C2071 C2072 1.400 . S
C2071 C2076 1.490 . S
C2072 H2062 0.930 . S
C2072 C2071 1.400 . S
C2072 C2075 1.386 . S
H2073 C2089 0.930 . S
H2074 C2090 0.931 . S
C2075 H2063 0.929 . S
C2075 C2069 1.390 . S
C2075 C2072 1.386 . S
C2076 C2071 1.490 . S
C2076 C2078 1.395 . S
C2076 C2079 1.403 . S
H2077 C2083 0.930 . S
C2078 H2064 0.930 . S
C2078 C2076 1.395 . S
C2078 C2081 1.403 . S
C2079 C2076 1.403 . S
C2079 C2080 1.524 . S
C2079 C2083 1.400 . S
C2080 H2065 0.960 . S
C2080 H2066 0.960 . S
C2080 H2067 0.960 . S
C2080 C2079 1.524 . S
C2081 C2078 1.403 . S
C2081 C2082 1.392 . S
C2081 C2085 1.495 . S
C2082 C2081 1.392 . S
C2082 C2083 1.385 . S
C2082 C2084 1.478 . S
C2083 H2077 0.930 . S
C2083 C2079 1.400 . S
C2083 C2082 1.385 . S
C2084 C2082 1.478 . S
C2084 C2086 1.381 . S
C2084 C2090 1.383 . S
C2085 C2081 1.495 . S
C2085 H2091 0.959 . S
C2085 H2092 0.961 . S
C2085 H2093 0.960 . S
C2086 C2084 1.381 . S
C2086 C2087 1.394 . S
C2086 H2094 0.930 . S
C2087 C2086 1.394 . S
C2087 C2088 1.383 . S
C2087 H2095 0.929 . S
C2088 C2087 1.383 . S
C2088 C2089 1.377 . S
C2089 H2073 0.930 . S
C2089 C2088 1.377 . S
C2089 C2090 1.379 . S
C2090 H2074 0.931 . S
C2090 C2084 1.383 . S
C2090 C2089 1.379 . S
H2091 C2085 0.959 . S
H2092 C2085 0.961 . S
H2093 C2085 0.960 . S
H2094 C2086 0.930 . S
H2095 C2087 0.929 . S
H2096 C2104 0.929 . S
H2097 C2106 0.930 . S
H2098 C2108 0.930 . S
H2099 C2111 0.929 . S
H2100 C2114 0.930 . S
H2101 C2116 0.959 1_556 S
H2102 C2116 0.940 1_556 S
H2103 C2116 0.979 . S
C2104 H2096 0.929 . S
C2104 C2105 1.377 1_556 S
C2104 C2106 1.384 . S
C2105 C2104 1.377 1_554 S
C2105 C2111 1.390 . S
C2106 H2097 0.930 . S
C2106 C2104 1.384 . S
C2106 C2107 1.372 1_556 S
C2107 C2106 1.372 1_554 S
C2107 C2108 1.400 . S
C2107 C2112 1.490 . S
C2108 H2098 0.930 . S
C2108 C2107 1.400 . S
C2108 C2111 1.386 . S
H2109 C2125 0.930 . S
H2110 C2126 0.931 . S
C2111 H2099 0.929 . S
C2111 C2105 1.390 . S
C2111 C2108 1.386 . S
C2112 C2107 1.490 . S
C2112 C2114 1.395 . S
C2112 C2115 1.403 . S
H2113 C2119 0.930 . S
C2114 H2100 0.930 . S
C2114 C2112 1.395 . S
C2114 C2117 1.403 . S
C2115 C2112 1.403 . S
C2115 C2116 1.526 . S
C2115 C2119 1.400 . S
C2116 H2101 0.959 1_554 S
C2116 H2102 0.940 1_554 S
C2116 H2103 0.979 . S
C2116 C2115 1.526 . S
C2117 C2114 1.403 . S
C2117 C2118 1.392 . S
C2117 C2121 1.495 . S
C2118 C2117 1.392 . S
C2118 C2119 1.385 . S
C2118 C2120 1.478 . S
C2119 H2113 0.930 . S
C2119 C2115 1.400 . S
C2119 C2118 1.385 . S
C2120 C2118 1.478 . S
C2120 C2122 1.381 1_554 S
C2120 C2126 1.383 . S
C2121 C2117 1.495 . S
C2121 H2127 0.959 . S
C2121 H2128 0.961 . S
C2121 H2129 0.960 . S
C2122 C2120 1.381 1_556 S
C2122 C2123 1.394 . S
C2122 H2130 0.930 . S
C2123 C2122 1.394 . S
C2123 C2124 1.383 1_556 S
C2123 H2131 0.929 . S
C2124 C2123 1.383 1_554 S
C2124 C2125 1.377 . S
C2125 H2109 0.930 . S
C2125 C2124 1.377 . S
C2125 C2126 1.379 . S
C2126 H2110 0.931 . S
C2126 C2120 1.383 . S
C2126 C2125 1.379 . S
H2127 C2121 0.959 . S
H2128 C2121 0.961 . S
H2129 C2121 0.960 . S
H2130 C2122 0.930 . S
H2131 C2123 0.929 . S
H2132 C2140 0.929 . S
H2133 C2142 0.930 . S
H2134 C2144 0.930 . S
H2135 C2147 0.929 . S
H2136 C2150 0.930 . S
H2137 C2152 0.960 . S
H2138 C2152 0.960 . S
H2139 C2152 0.960 . S
C2140 H2132 0.929 . S
C2140 C2141 1.377 . S
C2140 C2142 1.384 . S
C2141 C2140 1.377 . S
C2141 C2147 1.390 . S
C2142 H2133 0.930 . S
C2142 C2140 1.384 . S
C2142 C2143 1.372 . S
C2143 C2142 1.372 . S
C2143 C2144 1.400 . S
C2143 C2148 1.490 . S
C2144 H2134 0.930 . S
C2144 C2143 1.400 . S
C2144 C2147 1.386 . S
H2145 C2161 0.930 . S
H2146 C2162 0.931 . S
C2147 H2135 0.929 . S
C2147 C2141 1.390 . S
C2147 C2144 1.386 . S
C2148 C2143 1.490 . S
C2148 C2150 1.395 . S
C2148 C2151 1.403 . S
H2149 C2155 0.930 . S
C2150 H2136 0.930 . S
C2150 C2148 1.395 . S
C2150 C2153 1.403 . S
C2151 C2148 1.403 . S
C2151 C2152 1.524 . S
C2151 C2155 1.400 . S
C2152 H2137 0.960 . S
C2152 H2138 0.960 . S
C2152 H2139 0.960 . S
C2152 C2151 1.524 . S
C2153 C2150 1.403 . S
C2153 C2154 1.392 . S
C2153 C2157 1.495 . S
C2154 C2153 1.392 . S
C2154 C2155 1.385 . S
C2154 C2156 1.478 . S
C2155 H2149 0.930 . S
C2155 C2151 1.400 . S
C2155 C2154 1.385 . S
C2156 C2154 1.478 . S
C2156 C2158 1.381 . S
C2156 C2162 1.383 . S
C2157 C2153 1.495 . S
C2157 H2163 0.959 . S
C2157 H2164 0.961 . S
C2157 H2165 0.960 . S
C2158 C2156 1.381 . S
C2158 C2159 1.394 . S
C2158 H2166 0.930 . S
C2159 C2158 1.394 . S
C2159 C2160 1.383 . S
C2159 H2167 0.929 . S
C2160 C2159 1.383 . S
C2160 C2161 1.377 . S
C2161 H2145 0.930 . S
C2161 C2160 1.377 . S
C2161 C2162 1.379 . S
C2162 H2146 0.931 . S
C2162 C2156 1.383 . S
C2162 C2161 1.379 . S
H2163 C2157 0.959 . S
H2164 C2157 0.961 . S
H2165 C2157 0.960 . S
H2166 C2158 0.930 . S
H2167 C2159 0.929 . S
H2168 C2176 0.929 . S
H2169 C2178 0.930 . S
H2170 C2180 0.930 . S
H2171 C2183 0.929 . S
H2172 C2186 0.930 . S
H2173 C2188 0.960 . S
H2174 C2188 0.960 . S
H2175 C2188 0.960 . S
C2176 H2168 0.929 . S
C2176 C2177 1.377 . S
C2176 C2178 1.384 . S
C2177 C2176 1.377 . S
C2177 C2183 1.390 . S
C2178 H2169 0.930 . S
C2178 C2176 1.384 . S
C2178 C2179 1.372 . S
C2179 C2178 1.372 . S
C2179 C2180 1.400 . S
C2179 C2184 1.490 . S
C2180 H2170 0.930 . S
C2180 C2179 1.400 . S
C2180 C2183 1.386 . S
H2181 C2197 0.930 . S
H2182 C2198 0.931 . S
C2183 H2171 0.929 . S
C2183 C2177 1.390 . S
C2183 C2180 1.386 . S
C2184 C2179 1.490 . S
C2184 C2186 1.395 . S
C2184 C2187 1.403 . S
H2185 C2191 0.930 . S
C2186 H2172 0.930 . S
C2186 C2184 1.395 . S
C2186 C2189 1.403 . S
C2187 C2184 1.403 . S
C2187 C2188 1.524 . S
C2187 C2191 1.400 . S
C2188 H2173 0.960 . S
C2188 H2174 0.960 . S
C2188 H2175 0.960 . S
C2188 C2187 1.524 . S
C2189 C2186 1.403 . S
C2189 C2190 1.392 . S
C2189 C2193 1.495 . S
C2190 C2189 1.392 . S
C2190 C2191 1.385 . S
C2190 C2192 1.478 . S
C2191 H2185 0.930 . S
C2191 C2187 1.400 . S
C2191 C2190 1.385 . S
C2192 C2190 1.478 . S
C2192 C2194 1.381 . S
C2192 C2198 1.383 . S
C2193 C2189 1.495 . S
C2193 H2199 0.959 . S
C2193 H2200 0.961 . S
C2193 H2201 0.960 . S
C2194 C2192 1.381 . S
C2194 C2195 1.394 . S
C2194 H2202 0.930 . S
C2195 C2194 1.394 . S
C2195 C2196 1.383 . S
C2195 H2203 0.929 . S
C2196 C2195 1.383 . S
C2196 C2197 1.377 . S
C2197 H2181 0.930 . S
C2197 C2196 1.377 . S
C2197 C2198 1.379 . S
C2198 H2182 0.931 . S
C2198 C2192 1.383 . S
C2198 C2197 1.379 . S
H2199 C2193 0.959 . S
H2200 C2193 0.961 . S
H2201 C2193 0.960 . S
H2202 C2194 0.930 . S
H2203 C2195 0.929 . S
H2204 C2212 0.929 . S
H2205 C2214 0.930 . S
H2206 C2216 0.930 . S
H2207 C2219 0.929 . S
H2208 C2222 0.930 . S
H2209 C2224 0.960 . S
H2210 C2224 0.960 . S
H2211 C2224 0.960 . S
C2212 H2204 0.929 . S
C2212 C2213 1.377 . S
C2212 C2214 1.384 . S
C2213 C2212 1.377 . S
C2213 C2219 1.390 . S
C2214 H2205 0.930 . S
C2214 C2212 1.384 . S
C2214 C2215 1.372 . S
C2215 C2214 1.372 . S
C2215 C2216 1.400 . S
C2215 C2220 1.490 . S
C2216 H2206 0.930 . S
C2216 C2215 1.400 . S
C2216 C2219 1.386 . S
H2217 C2233 0.930 . S
H2218 C2234 0.931 . S
C2219 H2207 0.929 . S
C2219 C2213 1.390 . S
C2219 C2216 1.386 . S
C2220 C2215 1.490 . S
C2220 C2222 1.395 . S
C2220 C2223 1.403 . S
H2221 C2227 0.930 . S
C2222 H2208 0.930 . S
C2222 C2220 1.395 . S
C2222 C2225 1.403 . S
C2223 C2220 1.403 . S
C2223 C2224 1.524 . S
C2223 C2227 1.400 . S
C2224 H2209 0.960 . S
C2224 H2210 0.960 . S
C2224 H2211 0.960 . S
C2224 C2223 1.524 . S
C2225 C2222 1.403 . S
C2225 C2226 1.392 . S
C2225 C2229 1.495 . S
C2226 C2225 1.392 . S
C2226 C2227 1.385 . S
C2226 C2228 1.478 . S
C2227 H2221 0.930 . S
C2227 C2223 1.400 . S
C2227 C2226 1.385 . S
C2228 C2226 1.478 . S
C2228 C2230 1.381 . S
C2228 C2234 1.383 . S
C2229 C2225 1.495 . S
C2229 H2235 0.959 . S
C2229 H2236 0.961 . S
C2229 H2237 0.960 . S
C2230 C2228 1.381 . S
C2230 C2231 1.394 . S
C2230 H2238 0.930 . S
C2231 C2230 1.394 . S
C2231 C2232 1.383 . S
C2231 H2239 0.929 . S
C2232 C2231 1.383 . S
C2232 C2233 1.377 . S
C2233 H2217 0.930 . S
C2233 C2232 1.377 . S
C2233 C2234 1.379 . S
C2234 H2218 0.931 . S
C2234 C2228 1.383 . S
C2234 C2233 1.379 . S
H2235 C2229 0.959 . S
H2236 C2229 0.961 . S
H2237 C2229 0.960 . S
H2238 C2230 0.930 . S
H2239 C2231 0.929 . S
H2240 C2248 0.929 . S
H2241 C2250 0.930 . S
H2242 C2252 0.930 . S
H2243 C2255 0.929 . S
H2244 C2258 0.930 . S
H2245 C2260 0.960 . S
H2246 C2260 0.960 . S
H2247 C2260 0.960 . S
C2248 H2240 0.929 . S
C2248 C2249 1.377 . S
C2248 C2250 1.384 . S
C2249 C2248 1.377 . S
C2249 C2255 1.390 . S
C2250 H2241 0.930 . S
C2250 C2248 1.384 . S
C2250 C2251 1.372 . S
C2251 C2250 1.372 . S
C2251 C2252 1.400 . S
C2251 C2256 1.490 . S
C2252 H2242 0.930 . S
C2252 C2251 1.400 . S
C2252 C2255 1.386 . S
H2253 C2269 0.930 . S
H2254 C2270 0.931 . S
C2255 H2243 0.929 . S
C2255 C2249 1.390 . S
C2255 C2252 1.386 . S
C2256 C2251 1.490 . S
C2256 C2258 1.395 . S
C2256 C2259 1.403 . S
H2257 C2263 0.930 . S
C2258 H2244 0.930 . S
C2258 C2256 1.395 . S
C2258 C2261 1.403 . S
C2259 C2256 1.403 . S
C2259 C2260 1.524 . S
C2259 C2263 1.400 . S
C2260 H2245 0.960 . S
C2260 H2246 0.960 . S
C2260 H2247 0.960 . S
C2260 C2259 1.524 . S
C2261 C2258 1.403 . S
C2261 C2262 1.392 . S
C2261 C2265 1.495 . S
C2262 C2261 1.392 . S
C2262 C2263 1.385 . S
C2262 C2264 1.478 . S
C2263 H2257 0.930 . S
C2263 C2259 1.400 . S
C2263 C2262 1.385 . S
C2264 C2262 1.478 . S
C2264 C2266 1.381 . S
C2264 C2270 1.383 . S
C2265 C2261 1.495 . S
C2265 H2271 0.959 . S
C2265 H2272 0.961 . S
C2265 H2273 0.960 . S
C2266 C2264 1.381 . S
C2266 C2267 1.394 . S
C2266 H2274 0.930 . S
C2267 C2266 1.394 . S
C2267 C2268 1.383 . S
C2267 H2275 0.929 . S
C2268 C2267 1.383 . S
C2268 C2269 1.377 . S
C2269 H2253 0.930 . S
C2269 C2268 1.377 . S
C2269 C2270 1.379 . S
C2270 H2254 0.931 . S
C2270 C2264 1.383 . S
C2270 C2269 1.379 . S
H2271 C2265 0.959 . S
H2272 C2265 0.961 . S
H2273 C2265 0.960 . S
H2274 C2266 0.930 . S
H2275 C2267 0.929 . S
H2276 C2284 0.929 . S
H2277 C2286 0.930 . S
H2278 C2288 0.930 . S
H2279 C2291 0.929 . S
H2280 C2294 0.930 . S
H2281 C2296 0.960 . S
H2282 C2296 0.960 . S
H2283 C2296 0.960 . S
C2284 H2276 0.929 . S
C2284 C2285 1.377 . S
C2284 C2286 1.384 . S
C2285 C2284 1.377 . S
C2285 C2291 1.390 . S
C2286 H2277 0.930 . S
C2286 C2284 1.384 . S
C2286 C2287 1.372 . S
C2287 C2286 1.372 . S
C2287 C2288 1.400 . S
C2287 C2292 1.490 . S
C2288 H2278 0.930 . S
C2288 C2287 1.400 . S
C2288 C2291 1.386 . S
H2289 C2305 0.930 . S
H2290 C2306 0.931 . S
C2291 H2279 0.929 . S
C2291 C2285 1.390 . S
C2291 C2288 1.386 . S
C2292 C2287 1.490 . S
C2292 C2294 1.395 . S
C2292 C2295 1.403 . S
H2293 C2299 0.930 . S
C2294 H2280 0.930 . S
C2294 C2292 1.395 . S
C2294 C2297 1.403 . S
C2295 C2292 1.403 . S
C2295 C2296 1.524 . S
C2295 C2299 1.400 . S
C2296 H2281 0.960 . S
C2296 H2282 0.960 . S
C2296 H2283 0.960 . S
C2296 C2295 1.524 . S
C2297 C2294 1.403 . S
C2297 C2298 1.392 . S
C2297 C2301 1.489 1_565 S
C2298 C2297 1.392 . S
C2298 C2299 1.385 . S
C2298 C2300 1.478 . S
C2299 H2293 0.930 . S
C2299 C2295 1.400 . S
C2299 C2298 1.385 . S
C2300 C2298 1.478 . S
C2300 C2302 1.381 1_565 S
C2300 C2306 1.383 . S
C2301 C2297 1.489 1_545 S
C2301 H2307 0.959 . S
C2301 H2308 0.958 . S
C2301 H2309 0.965 . S
C2302 C2300 1.381 1_545 S
C2302 C2303 1.394 . S
C2302 H2310 0.930 . S
C2303 C2302 1.394 . S
C2303 C2304 1.383 . S
C2303 H2311 0.929 . S
C2304 C2303 1.383 . S
C2304 C2305 1.377 1_545 S
C2305 H2289 0.930 . S
C2305 C2304 1.377 1_565 S
C2305 C2306 1.379 . S
C2306 H2290 0.931 . S
C2306 C2300 1.383 . S
C2306 C2305 1.379 . S
H2307 C2301 0.959 . S
H2308 C2301 0.958 . S
H2309 C2301 0.965 . S
H2310 C2302 0.930 . S
H2311 C2303 0.929 . S
H2312 C2320 0.929 . S
H2313 C2322 0.930 . S
H2314 C2324 0.930 . S
H2315 C2327 0.929 . S
H2316 C2330 0.930 . S
H2317 C2332 0.960 . S
H2318 C2332 0.960 . S
H2319 C2332 0.960 . S
C2320 H2312 0.929 . S
C2320 C2321 1.377 . S
C2320 C2322 1.384 . S
C2321 C2320 1.377 . S
C2321 C2327 1.390 . S
C2322 H2313 0.930 . S
C2322 C2320 1.384 . S
C2322 C2323 1.372 . S
C2323 C2322 1.372 . S
C2323 C2324 1.400 . S
C2323 C2328 1.490 . S
C2324 H2314 0.930 . S
C2324 C2323 1.400 . S
C2324 C2327 1.386 . S
H2325 C2341 0.930 . S
H2326 C2342 0.931 . S
C2327 H2315 0.929 . S
C2327 C2321 1.390 . S
C2327 C2324 1.386 . S
C2328 C2323 1.490 . S
C2328 C2330 1.395 . S
C2328 C2331 1.403 . S
H2329 C2335 0.930 . S
C2330 H2316 0.930 . S
C2330 C2328 1.395 . S
C2330 C2333 1.403 . S
C2331 C2328 1.403 . S
C2331 C2332 1.524 . S
C2331 C2335 1.400 . S
C2332 H2317 0.960 . S
C2332 H2318 0.960 . S
C2332 H2319 0.960 . S
C2332 C2331 1.524 . S
C2333 C2330 1.403 . S
C2333 C2334 1.392 . S
C2333 C2337 1.495 . S
C2334 C2333 1.392 . S
C2334 C2335 1.385 . S
C2334 C2336 1.478 . S
C2335 H2329 0.930 . S
C2335 C2331 1.400 . S
C2335 C2334 1.385 . S
C2336 C2334 1.478 . S
C2336 C2338 1.381 . S
C2336 C2342 1.383 . S
C2337 C2333 1.495 . S
C2337 H2343 0.959 . S
C2337 H2344 0.961 . S
C2337 H2345 0.960 . S
C2338 C2336 1.381 . S
C2338 C2339 1.394 . S
C2338 H2346 0.930 . S
C2339 C2338 1.394 . S
C2339 C2340 1.383 . S
C2339 H2347 0.929 . S
C2340 C2339 1.383 . S
C2340 C2341 1.377 . S
C2341 H2325 0.930 . S
C2341 C2340 1.377 . S
C2341 C2342 1.379 . S
C2342 H2326 0.931 . S
C2342 C2336 1.383 . S
C2342 C2341 1.379 . S
H2343 C2337 0.959 . S
H2344 C2337 0.961 . S
H2345 C2337 0.960 . S
H2346 C2338 0.930 . S
H2347 C2339 0.929 . S
H2348 C2356 0.929 . S
H2349 C2358 0.930 . S
H2350 C2360 0.930 . S
H2351 C2363 0.929 . S
H2352 C2366 0.930 . S
H2353 C2368 0.960 . S
H2354 C2368 0.960 . S
H2355 C2368 0.960 . S
C2356 H2348 0.929 . S
C2356 C2357 1.377 . S
C2356 C2358 1.384 . S
C2357 C2356 1.377 . S
C2357 C2363 1.390 . S
C2358 H2349 0.930 . S
C2358 C2356 1.384 . S
C2358 C2359 1.372 . S
C2359 C2358 1.372 . S
C2359 C2360 1.400 . S
C2359 C2364 1.490 . S
C2360 H2350 0.930 . S
C2360 C2359 1.400 . S
C2360 C2363 1.386 . S
H2361 C2377 0.930 . S
H2362 C2378 0.931 . S
C2363 H2351 0.929 . S
C2363 C2357 1.390 . S
C2363 C2360 1.386 . S
C2364 C2359 1.490 . S
C2364 C2366 1.395 . S
C2364 C2367 1.403 . S
H2365 C2371 0.930 . S
C2366 H2352 0.930 . S
C2366 C2364 1.395 . S
C2366 C2369 1.403 . S
C2367 C2364 1.403 . S
C2367 C2368 1.524 . S
C2367 C2371 1.400 . S
C2368 H2353 0.960 . S
C2368 H2354 0.960 . S
C2368 H2355 0.960 . S
C2368 C2367 1.524 . S
C2369 C2366 1.403 . S
C2369 C2370 1.392 . S
C2369 C2373 1.495 . S
C2370 C2369 1.392 . S
C2370 C2371 1.385 . S
C2370 C2372 1.478 . S
C2371 H2365 0.930 . S
C2371 C2367 1.400 . S
C2371 C2370 1.385 . S
C2372 C2370 1.478 . S
C2372 C2374 1.381 . S
C2372 C2378 1.383 . S
C2373 C2369 1.495 . S
C2373 H2379 0.959 . S
C2373 H2380 0.961 . S
C2373 H2381 0.960 . S
C2374 C2372 1.381 . S
C2374 C2375 1.394 . S
C2374 H2382 0.930 . S
C2375 C2374 1.394 . S
C2375 C2376 1.383 . S
C2375 H2383 0.929 . S
C2376 C2375 1.383 . S
C2376 C2377 1.377 . S
C2377 H2361 0.930 . S
C2377 C2376 1.377 . S
C2377 C2378 1.379 . S
C2378 H2362 0.931 . S
C2378 C2372 1.383 . S
C2378 C2377 1.379 . S
H2379 C2373 0.959 . S
H2380 C2373 0.961 . S
H2381 C2373 0.960 . S
H2382 C2374 0.930 . S
H2383 C2375 0.929 . S
H2384 C2392 0.929 . S
H2385 C2394 0.930 . S
H2386 C2396 0.930 . S
H2387 C2399 0.929 . S
H2388 C2402 0.930 . S
H2389 C2404 0.960 . S
H2390 C2404 0.960 . S
H2391 C2404 0.960 . S
C2392 H2384 0.929 . S
C2392 C2393 1.377 . S
C2392 C2394 1.384 . S
C2393 C2392 1.377 . S
C2393 C2399 1.390 . S
C2394 H2385 0.930 . S
C2394 C2392 1.384 . S
C2394 C2395 1.372 . S
C2395 C2394 1.372 . S
C2395 C2396 1.400 . S
C2395 C2400 1.490 . S
C2396 H2386 0.930 . S
C2396 C2395 1.400 . S
C2396 C2399 1.386 . S
H2397 C2413 0.930 . S
H2398 C2414 0.931 . S
C2399 H2387 0.929 . S
C2399 C2393 1.390 . S
C2399 C2396 1.386 . S
C2400 C2395 1.490 . S
C2400 C2402 1.395 . S
C2400 C2403 1.403 . S
H2401 C2407 0.930 . S
C2402 H2388 0.930 . S
C2402 C2400 1.395 . S
C2402 C2405 1.403 . S
C2403 C2400 1.403 . S
C2403 C2404 1.524 . S
C2403 C2407 1.400 . S
C2404 H2389 0.960 . S
C2404 H2390 0.960 . S
C2404 H2391 0.960 . S
C2404 C2403 1.524 . S
C2405 C2402 1.403 . S
C2405 C2406 1.392 . S
C2405 C2409 1.495 . S
C2406 C2405 1.392 . S
C2406 C2407 1.385 . S
C2406 C2408 1.478 . S
C2407 H2401 0.930 . S
C2407 C2403 1.400 . S
C2407 C2406 1.385 . S
C2408 C2406 1.478 . S
C2408 C2410 1.381 . S
C2408 C2414 1.383 . S
C2409 C2405 1.495 . S
C2409 H2415 0.959 . S
C2409 H2416 0.961 . S
C2409 H2417 0.960 . S
C2410 C2408 1.381 . S
C2410 C2411 1.394 . S
C2410 H2418 0.930 . S
C2411 C2410 1.394 . S
C2411 C2412 1.383 . S
C2411 H2419 0.929 . S
C2412 C2411 1.383 . S
C2412 C2413 1.377 . S
C2413 H2397 0.930 . S
C2413 C2412 1.377 . S
C2413 C2414 1.379 . S
C2414 H2398 0.931 . S
C2414 C2408 1.383 . S
C2414 C2413 1.379 . S
H2415 C2409 0.959 . S
H2416 C2409 0.961 . S
H2417 C2409 0.960 . S
H2418 C2410 0.930 . S
H2419 C2411 0.929 . S
H2420 C2428 0.929 . S
H2421 C2430 0.930 . S
H2422 C2432 0.930 . S
H2423 C2435 0.929 . S
H2424 C2438 0.930 . S
H2425 C2440 0.960 . S
H2426 C2440 0.960 . S
H2427 C2440 0.960 . S
C2428 H2420 0.929 . S
C2428 C2429 1.377 . S
C2428 C2430 1.384 . S
C2429 C2428 1.377 . S
C2429 C2435 1.390 . S
C2430 H2421 0.930 . S
C2430 C2428 1.384 . S
C2430 C2431 1.372 . S
C2431 C2430 1.372 . S
C2431 C2432 1.400 . S
C2431 C2436 1.490 . S
C2432 H2422 0.930 . S
C2432 C2431 1.400 . S
C2432 C2435 1.386 . S
H2433 C2449 0.930 . S
H2434 C2450 0.931 . S
C2435 H2423 0.929 . S
C2435 C2429 1.390 . S
C2435 C2432 1.386 . S
C2436 C2431 1.490 . S
C2436 C2438 1.395 . S
C2436 C2439 1.403 . S
H2437 C2443 0.930 . S
C2438 H2424 0.930 . S
C2438 C2436 1.395 . S
C2438 C2441 1.403 . S
C2439 C2436 1.403 . S
C2439 C2440 1.524 . S
C2439 C2443 1.400 . S
C2440 H2425 0.960 . S
C2440 H2426 0.960 . S
C2440 H2427 0.960 . S
C2440 C2439 1.524 . S
C2441 C2438 1.403 . S
C2441 C2442 1.392 . S
C2441 C2445 1.495 . S
C2442 C2441 1.392 . S
C2442 C2443 1.385 . S
C2442 C2444 1.478 . S
C2443 H2437 0.930 . S
C2443 C2439 1.400 . S
C2443 C2442 1.385 . S
C2444 C2442 1.478 . S
C2444 C2446 1.381 . S
C2444 C2450 1.383 . S
C2445 C2441 1.495 . S
C2445 H2451 0.959 . S
C2445 H2452 0.961 . S
C2445 H2453 0.960 . S
C2446 C2444 1.381 . S
C2446 C2447 1.394 . S
C2446 H2454 0.930 . S
C2447 C2446 1.394 . S
C2447 C2448 1.383 . S
C2447 H2455 0.929 . S
C2448 C2447 1.383 . S
C2448 C2449 1.377 . S
C2449 H2433 0.930 . S
C2449 C2448 1.377 . S
C2449 C2450 1.379 . S
C2450 H2434 0.931 . S
C2450 C2444 1.383 . S
C2450 C2449 1.379 . S
H2451 C2445 0.959 . S
H2452 C2445 0.961 . S
H2453 C2445 0.960 . S
H2454 C2446 0.930 . S
H2455 C2447 0.929 . S
H2456 C2464 0.929 . S
H2457 C2466 0.930 . S
H2458 C2468 0.930 1_655 S
H2459 C2471 0.929 1_655 S
H2460 C2474 0.930 . S
H2461 C2476 0.960 . S
H2462 C2476 0.960 . S
H2463 C2476 0.960 . S
C2464 H2456 0.929 . S
C2464 C2465 1.377 . S
C2464 C2466 1.384 . S
C2465 C2464 1.377 . S
C2465 C2471 1.390 . S
C2466 H2457 0.930 . S
C2466 C2464 1.384 . S
C2466 C2467 1.372 . S
C2467 C2466 1.372 . S
C2467 C2468 1.400 . S
C2467 C2472 1.490 . S
C2468 H2458 0.930 1_455 S
C2468 C2467 1.400 . S
C2468 C2471 1.386 . S
H2469 C2485 0.930 1_655 S
H2470 C2486 0.931 1_655 S
C2471 H2459 0.929 1_455 S
C2471 C2465 1.390 . S
C2471 C2468 1.386 . S
C2472 C2467 1.490 . S
C2472 C2474 1.395 . S
C2472 C2475 1.403 1_455 S
H2473 C2479 0.989 . S
C2474 H2460 0.930 . S
C2474 C2472 1.395 . S
C2474 C2477 1.403 . S
C2475 C2472 1.403 1_655 S
C2475 C2476 1.524 . S
C2475 C2479 1.389 . S
C2476 H2461 0.960 . S
C2476 H2462 0.960 . S
C2476 H2463 0.960 . S
C2476 C2475 1.524 . S
C2477 C2474 1.403 . S
C2477 C2478 1.392 . S
C2477 C2481 1.495 . S
C2478 C2477 1.392 . S
C2478 C2479 1.343 1_455 S
C2478 C2480 1.478 . S
C2479 H2473 0.989 . S
C2479 C2475 1.389 . S
C2479 C2478 1.343 1_655 S
C2480 C2478 1.478 . S
C2480 C2482 1.381 1_556 S
C2480 C2486 1.383 . S
C2481 C2477 1.495 . S
C2481 H2487 0.959 . S
C2481 H2488 0.961 . S
C2481 H2489 0.960 . S
C2482 C2480 1.381 1_554 S
C2482 C2483 1.394 . S
C2482 H2490 0.930 . S
C2483 C2482 1.394 . S
C2483 C2484 1.383 . S
C2483 H2491 0.929 . S
C2484 C2483 1.383 . S
C2484 C2485 1.377 1_554 S
C2485 H2469 0.930 1_455 S
C2485 C2484 1.377 1_556 S
C2485 C2486 1.379 . S
C2486 H2470 0.931 1_455 S
C2486 C2480 1.383 . S
C2486 C2485 1.379 . S
H2487 C2481 0.959 . S
H2488 C2481 0.961 . S
H2489 C2481 0.960 . S
H2490 C2482 0.930 . S
H2491 C2483 0.929 . S
H2492 C2500 0.929 . S
H2493 C2502 0.930 . S
H2494 C2504 0.930 . S
H2495 C2507 0.929 . S
H2496 C2510 0.930 . S
H2497 C2512 0.960 . S
H2498 C2512 0.960 . S
H2499 C2512 0.960 . S
C2500 H2492 0.929 . S
C2500 C2501 1.377 . S
C2500 C2502 1.384 . S
C2501 C2500 1.377 . S
C2501 C2507 1.390 . S
C2502 H2493 0.930 . S
C2502 C2500 1.384 . S
C2502 C2503 1.372 . S
C2503 C2502 1.372 . S
C2503 C2504 1.400 . S
C2503 C2508 1.490 . S
C2504 H2494 0.930 . S
C2504 C2503 1.400 . S
C2504 C2507 1.386 . S
H2505 C2521 0.930 . S
H2506 C2522 0.931 . S
C2507 H2495 0.929 . S
C2507 C2501 1.390 . S
C2507 C2504 1.386 . S
C2508 C2503 1.490 . S
C2508 C2510 1.395 . S
C2508 C2511 1.403 . S
H2509 C2515 0.930 . S
C2510 H2496 0.930 . S
C2510 C2508 1.395 . S
C2510 C2513 1.403 . S
C2511 C2508 1.403 . S
C2511 C2512 1.524 . S
C2511 C2515 1.400 . S
C2512 H2497 0.960 . S
C2512 H2498 0.960 . S
C2512 H2499 0.960 . S
C2512 C2511 1.524 . S
C2513 C2510 1.403 . S
C2513 C2514 1.392 . S
C2513 C2517 1.495 . S
C2514 C2513 1.392 . S
C2514 C2515 1.385 . S
C2514 C2516 1.478 . S
C2515 H2509 0.930 . S
C2515 C2511 1.400 . S
C2515 C2514 1.385 . S
C2516 C2514 1.478 . S
C2516 C2518 1.381 . S
C2516 C2522 1.383 . S
C2517 C2513 1.495 . S
C2517 H2523 0.959 . S
C2517 H2524 0.961 . S
C2517 H2525 0.960 . S
C2518 C2516 1.381 . S
C2518 C2519 1.394 . S
C2518 H2526 0.930 . S
C2519 C2518 1.394 . S
C2519 C2520 1.383 . S
C2519 H2527 0.929 . S
C2520 C2519 1.383 . S
C2520 C2521 1.377 . S
C2521 H2505 0.930 . S
C2521 C2520 1.377 . S
C2521 C2522 1.379 . S
C2522 H2506 0.931 . S
C2522 C2516 1.383 . S
C2522 C2521 1.379 . S
H2523 C2517 0.959 . S
H2524 C2517 0.961 . S
H2525 C2517 0.960 . S
H2526 C2518 0.930 . S
H2527 C2519 0.929 . S
H2528 C2536 0.929 . S
H2529 C2538 0.930 . S
H2530 C2540 0.930 . S
H2531 C2543 0.929 . S
H2532 C2546 0.930 . S
H2533 C2548 0.960 . S
H2534 C2548 0.960 . S
H2535 C2548 0.960 . S
C2536 H2528 0.929 . S
C2536 C2537 1.377 . S
C2536 C2538 1.384 . S
C2537 C2536 1.377 . S
C2537 C2543 1.390 . S
C2538 H2529 0.930 . S
C2538 C2536 1.384 . S
C2538 C2539 1.372 . S
C2539 C2538 1.372 . S
C2539 C2540 1.400 . S
C2539 C2544 1.490 . S
C2540 H2530 0.930 . S
C2540 C2539 1.400 . S
C2540 C2543 1.386 . S
H2541 C2557 0.930 . S
H2542 C2558 0.931 . S
C2543 H2531 0.929 . S
C2543 C2537 1.390 . S
C2543 C2540 1.386 . S
C2544 C2539 1.490 . S
C2544 C2546 1.395 . S
C2544 C2547 1.403 . S
H2545 C2551 0.930 . S
C2546 H2532 0.930 . S
C2546 C2544 1.395 . S
C2546 C2549 1.403 . S
C2547 C2544 1.403 . S
C2547 C2548 1.524 . S
C2547 C2551 1.400 . S
C2548 H2533 0.960 . S
C2548 H2534 0.960 . S
C2548 H2535 0.960 . S
C2548 C2547 1.524 . S
C2549 C2546 1.403 . S
C2549 C2550 1.392 . S
C2549 C2553 1.495 . S
C2550 C2549 1.392 . S
C2550 C2551 1.385 . S
C2550 C2552 1.478 . S
C2551 H2545 0.930 . S
C2551 C2547 1.400 . S
C2551 C2550 1.385 . S
C2552 C2550 1.478 . S
C2552 C2554 1.381 . S
C2552 C2558 1.383 . S
C2553 C2549 1.495 . S
C2553 H2559 0.959 . S
C2553 H2560 0.961 . S
C2553 H2561 0.960 . S
C2554 C2552 1.381 . S
C2554 C2555 1.394 . S
C2554 H2562 0.930 . S
C2555 C2554 1.394 . S
C2555 C2556 1.383 . S
C2555 H2563 0.929 . S
C2556 C2555 1.383 . S
C2556 C2557 1.377 . S
C2557 H2541 0.930 . S
C2557 C2556 1.377 . S
C2557 C2558 1.379 . S
C2558 H2542 0.931 . S
C2558 C2552 1.383 . S
C2558 C2557 1.379 . S
H2559 C2553 0.959 . S
H2560 C2553 0.961 . S
H2561 C2553 0.960 . S
H2562 C2554 0.930 . S
H2563 C2555 0.929 . S
H2564 C2572 0.929 . S
H2565 C2574 0.930 . S
H2566 C2576 0.930 . S
H2567 C2579 0.929 . S
H2568 C2582 0.930 . S
H2569 C2584 0.960 . S
H2570 C2584 0.960 . S
H2571 C2584 0.960 . S
C2572 H2564 0.929 . S
C2572 C2573 1.377 . S
C2572 C2574 1.384 . S
C2573 C2572 1.377 . S
C2573 C2579 1.390 . S
C2574 H2565 0.930 . S
C2574 C2572 1.384 . S
C2574 C2575 1.372 . S
C2575 C2574 1.372 . S
C2575 C2576 1.400 . S
C2575 C2580 1.490 . S
C2576 H2566 0.930 . S
C2576 C2575 1.400 . S
C2576 C2579 1.386 . S
H2577 C2593 0.930 . S
H2578 C2594 0.931 . S
C2579 H2567 0.929 . S
C2579 C2573 1.390 . S
C2579 C2576 1.386 . S
C2580 C2575 1.490 . S
C2580 C2582 1.395 . S
C2580 C2583 1.403 . S
H2581 C2587 0.930 . S
C2582 H2568 0.930 . S
C2582 C2580 1.395 . S
C2582 C2585 1.403 . S
C2583 C2580 1.403 . S
C2583 C2584 1.524 . S
C2583 C2587 1.400 . S
C2584 H2569 0.960 . S
C2584 H2570 0.960 . S
C2584 H2571 0.960 . S
C2584 C2583 1.524 . S
C2585 C2582 1.403 . S
C2585 C2586 1.392 . S
C2585 C2589 1.495 . S
C2586 C2585 1.392 . S
C2586 C2587 1.385 . S
C2586 C2588 1.478 . S
C2587 H2581 0.930 . S
C2587 C2583 1.400 . S
C2587 C2586 1.385 . S
C2588 C2586 1.478 . S
C2588 C2590 1.381 . S
C2588 C2594 1.383 . S
C2589 C2585 1.495 . S
C2589 H2595 0.959 . S
C2589 H2596 0.961 . S
C2589 H2597 0.960 . S
C2590 C2588 1.381 . S
C2590 C2591 1.394 . S
C2590 H2598 0.930 . S
C2591 C2590 1.394 . S
C2591 C2592 1.383 . S
C2591 H2599 0.929 . S
C2592 C2591 1.383 . S
C2592 C2593 1.377 . S
C2593 H2577 0.930 . S
C2593 C2592 1.377 . S
C2593 C2594 1.379 . S
C2594 H2578 0.931 . S
C2594 C2588 1.383 . S
C2594 C2593 1.379 . S
H2595 C2589 0.959 . S
H2596 C2589 0.961 . S
H2597 C2589 0.960 . S
H2598 C2590 0.930 . S
H2599 C2591 0.929 . S
H2600 C2608 0.929 . S
H2601 C2610 0.930 . S
H2602 C2612 0.930 . S
H2603 C2615 0.929 . S
H2604 C2618 0.930 . S
H2605 C2620 0.960 . S
H2606 C2620 0.960 1_655 S
H2607 C2620 0.960 . S
C2608 H2600 0.929 . S
C2608 C2609 1.377 . S
C2608 C2610 1.384 . S
C2609 C2608 1.377 . S
C2609 C2615 1.390 1_655 S
C2610 H2601 0.930 . S
C2610 C2608 1.384 . S
C2610 C2611 1.372 . S
C2611 C2610 1.372 . S
C2611 C2612 1.400 1_655 S
C2611 C2616 1.490 . S
C2612 H2602 0.930 . S
C2612 C2611 1.400 1_455 S
C2612 C2615 1.386 . S
H2613 C2629 0.930 . S
H2614 C2630 0.931 . S
C2615 H2603 0.929 . S
C2615 C2609 1.390 1_455 S
C2615 C2612 1.386 . S
C2616 C2611 1.490 . S
C2616 C2618 1.395 . S
C2616 C2619 1.403 1_655 S
H2617 C2623 0.930 . S
C2618 H2604 0.930 . S
C2618 C2616 1.395 . S
C2618 C2621 1.403 . S
C2619 C2616 1.403 1_455 S
C2619 C2620 1.524 . S
C2619 C2623 1.400 . S
C2620 H2605 0.960 . S
C2620 H2606 0.960 1_455 S
C2620 H2607 0.960 . S
C2620 C2619 1.524 . S
C2621 C2618 1.403 . S
C2621 C2622 1.392 . S
C2621 C2625 1.495 . S
C2622 C2621 1.392 . S
C2622 C2623 1.385 1_655 S
C2622 C2624 1.479 . S
C2623 H2617 0.930 . S
C2623 C2619 1.400 . S
C2623 C2622 1.385 1_455 S
C2624 C2622 1.479 . S
C2624 C2626 1.385 . S
C2624 C2630 1.378 1_655 S
C2625 C2621 1.495 . S
C2625 H2631 0.959 . S
C2625 H2632 0.961 1_655 S
C2625 H2633 0.960 . S
C2626 C2624 1.385 . S
C2626 C2627 1.394 . S
C2626 H2634 0.930 . S
C2627 C2626 1.394 . S
C2627 C2628 1.383 1_655 S
C2627 H2635 0.929 . S
C2628 C2627 1.383 1_455 S
C2628 C2629 1.377 . S
C2629 H2613 0.930 . S
C2629 C2628 1.377 . S
C2629 C2630 1.379 . S
C2630 H2614 0.931 . S
C2630 C2624 1.378 1_455 S
C2630 C2629 1.379 . S
H2631 C2625 0.959 . S
H2632 C2625 0.961 1_455 S
H2633 C2625 0.960 . S
H2634 C2626 0.930 . S
H2635 C2627 0.929 . S
H2636 C2644 0.929 . S
H2637 C2646 0.930 . S
H2638 C2648 0.930 . S
H2639 C2651 0.929 . S
H2640 C2654 0.930 . S
H2641 C2656 0.960 . S
H2642 C2656 0.960 . S
H2643 C2656 0.960 . S
C2644 H2636 0.929 . S
C2644 C2645 1.377 . S
C2644 C2646 1.384 . S
C2645 C2644 1.377 . S
C2645 C2651 1.390 . S
C2646 H2637 0.930 . S
C2646 C2644 1.384 . S
C2646 C2647 1.372 . S
C2647 C2646 1.372 . S
C2647 C2648 1.400 . S
C2647 C2652 1.490 . S
C2648 H2638 0.930 . S
C2648 C2647 1.400 . S
C2648 C2651 1.386 . S
H2649 C2665 0.930 . S
H2650 C2666 0.931 . S
C2651 H2639 0.929 . S
C2651 C2645 1.390 . S
C2651 C2648 1.386 . S
C2652 C2647 1.490 . S
C2652 C2654 1.395 . S
C2652 C2655 1.403 . S
H2653 C2659 0.930 . S
C2654 H2640 0.930 . S
C2654 C2652 1.395 . S
C2654 C2657 1.403 . S
C2655 C2652 1.403 . S
C2655 C2656 1.524 . S
C2655 C2659 1.400 . S
C2656 H2641 0.960 . S
C2656 H2642 0.960 . S
C2656 H2643 0.960 . S
C2656 C2655 1.524 . S
C2657 C2654 1.403 . S
C2657 C2658 1.392 . S
C2657 C2661 1.495 . S
C2658 C2657 1.392 . S
C2658 C2659 1.385 . S
C2658 C2660 1.478 . S
C2659 H2653 0.930 . S
C2659 C2655 1.400 . S
C2659 C2658 1.385 . S
C2660 C2658 1.478 . S
C2660 C2662 1.381 . S
C2660 C2666 1.383 . S
C2661 C2657 1.495 . S
C2661 H2667 0.959 . S
C2661 H2668 0.961 . S
C2661 H2669 0.960 . S
C2662 C2660 1.381 . S
C2662 C2663 1.394 . S
C2662 H2670 0.930 . S
C2663 C2662 1.394 . S
C2663 C2664 1.383 . S
C2663 H2671 0.929 . S
C2664 C2663 1.383 . S
C2664 C2665 1.377 . S
C2665 H2649 0.930 . S
C2665 C2664 1.377 . S
C2665 C2666 1.379 . S
C2666 H2650 0.931 . S
C2666 C2660 1.383 . S
C2666 C2665 1.379 . S
H2667 C2661 0.959 . S
H2668 C2661 0.961 . S
H2669 C2661 0.960 . S
H2670 C2662 0.930 . S
H2671 C2663 0.929 . S
H2672 C2680 0.929 . S
H2673 C2682 0.930 . S
H2674 C2684 0.930 . S
H2675 C2687 0.929 . S
H2676 C2690 0.930 . S
H2677 C2692 0.960 . S
H2678 C2692 0.960 . S
H2679 C2692 0.960 . S
C2680 H2672 0.929 . S
C2680 C2681 1.377 . S
C2680 C2682 1.384 . S
C2681 C2680 1.377 . S
C2681 C2687 1.390 . S
C2682 H2673 0.930 . S
C2682 C2680 1.384 . S
C2682 C2683 1.372 . S
C2683 C2682 1.372 . S
C2683 C2684 1.400 . S
C2683 C2688 1.490 . S
C2684 H2674 0.930 . S
C2684 C2683 1.400 . S
C2684 C2687 1.386 . S
H2685 C2701 0.930 . S
H2686 C2702 0.931 . S
C2687 H2675 0.929 . S
C2687 C2681 1.390 . S
C2687 C2684 1.386 . S
C2688 C2683 1.490 . S
C2688 C2690 1.395 . S
C2688 C2691 1.403 . S
H2689 C2695 0.930 . S
C2690 H2676 0.930 . S
C2690 C2688 1.395 . S
C2690 C2693 1.403 . S
C2691 C2688 1.403 . S
C2691 C2692 1.524 . S
C2691 C2695 1.400 . S
C2692 H2677 0.960 . S
C2692 H2678 0.960 . S
C2692 H2679 0.960 . S
C2692 C2691 1.524 . S
C2693 C2690 1.403 . S
C2693 C2694 1.392 . S
C2693 C2697 1.495 . S
C2694 C2693 1.392 . S
C2694 C2695 1.385 . S
C2694 C2696 1.478 . S
C2695 H2689 0.930 . S
C2695 C2691 1.400 . S
C2695 C2694 1.385 . S
C2696 C2694 1.478 . S
C2696 C2698 1.381 . S
C2696 C2702 1.383 . S
C2697 C2693 1.495 . S
C2697 H2703 0.959 . S
C2697 H2704 0.961 . S
C2697 H2705 0.960 . S
C2698 C2696 1.381 . S
C2698 C2699 1.394 . S
C2698 H2706 0.930 . S
C2699 C2698 1.394 . S
C2699 C2700 1.383 . S
C2699 H2707 0.929 . S
C2700 C2699 1.383 . S
C2700 C2701 1.377 . S
C2701 H2685 0.930 . S
C2701 C2700 1.377 . S
C2701 C2702 1.379 . S
C2702 H2686 0.931 . S
C2702 C2696 1.383 . S
C2702 C2701 1.379 . S
H2703 C2697 0.959 . S
H2704 C2697 0.961 . S
H2705 C2697 0.960 . S
H2706 C2698 0.930 . S
H2707 C2699 0.929 . S
H2708 C2716 0.929 . S
H2709 C2718 0.930 . S
H2710 C2720 0.930 . S
H2711 C2723 0.929 . S
H2712 C2726 0.930 . S
H2713 C2728 0.960 . S
H2714 C2728 0.960 . S
H2715 C2728 0.960 . S
C2716 H2708 0.929 . S
C2716 C2717 1.377 . S
C2716 C2718 1.384 . S
C2717 C2716 1.377 . S
C2717 C2723 1.390 . S
C2718 H2709 0.930 . S
C2718 C2716 1.384 . S
C2718 C2719 1.372 . S
C2719 C2718 1.372 . S
C2719 C2720 1.400 . S
C2719 C2724 1.490 . S
C2720 H2710 0.930 . S
C2720 C2719 1.400 . S
C2720 C2723 1.386 . S
H2721 C2737 0.930 . S
H2722 C2738 0.931 . S
C2723 H2711 0.929 . S
C2723 C2717 1.390 . S
C2723 C2720 1.386 . S
C2724 C2719 1.490 . S
C2724 C2726 1.395 . S
C2724 C2727 1.403 . S
H2725 C2731 0.930 . S
C2726 H2712 0.930 . S
C2726 C2724 1.395 . S
C2726 C2729 1.403 . S
C2727 C2724 1.403 . S
C2727 C2728 1.524 . S
C2727 C2731 1.400 . S
C2728 H2713 0.960 . S
C2728 H2714 0.960 . S
C2728 H2715 0.960 . S
C2728 C2727 1.524 . S
C2729 C2726 1.403 . S
C2729 C2730 1.392 . S
C2729 C2733 1.495 . S
C2730 C2729 1.392 . S
C2730 C2731 1.385 . S
C2730 C2732 1.478 . S
C2731 H2725 0.930 . S
C2731 C2727 1.400 . S
C2731 C2730 1.385 . S
C2732 C2730 1.478 . S
C2732 C2734 1.381 . S
C2732 C2738 1.383 . S
C2733 C2729 1.495 . S
C2733 H2739 0.959 . S
C2733 H2740 0.961 . S
C2733 H2741 0.960 . S
C2734 C2732 1.381 . S
C2734 C2735 1.394 . S
C2734 H2742 0.930 . S
C2735 C2734 1.394 . S
C2735 C2736 1.383 . S
C2735 H2743 0.929 . S
C2736 C2735 1.383 . S
C2736 C2737 1.377 . S
C2737 H2721 0.930 . S
C2737 C2736 1.377 . S
C2737 C2738 1.379 . S
C2738 H2722 0.931 . S
C2738 C2732 1.383 . S
C2738 C2737 1.379 . S
H2739 C2733 0.959 . S
H2740 C2733 0.961 . S
H2741 C2733 0.960 . S
H2742 C2734 0.930 . S
H2743 C2735 0.929 . S
H2744 C2752 0.929 . S
H2745 C2754 0.930 . S
H2746 C2756 0.930 . S
H2747 C2759 0.929 . S
H2748 C2762 0.930 . S
H2749 C2764 0.960 . S
H2750 C2764 0.960 . S
H2751 C2764 0.960 . S
C2752 H2744 0.929 . S
C2752 C2753 1.377 . S
C2752 C2754 1.384 . S
C2753 C2752 1.377 . S
C2753 C2759 1.390 . S
C2754 H2745 0.930 . S
C2754 C2752 1.384 . S
C2754 C2755 1.372 . S
C2755 C2754 1.372 . S
C2755 C2756 1.400 . S
C2755 C2760 1.490 . S
C2756 H2746 0.930 . S
C2756 C2755 1.400 . S
C2756 C2759 1.386 . S
H2757 C2773 0.930 . S
H2758 C2774 0.931 . S
C2759 H2747 0.929 . S
C2759 C2753 1.390 . S
C2759 C2756 1.386 . S
C2760 C2755 1.490 . S
C2760 C2762 1.395 . S
C2760 C2763 1.403 . S
H2761 C2767 0.930 . S
C2762 H2748 0.930 . S
C2762 C2760 1.395 . S
C2762 C2765 1.403 . S
C2763 C2760 1.403 . S
C2763 C2764 1.524 . S
C2763 C2767 1.400 . S
C2764 H2749 0.960 . S
C2764 H2750 0.960 . S
C2764 H2751 0.960 . S
C2764 C2763 1.524 . S
C2765 C2762 1.403 . S
C2765 C2766 1.392 . S
C2765 C2769 1.495 . S
C2766 C2765 1.392 . S
C2766 C2767 1.385 . S
C2766 C2768 1.478 . S
C2767 H2761 0.930 . S
C2767 C2763 1.400 . S
C2767 C2766 1.385 . S
C2768 C2766 1.478 . S
C2768 C2770 1.381 . S
C2768 C2774 1.383 . S
C2769 C2765 1.495 . S
C2769 H2775 0.959 . S
C2769 H2776 0.961 . S
C2769 H2777 0.960 . S
C2770 C2768 1.381 . S
C2770 C2771 1.394 . S
C2770 H2778 0.930 . S
C2771 C2770 1.394 . S
C2771 C2772 1.383 . S
C2771 H2779 0.929 . S
C2772 C2771 1.383 . S
C2772 C2773 1.377 . S
C2773 H2757 0.930 . S
C2773 C2772 1.377 . S
C2773 C2774 1.379 . S
C2774 H2758 0.931 . S
C2774 C2768 1.383 . S
C2774 C2773 1.379 . S
H2775 C2769 0.959 . S
H2776 C2769 0.961 . S
H2777 C2769 0.960 . S
H2778 C2770 0.930 . S
H2779 C2771 0.929 . S
H2780 C2788 0.929 . S
H2781 C2790 0.930 . S
H2782 C2792 0.930 . S
H2783 C2795 0.929 . S
H2784 C2798 0.930 . S
H2785 C2800 0.960 . S
H2786 C2800 0.960 . S
H2787 C2800 0.960 . S
C2788 H2780 0.929 . S
C2788 C2789 1.377 . S
C2788 C2790 1.384 . S
C2789 C2788 1.377 . S
C2789 C2795 1.390 . S
C2790 H2781 0.930 . S
C2790 C2788 1.384 . S
C2790 C2791 1.372 . S
C2791 C2790 1.372 . S
C2791 C2792 1.400 . S
C2791 C2796 1.490 . S
C2792 H2782 0.930 . S
C2792 C2791 1.400 . S
C2792 C2795 1.386 . S
H2793 C2809 0.930 . S
H2794 C2810 0.931 . S
C2795 H2783 0.929 . S
C2795 C2789 1.390 . S
C2795 C2792 1.386 . S
C2796 C2791 1.490 . S
C2796 C2798 1.395 . S
C2796 C2799 1.403 . S
H2797 C2803 0.930 . S
C2798 H2784 0.930 . S
C2798 C2796 1.395 . S
C2798 C2801 1.403 . S
C2799 C2796 1.403 . S
C2799 C2800 1.524 . S
C2799 C2803 1.400 . S
C2800 H2785 0.960 . S
C2800 H2786 0.960 . S
C2800 H2787 0.960 . S
C2800 C2799 1.524 . S
C2801 C2798 1.403 . S
C2801 C2802 1.392 . S
C2801 C2805 1.495 . S
C2802 C2801 1.392 . S
C2802 C2803 1.385 . S
C2802 C2804 1.478 . S
C2803 H2797 0.930 . S
C2803 C2799 1.400 . S
C2803 C2802 1.385 . S
C2804 C2802 1.478 . S
C2804 C2806 1.381 . S
C2804 C2810 1.383 . S
C2805 C2801 1.495 . S
C2805 H2811 0.959 . S
C2805 H2812 0.961 . S
C2805 H2813 0.960 . S
C2806 C2804 1.381 . S
C2806 C2807 1.394 . S
C2806 H2814 0.930 . S
C2807 C2806 1.394 . S
C2807 C2808 1.383 . S
C2807 H2815 0.929 . S
C2808 C2807 1.383 . S
C2808 C2809 1.377 . S
C2809 H2793 0.930 . S
C2809 C2808 1.377 . S
C2809 C2810 1.379 . S
C2810 H2794 0.931 . S
C2810 C2804 1.383 . S
C2810 C2809 1.379 . S
H2811 C2805 0.959 . S
H2812 C2805 0.961 . S
H2813 C2805 0.960 . S
H2814 C2806 0.930 . S
H2815 C2807 0.929 . S
H2816 C2824 0.929 . S
H2817 C2826 0.930 . S
H2818 C2828 0.930 . S
H2819 C2831 0.929 . S
H2820 C2834 0.930 . S
H2821 C2836 0.960 . S
H2822 C2836 0.960 . S
H2823 C2836 0.960 . S
C2824 H2816 0.929 . S
C2824 C2825 1.377 . S
C2824 C2826 1.384 . S
C2825 C2824 1.377 . S
C2825 C2831 1.390 . S
C2826 H2817 0.930 . S
C2826 C2824 1.384 . S
C2826 C2827 1.372 . S
C2827 C2826 1.372 . S
C2827 C2828 1.400 . S
C2827 C2832 1.490 . S
C2828 H2818 0.930 . S
C2828 C2827 1.400 . S
C2828 C2831 1.386 . S
H2829 C2845 0.930 . S
H2830 C2846 0.931 . S
C2831 H2819 0.929 . S
C2831 C2825 1.390 . S
C2831 C2828 1.386 . S
C2832 C2827 1.490 . S
C2832 C2834 1.395 . S
C2832 C2835 1.403 . S
H2833 C2839 0.930 . S
C2834 H2820 0.930 . S
C2834 C2832 1.395 . S
C2834 C2837 1.403 . S
C2835 C2832 1.403 . S
C2835 C2836 1.524 . S
C2835 C2839 1.400 . S
C2836 H2821 0.960 . S
C2836 H2822 0.960 . S
C2836 H2823 0.960 . S
C2836 C2835 1.524 . S
C2837 C2834 1.403 . S
C2837 C2838 1.392 . S
C2837 C2841 1.495 . S
C2838 C2837 1.392 . S
C2838 C2839 1.385 . S
C2838 C2840 1.478 . S
C2839 H2833 0.930 . S
C2839 C2835 1.400 . S
C2839 C2838 1.385 . S
C2840 C2838 1.478 . S
C2840 C2842 1.381 . S
C2840 C2846 1.383 . S
C2841 C2837 1.495 . S
C2841 H2847 0.959 . S
C2841 H2848 0.961 . S
C2841 H2849 0.960 . S
C2842 C2840 1.381 . S
C2842 C2843 1.394 . S
C2842 H2850 0.930 . S
C2843 C2842 1.394 . S
C2843 C2844 1.383 . S
C2843 H2851 0.929 . S
C2844 C2843 1.383 . S
C2844 C2845 1.377 . S
C2845 H2829 0.930 . S
C2845 C2844 1.377 . S
C2845 C2846 1.379 . S
C2846 H2830 0.931 . S
C2846 C2840 1.383 . S
C2846 C2845 1.379 . S
H2847 C2841 0.959 . S
H2848 C2841 0.961 . S
H2849 C2841 0.960 . S
H2850 C2842 0.930 . S
H2851 C2843 0.929 . S
H2852 C2860 0.929 . S
H2853 C2862 0.930 . S
H2854 C2864 0.930 . S
H2855 C2867 0.929 . S
H2856 C2870 0.930 . S
H2857 C2872 0.960 . S
H2858 C2872 0.960 . S
H2859 C2872 0.960 . S
C2860 H2852 0.929 . S
C2860 C2861 1.377 . S
C2860 C2862 1.384 . S
C2861 C2860 1.377 . S
C2861 C2867 1.390 . S
C2862 H2853 0.930 . S
C2862 C2860 1.384 . S
C2862 C2863 1.372 . S
C2863 C2862 1.372 . S
C2863 C2864 1.400 . S
C2863 C2868 1.490 . S
C2864 H2854 0.930 . S
C2864 C2863 1.400 . S
C2864 C2867 1.386 . S
H2865 C2881 0.930 . S
H2866 C2882 0.931 . S
C2867 H2855 0.929 . S
C2867 C2861 1.390 . S
C2867 C2864 1.386 . S
C2868 C2863 1.490 . S
C2868 C2870 1.395 . S
C2868 C2871 1.403 . S
H2869 C2875 0.930 . S
C2870 H2856 0.930 . S
C2870 C2868 1.395 . S
C2870 C2873 1.403 . S
C2871 C2868 1.403 . S
C2871 C2872 1.524 . S
C2871 C2875 1.400 . S
C2872 H2857 0.960 . S
C2872 H2858 0.960 . S
C2872 H2859 0.960 . S
C2872 C2871 1.524 . S
C2873 C2870 1.403 . S
C2873 C2874 1.392 . S
C2873 C2877 1.495 . S
C2874 C2873 1.392 . S
C2874 C2875 1.385 . S
C2874 C2876 1.478 . S
C2875 H2869 0.930 . S
C2875 C2871 1.400 . S
C2875 C2874 1.385 . S
C2876 C2874 1.478 . S
C2876 C2878 1.381 . S
C2876 C2882 1.383 . S
C2877 C2873 1.495 . S
C2877 H2883 0.959 . S
C2877 H2884 0.961 . S
C2877 H2885 0.960 . S
C2878 C2876 1.381 . S
C2878 C2879 1.394 . S
C2878 H2886 0.930 . S
C2879 C2878 1.394 . S
C2879 C2880 1.383 . S
C2879 H2887 0.929 . S
C2880 C2879 1.383 . S
C2880 C2881 1.377 . S
C2881 H2865 0.930 . S
C2881 C2880 1.377 . S
C2881 C2882 1.379 . S
C2882 H2866 0.931 . S
C2882 C2876 1.383 . S
C2882 C2881 1.379 . S
H2883 C2877 0.959 . S
H2884 C2877 0.961 . S
H2885 C2877 0.960 . S
H2886 C2878 0.930 . S
H2887 C2879 0.929 . S
H2888 C2896 0.929 . S
H2889 C2898 0.930 . S
H2890 C2900 0.930 . S
H2891 C2903 0.929 . S
H2892 C2906 0.930 . S
H2893 C2908 0.960 . S
H2894 C2908 0.960 . S
H2895 C2908 0.960 . S
C2896 H2888 0.929 . S
C2896 C2897 1.377 . S
C2896 C2898 1.384 . S
C2897 C2896 1.377 . S
C2897 C2903 1.390 . S
C2898 H2889 0.930 . S
C2898 C2896 1.384 . S
C2898 C2899 1.372 . S
C2899 C2898 1.372 . S
C2899 C2900 1.400 . S
C2899 C2904 1.490 . S
C2900 H2890 0.930 . S
C2900 C2899 1.400 . S
C2900 C2903 1.386 . S
H2901 C2917 0.930 . S
H2902 C2918 0.931 . S
C2903 H2891 0.929 . S
C2903 C2897 1.390 . S
C2903 C2900 1.386 . S
C2904 C2899 1.490 . S
C2904 C2906 1.395 . S
C2904 C2907 1.403 . S
H2905 C2911 0.930 . S
C2906 H2892 0.930 . S
C2906 C2904 1.395 . S
C2906 C2909 1.403 . S
C2907 C2904 1.403 . S
C2907 C2908 1.524 . S
C2907 C2911 1.400 . S
C2908 H2893 0.960 . S
C2908 H2894 0.960 . S
C2908 H2895 0.960 . S
C2908 C2907 1.524 . S
C2909 C2906 1.403 . S
C2909 C2910 1.392 . S
C2909 C2913 1.495 . S
C2910 C2909 1.392 . S
C2910 C2911 1.385 . S
C2910 C2912 1.478 . S
C2911 H2905 0.930 . S
C2911 C2907 1.400 . S
C2911 C2910 1.385 . S
C2912 C2910 1.478 . S
C2912 C2914 1.381 . S
C2912 C2918 1.383 . S
C2913 C2909 1.495 . S
C2913 H2919 0.959 . S
C2913 H2920 0.961 . S
C2913 H2921 0.960 . S
C2914 C2912 1.381 . S
C2914 C2915 1.394 . S
C2914 H2922 0.930 . S
C2915 C2914 1.394 . S
C2915 C2916 1.383 . S
C2915 H2923 0.929 . S
C2916 C2915 1.383 . S
C2916 C2917 1.377 . S
C2917 H2901 0.930 . S
C2917 C2916 1.377 . S
C2917 C2918 1.379 . S
C2918 H2902 0.931 . S
C2918 C2912 1.383 . S
C2918 C2917 1.379 . S
H2919 C2913 0.959 . S
H2920 C2913 0.961 . S
H2921 C2913 0.960 . S
H2922 C2914 0.930 . S
H2923 C2915 0.929 . S
H2924 C2932 0.929 . S
H2925 C2934 0.930 . S
H2926 C2936 0.930 . S
H2927 C2939 0.929 . S
H2928 C2942 0.930 . S
H2929 C2944 0.960 . S
H2930 C2944 0.960 . S
H2931 C2944 0.960 . S
C2932 H2924 0.929 . S
C2932 C2933 1.377 . S
C2932 C2934 1.384 . S
C2933 C2932 1.377 . S
C2933 C2939 1.390 . S
C2934 H2925 0.930 . S
C2934 C2932 1.384 . S
C2934 C2935 1.372 . S
C2935 C2934 1.372 . S
C2935 C2936 1.400 . S
C2935 C2940 1.490 . S
C2936 H2926 0.930 . S
C2936 C2935 1.400 . S
C2936 C2939 1.386 . S
H2937 C2953 0.930 . S
H2938 C2954 0.931 . S
C2939 H2927 0.929 . S
C2939 C2933 1.390 . S
C2939 C2936 1.386 . S
C2940 C2935 1.490 . S
C2940 C2942 1.395 . S
C2940 C2943 1.403 . S
H2941 C2947 0.930 . S
C2942 H2928 0.930 . S
C2942 C2940 1.395 . S
C2942 C2945 1.403 . S
C2943 C2940 1.403 . S
C2943 C2944 1.524 . S
C2943 C2947 1.400 . S
C2944 H2929 0.960 . S
C2944 H2930 0.960 . S
C2944 H2931 0.960 . S
C2944 C2943 1.524 . S
C2945 C2942 1.403 . S
C2945 C2946 1.392 . S
C2945 C2949 1.495 . S
C2946 C2945 1.392 . S
C2946 C2947 1.385 . S
C2946 C2948 1.478 . S
C2947 H2941 0.930 . S
C2947 C2943 1.400 . S
C2947 C2946 1.385 . S
C2948 C2946 1.478 . S
C2948 C2950 1.381 . S
C2948 C2954 1.383 . S
C2949 C2945 1.495 . S
C2949 H2955 0.959 . S
C2949 H2956 0.961 . S
C2949 H2957 0.960 . S
C2950 C2948 1.381 . S
C2950 C2951 1.394 . S
C2950 H2958 0.930 . S
C2951 C2950 1.394 . S
C2951 C2952 1.383 . S
C2951 H2959 0.929 . S
C2952 C2951 1.383 . S
C2952 C2953 1.377 . S
C2953 H2937 0.930 . S
C2953 C2952 1.377 . S
C2953 C2954 1.379 . S
C2954 H2938 0.931 . S
C2954 C2948 1.383 . S
C2954 C2953 1.379 . S
H2955 C2949 0.959 . S
H2956 C2949 0.961 . S
H2957 C2949 0.960 . S
H2958 C2950 0.930 . S
H2959 C2951 0.929 . S
H2960 C2968 0.929 . S
H2961 C2970 0.930 . S
H2962 C2972 0.930 . S
H2963 C2975 0.929 . S
H2964 C2978 0.930 . S
H2965 C2980 0.960 . S
H2966 C2980 0.960 . S
H2967 C2980 0.960 . S
C2968 H2960 0.929 . S
C2968 C2969 1.377 . S
C2968 C2970 1.384 . S
C2969 C2968 1.377 . S
C2969 C2975 1.390 . S
C2970 H2961 0.930 . S
C2970 C2968 1.384 . S
C2970 C2971 1.372 . S
C2971 C2970 1.372 . S
C2971 C2972 1.400 . S
C2971 C2976 1.490 . S
C2972 H2962 0.930 . S
C2972 C2971 1.400 . S
C2972 C2975 1.386 . S
H2973 C2989 0.930 . S
H2974 C2990 0.931 . S
C2975 H2963 0.929 . S
C2975 C2969 1.390 . S
C2975 C2972 1.386 . S
C2976 C2971 1.490 . S
C2976 C2978 1.395 . S
C2976 C2979 1.403 . S
H2977 C2983 0.930 . S
C2978 H2964 0.930 . S
C2978 C2976 1.395 . S
C2978 C2981 1.403 . S
C2979 C2976 1.403 . S
C2979 C2980 1.524 . S
C2979 C2983 1.400 . S
C2980 H2965 0.960 . S
C2980 H2966 0.960 . S
C2980 H2967 0.960 . S
C2980 C2979 1.524 . S
C2981 C2978 1.403 . S
C2981 C2982 1.392 . S
C2981 C2985 1.495 . S
C2982 C2981 1.392 . S
C2982 C2983 1.385 . S
C2982 C2984 1.478 . S
C2983 H2977 0.930 . S
C2983 C2979 1.400 . S
C2983 C2982 1.385 . S
C2984 C2982 1.478 . S
C2984 C2986 1.381 . S
C2984 C2990 1.383 . S
C2985 C2981 1.495 . S
C2985 H2991 0.959 . S
C2985 H2992 0.961 . S
C2985 H2993 0.960 . S
C2986 C2984 1.381 . S
C2986 C2987 1.394 . S
C2986 H2994 0.930 . S
C2987 C2986 1.394 . S
C2987 C2988 1.383 . S
C2987 H2995 0.929 . S
C2988 C2987 1.383 . S
C2988 C2989 1.377 . S
C2989 H2973 0.930 . S
C2989 C2988 1.377 . S
C2989 C2990 1.379 . S
C2990 H2974 0.931 . S
C2990 C2984 1.383 . S
C2990 C2989 1.379 . S
H2991 C2985 0.959 . S
H2992 C2985 0.961 . S
H2993 C2985 0.960 . S
H2994 C2986 0.930 . S
H2995 C2987 0.929 . S
H2996 C3004 0.929 . S
H2997 C3006 0.930 . S
H2998 C3008 0.930 . S
H2999 C3011 0.929 . S
H3000 C3014 0.930 . S
H3001 C3016 0.960 . S
H3002 C3016 0.960 . S
H3003 C3016 0.960 . S
C3004 H2996 0.929 . S
C3004 C3005 1.377 . S
C3004 C3006 1.384 . S
C3005 C3004 1.377 . S
C3005 C3011 1.390 . S
C3006 H2997 0.930 . S
C3006 C3004 1.384 . S
C3006 C3007 1.372 . S
C3007 C3006 1.372 . S
C3007 C3008 1.400 . S
C3007 C3012 1.490 . S
C3008 H2998 0.930 . S
C3008 C3007 1.400 . S
C3008 C3011 1.386 . S
H3009 C3025 0.930 . S
H3010 C3026 0.931 . S
C3011 H2999 0.929 . S
C3011 C3005 1.390 . S
C3011 C3008 1.386 . S
C3012 C3007 1.490 . S
C3012 C3014 1.395 . S
C3012 C3015 1.403 . S
H3013 C3019 0.930 . S
C3014 H3000 0.930 . S
C3014 C3012 1.395 . S
C3014 C3017 1.403 . S
C3015 C3012 1.403 . S
C3015 C3016 1.524 . S
C3015 C3019 1.400 . S
C3016 H3001 0.960 . S
C3016 H3002 0.960 . S
C3016 H3003 0.960 . S
C3016 C3015 1.524 . S
C3017 C3014 1.403 . S
C3017 C3018 1.392 . S
C3017 C3021 1.495 . S
C3018 C3017 1.392 . S
C3018 C3019 1.385 . S
C3018 C3020 1.478 . S
C3019 H3013 0.930 . S
C3019 C3015 1.400 . S
C3019 C3018 1.385 . S
C3020 C3018 1.478 . S
C3020 C3022 1.381 . S
C3020 C3026 1.383 . S
C3021 C3017 1.495 . S
C3021 H3027 0.959 . S
C3021 H3028 0.961 . S
C3021 H3029 0.960 . S
C3022 C3020 1.381 . S
C3022 C3023 1.394 . S
C3022 H3030 0.930 . S
C3023 C3022 1.394 . S
C3023 C3024 1.383 . S
C3023 H3031 0.929 . S
C3024 C3023 1.383 . S
C3024 C3025 1.377 . S
C3025 H3009 0.930 . S
C3025 C3024 1.377 . S
C3025 C3026 1.379 . S
C3026 H3010 0.931 . S
C3026 C3020 1.383 . S
C3026 C3025 1.379 . S
H3027 C3021 0.959 . S
H3028 C3021 0.961 . S
H3029 C3021 0.960 . S
H3030 C3022 0.930 . S
H3031 C3023 0.929 . S
H3032 C3040 0.929 . S
H3033 C3042 0.930 . S
H3034 C3044 0.930 . S
H3035 C3047 0.929 . S
H3036 C3050 0.930 . S
H3037 C3052 0.960 . S
H3038 C3052 0.960 . S
H3039 C3052 0.960 . S
C3040 H3032 0.929 . S
C3040 C3041 1.377 . S
C3040 C3042 1.384 . S
C3041 C3040 1.377 . S
C3041 C3047 1.390 . S
C3042 H3033 0.930 . S
C3042 C3040 1.384 . S
C3042 C3043 1.372 . S
C3043 C3042 1.372 . S
C3043 C3044 1.400 . S
C3043 C3048 1.490 . S
C3044 H3034 0.930 . S
C3044 C3043 1.400 . S
C3044 C3047 1.386 . S
H3045 C3061 0.930 . S
H3046 C3062 0.931 . S
C3047 H3035 0.929 . S
C3047 C3041 1.390 . S
C3047 C3044 1.386 . S
C3048 C3043 1.490 . S
C3048 C3050 1.395 . S
C3048 C3051 1.403 . S
H3049 C3055 0.930 . S
C3050 H3036 0.930 . S
C3050 C3048 1.395 . S
C3050 C3053 1.403 . S
C3051 C3048 1.403 . S
C3051 C3052 1.524 . S
C3051 C3055 1.400 . S
C3052 H3037 0.960 . S
C3052 H3038 0.960 . S
C3052 H3039 0.960 . S
C3052 C3051 1.524 . S
C3053 C3050 1.403 . S
C3053 C3054 1.392 . S
C3053 C3057 1.495 . S
C3054 C3053 1.392 . S
C3054 C3055 1.385 . S
C3054 C3056 1.478 . S
C3055 H3049 0.930 . S
C3055 C3051 1.400 . S
C3055 C3054 1.385 . S
C3056 C3054 1.478 . S
C3056 C3058 1.381 . S
C3056 C3062 1.383 . S
C3057 C3053 1.495 . S
C3057 H3063 0.959 . S
C3057 H3064 0.961 . S
C3057 H3065 0.960 . S
C3058 C3056 1.381 . S
C3058 C3059 1.394 . S
C3058 H3066 0.930 . S
C3059 C3058 1.394 . S
C3059 C3060 1.383 . S
C3059 H3067 0.929 . S
C3060 C3059 1.383 . S
C3060 C3061 1.377 . S
C3061 H3045 0.930 . S
C3061 C3060 1.377 . S
C3061 C3062 1.379 . S
C3062 H3046 0.931 . S
C3062 C3056 1.383 . S
C3062 C3061 1.379 . S
H3063 C3057 0.959 . S
H3064 C3057 0.961 . S
H3065 C3057 0.960 . S
H3066 C3058 0.930 . S
H3067 C3059 0.929 . S
H3068 C3076 0.929 . S
H3069 C3078 0.930 . S
H3070 C3080 0.930 . S
H3071 C3083 0.929 . S
H3072 C3086 0.930 . S
H3073 C3088 0.960 . S
H3074 C3088 0.960 1_554 S
H3075 C3088 0.960 . S
C3076 H3068 0.929 . S
C3076 C3077 1.377 . S
C3076 C3078 1.384 . S
C3077 C3076 1.377 . S
C3077 C3083 1.390 . S
C3078 H3069 0.930 . S
C3078 C3076 1.384 . S
C3078 C3079 1.372 . S
C3079 C3078 1.372 . S
C3079 C3080 1.400 . S
C3079 C3084 1.490 . S
C3080 H3070 0.930 . S
C3080 C3079 1.400 . S
C3080 C3083 1.386 . S
H3081 C3097 0.930 . S
H3082 C3098 0.931 . S
C3083 H3071 0.929 . S
C3083 C3077 1.390 . S
C3083 C3080 1.386 . S
C3084 C3079 1.490 . S
C3084 C3086 1.395 . S
C3084 C3087 1.403 . S
H3085 C3091 0.930 . S
C3086 H3072 0.930 . S
C3086 C3084 1.395 . S
C3086 C3089 1.403 . S
C3087 C3084 1.403 . S
C3087 C3088 1.524 1_554 S
C3087 C3091 1.400 . S
C3088 H3073 0.960 . S
C3088 H3074 0.960 1_556 S
C3088 H3075 0.960 . S
C3088 C3087 1.524 1_556 S
C3089 C3086 1.403 . S
C3089 C3090 1.392 . S
C3089 C3093 1.495 . S
C3090 C3089 1.392 . S
C3090 C3091 1.385 . S
C3090 C3092 1.478 . S
C3091 H3085 0.930 . S
C3091 C3087 1.400 . S
C3091 C3090 1.385 . S
C3092 C3090 1.478 . S
C3092 C3094 1.381 1_565 S
C3092 C3098 1.383 . S
C3093 C3089 1.495 . S
C3093 H3099 0.959 . S
C3093 H3100 0.961 . S
C3093 H3101 0.960 . S
C3094 C3092 1.381 1_545 S
C3094 C3095 1.394 . S
C3094 H3102 0.930 . S
C3095 C3094 1.394 . S
C3095 C3096 1.383 . S
C3095 H3103 0.929 . S
C3096 C3095 1.383 . S
C3096 C3097 1.377 1_545 S
C3097 H3081 0.930 . S
C3097 C3096 1.377 1_565 S
C3097 C3098 1.379 . S
C3098 H3082 0.931 . S
C3098 C3092 1.383 . S
C3098 C3097 1.379 . S
H3099 C3093 0.959 . S
H3100 C3093 0.961 . S
H3101 C3093 0.960 . S
H3102 C3094 0.930 . S
H3103 C3095 0.929 . S
H3104 C3112 0.929 . S
H3105 C3114 0.930 . S
H3106 C3116 0.930 . S
H3107 C3119 0.929 . S
H3108 C3122 0.930 . S
H3109 C3124 0.960 . S
H3110 C3124 0.960 . S
H3111 C3124 0.960 . S
C3112 H3104 0.929 . S
C3112 C3113 1.377 . S
C3112 C3114 1.384 . S
C3113 C3112 1.377 . S
C3113 C3119 1.390 . S
C3114 H3105 0.930 . S
C3114 C3112 1.384 . S
C3114 C3115 1.372 . S
C3115 C3114 1.372 . S
C3115 C3116 1.400 . S
C3115 C3120 1.490 . S
C3116 H3106 0.930 . S
C3116 C3115 1.400 . S
C3116 C3119 1.386 . S
H3117 C3133 0.930 . S
H3118 C3134 0.931 . S
C3119 H3107 0.929 . S
C3119 C3113 1.390 . S
C3119 C3116 1.386 . S
C3120 C3115 1.490 . S
C3120 C3122 1.395 . S
C3120 C3123 1.403 . S
H3121 C3127 0.930 . S
C3122 H3108 0.930 . S
C3122 C3120 1.395 . S
C3122 C3125 1.403 . S
C3123 C3120 1.403 . S
C3123 C3124 1.524 . S
C3123 C3127 1.400 . S
C3124 H3109 0.960 . S
C3124 H3110 0.960 . S
C3124 H3111 0.960 . S
C3124 C3123 1.524 . S
C3125 C3122 1.403 . S
C3125 C3126 1.392 . S
C3125 C3129 1.495 . S
C3126 C3125 1.392 . S
C3126 C3127 1.385 . S
C3126 C3128 1.478 . S
C3127 H3121 0.930 . S
C3127 C3123 1.400 . S
C3127 C3126 1.385 . S
C3128 C3126 1.478 . S
C3128 C3130 1.381 . S
C3128 C3134 1.383 . S
C3129 C3125 1.495 . S
C3129 H3135 0.959 . S
C3129 H3136 0.961 . S
C3129 H3137 0.960 . S
C3130 C3128 1.381 . S
C3130 C3131 1.394 . S
C3130 H3138 0.930 . S
C3131 C3130 1.394 . S
C3131 C3132 1.383 . S
C3131 H3139 0.929 . S
C3132 C3131 1.383 . S
C3132 C3133 1.377 . S
C3133 H3117 0.930 . S
C3133 C3132 1.377 . S
C3133 C3134 1.379 . S
C3134 H3118 0.931 . S
C3134 C3128 1.383 . S
C3134 C3133 1.379 . S
H3135 C3129 0.959 . S
H3136 C3129 0.961 . S
H3137 C3129 0.960 . S
H3138 C3130 0.930 . S
H3139 C3131 0.929 . S
H3140 C3148 0.929 . S
H3141 C3150 0.930 . S
H3142 C3152 0.930 . S
H3143 C3155 0.929 . S
H3144 C3158 0.930 . S
H3145 C3160 0.960 . S
H3146 C3160 0.960 . S
H3147 C3160 0.960 . S
C3148 H3140 0.929 . S
C3148 C3149 1.377 . S
C3148 C3150 1.384 . S
C3149 C3148 1.377 . S
C3149 C3155 1.390 . S
C3150 H3141 0.930 . S
C3150 C3148 1.384 . S
C3150 C3151 1.372 . S
C3151 C3150 1.372 . S
C3151 C3152 1.400 . S
C3151 C3156 1.490 . S
C3152 H3142 0.930 . S
C3152 C3151 1.400 . S
C3152 C3155 1.386 . S
H3153 C3169 0.930 . S
H3154 C3170 0.931 . S
C3155 H3143 0.929 . S
C3155 C3149 1.390 . S
C3155 C3152 1.386 . S
C3156 C3151 1.490 . S
C3156 C3158 1.395 . S
C3156 C3159 1.403 . S
H3157 C3163 0.930 . S
C3158 H3144 0.930 . S
C3158 C3156 1.395 . S
C3158 C3161 1.403 . S
C3159 C3156 1.403 . S
C3159 C3160 1.524 . S
C3159 C3163 1.400 . S
C3160 H3145 0.960 . S
C3160 H3146 0.960 . S
C3160 H3147 0.960 . S
C3160 C3159 1.524 . S
C3161 C3158 1.403 . S
C3161 C3162 1.392 . S
C3161 C3165 1.495 . S
C3162 C3161 1.392 . S
C3162 C3163 1.385 . S
C3162 C3164 1.478 . S
C3163 H3157 0.930 . S
C3163 C3159 1.400 . S
C3163 C3162 1.385 . S
C3164 C3162 1.478 . S
C3164 C3166 1.381 . S
C3164 C3170 1.383 . S
C3165 C3161 1.495 . S
C3165 H3171 0.959 . S
C3165 H3172 0.961 . S
C3165 H3173 0.960 . S
C3166 C3164 1.381 . S
C3166 C3167 1.394 . S
C3166 H3174 0.930 . S
C3167 C3166 1.394 . S
C3167 C3168 1.383 . S
C3167 H3175 0.929 . S
C3168 C3167 1.383 . S
C3168 C3169 1.377 . S
C3169 H3153 0.930 . S
C3169 C3168 1.377 . S
C3169 C3170 1.379 . S
C3170 H3154 0.931 . S
C3170 C3164 1.383 . S
C3170 C3169 1.379 . S
H3171 C3165 0.959 . S
H3172 C3165 0.961 . S
H3173 C3165 0.960 . S
H3174 C3166 0.930 . S
H3175 C3167 0.929 . S
H3176 C3184 0.929 . S
H3177 C3186 0.930 . S
H3178 C3188 0.930 . S
H3179 C3191 0.929 . S
H3180 C3194 0.930 . S
H3181 C3196 0.960 . S
H3182 C3196 0.960 . S
H3183 C3196 0.960 . S
C3184 H3176 0.929 . S
C3184 C3185 1.377 . S
C3184 C3186 1.384 . S
C3185 C3184 1.377 . S
C3185 C3191 1.390 . S
C3186 H3177 0.930 . S
C3186 C3184 1.384 . S
C3186 C3187 1.372 . S
C3187 C3186 1.372 . S
C3187 C3188 1.400 . S
C3187 C3192 1.490 . S
C3188 H3178 0.930 . S
C3188 C3187 1.400 . S
C3188 C3191 1.386 . S
H3189 C3205 0.930 . S
H3190 C3206 0.931 . S
C3191 H3179 0.929 . S
C3191 C3185 1.390 . S
C3191 C3188 1.386 . S
C3192 C3187 1.490 . S
C3192 C3194 1.395 . S
C3192 C3195 1.403 . S
H3193 C3199 0.930 . S
C3194 H3180 0.930 . S
C3194 C3192 1.395 . S
C3194 C3197 1.403 . S
C3195 C3192 1.403 . S
C3195 C3196 1.524 . S
C3195 C3199 1.400 . S
C3196 H3181 0.960 . S
C3196 H3182 0.960 . S
C3196 H3183 0.960 . S
C3196 C3195 1.524 . S
C3197 C3194 1.403 . S
C3197 C3198 1.392 . S
C3197 C3201 1.495 . S
C3198 C3197 1.392 . S
C3198 C3199 1.385 . S
C3198 C3200 1.478 . S
C3199 H3193 0.930 . S
C3199 C3195 1.400 . S
C3199 C3198 1.385 . S
C3200 C3198 1.478 . S
C3200 C3202 1.381 . S
C3200 C3206 1.383 . S
C3201 C3197 1.495 . S
C3201 H3207 0.959 . S
C3201 H3208 0.961 . S
C3201 H3209 0.960 . S
C3202 C3200 1.381 . S
C3202 C3203 1.394 . S
C3202 H3210 0.930 . S
C3203 C3202 1.394 . S
C3203 C3204 1.383 . S
C3203 H3211 0.929 . S
C3204 C3203 1.383 . S
C3204 C3205 1.377 . S
C3205 H3189 0.930 . S
C3205 C3204 1.377 . S
C3205 C3206 1.379 . S
C3206 H3190 0.931 . S
C3206 C3200 1.383 . S
C3206 C3205 1.379 . S
H3207 C3201 0.959 . S
H3208 C3201 0.961 . S
H3209 C3201 0.960 . S
H3210 C3202 0.930 . S
H3211 C3203 0.929 . S
H3212 C3220 0.929 . S
H3213 C3222 0.930 . S
H3214 C3224 0.930 . S
H3215 C3227 0.929 . S
H3216 C3230 0.930 . S
H3217 C3232 0.960 . S
H3218 C3232 0.960 . S
H3219 C3232 0.960 . S
C3220 H3212 0.929 . S
C3220 C3221 1.377 1_565 S
C3220 C3222 1.384 . S
C3221 C3220 1.377 1_545 S
C3221 C3227 1.390 . S
C3222 H3213 0.930 . S
C3222 C3220 1.384 . S
C3222 C3223 1.372 . S
C3223 C3222 1.372 . S
C3223 C3224 1.400 . S
C3223 C3228 1.490 . S
C3224 H3214 0.930 . S
C3224 C3223 1.400 . S
C3224 C3227 1.386 1_565 S
H3225 C3241 0.930 . S
H3226 C3242 0.931 . S
C3227 H3215 0.929 . S
C3227 C3221 1.390 . S
C3227 C3224 1.386 1_545 S
C3228 C3223 1.490 . S
C3228 C3230 1.395 . S
C3228 C3231 1.403 . S
H3229 C3235 0.930 . S
C3230 H3216 0.930 . S
C3230 C3228 1.395 . S
C3230 C3233 1.403 . S
C3231 C3228 1.403 . S
C3231 C3232 1.524 . S
C3231 C3235 1.400 . S
C3232 H3217 0.960 . S
C3232 H3218 0.960 . S
C3232 H3219 0.960 . S
C3232 C3231 1.524 . S
C3233 C3230 1.403 . S
C3233 C3234 1.392 . S
C3233 C3237 1.495 . S
C3234 C3233 1.392 . S
C3234 C3235 1.385 . S
C3234 C3236 1.478 . S
C3235 H3229 0.930 . S
C3235 C3231 1.400 . S
C3235 C3234 1.385 . S
C3236 C3234 1.478 . S
C3236 C3238 1.381 . S
C3236 C3242 1.383 . S
C3237 C3233 1.495 . S
C3237 H3243 0.959 . S
C3237 H3244 0.961 . S
C3237 H3245 0.960 . S
C3238 C3236 1.381 . S
C3238 C3239 1.394 . S
C3238 H3246 0.930 . S
C3239 C3238 1.394 . S
C3239 C3240 1.383 . S
C3239 H3247 0.929 . S
C3240 C3239 1.383 . S
C3240 C3241 1.377 . S
C3241 H3225 0.930 . S
C3241 C3240 1.377 . S
C3241 C3242 1.379 . S
C3242 H3226 0.931 . S
C3242 C3236 1.383 . S
C3242 C3241 1.379 . S
H3243 C3237 0.959 . S
H3244 C3237 0.961 . S
H3245 C3237 0.960 . S
H3246 C3238 0.930 . S
H3247 C3239 0.929 . S
H3248 C3256 0.929 . S
H3249 C3258 0.930 . S
H3250 C3260 0.930 . S
H3251 C3263 0.929 . S
H3252 C3266 0.930 . S
H3253 C3268 0.960 . S
H3254 C3268 0.960 . S
H3255 C3268 0.960 . S
C3256 H3248 0.929 . S
C3256 C3257 1.377 . S
C3256 C3258 1.384 . S
C3257 C3256 1.377 . S
C3257 C3263 1.390 . S
C3258 H3249 0.930 . S
C3258 C3256 1.384 . S
C3258 C3259 1.372 . S
C3259 C3258 1.372 . S
C3259 C3260 1.400 . S
C3259 C3264 1.490 . S
C3260 H3250 0.930 . S
C3260 C3259 1.400 . S
C3260 C3263 1.386 . S
H3261 C3277 0.930 . S
H3262 C3278 0.931 . S
C3263 H3251 0.929 . S
C3263 C3257 1.390 . S
C3263 C3260 1.386 . S
C3264 C3259 1.490 . S
C3264 C3266 1.395 . S
C3264 C3267 1.403 . S
H3265 C3271 0.930 . S
C3266 H3252 0.930 . S
C3266 C3264 1.395 . S
C3266 C3269 1.403 . S
C3267 C3264 1.403 . S
C3267 C3268 1.524 . S
C3267 C3271 1.400 . S
C3268 H3253 0.960 . S
C3268 H3254 0.960 . S
C3268 H3255 0.960 . S
C3268 C3267 1.524 . S
C3269 C3266 1.403 . S
C3269 C3270 1.392 . S
C3269 C3273 1.495 . S
C3270 C3269 1.392 . S
C3270 C3271 1.385 . S
C3270 C3272 1.478 . S
C3271 H3265 0.930 . S
C3271 C3267 1.400 . S
C3271 C3270 1.385 . S
C3272 C3270 1.478 . S
C3272 C3274 1.381 . S
C3272 C3278 1.383 . S
C3273 C3269 1.495 . S
C3273 H3279 0.959 . S
C3273 H3280 0.961 . S
C3273 H3281 0.960 . S
C3274 C3272 1.381 . S
C3274 C3275 1.394 . S
C3274 H3282 0.930 . S
C3275 C3274 1.394 . S
C3275 C3276 1.383 . S
C3275 H3283 0.929 . S
C3276 C3275 1.383 . S
C3276 C3277 1.377 . S
C3277 H3261 0.930 . S
C3277 C3276 1.377 . S
C3277 C3278 1.379 . S
C3278 H3262 0.931 . S
C3278 C3272 1.383 . S
C3278 C3277 1.379 . S
H3279 C3273 0.959 . S
H3280 C3273 0.961 . S
H3281 C3273 0.960 . S
H3282 C3274 0.930 . S
H3283 C3275 0.929 . S
H3284 C3292 0.929 . S
H3285 C3294 0.930 . S
H3286 C3296 0.930 . S
H3287 C3299 0.929 . S
H3288 C3302 0.930 . S
H3289 C3304 0.960 . S
H3290 C3304 0.960 . S
H3291 C3304 0.960 . S
C3292 H3284 0.929 . S
C3292 C3293 1.377 . S
C3292 C3294 1.384 . S
C3293 C3292 1.377 . S
C3293 C3299 1.390 . S
C3294 H3285 0.930 . S
C3294 C3292 1.384 . S
C3294 C3295 1.372 . S
C3295 C3294 1.372 . S
C3295 C3296 1.400 . S
C3295 C3300 1.490 . S
C3296 H3286 0.930 . S
C3296 C3295 1.400 . S
C3296 C3299 1.386 . S
H3297 C3313 0.930 . S
H3298 C3314 0.931 . S
C3299 H3287 0.929 . S
C3299 C3293 1.390 . S
C3299 C3296 1.386 . S
C3300 C3295 1.490 . S
C3300 C3302 1.395 . S
C3300 C3303 1.403 . S
H3301 C3307 0.930 . S
C3302 H3288 0.930 . S
C3302 C3300 1.395 . S
C3302 C3305 1.403 . S
C3303 C3300 1.403 . S
C3303 C3304 1.524 . S
C3303 C3307 1.400 . S
C3304 H3289 0.960 . S
C3304 H3290 0.960 . S
C3304 H3291 0.960 . S
C3304 C3303 1.524 . S
C3305 C3302 1.403 . S
C3305 C3306 1.392 . S
C3305 C3309 1.495 . S
C3306 C3305 1.392 . S
C3306 C3307 1.385 . S
C3306 C3308 1.478 . S
C3307 H3301 0.930 . S
C3307 C3303 1.400 . S
C3307 C3306 1.385 . S
C3308 C3306 1.478 . S
C3308 C3310 1.381 . S
C3308 C3314 1.383 . S
C3309 C3305 1.495 . S
C3309 H3315 0.959 . S
C3309 H3316 0.961 . S
C3309 H3317 0.960 . S
C3310 C3308 1.381 . S
C3310 C3311 1.394 . S
C3310 H3318 0.930 . S
C3311 C3310 1.394 . S
C3311 C3312 1.383 . S
C3311 H3319 0.929 . S
C3312 C3311 1.383 . S
C3312 C3313 1.377 . S
C3313 H3297 0.930 . S
C3313 C3312 1.377 . S
C3313 C3314 1.379 . S
C3314 H3298 0.931 . S
C3314 C3308 1.383 . S
C3314 C3313 1.379 . S
H3315 C3309 0.959 . S
H3316 C3309 0.961 . S
H3317 C3309 0.960 . S
H3318 C3310 0.930 . S
H3319 C3311 0.929 . S
H3320 C3328 0.929 . S
H3321 C3330 0.930 . S
H3322 C3332 0.930 . S
H3323 C3335 0.929 . S
H3324 C3338 0.930 . S
H3325 C3340 0.960 . S
H3326 C3340 0.960 . S
H3327 C3340 0.960 . S
C3328 H3320 0.929 . S
C3328 C3329 1.377 . S
C3328 C3330 1.384 . S
C3329 C3328 1.377 . S
C3329 C3335 1.390 . S
C3330 H3321 0.930 . S
C3330 C3328 1.384 . S
C3330 C3331 1.372 . S
C3331 C3330 1.372 . S
C3331 C3332 1.400 . S
C3331 C3336 1.490 . S
C3332 H3322 0.930 . S
C3332 C3331 1.400 . S
C3332 C3335 1.386 . S
H3333 C3349 0.930 . S
H3334 C3350 0.931 . S
C3335 H3323 0.929 . S
C3335 C3329 1.390 . S
C3335 C3332 1.386 . S
C3336 C3331 1.490 . S
C3336 C3338 1.395 1_455 S
C3336 C3339 1.403 . S
H3337 C3343 0.930 . S
C3338 H3324 0.930 . S
C3338 C3336 1.395 1_655 S
C3338 C3341 1.403 . S
C3339 C3336 1.403 . S
C3339 C3340 1.524 . S
C3339 C3343 1.400 . S
C3340 H3325 0.960 . S
C3340 H3326 0.960 . S
C3340 H3327 0.960 . S
C3340 C3339 1.524 . S
C3341 C3338 1.403 . S
C3341 C3342 1.392 1_655 S
C3341 C3345 1.495 . S
C3342 C3341 1.392 1_455 S
C3342 C3343 1.385 . S
C3342 C3344 1.478 . S
C3343 H3337 0.930 . S
C3343 C3339 1.400 . S
C3343 C3342 1.385 . S
C3344 C3342 1.478 . S
C3344 C3346 1.381 . S
C3344 C3350 1.383 . S
C3345 C3341 1.495 . S
C3345 H3351 0.959 . S
C3345 H3352 0.961 . S
C3345 H3353 0.960 . S
C3346 C3344 1.381 . S
C3346 C3347 1.394 . S
C3346 H3354 0.930 . S
C3347 C3346 1.394 . S
C3347 C3348 1.383 . S
C3347 H3355 0.929 . S
C3348 C3347 1.383 . S
C3348 C3349 1.377 . S
C3349 H3333 0.930 . S
C3349 C3348 1.377 . S
C3349 C3350 1.379 . S
C3350 H3334 0.931 . S
C3350 C3344 1.383 . S
C3350 C3349 1.379 . S
H3351 C3345 0.959 . S
H3352 C3345 0.961 . S
H3353 C3345 0.960 . S
H3354 C3346 0.930 . S
H3355 C3347 0.929 . S
H3356 C3364 0.929 . S
H3357 C3366 0.930 . S
H3358 C3368 0.930 . S
H3359 C3371 0.929 . S
H3360 C3374 0.930 . S
H3361 C3376 0.960 . S
H3362 C3376 0.960 . S
H3363 C3376 0.960 . S
C3364 H3356 0.929 . S
C3364 C3365 1.377 . S
C3364 C3366 1.384 . S
C3365 C3364 1.377 . S
C3365 C3371 1.390 . S
C3366 H3357 0.930 . S
C3366 C3364 1.384 . S
C3366 C3367 1.372 . S
C3367 C3366 1.372 . S
C3367 C3368 1.400 . S
C3367 C3372 1.490 . S
C3368 H3358 0.930 . S
C3368 C3367 1.400 . S
C3368 C3371 1.386 . S
H3369 C3385 0.930 . S
H3370 C3386 0.931 . S
C3371 H3359 0.929 . S
C3371 C3365 1.390 . S
C3371 C3368 1.386 . S
C3372 C3367 1.490 . S
C3372 C3374 1.395 . S
C3372 C3375 1.403 . S
H3373 C3379 0.930 . S
C3374 H3360 0.930 . S
C3374 C3372 1.395 . S
C3374 C3377 1.403 . S
C3375 C3372 1.403 . S
C3375 C3376 1.524 . S
C3375 C3379 1.400 . S
C3376 H3361 0.960 . S
C3376 H3362 0.960 . S
C3376 H3363 0.960 . S
C3376 C3375 1.524 . S
C3377 C3374 1.403 . S
C3377 C3378 1.392 . S
C3377 C3381 1.495 . S
C3378 C3377 1.392 . S
C3378 C3379 1.385 . S
C3378 C3380 1.478 . S
C3379 H3373 0.930 . S
C3379 C3375 1.400 . S
C3379 C3378 1.385 . S
C3380 C3378 1.478 . S
C3380 C3382 1.381 . S
C3380 C3386 1.383 . S
C3381 C3377 1.495 . S
C3381 H3387 0.959 . S
C3381 H3388 0.961 . S
C3381 H3389 0.960 . S
C3382 C3380 1.381 . S
C3382 C3383 1.394 . S
C3382 H3390 0.930 . S
C3383 C3382 1.394 . S
C3383 C3384 1.383 . S
C3383 H3391 0.929 . S
C3384 C3383 1.383 . S
C3384 C3385 1.377 . S
C3385 H3369 0.930 . S
C3385 C3384 1.377 . S
C3385 C3386 1.379 . S
C3386 H3370 0.931 . S
C3386 C3380 1.383 . S
C3386 C3385 1.379 . S
H3387 C3381 0.959 . S
H3388 C3381 0.961 . S
H3389 C3381 0.960 . S
H3390 C3382 0.930 . S
H3391 C3383 0.929 . S
H3392 C3400 0.929 . S
H3393 C3402 0.930 . S
H3394 C3404 0.930 . S
H3395 C3407 0.929 . S
H3396 C3410 0.930 . S
H3397 C3412 0.960 . S
H3398 C3412 0.960 . S
H3399 C3412 0.960 . S
C3400 H3392 0.929 . S
C3400 C3401 1.377 . S
C3400 C3402 1.384 . S
C3401 C3400 1.377 . S
C3401 C3407 1.390 . S
C3402 H3393 0.930 . S
C3402 C3400 1.384 . S
C3402 C3403 1.372 . S
C3403 C3402 1.372 . S
C3403 C3404 1.400 . S
C3403 C3408 1.490 . S
C3404 H3394 0.930 . S
C3404 C3403 1.400 . S
C3404 C3407 1.386 . S
H3405 C3421 0.930 . S
H3406 C3422 0.931 . S
C3407 H3395 0.929 . S
C3407 C3401 1.390 . S
C3407 C3404 1.386 . S
C3408 C3403 1.490 . S
C3408 C3410 1.395 . S
C3408 C3411 1.403 . S
H3409 C3415 0.930 . S
C3410 H3396 0.930 . S
C3410 C3408 1.395 . S
C3410 C3413 1.403 . S
C3411 C3408 1.403 . S
C3411 C3412 1.524 . S
C3411 C3415 1.400 . S
C3412 H3397 0.960 . S
C3412 H3398 0.960 . S
C3412 H3399 0.960 . S
C3412 C3411 1.524 . S
C3413 C3410 1.403 . S
C3413 C3414 1.392 . S
C3413 C3417 1.438 1_556 S
C3414 C3413 1.392 . S
C3414 C3415 1.385 . S
C3414 C3416 1.478 . S
C3415 H3409 0.930 . S
C3415 C3411 1.400 . S
C3415 C3414 1.385 . S
C3416 C3414 1.478 . S
C3416 C3418 1.381 . S
C3416 C3422 1.383 . S
C3417 C3413 1.438 1_554 S
C3417 H3423 0.969 . S
C3417 H3424 0.990 . S
C3417 H3425 0.983 . S
C3418 C3416 1.381 . S
C3418 C3419 1.394 1_556 S
C3418 H3426 0.930 . S
C3419 C3418 1.394 1_554 S
C3419 C3420 1.383 . S
C3419 H3427 0.929 . S
C3420 C3419 1.383 . S
C3420 C3421 1.376 1_554 S
C3421 H3405 0.930 . S
C3421 C3420 1.376 1_556 S
C3421 C3422 1.379 . S
C3422 H3406 0.931 . S
C3422 C3416 1.383 . S
C3422 C3421 1.379 . S
H3423 C3417 0.969 . S
H3424 C3417 0.990 . S
H3425 C3417 0.983 . S
H3426 C3418 0.930 . S
H3427 C3419 0.929 . S
H3428 C3436 0.929 . S
H3429 C3438 0.930 . S
H3430 C3440 0.930 . S
H3431 C3443 0.929 . S
H3432 C3446 0.930 . S
H3433 C3448 0.960 . S
H3434 C3448 0.960 . S
H3435 C3448 0.960 . S
C3436 H3428 0.929 . S
C3436 C3437 1.377 . S
C3436 C3438 1.384 . S
C3437 C3436 1.377 . S
C3437 C3443 1.390 . S
C3438 H3429 0.930 . S
C3438 C3436 1.384 . S
C3438 C3439 1.372 . S
C3439 C3438 1.372 . S
C3439 C3440 1.400 . S
C3439 C3444 1.490 . S
C3440 H3430 0.930 . S
C3440 C3439 1.400 . S
C3440 C3443 1.386 . S
H3441 C3457 0.930 . S
H3442 C3458 0.931 . S
C3443 H3431 0.929 . S
C3443 C3437 1.390 . S
C3443 C3440 1.386 . S
C3444 C3439 1.490 . S
C3444 C3446 1.395 . S
C3444 C3447 1.403 . S
H3445 C3451 0.930 . S
C3446 H3432 0.930 . S
C3446 C3444 1.395 . S
C3446 C3449 1.403 . S
C3447 C3444 1.403 . S
C3447 C3448 1.524 . S
C3447 C3451 1.400 . S
C3448 H3433 0.960 . S
C3448 H3434 0.960 . S
C3448 H3435 0.960 . S
C3448 C3447 1.524 . S
C3449 C3446 1.403 . S
C3449 C3450 1.392 . S
C3449 C3453 1.495 . S
C3450 C3449 1.392 . S
C3450 C3451 1.385 . S
C3450 C3452 1.478 . S
C3451 H3445 0.930 . S
C3451 C3447 1.400 . S
C3451 C3450 1.385 . S
C3452 C3450 1.478 . S
C3452 C3454 1.381 . S
C3452 C3458 1.383 . S
C3453 C3449 1.495 . S
C3453 H3459 0.959 . S
C3453 H3460 0.961 . S
C3453 H3461 0.960 . S
C3454 C3452 1.381 . S
C3454 C3455 1.394 . S
C3454 H3462 0.930 . S
C3455 C3454 1.394 . S
C3455 C3456 1.383 . S
C3455 H3463 0.929 . S
C3456 C3455 1.383 . S
C3456 C3457 1.377 . S
C3457 H3441 0.930 . S
C3457 C3456 1.377 . S
C3457 C3458 1.379 . S
C3458 H3442 0.931 . S
C3458 C3452 1.383 . S
C3458 C3457 1.379 . S
H3459 C3453 0.959 . S
H3460 C3453 0.961 . S
H3461 C3453 0.960 . S
H3462 C3454 0.930 . S
H3463 C3455 0.929 . S
H3464 C3472 0.931 1_655 S
H3465 C3474 0.930 1_655 S
H3466 C3476 0.930 . S
H3467 C3479 0.929 . S
H3468 C3482 0.942 . S
H3469 C3484 0.960 . S
H3470 C3484 0.960 . S
H3471 C3484 0.960 . S
C3472 H3464 0.931 1_455 S
C3472 C3473 1.377 . S
C3472 C3474 1.384 . S
C3473 C3472 1.377 . S
C3473 C3479 1.390 . S
C3474 H3465 0.930 1_455 S
C3474 C3472 1.384 . S
C3474 C3475 1.372 . S
C3475 C3474 1.372 . S
C3475 C3476 1.400 . S
C3475 C3480 1.490 . S
C3476 H3466 0.930 . S
C3476 C3475 1.400 . S
C3476 C3479 1.386 . S
H3477 C3493 0.930 . S
H3478 C3494 0.931 . S
C3479 H3467 0.929 . S
C3479 C3473 1.390 . S
C3479 C3476 1.386 . S
C3480 C3475 1.490 . S
C3480 C3482 1.375 1_455 S
C3480 C3483 1.403 . S
H3481 C3487 0.930 . S
C3482 H3468 0.942 . S
C3482 C3480 1.375 1_655 S
C3482 C3485 1.411 . S
C3483 C3480 1.403 . S
C3483 C3484 1.524 . S
C3483 C3487 1.400 . S
C3484 H3469 0.960 . S
C3484 H3470 0.960 . S
C3484 H3471 0.960 . S
C3484 C3483 1.524 . S
C3485 C3482 1.411 . S
C3485 C3486 1.392 1_655 S
C3485 C3489 1.495 . S
C3486 C3485 1.392 1_455 S
C3486 C3487 1.385 . S
C3486 C3488 1.478 . S
C3487 H3481 0.930 . S
C3487 C3483 1.400 . S
C3487 C3486 1.385 . S
C3488 C3486 1.478 . S
C3488 C3490 1.381 . S
C3488 C3494 1.383 . S
C3489 C3485 1.495 . S
C3489 H3495 0.959 . S
C3489 H3496 0.961 . S
C3489 H3497 0.960 . S
C3490 C3488 1.381 . S
C3490 C3491 1.394 . S
C3490 H3498 0.930 1_455 S
C3491 C3490 1.394 . S
C3491 C3492 1.383 . S
C3491 H3499 0.929 1_455 S
C3492 C3491 1.383 . S
C3492 C3493 1.377 . S
C3493 H3477 0.930 . S
C3493 C3492 1.377 . S
C3493 C3494 1.379 . S
C3494 H3478 0.931 . S
C3494 C3488 1.383 . S
C3494 C3493 1.379 . S
H3495 C3489 0.959 . S
H3496 C3489 0.961 . S
H3497 C3489 0.960 . S
H3498 C3490 0.930 1_655 S
H3499 C3491 0.929 1_655 S
H3500 C3508 0.929 . S
H3501 C3510 0.930 . S
H3502 C3512 0.930 . S
H3503 C3515 0.929 . S
H3504 C3518 0.930 . S
H3505 C3520 0.960 . S
H3506 C3520 0.960 . S
H3507 C3520 0.960 . S
C3508 H3500 0.929 . S
C3508 C3509 1.377 . S
C3508 C3510 1.384 . S
C3509 C3508 1.377 . S
C3509 C3515 1.390 . S
C3510 H3501 0.930 . S
C3510 C3508 1.384 . S
C3510 C3511 1.372 . S
C3511 C3510 1.372 . S
C3511 C3512 1.400 . S
C3511 C3516 1.490 . S
C3512 H3502 0.930 . S
C3512 C3511 1.400 . S
C3512 C3515 1.386 . S
H3513 C3529 0.930 . S
H3514 C3530 0.931 . S
C3515 H3503 0.929 . S
C3515 C3509 1.390 . S
C3515 C3512 1.386 . S
C3516 C3511 1.490 . S
C3516 C3518 1.395 . S
C3516 C3519 1.403 . S
H3517 C3523 0.930 . S
C3518 H3504 0.930 . S
C3518 C3516 1.395 . S
C3518 C3521 1.403 . S
C3519 C3516 1.403 . S
C3519 C3520 1.524 . S
C3519 C3523 1.400 . S
C3520 H3505 0.960 . S
C3520 H3506 0.960 . S
C3520 H3507 0.960 . S
C3520 C3519 1.524 . S
C3521 C3518 1.403 . S
C3521 C3522 1.392 . S
C3521 C3525 1.495 . S
C3522 C3521 1.392 . S
C3522 C3523 1.385 . S
C3522 C3524 1.478 . S
C3523 H3517 0.930 . S
C3523 C3519 1.400 . S
C3523 C3522 1.385 . S
C3524 C3522 1.478 . S
C3524 C3526 1.381 . S
C3524 C3530 1.383 . S
C3525 C3521 1.495 . S
C3525 H3531 0.959 . S
C3525 H3532 0.961 . S
C3525 H3533 0.960 . S
C3526 C3524 1.381 . S
C3526 C3527 1.394 . S
C3526 H3534 0.930 . S
C3527 C3526 1.394 . S
C3527 C3528 1.383 . S
C3527 H3535 0.929 . S
C3528 C3527 1.383 . S
C3528 C3529 1.377 . S
C3529 H3513 0.930 . S
C3529 C3528 1.377 . S
C3529 C3530 1.379 . S
C3530 H3514 0.931 . S
C3530 C3524 1.383 . S
C3530 C3529 1.379 . S
H3531 C3525 0.959 . S
H3532 C3525 0.961 . S
H3533 C3525 0.960 . S
H3534 C3526 0.930 . S
H3535 C3527 0.929 . S
H3536 C3544 0.929 . S
H3537 C3546 0.930 . S
H3538 C3548 0.930 . S
H3539 C3551 0.929 . S
H3540 C3554 0.930 . S
H3541 C3556 0.960 . S
H3542 C3556 0.960 . S
H3543 C3556 0.960 . S
C3544 H3536 0.929 . S
C3544 C3545 1.377 . S
C3544 C3546 1.384 . S
C3545 C3544 1.377 . S
C3545 C3551 1.390 . S
C3546 H3537 0.930 . S
C3546 C3544 1.384 . S
C3546 C3547 1.372 . S
C3547 C3546 1.372 . S
C3547 C3548 1.400 . S
C3547 C3552 1.490 . S
C3548 H3538 0.930 . S
C3548 C3547 1.400 . S
C3548 C3551 1.386 . S
H3549 C3565 0.930 . S
H3550 C3566 0.931 . S
C3551 H3539 0.929 . S
C3551 C3545 1.390 . S
C3551 C3548 1.386 . S
C3552 C3547 1.490 . S
C3552 C3554 1.395 . S
C3552 C3555 1.403 . S
H3553 C3559 0.930 . S
C3554 H3540 0.930 . S
C3554 C3552 1.395 . S
C3554 C3557 1.403 . S
C3555 C3552 1.403 . S
C3555 C3556 1.524 . S
C3555 C3559 1.400 . S
C3556 H3541 0.960 . S
C3556 H3542 0.960 . S
C3556 H3543 0.960 . S
C3556 C3555 1.524 . S
C3557 C3554 1.403 . S
C3557 C3558 1.392 . S
C3557 C3561 1.495 . S
C3558 C3557 1.392 . S
C3558 C3559 1.385 . S
C3558 C3560 1.478 . S
C3559 H3553 0.930 . S
C3559 C3555 1.400 . S
C3559 C3558 1.385 . S
C3560 C3558 1.478 . S
C3560 C3562 1.381 . S
C3560 C3566 1.383 . S
C3561 C3557 1.495 . S
C3561 H3567 0.959 . S
C3561 H3568 0.961 . S
C3561 H3569 0.960 . S
C3562 C3560 1.381 . S
C3562 C3563 1.394 . S
C3562 H3570 0.930 . S
C3563 C3562 1.394 . S
C3563 C3564 1.383 . S
C3563 H3571 0.929 . S
C3564 C3563 1.383 . S
C3564 C3565 1.377 . S
C3565 H3549 0.930 . S
C3565 C3564 1.377 . S
C3565 C3566 1.379 . S
C3566 H3550 0.931 . S
C3566 C3560 1.383 . S
C3566 C3565 1.379 . S
H3567 C3561 0.959 . S
H3568 C3561 0.961 . S
H3569 C3561 0.960 . S
H3570 C3562 0.930 . S
H3571 C3563 0.929 . S
H3572 C3580 0.929 . S
H3573 C3582 0.930 . S
H3574 C3584 0.930 . S
H3575 C3587 0.929 . S
H3576 C3590 0.930 . S
H3577 C3592 0.960 . S
H3578 C3592 0.960 . S
H3579 C3592 0.960 . S
C3580 H3572 0.929 . S
C3580 C3581 1.377 . S
C3580 C3582 1.384 . S
C3581 C3580 1.377 . S
C3581 C3587 1.390 . S
C3582 H3573 0.930 . S
C3582 C3580 1.384 . S
C3582 C3583 1.372 . S
C3583 C3582 1.372 . S
C3583 C3584 1.400 . S
C3583 C3588 1.490 . S
C3584 H3574 0.930 . S
C3584 C3583 1.400 . S
C3584 C3587 1.386 . S
H3585 C3601 0.930 . S
H3586 C3602 0.931 . S
C3587 H3575 0.929 . S
C3587 C3581 1.390 . S
C3587 C3584 1.386 . S
C3588 C3583 1.490 . S
C3588 C3590 1.395 . S
C3588 C3591 1.403 . S
H3589 C3595 0.930 . S
C3590 H3576 0.930 . S
C3590 C3588 1.395 . S
C3590 C3593 1.403 . S
C3591 C3588 1.403 . S
C3591 C3592 1.524 . S
C3591 C3595 1.400 . S
C3592 H3577 0.960 . S
C3592 H3578 0.960 . S
C3592 H3579 0.960 . S
C3592 C3591 1.524 . S
C3593 C3590 1.403 . S
C3593 C3594 1.392 . S
C3593 C3597 1.495 . S
C3594 C3593 1.392 . S
C3594 C3595 1.385 . S
C3594 C3596 1.478 . S
C3595 H3589 0.930 . S
C3595 C3591 1.400 . S
C3595 C3594 1.385 . S
C3596 C3594 1.478 . S
C3596 C3598 1.381 . S
C3596 C3602 1.383 . S
C3597 C3593 1.495 . S
C3597 H3603 0.959 . S
C3597 H3604 0.961 . S
C3597 H3605 0.960 . S
C3598 C3596 1.381 . S
C3598 C3599 1.394 . S
C3598 H3606 0.930 . S
C3599 C3598 1.394 . S
C3599 C3600 1.383 . S
C3599 H3607 0.929 . S
C3600 C3599 1.383 . S
C3600 C3601 1.377 . S
C3601 H3585 0.930 . S
C3601 C3600 1.377 . S
C3601 C3602 1.379 . S
C3602 H3586 0.931 . S
C3602 C3596 1.383 . S
C3602 C3601 1.379 . S
H3603 C3597 0.959 . S
H3604 C3597 0.961 . S
H3605 C3597 0.960 . S
H3606 C3598 0.930 . S
H3607 C3599 0.929 . S
H3608 C3616 0.929 . S
H3609 C3618 0.930 . S
H3610 C3620 0.930 . S
H3611 C3623 0.929 . S
H3612 C3626 0.930 . S
H3613 C3628 0.960 . S
H3614 C3628 0.960 . S
H3615 C3628 0.960 . S
C3616 H3608 0.929 . S
C3616 C3617 1.377 . S
C3616 C3618 1.384 . S
C3617 C3616 1.377 . S
C3617 C3623 1.390 . S
C3618 H3609 0.930 . S
C3618 C3616 1.384 . S
C3618 C3619 1.372 . S
C3619 C3618 1.372 . S
C3619 C3620 1.400 . S
C3619 C3624 1.490 . S
C3620 H3610 0.930 . S
C3620 C3619 1.400 . S
C3620 C3623 1.386 . S
H3621 C3637 0.930 . S
H3622 C3638 0.931 . S
C3623 H3611 0.929 . S
C3623 C3617 1.390 . S
C3623 C3620 1.386 . S
C3624 C3619 1.490 . S
C3624 C3626 1.395 . S
C3624 C3627 1.403 . S
H3625 C3631 0.930 . S
C3626 H3612 0.930 . S
C3626 C3624 1.395 . S
C3626 C3629 1.403 . S
C3627 C3624 1.403 . S
C3627 C3628 1.524 . S
C3627 C3631 1.400 . S
C3628 H3613 0.960 . S
C3628 H3614 0.960 . S
C3628 H3615 0.960 . S
C3628 C3627 1.524 . S
C3629 C3626 1.403 . S
C3629 C3630 1.392 . S
C3629 C3633 1.495 . S
C3630 C3629 1.392 . S
C3630 C3631 1.385 . S
C3630 C3632 1.478 . S
C3631 H3625 0.930 . S
C3631 C3627 1.400 . S
C3631 C3630 1.385 . S
C3632 C3630 1.478 . S
C3632 C3634 1.381 1_655 S
C3632 C3638 1.383 . S
C3633 C3629 1.495 . S
C3633 H3639 0.959 . S
C3633 H3640 0.961 . S
C3633 H3641 0.985 . S
C3634 C3632 1.381 1_455 S
C3634 C3635 1.394 . S
C3634 H3642 0.930 . S
C3635 C3634 1.394 . S
C3635 C3636 1.383 1_455 S
C3635 H3643 0.929 . S
C3636 C3635 1.383 1_655 S
C3636 C3637 1.377 . S
C3637 H3621 0.930 . S
C3637 C3636 1.377 . S
C3637 C3638 1.379 . S
C3638 H3622 0.931 . S
C3638 C3632 1.383 . S
C3638 C3637 1.379 . S
H3639 C3633 0.959 . S
H3640 C3633 0.961 . S
H3641 C3633 0.985 . S
H3642 C3634 0.930 . S
H3643 C3635 0.929 . S
H3644 C3652 0.929 . S
H3645 C3654 0.930 . S
H3646 C3656 0.930 . S
H3647 C3659 0.929 . S
H3648 C3662 0.930 . S
H3649 C3664 0.960 . S
H3650 C3664 0.960 . S
H3651 C3664 0.960 . S
C3652 H3644 0.929 . S
C3652 C3653 1.377 . S
C3652 C3654 1.384 . S
C3653 C3652 1.377 . S
C3653 C3659 1.390 . S
C3654 H3645 0.930 . S
C3654 C3652 1.384 . S
C3654 C3655 1.372 . S
C3655 C3654 1.372 . S
C3655 C3656 1.400 . S
C3655 C3660 1.490 . S
C3656 H3646 0.930 . S
C3656 C3655 1.400 . S
C3656 C3659 1.386 . S
H3657 C3673 0.930 . S
H3658 C3674 0.931 . S
C3659 H3647 0.929 . S
C3659 C3653 1.390 . S
C3659 C3656 1.386 . S
C3660 C3655 1.490 . S
C3660 C3662 1.395 . S
C3660 C3663 1.403 . S
H3661 C3667 0.930 . S
C3662 H3648 0.930 . S
C3662 C3660 1.395 . S
C3662 C3665 1.403 . S
C3663 C3660 1.403 . S
C3663 C3664 1.524 . S
C3663 C3667 1.400 . S
C3664 H3649 0.960 . S
C3664 H3650 0.960 . S
C3664 H3651 0.960 . S
C3664 C3663 1.524 . S
C3665 C3662 1.403 . S
C3665 C3666 1.392 . S
C3665 C3669 1.495 . S
C3666 C3665 1.392 . S
C3666 C3667 1.385 . S
C3666 C3668 1.478 . S
C3667 H3661 0.930 . S
C3667 C3663 1.400 . S
C3667 C3666 1.385 . S
C3668 C3666 1.478 . S
C3668 C3670 1.381 . S
C3668 C3674 1.383 . S
C3669 C3665 1.495 . S
C3669 H3675 0.959 . S
C3669 H3676 0.961 . S
C3669 H3677 0.960 . S
C3670 C3668 1.381 . S
C3670 C3671 1.394 . S
C3670 H3678 0.930 . S
C3671 C3670 1.394 . S
C3671 C3672 1.383 . S
C3671 H3679 0.929 . S
C3672 C3671 1.383 . S
C3672 C3673 1.377 . S
C3673 H3657 0.930 . S
C3673 C3672 1.377 . S
C3673 C3674 1.379 . S
C3674 H3658 0.931 . S
C3674 C3668 1.383 . S
C3674 C3673 1.379 . S
H3675 C3669 0.959 . S
H3676 C3669 0.961 . S
H3677 C3669 0.960 . S
H3678 C3670 0.930 . S
H3679 C3671 0.929 . S
H3680 C3688 0.929 . S
H3681 C3690 0.930 . S
H3682 C3692 0.930 . S
H3683 C3695 0.929 . S
H3684 C3698 0.930 . S
H3685 C3700 0.960 . S
H3686 C3700 0.960 . S
H3687 C3700 0.960 . S
C3688 H3680 0.929 . S
C3688 C3689 1.377 . S
C3688 C3690 1.384 . S
C3689 C3688 1.377 . S
C3689 C3695 1.390 . S
C3690 H3681 0.930 . S
C3690 C3688 1.384 . S
C3690 C3691 1.372 . S
C3691 C3690 1.372 . S
C3691 C3692 1.400 . S
C3691 C3696 1.490 . S
C3692 H3682 0.930 . S
C3692 C3691 1.400 . S
C3692 C3695 1.386 . S
H3693 C3709 0.930 . S
H3694 C3710 0.931 . S
C3695 H3683 0.929 . S
C3695 C3689 1.390 . S
C3695 C3692 1.386 . S
C3696 C3691 1.490 . S
C3696 C3698 1.395 . S
C3696 C3699 1.403 . S
H3697 C3703 0.930 . S
C3698 H3684 0.930 . S
C3698 C3696 1.395 . S
C3698 C3701 1.403 . S
C3699 C3696 1.403 . S
C3699 C3700 1.524 . S
C3699 C3703 1.400 . S
C3700 H3685 0.960 . S
C3700 H3686 0.960 . S
C3700 H3687 0.960 . S
C3700 C3699 1.524 . S
C3701 C3698 1.403 . S
C3701 C3702 1.392 . S
C3701 C3705 1.495 . S
C3702 C3701 1.392 . S
C3702 C3703 1.385 . S
C3702 C3704 1.478 . S
C3703 H3697 0.930 . S
C3703 C3699 1.400 . S
C3703 C3702 1.385 . S
C3704 C3702 1.478 . S
C3704 C3706 1.381 . S
C3704 C3710 1.383 . S
C3705 C3701 1.495 . S
C3705 H3711 0.959 . S
C3705 H3712 0.961 . S
C3705 H3713 0.960 . S
C3706 C3704 1.381 . S
C3706 C3707 1.394 . S
C3706 H3714 0.930 . S
C3707 C3706 1.394 . S
C3707 C3708 1.383 . S
C3707 H3715 0.929 . S
C3708 C3707 1.383 . S
C3708 C3709 1.377 . S
C3709 H3693 0.930 . S
C3709 C3708 1.377 . S
C3709 C3710 1.379 . S
C3710 H3694 0.931 . S
C3710 C3704 1.383 . S
C3710 C3709 1.379 . S
H3711 C3705 0.959 . S
H3712 C3705 0.961 . S
H3713 C3705 0.960 . S
H3714 C3706 0.930 . S
H3715 C3707 0.929 . S
H3716 C3724 0.929 . S
H3717 C3726 0.930 . S
H3718 C3728 0.930 . S
H3719 C3731 0.929 . S
H3720 C3734 0.930 . S
H3721 C3736 0.960 . S
H3722 C3736 0.960 . S
H3723 C3736 0.960 . S
C3724 H3716 0.929 . S
C3724 C3725 1.377 . S
C3724 C3726 1.384 . S
C3725 C3724 1.377 . S
C3725 C3731 1.390 . S
C3726 H3717 0.930 . S
C3726 C3724 1.384 . S
C3726 C3727 1.372 . S
C3727 C3726 1.372 . S
C3727 C3728 1.400 . S
C3727 C3732 1.490 . S
C3728 H3718 0.930 . S
C3728 C3727 1.400 . S
C3728 C3731 1.386 . S
H3729 C3745 0.930 . S
H3730 C3746 0.931 . S
C3731 H3719 0.929 . S
C3731 C3725 1.390 . S
C3731 C3728 1.386 . S
C3732 C3727 1.490 . S
C3732 C3734 1.395 . S
C3732 C3735 1.403 . S
H3733 C3739 0.930 . S
C3734 H3720 0.930 . S
C3734 C3732 1.395 . S
C3734 C3737 1.403 . S
C3735 C3732 1.403 . S
C3735 C3736 1.524 . S
C3735 C3739 1.400 . S
C3736 H3721 0.960 . S
C3736 H3722 0.960 . S
C3736 H3723 0.960 . S
C3736 C3735 1.524 . S
C3737 C3734 1.403 . S
C3737 C3738 1.392 . S
C3737 C3741 1.495 . S
C3738 C3737 1.392 . S
C3738 C3739 1.385 . S
C3738 C3740 1.478 . S
C3739 H3733 0.930 . S
C3739 C3735 1.400 . S
C3739 C3738 1.385 . S
C3740 C3738 1.478 . S
C3740 C3742 1.381 . S
C3740 C3746 1.383 . S
C3741 C3737 1.495 . S
C3741 H3747 0.959 . S
C3741 H3748 0.961 . S
C3741 H3749 0.960 . S
C3742 C3740 1.381 . S
C3742 C3743 1.394 . S
C3742 H3750 0.930 . S
C3743 C3742 1.394 . S
C3743 C3744 1.383 . S
C3743 H3751 0.929 . S
C3744 C3743 1.383 . S
C3744 C3745 1.377 . S
C3745 H3729 0.930 . S
C3745 C3744 1.377 . S
C3745 C3746 1.379 . S
C3746 H3730 0.931 . S
C3746 C3740 1.383 . S
C3746 C3745 1.379 . S
H3747 C3741 0.959 . S
H3748 C3741 0.961 . S
H3749 C3741 0.960 . S
H3750 C3742 0.930 . S
H3751 C3743 0.929 . S
H3752 C3760 0.929 . S
H3753 C3762 0.930 . S
H3754 C3764 0.930 . S
H3755 C3767 0.929 . S
H3756 C3770 0.930 . S
H3757 C3772 0.960 . S
H3758 C3772 0.960 . S
H3759 C3772 0.960 . S
C3760 H3752 0.929 . S
C3760 C3761 1.377 . S
C3760 C3762 1.384 . S
C3761 C3760 1.377 . S
C3761 C3767 1.390 . S
C3762 H3753 0.930 . S
C3762 C3760 1.384 . S
C3762 C3763 1.372 . S
C3763 C3762 1.372 . S
C3763 C3764 1.400 . S
C3763 C3768 1.490 . S
C3764 H3754 0.930 . S
C3764 C3763 1.400 . S
C3764 C3767 1.386 . S
H3765 C3781 0.930 . S
H3766 C3782 0.931 . S
C3767 H3755 0.929 . S
C3767 C3761 1.390 . S
C3767 C3764 1.386 . S
C3768 C3763 1.490 . S
C3768 C3770 1.395 . S
C3768 C3771 1.403 . S
H3769 C3775 0.930 . S
C3770 H3756 0.930 . S
C3770 C3768 1.395 . S
C3770 C3773 1.403 . S
C3771 C3768 1.403 . S
C3771 C3772 1.524 . S
C3771 C3775 1.400 . S
C3772 H3757 0.960 . S
C3772 H3758 0.960 . S
C3772 H3759 0.960 . S
C3772 C3771 1.524 . S
C3773 C3770 1.403 . S
C3773 C3774 1.392 . S
C3773 C3777 1.495 . S
C3774 C3773 1.392 . S
C3774 C3775 1.385 . S
C3774 C3776 1.478 . S
C3775 H3769 0.930 . S
C3775 C3771 1.400 . S
C3775 C3774 1.385 . S
C3776 C3774 1.478 . S
C3776 C3778 1.381 . S
C3776 C3782 1.383 . S
C3777 C3773 1.495 . S
C3777 H3783 0.959 . S
C3777 H3784 0.961 . S
C3777 H3785 0.960 1_655 S
C3778 C3776 1.381 . S
C3778 C3779 1.394 . S
C3778 H3786 0.930 . S
C3779 C3778 1.394 . S
C3779 C3780 1.383 . S
C3779 H3787 0.929 1_655 S
C3780 C3779 1.383 . S
C3780 C3781 1.377 . S
C3781 H3765 0.930 . S
C3781 C3780 1.377 . S
C3781 C3782 1.379 . S
C3782 H3766 0.931 . S
C3782 C3776 1.383 . S
C3782 C3781 1.379 . S
H3783 C3777 0.959 . S
H3784 C3777 0.961 . S
H3785 C3777 0.960 1_455 S
H3786 C3778 0.930 . S
H3787 C3779 0.929 1_455 S
H3788 C3796 0.929 . S
H3789 C3798 0.930 . S
H3790 C3800 0.930 . S
H3791 C3803 0.929 . S
H3792 C3806 0.930 . S
H3793 C3808 0.960 . S
H3794 C3808 0.960 . S
H3795 C3808 0.960 . S
C3796 H3788 0.929 . S
C3796 C3797 1.377 . S
C3796 C3798 1.384 . S
C3797 C3796 1.377 . S
C3797 C3803 1.390 . S
C3798 H3789 0.930 . S
C3798 C3796 1.384 . S
C3798 C3799 1.372 . S
C3799 C3798 1.372 . S
C3799 C3800 1.400 . S
C3799 C3804 1.490 . S
C3800 H3790 0.930 . S
C3800 C3799 1.400 . S
C3800 C3803 1.386 . S
H3801 C3817 0.930 . S
H3802 C3818 0.931 . S
C3803 H3791 0.929 . S
C3803 C3797 1.390 . S
C3803 C3800 1.386 . S
C3804 C3799 1.490 . S
C3804 C3806 1.395 . S
C3804 C3807 1.403 . S
H3805 C3811 0.930 . S
C3806 H3792 0.930 . S
C3806 C3804 1.395 . S
C3806 C3809 1.403 . S
C3807 C3804 1.403 . S
C3807 C3808 1.524 . S
C3807 C3811 1.400 . S
C3808 H3793 0.960 . S
C3808 H3794 0.960 . S
C3808 H3795 0.960 . S
C3808 C3807 1.524 . S
C3809 C3806 1.403 . S
C3809 C3810 1.392 . S
C3809 C3813 1.495 . S
C3810 C3809 1.392 . S
C3810 C3811 1.385 . S
C3810 C3812 1.478 . S
C3811 H3805 0.930 . S
C3811 C3807 1.400 . S
C3811 C3810 1.385 . S
C3812 C3810 1.478 . S
C3812 C3814 1.381 . S
C3812 C3818 1.383 . S
C3813 C3809 1.495 . S
C3813 H3819 0.959 . S
C3813 H3820 0.961 . S
C3813 H3821 0.960 . S
C3814 C3812 1.381 . S
C3814 C3815 1.394 . S
C3814 H3822 0.930 . S
C3815 C3814 1.394 . S
C3815 C3816 1.383 . S
C3815 H3823 0.929 . S
C3816 C3815 1.383 . S
C3816 C3817 1.377 . S
C3817 H3801 0.930 . S
C3817 C3816 1.377 . S
C3817 C3818 1.379 . S
C3818 H3802 0.931 . S
C3818 C3812 1.383 . S
C3818 C3817 1.379 . S
H3819 C3813 0.959 . S
H3820 C3813 0.961 . S
H3821 C3813 0.960 . S
H3822 C3814 0.930 . S
H3823 C3815 0.929 . S
H3824 C3832 0.929 . S
H3825 C3834 0.930 . S
H3826 C3836 0.930 . S
H3827 C3839 0.929 . S
H3828 C3842 0.930 . S
H3829 C3844 0.960 . S
H3830 C3844 0.960 . S
H3831 C3844 0.960 . S
C3832 H3824 0.929 . S
C3832 C3833 1.377 . S
C3832 C3834 1.384 . S
C3833 C3832 1.377 . S
C3833 C3839 1.390 . S
C3834 H3825 0.930 . S
C3834 C3832 1.384 . S
C3834 C3835 1.372 . S
C3835 C3834 1.372 . S
C3835 C3836 1.400 . S
C3835 C3840 1.490 . S
C3836 H3826 0.930 . S
C3836 C3835 1.400 . S
C3836 C3839 1.386 . S
H3837 C3853 0.930 . S
H3838 C3854 0.931 . S
C3839 H3827 0.929 . S
C3839 C3833 1.390 . S
C3839 C3836 1.386 . S
C3840 C3835 1.490 . S
C3840 C3842 1.395 . S
C3840 C3843 1.403 . S
H3841 C3847 0.930 . S
C3842 H3828 0.930 . S
C3842 C3840 1.395 . S
C3842 C3845 1.403 . S
C3843 C3840 1.403 . S
C3843 C3844 1.524 . S
C3843 C3847 1.400 . S
C3844 H3829 0.960 . S
C3844 H3830 0.960 . S
C3844 H3831 0.960 . S
C3844 C3843 1.524 . S
C3845 C3842 1.403 . S
C3845 C3846 1.392 . S
C3845 C3849 1.495 . S
C3846 C3845 1.392 . S
C3846 C3847 1.385 . S
C3846 C3848 1.478 . S
C3847 H3841 0.930 . S
C3847 C3843 1.400 . S
C3847 C3846 1.385 . S
C3848 C3846 1.478 . S
C3848 C3850 1.381 . S
C3848 C3854 1.383 . S
C3849 C3845 1.495 . S
C3849 H3855 0.959 . S
C3849 H3856 0.961 . S
C3849 H3857 0.960 . S
C3850 C3848 1.381 . S
C3850 C3851 1.394 . S
C3850 H3858 0.930 . S
C3851 C3850 1.394 . S
C3851 C3852 1.383 . S
C3851 H3859 0.929 . S
C3852 C3851 1.383 . S
C3852 C3853 1.377 . S
C3853 H3837 0.930 . S
C3853 C3852 1.377 . S
C3853 C3854 1.379 . S
C3854 H3838 0.931 . S
C3854 C3848 1.383 . S
C3854 C3853 1.379 . S
H3855 C3849 0.959 . S
H3856 C3849 0.961 . S
H3857 C3849 0.960 . S
H3858 C3850 0.930 . S
H3859 C3851 0.929 . S
H3860 C3868 0.929 . S
H3861 C3870 0.930 . S
H3862 C3872 0.930 . S
H3863 C3875 0.929 . S
H3864 C3878 0.930 . S
H3865 C3880 0.960 . S
H3866 C3880 0.960 . S
H3867 C3880 0.960 . S
C3868 H3860 0.929 . S
C3868 C3869 1.377 . S
C3868 C3870 1.384 . S
C3869 C3868 1.377 . S
C3869 C3875 1.390 . S
C3870 H3861 0.930 . S
C3870 C3868 1.384 . S
C3870 C3871 1.372 . S
C3871 C3870 1.372 . S
C3871 C3872 1.400 . S
C3871 C3876 1.490 . S
C3872 H3862 0.930 . S
C3872 C3871 1.400 . S
C3872 C3875 1.386 . S
H3873 C3889 0.928 . S
H3874 C3890 0.931 . S
C3875 H3863 0.929 . S
C3875 C3869 1.390 . S
C3875 C3872 1.386 . S
C3876 C3871 1.490 . S
C3876 C3878 1.395 . S
C3876 C3879 1.403 . S
H3877 C3883 0.930 . S
C3878 H3864 0.930 . S
C3878 C3876 1.395 . S
C3878 C3881 1.403 . S
C3879 C3876 1.403 . S
C3879 C3880 1.524 . S
C3879 C3883 1.400 . S
C3880 H3865 0.960 . S
C3880 H3866 0.960 . S
C3880 H3867 0.960 . S
C3880 C3879 1.524 . S
C3881 C3878 1.403 . S
C3881 C3882 1.392 . S
C3881 C3885 1.495 1_565 S
C3882 C3881 1.392 . S
C3882 C3883 1.385 . S
C3882 C3884 1.478 . S
C3883 H3877 0.930 . S
C3883 C3879 1.400 . S
C3883 C3882 1.385 . S
C3884 C3882 1.478 . S
C3884 C3886 1.381 . S
C3884 C3890 1.383 . S
C3885 C3881 1.495 1_545 S
C3885 H3891 0.959 . S
C3885 H3892 0.961 . S
C3885 H3893 0.960 . S
C3886 C3884 1.381 . S
C3886 C3887 1.394 1_565 S
C3886 H3894 0.930 . S
C3887 C3886 1.394 1_545 S
C3887 C3888 1.383 . S
C3887 H3895 0.929 . S
C3888 C3887 1.383 . S
C3888 C3889 1.383 . S
C3889 H3873 0.928 . S
C3889 C3888 1.383 . S
C3889 C3890 1.375 1_545 S
C3890 H3874 0.931 . S
C3890 C3884 1.383 . S
C3890 C3889 1.375 1_565 S
H3891 C3885 0.959 . S
H3892 C3885 0.961 . S
H3893 C3885 0.960 . S
H3894 C3886 0.930 . S
H3895 C3887 0.929 . S
H3896 C3904 0.929 . S
H3897 C3906 0.930 . S
H3898 C3908 0.930 . S
H3899 C3911 0.929 . S
H3900 C3914 0.930 . S
H3901 C3916 0.960 . S
H3902 C3916 0.960 . S
H3903 C3916 0.960 . S
C3904 H3896 0.929 . S
C3904 C3905 1.377 . S
C3904 C3906 1.384 . S
C3905 C3904 1.377 . S
C3905 C3911 1.390 . S
C3906 H3897 0.930 . S
C3906 C3904 1.384 . S
C3906 C3907 1.372 . S
C3907 C3906 1.372 . S
C3907 C3908 1.400 . S
C3907 C3912 1.490 . S
C3908 H3898 0.930 . S
C3908 C3907 1.400 . S
C3908 C3911 1.386 . S
H3909 C3925 0.930 . S
H3910 C3926 0.931 . S
C3911 H3899 0.929 . S
C3911 C3905 1.390 . S
C3911 C3908 1.386 . S
C3912 C3907 1.490 . S
C3912 C3914 1.395 . S
C3912 C3915 1.403 . S
H3913 C3919 0.930 . S
C3914 H3900 0.930 . S
C3914 C3912 1.395 . S
C3914 C3917 1.403 . S
C3915 C3912 1.403 . S
C3915 C3916 1.524 . S
C3915 C3919 1.400 . S
C3916 H3901 0.960 . S
C3916 H3902 0.960 . S
C3916 H3903 0.960 . S
C3916 C3915 1.524 . S
C3917 C3914 1.403 . S
C3917 C3918 1.392 . S
C3917 C3921 1.495 . S
C3918 C3917 1.392 . S
C3918 C3919 1.385 . S
C3918 C3920 1.478 . S
C3919 H3913 0.930 . S
C3919 C3915 1.400 . S
C3919 C3918 1.385 . S
C3920 C3918 1.478 . S
C3920 C3922 1.381 . S
C3920 C3926 1.383 . S
C3921 C3917 1.495 . S
C3921 H3927 0.959 . S
C3921 H3928 0.961 . S
C3921 H3929 0.960 . S
C3922 C3920 1.381 . S
C3922 C3923 1.394 . S
C3922 H3930 0.930 . S
C3923 C3922 1.394 . S
C3923 C3924 1.383 . S
C3923 H3931 0.929 . S
C3924 C3923 1.383 . S
C3924 C3925 1.377 . S
C3925 H3909 0.930 . S
C3925 C3924 1.377 . S
C3925 C3926 1.379 . S
C3926 H3910 0.931 . S
C3926 C3920 1.383 . S
C3926 C3925 1.379 . S
H3927 C3921 0.959 . S
H3928 C3921 0.961 . S
H3929 C3921 0.960 . S
H3930 C3922 0.930 . S
H3931 C3923 0.929 . S
H3932 C3940 0.929 . S
H3933 C3942 0.930 . S
H3934 C3944 0.930 . S
H3935 C3947 0.915 1_556 S
H3936 C3950 0.930 . S
H3937 C3952 0.960 . S
H3938 C3952 0.960 . S
H3939 C3952 0.960 . S
C3940 H3932 0.929 . S
C3940 C3941 1.377 . S
C3940 C3942 1.384 . S
C3941 C3940 1.377 . S
C3941 C3947 1.389 . S
C3942 H3933 0.930 . S
C3942 C3940 1.384 . S
C3942 C3943 1.372 . S
C3943 C3942 1.372 . S
C3943 C3944 1.400 . S
C3943 C3948 1.490 . S
C3944 H3934 0.930 . S
C3944 C3943 1.400 . S
C3944 C3947 1.401 . S
H3945 C3961 0.930 . S
H3946 C3962 0.931 . S
C3947 H3935 0.915 1_554 S
C3947 C3941 1.389 . S
C3947 C3944 1.401 . S
C3948 C3943 1.490 . S
C3948 C3950 1.395 . S
C3948 C3951 1.403 1_554 S
H3949 C3955 0.930 . S
C3950 H3936 0.930 . S
C3950 C3948 1.395 . S
C3950 C3953 1.403 . S
C3951 C3948 1.403 1_556 S
C3951 C3952 1.524 . S
C3951 C3955 1.400 . S
C3952 H3937 0.960 . S
C3952 H3938 0.960 . S
C3952 H3939 0.960 . S
C3952 C3951 1.524 . S
C3953 C3950 1.403 . S
C3953 C3954 1.392 . S
C3953 C3957 1.495 . S
C3954 C3953 1.392 . S
C3954 C3955 1.385 1_554 S
C3954 C3956 1.478 . S
C3955 H3949 0.930 . S
C3955 C3951 1.400 . S
C3955 C3954 1.385 1_556 S
C3956 C3954 1.478 . S
C3956 C3958 1.381 . S
C3956 C3962 1.383 . S
C3957 C3953 1.495 . S
C3957 H3963 0.959 . S
C3957 H3964 0.961 . S
C3957 H3965 0.960 . S
C3958 C3956 1.381 . S
C3958 C3959 1.394 . S
C3958 H3966 0.930 . S
C3959 C3958 1.394 . S
C3959 C3960 1.383 . S
C3959 H3967 0.929 . S
C3960 C3959 1.383 . S
C3960 C3961 1.377 . S
C3961 H3945 0.930 . S
C3961 C3960 1.377 . S
C3961 C3962 1.379 . S
C3962 H3946 0.931 . S
C3962 C3956 1.383 . S
C3962 C3961 1.379 . S
H3963 C3957 0.959 . S
H3964 C3957 0.961 . S
H3965 C3957 0.960 . S
H3966 C3958 0.930 . S
H3967 C3959 0.929 . S
H3968 C3976 0.929 . S
H3969 C3978 0.930 . S
H3970 C3980 0.930 . S
H3971 C3983 0.929 . S
H3972 C3986 0.930 . S
H3973 C3988 0.960 . S
H3974 C3988 0.960 . S
H3975 C3988 0.960 . S
C3976 H3968 0.929 . S
C3976 C3977 1.377 . S
C3976 C3978 1.384 . S
C3977 C3976 1.377 . S
C3977 C3983 1.390 . S
C3978 H3969 0.930 . S
C3978 C3976 1.384 . S
C3978 C3979 1.372 . S
C3979 C3978 1.372 . S
C3979 C3980 1.400 . S
C3979 C3984 1.490 . S
C3980 H3970 0.930 . S
C3980 C3979 1.400 . S
C3980 C3983 1.386 . S
H3981 C3997 0.930 . S
H3982 C3998 0.931 . S
C3983 H3971 0.929 . S
C3983 C3977 1.390 . S
C3983 C3980 1.386 . S
C3984 C3979 1.490 . S
C3984 C3986 1.395 . S
C3984 C3987 1.403 . S
H3985 C3991 0.930 . S
C3986 H3972 0.930 . S
C3986 C3984 1.395 . S
C3986 C3989 1.403 . S
C3987 C3984 1.403 . S
C3987 C3988 1.524 . S
C3987 C3991 1.400 . S
C3988 H3973 0.960 . S
C3988 H3974 0.960 . S
C3988 H3975 0.960 . S
C3988 C3987 1.524 . S
C3989 C3986 1.403 . S
C3989 C3990 1.392 . S
C3989 C3993 1.495 . S
C3990 C3989 1.392 . S
C3990 C3991 1.385 . S
C3990 C3992 1.478 . S
C3991 H3985 0.930 . S
C3991 C3987 1.400 . S
C3991 C3990 1.385 . S
C3992 C3990 1.478 . S
C3992 C3994 1.381 . S
C3992 C3998 1.383 . S
C3993 C3989 1.495 . S
C3993 H3999 0.959 . S
C3993 H4000 0.961 . S
C3993 H4001 0.960 . S
C3994 C3992 1.381 . S
C3994 C3995 1.394 . S
C3994 H4002 0.930 . S
C3995 C3994 1.394 . S
C3995 C3996 1.383 . S
C3995 H4003 0.929 . S
C3996 C3995 1.383 . S
C3996 C3997 1.377 . S
C3997 H3981 0.930 . S
C3997 C3996 1.377 . S
C3997 C3998 1.379 . S
C3998 H3982 0.931 . S
C3998 C3992 1.383 . S
C3998 C3997 1.379 . S
H3999 C3993 0.959 . S
H4000 C3993 0.961 . S
H4001 C3993 0.960 . S
H4002 C3994 0.930 . S
H4003 C3995 0.929 . S
H4004 C4012 0.929 . S
H4005 C4014 0.930 . S
H4006 C4016 0.930 . S
H4007 C4019 0.929 . S
H4008 C4022 0.930 . S
H4009 C4024 0.960 . S
H4010 C4024 0.960 . S
H4011 C4024 0.960 . S
C4012 H4004 0.929 . S
C4012 C4013 1.377 . S
C4012 C4014 1.384 . S
C4013 C4012 1.377 . S
C4013 C4019 1.390 . S
C4014 H4005 0.930 . S
C4014 C4012 1.384 . S
C4014 C4015 1.372 . S
C4015 C4014 1.372 . S
C4015 C4016 1.400 . S
C4015 C4020 1.490 . S
C4016 H4006 0.930 . S
C4016 C4015 1.400 . S
C4016 C4019 1.386 . S
H4017 C4033 0.930 1_556 S
H4018 C4034 0.931 1_556 S
C4019 H4007 0.929 . S
C4019 C4013 1.390 . S
C4019 C4016 1.386 . S
C4020 C4015 1.490 . S
C4020 C4022 1.395 . S
C4020 C4023 1.403 . S
H4021 C4027 0.930 . S
C4022 H4008 0.930 . S
C4022 C4020 1.395 . S
C4022 C4025 1.403 . S
C4023 C4020 1.403 . S
C4023 C4024 1.524 . S
C4023 C4027 1.400 . S
C4024 H4009 0.960 . S
C4024 H4010 0.960 . S
C4024 H4011 0.960 . S
C4024 C4023 1.524 . S
C4025 C4022 1.403 . S
C4025 C4026 1.392 . S
C4025 C4029 1.495 . S
C4026 C4025 1.392 . S
C4026 C4027 1.385 . S
C4026 C4028 1.478 . S
C4027 H4021 0.930 . S
C4027 C4023 1.400 . S
C4027 C4026 1.385 . S
C4028 C4026 1.478 . S
C4028 C4030 1.381 . S
C4028 C4034 1.383 . S
C4029 C4025 1.495 . S
C4029 H4035 0.959 . S
C4029 H4036 0.961 . S
C4029 H4037 0.960 . S
C4030 C4028 1.381 . S
C4030 C4031 1.394 . S
C4030 H4038 0.930 . S
C4031 C4030 1.394 . S
C4031 C4032 1.383 . S
C4031 H4039 0.929 . S
C4032 C4031 1.383 . S
C4032 C4033 1.377 . S
C4033 H4017 0.930 1_554 S
C4033 C4032 1.377 . S
C4033 C4034 1.379 . S
C4034 H4018 0.931 1_554 S
C4034 C4028 1.383 . S
C4034 C4033 1.379 . S
H4035 C4029 0.959 . S
H4036 C4029 0.961 . S
H4037 C4029 0.960 . S
H4038 C4030 0.930 . S
H4039 C4031 0.929 . S
H4040 C4048 0.929 . S
H4041 C4050 0.930 . S
H4042 C4052 0.930 . S
H4043 C4055 0.929 1_545 S
H4044 C4058 0.930 . S
H4045 C4060 0.960 . S
H4046 C4060 0.960 . S
H4047 C4060 0.960 . S
C4048 H4040 0.929 . S
C4048 C4049 1.377 . S
C4048 C4050 1.384 . S
C4049 C4048 1.377 . S
C4049 C4055 1.390 . S
C4050 H4041 0.930 . S
C4050 C4048 1.384 . S
C4050 C4051 1.372 . S
C4051 C4050 1.372 . S
C4051 C4052 1.400 . S
C4051 C4056 1.490 . S
C4052 H4042 0.930 . S
C4052 C4051 1.400 . S
C4052 C4055 1.386 . S
H4053 C4069 0.930 . S
H4054 C4070 0.931 . S
C4055 H4043 0.929 1_565 S
C4055 C4049 1.390 . S
C4055 C4052 1.386 . S
C4056 C4051 1.490 . S
C4056 C4058 1.395 . S
C4056 C4059 1.403 . S
H4057 C4063 0.930 . S
C4058 H4044 0.930 . S
C4058 C4056 1.395 . S
C4058 C4061 1.403 . S
C4059 C4056 1.403 . S
C4059 C4060 1.524 . S
C4059 C4063 1.400 . S
C4060 H4045 0.960 . S
C4060 H4046 0.960 . S
C4060 H4047 0.960 . S
C4060 C4059 1.524 . S
C4061 C4058 1.403 . S
C4061 C4062 1.392 . S
C4061 C4065 1.495 . S
C4062 C4061 1.392 . S
C4062 C4063 1.385 . S
C4062 C4064 1.478 . S
C4063 H4057 0.930 . S
C4063 C4059 1.400 . S
C4063 C4062 1.385 . S
C4064 C4062 1.478 . S
C4064 C4066 1.381 . S
C4064 C4070 1.383 . S
C4065 C4061 1.495 . S
C4065 H4071 0.959 . S
C4065 H4072 0.961 . S
C4065 H4073 0.960 . S
C4066 C4064 1.381 . S
C4066 C4067 1.394 . S
C4066 H4074 0.930 . S
C4067 C4066 1.394 . S
C4067 C4068 1.383 . S
C4067 H4075 0.929 . S
C4068 C4067 1.383 . S
C4068 C4069 1.377 . S
C4069 H4053 0.930 . S
C4069 C4068 1.377 . S
C4069 C4070 1.379 . S
C4070 H4054 0.931 . S
C4070 C4064 1.383 . S
C4070 C4069 1.379 . S
H4071 C4065 0.959 . S
H4072 C4065 0.961 . S
H4073 C4065 0.960 . S
H4074 C4066 0.930 . S
H4075 C4067 0.929 . S
H4076 C4084 0.929 . S
H4077 C4086 0.930 . S
H4078 C4088 0.930 . S
H4079 C4091 0.929 . S
H4080 C4094 0.930 . S
H4081 C4096 0.960 . S
H4082 C4096 0.960 . S
H4083 C4096 0.960 . S
C4084 H4076 0.929 . S
C4084 C4085 1.377 . S
C4084 C4086 1.384 . S
C4085 C4084 1.377 . S
C4085 C4091 1.390 . S
C4086 H4077 0.930 . S
C4086 C4084 1.384 . S
C4086 C4087 1.372 . S
C4087 C4086 1.372 . S
C4087 C4088 1.400 . S
C4087 C4092 1.490 . S
C4088 H4078 0.930 . S
C4088 C4087 1.400 . S
C4088 C4091 1.386 . S
H4089 C4105 0.930 . S
H4090 C4106 0.931 . S
C4091 H4079 0.929 . S
C4091 C4085 1.390 . S
C4091 C4088 1.386 . S
C4092 C4087 1.490 . S
C4092 C4094 1.395 . S
C4092 C4095 1.403 . S
H4093 C4099 0.930 . S
C4094 H4080 0.930 . S
C4094 C4092 1.395 . S
C4094 C4097 1.403 . S
C4095 C4092 1.403 . S
C4095 C4096 1.524 . S
C4095 C4099 1.400 . S
C4096 H4081 0.960 . S
C4096 H4082 0.960 . S
C4096 H4083 0.960 . S
C4096 C4095 1.524 . S
C4097 C4094 1.403 . S
C4097 C4098 1.392 . S
C4097 C4101 1.495 . S
C4098 C4097 1.392 . S
C4098 C4099 1.385 . S
C4098 C4100 1.478 . S
C4099 H4093 0.930 . S
C4099 C4095 1.400 . S
C4099 C4098 1.385 . S
C4100 C4098 1.478 . S
C4100 C4102 1.381 . S
C4100 C4106 1.383 . S
C4101 C4097 1.495 . S
C4101 H4107 0.959 . S
C4101 H4108 0.961 . S
C4101 H4109 0.960 . S
C4102 C4100 1.381 . S
C4102 C4103 1.394 . S
C4102 H4110 0.930 . S
C4103 C4102 1.394 . S
C4103 C4104 1.383 . S
C4103 H4111 0.929 . S
C4104 C4103 1.383 . S
C4104 C4105 1.377 . S
C4105 H4089 0.930 . S
C4105 C4104 1.377 . S
C4105 C4106 1.379 . S
C4106 H4090 0.931 . S
C4106 C4100 1.383 . S
C4106 C4105 1.379 . S
H4107 C4101 0.959 . S
H4108 C4101 0.961 . S
H4109 C4101 0.960 . S
H4110 C4102 0.930 . S
H4111 C4103 0.929 . S
C665 C106 1.526 . S
C684 C352 1.485 . S
C701 C65 1.170 . S
C720 C365 1.168 . S
C737 C79 1.640 . S
C756 C384 1.656 . S
C792 C415 1.702 . S
C773 C90 1.697 . S
C809 C21 1.493 . S
C828 C435 1.496 1_565 S
C864 C452 0.717 . S
C845 C35 0.749 . S
C900 C465 1.512 . S
C881 C50 1.528 . S
C917 C6 0.903 . S
C936 C492 0.872 . S
C972 C345 1.303 1_655 S
C953 C232 1.348 . S
C989 C245 1.366 . S
C1008 C375 1.400 . S
C1044 C377 1.722 . S
C1025 C274 1.756 . S
C1080 C412 0.770 . S
C1061 C175 0.748 . S
C1097 C231 0.840 . S
C1116 C432 0.870 . S
C1152 C445 1.750 . S
C1133 C246 1.751 . S
C1188 C475 1.015 . S
C1169 C273 1.023 . S
C1224 C485 1.290 . S
C1205 C176 1.298 . S
C1260 C355 1.577 . S
C1241 C160 1.561 . S
C1277 C289 1.876 . S
C1296 C505 1.852 . S
C1332 C535 1.630 . S
C1313 C328 1.567 . S
C1368 C552 1.202 . S
C1349 C317 1.256 . S
C1385 C118 1.903 . S
C1404 C495 1.946 . S
C1421 C132 1.155 . S
C1440 C382 1.184 . S
C1457 C331 1.994 . S
C1476 C565 1.977 . S
C1512 C592 0.994 . S
C1493 C303 1.023 . S
C1548 C342 1.071 . S
C1529 C63 1.081 . S
C1584 C577 1.544 . S
C1565 C107 1.531 . S
C1601 C92 1.401 . S
C1620 C395 1.392 . S
C1637 C78 2.365 . S
C1656 C564 2.349 . S
C1692 C424 2.112 . S
C1673 C8 2.141 . S
C1709 C51 0.859 . S
C1728 C522 0.832 . S
C1764 C457 1.860 . S
C1745 C37 1.809 . S
C1800 C602 0.828 . S
C1781 C20 0.848 . S
C1836 C337 1.154 . S
C1817 C147 1.115 . S
C1872 C584 1.569 . S
C1853 C316 1.589 . S
C1889 C119 1.680 . S
C1908 C385 1.687 . S
C1925 C288 0.876 . S
C1944 C562 0.904 . S
C1961 C148 1.169 1_545 S
C1980 C422 1.190 . S
C2016 C517 1.767 . S
C1997 C315 1.715 . S
C2033 C120 1.383 . S
C2052 C464 1.373 . S
C2069 C287 1.152 . S
C2088 C597 1.124 . S
C2105 C188 1.423 . S
C2124 C344 1.449 . S
C2141 C177 2.158 . S
C2160 C497 2.155 . S
C2177 C258 1.709 . S
C2196 C444 1.743 . S
C2213 C247 1.325 . S
C2232 C542 1.302 . S
C2268 C604 1.841 . S
C2249 C272 1.805 . S
C2285 C216 1.007 . S
C2304 C392 1.018 . S
C2340 C397 2.208 . S
C2321 C261 2.200 . S
C2376 C362 1.024 . S
C2357 C205 1.043 . S
C2393 C76 1.137 . S
C2412 C632 1.141 . S
C2448 C585 1.224 . S
C2429 C93 1.229 . S
C2465 C105 1.209 . S
C2484 C644 1.267 . S
C2501 C62 1.729 . S
C2520 C575 1.703 . S
C2537 C49 1.465 . S
C2556 C515 1.493 . S
C2592 C532 1.115 . S
C2573 C9 1.105 . S
C2628 C545 1.462 . S
C2609 C22 1.471 . S
C2664 C612 1.267 . S
C2645 C36 1.270 . S
C2700 C625 1.262 . S
C2681 C260 1.264 . S
C2717 C189 1.204 . S
C2736 C595 1.197 . S
C2772 C637 1.606 . S
C2753 C204 1.666 . S
C2808 C572 0.605 . S
C2789 C217 0.582 . S
C2844 C512 1.017 . S
C2825 C259 1.021 . S
C2861 C190 1.842 . S
C2880 C525 1.843 . S
C2916 C555 1.219 . S
C2897 C203 1.197 . S
C2933 C218 1.404 . S
C2952 C605 1.353 . S
C2988 C635 1.529 . S
C2969 C314 1.474 . S
C3005 C135 1.934 . S
C3024 C425 1.922 . S
C3060 C455 1.533 . S
C3041 C146 1.492 . S
C3096 C472 1.301 . S
C3077 C163 1.305 . S
C3132 C615 2.045 . S
C3113 C300 2.002 . S
C3149 C286 1.095 . S
C3168 C642 1.128 . S
C3204 C405 1.916 . S
C3185 C149 1.914 . S
C3240 C372 0.923 . S
C3221 C121 0.973 . S
C3257 C91 1.054 . S
C3276 C622 1.077 . S
C3312 C357 1.150 . S
C3293 C77 1.138 . S
C3329 C64 1.367 . S
C3348 C655 1.366 . S
C3365 C104 1.950 . S
C3384 C404 1.943 . S
C3401 C34 1.711 . S
C3420 C504 1.718 . S
C3456 C442 0.846 . S
C3437 C23 0.815 . S
C3473 C7 1.354 . S
C3492 C537 1.379 . S
C3509 C48 0.818 . S
C3528 C482 0.829 . S
C3564 C617 1.154 . S
C3545 C329 1.120 . S
C3581 C162 1.587 . S
C3600 C364 1.543 . S
C3636 C645 1.644 1_655 S
C3617 C301 1.662 . S
C3653 C134 0.904 . S
C3672 C402 0.884 . S
C3689 C330 1.191 . S
C3708 C502 1.170 . S
C3744 C437 1.737 . S
C3725 C161 1.717 . S
C3761 C302 1.376 . S
C3780 C544 1.323 . S
C3816 C477 1.142 . S
C3797 C133 1.147 . S
C3852 C624 1.721 . S
C3833 C244 1.735 . S
C3888 C417 2.140 . S
C3869 C219 2.132 . S
C3905 C230 1.440 . S
C3924 C524 1.465 . S
C3960 C462 1.258 . S
C3941 C191 1.283 1_554 S
C3977 C202 2.098 . S
C3996 C484 2.133 . S
C4013 C174 1.244 . S
C4032 C652 1.252 . S
C4068 C557 2.209 . S
C4049 C233 2.191 1_565 S
C4104 C582 1.013 . S
C4085 C275 1.009 . S
