# Generated by pormake.
# Topology gar, (4,6)-cn, num edge types: 1
# Building blocks:
#     Node 0, Type 0, BuildingBlock: AZAVOO_clean_sbu_0, # of connection points: 4
#     Node 1, Type 0, BuildingBlock: AZAVOO_clean_sbu_0, # of connection points: 4
#     Node 2, Type 0, BuildingBlock: AZAVOO_clean_sbu_0, # of connection points: 4
#     Node 3, Type 0, BuildingBlock: AZAVOO_clean_sbu_0, # of connection points: 4
#     Node 4, Type 0, BuildingBlock: AZAVOO_clean_sbu_0, # of connection points: 4
#     Node 5, Type 0, BuildingBlock: AZAVOO_clean_sbu_0, # of connection points: 4
#     Node 6, Type 0, BuildingBlock: AZAVOO_clean_sbu_0, # of connection points: 4
#     Node 7, Type 0, BuildingBlock: AZAVOO_clean_sbu_0, # of connection points: 4
#     Node 8, Type 0, BuildingBlock: AZAVOO_clean_sbu_0, # of connection points: 4
#     Node 9, Type 0, BuildingBlock: AZAVOO_clean_sbu_0, # of connection points: 4
#     Node 10, Type 0, BuildingBlock: AZAVOO_clean_sbu_0, # of connection points: 4
#     Node 11, Type 0, BuildingBlock: AZAVOO_clean_sbu_0, # of connection points: 4
#     Node 12, Type 0, BuildingBlock: AZAVOO_clean_sbu_0, # of connection points: 4
#     Node 13, Type 0, BuildingBlock: AZAVOO_clean_sbu_0, # of connection points: 4
#     Node 14, Type 0, BuildingBlock: AZAVOO_clean_sbu_0, # of connection points: 4
#     Node 15, Type 0, BuildingBlock: AZAVOO_clean_sbu_0, # of connection points: 4
#     Node 16, Type 0, BuildingBlock: AZAVOO_clean_sbu_0, # of connection points: 4
#     Node 17, Type 0, BuildingBlock: AZAVOO_clean_sbu_0, # of connection points: 4
#     Node 18, Type 0, BuildingBlock: AZAVOO_clean_sbu_0, # of connection points: 4
#     Node 19, Type 0, BuildingBlock: AZAVOO_clean_sbu_0, # of connection points: 4
#     Node 20, Type 0, BuildingBlock: AZAVOO_clean_sbu_0, # of connection points: 4
#     Node 21, Type 0, BuildingBlock: AZAVOO_clean_sbu_0, # of connection points: 4
#     Node 22, Type 0, BuildingBlock: AZAVOO_clean_sbu_0, # of connection points: 4
#     Node 23, Type 0, BuildingBlock: AZAVOO_clean_sbu_0, # of connection points: 4
#     Node 24, Type 1, BuildingBlock: BETFEN_clean_sbu_0, # of connection points: 6
#     Node 25, Type 1, BuildingBlock: BETFEN_clean_sbu_0, # of connection points: 6
#     Node 26, Type 1, BuildingBlock: BETFEN_clean_sbu_0, # of connection points: 6
#     Node 27, Type 1, BuildingBlock: BETFEN_clean_sbu_0, # of connection points: 6
#     Node 28, Type 1, BuildingBlock: BETFEN_clean_sbu_0, # of connection points: 6
#     Node 29, Type 1, BuildingBlock: BETFEN_clean_sbu_0, # of connection points: 6
#     Node 30, Type 1, BuildingBlock: BETFEN_clean_sbu_0, # of connection points: 6
#     Node 31, Type 1, BuildingBlock: BETFEN_clean_sbu_0, # of connection points: 6
#     Node 32, Type 1, BuildingBlock: BETFEN_clean_sbu_0, # of connection points: 6
#     Node 33, Type 1, BuildingBlock: BETFEN_clean_sbu_0, # of connection points: 6
#     Node 34, Type 1, BuildingBlock: BETFEN_clean_sbu_0, # of connection points: 6
#     Node 35, Type 1, BuildingBlock: BETFEN_clean_sbu_0, # of connection points: 6
#     Node 36, Type 1, BuildingBlock: BETFEN_clean_sbu_0, # of connection points: 6
#     Node 37, Type 1, BuildingBlock: BETFEN_clean_sbu_0, # of connection points: 6
#     Node 38, Type 1, BuildingBlock: BETFEN_clean_sbu_0, # of connection points: 6
#     Node 39, Type 1, BuildingBlock: BETFEN_clean_sbu_0, # of connection points: 6
#     Edge 40, Type (0, 1), BuildingBlock: KIFKEQ_clean_linker_1, # of connection points: 2
#     Edge 41, Type (0, 1), BuildingBlock: KIFKEQ_clean_linker_1, # of connection points: 2
#     Edge 42, Type (0, 1), BuildingBlock: KIFKEQ_clean_linker_1, # of connection points: 2
#     Edge 43, Type (0, 1), BuildingBlock: KIFKEQ_clean_linker_1, # of connection points: 2
#     Edge 44, Type (0, 1), BuildingBlock: KIFKEQ_clean_linker_1, # of connection points: 2
#     Edge 45, Type (0, 1), BuildingBlock: KIFKEQ_clean_linker_1, # of connection points: 2
#     Edge 46, Type (0, 1), BuildingBlock: KIFKEQ_clean_linker_1, # of connection points: 2
#     Edge 47, Type (0, 1), BuildingBlock: KIFKEQ_clean_linker_1, # of connection points: 2
#     Edge 48, Type (0, 1), BuildingBlock: KIFKEQ_clean_linker_1, # of connection points: 2
#     Edge 49, Type (0, 1), BuildingBlock: KIFKEQ_clean_linker_1, # of connection points: 2
#     Edge 50, Type (0, 1), BuildingBlock: KIFKEQ_clean_linker_1, # of connection points: 2
#     Edge 51, Type (0, 1), BuildingBlock: KIFKEQ_clean_linker_1, # of connection points: 2
#     Edge 52, Type (0, 1), BuildingBlock: KIFKEQ_clean_linker_1, # of connection points: 2
#     Edge 53, Type (0, 1), BuildingBlock: KIFKEQ_clean_linker_1, # of connection points: 2
#     Edge 54, Type (0, 1), BuildingBlock: KIFKEQ_clean_linker_1, # of connection points: 2
#     Edge 55, Type (0, 1), BuildingBlock: KIFKEQ_clean_linker_1, # of connection points: 2
#     Edge 56, Type (0, 1), BuildingBlock: KIFKEQ_clean_linker_1, # of connection points: 2
#     Edge 57, Type (0, 1), BuildingBlock: KIFKEQ_clean_linker_1, # of connection points: 2
#     Edge 58, Type (0, 1), BuildingBlock: KIFKEQ_clean_linker_1, # of connection points: 2
#     Edge 59, Type (0, 1), BuildingBlock: KIFKEQ_clean_linker_1, # of connection points: 2
#     Edge 60, Type (0, 1), BuildingBlock: KIFKEQ_clean_linker_1, # of connection points: 2
#     Edge 61, Type (0, 1), BuildingBlock: KIFKEQ_clean_linker_1, # of connection points: 2
#     Edge 62, Type (0, 1), BuildingBlock: KIFKEQ_clean_linker_1, # of connection points: 2
#     Edge 63, Type (0, 1), BuildingBlock: KIFKEQ_clean_linker_1, # of connection points: 2
#     Edge 64, Type (0, 1), BuildingBlock: KIFKEQ_clean_linker_1, # of connection points: 2
#     Edge 65, Type (0, 1), BuildingBlock: KIFKEQ_clean_linker_1, # of connection points: 2
#     Edge 66, Type (0, 1), BuildingBlock: KIFKEQ_clean_linker_1, # of connection points: 2
#     Edge 67, Type (0, 1), BuildingBlock: KIFKEQ_clean_linker_1, # of connection points: 2
#     Edge 68, Type (0, 1), BuildingBlock: KIFKEQ_clean_linker_1, # of connection points: 2
#     Edge 69, Type (0, 1), BuildingBlock: KIFKEQ_clean_linker_1, # of connection points: 2
#     Edge 70, Type (0, 1), BuildingBlock: KIFKEQ_clean_linker_1, # of connection points: 2
#     Edge 71, Type (0, 1), BuildingBlock: KIFKEQ_clean_linker_1, # of connection points: 2
#     Edge 72, Type (0, 1), BuildingBlock: KIFKEQ_clean_linker_1, # of connection points: 2
#     Edge 73, Type (0, 1), BuildingBlock: KIFKEQ_clean_linker_1, # of connection points: 2
#     Edge 74, Type (0, 1), BuildingBlock: KIFKEQ_clean_linker_1, # of connection points: 2
#     Edge 75, Type (0, 1), BuildingBlock: KIFKEQ_clean_linker_1, # of connection points: 2
#     Edge 76, Type (0, 1), BuildingBlock: KIFKEQ_clean_linker_1, # of connection points: 2
#     Edge 77, Type (0, 1), BuildingBlock: KIFKEQ_clean_linker_1, # of connection points: 2
#     Edge 78, Type (0, 1), BuildingBlock: KIFKEQ_clean_linker_1, # of connection points: 2
#     Edge 79, Type (0, 1), BuildingBlock: KIFKEQ_clean_linker_1, # of connection points: 2
#     Edge 80, Type (0, 1), BuildingBlock: KIFKEQ_clean_linker_1, # of connection points: 2
#     Edge 81, Type (0, 1), BuildingBlock: KIFKEQ_clean_linker_1, # of connection points: 2
#     Edge 82, Type (0, 1), BuildingBlock: KIFKEQ_clean_linker_1, # of connection points: 2
#     Edge 83, Type (0, 1), BuildingBlock: KIFKEQ_clean_linker_1, # of connection points: 2
#     Edge 84, Type (0, 1), BuildingBlock: KIFKEQ_clean_linker_1, # of connection points: 2
#     Edge 85, Type (0, 1), BuildingBlock: KIFKEQ_clean_linker_1, # of connection points: 2
#     Edge 86, Type (0, 1), BuildingBlock: KIFKEQ_clean_linker_1, # of connection points: 2
#     Edge 87, Type (0, 1), BuildingBlock: KIFKEQ_clean_linker_1, # of connection points: 2
#     Edge 88, Type (0, 1), BuildingBlock: KIFKEQ_clean_linker_1, # of connection points: 2
#     Edge 89, Type (0, 1), BuildingBlock: KIFKEQ_clean_linker_1, # of connection points: 2
#     Edge 90, Type (0, 1), BuildingBlock: KIFKEQ_clean_linker_1, # of connection points: 2
#     Edge 91, Type (0, 1), BuildingBlock: KIFKEQ_clean_linker_1, # of connection points: 2
#     Edge 92, Type (0, 1), BuildingBlock: KIFKEQ_clean_linker_1, # of connection points: 2
#     Edge 93, Type (0, 1), BuildingBlock: KIFKEQ_clean_linker_1, # of connection points: 2
#     Edge 94, Type (0, 1), BuildingBlock: KIFKEQ_clean_linker_1, # of connection points: 2
#     Edge 95, Type (0, 1), BuildingBlock: KIFKEQ_clean_linker_1, # of connection points: 2
#     Edge 96, Type (0, 1), BuildingBlock: KIFKEQ_clean_linker_1, # of connection points: 2
#     Edge 97, Type (0, 1), BuildingBlock: KIFKEQ_clean_linker_1, # of connection points: 2
#     Edge 98, Type (0, 1), BuildingBlock: KIFKEQ_clean_linker_1, # of connection points: 2
#     Edge 99, Type (0, 1), BuildingBlock: KIFKEQ_clean_linker_1, # of connection points: 2
#     Edge 100, Type (0, 1), BuildingBlock: KIFKEQ_clean_linker_1, # of connection points: 2
#     Edge 101, Type (0, 1), BuildingBlock: KIFKEQ_clean_linker_1, # of connection points: 2
#     Edge 102, Type (0, 1), BuildingBlock: KIFKEQ_clean_linker_1, # of connection points: 2
#     Edge 103, Type (0, 1), BuildingBlock: KIFKEQ_clean_linker_1, # of connection points: 2
#     Edge 104, Type (0, 1), BuildingBlock: KIFKEQ_clean_linker_1, # of connection points: 2
#     Edge 105, Type (0, 1), BuildingBlock: KIFKEQ_clean_linker_1, # of connection points: 2
#     Edge 106, Type (0, 1), BuildingBlock: KIFKEQ_clean_linker_1, # of connection points: 2
#     Edge 107, Type (0, 1), BuildingBlock: KIFKEQ_clean_linker_1, # of connection points: 2
#     Edge 108, Type (0, 1), BuildingBlock: KIFKEQ_clean_linker_1, # of connection points: 2
#     Edge 109, Type (0, 1), BuildingBlock: KIFKEQ_clean_linker_1, # of connection points: 2
#     Edge 110, Type (0, 1), BuildingBlock: KIFKEQ_clean_linker_1, # of connection points: 2
#     Edge 111, Type (0, 1), BuildingBlock: KIFKEQ_clean_linker_1, # of connection points: 2
#     Edge 112, Type (0, 1), BuildingBlock: KIFKEQ_clean_linker_1, # of connection points: 2
#     Edge 113, Type (0, 1), BuildingBlock: KIFKEQ_clean_linker_1, # of connection points: 2
#     Edge 114, Type (0, 1), BuildingBlock: KIFKEQ_clean_linker_1, # of connection points: 2
#     Edge 115, Type (0, 1), BuildingBlock: KIFKEQ_clean_linker_1, # of connection points: 2
#     Edge 116, Type (0, 1), BuildingBlock: KIFKEQ_clean_linker_1, # of connection points: 2
#     Edge 117, Type (0, 1), BuildingBlock: KIFKEQ_clean_linker_1, # of connection points: 2
#     Edge 118, Type (0, 1), BuildingBlock: KIFKEQ_clean_linker_1, # of connection points: 2
#     Edge 119, Type (0, 1), BuildingBlock: KIFKEQ_clean_linker_1, # of connection points: 2
#     Edge 120, Type (0, 1), BuildingBlock: KIFKEQ_clean_linker_1, # of connection points: 2
#     Edge 121, Type (0, 1), BuildingBlock: KIFKEQ_clean_linker_1, # of connection points: 2
#     Edge 122, Type (0, 1), BuildingBlock: KIFKEQ_clean_linker_1, # of connection points: 2
#     Edge 123, Type (0, 1), BuildingBlock: KIFKEQ_clean_linker_1, # of connection points: 2
#     Edge 124, Type (0, 1), BuildingBlock: KIFKEQ_clean_linker_1, # of connection points: 2
#     Edge 125, Type (0, 1), BuildingBlock: KIFKEQ_clean_linker_1, # of connection points: 2
#     Edge 126, Type (0, 1), BuildingBlock: KIFKEQ_clean_linker_1, # of connection points: 2
#     Edge 127, Type (0, 1), BuildingBlock: KIFKEQ_clean_linker_1, # of connection points: 2
#     Edge 128, Type (0, 1), BuildingBlock: KIFKEQ_clean_linker_1, # of connection points: 2
#     Edge 129, Type (0, 1), BuildingBlock: KIFKEQ_clean_linker_1, # of connection points: 2
#     Edge 130, Type (0, 1), BuildingBlock: KIFKEQ_clean_linker_1, # of connection points: 2
#     Edge 131, Type (0, 1), BuildingBlock: KIFKEQ_clean_linker_1, # of connection points: 2
#     Edge 132, Type (0, 1), BuildingBlock: KIFKEQ_clean_linker_1, # of connection points: 2
#     Edge 133, Type (0, 1), BuildingBlock: KIFKEQ_clean_linker_1, # of connection points: 2
#     Edge 134, Type (0, 1), BuildingBlock: KIFKEQ_clean_linker_1, # of connection points: 2
#     Edge 135, Type (0, 1), BuildingBlock: KIFKEQ_clean_linker_1, # of connection points: 2
# Relax obj value: 0.219
# Max RMSD: 0.326
# Mean RMSD: 0.201
data_MOF--net-gar--node1-AZAVOO_clean_sbu_0--node2-BETFEN_clean_sbu_0--edge1-KIFKEQ_clean_linker_1
_symmetry_space_group_name_H-M    P1
_symmetry_Int_Tables_number       1
_symmetry_cell_setting            triclinic
loop_
_symmetry_equiv_pos_as_xyz
'x, y, z'
_cell_length_a     65.751046
_cell_length_b     56.403248
_cell_length_c     57.472366
_cell_angle_alpha  97.004821
_cell_angle_beta   98.900368
_cell_angle_gamma 103.84023
loop_
_atom_site_label
_atom_site_type_symbol
_atom_site_fract_x
_atom_site_fract_y
_atom_site_fract_z
_atom_type_partial_charge
Mg0 Mg 0.02397 0.31328 0.4052 0.0
O1 O 0.03127 0.35161 0.42995 0.0
O2 O 1.00452 0.34813 0.4501 0.0
Mg3 Mg 0.97972 0.31036 0.43685 0.0
C4 C 0.02183 0.36075 0.44532 0.0
C5 C 0.05783 0.31314 0.37554 0.0
O6 O 0.03928 0.30408 0.36104 0.0
O7 O 0.03171 0.2915 0.43555 0.0
O8 O 1.0018 0.28649 0.45036 0.0
O9 O 1.00607 0.32801 0.37642 0.0
O10 O 0.99096 0.3085 0.40279 0.0
C11 C 0.01961 0.28148 0.44906 0.0
C12 C 0.98903 0.31993 0.38485 0.0
O13 O 0.05798 0.32033 0.39746 0.0
Mg14 Mg 0.07152 0.85515 0.66302 0.0
O15 O 0.06543 0.81698 0.63825 0.0
O16 O 0.03393 0.81095 0.61422 0.0
Mg17 Mg 0.01832 0.84194 0.62532 0.0
C18 C 0.05063 0.80394 0.62116 0.0
C19 C 0.11275 0.85096 0.69442 0.0
O20 O 0.09808 0.84495 0.70735 0.0
O21 O 0.07673 0.87996 0.63376 0.0
O22 O 0.04296 0.87294 0.61475 0.0
O23 O 0.05507 0.83673 0.69041 0.0
O24 O 0.03856 0.8507 0.66106 0.0
C25 C 0.06261 0.88492 0.61844 0.0
C26 C 0.03758 0.84039 0.67969 0.0
O27 O 0.10726 0.8566 0.67401 0.0
Mg28 Mg 0.52294 0.81209 0.90638 0.0
O29 O 0.53013 0.85027 0.93112 0.0
O30 O 0.50327 0.84705 0.95106 0.0
Mg31 Mg 0.47839 0.80936 0.93751 0.0
C32 C 0.52068 0.85954 0.94639 0.0
C33 C 0.56184 0.82616 0.8811 0.0
O34 O 0.54693 0.83136 0.86613 0.0
O35 O 0.53016 0.79034 0.93674 0.0
O36 O 0.50014 0.78525 0.95133 0.0
O37 O 0.50531 0.82695 0.87743 0.0
O38 O 0.48997 0.80739 0.90362 0.0
C39 C 0.51797 0.78028 0.95014 0.0
C40 C 0.4882 0.81887 0.88571 0.0
O41 O 0.5574 0.81911 0.90035 0.0
Mg42 Mg 0.57237 0.35147 0.15792 0.0
O43 O 0.56518 0.31338 0.13233 0.0
O44 O 0.53307 0.3083 0.11002 0.0
Mg45 Mg 0.51871 0.34019 0.12148 0.0
C46 C 0.54962 0.30065 0.11584 0.0
C47 C 0.61733 0.36211 0.18967 0.0
O48 O 0.60701 0.37338 0.20329 0.0
O49 O 0.57768 0.3765 0.12869 0.0
O50 O 0.54376 0.37022 0.11045 0.0
O51 O 0.55596 0.33359 0.18579 0.0
O52 O 0.5397 0.34798 0.15657 0.0
C53 C 0.5635 0.38171 0.11363 0.0
C54 C 0.53861 0.3377 0.17518 0.0
O55 O 0.60774 0.35151 0.16863 0.0
Mg56 Mg 0.08518 0.86602 0.15993 0.0
O57 O 0.08038 0.82757 0.13681 0.0
O58 O 0.04797 0.81792 0.11387 0.0
Mg59 Mg 0.03109 0.84795 0.12271 0.0
C60 C 0.06561 0.81284 0.12076 0.0
C61 C 0.1257 0.85117 0.18227 0.0
O62 O 0.10989 0.83259 0.18402 0.0
O63 O 0.08876 0.88808 0.12808 0.0
O64 O 0.05467 0.87705 0.10903 0.0
O65 O 0.0696 0.84821 0.18829 0.0
O66 O 0.05201 0.8598 0.15797 0.0
C67 C 0.07393 0.8899 0.11149 0.0
C68 C 0.05159 0.85003 0.17697 0.0
O69 O 0.12128 0.86862 0.17194 0.0
Mg70 Mg 0.51234 0.80591 0.40297 0.0
O71 O 0.51777 0.84318 0.42856 0.0
O72 O 0.48971 0.83788 0.44675 0.0
Mg73 Mg 0.46672 0.79941 0.43295 0.0
C74 C 0.50726 0.85131 0.44329 0.0
C75 C 0.55445 0.83098 0.38533 0.0
O76 O 0.54208 0.84432 0.37681 0.0
O77 O 0.52057 0.78534 0.43376 0.0
O78 O 0.49111 0.77929 0.44939 0.0
O79 O 0.49451 0.82002 0.37357 0.0
O80 O 0.47889 0.80002 0.3993 0.0
C81 C 0.50956 0.77595 0.44845 0.0
C82 C 0.4772 0.81163 0.38139 0.0
O83 O 0.54724 0.81483 0.39773 0.0
Mg84 Mg 0.58387 0.36587 0.6633 0.0
O85 O 0.57928 0.32765 0.63995 0.0
O86 O 0.54699 0.31802 0.61677 0.0
Mg87 Mg 0.53006 0.34801 0.6256 0.0
C88 C 0.56462 0.31296 0.62376 0.0
C89 C 0.62427 0.3511 0.68571 0.0
O90 O 0.60844 0.33253 0.68745 0.0
O91 O 0.58778 0.38819 0.63179 0.0
O92 O 0.55383 0.37732 0.61233 0.0
O93 O 0.56822 0.34763 0.69131 0.0
O94 O 0.55066 0.35944 0.6611 0.0
C95 C 0.57313 0.39016 0.6151 0.0
C96 C 0.55021 0.34938 0.67993 0.0
O97 O 0.61989 0.36855 0.67538 0.0
Mg98 Mg 0.01046 0.30514 0.90201 0.0
O99 O 0.01672 0.34314 0.92629 0.0
O100 O 0.99032 0.33945 0.94703 0.0
Mg101 Mg 0.96642 0.30126 0.93408 0.0
C102 C 0.00742 0.35211 0.94187 0.0
C103 C 0.05244 0.32824 0.88304 0.0
O104 O 0.04023 0.34116 0.87335 0.0
O105 O 0.0191 0.2855 0.9332 0.0
O106 O 0.99032 0.28029 0.95002 0.0
O107 O 0.9925 0.31869 0.87258 0.0
O108 O 0.97731 0.30011 0.89947 0.0
C109 C 0.00853 0.27654 0.9484 0.0
C110 C 0.97544 0.31115 0.88116 0.0
O111 O 0.04507 0.31308 0.89626 0.0
Mg112 Mg 0.47951 0.20527 0.34519 0.0
O113 O 0.45383 0.16899 0.34108 0.0
O114 O 0.44089 0.16668 0.37473 0.0
Mg115 Mg 0.4563 0.20363 0.3989 0.0
C116 C 0.44145 0.15754 0.35348 0.0
C117 C 0.49879 0.2013 0.30135 0.0
O118 O 0.51493 0.21364 0.31838 0.0
O119 O 0.45333 0.22416 0.33765 0.0
O120 O 0.43841 0.22006 0.36989 0.0
O121 O 0.50294 0.18728 0.36089 0.0
O122 O 0.48459 0.20677 0.38217 0.0
C123 C 0.43884 0.22659 0.34941 0.0
C124 C 0.49712 0.19234 0.38099 0.0
O125 O 0.4802 0.19622 0.30611 0.0
Mg126 Mg 0.28414 0.21868 0.50707 0.0
O127 O 0.28763 0.24338 0.54364 0.0
O128 O 0.31991 0.26981 0.55165 0.0
Mg129 Mg 0.33753 0.26194 0.52104 0.0
C130 C 0.30198 0.26097 0.55745 0.0
C131 C 0.24233 0.18633 0.5176 0.0
O132 O 0.25742 0.17738 0.52794 0.0
O133 O 0.28113 0.2489 0.48327 0.0
O134 O 0.31484 0.27243 0.4916 0.0
O135 O 0.29916 0.19253 0.52589 0.0
O136 O 0.31764 0.22332 0.51157 0.0
C137 C 0.2958 0.26684 0.47956 0.0
C138 C 0.31746 0.20479 0.52257 0.0
O139 O 0.24768 0.20452 0.50662 0.0
Mg140 Mg 0.17595 0.08605 0.83938 0.0
O141 O 0.19076 0.12752 0.84152 0.0
O142 O 0.20734 0.14144 0.87948 0.0
Mg143 Mg 0.19836 0.11106 0.90208 0.0
C144 C 0.20285 0.14468 0.85785 0.0
C145 C 0.17253 0.08911 0.78263 0.0
O146 O 0.17786 0.08237 0.76223 0.0
O147 O 0.20865 0.0809 0.8465 0.0
O148 O 0.2215 0.09193 0.88565 0.0
O149 O 0.14425 0.09143 0.84495 0.0
O150 O 0.17071 0.09128 0.87359 0.0
C151 C 0.22315 0.08317 0.86465 0.0
C152 C 0.15156 0.093 0.86751 0.0
O153 O 0.17768 0.07887 0.80024 0.0
Mg154 Mg 0.32089 0.9545 0.04737 0.0
O155 O 0.31363 0.92837 0.01017 0.0
O156 O 0.34059 0.91056 0.0117 0.0
Mg157 Mg 0.36336 0.92281 0.04815 0.0
C158 C 0.32369 0.91432 1.00027 0.0
C159 C 0.28901 0.98539 0.04517 0.0
O160 O 0.3081 1.00092 0.05034 0.0
O161 O 0.31119 0.92369 0.06981 0.0
O162 O 0.33916 0.90751 0.07163 0.0
O163 O 0.34117 0.98423 0.03193 0.0
O164 O 0.35382 0.95764 0.05089 0.0
C165 C 0.3217 0.90913 0.07806 0.0
C166 C 0.35731 0.97596 0.03943 0.0
O167 O 0.28766 0.96226 0.04184 0.0
Mg168 Mg 0.32934 0.45259 0.05898 0.0
O169 O 0.32243 0.42758 0.02159 0.0
O170 O 0.3481 0.40774 0.02216 0.0
Mg171 Mg 0.37124 0.42027 0.05853 0.0
C172 C 0.33136 0.41243 0.01145 0.0
C173 C 0.29088 0.47388 0.03967 0.0
O174 O 0.30532 0.48465 0.02815 0.0
O175 O 0.31916 0.42046 0.07985 0.0
O176 O 0.34674 0.40371 0.0814 0.0
O177 O 0.34979 0.48336 0.04479 0.0
O178 O 0.36259 0.456 0.06225 0.0
C179 C 0.32914 0.40521 0.08755 0.0
C180 C 0.36606 0.47502 0.05161 0.0
O181 O 0.29541 0.4587 0.05303 0.0
Mg182 Mg 0.79481 0.21657 0.01974 0.0
O183 O 0.80031 0.24204 0.05656 0.0
O184 O 0.83332 0.26661 0.06276 0.0
Mg185 Mg 0.84831 0.25795 0.02992 0.0
C186 C 0.81574 0.25893 0.06974 0.0
C187 C 0.74909 0.18195 0.01044 0.0
O188 O 0.75946 0.16844 0.9992 0.0
O189 O 0.79085 0.24645 0.99652 0.0
O190 O 0.8246 0.26927 1.00168 0.0
O191 O 0.80939 0.18947 0.03719 0.0
O192 O 0.82768 0.21956 0.0217 0.0
C193 C 0.805 0.26383 0.99126 0.0
C194 C 0.82743 0.20069 0.03228 0.0
O195 O 0.75908 0.20385 0.02074 0.0
Mg196 Mg 0.12684 0.46799 0.23438 0.0
O197 O 0.14738 0.50678 0.25049 0.0
O198 O 0.15254 0.51356 0.29042 0.0
Mg199 Mg 0.13916 0.47568 0.29986 0.0
C200 C 0.155 0.5208 0.27064 0.0
C201 C 0.11517 0.46709 0.18106 0.0
O202 O 0.1008 0.44782 0.18438 0.0
O203 O 0.15731 0.45544 0.241 0.0
O204 O 0.16381 0.46309 0.28104 0.0
O205 O 0.0978 0.48004 0.2385 0.0
O206 O 0.1159 0.46495 0.2662 0.0
C207 C 0.16904 0.45655 0.26123 0.0
C208 C 0.10108 0.4756 0.26011 0.0
O209 O 0.13068 0.47777 0.19805 0.0
Mg210 Mg 0.82848 0.95301 0.55911 0.0
O211 O 0.82327 0.92711 0.52245 0.0
O212 O 0.85015 0.90919 0.52573 0.0
Mg213 Mg 0.8725 0.92379 0.56244 0.0
C214 C 0.83341 0.91259 0.51353 0.0
C215 C 0.7895 0.97266 0.53828 0.0
O216 O 0.80408 0.98406 0.52727 0.0
O217 O 0.81855 0.92124 0.58068 0.0
O218 O 0.84794 0.90777 0.58533 0.0
O219 O 0.84862 0.98405 0.54471 0.0
O220 O 0.86196 0.9581 0.56378 0.0
C221 C 0.82965 0.9079 0.59027 0.0
C222 C 0.86518 0.97668 0.55258 0.0
O223 O 0.79414 0.95753 0.55165 0.0
Mg224 Mg 0.92459 0.06717 0.20453 0.0
O225 O 0.90564 0.02621 0.20335 0.0
O226 O 0.89684 0.02647 0.2397 0.0
Mg227 Mg 0.90822 0.06444 0.26237 0.0
C228 C 0.89692 0.01531 0.21905 0.0
C229 C 0.93316 0.08607 0.16187 0.0
O230 O 0.9341 0.10445 0.17878 0.0
O231 O 0.8939 0.07884 0.19957 0.0
O232 O 0.88532 0.07731 0.23567 0.0
O233 O 0.95488 0.05908 0.21912 0.0
O234 O 0.93288 0.07082 0.24088 0.0
C235 C 0.88164 0.08139 0.21427 0.0
C236 C 0.94969 0.06315 0.23975 0.0
O237 O 0.92569 0.06408 0.16533 0.0
Mg238 Mg 0.29304 0.71582 0.51686 0.0
O239 O 0.29878 0.74061 0.55415 0.0
O240 O 0.33185 0.76496 0.56013 0.0
Mg241 Mg 0.3476 0.75531 0.52825 0.0
C242 C 0.31427 0.75755 0.56722 0.0
C243 C 0.24937 0.68137 0.51881 0.0
O244 O 0.26239 0.667 0.52046 0.0
O245 O 0.29056 0.74682 0.49434 0.0
O246 O 0.32498 0.76715 0.49955 0.0
O247 O 0.3062 0.68741 0.53375 0.0
O248 O 0.32593 0.71763 0.5198 0.0
C249 C 0.30556 0.76317 0.48902 0.0
C250 C 0.32471 0.69828 0.52979 0.0
O251 O 0.25687 0.70387 0.51675 0.0
Mg252 Mg 0.42404 0.55793 0.70468 0.0
O253 O 0.40091 0.51831 0.6996 0.0
O254 O 0.40427 0.53093 0.73762 0.0
Mg255 Mg 0.41829 0.56037 0.76938 0.0
C256 C 0.39625 0.51414 0.71968 0.0
C257 C 0.43058 0.58351 0.66515 0.0
O258 O 0.4333 0.59969 0.68462 0.0
O259 O 0.39682 0.57576 0.7089 0.0
O260 O 0.39905 0.58247 0.74881 0.0
O261 O 0.45286 0.54349 0.71311 0.0
O262 O 0.43547 0.55633 0.73995 0.0
C263 C 0.39161 0.5853 0.72771 0.0
C264 C 0.45052 0.54687 0.7351 0.0
O265 O 0.42203 0.56086 0.6657 0.0
Mg266 Mg 0.62804 0.97004 0.72302 0.0
O267 O 0.65251 0.00534 0.7414 0.0
O268 O 0.65332 0.01148 0.78076 0.0
Mg269 Mg 0.62962 0.97723 0.78767 0.0
C270 C 0.65996 0.01805 0.76219 0.0
C271 C 0.63948 0.97866 0.66995 0.0
O272 O 0.65173 0.97541 0.6545 0.0
O273 O 0.65188 0.94994 0.73696 0.0
O274 O 0.6523 0.9547 0.77632 0.0
O275 O 0.60309 0.9911 0.72091 0.0
O276 O 0.61175 0.97191 0.75088 0.0
C277 C 0.65889 0.94665 0.75793 0.0
C278 C 0.6013 0.9863 0.74208 0.0
O279 O 0.64337 0.97207 0.69016 0.0
Mg280 Mg 0.78405 0.72081 0.00746 0.0
O281 O 0.78852 0.74497 0.0445 0.0
O282 O 0.82112 0.77065 0.05233 0.0
Mg283 Mg 0.83816 0.76223 0.02129 0.0
C284 C 0.80319 0.76221 0.05831 0.0
C285 C 0.73755 0.68613 0.99771 0.0
O286 O 0.74743 0.67253 0.98581 0.0
O287 O 0.78162 0.75216 0.98483 0.0
O288 O 0.81583 0.77402 0.99258 0.0
O289 O 0.79827 0.69312 0.0249 0.0
O290 O 0.81718 0.7242 0.01125 0.0
C291 C 0.79671 0.76956 0.98098 0.0
C292 C 0.81667 0.70508 0.02144 0.0
O293 O 0.7479 0.70797 0.0079 0.0
Mg294 Mg 0.97763 0.70803 0.84215 0.0
O295 O 0.95641 0.66865 0.83675 0.0
O296 O 0.93937 0.66508 0.86748 0.0
Mg297 Mg 0.95008 0.70213 0.89237 0.0
C298 C 0.94322 0.6561 0.84764 0.0
C299 C 1.0005 0.70681 0.80051 0.0
O300 O 0.01589 0.71946 0.81821 0.0
O301 O 0.94822 0.72028 0.83105 0.0
O302 O 0.93181 0.717 0.86217 0.0
O303 O 1.0041 0.69648 0.86077 0.0
O304 O 0.98026 0.70925 0.87888 0.0
C305 C 0.93268 0.72211 0.84121 0.0
C306 C 0.99607 0.69921 0.87977 0.0
O307 O 0.98157 0.70076 0.80416 0.0
Mg308 Mg 0.8187 0.45444 0.54885 0.0
O309 O 0.81159 0.42905 0.51124 0.0
O310 O 0.83653 0.40816 0.51323 0.0
Mg311 Mg 0.85997 0.42098 0.54931 0.0
C312 C 0.8204 0.41337 0.50165 0.0
C313 C 0.78336 0.47782 0.56038 0.0
O314 O 0.79884 0.48536 0.5792 0.0
O315 O 0.80823 0.42326 0.57083 0.0
O316 O 0.83582 0.4064 0.57295 0.0
O317 O 0.83982 0.48444 0.53463 0.0
O318 O 0.85137 0.45649 0.55254 0.0
C319 C 0.8184 0.40844 0.57922 0.0
C320 C 0.85555 0.47539 0.54191 0.0
O321 O 0.78572 0.46287 0.54312 0.0
Mg322 Mg 0.66726 0.59717 0.33943 0.0
O323 O 0.68655 0.63715 0.34192 0.0
O324 O 0.70742 0.64882 0.3781 0.0
Mg325 Mg 0.70018 0.6169 0.39926 0.0
C326 C 0.70099 0.65311 0.35729 0.0
C327 C 0.63319 0.54543 0.32135 0.0
O328 O 0.62223 0.52311 0.32286 0.0
O329 O 0.69675 0.58504 0.33665 0.0
O330 O 0.71581 0.59507 0.37387 0.0
O331 O 0.64131 0.60924 0.35482 0.0
O332 O 0.66845 0.60114 0.37633 0.0
C333 C 0.7131 0.58542 0.35192 0.0
C334 C 0.65095 0.60737 0.37546 0.0
O335 O 0.6489 0.55684 0.33785 0.0
Pr336 Pr 0.02904 0.07426 0.01989 0.0
Pr337 Pr 0.07825 0.10037 0.03885 0.0
C338 C 0.9863 0.06532 0.01424 0.0
C339 C 0.97117 0.08064 0.01683 0.0
C340 C 0.95058 0.07302 1.00287 0.0
C341 C 0.9359 0.08701 1.00563 0.0
C342 C 0.94146 0.10894 0.02255 0.0
C343 C 0.96228 0.11666 0.03631 0.0
C344 C 0.97699 0.10273 0.0334 0.0
C345 C 0.05492 0.07433 0.9862 0.0
C346 C 0.04874 0.13621 0.02216 0.0
C347 C 0.12094 0.10938 0.04578 0.0
C348 C 0.1364 0.094 0.04689 0.0
C349 C 0.15164 0.09702 0.06776 0.0
C350 C 0.16669 0.08311 0.06883 0.0
C351 C 0.16698 0.06597 0.04895 0.0
C352 C 0.15141 0.06268 0.0282 0.0
C353 C 0.13627 0.07643 0.02721 0.0
C354 C 0.05155 0.10145 0.07144 0.0
C355 C 0.05867 0.03843 0.03741 0.0
O356 O 0.99851 0.06382 0.03398 0.0
O357 O 0.99639 0.0676 0.99636 0.0
O358 O 0.05624 0.09189 1.00251 0.0
O359 O 0.03871 0.05552 0.98574 0.0
O360 O 0.06859 0.1342 0.02537 0.0
O361 O 0.03243 0.11744 0.02309 0.0
O362 O 0.10898 0.1079 0.0249 0.0
O363 O 0.11067 0.11066 0.06352 0.0
O364 O 0.05102 0.08339 0.0561 0.0
O365 O 0.06732 0.12055 0.07136 0.0
O366 O 0.03876 0.04004 0.03243 0.0
O367 O 0.07518 0.05746 0.03779 0.0
H368 H 0.94582 0.05615 0.98987 0.0
H369 H 0.92022 0.08069 0.99436 0.0
H370 H 0.96715 0.13324 0.04968 0.0
H371 H 0.99286 0.1091 0.04426 0.0
H372 H 0.15202 0.11028 0.08324 0.0
H373 H 0.17812 0.08587 0.08529 0.0
H374 H 0.15123 0.04996 0.01241 0.0
H375 H 0.12467 0.07348 0.01085 0.0
Pr376 Pr 0.31544 0.86464 0.29586 0.0
Pr377 Pr 0.29013 0.80682 0.26893 0.0
C378 C 0.34661 0.9047 0.31664 0.0
C379 C 0.35333 0.93044 0.31346 0.0
C380 C 0.33868 0.94201 0.30241 0.0
C381 C 0.34536 0.96681 0.29991 0.0
C382 C 0.36677 0.98011 0.30817 0.0
C383 C 0.38142 0.96818 0.31869 0.0
C384 C 0.37472 0.94349 0.32131 0.0
C385 C 0.2728 0.86053 0.27511 0.0
C386 C 0.30851 0.8499 0.23608 0.0
C387 C 0.2593 0.76605 0.24897 0.0
C388 C 0.25204 0.74049 0.25333 0.0
C389 C 0.26106 0.72192 0.24432 0.0
C390 C 0.25383 0.69772 0.24834 0.0
C391 C 0.23758 0.69178 0.2615 0.0
C392 C 0.22869 0.71031 0.27066 0.0
C393 C 0.23575 0.73442 0.26648 0.0
C394 C 0.33297 0.81138 0.28947 0.0
C395 C 0.29672 0.82161 0.32867 0.0
O396 O 0.34894 0.88839 0.29959 0.0
O397 O 0.32865 0.89818 0.32443 0.0
O398 O 0.2825 0.84384 0.27576 0.0
O399 O 0.28559 0.88125 0.28708 0.0
O400 O 0.29643 0.82752 0.23657 0.0
O401 O 0.3186 0.86603 0.25569 0.0
O402 O 0.25655 0.78344 0.26463 0.0
O403 O 0.27744 0.77214 0.24144 0.0
O404 O 0.32294 0.82773 0.28916 0.0
O405 O 0.32044 0.79067 0.27724 0.0
O406 O 0.30894 0.84386 0.32804 0.0
O407 O 0.28664 0.80544 0.30908 0.0
H408 H 0.32211 0.93195 0.29597 0.0
H409 H 0.33382 0.97561 0.29165 0.0
H410 H 0.39795 0.97815 0.32557 0.0
H411 H 0.38617 0.93466 0.32973 0.0
H412 H 0.27358 0.72601 0.23403 0.0
H413 H 0.26086 0.68361 0.24111 0.0
H414 H 0.21584 0.70599 0.28049 0.0
H415 H 0.22832 0.74826 0.27341 0.0
Pr416 Pr 0.5754 0.08766 0.54348 0.0
Pr417 Pr 0.52632 0.07952 0.53965 0.0
C418 C 0.61647 0.08567 0.54901 0.0
C419 C 0.63076 0.06929 0.54569 0.0
C420 C 0.64471 0.07381 0.52959 0.0
C421 C 0.65966 0.06013 0.52744 0.0
C422 C 0.66112 0.04158 0.54142 0.0
C423 C 0.64687 0.03675 0.55727 0.0
C424 C 0.63184 0.05045 0.55939 0.0
C425 C 0.55559 0.10743 0.50741 0.0
C426 C 0.54164 0.03289 0.51598 0.0
C427 C 0.48525 0.08142 0.53331 0.0
C428 C 0.47072 0.09756 0.53566 0.0
C429 C 0.45354 0.0901 0.5472 0.0
C430 C 0.43839 0.10364 0.54812 0.0
C431 C 0.43998 0.12498 0.53741 0.0
C432 C 0.45761 0.13291 0.52646 0.0
C433 C 0.47284 0.1193 0.52556 0.0
C434 C 0.54626 0.06086 0.57677 0.0
C435 C 0.55967 0.1347 0.56583 0.0
O436 O 0.60532 0.08323 0.56602 0.0
O437 O 0.60628 0.09102 0.52978 0.0
O438 O 0.54814 0.08637 0.51258 0.0
O439 O 0.57437 0.11841 0.52008 0.0
O440 O 0.5255 0.0431 0.51522 0.0
O441 O 0.56113 0.04511 0.52742 0.0
O442 O 0.49662 0.08357 0.5165 0.0
O443 O 0.49528 0.07671 0.55298 0.0
O444 O 0.55369 0.08154 0.57083 0.0
O445 O 0.52753 0.04956 0.5641 0.0
O446 O 0.57617 0.12499 0.56705 0.0
O447 O 0.54032 0.12188 0.55464 0.0
H448 H 0.6444 0.0884 0.519 0.0
H449 H 0.67055 0.06469 0.51533 0.0
H450 H 0.64736 0.02242 0.56813 0.0
H451 H 0.62134 0.04651 0.57201 0.0
H452 H 0.4516 0.07343 0.55515 0.0
H453 H 0.42529 0.09724 0.5571 0.0
H454 H 0.45927 0.14916 0.51791 0.0
H455 H 0.48598 0.1255 0.51657 0.0
Pr456 Pr 0.27697 0.32556 0.77841 0.0
Pr457 Pr 0.32424 0.32558 0.78857 0.0
C458 C 0.23513 0.32096 0.77785 0.0
C459 C 0.21935 0.3232 0.79316 0.0
C460 C 0.20743 0.34047 0.78969 0.0
C461 C 0.19141 0.34207 0.80268 0.0
C462 C 0.18686 0.32636 0.81946 0.0
C463 C 0.19902 0.30925 0.8232 0.0
C464 C 0.21515 0.3077 0.8102 0.0
C465 C 0.30395 0.36441 0.76401 0.0
C466 C 0.30669 0.34859 0.83367 0.0
C467 C 0.36587 0.32788 0.78983 0.0
C468 C 0.38249 0.32808 0.77506 0.0
C469 C 0.38835 0.30622 0.76835 0.0
C470 C 0.40541 0.30662 0.75645 0.0
C471 C 0.41717 0.32895 0.75115 0.0
C472 C 0.41105 0.35077 0.75753 0.0
C473 C 0.39393 0.35034 0.76934 0.0
C474 C 0.29622 0.28684 0.80237 0.0
C475 C 0.29618 0.30664 0.73259 0.0
O476 O 0.24373 0.30229 0.77844 0.0
O477 O 0.24842 0.34151 0.77561 0.0
O478 O 0.30802 0.35665 0.78346 0.0
O479 O 0.28495 0.35318 0.75207 0.0
O480 O 0.32404 0.3492 0.82463 0.0
O481 O 0.2874 0.33843 0.82049 0.0
O482 O 0.35865 0.34754 0.7929 0.0
O483 O 0.35118 0.30713 0.78804 0.0
O484 O 0.2931 0.29443 0.78275 0.0
O485 O 0.31454 0.29889 0.81548 0.0
O486 O 0.27831 0.30462 0.74098 0.0
O487 O 0.31504 0.3164 0.74665 0.0
H488 H 0.21023 0.35247 0.77651 0.0
H489 H 0.18216 0.35517 0.79902 0.0
H490 H 0.19606 0.29704 0.83616 0.0
H491 H 0.2241 0.29419 0.8133 0.0
H492 H 0.38 0.28879 0.77269 0.0
H493 H 0.40942 0.2894 0.75152 0.0
H494 H 0.4199 0.36838 0.75407 0.0
H495 H 0.39003 0.3676 0.77451 0.0
Pr496 Pr 0.04713 0.07377 0.51669 0.0
Pr497 Pr 0.05851 0.10388 0.56245 0.0
C498 C 0.02953 0.04635 0.47362 0.0
C499 C 0.02757 0.04793 0.44832 0.0
C500 C 0.02833 0.02739 0.43252 0.0
C501 C 0.02529 0.02774 0.4081 0.0
C502 C 0.02135 0.04865 0.39924 0.0
C503 C 0.02148 0.06965 0.41526 0.0
C504 C 0.02466 0.06933 0.43972 0.0
C505 C 0.09078 0.09833 0.52698 0.0
C506 C 0.04532 0.1318 0.51877 0.0
C507 C 0.07562 0.13275 0.6051 0.0
C508 C 0.07816 0.13524 0.63103 0.0
C509 C 0.06188 0.12355 0.64217 0.0
C510 C 0.06507 0.12642 0.66708 0.0
C511 C 0.08459 0.14096 0.68106 0.0
C512 C 0.10057 0.15304 0.66964 0.0
C513 C 0.09734 0.15021 0.64487 0.0
C514 C 0.01496 0.07793 0.55144 0.0
C515 C 0.06197 0.0458 0.55942 0.0
O516 O 0.01926 0.05882 0.48602 0.0
O517 O 0.04854 0.04704 0.48484 0.0
O518 O 0.07609 0.10825 0.53085 0.0
O519 O 0.08312 0.07515 0.51785 0.0
O520 O 0.05845 0.13512 0.53928 0.0
O521 O 0.03589 0.10908 0.5075 0.0
O522 O 0.08556 0.11843 0.59441 0.0
O523 O 0.05683 0.13184 0.59307 0.0
O524 O 0.03026 0.06892 0.54837 0.0
O525 O 0.02182 0.10126 0.56038 0.0
O526 O 0.04921 0.04243 0.53868 0.0
O527 O 0.06989 0.0684 0.57186 0.0
H528 H 0.03083 0.01088 0.43904 0.0
H529 H 0.02552 0.01146 0.39611 0.0
H530 H 0.01821 0.08589 0.40885 0.0
H531 H 0.02429 0.08548 0.45181 0.0
H532 H 0.04688 0.11201 0.63165 0.0
H533 H 0.05249 0.11689 0.67537 0.0
H534 H 0.116 0.16382 0.67976 0.0
H535 H 0.11001 0.15942 0.63647 0.0
Pr536 Pr 0.29205 0.80668 0.78374 0.0
Pr537 Pr 0.31439 0.86365 0.77846 0.0
C538 C 0.27623 0.75741 0.77438 0.0
C539 C 0.28216 0.73669 0.76184 0.0
C540 C 0.28082 0.71505 0.77179 0.0
C541 C 0.28902 0.69639 0.76188 0.0
C542 C 0.29866 0.69917 0.74183 0.0
C543 C 0.29911 0.72044 0.73128 0.0
C544 C 0.29106 0.73916 0.7413 0.0
C545 C 0.29219 0.83893 0.82534 0.0
C546 C 0.34476 0.82937 0.80076 0.0
C547 C 0.3311 0.91278 0.78796 0.0
C548 C 0.32578 0.93292 0.80201 0.0
C549 C 0.33515 0.95752 0.80031 0.0
C550 C 0.32813 0.97657 0.81159 0.0
C551 C 0.31157 0.97101 0.82444 0.0
C552 C 0.30294 0.94638 0.82699 0.0
C553 C 0.31 0.92743 0.81581 0.0
C554 C 0.3144 0.83098 0.73718 0.0
C555 C 0.26147 0.84154 0.76281 0.0
O556 O 0.26927 0.77228 0.76119 0.0
O557 O 0.28947 0.76897 0.79416 0.0
O558 O 0.29926 0.84487 0.80704 0.0
O559 O 0.28353 0.81525 0.82176 0.0
O560 O 0.34271 0.85177 0.79876 0.0
O561 O 0.32869 0.80919 0.79361 0.0
O562 O 0.33849 0.89753 0.80023 0.0
O563 O 0.3168 0.90162 0.76883 0.0
O564 O 0.30732 0.82552 0.75554 0.0
O565 O 0.32265 0.85469 0.74013 0.0
O566 O 0.26338 0.81901 0.76458 0.0
O567 O 0.27777 0.86155 0.76946 0.0
H568 H 0.27421 0.71304 0.7878 0.0
H569 H 0.28879 0.68041 0.77065 0.0
H570 H 0.3063 0.72296 0.71571 0.0
H571 H 0.29243 0.75587 0.73347 0.0
H572 H 0.3473 0.96189 0.78959 0.0
H573 H 0.33481 0.99543 0.80922 0.0
H574 H 0.29022 0.94174 0.83693 0.0
H575 H 0.30262 0.90842 0.81721 0.0
Pr576 Pr 0.55929 0.08358 0.05383 0.0
Pr577 Pr 0.54463 0.08685 0.99744 0.0
C578 C 0.56773 0.09205 0.10164 0.0
C579 C 0.55793 0.1006 0.12104 0.0
C580 C 0.56109 0.09166 0.14259 0.0
C581 C 0.55174 0.09928 0.16131 0.0
C582 C 0.53921 0.11617 0.1588 0.0
C583 C 0.53561 0.12456 0.13684 0.0
C584 C 0.54476 0.11664 0.11801 0.0
C585 C 0.55982 0.03954 0.02508 0.0
C586 C 0.50762 0.0654 0.02837 0.0
C587 C 0.53376 0.0785 0.94965 0.0
C588 C 0.5402 0.06962 0.92772 0.0
C589 C 0.53217 0.07688 0.90653 0.0
C590 C 0.53841 0.0695 0.88534 0.0
C591 C 0.55282 0.05473 0.88502 0.0
C592 C 0.56095 0.04754 0.90641 0.0
C593 C 0.55468 0.05498 0.92769 0.0
C594 C 0.54341 0.13042 0.02681 0.0
C595 C 0.59631 0.10422 0.02264 0.0
O596 O 0.57566 0.10845 0.08885 0.0
O597 O 0.55732 0.07046 0.08904 0.0
O598 O 0.5551 0.0582 0.01791 0.0
O599 O 0.56586 0.0443 0.0481 0.0
O600 O 0.51254 0.06684 0.00706 0.0
O601 O 0.52194 0.0734 0.04844 0.0
O602 O 0.52663 0.06211 0.96282 0.0
O603 O 0.54593 0.09951 0.96195 0.0
O604 O 0.54845 0.11174 0.03337 0.0
O605 O 0.53786 0.12627 1.00375 0.0
O606 O 0.59147 0.10369 0.04412 0.0
O607 O 0.5819 0.09584 1.00266 0.0
H608 H 0.57084 0.07881 0.14494 0.0
H609 H 0.55444 0.09206 0.1778 0.0
H610 H 0.52621 0.13773 0.13438 0.0
H611 H 0.5417 0.12318 0.10121 0.0
H612 H 0.52116 0.08844 0.90642 0.0
H613 H 0.53215 0.07564 0.86925 0.0
H614 H 0.57194 0.03597 0.90662 0.0
H615 H 0.56113 0.0494 0.94403 0.0
Pr616 Pr 0.27906 0.31291 0.2723 0.0
Pr617 Pr 0.32467 0.35239 0.28559 0.0
C618 C 0.23813 0.28824 0.26987 0.0
C619 C 0.22074 0.2915 0.28228 0.0
C620 C 0.19965 0.28367 0.26972 0.0
C621 C 0.18291 0.287 0.28095 0.0
C622 C 0.18688 0.29812 0.3051 0.0
C623 C 0.20816 0.30626 0.31757 0.0
C624 C 0.22494 0.3031 0.30622 0.0
C625 C 0.29682 0.32863 0.23352 0.0
C626 C 0.28346 0.37309 0.29015 0.0
C627 C 0.3633 0.37851 0.28061 0.0
C628 C 0.38074 0.37264 0.26941 0.0
C629 C 0.40043 0.37392 0.28378 0.0
C630 C 0.41687 0.36772 0.27363 0.0
C631 C 0.41402 0.36028 0.24884 0.0
C632 C 0.39432 0.35906 0.23445 0.0
C633 C 0.37783 0.36508 0.24461 0.0
C634 C 0.31324 0.33646 0.32771 0.0
C635 C 0.32081 0.29277 0.27673 0.0
O636 O 0.25424 0.28252 0.28223 0.0
O637 O 0.24394 0.3045 0.25617 0.0
O638 O 0.29727 0.34199 0.25295 0.0
O639 O 0.28652 0.30579 0.2334 0.0
O640 O 0.30354 0.37983 0.28757 0.0
O641 O 0.27303 0.34974 0.28927 0.0
O642 O 0.34557 0.37818 0.26642 0.0
O643 O 0.36004 0.36885 0.29969 0.0
O644 O 0.30257 0.32966 0.30676 0.0
O645 O 0.33047 0.35345 0.32753 0.0
O646 O 0.30138 0.2879 0.28134 0.0
O647 O 0.3299 0.31416 0.27093 0.0
H648 H 0.19612 0.27507 0.25113 0.0
H649 H 0.16683 0.28105 0.27056 0.0
H650 H 0.21187 0.31476 0.33618 0.0
H651 H 0.24116 0.30968 0.31616 0.0
H652 H 0.4031 0.37967 0.30294 0.0
H653 H 0.43193 0.36911 0.28517 0.0
H654 H 0.39154 0.35313 0.21532 0.0
H655 H 0.36279 0.36366 0.23301 0.0
Pr656 Pr 0.54748 0.57146 0.01244 0.0
Pr657 Pr 0.55959 0.60045 0.05842 0.0
C658 C 0.52962 0.54521 0.96889 0.0
C659 C 0.52894 0.54618 0.9435 0.0
C660 C 0.53479 0.52763 0.92961 0.0
C661 C 0.53279 0.52676 0.90507 0.0
C662 C 0.52476 0.54436 0.89405 0.0
C663 C 0.51971 0.56355 0.90811 0.0
C664 C 0.52183 0.5645 0.93273 0.0
C665 C 0.59108 0.59644 0.02192 0.0
C666 C 0.54502 0.62969 0.01667 0.0
C667 C 0.57849 0.62637 0.10191 0.0
C668 C 0.5826 0.6226 0.12666 0.0
C669 C 0.56726 0.60666 0.13604 0.0
C670 C 0.57229 0.60189 0.15916 0.0
C671 C 0.59276 0.61276 0.17292 0.0
C672 C 0.60785 0.62918 0.16367 0.0
C673 C 0.60277 0.63409 0.14067 0.0
C674 C 0.51596 0.57496 0.04826 0.0
C675 C 0.56244 0.54215 0.0539 0.0
O676 O 0.52023 0.55934 0.98074 0.0
O677 O 0.54762 0.54361 0.98096 0.0
O678 O 0.57634 0.60598 0.02637 0.0
O679 O 0.58351 0.5733 0.01262 0.0
O680 O 0.55812 0.63275 0.03713 0.0
O681 O 0.53597 0.60711 1.00475 0.0
O682 O 0.58866 0.61594 0.08763 0.0
O683 O 0.55874 0.62473 0.09228 0.0
O684 O 0.53101 0.56578 0.04433 0.0
O685 O 0.52313 0.5982 0.05756 0.0
O686 O 0.54932 0.53926 0.03349 0.0
O687 O 0.57083 0.56459 0.06645 0.0
H688 H 0.54042 0.51342 0.93769 0.0
H689 H 0.53696 0.51193 0.89462 0.0
H690 H 0.5132 0.57717 0.89998 0.0
H691 H 0.51733 0.57909 0.94314 0.0
H692 H 0.55166 0.59743 0.12533 0.0
H693 H 0.56052 0.58893 0.16589 0.0
H694 H 0.62369 0.63784 0.17408 0.0
H695 H 0.61476 0.64638 0.13358 0.0
Pr696 Pr 0.79274 0.30824 0.28285 0.0
Pr697 Pr 0.81456 0.3661 0.28088 0.0
C698 C 0.77708 0.25903 0.27092 0.0
C699 C 0.78327 0.23754 0.25982 0.0
C700 C 0.79411 0.22437 0.27425 0.0
C701 C 0.80015 0.20412 0.26405 0.0
C702 C 0.79518 0.19628 0.23919 0.0
C703 C 0.78415 0.2093 0.22472 0.0
C704 C 0.77823 0.22976 0.23496 0.0
C705 C 0.79201 0.33748 0.32606 0.0
C706 C 0.84554 0.33116 0.30048 0.0
C707 C 0.83058 0.4153 0.29106 0.0
C708 C 0.82209 0.43562 0.29946 0.0
C709 C 0.83151 0.45967 0.29616 0.0
C710 C 0.82171 0.47855 0.3012 0.0
C711 C 0.80233 0.47338 0.30941 0.0
C712 C 0.79333 0.44935 0.31336 0.0
C713 C 0.80311 0.43055 0.30833 0.0
C714 C 0.81478 0.33571 0.23794 0.0
C715 C 0.76188 0.34399 0.26416 0.0
O716 O 0.77218 0.27449 0.2571 0.0
O717 O 0.78809 0.27 0.2921 0.0
O718 O 0.79927 0.34529 0.30843 0.0
O719 O 0.78377 0.31374 0.32073 0.0
O720 O 0.8435 0.35368 0.29901 0.0
O721 O 0.82943 0.31101 0.29315 0.0
O722 O 0.83399 0.40059 0.30636 0.0
O723 O 0.82111 0.40354 0.26962 0.0
O724 O 0.80816 0.32914 0.25619 0.0
O725 O 0.82204 0.35959 0.24184 0.0
O726 O 0.7639 0.32125 0.26453 0.0
O727 O 0.77802 0.36392 0.27223 0.0
H728 H 0.7981 0.22978 0.29348 0.0
H729 H 0.80905 0.19486 0.27569 0.0
H730 H 0.77993 0.20356 0.20554 0.0
H731 H 0.76969 0.23942 0.22339 0.0
H732 H 0.84602 0.46363 0.28896 0.0
H733 H 0.82883 0.49692 0.29787 0.0
H734 H 0.77854 0.44501 0.32 0.0
H735 H 0.79555 0.41191 0.31068 0.0
Pr736 Pr 0.05929 0.58154 0.55861 0.0
Pr737 Pr 0.04331 0.59022 0.50586 0.0
C738 C 0.06944 0.58699 0.60617 0.0
C739 C 0.06146 0.59828 0.62575 0.0
C740 C 0.06385 0.59003 0.64772 0.0
C741 C 0.05542 0.59997 0.66624 0.0
C742 C 0.04453 0.6183 0.66293 0.0
C743 C 0.04203 0.62631 0.6407 0.0
C744 C 0.05034 0.61625 0.62218 0.0
C745 C 0.05944 0.53943 0.52706 0.0
C746 C 0.00722 0.56392 0.5352 0.0
C747 C 0.03215 0.58684 0.45852 0.0
C748 C 0.0389 0.57681 0.4374 0.0
C749 C 0.03329 0.58467 0.41574 0.0
C750 C 0.04034 0.57591 0.39556 0.0
C751 C 0.05305 0.55915 0.39691 0.0
C752 C 0.05866 0.55139 0.4188 0.0
C753 C 0.05173 0.56031 0.43897 0.0
C754 C 0.04213 0.63129 0.53848 0.0
C755 C 0.0955 0.60629 0.52831 0.0
O756 O 0.07961 0.60226 0.59377 0.0
O757 O 0.05599 0.56721 0.59307 0.0
O758 O 0.05409 0.55827 0.52092 0.0
O759 O 0.06607 0.54302 0.54994 0.0
O760 O 0.01176 0.56709 0.51406 0.0
O761 O 0.02192 0.57088 0.55499 0.0
O762 O 0.02259 0.57064 0.47051 0.0
O763 O 0.04617 0.60593 0.47203 0.0
O764 O 0.04787 0.61245 0.54348 0.0
O765 O 0.03549 0.62853 0.5157 0.0
O766 O 0.09129 0.60289 0.54955 0.0
O767 O 0.08049 0.60031 0.50882 0.0
H768 H 0.0721 0.57582 0.65048 0.0
H769 H 0.05731 0.59321 0.68308 0.0
H770 H 0.03398 0.64065 0.63774 0.0
H771 H 0.04811 0.62251 0.60509 0.0
H772 H 0.02361 0.59772 0.4145 0.0
H773 H 0.03603 0.58244 0.37901 0.0
H774 H 0.06817 0.53821 0.42029 0.0
H775 H 0.05641 0.55439 0.45577 0.0
Pr776 Pr 0.78011 0.83256 0.27905 0.0
Pr777 Pr 0.82724 0.83071 0.28868 0.0
C778 C 0.73865 0.83063 0.27865 0.0
C779 C 0.7223 0.83193 0.29344 0.0
C780 C 0.71135 0.8503 0.29133 0.0
C781 C 0.69453 0.85094 0.30331 0.0
C782 C 0.68809 0.83308 0.31764 0.0
C783 C 0.69946 0.81505 0.32033 0.0
C784 C 0.71639 0.81443 0.3083 0.0
C785 C 0.80773 0.86924 0.26252 0.0
C786 C 0.81025 0.85374 0.33436 0.0
C787 C 0.86865 0.83243 0.28898 0.0
C788 C 0.88502 0.83241 0.27388 0.0
C789 C 0.89012 0.81026 0.26632 0.0
C790 C 0.90703 0.81039 0.25423 0.0
C791 C 0.91939 0.83271 0.24957 0.0
C792 C 0.91401 0.85483 0.25675 0.0
C793 C 0.89704 0.85469 0.26878 0.0
C794 C 0.7988 0.79285 0.30318 0.0
C795 C 0.79812 0.81083 0.2332 0.0
O796 O 0.7459 0.8109 0.27695 0.0
O797 O 0.75318 0.85114 0.27897 0.0
O798 O 0.81191 0.86234 0.28245 0.0
O799 O 0.78836 0.85845 0.25142 0.0
O800 O 0.82751 0.85371 0.3253 0.0
O801 O 0.79089 0.84467 0.32109 0.0
O802 O 0.86172 0.85227 0.29239 0.0
O803 O 0.85381 0.81182 0.28729 0.0
O804 O 0.7954 0.80081 0.28379 0.0
O805 O 0.81786 0.80355 0.3153 0.0
O806 O 0.78046 0.81028 0.24177 0.0
O807 O 0.8172 0.81996 0.24696 0.0
H808 H 0.71556 0.86397 0.27997 0.0
H809 H 0.68643 0.86537 0.30118 0.0
H810 H 0.69485 0.80092 0.33111 0.0
H811 H 0.72452 0.79999 0.31025 0.0
H812 H 0.88132 0.7928 0.27016 0.0
H813 H 0.91047 0.79296 0.24865 0.0
H814 H 0.92332 0.87243 0.25379 0.0
H815 H 0.89373 0.87214 0.27461 0.0
Pr816 Pr 0.81454 0.36438 0.79714 0.0
Pr817 Pr 0.78811 0.30645 0.77079 0.0
C818 C 0.84645 0.40439 0.81599 0.0
C819 C 0.85398 0.42977 0.81124 0.0
C820 C 0.84769 0.44921 0.8232 0.0
C821 C 0.85519 0.47332 0.8192 0.0
C822 C 0.86921 0.47848 0.80325 0.0
C823 C 0.87534 0.45903 0.79107 0.0
C824 C 0.86781 0.43487 0.79504 0.0
C825 C 0.77163 0.36053 0.77758 0.0
C826 C 0.8058 0.34942 0.73736 0.0
C827 C 0.7582 0.26512 0.75034 0.0
C828 C 0.75307 0.23899 0.75337 0.0
C829 C 0.75489 0.22101 0.73525 0.0
C830 C 0.74991 0.19612 0.73766 0.0
C831 C 0.74278 0.18874 0.75812 0.0
C832 C 0.74136 0.20681 0.77647 0.0
C833 C 0.74652 0.23174 0.77415 0.0
C834 C 0.83114 0.31075 0.7903 0.0
C835 C 0.79615 0.32185 0.83047 0.0
O836 O 0.8484 0.38649 0.80029 0.0
O837 O 0.82859 0.39914 0.82424 0.0
O838 O 0.7812 0.34375 0.77801 0.0
O839 O 0.78469 0.38124 0.7892 0.0
O840 O 0.79334 0.32736 0.73825 0.0
O841 O 0.81677 0.36534 0.75674 0.0
O842 O 0.75532 0.28112 0.76734 0.0
O843 O 0.77556 0.27305 0.74183 0.0
O844 O 0.82123 0.32715 0.78991 0.0
O845 O 0.81831 0.28995 0.7787 0.0
O846 O 0.8093 0.34345 0.82951 0.0
O847 O 0.78458 0.30623 0.81112 0.0
H848 H 0.83722 0.44589 0.83595 0.0
H849 H 0.85058 0.48805 0.82926 0.0
H850 H 0.88614 0.46255 0.77868 0.0
H851 H 0.87304 0.42028 0.78561 0.0
H852 H 0.76004 0.22621 0.71914 0.0
H853 H 0.75142 0.18262 0.72337 0.0
H854 H 0.7356 0.20166 0.79229 0.0
H855 H 0.74507 0.24521 0.78851 0.0
Pr856 Pr 0.77841 0.81444 0.77602 0.0
Pr857 Pr 0.82419 0.85451 0.78917 0.0
C858 C 0.74006 0.78698 0.78054 0.0
C859 C 0.72349 0.79154 0.7936 0.0
C860 C 0.70427 0.7733 0.79093 0.0
C861 C 0.68798 0.77802 0.80231 0.0
C862 C 0.69064 0.80114 0.81648 0.0
C863 C 0.71008 0.81931 0.81926 0.0
C864 C 0.72637 0.81452 0.80797 0.0
C865 C 0.78976 0.83169 0.73427 0.0
C866 C 0.78248 0.87421 0.78826 0.0
C867 C 0.86499 0.87894 0.79091 0.0
C868 C 0.88238 0.87378 0.77932 0.0
C869 C 0.90222 0.87532 0.7934 0.0
C870 C 0.91855 0.86922 0.78296 0.0
C871 C 0.91545 0.86162 0.75811 0.0
C872 C 0.89552 0.86021 0.74404 0.0
C873 C 0.87914 0.86605 0.75454 0.0
C874 C 0.80647 0.8393 0.82811 0.0
C875 C 0.82001 0.79409 0.77177 0.0
O876 O 0.75802 0.78615 0.79348 0.0
O877 O 0.74283 0.79952 0.76308 0.0
O878 O 0.80017 0.83778 0.7553 0.0
O879 O 0.77248 0.81458 0.73399 0.0
O880 O 0.80148 0.87973 0.78246 0.0
O881 O 0.77352 0.8521 0.79266 0.0
O882 O 0.84889 0.88357 0.77739 0.0
O883 O 0.85915 0.86475 0.80639 0.0
O884 O 0.80591 0.8256 0.80879 0.0
O885 O 0.81718 0.86194 0.82807 0.0
O886 O 0.79976 0.78731 0.77368 0.0
O887 O 0.83067 0.81746 0.77324 0.0
H888 H 0.70174 0.75553 0.77978 0.0
H889 H 0.67312 0.76375 0.79955 0.0
H890 H 0.71274 0.83719 0.83026 0.0
H891 H 0.74114 0.82883 0.81029 0.0
H892 H 0.905 0.88092 0.81258 0.0
H893 H 0.93347 0.87011 0.79448 0.0
H894 H 0.89257 0.85482 0.72484 0.0
H895 H 0.86395 0.8644 0.74322 0.0
Pr896 Pr 0.52911 0.576 0.52663 0.0
Pr897 Pr 0.57858 0.60295 0.54716 0.0
C898 C 0.48624 0.56588 0.52062 0.0
C899 C 0.47045 0.58044 0.52166 0.0
C900 C 0.44864 0.56863 0.51493 0.0
C901 C 0.43349 0.58213 0.51672 0.0
C902 C 0.43982 0.60791 0.52497 0.0
C903 C 0.46184 0.61963 0.53161 0.0
C904 C 0.47694 0.60598 0.53024 0.0
C905 C 0.55632 0.57734 0.49439 0.0
C906 C 0.54899 0.63815 0.52808 0.0
C907 C 0.62126 0.61147 0.55438 0.0
C908 C 0.63625 0.59552 0.55455 0.0
C909 C 0.65282 0.59906 0.57427 0.0
C910 C 0.6672 0.5843 0.57456 0.0
C911 C 0.66542 0.56569 0.55506 0.0
C912 C 0.64869 0.56203 0.53541 0.0
C913 C 0.63423 0.57667 0.53519 0.0
C914 C 0.55078 0.60348 0.57851 0.0
C915 C 0.55905 0.5406 0.54432 0.0
O916 O 0.49863 0.56661 0.54096 0.0
O917 O 0.49642 0.56723 0.50274 0.0
O918 O 0.55684 0.59426 0.51089 0.0
O919 O 0.53997 0.55828 0.49263 0.0
O920 O 0.56895 0.63662 0.53299 0.0
O921 O 0.53251 0.61912 0.52807 0.0
O922 O 0.60953 0.61124 0.53367 0.0
O923 O 0.61083 0.61196 0.57206 0.0
O924 O 0.55067 0.58557 0.56319 0.0
O925 O 0.56685 0.62259 0.5793 0.0
O926 O 0.53909 0.54191 0.53891 0.0
O927 O 0.57552 0.55993 0.54547 0.0
H928 H 0.44331 0.54886 0.5086 0.0
H929 H 0.41679 0.57216 0.512 0.0
H930 H 0.46754 0.63939 0.53775 0.0
H931 H 0.49369 0.61535 0.53605 0.0
H932 H 0.65471 0.61339 0.58942 0.0
H933 H 0.68 0.58779 0.5899 0.0
H934 H 0.64665 0.54767 0.52025 0.0
H935 H 0.62148 0.57321 0.51979 0.0
Pr936 Pr 0.07549 0.58833 0.03683 0.0
Pr937 Pr 0.0261 0.58013 0.03327 0.0
C938 C 0.11648 0.58641 0.04046 0.0
C939 C 0.13118 0.57027 0.03933 0.0
C940 C 0.14558 0.57393 0.02365 0.0
C941 C 0.16072 0.56032 0.02302 0.0
C942 C 0.16189 0.54263 0.03809 0.0
C943 C 0.14725 0.53874 0.05366 0.0
C944 C 0.13202 0.55241 0.05427 0.0
C945 C 0.05609 0.61067 1.00262 0.0
C946 C 0.04161 0.53396 0.0095 0.0
C947 C 0.98491 0.58169 0.02807 0.0
C948 C 0.97015 0.59759 0.03011 0.0
C949 C 0.9519 0.589 0.03965 0.0
C950 C 0.93686 0.60271 0.04074 0.0
C951 C 0.93971 0.62549 0.03236 0.0
C952 C 0.95824 0.63427 0.02308 0.0
C953 C 0.97333 0.62046 0.02197 0.0
C954 C 0.04602 0.55878 0.06826 0.0
C955 C 0.05981 0.63467 0.06101 0.0
O956 O 0.1071 0.58791 0.0589 0.0
O957 O 0.10447 0.58739 0.02039 0.0
O958 O 0.04811 0.5892 1.00663 0.0
O959 O 0.07512 0.62033 0.01514 0.0
O960 O 0.02573 0.54462 0.0074 0.0
O961 O 0.06075 0.54571 0.02214 0.0
O962 O 0.99563 0.58301 0.01066 0.0
O963 O 0.99574 0.57829 0.0479 0.0
O964 O 0.05353 0.58001 0.06352 0.0
O965 O 0.02701 0.54847 0.05581 0.0
O966 O 0.07629 0.62492 0.06168 0.0
O967 O 0.04041 0.62214 0.04965 0.0
H968 H 0.1454 0.58775 0.01213 0.0
H969 H 0.17191 0.56422 0.01112 0.0
H970 H 0.14754 0.52511 0.06536 0.0
H971 H 0.12109 0.54918 0.06655 0.0
H972 H 0.94907 0.57135 0.0459 0.0
H973 H 0.9227 0.59508 0.04761 0.0
H974 H 0.96113 0.65185 0.01673 0.0
H975 H 0.98734 0.62754 0.0146 0.0
H976 H 0.99179 0.25524 0.98414 0.0
H977 H 0.0433 0.25816 0.94523 0.0
H978 H 1.00272 0.22387 1.00486 0.0
H979 H 0.05377 0.22618 0.96531 0.0
H980 H 0.07698 0.17833 0.01543 0.0
H981 H 0.06874 0.21439 1.0007 0.0
H982 H 1.00159 0.18172 0.99737 0.0
H983 H 0.00988 0.14631 0.01284 0.0
C984 C 1.00554 0.24933 0.98008 0.0
C985 C 0.01659 0.2593 0.96291 0.0
C986 C 0.01172 0.23111 0.99185 0.0
C987 C 0.02905 0.22215 0.98669 0.0
C988 C 0.04052 0.23271 0.97006 0.0
C989 C 0.03442 0.25107 0.95841 0.0
C990 C 0.06049 0.17902 0.0119 0.0
C991 C 0.04413 0.15932 0.01535 0.0
C992 C 0.05572 0.19964 1.0032 0.0
C993 C 0.03445 0.20109 0.99764 0.0
C994 C 0.01819 0.18161 1.00172 0.0
C995 C 0.02296 0.1611 0.0105 0.0
H996 H 0.16241 0.88916 0.18805 0.0
H997 H 0.13936 0.81524 0.20287 0.0
H998 H 0.19814 0.89089 0.2093 0.0
H999 H 0.17472 0.81713 0.22437 0.0
H1000 H 0.24557 0.82007 0.24467 0.0
H1001 H 0.21073 0.8176 0.22064 0.0
H1002 H 0.21695 0.89396 0.24945 0.0
H1003 H 0.25169 0.89634 0.27314 0.0
C1004 C 0.16495 0.87324 0.1957 0.0
C1005 C 0.14792 0.8521 0.19373 0.0
C1006 C 0.18542 0.87428 0.20807 0.0
C1007 C 0.18941 0.85417 0.21872 0.0
C1008 C 0.17243 0.83287 0.21624 0.0
C1009 C 0.15203 0.83187 0.20397 0.0
C1010 C 0.23937 0.8362 0.246 0.0
C1011 C 0.25129 0.8583 0.26101 0.0
C1012 C 0.21939 0.83485 0.2322 0.0
C1013 C 0.21092 0.85561 0.23299 0.0
C1014 C 0.22299 0.87769 0.24802 0.0
C1015 C 0.24287 0.879 0.26182 0.0
H1016 H 0.48839 0.87455 0.47499 0.0
H1017 H 0.54204 0.88819 0.43893 0.0
H1018 H 0.49756 0.9181 0.49213 0.0
H1019 H 0.55113 0.93219 0.45614 0.0
H1020 H 0.5708 0.00576 0.51115 0.0
H1021 H 0.56379 0.96204 0.49418 0.0
H1022 H 0.49635 0.95676 0.47795 0.0
H1023 H 0.50325 1.00022 0.49503 0.0
C1024 C 0.50225 0.88677 0.47077 0.0
C1025 C 0.51439 0.87769 0.45541 0.0
C1026 C 0.5074 0.91189 0.48051 0.0
C1027 C 0.52491 0.92878 0.4753 0.0
C1028 C 0.53756 0.91968 0.4606 0.0
C1029 C 0.53233 0.89444 0.4507 0.0
C1030 C 0.55447 0.99531 0.50388 0.0
C1031 C 0.5376 0.0066 0.50457 0.0
C1032 C 0.55048 0.97024 0.49404 0.0
C1033 C 0.52949 0.95577 0.48484 0.0
C1034 C 0.51268 0.9672 0.48522 0.0
C1035 C 0.51667 0.99224 0.49489 0.0
H1036 H 0.50966 0.34583 0.65692 0.0
H1037 H 0.54508 0.33667 0.72353 0.0
H1038 H 0.47719 0.33824 0.67299 0.0
H1039 H 0.51261 0.33024 0.74018 0.0
H1040 H 0.44731 0.30295 0.75878 0.0
H1041 H 0.47838 0.30449 0.74025 0.0
H1042 H 0.46173 0.35938 0.70011 0.0
H1043 H 0.43001 0.35662 0.71743 0.0
C1044 C 0.51054 0.34198 0.67495 0.0
C1045 C 0.53004 0.34182 0.68889 0.0
C1046 C 0.49187 0.33792 0.68432 0.0
C1047 C 0.49223 0.33399 0.70805 0.0
C1048 C 0.51162 0.33297 0.72176 0.0
C1049 C 0.53029 0.33673 0.71224 0.0
C1050 C 0.45005 0.31501 0.74566 0.0
C1051 C 0.43606 0.32963 0.7396 0.0
C1052 C 0.46808 0.31615 0.73527 0.0
C1053 C 0.47268 0.33206 0.71865 0.0
C1054 C 0.45861 0.34659 0.71254 0.0
C1055 C 0.44052 0.34531 0.72277 0.0
H1056 H 0.04075 0.89413 0.57794 0.0
H1057 H 0.09499 0.9279 0.63471 0.0
H1058 H 0.04319 0.93351 0.56446 0.0
H1059 H 0.09794 0.96775 0.62063 0.0
H1060 H 0.07606 0.0394 0.6057 0.0
H1061 H 0.07962 1.00057 0.61912 0.0
H1062 H 0.06246 0.96341 0.5458 0.0
H1063 H 0.05822 1.00142 0.53275 0.0
C1064 C 0.05363 0.90987 0.58718 0.0
C1065 C 0.06774 0.90767 0.60734 0.0
C1066 C 0.05509 0.93262 0.57939 0.0
C1067 C 0.07077 0.95407 0.59141 0.0
C1068 C 0.0855 0.95176 0.61106 0.0
C1069 C 0.08405 0.92879 0.61889 0.0
C1070 C 0.07324 0.02292 0.59254 0.0
C1071 C 0.06654 0.02348 0.56821 0.0
C1072 C 0.07536 1.00066 0.60018 0.0
C1073 C 0.071 0.97858 0.5836 0.0
C1074 C 0.06538 0.9797 0.55922 0.0
C1075 C 0.06304 1.00167 0.5517 0.0
H1076 H 0.48017 0.84402 0.84917 0.0
H1077 H 0.44887 0.79951 0.89598 0.0
H1078 H 0.4456 0.84584 0.82808 0.0
H1079 H 0.41424 0.80168 0.87508 0.0
H1080 H 0.35546 0.78846 0.81515 0.0
H1081 H 0.39014 0.78625 0.83605 0.0
H1082 H 0.41638 0.86371 0.83404 0.0
H1083 H 0.3821 0.86588 0.81297 0.0
C1084 C 0.46592 0.83485 0.85514 0.0
C1085 C 0.46729 0.8217 0.87431 0.0
C1086 C 0.44609 0.83593 0.84307 0.0
C1087 C 0.42713 0.82381 0.84982 0.0
C1088 C 0.42851 0.81091 0.8692 0.0
C1089 C 0.44838 0.80991 0.88135 0.0
C1090 C 0.36868 0.80495 0.819 0.0
C1091 C 0.36594 0.8273 0.81231 0.0
C1092 C 0.38851 0.80375 0.83117 0.0
C1093 C 0.40604 0.82483 0.83676 0.0
C1094 C 0.40332 0.84706 0.82979 0.0
C1095 C 0.38355 0.84829 0.81777 0.0
H1096 H 0.51887 0.26912 0.08077 0.0
H1097 H 0.58033 0.27461 0.12378 0.0
H1098 H 0.51763 0.228 0.06178 0.0
H1099 H 0.57932 0.23309 0.10396 0.0
H1100 H 0.55991 0.14729 0.07527 0.0
H1101 H 0.56205 0.18809 0.09804 0.0
H1102 H 0.53356 0.20917 0.03352 0.0
H1103 H 0.53071 0.16876 0.01156 0.0
C1104 C 0.53231 0.2617 0.0861 0.0
C1105 C 0.54982 0.27557 0.10377 0.0
C1106 C 0.53162 0.23795 0.07503 0.0
C1107 C 0.54847 0.22707 0.08101 0.0
C1108 C 0.56596 0.24071 0.09892 0.0
C1109 C 0.56664 0.26467 0.11013 0.0
C1110 C 0.5538 0.16057 0.06621 0.0
C1111 C 0.54476 0.15454 0.0417 0.0
C1112 C 0.55527 0.1841 0.07913 0.0
C1113 C 0.54776 0.20205 0.06777 0.0
C1114 C 0.53905 0.19585 0.04319 0.0
C1115 C 0.53751 0.17256 0.03047 0.0
H1116 H 0.06126 0.3001 0.32954 0.0
H1117 H 0.09943 0.3265 0.40041 0.0
H1118 H 0.09298 0.29752 0.31386 0.0
H1119 H 0.13149 0.32364 0.38451 0.0
H1120 H 0.18531 0.33683 0.33851 0.0
H1121 H 0.15504 0.34165 0.35683 0.0
H1122 H 0.11732 0.2708 0.31696 0.0
H1123 H 0.14745 0.26569 0.2991 0.0
C1124 C 0.07645 0.30542 0.34183 0.0
C1125 C 0.07774 0.31334 0.3663 0.0
C1126 C 0.09465 0.30379 0.33281 0.0
C1127 C 0.11472 0.31004 0.34797 0.0
C1128 C 0.11624 0.31874 0.37237 0.0
C1129 C 0.09789 0.32031 0.38147 0.0
C1130 C 0.17066 0.32212 0.33389 0.0
C1131 C 0.16882 0.30097 0.31708 0.0
C1132 C 0.1533 0.32493 0.34438 0.0
C1133 C 0.13371 0.30675 0.33815 0.0
C1134 C 0.13205 0.28541 0.32177 0.0
C1135 C 0.14935 0.28252 0.31145 0.0
H1136 H 0.962 0.1288 0.15974 0.0
H1137 H 0.93418 0.05382 0.12261 0.0
H1138 H 0.98949 0.13383 0.13596 0.0
H1139 H 0.96094 0.05943 0.09734 0.0
H1140 H 0.02773 0.06218 0.0854 0.0
H1141 H 0.99648 0.05984 0.10331 0.0
H1142 H 1.00271 0.13773 0.1013 0.0
H1143 H 0.03508 0.14012 0.08462 0.0
C1144 C 0.96132 0.11361 0.14589 0.0
C1145 C 0.94616 0.09071 0.14334 0.0
C1146 C 0.97711 0.11657 0.13209 0.0
C1147 C 0.97783 0.09687 0.11504 0.0
C1148 C 0.96137 0.07474 0.11092 0.0
C1149 C 0.94584 0.07157 0.12516 0.0
C1150 C 0.02253 0.07885 0.08914 0.0
C1151 C 0.03388 0.10141 0.0841 0.0
C1152 C 1.00434 0.07745 0.09897 0.0
C1153 C 0.99676 0.09851 0.10352 0.0
C1154 C 0.00821 0.12119 0.09838 0.0
C1155 C 0.02678 0.12267 0.08894 0.0
H1156 H 0.33259 0.80118 0.47474 0.0
H1157 H 0.26945 0.75127 0.45362 0.0
H1158 H 0.32881 0.81549 0.43663 0.0
H1159 H 0.26536 0.76624 0.41543 0.0
H1160 H 0.31281 0.85041 0.37271 0.0
H1161 H 0.3125 0.83829 0.41177 0.0
H1162 H 0.27776 0.76371 0.37846 0.0
H1163 H 0.27752 0.77609 0.33919 0.0
C1164 C 0.31764 0.79362 0.46219 0.0
C1165 C 0.30132 0.77504 0.46749 0.0
C1166 C 0.31543 0.80194 0.44019 0.0
C1167 C 0.29678 0.79204 0.42266 0.0
C1168 C 0.2801 0.77409 0.42825 0.0
C1169 C 0.28232 0.76574 0.45036 0.0
C1170 C 0.30492 0.83144 0.3736 0.0
C1171 C 0.29523 0.81426 0.3526 0.0
C1172 C 0.30487 0.82441 0.39614 0.0
C1173 C 0.29527 0.7999 0.39851 0.0
C1174 C 0.28512 0.78282 0.37752 0.0
C1175 C 0.28508 0.7899 0.35489 0.0
H1176 H 0.63287 0.02215 0.68923 0.0
H1177 H 0.60669 0.9588 0.63338 0.0
H1178 H 0.60791 0.04351 0.67022 0.0
H1179 H 0.58182 0.97969 0.61452 0.0
H1180 H 0.53195 0.01657 0.5904 0.0
H1181 H 0.55137 0.9967 0.61819 0.0
H1182 H 0.60578 0.06058 0.63181 0.0
H1183 H 0.58598 0.08084 0.60446 0.0
C1184 C 0.62123 0.01253 0.67339 0.0
C1185 C 0.62137 0.98882 0.6628 0.0
C1186 C 0.60718 0.02479 0.66238 0.0
C1187 C 0.59297 0.01329 0.64085 0.0
C1188 C 0.59236 0.98894 0.63123 0.0
C1189 C 0.60655 0.97694 0.642 0.0
C1190 C 0.54795 0.02651 0.59957 0.0
C1191 C 0.55761 0.05007 0.59506 0.0
C1192 C 0.55907 0.01512 0.61545 0.0
C1193 C 0.58013 0.02701 0.62707 0.0
C1194 C 0.58949 0.05107 0.62332 0.0
C1195 C 0.57828 0.06254 0.60746 0.0
H1196 H 0.30329 0.36893 0.98702 0.0
H1197 H 0.34592 0.43631 0.9771 0.0
H1198 H 0.2963 0.35378 0.94378 0.0
H1199 H 0.33901 0.42153 0.93412 0.0
H1200 H 0.34315 0.37522 0.86485 0.0
H1201 H 0.34755 0.39053 0.90726 0.0
H1202 H 0.28017 0.3601 0.904 0.0
H1203 H 0.27575 0.34448 0.86137 0.0
C1204 C 0.31087 0.38062 0.9755 0.0
C1205 C 0.32498 0.40386 0.98529 0.0
C1206 C 0.30689 0.37201 0.95075 0.0
C1207 C 0.31718 0.38634 0.93535 0.0
C1208 C 0.331 0.40979 0.94534 0.0
C1209 C 0.33483 0.4184 0.96994 0.0
C1210 C 0.3292 0.37182 0.87306 0.0
C1211 C 0.30906 0.35865 0.85952 0.0
C1212 C 0.33172 0.38076 0.89747 0.0
C1213 C 0.31421 0.37672 0.90919 0.0
C1214 C 0.29405 0.36345 0.89568 0.0
C1215 C 0.29149 0.35464 0.87115 0.0
H1216 H 0.99255 0.07013 0.25065 0.0
H1217 H 0.9342 0.04364 0.27624 0.0
H1218 H 0.01316 0.06369 0.28765 0.0
H1219 H 0.95457 0.03746 0.31295 0.0
H1220 H 0.99374 0.01057 0.36773 0.0
H1221 H 0.97878 0.01093 0.32638 0.0
H1222 H 0.01844 0.08516 0.33143 0.0
H1223 H 0.03399 0.08461 0.37277 0.0
C1224 C 0.98419 0.06277 0.26411 0.0
C1225 C 0.96191 0.05781 0.26099 0.0
C1226 C 0.99592 0.05917 0.28515 0.0
C1227 C 0.98536 0.05009 0.30294 0.0
C1228 C 0.96302 0.0443 0.29935 0.0
C1229 C 0.95139 0.04821 0.27854 0.0
C1230 C 0.99979 0.02667 0.35981 0.0
C1231 C 0.01492 0.04765 0.37341 0.0
C1232 C 0.99111 0.02691 0.33626 0.0
C1233 C 0.99741 0.04812 0.32599 0.0
C1234 C 0.01348 0.06854 0.33903 0.0
C1235 C 0.02218 0.06832 0.36266 0.0
H1236 H 0.28014 0.74641 0.5904 0.0
H1237 H 0.34515 0.79101 0.60108 0.0
H1238 H 0.27904 0.76058 0.63204 0.0
H1239 H 0.34393 0.80549 0.6422 0.0
H1240 H 0.3452 0.81326 0.7206 0.0
H1241 H 0.34416 0.7937 0.67993 0.0
H1242 H 0.27819 0.79464 0.66063 0.0
H1243 H 0.27926 0.81328 0.70177 0.0
C1244 C 0.29414 0.7594 0.6015 0.0
C1245 C 0.31273 0.7675 0.59214 0.0
C1246 C 0.29351 0.76759 0.62547 0.0
C1247 C 0.31148 0.78404 0.64085 0.0
C1248 C 0.32989 0.79239 0.63129 0.0
C1249 C 0.33051 0.78427 0.60743 0.0
C1250 C 0.33033 0.80853 0.70779 0.0
C1251 C 0.31221 0.81428 0.71443 0.0
C1252 C 0.32977 0.7977 0.68431 0.0
C1253 C 0.31118 0.79285 0.6666 0.0
C1254 C 0.29276 0.79778 0.67362 0.0
C1255 C 0.2933 0.80839 0.69726 0.0
H1256 H 0.56353 0.96943 0.7552 0.0
H1257 H 0.61763 0.03303 0.76594 0.0
H1258 H 0.55087 0.98845 0.78877 0.0
H1259 H 0.60523 0.05212 0.7998 0.0
H1260 H 0.59278 0.05401 0.87774 0.0
H1261 H 0.60304 0.04022 0.84036 0.0
H1262 H 0.53759 0.0245 0.80372 0.0
H1263 H 0.52722 0.0377 0.84115 0.0
C1264 C 0.57225 0.98788 0.7643 0.0
C1265 C 0.59118 1.00012 0.75785 0.0
C1266 C 0.56512 0.99871 0.78353 0.0
C1267 C 0.57713 0.02171 0.7969 0.0
C1268 C 0.59573 0.03433 0.78983 0.0
C1269 C 0.60267 0.02362 0.77036 0.0
C1270 C 0.58059 0.04752 0.86171 0.0
C1271 C 0.5592 0.04683 0.86236 0.0
C1272 C 0.5865 0.03996 0.84028 0.0
C1273 C 0.5711 0.03144 0.81916 0.0
C1274 C 0.54975 0.03094 0.81977 0.0
C1275 C 0.54386 0.03862 0.84114 0.0
H1276 H 0.3013 0.41407 0.11664 0.0
H1277 H 0.34122 0.36537 0.1027 0.0
H1278 H 0.29348 0.39508 0.15139 0.0
H1279 H 0.33328 0.34634 0.13737 0.0
H1280 H 0.29754 0.30338 0.18983 0.0
H1281 H 0.30403 0.32041 0.15357 0.0
H1282 H 0.31358 0.39423 0.1917 0.0
H1283 H 0.30728 0.37724 0.22786 0.0
C1284 C 0.30812 0.39902 0.12067 0.0
C1285 C 0.32186 0.39126 0.10666 0.0
C1286 C 0.30381 0.3883 0.14081 0.0
C1287 C 0.31286 0.36925 0.14736 0.0
C1288 C 0.32593 0.36084 0.13284 0.0
C1289 C 0.3305 0.3718 0.11292 0.0
C1290 C 0.30116 0.32325 0.19048 0.0
C1291 C 0.3019 0.33891 0.21176 0.0
C1292 C 0.3049 0.33303 0.1697 0.0
C1293 C 0.30917 0.35872 0.16957 0.0
C1294 C 0.31004 0.37435 0.19097 0.0
C1295 C 0.30661 0.36461 0.2118 0.0
H1296 H 0.28761 0.03265 0.04264 0.0
H1297 H 0.24737 0.96083 0.04587 0.0
H1298 H 0.25772 0.05053 0.04362 0.0
H1299 H 0.21721 0.97907 0.04769 0.0
H1300 H 0.16372 0.01815 0.02797 0.0
H1301 H 0.1923 0.99763 0.02629 0.0
H1302 H 0.23709 0.06204 0.07064 0.0
H1303 H 0.20903 0.08306 0.07098 0.0
C1304 C 0.27233 0.02063 0.04365 0.0
C1305 C 0.26995 0.9953 0.04431 0.0
C1306 C 0.25515 0.03098 0.04444 0.0
C1307 C 0.23503 0.01642 0.04619 0.0
C1308 C 0.23243 0.99087 0.04626 0.0
C1309 C 0.24972 0.9804 0.04526 0.0
C1310 C 0.17972 0.02804 0.03718 0.0
C1311 C 0.18399 0.05244 0.04944 0.0
C1312 C 0.19608 0.0161 0.03647 0.0
C1313 C 0.21714 0.02821 0.04809 0.0
C1314 C 0.22121 0.05226 0.06101 0.0
C1315 C 0.20495 0.06423 0.06154 0.0
H1316 H 0.71487 0.70379 0.02926 0.0
H1317 H 0.70992 0.64322 0.97313 0.0
H1318 H 0.6797 0.68309 0.03637 0.0
H1319 H 0.67475 0.62305 0.97958 0.0
H1320 H 0.62421 0.57838 0.01256 0.0
H1321 H 0.65913 0.60115 0.00734 0.0
H1322 H 0.64184 0.67002 0.02177 0.0
H1323 H 0.60695 0.647 0.02782 0.0
C1324 C 0.70617 0.68625 0.01821 0.0
C1325 C 0.71533 0.6751 1.00073 0.0
C1326 C 0.68595 0.67437 0.02224 0.0
C1327 C 0.67438 0.65112 0.00882 0.0
C1328 C 0.68332 0.64055 0.99078 0.0
C1329 C 0.7035 0.65227 0.9869 0.0
C1330 C 0.6279 0.5984 0.01478 0.0
C1331 C 0.61278 0.61085 0.02046 0.0
C1332 C 0.64791 0.61151 0.01156 0.0
C1333 C 0.65334 0.63751 0.0137 0.0
C1334 C 0.63835 0.65006 0.02007 0.0
C1335 C 0.61831 0.63687 0.02347 0.0
H1336 H 0.74923 0.57975 0.37889 0.0
H1337 H 0.71256 0.56342 0.3068 0.0
H1338 H 0.77279 0.55542 0.36623 0.0
H1339 H 0.73633 0.53956 0.29425 0.0
H1340 H 0.76022 0.46898 0.29459 0.0
H1341 H 0.74065 0.49944 0.30327 0.0
H1342 H 0.79938 0.55207 0.34036 0.0
H1343 H 0.81898 0.5211 0.33224 0.0
C1344 C 0.74639 0.57133 0.36031 0.0
C1345 C 0.72885 0.57321 0.34395 0.0
C1346 C 0.75998 0.55757 0.35304 0.0
C1347 C 0.75622 0.54551 0.32932 0.0
C1348 C 0.73936 0.54842 0.31272 0.0
C1349 C 0.72579 0.56213 0.31995 0.0
C1350 C 0.76894 0.48706 0.3046 0.0
C1351 C 0.79101 0.49266 0.31308 0.0
C1352 C 0.7578 0.50459 0.30929 0.0
C1353 C 0.76855 0.52807 0.32248 0.0
C1354 C 0.79075 0.53399 0.33031 0.0
C1355 C 0.80193 0.51641 0.32555 0.0
H1356 H 0.89232 0.46384 0.56004 0.0
H1357 H 0.86882 0.51405 0.51867 0.0
H1358 H 0.9289 0.48543 0.55858 0.0
H1359 H 0.90537 0.5358 0.51747 0.0
H1360 H 0.97221 0.55181 0.49922 0.0
H1361 H 0.93583 0.52981 0.50029 0.0
H1362 H 0.95485 0.52581 0.57476 0.0
H1363 H 0.99151 0.54765 0.57368 0.0
C1364 C 0.89494 0.47934 0.55045 0.0
C1365 C 0.87763 0.48714 0.53936 0.0
C1366 C 0.91592 0.49188 0.54984 0.0
C1367 C 0.92009 0.51243 0.53802 0.0
C1368 C 0.90274 0.51991 0.52656 0.0
C1369 C 0.88177 0.50746 0.52727 0.0
C1370 C 0.9687 0.54634 0.5159 0.0
C1371 C 0.98486 0.55155 0.53639 0.0
C1372 C 0.94777 0.5338 0.51651 0.0
C1373 C 0.9424 0.52601 0.53758 0.0
C1374 C 0.9585 0.5313 0.55815 0.0
C1375 C 0.97948 0.54401 0.55758 0.0
H1376 H 0.43976 0.26141 0.32045 0.0
H1377 H 0.39727 0.2092 0.35171 0.0
H1378 H 0.40956 0.274 0.30062 0.0
H1379 H 0.36679 0.21998 0.33039 0.0
H1380 H 0.32029 0.26647 0.31295 0.0
H1381 H 0.34842 0.24914 0.3298 0.0
H1382 H 0.38039 0.26485 0.27074 0.0
H1383 H 0.35291 0.28413 0.25516 0.0
C1384 C 0.42386 0.25254 0.32288 0.0
C1385 C 0.42078 0.23474 0.33788 0.0
C1386 C 0.40645 0.25942 0.31123 0.0
C1387 C 0.38553 0.24798 0.31372 0.0
C1388 C 0.38258 0.22971 0.32842 0.0
C1389 C 0.40005 0.22344 0.34064 0.0
C1390 C 0.33306 0.26558 0.30328 0.0
C1391 C 0.33449 0.27653 0.28278 0.0
C1392 C 0.34929 0.25563 0.31294 0.0
C1393 C 0.36702 0.25584 0.3019 0.0
C1394 C 0.36743 0.26507 0.28024 0.0
C1395 C 0.35151 0.27571 0.27101 0.0
H1396 H 0.35681 0.22248 0.51165 0.0
H1397 H 0.32214 0.16743 0.5473 0.0
H1398 H 0.38704 0.20437 0.51669 0.0
H1399 H 0.35256 0.14978 0.55303 0.0
H1400 H 0.39691 0.10461 0.52967 0.0
H1401 H 0.36868 0.12558 0.52876 0.0
H1402 H 0.41566 0.19638 0.54308 0.0
H1403 H 0.44407 0.1752 0.5438 0.0
C1404 C 0.35581 0.20684 0.52103 0.0
C1405 C 0.33699 0.19631 0.52895 0.0
C1406 C 0.3732 0.19646 0.52398 0.0
C1407 C 0.37222 0.17537 0.53501 0.0
C1408 C 0.35375 0.16565 0.54396 0.0
C1409 C 0.33635 0.17593 0.54089 0.0
C1410 C 0.4013 0.12466 0.53293 0.0
C1411 C 0.42283 0.13819 0.53697 0.0
C1412 C 0.38505 0.13674 0.53247 0.0
C1413 C 0.38981 0.16274 0.53607 0.0
C1414 C 0.41135 0.17633 0.54002 0.0
C1415 C 0.42766 0.1642 0.54043 0.0
H1416 H 0.70062 0.66282 0.31188 0.0
H1417 H 0.72762 0.695 0.38565 0.0
H1418 H 0.72329 0.69749 0.29911 0.0
H1419 H 0.74959 0.73045 0.37291 0.0
H1420 H 0.80516 0.77211 0.34291 0.0
H1421 H 0.78003 0.73992 0.35618 0.0
H1422 H 0.73168 0.73924 0.29556 0.0
H1423 H 0.7575 0.77022 0.28149 0.0
C1424 C 0.71102 0.67762 0.32542 0.0
C1425 C 0.71239 0.67605 0.3498 0.0
C1426 C 0.72402 0.69764 0.31807 0.0
C1427 C 0.7385 0.71679 0.33494 0.0
C1428 C 0.73905 0.71578 0.35938 0.0
C1429 C 0.72628 0.69556 0.36672 0.0
C1430 C 0.78916 0.76501 0.33242 0.0
C1431 C 0.78324 0.77368 0.31122 0.0
C1432 C 0.77463 0.74673 0.34016 0.0
C1433 C 0.75368 0.73697 0.32707 0.0
C1434 C 0.74772 0.74601 0.30597 0.0
C1435 C 0.76242 0.76398 0.29801 0.0
H1436 H 0.90824 0.62741 0.85987 0.0
H1437 H 0.95134 0.6272 0.81013 0.0
H1438 H 0.88907 0.58506 0.84236 0.0
H1439 H 0.93188 0.58456 0.79248 0.0
H1440 H 0.91094 0.50015 0.80334 0.0
H1441 H 0.92789 0.54432 0.80855 0.0
H1442 H 0.86622 0.55957 0.80442 0.0
H1443 H 0.84917 0.51527 0.799 0.0
C1444 C 0.91358 0.61837 0.84513 0.0
C1445 C 0.93144 0.63056 0.83655 0.0
C1446 C 0.90241 0.59422 0.83489 0.0
C1447 C 0.90892 0.58169 0.81595 0.0
C1448 C 0.92658 0.5939 0.80708 0.0
C1449 C 0.93769 0.61823 0.8172 0.0
C1450 C 0.90094 0.51286 0.80272 0.0
C1451 C 0.8788 0.5044 0.80119 0.0
C1452 C 0.91065 0.53814 0.8057 0.0
C1453 C 0.89835 0.55526 0.80725 0.0
C1454 C 0.87604 0.54668 0.80369 0.0
C1455 C 0.86633 0.52142 0.80065 0.0
H1456 H 0.10183 0.93652 0.12323 0.0
H1457 H 0.0528 0.88893 0.0668 0.0
H1458 H 0.09971 0.97204 0.10318 0.0
H1459 H 0.05088 0.92404 0.04669 0.0
H1460 H 0.09739 0.02986 0.05372 0.0
H1461 H 0.10418 0.99346 0.06912 0.0
H1462 H 0.03643 0.95872 0.05442 0.0
H1463 H 0.02965 0.99486 0.03878 0.0
C1464 C 0.09119 0.93345 0.10613 0.0
C1465 C 0.07748 0.90985 0.09667 0.0
C1466 C 0.08984 0.95386 0.09468 0.0
C1467 C 0.07476 0.95106 0.07352 0.0
C1468 C 0.06227 0.9271 0.06324 0.0
C1469 C 0.06358 0.90685 0.07465 0.0
C1470 C 0.08392 0.01434 0.05348 0.0
C1471 C 0.06293 0.01536 0.04486 0.0
C1472 C 0.08785 0.9935 0.06252 0.0
C1473 C 0.07091 0.97302 0.06303 0.0
C1474 C 0.04995 0.97391 0.05399 0.0
C1475 C 0.04602 0.99475 0.04507 0.0
H1476 H 0.96528 0.32032 0.83614 0.0
H1477 H 0.93837 0.30807 0.899 0.0
H1478 H 0.93066 0.32191 0.81479 0.0
H1479 H 0.90368 0.31046 0.87756 0.0
H1480 H 0.85378 0.3454 0.82922 0.0
H1481 H 0.88886 0.34708 0.85289 0.0
H1482 H 0.89253 0.28385 0.80492 0.0
H1483 H 0.85734 0.28159 0.78188 0.0
C1484 C 0.95207 0.31836 0.84556 0.0
C1485 C 0.95462 0.31405 0.86931 0.0
C1486 C 0.93225 0.31922 0.83327 0.0
C1487 C 0.91457 0.31638 0.84456 0.0
C1488 C 0.91715 0.31287 0.86854 0.0
C1489 C 0.93695 0.31142 0.88074 0.0
C1490 C 0.86219 0.33199 0.8237 0.0
C1491 C 0.85294 0.31343 0.80364 0.0
C1492 C 0.88212 0.33285 0.83732 0.0
C1493 C 0.89332 0.31557 0.83069 0.0
C1494 C 0.88422 0.2974 0.81037 0.0
C1495 C 0.86414 0.29614 0.79718 0.0
H1496 H 0.54016 0.28079 0.58458 0.0
H1497 H 0.5945 0.28909 0.64075 0.0
H1498 H 0.54105 0.2387 0.57095 0.0
H1499 H 0.59506 0.24635 0.62731 0.0
H1500 H 0.59706 0.17193 0.58208 0.0
H1501 H 0.60045 0.21601 0.59541 0.0
H1502 H 0.53184 0.20069 0.586 0.0
H1503 H 0.52846 0.1574 0.57246 0.0
C1504 C 0.5524 0.27369 0.594 0.0
C1505 C 0.56711 0.28834 0.61396 0.0
C1506 C 0.55282 0.24941 0.58626 0.0
C1507 C 0.56784 0.23887 0.59832 0.0
C1508 C 0.58327 0.25385 0.61758 0.0
C1509 C 0.58292 0.27835 0.62531 0.0
C1510 C 0.58276 0.17803 0.58305 0.0
C1511 C 0.56249 0.16109 0.57601 0.0
C1512 C 0.58469 0.20327 0.5907 0.0
C1513 C 0.5664 0.21203 0.5914 0.0
C1514 C 0.54627 0.19484 0.58509 0.0
C1515 C 0.54434 0.16984 0.57746 0.0
H1516 H 0.57489 0.86457 0.36055 0.0
H1517 H 0.58177 0.80164 0.39399 0.0
H1518 H 0.60784 0.86577 0.34592 0.0
H1519 H 0.61457 0.80244 0.37877 0.0
H1520 H 0.68257 0.82413 0.36261 0.0
H1521 H 0.65141 0.82465 0.38083 0.0
H1522 H 0.6194 0.84177 0.316 0.0
H1523 H 0.65036 0.84134 0.29797 0.0
C1524 C 0.58347 0.85102 0.36487 0.0
C1525 C 0.57556 0.83293 0.37834 0.0
C1526 C 0.60233 0.85159 0.35631 0.0
C1527 C 0.61378 0.83399 0.36086 0.0
C1528 C 0.60627 0.81639 0.37503 0.0
C1529 C 0.5874 0.81587 0.3837 0.0
C1530 C 0.66882 0.82787 0.35224 0.0
C1531 C 0.66909 0.83293 0.32889 0.0
C1532 C 0.65094 0.82818 0.36268 0.0
C1533 C 0.63292 0.83351 0.35001 0.0
C1534 C 0.63315 0.83822 0.32656 0.0
C1535 C 0.65096 0.83794 0.31618 0.0
H1536 H 0.05777 0.26848 0.45707 0.0
H1537 H 0.99269 0.24735 0.46781 0.0
H1538 H 0.06446 0.23238 0.47371 0.0
H1539 H 0.99933 0.21136 0.4839 0.0
H1540 H 0.01286 0.13429 0.48357 0.0
H1541 H 0.0074 0.17104 0.46739 0.0
H1542 H 0.06546 0.21573 0.51366 0.0
H1543 H 0.07076 0.17921 0.53009 0.0
C1544 C 0.04496 0.25634 0.46314 0.0
C1545 C 0.02473 0.26105 0.46119 0.0
C1546 C 0.04879 0.23564 0.47264 0.0
C1547 C 0.03236 0.21887 0.47992 0.0
C1548 C 0.01225 0.22372 0.4782 0.0
C1549 C 0.00854 0.24458 0.46917 0.0
C1550 C 0.02447 0.15194 0.49024 0.0
C1551 C 0.04217 0.15378 0.5082 0.0
C1552 C 0.02131 0.17301 0.48106 0.0
C1553 C 0.036 0.19634 0.48927 0.0
C1554 C 0.05393 0.19805 0.50685 0.0
C1555 C 0.05687 0.1771 0.51635 0.0
H1556 H 0.64136 0.33423 0.16984 0.0
H1557 H 0.64284 0.38645 0.23207 0.0
H1558 H 0.6765 0.33037 0.18753 0.0
H1559 H 0.67769 0.38239 0.24974 0.0
H1560 H 0.74924 0.38699 0.26414 0.0
H1561 H 0.71501 0.39206 0.24522 0.0
H1562 H 0.69246 0.31314 0.22091 0.0
H1563 H 0.72668 0.30804 0.23957 0.0
C1564 C 0.6492 0.34499 0.1872 0.0
C1565 C 0.63922 0.36064 0.19951 0.0
C1566 C 0.66928 0.34264 0.19743 0.0
C1567 C 0.67993 0.35603 0.22011 0.0
C1568 C 0.6701 0.37201 0.23216 0.0
C1569 C 0.65001 0.37423 0.22204 0.0
C1570 C 0.73699 0.3707 0.2548 0.0
C1571 C 0.74078 0.34711 0.25346 0.0
C1572 C 0.71731 0.3736 0.244 0.0
C1573 C 0.70097 0.35301 0.23144 0.0
C1574 C 0.70477 0.32944 0.23014 0.0
C1575 C 0.72437 0.32651 0.24106 0.0
H1576 H 0.51364 0.88183 0.9882 0.0
H1577 H 0.54536 0.898 0.92937 0.0
H1578 H 0.52411 0.92577 1.00506 0.0
H1579 H 0.55559 0.94236 0.94624 0.0
H1580 H 0.54395 0.02182 0.97652 0.0
H1581 H 0.53598 0.97846 0.95628 0.0
H1582 H 0.55997 0.9574 0.02269 0.0
H1583 H 0.56811 0.99997 0.04251 0.0
C1584 C 0.52297 0.89473 0.97891 0.0
C1585 C 0.52882 0.88623 0.95753 0.0
C1586 C 0.52894 0.91997 0.98857 0.0
C1587 C 0.54063 0.93762 0.97697 0.0
C1588 C 0.54646 0.92926 0.95552 0.0
C1589 C 0.54082 0.90382 0.94604 0.0
C1590 C 0.54777 0.00793 0.98661 0.0
C1591 C 0.55659 0.01439 0.01116 0.0
C1592 C 0.54323 0.98314 0.97506 0.0
C1593 C 0.54713 0.96442 0.98797 0.0
C1594 C 0.5565 0.97122 0.01227 0.0
C1595 C 0.56124 0.99576 0.02361 0.0
H1596 H 0.03463 0.83553 0.72575 0.0
H1597 H 0.99696 0.83841 0.65807 0.0
H1598 H 1.00449 0.838 0.7452 0.0
H1599 H 0.96683 0.84059 0.67748 0.0
H1600 H 0.91214 0.82566 0.7197 0.0
H1601 H 0.9407 0.81669 0.70054 0.0
H1602 H 0.98702 0.87351 0.75237 0.0
H1603 H 0.95857 0.88332 0.771 0.0
C1604 C 0.01976 0.83601 0.7149 0.0
C1605 C 0.0182 0.83677 0.69036 0.0
C1606 C 1.00259 0.83767 0.72609 0.0
C1607 C 0.9834 0.83968 0.71287 0.0
C1608 C 0.9814 0.83893 0.68809 0.0
C1609 C 0.99868 0.8377 0.67698 0.0
C1610 C 0.92836 0.83647 0.72692 0.0
C1611 C 0.93293 0.85533 0.74692 0.0
C1612 C 0.94472 0.83116 0.71601 0.0
C1613 C 0.96606 0.8443 0.72506 0.0
C1614 C 0.97073 0.8628 0.74526 0.0
C1615 C 0.95438 0.86836 0.75596 0.0
H1616 H 0.15945 0.08362 0.9128 0.0
H1617 H 0.11219 0.10223 0.86224 0.0
H1618 H 0.13479 0.07844 0.94064 0.0
H1619 H 0.08772 0.09749 0.89065 0.0
H1620 H 0.07853 0.11724 0.97716 0.0
H1621 H 0.10147 0.12279 0.94759 0.0
H1622 H 0.08506 0.04373 0.92494 0.0
H1623 H 0.06149 0.03796 0.95436 0.0
C1624 C 0.14396 0.08704 0.90779 0.0
C1625 C 0.13774 0.09341 0.88535 0.0
C1626 C 0.12987 0.08383 0.92363 0.0
C1627 C 0.10948 0.08727 0.91742 0.0
C1628 C 0.10341 0.09453 0.89549 0.0
C1629 C 0.11741 0.09739 0.87942 0.0
C1630 C 0.07969 0.101 0.9658 0.0
C1631 C 0.06827 0.07712 0.96794 0.0
C1632 C 0.09272 0.10426 0.9489 0.0
C1633 C 0.09476 0.08369 0.93416 0.0
C1634 C 0.08345 0.05978 0.93619 0.0
C1635 C 0.07007 0.0565 0.9529 0.0
H1636 H 0.82812 0.36734 0.59386 0.0
H1637 H 0.79605 0.42341 0.61227 0.0
H1638 H 0.82401 0.35239 0.63147 0.0
H1639 H 0.79221 0.4086 0.65009 0.0
H1640 H 0.81794 0.39641 0.72707 0.0
H1641 H 0.81838 0.40896 0.68787 0.0
H1642 H 0.79622 0.33233 0.65423 0.0
H1643 H 0.7955 0.31973 0.69341 0.0
C1644 C 0.8198 0.37618 0.6057 0.0
C1645 C 0.81226 0.39648 0.59983 0.0
C1646 C 0.81748 0.36761 0.62731 0.0
C1647 C 0.80794 0.37941 0.64392 0.0
C1648 C 0.79982 0.39924 0.6378 0.0
C1649 C 0.80177 0.40752 0.61595 0.0
C1650 C 0.81322 0.3822 0.71135 0.0
C1651 C 0.80677 0.35702 0.71349 0.0
C1652 C 0.81328 0.38942 0.68883 0.0
C1653 C 0.80724 0.37167 0.66785 0.0
C1654 C 0.80103 0.34649 0.67 0.0
C1655 C 0.80058 0.33927 0.69249 0.0
H1656 H 0.49813 0.20584 0.42866 0.0
H1657 H 0.50817 0.14899 0.37751 0.0
H1658 H 0.50928 0.18443 0.46118 0.0
H1659 H 0.51888 0.12765 0.40971 0.0
H1660 H 0.52075 0.08553 0.47233 0.0
H1661 H 0.50319 0.10573 0.44271 0.0
H1662 H 0.54635 0.17643 0.4759 0.0
H1663 H 0.56401 0.15632 0.50515 0.0
C1664 C 0.5025 0.18871 0.42439 0.0
C1665 C 0.50258 0.17922 0.40069 0.0
C1666 C 0.50883 0.17651 0.4429 0.0
C1667 C 0.51481 0.15441 0.43781 0.0
C1668 C 0.51412 0.14452 0.41404 0.0
C1669 C 0.50821 0.15689 0.39567 0.0
C1670 C 0.5263 0.10539 0.47333 0.0
C1671 C 0.54387 0.11938 0.49067 0.0
C1672 C 0.51629 0.1169 0.45649 0.0
C1673 C 0.52347 0.14258 0.45715 0.0
C1674 C 0.54042 0.15665 0.47519 0.0
C1675 C 0.55063 0.14511 0.49173 0.0
H1676 H 0.76985 0.7444 0.08077 0.0
H1677 H 0.83014 0.79971 0.09207 0.0
H1678 H 0.76744 0.7557 0.12248 0.0
H1679 H 0.82745 0.81138 0.13335 0.0
H1680 H 0.83122 0.80623 0.21131 0.0
H1681 H 0.83096 0.79516 0.16925 0.0
H1682 H 0.76288 0.78618 0.15339 0.0
H1683 H 0.76308 0.79687 0.1961 0.0
C1684 C 0.78244 0.75924 0.09199 0.0
C1685 C 0.80027 0.771 0.08291 0.0
C1686 C 0.78102 0.76577 0.11598 0.0
C1687 C 0.79738 0.78426 0.13156 0.0
C1688 C 0.81476 0.79664 0.12217 0.0
C1689 C 0.81621 0.79007 0.09831 0.0
C1690 C 0.8161 0.80184 0.19899 0.0
C1691 C 0.79716 0.80255 0.20727 0.0
C1692 C 0.81599 0.79567 0.17467 0.0
C1693 C 0.79696 0.79009 0.15765 0.0
C1694 C 0.77786 0.79025 0.1659 0.0
C1695 C 0.77796 0.79643 0.19043 0.0
H1696 H 0.13482 0.08368 0.79772 0.0
H1697 H 0.18086 0.13359 0.76847 0.0
H1698 H 0.10789 0.1051 0.78492 0.0
H1699 H 0.1542 0.15464 0.75519 0.0
H1700 H 0.10688 0.17969 0.71654 0.0
H1701 H 0.12591 0.17559 0.75516 0.0
H1702 H 0.09314 0.09769 0.74247 0.0
H1703 H 0.0745 0.10171 0.70422 0.0
C1704 C 0.13949 0.10015 0.78983 0.0
C1705 C 0.15971 0.107 0.78383 0.0
C1706 C 0.12405 0.11227 0.78229 0.0
C1707 C 0.12873 0.13115 0.76852 0.0
C1708 C 0.14995 0.14021 0.76574 0.0
C1709 C 0.16526 0.12804 0.77317 0.0
C1710 C 0.10324 0.16189 0.72245 0.0
C1711 C 0.08978 0.14083 0.70702 0.0
C1712 C 0.11403 0.1596 0.74461 0.0
C1713 C 0.11149 0.13622 0.75159 0.0
C1714 C 0.09554 0.11602 0.73774 0.0
C1715 C 0.08482 0.1183 0.7156 0.0
H1716 H 0.80134 0.43285 0.46485 0.0
H1717 H 0.82504 0.37003 0.47919 0.0
H1718 H 0.79427 0.41692 0.42172 0.0
H1719 H 0.81777 0.35414 0.43654 0.0
H1720 H 0.77886 0.31807 0.36336 0.0
H1721 H 0.78442 0.33721 0.40469 0.0
H1722 H 0.8161 0.40722 0.38729 0.0
H1723 H 0.81071 0.38763 0.34508 0.0
C1724 C 0.80471 0.41547 0.45889 0.0
C1725 C 0.81354 0.4026 0.47563 0.0
C1726 C 0.80093 0.40654 0.43415 0.0
C1727 C 0.80548 0.38426 0.4256 0.0
C1728 C 0.81395 0.37128 0.44242 0.0
C1729 C 0.81807 0.38038 0.46695 0.0
C1730 C 0.78693 0.33761 0.36809 0.0
C1731 C 0.79441 0.35121 0.35073 0.0
C1732 C 0.79018 0.34858 0.39196 0.0
C1733 C 0.80085 0.37371 0.39947 0.0
C1734 C 0.80775 0.38779 0.38208 0.0
C1735 C 0.80471 0.3766 0.35792 0.0
H1736 H 0.47081 0.16574 0.26666 0.0
H1737 H 0.5359 0.21122 0.28479 0.0
H1738 H 0.47918 0.14341 0.23176 0.0
H1739 H 0.54405 0.18942 0.24978 0.0
H1740 H 0.55985 0.12882 0.20518 0.0
H1741 H 0.54822 0.1484 0.23875 0.0
H1742 H 0.48938 0.14762 0.19278 0.0
H1743 H 0.50053 0.12656 0.1592 0.0
C1744 C 0.48678 0.17127 0.26295 0.0
C1745 C 0.50276 0.19012 0.27853 0.0
C1746 C 0.49155 0.15848 0.24299 0.0
C1747 C 0.51235 0.16441 0.2383 0.0
C1748 C 0.52801 0.18401 0.25329 0.0
C1749 C 0.52329 0.19667 0.27323 0.0
C1750 C 0.54422 0.13226 0.20226 0.0
C1751 C 0.53117 0.12627 0.17947 0.0
C1752 C 0.53769 0.14385 0.22145 0.0
C1753 C 0.5181 0.15001 0.21826 0.0
C1754 C 0.50461 0.14315 0.19572 0.0
C1755 C 0.51109 0.13135 0.17648 0.0
H1756 H 0.8213 0.81335 0.9737 0.0
H1757 H 0.76567 0.75434 0.93997 0.0
H1758 H 0.82117 0.83025 0.93686 0.0
H1759 H 0.76522 0.77167 0.90286 0.0
H1760 H 0.79082 0.79109 0.83401 0.0
H1761 H 0.78537 0.7756 0.87112 0.0
H1762 H 0.80452 0.85073 0.90917 0.0
H1763 H 0.81031 0.86603 0.87221 0.0
C1764 C 0.80866 0.80429 0.95857 0.0
C1765 C 0.79343 0.78248 0.96001 0.0
C1766 C 0.80855 0.81407 0.9373 0.0
C1767 C 0.79325 0.80237 0.91662 0.0
C1768 C 0.77744 0.78108 0.91827 0.0
C1769 C 0.77748 0.77132 0.9397 0.0
C1770 C 0.79362 0.80429 0.85027 0.0
C1771 C 0.80111 0.82982 0.85013 0.0
C1772 C 0.7904 0.79541 0.87159 0.0
C1773 C 0.79461 0.81183 0.89338 0.0
C1774 C 0.80143 0.83742 0.89295 0.0
C1775 C 0.80464 0.84626 0.87167 0.0
H1776 H 0.8654 0.21625 0.01758 0.0
H1777 H 0.83147 0.1605 0.05306 0.0
H1778 H 0.8934 0.19485 0.01656 0.0
H1779 H 0.8598 0.13948 0.05278 0.0
H1780 H 0.89843 0.09134 0.02072 0.0
H1781 H 0.87231 0.11476 0.02501 0.0
H1782 H 0.92227 0.18305 0.03782 0.0
H1783 H 0.94827 0.15958 0.03209 0.0
C1784 C 0.86414 0.19973 0.02567 0.0
C1785 C 0.84612 0.19007 0.03535 0.0
C1786 C 0.88027 0.18743 0.02513 0.0
C1787 C 0.87885 0.1652 0.03435 0.0
C1788 C 0.86127 0.15622 0.04502 0.0
C1789 C 0.8451 0.16845 0.04545 0.0
C1790 C 0.90387 0.11135 0.02416 0.0
C1791 C 0.92555 0.12347 0.02591 0.0
C1792 C 0.88888 0.12485 0.02703 0.0
C1793 C 0.89509 0.1509 0.03193 0.0
C1794 C 0.91679 0.16304 0.03386 0.0
C1795 C 0.9318 0.14953 0.03086 0.0
H1796 H 0.37781 0.51712 0.03247 0.0
H1797 H 0.40388 0.46276 0.06447 0.0
H1798 H 0.41363 0.54061 0.03058 0.0
H1799 H 0.43986 0.48645 0.06276 0.0
H1800 H 0.48162 0.5911 0.05794 0.0
H1801 H 0.44556 0.56621 0.05757 0.0
H1802 H 0.46414 0.4997 0.03579 0.0
H1803 H 0.50024 0.52464 0.0364 0.0
C1804 C 0.39117 0.51003 0.03894 0.0
C1805 C 0.38787 0.48797 0.0486 0.0
C1806 C 0.41178 0.52367 0.03805 0.0
C1807 C 0.42976 0.51561 0.04668 0.0
C1808 C 0.42643 0.49317 0.05576 0.0
C1809 C 0.40577 0.47957 0.05679 0.0
C1810 C 0.47797 0.57117 0.05301 0.0
C1811 C 0.49382 0.55989 0.04724 0.0
C1812 C 0.45725 0.55687 0.05266 0.0
C1813 C 0.45183 0.53085 0.04664 0.0
C1814 C 0.46773 0.51961 0.04078 0.0
C1815 C 0.48842 0.53394 0.04098 0.0
H1816 H 0.35365 0.57702 0.6968 0.0
H1817 H 0.39764 0.62974 0.75424 0.0
H1818 H 0.32915 0.60399 0.69588 0.0
H1819 H 0.37369 0.65668 0.75298 0.0
H1820 H 0.33775 0.7097 0.72965 0.0
H1821 H 0.35924 0.68116 0.72158 0.0
H1822 H 0.30811 0.61994 0.72882 0.0
H1823 H 0.28617 0.6485 0.73644 0.0
C1824 C 0.35813 0.59451 0.7089 0.0
C1825 C 0.37737 0.60153 0.72556 0.0
C1826 C 0.34418 0.60976 0.70846 0.0
C1827 C 0.34975 0.63236 0.72422 0.0
C1828 C 0.36922 0.63945 0.74048 0.0
C1829 C 0.38282 0.62405 0.74128 0.0
C1830 C 0.33078 0.69009 0.7288 0.0
C1831 C 0.31028 0.68131 0.73369 0.0
C1832 C 0.34315 0.67383 0.72435 0.0
C1833 C 0.33525 0.64851 0.72467 0.0
C1834 C 0.31438 0.63942 0.72829 0.0
C1835 C 0.30198 0.65575 0.73287 0.0
H1836 H 0.21574 0.7021 0.50855 0.0
H1837 H 0.23135 0.6373 0.53133 0.0
H1838 H 0.17819 0.68428 0.51035 0.0
H1839 H 0.19419 0.61979 0.53318 0.0
H1840 H 0.13163 0.61081 0.56108 0.0
H1841 H 0.16845 0.62983 0.55852 0.0
H1842 H 0.14716 0.64678 0.48912 0.0
H1843 H 0.11013 0.62758 0.49155 0.0
C1844 C 0.2112 0.68414 0.51396 0.0
C1845 C 0.22657 0.67116 0.51983 0.0
C1846 C 0.18971 0.67389 0.51486 0.0
C1847 C 0.18328 0.65068 0.52199 0.0
C1848 C 0.19867 0.63781 0.52787 0.0
C1849 C 0.21999 0.64785 0.52668 0.0
C1850 C 0.13473 0.61856 0.54524 0.0
C1851 C 0.11791 0.61755 0.52646 0.0
C1852 C 0.15586 0.6294 0.54376 0.0
C1853 C 0.16069 0.63979 0.52362 0.0
C1854 C 0.14389 0.63908 0.50494 0.0
C1855 C 0.12273 0.6279 0.50626 0.0
H1856 H 0.6652 0.91264 0.78592 0.0
H1857 H 0.6943 0.95858 0.73896 0.0
H1858 H 0.69705 0.89793 0.79417 0.0
H1859 H 0.727 0.94596 0.74876 0.0
H1860 H 0.77392 0.89788 0.75145 0.0
H1861 H 0.74399 0.91587 0.74359 0.0
H1862 H 0.73114 0.90724 0.81425 0.0
H1863 H 0.75989 0.88712 0.82083 0.0
C1864 C 0.67855 0.9196 0.77748 0.0
C1865 C 0.67734 0.93635 0.76161 0.0
C1866 C 0.69699 0.91158 0.78248 0.0
C1867 C 0.71492 0.92096 0.77242 0.0
C1868 C 0.71353 0.93788 0.75653 0.0
C1869 C 0.6948 0.94518 0.7509 0.0
C1870 C 0.76498 0.90056 0.76546 0.0
C1871 C 0.76913 0.89143 0.78676 0.0
C1872 C 0.74774 0.91082 0.761 0.0
C1873 C 0.73472 0.9127 0.7781 0.0
C1874 C 0.7402 0.90533 0.80026 0.0
C1875 C 0.75697 0.89431 0.80433 0.0
H1876 H 0.77481 1.00323 0.51048 0.0
H1877 H 0.75751 0.95774 0.56328 0.0
H1878 H 0.74278 0.01753 0.51064 0.0
H1879 H 0.72506 0.97174 0.56309 0.0
H1880 H 0.68555 0.02812 0.57815 0.0
H1881 H 0.71492 0.00898 0.57626 0.0
H1882 H 0.70457 0.00563 0.49973 0.0
H1883 H 0.67521 0.02476 0.50161 0.0
C1884 C 0.76404 0.99601 0.52193 0.0
C1885 C 0.76884 0.97937 0.53692 0.0
C1886 C 0.74553 1.00413 0.52192 0.0
C1887 C 0.73127 0.99587 0.53692 0.0
C1888 C 0.7358 0.97876 0.55153 0.0
C1889 C 0.75434 0.97057 0.5515 0.0
C1890 C 0.68928 0.02292 0.56086 0.0
C1891 C 0.67803 0.02815 0.54006 0.0
C1892 C 0.70617 0.01192 0.55977 0.0
C1893 C 0.71226 0.00585 0.53786 0.0
C1894 C 0.70062 0.01046 0.51698 0.0
C1895 C 0.68375 0.02145 0.51806 0.0
H1896 H 0.37585 0.47115 0.6872 0.0
H1897 H 0.38713 0.50344 0.76184 0.0
H1898 H 0.35475 0.43225 0.69642 0.0
H1899 H 0.36629 0.4657 0.77063 0.0
H1900 H 0.34418 0.39027 0.78644 0.0
H1901 H 0.36799 0.42399 0.77317 0.0
H1902 H 0.32053 0.4168 0.70979 0.0
H1903 H 0.29704 0.38253 0.72273 0.0
C1904 C 0.37384 0.46999 0.70542 0.0
C1905 C 0.38316 0.49037 0.72372 0.0
C1906 C 0.36181 0.44784 0.7107 0.0
C1907 C 0.35914 0.44587 0.73432 0.0
C1908 C 0.36845 0.46633 0.75239 0.0
C1909 C 0.38027 0.48817 0.74719 0.0
C1910 C 0.33897 0.39575 0.76958 0.0
C1911 C 0.31873 0.38408 0.75574 0.0
C1912 C 0.35254 0.41505 0.76198 0.0
C1913 C 0.34603 0.42315 0.74051 0.0
C1914 C 0.32606 0.41082 0.72627 0.0
C1915 C 0.31254 0.39142 0.73383 0.0
H1916 H 0.18449 0.53273 0.24333 0.0
H1917 H 0.15679 0.56391 0.29903 0.0
H1918 H 0.20781 0.57328 0.2434 0.0
H1919 H 0.17901 0.60508 0.29803 0.0
H1920 H 0.23082 0.67445 0.30257 0.0
H1921 H 0.21313 0.63228 0.30657 0.0
H1922 H 0.20561 0.60981 0.23028 0.0
H1923 H 0.22419 0.6515 0.22675 0.0
C1924 C 0.18324 0.54846 0.25535 0.0
C1925 C 0.16874 0.54547 0.27094 0.0
C1926 C 0.19653 0.57171 0.25536 0.0
C1927 C 0.19514 0.59257 0.27049 0.0
C1928 C 0.18077 0.5894 0.28638 0.0
C1929 C 0.16787 0.56594 0.28682 0.0
C1930 C 0.22559 0.66027 0.28681 0.0
C1931 C 0.2288 0.66602 0.26438 0.0
C1932 C 0.21533 0.63621 0.28902 0.0
C1933 C 0.20778 0.61762 0.26873 0.0
C1934 C 0.21154 0.62344 0.24639 0.0
C1935 C 0.22211 0.64736 0.24428 0.0
H1936 H 0.54486 0.758 0.44686 0.0
H1937 H 0.49206 0.75483 0.48376 0.0
H1938 H 0.55528 0.72662 0.46812 0.0
H1939 H 0.50282 0.7241 0.50551 0.0
H1940 H 0.51009 0.64733 0.51544 0.0
H1941 H 0.50209 0.68195 0.49838 0.0
H1942 H 0.56948 0.71554 0.50478 0.0
H1943 H 0.57752 0.68023 0.52144 0.0
C1944 C 0.53567 0.75096 0.4598 0.0
C1945 C 0.5175 0.75895 0.46342 0.0
C1946 C 0.54172 0.73297 0.47212 0.0
C1947 C 0.52983 0.72251 0.48848 0.0
C1948 C 0.51215 0.73124 0.49272 0.0
C1949 C 0.50605 0.74909 0.48034 0.0
C1950 C 0.5233 0.66216 0.51357 0.0
C1951 C 0.54449 0.66087 0.52001 0.0
C1952 C 0.51868 0.68223 0.50379 0.0
C1953 C 0.5351 0.70177 0.50015 0.0
C1954 C 0.55636 0.70076 0.50702 0.0
C1955 C 0.561 0.68058 0.51682 0.0
H1956 H 0.63775 0.31558 0.70721 0.0
H1957 H 0.6611 0.38866 0.69056 0.0
H1958 H 0.67314 0.31752 0.72861 0.0
H1959 H 0.69687 0.3904 0.71167 0.0
H1960 H 0.75092 0.39669 0.77514 0.0
H1961 H 0.71604 0.39427 0.75174 0.0
H1962 H 0.70886 0.31724 0.72459 0.0
H1963 H 0.74379 0.31973 0.74841 0.0
C1964 C 0.6505 0.33202 0.70788 0.0
C1965 C 0.64647 0.35202 0.69717 0.0
C1966 C 0.67091 0.33305 0.72009 0.0
C1967 C 0.68798 0.35413 0.722 0.0
C1968 C 0.68408 0.37398 0.71089 0.0
C1969 C 0.66358 0.37293 0.6986 0.0
C1970 C 0.74184 0.3792 0.76426 0.0
C1971 C 0.75002 0.35833 0.76381 0.0
C1972 C 0.7219 0.37786 0.75062 0.0
C1973 C 0.70953 0.35558 0.73613 0.0
C1974 C 0.71776 0.33465 0.73573 0.0
C1975 C 0.73779 0.33603 0.74938 0.0
H1976 H 0.02722 0.3907 0.92177 0.0
H1977 H 1.00455 0.37377 0.986 0.0
H1978 H 0.0359 0.43512 0.93769 0.0
H1979 H 0.01396 0.41812 1.00214 0.0
H1980 H 0.06198 0.5007 0.02561 0.0
H1981 H 0.05502 0.45666 0.00954 0.0
H1982 H 1.00573 0.46323 0.95372 0.0
H1983 H 0.01215 0.50728 0.9702 0.0
C1984 C 0.02451 0.39642 0.93946 0.0
C1985 C 0.01527 0.37872 0.95268 0.0
C1986 C 0.02931 0.4218 0.94844 0.0
C1987 C 0.0255 0.42991 0.97105 0.0
C1988 C 0.01702 0.41227 0.98465 0.0
C1989 C 0.0117 0.38694 0.97543 0.0
C1990 C 0.04973 0.49283 0.00982 0.0
C1991 C 0.03767 0.5075 0.99908 0.0
C1992 C 0.04573 0.46763 1.00073 0.0
C1993 C 0.02996 0.45671 0.98037 0.0
C1994 C 0.01808 0.47135 0.96937 0.0
C1995 C 0.0217 0.49646 0.97883 0.0
H1996 H 0.01124 0.84817 0.15463 0.0
H1997 H 0.04638 0.83676 0.2204 0.0
H1998 H 0.97896 0.84143 0.17106 0.0
H1999 H 0.01409 0.83112 0.23742 0.0
H2000 H 0.94847 0.80517 0.25603 0.0
H2001 H 0.97933 0.80608 0.23723 0.0
H2002 H 0.96451 0.86313 0.19904 0.0
H2003 H 0.93301 0.86112 0.21668 0.0
C2004 C 0.01209 0.84397 0.17254 0.0
C2005 C 0.03147 0.84294 0.18614 0.0
C2006 C 0.99354 0.84042 0.18212 0.0
C2007 C 0.99389 0.8361 0.20573 0.0
C2008 C 0.01312 0.83419 0.2191 0.0
C2009 C 0.03168 0.83749 0.20937 0.0
C2010 C 0.95157 0.8176 0.24329 0.0
C2011 C 0.93815 0.83304 0.23786 0.0
C2012 C 0.96948 0.81836 0.23274 0.0
C2013 C 0.97451 0.83467 0.21657 0.0
C2014 C 0.96103 0.85004 0.2111 0.0
C2015 C 0.94307 0.84916 0.22152 0.0
H2016 H 0.54143 0.39043 0.07308 0.0
H2017 H 0.59615 0.42463 0.12913 0.0
H2018 H 0.54364 0.42955 0.05922 0.0
H2019 H 0.59897 0.46423 0.11458 0.0
H2020 H 0.5776 0.53584 0.0998 0.0
H2021 H 0.58127 0.49709 0.11316 0.0
H2022 H 0.56175 0.45934 0.04005 0.0
H2023 H 0.55726 0.49734 0.02711 0.0
C2024 C 0.5544 0.40621 0.08205 0.0
C2025 C 0.56868 0.4042 0.10215 0.0
C2026 C 0.55573 0.42883 0.07403 0.0
C2027 C 0.5715 0.45035 0.08571 0.0
C2028 C 0.58645 0.44819 0.10525 0.0
C2029 C 0.58509 0.42536 0.11335 0.0
C2030 C 0.57424 0.51924 0.08665 0.0
C2031 C 0.56684 0.51965 0.06244 0.0
C2032 C 0.57646 0.497 0.09426 0.0
C2033 C 0.57152 0.47478 0.07778 0.0
C2034 C 0.56513 0.47572 0.05346 0.0
C2035 C 0.56266 0.49768 0.04597 0.0
H2036 H 0.9809 0.34527 0.34854 0.0
H2037 H 0.94967 0.3003 0.39506 0.0
H2038 H 0.94635 0.34717 0.32756 0.0
H2039 H 0.915 0.30254 0.37423 0.0
H2040 H 0.85613 0.28999 0.3144 0.0
H2041 H 0.89076 0.28752 0.3352 0.0
H2042 H 0.91724 0.36504 0.33369 0.0
H2043 H 0.88301 0.36747 0.31271 0.0
C2044 C 0.96667 0.33601 0.35447 0.0
C2045 C 0.96807 0.32272 0.37353 0.0
C2046 C 0.94683 0.33714 0.34245 0.0
C2047 C 0.92787 0.32494 0.34915 0.0
C2048 C 0.92928 0.31186 0.36841 0.0
C2049 C 0.94916 0.31081 0.38051 0.0
C2050 C 0.8694 0.30644 0.31831 0.0
C2051 C 0.86673 0.32889 0.31179 0.0
C2052 C 0.8892 0.30508 0.33044 0.0
C2053 C 0.90679 0.32611 0.33616 0.0
C2054 C 0.90413 0.34843 0.32935 0.0
C2055 C 0.8844 0.34981 0.31736 0.0
H2056 H 0.032 0.77941 0.57622 0.0
H2057 H 0.07131 0.7717 0.64075 0.0
H2058 H 0.03068 0.73772 0.55858 0.0
H2059 H 0.06895 0.72897 0.62367 0.0
H2060 H 0.07367 0.65752 0.57667 0.0
H2061 H 0.07725 0.69949 0.59733 0.0
H2062 H 0.01493 0.69744 0.55818 0.0
H2063 H 0.0124 0.6568 0.53672 0.0
C2064 C 0.04033 0.76871 0.58672 0.0
C2065 C 0.05173 0.77903 0.60994 0.0
C2066 C 0.03934 0.74446 0.57671 0.0
C2067 C 0.04921 0.72924 0.58976 0.0
C2068 C 0.06115 0.73983 0.61285 0.0
C2069 C 0.06252 0.76444 0.62272 0.0
C2070 C 0.06068 0.66605 0.57289 0.0
C2071 C 0.04278 0.65395 0.55504 0.0
C2072 C 0.0627 0.6902 0.58468 0.0
C2073 C 0.04666 0.70258 0.57913 0.0
C2074 C 0.02814 0.68938 0.56242 0.0
C2075 C 0.02643 0.66573 0.55031 0.0
H2076 H 0.57686 0.84267 0.84273 0.0
H2077 H 0.59351 0.80808 0.90343 0.0
H2078 H 0.60895 0.83789 0.82866 0.0
H2079 H 0.62586 0.80362 0.88946 0.0
H2080 H 0.66416 0.77057 0.83902 0.0
H2081 H 0.63429 0.77853 0.8562 0.0
H2082 H 0.64781 0.85186 0.83756 0.0
H2083 H 0.67725 0.84361 0.81968 0.0
C2084 C 0.58751 0.83434 0.85326 0.0
C2085 C 0.58255 0.82567 0.87416 0.0
C2086 C 0.60598 0.83171 0.84524 0.0
C2087 C 0.61992 0.82026 0.85787 0.0
C2088 C 0.61529 0.81222 0.87915 0.0
C2089 C 0.59684 0.81497 0.88726 0.0
C2090 C 0.6607 0.78835 0.83851 0.0
C2091 C 0.67304 0.80641 0.82791 0.0
C2092 C 0.64375 0.79303 0.84862 0.0
C2093 C 0.63869 0.81585 0.84829 0.0
C2094 C 0.65119 0.83402 0.83794 0.0
C2095 C 0.66819 0.82938 0.8279 0.0
H2096 H 0.46015 0.62691 0.6664 0.0
H2097 H 0.43048 0.55518 0.62285 0.0
H2098 H 0.48794 0.63373 0.64296 0.0
H2099 H 0.45772 0.56266 0.59831 0.0
H2100 H 0.52548 0.56375 0.59016 0.0
H2101 H 0.49341 0.56126 0.60658 0.0
H2102 H 0.50173 0.63994 0.608 0.0
H2103 H 0.53469 0.64239 0.59232 0.0
C2104 C 0.45911 0.61291 0.65126 0.0
C2105 C 0.44337 0.59021 0.64681 0.0
C2106 C 0.47508 0.61692 0.6377 0.0
C2107 C 0.47543 0.59847 0.61913 0.0
C2108 C 0.45833 0.57691 0.61305 0.0
C2109 C 0.44257 0.5727 0.62691 0.0
C2110 C 0.52053 0.58055 0.59423 0.0
C2111 C 0.53258 0.6033 0.59036 0.0
C2112 C 0.50192 0.57908 0.60322 0.0
C2113 C 0.49471 0.60032 0.60827 0.0
C2114 C 0.50689 0.62324 0.60445 0.0
C2115 C 0.52579 0.62473 0.59565 0.0
H2116 H 0.82311 0.31004 0.98232 0.0
H2117 H 0.7759 0.24194 0.95035 0.0
H2118 H 0.81886 0.32538 0.94467 0.0
H2119 H 0.7728 0.2561 0.91207 0.0
H2120 H 0.76368 0.28973 0.84494 0.0
H2121 H 0.76312 0.27806 0.88434 0.0
H2122 H 0.82773 0.32411 0.90887 0.0
H2123 H 0.82738 0.33697 0.87027 0.0
C2124 C 0.81166 0.2984 0.96722 0.0
C2125 C 0.79973 0.27486 0.96951 0.0
C2126 C 0.80946 0.30699 0.94529 0.0
C2127 C 0.79579 0.29195 0.92461 0.0
C2128 C 0.78332 0.26865 0.92726 0.0
C2129 C 0.78508 0.26039 0.9494 0.0
C2130 C 0.77764 0.2975 0.85892 0.0
C2131 C 0.79547 0.31448 0.85445 0.0
C2132 C 0.77746 0.29064 0.88163 0.0
C2133 C 0.79536 0.30005 0.90042 0.0
C2134 C 0.81327 0.31685 0.89558 0.0
C2135 C 0.81319 0.32416 0.87314 0.0
H2136 H 0.12789 0.51658 0.18006 0.0
H2137 H 0.08987 0.44712 0.13763 0.0
H2138 H 0.11258 0.53891 0.15158 0.0
H2139 H 0.07559 0.46929 0.10807 0.0
H2140 H 0.03133 0.51349 0.07967 0.0
H2141 H 0.05058 0.49141 0.10479 0.0
H2142 H 0.10765 0.55189 0.11525 0.0
H2143 H 0.08749 0.57487 0.09188 0.0
C2144 C 0.11682 0.50605 0.16414 0.0
C2145 C 0.10994 0.4801 0.16111 0.0
C2146 C 0.10802 0.51888 0.1477 0.0
C2147 C 0.09246 0.50601 0.12761 0.0
C2148 C 0.08695 0.47993 0.1237 0.0
C2149 C 0.09536 0.46714 0.14044 0.0
C2150 C 0.04797 0.52209 0.08747 0.0
C2151 C 0.05801 0.54579 0.08369 0.0
C2152 C 0.05917 0.50927 0.10161 0.0
C2153 C 0.08088 0.51959 0.11188 0.0
C2154 C 0.09094 0.54335 0.10789 0.0
C2155 C 0.0795 0.55645 0.09421 0.0
H2156 H 0.80214 0.91958 0.47886 0.0
H2157 H 0.85146 0.88106 0.48877 0.0
H2158 H 0.79586 0.9056 0.43572 0.0
H2159 H 0.845 0.86694 0.446 0.0
H2160 H 0.84719 0.87047 0.36795 0.0
H2161 H 0.85125 0.88369 0.41069 0.0
H2162 H 0.78292 0.87045 0.4032 0.0
H2163 H 0.77884 0.85752 0.36018 0.0
C2164 C 0.81142 0.90783 0.47197 0.0
C2165 C 0.82738 0.90159 0.48752 0.0
C2166 C 0.80781 0.89978 0.44715 0.0
C2167 C 0.82011 0.88536 0.43717 0.0
C2168 C 0.83551 0.87846 0.45284 0.0
C2169 C 0.83908 0.88641 0.47754 0.0
C2170 C 0.83298 0.87046 0.3753 0.0
C2171 C 0.81267 0.86287 0.36044 0.0
C2172 C 0.83531 0.87788 0.39997 0.0
C2173 C 0.81741 0.87799 0.41063 0.0
C2174 C 0.7971 0.8708 0.39571 0.0
C2175 C 0.79476 0.86328 0.37099 0.0
H2176 H 0.49364 0.55669 0.74344 0.0
H2177 H 0.43764 0.52221 0.76974 0.0
H2178 H 0.51637 0.55248 0.78006 0.0
H2179 H 0.46015 0.5175 0.80584 0.0
H2180 H 0.5048 0.50166 0.86341 0.0
H2181 H 0.49033 0.49732 0.82099 0.0
H2182 H 0.51725 0.57552 0.8234 0.0
H2183 H 0.53211 0.5799 0.86587 0.0
C2184 C 0.48633 0.5475 0.75672 0.0
C2185 C 0.46409 0.53986 0.75412 0.0
C2186 C 0.49923 0.5452 0.77756 0.0
C2187 C 0.48991 0.53466 0.79553 0.0
C2188 C 0.46767 0.52544 0.79205 0.0
C2189 C 0.45482 0.52826 0.77155 0.0
C2190 C 0.50827 0.51776 0.85472 0.0
C2191 C 0.51943 0.54117 0.86786 0.0
C2192 C 0.49993 0.51525 0.83053 0.0
C2193 C 0.50273 0.53607 0.81916 0.0
C2194 C 0.51514 0.55916 0.83184 0.0
C2195 C 0.5234 0.56172 0.8561 0.0
H2196 H 0.77963 0.2626 0.08722 0.0
H2197 H 0.84785 0.27655 0.10885 0.0
H2198 H 0.77727 0.27835 0.12829 0.0
H2199 H 0.84527 0.29131 0.1499 0.0
H2200 H 0.82382 0.29095 0.22568 0.0
H2201 H 0.82305 0.27042 0.18492 0.0
H2202 H 0.79695 0.32599 0.15554 0.0
H2203 H 0.79862 0.34694 0.19593 0.0
C2204 C 0.79408 0.26886 0.10071 0.0
C2205 C 0.81396 0.26854 0.0946 0.0
C2206 C 0.79271 0.27779 0.12422 0.0
C2207 C 0.81106 0.28581 0.14236 0.0
C2208 C 0.83084 0.285 0.13638 0.0
C2209 C 0.83231 0.27677 0.11279 0.0
C2210 C 0.81761 0.29846 0.21046 0.0
C2211 C 0.81123 0.3205 0.21394 0.0
C2212 C 0.81728 0.28684 0.18719 0.0
C2213 C 0.80992 0.29662 0.16704 0.0
C2214 C 0.80259 0.31794 0.17065 0.0
C2215 C 0.80355 0.32992 0.19378 0.0
H2216 H 0.10101 0.4652 0.30498 0.0
H2217 H 0.0794 0.51118 0.25684 0.0
H2218 H 0.0896 0.48746 0.33734 0.0
H2219 H 0.06765 0.53327 0.28936 0.0
H2220 H 0.02991 0.54433 0.35151 0.0
H2221 H 0.04066 0.52462 0.31695 0.0
H2222 H 0.1026 0.53159 0.35959 0.0
H2223 H 0.09211 0.55177 0.39402 0.0
C2224 C 0.09377 0.48001 0.3013 0.0
C2225 C 0.09136 0.4867 0.27851 0.0
C2226 C 0.0873 0.49276 0.31981 0.0
C2227 C 0.07811 0.51227 0.31581 0.0
C2228 C 0.07474 0.51827 0.29279 0.0
C2229 C 0.08139 0.50559 0.27424 0.0
C2230 C 0.04596 0.54209 0.35337 0.0
C2231 C 0.0601 0.54927 0.3755 0.0
C2232 C 0.05205 0.53078 0.33364 0.0
C2233 C 0.07229 0.52633 0.33584 0.0
C2234 C 0.08673 0.5344 0.35767 0.0
C2235 C 0.08071 0.54586 0.37732 0.0
H2236 H 0.85289 0.88622 0.62085 0.0
H2237 H 0.79078 0.90004 0.60506 0.0
H2238 H 0.84328 0.86818 0.65529 0.0
H2239 H 0.78113 0.8817 0.63966 0.0
H2240 H 0.76523 0.82384 0.68986 0.0
H2241 H 0.77411 0.84148 0.65477 0.0
H2242 H 0.83629 0.88175 0.6954 0.0
H2243 H 0.82716 0.86425 0.73065 0.0
C2244 C 0.83705 0.88518 0.62449 0.0
C2245 C 0.8226 0.89457 0.60989 0.0
C2246 C 0.83163 0.87502 0.64449 0.0
C2247 C 0.81147 0.87358 0.65045 0.0
C2248 C 0.79677 0.88236 0.63557 0.0
C2249 C 0.8023 0.89289 0.61568 0.0
C2250 C 0.78082 0.83645 0.69131 0.0
C2251 C 0.79558 0.84249 0.71303 0.0
C2252 C 0.78586 0.8467 0.6712 0.0
C2253 C 0.80594 0.86303 0.67212 0.0
C2254 C 0.82075 0.86903 0.6939 0.0
C2255 C 0.81555 0.85905 0.71414 0.0
H2256 H 0.77462 0.50909 0.59511 0.0
H2257 H 0.74928 0.47014 0.52304 0.0
H2258 H 0.7454 0.52844 0.59318 0.0
H2259 H 0.71936 0.48914 0.52131 0.0
H2260 H 0.68438 0.55148 0.51831 0.0
H2261 H 0.71131 0.52825 0.5191 0.0
H2262 H 0.70852 0.52164 0.59273 0.0
H2263 H 0.68191 0.54519 0.59199 0.0
C2264 C 0.76266 0.50439 0.57888 0.0
C2265 C 0.7644 0.48804 0.5592 0.0
C2266 C 0.74571 0.51542 0.57784 0.0
C2267 C 0.72986 0.51038 0.55712 0.0
C2268 C 0.73138 0.49371 0.53749 0.0
C2269 C 0.74845 0.48265 0.53852 0.0
C2270 C 0.68936 0.54483 0.5346 0.0
C2271 C 0.68109 0.55041 0.55516 0.0
C2272 C 0.70479 0.53142 0.53504 0.0
C2273 C 0.71229 0.52313 0.55603 0.0
C2274 C 0.70354 0.52815 0.57637 0.0
C2275 C 0.68823 0.54166 0.57597 0.0
H2276 H 0.20599 0.20115 0.50201 0.0
H2277 H 0.22743 0.14513 0.53638 0.0
H2278 H 0.16906 0.18088 0.50453 0.0
H2279 H 0.1911 0.12539 0.53911 0.0
H2280 H 0.12285 0.07938 0.51557 0.0
H2281 H 0.15868 0.10153 0.51257 0.0
H2282 H 0.14472 0.17119 0.53362 0.0
H2283 H 0.10841 0.14879 0.53626 0.0
C2284 C 0.20287 0.18461 0.5101 0.0
C2285 C 0.21973 0.17476 0.51887 0.0
C2286 C 0.18175 0.17308 0.51169 0.0
C2287 C 0.17705 0.15137 0.52188 0.0
C2288 C 0.19399 0.1418 0.53078 0.0
C2289 C 0.21495 0.15328 0.52932 0.0
C2290 C 0.1274 0.09942 0.51963 0.0
C2291 C 0.11282 0.1123 0.52625 0.0
C2292 C 0.14801 0.11216 0.51799 0.0
C2293 C 0.15469 0.13819 0.52295 0.0
C2294 C 0.14005 0.15116 0.52947 0.0
C2295 C 0.11934 0.13834 0.53119 0.0
H2296 H 0.25255 0.07201 0.89812 0.0
H2297 H 0.23492 0.07195 0.82235 0.0
H2298 H 0.27798 0.04797 0.88986 0.0
H2299 H 0.25992 0.04792 0.81445 0.0
H2300 H 0.26961 0.96847 0.81555 0.0
H2301 H 0.25226 1.00045 0.82717 0.0
H2302 H 0.31316 0.04913 0.86305 0.0
H2303 H 0.33083 0.01687 0.85115 0.0
C2304 C 0.25449 0.06748 0.87987 0.0
C2305 C 0.24144 0.07338 0.86086 0.0
C2306 C 0.26903 0.05386 0.87521 0.0
C2307 C 0.27056 0.04612 0.85157 0.0
C2308 C 0.25881 0.0537 0.8328 0.0
C2309 C 0.24446 0.06732 0.83739 0.0
C2310 C 0.27928 0.98587 0.82616 0.0
C2311 C 0.30147 0.99026 0.83268 0.0
C2312 C 0.26941 1.00414 0.83264 0.0
C2313 C 0.28152 0.02703 0.84589 0.0
C2314 C 0.30366 0.03146 0.85286 0.0
C2315 C 0.31367 0.01318 0.84603 0.0
H2316 H 0.39485 0.96646 0.05804 0.0
H2317 H 0.36907 0.01285 0.01358 0.0
H2318 H 0.43091 0.98843 0.05513 0.0
H2319 H 0.40517 0.03495 0.01084 0.0
H2320 H 0.47253 0.05079 0.99206 0.0
H2321 H 0.43623 0.02868 0.99397 0.0
H2322 H 0.45552 0.03017 0.06952 0.0
H2323 H 0.49186 0.05212 0.0677 0.0
C2324 C 0.39685 0.98119 0.04746 0.0
C2325 C 0.37906 0.98786 0.03598 0.0
C2326 C 0.41755 0.99394 0.04599 0.0
C2327 C 0.42094 0.01356 0.03289 0.0
C2328 C 0.40312 0.01982 0.02094 0.0
C2329 C 0.38242 0.00718 0.02254 0.0
C2330 C 0.46906 0.04654 0.00913 0.0
C2331 C 0.48521 0.05329 0.02974 0.0
C2332 C 0.4482 0.03393 0.01022 0.0
C2333 C 0.443 0.02754 0.03186 0.0
C2334 C 0.45906 0.03451 0.0525 0.0
C2335 C 0.47988 0.04729 0.05147 0.0
H2336 H 0.89702 0.72967 0.85661 0.0
H2337 H 0.92715 0.72945 0.79481 0.0
H2338 H 0.86737 0.7411 0.83406 0.0
H2339 H 0.89722 0.74019 0.77214 0.0
H2340 H 0.85859 0.79837 0.75891 0.0
H2341 H 0.8846 0.77674 0.77279 0.0
H2342 H 0.83693 0.72747 0.80104 0.0
H2343 H 0.8109 0.74976 0.7877 0.0
C2344 C 0.89726 0.73188 0.83819 0.0
C2345 C 0.91459 0.72897 0.82764 0.0
C2346 C 0.88012 0.73809 0.82515 0.0
C2347 C 0.8799 0.74138 0.80126 0.0
C2348 C 0.89701 0.73796 0.79057 0.0
C2349 C 0.91418 0.73187 0.80361 0.0
C2350 C 0.85344 0.78242 0.7674 0.0
C2351 C 0.83281 0.77598 0.77254 0.0
C2352 C 0.86836 0.76996 0.77533 0.0
C2353 C 0.86291 0.75071 0.78844 0.0
C2354 C 0.84166 0.7426 0.79141 0.0
C2355 C 0.82668 0.75512 0.78346 0.0
H2356 H 0.85654 0.72481 0.01287 0.0
H2357 H 0.82057 0.66431 0.04148 0.0
H2358 H 0.88713 0.70733 0.01721 0.0
H2359 H 0.8511 0.64655 0.04543 0.0
H2360 H 0.91587 0.63119 0.06696 0.0
H2361 H 0.88723 0.65179 0.06646 0.0
H2362 H 0.89704 0.67218 0.99822 0.0
H2363 H 0.92555 0.6514 0.99859 0.0
C2364 C 0.85521 0.70792 0.02037 0.0
C2365 C 0.83605 0.69599 0.02686 0.0
C2366 C 0.87273 0.69775 0.02262 0.0
C2367 C 0.87158 0.67539 0.03147 0.0
C2368 C 0.85266 0.66391 0.03874 0.0
C2369 C 0.8351 0.67407 0.03643 0.0
C2370 C 0.91189 0.63995 0.05177 0.0
C2371 C 0.92307 0.63948 0.03276 0.0
C2372 C 0.89543 0.6518 0.0515 0.0
C2373 C 0.88973 0.66363 0.03229 0.0
C2374 C 0.90117 0.66359 0.0135 0.0
C2375 C 0.91759 0.65167 0.01373 0.0
H2376 H 0.24044 0.17653 0.88099 0.0
H2377 H 0.1909 0.16518 0.81879 0.0
H2378 H 0.2614 0.21166 0.86746 0.0
H2379 H 0.21126 0.20167 0.80582 0.0
H2380 H 0.26453 0.24883 0.77502 0.0
H2381 H 0.24035 0.21593 0.78889 0.0
H2382 H 0.267 0.25168 0.86202 0.0
H2383 H 0.29212 0.28316 0.84794 0.0
C2384 C 0.23374 0.18201 0.86471 0.0
C2385 C 0.21399 0.16807 0.85098 0.0
C2386 C 0.24576 0.20237 0.85694 0.0
C2387 C 0.23815 0.20981 0.83548 0.0
C2388 C 0.21794 0.19634 0.82218 0.0
C2389 C 0.20612 0.17554 0.82971 0.0
C2390 C 0.26512 0.24947 0.79403 0.0
C2391 C 0.28039 0.26811 0.81047 0.0
C2392 C 0.25112 0.23077 0.80206 0.0
C2393 C 0.25176 0.23077 0.8267 0.0
C2394 C 0.26641 0.25039 0.84297 0.0
C2395 C 0.28076 0.26861 0.83495 0.0
H2396 H 0.41316 0.12728 0.37416 0.0
H2397 H 0.43757 0.13199 0.30866 0.0
H2398 H 0.39161 0.08555 0.35773 0.0
H2399 H 0.41558 0.09024 0.29209 0.0
H2400 H 0.40269 0.00501 0.29464 0.0
H2401 H 0.41783 0.04965 0.30161 0.0
H2402 H 0.36155 0.06012 0.32706 0.0
H2403 H 0.34674 0.01533 0.32084 0.0
C2404 C 0.41374 0.11955 0.35615 0.0
C2405 C 0.42732 0.13283 0.34286 0.0
C2406 C 0.40119 0.09572 0.34663 0.0
C2407 C 0.40191 0.0847 0.32361 0.0
C2408 C 0.41487 0.09827 0.30996 0.0
C2409 C 0.42746 0.12214 0.31948 0.0
C2410 C 0.39344 0.01691 0.30136 0.0
C2411 C 0.37375 0.00682 0.30757 0.0
C2412 C 0.40199 0.04245 0.30512 0.0
C2413 C 0.39094 0.0583 0.31513 0.0
C2414 C 0.3705 0.04825 0.31962 0.0
C2415 C 0.36195 0.02268 0.31586 0.0
H2416 H 0.60123 0.43656 0.62765 0.0
H2417 H 0.55245 0.38998 0.57037 0.0
H2418 H 0.59955 0.47255 0.60822 0.0
H2419 H 0.55102 0.42555 0.55082 0.0
H2420 H 0.59773 0.53186 0.56058 0.0
H2421 H 0.60437 0.49491 0.57497 0.0
H2422 H 0.53661 0.46005 0.55897 0.0
H2423 H 0.53001 0.49667 0.54429 0.0
C2424 C 0.59075 0.43382 0.61049 0.0
C2425 C 0.57694 0.41037 0.60061 0.0
C2426 C 0.58966 0.4545 0.59938 0.0
C2427 C 0.57478 0.45212 0.57816 0.0
C2428 C 0.56225 0.42829 0.56744 0.0
C2429 C 0.56327 0.40778 0.57853 0.0
C2430 C 0.58424 0.5162 0.55985 0.0
C2431 C 0.56329 0.51732 0.55117 0.0
C2432 C 0.58807 0.49504 0.56829 0.0
C2433 C 0.57108 0.47437 0.56814 0.0
C2434 C 0.55019 0.47537 0.55902 0.0
C2435 C 0.54635 0.49651 0.55067 0.0
H2436 H 0.43966 0.80762 0.39848 0.0
H2437 H 0.46745 0.82147 0.3365 0.0
H2438 H 0.4051 0.81007 0.37676 0.0
H2439 H 0.43293 0.82309 0.31481 0.0
H2440 H 0.35963 0.78288 0.28061 0.0
H2441 H 0.39476 0.78506 0.30374 0.0
H2442 H 0.39032 0.84704 0.35279 0.0
H2443 H 0.35529 0.84547 0.32902 0.0
C2444 C 0.43846 0.8113 0.38034 0.0
C2445 C 0.45637 0.81439 0.36926 0.0
C2446 C 0.41872 0.81279 0.36797 0.0
C2447 C 0.41639 0.81679 0.34412 0.0
C2448 C 0.43429 0.82003 0.33317 0.0
C2449 C 0.45407 0.81915 0.34566 0.0
C2450 C 0.36624 0.79716 0.29616 0.0
C2451 C 0.35481 0.81411 0.30289 0.0
C2452 C 0.38631 0.79837 0.30941 0.0
C2453 C 0.39519 0.81614 0.33008 0.0
C2454 C 0.38377 0.8331 0.33696 0.0
C2455 C 0.36385 0.83232 0.32328 0.0
H2456 H 0.09497 0.78843 0.13808 0.0
H2457 H 0.04147 0.78113 0.08114 0.0
H2458 H 0.09533 0.74565 0.12442 0.0
H2459 H 0.04217 0.73901 0.06732 0.0
H2460 H 0.02873 0.65756 0.06782 0.0
H2461 H 0.03234 0.70077 0.08195 0.0
H2462 H 0.10095 0.71547 0.09238 0.0
H2463 H 0.09734 0.67146 0.07839 0.0
C2464 C 0.08354 0.7779 0.12243 0.0
C2465 C 0.06801 0.78819 0.11091 0.0
C2466 C 0.08377 0.75338 0.11458 0.0
C2467 C 0.06851 0.73867 0.09504 0.0
C2468 C 0.05379 0.74949 0.08283 0.0
C2469 C 0.05348 0.7738 0.0907 0.0
C2470 C 0.04467 0.66983 0.07319 0.0
C2471 C 0.06275 0.66092 0.07179 0.0
C2472 C 0.04673 0.69479 0.08116 0.0
C2473 C 0.06693 0.71181 0.0879 0.0
C2474 C 0.08514 0.70288 0.08732 0.0
C2475 C 0.08308 0.67766 0.07931 0.0
H2476 H 0.07298 0.3589 0.85578 0.0
H2477 H 0.08008 0.30051 0.89601 0.0
H2478 H 0.10649 0.35893 0.84278 0.0
H2479 H 0.11389 0.30088 0.88333 0.0
H2480 H 0.15722 0.2875 0.82924 0.0
H2481 H 0.12612 0.28898 0.84702 0.0
H2482 H 0.14465 0.36887 0.85607 0.0
H2483 H 0.17574 0.36738 0.8383 0.0
C2484 C 0.0818 0.34626 0.8621 0.0
C2485 C 0.07376 0.32964 0.87687 0.0
C2486 C 0.10112 0.34638 0.85474 0.0
C2487 C 0.1129 0.32987 0.86196 0.0
C2488 C 0.1051 0.31362 0.87719 0.0
C2489 C 0.08578 0.31354 0.88459 0.0
C2490 C 0.15488 0.3054 0.83541 0.0
C2491 C 0.16892 0.32731 0.83219 0.0
C2492 C 0.13702 0.30625 0.84561 0.0
C2493 C 0.13278 0.32904 0.85284 0.0
C2494 C 0.14719 0.35098 0.85029 0.0
C2495 C 0.16503 0.35012 0.84011 0.0
H2496 H 0.55619 0.7676 0.95816 0.0
H2497 H 0.491 0.74572 0.96845 0.0
H2498 H 0.56297 0.73131 0.97422 0.0
H2499 H 0.49776 0.70948 0.98402 0.0
H2500 H 0.51219 0.63245 0.9821 0.0
H2501 H 0.50617 0.66951 0.96699 0.0
H2502 H 0.56403 0.71411 0.01368 0.0
H2503 H 0.5699 0.67729 0.02904 0.0
C2504 C 0.54338 0.75526 0.96405 0.0
C2505 C 0.52309 0.75981 0.96213 0.0
C2506 C 0.54726 0.73444 0.97321 0.0
C2507 C 0.53085 0.71741 0.98022 0.0
C2508 C 0.51068 0.72209 0.97855 0.0
C2509 C 0.5069 0.74307 0.96982 0.0
C2510 C 0.52362 0.65016 0.98911 0.0
C2511 C 0.54144 0.65188 1.00684 0.0
C2512 C 0.52014 0.6714 0.98054 0.0
C2513 C 0.53463 0.69477 0.98916 0.0
C2514 C 0.55265 0.69639 1.00658 0.0
C2515 C 0.55591 0.67527 0.01546 0.0
H2516 H 0.14917 0.8681 0.67643 0.0
H2517 H 0.12685 0.83323 0.73398 0.0
H2518 H 0.18568 0.86698 0.6928 0.0
H2519 H 0.16292 0.83221 0.75011 0.0
H2520 H 0.22349 0.80639 0.75496 0.0
H2521 H 0.18834 0.80954 0.73762 0.0
H2522 H 0.21524 0.88519 0.72984 0.0
H2523 H 0.25081 0.88209 0.74726 0.0
C2524 C 0.15202 0.86023 0.69251 0.0
C2525 C 0.13504 0.85067 0.70382 0.0
C2526 C 0.17292 0.85974 0.70196 0.0
C2527 C 0.17715 0.8494 0.72269 0.0
C2528 C 0.16017 0.84002 0.73397 0.0
C2529 C 0.13946 0.84072 0.72472 0.0
C2530 C 0.22204 0.82377 0.74961 0.0
C2531 C 0.24004 0.84405 0.75265 0.0
C2532 C 0.20181 0.82557 0.73972 0.0
C2533 C 0.19898 0.84764 0.73244 0.0
C2534 C 0.21695 0.86789 0.73516 0.0
C2535 C 0.23728 0.86617 0.74532 0.0
H2536 H 0.01591 0.38235 0.48799 0.0
H2537 H 0.04491 0.39987 0.42762 0.0
H2538 H 0.02598 0.42624 0.50515 0.0
H2539 H 0.05463 0.44419 0.44477 0.0
H2540 H 0.04021 0.52222 0.47909 0.0
H2541 H 0.03267 0.47936 0.45763 0.0
H2542 H 0.06363 0.45837 0.52067 0.0
H2543 H 0.07157 0.50048 0.54157 0.0
C2544 C 0.02454 0.39555 0.47841 0.0
C2545 C 0.02979 0.38744 0.45653 0.0
C2546 C 0.03024 0.42074 0.48822 0.0
C2547 C 0.04099 0.43873 0.47626 0.0
C2548 C 0.04621 0.43079 0.4543 0.0
C2549 C 0.04087 0.40539 0.44467 0.0
C2550 C 0.04577 0.50853 0.48809 0.0
C2551 C 0.05648 0.51486 0.51208 0.0
C2552 C 0.04143 0.48401 0.47586 0.0
C2553 C 0.0474 0.46542 0.48758 0.0
C2554 C 0.05863 0.47211 0.51121 0.0
C2555 C 0.06321 0.49639 0.52317 0.0
H2556 H 0.53532 0.33695 0.22189 0.0
H2557 H 0.49773 0.33142 0.15195 0.0
H2558 H 0.50464 0.34045 0.23985 0.0
H2559 H 0.46694 0.33389 0.16959 0.0
H2560 H 0.42707 0.37443 0.20868 0.0
H2561 H 0.45615 0.36533 0.19098 0.0
H2562 H 0.46985 0.32294 0.24647 0.0
H2563 H 0.44091 0.33266 0.2645 0.0
C2564 C 0.52032 0.3357 0.2103 0.0
C2565 C 0.51903 0.33412 0.18551 0.0
C2566 C 0.5027 0.33775 0.22058 0.0
C2567 C 0.48334 0.33797 0.20624 0.0
C2568 C 0.48173 0.3346 0.1813 0.0
C2569 C 0.49938 0.33292 0.17111 0.0
C2570 C 0.43616 0.36297 0.21698 0.0
C2571 C 0.43163 0.35422 0.23795 0.0
C2572 C 0.45282 0.35762 0.20677 0.0
C2573 C 0.46533 0.34315 0.21712 0.0
C2574 C 0.46075 0.33434 0.23812 0.0
C2575 C 0.44414 0.33989 0.24845 0.0
H2576 H 0.61901 0.62862 0.38284 0.0
H2577 H 0.65748 0.5835 0.41306 0.0
H2578 H 0.59635 0.62082 0.41255 0.0
H2579 H 0.63444 0.57526 0.44233 0.0
H2580 H 0.56605 0.5429 0.46293 0.0
H2581 H 0.59122 0.55165 0.43546 0.0
H2582 H 0.60372 0.63 0.46062 0.0
H2583 H 0.57925 0.62151 0.48797 0.0
C2584 C 0.62281 0.61743 0.39609 0.0
C2585 C 0.64001 0.60681 0.39582 0.0
C2586 C 0.60982 0.61284 0.41289 0.0
C2587 C 0.61362 0.59716 0.42928 0.0
C2588 C 0.63117 0.58715 0.42956 0.0
C2589 C 0.64446 0.59217 0.41309 0.0
C2590 C 0.57422 0.5619 0.46246 0.0
C2591 C 0.57074 0.58149 0.4774 0.0
C2592 C 0.58862 0.56688 0.447 0.0
C2593 C 0.59922 0.59148 0.44613 0.0
C2594 C 0.59562 0.61094 0.46101 0.0
C2595 C 0.58165 0.606 0.47663 0.0
H2596 H 0.29821 0.92272 0.11046 0.0
H2597 H 0.33313 0.86917 0.09348 0.0
H2598 H 0.29449 0.9079 0.14826 0.0
H2599 H 0.32916 0.85421 0.13111 0.0
H2600 H 0.30042 0.82023 0.19237 0.0
H2601 H 0.30152 0.83286 0.15326 0.0
H2602 H 0.32032 0.90958 0.18663 0.0
H2603 H 0.31947 0.89702 0.2258 0.0
C2604 C 0.30463 0.90738 0.11446 0.0
C2605 C 0.31586 0.89706 0.09873 0.0
C2606 C 0.30273 0.8991 0.1363 0.0
C2607 C 0.31167 0.87999 0.14283 0.0
C2608 C 0.322 0.86888 0.12663 0.0
C2609 C 0.32424 0.87745 0.105 0.0
C2610 C 0.30487 0.83981 0.19141 0.0
C2611 C 0.30997 0.85759 0.21232 0.0
C2612 C 0.30554 0.84703 0.16897 0.0
C2613 C 0.3109 0.87224 0.16675 0.0
C2614 C 0.3159 0.89002 0.18764 0.0
C2615 C 0.31561 0.8828 0.21014 0.0
H2616 H 0.97419 0.68087 0.91375 0.0
H2617 H 0.03521 0.6925 0.89162 0.0
H2618 H 0.98709 0.6593 0.94528 0.0
H2619 H 0.04789 0.67114 0.9227 0.0
H2620 H 0.07191 0.65716 0.99529 0.0
H2621 H 0.05581 0.6799 0.96783 0.0
H2622 H 0.99982 0.61804 0.94629 0.0
H2623 H 0.01615 0.59488 0.97404 0.0
C2624 C 0.99039 0.67922 0.91587 0.0
C2625 C 1.00379 0.68856 0.90044 0.0
C2626 C 0.99765 0.66664 0.93366 0.0
C2627 C 0.01846 0.66369 0.93637 0.0
C2628 C 0.03185 0.67341 0.92115 0.0
C2629 C 0.02457 0.68561 0.90335 0.0
C2630 C 0.05612 0.64836 0.9848 0.0
C2631 C 0.04534 0.62416 0.98655 0.0
C2632 C 0.04691 0.66142 0.96914 0.0
C2633 C 0.02667 0.65063 0.95492 0.0
C2634 C 0.01542 0.62676 0.95724 0.0
C2635 C 0.02477 0.61352 0.97294 0.0
H2636 H 0.26933 0.24145 0.58015 0.0
H2637 H 0.32777 0.29962 0.59089 0.0
H2638 H 0.2669 0.25222 0.62191 0.0
H2639 H 0.32504 0.3108 0.63225 0.0
H2640 H 0.26122 0.29105 0.69554 0.0
H2641 H 0.26118 0.2813 0.65281 0.0
H2642 H 0.32983 0.29539 0.66833 0.0
H2643 H 0.3299 0.30564 0.7105 0.0
C2644 C 0.28147 0.25682 0.59125 0.0
C2645 C 0.29882 0.26954 0.582 0.0
C2646 C 0.28005 0.26305 0.61528 0.0
C2647 C 0.29592 0.28221 0.63075 0.0
C2648 C 0.31276 0.29554 0.62118 0.0
C2649 C 0.31423 0.28926 0.59726 0.0
C2650 C 0.27627 0.29198 0.68979 0.0
C2651 C 0.29555 0.29922 0.70659 0.0
C2652 C 0.27627 0.28632 0.66525 0.0
C2653 C 0.29553 0.28777 0.65689 0.0
C2654 C 0.31469 0.2946 0.67383 0.0
C2655 C 0.3147 0.30029 0.69821 0.0
H2656 H 0.65954 0.57666 0.2998 0.0
H2657 H 0.59329 0.53954 0.29603 0.0
H2658 H 0.6497 0.59656 0.26628 0.0
H2659 H 0.58345 0.55785 0.26099 0.0
H2660 H 0.57102 0.61016 0.20968 0.0
H2661 H 0.58091 0.59592 0.2473 0.0
H2662 H 0.63785 0.58348 0.22473 0.0
H2663 H 0.62824 0.59829 0.18776 0.0
C2664 C 0.64282 0.57321 0.29212 0.0
C2665 C 0.6271 0.55722 0.30092 0.0
C2666 C 0.6372 0.58415 0.27256 0.0
C2667 C 0.6158 0.57875 0.26099 0.0
C2668 C 0.60004 0.56269 0.26979 0.0
C2669 C 0.60567 0.55199 0.28962 0.0
C2670 C 0.58569 0.60451 0.213 0.0
C2671 C 0.59898 0.60542 0.19606 0.0
C2672 C 0.59131 0.5963 0.23439 0.0
C2673 C 0.61018 0.58866 0.23898 0.0
C2674 C 0.62346 0.58977 0.22199 0.0
C2675 C 0.61796 0.59818 0.20079 0.0
H2676 H 0.28541 0.90895 0.96929 0.0
H2677 H 0.34844 0.89809 0.97122 0.0
H2678 H 0.27686 0.89426 0.92594 0.0
H2679 H 0.34003 0.88405 0.92827 0.0
H2680 H 0.32484 0.88011 0.8471 0.0
H2681 H 0.3317 0.90033 0.88906 0.0
H2682 H 0.27245 0.85314 0.89857 0.0
H2683 H 0.26592 0.83276 0.85713 0.0
C2684 C 0.29742 0.90343 0.96057 0.0
C2685 C 0.31754 0.90448 0.97399 0.0
C2686 C 0.29255 0.89508 0.93571 0.0
C2687 C 0.30784 0.88818 0.92354 0.0
C2688 C 0.32797 0.88952 0.93692 0.0
C2689 C 0.33267 0.89732 0.96171 0.0
C2690 C 0.31309 0.87452 0.85804 0.0
C2691 C 0.2948 0.85489 0.84879 0.0
C2692 C 0.31708 0.88592 0.88212 0.0
C2693 C 0.30265 0.87829 0.89727 0.0
C2694 C 0.28382 0.85963 0.88748 0.0
C2695 C 0.2801 0.84793 0.86369 0.0
H2696 H 0.97373 0.67173 0.76478 0.0
H2697 H 0.03889 0.71661 0.78647 0.0
H2698 H 0.98352 0.64926 0.73119 0.0
H2699 H 0.0485 0.69463 0.75249 0.0
H2700 H 0.06454 0.63208 0.70947 0.0
H2701 H 0.05261 0.65347 0.74189 0.0
H2702 H 0.99521 0.65326 0.69352 0.0
H2703 H 0.00664 0.63058 0.66129 0.0
C2704 C 0.99004 0.67713 0.76211 0.0
C2705 C 1.0056 0.69584 0.77832 0.0
C2706 C 0.99562 0.66426 0.74287 0.0
C2707 C 0.01682 0.66999 0.73946 0.0
C2708 C 0.03214 0.68945 0.75504 0.0
C2709 C 0.02659 0.7022 0.77434 0.0
C2710 C 0.04919 0.63617 0.70585 0.0
C2711 C 0.03657 0.62982 0.68284 0.0
C2712 C 0.04251 0.64875 0.72432 0.0
C2713 C 0.02317 0.6554 0.7201 0.0
C2714 C 0.01021 0.64837 0.69727 0.0
C2715 C 0.01684 0.63563 0.6788 0.0
H2716 H 0.2722 0.24586 0.43487 0.0
H2717 H 0.31307 0.3147 0.4753 0.0
H2718 H 0.27456 0.26275 0.3979 0.0
H2719 H 0.31442 0.33225 0.43886 0.0
H2720 H 0.33831 0.34699 0.37156 0.0
H2721 H 0.33134 0.33099 0.40749 0.0
H2722 H 0.26852 0.28827 0.37007 0.0
H2723 H 0.27634 0.30351 0.33336 0.0
C2724 C 0.28101 0.26496 0.43596 0.0
C2725 C 0.29239 0.27894 0.45812 0.0
C2726 C 0.28247 0.2747 0.41465 0.0
C2727 C 0.29513 0.29885 0.41497 0.0
C2728 C 0.30515 0.31332 0.43745 0.0
C2729 C 0.30407 0.30342 0.45857 0.0
C2730 C 0.32295 0.33424 0.37096 0.0
C2731 C 0.30784 0.32672 0.34959 0.0
C2732 C 0.31878 0.32516 0.3918 0.0
C2733 C 0.29912 0.30849 0.39223 0.0
C2734 C 0.2839 0.30092 0.37069 0.0
C2735 C 0.28827 0.30981 0.3496 0.0
H2736 H 0.32286 0.65065 0.53527 0.0
H2737 H 0.36719 0.71941 0.53087 0.0
H2738 H 0.35123 0.6296 0.53479 0.0
H2739 H 0.39578 0.69827 0.53105 0.0
H2740 H 0.44224 0.64937 0.55752 0.0
H2741 H 0.41553 0.67257 0.56019 0.0
H2742 H 0.37319 0.62188 0.50037 0.0
H2743 H 0.40018 0.59951 0.49645 0.0
C2744 C 0.33876 0.66141 0.53474 0.0
C2745 C 0.34277 0.68675 0.53319 0.0
C2746 C 0.35494 0.64928 0.53427 0.0
C2747 C 0.37562 0.66229 0.53275 0.0
C2748 C 0.37996 0.68785 0.53229 0.0
C2749 C 0.36361 0.69992 0.53222 0.0
C2750 C 0.42747 0.64334 0.54455 0.0
C2751 C 0.42354 0.62233 0.52677 0.0
C2752 C 0.41211 0.65661 0.54626 0.0
C2753 C 0.39228 0.64888 0.53061 0.0
C2754 C 0.38827 0.62802 0.51288 0.0
C2755 C 0.40375 0.61508 0.5108 0.0
H2756 H 0.87664 0.01827 0.53255 0.0
H2757 H 0.90322 0.9656 0.56696 0.0
H2758 H 0.91245 0.04215 0.53096 0.0
H2759 H 0.93911 0.98963 0.56554 0.0
H2760 H 0.98007 0.09382 0.55937 0.0
H2761 H 0.94396 0.06865 0.55827 0.0
H2762 H 0.96363 1.00236 0.5387 0.0
H2763 H 0.99976 0.02759 0.54001 0.0
C2764 C 0.8901 0.01164 0.53962 0.0
C2765 C 0.88697 0.98994 0.54985 0.0
C2766 C 0.9107 0.02549 0.53888 0.0
C2767 C 0.92877 0.01797 0.54825 0.0
C2768 C 0.92561 0.9959 0.55795 0.0
C2769 C 0.90499 0.98212 0.55881 0.0
C2770 C 0.97664 0.07388 0.55475 0.0
C2771 C 0.9928 0.06273 0.54986 0.0
C2772 C 0.9559 0.05942 0.55399 0.0
C2773 C 0.95079 0.0334 0.54842 0.0
C2774 C 0.96698 0.02229 0.54333 0.0
C2775 C 0.98769 0.03677 0.54395 0.0
H2776 H 0.88337 0.12275 0.19466 0.0
H2777 H 0.84088 0.0652 0.2202 0.0
H2778 H 0.85773 0.14739 0.19469 0.0
H2779 H 0.81417 0.08868 0.2183 0.0
H2780 H 0.79503 0.15342 0.25656 0.0
H2781 H 0.81204 0.12207 0.24369 0.0
H2782 H 0.82631 0.15805 0.18355 0.0
H2783 H 0.81096 0.19091 0.19796 0.0
C2784 C 0.86804 0.11495 0.1992 0.0
C2785 C 0.86403 0.09238 0.20769 0.0
C2786 C 0.85323 0.12899 0.19914 0.0
C2787 C 0.83397 0.12032 0.20704 0.0
C2788 C 0.82912 0.09636 0.21293 0.0
C2789 C 0.84424 0.08274 0.21376 0.0
C2790 C 0.80184 0.1547 0.24061 0.0
C2791 C 0.80212 0.17498 0.22864 0.0
C2792 C 0.81126 0.13635 0.23286 0.0
C2793 C 0.82075 0.13748 0.21256 0.0
C2794 C 0.81956 0.15682 0.19953 0.0
C2795 C 0.81049 0.17551 0.2076 0.0
H2796 H 0.72391 0.20206 0.03666 0.0
H2797 H 0.72299 0.13736 0.98736 0.0
H2798 H 0.68695 0.1834 0.03954 0.0
H2799 H 0.68629 0.11872 0.99044 0.0
H2800 H 0.61383 0.10451 0.98241 0.0
H2801 H 0.65039 0.12398 0.97928 0.0
H2802 H 0.6663 0.14858 0.05557 0.0
H2803 H 0.62967 0.12935 0.05876 0.0
C2804 C 0.71583 0.18392 0.02639 0.0
C2805 C 0.72643 0.17124 0.01176 0.0
C2806 C 0.6947 0.17315 0.02817 0.0
C2807 C 0.68366 0.14956 0.01522 0.0
C2808 C 0.69422 0.13703 1.00043 0.0
C2809 C 0.71533 0.1477 0.99877 0.0
C2810 C 0.6251 0.11401 0.99856 0.0
C2811 C 0.61877 0.11529 0.02085 0.0
C2812 C 0.6461 0.12511 0.99676 0.0
C2813 C 0.66127 0.13788 0.01717 0.0
C2814 C 0.65495 0.13915 0.03946 0.0
C2815 C 0.63397 0.12792 0.0413 0.0
H2816 H 0.20575 0.47841 0.29269 0.0
H2817 H 0.17747 0.41884 0.23323 0.0
H2818 H 0.2372 0.4624 0.30031 0.0
H2819 H 0.20886 0.40258 0.2413 0.0
H2820 H 0.24444 0.36705 0.30203 0.0
H2821 H 0.21922 0.39121 0.29225 0.0
H2822 H 0.26741 0.44395 0.26843 0.0
H2823 H 0.29296 0.41934 0.27757 0.0
C2824 C 0.20654 0.46222 0.28095 0.0
C2825 C 0.18925 0.44965 0.26249 0.0
C2826 C 0.2245 0.45325 0.28524 0.0
C2827 C 0.22521 0.43146 0.27132 0.0
C2828 C 0.20852 0.41963 0.25203 0.0
C2829 C 0.19068 0.42887 0.24743 0.0
C2830 C 0.24991 0.38401 0.29511 0.0
C2831 C 0.27064 0.39118 0.29033 0.0
C2832 C 0.23541 0.39766 0.28939 0.0
C2833 C 0.24146 0.4189 0.27918 0.0
C2834 C 0.26255 0.42735 0.27609 0.0
C2835 C 0.27713 0.41346 0.28157 0.0
H2836 H 0.25898 0.46 0.06515 0.0
H2837 H 0.27639 0.50419 0.01144 0.0
H2838 H 0.22642 0.474 0.06431 0.0
H2839 H 0.24428 0.51842 0.01091 0.0
H2840 H 0.17643 0.52401 0.99943 0.0
H2841 H 0.20607 0.50518 0.99922 0.0
H2842 H 0.21549 0.51147 0.076 0.0
H2843 H 0.1858 0.53044 0.07623 0.0
C2844 C 0.25583 0.47256 0.05307 0.0
C2845 C 0.27035 0.48094 0.03836 0.0
C2846 C 0.23723 0.48074 0.05271 0.0
C2847 C 0.23266 0.49736 0.03754 0.0
C2848 C 0.24705 0.50535 0.02258 0.0
C2849 C 0.26559 0.49727 0.02299 0.0
C2850 C 0.18482 0.52144 0.01631 0.0
C2851 C 0.17879 0.52902 0.03788 0.0
C2852 C 0.20185 0.51061 0.01618 0.0
C2853 C 0.21337 0.50699 0.03761 0.0
C2854 C 0.20688 0.51374 0.05912 0.0
C2855 C 0.18982 0.52463 0.05926 0.0
H2856 H 0.85589 0.9933 0.19845 0.0
H2857 H 0.91397 0.97886 0.23199 0.0
H2858 H 0.83538 0.95375 0.20573 0.0
H2859 H 0.89366 0.9388 0.23883 0.0
H2860 H 0.84754 0.89822 0.28401 0.0
H2861 H 0.8709 0.9294 0.26718 0.0
H2862 H 0.82552 0.90968 0.20039 0.0
H2863 H 0.80203 0.8792 0.2175 0.0
C2864 C 0.86434 0.98093 0.20614 0.0
C2865 C 0.88646 0.98875 0.21425 0.0
C2866 C 0.85261 0.95832 0.21053 0.0
C2867 C 0.86285 0.94323 0.22323 0.0
C2868 C 0.88525 0.95017 0.2294 0.0
C2869 C 0.89694 0.97284 0.22507 0.0
C2870 C 0.8427 0.90051 0.26571 0.0
C2871 C 0.82285 0.88671 0.25221 0.0
C2872 C 0.85615 0.91816 0.25593 0.0
C2873 C 0.85003 0.92216 0.23241 0.0
C2874 C 0.83057 0.90741 0.21865 0.0
C2875 C 0.81712 0.88994 0.22846 0.0
H2876 H 0.67151 0.05803 0.7982 0.0
H2877 H 0.68617 0.03036 0.73097 0.0
H2878 H 0.6959 0.09831 0.79852 0.0
H2879 H 0.71083 0.07022 0.73163 0.0
H2880 H 0.71896 0.15187 0.72249 0.0
H2881 H 0.70312 0.10919 0.72541 0.0
H2882 H 0.73293 0.12274 0.79999 0.0
H2883 H 0.7491 0.16581 0.79701 0.0
C2884 C 0.68027 0.06041 0.78379 0.0
C2885 C 0.67662 0.04129 0.76433 0.0
C2886 C 0.69432 0.08338 0.78404 0.0
C2887 C 0.70502 0.08743 0.76493 0.0
C2888 C 0.70245 0.06774 0.74634 0.0
C2889 C 0.68831 0.04495 0.74598 0.0
C2890 C 0.72264 0.14566 0.73937 0.0
C2891 C 0.73523 0.1622 0.75954 0.0
C2892 C 0.71355 0.12116 0.74105 0.0
C2893 C 0.71681 0.11266 0.76294 0.0
C2894 C 0.72999 0.12892 0.78297 0.0
C2895 C 0.73919 0.15351 0.78126 0.0
loop_
_geom_bond_atom_site_label_1
_geom_bond_atom_site_label_2
_geom_bond_distance
_geom_bond_site_symmetry_2
_ccdc_geom_bond_type
Mg0 O1 2.028 . S
Mg0 O7 1.986 . S
Mg0 O9 2.114 1_455 S
Mg0 O10 2.251 1_455 S
Mg0 O13 2.010 . S
O1 Mg0 2.028 . S
O1 C4 1.250 . S
O2 Mg3 2.028 . S
O2 C4 1.248 1_655 S
Mg3 O2 2.028 . S
Mg3 O8 2.032 . S
Mg3 O10 2.079 . S
C4 O1 1.250 . S
C4 O2 1.248 1_455 S
C5 O6 1.264 . S
C5 O13 1.249 . S
O6 C5 1.264 . S
O7 Mg0 1.986 . S
O7 C11 1.246 . S
O8 Mg3 2.032 . S
O8 C11 1.259 1_655 S
O9 Mg0 2.114 1_655 S
O9 C12 1.252 . S
O10 Mg0 2.251 1_655 S
O10 Mg3 2.079 . S
O10 C12 1.273 . S
C11 O7 1.246 . S
C11 O8 1.259 1_455 S
C12 O9 1.252 . S
C12 O10 1.273 . S
O13 Mg0 2.010 . S
O13 C5 1.249 . S
Mg14 O15 2.028 . S
Mg14 O21 1.986 . S
Mg14 O23 2.114 . S
Mg14 O24 2.251 . S
Mg14 O27 2.010 . S
O15 Mg14 2.028 . S
O15 C18 1.250 . S
O16 Mg17 2.028 . S
O16 C18 1.248 . S
Mg17 O16 2.028 . S
Mg17 O22 2.032 . S
Mg17 O24 2.079 . S
C18 O15 1.250 . S
C18 O16 1.248 . S
C19 O20 1.264 . S
C19 O27 1.249 . S
O20 C19 1.264 . S
O21 Mg14 1.986 . S
O21 C25 1.246 . S
O22 Mg17 2.032 . S
O22 C25 1.259 . S
O23 Mg14 2.114 . S
O23 C26 1.252 . S
O24 Mg14 2.251 . S
O24 Mg17 2.079 . S
O24 C26 1.273 . S
C25 O21 1.246 . S
C25 O22 1.259 . S
C26 O23 1.252 . S
C26 O24 1.273 . S
O27 Mg14 2.010 . S
O27 C19 1.249 . S
Mg28 O29 2.028 . S
Mg28 O35 1.986 . S
Mg28 O37 2.114 . S
Mg28 O38 2.251 . S
Mg28 O41 2.010 . S
O29 Mg28 2.028 . S
O29 C32 1.250 . S
O30 Mg31 2.028 . S
O30 C32 1.248 . S
Mg31 O30 2.028 . S
Mg31 O36 2.032 . S
Mg31 O38 2.079 . S
C32 O29 1.250 . S
C32 O30 1.248 . S
C33 O34 1.264 . S
C33 O41 1.249 . S
O34 C33 1.264 . S
O35 Mg28 1.986 . S
O35 C39 1.246 . S
O36 Mg31 2.032 . S
O36 C39 1.259 . S
O37 Mg28 2.114 . S
O37 C40 1.252 . S
O38 Mg28 2.251 . S
O38 Mg31 2.079 . S
O38 C40 1.273 . S
C39 O35 1.246 . S
C39 O36 1.259 . S
C40 O37 1.252 . S
C40 O38 1.273 . S
O41 Mg28 2.010 . S
O41 C33 1.249 . S
Mg42 O43 2.028 . S
Mg42 O49 1.986 . S
Mg42 O51 2.114 . S
Mg42 O52 2.251 . S
Mg42 O55 2.010 . S
O43 Mg42 2.028 . S
O43 C46 1.250 . S
O44 Mg45 2.028 . S
O44 C46 1.248 . S
Mg45 O44 2.028 . S
Mg45 O50 2.032 . S
Mg45 O52 2.079 . S
C46 O43 1.250 . S
C46 O44 1.248 . S
C47 O48 1.264 . S
C47 O55 1.249 . S
O48 C47 1.264 . S
O49 Mg42 1.986 . S
O49 C53 1.246 . S
O50 Mg45 2.032 . S
O50 C53 1.259 . S
O51 Mg42 2.114 . S
O51 C54 1.252 . S
O52 Mg42 2.251 . S
O52 Mg45 2.079 . S
O52 C54 1.273 . S
C53 O49 1.246 . S
C53 O50 1.259 . S
C54 O51 1.252 . S
C54 O52 1.273 . S
O55 Mg42 2.010 . S
O55 C47 1.249 . S
Mg56 O57 2.028 . S
Mg56 O63 1.986 . S
Mg56 O65 2.114 . S
Mg56 O66 2.251 . S
Mg56 O69 2.010 . S
O57 Mg56 2.028 . S
O57 C60 1.250 . S
O58 Mg59 2.028 . S
O58 C60 1.248 . S
Mg59 O58 2.028 . S
Mg59 O64 2.032 . S
Mg59 O66 2.079 . S
C60 O57 1.250 . S
C60 O58 1.248 . S
C61 O62 1.264 . S
C61 O69 1.249 . S
O62 C61 1.264 . S
O63 Mg56 1.986 . S
O63 C67 1.246 . S
O64 Mg59 2.032 . S
O64 C67 1.259 . S
O65 Mg56 2.114 . S
O65 C68 1.252 . S
O66 Mg56 2.251 . S
O66 Mg59 2.079 . S
O66 C68 1.273 . S
C67 O63 1.246 . S
C67 O64 1.259 . S
C68 O65 1.252 . S
C68 O66 1.273 . S
O69 Mg56 2.010 . S
O69 C61 1.249 . S
Mg70 O71 2.028 . S
Mg70 O77 1.986 . S
Mg70 O79 2.114 . S
Mg70 O80 2.251 . S
Mg70 O83 2.010 . S
O71 Mg70 2.028 . S
O71 C74 1.250 . S
O72 Mg73 2.028 . S
O72 C74 1.248 . S
Mg73 O72 2.028 . S
Mg73 O78 2.032 . S
Mg73 O80 2.079 . S
C74 O71 1.250 . S
C74 O72 1.248 . S
C75 O76 1.264 . S
C75 O83 1.249 . S
O76 C75 1.264 . S
O77 Mg70 1.986 . S
O77 C81 1.246 . S
O78 Mg73 2.032 . S
O78 C81 1.259 . S
O79 Mg70 2.114 . S
O79 C82 1.252 . S
O80 Mg70 2.251 . S
O80 Mg73 2.079 . S
O80 C82 1.273 . S
C81 O77 1.246 . S
C81 O78 1.259 . S
C82 O79 1.252 . S
C82 O80 1.273 . S
O83 Mg70 2.010 . S
O83 C75 1.249 . S
Mg84 O85 2.028 . S
Mg84 O91 1.986 . S
Mg84 O93 2.114 . S
Mg84 O94 2.251 . S
Mg84 O97 2.010 . S
O85 Mg84 2.028 . S
O85 C88 1.250 . S
O86 Mg87 2.028 . S
O86 C88 1.248 . S
Mg87 O86 2.028 . S
Mg87 O92 2.032 . S
Mg87 O94 2.079 . S
C88 O85 1.250 . S
C88 O86 1.248 . S
C89 O90 1.264 . S
C89 O97 1.249 . S
O90 C89 1.264 . S
O91 Mg84 1.986 . S
O91 C95 1.246 . S
O92 Mg87 2.032 . S
O92 C95 1.259 . S
O93 Mg84 2.114 . S
O93 C96 1.252 . S
O94 Mg84 2.251 . S
O94 Mg87 2.079 . S
O94 C96 1.273 . S
C95 O91 1.246 . S
C95 O92 1.259 . S
C96 O93 1.252 . S
C96 O94 1.273 . S
O97 Mg84 2.010 . S
O97 C89 1.249 . S
Mg98 O99 2.028 . S
Mg98 O105 1.986 . S
Mg98 O107 2.114 1_455 S
Mg98 O108 2.251 1_455 S
Mg98 O111 2.010 . S
O99 Mg98 2.028 . S
O99 C102 1.250 . S
O100 Mg101 2.028 1_455 S
O100 C102 1.248 . S
Mg101 O100 2.028 1_655 S
Mg101 O106 2.032 . S
Mg101 O108 2.079 . S
C102 O99 1.250 . S
C102 O100 1.248 . S
C103 O104 1.264 . S
C103 O111 1.249 . S
O104 C103 1.264 . S
O105 Mg98 1.986 . S
O105 C109 1.246 . S
O106 Mg101 2.032 . S
O106 C109 1.259 1_655 S
O107 Mg98 2.114 1_655 S
O107 C110 1.252 . S
O108 Mg98 2.251 1_655 S
O108 Mg101 2.079 . S
O108 C110 1.273 . S
C109 O105 1.246 . S
C109 O106 1.259 1_455 S
C110 O107 1.252 . S
C110 O108 1.273 . S
O111 Mg98 2.010 . S
O111 C103 1.249 . S
Mg112 O113 2.028 . S
Mg112 O119 1.986 . S
Mg112 O121 2.114 . S
Mg112 O122 2.251 . S
Mg112 O125 2.010 . S
O113 Mg112 2.028 . S
O113 C116 1.250 . S
O114 Mg115 2.028 . S
O114 C116 1.248 . S
Mg115 O114 2.028 . S
Mg115 O120 2.032 . S
Mg115 O122 2.079 . S
C116 O113 1.250 . S
C116 O114 1.248 . S
C117 O118 1.264 . S
C117 O125 1.249 . S
O118 C117 1.264 . S
O119 Mg112 1.986 . S
O119 C123 1.246 . S
O120 Mg115 2.032 . S
O120 C123 1.259 . S
O121 Mg112 2.114 . S
O121 C124 1.252 . S
O122 Mg112 2.251 . S
O122 Mg115 2.079 . S
O122 C124 1.273 . S
C123 O119 1.246 . S
C123 O120 1.259 . S
C124 O121 1.252 . S
C124 O122 1.273 . S
O125 Mg112 2.010 . S
O125 C117 1.249 . S
Mg126 O127 2.028 . S
Mg126 O133 1.986 . S
Mg126 O135 2.114 . S
Mg126 O136 2.251 . S
Mg126 O139 2.010 . S
O127 Mg126 2.028 . S
O127 C130 1.250 . S
O128 Mg129 2.028 . S
O128 C130 1.248 . S
Mg129 O128 2.028 . S
Mg129 O134 2.032 . S
Mg129 O136 2.079 . S
C130 O127 1.250 . S
C130 O128 1.248 . S
C131 O132 1.264 . S
C131 O139 1.249 . S
O132 C131 1.264 . S
O133 Mg126 1.986 . S
O133 C137 1.246 . S
O134 Mg129 2.032 . S
O134 C137 1.259 . S
O135 Mg126 2.114 . S
O135 C138 1.252 . S
O136 Mg126 2.251 . S
O136 Mg129 2.079 . S
O136 C138 1.273 . S
C137 O133 1.246 . S
C137 O134 1.259 . S
C138 O135 1.252 . S
C138 O136 1.273 . S
O139 Mg126 2.010 . S
O139 C131 1.249 . S
Mg140 O141 2.028 . S
Mg140 O147 1.986 . S
Mg140 O149 2.114 . S
Mg140 O150 2.251 . S
Mg140 O153 2.010 . S
O141 Mg140 2.028 . S
O141 C144 1.250 . S
O142 Mg143 2.028 . S
O142 C144 1.248 . S
Mg143 O142 2.028 . S
Mg143 O148 2.032 . S
Mg143 O150 2.079 . S
C144 O141 1.250 . S
C144 O142 1.248 . S
C145 O146 1.264 . S
C145 O153 1.249 . S
O146 C145 1.264 . S
O147 Mg140 1.986 . S
O147 C151 1.246 . S
O148 Mg143 2.032 . S
O148 C151 1.259 . S
O149 Mg140 2.114 . S
O149 C152 1.252 . S
O150 Mg140 2.251 . S
O150 Mg143 2.079 . S
O150 C152 1.273 . S
C151 O147 1.246 . S
C151 O148 1.259 . S
C152 O149 1.252 . S
C152 O150 1.273 . S
O153 Mg140 2.010 . S
O153 C145 1.249 . S
Mg154 O155 2.028 . S
Mg154 O161 1.986 . S
Mg154 O163 2.114 . S
Mg154 O164 2.251 . S
Mg154 O167 2.010 . S
O155 Mg154 2.028 . S
O155 C158 1.250 . S
O156 Mg157 2.028 . S
O156 C158 1.248 . S
Mg157 O156 2.028 . S
Mg157 O162 2.032 . S
Mg157 O164 2.079 . S
C158 O155 1.250 . S
C158 O156 1.248 . S
C159 O160 1.264 . S
C159 O167 1.249 . S
O160 C159 1.264 . S
O161 Mg154 1.986 . S
O161 C165 1.246 . S
O162 Mg157 2.032 . S
O162 C165 1.259 . S
O163 Mg154 2.114 . S
O163 C166 1.252 . S
O164 Mg154 2.251 . S
O164 Mg157 2.079 . S
O164 C166 1.273 . S
C165 O161 1.246 . S
C165 O162 1.259 . S
C166 O163 1.252 . S
C166 O164 1.273 . S
O167 Mg154 2.010 . S
O167 C159 1.249 . S
Mg168 O169 2.028 . S
Mg168 O175 1.986 . S
Mg168 O177 2.114 . S
Mg168 O178 2.251 . S
Mg168 O181 2.010 . S
O169 Mg168 2.028 . S
O169 C172 1.250 1_554 S
O170 Mg171 2.028 . S
O170 C172 1.248 1_554 S
Mg171 O170 2.028 . S
Mg171 O176 2.032 . S
Mg171 O178 2.079 . S
C172 O169 1.250 1_556 S
C172 O170 1.248 1_556 S
C173 O174 1.264 . S
C173 O181 1.249 . S
O174 C173 1.264 . S
O175 Mg168 1.986 . S
O175 C179 1.246 . S
O176 Mg171 2.032 . S
O176 C179 1.259 . S
O177 Mg168 2.114 . S
O177 C180 1.252 . S
O178 Mg168 2.251 . S
O178 Mg171 2.079 . S
O178 C180 1.273 . S
C179 O175 1.246 . S
C179 O176 1.259 . S
C180 O177 1.252 . S
C180 O178 1.273 . S
O181 Mg168 2.010 . S
O181 C173 1.249 . S
Mg182 O183 2.028 1_556 S
Mg182 O189 1.986 . S
Mg182 O191 2.114 1_556 S
Mg182 O192 2.251 . S
Mg182 O195 2.010 . S
O183 Mg182 2.028 1_554 S
O183 C186 1.250 . S
O184 Mg185 2.028 . S
O184 C186 1.248 . S
Mg185 O184 2.028 . S
Mg185 O190 2.032 1_554 S
Mg185 O192 2.079 1_554 S
C186 O183 1.250 . S
C186 O184 1.248 . S
C187 O188 1.264 . S
C187 O195 1.249 . S
O188 C187 1.264 . S
O189 Mg182 1.986 . S
O189 C193 1.246 . S
O190 Mg185 2.032 1_556 S
O190 C193 1.259 . S
O191 Mg182 2.114 1_554 S
O191 C194 1.252 . S
O192 Mg182 2.251 . S
O192 Mg185 2.079 1_556 S
O192 C194 1.273 1_556 S
C193 O189 1.246 . S
C193 O190 1.259 . S
C194 O191 1.252 . S
C194 O192 1.273 1_554 S
O195 Mg182 2.010 . S
O195 C187 1.249 . S
Mg196 O197 2.028 . S
Mg196 O203 1.986 . S
Mg196 O205 2.114 . S
Mg196 O206 2.251 . S
Mg196 O209 2.010 . S
O197 Mg196 2.028 . S
O197 C200 1.250 . S
O198 Mg199 2.028 . S
O198 C200 1.248 . S
Mg199 O198 2.028 . S
Mg199 O204 2.032 . S
Mg199 O206 2.079 . S
C200 O197 1.250 . S
C200 O198 1.248 . S
C201 O202 1.264 . S
C201 O209 1.249 . S
O202 C201 1.264 . S
O203 Mg196 1.986 . S
O203 C207 1.246 . S
O204 Mg199 2.032 . S
O204 C207 1.259 . S
O205 Mg196 2.114 . S
O205 C208 1.252 . S
O206 Mg196 2.251 . S
O206 Mg199 2.079 . S
O206 C208 1.273 . S
C207 O203 1.246 . S
C207 O204 1.259 . S
C208 O205 1.252 . S
C208 O206 1.273 . S
O209 Mg196 2.010 . S
O209 C201 1.249 . S
Mg210 O211 2.028 . S
Mg210 O217 1.986 . S
Mg210 O219 2.114 . S
Mg210 O220 2.251 . S
Mg210 O223 2.010 . S
O211 Mg210 2.028 . S
O211 C214 1.250 . S
O212 Mg213 2.028 . S
O212 C214 1.248 . S
Mg213 O212 2.028 . S
Mg213 O218 2.032 . S
Mg213 O220 2.079 . S
C214 O211 1.250 . S
C214 O212 1.248 . S
C215 O216 1.264 . S
C215 O223 1.249 . S
O216 C215 1.264 . S
O217 Mg210 1.986 . S
O217 C221 1.246 . S
O218 Mg213 2.032 . S
O218 C221 1.259 . S
O219 Mg210 2.114 . S
O219 C222 1.252 . S
O220 Mg210 2.251 . S
O220 Mg213 2.079 . S
O220 C222 1.273 . S
C221 O217 1.246 . S
C221 O218 1.259 . S
C222 O219 1.252 . S
C222 O220 1.273 . S
O223 Mg210 2.010 . S
O223 C215 1.249 . S
Mg224 O225 2.028 . S
Mg224 O231 1.986 . S
Mg224 O233 2.114 . S
Mg224 O234 2.251 . S
Mg224 O237 2.010 . S
O225 Mg224 2.028 . S
O225 C228 1.250 . S
O226 Mg227 2.028 . S
O226 C228 1.248 . S
Mg227 O226 2.028 . S
Mg227 O232 2.032 . S
Mg227 O234 2.079 . S
C228 O225 1.250 . S
C228 O226 1.248 . S
C229 O230 1.264 . S
C229 O237 1.249 . S
O230 C229 1.264 . S
O231 Mg224 1.986 . S
O231 C235 1.246 . S
O232 Mg227 2.032 . S
O232 C235 1.259 . S
O233 Mg224 2.114 . S
O233 C236 1.252 . S
O234 Mg224 2.251 . S
O234 Mg227 2.079 . S
O234 C236 1.273 . S
C235 O231 1.246 . S
C235 O232 1.259 . S
C236 O233 1.252 . S
C236 O234 1.273 . S
O237 Mg224 2.010 . S
O237 C229 1.249 . S
Mg238 O239 2.028 . S
Mg238 O245 1.986 . S
Mg238 O247 2.114 . S
Mg238 O248 2.251 . S
Mg238 O251 2.010 . S
O239 Mg238 2.028 . S
O239 C242 1.250 . S
O240 Mg241 2.028 . S
O240 C242 1.248 . S
Mg241 O240 2.028 . S
Mg241 O246 2.032 . S
Mg241 O248 2.079 . S
C242 O239 1.250 . S
C242 O240 1.248 . S
C243 O244 1.264 . S
C243 O251 1.249 . S
O244 C243 1.264 . S
O245 Mg238 1.986 . S
O245 C249 1.246 . S
O246 Mg241 2.032 . S
O246 C249 1.259 . S
O247 Mg238 2.114 . S
O247 C250 1.252 . S
O248 Mg238 2.251 . S
O248 Mg241 2.079 . S
O248 C250 1.273 . S
C249 O245 1.246 . S
C249 O246 1.259 . S
C250 O247 1.252 . S
C250 O248 1.273 . S
O251 Mg238 2.010 . S
O251 C243 1.249 . S
Mg252 O253 2.028 . S
Mg252 O259 1.986 . S
Mg252 O261 2.114 . S
Mg252 O262 2.251 . S
Mg252 O265 2.010 . S
O253 Mg252 2.028 . S
O253 C256 1.250 . S
O254 Mg255 2.028 . S
O254 C256 1.248 . S
Mg255 O254 2.028 . S
Mg255 O260 2.032 . S
Mg255 O262 2.079 . S
C256 O253 1.250 . S
C256 O254 1.248 . S
C257 O258 1.264 . S
C257 O265 1.249 . S
O258 C257 1.264 . S
O259 Mg252 1.986 . S
O259 C263 1.246 . S
O260 Mg255 2.032 . S
O260 C263 1.259 . S
O261 Mg252 2.114 . S
O261 C264 1.252 . S
O262 Mg252 2.251 . S
O262 Mg255 2.079 . S
O262 C264 1.273 . S
C263 O259 1.246 . S
C263 O260 1.259 . S
C264 O261 1.252 . S
C264 O262 1.273 . S
O265 Mg252 2.010 . S
O265 C257 1.249 . S
Mg266 O267 2.028 1_565 S
Mg266 O273 1.986 . S
Mg266 O275 2.114 1_565 S
Mg266 O276 2.251 . S
Mg266 O279 2.010 . S
O267 Mg266 2.028 1_545 S
O267 C270 1.250 . S
O268 Mg269 2.028 . S
O268 C270 1.248 . S
Mg269 O268 2.028 . S
Mg269 O274 2.032 1_545 S
Mg269 O276 2.079 1_545 S
C270 O267 1.250 . S
C270 O268 1.248 . S
C271 O272 1.264 . S
C271 O279 1.249 . S
O272 C271 1.264 . S
O273 Mg266 1.986 . S
O273 C277 1.246 . S
O274 Mg269 2.032 1_565 S
O274 C277 1.259 . S
O275 Mg266 2.114 1_545 S
O275 C278 1.252 . S
O276 Mg266 2.251 . S
O276 Mg269 2.079 1_565 S
O276 C278 1.273 1_565 S
C277 O273 1.246 . S
C277 O274 1.259 . S
C278 O275 1.252 . S
C278 O276 1.273 1_545 S
O279 Mg266 2.010 . S
O279 C271 1.249 . S
Mg280 O281 2.028 . S
Mg280 O287 1.986 1_554 S
Mg280 O289 2.114 . S
Mg280 O290 2.251 . S
Mg280 O293 2.010 . S
O281 Mg280 2.028 . S
O281 C284 1.250 . S
O282 Mg283 2.028 . S
O282 C284 1.248 . S
Mg283 O282 2.028 . S
Mg283 O288 2.032 1_554 S
Mg283 O290 2.079 . S
C284 O281 1.250 . S
C284 O282 1.248 . S
C285 O286 1.264 1_554 S
C285 O293 1.249 . S
O286 C285 1.264 1_556 S
O287 Mg280 1.986 1_556 S
O287 C291 1.246 . S
O288 Mg283 2.032 1_556 S
O288 C291 1.259 . S
O289 Mg280 2.114 . S
O289 C292 1.252 . S
O290 Mg280 2.251 . S
O290 Mg283 2.079 . S
O290 C292 1.273 . S
C291 O287 1.246 . S
C291 O288 1.259 . S
C292 O289 1.252 . S
C292 O290 1.273 . S
O293 Mg280 2.010 . S
O293 C285 1.249 . S
Mg294 O295 2.028 . S
Mg294 O301 1.986 . S
Mg294 O303 2.114 . S
Mg294 O304 2.251 . S
Mg294 O307 2.010 . S
O295 Mg294 2.028 . S
O295 C298 1.250 . S
O296 Mg297 2.028 . S
O296 C298 1.248 . S
Mg297 O296 2.028 . S
Mg297 O302 2.032 . S
Mg297 O304 2.079 . S
C298 O295 1.250 . S
C298 O296 1.248 . S
C299 O300 1.264 1_655 S
C299 O307 1.249 . S
O300 C299 1.264 1_455 S
O301 Mg294 1.986 . S
O301 C305 1.246 . S
O302 Mg297 2.032 . S
O302 C305 1.259 . S
O303 Mg294 2.114 . S
O303 C306 1.252 . S
O304 Mg294 2.251 . S
O304 Mg297 2.079 . S
O304 C306 1.273 . S
C305 O301 1.246 . S
C305 O302 1.259 . S
C306 O303 1.252 . S
C306 O304 1.273 . S
O307 Mg294 2.010 . S
O307 C299 1.249 . S
Mg308 O309 2.028 . S
Mg308 O315 1.986 . S
Mg308 O317 2.114 . S
Mg308 O318 2.251 . S
Mg308 O321 2.010 . S
O309 Mg308 2.028 . S
O309 C312 1.250 . S
O310 Mg311 2.028 . S
O310 C312 1.248 . S
Mg311 O310 2.028 . S
Mg311 O316 2.032 . S
Mg311 O318 2.079 . S
C312 O309 1.250 . S
C312 O310 1.248 . S
C313 O314 1.264 . S
C313 O321 1.249 . S
O314 C313 1.264 . S
O315 Mg308 1.986 . S
O315 C319 1.246 . S
O316 Mg311 2.032 . S
O316 C319 1.259 . S
O317 Mg308 2.114 . S
O317 C320 1.252 . S
O318 Mg308 2.251 . S
O318 Mg311 2.079 . S
O318 C320 1.273 . S
C319 O315 1.246 . S
C319 O316 1.259 . S
C320 O317 1.252 . S
C320 O318 1.273 . S
O321 Mg308 2.010 . S
O321 C313 1.249 . S
Mg322 O323 2.028 . S
Mg322 O329 1.986 . S
Mg322 O331 2.114 . S
Mg322 O332 2.251 . S
Mg322 O335 2.010 . S
O323 Mg322 2.028 . S
O323 C326 1.250 . S
O324 Mg325 2.028 . S
O324 C326 1.248 . S
Mg325 O324 2.028 . S
Mg325 O330 2.032 . S
Mg325 O332 2.079 . S
C326 O323 1.250 . S
C326 O324 1.248 . S
C327 O328 1.264 . S
C327 O335 1.249 . S
O328 C327 1.264 . S
O329 Mg322 1.986 . S
O329 C333 1.246 . S
O330 Mg325 2.032 . S
O330 C333 1.259 . S
O331 Mg322 2.114 . S
O331 C334 1.252 . S
O332 Mg322 2.251 . S
O332 Mg325 2.079 . S
O332 C334 1.273 . S
C333 O329 1.246 . S
C333 O330 1.259 . S
C334 O331 1.252 . S
C334 O332 1.273 . S
O335 Mg322 2.010 . S
O335 C327 1.249 . S
Pr336 C338 2.880 1_454 S
Pr336 O356 2.562 1_455 S
Pr336 O357 2.490 1_454 S
Pr336 O358 2.695 . S
Pr336 O359 2.512 1_554 S
Pr336 O361 2.437 . S
Pr336 O364 2.436 . S
Pr336 O366 2.438 . S
Pr337 C347 2.880 . S
Pr337 O358 2.436 . S
Pr337 O360 2.438 . S
Pr337 O362 2.562 . S
Pr337 O363 2.490 . S
Pr337 O364 2.695 . S
Pr337 O365 2.512 . S
Pr337 O367 2.437 . S
C338 Pr336 2.880 1_656 S
C338 C339 1.491 . S
C338 O356 1.254 1_556 S
C338 O357 1.225 . S
C339 C338 1.491 . S
C339 C340 1.392 . S
C339 C344 1.356 . S
C340 C339 1.392 . S
C340 C341 1.368 . S
C340 H368 0.929 . S
C341 C340 1.368 . S
C341 C342 1.386 . S
C341 H369 0.929 . S
C342 C341 1.386 . S
C342 C343 1.373 . S
C343 C342 1.373 . S
C343 C344 1.409 . S
C343 H370 0.931 . S
C344 C339 1.356 . S
C344 C343 1.409 . S
C344 H371 0.930 1_556 S
C345 O358 1.270 1_556 S
C345 O359 1.248 . S
C346 O360 1.267 . S
C346 O361 1.278 . S
C347 Pr337 2.880 . S
C347 C348 1.491 . S
C347 O362 1.254 . S
C347 O363 1.225 . S
C348 C347 1.491 . S
C348 C349 1.392 . S
C348 C353 1.356 . S
C349 C348 1.392 . S
C349 C350 1.368 . S
C349 H372 0.929 . S
C350 C349 1.368 . S
C350 C351 1.386 . S
C350 H373 0.929 . S
C351 C350 1.386 . S
C351 C352 1.373 . S
C352 C351 1.373 . S
C352 C353 1.409 . S
C352 H374 0.931 . S
C353 C348 1.356 . S
C353 C352 1.409 . S
C353 H375 0.930 . S
C354 O364 1.270 . S
C354 O365 1.248 . S
C355 O366 1.267 . S
C355 O367 1.278 . S
O356 Pr336 2.562 1_655 S
O356 C338 1.254 1_554 S
O357 Pr336 2.490 1_656 S
O357 C338 1.225 . S
O358 Pr336 2.695 . S
O358 Pr337 2.436 . S
O358 C345 1.270 1_554 S
O359 Pr336 2.512 1_556 S
O359 C345 1.248 . S
O360 Pr337 2.438 . S
O360 C346 1.267 . S
O361 Pr336 2.437 . S
O361 C346 1.278 . S
O362 Pr337 2.562 . S
O362 C347 1.254 . S
O363 Pr337 2.490 . S
O363 C347 1.225 . S
O364 Pr336 2.436 . S
O364 Pr337 2.695 . S
O364 C354 1.270 . S
O365 Pr337 2.512 . S
O365 C354 1.248 . S
O366 Pr336 2.438 . S
O366 C355 1.267 . S
O367 Pr337 2.437 . S
O367 C355 1.278 . S
H368 C340 0.929 . S
H369 C341 0.929 . S
H370 C343 0.931 . S
H371 C344 0.930 1_554 S
H372 C349 0.929 . S
H373 C350 0.929 . S
H374 C352 0.931 . S
H375 C353 0.930 . S
Pr376 C378 2.880 . S
Pr376 O396 2.562 . S
Pr376 O397 2.490 . S
Pr376 O398 2.695 . S
Pr376 O399 2.512 . S
Pr376 O401 2.437 . S
Pr376 O404 2.436 . S
Pr376 O406 2.438 . S
Pr377 C387 2.880 . S
Pr377 O398 2.436 . S
Pr377 O400 2.438 . S
Pr377 O402 2.562 . S
Pr377 O403 2.490 . S
Pr377 O404 2.695 . S
Pr377 O405 2.512 . S
Pr377 O407 2.437 . S
C378 Pr376 2.880 . S
C378 C379 1.491 . S
C378 O396 1.254 . S
C378 O397 1.225 . S
C379 C378 1.491 . S
C379 C380 1.392 . S
C379 C384 1.356 . S
C380 C379 1.392 . S
C380 C381 1.368 . S
C380 H408 0.929 . S
C381 C380 1.368 . S
C381 C382 1.386 . S
C381 H409 0.929 . S
C382 C381 1.386 . S
C382 C383 1.373 . S
C383 C382 1.373 . S
C383 C384 1.409 . S
C383 H410 0.931 . S
C384 C379 1.356 . S
C384 C383 1.409 . S
C384 H411 0.930 . S
C385 O398 1.270 . S
C385 O399 1.248 . S
C386 O400 1.267 . S
C386 O401 1.278 . S
C387 Pr377 2.880 . S
C387 C388 1.491 . S
C387 O402 1.254 . S
C387 O403 1.225 . S
C388 C387 1.491 . S
C388 C389 1.392 . S
C388 C393 1.356 . S
C389 C388 1.392 . S
C389 C390 1.368 . S
C389 H412 0.929 . S
C390 C389 1.368 . S
C390 C391 1.386 . S
C390 H413 0.929 . S
C391 C390 1.386 . S
C391 C392 1.373 . S
C392 C391 1.373 . S
C392 C393 1.409 . S
C392 H414 0.931 . S
C393 C388 1.356 . S
C393 C392 1.409 . S
C393 H415 0.930 . S
C394 O404 1.270 . S
C394 O405 1.248 . S
C395 O406 1.267 . S
C395 O407 1.278 . S
O396 Pr376 2.562 . S
O396 C378 1.254 . S
O397 Pr376 2.490 . S
O397 C378 1.225 . S
O398 Pr376 2.695 . S
O398 Pr377 2.436 . S
O398 C385 1.270 . S
O399 Pr376 2.512 . S
O399 C385 1.248 . S
O400 Pr377 2.438 . S
O400 C386 1.267 . S
O401 Pr376 2.437 . S
O401 C386 1.278 . S
O402 Pr377 2.562 . S
O402 C387 1.254 . S
O403 Pr377 2.490 . S
O403 C387 1.225 . S
O404 Pr376 2.436 . S
O404 Pr377 2.695 . S
O404 C394 1.270 . S
O405 Pr377 2.512 . S
O405 C394 1.248 . S
O406 Pr376 2.438 . S
O406 C395 1.267 . S
O407 Pr377 2.437 . S
O407 C395 1.278 . S
H408 C380 0.929 . S
H409 C381 0.929 . S
H410 C383 0.931 . S
H411 C384 0.930 . S
H412 C389 0.929 . S
H413 C390 0.929 . S
H414 C392 0.931 . S
H415 C393 0.930 . S
Pr416 C418 2.880 . S
Pr416 O436 2.562 . S
Pr416 O437 2.490 . S
Pr416 O438 2.695 . S
Pr416 O439 2.512 . S
Pr416 O441 2.437 . S
Pr416 O444 2.436 . S
Pr416 O446 2.438 . S
Pr417 C427 2.880 . S
Pr417 O438 2.436 . S
Pr417 O440 2.438 . S
Pr417 O442 2.562 . S
Pr417 O443 2.490 . S
Pr417 O444 2.695 . S
Pr417 O445 2.512 . S
Pr417 O447 2.437 . S
C418 Pr416 2.880 . S
C418 C419 1.491 . S
C418 O436 1.254 . S
C418 O437 1.225 . S
C419 C418 1.491 . S
C419 C420 1.392 . S
C419 C424 1.356 . S
C420 C419 1.392 . S
C420 C421 1.368 . S
C420 H448 0.929 . S
C421 C420 1.368 . S
C421 C422 1.386 . S
C421 H449 0.929 . S
C422 C421 1.386 . S
C422 C423 1.373 . S
C423 C422 1.373 . S
C423 C424 1.409 . S
C423 H450 0.931 . S
C424 C419 1.356 . S
C424 C423 1.409 . S
C424 H451 0.930 . S
C425 O438 1.270 . S
C425 O439 1.248 . S
C426 O440 1.267 . S
C426 O441 1.278 . S
C427 Pr417 2.880 . S
C427 C428 1.491 . S
C427 O442 1.254 . S
C427 O443 1.225 . S
C428 C427 1.491 . S
C428 C429 1.392 . S
C428 C433 1.356 . S
C429 C428 1.392 . S
C429 C430 1.368 . S
C429 H452 0.929 . S
C430 C429 1.368 . S
C430 C431 1.386 . S
C430 H453 0.929 . S
C431 C430 1.386 . S
C431 C432 1.373 . S
C432 C431 1.373 . S
C432 C433 1.409 . S
C432 H454 0.931 . S
C433 C428 1.356 . S
C433 C432 1.409 . S
C433 H455 0.930 . S
C434 O444 1.270 . S
C434 O445 1.248 . S
C435 O446 1.267 . S
C435 O447 1.278 . S
O436 Pr416 2.562 . S
O436 C418 1.254 . S
O437 Pr416 2.490 . S
O437 C418 1.225 . S
O438 Pr416 2.695 . S
O438 Pr417 2.436 . S
O438 C425 1.270 . S
O439 Pr416 2.512 . S
O439 C425 1.248 . S
O440 Pr417 2.438 . S
O440 C426 1.267 . S
O441 Pr416 2.437 . S
O441 C426 1.278 . S
O442 Pr417 2.562 . S
O442 C427 1.254 . S
O443 Pr417 2.490 . S
O443 C427 1.225 . S
O444 Pr416 2.436 . S
O444 Pr417 2.695 . S
O444 C434 1.270 . S
O445 Pr417 2.512 . S
O445 C434 1.248 . S
O446 Pr416 2.438 . S
O446 C435 1.267 . S
O447 Pr417 2.437 . S
O447 C435 1.278 . S
H448 C420 0.929 . S
H449 C421 0.929 . S
H450 C423 0.931 . S
H451 C424 0.930 . S
H452 C429 0.929 . S
H453 C430 0.929 . S
H454 C432 0.931 . S
H455 C433 0.930 . S
Pr456 C458 2.880 . S
Pr456 O476 2.562 . S
Pr456 O477 2.490 . S
Pr456 O478 2.695 . S
Pr456 O479 2.512 . S
Pr456 O481 2.437 . S
Pr456 O484 2.436 . S
Pr456 O486 2.438 . S
Pr457 C467 2.880 . S
Pr457 O478 2.436 . S
Pr457 O480 2.438 . S
Pr457 O482 2.562 . S
Pr457 O483 2.490 . S
Pr457 O484 2.695 . S
Pr457 O485 2.512 . S
Pr457 O487 2.437 . S
C458 Pr456 2.880 . S
C458 C459 1.491 . S
C458 O476 1.254 . S
C458 O477 1.225 . S
C459 C458 1.491 . S
C459 C460 1.392 . S
C459 C464 1.356 . S
C460 C459 1.392 . S
C460 C461 1.368 . S
C460 H488 0.929 . S
C461 C460 1.368 . S
C461 C462 1.386 . S
C461 H489 0.929 . S
C462 C461 1.386 . S
C462 C463 1.373 . S
C463 C462 1.373 . S
C463 C464 1.409 . S
C463 H490 0.931 . S
C464 C459 1.356 . S
C464 C463 1.409 . S
C464 H491 0.930 . S
C465 O478 1.270 . S
C465 O479 1.248 . S
C466 O480 1.267 . S
C466 O481 1.278 . S
C467 Pr457 2.880 . S
C467 C468 1.491 . S
C467 O482 1.254 . S
C467 O483 1.225 . S
C468 C467 1.491 . S
C468 C469 1.392 . S
C468 C473 1.356 . S
C469 C468 1.392 . S
C469 C470 1.368 . S
C469 H492 0.929 . S
C470 C469 1.368 . S
C470 C471 1.386 . S
C470 H493 0.929 . S
C471 C470 1.386 . S
C471 C472 1.373 . S
C472 C471 1.373 . S
C472 C473 1.409 . S
C472 H494 0.931 . S
C473 C468 1.356 . S
C473 C472 1.409 . S
C473 H495 0.930 . S
C474 O484 1.270 . S
C474 O485 1.248 . S
C475 O486 1.267 . S
C475 O487 1.278 . S
O476 Pr456 2.562 . S
O476 C458 1.254 . S
O477 Pr456 2.490 . S
O477 C458 1.225 . S
O478 Pr456 2.695 . S
O478 Pr457 2.436 . S
O478 C465 1.270 . S
O479 Pr456 2.512 . S
O479 C465 1.248 . S
O480 Pr457 2.438 . S
O480 C466 1.267 . S
O481 Pr456 2.437 . S
O481 C466 1.278 . S
O482 Pr457 2.562 . S
O482 C467 1.254 . S
O483 Pr457 2.490 . S
O483 C467 1.225 . S
O484 Pr456 2.436 . S
O484 Pr457 2.695 . S
O484 C474 1.270 . S
O485 Pr457 2.512 . S
O485 C474 1.248 . S
O486 Pr456 2.438 . S
O486 C475 1.267 . S
O487 Pr457 2.437 . S
O487 C475 1.278 . S
H488 C460 0.929 . S
H489 C461 0.929 . S
H490 C463 0.931 . S
H491 C464 0.930 . S
H492 C469 0.929 . S
H493 C470 0.929 . S
H494 C472 0.931 . S
H495 C473 0.930 . S
Pr496 C498 2.880 . S
Pr496 O516 2.562 . S
Pr496 O517 2.490 . S
Pr496 O518 2.695 . S
Pr496 O519 2.512 . S
Pr496 O521 2.437 . S
Pr496 O524 2.436 . S
Pr496 O526 2.438 . S
Pr497 C507 2.880 . S
Pr497 O518 2.436 . S
Pr497 O520 2.438 . S
Pr497 O522 2.562 . S
Pr497 O523 2.490 . S
Pr497 O524 2.695 . S
Pr497 O525 2.512 . S
Pr497 O527 2.437 . S
C498 Pr496 2.880 . S
C498 C499 1.491 . S
C498 O516 1.254 . S
C498 O517 1.225 . S
C499 C498 1.491 . S
C499 C500 1.392 . S
C499 C504 1.356 1_455 S
C500 C499 1.392 . S
C500 C501 1.368 . S
C500 H528 0.929 . S
C501 C500 1.368 . S
C501 C502 1.386 1_455 S
C501 H529 0.929 . S
C502 C501 1.386 1_655 S
C502 C503 1.373 . S
C503 C502 1.373 . S
C503 C504 1.409 . S
C503 H530 0.931 . S
C504 C499 1.356 1_655 S
C504 C503 1.409 . S
C504 H531 0.930 . S
C505 O518 1.270 . S
C505 O519 1.248 . S
C506 O520 1.267 . S
C506 O521 1.278 . S
C507 Pr497 2.880 . S
C507 C508 1.491 . S
C507 O522 1.254 . S
C507 O523 1.225 . S
C508 C507 1.491 . S
C508 C509 1.392 . S
C508 C513 1.356 . S
C509 C508 1.392 . S
C509 C510 1.368 . S
C509 H532 0.929 . S
C510 C509 1.368 . S
C510 C511 1.386 . S
C510 H533 0.929 . S
C511 C510 1.386 . S
C511 C512 1.373 . S
C512 C511 1.373 . S
C512 C513 1.409 . S
C512 H534 0.931 . S
C513 C508 1.356 . S
C513 C512 1.409 . S
C513 H535 0.930 . S
C514 O524 1.270 . S
C514 O525 1.248 . S
C515 O526 1.267 . S
C515 O527 1.278 . S
O516 Pr496 2.562 . S
O516 C498 1.254 . S
O517 Pr496 2.490 . S
O517 C498 1.225 . S
O518 Pr496 2.695 . S
O518 Pr497 2.436 . S
O518 C505 1.270 . S
O519 Pr496 2.512 . S
O519 C505 1.248 . S
O520 Pr497 2.438 . S
O520 C506 1.267 . S
O521 Pr496 2.437 . S
O521 C506 1.278 . S
O522 Pr497 2.562 . S
O522 C507 1.254 . S
O523 Pr497 2.490 . S
O523 C507 1.225 . S
O524 Pr496 2.436 . S
O524 Pr497 2.695 . S
O524 C514 1.270 . S
O525 Pr497 2.512 . S
O525 C514 1.248 . S
O526 Pr496 2.438 . S
O526 C515 1.267 . S
O527 Pr497 2.437 . S
O527 C515 1.278 . S
H528 C500 0.929 . S
H529 C501 0.929 . S
H530 C503 0.931 . S
H531 C504 0.930 . S
H532 C509 0.929 . S
H533 C510 0.929 . S
H534 C512 0.931 . S
H535 C513 0.930 . S
Pr536 C538 2.880 . S
Pr536 O556 2.562 . S
Pr536 O557 2.490 . S
Pr536 O558 2.695 . S
Pr536 O559 2.512 . S
Pr536 O561 2.437 . S
Pr536 O564 2.436 . S
Pr536 O566 2.438 . S
Pr537 C547 2.880 . S
Pr537 O558 2.436 . S
Pr537 O560 2.438 . S
Pr537 O562 2.562 . S
Pr537 O563 2.490 . S
Pr537 O564 2.695 . S
Pr537 O565 2.512 . S
Pr537 O567 2.437 . S
C538 Pr536 2.880 . S
C538 C539 1.491 . S
C538 O556 1.254 . S
C538 O557 1.225 . S
C539 C538 1.491 . S
C539 C540 1.392 . S
C539 C544 1.356 . S
C540 C539 1.392 . S
C540 C541 1.368 . S
C540 H568 0.929 . S
C541 C540 1.368 . S
C541 C542 1.386 . S
C541 H569 0.929 . S
C542 C541 1.386 . S
C542 C543 1.373 . S
C543 C542 1.373 . S
C543 C544 1.409 . S
C543 H570 0.931 . S
C544 C539 1.356 . S
C544 C543 1.409 . S
C544 H571 0.930 . S
C545 O558 1.270 . S
C545 O559 1.248 . S
C546 O560 1.267 . S
C546 O561 1.278 . S
C547 Pr537 2.880 . S
C547 C548 1.491 . S
C547 O562 1.254 . S
C547 O563 1.225 . S
C548 C547 1.491 . S
C548 C549 1.392 . S
C548 C553 1.356 . S
C549 C548 1.392 . S
C549 C550 1.368 . S
C549 H572 0.929 . S
C550 C549 1.368 . S
C550 C551 1.386 . S
C550 H573 0.929 . S
C551 C550 1.386 . S
C551 C552 1.373 . S
C552 C551 1.373 . S
C552 C553 1.409 . S
C552 H574 0.931 . S
C553 C548 1.356 . S
C553 C552 1.409 . S
C553 H575 0.930 . S
C554 O564 1.270 . S
C554 O565 1.248 . S
C555 O566 1.267 . S
C555 O567 1.278 . S
O556 Pr536 2.562 . S
O556 C538 1.254 . S
O557 Pr536 2.490 . S
O557 C538 1.225 . S
O558 Pr536 2.695 . S
O558 Pr537 2.436 . S
O558 C545 1.270 . S
O559 Pr536 2.512 . S
O559 C545 1.248 . S
O560 Pr537 2.438 . S
O560 C546 1.267 . S
O561 Pr536 2.437 . S
O561 C546 1.278 . S
O562 Pr537 2.562 . S
O562 C547 1.254 . S
O563 Pr537 2.490 . S
O563 C547 1.225 . S
O564 Pr536 2.436 . S
O564 Pr537 2.695 . S
O564 C554 1.270 . S
O565 Pr537 2.512 . S
O565 C554 1.248 . S
O566 Pr536 2.438 . S
O566 C555 1.267 . S
O567 Pr537 2.437 . S
O567 C555 1.278 . S
H568 C540 0.929 . S
H569 C541 0.929 . S
H570 C543 0.931 . S
H571 C544 0.930 . S
H572 C549 0.929 . S
H573 C550 0.929 . S
H574 C552 0.931 . S
H575 C553 0.930 . S
Pr576 C578 2.880 . S
Pr576 O596 2.562 . S
Pr576 O597 2.490 . S
Pr576 O598 2.695 . S
Pr576 O599 2.512 . S
Pr576 O601 2.437 . S
Pr576 O604 2.436 . S
Pr576 O606 2.438 . S
Pr577 C587 2.880 . S
Pr577 O598 2.436 1_556 S
Pr577 O600 2.438 1_556 S
Pr577 O602 2.562 . S
Pr577 O603 2.490 . S
Pr577 O604 2.695 1_556 S
Pr577 O605 2.512 1_556 S
Pr577 O607 2.437 1_556 S
C578 Pr576 2.880 . S
C578 C579 1.491 . S
C578 O596 1.254 . S
C578 O597 1.225 . S
C579 C578 1.491 . S
C579 C580 1.392 . S
C579 C584 1.356 . S
C580 C579 1.392 . S
C580 C581 1.368 . S
C580 H608 0.929 . S
C581 C580 1.368 . S
C581 C582 1.386 . S
C581 H609 0.929 . S
C582 C581 1.386 . S
C582 C583 1.373 . S
C583 C582 1.373 . S
C583 C584 1.409 . S
C583 H610 0.931 . S
C584 C579 1.356 . S
C584 C583 1.409 . S
C584 H611 0.930 . S
C585 O598 1.270 . S
C585 O599 1.248 . S
C586 O600 1.267 . S
C586 O601 1.278 . S
C587 Pr577 2.880 . S
C587 C588 1.491 . S
C587 O602 1.254 . S
C587 O603 1.225 . S
C588 C587 1.491 . S
C588 C589 1.392 . S
C588 C593 1.356 . S
C589 C588 1.392 . S
C589 C590 1.368 . S
C589 H612 0.929 . S
C590 C589 1.368 . S
C590 C591 1.386 . S
C590 H613 0.929 . S
C591 C590 1.386 . S
C591 C592 1.373 . S
C592 C591 1.373 . S
C592 C593 1.409 . S
C592 H614 0.931 . S
C593 C588 1.356 . S
C593 C592 1.409 . S
C593 H615 0.930 . S
C594 O604 1.270 . S
C594 O605 1.248 . S
C595 O606 1.267 . S
C595 O607 1.278 . S
O596 Pr576 2.562 . S
O596 C578 1.254 . S
O597 Pr576 2.490 . S
O597 C578 1.225 . S
O598 Pr576 2.695 . S
O598 Pr577 2.436 1_554 S
O598 C585 1.270 . S
O599 Pr576 2.512 . S
O599 C585 1.248 . S
O600 Pr577 2.438 1_554 S
O600 C586 1.267 . S
O601 Pr576 2.437 . S
O601 C586 1.278 . S
O602 Pr577 2.562 . S
O602 C587 1.254 . S
O603 Pr577 2.490 . S
O603 C587 1.225 . S
O604 Pr576 2.436 . S
O604 Pr577 2.695 1_554 S
O604 C594 1.270 . S
O605 Pr577 2.512 1_554 S
O605 C594 1.248 . S
O606 Pr576 2.438 . S
O606 C595 1.267 . S
O607 Pr577 2.437 1_554 S
O607 C595 1.278 . S
H608 C580 0.929 . S
H609 C581 0.929 . S
H610 C583 0.931 . S
H611 C584 0.930 . S
H612 C589 0.929 . S
H613 C590 0.929 . S
H614 C592 0.931 . S
H615 C593 0.930 . S
Pr616 C618 2.880 . S
Pr616 O636 2.562 . S
Pr616 O637 2.490 . S
Pr616 O638 2.695 . S
Pr616 O639 2.512 . S
Pr616 O641 2.437 . S
Pr616 O644 2.436 . S
Pr616 O646 2.438 . S
Pr617 C627 2.880 . S
Pr617 O638 2.436 . S
Pr617 O640 2.438 . S
Pr617 O642 2.562 . S
Pr617 O643 2.490 . S
Pr617 O644 2.695 . S
Pr617 O645 2.512 . S
Pr617 O647 2.437 . S
C618 Pr616 2.880 . S
C618 C619 1.491 . S
C618 O636 1.254 . S
C618 O637 1.225 . S
C619 C618 1.491 . S
C619 C620 1.392 . S
C619 C624 1.356 . S
C620 C619 1.392 . S
C620 C621 1.368 . S
C620 H648 0.929 . S
C621 C620 1.368 . S
C621 C622 1.386 . S
C621 H649 0.929 . S
C622 C621 1.386 . S
C622 C623 1.373 . S
C623 C622 1.373 . S
C623 C624 1.409 . S
C623 H650 0.931 . S
C624 C619 1.356 . S
C624 C623 1.409 . S
C624 H651 0.930 . S
C625 O638 1.270 . S
C625 O639 1.248 . S
C626 O640 1.267 . S
C626 O641 1.278 . S
C627 Pr617 2.880 . S
C627 C628 1.491 . S
C627 O642 1.254 . S
C627 O643 1.225 . S
C628 C627 1.491 . S
C628 C629 1.392 . S
C628 C633 1.356 . S
C629 C628 1.392 . S
C629 C630 1.368 . S
C629 H652 0.929 . S
C630 C629 1.368 . S
C630 C631 1.386 . S
C630 H653 0.929 . S
C631 C630 1.386 . S
C631 C632 1.373 . S
C632 C631 1.373 . S
C632 C633 1.409 . S
C632 H654 0.931 . S
C633 C628 1.356 . S
C633 C632 1.409 . S
C633 H655 0.930 . S
C634 O644 1.270 . S
C634 O645 1.248 . S
C635 O646 1.267 . S
C635 O647 1.278 . S
O636 Pr616 2.562 . S
O636 C618 1.254 . S
O637 Pr616 2.490 . S
O637 C618 1.225 . S
O638 Pr616 2.695 . S
O638 Pr617 2.436 . S
O638 C625 1.270 . S
O639 Pr616 2.512 . S
O639 C625 1.248 . S
O640 Pr617 2.438 . S
O640 C626 1.267 . S
O641 Pr616 2.437 . S
O641 C626 1.278 . S
O642 Pr617 2.562 . S
O642 C627 1.254 . S
O643 Pr617 2.490 . S
O643 C627 1.225 . S
O644 Pr616 2.436 . S
O644 Pr617 2.695 . S
O644 C634 1.270 . S
O645 Pr617 2.512 . S
O645 C634 1.248 . S
O646 Pr616 2.438 . S
O646 C635 1.267 . S
O647 Pr617 2.437 . S
O647 C635 1.278 . S
H648 C620 0.929 . S
H649 C621 0.929 . S
H650 C623 0.931 . S
H651 C624 0.930 . S
H652 C629 0.929 . S
H653 C630 0.929 . S
H654 C632 0.931 . S
H655 C633 0.930 . S
Pr656 C658 2.880 . S
Pr656 O676 2.562 . S
Pr656 O677 2.490 . S
Pr656 O678 2.695 1_556 S
Pr656 O679 2.512 . S
Pr656 O681 2.437 . S
Pr656 O684 2.436 1_556 S
Pr656 O686 2.438 1_556 S
Pr657 C667 2.880 . S
Pr657 O678 2.436 . S
Pr657 O680 2.438 . S
Pr657 O682 2.562 . S
Pr657 O683 2.490 . S
Pr657 O684 2.695 . S
Pr657 O685 2.512 . S
Pr657 O687 2.437 . S
C658 Pr656 2.880 . S
C658 C659 1.491 . S
C658 O676 1.254 . S
C658 O677 1.225 . S
C659 C658 1.491 . S
C659 C660 1.392 . S
C659 C664 1.356 . S
C660 C659 1.392 . S
C660 C661 1.368 . S
C660 H688 0.929 . S
C661 C660 1.368 . S
C661 C662 1.386 . S
C661 H689 0.929 . S
C662 C661 1.386 . S
C662 C663 1.373 . S
C663 C662 1.373 . S
C663 C664 1.409 . S
C663 H690 0.931 . S
C664 C659 1.356 . S
C664 C663 1.409 . S
C664 H691 0.930 . S
C665 O678 1.270 . S
C665 O679 1.248 1_554 S
C666 O680 1.267 . S
C666 O681 1.278 1_554 S
C667 Pr657 2.880 . S
C667 C668 1.491 . S
C667 O682 1.254 . S
C667 O683 1.225 . S
C668 C667 1.491 . S
C668 C669 1.392 . S
C668 C673 1.356 . S
C669 C668 1.392 . S
C669 C670 1.368 . S
C669 H692 0.929 . S
C670 C669 1.368 . S
C670 C671 1.386 . S
C670 H693 0.929 . S
C671 C670 1.386 . S
C671 C672 1.373 . S
C672 C671 1.373 . S
C672 C673 1.409 . S
C672 H694 0.931 . S
C673 C668 1.356 . S
C673 C672 1.409 . S
C673 H695 0.930 . S
C674 O684 1.270 . S
C674 O685 1.248 . S
C675 O686 1.267 . S
C675 O687 1.278 . S
O676 Pr656 2.562 . S
O676 C658 1.254 . S
O677 Pr656 2.490 . S
O677 C658 1.225 . S
O678 Pr656 2.695 1_554 S
O678 Pr657 2.436 . S
O678 C665 1.270 . S
O679 Pr656 2.512 . S
O679 C665 1.248 1_556 S
O680 Pr657 2.438 . S
O680 C666 1.267 . S
O681 Pr656 2.437 . S
O681 C666 1.278 1_556 S
O682 Pr657 2.562 . S
O682 C667 1.254 . S
O683 Pr657 2.490 . S
O683 C667 1.225 . S
O684 Pr656 2.436 1_554 S
O684 Pr657 2.695 . S
O684 C674 1.270 . S
O685 Pr657 2.512 . S
O685 C674 1.248 . S
O686 Pr656 2.438 1_554 S
O686 C675 1.267 . S
O687 Pr657 2.437 . S
O687 C675 1.278 . S
H688 C660 0.929 . S
H689 C661 0.929 . S
H690 C663 0.931 . S
H691 C664 0.930 . S
H692 C669 0.929 . S
H693 C670 0.929 . S
H694 C672 0.931 . S
H695 C673 0.930 . S
Pr696 C698 2.880 . S
Pr696 O716 2.562 . S
Pr696 O717 2.490 . S
Pr696 O718 2.695 . S
Pr696 O719 2.512 . S
Pr696 O721 2.437 . S
Pr696 O724 2.436 . S
Pr696 O726 2.438 . S
Pr697 C707 2.880 . S
Pr697 O718 2.436 . S
Pr697 O720 2.438 . S
Pr697 O722 2.562 . S
Pr697 O723 2.490 . S
Pr697 O724 2.695 . S
Pr697 O725 2.512 . S
Pr697 O727 2.437 . S
C698 Pr696 2.880 . S
C698 C699 1.491 . S
C698 O716 1.254 . S
C698 O717 1.225 . S
C699 C698 1.491 . S
C699 C700 1.392 . S
C699 C704 1.356 . S
C700 C699 1.392 . S
C700 C701 1.368 . S
C700 H728 0.929 . S
C701 C700 1.368 . S
C701 C702 1.386 . S
C701 H729 0.929 . S
C702 C701 1.386 . S
C702 C703 1.373 . S
C703 C702 1.373 . S
C703 C704 1.409 . S
C703 H730 0.931 . S
C704 C699 1.356 . S
C704 C703 1.409 . S
C704 H731 0.930 . S
C705 O718 1.270 . S
C705 O719 1.248 . S
C706 O720 1.267 . S
C706 O721 1.278 . S
C707 Pr697 2.880 . S
C707 C708 1.491 . S
C707 O722 1.254 . S
C707 O723 1.225 . S
C708 C707 1.491 . S
C708 C709 1.392 . S
C708 C713 1.356 . S
C709 C708 1.392 . S
C709 C710 1.368 . S
C709 H732 0.929 . S
C710 C709 1.368 . S
C710 C711 1.386 . S
C710 H733 0.929 . S
C711 C710 1.386 . S
C711 C712 1.373 . S
C712 C711 1.373 . S
C712 C713 1.409 . S
C712 H734 0.931 . S
C713 C708 1.356 . S
C713 C712 1.409 . S
C713 H735 0.930 . S
C714 O724 1.270 . S
C714 O725 1.248 . S
C715 O726 1.267 . S
C715 O727 1.278 . S
O716 Pr696 2.562 . S
O716 C698 1.254 . S
O717 Pr696 2.490 . S
O717 C698 1.225 . S
O718 Pr696 2.695 . S
O718 Pr697 2.436 . S
O718 C705 1.270 . S
O719 Pr696 2.512 . S
O719 C705 1.248 . S
O720 Pr697 2.438 . S
O720 C706 1.267 . S
O721 Pr696 2.437 . S
O721 C706 1.278 . S
O722 Pr697 2.562 . S
O722 C707 1.254 . S
O723 Pr697 2.490 . S
O723 C707 1.225 . S
O724 Pr696 2.436 . S
O724 Pr697 2.695 . S
O724 C714 1.270 . S
O725 Pr697 2.512 . S
O725 C714 1.248 . S
O726 Pr696 2.438 . S
O726 C715 1.267 . S
O727 Pr697 2.437 . S
O727 C715 1.278 . S
H728 C700 0.929 . S
H729 C701 0.929 . S
H730 C703 0.931 . S
H731 C704 0.930 . S
H732 C709 0.929 . S
H733 C710 0.929 . S
H734 C712 0.931 . S
H735 C713 0.930 . S
Pr736 C738 2.880 . S
Pr736 O756 2.562 . S
Pr736 O757 2.490 . S
Pr736 O758 2.695 . S
Pr736 O759 2.512 . S
Pr736 O761 2.437 . S
Pr736 O764 2.436 . S
Pr736 O766 2.438 . S
Pr737 C747 2.880 . S
Pr737 O758 2.436 . S
Pr737 O760 2.438 . S
Pr737 O762 2.562 . S
Pr737 O763 2.490 . S
Pr737 O764 2.695 . S
Pr737 O765 2.512 . S
Pr737 O767 2.437 . S
C738 Pr736 2.880 . S
C738 C739 1.491 . S
C738 O756 1.254 . S
C738 O757 1.225 . S
C739 C738 1.491 . S
C739 C740 1.392 . S
C739 C744 1.356 . S
C740 C739 1.392 . S
C740 C741 1.368 . S
C740 H768 0.929 . S
C741 C740 1.368 . S
C741 C742 1.386 . S
C741 H769 0.929 . S
C742 C741 1.386 . S
C742 C743 1.373 . S
C743 C742 1.373 . S
C743 C744 1.409 . S
C743 H770 0.931 1_455 S
C744 C739 1.356 . S
C744 C743 1.409 . S
C744 H771 0.930 . S
C745 O758 1.270 . S
C745 O759 1.248 . S
C746 O760 1.267 . S
C746 O761 1.278 . S
C747 Pr737 2.880 . S
C747 C748 1.491 . S
C747 O762 1.254 . S
C747 O763 1.225 . S
C748 C747 1.491 . S
C748 C749 1.392 . S
C748 C753 1.356 . S
C749 C748 1.392 . S
C749 C750 1.368 . S
C749 H772 0.929 . S
C750 C749 1.368 . S
C750 C751 1.386 . S
C750 H773 0.929 . S
C751 C750 1.386 . S
C751 C752 1.373 . S
C752 C751 1.373 . S
C752 C753 1.409 . S
C752 H774 0.931 . S
C753 C748 1.356 . S
C753 C752 1.409 . S
C753 H775 0.930 . S
C754 O764 1.270 . S
C754 O765 1.248 . S
C755 O766 1.267 . S
C755 O767 1.278 . S
O756 Pr736 2.562 . S
O756 C738 1.254 . S
O757 Pr736 2.490 . S
O757 C738 1.225 . S
O758 Pr736 2.695 . S
O758 Pr737 2.436 . S
O758 C745 1.270 . S
O759 Pr736 2.512 . S
O759 C745 1.248 . S
O760 Pr737 2.438 . S
O760 C746 1.267 . S
O761 Pr736 2.437 . S
O761 C746 1.278 . S
O762 Pr737 2.562 . S
O762 C747 1.254 . S
O763 Pr737 2.490 . S
O763 C747 1.225 . S
O764 Pr736 2.436 . S
O764 Pr737 2.695 . S
O764 C754 1.270 . S
O765 Pr737 2.512 . S
O765 C754 1.248 . S
O766 Pr736 2.438 . S
O766 C755 1.267 . S
O767 Pr737 2.437 . S
O767 C755 1.278 . S
H768 C740 0.929 . S
H769 C741 0.929 . S
H770 C743 0.931 1_655 S
H771 C744 0.930 . S
H772 C749 0.929 . S
H773 C750 0.929 . S
H774 C752 0.931 . S
H775 C753 0.930 . S
Pr776 C778 2.880 . S
Pr776 O796 2.562 . S
Pr776 O797 2.490 . S
Pr776 O798 2.695 . S
Pr776 O799 2.512 . S
Pr776 O801 2.437 . S
Pr776 O804 2.436 . S
Pr776 O806 2.438 . S
Pr777 C787 2.880 . S
Pr777 O798 2.436 . S
Pr777 O800 2.438 . S
Pr777 O802 2.562 . S
Pr777 O803 2.490 . S
Pr777 O804 2.695 . S
Pr777 O805 2.512 . S
Pr777 O807 2.437 . S
C778 Pr776 2.880 . S
C778 C779 1.491 . S
C778 O796 1.254 . S
C778 O797 1.225 . S
C779 C778 1.491 . S
C779 C780 1.392 . S
C779 C784 1.356 . S
C780 C779 1.392 . S
C780 C781 1.368 . S
C780 H808 0.929 . S
C781 C780 1.368 . S
C781 C782 1.386 . S
C781 H809 0.929 . S
C782 C781 1.386 . S
C782 C783 1.373 . S
C783 C782 1.373 . S
C783 C784 1.409 . S
C783 H810 0.931 . S
C784 C779 1.356 . S
C784 C783 1.409 . S
C784 H811 0.930 . S
C785 O798 1.270 . S
C785 O799 1.248 . S
C786 O800 1.267 . S
C786 O801 1.278 . S
C787 Pr777 2.880 . S
C787 C788 1.491 . S
C787 O802 1.254 . S
C787 O803 1.225 . S
C788 C787 1.491 . S
C788 C789 1.392 . S
C788 C793 1.356 . S
C789 C788 1.392 . S
C789 C790 1.368 . S
C789 H812 0.929 . S
C790 C789 1.368 . S
C790 C791 1.386 . S
C790 H813 0.929 . S
C791 C790 1.386 . S
C791 C792 1.373 . S
C792 C791 1.373 . S
C792 C793 1.409 . S
C792 H814 0.931 . S
C793 C788 1.356 . S
C793 C792 1.409 . S
C793 H815 0.930 . S
C794 O804 1.270 . S
C794 O805 1.248 . S
C795 O806 1.267 . S
C795 O807 1.278 . S
O796 Pr776 2.562 . S
O796 C778 1.254 . S
O797 Pr776 2.490 . S
O797 C778 1.225 . S
O798 Pr776 2.695 . S
O798 Pr777 2.436 . S
O798 C785 1.270 . S
O799 Pr776 2.512 . S
O799 C785 1.248 . S
O800 Pr777 2.438 . S
O800 C786 1.267 . S
O801 Pr776 2.437 . S
O801 C786 1.278 . S
O802 Pr777 2.562 . S
O802 C787 1.254 . S
O803 Pr777 2.490 . S
O803 C787 1.225 . S
O804 Pr776 2.436 . S
O804 Pr777 2.695 . S
O804 C794 1.270 . S
O805 Pr777 2.512 . S
O805 C794 1.248 . S
O806 Pr776 2.438 . S
O806 C795 1.267 . S
O807 Pr777 2.437 . S
O807 C795 1.278 . S
H808 C780 0.929 . S
H809 C781 0.929 . S
H810 C783 0.931 . S
H811 C784 0.930 . S
H812 C789 0.929 . S
H813 C790 0.929 . S
H814 C792 0.931 . S
H815 C793 0.930 . S
Pr816 C818 2.880 . S
Pr816 O836 2.562 . S
Pr816 O837 2.490 . S
Pr816 O838 2.695 . S
Pr816 O839 2.512 . S
Pr816 O841 2.437 . S
Pr816 O844 2.436 . S
Pr816 O846 2.438 . S
Pr817 C827 2.880 . S
Pr817 O838 2.436 . S
Pr817 O840 2.438 . S
Pr817 O842 2.562 . S
Pr817 O843 2.490 . S
Pr817 O844 2.695 . S
Pr817 O845 2.512 . S
Pr817 O847 2.437 . S
C818 Pr816 2.880 . S
C818 C819 1.491 . S
C818 O836 1.254 . S
C818 O837 1.225 . S
C819 C818 1.491 . S
C819 C820 1.392 . S
C819 C824 1.356 . S
C820 C819 1.392 . S
C820 C821 1.368 . S
C820 H848 0.929 . S
C821 C820 1.368 . S
C821 C822 1.386 . S
C821 H849 0.929 . S
C822 C821 1.386 . S
C822 C823 1.373 . S
C823 C822 1.373 . S
C823 C824 1.409 . S
C823 H850 0.931 . S
C824 C819 1.356 . S
C824 C823 1.409 . S
C824 H851 0.930 . S
C825 O838 1.270 . S
C825 O839 1.248 . S
C826 O840 1.267 . S
C826 O841 1.278 . S
C827 Pr817 2.880 . S
C827 C828 1.491 . S
C827 O842 1.254 . S
C827 O843 1.225 . S
C828 C827 1.491 . S
C828 C829 1.392 . S
C828 C833 1.356 . S
C829 C828 1.392 . S
C829 C830 1.368 . S
C829 H852 0.929 . S
C830 C829 1.368 . S
C830 C831 1.386 . S
C830 H853 0.929 . S
C831 C830 1.386 . S
C831 C832 1.373 . S
C832 C831 1.373 . S
C832 C833 1.409 . S
C832 H854 0.931 . S
C833 C828 1.356 . S
C833 C832 1.409 . S
C833 H855 0.930 . S
C834 O844 1.270 . S
C834 O845 1.248 . S
C835 O846 1.267 . S
C835 O847 1.278 . S
O836 Pr816 2.562 . S
O836 C818 1.254 . S
O837 Pr816 2.490 . S
O837 C818 1.225 . S
O838 Pr816 2.695 . S
O838 Pr817 2.436 . S
O838 C825 1.270 . S
O839 Pr816 2.512 . S
O839 C825 1.248 . S
O840 Pr817 2.438 . S
O840 C826 1.267 . S
O841 Pr816 2.437 . S
O841 C826 1.278 . S
O842 Pr817 2.562 . S
O842 C827 1.254 . S
O843 Pr817 2.490 . S
O843 C827 1.225 . S
O844 Pr816 2.436 . S
O844 Pr817 2.695 . S
O844 C834 1.270 . S
O845 Pr817 2.512 . S
O845 C834 1.248 . S
O846 Pr816 2.438 . S
O846 C835 1.267 . S
O847 Pr817 2.437 . S
O847 C835 1.278 . S
H848 C820 0.929 . S
H849 C821 0.929 . S
H850 C823 0.931 . S
H851 C824 0.930 . S
H852 C829 0.929 . S
H853 C830 0.929 . S
H854 C832 0.931 . S
H855 C833 0.930 . S
Pr856 C858 2.880 . S
Pr856 O876 2.562 . S
Pr856 O877 2.490 . S
Pr856 O878 2.695 . S
Pr856 O879 2.512 . S
Pr856 O881 2.437 . S
Pr856 O884 2.436 . S
Pr856 O886 2.438 . S
Pr857 C867 2.880 . S
Pr857 O878 2.436 . S
Pr857 O880 2.438 . S
Pr857 O882 2.562 . S
Pr857 O883 2.490 . S
Pr857 O884 2.695 . S
Pr857 O885 2.512 . S
Pr857 O887 2.437 . S
C858 Pr856 2.880 . S
C858 C859 1.491 . S
C858 O876 1.254 . S
C858 O877 1.225 . S
C859 C858 1.491 . S
C859 C860 1.392 . S
C859 C864 1.356 . S
C860 C859 1.392 . S
C860 C861 1.368 . S
C860 H888 0.929 . S
C861 C860 1.368 . S
C861 C862 1.386 . S
C861 H889 0.929 . S
C862 C861 1.386 . S
C862 C863 1.373 . S
C863 C862 1.373 . S
C863 C864 1.409 . S
C863 H890 0.931 . S
C864 C859 1.356 . S
C864 C863 1.409 . S
C864 H891 0.930 . S
C865 O878 1.270 . S
C865 O879 1.248 . S
C866 O880 1.267 . S
C866 O881 1.278 . S
C867 Pr857 2.880 . S
C867 C868 1.491 . S
C867 O882 1.254 . S
C867 O883 1.225 . S
C868 C867 1.491 . S
C868 C869 1.392 . S
C868 C873 1.356 . S
C869 C868 1.392 . S
C869 C870 1.368 . S
C869 H892 0.929 . S
C870 C869 1.368 . S
C870 C871 1.386 . S
C870 H893 0.929 . S
C871 C870 1.386 . S
C871 C872 1.373 . S
C872 C871 1.373 . S
C872 C873 1.409 . S
C872 H894 0.931 . S
C873 C868 1.356 . S
C873 C872 1.409 . S
C873 H895 0.930 . S
C874 O884 1.270 . S
C874 O885 1.248 . S
C875 O886 1.267 . S
C875 O887 1.278 . S
O876 Pr856 2.562 . S
O876 C858 1.254 . S
O877 Pr856 2.490 . S
O877 C858 1.225 . S
O878 Pr856 2.695 . S
O878 Pr857 2.436 . S
O878 C865 1.270 . S
O879 Pr856 2.512 . S
O879 C865 1.248 . S
O880 Pr857 2.438 . S
O880 C866 1.267 . S
O881 Pr856 2.437 . S
O881 C866 1.278 . S
O882 Pr857 2.562 . S
O882 C867 1.254 . S
O883 Pr857 2.490 . S
O883 C867 1.225 . S
O884 Pr856 2.436 . S
O884 Pr857 2.695 . S
O884 C874 1.270 . S
O885 Pr857 2.512 . S
O885 C874 1.248 . S
O886 Pr856 2.438 . S
O886 C875 1.267 . S
O887 Pr857 2.437 . S
O887 C875 1.278 . S
H888 C860 0.929 . S
H889 C861 0.929 . S
H890 C863 0.931 . S
H891 C864 0.930 . S
H892 C869 0.929 . S
H893 C870 0.929 . S
H894 C872 0.931 . S
H895 C873 0.930 . S
Pr896 C898 2.880 . S
Pr896 O916 2.562 . S
Pr896 O917 2.490 . S
Pr896 O918 2.695 . S
Pr896 O919 2.512 . S
Pr896 O921 2.437 . S
Pr896 O924 2.436 . S
Pr896 O926 2.438 . S
Pr897 C907 2.880 . S
Pr897 O918 2.436 . S
Pr897 O920 2.438 . S
Pr897 O922 2.562 . S
Pr897 O923 2.490 . S
Pr897 O924 2.695 . S
Pr897 O925 2.512 . S
Pr897 O927 2.437 . S
C898 Pr896 2.880 . S
C898 C899 1.491 . S
C898 O916 1.254 . S
C898 O917 1.225 . S
C899 C898 1.491 . S
C899 C900 1.392 . S
C899 C904 1.356 . S
C900 C899 1.392 . S
C900 C901 1.368 . S
C900 H928 0.929 . S
C901 C900 1.368 . S
C901 C902 1.386 . S
C901 H929 0.929 . S
C902 C901 1.386 . S
C902 C903 1.373 . S
C903 C902 1.373 . S
C903 C904 1.409 . S
C903 H930 0.931 . S
C904 C899 1.356 . S
C904 C903 1.409 . S
C904 H931 0.930 . S
C905 O918 1.270 . S
C905 O919 1.248 . S
C906 O920 1.267 . S
C906 O921 1.278 . S
C907 Pr897 2.880 . S
C907 C908 1.491 . S
C907 O922 1.254 . S
C907 O923 1.225 . S
C908 C907 1.491 . S
C908 C909 1.392 . S
C908 C913 1.356 . S
C909 C908 1.392 . S
C909 C910 1.368 . S
C909 H932 0.929 . S
C910 C909 1.368 . S
C910 C911 1.386 . S
C910 H933 0.929 . S
C911 C910 1.386 . S
C911 C912 1.373 . S
C912 C911 1.373 . S
C912 C913 1.409 . S
C912 H934 0.931 . S
C913 C908 1.356 . S
C913 C912 1.409 . S
C913 H935 0.930 . S
C914 O924 1.270 . S
C914 O925 1.248 . S
C915 O926 1.267 . S
C915 O927 1.278 . S
O916 Pr896 2.562 . S
O916 C898 1.254 . S
O917 Pr896 2.490 . S
O917 C898 1.225 . S
O918 Pr896 2.695 . S
O918 Pr897 2.436 . S
O918 C905 1.270 . S
O919 Pr896 2.512 . S
O919 C905 1.248 . S
O920 Pr897 2.438 . S
O920 C906 1.267 . S
O921 Pr896 2.437 . S
O921 C906 1.278 . S
O922 Pr897 2.562 . S
O922 C907 1.254 . S
O923 Pr897 2.490 . S
O923 C907 1.225 . S
O924 Pr896 2.436 . S
O924 Pr897 2.695 . S
O924 C914 1.270 . S
O925 Pr897 2.512 . S
O925 C914 1.248 . S
O926 Pr896 2.438 . S
O926 C915 1.267 . S
O927 Pr897 2.437 . S
O927 C915 1.278 . S
H928 C900 0.929 . S
H929 C901 0.929 . S
H930 C903 0.931 . S
H931 C904 0.930 . S
H932 C909 0.929 . S
H933 C910 0.929 . S
H934 C912 0.931 . S
H935 C913 0.930 . S
Pr936 C938 2.880 . S
Pr936 O956 2.562 . S
Pr936 O957 2.490 1_554 S
Pr936 O958 2.695 . S
Pr936 O959 2.512 1_554 S
Pr936 O961 2.437 1_554 S
Pr936 O964 2.436 . S
Pr936 O966 2.438 . S
Pr937 C947 2.880 1_455 S
Pr937 O958 2.436 . S
Pr937 O960 2.438 . S
Pr937 O962 2.562 1_455 S
Pr937 O963 2.490 1_455 S
Pr937 O964 2.695 . S
Pr937 O965 2.512 . S
Pr937 O967 2.437 . S
C938 Pr936 2.880 . S
C938 C939 1.491 . S
C938 O956 1.254 . S
C938 O957 1.225 1_554 S
C939 C938 1.491 . S
C939 C940 1.392 1_554 S
C939 C944 1.356 . S
C940 C939 1.392 1_556 S
C940 C941 1.368 . S
C940 H968 0.929 . S
C941 C940 1.368 . S
C941 C942 1.386 . S
C941 H969 0.929 . S
C942 C941 1.386 . S
C942 C943 1.373 1_556 S
C943 C942 1.373 1_554 S
C943 C944 1.409 . S
C943 H970 0.931 . S
C944 C939 1.356 . S
C944 C943 1.409 . S
C944 H971 0.930 . S
C945 O958 1.270 1_556 S
C945 O959 1.248 . S
C946 O960 1.267 . S
C946 O961 1.278 1_554 S
C947 Pr937 2.880 1_655 S
C947 C948 1.491 . S
C947 O962 1.254 . S
C947 O963 1.225 . S
C948 C947 1.491 . S
C948 C949 1.392 . S
C948 C953 1.356 . S
C949 C948 1.392 . S
C949 C950 1.368 . S
C949 H972 0.929 . S
C950 C949 1.368 . S
C950 C951 1.386 . S
C950 H973 0.929 . S
C951 C950 1.386 . S
C951 C952 1.373 . S
C952 C951 1.373 . S
C952 C953 1.409 . S
C952 H974 0.931 . S
C953 C948 1.356 . S
C953 C952 1.409 . S
C953 H975 0.930 . S
C954 O964 1.270 . S
C954 O965 1.248 . S
C955 O966 1.267 . S
C955 O967 1.278 . S
O956 Pr936 2.562 . S
O956 C938 1.254 . S
O957 Pr936 2.490 1_556 S
O957 C938 1.225 1_556 S
O958 Pr936 2.695 . S
O958 Pr937 2.436 . S
O958 C945 1.270 1_554 S
O959 Pr936 2.512 1_556 S
O959 C945 1.248 . S
O960 Pr937 2.438 . S
O960 C946 1.267 . S
O961 Pr936 2.437 1_556 S
O961 C946 1.278 1_556 S
O962 Pr937 2.562 1_655 S
O962 C947 1.254 . S
O963 Pr937 2.490 1_655 S
O963 C947 1.225 . S
O964 Pr936 2.436 . S
O964 Pr937 2.695 . S
O964 C954 1.270 . S
O965 Pr937 2.512 . S
O965 C954 1.248 . S
O966 Pr936 2.438 . S
O966 C955 1.267 . S
O967 Pr937 2.437 . S
O967 C955 1.278 . S
H968 C940 0.929 . S
H969 C941 0.929 . S
H970 C943 0.931 . S
H971 C944 0.930 . S
H972 C949 0.929 . S
H973 C950 0.929 . S
H974 C952 0.931 . S
H975 C953 0.930 . S
H976 C984 0.950 1_655 S
H977 C989 0.950 . S
H978 C986 0.950 1_655 S
H979 C988 0.950 . S
H980 C990 0.950 . S
H981 C992 0.950 . S
H982 C994 0.908 1_655 S
H983 C995 0.950 . S
C984 H976 0.950 1_455 S
C984 C985 1.386 . S
C984 C986 1.391 . S
C985 C984 1.386 . S
C985 C989 1.393 . S
C986 H978 0.950 1_455 S
C986 C984 1.391 . S
C986 C987 1.400 . S
C987 C986 1.400 . S
C987 C988 1.398 . S
C987 C993 1.491 . S
C988 H979 0.950 . S
C988 C987 1.398 . S
C988 C989 1.391 . S
C989 H977 0.950 . S
C989 C985 1.393 . S
C989 C988 1.391 . S
C990 H980 0.950 . S
C990 C991 1.386 . S
C990 C992 1.391 . S
C991 C990 1.386 . S
C991 C995 1.393 1_554 S
C992 H981 0.950 . S
C992 C990 1.391 . S
C992 C993 1.400 1_554 S
C993 C987 1.491 . S
C993 C992 1.400 1_556 S
C993 C994 1.398 . S
C994 H982 0.908 1_455 S
C994 C993 1.398 . S
C994 C995 1.391 . S
C995 H983 0.950 . S
C995 C991 1.393 1_556 S
C995 C994 1.391 . S
H996 C1004 0.950 . S
H997 C1009 0.950 . S
H998 C1006 0.950 . S
H999 C1008 0.950 . S
H1000 C1010 0.950 . S
H1001 C1012 0.950 . S
H1002 C1014 0.950 . S
H1003 C1015 0.950 . S
C1004 H996 0.950 . S
C1004 C1005 1.386 . S
C1004 C1006 1.391 . S
C1005 C1004 1.386 . S
C1005 C1009 1.393 . S
C1006 H998 0.950 . S
C1006 C1004 1.391 . S
C1006 C1007 1.400 . S
C1007 C1006 1.400 . S
C1007 C1008 1.398 . S
C1007 C1013 1.491 . S
C1008 H999 0.950 . S
C1008 C1007 1.398 . S
C1008 C1009 1.391 . S
C1009 H997 0.950 . S
C1009 C1005 1.393 . S
C1009 C1008 1.391 . S
C1010 H1000 0.950 . S
C1010 C1011 1.386 . S
C1010 C1012 1.391 . S
C1011 C1010 1.386 . S
C1011 C1015 1.393 . S
C1012 H1001 0.950 . S
C1012 C1010 1.391 . S
C1012 C1013 1.400 . S
C1013 C1007 1.491 . S
C1013 C1012 1.400 . S
C1013 C1014 1.398 . S
C1014 H1002 0.950 . S
C1014 C1013 1.398 . S
C1014 C1015 1.391 . S
C1015 H1003 0.950 . S
C1015 C1011 1.393 . S
C1015 C1014 1.391 . S
H1016 C1024 0.950 . S
H1017 C1029 0.950 . S
H1018 C1026 0.950 . S
H1019 C1028 0.950 . S
H1020 C1030 0.931 1_545 S
H1021 C1032 0.950 . S
H1022 C1034 0.950 . S
H1023 C1035 0.950 . S
C1024 H1016 0.950 . S
C1024 C1025 1.386 . S
C1024 C1026 1.391 . S
C1025 C1024 1.386 . S
C1025 C1029 1.393 . S
C1026 H1018 0.950 . S
C1026 C1024 1.391 . S
C1026 C1027 1.400 . S
C1027 C1026 1.400 . S
C1027 C1028 1.398 . S
C1027 C1033 1.491 . S
C1028 H1019 0.950 . S
C1028 C1027 1.398 . S
C1028 C1029 1.391 . S
C1029 H1017 0.950 . S
C1029 C1025 1.393 . S
C1029 C1028 1.391 . S
C1030 H1020 0.931 1_565 S
C1030 C1031 1.361 1_565 S
C1030 C1032 1.436 . S
C1031 C1030 1.361 1_545 S
C1031 C1035 1.393 1_545 S
C1032 H1021 0.950 . S
C1032 C1030 1.436 . S
C1032 C1033 1.400 . S
C1033 C1027 1.491 . S
C1033 C1032 1.400 . S
C1033 C1034 1.398 . S
C1034 H1022 0.950 . S
C1034 C1033 1.398 . S
C1034 C1035 1.391 . S
C1035 H1023 0.950 . S
C1035 C1031 1.393 1_565 S
C1035 C1034 1.391 . S
H1036 C1044 0.950 . S
H1037 C1049 0.950 . S
H1038 C1046 0.950 . S
H1039 C1048 0.950 . S
H1040 C1050 0.950 . S
H1041 C1052 0.950 . S
H1042 C1054 0.950 . S
H1043 C1055 0.950 . S
C1044 H1036 0.950 . S
C1044 C1045 1.386 . S
C1044 C1046 1.391 . S
C1045 C1044 1.386 . S
C1045 C1049 1.393 . S
C1046 H1038 0.950 . S
C1046 C1044 1.391 . S
C1046 C1047 1.400 . S
C1047 C1046 1.400 . S
C1047 C1048 1.398 . S
C1047 C1053 1.491 . S
C1048 H1039 0.950 . S
C1048 C1047 1.398 . S
C1048 C1049 1.391 . S
C1049 H1037 0.950 . S
C1049 C1045 1.393 . S
C1049 C1048 1.391 . S
C1050 H1040 0.950 . S
C1050 C1051 1.386 . S
C1050 C1052 1.391 . S
C1051 C1050 1.386 . S
C1051 C1055 1.393 . S
C1052 H1041 0.950 . S
C1052 C1050 1.391 . S
C1052 C1053 1.400 . S
C1053 C1047 1.491 . S
C1053 C1052 1.400 . S
C1053 C1054 1.398 . S
C1054 H1042 0.950 . S
C1054 C1053 1.398 . S
C1054 C1055 1.391 . S
C1055 H1043 0.950 . S
C1055 C1051 1.393 . S
C1055 C1054 1.391 . S
H1056 C1064 0.950 . S
H1057 C1069 0.950 . S
H1058 C1066 0.950 . S
H1059 C1068 0.950 . S
H1060 C1070 0.950 . S
H1061 C1072 0.950 1_545 S
H1062 C1074 0.950 . S
H1063 C1075 0.950 . S
C1064 H1056 0.950 . S
C1064 C1065 1.386 . S
C1064 C1066 1.391 . S
C1065 C1064 1.386 . S
C1065 C1069 1.393 . S
C1066 H1058 0.950 . S
C1066 C1064 1.391 . S
C1066 C1067 1.400 . S
C1067 C1066 1.400 . S
C1067 C1068 1.398 . S
C1067 C1073 1.491 . S
C1068 H1059 0.950 . S
C1068 C1067 1.398 . S
C1068 C1069 1.391 . S
C1069 H1057 0.950 . S
C1069 C1065 1.393 . S
C1069 C1068 1.391 . S
C1070 H1060 0.950 . S
C1070 C1071 1.386 . S
C1070 C1072 1.394 1_545 S
C1071 C1070 1.386 . S
C1071 C1075 1.393 1_545 S
C1072 H1061 0.950 1_565 S
C1072 C1070 1.394 1_565 S
C1072 C1073 1.398 . S
C1073 C1067 1.491 . S
C1073 C1072 1.398 . S
C1073 C1074 1.398 . S
C1074 H1062 0.950 . S
C1074 C1073 1.398 . S
C1074 C1075 1.391 . S
C1075 H1063 0.950 . S
C1075 C1071 1.393 1_565 S
C1075 C1074 1.391 . S
H1076 C1084 0.950 . S
H1077 C1089 0.950 . S
H1078 C1086 0.950 . S
H1079 C1088 0.950 . S
H1080 C1090 0.950 . S
H1081 C1092 0.950 . S
H1082 C1094 0.950 . S
H1083 C1095 0.950 . S
C1084 H1076 0.950 . S
C1084 C1085 1.386 . S
C1084 C1086 1.391 . S
C1085 C1084 1.386 . S
C1085 C1089 1.393 . S
C1086 H1078 0.950 . S
C1086 C1084 1.391 . S
C1086 C1087 1.400 . S
C1087 C1086 1.400 . S
C1087 C1088 1.398 . S
C1087 C1093 1.491 . S
C1088 H1079 0.950 . S
C1088 C1087 1.398 . S
C1088 C1089 1.391 . S
C1089 H1077 0.950 . S
C1089 C1085 1.393 . S
C1089 C1088 1.391 . S
C1090 H1080 0.950 . S
C1090 C1091 1.386 . S
C1090 C1092 1.391 . S
C1091 C1090 1.386 . S
C1091 C1095 1.393 . S
C1092 H1081 0.950 . S
C1092 C1090 1.391 . S
C1092 C1093 1.400 . S
C1093 C1087 1.491 . S
C1093 C1092 1.400 . S
C1093 C1094 1.398 . S
C1094 H1082 0.950 . S
C1094 C1093 1.398 . S
C1094 C1095 1.391 . S
C1095 H1083 0.950 . S
C1095 C1091 1.393 . S
C1095 C1094 1.391 . S
H1096 C1104 0.950 . S
H1097 C1109 0.950 . S
H1098 C1106 0.950 . S
H1099 C1108 0.950 . S
H1100 C1110 0.950 . S
H1101 C1112 0.950 . S
H1102 C1114 0.950 . S
H1103 C1115 0.950 . S
C1104 H1096 0.950 . S
C1104 C1105 1.386 . S
C1104 C1106 1.391 . S
C1105 C1104 1.386 . S
C1105 C1109 1.393 . S
C1106 H1098 0.950 . S
C1106 C1104 1.391 . S
C1106 C1107 1.400 . S
C1107 C1106 1.400 . S
C1107 C1108 1.398 . S
C1107 C1113 1.491 . S
C1108 H1099 0.950 . S
C1108 C1107 1.398 . S
C1108 C1109 1.391 . S
C1109 H1097 0.950 . S
C1109 C1105 1.393 . S
C1109 C1108 1.391 . S
C1110 H1100 0.950 . S
C1110 C1111 1.386 . S
C1110 C1112 1.391 . S
C1111 C1110 1.386 . S
C1111 C1115 1.393 . S
C1112 H1101 0.950 . S
C1112 C1110 1.391 . S
C1112 C1113 1.400 . S
C1113 C1107 1.491 . S
C1113 C1112 1.400 . S
C1113 C1114 1.398 . S
C1114 H1102 0.950 . S
C1114 C1113 1.398 . S
C1114 C1115 1.391 . S
C1115 H1103 0.950 . S
C1115 C1111 1.393 . S
C1115 C1114 1.391 . S
H1116 C1124 0.950 . S
H1117 C1129 0.950 . S
H1118 C1126 0.950 . S
H1119 C1128 0.950 . S
H1120 C1130 0.950 . S
H1121 C1132 0.950 . S
H1122 C1134 0.950 . S
H1123 C1135 0.950 . S
C1124 H1116 0.950 . S
C1124 C1125 1.386 . S
C1124 C1126 1.391 . S
C1125 C1124 1.386 . S
C1125 C1129 1.393 . S
C1126 H1118 0.950 . S
C1126 C1124 1.391 . S
C1126 C1127 1.400 . S
C1127 C1126 1.400 . S
C1127 C1128 1.398 . S
C1127 C1133 1.491 . S
C1128 H1119 0.950 . S
C1128 C1127 1.398 . S
C1128 C1129 1.391 . S
C1129 H1117 0.950 . S
C1129 C1125 1.393 . S
C1129 C1128 1.391 . S
C1130 H1120 0.950 . S
C1130 C1131 1.386 . S
C1130 C1132 1.391 . S
C1131 C1130 1.386 . S
C1131 C1135 1.393 . S
C1132 H1121 0.950 . S
C1132 C1130 1.391 . S
C1132 C1133 1.400 . S
C1133 C1127 1.491 . S
C1133 C1132 1.400 . S
C1133 C1134 1.398 . S
C1134 H1122 0.950 . S
C1134 C1133 1.398 . S
C1134 C1135 1.391 . S
C1135 H1123 0.950 . S
C1135 C1131 1.393 . S
C1135 C1134 1.391 . S
H1136 C1144 0.950 . S
H1137 C1149 0.950 . S
H1138 C1146 0.950 . S
H1139 C1148 0.950 . S
H1140 C1150 0.950 . S
H1141 C1152 0.950 . S
H1142 C1154 0.950 . S
H1143 C1155 0.950 . S
C1144 H1136 0.950 . S
C1144 C1145 1.386 . S
C1144 C1146 1.391 . S
C1145 C1144 1.386 . S
C1145 C1149 1.393 . S
C1146 H1138 0.950 . S
C1146 C1144 1.391 . S
C1146 C1147 1.400 . S
C1147 C1146 1.400 . S
C1147 C1148 1.398 . S
C1147 C1153 1.491 . S
C1148 H1139 0.950 . S
C1148 C1147 1.398 . S
C1148 C1149 1.391 . S
C1149 H1137 0.950 . S
C1149 C1145 1.393 . S
C1149 C1148 1.391 . S
C1150 H1140 0.950 . S
C1150 C1151 1.386 1_655 S
C1150 C1152 1.391 . S
C1151 C1150 1.386 1_455 S
C1151 C1155 1.393 . S
C1152 H1141 0.950 . S
C1152 C1150 1.391 . S
C1152 C1153 1.400 . S
C1153 C1147 1.491 . S
C1153 C1152 1.400 . S
C1153 C1154 1.398 1_655 S
C1154 H1142 0.950 . S
C1154 C1153 1.398 1_455 S
C1154 C1155 1.391 . S
C1155 H1143 0.950 . S
C1155 C1151 1.393 . S
C1155 C1154 1.391 . S
H1156 C1164 0.950 . S
H1157 C1169 0.950 . S
H1158 C1166 0.950 . S
H1159 C1168 0.950 . S
H1160 C1170 0.950 . S
H1161 C1172 0.950 . S
H1162 C1174 0.950 . S
H1163 C1175 0.950 . S
C1164 H1156 0.950 . S
C1164 C1165 1.386 . S
C1164 C1166 1.391 . S
C1165 C1164 1.386 . S
C1165 C1169 1.393 . S
C1166 H1158 0.950 . S
C1166 C1164 1.391 . S
C1166 C1167 1.400 . S
C1167 C1166 1.400 . S
C1167 C1168 1.398 . S
C1167 C1173 1.491 . S
C1168 H1159 0.950 . S
C1168 C1167 1.398 . S
C1168 C1169 1.391 . S
C1169 H1157 0.950 . S
C1169 C1165 1.393 . S
C1169 C1168 1.391 . S
C1170 H1160 0.950 . S
C1170 C1171 1.386 . S
C1170 C1172 1.391 . S
C1171 C1170 1.386 . S
C1171 C1175 1.393 . S
C1172 H1161 0.950 . S
C1172 C1170 1.391 . S
C1172 C1173 1.400 . S
C1173 C1167 1.491 . S
C1173 C1172 1.400 . S
C1173 C1174 1.398 . S
C1174 H1162 0.950 . S
C1174 C1173 1.398 . S
C1174 C1175 1.391 . S
C1175 H1163 0.950 . S
C1175 C1171 1.393 . S
C1175 C1174 1.391 . S
H1176 C1184 0.950 1_565 S
H1177 C1189 0.950 . S
H1178 C1186 0.950 . S
H1179 C1188 0.950 . S
H1180 C1190 0.950 . S
H1181 C1192 0.950 . S
H1182 C1194 0.950 . S
H1183 C1195 0.950 . S
C1184 H1176 0.950 1_545 S
C1184 C1185 1.381 1_545 S
C1184 C1186 1.391 . S
C1185 C1184 1.381 1_565 S
C1185 C1189 1.376 1_565 S
C1186 H1178 0.950 . S
C1186 C1184 1.391 . S
C1186 C1187 1.400 . S
C1187 C1186 1.400 . S
C1187 C1188 1.398 . S
C1187 C1193 1.491 . S
C1188 H1179 0.950 . S
C1188 C1187 1.398 . S
C1188 C1189 1.391 . S
C1189 H1177 0.950 . S
C1189 C1185 1.376 1_545 S
C1189 C1188 1.391 . S
C1190 H1180 0.950 . S
C1190 C1191 1.386 . S
C1190 C1192 1.391 . S
C1191 C1190 1.386 . S
C1191 C1195 1.393 . S
C1192 H1181 0.950 . S
C1192 C1190 1.391 . S
C1192 C1193 1.400 . S
C1193 C1187 1.491 . S
C1193 C1192 1.400 . S
C1193 C1194 1.398 . S
C1194 H1182 0.950 . S
C1194 C1193 1.398 . S
C1194 C1195 1.391 . S
C1195 H1183 0.950 . S
C1195 C1191 1.393 . S
C1195 C1194 1.391 . S
H1196 C1204 0.950 . S
H1197 C1209 0.950 . S
H1198 C1206 0.950 . S
H1199 C1208 0.950 . S
H1200 C1210 0.950 . S
H1201 C1212 0.950 . S
H1202 C1214 0.950 . S
H1203 C1215 0.950 . S
C1204 H1196 0.950 . S
C1204 C1205 1.386 . S
C1204 C1206 1.391 . S
C1205 C1204 1.386 . S
C1205 C1209 1.393 . S
C1206 H1198 0.950 . S
C1206 C1204 1.391 . S
C1206 C1207 1.400 . S
C1207 C1206 1.400 . S
C1207 C1208 1.398 . S
C1207 C1213 1.491 . S
C1208 H1199 0.950 . S
C1208 C1207 1.398 . S
C1208 C1209 1.391 . S
C1209 H1197 0.950 . S
C1209 C1205 1.393 . S
C1209 C1208 1.391 . S
C1210 H1200 0.950 . S
C1210 C1211 1.386 . S
C1210 C1212 1.391 . S
C1211 C1210 1.386 . S
C1211 C1215 1.393 . S
C1212 H1201 0.950 . S
C1212 C1210 1.391 . S
C1212 C1213 1.400 . S
C1213 C1207 1.491 . S
C1213 C1212 1.400 . S
C1213 C1214 1.398 . S
C1214 H1202 0.950 . S
C1214 C1213 1.398 . S
C1214 C1215 1.391 . S
C1215 H1203 0.950 . S
C1215 C1211 1.393 . S
C1215 C1214 1.391 . S
H1216 C1224 0.950 . S
H1217 C1229 0.950 . S
H1218 C1226 0.950 . S
H1219 C1228 0.950 . S
H1220 C1230 0.950 . S
H1221 C1232 0.950 . S
H1222 C1234 0.950 1_455 S
H1223 C1235 0.950 . S
C1224 H1216 0.950 . S
C1224 C1225 1.386 . S
C1224 C1226 1.391 . S
C1225 C1224 1.386 . S
C1225 C1229 1.393 . S
C1226 H1218 0.950 . S
C1226 C1224 1.391 . S
C1226 C1227 1.400 . S
C1227 C1226 1.400 . S
C1227 C1228 1.398 . S
C1227 C1233 1.491 . S
C1228 H1219 0.950 . S
C1228 C1227 1.398 . S
C1228 C1229 1.391 . S
C1229 H1217 0.950 . S
C1229 C1225 1.393 . S
C1229 C1228 1.391 . S
C1230 H1220 0.950 . S
C1230 C1231 1.386 . S
C1230 C1232 1.391 . S
C1231 C1230 1.386 . S
C1231 C1235 1.393 1_655 S
C1232 H1221 0.950 . S
C1232 C1230 1.391 . S
C1232 C1233 1.400 . S
C1233 C1227 1.491 . S
C1233 C1232 1.400 . S
C1233 C1234 1.398 . S
C1234 H1222 0.950 1_655 S
C1234 C1233 1.398 . S
C1234 C1235 1.391 1_655 S
C1235 H1223 0.950 . S
C1235 C1231 1.393 1_455 S
C1235 C1234 1.391 1_455 S
H1236 C1244 0.950 . S
H1237 C1249 0.950 . S
H1238 C1246 0.950 . S
H1239 C1248 0.950 . S
H1240 C1250 0.950 . S
H1241 C1252 0.950 . S
H1242 C1254 0.950 . S
H1243 C1255 0.950 . S
C1244 H1236 0.950 . S
C1244 C1245 1.386 . S
C1244 C1246 1.391 . S
C1245 C1244 1.386 . S
C1245 C1249 1.393 . S
C1246 H1238 0.950 . S
C1246 C1244 1.391 . S
C1246 C1247 1.400 . S
C1247 C1246 1.400 . S
C1247 C1248 1.398 . S
C1247 C1253 1.491 . S
C1248 H1239 0.950 . S
C1248 C1247 1.398 . S
C1248 C1249 1.391 . S
C1249 H1237 0.950 . S
C1249 C1245 1.393 . S
C1249 C1248 1.391 . S
C1250 H1240 0.950 . S
C1250 C1251 1.386 . S
C1250 C1252 1.391 . S
C1251 C1250 1.386 . S
C1251 C1255 1.393 . S
C1252 H1241 0.950 . S
C1252 C1250 1.391 . S
C1252 C1253 1.400 . S
C1253 C1247 1.491 . S
C1253 C1252 1.400 . S
C1253 C1254 1.398 . S
C1254 H1242 0.950 . S
C1254 C1253 1.398 . S
C1254 C1255 1.391 . S
C1255 H1243 0.950 . S
C1255 C1251 1.393 . S
C1255 C1254 1.391 . S
H1256 C1264 0.950 1_565 S
H1257 C1269 0.950 . S
H1258 C1266 0.950 . S
H1259 C1268 0.950 . S
H1260 C1270 0.950 . S
H1261 C1272 0.950 . S
H1262 C1274 0.950 . S
H1263 C1275 0.950 . S
C1264 H1256 0.950 1_545 S
C1264 C1265 1.386 . S
C1264 C1266 1.391 . S
C1265 C1264 1.386 . S
C1265 C1269 1.393 . S
C1266 H1258 0.950 . S
C1266 C1264 1.391 . S
C1266 C1267 1.400 . S
C1267 C1266 1.400 . S
C1267 C1268 1.398 . S
C1267 C1273 1.491 . S
C1268 H1259 0.950 . S
C1268 C1267 1.398 . S
C1268 C1269 1.391 . S
C1269 H1257 0.950 . S
C1269 C1265 1.393 . S
C1269 C1268 1.391 . S
C1270 H1260 0.950 . S
C1270 C1271 1.386 . S
C1270 C1272 1.391 . S
C1271 C1270 1.386 . S
C1271 C1275 1.393 . S
C1272 H1261 0.950 . S
C1272 C1270 1.391 . S
C1272 C1273 1.400 . S
C1273 C1267 1.491 . S
C1273 C1272 1.400 . S
C1273 C1274 1.398 . S
C1274 H1262 0.950 . S
C1274 C1273 1.398 . S
C1274 C1275 1.391 . S
C1275 H1263 0.950 . S
C1275 C1271 1.393 . S
C1275 C1274 1.391 . S
H1276 C1284 0.950 . S
H1277 C1289 0.950 . S
H1278 C1286 0.950 . S
H1279 C1288 0.950 . S
H1280 C1290 0.950 . S
H1281 C1292 0.950 . S
H1282 C1294 0.950 . S
H1283 C1295 0.950 . S
C1284 H1276 0.950 . S
C1284 C1285 1.386 . S
C1284 C1286 1.391 . S
C1285 C1284 1.386 . S
C1285 C1289 1.393 . S
C1286 H1278 0.950 . S
C1286 C1284 1.391 . S
C1286 C1287 1.400 . S
C1287 C1286 1.400 . S
C1287 C1288 1.398 . S
C1287 C1293 1.491 . S
C1288 H1279 0.950 . S
C1288 C1287 1.398 . S
C1288 C1289 1.391 . S
C1289 H1277 0.950 . S
C1289 C1285 1.393 . S
C1289 C1288 1.391 . S
C1290 H1280 0.950 . S
C1290 C1291 1.386 . S
C1290 C1292 1.391 . S
C1291 C1290 1.386 . S
C1291 C1295 1.393 . S
C1292 H1281 0.950 . S
C1292 C1290 1.391 . S
C1292 C1293 1.400 . S
C1293 C1287 1.491 . S
C1293 C1292 1.400 . S
C1293 C1294 1.398 . S
C1294 H1282 0.950 . S
C1294 C1293 1.398 . S
C1294 C1295 1.391 . S
C1295 H1283 0.950 . S
C1295 C1291 1.393 . S
C1295 C1294 1.391 . S
H1296 C1304 0.950 . S
H1297 C1309 0.950 . S
H1298 C1306 0.950 . S
H1299 C1308 0.950 . S
H1300 C1310 0.940 1_565 S
H1301 C1312 0.996 . S
H1302 C1314 0.950 . S
H1303 C1315 0.950 . S
C1304 H1296 0.950 . S
C1304 C1305 1.386 1_545 S
C1304 C1306 1.391 . S
C1305 C1304 1.386 1_565 S
C1305 C1309 1.393 . S
C1306 H1298 0.950 . S
C1306 C1304 1.391 . S
C1306 C1307 1.400 . S
C1307 C1306 1.400 . S
C1307 C1308 1.398 1_545 S
C1307 C1313 1.491 . S
C1308 H1299 0.950 . S
C1308 C1307 1.398 1_565 S
C1308 C1309 1.391 . S
C1309 H1297 0.950 . S
C1309 C1305 1.393 . S
C1309 C1308 1.391 . S
C1310 H1300 0.940 1_545 S
C1310 C1311 1.386 . S
C1310 C1312 1.366 1_545 S
C1311 C1310 1.386 . S
C1311 C1315 1.393 . S
C1312 H1301 0.996 . S
C1312 C1310 1.366 1_565 S
C1312 C1313 1.381 1_565 S
C1313 C1307 1.491 . S
C1313 C1312 1.381 1_545 S
C1313 C1314 1.398 . S
C1314 H1302 0.950 . S
C1314 C1313 1.398 . S
C1314 C1315 1.391 . S
C1315 H1303 0.950 . S
C1315 C1311 1.393 . S
C1315 C1314 1.391 . S
H1316 C1324 0.950 . S
H1317 C1329 0.950 . S
H1318 C1326 0.950 . S
H1319 C1328 0.950 . S
H1320 C1330 0.950 1_556 S
H1321 C1332 0.950 1_556 S
H1322 C1334 0.950 . S
H1323 C1335 0.950 . S
C1324 H1316 0.950 . S
C1324 C1325 1.386 . S
C1324 C1326 1.391 . S
C1325 C1324 1.386 . S
C1325 C1329 1.393 1_554 S
C1326 H1318 0.950 . S
C1326 C1324 1.391 . S
C1326 C1327 1.400 . S
C1327 C1326 1.400 . S
C1327 C1328 1.398 1_554 S
C1327 C1333 1.491 . S
C1328 H1319 0.950 . S
C1328 C1327 1.398 1_556 S
C1328 C1329 1.391 . S
C1329 H1317 0.950 . S
C1329 C1325 1.393 1_556 S
C1329 C1328 1.391 . S
C1330 H1320 0.950 1_554 S
C1330 C1331 1.386 . S
C1330 C1332 1.391 . S
C1331 C1330 1.386 . S
C1331 C1335 1.393 . S
C1332 H1321 0.950 1_554 S
C1332 C1330 1.391 . S
C1332 C1333 1.400 . S
C1333 C1327 1.491 . S
C1333 C1332 1.400 . S
C1333 C1334 1.398 . S
C1334 H1322 0.950 . S
C1334 C1333 1.398 . S
C1334 C1335 1.391 . S
C1335 H1323 0.950 . S
C1335 C1331 1.393 . S
C1335 C1334 1.391 . S
H1336 C1344 0.950 . S
H1337 C1349 0.950 . S
H1338 C1346 0.950 . S
H1339 C1348 0.950 . S
H1340 C1350 0.950 . S
H1341 C1352 0.950 . S
H1342 C1354 0.950 . S
H1343 C1355 0.950 . S
C1344 H1336 0.950 . S
C1344 C1345 1.386 . S
C1344 C1346 1.391 . S
C1345 C1344 1.386 . S
C1345 C1349 1.393 . S
C1346 H1338 0.950 . S
C1346 C1344 1.391 . S
C1346 C1347 1.400 . S
C1347 C1346 1.400 . S
C1347 C1348 1.398 . S
C1347 C1353 1.491 . S
C1348 H1339 0.950 . S
C1348 C1347 1.398 . S
C1348 C1349 1.391 . S
C1349 H1337 0.950 . S
C1349 C1345 1.393 . S
C1349 C1348 1.391 . S
C1350 H1340 0.950 . S
C1350 C1351 1.386 . S
C1350 C1352 1.391 . S
C1351 C1350 1.386 . S
C1351 C1355 1.393 . S
C1352 H1341 0.950 . S
C1352 C1350 1.391 . S
C1352 C1353 1.400 . S
C1353 C1347 1.491 . S
C1353 C1352 1.400 . S
C1353 C1354 1.398 . S
C1354 H1342 0.950 . S
C1354 C1353 1.398 . S
C1354 C1355 1.391 . S
C1355 H1343 0.950 . S
C1355 C1351 1.393 . S
C1355 C1354 1.391 . S
H1356 C1364 0.950 . S
H1357 C1369 0.950 . S
H1358 C1366 0.950 . S
H1359 C1368 0.950 . S
H1360 C1370 0.950 . S
H1361 C1372 0.950 . S
H1362 C1374 0.950 . S
H1363 C1375 0.950 . S
C1364 H1356 0.950 . S
C1364 C1365 1.386 . S
C1364 C1366 1.391 . S
C1365 C1364 1.386 . S
C1365 C1369 1.393 . S
C1366 H1358 0.950 . S
C1366 C1364 1.391 . S
C1366 C1367 1.400 . S
C1367 C1366 1.400 . S
C1367 C1368 1.398 . S
C1367 C1373 1.491 . S
C1368 H1359 0.950 . S
C1368 C1367 1.398 . S
C1368 C1369 1.391 . S
C1369 H1357 0.950 . S
C1369 C1365 1.393 . S
C1369 C1368 1.391 . S
C1370 H1360 0.950 . S
C1370 C1371 1.386 . S
C1370 C1372 1.391 . S
C1371 C1370 1.386 . S
C1371 C1375 1.393 . S
C1372 H1361 0.950 . S
C1372 C1370 1.391 . S
C1372 C1373 1.400 . S
C1373 C1367 1.491 . S
C1373 C1372 1.400 . S
C1373 C1374 1.398 . S
C1374 H1362 0.950 . S
C1374 C1373 1.398 . S
C1374 C1375 1.391 . S
C1375 H1363 0.950 . S
C1375 C1371 1.393 . S
C1375 C1374 1.391 . S
H1376 C1384 0.950 . S
H1377 C1389 0.950 . S
H1378 C1386 0.950 . S
H1379 C1388 0.950 . S
H1380 C1390 0.950 . S
H1381 C1392 0.950 . S
H1382 C1394 0.950 . S
H1383 C1395 0.950 . S
C1384 H1376 0.950 . S
C1384 C1385 1.386 . S
C1384 C1386 1.391 . S
C1385 C1384 1.386 . S
C1385 C1389 1.393 . S
C1386 H1378 0.950 . S
C1386 C1384 1.391 . S
C1386 C1387 1.400 . S
C1387 C1386 1.400 . S
C1387 C1388 1.398 . S
C1387 C1393 1.491 . S
C1388 H1379 0.950 . S
C1388 C1387 1.398 . S
C1388 C1389 1.391 . S
C1389 H1377 0.950 . S
C1389 C1385 1.393 . S
C1389 C1388 1.391 . S
C1390 H1380 0.950 . S
C1390 C1391 1.386 . S
C1390 C1392 1.391 . S
C1391 C1390 1.386 . S
C1391 C1395 1.393 . S
C1392 H1381 0.950 . S
C1392 C1390 1.391 . S
C1392 C1393 1.400 . S
C1393 C1387 1.491 . S
C1393 C1392 1.400 . S
C1393 C1394 1.398 . S
C1394 H1382 0.950 . S
C1394 C1393 1.398 . S
C1394 C1395 1.391 . S
C1395 H1383 0.950 . S
C1395 C1391 1.393 . S
C1395 C1394 1.391 . S
H1396 C1404 0.950 . S
H1397 C1409 0.950 . S
H1398 C1406 0.950 . S
H1399 C1408 0.950 . S
H1400 C1410 0.950 . S
H1401 C1412 0.950 . S
H1402 C1414 0.950 . S
H1403 C1415 0.950 . S
C1404 H1396 0.950 . S
C1404 C1405 1.386 . S
C1404 C1406 1.391 . S
C1405 C1404 1.386 . S
C1405 C1409 1.393 . S
C1406 H1398 0.950 . S
C1406 C1404 1.391 . S
C1406 C1407 1.400 . S
C1407 C1406 1.400 . S
C1407 C1408 1.398 . S
C1407 C1413 1.491 . S
C1408 H1399 0.950 . S
C1408 C1407 1.398 . S
C1408 C1409 1.391 . S
C1409 H1397 0.950 . S
C1409 C1405 1.393 . S
C1409 C1408 1.391 . S
C1410 H1400 0.950 . S
C1410 C1411 1.386 . S
C1410 C1412 1.391 . S
C1411 C1410 1.386 . S
C1411 C1415 1.393 . S
C1412 H1401 0.950 . S
C1412 C1410 1.391 . S
C1412 C1413 1.400 . S
C1413 C1407 1.491 . S
C1413 C1412 1.400 . S
C1413 C1414 1.398 . S
C1414 H1402 0.950 . S
C1414 C1413 1.398 . S
C1414 C1415 1.391 . S
C1415 H1403 0.950 . S
C1415 C1411 1.393 . S
C1415 C1414 1.391 . S
H1416 C1424 0.950 . S
H1417 C1429 0.950 . S
H1418 C1426 0.950 . S
H1419 C1428 0.950 . S
H1420 C1430 0.950 . S
H1421 C1432 0.950 . S
H1422 C1434 0.950 . S
H1423 C1435 0.950 . S
C1424 H1416 0.950 . S
C1424 C1425 1.386 . S
C1424 C1426 1.391 . S
C1425 C1424 1.386 . S
C1425 C1429 1.393 . S
C1426 H1418 0.950 . S
C1426 C1424 1.391 . S
C1426 C1427 1.400 . S
C1427 C1426 1.400 . S
C1427 C1428 1.398 . S
C1427 C1433 1.491 . S
C1428 H1419 0.950 . S
C1428 C1427 1.398 . S
C1428 C1429 1.391 . S
C1429 H1417 0.950 . S
C1429 C1425 1.393 . S
C1429 C1428 1.391 . S
C1430 H1420 0.950 . S
C1430 C1431 1.386 . S
C1430 C1432 1.391 . S
C1431 C1430 1.386 . S
C1431 C1435 1.393 . S
C1432 H1421 0.950 . S
C1432 C1430 1.391 . S
C1432 C1433 1.400 . S
C1433 C1427 1.491 . S
C1433 C1432 1.400 . S
C1433 C1434 1.398 . S
C1434 H1422 0.950 . S
C1434 C1433 1.398 . S
C1434 C1435 1.391 . S
C1435 H1423 0.950 . S
C1435 C1431 1.393 . S
C1435 C1434 1.391 . S
H1436 C1444 0.950 . S
H1437 C1449 0.950 . S
H1438 C1446 0.950 . S
H1439 C1448 0.950 . S
H1440 C1450 0.950 . S
H1441 C1452 0.950 . S
H1442 C1454 0.950 . S
H1443 C1455 0.950 . S
C1444 H1436 0.950 . S
C1444 C1445 1.386 . S
C1444 C1446 1.391 . S
C1445 C1444 1.386 . S
C1445 C1449 1.393 . S
C1446 H1438 0.950 . S
C1446 C1444 1.391 . S
C1446 C1447 1.400 . S
C1447 C1446 1.400 . S
C1447 C1448 1.398 . S
C1447 C1453 1.491 . S
C1448 H1439 0.950 . S
C1448 C1447 1.398 . S
C1448 C1449 1.391 . S
C1449 H1437 0.950 . S
C1449 C1445 1.393 . S
C1449 C1448 1.391 . S
C1450 H1440 0.950 . S
C1450 C1451 1.386 . S
C1450 C1452 1.391 . S
C1451 C1450 1.386 . S
C1451 C1455 1.393 . S
C1452 H1441 0.950 . S
C1452 C1450 1.391 . S
C1452 C1453 1.400 . S
C1453 C1447 1.491 . S
C1453 C1452 1.400 . S
C1453 C1454 1.398 . S
C1454 H1442 0.950 . S
C1454 C1453 1.398 . S
C1454 C1455 1.391 . S
C1455 H1443 0.950 . S
C1455 C1451 1.393 . S
C1455 C1454 1.391 . S
H1456 C1464 0.950 . S
H1457 C1469 0.950 . S
H1458 C1466 0.950 . S
H1459 C1468 0.950 . S
H1460 C1470 0.950 . S
H1461 C1472 0.950 . S
H1462 C1474 0.950 . S
H1463 C1475 0.950 1_545 S
C1464 H1456 0.950 . S
C1464 C1465 1.386 . S
C1464 C1466 1.391 . S
C1465 C1464 1.386 . S
C1465 C1469 1.393 . S
C1466 H1458 0.950 . S
C1466 C1464 1.391 . S
C1466 C1467 1.400 . S
C1467 C1466 1.400 . S
C1467 C1468 1.398 . S
C1467 C1473 1.491 . S
C1468 H1459 0.950 . S
C1468 C1467 1.398 . S
C1468 C1469 1.391 . S
C1469 H1457 0.950 . S
C1469 C1465 1.393 . S
C1469 C1468 1.391 . S
C1470 H1460 0.950 . S
C1470 C1471 1.409 . S
C1470 C1472 1.391 . S
C1471 C1470 1.409 . S
C1471 C1475 1.398 . S
C1472 H1461 0.950 . S
C1472 C1470 1.391 . S
C1472 C1473 1.400 . S
C1473 C1467 1.491 . S
C1473 C1472 1.400 . S
C1473 C1474 1.398 . S
C1474 H1462 0.950 . S
C1474 C1473 1.398 . S
C1474 C1475 1.391 . S
C1475 H1463 0.950 1_565 S
C1475 C1471 1.398 . S
C1475 C1474 1.391 . S
H1476 C1484 0.950 . S
H1477 C1489 0.950 . S
H1478 C1486 0.950 . S
H1479 C1488 0.950 . S
H1480 C1490 0.950 . S
H1481 C1492 0.950 . S
H1482 C1494 0.950 . S
H1483 C1495 0.950 . S
C1484 H1476 0.950 . S
C1484 C1485 1.386 . S
C1484 C1486 1.391 . S
C1485 C1484 1.386 . S
C1485 C1489 1.393 . S
C1486 H1478 0.950 . S
C1486 C1484 1.391 . S
C1486 C1487 1.400 . S
C1487 C1486 1.400 . S
C1487 C1488 1.398 . S
C1487 C1493 1.491 . S
C1488 H1479 0.950 . S
C1488 C1487 1.398 . S
C1488 C1489 1.391 . S
C1489 H1477 0.950 . S
C1489 C1485 1.393 . S
C1489 C1488 1.391 . S
C1490 H1480 0.950 . S
C1490 C1491 1.386 . S
C1490 C1492 1.391 . S
C1491 C1490 1.386 . S
C1491 C1495 1.393 . S
C1492 H1481 0.950 . S
C1492 C1490 1.391 . S
C1492 C1493 1.400 . S
C1493 C1487 1.491 . S
C1493 C1492 1.400 . S
C1493 C1494 1.398 . S
C1494 H1482 0.950 . S
C1494 C1493 1.398 . S
C1494 C1495 1.391 . S
C1495 H1483 0.950 . S
C1495 C1491 1.393 . S
C1495 C1494 1.391 . S
H1496 C1504 0.950 . S
H1497 C1509 0.950 . S
H1498 C1506 0.950 . S
H1499 C1508 0.950 . S
H1500 C1510 0.950 . S
H1501 C1512 0.950 . S
H1502 C1514 0.950 . S
H1503 C1515 0.950 . S
C1504 H1496 0.950 . S
C1504 C1505 1.386 . S
C1504 C1506 1.391 . S
C1505 C1504 1.386 . S
C1505 C1509 1.393 . S
C1506 H1498 0.950 . S
C1506 C1504 1.391 . S
C1506 C1507 1.400 . S
C1507 C1506 1.400 . S
C1507 C1508 1.398 . S
C1507 C1513 1.491 . S
C1508 H1499 0.950 . S
C1508 C1507 1.398 . S
C1508 C1509 1.391 . S
C1509 H1497 0.950 . S
C1509 C1505 1.393 . S
C1509 C1508 1.391 . S
C1510 H1500 0.950 . S
C1510 C1511 1.386 . S
C1510 C1512 1.391 . S
C1511 C1510 1.386 . S
C1511 C1515 1.393 . S
C1512 H1501 0.950 . S
C1512 C1510 1.391 . S
C1512 C1513 1.400 . S
C1513 C1507 1.491 . S
C1513 C1512 1.400 . S
C1513 C1514 1.398 . S
C1514 H1502 0.950 . S
C1514 C1513 1.398 . S
C1514 C1515 1.391 . S
C1515 H1503 0.950 . S
C1515 C1511 1.393 . S
C1515 C1514 1.391 . S
H1516 C1524 0.950 . S
H1517 C1529 0.950 . S
H1518 C1526 0.950 . S
H1519 C1528 0.950 . S
H1520 C1530 0.950 . S
H1521 C1532 0.950 . S
H1522 C1534 0.950 . S
H1523 C1535 0.950 . S
C1524 H1516 0.950 . S
C1524 C1525 1.386 . S
C1524 C1526 1.391 . S
C1525 C1524 1.386 . S
C1525 C1529 1.393 . S
C1526 H1518 0.950 . S
C1526 C1524 1.391 . S
C1526 C1527 1.400 . S
C1527 C1526 1.400 . S
C1527 C1528 1.398 . S
C1527 C1533 1.491 . S
C1528 H1519 0.950 . S
C1528 C1527 1.398 . S
C1528 C1529 1.391 . S
C1529 H1517 0.950 . S
C1529 C1525 1.393 . S
C1529 C1528 1.391 . S
C1530 H1520 0.950 . S
C1530 C1531 1.386 . S
C1530 C1532 1.391 . S
C1531 C1530 1.386 . S
C1531 C1535 1.393 . S
C1532 H1521 0.950 . S
C1532 C1530 1.391 . S
C1532 C1533 1.400 . S
C1533 C1527 1.491 . S
C1533 C1532 1.400 . S
C1533 C1534 1.398 . S
C1534 H1522 0.950 . S
C1534 C1533 1.398 . S
C1534 C1535 1.391 . S
C1535 H1523 0.950 . S
C1535 C1531 1.393 . S
C1535 C1534 1.391 . S
H1536 C1544 0.950 . S
H1537 C1549 0.950 . S
H1538 C1546 0.950 . S
H1539 C1548 0.950 . S
H1540 C1550 0.950 1_655 S
H1541 C1552 0.950 . S
H1542 C1554 0.950 . S
H1543 C1555 0.950 . S
C1544 H1536 0.950 . S
C1544 C1545 1.386 . S
C1544 C1546 1.391 . S
C1545 C1544 1.386 . S
C1545 C1549 1.393 1_455 S
C1546 H1538 0.950 . S
C1546 C1544 1.391 . S
C1546 C1547 1.400 . S
C1547 C1546 1.400 . S
C1547 C1548 1.398 1_455 S
C1547 C1553 1.491 . S
C1548 H1539 0.950 . S
C1548 C1547 1.398 1_655 S
C1548 C1549 1.391 . S
C1549 H1537 0.950 . S
C1549 C1545 1.393 1_655 S
C1549 C1548 1.391 . S
C1550 H1540 0.950 1_455 S
C1550 C1551 1.386 . S
C1550 C1552 1.391 1_455 S
C1551 C1550 1.386 . S
C1551 C1555 1.393 . S
C1552 H1541 0.950 . S
C1552 C1550 1.391 1_655 S
C1552 C1553 1.400 1_655 S
C1553 C1547 1.491 . S
C1553 C1552 1.400 1_455 S
C1553 C1554 1.398 . S
C1554 H1542 0.950 . S
C1554 C1553 1.398 . S
C1554 C1555 1.391 . S
C1555 H1543 0.950 . S
C1555 C1551 1.393 . S
C1555 C1554 1.391 . S
H1556 C1564 0.950 . S
H1557 C1569 0.950 . S
H1558 C1566 0.950 . S
H1559 C1568 0.950 . S
H1560 C1570 0.950 . S
H1561 C1572 0.950 . S
H1562 C1574 0.950 . S
H1563 C1575 0.950 . S
C1564 H1556 0.950 . S
C1564 C1565 1.386 . S
C1564 C1566 1.391 . S
C1565 C1564 1.386 . S
C1565 C1569 1.393 . S
C1566 H1558 0.950 . S
C1566 C1564 1.391 . S
C1566 C1567 1.400 . S
C1567 C1566 1.400 . S
C1567 C1568 1.398 . S
C1567 C1573 1.491 . S
C1568 H1559 0.950 . S
C1568 C1567 1.398 . S
C1568 C1569 1.391 . S
C1569 H1557 0.950 . S
C1569 C1565 1.393 . S
C1569 C1568 1.391 . S
C1570 H1560 0.950 . S
C1570 C1571 1.386 . S
C1570 C1572 1.391 . S
C1571 C1570 1.386 . S
C1571 C1575 1.393 . S
C1572 H1561 0.950 . S
C1572 C1570 1.391 . S
C1572 C1573 1.400 . S
C1573 C1567 1.491 . S
C1573 C1572 1.400 . S
C1573 C1574 1.398 . S
C1574 H1562 0.950 . S
C1574 C1573 1.398 . S
C1574 C1575 1.391 . S
C1575 H1563 0.950 . S
C1575 C1571 1.393 . S
C1575 C1574 1.391 . S
H1576 C1584 0.950 . S
H1577 C1589 0.950 . S
H1578 C1586 0.950 . S
H1579 C1588 0.950 . S
H1580 C1590 0.950 1_545 S
H1581 C1592 0.950 . S
H1582 C1594 0.950 . S
H1583 C1595 0.950 . S
C1584 H1576 0.950 . S
C1584 C1585 1.386 . S
C1584 C1586 1.391 . S
C1585 C1584 1.386 . S
C1585 C1589 1.393 . S
C1586 H1578 0.950 . S
C1586 C1584 1.391 . S
C1586 C1587 1.400 . S
C1587 C1586 1.400 . S
C1587 C1588 1.398 . S
C1587 C1593 1.491 . S
C1588 H1579 0.950 . S
C1588 C1587 1.398 . S
C1588 C1589 1.391 . S
C1589 H1577 0.950 . S
C1589 C1585 1.393 . S
C1589 C1588 1.391 . S
C1590 H1580 0.950 1_565 S
C1590 C1591 1.386 1_566 S
C1590 C1592 1.391 . S
C1591 C1590 1.386 1_544 S
C1591 C1595 1.393 1_545 S
C1592 H1581 0.950 . S
C1592 C1590 1.391 . S
C1592 C1593 1.400 . S
C1593 C1587 1.491 . S
C1593 C1592 1.400 . S
C1593 C1594 1.398 1_556 S
C1594 H1582 0.950 . S
C1594 C1593 1.398 1_554 S
C1594 C1595 1.391 . S
C1595 H1583 0.950 . S
C1595 C1591 1.393 1_565 S
C1595 C1594 1.391 . S
H1596 C1604 0.950 . S
H1597 C1609 0.950 . S
H1598 C1606 0.950 . S
H1599 C1608 0.950 . S
H1600 C1610 0.950 . S
H1601 C1612 0.950 . S
H1602 C1614 0.950 1_455 S
H1603 C1615 0.950 . S
C1604 H1596 0.950 . S
C1604 C1605 1.386 . S
C1604 C1606 1.391 . S
C1605 C1604 1.386 . S
C1605 C1609 1.393 . S
C1606 H1598 0.950 . S
C1606 C1604 1.391 . S
C1606 C1607 1.410 . S
C1607 C1606 1.410 . S
C1607 C1608 1.400 1_455 S
C1607 C1613 1.480 1_455 S
C1608 H1599 0.950 . S
C1608 C1607 1.400 1_655 S
C1608 C1609 1.391 1_655 S
C1609 H1597 0.950 . S
C1609 C1605 1.393 . S
C1609 C1608 1.391 1_455 S
C1610 H1600 0.950 . S
C1610 C1611 1.386 . S
C1610 C1612 1.391 . S
C1611 C1610 1.386 . S
C1611 C1615 1.393 . S
C1612 H1601 0.950 . S
C1612 C1610 1.391 . S
C1612 C1613 1.400 . S
C1613 C1607 1.480 1_655 S
C1613 C1612 1.400 . S
C1613 C1614 1.398 . S
C1614 H1602 0.950 1_655 S
C1614 C1613 1.398 . S
C1614 C1615 1.391 . S
C1615 H1603 0.950 . S
C1615 C1611 1.393 . S
C1615 C1614 1.391 . S
H1616 C1624 0.950 . S
H1617 C1629 0.950 . S
H1618 C1626 0.950 . S
H1619 C1628 0.950 . S
H1620 C1630 0.950 . S
H1621 C1632 0.950 . S
H1622 C1634 0.950 . S
H1623 C1635 0.950 . S
C1624 H1616 0.950 . S
C1624 C1625 1.386 . S
C1624 C1626 1.391 . S
C1625 C1624 1.386 . S
C1625 C1629 1.393 . S
C1626 H1618 0.950 . S
C1626 C1624 1.391 . S
C1626 C1627 1.400 . S
C1627 C1626 1.400 . S
C1627 C1628 1.398 . S
C1627 C1633 1.491 . S
C1628 H1619 0.950 . S
C1628 C1627 1.398 . S
C1628 C1629 1.391 . S
C1629 H1617 0.950 . S
C1629 C1625 1.393 . S
C1629 C1628 1.391 . S
C1630 H1620 0.950 . S
C1630 C1631 1.386 . S
C1630 C1632 1.391 . S
C1631 C1630 1.386 . S
C1631 C1635 1.393 . S
C1632 H1621 0.950 . S
C1632 C1630 1.391 . S
C1632 C1633 1.400 . S
C1633 C1627 1.491 . S
C1633 C1632 1.400 . S
C1633 C1634 1.398 . S
C1634 H1622 0.950 . S
C1634 C1633 1.398 . S
C1634 C1635 1.391 . S
C1635 H1623 0.950 . S
C1635 C1631 1.393 . S
C1635 C1634 1.391 . S
H1636 C1644 0.950 . S
H1637 C1649 0.950 . S
H1638 C1646 0.950 . S
H1639 C1648 0.950 . S
H1640 C1650 0.950 . S
H1641 C1652 0.950 . S
H1642 C1654 0.950 . S
H1643 C1655 0.950 . S
C1644 H1636 0.950 . S
C1644 C1645 1.386 . S
C1644 C1646 1.391 . S
C1645 C1644 1.386 . S
C1645 C1649 1.393 . S
C1646 H1638 0.950 . S
C1646 C1644 1.391 . S
C1646 C1647 1.400 . S
C1647 C1646 1.400 . S
C1647 C1648 1.398 . S
C1647 C1653 1.491 . S
C1648 H1639 0.950 . S
C1648 C1647 1.398 . S
C1648 C1649 1.391 . S
C1649 H1637 0.950 . S
C1649 C1645 1.393 . S
C1649 C1648 1.391 . S
C1650 H1640 0.950 . S
C1650 C1651 1.386 . S
C1650 C1652 1.391 . S
C1651 C1650 1.386 . S
C1651 C1655 1.393 . S
C1652 H1641 0.950 . S
C1652 C1650 1.391 . S
C1652 C1653 1.400 . S
C1653 C1647 1.491 . S
C1653 C1652 1.400 . S
C1653 C1654 1.398 . S
C1654 H1642 0.950 . S
C1654 C1653 1.398 . S
C1654 C1655 1.391 . S
C1655 H1643 0.950 . S
C1655 C1651 1.393 . S
C1655 C1654 1.391 . S
H1656 C1664 0.950 . S
H1657 C1669 0.950 . S
H1658 C1666 0.950 . S
H1659 C1668 0.950 . S
H1660 C1670 0.950 . S
H1661 C1672 0.950 . S
H1662 C1674 0.950 . S
H1663 C1675 0.950 . S
C1664 H1656 0.950 . S
C1664 C1665 1.386 . S
C1664 C1666 1.391 . S
C1665 C1664 1.386 . S
C1665 C1669 1.393 . S
C1666 H1658 0.950 . S
C1666 C1664 1.391 . S
C1666 C1667 1.400 . S
C1667 C1666 1.400 . S
C1667 C1668 1.398 . S
C1667 C1673 1.491 . S
C1668 H1659 0.950 . S
C1668 C1667 1.398 . S
C1668 C1669 1.391 . S
C1669 H1657 0.950 . S
C1669 C1665 1.393 . S
C1669 C1668 1.391 . S
C1670 H1660 0.950 . S
C1670 C1671 1.386 . S
C1670 C1672 1.391 . S
C1671 C1670 1.386 . S
C1671 C1675 1.393 . S
C1672 H1661 0.950 . S
C1672 C1670 1.391 . S
C1672 C1673 1.400 . S
C1673 C1667 1.491 . S
C1673 C1672 1.400 . S
C1673 C1674 1.398 . S
C1674 H1662 0.950 . S
C1674 C1673 1.398 . S
C1674 C1675 1.391 . S
C1675 H1663 0.950 . S
C1675 C1671 1.393 . S
C1675 C1674 1.391 . S
H1676 C1684 0.950 . S
H1677 C1689 0.950 . S
H1678 C1686 0.950 . S
H1679 C1688 0.950 . S
H1680 C1690 0.950 . S
H1681 C1692 0.950 . S
H1682 C1694 0.950 . S
H1683 C1695 0.950 . S
C1684 H1676 0.950 . S
C1684 C1685 1.386 . S
C1684 C1686 1.391 . S
C1685 C1684 1.386 . S
C1685 C1689 1.393 . S
C1686 H1678 0.950 . S
C1686 C1684 1.391 . S
C1686 C1687 1.400 . S
C1687 C1686 1.400 . S
C1687 C1688 1.398 . S
C1687 C1693 1.491 . S
C1688 H1679 0.950 . S
C1688 C1687 1.398 . S
C1688 C1689 1.391 . S
C1689 H1677 0.950 . S
C1689 C1685 1.393 . S
C1689 C1688 1.391 . S
C1690 H1680 0.950 . S
C1690 C1691 1.386 . S
C1690 C1692 1.391 . S
C1691 C1690 1.386 . S
C1691 C1695 1.393 . S
C1692 H1681 0.950 . S
C1692 C1690 1.391 . S
C1692 C1693 1.400 . S
C1693 C1687 1.491 . S
C1693 C1692 1.400 . S
C1693 C1694 1.398 . S
C1694 H1682 0.950 . S
C1694 C1693 1.398 . S
C1694 C1695 1.391 . S
C1695 H1683 0.950 . S
C1695 C1691 1.393 . S
C1695 C1694 1.391 . S
H1696 C1704 0.950 . S
H1697 C1709 0.950 . S
H1698 C1706 0.950 . S
H1699 C1708 0.950 . S
H1700 C1710 0.950 . S
H1701 C1712 0.950 . S
H1702 C1714 0.950 . S
H1703 C1715 0.950 . S
C1704 H1696 0.950 . S
C1704 C1705 1.386 . S
C1704 C1706 1.391 . S
C1705 C1704 1.386 . S
C1705 C1709 1.393 . S
C1706 H1698 0.950 . S
C1706 C1704 1.391 . S
C1706 C1707 1.400 . S
C1707 C1706 1.400 . S
C1707 C1708 1.398 . S
C1707 C1713 1.491 . S
C1708 H1699 0.950 . S
C1708 C1707 1.398 . S
C1708 C1709 1.391 . S
C1709 H1697 0.950 . S
C1709 C1705 1.393 . S
C1709 C1708 1.391 . S
C1710 H1700 0.950 . S
C1710 C1711 1.386 . S
C1710 C1712 1.391 . S
C1711 C1710 1.386 . S
C1711 C1715 1.393 . S
C1712 H1701 0.950 . S
C1712 C1710 1.391 . S
C1712 C1713 1.400 . S
C1713 C1707 1.491 . S
C1713 C1712 1.400 . S
C1713 C1714 1.398 . S
C1714 H1702 0.950 . S
C1714 C1713 1.398 . S
C1714 C1715 1.391 . S
C1715 H1703 0.950 . S
C1715 C1711 1.393 . S
C1715 C1714 1.391 . S
H1716 C1724 0.950 . S
H1717 C1729 0.950 . S
H1718 C1726 0.950 . S
H1719 C1728 0.950 . S
H1720 C1730 0.950 . S
H1721 C1732 0.950 . S
H1722 C1734 0.950 . S
H1723 C1735 0.950 . S
C1724 H1716 0.950 . S
C1724 C1725 1.386 . S
C1724 C1726 1.391 . S
C1725 C1724 1.386 . S
C1725 C1729 1.393 . S
C1726 H1718 0.950 . S
C1726 C1724 1.391 . S
C1726 C1727 1.400 . S
C1727 C1726 1.400 . S
C1727 C1728 1.398 . S
C1727 C1733 1.491 . S
C1728 H1719 0.950 . S
C1728 C1727 1.398 . S
C1728 C1729 1.391 . S
C1729 H1717 0.950 . S
C1729 C1725 1.393 . S
C1729 C1728 1.391 . S
C1730 H1720 0.950 . S
C1730 C1731 1.386 . S
C1730 C1732 1.391 . S
C1731 C1730 1.386 . S
C1731 C1735 1.393 . S
C1732 H1721 0.950 . S
C1732 C1730 1.391 . S
C1732 C1733 1.400 . S
C1733 C1727 1.491 . S
C1733 C1732 1.400 . S
C1733 C1734 1.398 . S
C1734 H1722 0.950 . S
C1734 C1733 1.398 . S
C1734 C1735 1.391 . S
C1735 H1723 0.950 . S
C1735 C1731 1.393 . S
C1735 C1734 1.391 . S
H1736 C1744 0.950 . S
H1737 C1749 0.950 . S
H1738 C1746 0.950 . S
H1739 C1748 0.950 . S
H1740 C1750 0.950 . S
H1741 C1752 0.950 . S
H1742 C1754 0.950 . S
H1743 C1755 0.950 . S
C1744 H1736 0.950 . S
C1744 C1745 1.386 . S
C1744 C1746 1.391 . S
C1745 C1744 1.386 . S
C1745 C1749 1.393 . S
C1746 H1738 0.950 . S
C1746 C1744 1.391 . S
C1746 C1747 1.400 . S
C1747 C1746 1.400 . S
C1747 C1748 1.398 . S
C1747 C1753 1.491 . S
C1748 H1739 0.950 . S
C1748 C1747 1.398 . S
C1748 C1749 1.391 . S
C1749 H1737 0.950 . S
C1749 C1745 1.393 . S
C1749 C1748 1.391 . S
C1750 H1740 0.950 . S
C1750 C1751 1.386 . S
C1750 C1752 1.391 . S
C1751 C1750 1.386 . S
C1751 C1755 1.393 . S
C1752 H1741 0.950 . S
C1752 C1750 1.391 . S
C1752 C1753 1.400 . S
C1753 C1747 1.491 . S
C1753 C1752 1.400 . S
C1753 C1754 1.398 . S
C1754 H1742 0.950 . S
C1754 C1753 1.398 . S
C1754 C1755 1.391 . S
C1755 H1743 0.950 . S
C1755 C1751 1.393 . S
C1755 C1754 1.391 . S
H1756 C1764 0.950 . S
H1757 C1769 0.950 . S
H1758 C1766 0.950 . S
H1759 C1768 0.950 . S
H1760 C1770 0.950 . S
H1761 C1772 0.950 . S
H1762 C1774 0.950 . S
H1763 C1775 0.950 . S
C1764 H1756 0.950 . S
C1764 C1765 1.386 . S
C1764 C1766 1.391 . S
C1765 C1764 1.386 . S
C1765 C1769 1.393 . S
C1766 H1758 0.950 . S
C1766 C1764 1.391 . S
C1766 C1767 1.400 . S
C1767 C1766 1.400 . S
C1767 C1768 1.398 . S
C1767 C1773 1.491 . S
C1768 H1759 0.950 . S
C1768 C1767 1.398 . S
C1768 C1769 1.391 . S
C1769 H1757 0.950 . S
C1769 C1765 1.393 . S
C1769 C1768 1.391 . S
C1770 H1760 0.950 . S
C1770 C1771 1.386 . S
C1770 C1772 1.391 . S
C1771 C1770 1.386 . S
C1771 C1775 1.393 . S
C1772 H1761 0.950 . S
C1772 C1770 1.391 . S
C1772 C1773 1.400 . S
C1773 C1767 1.491 . S
C1773 C1772 1.400 . S
C1773 C1774 1.398 . S
C1774 H1762 0.950 . S
C1774 C1773 1.398 . S
C1774 C1775 1.391 . S
C1775 H1763 0.950 . S
C1775 C1771 1.393 . S
C1775 C1774 1.391 . S
H1776 C1784 0.950 . S
H1777 C1789 0.950 . S
H1778 C1786 0.950 . S
H1779 C1788 0.941 1_554 S
H1780 C1790 0.950 . S
H1781 C1792 0.950 . S
H1782 C1794 0.950 . S
H1783 C1795 0.950 . S
C1784 H1776 0.950 . S
C1784 C1785 1.386 . S
C1784 C1786 1.391 . S
C1785 C1784 1.386 . S
C1785 C1789 1.393 1_556 S
C1786 H1778 0.950 . S
C1786 C1784 1.391 . S
C1786 C1787 1.400 . S
C1787 C1786 1.400 . S
C1787 C1788 1.413 . S
C1787 C1793 1.491 . S
C1788 H1779 0.941 1_556 S
C1788 C1787 1.413 . S
C1788 C1789 1.384 1_556 S
C1789 H1777 0.950 . S
C1789 C1785 1.393 1_554 S
C1789 C1788 1.384 1_554 S
C1790 H1780 0.950 . S
C1790 C1791 1.386 . S
C1790 C1792 1.391 . S
C1791 C1790 1.386 . S
C1791 C1795 1.393 . S
C1792 H1781 0.950 . S
C1792 C1790 1.391 . S
C1792 C1793 1.400 . S
C1793 C1787 1.491 . S
C1793 C1792 1.400 . S
C1793 C1794 1.398 . S
C1794 H1782 0.950 . S
C1794 C1793 1.398 . S
C1794 C1795 1.391 . S
C1795 H1783 0.950 . S
C1795 C1791 1.393 . S
C1795 C1794 1.391 . S
H1796 C1804 0.950 . S
H1797 C1809 0.950 . S
H1798 C1806 0.939 1_556 S
H1799 C1808 0.950 . S
H1800 C1810 0.950 . S
H1801 C1812 0.950 . S
H1802 C1814 0.950 1_556 S
H1803 C1815 0.950 1_556 S
C1804 H1796 0.950 . S
C1804 C1805 1.386 . S
C1804 C1806 1.391 . S
C1805 C1804 1.386 . S
C1805 C1809 1.393 . S
C1806 H1798 0.939 1_554 S
C1806 C1804 1.391 . S
C1806 C1807 1.400 . S
C1807 C1806 1.400 . S
C1807 C1808 1.398 . S
C1807 C1813 1.491 . S
C1808 H1799 0.950 . S
C1808 C1807 1.398 . S
C1808 C1809 1.391 . S
C1809 H1797 0.950 . S
C1809 C1805 1.393 . S
C1809 C1808 1.391 . S
C1810 H1800 0.950 . S
C1810 C1811 1.386 . S
C1810 C1812 1.391 . S
C1811 C1810 1.386 . S
C1811 C1815 1.393 . S
C1812 H1801 0.950 . S
C1812 C1810 1.391 . S
C1812 C1813 1.400 . S
C1813 C1807 1.491 . S
C1813 C1812 1.400 . S
C1813 C1814 1.398 . S
C1814 H1802 0.950 1_554 S
C1814 C1813 1.398 . S
C1814 C1815 1.391 . S
C1815 H1803 0.950 1_554 S
C1815 C1811 1.393 . S
C1815 C1814 1.391 . S
H1816 C1824 0.950 . S
H1817 C1829 0.950 . S
H1818 C1826 0.950 . S
H1819 C1828 0.950 . S
H1820 C1830 0.950 . S
H1821 C1832 0.950 . S
H1822 C1834 0.950 . S
H1823 C1835 0.950 . S
C1824 H1816 0.950 . S
C1824 C1825 1.386 . S
C1824 C1826 1.391 . S
C1825 C1824 1.386 . S
C1825 C1829 1.393 . S
C1826 H1818 0.950 . S
C1826 C1824 1.391 . S
C1826 C1827 1.400 . S
C1827 C1826 1.400 . S
C1827 C1828 1.398 . S
C1827 C1833 1.491 . S
C1828 H1819 0.950 . S
C1828 C1827 1.398 . S
C1828 C1829 1.391 . S
C1829 H1817 0.950 . S
C1829 C1825 1.393 . S
C1829 C1828 1.391 . S
C1830 H1820 0.950 . S
C1830 C1831 1.386 . S
C1830 C1832 1.391 . S
C1831 C1830 1.386 . S
C1831 C1835 1.393 . S
C1832 H1821 0.950 . S
C1832 C1830 1.391 . S
C1832 C1833 1.400 . S
C1833 C1827 1.491 . S
C1833 C1832 1.400 . S
C1833 C1834 1.398 . S
C1834 H1822 0.950 . S
C1834 C1833 1.398 . S
C1834 C1835 1.391 . S
C1835 H1823 0.950 . S
C1835 C1831 1.393 . S
C1835 C1834 1.391 . S
H1836 C1844 0.950 . S
H1837 C1849 0.950 . S
H1838 C1846 0.950 . S
H1839 C1848 0.950 . S
H1840 C1850 0.950 . S
H1841 C1852 0.950 . S
H1842 C1854 0.950 . S
H1843 C1855 0.950 . S
C1844 H1836 0.950 . S
C1844 C1845 1.386 . S
C1844 C1846 1.391 . S
C1845 C1844 1.386 . S
C1845 C1849 1.393 . S
C1846 H1838 0.950 . S
C1846 C1844 1.391 . S
C1846 C1847 1.400 . S
C1847 C1846 1.400 . S
C1847 C1848 1.398 . S
C1847 C1853 1.491 . S
C1848 H1839 0.950 . S
C1848 C1847 1.398 . S
C1848 C1849 1.391 . S
C1849 H1837 0.950 . S
C1849 C1845 1.393 . S
C1849 C1848 1.391 . S
C1850 H1840 0.950 . S
C1850 C1851 1.386 . S
C1850 C1852 1.391 . S
C1851 C1850 1.386 . S
C1851 C1855 1.393 . S
C1852 H1841 0.950 . S
C1852 C1850 1.391 . S
C1852 C1853 1.400 . S
C1853 C1847 1.491 . S
C1853 C1852 1.400 . S
C1853 C1854 1.398 . S
C1854 H1842 0.950 . S
C1854 C1853 1.398 . S
C1854 C1855 1.391 . S
C1855 H1843 0.950 . S
C1855 C1851 1.393 . S
C1855 C1854 1.391 . S
H1856 C1864 0.950 . S
H1857 C1869 0.950 . S
H1858 C1866 0.950 . S
H1859 C1868 0.950 . S
H1860 C1870 0.950 . S
H1861 C1872 0.950 . S
H1862 C1874 0.950 . S
H1863 C1875 0.950 . S
C1864 H1856 0.950 . S
C1864 C1865 1.386 . S
C1864 C1866 1.391 . S
C1865 C1864 1.386 . S
C1865 C1869 1.393 . S
C1866 H1858 0.950 . S
C1866 C1864 1.391 . S
C1866 C1867 1.400 . S
C1867 C1866 1.400 . S
C1867 C1868 1.398 . S
C1867 C1873 1.491 . S
C1868 H1859 0.950 . S
C1868 C1867 1.398 . S
C1868 C1869 1.391 . S
C1869 H1857 0.950 . S
C1869 C1865 1.393 . S
C1869 C1868 1.391 . S
C1870 H1860 0.950 . S
C1870 C1871 1.386 . S
C1870 C1872 1.391 . S
C1871 C1870 1.386 . S
C1871 C1875 1.393 . S
C1872 H1861 0.950 . S
C1872 C1870 1.391 . S
C1872 C1873 1.400 . S
C1873 C1867 1.491 . S
C1873 C1872 1.400 . S
C1873 C1874 1.398 . S
C1874 H1862 0.950 . S
C1874 C1873 1.398 . S
C1874 C1875 1.391 . S
C1875 H1863 0.950 . S
C1875 C1871 1.393 . S
C1875 C1874 1.391 . S
H1876 C1884 0.950 . S
H1877 C1889 0.950 . S
H1878 C1886 0.950 . S
H1879 C1888 0.950 . S
H1880 C1890 0.950 . S
H1881 C1892 0.950 . S
H1882 C1894 0.950 . S
H1883 C1895 0.950 . S
C1884 H1876 0.950 . S
C1884 C1885 1.386 . S
C1884 C1886 1.391 . S
C1885 C1884 1.386 . S
C1885 C1889 1.393 . S
C1886 H1878 0.950 . S
C1886 C1884 1.391 . S
C1886 C1887 1.400 . S
C1887 C1886 1.400 . S
C1887 C1888 1.398 . S
C1887 C1893 1.491 . S
C1888 H1879 0.950 . S
C1888 C1887 1.398 . S
C1888 C1889 1.391 . S
C1889 H1877 0.950 . S
C1889 C1885 1.393 . S
C1889 C1888 1.391 . S
C1890 H1880 0.950 . S
C1890 C1891 1.386 . S
C1890 C1892 1.391 1_545 S
C1891 C1890 1.386 . S
C1891 C1895 1.393 . S
C1892 H1881 0.950 . S
C1892 C1890 1.391 1_565 S
C1892 C1893 1.400 . S
C1893 C1887 1.491 . S
C1893 C1892 1.400 . S
C1893 C1894 1.398 1_565 S
C1894 H1882 0.950 . S
C1894 C1893 1.398 1_545 S
C1894 C1895 1.391 . S
C1895 H1883 0.950 . S
C1895 C1891 1.393 . S
C1895 C1894 1.391 . S
H1896 C1904 0.950 . S
H1897 C1909 0.950 . S
H1898 C1906 0.950 . S
H1899 C1908 0.950 . S
H1900 C1910 0.950 . S
H1901 C1912 0.950 . S
H1902 C1914 0.950 . S
H1903 C1915 0.950 . S
C1904 H1896 0.950 . S
C1904 C1905 1.386 . S
C1904 C1906 1.391 . S
C1905 C1904 1.386 . S
C1905 C1909 1.393 . S
C1906 H1898 0.950 . S
C1906 C1904 1.391 . S
C1906 C1907 1.400 . S
C1907 C1906 1.400 . S
C1907 C1908 1.398 . S
C1907 C1913 1.491 . S
C1908 H1899 0.950 . S
C1908 C1907 1.398 . S
C1908 C1909 1.391 . S
C1909 H1897 0.950 . S
C1909 C1905 1.393 . S
C1909 C1908 1.391 . S
C1910 H1900 0.950 . S
C1910 C1911 1.386 . S
C1910 C1912 1.391 . S
C1911 C1910 1.386 . S
C1911 C1915 1.393 . S
C1912 H1901 0.950 . S
C1912 C1910 1.391 . S
C1912 C1913 1.400 . S
C1913 C1907 1.491 . S
C1913 C1912 1.400 . S
C1913 C1914 1.398 . S
C1914 H1902 0.950 . S
C1914 C1913 1.398 . S
C1914 C1915 1.391 . S
C1915 H1903 0.950 . S
C1915 C1911 1.393 . S
C1915 C1914 1.391 . S
H1916 C1924 0.950 . S
H1917 C1929 0.950 . S
H1918 C1926 0.950 . S
H1919 C1928 0.950 . S
H1920 C1930 0.950 . S
H1921 C1932 0.950 . S
H1922 C1934 0.950 . S
H1923 C1935 0.950 . S
C1924 H1916 0.950 . S
C1924 C1925 1.386 . S
C1924 C1926 1.391 . S
C1925 C1924 1.386 . S
C1925 C1929 1.393 . S
C1926 H1918 0.950 . S
C1926 C1924 1.391 . S
C1926 C1927 1.400 . S
C1927 C1926 1.400 . S
C1927 C1928 1.398 . S
C1927 C1933 1.491 . S
C1928 H1919 0.950 . S
C1928 C1927 1.398 . S
C1928 C1929 1.391 . S
C1929 H1917 0.950 . S
C1929 C1925 1.393 . S
C1929 C1928 1.391 . S
C1930 H1920 0.950 . S
C1930 C1931 1.386 . S
C1930 C1932 1.391 . S
C1931 C1930 1.386 . S
C1931 C1935 1.393 . S
C1932 H1921 0.950 . S
C1932 C1930 1.391 . S
C1932 C1933 1.400 . S
C1933 C1927 1.491 . S
C1933 C1932 1.400 . S
C1933 C1934 1.398 . S
C1934 H1922 0.950 . S
C1934 C1933 1.398 . S
C1934 C1935 1.391 . S
C1935 H1923 0.950 . S
C1935 C1931 1.393 . S
C1935 C1934 1.391 . S
H1936 C1944 0.950 . S
H1937 C1949 0.950 . S
H1938 C1946 0.950 . S
H1939 C1948 0.950 . S
H1940 C1950 0.950 . S
H1941 C1952 0.950 . S
H1942 C1954 0.950 . S
H1943 C1955 0.950 . S
C1944 H1936 0.950 . S
C1944 C1945 1.386 . S
C1944 C1946 1.391 . S
C1945 C1944 1.386 . S
C1945 C1949 1.393 . S
C1946 H1938 0.950 . S
C1946 C1944 1.391 . S
C1946 C1947 1.400 . S
C1947 C1946 1.400 . S
C1947 C1948 1.398 . S
C1947 C1953 1.491 . S
C1948 H1939 0.950 . S
C1948 C1947 1.398 . S
C1948 C1949 1.391 . S
C1949 H1937 0.950 . S
C1949 C1945 1.393 . S
C1949 C1948 1.391 . S
C1950 H1940 0.950 . S
C1950 C1951 1.386 . S
C1950 C1952 1.391 . S
C1951 C1950 1.386 . S
C1951 C1955 1.393 . S
C1952 H1941 0.950 . S
C1952 C1950 1.391 . S
C1952 C1953 1.400 . S
C1953 C1947 1.491 . S
C1953 C1952 1.400 . S
C1953 C1954 1.398 . S
C1954 H1942 0.950 . S
C1954 C1953 1.398 . S
C1954 C1955 1.391 . S
C1955 H1943 0.950 . S
C1955 C1951 1.393 . S
C1955 C1954 1.391 . S
H1956 C1964 0.950 . S
H1957 C1969 0.950 . S
H1958 C1966 0.950 . S
H1959 C1968 0.950 . S
H1960 C1970 0.950 . S
H1961 C1972 0.950 . S
H1962 C1974 0.950 . S
H1963 C1975 0.950 . S
C1964 H1956 0.950 . S
C1964 C1965 1.386 . S
C1964 C1966 1.391 . S
C1965 C1964 1.386 . S
C1965 C1969 1.393 . S
C1966 H1958 0.950 . S
C1966 C1964 1.391 . S
C1966 C1967 1.400 . S
C1967 C1966 1.400 . S
C1967 C1968 1.398 . S
C1967 C1973 1.491 . S
C1968 H1959 0.950 . S
C1968 C1967 1.398 . S
C1968 C1969 1.391 . S
C1969 H1957 0.950 . S
C1969 C1965 1.393 . S
C1969 C1968 1.391 . S
C1970 H1960 0.950 . S
C1970 C1971 1.386 . S
C1970 C1972 1.391 . S
C1971 C1970 1.386 . S
C1971 C1975 1.393 . S
C1972 H1961 0.950 . S
C1972 C1970 1.391 . S
C1972 C1973 1.400 . S
C1973 C1967 1.491 . S
C1973 C1972 1.400 . S
C1973 C1974 1.398 . S
C1974 H1962 0.950 . S
C1974 C1973 1.398 . S
C1974 C1975 1.391 . S
C1975 H1963 0.950 . S
C1975 C1971 1.393 . S
C1975 C1974 1.391 . S
H1976 C1984 0.950 . S
H1977 C1989 0.950 . S
H1978 C1986 0.950 . S
H1979 C1988 0.950 . S
H1980 C1990 0.950 . S
H1981 C1992 0.950 1_554 S
H1982 C1994 0.950 . S
H1983 C1995 0.950 . S
C1984 H1976 0.950 . S
C1984 C1985 1.386 . S
C1984 C1986 1.391 . S
C1985 C1984 1.386 . S
C1985 C1989 1.393 . S
C1986 H1978 0.950 . S
C1986 C1984 1.391 . S
C1986 C1987 1.400 . S
C1987 C1986 1.400 . S
C1987 C1988 1.398 . S
C1987 C1993 1.491 . S
C1988 H1979 0.950 . S
C1988 C1987 1.398 . S
C1988 C1989 1.391 . S
C1989 H1977 0.950 . S
C1989 C1985 1.393 . S
C1989 C1988 1.391 . S
C1990 H1980 0.950 . S
C1990 C1991 1.386 1_554 S
C1990 C1992 1.391 1_554 S
C1991 C1990 1.386 1_556 S
C1991 C1995 1.393 . S
C1992 H1981 0.950 1_556 S
C1992 C1990 1.391 1_556 S
C1992 C1993 1.400 . S
C1993 C1987 1.491 . S
C1993 C1992 1.400 . S
C1993 C1994 1.398 . S
C1994 H1982 0.950 . S
C1994 C1993 1.398 . S
C1994 C1995 1.391 . S
C1995 H1983 0.950 . S
C1995 C1991 1.393 . S
C1995 C1994 1.391 . S
H1996 C2004 0.950 . S
H1997 C2009 0.950 . S
H1998 C2006 0.950 . S
H1999 C2008 0.950 . S
H2000 C2010 0.950 . S
H2001 C2012 0.950 . S
H2002 C2014 0.950 . S
H2003 C2015 0.950 . S
C2004 H1996 0.950 . S
C2004 C2005 1.386 . S
C2004 C2006 1.391 1_455 S
C2005 C2004 1.386 . S
C2005 C2009 1.393 . S
C2006 H1998 0.950 . S
C2006 C2004 1.391 1_655 S
C2006 C2007 1.400 . S
C2007 C2006 1.400 . S
C2007 C2008 1.398 1_655 S
C2007 C2013 1.491 . S
C2008 H1999 0.950 . S
C2008 C2007 1.398 1_455 S
C2008 C2009 1.391 . S
C2009 H1997 0.950 . S
C2009 C2005 1.393 . S
C2009 C2008 1.391 . S
C2010 H2000 0.950 . S
C2010 C2011 1.386 . S
C2010 C2012 1.391 . S
C2011 C2010 1.386 . S
C2011 C2015 1.393 . S
C2012 H2001 0.950 . S
C2012 C2010 1.391 . S
C2012 C2013 1.400 . S
C2013 C2007 1.491 . S
C2013 C2012 1.400 . S
C2013 C2014 1.398 . S
C2014 H2002 0.950 . S
C2014 C2013 1.398 . S
C2014 C2015 1.391 . S
C2015 H2003 0.950 . S
C2015 C2011 1.393 . S
C2015 C2014 1.391 . S
H2016 C2024 0.950 . S
H2017 C2029 0.950 . S
H2018 C2026 0.950 . S
H2019 C2028 0.950 . S
H2020 C2030 0.950 . S
H2021 C2032 0.950 . S
H2022 C2034 0.950 . S
H2023 C2035 0.950 . S
C2024 H2016 0.950 . S
C2024 C2025 1.386 . S
C2024 C2026 1.391 . S
C2025 C2024 1.386 . S
C2025 C2029 1.393 . S
C2026 H2018 0.950 . S
C2026 C2024 1.391 . S
C2026 C2027 1.400 . S
C2027 C2026 1.400 . S
C2027 C2028 1.398 . S
C2027 C2033 1.491 . S
C2028 H2019 0.950 . S
C2028 C2027 1.398 . S
C2028 C2029 1.391 . S
C2029 H2017 0.950 . S
C2029 C2025 1.393 . S
C2029 C2028 1.391 . S
C2030 H2020 0.950 . S
C2030 C2031 1.386 . S
C2030 C2032 1.391 . S
C2031 C2030 1.386 . S
C2031 C2035 1.393 . S
C2032 H2021 0.950 . S
C2032 C2030 1.391 . S
C2032 C2033 1.400 . S
C2033 C2027 1.491 . S
C2033 C2032 1.400 . S
C2033 C2034 1.398 . S
C2034 H2022 0.950 . S
C2034 C2033 1.398 . S
C2034 C2035 1.391 . S
C2035 H2023 0.950 . S
C2035 C2031 1.393 . S
C2035 C2034 1.391 . S
H2036 C2044 0.950 . S
H2037 C2049 0.950 . S
H2038 C2046 0.950 . S
H2039 C2048 0.950 . S
H2040 C2050 0.950 . S
H2041 C2052 0.950 . S
H2042 C2054 0.950 . S
H2043 C2055 0.950 . S
C2044 H2036 0.950 . S
C2044 C2045 1.386 . S
C2044 C2046 1.391 . S
C2045 C2044 1.386 . S
C2045 C2049 1.393 . S
C2046 H2038 0.950 . S
C2046 C2044 1.391 . S
C2046 C2047 1.400 . S
C2047 C2046 1.400 . S
C2047 C2048 1.398 . S
C2047 C2053 1.491 . S
C2048 H2039 0.950 . S
C2048 C2047 1.398 . S
C2048 C2049 1.391 . S
C2049 H2037 0.950 . S
C2049 C2045 1.393 . S
C2049 C2048 1.391 . S
C2050 H2040 0.950 . S
C2050 C2051 1.386 . S
C2050 C2052 1.391 . S
C2051 C2050 1.386 . S
C2051 C2055 1.393 . S
C2052 H2041 0.950 . S
C2052 C2050 1.391 . S
C2052 C2053 1.400 . S
C2053 C2047 1.491 . S
C2053 C2052 1.400 . S
C2053 C2054 1.398 . S
C2054 H2042 0.950 . S
C2054 C2053 1.398 . S
C2054 C2055 1.391 . S
C2055 H2043 0.950 . S
C2055 C2051 1.393 . S
C2055 C2054 1.391 . S
H2056 C2064 0.950 . S
H2057 C2069 0.950 . S
H2058 C2066 0.950 . S
H2059 C2068 0.950 . S
H2060 C2070 0.950 . S
H2061 C2072 0.950 . S
H2062 C2074 0.950 . S
H2063 C2075 0.950 . S
C2064 H2056 0.950 . S
C2064 C2065 1.386 . S
C2064 C2066 1.391 . S
C2065 C2064 1.386 . S
C2065 C2069 1.393 . S
C2066 H2058 0.950 . S
C2066 C2064 1.391 . S
C2066 C2067 1.400 . S
C2067 C2066 1.400 . S
C2067 C2068 1.398 . S
C2067 C2073 1.491 . S
C2068 H2059 0.950 . S
C2068 C2067 1.398 . S
C2068 C2069 1.391 . S
C2069 H2057 0.950 . S
C2069 C2065 1.393 . S
C2069 C2068 1.391 . S
C2070 H2060 0.950 . S
C2070 C2071 1.386 . S
C2070 C2072 1.391 . S
C2071 C2070 1.386 . S
C2071 C2075 1.393 . S
C2072 H2061 0.950 . S
C2072 C2070 1.391 . S
C2072 C2073 1.400 . S
C2073 C2067 1.491 . S
C2073 C2072 1.400 . S
C2073 C2074 1.398 . S
C2074 H2062 0.950 . S
C2074 C2073 1.398 . S
C2074 C2075 1.391 . S
C2075 H2063 0.950 . S
C2075 C2071 1.393 . S
C2075 C2074 1.391 . S
H2076 C2084 0.950 . S
H2077 C2089 0.950 . S
H2078 C2086 0.950 . S
H2079 C2088 0.950 . S
H2080 C2090 0.950 . S
H2081 C2092 0.950 . S
H2082 C2094 0.950 . S
H2083 C2095 0.950 . S
C2084 H2076 0.950 . S
C2084 C2085 1.386 . S
C2084 C2086 1.391 . S
C2085 C2084 1.386 . S
C2085 C2089 1.393 . S
C2086 H2078 0.950 . S
C2086 C2084 1.391 . S
C2086 C2087 1.400 . S
C2087 C2086 1.400 . S
C2087 C2088 1.398 . S
C2087 C2093 1.491 . S
C2088 H2079 0.950 . S
C2088 C2087 1.398 . S
C2088 C2089 1.391 . S
C2089 H2077 0.950 . S
C2089 C2085 1.393 . S
C2089 C2088 1.391 . S
C2090 H2080 0.950 . S
C2090 C2091 1.386 . S
C2090 C2092 1.391 . S
C2091 C2090 1.386 . S
C2091 C2095 1.393 . S
C2092 H2081 0.950 . S
C2092 C2090 1.391 . S
C2092 C2093 1.400 . S
C2093 C2087 1.491 . S
C2093 C2092 1.400 . S
C2093 C2094 1.398 . S
C2094 H2082 0.950 . S
C2094 C2093 1.398 . S
C2094 C2095 1.391 . S
C2095 H2083 0.950 . S
C2095 C2091 1.393 . S
C2095 C2094 1.391 . S
H2096 C2104 0.950 . S
H2097 C2109 0.950 . S
H2098 C2106 0.950 . S
H2099 C2108 0.950 . S
H2100 C2110 0.950 . S
H2101 C2112 0.950 . S
H2102 C2114 0.950 . S
H2103 C2115 0.950 . S
C2104 H2096 0.950 . S
C2104 C2105 1.386 . S
C2104 C2106 1.391 . S
C2105 C2104 1.386 . S
C2105 C2109 1.393 . S
C2106 H2098 0.950 . S
C2106 C2104 1.391 . S
C2106 C2107 1.400 . S
C2107 C2106 1.400 . S
C2107 C2108 1.398 . S
C2107 C2113 1.491 . S
C2108 H2099 0.950 . S
C2108 C2107 1.398 . S
C2108 C2109 1.391 . S
C2109 H2097 0.950 . S
C2109 C2105 1.393 . S
C2109 C2108 1.391 . S
C2110 H2100 0.950 . S
C2110 C2111 1.386 . S
C2110 C2112 1.391 . S
C2111 C2110 1.386 . S
C2111 C2115 1.393 . S
C2112 H2101 0.950 . S
C2112 C2110 1.391 . S
C2112 C2113 1.400 . S
C2113 C2107 1.491 . S
C2113 C2112 1.400 . S
C2113 C2114 1.398 . S
C2114 H2102 0.950 . S
C2114 C2113 1.398 . S
C2114 C2115 1.391 . S
C2115 H2103 0.950 . S
C2115 C2111 1.393 . S
C2115 C2114 1.391 . S
H2116 C2124 0.950 . S
H2117 C2129 0.950 . S
H2118 C2126 0.950 . S
H2119 C2128 0.950 . S
H2120 C2130 0.950 . S
H2121 C2132 0.950 . S
H2122 C2134 0.950 . S
H2123 C2135 0.950 . S
C2124 H2116 0.950 . S
C2124 C2125 1.386 . S
C2124 C2126 1.391 . S
C2125 C2124 1.386 . S
C2125 C2129 1.393 . S
C2126 H2118 0.950 . S
C2126 C2124 1.391 . S
C2126 C2127 1.400 . S
C2127 C2126 1.400 . S
C2127 C2128 1.398 . S
C2127 C2133 1.491 . S
C2128 H2119 0.950 . S
C2128 C2127 1.398 . S
C2128 C2129 1.391 . S
C2129 H2117 0.950 . S
C2129 C2125 1.393 . S
C2129 C2128 1.391 . S
C2130 H2120 0.950 . S
C2130 C2131 1.386 . S
C2130 C2132 1.391 . S
C2131 C2130 1.386 . S
C2131 C2135 1.393 . S
C2132 H2121 0.950 . S
C2132 C2130 1.391 . S
C2132 C2133 1.400 . S
C2133 C2127 1.491 . S
C2133 C2132 1.400 . S
C2133 C2134 1.398 . S
C2134 H2122 0.950 . S
C2134 C2133 1.398 . S
C2134 C2135 1.391 . S
C2135 H2123 0.950 . S
C2135 C2131 1.393 . S
C2135 C2134 1.391 . S
H2136 C2144 0.950 . S
H2137 C2149 0.950 . S
H2138 C2146 0.950 . S
H2139 C2148 0.950 . S
H2140 C2150 0.950 . S
H2141 C2152 0.950 . S
H2142 C2154 0.950 . S
H2143 C2155 0.950 . S
C2144 H2136 0.950 . S
C2144 C2145 1.386 . S
C2144 C2146 1.391 . S
C2145 C2144 1.386 . S
C2145 C2149 1.393 . S
C2146 H2138 0.950 . S
C2146 C2144 1.391 . S
C2146 C2147 1.400 . S
C2147 C2146 1.400 . S
C2147 C2148 1.398 . S
C2147 C2153 1.491 . S
C2148 H2139 0.950 . S
C2148 C2147 1.398 . S
C2148 C2149 1.391 . S
C2149 H2137 0.950 . S
C2149 C2145 1.393 . S
C2149 C2148 1.391 . S
C2150 H2140 0.950 . S
C2150 C2151 1.386 . S
C2150 C2152 1.391 . S
C2151 C2150 1.386 . S
C2151 C2155 1.393 . S
C2152 H2141 0.950 . S
C2152 C2150 1.391 . S
C2152 C2153 1.400 . S
C2153 C2147 1.491 . S
C2153 C2152 1.400 . S
C2153 C2154 1.398 . S
C2154 H2142 0.950 . S
C2154 C2153 1.398 . S
C2154 C2155 1.391 . S
C2155 H2143 0.950 . S
C2155 C2151 1.393 . S
C2155 C2154 1.391 . S
H2156 C2164 0.950 . S
H2157 C2169 0.950 . S
H2158 C2166 0.950 . S
H2159 C2168 0.950 . S
H2160 C2170 0.950 . S
H2161 C2172 0.950 . S
H2162 C2174 0.950 . S
H2163 C2175 0.950 . S
C2164 H2156 0.950 . S
C2164 C2165 1.386 . S
C2164 C2166 1.391 . S
C2165 C2164 1.386 . S
C2165 C2169 1.393 . S
C2166 H2158 0.950 . S
C2166 C2164 1.391 . S
C2166 C2167 1.400 . S
C2167 C2166 1.400 . S
C2167 C2168 1.398 . S
C2167 C2173 1.491 . S
C2168 H2159 0.950 . S
C2168 C2167 1.398 . S
C2168 C2169 1.391 . S
C2169 H2157 0.950 . S
C2169 C2165 1.393 . S
C2169 C2168 1.391 . S
C2170 H2160 0.950 . S
C2170 C2171 1.386 . S
C2170 C2172 1.391 . S
C2171 C2170 1.386 . S
C2171 C2175 1.393 . S
C2172 H2161 0.950 . S
C2172 C2170 1.391 . S
C2172 C2173 1.400 . S
C2173 C2167 1.491 . S
C2173 C2172 1.400 . S
C2173 C2174 1.398 . S
C2174 H2162 0.950 . S
C2174 C2173 1.398 . S
C2174 C2175 1.391 . S
C2175 H2163 0.950 . S
C2175 C2171 1.393 . S
C2175 C2174 1.391 . S
H2176 C2184 0.950 . S
H2177 C2189 0.950 . S
H2178 C2186 0.950 . S
H2179 C2188 0.950 . S
H2180 C2190 0.950 . S
H2181 C2192 0.950 . S
H2182 C2194 0.950 . S
H2183 C2195 0.950 . S
C2184 H2176 0.950 . S
C2184 C2185 1.386 . S
C2184 C2186 1.391 . S
C2185 C2184 1.386 . S
C2185 C2189 1.393 . S
C2186 H2178 0.950 . S
C2186 C2184 1.391 . S
C2186 C2187 1.400 . S
C2187 C2186 1.400 . S
C2187 C2188 1.398 . S
C2187 C2193 1.491 . S
C2188 H2179 0.950 . S
C2188 C2187 1.398 . S
C2188 C2189 1.391 . S
C2189 H2177 0.950 . S
C2189 C2185 1.393 . S
C2189 C2188 1.391 . S
C2190 H2180 0.950 . S
C2190 C2191 1.386 . S
C2190 C2192 1.391 . S
C2191 C2190 1.386 . S
C2191 C2195 1.393 . S
C2192 H2181 0.950 . S
C2192 C2190 1.391 . S
C2192 C2193 1.400 . S
C2193 C2187 1.491 . S
C2193 C2192 1.400 . S
C2193 C2194 1.398 . S
C2194 H2182 0.950 . S
C2194 C2193 1.398 . S
C2194 C2195 1.391 . S
C2195 H2183 0.950 . S
C2195 C2191 1.393 . S
C2195 C2194 1.391 . S
H2196 C2204 0.950 . S
H2197 C2209 0.950 . S
H2198 C2206 0.950 . S
H2199 C2208 0.950 . S
H2200 C2210 0.950 . S
H2201 C2212 0.950 . S
H2202 C2214 0.950 . S
H2203 C2215 0.950 . S
C2204 H2196 0.950 . S
C2204 C2205 1.386 . S
C2204 C2206 1.391 . S
C2205 C2204 1.386 . S
C2205 C2209 1.393 . S
C2206 H2198 0.950 . S
C2206 C2204 1.391 . S
C2206 C2207 1.400 . S
C2207 C2206 1.400 . S
C2207 C2208 1.398 . S
C2207 C2213 1.491 . S
C2208 H2199 0.950 . S
C2208 C2207 1.398 . S
C2208 C2209 1.391 . S
C2209 H2197 0.950 . S
C2209 C2205 1.393 . S
C2209 C2208 1.391 . S
C2210 H2200 0.950 . S
C2210 C2211 1.386 . S
C2210 C2212 1.391 . S
C2211 C2210 1.386 . S
C2211 C2215 1.393 . S
C2212 H2201 0.950 . S
C2212 C2210 1.391 . S
C2212 C2213 1.400 . S
C2213 C2207 1.491 . S
C2213 C2212 1.400 . S
C2213 C2214 1.398 . S
C2214 H2202 0.950 . S
C2214 C2213 1.398 . S
C2214 C2215 1.391 . S
C2215 H2203 0.950 . S
C2215 C2211 1.393 . S
C2215 C2214 1.391 . S
H2216 C2224 0.950 . S
H2217 C2229 0.950 . S
H2218 C2226 0.950 . S
H2219 C2228 0.950 . S
H2220 C2230 0.950 . S
H2221 C2232 0.950 . S
H2222 C2234 0.950 . S
H2223 C2235 0.950 . S
C2224 H2216 0.950 . S
C2224 C2225 1.386 . S
C2224 C2226 1.391 . S
C2225 C2224 1.386 . S
C2225 C2229 1.393 . S
C2226 H2218 0.950 . S
C2226 C2224 1.391 . S
C2226 C2227 1.400 . S
C2227 C2226 1.400 . S
C2227 C2228 1.398 . S
C2227 C2233 1.491 . S
C2228 H2219 0.950 . S
C2228 C2227 1.398 . S
C2228 C2229 1.391 . S
C2229 H2217 0.950 . S
C2229 C2225 1.393 . S
C2229 C2228 1.391 . S
C2230 H2220 0.950 . S
C2230 C2231 1.386 . S
C2230 C2232 1.391 . S
C2231 C2230 1.386 . S
C2231 C2235 1.393 . S
C2232 H2221 0.950 . S
C2232 C2230 1.391 . S
C2232 C2233 1.400 . S
C2233 C2227 1.491 . S
C2233 C2232 1.400 . S
C2233 C2234 1.398 . S
C2234 H2222 0.950 . S
C2234 C2233 1.398 . S
C2234 C2235 1.391 . S
C2235 H2223 0.950 . S
C2235 C2231 1.393 . S
C2235 C2234 1.391 . S
H2236 C2244 0.950 . S
H2237 C2249 0.950 . S
H2238 C2246 0.950 . S
H2239 C2248 0.950 . S
H2240 C2250 0.950 . S
H2241 C2252 0.950 . S
H2242 C2254 0.950 . S
H2243 C2255 0.950 . S
C2244 H2236 0.950 . S
C2244 C2245 1.386 . S
C2244 C2246 1.391 . S
C2245 C2244 1.386 . S
C2245 C2249 1.393 . S
C2246 H2238 0.950 . S
C2246 C2244 1.391 . S
C2246 C2247 1.400 . S
C2247 C2246 1.400 . S
C2247 C2248 1.398 . S
C2247 C2253 1.491 . S
C2248 H2239 0.950 . S
C2248 C2247 1.398 . S
C2248 C2249 1.391 . S
C2249 H2237 0.950 . S
C2249 C2245 1.393 . S
C2249 C2248 1.391 . S
C2250 H2240 0.950 . S
C2250 C2251 1.386 . S
C2250 C2252 1.391 . S
C2251 C2250 1.386 . S
C2251 C2255 1.393 . S
C2252 H2241 0.950 . S
C2252 C2250 1.391 . S
C2252 C2253 1.400 . S
C2253 C2247 1.491 . S
C2253 C2252 1.400 . S
C2253 C2254 1.398 . S
C2254 H2242 0.950 . S
C2254 C2253 1.398 . S
C2254 C2255 1.391 . S
C2255 H2243 0.950 . S
C2255 C2251 1.393 . S
C2255 C2254 1.391 . S
H2256 C2264 0.950 . S
H2257 C2269 0.950 . S
H2258 C2266 0.950 . S
H2259 C2268 0.950 . S
H2260 C2270 0.950 . S
H2261 C2272 0.950 . S
H2262 C2274 0.950 . S
H2263 C2275 0.950 . S
C2264 H2256 0.950 . S
C2264 C2265 1.386 . S
C2264 C2266 1.391 . S
C2265 C2264 1.386 . S
C2265 C2269 1.393 . S
C2266 H2258 0.950 . S
C2266 C2264 1.391 . S
C2266 C2267 1.400 . S
C2267 C2266 1.400 . S
C2267 C2268 1.398 . S
C2267 C2273 1.491 . S
C2268 H2259 0.950 . S
C2268 C2267 1.398 . S
C2268 C2269 1.391 . S
C2269 H2257 0.950 . S
C2269 C2265 1.393 . S
C2269 C2268 1.391 . S
C2270 H2260 0.950 . S
C2270 C2271 1.386 . S
C2270 C2272 1.391 . S
C2271 C2270 1.386 . S
C2271 C2275 1.393 . S
C2272 H2261 0.950 . S
C2272 C2270 1.391 . S
C2272 C2273 1.400 . S
C2273 C2267 1.491 . S
C2273 C2272 1.400 . S
C2273 C2274 1.398 . S
C2274 H2262 0.950 . S
C2274 C2273 1.398 . S
C2274 C2275 1.391 . S
C2275 H2263 0.950 . S
C2275 C2271 1.393 . S
C2275 C2274 1.391 . S
H2276 C2284 0.950 . S
H2277 C2289 0.950 . S
H2278 C2286 0.950 . S
H2279 C2288 0.950 . S
H2280 C2290 0.950 . S
H2281 C2292 0.950 . S
H2282 C2294 0.950 . S
H2283 C2295 0.950 . S
C2284 H2276 0.950 . S
C2284 C2285 1.386 . S
C2284 C2286 1.391 . S
C2285 C2284 1.386 . S
C2285 C2289 1.393 . S
C2286 H2278 0.950 . S
C2286 C2284 1.391 . S
C2286 C2287 1.400 . S
C2287 C2286 1.400 . S
C2287 C2288 1.398 . S
C2287 C2293 1.491 . S
C2288 H2279 0.950 . S
C2288 C2287 1.398 . S
C2288 C2289 1.391 . S
C2289 H2277 0.950 . S
C2289 C2285 1.393 . S
C2289 C2288 1.391 . S
C2290 H2280 0.950 . S
C2290 C2291 1.386 . S
C2290 C2292 1.391 . S
C2291 C2290 1.386 . S
C2291 C2295 1.393 . S
C2292 H2281 0.950 . S
C2292 C2290 1.391 . S
C2292 C2293 1.400 . S
C2293 C2287 1.491 . S
C2293 C2292 1.400 . S
C2293 C2294 1.398 . S
C2294 H2282 0.950 . S
C2294 C2293 1.398 . S
C2294 C2295 1.391 . S
C2295 H2283 0.950 . S
C2295 C2291 1.393 . S
C2295 C2294 1.391 . S
H2296 C2304 0.950 . S
H2297 C2309 0.950 . S
H2298 C2306 0.950 . S
H2299 C2308 0.950 . S
H2300 C2310 0.950 . S
H2301 C2312 0.950 . S
H2302 C2314 0.950 . S
H2303 C2315 0.943 . S
C2304 H2296 0.950 . S
C2304 C2305 1.386 . S
C2304 C2306 1.391 . S
C2305 C2304 1.386 . S
C2305 C2309 1.393 . S
C2306 H2298 0.950 . S
C2306 C2304 1.391 . S
C2306 C2307 1.400 . S
C2307 C2306 1.400 . S
C2307 C2308 1.398 . S
C2307 C2313 1.491 . S
C2308 H2299 0.950 . S
C2308 C2307 1.398 . S
C2308 C2309 1.391 . S
C2309 H2297 0.950 . S
C2309 C2305 1.393 . S
C2309 C2308 1.391 . S
C2310 H2300 0.950 . S
C2310 C2311 1.386 . S
C2310 C2312 1.391 . S
C2311 C2310 1.386 . S
C2311 C2315 1.393 . S
C2312 H2301 0.950 . S
C2312 C2310 1.391 . S
C2312 C2313 1.400 1_565 S
C2313 C2307 1.491 . S
C2313 C2312 1.400 1_545 S
C2313 C2314 1.398 . S
C2314 H2302 0.950 . S
C2314 C2313 1.398 . S
C2314 C2315 1.391 1_545 S
C2315 H2303 0.943 . S
C2315 C2311 1.393 . S
C2315 C2314 1.391 1_565 S
H2316 C2324 0.950 . S
H2317 C2329 0.950 . S
H2318 C2326 0.950 . S
H2319 C2328 0.950 . S
H2320 C2330 0.950 . S
H2321 C2332 0.950 . S
H2322 C2334 0.950 . S
H2323 C2335 0.950 . S
C2324 H2316 0.950 . S
C2324 C2325 1.386 . S
C2324 C2326 1.391 1_565 S
C2325 C2324 1.386 . S
C2325 C2329 1.393 . S
C2326 H2318 0.950 . S
C2326 C2324 1.391 1_545 S
C2326 C2327 1.400 . S
C2327 C2326 1.400 . S
C2327 C2328 1.398 . S
C2327 C2333 1.491 . S
C2328 H2319 0.950 . S
C2328 C2327 1.398 . S
C2328 C2329 1.391 1_545 S
C2329 H2317 0.950 . S
C2329 C2325 1.393 . S
C2329 C2328 1.391 1_565 S
C2330 H2320 0.950 . S
C2330 C2331 1.386 . S
C2330 C2332 1.391 . S
C2331 C2330 1.386 . S
C2331 C2335 1.393 . S
C2332 H2321 0.950 . S
C2332 C2330 1.391 . S
C2332 C2333 1.400 . S
C2333 C2327 1.491 . S
C2333 C2332 1.400 . S
C2333 C2334 1.398 . S
C2334 H2322 0.950 . S
C2334 C2333 1.398 . S
C2334 C2335 1.391 . S
C2335 H2323 0.950 . S
C2335 C2331 1.393 . S
C2335 C2334 1.391 . S
H2336 C2344 0.950 . S
H2337 C2349 0.950 . S
H2338 C2346 0.950 . S
H2339 C2348 0.950 . S
H2340 C2350 0.950 . S
H2341 C2352 0.950 . S
H2342 C2354 0.950 . S
H2343 C2355 0.950 . S
C2344 H2336 0.950 . S
C2344 C2345 1.386 . S
C2344 C2346 1.391 . S
C2345 C2344 1.386 . S
C2345 C2349 1.393 . S
C2346 H2338 0.950 . S
C2346 C2344 1.391 . S
C2346 C2347 1.400 . S
C2347 C2346 1.400 . S
C2347 C2348 1.398 . S
C2347 C2353 1.491 . S
C2348 H2339 0.950 . S
C2348 C2347 1.398 . S
C2348 C2349 1.391 . S
C2349 H2337 0.950 . S
C2349 C2345 1.393 . S
C2349 C2348 1.391 . S
C2350 H2340 0.950 . S
C2350 C2351 1.386 . S
C2350 C2352 1.391 . S
C2351 C2350 1.386 . S
C2351 C2355 1.393 . S
C2352 H2341 0.950 . S
C2352 C2350 1.391 . S
C2352 C2353 1.400 . S
C2353 C2347 1.491 . S
C2353 C2352 1.400 . S
C2353 C2354 1.398 . S
C2354 H2342 0.950 . S
C2354 C2353 1.398 . S
C2354 C2355 1.391 . S
C2355 H2343 0.950 . S
C2355 C2351 1.393 . S
C2355 C2354 1.391 . S
H2356 C2364 0.950 1_556 S
H2357 C2369 0.950 . S
H2358 C2366 0.950 . S
H2359 C2368 0.950 . S
H2360 C2370 0.950 . S
H2361 C2372 0.950 . S
H2362 C2374 0.950 . S
H2363 C2375 0.950 . S
C2364 H2356 0.950 1_554 S
C2364 C2365 1.386 . S
C2364 C2366 1.391 . S
C2365 C2364 1.386 . S
C2365 C2369 1.393 . S
C2366 H2358 0.950 . S
C2366 C2364 1.391 . S
C2366 C2367 1.400 . S
C2367 C2366 1.400 . S
C2367 C2368 1.398 . S
C2367 C2373 1.491 . S
C2368 H2359 0.950 . S
C2368 C2367 1.398 . S
C2368 C2369 1.391 . S
C2369 H2357 0.950 . S
C2369 C2365 1.393 . S
C2369 C2368 1.391 . S
C2370 H2360 0.950 . S
C2370 C2371 1.386 . S
C2370 C2372 1.391 . S
C2371 C2370 1.386 . S
C2371 C2375 1.393 . S
C2372 H2361 0.950 . S
C2372 C2370 1.391 . S
C2372 C2373 1.400 . S
C2373 C2367 1.491 . S
C2373 C2372 1.400 . S
C2373 C2374 1.398 . S
C2374 H2362 0.950 . S
C2374 C2373 1.398 . S
C2374 C2375 1.391 . S
C2375 H2363 0.950 . S
C2375 C2371 1.393 . S
C2375 C2374 1.391 . S
H2376 C2384 0.950 . S
H2377 C2389 0.950 . S
H2378 C2386 0.950 . S
H2379 C2388 0.950 . S
H2380 C2390 0.950 . S
H2381 C2392 0.950 . S
H2382 C2394 0.950 . S
H2383 C2395 0.950 . S
C2384 H2376 0.950 . S
C2384 C2385 1.386 . S
C2384 C2386 1.391 . S
C2385 C2384 1.386 . S
C2385 C2389 1.393 . S
C2386 H2378 0.950 . S
C2386 C2384 1.391 . S
C2386 C2387 1.400 . S
C2387 C2386 1.400 . S
C2387 C2388 1.398 . S
C2387 C2393 1.491 . S
C2388 H2379 0.950 . S
C2388 C2387 1.398 . S
C2388 C2389 1.391 . S
C2389 H2377 0.950 . S
C2389 C2385 1.393 . S
C2389 C2388 1.391 . S
C2390 H2380 0.950 . S
C2390 C2391 1.386 . S
C2390 C2392 1.391 . S
C2391 C2390 1.386 . S
C2391 C2395 1.393 . S
C2392 H2381 0.950 . S
C2392 C2390 1.391 . S
C2392 C2393 1.400 . S
C2393 C2387 1.491 . S
C2393 C2392 1.400 . S
C2393 C2394 1.398 . S
C2394 H2382 0.950 . S
C2394 C2393 1.398 . S
C2394 C2395 1.391 . S
C2395 H2383 0.950 . S
C2395 C2391 1.393 . S
C2395 C2394 1.391 . S
H2396 C2404 0.950 . S
H2397 C2409 0.950 . S
H2398 C2406 0.950 . S
H2399 C2408 0.950 . S
H2400 C2410 0.950 1_565 S
H2401 C2412 0.950 . S
H2402 C2414 0.950 . S
H2403 C2415 0.940 1_565 S
C2404 H2396 0.950 . S
C2404 C2405 1.386 . S
C2404 C2406 1.391 . S
C2405 C2404 1.386 . S
C2405 C2409 1.393 . S
C2406 H2398 0.950 . S
C2406 C2404 1.391 . S
C2406 C2407 1.400 . S
C2407 C2406 1.400 . S
C2407 C2408 1.398 . S
C2407 C2413 1.491 . S
C2408 H2399 0.950 . S
C2408 C2407 1.398 . S
C2408 C2409 1.391 . S
C2409 H2397 0.950 . S
C2409 C2405 1.393 . S
C2409 C2408 1.391 . S
C2410 H2400 0.950 1_545 S
C2410 C2411 1.386 1_545 S
C2410 C2412 1.391 . S
C2411 C2410 1.386 1_565 S
C2411 C2415 1.393 1_565 S
C2412 H2401 0.950 . S
C2412 C2410 1.391 . S
C2412 C2413 1.400 . S
C2413 C2407 1.491 . S
C2413 C2412 1.400 . S
C2413 C2414 1.398 . S
C2414 H2402 0.950 . S
C2414 C2413 1.398 . S
C2414 C2415 1.391 . S
C2415 H2403 0.940 1_545 S
C2415 C2411 1.393 1_545 S
C2415 C2414 1.391 . S
H2416 C2424 0.950 . S
H2417 C2429 0.950 . S
H2418 C2426 0.950 . S
H2419 C2428 0.950 . S
H2420 C2430 0.950 . S
H2421 C2432 0.950 . S
H2422 C2434 0.950 . S
H2423 C2435 0.950 . S
C2424 H2416 0.950 . S
C2424 C2425 1.386 . S
C2424 C2426 1.391 . S
C2425 C2424 1.386 . S
C2425 C2429 1.393 . S
C2426 H2418 0.950 . S
C2426 C2424 1.391 . S
C2426 C2427 1.400 . S
C2427 C2426 1.400 . S
C2427 C2428 1.398 . S
C2427 C2433 1.491 . S
C2428 H2419 0.950 . S
C2428 C2427 1.398 . S
C2428 C2429 1.391 . S
C2429 H2417 0.950 . S
C2429 C2425 1.393 . S
C2429 C2428 1.391 . S
C2430 H2420 0.950 . S
C2430 C2431 1.386 . S
C2430 C2432 1.391 . S
C2431 C2430 1.386 . S
C2431 C2435 1.393 . S
C2432 H2421 0.950 . S
C2432 C2430 1.391 . S
C2432 C2433 1.400 . S
C2433 C2427 1.491 . S
C2433 C2432 1.400 . S
C2433 C2434 1.398 . S
C2434 H2422 0.950 . S
C2434 C2433 1.398 . S
C2434 C2435 1.391 . S
C2435 H2423 0.950 . S
C2435 C2431 1.393 . S
C2435 C2434 1.391 . S
H2436 C2444 0.950 . S
H2437 C2449 0.950 . S
H2438 C2446 0.950 . S
H2439 C2448 0.950 . S
H2440 C2450 0.950 . S
H2441 C2452 0.950 . S
H2442 C2454 0.950 . S
H2443 C2455 0.950 . S
C2444 H2436 0.950 . S
C2444 C2445 1.386 . S
C2444 C2446 1.391 . S
C2445 C2444 1.386 . S
C2445 C2449 1.393 . S
C2446 H2438 0.950 . S
C2446 C2444 1.391 . S
C2446 C2447 1.400 . S
C2447 C2446 1.400 . S
C2447 C2448 1.398 . S
C2447 C2453 1.491 . S
C2448 H2439 0.950 . S
C2448 C2447 1.398 . S
C2448 C2449 1.391 . S
C2449 H2437 0.950 . S
C2449 C2445 1.393 . S
C2449 C2448 1.391 . S
C2450 H2440 0.950 . S
C2450 C2451 1.386 . S
C2450 C2452 1.391 . S
C2451 C2450 1.386 . S
C2451 C2455 1.393 . S
C2452 H2441 0.950 . S
C2452 C2450 1.391 . S
C2452 C2453 1.400 . S
C2453 C2447 1.491 . S
C2453 C2452 1.400 . S
C2453 C2454 1.398 . S
C2454 H2442 0.950 . S
C2454 C2453 1.398 . S
C2454 C2455 1.391 . S
C2455 H2443 0.950 . S
C2455 C2451 1.393 . S
C2455 C2454 1.391 . S
H2456 C2464 0.950 . S
H2457 C2469 0.950 . S
H2458 C2466 0.950 . S
H2459 C2468 0.950 . S
H2460 C2470 0.950 . S
H2461 C2472 0.950 . S
H2462 C2474 0.950 . S
H2463 C2475 0.950 . S
C2464 H2456 0.950 . S
C2464 C2465 1.386 . S
C2464 C2466 1.391 . S
C2465 C2464 1.386 . S
C2465 C2469 1.393 . S
C2466 H2458 0.950 . S
C2466 C2464 1.391 . S
C2466 C2467 1.400 . S
C2467 C2466 1.400 . S
C2467 C2468 1.398 . S
C2467 C2473 1.491 . S
C2468 H2459 0.950 . S
C2468 C2467 1.398 . S
C2468 C2469 1.391 . S
C2469 H2457 0.950 . S
C2469 C2465 1.393 . S
C2469 C2468 1.391 . S
C2470 H2460 0.950 . S
C2470 C2471 1.386 . S
C2470 C2472 1.391 . S
C2471 C2470 1.386 . S
C2471 C2475 1.393 . S
C2472 H2461 0.950 . S
C2472 C2470 1.391 . S
C2472 C2473 1.400 . S
C2473 C2467 1.491 . S
C2473 C2472 1.400 . S
C2473 C2474 1.398 . S
C2474 H2462 0.950 . S
C2474 C2473 1.398 . S
C2474 C2475 1.391 . S
C2475 H2463 0.950 . S
C2475 C2471 1.393 . S
C2475 C2474 1.391 . S
H2476 C2484 0.950 . S
H2477 C2489 0.950 . S
H2478 C2486 0.950 . S
H2479 C2488 0.950 . S
H2480 C2490 0.950 . S
H2481 C2492 0.950 . S
H2482 C2494 0.950 . S
H2483 C2495 0.950 . S
C2484 H2476 0.950 . S
C2484 C2485 1.386 . S
C2484 C2486 1.391 . S
C2485 C2484 1.386 . S
C2485 C2489 1.393 . S
C2486 H2478 0.950 . S
C2486 C2484 1.391 . S
C2486 C2487 1.400 . S
C2487 C2486 1.400 . S
C2487 C2488 1.398 . S
C2487 C2493 1.491 . S
C2488 H2479 0.950 . S
C2488 C2487 1.398 . S
C2488 C2489 1.391 . S
C2489 H2477 0.950 . S
C2489 C2485 1.393 . S
C2489 C2488 1.391 . S
C2490 H2480 0.950 . S
C2490 C2491 1.386 . S
C2490 C2492 1.391 . S
C2491 C2490 1.386 . S
C2491 C2495 1.393 . S
C2492 H2481 0.950 . S
C2492 C2490 1.391 . S
C2492 C2493 1.400 . S
C2493 C2487 1.491 . S
C2493 C2492 1.400 . S
C2493 C2494 1.398 . S
C2494 H2482 0.950 . S
C2494 C2493 1.398 . S
C2494 C2495 1.391 . S
C2495 H2483 0.950 . S
C2495 C2491 1.393 . S
C2495 C2494 1.391 . S
H2496 C2504 0.950 . S
H2497 C2509 0.950 . S
H2498 C2506 0.950 . S
H2499 C2508 0.950 . S
H2500 C2510 0.950 . S
H2501 C2512 0.950 . S
H2502 C2514 0.950 . S
H2503 C2515 0.950 . S
C2504 H2496 0.950 . S
C2504 C2505 1.386 . S
C2504 C2506 1.391 . S
C2505 C2504 1.386 . S
C2505 C2509 1.393 . S
C2506 H2498 0.950 . S
C2506 C2504 1.391 . S
C2506 C2507 1.400 . S
C2507 C2506 1.400 . S
C2507 C2508 1.398 . S
C2507 C2513 1.491 . S
C2508 H2499 0.950 . S
C2508 C2507 1.398 . S
C2508 C2509 1.391 . S
C2509 H2497 0.950 . S
C2509 C2505 1.393 . S
C2509 C2508 1.391 . S
C2510 H2500 0.950 . S
C2510 C2511 1.386 . S
C2510 C2512 1.391 . S
C2511 C2510 1.386 . S
C2511 C2515 1.393 . S
C2512 H2501 0.950 . S
C2512 C2510 1.391 . S
C2512 C2513 1.400 . S
C2513 C2507 1.491 . S
C2513 C2512 1.400 . S
C2513 C2514 1.398 . S
C2514 H2502 0.950 . S
C2514 C2513 1.398 . S
C2514 C2515 1.391 . S
C2515 H2503 0.950 . S
C2515 C2511 1.393 . S
C2515 C2514 1.391 . S
H2516 C2524 0.950 . S
H2517 C2529 0.950 . S
H2518 C2526 0.950 . S
H2519 C2528 0.950 . S
H2520 C2530 0.950 . S
H2521 C2532 0.950 . S
H2522 C2534 0.950 . S
H2523 C2535 0.950 . S
C2524 H2516 0.950 . S
C2524 C2525 1.386 . S
C2524 C2526 1.391 . S
C2525 C2524 1.386 . S
C2525 C2529 1.393 . S
C2526 H2518 0.950 . S
C2526 C2524 1.391 . S
C2526 C2527 1.400 . S
C2527 C2526 1.400 . S
C2527 C2528 1.398 . S
C2527 C2533 1.491 . S
C2528 H2519 0.950 . S
C2528 C2527 1.398 . S
C2528 C2529 1.391 . S
C2529 H2517 0.950 . S
C2529 C2525 1.393 . S
C2529 C2528 1.391 . S
C2530 H2520 0.950 . S
C2530 C2531 1.386 . S
C2530 C2532 1.391 . S
C2531 C2530 1.386 . S
C2531 C2535 1.393 . S
C2532 H2521 0.950 . S
C2532 C2530 1.391 . S
C2532 C2533 1.400 . S
C2533 C2527 1.491 . S
C2533 C2532 1.400 . S
C2533 C2534 1.398 . S
C2534 H2522 0.950 . S
C2534 C2533 1.398 . S
C2534 C2535 1.391 . S
C2535 H2523 0.950 . S
C2535 C2531 1.393 . S
C2535 C2534 1.391 . S
H2536 C2544 0.950 . S
H2537 C2549 0.950 . S
H2538 C2546 0.950 . S
H2539 C2548 0.950 . S
H2540 C2550 0.950 . S
H2541 C2552 0.950 . S
H2542 C2554 0.950 . S
H2543 C2555 0.950 . S
C2544 H2536 0.950 . S
C2544 C2545 1.386 . S
C2544 C2546 1.391 . S
C2545 C2544 1.386 . S
C2545 C2549 1.393 . S
C2546 H2538 0.950 . S
C2546 C2544 1.391 . S
C2546 C2547 1.400 . S
C2547 C2546 1.400 . S
C2547 C2548 1.398 . S
C2547 C2553 1.491 . S
C2548 H2539 0.950 . S
C2548 C2547 1.398 . S
C2548 C2549 1.391 . S
C2549 H2537 0.950 . S
C2549 C2545 1.393 . S
C2549 C2548 1.391 . S
C2550 H2540 0.950 . S
C2550 C2551 1.386 . S
C2550 C2552 1.391 . S
C2551 C2550 1.386 . S
C2551 C2555 1.393 . S
C2552 H2541 0.950 . S
C2552 C2550 1.391 . S
C2552 C2553 1.400 . S
C2553 C2547 1.491 . S
C2553 C2552 1.400 . S
C2553 C2554 1.398 . S
C2554 H2542 0.950 . S
C2554 C2553 1.398 . S
C2554 C2555 1.391 . S
C2555 H2543 0.950 . S
C2555 C2551 1.393 . S
C2555 C2554 1.391 . S
H2556 C2564 0.950 . S
H2557 C2569 0.950 . S
H2558 C2566 0.950 . S
H2559 C2568 0.950 . S
H2560 C2570 0.950 . S
H2561 C2572 0.950 . S
H2562 C2574 0.950 . S
H2563 C2575 0.950 . S
C2564 H2556 0.950 . S
C2564 C2565 1.386 . S
C2564 C2566 1.391 . S
C2565 C2564 1.386 . S
C2565 C2569 1.393 . S
C2566 H2558 0.950 . S
C2566 C2564 1.391 . S
C2566 C2567 1.400 . S
C2567 C2566 1.400 . S
C2567 C2568 1.398 . S
C2567 C2573 1.491 . S
C2568 H2559 0.950 . S
C2568 C2567 1.398 . S
C2568 C2569 1.391 . S
C2569 H2557 0.950 . S
C2569 C2565 1.393 . S
C2569 C2568 1.391 . S
C2570 H2560 0.950 . S
C2570 C2571 1.386 . S
C2570 C2572 1.391 . S
C2571 C2570 1.386 . S
C2571 C2575 1.393 . S
C2572 H2561 0.950 . S
C2572 C2570 1.391 . S
C2572 C2573 1.400 . S
C2573 C2567 1.491 . S
C2573 C2572 1.400 . S
C2573 C2574 1.398 . S
C2574 H2562 0.950 . S
C2574 C2573 1.398 . S
C2574 C2575 1.391 . S
C2575 H2563 0.950 . S
C2575 C2571 1.393 . S
C2575 C2574 1.391 . S
H2576 C2584 0.950 . S
H2577 C2589 0.950 . S
H2578 C2586 0.950 . S
H2579 C2588 0.950 . S
H2580 C2590 0.950 . S
H2581 C2592 0.950 . S
H2582 C2594 0.950 . S
H2583 C2595 0.950 . S
C2584 H2576 0.950 . S
C2584 C2585 1.386 . S
C2584 C2586 1.391 . S
C2585 C2584 1.386 . S
C2585 C2589 1.393 . S
C2586 H2578 0.950 . S
C2586 C2584 1.391 . S
C2586 C2587 1.400 . S
C2587 C2586 1.400 . S
C2587 C2588 1.398 . S
C2587 C2593 1.491 . S
C2588 H2579 0.950 . S
C2588 C2587 1.398 . S
C2588 C2589 1.391 . S
C2589 H2577 0.950 . S
C2589 C2585 1.393 . S
C2589 C2588 1.391 . S
C2590 H2580 0.950 . S
C2590 C2591 1.386 . S
C2590 C2592 1.391 . S
C2591 C2590 1.386 . S
C2591 C2595 1.393 . S
C2592 H2581 0.950 . S
C2592 C2590 1.391 . S
C2592 C2593 1.400 . S
C2593 C2587 1.491 . S
C2593 C2592 1.400 . S
C2593 C2594 1.398 . S
C2594 H2582 0.950 . S
C2594 C2593 1.398 . S
C2594 C2595 1.391 . S
C2595 H2583 0.950 . S
C2595 C2591 1.393 . S
C2595 C2594 1.391 . S
H2596 C2604 0.950 . S
H2597 C2609 0.950 . S
H2598 C2606 0.950 . S
H2599 C2608 0.950 . S
H2600 C2610 0.950 . S
H2601 C2612 0.950 . S
H2602 C2614 0.950 . S
H2603 C2615 0.950 . S
C2604 H2596 0.950 . S
C2604 C2605 1.386 . S
C2604 C2606 1.391 . S
C2605 C2604 1.386 . S
C2605 C2609 1.393 . S
C2606 H2598 0.950 . S
C2606 C2604 1.391 . S
C2606 C2607 1.400 . S
C2607 C2606 1.400 . S
C2607 C2608 1.398 . S
C2607 C2613 1.491 . S
C2608 H2599 0.950 . S
C2608 C2607 1.398 . S
C2608 C2609 1.391 . S
C2609 H2597 0.950 . S
C2609 C2605 1.393 . S
C2609 C2608 1.391 . S
C2610 H2600 0.950 . S
C2610 C2611 1.386 . S
C2610 C2612 1.391 . S
C2611 C2610 1.386 . S
C2611 C2615 1.393 . S
C2612 H2601 0.950 . S
C2612 C2610 1.391 . S
C2612 C2613 1.400 . S
C2613 C2607 1.491 . S
C2613 C2612 1.400 . S
C2613 C2614 1.398 . S
C2614 H2602 0.950 . S
C2614 C2613 1.398 . S
C2614 C2615 1.391 . S
C2615 H2603 0.950 . S
C2615 C2611 1.393 . S
C2615 C2614 1.391 . S
H2616 C2624 0.950 . S
H2617 C2629 0.950 . S
H2618 C2626 0.950 . S
H2619 C2628 0.950 . S
H2620 C2630 0.950 . S
H2621 C2632 0.950 . S
H2622 C2634 1.002 . S
H2623 C2635 0.950 1_655 S
C2624 H2616 0.950 . S
C2624 C2625 1.386 . S
C2624 C2626 1.391 . S
C2625 C2624 1.386 . S
C2625 C2629 1.393 1_655 S
C2626 H2618 0.950 . S
C2626 C2624 1.391 . S
C2626 C2627 1.400 1_655 S
C2627 C2626 1.400 1_455 S
C2627 C2628 1.398 . S
C2627 C2633 1.491 . S
C2628 H2619 0.950 . S
C2628 C2627 1.398 . S
C2628 C2629 1.391 . S
C2629 H2617 0.950 . S
C2629 C2625 1.393 1_455 S
C2629 C2628 1.391 . S
C2630 H2620 0.950 . S
C2630 C2631 1.386 . S
C2630 C2632 1.391 . S
C2631 C2630 1.386 . S
C2631 C2635 1.393 . S
C2632 H2621 0.950 . S
C2632 C2630 1.391 . S
C2632 C2633 1.400 . S
C2633 C2627 1.491 . S
C2633 C2632 1.400 . S
C2633 C2634 1.367 1_455 S
C2634 H2622 1.002 . S
C2634 C2633 1.367 1_655 S
C2634 C2635 1.372 1_655 S
C2635 H2623 0.950 1_455 S
C2635 C2631 1.393 . S
C2635 C2634 1.372 1_455 S
H2636 C2644 0.950 . S
H2637 C2649 0.950 . S
H2638 C2646 0.950 . S
H2639 C2648 0.950 . S
H2640 C2650 0.950 . S
H2641 C2652 0.950 . S
H2642 C2654 0.950 . S
H2643 C2655 0.950 . S
C2644 H2636 0.950 . S
C2644 C2645 1.386 . S
C2644 C2646 1.391 . S
C2645 C2644 1.386 . S
C2645 C2649 1.393 . S
C2646 H2638 0.950 . S
C2646 C2644 1.391 . S
C2646 C2647 1.400 . S
C2647 C2646 1.400 . S
C2647 C2648 1.398 . S
C2647 C2653 1.491 . S
C2648 H2639 0.950 . S
C2648 C2647 1.398 . S
C2648 C2649 1.391 . S
C2649 H2637 0.950 . S
C2649 C2645 1.393 . S
C2649 C2648 1.391 . S
C2650 H2640 0.950 . S
C2650 C2651 1.386 . S
C2650 C2652 1.391 . S
C2651 C2650 1.386 . S
C2651 C2655 1.393 . S
C2652 H2641 0.950 . S
C2652 C2650 1.391 . S
C2652 C2653 1.400 . S
C2653 C2647 1.491 . S
C2653 C2652 1.400 . S
C2653 C2654 1.398 . S
C2654 H2642 0.950 . S
C2654 C2653 1.398 . S
C2654 C2655 1.391 . S
C2655 H2643 0.950 . S
C2655 C2651 1.393 . S
C2655 C2654 1.391 . S
H2656 C2664 0.950 . S
H2657 C2669 0.950 . S
H2658 C2666 0.950 . S
H2659 C2668 0.950 . S
H2660 C2670 0.950 . S
H2661 C2672 0.950 . S
H2662 C2674 0.950 . S
H2663 C2675 0.950 . S
C2664 H2656 0.950 . S
C2664 C2665 1.386 . S
C2664 C2666 1.391 . S
C2665 C2664 1.386 . S
C2665 C2669 1.393 . S
C2666 H2658 0.950 . S
C2666 C2664 1.391 . S
C2666 C2667 1.400 . S
C2667 C2666 1.400 . S
C2667 C2668 1.398 . S
C2667 C2673 1.491 . S
C2668 H2659 0.950 . S
C2668 C2667 1.398 . S
C2668 C2669 1.391 . S
C2669 H2657 0.950 . S
C2669 C2665 1.393 . S
C2669 C2668 1.391 . S
C2670 H2660 0.950 . S
C2670 C2671 1.386 . S
C2670 C2672 1.391 . S
C2671 C2670 1.386 . S
C2671 C2675 1.393 . S
C2672 H2661 0.950 . S
C2672 C2670 1.391 . S
C2672 C2673 1.400 . S
C2673 C2667 1.491 . S
C2673 C2672 1.400 . S
C2673 C2674 1.398 . S
C2674 H2662 0.950 . S
C2674 C2673 1.398 . S
C2674 C2675 1.391 . S
C2675 H2663 0.950 . S
C2675 C2671 1.393 . S
C2675 C2674 1.391 . S
H2676 C2684 0.950 . S
H2677 C2689 0.950 . S
H2678 C2686 0.950 . S
H2679 C2688 0.950 . S
H2680 C2690 0.950 . S
H2681 C2692 0.950 . S
H2682 C2694 0.950 . S
H2683 C2695 0.950 . S
C2684 H2676 0.950 . S
C2684 C2685 1.386 . S
C2684 C2686 1.391 . S
C2685 C2684 1.386 . S
C2685 C2689 1.393 . S
C2686 H2678 0.950 . S
C2686 C2684 1.391 . S
C2686 C2687 1.400 . S
C2687 C2686 1.400 . S
C2687 C2688 1.398 . S
C2687 C2693 1.491 . S
C2688 H2679 0.950 . S
C2688 C2687 1.398 . S
C2688 C2689 1.391 . S
C2689 H2677 0.950 . S
C2689 C2685 1.393 . S
C2689 C2688 1.391 . S
C2690 H2680 0.950 . S
C2690 C2691 1.386 . S
C2690 C2692 1.391 . S
C2691 C2690 1.386 . S
C2691 C2695 1.393 . S
C2692 H2681 0.950 . S
C2692 C2690 1.391 . S
C2692 C2693 1.400 . S
C2693 C2687 1.491 . S
C2693 C2692 1.400 . S
C2693 C2694 1.398 . S
C2694 H2682 0.950 . S
C2694 C2693 1.398 . S
C2694 C2695 1.391 . S
C2695 H2683 0.950 . S
C2695 C2691 1.393 . S
C2695 C2694 1.391 . S
H2696 C2704 0.950 . S
H2697 C2709 0.950 1_455 S
H2698 C2706 0.950 . S
H2699 C2708 0.950 . S
H2700 C2710 0.950 . S
H2701 C2712 0.950 . S
H2702 C2714 0.950 . S
H2703 C2715 0.950 . S
C2704 H2696 0.950 . S
C2704 C2705 1.386 . S
C2704 C2706 1.391 . S
C2705 C2704 1.386 . S
C2705 C2709 1.393 . S
C2706 H2698 0.950 . S
C2706 C2704 1.391 . S
C2706 C2707 1.400 . S
C2707 C2706 1.400 . S
C2707 C2708 1.398 1_655 S
C2707 C2713 1.491 . S
C2708 H2699 0.950 . S
C2708 C2707 1.398 1_455 S
C2708 C2709 1.391 1_455 S
C2709 H2697 0.950 1_655 S
C2709 C2705 1.393 . S
C2709 C2708 1.391 1_655 S
C2710 H2700 0.950 . S
C2710 C2711 1.399 . S
C2710 C2712 1.391 . S
C2711 C2710 1.399 . S
C2711 C2715 1.362 1_455 S
C2712 H2701 0.950 . S
C2712 C2710 1.391 . S
C2712 C2713 1.400 1_455 S
C2713 C2707 1.491 . S
C2713 C2712 1.400 1_655 S
C2713 C2714 1.398 . S
C2714 H2702 0.950 . S
C2714 C2713 1.398 . S
C2714 C2715 1.391 . S
C2715 H2703 0.950 . S
C2715 C2711 1.362 1_655 S
C2715 C2714 1.391 . S
H2716 C2724 0.950 . S
H2717 C2729 0.950 . S
H2718 C2726 0.950 . S
H2719 C2728 0.950 . S
H2720 C2730 0.950 . S
H2721 C2732 0.950 . S
H2722 C2734 0.950 . S
H2723 C2735 0.950 . S
C2724 H2716 0.950 . S
C2724 C2725 1.386 . S
C2724 C2726 1.391 . S
C2725 C2724 1.386 . S
C2725 C2729 1.393 . S
C2726 H2718 0.950 . S
C2726 C2724 1.391 . S
C2726 C2727 1.400 . S
C2727 C2726 1.400 . S
C2727 C2728 1.398 . S
C2727 C2733 1.491 . S
C2728 H2719 0.950 . S
C2728 C2727 1.398 . S
C2728 C2729 1.391 . S
C2729 H2717 0.950 . S
C2729 C2725 1.393 . S
C2729 C2728 1.391 . S
C2730 H2720 0.950 . S
C2730 C2731 1.386 . S
C2730 C2732 1.391 . S
C2731 C2730 1.386 . S
C2731 C2735 1.393 . S
C2732 H2721 0.950 . S
C2732 C2730 1.391 . S
C2732 C2733 1.400 . S
C2733 C2727 1.491 . S
C2733 C2732 1.400 . S
C2733 C2734 1.398 . S
C2734 H2722 0.950 . S
C2734 C2733 1.398 . S
C2734 C2735 1.391 . S
C2735 H2723 0.950 . S
C2735 C2731 1.393 . S
C2735 C2734 1.391 . S
H2736 C2744 0.950 . S
H2737 C2749 0.950 . S
H2738 C2746 0.950 . S
H2739 C2748 0.950 . S
H2740 C2750 0.950 . S
H2741 C2752 0.950 . S
H2742 C2754 0.950 . S
H2743 C2755 0.950 . S
C2744 H2736 0.950 . S
C2744 C2745 1.386 . S
C2744 C2746 1.391 . S
C2745 C2744 1.386 . S
C2745 C2749 1.393 . S
C2746 H2738 0.950 . S
C2746 C2744 1.391 . S
C2746 C2747 1.400 . S
C2747 C2746 1.400 . S
C2747 C2748 1.398 . S
C2747 C2753 1.491 . S
C2748 H2739 0.950 . S
C2748 C2747 1.398 . S
C2748 C2749 1.391 . S
C2749 H2737 0.950 . S
C2749 C2745 1.393 . S
C2749 C2748 1.391 . S
C2750 H2740 0.950 . S
C2750 C2751 1.386 . S
C2750 C2752 1.391 . S
C2751 C2750 1.386 . S
C2751 C2755 1.393 . S
C2752 H2741 0.950 . S
C2752 C2750 1.391 . S
C2752 C2753 1.400 . S
C2753 C2747 1.491 . S
C2753 C2752 1.400 . S
C2753 C2754 1.398 . S
C2754 H2742 0.950 . S
C2754 C2753 1.398 . S
C2754 C2755 1.391 . S
C2755 H2743 0.950 . S
C2755 C2751 1.393 . S
C2755 C2754 1.391 . S
H2756 C2764 0.950 . S
H2757 C2769 0.950 . S
H2758 C2766 0.950 . S
H2759 C2768 0.950 . S
H2760 C2770 0.950 . S
H2761 C2772 0.950 . S
H2762 C2774 0.950 . S
H2763 C2775 0.950 . S
C2764 H2756 0.950 . S
C2764 C2765 1.386 . S
C2764 C2766 1.391 . S
C2765 C2764 1.386 . S
C2765 C2769 1.393 . S
C2766 H2758 0.950 . S
C2766 C2764 1.391 . S
C2766 C2767 1.400 1_565 S
C2767 C2766 1.400 1_545 S
C2767 C2768 1.398 . S
C2767 C2773 1.491 . S
C2768 H2759 0.950 . S
C2768 C2767 1.398 . S
C2768 C2769 1.391 1_545 S
C2769 H2757 0.950 . S
C2769 C2765 1.393 . S
C2769 C2768 1.391 1_565 S
C2770 H2760 0.950 . S
C2770 C2771 1.386 . S
C2770 C2772 1.391 . S
C2771 C2770 1.386 . S
C2771 C2775 1.393 . S
C2772 H2761 0.950 . S
C2772 C2770 1.391 . S
C2772 C2773 1.400 . S
C2773 C2767 1.491 . S
C2773 C2772 1.400 . S
C2773 C2774 1.398 . S
C2774 H2762 0.950 . S
C2774 C2773 1.398 . S
C2774 C2775 1.391 . S
C2775 H2763 0.950 . S
C2775 C2771 1.393 . S
C2775 C2774 1.391 . S
H2776 C2784 0.950 . S
H2777 C2789 0.950 . S
H2778 C2786 0.950 . S
H2779 C2788 0.950 . S
H2780 C2790 0.950 . S
H2781 C2792 0.950 . S
H2782 C2794 0.950 . S
H2783 C2795 0.950 . S
C2784 H2776 0.950 . S
C2784 C2785 1.386 . S
C2784 C2786 1.391 . S
C2785 C2784 1.386 . S
C2785 C2789 1.393 . S
C2786 H2778 0.950 . S
C2786 C2784 1.391 . S
C2786 C2787 1.400 . S
C2787 C2786 1.400 . S
C2787 C2788 1.398 . S
C2787 C2793 1.491 . S
C2788 H2779 0.950 . S
C2788 C2787 1.398 . S
C2788 C2789 1.391 . S
C2789 H2777 0.950 . S
C2789 C2785 1.393 . S
C2789 C2788 1.391 . S
C2790 H2780 0.950 . S
C2790 C2791 1.386 . S
C2790 C2792 1.391 . S
C2791 C2790 1.386 . S
C2791 C2795 1.393 . S
C2792 H2781 0.950 . S
C2792 C2790 1.391 . S
C2792 C2793 1.400 . S
C2793 C2787 1.491 . S
C2793 C2792 1.400 . S
C2793 C2794 1.398 . S
C2794 H2782 0.950 . S
C2794 C2793 1.398 . S
C2794 C2795 1.391 . S
C2795 H2783 0.950 . S
C2795 C2791 1.393 . S
C2795 C2794 1.391 . S
H2796 C2804 0.950 . S
H2797 C2809 0.950 . S
H2798 C2806 0.950 . S
H2799 C2808 0.950 . S
H2800 C2810 0.950 . S
H2801 C2812 0.950 1_556 S
H2802 C2814 0.950 . S
H2803 C2815 0.950 . S
C2804 H2796 0.950 . S
C2804 C2805 1.386 1_554 S
C2804 C2806 1.391 . S
C2805 C2804 1.386 1_556 S
C2805 C2809 1.393 . S
C2806 H2798 0.950 . S
C2806 C2804 1.391 . S
C2806 C2807 1.400 . S
C2807 C2806 1.400 . S
C2807 C2808 1.398 1_554 S
C2807 C2813 1.491 . S
C2808 H2799 0.950 . S
C2808 C2807 1.398 1_556 S
C2808 C2809 1.391 . S
C2809 H2797 0.950 . S
C2809 C2805 1.393 . S
C2809 C2808 1.391 . S
C2810 H2800 0.950 . S
C2810 C2811 1.386 . S
C2810 C2812 1.391 . S
C2811 C2810 1.386 . S
C2811 C2815 1.393 . S
C2812 H2801 0.950 1_554 S
C2812 C2810 1.391 . S
C2812 C2813 1.400 . S
C2813 C2807 1.491 . S
C2813 C2812 1.400 . S
C2813 C2814 1.398 . S
C2814 H2802 0.950 . S
C2814 C2813 1.398 . S
C2814 C2815 1.391 . S
C2815 H2803 0.950 . S
C2815 C2811 1.393 . S
C2815 C2814 1.391 . S
H2816 C2824 0.950 . S
H2817 C2829 0.950 . S
H2818 C2826 0.950 . S
H2819 C2828 0.950 . S
H2820 C2830 0.950 . S
H2821 C2832 0.950 . S
H2822 C2834 0.950 . S
H2823 C2835 0.950 . S
C2824 H2816 0.950 . S
C2824 C2825 1.386 . S
C2824 C2826 1.391 . S
C2825 C2824 1.386 . S
C2825 C2829 1.393 . S
C2826 H2818 0.950 . S
C2826 C2824 1.391 . S
C2826 C2827 1.400 . S
C2827 C2826 1.400 . S
C2827 C2828 1.398 . S
C2827 C2833 1.491 . S
C2828 H2819 0.950 . S
C2828 C2827 1.398 . S
C2828 C2829 1.391 . S
C2829 H2817 0.950 . S
C2829 C2825 1.393 . S
C2829 C2828 1.391 . S
C2830 H2820 0.950 . S
C2830 C2831 1.386 . S
C2830 C2832 1.391 . S
C2831 C2830 1.386 . S
C2831 C2835 1.393 . S
C2832 H2821 0.950 . S
C2832 C2830 1.391 . S
C2832 C2833 1.400 . S
C2833 C2827 1.491 . S
C2833 C2832 1.400 . S
C2833 C2834 1.398 . S
C2834 H2822 0.950 . S
C2834 C2833 1.398 . S
C2834 C2835 1.391 . S
C2835 H2823 0.950 . S
C2835 C2831 1.393 . S
C2835 C2834 1.391 . S
H2836 C2844 0.950 . S
H2837 C2849 0.950 1_556 S
H2838 C2846 0.950 . S
H2839 C2848 0.950 . S
H2840 C2850 0.950 . S
H2841 C2852 0.950 . S
H2842 C2854 0.950 . S
H2843 C2855 0.950 . S
C2844 H2836 0.950 . S
C2844 C2845 1.386 . S
C2844 C2846 1.391 . S
C2845 C2844 1.386 . S
C2845 C2849 1.393 . S
C2846 H2838 0.950 . S
C2846 C2844 1.391 . S
C2846 C2847 1.400 . S
C2847 C2846 1.400 . S
C2847 C2848 1.398 1_554 S
C2847 C2853 1.491 . S
C2848 H2839 0.950 . S
C2848 C2847 1.398 1_556 S
C2848 C2849 1.391 1_556 S
C2849 H2837 0.950 1_554 S
C2849 C2845 1.393 . S
C2849 C2848 1.391 1_554 S
C2850 H2840 0.950 . S
C2850 C2851 1.386 . S
C2850 C2852 1.391 . S
C2851 C2850 1.386 . S
C2851 C2855 1.393 1_556 S
C2852 H2841 0.950 . S
C2852 C2850 1.391 . S
C2852 C2853 1.400 1_556 S
C2853 C2847 1.491 . S
C2853 C2852 1.400 1_554 S
C2853 C2854 1.398 . S
C2854 H2842 0.950 . S
C2854 C2853 1.398 . S
C2854 C2855 1.391 . S
C2855 H2843 0.950 . S
C2855 C2851 1.393 1_554 S
C2855 C2854 1.391 . S
H2856 C2864 0.950 . S
H2857 C2869 0.935 1_545 S
H2858 C2866 0.950 . S
H2859 C2868 0.950 . S
H2860 C2870 0.950 . S
H2861 C2872 0.950 . S
H2862 C2874 0.950 . S
H2863 C2875 0.950 . S
C2864 H2856 0.950 . S
C2864 C2865 1.386 . S
C2864 C2866 1.391 . S
C2865 C2864 1.386 . S
C2865 C2869 1.393 . S
C2866 H2858 0.950 . S
C2866 C2864 1.391 . S
C2866 C2867 1.400 . S
C2867 C2866 1.400 . S
C2867 C2868 1.398 . S
C2867 C2873 1.491 . S
C2868 H2859 0.950 . S
C2868 C2867 1.398 . S
C2868 C2869 1.391 . S
C2869 H2857 0.935 1_565 S
C2869 C2865 1.393 . S
C2869 C2868 1.391 . S
C2870 H2860 0.950 . S
C2870 C2871 1.386 . S
C2870 C2872 1.391 . S
C2871 C2870 1.386 . S
C2871 C2875 1.393 . S
C2872 H2861 0.950 . S
C2872 C2870 1.391 . S
C2872 C2873 1.400 . S
C2873 C2867 1.491 . S
C2873 C2872 1.400 . S
C2873 C2874 1.398 . S
C2874 H2862 0.950 . S
C2874 C2873 1.398 . S
C2874 C2875 1.391 . S
C2875 H2863 0.950 . S
C2875 C2871 1.393 . S
C2875 C2874 1.391 . S
H2876 C2884 0.950 . S
H2877 C2889 0.950 . S
H2878 C2886 0.950 . S
H2879 C2888 0.950 . S
H2880 C2890 0.950 . S
H2881 C2892 0.950 . S
H2882 C2894 0.950 . S
H2883 C2895 0.950 . S
C2884 H2876 0.950 . S
C2884 C2885 1.386 . S
C2884 C2886 1.391 . S
C2885 C2884 1.386 . S
C2885 C2889 1.393 . S
C2886 H2878 0.950 . S
C2886 C2884 1.391 . S
C2886 C2887 1.400 . S
C2887 C2886 1.400 . S
C2887 C2888 1.398 . S
C2887 C2893 1.491 . S
C2888 H2879 0.950 . S
C2888 C2887 1.398 . S
C2888 C2889 1.391 . S
C2889 H2877 0.950 . S
C2889 C2885 1.393 . S
C2889 C2888 1.391 . S
C2890 H2880 0.950 . S
C2890 C2891 1.386 . S
C2890 C2892 1.391 . S
C2891 C2890 1.386 . S
C2891 C2895 1.393 . S
C2892 H2881 0.950 . S
C2892 C2890 1.391 . S
C2892 C2893 1.400 . S
C2893 C2887 1.491 . S
C2893 C2892 1.400 . S
C2893 C2894 1.398 . S
C2894 H2882 0.950 . S
C2894 C2893 1.398 . S
C2894 C2895 1.391 . S
C2895 H2883 0.950 . S
C2895 C2891 1.393 . S
C2895 C2894 1.391 . S
C985 C109 2.032 . S
C991 C346 1.978 . S
C1005 C61 1.521 . S
C1011 C385 1.691 . S
C1025 C74 1.373 . S
C1031 C426 1.397 . S
C1051 C471 1.424 . S
C1045 C96 1.462 . S
C1065 C25 1.924 . S
C1071 C515 1.963 . S
C1091 C546 1.284 . S
C1085 C40 1.328 . S
C1111 C594 1.952 . S
C1105 C46 1.934 . S
C1125 C5 1.305 . S
C1131 C622 1.589 . S
C1151 C354 1.347 . S
C1145 C229 1.031 . S
C1165 C249 1.396 . S
C1171 C395 1.354 . S
C1191 C434 1.360 . S
C1185 C271 1.318 . S
C1211 C466 1.596 . S
C1205 C172 1.545 . S
C1225 C236 0.149 . S
C1231 C502 0.157 . S
C1251 C554 2.364 . S
C1245 C242 2.363 . S
C1271 C591 0.964 . S
C1265 C278 0.976 . S
C1291 C625 1.959 . S
C1285 C179 1.967 . S
C1311 C351 1.827 . S
C1305 C159 1.508 . S
C1325 C285 1.678 . S
C1331 C665 1.844 . S
C1351 C711 1.104 . S
C1345 C333 1.132 . S
C1371 C746 1.478 1_655 S
C1365 C320 1.503 . S
C1385 C123 1.822 . S
C1391 C635 1.759 . S
C1405 C138 1.398 . S
C1411 C431 1.360 . S
C1425 C326 1.364 . S
C1431 C794 1.356 . S
C1451 C822 0.454 . S
C1445 C298 0.501 . S
C1471 C355 1.924 1_565 S
C1465 C67 1.977 . S
C1491 C834 1.621 . S
C1485 C110 1.656 . S
C1505 C88 1.401 . S
C1511 C435 1.406 . S
C1525 C75 1.266 . S
C1531 C782 1.357 . S
C1551 C506 1.848 . S
C1545 C11 1.883 . S
C1565 C47 1.227 . S
C1571 C715 1.337 . S
C1591 C585 1.873 . S
C1585 C32 1.861 . S
C1611 C871 1.704 . S
C1605 C26 1.759 . S
C1631 C345 1.498 . S
C1625 C152 1.484 . S
C1651 C826 1.358 . S
C1645 C319 1.409 . S
C1665 C124 1.292 . S
C1671 C425 1.309 . S
C1685 C284 1.596 . S
C1691 C795 1.612 . S
C1705 C145 0.814 . S
C1711 C511 0.182 . S
C1731 C705 2.262 . S
C1725 C312 2.242 . S
C1745 C117 0.888 . S
C1751 C582 0.880 . S
C1765 C291 1.872 . S
C1771 C874 1.900 . S
C1785 C194 1.990 1_556 S
C1791 C342 1.922 . S
C1805 C180 1.826 . S
C1811 C674 1.783 . S
C1825 C263 0.992 . S
C1831 C542 1.034 . S
C1845 C243 1.242 . S
C1851 C755 1.360 . S
C1871 C866 1.820 . S
C1865 C277 1.818 . S
C1885 C215 1.242 . S
C1891 C422 1.335 . S
C1911 C465 1.225 . S
C1905 C256 1.106 . S
C1931 C391 0.530 . S
C1925 C200 0.574 . S
C1945 C81 2.031 . S
C1951 C906 1.966 . S
C1971 C825 1.674 . S
C1965 C89 1.560 . S
C1985 C102 1.364 . S
C1991 C946 1.399 1_556 S
C2005 C68 1.462 . S
C2011 C791 1.423 . S
C2025 C53 1.923 . S
C2031 C675 1.966 . S
C2051 C706 1.283 . S
C2045 C12 1.327 . S
C2071 C754 1.957 . S
C2065 C18 1.929 . S
C2091 C862 1.599 . S
C2085 C33 1.303 . S
C2111 C914 1.348 . S
C2105 C257 1.029 . S
C2125 C193 1.390 . S
C2131 C835 1.369 . S
C2151 C954 1.359 . S
C2145 C201 1.293 . S
C2171 C786 1.599 . S
C2165 C214 1.530 . S
C2191 C662 0.193 . S
C2185 C264 0.149 . S
C2205 C186 2.364 . S
C2211 C714 2.359 . S
C2231 C751 0.907 . S
C2225 C208 0.930 . S
C2245 C221 1.961 . S
C2251 C865 1.951 . S
C2271 C911 1.816 . S
C2265 C313 1.473 . S
C2285 C131 1.667 . S
C2291 C505 1.849 . S
C2311 C551 1.103 . S
C2305 C151 1.132 . S
C2331 C586 1.484 . S
C2325 C166 1.506 . S
C2351 C875 1.766 . S
C2345 C305 1.834 . S
C2365 C292 1.399 . S
C2371 C951 1.367 . S
C2391 C474 1.355 . S
C2385 C144 1.358 . S
C2411 C382 0.444 . S
C2405 C116 0.472 . S
C2425 C95 1.977 . S
C2431 C915 1.952 . S
C2451 C394 1.605 . S
C2445 C82 1.652 . S
C2465 C60 1.394 . S
C2471 C955 1.408 . S
C2485 C103 1.246 . S
C2491 C462 1.369 . S
C2505 C39 1.883 . S
C2511 C666 1.848 1_556 S
C2531 C555 1.325 . S
C2525 C19 1.228 . S
C2545 C4 1.861 . S
C2551 C745 1.874 . S
C2565 C54 1.754 . S
C2571 C631 1.691 . S
C2591 C905 1.508 . S
C2585 C334 1.480 . S
C2605 C165 1.419 . S
C2611 C386 1.381 . S
C2631 C945 1.312 . S
C2625 C306 1.281 . S
C2645 C130 1.594 . S
C2651 C475 1.604 . S
C2665 C327 0.745 . S
C2671 C671 0.131 . S
C2691 C545 2.257 . S
C2685 C158 2.250 1_556 S
C2705 C299 0.892 . S
C2711 C742 0.896 . S
C2731 C634 1.899 . S
C2725 C137 1.877 . S
C2751 C902 1.911 . S
C2745 C250 1.983 . S
C2771 C514 1.785 1_655 S
C2765 C222 1.827 . S
C2785 C235 1.037 . S
C2791 C702 1.069 . S
C2811 C595 1.368 . S
C2805 C187 1.245 . S
C2825 C207 1.798 . S
C2831 C626 1.796 . S
C2845 C173 1.204 . S
C2851 C942 1.345 . S
C2871 C785 1.231 . S
C2865 C228 1.133 1_565 S
C2891 C831 0.489 . S
C2885 C270 0.515 . S
