# Generated by pormake.
# Topology pyr, (3,6)-cn, num edge types: 1
# Building blocks:
#     Node 0, Type 0, BuildingBlock: OLANEW_clean_sbu_2, # of connection points: 3
#     Node 1, Type 0, BuildingBlock: OLANEW_clean_sbu_2, # of connection points: 3
#     Node 2, Type 0, BuildingBlock: OLANEW_clean_sbu_2, # of connection points: 3
#     Node 3, Type 0, BuildingBlock: OLANEW_clean_sbu_2, # of connection points: 3
#     Node 4, Type 0, BuildingBlock: OLANEW_clean_sbu_2, # of connection points: 3
#     Node 5, Type 0, BuildingBlock: OLANEW_clean_sbu_2, # of connection points: 3
#     Node 6, Type 0, BuildingBlock: OLANEW_clean_sbu_2, # of connection points: 3
#     Node 7, Type 0, BuildingBlock: OLANEW_clean_sbu_2, # of connection points: 3
#     Node 8, Type 1, BuildingBlock: JUFBIX_clean_sbu_0, # of connection points: 6
#     Node 9, Type 1, BuildingBlock: JUFBIX_clean_sbu_0, # of connection points: 6
#     Node 10, Type 1, BuildingBlock: JUFBIX_clean_sbu_0, # of connection points: 6
#     Node 11, Type 1, BuildingBlock: JUFBIX_clean_sbu_0, # of connection points: 6
#     Edge 12, Type (0, 1), BuildingBlock: CIFDUS_clean_linker_0, # of connection points: 2
#     Edge 13, Type (0, 1), BuildingBlock: CIFDUS_clean_linker_0, # of connection points: 2
#     Edge 14, Type (0, 1), BuildingBlock: CIFDUS_clean_linker_0, # of connection points: 2
#     Edge 15, Type (0, 1), BuildingBlock: CIFDUS_clean_linker_0, # of connection points: 2
#     Edge 16, Type (0, 1), BuildingBlock: CIFDUS_clean_linker_0, # of connection points: 2
#     Edge 17, Type (0, 1), BuildingBlock: CIFDUS_clean_linker_0, # of connection points: 2
#     Edge 18, Type (0, 1), BuildingBlock: CIFDUS_clean_linker_0, # of connection points: 2
#     Edge 19, Type (0, 1), BuildingBlock: CIFDUS_clean_linker_0, # of connection points: 2
#     Edge 20, Type (0, 1), BuildingBlock: CIFDUS_clean_linker_0, # of connection points: 2
#     Edge 21, Type (0, 1), BuildingBlock: CIFDUS_clean_linker_0, # of connection points: 2
#     Edge 22, Type (0, 1), BuildingBlock: CIFDUS_clean_linker_0, # of connection points: 2
#     Edge 23, Type (0, 1), BuildingBlock: CIFDUS_clean_linker_0, # of connection points: 2
#     Edge 24, Type (0, 1), BuildingBlock: CIFDUS_clean_linker_0, # of connection points: 2
#     Edge 25, Type (0, 1), BuildingBlock: CIFDUS_clean_linker_0, # of connection points: 2
#     Edge 26, Type (0, 1), BuildingBlock: CIFDUS_clean_linker_0, # of connection points: 2
#     Edge 27, Type (0, 1), BuildingBlock: CIFDUS_clean_linker_0, # of connection points: 2
#     Edge 28, Type (0, 1), BuildingBlock: CIFDUS_clean_linker_0, # of connection points: 2
#     Edge 29, Type (0, 1), BuildingBlock: CIFDUS_clean_linker_0, # of connection points: 2
#     Edge 30, Type (0, 1), BuildingBlock: CIFDUS_clean_linker_0, # of connection points: 2
#     Edge 31, Type (0, 1), BuildingBlock: CIFDUS_clean_linker_0, # of connection points: 2
#     Edge 32, Type (0, 1), BuildingBlock: CIFDUS_clean_linker_0, # of connection points: 2
#     Edge 33, Type (0, 1), BuildingBlock: CIFDUS_clean_linker_0, # of connection points: 2
#     Edge 34, Type (0, 1), BuildingBlock: CIFDUS_clean_linker_0, # of connection points: 2
#     Edge 35, Type (0, 1), BuildingBlock: CIFDUS_clean_linker_0, # of connection points: 2
# Relax obj value: 0.136
# Max RMSD: 0.173
# Mean RMSD: 0.119
data_MOF--net-pry--node1-OLANEW_clean_sbu_2--node2-JUFBIX_clean_sbu_0--edge1-CIFDUS_clean_linker_0
_symmetry_space_group_name_H-M    P1
_symmetry_Int_Tables_number       1
_symmetry_cell_setting            triclinic
loop_
_symmetry_equiv_pos_as_xyz
'x, y, z'
_cell_length_a     35.89689
_cell_length_b     33.424263
_cell_length_c     34.801281
_cell_angle_alpha  89.43473
_cell_angle_beta   90.1069
_cell_angle_gamma 96.235655
loop_
_atom_site_label
_atom_site_type_symbol
_atom_site_fract_x
_atom_site_fract_y
_atom_site_fract_z
_atom_type_partial_charge
O0 O 0.23975 0.17212 0.16959 0.0
Cd1 Cd 0.17495 0.19126 0.17753 0.0
O2 O 0.24721 0.14408 0.22689 0.0
Cd3 Cd 0.19497 0.14843 0.25997 0.0
O4 O 0.16055 0.13593 0.31285 0.0
C5 C 0.12527 0.12579 0.31307 0.0
O6 O 0.10713 0.12355 0.2802 0.0
C7 C 0.25962 0.15416 0.19338 0.0
C8 C 0.15057 0.25772 0.13667 0.0
O9 O 0.16199 0.26097 0.17155 0.0
O10 O 0.15209 0.22373 0.12031 0.0
O11 O 0.52558 0.91663 0.7258 0.0
Cd12 Cd 0.52571 0.9008 0.65749 0.0
O13 O 0.4647 0.90939 0.72009 0.0
Cd14 Cd 0.40492 0.90868 0.73315 0.0
O15 O 0.34901 0.9245 0.71887 0.0
C16 C 0.34935 0.94948 0.69109 0.0
O17 O 0.3817 0.96227 0.67517 0.0
C18 C 0.4936 0.91837 0.74084 0.0
C19 C 0.52256 0.81888 0.64228 0.0
O20 O 0.554 0.84088 0.64495 0.0
O21 O 0.49246 0.83556 0.64741 0.0
O22 O 0.76903 0.42467 0.88344 0.0
Cd23 Cd 0.71613 0.38913 0.84819 0.0
O24 O 0.75372 0.39596 0.93924 0.0
Cd25 Cd 0.70364 0.35998 0.91778 0.0
O26 O 0.6587 0.31034 0.91983 0.0
C27 C 0.63716 0.3095 0.94881 0.0
O28 O 0.64186 0.33928 0.97334 0.0
C29 C 0.77579 0.41992 0.91907 0.0
C30 C 0.69349 0.42671 0.78088 0.0
O31 O 0.67733 0.43119 0.81315 0.0
O32 O 0.72105 0.40535 0.78051 0.0
O33 O 0.96993 0.72852 0.47219 0.0
Cd34 Cd 0.92701 0.67066 0.45093 0.0
O35 O 1.00018 0.69891 0.5176 0.0
Cd36 Cd 0.9676 0.64146 0.50547 0.0
O37 O 0.91525 0.60257 0.499 0.0
C38 C 0.89847 0.586 0.5281 0.0
O39 O 0.9148 0.58963 0.5619 0.0
C40 C 0.99441 0.73053 0.49888 0.0
C41 C 0.94541 0.63426 0.3826 0.0
O42 O 0.92617 0.66441 0.38183 0.0
O43 O 0.95647 0.62225 0.41539 0.0
O44 O 0.88634 0.87634 0.84771 0.0
Cd45 Cd 0.86906 0.831 0.90388 0.0
O46 O 0.84164 0.91792 0.84474 0.0
Cd47 Cd 0.79964 0.91015 0.89242 0.0
O48 O 0.74611 0.92311 0.92083 0.0
C49 C 0.74428 0.9447 0.95072 0.0
O50 O 0.7756 0.95937 0.96744 0.0
C51 C 0.8714 0.90518 0.8314 0.0
C52 C 0.91215 0.76602 0.9203 0.0
O53 O 0.88695 0.76347 0.89402 0.0
O54 O 0.91812 0.79953 0.93806 0.0
O55 O 0.56738 0.02073 0.45017 0.0
Cd56 Cd 0.58366 0.01333 0.51806 0.0
O57 O 0.56814 0.08575 0.45726 0.0
Cd58 Cd 0.56155 0.14849 0.44267 0.0
O59 O 0.55646 0.21276 0.44852 0.0
C60 C 0.52756 0.22338 0.46496 0.0
O61 O 0.50118 0.19543 0.47629 0.0
C62 C 0.5639 0.05514 0.43561 0.0
C63 C 0.65997 1.00583 0.52628 0.0
O64 O 0.6363 0.97526 0.51917 0.0
O65 O 0.64756 0.04012 0.53 0.0
O66 O 0.42822 0.74291 0.19889 0.0
Cd67 Cd 0.40869 0.67376 0.22144 0.0
O68 O 0.40158 0.72794 0.14306 0.0
Cd69 Cd 0.37185 0.66967 0.15814 0.0
O70 O 0.31824 0.63315 0.15078 0.0
C71 C 0.30545 0.63006 0.11672 0.0
O72 O 0.32606 0.64646 0.08834 0.0
C73 C 0.42101 0.75282 0.16446 0.0
C74 C 0.44592 0.64622 0.28569 0.0
O75 O 0.46031 0.64585 0.25203 0.0
O76 O 0.41443 0.66061 0.2892 0.0
O77 O 0.10702 0.5488 0.66191 0.0
Cd78 Cd 0.12965 0.56315 0.59656 0.0
O79 O 0.09895 0.48465 0.64791 0.0
Cd80 Cd 0.08748 0.41953 0.65895 0.0
O81 O 0.08098 0.35346 0.66119 0.0
C82 C 0.05002 0.33323 0.65273 0.0
O83 O 0.02123 0.3525 0.64343 0.0
C84 C 0.09717 0.51261 0.67222 0.0
C85 C 0.20614 0.55586 0.59211 0.0
O86 O 0.1817 0.52534 0.58764 0.0
O87 O 0.19439 0.59009 0.59829 0.0
Co88 Co 0.99007 0.02867 0.57212 0.0
C89 C 0.02499 0.95851 0.55901 0.0
Co90 Co 0.04602 0.02719 0.59843 0.0
C91 C 0.90956 0.03162 0.56289 0.0
C92 C 0.93633 0.01135 0.51282 0.0
N93 N 0.94338 0.02493 0.54878 0.0
N94 N 0.8818 0.02212 0.53719 0.0
C95 C 0.89859 0.00944 0.5057 0.0
H96 H 0.90522 0.04191 0.59177 0.0
H97 H 0.95728 1.00254 0.49326 0.0
C98 C 0.0107 0.09834 0.60958 0.0
N99 N 0.09367 0.03166 0.62015 0.0
C100 C 0.11518 1.00345 0.63301 0.0
C101 C 0.11619 0.06668 0.62181 0.0
N102 N 0.15019 0.01976 0.64212 0.0
C103 C 0.15067 0.05951 0.63536 0.0
C104 C 0.04815 0.05873 0.52337 0.0
O105 O 0.98402 0.08064 0.59006 0.0
O106 O 0.03921 0.08001 0.61682 0.0
O107 O 0.06764 0.0503 0.55223 0.0
O108 O 0.01264 0.05202 0.52558 0.0
O109 O 0.05193 0.97449 0.57941 0.0
H110 H 0.10868 0.09556 0.6121 0.0
H111 H 0.10604 0.97151 0.63373 0.0
O112 O 0.99637 0.97704 0.55373 0.0
O113 O 0.96826 1.0051 0.6192 0.0
O114 O 0.02429 1.00372 0.64442 0.0
C115 C 0.98883 0.99629 0.64737 0.0
H116 H 0.88449 0.99937 0.47944 0.0
H117 H 0.17465 0.08176 0.63895 0.0
Co118 Co 0.49211 0.0408 0.0509 0.0
C119 C 0.48685 0.98276 0.11035 0.0
Co120 Co 0.51859 0.06065 0.10577 0.0
C121 C 0.47892 0.01684 0.97141 0.0
C122 C 0.4292 0.00922 1.00573 0.0
N123 N 0.46614 0.02211 1.0073 0.0
N124 N 0.45132 1.00148 0.94761 0.0
C125 C 0.42 0.99681 0.9691 0.0
H126 H 0.50788 0.02406 0.96288 0.0
H127 H 0.41018 0.00815 0.02987 0.0
C128 C 0.52428 0.11858 0.0466 0.0
N129 N 0.54415 0.07956 0.14943 0.0
C130 C 0.53441 0.07466 0.1868 0.0
C131 C 0.57743 0.10254 0.14979 0.0
N132 N 0.56025 0.09395 0.21042 0.0
C133 C 0.58734 0.11148 0.18713 0.0
C134 C 0.5659 0.02488 0.05369 0.0
O135 O 0.50764 0.09096 0.02595 0.0
O136 O 0.53082 0.11134 0.0817 0.0
O137 O 0.56421 0.04229 0.08602 0.0
O138 O 0.53649 0.01996 0.03311 0.0
O139 O 0.50602 0.00983 0.12954 0.0
H140 H 0.59353 0.11213 0.12446 0.0
H141 H 0.50867 0.05766 0.19641 0.0
O142 O 0.4772 0.99065 0.07612 0.0
O143 O 0.44794 0.06235 0.06913 0.0
O144 O 0.47301 0.07888 0.12488 0.0
C145 C 0.44496 0.07734 0.10229 0.0
H146 H 0.39263 0.98412 0.9593 0.0
H147 H 0.6129 0.12888 0.19642 0.0
Co148 Co 0.5763 0.53613 0.52811 0.0
C149 C 0.51498 0.54966 0.48108 0.0
Co150 Co 0.52074 0.51978 0.55443 0.0
C151 C 0.65546 0.53929 0.50918 0.0
C152 C 0.62772 0.584 0.47945 0.0
N153 N 0.62172 0.55318 0.50481 0.0
N154 N 0.68206 0.56009 0.48727 0.0
C155 C 0.66464 0.58817 0.46852 0.0
H156 H 0.66048 0.51462 0.52821 0.0
H157 H 0.60679 0.60292 0.47007 0.0
C158 C 0.58147 0.50723 0.60222 0.0
N159 N 0.47516 0.50261 0.57723 0.0
C160 C 0.44199 0.51784 0.57356 0.0
C161 C 0.46763 0.46896 0.5988 0.0
N162 N 0.414 0.4947 0.59159 0.0
C163 C 0.43012 0.46401 0.60763 0.0
C164 C 0.54995 0.45768 0.5143 0.0
O165 O 0.6014 0.52004 0.57354 0.0
O166 O 0.54601 0.5049 0.59948 0.0
O167 O 0.52247 0.4671 0.53406 0.0
O168 O 0.5774 0.48413 0.5077 0.0
O169 O 0.49574 0.53529 0.50954 0.0
H170 H 0.48793 0.44862 0.60661 0.0
H171 H 0.43814 0.54439 0.55657 0.0
O172 O 0.55049 0.55202 0.48308 0.0
O173 O 0.57511 0.58815 0.54881 0.0
O174 O 0.51954 0.57241 0.5744 0.0
C175 C 0.5477 0.5982 0.56821 0.0
H176 H 0.67799 0.61117 0.44945 0.0
H177 H 0.41574 0.43941 0.62412 0.0
Co178 Co 0.0402 0.50942 0.00944 0.0
C179 C 0.96494 0.48844 0.03181 0.0
Co180 Co 0.02535 0.52618 0.0683 0.0
C181 C 0.05868 0.51342 0.92755 0.0
C182 C 0.03857 0.45437 0.94784 0.0
N183 N 0.04695 0.49262 0.95958 0.0
N184 N 0.05775 0.4895 0.8963 0.0
C185 C 0.04528 0.45232 0.90922 0.0
H186 H 0.06683 0.54555 0.92706 0.0
H187 H 0.02774 0.42948 0.96616 0.0
C188 C 0.10063 0.54806 0.04391 0.0
N189 N 0.02007 0.54004 0.11979 0.0
C190 C 0.99378 0.55633 0.14075 0.0
C191 C 0.04662 0.53257 0.14565 0.0
N192 N 1.00314 0.55854 0.17855 0.0
C193 C 0.03646 0.54384 0.18131 0.0
C194 C 0.0532 0.451 0.0644 0.0
O195 O 0.09016 0.53335 0.01169 0.0
O196 O 0.07698 0.54764 0.07108 0.0
O197 O 0.03827 0.47536 0.08563 0.0
O198 O 0.05683 0.45938 0.02879 0.0
O199 O 0.97352 0.50468 0.0641 0.0
H200 H 0.07199 0.51928 0.13908 0.0
H201 H 0.96817 0.56558 0.12879 0.0
O202 O 0.99032 0.48611 1.00687 0.0
O203 O 0.02365 0.55971 0.99125 0.0
O204 O 0.01249 0.57705 0.05066 0.0
C205 C 0.01271 0.58516 0.01477 0.0
H206 H 0.04143 0.42534 0.89209 0.0
H207 H 0.05266 0.54171 0.20738 0.0
H208 H 0.15464 0.12117 0.38544 0.0
H209 H 0.04997 0.10547 0.32337 0.0
H210 H 0.01665 0.08495 0.38266 0.0
H211 H 0.01724 0.06927 0.45221 0.0
H212 H 0.12234 0.08403 0.51366 0.0
H213 H 0.15508 0.10707 0.45489 0.0
C214 C 0.12451 0.11347 0.38484 0.0
C215 C 0.105 0.11488 0.34975 0.0
C216 C 0.10542 0.10136 0.41911 0.0
C217 C 0.06589 0.10466 0.34978 0.0
C218 C 0.04672 0.09286 0.38377 0.0
C219 C 0.04726 0.07781 0.45281 0.0
C220 C 0.06717 0.0748 0.48749 0.0
C221 C 0.06619 0.0908 0.41862 0.0
C222 C 0.10616 0.08585 0.48751 0.0
C223 C 0.12502 0.09907 0.45382 0.0
H224 H 0.43756 0.9551 0.77387 0.0
H225 H 0.54496 0.91368 0.79778 0.0
H226 H 0.54238 0.93761 0.86374 0.0
H227 H 0.50885 0.96909 0.91512 0.0
H228 H 0.40037 0.00777 0.8916 0.0
H229 H 0.40362 0.98529 0.82517 0.0
C230 C 0.45987 0.95016 0.7937 0.0
C231 C 0.4909 0.93163 0.78111 0.0
C232 C 0.45807 0.96371 0.83165 0.0
C233 C 0.52056 0.92756 0.80683 0.0
C234 C 0.51914 0.94124 0.84455 0.0
C235 C 0.48617 0.97292 0.89526 0.0
C236 C 0.45445 0.99008 0.9081 0.0
C237 C 0.48801 0.95934 0.8573 0.0
C238 C 0.42493 0.99436 0.88234 0.0
C239 C 0.42681 0.98158 0.8444 0.0
H240 H 0.62623 0.45476 0.76923 0.0
H241 H 0.7292 0.43688 0.7114 0.0
H242 H 0.70463 0.46218 0.65125 0.0
H243 H 0.6526 0.48708 0.61438 0.0
H244 H 0.54863 0.50071 0.67246 0.0
H245 H 0.57486 0.47952 0.73295 0.0
C246 C 0.64346 0.45671 0.74356 0.0
C247 C 0.67953 0.44406 0.74488 0.0
C248 C 0.62884 0.47036 0.70894 0.0
C249 C 0.70129 0.44639 0.7112 0.0
C250 C 0.68725 0.46083 0.67676 0.0
C251 C 0.63583 0.48561 0.64035 0.0
C252 C 0.59868 0.49544 0.63881 0.0
C253 C 0.65088 0.47255 0.67516 0.0
C254 C 0.57721 0.49311 0.6727 0.0
C255 C 0.5922 0.48104 0.7074 0.0
H256 H 0.9333 0.65653 0.30783 0.0
H257 H 0.97772 0.56482 0.37722 0.0
H258 H 0.99512 0.53085 0.31955 0.0
H259 H 1.00131 0.52901 0.2501 0.0
H260 H 0.961 0.62147 0.1792 0.0
H261 H 0.93711 0.65263 0.23662 0.0
C262 C 0.94664 0.62902 0.31027 0.0
C263 C 0.95454 0.61351 0.34692 0.0
C264 C 0.95702 0.60965 0.27675 0.0
C265 C 0.97165 0.57772 0.34953 0.0
C266 C 0.98152 0.55813 0.31653 0.0
C267 C 0.98723 0.55597 0.24717 0.0
C268 C 0.98342 0.5733 0.21059 0.0
C269 C 0.97488 0.57415 0.28013 0.0
C270 C 0.96418 0.60756 0.20707 0.0
C271 C 0.95092 0.62554 0.23993 0.0
H272 H 0.28585 0.14157 0.12102 0.0
H273 H 0.318 0.14077 0.24046 0.0
H274 H 0.37832 0.11848 0.22322 0.0
H275 H 0.42166 0.0969 0.17429 0.0
H276 H 0.38769 0.09395 0.05526 0.0
H277 H 0.32895 0.11972 0.07222 0.0
C278 C 0.3062 0.13692 0.14324 0.0
C279 C 0.29727 0.1431 0.18201 0.0
C280 C 0.34067 0.12304 0.1332 0.0
C281 C 0.32394 0.13627 0.2104 0.0
C282 C 0.35854 0.12345 0.20057 0.0
C283 C 0.40146 0.10202 0.15205 0.0
C284 C 0.40933 0.0934 0.11351 0.0
C285 C 0.36715 0.11633 0.16208 0.0
C286 C 0.38254 0.10006 0.08518 0.0
C287 C 0.34883 0.11495 0.09483 0.0
H288 H 0.2766 0.92403 0.71099 0.0
H289 H 0.34411 0.00988 0.63946 0.0
H290 H 0.28814 0.03773 0.61697 0.0
H291 H 0.22059 0.03937 0.61863 0.0
H292 H 0.15148 0.95446 0.68884 0.0
H293 H 0.20739 0.92395 0.71034 0.0
C294 C 0.27899 0.94879 0.69046 0.0
C295 C 0.3146 0.965 0.67719 0.0
C296 C 0.24645 0.96471 0.67732 0.0
C297 C 0.31718 0.99683 0.65029 0.0
C298 C 0.28516 0.01285 0.63736 0.0
C299 C 0.21778 0.0143 0.6388 0.0
C300 C 0.18217 0.99953 0.65265 0.0
C301 C 0.24979 0.99729 0.65091 0.0
C302 C 0.17872 0.96628 0.67787 0.0
C303 C 0.21065 0.94907 0.69026 0.0
H304 H 0.79783 0.41923 0.99464 0.0
H305 H 0.83287 0.46515 0.88236 0.0
H306 H 0.89334 0.49169 0.9085 0.0
H307 H 0.93763 0.49806 0.96149 0.0
H308 H 0.90447 0.45427 0.0746 0.0
H309 H 0.84152 0.43091 0.04993 0.0
C310 C 0.81857 0.43537 0.97596 0.0
C311 C 0.81081 0.43977 0.93638 0.0
C312 C 0.85358 0.45066 0.99124 0.0
C313 C 0.83796 0.4611 0.91277 0.0
C314 C 0.87266 0.47623 0.92767 0.0
C315 C 0.91663 0.4834 0.98087 0.0
C316 C 0.92577 0.47711 0.01964 0.0
C317 C 0.88096 0.47047 0.96657 0.0
C318 C 0.89807 0.45915 0.0446 0.0
C319 C 0.86222 0.44574 0.03042 0.0
H320 H 0.855 0.58221 0.46408 0.0
H321 H 0.85209 0.55344 0.58532 0.0
H322 H 0.78408 0.53772 0.58228 0.0
H323 H 0.72488 0.5409 0.54689 0.0
H324 H 0.72826 0.57272 0.42654 0.0
H325 H 0.79666 0.57838 0.42745 0.0
C326 C 0.83963 0.57188 0.48976 0.0
C327 C 0.85858 0.5696 0.52498 0.0
C328 C 0.80051 0.56388 0.48803 0.0
C329 C 0.83818 0.55582 0.55788 0.0
C330 C 0.79925 0.54696 0.55621 0.0
C331 C 0.74064 0.54812 0.52073 0.0
C332 C 0.72168 0.55687 0.48679 0.0
C333 C 0.78 0.55217 0.52171 0.0
C334 C 0.74237 0.56652 0.45311 0.0
C335 C 0.78142 0.56971 0.45362 0.0
H336 H 0.12164 0.32119 0.1691 0.0
H337 H 0.14212 0.2697 0.05909 0.0
H338 H 0.1138 0.32436 0.02653 0.0
H339 H 0.08288 0.38748 0.02945 0.0
H340 H 0.05987 0.43546 0.14068 0.0
H341 H 0.08903 0.38171 0.17219 0.0
C342 C 0.12015 0.32201 0.13797 0.0
C343 C 0.13439 0.29153 0.11663 0.0
C344 C 0.103 0.35296 0.1195 0.0
C345 C 0.13155 0.29281 0.0763 0.0
C346 C 0.11527 0.32409 0.05763 0.0
C347 C 0.08407 0.386 0.06056 0.0
C348 C 0.06905 0.41577 0.08245 0.0
C349 C 0.10076 0.35438 0.07893 0.0
C350 C 0.07091 0.41314 0.12284 0.0
C351 C 0.0878 0.38237 0.14107 0.0
H352 H 0.59652 0.29462 0.01376 0.0
H353 H 0.61935 0.24268 0.90439 0.0
H354 H 0.58222 0.17982 0.92328 0.0
H355 H 0.54854 0.13742 0.97372 0.0
H356 H 0.53037 0.18921 0.08427 0.0
H357 H 0.56001 0.25434 0.06197 0.0
C358 C 0.59304 0.26979 0.99377 0.0
C359 C 0.61097 0.27328 0.95785 0.0
C360 C 0.57257 0.23353 1.00518 0.0
C361 C 0.60603 0.24073 0.93235 0.0
C362 C 0.58486 0.20473 0.94316 0.0
C363 C 0.5505 0.16323 0.99255 0.0
C364 C 0.53745 0.15861 0.03057 0.0
C365 C 0.56875 0.20044 0.9799 0.0
C366 C 0.54047 0.19206 0.05494 0.0
C367 C 0.55745 0.22928 0.04225 0.0
H368 H 0.9903 0.80212 0.46305 0.0
H369 H 0.03814 0.74908 0.5626 0.0
H370 H 0.05684 0.81615 0.58836 0.0
H371 H 0.05178 0.88984 0.58642 0.0
H372 H 1.00002 0.94046 0.48794 0.0
H373 H 0.99104 0.87468 0.45792 0.0
C374 C 1.00534 0.80511 0.49011 0.0
C375 C 0.01227 0.77054 0.51106 0.0
C376 C 0.01504 0.84355 0.50519 0.0
C377 C 0.03221 0.77516 0.5459 0.0
C378 C 0.04275 0.81355 0.56078 0.0
C379 C 0.03932 0.88639 0.55807 0.0
C380 C 0.02622 0.91972 0.53953 0.0
C381 C 0.03317 0.84797 0.5413 0.0
C382 C 0.00989 0.91504 0.5029 0.0
C383 C 1.00472 0.87746 0.4857 0.0
H384 H 0.58016 0.77903 0.6189 0.0
H385 H 0.46152 0.76213 0.64267 0.0
H386 H 0.45892 0.69174 0.62331 0.0
H387 H 0.49016 0.6355 0.59758 0.0
H388 H 0.60845 0.65412 0.57184 0.0
H389 H 0.61129 0.72322 0.59407 0.0
C390 C 0.55375 0.75992 0.6201 0.0
C391 C 0.52111 0.77582 0.63222 0.0
C392 C 0.55235 0.71976 0.60842 0.0
C393 C 0.48708 0.75066 0.63338 0.0
C394 C 0.48555 0.7104 0.6223 0.0
C395 C 0.51657 0.65464 0.59706 0.0
C396 C 0.549 0.63965 0.58301 0.0
C397 C 0.51798 0.6947 0.60946 0.0
C398 C 0.58299 0.6649 0.58232 0.0
C399 C 0.5847 0.70446 0.59508 0.0
H400 H 0.94325 0.90506 0.8042 0.0
H401 H 0.83718 0.94824 0.77719 0.0
H402 H 0.86335 0.97908 0.71794 0.0
H403 H 0.91654 0.99438 0.67333 0.0
H404 H 0.02357 0.95452 0.70208 0.0
H405 H 0.99698 0.92211 0.76055 0.0
C406 C 0.92582 0.92114 0.78533 0.0
C407 C 0.88817 0.92409 0.79536 0.0
C408 C 0.94129 0.93959 0.75137 0.0
C409 C 0.86625 0.94548 0.77053 0.0
C410 C 0.88119 0.96314 0.73645 0.0
C411 C 0.93403 0.97854 0.69235 0.0
C412 C 0.97205 0.9769 0.68308 0.0
C413 C 0.91869 0.96047 0.72652 0.0
C414 C 0.99429 0.95648 0.70839 0.0
C415 C 0.97907 0.9378 0.74191 0.0
H416 H 0.5862 0.11773 0.38726 0.0
H417 H 0.52508 0.99935 0.39041 0.0
H418 H 0.51632 1.00178 0.32081 0.0
H419 H 0.52939 0.03593 0.25858 0.0
H420 H 0.59124 0.15394 0.2556 0.0
H421 H 0.59592 0.15356 0.32557 0.0
C422 C 0.57002 0.093 0.37291 0.0
C423 C 0.55582 0.0587 0.39408 0.0
C424 C 0.56555 0.09436 0.3328 0.0
C425 C 0.53622 0.02616 0.37474 0.0
C426 C 0.53121 0.0275 0.33495 0.0
C427 C 0.54333 0.0618 0.27329 0.0
C428 C 0.56016 0.09477 0.25184 0.0
C429 C 0.54622 0.06122 0.31359 0.0
C430 C 0.57858 0.1279 0.27137 0.0
C431 C 0.58114 0.12778 0.31141 0.0
H432 H 0.41451 0.62187 0.35419 0.0
H433 H 0.51913 0.63193 0.29221 0.0
H434 H 0.5497 0.60266 0.34694 0.0
H435 H 0.54673 0.5742 0.4125 0.0
H436 H 0.44132 0.56164 0.47331 0.0
H437 H 0.41107 0.59154 0.41889 0.0
C438 C 0.44405 0.61785 0.35274 0.0
C439 C 0.46456 0.62934 0.31926 0.0
C440 C 0.46127 0.60027 0.38403 0.0
C441 C 0.5027 0.6234 0.31765 0.0
C442 C 0.5202 0.60663 0.34893 0.0
C443 C 0.5171 0.57785 0.4138 0.0
C444 C 0.49638 0.56567 0.44701 0.0
C445 C 0.49975 0.59487 0.38225 0.0
C446 C 0.45797 0.57054 0.4481 0.0
C447 C 0.44063 0.58782 0.41702 0.0
H448 H 0.12024 0.55385 0.73612 0.0
H449 H 0.04538 0.45239 0.6977 0.0
H450 H 0.02632 0.43669 0.76389 0.0
H451 H 0.03095 0.45171 0.83237 0.0
H452 H 0.10602 0.55267 0.87162 0.0
H453 H 0.12411 0.56951 0.80521 0.0
C454 C 0.09972 0.52833 0.74231 0.0
C455 C 0.08499 0.50362 0.71218 0.0
C456 C 0.08867 0.51971 0.78046 0.0
C457 C 0.05823 0.47088 0.72048 0.0
C458 C 0.04695 0.46223 0.75829 0.0
C459 C 0.05158 0.47716 0.82658 0.0
C460 C 0.06736 0.50063 0.85711 0.0
C461 C 0.06221 0.48625 0.78849 0.0
C462 C 0.09325 0.53422 0.84876 0.0
C463 C 0.10378 0.5437 0.81079 0.0
H464 H 0.73089 0.98509 0.0164 0.0
H465 H 0.67436 0.92773 0.91867 0.0
H466 H 0.61457 0.94704 0.94171 0.0
H467 H 0.57818 0.98149 0.98913 0.0
H468 H 0.63505 0.03786 0.08722 0.0
H469 H 0.69447 0.01767 0.06453 0.0
C470 C 0.70553 0.97664 1.00011 0.0
C471 C 0.70742 0.95497 0.96567 0.0
C472 C 0.67109 0.98779 0.01361 0.0
C473 C 0.674 0.9443 0.94522 0.0
C474 C 0.63968 0.95544 0.95838 0.0
C475 C 0.60354 0.98931 1.00563 0.0
C476 C 0.60189 0.01134 0.03993 0.0
C477 C 0.63787 0.97739 0.99246 0.0
C478 C 0.63521 0.02097 0.06083 0.0
C479 C 0.66934 0.00944 0.04782 0.0
H480 H 0.71513 0.05836 0.5574 0.0
H481 H 0.69585 0.94389 0.50028 0.0
H482 H 0.763 0.93829 0.49993 0.0
H483 H 0.82737 0.96713 0.5132 0.0
H484 H 0.84758 0.07999 0.57223 0.0
H485 H 0.77986 0.08492 0.57507 0.0
C486 C 0.72567 0.03214 0.54504 0.0
C487 C 0.70055 1.00176 0.52857 0.0
C488 C 0.76441 0.02886 0.54532 0.0
C489 C 0.71455 0.96772 0.5131 0.0
C490 C 0.75296 0.96451 0.5128 0.0
C491 C 0.81683 0.99273 0.52672 0.0
C492 C 0.8422 0.02341 0.54207 0.0
C493 C 0.77813 0.99508 0.52839 0.0
C494 C 0.8284 0.05605 0.5603 0.0
C495 C 0.7898 0.05892 0.5617 0.0
H496 H 0.27197 0.61481 0.04744 0.0
H497 H 0.2517 0.60449 0.1696 0.0
H498 H 0.18648 0.57891 0.15761 0.0
H499 H 0.13496 0.56101 0.11267 0.0
H500 H 0.15519 0.56933 0.99049 0.0
H501 H 0.22077 0.59443 1.00232 0.0
C502 C 0.25335 0.6068 0.07146 0.0
C503 C 0.26671 0.61174 0.10937 0.0
C504 C 0.21586 0.59205 0.06438 0.0
C505 C 0.24222 0.60097 0.14014 0.0
C506 C 0.20486 0.58648 0.13332 0.0
C507 C 0.15365 0.56847 0.08859 0.0
C508 C 0.14016 0.56369 0.05075 0.0
C509 C 0.19132 0.58226 0.09559 0.0
C510 C 0.16488 0.5729 0.01989 0.0
C511 C 0.20236 0.5872 0.02663 0.0
H512 H 0.23876 0.48642 0.59141 0.0
H513 H 0.26466 0.61556 0.59032 0.0
H514 H 0.33166 0.60809 0.58931 0.0
H515 H 0.383 0.56461 0.58979 0.0
H516 H 0.3564 0.43566 0.59224 0.0
H517 H 0.28963 0.4433 0.59196 0.0
C518 C 0.25902 0.51297 0.59079 0.0
C519 C 0.2467 0.55147 0.59084 0.0
C520 C 0.29743 0.50847 0.59068 0.0
C521 C 0.27338 0.58555 0.59033 0.0
C522 C 0.31171 0.58131 0.58974 0.0
C523 C 0.36253 0.53827 0.59 0.0
C524 C 0.37465 0.49965 0.59119 0.0
C525 C 0.32407 0.5429 0.59003 0.0
C526 C 0.34783 0.46572 0.59192 0.0
C527 C 0.30962 0.47005 0.59151 0.0
H528 H 0.95074 0.75364 0.98642 0.0
H529 H 0.91872 0.69845 0.8781 0.0
H530 H 0.9491 0.63899 0.89635 0.0
H531 H 0.98262 0.60103 0.94442 0.0
H532 H 0.01052 0.65473 0.05439 0.0
H533 H 0.98426 0.716 0.0342 0.0
C534 C 0.9507 0.72877 0.96663 0.0
C535 C 0.93252 0.73076 0.93081 0.0
C536 C 0.96749 0.69412 0.97772 0.0
C537 C 0.93242 0.69789 0.90583 0.0
C538 C 0.94982 0.66378 0.91627 0.0
C539 C 0.98332 0.62633 0.96378 0.0
C540 C 0.99878 0.62322 1.00086 0.0
C541 C 0.96717 0.66132 0.95231 0.0
C542 C 0.99885 0.65616 0.02574 0.0
C543 C 0.98379 0.6913 0.01421 0.0
H544 H 0.45506 0.8184 0.20278 0.0
H545 H 0.41437 0.77918 0.09091 0.0
H546 H 0.4306 0.84646 0.06489 0.0
H547 H 0.45518 0.91662 0.07349 0.0
H548 H 0.49671 0.95723 0.18447 0.0
H549 H 0.48119 0.88943 0.21109 0.0
C550 C 0.44998 0.82454 0.17268 0.0
C551 C 0.4334 0.79362 0.14897 0.0
C552 C 0.45929 0.86366 0.15768 0.0
C553 C 0.42697 0.80225 0.10999 0.0
C554 C 0.43619 0.84082 0.09497 0.0
C555 C 0.46077 0.91077 0.10356 0.0
C556 C 0.47691 0.94203 0.12695 0.0
C557 C 0.45207 0.87179 0.11857 0.0
C558 C 0.48421 0.93372 0.16579 0.0
C559 C 0.47539 0.89493 0.18104 0.0
H560 H 0.98969 0.28179 0.631 0.0
H561 H 0.10406 0.28428 0.67034 0.0
H562 H 0.10091 0.21141 0.66329 0.0
H563 H 0.06709 0.14761 0.64233 0.0
H564 H 0.95332 0.14528 0.60127 0.0
H565 H 0.95478 0.21734 0.61306 0.0
C566 C 0.01387 0.26641 0.63831 0.0
C567 C 0.04714 0.28864 0.65094 0.0
C568 C 0.01202 0.22447 0.63385 0.0
C569 C 0.07813 0.26806 0.66037 0.0
C570 C 0.07638 0.22633 0.65634 0.0
C571 C 0.04244 0.16271 0.63634 0.0
C572 C 0.01021 0.141 0.62075 0.0
C573 C 0.04366 0.20431 0.64259 0.0
C574 C 0.97856 0.1612 0.61316 0.0
C575 C 0.97939 0.20247 0.6198 0.0
H576 H 0.57914 0.28774 0.45026 0.0
H577 H 0.46975 0.25537 0.49996 0.0
H578 H 0.46656 0.3251 0.51848 0.0
H579 H 0.49573 0.39473 0.5229 0.0
H580 H 0.60535 0.42713 0.47375 0.0
H581 H 0.6074 0.35798 0.45268 0.0
C582 C 0.55448 0.29595 0.46492 0.0
C583 C 0.52482 0.26624 0.47383 0.0
C584 C 0.55289 0.33612 0.47577 0.0
C585 C 0.49307 0.27752 0.49282 0.0
C586 C 0.49121 0.31742 0.50349 0.0
C587 C 0.52003 0.38675 0.50743 0.0
C588 C 0.55039 0.41611 0.50008 0.0
C589 C 0.52112 0.34688 0.49549 0.0
C590 C 0.58159 0.40518 0.47989 0.0
C591 C 0.58282 0.3656 0.46783 0.0
loop_
_geom_bond_atom_site_label_1
_geom_bond_atom_site_label_2
_geom_bond_distance
_geom_bond_site_symmetry_2
_ccdc_geom_bond_type
O0 Cd1 2.300 . S
O0 C7 1.275 . S
Cd1 O0 2.300 . S
Cd1 O9 2.381 . S
Cd1 O10 2.378 . S
O2 Cd3 2.385 . S
O2 C7 1.255 . S
Cd3 O2 2.385 . S
Cd3 O4 2.317 . S
O4 Cd3 2.317 . S
O4 C5 1.232 . S
C5 O4 1.232 . S
C5 O6 1.218 . S
O6 C5 1.218 . S
C7 O0 1.275 . S
C7 O2 1.255 . S
C8 O9 1.258 . S
C8 O10 1.256 . S
O9 Cd1 2.381 . S
O9 C8 1.258 . S
O10 Cd1 2.378 . S
O10 C8 1.256 . S
O11 Cd12 2.300 . S
O11 C18 1.275 . S
Cd12 O11 2.300 . S
Cd12 O20 2.381 . S
Cd12 O21 2.378 . S
O13 Cd14 2.385 . S
O13 C18 1.255 . S
Cd14 O13 2.385 . S
Cd14 O15 2.317 . S
O15 Cd14 2.317 . S
O15 C16 1.232 . S
C16 O15 1.232 . S
C16 O17 1.218 . S
O17 C16 1.218 . S
C18 O11 1.275 . S
C18 O13 1.255 . S
C19 O20 1.258 . S
C19 O21 1.256 . S
O20 Cd12 2.381 . S
O20 C19 1.258 . S
O21 Cd12 2.378 . S
O21 C19 1.256 . S
O22 Cd23 2.300 . S
O22 C29 1.275 . S
Cd23 O22 2.300 . S
Cd23 O31 2.381 . S
Cd23 O32 2.378 . S
O24 Cd25 2.385 . S
O24 C29 1.255 . S
Cd25 O24 2.385 . S
Cd25 O26 2.317 . S
O26 Cd25 2.317 . S
O26 C27 1.232 . S
C27 O26 1.232 . S
C27 O28 1.218 . S
O28 C27 1.218 . S
C29 O22 1.275 . S
C29 O24 1.255 . S
C30 O31 1.258 . S
C30 O32 1.256 . S
O31 Cd23 2.381 . S
O31 C30 1.258 . S
O32 Cd23 2.378 . S
O32 C30 1.256 . S
O33 Cd34 2.300 . S
O33 C40 1.275 . S
Cd34 O33 2.300 . S
Cd34 O42 2.381 . S
Cd34 O43 2.378 . S
O35 Cd36 2.385 . S
O35 C40 1.255 . S
Cd36 O35 2.385 . S
Cd36 O37 2.317 . S
O37 Cd36 2.317 . S
O37 C38 1.232 . S
C38 O37 1.232 . S
C38 O39 1.218 . S
O39 C38 1.218 . S
C40 O33 1.275 . S
C40 O35 1.255 . S
C41 O42 1.258 . S
C41 O43 1.256 . S
O42 Cd34 2.381 . S
O42 C41 1.258 . S
O43 Cd34 2.378 . S
O43 C41 1.256 . S
O44 Cd45 2.300 . S
O44 C51 1.275 . S
Cd45 O44 2.300 . S
Cd45 O53 2.381 . S
Cd45 O54 2.378 . S
O46 Cd47 2.385 . S
O46 C51 1.255 . S
Cd47 O46 2.385 . S
Cd47 O48 2.317 . S
O48 Cd47 2.317 . S
O48 C49 1.232 . S
C49 O48 1.232 . S
C49 O50 1.218 . S
O50 C49 1.218 . S
C51 O44 1.275 . S
C51 O46 1.255 . S
C52 O53 1.258 . S
C52 O54 1.256 . S
O53 Cd45 2.381 . S
O53 C52 1.258 . S
O54 Cd45 2.378 . S
O54 C52 1.256 . S
O55 Cd56 2.300 . S
O55 C62 1.275 . S
Cd56 O55 2.300 . S
Cd56 O64 2.381 . S
Cd56 O65 2.378 . S
O57 Cd58 2.385 . S
O57 C62 1.255 . S
Cd58 O57 2.385 . S
Cd58 O59 2.317 . S
O59 Cd58 2.317 . S
O59 C60 1.232 . S
C60 O59 1.232 . S
C60 O61 1.218 . S
O61 C60 1.218 . S
C62 O55 1.275 . S
C62 O57 1.255 . S
C63 O64 1.258 . S
C63 O65 1.256 . S
O64 Cd56 2.381 . S
O64 C63 1.258 . S
O65 Cd56 2.378 . S
O65 C63 1.256 . S
O66 Cd67 2.300 . S
O66 C73 1.275 . S
Cd67 O66 2.300 . S
Cd67 O75 2.381 . S
Cd67 O76 2.378 . S
O68 Cd69 2.385 . S
O68 C73 1.255 . S
Cd69 O68 2.385 . S
Cd69 O70 2.317 . S
O70 Cd69 2.317 . S
O70 C71 1.232 . S
C71 O70 1.232 . S
C71 O72 1.218 . S
O72 C71 1.218 . S
C73 O66 1.275 . S
C73 O68 1.255 . S
C74 O75 1.258 . S
C74 O76 1.256 . S
O75 Cd67 2.381 . S
O75 C74 1.258 . S
O76 Cd67 2.378 . S
O76 C74 1.256 . S
O77 Cd78 2.300 . S
O77 C84 1.275 . S
Cd78 O77 2.300 . S
Cd78 O86 2.381 . S
Cd78 O87 2.378 . S
O79 Cd80 2.385 . S
O79 C84 1.255 . S
Cd80 O79 2.385 . S
Cd80 O81 2.317 . S
O81 Cd80 2.317 . S
O81 C82 1.232 . S
C82 O81 1.232 . S
C82 O83 1.218 . S
O83 C82 1.218 . S
C84 O77 1.275 . S
C84 O79 1.255 . S
C85 O86 1.258 . S
C85 O87 1.256 . S
O86 Cd78 2.381 . S
O86 C85 1.258 . S
O87 Cd78 2.378 . S
O87 C85 1.256 . S
Co88 N93 2.057 . S
Co88 O105 2.021 . S
Co88 O108 2.062 . S
Co88 O112 2.117 1_545 S
Co88 O113 2.020 1_545 S
C89 O109 1.259 1_655 S
C89 O112 1.258 . S
Co90 N99 2.057 . S
Co90 O106 2.117 1_565 S
Co90 O107 2.020 1_565 S
Co90 O109 2.021 . S
Co90 O114 2.062 . S
C91 N93 1.316 . S
C91 N94 1.347 . S
C91 H96 0.931 . S
C92 N93 1.375 1_565 S
C92 C95 1.350 1_565 S
C92 H97 0.930 . S
N93 Co88 2.057 . S
N93 C91 1.316 . S
N93 C92 1.375 1_545 S
N94 C91 1.347 . S
N94 C95 1.373 . S
C95 C92 1.350 1_545 S
C95 N94 1.373 . S
C95 H116 0.931 1_545 S
H96 C91 0.931 . S
H97 C92 0.930 . S
C98 O105 1.259 1_455 S
C98 O106 1.258 . S
N99 Co90 2.057 . S
N99 C100 1.316 . S
N99 C101 1.375 1_565 S
C100 N99 1.316 . S
C100 N102 1.347 . S
C100 H111 0.931 . S
C101 N99 1.375 1_545 S
C101 C103 1.350 . S
C101 H110 0.930 . S
N102 C100 1.347 . S
N102 C103 1.373 1_565 S
C103 C101 1.350 . S
C103 N102 1.373 1_545 S
C103 H117 0.931 . S
C104 O107 1.256 . S
C104 O108 1.255 1_455 S
O105 Co88 2.021 . S
O105 C98 1.259 1_655 S
O106 Co90 2.117 1_545 S
O106 C98 1.258 . S
O107 Co90 2.020 1_545 S
O107 C104 1.256 . S
O108 Co88 2.062 . S
O108 C104 1.255 1_655 S
O109 C89 1.259 1_455 S
O109 Co90 2.021 . S
H110 C101 0.930 . S
H111 C100 0.931 . S
O112 Co88 2.117 1_565 S
O112 C89 1.258 . S
O113 Co88 2.020 1_565 S
O113 C115 1.256 . S
O114 Co90 2.062 . S
O114 C115 1.255 1_455 S
C115 O113 1.256 . S
C115 O114 1.255 1_655 S
H116 C95 0.931 1_565 S
H117 C103 0.931 . S
Co118 N123 2.057 1_544 S
Co118 O135 2.021 . S
Co118 O138 2.062 . S
Co118 O142 2.117 1_545 S
Co118 O143 2.020 . S
C119 O139 1.259 . S
C119 O142 1.258 . S
Co120 N129 2.057 . S
Co120 O136 2.117 . S
Co120 O137 2.020 . S
Co120 O139 2.021 1_545 S
Co120 O144 2.062 . S
C121 N123 1.316 1_545 S
C121 N124 1.347 1_545 S
C121 H126 0.931 . S
C122 N123 1.375 . S
C122 C125 1.350 . S
C122 H127 0.930 . S
N123 Co118 2.057 1_566 S
N123 C121 1.316 1_565 S
N123 C122 1.375 . S
N124 C121 1.347 1_565 S
N124 C125 1.373 . S
C125 C122 1.350 . S
C125 N124 1.373 . S
C125 H146 0.931 . S
H126 C121 0.931 . S
H127 C122 0.930 . S
C128 O135 1.259 . S
C128 O136 1.258 . S
N129 Co120 2.057 . S
N129 C130 1.316 . S
N129 C131 1.375 . S
C130 N129 1.316 . S
C130 N132 1.347 . S
C130 H141 0.931 . S
C131 N129 1.375 . S
C131 C133 1.350 . S
C131 H140 0.930 . S
N132 C130 1.347 . S
N132 C133 1.373 . S
C133 C131 1.350 . S
C133 N132 1.373 . S
C133 H147 0.931 . S
C134 O137 1.256 . S
C134 O138 1.255 . S
O135 Co118 2.021 . S
O135 C128 1.259 . S
O136 Co120 2.117 . S
O136 C128 1.258 . S
O137 Co120 2.020 . S
O137 C134 1.256 . S
O138 Co118 2.062 . S
O138 C134 1.255 . S
O139 C119 1.259 . S
O139 Co120 2.021 1_565 S
H140 C131 0.930 . S
H141 C130 0.931 . S
O142 Co118 2.117 1_565 S
O142 C119 1.258 . S
O143 Co118 2.020 . S
O143 C145 1.256 . S
O144 Co120 2.062 . S
O144 C145 1.255 . S
C145 O143 1.256 . S
C145 O144 1.255 . S
H146 C125 0.931 . S
H147 C133 0.931 . S
Co148 N153 2.057 . S
Co148 O165 2.021 . S
Co148 O168 2.062 . S
Co148 O172 2.117 . S
Co148 O173 2.020 . S
C149 O169 1.259 . S
C149 O172 1.258 . S
Co150 N159 2.057 . S
Co150 O166 2.117 . S
Co150 O167 2.020 . S
Co150 O169 2.021 . S
Co150 O174 2.062 . S
C151 N153 1.316 . S
C151 N154 1.347 . S
C151 H156 0.931 . S
C152 N153 1.375 . S
C152 C155 1.350 . S
C152 H157 0.930 . S
N153 Co148 2.057 . S
N153 C151 1.316 . S
N153 C152 1.375 . S
N154 C151 1.347 . S
N154 C155 1.373 . S
C155 C152 1.350 . S
C155 N154 1.373 . S
C155 H176 0.931 . S
H156 C151 0.931 . S
H157 C152 0.930 . S
C158 O165 1.259 . S
C158 O166 1.258 . S
N159 Co150 2.057 . S
N159 C160 1.316 . S
N159 C161 1.375 . S
C160 N159 1.316 . S
C160 N162 1.347 . S
C160 H171 0.931 . S
C161 N159 1.375 . S
C161 C163 1.350 . S
C161 H170 0.930 . S
N162 C160 1.347 . S
N162 C163 1.373 . S
C163 C161 1.350 . S
C163 N162 1.373 . S
C163 H177 0.931 . S
C164 O167 1.256 . S
C164 O168 1.255 . S
O165 Co148 2.021 . S
O165 C158 1.259 . S
O166 Co150 2.117 . S
O166 C158 1.258 . S
O167 Co150 2.020 . S
O167 C164 1.256 . S
O168 Co148 2.062 . S
O168 C164 1.255 . S
O169 C149 1.259 . S
O169 Co150 2.021 . S
H170 C161 0.930 . S
H171 C160 0.931 . S
O172 Co148 2.117 . S
O172 C149 1.258 . S
O173 Co148 2.020 . S
O173 C175 1.256 . S
O174 Co150 2.062 . S
O174 C175 1.255 . S
C175 O173 1.256 . S
C175 O174 1.255 . S
H176 C155 0.931 . S
H177 C163 0.931 . S
Co178 N183 2.057 . S
Co178 O195 2.021 . S
Co178 O198 2.062 1_556 S
Co178 O202 2.117 1_455 S
Co178 O203 2.020 . S
C179 O199 1.259 . S
C179 O202 1.258 1_554 S
Co180 N189 2.057 . S
Co180 O196 2.117 . S
Co180 O197 2.020 . S
Co180 O199 2.021 1_455 S
Co180 O204 2.065 . S
C181 N183 1.316 . S
C181 N184 1.347 . S
C181 H186 0.931 . S
C182 N183 1.375 . S
C182 C185 1.350 . S
C182 H187 0.930 1_455 S
N183 Co178 2.057 . S
N183 C181 1.316 . S
N183 C182 1.375 . S
N184 C181 1.347 . S
N184 C185 1.373 . S
C185 C182 1.350 . S
C185 N184 1.373 . S
C185 H206 0.931 . S
H186 C181 0.931 . S
H187 C182 0.930 1_655 S
C188 O195 1.258 1_554 S
C188 O196 1.258 . S
N189 Co180 2.057 . S
N189 C190 1.316 1_455 S
N189 C191 1.375 . S
C190 N189 1.316 1_655 S
C190 N192 1.347 . S
C190 H201 0.931 . S
C191 N189 1.375 . S
C191 C193 1.350 . S
C191 H200 0.930 . S
N192 C190 1.347 . S
N192 C193 1.373 1_655 S
C193 C191 1.350 . S
C193 N192 1.373 1_455 S
C193 H207 0.931 . S
C194 O197 1.256 . S
C194 O198 1.255 . S
O195 Co178 2.021 . S
O195 C188 1.258 1_556 S
O196 Co180 2.117 . S
O196 C188 1.258 . S
O197 Co180 2.020 . S
O197 C194 1.256 . S
O198 Co178 2.062 1_554 S
O198 C194 1.255 . S
O199 C179 1.259 . S
O199 Co180 2.021 1_655 S
H200 C191 0.930 . S
H201 C190 0.931 . S
O202 Co178 2.117 1_655 S
O202 C179 1.258 1_556 S
O203 Co178 2.020 . S
O203 C205 1.256 1_556 S
O204 Co180 2.065 . S
O204 C205 1.257 . S
C205 O203 1.256 1_554 S
C205 O204 1.257 . S
H206 C185 0.931 . S
H207 C193 0.931 . S
H208 C214 0.930 . S
H209 C217 0.930 1_565 S
H210 C218 0.930 1_565 S
H211 C219 0.930 1_565 S
H212 C222 0.930 . S
H213 C223 0.930 . S
C214 H208 0.930 . S
C214 C215 1.355 . S
C214 C216 1.415 . S
C215 C214 1.355 . S
C215 C217 1.419 . S
C216 C214 1.415 . S
C216 C221 1.425 . S
C216 C223 1.409 . S
C217 H209 0.930 1_545 S
C217 C215 1.419 . S
C217 C218 1.362 . S
C218 H210 0.930 1_545 S
C218 C217 1.362 . S
C218 C221 1.409 . S
C219 H211 0.930 1_545 S
C219 C220 1.355 . S
C219 C221 1.415 . S
C220 C219 1.355 . S
C220 C222 1.419 . S
C221 C216 1.425 . S
C221 C218 1.409 . S
C221 C219 1.415 . S
C222 H212 0.930 . S
C222 C220 1.419 . S
C222 C223 1.362 . S
C223 H213 0.930 . S
C223 C216 1.409 . S
C223 C222 1.362 . S
H224 C230 0.930 . S
H225 C233 0.930 . S
H226 C234 0.930 1_545 S
H227 C235 0.930 1_545 S
H228 C238 0.930 . S
H229 C239 0.930 . S
C230 H224 0.930 . S
C230 C231 1.355 . S
C230 C232 1.415 . S
C231 C230 1.355 . S
C231 C233 1.419 . S
C232 C230 1.415 . S
C232 C237 1.425 . S
C232 C239 1.409 . S
C233 H225 0.930 . S
C233 C231 1.419 . S
C233 C234 1.362 . S
C234 H226 0.930 1_565 S
C234 C233 1.362 . S
C234 C237 1.409 . S
C235 H227 0.930 1_565 S
C235 C236 1.355 . S
C235 C237 1.415 . S
C236 C235 1.355 . S
C236 C238 1.419 . S
C237 C232 1.425 . S
C237 C234 1.409 . S
C237 C235 1.415 . S
C238 H228 0.930 . S
C238 C236 1.419 . S
C238 C239 1.362 . S
C239 H229 0.930 . S
C239 C232 1.409 . S
C239 C238 1.362 . S
H240 C246 0.930 . S
H241 C249 0.930 . S
H242 C250 0.930 . S
H243 C251 0.930 . S
H244 C254 0.930 . S
H245 C255 0.930 . S
C246 H240 0.930 . S
C246 C247 1.355 . S
C246 C248 1.415 . S
C247 C246 1.355 . S
C247 C249 1.419 . S
C248 C246 1.415 . S
C248 C253 1.425 . S
C248 C255 1.409 . S
C249 H241 0.930 . S
C249 C247 1.419 . S
C249 C250 1.362 . S
C250 H242 0.930 . S
C250 C249 1.362 . S
C250 C253 1.409 . S
C251 H243 0.930 . S
C251 C252 1.355 . S
C251 C253 1.415 . S
C252 C251 1.355 . S
C252 C254 1.419 . S
C253 C248 1.425 . S
C253 C250 1.409 . S
C253 C251 1.415 . S
C254 H244 0.930 . S
C254 C252 1.419 . S
C254 C255 1.362 . S
C255 H245 0.930 . S
C255 C248 1.409 . S
C255 C254 1.362 . S
H256 C262 0.930 . S
H257 C265 0.930 . S
H258 C266 0.930 . S
H259 C267 0.930 . S
H260 C270 0.930 . S
H261 C271 0.930 . S
C262 H256 0.930 . S
C262 C263 1.355 1_455 S
C262 C264 1.415 1_455 S
C263 C262 1.355 1_655 S
C263 C265 1.419 . S
C264 C262 1.415 1_655 S
C264 C269 1.425 . S
C264 C271 1.409 1_655 S
C265 H257 0.930 . S
C265 C263 1.419 . S
C265 C266 1.362 . S
C266 H258 0.930 . S
C266 C265 1.362 . S
C266 C269 1.409 . S
C267 H259 0.930 . S
C267 C268 1.355 . S
C267 C269 1.415 . S
C268 C267 1.355 . S
C268 C270 1.419 1_655 S
C269 C264 1.425 . S
C269 C266 1.409 . S
C269 C267 1.415 . S
C270 H260 0.930 . S
C270 C268 1.419 1_455 S
C270 C271 1.362 . S
C271 H261 0.930 . S
C271 C264 1.409 1_455 S
C271 C270 1.362 . S
H272 C278 0.930 . S
H273 C281 0.930 . S
H274 C282 0.930 . S
H275 C283 0.930 . S
H276 C286 0.930 . S
H277 C287 0.930 . S
C278 H272 0.930 . S
C278 C279 1.355 . S
C278 C280 1.415 . S
C279 C278 1.355 . S
C279 C281 1.419 . S
C280 C278 1.415 . S
C280 C285 1.425 . S
C280 C287 1.409 . S
C281 H273 0.930 . S
C281 C279 1.419 . S
C281 C282 1.362 . S
C282 H274 0.930 . S
C282 C281 1.362 . S
C282 C285 1.409 . S
C283 H275 0.930 . S
C283 C284 1.355 . S
C283 C285 1.415 . S
C284 C283 1.355 . S
C284 C286 1.419 . S
C285 C280 1.425 . S
C285 C282 1.409 . S
C285 C283 1.415 . S
C286 H276 0.930 . S
C286 C284 1.419 . S
C286 C287 1.362 . S
C287 H277 0.930 . S
C287 C280 1.409 . S
C287 C286 1.362 . S
H288 C294 0.930 . S
H289 C297 0.930 . S
H290 C298 0.930 1_545 S
H291 C299 0.930 . S
H292 C302 0.930 . S
H293 C303 0.930 . S
C294 H288 0.930 . S
C294 C295 1.355 . S
C294 C296 1.415 . S
C295 C294 1.355 . S
C295 C297 1.419 . S
C296 C294 1.415 . S
C296 C301 1.425 . S
C296 C303 1.409 . S
C297 H289 0.930 . S
C297 C295 1.419 . S
C297 C298 1.362 . S
C298 H290 0.930 1_565 S
C298 C297 1.362 . S
C298 C301 1.409 . S
C299 H291 0.930 . S
C299 C300 1.355 . S
C299 C301 1.415 . S
C300 C299 1.355 . S
C300 C302 1.419 . S
C301 C296 1.425 . S
C301 C298 1.409 . S
C301 C299 1.415 . S
C302 H292 0.930 . S
C302 C300 1.419 . S
C302 C303 1.362 . S
C303 H293 0.930 . S
C303 C296 1.409 . S
C303 C302 1.362 . S
H304 C310 0.930 . S
H305 C313 0.930 . S
H306 C314 0.930 . S
H307 C315 0.930 . S
H308 C318 0.930 . S
H309 C319 0.930 . S
C310 H304 0.930 . S
C310 C311 1.355 . S
C310 C312 1.415 . S
C311 C310 1.355 . S
C311 C313 1.419 1_556 S
C312 C310 1.415 . S
C312 C317 1.425 . S
C312 C319 1.409 . S
C313 H305 0.930 . S
C313 C311 1.419 1_554 S
C313 C314 1.362 . S
C314 H306 0.930 . S
C314 C313 1.362 . S
C314 C317 1.409 1_554 S
C315 H307 0.930 . S
C315 C316 1.355 1_554 S
C315 C317 1.415 1_554 S
C316 C315 1.355 1_556 S
C316 C318 1.419 . S
C317 C312 1.425 . S
C317 C314 1.409 1_556 S
C317 C315 1.415 1_556 S
C318 H308 0.930 . S
C318 C316 1.419 . S
C318 C319 1.362 . S
C319 H309 0.930 . S
C319 C312 1.409 . S
C319 C318 1.362 . S
H320 C326 0.930 . S
H321 C329 0.930 . S
H322 C330 0.930 . S
H323 C331 0.930 . S
H324 C334 0.930 . S
H325 C335 0.930 . S
C326 H320 0.930 . S
C326 C327 1.355 . S
C326 C328 1.415 . S
C327 C326 1.355 . S
C327 C329 1.419 . S
C328 C326 1.415 . S
C328 C333 1.425 . S
C328 C335 1.409 . S
C329 H321 0.930 . S
C329 C327 1.419 . S
C329 C330 1.362 . S
C330 H322 0.930 . S
C330 C329 1.362 . S
C330 C333 1.409 . S
C331 H323 0.930 . S
C331 C332 1.355 . S
C331 C333 1.415 . S
C332 C331 1.355 . S
C332 C334 1.419 . S
C333 C328 1.425 . S
C333 C330 1.409 . S
C333 C331 1.415 . S
C334 H324 0.930 . S
C334 C332 1.419 . S
C334 C335 1.362 . S
C335 H325 0.930 . S
C335 C328 1.409 . S
C335 C334 1.362 . S
H336 C342 0.930 . S
H337 C345 0.930 . S
H338 C346 0.930 . S
H339 C347 0.930 . S
H340 C350 0.930 . S
H341 C351 0.930 . S
C342 H336 0.930 . S
C342 C343 1.355 . S
C342 C344 1.415 . S
C343 C342 1.355 . S
C343 C345 1.419 . S
C344 C342 1.415 . S
C344 C349 1.425 . S
C344 C351 1.409 . S
C345 H337 0.930 . S
C345 C343 1.419 . S
C345 C346 1.362 . S
C346 H338 0.930 . S
C346 C345 1.362 . S
C346 C349 1.409 . S
C347 H339 0.930 . S
C347 C348 1.355 . S
C347 C349 1.415 . S
C348 C347 1.355 . S
C348 C350 1.419 . S
C349 C344 1.425 . S
C349 C346 1.409 . S
C349 C347 1.415 . S
C350 H340 0.930 . S
C350 C348 1.419 . S
C350 C351 1.362 . S
C351 H341 0.930 . S
C351 C344 1.409 . S
C351 C350 1.362 . S
H352 C358 0.930 . S
H353 C361 0.930 . S
H354 C362 0.930 . S
H355 C363 0.930 1_556 S
H356 C366 0.930 . S
H357 C367 0.930 . S
C358 H352 0.930 . S
C358 C359 1.355 1_554 S
C358 C360 1.415 . S
C359 C358 1.355 1_556 S
C359 C361 1.419 . S
C360 C358 1.415 . S
C360 C365 1.425 . S
C360 C367 1.409 . S
C361 H353 0.930 . S
C361 C359 1.419 . S
C361 C362 1.362 . S
C362 H354 0.930 . S
C362 C361 1.362 . S
C362 C365 1.410 1_556 S
C363 H355 0.930 1_554 S
C363 C364 1.355 . S
C363 C365 1.414 . S
C364 C363 1.355 . S
C364 C366 1.419 . S
C365 C360 1.425 . S
C365 C362 1.410 1_554 S
C365 C363 1.414 . S
C366 H356 0.930 . S
C366 C364 1.419 . S
C366 C367 1.362 . S
C367 H357 0.930 . S
C367 C360 1.409 . S
C367 C366 1.362 . S
H368 C374 0.930 . S
H369 C377 0.930 1_455 S
H370 C378 0.930 . S
H371 C379 0.930 1_455 S
H372 C382 0.930 . S
H373 C383 0.930 . S
C374 H368 0.930 . S
C374 C375 1.355 . S
C374 C376 1.415 . S
C375 C374 1.355 . S
C375 C377 1.419 . S
C376 C374 1.415 . S
C376 C381 1.425 . S
C376 C383 1.409 . S
C377 H369 0.930 1_655 S
C377 C375 1.419 . S
C377 C378 1.362 1_655 S
C378 H370 0.930 . S
C378 C377 1.362 1_455 S
C378 C381 1.409 1_455 S
C379 H371 0.930 1_655 S
C379 C380 1.355 . S
C379 C381 1.415 . S
C380 C379 1.355 . S
C380 C382 1.419 . S
C381 C376 1.425 . S
C381 C378 1.409 1_655 S
C381 C379 1.415 . S
C382 H372 0.930 . S
C382 C380 1.419 . S
C382 C383 1.362 . S
C383 H373 0.930 . S
C383 C376 1.409 . S
C383 C382 1.362 . S
H384 C390 0.930 . S
H385 C393 0.930 . S
H386 C394 0.930 . S
H387 C395 0.930 . S
H388 C398 0.930 . S
H389 C399 0.930 . S
C390 H384 0.930 . S
C390 C391 1.355 . S
C390 C392 1.415 . S
C391 C390 1.355 . S
C391 C393 1.419 . S
C392 C390 1.415 . S
C392 C397 1.425 . S
C392 C399 1.409 . S
C393 H385 0.930 . S
C393 C391 1.419 . S
C393 C394 1.362 . S
C394 H386 0.930 . S
C394 C393 1.362 . S
C394 C397 1.409 . S
C395 H387 0.930 . S
C395 C396 1.355 . S
C395 C397 1.415 . S
C396 C395 1.355 . S
C396 C398 1.419 . S
C397 C392 1.425 . S
C397 C394 1.409 . S
C397 C395 1.415 . S
C398 H388 0.930 . S
C398 C396 1.419 . S
C398 C399 1.362 . S
C399 H389 0.930 . S
C399 C392 1.409 . S
C399 C398 1.362 . S
H400 C406 0.930 . S
H401 C409 0.930 . S
H402 C410 0.930 . S
H403 C411 0.930 . S
H404 C414 0.930 . S
H405 C415 0.930 1_455 S
C406 H400 0.930 . S
C406 C407 1.355 . S
C406 C408 1.415 . S
C407 C406 1.355 . S
C407 C409 1.419 . S
C408 C406 1.415 . S
C408 C413 1.425 . S
C408 C415 1.409 . S
C409 H401 0.930 . S
C409 C407 1.419 . S
C409 C410 1.362 . S
C410 H402 0.930 . S
C410 C409 1.362 . S
C410 C413 1.409 . S
C411 H403 0.930 . S
C411 C412 1.355 . S
C411 C413 1.415 . S
C412 C411 1.355 . S
C412 C414 1.419 1_655 S
C413 C408 1.425 . S
C413 C410 1.409 . S
C413 C411 1.415 . S
C414 H404 0.930 . S
C414 C412 1.419 1_455 S
C414 C415 1.362 1_455 S
C415 H405 0.930 1_655 S
C415 C408 1.409 . S
C415 C414 1.362 1_655 S
H416 C422 0.930 . S
H417 C425 0.930 . S
H418 C426 0.930 . S
H419 C427 0.930 . S
H420 C430 0.930 . S
H421 C431 0.930 . S
C422 H416 0.930 . S
C422 C423 1.355 . S
C422 C424 1.415 . S
C423 C422 1.355 . S
C423 C425 1.419 . S
C424 C422 1.415 . S
C424 C429 1.425 . S
C424 C431 1.409 . S
C425 H417 0.930 . S
C425 C423 1.419 . S
C425 C426 1.362 . S
C426 H418 0.930 . S
C426 C425 1.362 . S
C426 C429 1.409 . S
C427 H419 0.930 . S
C427 C428 1.355 . S
C427 C429 1.415 . S
C428 C427 1.355 . S
C428 C430 1.419 . S
C429 C424 1.425 . S
C429 C426 1.409 . S
C429 C427 1.415 . S
C430 H420 0.930 . S
C430 C428 1.419 . S
C430 C431 1.362 . S
C431 H421 0.930 . S
C431 C424 1.409 . S
C431 C430 1.362 . S
H432 C438 0.930 . S
H433 C441 0.930 . S
H434 C442 0.930 . S
H435 C443 0.930 . S
H436 C446 0.930 . S
H437 C447 0.930 . S
C438 H432 0.930 . S
C438 C439 1.355 . S
C438 C440 1.415 . S
C439 C438 1.355 . S
C439 C441 1.419 . S
C440 C438 1.415 . S
C440 C445 1.425 . S
C440 C447 1.409 . S
C441 H433 0.930 . S
C441 C439 1.419 . S
C441 C442 1.362 . S
C442 H434 0.930 . S
C442 C441 1.362 . S
C442 C445 1.409 . S
C443 H435 0.930 . S
C443 C444 1.355 . S
C443 C445 1.415 . S
C444 C443 1.355 . S
C444 C446 1.419 . S
C445 C440 1.425 . S
C445 C442 1.409 . S
C445 C443 1.415 . S
C446 H436 0.930 . S
C446 C444 1.419 . S
C446 C447 1.362 . S
C447 H437 0.930 . S
C447 C440 1.409 . S
C447 C446 1.362 . S
H448 C454 0.930 . S
H449 C457 0.930 . S
H450 C458 0.930 . S
H451 C459 0.930 . S
H452 C462 0.930 . S
H453 C463 0.930 . S
C454 H448 0.930 . S
C454 C455 1.355 . S
C454 C456 1.415 . S
C455 C454 1.355 . S
C455 C457 1.419 . S
C456 C454 1.415 . S
C456 C461 1.425 . S
C456 C463 1.409 . S
C457 H449 0.930 . S
C457 C455 1.419 . S
C457 C458 1.362 . S
C458 H450 0.930 . S
C458 C457 1.362 . S
C458 C461 1.409 . S
C459 H451 0.930 . S
C459 C460 1.355 . S
C459 C461 1.415 . S
C460 C459 1.355 . S
C460 C462 1.419 . S
C461 C456 1.425 . S
C461 C458 1.409 . S
C461 C459 1.415 . S
C462 H452 0.930 . S
C462 C460 1.419 . S
C462 C463 1.362 . S
C463 H453 0.930 . S
C463 C456 1.409 . S
C463 C462 1.362 . S
H464 C470 0.930 . S
H465 C473 0.930 . S
H466 C474 0.930 . S
H467 C475 0.930 . S
H468 C478 0.932 . S
H469 C479 0.930 . S
C470 H464 0.930 . S
C470 C471 1.355 1_554 S
C470 C472 1.415 . S
C471 C470 1.355 1_556 S
C471 C473 1.419 . S
C472 C470 1.415 . S
C472 C477 1.425 1_554 S
C472 C479 1.409 . S
C473 H465 0.930 . S
C473 C471 1.419 . S
C473 C474 1.362 . S
C474 H466 0.930 . S
C474 C473 1.362 . S
C474 C477 1.409 . S
C475 H467 0.930 . S
C475 C476 1.355 1_556 S
C475 C477 1.415 . S
C476 C475 1.355 1_554 S
C476 C478 1.419 1_565 S
C477 C472 1.425 1_556 S
C477 C474 1.409 . S
C477 C475 1.415 . S
C478 H468 0.932 . S
C478 C476 1.419 1_545 S
C478 C479 1.361 1_545 S
C479 H469 0.930 . S
C479 C472 1.409 . S
C479 C478 1.361 1_565 S
H480 C486 0.930 . S
H481 C489 0.930 . S
H482 C490 0.930 . S
H483 C491 0.930 . S
H484 C494 0.930 . S
H485 C495 0.930 . S
C486 H480 0.930 . S
C486 C487 1.355 . S
C486 C488 1.415 . S
C487 C486 1.355 . S
C487 C489 1.419 . S
C488 C486 1.415 . S
C488 C493 1.425 . S
C488 C495 1.409 . S
C489 H481 0.930 . S
C489 C487 1.419 . S
C489 C490 1.362 . S
C490 H482 0.930 . S
C490 C489 1.362 . S
C490 C493 1.409 . S
C491 H483 0.930 . S
C491 C492 1.355 . S
C491 C493 1.415 . S
C492 C491 1.355 . S
C492 C494 1.419 . S
C493 C488 1.425 . S
C493 C490 1.409 . S
C493 C491 1.415 . S
C494 H484 0.930 . S
C494 C492 1.419 . S
C494 C495 1.362 . S
C495 H485 0.930 . S
C495 C488 1.409 . S
C495 C494 1.362 . S
H496 C502 0.930 . S
H497 C505 0.930 . S
H498 C506 0.930 . S
H499 C507 0.930 . S
H500 C510 0.930 . S
H501 C511 0.930 . S
C502 H496 0.930 . S
C502 C503 1.355 . S
C502 C504 1.415 . S
C503 C502 1.355 . S
C503 C505 1.419 . S
C504 C502 1.415 . S
C504 C509 1.425 . S
C504 C511 1.409 . S
C505 H497 0.930 . S
C505 C503 1.419 . S
C505 C506 1.362 . S
C506 H498 0.930 . S
C506 C505 1.362 . S
C506 C509 1.409 . S
C507 H499 0.930 . S
C507 C508 1.355 . S
C507 C509 1.415 . S
C508 C507 1.355 . S
C508 C510 1.419 . S
C509 C504 1.425 . S
C509 C506 1.409 . S
C509 C507 1.415 . S
C510 H500 0.930 . S
C510 C508 1.419 . S
C510 C511 1.362 . S
C511 H501 0.930 . S
C511 C504 1.409 . S
C511 C510 1.362 . S
H512 C518 0.930 . S
H513 C521 0.930 . S
H514 C522 0.930 . S
H515 C523 0.930 . S
H516 C526 0.930 . S
H517 C527 0.930 . S
C518 H512 0.930 . S
C518 C519 1.355 . S
C518 C520 1.415 . S
C519 C518 1.355 . S
C519 C521 1.419 . S
C520 C518 1.415 . S
C520 C525 1.425 . S
C520 C527 1.409 . S
C521 H513 0.930 . S
C521 C519 1.419 . S
C521 C522 1.362 . S
C522 H514 0.930 . S
C522 C521 1.362 . S
C522 C525 1.409 . S
C523 H515 0.930 . S
C523 C524 1.355 . S
C523 C525 1.415 . S
C524 C523 1.355 . S
C524 C526 1.419 . S
C525 C520 1.425 . S
C525 C522 1.409 . S
C525 C523 1.415 . S
C526 H516 0.930 . S
C526 C524 1.419 . S
C526 C527 1.362 . S
C527 H517 0.930 . S
C527 C520 1.409 . S
C527 C526 1.362 . S
H528 C534 0.915 1_455 S
H529 C537 0.930 . S
H530 C538 0.930 . S
H531 C539 0.930 . S
H532 C542 0.930 . S
H533 C543 0.930 . S
C534 H528 0.915 1_655 S
C534 C535 1.355 . S
C534 C536 1.415 . S
C535 C534 1.355 . S
C535 C537 1.419 . S
C536 C534 1.415 . S
C536 C541 1.425 . S
C536 C543 1.409 1_655 S
C537 H529 0.930 . S
C537 C535 1.419 . S
C537 C538 1.362 . S
C538 H530 0.930 . S
C538 C537 1.362 . S
C538 C541 1.409 . S
C539 H531 0.930 . S
C539 C540 1.355 . S
C539 C541 1.415 . S
C540 C539 1.355 . S
C540 C542 1.419 1_655 S
C541 C536 1.425 . S
C541 C538 1.409 . S
C541 C539 1.415 . S
C542 H532 0.930 . S
C542 C540 1.419 1_455 S
C542 C543 1.362 . S
C543 H533 0.930 . S
C543 C536 1.409 1_455 S
C543 C542 1.362 . S
H544 C550 0.930 . S
H545 C553 0.930 . S
H546 C554 0.930 . S
H547 C555 0.930 . S
H548 C558 0.930 . S
H549 C559 0.930 . S
C550 H544 0.930 . S
C550 C551 1.355 . S
C550 C552 1.415 . S
C551 C550 1.355 . S
C551 C553 1.419 . S
C552 C550 1.415 . S
C552 C557 1.425 . S
C552 C559 1.409 . S
C553 H545 0.930 . S
C553 C551 1.419 . S
C553 C554 1.362 . S
C554 H546 0.930 . S
C554 C553 1.362 . S
C554 C557 1.409 . S
C555 H547 0.930 . S
C555 C556 1.355 . S
C555 C557 1.415 . S
C556 C555 1.355 . S
C556 C558 1.419 . S
C557 C552 1.425 . S
C557 C554 1.409 . S
C557 C555 1.415 . S
C558 H548 0.930 . S
C558 C556 1.419 . S
C558 C559 1.362 . S
C559 H549 0.930 . S
C559 C552 1.409 . S
C559 C558 1.362 . S
H560 C566 0.930 1_655 S
H561 C569 0.930 . S
H562 C570 0.930 . S
H563 C571 0.930 . S
H564 C574 0.930 . S
H565 C575 0.930 . S
C566 H560 0.930 1_455 S
C566 C567 1.355 . S
C566 C568 1.415 . S
C567 C566 1.355 . S
C567 C569 1.419 . S
C568 C566 1.415 . S
C568 C573 1.425 . S
C568 C575 1.409 1_455 S
C569 H561 0.930 . S
C569 C567 1.419 . S
C569 C570 1.362 . S
C570 H562 0.930 . S
C570 C569 1.362 . S
C570 C573 1.409 . S
C571 H563 0.930 . S
C571 C572 1.355 . S
C571 C573 1.415 . S
C572 C571 1.355 . S
C572 C574 1.419 1_455 S
C573 C568 1.425 . S
C573 C570 1.409 . S
C573 C571 1.415 . S
C574 H564 0.930 . S
C574 C572 1.419 1_655 S
C574 C575 1.362 . S
C575 H565 0.930 . S
C575 C568 1.409 1_655 S
C575 C574 1.362 . S
H576 C582 0.930 . S
H577 C585 0.930 . S
H578 C586 0.930 . S
H579 C587 0.930 . S
H580 C590 0.930 . S
H581 C591 0.930 . S
C582 H576 0.930 . S
C582 C583 1.355 . S
C582 C584 1.415 . S
C583 C582 1.355 . S
C583 C585 1.419 . S
C584 C582 1.415 . S
C584 C589 1.425 . S
C584 C591 1.409 . S
C585 H577 0.930 . S
C585 C583 1.419 . S
C585 C586 1.362 . S
C586 H578 0.930 . S
C586 C585 1.362 . S
C586 C589 1.409 . S
C587 H579 0.930 . S
C587 C588 1.355 . S
C587 C589 1.415 . S
C588 C587 1.355 . S
C588 C590 1.419 . S
C589 C584 1.425 . S
C589 C586 1.409 . S
C589 C587 1.415 . S
C590 H580 0.930 . S
C590 C588 1.419 . S
C590 C591 1.362 . S
C591 H581 0.930 . S
C591 C584 1.409 . S
C591 C590 1.362 . S
C215 C5 2.319 . S
C220 C104 2.470 . S
C231 C18 1.166 . S
C236 N124 1.117 . S
C252 C158 1.783 . S
C247 C30 1.718 . S
C263 C41 1.147 . S
C268 N192 1.043 . S
C284 C145 2.594 . S
C279 C7 2.544 . S
C300 N102 1.354 . S
C295 C16 1.176 . S
C316 C179 2.086 1_556 S
C311 C29 1.993 . S
C332 N154 0.811 . S
C327 C38 0.778 . S
C343 C8 1.912 . S
C348 C194 1.906 . S
C364 C128 1.849 . S
C359 C27 1.488 . S
C375 C40 1.389 . S
C380 C89 1.404 . S
C391 C19 0.995 . S
C396 C175 1.067 . S
C412 C115 2.232 . S
C407 C51 2.165 . S
C423 C62 1.234 . S
C428 N132 1.209 . S
C439 C74 1.843 . S
C444 C149 1.877 . S
C455 C84 1.143 . S
C460 N184 1.190 . S
C471 C49 2.479 . S
C476 C134 2.596 1_565 S
C492 N94 1.125 . S
C487 C63 1.110 . S
C508 C188 1.903 . S
C503 C71 1.616 . S
C524 N162 0.813 . S
C519 C85 0.899 . S
C535 C52 1.843 . S
C540 C205 1.845 1_656 S
C556 C119 1.920 . S
C551 C73 1.762 . S
C572 C98 1.236 . S
C567 C82 0.886 . S
C583 C60 1.332 . S
C588 C164 1.616 . S
