# Generated by pormake.
# Topology eea, (3,6)-cn, num edge types: 1
# Building blocks:
#     Node 0, Type 0, BuildingBlock: OLANEW_clean_sbu_2, # of connection points: 3
#     Node 1, Type 0, BuildingBlock: OLANEW_clean_sbu_2, # of connection points: 3
#     Node 2, Type 0, BuildingBlock: OLANEW_clean_sbu_2, # of connection points: 3
#     Node 3, Type 0, BuildingBlock: OLANEW_clean_sbu_2, # of connection points: 3
#     Node 4, Type 0, BuildingBlock: OLANEW_clean_sbu_2, # of connection points: 3
#     Node 5, Type 0, BuildingBlock: OLANEW_clean_sbu_2, # of connection points: 3
#     Node 6, Type 0, BuildingBlock: OLANEW_clean_sbu_2, # of connection points: 3
#     Node 7, Type 0, BuildingBlock: OLANEW_clean_sbu_2, # of connection points: 3
#     Node 8, Type 0, BuildingBlock: OLANEW_clean_sbu_2, # of connection points: 3
#     Node 9, Type 0, BuildingBlock: OLANEW_clean_sbu_2, # of connection points: 3
#     Node 10, Type 0, BuildingBlock: OLANEW_clean_sbu_2, # of connection points: 3
#     Node 11, Type 0, BuildingBlock: OLANEW_clean_sbu_2, # of connection points: 3
#     Node 12, Type 0, BuildingBlock: OLANEW_clean_sbu_2, # of connection points: 3
#     Node 13, Type 0, BuildingBlock: OLANEW_clean_sbu_2, # of connection points: 3
#     Node 14, Type 0, BuildingBlock: OLANEW_clean_sbu_2, # of connection points: 3
#     Node 15, Type 0, BuildingBlock: OLANEW_clean_sbu_2, # of connection points: 3
#     Node 16, Type 0, BuildingBlock: OLANEW_clean_sbu_2, # of connection points: 3
#     Node 17, Type 0, BuildingBlock: OLANEW_clean_sbu_2, # of connection points: 3
#     Node 18, Type 1, BuildingBlock: KUMJIN_clean_sbu_0, # of connection points: 6
#     Node 19, Type 1, BuildingBlock: KUMJIN_clean_sbu_0, # of connection points: 6
#     Node 20, Type 1, BuildingBlock: KUMJIN_clean_sbu_0, # of connection points: 6
#     Node 21, Type 1, BuildingBlock: KUMJIN_clean_sbu_0, # of connection points: 6
#     Node 22, Type 1, BuildingBlock: KUMJIN_clean_sbu_0, # of connection points: 6
#     Node 23, Type 1, BuildingBlock: KUMJIN_clean_sbu_0, # of connection points: 6
#     Node 24, Type 1, BuildingBlock: KUMJIN_clean_sbu_0, # of connection points: 6
#     Node 25, Type 1, BuildingBlock: KUMJIN_clean_sbu_0, # of connection points: 6
#     Node 26, Type 1, BuildingBlock: KUMJIN_clean_sbu_0, # of connection points: 6
#     Edge 27, Type (0, 1), BuildingBlock: UVAHIK_clean_linker_0, # of connection points: 2
#     Edge 28, Type (0, 1), BuildingBlock: UVAHIK_clean_linker_0, # of connection points: 2
#     Edge 29, Type (0, 1), BuildingBlock: UVAHIK_clean_linker_0, # of connection points: 2
#     Edge 30, Type (0, 1), BuildingBlock: UVAHIK_clean_linker_0, # of connection points: 2
#     Edge 31, Type (0, 1), BuildingBlock: UVAHIK_clean_linker_0, # of connection points: 2
#     Edge 32, Type (0, 1), BuildingBlock: UVAHIK_clean_linker_0, # of connection points: 2
#     Edge 33, Type (0, 1), BuildingBlock: UVAHIK_clean_linker_0, # of connection points: 2
#     Edge 34, Type (0, 1), BuildingBlock: UVAHIK_clean_linker_0, # of connection points: 2
#     Edge 35, Type (0, 1), BuildingBlock: UVAHIK_clean_linker_0, # of connection points: 2
#     Edge 36, Type (0, 1), BuildingBlock: UVAHIK_clean_linker_0, # of connection points: 2
#     Edge 37, Type (0, 1), BuildingBlock: UVAHIK_clean_linker_0, # of connection points: 2
#     Edge 38, Type (0, 1), BuildingBlock: UVAHIK_clean_linker_0, # of connection points: 2
#     Edge 39, Type (0, 1), BuildingBlock: UVAHIK_clean_linker_0, # of connection points: 2
#     Edge 40, Type (0, 1), BuildingBlock: UVAHIK_clean_linker_0, # of connection points: 2
#     Edge 41, Type (0, 1), BuildingBlock: UVAHIK_clean_linker_0, # of connection points: 2
#     Edge 42, Type (0, 1), BuildingBlock: UVAHIK_clean_linker_0, # of connection points: 2
#     Edge 43, Type (0, 1), BuildingBlock: UVAHIK_clean_linker_0, # of connection points: 2
#     Edge 44, Type (0, 1), BuildingBlock: UVAHIK_clean_linker_0, # of connection points: 2
#     Edge 45, Type (0, 1), BuildingBlock: UVAHIK_clean_linker_0, # of connection points: 2
#     Edge 46, Type (0, 1), BuildingBlock: UVAHIK_clean_linker_0, # of connection points: 2
#     Edge 47, Type (0, 1), BuildingBlock: UVAHIK_clean_linker_0, # of connection points: 2
#     Edge 48, Type (0, 1), BuildingBlock: UVAHIK_clean_linker_0, # of connection points: 2
#     Edge 49, Type (0, 1), BuildingBlock: UVAHIK_clean_linker_0, # of connection points: 2
#     Edge 50, Type (0, 1), BuildingBlock: UVAHIK_clean_linker_0, # of connection points: 2
#     Edge 51, Type (0, 1), BuildingBlock: UVAHIK_clean_linker_0, # of connection points: 2
#     Edge 52, Type (0, 1), BuildingBlock: UVAHIK_clean_linker_0, # of connection points: 2
#     Edge 53, Type (0, 1), BuildingBlock: UVAHIK_clean_linker_0, # of connection points: 2
#     Edge 54, Type (0, 1), BuildingBlock: UVAHIK_clean_linker_0, # of connection points: 2
#     Edge 55, Type (0, 1), BuildingBlock: UVAHIK_clean_linker_0, # of connection points: 2
#     Edge 56, Type (0, 1), BuildingBlock: UVAHIK_clean_linker_0, # of connection points: 2
#     Edge 57, Type (0, 1), BuildingBlock: UVAHIK_clean_linker_0, # of connection points: 2
#     Edge 58, Type (0, 1), BuildingBlock: UVAHIK_clean_linker_0, # of connection points: 2
#     Edge 59, Type (0, 1), BuildingBlock: UVAHIK_clean_linker_0, # of connection points: 2
#     Edge 60, Type (0, 1), BuildingBlock: UVAHIK_clean_linker_0, # of connection points: 2
#     Edge 61, Type (0, 1), BuildingBlock: UVAHIK_clean_linker_0, # of connection points: 2
#     Edge 62, Type (0, 1), BuildingBlock: UVAHIK_clean_linker_0, # of connection points: 2
#     Edge 63, Type (0, 1), BuildingBlock: UVAHIK_clean_linker_0, # of connection points: 2
#     Edge 64, Type (0, 1), BuildingBlock: UVAHIK_clean_linker_0, # of connection points: 2
#     Edge 65, Type (0, 1), BuildingBlock: UVAHIK_clean_linker_0, # of connection points: 2
#     Edge 66, Type (0, 1), BuildingBlock: UVAHIK_clean_linker_0, # of connection points: 2
#     Edge 67, Type (0, 1), BuildingBlock: UVAHIK_clean_linker_0, # of connection points: 2
#     Edge 68, Type (0, 1), BuildingBlock: UVAHIK_clean_linker_0, # of connection points: 2
#     Edge 69, Type (0, 1), BuildingBlock: UVAHIK_clean_linker_0, # of connection points: 2
#     Edge 70, Type (0, 1), BuildingBlock: UVAHIK_clean_linker_0, # of connection points: 2
#     Edge 71, Type (0, 1), BuildingBlock: UVAHIK_clean_linker_0, # of connection points: 2
#     Edge 72, Type (0, 1), BuildingBlock: UVAHIK_clean_linker_0, # of connection points: 2
#     Edge 73, Type (0, 1), BuildingBlock: UVAHIK_clean_linker_0, # of connection points: 2
#     Edge 74, Type (0, 1), BuildingBlock: UVAHIK_clean_linker_0, # of connection points: 2
#     Edge 75, Type (0, 1), BuildingBlock: UVAHIK_clean_linker_0, # of connection points: 2
#     Edge 76, Type (0, 1), BuildingBlock: UVAHIK_clean_linker_0, # of connection points: 2
#     Edge 77, Type (0, 1), BuildingBlock: UVAHIK_clean_linker_0, # of connection points: 2
#     Edge 78, Type (0, 1), BuildingBlock: UVAHIK_clean_linker_0, # of connection points: 2
#     Edge 79, Type (0, 1), BuildingBlock: UVAHIK_clean_linker_0, # of connection points: 2
#     Edge 80, Type (0, 1), BuildingBlock: UVAHIK_clean_linker_0, # of connection points: 2
# Relax obj value: 0.011
# Max RMSD: 0.148
# Mean RMSD: 0.104
data_MOF--net-eea--node1-OLANEW_clean_sbu_2--node2-KUMJIN_clean_sbu_0--edge1-UVAHIK_clean_linker_0
_symmetry_space_group_name_H-M    P1
_symmetry_Int_Tables_number       1
_symmetry_cell_setting            triclinic
loop_
_symmetry_equiv_pos_as_xyz
'x, y, z'
_cell_length_a     77.666225
_cell_length_b     78.564209
_cell_length_c     84.028206
_cell_angle_alpha  94.828688
_cell_angle_beta   90.084647
_cell_angle_gamma 120.52557
loop_
_atom_site_label
_atom_site_type_symbol
_atom_site_fract_x
_atom_site_fract_y
_atom_site_fract_z
_atom_type_partial_charge
O0 O 0.21067 0.11001 0.42662 0.0
Cd1 Cd 0.19794 0.10283 0.39877 0.0
O2 O 0.24017 0.11571 0.41921 0.0
Cd3 Cd 0.22991 0.10408 0.39447 0.0
O4 O 0.2175 0.07475 0.38159 0.0
C5 C 0.20905 0.0609 0.39069 0.0
O6 O 0.20785 0.06562 0.40587 0.0
C7 C 0.22872 0.11523 0.4302 0.0
C8 C 0.19301 0.13307 0.38882 0.0
O9 O 0.17816 0.11735 0.39346 0.0
O10 O 0.21019 0.13448 0.38885 0.0
O11 O 0.91034 0.11114 0.4238 0.0
Cd12 Cd 0.91479 0.10143 0.39635 0.0
O13 O 0.91365 0.08851 0.43487 0.0
Cd14 Cd 0.91146 0.07254 0.41173 0.0
O15 O 0.88813 0.04644 0.39727 0.0
C16 C 0.87065 0.04263 0.40063 0.0
O17 O 0.86885 0.0548 0.41129 0.0
C18 C 0.91134 0.10345 0.43625 0.0
C19 C 0.9465 0.13348 0.38319 0.0
O20 O 0.92885 0.13095 0.38275 0.0
O21 O 0.94914 0.12075 0.38972 0.0
O22 O 0.89403 0.7504 0.42643 0.0
Cd23 Cd 0.90164 0.76199 0.39958 0.0
O24 O 0.86267 0.7433 0.42435 0.0
Cd25 Cd 0.86142 0.75437 0.40153 0.0
O26 O 0.84416 0.76367 0.38759 0.0
C27 C 0.83636 0.77197 0.39601 0.0
O28 O 0.83991 0.77477 0.4116 0.0
C29 C 0.87685 0.74355 0.43221 0.0
C30 C 0.93893 0.76921 0.38914 0.0
O31 O 0.93692 0.7833 0.39592 0.0
O32 O 0.92344 0.75172 0.38747 0.0
O33 O 0.13425 0.22735 0.58939 0.0
Cd34 Cd 0.13085 0.21751 0.61681 0.0
O35 O 0.10498 0.22539 0.58606 0.0
Cd36 Cd 0.09156 0.2175 0.60927 0.0
O37 O 0.06757 0.21602 0.62412 0.0
C38 C 0.05267 0.1997 0.62751 0.0
O39 O 0.05213 0.18302 0.6229 0.0
C40 C 0.12169 0.22886 0.58071 0.0
C41 C 0.16025 0.20925 0.6269 0.0
O42 O 0.14324 0.19537 0.62071 0.0
O43 O 0.16347 0.22702 0.62818 0.0
O44 O 0.77715 0.87354 0.59377 0.0
Cd45 Cd 0.79337 0.8814 0.62056 0.0
O46 O 0.8057 0.88998 0.58222 0.0
Cd47 Cd 0.82121 0.90557 0.60512 0.0
O48 O 0.82473 0.93109 0.62044 0.0
C49 C 0.80986 0.93358 0.61917 0.0
O50 O 0.79423 0.9204 0.60998 0.0
C51 C 0.78679 0.87858 0.58111 0.0
C52 C 0.79724 0.84994 0.62937 0.0
O53 O 0.78243 0.85181 0.63372 0.0
O54 O 0.81026 0.863 0.62098 0.0
O55 O 0.05889 0.85763 0.57317 0.0
Cd56 Cd 0.04902 0.86775 0.59823 0.0
O57 O 0.08642 0.86971 0.58784 0.0
Cd58 Cd 0.11744 0.88086 0.59561 0.0
O59 O 0.14407 0.9065 0.60725 0.0
C60 C 0.15049 0.92236 0.6005 0.0
O61 O 0.14172 0.92162 0.58686 0.0
C62 C 0.07712 0.86234 0.57428 0.0
C63 C 0.02202 0.83669 0.61499 0.0
O64 O 0.01607 0.84505 0.60574 0.0
O65 O 0.04078 0.84281 0.61614 0.0
O66 O 0.87678 0.44534 0.76124 0.0
Cd67 Cd 0.86326 0.43784 0.73359 0.0
O68 O 0.90504 0.44819 0.75327 0.0
Cd69 Cd 0.89358 0.43563 0.72885 0.0
O70 O 0.88161 0.40624 0.71611 0.0
C71 C 0.87745 0.39306 0.72562 0.0
O72 O 0.88013 0.39844 0.74108 0.0
C73 C 0.89453 0.44931 0.76446 0.0
C74 C 0.85891 0.46835 0.72345 0.0
O75 O 0.84399 0.45297 0.72844 0.0
O76 O 0.87586 0.46929 0.72323 0.0
O77 O 0.57534 0.44449 0.75725 0.0
Cd78 Cd 0.57863 0.43362 0.72984 0.0
O79 O 0.58133 0.42389 0.76897 0.0
Cd80 Cd 0.57871 0.40723 0.74612 0.0
O81 O 0.55556 0.38145 0.73132 0.0
C82 C 0.53815 0.37889 0.73293 0.0
O83 O 0.53624 0.39213 0.74218 0.0
C84 C 0.5779 0.43813 0.76995 0.0
C85 C 0.61133 0.46441 0.71647 0.0
O86 O 0.59413 0.46294 0.71599 0.0
O87 O 0.61301 0.45118 0.7231 0.0
O88 O 0.56291 0.0885 0.76102 0.0
Cd89 Cd 0.57318 0.10609 0.73675 0.0
O90 O 0.53103 0.07984 0.7588 0.0
Cd91 Cd 0.52867 0.09228 0.73704 0.0
O92 O 0.50699 0.09534 0.72248 0.0
C93 C 0.50886 0.11202 0.7203 0.0
O94 O 0.52512 0.12838 0.72606 0.0
C95 C 0.54537 0.07993 0.76626 0.0
C96 C 0.60962 0.11157 0.72559 0.0
O97 O 0.6092 0.12342 0.73682 0.0
O98 O 0.59285 0.09699 0.71967 0.0
O99 O 0.79818 0.5569 0.92131 0.0
Cd100 Cd 0.7923 0.54135 0.94652 0.0
O101 O 0.77357 0.56333 0.92266 0.0
Cd102 Cd 0.75987 0.5527 0.94527 0.0
O103 O 0.73529 0.55026 0.95979 0.0
C104 C 0.72019 0.53371 0.96249 0.0
O105 O 0.71973 0.51721 0.95737 0.0
C106 C 0.78813 0.56377 0.91535 0.0
C107 C 0.82373 0.53644 0.95716 0.0
O108 O 0.81064 0.52414 0.94636 0.0
O109 O 0.82216 0.55122 0.96288 0.0
O110 O 0.4469 0.20576 0.92884 0.0
Cd111 Cd 0.46309 0.21658 0.95563 0.0
O112 O 0.47481 0.2229 0.91663 0.0
Cd113 Cd 0.49023 0.2403 0.93905 0.0
O114 O 0.49334 0.26566 0.95429 0.0
C115 C 0.47813 0.26766 0.95332 0.0
O116 O 0.46241 0.25416 0.94438 0.0
C117 C 0.45615 0.2103 0.91598 0.0
C118 C 0.46749 0.18607 0.96572 0.0
O119 O 0.45216 0.18744 0.96924 0.0
O120 O 0.48096 0.19944 0.9578 0.0
O121 O 0.74456 0.19747 0.91754 0.0
Cd122 Cd 0.73808 0.20612 0.94469 0.0
O123 O 0.77119 0.19744 0.92647 0.0
Cd124 Cd 0.77137 0.20945 0.95083 0.0
O125 O 0.78956 0.23741 0.96559 0.0
C126 C 0.79556 0.25257 0.95794 0.0
O127 O 0.78934 0.24994 0.94289 0.0
C128 C 0.75925 0.1949 0.91493 0.0
C129 C 0.70583 0.17437 0.95755 0.0
O130 O 0.70351 0.18704 0.95062 0.0
O131 O 0.72338 0.17666 0.95832 0.0
O132 O 0.54452 0.77862 0.09335 0.0
Cd133 Cd 0.53195 0.77196 0.0655 0.0
O134 O 0.57279 0.78104 0.08593 0.0
Cd135 Cd 0.56204 0.76917 0.06127 0.0
O136 O 0.54979 0.74002 0.04806 0.0
C137 C 0.54309 0.7262 0.05726 0.0
O138 O 0.54354 0.73089 0.07271 0.0
C139 C 0.56204 0.78217 0.09691 0.0
C140 C 0.52744 0.80262 0.05598 0.0
O141 O 0.51246 0.78687 0.06047 0.0
O142 O 0.54452 0.80383 0.05594 0.0
O143 O 0.23877 0.78876 0.08771 0.0
Cd144 Cd 0.24254 0.77966 0.05996 0.0
O145 O 0.23853 0.76198 0.09293 0.0
Cd146 Cd 0.23177 0.73536 0.10405 0.0
O147 O 0.21106 0.70422 0.09663 0.0
C148 C 0.19284 0.69956 0.09595 0.0
O149 O 0.18828 0.71298 0.10115 0.0
C150 C 0.23676 0.77677 0.09778 0.0
C151 C 0.27705 0.809 0.04769 0.0
O152 O 0.26078 0.80943 0.04724 0.0
O153 O 0.27697 0.79463 0.05393 0.0
O154 O 0.22706 0.41593 0.09325 0.0
Cd155 Cd 0.23669 0.43191 0.06817 0.0
O156 O 0.19612 0.41017 0.09167 0.0
Cd157 Cd 0.19517 0.42253 0.06945 0.0
O158 O 0.17788 0.4318 0.05547 0.0
C159 C 0.16979 0.43987 0.06381 0.0
O160 O 0.17309 0.44255 0.07942 0.0
C161 C 0.20987 0.40914 0.09902 0.0
C162 C 0.27383 0.43886 0.05754 0.0
O163 O 0.27269 0.45088 0.06818 0.0
O164 O 0.25746 0.42339 0.052 0.0
O165 O 0.46646 0.89132 0.25427 0.0
Cd166 Cd 0.46 0.87509 0.27916 0.0
O167 O 0.44059 0.89583 0.25479 0.0
Cd168 Cd 0.42666 0.88375 0.27702 0.0
O169 O 0.40025 0.87676 0.29094 0.0
C170 C 0.38449 0.87165 0.28244 0.0
O171 O 0.38536 0.87027 0.26679 0.0
C172 C 0.45592 0.89744 0.24798 0.0
C173 C 0.49165 0.87079 0.29015 0.0
O174 O 0.47909 0.85866 0.27899 0.0
O175 O 0.48945 0.88509 0.29609 0.0
O176 O 0.08311 0.5218 0.26375 0.0
Cd177 Cd 0.08846 0.52106 0.29223 0.0
O178 O 0.11445 0.54503 0.26285 0.0
Cd179 Cd 0.13963 0.57091 0.25398 0.0
O180 O 0.15144 0.60234 0.26069 0.0
C181 C 0.13765 0.60641 0.26253 0.0
O182 O 0.11899 0.59216 0.25928 0.0
C183 C 0.09727 0.53404 0.25583 0.0
C184 C 0.10295 0.49614 0.29775 0.0
O185 O 0.08416 0.48937 0.29549 0.0
O186 O 0.11501 0.51482 0.29741 0.0
O187 O 0.40975 0.52737 0.25153 0.0
Cd188 Cd 0.40294 0.53484 0.27891 0.0
O189 O 0.43864 0.53165 0.25998 0.0
Cd190 Cd 0.43836 0.54289 0.28451 0.0
O191 O 0.45657 0.57044 0.29976 0.0
C192 C 0.46212 0.58593 0.29265 0.0
O193 O 0.4554 0.58384 0.27782 0.0
C194 C 0.42577 0.52727 0.24865 0.0
C195 C 0.3704 0.50262 0.29107 0.0
O196 O 0.36826 0.51565 0.28454 0.0
O197 O 0.38788 0.50475 0.29175 0.0
Eu198 Eu 0.48691 0.9801 0.98632 0.0
C199 C 0.52741 0.04889 0.04224 0.0
C200 C 0.5626 0.05932 0.04252 0.0
C201 C 0.55244 0.08309 0.05116 0.0
C202 C 0.54233 0.04455 0.03928 0.0
C203 C 0.53225 0.06807 0.04862 0.0
C204 C 0.56759 0.07873 0.04808 0.0
C205 C 0.49687 0.05565 0.05083 0.0
N206 N 0.50809 0.03399 0.03979 0.0
C207 C 0.49284 0.03687 0.0445 0.0
C208 C 0.51666 0.0714 0.0527 0.0
Eu209 Eu 0.50241 0.00275 0.02867 0.0
N210 N 0.53697 0.02559 0.03412 0.0
C211 C 0.55101 0.02004 0.03317 0.0
C212 C 0.57719 0.05398 0.04056 0.0
C213 C 0.57133 0.03418 0.03612 0.0
H214 H 0.47752 0.02477 0.04302 0.0
H215 H 0.58245 0.02979 0.03491 0.0
H216 H 0.58309 0.09033 0.05049 0.0
H217 H 0.48473 0.05798 0.05423 0.0
H218 H 0.54666 0.00479 0.02967 0.0
H219 H 0.40867 0.9605 0.97976 0.0
H220 H 0.59293 0.0649 0.04286 0.0
H221 H 0.50737 0.95327 0.97325 0.0
H222 H 0.44499 0.98291 0.98451 0.0
H223 H 0.49662 0.91833 0.96409 0.0
H224 H 0.55647 0.09798 0.05589 0.0
H225 H 0.39474 0.92441 0.97351 0.0
H226 H 0.4009 0.89608 0.96779 0.0
H227 H 0.51975 0.08592 0.05765 0.0
H228 H 0.42484 0.88455 0.96357 0.0
N229 N 0.45179 0.95982 0.98124 0.0
C230 C 0.43925 0.96726 0.9817 0.0
C231 C 0.41076 0.93421 0.97553 0.0
C232 C 0.42378 0.92681 0.97423 0.0
C233 C 0.41858 0.95457 0.97901 0.0
C234 C 0.4445 0.9402 0.97704 0.0
H235 H 0.46058 0.8928 0.96191 0.0
N236 N 0.47775 0.94726 0.97661 0.0
C237 C 0.48558 0.92243 0.96711 0.0
C238 C 0.45791 0.93369 0.97473 0.0
C239 C 0.49161 0.94216 0.97223 0.0
C240 C 0.46522 0.90805 0.96595 0.0
C241 C 0.45107 0.91366 0.96948 0.0
O242 O 0.50326 0.9857 0.96439 0.0
O243 O 0.51076 0.00353 0.00325 0.0
O244 O 0.50041 0.02504 0.01476 0.0
O245 O 0.47988 0.0049 0.99243 0.0
O246 O 0.52009 -0.0093 0.98551 0.0
O247 O 0.47957 -0.00758 0.9668 0.0
O248 O 0.48507 -0.00752 0.04983 0.0
O249 O 0.47878 0.97958 0.0116 0.0
O250 O 0.48879 0.95826 1.00099 0.0
O251 O 0.51129 0.97946 0.0219 0.0
O252 O 0.46899 -0.00863 0.02966 0.0
O253 O 0.51281 -0.00751 0.04794 0.0
C254 C 0.52597 0.00414 0.99746 0.0
C255 C 0.4848 0.98232 0.94087 0.0
C256 C 0.48559 0.9848 0.91202 0.0
C257 C 0.49289 -0.0065 0.92777 0.0
C258 C 0.47033 0.9647 0.90966 0.0
C259 C 0.46951 0.96239 0.93817 0.0
C260 C 0.46238 0.95363 0.92265 0.0
C261 C 0.4887 0.02178 0.002 0.0
C262 C 0.49238 -0.00858 0.95731 0.0
C263 C 0.43041 0.90006 0.96743 0.0
C264 C 0.41678 0.90663 0.96981 0.0
C265 C 0.46336 0.97844 0.01737 0.0
C266 C 0.50333 -0.00246 0.07388 0.0
C267 C 0.49746 0.9846 0.086 0.0
C268 C 0.50115 -0.00776 0.10221 0.0
C269 C 0.51094 0.01287 0.10614 0.0
C270 C 0.51337 0.01811 0.07808 0.0
C271 C 0.51715 0.02571 0.09413 0.0
C272 C 0.50151 0.96207 0.01312 0.0
C273 C 0.49807 -0.01051 0.05698 0.0
H274 H 0.50459 0.00897 0.92986 0.0
H275 H 0.46463 0.95744 0.89772 0.0
H276 H 0.46308 0.95359 0.94804 0.0
H277 H 0.45065 0.93819 0.92068 0.0
H278 H 0.48964 0.96868 0.08285 0.0
H279 H 0.51391 0.01904 0.11854 0.0
H280 H 0.5181 0.02828 0.06899 0.0
H281 H 0.52478 0.0416 0.09726 0.0
Eu282 Eu 0.00151 0.48489 0.99217 0.0
C283 C 0.94159 0.48042 0.03525 0.0
C284 C 0.94681 0.51367 0.03854 0.0
C285 C 0.913 0.48535 0.03613 0.0
C286 C 0.95454 0.50074 0.03703 0.0
C287 C 0.92065 0.47254 0.03528 0.0
C288 C 0.92606 0.50588 0.03774 0.0
C289 C 0.91626 0.44 0.03573 0.0
N290 N 0.94936 0.46834 0.03436 0.0
C291 C 0.93702 0.44851 0.03587 0.0
C292 C 0.90799 0.45202 0.03503 0.0
Eu293 Eu 0.98499 0.48378 0.03335 0.0
N294 N 0.9746 0.50789 0.03767 0.0
C295 C 0.98746 0.52786 0.0413 0.0
C296 C 0.96013 0.53409 0.04106 0.0
C297 C 0.98053 0.54118 0.04271 0.0
H298 H 0.94295 0.43899 0.03754 0.0
H299 H 0.99097 0.55694 0.04526 0.0
H300 H 0.91996 0.51562 0.03871 0.0
H301 H 0.9067 0.42421 0.03646 0.0
H302 H 0.00314 0.53397 0.04348 0.0
H303 H 0.00757 0.41852 0.99011 0.0
H304 H 0.95479 0.54446 0.0422 0.0
H305 H 0.03218 0.52806 0.97769 0.0
H306 H 0.99082 0.43801 0.99375 0.0
H307 H 0.06651 0.54616 0.96802 0.0
H308 H 0.89701 0.47953 0.03595 0.0
H309 H 0.04314 0.43496 0.98338 0.0
H310 H 0.07422 0.46596 0.97686 0.0
H311 H 0.89189 0.44544 0.03507 0.0
H312 H 0.09046 0.50091 0.97121 0.0
N313 N 0.01662 0.46526 0.98934 0.0
C314 C 0.0063 0.44536 0.99083 0.0
C315 C 0.03583 0.44358 0.98493 0.0
C316 C 0.04611 0.46385 0.98288 0.0
C317 C 0.01575 0.43424 0.98872 0.0
C318 C 0.0359 0.47438 0.98503 0.0
H319 H 0.08759 0.53083 0.96758 0.0
N320 N 0.03437 0.50332 0.9833 0.0
C321 C 0.06077 0.53161 0.9721 0.0
C322 C 0.04514 0.49411 0.9821 0.0
C323 C 0.0414 0.52138 0.97757 0.0
C324 C 0.07263 0.52293 0.97192 0.0
C325 C 0.06471 0.50376 0.9766 0.0
O326 O -0.00554 0.49417 0.97045 0.0
O327 O 0.97982 0.48788 0.00809 0.0
O328 O 0.9702 0.45233 0.02113 0.0
O329 O 0.97164 0.4569 0.99416 0.0
O330 O -0.00394 0.51053 0.99355 0.0
O331 O 0.9882 0.46414 0.97069 0.0
O332 O 0.97757 0.46245 0.05085 0.0
O333 O 0.00175 0.47476 0.01618 0.0
O334 O 0.02684 0.51191 0.00658 0.0
O335 O 0.013 0.51387 0.031 0.0
O336 O 0.01528 0.48759 0.03895 0.0
O337 O 0.99207 0.49425 0.05899 0.0
C338 C 0.98195 0.50375 0.0035 0.0
C339 C -0.00436 0.47791 0.94597 0.0
C340 C 0.98985 0.47534 0.91707 0.0
C341 C 0.98305 0.47471 0.93266 0.0
C342 C 0.0096 0.47955 0.91509 0.0
C343 C 0.01508 0.48165 0.94368 0.0
C344 C 0.02206 0.48261 0.92832 0.0
C345 C 0.96362 0.4459 0.00608 0.0
C346 C 0.98821 0.47719 0.96211 0.0
C347 C 0.07532 0.49366 0.97522 0.0
C348 C 0.06605 0.47374 0.97837 0.0
C349 C 0.01691 0.47979 0.02536 0.0
C350 C 0.98414 0.47123 0.07941 0.0
C351 C 6e-05 0.4834 0.09067 0.0
C352 C 0.0001 0.47739 0.106 0.0
C353 C 0.98368 0.45949 0.11006 0.0
C354 C 0.96801 0.45338 0.0837 0.0
C355 C 0.96773 0.44766 0.099 0.0
C356 C 0.02748 0.52111 0.02073 0.0
C357 C 0.98489 0.47619 0.06284 0.0
H358 H 0.96786 0.47137 0.93447 0.0
H359 H 0.01547 0.48057 0.90331 0.0
H360 H 0.02485 0.48375 0.9537 0.0
H361 H 0.03716 0.48569 0.92666 0.0
H362 H 0.01275 0.497 0.0873 0.0
H363 H 0.98316 0.45466 0.12184 0.0
H364 H 0.95565 0.44379 0.07518 0.0
H365 H 0.95521 0.43389 0.10224 0.0
Eu366 Eu 0.507 0.49317 0.0252 0.0
C367 C 0.45855 0.50335 0.9704 0.0
C368 C 0.42479 0.47605 0.97242 0.0
C369 C 0.43025 0.50642 0.96232 0.0
C370 C 0.44568 0.48452 0.97463 0.0
C371 C 0.45102 0.51427 0.96367 0.0
C372 C 0.41714 0.48734 0.96672 0.0
C373 C 0.48494 0.53863 0.95826 0.0
N374 N 0.47847 0.51031 0.97163 0.0
C375 C 0.49163 0.52717 0.96498 0.0
C376 C 0.46457 0.53234 0.95788 0.0
Eu377 Eu 0.48902 0.49069 0.98355 0.0
N378 N 0.45362 0.47395 0.97979 0.0
C379 C 0.44154 0.45423 0.9816 0.0
C380 C 0.41228 0.45626 0.97541 0.0
C381 C 0.42072 0.4452 0.97974 0.0
H382 H 0.5074 0.5321 0.96532 0.0
H383 H 0.41121 0.42974 0.98169 0.0
H384 H 0.40114 0.48118 0.96514 0.0
H385 H 0.4955 0.55229 0.95341 0.0
H386 H 0.4478 0.44549 0.98501 0.0
H387 H 0.58337 0.55699 0.03047 0.0
H388 H 0.39616 0.44922 0.97392 0.0
H389 H 0.48981 0.44874 0.03875 0.0
H390 H 0.54676 0.53972 0.02608 0.0
H391 H 0.50311 0.42843 0.0482 0.0
H392 H 0.42417 0.51469 0.95738 0.0
H393 H 0.59975 0.53825 0.03696 0.0
H394 H 0.5963 0.50596 0.04317 0.0
H395 H 0.4594 0.54118 0.9526 0.0
H396 H 0.57446 0.47094 0.04798 0.0
N397 N 0.54227 0.51129 0.02978 0.0
C398 C 0.5536 0.53132 0.029 0.0
C399 C 0.58361 0.53057 0.03511 0.0
C400 C 0.57182 0.51026 0.03674 0.0
C401 C 0.57442 0.5412 0.03148 0.0
C402 C 0.55089 0.50095 0.03412 0.0
H403 H 0.53969 0.442 0.05016 0.0
N404 N 0.51856 0.47319 0.03503 0.0
C405 C 0.51327 0.44323 0.04496 0.0
C406 C 0.53865 0.48126 0.03678 0.0
C407 C 0.5058 0.45475 0.03966 0.0
C408 C 0.53393 0.45093 0.046 0.0
C409 C 0.54692 0.47029 0.04217 0.0
O410 O 0.49062 0.48554 0.04704 0.0
O411 O 0.48148 0.48811 0.00926 0.0
O412 O 0.4917 0.51847 0.99634 0.0
O413 O 0.51114 0.52296 0.01952 0.0
O414 O 0.47489 0.46842 0.02633 0.0
O415 O 0.51414 0.51589 0.04506 0.0
O416 O 0.50592 0.49549 0.96197 0.0
O417 O 0.51429 0.49638 0.99979 0.0
O418 O 0.50755 0.46803 0.01062 0.0
O419 O 0.4836 0.46076 0.99035 0.0
O420 O 0.52165 0.51479 0.9818 0.0
O421 O 0.48021 0.46657 0.96456 0.0
C422 C 0.46737 0.47351 0.01527 0.0
C423 C 0.50851 0.50453 0.07075 0.0
C424 C 0.50461 0.50777 0.09947 0.0
C425 C 0.4983 0.50716 0.08361 0.0
C426 C 0.52124 0.50557 0.1022 0.0
C427 C 0.52514 0.50256 0.07373 0.0
C428 C 0.53143 0.50304 0.08939 0.0
C429 C 0.50268 0.52909 0.00946 0.0
C430 C 0.50129 0.50336 0.05432 0.0
C431 C 0.56781 0.47919 0.04403 0.0
C432 C 0.58024 0.49914 0.04131 0.0
C433 C 0.52874 0.51052 0.99372 0.0
C434 C 0.48725 0.47674 0.93849 0.0
C435 C 0.49873 0.47563 0.926 0.0
C436 C 0.49326 0.47563 0.91002 0.0
C437 C 0.47609 0.47673 0.90676 0.0
C438 C 0.47014 0.47773 0.93499 0.0
C439 C 0.46462 0.47773 0.91918 0.0
C440 C 0.49472 0.45603 0.99884 0.0
C441 C 0.49386 0.47774 0.9551 0.0
H442 H 0.48561 0.50893 0.08122 0.0
H443 H 0.52628 0.50558 0.11422 0.0
H444 H 0.5332 0.5006 0.06398 0.0
H445 H 0.5442 0.50137 0.09162 0.0
H446 H 0.51211 0.47515 0.92876 0.0
H447 H 0.47139 0.47655 0.89457 0.0
H448 H 0.4611 0.47857 0.94445 0.0
H449 H 0.4514 0.47851 0.91655 0.0
Eu450 Eu 0.14991 0.30911 0.31959 0.0
C451 C 0.19354 0.37905 0.37372 0.0
C452 C 0.22829 0.38789 0.37388 0.0
C453 C 0.21976 0.41319 0.38134 0.0
C454 C 0.20777 0.37368 0.37106 0.0
C455 C 0.19933 0.39876 0.37922 0.0
C456 C 0.23423 0.40776 0.37866 0.0
C457 C 0.16431 0.38811 0.38142 0.0
N458 N 0.17396 0.3647 0.37172 0.0
C459 C 0.15934 0.36874 0.37602 0.0
C460 C 0.18439 0.40325 0.38285 0.0
Eu461 Eu 0.16662 0.33253 0.36161 0.0
N462 N 0.2015 0.35433 0.36658 0.0
C463 C 0.21487 0.34791 0.36588 0.0
C464 C 0.24217 0.38158 0.37226 0.0
C465 C 0.2354 0.36145 0.36849 0.0
H466 H 0.14379 0.3571 0.3748 0.0
H467 H 0.24597 0.35635 0.36751 0.0
H468 H 0.24993 0.41893 0.38071 0.0
H469 H 0.15267 0.39135 0.38445 0.0
H470 H 0.20985 0.33242 0.36287 0.0
H471 H 0.07145 0.28894 0.31369 0.0
H472 H 0.25807 0.39204 0.37426 0.0
H473 H 0.17062 0.28262 0.30634 0.0
H474 H 0.10772 0.31151 0.31835 0.0
H475 H 0.16012 0.24786 0.29681 0.0
H476 H 0.22453 0.42846 0.38541 0.0
H477 H 0.05775 0.25296 0.30698 0.0
H478 H 0.06416 0.22488 0.30068 0.0
H479 H 0.18821 0.41822 0.38709 0.0
H480 H 0.0883 0.21367 0.29604 0.0
N481 N 0.11477 0.28863 0.3146 0.0
C482 C 0.1021 0.29592 0.31534 0.0
C483 C 0.07376 0.26283 0.30896 0.0
C484 C 0.08689 0.25561 0.30736 0.0
C485 C 0.08144 0.28313 0.31271 0.0
C486 C 0.1076 0.26909 0.31014 0.0
H487 H 0.12412 0.22219 0.29431 0.0
N488 N 0.14091 0.27643 0.30952 0.0
C489 C 0.14899 0.25184 0.29985 0.0
C490 C 0.12111 0.26279 0.30754 0.0
C491 C 0.15488 0.27148 0.30517 0.0
C492 C 0.12866 0.23738 0.2985 0.0
C493 C 0.11441 0.24283 0.30211 0.0
O494 O 0.16558 0.31467 0.2973 0.0
O495 O 0.17433 0.33251 0.33613 0.0
O496 O 0.16523 0.35465 0.34697 0.0
O497 O 0.14251 0.33347 0.32616 0.0
O498 O 0.18301 0.31929 0.31825 0.0
O499 O 0.14283 0.32256 0.30083 0.0
O500 O 0.15139 0.32621 0.3841 0.0
O501 O 0.14234 0.30914 0.34505 0.0
O502 O 0.15171 0.28726 0.33427 0.0
O503 O 0.1746 0.30853 0.355 0.0
O504 O 0.13331 0.32157 0.3632 0.0
O505 O 0.17523 0.31996 0.38015 0.0
C506 C 0.18932 0.33283 0.33015 0.0
C507 C 0.14719 0.31327 0.27437 0.0
C508 C 0.14818 0.31745 0.24581 0.0
C509 C 0.1561 0.32488 0.26163 0.0
C510 C 0.13143 0.29818 0.24296 0.0
C511 C 0.13055 0.29409 0.27122 0.0
C512 C 0.12276 0.28659 0.25558 0.0
C513 C 0.15255 0.35093 0.33483 0.0
C514 C 0.15515 0.32136 0.2909 0.0
C515 C 0.09377 0.22912 0.30005 0.0
C516 C 0.08003 0.2355 0.30268 0.0
C517 C 0.12719 0.30833 0.3511 0.0
C518 C 0.17095 0.32883 0.40673 0.0
C519 C 0.16499 0.31651 0.41929 0.0
C520 C 0.17341 0.3244 0.43493 0.0
C521 C 0.18759 0.34478 0.43783 0.0
C522 C 0.18506 0.34911 0.40993 0.0
C523 C 0.19328 0.35703 0.42542 0.0
C524 C 0.16463 0.29111 0.34626 0.0
C525 C 0.16274 0.32041 0.39029 0.0
H526 H 0.16889 0.33977 0.26406 0.0
H527 H 0.12512 0.29199 0.23092 0.0
H528 H 0.12353 0.28496 0.28084 0.0
H529 H 0.10991 0.27177 0.25324 0.0
H530 H 0.15417 0.3008 0.41683 0.0
H531 H 0.19415 0.35129 0.44976 0.0
H532 H 0.18979 0.3588 0.40048 0.0
H533 H 0.20416 0.37271 0.42779 0.0
Eu534 Eu 0.6679 0.81732 0.32459 0.0
C535 C 0.61323 0.82175 0.3676 0.0
C536 C 0.62398 0.85574 0.37717 0.0
C537 C 0.58892 0.83262 0.3697 0.0
C538 C 0.62837 0.84062 0.3729 0.0
C539 C 0.59319 0.81738 0.36644 0.0
C540 C 0.60432 0.85182 0.37497 0.0
C541 C 0.5828 0.78289 0.36058 0.0
N542 N 0.61789 0.80738 0.36446 0.0
C543 C 0.60281 0.78795 0.36206 0.0
C544 C 0.57797 0.79773 0.36243 0.0
Eu545 Eu 0.65262 0.81735 0.36596 0.0
N546 N 0.64712 0.84379 0.37515 0.0
C547 C 0.66128 0.86075 0.38392 0.0
C548 C 0.63924 0.87402 0.38431 0.0
C549 C 0.65784 0.87634 0.38812 0.0
H550 H 0.60576 0.77602 0.36187 0.0
H551 H 0.66945 0.89002 0.39448 0.0
H552 H 0.60074 0.86333 0.37795 0.0
H553 H 0.57108 0.76747 0.35836 0.0
H554 H 0.67543 0.86241 0.38763 0.0
H555 H 0.6758 0.75202 0.32325 0.0
H556 H 0.6365 0.88602 0.38774 0.0
H557 H 0.69784 0.86042 0.30947 0.0
H558 H 0.65829 0.77077 0.32646 0.0
H559 H 0.7323 0.87914 0.30016 0.0
H560 H 0.57369 0.82958 0.36866 0.0
H561 H 0.71145 0.76911 0.3167 0.0
H562 H 0.74215 0.80041 0.31017 0.0
H563 H 0.56244 0.79377 0.36141 0.0
H564 H 0.75771 0.83522 0.30426 0.0
N565 N 0.68371 0.79831 0.32202 0.0
C566 C 0.6738 0.77844 0.32364 0.0
C567 C 0.70379 0.77742 0.31807 0.0
C568 C 0.71368 0.79764 0.31587 0.0
C569 C 0.68368 0.76772 0.32175 0.0
C570 C 0.70302 0.80776 0.31777 0.0
H571 H 0.75407 0.86461 0.30025 0.0
N572 N 0.70066 0.83617 0.31551 0.0
C573 C 0.72681 0.86468 0.30433 0.0
C574 C 0.71185 0.82739 0.31461 0.0
C575 C 0.70736 0.85408 0.30958 0.0
C576 C 0.73906 0.85644 0.30445 0.0
C577 C 0.73147 0.83737 0.30925 0.0
O578 O 0.66003 0.82582 0.30282 0.0
O579 O 0.64613 0.82002 0.34069 0.0
O580 O 0.63823 0.78549 0.35448 0.0
O581 O 0.63879 0.78902 0.32733 0.0
O582 O 0.66147 0.84231 0.32562 0.0
O583 O 0.65475 0.79615 0.30332 0.0
O584 O 0.63921 0.79347 0.38173 0.0
O585 O 0.66952 0.80846 0.3489 0.0
O586 O 0.69293 0.84497 0.33823 0.0
O587 O 0.6786 0.84855 0.36186 0.0
O588 O 0.68379 0.82322 0.37113 0.0
O589 O 0.66185 0.82349 0.3915 0.0
C590 C 0.64788 0.8357 0.336 0.0
C591 C 0.66163 0.80965 0.27849 0.0
C592 C 0.65588 0.80743 0.24964 0.0
C593 C 0.64908 0.80668 0.26523 0.0
C594 C 0.67558 0.81155 0.2476 0.0
C595 C 0.68106 0.81334 0.27617 0.0
C596 C 0.68803 0.81443 0.2608 0.0
C597 C 0.63151 0.77837 0.33952 0.0
C598 C 0.65421 0.80884 0.29463 0.0
C599 C 0.74252 0.8277 0.30816 0.0
C600 C 0.73364 0.80787 0.31147 0.0
C601 C 0.68524 0.81484 0.35776 0.0
C602 C 0.64829 0.7981 0.4102 0.0
C603 C 0.66342 0.80931 0.42231 0.0
C604 C 0.66261 0.80171 0.43705 0.0
C605 C 0.64625 0.78307 0.43972 0.0
C606 C 0.63208 0.77952 0.41315 0.0
C607 C 0.63105 0.77214 0.42787 0.0
C608 C 0.69302 0.85535 0.35149 0.0
C609 C 0.64992 0.80512 0.39422 0.0
H610 H 0.63393 0.80341 0.26707 0.0
H611 H 0.68143 0.81262 0.2358 0.0
H612 H 0.6908 0.81531 0.28617 0.0
H613 H 0.7031 0.81745 0.25909 0.0
H614 H 0.67615 0.82354 0.42008 0.0
H615 H 0.6452 0.77698 0.45102 0.0
H616 H 0.62026 0.77062 0.40404 0.0
H617 H 0.61851 0.7578 0.43004 0.0
Eu618 Eu 0.17446 0.82695 0.35924 0.0
C619 C 0.12652 0.84063 0.30622 0.0
C620 C 0.09263 0.8133 0.30746 0.0
C621 C 0.0985 0.84464 0.29917 0.0
C622 C 0.11348 0.8215 0.30967 0.0
C623 C 0.11923 0.85223 0.30041 0.0
C624 C 0.0852 0.82519 0.30271 0.0
C625 C 0.15328 0.87677 0.29552 0.0
N626 N 0.14637 0.84726 0.30723 0.0
C627 C 0.1597 0.8646 0.30126 0.0
C628 C 0.13297 0.87073 0.29537 0.0
Eu629 Eu 0.15661 0.8267 0.31798 0.0
N630 N 0.12124 0.81039 0.3139 0.0
C631 C 0.10901 0.79044 0.31462 0.0
C632 C 0.07996 0.79319 0.30939 0.0
C633 C 0.08822 0.78162 0.31265 0.0
H634 H 0.17542 0.86932 0.30139 0.0
H635 H 0.07859 0.76592 0.31374 0.0
H636 H 0.06923 0.81925 0.30116 0.0
H637 H 0.16399 0.89079 0.29123 0.0
H638 H 0.11511 0.78129 0.31723 0.0
H639 H 0.25098 0.89044 0.36565 0.0
H640 H 0.06386 0.78632 0.30784 0.0
H641 H 0.15699 0.78142 0.37061 0.0
H642 H 0.21438 0.87351 0.36132 0.0
H643 H 0.1701 0.76035 0.37867 0.0
H644 H 0.09259 0.85342 0.29493 0.0
H645 H 0.26716 0.87118 0.371 0.0
H646 H 0.2635 0.8384 0.37587 0.0
H647 H 0.128 0.8801 0.29082 0.0
H648 H 0.2415 0.803 0.37943 0.0
N649 N 0.20971 0.84473 0.36386 0.0
C650 C 0.22114 0.86486 0.36372 0.0
C651 C 0.25103 0.86363 0.36914 0.0
C652 C 0.23914 0.84318 0.37014 0.0
C653 C 0.24195 0.87456 0.36616 0.0
C654 C 0.21823 0.83407 0.36755 0.0
H655 H 0.20665 0.77384 0.38072 0.0
N656 N 0.18582 0.80622 0.36776 0.0
C657 C 0.18033 0.77544 0.37606 0.0
C658 C 0.2059 0.81417 0.36952 0.0
C659 C 0.17296 0.78738 0.37157 0.0
C660 C 0.20097 0.78309 0.37717 0.0
C661 C 0.21406 0.80278 0.37415 0.0
O662 O 0.15897 0.81821 0.38142 0.0
O663 O 0.14909 0.82278 0.3436 0.0
O664 O 0.15951 0.85391 0.33193 0.0
O665 O 0.17883 0.85724 0.35485 0.0
O666 O 0.14212 0.80239 0.36014 0.0
O667 O 0.18104 0.84909 0.37943 0.0
O668 O 0.17285 0.83257 0.29597 0.0
O669 O 0.18186 0.83162 0.33394 0.0
O670 O 0.17489 0.80247 0.34337 0.0
O671 O 0.15048 0.79634 0.32396 0.0
O672 O 0.18924 0.85087 0.31661 0.0
O673 O 0.14888 0.80287 0.29898 0.0
C674 C 0.13485 0.80799 0.34929 0.0
C675 C 0.177 0.83773 0.40505 0.0
C676 C 0.17462 0.842 0.43394 0.0
C677 C 0.16715 0.84026 0.41823 0.0
C678 C 0.19205 0.84103 0.4362 0.0
C679 C 0.19435 0.83681 0.40757 0.0
C680 C 0.2018 0.83844 0.42308 0.0
C681 C 0.17056 0.86394 0.34515 0.0
C682 C 0.169 0.83607 0.38878 0.0
C683 C 0.23493 0.81155 0.37603 0.0
C684 C 0.24745 0.83171 0.37402 0.0
C685 C 0.19632 0.84608 0.32819 0.0
C686 C 0.15444 0.81244 0.27276 0.0
C687 C 0.1641 0.80844 0.26015 0.0
C688 C 0.15711 0.80614 0.2442 0.0
C689 C 0.14044 0.8081 0.24107 0.0
C690 C 0.13788 0.81442 0.26941 0.0
C691 C 0.13096 0.81229 0.25362 0.0
C692 C 0.16185 0.79114 0.33149 0.0
C693 C 0.1618 0.81451 0.28931 0.0
H694 H 0.15385 0.84116 0.41622 0.0
H695 H 0.19802 0.84203 0.44812 0.0
H696 H 0.20212 0.83488 0.39758 0.0
H697 H 0.21516 0.83766 0.42496 0.0
H698 H 0.17685 0.80683 0.26277 0.0
H699 H 0.13489 0.80664 0.2289 0.0
H700 H 0.1303 0.81755 0.27899 0.0
H701 H 0.11821 0.81388 0.25109 0.0
Eu702 Eu 0.81538 0.64335 0.65261 0.0
C703 C 0.85511 0.71218 0.70809 0.0
C704 C 0.8902 0.72231 0.70826 0.0
C705 C 0.8804 0.74652 0.71629 0.0
C706 C 0.86986 0.70761 0.70522 0.0
C707 C 0.86016 0.73152 0.71416 0.0
C708 C 0.89541 0.74192 0.71332 0.0
C709 C 0.82497 0.71917 0.71747 0.0
N710 N 0.83575 0.69726 0.70618 0.0
C711 C 0.82076 0.7002 0.71153 0.0
C712 C 0.84473 0.73499 0.71853 0.0
Eu713 Eu 0.82956 0.66576 0.69517 0.0
N714 N 0.86426 0.68847 0.70057 0.0
C715 C 0.87814 0.68268 0.70013 0.0
C716 C 0.90461 0.7167 0.70672 0.0
C717 C 0.89851 0.69672 0.70295 0.0
H718 H 0.80546 0.68798 0.71067 0.0
H719 H 0.90949 0.69212 0.70212 0.0
H720 H 0.91096 0.75347 0.71551 0.0
H721 H 0.81298 0.72157 0.72123 0.0
H722 H 0.87366 0.66733 0.69711 0.0
H723 H 0.73774 0.62583 0.64638 0.0
H724 H 0.92039 0.72753 0.7089 0.0
H725 H 0.83477 0.61559 0.63945 0.0
H726 H 0.77412 0.64747 0.65123 0.0
H727 H 0.82315 0.58054 0.62995 0.0
H728 H 0.88459 0.76154 0.72075 0.0
H729 H 0.723 0.58971 0.63961 0.0
H730 H 0.72824 0.56086 0.63342 0.0
H731 H 0.84798 0.74965 0.72324 0.0
H732 H 0.75146 0.54849 0.629 0.0
N733 N 0.7802 0.62391 0.64743 0.0
C734 C 0.76805 0.6318 0.64816 0.0
C735 C 0.73906 0.59917 0.64165 0.0
C736 C 0.75167 0.59131 0.64012 0.0
C737 C 0.74733 0.61955 0.64543 0.0
C738 C 0.77246 0.60427 0.64297 0.0
H739 H 0.78689 0.55577 0.62744 0.0
N740 N 0.8054 0.61039 0.64264 0.0
C741 C 0.81239 0.58502 0.63297 0.0
C742 C 0.78547 0.59727 0.64058 0.0
C743 C 0.81891 0.60482 0.63827 0.0
C744 C 0.79191 0.57108 0.63162 0.0
C745 C 0.77814 0.57719 0.63516 0.0
O746 O 0.83202 0.64806 0.63086 0.0
O747 O 0.83862 0.6669 0.66989 0.0
O748 O 0.82569 0.68746 0.68184 0.0
O749 O 0.80918 0.66878 0.65757 0.0
O750 O 0.84853 0.65392 0.65267 0.0
O751 O 0.80948 0.65645 0.63292 0.0
O752 O 0.81221 0.65615 0.71643 0.0
O753 O 0.80659 0.64237 0.67775 0.0
O754 O 0.81768 0.62166 0.66715 0.0
O755 O 0.83876 0.64262 0.68886 0.0
O756 O 0.79594 0.65352 0.6956 0.0
O757 O 0.83938 0.65514 0.71452 0.0
C758 C 0.85401 0.66748 0.6645 0.0
C759 C 0.81493 0.64653 0.60705 0.0
C760 C 0.81636 0.65079 0.57849 0.0
C761 C 0.82362 0.65842 0.59442 0.0
C762 C 0.80054 0.63104 0.57542 0.0
C763 C 0.79916 0.62691 0.60368 0.0
C764 C 0.79207 0.6192 0.58794 0.0
C765 C 0.81574 0.68461 0.66814 0.0
C766 C 0.82216 0.65483 0.62367 0.0
C767 C 0.7574 0.56403 0.63299 0.0
C768 C 0.74418 0.57108 0.63549 0.0
C769 C 0.79081 0.64067 0.68328 0.0
C770 C 0.83064 0.66122 0.74042 0.0
C771 C 0.82503 0.64859 0.75274 0.0
C772 C 0.82943 0.6566 0.76886 0.0
C773 C 0.83966 0.67732 0.77248 0.0
C774 C 0.84112 0.68185 0.7443 0.0
C775 C 0.84559 0.68983 0.76025 0.0
C776 C 0.82989 0.62549 0.67967 0.0
C777 C 0.82492 0.65281 0.72362 0.0
H778 H 0.83567 0.67366 0.59703 0.0
H779 H 0.79478 0.62469 0.56329 0.0
H780 H 0.79228 0.61758 0.61322 0.0
H781 H 0.77991 0.60402 0.58543 0.0
H782 H 0.8169 0.63262 0.74982 0.0
H783 H 0.84325 0.68382 0.78479 0.0
H784 H 0.84575 0.6918 0.73505 0.0
H785 H 0.85359 0.70578 0.76314 0.0
Eu786 Eu 0.33883 0.1547 0.65693 0.0
C787 C 0.27567 0.13799 0.70888 0.0
C788 C 0.26979 0.16538 0.7084 0.0
C789 C 0.24329 0.1335 0.71566 0.0
C790 C 0.28235 0.15737 0.70605 0.0
C791 C 0.25628 0.126 0.71421 0.0
C792 C 0.25003 0.15317 0.71273 0.0
C793 C 0.26496 0.10111 0.7182 0.0
N794 N 0.28874 0.13141 0.70767 0.0
C795 C 0.28407 0.11365 0.71297 0.0
C796 C 0.25087 0.10717 0.71857 0.0
Eu797 Eu 0.32053 0.15287 0.69802 0.0
N798 N 0.30163 0.16881 0.70219 0.0
C799 C 0.30981 0.18881 0.70188 0.0
C800 C 0.27773 0.1856 0.70696 0.0
C801 C 0.29793 0.19744 0.70399 0.0
H802 H 0.29495 0.10895 0.71268 0.0
H803 H 0.30437 0.2132 0.70325 0.0
H804 H 0.24008 0.15899 0.7144 0.0
H805 H 0.26112 0.0868 0.72196 0.0
H806 H 0.32537 0.19814 0.69951 0.0
H807 H 0.35212 0.09255 0.64844 0.0
H808 H 0.26857 0.19233 0.70862 0.0
H809 H 0.36721 0.20084 0.6465 0.0
H810 H 0.33215 0.10852 0.65345 0.0
H811 H 0.40185 0.22293 0.63872 0.0
H812 H 0.22825 0.12445 0.71956 0.0
H813 H 0.3881 0.11285 0.64346 0.0
H814 H 0.41764 0.14628 0.63942 0.0
H815 H 0.23612 0.0975 0.72274 0.0
H816 H 0.43121 0.18179 0.63677 0.0
N817 N 0.35658 0.13779 0.65164 0.0
C818 C 0.34778 0.11764 0.65122 0.0
C819 C 0.37938 0.11998 0.64561 0.0
C820 C 0.38806 0.14048 0.64519 0.0
C821 C 0.35907 0.10848 0.64838 0.0
C822 C 0.37606 0.14904 0.64815 0.0
H823 H 0.42534 0.21042 0.63622 0.0
N824 N 0.37139 0.17642 0.64876 0.0
C825 C 0.39697 0.20782 0.641 0.0
C826 C 0.38373 0.169 0.64672 0.0
C827 C 0.3774 0.1953 0.64535 0.0
C828 C 0.41021 0.20072 0.63965 0.0
C829 C 0.40356 0.18099 0.64225 0.0
O830 O 0.33156 0.16379 0.6353 0.0
O831 O 0.31725 0.15771 0.67266 0.0
O832 O 0.29594 0.12586 0.68333 0.0
O833 O 0.31285 0.12392 0.66071 0.0
O834 O 0.33109 0.17893 0.65681 0.0
O835 O 0.32344 0.13312 0.63625 0.0
O836 O 0.33029 0.14595 0.71971 0.0
O837 O 0.34131 0.1492 0.68202 0.0
O838 O 0.36407 0.17866 0.67314 0.0
O839 O 0.34618 0.18383 0.69332 0.0
O840 O 0.32918 0.12921 0.69888 0.0
O841 O 0.33548 0.17552 0.71817 0.0
C842 C 0.31785 0.17258 0.66745 0.0
C843 C 0.33073 0.14589 0.61117 0.0
C844 C 0.32368 0.1415 0.58234 0.0
C845 C 0.31748 0.14158 0.59807 0.0
C846 C 0.34342 0.14588 0.58 0.0
C847 C 0.35026 0.15004 0.60859 0.0
C848 C 0.35656 0.15005 0.59306 0.0
C849 C 0.29734 0.11653 0.66996 0.0
C850 C 0.32405 0.14629 0.62742 0.0
C851 C 0.41586 0.17277 0.64004 0.0
C852 C 0.40813 0.15255 0.64153 0.0
C853 C 0.34132 0.13474 0.68742 0.0
C854 C 0.32976 0.16344 0.74357 0.0
C855 C 0.34198 0.16488 0.75653 0.0
C856 C 0.33563 0.1644 0.77225 0.0
C857 C 0.3168 0.16241 0.77476 0.0
C858 C 0.31107 0.16152 0.7463 0.0
C859 C 0.30464 0.16099 0.76184 0.0
C860 C 0.36273 0.18955 0.68538 0.0
C861 C 0.33648 0.16337 0.72727 0.0
H862 H 0.30231 0.1381 0.60016 0.0
H863 H 0.34881 0.14631 0.56808 0.0
H864 H 0.36061 0.15331 0.61853 0.0
H865 H 0.3717 0.1534 0.59113 0.0
H866 H 0.35629 0.16609 0.75433 0.0
H867 H 0.31159 0.16225 0.78672 0.0
H868 H 0.30148 0.16043 0.73646 0.0
H869 H 0.29022 0.15954 0.7639 0.0
Eu870 Eu 0.8401 0.15948 0.69149 0.0
C871 C 0.79194 0.17045 0.63691 0.0
C872 C 0.75816 0.14315 0.63885 0.0
C873 C 0.76367 0.1736 0.62889 0.0
C874 C 0.77904 0.15158 0.64105 0.0
C875 C 0.78444 0.18142 0.63023 0.0
C876 C 0.75054 0.1545 0.63324 0.0
C877 C 0.81838 0.20575 0.62482 0.0
N878 N 0.81185 0.17738 0.63814 0.0
C879 C 0.82505 0.1943 0.63158 0.0
C880 C 0.79801 0.19949 0.62445 0.0
Eu881 Eu 0.82235 0.15763 0.64991 0.0
N882 N 0.78696 0.14093 0.6461 0.0
C883 C 0.77485 0.1212 0.64783 0.0
C884 C 0.74562 0.12333 0.64176 0.0
C885 C 0.75403 0.11221 0.64598 0.0
H886 H 0.84083 0.19926 0.63198 0.0
H887 H 0.7445 0.09672 0.64786 0.0
H888 H 0.73454 0.14837 0.63166 0.0
H889 H 0.82895 0.21943 0.62 0.0
H890 H 0.78109 0.11241 0.65116 0.0
H891 H 0.91669 0.22286 0.69742 0.0
H892 H 0.7295 0.11632 0.64028 0.0
H893 H 0.82238 0.11469 0.7045 0.0
H894 H 0.88012 0.20591 0.69286 0.0
H895 H 0.8353 0.09398 0.71374 0.0
H896 H 0.75761 0.18191 0.62398 0.0
H897 H 0.93272 0.20374 0.70372 0.0
H898 H 0.92889 0.17119 0.7096 0.0
H899 H 0.79286 0.20835 0.61918 0.0
H900 H 0.90675 0.13609 0.71404 0.0
N901 N 0.87532 0.17729 0.69625 0.0
C902 C 0.88682 0.19734 0.69568 0.0
C903 C 0.91661 0.1962 0.70178 0.0
C904 C 0.90464 0.17585 0.70321 0.0
C905 C 0.90761 0.20704 0.69826 0.0
C906 C 0.88375 0.16673 0.70048 0.0
H907 H 0.87182 0.10726 0.71588 0.0
N908 N 0.85127 0.13908 0.70106 0.0
C909 C 0.8456 0.10883 0.71066 0.0
C910 C 0.87134 0.14699 0.70291 0.0
C911 C 0.83833 0.12058 0.70549 0.0
C912 C 0.86622 0.11636 0.71181 0.0
C913 C 0.87939 0.13579 0.70819 0.0
O914 O 0.82346 0.15172 0.7132 0.0
O915 O 0.8147 0.15475 0.67556 0.0
O916 O 0.82473 0.18512 0.66313 0.0
O917 O 0.84454 0.18945 0.68599 0.0
O918 O 0.80789 0.13479 0.69242 0.0
O919 O 0.84742 0.18197 0.71158 0.0
O920 O 0.83893 0.16271 0.62813 0.0
O921 O 0.84756 0.16316 0.66613 0.0
O922 O 0.84077 0.13459 0.67664 0.0
O923 O 0.81686 0.12757 0.65643 0.0
O924 O 0.85499 0.18179 0.6483 0.0
O925 O 0.81391 0.13349 0.63102 0.0
C926 C 0.80048 0.14011 0.68145 0.0
C927 C 0.84127 0.17013 0.7371 0.0
C928 C 0.8373 0.17318 0.76584 0.0
C929 C 0.83129 0.17308 0.74999 0.0
C930 C 0.8534 0.17013 0.7685 0.0
C931 C 0.8574 0.16735 0.74004 0.0
C932 C 0.86338 0.16731 0.75568 0.0
C933 C 0.8358 0.19565 0.67626 0.0
C934 C 0.83431 0.1694 0.72068 0.0
C935 C 0.90025 0.14452 0.71017 0.0
C936 C 0.91286 0.16451 0.70766 0.0
C937 C 0.86204 0.17738 0.66016 0.0
C938 C 0.82028 0.14322 0.60482 0.0
C939 C 0.83061 0.14025 0.59222 0.0
C940 C 0.82448 0.13921 0.5762 0.0
C941 C 0.80789 0.14135 0.57306 0.0
C942 C 0.80371 0.14515 0.60142 0.0
C943 C 0.7976 0.14426 0.5856 0.0
C944 C 0.82801 0.12274 0.66479 0.0
C945 C 0.82725 0.14477 0.62142 0.0
H946 H 0.81899 0.17548 0.74764 0.0
H947 H 0.85818 0.16971 0.7805 0.0
H948 H 0.86529 0.16515 0.73028 0.0
H949 H 0.87575 0.165 0.75787 0.0
H950 H 0.84327 0.13855 0.59492 0.0
H951 H 0.80299 0.14101 0.56091 0.0
H952 H 0.79553 0.14737 0.61096 0.0
H953 H 0.78487 0.1459 0.58305 0.0
C954 C 0.29662 0.8425 0.03772 0.0
C955 C 0.29552 0.82491 0.0415 0.0
C956 C 0.31442 0.85801 0.03272 0.0
C957 C 0.36884 0.87733 0.03463 0.0
H958 H 0.36955 0.91254 0.00457 0.0
C959 C 0.4423 0.94155 0.01502 0.0
C960 C 0.44367 0.96013 0.01654 0.0
C961 C 0.42389 0.92422 0.01584 0.0
C962 C 0.36951 0.90281 0.01299 0.0
H963 H 0.31192 0.80941 0.04236 0.0
H964 H 0.34282 0.83623 0.03321 0.0
H965 H 0.33782 0.88317 0.00977 0.0
H966 H 0.42717 0.97536 0.02054 0.0
H967 H 0.39469 0.94486 0.02188 0.0
H968 H 0.4005 0.89694 0.0378 0.0
C969 C 0.33012 0.8383 0.03453 0.0
C970 C 0.35138 0.88605 0.01603 0.0
C971 C 0.31238 0.82288 0.0397 0.0
C972 C 0.42634 0.96113 0.01902 0.0
C973 C 0.40783 0.94374 0.01971 0.0
C974 C 0.38693 0.89393 0.03147 0.0
C975 C 0.33146 0.85619 0.03122 0.0
C976 C 0.3508 0.87324 0.02705 0.0
C977 C 0.40652 0.92516 0.01836 0.0
C978 C 0.38741 0.90694 0.02078 0.0
H979 H 0.28388 0.84452 0.03903 0.0
H980 H 0.31496 0.87166 0.03052 0.0
H981 H 0.36897 0.86807 0.04341 0.0
H982 H 0.45549 0.94037 0.01364 0.0
H983 H 0.42327 0.91007 0.01476 0.0
C984 C 0.14856 0.45538 0.06599 0.0
C985 C 0.15616 0.4454 0.05643 0.0
C986 C 0.13506 0.46 0.05948 0.0
C987 C 0.09755 0.44507 0.02646 0.0
H988 H 0.10079 0.49465 0.04167 0.0
C989 C 0.02993 0.45676 0.02486 0.0
C990 C 0.03321 0.47567 0.02276 0.0
C991 C 0.04601 0.45349 0.02555 0.0
C992 C 0.09977 0.48087 0.03704 0.0
H993 H 0.1556 0.43256 0.03242 0.0
H994 H 0.13192 0.44073 0.02098 0.0
H995 H 0.12741 0.4888 0.04921 0.0
H996 H 0.05578 0.50619 0.0204 0.0
H997 H 0.08387 0.50048 0.02099 0.0
H998 H 0.06976 0.43715 0.01434 0.0
C999 C 0.13641 0.44487 0.03357 0.0
C1000 C 0.11495 0.4774 0.04155 0.0
C1001 C 0.15005 0.4403 0.0401 0.0
C1002 C 0.05282 0.49133 0.02149 0.0
C1003 C 0.06891 0.48807 0.02202 0.0
C1004 C 0.08231 0.44855 0.02191 0.0
C1005 C 0.12875 0.45478 0.04321 0.0
C1006 C 0.1138 0.45927 0.03668 0.0
C1007 C 0.06577 0.46919 0.02444 0.0
C1008 C 0.08302 0.46633 0.02745 0.0
H1009 H 0.15285 0.45949 0.07861 0.0
H1010 H 0.12922 0.46731 0.06733 0.0
H1011 H 0.09617 0.43093 0.02251 0.0
H1012 H 0.01497 0.44466 0.02654 0.0
H1013 H 0.04301 0.43887 0.02777 0.0
C1014 C 0.53044 0.69085 0.06175 0.0
C1015 C 0.53628 0.70545 0.05107 0.0
C1016 C 0.52519 0.67149 0.05626 0.0
C1017 C 0.53219 0.64267 0.02257 0.0
H1018 H 0.49083 0.59783 0.04251 0.0
C1019 C 0.50709 0.56098 0.00137 0.0
C1020 C 0.50558 0.54907 0.01345 0.0
C1021 C 0.50987 0.57989 0.00522 0.0
C1022 C 0.50248 0.61023 0.0369 0.0
H1023 H 0.54066 0.71105 0.02614 0.0
H1024 H 0.5311 0.67703 0.01646 0.0
H1025 H 0.49658 0.63103 0.05011 0.0
H1026 H 0.50584 0.54758 0.03909 0.0
H1027 H 0.51056 0.5806 0.04586 0.0
H1028 H 0.53796 0.62173 0.00932 0.0
C1029 C 0.53095 0.68069 0.02915 0.0
C1030 C 0.50581 0.62925 0.04125 0.0
C1031 C 0.53629 0.70014 0.03468 0.0
C1032 C 0.50696 0.55645 0.02951 0.0
C1033 C 0.50951 0.57526 0.03338 0.0
C1034 C 0.52873 0.6236 0.01812 0.0
C1035 C 0.52552 0.66618 0.03991 0.0
C1036 C 0.52091 0.64576 0.03432 0.0
C1037 C 0.51101 0.58717 0.02127 0.0
C1038 C 0.51403 0.60724 0.0254 0.0
H1039 H 0.53031 0.69443 0.07447 0.0
H1040 H 0.52142 0.66082 0.06493 0.0
H1041 H 0.54413 0.65506 0.01716 0.0
H1042 H 0.50657 0.55592 0.98896 0.0
H1043 H 0.51098 0.58875 0.99565 0.0
C1044 C 0.81731 0.28905 0.95633 0.0
C1045 C 0.81075 0.27261 0.96517 0.0
C1046 C 0.8328 0.30775 0.96244 0.0
C1047 C 0.87659 0.33174 0.99068 0.0
H1048 H 0.87585 0.37941 0.98321 0.0
C1049 C 0.94093 0.41109 0.01305 0.0
C1050 C 0.94644 0.42556 0.00228 0.0
C1051 C 0.9239 0.39227 0.00972 0.0
C1052 C 0.87634 0.36624 0.98529 0.0
H1053 H 0.81496 0.26302 0.98758 0.0
H1054 H 0.84202 0.29586 0.99833 0.0
H1055 H 0.84632 0.34698 0.97575 0.0
H1056 H 0.93877 0.43146 0.97936 0.0
H1057 H 0.90937 0.39862 0.97344 0.0
H1058 H 0.90675 0.35107 1.00001 0.0
C1059 C 0.83527 0.29416 0.98657 0.0
C1060 C 0.85941 0.34767 0.98103 0.0
C1061 C 0.81969 0.2754 0.98046 0.0
C1062 C 0.93491 0.42067 0.98793 0.0
C1063 C 0.91792 0.40191 0.98461 0.0
C1064 C 0.89355 0.35036 0.99494 0.0
C1065 C 0.84212 0.3105 0.97754 0.0
C1066 C 0.85945 0.3302 0.98343 0.0
C1067 C 0.91208 0.38756 0.99554 0.0
C1068 C 0.89371 0.3678 0.99204 0.0
H1069 H 0.81078 0.28743 0.9445 0.0
H1070 H 0.83789 0.31996 0.95508 0.0
H1071 H 0.87717 0.31856 0.99252 0.0
H1072 H 0.9497 0.41433 0.0241 0.0
H1073 H 0.91977 0.38155 0.01839 0.0
C1074 C 0.68582 0.51482 0.97303 0.0
C1075 C 0.70239 0.533 0.96966 0.0
C1076 C 0.66829 0.51388 0.97831 0.0
C1077 C 0.64033 0.53956 0.97545 0.0
H1078 H 0.60849 0.50684 0.00817 0.0
C1079 C 0.56526 0.53347 0.99121 0.0
C1080 C 0.54954 0.51466 0.99418 0.0
C1081 C 0.58483 0.53713 0.99037 0.0
C1082 C 0.6171 0.5159 0.99889 0.0
H1083 H 0.71372 0.56459 0.96977 0.0
H1084 H 0.6831 0.56289 0.97886 0.0
H1085 H 0.64107 0.51043 0.00296 0.0
H1086 H 0.54173 0.48464 0.99775 0.0
H1087 H 0.57566 0.4908 0.99605 0.0
H1088 H 0.61623 0.54449 0.97087 0.0
C1089 C 0.68366 0.54935 0.97733 0.0
C1090 C 0.6358 0.518 0.99596 0.0
C1091 C 0.70124 0.55032 0.9722 0.0
C1092 C 0.55365 0.49946 0.99598 0.0
C1093 C 0.57317 0.50304 0.99501 0.0
C1094 C 0.62158 0.53731 0.97826 0.0
C1095 C 0.66687 0.53107 0.98019 0.0
C1096 C 0.64756 0.52974 0.98412 0.0
C1097 C 0.58903 0.52189 0.99207 0.0
C1098 C 0.60959 0.5253 0.9899 0.0
H1099 H 0.6862 0.5012 0.97124 0.0
H1100 H 0.65557 0.49956 0.9803 0.0
H1101 H 0.64888 0.54847 0.96608 0.0
H1102 H 0.56239 0.54536 0.98958 0.0
H1103 H 0.59665 0.5519 0.9883 0.0
C1104 C 0.4844 0.1661 0.96398 0.0
C1105 C 0.46926 0.16917 0.97013 0.0
C1106 C 0.4855 0.14959 0.96745 0.0
C1107 C 0.47143 0.11312 0.99652 0.0
H1108 H 0.47942 0.08202 0.96213 0.0
C1109 C 0.49579 0.05668 0.00715 0.0
C1110 C 0.48529 0.03797 0.99826 0.0
C1111 C 0.49257 0.07197 0.00381 0.0
C1112 C 0.47704 0.09049 0.97182 0.0
H1113 H 0.44359 0.15748 0.98494 0.0
H1114 H 0.44571 0.12874 0.99116 0.0
H1115 H 0.47632 0.11033 0.95619 0.0
H1116 H 0.46349 0.02091 0.97856 0.0
H1117 H 0.45825 0.04789 0.97252 0.0
H1118 H 0.47243 0.09343 0.01216 0.0
C1119 C 0.45667 0.13912 0.98364 0.0
C1120 C 0.47545 0.10677 0.96845 0.0
C1121 C 0.45544 0.15554 0.98004 0.0
C1122 C 0.47177 0.03507 0.98571 0.0
C1123 C 0.46877 0.05051 0.98222 0.0
C1124 C 0.47327 0.09699 0.99991 0.0
C1125 C 0.47161 0.1359 0.97726 0.0
C1126 C 0.47273 0.11831 0.98078 0.0
C1127 C 0.47908 0.06907 0.99131 0.0
C1128 C 0.47619 0.08558 0.9876 0.0
H1129 H 0.49527 0.17631 0.95631 0.0
H1130 H 0.49731 0.1476 0.96254 0.0
H1131 H 0.46943 0.12181 0.00625 0.0
H1132 H 0.50672 0.05969 0.01659 0.0
H1133 H 0.50099 0.08624 0.01082 0.0
C1134 C 0.67076 0.15739 0.9667 0.0
C1135 C 0.68873 0.1575 0.96435 0.0
C1136 C 0.65448 0.14127 0.97286 0.0
C1137 C 0.63196 0.0882 0.9745 0.0
H1138 H 0.60118 0.09454 0.00835 0.0
C1139 C 0.5627 0.0201 0.99506 0.0
C1140 C 0.546 0.02201 0.99808 0.0
C1141 C 0.58143 0.0369 0.99359 0.0
C1142 C 0.60949 0.09251 0.99878 0.0
H1143 H 0.70378 0.14088 0.96672 0.0
H1144 H 0.67515 0.11252 0.97714 0.0
H1145 H 0.63126 0.12366 1.00034 0.0
H1146 H 0.53556 0.04283 0.00177 0.0
H1147 H 0.568 0.0721 0.99879 0.0
H1148 H 0.60991 0.05735 0.97227 0.0
C1149 C 0.67376 0.12499 0.97432 0.0
C1150 C 0.62674 0.10918 0.99426 0.0
C1151 C 0.69013 0.14123 0.96839 0.0
C1152 C 0.54831 0.04099 0.99979 0.0
C1153 C 0.56698 0.05779 0.99811 0.0
C1154 C 0.61458 0.0716 0.97884 0.0
C1155 C 0.65576 0.12483 0.97655 0.0
C1156 C 0.63805 0.10717 0.982 0.0
C1157 C 0.58372 0.05593 0.99466 0.0
C1158 C 0.60301 0.07352 0.99096 0.0
H1159 H 0.66924 0.16974 0.96376 0.0
H1160 H 0.64071 0.14144 0.97434 0.0
H1161 H 0.64026 0.08627 0.96487 0.0
H1162 H 0.5612 0.00556 0.99363 0.0
H1163 H 0.59404 0.03489 0.9913 0.0
C1164 C 0.84567 0.52169 0.95346 0.0
C1165 C 0.84005 0.53355 0.9629 0.0
C1166 C 0.86112 0.519 0.95881 0.0
C1167 C 0.88642 0.51679 0.99394 0.0
H1168 H 0.93202 0.53103 0.96773 0.0
C1169 C 0.94543 0.49199 0.99975 0.0
C1170 C 0.9654 0.5077 0.0017 0.0
C1171 C 0.93 0.49567 0.99645 0.0
C1172 C 0.91938 0.52704 0.97516 0.0
H1173 H 0.846 0.55158 0.98549 0.0
H1174 H 0.87264 0.54629 0.99504 0.0
H1175 H 0.90503 0.53616 0.95886 0.0
H1176 H 0.98503 0.53933 1.00098 0.0
H1177 H 0.95805 0.5457 0.99468 0.0
H1178 H 0.90048 0.50696 0.00994 0.0
C1179 C 0.8652 0.53935 0.98342 0.0
C1180 C 0.90395 0.52988 0.97007 0.0
C1181 C 0.85005 0.54244 0.97792 0.0
C1182 C 0.96971 0.52705 0.99987 0.0
C1183 C 0.95434 0.53067 0.99625 0.0
C1184 C 0.90164 0.51347 0.99884 0.0
C1185 C 0.87096 0.52772 0.97386 0.0
C1186 C 0.88736 0.52484 0.97942 0.0
C1187 C 0.93437 0.51501 0.99445 0.0
C1188 C 0.91829 0.51866 0.98952 0.0
H1189 H 0.83827 0.51467 0.94184 0.0
H1190 H 0.86526 0.50992 0.95124 0.0
H1191 H 0.87372 0.51271 0.00131 0.0
H1192 H 0.94179 0.47682 1.00051 0.0
H1193 H 0.91474 0.48332 0.99491 0.0
C1194 C 0.49572 0.30086 0.96962 0.0
C1195 C 0.47874 0.28581 0.96057 0.0
C1196 C 0.49684 0.31874 0.9751 0.0
C1197 C 0.47733 0.3503 0.96471 0.0
H1198 H 0.49741 0.37715 0.00725 0.0
C1199 C 0.47588 0.42112 0.98587 0.0
C1200 C 0.49246 0.43624 0.99521 0.0
C1201 C 0.4738 0.40245 0.98242 0.0
C1202 C 0.49199 0.36995 0.99526 0.0
H1203 H 0.44929 0.27741 0.95076 0.0
H1204 H 0.45132 0.30852 0.96027 0.0
H1205 H 0.49454 0.34495 1.00019 0.0
H1206 H 0.52007 0.44373 0.00803 0.0
H1207 H 0.5166 0.41128 0.00183 0.0
H1208 H 0.47513 0.37532 0.95958 0.0
C1209 C 0.46383 0.3066 0.96298 0.0
C1210 C 0.49031 0.3515 0.99126 0.0
C1211 C 0.46265 0.28873 0.95761 0.0
C1212 C 0.50696 0.43231 1.00099 0.0
C1213 C 0.50494 0.41367 0.99747 0.0
C1214 C 0.47914 0.36877 0.96866 0.0
C1215 C 0.48107 0.32193 0.97152 0.0
C1216 C 0.48288 0.34146 0.97596 0.0
C1217 C 0.48836 0.39852 0.9881 0.0
C1218 C 0.48643 0.37881 0.984 0.0
H1219 H 0.50834 0.29904 0.97214 0.0
H1220 H 0.51034 0.33034 0.98161 0.0
H1221 H 0.47191 0.34309 0.95273 0.0
H1222 H 0.46438 0.42363 0.9813 0.0
H1223 H 0.46068 0.39104 0.97538 0.0
C1224 C 0.18263 0.66857 0.07783 0.0
C1225 C 0.17734 0.68047 0.08758 0.0
C1226 C 0.16795 0.65161 0.0686 0.0
C1227 C 0.11562 0.62892 0.0522 0.0
H1228 H 0.11699 0.58008 0.04758 0.0
C1229 C 0.0473 0.55065 0.04075 0.0
C1230 C 0.04618 0.53995 0.02612 0.0
C1231 C 0.06473 0.56834 0.0459 0.0
C1232 C 0.11668 0.59376 0.04858 0.0
H1233 H 0.15251 0.68352 0.09582 0.0
H1234 H 0.12694 0.6537 0.08026 0.0
H1235 H 0.14487 0.61 0.06185 0.0
H1236 H 0.06346 0.53885 0.00618 0.0
H1237 H 0.0942 0.56974 0.01547 0.0
H1238 H 0.08682 0.61222 0.03979 0.0
C1239 C 0.14243 0.65774 0.07926 0.0
C1240 C 0.13258 0.61087 0.05672 0.0
C1241 C 0.15708 0.67474 0.08834 0.0
C1242 C 0.06342 0.54702 0.01715 0.0
C1243 C 0.08109 0.56458 0.02251 0.0
C1244 C 0.09966 0.61178 0.0443 0.0
C1245 C 0.1477 0.64617 0.06904 0.0
C1246 C 0.13197 0.62852 0.05898 0.0
C1247 C 0.08169 0.57543 0.03682 0.0
C1248 C 0.09992 0.59403 0.04272 0.0
H1249 H 0.19816 0.67268 0.07693 0.0
H1250 H 0.17254 0.64309 0.06081 0.0
H1251 H 0.1149 0.64238 0.05331 0.0
H1252 H 0.03492 0.54537 0.04849 0.0
H1253 H 0.0651 0.57635 0.05717 0.0
C1254 C 0.29468 0.43295 0.03746 0.0
C1255 C 0.29347 0.44278 0.05183 0.0
C1256 C 0.31328 0.43674 0.03211 0.0
C1257 C 0.36346 0.45177 0.04687 0.0
H1258 H 0.38001 0.46501 0.00388 0.0
C1259 C 0.43202 0.45144 0.02172 0.0
C1260 C 0.44659 0.46934 0.01618 0.0
C1261 C 0.41288 0.44804 0.02464 0.0
C1262 C 0.37553 0.46133 0.01591 0.0
H1263 H 0.31086 0.4643 0.07183 0.0
H1264 H 0.34324 0.47045 0.06272 0.0
H1265 H 0.34725 0.4595 0.01197 0.0
H1266 H 0.45263 0.4978 0.0094 0.0
H1267 H 0.41874 0.49153 0.01399 0.0
H1268 H 0.39144 0.45319 0.05078 0.0
C1269 C 0.3298 0.45997 0.05553 0.0
C1270 C 0.35681 0.45809 0.0205 0.0
C1271 C 0.31126 0.45647 0.06072 0.0
C1272 C 0.44153 0.48368 0.01331 0.0
C1273 C 0.42221 0.48013 0.01599 0.0
C1274 C 0.38192 0.4546 0.0422 0.0
C1275 C 0.331 0.45014 0.04119 0.0
C1276 C 0.35067 0.45339 0.03608 0.0
C1277 C 0.40786 0.46244 0.02202 0.0
C1278 C 0.38817 0.45945 0.02671 0.0
H1279 H 0.28125 0.42239 0.0303 0.0
H1280 H 0.31378 0.42887 0.02107 0.0
H1281 H 0.35905 0.44804 0.0589 0.0
H1282 H 0.43559 0.44022 0.02415 0.0
H1283 H 0.40207 0.43425 0.02922 0.0
C1284 C 0.50617 0.8155 0.04627 0.0
C1285 C 0.52509 0.81898 0.05111 0.0
C1286 C 0.50392 0.83099 0.04173 0.0
C1287 C 0.53311 0.88282 0.03017 0.0
H1288 H 0.48424 0.88271 0.03982 0.0
C1289 C 0.52212 0.95016 0.02591 0.0
C1290 C 0.5048 0.94595 0.01707 0.0
C1291 C 0.52499 0.93477 0.02973 0.0
C1292 C 0.49791 0.88285 0.037 0.0
H1293 H 0.55647 0.84142 0.05518 0.0
H1294 H 0.55247 0.86864 0.048 0.0
H1295 H 0.48856 0.85583 0.04744 0.0
H1296 H 0.47682 0.92232 0.00542 0.0
H1297 H 0.48173 0.89548 0.01239 0.0
H1298 H 0.54261 0.91035 0.02024 0.0
C1299 C 0.53941 0.85386 0.04714 0.0
C1300 C 0.50038 0.86739 0.04125 0.0
C1301 C 0.54171 0.83827 0.05138 0.0
C1302 C 0.49039 0.92606 0.01217 0.0
C1303 C 0.49311 0.91069 0.01622 0.0
C1304 C 0.53077 0.89848 0.02618 0.0
C1305 C 0.52048 0.85044 0.04224 0.0
C1306 C 0.51796 0.86707 0.03782 0.0
C1307 C 0.51043 0.9149 0.02503 0.0
C1308 C 0.5131 0.89855 0.02948 0.0
H1309 H 0.49312 0.80072 0.0458 0.0
H1310 H 0.48918 0.82762 0.03769 0.0
H1311 H 0.5467 0.88298 0.02704 0.0
H1312 H 0.53349 0.96535 0.02982 0.0
H1313 H 0.53842 0.93835 0.03661 0.0
C1314 C 0.98173 0.15164 0.37443 0.0
C1315 C 0.96344 0.15086 0.37675 0.0
C1316 C -0.002 0.16844 0.369 0.0
C1317 C 0.01944 0.22174 0.36974 0.0
H1318 H 0.05285 0.21859 0.33674 0.0
C1319 C 0.09027 0.29214 0.35319 0.0
C1320 C 0.10713 0.29042 0.35035 0.0
C1321 C 0.07143 0.27516 0.35397 0.0
C1322 C 0.04379 0.21973 0.34609 0.0
H1323 H 0.94777 0.16699 0.37496 0.0
H1324 H 0.97635 0.1965 0.36577 0.0
H1325 H 0.02243 0.18848 0.34285 0.0
H1326 H 0.11777 0.26975 0.34687 0.0
H1327 H 0.08521 0.24025 0.34852 0.0
H1328 H 0.04109 0.25269 0.37362 0.0
C1329 C 0.97802 0.18404 0.36809 0.0
C1330 C 0.02634 0.20248 0.34951 0.0
C1331 C 0.96166 0.16713 0.3733 0.0
C1332 C 0.10493 0.27149 0.34852 0.0
C1333 C 0.08618 0.25454 0.34946 0.0
C1334 C 0.03701 0.23892 0.36649 0.0
C1335 C -0.00362 0.18491 0.36599 0.0
C1336 C 0.01412 0.2033 0.36149 0.0
C1337 C 0.06919 0.25613 0.35236 0.0
C1338 C 0.04958 0.23812 0.35476 0.0
H1339 H 0.98355 0.13932 0.37694 0.0
H1340 H 0.01203 0.16878 0.36761 0.0
H1341 H 0.0104 0.22276 0.37916 0.0
H1342 H 0.0917 0.30664 0.35482 0.0
H1343 H 0.05868 0.27699 0.356 0.0
C1344 C 0.81657 0.77266 0.37246 0.0
C1345 C 0.82281 0.77769 0.38877 0.0
C1346 C 0.80303 0.77745 0.36606 0.0
C1347 C 0.78225 0.81051 0.37438 0.0
H1348 H 0.73673 0.77076 0.34718 0.0
C1349 C 0.72105 0.82578 0.3544 0.0
C1350 C 0.70131 0.81034 0.35555 0.0
C1351 C 0.7369 0.82218 0.355 0.0
C1352 C 0.74938 0.78202 0.35476 0.0
H1353 H 0.81983 0.79186 0.41104 0.0
H1354 H 0.79637 0.80004 0.39999 0.0
H1355 H 0.76284 0.76403 0.35518 0.0
H1356 H 0.68257 0.77934 0.35921 0.0
H1357 H 0.71022 0.77296 0.36062 0.0
H1358 H 0.7685 0.82813 0.37466 0.0
C1359 C 0.80204 0.79263 0.39205 0.0
C1360 C 0.76444 0.77825 0.3592 0.0
C1361 C 0.81543 0.7878 0.39843 0.0
C1362 C 0.69764 0.79128 0.35763 0.0
C1363 C 0.7135 0.78767 0.35843 0.0
C1364 C 0.76724 0.81426 0.36996 0.0
C1365 C 0.79561 0.78749 0.37581 0.0
C1366 C 0.78081 0.79227 0.3694 0.0
C1367 C 0.73338 0.80316 0.35739 0.0
C1368 C 0.75039 0.79992 0.36038 0.0
H1369 H 0.82194 0.76483 0.36469 0.0
H1370 H 0.79845 0.77337 0.35348 0.0
H1371 H 0.79481 0.82177 0.38202 0.0
H1372 H 0.72424 0.84071 0.35335 0.0
H1373 H 0.75197 0.83443 0.35404 0.0
C1374 C 0.19482 0.02538 0.39556 0.0
C1375 C 0.20239 0.04008 0.38486 0.0
C1376 C 0.19004 0.00603 0.39054 0.0
C1377 C 0.20174 0.97782 0.35958 0.0
H1378 H 0.15711 0.93229 0.37629 0.0
C1379 C 0.17813 0.89698 0.33764 0.0
C1380 C 0.17398 0.884 0.34945 0.0
C1381 C 0.18103 0.9159 0.3416 0.0
C1382 C 0.16971 0.9449 0.37164 0.0
H1383 H 0.21021 0.04582 0.36032 0.0
H1384 H 0.20149 0.01186 0.35146 0.0
H1385 H 0.16217 0.96538 0.38322 0.0
H1386 H 0.16996 0.88059 0.37471 0.0
H1387 H 0.17497 0.91378 0.38172 0.0
H1388 H 0.20916 0.95726 0.34791 0.0
C1389 C 0.19963 0.01543 0.36384 0.0
C1390 C 0.17263 0.96384 0.37559 0.0
C1391 C 0.20449 0.03485 0.36888 0.0
C1392 C 0.17307 0.89034 0.36538 0.0
C1393 C 0.17578 0.90922 0.36935 0.0
C1394 C 0.19873 0.95886 0.35553 0.0
C1395 C 0.19262 0.00086 0.37468 0.0
C1396 C 0.18878 0.98056 0.36972 0.0
C1397 C 0.17977 0.92217 0.35748 0.0
C1398 C 0.18277 0.94224 0.36161 0.0
H1399 H 0.19304 0.02891 0.40796 0.0
H1400 H 0.18494 -0.00471 0.39927 0.0
H1401 H 0.21454 -0.00962 0.35507 0.0
H1402 H 0.17956 0.89272 0.3254 0.0
H1403 H 0.18408 0.92555 0.3322 0.0
C1404 C 0.48356 0.62258 0.29184 0.0
C1405 C 0.47744 0.60577 0.30013 0.0
C1406 C 0.49922 0.64112 0.29807 0.0
C1407 C 0.544 0.6642 0.32539 0.0
H1408 H 0.54334 0.71227 0.31934 0.0
C1409 C 0.60891 0.7439 0.34737 0.0
C1410 C 0.61443 0.75787 0.33614 0.0
C1411 C 0.59181 0.72502 0.3444 0.0
C1412 C 0.54376 0.69897 0.32106 0.0
H1413 H 0.48258 0.59535 0.32173 0.0
H1414 H 0.5099 0.62789 0.33273 0.0
H1415 H 0.51343 0.68003 0.31215 0.0
H1416 H 0.60654 0.76288 0.31289 0.0
H1417 H 0.57692 0.7301 0.30777 0.0
H1418 H 0.57448 0.6833 0.33418 0.0
C1419 C 0.5027 0.62662 0.32129 0.0
C1420 C 0.52665 0.68051 0.31693 0.0
C1421 C 0.48697 0.60802 0.31504 0.0
C1422 C 0.60277 0.75246 0.32179 0.0
C1423 C 0.58566 0.73374 0.31891 0.0
C1424 C 0.56113 0.68272 0.3296 0.0
C1425 C 0.50915 0.64334 0.31278 0.0
C1426 C 0.52668 0.6629 0.31874 0.0
C1427 C 0.57986 0.7199 0.33024 0.0
C1428 C 0.56129 0.70027 0.32716 0.0
H1429 H 0.47657 0.62138 0.28031 0.0
H1430 H 0.50397 0.6536 0.29108 0.0
H1431 H 0.54459 0.65093 0.32677 0.0
H1432 H 0.61763 0.74765 0.35853 0.0
H1433 H 0.58766 0.71462 0.35335 0.0
C1434 C 0.34905 0.86367 0.27977 0.0
C1435 C 0.36583 0.86859 0.28971 0.0
C1436 C 0.33179 0.86203 0.28622 0.0
C1437 C 0.30367 0.85438 0.32273 0.0
H1438 H 0.27892 0.87816 0.30009 0.0
C1439 C 0.22156 0.83526 0.32958 0.0
C1440 C 0.21717 0.8504 0.32841 0.0
C1441 C 0.24102 0.83895 0.32761 0.0
C1442 C 0.28573 0.87167 0.30673 0.0
H1443 H 0.37732 0.87502 0.31437 0.0
H1444 H 0.34692 0.87208 0.3257 0.0
H1445 H 0.31021 0.88157 0.29135 0.0
H1446 H 0.22954 0.8812 0.32432 0.0
H1447 H 0.26361 0.88781 0.32107 0.0
H1448 H 0.27895 0.84439 0.33809 0.0
C1449 C 0.34726 0.86951 0.31287 0.0
C1450 C 0.30357 0.87341 0.30158 0.0
C1451 C 0.36467 0.87125 0.30637 0.0
C1452 C 0.23261 0.86934 0.32542 0.0
C1453 C 0.25206 0.87306 0.32349 0.0
C1454 C 0.28568 0.85256 0.32789 0.0
C1455 C 0.33075 0.86522 0.30281 0.0
C1456 C 0.31259 0.86451 0.30931 0.0
C1457 C 0.25642 0.85779 0.32419 0.0
C1458 C 0.27637 0.86099 0.3198 0.0
H1459 H 0.3493 0.86135 0.2669 0.0
H1460 H 0.31921 0.85829 0.27816 0.0
H1461 H 0.31025 0.84734 0.32893 0.0
H1462 H 0.20984 0.82037 0.33141 0.0
H1463 H 0.24375 0.82677 0.32801 0.0
C1464 C 0.09792 0.4621 0.29715 0.0
C1465 C 0.11041 0.48269 0.30071 0.0
C1466 C 0.10473 0.44925 0.30009 0.0
C1467 C 0.13907 0.44408 0.32567 0.0
H1468 H 0.13028 0.40174 0.29344 0.0
C1469 C 0.16273 0.38687 0.33673 0.0
C1470 C 0.14936 0.36707 0.33072 0.0
C1471 C 0.15984 0.40214 0.33261 0.0
C1472 C 0.13266 0.41334 0.30264 0.0
H1473 H 0.13983 0.50602 0.31017 0.0
H1474 H 0.15161 0.48337 0.31564 0.0
H1475 H 0.12185 0.42639 0.28699 0.0
H1476 H 0.12242 0.34781 0.31574 0.0
H1477 H 0.11711 0.37425 0.30889 0.0
H1478 H 0.14915 0.43066 0.34155 0.0
C1479 C 0.1366 0.47728 0.31046 0.0
C1480 C 0.12793 0.4275 0.2989 0.0
C1481 C 0.12989 0.4902 0.30728 0.0
C1482 C 0.13306 0.36288 0.32053 0.0
C1483 C 0.1301 0.37811 0.3165 0.0
C1484 C 0.1436 0.42977 0.32949 0.0
C1485 C 0.12408 0.4567 0.30686 0.0
C1486 C 0.1308 0.44282 0.31044 0.0
C1487 C 0.14349 0.39794 0.32242 0.0
C1488 C 0.14013 0.41403 0.31809 0.0
H1489 H 0.08286 0.45588 0.29205 0.0
H1490 H 0.09471 0.43341 0.29735 0.0
H1491 H 0.14128 0.45569 0.33482 0.0
H1492 H 0.1756 0.39064 0.34445 0.0
H1493 H 0.17059 0.41726 0.33722 0.0
C1494 C 0.33525 0.48554 0.30005 0.0
C1495 C 0.35317 0.48558 0.2976 0.0
C1496 C 0.31889 0.46935 0.30606 0.0
C1497 C 0.29607 0.41611 0.30735 0.0
H1498 H 0.26531 0.42255 0.34116 0.0
C1499 C 0.22603 0.34827 0.32765 0.0
C1500 C 0.20949 0.35049 0.33062 0.0
C1501 C 0.24491 0.3649 0.32618 0.0
C1502 C 0.27362 0.42049 0.3316 0.0
H1503 H 0.36803 0.46872 0.2996 0.0
H1504 H 0.33926 0.44024 0.30977 0.0
H1505 H 0.29559 0.45158 0.33332 0.0
H1506 H 0.19949 0.37168 0.33397 0.0
H1507 H 0.23216 0.40061 0.33108 0.0
H1508 H 0.27382 0.38531 0.30498 0.0
C1509 C 0.33797 0.45282 0.30713 0.0
C1510 C 0.29099 0.43712 0.32717 0.0
C1511 C 0.35442 0.46913 0.30136 0.0
C1512 C 0.2121 0.36959 0.33214 0.0
C1513 C 0.2309 0.3862 0.33048 0.0
C1514 C 0.27859 0.39955 0.3116 0.0
C1515 C 0.32004 0.45275 0.30951 0.0
C1516 C 0.30228 0.43509 0.31491 0.0
C1517 C 0.24751 0.38406 0.3272 0.0
C1518 C 0.267 0.40152 0.32368 0.0
H1519 H 0.33384 0.49803 0.29733 0.0
H1520 H 0.30518 0.4696 0.30764 0.0
H1521 H 0.30437 0.41416 0.29772 0.0
H1522 H 0.22429 0.33363 0.32632 0.0
H1523 H 0.25739 0.36267 0.32395 0.0
C1524 C 0.51473 0.85739 0.28638 0.0
C1525 C 0.50811 0.8682 0.29605 0.0
C1526 C 0.53023 0.85489 0.29191 0.0
C1527 C 0.55321 0.85006 0.32699 0.0
H1528 H 0.60125 0.86801 0.30319 0.0
C1529 C 0.61174 0.8245 0.33129 0.0
C1530 C 0.63151 0.83997 0.33506 0.0
C1531 C 0.59664 0.82872 0.32823 0.0
C1532 C 0.58794 0.863 0.30997 0.0
H1533 H 0.51233 0.88461 0.31921 0.0
H1534 H 0.53903 0.87958 0.32908 0.0
H1535 H 0.57476 0.87377 0.29409 0.0
H1536 H 0.65127 0.87185 0.33784 0.0
H1537 H 0.62486 0.87927 0.33208 0.0
H1538 H 0.56604 0.83848 0.34243 0.0
C1539 C 0.53237 0.87336 0.31713 0.0
C1540 C 0.5728 0.86622 0.30474 0.0
C1541 C 0.51718 0.87629 0.31146 0.0
C1542 C 0.63602 0.85971 0.33538 0.0
C1543 C 0.621 0.86393 0.33204 0.0
C1544 C 0.56814 0.84638 0.33198 0.0
C1545 C 0.53909 0.86273 0.30736 0.0
C1546 C 0.55532 0.85978 0.31321 0.0
C1547 C 0.60121 0.84847 0.32835 0.0
C1548 C 0.58564 0.85286 0.32352 0.0
H1549 H 0.50806 0.85102 0.27445 0.0
H1550 H 0.53513 0.84658 0.28419 0.0
H1551 H 0.5398 0.84488 0.33366 0.0
H1552 H 0.60804 0.80916 0.33041 0.0
H1553 H 0.58153 0.81656 0.32521 0.0
C1554 C 0.12705 0.63117 0.269 0.0
C1555 C 0.14212 0.62631 0.26923 0.0
C1556 C 0.13071 0.64954 0.27592 0.0
C1557 C 0.16146 0.68993 0.30638 0.0
H1558 H 0.14433 0.71945 0.28265 0.0
C1559 C 0.17518 0.76793 0.32975 0.0
C1560 C 0.15994 0.77186 0.32608 0.0
C1561 C 0.17403 0.75033 0.32333 0.0
C1562 C 0.14897 0.7113 0.28954 0.0
H1563 H 0.17288 0.63687 0.27695 0.0
H1564 H 0.17924 0.66912 0.28922 0.0
H1565 H 0.1408 0.6887 0.27016 0.0
H1566 H 0.13108 0.75999 0.31354 0.0
H1567 H 0.12881 0.72925 0.3028 0.0
H1568 H 0.16915 0.71231 0.32595 0.0
C1569 C 0.16461 0.65861 0.28362 0.0
C1570 C 0.14704 0.69374 0.28233 0.0
C1571 C 0.16101 0.64026 0.27651 0.0
C1572 C 0.14321 0.75755 0.31642 0.0
C1573 C 0.14197 0.73996 0.31016 0.0
C1574 C 0.16323 0.70747 0.31369 0.0
C1575 C 0.14948 0.66341 0.28334 0.0
C1576 C 0.15302 0.68276 0.29073 0.0
C1577 C 0.15756 0.73631 0.31321 0.0
C1578 C 0.15671 0.71819 0.30541 0.0
H1579 H 0.11232 0.62073 0.26354 0.0
H1580 H 0.11872 0.65277 0.27569 0.0
H1581 H 0.16606 0.68164 0.31315 0.0
H1582 H 0.1883 0.77872 0.33713 0.0
H1583 H 0.18633 0.74804 0.32587 0.0
C1584 C 0.8336 0.01977 0.39873 0.0
C1585 C 0.85259 0.02417 0.39379 0.0
C1586 C 0.81654 0.00181 0.39331 0.0
C1587 C 0.79618 0.96007 0.36176 0.0
H1588 H 0.75825 0.93213 0.39351 0.0
C1589 C 0.7293 0.87982 0.34857 0.0
C1590 C 0.71106 0.87522 0.35537 0.0
C1591 C 0.74661 0.89816 0.35266 0.0
C1592 C 0.76854 0.93985 0.38444 0.0
H1593 H 0.86848 0.01338 0.37885 0.0
H1594 H 0.83851 0.98187 0.36931 0.0
H1595 H 0.78849 0.96374 0.40154 0.0
H1596 H 0.69661 0.88693 0.37101 0.0
H1597 H 0.72676 0.91887 0.37826 0.0
H1598 H 0.77615 0.93615 0.34465 0.0
C1599 C 0.83691 -0.00759 0.3774 0.0
C1600 C 0.78589 0.95795 0.38905 0.0
C1601 C 0.85406 0.01041 0.3829 0.0
C1602 C 0.71046 0.88966 0.36599 0.0
C1603 C 0.72778 0.90803 0.37009 0.0
C1604 C 0.77876 0.94194 0.35713 0.0
C1605 C 0.81801 -0.01219 0.38276 0.0
C1606 C 0.79985 0.96833 0.37776 0.0
C1607 C 0.74611 0.91243 0.36359 0.0
C1608 C 0.76468 0.93168 0.36841 0.0
H1609 H 0.83189 0.03006 0.40704 0.0
H1610 H 0.80216 -0.00114 0.39743 0.0
H1611 H 0.80658 0.96781 0.35277 0.0
H1612 H 0.7304 0.8691 0.34034 0.0
H1613 H 0.7605 0.90096 0.34753 0.0
C1614 C 0.96163 0.75712 0.37904 0.0
C1615 C 0.95852 0.773 0.38338 0.0
C1616 C 0.98018 0.76067 0.37385 0.0
C1617 C 0.02631 0.79702 0.35624 0.0
H1618 H 0.05018 0.77095 0.37665 0.0
C1619 C 0.10916 0.81834 0.34889 0.0
C1620 C 0.11395 0.80343 0.34969 0.0
C1621 C 0.08963 0.81427 0.3514 0.0
C1622 C 0.04365 0.77808 0.37054 0.0
H1623 H 0.97237 0.80506 0.3853 0.0
H1624 H 0.00472 0.8112 0.37602 0.0
H1625 H 0.01724 0.76443 0.38385 0.0
H1626 H 0.10224 0.77262 0.35336 0.0
H1627 H 0.06809 0.76518 0.35702 0.0
H1628 H 0.05258 0.81043 0.34269 0.0
C1629 C 0.99278 0.79602 0.3767 0.0
C1630 C 0.02475 0.77439 0.37477 0.0
C1631 C 0.9743 0.7925 0.38212 0.0
C1632 C 0.09887 0.78434 0.35267 0.0
C1633 C 0.07934 0.78018 0.35492 0.0
C1634 C 0.04516 0.80051 0.35181 0.0
C1635 C -0.00403 0.78015 0.37266 0.0
C1636 C 0.0159 0.78387 0.36775 0.0
C1637 C 0.07452 0.79519 0.35476 0.0
C1638 C 0.05414 0.79113 0.35895 0.0
H1639 H 0.94979 0.74193 0.37983 0.0
H1640 H 0.98216 0.74813 0.37071 0.0
H1641 H 0.01976 0.80442 0.35053 0.0
H1642 H 0.12064 0.8333 0.34688 0.0
H1643 H 0.08664 0.8263 0.35133 0.0
C1644 C 0.17141 0.14541 0.37881 0.0
C1645 C 0.19042 0.1492 0.38372 0.0
C1646 C 0.1689 0.16069 0.37413 0.0
C1647 C 0.19744 0.21249 0.3624 0.0
H1648 H 0.14828 0.21171 0.37222 0.0
C1649 C 0.18555 0.27932 0.35869 0.0
C1650 C 0.16809 0.27503 0.35002 0.0
C1651 C 0.18864 0.26399 0.36229 0.0
C1652 C 0.16203 0.21203 0.36934 0.0
H1653 H 0.2217 0.17194 0.38771 0.0
H1654 H 0.21725 0.19881 0.38027 0.0
H1655 H 0.15305 0.18508 0.37977 0.0
H1656 H 0.14011 0.25134 0.33843 0.0
H1657 H 0.1454 0.2246 0.34502 0.0
H1658 H 0.20657 0.23997 0.35251 0.0
C1659 C 0.20433 0.18395 0.37948 0.0
C1660 C 0.16475 0.19671 0.37355 0.0
C1661 C 0.20689 0.16857 0.38387 0.0
C1662 C 0.15377 0.25513 0.34506 0.0
C1663 C 0.15672 0.23982 0.34889 0.0
C1664 C 0.19483 0.228 0.35844 0.0
C1665 C 0.18528 0.18023 0.37455 0.0
C1666 C 0.18246 0.19665 0.37008 0.0
C1667 C 0.17417 0.24412 0.35753 0.0
C1668 C 0.17707 0.22783 0.36181 0.0
H1669 H 0.15848 0.13056 0.37842 0.0
H1670 H 0.15409 0.15709 0.37006 0.0
H1671 H 0.21111 0.21284 0.35924 0.0
H1672 H 0.19687 0.2945 0.36263 0.0
H1673 H 0.20217 0.26763 0.36905 0.0
C1674 C 0.62823 0.49802 0.70636 0.0
C1675 C 0.62888 0.48123 0.71003 0.0
C1676 C 0.64522 0.51446 0.70127 0.0
C1677 C 0.70043 0.5377 0.70227 0.0
H1678 H 0.69717 0.57137 0.67263 0.0
C1679 C 0.77093 0.60363 0.68083 0.0
C1680 C 0.77149 0.62183 0.68249 0.0
C1681 C 0.75302 0.58587 0.68201 0.0
C1682 C 0.69824 0.56209 0.68095 0.0
H1683 H 0.6476 0.46814 0.71057 0.0
H1684 H 0.67701 0.49647 0.7012 0.0
H1685 H 0.66679 0.541 0.67852 0.0
H1686 H 0.7539 0.63586 0.68692 0.0
H1687 H 0.72229 0.60461 0.6889 0.0
H1688 H 0.73186 0.5587 0.7046 0.0
C1689 C 0.66359 0.49727 0.70271 0.0
C1690 C 0.68087 0.54474 0.68438 0.0
C1691 C 0.64668 0.48095 0.708 0.0
C1692 C 0.75374 0.62195 0.68532 0.0
C1693 C 0.73571 0.60412 0.68638 0.0
C1694 C 0.71776 0.55486 0.6987 0.0
C1695 C 0.66321 0.51439 0.69955 0.0
C1696 C 0.68172 0.53239 0.69519 0.0
C1697 C 0.73529 0.58595 0.68504 0.0
C1698 C 0.71685 0.5673 0.6881 0.0
H1699 H 0.61474 0.49872 0.70786 0.0
H1700 H 0.64439 0.52743 0.69917 0.0
H1701 H 0.70169 0.52887 0.71092 0.0
H1702 H 0.78442 0.60307 0.67916 0.0
H1703 H 0.75311 0.57208 0.68088 0.0
C1704 C 0.49406 0.13128 0.71018 0.0
C1705 C 0.49199 0.11293 0.71293 0.0
C1706 C 0.47762 0.13231 0.70466 0.0
C1707 C 0.42298 0.10563 0.70552 0.0
H1708 H 0.42619 0.14069 0.67433 0.0
C1709 C 0.35447 0.11182 0.68879 0.0
C1710 C 0.35804 0.13088 0.68684 0.0
C1711 C 0.3704 0.10833 0.68968 0.0
C1712 C 0.42508 0.13095 0.68317 0.0
H1713 H 0.47109 0.08116 0.71143 0.0
H1714 H 0.44244 0.083 0.7019 0.0
H1715 H 0.45507 0.13717 0.67993 0.0
H1716 H 0.38109 0.16146 0.68508 0.0
H1717 H 0.40887 0.15555 0.68684 0.0
H1718 H 0.39338 0.09991 0.70926 0.0
C1719 C 0.45677 0.09661 0.70412 0.0
C1720 C 0.44162 0.1289 0.68633 0.0
C1721 C 0.47323 0.09556 0.70951 0.0
C1722 C 0.37783 0.14648 0.68604 0.0
C1723 C 0.39378 0.14305 0.68706 0.0
C1724 C 0.40654 0.10781 0.70247 0.0
C1725 C 0.45869 0.11502 0.70188 0.0
C1726 C 0.44081 0.11634 0.69765 0.0
C1727 C 0.39031 0.12396 0.68904 0.0
C1728 C 0.40741 0.12065 0.69138 0.0
H1729 H 0.50828 0.14494 0.71265 0.0
H1730 H 0.47957 0.14673 0.70316 0.0
H1731 H 0.42195 0.09606 0.71448 0.0
H1732 H 0.33933 0.09961 0.68963 0.0
H1733 H 0.36708 0.09338 0.69099 0.0
C1734 C 0.86797 0.36613 0.70316 0.0
C1735 C 0.87081 0.37229 0.71963 0.0
C1736 C 0.8625 0.34662 0.6977 0.0
C1737 C 0.84182 0.29628 0.71141 0.0
H1738 H 0.86737 0.28742 0.67462 0.0
C1739 C 0.84361 0.22415 0.69656 0.0
C1740 C 0.83864 0.21561 0.68062 0.0
C1741 C 0.84624 0.24293 0.70079 0.0
C1742 C 0.85998 0.28967 0.68482 0.0
H1743 H 0.86993 0.36274 0.74327 0.0
H1744 H 0.86087 0.32908 0.7338 0.0
H1745 H 0.87406 0.32087 0.68285 0.0
H1746 H 0.83266 0.22029 0.65672 0.0
H1747 H 0.83765 0.25321 0.66398 0.0
H1748 H 0.82829 0.26515 0.71364 0.0
C1749 C 0.86245 0.33909 0.72506 0.0
C1750 C 0.86373 0.3088 0.6895 0.0
C1751 C 0.86781 0.3585 0.7305 0.0
C1752 C 0.83642 0.22633 0.66903 0.0
C1753 C 0.83938 0.24526 0.6732 0.0
C1754 C 0.83827 0.27722 0.70683 0.0
C1755 C 0.85981 0.3329 0.7086 0.0
C1756 C 0.85484 0.31238 0.70296 0.0
C1757 C 0.84425 0.25371 0.68912 0.0
C1758 C 0.84744 0.27377 0.69358 0.0
H1759 H 0.87012 0.3764 0.69449 0.0
H1760 H 0.86035 0.34229 0.68495 0.0
H1761 H 0.83439 0.2984 0.72163 0.0
H1762 H 0.84531 0.21626 0.70584 0.0
H1763 H 0.85012 0.24917 0.71315 0.0
C1764 C 0.17372 0.95887 0.60052 0.0
C1765 C 0.16607 0.94168 0.60854 0.0
C1766 C 0.18718 0.97742 0.60841 0.0
C1767 C 0.22227 0.00229 0.64383 0.0
H1768 H 0.21691 0.04687 0.63417 0.0
C1769 C 0.27119 0.08214 0.6753 0.0
C1770 C 0.28051 0.09664 0.66459 0.0
C1771 C 0.25602 0.06293 0.66978 0.0
C1772 C 0.21856 0.03453 0.63698 0.0
H1773 H 0.16684 0.93039 0.63107 0.0
H1774 H 0.19017 0.9629 0.64495 0.0
H1775 H 0.19294 0.0136 0.62204 0.0
H1776 H 0.28127 0.10274 0.63986 0.0
H1777 H 0.25452 0.06931 0.63023 0.0
H1778 H 0.24792 0.02343 0.65885 0.0
C1779 C 0.18594 0.962 0.63249 0.0
C1780 C 0.20493 0.01551 0.62997 0.0
C1781 C 0.17253 0.94338 0.62454 0.0
C1782 C 0.27426 0.09178 0.64835 0.0
C1783 C 0.25891 0.07273 0.64287 0.0
C1784 C 0.2358 0.02134 0.65098 0.0
C1785 C 0.1932 0.97927 0.62456 0.0
C1786 C 0.20687 -0.00079 0.63302 0.0
C1787 C 0.24977 0.05808 0.6535 0.0
C1788 C 0.23428 0.03767 0.64735 0.0
H1789 H 0.16916 0.95806 0.58816 0.0
H1790 H 0.19286 -0.00965 0.60182 0.0
H1791 H 0.22429 -0.0099 0.64636 0.0
H1792 H 0.27608 0.08541 0.6878 0.0
H1793 H 0.2492 0.05185 0.67819 0.0
C1794 C 0.03411 0.21672 0.63729 0.0
C1795 C 0.03514 0.19932 0.63494 0.0
C1796 C 0.01672 0.21598 0.64269 0.0
C1797 C 0.96921 0.18508 0.66211 0.0
H1798 H 0.94939 0.21151 0.6372 0.0
C1799 C 0.88702 0.16639 0.66236 0.0
C1800 C 0.88286 0.18159 0.66066 0.0
C1801 C 0.90656 0.17003 0.66138 0.0
C1802 C 0.95482 0.20435 0.64453 0.0
H1803 H 0.01897 0.16766 0.63716 0.0
H1804 H 0.9887 0.16641 0.64662 0.0
H1805 H 0.98193 0.21537 0.63212 0.0
H1806 H 0.89567 0.21234 0.65626 0.0
H1807 H 0.92996 0.21898 0.65493 0.0
H1808 H 0.94203 0.17399 0.67451 0.0
C1809 C 0.00135 0.18063 0.6443 0.0
C1810 C 0.97351 0.20654 0.64157 0.0
C1811 C 0.01869 0.18133 0.63879 0.0
C1812 C 0.89857 0.20045 0.6578 0.0
C1813 C 0.91816 0.20417 0.65694 0.0
C1814 C 0.95055 0.18302 0.66518 0.0
C1815 C 1e-05 0.19787 0.64599 0.0
C1816 C 0.98083 0.19672 0.65015 0.0
C1817 C 0.9224 0.18894 0.65852 0.0
C1818 C 0.94296 0.19238 0.65625 0.0
H1819 H 0.04651 0.23085 0.63452 0.0
H1820 H 0.01626 0.22957 0.64407 0.0
H1821 H 0.97454 0.17752 0.66906 0.0
H1822 H 0.87512 0.15153 0.66404 0.0
H1823 H 0.90909 0.15781 0.66233 0.0
C1824 C 0.81211 0.8282 0.62562 0.0
C1825 C 0.79913 0.83306 0.63369 0.0
C1826 C 0.8136 0.81198 0.62939 0.0
C1827 C 0.78719 0.76588 0.65031 0.0
H1828 H 0.83794 0.76778 0.64699 0.0
C1829 C 0.80429 0.70873 0.67479 0.0
C1830 C 0.81257 0.70065 0.66394 0.0
C1831 C 0.80211 0.72456 0.67102 0.0
C1832 C 0.82365 0.76703 0.64787 0.0
H1833 H 0.77781 0.82497 0.65229 0.0
H1834 H 0.78096 0.7972 0.65937 0.0
H1835 H 0.83563 0.79646 0.6412 0.0
H1836 H 0.82494 0.70244 0.64065 0.0
H1837 H 0.82157 0.73053 0.63416 0.0
H1838 H 0.77554 0.73659 0.65756 0.0
C1839 C 0.78956 0.80547 0.64974 0.0
C1840 C 0.82226 0.78342 0.64448 0.0
C1841 C 0.78784 0.82151 0.64577 0.0
C1842 C 0.81847 0.70846 0.64918 0.0
C1843 C 0.81666 0.72455 0.64553 0.0
C1844 C 0.78871 0.74963 0.65398 0.0
C1845 C 0.80238 0.80039 0.64154 0.0
C1846 C 0.80397 0.78305 0.64553 0.0
C1847 C 0.80851 0.73276 0.65643 0.0
C1848 C 0.80691 0.75002 0.65269 0.0
H1849 H 0.8209 0.83672 0.61615 0.0
H1850 H 0.82332 0.80838 0.62256 0.0
H1851 H 0.77276 0.76479 0.65099 0.0
H1852 H 0.79929 0.70267 0.68609 0.0
H1853 H 0.79578 0.73063 0.67962 0.0
C1854 C 0.0125 0.80712 0.62996 0.0
C1855 C 0.00761 0.82046 0.62408 0.0
C1856 C -0.00156 0.79125 0.63794 0.0
C1857 C 0.95272 0.77317 0.66001 0.0
H1858 H 0.93834 0.72094 0.64032 0.0
C1859 C 0.87587 0.70427 0.66647 0.0
C1860 C 0.87391 0.68545 0.66516 0.0
C1861 C 0.89446 0.72118 0.66492 0.0
C1862 C 0.94241 0.73532 0.64632 0.0
H1863 H 0.98457 0.82817 0.6225 0.0
H1864 H 0.96018 0.80068 0.63671 0.0
H1865 H 0.96723 0.75015 0.63154 0.0
H1866 H 0.88958 0.66935 0.66155 0.0
H1867 H 0.92232 0.69894 0.65948 0.0
H1868 H 0.92795 0.75845 0.67482 0.0
C1869 C 0.97481 0.80244 0.63504 0.0
C1870 C 0.95895 0.75207 0.64119 0.0
C1871 C 0.98869 0.81804 0.62679 0.0
C1872 C 0.89085 0.68379 0.66266 0.0
C1873 C 0.90952 0.70073 0.66137 0.0
C1874 C 0.93637 0.75639 0.66537 0.0
C1875 C 0.97945 0.78875 0.64048 0.0
C1876 C 0.96389 0.77114 0.64767 0.0
C1877 C 0.91148 0.71961 0.66204 0.0
C1878 C 0.93061 0.73727 0.65823 0.0
H1879 H 0.02699 0.80865 0.62804 0.0
H1880 H 0.00232 0.78085 0.64202 0.0
H1881 H 0.95641 0.78776 0.66529 0.0
H1882 H 0.86291 0.70586 0.66806 0.0
H1883 H 0.89521 0.73534 0.66522 0.0
C1884 C 0.19527 0.22036 0.63682 0.0
C1885 C 0.17564 0.20489 0.63252 0.0
C1886 C 0.20979 0.21628 0.6421 0.0
C1887 C 0.22083 0.17526 0.64226 0.0
H1888 H 0.26266 0.21223 0.67363 0.0
C1889 C 0.281 0.16021 0.66731 0.0
C1890 C 0.3008 0.17595 0.66671 0.0
C1891 C 0.26491 0.1632 0.66486 0.0
C1892 C 0.25108 0.20178 0.66485 0.0
H1893 H 0.1558 0.17296 0.63067 0.0
H1894 H 0.18088 0.16584 0.64028 0.0
H1895 H 0.23606 0.21833 0.66604 0.0
H1896 H 0.31934 0.207 0.66304 0.0
H1897 H 0.29129 0.21234 0.65902 0.0
H1898 H 0.23588 0.15868 0.64123 0.0
C1899 C 0.18529 0.18115 0.63921 0.0
C1900 C 0.23587 0.20532 0.66039 0.0
C1901 C 0.17083 0.18523 0.63376 0.0
C1902 C 0.30421 0.19471 0.66376 0.0
C1903 C 0.28817 0.19777 0.66153 0.0
C1904 C 0.23592 0.17162 0.64685 0.0
C1905 C 0.20503 0.19661 0.64341 0.0
C1906 C 0.22067 0.19227 0.64884 0.0
C1907 C 0.26833 0.18199 0.66181 0.0
C1908 C 0.25137 0.18499 0.65802 0.0
H1909 H 0.19953 0.23568 0.63594 0.0
H1910 H 0.22486 0.2286 0.6449 0.0
H1911 H 0.20965 0.16499 0.63316 0.0
H1912 H 0.27795 0.14551 0.66929 0.0
H1913 H 0.24979 0.15078 0.66522 0.0
C1914 C 0.7951 0.95532 0.62304 0.0
C1915 C 0.81081 0.95193 0.62631 0.0
C1916 C 0.79663 0.97338 0.62829 0.0
C1917 C 0.82321 0.01806 0.65677 0.0
H1918 H 0.80917 0.0425 0.62486 0.0
C1919 C 0.84024 0.09899 0.66677 0.0
C1920 C 0.82584 0.10302 0.66093 0.0
C1921 C 0.83827 0.08039 0.66312 0.0
C1922 C 0.81288 0.03578 0.634 0.0
H1923 H 0.8401 0.96456 0.6383 0.0
H1924 H 0.84271 -0.0038 0.64758 0.0
H1925 H 0.80569 0.01014 0.61802 0.0
H1926 H 0.79801 0.09062 0.64671 0.0
H1927 H 0.7944 0.0581 0.64053 0.0
H1928 H 0.83025 0.04366 0.6728 0.0
C1929 C 0.82923 0.98481 0.6409 0.0
C1930 C 0.81092 0.01725 0.63006 0.0
C1931 C 0.82776 0.96673 0.63555 0.0
C1932 C 0.80942 0.08804 0.65134 0.0
C1933 C 0.8074 0.06941 0.64774 0.0
C1934 C 0.82505 0.03659 0.66076 0.0
C1935 C 0.81385 -0.01155 0.63702 0.0
C1936 C 0.81601 0.00816 0.6414 0.0
C1937 C 0.82183 0.06536 0.65355 0.0
C1938 C 0.81988 0.04566 0.64941 0.0
H1939 H 0.78177 0.94421 0.61604 0.0
H1940 H 0.78439 0.97564 0.62536 0.0
H1941 H 0.82709 0.01133 0.66578 0.0
H1942 H 0.85325 0.11031 0.67398 0.0
H1943 H 0.84983 0.07792 0.66757 0.0
C1944 C 0.50099 0.3572 0.72928 0.0
C1945 C 0.52013 0.3605 0.72597 0.0
C1946 C 0.48388 0.33918 0.72404 0.0
C1947 C 0.46453 0.29463 0.69539 0.0
H1948 H 0.42486 0.27002 0.72685 0.0
C1949 C 0.3994 0.21362 0.68474 0.0
C1950 C 0.38055 0.20923 0.69007 0.0
C1951 C 0.41628 0.23229 0.68876 0.0
C1952 C 0.43562 0.27679 0.71784 0.0
H1953 H 0.53626 0.3477 0.714 0.0
H1954 H 0.50625 0.31614 0.70477 0.0
H1955 H 0.45455 0.30241 0.73395 0.0
H1956 H 0.36467 0.22093 0.70392 0.0
H1957 H 0.39412 0.25368 0.71079 0.0
H1958 H 0.44555 0.26906 0.67923 0.0
C1959 C 0.50456 0.32758 0.71144 0.0
C1960 C 0.45266 0.29535 0.72192 0.0
C1961 C 0.52174 0.34561 0.71677 0.0
C1962 C 0.37899 0.22384 0.69967 0.0
C1963 C 0.39589 0.24259 0.70365 0.0
C1964 C 0.44741 0.2761 0.69126 0.0
C1965 C 0.48548 0.32406 0.71529 0.0
C1966 C 0.46731 0.30445 0.71076 0.0
C1967 C 0.41474 0.24705 0.6982 0.0
C1968 C 0.43277 0.26693 0.70246 0.0
H1969 H 0.49919 0.36838 0.73626 0.0
H1970 H 0.46936 0.33702 0.72696 0.0
H1971 H 0.47547 0.30138 0.68649 0.0
H1972 H 0.40121 0.20258 0.67755 0.0
H1973 H 0.43059 0.23505 0.68463 0.0
C1974 C 0.6296 0.10524 0.70489 0.0
C1975 C 0.62891 0.11465 0.71969 0.0
C1976 C 0.64786 0.10821 0.69937 0.0
C1977 C 0.69726 0.11986 0.71371 0.0
H1978 H 0.71442 0.13475 0.67115 0.0
C1979 C 0.76505 0.11844 0.68796 0.0
C1980 C 0.77982 0.13627 0.68246 0.0
C1981 C 0.74606 0.11538 0.69101 0.0
C1982 C 0.70976 0.13059 0.68305 0.0
H1983 H 0.64687 0.13452 0.74027 0.0
H1984 H 0.67862 0.13924 0.73083 0.0
H1985 H 0.68223 0.1304 0.67963 0.0
H1986 H 0.78634 0.16497 0.67587 0.0
H1987 H 0.75277 0.15934 0.68074 0.0
H1988 H 0.72453 0.11976 0.71712 0.0
C1989 C 0.66504 0.12973 0.72346 0.0
C1990 C 0.69136 0.12801 0.68787 0.0
C1991 C 0.64687 0.12706 0.72883 0.0
C1992 C 0.7751 0.15089 0.67976 0.0
C1993 C 0.75593 0.1477 0.68259 0.0
C1994 C 0.7154 0.12206 0.70881 0.0
C1995 C 0.66574 0.12033 0.70868 0.0
C1996 C 0.68501 0.12275 0.7033 0.0
C1997 C 0.74139 0.13009 0.68859 0.0
C1998 C 0.7219 0.12752 0.69347 0.0
H1999 H 0.61603 0.09566 0.69753 0.0
H2000 H 0.64795 0.1007 0.68799 0.0
H2001 H 0.69268 0.11567 0.72562 0.0
H2002 H 0.76835 0.10699 0.69025 0.0
H2003 H 0.73509 0.10162 0.69554 0.0
C2004 C 0.87342 0.50378 0.71797 0.0
C2005 C 0.85665 0.48463 0.71822 0.0
C2006 C 0.8712 0.51929 0.71341 0.0
C2007 C 0.84006 0.53038 0.68936 0.0
H2008 H 0.85921 0.57795 0.71864 0.0
C2009 C 0.81994 0.58978 0.67847 0.0
C2010 C 0.83381 0.60975 0.68352 0.0
C2011 C 0.82332 0.57475 0.68236 0.0
C2012 C 0.8541 0.56498 0.71015 0.0
H2013 H 0.82451 0.46657 0.71357 0.0
H2014 H 0.82076 0.49364 0.70513 0.0
H2015 H 0.86443 0.55139 0.72573 0.0
H2016 H 0.86231 0.62971 0.69629 0.0
H2017 H 0.86868 0.60362 0.70253 0.0
H2018 H 0.83028 0.544 0.6735 0.0
C2019 C 0.83553 0.49662 0.70866 0.0
C2020 C 0.85701 0.54973 0.71429 0.0
C2021 C 0.83768 0.4812 0.71355 0.0
C2022 C 0.85127 0.61443 0.69236 0.0
C2023 C 0.85483 0.59941 0.69602 0.0
C2024 C 0.83749 0.54578 0.68505 0.0
C2025 C 0.85225 0.51582 0.70868 0.0
C2026 C 0.84984 0.53224 0.704 0.0
C2027 C 0.84083 0.57934 0.69117 0.0
C2028 C 0.84429 0.56323 0.69547 0.0
H2029 H 0.88821 0.50686 0.72155 0.0
H2030 H 0.8843 0.53398 0.71346 0.0
H2031 H 0.83458 0.51708 0.68116 0.0
H2032 H 0.80622 0.58568 0.67178 0.0
H2033 H 0.81195 0.5595 0.67869 0.0
C2034 C 0.45008 0.91402 0.22608 0.0
C2035 C 0.46097 0.90605 0.23237 0.0
C2036 C 0.45415 0.92154 0.21119 0.0
C2037 C 0.49289 0.93995 0.18099 0.0
H2038 H 0.44873 0.93304 0.15408 0.0
C2039 C 0.50296 0.96708 0.11751 0.0
C2040 C 0.49462 0.97895 0.11519 0.0
C2041 C 0.49835 0.95624 0.13087 0.0
C2042 C 0.46121 0.93509 0.16147 0.0
H2043 H 0.48484 0.89988 0.22782 0.0
H2044 H 0.49178 0.91276 0.20166 0.0
H2045 H 0.44202 0.91789 0.17921 0.0
H2046 H 0.47454 -0.01161 0.12453 0.0
H2047 H 0.46601 0.96903 0.14761 0.0
H2048 H 0.51202 0.9571 0.16307 0.0
C2049 C 0.48022 0.91343 0.20839 0.0
C2050 C 0.4574 0.92651 0.17594 0.0
C2051 C 0.4762 0.90596 0.22338 0.0
C2052 C 0.4811 0.97928 0.12608 0.0
C2053 C 0.4762 0.96817 0.13923 0.0
C2054 C 0.49667 0.94836 0.16641 0.0
C2055 C 0.46916 0.92122 0.20205 0.0
C2056 C 0.47321 0.92914 0.18607 0.0
C2057 C 0.48503 0.9568 0.14193 0.0
C2058 C 0.48089 0.94631 0.15664 0.0
H2059 H 0.43831 0.91447 0.23267 0.0
H2060 H 0.44561 0.92781 0.20693 0.0
H2061 H 0.50547 0.9425 0.18851 0.0
H2062 H 0.51354 0.96674 0.1093 0.0
H2063 H 0.5053 0.94752 0.13261 0.0
C2064 C 0.10782 0.54147 0.22773 0.0
C2065 C 0.09311 0.53595 0.2391 0.0
C2066 C 0.10294 0.54123 0.21161 0.0
C2067 C 0.06343 0.53841 0.18443 0.0
H2068 H 0.078 0.50804 0.15455 0.0
C2069 C 0.02503 0.50983 0.12137 0.0
C2070 C 0.01721 0.48934 0.11781 0.0
C2071 C 0.03939 0.52037 0.134 0.0
C2072 C 0.07393 0.5167 0.16271 0.0
H2073 H 0.062 0.52657 0.24263 0.0
H2074 H 0.05351 0.52613 0.21472 0.0
H2075 H 0.09342 0.51837 0.1816 0.0
H2076 H 0.01939 0.46417 0.12378 0.0
H2077 H 0.04413 0.48237 0.14578 0.0
H2078 H 0.04299 0.53564 0.16593 0.0
C2079 C 0.06885 0.53082 0.21815 0.0
C2080 C 0.08292 0.52279 0.17817 0.0
C2081 C 0.07367 0.53088 0.23415 0.0
C2082 C 0.02493 0.4799 0.12642 0.0
C2083 C 0.03931 0.49041 0.13892 0.0
C2084 C 0.05445 0.53233 0.16898 0.0
C2085 C 0.0833 0.53566 0.20662 0.0
C2086 C 0.07714 0.53301 0.1894 0.0
C2087 C 0.04633 0.51065 0.14316 0.0
C2088 C 0.05899 0.5207 0.15815 0.0
H2089 H 0.12284 0.54511 0.23115 0.0
H2090 H 0.1144 0.54503 0.203 0.0
H2091 H 0.05891 0.54655 0.19274 0.0
H2092 H 0.01938 0.51748 0.1149 0.0
H2093 H 0.04465 0.536 0.13687 0.0
C2094 C 0.41614 0.51678 0.21925 0.0
C2095 C 0.43055 0.52387 0.23205 0.0
C2096 C 0.42147 0.51506 0.2035 0.0
C2097 C 0.46444 0.53681 0.17868 0.0
H2098 H 0.43947 0.48684 0.15183 0.0
C2099 C 0.5049 0.52279 0.12708 0.0
C2100 C 0.494 0.51075 0.11319 0.0
C2101 C 0.49508 0.52512 0.14023 0.0
C2102 C 0.44636 0.50102 0.15901 0.0
H2103 H 0.46178 0.53448 0.23831 0.0
H2104 H 0.47098 0.53179 0.211 0.0
H2105 H 0.42539 0.48919 0.17741 0.0
H2106 H 0.46411 0.4919 0.10217 0.0
H2107 H 0.44695 0.4964 0.12504 0.0
H2108 H 0.48545 0.54876 0.16054 0.0
C2109 C 0.45561 0.52753 0.21313 0.0
C2110 C 0.4383 0.50232 0.17366 0.0
C2111 C 0.45026 0.52892 0.22879 0.0
C2112 C 0.47299 0.50141 0.11265 0.0
C2113 C 0.46313 0.50381 0.12582 0.0
C2114 C 0.47234 0.53561 0.16402 0.0
C2115 C 0.44136 0.5208 0.20034 0.0
C2116 C 0.44769 0.52006 0.18382 0.0
C2117 C 0.47407 0.51561 0.13982 0.0
C2118 C 0.46383 0.51753 0.15424 0.0
H2119 H 0.40084 0.51276 0.22138 0.0
H2120 H 0.41023 0.50978 0.19379 0.0
H2121 H 0.47175 0.55075 0.18623 0.0
H2122 H 0.52109 0.53046 0.12785 0.0
H2123 H 0.50403 0.53406 0.15087 0.0
C2124 C 0.91894 0.45141 0.78495 0.0
C2125 C 0.90241 0.45335 0.78124 0.0
C2126 C 0.9254 0.4532 0.80081 0.0
C2127 C 0.9289 0.47553 0.84051 0.0
H2128 H 0.93335 0.43166 0.8536 0.0
C2129 C 0.96325 0.47868 0.90284 0.0
C2130 C 0.97642 0.47133 0.90286 0.0
C2131 C 0.95118 0.47534 0.88918 0.0
C2132 C 0.93235 0.44411 0.85013 0.0
H2133 H 0.88014 0.45944 0.79126 0.0
H2134 H 0.892 0.46323 0.81919 0.0
H2135 H 0.91848 0.42889 0.82725 0.0
H2136 H 0.98665 0.4541 0.88868 0.0
H2137 H 0.96638 0.44899 0.86484 0.0
H2138 H 0.9438 0.49124 0.863 0.0
C2139 C 0.89965 0.46001 0.8097 0.0
C2140 C 0.92371 0.44244 0.83509 0.0
C2141 C 0.8929 0.45784 0.79376 0.0
C2142 C 0.97695 0.46027 0.88902 0.0
C2143 C 0.96502 0.45705 0.8754 0.0
C2144 C 0.93785 0.47734 0.85552 0.0
C2145 C 0.9157 0.4573 0.81331 0.0
C2146 C 0.92235 0.45829 0.83001 0.0
C2147 C 0.95203 0.46459 0.87525 0.0
C2148 C 0.94017 0.46183 0.86032 0.0
H2149 H 0.92657 0.44788 0.77563 0.0
H2150 H 0.93795 0.45126 0.80333 0.0
H2151 H 0.92803 0.48795 0.83678 0.0
H2152 H 0.96255 0.48736 0.91326 0.0
H2153 H 0.94122 0.48122 0.88954 0.0
C2154 C 0.57328 0.43629 0.79944 0.0
C2155 C 0.57484 0.44595 0.78569 0.0
C2156 C 0.56752 0.44192 0.81376 0.0
C2157 C 0.53877 0.46523 0.8276 0.0
H2158 H 0.55859 0.46477 0.86984 0.0
C2159 C 0.50974 0.48651 0.88418 0.0
C2160 C 0.50536 0.47446 0.89677 0.0
C2161 C 0.52036 0.48482 0.87135 0.0
C2162 C 0.55281 0.46482 0.85812 0.0
H2163 H 0.5729 0.46995 0.77653 0.0
H2164 H 0.56321 0.47995 0.80154 0.0
H2165 H 0.57401 0.45908 0.84621 0.0
H2166 H 0.50896 0.45138 0.90588 0.0
H2167 H 0.52733 0.44825 0.88337 0.0
H2168 H 0.51737 0.47056 0.83936 0.0
C2169 C 0.56595 0.46772 0.80115 0.0
C2170 C 0.56166 0.46159 0.84459 0.0
C2171 C 0.57163 0.46206 0.78684 0.0
C2172 C 0.51225 0.46099 0.89642 0.0
C2173 C 0.52282 0.45924 0.88354 0.0
C2174 C 0.52994 0.46843 0.84108 0.0
C2175 C 0.56327 0.45736 0.81465 0.0
C2176 C 0.55469 0.4617 0.82916 0.0
C2177 C 0.52678 0.47097 0.87075 0.0
C2178 C 0.53678 0.4682 0.85651 0.0
H2179 H 0.57564 0.42381 0.79897 0.0
H2180 H 0.56549 0.43355 0.82391 0.0
H2181 H 0.53272 0.46497 0.8159 0.0
H2182 H 0.50496 0.49729 0.88426 0.0
H2183 H 0.5235 0.49437 0.86186 0.0
C2184 C 0.55693 0.07328 0.7919 0.0
C2185 C 0.54131 0.0701 0.7813 0.0
C2186 C 0.55271 0.06441 0.80632 0.0
C2187 C 0.51257 0.02252 0.82556 0.0
H2188 H 0.53914 0.05344 0.86569 0.0
C2189 C 0.48039 -0.00595 0.88535 0.0
C2190 C 0.49357 -0.00361 0.89795 0.0
C2191 C 0.48768 0.00358 0.87153 0.0
C2192 C 0.53177 0.04453 0.85457 0.0
H2193 H 0.509 0.05491 0.77752 0.0
H2194 H 0.50174 0.03949 0.8024 0.0
H2195 H 0.54957 0.06864 0.84052 0.0
H2196 H 0.5248 0.01116 0.90608 0.0
H2197 H 0.5376 0.0279 0.88181 0.0
H2198 H 0.49473 -0.00153 0.83943 0.0
C2199 C 0.51725 0.04874 0.79961 0.0
C2200 C 0.53775 0.05324 0.84015 0.0
C2201 C 0.52143 0.05771 0.78536 0.0
C2202 C 0.51425 0.00912 0.89661 0.0
C2203 C 0.52157 0.01869 0.8827 0.0
C2204 C 0.50666 0.01383 0.83989 0.0
C2205 C 0.53279 0.05198 0.8103 0.0
C2206 C 0.52793 0.04242 0.82552 0.0
C2207 C 0.50836 0.01573 0.86987 0.0
C2208 C 0.51587 0.02482 0.85462 0.0
H2209 H 0.57241 0.0828 0.78917 0.0
H2210 H 0.56501 0.06711 0.81428 0.0
H2211 H 0.50499 0.01365 0.81447 0.0
H2212 H 0.46436 0.98473 0.88613 0.0
H2213 H 0.47702 0.00138 0.86209 0.0
C2214 C 0.11202 0.23479 0.5541 0.0
C2215 C 0.12675 0.23563 0.56447 0.0
C2216 C 0.11693 0.24241 0.53924 0.0
C2217 C 0.15935 0.27956 0.51878 0.0
H2218 H 0.12553 0.25292 0.48019 0.0
C2219 C 0.18266 0.31289 0.45868 0.0
C2220 C 0.16775 0.31161 0.44832 0.0
C2221 C 0.17757 0.3021 0.47202 0.0
C2222 C 0.13504 0.26069 0.49088 0.0
H2223 H 0.15814 0.24475 0.56709 0.0
H2224 H 0.16673 0.25818 0.54117 0.0
H2225 H 0.11684 0.23678 0.50495 0.0
H2226 H 0.13577 0.2977 0.44364 0.0
H2227 H 0.12676 0.27918 0.46721 0.0
H2228 H 0.17721 0.30371 0.50503 0.0
C2229 C 0.15138 0.25167 0.54462 0.0
C2230 C 0.13008 0.25138 0.50506 0.0
C2231 C 0.14643 0.24387 0.55943 0.0
C2232 C 0.14757 0.29887 0.45137 0.0
C2233 C 0.14244 0.28823 0.46487 0.0
C2234 C 0.16419 0.28894 0.50468 0.0
C2235 C 0.13673 0.25123 0.53443 0.0
C2236 C 0.1422 0.26071 0.51917 0.0
C2237 C 0.1574 0.28992 0.47552 0.0
C2238 C 0.15215 0.27965 0.4905 0.0
H2239 H 0.09669 0.22851 0.55755 0.0
H2240 H 0.10533 0.24197 0.53174 0.0
H2241 H 0.16879 0.28732 0.5295 0.0
H2242 H 0.19834 0.32236 0.45649 0.0
H2243 H 0.18952 0.30342 0.47964 0.0
C2244 C 0.75491 0.86182 0.56404 0.0
C2245 C 0.77595 0.87214 0.56523 0.0
C2246 C 0.74466 0.85667 0.54913 0.0
C2247 C 0.74954 0.84716 0.50641 0.0
H2248 H 0.70318 0.853 0.50145 0.0
C2249 C 0.6874 0.80317 0.45693 0.0
C2250 C 0.67891 0.81282 0.44962 0.0
C2251 C 0.70165 0.81296 0.46962 0.0
C2252 C 0.71625 0.85152 0.50257 0.0
H2253 H 0.80268 0.88498 0.55162 0.0
H2254 H 0.78471 0.87577 0.52556 0.0
H2255 H 0.72322 0.86519 0.52667 0.0
H2256 H 0.67905 0.84045 0.4495 0.0
H2257 H 0.70391 0.8576 0.47198 0.0
H2258 H 0.7423 0.83311 0.48241 0.0
C2259 C 0.7762 0.87169 0.5362 0.0
C2260 C 0.72758 0.85829 0.51707 0.0
C2261 C 0.78648 0.87698 0.55113 0.0
C2262 C 0.6854 0.8327 0.45494 0.0
C2263 C 0.69951 0.84244 0.46782 0.0
C2264 C 0.73809 0.84022 0.49196 0.0
C2265 C 0.75518 0.8616 0.53505 0.0
C2266 C 0.74414 0.85587 0.51924 0.0
C2267 C 0.70759 0.83257 0.47541 0.0
C2268 C 0.72112 0.84202 0.48998 0.0
H2269 H 0.74632 0.85788 0.57464 0.0
H2270 H 0.72845 0.84862 0.54861 0.0
H2271 H 0.76218 0.84504 0.50773 0.0
H2272 H 0.68278 0.7879 0.45296 0.0
H2273 H 0.70747 0.8049 0.4753 0.0
C2274 C 0.1079 0.87191 0.55884 0.0
C2275 C 0.08712 0.8599 0.55999 0.0
C2276 C 0.11715 0.86993 0.54513 0.0
C2277 C 0.1071 0.85209 0.50224 0.0
H2278 H 0.15711 0.85267 0.50649 0.0
C2279 C 0.14332 0.8337 0.44834 0.0
C2280 C 0.1643 0.84474 0.44796 0.0
C2281 C 0.13372 0.83579 0.4618 0.0
C2282 C 0.14329 0.85274 0.50507 0.0
H2283 H 0.05967 0.8367 0.54746 0.0
H2284 H 0.07583 0.83321 0.52349 0.0
H2285 H 0.14074 0.85566 0.53038 0.0
H2286 H 0.19157 0.86718 0.46119 0.0
H2287 H 0.17486 0.87095 0.48459 0.0
H2288 H 0.10971 0.84928 0.47691 0.0
C2289 C 0.08498 0.84416 0.53323 0.0
C2290 C 0.13389 0.85441 0.51878 0.0
C2291 C 0.07574 0.84609 0.54699 0.0
C2292 C 0.17541 0.85819 0.46122 0.0
C2293 C 0.16583 0.86032 0.47465 0.0
C2294 C 0.11654 0.85047 0.4885 0.0
C2295 C 0.10581 0.85604 0.53215 0.0
C2296 C 0.11569 0.85411 0.51753 0.0
C2297 C 0.14487 0.84902 0.47518 0.0
C2298 C 0.13477 0.8508 0.48975 0.0
H2299 H 0.11702 0.88331 0.56826 0.0
H2300 H 0.13316 0.87963 0.54454 0.0
H2301 H 0.09323 0.85209 0.50087 0.0
H2302 H 0.13433 0.82305 0.43839 0.0
H2303 H 0.11758 0.82668 0.46187 0.0
C2304 C 0.58534 0.78313 0.11785 0.0
C2305 C 0.56938 0.78583 0.11381 0.0
C2306 C 0.59135 0.78474 0.1338 0.0
C2307 C 0.59508 0.80788 0.17317 0.0
H2308 H 0.59816 0.76354 0.18693 0.0
C2309 C 0.62949 0.81118 0.23554 0.0
C2310 C 0.64244 0.80356 0.23549 0.0
C2311 C 0.61731 0.80786 0.22196 0.0
C2312 C 0.59751 0.77611 0.18328 0.0
H2313 H 0.54763 0.79299 0.12334 0.0
H2314 H 0.55874 0.79647 0.15145 0.0
H2315 H 0.58334 0.76066 0.16053 0.0
H2316 H 0.65221 0.78594 0.22131 0.0
H2317 H 0.63167 0.78078 0.19761 0.0
H2318 H 0.6103 0.82379 0.19553 0.0
C2319 C 0.56628 0.7928 0.14213 0.0
C2320 C 0.5889 0.77438 0.16821 0.0
C2321 C 0.55996 0.79081 0.1261 0.0
C2322 C 0.64266 0.79229 0.22169 0.0
C2323 C 0.6306 0.78905 0.20815 0.0
C2324 C 0.60397 0.80973 0.18821 0.0
C2325 C 0.58178 0.78941 0.14607 0.0
C2326 C 0.58811 0.79042 0.16287 0.0
C2327 C 0.61781 0.79684 0.20807 0.0
C2328 C 0.60583 0.79405 0.19323 0.0
H2329 H 0.59288 0.7792 0.1087 0.0
H2330 H 0.6035 0.78228 0.13657 0.0
H2331 H 0.59464 0.82045 0.16924 0.0
H2332 H 0.62904 0.82003 0.24595 0.0
H2333 H 0.60754 0.81395 0.22234 0.0
C2334 C 0.22313 0.79212 0.11728 0.0
C2335 C 0.23072 0.77936 0.11413 0.0
C2336 C 0.21708 0.79467 0.13248 0.0
C2337 C 0.19852 0.77053 0.1689 0.0
H2338 H 0.21344 0.82352 0.18721 0.0
C2339 C 0.18812 0.81279 0.23012 0.0
C2340 C 0.16718 0.80179 0.23081 0.0
C2341 C 0.19746 0.8094 0.21702 0.0
C2342 C 0.20932 0.80865 0.18234 0.0
H2343 H 0.23871 0.75999 0.12487 0.0
H2344 H 0.22746 0.76394 0.15135 0.0
H2345 H 0.22719 0.8192 0.16209 0.0
H2346 H 0.13969 0.77811 0.21869 0.0
H2347 H 0.15602 0.77211 0.19586 0.0
H2348 H 0.1802 0.75998 0.18898 0.0
C2349 C 0.22605 0.77177 0.14189 0.0
C2350 C 0.21706 0.80617 0.16791 0.0
C2351 C 0.23232 0.76938 0.12667 0.0
C2352 C 0.15584 0.78693 0.2184 0.0
C2353 C 0.16519 0.78337 0.20542 0.0
C2354 C 0.19056 0.773 0.18325 0.0
C2355 C 0.2184 0.78448 0.14493 0.0
C2356 C 0.21153 0.78708 0.16093 0.0
C2357 C 0.18606 0.79475 0.20448 0.0
C2358 C 0.1957 0.79208 0.19001 0.0
H2359 H 0.22163 0.80003 0.10793 0.0
H2360 H 0.21102 0.80437 0.13441 0.0
H2361 H 0.19394 0.75564 0.16374 0.0
H2362 H 0.19723 0.82439 0.23949 0.0
H2363 H 0.21359 0.81832 0.21664 0.0
C2364 C 0.22084 0.40103 0.12423 0.0
C2365 C 0.20569 0.40055 0.11465 0.0
C2366 C 0.21675 0.39376 0.13932 0.0
C2367 C 0.17981 0.38192 0.17084 0.0
H2368 H 0.20036 0.34978 0.18541 0.0
C2369 C 0.1444 0.33079 0.22082 0.0
C2370 C 0.15696 0.3297 0.23223 0.0
C2371 C 0.1523 0.34142 0.20757 0.0
C2372 C 0.19474 0.35897 0.18161 0.0
H2373 H 0.17422 0.39152 0.11335 0.0
H2374 H 0.16712 0.3787 0.13927 0.0
H2375 H 0.21057 0.36426 0.15997 0.0
H2376 H 0.18773 0.33909 0.23876 0.0
H2377 H 0.20161 0.35765 0.21541 0.0
H2378 H 0.16361 0.37624 0.19222 0.0
C2379 C 0.18227 0.38507 0.13538 0.0
C2380 C 0.20059 0.36728 0.16703 0.0
C2381 C 0.18634 0.39231 0.1204 0.0
C2382 C 0.1777 0.33975 0.2302 0.0
C2383 C 0.18561 0.35023 0.21678 0.0
C2384 C 0.17392 0.37356 0.18532 0.0
C2385 C 0.19744 0.38589 0.14515 0.0
C2386 C 0.19284 0.3785 0.1613 0.0
C2387 C 0.17297 0.35112 0.2053 0.0
C2388 C 0.18097 0.36165 0.19073 0.0
H2389 H 0.23593 0.40729 0.1202 0.0
H2390 H 0.22881 0.39469 0.14654 0.0
H2391 H 0.17395 0.39091 0.16704 0.0
H2392 H 0.12838 0.32335 0.22212 0.0
H2393 H 0.14211 0.34164 0.19888 0.0
C2394 C 0.78341 0.58185 0.89418 0.0
C2395 C 0.79285 0.572 0.89959 0.0
C2396 C 0.78702 0.58902 0.87917 0.0
C2397 C 0.82255 0.60265 0.84655 0.0
H2398 H 0.77865 0.60095 0.82293 0.0
C2399 C 0.82955 0.62984 0.78317 0.0
C2400 C 0.82325 0.64362 0.78207 0.0
C2401 C 0.82522 0.619 0.79651 0.0
C2402 C 0.79105 0.60152 0.82939 0.0
H2403 H 0.81369 0.56214 0.89338 0.0
H2404 H 0.81976 0.57439 0.86695 0.0
H2405 H 0.77262 0.58597 0.84809 0.0
H2406 H 0.80695 0.65639 0.79364 0.0
H2407 H 0.79894 0.63714 0.81671 0.0
H2408 H 0.84088 0.61816 0.82763 0.0
C2409 C 0.80973 0.5768 0.87447 0.0
C2410 C 0.78765 0.59305 0.84387 0.0
C2411 C 0.80621 0.56971 0.88962 0.0
C2412 C 0.81199 0.64588 0.79423 0.0
C2413 C 0.80735 0.63481 0.80738 0.0
C2414 C 0.82588 0.61094 0.83193 0.0
C2415 C 0.80004 0.58642 0.869 0.0
C2416 C 0.80344 0.5939 0.85286 0.0
C2417 C 0.81416 0.62147 0.80879 0.0
C2418 C 0.81025 0.61082 0.82337 0.0
H2419 H 0.77316 0.58408 0.90157 0.0
H2420 H 0.77966 0.59679 0.8756 0.0
H2421 H 0.83511 0.60375 0.85316 0.0
H2422 H 0.83836 0.62794 0.77396 0.0
H2423 H 0.83057 0.60876 0.79727 0.0
C2424 C 0.4249 0.18633 0.89952 0.0
C2425 C 0.44491 0.20195 0.90034 0.0
C2426 C 0.4136 0.17975 0.88504 0.0
C2427 C 0.41676 0.18231 0.84105 0.0
H2428 H 0.36298 0.17335 0.84389 0.0
C2429 C 0.36931 0.18008 0.78678 0.0
C2430 C 0.34865 0.1662 0.78602 0.0
C2431 C 0.38135 0.18249 0.80015 0.0
C2432 C 0.37785 0.17549 0.84288 0.0
H2433 H 0.46898 0.2224 0.88646 0.0
H2434 H 0.44912 0.21121 0.86126 0.0
H2435 H 0.38351 0.18082 0.8682 0.0
H2436 H 0.32464 0.14329 0.79836 0.0
H2437 H 0.34563 0.14753 0.82171 0.0
H2438 H 0.4111 0.17742 0.81561 0.0
C2439 C 0.44223 0.20383 0.87175 0.0
C2440 C 0.38963 0.17975 0.85684 0.0
C2441 C 0.4536 0.21031 0.88623 0.0
C2442 C 0.34042 0.15439 0.79873 0.0
C2443 C 0.35245 0.1568 0.81208 0.0
C2444 C 0.40495 0.17811 0.82704 0.0
C2445 C 0.42197 0.18875 0.87106 0.0
C2446 C 0.40926 0.18329 0.85611 0.0
C2447 C 0.37299 0.17107 0.81305 0.0
C2448 C 0.38539 0.17473 0.82782 0.0
H2449 H 0.41782 0.17941 0.91014 0.0
H2450 H 0.39816 0.1678 0.88486 0.0
H2451 H 0.43173 0.18474 0.84007 0.0
H2452 H 0.37607 0.18954 0.77726 0.0
H2453 H 0.39708 0.19377 0.80062 0.0
C2454 C 0.74999 0.18553 0.88541 0.0
C2455 C 0.76384 0.19095 0.8984 0.0
C2456 C 0.75535 0.18356 0.86972 0.0
C2457 C 0.79872 0.20307 0.84564 0.0
H2458 H 0.77183 0.15393 0.81777 0.0
C2459 C 0.83797 0.18795 0.79365 0.0
C2460 C 0.82693 0.17649 0.7796 0.0
C2461 C 0.82837 0.1905 0.80685 0.0
C2462 C 0.77928 0.16791 0.82523 0.0
H2463 H 0.79403 0.19822 0.90506 0.0
H2464 H 0.80335 0.19517 0.87782 0.0
H2465 H 0.75777 0.15647 0.84331 0.0
H2466 H 0.79701 0.15897 0.76838 0.0
H2467 H 0.78025 0.16395 0.79132 0.0
H2468 H 0.82021 0.21468 0.8278 0.0
C2469 C 0.78837 0.19237 0.87978 0.0
C2470 C 0.77124 0.1693 0.83986 0.0
C2471 C 0.78295 0.19398 0.89538 0.0
C2472 C 0.80601 0.16801 0.77897 0.0
C2473 C 0.79637 0.17068 0.79219 0.0
C2474 C 0.80659 0.20181 0.83098 0.0
C2475 C 0.77474 0.18739 0.86681 0.0
C2476 C 0.78126 0.18669 0.85037 0.0
C2477 C 0.80744 0.18186 0.80635 0.0
C2478 C 0.79738 0.184 0.82082 0.0
H2479 H 0.73515 0.1831 0.88736 0.0
H2480 H 0.74459 0.17966 0.85986 0.0
H2481 H 0.80655 0.21675 0.85349 0.0
H2482 H 0.85412 0.19496 0.7945 0.0
H2483 H 0.8374 0.19893 0.8176 0.0
C2484 C 0.22573 0.12256 0.45946 0.0
C2485 C 0.23595 0.11882 0.44712 0.0
C2486 C 0.23197 0.12441 0.47549 0.0
C2487 C 0.25564 0.10701 0.50127 0.0
H2488 H 0.27628 0.15607 0.52892 0.0
C2489 C 0.30977 0.12542 0.55467 0.0
C2490 C 0.30969 0.1369 0.56839 0.0
C2491 C 0.2974 0.12182 0.54124 0.0
C2492 C 0.27015 0.14209 0.52153 0.0
H2493 H 0.26074 0.11421 0.4419 0.0
H2494 H 0.27122 0.11698 0.46978 0.0
H2495 H 0.26048 0.15273 0.50273 0.0
H2496 H 0.29616 0.15324 0.57884 0.0
H2497 H 0.27408 0.14643 0.55549 0.0
H2498 H 0.26522 0.09624 0.51982 0.0
C2499 C 0.25854 0.11864 0.46704 0.0
C2500 C 0.26118 0.14025 0.50653 0.0
C2501 C 0.25261 0.1172 0.4511 0.0
C2502 C 0.2965 0.14423 0.5685 0.0
C2503 C 0.284 0.14051 0.55505 0.0
C2504 C 0.2643 0.10871 0.5163 0.0
C2505 C 0.24819 0.12208 0.47935 0.0
C2506 C 0.25448 0.12294 0.49612 0.0
C2507 C 0.28445 0.12942 0.54119 0.0
C2508 C 0.27235 0.12653 0.52639 0.0
H2509 H 0.21285 0.12388 0.45673 0.0
H2510 H 0.22384 0.12713 0.48486 0.0
H2511 H 0.25033 0.09343 0.49345 0.0
H2512 H 0.31949 0.11927 0.55425 0.0
H2513 H 0.29844 0.11348 0.53072 0.0
C2514 C 0.90431 0.12658 0.45356 0.0
C2515 C 0.90765 0.11055 0.45208 0.0
C2516 C 0.89796 0.13149 0.46785 0.0
C2517 C 0.89209 0.1235 0.51089 0.0
H2518 H 0.8475 0.13197 0.50528 0.0
C2519 C 0.85631 0.14546 0.56351 0.0
C2520 C 0.83529 0.13598 0.56276 0.0
C2521 C 0.8664 0.1429 0.55058 0.0
C2522 C 0.85988 0.12954 0.50706 0.0
H2523 H 0.90802 0.0878 0.4648 0.0
H2524 H 0.89679 0.09629 0.48971 0.0
H2525 H 0.86375 0.12737 0.48195 0.0
H2526 H 0.80841 0.11571 0.54805 0.0
H2527 H 0.82597 0.11142 0.52552 0.0
H2528 H 0.88781 0.12526 0.53606 0.0
C2529 C 0.89918 0.10514 0.47983 0.0
C2530 C 0.86938 0.12717 0.49369 0.0
C2531 C 0.90556 0.10023 0.46552 0.0
C2532 C 0.82461 0.12359 0.54891 0.0
C2533 C 0.83467 0.1211 0.53599 0.0
C2534 C 0.88261 0.12598 0.52431 0.0
C2535 C 0.89478 0.12047 0.48101 0.0
C2536 C 0.88552 0.12402 0.49542 0.0
C2537 C 0.85568 0.13088 0.5366 0.0
C2538 C 0.86627 0.12884 0.52251 0.0
H2539 H 0.90594 0.13496 0.4435 0.0
H2540 H 0.89508 0.14364 0.46848 0.0
H2541 H 0.90455 0.1212 0.51262 0.0
H2542 H 0.86503 0.15527 0.57393 0.0
H2543 H 0.8826 0.15076 0.55136 0.0
C2544 C 0.85348 0.72686 0.4537 0.0
C2545 C 0.87299 0.73588 0.4482 0.0
C2546 C 0.84951 0.71984 0.46876 0.0
C2547 C 0.86916 0.70398 0.50097 0.0
H2548 H 0.82906 0.70892 0.52501 0.0
C2549 C 0.84567 0.67482 0.56356 0.0
C2550 C 0.82486 0.66333 0.56504 0.0
C2551 C 0.85343 0.6857 0.55033 0.0
C2552 C 0.84025 0.70738 0.51843 0.0
H2553 H 0.90366 0.74446 0.45435 0.0
H2554 H 0.89674 0.73233 0.48086 0.0
H2555 H 0.83942 0.72425 0.50009 0.0
H2556 H 0.79595 0.65481 0.55411 0.0
H2557 H 0.80942 0.67379 0.53118 0.0
H2558 H 0.86982 0.68698 0.51942 0.0
C2559 C 0.88447 0.73055 0.47336 0.0
C2560 C 0.84617 0.71611 0.50411 0.0
C2561 C 0.88845 0.73757 0.45819 0.0
C2562 C 0.81204 0.66337 0.55324 0.0
C2563 C 0.81977 0.67439 0.54017 0.0
C2564 C 0.86331 0.69533 0.51541 0.0
C2565 C 0.86493 0.7217 0.47887 0.0
C2566 C 0.86032 0.71412 0.49496 0.0
C2567 C 0.84054 0.68556 0.53847 0.0
C2568 C 0.84844 0.69654 0.5241 0.0
H2569 H 0.84112 0.72513 0.44634 0.0
H2570 H 0.83421 0.7127 0.47239 0.0
H2571 H 0.88001 0.70204 0.49422 0.0
H2572 H 0.85591 0.675 0.57242 0.0
H2573 H 0.8695 0.69426 0.54939 0.0
loop_
_geom_bond_atom_site_label_1
_geom_bond_atom_site_label_2
_geom_bond_distance
_geom_bond_site_symmetry_2
_ccdc_geom_bond_type
O0 Cd1 2.300 . S
O0 C7 1.275 . S
Cd1 O0 2.300 . S
Cd1 O9 2.381 . S
Cd1 O10 2.378 . S
O2 Cd3 2.385 . S
O2 C7 1.255 . S
Cd3 O2 2.385 . S
Cd3 O4 2.317 . S
O4 Cd3 2.317 . S
O4 C5 1.232 . S
C5 O4 1.232 . S
C5 O6 1.218 . S
O6 C5 1.218 . S
C7 O0 1.275 . S
C7 O2 1.255 . S
C8 O9 1.258 . S
C8 O10 1.256 . S
O9 Cd1 2.381 . S
O9 C8 1.258 . S
O10 Cd1 2.378 . S
O10 C8 1.256 . S
O11 Cd12 2.300 . S
O11 C18 1.275 . S
Cd12 O11 2.300 . S
Cd12 O20 2.381 . S
Cd12 O21 2.378 . S
O13 Cd14 2.385 . S
O13 C18 1.255 . S
Cd14 O13 2.385 . S
Cd14 O15 2.317 . S
O15 Cd14 2.317 . S
O15 C16 1.232 . S
C16 O15 1.232 . S
C16 O17 1.218 . S
O17 C16 1.218 . S
C18 O11 1.275 . S
C18 O13 1.255 . S
C19 O20 1.258 . S
C19 O21 1.256 . S
O20 Cd12 2.381 . S
O20 C19 1.258 . S
O21 Cd12 2.378 . S
O21 C19 1.256 . S
O22 Cd23 2.300 . S
O22 C29 1.275 . S
Cd23 O22 2.300 . S
Cd23 O31 2.381 . S
Cd23 O32 2.378 . S
O24 Cd25 2.385 . S
O24 C29 1.255 . S
Cd25 O24 2.385 . S
Cd25 O26 2.317 . S
O26 Cd25 2.317 . S
O26 C27 1.232 . S
C27 O26 1.232 . S
C27 O28 1.218 . S
O28 C27 1.218 . S
C29 O22 1.275 . S
C29 O24 1.255 . S
C30 O31 1.258 . S
C30 O32 1.256 . S
O31 Cd23 2.381 . S
O31 C30 1.258 . S
O32 Cd23 2.378 . S
O32 C30 1.256 . S
O33 Cd34 2.300 . S
O33 C40 1.275 . S
Cd34 O33 2.300 . S
Cd34 O42 2.381 . S
Cd34 O43 2.378 . S
O35 Cd36 2.385 . S
O35 C40 1.255 . S
Cd36 O35 2.385 . S
Cd36 O37 2.317 . S
O37 Cd36 2.317 . S
O37 C38 1.232 . S
C38 O37 1.232 . S
C38 O39 1.218 . S
O39 C38 1.218 . S
C40 O33 1.275 . S
C40 O35 1.255 . S
C41 O42 1.258 . S
C41 O43 1.256 . S
O42 Cd34 2.381 . S
O42 C41 1.258 . S
O43 Cd34 2.378 . S
O43 C41 1.256 . S
O44 Cd45 2.300 . S
O44 C51 1.275 . S
Cd45 O44 2.300 . S
Cd45 O53 2.381 . S
Cd45 O54 2.378 . S
O46 Cd47 2.385 . S
O46 C51 1.255 . S
Cd47 O46 2.385 . S
Cd47 O48 2.317 . S
O48 Cd47 2.317 . S
O48 C49 1.232 . S
C49 O48 1.232 . S
C49 O50 1.218 . S
O50 C49 1.218 . S
C51 O44 1.275 . S
C51 O46 1.255 . S
C52 O53 1.258 . S
C52 O54 1.256 . S
O53 Cd45 2.381 . S
O53 C52 1.258 . S
O54 Cd45 2.378 . S
O54 C52 1.256 . S
O55 Cd56 2.300 . S
O55 C62 1.275 . S
Cd56 O55 2.300 . S
Cd56 O64 2.381 . S
Cd56 O65 2.378 . S
O57 Cd58 2.385 . S
O57 C62 1.255 . S
Cd58 O57 2.385 . S
Cd58 O59 2.317 . S
O59 Cd58 2.317 . S
O59 C60 1.232 . S
C60 O59 1.232 . S
C60 O61 1.218 . S
O61 C60 1.218 . S
C62 O55 1.275 . S
C62 O57 1.255 . S
C63 O64 1.258 . S
C63 O65 1.256 . S
O64 Cd56 2.381 . S
O64 C63 1.258 . S
O65 Cd56 2.378 . S
O65 C63 1.256 . S
O66 Cd67 2.300 . S
O66 C73 1.275 . S
Cd67 O66 2.300 . S
Cd67 O75 2.381 . S
Cd67 O76 2.378 . S
O68 Cd69 2.385 . S
O68 C73 1.255 . S
Cd69 O68 2.385 . S
Cd69 O70 2.317 . S
O70 Cd69 2.317 . S
O70 C71 1.232 . S
C71 O70 1.232 . S
C71 O72 1.218 . S
O72 C71 1.218 . S
C73 O66 1.275 . S
C73 O68 1.255 . S
C74 O75 1.258 . S
C74 O76 1.256 . S
O75 Cd67 2.381 . S
O75 C74 1.258 . S
O76 Cd67 2.378 . S
O76 C74 1.256 . S
O77 Cd78 2.300 . S
O77 C84 1.275 . S
Cd78 O77 2.300 . S
Cd78 O86 2.381 . S
Cd78 O87 2.378 . S
O79 Cd80 2.385 . S
O79 C84 1.255 . S
Cd80 O79 2.385 . S
Cd80 O81 2.317 . S
O81 Cd80 2.317 . S
O81 C82 1.232 . S
C82 O81 1.232 . S
C82 O83 1.218 . S
O83 C82 1.218 . S
C84 O77 1.275 . S
C84 O79 1.255 . S
C85 O86 1.258 . S
C85 O87 1.256 . S
O86 Cd78 2.381 . S
O86 C85 1.258 . S
O87 Cd78 2.378 . S
O87 C85 1.256 . S
O88 Cd89 2.300 . S
O88 C95 1.275 . S
Cd89 O88 2.300 . S
Cd89 O97 2.381 . S
Cd89 O98 2.378 . S
O90 Cd91 2.385 . S
O90 C95 1.255 . S
Cd91 O90 2.385 . S
Cd91 O92 2.317 . S
O92 Cd91 2.317 . S
O92 C93 1.232 . S
C93 O92 1.232 . S
C93 O94 1.218 . S
O94 C93 1.218 . S
C95 O88 1.275 . S
C95 O90 1.255 . S
C96 O97 1.258 . S
C96 O98 1.256 . S
O97 Cd89 2.381 . S
O97 C96 1.258 . S
O98 Cd89 2.378 . S
O98 C96 1.256 . S
O99 Cd100 2.300 . S
O99 C106 1.275 . S
Cd100 O99 2.300 . S
Cd100 O108 2.381 . S
Cd100 O109 2.378 . S
O101 Cd102 2.385 . S
O101 C106 1.255 . S
Cd102 O101 2.385 . S
Cd102 O103 2.317 . S
O103 Cd102 2.317 . S
O103 C104 1.232 . S
C104 O103 1.232 . S
C104 O105 1.218 . S
O105 C104 1.218 . S
C106 O99 1.275 . S
C106 O101 1.255 . S
C107 O108 1.258 . S
C107 O109 1.256 . S
O108 Cd100 2.381 . S
O108 C107 1.258 . S
O109 Cd100 2.378 . S
O109 C107 1.256 . S
O110 Cd111 2.300 . S
O110 C117 1.275 . S
Cd111 O110 2.300 . S
Cd111 O119 2.381 . S
Cd111 O120 2.378 . S
O112 Cd113 2.385 . S
O112 C117 1.255 . S
Cd113 O112 2.385 . S
Cd113 O114 2.317 . S
O114 Cd113 2.317 . S
O114 C115 1.232 . S
C115 O114 1.232 . S
C115 O116 1.218 . S
O116 C115 1.218 . S
C117 O110 1.275 . S
C117 O112 1.255 . S
C118 O119 1.258 . S
C118 O120 1.256 . S
O119 Cd111 2.381 . S
O119 C118 1.258 . S
O120 Cd111 2.378 . S
O120 C118 1.256 . S
O121 Cd122 2.300 . S
O121 C128 1.275 . S
Cd122 O121 2.300 . S
Cd122 O130 2.381 . S
Cd122 O131 2.378 . S
O123 Cd124 2.385 . S
O123 C128 1.255 . S
Cd124 O123 2.385 . S
Cd124 O125 2.317 . S
O125 Cd124 2.317 . S
O125 C126 1.232 . S
C126 O125 1.232 . S
C126 O127 1.218 . S
O127 C126 1.218 . S
C128 O121 1.275 . S
C128 O123 1.255 . S
C129 O130 1.258 . S
C129 O131 1.256 . S
O130 Cd122 2.381 . S
O130 C129 1.258 . S
O131 Cd122 2.378 . S
O131 C129 1.256 . S
O132 Cd133 2.300 . S
O132 C139 1.275 . S
Cd133 O132 2.300 . S
Cd133 O141 2.381 . S
Cd133 O142 2.378 . S
O134 Cd135 2.385 . S
O134 C139 1.255 . S
Cd135 O134 2.385 . S
Cd135 O136 2.317 . S
O136 Cd135 2.317 . S
O136 C137 1.232 . S
C137 O136 1.232 . S
C137 O138 1.218 . S
O138 C137 1.218 . S
C139 O132 1.275 . S
C139 O134 1.255 . S
C140 O141 1.258 . S
C140 O142 1.256 . S
O141 Cd133 2.381 . S
O141 C140 1.258 . S
O142 Cd133 2.378 . S
O142 C140 1.256 . S
O143 Cd144 2.300 . S
O143 C150 1.275 . S
Cd144 O143 2.300 . S
Cd144 O152 2.381 . S
Cd144 O153 2.378 . S
O145 Cd146 2.385 . S
O145 C150 1.255 . S
Cd146 O145 2.385 . S
Cd146 O147 2.317 . S
O147 Cd146 2.317 . S
O147 C148 1.232 . S
C148 O147 1.232 . S
C148 O149 1.218 . S
O149 C148 1.218 . S
C150 O143 1.275 . S
C150 O145 1.255 . S
C151 O152 1.258 . S
C151 O153 1.256 . S
O152 Cd144 2.381 . S
O152 C151 1.258 . S
O153 Cd144 2.378 . S
O153 C151 1.256 . S
O154 Cd155 2.300 . S
O154 C161 1.275 . S
Cd155 O154 2.300 . S
Cd155 O163 2.381 . S
Cd155 O164 2.378 . S
O156 Cd157 2.385 . S
O156 C161 1.255 . S
Cd157 O156 2.385 . S
Cd157 O158 2.317 . S
O158 Cd157 2.317 . S
O158 C159 1.232 . S
C159 O158 1.232 . S
C159 O160 1.218 . S
O160 C159 1.218 . S
C161 O154 1.275 . S
C161 O156 1.255 . S
C162 O163 1.258 . S
C162 O164 1.256 . S
O163 Cd155 2.381 . S
O163 C162 1.258 . S
O164 Cd155 2.378 . S
O164 C162 1.256 . S
O165 Cd166 2.300 . S
O165 C172 1.275 . S
Cd166 O165 2.300 . S
Cd166 O174 2.381 . S
Cd166 O175 2.378 . S
O167 Cd168 2.385 . S
O167 C172 1.255 . S
Cd168 O167 2.385 . S
Cd168 O169 2.317 . S
O169 Cd168 2.317 . S
O169 C170 1.232 . S
C170 O169 1.232 . S
C170 O171 1.218 . S
O171 C170 1.218 . S
C172 O165 1.275 . S
C172 O167 1.255 . S
C173 O174 1.258 . S
C173 O175 1.256 . S
O174 Cd166 2.381 . S
O174 C173 1.258 . S
O175 Cd166 2.378 . S
O175 C173 1.256 . S
O176 Cd177 2.300 . S
O176 C183 1.275 . S
Cd177 O176 2.300 . S
Cd177 O185 2.381 . S
Cd177 O186 2.378 . S
O178 Cd179 2.385 . S
O178 C183 1.255 . S
Cd179 O178 2.385 . S
Cd179 O180 2.317 . S
O180 Cd179 2.317 . S
O180 C181 1.232 . S
C181 O180 1.232 . S
C181 O182 1.218 . S
O182 C181 1.218 . S
C183 O176 1.275 . S
C183 O178 1.255 . S
C184 O185 1.258 . S
C184 O186 1.256 . S
O185 Cd177 2.381 . S
O185 C184 1.258 . S
O186 Cd177 2.378 . S
O186 C184 1.256 . S
O187 Cd188 2.300 . S
O187 C194 1.275 . S
Cd188 O187 2.300 . S
Cd188 O196 2.381 . S
Cd188 O197 2.378 . S
O189 Cd190 2.385 . S
O189 C194 1.255 . S
Cd190 O189 2.385 . S
Cd190 O191 2.317 . S
O191 Cd190 2.317 . S
O191 C192 1.232 . S
C192 O191 1.232 . S
C192 O193 1.218 . S
O193 C192 1.218 . S
C194 O187 1.275 . S
C194 O189 1.255 . S
C195 O196 1.258 . S
C195 O197 1.256 . S
O196 Cd188 2.381 . S
O196 C195 1.258 . S
O197 Cd188 2.378 . S
O197 C195 1.256 . S
Eu198 N229 2.657 . S
Eu198 N236 2.609 . S
Eu198 O242 2.558 . S
Eu198 O243 2.612 1_566 S
Eu198 O245 2.339 1_565 S
Eu198 O246 2.563 1_565 S
Eu198 O247 2.419 1_565 S
Eu198 O249 2.380 1_556 S
Eu198 O250 2.432 . S
Eu198 C262 2.848 . S
C199 C202 1.429 . S
C199 C203 1.411 . S
C199 N206 1.377 . S
C200 C202 1.420 . S
C200 C204 1.423 . S
C200 C212 1.392 . S
C201 C203 1.420 . S
C201 C204 1.351 . S
C201 H224 0.931 . S
C202 C199 1.429 . S
C202 C200 1.420 . S
C202 N210 1.362 . S
C203 C199 1.411 . S
C203 C201 1.420 . S
C203 C208 1.395 . S
C204 C200 1.423 . S
C204 C201 1.351 . S
C204 H216 0.930 . S
C205 C207 1.400 . S
C205 C208 1.386 . S
C205 H217 0.930 . S
N206 C199 1.377 . S
N206 C207 1.321 . S
N206 Eu209 2.609 . S
C207 C205 1.400 . S
C207 N206 1.321 . S
C207 H214 0.930 . S
C208 C203 1.395 . S
C208 C205 1.386 . S
C208 H227 0.930 . S
Eu209 N206 2.609 . S
Eu209 N210 2.657 . S
Eu209 O243 2.380 . S
Eu209 O244 2.432 . S
Eu209 O248 2.558 . S
Eu209 O249 2.612 1_545 S
Eu209 O251 2.339 1_545 S
Eu209 O252 2.563 1_545 S
Eu209 O253 2.448 . S
Eu209 C273 2.848 . S
N210 C202 1.362 . S
N210 Eu209 2.657 . S
N210 C211 1.334 . S
C211 N210 1.334 . S
C211 C213 1.413 . S
C211 H218 0.929 . S
C212 C200 1.392 . S
C212 C213 1.367 . S
C212 H220 0.930 . S
C213 C211 1.413 . S
C213 C212 1.367 . S
C213 H215 0.930 . S
H214 C207 0.930 . S
H215 C213 0.930 . S
H216 C204 0.930 . S
H217 C205 0.930 . S
H218 C211 0.929 . S
H219 C233 0.930 . S
H220 C212 0.930 . S
H221 C239 0.930 . S
H222 C230 0.929 . S
H223 C237 0.930 . S
H224 C201 0.931 . S
H225 C231 0.930 . S
H226 C264 0.930 . S
H227 C208 0.930 . S
H228 C263 0.931 . S
N229 Eu198 2.657 . S
N229 C230 1.334 . S
N229 C234 1.362 . S
C230 H222 0.929 . S
C230 N229 1.334 . S
C230 C233 1.413 . S
C231 H225 0.930 . S
C231 C232 1.392 . S
C231 C233 1.367 . S
C232 C231 1.392 . S
C232 C234 1.420 . S
C232 C264 1.423 . S
C233 H219 0.930 . S
C233 C230 1.413 . S
C233 C231 1.367 . S
C234 N229 1.362 . S
C234 C232 1.420 . S
C234 C238 1.429 . S
H235 C240 0.930 . S
N236 Eu198 2.609 . S
N236 C238 1.377 . S
N236 C239 1.321 . S
C237 H223 0.930 . S
C237 C239 1.400 . S
C237 C240 1.386 . S
C238 C234 1.429 . S
C238 N236 1.377 . S
C238 C241 1.411 . S
C239 H221 0.930 . S
C239 N236 1.321 . S
C239 C237 1.400 . S
C240 H235 0.930 . S
C240 C237 1.386 . S
C240 C241 1.395 . S
C241 C238 1.411 . S
C241 C240 1.395 . S
C241 C263 1.420 . S
O242 Eu198 2.558 . S
O242 C262 1.257 . S
O243 Eu198 2.612 1_544 S
O243 Eu209 2.380 . S
O243 C254 1.276 1_554 S
O244 Eu209 2.432 . S
O244 C261 1.291 . S
O245 Eu198 2.339 1_545 S
O245 C261 1.236 1_556 S
O246 Eu198 2.563 1_545 S
O246 C254 1.235 . S
O247 Eu198 2.419 1_545 S
O247 C262 1.249 1_545 S
O248 Eu209 2.558 . S
O248 C273 1.257 . S
O249 Eu198 2.380 1_554 S
O249 Eu209 2.612 1_565 S
O249 C265 1.276 . S
O250 Eu198 2.432 . S
O250 C272 1.264 1_556 S
O251 Eu209 2.339 1_565 S
O251 C272 1.254 . S
O252 Eu209 2.563 1_565 S
O252 C265 1.235 . S
O253 Eu209 2.448 . S
O253 C273 1.293 . S
C254 O243 1.276 1_556 S
C254 O246 1.235 . S
C255 C257 1.393 1_565 S
C255 C259 1.395 . S
C255 C262 1.492 . S
C256 C257 1.392 . S
C256 C258 1.386 . S
C257 C255 1.393 1_545 S
C257 C256 1.392 . S
C257 H274 0.930 . S
C258 C256 1.386 . S
C258 C260 1.395 1_545 S
C258 H275 0.930 . S
C259 C255 1.395 . S
C259 C260 1.379 . S
C259 H276 0.930 . S
C260 C258 1.395 1_565 S
C260 C259 1.379 . S
C260 H277 0.930 . S
C261 O244 1.291 . S
C261 O245 1.236 1_554 S
C262 Eu198 2.848 . S
C262 O242 1.257 . S
C262 O247 1.249 1_565 S
C262 C255 1.492 . S
C263 H228 0.931 . S
C263 C241 1.420 . S
C263 C264 1.351 . S
C264 H226 0.930 . S
C264 C232 1.423 . S
C264 C263 1.351 . S
C265 O249 1.276 . S
C265 O252 1.235 . S
C266 C267 1.393 1_545 S
C266 C270 1.395 . S
C266 C273 1.492 . S
C267 C266 1.393 1_565 S
C267 C268 1.392 . S
C267 H278 0.930 . S
C268 C267 1.392 . S
C268 C269 1.386 . S
C269 C268 1.386 . S
C269 C271 1.395 1_565 S
C269 H279 0.930 . S
C270 C266 1.395 . S
C270 C271 1.379 . S
C270 H280 0.930 . S
C271 C269 1.395 1_545 S
C271 C270 1.379 . S
C271 H281 0.930 . S
C272 O250 1.264 1_554 S
C272 O251 1.254 . S
C273 Eu209 2.848 . S
C273 O248 1.257 . S
C273 O253 1.293 . S
C273 C266 1.492 . S
H274 C257 0.930 . S
H275 C258 0.930 . S
H276 C259 0.930 . S
H277 C260 0.930 . S
H278 C267 0.930 . S
H279 C269 0.930 . S
H280 C270 0.930 . S
H281 C271 0.930 . S
Eu282 N313 2.657 . S
Eu282 N320 2.609 . S
Eu282 O326 2.558 . S
Eu282 O327 2.612 1_456 S
Eu282 O329 2.339 1_455 S
Eu282 O330 2.563 1_455 S
Eu282 O331 2.419 1_455 S
Eu282 O333 2.380 1_556 S
Eu282 O334 2.432 1_556 S
Eu282 C346 2.848 . S
C283 C286 1.429 . S
C283 C287 1.411 . S
C283 N290 1.377 . S
C284 C286 1.420 . S
C284 C288 1.423 . S
C284 C296 1.392 . S
C285 C287 1.420 . S
C285 C288 1.351 . S
C285 H308 0.931 . S
C286 C283 1.429 . S
C286 C284 1.420 . S
C286 N294 1.362 . S
C287 C283 1.411 . S
C287 C285 1.420 . S
C287 C292 1.395 . S
C288 C284 1.423 . S
C288 C285 1.351 . S
C288 H300 0.930 . S
C289 C291 1.400 . S
C289 C292 1.386 . S
C289 H301 0.930 . S
N290 C283 1.377 . S
N290 C291 1.321 . S
N290 Eu293 2.609 . S
C291 C289 1.400 . S
C291 N290 1.321 . S
C291 H298 0.930 . S
C292 C287 1.395 . S
C292 C289 1.386 . S
C292 H311 0.930 . S
Eu293 N290 2.609 . S
Eu293 N294 2.657 . S
Eu293 O327 2.380 . S
Eu293 O328 2.432 . S
Eu293 O332 2.558 . S
Eu293 O333 2.612 1_655 S
Eu293 O335 2.339 1_655 S
Eu293 O336 2.563 1_655 S
Eu293 O337 2.419 1_655 S
Eu293 C357 2.848 1_655 S
N294 C286 1.362 . S
N294 Eu293 2.657 . S
N294 C295 1.334 . S
C295 N294 1.334 . S
C295 C297 1.413 . S
C295 H302 0.929 1_655 S
C296 C284 1.392 . S
C296 C297 1.367 . S
C296 H304 0.930 . S
C297 C295 1.413 . S
C297 C296 1.367 . S
C297 H299 0.930 . S
H298 C291 0.930 . S
H299 C297 0.930 . S
H300 C288 0.930 . S
H301 C289 0.930 . S
H302 C295 0.929 1_455 S
H303 C317 0.930 . S
H304 C296 0.930 . S
H305 C323 0.930 . S
H306 C314 0.934 . S
H307 C321 0.930 . S
H308 C285 0.931 . S
H309 C315 0.930 . S
H310 C348 0.930 . S
H311 C292 0.930 . S
H312 C347 0.931 . S
N313 Eu282 2.657 . S
N313 C314 1.334 . S
N313 C318 1.362 . S
C314 H306 0.934 . S
C314 N313 1.334 . S
C314 C317 1.413 . S
C315 H309 0.930 . S
C315 C316 1.392 . S
C315 C317 1.367 . S
C316 C315 1.392 . S
C316 C318 1.420 . S
C316 C348 1.423 . S
C317 H303 0.930 . S
C317 C314 1.413 . S
C317 C315 1.367 . S
C318 N313 1.362 . S
C318 C316 1.420 . S
C318 C322 1.429 . S
H319 C324 0.930 . S
N320 Eu282 2.609 . S
N320 C322 1.377 . S
N320 C323 1.321 . S
C321 H307 0.930 . S
C321 C323 1.400 . S
C321 C324 1.386 . S
C322 C318 1.429 . S
C322 N320 1.377 . S
C322 C325 1.411 . S
C323 H305 0.930 . S
C323 N320 1.321 . S
C323 C321 1.400 . S
C324 H319 0.930 . S
C324 C321 1.386 . S
C324 C325 1.395 . S
C325 C322 1.411 . S
C325 C324 1.395 . S
C325 C347 1.420 . S
O326 Eu282 2.558 . S
O326 C346 1.257 . S
O327 Eu282 2.612 1_654 S
O327 Eu293 2.380 . S
O327 C338 1.276 1_554 S
O328 Eu293 2.432 . S
O328 C345 1.264 . S
O329 Eu282 2.339 1_655 S
O329 C345 1.254 1_556 S
O330 Eu282 2.563 1_655 S
O330 C338 1.235 . S
O331 Eu282 2.419 1_655 S
O331 C346 1.249 1_655 S
O332 Eu293 2.558 . S
O332 C357 1.257 1_655 S
O333 Eu282 2.380 1_554 S
O333 Eu293 2.612 1_455 S
O333 C349 1.276 . S
O334 Eu282 2.432 1_554 S
O334 C356 1.264 . S
O335 Eu293 2.339 1_455 S
O335 C356 1.254 . S
O336 Eu293 2.563 1_455 S
O336 C349 1.235 . S
O337 Eu293 2.419 1_455 S
O337 C357 1.249 . S
C338 O327 1.276 1_556 S
C338 O330 1.235 . S
C339 C341 1.393 . S
C339 C343 1.395 1_655 S
C339 C346 1.492 1_655 S
C340 C341 1.392 . S
C340 C342 1.386 . S
C341 C339 1.393 . S
C341 C340 1.392 . S
C341 H358 0.930 . S
C342 C340 1.386 . S
C342 C344 1.395 1_655 S
C342 H359 0.930 . S
C343 C339 1.395 1_455 S
C343 C344 1.379 . S
C343 H360 0.930 . S
C344 C342 1.395 1_455 S
C344 C343 1.379 . S
C344 H361 0.930 . S
C345 O328 1.264 . S
C345 O329 1.254 1_554 S
C346 Eu282 2.848 . S
C346 O326 1.257 . S
C346 O331 1.249 1_455 S
C346 C339 1.492 1_455 S
C347 H312 0.931 . S
C347 C325 1.420 . S
C347 C348 1.351 . S
C348 H310 0.930 . S
C348 C316 1.423 . S
C348 C347 1.351 . S
C349 O333 1.276 . S
C349 O336 1.235 . S
C350 C351 1.393 . S
C350 C354 1.395 1_455 S
C350 C357 1.492 . S
C351 C350 1.393 . S
C351 C352 1.392 . S
C351 H362 0.930 . S
C352 C351 1.392 . S
C352 C353 1.386 . S
C353 C352 1.386 . S
C353 C355 1.395 . S
C353 H363 0.930 . S
C354 C350 1.395 1_655 S
C354 C355 1.379 1_655 S
C354 H364 0.930 . S
C355 C353 1.395 . S
C355 C354 1.379 1_455 S
C355 H365 0.930 1_455 S
C356 O334 1.264 . S
C356 O335 1.254 . S
C357 Eu293 2.848 1_455 S
C357 O332 1.257 1_455 S
C357 O337 1.249 . S
C357 C350 1.492 . S
H358 C341 0.930 . S
H359 C342 0.930 . S
H360 C343 0.930 . S
H361 C344 0.930 . S
H362 C351 0.930 . S
H363 C353 0.930 . S
H364 C354 0.930 . S
H365 C355 0.930 1_655 S
Eu366 N397 2.657 . S
Eu366 N404 2.609 . S
Eu366 O410 2.558 . S
Eu366 O411 2.612 . S
Eu366 O413 2.339 . S
Eu366 O414 2.563 . S
Eu366 O415 2.419 . S
Eu366 O417 2.398 . S
Eu366 O418 2.432 . S
Eu366 C430 2.848 . S
C367 C370 1.429 . S
C367 C371 1.411 . S
C367 N374 1.377 . S
C368 C370 1.420 . S
C368 C372 1.423 . S
C368 C380 1.392 . S
C369 C371 1.420 . S
C369 C372 1.351 . S
C369 H392 0.931 . S
C370 C367 1.429 . S
C370 C368 1.420 . S
C370 N378 1.362 . S
C371 C367 1.411 . S
C371 C369 1.420 . S
C371 C376 1.395 . S
C372 C368 1.423 . S
C372 C369 1.351 . S
C372 H384 0.930 . S
C373 C375 1.400 . S
C373 C376 1.386 . S
C373 H385 0.930 . S
N374 C367 1.377 . S
N374 C375 1.321 . S
N374 Eu377 2.609 . S
C375 C373 1.400 . S
C375 N374 1.321 . S
C375 H382 0.930 . S
C376 C371 1.395 . S
C376 C373 1.386 . S
C376 H395 0.930 . S
Eu377 N374 2.609 . S
Eu377 N378 2.657 . S
Eu377 O411 2.380 1_556 S
Eu377 O412 2.432 . S
Eu377 O416 2.558 . S
Eu377 O417 2.598 1_556 S
Eu377 O419 2.339 . S
Eu377 O420 2.563 . S
Eu377 O421 2.419 . S
Eu377 C441 2.848 . S
N378 C370 1.362 . S
N378 Eu377 2.657 . S
N378 C379 1.334 . S
C379 N378 1.334 . S
C379 C381 1.413 . S
C379 H386 0.929 . S
C380 C368 1.392 . S
C380 C381 1.367 . S
C380 H388 0.930 . S
C381 C379 1.413 . S
C381 C380 1.367 . S
C381 H383 0.930 . S
H382 C375 0.930 . S
H383 C381 0.930 . S
H384 C372 0.930 . S
H385 C373 0.930 . S
H386 C379 0.929 . S
H387 C401 0.930 . S
H388 C380 0.930 . S
H389 C407 0.930 . S
H390 C398 0.929 . S
H391 C405 0.930 . S
H392 C369 0.931 . S
H393 C399 0.930 . S
H394 C432 0.930 . S
H395 C376 0.930 . S
H396 C431 0.931 . S
N397 Eu366 2.657 . S
N397 C398 1.334 . S
N397 C402 1.362 . S
C398 H390 0.929 . S
C398 N397 1.334 . S
C398 C401 1.413 . S
C399 H393 0.930 . S
C399 C400 1.392 . S
C399 C401 1.367 . S
C400 C399 1.392 . S
C400 C402 1.420 . S
C400 C432 1.423 . S
C401 H387 0.930 . S
C401 C398 1.413 . S
C401 C399 1.367 . S
C402 N397 1.362 . S
C402 C400 1.420 . S
C402 C406 1.429 . S
H403 C408 0.930 . S
N404 Eu366 2.609 . S
N404 C406 1.377 . S
N404 C407 1.321 . S
C405 H391 0.930 . S
C405 C407 1.400 . S
C405 C408 1.386 . S
C406 C402 1.429 . S
C406 N404 1.377 . S
C406 C409 1.411 . S
C407 H389 0.930 . S
C407 N404 1.321 . S
C407 C405 1.400 . S
C408 H403 0.930 . S
C408 C405 1.386 . S
C408 C409 1.395 . S
C409 C406 1.411 . S
C409 C408 1.395 . S
C409 C431 1.420 . S
O410 Eu366 2.558 . S
O410 C430 1.257 . S
O411 Eu366 2.612 . S
O411 Eu377 2.380 1_554 S
O411 C422 1.276 . S
O412 Eu377 2.432 . S
O412 C429 1.264 1_556 S
O413 Eu366 2.339 . S
O413 C429 1.254 . S
O414 Eu366 2.563 . S
O414 C422 1.235 . S
O415 Eu366 2.419 . S
O415 C430 1.249 . S
O416 Eu377 2.558 . S
O416 C441 1.257 . S
O417 Eu366 2.398 . S
O417 Eu377 2.598 1_554 S
O417 C433 1.262 1_554 S
O418 Eu366 2.432 . S
O418 C440 1.264 1_554 S
O419 Eu377 2.339 . S
O419 C440 1.254 . S
O420 Eu377 2.563 . S
O420 C433 1.235 . S
O421 Eu377 2.419 . S
O421 C441 1.249 . S
C422 O411 1.276 . S
C422 O414 1.235 . S
C423 C425 1.393 . S
C423 C427 1.395 . S
C423 C430 1.492 . S
C424 C425 1.392 . S
C424 C426 1.386 . S
C425 C423 1.393 . S
C425 C424 1.392 . S
C425 H442 0.930 . S
C426 C424 1.386 . S
C426 C428 1.395 . S
C426 H443 0.930 . S
C427 C423 1.395 . S
C427 C428 1.379 . S
C427 H444 0.930 . S
C428 C426 1.395 . S
C428 C427 1.379 . S
C428 H445 0.930 . S
C429 O412 1.264 1_554 S
C429 O413 1.254 . S
C430 Eu366 2.848 . S
C430 O410 1.257 . S
C430 O415 1.249 . S
C430 C423 1.492 . S
C431 H396 0.931 . S
C431 C409 1.420 . S
C431 C432 1.351 . S
C432 H394 0.930 . S
C432 C400 1.423 . S
C432 C431 1.351 . S
C433 O417 1.262 1_556 S
C433 O420 1.235 . S
C434 C435 1.393 . S
C434 C438 1.395 . S
C434 C441 1.492 . S
C435 C434 1.393 . S
C435 C436 1.392 . S
C435 H446 0.930 . S
C436 C435 1.392 . S
C436 C437 1.386 . S
C437 C436 1.386 . S
C437 C439 1.395 . S
C437 H447 0.930 . S
C438 C434 1.395 . S
C438 C439 1.379 . S
C438 H448 0.930 . S
C439 C437 1.395 . S
C439 C438 1.379 . S
C439 H449 0.930 . S
C440 O418 1.264 1_556 S
C440 O419 1.254 . S
C441 Eu377 2.848 . S
C441 O416 1.257 . S
C441 O421 1.249 . S
C441 C434 1.492 . S
H442 C425 0.930 . S
H443 C426 0.930 . S
H444 C427 0.930 . S
H445 C428 0.930 . S
H446 C435 0.930 . S
H447 C437 0.930 . S
H448 C438 0.930 . S
H449 C439 0.930 . S
Eu450 N481 2.657 . S
Eu450 N488 2.609 . S
Eu450 O494 2.558 . S
Eu450 O495 2.612 . S
Eu450 O497 2.339 . S
Eu450 O498 2.563 . S
Eu450 O499 2.419 . S
Eu450 O501 2.380 . S
Eu450 O502 2.432 . S
Eu450 C514 2.848 . S
C451 C454 1.429 . S
C451 C455 1.411 . S
C451 N458 1.377 . S
C452 C454 1.420 . S
C452 C456 1.423 . S
C452 C464 1.392 . S
C453 C455 1.420 . S
C453 C456 1.351 . S
C453 H476 0.931 . S
C454 C451 1.429 . S
C454 C452 1.420 . S
C454 N462 1.362 . S
C455 C451 1.411 . S
C455 C453 1.420 . S
C455 C460 1.395 . S
C456 C452 1.423 . S
C456 C453 1.351 . S
C456 H468 0.930 . S
C457 C459 1.400 . S
C457 C460 1.386 . S
C457 H469 0.930 . S
N458 C451 1.377 . S
N458 C459 1.321 . S
N458 Eu461 2.609 . S
C459 C457 1.400 . S
C459 N458 1.321 . S
C459 H466 0.930 . S
C460 C455 1.395 . S
C460 C457 1.386 . S
C460 H479 0.930 . S
Eu461 N458 2.609 . S
Eu461 N462 2.657 . S
Eu461 O495 2.380 . S
Eu461 O496 2.432 . S
Eu461 O500 2.558 . S
Eu461 O501 2.612 . S
Eu461 O503 2.339 . S
Eu461 O504 2.563 . S
Eu461 O505 2.419 . S
Eu461 C525 2.848 . S
N462 C454 1.362 . S
N462 Eu461 2.657 . S
N462 C463 1.334 . S
C463 N462 1.334 . S
C463 C465 1.413 . S
C463 H470 0.929 . S
C464 C452 1.392 . S
C464 C465 1.367 . S
C464 H472 0.930 . S
C465 C463 1.413 . S
C465 C464 1.367 . S
C465 H467 0.930 . S
H466 C459 0.930 . S
H467 C465 0.930 . S
H468 C456 0.930 . S
H469 C457 0.930 . S
H470 C463 0.929 . S
H471 C485 0.930 . S
H472 C464 0.930 . S
H473 C491 0.930 . S
H474 C482 0.929 . S
H475 C489 0.930 . S
H476 C453 0.931 . S
H477 C483 0.930 . S
H478 C516 0.930 . S
H479 C460 0.930 . S
H480 C515 0.931 . S
N481 Eu450 2.657 . S
N481 C482 1.334 . S
N481 C486 1.362 . S
C482 H474 0.929 . S
C482 N481 1.334 . S
C482 C485 1.413 . S
C483 H477 0.930 . S
C483 C484 1.392 . S
C483 C485 1.367 . S
C484 C483 1.392 . S
C484 C486 1.420 . S
C484 C516 1.423 . S
C485 H471 0.930 . S
C485 C482 1.413 . S
C485 C483 1.367 . S
C486 N481 1.362 . S
C486 C484 1.420 . S
C486 C490 1.429 . S
H487 C492 0.930 . S
N488 Eu450 2.609 . S
N488 C490 1.377 . S
N488 C491 1.321 . S
C489 H475 0.930 . S
C489 C491 1.400 . S
C489 C492 1.386 . S
C490 C486 1.429 . S
C490 N488 1.377 . S
C490 C493 1.411 . S
C491 H473 0.930 . S
C491 N488 1.321 . S
C491 C489 1.400 . S
C492 H487 0.930 . S
C492 C489 1.386 . S
C492 C493 1.395 . S
C493 C490 1.411 . S
C493 C492 1.395 . S
C493 C515 1.420 . S
O494 Eu450 2.558 . S
O494 C514 1.257 . S
O495 Eu450 2.612 . S
O495 Eu461 2.380 . S
O495 C506 1.276 . S
O496 Eu461 2.432 . S
O496 C513 1.264 . S
O497 Eu450 2.339 . S
O497 C513 1.254 . S
O498 Eu450 2.563 . S
O498 C506 1.235 . S
O499 Eu450 2.419 . S
O499 C514 1.249 . S
O500 Eu461 2.558 . S
O500 C525 1.257 . S
O501 Eu450 2.380 . S
O501 Eu461 2.612 . S
O501 C517 1.276 . S
O502 Eu450 2.432 . S
O502 C524 1.264 . S
O503 Eu461 2.339 . S
O503 C524 1.254 . S
O504 Eu461 2.563 . S
O504 C517 1.235 . S
O505 Eu461 2.419 . S
O505 C525 1.249 . S
C506 O495 1.276 . S
C506 O498 1.235 . S
C507 C509 1.393 . S
C507 C511 1.395 . S
C507 C514 1.492 . S
C508 C509 1.392 . S
C508 C510 1.386 . S
C509 C507 1.393 . S
C509 C508 1.392 . S
C509 H526 0.930 . S
C510 C508 1.386 . S
C510 C512 1.395 . S
C510 H527 0.930 . S
C511 C507 1.395 . S
C511 C512 1.379 . S
C511 H528 0.930 . S
C512 C510 1.395 . S
C512 C511 1.379 . S
C512 H529 0.930 . S
C513 O496 1.264 . S
C513 O497 1.254 . S
C514 Eu450 2.848 . S
C514 O494 1.257 . S
C514 O499 1.249 . S
C514 C507 1.492 . S
C515 H480 0.931 . S
C515 C493 1.420 . S
C515 C516 1.351 . S
C516 H478 0.930 . S
C516 C484 1.423 . S
C516 C515 1.351 . S
C517 O501 1.276 . S
C517 O504 1.235 . S
C518 C519 1.393 . S
C518 C522 1.395 . S
C518 C525 1.492 . S
C519 C518 1.393 . S
C519 C520 1.392 . S
C519 H530 0.930 . S
C520 C519 1.392 . S
C520 C521 1.386 . S
C521 C520 1.386 . S
C521 C523 1.395 . S
C521 H531 0.930 . S
C522 C518 1.395 . S
C522 C523 1.379 . S
C522 H532 0.930 . S
C523 C521 1.395 . S
C523 C522 1.379 . S
C523 H533 0.930 . S
C524 O502 1.264 . S
C524 O503 1.254 . S
C525 Eu461 2.848 . S
C525 O500 1.257 . S
C525 O505 1.249 . S
C525 C518 1.492 . S
H526 C509 0.930 . S
H527 C510 0.930 . S
H528 C511 0.930 . S
H529 C512 0.930 . S
H530 C519 0.930 . S
H531 C521 0.930 . S
H532 C522 0.930 . S
H533 C523 0.930 . S
Eu534 N565 2.657 . S
Eu534 N572 2.609 . S
Eu534 O578 2.558 . S
Eu534 O579 2.612 . S
Eu534 O581 2.339 . S
Eu534 O582 2.563 . S
Eu534 O583 2.419 . S
Eu534 O585 2.380 . S
Eu534 O586 2.432 . S
Eu534 C598 2.848 . S
C535 C538 1.429 . S
C535 C539 1.411 . S
C535 N542 1.377 . S
C536 C538 1.420 . S
C536 C540 1.423 . S
C536 C548 1.392 . S
C537 C539 1.420 . S
C537 C540 1.351 . S
C537 H560 0.931 . S
C538 C535 1.429 . S
C538 C536 1.420 . S
C538 N546 1.362 . S
C539 C535 1.411 . S
C539 C537 1.420 . S
C539 C544 1.395 . S
C540 C536 1.423 . S
C540 C537 1.351 . S
C540 H552 0.930 . S
C541 C543 1.400 . S
C541 C544 1.386 . S
C541 H553 0.930 . S
N542 C535 1.377 . S
N542 C543 1.321 . S
N542 Eu545 2.609 . S
C543 C541 1.400 . S
C543 N542 1.321 . S
C543 H550 0.930 . S
C544 C539 1.395 . S
C544 C541 1.386 . S
C544 H563 0.930 . S
Eu545 N542 2.609 . S
Eu545 N546 2.657 . S
Eu545 O579 2.380 . S
Eu545 O580 2.432 . S
Eu545 O584 2.558 . S
Eu545 O585 2.612 . S
Eu545 O587 2.339 . S
Eu545 O588 2.563 . S
Eu545 O589 2.419 . S
Eu545 C609 2.848 . S
N546 C538 1.362 . S
N546 Eu545 2.657 . S
N546 C547 1.334 . S
C547 N546 1.334 . S
C547 C549 1.413 . S
C547 H554 0.929 . S
C548 C536 1.392 . S
C548 C549 1.367 . S
C548 H556 0.930 . S
C549 C547 1.413 . S
C549 C548 1.367 . S
C549 H551 0.930 . S
H550 C543 0.930 . S
H551 C549 0.930 . S
H552 C540 0.930 . S
H553 C541 0.930 . S
H554 C547 0.929 . S
H555 C569 0.930 . S
H556 C548 0.930 . S
H557 C575 0.930 . S
H558 C566 0.929 . S
H559 C573 0.930 . S
H560 C537 0.931 . S
H561 C567 0.930 . S
H562 C600 0.930 . S
H563 C544 0.930 . S
H564 C599 0.931 . S
N565 Eu534 2.657 . S
N565 C566 1.334 . S
N565 C570 1.362 . S
C566 H558 0.929 . S
C566 N565 1.334 . S
C566 C569 1.413 . S
C567 H561 0.930 . S
C567 C568 1.392 . S
C567 C569 1.367 . S
C568 C567 1.392 . S
C568 C570 1.420 . S
C568 C600 1.423 . S
C569 H555 0.930 . S
C569 C566 1.413 . S
C569 C567 1.367 . S
C570 N565 1.362 . S
C570 C568 1.420 . S
C570 C574 1.429 . S
H571 C576 0.930 . S
N572 Eu534 2.609 . S
N572 C574 1.377 . S
N572 C575 1.321 . S
C573 H559 0.930 . S
C573 C575 1.400 . S
C573 C576 1.386 . S
C574 C570 1.429 . S
C574 N572 1.377 . S
C574 C577 1.411 . S
C575 H557 0.930 . S
C575 N572 1.321 . S
C575 C573 1.400 . S
C576 H571 0.930 . S
C576 C573 1.386 . S
C576 C577 1.395 . S
C577 C574 1.411 . S
C577 C576 1.395 . S
C577 C599 1.420 . S
O578 Eu534 2.558 . S
O578 C598 1.257 . S
O579 Eu534 2.612 . S
O579 Eu545 2.380 . S
O579 C590 1.276 . S
O580 Eu545 2.432 . S
O580 C597 1.264 . S
O581 Eu534 2.339 . S
O581 C597 1.254 . S
O582 Eu534 2.563 . S
O582 C590 1.235 . S
O583 Eu534 2.419 . S
O583 C598 1.249 . S
O584 Eu545 2.558 . S
O584 C609 1.257 . S
O585 Eu534 2.380 . S
O585 Eu545 2.612 . S
O585 C601 1.276 . S
O586 Eu534 2.432 . S
O586 C608 1.264 . S
O587 Eu545 2.339 . S
O587 C608 1.254 . S
O588 Eu545 2.563 . S
O588 C601 1.235 . S
O589 Eu545 2.419 . S
O589 C609 1.249 . S
C590 O579 1.276 . S
C590 O582 1.235 . S
C591 C593 1.393 . S
C591 C595 1.395 . S
C591 C598 1.492 . S
C592 C593 1.392 . S
C592 C594 1.386 . S
C593 C591 1.393 . S
C593 C592 1.392 . S
C593 H610 0.930 . S
C594 C592 1.386 . S
C594 C596 1.395 . S
C594 H611 0.930 . S
C595 C591 1.395 . S
C595 C596 1.379 . S
C595 H612 0.930 . S
C596 C594 1.395 . S
C596 C595 1.379 . S
C596 H613 0.930 . S
C597 O580 1.264 . S
C597 O581 1.254 . S
C598 Eu534 2.848 . S
C598 O578 1.257 . S
C598 O583 1.249 . S
C598 C591 1.492 . S
C599 H564 0.931 . S
C599 C577 1.420 . S
C599 C600 1.351 . S
C600 H562 0.930 . S
C600 C568 1.423 . S
C600 C599 1.351 . S
C601 O585 1.276 . S
C601 O588 1.235 . S
C602 C603 1.393 . S
C602 C606 1.395 . S
C602 C609 1.492 . S
C603 C602 1.393 . S
C603 C604 1.392 . S
C603 H614 0.930 . S
C604 C603 1.392 . S
C604 C605 1.386 . S
C605 C604 1.386 . S
C605 C607 1.395 . S
C605 H615 0.930 . S
C606 C602 1.395 . S
C606 C607 1.379 . S
C606 H616 0.930 . S
C607 C605 1.395 . S
C607 C606 1.379 . S
C607 H617 0.930 . S
C608 O586 1.264 . S
C608 O587 1.254 . S
C609 Eu545 2.848 . S
C609 O584 1.257 . S
C609 O589 1.249 . S
C609 C602 1.492 . S
H610 C593 0.930 . S
H611 C594 0.930 . S
H612 C595 0.930 . S
H613 C596 0.930 . S
H614 C603 0.930 . S
H615 C605 0.930 . S
H616 C606 0.930 . S
H617 C607 0.930 . S
Eu618 N649 2.657 . S
Eu618 N656 2.609 . S
Eu618 O662 2.558 . S
Eu618 O663 2.612 . S
Eu618 O665 2.339 . S
Eu618 O666 2.563 . S
Eu618 O667 2.419 . S
Eu618 O669 2.380 . S
Eu618 O670 2.432 . S
Eu618 C682 2.848 . S
C619 C622 1.429 . S
C619 C623 1.411 . S
C619 N626 1.377 . S
C620 C622 1.420 . S
C620 C624 1.423 . S
C620 C632 1.392 . S
C621 C623 1.420 . S
C621 C624 1.351 . S
C621 H644 0.931 . S
C622 C619 1.429 . S
C622 C620 1.420 . S
C622 N630 1.362 . S
C623 C619 1.411 . S
C623 C621 1.420 . S
C623 C628 1.395 . S
C624 C620 1.423 . S
C624 C621 1.351 . S
C624 H636 0.930 . S
C625 C627 1.400 . S
C625 C628 1.386 . S
C625 H637 0.930 . S
N626 C619 1.377 . S
N626 C627 1.321 . S
N626 Eu629 2.609 . S
C627 C625 1.400 . S
C627 N626 1.321 . S
C627 H634 0.930 . S
C628 C623 1.395 . S
C628 C625 1.386 . S
C628 H647 0.930 . S
Eu629 N626 2.609 . S
Eu629 N630 2.657 . S
Eu629 O663 2.380 . S
Eu629 O664 2.432 . S
Eu629 O668 2.558 . S
Eu629 O669 2.612 . S
Eu629 O671 2.339 . S
Eu629 O672 2.563 . S
Eu629 O673 2.419 . S
Eu629 C693 2.848 . S
N630 C622 1.362 . S
N630 Eu629 2.657 . S
N630 C631 1.334 . S
C631 N630 1.334 . S
C631 C633 1.413 . S
C631 H638 0.929 . S
C632 C620 1.392 . S
C632 C633 1.367 . S
C632 H640 0.930 . S
C633 C631 1.413 . S
C633 C632 1.367 . S
C633 H635 0.930 . S
H634 C627 0.930 . S
H635 C633 0.930 . S
H636 C624 0.930 . S
H637 C625 0.930 . S
H638 C631 0.929 . S
H639 C653 0.930 . S
H640 C632 0.930 . S
H641 C659 0.930 . S
H642 C650 0.929 . S
H643 C657 0.930 . S
H644 C621 0.931 . S
H645 C651 0.930 . S
H646 C684 0.930 . S
H647 C628 0.930 . S
H648 C683 0.931 . S
N649 Eu618 2.657 . S
N649 C650 1.334 . S
N649 C654 1.362 . S
C650 H642 0.929 . S
C650 N649 1.334 . S
C650 C653 1.413 . S
C651 H645 0.930 . S
C651 C652 1.392 . S
C651 C653 1.367 . S
C652 C651 1.392 . S
C652 C654 1.420 . S
C652 C684 1.423 . S
C653 H639 0.930 . S
C653 C650 1.413 . S
C653 C651 1.367 . S
C654 N649 1.362 . S
C654 C652 1.420 . S
C654 C658 1.429 . S
H655 C660 0.930 . S
N656 Eu618 2.609 . S
N656 C658 1.377 . S
N656 C659 1.321 . S
C657 H643 0.930 . S
C657 C659 1.400 . S
C657 C660 1.386 . S
C658 C654 1.429 . S
C658 N656 1.377 . S
C658 C661 1.411 . S
C659 H641 0.930 . S
C659 N656 1.321 . S
C659 C657 1.400 . S
C660 H655 0.930 . S
C660 C657 1.386 . S
C660 C661 1.395 . S
C661 C658 1.411 . S
C661 C660 1.395 . S
C661 C683 1.420 . S
O662 Eu618 2.558 . S
O662 C682 1.257 . S
O663 Eu618 2.612 . S
O663 Eu629 2.380 . S
O663 C674 1.276 . S
O664 Eu629 2.432 . S
O664 C681 1.264 . S
O665 Eu618 2.339 . S
O665 C681 1.254 . S
O666 Eu618 2.563 . S
O666 C674 1.235 . S
O667 Eu618 2.419 . S
O667 C682 1.249 . S
O668 Eu629 2.558 . S
O668 C693 1.257 . S
O669 Eu618 2.380 . S
O669 Eu629 2.612 . S
O669 C685 1.276 . S
O670 Eu618 2.432 . S
O670 C692 1.264 . S
O671 Eu629 2.339 . S
O671 C692 1.254 . S
O672 Eu629 2.563 . S
O672 C685 1.235 . S
O673 Eu629 2.419 . S
O673 C693 1.249 . S
C674 O663 1.276 . S
C674 O666 1.235 . S
C675 C677 1.393 . S
C675 C679 1.395 . S
C675 C682 1.492 . S
C676 C677 1.392 . S
C676 C678 1.386 . S
C677 C675 1.393 . S
C677 C676 1.392 . S
C677 H694 0.930 . S
C678 C676 1.386 . S
C678 C680 1.395 . S
C678 H695 0.930 . S
C679 C675 1.395 . S
C679 C680 1.379 . S
C679 H696 0.930 . S
C680 C678 1.395 . S
C680 C679 1.379 . S
C680 H697 0.930 . S
C681 O664 1.264 . S
C681 O665 1.254 . S
C682 Eu618 2.848 . S
C682 O662 1.257 . S
C682 O667 1.249 . S
C682 C675 1.492 . S
C683 H648 0.931 . S
C683 C661 1.420 . S
C683 C684 1.351 . S
C684 H646 0.930 . S
C684 C652 1.423 . S
C684 C683 1.351 . S
C685 O669 1.276 . S
C685 O672 1.235 . S
C686 C687 1.393 . S
C686 C690 1.395 . S
C686 C693 1.492 . S
C687 C686 1.393 . S
C687 C688 1.392 . S
C687 H698 0.930 . S
C688 C687 1.392 . S
C688 C689 1.386 . S
C689 C688 1.386 . S
C689 C691 1.395 . S
C689 H699 0.930 . S
C690 C686 1.395 . S
C690 C691 1.379 . S
C690 H700 0.930 . S
C691 C689 1.395 . S
C691 C690 1.379 . S
C691 H701 0.930 . S
C692 O670 1.264 . S
C692 O671 1.254 . S
C693 Eu629 2.848 . S
C693 O668 1.257 . S
C693 O673 1.249 . S
C693 C686 1.492 . S
H694 C677 0.930 . S
H695 C678 0.930 . S
H696 C679 0.930 . S
H697 C680 0.930 . S
H698 C687 0.930 . S
H699 C689 0.930 . S
H700 C690 0.930 . S
H701 C691 0.930 . S
Eu702 N733 2.657 . S
Eu702 N740 2.609 . S
Eu702 O746 2.558 . S
Eu702 O747 2.612 . S
Eu702 O749 2.339 . S
Eu702 O750 2.563 . S
Eu702 O751 2.419 . S
Eu702 O753 2.380 . S
Eu702 O754 2.432 . S
Eu702 C766 2.848 . S
C703 C706 1.429 . S
C703 C707 1.411 . S
C703 N710 1.377 . S
C704 C706 1.420 . S
C704 C708 1.423 . S
C704 C716 1.392 . S
C705 C707 1.420 . S
C705 C708 1.351 . S
C705 H728 0.931 . S
C706 C703 1.429 . S
C706 C704 1.420 . S
C706 N714 1.362 . S
C707 C703 1.411 . S
C707 C705 1.420 . S
C707 C712 1.395 . S
C708 C704 1.423 . S
C708 C705 1.351 . S
C708 H720 0.930 . S
C709 C711 1.400 . S
C709 C712 1.386 . S
C709 H721 0.930 . S
N710 C703 1.377 . S
N710 C711 1.321 . S
N710 Eu713 2.609 . S
C711 C709 1.400 . S
C711 N710 1.321 . S
C711 H718 0.930 . S
C712 C707 1.395 . S
C712 C709 1.386 . S
C712 H731 0.930 . S
Eu713 N710 2.609 . S
Eu713 N714 2.657 . S
Eu713 O747 2.380 . S
Eu713 O748 2.432 . S
Eu713 O752 2.558 . S
Eu713 O753 2.612 . S
Eu713 O755 2.339 . S
Eu713 O756 2.563 . S
Eu713 O757 2.419 . S
Eu713 C777 2.848 . S
N714 C706 1.362 . S
N714 Eu713 2.657 . S
N714 C715 1.334 . S
C715 N714 1.334 . S
C715 C717 1.413 . S
C715 H722 0.929 . S
C716 C704 1.392 . S
C716 C717 1.367 . S
C716 H724 0.930 . S
C717 C715 1.413 . S
C717 C716 1.367 . S
C717 H719 0.930 . S
H718 C711 0.930 . S
H719 C717 0.930 . S
H720 C708 0.930 . S
H721 C709 0.930 . S
H722 C715 0.929 . S
H723 C737 0.930 . S
H724 C716 0.930 . S
H725 C743 0.930 . S
H726 C734 0.929 . S
H727 C741 0.930 . S
H728 C705 0.931 . S
H729 C735 0.930 . S
H730 C768 0.930 . S
H731 C712 0.930 . S
H732 C767 0.931 . S
N733 Eu702 2.657 . S
N733 C734 1.334 . S
N733 C738 1.362 . S
C734 H726 0.929 . S
C734 N733 1.334 . S
C734 C737 1.413 . S
C735 H729 0.930 . S
C735 C736 1.392 . S
C735 C737 1.367 . S
C736 C735 1.392 . S
C736 C738 1.420 . S
C736 C768 1.423 . S
C737 H723 0.930 . S
C737 C734 1.413 . S
C737 C735 1.367 . S
C738 N733 1.362 . S
C738 C736 1.420 . S
C738 C742 1.429 . S
H739 C744 0.930 . S
N740 Eu702 2.609 . S
N740 C742 1.377 . S
N740 C743 1.321 . S
C741 H727 0.930 . S
C741 C743 1.400 . S
C741 C744 1.386 . S
C742 C738 1.429 . S
C742 N740 1.377 . S
C742 C745 1.411 . S
C743 H725 0.930 . S
C743 N740 1.321 . S
C743 C741 1.400 . S
C744 H739 0.930 . S
C744 C741 1.386 . S
C744 C745 1.395 . S
C745 C742 1.411 . S
C745 C744 1.395 . S
C745 C767 1.420 . S
O746 Eu702 2.558 . S
O746 C766 1.257 . S
O747 Eu702 2.612 . S
O747 Eu713 2.380 . S
O747 C758 1.276 . S
O748 Eu713 2.432 . S
O748 C765 1.264 . S
O749 Eu702 2.339 . S
O749 C765 1.254 . S
O750 Eu702 2.563 . S
O750 C758 1.235 . S
O751 Eu702 2.419 . S
O751 C766 1.249 . S
O752 Eu713 2.558 . S
O752 C777 1.257 . S
O753 Eu702 2.380 . S
O753 Eu713 2.612 . S
O753 C769 1.276 . S
O754 Eu702 2.432 . S
O754 C776 1.264 . S
O755 Eu713 2.339 . S
O755 C776 1.254 . S
O756 Eu713 2.563 . S
O756 C769 1.235 . S
O757 Eu713 2.419 . S
O757 C777 1.249 . S
C758 O747 1.276 . S
C758 O750 1.235 . S
C759 C761 1.393 . S
C759 C763 1.395 . S
C759 C766 1.492 . S
C760 C761 1.392 . S
C760 C762 1.386 . S
C761 C759 1.393 . S
C761 C760 1.392 . S
C761 H778 0.930 . S
C762 C760 1.386 . S
C762 C764 1.395 . S
C762 H779 0.930 . S
C763 C759 1.395 . S
C763 C764 1.379 . S
C763 H780 0.930 . S
C764 C762 1.395 . S
C764 C763 1.379 . S
C764 H781 0.930 . S
C765 O748 1.264 . S
C765 O749 1.254 . S
C766 Eu702 2.848 . S
C766 O746 1.257 . S
C766 O751 1.249 . S
C766 C759 1.492 . S
C767 H732 0.931 . S
C767 C745 1.420 . S
C767 C768 1.351 . S
C768 H730 0.930 . S
C768 C736 1.423 . S
C768 C767 1.351 . S
C769 O753 1.276 . S
C769 O756 1.235 . S
C770 C771 1.393 . S
C770 C774 1.395 . S
C770 C777 1.492 . S
C771 C770 1.393 . S
C771 C772 1.392 . S
C771 H782 0.930 . S
C772 C771 1.392 . S
C772 C773 1.386 . S
C773 C772 1.386 . S
C773 C775 1.395 . S
C773 H783 0.930 . S
C774 C770 1.395 . S
C774 C775 1.379 . S
C774 H784 0.930 . S
C775 C773 1.395 . S
C775 C774 1.379 . S
C775 H785 0.930 . S
C776 O754 1.264 . S
C776 O755 1.254 . S
C777 Eu713 2.848 . S
C777 O752 1.257 . S
C777 O757 1.249 . S
C777 C770 1.492 . S
H778 C761 0.930 . S
H779 C762 0.930 . S
H780 C763 0.930 . S
H781 C764 0.930 . S
H782 C771 0.930 . S
H783 C773 0.930 . S
H784 C774 0.930 . S
H785 C775 0.930 . S
Eu786 N817 2.657 . S
Eu786 N824 2.609 . S
Eu786 O830 2.558 . S
Eu786 O831 2.612 . S
Eu786 O833 2.339 . S
Eu786 O834 2.563 . S
Eu786 O835 2.419 . S
Eu786 O837 2.380 . S
Eu786 O838 2.432 . S
Eu786 C850 2.848 . S
C787 C790 1.429 . S
C787 C791 1.411 . S
C787 N794 1.377 . S
C788 C790 1.420 . S
C788 C792 1.423 . S
C788 C800 1.392 . S
C789 C791 1.420 . S
C789 C792 1.351 . S
C789 H812 0.931 . S
C790 C787 1.429 . S
C790 C788 1.420 . S
C790 N798 1.362 . S
C791 C787 1.411 . S
C791 C789 1.420 . S
C791 C796 1.395 . S
C792 C788 1.423 . S
C792 C789 1.351 . S
C792 H804 0.930 . S
C793 C795 1.400 . S
C793 C796 1.386 . S
C793 H805 0.930 . S
N794 C787 1.377 . S
N794 C795 1.321 . S
N794 Eu797 2.609 . S
C795 C793 1.400 . S
C795 N794 1.321 . S
C795 H802 0.930 . S
C796 C791 1.395 . S
C796 C793 1.386 . S
C796 H815 0.930 . S
Eu797 N794 2.609 . S
Eu797 N798 2.657 . S
Eu797 O831 2.380 . S
Eu797 O832 2.432 . S
Eu797 O836 2.558 . S
Eu797 O837 2.612 . S
Eu797 O839 2.339 . S
Eu797 O840 2.563 . S
Eu797 O841 2.419 . S
Eu797 C861 2.848 . S
N798 C790 1.362 . S
N798 Eu797 2.657 . S
N798 C799 1.334 . S
C799 N798 1.334 . S
C799 C801 1.413 . S
C799 H806 0.929 . S
C800 C788 1.392 . S
C800 C801 1.367 . S
C800 H808 0.930 . S
C801 C799 1.413 . S
C801 C800 1.367 . S
C801 H803 0.930 . S
H802 C795 0.930 . S
H803 C801 0.930 . S
H804 C792 0.930 . S
H805 C793 0.930 . S
H806 C799 0.929 . S
H807 C821 0.930 . S
H808 C800 0.930 . S
H809 C827 0.930 . S
H810 C818 0.929 . S
H811 C825 0.930 . S
H812 C789 0.931 . S
H813 C819 0.930 . S
H814 C852 0.930 . S
H815 C796 0.930 . S
H816 C851 0.931 . S
N817 Eu786 2.657 . S
N817 C818 1.334 . S
N817 C822 1.362 . S
C818 H810 0.929 . S
C818 N817 1.334 . S
C818 C821 1.413 . S
C819 H813 0.930 . S
C819 C820 1.392 . S
C819 C821 1.367 . S
C820 C819 1.392 . S
C820 C822 1.420 . S
C820 C852 1.423 . S
C821 H807 0.930 . S
C821 C818 1.413 . S
C821 C819 1.367 . S
C822 N817 1.362 . S
C822 C820 1.420 . S
C822 C826 1.429 . S
H823 C828 0.930 . S
N824 Eu786 2.609 . S
N824 C826 1.377 . S
N824 C827 1.321 . S
C825 H811 0.930 . S
C825 C827 1.400 . S
C825 C828 1.386 . S
C826 C822 1.429 . S
C826 N824 1.377 . S
C826 C829 1.411 . S
C827 H809 0.930 . S
C827 N824 1.321 . S
C827 C825 1.400 . S
C828 H823 0.930 . S
C828 C825 1.386 . S
C828 C829 1.395 . S
C829 C826 1.411 . S
C829 C828 1.395 . S
C829 C851 1.420 . S
O830 Eu786 2.558 . S
O830 C850 1.257 . S
O831 Eu786 2.612 . S
O831 Eu797 2.380 . S
O831 C842 1.276 . S
O832 Eu797 2.432 . S
O832 C849 1.264 . S
O833 Eu786 2.339 . S
O833 C849 1.254 . S
O834 Eu786 2.563 . S
O834 C842 1.235 . S
O835 Eu786 2.419 . S
O835 C850 1.249 . S
O836 Eu797 2.558 . S
O836 C861 1.257 . S
O837 Eu786 2.380 . S
O837 Eu797 2.612 . S
O837 C853 1.276 . S
O838 Eu786 2.432 . S
O838 C860 1.264 . S
O839 Eu797 2.339 . S
O839 C860 1.254 . S
O840 Eu797 2.563 . S
O840 C853 1.235 . S
O841 Eu797 2.419 . S
O841 C861 1.249 . S
C842 O831 1.276 . S
C842 O834 1.235 . S
C843 C845 1.393 . S
C843 C847 1.395 . S
C843 C850 1.492 . S
C844 C845 1.392 . S
C844 C846 1.386 . S
C845 C843 1.393 . S
C845 C844 1.392 . S
C845 H862 0.930 . S
C846 C844 1.386 . S
C846 C848 1.395 . S
C846 H863 0.930 . S
C847 C843 1.395 . S
C847 C848 1.379 . S
C847 H864 0.930 . S
C848 C846 1.395 . S
C848 C847 1.379 . S
C848 H865 0.930 . S
C849 O832 1.264 . S
C849 O833 1.254 . S
C850 Eu786 2.848 . S
C850 O830 1.257 . S
C850 O835 1.249 . S
C850 C843 1.492 . S
C851 H816 0.931 . S
C851 C829 1.420 . S
C851 C852 1.351 . S
C852 H814 0.930 . S
C852 C820 1.423 . S
C852 C851 1.351 . S
C853 O837 1.276 . S
C853 O840 1.235 . S
C854 C855 1.393 . S
C854 C858 1.395 . S
C854 C861 1.492 . S
C855 C854 1.393 . S
C855 C856 1.392 . S
C855 H866 0.930 . S
C856 C855 1.392 . S
C856 C857 1.386 . S
C857 C856 1.386 . S
C857 C859 1.395 . S
C857 H867 0.930 . S
C858 C854 1.395 . S
C858 C859 1.379 . S
C858 H868 0.930 . S
C859 C857 1.395 . S
C859 C858 1.379 . S
C859 H869 0.930 . S
C860 O838 1.264 . S
C860 O839 1.254 . S
C861 Eu797 2.848 . S
C861 O836 1.257 . S
C861 O841 1.249 . S
C861 C854 1.492 . S
H862 C845 0.930 . S
H863 C846 0.930 . S
H864 C847 0.930 . S
H865 C848 0.930 . S
H866 C855 0.930 . S
H867 C857 0.930 . S
H868 C858 0.930 . S
H869 C859 0.930 . S
Eu870 N901 2.657 . S
Eu870 N908 2.609 . S
Eu870 O914 2.558 . S
Eu870 O915 2.612 . S
Eu870 O917 2.339 . S
Eu870 O918 2.563 . S
Eu870 O919 2.419 . S
Eu870 O921 2.380 . S
Eu870 O922 2.432 . S
Eu870 C934 2.848 . S
C871 C874 1.429 . S
C871 C875 1.411 . S
C871 N878 1.377 . S
C872 C874 1.420 . S
C872 C876 1.423 . S
C872 C884 1.392 . S
C873 C875 1.420 . S
C873 C876 1.351 . S
C873 H896 0.931 . S
C874 C871 1.429 . S
C874 C872 1.420 . S
C874 N882 1.362 . S
C875 C871 1.411 . S
C875 C873 1.420 . S
C875 C880 1.395 . S
C876 C872 1.423 . S
C876 C873 1.351 . S
C876 H888 0.930 . S
C877 C879 1.400 . S
C877 C880 1.386 . S
C877 H889 0.930 . S
N878 C871 1.377 . S
N878 C879 1.321 . S
N878 Eu881 2.609 . S
C879 C877 1.400 . S
C879 N878 1.321 . S
C879 H886 0.930 . S
C880 C875 1.395 . S
C880 C877 1.386 . S
C880 H899 0.930 . S
Eu881 N878 2.609 . S
Eu881 N882 2.657 . S
Eu881 O915 2.380 . S
Eu881 O916 2.432 . S
Eu881 O920 2.558 . S
Eu881 O921 2.612 . S
Eu881 O923 2.339 . S
Eu881 O924 2.563 . S
Eu881 O925 2.419 . S
Eu881 C945 2.848 . S
N882 C874 1.362 . S
N882 Eu881 2.657 . S
N882 C883 1.334 . S
C883 N882 1.334 . S
C883 C885 1.413 . S
C883 H890 0.929 . S
C884 C872 1.392 . S
C884 C885 1.367 . S
C884 H892 0.930 . S
C885 C883 1.413 . S
C885 C884 1.367 . S
C885 H887 0.930 . S
H886 C879 0.930 . S
H887 C885 0.930 . S
H888 C876 0.930 . S
H889 C877 0.930 . S
H890 C883 0.929 . S
H891 C905 0.930 . S
H892 C884 0.930 . S
H893 C911 0.930 . S
H894 C902 0.929 . S
H895 C909 0.930 . S
H896 C873 0.931 . S
H897 C903 0.930 . S
H898 C936 0.930 . S
H899 C880 0.930 . S
H900 C935 0.931 . S
N901 Eu870 2.657 . S
N901 C902 1.334 . S
N901 C906 1.362 . S
C902 H894 0.929 . S
C902 N901 1.334 . S
C902 C905 1.413 . S
C903 H897 0.930 . S
C903 C904 1.392 . S
C903 C905 1.367 . S
C904 C903 1.392 . S
C904 C906 1.420 . S
C904 C936 1.423 . S
C905 H891 0.930 . S
C905 C902 1.413 . S
C905 C903 1.367 . S
C906 N901 1.362 . S
C906 C904 1.420 . S
C906 C910 1.429 . S
H907 C912 0.930 . S
N908 Eu870 2.609 . S
N908 C910 1.377 . S
N908 C911 1.321 . S
C909 H895 0.930 . S
C909 C911 1.400 . S
C909 C912 1.386 . S
C910 C906 1.429 . S
C910 N908 1.377 . S
C910 C913 1.411 . S
C911 H893 0.930 . S
C911 N908 1.321 . S
C911 C909 1.400 . S
C912 H907 0.930 . S
C912 C909 1.386 . S
C912 C913 1.395 . S
C913 C910 1.411 . S
C913 C912 1.395 . S
C913 C935 1.420 . S
O914 Eu870 2.558 . S
O914 C934 1.257 . S
O915 Eu870 2.612 . S
O915 Eu881 2.380 . S
O915 C926 1.276 . S
O916 Eu881 2.432 . S
O916 C933 1.264 . S
O917 Eu870 2.339 . S
O917 C933 1.254 . S
O918 Eu870 2.563 . S
O918 C926 1.235 . S
O919 Eu870 2.419 . S
O919 C934 1.249 . S
O920 Eu881 2.558 . S
O920 C945 1.257 . S
O921 Eu870 2.380 . S
O921 Eu881 2.612 . S
O921 C937 1.276 . S
O922 Eu870 2.432 . S
O922 C944 1.264 . S
O923 Eu881 2.339 . S
O923 C944 1.254 . S
O924 Eu881 2.563 . S
O924 C937 1.235 . S
O925 Eu881 2.419 . S
O925 C945 1.249 . S
C926 O915 1.276 . S
C926 O918 1.235 . S
C927 C929 1.393 . S
C927 C931 1.395 . S
C927 C934 1.492 . S
C928 C929 1.392 . S
C928 C930 1.386 . S
C929 C927 1.393 . S
C929 C928 1.392 . S
C929 H946 0.930 . S
C930 C928 1.386 . S
C930 C932 1.395 . S
C930 H947 0.930 . S
C931 C927 1.395 . S
C931 C932 1.379 . S
C931 H948 0.930 . S
C932 C930 1.395 . S
C932 C931 1.379 . S
C932 H949 0.930 . S
C933 O916 1.264 . S
C933 O917 1.254 . S
C934 Eu870 2.848 . S
C934 O914 1.257 . S
C934 O919 1.249 . S
C934 C927 1.492 . S
C935 H900 0.931 . S
C935 C913 1.420 . S
C935 C936 1.351 . S
C936 H898 0.930 . S
C936 C904 1.423 . S
C936 C935 1.351 . S
C937 O921 1.276 . S
C937 O924 1.235 . S
C938 C939 1.393 . S
C938 C942 1.395 . S
C938 C945 1.492 . S
C939 C938 1.393 . S
C939 C940 1.392 . S
C939 H950 0.930 . S
C940 C939 1.392 . S
C940 C941 1.386 . S
C941 C940 1.386 . S
C941 C943 1.395 . S
C941 H951 0.930 . S
C942 C938 1.395 . S
C942 C943 1.379 . S
C942 H952 0.930 . S
C943 C941 1.395 . S
C943 C942 1.379 . S
C943 H953 0.930 . S
C944 O922 1.264 . S
C944 O923 1.254 . S
C945 Eu881 2.848 . S
C945 O920 1.257 . S
C945 O925 1.249 . S
C945 C938 1.492 . S
H946 C929 0.930 . S
H947 C930 0.930 . S
H948 C931 0.930 . S
H949 C932 0.930 . S
H950 C939 0.930 . S
H951 C941 0.930 . S
H952 C942 0.930 . S
H953 C943 0.930 . S
C954 C955 1.349 . S
C954 C956 1.327 . S
C954 H979 0.950 . S
C955 C954 1.349 . S
C955 C971 1.349 . S
C956 C954 1.327 . S
C956 C975 1.429 . S
C956 H980 0.950 . S
C957 C974 1.574 . S
C957 C976 1.368 . S
C957 H981 0.949 . S
H958 C962 0.949 . S
C959 C960 1.349 . S
C959 C961 1.327 . S
C959 H982 0.950 . S
C960 C959 1.349 . S
C960 C972 1.349 . S
C961 C959 1.327 . S
C961 C977 1.429 . S
C961 H983 0.950 . S
C962 H958 0.949 . S
C962 C970 1.574 . S
C962 C978 1.368 . S
H963 C971 0.950 . S
H964 C969 0.950 . S
H965 C970 0.949 . S
H966 C972 0.950 1_556 S
H967 C973 0.950 . S
H968 C974 0.949 . S
C969 H964 0.950 . S
C969 C971 1.327 . S
C969 C975 1.429 . S
C970 C962 1.574 . S
C970 H965 0.949 . S
C970 C976 1.368 . S
C971 C955 1.349 . S
C971 H963 0.950 . S
C971 C969 1.327 . S
C972 C960 1.349 . S
C972 H966 0.950 1_554 S
C972 C973 1.327 . S
C973 H967 0.950 . S
C973 C972 1.327 . S
C973 C977 1.429 . S
C974 C957 1.574 . S
C974 H968 0.949 . S
C974 C978 1.368 . S
C975 C956 1.429 . S
C975 C969 1.429 . S
C975 C976 1.523 . S
C976 C957 1.368 . S
C976 C970 1.368 . S
C976 C975 1.523 . S
C977 C961 1.429 . S
C977 C973 1.429 . S
C977 C978 1.523 . S
C978 C962 1.368 . S
C978 C974 1.368 . S
C978 C977 1.523 . S
H979 C954 0.950 . S
H980 C956 0.950 . S
H981 C957 0.949 . S
H982 C959 0.950 . S
H983 C961 0.950 . S
C984 C985 1.349 . S
C984 C986 1.327 . S
C984 H1009 0.950 . S
C985 C984 1.349 . S
C985 C1001 1.349 . S
C986 C984 1.327 . S
C986 C1005 1.429 . S
C986 H1010 0.950 . S
C987 C1004 1.574 . S
C987 C1006 1.368 . S
C987 H1011 0.949 . S
H988 C992 0.949 . S
C989 C990 1.349 . S
C989 C991 1.327 . S
C989 H1012 0.950 . S
C990 C989 1.349 . S
C990 C1002 1.349 . S
C991 C989 1.327 . S
C991 C1007 1.429 . S
C991 H1013 0.950 . S
C992 H988 0.949 . S
C992 C1000 1.574 . S
C992 C1008 1.368 . S
H993 C1001 0.950 . S
H994 C999 0.950 . S
H995 C1000 0.949 . S
H996 C1002 0.950 . S
H997 C1003 0.950 . S
H998 C1004 0.949 . S
C999 H994 0.950 . S
C999 C1001 1.327 . S
C999 C1005 1.429 . S
C1000 C992 1.574 . S
C1000 H995 0.949 . S
C1000 C1006 1.368 . S
C1001 C985 1.349 . S
C1001 H993 0.950 . S
C1001 C999 1.327 . S
C1002 C990 1.349 . S
C1002 H996 0.950 . S
C1002 C1003 1.327 . S
C1003 H997 0.950 . S
C1003 C1002 1.327 . S
C1003 C1007 1.429 . S
C1004 C987 1.574 . S
C1004 H998 0.949 . S
C1004 C1008 1.368 . S
C1005 C986 1.429 . S
C1005 C999 1.429 . S
C1005 C1006 1.523 . S
C1006 C987 1.368 . S
C1006 C1000 1.368 . S
C1006 C1005 1.523 . S
C1007 C991 1.429 . S
C1007 C1003 1.429 . S
C1007 C1008 1.523 . S
C1008 C992 1.368 . S
C1008 C1004 1.368 . S
C1008 C1007 1.523 . S
H1009 C984 0.950 . S
H1010 C986 0.950 . S
H1011 C987 0.949 . S
H1012 C989 0.950 . S
H1013 C991 0.950 . S
C1014 C1015 1.349 . S
C1014 C1016 1.327 . S
C1014 H1039 0.950 . S
C1015 C1014 1.349 . S
C1015 C1031 1.349 . S
C1016 C1014 1.327 . S
C1016 C1035 1.429 . S
C1016 H1040 0.950 . S
C1017 C1034 1.574 . S
C1017 C1036 1.368 . S
C1017 H1041 0.949 . S
H1018 C1022 0.949 . S
C1019 C1020 1.349 . S
C1019 C1021 1.327 . S
C1019 H1042 0.898 1_554 S
C1020 C1019 1.349 . S
C1020 C1032 1.349 . S
C1021 C1019 1.327 . S
C1021 C1037 1.429 . S
C1021 H1043 0.950 . S
C1022 H1018 0.949 . S
C1022 C1030 1.574 . S
C1022 C1038 1.368 . S
H1023 C1031 0.950 . S
H1024 C1029 0.950 . S
H1025 C1030 0.949 . S
H1026 C1032 0.950 . S
H1027 C1033 0.950 . S
H1028 C1034 0.949 . S
C1029 H1024 0.950 . S
C1029 C1031 1.327 . S
C1029 C1035 1.429 . S
C1030 C1022 1.574 . S
C1030 H1025 0.949 . S
C1030 C1036 1.368 . S
C1031 C1015 1.349 . S
C1031 H1023 0.950 . S
C1031 C1029 1.327 . S
C1032 C1020 1.349 . S
C1032 H1026 0.950 . S
C1032 C1033 1.327 . S
C1033 H1027 0.950 . S
C1033 C1032 1.327 . S
C1033 C1037 1.429 . S
C1034 C1017 1.574 . S
C1034 H1028 0.949 . S
C1034 C1038 1.368 . S
C1035 C1016 1.429 . S
C1035 C1029 1.429 . S
C1035 C1036 1.523 . S
C1036 C1017 1.368 . S
C1036 C1030 1.368 . S
C1036 C1035 1.523 . S
C1037 C1021 1.429 . S
C1037 C1033 1.429 . S
C1037 C1038 1.523 . S
C1038 C1022 1.368 . S
C1038 C1034 1.368 . S
C1038 C1037 1.523 . S
H1039 C1014 0.950 . S
H1040 C1016 0.950 . S
H1041 C1017 0.949 . S
H1042 C1019 0.898 1_556 S
H1043 C1021 0.950 . S
C1044 C1045 1.349 . S
C1044 C1046 1.327 . S
C1044 H1069 0.950 . S
C1045 C1044 1.349 . S
C1045 C1061 1.349 . S
C1046 C1044 1.327 . S
C1046 C1065 1.429 . S
C1046 H1070 0.950 . S
C1047 C1064 1.574 . S
C1047 C1066 1.368 . S
C1047 H1071 0.949 . S
H1048 C1052 0.949 . S
C1049 C1050 1.349 1_554 S
C1049 C1051 1.327 . S
C1049 H1072 0.950 . S
C1050 C1049 1.349 1_556 S
C1050 C1062 1.349 . S
C1051 C1049 1.327 . S
C1051 C1067 1.429 1_554 S
C1051 H1073 0.950 . S
C1052 H1048 0.949 . S
C1052 C1060 1.574 . S
C1052 C1068 1.368 . S
H1053 C1061 0.950 . S
H1054 C1059 0.950 . S
H1055 C1060 0.949 . S
H1056 C1062 0.950 . S
H1057 C1063 0.950 . S
H1058 C1064 0.949 1_554 S
C1059 H1054 0.950 . S
C1059 C1061 1.327 . S
C1059 C1065 1.429 . S
C1060 C1052 1.574 . S
C1060 H1055 0.949 . S
C1060 C1066 1.368 . S
C1061 C1045 1.349 . S
C1061 H1053 0.950 . S
C1061 C1059 1.327 . S
C1062 C1050 1.349 . S
C1062 H1056 0.950 . S
C1062 C1063 1.327 . S
C1063 H1057 0.950 . S
C1063 C1062 1.327 . S
C1063 C1067 1.429 . S
C1064 C1047 1.574 . S
C1064 H1058 0.949 1_556 S
C1064 C1068 1.368 . S
C1065 C1046 1.429 . S
C1065 C1059 1.429 . S
C1065 C1066 1.523 . S
C1066 C1047 1.368 . S
C1066 C1060 1.368 . S
C1066 C1065 1.523 . S
C1067 C1051 1.429 1_556 S
C1067 C1063 1.429 . S
C1067 C1068 1.523 . S
C1068 C1052 1.368 . S
C1068 C1064 1.368 . S
C1068 C1067 1.523 . S
H1069 C1044 0.950 . S
H1070 C1046 0.950 . S
H1071 C1047 0.949 . S
H1072 C1049 0.950 . S
H1073 C1051 0.950 . S
C1074 C1075 1.349 . S
C1074 C1076 1.327 . S
C1074 H1099 0.950 . S
C1075 C1074 1.349 . S
C1075 C1091 1.349 . S
C1076 C1074 1.327 . S
C1076 C1095 1.429 . S
C1076 H1100 0.950 . S
C1077 C1094 1.574 . S
C1077 C1096 1.368 . S
C1077 H1101 0.949 . S
H1078 C1082 0.949 . S
C1079 C1080 1.349 . S
C1079 C1081 1.327 . S
C1079 H1102 0.950 . S
C1080 C1079 1.349 . S
C1080 C1092 1.349 . S
C1081 C1079 1.327 . S
C1081 C1097 1.429 . S
C1081 H1103 0.950 . S
C1082 H1078 0.949 . S
C1082 C1090 1.574 . S
C1082 C1098 1.368 . S
H1083 C1091 0.950 . S
H1084 C1089 0.950 . S
H1085 C1090 0.949 . S
H1086 C1092 0.950 . S
H1087 C1093 0.950 . S
H1088 C1094 0.949 . S
C1089 H1084 0.950 . S
C1089 C1091 1.327 . S
C1089 C1095 1.429 . S
C1090 C1082 1.574 . S
C1090 H1085 0.949 . S
C1090 C1096 1.368 . S
C1091 C1075 1.349 . S
C1091 H1083 0.950 . S
C1091 C1089 1.327 . S
C1092 C1080 1.349 . S
C1092 H1086 0.950 . S
C1092 C1093 1.327 . S
C1093 H1087 0.950 . S
C1093 C1092 1.327 . S
C1093 C1097 1.429 . S
C1094 C1077 1.574 . S
C1094 H1088 0.949 . S
C1094 C1098 1.368 . S
C1095 C1076 1.429 . S
C1095 C1089 1.429 . S
C1095 C1096 1.523 . S
C1096 C1077 1.368 . S
C1096 C1090 1.368 . S
C1096 C1095 1.523 . S
C1097 C1081 1.429 . S
C1097 C1093 1.429 . S
C1097 C1098 1.523 . S
C1098 C1082 1.368 . S
C1098 C1094 1.368 . S
C1098 C1097 1.523 . S
H1099 C1074 0.950 . S
H1100 C1076 0.950 . S
H1101 C1077 0.949 . S
H1102 C1079 0.950 . S
H1103 C1081 0.950 . S
C1104 C1105 1.349 . S
C1104 C1106 1.327 . S
C1104 H1129 0.950 . S
C1105 C1104 1.349 . S
C1105 C1121 1.349 . S
C1106 C1104 1.327 . S
C1106 C1125 1.429 . S
C1106 H1130 0.950 . S
C1107 C1124 1.574 . S
C1107 C1126 1.368 . S
C1107 H1131 0.949 . S
H1108 C1112 0.949 . S
C1109 C1110 1.349 1_554 S
C1109 C1111 1.348 . S
C1109 H1132 0.950 . S
C1110 C1109 1.349 1_556 S
C1110 C1122 1.349 . S
C1111 C1109 1.348 . S
C1111 C1127 1.378 1_554 S
C1111 H1133 0.984 . S
C1112 H1108 0.949 . S
C1112 C1120 1.574 . S
C1112 C1128 1.368 . S
H1113 C1121 0.950 . S
H1114 C1119 0.950 . S
H1115 C1120 0.949 . S
H1116 C1122 0.950 . S
H1117 C1123 0.950 . S
H1118 C1124 0.949 1_554 S
C1119 H1114 0.950 . S
C1119 C1121 1.327 . S
C1119 C1125 1.429 . S
C1120 C1112 1.574 . S
C1120 H1115 0.949 . S
C1120 C1126 1.368 . S
C1121 C1105 1.349 . S
C1121 H1113 0.950 . S
C1121 C1119 1.327 . S
C1122 C1110 1.349 . S
C1122 H1116 0.950 . S
C1122 C1123 1.327 . S
C1123 H1117 0.950 . S
C1123 C1122 1.327 . S
C1123 C1127 1.429 . S
C1124 C1107 1.574 . S
C1124 H1118 0.949 1_556 S
C1124 C1128 1.368 . S
C1125 C1106 1.429 . S
C1125 C1119 1.429 . S
C1125 C1126 1.523 . S
C1126 C1107 1.368 . S
C1126 C1120 1.368 . S
C1126 C1125 1.523 . S
C1127 C1111 1.378 1_556 S
C1127 C1123 1.429 . S
C1127 C1128 1.523 . S
C1128 C1112 1.368 . S
C1128 C1124 1.368 . S
C1128 C1127 1.523 . S
H1129 C1104 0.950 . S
H1130 C1106 0.950 . S
H1131 C1107 0.949 . S
H1132 C1109 0.950 . S
H1133 C1111 0.984 . S
C1134 C1135 1.349 . S
C1134 C1136 1.327 . S
C1134 H1159 0.950 . S
C1135 C1134 1.349 . S
C1135 C1151 1.349 . S
C1136 C1134 1.327 . S
C1136 C1155 1.429 . S
C1136 H1160 0.950 . S
C1137 C1154 1.574 . S
C1137 C1156 1.368 . S
C1137 H1161 0.949 . S
H1138 C1142 0.949 . S
C1139 C1140 1.349 . S
C1139 C1141 1.327 . S
C1139 H1162 0.950 . S
C1140 C1139 1.349 . S
C1140 C1152 1.349 . S
C1141 C1139 1.327 . S
C1141 C1157 1.429 . S
C1141 H1163 0.950 . S
C1142 H1138 0.949 . S
C1142 C1150 1.574 . S
C1142 C1158 1.368 . S
H1143 C1151 0.950 . S
H1144 C1149 0.950 . S
H1145 C1150 0.949 . S
H1146 C1152 0.950 1_554 S
H1147 C1153 0.950 . S
H1148 C1154 0.949 . S
C1149 H1144 0.950 . S
C1149 C1151 1.327 . S
C1149 C1155 1.429 . S
C1150 C1142 1.574 . S
C1150 H1145 0.949 . S
C1150 C1156 1.368 . S
C1151 C1135 1.349 . S
C1151 H1143 0.950 . S
C1151 C1149 1.327 . S
C1152 C1140 1.349 . S
C1152 H1146 0.950 1_556 S
C1152 C1153 1.327 . S
C1153 H1147 0.950 . S
C1153 C1152 1.327 . S
C1153 C1157 1.429 . S
C1154 C1137 1.574 . S
C1154 H1148 0.949 . S
C1154 C1158 1.368 . S
C1155 C1136 1.429 . S
C1155 C1149 1.429 . S
C1155 C1156 1.523 . S
C1156 C1137 1.368 . S
C1156 C1150 1.368 . S
C1156 C1155 1.523 . S
C1157 C1141 1.429 . S
C1157 C1153 1.429 . S
C1157 C1158 1.523 . S
C1158 C1142 1.368 . S
C1158 C1154 1.368 . S
C1158 C1157 1.523 . S
H1159 C1134 0.950 . S
H1160 C1136 0.950 . S
H1161 C1137 0.949 . S
H1162 C1139 0.950 . S
H1163 C1141 0.950 . S
C1164 C1165 1.349 . S
C1164 C1166 1.327 . S
C1164 H1189 0.950 . S
C1165 C1164 1.349 . S
C1165 C1181 1.349 . S
C1166 C1164 1.327 . S
C1166 C1185 1.429 . S
C1166 H1190 0.950 . S
C1167 C1184 1.574 . S
C1167 C1186 1.368 . S
C1167 H1191 0.980 . S
H1168 C1172 0.949 . S
C1169 C1170 1.349 1_554 S
C1169 C1171 1.327 . S
C1169 H1192 0.950 . S
C1170 C1169 1.349 1_556 S
C1170 C1182 1.349 . S
C1171 C1169 1.327 . S
C1171 C1187 1.429 1_554 S
C1171 H1193 0.950 . S
C1172 H1168 0.949 . S
C1172 C1180 1.574 . S
C1172 C1188 1.368 . S
H1173 C1181 0.950 . S
H1174 C1179 0.950 . S
H1175 C1180 0.949 . S
H1176 C1182 0.950 . S
H1177 C1183 0.950 . S
H1178 C1184 0.949 1_554 S
C1179 H1174 0.950 . S
C1179 C1181 1.327 . S
C1179 C1185 1.429 . S
C1180 C1172 1.574 . S
C1180 H1175 0.949 . S
C1180 C1186 1.368 . S
C1181 C1165 1.349 . S
C1181 H1173 0.950 . S
C1181 C1179 1.327 . S
C1182 C1170 1.349 . S
C1182 H1176 0.950 . S
C1182 C1183 1.327 . S
C1183 H1177 0.950 . S
C1183 C1182 1.327 . S
C1183 C1187 1.429 . S
C1184 C1167 1.574 . S
C1184 H1178 0.949 1_556 S
C1184 C1188 1.368 . S
C1185 C1166 1.429 . S
C1185 C1179 1.429 . S
C1185 C1186 1.523 . S
C1186 C1167 1.368 . S
C1186 C1180 1.368 . S
C1186 C1185 1.523 . S
C1187 C1171 1.429 1_556 S
C1187 C1183 1.429 . S
C1187 C1188 1.523 . S
C1188 C1172 1.368 . S
C1188 C1184 1.368 . S
C1188 C1187 1.523 . S
H1189 C1164 0.950 . S
H1190 C1166 0.950 . S
H1191 C1167 0.980 . S
H1192 C1169 0.950 . S
H1193 C1171 0.950 . S
C1194 C1195 1.349 . S
C1194 C1196 1.327 . S
C1194 H1219 0.950 . S
C1195 C1194 1.349 . S
C1195 C1211 1.349 . S
C1196 C1194 1.327 . S
C1196 C1215 1.429 . S
C1196 H1220 0.950 . S
C1197 C1214 1.574 . S
C1197 C1216 1.368 . S
C1197 H1221 0.949 . S
H1198 C1202 0.889 1_554 S
C1199 C1200 1.349 . S
C1199 C1201 1.327 . S
C1199 H1222 0.950 . S
C1200 C1199 1.349 . S
C1200 C1212 1.312 1_556 S
C1201 C1199 1.327 . S
C1201 C1217 1.429 . S
C1201 H1223 0.950 . S
C1202 H1198 0.889 1_556 S
C1202 C1210 1.574 . S
C1202 C1218 1.368 . S
H1203 C1211 0.950 . S
H1204 C1209 0.950 . S
H1205 C1210 0.949 . S
H1206 C1212 0.994 . S
H1207 C1213 0.950 1_554 S
H1208 C1214 0.949 . S
C1209 H1204 0.950 . S
C1209 C1211 1.327 . S
C1209 C1215 1.429 . S
C1210 C1202 1.574 . S
C1210 H1205 0.949 . S
C1210 C1216 1.368 . S
C1211 C1195 1.349 . S
C1211 H1203 0.950 . S
C1211 C1209 1.327 . S
C1212 C1200 1.312 1_554 S
C1212 H1206 0.994 . S
C1212 C1213 1.323 1_554 S
C1213 H1207 0.950 1_556 S
C1213 C1212 1.323 1_556 S
C1213 C1217 1.429 . S
C1214 C1197 1.574 . S
C1214 H1208 0.949 . S
C1214 C1218 1.368 . S
C1215 C1196 1.429 . S
C1215 C1209 1.429 . S
C1215 C1216 1.523 . S
C1216 C1197 1.368 . S
C1216 C1210 1.368 . S
C1216 C1215 1.523 . S
C1217 C1201 1.429 . S
C1217 C1213 1.429 . S
C1217 C1218 1.523 . S
C1218 C1202 1.368 . S
C1218 C1214 1.368 . S
C1218 C1217 1.523 . S
H1219 C1194 0.950 . S
H1220 C1196 0.950 . S
H1221 C1197 0.949 . S
H1222 C1199 0.950 . S
H1223 C1201 0.950 . S
C1224 C1225 1.349 . S
C1224 C1226 1.327 . S
C1224 H1249 0.950 . S
C1225 C1224 1.349 . S
C1225 C1241 1.349 . S
C1226 C1224 1.327 . S
C1226 C1245 1.429 . S
C1226 H1250 0.950 . S
C1227 C1244 1.574 . S
C1227 C1246 1.368 . S
C1227 H1251 0.949 . S
H1228 C1232 0.949 . S
C1229 C1230 1.349 . S
C1229 C1231 1.327 . S
C1229 H1252 0.950 . S
C1230 C1229 1.349 . S
C1230 C1242 1.349 . S
C1231 C1229 1.327 . S
C1231 C1247 1.429 . S
C1231 H1253 0.950 . S
C1232 H1228 0.949 . S
C1232 C1240 1.574 . S
C1232 C1248 1.368 . S
H1233 C1241 0.950 . S
H1234 C1239 0.950 . S
H1235 C1240 0.949 . S
H1236 C1242 0.950 . S
H1237 C1243 0.950 . S
H1238 C1244 0.949 . S
C1239 H1234 0.950 . S
C1239 C1241 1.327 . S
C1239 C1245 1.429 . S
C1240 C1232 1.574 . S
C1240 H1235 0.949 . S
C1240 C1246 1.368 . S
C1241 C1225 1.349 . S
C1241 H1233 0.950 . S
C1241 C1239 1.327 . S
C1242 C1230 1.349 . S
C1242 H1236 0.950 . S
C1242 C1243 1.327 . S
C1243 H1237 0.950 . S
C1243 C1242 1.327 . S
C1243 C1247 1.429 . S
C1244 C1227 1.574 . S
C1244 H1238 0.949 . S
C1244 C1248 1.368 . S
C1245 C1226 1.429 . S
C1245 C1239 1.429 . S
C1245 C1246 1.523 . S
C1246 C1227 1.368 . S
C1246 C1240 1.368 . S
C1246 C1245 1.523 . S
C1247 C1231 1.429 . S
C1247 C1243 1.429 . S
C1247 C1248 1.523 . S
C1248 C1232 1.368 . S
C1248 C1244 1.368 . S
C1248 C1247 1.523 . S
H1249 C1224 0.950 . S
H1250 C1226 0.950 . S
H1251 C1227 0.949 . S
H1252 C1229 0.950 . S
H1253 C1231 0.950 . S
C1254 C1255 1.349 . S
C1254 C1256 1.327 . S
C1254 H1279 0.950 . S
C1255 C1254 1.349 . S
C1255 C1271 1.349 . S
C1256 C1254 1.327 . S
C1256 C1275 1.429 . S
C1256 H1280 0.950 . S
C1257 C1274 1.574 . S
C1257 C1276 1.368 . S
C1257 H1281 0.949 . S
H1258 C1262 0.949 . S
C1259 C1260 1.349 . S
C1259 C1261 1.327 . S
C1259 H1282 0.950 . S
C1260 C1259 1.349 . S
C1260 C1272 1.349 . S
C1261 C1259 1.327 . S
C1261 C1277 1.429 . S
C1261 H1283 0.950 . S
C1262 H1258 0.949 . S
C1262 C1270 1.574 . S
C1262 C1278 1.368 . S
H1263 C1271 0.950 . S
H1264 C1269 0.950 . S
H1265 C1270 0.949 . S
H1266 C1272 0.950 1_556 S
H1267 C1273 0.950 1_556 S
H1268 C1274 0.949 . S
C1269 H1264 0.950 . S
C1269 C1271 1.327 . S
C1269 C1275 1.429 . S
C1270 C1262 1.574 . S
C1270 H1265 0.949 . S
C1270 C1276 1.368 . S
C1271 C1255 1.349 . S
C1271 H1263 0.950 . S
C1271 C1269 1.327 . S
C1272 C1260 1.349 . S
C1272 H1266 0.950 1_554 S
C1272 C1273 1.327 . S
C1273 H1267 0.950 1_554 S
C1273 C1272 1.327 . S
C1273 C1277 1.429 . S
C1274 C1257 1.574 . S
C1274 H1268 0.949 . S
C1274 C1278 1.368 . S
C1275 C1256 1.429 . S
C1275 C1269 1.429 . S
C1275 C1276 1.523 . S
C1276 C1257 1.368 . S
C1276 C1270 1.368 . S
C1276 C1275 1.523 . S
C1277 C1261 1.429 . S
C1277 C1273 1.429 . S
C1277 C1278 1.523 . S
C1278 C1262 1.368 . S
C1278 C1274 1.368 . S
C1278 C1277 1.523 . S
H1279 C1254 0.950 . S
H1280 C1256 0.950 . S
H1281 C1257 0.949 . S
H1282 C1259 0.950 . S
H1283 C1261 0.950 . S
C1284 C1285 1.349 . S
C1284 C1286 1.327 . S
C1284 H1309 0.950 . S
C1285 C1284 1.349 . S
C1285 C1301 1.349 . S
C1286 C1284 1.327 . S
C1286 C1305 1.429 . S
C1286 H1310 0.950 . S
C1287 C1304 1.574 . S
C1287 C1306 1.368 . S
C1287 H1311 0.949 . S
H1288 C1292 0.949 . S
C1289 C1290 1.349 . S
C1289 C1291 1.327 . S
C1289 H1312 0.950 . S
C1290 C1289 1.349 . S
C1290 C1302 1.349 . S
C1291 C1289 1.327 . S
C1291 C1307 1.429 . S
C1291 H1313 0.950 . S
C1292 H1288 0.949 . S
C1292 C1300 1.574 . S
C1292 C1308 1.368 . S
H1293 C1301 0.950 . S
H1294 C1299 0.950 . S
H1295 C1300 0.949 . S
H1296 C1302 0.950 . S
H1297 C1303 0.950 . S
H1298 C1304 0.949 . S
C1299 H1294 0.950 . S
C1299 C1301 1.327 . S
C1299 C1305 1.429 . S
C1300 C1292 1.574 . S
C1300 H1295 0.949 . S
C1300 C1306 1.368 . S
C1301 C1285 1.349 . S
C1301 H1293 0.950 . S
C1301 C1299 1.327 . S
C1302 C1290 1.349 . S
C1302 H1296 0.950 . S
C1302 C1303 1.327 . S
C1303 H1297 0.950 . S
C1303 C1302 1.327 . S
C1303 C1307 1.429 . S
C1304 C1287 1.574 . S
C1304 H1298 0.949 . S
C1304 C1308 1.368 . S
C1305 C1286 1.429 . S
C1305 C1299 1.429 . S
C1305 C1306 1.523 . S
C1306 C1287 1.368 . S
C1306 C1300 1.368 . S
C1306 C1305 1.523 . S
C1307 C1291 1.429 . S
C1307 C1303 1.429 . S
C1307 C1308 1.523 . S
C1308 C1292 1.368 . S
C1308 C1304 1.368 . S
C1308 C1307 1.523 . S
H1309 C1284 0.950 . S
H1310 C1286 0.950 . S
H1311 C1287 0.949 . S
H1312 C1289 0.950 . S
H1313 C1291 0.950 . S
C1314 C1315 1.349 . S
C1314 C1316 1.327 . S
C1314 H1339 0.950 . S
C1315 C1314 1.349 . S
C1315 C1331 1.349 . S
C1316 C1314 1.327 . S
C1316 C1335 1.429 1_655 S
C1316 H1340 0.950 1_655 S
C1317 C1334 1.574 . S
C1317 C1336 1.368 . S
C1317 H1341 0.949 . S
H1318 C1322 0.949 . S
C1319 C1320 1.349 . S
C1319 C1321 1.327 . S
C1319 H1342 0.950 . S
C1320 C1319 1.349 . S
C1320 C1332 1.349 . S
C1321 C1319 1.327 . S
C1321 C1337 1.429 . S
C1321 H1343 0.950 . S
C1322 H1318 0.949 . S
C1322 C1330 1.574 . S
C1322 C1338 1.368 . S
H1323 C1331 0.950 . S
H1324 C1329 0.950 . S
H1325 C1330 0.949 . S
H1326 C1332 0.950 . S
H1327 C1333 0.950 . S
H1328 C1334 0.949 . S
C1329 H1324 0.950 . S
C1329 C1331 1.327 . S
C1329 C1335 1.429 1_655 S
C1330 C1322 1.574 . S
C1330 H1325 0.949 . S
C1330 C1336 1.368 . S
C1331 C1315 1.349 . S
C1331 H1323 0.950 . S
C1331 C1329 1.327 . S
C1332 C1320 1.349 . S
C1332 H1326 0.950 . S
C1332 C1333 1.327 . S
C1333 H1327 0.950 . S
C1333 C1332 1.327 . S
C1333 C1337 1.429 . S
C1334 C1317 1.574 . S
C1334 H1328 0.949 . S
C1334 C1338 1.368 . S
C1335 C1316 1.429 1_455 S
C1335 C1329 1.429 1_455 S
C1335 C1336 1.523 . S
C1336 C1317 1.368 . S
C1336 C1330 1.368 . S
C1336 C1335 1.523 . S
C1337 C1321 1.429 . S
C1337 C1333 1.429 . S
C1337 C1338 1.523 . S
C1338 C1322 1.368 . S
C1338 C1334 1.368 . S
C1338 C1337 1.523 . S
H1339 C1314 0.950 . S
H1340 C1316 0.950 1_455 S
H1341 C1317 0.949 . S
H1342 C1319 0.950 . S
H1343 C1321 0.950 . S
C1344 C1345 1.349 . S
C1344 C1346 1.327 . S
C1344 H1369 0.950 . S
C1345 C1344 1.349 . S
C1345 C1361 1.349 . S
C1346 C1344 1.327 . S
C1346 C1365 1.429 . S
C1346 H1370 0.950 . S
C1347 C1364 1.574 . S
C1347 C1366 1.368 . S
C1347 H1371 0.949 . S
H1348 C1352 0.949 . S
C1349 C1350 1.349 . S
C1349 C1351 1.327 . S
C1349 H1372 0.950 . S
C1350 C1349 1.349 . S
C1350 C1362 1.349 . S
C1351 C1349 1.327 . S
C1351 C1367 1.429 . S
C1351 H1373 0.950 . S
C1352 H1348 0.949 . S
C1352 C1360 1.574 . S
C1352 C1368 1.368 . S
H1353 C1361 0.950 . S
H1354 C1359 0.950 . S
H1355 C1360 0.949 . S
H1356 C1362 0.950 . S
H1357 C1363 0.950 . S
H1358 C1364 0.949 . S
C1359 H1354 0.950 . S
C1359 C1361 1.327 . S
C1359 C1365 1.429 . S
C1360 C1352 1.574 . S
C1360 H1355 0.949 . S
C1360 C1366 1.368 . S
C1361 C1345 1.349 . S
C1361 H1353 0.950 . S
C1361 C1359 1.327 . S
C1362 C1350 1.349 . S
C1362 H1356 0.950 . S
C1362 C1363 1.327 . S
C1363 H1357 0.950 . S
C1363 C1362 1.327 . S
C1363 C1367 1.429 . S
C1364 C1347 1.574 . S
C1364 H1358 0.949 . S
C1364 C1368 1.368 . S
C1365 C1346 1.429 . S
C1365 C1359 1.429 . S
C1365 C1366 1.523 . S
C1366 C1347 1.368 . S
C1366 C1360 1.368 . S
C1366 C1365 1.523 . S
C1367 C1351 1.429 . S
C1367 C1363 1.429 . S
C1367 C1368 1.523 . S
C1368 C1352 1.368 . S
C1368 C1364 1.368 . S
C1368 C1367 1.523 . S
H1369 C1344 0.950 . S
H1370 C1346 0.950 . S
H1371 C1347 0.949 . S
H1372 C1349 0.950 . S
H1373 C1351 0.950 . S
C1374 C1375 1.349 . S
C1374 C1376 1.327 . S
C1374 H1399 0.950 . S
C1375 C1374 1.349 . S
C1375 C1391 1.349 . S
C1376 C1374 1.327 . S
C1376 C1395 1.429 . S
C1376 H1400 0.950 . S
C1377 C1394 1.574 . S
C1377 C1396 1.368 . S
C1377 H1401 0.949 1_565 S
H1378 C1382 0.949 . S
C1379 C1380 1.349 . S
C1379 C1381 1.327 . S
C1379 H1402 0.950 . S
C1380 C1379 1.349 . S
C1380 C1392 1.349 . S
C1381 C1379 1.327 . S
C1381 C1397 1.429 . S
C1381 H1403 0.950 . S
C1382 H1378 0.949 . S
C1382 C1390 1.574 . S
C1382 C1398 1.368 . S
H1383 C1391 0.950 . S
H1384 C1389 0.950 . S
H1385 C1390 0.949 . S
H1386 C1392 0.950 . S
H1387 C1393 0.950 . S
H1388 C1394 0.949 . S
C1389 H1384 0.950 . S
C1389 C1391 1.327 . S
C1389 C1395 1.429 . S
C1390 C1382 1.574 . S
C1390 H1385 0.949 . S
C1390 C1396 1.368 . S
C1391 C1375 1.349 . S
C1391 H1383 0.950 . S
C1391 C1389 1.327 . S
C1392 C1380 1.349 . S
C1392 H1386 0.950 . S
C1392 C1393 1.327 . S
C1393 H1387 0.950 . S
C1393 C1392 1.327 . S
C1393 C1397 1.429 . S
C1394 C1377 1.574 . S
C1394 H1388 0.949 . S
C1394 C1398 1.368 . S
C1395 C1376 1.429 . S
C1395 C1389 1.429 . S
C1395 C1396 1.523 1_545 S
C1396 C1377 1.368 . S
C1396 C1390 1.368 . S
C1396 C1395 1.523 1_565 S
C1397 C1381 1.429 . S
C1397 C1393 1.429 . S
C1397 C1398 1.523 . S
C1398 C1382 1.368 . S
C1398 C1394 1.368 . S
C1398 C1397 1.523 . S
H1399 C1374 0.950 . S
H1400 C1376 0.950 . S
H1401 C1377 0.949 1_545 S
H1402 C1379 0.950 . S
H1403 C1381 0.950 . S
C1404 C1405 1.349 . S
C1404 C1406 1.327 . S
C1404 H1429 0.950 . S
C1405 C1404 1.349 . S
C1405 C1421 1.349 . S
C1406 C1404 1.327 . S
C1406 C1425 1.429 . S
C1406 H1430 0.950 . S
C1407 C1424 1.574 . S
C1407 C1426 1.368 . S
C1407 H1431 0.949 . S
H1408 C1412 0.949 . S
C1409 C1410 1.349 . S
C1409 C1411 1.327 . S
C1409 H1432 0.950 . S
C1410 C1409 1.349 . S
C1410 C1422 1.349 . S
C1411 C1409 1.327 . S
C1411 C1427 1.429 . S
C1411 H1433 0.950 . S
C1412 H1408 0.949 . S
C1412 C1420 1.574 . S
C1412 C1428 1.368 . S
H1413 C1421 0.950 . S
H1414 C1419 0.950 . S
H1415 C1420 0.949 . S
H1416 C1422 0.950 . S
H1417 C1423 0.950 . S
H1418 C1424 0.949 . S
C1419 H1414 0.950 . S
C1419 C1421 1.327 . S
C1419 C1425 1.429 . S
C1420 C1412 1.574 . S
C1420 H1415 0.949 . S
C1420 C1426 1.368 . S
C1421 C1405 1.349 . S
C1421 H1413 0.950 . S
C1421 C1419 1.327 . S
C1422 C1410 1.349 . S
C1422 H1416 0.950 . S
C1422 C1423 1.327 . S
C1423 H1417 0.950 . S
C1423 C1422 1.327 . S
C1423 C1427 1.429 . S
C1424 C1407 1.574 . S
C1424 H1418 0.949 . S
C1424 C1428 1.368 . S
C1425 C1406 1.429 . S
C1425 C1419 1.429 . S
C1425 C1426 1.523 . S
C1426 C1407 1.368 . S
C1426 C1420 1.368 . S
C1426 C1425 1.523 . S
C1427 C1411 1.429 . S
C1427 C1423 1.429 . S
C1427 C1428 1.523 . S
C1428 C1412 1.368 . S
C1428 C1424 1.368 . S
C1428 C1427 1.523 . S
H1429 C1404 0.950 . S
H1430 C1406 0.950 . S
H1431 C1407 0.949 . S
H1432 C1409 0.950 . S
H1433 C1411 0.950 . S
C1434 C1435 1.349 . S
C1434 C1436 1.327 . S
C1434 H1459 0.950 . S
C1435 C1434 1.349 . S
C1435 C1451 1.349 . S
C1436 C1434 1.327 . S
C1436 C1455 1.429 . S
C1436 H1460 0.950 . S
C1437 C1454 1.574 . S
C1437 C1456 1.368 . S
C1437 H1461 0.949 . S
H1438 C1442 0.949 . S
C1439 C1440 1.349 . S
C1439 C1441 1.327 . S
C1439 H1462 0.950 . S
C1440 C1439 1.349 . S
C1440 C1452 1.349 . S
C1441 C1439 1.327 . S
C1441 C1457 1.429 . S
C1441 H1463 0.950 . S
C1442 H1438 0.949 . S
C1442 C1450 1.574 . S
C1442 C1458 1.368 . S
H1443 C1451 0.950 . S
H1444 C1449 0.950 . S
H1445 C1450 0.949 . S
H1446 C1452 0.950 . S
H1447 C1453 0.950 . S
H1448 C1454 0.949 . S
C1449 H1444 0.950 . S
C1449 C1451 1.327 . S
C1449 C1455 1.429 . S
C1450 C1442 1.574 . S
C1450 H1445 0.949 . S
C1450 C1456 1.368 . S
C1451 C1435 1.349 . S
C1451 H1443 0.950 . S
C1451 C1449 1.327 . S
C1452 C1440 1.349 . S
C1452 H1446 0.950 . S
C1452 C1453 1.327 . S
C1453 H1447 0.950 . S
C1453 C1452 1.327 . S
C1453 C1457 1.429 . S
C1454 C1437 1.574 . S
C1454 H1448 0.949 . S
C1454 C1458 1.368 . S
C1455 C1436 1.429 . S
C1455 C1449 1.429 . S
C1455 C1456 1.523 . S
C1456 C1437 1.368 . S
C1456 C1450 1.368 . S
C1456 C1455 1.523 . S
C1457 C1441 1.429 . S
C1457 C1453 1.429 . S
C1457 C1458 1.523 . S
C1458 C1442 1.368 . S
C1458 C1454 1.368 . S
C1458 C1457 1.523 . S
H1459 C1434 0.950 . S
H1460 C1436 0.950 . S
H1461 C1437 0.949 . S
H1462 C1439 0.950 . S
H1463 C1441 0.950 . S
C1464 C1465 1.349 . S
C1464 C1466 1.327 . S
C1464 H1489 0.950 . S
C1465 C1464 1.349 . S
C1465 C1481 1.349 . S
C1466 C1464 1.327 . S
C1466 C1485 1.429 . S
C1466 H1490 0.950 . S
C1467 C1484 1.574 . S
C1467 C1486 1.368 . S
C1467 H1491 0.949 . S
H1468 C1472 0.949 . S
C1469 C1470 1.349 . S
C1469 C1471 1.327 . S
C1469 H1492 0.950 . S
C1470 C1469 1.349 . S
C1470 C1482 1.349 . S
C1471 C1469 1.327 . S
C1471 C1487 1.429 . S
C1471 H1493 0.950 . S
C1472 H1468 0.949 . S
C1472 C1480 1.574 . S
C1472 C1488 1.368 . S
H1473 C1481 0.950 . S
H1474 C1479 0.950 . S
H1475 C1480 0.949 . S
H1476 C1482 0.950 . S
H1477 C1483 0.950 . S
H1478 C1484 0.949 . S
C1479 H1474 0.950 . S
C1479 C1481 1.327 . S
C1479 C1485 1.429 . S
C1480 C1472 1.574 . S
C1480 H1475 0.949 . S
C1480 C1486 1.368 . S
C1481 C1465 1.349 . S
C1481 H1473 0.950 . S
C1481 C1479 1.327 . S
C1482 C1470 1.349 . S
C1482 H1476 0.950 . S
C1482 C1483 1.327 . S
C1483 H1477 0.950 . S
C1483 C1482 1.327 . S
C1483 C1487 1.429 . S
C1484 C1467 1.574 . S
C1484 H1478 0.949 . S
C1484 C1488 1.368 . S
C1485 C1466 1.429 . S
C1485 C1479 1.429 . S
C1485 C1486 1.523 . S
C1486 C1467 1.368 . S
C1486 C1480 1.368 . S
C1486 C1485 1.523 . S
C1487 C1471 1.429 . S
C1487 C1483 1.429 . S
C1487 C1488 1.523 . S
C1488 C1472 1.368 . S
C1488 C1484 1.368 . S
C1488 C1487 1.523 . S
H1489 C1464 0.950 . S
H1490 C1466 0.950 . S
H1491 C1467 0.949 . S
H1492 C1469 0.950 . S
H1493 C1471 0.950 . S
C1494 C1495 1.349 . S
C1494 C1496 1.327 . S
C1494 H1519 0.950 . S
C1495 C1494 1.349 . S
C1495 C1511 1.349 . S
C1496 C1494 1.327 . S
C1496 C1515 1.429 . S
C1496 H1520 0.950 . S
C1497 C1514 1.574 . S
C1497 C1516 1.368 . S
C1497 H1521 0.949 . S
H1498 C1502 0.949 . S
C1499 C1500 1.349 . S
C1499 C1501 1.327 . S
C1499 H1522 0.950 . S
C1500 C1499 1.349 . S
C1500 C1512 1.349 . S
C1501 C1499 1.327 . S
C1501 C1517 1.429 . S
C1501 H1523 0.950 . S
C1502 H1498 0.949 . S
C1502 C1510 1.574 . S
C1502 C1518 1.368 . S
H1503 C1511 0.950 . S
H1504 C1509 0.950 . S
H1505 C1510 0.949 . S
H1506 C1512 0.950 . S
H1507 C1513 0.950 . S
H1508 C1514 0.949 . S
C1509 H1504 0.950 . S
C1509 C1511 1.327 . S
C1509 C1515 1.429 . S
C1510 C1502 1.574 . S
C1510 H1505 0.949 . S
C1510 C1516 1.368 . S
C1511 C1495 1.349 . S
C1511 H1503 0.950 . S
C1511 C1509 1.327 . S
C1512 C1500 1.349 . S
C1512 H1506 0.950 . S
C1512 C1513 1.327 . S
C1513 H1507 0.950 . S
C1513 C1512 1.327 . S
C1513 C1517 1.429 . S
C1514 C1497 1.574 . S
C1514 H1508 0.949 . S
C1514 C1518 1.368 . S
C1515 C1496 1.429 . S
C1515 C1509 1.429 . S
C1515 C1516 1.523 . S
C1516 C1497 1.368 . S
C1516 C1510 1.368 . S
C1516 C1515 1.523 . S
C1517 C1501 1.429 . S
C1517 C1513 1.429 . S
C1517 C1518 1.523 . S
C1518 C1502 1.368 . S
C1518 C1514 1.368 . S
C1518 C1517 1.523 . S
H1519 C1494 0.950 . S
H1520 C1496 0.950 . S
H1521 C1497 0.949 . S
H1522 C1499 0.950 . S
H1523 C1501 0.950 . S
C1524 C1525 1.349 . S
C1524 C1526 1.327 . S
C1524 H1549 0.950 . S
C1525 C1524 1.349 . S
C1525 C1541 1.349 . S
C1526 C1524 1.327 . S
C1526 C1545 1.429 . S
C1526 H1550 0.950 . S
C1527 C1544 1.574 . S
C1527 C1546 1.368 . S
C1527 H1551 0.949 . S
H1528 C1532 0.949 . S
C1529 C1530 1.349 . S
C1529 C1531 1.327 . S
C1529 H1552 0.950 . S
C1530 C1529 1.349 . S
C1530 C1542 1.349 . S
C1531 C1529 1.327 . S
C1531 C1547 1.429 . S
C1531 H1553 0.950 . S
C1532 H1528 0.949 . S
C1532 C1540 1.574 . S
C1532 C1548 1.368 . S
H1533 C1541 0.950 . S
H1534 C1539 0.950 . S
H1535 C1540 0.949 . S
H1536 C1542 0.950 . S
H1537 C1543 0.950 . S
H1538 C1544 0.949 . S
C1539 H1534 0.950 . S
C1539 C1541 1.327 . S
C1539 C1545 1.429 . S
C1540 C1532 1.574 . S
C1540 H1535 0.949 . S
C1540 C1546 1.368 . S
C1541 C1525 1.349 . S
C1541 H1533 0.950 . S
C1541 C1539 1.327 . S
C1542 C1530 1.349 . S
C1542 H1536 0.950 . S
C1542 C1543 1.327 . S
C1543 H1537 0.950 . S
C1543 C1542 1.327 . S
C1543 C1547 1.429 . S
C1544 C1527 1.574 . S
C1544 H1538 0.949 . S
C1544 C1548 1.368 . S
C1545 C1526 1.429 . S
C1545 C1539 1.429 . S
C1545 C1546 1.523 . S
C1546 C1527 1.368 . S
C1546 C1540 1.368 . S
C1546 C1545 1.523 . S
C1547 C1531 1.429 . S
C1547 C1543 1.429 . S
C1547 C1548 1.523 . S
C1548 C1532 1.368 . S
C1548 C1544 1.368 . S
C1548 C1547 1.523 . S
H1549 C1524 0.950 . S
H1550 C1526 0.950 . S
H1551 C1527 0.949 . S
H1552 C1529 0.950 . S
H1553 C1531 0.950 . S
C1554 C1555 1.349 . S
C1554 C1556 1.327 . S
C1554 H1579 0.950 . S
C1555 C1554 1.349 . S
C1555 C1571 1.349 . S
C1556 C1554 1.327 . S
C1556 C1575 1.429 . S
C1556 H1580 0.950 . S
C1557 C1574 1.574 . S
C1557 C1576 1.368 . S
C1557 H1581 0.949 . S
H1558 C1562 0.949 . S
C1559 C1560 1.349 . S
C1559 C1561 1.327 . S
C1559 H1582 0.950 . S
C1560 C1559 1.349 . S
C1560 C1572 1.349 . S
C1561 C1559 1.327 . S
C1561 C1577 1.429 . S
C1561 H1583 0.950 . S
C1562 H1558 0.949 . S
C1562 C1570 1.574 . S
C1562 C1578 1.368 . S
H1563 C1571 0.950 . S
H1564 C1569 0.950 . S
H1565 C1570 0.949 . S
H1566 C1572 0.950 . S
H1567 C1573 0.950 . S
H1568 C1574 0.949 . S
C1569 H1564 0.950 . S
C1569 C1571 1.327 . S
C1569 C1575 1.429 . S
C1570 C1562 1.574 . S
C1570 H1565 0.949 . S
C1570 C1576 1.368 . S
C1571 C1555 1.349 . S
C1571 H1563 0.950 . S
C1571 C1569 1.327 . S
C1572 C1560 1.349 . S
C1572 H1566 0.950 . S
C1572 C1573 1.327 . S
C1573 H1567 0.950 . S
C1573 C1572 1.327 . S
C1573 C1577 1.429 . S
C1574 C1557 1.574 . S
C1574 H1568 0.949 . S
C1574 C1578 1.368 . S
C1575 C1556 1.429 . S
C1575 C1569 1.429 . S
C1575 C1576 1.523 . S
C1576 C1557 1.368 . S
C1576 C1570 1.368 . S
C1576 C1575 1.523 . S
C1577 C1561 1.429 . S
C1577 C1573 1.429 . S
C1577 C1578 1.523 . S
C1578 C1562 1.368 . S
C1578 C1574 1.368 . S
C1578 C1577 1.523 . S
H1579 C1554 0.950 . S
H1580 C1556 0.950 . S
H1581 C1557 0.949 . S
H1582 C1559 0.950 . S
H1583 C1561 0.950 . S
C1584 C1585 1.349 . S
C1584 C1586 1.327 . S
C1584 H1609 0.950 . S
C1585 C1584 1.349 . S
C1585 C1601 1.349 . S
C1586 C1584 1.327 . S
C1586 C1605 1.429 . S
C1586 H1610 0.950 . S
C1587 C1604 1.574 . S
C1587 C1606 1.368 . S
C1587 H1611 0.949 . S
H1588 C1592 0.949 . S
C1589 C1590 1.349 . S
C1589 C1591 1.327 . S
C1589 H1612 0.950 . S
C1590 C1589 1.349 . S
C1590 C1602 1.349 . S
C1591 C1589 1.327 . S
C1591 C1607 1.429 . S
C1591 H1613 0.950 . S
C1592 H1588 0.949 . S
C1592 C1600 1.574 . S
C1592 C1608 1.368 . S
H1593 C1601 0.950 . S
H1594 C1599 0.950 . S
H1595 C1600 0.949 . S
H1596 C1602 0.950 . S
H1597 C1603 0.950 . S
H1598 C1604 0.949 . S
C1599 H1594 0.950 . S
C1599 C1601 1.327 . S
C1599 C1605 1.429 . S
C1600 C1592 1.574 . S
C1600 H1595 0.949 . S
C1600 C1606 1.368 . S
C1601 C1585 1.349 . S
C1601 H1593 0.950 . S
C1601 C1599 1.327 . S
C1602 C1590 1.349 . S
C1602 H1596 0.950 . S
C1602 C1603 1.327 . S
C1603 H1597 0.950 . S
C1603 C1602 1.327 . S
C1603 C1607 1.429 . S
C1604 C1587 1.574 . S
C1604 H1598 0.949 . S
C1604 C1608 1.368 . S
C1605 C1586 1.429 . S
C1605 C1599 1.429 . S
C1605 C1606 1.523 1_545 S
C1606 C1587 1.368 . S
C1606 C1600 1.368 . S
C1606 C1605 1.523 1_565 S
C1607 C1591 1.429 . S
C1607 C1603 1.429 . S
C1607 C1608 1.523 . S
C1608 C1592 1.368 . S
C1608 C1604 1.368 . S
C1608 C1607 1.523 . S
H1609 C1584 0.950 . S
H1610 C1586 0.950 . S
H1611 C1587 0.949 . S
H1612 C1589 0.950 . S
H1613 C1591 0.950 . S
C1614 C1615 1.349 . S
C1614 C1616 1.327 . S
C1614 H1639 0.950 . S
C1615 C1614 1.349 . S
C1615 C1631 1.349 . S
C1616 C1614 1.327 . S
C1616 C1635 1.429 1_655 S
C1616 H1640 0.950 . S
C1617 C1634 1.574 . S
C1617 C1636 1.368 . S
C1617 H1641 0.949 . S
H1618 C1622 0.949 . S
C1619 C1620 1.349 . S
C1619 C1621 1.327 . S
C1619 H1642 0.950 . S
C1620 C1619 1.349 . S
C1620 C1632 1.349 . S
C1621 C1619 1.327 . S
C1621 C1637 1.429 . S
C1621 H1643 0.950 . S
C1622 H1618 0.949 . S
C1622 C1630 1.574 . S
C1622 C1638 1.368 . S
H1623 C1631 0.950 . S
H1624 C1629 0.950 1_455 S
H1625 C1630 0.949 . S
H1626 C1632 0.950 . S
H1627 C1633 0.950 . S
H1628 C1634 0.949 . S
C1629 H1624 0.950 1_655 S
C1629 C1631 1.327 . S
C1629 C1635 1.429 1_655 S
C1630 C1622 1.574 . S
C1630 H1625 0.949 . S
C1630 C1636 1.368 . S
C1631 C1615 1.349 . S
C1631 H1623 0.950 . S
C1631 C1629 1.327 . S
C1632 C1620 1.349 . S
C1632 H1626 0.950 . S
C1632 C1633 1.327 . S
C1633 H1627 0.950 . S
C1633 C1632 1.327 . S
C1633 C1637 1.429 . S
C1634 C1617 1.574 . S
C1634 H1628 0.949 . S
C1634 C1638 1.368 . S
C1635 C1616 1.429 1_455 S
C1635 C1629 1.429 1_455 S
C1635 C1636 1.523 . S
C1636 C1617 1.368 . S
C1636 C1630 1.368 . S
C1636 C1635 1.523 . S
C1637 C1621 1.429 . S
C1637 C1633 1.429 . S
C1637 C1638 1.523 . S
C1638 C1622 1.368 . S
C1638 C1634 1.368 . S
C1638 C1637 1.523 . S
H1639 C1614 0.950 . S
H1640 C1616 0.950 . S
H1641 C1617 0.949 . S
H1642 C1619 0.950 . S
H1643 C1621 0.950 . S
C1644 C1645 1.349 . S
C1644 C1646 1.327 . S
C1644 H1669 0.950 . S
C1645 C1644 1.349 . S
C1645 C1661 1.349 . S
C1646 C1644 1.327 . S
C1646 C1665 1.429 . S
C1646 H1670 0.950 . S
C1647 C1664 1.574 . S
C1647 C1666 1.368 . S
C1647 H1671 0.949 . S
H1648 C1652 0.949 . S
C1649 C1650 1.349 . S
C1649 C1651 1.327 . S
C1649 H1672 0.950 . S
C1650 C1649 1.349 . S
C1650 C1662 1.349 . S
C1651 C1649 1.327 . S
C1651 C1667 1.429 . S
C1651 H1673 0.950 . S
C1652 H1648 0.949 . S
C1652 C1660 1.574 . S
C1652 C1668 1.368 . S
H1653 C1661 0.950 . S
H1654 C1659 0.950 . S
H1655 C1660 0.949 . S
H1656 C1662 0.950 . S
H1657 C1663 0.950 . S
H1658 C1664 0.949 . S
C1659 H1654 0.950 . S
C1659 C1661 1.327 . S
C1659 C1665 1.429 . S
C1660 C1652 1.574 . S
C1660 H1655 0.949 . S
C1660 C1666 1.368 . S
C1661 C1645 1.349 . S
C1661 H1653 0.950 . S
C1661 C1659 1.327 . S
C1662 C1650 1.349 . S
C1662 H1656 0.950 . S
C1662 C1663 1.327 . S
C1663 H1657 0.950 . S
C1663 C1662 1.327 . S
C1663 C1667 1.429 . S
C1664 C1647 1.574 . S
C1664 H1658 0.949 . S
C1664 C1668 1.368 . S
C1665 C1646 1.429 . S
C1665 C1659 1.429 . S
C1665 C1666 1.523 . S
C1666 C1647 1.368 . S
C1666 C1660 1.368 . S
C1666 C1665 1.523 . S
C1667 C1651 1.429 . S
C1667 C1663 1.429 . S
C1667 C1668 1.523 . S
C1668 C1652 1.368 . S
C1668 C1664 1.368 . S
C1668 C1667 1.523 . S
H1669 C1644 0.950 . S
H1670 C1646 0.950 . S
H1671 C1647 0.949 . S
H1672 C1649 0.950 . S
H1673 C1651 0.950 . S
C1674 C1675 1.349 . S
C1674 C1676 1.327 . S
C1674 H1699 0.950 . S
C1675 C1674 1.349 . S
C1675 C1691 1.349 . S
C1676 C1674 1.327 . S
C1676 C1695 1.429 . S
C1676 H1700 0.950 . S
C1677 C1694 1.574 . S
C1677 C1696 1.368 . S
C1677 H1701 0.949 . S
H1678 C1682 0.949 . S
C1679 C1680 1.349 . S
C1679 C1681 1.327 . S
C1679 H1702 0.950 . S
C1680 C1679 1.349 . S
C1680 C1692 1.349 . S
C1681 C1679 1.327 . S
C1681 C1697 1.429 . S
C1681 H1703 0.950 . S
C1682 H1678 0.949 . S
C1682 C1690 1.574 . S
C1682 C1698 1.368 . S
H1683 C1691 0.950 . S
H1684 C1689 0.950 . S
H1685 C1690 0.949 . S
H1686 C1692 0.950 . S
H1687 C1693 0.950 . S
H1688 C1694 0.949 . S
C1689 H1684 0.950 . S
C1689 C1691 1.327 . S
C1689 C1695 1.429 . S
C1690 C1682 1.574 . S
C1690 H1685 0.949 . S
C1690 C1696 1.368 . S
C1691 C1675 1.349 . S
C1691 H1683 0.950 . S
C1691 C1689 1.327 . S
C1692 C1680 1.349 . S
C1692 H1686 0.950 . S
C1692 C1693 1.327 . S
C1693 H1687 0.950 . S
C1693 C1692 1.327 . S
C1693 C1697 1.429 . S
C1694 C1677 1.574 . S
C1694 H1688 0.949 . S
C1694 C1698 1.368 . S
C1695 C1676 1.429 . S
C1695 C1689 1.429 . S
C1695 C1696 1.523 . S
C1696 C1677 1.368 . S
C1696 C1690 1.368 . S
C1696 C1695 1.523 . S
C1697 C1681 1.429 . S
C1697 C1693 1.429 . S
C1697 C1698 1.523 . S
C1698 C1682 1.368 . S
C1698 C1694 1.368 . S
C1698 C1697 1.523 . S
H1699 C1674 0.950 . S
H1700 C1676 0.950 . S
H1701 C1677 0.949 . S
H1702 C1679 0.950 . S
H1703 C1681 0.950 . S
C1704 C1705 1.349 . S
C1704 C1706 1.327 . S
C1704 H1729 0.950 . S
C1705 C1704 1.349 . S
C1705 C1721 1.349 . S
C1706 C1704 1.327 . S
C1706 C1725 1.429 . S
C1706 H1730 0.950 . S
C1707 C1724 1.574 . S
C1707 C1726 1.368 . S
C1707 H1731 0.949 . S
H1708 C1712 0.949 . S
C1709 C1710 1.349 . S
C1709 C1711 1.327 . S
C1709 H1732 0.950 . S
C1710 C1709 1.349 . S
C1710 C1722 1.349 . S
C1711 C1709 1.327 . S
C1711 C1727 1.429 . S
C1711 H1733 0.950 . S
C1712 H1708 0.949 . S
C1712 C1720 1.574 . S
C1712 C1728 1.368 . S
H1713 C1721 0.950 . S
H1714 C1719 0.950 . S
H1715 C1720 0.949 . S
H1716 C1722 0.950 . S
H1717 C1723 0.950 . S
H1718 C1724 0.949 . S
C1719 H1714 0.950 . S
C1719 C1721 1.327 . S
C1719 C1725 1.429 . S
C1720 C1712 1.574 . S
C1720 H1715 0.949 . S
C1720 C1726 1.368 . S
C1721 C1705 1.349 . S
C1721 H1713 0.950 . S
C1721 C1719 1.327 . S
C1722 C1710 1.349 . S
C1722 H1716 0.950 . S
C1722 C1723 1.327 . S
C1723 H1717 0.950 . S
C1723 C1722 1.327 . S
C1723 C1727 1.429 . S
C1724 C1707 1.574 . S
C1724 H1718 0.949 . S
C1724 C1728 1.368 . S
C1725 C1706 1.429 . S
C1725 C1719 1.429 . S
C1725 C1726 1.523 . S
C1726 C1707 1.368 . S
C1726 C1720 1.368 . S
C1726 C1725 1.523 . S
C1727 C1711 1.429 . S
C1727 C1723 1.429 . S
C1727 C1728 1.523 . S
C1728 C1712 1.368 . S
C1728 C1724 1.368 . S
C1728 C1727 1.523 . S
H1729 C1704 0.950 . S
H1730 C1706 0.950 . S
H1731 C1707 0.949 . S
H1732 C1709 0.950 . S
H1733 C1711 0.950 . S
C1734 C1735 1.349 . S
C1734 C1736 1.327 . S
C1734 H1759 0.950 . S
C1735 C1734 1.349 . S
C1735 C1751 1.349 . S
C1736 C1734 1.327 . S
C1736 C1755 1.429 . S
C1736 H1760 0.950 . S
C1737 C1754 1.574 . S
C1737 C1756 1.368 . S
C1737 H1761 0.949 . S
H1738 C1742 0.949 . S
C1739 C1740 1.349 . S
C1739 C1741 1.327 . S
C1739 H1762 0.950 . S
C1740 C1739 1.349 . S
C1740 C1752 1.349 . S
C1741 C1739 1.327 . S
C1741 C1757 1.429 . S
C1741 H1763 0.950 . S
C1742 H1738 0.949 . S
C1742 C1750 1.574 . S
C1742 C1758 1.368 . S
H1743 C1751 0.950 . S
H1744 C1749 0.950 . S
H1745 C1750 0.949 . S
H1746 C1752 0.950 . S
H1747 C1753 0.950 . S
H1748 C1754 0.949 . S
C1749 H1744 0.950 . S
C1749 C1751 1.327 . S
C1749 C1755 1.429 . S
C1750 C1742 1.574 . S
C1750 H1745 0.949 . S
C1750 C1756 1.368 . S
C1751 C1735 1.349 . S
C1751 H1743 0.950 . S
C1751 C1749 1.327 . S
C1752 C1740 1.349 . S
C1752 H1746 0.950 . S
C1752 C1753 1.327 . S
C1753 H1747 0.950 . S
C1753 C1752 1.327 . S
C1753 C1757 1.429 . S
C1754 C1737 1.574 . S
C1754 H1748 0.949 . S
C1754 C1758 1.368 . S
C1755 C1736 1.429 . S
C1755 C1749 1.429 . S
C1755 C1756 1.523 . S
C1756 C1737 1.368 . S
C1756 C1750 1.368 . S
C1756 C1755 1.523 . S
C1757 C1741 1.429 . S
C1757 C1753 1.429 . S
C1757 C1758 1.523 . S
C1758 C1742 1.368 . S
C1758 C1754 1.368 . S
C1758 C1757 1.523 . S
H1759 C1734 0.950 . S
H1760 C1736 0.950 . S
H1761 C1737 0.949 . S
H1762 C1739 0.950 . S
H1763 C1741 0.950 . S
C1764 C1765 1.349 . S
C1764 C1766 1.327 . S
C1764 H1789 0.950 . S
C1765 C1764 1.349 . S
C1765 C1781 1.349 . S
C1766 C1764 1.327 . S
C1766 C1785 1.429 . S
C1766 H1790 0.943 1_565 S
C1767 C1784 1.574 . S
C1767 C1786 1.368 . S
C1767 H1791 0.966 . S
H1768 C1772 0.949 . S
C1769 C1770 1.349 . S
C1769 C1771 1.327 . S
C1769 H1792 0.950 . S
C1770 C1769 1.349 . S
C1770 C1782 1.349 . S
C1771 C1769 1.327 . S
C1771 C1787 1.429 . S
C1771 H1793 0.950 . S
C1772 H1768 0.949 . S
C1772 C1780 1.574 . S
C1772 C1788 1.368 . S
H1773 C1781 0.950 . S
H1774 C1779 0.950 . S
H1775 C1780 0.949 . S
H1776 C1782 0.950 . S
H1777 C1783 0.950 . S
H1778 C1784 0.949 . S
C1779 H1774 0.950 . S
C1779 C1781 1.327 . S
C1779 C1785 1.429 . S
C1780 C1772 1.574 . S
C1780 H1775 0.949 . S
C1780 C1786 1.368 . S
C1781 C1765 1.349 . S
C1781 H1773 0.950 . S
C1781 C1779 1.327 . S
C1782 C1770 1.349 . S
C1782 H1776 0.950 . S
C1782 C1783 1.327 . S
C1783 H1777 0.950 . S
C1783 C1782 1.327 . S
C1783 C1787 1.429 . S
C1784 C1767 1.574 . S
C1784 H1778 0.949 . S
C1784 C1788 1.368 . S
C1785 C1766 1.429 . S
C1785 C1779 1.429 . S
C1785 C1786 1.523 1_565 S
C1786 C1767 1.368 . S
C1786 C1780 1.368 . S
C1786 C1785 1.523 1_545 S
C1787 C1771 1.429 . S
C1787 C1783 1.429 . S
C1787 C1788 1.523 . S
C1788 C1772 1.368 . S
C1788 C1784 1.368 . S
C1788 C1787 1.523 . S
H1789 C1764 0.950 . S
H1790 C1766 0.943 1_545 S
H1791 C1767 0.966 . S
H1792 C1769 0.950 . S
H1793 C1771 0.950 . S
C1794 C1795 1.349 . S
C1794 C1796 1.327 . S
C1794 H1819 0.950 . S
C1795 C1794 1.349 . S
C1795 C1811 1.349 . S
C1796 C1794 1.327 . S
C1796 C1815 1.429 . S
C1796 H1820 0.950 . S
C1797 C1814 1.574 . S
C1797 C1816 1.368 . S
C1797 H1821 0.949 . S
H1798 C1802 0.949 . S
C1799 C1800 1.349 . S
C1799 C1801 1.327 . S
C1799 H1822 0.950 . S
C1800 C1799 1.349 . S
C1800 C1812 1.349 . S
C1801 C1799 1.327 . S
C1801 C1817 1.429 . S
C1801 H1823 0.950 . S
C1802 H1798 0.949 . S
C1802 C1810 1.574 . S
C1802 C1818 1.368 . S
H1803 C1811 0.950 . S
H1804 C1809 0.950 . S
H1805 C1810 0.949 1_455 S
H1806 C1812 0.950 . S
H1807 C1813 0.950 . S
H1808 C1814 0.949 . S
C1809 H1804 0.950 . S
C1809 C1811 1.327 . S
C1809 C1815 1.429 . S
C1810 C1802 1.574 . S
C1810 H1805 0.949 1_655 S
C1810 C1816 1.368 . S
C1811 C1795 1.349 . S
C1811 H1803 0.950 . S
C1811 C1809 1.327 . S
C1812 C1800 1.349 . S
C1812 H1806 0.950 . S
C1812 C1813 1.327 . S
C1813 H1807 0.950 . S
C1813 C1812 1.327 . S
C1813 C1817 1.429 . S
C1814 C1797 1.574 . S
C1814 H1808 0.949 . S
C1814 C1818 1.368 . S
C1815 C1796 1.429 . S
C1815 C1809 1.429 . S
C1815 C1816 1.523 1_455 S
C1816 C1797 1.368 . S
C1816 C1810 1.368 . S
C1816 C1815 1.523 1_655 S
C1817 C1801 1.429 . S
C1817 C1813 1.429 . S
C1817 C1818 1.523 . S
C1818 C1802 1.368 . S
C1818 C1814 1.368 . S
C1818 C1817 1.523 . S
H1819 C1794 0.950 . S
H1820 C1796 0.950 . S
H1821 C1797 0.949 . S
H1822 C1799 0.950 . S
H1823 C1801 0.950 . S
C1824 C1825 1.349 . S
C1824 C1826 1.327 . S
C1824 H1849 0.950 . S
C1825 C1824 1.349 . S
C1825 C1841 1.349 . S
C1826 C1824 1.327 . S
C1826 C1845 1.429 . S
C1826 H1850 0.950 . S
C1827 C1844 1.574 . S
C1827 C1846 1.368 . S
C1827 H1851 0.949 . S
H1828 C1832 0.949 . S
C1829 C1830 1.349 . S
C1829 C1831 1.327 . S
C1829 H1852 0.950 . S
C1830 C1829 1.349 . S
C1830 C1842 1.349 . S
C1831 C1829 1.327 . S
C1831 C1847 1.429 . S
C1831 H1853 0.950 . S
C1832 H1828 0.949 . S
C1832 C1840 1.574 . S
C1832 C1848 1.368 . S
H1833 C1841 0.950 . S
H1834 C1839 0.950 . S
H1835 C1840 0.949 . S
H1836 C1842 0.950 . S
H1837 C1843 0.950 . S
H1838 C1844 0.949 . S
C1839 H1834 0.950 . S
C1839 C1841 1.327 . S
C1839 C1845 1.429 . S
C1840 C1832 1.574 . S
C1840 H1835 0.949 . S
C1840 C1846 1.368 . S
C1841 C1825 1.349 . S
C1841 H1833 0.950 . S
C1841 C1839 1.327 . S
C1842 C1830 1.349 . S
C1842 H1836 0.950 . S
C1842 C1843 1.327 . S
C1843 H1837 0.950 . S
C1843 C1842 1.327 . S
C1843 C1847 1.429 . S
C1844 C1827 1.574 . S
C1844 H1838 0.949 . S
C1844 C1848 1.368 . S
C1845 C1826 1.429 . S
C1845 C1839 1.429 . S
C1845 C1846 1.523 . S
C1846 C1827 1.368 . S
C1846 C1840 1.368 . S
C1846 C1845 1.523 . S
C1847 C1831 1.429 . S
C1847 C1843 1.429 . S
C1847 C1848 1.523 . S
C1848 C1832 1.368 . S
C1848 C1844 1.368 . S
C1848 C1847 1.523 . S
H1849 C1824 0.950 . S
H1850 C1826 0.950 . S
H1851 C1827 0.949 . S
H1852 C1829 0.950 . S
H1853 C1831 0.950 . S
C1854 C1855 1.349 . S
C1854 C1856 1.327 . S
C1854 H1879 0.950 . S
C1855 C1854 1.349 . S
C1855 C1871 1.349 . S
C1856 C1854 1.327 . S
C1856 C1875 1.429 1_455 S
C1856 H1880 0.950 . S
C1857 C1874 1.574 . S
C1857 C1876 1.368 . S
C1857 H1881 0.949 . S
H1858 C1862 0.949 . S
C1859 C1860 1.349 . S
C1859 C1861 1.327 . S
C1859 H1882 0.950 . S
C1860 C1859 1.349 . S
C1860 C1872 1.349 . S
C1861 C1859 1.327 . S
C1861 C1877 1.429 . S
C1861 H1883 0.950 . S
C1862 H1858 0.949 . S
C1862 C1870 1.574 . S
C1862 C1878 1.368 . S
H1863 C1871 0.950 . S
H1864 C1869 0.950 . S
H1865 C1870 0.949 . S
H1866 C1872 0.950 . S
H1867 C1873 0.950 . S
H1868 C1874 0.949 . S
C1869 H1864 0.950 . S
C1869 C1871 1.327 1_655 S
C1869 C1875 1.429 . S
C1870 C1862 1.574 . S
C1870 H1865 0.949 . S
C1870 C1876 1.368 . S
C1871 C1855 1.349 . S
C1871 H1863 0.950 . S
C1871 C1869 1.327 1_455 S
C1872 C1860 1.349 . S
C1872 H1866 0.950 . S
C1872 C1873 1.327 . S
C1873 H1867 0.950 . S
C1873 C1872 1.327 . S
C1873 C1877 1.429 . S
C1874 C1857 1.574 . S
C1874 H1868 0.949 . S
C1874 C1878 1.368 . S
C1875 C1856 1.429 1_655 S
C1875 C1869 1.429 . S
C1875 C1876 1.523 . S
C1876 C1857 1.368 . S
C1876 C1870 1.368 . S
C1876 C1875 1.523 . S
C1877 C1861 1.429 . S
C1877 C1873 1.429 . S
C1877 C1878 1.523 . S
C1878 C1862 1.368 . S
C1878 C1874 1.368 . S
C1878 C1877 1.523 . S
H1879 C1854 0.950 . S
H1880 C1856 0.950 . S
H1881 C1857 0.949 . S
H1882 C1859 0.950 . S
H1883 C1861 0.950 . S
C1884 C1885 1.349 . S
C1884 C1886 1.327 . S
C1884 H1909 0.950 . S
C1885 C1884 1.349 . S
C1885 C1901 1.349 . S
C1886 C1884 1.327 . S
C1886 C1905 1.429 . S
C1886 H1910 0.950 . S
C1887 C1904 1.574 . S
C1887 C1906 1.368 . S
C1887 H1911 0.949 . S
H1888 C1892 0.949 . S
C1889 C1890 1.349 . S
C1889 C1891 1.327 . S
C1889 H1912 0.950 . S
C1890 C1889 1.349 . S
C1890 C1902 1.349 . S
C1891 C1889 1.327 . S
C1891 C1907 1.429 . S
C1891 H1913 0.950 . S
C1892 H1888 0.949 . S
C1892 C1900 1.574 . S
C1892 C1908 1.368 . S
H1893 C1901 0.950 . S
H1894 C1899 0.950 . S
H1895 C1900 0.949 . S
H1896 C1902 0.950 . S
H1897 C1903 0.950 . S
H1898 C1904 0.949 . S
C1899 H1894 0.950 . S
C1899 C1901 1.327 . S
C1899 C1905 1.429 . S
C1900 C1892 1.574 . S
C1900 H1895 0.949 . S
C1900 C1906 1.368 . S
C1901 C1885 1.349 . S
C1901 H1893 0.950 . S
C1901 C1899 1.327 . S
C1902 C1890 1.349 . S
C1902 H1896 0.950 . S
C1902 C1903 1.327 . S
C1903 H1897 0.950 . S
C1903 C1902 1.327 . S
C1903 C1907 1.429 . S
C1904 C1887 1.574 . S
C1904 H1898 0.949 . S
C1904 C1908 1.368 . S
C1905 C1886 1.429 . S
C1905 C1899 1.429 . S
C1905 C1906 1.523 . S
C1906 C1887 1.368 . S
C1906 C1900 1.368 . S
C1906 C1905 1.523 . S
C1907 C1891 1.429 . S
C1907 C1903 1.429 . S
C1907 C1908 1.523 . S
C1908 C1892 1.368 . S
C1908 C1904 1.368 . S
C1908 C1907 1.523 . S
H1909 C1884 0.950 . S
H1910 C1886 0.950 . S
H1911 C1887 0.949 . S
H1912 C1889 0.950 . S
H1913 C1891 0.950 . S
C1914 C1915 1.349 . S
C1914 C1916 1.327 . S
C1914 H1939 0.950 . S
C1915 C1914 1.349 . S
C1915 C1931 1.349 . S
C1916 C1914 1.327 . S
C1916 C1935 1.429 . S
C1916 H1940 0.950 . S
C1917 C1934 1.574 . S
C1917 C1936 1.368 . S
C1917 H1941 0.949 . S
H1918 C1922 0.949 . S
C1919 C1920 1.349 . S
C1919 C1921 1.327 . S
C1919 H1942 0.950 . S
C1920 C1919 1.349 . S
C1920 C1932 1.349 . S
C1921 C1919 1.327 . S
C1921 C1937 1.429 . S
C1921 H1943 0.950 . S
C1922 H1918 0.949 . S
C1922 C1930 1.574 . S
C1922 C1938 1.368 . S
H1923 C1931 0.950 . S
H1924 C1929 0.950 . S
H1925 C1930 0.949 . S
H1926 C1932 0.950 . S
H1927 C1933 0.950 . S
H1928 C1934 0.949 . S
C1929 H1924 0.950 . S
C1929 C1931 1.327 . S
C1929 C1935 1.429 . S
C1930 C1922 1.574 . S
C1930 H1925 0.949 . S
C1930 C1936 1.368 . S
C1931 C1915 1.349 . S
C1931 H1923 0.950 . S
C1931 C1929 1.327 . S
C1932 C1920 1.349 . S
C1932 H1926 0.950 . S
C1932 C1933 1.327 . S
C1933 H1927 0.950 . S
C1933 C1932 1.327 . S
C1933 C1937 1.429 . S
C1934 C1917 1.574 . S
C1934 H1928 0.949 . S
C1934 C1938 1.368 . S
C1935 C1916 1.429 . S
C1935 C1929 1.429 . S
C1935 C1936 1.523 1_565 S
C1936 C1917 1.368 . S
C1936 C1930 1.368 . S
C1936 C1935 1.523 1_545 S
C1937 C1921 1.429 . S
C1937 C1933 1.429 . S
C1937 C1938 1.523 . S
C1938 C1922 1.368 . S
C1938 C1934 1.368 . S
C1938 C1937 1.523 . S
H1939 C1914 0.950 . S
H1940 C1916 0.950 . S
H1941 C1917 0.949 . S
H1942 C1919 0.950 . S
H1943 C1921 0.950 . S
C1944 C1945 1.349 . S
C1944 C1946 1.327 . S
C1944 H1969 0.950 . S
C1945 C1944 1.349 . S
C1945 C1961 1.349 . S
C1946 C1944 1.327 . S
C1946 C1965 1.429 . S
C1946 H1970 0.950 . S
C1947 C1964 1.574 . S
C1947 C1966 1.368 . S
C1947 H1971 0.949 . S
H1948 C1952 0.949 . S
C1949 C1950 1.349 . S
C1949 C1951 1.327 . S
C1949 H1972 0.950 . S
C1950 C1949 1.349 . S
C1950 C1962 1.349 . S
C1951 C1949 1.327 . S
C1951 C1967 1.429 . S
C1951 H1973 0.950 . S
C1952 H1948 0.949 . S
C1952 C1960 1.574 . S
C1952 C1968 1.368 . S
H1953 C1961 0.950 . S
H1954 C1959 0.950 . S
H1955 C1960 0.949 . S
H1956 C1962 0.950 . S
H1957 C1963 0.950 . S
H1958 C1964 0.949 . S
C1959 H1954 0.950 . S
C1959 C1961 1.327 . S
C1959 C1965 1.429 . S
C1960 C1952 1.574 . S
C1960 H1955 0.949 . S
C1960 C1966 1.368 . S
C1961 C1945 1.349 . S
C1961 H1953 0.950 . S
C1961 C1959 1.327 . S
C1962 C1950 1.349 . S
C1962 H1956 0.950 . S
C1962 C1963 1.327 . S
C1963 H1957 0.950 . S
C1963 C1962 1.327 . S
C1963 C1967 1.429 . S
C1964 C1947 1.574 . S
C1964 H1958 0.949 . S
C1964 C1968 1.368 . S
C1965 C1946 1.429 . S
C1965 C1959 1.429 . S
C1965 C1966 1.523 . S
C1966 C1947 1.368 . S
C1966 C1960 1.368 . S
C1966 C1965 1.523 . S
C1967 C1951 1.429 . S
C1967 C1963 1.429 . S
C1967 C1968 1.523 . S
C1968 C1952 1.368 . S
C1968 C1964 1.368 . S
C1968 C1967 1.523 . S
H1969 C1944 0.950 . S
H1970 C1946 0.950 . S
H1971 C1947 0.949 . S
H1972 C1949 0.950 . S
H1973 C1951 0.950 . S
C1974 C1975 1.349 . S
C1974 C1976 1.327 . S
C1974 H1999 0.950 . S
C1975 C1974 1.349 . S
C1975 C1991 1.349 . S
C1976 C1974 1.327 . S
C1976 C1995 1.429 . S
C1976 H2000 0.950 . S
C1977 C1994 1.574 . S
C1977 C1996 1.368 . S
C1977 H2001 0.949 . S
H1978 C1982 0.949 . S
C1979 C1980 1.349 . S
C1979 C1981 1.327 . S
C1979 H2002 0.950 . S
C1980 C1979 1.349 . S
C1980 C1992 1.349 . S
C1981 C1979 1.327 . S
C1981 C1997 1.429 . S
C1981 H2003 0.950 . S
C1982 H1978 0.949 . S
C1982 C1990 1.574 . S
C1982 C1998 1.368 . S
H1983 C1991 0.950 . S
H1984 C1989 0.950 . S
H1985 C1990 0.949 . S
H1986 C1992 0.950 . S
H1987 C1993 0.950 . S
H1988 C1994 0.949 . S
C1989 H1984 0.950 . S
C1989 C1991 1.327 . S
C1989 C1995 1.429 . S
C1990 C1982 1.574 . S
C1990 H1985 0.949 . S
C1990 C1996 1.368 . S
C1991 C1975 1.349 . S
C1991 H1983 0.950 . S
C1991 C1989 1.327 . S
C1992 C1980 1.349 . S
C1992 H1986 0.950 . S
C1992 C1993 1.327 . S
C1993 H1987 0.950 . S
C1993 C1992 1.327 . S
C1993 C1997 1.429 . S
C1994 C1977 1.574 . S
C1994 H1988 0.949 . S
C1994 C1998 1.368 . S
C1995 C1976 1.429 . S
C1995 C1989 1.429 . S
C1995 C1996 1.523 . S
C1996 C1977 1.368 . S
C1996 C1990 1.368 . S
C1996 C1995 1.523 . S
C1997 C1981 1.429 . S
C1997 C1993 1.429 . S
C1997 C1998 1.523 . S
C1998 C1982 1.368 . S
C1998 C1994 1.368 . S
C1998 C1997 1.523 . S
H1999 C1974 0.950 . S
H2000 C1976 0.950 . S
H2001 C1977 0.949 . S
H2002 C1979 0.950 . S
H2003 C1981 0.950 . S
C2004 C2005 1.349 . S
C2004 C2006 1.327 . S
C2004 H2029 0.950 . S
C2005 C2004 1.349 . S
C2005 C2021 1.349 . S
C2006 C2004 1.327 . S
C2006 C2025 1.429 . S
C2006 H2030 0.950 . S
C2007 C2024 1.574 . S
C2007 C2026 1.368 . S
C2007 H2031 0.949 . S
H2008 C2012 0.949 . S
C2009 C2010 1.349 . S
C2009 C2011 1.327 . S
C2009 H2032 0.950 . S
C2010 C2009 1.349 . S
C2010 C2022 1.349 . S
C2011 C2009 1.327 . S
C2011 C2027 1.429 . S
C2011 H2033 0.950 . S
C2012 H2008 0.949 . S
C2012 C2020 1.574 . S
C2012 C2028 1.368 . S
H2013 C2021 0.950 . S
H2014 C2019 0.950 . S
H2015 C2020 0.949 . S
H2016 C2022 0.950 . S
H2017 C2023 0.950 . S
H2018 C2024 0.949 . S
C2019 H2014 0.950 . S
C2019 C2021 1.327 . S
C2019 C2025 1.429 . S
C2020 C2012 1.574 . S
C2020 H2015 0.949 . S
C2020 C2026 1.368 . S
C2021 C2005 1.349 . S
C2021 H2013 0.950 . S
C2021 C2019 1.327 . S
C2022 C2010 1.349 . S
C2022 H2016 0.950 . S
C2022 C2023 1.327 . S
C2023 H2017 0.950 . S
C2023 C2022 1.327 . S
C2023 C2027 1.429 . S
C2024 C2007 1.574 . S
C2024 H2018 0.949 . S
C2024 C2028 1.368 . S
C2025 C2006 1.429 . S
C2025 C2019 1.429 . S
C2025 C2026 1.523 . S
C2026 C2007 1.368 . S
C2026 C2020 1.368 . S
C2026 C2025 1.523 . S
C2027 C2011 1.429 . S
C2027 C2023 1.429 . S
C2027 C2028 1.523 . S
C2028 C2012 1.368 . S
C2028 C2024 1.368 . S
C2028 C2027 1.523 . S
H2029 C2004 0.950 . S
H2030 C2006 0.950 . S
H2031 C2007 0.949 . S
H2032 C2009 0.950 . S
H2033 C2011 0.950 . S
C2034 C2035 1.349 . S
C2034 C2036 1.327 . S
C2034 H2059 0.950 . S
C2035 C2034 1.349 . S
C2035 C2051 1.349 . S
C2036 C2034 1.327 . S
C2036 C2055 1.429 . S
C2036 H2060 0.950 . S
C2037 C2054 1.574 . S
C2037 C2056 1.368 . S
C2037 H2061 0.949 . S
H2038 C2042 0.949 . S
C2039 C2040 1.349 . S
C2039 C2041 1.327 . S
C2039 H2062 0.950 . S
C2040 C2039 1.349 . S
C2040 C2052 1.349 . S
C2041 C2039 1.327 . S
C2041 C2057 1.429 . S
C2041 H2063 0.950 . S
C2042 H2038 0.949 . S
C2042 C2050 1.574 . S
C2042 C2058 1.368 . S
H2043 C2051 0.950 . S
H2044 C2049 0.950 . S
H2045 C2050 0.949 . S
H2046 C2052 0.950 . S
H2047 C2053 0.950 . S
H2048 C2054 0.949 . S
C2049 H2044 0.950 . S
C2049 C2051 1.327 . S
C2049 C2055 1.429 . S
C2050 C2042 1.574 . S
C2050 H2045 0.949 . S
C2050 C2056 1.368 . S
C2051 C2035 1.349 . S
C2051 H2043 0.950 . S
C2051 C2049 1.327 . S
C2052 C2040 1.349 . S
C2052 H2046 0.950 . S
C2052 C2053 1.327 . S
C2053 H2047 0.950 . S
C2053 C2052 1.327 . S
C2053 C2057 1.429 . S
C2054 C2037 1.574 . S
C2054 H2048 0.949 . S
C2054 C2058 1.368 . S
C2055 C2036 1.429 . S
C2055 C2049 1.429 . S
C2055 C2056 1.523 . S
C2056 C2037 1.368 . S
C2056 C2050 1.368 . S
C2056 C2055 1.523 . S
C2057 C2041 1.429 . S
C2057 C2053 1.429 . S
C2057 C2058 1.523 . S
C2058 C2042 1.368 . S
C2058 C2054 1.368 . S
C2058 C2057 1.523 . S
H2059 C2034 0.950 . S
H2060 C2036 0.950 . S
H2061 C2037 0.949 . S
H2062 C2039 0.950 . S
H2063 C2041 0.950 . S
C2064 C2065 1.349 . S
C2064 C2066 1.327 . S
C2064 H2089 0.950 . S
C2065 C2064 1.349 . S
C2065 C2081 1.349 . S
C2066 C2064 1.327 . S
C2066 C2085 1.429 . S
C2066 H2090 0.950 . S
C2067 C2084 1.574 . S
C2067 C2086 1.368 . S
C2067 H2091 0.949 . S
H2068 C2072 0.949 . S
C2069 C2070 1.349 . S
C2069 C2071 1.327 . S
C2069 H2092 0.950 . S
C2070 C2069 1.349 . S
C2070 C2082 1.349 . S
C2071 C2069 1.327 . S
C2071 C2087 1.429 . S
C2071 H2093 0.950 . S
C2072 H2068 0.949 . S
C2072 C2080 1.574 . S
C2072 C2088 1.368 . S
H2073 C2081 0.950 . S
H2074 C2079 0.950 . S
H2075 C2080 0.949 . S
H2076 C2082 0.950 . S
H2077 C2083 0.950 . S
H2078 C2084 0.949 . S
C2079 H2074 0.950 . S
C2079 C2081 1.327 . S
C2079 C2085 1.429 . S
C2080 C2072 1.574 . S
C2080 H2075 0.949 . S
C2080 C2086 1.368 . S
C2081 C2065 1.349 . S
C2081 H2073 0.950 . S
C2081 C2079 1.327 . S
C2082 C2070 1.349 . S
C2082 H2076 0.950 . S
C2082 C2083 1.327 . S
C2083 H2077 0.950 . S
C2083 C2082 1.327 . S
C2083 C2087 1.429 . S
C2084 C2067 1.574 . S
C2084 H2078 0.949 . S
C2084 C2088 1.368 . S
C2085 C2066 1.429 . S
C2085 C2079 1.429 . S
C2085 C2086 1.523 . S
C2086 C2067 1.368 . S
C2086 C2080 1.368 . S
C2086 C2085 1.523 . S
C2087 C2071 1.429 . S
C2087 C2083 1.429 . S
C2087 C2088 1.523 . S
C2088 C2072 1.368 . S
C2088 C2084 1.368 . S
C2088 C2087 1.523 . S
H2089 C2064 0.950 . S
H2090 C2066 0.950 . S
H2091 C2067 0.949 . S
H2092 C2069 0.950 . S
H2093 C2071 0.950 . S
C2094 C2095 1.349 . S
C2094 C2096 1.327 . S
C2094 H2119 0.950 . S
C2095 C2094 1.349 . S
C2095 C2111 1.349 . S
C2096 C2094 1.327 . S
C2096 C2115 1.429 . S
C2096 H2120 0.950 . S
C2097 C2114 1.574 . S
C2097 C2116 1.368 . S
C2097 H2121 0.949 . S
H2098 C2102 0.949 . S
C2099 C2100 1.349 . S
C2099 C2101 1.327 . S
C2099 H2122 0.950 . S
C2100 C2099 1.349 . S
C2100 C2112 1.349 . S
C2101 C2099 1.327 . S
C2101 C2117 1.429 . S
C2101 H2123 0.950 . S
C2102 H2098 0.949 . S
C2102 C2110 1.574 . S
C2102 C2118 1.368 . S
H2103 C2111 0.950 . S
H2104 C2109 0.950 . S
H2105 C2110 0.949 . S
H2106 C2112 0.950 . S
H2107 C2113 0.950 . S
H2108 C2114 0.949 . S
C2109 H2104 0.950 . S
C2109 C2111 1.327 . S
C2109 C2115 1.429 . S
C2110 C2102 1.574 . S
C2110 H2105 0.949 . S
C2110 C2116 1.368 . S
C2111 C2095 1.349 . S
C2111 H2103 0.950 . S
C2111 C2109 1.327 . S
C2112 C2100 1.349 . S
C2112 H2106 0.950 . S
C2112 C2113 1.327 . S
C2113 H2107 0.950 . S
C2113 C2112 1.327 . S
C2113 C2117 1.429 . S
C2114 C2097 1.574 . S
C2114 H2108 0.949 . S
C2114 C2118 1.368 . S
C2115 C2096 1.429 . S
C2115 C2109 1.429 . S
C2115 C2116 1.523 . S
C2116 C2097 1.368 . S
C2116 C2110 1.368 . S
C2116 C2115 1.523 . S
C2117 C2101 1.429 . S
C2117 C2113 1.429 . S
C2117 C2118 1.523 . S
C2118 C2102 1.368 . S
C2118 C2114 1.368 . S
C2118 C2117 1.523 . S
H2119 C2094 0.950 . S
H2120 C2096 0.950 . S
H2121 C2097 0.949 . S
H2122 C2099 0.950 . S
H2123 C2101 0.950 . S
C2124 C2125 1.349 . S
C2124 C2126 1.327 . S
C2124 H2149 0.950 . S
C2125 C2124 1.349 . S
C2125 C2141 1.349 . S
C2126 C2124 1.327 . S
C2126 C2145 1.429 . S
C2126 H2150 0.950 . S
C2127 C2144 1.574 . S
C2127 C2146 1.368 . S
C2127 H2151 0.949 . S
H2128 C2132 0.949 . S
C2129 C2130 1.349 . S
C2129 C2131 1.327 . S
C2129 H2152 0.950 . S
C2130 C2129 1.349 . S
C2130 C2142 1.349 . S
C2131 C2129 1.327 . S
C2131 C2147 1.429 . S
C2131 H2153 0.950 . S
C2132 H2128 0.949 . S
C2132 C2140 1.574 . S
C2132 C2148 1.368 . S
H2133 C2141 0.950 . S
H2134 C2139 0.950 . S
H2135 C2140 0.949 . S
H2136 C2142 0.950 . S
H2137 C2143 0.950 . S
H2138 C2144 0.949 . S
C2139 H2134 0.950 . S
C2139 C2141 1.327 . S
C2139 C2145 1.429 . S
C2140 C2132 1.574 . S
C2140 H2135 0.949 . S
C2140 C2146 1.368 . S
C2141 C2125 1.349 . S
C2141 H2133 0.950 . S
C2141 C2139 1.327 . S
C2142 C2130 1.349 . S
C2142 H2136 0.950 . S
C2142 C2143 1.327 . S
C2143 H2137 0.950 . S
C2143 C2142 1.327 . S
C2143 C2147 1.429 . S
C2144 C2127 1.574 . S
C2144 H2138 0.949 . S
C2144 C2148 1.368 . S
C2145 C2126 1.429 . S
C2145 C2139 1.429 . S
C2145 C2146 1.523 . S
C2146 C2127 1.368 . S
C2146 C2140 1.368 . S
C2146 C2145 1.523 . S
C2147 C2131 1.429 . S
C2147 C2143 1.429 . S
C2147 C2148 1.523 . S
C2148 C2132 1.368 . S
C2148 C2144 1.368 . S
C2148 C2147 1.523 . S
H2149 C2124 0.950 . S
H2150 C2126 0.950 . S
H2151 C2127 0.949 . S
H2152 C2129 0.950 . S
H2153 C2131 0.950 . S
C2154 C2155 1.349 . S
C2154 C2156 1.327 . S
C2154 H2179 0.950 . S
C2155 C2154 1.349 . S
C2155 C2171 1.349 . S
C2156 C2154 1.327 . S
C2156 C2175 1.429 . S
C2156 H2180 0.950 . S
C2157 C2174 1.574 . S
C2157 C2176 1.368 . S
C2157 H2181 0.949 . S
H2158 C2162 0.949 . S
C2159 C2160 1.349 . S
C2159 C2161 1.327 . S
C2159 H2182 0.950 . S
C2160 C2159 1.349 . S
C2160 C2172 1.349 . S
C2161 C2159 1.327 . S
C2161 C2177 1.429 . S
C2161 H2183 0.950 . S
C2162 H2158 0.949 . S
C2162 C2170 1.574 . S
C2162 C2178 1.368 . S
H2163 C2171 0.950 . S
H2164 C2169 0.950 . S
H2165 C2170 0.949 . S
H2166 C2172 0.950 . S
H2167 C2173 0.950 . S
H2168 C2174 0.949 . S
C2169 H2164 0.950 . S
C2169 C2171 1.327 . S
C2169 C2175 1.429 . S
C2170 C2162 1.574 . S
C2170 H2165 0.949 . S
C2170 C2176 1.368 . S
C2171 C2155 1.349 . S
C2171 H2163 0.950 . S
C2171 C2169 1.327 . S
C2172 C2160 1.349 . S
C2172 H2166 0.950 . S
C2172 C2173 1.327 . S
C2173 H2167 0.950 . S
C2173 C2172 1.327 . S
C2173 C2177 1.429 . S
C2174 C2157 1.574 . S
C2174 H2168 0.949 . S
C2174 C2178 1.368 . S
C2175 C2156 1.429 . S
C2175 C2169 1.429 . S
C2175 C2176 1.523 . S
C2176 C2157 1.368 . S
C2176 C2170 1.368 . S
C2176 C2175 1.523 . S
C2177 C2161 1.429 . S
C2177 C2173 1.429 . S
C2177 C2178 1.523 . S
C2178 C2162 1.368 . S
C2178 C2174 1.368 . S
C2178 C2177 1.523 . S
H2179 C2154 0.950 . S
H2180 C2156 0.950 . S
H2181 C2157 0.949 . S
H2182 C2159 0.950 . S
H2183 C2161 0.950 . S
C2184 C2185 1.349 . S
C2184 C2186 1.327 . S
C2184 H2209 0.950 . S
C2185 C2184 1.349 . S
C2185 C2201 1.349 . S
C2186 C2184 1.327 . S
C2186 C2205 1.429 . S
C2186 H2210 0.950 . S
C2187 C2204 1.574 . S
C2187 C2206 1.368 . S
C2187 H2211 0.949 . S
H2188 C2192 0.949 . S
C2189 C2190 1.349 . S
C2189 C2191 1.327 . S
C2189 H2212 0.950 . S
C2190 C2189 1.349 . S
C2190 C2202 1.349 . S
C2191 C2189 1.327 . S
C2191 C2207 1.429 . S
C2191 H2213 0.950 . S
C2192 H2188 0.949 . S
C2192 C2200 1.574 . S
C2192 C2208 1.368 . S
H2193 C2201 0.950 . S
H2194 C2199 0.950 . S
H2195 C2200 0.949 . S
H2196 C2202 0.950 . S
H2197 C2203 0.950 . S
H2198 C2204 0.949 . S
C2199 H2194 0.950 . S
C2199 C2201 1.327 . S
C2199 C2205 1.429 . S
C2200 C2192 1.574 . S
C2200 H2195 0.949 . S
C2200 C2206 1.368 . S
C2201 C2185 1.349 . S
C2201 H2193 0.950 . S
C2201 C2199 1.327 . S
C2202 C2190 1.349 . S
C2202 H2196 0.950 . S
C2202 C2203 1.327 . S
C2203 H2197 0.950 . S
C2203 C2202 1.327 . S
C2203 C2207 1.429 . S
C2204 C2187 1.574 . S
C2204 H2198 0.949 . S
C2204 C2208 1.368 . S
C2205 C2186 1.429 . S
C2205 C2199 1.429 . S
C2205 C2206 1.523 . S
C2206 C2187 1.368 . S
C2206 C2200 1.368 . S
C2206 C2205 1.523 . S
C2207 C2191 1.429 . S
C2207 C2203 1.429 . S
C2207 C2208 1.523 . S
C2208 C2192 1.368 . S
C2208 C2204 1.368 . S
C2208 C2207 1.523 . S
H2209 C2184 0.950 . S
H2210 C2186 0.950 . S
H2211 C2187 0.949 . S
H2212 C2189 0.950 . S
H2213 C2191 0.950 . S
C2214 C2215 1.349 . S
C2214 C2216 1.327 . S
C2214 H2239 0.950 . S
C2215 C2214 1.349 . S
C2215 C2231 1.349 . S
C2216 C2214 1.327 . S
C2216 C2235 1.429 . S
C2216 H2240 0.950 . S
C2217 C2234 1.574 . S
C2217 C2236 1.368 . S
C2217 H2241 0.949 . S
H2218 C2222 0.949 . S
C2219 C2220 1.349 . S
C2219 C2221 1.327 . S
C2219 H2242 0.950 . S
C2220 C2219 1.349 . S
C2220 C2232 1.349 . S
C2221 C2219 1.327 . S
C2221 C2237 1.429 . S
C2221 H2243 0.950 . S
C2222 H2218 0.949 . S
C2222 C2230 1.574 . S
C2222 C2238 1.368 . S
H2223 C2231 0.950 . S
H2224 C2229 0.950 . S
H2225 C2230 0.949 . S
H2226 C2232 0.950 . S
H2227 C2233 0.950 . S
H2228 C2234 0.949 . S
C2229 H2224 0.950 . S
C2229 C2231 1.327 . S
C2229 C2235 1.429 . S
C2230 C2222 1.574 . S
C2230 H2225 0.949 . S
C2230 C2236 1.368 . S
C2231 C2215 1.349 . S
C2231 H2223 0.950 . S
C2231 C2229 1.327 . S
C2232 C2220 1.349 . S
C2232 H2226 0.950 . S
C2232 C2233 1.327 . S
C2233 H2227 0.950 . S
C2233 C2232 1.327 . S
C2233 C2237 1.429 . S
C2234 C2217 1.574 . S
C2234 H2228 0.949 . S
C2234 C2238 1.368 . S
C2235 C2216 1.429 . S
C2235 C2229 1.429 . S
C2235 C2236 1.523 . S
C2236 C2217 1.368 . S
C2236 C2230 1.368 . S
C2236 C2235 1.523 . S
C2237 C2221 1.429 . S
C2237 C2233 1.429 . S
C2237 C2238 1.523 . S
C2238 C2222 1.368 . S
C2238 C2234 1.368 . S
C2238 C2237 1.523 . S
H2239 C2214 0.950 . S
H2240 C2216 0.950 . S
H2241 C2217 0.949 . S
H2242 C2219 0.950 . S
H2243 C2221 0.950 . S
C2244 C2245 1.349 . S
C2244 C2246 1.327 . S
C2244 H2269 0.950 . S
C2245 C2244 1.349 . S
C2245 C2261 1.349 . S
C2246 C2244 1.327 . S
C2246 C2265 1.429 . S
C2246 H2270 0.950 . S
C2247 C2264 1.574 . S
C2247 C2266 1.368 . S
C2247 H2271 0.949 . S
H2248 C2252 0.949 . S
C2249 C2250 1.349 . S
C2249 C2251 1.327 . S
C2249 H2272 0.950 . S
C2250 C2249 1.349 . S
C2250 C2262 1.349 . S
C2251 C2249 1.327 . S
C2251 C2267 1.429 . S
C2251 H2273 0.950 . S
C2252 H2248 0.949 . S
C2252 C2260 1.574 . S
C2252 C2268 1.368 . S
H2253 C2261 0.950 . S
H2254 C2259 0.950 . S
H2255 C2260 0.949 . S
H2256 C2262 0.950 . S
H2257 C2263 0.950 . S
H2258 C2264 0.949 . S
C2259 H2254 0.950 . S
C2259 C2261 1.327 . S
C2259 C2265 1.429 . S
C2260 C2252 1.574 . S
C2260 H2255 0.949 . S
C2260 C2266 1.368 . S
C2261 C2245 1.349 . S
C2261 H2253 0.950 . S
C2261 C2259 1.327 . S
C2262 C2250 1.349 . S
C2262 H2256 0.950 . S
C2262 C2263 1.327 . S
C2263 H2257 0.950 . S
C2263 C2262 1.327 . S
C2263 C2267 1.429 . S
C2264 C2247 1.574 . S
C2264 H2258 0.949 . S
C2264 C2268 1.368 . S
C2265 C2246 1.429 . S
C2265 C2259 1.429 . S
C2265 C2266 1.523 . S
C2266 C2247 1.368 . S
C2266 C2260 1.368 . S
C2266 C2265 1.523 . S
C2267 C2251 1.429 . S
C2267 C2263 1.429 . S
C2267 C2268 1.523 . S
C2268 C2252 1.368 . S
C2268 C2264 1.368 . S
C2268 C2267 1.523 . S
H2269 C2244 0.950 . S
H2270 C2246 0.950 . S
H2271 C2247 0.949 . S
H2272 C2249 0.950 . S
H2273 C2251 0.950 . S
C2274 C2275 1.349 . S
C2274 C2276 1.327 . S
C2274 H2299 0.950 . S
C2275 C2274 1.349 . S
C2275 C2291 1.349 . S
C2276 C2274 1.327 . S
C2276 C2295 1.429 . S
C2276 H2300 0.950 . S
C2277 C2294 1.574 . S
C2277 C2296 1.368 . S
C2277 H2301 0.949 . S
H2278 C2282 0.949 . S
C2279 C2280 1.349 . S
C2279 C2281 1.327 . S
C2279 H2302 0.950 . S
C2280 C2279 1.349 . S
C2280 C2292 1.349 . S
C2281 C2279 1.327 . S
C2281 C2297 1.429 . S
C2281 H2303 0.950 . S
C2282 H2278 0.949 . S
C2282 C2290 1.574 . S
C2282 C2298 1.368 . S
H2283 C2291 0.950 . S
H2284 C2289 0.950 . S
H2285 C2290 0.949 . S
H2286 C2292 0.950 . S
H2287 C2293 0.950 . S
H2288 C2294 0.949 . S
C2289 H2284 0.950 . S
C2289 C2291 1.327 . S
C2289 C2295 1.429 . S
C2290 C2282 1.574 . S
C2290 H2285 0.949 . S
C2290 C2296 1.368 . S
C2291 C2275 1.349 . S
C2291 H2283 0.950 . S
C2291 C2289 1.327 . S
C2292 C2280 1.349 . S
C2292 H2286 0.950 . S
C2292 C2293 1.327 . S
C2293 H2287 0.950 . S
C2293 C2292 1.327 . S
C2293 C2297 1.429 . S
C2294 C2277 1.574 . S
C2294 H2288 0.949 . S
C2294 C2298 1.368 . S
C2295 C2276 1.429 . S
C2295 C2289 1.429 . S
C2295 C2296 1.523 . S
C2296 C2277 1.368 . S
C2296 C2290 1.368 . S
C2296 C2295 1.523 . S
C2297 C2281 1.429 . S
C2297 C2293 1.429 . S
C2297 C2298 1.523 . S
C2298 C2282 1.368 . S
C2298 C2294 1.368 . S
C2298 C2297 1.523 . S
H2299 C2274 0.950 . S
H2300 C2276 0.950 . S
H2301 C2277 0.949 . S
H2302 C2279 0.950 . S
H2303 C2281 0.950 . S
C2304 C2305 1.349 . S
C2304 C2306 1.327 . S
C2304 H2329 0.950 . S
C2305 C2304 1.349 . S
C2305 C2321 1.349 . S
C2306 C2304 1.327 . S
C2306 C2325 1.429 . S
C2306 H2330 0.950 . S
C2307 C2324 1.574 . S
C2307 C2326 1.368 . S
C2307 H2331 0.949 . S
H2308 C2312 0.949 . S
C2309 C2310 1.349 . S
C2309 C2311 1.327 . S
C2309 H2332 0.950 . S
C2310 C2309 1.349 . S
C2310 C2322 1.349 . S
C2311 C2309 1.327 . S
C2311 C2327 1.429 . S
C2311 H2333 0.950 . S
C2312 H2308 0.949 . S
C2312 C2320 1.574 . S
C2312 C2328 1.368 . S
H2313 C2321 0.950 . S
H2314 C2319 0.950 . S
H2315 C2320 0.949 . S
H2316 C2322 0.950 . S
H2317 C2323 0.950 . S
H2318 C2324 0.949 . S
C2319 H2314 0.950 . S
C2319 C2321 1.327 . S
C2319 C2325 1.429 . S
C2320 C2312 1.574 . S
C2320 H2315 0.949 . S
C2320 C2326 1.368 . S
C2321 C2305 1.349 . S
C2321 H2313 0.950 . S
C2321 C2319 1.327 . S
C2322 C2310 1.349 . S
C2322 H2316 0.950 . S
C2322 C2323 1.327 . S
C2323 H2317 0.950 . S
C2323 C2322 1.327 . S
C2323 C2327 1.429 . S
C2324 C2307 1.574 . S
C2324 H2318 0.949 . S
C2324 C2328 1.368 . S
C2325 C2306 1.429 . S
C2325 C2319 1.429 . S
C2325 C2326 1.523 . S
C2326 C2307 1.368 . S
C2326 C2320 1.368 . S
C2326 C2325 1.523 . S
C2327 C2311 1.429 . S
C2327 C2323 1.429 . S
C2327 C2328 1.523 . S
C2328 C2312 1.368 . S
C2328 C2324 1.368 . S
C2328 C2327 1.523 . S
H2329 C2304 0.950 . S
H2330 C2306 0.950 . S
H2331 C2307 0.949 . S
H2332 C2309 0.950 . S
H2333 C2311 0.950 . S
C2334 C2335 1.349 . S
C2334 C2336 1.327 . S
C2334 H2359 0.950 . S
C2335 C2334 1.349 . S
C2335 C2351 1.349 . S
C2336 C2334 1.327 . S
C2336 C2355 1.429 . S
C2336 H2360 0.950 . S
C2337 C2354 1.574 . S
C2337 C2356 1.368 . S
C2337 H2361 0.949 . S
H2338 C2342 0.949 . S
C2339 C2340 1.349 . S
C2339 C2341 1.327 . S
C2339 H2362 0.950 . S
C2340 C2339 1.349 . S
C2340 C2352 1.349 . S
C2341 C2339 1.327 . S
C2341 C2357 1.429 . S
C2341 H2363 0.950 . S
C2342 H2338 0.949 . S
C2342 C2350 1.574 . S
C2342 C2358 1.368 . S
H2343 C2351 0.950 . S
H2344 C2349 0.950 . S
H2345 C2350 0.949 . S
H2346 C2352 0.950 . S
H2347 C2353 0.950 . S
H2348 C2354 0.949 . S
C2349 H2344 0.950 . S
C2349 C2351 1.327 . S
C2349 C2355 1.429 . S
C2350 C2342 1.574 . S
C2350 H2345 0.949 . S
C2350 C2356 1.368 . S
C2351 C2335 1.349 . S
C2351 H2343 0.950 . S
C2351 C2349 1.327 . S
C2352 C2340 1.349 . S
C2352 H2346 0.950 . S
C2352 C2353 1.327 . S
C2353 H2347 0.950 . S
C2353 C2352 1.327 . S
C2353 C2357 1.429 . S
C2354 C2337 1.574 . S
C2354 H2348 0.949 . S
C2354 C2358 1.368 . S
C2355 C2336 1.429 . S
C2355 C2349 1.429 . S
C2355 C2356 1.523 . S
C2356 C2337 1.368 . S
C2356 C2350 1.368 . S
C2356 C2355 1.523 . S
C2357 C2341 1.429 . S
C2357 C2353 1.429 . S
C2357 C2358 1.523 . S
C2358 C2342 1.368 . S
C2358 C2354 1.368 . S
C2358 C2357 1.523 . S
H2359 C2334 0.950 . S
H2360 C2336 0.950 . S
H2361 C2337 0.949 . S
H2362 C2339 0.950 . S
H2363 C2341 0.950 . S
C2364 C2365 1.349 . S
C2364 C2366 1.327 . S
C2364 H2389 0.950 . S
C2365 C2364 1.349 . S
C2365 C2381 1.349 . S
C2366 C2364 1.327 . S
C2366 C2385 1.429 . S
C2366 H2390 0.950 . S
C2367 C2384 1.574 . S
C2367 C2386 1.368 . S
C2367 H2391 0.949 . S
H2368 C2372 0.949 . S
C2369 C2370 1.349 . S
C2369 C2371 1.327 . S
C2369 H2392 0.950 . S
C2370 C2369 1.349 . S
C2370 C2382 1.349 . S
C2371 C2369 1.327 . S
C2371 C2387 1.429 . S
C2371 H2393 0.950 . S
C2372 H2368 0.949 . S
C2372 C2380 1.574 . S
C2372 C2388 1.368 . S
H2373 C2381 0.950 . S
H2374 C2379 0.950 . S
H2375 C2380 0.949 . S
H2376 C2382 0.950 . S
H2377 C2383 0.950 . S
H2378 C2384 0.949 . S
C2379 H2374 0.950 . S
C2379 C2381 1.327 . S
C2379 C2385 1.429 . S
C2380 C2372 1.574 . S
C2380 H2375 0.949 . S
C2380 C2386 1.368 . S
C2381 C2365 1.349 . S
C2381 H2373 0.950 . S
C2381 C2379 1.327 . S
C2382 C2370 1.349 . S
C2382 H2376 0.950 . S
C2382 C2383 1.327 . S
C2383 H2377 0.950 . S
C2383 C2382 1.327 . S
C2383 C2387 1.429 . S
C2384 C2367 1.574 . S
C2384 H2378 0.949 . S
C2384 C2388 1.368 . S
C2385 C2366 1.429 . S
C2385 C2379 1.429 . S
C2385 C2386 1.523 . S
C2386 C2367 1.368 . S
C2386 C2380 1.368 . S
C2386 C2385 1.523 . S
C2387 C2371 1.429 . S
C2387 C2383 1.429 . S
C2387 C2388 1.523 . S
C2388 C2372 1.368 . S
C2388 C2384 1.368 . S
C2388 C2387 1.523 . S
H2389 C2364 0.950 . S
H2390 C2366 0.950 . S
H2391 C2367 0.949 . S
H2392 C2369 0.950 . S
H2393 C2371 0.950 . S
C2394 C2395 1.349 . S
C2394 C2396 1.327 . S
C2394 H2419 0.950 . S
C2395 C2394 1.349 . S
C2395 C2411 1.349 . S
C2396 C2394 1.327 . S
C2396 C2415 1.429 . S
C2396 H2420 0.950 . S
C2397 C2414 1.574 . S
C2397 C2416 1.368 . S
C2397 H2421 0.949 . S
H2398 C2402 0.949 . S
C2399 C2400 1.349 . S
C2399 C2401 1.327 . S
C2399 H2422 0.950 . S
C2400 C2399 1.349 . S
C2400 C2412 1.349 . S
C2401 C2399 1.327 . S
C2401 C2417 1.429 . S
C2401 H2423 0.950 . S
C2402 H2398 0.949 . S
C2402 C2410 1.574 . S
C2402 C2418 1.368 . S
H2403 C2411 0.950 . S
H2404 C2409 0.950 . S
H2405 C2410 0.949 . S
H2406 C2412 0.950 . S
H2407 C2413 0.950 . S
H2408 C2414 0.949 . S
C2409 H2404 0.950 . S
C2409 C2411 1.327 . S
C2409 C2415 1.429 . S
C2410 C2402 1.574 . S
C2410 H2405 0.949 . S
C2410 C2416 1.368 . S
C2411 C2395 1.349 . S
C2411 H2403 0.950 . S
C2411 C2409 1.327 . S
C2412 C2400 1.349 . S
C2412 H2406 0.950 . S
C2412 C2413 1.327 . S
C2413 H2407 0.950 . S
C2413 C2412 1.327 . S
C2413 C2417 1.429 . S
C2414 C2397 1.574 . S
C2414 H2408 0.949 . S
C2414 C2418 1.368 . S
C2415 C2396 1.429 . S
C2415 C2409 1.429 . S
C2415 C2416 1.523 . S
C2416 C2397 1.368 . S
C2416 C2410 1.368 . S
C2416 C2415 1.523 . S
C2417 C2401 1.429 . S
C2417 C2413 1.429 . S
C2417 C2418 1.523 . S
C2418 C2402 1.368 . S
C2418 C2414 1.368 . S
C2418 C2417 1.523 . S
H2419 C2394 0.950 . S
H2420 C2396 0.950 . S
H2421 C2397 0.949 . S
H2422 C2399 0.950 . S
H2423 C2401 0.950 . S
C2424 C2425 1.349 . S
C2424 C2426 1.327 . S
C2424 H2449 0.950 . S
C2425 C2424 1.349 . S
C2425 C2441 1.349 . S
C2426 C2424 1.327 . S
C2426 C2445 1.429 . S
C2426 H2450 0.950 . S
C2427 C2444 1.574 . S
C2427 C2446 1.368 . S
C2427 H2451 0.949 . S
H2428 C2432 0.949 . S
C2429 C2430 1.349 . S
C2429 C2431 1.327 . S
C2429 H2452 0.950 . S
C2430 C2429 1.349 . S
C2430 C2442 1.349 . S
C2431 C2429 1.327 . S
C2431 C2447 1.429 . S
C2431 H2453 0.950 . S
C2432 H2428 0.949 . S
C2432 C2440 1.574 . S
C2432 C2448 1.368 . S
H2433 C2441 0.950 . S
H2434 C2439 0.950 . S
H2435 C2440 0.949 . S
H2436 C2442 0.950 . S
H2437 C2443 0.950 . S
H2438 C2444 0.949 . S
C2439 H2434 0.950 . S
C2439 C2441 1.327 . S
C2439 C2445 1.429 . S
C2440 C2432 1.574 . S
C2440 H2435 0.949 . S
C2440 C2446 1.368 . S
C2441 C2425 1.349 . S
C2441 H2433 0.950 . S
C2441 C2439 1.327 . S
C2442 C2430 1.349 . S
C2442 H2436 0.950 . S
C2442 C2443 1.327 . S
C2443 H2437 0.950 . S
C2443 C2442 1.327 . S
C2443 C2447 1.429 . S
C2444 C2427 1.574 . S
C2444 H2438 0.949 . S
C2444 C2448 1.368 . S
C2445 C2426 1.429 . S
C2445 C2439 1.429 . S
C2445 C2446 1.523 . S
C2446 C2427 1.368 . S
C2446 C2440 1.368 . S
C2446 C2445 1.523 . S
C2447 C2431 1.429 . S
C2447 C2443 1.429 . S
C2447 C2448 1.523 . S
C2448 C2432 1.368 . S
C2448 C2444 1.368 . S
C2448 C2447 1.523 . S
H2449 C2424 0.950 . S
H2450 C2426 0.950 . S
H2451 C2427 0.949 . S
H2452 C2429 0.950 . S
H2453 C2431 0.950 . S
C2454 C2455 1.349 . S
C2454 C2456 1.327 . S
C2454 H2479 0.950 . S
C2455 C2454 1.349 . S
C2455 C2471 1.349 . S
C2456 C2454 1.327 . S
C2456 C2475 1.429 . S
C2456 H2480 0.950 . S
C2457 C2474 1.574 . S
C2457 C2476 1.368 . S
C2457 H2481 0.949 . S
H2458 C2462 0.949 . S
C2459 C2460 1.349 . S
C2459 C2461 1.327 . S
C2459 H2482 0.950 . S
C2460 C2459 1.349 . S
C2460 C2472 1.349 . S
C2461 C2459 1.327 . S
C2461 C2477 1.429 . S
C2461 H2483 0.950 . S
C2462 H2458 0.949 . S
C2462 C2470 1.574 . S
C2462 C2478 1.368 . S
H2463 C2471 0.950 . S
H2464 C2469 0.950 . S
H2465 C2470 0.949 . S
H2466 C2472 0.950 . S
H2467 C2473 0.950 . S
H2468 C2474 0.949 . S
C2469 H2464 0.950 . S
C2469 C2471 1.327 . S
C2469 C2475 1.429 . S
C2470 C2462 1.574 . S
C2470 H2465 0.949 . S
C2470 C2476 1.368 . S
C2471 C2455 1.349 . S
C2471 H2463 0.950 . S
C2471 C2469 1.327 . S
C2472 C2460 1.349 . S
C2472 H2466 0.950 . S
C2472 C2473 1.327 . S
C2473 H2467 0.950 . S
C2473 C2472 1.327 . S
C2473 C2477 1.429 . S
C2474 C2457 1.574 . S
C2474 H2468 0.949 . S
C2474 C2478 1.368 . S
C2475 C2456 1.429 . S
C2475 C2469 1.429 . S
C2475 C2476 1.523 . S
C2476 C2457 1.368 . S
C2476 C2470 1.368 . S
C2476 C2475 1.523 . S
C2477 C2461 1.429 . S
C2477 C2473 1.429 . S
C2477 C2478 1.523 . S
C2478 C2462 1.368 . S
C2478 C2474 1.368 . S
C2478 C2477 1.523 . S
H2479 C2454 0.950 . S
H2480 C2456 0.950 . S
H2481 C2457 0.949 . S
H2482 C2459 0.950 . S
H2483 C2461 0.950 . S
C2484 C2485 1.349 . S
C2484 C2486 1.327 . S
C2484 H2509 0.950 . S
C2485 C2484 1.349 . S
C2485 C2501 1.349 . S
C2486 C2484 1.327 . S
C2486 C2505 1.429 . S
C2486 H2510 0.950 . S
C2487 C2504 1.574 . S
C2487 C2506 1.368 . S
C2487 H2511 0.949 . S
H2488 C2492 0.949 . S
C2489 C2490 1.349 . S
C2489 C2491 1.327 . S
C2489 H2512 0.950 . S
C2490 C2489 1.349 . S
C2490 C2502 1.349 . S
C2491 C2489 1.327 . S
C2491 C2507 1.429 . S
C2491 H2513 0.950 . S
C2492 H2488 0.949 . S
C2492 C2500 1.574 . S
C2492 C2508 1.368 . S
H2493 C2501 0.950 . S
H2494 C2499 0.950 . S
H2495 C2500 0.949 . S
H2496 C2502 0.950 . S
H2497 C2503 0.950 . S
H2498 C2504 0.949 . S
C2499 H2494 0.950 . S
C2499 C2501 1.327 . S
C2499 C2505 1.429 . S
C2500 C2492 1.574 . S
C2500 H2495 0.949 . S
C2500 C2506 1.368 . S
C2501 C2485 1.349 . S
C2501 H2493 0.950 . S
C2501 C2499 1.327 . S
C2502 C2490 1.349 . S
C2502 H2496 0.950 . S
C2502 C2503 1.327 . S
C2503 H2497 0.950 . S
C2503 C2502 1.327 . S
C2503 C2507 1.429 . S
C2504 C2487 1.574 . S
C2504 H2498 0.949 . S
C2504 C2508 1.368 . S
C2505 C2486 1.429 . S
C2505 C2499 1.429 . S
C2505 C2506 1.523 . S
C2506 C2487 1.368 . S
C2506 C2500 1.368 . S
C2506 C2505 1.523 . S
C2507 C2491 1.429 . S
C2507 C2503 1.429 . S
C2507 C2508 1.523 . S
C2508 C2492 1.368 . S
C2508 C2504 1.368 . S
C2508 C2507 1.523 . S
H2509 C2484 0.950 . S
H2510 C2486 0.950 . S
H2511 C2487 0.949 . S
H2512 C2489 0.950 . S
H2513 C2491 0.950 . S
C2514 C2515 1.349 . S
C2514 C2516 1.327 . S
C2514 H2539 0.950 . S
C2515 C2514 1.349 . S
C2515 C2531 1.349 . S
C2516 C2514 1.327 . S
C2516 C2535 1.429 . S
C2516 H2540 0.950 . S
C2517 C2534 1.574 . S
C2517 C2536 1.368 . S
C2517 H2541 0.949 . S
H2518 C2522 0.949 . S
C2519 C2520 1.349 . S
C2519 C2521 1.327 . S
C2519 H2542 0.950 . S
C2520 C2519 1.349 . S
C2520 C2532 1.349 . S
C2521 C2519 1.327 . S
C2521 C2537 1.429 . S
C2521 H2543 0.950 . S
C2522 H2518 0.949 . S
C2522 C2530 1.574 . S
C2522 C2538 1.368 . S
H2523 C2531 0.950 . S
H2524 C2529 0.950 . S
H2525 C2530 0.949 . S
H2526 C2532 0.950 . S
H2527 C2533 0.950 . S
H2528 C2534 0.949 . S
C2529 H2524 0.950 . S
C2529 C2531 1.327 . S
C2529 C2535 1.429 . S
C2530 C2522 1.574 . S
C2530 H2525 0.949 . S
C2530 C2536 1.368 . S
C2531 C2515 1.349 . S
C2531 H2523 0.950 . S
C2531 C2529 1.327 . S
C2532 C2520 1.349 . S
C2532 H2526 0.950 . S
C2532 C2533 1.327 . S
C2533 H2527 0.950 . S
C2533 C2532 1.327 . S
C2533 C2537 1.429 . S
C2534 C2517 1.574 . S
C2534 H2528 0.949 . S
C2534 C2538 1.368 . S
C2535 C2516 1.429 . S
C2535 C2529 1.429 . S
C2535 C2536 1.523 . S
C2536 C2517 1.368 . S
C2536 C2530 1.368 . S
C2536 C2535 1.523 . S
C2537 C2521 1.429 . S
C2537 C2533 1.429 . S
C2537 C2538 1.523 . S
C2538 C2522 1.368 . S
C2538 C2534 1.368 . S
C2538 C2537 1.523 . S
H2539 C2514 0.950 . S
H2540 C2516 0.950 . S
H2541 C2517 0.949 . S
H2542 C2519 0.950 . S
H2543 C2521 0.950 . S
C2544 C2545 1.349 . S
C2544 C2546 1.327 . S
C2544 H2569 0.950 . S
C2545 C2544 1.349 . S
C2545 C2561 1.349 . S
C2546 C2544 1.327 . S
C2546 C2565 1.429 . S
C2546 H2570 0.950 . S
C2547 C2564 1.574 . S
C2547 C2566 1.368 . S
C2547 H2571 0.949 . S
H2548 C2552 0.949 . S
C2549 C2550 1.349 . S
C2549 C2551 1.327 . S
C2549 H2572 0.950 . S
C2550 C2549 1.349 . S
C2550 C2562 1.349 . S
C2551 C2549 1.327 . S
C2551 C2567 1.429 . S
C2551 H2573 0.950 . S
C2552 H2548 0.949 . S
C2552 C2560 1.574 . S
C2552 C2568 1.368 . S
H2553 C2561 0.950 . S
H2554 C2559 0.950 . S
H2555 C2560 0.949 . S
H2556 C2562 0.950 . S
H2557 C2563 0.950 . S
H2558 C2564 0.949 . S
C2559 H2554 0.950 . S
C2559 C2561 1.327 . S
C2559 C2565 1.429 . S
C2560 C2552 1.574 . S
C2560 H2555 0.949 . S
C2560 C2566 1.368 . S
C2561 C2545 1.349 . S
C2561 H2553 0.950 . S
C2561 C2559 1.327 . S
C2562 C2550 1.349 . S
C2562 H2556 0.950 . S
C2562 C2563 1.327 . S
C2563 H2557 0.950 . S
C2563 C2562 1.327 . S
C2563 C2567 1.429 . S
C2564 C2547 1.574 . S
C2564 H2558 0.949 . S
C2564 C2568 1.368 . S
C2565 C2546 1.429 . S
C2565 C2559 1.429 . S
C2565 C2566 1.523 . S
C2566 C2547 1.368 . S
C2566 C2560 1.368 . S
C2566 C2565 1.523 . S
C2567 C2551 1.429 . S
C2567 C2563 1.429 . S
C2567 C2568 1.523 . S
C2568 C2552 1.368 . S
C2568 C2564 1.368 . S
C2568 C2567 1.523 . S
H2569 C2544 0.950 . S
H2570 C2546 0.950 . S
H2571 C2547 0.949 . S
H2572 C2549 0.950 . S
H2573 C2551 0.950 . S
C955 C151 1.046 . S
C960 C265 1.021 . S
C985 C159 1.728 . S
C990 C349 1.840 . S
C1015 C137 1.292 . S
C1020 C429 1.435 . S
C1045 C126 1.249 . S
C1050 C345 1.402 1_556 S
C1080 C433 1.786 . S
C1075 C104 1.684 . S
C1105 C118 1.000 . S
C1110 C261 0.990 1_556 S
C1140 C254 1.332 . S
C1135 C129 1.386 . S
C1170 C338 1.560 . S
C1165 C107 1.630 . S
C1195 C115 1.250 . S
C1200 C440 1.433 . S
C1225 C148 1.232 . S
C1230 C356 1.397 . S
C1255 C162 1.575 . S
C1260 C422 1.500 . S
C1290 C272 1.322 . S
C1285 C140 1.344 . S
C1320 C517 1.021 . S
C1315 C19 1.046 . S
C1345 C27 1.728 . S
C1350 C601 1.840 . S
C1375 C5 1.292 . S
C1380 C681 1.435 . S
C1405 C192 1.250 . S
C1410 C597 1.402 . S
C1435 C170 1.683 . S
C1440 C685 1.786 . S
C1465 C184 1.000 . S
C1470 C513 1.000 . S
C1495 C195 1.386 . S
C1500 C506 1.332 . S
C1525 C173 1.630 . S
C1530 C590 1.560 . S
C1560 C692 1.433 . S
C1555 C181 1.250 . S
C1585 C16 1.232 . S
C1590 C608 1.397 . S
C1620 C674 1.500 . S
C1615 C30 1.575 . S
C1645 C8 1.344 . S
C1650 C524 1.322 . S
C1680 C769 1.021 . S
C1675 C85 1.046 . S
C1705 C93 1.728 . S
C1710 C853 1.840 . S
C1740 C933 1.435 . S
C1735 C71 1.293 . S
C1770 C849 1.402 . S
C1765 C60 1.250 . S
C1800 C937 1.786 . S
C1795 C38 1.683 . S
C1825 C52 1.000 . S
C1830 C765 1.000 . S
C1855 C63 1.386 . S
C1860 C758 1.332 . S
C1885 C41 1.630 . S
C1890 C842 1.560 . S
C1920 C944 1.433 . S
C1915 C49 1.250 . S
C1945 C82 1.232 . S
C1950 C860 1.397 . S
C1975 C96 1.575 . S
C1980 C926 1.500 . S
C2005 C74 1.345 . S
C2010 C776 1.323 . S
C2035 C172 1.627 . S
C2040 C268 1.518 . S
C2070 C352 1.182 . S
C2065 C183 1.269 . S
C2095 C194 1.468 . S
C2100 C424 1.341 . S
C2125 C73 1.514 . S
C2130 C340 1.374 . S
C2155 C84 1.229 . S
C2160 C436 1.147 . S
C2190 C256 1.498 . S
C2185 C95 1.616 . S
C2215 C40 1.627 . S
C2220 C520 1.518 . S
C2245 C51 1.269 . S
C2250 C604 1.182 . S
C2275 C62 1.468 . S
C2280 C676 1.341 . S
C2305 C139 1.514 . S
C2310 C592 1.374 . S
C2340 C688 1.147 . S
C2335 C150 1.229 . S
C2365 C161 1.616 . S
C2370 C508 1.498 . S
C2395 C106 1.627 . S
C2400 C772 1.518 . S
C2425 C117 1.269 . S
C2430 C856 1.182 . S
C2460 C928 1.341 . S
C2455 C128 1.468 . S
C2485 C7 1.514 . S
C2490 C844 1.374 . S
C2515 C18 1.229 . S
C2520 C940 1.147 . S
C2545 C29 1.616 . S
C2550 C760 1.498 . S
