# Generated by pormake.
# Topology anh, (6,3)-cn, num edge types: 1
# Building blocks:
#     Node 0, Type 0, BuildingBlock: PAMTOO_clean_sbu_0, # of connection points: 6
#     Node 1, Type 0, BuildingBlock: PAMTOO_clean_sbu_0, # of connection points: 6
#     Node 2, Type 0, BuildingBlock: PAMTOO_clean_sbu_0, # of connection points: 6
#     Node 3, Type 1, BuildingBlock: OLANEW_clean_sbu_2, # of connection points: 3
#     Node 4, Type 1, BuildingBlock: OLANEW_clean_sbu_2, # of connection points: 3
#     Node 5, Type 1, BuildingBlock: OLANEW_clean_sbu_2, # of connection points: 3
#     Node 6, Type 1, BuildingBlock: OLANEW_clean_sbu_2, # of connection points: 3
#     Node 7, Type 1, BuildingBlock: OLANEW_clean_sbu_2, # of connection points: 3
#     Node 8, Type 1, BuildingBlock: OLANEW_clean_sbu_2, # of connection points: 3
#     Edge 9, Type (0, 1), BuildingBlock: AJUNOK_clean_linker_0, # of connection points: 2
#     Edge 10, Type (0, 1), BuildingBlock: AJUNOK_clean_linker_0, # of connection points: 2
#     Edge 11, Type (0, 1), BuildingBlock: AJUNOK_clean_linker_0, # of connection points: 2
#     Edge 12, Type (0, 1), BuildingBlock: AJUNOK_clean_linker_0, # of connection points: 2
#     Edge 13, Type (0, 1), BuildingBlock: AJUNOK_clean_linker_0, # of connection points: 2
#     Edge 14, Type (0, 1), BuildingBlock: AJUNOK_clean_linker_0, # of connection points: 2
#     Edge 15, Type (0, 1), BuildingBlock: AJUNOK_clean_linker_0, # of connection points: 2
#     Edge 16, Type (0, 1), BuildingBlock: AJUNOK_clean_linker_0, # of connection points: 2
#     Edge 17, Type (0, 1), BuildingBlock: AJUNOK_clean_linker_0, # of connection points: 2
#     Edge 18, Type (0, 1), BuildingBlock: AJUNOK_clean_linker_0, # of connection points: 2
#     Edge 19, Type (0, 1), BuildingBlock: AJUNOK_clean_linker_0, # of connection points: 2
#     Edge 20, Type (0, 1), BuildingBlock: AJUNOK_clean_linker_0, # of connection points: 2
#     Edge 21, Type (0, 1), BuildingBlock: AJUNOK_clean_linker_0, # of connection points: 2
#     Edge 22, Type (0, 1), BuildingBlock: AJUNOK_clean_linker_0, # of connection points: 2
#     Edge 23, Type (0, 1), BuildingBlock: AJUNOK_clean_linker_0, # of connection points: 2
#     Edge 24, Type (0, 1), BuildingBlock: AJUNOK_clean_linker_0, # of connection points: 2
#     Edge 25, Type (0, 1), BuildingBlock: AJUNOK_clean_linker_0, # of connection points: 2
#     Edge 26, Type (0, 1), BuildingBlock: AJUNOK_clean_linker_0, # of connection points: 2
# Relax obj value: 0.197
# Max RMSD: 0.167
# Mean RMSD: 0.125
data_MOF--net-anh--node1-PAMTOO_clean_sbu_0--node2-OLANEW_clean_sbu_2--edge1-AJUNOK_clean_linker_0
_symmetry_space_group_name_H-M    P1
_symmetry_Int_Tables_number       1
_symmetry_cell_setting            triclinic
loop_
_symmetry_equiv_pos_as_xyz
'x, y, z'
_cell_length_a     28.960015
_cell_length_b     25.49153
_cell_length_c     37.595033
_cell_angle_alpha  89.56696
_cell_angle_beta   95.015111
_cell_angle_gamma 104.90499
loop_
_atom_site_label
_atom_site_type_symbol
_atom_site_fract_x
_atom_site_fract_y
_atom_site_fract_z
_atom_type_partial_charge
Dy0 Dy 0.04745 0.61799 0.12796 0.0
Dy1 Dy 1.0115 0.48545 0.11277 0.0
C2 C 0.02225 0.5707 0.05102 0.0
O3 O 0.96947 0.59766 0.13801 0.0
O4 O 0.94385 0.51343 0.1105 0.0
O5 O 0.07699 0.69691 0.10639 0.0
O6 O 0.06167 0.68967 0.16182 0.0
O7 O 1.00856 0.49903 0.171 0.0
O8 O 0.0665 0.57932 0.17841 0.0
O9 O 0.09188 0.5013 0.1193 0.0
O10 O 0.11195 0.59375 0.11145 0.0
O11 O 1.00662 0.40253 0.12874 0.0
O12 O 0.97189 0.4191 0.07803 0.0
C13 C 0.9348 0.55604 0.12521 0.0
O14 O 1.00962 0.60198 0.07363 0.0
O15 O 0.03467 0.52701 0.06222 0.0
C16 C 0.1314 0.7546 0.14779 0.0
C17 C 0.2256 0.81802 0.16594 0.0
C18 C 0.21655 0.76171 0.16042 0.0
C19 C 0.16982 0.73024 0.1516 0.0
C20 C 0.14021 0.81078 0.15306 0.0
C21 C 0.187 0.84232 0.16212 0.0
C22 C 0.08256 0.7215 0.13735 0.0
C23 C 0.03992 0.53511 0.19143 0.0
C24 C 0.12381 0.54718 0.11384 0.0
C25 C 0.92982 0.34498 0.1112 0.0
C26 C 0.84349 0.27776 0.1333 0.0
C27 C 0.88812 0.2697 0.14637 0.0
C28 C 0.93083 0.30295 0.13542 0.0
C29 C 0.88509 0.35212 0.09744 0.0
C30 C 0.84248 0.31871 0.10822 0.0
C31 C 0.97531 0.38256 0.10196 0.0
H32 H 0.24557 0.74193 0.16339 0.0
H33 H 0.16366 0.68687 0.14768 0.0
H34 H 0.111 0.83026 0.15 0.0
H35 H 0.1931 0.88575 0.16577 0.0
H36 H 0.89006 0.23845 0.1657 0.0
H37 H 0.96474 0.29651 0.14643 0.0
H38 H 0.88285 0.38398 0.07865 0.0
H39 H 0.80866 0.32505 0.09692 0.0
Dy40 Dy 0.49772 0.98417 0.49882 0.0
Dy41 Dy 0.61529 0.02453 0.51871 0.0
C42 C 0.54128 -0.00046 0.57971 0.0
O43 O 0.51425 0.07202 0.51427 0.0
O44 O 0.59124 0.09614 0.49829 0.0
O45 O 0.4236 0.97305 0.50957 0.0
O46 O 0.44098 0.94902 0.45829 0.0
O47 O 0.60192 0.99727 0.46154 0.0
O48 O 0.53189 0.02185 0.45061 0.0
O49 O 0.59442 0.9392 0.53692 0.0
O50 O 0.52539 0.90988 0.49959 0.0
O51 O 0.68761 0.0214 0.5106 0.0
O52 O 0.67552 0.07859 0.54866 0.0
C53 C 0.55293 0.10939 0.50728 0.0
O54 O 0.50791 0.96945 0.55718 0.0
O55 O 0.58128 0.0306 0.56917 0.0
C56 C 0.37004 0.89681 0.47955 0.0
C57 C 0.3024 0.79471 0.47479 0.0
C58 C 0.3429 0.80401 0.49979 0.0
C59 C 0.37656 0.85464 0.50206 0.0
C60 C 0.32912 0.88815 0.45532 0.0
C61 C 0.29554 0.83764 0.453 0.0
C62 C 0.40704 0.94855 0.47896 0.0
C63 C 0.56995 0.01108 0.43922 0.0
C64 C 0.55947 0.89998 0.52208 0.0
C65 C 0.7422 0.10806 0.5159 0.0
C66 C 0.80772 0.19812 0.48904 0.0
C67 C 0.76122 0.17901 0.47199 0.0
C68 C 0.72869 0.13446 0.48536 0.0
C69 C 0.78864 0.12654 0.53279 0.0
C70 C 0.82124 0.17117 0.51943 0.0
C71 C 0.70709 0.06352 0.53134 0.0
H72 H 0.34871 0.77206 0.5174 0.0
H73 H 0.408 0.86063 0.52094 0.0
H74 H 0.32369 0.92013 0.43756 0.0
H75 H 0.26488 0.83166 0.43338 0.0
H76 H 0.74978 0.19913 0.44863 0.0
H77 H 0.69277 0.12102 0.47217 0.0
H78 H 0.79955 0.10674 0.55649 0.0
H79 H 0.85709 0.18439 0.53272 0.0
Dy80 Dy 0.55849 0.52127 0.85853 0.0
Dy81 Dy 0.44242 0.47113 0.8442 0.0
C82 C 0.50884 0.49986 0.78004 0.0
O83 O 0.52753 0.59253 0.86359 0.0
O84 O 0.45447 0.55905 0.83222 0.0
O85 O 0.63024 0.53976 0.84224 0.0
O86 O 0.6182 0.5615 0.89569 0.0
O87 O 0.45951 0.50346 0.9005 0.0
O88 O 0.52975 0.47976 0.9072 0.0
O89 O 0.47067 0.39829 0.85555 0.0
O90 O 0.5492 0.43413 0.84417 0.0
O91 O 0.37362 0.43382 0.86365 0.0
O92 O 0.37863 0.45231 0.80759 0.0
C93 C 0.48816 0.5999 0.84652 0.0
O94 O 0.54082 0.53459 0.80089 0.0
O95 O 0.47369 0.46349 0.79287 0.0
C96 C 0.68953 0.53623 0.88826 0.0
C97 C 0.76956 0.49665 0.90932 0.0
C98 C 0.77244 0.55239 0.91207 0.0
C99 C 0.73272 0.57203 0.90148 0.0
C100 C 0.68566 0.4802 0.88727 0.0
C101 C 0.72557 0.46049 0.89754 0.0
C102 C 0.64984 0.55817 0.87376 0.0
C103 C 0.49387 0.49144 0.92135 0.0
C104 C 0.51296 0.39224 0.84905 0.0
C105 C 0.31333 0.46895 0.83319 0.0
C106 C 0.25035 0.53685 0.82666 0.0
C107 C 0.28722 0.54524 0.85456 0.0
C108 C 0.31862 0.51184 0.85767 0.0
C109 C 0.27597 0.45967 0.80578 0.0
C110 C 0.24479 0.49348 0.80244 0.0
C111 C 0.35026 0.43886 0.83302 0.0
H112 H 0.8061 0.58109 0.92081 0.0
H113 H 0.73619 0.61536 0.90252 0.0
H114 H 0.65222 0.45203 0.87758 0.0
H115 H 0.72245 0.41733 0.89545 0.0
H116 H 0.29221 0.5782 0.87371 0.0
H117 H 0.34783 0.52057 0.87861 0.0
H118 H 0.27205 0.42752 0.78618 0.0
H119 H 0.21738 0.48676 0.78023 0.0
O120 O 0.58405 0.06543 0.26911 0.0
Cd121 Cd 0.58144 0.07208 0.20387 0.0
O122 O 0.56164 0.97598 0.26916 0.0
Cd123 Cd 0.52946 0.96724 0.21411 0.0
O124 O 0.45676 0.93388 0.18875 0.0
C125 C 0.42338 0.93627 0.20808 0.0
O126 O 0.43535 0.95985 0.2397 0.0
C127 C 0.57734 0.02101 0.28595 0.0
C128 C 0.66619 0.1405 0.18161 0.0
O129 O 0.63085 0.15915 0.18861 0.0
O130 O 0.66145 0.08936 0.18509 0.0
O131 O 0.55174 0.44543 0.62101 0.0
Cd132 Cd 0.55748 0.43896 0.55685 0.0
O133 O 0.51528 0.50779 0.60482 0.0
Cd134 Cd 0.48679 0.57795 0.61067 0.0
O135 O 0.49246 0.65923 0.59009 0.0
C136 C 0.53389 0.68457 0.58182 0.0
O137 O 0.56927 0.66111 0.58724 0.0
C138 C 0.53058 0.4807 0.62953 0.0
C139 C 0.55686 0.3345 0.53586 0.0
O140 O 0.59633 0.37025 0.54428 0.0
O141 O 0.51755 0.34839 0.53735 0.0
O142 O 0.05801 0.71387 0.90791 0.0
Cd143 Cd 0.07542 0.75132 0.84911 0.0
O144 O 0.06496 0.63707 0.88572 0.0
Cd145 Cd 0.05024 0.54852 0.88776 0.0
O146 O 0.98021 0.49171 0.88916 0.0
C147 C 0.96286 0.48053 0.919 0.0
O148 O 0.99118 0.49499 0.9484 0.0
C149 C 0.0577 0.66417 0.91197 0.0
C150 C 0.13171 0.68846 0.82523 0.0
O151 O 0.15067 0.73343 0.84208 0.0
O152 O 0.0863 0.67569 0.81697 0.0
O153 O 0.08106 0.48457 0.36091 0.0
Cd154 Cd 0.09459 0.48854 0.42622 0.0
O155 O 0.01983 0.52075 0.36176 0.0
Cd156 Cd 1.00528 0.49021 0.41526 0.0
O157 O 0.96264 0.42508 0.4463 0.0
C158 C 0.9388 0.38342 0.42821 0.0
O159 O 0.94243 0.38277 0.39362 0.0
C160 C 0.05049 0.5062 0.3446 0.0
C161 C 0.16327 0.58521 0.44732 0.0
O162 O 0.17555 0.54146 0.44139 0.0
O163 O 0.11838 0.58299 0.44387 0.0
O164 O 0.49211 0.94826 0.74516 0.0
Cd165 Cd 0.4741 0.93025 0.80718 0.0
O166 O 0.51191 0.03794 0.74727 0.0
Cd167 Cd 0.49722 0.05637 0.80112 0.0
O168 O 0.49414 0.13147 0.82771 0.0
C169 C 0.52861 0.17245 0.82262 0.0
O170 O 0.56329 0.16531 0.80442 0.0
C171 C 0.50687 0.99369 0.73018 0.0
C172 C 0.47495 0.82281 0.82336 0.0
O173 O 0.43666 0.83471 0.81018 0.0
O174 O 0.51272 0.86193 0.82956 0.0
O175 O 0.57456 0.52887 0.08366 0.0
Cd176 Cd 0.63285 0.54709 0.13801 0.0
O177 O 0.50235 0.53266 0.09744 0.0
Cd178 Cd 0.42271 0.52499 0.09185 0.0
O179 O 0.34418 0.51674 0.09673 0.0
C180 C 0.32627 0.55763 0.09537 0.0
O181 O 0.35486 0.60572 0.09028 0.0
C182 C 0.53018 0.52523 0.07438 0.0
C183 C 0.73125 0.55193 0.13042 0.0
O184 O 0.70036 0.50663 0.13434 0.0
O185 O 0.71565 0.5947 0.12887 0.0
C186 C 0.20819 0.59653 0.10191 0.0
C187 C 0.17498 0.5474 0.10925 0.0
C188 C 0.25636 0.59895 0.09741 0.0
C189 C 0.2742 0.55241 0.09993 0.0
H190 H 0.19708 0.63394 0.09955 0.0
H191 H 0.27983 0.63809 0.09189 0.0
S192 S 0.20275 0.41316 0.11861 0.0
N193 N 0.16391 0.45056 0.11876 0.0
N194 N 0.25428 0.45518 0.11026 0.0
C195 C 0.24152 0.50281 0.10715 0.0
C196 C 0.19217 0.50031 0.11179 0.0
C197 C 0.84906 0.24723 0.43813 0.0
C198 C 0.84205 0.2456 0.47467 0.0
C199 C 0.88069 0.29166 0.42364 0.0
C200 C 0.90652 0.33661 0.44504 0.0
H201 H 0.83016 0.21362 0.42056 0.0
H202 H 0.88465 0.29065 0.3953 0.0
S203 S 0.8996 0.35292 0.54239 0.0
N204 N 0.86251 0.29309 0.53197 0.0
N205 N 0.92223 0.37668 0.5049 0.0
C206 C 0.89977 0.3355 0.48174 0.0
C207 C 0.86755 0.29002 0.4965 0.0
C208 C 0.51991 0.70091 0.85465 0.0
C209 C 0.48253 0.65614 0.84194 0.0
C210 C 0.5168 0.7544 0.84895 0.0
C211 C 0.47609 0.7656 0.83044 0.0
H212 H 0.55234 0.69481 0.86872 0.0
H213 H 0.54687 0.78725 0.85895 0.0
S214 S 0.36762 0.6632 0.79209 0.0
N215 N 0.40282 0.62694 0.8104 0.0
N216 N 0.39712 0.72721 0.79976 0.0
C217 C 0.438 0.7213 0.81812 0.0
C218 C 0.44119 0.66674 0.82384 0.0
C219 C 0.84688 0.50762 0.12343 0.0
C220 C 0.88335 0.55663 0.12678 0.0
C221 C 0.79818 0.50658 0.12458 0.0
C222 C 0.78337 0.55458 0.1286 0.0
H223 H 0.85597 0.46936 0.12024 0.0
H224 H 0.77191 0.46764 0.12218 0.0
S225 S 0.86418 0.69398 0.13778 0.0
N226 N 0.90081 0.65466 0.13401 0.0
N227 N 0.80966 0.65286 0.13571 0.0
C228 C 0.81939 0.60397 0.13168 0.0
C229 C 0.86912 0.60495 0.13093 0.0
C230 C 0.2182 0.73535 0.46832 0.0
C231 C 0.26787 0.7402 0.47038 0.0
C232 C 0.18483 0.68499 0.4617 0.0
C233 C 0.19969 0.6373 0.45666 0.0
H234 H 0.20496 0.77093 0.47163 0.0
H235 H 0.14703 0.68374 0.45997 0.0
S236 S 0.326 0.62816 0.45951 0.0
N237 N 0.33042 0.69309 0.46688 0.0
N238 N 0.26797 0.59838 0.45481 0.0
C239 C 0.24938 0.64147 0.45927 0.0
C240 C 0.28335 0.69284 0.46607 0.0
C241 C 0.4803 0.29079 0.8488 0.0
C242 C 0.51927 0.33634 0.84539 0.0
C243 C 0.48413 0.23784 0.84279 0.0
C244 C 0.52706 0.22813 0.833 0.0
H245 H 0.44604 0.29592 0.85539 0.0
H246 H 0.45265 0.20444 0.84476 0.0
S247 S 0.64134 0.33252 0.82386 0.0
N248 N 0.6034 0.36743 0.83384 0.0
N249 N 0.61055 0.26828 0.82288 0.0
C250 C 0.56691 0.27302 0.83095 0.0
C251 C 0.56304 0.32694 0.83704 0.0
C252 C 0.50922 0.80703 0.53342 0.0
C253 C 0.55488 0.84375 0.53443 0.0
C254 C 0.50278 0.75577 0.54887 0.0
C255 C 0.54187 0.73883 0.56541 0.0
H256 H 0.47784 0.81851 0.52162 0.0
H257 H 0.46682 0.72928 0.54786 0.0
S258 S 0.6693 0.81852 0.57335 0.0
N259 N 0.64011 0.85889 0.55218 0.0
N260 N 0.62822 0.76223 0.58074 0.0
C261 C 0.58796 0.7745 0.56565 0.0
C262 C 0.59441 0.82701 0.5503 0.0
C263 C 0.84462 0.49411 0.94654 0.0
C264 C 0.81403 0.47823 0.91523 0.0
C265 C 0.89185 0.48919 0.94909 0.0
C266 C 0.91029 0.46916 0.92011 0.0
H267 H 0.83284 0.51348 0.96835 0.0
H268 H 0.91503 0.5055 0.97278 0.0
S269 S 0.84223 0.41427 0.83443 0.0
N270 N 0.80338 0.43547 0.85647 0.0
N271 N 0.89234 0.42649 0.86113 0.0
C272 C 0.87869 0.44858 0.88997 0.0
C273 C 0.83045 0.4531 0.88754 0.0
C274 C 0.31298 0.8466 0.15599 0.0
C275 C 0.27528 0.85093 0.17603 0.0
C276 C 0.36052 0.87547 0.16594 0.0
C277 C 0.37231 0.90938 0.19657 0.0
H278 H 0.30566 0.82049 0.13245 0.0
H279 H 0.38829 0.87023 0.14983 0.0
S280 S 0.28623 0.93451 0.25812 0.0
N281 N 0.25259 0.89166 0.22773 0.0
N282 N 0.34162 0.94608 0.24655 0.0
C283 C 0.33466 0.91454 0.21658 0.0
C284 C 0.28627 0.88533 0.20628 0.0
C285 C 0.51236 0.18277 0.51793 0.0
C286 C 0.5543 0.16764 0.51136 0.0
C287 C 0.51337 0.23698 0.5249 0.0
C288 C 0.55644 0.27823 0.5259 0.0
H289 H 0.47845 0.15246 0.51828 0.0
H290 H 0.48023 0.24629 0.53042 0.0
S291 S 0.67599 0.26091 0.50844 0.0
N292 N 0.63999 0.19912 0.50469 0.0
N293 N 0.64177 0.30072 0.51794 0.0
C294 C 0.59846 0.26401 0.51841 0.0
C295 C 0.59741 0.20884 0.51108 0.0
C296 C 0.23961 0.631 0.82537 0.0
C297 C 0.21905 0.57469 0.82247 0.0
C298 C 0.21104 0.66774 0.82413 0.0
C299 C 0.16073 0.64963 0.81991 0.0
H300 H 0.27813 0.64687 0.8294 0.0
H301 H 0.22859 0.7106 0.82759 0.0
S302 S 0.08906 0.50611 0.81088 0.0
N303 N 0.14535 0.50243 0.81494 0.0
N304 N 0.09142 0.57148 0.81209 0.0
C305 C 0.13964 0.59346 0.81573 0.0
C306 C 0.16885 0.55599 0.81717 0.0
C307 C 0.79005 0.18697 0.14739 0.0
C308 C 0.79814 0.24375 0.14598 0.0
C309 C 0.74743 0.1541 0.15897 0.0
C310 C 0.71111 0.17662 0.16968 0.0
H311 H 0.81663 0.16764 0.13904 0.0
H312 H 0.74292 0.11058 0.15929 0.0
S313 S 0.71608 0.32368 0.17303 0.0
N314 N 0.76736 0.32142 0.15791 0.0
N315 N 0.6871 0.25991 0.17915 0.0
C316 C 0.71903 0.23352 0.16875 0.0
C317 C 0.7625 0.26696 0.15703 0.0
C318 C 1.00213 0.62442 0.99894 0.0
C319 C 0.0291 0.58991 0.01423 0.0
C320 C 1.01125 0.64799 0.96562 0.0
C321 C 0.04754 0.63769 0.94643 0.0
H322 H 0.9741 0.63384 0.01302 0.0
H323 H 0.98982 0.67451 0.95483 0.0
S324 S 0.13049 0.55338 0.97564 0.0
N325 N 0.09479 0.54826 0.00813 0.0
N326 N 0.11217 0.59304 0.94568 0.0
C327 C 0.07487 0.60346 0.96139 0.0
C328 C 0.06556 0.57937 0.99526 0.0
C329 C 0.56383 0.05751 0.38112 0.0
C330 C 0.57686 0.01563 0.4008 0.0
C331 C 0.56692 0.0608 0.34413 0.0
C332 C 0.58185 0.02139 0.32542 0.0
H333 H 0.55067 0.08769 0.39436 0.0
H334 H 0.55538 0.09297 0.3299 0.0
S335 S 0.62163 0.90481 0.36488 0.0
N336 N 0.60754 0.93557 0.39931 0.0
N337 N 0.61158 0.94044 0.32949 0.0
C338 C 0.59599 0.98 0.34493 0.0
C339 C 0.59401 0.97749 0.38273 0.0
C340 C 0.55903 0.49936 0.72959 0.0
C341 C 0.51432 0.49918 0.74149 0.0
C342 C 0.56417 0.49407 0.69313 0.0
C343 C 0.52516 0.49033 0.66738 0.0
H344 H 0.5898 0.50163 0.74867 0.0
H345 H 0.59883 0.49264 0.68503 0.0
S346 S 0.40126 0.49071 0.68485 0.0
N347 N 0.43068 0.4959 0.72489 0.0
N348 N 0.44078 0.4882 0.65618 0.0
C349 C 0.48071 0.49201 0.67888 0.0
C350 C 0.47516 0.4958 0.71604 0.0
C351 C 0.50385 0.95252 0.6328 0.0
C352 C 0.53368 -0.00139 0.61817 0.0
C353 C 0.49616 0.95079 0.66918 0.0
C354 C 0.51733 0.99545 0.69217 0.0
H355 H 0.48656 0.91729 0.61609 0.0
H356 H 0.47275 0.91449 0.67918 0.0
S357 S 0.59846 0.12597 0.66699 0.0
N358 N 0.58468 0.08992 0.6295 0.0
N359 N 0.56992 0.08697 0.69762 0.0
C360 C 0.54731 0.04178 0.67783 0.0
C361 C 0.5556 0.04326 0.64093 0.0
C362 C 0.52479 0.46773 0.98151 0.0
C363 C 0.49528 0.49455 0.96086 0.0
C364 C 0.53331 0.47577 0.01848 0.0
C365 C 0.51271 0.51095 0.03656 0.0
H366 H 0.54285 0.44148 0.96889 0.0
H367 H 0.55767 0.45551 0.03291 0.0
S368 S 0.43085 0.58927 0.99531 0.0
N369 N 0.44328 0.55579 0.96148 0.0
N370 N 0.46015 0.57165 0.03122 0.0
C371 C 0.48126 0.53616 0.01664 0.0
C372 C 0.47232 0.52775 0.97872 0.0
C373 C 0.04539 0.57042 0.25368 0.0
C374 C 0.04391 0.5271 0.23031 0.0
C375 C 0.04729 0.56327 0.29076 0.0
C376 C 0.04953 0.51315 0.30563 0.0
H377 H 0.04389 0.60972 0.24319 0.0
H378 H 0.04742 0.59727 0.30793 0.0
S379 S 0.04807 0.38764 0.25592 0.0
N380 N 0.0448 0.43254 0.2245 0.0
N381 N 0.05071 0.41981 0.29434 0.0
C382 C 0.04914 0.46991 0.28258 0.0
C383 C 0.04568 0.4767 0.24483 0.0
loop_
_geom_bond_atom_site_label_1
_geom_bond_atom_site_label_2
_geom_bond_distance
_geom_bond_site_symmetry_2
_ccdc_geom_bond_type
Dy0 O3 2.307 1_455 S
Dy0 O5 2.395 . S
Dy0 O6 2.379 . S
Dy0 O8 2.339 . S
Dy0 O10 2.298 . S
Dy0 O14 2.275 . S
Dy0 C22 2.738 . S
Dy1 O4 2.298 . S
Dy1 O7 2.275 1_655 S
Dy1 O9 2.307 1_655 S
Dy1 O11 2.395 . S
Dy1 O12 2.379 . S
Dy1 O15 2.339 . S
Dy1 C31 2.738 . S
C2 O14 1.254 . S
C2 O15 1.257 1_455 S
O3 Dy0 2.307 1_655 S
O3 C13 1.266 . S
O4 Dy1 2.298 . S
O4 C13 1.236 . S
O5 Dy0 2.395 . S
O5 C22 1.255 . S
O6 Dy0 2.379 . S
O6 C22 1.249 . S
O7 Dy1 2.275 1_455 S
O7 C23 1.254 . S
O8 Dy0 2.339 . S
O8 C23 1.257 . S
O9 Dy1 2.307 1_455 S
O9 C24 1.266 . S
O10 Dy0 2.298 . S
O10 C24 1.236 . S
O11 Dy1 2.395 . S
O11 C31 1.255 . S
O12 Dy1 2.379 . S
O12 C31 1.249 . S
C13 O3 1.266 . S
C13 O4 1.236 . S
O14 Dy0 2.275 . S
O14 C2 1.254 . S
O15 Dy1 2.339 . S
O15 C2 1.257 1_655 S
C16 C19 1.344 . S
C16 C20 1.328 . S
C16 C22 1.516 . S
C17 C18 1.304 . S
C17 C21 1.323 . S
C18 C17 1.304 . S
C18 C19 1.371 . S
C18 H32 0.930 . S
C19 C16 1.344 . S
C19 C18 1.371 . S
C19 H33 0.931 . S
C20 C16 1.328 . S
C20 C21 1.433 . S
C20 H34 0.931 . S
C21 C17 1.323 . S
C21 C20 1.433 . S
C21 H35 0.933 . S
C22 Dy0 2.738 . S
C22 O5 1.255 . S
C22 O6 1.249 . S
C22 C16 1.516 . S
C23 O7 1.254 . S
C23 O8 1.257 . S
C24 O9 1.266 . S
C24 O10 1.236 . S
C25 C28 1.344 . S
C25 C29 1.328 . S
C25 C31 1.516 . S
C26 C27 1.304 . S
C26 C30 1.323 . S
C27 C26 1.304 . S
C27 C28 1.371 . S
C27 H36 0.930 . S
C28 C25 1.344 . S
C28 C27 1.371 . S
C28 H37 0.931 . S
C29 C25 1.328 . S
C29 C30 1.433 . S
C29 H38 0.931 . S
C30 C26 1.323 . S
C30 C29 1.433 . S
C30 H39 0.933 . S
C31 Dy1 2.738 . S
C31 O11 1.255 . S
C31 O12 1.249 . S
C31 C25 1.516 . S
H32 C18 0.930 . S
H33 C19 0.931 . S
H34 C20 0.931 . S
H35 C21 0.933 . S
H36 C27 0.930 . S
H37 C28 0.931 . S
H38 C29 0.931 . S
H39 C30 0.933 . S
Dy40 O43 2.307 1_565 S
Dy40 O45 2.395 . S
Dy40 O46 2.379 . S
Dy40 O48 2.339 1_565 S
Dy40 O50 2.298 . S
Dy40 O54 2.275 1_565 S
Dy40 C62 2.738 . S
Dy41 O44 2.298 . S
Dy41 O47 2.275 . S
Dy41 O49 2.307 1_545 S
Dy41 O51 2.395 . S
Dy41 O52 2.379 . S
Dy41 O55 2.339 . S
Dy41 C71 2.738 . S
C42 O54 1.254 . S
C42 O55 1.257 . S
O43 Dy40 2.307 1_545 S
O43 C53 1.266 . S
O44 Dy41 2.298 . S
O44 C53 1.236 . S
O45 Dy40 2.395 . S
O45 C62 1.255 . S
O46 Dy40 2.379 . S
O46 C62 1.249 . S
O47 Dy41 2.275 . S
O47 C63 1.254 . S
O48 Dy40 2.339 1_545 S
O48 C63 1.257 . S
O49 Dy41 2.307 1_565 S
O49 C64 1.266 . S
O50 Dy40 2.298 . S
O50 C64 1.236 . S
O51 Dy41 2.395 . S
O51 C71 1.255 . S
O52 Dy41 2.379 . S
O52 C71 1.249 . S
C53 O43 1.266 . S
C53 O44 1.236 . S
O54 Dy40 2.275 1_545 S
O54 C42 1.254 . S
O55 Dy41 2.339 . S
O55 C42 1.257 . S
C56 C59 1.344 . S
C56 C60 1.328 . S
C56 C62 1.516 . S
C57 C58 1.304 . S
C57 C61 1.323 . S
C58 C57 1.304 . S
C58 C59 1.371 . S
C58 H72 0.930 . S
C59 C56 1.344 . S
C59 C58 1.371 . S
C59 H73 0.931 . S
C60 C56 1.328 . S
C60 C61 1.433 . S
C60 H74 0.931 . S
C61 C57 1.323 . S
C61 C60 1.433 . S
C61 H75 0.933 . S
C62 Dy40 2.738 . S
C62 O45 1.255 . S
C62 O46 1.249 . S
C62 C56 1.516 . S
C63 O47 1.254 . S
C63 O48 1.257 . S
C64 O49 1.266 . S
C64 O50 1.236 . S
C65 C68 1.344 . S
C65 C69 1.328 . S
C65 C71 1.516 . S
C66 C67 1.304 . S
C66 C70 1.323 . S
C67 C66 1.304 . S
C67 C68 1.371 . S
C67 H76 0.930 . S
C68 C65 1.344 . S
C68 C67 1.371 . S
C68 H77 0.931 . S
C69 C65 1.328 . S
C69 C70 1.433 . S
C69 H78 0.931 . S
C70 C66 1.323 . S
C70 C69 1.433 . S
C70 H79 0.933 . S
C71 Dy41 2.738 . S
C71 O51 1.255 . S
C71 O52 1.249 . S
C71 C65 1.516 . S
H72 C58 0.930 . S
H73 C59 0.931 . S
H74 C60 0.931 . S
H75 C61 0.933 . S
H76 C67 0.930 . S
H77 C68 0.931 . S
H78 C69 0.931 . S
H79 C70 0.933 . S
Dy80 O83 2.307 . S
Dy80 O85 2.395 . S
Dy80 O86 2.379 . S
Dy80 O88 2.339 . S
Dy80 O90 2.298 . S
Dy80 O94 2.275 . S
Dy80 C102 2.738 . S
Dy81 O84 2.298 . S
Dy81 O87 2.275 . S
Dy81 O89 2.307 . S
Dy81 O91 2.395 . S
Dy81 O92 2.379 . S
Dy81 O95 2.339 . S
Dy81 C111 2.738 . S
C82 O94 1.254 . S
C82 O95 1.257 . S
O83 Dy80 2.307 . S
O83 C93 1.266 . S
O84 Dy81 2.298 . S
O84 C93 1.236 . S
O85 Dy80 2.395 . S
O85 C102 1.255 . S
O86 Dy80 2.379 . S
O86 C102 1.249 . S
O87 Dy81 2.275 . S
O87 C103 1.254 . S
O88 Dy80 2.339 . S
O88 C103 1.257 . S
O89 Dy81 2.307 . S
O89 C104 1.266 . S
O90 Dy80 2.298 . S
O90 C104 1.236 . S
O91 Dy81 2.395 . S
O91 C111 1.255 . S
O92 Dy81 2.379 . S
O92 C111 1.249 . S
C93 O83 1.266 . S
C93 O84 1.236 . S
O94 Dy80 2.275 . S
O94 C82 1.254 . S
O95 Dy81 2.339 . S
O95 C82 1.257 . S
C96 C99 1.344 . S
C96 C100 1.328 . S
C96 C102 1.516 . S
C97 C98 1.304 . S
C97 C101 1.323 . S
C98 C97 1.304 . S
C98 C99 1.371 . S
C98 H112 0.930 . S
C99 C96 1.344 . S
C99 C98 1.371 . S
C99 H113 0.931 . S
C100 C96 1.328 . S
C100 C101 1.433 . S
C100 H114 0.931 . S
C101 C97 1.323 . S
C101 C100 1.433 . S
C101 H115 0.933 . S
C102 Dy80 2.738 . S
C102 O85 1.255 . S
C102 O86 1.249 . S
C102 C96 1.516 . S
C103 O87 1.254 . S
C103 O88 1.257 . S
C104 O89 1.266 . S
C104 O90 1.236 . S
C105 C108 1.344 . S
C105 C109 1.328 . S
C105 C111 1.516 . S
C106 C107 1.304 . S
C106 C110 1.323 . S
C107 C106 1.304 . S
C107 C108 1.371 . S
C107 H116 0.930 . S
C108 C105 1.344 . S
C108 C107 1.371 . S
C108 H117 0.931 . S
C109 C105 1.328 . S
C109 C110 1.433 . S
C109 H118 0.931 . S
C110 C106 1.323 . S
C110 C109 1.433 . S
C110 H119 0.933 . S
C111 Dy81 2.738 . S
C111 O91 1.255 . S
C111 O92 1.249 . S
C111 C105 1.516 . S
H112 C98 0.930 . S
H113 C99 0.931 . S
H114 C100 0.931 . S
H115 C101 0.933 . S
H116 C107 0.930 . S
H117 C108 0.931 . S
H118 C109 0.931 . S
H119 C110 0.933 . S
O120 Cd121 2.300 . S
O120 C127 1.275 . S
Cd121 O120 2.300 . S
Cd121 O129 2.381 . S
Cd121 O130 2.378 . S
O122 Cd123 2.385 . S
O122 C127 1.255 1_565 S
Cd123 O122 2.385 . S
Cd123 O124 2.317 . S
O124 Cd123 2.317 . S
O124 C125 1.232 . S
C125 O124 1.232 . S
C125 O126 1.218 . S
O126 C125 1.218 . S
C127 O120 1.275 . S
C127 O122 1.255 1_545 S
C128 O129 1.258 . S
C128 O130 1.256 . S
O129 Cd121 2.381 . S
O129 C128 1.258 . S
O130 Cd121 2.378 . S
O130 C128 1.256 . S
O131 Cd132 2.300 . S
O131 C138 1.275 . S
Cd132 O131 2.300 . S
Cd132 O140 2.381 . S
Cd132 O141 2.378 . S
O133 Cd134 2.385 . S
O133 C138 1.255 . S
Cd134 O133 2.385 . S
Cd134 O135 2.317 . S
O135 Cd134 2.317 . S
O135 C136 1.232 . S
C136 O135 1.232 . S
C136 O137 1.218 . S
O137 C136 1.218 . S
C138 O131 1.275 . S
C138 O133 1.255 . S
C139 O140 1.258 . S
C139 O141 1.256 . S
O140 Cd132 2.381 . S
O140 C139 1.258 . S
O141 Cd132 2.378 . S
O141 C139 1.256 . S
O142 Cd143 2.300 . S
O142 C149 1.275 . S
Cd143 O142 2.300 . S
Cd143 O151 2.381 . S
Cd143 O152 2.378 . S
O144 Cd145 2.385 . S
O144 C149 1.255 1_655 S
Cd145 O144 2.385 . S
Cd145 O146 2.317 . S
O146 Cd145 2.317 . S
O146 C147 1.232 . S
C147 O146 1.232 . S
C147 O148 1.218 . S
O148 C147 1.218 . S
C149 O142 1.275 . S
C149 O144 1.255 1_455 S
C150 O151 1.258 . S
C150 O152 1.256 . S
O151 Cd143 2.381 . S
O151 C150 1.258 . S
O152 Cd143 2.378 . S
O152 C150 1.256 . S
O153 Cd154 2.300 . S
O153 C160 1.275 . S
Cd154 O153 2.300 . S
Cd154 O162 2.381 . S
Cd154 O163 2.378 . S
O155 Cd156 2.385 . S
O155 C160 1.255 1_655 S
Cd156 O155 2.385 . S
Cd156 O157 2.317 . S
O157 Cd156 2.317 . S
O157 C158 1.232 . S
C158 O157 1.232 . S
C158 O159 1.218 . S
O159 C158 1.218 . S
C160 O153 1.275 . S
C160 O155 1.255 1_455 S
C161 O162 1.258 . S
C161 O163 1.256 . S
O162 Cd154 2.381 . S
O162 C161 1.258 . S
O163 Cd154 2.378 . S
O163 C161 1.256 . S
O164 Cd165 2.300 . S
O164 C171 1.275 1_565 S
Cd165 O164 2.300 . S
Cd165 O173 2.381 . S
Cd165 O174 2.378 . S
O166 Cd167 2.385 . S
O166 C171 1.255 . S
Cd167 O166 2.385 . S
Cd167 O168 2.317 . S
O168 Cd167 2.317 . S
O168 C169 1.232 . S
C169 O168 1.232 . S
C169 O170 1.218 . S
O170 C169 1.218 . S
C171 O164 1.275 1_545 S
C171 O166 1.255 . S
C172 O173 1.258 . S
C172 O174 1.256 . S
O173 Cd165 2.381 . S
O173 C172 1.258 . S
O174 Cd165 2.378 . S
O174 C172 1.256 . S
O175 Cd176 2.300 . S
O175 C182 1.275 . S
Cd176 O175 2.300 . S
Cd176 O184 2.381 . S
Cd176 O185 2.378 . S
O177 Cd178 2.385 . S
O177 C182 1.255 . S
Cd178 O177 2.385 . S
Cd178 O179 2.317 . S
O179 Cd178 2.317 . S
O179 C180 1.232 . S
C180 O179 1.232 . S
C180 O181 1.218 . S
O181 C180 1.218 . S
C182 O175 1.275 . S
C182 O177 1.255 . S
C183 O184 1.258 . S
C183 O185 1.256 . S
O184 Cd176 2.381 . S
O184 C183 1.258 . S
O185 Cd176 2.378 . S
O185 C183 1.256 . S
C186 C187 1.369 . S
C186 C188 1.419 . S
C186 H190 0.930 . S
C187 C186 1.369 . S
C187 C196 1.429 . S
C188 C186 1.419 . S
C188 C189 1.363 . S
C188 H191 0.929 . S
C189 C188 1.363 . S
C189 C195 1.428 . S
H190 C186 0.930 . S
H191 C188 0.929 . S
S192 N193 1.613 . S
S192 N194 1.610 . S
N193 S192 1.613 . S
N193 C196 1.350 . S
N194 S192 1.610 . S
N194 C195 1.351 . S
C195 C189 1.428 . S
C195 N194 1.351 . S
C195 C196 1.434 . S
C196 C187 1.429 . S
C196 N193 1.350 . S
C196 C195 1.434 . S
C197 C198 1.369 . S
C197 C199 1.419 . S
C197 H201 0.930 . S
C198 C197 1.369 . S
C198 C207 1.429 . S
C199 C197 1.419 . S
C199 C200 1.363 . S
C199 H202 0.929 . S
C200 C199 1.363 . S
C200 C206 1.428 . S
H201 C197 0.930 . S
H202 C199 0.929 . S
S203 N204 1.613 . S
S203 N205 1.610 . S
N204 S203 1.613 . S
N204 C207 1.350 . S
N205 S203 1.610 . S
N205 C206 1.351 . S
C206 C200 1.428 . S
C206 N205 1.351 . S
C206 C207 1.434 . S
C207 C198 1.429 . S
C207 N204 1.350 . S
C207 C206 1.434 . S
C208 C209 1.369 . S
C208 C210 1.419 . S
C208 H212 0.930 . S
C209 C208 1.369 . S
C209 C218 1.429 . S
C210 C208 1.419 . S
C210 C211 1.363 . S
C210 H213 0.929 . S
C211 C210 1.363 . S
C211 C217 1.428 . S
H212 C208 0.930 . S
H213 C210 0.929 . S
S214 N215 1.613 . S
S214 N216 1.610 . S
N215 S214 1.613 . S
N215 C218 1.350 . S
N216 S214 1.610 . S
N216 C217 1.351 . S
C217 C211 1.428 . S
C217 N216 1.351 . S
C217 C218 1.434 . S
C218 C209 1.429 . S
C218 N215 1.350 . S
C218 C217 1.434 . S
C219 C220 1.369 . S
C219 C221 1.419 . S
C219 H223 0.930 . S
C220 C219 1.369 . S
C220 C229 1.429 . S
C221 C219 1.419 . S
C221 C222 1.363 . S
C221 H224 0.929 . S
C222 C221 1.363 . S
C222 C228 1.428 . S
H223 C219 0.930 . S
H224 C221 0.929 . S
S225 N226 1.613 . S
S225 N227 1.610 . S
N226 S225 1.613 . S
N226 C229 1.350 . S
N227 S225 1.610 . S
N227 C228 1.351 . S
C228 C222 1.428 . S
C228 N227 1.351 . S
C228 C229 1.434 . S
C229 C220 1.429 . S
C229 N226 1.350 . S
C229 C228 1.434 . S
C230 C231 1.369 . S
C230 C232 1.419 . S
C230 H234 0.930 . S
C231 C230 1.369 . S
C231 C240 1.429 . S
C232 C230 1.419 . S
C232 C233 1.363 . S
C232 H235 0.929 . S
C233 C232 1.363 . S
C233 C239 1.428 . S
H234 C230 0.930 . S
H235 C232 0.929 . S
S236 N237 1.613 . S
S236 N238 1.610 . S
N237 S236 1.613 . S
N237 C240 1.350 . S
N238 S236 1.610 . S
N238 C239 1.351 . S
C239 C233 1.428 . S
C239 N238 1.351 . S
C239 C240 1.434 . S
C240 C231 1.429 . S
C240 N237 1.350 . S
C240 C239 1.434 . S
C241 C242 1.369 . S
C241 C243 1.419 . S
C241 H245 0.930 . S
C242 C241 1.369 . S
C242 C251 1.429 . S
C243 C241 1.419 . S
C243 C244 1.363 . S
C243 H246 0.929 . S
C244 C243 1.363 . S
C244 C250 1.428 . S
H245 C241 0.930 . S
H246 C243 0.929 . S
S247 N248 1.613 . S
S247 N249 1.610 . S
N248 S247 1.613 . S
N248 C251 1.350 . S
N249 S247 1.610 . S
N249 C250 1.351 . S
C250 C244 1.428 . S
C250 N249 1.351 . S
C250 C251 1.434 . S
C251 C242 1.429 . S
C251 N248 1.350 . S
C251 C250 1.434 . S
C252 C253 1.369 . S
C252 C254 1.419 . S
C252 H256 0.930 . S
C253 C252 1.369 . S
C253 C262 1.429 . S
C254 C252 1.419 . S
C254 C255 1.363 . S
C254 H257 0.929 . S
C255 C254 1.363 . S
C255 C261 1.428 . S
H256 C252 0.930 . S
H257 C254 0.929 . S
S258 N259 1.613 . S
S258 N260 1.610 . S
N259 S258 1.613 . S
N259 C262 1.350 . S
N260 S258 1.610 . S
N260 C261 1.351 . S
C261 C255 1.428 . S
C261 N260 1.351 . S
C261 C262 1.434 . S
C262 C253 1.429 . S
C262 N259 1.350 . S
C262 C261 1.434 . S
C263 C264 1.369 . S
C263 C265 1.419 . S
C263 H267 0.930 . S
C264 C263 1.369 . S
C264 C273 1.429 . S
C265 C263 1.419 . S
C265 C266 1.363 . S
C265 H268 0.929 . S
C266 C265 1.363 . S
C266 C272 1.428 . S
H267 C263 0.930 . S
H268 C265 0.929 . S
S269 N270 1.613 . S
S269 N271 1.610 . S
N270 S269 1.613 . S
N270 C273 1.350 . S
N271 S269 1.610 . S
N271 C272 1.351 . S
C272 C266 1.428 . S
C272 N271 1.351 . S
C272 C273 1.434 . S
C273 C264 1.429 . S
C273 N270 1.350 . S
C273 C272 1.434 . S
C274 C275 1.369 . S
C274 C276 1.419 . S
C274 H278 0.930 . S
C275 C274 1.369 . S
C275 C284 1.429 . S
C276 C274 1.419 . S
C276 C277 1.363 . S
C276 H279 0.929 . S
C277 C276 1.363 . S
C277 C283 1.428 . S
H278 C274 0.930 . S
H279 C276 0.929 . S
S280 N281 1.613 . S
S280 N282 1.610 . S
N281 S280 1.613 . S
N281 C284 1.350 . S
N282 S280 1.610 . S
N282 C283 1.351 . S
C283 C277 1.428 . S
C283 N282 1.351 . S
C283 C284 1.434 . S
C284 C275 1.429 . S
C284 N281 1.350 . S
C284 C283 1.434 . S
C285 C286 1.369 . S
C285 C287 1.419 . S
C285 H289 0.930 . S
C286 C285 1.369 . S
C286 C295 1.429 . S
C287 C285 1.419 . S
C287 C288 1.363 . S
C287 H290 0.929 . S
C288 C287 1.363 . S
C288 C294 1.428 . S
H289 C285 0.930 . S
H290 C287 0.929 . S
S291 N292 1.613 . S
S291 N293 1.610 . S
N292 S291 1.613 . S
N292 C295 1.350 . S
N293 S291 1.610 . S
N293 C294 1.351 . S
C294 C288 1.428 . S
C294 N293 1.351 . S
C294 C295 1.434 . S
C295 C286 1.429 . S
C295 N292 1.350 . S
C295 C294 1.434 . S
C296 C297 1.369 . S
C296 C298 1.419 . S
C296 H300 0.930 . S
C297 C296 1.369 . S
C297 C306 1.429 . S
C298 C296 1.419 . S
C298 C299 1.363 . S
C298 H301 0.929 . S
C299 C298 1.363 . S
C299 C305 1.428 . S
H300 C296 0.930 . S
H301 C298 0.929 . S
S302 N303 1.613 . S
S302 N304 1.610 . S
N303 S302 1.613 . S
N303 C306 1.350 . S
N304 S302 1.610 . S
N304 C305 1.351 . S
C305 C299 1.428 . S
C305 N304 1.351 . S
C305 C306 1.434 . S
C306 C297 1.429 . S
C306 N303 1.350 . S
C306 C305 1.434 . S
C307 C308 1.369 . S
C307 C309 1.419 . S
C307 H311 0.930 . S
C308 C307 1.369 . S
C308 C317 1.429 . S
C309 C307 1.419 . S
C309 C310 1.363 . S
C309 H312 0.929 . S
C310 C309 1.363 . S
C310 C316 1.428 . S
H311 C307 0.930 . S
H312 C309 0.929 . S
S313 N314 1.613 . S
S313 N315 1.610 . S
N314 S313 1.613 . S
N314 C317 1.350 . S
N315 S313 1.610 . S
N315 C316 1.351 . S
C316 C310 1.428 . S
C316 N315 1.351 . S
C316 C317 1.434 . S
C317 C308 1.429 . S
C317 N314 1.350 . S
C317 C316 1.434 . S
C318 C319 1.369 . S
C318 C320 1.419 . S
C318 H322 0.930 . S
C319 C318 1.369 . S
C319 C328 1.429 . S
C320 C318 1.419 . S
C320 C321 1.363 1_554 S
C320 H323 0.929 . S
C321 C320 1.363 1_556 S
C321 C327 1.428 . S
H322 C318 0.930 . S
H323 C320 0.929 . S
S324 N325 1.613 . S
S324 N326 1.610 1_554 S
N325 S324 1.613 . S
N325 C328 1.350 1_655 S
N326 S324 1.610 1_556 S
N326 C327 1.351 1_655 S
C327 C321 1.428 . S
C327 N326 1.351 1_455 S
C327 C328 1.434 1_556 S
C328 C319 1.429 . S
C328 N325 1.350 1_455 S
C328 C327 1.434 1_554 S
C329 C330 1.369 . S
C329 C331 1.419 . S
C329 H333 0.930 . S
C330 C329 1.369 . S
C330 C339 1.429 . S
C331 C329 1.419 . S
C331 C332 1.363 . S
C331 H334 0.929 . S
C332 C331 1.363 . S
C332 C338 1.428 . S
H333 C329 0.930 . S
H334 C331 0.929 . S
S335 N336 1.613 . S
S335 N337 1.610 . S
N336 S335 1.613 . S
N336 C339 1.350 . S
N337 S335 1.610 . S
N337 C338 1.351 . S
C338 C332 1.428 . S
C338 N337 1.351 . S
C338 C339 1.434 . S
C339 C330 1.429 . S
C339 N336 1.350 . S
C339 C338 1.434 . S
C340 C341 1.369 . S
C340 C342 1.419 . S
C340 H344 0.930 . S
C341 C340 1.369 . S
C341 C350 1.429 . S
C342 C340 1.419 . S
C342 C343 1.363 . S
C342 H345 0.929 . S
C343 C342 1.363 . S
C343 C349 1.428 . S
H344 C340 0.930 . S
H345 C342 0.929 . S
S346 N347 1.613 . S
S346 N348 1.610 . S
N347 S346 1.613 . S
N347 C350 1.350 . S
N348 S346 1.610 . S
N348 C349 1.351 . S
C349 C343 1.428 . S
C349 N348 1.351 . S
C349 C350 1.434 . S
C350 C341 1.429 . S
C350 N347 1.350 . S
C350 C349 1.434 . S
C351 C352 1.369 1_565 S
C351 C353 1.419 . S
C351 H355 0.930 . S
C352 C351 1.369 1_545 S
C352 C361 1.429 . S
C353 C351 1.419 . S
C353 C354 1.363 1_565 S
C353 H356 0.929 . S
C354 C353 1.363 1_545 S
C354 C360 1.428 . S
H355 C351 0.930 . S
H356 C353 0.929 . S
S357 N358 1.613 . S
S357 N359 1.610 . S
N358 S357 1.613 . S
N358 C361 1.350 . S
N359 S357 1.610 . S
N359 C360 1.351 . S
C360 C354 1.428 . S
C360 N359 1.351 . S
C360 C361 1.434 . S
C361 C352 1.429 . S
C361 N358 1.350 . S
C361 C360 1.434 . S
C362 C363 1.369 . S
C362 C364 1.419 . S
C362 H366 0.930 . S
C363 C362 1.369 . S
C363 C372 1.429 . S
C364 C362 1.419 . S
C364 C365 1.363 1_556 S
C364 H367 0.929 1_556 S
C365 C364 1.363 1_554 S
C365 C371 1.428 1_554 S
H366 C362 0.930 . S
H367 C364 0.929 1_554 S
S368 N369 1.613 . S
S368 N370 1.610 . S
N369 S368 1.613 . S
N369 C372 1.350 . S
N370 S368 1.610 . S
N370 C371 1.351 . S
C371 C365 1.428 1_556 S
C371 N370 1.351 . S
C371 C372 1.434 . S
C372 C363 1.429 . S
C372 N369 1.350 . S
C372 C371 1.434 . S
C373 C374 1.369 . S
C373 C375 1.419 . S
C373 H377 0.930 . S
C374 C373 1.369 . S
C374 C383 1.429 1_455 S
C375 C373 1.419 . S
C375 C376 1.363 1_455 S
C375 H378 0.929 . S
C376 C375 1.363 1_655 S
C376 C382 1.428 . S
H377 C373 0.930 . S
H378 C375 0.929 . S
S379 N380 1.613 . S
S379 N381 1.610 . S
N380 S379 1.613 . S
N380 C383 1.350 . S
N381 S379 1.610 . S
N381 C382 1.351 . S
C382 C376 1.428 . S
C382 N381 1.351 . S
C382 C383 1.434 . S
C383 C374 1.429 1_655 S
C383 N380 1.350 . S
C383 C382 1.434 . S
C187 C24 3.181 . S
C189 C180 2.885 . S
C198 C66 1.326 . S
C200 C158 1.244 . S
C209 C93 1.812 . S
C211 C172 1.738 . S
C220 C13 3.051 . S
C222 C183 2.953 . S
C233 C161 1.116 . S
C231 C57 1.123 . S
C244 C169 1.712 . S
C242 C104 2.074 . S
C253 C64 2.054 . S
C255 C136 1.731 . S
C264 C97 0.912 . S
C266 C147 0.757 . S
C275 C17 1.456 . S
C277 C125 1.384 . S
C288 C139 1.728 . S
C286 C53 1.816 . S
C299 C150 0.317 . S
C297 C106 0.566 . S
C308 C26 1.191 . S
C310 C128 1.210 . S
C321 C149 1.081 . S
C319 C2 1.130 . S
C330 C63 1.455 . S
C332 C127 1.433 . S
C341 C82 1.436 . S
C343 C138 1.357 . S
C354 C171 1.390 . S
C352 C42 1.457 . S
C365 C182 1.691 . S
C363 C103 1.767 . S
C374 C23 1.544 . S
C376 C160 1.475 1_655 S
