# Generated by pormake.
# Topology ocu, (6,8)-cn, num edge types: 1
# Building blocks:
#     Node 0, Type 0, BuildingBlock: HISSIN_clean_sbu_0, # of connection points: 6
#     Node 1, Type 0, BuildingBlock: HISSIN_clean_sbu_0, # of connection points: 6
#     Node 2, Type 0, BuildingBlock: HISSIN_clean_sbu_0, # of connection points: 6
#     Node 3, Type 0, BuildingBlock: HISSIN_clean_sbu_0, # of connection points: 6
#     Node 4, Type 0, BuildingBlock: HISSIN_clean_sbu_0, # of connection points: 6
#     Node 5, Type 0, BuildingBlock: HISSIN_clean_sbu_0, # of connection points: 6
#     Node 6, Type 0, BuildingBlock: HISSIN_clean_sbu_0, # of connection points: 6
#     Node 7, Type 0, BuildingBlock: HISSIN_clean_sbu_0, # of connection points: 6
#     Node 8, Type 1, BuildingBlock: VETTIZ_charged_sbu_0, # of connection points: 8
#     Node 9, Type 1, BuildingBlock: VETTIZ_charged_sbu_0, # of connection points: 8
#     Node 10, Type 1, BuildingBlock: VETTIZ_charged_sbu_0, # of connection points: 8
#     Node 11, Type 1, BuildingBlock: VETTIZ_charged_sbu_0, # of connection points: 8
#     Node 12, Type 1, BuildingBlock: VETTIZ_charged_sbu_0, # of connection points: 8
#     Node 13, Type 1, BuildingBlock: VETTIZ_charged_sbu_0, # of connection points: 8
#     Edge 14, Type (0, 1), BuildingBlock: ZUJKAS_clean_linker_0, # of connection points: 2
#     Edge 15, Type (0, 1), BuildingBlock: ZUJKAS_clean_linker_0, # of connection points: 2
#     Edge 16, Type (0, 1), BuildingBlock: ZUJKAS_clean_linker_0, # of connection points: 2
#     Edge 17, Type (0, 1), BuildingBlock: ZUJKAS_clean_linker_0, # of connection points: 2
#     Edge 18, Type (0, 1), BuildingBlock: ZUJKAS_clean_linker_0, # of connection points: 2
#     Edge 19, Type (0, 1), BuildingBlock: ZUJKAS_clean_linker_0, # of connection points: 2
#     Edge 20, Type (0, 1), BuildingBlock: ZUJKAS_clean_linker_0, # of connection points: 2
#     Edge 21, Type (0, 1), BuildingBlock: ZUJKAS_clean_linker_0, # of connection points: 2
#     Edge 22, Type (0, 1), BuildingBlock: ZUJKAS_clean_linker_0, # of connection points: 2
#     Edge 23, Type (0, 1), BuildingBlock: ZUJKAS_clean_linker_0, # of connection points: 2
#     Edge 24, Type (0, 1), BuildingBlock: ZUJKAS_clean_linker_0, # of connection points: 2
#     Edge 25, Type (0, 1), BuildingBlock: ZUJKAS_clean_linker_0, # of connection points: 2
#     Edge 26, Type (0, 1), BuildingBlock: ZUJKAS_clean_linker_0, # of connection points: 2
#     Edge 27, Type (0, 1), BuildingBlock: ZUJKAS_clean_linker_0, # of connection points: 2
#     Edge 28, Type (0, 1), BuildingBlock: ZUJKAS_clean_linker_0, # of connection points: 2
#     Edge 29, Type (0, 1), BuildingBlock: ZUJKAS_clean_linker_0, # of connection points: 2
#     Edge 30, Type (0, 1), BuildingBlock: ZUJKAS_clean_linker_0, # of connection points: 2
#     Edge 31, Type (0, 1), BuildingBlock: ZUJKAS_clean_linker_0, # of connection points: 2
#     Edge 32, Type (0, 1), BuildingBlock: ZUJKAS_clean_linker_0, # of connection points: 2
#     Edge 33, Type (0, 1), BuildingBlock: ZUJKAS_clean_linker_0, # of connection points: 2
#     Edge 34, Type (0, 1), BuildingBlock: ZUJKAS_clean_linker_0, # of connection points: 2
#     Edge 35, Type (0, 1), BuildingBlock: ZUJKAS_clean_linker_0, # of connection points: 2
#     Edge 36, Type (0, 1), BuildingBlock: ZUJKAS_clean_linker_0, # of connection points: 2
#     Edge 37, Type (0, 1), BuildingBlock: ZUJKAS_clean_linker_0, # of connection points: 2
#     Edge 38, Type (0, 1), BuildingBlock: ZUJKAS_clean_linker_0, # of connection points: 2
#     Edge 39, Type (0, 1), BuildingBlock: ZUJKAS_clean_linker_0, # of connection points: 2
#     Edge 40, Type (0, 1), BuildingBlock: ZUJKAS_clean_linker_0, # of connection points: 2
#     Edge 41, Type (0, 1), BuildingBlock: ZUJKAS_clean_linker_0, # of connection points: 2
#     Edge 42, Type (0, 1), BuildingBlock: ZUJKAS_clean_linker_0, # of connection points: 2
#     Edge 43, Type (0, 1), BuildingBlock: ZUJKAS_clean_linker_0, # of connection points: 2
#     Edge 44, Type (0, 1), BuildingBlock: ZUJKAS_clean_linker_0, # of connection points: 2
#     Edge 45, Type (0, 1), BuildingBlock: ZUJKAS_clean_linker_0, # of connection points: 2
#     Edge 46, Type (0, 1), BuildingBlock: ZUJKAS_clean_linker_0, # of connection points: 2
#     Edge 47, Type (0, 1), BuildingBlock: ZUJKAS_clean_linker_0, # of connection points: 2
#     Edge 48, Type (0, 1), BuildingBlock: ZUJKAS_clean_linker_0, # of connection points: 2
#     Edge 49, Type (0, 1), BuildingBlock: ZUJKAS_clean_linker_0, # of connection points: 2
#     Edge 50, Type (0, 1), BuildingBlock: ZUJKAS_clean_linker_0, # of connection points: 2
#     Edge 51, Type (0, 1), BuildingBlock: ZUJKAS_clean_linker_0, # of connection points: 2
#     Edge 52, Type (0, 1), BuildingBlock: ZUJKAS_clean_linker_0, # of connection points: 2
#     Edge 53, Type (0, 1), BuildingBlock: ZUJKAS_clean_linker_0, # of connection points: 2
#     Edge 54, Type (0, 1), BuildingBlock: ZUJKAS_clean_linker_0, # of connection points: 2
#     Edge 55, Type (0, 1), BuildingBlock: ZUJKAS_clean_linker_0, # of connection points: 2
#     Edge 56, Type (0, 1), BuildingBlock: ZUJKAS_clean_linker_0, # of connection points: 2
#     Edge 57, Type (0, 1), BuildingBlock: ZUJKAS_clean_linker_0, # of connection points: 2
#     Edge 58, Type (0, 1), BuildingBlock: ZUJKAS_clean_linker_0, # of connection points: 2
#     Edge 59, Type (0, 1), BuildingBlock: ZUJKAS_clean_linker_0, # of connection points: 2
#     Edge 60, Type (0, 1), BuildingBlock: ZUJKAS_clean_linker_0, # of connection points: 2
#     Edge 61, Type (0, 1), BuildingBlock: ZUJKAS_clean_linker_0, # of connection points: 2
# Relax obj value: 0.090
# Max RMSD: 0.181
# Mean RMSD: 0.125
data_MOF--net-ocu--node1-HISSIN_clean_sbu_0--node2-VETTIZ_charged_sbu_0--edge1-ZUJKAS_clean_linker_0
_symmetry_space_group_name_H-M    P1
_symmetry_Int_Tables_number       1
_symmetry_cell_setting            triclinic
loop_
_symmetry_equiv_pos_as_xyz
'x, y, z'
_cell_length_a     51.937021
_cell_length_b     52.146094
_cell_length_c     50.975677
_cell_angle_alpha  98.805154
_cell_angle_beta   82.856185
_cell_angle_gamma 102.33246
loop_
_atom_site_label
_atom_site_type_symbol
_atom_site_fract_x
_atom_site_fract_y
_atom_site_fract_z
_atom_type_partial_charge
Eu0 Eu 0.28249 0.25981 0.28011 0.0
Eu1 Eu 0.23943 0.25101 0.23408 0.0
C2 C 0.23034 0.21124 0.27947 0.0
C3 C 0.32802 0.24261 0.32683 0.0
C4 C 0.3192 0.21507 0.32129 0.0
C5 C 0.35987 0.23446 0.35459 0.0
C6 C 0.3306 0.19741 0.33231 0.0
C7 C 0.34845 0.25205 0.34359 0.0
C8 C 0.35122 0.20679 0.34915 0.0
C9 C 0.3163 0.26174 0.3154 0.0
O10 O 0.22174 0.2768 0.26928 0.0
O11 O 0.25572 0.29064 0.29654 0.0
C12 C 0.2318 0.29186 0.29037 0.0
O13 O 0.30152 0.28824 0.25022 0.0
O14 O 0.19925 0.24399 0.22153 0.0
O15 O 0.23305 0.25209 0.19269 0.0
O16 O 0.26412 0.29188 0.23274 0.0
C17 C 0.28955 0.29944 0.23509 0.0
O18 O 0.29312 0.22536 0.24963 0.0
O19 O 0.27366 0.23075 0.21333 0.0
O20 O 0.22523 0.21446 0.25557 0.0
O21 O 0.32322 0.26447 0.29038 0.0
O22 O 0.29109 0.26125 0.32144 0.0
O23 O 0.24912 0.22746 0.29216 0.0
C24 C 0.195 0.26852 0.18695 0.0
C25 C 0.20615 0.29574 0.18952 0.0
C26 C 0.16051 0.27712 0.16288 0.0
C27 C 0.19479 0.31341 0.17858 0.0
C28 C 0.172 0.25946 0.17366 0.0
C29 C 0.17182 0.30438 0.16498 0.0
C30 C 0.20741 0.24935 0.19736 0.0
C31 C 0.29088 0.2206 0.22367 0.0
H32 H 0.30352 0.20721 0.30835 0.0
H33 H 0.37529 0.24268 0.36771 0.0
H34 H 0.32349 0.17636 0.32728 0.0
H35 H 0.35559 0.27316 0.3483 0.0
H36 H 0.22374 0.30334 0.19988 0.0
H37 H 0.14306 0.26927 0.15236 0.0
H38 H 0.20391 0.33424 0.181 0.0
H39 H 0.16301 0.23859 0.17135 0.0
Eu40 Eu 0.77888 0.2306 0.25898 0.0
Eu41 Eu 0.74481 0.27825 0.26124 0.0
C42 C 0.79101 0.28373 0.30045 0.0
C43 C 0.81196 0.17836 0.27896 0.0
C44 C 0.80897 0.18745 0.30633 0.0
C45 C 0.82915 0.14148 0.28901 0.0
C46 C 0.81629 0.17376 0.32493 0.0
C47 C 0.82187 0.15519 0.27048 0.0
C48 C 0.82673 0.15071 0.31649 0.0
C49 C 0.80515 0.1929 0.25902 0.0
O50 O 0.77127 0.2785 0.22241 0.0
O51 O 0.80422 0.26071 0.23395 0.0
C52 C 0.79589 0.2751 0.21898 0.0
O53 O 0.75505 0.21925 0.22317 0.0
O54 O 0.74512 0.31976 0.25843 0.0
O55 O 0.7078 0.29241 0.26362 0.0
O56 O 0.7217 0.24172 0.23889 0.0
C57 C 0.73086 0.22298 0.22262 0.0
O58 O 0.74229 0.21976 0.28706 0.0
O59 O 0.72858 0.25951 0.29892 0.0
O60 O 0.779 0.29581 0.28623 0.0
O61 O 0.78024 0.18852 0.25484 0.0
O62 O 0.8161 0.21796 0.26023 0.0
O63 O 0.78874 0.25789 0.29669 0.0
C64 C 0.70969 0.32668 0.23726 0.0
C65 C 0.70287 0.31062 0.21341 0.0
C66 C 0.6987 0.36389 0.22048 0.0
C67 C 0.69378 0.32108 0.19335 0.0
C68 C 0.70762 0.35338 0.24057 0.0
C69 C 0.69157 0.34787 0.19662 0.0
C70 C 0.7195 0.31611 0.25858 0.0
C71 C 0.72768 0.2348 0.30259 0.0
H72 H 0.80127 0.2053 0.31328 0.0
H73 H 0.83666 0.12359 0.28179 0.0
H74 H 0.81438 0.18161 0.34586 0.0
H75 H 0.82414 0.14776 0.24945 0.0
H76 H 0.7046 0.29 0.21027 0.0
H77 H 0.69695 0.38449 0.22385 0.0
H78 H 0.68876 0.30825 0.17513 0.0
H79 H 0.71287 0.36613 0.25877 0.0
Eu80 Eu 0.76507 0.77733 0.23609 0.0
Eu81 Eu 0.76113 0.73482 0.27987 0.0
C82 C 0.72267 0.72332 0.23245 0.0
C83 C 0.74548 0.82177 0.19046 0.0
C84 C 0.71866 0.80979 0.18888 0.0
C85 C 0.73771 0.85922 0.17133 0.0
C86 C 0.70158 0.82234 0.17834 0.0
C87 C 0.75472 0.84666 0.18179 0.0
C88 C 0.71092 0.84717 0.16917 0.0
C89 C 0.76432 0.80857 0.2004 0.0
O90 O 0.79544 0.7251 0.24984 0.0
O91 O 0.79186 0.74796 0.21564 0.0
C92 C 0.80208 0.73024 0.225 0.0
O93 O 0.79986 0.79608 0.26006 0.0
O94 O 0.75218 0.69393 0.28921 0.0
O95 O 0.76518 0.726 0.31959 0.0
O96 O 0.79488 0.76774 0.29177 0.0
C97 C 0.80685 0.78936 0.28163 0.0
O98 O 0.73908 0.79376 0.27172 0.0
O99 O 0.72905 0.75968 0.29757 0.0
O100 O 0.73727 0.71341 0.24594 0.0
O101 O 0.77115 0.81715 0.22442 0.0
O102 O 0.76065 0.78283 0.19534 0.0
O103 O 0.72578 0.74897 0.23293 0.0
C104 C 0.77946 0.6856 0.31982 0.0
C105 C 0.8069 0.69563 0.31711 0.0
C106 C 0.78803 0.64691 0.3362 0.0
C107 C 0.8247 0.68155 0.32414 0.0
C108 C 0.77026 0.66106 0.3293 0.0
C109 C 0.81554 0.65698 0.33387 0.0
C110 C 0.76029 0.70042 0.31293 0.0
C111 C 0.72585 0.78315 0.29264 0.0
H112 H 0.71096 0.7906 0.19548 0.0
H113 H 0.74561 0.8785 0.16502 0.0
H114 H 0.68121 0.81227 0.17683 0.0
H115 H 0.77527 0.85638 0.18293 0.0
H116 H 0.81458 0.71441 0.3096 0.0
H117 H 0.78013 0.62827 0.34388 0.0
H118 H 0.84569 0.68983 0.3217 0.0
H119 H 0.74922 0.65289 0.33155 0.0
Eu120 Eu 0.28375 0.73023 0.26012 0.0
Eu121 Eu 0.24321 0.77037 0.26379 0.0
C122 C 0.23254 0.71506 0.22689 0.0
C123 C 0.34762 0.70736 0.2445 0.0
C124 C 0.3545 0.72238 0.22313 0.0
C125 C 0.39311 0.70214 0.2424 0.0
C126 C 0.38028 0.72647 0.2109 0.0
C127 C 0.36719 0.69793 0.25459 0.0
C128 C 0.3996 0.71575 0.21996 0.0
C129 C 0.32017 0.7021 0.25642 0.0
O130 O 0.22691 0.74461 0.29717 0.0
O131 O 0.24783 0.70948 0.28319 0.0
C132 C 0.22959 0.72015 0.2985 0.0
O133 O 0.28827 0.75793 0.29868 0.0
O134 O 0.2203 0.78991 0.24301 0.0
O135 O 0.22133 0.7994 0.28595 0.0
O136 O 0.27862 0.79343 0.2841 0.0
C137 C 0.29042 0.78361 0.30031 0.0
O138 O 0.3069 0.76404 0.23896 0.0
O139 O 0.27189 0.77794 0.22687 0.0
O140 O 0.22172 0.7318 0.24425 0.0
O141 O 0.3149 0.71819 0.2776 0.0
O142 O 0.30206 0.69778 0.23983 0.0
O143 O 0.258 0.71503 0.22578 0.0
C144 C 0.18287 0.80296 0.26753 0.0
C145 C 0.1642 0.78241 0.27786 0.0
C146 C 0.14773 0.82572 0.26374 0.0
C147 C 0.13738 0.78389 0.28177 0.0
C148 C 0.17443 0.82423 0.25991 0.0
C149 C 0.12895 0.80591 0.27531 0.0
C150 C 0.21125 0.80297 0.26485 0.0
C151 C 0.29733 0.77748 0.22414 0.0
H152 H 0.33974 0.73022 0.21532 0.0
H153 H 0.40764 0.69337 0.24946 0.0
H154 H 0.38485 0.73694 0.19357 0.0
H155 H 0.36226 0.68668 0.27134 0.0
H156 H 0.17045 0.76564 0.2835 0.0
H157 H 0.14208 0.84318 0.259 0.0
H158 H 0.12337 0.76827 0.29058 0.0
H159 H 0.18864 0.84014 0.25173 0.0
Eu160 Eu 0.27782 0.73172 0.75488 0.0
Eu161 Eu 0.24203 0.77796 0.75762 0.0
C162 C 0.29054 0.78581 0.79411 0.0
C163 C 0.3137 0.68361 0.77776 0.0
C164 C 0.3184 0.69825 0.80283 0.0
C165 C 0.3245 0.64553 0.79309 0.0
C166 C 0.32642 0.68672 0.82274 0.0
C167 C 0.31667 0.65714 0.77312 0.0
C168 C 0.32965 0.66023 0.81811 0.0
C169 C 0.30563 0.69564 0.75641 0.0
O170 O 0.26736 0.77892 0.71826 0.0
O171 O 0.30134 0.76152 0.72838 0.0
C172 C 0.29198 0.77556 0.71379 0.0
O173 O 0.25441 0.71996 0.71874 0.0
O174 O 0.24043 0.81985 0.76042 0.0
O175 O 0.20453 0.79032 0.75655 0.0
O176 O 0.21989 0.74053 0.73563 0.0
C177 C 0.22986 0.72281 0.71858 0.0
O178 O 0.24083 0.71953 0.78212 0.0
O179 O 0.22691 0.75896 0.79526 0.0
O180 O 0.27812 0.79687 0.77939 0.0
O181 O 0.28048 0.69009 0.75297 0.0
O182 O 0.31595 0.72058 0.75509 0.0
O183 O 0.28771 0.75999 0.79197 0.0
C184 C 0.20799 0.82948 0.737 0.0
C185 C 0.21108 0.82049 0.70961 0.0
C186 C 0.19123 0.86664 0.72699 0.0
C187 C 0.20408 0.83443 0.69101 0.0
C188 C 0.19815 0.85268 0.74551 0.0
C189 C 0.19394 0.85766 0.69947 0.0
C190 C 0.21537 0.81532 0.75695 0.0
C191 C 0.22606 0.73408 0.79811 0.0
H192 H 0.31595 0.71863 0.80702 0.0
H193 H 0.32702 0.62517 0.78875 0.0
H194 H 0.32987 0.69851 0.84186 0.0
H195 H 0.31308 0.64546 0.75396 0.0
H196 H 0.21881 0.80266 0.70263 0.0
H197 H 0.184 0.88468 0.73428 0.0
H198 H 0.20623 0.82675 0.67005 0.0
H199 H 0.19588 0.86008 0.76655 0.0
Eu200 Eu 0.26159 0.27518 0.73673 0.0
Eu201 Eu 0.25668 0.23224 0.78038 0.0
C202 C 0.21475 0.22136 0.73529 0.0
C203 C 0.24419 0.32456 0.69619 0.0
C204 C 0.21829 0.32237 0.70877 0.0
C205 C 0.23475 0.35566 0.66923 0.0
C206 C 0.20077 0.33671 0.70162 0.0
C207 C 0.25221 0.34131 0.67638 0.0
C208 C 0.20873 0.35365 0.68174 0.0
C209 C 0.26301 0.30964 0.70351 0.0
O210 O 0.28214 0.21542 0.7444 0.0
O211 O 0.29319 0.24984 0.71898 0.0
C212 C 0.29581 0.22611 0.72369 0.0
O213 O 0.28727 0.29581 0.76959 0.0
O214 O 0.25037 0.19232 0.79178 0.0
O215 O 0.2606 0.22642 0.82115 0.0
O216 O 0.29651 0.25947 0.7834 0.0
C217 C 0.30111 0.28513 0.78322 0.0
O218 O 0.22786 0.28569 0.76711 0.0
O219 O 0.23058 0.2622 0.80108 0.0
O220 O 0.22136 0.21455 0.75699 0.0
O221 O 0.27052 0.316 0.72749 0.0
O222 O 0.25798 0.28408 0.69684 0.0
O223 O 0.22746 0.2426 0.72485 0.0
C224 C 0.27592 0.18761 0.82574 0.0
C225 C 0.3033 0.19796 0.82367 0.0
C226 C 0.2838 0.15211 0.84788 0.0
C227 C 0.32075 0.18556 0.8338 0.0
C228 C 0.2664 0.16455 0.83783 0.0
C229 C 0.31125 0.16245 0.84613 0.0
C230 C 0.25695 0.2007 0.81593 0.0
C231 C 0.2209 0.28037 0.79184 0.0
H232 H 0.21164 0.3096 0.72418 0.0
H233 H 0.24159 0.36807 0.65356 0.0
H234 H 0.18108 0.33479 0.71197 0.0
H235 H 0.27205 0.34327 0.66632 0.0
H236 H 0.31118 0.21568 0.8143 0.0
H237 H 0.27561 0.13464 0.85752 0.0
H238 H 0.34174 0.19396 0.83176 0.0
H239 H 0.24538 0.15624 0.83973 0.0
Eu240 Eu 0.77712 0.24006 0.75579 0.0
Eu241 Eu 0.73786 0.28166 0.7591 0.0
C242 C 0.72677 0.22592 0.7219 0.0
C243 C 0.83657 0.20634 0.75567 0.0
C244 C 0.85692 0.22701 0.74804 0.0
C245 C 0.8692 0.18068 0.76 0.0
C246 C 0.88332 0.22409 0.74553 0.0
C247 C 0.84292 0.18363 0.7625 0.0
C248 C 0.88967 0.20047 0.75058 0.0
C249 C 0.80863 0.2069 0.7545 0.0
O250 O 0.72392 0.25931 0.79471 0.0
O251 O 0.7387 0.22134 0.77788 0.0
C252 C 0.72303 0.23396 0.79493 0.0
O253 O 0.78759 0.27103 0.79088 0.0
O254 O 0.71147 0.29829 0.73942 0.0
O255 O 0.71777 0.3122 0.7809 0.0
O256 O 0.77449 0.30559 0.77721 0.0
C257 C 0.78872 0.29654 0.7919 0.0
O258 O 0.80097 0.27384 0.73406 0.0
O259 O 0.76602 0.2884 0.72218 0.0
O260 O 0.71619 0.24317 0.7389 0.0
O261 O 0.79581 0.21606 0.77633 0.0
O262 O 0.80271 0.21476 0.7333 0.0
O263 O 0.7517 0.22448 0.72173 0.0
C264 C 0.67465 0.30622 0.76847 0.0
C265 C 0.66281 0.28539 0.78324 0.0
C266 C 0.63178 0.31732 0.76817 0.0
C267 C 0.63571 0.28117 0.79125 0.0
C268 C 0.65893 0.32169 0.76037 0.0
C269 C 0.62005 0.29749 0.78428 0.0
C270 C 0.70334 0.31165 0.7615 0.0
C271 C 0.79136 0.28769 0.71946 0.0
H272 H 0.85232 0.24484 0.74293 0.0
H273 H 0.8732 0.16206 0.76368 0.0
H274 H 0.89863 0.2398 0.73849 0.0
H275 H 0.82741 0.16753 0.76849 0.0
H276 H 0.67464 0.2729 0.78922 0.0
H277 H 0.62026 0.33049 0.76291 0.0
H278 H 0.62716 0.26581 0.80369 0.0
H279 H 0.66776 0.3376 0.7487 0.0
Eu280 Eu 0.78242 0.75914 0.7831 0.0
Eu281 Eu 0.73953 0.75036 0.73738 0.0
C282 C 0.73324 0.71034 0.78137 0.0
C283 C 0.82695 0.74189 0.8305 0.0
C284 C 0.82132 0.71456 0.82169 0.0
C285 C 0.85625 0.73383 0.86096 0.0
C286 C 0.833 0.69701 0.8325 0.0
C287 C 0.84461 0.75131 0.85013 0.0
C288 C 0.85055 0.70635 0.85247 0.0
C289 C 0.81404 0.76068 0.82017 0.0
O290 O 0.72918 0.78507 0.76763 0.0
O291 O 0.74771 0.77861 0.80402 0.0
C292 C 0.7309 0.78928 0.79367 0.0
O293 O 0.79563 0.79635 0.76253 0.0
O294 O 0.69876 0.74567 0.72704 0.0
O295 O 0.73101 0.7489 0.69605 0.0
O296 O 0.77358 0.78189 0.72491 0.0
C297 C 0.79136 0.79895 0.73816 0.0
O298 O 0.80103 0.73524 0.74692 0.0
O299 O 0.76563 0.71868 0.72196 0.0
O300 O 0.72069 0.7225 0.76778 0.0
O301 O 0.82236 0.76664 0.79621 0.0
O302 O 0.78832 0.75696 0.82438 0.0
O303 O 0.75886 0.71757 0.78252 0.0
C304 C 0.69402 0.76764 0.69053 0.0
C305 C 0.70757 0.79376 0.68822 0.0
C306 C 0.65734 0.77683 0.67001 0.0
C307 C 0.69616 0.81115 0.6768 0.0
C308 C 0.66875 0.7595 0.68139 0.0
C309 C 0.67084 0.80297 0.66735 0.0
C310 C 0.70581 0.74857 0.70207 0.0
C311 C 0.7903 0.71878 0.72696 0.0
H312 H 0.80766 0.70675 0.80663 0.0
H313 H 0.86993 0.74197 0.87591 0.0
H314 H 0.82781 0.67605 0.82557 0.0
H315 H 0.84931 0.77228 0.85726 0.0
H316 H 0.72708 0.80069 0.69511 0.0
H317 H 0.63768 0.76972 0.66358 0.0
H318 H 0.70745 0.83091 0.67498 0.0
H319 H 0.65776 0.73957 0.68301 0.0
Fe320 Fe 0.01467 0.0631 0.49946 0.0
O321 O 1.00969 0.0242 0.49532 0.0
Fe322 Fe 0.04112 0.00759 0.50279 0.0
Fe323 Fe 0.97997 1.00196 0.51588 0.0
O324 O 0.01252 0.02466 0.49487 0.0
O325 O 0.01139 0.98533 0.5233 0.0
O326 O 1.00858 0.98485 0.52372 0.0
Fe327 Fe 1.00663 0.94646 0.5191 0.0
C328 C 0.98741 0.05278 0.55301 0.0
O329 O 0.98179 0.05337 0.4786 0.0
O330 O 0.95386 0.0232 0.50348 0.0
O331 O 0.03349 0.94491 0.48608 0.0
O332 O 0.03444 0.98138 0.46853 0.0
O333 O 0.06847 0.03347 0.47894 0.0
O334 O 0.04328 0.06111 0.46777 0.0
O335 O 0.97266 0.97578 0.48173 0.0
O336 O 0.97631 0.93761 0.49415 0.0
C337 C 0.06457 0.05129 0.46509 0.0
O338 O 0.03916 0.95633 0.54039 0.0
O339 O 0.0672 0.98642 0.51552 0.0
O340 O 0.98843 0.06501 0.53308 0.0
O341 O 0.98673 0.02803 0.55011 0.0
C342 C 0.95873 0.0393 0.48531 0.0
C343 C 0.96875 0.9506 0.47826 0.0
C344 C 0.95646 0.95814 0.55336 0.0
O345 O 0.95261 0.97613 0.53972 0.0
O346 O 0.97766 0.94818 0.55046 0.0
C347 C 0.0342 0.95673 0.46596 0.0
O348 O 0.04822 0.03383 0.53696 0.0
O349 O 0.04544 0.07189 0.52377 0.0
C350 C 0.06228 0.97038 0.53379 0.0
C351 C 0.05254 0.05902 0.54005 0.0
Fe352 Fe 0.51022 0.97353 1.00568 0.0
O353 O 0.53107 0.0053 0.98957 0.0
Fe354 Fe 0.45129 0.99664 0.03082 0.0
Fe355 Fe 0.5699 0.01315 0.98553 0.0
O356 O 0.49038 1.00105 0.02647 0.0
O357 O 0.49012 1.00452 0.02684 0.0
O358 O 0.53081 0.00878 0.98993 0.0
Fe359 Fe 0.51099 0.0363 0.01079 0.0
C360 C 0.55984 0.97904 0.03174 0.0
O361 O 0.53591 0.94938 0.98004 0.0
O362 O 0.565 0.9798 0.95675 0.0
O363 O 0.48615 0.03098 0.98076 0.0
O364 O 0.44752 0.02244 1.00513 0.0
O365 O 0.4462 0.96614 0.99984 0.0
O366 O 0.48509 0.96559 0.97562 0.0
O367 O 0.56623 0.04169 0.963 0.0
O368 O 0.53717 0.06534 0.98938 0.0
C369 C 0.45984 0.95942 0.9783 0.0
O370 O 0.48534 0.06048 0.03644 0.0
O371 O 0.45611 0.03002 0.05957 0.0
O372 O 0.5351 0.97894 0.0357 0.0
O373 O 0.57364 0.98728 0.01113 0.0
C374 C 0.55499 0.95547 0.9609 0.0
C375 C 0.55603 0.06274 0.97001 0.0
C376 C 0.56142 0.04978 0.0383 0.0
O377 O 0.57506 0.04349 0.01663 0.0
O378 O 0.53615 0.04407 0.04083 0.0
C379 C 0.4614 0.03083 0.98463 0.0
O380 O 0.45499 0.96827 0.05347 0.0
O381 O 0.48397 0.94449 0.02711 0.0
C382 C 0.46623 0.05435 0.05554 0.0
C383 C 0.46507 0.94715 0.04643 0.0
Fe384 Fe 0.01368 0.53706 0.01177 0.0
O385 O 0.99127 0.50575 0.02735 0.0
Fe386 Fe 0.07083 0.51126 0.98566 0.0
Fe387 Fe 0.95248 0.49964 0.03137 0.0
O388 O 0.03195 0.50865 0.99032 0.0
O389 O 0.03203 0.50519 0.98982 0.0
O390 O 0.99137 0.50231 0.02687 0.0
Fe391 Fe 1.00966 0.47389 1.00548 0.0
C392 C 0.97003 0.55694 0.05666 0.0
O393 O 0.98906 0.53384 0.98195 0.0
O394 O 0.95003 0.5264 1.00582 0.0
O395 O 0.0338 0.44852 0.97942 0.0
O396 O 0.06453 0.47815 0.95669 0.0
O397 O 0.06825 0.54057 0.96331 0.0
O398 O 0.04093 0.56543 0.99075 0.0
O399 O 0.94617 0.46922 1.00045 0.0
O400 O 0.98462 0.46823 0.97563 0.0
C401 C 0.05855 0.56196 0.97038 0.0
O402 O 0.03434 0.47721 0.0352 0.0
O403 O 0.0733 0.4844 0.01113 0.0
O404 O 0.98956 0.56246 0.03781 0.0
O405 O 0.95864 0.53279 0.06029 0.0
C406 C 0.96468 0.53536 0.98592 0.0
C407 C 0.95939 0.46257 0.97862 0.0
C408 C 0.96475 0.44923 0.04717 0.0
O409 O 0.95506 0.47064 0.0539 0.0
O410 O 0.98238 0.44556 0.02682 0.0
C411 C 0.05327 0.45399 0.96048 0.0
O412 O 0.07721 0.54134 0.01679 0.0
O413 O 0.03877 0.5427 0.0416 0.0
C414 C 0.0587 0.47562 0.03115 0.0
C415 C 0.06404 0.54755 0.03879 0.0
Fe416 Fe 0.51128 0.52305 0.95137 0.0
O417 O 0.51483 0.52223 0.98932 0.0
Fe418 Fe 0.48061 0.50397 0.01171 0.0
Fe419 Fe 0.54176 0.50523 1.0014 0.0
O420 O 0.51173 0.52107 0.98902 0.0
O421 O 0.50752 0.48736 0.02429 0.0
O422 O 0.51059 0.48829 0.02441 0.0
Fe423 Fe 0.51061 0.48722 0.06253 0.0
C424 C 0.53184 0.47332 0.9479 0.0
O425 O 0.54671 0.54936 0.95498 0.0
O426 O 0.57076 0.52604 0.9745 0.0
O427 O 0.48839 0.51611 0.07542 0.0
O428 O 0.48946 0.53613 0.03971 0.0
O429 O 0.45673 0.52473 0.99532 0.0
O430 O 0.486 0.5486 0.9657 0.0
O431 O 0.55171 0.53727 0.03042 0.0
O432 O 0.5442 0.51636 0.06656 0.0
C433 C 0.46328 0.54321 0.97963 0.0
O434 O 0.47514 0.4608 0.05929 0.0
O435 O 0.4515 0.4836 0.03875 0.0
O436 O 0.53356 0.4947 0.93811 0.0
O437 O 0.53284 0.47319 0.97267 0.0
C438 C 0.56882 0.54482 0.96086 0.0
C439 C 0.55456 0.53646 0.05478 0.0
C440 C 0.55845 0.46608 0.03413 0.0
O441 O 0.56528 0.48407 0.01786 0.0
O442 O 0.53595 0.46155 0.04869 0.0
C443 C 0.48972 0.53685 0.06462 0.0
O444 O 0.47128 0.47186 0.98261 0.0
O445 O 0.47758 0.49389 0.94737 0.0
C446 C 0.4532 0.46541 0.0532 0.0
C447 C 0.46786 0.47318 0.95849 0.0
Fe448 Fe 0.02261 0.44867 0.51099 0.0
O449 O 0.0242 0.48701 0.5125 0.0
Fe450 Fe 0.01639 0.49974 0.47695 0.0
Fe451 Fe 1.00422 0.50885 0.54127 0.0
O452 O 0.0261 0.4869 0.50887 0.0
O453 O 0.99657 0.5216 0.5057 0.0
O454 O 0.99472 0.52171 0.50927 0.0
Fe455 Fe 0.99814 0.55979 0.50666 0.0
C456 C 0.96948 0.45515 0.54493 0.0
O457 O 0.04293 0.46166 0.5444 0.0
O458 O 0.0196 0.49169 0.57002 0.0
O459 O 0.03097 0.56442 0.47954 0.0
O460 O 0.05025 0.52952 0.47595 0.0
O461 O 0.04018 0.47331 0.45143 0.0
O462 O 0.05462 0.45249 0.48191 0.0
O463 O 0.03781 0.5377 0.54317 0.0
O464 O 0.02292 0.57312 0.53711 0.0
C465 C 0.05565 0.4585 0.45792 0.0
O466 O 0.97689 0.54614 0.47406 0.0
O467 O 1.00061 0.51664 0.44819 0.0
O468 O 0.9889 0.44358 0.53731 0.0
O469 O 0.97046 0.47927 0.54207 0.0
C470 C 0.03673 0.47591 0.56661 0.0
C471 C 0.03962 0.5626 0.54584 0.0
C472 C 0.96557 0.55083 0.56029 0.0
O473 O 0.98039 0.53541 0.56687 0.0
O474 O 0.9668 0.5565 0.5362 0.0
C475 C 0.05087 0.55349 0.47266 0.0
O476 O 0.9827 0.47074 0.47539 0.0
O477 O 0.99893 0.43573 0.47966 0.0
C478 C 0.9829 0.53181 0.45185 0.0
C479 C 0.98155 0.44591 0.47173 0.0
Fe480 Fe 0.51097 0.97374 0.50448 0.0
O481 O 0.49332 1.00109 0.52831 0.0
Fe482 Fe 0.53338 0.00637 0.44838 0.0
Fe483 Fe 0.48871 1.00328 0.56743 0.0
O484 O 0.53004 0.0057 0.4874 0.0
O485 O 0.52914 0.00906 0.48763 0.0
O486 O 0.49241 1.00437 0.52851 0.0
Fe487 Fe 0.51125 0.03638 0.51137 0.0
C488 C 0.46637 0.94647 0.54481 0.0
O489 O 0.54042 0.97769 0.5297 0.0
O490 O 0.51536 0.97866 0.56844 0.0
O491 O 0.53558 0.0657 0.48895 0.0
O492 O 0.55985 0.04157 0.45682 0.0
O493 O 0.55819 0.97933 0.44846 0.0
O494 O 0.53384 0.94949 0.47556 0.0
O495 O 0.51862 0.03565 0.57523 0.0
O496 O 0.54114 0.04344 0.53609 0.0
C497 C 0.55306 0.95612 0.45675 0.0
O498 O 0.48171 0.03195 0.48623 0.0
O499 O 0.50628 0.03046 0.44722 0.0
O500 O 0.48636 0.94441 0.52662 0.0
O501 O 0.46183 0.96854 0.5585 0.0
C502 C 0.53587 0.97315 0.55394 0.0
C503 C 0.53934 0.04591 0.56142 0.0
C504 C 0.46921 0.0539 0.55918 0.0
O505 O 0.46428 0.03075 0.56757 0.0
O506 O 0.48822 0.06054 0.5402 0.0
C507 C 0.55528 0.06372 0.47035 0.0
O508 O 0.50396 0.97331 0.44079 0.0
O509 O 0.48103 0.96721 0.47994 0.0
C510 C 0.48597 0.03619 0.4619 0.0
C511 C 0.48309 0.96343 0.45461 0.0
H512 H 0.18676 0.17295 0.2641 0.0
H513 H 0.15964 0.13925 0.29036 0.0
H514 H 0.20992 0.16696 0.35428 0.0
H515 H 0.23727 0.19959 0.32823 0.0
H516 H 0.19745 0.11474 0.34878 0.0
H517 H 0.10544 0.15355 0.35104 0.0
H518 H 0.11941 0.14266 0.31828 0.0
H519 H 0.13723 0.17084 0.33813 0.0
C520 C 0.19213 0.17171 0.28365 0.0
C521 C 0.21418 0.18933 0.29396 0.0
C522 C 0.17645 0.15253 0.2988 0.0
C523 C 0.1823 0.15074 0.32469 0.0
C524 C 0.20477 0.16778 0.3345 0.0
H525 H 0.08112 0.10321 0.46091 0.0
H526 H 0.11034 0.12395 0.42558 0.0
C527 C 0.22043 0.18667 0.31945 0.0
C528 C 0.16501 0.13201 0.34228 0.0
H529 H 0.10283 0.11762 0.3745 0.0
C530 C 0.17668 0.11521 0.35422 0.0
C531 C 0.13791 0.13265 0.34971 0.0
C532 C 0.12423 0.15102 0.33885 0.0
C533 C 0.1624 0.09988 0.37383 0.0
C534 C 0.13539 0.10077 0.38143 0.0
C535 C 0.1235 0.11681 0.36877 0.0
C536 C 0.11961 0.08742 0.40409 0.0
C537 C 0.17678 0.08391 0.38713 0.0
C538 C 0.11544 0.05982 0.40453 0.0
C539 C 0.0989 0.04784 0.42529 0.0
C540 C 0.08594 0.06322 0.44568 0.0
C541 C 0.09081 0.09079 0.44551 0.0
C542 C 0.10744 0.10269 0.42515 0.0
H543 H 0.19862 0.09012 0.38356 0.0
H544 H 0.17117 0.08582 0.40898 0.0
H545 H 0.1713 0.06271 0.37896 0.0
H546 H 0.12413 0.0474 0.38837 0.0
H547 H 0.09517 0.02652 0.42462 0.0
H548 H 0.87093 0.12893 0.31086 0.0
H549 H 0.8865 0.10677 0.34285 0.0
H550 H 0.81979 0.11966 0.39898 0.0
H551 H 0.80353 0.14123 0.36665 0.0
H552 H 0.90026 0.12944 0.39371 0.0
H553 H 0.81952 0.0405 0.39907 0.0
H554 H 0.82427 0.06065 0.37235 0.0
H555 H 0.80952 0.07201 0.40459 0.0
C556 C 0.85924 0.12666 0.32979 0.0
C557 C 0.83585 0.13678 0.33604 0.0
C558 C 0.86828 0.11411 0.34815 0.0
C559 C 0.85417 0.11124 0.37321 0.0
C560 C 0.83078 0.12122 0.3796 0.0
H561 H 0.91081 0.0524 0.5052 0.0
H562 H 0.88132 0.06862 0.47991 0.0
C563 C 0.82169 0.13384 0.3612 0.0
C564 C 0.86497 0.09904 0.39291 0.0
H565 H 0.85419 0.04505 0.42646 0.0
C566 C 0.89006 0.1111 0.401 0.0
C567 C 0.85158 0.07518 0.40258 0.0
C568 C 0.8248 0.06112 0.39413 0.0
C569 C 0.9024 0.0997 0.41795 0.0
C570 C 0.88949 0.07539 0.42686 0.0
C571 C 0.864 0.0637 0.4196 0.0
C572 C 0.90354 0.06108 0.44169 0.0
C573 C 0.92949 0.1135 0.42581 0.0
C574 C 0.92496 0.05046 0.42839 0.0
C575 C 0.94166 0.04139 0.44268 0.0
C576 C 0.93713 0.04245 0.47053 0.0
C577 C 0.91449 0.0511 0.4837 0.0
C578 C 0.89777 0.06046 0.46931 0.0
H579 H 0.93407 0.13463 0.42247 0.0
H580 H 0.93111 0.11243 0.44712 0.0
H581 H 0.94465 0.10352 0.41362 0.0
H582 H 0.92964 0.0506 0.40709 0.0
H583 H 0.959 0.03481 0.43209 0.0
H584 H 0.83405 0.77751 0.31927 0.0
H585 H 0.86466 0.80783 0.34792 0.0
H586 H 0.85831 0.87259 0.30734 0.0
H587 H 0.82743 0.84225 0.27841 0.0
H588 H 0.91442 0.84341 0.33533 0.0
H589 H 0.83621 0.89613 0.38759 0.0
H590 H 0.82845 0.86426 0.3676 0.0
H591 H 0.84037 0.89358 0.35178 0.0
C592 C 0.83929 0.79815 0.31617 0.0
C593 C 0.82807 0.80741 0.29656 0.0
C594 C 0.85687 0.81548 0.33261 0.0
C595 C 0.86351 0.84257 0.3301 0.0
C596 C 0.85319 0.85181 0.30991 0.0
H597 H 0.94809 0.97049 0.44027 0.0
H598 H 0.92476 0.94579 0.40246 0.0
C599 C 0.8357 0.83439 0.29323 0.0
C600 C 0.8805 0.86098 0.34932 0.0
H601 H 0.8787 0.90968 0.40236 0.0
C602 C 0.90668 0.85804 0.34986 0.0
C603 C 0.87045 0.88014 0.36827 0.0
C604 C 0.8423 0.88375 0.36907 0.0
C605 C 0.92297 0.87355 0.36889 0.0
C606 C 0.91264 0.89206 0.38848 0.0
C607 C 0.88667 0.89549 0.38747 0.0
C608 C 0.92795 0.90721 0.41084 0.0
C609 C 0.95118 0.87004 0.36768 0.0
C610 C 0.93745 0.89385 0.42837 0.0
C611 C 0.95083 0.90791 0.45003 0.0
C612 C 0.95484 0.93573 0.45491 0.0
C613 C 0.94536 0.9491 0.43726 0.0
C614 C 0.93199 0.93499 0.41557 0.0
H615 H 0.95849 0.8622 0.34723 0.0
H616 H 0.96462 0.889 0.37407 0.0
H617 H 0.95216 0.85554 0.38117 0.0
H618 H 0.93411 0.87244 0.42562 0.0
H619 H 0.95781 0.89686 0.46308 0.0
H620 H 0.10052 0.79733 0.32275 0.0
H621 H 0.06371 0.81745 0.34285 0.0
H622 H 0.05935 0.84644 0.26897 0.0
H623 H 0.09661 0.82612 0.24853 0.0
H624 H 0.07041 0.88562 0.30658 0.0
H625 H 0.98654 0.8169 0.34918 0.0
H626 H 0.01596 0.80813 0.3569 0.0
H627 H 1.0095 0.80562 0.32247 0.0
C628 C 0.09096 0.80678 0.31028 0.0
C629 C 0.10183 0.81056 0.28419 0.0
C630 C 0.06965 0.81824 0.32182 0.0
C631 C 0.05862 0.83349 0.30745 0.0
C632 C 0.06751 0.83476 0.28044 0.0
H633 H 0.01673 0.96742 0.42093 0.0
H634 H 0.01327 0.93879 0.37791 0.0
C635 C 0.08893 0.8233 0.26886 0.0
C636 C 0.04342 0.85295 0.32255 0.0
H637 H 1.00227 0.85885 0.37959 0.0
C638 C 0.05457 0.87991 0.32182 0.0
C639 C 0.02252 0.84566 0.34218 0.0
C640 C 1.00782 0.81744 0.34245 0.0
C641 C 0.04822 0.89924 0.34249 0.0
C642 C 0.03008 0.89128 0.36417 0.0
C643 C 0.0164 0.86488 0.36305 0.0
C644 C 0.02969 0.90819 0.39021 0.0
C645 C 0.06323 0.92743 0.34251 0.0
C646 C 0.03965 0.90024 0.41133 0.0
C647 C 0.04154 0.91633 0.43568 0.0
C648 C 0.0337 0.94088 0.43942 0.0
C649 C 0.02351 0.94886 0.41834 0.0
C650 C 0.02135 0.93249 0.39389 0.0
H651 H 0.07806 0.92987 0.32492 0.0
H652 H 0.04915 0.94066 0.34232 0.0
H653 H 0.07363 0.934 0.36086 0.0
H654 H 0.04639 0.88165 0.40882 0.0
H655 H 0.0493 0.90957 0.45159 0.0
H656 H 0.21825 0.86696 0.64959 0.0
H657 H 0.20472 0.89141 0.61793 0.0
H658 H 0.13807 0.90615 0.67325 0.0
H659 H 0.15106 0.88151 0.7047 0.0
H660 H 0.15671 0.88168 0.5944 0.0
H661 H 0.17297 0.98029 0.65483 0.0
H662 H 0.18684 0.95334 0.66172 0.0
H663 H 0.15296 0.9551 0.67308 0.0
C664 C 0.20062 0.87528 0.65498 0.0
C665 C 0.18589 0.87239 0.67989 0.0
C666 C 0.19303 0.8894 0.63691 0.0
C667 C 0.17071 0.90112 0.64343 0.0
C668 C 0.15579 0.89794 0.66806 0.0
H669 H 0.05912 0.96523 0.58593 0.0
H670 H 0.09098 0.95181 0.60954 0.0
C671 C 0.16328 0.88381 0.68606 0.0
C672 C 0.16213 0.91578 0.6243 0.0
H673 H 0.14406 0.97417 0.61998 0.0
C674 C 0.15447 0.90209 0.59967 0.0
C675 C 0.15942 0.94249 0.63111 0.0
C676 C 0.16874 0.95877 0.65651 0.0
C677 C 0.14236 0.91375 0.58261 0.0
C678 C 0.13817 0.93993 0.59023 0.0
C679 C 0.14727 0.95412 0.61412 0.0
C680 C 0.12083 0.95131 0.57597 0.0
C681 C 0.13255 0.89739 0.55743 0.0
C682 C 0.12736 0.95651 0.54938 0.0
C683 C 0.10905 0.96446 0.53574 0.0
C684 C 0.08395 0.96702 0.54851 0.0
C685 C 0.0782 0.96317 0.57548 0.0
C686 C 0.09643 0.95554 0.58905 0.0
H687 H 0.13445 0.8764 0.55609 0.0
H688 H 0.11146 0.89798 0.55637 0.0
H689 H 0.1442 0.90577 0.53987 0.0
H690 H 0.14626 0.95373 0.53901 0.0
H691 H 0.11395 0.96723 0.51495 0.0
H692 H 0.18838 0.23366 0.69721 0.0
H693 H 0.15675 0.20392 0.66927 0.0
H694 H 0.16054 0.1393 0.71127 0.0
H695 H 0.19242 0.16907 0.7395 0.0
H696 H 0.16886 0.12835 0.65494 0.0
H697 H 0.07827 0.16978 0.68477 0.0
H698 H 0.10705 0.19422 0.67665 0.0
H699 H 0.10582 0.17707 0.70496 0.0
C700 C 0.18225 0.21322 0.70087 0.0
C701 C 0.19303 0.20381 0.72069 0.0
C702 C 0.16398 0.19624 0.68491 0.0
C703 C 0.156 0.1694 0.68829 0.0
C704 C 0.16625 0.15998 0.70841 0.0
H705 H 0.06877 0.03945 0.58105 0.0
H706 H 0.09208 0.06443 0.61874 0.0
C707 C 0.18441 0.17706 0.72461 0.0
C708 C 0.13868 0.15097 0.66936 0.0
H709 H 0.07905 0.14088 0.64356 0.0
C710 C 0.14907 0.13082 0.6527 0.0
C711 C 0.1129 0.15427 0.66632 0.0
C712 C 0.10021 0.17485 0.68429 0.0
C713 C 0.13492 0.11468 0.63234 0.0
C714 C 0.10934 0.11835 0.6289 0.0
C715 C 0.09866 0.13805 0.64608 0.0
C716 C 0.09394 0.10291 0.60677 0.0
C717 C 0.14805 0.09468 0.61394 0.0
C718 C 0.08629 0.11615 0.58792 0.0
C719 C 0.07275 0.10194 0.56645 0.0
C720 C 0.06648 0.07406 0.56327 0.0
C721 C 0.07357 0.06085 0.58258 0.0
C722 C 0.08703 0.07513 0.60413 0.0
H723 H 0.16982 0.09886 0.61502 0.0
H724 H 0.13994 0.07467 0.61978 0.0
H725 H 0.14418 0.09437 0.59294 0.0
H726 H 0.09121 0.13756 0.58955 0.0
H727 H 0.06746 0.11288 0.5522 0.0
H728 H 0.91809 0.17395 0.77549 0.0
H729 H 0.95373 0.1518 0.75389 0.0
H730 H 0.95642 0.19016 0.68412 0.0
H731 H 0.921 0.21192 0.70522 0.0
H732 H 0.94079 0.11723 0.71151 0.0
H733 H 0.03264 0.18438 0.68083 0.0
H734 H 1.00938 0.19445 0.70788 0.0
H735 H 1.00501 0.19684 0.67382 0.0
C736 C 0.92694 0.17834 0.75589 0.0
C737 C 0.91631 0.19428 0.74187 0.0
C738 C 0.94746 0.16583 0.74367 0.0
C739 C 0.95782 0.1693 0.71739 0.0
C740 C 0.94925 0.18756 0.70461 0.0
H741 H 0.97824 0.1027 0.5674 0.0
H742 H 0.97886 0.12838 0.61146 0.0
C743 C 0.92876 0.19999 0.71675 0.0
C744 C 0.97186 0.14959 0.70092 0.0
H745 H 0.01819 0.14524 0.64771 0.0
C746 C 0.95836 0.12308 0.6982 0.0
C747 C 0.99488 0.15714 0.68372 0.0
C748 C 0.01142 0.18475 0.68697 0.0
C749 C 0.96508 0.10485 0.6766 0.0
C750 C 0.98622 0.11333 0.65758 0.0
C751 C 1.00172 0.13892 0.66211 0.0
C752 C 0.98892 0.09812 0.63075 0.0
C753 C 0.94779 0.07757 0.67282 0.0
C754 C 0.99457 0.07258 0.62693 0.0
C755 C 0.99374 0.05756 0.6017 0.0
C756 C 0.98755 0.06803 0.57993 0.0
C757 C 0.98281 0.09394 0.58376 0.0
C758 C 0.98342 0.10876 0.60891 0.0
H759 H 0.93049 0.07516 0.68807 0.0
H760 H 0.9404 0.07345 0.65277 0.0
H761 H 0.95957 0.06252 0.67426 0.0
H762 H 0.99924 0.06417 0.64347 0.0
H763 H 0.9981 0.03788 0.59921 0.0
H764 H 0.83299 0.83909 0.75484 0.0
H765 H 0.85931 0.87375 0.72917 0.0
H766 H 0.81242 0.84267 0.6631 0.0
H767 H 0.78594 0.80906 0.68841 0.0
H768 H 0.89051 0.87006 0.68424 0.0
H769 H 0.81204 0.91902 0.66508 0.0
H770 H 0.80666 0.8961 0.68932 0.0
H771 H 0.80317 0.88419 0.65455 0.0
C772 C 0.82806 0.83993 0.735 0.0
C773 C 0.80717 0.82117 0.72391 0.0
C774 C 0.84315 0.85976 0.72028 0.0
C775 C 0.83756 0.86138 0.69427 0.0
C776 C 0.81673 0.84264 0.68334 0.0
H777 H 0.94165 0.90658 0.56005 0.0
H778 H 0.91281 0.88683 0.59614 0.0
C779 C 0.80169 0.82307 0.69792 0.0
C780 C 0.85445 0.88106 0.67747 0.0
H781 H 0.85105 0.92296 0.63287 0.0
C782 C 0.88186 0.88197 0.67343 0.0
C783 C 0.84355 0.89724 0.66359 0.0
C784 C 0.81478 0.89931 0.66862 0.0
C785 C 0.8982 0.89704 0.65478 0.0
C786 C 0.88685 0.91115 0.63905 0.0
C787 C 0.85979 0.91175 0.64438 0.0
C788 C 0.90245 0.92354 0.61583 0.0
C789 C 0.92754 0.89739 0.65192 0.0
C790 C 0.905 0.95063 0.61362 0.0
C791 C 0.92131 0.96205 0.59241 0.0
C792 C 0.9353 0.9465 0.57314 0.0
C793 C 0.93144 0.9192 0.57473 0.0
C794 C 0.9151 0.90789 0.59556 0.0
H795 H 0.93416 0.89398 0.67078 0.0
H796 H 0.93196 0.88123 0.63626 0.0
H797 H 0.9392 0.91651 0.6462 0.0
H798 H 0.89515 0.96312 0.62877 0.0
H799 H 0.92399 0.98313 0.59182 0.0
H800 H 0.32155 0.18786 0.23765 0.0
H801 H 0.35119 0.16189 0.20918 0.0
H802 H 0.33204 0.18904 0.13983 0.0
H803 H 0.30194 0.21468 0.16818 0.0
H804 H 0.34087 0.11983 0.16436 0.0
H805 H 0.41469 0.20484 0.13071 0.0
H806 H 0.39131 0.20851 0.15973 0.0
H807 H 0.38066 0.20464 0.12694 0.0
C808 C 0.32344 0.18837 0.21633 0.0
C809 C 0.30883 0.20373 0.20564 0.0
C810 C 0.34063 0.17333 0.19987 0.0
C811 C 0.34465 0.17332 0.17191 0.0
C812 C 0.33005 0.1886 0.16116 0.0
H813 H 0.45259 0.10015 0.04286 0.0
H814 H 0.4237 0.1282 0.06987 0.0
C815 C 0.31247 0.20329 0.17757 0.0
C816 C 0.36353 0.1571 0.15426 0.0
H817 H 0.42114 0.16223 0.11174 0.0
C818 C 0.35844 0.12927 0.15298 0.0
C819 C 0.38659 0.16871 0.1387 0.0
C820 C 0.39392 0.19832 0.13908 0.0
C821 C 0.37494 0.11314 0.13677 0.0
C822 C 0.3986 0.12474 0.12178 0.0
C823 C 0.40353 0.15266 0.12295 0.0
C824 C 0.41818 0.10839 0.10517 0.0
C825 C 0.36585 0.08351 0.13516 0.0
C826 C 0.42644 0.08807 0.11545 0.0
C827 C 0.44281 0.07177 0.09979 0.0
C828 C 0.4528 0.07537 0.07319 0.0
C829 C 0.44593 0.09667 0.06323 0.0
C830 C 0.42901 0.11277 0.07884 0.0
H831 H 0.34398 0.07794 0.13904 0.0
H832 H 0.37181 0.0733 0.1153 0.0
H833 H 0.37459 0.0762 0.15066 0.0
H834 H 0.42001 0.08443 0.13578 0.0
H835 H 0.4474 0.05583 0.10857 0.0
H836 H 0.84764 0.27064 0.20356 0.0
H837 H 0.87944 0.29504 0.17208 0.0
H838 H 0.81962 0.33545 0.15694 0.0
H839 H 0.78754 0.31071 0.1879 0.0
H840 H 0.8489 0.32144 0.11101 0.0
H841 H 0.91628 0.37124 0.18795 0.0
H842 H 0.91046 0.33576 0.18445 0.0
H843 H 0.88359 0.3526 0.19632 0.0
C844 C 0.84115 0.28461 0.19346 0.0
C845 C 0.81494 0.28873 0.19852 0.0
C846 C 0.85948 0.29873 0.17553 0.0
C847 C 0.85223 0.3176 0.16241 0.0
C848 C 0.82587 0.32115 0.16682 0.0
H849 H 0.94263 0.45447 0.09844 0.0
H850 H 0.91785 0.42023 0.12427 0.0
C851 C 0.80748 0.30694 0.18462 0.0
C852 C 0.87205 0.33404 0.14455 0.0
H853 H 0.9302 0.37974 0.14378 0.0
C854 C 0.86677 0.33406 0.11814 0.0
C855 C 0.89535 0.35075 0.15378 0.0
C856 C 0.90172 0.35286 0.18222 0.0
C857 C 0.88376 0.35051 0.10098 0.0
C858 C 0.90707 0.36719 0.11023 0.0
C859 C 0.91258 0.36678 0.13647 0.0
C860 C 0.92423 0.38748 0.09432 0.0
C861 C 0.87596 0.35075 0.0735 0.0
C862 C 0.93703 0.38071 0.06891 0.0
C863 C 0.95146 0.40054 0.05381 0.0
C864 C 0.95329 0.42752 0.06385 0.0
C865 C 0.94148 0.43399 0.08978 0.0
C866 C 0.92726 0.41433 0.10474 0.0
H867 H 0.85501 0.34084 0.07138 0.0
H868 H 0.87877 0.37136 0.06889 0.0
H869 H 0.88871 0.34012 0.05851 0.0
H870 H 0.93555 0.36013 0.06058 0.0
H871 H 0.96026 0.39479 0.03397 0.0
H872 H 0.72308 0.87555 0.12651 0.0
H873 H 0.69448 0.89744 0.10687 0.0
H874 H 0.62925 0.86955 0.16314 0.0
H875 H 0.65806 0.8484 0.18368 0.0
H876 H 0.64963 0.87625 0.08255 0.0
H877 H 0.62654 0.94751 0.17056 0.0
H878 H 0.65263 0.9292 0.16905 0.0
H879 H 0.61868 0.91345 0.17626 0.0
C880 C 0.70278 0.87438 0.1351 0.0
C881 C 0.69309 0.86031 0.15696 0.0
C882 C 0.68634 0.88679 0.12365 0.0
C883 C 0.65972 0.8856 0.1337 0.0
C884 C 0.64982 0.87132 0.15531 0.0
H885 H 0.53719 0.95023 0.07312 0.0
H886 H 0.55953 0.92693 0.09916 0.0
C887 C 0.66629 0.85889 0.16683 0.0
C888 C 0.6424 0.89866 0.1209 0.0
H889 H 0.60474 0.94653 0.13219 0.0
C890 C 0.6398 0.89157 0.09348 0.0
C891 C 0.62935 0.91861 0.13508 0.0
C892 C 0.63205 0.92787 0.16431 0.0
C893 C 0.62486 0.90392 0.07989 0.0
C894 C 0.61233 0.92426 0.09391 0.0
C895 C 0.61429 0.93094 0.12145 0.0
C896 C 0.59867 0.93981 0.07977 0.0
C897 C 0.62261 0.8951 0.05051 0.0
C898 C 0.61328 0.95545 0.06084 0.0
C899 C 0.60068 0.96881 0.0461 0.0
C900 C 0.57303 0.96699 0.04986 0.0
C901 C 0.55847 0.95214 0.06965 0.0
C902 C 0.57121 0.93874 0.08451 0.0
H903 H 0.62721 0.87506 0.04433 0.0
H904 H 0.60242 0.89486 0.0453 0.0
H905 H 0.63691 0.90917 0.0389 0.0
H906 H 0.63452 0.95702 0.05715 0.0
H907 H 0.6127 0.98021 0.03131 0.0
H908 H 0.17899 0.70825 0.22729 0.0
H909 H 0.14996 0.67782 0.19746 0.0
H910 H 0.21706 0.64856 0.15467 0.0
H911 H 0.24653 0.6789 0.18494 0.0
H912 H 0.15022 0.67563 0.14368 0.0
H913 H 0.16529 0.58031 0.16876 0.0
H914 H 0.17582 0.61153 0.18899 0.0
H915 H 0.19527 0.60233 0.15866 0.0
C916 C 0.18773 0.69531 0.21165 0.0
C917 C 0.21521 0.69605 0.20857 0.0
C918 C 0.171 0.67788 0.19457 0.0
C919 C 0.18121 0.66066 0.17401 0.0
C920 C 0.20863 0.66129 0.17075 0.0
H921 H 0.11665 0.55223 0.04285 0.0
H922 H 0.14324 0.57905 0.077 0.0
C923 C 0.22549 0.67876 0.18796 0.0
C924 C 0.16306 0.64286 0.15556 0.0
H925 H 0.14035 0.57795 0.13212 0.0
C926 C 0.14795 0.65426 0.14127 0.0
C927 C 0.16002 0.61497 0.15251 0.0
C928 C 0.17476 0.60148 0.1682 0.0
C929 C 0.13037 0.63862 0.12356 0.0
C930 C 0.12749 0.61075 0.12034 0.0
C931 C 0.14247 0.59932 0.13474 0.0
C932 C 0.11043 0.59329 0.10074 0.0
C933 C 0.11566 0.6521 0.10781 0.0
C934 C 0.0829 0.59184 0.10301 0.0
C935 C 0.06745 0.57642 0.08336 0.0
C936 C 0.07935 0.56225 0.06109 0.0
C937 C 0.10679 0.56311 0.0595 0.0
C938 C 0.12209 0.57837 0.0791 0.0
H939 H 0.12415 0.67361 0.10847 0.0
H940 H 0.116 0.64294 0.08665 0.0
H941 H 0.09468 0.64981 0.1163 0.0
H942 H 0.07341 0.60286 0.11983 0.0
H943 H 0.04639 0.57612 0.08527 0.0
H944 H 0.30034 0.83995 0.80529 0.0
H945 H 0.33202 0.86813 0.83436 0.0
H946 H 0.3551 0.79901 0.85348 0.0
H947 H 0.32309 0.77058 0.8248 0.0
H948 H 0.34791 0.83365 0.89753 0.0
H949 H 0.41175 0.88745 0.82002 0.0
H950 H 0.37763 0.88958 0.82084 0.0
H951 H 0.38721 0.85794 0.81198 0.0
C952 C 0.31213 0.83067 0.81565 0.0
C953 C 0.30914 0.80293 0.81258 0.0
C954 C 0.33046 0.84688 0.8321 0.0
C955 C 0.34644 0.83578 0.84568 0.0
C956 C 0.34319 0.80808 0.84304 0.0
H957 H 0.47931 0.92977 0.93341 0.0
H958 H 0.45348 0.89885 0.90029 0.0
C959 C 0.3248 0.79183 0.82664 0.0
C960 C 0.36575 0.85302 0.86344 0.0
H961 H 0.41768 0.90601 0.86541 0.0
C962 C 0.3633 0.8493 0.89041 0.0
C963 C 0.38621 0.8732 0.85415 0.0
C964 C 0.39108 0.87714 0.82511 0.0
C965 C 0.37997 0.86579 0.90848 0.0
C966 C 0.39939 0.88694 0.89952 0.0
C967 C 0.4026 0.89002 0.87235 0.0
C968 C 0.41552 0.9067 0.9184 0.0
C969 C 0.37659 0.8604 0.93709 0.0
C970 C 0.40289 0.922 0.939 0.0
C971 C 0.41748 0.93955 0.95782 0.0
C972 C 0.44519 0.94246 0.95648 0.0
C973 C 0.45803 0.92799 0.93511 0.0
C974 C 0.44329 0.91027 0.9162 0.0
H975 H 0.36683 0.83953 0.93896 0.0
H976 H 0.39596 0.86459 0.9456 0.0
H977 H 0.36391 0.87337 0.94915 0.0
H978 H 0.38159 0.92013 0.94072 0.0
H979 H 0.40687 0.95061 0.9737 0.0
H980 H 0.19617 0.27414 0.84347 0.0
H981 H 0.16615 0.30014 0.87148 0.0
H982 H 0.17351 0.35013 0.81003 0.0
H983 H 0.20239 0.32375 0.78182 0.0
H984 H 0.16744 0.3474 0.89611 0.0
H985 H 0.09664 0.34003 0.82212 0.0
H986 H 0.1224 0.32099 0.8164 0.0
H987 H 0.12922 0.35481 0.80937 0.0
C988 C 0.19122 0.29047 0.83568 0.0
C989 C 0.2019 0.29617 0.80977 0.0
C990 C 0.17388 0.30562 0.85195 0.0
C991 C 0.16631 0.32725 0.84319 0.0
C992 C 0.17756 0.33324 0.81755 0.0
H993 H 0.08007 0.45551 0.9103 0.0
H994 H 0.1055 0.4245 0.88392 0.0
C995 C 0.1946 0.31802 0.80124 0.0
C996 C 0.14746 0.34376 0.86079 0.0
H997 H 0.09406 0.37332 0.85964 0.0
C998 C 0.15127 0.35269 0.88797 0.0
C999 C 0.12577 0.35116 0.85109 0.0
C1000 C 0.11806 0.34101 0.82326 0.0
C1001 C 0.13525 0.36898 0.90481 0.0
C1002 C 0.1141 0.37692 0.89484 0.0
C1003 C 0.11007 0.36776 0.86781 0.0
C1004 C 0.09681 0.39549 0.91149 0.0
C1005 C 0.14182 0.37834 0.93311 0.0
C1006 C 0.08208 0.39001 0.9361 0.0
C1007 C 0.06682 0.4079 0.95137 0.0
C1008 C 0.06572 0.43221 0.94283 0.0
C1009 C 0.07999 0.43722 0.91794 0.0
C1010 C 0.09484 0.41929 0.90262 0.0
H1011 H 0.16205 0.37615 0.93601 0.0
H1012 H 0.14031 0.39942 0.9389 0.0
H1013 H 0.12751 0.36635 0.94673 0.0
H1014 H 0.08238 0.37181 0.94368 0.0
H1015 H 0.05663 0.40306 0.97037 0.0
H1016 H 0.68812 0.25342 0.83424 0.0
H1017 H 0.65591 0.22896 0.86545 0.0
H1018 H 0.6808 0.15653 0.83048 0.0
H1019 H 0.71302 0.18076 0.79918 0.0
H1020 H 0.62429 0.15208 0.83906 0.0
H1021 H 0.67395 0.19875 0.93005 0.0
H1022 H 0.66694 0.22101 0.90943 0.0
H1023 H 0.69057 0.20044 0.89689 0.0
C1024 C 0.68687 0.2323 0.8332 0.0
C1025 C 0.70345 0.21918 0.81421 0.0
C1026 C 0.66841 0.21832 0.85116 0.0
C1027 C 0.66601 0.19087 0.85058 0.0
C1028 C 0.68225 0.17768 0.83142 0.0
H1029 H 0.60845 0.07749 0.95706 0.0
H1030 H 0.63177 0.11106 0.92954 0.0
C1031 C 0.70079 0.19164 0.81356 0.0
C1032 C 0.64682 0.17581 0.86997 0.0
H1033 H 0.63453 0.1673 0.93597 0.0
C1034 C 0.62633 0.15561 0.86029 0.0
C1035 C 0.6495 0.18029 0.89771 0.0
C1036 C 0.6715 0.20114 0.90927 0.0
C1037 C 0.60886 0.13954 0.87745 0.0
C1038 C 0.61182 0.14374 0.90512 0.0
C1039 C 0.63198 0.16428 0.91485 0.0
C1040 C 0.59678 0.12479 0.92356 0.0
C1041 C 0.5881 0.11735 0.86573 0.0
C1042 C 0.56916 0.12159 0.93011 0.0
C1043 C 0.55558 0.1023 0.94631 0.0
C1044 C 0.56943 0.08573 0.95585 0.0
C1045 C 0.5971 0.08971 0.94986 0.0
C1046 C 0.61055 0.109 0.93413 0.0
H1047 H 0.59031 0.11478 0.84357 0.0
H1048 H 0.58917 0.09842 0.87258 0.0
H1049 H 0.56815 0.12162 0.8727 0.0
H1050 H 0.55809 0.13373 0.92243 0.0
H1051 H 0.53429 0.09967 0.95048 0.0
H1052 H 0.86855 0.66154 0.82791 0.0
H1053 H 0.88842 0.6315 0.84789 0.0
H1054 H 0.88022 0.67851 0.92456 0.0
H1055 H 0.8603 0.70856 0.90482 0.0
H1056 H 0.92868 0.66541 0.91507 0.0
H1057 H 0.852 0.57507 0.89384 0.0
H1058 H 0.86668 0.59013 0.86472 0.0
H1059 H 0.84733 0.60761 0.89024 0.0
C1060 C 0.87065 0.66538 0.8491 0.0
C1061 C 0.86264 0.68764 0.86464 0.0
C1062 C 0.88206 0.64809 0.86055 0.0
C1063 C 0.88558 0.65236 0.88793 0.0
C1064 C 0.8778 0.67464 0.90343 0.0
H1065 H 0.91352 0.54252 0.98848 0.0
H1066 H 0.89576 0.57026 0.96373 0.0
C1067 C 0.86645 0.69195 0.89201 0.0
C1068 C 0.89769 0.63399 0.90044 0.0
H1069 H 0.89029 0.56948 0.91144 0.0
C1070 C 0.92028 0.64443 0.9142 0.0
C1071 C 0.88669 0.60657 0.89971 0.0
C1072 C 0.8617 0.59416 0.88657 0.0
C1073 C 0.9321 0.62838 0.92707 0.0
C1074 C 0.92143 0.60086 0.92587 0.0
C1075 C 0.89878 0.59044 0.91218 0.0
C1076 C 0.9325 0.58286 0.93992 0.0
C1077 C 0.95546 0.6413 0.94258 0.0
C1078 C 0.95906 0.57994 0.93453 0.0
C1079 C 0.9694 0.56397 0.94878 0.0
C1080 C 0.9534 0.55033 0.96872 0.0
C1081 C 0.92659 0.55264 0.97339 0.0
C1082 C 0.91632 0.56858 0.95918 0.0
H1083 H 0.95695 0.66306 0.94724 0.0
H1084 H 0.95412 0.63291 0.96156 0.0
H1085 H 0.97396 0.6377 0.93051 0.0
H1086 H 0.97191 0.59017 0.91938 0.0
H1087 H 0.99009 0.56274 0.94451 0.0
H1088 H 0.11906 0.30535 0.16382 0.0
H1089 H 0.09985 0.33514 0.14269 0.0
H1090 H 0.17811 0.37609 0.11758 0.0
H1091 H 0.1975 0.34617 0.13824 0.0
H1092 H 0.10659 0.39176 0.15171 0.0
H1093 H 0.14165 0.35665 0.04776 0.0
H1094 H 0.1411 0.33823 0.07515 0.0
H1095 H 0.167 0.36653 0.07033 0.0
C1096 C 0.13226 0.32055 0.15364 0.0
C1097 C 0.15994 0.32312 0.15271 0.0
C1098 C 0.12119 0.33772 0.14168 0.0
C1099 C 0.13744 0.35775 0.12817 0.0
C1100 C 0.16506 0.36062 0.1275 0.0
H1101 H 0.11082 0.47367 0.03303 0.0
H1102 H 0.1291 0.4463 0.05784 0.0
C1103 C 0.17615 0.34358 0.1396 0.0
C1104 C 0.12556 0.3756 0.11482 0.0
H1105 H 0.12172 0.39415 0.05406 0.0
C1106 C 0.10981 0.39222 0.13034 0.0
C1107 C 0.12973 0.37634 0.08693 0.0
C1108 C 0.14559 0.35835 0.06896 0.0
C1109 C 0.09872 0.4099 0.11889 0.0
C1110 C 0.10284 0.41061 0.09093 0.0
C1111 C 0.11849 0.39383 0.07545 0.0
C1112 C 0.09142 0.42864 0.07723 0.0
C1113 C 0.0834 0.42822 0.13707 0.0
C1114 C 0.06401 0.42823 0.07977 0.0
C1115 C 0.05345 0.4442 0.06572 0.0
C1116 C 0.06997 0.46075 0.04842 0.0
C1117 C 0.0974 0.46129 0.04614 0.0
C1118 C 0.10793 0.44551 0.06031 0.0
H1119 H 0.08882 0.431 0.15787 0.0
H1120 H 0.08688 0.44793 0.13007 0.0
H1121 H 0.06194 0.41951 0.13736 0.0
H1122 H 0.0506 0.415 0.09204 0.0
H1123 H 0.03221 0.44289 0.06776 0.0
H1124 H 0.22653 0.68758 0.81637 0.0
H1125 H 0.19477 0.6646 0.8487 0.0
H1126 H 0.15116 0.72771 0.86031 0.0
H1127 H 0.18311 0.75109 0.82781 0.0
H1128 H 0.17855 0.68306 0.90435 0.0
H1129 H 0.09581 0.65789 0.83924 0.0
H1130 H 0.12992 0.66746 0.82614 0.0
H1131 H 0.1127 0.69195 0.84444 0.0
C1132 C 0.21028 0.69674 0.8258 0.0
C1133 C 0.2074 0.72122 0.81927 0.0
C1134 C 0.19212 0.68354 0.8444 0.0
C1135 C 0.17038 0.69423 0.85681 0.0
C1136 C 0.16762 0.71891 0.85081 0.0
H1137 H 0.06584 0.61603 0.98612 0.0
H1138 H 0.09064 0.65134 0.96037 0.0
C1139 C 0.186 0.73233 0.83232 0.0
C1140 C 0.15056 0.67901 0.87551 0.0
H1141 H 0.08805 0.64104 0.88034 0.0
C1142 C 0.15861 0.67422 0.89933 0.0
C1143 C 0.12461 0.66723 0.86884 0.0
C1144 C 0.1151 0.67115 0.84324 0.0
C1145 C 0.14167 0.65761 0.91632 0.0
C1146 C 0.1159 0.64539 0.90938 0.0
C1147 C 0.10766 0.65061 0.88583 0.0
C1148 C 0.09855 0.62481 0.92464 0.0
C1149 C 0.15185 0.65221 0.94097 0.0
C1150 C 0.09398 0.5983 0.91294 0.0
C1151 C 0.08 0.57822 0.92755 0.0
C1152 C 0.06987 0.58407 0.95425 0.0
C1153 C 0.07324 0.61081 0.9656 0.0
C1154 C 0.0876 0.63099 0.95097 0.0
H1155 H 0.17333 0.66059 0.94182 0.0
H1156 H 0.14092 0.66113 0.95894 0.0
H1157 H 0.1484 0.63056 0.94172 0.0
H1158 H 0.10209 0.59298 0.89268 0.0
H1159 H 0.07766 0.55791 0.91804 0.0
H1160 H 0.35457 0.18593 0.8735 0.0
H1161 H 0.38362 0.16444 0.89329 0.0
H1162 H 0.33829 0.08791 0.8654 0.0
H1163 H 0.30967 0.10916 0.84489 0.0
H1164 H 0.37064 0.13246 0.93254 0.0
H1165 H 0.41344 0.07752 0.84178 0.0
H1166 H 0.39594 0.10365 0.84044 0.0
H1167 H 0.37791 0.07086 0.84496 0.0
C1168 C 0.35103 0.16451 0.87112 0.0
C1169 C 0.32969 0.14936 0.85747 0.0
C1170 C 0.36761 0.15222 0.88263 0.0
C1171 C 0.36348 0.12448 0.88059 0.0
C1172 C 0.34231 0.1093 0.86686 0.0
H1173 H 0.40852 0.02943 0.9846 0.0
H1174 H 0.38684 0.05256 0.95854 0.0
C1175 C 0.32569 0.12155 0.8554 0.0
C1176 C 0.38034 0.11148 0.89405 0.0
H1177 H 0.41951 0.06497 0.88351 0.0
C1178 C 0.38148 0.11787 0.92173 0.0
C1179 C 0.39486 0.09264 0.88003 0.0
C1180 C 0.39574 0.08592 0.85012 0.0
C1181 C 0.39587 0.10539 0.93582 0.0
C1182 C 0.40932 0.08563 0.922 0.0
C1183 C 0.40901 0.07988 0.89419 0.0
C1184 C 0.42285 0.07015 0.9364 0.0
C1185 C 0.39655 0.1135 0.96548 0.0
C1186 C 0.45035 0.07139 0.93196 0.0
C1187 C 0.46299 0.05798 0.9469 0.0
C1188 C 0.44831 0.04294 0.96648 0.0
C1189 C 0.42063 0.04097 0.96997 0.0
C1190 C 0.40812 0.05433 0.95512 0.0
H1191 H 0.3917 0.13342 0.97171 0.0
H1192 H 0.38168 0.0991 0.97618 0.0
H1193 H 0.41632 0.11367 0.97176 0.0
H1194 H 0.46215 0.08332 0.91748 0.0
H1195 H 0.4843 0.06001 0.94364 0.0
H1196 H 0.81297 0.28556 0.83226 0.0
H1197 H 0.84388 0.31607 0.86048 0.0
H1198 H 0.83836 0.38009 0.81831 0.0
H1199 H 0.80665 0.3498 0.79056 0.0
H1200 H 0.89179 0.34495 0.84904 0.0
H1201 H 0.82392 0.41226 0.89386 0.0
H1202 H 0.81256 0.38094 0.87427 0.0
H1203 H 0.82876 0.4093 0.85815 0.0
C1204 C 0.81815 0.30617 0.82909 0.0
C1205 C 0.80709 0.31529 0.80933 0.0
C1206 C 0.83594 0.3236 0.8452 0.0
C1207 C 0.84322 0.35051 0.84184 0.0
C1208 C 0.83256 0.3596 0.8218 0.0
H1209 H 0.97616 0.45272 0.92511 0.0
H1210 H 0.94983 0.42702 0.88956 0.0
C1211 C 0.81448 0.34222 0.80587 0.0
C1212 C 0.86201 0.36882 0.85938 0.0
H1213 H 0.86807 0.42464 0.90484 0.0
C1214 C 0.88664 0.36243 0.8612 0.0
C1215 C 0.85525 0.39155 0.87539 0.0
C1216 C 0.8286 0.39884 0.87558 0.0
C1217 C 0.90441 0.37775 0.87895 0.0
C1218 C 0.89768 0.40055 0.89485 0.0
C1219 C 0.87333 0.40728 0.89253 0.0
C1220 C 0.91425 0.41633 0.91584 0.0
C1221 C 0.92964 0.36869 0.88132 0.0
C1222 C 0.90295 0.41939 0.9423 0.0
C1223 C 0.91772 0.43432 0.96243 0.0
C1224 C 0.94434 0.44655 0.95672 0.0
C1225 C 0.9558 0.44341 0.93021 0.0
C1226 C 0.94079 0.42861 0.9099 0.0
H1227 H 0.92885 0.34771 0.87254 0.0
H1228 H 0.94644 0.38106 0.8705 0.0
H1229 H 0.9337 0.37083 0.90251 0.0
H1230 H 0.88258 0.41009 0.94747 0.0
H1231 H 0.90821 0.4361 0.98259 0.0
H1232 H 0.70038 0.82229 0.77989 0.0
H1233 H 0.67097 0.84829 0.80836 0.0
H1234 H 0.68861 0.81907 0.8773 0.0
H1235 H 0.71908 0.79423 0.849 0.0
H1236 H 0.62778 0.84135 0.83643 0.0
H1237 H 0.69578 0.89134 0.91176 0.0
H1238 H 0.70692 0.87197 0.88183 0.0
H1239 H 0.69083 0.85614 0.91033 0.0
C1240 C 0.6984 0.82159 0.80118 0.0
C1241 C 0.71289 0.80606 0.81174 0.0
C1242 C 0.6812 0.8366 0.81772 0.0
C1243 C 0.67733 0.83681 0.84577 0.0
C1244 C 0.69143 0.82078 0.85623 0.0
H1245 H 0.56644 0.9086 0.97341 0.0
H1246 H 0.59468 0.87959 0.94668 0.0
C1247 C 0.70896 0.8061 0.83973 0.0
C1248 C 0.65819 0.85298 0.86349 0.0
H1249 H 0.6506 0.89462 0.92254 0.0
C1250 C 0.63317 0.85303 0.85514 0.0
C1251 C 0.66421 0.86878 0.88833 0.0
C1252 C 0.69098 0.87233 0.89847 0.0
C1253 C 0.61466 0.86755 0.87039 0.0
C1254 C 0.62058 0.88293 0.89528 0.0
C1255 C 0.6454 0.88282 0.90382 0.0
C1256 C 0.60195 0.90011 0.91182 0.0
C1257 C 0.58848 0.86601 0.85976 0.0
C1258 C 0.5959 0.9217 0.90182 0.0
C1259 C 0.57986 0.93849 0.91725 0.0
C1260 C 0.56851 0.9344 0.94342 0.0
C1261 C 0.57401 0.91238 0.95331 0.0
C1262 C 0.59058 0.8958 0.93795 0.0
H1263 H 0.58407 0.84891 0.84398 0.0
H1264 H 0.57211 0.86437 0.87604 0.0
H1265 H 0.58907 0.88439 0.85104 0.0
H1266 H 0.60428 0.92616 0.88211 0.0
H1267 H 0.57673 0.95522 0.9087 0.0
H1268 H 0.82179 0.68755 0.23511 0.0
H1269 H 0.85095 0.66144 0.20647 0.0
H1270 H 0.85539 0.71021 0.14454 0.0
H1271 H 0.826 0.73643 0.17318 0.0
H1272 H 0.84578 0.63026 0.15816 0.0
H1273 H 0.93358 0.71012 0.14427 0.0
H1274 H 0.90645 0.71428 0.16931 0.0
H1275 H 0.90356 0.71661 0.13501 0.0
C1276 C 0.829 0.69305 0.21549 0.0
C1277 C 0.8212 0.71466 0.20699 0.0
C1278 C 0.84587 0.67782 0.19886 0.0
C1279 C 0.85626 0.68357 0.17297 0.0
C1280 C 0.84855 0.70519 0.16439 0.0
H1281 H 0.96454 0.60711 0.04637 0.0
H1282 H 0.93772 0.63738 0.07317 0.0
C1283 C 0.83138 0.7203 0.18095 0.0
C1284 C 0.87421 0.66647 0.15506 0.0
H1285 H 0.93548 0.66833 0.11914 0.0
C1286 C 0.86541 0.63879 0.1498 0.0
C1287 C 0.90003 0.67688 0.14339 0.0
C1288 C 0.91167 0.70605 0.14838 0.0
C1289 C 0.88093 0.62178 0.13348 0.0
C1290 C 0.90709 0.63202 0.12235 0.0
C1291 C 0.9158 0.65981 0.12736 0.0
C1292 C 0.92548 0.61425 0.10608 0.0
C1293 C 0.86836 0.59288 0.12763 0.0
C1294 C 0.92921 0.5912 0.11529 0.0
C1295 C 0.94449 0.57377 0.09983 0.0
C1296 C 0.95764 0.57863 0.07449 0.0
C1297 C 0.95524 0.60244 0.06574 0.0
C1298 C 0.93953 0.61985 0.08119 0.0
H1299 H 0.84644 0.58998 0.12896 0.0
H1300 H 0.87543 0.5842 0.10746 0.0
H1301 H 0.87333 0.58186 0.14266 0.0
H1302 H 0.92001 0.58634 0.13461 0.0
H1303 H 0.94566 0.55597 0.10775 0.0
H1304 H 0.35102 0.78077 0.21341 0.0
H1305 H 0.38166 0.80671 0.18237 0.0
H1306 H 0.31673 0.83458 0.15874 0.0
H1307 H 0.28589 0.80881 0.18995 0.0
H1308 H 0.38478 0.80635 0.12736 0.0
H1309 H 0.36806 0.90344 0.17981 0.0
H1310 H 0.35691 0.87316 0.19455 0.0
H1311 H 0.33813 0.88123 0.17067 0.0
C1312 C 0.34313 0.79234 0.20161 0.0
C1313 C 0.31584 0.79271 0.20443 0.0
C1314 C 0.36078 0.80719 0.18378 0.0
C1315 C 0.35171 0.82302 0.16841 0.0
C1316 C 0.32441 0.82299 0.17072 0.0
H1317 H 0.41242 0.9307 0.05439 0.0
H1318 H 0.38749 0.89885 0.08305 0.0
C1319 C 0.30671 0.8081 0.18853 0.0
C1320 C 0.37078 0.83977 0.15027 0.0
H1321 H 0.39215 0.90363 0.13702 0.0
C1322 C 0.38654 0.82765 0.12958 0.0
C1323 C 0.37343 0.86764 0.15326 0.0
C1324 C 0.35845 0.88221 0.17592 0.0
C1325 C 0.40389 0.84247 0.11122 0.0
C1326 C 0.40585 0.87023 0.11375 0.0
C1327 C 0.39064 0.88236 0.1349 0.0
C1328 C 0.42183 0.88706 0.09378 0.0
C1329 C 0.41922 0.82822 0.08866 0.0
C1330 C 0.4497 0.89071 0.08942 0.0
C1331 C 0.46421 0.90904 0.07261 0.0
C1332 C 0.45104 0.92413 0.06018 0.0
C1333 C 0.4232 0.91949 0.06377 0.0
C1334 C 0.40886 0.90129 0.08025 0.0
H1335 H 0.41191 0.80644 0.08658 0.0
H1336 H 0.41801 0.83538 0.06951 0.0
H1337 H 0.44038 0.83236 0.09249 0.0
H1338 H 0.46028 0.88026 0.09986 0.0
H1339 H 0.48564 0.9124 0.0705 0.0
H1340 H 0.74158 0.18192 0.18475 0.0
H1341 H 0.71108 0.15237 0.15506 0.0
H1342 H 0.64871 0.19365 0.18921 0.0
H1343 H 0.679 0.22351 0.21836 0.0
H1344 H 0.66459 0.11824 0.1672 0.0
H1345 H 0.64485 0.19365 0.11068 0.0
H1346 H 0.6715 0.20042 0.13188 0.0
H1347 H 0.63813 0.20122 0.14607 0.0
C1348 C 0.72145 0.18488 0.18577 0.0
C1349 C 0.71288 0.20527 0.20389 0.0
C1350 C 0.70399 0.1679 0.16882 0.0
C1351 C 0.67766 0.17101 0.16954 0.0
C1352 C 0.66905 0.19121 0.18774 0.0
H1353 H 0.54373 0.08292 0.08117 0.0
H1354 H 0.57032 0.11146 0.11523 0.0
C1355 C 0.68645 0.20822 0.20457 0.0
C1356 C 0.65896 0.1527 0.15185 0.0
H1357 H 0.61767 0.1508 0.10395 0.0
C1358 C 0.65441 0.12539 0.15333 0.0
C1359 C 0.64549 0.16197 0.13381 0.0
C1360 C 0.65039 0.19088 0.13027 0.0
C1361 C 0.63674 0.10718 0.1374 0.0
C1362 C 0.62342 0.11645 0.11929 0.0
C1363 C 0.62769 0.14375 0.11802 0.0
C1364 C 0.60663 0.09801 0.10003 0.0
C1365 C 0.63234 0.07813 0.14018 0.0
C1366 C 0.61816 0.08099 0.08027 0.0
C1367 C 0.60316 0.06489 0.06085 0.0
C1368 C 0.57618 0.06537 0.06064 0.0
C1369 C 0.5644 0.08196 0.08085 0.0
C1370 C 0.57959 0.09834 0.10023 0.0
H1371 H 0.6381 0.07497 0.15954 0.0
H1372 H 0.61129 0.06842 0.13848 0.0
H1373 H 0.64463 0.0683 0.12397 0.0
H1374 H 0.63903 0.08064 0.07945 0.0
H1375 H 0.6129 0.05229 0.0457 0.0
H1376 H 0.67925 0.69249 0.7895 0.0
H1377 H 0.65546 0.66202 0.8207 0.0
H1378 H 0.72976 0.65066 0.84161 0.0
H1379 H 0.75364 0.68099 0.81076 0.0
H1380 H 0.65684 0.60803 0.82534 0.0
H1381 H 0.69209 0.677 0.91373 0.0
H1382 H 0.69456 0.68732 0.88113 0.0
H1383 H 0.71767 0.66893 0.88865 0.0
C1384 C 0.69055 0.68327 0.80047 0.0
C1385 C 0.71841 0.68942 0.79763 0.0
C1386 C 0.6769 0.66587 0.81837 0.0
C1387 C 0.69081 0.6544 0.8339 0.0
C1388 C 0.71857 0.65963 0.83026 0.0
H1389 H 0.61281 0.52885 0.93305 0.0
H1390 H 0.64581 0.5545 0.90296 0.0
C1391 C 0.7322 0.67692 0.81242 0.0
C1392 C 0.67639 0.63764 0.85447 0.0
H1393 H 0.66669 0.63519 0.92178 0.0
C1394 C 0.6591 0.61387 0.84641 0.0
C1395 C 0.67919 0.64535 0.88202 0.0
C1396 C 0.69669 0.67113 0.89204 0.0
C1397 C 0.64449 0.59771 0.86511 0.0
C1398 C 0.64739 0.60536 0.89265 0.0
C1399 C 0.66477 0.62909 0.90068 0.0
C1400 C 0.63041 0.59055 0.91349 0.0
C1401 C 0.62533 0.57302 0.85531 0.0
C1402 C 0.61178 0.60264 0.93046 0.0
C1403 C 0.59316 0.58814 0.94763 0.0
C1404 C 0.59289 0.56125 0.94856 0.0
C1405 C 0.61277 0.54961 0.93306 0.0
C1406 C 0.63136 0.56415 0.91558 0.0
H1407 H 0.62207 0.57231 0.83406 0.0
H1408 H 0.6333 0.55536 0.85729 0.0
H1409 H 0.60593 0.57177 0.8675 0.0
H1410 H 0.6107 0.62297 0.92938 0.0
H1411 H 0.57799 0.5976 0.95923 0.0
H1412 H 0.31125 0.61059 0.8329 0.0
H1413 H 0.32717 0.5905 0.86658 0.0
H1414 H 0.38508 0.66203 0.88387 0.0
H1415 H 0.36903 0.6823 0.85058 0.0
H1416 H 0.37444 0.57938 0.86828 0.0
H1417 H 0.35497 0.64918 0.95806 0.0
H1418 H 0.34143 0.64897 0.92708 0.0
H1419 H 0.37484 0.66599 0.9321 0.0
C1420 C 0.32731 0.62207 0.84396 0.0
C1421 C 0.33877 0.64812 0.8391 0.0
C1422 C 0.33632 0.6106 0.86331 0.0
C1423 C 0.35699 0.62488 0.87825 0.0
C1424 C 0.36855 0.65084 0.87331 0.0
H1425 H 0.47059 0.59377 0.9686 0.0
H1426 H 0.44053 0.61271 0.9475 0.0
C1427 C 0.35942 0.66239 0.85413 0.0
C1428 C 0.36763 0.61213 0.89773 0.0
H1429 H 0.3857 0.62137 0.96135 0.0
C1430 C 0.37644 0.58833 0.88876 0.0
C1431 C 0.37022 0.6237 0.92456 0.0
C1432 C 0.3596 0.64821 0.9361 0.0
C1433 C 0.38887 0.57654 0.90538 0.0
C1434 C 0.39242 0.58871 0.93182 0.0
C1435 C 0.38293 0.61205 0.9411 0.0
C1436 C 0.40831 0.57884 0.94902 0.0
C1437 C 0.39925 0.55179 0.89416 0.0
C1438 C 0.3997 0.55399 0.95811 0.0
C1439 C 0.41682 0.54319 0.97053 0.0
C1440 C 0.44286 0.557 0.97378 0.0
C1441 C 0.45066 0.58264 0.96635 0.0
C1442 C 0.43351 0.59349 0.95424 0.0
H1443 H 0.39824 0.54698 0.87227 0.0
H1444 H 0.42012 0.55402 0.89846 0.0
H1445 H 0.38732 0.53482 0.90379 0.0
H1446 H 0.38021 0.54246 0.95448 0.0
H1447 H 0.41035 0.5233 0.97576 0.0
H1448 H 0.33574 0.27018 0.81179 0.0
H1449 H 0.36521 0.2984 0.84324 0.0
H1450 H 0.34053 0.36729 0.82581 0.0
H1451 H 0.31107 0.33934 0.79428 0.0
H1452 H 0.40786 0.34402 0.83524 0.0
H1453 H 0.32571 0.36922 0.90856 0.0
H1454 H 0.32108 0.34143 0.8825 0.0
H1455 H 0.32328 0.37442 0.87497 0.0
C1456 C 0.3367 0.29137 0.81443 0.0
C1457 C 0.32089 0.30242 0.80046 0.0
C1458 C 0.35358 0.30747 0.83248 0.0
C1459 C 0.3548 0.33492 0.83721 0.0
C1460 C 0.33963 0.34611 0.82279 0.0
H1461 H 0.46077 0.46873 0.90573 0.0
H1462 H 0.43488 0.43245 0.87844 0.0
C1463 C 0.3229 0.33007 0.8046 0.0
C1464 C 0.37168 0.35192 0.85739 0.0
H1465 H 0.36891 0.39429 0.91553 0.0
C1466 C 0.39933 0.3548 0.85292 0.0
C1467 C 0.36059 0.3657 0.88072 0.0
C1468 C 0.33103 0.36244 0.88721 0.0
C1469 C 0.41615 0.37204 0.87048 0.0
C1470 C 0.40506 0.38682 0.89308 0.0
C1471 C 0.37741 0.38302 0.89819 0.0
C1472 C 0.42177 0.40811 0.91011 0.0
C1473 C 0.44572 0.37465 0.86449 0.0
C1474 C 0.42291 0.4067 0.93728 0.0
C1475 C 0.43807 0.42756 0.95317 0.0
C1476 C 0.45194 0.45039 0.94224 0.0
C1477 C 0.45047 0.45158 0.91502 0.0
C1478 C 0.43573 0.43072 0.89921 0.0
H1479 H 0.45089 0.35683 0.85178 0.0
H1480 H 0.45366 0.39199 0.85362 0.0
H1481 H 0.45562 0.37787 0.88313 0.0
H1482 H 0.41211 0.38947 0.94616 0.0
H1483 H 0.43867 0.42592 0.974 0.0
H1484 H 0.57501 0.2982 0.76157 0.0
H1485 H 0.53603 0.31373 0.78537 0.0
H1486 H 0.56638 0.3137 0.86038 0.0
H1487 H 0.60447 0.29733 0.83695 0.0
H1488 H 0.51144 0.31012 0.86588 0.0
H1489 H 0.56464 0.39153 0.80767 0.0
H1490 H 0.54947 0.36101 0.7894 0.0
H1491 H 0.57766 0.36213 0.80711 0.0
C1492 C 0.57266 0.3004 0.78317 0.0
C1493 C 0.59303 0.29732 0.79746 0.0
C1494 C 0.55042 0.30922 0.79672 0.0
C1495 C 0.54892 0.31585 0.82455 0.0
C1496 C 0.56725 0.30896 0.83887 0.0
H1497 H 0.54078 0.42521 0.95548 0.0
H1498 H 0.53393 0.38414 0.92459 0.0
C1499 C 0.58915 0.29966 0.82541 0.0
C1500 C 0.53368 0.33583 0.83813 0.0
H1501 H 0.53941 0.40276 0.84626 0.0
C1502 C 0.51683 0.33031 0.86122 0.0
C1503 C 0.54064 0.36218 0.83195 0.0
C1504 C 0.55916 0.36976 0.8078 0.0
C1505 C 0.50866 0.35077 0.87945 0.0
C1506 C 0.51798 0.37729 0.87454 0.0
C1507 C 0.53242 0.38243 0.85013 0.0
C1508 C 0.51696 0.40023 0.89547 0.0
C1509 C 0.49112 0.34376 0.90423 0.0
C1510 C 0.51014 0.42309 0.88931 0.0
C1511 C 0.51532 0.44682 0.90627 0.0
C1512 C 0.52672 0.44804 0.93014 0.0
C1513 C 0.53215 0.42486 0.93711 0.0
C1514 C 0.52769 0.40123 0.91971 0.0
H1515 H 0.47661 0.32504 0.89971 0.0
H1516 H 0.50348 0.34049 0.91921 0.0
H1517 H 0.48018 0.35961 0.91311 0.0
H1518 H 0.50191 0.42286 0.87074 0.0
H1519 H 0.51046 0.46428 0.90059 0.0
H1520 H 0.64998 0.32497 0.16707 0.0
H1521 H 0.63208 0.34403 0.13398 0.0
H1522 H 0.69162 0.4152 0.14578 0.0
H1523 H 0.70994 0.39613 0.1786 0.0
H1524 H 0.61243 0.39197 0.1448 0.0
H1525 H 0.69445 0.39722 0.0634 0.0
H1526 H 0.69128 0.3761 0.08909 0.0
H1527 H 0.70365 0.41106 0.09624 0.0
C1528 C 0.65958 0.3445 0.16231 0.0
C1529 C 0.68143 0.35899 0.17553 0.0
C1530 C 0.64925 0.35541 0.14345 0.0
C1531 C 0.66069 0.38092 0.13713 0.0
C1532 C 0.68272 0.39532 0.14998 0.0
H1533 H 0.61007 0.48571 0.04396 0.0
H1534 H 0.63718 0.46439 0.06683 0.0
C1535 C 0.69298 0.38449 0.16898 0.0
C1536 C 0.64833 0.39309 0.11858 0.0
H1537 H 0.65871 0.41735 0.0586 0.0
C1538 C 0.62251 0.3974 0.1259 0.0
C1539 C 0.66164 0.40048 0.09407 0.0
C1540 C 0.68922 0.39585 0.08502 0.0
C1541 C 0.60967 0.409 0.10955 0.0
C1542 C 0.62267 0.41587 0.08471 0.0
C1543 C 0.64867 0.4119 0.07749 0.0
C1544 C 0.60923 0.42705 0.06622 0.0
C1545 C 0.58241 0.41433 0.11936 0.0
C1546 C 0.58535 0.41266 0.05683 0.0
C1547 C 0.56988 0.4248 0.04395 0.0
C1548 C 0.57822 0.45143 0.03966 0.0
C1549 C 0.60334 0.46506 0.04667 0.0
C1550 C 0.61873 0.45295 0.05994 0.0
H1551 H 0.57844 0.41486 0.14135 0.0
H1552 H 0.57992 0.43342 0.11392 0.0
H1553 H 0.56732 0.39826 0.11006 0.0
H1554 H 0.5779 0.39246 0.06087 0.0
H1555 H 0.5506 0.41384 0.03878 0.0
H1556 H 0.72318 0.67172 0.21253 0.0
H1557 H 0.69512 0.6428 0.18059 0.0
H1558 H 0.65121 0.70432 0.18057 0.0
H1559 H 0.68036 0.73393 0.21143 0.0
H1560 H 0.64691 0.62137 0.18226 0.0
H1561 H 0.66304 0.68586 0.1028 0.0
H1562 H 0.682 0.69373 0.13128 0.0
H1563 H 0.64958 0.70162 0.13361 0.0
C1564 C 0.70755 0.67915 0.20575 0.0
C1565 C 0.70409 0.70521 0.21456 0.0
C1566 C 0.69147 0.66255 0.18735 0.0
C1567 C 0.67121 0.67136 0.17748 0.0
C1568 C 0.66719 0.69717 0.18696 0.0
H1569 H 0.54334 0.55508 0.10659 0.0
H1570 H 0.57056 0.58941 0.13507 0.0
C1571 C 0.68368 0.71402 0.20494 0.0
C1572 C 0.65393 0.65309 0.15811 0.0
H1573 H 0.62775 0.64808 0.0986 0.0
C1574 C 0.64293 0.62728 0.16391 0.0
C1575 C 0.64893 0.66034 0.13375 0.0
C1576 C 0.66175 0.68679 0.12484 0.0
C1577 C 0.62712 0.60878 0.14644 0.0
C1578 C 0.62083 0.61649 0.12287 0.0
C1579 C 0.63209 0.64217 0.1168 0.0
C1580 C 0.60275 0.59808 0.10439 0.0
C1581 C 0.61809 0.58085 0.15321 0.0
C1582 C 0.61056 0.59286 0.07691 0.0
C1583 C 0.59437 0.5738 0.0602 0.0
C1584 C 0.57031 0.55934 0.07079 0.0
C1585 C 0.56202 0.56553 0.09794 0.0
C1586 C 0.57773 0.58502 0.11434 0.0
H1587 H 0.63164 0.57598 0.16612 0.0
H1588 H 0.59818 0.57889 0.16439 0.0
H1589 H 0.61702 0.56611 0.13499 0.0
H1590 H 0.62958 0.60285 0.06855 0.0
H1591 H 0.60124 0.56947 0.03937 0.0
H1592 H 0.40406 0.69684 0.16801 0.0
H1593 H 0.44214 0.68303 0.14232 0.0
H1594 H 0.49013 0.71769 0.20715 0.0
H1595 H 0.45073 0.72979 0.23403 0.0
H1596 H 0.48942 0.69974 0.12255 0.0
H1597 H 0.4985 0.64486 0.20574 0.0
H1598 H 0.47211 0.6627 0.20807 0.0
H1599 H 0.50572 0.68036 0.21069 0.0
C1600 C 0.42285 0.70211 0.17661 0.0
C1601 C 0.42446 0.71397 0.20307 0.0
C1602 C 0.44479 0.69427 0.16185 0.0
C1603 C 0.46903 0.69855 0.17301 0.0
C1604 C 0.47145 0.71318 0.19846 0.0
H1605 H 0.52467 0.58074 0.05237 0.0
H1606 H 0.53359 0.62389 0.07959 0.0
C1607 C 0.44908 0.72032 0.21369 0.0
C1608 C 0.48937 0.68383 0.15902 0.0
H1609 H 0.50939 0.62645 0.1628 0.0
C1610 C 0.49438 0.68393 0.13132 0.0
C1611 C 0.49685 0.66386 0.1707 0.0
C1612 C 0.49308 0.66276 0.20039 0.0
C1613 C 0.50083 0.66179 0.11458 0.0
C1614 C 0.5048 0.6401 0.12625 0.0
C1615 C 0.50527 0.64266 0.15401 0.0
C1616 C 0.50299 0.61314 0.11119 0.0
C1617 C 0.50001 0.66079 0.08491 0.0
C1618 C 0.48423 0.592 0.12073 0.0
C1619 C 0.48024 0.56692 0.10593 0.0
C1620 C 0.4942 0.56283 0.08089 0.0
C1621 C 0.51324 0.5837 0.07147 0.0
C1622 C 0.51822 0.60842 0.0869 0.0
H1623 H 0.49195 0.67736 0.07993 0.0
H1624 H 0.52036 0.66224 0.07483 0.0
H1625 H 0.48757 0.64194 0.07659 0.0
H1626 H 0.47213 0.59503 0.13941 0.0
H1627 H 0.46561 0.55101 0.11359 0.0
H1628 H 0.34116 0.32703 0.23789 0.0
H1629 H 0.36651 0.35829 0.20814 0.0
H1630 H 0.29875 0.34742 0.16362 0.0
H1631 H 0.27324 0.31739 0.19365 0.0
H1632 H 0.38196 0.35188 0.1578 0.0
H1633 H 0.31773 0.4254 0.17081 0.0
H1634 H 0.31302 0.39996 0.19222 0.0
H1635 H 0.29933 0.39301 0.16046 0.0
C1636 C 0.33153 0.33172 0.22207 0.0
C1637 C 0.30497 0.31989 0.21853 0.0
C1638 C 0.34609 0.34955 0.20495 0.0
C1639 C 0.33449 0.35586 0.1838 0.0
C1640 C 0.30804 0.34386 0.18022 0.0
H1641 H 0.43027 0.41334 0.04282 0.0
H1642 H 0.39942 0.38693 0.0736 0.0
C1643 C 0.29344 0.32643 0.19747 0.0
C1644 C 0.35033 0.37359 0.16448 0.0
H1645 H 0.34875 0.42579 0.13166 0.0
C1646 C 0.37474 0.36818 0.15232 0.0
C1647 C 0.34134 0.39526 0.15741 0.0
C1648 C 0.31657 0.40392 0.17115 0.0
C1649 C 0.39001 0.38326 0.13307 0.0
C1650 C 0.38021 0.40385 0.12476 0.0
C1651 C 0.35611 0.4097 0.13741 0.0
C1652 C 0.39521 0.42018 0.10388 0.0
C1653 C 0.41686 0.37731 0.12248 0.0
C1654 C 0.40136 0.44799 0.10936 0.0
C1655 C 0.41813 0.46318 0.0912 0.0
C1656 C 0.42911 0.45091 0.06721 0.0
C1657 C 0.42169 0.42333 0.06096 0.0
C1658 C 0.40451 0.40818 0.07885 0.0
H1659 H 0.42474 0.36731 0.13657 0.0
H1660 H 0.41509 0.36377 0.10347 0.0
H1661 H 0.4314 0.39564 0.11872 0.0
H1662 H 0.3944 0.45788 0.12834 0.0
H1663 H 0.42411 0.48433 0.09684 0.0
H1664 H 0.77672 0.67598 0.68662 0.0
H1665 H 0.80472 0.64629 0.6611 0.0
H1666 H 0.87091 0.6886 0.70353 0.0
H1667 H 0.84326 0.7181 0.72884 0.0
H1668 H 0.88844 0.67867 0.65228 0.0
H1669 H 0.82924 0.58361 0.67993 0.0
H1670 H 0.81088 0.60197 0.66477 0.0
H1671 H 0.82307 0.61514 0.69662 0.0
C1672 C 0.7972 0.67904 0.69067 0.0
C1673 C 0.8072 0.69991 0.71027 0.0
C1674 C 0.81339 0.66167 0.67604 0.0
C1675 C 0.84043 0.66434 0.6802 0.0
C1676 C 0.8504 0.68542 0.6995 0.0
H1677 H 0.95237 0.55106 0.61678 0.0
H1678 H 0.9229 0.57698 0.64672 0.0
C1679 C 0.83426 0.70254 0.71422 0.0
C1680 C 0.85857 0.6461 0.66431 0.0
H1681 H 0.86499 0.58082 0.64615 0.0
C1682 C 0.88309 0.6573 0.65117 0.0
C1683 C 0.8526 0.61787 0.66256 0.0
C1684 C 0.82767 0.60385 0.6769 0.0
C1685 C 0.90081 0.64169 0.63627 0.0
C1686 C 0.89454 0.6135 0.6339 0.0
C1687 C 0.87035 0.60221 0.64754 0.0
C1688 C 0.91202 0.59594 0.61592 0.0
C1689 C 0.92647 0.65575 0.62314 0.0
C1690 C 0.91593 0.5969 0.58827 0.0
C1691 C 0.93247 0.58193 0.57117 0.0
C1692 C 0.9465 0.56497 0.58047 0.0
C1693 C 0.94231 0.56354 0.60828 0.0
C1694 C 0.92527 0.57856 0.62559 0.0
H1695 H 0.9318 0.67673 0.6322 0.0
H1696 H 0.94293 0.64565 0.62459 0.0
H1697 H 0.92439 0.65553 0.6017 0.0
H1698 H 0.90607 0.60948 0.57965 0.0
H1699 H 0.93439 0.58414 0.5502 0.0
H1700 H 0.34413 0.77317 0.69745 0.0
H1701 H 0.3741 0.79797 0.6648 0.0
H1702 H 0.31059 0.83317 0.64923 0.0
H1703 H 0.28055 0.80865 0.68177 0.0
H1704 H 0.37074 0.80089 0.60837 0.0
H1705 H 0.36974 0.89702 0.67226 0.0
H1706 H 0.35852 0.86563 0.68494 0.0
H1707 H 0.33756 0.87761 0.66612 0.0
C1708 C 0.33644 0.78604 0.68697 0.0
C1709 C 0.30987 0.78897 0.69249 0.0
C1710 C 0.35363 0.80018 0.66824 0.0
C1711 C 0.34473 0.81772 0.65476 0.0
C1712 C 0.31805 0.82005 0.65961 0.0
H1713 H 0.41306 0.93891 0.55488 0.0
H1714 H 0.38405 0.90491 0.57876 0.0
C1715 C 0.30084 0.80589 0.67822 0.0
C1716 C 0.36343 0.8344 0.63646 0.0
H1717 H 0.39046 0.89879 0.62842 0.0
C1718 C 0.37518 0.8223 0.61276 0.0
C1719 C 0.36936 0.86233 0.64222 0.0
C1720 C 0.35836 0.87649 0.66786 0.0
C1721 C 0.39193 0.83743 0.59429 0.0
C1722 C 0.3975 0.86543 0.59989 0.0
C1723 C 0.38611 0.87739 0.62389 0.0
C1724 C 0.41453 0.88307 0.58122 0.0
C1725 C 0.40281 0.82334 0.5686 0.0
C1726 C 0.44129 0.88173 0.57355 0.0
C1727 C 0.45793 0.90107 0.55934 0.0
C1728 C 0.44817 0.92228 0.55293 0.0
C1729 C 0.42113 0.92274 0.5594 0.0
C1730 C 0.40454 0.90337 0.57324 0.0
H1731 H 0.39126 0.8029 0.56412 0.0
H1732 H 0.4028 0.83434 0.55159 0.0
H1733 H 0.42354 0.82198 0.57034 0.0
H1734 H 0.44972 0.86666 0.57984 0.0
H1735 H 0.47878 0.90052 0.55515 0.0
H1736 H 0.15503 0.33804 0.67717 0.0
H1737 H 0.12523 0.3628 0.66301 0.0
H1738 H 0.19006 0.42894 0.65441 0.0
H1739 H 0.21993 0.4045 0.66871 0.0
H1740 H 0.11122 0.41162 0.68353 0.0
H1741 H 0.16192 0.41538 0.58135 0.0
H1742 H 0.16817 0.39387 0.60336 0.0
H1743 H 0.18326 0.42846 0.60739 0.0
C1744 C 0.16298 0.35795 0.67252 0.0
C1745 C 0.19011 0.36905 0.67391 0.0
C1746 C 0.14586 0.37208 0.66431 0.0
C1747 C 0.15538 0.39764 0.65713 0.0
C1748 C 0.18226 0.40905 0.65916 0.0
H1749 H 0.08432 0.50276 0.58243 0.0
H1750 H 0.11274 0.48633 0.60835 0.0
C1751 C 0.19939 0.39495 0.66735 0.0
C1752 C 0.13733 0.41221 0.64726 0.0
H1753 H 0.12799 0.43993 0.59338 0.0
C1754 C 0.11489 0.4178 0.6638 0.0
C1755 C 0.14201 0.42039 0.62154 0.0
C1756 C 0.16499 0.41405 0.60224 0.0
C1757 C 0.09731 0.43154 0.65549 0.0
C1758 C 0.1019 0.43955 0.62967 0.0
C1759 C 0.12445 0.43408 0.61324 0.0
C1760 C 0.08311 0.45241 0.61858 0.0
C1761 C 0.07422 0.43771 0.67467 0.0
C1762 C 0.0566 0.43952 0.61637 0.0
C1763 C 0.04024 0.44921 0.60193 0.0
C1764 C 0.04997 0.47202 0.58937 0.0
C1765 C 0.07601 0.48569 0.59269 0.0
C1766 C 0.09237 0.47605 0.60719 0.0
H1767 H 0.07818 0.43826 0.69569 0.0
H1768 H 0.06958 0.45698 0.67223 0.0
H1769 H 0.05652 0.42197 0.67079 0.0
H1770 H 0.04902 0.42092 0.62423 0.0
H1771 H 0.02062 0.43769 0.5988 0.0
H1772 H 0.73388 0.17738 0.69627 0.0
H1773 H 0.70418 0.14607 0.66717 0.0
H1774 H 0.65225 0.20189 0.6752 0.0
H1775 H 0.68114 0.2326 0.70522 0.0
H1776 H 0.62445 0.1558 0.6814 0.0
H1777 H 0.69377 0.14365 0.59083 0.0
H1778 H 0.70538 0.13521 0.61944 0.0
H1779 H 0.70203 0.16876 0.61865 0.0
C1780 C 0.71624 0.18302 0.69162 0.0
C1781 C 0.70984 0.20744 0.70304 0.0
C1782 C 0.69935 0.16518 0.6748 0.0
C1783 C 0.67614 0.17173 0.66852 0.0
C1784 C 0.67002 0.19632 0.67966 0.0
H1785 H 0.57639 0.08737 0.5445 0.0
H1786 H 0.61006 0.11742 0.57025 0.0
C1787 C 0.68657 0.21389 0.69684 0.0
C1788 C 0.65733 0.15255 0.65168 0.0
H1789 H 0.65242 0.11298 0.59177 0.0
C1790 C 0.63061 0.14659 0.66174 0.0
C1791 C 0.66517 0.14072 0.62583 0.0
C1792 C 0.69309 0.14762 0.61293 0.0
C1793 C 0.61159 0.12917 0.64685 0.0
C1794 C 0.61963 0.11635 0.62154 0.0
C1795 C 0.6463 0.12246 0.61132 0.0
C1796 C 0.6005 0.09702 0.60522 0.0
C1797 C 0.58295 0.12537 0.6582 0.0
C1798 C 0.58448 0.07505 0.61592 0.0
C1799 C 0.56494 0.0582 0.60146 0.0
C1800 C 0.56149 0.06252 0.57569 0.0
C1801 C 0.57855 0.08357 0.56434 0.0
C1802 C 0.59779 0.10076 0.57905 0.0
H1803 H 0.57921 0.14243 0.67307 0.0
H1804 H 0.5695 0.12284 0.64229 0.0
H1805 H 0.57792 0.10744 0.66851 0.0
H1806 H 0.58679 0.07116 0.63567 0.0
H1807 H 0.55241 0.04185 0.61054 0.0
H1808 H 0.80091 0.33769 0.31448 0.0
H1809 H 0.83196 0.3641 0.34535 0.0
H1810 H 0.85195 0.29284 0.36287 0.0
H1811 H 0.82115 0.26625 0.33193 0.0
H1812 H 0.83445 0.36297 0.40049 0.0
H1813 H 0.92424 0.33757 0.33989 0.0
H1814 H 0.89249 0.33145 0.32671 0.0
H1815 H 0.89918 0.30962 0.34795 0.0
C1816 C 0.81181 0.32756 0.32494 0.0
C1817 C 0.80857 0.29978 0.32051 0.0
C1818 C 0.82957 0.34273 0.34262 0.0
C1819 C 0.84463 0.33051 0.35611 0.0
C1820 C 0.84094 0.30277 0.3523 0.0
H1821 H 0.97065 0.39159 0.46132 0.0
H1822 H 0.93654 0.36349 0.43481 0.0
C1823 C 0.82316 0.28757 0.33468 0.0
C1824 C 0.86432 0.34681 0.37399 0.0
H1825 H 0.93045 0.36261 0.38217 0.0
C1826 C 0.85545 0.36293 0.39648 0.0
C1827 C 0.89173 0.34673 0.36879 0.0
C1828 C 0.90261 0.33061 0.34442 0.0
C1829 C 0.87316 0.37868 0.41408 0.0
C1830 C 0.90062 0.37878 0.40876 0.0
C1831 C 0.90944 0.36253 0.38633 0.0
C1832 C 0.92061 0.39592 0.42585 0.0
C1833 C 0.8622 0.39465 0.4385 0.0
C1834 C 0.92319 0.42357 0.4296 0.0
C1835 C 0.94262 0.43971 0.44484 0.0
C1836 C 0.96017 0.4286 0.4565 0.0
C1837 C 0.95752 0.40087 0.45271 0.0
C1838 C 0.93802 0.38475 0.43751 0.0
H1839 H 0.84093 0.38655 0.44384 0.0
H1840 H 0.87331 0.39515 0.45589 0.0
H1841 H 0.86397 0.41529 0.43442 0.0
H1842 H 0.91048 0.43277 0.42031 0.0
H1843 H 0.94413 0.46096 0.44708 0.0
H1844 H 0.71608 0.83284 0.28931 0.0
H1845 H 0.687 0.85873 0.31808 0.0
H1846 H 0.66193 0.79568 0.36676 0.0
H1847 H 0.69176 0.76989 0.33826 0.0
H1848 H 0.63735 0.85608 0.3298 0.0
H1849 H 0.67264 0.85268 0.4268 0.0
H1850 H 0.68945 0.8408 0.39568 0.0
H1851 H 0.6603 0.82033 0.41015 0.0
C1852 C 0.70458 0.82428 0.30619 0.0
C1853 C 0.70692 0.79884 0.31102 0.0
C1854 C 0.68762 0.83937 0.32289 0.0
C1855 C 0.67198 0.83006 0.34559 0.0
C1856 C 0.67397 0.80441 0.35027 0.0
H1857 H 0.55307 0.90305 0.46391 0.0
H1858 H 0.58023 0.87235 0.43832 0.0
C1859 C 0.69108 0.78927 0.33354 0.0
C1860 C 0.65347 0.84692 0.36334 0.0
H1861 H 0.63457 0.87139 0.42837 0.0
C1862 C 0.63705 0.85932 0.35135 0.0
C1863 C 0.65214 0.85174 0.39183 0.0
C1864 C 0.66974 0.84093 0.40691 0.0
C1865 C 0.61992 0.87556 0.3663 0.0
C1866 C 0.61881 0.88061 0.39471 0.0
C1867 C 0.63486 0.86794 0.40683 0.0
C1868 C 0.60212 0.89969 0.41164 0.0
C1869 C 0.6026 0.88676 0.35123 0.0
C1870 C 0.60506 0.92602 0.40638 0.0
C1871 C 0.5896 0.94368 0.42114 0.0
C1872 C 0.57016 0.93627 0.44225 0.0
C1873 C 0.56748 0.91001 0.44801 0.0
C1874 C 0.58323 0.89223 0.43318 0.0
H1875 H 0.59907 0.87469 0.3316 0.0
H1876 H 0.58317 0.88781 0.36274 0.0
H1877 H 0.61264 0.90705 0.34745 0.0
H1878 H 0.61963 0.93319 0.3907 0.0
H1879 H 0.59296 0.96346 0.41563 0.0
H1880 H 0.22662 0.66774 0.30175 0.0
H1881 H 0.19801 0.6399 0.33216 0.0
H1882 H 0.16364 0.70632 0.36951 0.0
H1883 H 0.19199 0.73444 0.33844 0.0
H1884 H 0.19414 0.64178 0.385 0.0
H1885 H 0.09792 0.65151 0.35533 0.0
H1886 H 0.12896 0.66296 0.33655 0.0
H1887 H 0.1183 0.68271 0.36642 0.0
C1888 C 0.21295 0.6766 0.31632 0.0
C1889 C 0.21166 0.7035 0.31744 0.0
C1890 C 0.19656 0.66052 0.33382 0.0
C1891 C 0.17829 0.67073 0.35304 0.0
C1892 C 0.17708 0.69767 0.35451 0.0
H1893 H 0.06499 0.60705 0.47746 0.0
H1894 H 0.09737 0.63419 0.44909 0.0
C1895 C 0.19345 0.71384 0.3368 0.0
C1896 C 0.16093 0.65306 0.37154 0.0
H1897 H 0.09631 0.62952 0.39313 0.0
C1898 C 0.17274 0.63904 0.38666 0.0
C1899 C 0.13293 0.64917 0.37369 0.0
C1900 C 0.11873 0.66216 0.35695 0.0
C1901 C 0.15746 0.62186 0.40414 0.0
C1902 C 0.12954 0.61834 0.40654 0.0
C1903 C 0.11772 0.63221 0.39136 0.0
C1904 C 0.11208 0.60134 0.42546 0.0
C1905 C 0.1713 0.60809 0.42043 0.0
C1906 C 0.1099 0.57364 0.42223 0.0
C1907 C 0.09121 0.55783 0.43864 0.0
C1908 C 0.07426 0.56948 0.45843 0.0
C1909 C 0.07751 0.5973 0.46231 0.0
C1910 C 0.09604 0.61294 0.44603 0.0
H1911 H 0.19282 0.61668 0.42015 0.0
H1912 H 0.1624 0.60929 0.44144 0.0
H1913 H 0.16889 0.58684 0.41216 0.0
H1914 H 0.12187 0.56413 0.40631 0.0
H1915 H 0.08908 0.5365 0.4349 0.0
H1916 H 0.40355 0.2116 0.35822 0.0
H1917 H 0.42361 0.18158 0.37785 0.0
H1918 H 0.34774 0.12908 0.38677 0.0
H1919 H 0.32743 0.15908 0.36728 0.0
H1920 H 0.41516 0.16464 0.42657 0.0
H1921 H 0.3931 0.07773 0.3496 0.0
H1922 H 0.38931 0.11032 0.34505 0.0
H1923 H 0.3643 0.09004 0.36482 0.0
C1924 C 0.39096 0.19378 0.36446 0.0
C1925 C 0.36369 0.18798 0.36094 0.0
C1926 C 0.40258 0.17647 0.37565 0.0
C1927 C 0.38744 0.15266 0.38357 0.0
C1928 C 0.36018 0.14688 0.38031 0.0
H1929 H 0.44507 0.0597 0.48798 0.0
H1930 H 0.42001 0.08691 0.47004 0.0
C1931 C 0.34851 0.16418 0.36908 0.0
C1932 C 0.40016 0.13428 0.39553 0.0
H1933 H 0.41103 0.07081 0.38788 0.0
C1934 C 0.41417 0.14411 0.41809 0.0
C1935 C 0.39932 0.10745 0.38447 0.0
C1936 C 0.38593 0.09576 0.35951 0.0
C1937 C 0.42709 0.12807 0.42983 0.0
C1938 C 0.42578 0.10109 0.4191 0.0
C1939 C 0.41189 0.0913 0.39645 0.0
C1940 C 0.43986 0.08318 0.4301 0.0
C1941 C 0.44276 0.14048 0.45316 0.0
C1942 C 0.45876 0.07091 0.41361 0.0
C1943 C 0.47296 0.05511 0.42376 0.0
C1944 C 0.46864 0.05084 0.45077 0.0
C1945 C 0.44906 0.06241 0.46711 0.0
C1946 C 0.43484 0.07829 0.4569 0.0
H1947 H 0.44741 0.16243 0.45465 0.0
H1948 H 0.43098 0.135 0.47189 0.0
H1949 H 0.46161 0.13329 0.45158 0.0
H1950 H 0.46305 0.07409 0.39287 0.0
H1951 H 0.48776 0.04663 0.41041 0.0
H1952 H 0.6745 0.85723 0.68012 0.0
H1953 H 0.65369 0.88659 0.66019 0.0
H1954 H 0.6183 0.82038 0.60606 0.0
H1955 H 0.6392 0.79096 0.62555 0.0
H1956 H 0.65701 0.89942 0.60877 0.0
H1957 H 0.55406 0.85092 0.63875 0.0
H1958 H 0.58224 0.84437 0.65211 0.0
H1959 H 0.57344 0.82865 0.61963 0.0
C1960 C 0.6625 0.84882 0.66382 0.0
C1961 C 0.65852 0.8214 0.65479 0.0
C1962 C 0.65045 0.86574 0.65246 0.0
C1963 C 0.6339 0.85582 0.63183 0.0
C1964 C 0.63034 0.82861 0.62237 0.0
H1965 H 0.57714 0.94987 0.52829 0.0
H1966 H 0.60177 0.92237 0.54643 0.0
C1967 C 0.64238 0.8117 0.63367 0.0
C1968 C 0.62034 0.87381 0.62027 0.0
H1969 H 0.55935 0.88321 0.60942 0.0
C1970 C 0.63565 0.89584 0.60895 0.0
C1971 C 0.59239 0.86958 0.62065 0.0
C1972 C 0.57451 0.84727 0.63365 0.0
C1973 C 0.62393 0.91333 0.59781 0.0
C1974 C 0.596 0.90868 0.5976 0.0
C1975 C 0.58072 0.88683 0.60922 0.0
C1976 C 0.58206 0.92661 0.58641 0.0
C1977 C 0.64159 0.93701 0.58693 0.0
C1978 C 0.56246 0.93821 0.6025 0.0
C1979 C 0.5483 0.9539 0.59215 0.0
C1980 C 0.55309 0.95848 0.56523 0.0
C1981 C 0.573 0.94716 0.54915 0.0
C1982 C 0.58721 0.9314 0.55958 0.0
H1983 H 0.66132 0.94167 0.59478 0.0
H1984 H 0.64466 0.93273 0.56489 0.0
H1985 H 0.63243 0.95476 0.59194 0.0
H1986 H 0.55793 0.93496 0.6232 0.0
H1987 H 0.53317 0.96208 0.60528 0.0
H1988 H 0.68585 0.25316 0.33336 0.0
H1989 H 0.65543 0.23151 0.36813 0.0
H1990 H 0.698 0.16757 0.35613 0.0
H1991 H 0.72821 0.1888 0.32173 0.0
H1992 H 0.62247 0.17907 0.36291 0.0
H1993 H 0.69406 0.18934 0.43752 0.0
H1994 H 0.70006 0.20913 0.41041 0.0
H1995 H 0.70576 0.17581 0.40478 0.0
C1996 C 0.68887 0.23461 0.33831 0.0
C1997 C 0.70959 0.22282 0.32465 0.0
C1998 C 0.6714 0.22221 0.35815 0.0
C1999 C 0.67457 0.19802 0.36506 0.0
C2000 C 0.69533 0.1864 0.35156 0.0
H2001 H 0.60635 0.06858 0.44871 0.0
H2002 H 0.63334 0.10478 0.42667 0.0
C2003 C 0.71255 0.19857 0.33169 0.0
C2004 C 0.65587 0.18411 0.38556 0.0
H2005 H 0.65439 0.15646 0.44256 0.0
C2006 C 0.62927 0.17454 0.38063 0.0
C2007 C 0.66468 0.17818 0.40872 0.0
C2008 C 0.69264 0.18886 0.41588 0.0
C2009 C 0.61177 0.15786 0.39723 0.0
C2010 C 0.62094 0.15095 0.41978 0.0
C2011 C 0.64723 0.16163 0.42536 0.0
C2012 C 0.60477 0.13033 0.43587 0.0
C2013 C 0.58409 0.1465 0.38955 0.0
C2014 C 0.57987 0.13278 0.44947 0.0
C2015 C 0.5642 0.11185 0.46232 0.0
C2016 C 0.57314 0.08809 0.46176 0.0
C2017 C 0.59866 0.08644 0.44941 0.0
C2018 C 0.61421 0.10722 0.43675 0.0
H2019 H 0.58174 0.14972 0.369 0.0
H2020 H 0.57884 0.12492 0.39087 0.0
H2021 H 0.56982 0.15621 0.40351 0.0
H2022 H 0.5723 0.15061 0.44965 0.0
H2023 H 0.54464 0.11379 0.47153 0.0
H2024 H 0.85987 0.67691 0.36069 0.0
H2025 H 0.89001 0.6526 0.37488 0.0
H2026 H 0.84405 0.57901 0.34048 0.0
H2027 H 0.81412 0.60321 0.3257 0.0
H2028 H 0.87779 0.6146 0.40937 0.0
H2029 H 0.91981 0.57215 0.31098 0.0
H2030 H 0.90216 0.59903 0.31478 0.0
H2031 H 0.88425 0.56556 0.31551 0.0
C2032 C 0.85636 0.65559 0.35572 0.0
C2033 C 0.83447 0.64213 0.34193 0.0
C2034 C 0.87358 0.64166 0.36401 0.0
C2035 C 0.86963 0.61392 0.35849 0.0
C2036 C 0.84791 0.60041 0.3446 0.0
H2037 H 0.93091 0.51339 0.44639 0.0
H2038 H 0.90357 0.53133 0.42075 0.0
C2039 C 0.83057 0.6143 0.33643 0.0
C2040 C 0.88736 0.59915 0.36855 0.0
H2041 H 0.92981 0.55612 0.34909 0.0
C2042 C 0.88918 0.60188 0.39614 0.0
C2043 C 0.90251 0.58267 0.35135 0.0
C2044 C 0.90236 0.57979 0.32148 0.0
C2045 C 0.90522 0.58835 0.40699 0.0
C2046 C 0.91978 0.57128 0.38989 0.0
C2047 C 0.91844 0.56891 0.36224 0.0
C2048 C 0.93659 0.55615 0.40075 0.0
C2049 C 0.90669 0.59268 0.43677 0.0
C2050 C 0.96439 0.56275 0.39678 0.0
C2051 C 0.98012 0.55211 0.41119 0.0
C2052 C 0.96829 0.53453 0.42959 0.0
C2053 C 0.94059 0.5264 0.43189 0.0
C2054 C 0.92492 0.53695 0.41751 0.0
H2055 H 0.8992 0.61062 0.44639 0.0
H2056 H 0.89441 0.57535 0.44556 0.0
H2057 H 0.92737 0.59468 0.44157 0.0
H2058 H 0.97388 0.57753 0.384 0.0
H2059 H 1.00135 0.55935 0.40963 0.0
H2060 H 0.31795 0.77044 0.33714 0.0
H2061 H 0.34782 0.80042 0.367 0.0
H2062 H 0.33183 0.86747 0.33634 0.0
H2063 H 0.30162 0.83777 0.30684 0.0
H2064 H 0.39291 0.83455 0.35305 0.0
H2065 H 0.32313 0.89036 0.41601 0.0
H2066 H 0.31211 0.85989 0.39481 0.0
H2067 H 0.32196 0.89069 0.38104 0.0
C2068 C 0.3205 0.79158 0.33699 0.0
C2069 C 0.30729 0.80168 0.31963 0.0
C2070 C 0.33763 0.8087 0.35406 0.0
C2071 C 0.3418 0.83624 0.35422 0.0
C2072 C 0.32846 0.84636 0.33707 0.0
H2073 H 0.47868 0.95296 0.40088 0.0
H2074 H 0.44394 0.92194 0.37778 0.0
C2075 C 0.3113 0.82929 0.32006 0.0
C2076 C 0.36137 0.85428 0.371 0.0
H2077 H 0.36929 0.9091 0.41781 0.0
C2078 C 0.38768 0.85071 0.36737 0.0
C2079 C 0.35452 0.87519 0.38994 0.0
C2080 C 0.32634 0.87914 0.39592 0.0
C2081 C 0.40744 0.86789 0.38155 0.0
C2082 C 0.40085 0.88958 0.39949 0.0
C2083 C 0.3744 0.89269 0.40378 0.0
C2084 C 0.42124 0.90935 0.41374 0.0
C2085 C 0.43519 0.86251 0.37731 0.0
C2086 C 0.41954 0.91337 0.44172 0.0
C2087 C 0.43931 0.93131 0.45508 0.0
C2088 C 0.46116 0.94565 0.44068 0.0
C2089 C 0.46233 0.94211 0.41265 0.0
C2090 C 0.44254 0.92425 0.39936 0.0
H2091 H 0.43535 0.84153 0.36913 0.0
H2092 H 0.44721 0.87516 0.36279 0.0
H2093 H 0.44477 0.86717 0.39623 0.0
H2094 H 0.40317 0.90223 0.45323 0.0
H2095 H 0.4377 0.93355 0.47667 0.0
H2096 H 0.23895 0.32329 0.34031 0.0
H2097 H 0.2102 0.35184 0.36664 0.0
H2098 H 0.15755 0.33305 0.30453 0.0
H2099 H 0.18543 0.30416 0.27887 0.0
H2100 H 0.19413 0.39532 0.3637 0.0
H2101 H 0.10161 0.32032 0.36259 0.0
H2102 H 0.13319 0.31184 0.35046 0.0
H2103 H 0.11545 0.32535 0.32937 0.0
C2104 C 0.22118 0.32504 0.33222 0.0
C2105 C 0.21487 0.31067 0.30715 0.0
C2106 C 0.2045 0.34161 0.34747 0.0
C2107 C 0.18061 0.34463 0.33851 0.0
C2108 C 0.17485 0.33084 0.31311 0.0
H2109 H 0.05379 0.4395 0.4028 0.0
H2110 H 0.08348 0.41344 0.37372 0.0
C2111 C 0.1913 0.31422 0.29805 0.0
C2112 C 0.16222 0.36236 0.35509 0.0
H2113 H 0.09687 0.36481 0.37727 0.0
C2114 C 0.1729 0.38832 0.36665 0.0
C2115 C 0.1341 0.35416 0.35956 0.0
C2116 C 0.12043 0.32633 0.35009 0.0
C2117 C 0.1569 0.40581 0.3815 0.0
C2118 C 0.12882 0.39765 0.38578 0.0
C2119 C 0.1181 0.37177 0.37418 0.0
C2120 C 0.11067 0.41501 0.40317 0.0
C2121 C 0.17045 0.43337 0.39198 0.0
C2122 C 0.11523 0.42519 0.42984 0.0
C2123 C 0.09819 0.4401 0.4465 0.0
C2124 C 0.07553 0.44596 0.43757 0.0
C2125 C 0.07107 0.43622 0.41068 0.0
C2126 C 0.08811 0.42089 0.39396 0.0
H2127 H 0.18973 0.43956 0.38031 0.0
H2128 H 0.15788 0.44802 0.3915 0.0
H2129 H 0.1744 0.43374 0.41294 0.0
H2130 H 0.13173 0.42094 0.43829 0.0
H2131 H 0.1026 0.44666 0.46694 0.0
H2132 H 0.30335 0.17518 0.72529 0.0
H2133 H 0.33252 0.14931 0.69646 0.0
H2134 H 0.36066 0.214 0.65033 0.0
H2135 H 0.33145 0.24016 0.67938 0.0
H2136 H 0.33584 0.12916 0.64518 0.0
H2137 H 0.43123 0.19861 0.65887 0.0
H2138 H 0.4012 0.20299 0.67943 0.0
H2139 H 0.40729 0.2128 0.64652 0.0
C2140 C 0.31577 0.18423 0.70915 0.0
C2141 C 0.31462 0.21031 0.70527 0.0
C2142 C 0.33268 0.16912 0.69237 0.0
C2143 C 0.34977 0.17926 0.67088 0.0
C2144 C 0.34859 0.20531 0.66684 0.0
H2145 H 0.46808 0.10663 0.55154 0.0
H2146 H 0.43993 0.13667 0.57654 0.0
C2147 C 0.33148 0.22043 0.68357 0.0
C2148 C 0.36784 0.16226 0.65273 0.0
H2149 H 0.43244 0.16083 0.62671 0.0
C2150 C 0.35696 0.13631 0.64136 0.0
C2151 C 0.39571 0.17084 0.64686 0.0
C2152 C 0.40968 0.19772 0.65871 0.0
C2153 C 0.37243 0.11939 0.62474 0.0
C2154 C 0.40042 0.12768 0.61935 0.0
C2155 C 0.41128 0.1538 0.63038 0.0
C2156 C 0.41846 0.10929 0.6034 0.0
C2157 C 0.35809 0.09285 0.61243 0.0
C2158 C 0.41698 0.08352 0.60967 0.0
C2159 C 0.43299 0.06622 0.59522 0.0
C2160 C 0.45191 0.07358 0.57368 0.0
C2161 C 0.4539 0.09962 0.56759 0.0
C2162 C 0.43764 0.11706 0.58216 0.0
H2163 H 0.33719 0.09326 0.6101 0.0
H2164 H 0.36786 0.08658 0.59256 0.0
H2165 H 0.35779 0.07779 0.62572 0.0
H2166 H 0.4035 0.07663 0.62623 0.0
H2167 H 0.43054 0.04681 0.60137 0.0
H2168 H 0.84482 0.30743 0.72015 0.0
H2169 H 0.87326 0.33751 0.69111 0.0
H2170 H 0.80728 0.33445 0.64623 0.0
H2171 H 0.7786 0.3056 0.676 0.0
H2172 H 0.8902 0.3343 0.64183 0.0
H2173 H 0.83037 0.41197 0.6582 0.0
H2174 H 0.82336 0.38473 0.67758 0.0
H2175 H 0.81125 0.38082 0.64525 0.0
C2176 C 0.83639 0.31319 0.70409 0.0
C2177 C 0.80934 0.30423 0.70058 0.0
C2178 C 0.85267 0.33049 0.68747 0.0
C2179 C 0.84243 0.33906 0.66673 0.0
C2180 C 0.81563 0.32919 0.6626 0.0
H2181 H 0.94626 0.40333 0.53374 0.0
H2182 H 0.91423 0.37606 0.56261 0.0
C2183 C 0.79925 0.31235 0.67952 0.0
C2184 C 0.85987 0.35765 0.64904 0.0
H2185 H 0.86354 0.41423 0.62107 0.0
C2186 C 0.88435 0.35185 0.6375 0.0
C2187 C 0.85281 0.38104 0.64361 0.0
C2188 C 0.82816 0.39017 0.65707 0.0
C2189 C 0.90152 0.36824 0.62048 0.0
C2190 C 0.89366 0.39066 0.61366 0.0
C2191 C 0.86949 0.39684 0.62569 0.0
C2192 C 0.91045 0.40804 0.59448 0.0
C2193 C 0.92827 0.36161 0.61067 0.0
C2194 C 0.91748 0.43567 0.60152 0.0
C2195 C 0.93515 0.45155 0.58446 0.0
C2196 C 0.94633 0.44007 0.56011 0.0
C2197 C 0.93811 0.41273 0.55245 0.0
C2198 C 0.92006 0.39703 0.56918 0.0
H2199 H 0.93461 0.35002 0.62439 0.0
H2200 H 0.92707 0.34929 0.59092 0.0
H2201 H 0.94368 0.37975 0.60865 0.0
H2202 H 0.9102 0.44485 0.62074 0.0
H2203 H 0.9413 0.4725 0.59105 0.0
H2204 H 0.1764 0.70728 0.72542 0.0
H2205 H 0.14691 0.67994 0.69389 0.0
H2206 H 0.21389 0.67346 0.63575 0.0
H2207 H 0.24373 0.69967 0.66807 0.0
H2208 H 0.13481 0.68767 0.64945 0.0
H2209 H 0.17898 0.5981 0.62924 0.0
H2210 H 0.18903 0.62462 0.65526 0.0
H2211 H 0.20217 0.6272 0.62112 0.0
C2212 C 0.18491 0.6998 0.706 0.0
C2213 C 0.21242 0.70551 0.69929 0.0
C2214 C 0.16798 0.68418 0.68791 0.0
C2215 C 0.17802 0.67418 0.66239 0.0
C2216 C 0.20557 0.68014 0.6555 0.0
H2217 H 0.06401 0.61414 0.54132 0.0
H2218 H 0.09905 0.64174 0.56713 0.0
C2219 C 0.22264 0.6953 0.67393 0.0
C2220 C 0.15932 0.65835 0.64306 0.0
H2221 H 0.14572 0.59978 0.602 0.0
C2222 C 0.1372 0.66839 0.63917 0.0
C2223 C 0.16213 0.63303 0.62971 0.0
C2224 C 0.1842 0.61997 0.63423 0.0
C2225 C 0.1177 0.65382 0.62289 0.0
C2226 C 0.1209 0.62885 0.60891 0.0
C2227 C 0.14325 0.61898 0.61244 0.0
C2228 C 0.1006 0.6119 0.59188 0.0
C2229 C 0.09333 0.66497 0.62195 0.0
C2230 C 0.0906 0.58543 0.59606 0.0
C2231 C 0.07121 0.56942 0.58077 0.0
C2232 C 0.06098 0.57956 0.56113 0.0
C2233 C 0.07118 0.6059 0.55661 0.0
C2234 C 0.0911 0.62176 0.57153 0.0
H2235 H 0.09023 0.6797 0.63965 0.0
H2236 H 0.09576 0.67522 0.604 0.0
H2237 H 0.07529 0.6491 0.621 0.0
H2238 H 0.09752 0.57718 0.61151 0.0
H2239 H 0.06377 0.54921 0.58479 0.0
loop_
_geom_bond_atom_site_label_1
_geom_bond_atom_site_label_2
_geom_bond_distance
_geom_bond_site_symmetry_2
_ccdc_geom_bond_type
Eu0 C9 2.828 . S
Eu0 O11 2.392 . S
Eu0 O13 2.418 . S
Eu0 O18 2.373 . S
Eu0 O21 2.488 . S
Eu0 O22 2.471 . S
Eu0 O23 2.349 . S
Eu1 O10 2.373 . S
Eu1 O14 2.488 . S
Eu1 O15 2.471 . S
Eu1 O16 2.349 . S
Eu1 O19 2.392 . S
Eu1 O20 2.418 . S
Eu1 C30 2.828 . S
C2 O20 1.244 . S
C2 O23 1.265 . S
C3 C4 1.379 . S
C3 C7 1.373 . S
C3 C9 1.505 . S
C4 C3 1.379 . S
C4 C6 1.369 . S
C4 H32 0.930 . S
C5 C7 1.383 . S
C5 C8 1.382 . S
C5 H33 0.930 . S
C6 C4 1.369 . S
C6 C8 1.392 . S
C6 H34 0.930 . S
C7 C3 1.373 . S
C7 C5 1.383 . S
C7 H35 0.931 . S
C8 C5 1.382 . S
C8 C6 1.392 . S
C9 Eu0 2.828 . S
C9 C3 1.505 . S
C9 O21 1.249 . S
C9 O22 1.244 . S
O10 Eu1 2.373 . S
O10 C12 1.258 . S
O11 Eu0 2.392 . S
O11 C12 1.242 . S
C12 O10 1.258 . S
C12 O11 1.242 . S
O13 Eu0 2.418 . S
O13 C17 1.244 . S
O14 Eu1 2.488 . S
O14 C30 1.249 . S
O15 Eu1 2.471 . S
O15 C30 1.244 . S
O16 Eu1 2.349 . S
O16 C17 1.265 . S
C17 O13 1.244 . S
C17 O16 1.265 . S
O18 Eu0 2.373 . S
O18 C31 1.258 . S
O19 Eu1 2.392 . S
O19 C31 1.242 . S
O20 Eu1 2.418 . S
O20 C2 1.244 . S
O21 Eu0 2.488 . S
O21 C9 1.249 . S
O22 Eu0 2.471 . S
O22 C9 1.244 . S
O23 Eu0 2.349 . S
O23 C2 1.265 . S
C24 C25 1.379 . S
C24 C28 1.373 . S
C24 C30 1.505 . S
C25 C24 1.379 . S
C25 C27 1.369 . S
C25 H36 0.930 . S
C26 C28 1.383 . S
C26 C29 1.382 . S
C26 H37 0.930 . S
C27 C25 1.369 . S
C27 C29 1.392 . S
C27 H38 0.930 . S
C28 C24 1.373 . S
C28 C26 1.383 . S
C28 H39 0.931 . S
C29 C26 1.382 . S
C29 C27 1.392 . S
C30 Eu1 2.828 . S
C30 O14 1.249 . S
C30 O15 1.244 . S
C30 C24 1.505 . S
C31 O18 1.258 . S
C31 O19 1.242 . S
H32 C4 0.930 . S
H33 C5 0.930 . S
H34 C6 0.930 . S
H35 C7 0.931 . S
H36 C25 0.930 . S
H37 C26 0.930 . S
H38 C27 0.930 . S
H39 C28 0.931 . S
Eu40 C49 2.828 . S
Eu40 O51 2.392 . S
Eu40 O53 2.418 . S
Eu40 O58 2.373 . S
Eu40 O61 2.488 . S
Eu40 O62 2.471 . S
Eu40 O63 2.349 . S
Eu41 O50 2.373 . S
Eu41 O54 2.488 . S
Eu41 O55 2.471 . S
Eu41 O56 2.349 . S
Eu41 O59 2.392 . S
Eu41 O60 2.418 . S
Eu41 C70 2.828 . S
C42 O60 1.244 . S
C42 O63 1.265 . S
C43 C44 1.379 . S
C43 C47 1.373 . S
C43 C49 1.505 . S
C44 C43 1.379 . S
C44 C46 1.369 . S
C44 H72 0.930 . S
C45 C47 1.383 . S
C45 C48 1.382 . S
C45 H73 0.930 . S
C46 C44 1.369 . S
C46 C48 1.392 . S
C46 H74 0.930 . S
C47 C43 1.373 . S
C47 C45 1.383 . S
C47 H75 0.931 . S
C48 C45 1.382 . S
C48 C46 1.392 . S
C49 Eu40 2.828 . S
C49 C43 1.505 . S
C49 O61 1.249 . S
C49 O62 1.244 . S
O50 Eu41 2.373 . S
O50 C52 1.258 . S
O51 Eu40 2.392 . S
O51 C52 1.242 . S
C52 O50 1.258 . S
C52 O51 1.242 . S
O53 Eu40 2.418 . S
O53 C57 1.244 . S
O54 Eu41 2.488 . S
O54 C70 1.249 . S
O55 Eu41 2.471 . S
O55 C70 1.244 . S
O56 Eu41 2.349 . S
O56 C57 1.265 . S
C57 O53 1.244 . S
C57 O56 1.265 . S
O58 Eu40 2.373 . S
O58 C71 1.258 . S
O59 Eu41 2.392 . S
O59 C71 1.242 . S
O60 Eu41 2.418 . S
O60 C42 1.244 . S
O61 Eu40 2.488 . S
O61 C49 1.249 . S
O62 Eu40 2.471 . S
O62 C49 1.244 . S
O63 Eu40 2.349 . S
O63 C42 1.265 . S
C64 C65 1.379 . S
C64 C68 1.373 . S
C64 C70 1.505 . S
C65 C64 1.379 . S
C65 C67 1.369 . S
C65 H76 0.930 . S
C66 C68 1.383 . S
C66 C69 1.382 . S
C66 H77 0.930 . S
C67 C65 1.369 . S
C67 C69 1.392 . S
C67 H78 0.930 . S
C68 C64 1.373 . S
C68 C66 1.383 . S
C68 H79 0.931 . S
C69 C66 1.382 . S
C69 C67 1.392 . S
C70 Eu41 2.828 . S
C70 O54 1.249 . S
C70 O55 1.244 . S
C70 C64 1.505 . S
C71 O58 1.258 . S
C71 O59 1.242 . S
H72 C44 0.930 . S
H73 C45 0.930 . S
H74 C46 0.930 . S
H75 C47 0.931 . S
H76 C65 0.930 . S
H77 C66 0.930 . S
H78 C67 0.930 . S
H79 C68 0.931 . S
Eu80 C89 2.828 . S
Eu80 O91 2.392 . S
Eu80 O93 2.418 . S
Eu80 O98 2.373 . S
Eu80 O101 2.488 . S
Eu80 O102 2.471 . S
Eu80 O103 2.349 . S
Eu81 O90 2.373 . S
Eu81 O94 2.488 . S
Eu81 O95 2.471 . S
Eu81 O96 2.349 . S
Eu81 O99 2.392 . S
Eu81 O100 2.418 . S
Eu81 C110 2.828 . S
C82 O100 1.244 . S
C82 O103 1.265 . S
C83 C84 1.379 . S
C83 C87 1.373 . S
C83 C89 1.505 . S
C84 C83 1.379 . S
C84 C86 1.369 . S
C84 H112 0.930 . S
C85 C87 1.383 . S
C85 C88 1.382 . S
C85 H113 0.930 . S
C86 C84 1.369 . S
C86 C88 1.392 . S
C86 H114 0.930 . S
C87 C83 1.373 . S
C87 C85 1.383 . S
C87 H115 0.931 . S
C88 C85 1.382 . S
C88 C86 1.392 . S
C89 Eu80 2.828 . S
C89 C83 1.505 . S
C89 O101 1.249 . S
C89 O102 1.244 . S
O90 Eu81 2.373 . S
O90 C92 1.258 . S
O91 Eu80 2.392 . S
O91 C92 1.242 . S
C92 O90 1.258 . S
C92 O91 1.242 . S
O93 Eu80 2.418 . S
O93 C97 1.244 . S
O94 Eu81 2.488 . S
O94 C110 1.249 . S
O95 Eu81 2.471 . S
O95 C110 1.244 . S
O96 Eu81 2.349 . S
O96 C97 1.265 . S
C97 O93 1.244 . S
C97 O96 1.265 . S
O98 Eu80 2.373 . S
O98 C111 1.258 . S
O99 Eu81 2.392 . S
O99 C111 1.242 . S
O100 Eu81 2.418 . S
O100 C82 1.244 . S
O101 Eu80 2.488 . S
O101 C89 1.249 . S
O102 Eu80 2.471 . S
O102 C89 1.244 . S
O103 Eu80 2.349 . S
O103 C82 1.265 . S
C104 C105 1.379 . S
C104 C108 1.373 . S
C104 C110 1.505 . S
C105 C104 1.379 . S
C105 C107 1.369 . S
C105 H116 0.930 . S
C106 C108 1.383 . S
C106 C109 1.382 . S
C106 H117 0.930 . S
C107 C105 1.369 . S
C107 C109 1.392 . S
C107 H118 0.930 . S
C108 C104 1.373 . S
C108 C106 1.383 . S
C108 H119 0.931 . S
C109 C106 1.382 . S
C109 C107 1.392 . S
C110 Eu81 2.828 . S
C110 O94 1.249 . S
C110 O95 1.244 . S
C110 C104 1.505 . S
C111 O98 1.258 . S
C111 O99 1.242 . S
H112 C84 0.930 . S
H113 C85 0.930 . S
H114 C86 0.930 . S
H115 C87 0.931 . S
H116 C105 0.930 . S
H117 C106 0.930 . S
H118 C107 0.930 . S
H119 C108 0.931 . S
Eu120 C129 2.828 . S
Eu120 O131 2.392 . S
Eu120 O133 2.418 . S
Eu120 O138 2.373 . S
Eu120 O141 2.488 . S
Eu120 O142 2.471 . S
Eu120 O143 2.349 . S
Eu121 O130 2.373 . S
Eu121 O134 2.488 . S
Eu121 O135 2.471 . S
Eu121 O136 2.349 . S
Eu121 O139 2.392 . S
Eu121 O140 2.418 . S
Eu121 C150 2.828 . S
C122 O140 1.244 . S
C122 O143 1.265 . S
C123 C124 1.379 . S
C123 C127 1.373 . S
C123 C129 1.505 . S
C124 C123 1.379 . S
C124 C126 1.369 . S
C124 H152 0.930 . S
C125 C127 1.383 . S
C125 C128 1.382 . S
C125 H153 0.930 . S
C126 C124 1.369 . S
C126 C128 1.392 . S
C126 H154 0.930 . S
C127 C123 1.373 . S
C127 C125 1.383 . S
C127 H155 0.931 . S
C128 C125 1.382 . S
C128 C126 1.392 . S
C129 Eu120 2.828 . S
C129 C123 1.505 . S
C129 O141 1.249 . S
C129 O142 1.244 . S
O130 Eu121 2.373 . S
O130 C132 1.258 . S
O131 Eu120 2.392 . S
O131 C132 1.242 . S
C132 O130 1.258 . S
C132 O131 1.242 . S
O133 Eu120 2.418 . S
O133 C137 1.244 . S
O134 Eu121 2.488 . S
O134 C150 1.249 . S
O135 Eu121 2.471 . S
O135 C150 1.244 . S
O136 Eu121 2.349 . S
O136 C137 1.265 . S
C137 O133 1.244 . S
C137 O136 1.265 . S
O138 Eu120 2.373 . S
O138 C151 1.258 . S
O139 Eu121 2.392 . S
O139 C151 1.242 . S
O140 Eu121 2.418 . S
O140 C122 1.244 . S
O141 Eu120 2.488 . S
O141 C129 1.249 . S
O142 Eu120 2.471 . S
O142 C129 1.244 . S
O143 Eu120 2.349 . S
O143 C122 1.265 . S
C144 C145 1.379 . S
C144 C148 1.373 . S
C144 C150 1.505 . S
C145 C144 1.379 . S
C145 C147 1.369 . S
C145 H156 0.930 . S
C146 C148 1.383 . S
C146 C149 1.382 . S
C146 H157 0.930 . S
C147 C145 1.369 . S
C147 C149 1.392 . S
C147 H158 0.930 . S
C148 C144 1.373 . S
C148 C146 1.383 . S
C148 H159 0.931 . S
C149 C146 1.382 . S
C149 C147 1.392 . S
C150 Eu121 2.828 . S
C150 O134 1.249 . S
C150 O135 1.244 . S
C150 C144 1.505 . S
C151 O138 1.258 . S
C151 O139 1.242 . S
H152 C124 0.930 . S
H153 C125 0.930 . S
H154 C126 0.930 . S
H155 C127 0.931 . S
H156 C145 0.930 . S
H157 C146 0.930 . S
H158 C147 0.930 . S
H159 C148 0.931 . S
Eu160 C169 2.828 . S
Eu160 O171 2.392 . S
Eu160 O173 2.418 . S
Eu160 O178 2.373 . S
Eu160 O181 2.488 . S
Eu160 O182 2.471 . S
Eu160 O183 2.349 . S
Eu161 O170 2.373 . S
Eu161 O174 2.488 . S
Eu161 O175 2.471 . S
Eu161 O176 2.349 . S
Eu161 O179 2.392 . S
Eu161 O180 2.418 . S
Eu161 C190 2.828 . S
C162 O180 1.244 . S
C162 O183 1.265 . S
C163 C164 1.379 . S
C163 C167 1.373 . S
C163 C169 1.505 . S
C164 C163 1.379 . S
C164 C166 1.369 . S
C164 H192 0.930 . S
C165 C167 1.383 . S
C165 C168 1.382 . S
C165 H193 0.930 . S
C166 C164 1.369 . S
C166 C168 1.392 . S
C166 H194 0.930 . S
C167 C163 1.373 . S
C167 C165 1.383 . S
C167 H195 0.931 . S
C168 C165 1.382 . S
C168 C166 1.392 . S
C169 Eu160 2.828 . S
C169 C163 1.505 . S
C169 O181 1.249 . S
C169 O182 1.244 . S
O170 Eu161 2.373 . S
O170 C172 1.258 . S
O171 Eu160 2.392 . S
O171 C172 1.242 . S
C172 O170 1.258 . S
C172 O171 1.242 . S
O173 Eu160 2.418 . S
O173 C177 1.244 . S
O174 Eu161 2.488 . S
O174 C190 1.249 . S
O175 Eu161 2.471 . S
O175 C190 1.244 . S
O176 Eu161 2.349 . S
O176 C177 1.265 . S
C177 O173 1.244 . S
C177 O176 1.265 . S
O178 Eu160 2.373 . S
O178 C191 1.258 . S
O179 Eu161 2.392 . S
O179 C191 1.242 . S
O180 Eu161 2.418 . S
O180 C162 1.244 . S
O181 Eu160 2.488 . S
O181 C169 1.249 . S
O182 Eu160 2.471 . S
O182 C169 1.244 . S
O183 Eu160 2.349 . S
O183 C162 1.265 . S
C184 C185 1.379 . S
C184 C188 1.373 . S
C184 C190 1.505 . S
C185 C184 1.379 . S
C185 C187 1.369 . S
C185 H196 0.930 . S
C186 C188 1.383 . S
C186 C189 1.382 . S
C186 H197 0.930 . S
C187 C185 1.369 . S
C187 C189 1.392 . S
C187 H198 0.930 . S
C188 C184 1.373 . S
C188 C186 1.383 . S
C188 H199 0.931 . S
C189 C186 1.382 . S
C189 C187 1.392 . S
C190 Eu161 2.828 . S
C190 O174 1.249 . S
C190 O175 1.244 . S
C190 C184 1.505 . S
C191 O178 1.258 . S
C191 O179 1.242 . S
H192 C164 0.930 . S
H193 C165 0.930 . S
H194 C166 0.930 . S
H195 C167 0.931 . S
H196 C185 0.930 . S
H197 C186 0.930 . S
H198 C187 0.930 . S
H199 C188 0.931 . S
Eu200 C209 2.828 . S
Eu200 O211 2.392 . S
Eu200 O213 2.418 . S
Eu200 O218 2.373 . S
Eu200 O221 2.488 . S
Eu200 O222 2.471 . S
Eu200 O223 2.349 . S
Eu201 O210 2.373 . S
Eu201 O214 2.488 . S
Eu201 O215 2.471 . S
Eu201 O216 2.349 . S
Eu201 O219 2.392 . S
Eu201 O220 2.418 . S
Eu201 C230 2.828 . S
C202 O220 1.244 . S
C202 O223 1.265 . S
C203 C204 1.379 . S
C203 C207 1.373 . S
C203 C209 1.505 . S
C204 C203 1.379 . S
C204 C206 1.369 . S
C204 H232 0.930 . S
C205 C207 1.383 . S
C205 C208 1.382 . S
C205 H233 0.930 . S
C206 C204 1.369 . S
C206 C208 1.392 . S
C206 H234 0.930 . S
C207 C203 1.373 . S
C207 C205 1.383 . S
C207 H235 0.931 . S
C208 C205 1.382 . S
C208 C206 1.392 . S
C209 Eu200 2.828 . S
C209 C203 1.505 . S
C209 O221 1.249 . S
C209 O222 1.244 . S
O210 Eu201 2.373 . S
O210 C212 1.258 . S
O211 Eu200 2.392 . S
O211 C212 1.242 . S
C212 O210 1.258 . S
C212 O211 1.242 . S
O213 Eu200 2.418 . S
O213 C217 1.244 . S
O214 Eu201 2.488 . S
O214 C230 1.249 . S
O215 Eu201 2.471 . S
O215 C230 1.244 . S
O216 Eu201 2.349 . S
O216 C217 1.265 . S
C217 O213 1.244 . S
C217 O216 1.265 . S
O218 Eu200 2.373 . S
O218 C231 1.258 . S
O219 Eu201 2.392 . S
O219 C231 1.242 . S
O220 Eu201 2.418 . S
O220 C202 1.244 . S
O221 Eu200 2.488 . S
O221 C209 1.249 . S
O222 Eu200 2.471 . S
O222 C209 1.244 . S
O223 Eu200 2.349 . S
O223 C202 1.265 . S
C224 C225 1.379 . S
C224 C228 1.373 . S
C224 C230 1.505 . S
C225 C224 1.379 . S
C225 C227 1.369 . S
C225 H236 0.930 . S
C226 C228 1.383 . S
C226 C229 1.382 . S
C226 H237 0.930 . S
C227 C225 1.369 . S
C227 C229 1.392 . S
C227 H238 0.930 . S
C228 C224 1.373 . S
C228 C226 1.383 . S
C228 H239 0.931 . S
C229 C226 1.382 . S
C229 C227 1.392 . S
C230 Eu201 2.828 . S
C230 O214 1.249 . S
C230 O215 1.244 . S
C230 C224 1.505 . S
C231 O218 1.258 . S
C231 O219 1.242 . S
H232 C204 0.930 . S
H233 C205 0.930 . S
H234 C206 0.930 . S
H235 C207 0.931 . S
H236 C225 0.930 . S
H237 C226 0.930 . S
H238 C227 0.930 . S
H239 C228 0.931 . S
Eu240 C249 2.828 . S
Eu240 O251 2.392 . S
Eu240 O253 2.418 . S
Eu240 O258 2.373 . S
Eu240 O261 2.488 . S
Eu240 O262 2.471 . S
Eu240 O263 2.349 . S
Eu241 O250 2.373 . S
Eu241 O254 2.488 . S
Eu241 O255 2.471 . S
Eu241 O256 2.349 . S
Eu241 O259 2.392 . S
Eu241 O260 2.418 . S
Eu241 C270 2.828 . S
C242 O260 1.244 . S
C242 O263 1.265 . S
C243 C244 1.379 . S
C243 C247 1.373 . S
C243 C249 1.505 . S
C244 C243 1.379 . S
C244 C246 1.369 . S
C244 H272 0.930 . S
C245 C247 1.383 . S
C245 C248 1.382 . S
C245 H273 0.930 . S
C246 C244 1.369 . S
C246 C248 1.392 . S
C246 H274 0.930 . S
C247 C243 1.373 . S
C247 C245 1.383 . S
C247 H275 0.931 . S
C248 C245 1.382 . S
C248 C246 1.392 . S
C249 Eu240 2.828 . S
C249 C243 1.505 . S
C249 O261 1.249 . S
C249 O262 1.244 . S
O250 Eu241 2.373 . S
O250 C252 1.258 . S
O251 Eu240 2.392 . S
O251 C252 1.242 . S
C252 O250 1.258 . S
C252 O251 1.242 . S
O253 Eu240 2.418 . S
O253 C257 1.244 . S
O254 Eu241 2.488 . S
O254 C270 1.249 . S
O255 Eu241 2.471 . S
O255 C270 1.244 . S
O256 Eu241 2.349 . S
O256 C257 1.265 . S
C257 O253 1.244 . S
C257 O256 1.265 . S
O258 Eu240 2.373 . S
O258 C271 1.258 . S
O259 Eu241 2.392 . S
O259 C271 1.242 . S
O260 Eu241 2.418 . S
O260 C242 1.244 . S
O261 Eu240 2.488 . S
O261 C249 1.249 . S
O262 Eu240 2.471 . S
O262 C249 1.244 . S
O263 Eu240 2.349 . S
O263 C242 1.265 . S
C264 C265 1.379 . S
C264 C268 1.373 . S
C264 C270 1.505 . S
C265 C264 1.379 . S
C265 C267 1.369 . S
C265 H276 0.930 . S
C266 C268 1.383 . S
C266 C269 1.382 . S
C266 H277 0.930 . S
C267 C265 1.369 . S
C267 C269 1.392 . S
C267 H278 0.930 . S
C268 C264 1.373 . S
C268 C266 1.383 . S
C268 H279 0.931 . S
C269 C266 1.382 . S
C269 C267 1.392 . S
C270 Eu241 2.828 . S
C270 O254 1.249 . S
C270 O255 1.244 . S
C270 C264 1.505 . S
C271 O258 1.258 . S
C271 O259 1.242 . S
H272 C244 0.930 . S
H273 C245 0.930 . S
H274 C246 0.930 . S
H275 C247 0.931 . S
H276 C265 0.930 . S
H277 C266 0.930 . S
H278 C267 0.930 . S
H279 C268 0.931 . S
Eu280 C289 2.828 . S
Eu280 O291 2.392 . S
Eu280 O293 2.418 . S
Eu280 O298 2.373 . S
Eu280 O301 2.488 . S
Eu280 O302 2.471 . S
Eu280 O303 2.349 . S
Eu281 O290 2.373 . S
Eu281 O294 2.488 . S
Eu281 O295 2.471 . S
Eu281 O296 2.349 . S
Eu281 O299 2.392 . S
Eu281 O300 2.418 . S
Eu281 C310 2.828 . S
C282 O300 1.244 . S
C282 O303 1.265 . S
C283 C284 1.379 . S
C283 C287 1.373 . S
C283 C289 1.505 . S
C284 C283 1.379 . S
C284 C286 1.369 . S
C284 H312 0.930 . S
C285 C287 1.383 . S
C285 C288 1.382 . S
C285 H313 0.930 . S
C286 C284 1.369 . S
C286 C288 1.392 . S
C286 H314 0.930 . S
C287 C283 1.373 . S
C287 C285 1.383 . S
C287 H315 0.931 . S
C288 C285 1.382 . S
C288 C286 1.392 . S
C289 Eu280 2.828 . S
C289 C283 1.505 . S
C289 O301 1.249 . S
C289 O302 1.244 . S
O290 Eu281 2.373 . S
O290 C292 1.258 . S
O291 Eu280 2.392 . S
O291 C292 1.242 . S
C292 O290 1.258 . S
C292 O291 1.242 . S
O293 Eu280 2.418 . S
O293 C297 1.244 . S
O294 Eu281 2.488 . S
O294 C310 1.249 . S
O295 Eu281 2.471 . S
O295 C310 1.244 . S
O296 Eu281 2.349 . S
O296 C297 1.265 . S
C297 O293 1.244 . S
C297 O296 1.265 . S
O298 Eu280 2.373 . S
O298 C311 1.258 . S
O299 Eu281 2.392 . S
O299 C311 1.242 . S
O300 Eu281 2.418 . S
O300 C282 1.244 . S
O301 Eu280 2.488 . S
O301 C289 1.249 . S
O302 Eu280 2.471 . S
O302 C289 1.244 . S
O303 Eu280 2.349 . S
O303 C282 1.265 . S
C304 C305 1.379 . S
C304 C308 1.373 . S
C304 C310 1.505 . S
C305 C304 1.379 . S
C305 C307 1.369 . S
C305 H316 0.930 . S
C306 C308 1.383 . S
C306 C309 1.382 . S
C306 H317 0.930 . S
C307 C305 1.369 . S
C307 C309 1.392 . S
C307 H318 0.930 . S
C308 C304 1.373 . S
C308 C306 1.383 . S
C308 H319 0.931 . S
C309 C306 1.382 . S
C309 C307 1.392 . S
C310 Eu281 2.828 . S
C310 O294 1.249 . S
C310 O295 1.244 . S
C310 C304 1.505 . S
C311 O298 1.258 . S
C311 O299 1.242 . S
H312 C284 0.930 . S
H313 C285 0.930 . S
H314 C286 0.930 . S
H315 C287 0.931 . S
H316 C305 0.930 . S
H317 C306 0.930 . S
H318 C307 0.930 . S
H319 C308 0.931 . S
Fe320 O321 1.886 1_455 S
Fe320 O324 1.715 . S
Fe320 O329 2.077 1_455 S
Fe320 O334 1.935 . S
Fe320 O340 2.077 1_455 S
Fe320 O349 1.935 . S
O321 Fe320 1.886 1_655 S
O321 Fe323 1.715 1_545 S
Fe322 O324 1.886 . S
Fe322 O325 1.715 1_545 S
Fe322 O332 1.935 1_545 S
Fe322 O333 2.077 . S
Fe322 O339 1.935 1_545 S
Fe322 O348 2.077 . S
Fe323 O321 1.715 1_565 S
Fe323 O326 1.886 . S
Fe323 O330 1.935 1_565 S
Fe323 O335 2.077 . S
Fe323 O341 1.935 1_565 S
Fe323 O345 2.077 . S
O324 Fe320 1.715 . S
O324 Fe322 1.886 . S
O325 Fe322 1.715 1_565 S
O325 Fe327 1.886 1_455 S
O326 Fe323 1.886 . S
O326 Fe327 1.715 . S
Fe327 O325 1.886 1_655 S
Fe327 O326 1.715 . S
Fe327 O331 2.077 1_655 S
Fe327 O336 1.935 . S
Fe327 O338 2.077 1_655 S
Fe327 O346 1.935 . S
C328 O340 1.381 . S
C328 O341 1.421 . S
O329 Fe320 2.077 1_655 S
O329 C342 1.381 . S
O330 Fe323 1.935 1_545 S
O330 C342 1.421 . S
O331 Fe327 2.077 1_455 S
O331 C347 1.381 . S
O332 Fe322 1.935 1_565 S
O332 C347 1.421 . S
O333 Fe322 2.077 . S
O333 C337 1.381 . S
O334 Fe320 1.935 . S
O334 C337 1.421 . S
O335 Fe323 2.077 . S
O335 C343 1.381 . S
O336 Fe327 1.935 . S
O336 C343 1.421 . S
C337 O333 1.381 . S
C337 O334 1.421 . S
O338 Fe327 2.077 1_455 S
O338 C350 1.381 . S
O339 Fe322 1.935 1_565 S
O339 C350 1.421 . S
O340 Fe320 2.077 1_655 S
O340 C328 1.381 . S
O341 Fe323 1.935 1_545 S
O341 C328 1.421 . S
C342 O329 1.381 . S
C342 O330 1.421 . S
C343 O335 1.381 . S
C343 O336 1.421 . S
C344 O345 1.381 . S
C344 O346 1.421 . S
O345 Fe323 2.077 . S
O345 C344 1.381 . S
O346 Fe327 1.935 . S
O346 C344 1.421 . S
C347 O331 1.381 . S
C347 O332 1.421 . S
O348 Fe322 2.077 . S
O348 C351 1.381 . S
O349 Fe320 1.935 . S
O349 C351 1.421 . S
C350 O338 1.381 . S
C350 O339 1.421 . S
C351 O348 1.381 . S
C351 O349 1.421 . S
Fe352 O353 1.886 . S
Fe352 O356 1.713 . S
Fe352 O361 2.077 . S
Fe352 O366 1.935 . S
Fe352 O372 2.077 1_556 S
Fe352 O381 1.935 1_556 S
O353 Fe352 1.886 . S
O353 Fe355 1.715 1_565 S
Fe354 O356 1.889 1_554 S
Fe354 O357 1.715 1_565 S
Fe354 O364 1.935 1_564 S
Fe354 O365 2.077 1_554 S
Fe354 O371 1.935 1_565 S
Fe354 O380 2.077 . S
Fe355 O353 1.715 1_545 S
Fe355 O358 1.886 1_556 S
Fe355 O362 1.935 1_545 S
Fe355 O367 2.077 . S
Fe355 O373 1.935 1_546 S
Fe355 O377 2.077 1_556 S
O356 Fe352 1.713 . S
O356 Fe354 1.889 1_556 S
O357 Fe354 1.715 1_545 S
O357 Fe359 1.886 . S
O358 Fe355 1.886 1_554 S
O358 Fe359 1.715 . S
Fe359 O357 1.886 . S
Fe359 O358 1.715 . S
Fe359 O363 2.077 1_554 S
Fe359 O368 1.935 1_554 S
Fe359 O370 2.077 . S
Fe359 O378 1.935 . S
C360 O372 1.381 . S
C360 O373 1.421 . S
O361 Fe352 2.077 . S
O361 C374 1.381 . S
O362 Fe355 1.935 1_565 S
O362 C374 1.421 . S
O363 Fe359 2.077 1_556 S
O363 C379 1.381 . S
O364 Fe354 1.935 1_546 S
O364 C379 1.421 . S
O365 Fe354 2.077 1_556 S
O365 C369 1.381 . S
O366 Fe352 1.935 . S
O366 C369 1.421 . S
O367 Fe355 2.077 . S
O367 C375 1.381 . S
O368 Fe359 1.935 1_556 S
O368 C375 1.421 . S
C369 O365 1.381 . S
C369 O366 1.421 . S
O370 Fe359 2.077 . S
O370 C382 1.381 . S
O371 Fe354 1.935 1_545 S
O371 C382 1.421 . S
O372 Fe352 2.077 1_554 S
O372 C360 1.381 . S
O373 Fe355 1.935 1_564 S
O373 C360 1.421 . S
C374 O361 1.381 . S
C374 O362 1.421 . S
C375 O367 1.381 . S
C375 O368 1.421 . S
C376 O377 1.381 . S
C376 O378 1.421 . S
O377 Fe355 2.077 1_554 S
O377 C376 1.381 . S
O378 Fe359 1.935 . S
O378 C376 1.421 . S
C379 O363 1.381 . S
C379 O364 1.421 . S
O380 Fe354 2.077 . S
O380 C383 1.381 . S
O381 Fe352 1.935 1_554 S
O381 C383 1.421 . S
C382 O370 1.381 . S
C382 O371 1.421 . S
C383 O380 1.381 . S
C383 O381 1.421 . S
Fe384 O385 1.886 1_455 S
Fe384 O388 1.715 . S
Fe384 O393 2.077 1_454 S
Fe384 O398 1.935 1_554 S
Fe384 O404 2.077 1_455 S
Fe384 O413 1.935 . S
O385 Fe384 1.886 1_655 S
O385 Fe387 1.715 . S
Fe386 O388 1.886 1_556 S
Fe386 O389 1.715 . S
Fe386 O396 1.935 . S
Fe386 O397 2.077 . S
Fe386 O403 1.935 1_556 S
Fe386 O412 2.077 1_556 S
Fe387 O385 1.715 . S
Fe387 O390 1.889 1_554 S
Fe387 O394 1.935 1_554 S
Fe387 O399 2.077 1_554 S
Fe387 O405 1.935 . S
Fe387 O409 2.077 . S
O388 Fe384 1.715 . S
O388 Fe386 1.886 1_554 S
O389 Fe386 1.715 . S
O389 Fe391 1.886 1_455 S
O390 Fe387 1.889 1_556 S
O390 Fe391 1.713 . S
Fe391 O389 1.886 1_655 S
Fe391 O390 1.713 . S
Fe391 O395 2.077 1_655 S
Fe391 O400 1.935 . S
Fe391 O402 2.077 1_656 S
Fe391 O410 1.935 1_556 S
C392 O404 1.381 . S
C392 O405 1.421 . S
O393 Fe384 2.077 1_656 S
O393 C406 1.381 . S
O394 Fe387 1.935 1_556 S
O394 C406 1.421 . S
O395 Fe391 2.077 1_455 S
O395 C411 1.381 . S
O396 Fe386 1.935 . S
O396 C411 1.421 . S
O397 Fe386 2.077 . S
O397 C401 1.381 . S
O398 Fe384 1.935 1_556 S
O398 C401 1.421 . S
O399 Fe387 2.077 1_556 S
O399 C407 1.381 . S
O400 Fe391 1.935 . S
O400 C407 1.421 . S
C401 O397 1.381 . S
C401 O398 1.421 . S
O402 Fe391 2.077 1_454 S
O402 C414 1.381 . S
O403 Fe386 1.935 1_554 S
O403 C414 1.421 . S
O404 Fe384 2.077 1_655 S
O404 C392 1.381 . S
O405 Fe387 1.935 . S
O405 C392 1.421 . S
C406 O393 1.381 . S
C406 O394 1.421 . S
C407 O399 1.381 . S
C407 O400 1.421 . S
C408 O409 1.381 . S
C408 O410 1.421 . S
O409 Fe387 2.077 . S
O409 C408 1.381 . S
O410 Fe391 1.935 1_554 S
O410 C408 1.421 . S
C411 O395 1.381 . S
C411 O396 1.421 . S
O412 Fe386 2.077 1_554 S
O412 C415 1.381 . S
O413 Fe384 1.935 . S
O413 C415 1.421 . S
C414 O402 1.381 . S
C414 O403 1.421 . S
C415 O412 1.381 . S
C415 O413 1.421 . S
Fe416 O417 1.886 . S
Fe416 O420 1.715 . S
Fe416 O425 2.077 . S
Fe416 O430 1.935 . S
Fe416 O436 2.077 . S
Fe416 O445 1.935 . S
O417 Fe416 1.886 . S
O417 Fe419 1.732 . S
Fe418 O420 1.863 1_554 S
Fe418 O421 1.740 . S
Fe418 O428 1.951 . S
Fe418 O429 2.054 1_554 S
Fe418 O435 1.955 . S
Fe418 O444 2.057 1_554 S
Fe419 O417 1.732 . S
Fe419 O422 1.870 1_556 S
Fe419 O426 1.948 . S
Fe419 O431 2.064 1_556 S
Fe419 O437 1.946 . S
Fe419 O441 2.062 1_556 S
O420 Fe416 1.715 . S
O420 Fe418 1.863 1_556 S
O421 Fe418 1.740 . S
O421 Fe423 1.886 . S
O422 Fe419 1.870 1_554 S
O422 Fe423 1.715 . S
Fe423 O421 1.886 . S
Fe423 O422 1.715 . S
Fe423 O427 2.077 . S
Fe423 O432 1.935 . S
Fe423 O434 2.077 . S
Fe423 O442 1.935 . S
C424 O436 1.381 . S
C424 O437 1.421 . S
O425 Fe416 2.077 . S
O425 C438 1.381 . S
O426 Fe419 1.948 . S
O426 C438 1.421 . S
O427 Fe423 2.077 . S
O427 C443 1.381 . S
O428 Fe418 1.951 . S
O428 C443 1.421 . S
O429 Fe418 2.054 1_556 S
O429 C433 1.381 . S
O430 Fe416 1.935 . S
O430 C433 1.421 . S
O431 Fe419 2.064 1_554 S
O431 C439 1.381 . S
O432 Fe423 1.935 . S
O432 C439 1.421 . S
C433 O429 1.381 . S
C433 O430 1.421 . S
O434 Fe423 2.077 . S
O434 C446 1.381 . S
O435 Fe418 1.955 . S
O435 C446 1.421 . S
O436 Fe416 2.077 . S
O436 C424 1.381 . S
O437 Fe419 1.946 . S
O437 C424 1.421 . S
C438 O425 1.381 . S
C438 O426 1.421 . S
C439 O431 1.381 . S
C439 O432 1.421 . S
C440 O441 1.381 . S
C440 O442 1.421 . S
O441 Fe419 2.062 1_554 S
O441 C440 1.381 . S
O442 Fe423 1.935 . S
O442 C440 1.421 . S
C443 O427 1.381 . S
C443 O428 1.421 . S
O444 Fe418 2.057 1_556 S
O444 C447 1.381 . S
O445 Fe416 1.935 . S
O445 C447 1.421 . S
C446 O434 1.381 . S
C446 O435 1.421 . S
C447 O444 1.381 . S
C447 O445 1.421 . S
Fe448 O449 1.886 . S
Fe448 O452 1.715 . S
Fe448 O457 2.077 1_655 S
Fe448 O462 1.935 1_655 S
Fe448 O468 2.077 . S
Fe448 O477 1.935 . S
O449 Fe448 1.886 . S
O449 Fe451 1.715 . S
Fe450 O452 1.886 1_455 S
Fe450 O453 1.715 . S
Fe450 O460 1.935 . S
Fe450 O461 2.077 . S
Fe450 O467 1.935 1_455 S
Fe450 O476 2.077 1_455 S
Fe451 O449 1.715 . S
Fe451 O454 1.886 1_655 S
Fe451 O458 1.935 1_655 S
Fe451 O463 2.077 1_655 S
Fe451 O469 1.935 . S
Fe451 O473 2.077 . S
O452 Fe448 1.715 . S
O452 Fe450 1.886 1_655 S
O453 Fe450 1.715 . S
O453 Fe455 1.886 . S
O454 Fe451 1.886 1_455 S
O454 Fe455 1.715 . S
Fe455 O453 1.886 . S
Fe455 O454 1.715 . S
Fe455 O459 2.077 . S
Fe455 O464 1.935 . S
Fe455 O466 2.077 1_455 S
Fe455 O474 1.935 1_455 S
C456 O468 1.381 . S
C456 O469 1.421 . S
O457 Fe448 2.077 1_455 S
O457 C470 1.381 . S
O458 Fe451 1.935 1_455 S
O458 C470 1.421 . S
O459 Fe455 2.077 . S
O459 C475 1.381 . S
O460 Fe450 1.935 . S
O460 C475 1.421 . S
O461 Fe450 2.077 . S
O461 C465 1.381 . S
O462 Fe448 1.935 1_455 S
O462 C465 1.421 . S
O463 Fe451 2.077 1_455 S
O463 C471 1.381 . S
O464 Fe455 1.935 . S
O464 C471 1.421 . S
C465 O461 1.381 . S
C465 O462 1.421 . S
O466 Fe455 2.077 1_655 S
O466 C478 1.381 . S
O467 Fe450 1.935 1_655 S
O467 C478 1.421 . S
O468 Fe448 2.077 . S
O468 C456 1.381 . S
O469 Fe451 1.935 . S
O469 C456 1.421 . S
C470 O457 1.381 . S
C470 O458 1.421 . S
C471 O463 1.381 . S
C471 O464 1.421 . S
C472 O473 1.381 . S
C472 O474 1.421 . S
O473 Fe451 2.077 . S
O473 C472 1.381 . S
O474 Fe455 1.935 1_655 S
O474 C472 1.421 . S
C475 O459 1.381 . S
C475 O460 1.421 . S
O476 Fe450 2.077 1_655 S
O476 C479 1.381 . S
O477 Fe448 1.935 . S
O477 C479 1.421 . S
C478 O466 1.381 . S
C478 O467 1.421 . S
C479 O476 1.381 . S
C479 O477 1.421 . S
Fe480 O481 1.886 . S
Fe480 O484 1.715 . S
Fe480 O489 2.077 . S
Fe480 O494 1.935 . S
Fe480 O500 2.077 . S
Fe480 O509 1.935 . S
O481 Fe480 1.886 . S
O481 Fe483 1.715 1_565 S
Fe482 O484 1.886 . S
Fe482 O485 1.715 1_565 S
Fe482 O492 1.935 1_565 S
Fe482 O493 2.077 . S
Fe482 O499 1.935 1_565 S
Fe482 O508 2.077 . S
Fe483 O481 1.715 1_545 S
Fe483 O486 1.886 . S
Fe483 O490 1.935 1_545 S
Fe483 O495 2.077 . S
Fe483 O501 1.935 1_545 S
Fe483 O505 2.077 . S
O484 Fe480 1.715 . S
O484 Fe482 1.886 . S
O485 Fe482 1.715 1_545 S
O485 Fe487 1.886 . S
O486 Fe483 1.886 . S
O486 Fe487 1.715 . S
Fe487 O485 1.886 . S
Fe487 O486 1.715 . S
Fe487 O491 2.077 . S
Fe487 O496 1.935 . S
Fe487 O498 2.077 . S
Fe487 O506 1.935 . S
C488 O500 1.381 . S
C488 O501 1.421 . S
O489 Fe480 2.077 . S
O489 C502 1.381 . S
O490 Fe483 1.935 1_565 S
O490 C502 1.421 . S
O491 Fe487 2.077 . S
O491 C507 1.381 . S
O492 Fe482 1.935 1_545 S
O492 C507 1.421 . S
O493 Fe482 2.077 . S
O493 C497 1.381 . S
O494 Fe480 1.935 . S
O494 C497 1.421 . S
O495 Fe483 2.077 . S
O495 C503 1.381 . S
O496 Fe487 1.935 . S
O496 C503 1.421 . S
C497 O493 1.381 . S
C497 O494 1.421 . S
O498 Fe487 2.077 . S
O498 C510 1.381 . S
O499 Fe482 1.935 1_545 S
O499 C510 1.421 . S
O500 Fe480 2.077 . S
O500 C488 1.381 . S
O501 Fe483 1.935 1_565 S
O501 C488 1.421 . S
C502 O489 1.381 . S
C502 O490 1.421 . S
C503 O495 1.381 . S
C503 O496 1.421 . S
C504 O505 1.381 . S
C504 O506 1.421 . S
O505 Fe483 2.077 . S
O505 C504 1.381 . S
O506 Fe487 1.935 . S
O506 C504 1.421 . S
C507 O491 1.381 . S
C507 O492 1.421 . S
O508 Fe482 2.077 . S
O508 C511 1.381 . S
O509 Fe480 1.935 . S
O509 C511 1.421 . S
C510 O498 1.381 . S
C510 O499 1.421 . S
C511 O508 1.381 . S
C511 O509 1.421 . S
H512 C520 0.929 . S
H513 C522 0.930 . S
H514 C524 0.930 . S
H515 C527 0.929 . S
H516 C530 0.930 . S
H517 C532 0.960 . S
H518 C532 0.960 . S
H519 C532 0.960 . S
C520 H512 0.929 . S
C520 C521 1.377 . S
C520 C522 1.384 . S
C521 C520 1.377 . S
C521 C527 1.390 . S
C522 H513 0.930 . S
C522 C520 1.384 . S
C522 C523 1.372 . S
C523 C522 1.372 . S
C523 C524 1.400 . S
C523 C528 1.490 . S
C524 H514 0.930 . S
C524 C523 1.400 . S
C524 C527 1.386 . S
H525 C541 0.930 . S
H526 C542 0.931 . S
C527 H515 0.929 . S
C527 C521 1.390 . S
C527 C524 1.386 . S
C528 C523 1.490 . S
C528 C530 1.395 . S
C528 C531 1.403 . S
H529 C535 0.930 . S
C530 H516 0.930 . S
C530 C528 1.395 . S
C530 C533 1.403 . S
C531 C528 1.403 . S
C531 C532 1.524 . S
C531 C535 1.400 . S
C532 H517 0.960 . S
C532 H518 0.960 . S
C532 H519 0.960 . S
C532 C531 1.524 . S
C533 C530 1.403 . S
C533 C534 1.392 . S
C533 C537 1.495 . S
C534 C533 1.392 . S
C534 C535 1.385 . S
C534 C536 1.478 . S
C535 H529 0.930 . S
C535 C531 1.400 . S
C535 C534 1.385 . S
C536 C534 1.478 . S
C536 C538 1.381 . S
C536 C542 1.383 . S
C537 C533 1.495 . S
C537 H543 0.959 . S
C537 H544 0.961 . S
C537 H545 0.960 . S
C538 C536 1.381 . S
C538 C539 1.394 . S
C538 H546 0.930 . S
C539 C538 1.394 . S
C539 C540 1.383 . S
C539 H547 0.929 . S
C540 C539 1.383 . S
C540 C541 1.377 . S
C541 H525 0.930 . S
C541 C540 1.377 . S
C541 C542 1.379 . S
C542 H526 0.931 . S
C542 C536 1.383 . S
C542 C541 1.379 . S
H543 C537 0.959 . S
H544 C537 0.961 . S
H545 C537 0.960 . S
H546 C538 0.930 . S
H547 C539 0.929 . S
H548 C556 0.929 . S
H549 C558 0.930 . S
H550 C560 0.930 . S
H551 C563 0.929 . S
H552 C566 0.930 . S
H553 C568 0.960 . S
H554 C568 0.960 . S
H555 C568 0.960 . S
C556 H548 0.929 . S
C556 C557 1.377 . S
C556 C558 1.384 . S
C557 C556 1.377 . S
C557 C563 1.390 . S
C558 H549 0.930 . S
C558 C556 1.384 . S
C558 C559 1.372 . S
C559 C558 1.372 . S
C559 C560 1.400 . S
C559 C564 1.490 . S
C560 H550 0.930 . S
C560 C559 1.400 . S
C560 C563 1.386 . S
H561 C577 0.930 . S
H562 C578 0.931 . S
C563 H551 0.929 . S
C563 C557 1.390 . S
C563 C560 1.386 . S
C564 C559 1.490 . S
C564 C566 1.395 . S
C564 C567 1.403 . S
H565 C571 0.930 . S
C566 H552 0.930 . S
C566 C564 1.395 . S
C566 C569 1.403 . S
C567 C564 1.403 . S
C567 C568 1.524 . S
C567 C571 1.400 . S
C568 H553 0.960 . S
C568 H554 0.960 . S
C568 H555 0.960 . S
C568 C567 1.524 . S
C569 C566 1.403 . S
C569 C570 1.392 . S
C569 C573 1.495 . S
C570 C569 1.392 . S
C570 C571 1.385 . S
C570 C572 1.478 . S
C571 H565 0.930 . S
C571 C567 1.400 . S
C571 C570 1.385 . S
C572 C570 1.478 . S
C572 C574 1.381 . S
C572 C578 1.383 . S
C573 C569 1.495 . S
C573 H579 0.959 . S
C573 H580 0.961 . S
C573 H581 0.960 . S
C574 C572 1.381 . S
C574 C575 1.394 . S
C574 H582 0.930 . S
C575 C574 1.394 . S
C575 C576 1.383 . S
C575 H583 0.929 . S
C576 C575 1.383 . S
C576 C577 1.377 . S
C577 H561 0.930 . S
C577 C576 1.377 . S
C577 C578 1.379 . S
C578 H562 0.931 . S
C578 C572 1.383 . S
C578 C577 1.379 . S
H579 C573 0.959 . S
H580 C573 0.961 . S
H581 C573 0.960 . S
H582 C574 0.930 . S
H583 C575 0.929 . S
H584 C592 0.929 . S
H585 C594 0.930 . S
H586 C596 0.930 . S
H587 C599 0.929 . S
H588 C602 0.930 . S
H589 C604 0.960 . S
H590 C604 0.960 . S
H591 C604 0.960 . S
C592 H584 0.929 . S
C592 C593 1.377 . S
C592 C594 1.384 . S
C593 C592 1.377 . S
C593 C599 1.390 . S
C594 H585 0.930 . S
C594 C592 1.384 . S
C594 C595 1.372 . S
C595 C594 1.372 . S
C595 C596 1.400 . S
C595 C600 1.490 . S
C596 H586 0.930 . S
C596 C595 1.400 . S
C596 C599 1.386 . S
H597 C613 0.930 . S
H598 C614 0.931 . S
C599 H587 0.929 . S
C599 C593 1.390 . S
C599 C596 1.386 . S
C600 C595 1.490 . S
C600 C602 1.395 . S
C600 C603 1.403 . S
H601 C607 0.930 . S
C602 H588 0.930 . S
C602 C600 1.395 . S
C602 C605 1.403 . S
C603 C600 1.403 . S
C603 C604 1.524 . S
C603 C607 1.400 . S
C604 H589 0.960 . S
C604 H590 0.960 . S
C604 H591 0.960 . S
C604 C603 1.524 . S
C605 C602 1.403 . S
C605 C606 1.392 . S
C605 C609 1.495 . S
C606 C605 1.392 . S
C606 C607 1.385 . S
C606 C608 1.478 . S
C607 H601 0.930 . S
C607 C603 1.400 . S
C607 C606 1.385 . S
C608 C606 1.478 . S
C608 C610 1.381 . S
C608 C614 1.383 . S
C609 C605 1.495 . S
C609 H615 0.959 . S
C609 H616 0.961 . S
C609 H617 0.960 . S
C610 C608 1.381 . S
C610 C611 1.394 . S
C610 H618 0.930 . S
C611 C610 1.394 . S
C611 C612 1.383 . S
C611 H619 0.929 . S
C612 C611 1.383 . S
C612 C613 1.377 . S
C613 H597 0.930 . S
C613 C612 1.377 . S
C613 C614 1.379 . S
C614 H598 0.931 . S
C614 C608 1.383 . S
C614 C613 1.379 . S
H615 C609 0.959 . S
H616 C609 0.961 . S
H617 C609 0.960 . S
H618 C610 0.930 . S
H619 C611 0.929 . S
H620 C628 0.929 . S
H621 C630 0.930 . S
H622 C632 0.930 . S
H623 C635 0.929 . S
H624 C638 0.930 . S
H625 C640 0.960 . S
H626 C640 0.960 . S
H627 C640 0.960 . S
C628 H620 0.929 . S
C628 C629 1.377 . S
C628 C630 1.384 . S
C629 C628 1.377 . S
C629 C635 1.390 . S
C630 H621 0.930 . S
C630 C628 1.384 . S
C630 C631 1.372 . S
C631 C630 1.372 . S
C631 C632 1.400 . S
C631 C636 1.490 . S
C632 H622 0.930 . S
C632 C631 1.400 . S
C632 C635 1.386 . S
H633 C649 0.930 . S
H634 C650 0.931 . S
C635 H623 0.929 . S
C635 C629 1.390 . S
C635 C632 1.386 . S
C636 C631 1.490 . S
C636 C638 1.395 . S
C636 C639 1.403 . S
H637 C643 0.930 . S
C638 H624 0.930 . S
C638 C636 1.395 . S
C638 C641 1.403 . S
C639 C636 1.403 . S
C639 C640 1.524 . S
C639 C643 1.400 . S
C640 H625 0.960 . S
C640 H626 0.960 . S
C640 H627 0.960 . S
C640 C639 1.524 . S
C641 C638 1.403 . S
C641 C642 1.392 . S
C641 C645 1.495 . S
C642 C641 1.392 . S
C642 C643 1.385 . S
C642 C644 1.478 . S
C643 H637 0.930 . S
C643 C639 1.400 . S
C643 C642 1.385 . S
C644 C642 1.478 . S
C644 C646 1.381 . S
C644 C650 1.383 . S
C645 C641 1.495 . S
C645 H651 0.959 . S
C645 H652 0.961 . S
C645 H653 0.960 . S
C646 C644 1.381 . S
C646 C647 1.394 . S
C646 H654 0.930 . S
C647 C646 1.394 . S
C647 C648 1.383 . S
C647 H655 0.929 . S
C648 C647 1.383 . S
C648 C649 1.377 . S
C649 H633 0.930 . S
C649 C648 1.377 . S
C649 C650 1.379 . S
C650 H634 0.931 . S
C650 C644 1.383 . S
C650 C649 1.379 . S
H651 C645 0.959 . S
H652 C645 0.961 . S
H653 C645 0.960 . S
H654 C646 0.930 . S
H655 C647 0.929 . S
H656 C664 0.929 . S
H657 C666 0.930 . S
H658 C668 0.930 . S
H659 C671 0.929 . S
H660 C674 0.930 . S
H661 C676 0.960 . S
H662 C676 0.960 . S
H663 C676 0.960 . S
C664 H656 0.929 . S
C664 C665 1.377 . S
C664 C666 1.384 . S
C665 C664 1.377 . S
C665 C671 1.390 . S
C666 H657 0.930 . S
C666 C664 1.384 . S
C666 C667 1.372 . S
C667 C666 1.372 . S
C667 C668 1.400 . S
C667 C672 1.490 . S
C668 H658 0.930 . S
C668 C667 1.400 . S
C668 C671 1.386 . S
H669 C685 0.930 . S
H670 C686 0.931 . S
C671 H659 0.929 . S
C671 C665 1.390 . S
C671 C668 1.386 . S
C672 C667 1.490 . S
C672 C674 1.395 . S
C672 C675 1.403 . S
H673 C679 0.930 . S
C674 H660 0.930 . S
C674 C672 1.395 . S
C674 C677 1.403 . S
C675 C672 1.403 . S
C675 C676 1.524 . S
C675 C679 1.400 . S
C676 H661 0.960 . S
C676 H662 0.960 . S
C676 H663 0.960 . S
C676 C675 1.524 . S
C677 C674 1.403 . S
C677 C678 1.392 . S
C677 C681 1.495 . S
C678 C677 1.392 . S
C678 C679 1.385 . S
C678 C680 1.478 . S
C679 H673 0.930 . S
C679 C675 1.400 . S
C679 C678 1.385 . S
C680 C678 1.478 . S
C680 C682 1.381 . S
C680 C686 1.383 . S
C681 C677 1.495 . S
C681 H687 0.959 . S
C681 H688 0.961 . S
C681 H689 0.960 . S
C682 C680 1.381 . S
C682 C683 1.394 . S
C682 H690 0.930 . S
C683 C682 1.394 . S
C683 C684 1.383 . S
C683 H691 0.929 . S
C684 C683 1.383 . S
C684 C685 1.377 . S
C685 H669 0.930 . S
C685 C684 1.377 . S
C685 C686 1.379 . S
C686 H670 0.931 . S
C686 C680 1.383 . S
C686 C685 1.379 . S
H687 C681 0.959 . S
H688 C681 0.961 . S
H689 C681 0.960 . S
H690 C682 0.930 . S
H691 C683 0.929 . S
H692 C700 0.929 . S
H693 C702 0.930 . S
H694 C704 0.930 . S
H695 C707 0.929 . S
H696 C710 0.930 . S
H697 C712 0.960 . S
H698 C712 0.960 . S
H699 C712 0.960 . S
C700 H692 0.929 . S
C700 C701 1.377 . S
C700 C702 1.384 . S
C701 C700 1.377 . S
C701 C707 1.390 . S
C702 H693 0.930 . S
C702 C700 1.384 . S
C702 C703 1.372 . S
C703 C702 1.372 . S
C703 C704 1.400 . S
C703 C708 1.490 . S
C704 H694 0.930 . S
C704 C703 1.400 . S
C704 C707 1.386 . S
H705 C721 0.930 . S
H706 C722 0.931 . S
C707 H695 0.929 . S
C707 C701 1.390 . S
C707 C704 1.386 . S
C708 C703 1.490 . S
C708 C710 1.395 . S
C708 C711 1.403 . S
H709 C715 0.930 . S
C710 H696 0.930 . S
C710 C708 1.395 . S
C710 C713 1.403 . S
C711 C708 1.403 . S
C711 C712 1.524 . S
C711 C715 1.400 . S
C712 H697 0.960 . S
C712 H698 0.960 . S
C712 H699 0.960 . S
C712 C711 1.524 . S
C713 C710 1.403 . S
C713 C714 1.392 . S
C713 C717 1.495 . S
C714 C713 1.392 . S
C714 C715 1.385 . S
C714 C716 1.478 . S
C715 H709 0.930 . S
C715 C711 1.400 . S
C715 C714 1.385 . S
C716 C714 1.478 . S
C716 C718 1.381 . S
C716 C722 1.383 . S
C717 C713 1.495 . S
C717 H723 0.959 . S
C717 H724 0.961 . S
C717 H725 0.960 . S
C718 C716 1.381 . S
C718 C719 1.394 . S
C718 H726 0.930 . S
C719 C718 1.394 . S
C719 C720 1.383 . S
C719 H727 0.929 . S
C720 C719 1.383 . S
C720 C721 1.377 . S
C721 H705 0.930 . S
C721 C720 1.377 . S
C721 C722 1.379 . S
C722 H706 0.931 . S
C722 C716 1.383 . S
C722 C721 1.379 . S
H723 C717 0.959 . S
H724 C717 0.961 . S
H725 C717 0.960 . S
H726 C718 0.930 . S
H727 C719 0.929 . S
H728 C736 0.929 . S
H729 C738 0.930 . S
H730 C740 0.930 . S
H731 C743 0.929 . S
H732 C746 0.930 . S
H733 C748 0.960 . S
H734 C748 0.960 . S
H735 C748 0.960 . S
C736 H728 0.929 . S
C736 C737 1.377 . S
C736 C738 1.384 . S
C737 C736 1.377 . S
C737 C743 1.390 . S
C738 H729 0.930 . S
C738 C736 1.384 . S
C738 C739 1.372 . S
C739 C738 1.372 . S
C739 C740 1.400 . S
C739 C744 1.490 . S
C740 H730 0.930 . S
C740 C739 1.400 . S
C740 C743 1.386 . S
H741 C757 0.930 . S
H742 C758 0.931 . S
C743 H731 0.929 . S
C743 C737 1.390 . S
C743 C740 1.386 . S
C744 C739 1.490 . S
C744 C746 1.395 . S
C744 C747 1.403 . S
H745 C751 0.930 . S
C746 H732 0.930 . S
C746 C744 1.395 . S
C746 C749 1.403 . S
C747 C744 1.403 . S
C747 C748 1.524 . S
C747 C751 1.400 . S
C748 H733 0.960 . S
C748 H734 0.960 . S
C748 H735 0.960 . S
C748 C747 1.524 . S
C749 C746 1.403 . S
C749 C750 1.392 . S
C749 C753 1.495 . S
C750 C749 1.392 . S
C750 C751 1.385 . S
C750 C752 1.478 . S
C751 H745 0.930 . S
C751 C747 1.400 . S
C751 C750 1.385 . S
C752 C750 1.478 . S
C752 C754 1.381 . S
C752 C758 1.383 . S
C753 C749 1.495 . S
C753 H759 0.959 . S
C753 H760 0.961 . S
C753 H761 0.960 . S
C754 C752 1.381 . S
C754 C755 1.394 . S
C754 H762 0.930 . S
C755 C754 1.394 . S
C755 C756 1.383 . S
C755 H763 0.929 . S
C756 C755 1.383 . S
C756 C757 1.377 . S
C757 H741 0.930 . S
C757 C756 1.377 . S
C757 C758 1.379 . S
C758 H742 0.931 . S
C758 C752 1.383 . S
C758 C757 1.379 . S
H759 C753 0.959 . S
H760 C753 0.961 . S
H761 C753 0.960 . S
H762 C754 0.930 . S
H763 C755 0.929 . S
H764 C772 0.929 . S
H765 C774 0.930 . S
H766 C776 0.930 . S
H767 C779 0.929 . S
H768 C782 0.930 . S
H769 C784 0.960 . S
H770 C784 0.960 . S
H771 C784 0.960 . S
C772 H764 0.929 . S
C772 C773 1.377 . S
C772 C774 1.384 . S
C773 C772 1.377 . S
C773 C779 1.390 . S
C774 H765 0.930 . S
C774 C772 1.384 . S
C774 C775 1.372 . S
C775 C774 1.372 . S
C775 C776 1.400 . S
C775 C780 1.490 . S
C776 H766 0.930 . S
C776 C775 1.400 . S
C776 C779 1.386 . S
H777 C793 0.930 . S
H778 C794 0.931 . S
C779 H767 0.929 . S
C779 C773 1.390 . S
C779 C776 1.386 . S
C780 C775 1.490 . S
C780 C782 1.395 . S
C780 C783 1.403 . S
H781 C787 0.930 . S
C782 H768 0.930 . S
C782 C780 1.395 . S
C782 C785 1.403 . S
C783 C780 1.403 . S
C783 C784 1.524 . S
C783 C787 1.400 . S
C784 H769 0.960 . S
C784 H770 0.960 . S
C784 H771 0.960 . S
C784 C783 1.524 . S
C785 C782 1.403 . S
C785 C786 1.392 . S
C785 C789 1.495 . S
C786 C785 1.392 . S
C786 C787 1.385 . S
C786 C788 1.478 . S
C787 H781 0.930 . S
C787 C783 1.400 . S
C787 C786 1.385 . S
C788 C786 1.478 . S
C788 C790 1.381 . S
C788 C794 1.383 . S
C789 C785 1.495 . S
C789 H795 0.959 . S
C789 H796 0.961 . S
C789 H797 0.960 . S
C790 C788 1.381 . S
C790 C791 1.394 . S
C790 H798 0.930 . S
C791 C790 1.394 . S
C791 C792 1.383 . S
C791 H799 0.929 . S
C792 C791 1.383 . S
C792 C793 1.377 . S
C793 H777 0.930 . S
C793 C792 1.377 . S
C793 C794 1.379 . S
C794 H778 0.931 . S
C794 C788 1.383 . S
C794 C793 1.379 . S
H795 C789 0.959 . S
H796 C789 0.961 . S
H797 C789 0.960 . S
H798 C790 0.930 . S
H799 C791 0.929 . S
H800 C808 0.929 . S
H801 C810 0.930 . S
H802 C812 0.930 . S
H803 C815 0.929 . S
H804 C818 0.930 . S
H805 C820 0.960 . S
H806 C820 0.960 . S
H807 C820 0.960 . S
C808 H800 0.929 . S
C808 C809 1.377 . S
C808 C810 1.384 . S
C809 C808 1.377 . S
C809 C815 1.390 . S
C810 H801 0.930 . S
C810 C808 1.384 . S
C810 C811 1.372 . S
C811 C810 1.372 . S
C811 C812 1.400 . S
C811 C816 1.490 . S
C812 H802 0.930 . S
C812 C811 1.400 . S
C812 C815 1.386 . S
H813 C829 0.930 . S
H814 C830 0.931 . S
C815 H803 0.929 . S
C815 C809 1.390 . S
C815 C812 1.386 . S
C816 C811 1.490 . S
C816 C818 1.395 . S
C816 C819 1.403 . S
H817 C823 0.930 . S
C818 H804 0.930 . S
C818 C816 1.395 . S
C818 C821 1.403 . S
C819 C816 1.403 . S
C819 C820 1.524 . S
C819 C823 1.400 . S
C820 H805 0.960 . S
C820 H806 0.960 . S
C820 H807 0.960 . S
C820 C819 1.524 . S
C821 C818 1.403 . S
C821 C822 1.392 . S
C821 C825 1.495 . S
C822 C821 1.392 . S
C822 C823 1.385 . S
C822 C824 1.478 . S
C823 H817 0.930 . S
C823 C819 1.400 . S
C823 C822 1.385 . S
C824 C822 1.478 . S
C824 C826 1.381 . S
C824 C830 1.383 . S
C825 C821 1.495 . S
C825 H831 0.959 . S
C825 H832 0.961 . S
C825 H833 0.960 . S
C826 C824 1.381 . S
C826 C827 1.394 . S
C826 H834 0.930 . S
C827 C826 1.394 . S
C827 C828 1.383 . S
C827 H835 0.929 . S
C828 C827 1.383 . S
C828 C829 1.377 . S
C829 H813 0.930 . S
C829 C828 1.377 . S
C829 C830 1.379 . S
C830 H814 0.931 . S
C830 C824 1.383 . S
C830 C829 1.379 . S
H831 C825 0.959 . S
H832 C825 0.961 . S
H833 C825 0.960 . S
H834 C826 0.930 . S
H835 C827 0.929 . S
H836 C844 0.929 . S
H837 C846 0.930 . S
H838 C848 0.930 . S
H839 C851 0.929 . S
H840 C854 0.930 . S
H841 C856 0.960 . S
H842 C856 0.960 . S
H843 C856 0.960 . S
C844 H836 0.929 . S
C844 C845 1.377 . S
C844 C846 1.384 . S
C845 C844 1.377 . S
C845 C851 1.390 . S
C846 H837 0.930 . S
C846 C844 1.384 . S
C846 C847 1.372 . S
C847 C846 1.372 . S
C847 C848 1.400 . S
C847 C852 1.490 . S
C848 H838 0.930 . S
C848 C847 1.400 . S
C848 C851 1.386 . S
H849 C865 0.930 . S
H850 C866 0.931 . S
C851 H839 0.929 . S
C851 C845 1.390 . S
C851 C848 1.386 . S
C852 C847 1.490 . S
C852 C854 1.395 . S
C852 C855 1.403 . S
H853 C859 0.930 . S
C854 H840 0.930 . S
C854 C852 1.395 . S
C854 C857 1.403 . S
C855 C852 1.403 . S
C855 C856 1.524 . S
C855 C859 1.400 . S
C856 H841 0.960 . S
C856 H842 0.960 . S
C856 H843 0.960 . S
C856 C855 1.524 . S
C857 C854 1.403 . S
C857 C858 1.392 . S
C857 C861 1.495 . S
C858 C857 1.392 . S
C858 C859 1.385 . S
C858 C860 1.478 . S
C859 H853 0.930 . S
C859 C855 1.400 . S
C859 C858 1.385 . S
C860 C858 1.478 . S
C860 C862 1.381 . S
C860 C866 1.383 . S
C861 C857 1.495 . S
C861 H867 0.959 . S
C861 H868 0.961 . S
C861 H869 0.960 . S
C862 C860 1.381 . S
C862 C863 1.394 . S
C862 H870 0.930 . S
C863 C862 1.394 . S
C863 C864 1.383 . S
C863 H871 0.929 . S
C864 C863 1.383 . S
C864 C865 1.377 . S
C865 H849 0.930 . S
C865 C864 1.377 . S
C865 C866 1.379 . S
C866 H850 0.931 . S
C866 C860 1.383 . S
C866 C865 1.379 . S
H867 C861 0.959 . S
H868 C861 0.961 . S
H869 C861 0.960 . S
H870 C862 0.930 . S
H871 C863 0.929 . S
H872 C880 0.929 . S
H873 C882 0.930 . S
H874 C884 0.930 . S
H875 C887 0.929 . S
H876 C890 0.930 . S
H877 C892 0.960 . S
H878 C892 0.960 . S
H879 C892 0.960 . S
C880 H872 0.929 . S
C880 C881 1.377 . S
C880 C882 1.384 . S
C881 C880 1.377 . S
C881 C887 1.390 . S
C882 H873 0.930 . S
C882 C880 1.384 . S
C882 C883 1.372 . S
C883 C882 1.372 . S
C883 C884 1.400 . S
C883 C888 1.490 . S
C884 H874 0.930 . S
C884 C883 1.400 . S
C884 C887 1.386 . S
H885 C901 0.930 . S
H886 C902 0.931 . S
C887 H875 0.929 . S
C887 C881 1.390 . S
C887 C884 1.386 . S
C888 C883 1.490 . S
C888 C890 1.395 . S
C888 C891 1.403 . S
H889 C895 0.930 . S
C890 H876 0.930 . S
C890 C888 1.395 . S
C890 C893 1.403 . S
C891 C888 1.403 . S
C891 C892 1.524 . S
C891 C895 1.400 . S
C892 H877 0.960 . S
C892 H878 0.960 . S
C892 H879 0.960 . S
C892 C891 1.524 . S
C893 C890 1.403 . S
C893 C894 1.392 . S
C893 C897 1.495 . S
C894 C893 1.392 . S
C894 C895 1.385 . S
C894 C896 1.478 . S
C895 H889 0.930 . S
C895 C891 1.400 . S
C895 C894 1.385 . S
C896 C894 1.478 . S
C896 C898 1.381 . S
C896 C902 1.383 . S
C897 C893 1.495 . S
C897 H903 0.959 . S
C897 H904 0.961 . S
C897 H905 0.960 . S
C898 C896 1.381 . S
C898 C899 1.394 . S
C898 H906 0.930 . S
C899 C898 1.394 . S
C899 C900 1.383 . S
C899 H907 0.929 . S
C900 C899 1.383 . S
C900 C901 1.377 . S
C901 H885 0.930 . S
C901 C900 1.377 . S
C901 C902 1.379 . S
C902 H886 0.931 . S
C902 C896 1.383 . S
C902 C901 1.379 . S
H903 C897 0.959 . S
H904 C897 0.961 . S
H905 C897 0.960 . S
H906 C898 0.930 . S
H907 C899 0.929 . S
H908 C916 0.929 . S
H909 C918 0.930 . S
H910 C920 0.930 . S
H911 C923 0.929 . S
H912 C926 0.930 . S
H913 C928 0.960 . S
H914 C928 0.960 . S
H915 C928 0.960 . S
C916 H908 0.929 . S
C916 C917 1.377 . S
C916 C918 1.384 . S
C917 C916 1.377 . S
C917 C923 1.390 . S
C918 H909 0.930 . S
C918 C916 1.384 . S
C918 C919 1.372 . S
C919 C918 1.372 . S
C919 C920 1.400 . S
C919 C924 1.490 . S
C920 H910 0.930 . S
C920 C919 1.400 . S
C920 C923 1.386 . S
H921 C937 0.930 . S
H922 C938 0.931 . S
C923 H911 0.929 . S
C923 C917 1.390 . S
C923 C920 1.386 . S
C924 C919 1.490 . S
C924 C926 1.395 . S
C924 C927 1.403 . S
H925 C931 0.930 . S
C926 H912 0.930 . S
C926 C924 1.395 . S
C926 C929 1.403 . S
C927 C924 1.403 . S
C927 C928 1.524 . S
C927 C931 1.400 . S
C928 H913 0.960 . S
C928 H914 0.960 . S
C928 H915 0.960 . S
C928 C927 1.524 . S
C929 C926 1.403 . S
C929 C930 1.392 . S
C929 C933 1.495 . S
C930 C929 1.392 . S
C930 C931 1.385 . S
C930 C932 1.478 . S
C931 H925 0.930 . S
C931 C927 1.400 . S
C931 C930 1.385 . S
C932 C930 1.478 . S
C932 C934 1.381 . S
C932 C938 1.383 . S
C933 C929 1.495 . S
C933 H939 0.959 . S
C933 H940 0.961 . S
C933 H941 0.960 . S
C934 C932 1.381 . S
C934 C935 1.394 . S
C934 H942 0.930 . S
C935 C934 1.394 . S
C935 C936 1.383 . S
C935 H943 0.929 . S
C936 C935 1.383 . S
C936 C937 1.377 . S
C937 H921 0.930 . S
C937 C936 1.377 . S
C937 C938 1.379 . S
C938 H922 0.931 . S
C938 C932 1.383 . S
C938 C937 1.379 . S
H939 C933 0.959 . S
H940 C933 0.961 . S
H941 C933 0.960 . S
H942 C934 0.930 . S
H943 C935 0.929 . S
H944 C952 0.929 . S
H945 C954 0.930 . S
H946 C956 0.930 . S
H947 C959 0.929 . S
H948 C962 0.930 . S
H949 C964 0.960 . S
H950 C964 0.960 . S
H951 C964 0.960 . S
C952 H944 0.929 . S
C952 C953 1.377 . S
C952 C954 1.384 . S
C953 C952 1.377 . S
C953 C959 1.390 . S
C954 H945 0.930 . S
C954 C952 1.384 . S
C954 C955 1.372 . S
C955 C954 1.372 . S
C955 C956 1.400 . S
C955 C960 1.490 . S
C956 H946 0.930 . S
C956 C955 1.400 . S
C956 C959 1.386 . S
H957 C973 0.930 . S
H958 C974 0.931 . S
C959 H947 0.929 . S
C959 C953 1.390 . S
C959 C956 1.386 . S
C960 C955 1.490 . S
C960 C962 1.395 . S
C960 C963 1.403 . S
H961 C967 0.930 . S
C962 H948 0.930 . S
C962 C960 1.395 . S
C962 C965 1.403 . S
C963 C960 1.403 . S
C963 C964 1.524 . S
C963 C967 1.400 . S
C964 H949 0.960 . S
C964 H950 0.960 . S
C964 H951 0.960 . S
C964 C963 1.524 . S
C965 C962 1.403 . S
C965 C966 1.392 . S
C965 C969 1.495 . S
C966 C965 1.392 . S
C966 C967 1.385 . S
C966 C968 1.478 . S
C967 H961 0.930 . S
C967 C963 1.400 . S
C967 C966 1.385 . S
C968 C966 1.478 . S
C968 C970 1.381 . S
C968 C974 1.383 . S
C969 C965 1.495 . S
C969 H975 0.959 . S
C969 H976 0.961 . S
C969 H977 0.960 . S
C970 C968 1.381 . S
C970 C971 1.394 . S
C970 H978 0.930 . S
C971 C970 1.394 . S
C971 C972 1.383 . S
C971 H979 0.929 . S
C972 C971 1.383 . S
C972 C973 1.377 . S
C973 H957 0.930 . S
C973 C972 1.377 . S
C973 C974 1.379 . S
C974 H958 0.931 . S
C974 C968 1.383 . S
C974 C973 1.379 . S
H975 C969 0.959 . S
H976 C969 0.961 . S
H977 C969 0.960 . S
H978 C970 0.930 . S
H979 C971 0.929 . S
H980 C988 0.929 . S
H981 C990 0.930 . S
H982 C992 0.930 . S
H983 C995 0.929 . S
H984 C998 0.930 . S
H985 C1000 0.960 . S
H986 C1000 0.960 . S
H987 C1000 0.960 . S
C988 H980 0.929 . S
C988 C989 1.377 . S
C988 C990 1.384 . S
C989 C988 1.377 . S
C989 C995 1.390 . S
C990 H981 0.930 . S
C990 C988 1.384 . S
C990 C991 1.372 . S
C991 C990 1.372 . S
C991 C992 1.400 . S
C991 C996 1.490 . S
C992 H982 0.930 . S
C992 C991 1.400 . S
C992 C995 1.386 . S
H993 C1009 0.930 . S
H994 C1010 0.931 . S
C995 H983 0.929 . S
C995 C989 1.390 . S
C995 C992 1.386 . S
C996 C991 1.490 . S
C996 C998 1.395 . S
C996 C999 1.403 . S
H997 C1003 0.930 . S
C998 H984 0.930 . S
C998 C996 1.395 . S
C998 C1001 1.403 . S
C999 C996 1.403 . S
C999 C1000 1.524 . S
C999 C1003 1.400 . S
C1000 H985 0.960 . S
C1000 H986 0.960 . S
C1000 H987 0.960 . S
C1000 C999 1.524 . S
C1001 C998 1.403 . S
C1001 C1002 1.392 . S
C1001 C1005 1.495 . S
C1002 C1001 1.392 . S
C1002 C1003 1.385 . S
C1002 C1004 1.478 . S
C1003 H997 0.930 . S
C1003 C999 1.400 . S
C1003 C1002 1.385 . S
C1004 C1002 1.478 . S
C1004 C1006 1.381 . S
C1004 C1010 1.383 . S
C1005 C1001 1.495 . S
C1005 H1011 0.959 . S
C1005 H1012 0.961 . S
C1005 H1013 0.960 . S
C1006 C1004 1.381 . S
C1006 C1007 1.394 . S
C1006 H1014 0.930 . S
C1007 C1006 1.394 . S
C1007 C1008 1.383 . S
C1007 H1015 0.929 . S
C1008 C1007 1.383 . S
C1008 C1009 1.377 . S
C1009 H993 0.930 . S
C1009 C1008 1.377 . S
C1009 C1010 1.379 . S
C1010 H994 0.931 . S
C1010 C1004 1.383 . S
C1010 C1009 1.379 . S
H1011 C1005 0.959 . S
H1012 C1005 0.961 . S
H1013 C1005 0.960 . S
H1014 C1006 0.930 . S
H1015 C1007 0.929 . S
H1016 C1024 0.929 . S
H1017 C1026 0.930 . S
H1018 C1028 0.930 . S
H1019 C1031 0.929 . S
H1020 C1034 0.930 . S
H1021 C1036 0.960 . S
H1022 C1036 0.960 . S
H1023 C1036 0.960 . S
C1024 H1016 0.929 . S
C1024 C1025 1.377 . S
C1024 C1026 1.384 . S
C1025 C1024 1.377 . S
C1025 C1031 1.390 . S
C1026 H1017 0.930 . S
C1026 C1024 1.384 . S
C1026 C1027 1.372 . S
C1027 C1026 1.372 . S
C1027 C1028 1.400 . S
C1027 C1032 1.490 . S
C1028 H1018 0.930 . S
C1028 C1027 1.400 . S
C1028 C1031 1.386 . S
H1029 C1045 0.930 . S
H1030 C1046 0.931 . S
C1031 H1019 0.929 . S
C1031 C1025 1.390 . S
C1031 C1028 1.386 . S
C1032 C1027 1.490 . S
C1032 C1034 1.395 . S
C1032 C1035 1.403 . S
H1033 C1039 0.930 . S
C1034 H1020 0.930 . S
C1034 C1032 1.395 . S
C1034 C1037 1.403 . S
C1035 C1032 1.403 . S
C1035 C1036 1.524 . S
C1035 C1039 1.400 . S
C1036 H1021 0.960 . S
C1036 H1022 0.960 . S
C1036 H1023 0.960 . S
C1036 C1035 1.524 . S
C1037 C1034 1.403 . S
C1037 C1038 1.392 . S
C1037 C1041 1.495 . S
C1038 C1037 1.392 . S
C1038 C1039 1.385 . S
C1038 C1040 1.478 . S
C1039 H1033 0.930 . S
C1039 C1035 1.400 . S
C1039 C1038 1.385 . S
C1040 C1038 1.478 . S
C1040 C1042 1.381 . S
C1040 C1046 1.383 . S
C1041 C1037 1.495 . S
C1041 H1047 0.959 . S
C1041 H1048 0.961 . S
C1041 H1049 0.960 . S
C1042 C1040 1.381 . S
C1042 C1043 1.394 . S
C1042 H1050 0.930 . S
C1043 C1042 1.394 . S
C1043 C1044 1.383 . S
C1043 H1051 0.929 . S
C1044 C1043 1.383 . S
C1044 C1045 1.377 . S
C1045 H1029 0.930 . S
C1045 C1044 1.377 . S
C1045 C1046 1.379 . S
C1046 H1030 0.931 . S
C1046 C1040 1.383 . S
C1046 C1045 1.379 . S
H1047 C1041 0.959 . S
H1048 C1041 0.961 . S
H1049 C1041 0.960 . S
H1050 C1042 0.930 . S
H1051 C1043 0.929 . S
H1052 C1060 0.929 . S
H1053 C1062 0.930 . S
H1054 C1064 0.930 . S
H1055 C1067 0.929 . S
H1056 C1070 0.930 . S
H1057 C1072 0.960 . S
H1058 C1072 0.960 . S
H1059 C1072 0.960 . S
C1060 H1052 0.929 . S
C1060 C1061 1.377 . S
C1060 C1062 1.384 . S
C1061 C1060 1.377 . S
C1061 C1067 1.390 . S
C1062 H1053 0.930 . S
C1062 C1060 1.384 . S
C1062 C1063 1.372 . S
C1063 C1062 1.372 . S
C1063 C1064 1.400 . S
C1063 C1068 1.490 . S
C1064 H1054 0.930 . S
C1064 C1063 1.400 . S
C1064 C1067 1.386 . S
H1065 C1081 0.930 . S
H1066 C1082 0.931 . S
C1067 H1055 0.929 . S
C1067 C1061 1.390 . S
C1067 C1064 1.386 . S
C1068 C1063 1.490 . S
C1068 C1070 1.395 . S
C1068 C1071 1.403 . S
H1069 C1075 0.930 . S
C1070 H1056 0.930 . S
C1070 C1068 1.395 . S
C1070 C1073 1.403 . S
C1071 C1068 1.403 . S
C1071 C1072 1.524 . S
C1071 C1075 1.400 . S
C1072 H1057 0.960 . S
C1072 H1058 0.960 . S
C1072 H1059 0.960 . S
C1072 C1071 1.524 . S
C1073 C1070 1.403 . S
C1073 C1074 1.392 . S
C1073 C1077 1.495 . S
C1074 C1073 1.392 . S
C1074 C1075 1.385 . S
C1074 C1076 1.478 . S
C1075 H1069 0.930 . S
C1075 C1071 1.400 . S
C1075 C1074 1.385 . S
C1076 C1074 1.478 . S
C1076 C1078 1.381 . S
C1076 C1082 1.383 . S
C1077 C1073 1.495 . S
C1077 H1083 0.959 . S
C1077 H1084 0.961 . S
C1077 H1085 0.960 . S
C1078 C1076 1.381 . S
C1078 C1079 1.394 . S
C1078 H1086 0.930 . S
C1079 C1078 1.394 . S
C1079 C1080 1.383 . S
C1079 H1087 0.929 . S
C1080 C1079 1.383 . S
C1080 C1081 1.377 . S
C1081 H1065 0.930 . S
C1081 C1080 1.377 . S
C1081 C1082 1.379 . S
C1082 H1066 0.931 . S
C1082 C1076 1.383 . S
C1082 C1081 1.379 . S
H1083 C1077 0.959 . S
H1084 C1077 0.961 . S
H1085 C1077 0.960 . S
H1086 C1078 0.930 . S
H1087 C1079 0.929 . S
H1088 C1096 0.929 . S
H1089 C1098 0.930 . S
H1090 C1100 0.930 . S
H1091 C1103 0.929 . S
H1092 C1106 0.930 . S
H1093 C1108 0.960 . S
H1094 C1108 0.960 . S
H1095 C1108 0.960 . S
C1096 H1088 0.929 . S
C1096 C1097 1.377 . S
C1096 C1098 1.384 . S
C1097 C1096 1.377 . S
C1097 C1103 1.390 . S
C1098 H1089 0.930 . S
C1098 C1096 1.384 . S
C1098 C1099 1.372 . S
C1099 C1098 1.372 . S
C1099 C1100 1.400 . S
C1099 C1104 1.490 . S
C1100 H1090 0.930 . S
C1100 C1099 1.400 . S
C1100 C1103 1.386 . S
H1101 C1117 0.930 . S
H1102 C1118 0.931 . S
C1103 H1091 0.929 . S
C1103 C1097 1.390 . S
C1103 C1100 1.386 . S
C1104 C1099 1.490 . S
C1104 C1106 1.395 . S
C1104 C1107 1.403 . S
H1105 C1111 0.930 . S
C1106 H1092 0.930 . S
C1106 C1104 1.395 . S
C1106 C1109 1.403 . S
C1107 C1104 1.403 . S
C1107 C1108 1.524 . S
C1107 C1111 1.400 . S
C1108 H1093 0.960 . S
C1108 H1094 0.960 . S
C1108 H1095 0.960 . S
C1108 C1107 1.524 . S
C1109 C1106 1.403 . S
C1109 C1110 1.392 . S
C1109 C1113 1.495 . S
C1110 C1109 1.392 . S
C1110 C1111 1.385 . S
C1110 C1112 1.478 . S
C1111 H1105 0.930 . S
C1111 C1107 1.400 . S
C1111 C1110 1.385 . S
C1112 C1110 1.478 . S
C1112 C1114 1.381 . S
C1112 C1118 1.383 . S
C1113 C1109 1.495 . S
C1113 H1119 0.959 . S
C1113 H1120 0.961 . S
C1113 H1121 0.960 . S
C1114 C1112 1.381 . S
C1114 C1115 1.394 . S
C1114 H1122 0.930 . S
C1115 C1114 1.394 . S
C1115 C1116 1.383 . S
C1115 H1123 0.929 . S
C1116 C1115 1.383 . S
C1116 C1117 1.377 . S
C1117 H1101 0.930 . S
C1117 C1116 1.377 . S
C1117 C1118 1.379 . S
C1118 H1102 0.931 . S
C1118 C1112 1.383 . S
C1118 C1117 1.379 . S
H1119 C1113 0.959 . S
H1120 C1113 0.961 . S
H1121 C1113 0.960 . S
H1122 C1114 0.930 . S
H1123 C1115 0.929 . S
H1124 C1132 0.929 . S
H1125 C1134 0.930 . S
H1126 C1136 0.930 . S
H1127 C1139 0.929 . S
H1128 C1142 0.930 . S
H1129 C1144 0.960 . S
H1130 C1144 0.960 . S
H1131 C1144 0.960 . S
C1132 H1124 0.929 . S
C1132 C1133 1.377 . S
C1132 C1134 1.384 . S
C1133 C1132 1.377 . S
C1133 C1139 1.390 . S
C1134 H1125 0.930 . S
C1134 C1132 1.384 . S
C1134 C1135 1.372 . S
C1135 C1134 1.372 . S
C1135 C1136 1.400 . S
C1135 C1140 1.490 . S
C1136 H1126 0.930 . S
C1136 C1135 1.400 . S
C1136 C1139 1.386 . S
H1137 C1153 0.930 . S
H1138 C1154 0.931 . S
C1139 H1127 0.929 . S
C1139 C1133 1.390 . S
C1139 C1136 1.386 . S
C1140 C1135 1.490 . S
C1140 C1142 1.395 . S
C1140 C1143 1.403 . S
H1141 C1147 0.930 . S
C1142 H1128 0.930 . S
C1142 C1140 1.395 . S
C1142 C1145 1.403 . S
C1143 C1140 1.403 . S
C1143 C1144 1.524 . S
C1143 C1147 1.400 . S
C1144 H1129 0.960 . S
C1144 H1130 0.960 . S
C1144 H1131 0.960 . S
C1144 C1143 1.524 . S
C1145 C1142 1.403 . S
C1145 C1146 1.392 . S
C1145 C1149 1.495 . S
C1146 C1145 1.392 . S
C1146 C1147 1.385 . S
C1146 C1148 1.478 . S
C1147 H1141 0.930 . S
C1147 C1143 1.400 . S
C1147 C1146 1.385 . S
C1148 C1146 1.478 . S
C1148 C1150 1.381 . S
C1148 C1154 1.383 . S
C1149 C1145 1.495 . S
C1149 H1155 0.959 . S
C1149 H1156 0.961 . S
C1149 H1157 0.960 . S
C1150 C1148 1.381 . S
C1150 C1151 1.394 . S
C1150 H1158 0.930 . S
C1151 C1150 1.394 . S
C1151 C1152 1.383 . S
C1151 H1159 0.929 . S
C1152 C1151 1.383 . S
C1152 C1153 1.377 . S
C1153 H1137 0.930 . S
C1153 C1152 1.377 . S
C1153 C1154 1.379 . S
C1154 H1138 0.931 . S
C1154 C1148 1.383 . S
C1154 C1153 1.379 . S
H1155 C1149 0.959 . S
H1156 C1149 0.961 . S
H1157 C1149 0.960 . S
H1158 C1150 0.930 . S
H1159 C1151 0.929 . S
H1160 C1168 0.929 . S
H1161 C1170 0.930 . S
H1162 C1172 0.930 . S
H1163 C1175 0.929 . S
H1164 C1178 0.930 . S
H1165 C1180 0.960 . S
H1166 C1180 0.960 . S
H1167 C1180 0.960 . S
C1168 H1160 0.929 . S
C1168 C1169 1.377 . S
C1168 C1170 1.384 . S
C1169 C1168 1.377 . S
C1169 C1175 1.390 . S
C1170 H1161 0.930 . S
C1170 C1168 1.384 . S
C1170 C1171 1.372 . S
C1171 C1170 1.372 . S
C1171 C1172 1.400 . S
C1171 C1176 1.490 . S
C1172 H1162 0.930 . S
C1172 C1171 1.400 . S
C1172 C1175 1.386 . S
H1173 C1189 0.930 . S
H1174 C1190 0.931 . S
C1175 H1163 0.929 . S
C1175 C1169 1.390 . S
C1175 C1172 1.386 . S
C1176 C1171 1.490 . S
C1176 C1178 1.395 . S
C1176 C1179 1.403 . S
H1177 C1183 0.930 . S
C1178 H1164 0.930 . S
C1178 C1176 1.395 . S
C1178 C1181 1.403 . S
C1179 C1176 1.403 . S
C1179 C1180 1.524 . S
C1179 C1183 1.400 . S
C1180 H1165 0.960 . S
C1180 H1166 0.960 . S
C1180 H1167 0.960 . S
C1180 C1179 1.524 . S
C1181 C1178 1.403 . S
C1181 C1182 1.392 . S
C1181 C1185 1.495 . S
C1182 C1181 1.392 . S
C1182 C1183 1.385 . S
C1182 C1184 1.478 . S
C1183 H1177 0.930 . S
C1183 C1179 1.400 . S
C1183 C1182 1.385 . S
C1184 C1182 1.478 . S
C1184 C1186 1.381 . S
C1184 C1190 1.383 . S
C1185 C1181 1.495 . S
C1185 H1191 0.959 . S
C1185 H1192 0.961 . S
C1185 H1193 0.960 . S
C1186 C1184 1.381 . S
C1186 C1187 1.394 . S
C1186 H1194 0.930 . S
C1187 C1186 1.394 . S
C1187 C1188 1.383 . S
C1187 H1195 0.929 . S
C1188 C1187 1.383 . S
C1188 C1189 1.377 . S
C1189 H1173 0.930 . S
C1189 C1188 1.377 . S
C1189 C1190 1.379 . S
C1190 H1174 0.931 . S
C1190 C1184 1.383 . S
C1190 C1189 1.379 . S
H1191 C1185 0.959 . S
H1192 C1185 0.961 . S
H1193 C1185 0.960 . S
H1194 C1186 0.930 . S
H1195 C1187 0.929 . S
H1196 C1204 0.929 . S
H1197 C1206 0.930 . S
H1198 C1208 0.930 . S
H1199 C1211 0.929 . S
H1200 C1214 0.930 . S
H1201 C1216 0.960 . S
H1202 C1216 0.960 . S
H1203 C1216 0.960 . S
C1204 H1196 0.929 . S
C1204 C1205 1.377 . S
C1204 C1206 1.384 . S
C1205 C1204 1.377 . S
C1205 C1211 1.390 . S
C1206 H1197 0.930 . S
C1206 C1204 1.384 . S
C1206 C1207 1.372 . S
C1207 C1206 1.372 . S
C1207 C1208 1.400 . S
C1207 C1212 1.490 . S
C1208 H1198 0.930 . S
C1208 C1207 1.400 . S
C1208 C1211 1.386 . S
H1209 C1225 0.930 . S
H1210 C1226 0.931 . S
C1211 H1199 0.929 . S
C1211 C1205 1.390 . S
C1211 C1208 1.386 . S
C1212 C1207 1.490 . S
C1212 C1214 1.395 . S
C1212 C1215 1.403 . S
H1213 C1219 0.930 . S
C1214 H1200 0.930 . S
C1214 C1212 1.395 . S
C1214 C1217 1.403 . S
C1215 C1212 1.403 . S
C1215 C1216 1.524 . S
C1215 C1219 1.400 . S
C1216 H1201 0.960 . S
C1216 H1202 0.960 . S
C1216 H1203 0.960 . S
C1216 C1215 1.524 . S
C1217 C1214 1.403 . S
C1217 C1218 1.392 . S
C1217 C1221 1.495 . S
C1218 C1217 1.392 . S
C1218 C1219 1.385 . S
C1218 C1220 1.478 . S
C1219 H1213 0.930 . S
C1219 C1215 1.400 . S
C1219 C1218 1.385 . S
C1220 C1218 1.478 . S
C1220 C1222 1.381 . S
C1220 C1226 1.383 . S
C1221 C1217 1.495 . S
C1221 H1227 0.959 . S
C1221 H1228 0.961 . S
C1221 H1229 0.960 . S
C1222 C1220 1.381 . S
C1222 C1223 1.394 . S
C1222 H1230 0.930 . S
C1223 C1222 1.394 . S
C1223 C1224 1.383 . S
C1223 H1231 0.929 . S
C1224 C1223 1.383 . S
C1224 C1225 1.377 . S
C1225 H1209 0.930 . S
C1225 C1224 1.377 . S
C1225 C1226 1.379 . S
C1226 H1210 0.931 . S
C1226 C1220 1.383 . S
C1226 C1225 1.379 . S
H1227 C1221 0.959 . S
H1228 C1221 0.961 . S
H1229 C1221 0.960 . S
H1230 C1222 0.930 . S
H1231 C1223 0.929 . S
H1232 C1240 0.929 . S
H1233 C1242 0.930 . S
H1234 C1244 0.930 . S
H1235 C1247 0.929 . S
H1236 C1250 0.930 . S
H1237 C1252 0.960 . S
H1238 C1252 0.960 . S
H1239 C1252 0.960 . S
C1240 H1232 0.929 . S
C1240 C1241 1.377 . S
C1240 C1242 1.384 . S
C1241 C1240 1.377 . S
C1241 C1247 1.390 . S
C1242 H1233 0.930 . S
C1242 C1240 1.384 . S
C1242 C1243 1.372 . S
C1243 C1242 1.372 . S
C1243 C1244 1.400 . S
C1243 C1248 1.490 . S
C1244 H1234 0.930 . S
C1244 C1243 1.400 . S
C1244 C1247 1.386 . S
H1245 C1261 0.930 . S
H1246 C1262 0.931 . S
C1247 H1235 0.929 . S
C1247 C1241 1.390 . S
C1247 C1244 1.386 . S
C1248 C1243 1.490 . S
C1248 C1250 1.395 . S
C1248 C1251 1.403 . S
H1249 C1255 0.930 . S
C1250 H1236 0.930 . S
C1250 C1248 1.395 . S
C1250 C1253 1.403 . S
C1251 C1248 1.403 . S
C1251 C1252 1.524 . S
C1251 C1255 1.400 . S
C1252 H1237 0.960 . S
C1252 H1238 0.960 . S
C1252 H1239 0.960 . S
C1252 C1251 1.524 . S
C1253 C1250 1.403 . S
C1253 C1254 1.392 . S
C1253 C1257 1.495 . S
C1254 C1253 1.392 . S
C1254 C1255 1.385 . S
C1254 C1256 1.478 . S
C1255 H1249 0.930 . S
C1255 C1251 1.400 . S
C1255 C1254 1.385 . S
C1256 C1254 1.478 . S
C1256 C1258 1.381 . S
C1256 C1262 1.383 . S
C1257 C1253 1.495 . S
C1257 H1263 0.959 . S
C1257 H1264 0.961 . S
C1257 H1265 0.960 . S
C1258 C1256 1.381 . S
C1258 C1259 1.394 . S
C1258 H1266 0.930 . S
C1259 C1258 1.394 . S
C1259 C1260 1.383 . S
C1259 H1267 0.929 . S
C1260 C1259 1.383 . S
C1260 C1261 1.377 . S
C1261 H1245 0.930 . S
C1261 C1260 1.377 . S
C1261 C1262 1.379 . S
C1262 H1246 0.931 . S
C1262 C1256 1.383 . S
C1262 C1261 1.379 . S
H1263 C1257 0.959 . S
H1264 C1257 0.961 . S
H1265 C1257 0.960 . S
H1266 C1258 0.930 . S
H1267 C1259 0.929 . S
H1268 C1276 0.929 . S
H1269 C1278 0.930 . S
H1270 C1280 0.930 . S
H1271 C1283 0.929 . S
H1272 C1286 0.930 . S
H1273 C1288 0.960 . S
H1274 C1288 0.960 . S
H1275 C1288 0.960 . S
C1276 H1268 0.929 . S
C1276 C1277 1.377 . S
C1276 C1278 1.384 . S
C1277 C1276 1.377 . S
C1277 C1283 1.390 . S
C1278 H1269 0.930 . S
C1278 C1276 1.384 . S
C1278 C1279 1.372 . S
C1279 C1278 1.372 . S
C1279 C1280 1.400 . S
C1279 C1284 1.490 . S
C1280 H1270 0.930 . S
C1280 C1279 1.400 . S
C1280 C1283 1.386 . S
H1281 C1297 0.930 . S
H1282 C1298 0.931 . S
C1283 H1271 0.929 . S
C1283 C1277 1.390 . S
C1283 C1280 1.386 . S
C1284 C1279 1.490 . S
C1284 C1286 1.395 . S
C1284 C1287 1.403 . S
H1285 C1291 0.930 . S
C1286 H1272 0.930 . S
C1286 C1284 1.395 . S
C1286 C1289 1.403 . S
C1287 C1284 1.403 . S
C1287 C1288 1.524 . S
C1287 C1291 1.400 . S
C1288 H1273 0.960 . S
C1288 H1274 0.960 . S
C1288 H1275 0.960 . S
C1288 C1287 1.524 . S
C1289 C1286 1.403 . S
C1289 C1290 1.392 . S
C1289 C1293 1.495 . S
C1290 C1289 1.392 . S
C1290 C1291 1.385 . S
C1290 C1292 1.478 . S
C1291 H1285 0.930 . S
C1291 C1287 1.400 . S
C1291 C1290 1.385 . S
C1292 C1290 1.478 . S
C1292 C1294 1.381 . S
C1292 C1298 1.383 . S
C1293 C1289 1.495 . S
C1293 H1299 0.959 . S
C1293 H1300 0.961 . S
C1293 H1301 0.960 . S
C1294 C1292 1.381 . S
C1294 C1295 1.394 . S
C1294 H1302 0.930 . S
C1295 C1294 1.394 . S
C1295 C1296 1.383 . S
C1295 H1303 0.929 . S
C1296 C1295 1.383 . S
C1296 C1297 1.377 . S
C1297 H1281 0.930 . S
C1297 C1296 1.377 . S
C1297 C1298 1.379 . S
C1298 H1282 0.931 . S
C1298 C1292 1.383 . S
C1298 C1297 1.379 . S
H1299 C1293 0.959 . S
H1300 C1293 0.961 . S
H1301 C1293 0.960 . S
H1302 C1294 0.930 . S
H1303 C1295 0.929 . S
H1304 C1312 0.929 . S
H1305 C1314 0.930 . S
H1306 C1316 0.930 . S
H1307 C1319 0.929 . S
H1308 C1322 0.930 . S
H1309 C1324 0.960 . S
H1310 C1324 0.960 . S
H1311 C1324 0.960 . S
C1312 H1304 0.929 . S
C1312 C1313 1.377 . S
C1312 C1314 1.384 . S
C1313 C1312 1.377 . S
C1313 C1319 1.390 . S
C1314 H1305 0.930 . S
C1314 C1312 1.384 . S
C1314 C1315 1.372 . S
C1315 C1314 1.372 . S
C1315 C1316 1.400 . S
C1315 C1320 1.490 . S
C1316 H1306 0.930 . S
C1316 C1315 1.400 . S
C1316 C1319 1.386 . S
H1317 C1333 0.930 . S
H1318 C1334 0.931 . S
C1319 H1307 0.929 . S
C1319 C1313 1.390 . S
C1319 C1316 1.386 . S
C1320 C1315 1.490 . S
C1320 C1322 1.395 . S
C1320 C1323 1.403 . S
H1321 C1327 0.930 . S
C1322 H1308 0.930 . S
C1322 C1320 1.395 . S
C1322 C1325 1.403 . S
C1323 C1320 1.403 . S
C1323 C1324 1.524 . S
C1323 C1327 1.400 . S
C1324 H1309 0.960 . S
C1324 H1310 0.960 . S
C1324 H1311 0.960 . S
C1324 C1323 1.524 . S
C1325 C1322 1.403 . S
C1325 C1326 1.392 . S
C1325 C1329 1.495 . S
C1326 C1325 1.392 . S
C1326 C1327 1.385 . S
C1326 C1328 1.478 . S
C1327 H1321 0.930 . S
C1327 C1323 1.400 . S
C1327 C1326 1.385 . S
C1328 C1326 1.478 . S
C1328 C1330 1.381 . S
C1328 C1334 1.383 . S
C1329 C1325 1.495 . S
C1329 H1335 0.959 . S
C1329 H1336 0.961 . S
C1329 H1337 0.960 . S
C1330 C1328 1.381 . S
C1330 C1331 1.394 . S
C1330 H1338 0.930 . S
C1331 C1330 1.394 . S
C1331 C1332 1.383 . S
C1331 H1339 0.929 . S
C1332 C1331 1.383 . S
C1332 C1333 1.377 . S
C1333 H1317 0.930 . S
C1333 C1332 1.377 . S
C1333 C1334 1.379 . S
C1334 H1318 0.931 . S
C1334 C1328 1.383 . S
C1334 C1333 1.379 . S
H1335 C1329 0.959 . S
H1336 C1329 0.961 . S
H1337 C1329 0.960 . S
H1338 C1330 0.930 . S
H1339 C1331 0.929 . S
H1340 C1348 0.929 . S
H1341 C1350 0.930 . S
H1342 C1352 0.930 . S
H1343 C1355 0.929 . S
H1344 C1358 0.930 . S
H1345 C1360 0.960 . S
H1346 C1360 0.960 . S
H1347 C1360 0.960 . S
C1348 H1340 0.929 . S
C1348 C1349 1.377 . S
C1348 C1350 1.384 . S
C1349 C1348 1.377 . S
C1349 C1355 1.390 . S
C1350 H1341 0.930 . S
C1350 C1348 1.384 . S
C1350 C1351 1.372 . S
C1351 C1350 1.372 . S
C1351 C1352 1.400 . S
C1351 C1356 1.490 . S
C1352 H1342 0.930 . S
C1352 C1351 1.400 . S
C1352 C1355 1.386 . S
H1353 C1369 0.930 . S
H1354 C1370 0.931 . S
C1355 H1343 0.929 . S
C1355 C1349 1.390 . S
C1355 C1352 1.386 . S
C1356 C1351 1.490 . S
C1356 C1358 1.395 . S
C1356 C1359 1.403 . S
H1357 C1363 0.930 . S
C1358 H1344 0.930 . S
C1358 C1356 1.395 . S
C1358 C1361 1.403 . S
C1359 C1356 1.403 . S
C1359 C1360 1.524 . S
C1359 C1363 1.400 . S
C1360 H1345 0.960 . S
C1360 H1346 0.960 . S
C1360 H1347 0.960 . S
C1360 C1359 1.524 . S
C1361 C1358 1.403 . S
C1361 C1362 1.392 . S
C1361 C1365 1.495 . S
C1362 C1361 1.392 . S
C1362 C1363 1.385 . S
C1362 C1364 1.478 . S
C1363 H1357 0.930 . S
C1363 C1359 1.400 . S
C1363 C1362 1.385 . S
C1364 C1362 1.478 . S
C1364 C1366 1.381 . S
C1364 C1370 1.383 . S
C1365 C1361 1.495 . S
C1365 H1371 0.959 . S
C1365 H1372 0.961 . S
C1365 H1373 0.960 . S
C1366 C1364 1.381 . S
C1366 C1367 1.394 . S
C1366 H1374 0.930 . S
C1367 C1366 1.394 . S
C1367 C1368 1.383 . S
C1367 H1375 0.929 . S
C1368 C1367 1.383 . S
C1368 C1369 1.377 . S
C1369 H1353 0.930 . S
C1369 C1368 1.377 . S
C1369 C1370 1.379 . S
C1370 H1354 0.931 . S
C1370 C1364 1.383 . S
C1370 C1369 1.379 . S
H1371 C1365 0.959 . S
H1372 C1365 0.961 . S
H1373 C1365 0.960 . S
H1374 C1366 0.930 . S
H1375 C1367 0.929 . S
H1376 C1384 0.929 . S
H1377 C1386 0.930 . S
H1378 C1388 0.930 . S
H1379 C1391 0.929 . S
H1380 C1394 0.930 . S
H1381 C1396 0.960 . S
H1382 C1396 0.960 . S
H1383 C1396 0.960 . S
C1384 H1376 0.929 . S
C1384 C1385 1.377 . S
C1384 C1386 1.384 . S
C1385 C1384 1.377 . S
C1385 C1391 1.390 . S
C1386 H1377 0.930 . S
C1386 C1384 1.384 . S
C1386 C1387 1.372 . S
C1387 C1386 1.372 . S
C1387 C1388 1.400 . S
C1387 C1392 1.490 . S
C1388 H1378 0.930 . S
C1388 C1387 1.400 . S
C1388 C1391 1.386 . S
H1389 C1405 0.930 . S
H1390 C1406 0.931 . S
C1391 H1379 0.929 . S
C1391 C1385 1.390 . S
C1391 C1388 1.386 . S
C1392 C1387 1.490 . S
C1392 C1394 1.395 . S
C1392 C1395 1.403 . S
H1393 C1399 0.930 . S
C1394 H1380 0.930 . S
C1394 C1392 1.395 . S
C1394 C1397 1.403 . S
C1395 C1392 1.403 . S
C1395 C1396 1.524 . S
C1395 C1399 1.400 . S
C1396 H1381 0.960 . S
C1396 H1382 0.960 . S
C1396 H1383 0.960 . S
C1396 C1395 1.524 . S
C1397 C1394 1.403 . S
C1397 C1398 1.392 . S
C1397 C1401 1.495 . S
C1398 C1397 1.392 . S
C1398 C1399 1.385 . S
C1398 C1400 1.478 . S
C1399 H1393 0.930 . S
C1399 C1395 1.400 . S
C1399 C1398 1.385 . S
C1400 C1398 1.478 . S
C1400 C1402 1.381 . S
C1400 C1406 1.383 . S
C1401 C1397 1.495 . S
C1401 H1407 0.959 . S
C1401 H1408 0.961 . S
C1401 H1409 0.960 . S
C1402 C1400 1.381 . S
C1402 C1403 1.394 . S
C1402 H1410 0.930 . S
C1403 C1402 1.394 . S
C1403 C1404 1.383 . S
C1403 H1411 0.929 . S
C1404 C1403 1.383 . S
C1404 C1405 1.377 . S
C1405 H1389 0.930 . S
C1405 C1404 1.377 . S
C1405 C1406 1.379 . S
C1406 H1390 0.931 . S
C1406 C1400 1.383 . S
C1406 C1405 1.379 . S
H1407 C1401 0.959 . S
H1408 C1401 0.961 . S
H1409 C1401 0.960 . S
H1410 C1402 0.930 . S
H1411 C1403 0.929 . S
H1412 C1420 0.929 . S
H1413 C1422 0.930 . S
H1414 C1424 0.930 . S
H1415 C1427 0.929 . S
H1416 C1430 0.930 . S
H1417 C1432 0.960 . S
H1418 C1432 0.960 . S
H1419 C1432 0.960 . S
C1420 H1412 0.929 . S
C1420 C1421 1.377 . S
C1420 C1422 1.384 . S
C1421 C1420 1.377 . S
C1421 C1427 1.390 . S
C1422 H1413 0.930 . S
C1422 C1420 1.384 . S
C1422 C1423 1.372 . S
C1423 C1422 1.372 . S
C1423 C1424 1.400 . S
C1423 C1428 1.490 . S
C1424 H1414 0.930 . S
C1424 C1423 1.400 . S
C1424 C1427 1.386 . S
H1425 C1441 0.930 . S
H1426 C1442 0.931 . S
C1427 H1415 0.929 . S
C1427 C1421 1.390 . S
C1427 C1424 1.386 . S
C1428 C1423 1.490 . S
C1428 C1430 1.395 . S
C1428 C1431 1.403 . S
H1429 C1435 0.930 . S
C1430 H1416 0.930 . S
C1430 C1428 1.395 . S
C1430 C1433 1.403 . S
C1431 C1428 1.403 . S
C1431 C1432 1.524 . S
C1431 C1435 1.400 . S
C1432 H1417 0.960 . S
C1432 H1418 0.960 . S
C1432 H1419 0.960 . S
C1432 C1431 1.524 . S
C1433 C1430 1.403 . S
C1433 C1434 1.392 . S
C1433 C1437 1.495 . S
C1434 C1433 1.392 . S
C1434 C1435 1.385 . S
C1434 C1436 1.478 . S
C1435 H1429 0.930 . S
C1435 C1431 1.400 . S
C1435 C1434 1.385 . S
C1436 C1434 1.478 . S
C1436 C1438 1.381 . S
C1436 C1442 1.383 . S
C1437 C1433 1.495 . S
C1437 H1443 0.959 . S
C1437 H1444 0.961 . S
C1437 H1445 0.960 . S
C1438 C1436 1.381 . S
C1438 C1439 1.394 . S
C1438 H1446 0.930 . S
C1439 C1438 1.394 . S
C1439 C1440 1.383 . S
C1439 H1447 0.929 . S
C1440 C1439 1.383 . S
C1440 C1441 1.377 . S
C1441 H1425 0.930 . S
C1441 C1440 1.377 . S
C1441 C1442 1.379 . S
C1442 H1426 0.931 . S
C1442 C1436 1.383 . S
C1442 C1441 1.379 . S
H1443 C1437 0.959 . S
H1444 C1437 0.961 . S
H1445 C1437 0.960 . S
H1446 C1438 0.930 . S
H1447 C1439 0.929 . S
H1448 C1456 0.929 . S
H1449 C1458 0.930 . S
H1450 C1460 0.930 . S
H1451 C1463 0.929 . S
H1452 C1466 0.930 . S
H1453 C1468 0.960 . S
H1454 C1468 0.960 . S
H1455 C1468 0.960 . S
C1456 H1448 0.929 . S
C1456 C1457 1.377 . S
C1456 C1458 1.384 . S
C1457 C1456 1.377 . S
C1457 C1463 1.390 . S
C1458 H1449 0.930 . S
C1458 C1456 1.384 . S
C1458 C1459 1.372 . S
C1459 C1458 1.372 . S
C1459 C1460 1.400 . S
C1459 C1464 1.490 . S
C1460 H1450 0.930 . S
C1460 C1459 1.400 . S
C1460 C1463 1.386 . S
H1461 C1477 0.930 . S
H1462 C1478 0.931 . S
C1463 H1451 0.929 . S
C1463 C1457 1.390 . S
C1463 C1460 1.386 . S
C1464 C1459 1.490 . S
C1464 C1466 1.395 . S
C1464 C1467 1.403 . S
H1465 C1471 0.930 . S
C1466 H1452 0.930 . S
C1466 C1464 1.395 . S
C1466 C1469 1.403 . S
C1467 C1464 1.403 . S
C1467 C1468 1.524 . S
C1467 C1471 1.400 . S
C1468 H1453 0.960 . S
C1468 H1454 0.960 . S
C1468 H1455 0.960 . S
C1468 C1467 1.524 . S
C1469 C1466 1.403 . S
C1469 C1470 1.392 . S
C1469 C1473 1.495 . S
C1470 C1469 1.392 . S
C1470 C1471 1.385 . S
C1470 C1472 1.478 . S
C1471 H1465 0.930 . S
C1471 C1467 1.400 . S
C1471 C1470 1.385 . S
C1472 C1470 1.478 . S
C1472 C1474 1.381 . S
C1472 C1478 1.383 . S
C1473 C1469 1.495 . S
C1473 H1479 0.959 . S
C1473 H1480 0.961 . S
C1473 H1481 0.960 . S
C1474 C1472 1.381 . S
C1474 C1475 1.394 . S
C1474 H1482 0.930 . S
C1475 C1474 1.394 . S
C1475 C1476 1.383 . S
C1475 H1483 0.929 . S
C1476 C1475 1.383 . S
C1476 C1477 1.377 . S
C1477 H1461 0.930 . S
C1477 C1476 1.377 . S
C1477 C1478 1.379 . S
C1478 H1462 0.931 . S
C1478 C1472 1.383 . S
C1478 C1477 1.379 . S
H1479 C1473 0.959 . S
H1480 C1473 0.961 . S
H1481 C1473 0.960 . S
H1482 C1474 0.930 . S
H1483 C1475 0.929 . S
H1484 C1492 0.929 . S
H1485 C1494 0.930 . S
H1486 C1496 0.930 . S
H1487 C1499 0.929 . S
H1488 C1502 0.930 . S
H1489 C1504 0.960 . S
H1490 C1504 0.960 . S
H1491 C1504 0.960 . S
C1492 H1484 0.929 . S
C1492 C1493 1.377 . S
C1492 C1494 1.384 . S
C1493 C1492 1.377 . S
C1493 C1499 1.390 . S
C1494 H1485 0.930 . S
C1494 C1492 1.384 . S
C1494 C1495 1.372 . S
C1495 C1494 1.372 . S
C1495 C1496 1.400 . S
C1495 C1500 1.490 . S
C1496 H1486 0.930 . S
C1496 C1495 1.400 . S
C1496 C1499 1.386 . S
H1497 C1513 0.930 . S
H1498 C1514 0.931 . S
C1499 H1487 0.929 . S
C1499 C1493 1.390 . S
C1499 C1496 1.386 . S
C1500 C1495 1.490 . S
C1500 C1502 1.395 . S
C1500 C1503 1.403 . S
H1501 C1507 0.930 . S
C1502 H1488 0.930 . S
C1502 C1500 1.395 . S
C1502 C1505 1.403 . S
C1503 C1500 1.403 . S
C1503 C1504 1.524 . S
C1503 C1507 1.400 . S
C1504 H1489 0.960 . S
C1504 H1490 0.960 . S
C1504 H1491 0.960 . S
C1504 C1503 1.524 . S
C1505 C1502 1.403 . S
C1505 C1506 1.392 . S
C1505 C1509 1.495 . S
C1506 C1505 1.392 . S
C1506 C1507 1.385 . S
C1506 C1508 1.478 . S
C1507 H1501 0.930 . S
C1507 C1503 1.400 . S
C1507 C1506 1.385 . S
C1508 C1506 1.478 . S
C1508 C1510 1.381 . S
C1508 C1514 1.383 . S
C1509 C1505 1.495 . S
C1509 H1515 0.959 . S
C1509 H1516 0.961 . S
C1509 H1517 0.960 . S
C1510 C1508 1.381 . S
C1510 C1511 1.394 . S
C1510 H1518 0.930 . S
C1511 C1510 1.394 . S
C1511 C1512 1.383 . S
C1511 H1519 0.929 . S
C1512 C1511 1.383 . S
C1512 C1513 1.377 . S
C1513 H1497 0.930 . S
C1513 C1512 1.377 . S
C1513 C1514 1.379 . S
C1514 H1498 0.931 . S
C1514 C1508 1.383 . S
C1514 C1513 1.379 . S
H1515 C1509 0.959 . S
H1516 C1509 0.961 . S
H1517 C1509 0.960 . S
H1518 C1510 0.930 . S
H1519 C1511 0.929 . S
H1520 C1528 0.929 . S
H1521 C1530 0.930 . S
H1522 C1532 0.930 . S
H1523 C1535 0.929 . S
H1524 C1538 0.930 . S
H1525 C1540 0.960 . S
H1526 C1540 0.960 . S
H1527 C1540 0.960 . S
C1528 H1520 0.929 . S
C1528 C1529 1.377 . S
C1528 C1530 1.384 . S
C1529 C1528 1.377 . S
C1529 C1535 1.390 . S
C1530 H1521 0.930 . S
C1530 C1528 1.384 . S
C1530 C1531 1.372 . S
C1531 C1530 1.372 . S
C1531 C1532 1.400 . S
C1531 C1536 1.490 . S
C1532 H1522 0.930 . S
C1532 C1531 1.400 . S
C1532 C1535 1.386 . S
H1533 C1549 0.930 . S
H1534 C1550 0.931 . S
C1535 H1523 0.929 . S
C1535 C1529 1.390 . S
C1535 C1532 1.386 . S
C1536 C1531 1.490 . S
C1536 C1538 1.395 . S
C1536 C1539 1.403 . S
H1537 C1543 0.930 . S
C1538 H1524 0.930 . S
C1538 C1536 1.395 . S
C1538 C1541 1.403 . S
C1539 C1536 1.403 . S
C1539 C1540 1.524 . S
C1539 C1543 1.400 . S
C1540 H1525 0.960 . S
C1540 H1526 0.960 . S
C1540 H1527 0.960 . S
C1540 C1539 1.524 . S
C1541 C1538 1.403 . S
C1541 C1542 1.392 . S
C1541 C1545 1.495 . S
C1542 C1541 1.392 . S
C1542 C1543 1.385 . S
C1542 C1544 1.478 . S
C1543 H1537 0.930 . S
C1543 C1539 1.400 . S
C1543 C1542 1.385 . S
C1544 C1542 1.478 . S
C1544 C1546 1.381 . S
C1544 C1550 1.383 . S
C1545 C1541 1.495 . S
C1545 H1551 0.959 . S
C1545 H1552 0.961 . S
C1545 H1553 0.960 . S
C1546 C1544 1.381 . S
C1546 C1547 1.394 . S
C1546 H1554 0.930 . S
C1547 C1546 1.394 . S
C1547 C1548 1.383 . S
C1547 H1555 0.929 . S
C1548 C1547 1.383 . S
C1548 C1549 1.377 . S
C1549 H1533 0.930 . S
C1549 C1548 1.377 . S
C1549 C1550 1.379 . S
C1550 H1534 0.931 . S
C1550 C1544 1.383 . S
C1550 C1549 1.379 . S
H1551 C1545 0.959 . S
H1552 C1545 0.961 . S
H1553 C1545 0.960 . S
H1554 C1546 0.930 . S
H1555 C1547 0.929 . S
H1556 C1564 0.929 . S
H1557 C1566 0.930 . S
H1558 C1568 0.930 . S
H1559 C1571 0.929 . S
H1560 C1574 0.930 . S
H1561 C1576 0.960 . S
H1562 C1576 0.960 . S
H1563 C1576 0.960 . S
C1564 H1556 0.929 . S
C1564 C1565 1.377 . S
C1564 C1566 1.384 . S
C1565 C1564 1.377 . S
C1565 C1571 1.390 . S
C1566 H1557 0.930 . S
C1566 C1564 1.384 . S
C1566 C1567 1.372 . S
C1567 C1566 1.372 . S
C1567 C1568 1.400 . S
C1567 C1572 1.490 . S
C1568 H1558 0.930 . S
C1568 C1567 1.400 . S
C1568 C1571 1.386 . S
H1569 C1585 0.930 . S
H1570 C1586 0.931 . S
C1571 H1559 0.929 . S
C1571 C1565 1.390 . S
C1571 C1568 1.386 . S
C1572 C1567 1.490 . S
C1572 C1574 1.395 . S
C1572 C1575 1.403 . S
H1573 C1579 0.930 . S
C1574 H1560 0.930 . S
C1574 C1572 1.395 . S
C1574 C1577 1.403 . S
C1575 C1572 1.403 . S
C1575 C1576 1.524 . S
C1575 C1579 1.400 . S
C1576 H1561 0.960 . S
C1576 H1562 0.960 . S
C1576 H1563 0.960 . S
C1576 C1575 1.524 . S
C1577 C1574 1.403 . S
C1577 C1578 1.392 . S
C1577 C1581 1.495 . S
C1578 C1577 1.392 . S
C1578 C1579 1.385 . S
C1578 C1580 1.478 . S
C1579 H1573 0.930 . S
C1579 C1575 1.400 . S
C1579 C1578 1.385 . S
C1580 C1578 1.478 . S
C1580 C1582 1.381 . S
C1580 C1586 1.383 . S
C1581 C1577 1.495 . S
C1581 H1587 0.959 . S
C1581 H1588 0.961 . S
C1581 H1589 0.960 . S
C1582 C1580 1.381 . S
C1582 C1583 1.394 . S
C1582 H1590 0.930 . S
C1583 C1582 1.394 . S
C1583 C1584 1.383 . S
C1583 H1591 0.929 . S
C1584 C1583 1.383 . S
C1584 C1585 1.377 . S
C1585 H1569 0.930 . S
C1585 C1584 1.377 . S
C1585 C1586 1.379 . S
C1586 H1570 0.931 . S
C1586 C1580 1.383 . S
C1586 C1585 1.379 . S
H1587 C1581 0.959 . S
H1588 C1581 0.961 . S
H1589 C1581 0.960 . S
H1590 C1582 0.930 . S
H1591 C1583 0.929 . S
H1592 C1600 0.929 . S
H1593 C1602 0.930 . S
H1594 C1604 0.930 . S
H1595 C1607 0.929 . S
H1596 C1610 0.930 . S
H1597 C1612 0.960 . S
H1598 C1612 0.960 . S
H1599 C1612 0.960 . S
C1600 H1592 0.929 . S
C1600 C1601 1.377 . S
C1600 C1602 1.384 . S
C1601 C1600 1.377 . S
C1601 C1607 1.390 . S
C1602 H1593 0.930 . S
C1602 C1600 1.384 . S
C1602 C1603 1.372 . S
C1603 C1602 1.372 . S
C1603 C1604 1.400 . S
C1603 C1608 1.490 . S
C1604 H1594 0.930 . S
C1604 C1603 1.400 . S
C1604 C1607 1.386 . S
H1605 C1621 0.930 . S
H1606 C1622 0.931 . S
C1607 H1595 0.929 . S
C1607 C1601 1.390 . S
C1607 C1604 1.386 . S
C1608 C1603 1.490 . S
C1608 C1610 1.395 . S
C1608 C1611 1.403 . S
H1609 C1615 0.930 . S
C1610 H1596 0.930 . S
C1610 C1608 1.395 . S
C1610 C1613 1.403 . S
C1611 C1608 1.403 . S
C1611 C1612 1.524 . S
C1611 C1615 1.400 . S
C1612 H1597 0.960 . S
C1612 H1598 0.960 . S
C1612 H1599 0.960 . S
C1612 C1611 1.524 . S
C1613 C1610 1.403 . S
C1613 C1614 1.392 . S
C1613 C1617 1.495 . S
C1614 C1613 1.392 . S
C1614 C1615 1.385 . S
C1614 C1616 1.478 . S
C1615 H1609 0.930 . S
C1615 C1611 1.400 . S
C1615 C1614 1.385 . S
C1616 C1614 1.478 . S
C1616 C1618 1.381 . S
C1616 C1622 1.383 . S
C1617 C1613 1.495 . S
C1617 H1623 0.959 . S
C1617 H1624 0.961 . S
C1617 H1625 0.960 . S
C1618 C1616 1.381 . S
C1618 C1619 1.394 . S
C1618 H1626 0.930 . S
C1619 C1618 1.394 . S
C1619 C1620 1.383 . S
C1619 H1627 0.929 . S
C1620 C1619 1.383 . S
C1620 C1621 1.377 . S
C1621 H1605 0.930 . S
C1621 C1620 1.377 . S
C1621 C1622 1.379 . S
C1622 H1606 0.931 . S
C1622 C1616 1.383 . S
C1622 C1621 1.379 . S
H1623 C1617 0.959 . S
H1624 C1617 0.961 . S
H1625 C1617 0.960 . S
H1626 C1618 0.930 . S
H1627 C1619 0.929 . S
H1628 C1636 0.929 . S
H1629 C1638 0.930 . S
H1630 C1640 0.930 . S
H1631 C1643 0.929 . S
H1632 C1646 0.930 . S
H1633 C1648 0.960 . S
H1634 C1648 0.960 . S
H1635 C1648 0.960 . S
C1636 H1628 0.929 . S
C1636 C1637 1.377 . S
C1636 C1638 1.384 . S
C1637 C1636 1.377 . S
C1637 C1643 1.390 . S
C1638 H1629 0.930 . S
C1638 C1636 1.384 . S
C1638 C1639 1.372 . S
C1639 C1638 1.372 . S
C1639 C1640 1.400 . S
C1639 C1644 1.490 . S
C1640 H1630 0.930 . S
C1640 C1639 1.400 . S
C1640 C1643 1.386 . S
H1641 C1657 0.930 . S
H1642 C1658 0.931 . S
C1643 H1631 0.929 . S
C1643 C1637 1.390 . S
C1643 C1640 1.386 . S
C1644 C1639 1.490 . S
C1644 C1646 1.395 . S
C1644 C1647 1.403 . S
H1645 C1651 0.930 . S
C1646 H1632 0.930 . S
C1646 C1644 1.395 . S
C1646 C1649 1.403 . S
C1647 C1644 1.403 . S
C1647 C1648 1.524 . S
C1647 C1651 1.400 . S
C1648 H1633 0.960 . S
C1648 H1634 0.960 . S
C1648 H1635 0.960 . S
C1648 C1647 1.524 . S
C1649 C1646 1.403 . S
C1649 C1650 1.392 . S
C1649 C1653 1.495 . S
C1650 C1649 1.392 . S
C1650 C1651 1.385 . S
C1650 C1652 1.478 . S
C1651 H1645 0.930 . S
C1651 C1647 1.400 . S
C1651 C1650 1.385 . S
C1652 C1650 1.478 . S
C1652 C1654 1.381 . S
C1652 C1658 1.383 . S
C1653 C1649 1.495 . S
C1653 H1659 0.959 . S
C1653 H1660 0.961 . S
C1653 H1661 0.960 . S
C1654 C1652 1.381 . S
C1654 C1655 1.394 . S
C1654 H1662 0.930 . S
C1655 C1654 1.394 . S
C1655 C1656 1.383 . S
C1655 H1663 0.929 . S
C1656 C1655 1.383 . S
C1656 C1657 1.377 . S
C1657 H1641 0.930 . S
C1657 C1656 1.377 . S
C1657 C1658 1.379 . S
C1658 H1642 0.931 . S
C1658 C1652 1.383 . S
C1658 C1657 1.379 . S
H1659 C1653 0.959 . S
H1660 C1653 0.961 . S
H1661 C1653 0.960 . S
H1662 C1654 0.930 . S
H1663 C1655 0.929 . S
H1664 C1672 0.929 . S
H1665 C1674 0.930 . S
H1666 C1676 0.930 . S
H1667 C1679 0.929 . S
H1668 C1682 0.930 . S
H1669 C1684 0.960 . S
H1670 C1684 0.960 . S
H1671 C1684 0.960 . S
C1672 H1664 0.929 . S
C1672 C1673 1.377 . S
C1672 C1674 1.384 . S
C1673 C1672 1.377 . S
C1673 C1679 1.390 . S
C1674 H1665 0.930 . S
C1674 C1672 1.384 . S
C1674 C1675 1.372 . S
C1675 C1674 1.372 . S
C1675 C1676 1.400 . S
C1675 C1680 1.490 . S
C1676 H1666 0.930 . S
C1676 C1675 1.400 . S
C1676 C1679 1.386 . S
H1677 C1693 0.930 . S
H1678 C1694 0.931 . S
C1679 H1667 0.929 . S
C1679 C1673 1.390 . S
C1679 C1676 1.386 . S
C1680 C1675 1.490 . S
C1680 C1682 1.395 . S
C1680 C1683 1.403 . S
H1681 C1687 0.930 . S
C1682 H1668 0.930 . S
C1682 C1680 1.395 . S
C1682 C1685 1.403 . S
C1683 C1680 1.403 . S
C1683 C1684 1.524 . S
C1683 C1687 1.400 . S
C1684 H1669 0.960 . S
C1684 H1670 0.960 . S
C1684 H1671 0.960 . S
C1684 C1683 1.524 . S
C1685 C1682 1.403 . S
C1685 C1686 1.392 . S
C1685 C1689 1.495 . S
C1686 C1685 1.392 . S
C1686 C1687 1.385 . S
C1686 C1688 1.478 . S
C1687 H1681 0.930 . S
C1687 C1683 1.400 . S
C1687 C1686 1.385 . S
C1688 C1686 1.478 . S
C1688 C1690 1.381 . S
C1688 C1694 1.383 . S
C1689 C1685 1.495 . S
C1689 H1695 0.959 . S
C1689 H1696 0.961 . S
C1689 H1697 0.960 . S
C1690 C1688 1.381 . S
C1690 C1691 1.394 . S
C1690 H1698 0.930 . S
C1691 C1690 1.394 . S
C1691 C1692 1.383 . S
C1691 H1699 0.929 . S
C1692 C1691 1.383 . S
C1692 C1693 1.377 . S
C1693 H1677 0.930 . S
C1693 C1692 1.377 . S
C1693 C1694 1.379 . S
C1694 H1678 0.931 . S
C1694 C1688 1.383 . S
C1694 C1693 1.379 . S
H1695 C1689 0.959 . S
H1696 C1689 0.961 . S
H1697 C1689 0.960 . S
H1698 C1690 0.930 . S
H1699 C1691 0.929 . S
H1700 C1708 0.929 . S
H1701 C1710 0.930 . S
H1702 C1712 0.930 . S
H1703 C1715 0.929 . S
H1704 C1718 0.930 . S
H1705 C1720 0.960 . S
H1706 C1720 0.960 . S
H1707 C1720 0.960 . S
C1708 H1700 0.929 . S
C1708 C1709 1.377 . S
C1708 C1710 1.384 . S
C1709 C1708 1.377 . S
C1709 C1715 1.390 . S
C1710 H1701 0.930 . S
C1710 C1708 1.384 . S
C1710 C1711 1.372 . S
C1711 C1710 1.372 . S
C1711 C1712 1.400 . S
C1711 C1716 1.490 . S
C1712 H1702 0.930 . S
C1712 C1711 1.400 . S
C1712 C1715 1.386 . S
H1713 C1729 0.930 . S
H1714 C1730 0.931 . S
C1715 H1703 0.929 . S
C1715 C1709 1.390 . S
C1715 C1712 1.386 . S
C1716 C1711 1.490 . S
C1716 C1718 1.395 . S
C1716 C1719 1.403 . S
H1717 C1723 0.930 . S
C1718 H1704 0.930 . S
C1718 C1716 1.395 . S
C1718 C1721 1.403 . S
C1719 C1716 1.403 . S
C1719 C1720 1.524 . S
C1719 C1723 1.400 . S
C1720 H1705 0.960 . S
C1720 H1706 0.960 . S
C1720 H1707 0.960 . S
C1720 C1719 1.524 . S
C1721 C1718 1.403 . S
C1721 C1722 1.392 . S
C1721 C1725 1.495 . S
C1722 C1721 1.392 . S
C1722 C1723 1.385 . S
C1722 C1724 1.478 . S
C1723 H1717 0.930 . S
C1723 C1719 1.400 . S
C1723 C1722 1.385 . S
C1724 C1722 1.478 . S
C1724 C1726 1.381 . S
C1724 C1730 1.383 . S
C1725 C1721 1.495 . S
C1725 H1731 0.959 . S
C1725 H1732 0.961 . S
C1725 H1733 0.960 . S
C1726 C1724 1.381 . S
C1726 C1727 1.394 . S
C1726 H1734 0.930 . S
C1727 C1726 1.394 . S
C1727 C1728 1.383 . S
C1727 H1735 0.929 . S
C1728 C1727 1.383 . S
C1728 C1729 1.377 . S
C1729 H1713 0.930 . S
C1729 C1728 1.377 . S
C1729 C1730 1.379 . S
C1730 H1714 0.931 . S
C1730 C1724 1.383 . S
C1730 C1729 1.379 . S
H1731 C1725 0.959 . S
H1732 C1725 0.961 . S
H1733 C1725 0.960 . S
H1734 C1726 0.930 . S
H1735 C1727 0.929 . S
H1736 C1744 0.929 . S
H1737 C1746 0.930 . S
H1738 C1748 0.930 . S
H1739 C1751 0.929 . S
H1740 C1754 0.930 . S
H1741 C1756 0.960 . S
H1742 C1756 0.960 . S
H1743 C1756 0.960 . S
C1744 H1736 0.929 . S
C1744 C1745 1.377 . S
C1744 C1746 1.384 . S
C1745 C1744 1.377 . S
C1745 C1751 1.390 . S
C1746 H1737 0.930 . S
C1746 C1744 1.384 . S
C1746 C1747 1.372 . S
C1747 C1746 1.372 . S
C1747 C1748 1.400 . S
C1747 C1752 1.490 . S
C1748 H1738 0.930 . S
C1748 C1747 1.400 . S
C1748 C1751 1.386 . S
H1749 C1765 0.930 . S
H1750 C1766 0.931 . S
C1751 H1739 0.929 . S
C1751 C1745 1.390 . S
C1751 C1748 1.386 . S
C1752 C1747 1.490 . S
C1752 C1754 1.395 . S
C1752 C1755 1.403 . S
H1753 C1759 0.930 . S
C1754 H1740 0.930 . S
C1754 C1752 1.395 . S
C1754 C1757 1.403 . S
C1755 C1752 1.403 . S
C1755 C1756 1.524 . S
C1755 C1759 1.400 . S
C1756 H1741 0.960 . S
C1756 H1742 0.960 . S
C1756 H1743 0.960 . S
C1756 C1755 1.524 . S
C1757 C1754 1.403 . S
C1757 C1758 1.392 . S
C1757 C1761 1.495 . S
C1758 C1757 1.392 . S
C1758 C1759 1.385 . S
C1758 C1760 1.478 . S
C1759 H1753 0.930 . S
C1759 C1755 1.400 . S
C1759 C1758 1.385 . S
C1760 C1758 1.478 . S
C1760 C1762 1.381 . S
C1760 C1766 1.383 . S
C1761 C1757 1.495 . S
C1761 H1767 0.959 . S
C1761 H1768 0.961 . S
C1761 H1769 0.960 . S
C1762 C1760 1.381 . S
C1762 C1763 1.394 . S
C1762 H1770 0.930 . S
C1763 C1762 1.394 . S
C1763 C1764 1.383 . S
C1763 H1771 0.929 . S
C1764 C1763 1.383 . S
C1764 C1765 1.377 . S
C1765 H1749 0.930 . S
C1765 C1764 1.377 . S
C1765 C1766 1.379 . S
C1766 H1750 0.931 . S
C1766 C1760 1.383 . S
C1766 C1765 1.379 . S
H1767 C1761 0.959 . S
H1768 C1761 0.961 . S
H1769 C1761 0.960 . S
H1770 C1762 0.930 . S
H1771 C1763 0.929 . S
H1772 C1780 0.929 . S
H1773 C1782 0.930 . S
H1774 C1784 0.930 . S
H1775 C1787 0.929 . S
H1776 C1790 0.930 . S
H1777 C1792 0.960 . S
H1778 C1792 0.960 . S
H1779 C1792 0.960 . S
C1780 H1772 0.929 . S
C1780 C1781 1.377 . S
C1780 C1782 1.384 . S
C1781 C1780 1.377 . S
C1781 C1787 1.390 . S
C1782 H1773 0.930 . S
C1782 C1780 1.384 . S
C1782 C1783 1.372 . S
C1783 C1782 1.372 . S
C1783 C1784 1.400 . S
C1783 C1788 1.490 . S
C1784 H1774 0.930 . S
C1784 C1783 1.400 . S
C1784 C1787 1.386 . S
H1785 C1801 0.930 . S
H1786 C1802 0.931 . S
C1787 H1775 0.929 . S
C1787 C1781 1.390 . S
C1787 C1784 1.386 . S
C1788 C1783 1.490 . S
C1788 C1790 1.395 . S
C1788 C1791 1.403 . S
H1789 C1795 0.930 . S
C1790 H1776 0.930 . S
C1790 C1788 1.395 . S
C1790 C1793 1.403 . S
C1791 C1788 1.403 . S
C1791 C1792 1.524 . S
C1791 C1795 1.400 . S
C1792 H1777 0.960 . S
C1792 H1778 0.960 . S
C1792 H1779 0.960 . S
C1792 C1791 1.524 . S
C1793 C1790 1.403 . S
C1793 C1794 1.392 . S
C1793 C1797 1.495 . S
C1794 C1793 1.392 . S
C1794 C1795 1.385 . S
C1794 C1796 1.478 . S
C1795 H1789 0.930 . S
C1795 C1791 1.400 . S
C1795 C1794 1.385 . S
C1796 C1794 1.478 . S
C1796 C1798 1.381 . S
C1796 C1802 1.383 . S
C1797 C1793 1.495 . S
C1797 H1803 0.959 . S
C1797 H1804 0.961 . S
C1797 H1805 0.960 . S
C1798 C1796 1.381 . S
C1798 C1799 1.394 . S
C1798 H1806 0.930 . S
C1799 C1798 1.394 . S
C1799 C1800 1.383 . S
C1799 H1807 0.929 . S
C1800 C1799 1.383 . S
C1800 C1801 1.377 . S
C1801 H1785 0.930 . S
C1801 C1800 1.377 . S
C1801 C1802 1.379 . S
C1802 H1786 0.931 . S
C1802 C1796 1.383 . S
C1802 C1801 1.379 . S
H1803 C1797 0.959 . S
H1804 C1797 0.961 . S
H1805 C1797 0.960 . S
H1806 C1798 0.930 . S
H1807 C1799 0.929 . S
H1808 C1816 0.929 . S
H1809 C1818 0.930 . S
H1810 C1820 0.930 . S
H1811 C1823 0.929 . S
H1812 C1826 0.930 . S
H1813 C1828 0.960 . S
H1814 C1828 0.960 . S
H1815 C1828 0.960 . S
C1816 H1808 0.929 . S
C1816 C1817 1.377 . S
C1816 C1818 1.384 . S
C1817 C1816 1.377 . S
C1817 C1823 1.390 . S
C1818 H1809 0.930 . S
C1818 C1816 1.384 . S
C1818 C1819 1.372 . S
C1819 C1818 1.372 . S
C1819 C1820 1.400 . S
C1819 C1824 1.490 . S
C1820 H1810 0.930 . S
C1820 C1819 1.400 . S
C1820 C1823 1.386 . S
H1821 C1837 0.930 . S
H1822 C1838 0.931 . S
C1823 H1811 0.929 . S
C1823 C1817 1.390 . S
C1823 C1820 1.386 . S
C1824 C1819 1.490 . S
C1824 C1826 1.395 . S
C1824 C1827 1.403 . S
H1825 C1831 0.930 . S
C1826 H1812 0.930 . S
C1826 C1824 1.395 . S
C1826 C1829 1.403 . S
C1827 C1824 1.403 . S
C1827 C1828 1.524 . S
C1827 C1831 1.400 . S
C1828 H1813 0.960 . S
C1828 H1814 0.960 . S
C1828 H1815 0.960 . S
C1828 C1827 1.524 . S
C1829 C1826 1.403 . S
C1829 C1830 1.392 . S
C1829 C1833 1.495 . S
C1830 C1829 1.392 . S
C1830 C1831 1.385 . S
C1830 C1832 1.478 . S
C1831 H1825 0.930 . S
C1831 C1827 1.400 . S
C1831 C1830 1.385 . S
C1832 C1830 1.478 . S
C1832 C1834 1.381 . S
C1832 C1838 1.383 . S
C1833 C1829 1.495 . S
C1833 H1839 0.959 . S
C1833 H1840 0.961 . S
C1833 H1841 0.960 . S
C1834 C1832 1.381 . S
C1834 C1835 1.394 . S
C1834 H1842 0.930 . S
C1835 C1834 1.394 . S
C1835 C1836 1.383 . S
C1835 H1843 0.929 . S
C1836 C1835 1.383 . S
C1836 C1837 1.377 . S
C1837 H1821 0.930 . S
C1837 C1836 1.377 . S
C1837 C1838 1.379 . S
C1838 H1822 0.931 . S
C1838 C1832 1.383 . S
C1838 C1837 1.379 . S
H1839 C1833 0.959 . S
H1840 C1833 0.961 . S
H1841 C1833 0.960 . S
H1842 C1834 0.930 . S
H1843 C1835 0.929 . S
H1844 C1852 0.929 . S
H1845 C1854 0.930 . S
H1846 C1856 0.930 . S
H1847 C1859 0.929 . S
H1848 C1862 0.930 . S
H1849 C1864 0.960 . S
H1850 C1864 0.960 . S
H1851 C1864 0.960 . S
C1852 H1844 0.929 . S
C1852 C1853 1.377 . S
C1852 C1854 1.384 . S
C1853 C1852 1.377 . S
C1853 C1859 1.390 . S
C1854 H1845 0.930 . S
C1854 C1852 1.384 . S
C1854 C1855 1.372 . S
C1855 C1854 1.372 . S
C1855 C1856 1.400 . S
C1855 C1860 1.490 . S
C1856 H1846 0.930 . S
C1856 C1855 1.400 . S
C1856 C1859 1.386 . S
H1857 C1873 0.930 . S
H1858 C1874 0.931 . S
C1859 H1847 0.929 . S
C1859 C1853 1.390 . S
C1859 C1856 1.386 . S
C1860 C1855 1.490 . S
C1860 C1862 1.395 . S
C1860 C1863 1.403 . S
H1861 C1867 0.930 . S
C1862 H1848 0.930 . S
C1862 C1860 1.395 . S
C1862 C1865 1.403 . S
C1863 C1860 1.403 . S
C1863 C1864 1.524 . S
C1863 C1867 1.400 . S
C1864 H1849 0.960 . S
C1864 H1850 0.960 . S
C1864 H1851 0.960 . S
C1864 C1863 1.524 . S
C1865 C1862 1.403 . S
C1865 C1866 1.392 . S
C1865 C1869 1.495 . S
C1866 C1865 1.392 . S
C1866 C1867 1.385 . S
C1866 C1868 1.478 . S
C1867 H1861 0.930 . S
C1867 C1863 1.400 . S
C1867 C1866 1.385 . S
C1868 C1866 1.478 . S
C1868 C1870 1.381 . S
C1868 C1874 1.383 . S
C1869 C1865 1.495 . S
C1869 H1875 0.959 . S
C1869 H1876 0.961 . S
C1869 H1877 0.960 . S
C1870 C1868 1.381 . S
C1870 C1871 1.394 . S
C1870 H1878 0.930 . S
C1871 C1870 1.394 . S
C1871 C1872 1.383 . S
C1871 H1879 0.929 . S
C1872 C1871 1.383 . S
C1872 C1873 1.377 . S
C1873 H1857 0.930 . S
C1873 C1872 1.377 . S
C1873 C1874 1.379 . S
C1874 H1858 0.931 . S
C1874 C1868 1.383 . S
C1874 C1873 1.379 . S
H1875 C1869 0.959 . S
H1876 C1869 0.961 . S
H1877 C1869 0.960 . S
H1878 C1870 0.930 . S
H1879 C1871 0.929 . S
H1880 C1888 0.929 . S
H1881 C1890 0.930 . S
H1882 C1892 0.930 . S
H1883 C1895 0.929 . S
H1884 C1898 0.930 . S
H1885 C1900 0.960 . S
H1886 C1900 0.960 . S
H1887 C1900 0.960 . S
C1888 H1880 0.929 . S
C1888 C1889 1.377 . S
C1888 C1890 1.384 . S
C1889 C1888 1.377 . S
C1889 C1895 1.390 . S
C1890 H1881 0.930 . S
C1890 C1888 1.384 . S
C1890 C1891 1.372 . S
C1891 C1890 1.372 . S
C1891 C1892 1.400 . S
C1891 C1896 1.490 . S
C1892 H1882 0.930 . S
C1892 C1891 1.400 . S
C1892 C1895 1.386 . S
H1893 C1909 0.930 . S
H1894 C1910 0.931 . S
C1895 H1883 0.929 . S
C1895 C1889 1.390 . S
C1895 C1892 1.386 . S
C1896 C1891 1.490 . S
C1896 C1898 1.395 . S
C1896 C1899 1.403 . S
H1897 C1903 0.930 . S
C1898 H1884 0.930 . S
C1898 C1896 1.395 . S
C1898 C1901 1.403 . S
C1899 C1896 1.403 . S
C1899 C1900 1.524 . S
C1899 C1903 1.400 . S
C1900 H1885 0.960 . S
C1900 H1886 0.960 . S
C1900 H1887 0.960 . S
C1900 C1899 1.524 . S
C1901 C1898 1.403 . S
C1901 C1902 1.392 . S
C1901 C1905 1.495 . S
C1902 C1901 1.392 . S
C1902 C1903 1.385 . S
C1902 C1904 1.478 . S
C1903 H1897 0.930 . S
C1903 C1899 1.400 . S
C1903 C1902 1.385 . S
C1904 C1902 1.478 . S
C1904 C1906 1.381 . S
C1904 C1910 1.383 . S
C1905 C1901 1.495 . S
C1905 H1911 0.959 . S
C1905 H1912 0.961 . S
C1905 H1913 0.960 . S
C1906 C1904 1.381 . S
C1906 C1907 1.394 . S
C1906 H1914 0.930 . S
C1907 C1906 1.394 . S
C1907 C1908 1.383 . S
C1907 H1915 0.929 . S
C1908 C1907 1.383 . S
C1908 C1909 1.377 . S
C1909 H1893 0.930 . S
C1909 C1908 1.377 . S
C1909 C1910 1.379 . S
C1910 H1894 0.931 . S
C1910 C1904 1.383 . S
C1910 C1909 1.379 . S
H1911 C1905 0.959 . S
H1912 C1905 0.961 . S
H1913 C1905 0.960 . S
H1914 C1906 0.930 . S
H1915 C1907 0.929 . S
H1916 C1924 0.929 . S
H1917 C1926 0.930 . S
H1918 C1928 0.930 . S
H1919 C1931 0.929 . S
H1920 C1934 0.930 . S
H1921 C1936 0.960 . S
H1922 C1936 0.960 . S
H1923 C1936 0.960 . S
C1924 H1916 0.929 . S
C1924 C1925 1.377 . S
C1924 C1926 1.384 . S
C1925 C1924 1.377 . S
C1925 C1931 1.390 . S
C1926 H1917 0.930 . S
C1926 C1924 1.384 . S
C1926 C1927 1.372 . S
C1927 C1926 1.372 . S
C1927 C1928 1.400 . S
C1927 C1932 1.490 . S
C1928 H1918 0.930 . S
C1928 C1927 1.400 . S
C1928 C1931 1.386 . S
H1929 C1945 0.930 . S
H1930 C1946 0.931 . S
C1931 H1919 0.929 . S
C1931 C1925 1.390 . S
C1931 C1928 1.386 . S
C1932 C1927 1.490 . S
C1932 C1934 1.395 . S
C1932 C1935 1.403 . S
H1933 C1939 0.930 . S
C1934 H1920 0.930 . S
C1934 C1932 1.395 . S
C1934 C1937 1.403 . S
C1935 C1932 1.403 . S
C1935 C1936 1.524 . S
C1935 C1939 1.400 . S
C1936 H1921 0.960 . S
C1936 H1922 0.960 . S
C1936 H1923 0.960 . S
C1936 C1935 1.524 . S
C1937 C1934 1.403 . S
C1937 C1938 1.392 . S
C1937 C1941 1.495 . S
C1938 C1937 1.392 . S
C1938 C1939 1.385 . S
C1938 C1940 1.478 . S
C1939 H1933 0.930 . S
C1939 C1935 1.400 . S
C1939 C1938 1.385 . S
C1940 C1938 1.478 . S
C1940 C1942 1.381 . S
C1940 C1946 1.383 . S
C1941 C1937 1.495 . S
C1941 H1947 0.959 . S
C1941 H1948 0.961 . S
C1941 H1949 0.960 . S
C1942 C1940 1.381 . S
C1942 C1943 1.394 . S
C1942 H1950 0.930 . S
C1943 C1942 1.394 . S
C1943 C1944 1.383 . S
C1943 H1951 0.929 . S
C1944 C1943 1.383 . S
C1944 C1945 1.377 . S
C1945 H1929 0.930 . S
C1945 C1944 1.377 . S
C1945 C1946 1.379 . S
C1946 H1930 0.931 . S
C1946 C1940 1.383 . S
C1946 C1945 1.379 . S
H1947 C1941 0.959 . S
H1948 C1941 0.961 . S
H1949 C1941 0.960 . S
H1950 C1942 0.930 . S
H1951 C1943 0.929 . S
H1952 C1960 0.929 . S
H1953 C1962 0.930 . S
H1954 C1964 0.930 . S
H1955 C1967 0.929 . S
H1956 C1970 0.930 . S
H1957 C1972 0.960 . S
H1958 C1972 0.960 . S
H1959 C1972 0.960 . S
C1960 H1952 0.929 . S
C1960 C1961 1.377 . S
C1960 C1962 1.384 . S
C1961 C1960 1.377 . S
C1961 C1967 1.390 . S
C1962 H1953 0.930 . S
C1962 C1960 1.384 . S
C1962 C1963 1.372 . S
C1963 C1962 1.372 . S
C1963 C1964 1.400 . S
C1963 C1968 1.490 . S
C1964 H1954 0.930 . S
C1964 C1963 1.400 . S
C1964 C1967 1.386 . S
H1965 C1981 0.930 . S
H1966 C1982 0.931 . S
C1967 H1955 0.929 . S
C1967 C1961 1.390 . S
C1967 C1964 1.386 . S
C1968 C1963 1.490 . S
C1968 C1970 1.395 . S
C1968 C1971 1.403 . S
H1969 C1975 0.930 . S
C1970 H1956 0.930 . S
C1970 C1968 1.395 . S
C1970 C1973 1.403 . S
C1971 C1968 1.403 . S
C1971 C1972 1.524 . S
C1971 C1975 1.400 . S
C1972 H1957 0.960 . S
C1972 H1958 0.960 . S
C1972 H1959 0.960 . S
C1972 C1971 1.524 . S
C1973 C1970 1.403 . S
C1973 C1974 1.392 . S
C1973 C1977 1.495 . S
C1974 C1973 1.392 . S
C1974 C1975 1.385 . S
C1974 C1976 1.478 . S
C1975 H1969 0.930 . S
C1975 C1971 1.400 . S
C1975 C1974 1.385 . S
C1976 C1974 1.478 . S
C1976 C1978 1.381 . S
C1976 C1982 1.383 . S
C1977 C1973 1.495 . S
C1977 H1983 0.959 . S
C1977 H1984 0.961 . S
C1977 H1985 0.960 . S
C1978 C1976 1.381 . S
C1978 C1979 1.394 . S
C1978 H1986 0.930 . S
C1979 C1978 1.394 . S
C1979 C1980 1.383 . S
C1979 H1987 0.929 . S
C1980 C1979 1.383 . S
C1980 C1981 1.377 . S
C1981 H1965 0.930 . S
C1981 C1980 1.377 . S
C1981 C1982 1.379 . S
C1982 H1966 0.931 . S
C1982 C1976 1.383 . S
C1982 C1981 1.379 . S
H1983 C1977 0.959 . S
H1984 C1977 0.961 . S
H1985 C1977 0.960 . S
H1986 C1978 0.930 . S
H1987 C1979 0.929 . S
H1988 C1996 0.929 . S
H1989 C1998 0.930 . S
H1990 C2000 0.930 . S
H1991 C2003 0.929 . S
H1992 C2006 0.930 . S
H1993 C2008 0.960 . S
H1994 C2008 0.960 . S
H1995 C2008 0.960 . S
C1996 H1988 0.929 . S
C1996 C1997 1.377 . S
C1996 C1998 1.384 . S
C1997 C1996 1.377 . S
C1997 C2003 1.390 . S
C1998 H1989 0.930 . S
C1998 C1996 1.384 . S
C1998 C1999 1.372 . S
C1999 C1998 1.372 . S
C1999 C2000 1.400 . S
C1999 C2004 1.490 . S
C2000 H1990 0.930 . S
C2000 C1999 1.400 . S
C2000 C2003 1.386 . S
H2001 C2017 0.930 . S
H2002 C2018 0.931 . S
C2003 H1991 0.929 . S
C2003 C1997 1.390 . S
C2003 C2000 1.386 . S
C2004 C1999 1.490 . S
C2004 C2006 1.395 . S
C2004 C2007 1.403 . S
H2005 C2011 0.930 . S
C2006 H1992 0.930 . S
C2006 C2004 1.395 . S
C2006 C2009 1.403 . S
C2007 C2004 1.403 . S
C2007 C2008 1.524 . S
C2007 C2011 1.400 . S
C2008 H1993 0.960 . S
C2008 H1994 0.960 . S
C2008 H1995 0.960 . S
C2008 C2007 1.524 . S
C2009 C2006 1.403 . S
C2009 C2010 1.392 . S
C2009 C2013 1.495 . S
C2010 C2009 1.392 . S
C2010 C2011 1.385 . S
C2010 C2012 1.478 . S
C2011 H2005 0.930 . S
C2011 C2007 1.400 . S
C2011 C2010 1.385 . S
C2012 C2010 1.478 . S
C2012 C2014 1.381 . S
C2012 C2018 1.383 . S
C2013 C2009 1.495 . S
C2013 H2019 0.959 . S
C2013 H2020 0.961 . S
C2013 H2021 0.960 . S
C2014 C2012 1.381 . S
C2014 C2015 1.394 . S
C2014 H2022 0.930 . S
C2015 C2014 1.394 . S
C2015 C2016 1.383 . S
C2015 H2023 0.929 . S
C2016 C2015 1.383 . S
C2016 C2017 1.377 . S
C2017 H2001 0.930 . S
C2017 C2016 1.377 . S
C2017 C2018 1.379 . S
C2018 H2002 0.931 . S
C2018 C2012 1.383 . S
C2018 C2017 1.379 . S
H2019 C2013 0.959 . S
H2020 C2013 0.961 . S
H2021 C2013 0.960 . S
H2022 C2014 0.930 . S
H2023 C2015 0.929 . S
H2024 C2032 0.929 . S
H2025 C2034 0.930 . S
H2026 C2036 0.930 . S
H2027 C2039 0.929 . S
H2028 C2042 0.930 . S
H2029 C2044 0.960 . S
H2030 C2044 0.960 . S
H2031 C2044 0.960 . S
C2032 H2024 0.929 . S
C2032 C2033 1.377 . S
C2032 C2034 1.384 . S
C2033 C2032 1.377 . S
C2033 C2039 1.390 . S
C2034 H2025 0.930 . S
C2034 C2032 1.384 . S
C2034 C2035 1.372 . S
C2035 C2034 1.372 . S
C2035 C2036 1.400 . S
C2035 C2040 1.490 . S
C2036 H2026 0.930 . S
C2036 C2035 1.400 . S
C2036 C2039 1.386 . S
H2037 C2053 0.930 . S
H2038 C2054 0.931 . S
C2039 H2027 0.929 . S
C2039 C2033 1.390 . S
C2039 C2036 1.386 . S
C2040 C2035 1.490 . S
C2040 C2042 1.395 . S
C2040 C2043 1.403 . S
H2041 C2047 0.930 . S
C2042 H2028 0.930 . S
C2042 C2040 1.395 . S
C2042 C2045 1.403 . S
C2043 C2040 1.403 . S
C2043 C2044 1.524 . S
C2043 C2047 1.400 . S
C2044 H2029 0.960 . S
C2044 H2030 0.960 . S
C2044 H2031 0.960 . S
C2044 C2043 1.524 . S
C2045 C2042 1.403 . S
C2045 C2046 1.392 . S
C2045 C2049 1.495 . S
C2046 C2045 1.392 . S
C2046 C2047 1.385 . S
C2046 C2048 1.478 . S
C2047 H2041 0.930 . S
C2047 C2043 1.400 . S
C2047 C2046 1.385 . S
C2048 C2046 1.478 . S
C2048 C2050 1.381 . S
C2048 C2054 1.383 . S
C2049 C2045 1.495 . S
C2049 H2055 0.959 . S
C2049 H2056 0.961 . S
C2049 H2057 0.960 . S
C2050 C2048 1.381 . S
C2050 C2051 1.394 . S
C2050 H2058 0.930 . S
C2051 C2050 1.394 . S
C2051 C2052 1.383 . S
C2051 H2059 0.929 . S
C2052 C2051 1.383 . S
C2052 C2053 1.377 . S
C2053 H2037 0.930 . S
C2053 C2052 1.377 . S
C2053 C2054 1.379 . S
C2054 H2038 0.931 . S
C2054 C2048 1.383 . S
C2054 C2053 1.379 . S
H2055 C2049 0.959 . S
H2056 C2049 0.961 . S
H2057 C2049 0.960 . S
H2058 C2050 0.930 . S
H2059 C2051 0.929 . S
H2060 C2068 0.929 . S
H2061 C2070 0.930 . S
H2062 C2072 0.930 . S
H2063 C2075 0.929 . S
H2064 C2078 0.930 . S
H2065 C2080 0.960 . S
H2066 C2080 0.960 . S
H2067 C2080 0.960 . S
C2068 H2060 0.929 . S
C2068 C2069 1.377 . S
C2068 C2070 1.384 . S
C2069 C2068 1.377 . S
C2069 C2075 1.390 . S
C2070 H2061 0.930 . S
C2070 C2068 1.384 . S
C2070 C2071 1.372 . S
C2071 C2070 1.372 . S
C2071 C2072 1.400 . S
C2071 C2076 1.490 . S
C2072 H2062 0.930 . S
C2072 C2071 1.400 . S
C2072 C2075 1.386 . S
H2073 C2089 0.930 . S
H2074 C2090 0.931 . S
C2075 H2063 0.929 . S
C2075 C2069 1.390 . S
C2075 C2072 1.386 . S
C2076 C2071 1.490 . S
C2076 C2078 1.395 . S
C2076 C2079 1.403 . S
H2077 C2083 0.930 . S
C2078 H2064 0.930 . S
C2078 C2076 1.395 . S
C2078 C2081 1.403 . S
C2079 C2076 1.403 . S
C2079 C2080 1.524 . S
C2079 C2083 1.400 . S
C2080 H2065 0.960 . S
C2080 H2066 0.960 . S
C2080 H2067 0.960 . S
C2080 C2079 1.524 . S
C2081 C2078 1.403 . S
C2081 C2082 1.392 . S
C2081 C2085 1.495 . S
C2082 C2081 1.392 . S
C2082 C2083 1.385 . S
C2082 C2084 1.478 . S
C2083 H2077 0.930 . S
C2083 C2079 1.400 . S
C2083 C2082 1.385 . S
C2084 C2082 1.478 . S
C2084 C2086 1.381 . S
C2084 C2090 1.383 . S
C2085 C2081 1.495 . S
C2085 H2091 0.959 . S
C2085 H2092 0.961 . S
C2085 H2093 0.960 . S
C2086 C2084 1.381 . S
C2086 C2087 1.394 . S
C2086 H2094 0.930 . S
C2087 C2086 1.394 . S
C2087 C2088 1.383 . S
C2087 H2095 0.929 . S
C2088 C2087 1.383 . S
C2088 C2089 1.377 . S
C2089 H2073 0.930 . S
C2089 C2088 1.377 . S
C2089 C2090 1.379 . S
C2090 H2074 0.931 . S
C2090 C2084 1.383 . S
C2090 C2089 1.379 . S
H2091 C2085 0.959 . S
H2092 C2085 0.961 . S
H2093 C2085 0.960 . S
H2094 C2086 0.930 . S
H2095 C2087 0.929 . S
H2096 C2104 0.929 . S
H2097 C2106 0.930 . S
H2098 C2108 0.930 . S
H2099 C2111 0.929 . S
H2100 C2114 0.930 . S
H2101 C2116 0.960 . S
H2102 C2116 0.960 . S
H2103 C2116 0.960 . S
C2104 H2096 0.929 . S
C2104 C2105 1.377 . S
C2104 C2106 1.384 . S
C2105 C2104 1.377 . S
C2105 C2111 1.390 . S
C2106 H2097 0.930 . S
C2106 C2104 1.384 . S
C2106 C2107 1.372 . S
C2107 C2106 1.372 . S
C2107 C2108 1.400 . S
C2107 C2112 1.490 . S
C2108 H2098 0.930 . S
C2108 C2107 1.400 . S
C2108 C2111 1.386 . S
H2109 C2125 0.930 . S
H2110 C2126 0.931 . S
C2111 H2099 0.929 . S
C2111 C2105 1.390 . S
C2111 C2108 1.386 . S
C2112 C2107 1.490 . S
C2112 C2114 1.395 . S
C2112 C2115 1.403 . S
H2113 C2119 0.930 . S
C2114 H2100 0.930 . S
C2114 C2112 1.395 . S
C2114 C2117 1.403 . S
C2115 C2112 1.403 . S
C2115 C2116 1.524 . S
C2115 C2119 1.400 . S
C2116 H2101 0.960 . S
C2116 H2102 0.960 . S
C2116 H2103 0.960 . S
C2116 C2115 1.524 . S
C2117 C2114 1.403 . S
C2117 C2118 1.392 . S
C2117 C2121 1.495 . S
C2118 C2117 1.392 . S
C2118 C2119 1.385 . S
C2118 C2120 1.478 . S
C2119 H2113 0.930 . S
C2119 C2115 1.400 . S
C2119 C2118 1.385 . S
C2120 C2118 1.478 . S
C2120 C2122 1.381 . S
C2120 C2126 1.383 . S
C2121 C2117 1.495 . S
C2121 H2127 0.959 . S
C2121 H2128 0.961 . S
C2121 H2129 0.960 . S
C2122 C2120 1.381 . S
C2122 C2123 1.394 . S
C2122 H2130 0.930 . S
C2123 C2122 1.394 . S
C2123 C2124 1.383 . S
C2123 H2131 0.929 . S
C2124 C2123 1.383 . S
C2124 C2125 1.377 . S
C2125 H2109 0.930 . S
C2125 C2124 1.377 . S
C2125 C2126 1.379 . S
C2126 H2110 0.931 . S
C2126 C2120 1.383 . S
C2126 C2125 1.379 . S
H2127 C2121 0.959 . S
H2128 C2121 0.961 . S
H2129 C2121 0.960 . S
H2130 C2122 0.930 . S
H2131 C2123 0.929 . S
H2132 C2140 0.929 . S
H2133 C2142 0.930 . S
H2134 C2144 0.930 . S
H2135 C2147 0.929 . S
H2136 C2150 0.930 . S
H2137 C2152 0.960 . S
H2138 C2152 0.960 . S
H2139 C2152 0.960 . S
C2140 H2132 0.929 . S
C2140 C2141 1.377 . S
C2140 C2142 1.384 . S
C2141 C2140 1.377 . S
C2141 C2147 1.390 . S
C2142 H2133 0.930 . S
C2142 C2140 1.384 . S
C2142 C2143 1.372 . S
C2143 C2142 1.372 . S
C2143 C2144 1.400 . S
C2143 C2148 1.490 . S
C2144 H2134 0.930 . S
C2144 C2143 1.400 . S
C2144 C2147 1.386 . S
H2145 C2161 0.930 . S
H2146 C2162 0.931 . S
C2147 H2135 0.929 . S
C2147 C2141 1.390 . S
C2147 C2144 1.386 . S
C2148 C2143 1.490 . S
C2148 C2150 1.395 . S
C2148 C2151 1.403 . S
H2149 C2155 0.930 . S
C2150 H2136 0.930 . S
C2150 C2148 1.395 . S
C2150 C2153 1.403 . S
C2151 C2148 1.403 . S
C2151 C2152 1.524 . S
C2151 C2155 1.400 . S
C2152 H2137 0.960 . S
C2152 H2138 0.960 . S
C2152 H2139 0.960 . S
C2152 C2151 1.524 . S
C2153 C2150 1.403 . S
C2153 C2154 1.392 . S
C2153 C2157 1.495 . S
C2154 C2153 1.392 . S
C2154 C2155 1.385 . S
C2154 C2156 1.478 . S
C2155 H2149 0.930 . S
C2155 C2151 1.400 . S
C2155 C2154 1.385 . S
C2156 C2154 1.478 . S
C2156 C2158 1.381 . S
C2156 C2162 1.383 . S
C2157 C2153 1.495 . S
C2157 H2163 0.959 . S
C2157 H2164 0.961 . S
C2157 H2165 0.960 . S
C2158 C2156 1.381 . S
C2158 C2159 1.394 . S
C2158 H2166 0.930 . S
C2159 C2158 1.394 . S
C2159 C2160 1.383 . S
C2159 H2167 0.929 . S
C2160 C2159 1.383 . S
C2160 C2161 1.377 . S
C2161 H2145 0.930 . S
C2161 C2160 1.377 . S
C2161 C2162 1.379 . S
C2162 H2146 0.931 . S
C2162 C2156 1.383 . S
C2162 C2161 1.379 . S
H2163 C2157 0.959 . S
H2164 C2157 0.961 . S
H2165 C2157 0.960 . S
H2166 C2158 0.930 . S
H2167 C2159 0.929 . S
H2168 C2176 0.929 . S
H2169 C2178 0.930 . S
H2170 C2180 0.930 . S
H2171 C2183 0.929 . S
H2172 C2186 0.930 . S
H2173 C2188 0.960 . S
H2174 C2188 0.960 . S
H2175 C2188 0.960 . S
C2176 H2168 0.929 . S
C2176 C2177 1.377 . S
C2176 C2178 1.384 . S
C2177 C2176 1.377 . S
C2177 C2183 1.390 . S
C2178 H2169 0.930 . S
C2178 C2176 1.384 . S
C2178 C2179 1.372 . S
C2179 C2178 1.372 . S
C2179 C2180 1.400 . S
C2179 C2184 1.490 . S
C2180 H2170 0.930 . S
C2180 C2179 1.400 . S
C2180 C2183 1.386 . S
H2181 C2197 0.930 . S
H2182 C2198 0.931 . S
C2183 H2171 0.929 . S
C2183 C2177 1.390 . S
C2183 C2180 1.386 . S
C2184 C2179 1.490 . S
C2184 C2186 1.395 . S
C2184 C2187 1.403 . S
H2185 C2191 0.930 . S
C2186 H2172 0.930 . S
C2186 C2184 1.395 . S
C2186 C2189 1.403 . S
C2187 C2184 1.403 . S
C2187 C2188 1.524 . S
C2187 C2191 1.400 . S
C2188 H2173 0.960 . S
C2188 H2174 0.960 . S
C2188 H2175 0.960 . S
C2188 C2187 1.524 . S
C2189 C2186 1.403 . S
C2189 C2190 1.392 . S
C2189 C2193 1.495 . S
C2190 C2189 1.392 . S
C2190 C2191 1.385 . S
C2190 C2192 1.478 . S
C2191 H2185 0.930 . S
C2191 C2187 1.400 . S
C2191 C2190 1.385 . S
C2192 C2190 1.478 . S
C2192 C2194 1.381 . S
C2192 C2198 1.383 . S
C2193 C2189 1.495 . S
C2193 H2199 0.959 . S
C2193 H2200 0.961 . S
C2193 H2201 0.960 . S
C2194 C2192 1.381 . S
C2194 C2195 1.394 . S
C2194 H2202 0.930 . S
C2195 C2194 1.394 . S
C2195 C2196 1.383 . S
C2195 H2203 0.929 . S
C2196 C2195 1.383 . S
C2196 C2197 1.377 . S
C2197 H2181 0.930 . S
C2197 C2196 1.377 . S
C2197 C2198 1.379 . S
C2198 H2182 0.931 . S
C2198 C2192 1.383 . S
C2198 C2197 1.379 . S
H2199 C2193 0.959 . S
H2200 C2193 0.961 . S
H2201 C2193 0.960 . S
H2202 C2194 0.930 . S
H2203 C2195 0.929 . S
H2204 C2212 0.929 . S
H2205 C2214 0.930 . S
H2206 C2216 0.930 . S
H2207 C2219 0.929 . S
H2208 C2222 0.930 . S
H2209 C2224 0.960 . S
H2210 C2224 0.960 . S
H2211 C2224 0.960 . S
C2212 H2204 0.929 . S
C2212 C2213 1.377 . S
C2212 C2214 1.384 . S
C2213 C2212 1.377 . S
C2213 C2219 1.390 . S
C2214 H2205 0.930 . S
C2214 C2212 1.384 . S
C2214 C2215 1.372 . S
C2215 C2214 1.372 . S
C2215 C2216 1.400 . S
C2215 C2220 1.490 . S
C2216 H2206 0.930 . S
C2216 C2215 1.400 . S
C2216 C2219 1.386 . S
H2217 C2233 0.930 . S
H2218 C2234 0.931 . S
C2219 H2207 0.929 . S
C2219 C2213 1.390 . S
C2219 C2216 1.386 . S
C2220 C2215 1.490 . S
C2220 C2222 1.395 . S
C2220 C2223 1.403 . S
H2221 C2227 0.930 . S
C2222 H2208 0.930 . S
C2222 C2220 1.395 . S
C2222 C2225 1.403 . S
C2223 C2220 1.403 . S
C2223 C2224 1.524 . S
C2223 C2227 1.400 . S
C2224 H2209 0.960 . S
C2224 H2210 0.960 . S
C2224 H2211 0.960 . S
C2224 C2223 1.524 . S
C2225 C2222 1.403 . S
C2225 C2226 1.392 . S
C2225 C2229 1.495 . S
C2226 C2225 1.392 . S
C2226 C2227 1.385 . S
C2226 C2228 1.478 . S
C2227 H2221 0.930 . S
C2227 C2223 1.400 . S
C2227 C2226 1.385 . S
C2228 C2226 1.478 . S
C2228 C2230 1.381 . S
C2228 C2234 1.383 . S
C2229 C2225 1.495 . S
C2229 H2235 0.959 . S
C2229 H2236 0.961 . S
C2229 H2237 0.960 . S
C2230 C2228 1.381 . S
C2230 C2231 1.394 . S
C2230 H2238 0.930 . S
C2231 C2230 1.394 . S
C2231 C2232 1.383 . S
C2231 H2239 0.929 . S
C2232 C2231 1.383 . S
C2232 C2233 1.377 . S
C2233 H2217 0.930 . S
C2233 C2232 1.377 . S
C2233 C2234 1.379 . S
C2234 H2218 0.931 . S
C2234 C2228 1.383 . S
C2234 C2233 1.379 . S
H2235 C2229 0.959 . S
H2236 C2229 0.961 . S
H2237 C2229 0.960 . S
H2238 C2230 0.930 . S
H2239 C2231 0.929 . S
C540 C337 1.764 . S
C521 C2 1.782 . S
C576 C342 1.258 . S
C557 C48 1.266 . S
C612 C343 1.299 . S
C593 C97 1.302 . S
C629 C149 0.426 . S
C648 C347 0.583 . S
C665 C189 1.269 . S
C684 C350 1.218 . S
C720 C351 1.284 . S
C701 C202 1.296 . S
C737 C248 0.425 . S
C756 C328 0.625 . S
C773 C297 1.789 . S
C792 C344 1.774 . S
C828 C382 2.597 . S
C809 C31 2.676 . S
C845 C52 1.639 . S
C864 C408 1.580 . S
C900 C360 1.192 . S
C881 C88 1.245 . S
C936 C415 1.209 . S
C917 C122 1.234 . S
C953 C162 1.281 . S
C972 C369 1.246 . S
C1008 C411 2.559 . S
C989 C231 2.659 . S
C1025 C252 1.668 . S
C1044 C375 1.652 . S
C1061 C288 1.259 . S
C1080 C406 1.256 . S
C1097 C29 1.258 . S
C1116 C414 1.258 . S
C1133 C191 1.640 . S
C1152 C401 1.593 . S
C1188 C379 1.180 . S
C1169 C229 1.240 . S
C1224 C407 1.220 . S
C1205 C257 1.246 . S
C1241 C292 2.683 . S
C1260 C374 2.608 . S
C1277 C92 2.660 . S
C1296 C392 2.558 . S
C1332 C383 1.607 . S
C1313 C151 1.664 . S
C1349 C57 1.281 . S
C1368 C376 1.281 . S
C1385 C282 1.752 . S
C1404 C438 1.703 . S
C1421 C168 1.235 . S
C1440 C433 1.176 . S
C1476 C447 1.234 . S
C1457 C217 1.275 . S
C1512 C424 0.349 . S
C1493 C269 0.431 . S
C1529 C69 1.232 . S
C1548 C440 1.216 . S
C1584 C439 1.186 . S
C1565 C82 1.268 . S
C1601 C128 0.413 . S
C1620 C443 0.271 . S
C1637 C17 1.753 . S
C1656 C446 1.714 . S
C1673 C311 2.690 . S
C1692 C472 2.642 . S
C1728 C488 1.585 . S
C1709 C172 1.656 . S
C1745 C208 1.248 . S
C1764 C470 1.205 . S
C1781 C242 1.266 . S
C1800 C503 1.217 . S
C1836 C479 1.270 . S
C1817 C42 1.271 . S
C1853 C111 2.700 . S
C1872 C497 2.628 . S
C1908 C475 1.610 . S
C1889 C132 1.646 . S
C1944 C510 1.237 . S
C1925 C8 1.289 . S
C1980 C502 1.277 . S
C1961 C309 1.295 . S
C1997 C71 1.657 . S
C2016 C507 1.570 . S
C2033 C109 1.251 . S
C2052 C478 1.262 . S
C2088 C511 1.229 . S
C2069 C137 1.269 . S
C2105 C12 2.689 . S
C2124 C465 2.653 . S
C2141 C212 2.700 . S
C2160 C504 2.645 . S
C2196 C456 1.561 . S
C2177 C271 1.648 . S
C2232 C471 1.221 . S
C2213 C177 1.262 . S
