# Generated by pormake.
# Topology pth, (4,4)-cn, num edge types: 1
# Building blocks:
#     Node 0, Type 0, BuildingBlock: GALJAG_clean_sbu_0, # of connection points: 4
#     Node 1, Type 0, BuildingBlock: GALJAG_clean_sbu_0, # of connection points: 4
#     Node 2, Type 0, BuildingBlock: GALJAG_clean_sbu_0, # of connection points: 4
#     Node 3, Type 1, BuildingBlock: KOZSID_clean_sbu_0, # of connection points: 4
#     Node 4, Type 1, BuildingBlock: KOZSID_clean_sbu_0, # of connection points: 4
#     Node 5, Type 1, BuildingBlock: KOZSID_clean_sbu_0, # of connection points: 4
#     Edge 6, Type (0, 1), BuildingBlock: ZUJKAS_clean_linker_0, # of connection points: 2
#     Edge 7, Type (0, 1), BuildingBlock: ZUJKAS_clean_linker_0, # of connection points: 2
#     Edge 8, Type (0, 1), BuildingBlock: ZUJKAS_clean_linker_0, # of connection points: 2
#     Edge 9, Type (0, 1), BuildingBlock: ZUJKAS_clean_linker_0, # of connection points: 2
#     Edge 10, Type (0, 1), BuildingBlock: ZUJKAS_clean_linker_0, # of connection points: 2
#     Edge 11, Type (0, 1), BuildingBlock: ZUJKAS_clean_linker_0, # of connection points: 2
#     Edge 12, Type (0, 1), BuildingBlock: ZUJKAS_clean_linker_0, # of connection points: 2
#     Edge 13, Type (0, 1), BuildingBlock: ZUJKAS_clean_linker_0, # of connection points: 2
#     Edge 14, Type (0, 1), BuildingBlock: ZUJKAS_clean_linker_0, # of connection points: 2
#     Edge 15, Type (0, 1), BuildingBlock: ZUJKAS_clean_linker_0, # of connection points: 2
#     Edge 16, Type (0, 1), BuildingBlock: ZUJKAS_clean_linker_0, # of connection points: 2
#     Edge 17, Type (0, 1), BuildingBlock: ZUJKAS_clean_linker_0, # of connection points: 2
# Relax obj value: 0.002
# Max RMSD: 0.041
# Mean RMSD: 0.024
data_MOF--net-pth--node1-GALJAG_clean_sbu_0--node2-KOZSID_clean_sbu_0--edge1-ZUJKAS_clean_linker_0
_symmetry_space_group_name_H-M    P1
_symmetry_Int_Tables_number       1
_symmetry_cell_setting            triclinic
loop_
_symmetry_equiv_pos_as_xyz
'x, y, z'
_cell_length_a     34.36962
_cell_length_b     34.369421
_cell_length_c     74.744638
_cell_angle_alpha  88.065598
_cell_angle_beta   88.054255
_cell_angle_gamma 119.98678
loop_
_atom_site_label
_atom_site_type_symbol
_atom_site_fract_x
_atom_site_fract_y
_atom_site_fract_z
_atom_type_partial_charge
In0 In 0.04944 0.04135 0.03315 0.0
O1 O 0.01838 0.08392 0.0414 0.0
O2 O 0.0669 0.0828 0.05792 0.0
C3 C 0.98625 0.98541 0.01135 0.0
C4 C 0.11891 0.10358 0.01147 0.0
C5 C 0.05394 0.97965 0.05505 0.0
O6 O 0.97644 0.99815 0.02557 0.0
O7 O 0.02782 0.00164 0.00791 0.0
O8 O 0.08713 0.00803 0.045 0.0
O9 O 0.0191 0.98292 0.05416 0.0
C10 C 0.04082 0.09794 0.05511 0.0
O11 O 0.12069 0.07215 0.01998 0.0
O12 O 0.08215 0.10312 0.01377 0.0
In13 In 0.03751 0.0602 0.3662 0.0
O14 O 0.07205 0.13293 0.35446 0.0
O15 O 0.01133 0.08504 0.34348 0.0
C16 C 0.1023 0.06694 0.38764 0.0
C17 C 0.9716 0.05497 0.38864 0.0
C18 C 0.03177 0.99428 0.34568 0.0
O19 O 0.11106 0.09125 0.37338 0.0
O20 O 0.061 0.03987 0.39121 0.0
O21 O 0.0023 0.98713 0.3579 0.0
O22 O 0.06343 0.0345 0.34371 0.0
C23 C 0.04268 0.12544 0.34328 0.0
O24 O 0.96541 0.02364 0.37865 0.0
O25 O 0.01106 0.08837 0.38747 0.0
In26 In 0.05173 0.04127 0.69974 0.0
O27 O 0.02224 0.97114 0.71381 0.0
O28 O 0.98985 0.00875 0.71916 0.0
C29 C 0.11341 0.03871 0.67711 0.0
C30 C 0.99615 0.051 0.67756 0.0
C31 C 0.10715 0.10211 0.72232 0.0
O32 O 0.08167 0.00369 0.68517 0.0
O33 O 0.11353 0.07457 0.6803 0.0
O34 O 0.08991 0.11249 0.70971 0.0
O35 O 0.09568 0.06104 0.72374 0.0
C36 C 0.99036 0.97265 0.72204 0.0
O37 O 0.01343 0.07616 0.69034 0.0
O38 O 0.00762 0.02168 0.67578 0.0
C39 C 0.08665 0.62873 0.17155 0.0
C40 C 0.12868 0.66305 0.16497 0.0
C41 C 0.15973 0.6582 0.17416 0.0
C42 C 0.13504 0.62153 0.18583 0.0
N43 N 0.09003 0.60217 0.18451 0.0
Co44 Co 0.04176 0.54986 0.19975 0.0
N45 N 0.08755 0.5443 0.2139 0.0
C46 C 0.13286 0.56991 0.21159 0.0
C47 C 0.15558 0.5568 0.22273 0.0
C48 C 0.12289 0.52014 0.23259 0.0
C49 C 0.08194 0.51313 0.22689 0.0
N50 N 0.99349 0.49811 0.21521 0.0
C51 C 0.99688 0.4717 0.22822 0.0
C52 C 0.95495 0.43895 0.23552 0.0
C53 C 0.92384 0.44434 0.22659 0.0
C54 C 0.94845 0.48002 0.21444 0.0
N55 N 0.99599 0.55484 0.18538 0.0
C56 C 0.95072 0.52806 0.18721 0.0
C57 C 0.92809 0.54003 0.17553 0.0
C58 C 0.96078 0.57694 0.16576 0.0
C59 C 1.00161 0.58549 0.17215 0.0
N60 N 0.04277 0.50696 0.18279 0.0
C61 C 0.04398 0.44227 0.1609 0.0
C62 C 0.00348 0.43708 0.168 0.0
C63 C 0.00362 0.46966 0.17868 0.0
C64 C 0.08386 0.48108 0.16447 0.0
C65 C 0.08252 0.51268 0.17542 0.0
N66 N 0.04062 0.59263 0.21675 0.0
C67 C 0.99924 0.62094 0.23337 0.0
C68 C 0.03884 0.65541 0.23973 0.0
C69 C 0.07935 0.6575 0.23453 0.0
C70 C 0.07947 0.62607 0.22315 0.0
C71 C 1.00087 0.5902 0.22208 0.0
H72 H 0.11144 0.6297 0.21964 0.0
H73 H 0.96949 0.56508 0.21768 0.0
H74 H 0.97158 0.46357 0.18363 0.0
H75 H 0.1141 0.54107 0.17796 0.0
C76 C 0.15309 0.60523 0.19849 0.0
C77 C 0.04459 0.62407 0.16566 0.0
C78 C 0.0388 0.47518 0.23361 0.0
C79 C 0.93036 0.49449 0.20105 0.0
H80 H 0.13619 0.68944 0.15483 0.0
H81 H 0.19596 0.67945 0.17277 0.0
H82 H 0.19163 0.57153 0.22333 0.0
H83 H 0.12859 0.50028 0.24257 0.0
H84 H 0.94765 0.41318 0.24594 0.0
H85 H 0.88758 0.42373 0.22831 0.0
H86 H 0.89206 0.52461 0.1746 0.0
H87 H 0.9552 0.59604 0.15538 0.0
H88 H 0.97164 0.40794 0.1653 0.0
H89 H 0.1161 0.4865 0.15927 0.0
H90 H 0.96699 0.61808 0.23677 0.0
H91 H 0.11095 0.68313 0.2393 0.0
C92 C 0.46708 0.00798 0.56097 0.0
C93 C 0.43425 0.96602 0.56826 0.0
C94 C 0.43961 0.93489 0.55936 0.0
C95 C 0.4754 0.95948 0.54728 0.0
N96 N 0.49376 0.00452 0.5481 0.0
Co97 Co 0.54596 0.05266 0.53283 0.0
N98 N 0.55132 0.00672 0.51867 0.0
C99 C 0.52515 0.96142 0.52081 0.0
C100 C 0.53777 0.93859 0.50952 0.0
C101 C 0.57455 0.97117 0.49969 0.0
C102 C 0.5822 0.01219 0.50557 0.0
N103 N 0.59829 0.10079 0.51757 0.0
C104 C 0.62496 0.09725 0.50471 0.0
C105 C 0.65853 0.13916 0.49771 0.0
C106 C 0.6534 0.17036 0.50669 0.0
C107 C 0.6171 0.14584 0.51856 0.0
N108 N 0.54043 0.09858 0.54696 0.0
C109 C 0.56654 0.14389 0.54477 0.0
C110 C 0.55319 0.16672 0.55573 0.0
C111 C 0.51597 0.13416 0.56536 0.0
C112 C 0.50886 0.09308 0.55977 0.0
N113 N 0.58858 0.05174 0.54997 0.0
C114 C 0.65248 0.05122 0.57261 0.0
C115 C 0.65504 0.09153 0.56681 0.0
C116 C 0.62309 0.09102 0.55562 0.0
C117 C 0.61679 0.01108 0.56717 0.0
C118 C 0.5854 0.01209 0.55602 0.0
N119 N 0.50339 0.05369 0.51571 0.0
C120 C 0.47554 0.09514 0.49887 0.0
C121 C 0.4392 0.05532 0.49365 0.0
C122 C 0.43621 0.01465 0.49919 0.0
C123 C 0.46831 0.01459 0.5102 0.0
C124 C 0.50716 0.09359 0.50966 0.0
H125 H 0.46361 0.98249 0.51431 0.0
H126 H 0.53402 0.12516 0.51309 0.0
H127 H 0.62748 0.12294 0.55152 0.0
H128 H 0.55913 0.98037 0.55236 0.0
C129 C 0.4908 0.94127 0.53432 0.0
C130 C 0.47034 0.04992 0.56626 0.0
C131 C 0.62065 0.05519 0.49902 0.0
C132 C 0.60137 0.16406 0.53142 0.0
H133 H 0.40849 0.95868 0.57869 0.0
H134 H 0.41913 0.89863 0.56116 0.0
H135 H 0.52283 0.90253 0.50889 0.0
H136 H 0.59419 0.96528 0.48966 0.0
H137 H 0.68448 0.14636 0.48739 0.0
H138 H 0.67429 0.2066 0.50504 0.0
H139 H 0.56784 0.20279 0.55621 0.0
H140 H 0.49572 0.14021 0.57502 0.0
H141 H 0.68227 0.12359 0.5705 0.0
H142 H 0.6129 0.97889 0.57154 0.0
H143 H 0.47967 0.12751 0.49462 0.0
H144 H 0.40851 0.9829 0.49548 0.0
C145 C 0.63758 0.57059 0.83876 0.0
C146 C 0.67061 0.56193 0.8322 0.0
C147 C 0.66498 0.5249 0.84185 0.0
C148 C 0.6288 0.51292 0.8536 0.0
N149 N 0.61051 0.53966 0.85189 0.0
Co150 Co 0.55753 0.53429 0.86629 0.0
N151 N 0.55174 0.4822 0.8815 0.0
C152 C 0.5787 0.46402 0.88054 0.0
C153 C 0.56638 0.42857 0.89272 0.0
C154 C 0.52891 0.4233 0.90188 0.0
C155 C 0.52034 0.4558 0.89461 0.0
N156 N 0.50415 0.52851 0.88059 0.0
C157 C 0.47655 0.49696 0.89348 0.0
C158 C 0.44156 0.50372 0.89912 0.0
C159 C 0.44717 0.54072 0.88948 0.0
C160 C 0.48487 0.55427 0.87844 0.0
N161 N 0.56374 0.5868 0.85116 0.0
C162 C 0.53761 0.60587 0.8525 0.0
C163 C 0.55157 0.64301 0.84109 0.0
C164 C 0.58925 0.64848 0.83204 0.0
C165 C 0.59597 0.61397 0.83841 0.0
N166 N 0.51611 0.49178 0.84922 0.0
C167 C 0.45369 0.42882 0.82667 0.0
C168 C 0.45133 0.46664 0.8313 0.0
C169 C 0.48256 0.49737 0.84244 0.0
C170 C 0.48844 0.42352 0.83327 0.0
C171 C 0.5191 0.45519 0.84438 0.0
N172 N 0.59889 0.57687 0.88334 0.0
C173 C 0.62387 0.64386 0.89987 0.0
C174 C 0.66075 0.6412 0.90555 0.0
C175 C 0.66557 0.60512 0.90034 0.0
C176 C 0.6346 0.57368 0.88924 0.0
C177 C 0.59346 0.61147 0.889 0.0
H178 H 0.64063 0.54751 0.88541 0.0
H179 H 0.5661 0.61549 0.88522 0.0
H180 H 0.47838 0.52503 0.84555 0.0
H181 H 0.54465 0.44912 0.849 0.0
C182 C 0.61337 0.47892 0.86722 0.0
C183 C 0.63462 0.60971 0.83261 0.0
C184 C 0.48088 0.45888 0.90008 0.0
C185 C 0.5016 0.58956 0.8653 0.0
H186 H 0.69673 0.58104 0.82179 0.0
H187 H 0.68559 0.50935 0.84077 0.0
H188 H 0.58205 0.4082 0.89442 0.0
H189 H 0.50946 0.39777 0.91244 0.0
H190 H 0.41411 0.48346 0.90888 0.0
H191 H 0.42556 0.55523 0.89006 0.0
H192 H 0.53689 0.66438 0.83987 0.0
H193 H 0.60997 0.67556 0.82221 0.0
H194 H 0.42478 0.47211 0.82673 0.0
H195 H 0.49217 0.39513 0.82985 0.0
H196 H 0.61832 0.67081 0.90385 0.0
H197 H 0.69376 0.60176 0.9044 0.0
H198 H 0.07459 0.12212 0.08798 0.0
H199 H 0.0731 0.17902 0.10635 0.0
H200 H 0.00274 0.20744 0.06587 0.0
H201 H 0.00262 0.14938 0.04778 0.0
H202 H 0.11014 0.2667 0.09976 0.0
H203 H 0.92577 0.19374 0.10962 0.0
H204 H 0.95054 0.16275 0.10038 0.0
H205 H 0.94433 0.20275 0.08637 0.0
C206 C 0.05833 0.14015 0.0831 0.0
C207 C 0.0384 0.13108 0.06651 0.0
C208 C 0.0576 0.17274 0.09359 0.0
C209 C 0.03718 0.1971 0.08765 0.0
C210 C 0.01756 0.18827 0.071 0.0
H211 H 0.09127 0.4531 0.1291 0.0
H212 H 0.09036 0.39421 0.11123 0.0
C213 C 0.01773 0.15524 0.06061 0.0
C214 C 0.03804 0.23285 0.09859 0.0
H215 H 0.97133 0.26923 0.11789 0.0
C216 C 0.07974 0.2671 0.1038 0.0
C217 C 0.99835 0.23314 0.10407 0.0
C218 C 0.9522 0.19587 0.09999 0.0
C219 C 0.08292 0.30179 0.11419 0.0
C220 C 0.04342 0.30306 0.11905 0.0
C221 C 0.00168 0.26857 0.11399 0.0
C222 C 0.04435 0.33911 0.12979 0.0
C223 C 0.12846 0.33602 0.12019 0.0
C224 C 0.01785 0.32777 0.14591 0.0
C225 C 0.01781 0.36128 0.15597 0.0
C226 C 0.0444 0.4069 0.15016 0.0
C227 C 0.07094 0.41828 0.13402 0.0
C228 C 0.07057 0.38465 0.12385 0.0
H229 H 0.15221 0.32296 0.11997 0.0
H230 H 0.14301 0.36652 0.11093 0.0
H231 H 0.12581 0.34599 0.13396 0.0
H232 H 0.9973 0.29291 0.15076 0.0
H233 H 0.99734 0.35152 0.16843 0.0
H234 H 0.88439 0.98645 0.39401 0.0
H235 H 0.82384 0.9859 0.41256 0.0
H236 H 0.91627 0.11953 0.42825 0.0
H237 H 0.97681 0.12046 0.40971 0.0
H238 H 0.81945 0.99782 0.45005 0.0
H239 H 0.81063 0.13009 0.40862 0.0
H240 H 0.83863 0.1009 0.40056 0.0
H241 H 0.86591 0.14559 0.41548 0.0
C242 C 0.89179 0.01567 0.40144 0.0
C243 C 0.93529 0.05358 0.40034 0.0
C244 C 0.85721 0.0153 0.41202 0.0
C245 C 0.86546 0.05293 0.42155 0.0
C246 C 0.90903 0.09046 0.42074 0.0
H247 H 0.70275 0.07176 0.50866 0.0
H248 H 0.76215 0.07077 0.48974 0.0
C249 C 0.94362 0.09082 0.41022 0.0
C250 C 0.82859 0.05296 0.43243 0.0
H251 H 0.76857 0.10718 0.43663 0.0
C252 C 0.80818 0.0216 0.44711 0.0
C253 C 0.81365 0.08369 0.4284 0.0
C254 C 0.83299 0.11675 0.41232 0.0
C255 C 0.77378 0.02077 0.45811 0.0
C256 C 0.75985 0.05248 0.45442 0.0
C257 C 0.77963 0.08321 0.43952 0.0
C258 C 0.72453 0.05407 0.46579 0.0
C259 C 0.75224 0.98561 0.47344 0.0
C260 C 0.68434 0.04633 0.45846 0.0
C261 C 0.65068 0.04717 0.46921 0.0
C262 C 0.65691 0.05598 0.48739 0.0
C263 C 0.6974 0.06468 0.49465 0.0
C264 C 0.73104 0.06382 0.48392 0.0
H265 H 0.7586 0.95723 0.47175 0.0
H266 H 0.76657 0.00115 0.48614 0.0
H267 H 0.71533 0.97204 0.47471 0.0
H268 H 0.67879 0.03904 0.44449 0.0
H269 H 0.61963 0.04054 0.46342 0.0
H270 H 0.91287 0.9642 0.73689 0.0
H271 H 0.85484 0.90168 0.75606 0.0
H272 H 0.93172 0.83383 0.7535 0.0
H273 H 0.98942 0.89587 0.73379 0.0
H274 H 0.84462 0.77682 0.749 0.0
H275 H 0.85836 0.87386 0.80838 0.0
H276 H 0.8474 0.89726 0.78869 0.0
H277 H 0.89935 0.89656 0.78961 0.0
C278 C 0.91756 0.93608 0.74048 0.0
C279 C 0.95582 0.93504 0.73393 0.0
C280 C 0.88448 0.90048 0.75155 0.0
C281 C 0.88934 0.86347 0.75656 0.0
C282 C 0.9274 0.86218 0.74991 0.0
H283 H 0.7196 0.66566 0.84225 0.0
H284 H 0.78292 0.72544 0.82363 0.0
C285 C 0.96035 0.89765 0.73868 0.0
C286 C 0.85402 0.82556 0.76828 0.0
H287 H 0.79298 0.80082 0.80822 0.0
C288 C 0.83357 0.782 0.76202 0.0
C289 C 0.84008 0.83215 0.7854 0.0
C290 C 0.86278 0.87741 0.7935 0.0
C291 C 0.79882 0.74508 0.7722 0.0
C292 C 0.78322 0.75212 0.78888 0.0
C293 C 0.80447 0.79549 0.79533 0.0
C294 C 0.7451 0.71506 0.79993 0.0
C295 C 0.77972 0.69885 0.76507 0.0
C296 C 0.70272 0.68956 0.79286 0.0
C297 C 0.66683 0.65514 0.80341 0.0
C298 C 0.67249 0.64637 0.82131 0.0
C299 C 0.71463 0.67205 0.82846 0.0
C300 C 0.75064 0.70612 0.81786 0.0
H301 H 0.80403 0.69717 0.75539 0.0
H302 H 0.77043 0.67271 0.77609 0.0
H303 H 0.74905 0.69086 0.75792 0.0
H304 H 0.69726 0.69652 0.77922 0.0
H305 H 0.63455 0.63553 0.79767 0.0
H306 H 0.98541 0.91439 0.07671 0.0
H307 H 0.98606 0.85501 0.09541 0.0
H308 H 0.12485 0.90522 0.07818 0.0
H309 H 0.1246 0.96515 0.05948 0.0
H310 H 0.00416 0.78808 0.08423 0.0
H311 H 0.12445 0.89535 0.13338 0.0
H312 H 0.0971 0.91563 0.11861 0.0
H313 H 0.14403 0.91083 0.11023 0.0
C314 C 0.0162 0.91302 0.07697 0.0
C315 C 0.05503 0.94455 0.06667 0.0
C316 C 0.01646 0.879 0.08764 0.0
C317 C 0.0556 0.87598 0.08832 0.0
C318 C 0.09449 0.9074 0.07806 0.0
H319 H 0.06768 0.64181 0.12986 0.0
H320 H 0.07077 0.70291 0.11063 0.0
C321 C 0.09425 0.94148 0.06734 0.0
C322 C 0.05506 0.83914 0.09944 0.0
H323 H 0.10073 0.81767 0.1357 0.0
C324 C 0.0253 0.7945 0.09547 0.0
C325 C 0.08234 0.84767 0.11421 0.0
C326 C 0.11356 0.89492 0.11952 0.0
C327 C 0.02223 0.7581 0.10582 0.0
C328 C 0.05008 0.76663 0.12039 0.0
C329 C 0.07966 0.81127 0.12443 0.0
C330 C 0.04826 0.72966 0.13187 0.0
C331 C 0.98849 0.71083 0.10132 0.0
C332 C 0.03532 0.72495 0.1502 0.0
C333 C 0.03375 0.69031 0.16112 0.0
C334 C 0.04541 0.66015 0.1539 0.0
C335 C 0.05843 0.66479 0.1356 0.0
C336 C 0.06 0.69944 0.12466 0.0
H337 H 0.9626 0.71015 0.09262 0.0
H338 H 0.00625 0.69608 0.09404 0.0
H339 H 0.97134 0.68923 0.1137 0.0
H340 H 0.02624 0.74798 0.15601 0.0
H341 H 0.02371 0.68718 0.17524 0.0
H342 H 0.09147 0.03049 0.42166 0.0
H343 H 0.14925 0.03101 0.44004 0.0
H344 H 0.24982 0.10519 0.39713 0.0
H345 H 0.19242 0.10637 0.379 0.0
H346 H 0.19992 0.99492 0.43499 0.0
H347 H 0.31179 0.17874 0.43813 0.0
H348 H 0.25642 0.15468 0.42965 0.0
H349 H 0.30331 0.16189 0.4155 0.0
C350 C 0.12601 0.04737 0.41624 0.0
C351 C 0.13753 0.06868 0.39896 0.0
C352 C 0.159 0.04757 0.42674 0.0
C353 C 0.20411 0.06876 0.42011 0.0
C354 C 0.21557 0.08976 0.40277 0.0
H355 H 0.40274 0.00964 0.46375 0.0
H356 H 0.34579 0.01251 0.44581 0.0
C357 C 0.18267 0.09017 0.39236 0.0
C358 C 0.23862 0.06716 0.4311 0.0
H359 H 0.34144 0.13251 0.44789 0.0
C360 C 0.23075 0.02506 0.4379 0.0
C361 C 0.27862 0.10649 0.43513 0.0
C362 C 0.28786 0.153 0.42938 0.0
C363 C 0.26183 0.02113 0.44843 0.0
C364 C 0.30272 0.06028 0.45178 0.0
C365 C 0.31038 0.10242 0.44515 0.0
C366 C 0.33754 0.05852 0.46249 0.0
C367 C 0.24988 0.97514 0.45621 0.0
C368 C 0.35303 0.08453 0.47749 0.0
C369 C 0.38611 0.08355 0.48754 0.0
C370 C 0.40425 0.05635 0.48285 0.0
C371 C 0.38888 0.03041 0.46781 0.0
C372 C 0.35619 0.03187 0.45761 0.0
H373 H 0.21292 0.95173 0.45705 0.0
H374 H 0.26543 0.96063 0.44742 0.0
H375 H 0.26242 0.977 0.46983 0.0
H376 H 0.33926 0.10542 0.48152 0.0
H377 H 0.39708 0.10363 0.49915 0.0
H378 H 0.14642 0.08658 0.75069 0.0
H379 H 0.20407 0.14224 0.76881 0.0
H380 H 0.20139 0.24897 0.73783 0.0
H381 H 0.14311 0.19341 0.71986 0.0
H382 H 0.28858 0.21018 0.75723 0.0
H383 H 0.19119 0.28114 0.78894 0.0
H384 H 0.16472 0.22914 0.77769 0.0
H385 H 0.19105 0.28225 0.76492 0.0
C386 C 0.15773 0.12188 0.74787 0.0
C387 C 0.14009 0.13563 0.73391 0.0
C388 C 0.19074 0.15364 0.75821 0.0
C389 C 0.20666 0.19973 0.75483 0.0
C390 C 0.18893 0.21354 0.74094 0.0
H391 H 0.41632 0.44379 0.79727 0.0
H392 H 0.35732 0.38783 0.77973 0.0
C393 C 0.15578 0.18177 0.73063 0.0
C394 C 0.24321 0.23332 0.76532 0.0
H395 H 0.26999 0.32001 0.79257 0.0
C396 C 0.28445 0.23404 0.76504 0.0
C397 C 0.23778 0.26448 0.77547 0.0
C398 C 0.19368 0.26408 0.77695 0.0
C399 C 0.32065 0.26554 0.77439 0.0
C400 C 0.31525 0.29677 0.78448 0.0
C401 C 0.27405 0.29609 0.78477 0.0
C402 C 0.3519 0.33042 0.79488 0.0
C403 C 0.36467 0.26578 0.77309 0.0
C404 C 0.36829 0.31667 0.80926 0.0
C405 C 0.40187 0.34856 0.81939 0.0
C406 C 0.41953 0.39487 0.81538 0.0
C407 C 0.40312 0.40844 0.80087 0.0
C408 C 0.36954 0.37653 0.79078 0.0
H409 H 0.36679 0.24741 0.76149 0.0
H410 H 0.3936 0.30075 0.77182 0.0
H411 H 0.36776 0.24903 0.78547 0.0
H412 H 0.35451 0.28123 0.81287 0.0
H413 H 0.41313 0.33691 0.83065 0.0
H414 H 0.96067 0.10633 0.68059 0.0
H415 H 0.90219 0.10703 0.66291 0.0
H416 H 0.89901 0.00316 0.63114 0.0
H417 H 0.95683 0.00176 0.64889 0.0
H418 H 0.9006 0.12317 0.62611 0.0
H419 H 0.76734 0.9499 0.64854 0.0
H420 H 0.81936 0.97981 0.6596 0.0
H421 H 0.81775 0.95333 0.63908 0.0
C422 C 0.94759 0.08375 0.66979 0.0
C423 C 0.9631 0.05377 0.6662 0.0
C424 C 0.91419 0.08418 0.65972 0.0
C425 C 0.89564 0.05454 0.64594 0.0
C426 C 0.91209 0.02556 0.64198 0.0
H427 H 0.69225 0.99954 0.56984 0.0
H428 H 0.75125 0.00135 0.58782 0.0
C429 C 0.94535 0.02503 0.65206 0.0
C430 C 0.85915 0.05392 0.63568 0.0
H431 H 0.75063 0.98574 0.62474 0.0
C432 C 0.86771 0.09323 0.62588 0.0
C433 C 0.81626 0.01479 0.63543 0.0
C434 C 0.80435 0.97217 0.64635 0.0
C435 C 0.83489 0.09417 0.61546 0.0
C436 C 0.79212 0.05494 0.61511 0.0
C437 C 0.78348 0.01572 0.625 0.0
C438 C 0.75593 0.0537 0.60443 0.0
C439 C 0.84666 0.13681 0.60458 0.0
C440 C 0.73839 0.08195 0.60803 0.0
C441 C 0.70457 0.08089 0.59782 0.0
C442 C 0.68734 0.05128 0.58389 0.0
C443 C 0.70441 0.0224 0.58057 0.0
C444 C 0.7383 0.02357 0.59077 0.0
H445 H 0.88365 0.15965 0.60272 0.0
H446 H 0.83245 0.12916 0.59118 0.0
H447 H 0.83224 0.15498 0.61167 0.0
H448 H 0.75072 0.10467 0.6188 0.0
H449 H 0.69162 0.10301 0.60093 0.0
H450 H 0.89666 0.93038 0.02014 0.0
H451 H 0.84107 0.87095 0.00259 0.0
H452 H 0.94223 0.90666 0.95963 0.0
H453 H 0.99832 0.96482 0.97743 0.0
H454 H 0.8074 0.87121 0.97159 0.0
H455 H 0.89623 0.77467 0.96615 0.0
H456 H 0.91341 0.82052 0.98074 0.0
H457 H 0.93032 0.83156 0.95719 0.0
C458 C 0.907 0.92556 0.00694 0.0
C459 C 0.95188 0.95196 1.0002 0.0
C460 C 0.87523 0.89156 0.99693 0.0
C461 C 0.88765 0.88354 0.97994 0.0
C462 C 0.93212 0.91114 0.97292 0.0
H463 H 0.69997 0.73224 0.90009 0.0
H464 H 0.75438 0.79033 0.91837 0.0
C465 C 0.96406 0.94467 0.98304 0.0
C466 C 0.85396 0.84664 0.96955 0.0
H467 H 0.83491 0.75396 0.94735 0.0
C468 C 0.81334 0.84544 0.96638 0.0
C469 C 0.86121 0.8124 0.96303 0.0
C470 C 0.90244 0.8095 0.96711 0.0
C471 C 0.78024 0.81158 0.9566 0.0
C472 C 0.78855 0.77877 0.94928 0.0
C473 C 0.82876 0.77942 0.95275 0.0
C474 C 0.75601 0.74345 0.938 0.0
C475 C 0.73634 0.81086 0.95458 0.0
C476 C 0.74013 0.69772 0.94251 0.0
C477 C 0.70957 0.66444 0.93189 0.0
C478 C 0.69414 0.6763 0.91662 0.0
C479 C 0.71061 0.72208 0.91198 0.0
C480 C 0.74155 0.75531 0.92247 0.0
H481 H 0.72973 0.82844 0.96545 0.0
H482 H 0.738 0.82855 0.94164 0.0
H483 H 0.70759 0.77588 0.95471 0.0
H484 H 0.75103 0.68774 0.95436 0.0
H485 H 0.69734 0.62942 0.9358 0.0
H486 H 0.9673 0.90496 0.34722 0.0
H487 H 0.96735 0.84552 0.32993 0.0
H488 H 0.09301 0.9433 0.30243 0.0
H489 H 0.09342 0.00263 0.31969 0.0
H490 H 0.97008 0.83867 0.29225 0.0
H491 H 0.11915 0.84601 0.32203 0.0
H492 H 0.08905 0.87122 0.33196 0.0
H493 H 0.1286 0.89941 0.31311 0.0
C494 C 0.99491 0.91374 0.33748 0.0
C495 C 0.03048 0.9584 0.33487 0.0
C496 C 0.99489 0.87979 0.32762 0.0
C497 C 0.03058 0.8899 0.31513 0.0
C498 C 0.06562 0.93461 0.31227 0.0
H499 H 0.09873 0.74614 0.23912 0.0
H500 H 0.09564 0.80172 0.25782 0.0
C501 C 0.06564 0.96852 0.32207 0.0
C502 C 0.03109 0.85394 0.30489 0.0
H503 H 0.09275 0.80289 0.29638 0.0
C504 C 0.99666 0.83055 0.29325 0.0
C505 C 0.06586 0.84347 0.30622 0.0
C506 C 0.10257 0.86601 0.31912 0.0
C507 C 0.99674 0.79777 0.28253 0.0
C508 C 0.03184 0.78775 0.28371 0.0
C509 C 0.066 0.81081 0.29547 0.0
C510 C 0.03391 0.7537 0.27269 0.0
C511 C 0.95999 0.77497 0.26968 0.0
C512 C 1.00066 0.70817 0.27511 0.0
C513 C 0.00253 0.67622 0.26457 0.0
C514 C 0.03776 0.68918 0.25141 0.0
C515 C 0.07142 0.73483 0.24925 0.0
C516 C 0.06957 0.76672 0.25984 0.0
H517 H 0.94134 0.79328 0.26756 0.0
H518 H 0.9741 0.77229 0.25649 0.0
H519 H 0.93564 0.74041 0.27519 0.0
H520 H 0.97334 0.69731 0.28521 0.0
H521 H 0.97652 0.64129 0.26685 0.0
H522 H 0.1161 0.96561 0.66516 0.0
H523 H 0.17528 0.96569 0.64589 0.0
H524 H 0.24958 0.11084 0.64353 0.0
H525 H 0.19004 0.11098 0.66228 0.0
H526 H 0.24859 0.07991 0.61114 0.0
H527 H 0.29679 0.98972 0.66052 0.0
H528 H 0.23847 0.95884 0.65575 0.0
H529 H 0.26004 0.01113 0.66655 0.0
C530 C 0.14507 0.9975 0.66051 0.0
C531 C 0.14853 0.03828 0.66528 0.0
C532 C 0.17902 0.99751 0.64962 0.0
C533 C 0.21733 0.03826 0.64354 0.0
C534 C 0.22046 0.07898 0.64811 0.0
H535 H 0.4721 0.07417 0.60075 0.0
H536 H 0.41029 0.07179 0.61917 0.0
C537 C 0.1864 0.079 0.65884 0.0
C538 C 0.25399 0.03883 0.6322 0.0
H539 H 0.33004 0.00242 0.63098 0.0
C540 C 0.26645 0.06301 0.61549 0.0
C541 C 0.27775 0.01735 0.638 0.0
C542 C 0.26795 0.99317 0.65625 0.0
C543 C 0.30181 0.06616 0.60438 0.0
C544 C 0.32458 0.04344 0.60992 0.0
C545 C 0.3123 0.01946 0.62667 0.0
C546 C 0.36187 0.0449 0.59871 0.0
C547 C 0.31515 0.09484 0.58707 0.0
C548 C 0.35508 0.03007 0.5812 0.0
C549 C 0.39048 0.03211 0.57064 0.0
C550 C 0.43305 0.0484 0.57751 0.0
C551 C 0.43962 0.0621 0.59515 0.0
C552 C 0.40435 0.06052 0.60565 0.0
H553 H 0.30378 0.11993 0.58736 0.0
H554 H 0.35219 0.113 0.58425 0.0
H555 H 0.29914 0.07296 0.57585 0.0
H556 H 0.32234 0.01671 0.57572 0.0
H557 H 0.38467 0.02084 0.55712 0.0
H558 H 0.1971 0.10631 1.00041 0.0
H559 H 0.25963 0.16519 0.98126 0.0
H560 H 0.18943 0.2397 0.9779 0.0
H561 H 0.12641 0.18043 0.99647 0.0
H562 H 0.22395 0.23771 0.94585 0.0
H563 H 0.35545 0.28697 0.99511 0.0
H564 H 0.32864 0.22852 0.99056 0.0
H565 H 0.29644 0.25037 1.00125 0.0
C566 C 0.19511 0.13531 0.99559 0.0
C567 C 0.15694 0.13884 0.99997 0.0
C568 C 0.23099 0.1691 0.98477 0.0
C569 C 0.22964 0.20733 0.9784 0.0
C570 C 0.19135 0.21063 0.98269 0.0
H571 H 0.45402 0.46127 0.93462 0.0
H572 H 0.39252 0.39963 0.95334 0.0
C573 C 0.15535 0.17672 0.99332 0.0
C574 C 0.26744 0.24358 0.96693 0.0
H575 H 0.38014 0.31951 0.96546 0.0
C576 C 0.25809 0.25564 0.95016 0.0
C577 C 0.3119 0.26742 0.97265 0.0
C578 C 0.32373 0.25803 0.99094 0.0
C579 C 0.29185 0.29073 0.93894 0.0
C580 C 0.33657 0.31361 0.94441 0.0
C581 C 0.34594 0.30168 0.9612 0.0
C582 C 0.37392 0.3507 0.93308 0.0
C583 C 0.27891 0.30371 0.92158 0.0
C584 C 0.3843 0.34355 0.91559 0.0
C585 C 0.41883 0.37884 0.90486 0.0
C586 C 0.44395 0.42167 0.91154 0.0
C587 C 0.43453 0.42859 0.92917 0.0
C588 C 0.39967 0.39341 0.93984 0.0
H589 H 0.2424 0.29232 0.92189 0.0
H590 H 0.29815 0.34071 0.91865 0.0
H591 H 0.28635 0.28749 0.91043 0.0
H592 H 0.36579 0.31064 0.91025 0.0
H593 H 0.42605 0.37276 0.89135 0.0
H594 H 0.10799 0.21423 0.3395 0.0
H595 H 0.10743 0.27407 0.32087 0.0
H596 H 0.97911 0.17766 0.30185 0.0
H597 H 0.97935 0.11773 0.3204 0.0
H598 H 0.0996 0.27922 0.28247 0.0
H599 H 0.95927 0.27846 0.32199 0.0
H600 H 0.99062 0.25336 0.33065 0.0
H601 H 0.94819 0.22447 0.31501 0.0
C602 C 0.07974 0.20578 0.3313 0.0
C603 C 0.04363 0.16133 0.33146 0.0
C604 C 0.07948 0.23996 0.32068 0.0
C605 C 0.04295 0.23033 0.31019 0.0
C606 C 0.00728 0.18587 0.31007 0.0
H607 H 0.02391 0.39401 0.22349 0.0
H608 H 0.02503 0.33432 0.24216 0.0
C609 C 0.0076 0.15166 0.3206 0.0
C610 C 0.04208 0.26677 0.29935 0.0
H611 H 0.98444 0.32329 0.29469 0.0
C612 C 0.07452 0.28897 0.28514 0.0
C613 C 0.00959 0.27966 0.30302 0.0
C614 C 0.97511 0.25809 0.31858 0.0
C615 C 0.07482 0.32327 0.27427 0.0
C616 C 0.04155 0.33531 0.27763 0.0
C617 C 0.00964 0.31367 0.29206 0.0
C618 C 0.03965 0.37066 0.26643 0.0
C619 C 0.11105 0.34675 0.25941 0.0
C620 C 0.04625 0.41021 0.27401 0.0
C621 C 0.04543 0.44405 0.26339 0.0
C622 C 0.03771 0.4386 0.2451 0.0
C623 C 0.03008 0.39872 0.23759 0.0
C624 C 0.031 0.36491 0.24819 0.0
H625 H 0.13982 0.34107 0.26124 0.0
H626 H 0.09678 0.33347 0.24641 0.0
H627 H 0.12379 0.38353 0.25865 0.0
H628 H 0.05272 0.41514 0.28807 0.0
H629 H 0.05129 0.47467 0.26937 0.0
loop_
_geom_bond_atom_site_label_1
_geom_bond_atom_site_label_2
_geom_bond_distance
_geom_bond_site_symmetry_2
_ccdc_geom_bond_type
In0 O1 2.294 . S
In0 O2 2.326 . S
In0 O6 2.266 1_455 S
In0 O7 2.326 1_545 S
In0 O8 2.282 . S
In0 O9 2.326 1_545 S
In0 O11 2.294 . S
In0 O12 2.326 . S
O1 In0 2.294 . S
O1 C10 1.240 . S
O2 In0 2.326 . S
O2 C10 1.252 . S
C3 O6 1.236 1_465 S
C3 O7 1.287 . S
C4 O11 1.240 . S
C4 O12 1.252 . S
C5 O8 1.249 1_565 S
C5 O9 1.260 . S
O6 In0 2.266 1_655 S
O6 C3 1.236 1_645 S
O7 In0 2.326 1_565 S
O7 C3 1.287 . S
O8 In0 2.282 . S
O8 C5 1.249 1_545 S
O9 In0 2.326 1_565 S
O9 C5 1.260 . S
C10 O1 1.240 . S
C10 O2 1.252 . S
O11 In0 2.294 . S
O11 C4 1.240 . S
O12 In0 2.326 . S
O12 C4 1.252 . S
In13 O14 2.294 . S
In13 O15 2.326 1_455 S
In13 O19 2.266 . S
In13 O20 2.326 . S
In13 O21 2.266 1_545 S
In13 O22 2.326 . S
In13 O24 2.294 1_455 S
In13 O25 2.326 . S
O14 In13 2.294 . S
O14 C23 1.240 . S
O15 In13 2.326 1_655 S
O15 C23 1.252 1_655 S
C16 O19 1.252 . S
C16 O20 1.260 . S
C17 O24 1.240 . S
C17 O25 1.252 1_655 S
C18 O21 1.252 1_545 S
C18 O22 1.260 . S
O19 In13 2.266 . S
O19 C16 1.252 . S
O20 In13 2.326 . S
O20 C16 1.260 . S
O21 In13 2.266 1_565 S
O21 C18 1.252 1_565 S
O22 In13 2.326 . S
O22 C18 1.260 . S
C23 O14 1.240 . S
C23 O15 1.252 1_455 S
O24 In13 2.294 1_655 S
O24 C17 1.240 . S
O25 In13 2.326 . S
O25 C17 1.252 1_455 S
In26 O27 2.294 1_545 S
In26 O28 2.326 1_455 S
In26 O32 2.266 . S
In26 O33 2.326 . S
In26 O34 2.266 . S
In26 O35 2.326 . S
In26 O37 2.294 . S
In26 O38 2.326 1_445 S
O27 In26 2.294 1_565 S
O27 C36 1.240 1_455 S
O28 In26 2.326 1_655 S
O28 C36 1.252 1_545 S
C29 O32 1.252 . S
C29 O33 1.260 . S
C30 O37 1.240 1_655 S
C30 O38 1.252 1_545 S
C31 O34 1.252 . S
C31 O35 1.260 . S
O32 In26 2.266 . S
O32 C29 1.252 . S
O33 In26 2.326 . S
O33 C29 1.260 . S
O34 In26 2.266 . S
O34 C31 1.252 . S
O35 In26 2.326 . S
O35 C31 1.260 . S
C36 O27 1.240 1_655 S
C36 O28 1.252 1_565 S
O37 In26 2.294 . S
O37 C30 1.240 1_455 S
O38 In26 2.326 1_665 S
O38 C30 1.252 1_565 S
C39 C40 1.443 . S
C39 N43 1.376 . S
C39 C77 1.389 . S
C40 C39 1.443 . S
C40 C41 1.340 . S
C40 H80 0.951 . S
C41 C40 1.340 . S
C41 C42 1.439 . S
C41 H81 0.950 . S
C42 C41 1.439 . S
C42 N43 1.374 . S
C42 C76 1.395 . S
N43 C39 1.376 . S
N43 C42 1.374 . S
N43 Co44 2.008 . S
Co44 N43 2.008 . S
Co44 N45 1.995 . S
Co44 N50 2.008 1_455 S
Co44 N55 1.995 1_455 S
Co44 N60 2.282 . S
Co44 N66 2.282 . S
N45 Co44 1.995 . S
N45 C46 1.376 . S
N45 C49 1.383 . S
C46 N45 1.376 . S
C46 C47 1.446 . S
C46 C76 1.391 . S
C47 C46 1.446 . S
C47 C48 1.339 . S
C47 H82 0.949 . S
C48 C47 1.339 . S
C48 C49 1.439 . S
C48 H83 0.950 . S
C49 N45 1.383 . S
C49 C48 1.439 . S
C49 C78 1.392 . S
N50 Co44 2.008 1_655 S
N50 C51 1.376 . S
N50 C54 1.374 . S
C51 N50 1.376 . S
C51 C52 1.443 . S
C51 C78 1.389 1_655 S
C52 C51 1.443 . S
C52 C53 1.340 . S
C52 H84 0.951 . S
C53 C52 1.340 . S
C53 C54 1.439 . S
C53 H85 0.950 . S
C54 N50 1.374 . S
C54 C53 1.439 . S
C54 C79 1.395 . S
N55 Co44 1.995 1_655 S
N55 C56 1.376 . S
N55 C59 1.383 1_655 S
C56 N55 1.376 . S
C56 C57 1.446 . S
C56 C79 1.391 . S
C57 C56 1.446 . S
C57 C58 1.339 . S
C57 H86 0.949 . S
C58 C57 1.339 . S
C58 C59 1.439 1_655 S
C58 H87 0.950 . S
C59 N55 1.383 1_455 S
C59 C58 1.439 1_455 S
C59 C77 1.392 . S
N60 Co44 2.282 . S
N60 C63 1.332 . S
N60 C65 1.332 . S
C61 C62 1.386 . S
C61 C64 1.388 . S
C62 C61 1.386 . S
C62 C63 1.382 . S
C62 H88 0.950 1_455 S
C63 N60 1.332 . S
C63 C62 1.382 . S
C63 H74 0.952 1_455 S
C64 C61 1.388 . S
C64 C65 1.382 . S
C64 H89 0.950 . S
C65 N60 1.332 . S
C65 C64 1.382 . S
C65 H75 0.948 . S
N66 Co44 2.282 . S
N66 C70 1.332 . S
N66 C71 1.332 1_455 S
C67 C68 1.388 1_655 S
C67 C71 1.382 . S
C67 H90 0.950 . S
C68 C67 1.388 1_455 S
C68 C69 1.386 . S
C69 C68 1.386 . S
C69 C70 1.382 . S
C69 H91 0.950 . S
C70 N66 1.332 . S
C70 C69 1.382 . S
C70 H72 0.952 . S
C71 N66 1.332 1_655 S
C71 C67 1.382 . S
C71 H73 0.948 . S
H72 C70 0.952 . S
H73 C71 0.948 . S
H74 C63 0.952 1_655 S
H75 C65 0.948 . S
C76 C42 1.395 . S
C76 C46 1.391 . S
C77 C39 1.389 . S
C77 C59 1.392 . S
C78 C49 1.392 . S
C78 C51 1.389 1_455 S
C79 C54 1.395 . S
C79 C56 1.391 . S
H80 C40 0.951 . S
H81 C41 0.950 . S
H82 C47 0.949 . S
H83 C48 0.950 . S
H84 C52 0.951 . S
H85 C53 0.950 . S
H86 C57 0.949 . S
H87 C58 0.950 . S
H88 C62 0.950 1_655 S
H89 C64 0.950 . S
H90 C67 0.950 . S
H91 C69 0.950 . S
C92 C93 1.443 1_545 S
C92 N96 1.376 . S
C92 C130 1.389 . S
C93 C92 1.443 1_565 S
C93 C94 1.340 . S
C93 H133 0.951 . S
C94 C93 1.340 . S
C94 C95 1.439 . S
C94 H134 0.950 . S
C95 C94 1.439 . S
C95 N96 1.374 1_565 S
C95 C129 1.395 . S
N96 C92 1.376 . S
N96 C95 1.374 1_545 S
N96 Co97 2.008 . S
Co97 N96 2.008 . S
Co97 N98 1.995 . S
Co97 N103 2.008 . S
Co97 N108 1.995 . S
Co97 N113 2.282 . S
Co97 N119 2.282 . S
N98 Co97 1.995 . S
N98 C99 1.376 1_545 S
N98 C102 1.383 . S
C99 N98 1.376 1_565 S
C99 C100 1.446 . S
C99 C129 1.391 . S
C100 C99 1.446 . S
C100 C101 1.339 . S
C100 H135 0.949 . S
C101 C100 1.339 . S
C101 C102 1.439 1_565 S
C101 H136 0.950 . S
C102 N98 1.383 . S
C102 C101 1.439 1_545 S
C102 C131 1.392 . S
N103 Co97 2.008 . S
N103 C104 1.376 . S
N103 C107 1.374 . S
C104 N103 1.376 . S
C104 C105 1.443 . S
C104 C131 1.389 . S
C105 C104 1.443 . S
C105 C106 1.340 . S
C105 H137 0.951 . S
C106 C105 1.340 . S
C106 C107 1.439 . S
C106 H138 0.950 . S
C107 N103 1.374 . S
C107 C106 1.439 . S
C107 C132 1.395 . S
N108 Co97 1.995 . S
N108 C109 1.376 . S
N108 C112 1.383 . S
C109 N108 1.376 . S
C109 C110 1.446 . S
C109 C132 1.391 . S
C110 C109 1.446 . S
C110 C111 1.339 . S
C110 H139 0.949 . S
C111 C110 1.339 . S
C111 C112 1.439 . S
C111 H140 0.950 . S
C112 N108 1.383 . S
C112 C111 1.439 . S
C112 C130 1.392 . S
N113 Co97 2.282 . S
N113 C116 1.332 . S
N113 C118 1.332 . S
C114 C115 1.386 . S
C114 C117 1.388 . S
C115 C114 1.386 . S
C115 C116 1.382 . S
C115 H141 0.950 . S
C116 N113 1.332 . S
C116 C115 1.382 . S
C116 H127 0.952 . S
C117 C114 1.388 . S
C117 C118 1.382 . S
C117 H142 0.950 1_545 S
C118 N113 1.332 . S
C118 C117 1.382 . S
C118 H128 0.948 1_545 S
N119 Co97 2.282 . S
N119 C123 1.332 . S
N119 C124 1.332 . S
C120 C121 1.388 . S
C120 C124 1.382 . S
C120 H143 0.950 . S
C121 C120 1.388 . S
C121 C122 1.386 . S
C122 C121 1.386 . S
C122 C123 1.382 . S
C122 H144 0.950 1_545 S
C123 N119 1.332 . S
C123 C122 1.382 . S
C123 H125 0.952 1_545 S
C124 N119 1.332 . S
C124 C120 1.382 . S
C124 H126 0.948 . S
H125 C123 0.952 1_565 S
H126 C124 0.948 . S
H127 C116 0.952 . S
H128 C118 0.948 1_565 S
C129 C95 1.395 . S
C129 C99 1.391 . S
C130 C92 1.389 . S
C130 C112 1.392 . S
C131 C102 1.392 . S
C131 C104 1.389 . S
C132 C107 1.395 . S
C132 C109 1.391 . S
H133 C93 0.951 . S
H134 C94 0.950 . S
H135 C100 0.949 . S
H136 C101 0.950 . S
H137 C105 0.951 . S
H138 C106 0.950 . S
H139 C110 0.949 . S
H140 C111 0.950 . S
H141 C115 0.950 . S
H142 C117 0.950 1_565 S
H143 C120 0.950 . S
H144 C122 0.950 1_565 S
C145 C146 1.443 . S
C145 N149 1.376 . S
C145 C183 1.389 . S
C146 C145 1.443 . S
C146 C147 1.340 . S
C146 H186 0.951 . S
C147 C146 1.340 . S
C147 C148 1.439 . S
C147 H187 0.950 . S
C148 C147 1.439 . S
C148 N149 1.374 . S
C148 C182 1.395 . S
N149 C145 1.376 . S
N149 C148 1.374 . S
N149 Co150 2.008 . S
Co150 N149 2.008 . S
Co150 N151 1.995 . S
Co150 N156 2.008 . S
Co150 N161 1.995 . S
Co150 N166 2.282 . S
Co150 N172 2.282 . S
N151 Co150 1.995 . S
N151 C152 1.376 . S
N151 C155 1.383 . S
C152 N151 1.376 . S
C152 C153 1.446 . S
C152 C182 1.391 . S
C153 C152 1.446 . S
C153 C154 1.339 . S
C153 H188 0.949 . S
C154 C153 1.339 . S
C154 C155 1.439 . S
C154 H189 0.950 . S
C155 N151 1.383 . S
C155 C154 1.439 . S
C155 C184 1.392 . S
N156 Co150 2.008 . S
N156 C157 1.376 . S
N156 C160 1.374 . S
C157 N156 1.376 . S
C157 C158 1.443 . S
C157 C184 1.389 . S
C158 C157 1.443 . S
C158 C159 1.340 . S
C158 H190 0.951 . S
C159 C158 1.340 . S
C159 C160 1.439 . S
C159 H191 0.950 . S
C160 N156 1.374 . S
C160 C159 1.439 . S
C160 C185 1.395 . S
N161 Co150 1.995 . S
N161 C162 1.376 . S
N161 C165 1.383 . S
C162 N161 1.376 . S
C162 C163 1.446 . S
C162 C185 1.391 . S
C163 C162 1.446 . S
C163 C164 1.339 . S
C163 H192 0.949 . S
C164 C163 1.339 . S
C164 C165 1.439 . S
C164 H193 0.950 . S
C165 N161 1.383 . S
C165 C164 1.439 . S
C165 C183 1.392 . S
N166 Co150 2.282 . S
N166 C169 1.332 . S
N166 C171 1.332 . S
C167 C168 1.386 . S
C167 C170 1.388 . S
C168 C167 1.386 . S
C168 C169 1.382 . S
C168 H194 0.950 . S
C169 N166 1.332 . S
C169 C168 1.382 . S
C169 H180 0.952 . S
C170 C167 1.388 . S
C170 C171 1.382 . S
C170 H195 0.950 . S
C171 N166 1.332 . S
C171 C170 1.382 . S
C171 H181 0.948 . S
N172 Co150 2.282 . S
N172 C176 1.332 . S
N172 C177 1.332 . S
C173 C174 1.388 . S
C173 C177 1.382 . S
C173 H196 0.950 . S
C174 C173 1.388 . S
C174 C175 1.386 . S
C175 C174 1.386 . S
C175 C176 1.382 . S
C175 H197 0.950 . S
C176 N172 1.332 . S
C176 C175 1.382 . S
C176 H178 0.952 . S
C177 N172 1.332 . S
C177 C173 1.382 . S
C177 H179 0.948 . S
H178 C176 0.952 . S
H179 C177 0.948 . S
H180 C169 0.952 . S
H181 C171 0.948 . S
C182 C148 1.395 . S
C182 C152 1.391 . S
C183 C145 1.389 . S
C183 C165 1.392 . S
C184 C155 1.392 . S
C184 C157 1.389 . S
C185 C160 1.395 . S
C185 C162 1.391 . S
H186 C146 0.951 . S
H187 C147 0.950 . S
H188 C153 0.949 . S
H189 C154 0.950 . S
H190 C158 0.951 . S
H191 C159 0.950 . S
H192 C163 0.949 . S
H193 C164 0.950 . S
H194 C168 0.950 . S
H195 C170 0.950 . S
H196 C173 0.950 . S
H197 C175 0.950 . S
H198 C206 0.929 . S
H199 C208 0.930 . S
H200 C210 0.930 . S
H201 C213 0.929 . S
H202 C216 0.930 . S
H203 C218 0.960 . S
H204 C218 0.960 . S
H205 C218 0.960 1_455 S
C206 H198 0.929 . S
C206 C207 1.377 . S
C206 C208 1.384 . S
C207 C206 1.377 . S
C207 C213 1.390 . S
C208 H199 0.930 . S
C208 C206 1.384 . S
C208 C209 1.372 . S
C209 C208 1.372 . S
C209 C210 1.400 . S
C209 C214 1.490 . S
C210 H200 0.930 . S
C210 C209 1.400 . S
C210 C213 1.386 . S
H211 C227 0.930 . S
H212 C228 0.931 . S
C213 H201 0.929 . S
C213 C207 1.390 . S
C213 C210 1.386 . S
C214 C209 1.490 . S
C214 C216 1.395 . S
C214 C217 1.403 . S
H215 C221 0.930 . S
C216 H202 0.930 . S
C216 C214 1.395 . S
C216 C219 1.403 . S
C217 C214 1.403 . S
C217 C218 1.524 1_455 S
C217 C221 1.400 . S
C218 H203 0.960 . S
C218 H204 0.960 . S
C218 H205 0.960 1_655 S
C218 C217 1.524 1_655 S
C219 C216 1.403 . S
C219 C220 1.392 . S
C219 C223 1.495 . S
C220 C219 1.392 . S
C220 C221 1.385 . S
C220 C222 1.478 . S
C221 H215 0.930 . S
C221 C217 1.400 . S
C221 C220 1.385 . S
C222 C220 1.478 . S
C222 C224 1.381 . S
C222 C228 1.383 . S
C223 C219 1.495 . S
C223 H229 0.959 . S
C223 H230 0.961 . S
C223 H231 0.960 . S
C224 C222 1.381 . S
C224 C225 1.394 . S
C224 H232 0.930 . S
C225 C224 1.394 . S
C225 C226 1.383 . S
C225 H233 0.929 . S
C226 C225 1.383 . S
C226 C227 1.377 . S
C227 H211 0.930 . S
C227 C226 1.377 . S
C227 C228 1.379 . S
C228 H212 0.931 . S
C228 C222 1.383 . S
C228 C227 1.379 . S
H229 C223 0.959 . S
H230 C223 0.961 . S
H231 C223 0.960 . S
H232 C224 0.930 . S
H233 C225 0.929 . S
H234 C242 0.927 1_565 S
H235 C244 0.930 1_565 S
H236 C246 0.930 . S
H237 C249 0.929 . S
H238 C252 0.930 . S
H239 C254 0.960 . S
H240 C254 0.960 . S
H241 C254 0.960 . S
C242 H234 0.927 1_545 S
C242 C243 1.377 . S
C242 C244 1.384 . S
C243 C242 1.377 . S
C243 C249 1.390 . S
C244 H235 0.930 1_545 S
C244 C242 1.384 . S
C244 C245 1.372 . S
C245 C244 1.372 . S
C245 C246 1.400 . S
C245 C250 1.490 . S
C246 H236 0.930 . S
C246 C245 1.400 . S
C246 C249 1.386 . S
H247 C263 0.930 . S
H248 C264 0.931 . S
C249 H237 0.929 . S
C249 C243 1.390 . S
C249 C246 1.386 . S
C250 C245 1.490 . S
C250 C252 1.395 . S
C250 C253 1.403 . S
H251 C257 0.930 . S
C252 H238 0.930 . S
C252 C250 1.395 . S
C252 C255 1.403 . S
C253 C250 1.403 . S
C253 C254 1.524 . S
C253 C257 1.400 . S
C254 H239 0.960 . S
C254 H240 0.960 . S
C254 H241 0.960 . S
C254 C253 1.524 . S
C255 C252 1.403 . S
C255 C256 1.392 . S
C255 C259 1.495 1_545 S
C256 C255 1.392 . S
C256 C257 1.385 . S
C256 C258 1.478 . S
C257 H251 0.930 . S
C257 C253 1.400 . S
C257 C256 1.385 . S
C258 C256 1.478 . S
C258 C260 1.381 . S
C258 C264 1.383 . S
C259 C255 1.495 1_565 S
C259 H265 0.959 . S
C259 H266 0.961 1_565 S
C259 H267 0.960 . S
C260 C258 1.381 . S
C260 C261 1.394 . S
C260 H268 0.930 1_545 S
C261 C260 1.394 . S
C261 C262 1.383 . S
C261 H269 0.929 1_545 S
C262 C261 1.383 . S
C262 C263 1.377 . S
C263 H247 0.930 . S
C263 C262 1.377 . S
C263 C264 1.379 . S
C264 H248 0.931 . S
C264 C258 1.383 . S
C264 C263 1.379 . S
H265 C259 0.959 . S
H266 C259 0.961 1_545 S
H267 C259 0.960 . S
H268 C260 0.930 1_565 S
H269 C261 0.929 1_565 S
H270 C278 0.929 . S
H271 C280 0.930 . S
H272 C282 0.930 . S
H273 C285 0.929 . S
H274 C288 0.930 . S
H275 C290 0.960 . S
H276 C290 0.960 . S
H277 C290 0.960 . S
C278 H270 0.929 . S
C278 C279 1.377 . S
C278 C280 1.384 . S
C279 C278 1.377 . S
C279 C285 1.390 . S
C280 H271 0.930 . S
C280 C278 1.384 . S
C280 C281 1.372 . S
C281 C280 1.372 . S
C281 C282 1.400 . S
C281 C286 1.490 . S
C282 H272 0.930 . S
C282 C281 1.400 . S
C282 C285 1.386 . S
H283 C299 0.930 . S
H284 C300 0.931 . S
C285 H273 0.929 . S
C285 C279 1.390 . S
C285 C282 1.386 . S
C286 C281 1.490 . S
C286 C288 1.395 . S
C286 C289 1.403 . S
H287 C293 0.930 . S
C288 H274 0.930 . S
C288 C286 1.395 . S
C288 C291 1.403 . S
C289 C286 1.403 . S
C289 C290 1.524 . S
C289 C293 1.400 . S
C290 H275 0.960 . S
C290 H276 0.960 . S
C290 H277 0.960 . S
C290 C289 1.524 . S
C291 C288 1.403 . S
C291 C292 1.392 . S
C291 C295 1.495 . S
C292 C291 1.392 . S
C292 C293 1.385 . S
C292 C294 1.478 . S
C293 H287 0.930 . S
C293 C289 1.400 . S
C293 C292 1.385 . S
C294 C292 1.478 . S
C294 C296 1.381 . S
C294 C300 1.383 . S
C295 C291 1.495 . S
C295 H301 0.959 . S
C295 H302 0.961 . S
C295 H303 0.960 . S
C296 C294 1.381 . S
C296 C297 1.394 . S
C296 H304 0.930 . S
C297 C296 1.394 . S
C297 C298 1.383 . S
C297 H305 0.929 . S
C298 C297 1.383 . S
C298 C299 1.377 . S
C299 H283 0.930 . S
C299 C298 1.377 . S
C299 C300 1.379 . S
C300 H284 0.931 . S
C300 C294 1.383 . S
C300 C299 1.379 . S
H301 C295 0.959 . S
H302 C295 0.961 . S
H303 C295 0.960 . S
H304 C296 0.930 . S
H305 C297 0.929 . S
H306 C314 0.929 1_655 S
H307 C316 0.930 1_655 S
H308 C318 0.930 . S
H309 C321 0.929 . S
H310 C324 0.930 1_655 S
H311 C326 0.960 . S
H312 C326 0.960 . S
H313 C326 0.960 . S
C314 H306 0.929 1_455 S
C314 C315 1.377 . S
C314 C316 1.384 . S
C315 C314 1.377 . S
C315 C321 1.390 . S
C316 H307 0.930 1_455 S
C316 C314 1.384 . S
C316 C317 1.372 . S
C317 C316 1.372 . S
C317 C318 1.400 . S
C317 C322 1.490 . S
C318 H308 0.930 . S
C318 C317 1.400 . S
C318 C321 1.386 . S
H319 C335 0.930 . S
H320 C336 0.931 . S
C321 H309 0.929 . S
C321 C315 1.390 . S
C321 C318 1.386 . S
C322 C317 1.490 . S
C322 C324 1.395 . S
C322 C325 1.403 . S
H323 C329 0.930 . S
C324 H310 0.930 1_455 S
C324 C322 1.395 . S
C324 C327 1.403 . S
C325 C322 1.403 . S
C325 C326 1.524 . S
C325 C329 1.400 . S
C326 H311 0.960 . S
C326 H312 0.960 . S
C326 H313 0.960 . S
C326 C325 1.524 . S
C327 C324 1.403 . S
C327 C328 1.392 . S
C327 C331 1.495 1_455 S
C328 C327 1.392 . S
C328 C329 1.385 . S
C328 C330 1.478 . S
C329 H323 0.930 . S
C329 C325 1.400 . S
C329 C328 1.385 . S
C330 C328 1.478 . S
C330 C332 1.381 . S
C330 C336 1.383 . S
C331 C327 1.495 1_655 S
C331 H337 0.959 . S
C331 H338 0.961 . S
C331 H339 0.960 . S
C332 C330 1.381 . S
C332 C333 1.394 . S
C332 H340 0.930 1_455 S
C333 C332 1.394 . S
C333 C334 1.383 . S
C333 H341 0.929 1_455 S
C334 C333 1.383 . S
C334 C335 1.377 . S
C335 H319 0.930 . S
C335 C334 1.377 . S
C335 C336 1.379 . S
C336 H320 0.931 . S
C336 C330 1.383 . S
C336 C335 1.379 . S
H337 C331 0.959 . S
H338 C331 0.961 . S
H339 C331 0.960 . S
H340 C332 0.930 1_655 S
H341 C333 0.929 1_655 S
H342 C350 0.929 . S
H343 C352 0.930 . S
H344 C354 0.930 . S
H345 C357 0.929 . S
H346 C360 0.930 1_565 S
H347 C362 0.960 . S
H348 C362 0.960 . S
H349 C362 0.960 . S
C350 H342 0.929 . S
C350 C351 1.377 . S
C350 C352 1.384 . S
C351 C350 1.377 . S
C351 C357 1.390 . S
C352 H343 0.930 . S
C352 C350 1.384 . S
C352 C353 1.372 . S
C353 C352 1.372 . S
C353 C354 1.400 . S
C353 C358 1.490 . S
C354 H344 0.930 . S
C354 C353 1.400 . S
C354 C357 1.386 . S
H355 C371 0.930 . S
H356 C372 0.931 . S
C357 H345 0.929 . S
C357 C351 1.390 . S
C357 C354 1.386 . S
C358 C353 1.490 . S
C358 C360 1.395 . S
C358 C361 1.403 . S
H359 C365 0.930 . S
C360 H346 0.930 1_545 S
C360 C358 1.395 . S
C360 C363 1.403 . S
C361 C358 1.403 . S
C361 C362 1.524 . S
C361 C365 1.400 . S
C362 H347 0.960 . S
C362 H348 0.960 . S
C362 H349 0.960 . S
C362 C361 1.524 . S
C363 C360 1.403 . S
C363 C364 1.392 . S
C363 C367 1.495 1_545 S
C364 C363 1.392 . S
C364 C365 1.385 . S
C364 C366 1.478 . S
C365 H359 0.930 . S
C365 C361 1.400 . S
C365 C364 1.385 . S
C366 C364 1.478 . S
C366 C368 1.381 . S
C366 C372 1.383 . S
C367 C363 1.495 1_565 S
C367 H373 0.959 . S
C367 H374 0.961 . S
C367 H375 0.960 . S
C368 C366 1.381 . S
C368 C369 1.394 . S
C368 H376 0.930 . S
C369 C368 1.394 . S
C369 C370 1.383 . S
C369 H377 0.929 . S
C370 C369 1.383 . S
C370 C371 1.377 . S
C371 H355 0.930 . S
C371 C370 1.377 . S
C371 C372 1.379 . S
C372 H356 0.931 . S
C372 C366 1.383 . S
C372 C371 1.379 . S
H373 C367 0.959 . S
H374 C367 0.961 . S
H375 C367 0.960 . S
H376 C368 0.930 . S
H377 C369 0.929 . S
H378 C386 0.929 . S
H379 C388 0.930 . S
H380 C390 0.930 . S
H381 C393 0.929 . S
H382 C396 0.930 . S
H383 C398 0.960 . S
H384 C398 0.960 . S
H385 C398 0.960 . S
C386 H378 0.929 . S
C386 C387 1.377 . S
C386 C388 1.384 . S
C387 C386 1.377 . S
C387 C393 1.390 . S
C388 H379 0.930 . S
C388 C386 1.384 . S
C388 C389 1.372 . S
C389 C388 1.372 . S
C389 C390 1.400 . S
C389 C394 1.490 . S
C390 H380 0.930 . S
C390 C389 1.400 . S
C390 C393 1.386 . S
H391 C407 0.930 . S
H392 C408 0.931 . S
C393 H381 0.929 . S
C393 C387 1.390 . S
C393 C390 1.386 . S
C394 C389 1.490 . S
C394 C396 1.395 . S
C394 C397 1.403 . S
H395 C401 0.930 . S
C396 H382 0.930 . S
C396 C394 1.395 . S
C396 C399 1.403 . S
C397 C394 1.403 . S
C397 C398 1.524 . S
C397 C401 1.400 . S
C398 H383 0.960 . S
C398 H384 0.960 . S
C398 H385 0.960 . S
C398 C397 1.524 . S
C399 C396 1.403 . S
C399 C400 1.392 . S
C399 C403 1.495 . S
C400 C399 1.392 . S
C400 C401 1.385 . S
C400 C402 1.478 . S
C401 H395 0.930 . S
C401 C397 1.400 . S
C401 C400 1.385 . S
C402 C400 1.478 . S
C402 C404 1.381 . S
C402 C408 1.383 . S
C403 C399 1.495 . S
C403 H409 0.959 . S
C403 H410 0.961 . S
C403 H411 0.960 . S
C404 C402 1.381 . S
C404 C405 1.394 . S
C404 H412 0.930 . S
C405 C404 1.394 . S
C405 C406 1.383 . S
C405 H413 0.929 . S
C406 C405 1.383 . S
C406 C407 1.377 . S
C407 H391 0.930 . S
C407 C406 1.377 . S
C407 C408 1.379 . S
C408 H392 0.931 . S
C408 C402 1.383 . S
C408 C407 1.379 . S
H409 C403 0.959 . S
H410 C403 0.961 . S
H411 C403 0.960 . S
H412 C404 0.930 . S
H413 C405 0.929 . S
H414 C422 0.929 . S
H415 C424 0.930 . S
H416 C426 0.930 . S
H417 C429 0.929 . S
H418 C432 0.930 . S
H419 C434 0.960 . S
H420 C434 0.960 . S
H421 C434 0.960 . S
C422 H414 0.929 . S
C422 C423 1.377 . S
C422 C424 1.384 . S
C423 C422 1.377 . S
C423 C429 1.390 . S
C424 H415 0.930 . S
C424 C422 1.384 . S
C424 C425 1.372 . S
C425 C424 1.372 . S
C425 C426 1.400 . S
C425 C430 1.490 . S
C426 H416 0.930 . S
C426 C425 1.400 . S
C426 C429 1.386 . S
H427 C443 0.930 . S
H428 C444 0.931 . S
C429 H417 0.929 . S
C429 C423 1.390 . S
C429 C426 1.386 . S
C430 C425 1.490 . S
C430 C432 1.395 . S
C430 C433 1.403 . S
H431 C437 0.930 1_565 S
C432 H418 0.930 . S
C432 C430 1.395 . S
C432 C435 1.403 . S
C433 C430 1.403 . S
C433 C434 1.524 1_545 S
C433 C437 1.400 . S
C434 H419 0.960 . S
C434 H420 0.960 . S
C434 H421 0.960 . S
C434 C433 1.524 1_565 S
C435 C432 1.403 . S
C435 C436 1.392 . S
C435 C439 1.495 . S
C436 C435 1.392 . S
C436 C437 1.385 . S
C436 C438 1.478 . S
C437 H431 0.930 1_545 S
C437 C433 1.400 . S
C437 C436 1.385 . S
C438 C436 1.478 . S
C438 C440 1.381 . S
C438 C444 1.383 . S
C439 C435 1.495 . S
C439 H445 0.959 . S
C439 H446 0.961 . S
C439 H447 0.960 . S
C440 C438 1.381 . S
C440 C441 1.394 . S
C440 H448 0.930 . S
C441 C440 1.394 . S
C441 C442 1.383 . S
C441 H449 0.929 . S
C442 C441 1.383 . S
C442 C443 1.377 . S
C443 H427 0.930 . S
C443 C442 1.377 . S
C443 C444 1.379 . S
C444 H428 0.931 . S
C444 C438 1.383 . S
C444 C443 1.379 . S
H445 C439 0.959 . S
H446 C439 0.961 . S
H447 C439 0.960 . S
H448 C440 0.930 . S
H449 C441 0.929 . S
H450 C458 0.929 . S
H451 C460 0.930 1_554 S
H452 C462 0.930 . S
H453 C465 0.929 . S
H454 C468 0.930 . S
H455 C470 0.960 . S
H456 C470 0.960 . S
H457 C470 0.960 . S
C458 H450 0.929 . S
C458 C459 1.398 . S
C458 C460 1.384 1_554 S
C459 C458 1.398 . S
C459 C465 1.335 1_554 S
C460 H451 0.930 1_556 S
C460 C458 1.384 1_556 S
C460 C461 1.372 . S
C461 C460 1.372 . S
C461 C462 1.400 . S
C461 C466 1.490 . S
C462 H452 0.930 . S
C462 C461 1.400 . S
C462 C465 1.386 . S
H463 C479 0.930 . S
H464 C480 0.931 . S
C465 H453 0.929 . S
C465 C459 1.335 1_556 S
C465 C462 1.386 . S
C466 C461 1.490 . S
C466 C468 1.395 . S
C466 C469 1.403 . S
H467 C473 0.930 . S
C468 H454 0.930 . S
C468 C466 1.395 . S
C468 C471 1.403 . S
C469 C466 1.403 . S
C469 C470 1.524 . S
C469 C473 1.400 . S
C470 H455 0.960 . S
C470 H456 0.960 . S
C470 H457 0.960 . S
C470 C469 1.524 . S
C471 C468 1.403 . S
C471 C472 1.392 . S
C471 C475 1.495 . S
C472 C471 1.392 . S
C472 C473 1.385 . S
C472 C474 1.478 . S
C473 H467 0.930 . S
C473 C469 1.400 . S
C473 C472 1.385 . S
C474 C472 1.478 . S
C474 C476 1.381 . S
C474 C480 1.383 . S
C475 C471 1.495 . S
C475 H481 0.959 . S
C475 H482 0.961 . S
C475 H483 0.960 . S
C476 C474 1.381 . S
C476 C477 1.394 . S
C476 H484 0.930 . S
C477 C476 1.394 . S
C477 C478 1.383 . S
C477 H485 0.929 . S
C478 C477 1.383 . S
C478 C479 1.377 . S
C479 H463 0.930 . S
C479 C478 1.377 . S
C479 C480 1.379 . S
C480 H464 0.931 . S
C480 C474 1.383 . S
C480 C479 1.379 . S
H481 C475 0.959 . S
H482 C475 0.961 . S
H483 C475 0.960 . S
H484 C476 0.930 . S
H485 C477 0.929 . S
H486 C494 0.929 . S
H487 C496 0.930 . S
H488 C498 0.930 . S
H489 C501 0.929 . S
H490 C504 0.930 . S
H491 C506 0.960 . S
H492 C506 0.960 . S
H493 C506 0.960 . S
C494 H486 0.929 . S
C494 C495 1.377 1_655 S
C494 C496 1.384 . S
C495 C494 1.377 1_455 S
C495 C501 1.390 . S
C496 H487 0.930 . S
C496 C494 1.384 . S
C496 C497 1.372 1_655 S
C497 C496 1.372 1_455 S
C497 C498 1.400 . S
C497 C502 1.490 . S
C498 H488 0.930 . S
C498 C497 1.400 . S
C498 C501 1.386 . S
H499 C515 0.930 . S
H500 C516 0.931 . S
C501 H489 0.929 . S
C501 C495 1.390 . S
C501 C498 1.386 . S
C502 C497 1.490 . S
C502 C504 1.395 . S
C502 C505 1.403 . S
H503 C509 0.930 . S
C504 H490 0.930 . S
C504 C502 1.395 . S
C504 C507 1.403 . S
C505 C502 1.403 . S
C505 C506 1.524 . S
C505 C509 1.400 . S
C506 H491 0.960 . S
C506 H492 0.960 . S
C506 H493 0.960 . S
C506 C505 1.524 . S
C507 C504 1.403 . S
C507 C508 1.392 . S
C507 C511 1.494 1_455 S
C508 C507 1.392 . S
C508 C509 1.385 . S
C508 C510 1.478 . S
C509 H503 0.930 . S
C509 C505 1.400 . S
C509 C508 1.385 . S
C510 C508 1.478 . S
C510 C512 1.381 1_455 S
C510 C516 1.383 . S
C511 C507 1.494 1_655 S
C511 H517 0.962 . S
C511 H518 0.959 1_655 S
C511 H519 0.961 . S
C512 C510 1.381 1_655 S
C512 C513 1.394 . S
C512 H520 0.930 . S
C513 C512 1.394 . S
C513 C514 1.383 1_655 S
C513 H521 0.929 . S
C514 C513 1.383 1_455 S
C514 C515 1.377 . S
C515 H499 0.930 . S
C515 C514 1.377 . S
C515 C516 1.379 . S
C516 H500 0.931 . S
C516 C510 1.383 . S
C516 C515 1.379 . S
H517 C511 0.962 . S
H518 C511 0.959 1_455 S
H519 C511 0.961 . S
H520 C512 0.930 . S
H521 C513 0.929 . S
H522 C530 0.929 1_565 S
H523 C532 0.930 1_565 S
H524 C534 0.930 . S
H525 C537 0.929 . S
H526 C540 0.930 . S
H527 C542 0.960 . S
H528 C542 0.960 1_565 S
H529 C542 0.960 . S
C530 H522 0.929 1_545 S
C530 C531 1.377 . S
C530 C532 1.384 . S
C531 C530 1.377 . S
C531 C537 1.390 . S
C532 H523 0.930 1_545 S
C532 C530 1.384 . S
C532 C533 1.372 . S
C533 C532 1.372 . S
C533 C534 1.400 . S
C533 C538 1.490 . S
C534 H524 0.930 . S
C534 C533 1.400 . S
C534 C537 1.386 . S
H535 C551 0.930 . S
H536 C552 0.931 . S
C537 H525 0.929 . S
C537 C531 1.390 . S
C537 C534 1.386 . S
C538 C533 1.490 . S
C538 C540 1.395 . S
C538 C541 1.403 . S
H539 C545 0.930 . S
C540 H526 0.930 . S
C540 C538 1.395 . S
C540 C543 1.403 . S
C541 C538 1.403 . S
C541 C542 1.524 . S
C541 C545 1.400 . S
C542 H527 0.960 . S
C542 H528 0.960 1_545 S
C542 H529 0.960 . S
C542 C541 1.524 . S
C543 C540 1.403 . S
C543 C544 1.392 . S
C543 C547 1.495 . S
C544 C543 1.392 . S
C544 C545 1.385 . S
C544 C546 1.478 . S
C545 H539 0.930 . S
C545 C541 1.400 . S
C545 C544 1.385 . S
C546 C544 1.478 . S
C546 C548 1.381 . S
C546 C552 1.383 . S
C547 C543 1.495 . S
C547 H553 0.959 . S
C547 H554 0.961 . S
C547 H555 0.960 . S
C548 C546 1.381 . S
C548 C549 1.394 . S
C548 H556 0.930 1_545 S
C549 C548 1.394 . S
C549 C550 1.383 . S
C549 H557 0.929 1_545 S
C550 C549 1.383 . S
C550 C551 1.377 . S
C551 H535 0.930 . S
C551 C550 1.377 . S
C551 C552 1.379 . S
C552 H536 0.931 . S
C552 C546 1.383 . S
C552 C551 1.379 . S
H553 C547 0.959 . S
H554 C547 0.961 . S
H555 C547 0.960 . S
H556 C548 0.930 1_565 S
H557 C549 0.929 1_565 S
H558 C566 0.929 . S
H559 C568 0.930 . S
H560 C570 0.930 . S
H561 C573 0.929 . S
H562 C576 0.930 . S
H563 C578 0.960 . S
H564 C578 0.960 . S
H565 C578 0.960 . S
C566 H558 0.929 . S
C566 C567 1.377 . S
C566 C568 1.384 . S
C567 C566 1.377 . S
C567 C573 1.390 1_556 S
C568 H559 0.930 . S
C568 C566 1.384 . S
C568 C569 1.372 . S
C569 C568 1.372 . S
C569 C570 1.400 . S
C569 C574 1.490 . S
C570 H560 0.930 . S
C570 C569 1.400 . S
C570 C573 1.386 1_556 S
H571 C587 0.930 . S
H572 C588 0.931 . S
C573 H561 0.929 . S
C573 C567 1.390 1_554 S
C573 C570 1.386 1_554 S
C574 C569 1.490 . S
C574 C576 1.395 . S
C574 C577 1.403 . S
H575 C581 0.930 . S
C576 H562 0.930 . S
C576 C574 1.395 . S
C576 C579 1.403 . S
C577 C574 1.403 . S
C577 C578 1.524 . S
C577 C581 1.400 . S
C578 H563 0.960 . S
C578 H564 0.960 . S
C578 H565 0.960 . S
C578 C577 1.524 . S
C579 C576 1.403 . S
C579 C580 1.392 . S
C579 C583 1.495 . S
C580 C579 1.392 . S
C580 C581 1.385 . S
C580 C582 1.478 . S
C581 H575 0.930 . S
C581 C577 1.400 . S
C581 C580 1.385 . S
C582 C580 1.478 . S
C582 C584 1.381 . S
C582 C588 1.383 . S
C583 C579 1.495 . S
C583 H589 0.959 . S
C583 H590 0.961 . S
C583 H591 0.960 . S
C584 C582 1.381 . S
C584 C585 1.394 . S
C584 H592 0.930 . S
C585 C584 1.394 . S
C585 C586 1.383 . S
C585 H593 0.929 . S
C586 C585 1.383 . S
C586 C587 1.377 . S
C587 H571 0.930 . S
C587 C586 1.377 . S
C587 C588 1.379 . S
C588 H572 0.931 . S
C588 C582 1.383 . S
C588 C587 1.379 . S
H589 C583 0.959 . S
H590 C583 0.961 . S
H591 C583 0.960 . S
H592 C584 0.930 . S
H593 C585 0.929 . S
H594 C602 0.929 . S
H595 C604 0.930 . S
H596 C606 0.930 . S
H597 C609 0.929 . S
H598 C612 0.930 . S
H599 C614 0.960 . S
H600 C614 0.960 1_455 S
H601 C614 0.960 . S
C602 H594 0.929 . S
C602 C603 1.377 . S
C602 C604 1.384 . S
C603 C602 1.377 . S
C603 C609 1.390 1_455 S
C604 H595 0.930 . S
C604 C602 1.384 . S
C604 C605 1.372 . S
C605 C604 1.372 . S
C605 C606 1.400 1_455 S
C605 C610 1.490 . S
C606 H596 0.930 . S
C606 C605 1.400 1_655 S
C606 C609 1.386 . S
H607 C623 0.947 . S
H608 C624 0.929 1_655 S
C609 H597 0.929 . S
C609 C603 1.390 1_655 S
C609 C606 1.386 . S
C610 C605 1.490 . S
C610 C612 1.395 . S
C610 C613 1.403 . S
H611 C617 0.910 1_655 S
C612 H598 0.930 . S
C612 C610 1.395 . S
C612 C615 1.403 . S
C613 C610 1.403 . S
C613 C614 1.524 1_455 S
C613 C617 1.400 . S
C614 H599 0.960 . S
C614 H600 0.960 1_655 S
C614 H601 0.960 . S
C614 C613 1.524 1_655 S
C615 C612 1.403 . S
C615 C616 1.392 . S
C615 C619 1.495 . S
C616 C615 1.392 . S
C616 C617 1.385 . S
C616 C618 1.478 . S
C617 H611 0.910 1_455 S
C617 C613 1.400 . S
C617 C616 1.385 . S
C618 C616 1.478 . S
C618 C620 1.381 . S
C618 C624 1.386 . S
C619 C615 1.495 . S
C619 H625 0.959 . S
C619 H626 0.961 . S
C619 H627 0.960 . S
C620 C618 1.381 . S
C620 C621 1.394 . S
C620 H628 0.930 . S
C621 C620 1.394 . S
C621 C622 1.383 . S
C621 H629 0.929 . S
C622 C621 1.383 . S
C622 C623 1.369 1_455 S
C623 H607 0.947 . S
C623 C622 1.369 1_655 S
C623 C624 1.369 1_655 S
C624 H608 0.929 1_455 S
C624 C618 1.386 . S
C624 C623 1.369 1_455 S
H625 C619 0.959 . S
H626 C619 0.961 . S
H627 C619 0.960 . S
H628 C620 0.930 . S
H629 C621 0.929 . S
C226 C61 1.518 . S
C207 C10 1.522 . S
C243 C17 1.522 . S
C262 C131 1.522 . S
C279 C36 1.525 . S
C298 C183 1.520 . S
C315 C5 1.525 . S
C334 C77 1.520 . S
C370 C121 1.521 . S
C351 C16 1.523 . S
C387 C31 1.524 . S
C406 C167 1.520 . S
C442 C114 1.520 . S
C423 C30 1.521 . S
C459 C3 1.549 1_655 S
C478 C174 1.518 . S
C514 C68 1.522 . S
C495 C18 1.524 1_565 S
C550 C130 1.523 . S
C531 C29 1.525 . S
C586 C184 1.522 . S
C567 C4 1.525 1_556 S
C603 C23 1.522 . S
C622 C78 1.522 . S
