# Generated by pormake.
# Topology pyr, (3,6)-cn, num edge types: 1
# Building blocks:
#     Node 0, Type 0, BuildingBlock: OLANEW_clean_sbu_2, # of connection points: 3
#     Node 1, Type 0, BuildingBlock: OLANEW_clean_sbu_2, # of connection points: 3
#     Node 2, Type 0, BuildingBlock: OLANEW_clean_sbu_2, # of connection points: 3
#     Node 3, Type 0, BuildingBlock: OLANEW_clean_sbu_2, # of connection points: 3
#     Node 4, Type 0, BuildingBlock: OLANEW_clean_sbu_2, # of connection points: 3
#     Node 5, Type 0, BuildingBlock: OLANEW_clean_sbu_2, # of connection points: 3
#     Node 6, Type 0, BuildingBlock: OLANEW_clean_sbu_2, # of connection points: 3
#     Node 7, Type 0, BuildingBlock: OLANEW_clean_sbu_2, # of connection points: 3
#     Node 8, Type 1, BuildingBlock: BETFEN_clean_sbu_0, # of connection points: 6
#     Node 9, Type 1, BuildingBlock: BETFEN_clean_sbu_0, # of connection points: 6
#     Node 10, Type 1, BuildingBlock: BETFEN_clean_sbu_0, # of connection points: 6
#     Node 11, Type 1, BuildingBlock: BETFEN_clean_sbu_0, # of connection points: 6
#     Edge 12, Type (0, 1), BuildingBlock: TEMPAE_clean_linker_10, # of connection points: 2
#     Edge 13, Type (0, 1), BuildingBlock: TEMPAE_clean_linker_10, # of connection points: 2
#     Edge 14, Type (0, 1), BuildingBlock: TEMPAE_clean_linker_10, # of connection points: 2
#     Edge 15, Type (0, 1), BuildingBlock: TEMPAE_clean_linker_10, # of connection points: 2
#     Edge 16, Type (0, 1), BuildingBlock: TEMPAE_clean_linker_10, # of connection points: 2
#     Edge 17, Type (0, 1), BuildingBlock: TEMPAE_clean_linker_10, # of connection points: 2
#     Edge 18, Type (0, 1), BuildingBlock: TEMPAE_clean_linker_10, # of connection points: 2
#     Edge 19, Type (0, 1), BuildingBlock: TEMPAE_clean_linker_10, # of connection points: 2
#     Edge 20, Type (0, 1), BuildingBlock: TEMPAE_clean_linker_10, # of connection points: 2
#     Edge 21, Type (0, 1), BuildingBlock: TEMPAE_clean_linker_10, # of connection points: 2
#     Edge 22, Type (0, 1), BuildingBlock: TEMPAE_clean_linker_10, # of connection points: 2
#     Edge 23, Type (0, 1), BuildingBlock: TEMPAE_clean_linker_10, # of connection points: 2
#     Edge 24, Type (0, 1), BuildingBlock: TEMPAE_clean_linker_10, # of connection points: 2
#     Edge 25, Type (0, 1), BuildingBlock: TEMPAE_clean_linker_10, # of connection points: 2
#     Edge 26, Type (0, 1), BuildingBlock: TEMPAE_clean_linker_10, # of connection points: 2
#     Edge 27, Type (0, 1), BuildingBlock: TEMPAE_clean_linker_10, # of connection points: 2
#     Edge 28, Type (0, 1), BuildingBlock: TEMPAE_clean_linker_10, # of connection points: 2
#     Edge 29, Type (0, 1), BuildingBlock: TEMPAE_clean_linker_10, # of connection points: 2
#     Edge 30, Type (0, 1), BuildingBlock: TEMPAE_clean_linker_10, # of connection points: 2
#     Edge 31, Type (0, 1), BuildingBlock: TEMPAE_clean_linker_10, # of connection points: 2
#     Edge 32, Type (0, 1), BuildingBlock: TEMPAE_clean_linker_10, # of connection points: 2
#     Edge 33, Type (0, 1), BuildingBlock: TEMPAE_clean_linker_10, # of connection points: 2
#     Edge 34, Type (0, 1), BuildingBlock: TEMPAE_clean_linker_10, # of connection points: 2
#     Edge 35, Type (0, 1), BuildingBlock: TEMPAE_clean_linker_10, # of connection points: 2
# Relax obj value: 0.165
# Max RMSD: 0.290
# Mean RMSD: 0.144
data_MOF--net-pyr--node1-OLANEW_clean_sbu_2--node2-BETFEN_clean_sbu_0--edge1-TEMPAE_clean_linker_10
_symmetry_space_group_name_H-M    P1
_symmetry_Int_Tables_number       1
_symmetry_cell_setting            triclinic
loop_
_symmetry_equiv_pos_as_xyz
'x, y, z'
_cell_length_a     40.097217
_cell_length_b     44.155982
_cell_length_c     40.799306
_cell_angle_alpha  94.067605
_cell_angle_beta   100.26965
_cell_angle_gamma 112.75181
loop_
_atom_site_label
_atom_site_type_symbol
_atom_site_fract_x
_atom_site_fract_y
_atom_site_fract_z
_atom_type_partial_charge
O0 O 0.44973 0.35175 0.19413 0.0
Cd1 Cd 0.45304 0.40782 0.2077 0.0
O2 O 0.41523 0.33599 0.23088 0.0
Cd3 Cd 0.3802 0.30068 0.25845 0.0
O4 O 0.34428 0.27067 0.28887 0.0
C5 C 0.35676 0.27369 0.32038 0.0
O6 O 0.39125 0.29442 0.33363 0.0
C7 C 0.43193 0.32906 0.20968 0.0
C8 C 0.38707 0.41436 0.18278 0.0
O9 O 0.39279 0.40456 0.21127 0.0
O10 O 0.41238 0.42065 0.16586 0.0
O11 O 0.27807 0.81064 0.80042 0.0
Cd12 Cd 0.23962 0.78713 0.74378 0.0
O13 O 0.27469 0.85911 0.79919 0.0
Cd14 Cd 0.23416 0.8457 0.75136 0.0
O15 O 0.19643 0.85621 0.71288 0.0
C16 C 0.17374 0.86629 0.72295 0.0
O17 O 0.17293 0.8679 0.75507 0.0
C18 C 0.28757 0.84036 0.81417 0.0
C19 C 0.28056 0.76443 0.70785 0.0
O20 O 0.28221 0.79399 0.70764 0.0
O21 O 0.25859 0.74532 0.72414 0.0
O22 O 0.68591 0.38278 0.85866 0.0
Cd23 Cd 0.61972 0.36093 0.83245 0.0
O24 O 0.69291 0.33963 0.8785 0.0
Cd25 Cd 0.63706 0.29992 0.86821 0.0
O26 O 0.60801 0.25259 0.88548 0.0
C27 C 0.60635 0.25369 0.91637 0.0
O28 O 0.61959 0.28287 0.93541 0.0
C29 C 0.70643 0.36981 0.87378 0.0
C30 C 0.60702 0.40257 0.78751 0.0
O31 O 0.61136 0.41012 0.81934 0.0
O32 O 0.60815 0.3751 0.77665 0.0
O33 O 0.91287 0.74293 0.34183 0.0
Cd34 Cd 0.88752 0.68258 0.32177 0.0
O35 O 0.88814 0.73606 0.3865 0.0
Cd36 Cd 0.85296 0.68308 0.38033 0.0
O37 O 0.81282 0.65517 0.40893 0.0
C38 C 0.77814 0.64633 0.39817 0.0
O39 O 0.76593 0.6514 0.36787 0.0
C40 C 0.90842 0.755 0.36923 0.0
C41 C 0.91192 0.6618 0.26713 0.0
O42 O 0.88094 0.6648 0.26257 0.0
O43 O 0.93183 0.66942 0.29724 0.0
O44 O 0.66663 0.65462 0.65626 0.0
Cd45 Cd 0.63408 0.60677 0.6822 0.0
O46 O 0.66234 0.68772 0.69636 0.0
Cd47 Cd 0.66792 0.73443 0.72435 0.0
O48 O 0.66551 0.77384 0.75848 0.0
C49 C 0.63957 0.76606 0.77441 0.0
O50 O 0.61531 0.735 0.76943 0.0
C51 C 0.674 0.68392 0.66996 0.0
C52 C 0.68623 0.59397 0.72741 0.0
O53 O 0.67499 0.57963 0.69667 0.0
O54 O 0.67223 0.61383 0.73687 0.0
O55 O 0.78472 0.21967 0.35165 0.0
Cd56 Cd 0.82481 0.25065 0.40574 0.0
O57 O 0.76742 0.25828 0.33349 0.0
Cd58 Cd 0.78777 0.29118 0.38176 0.0
O59 O 0.76802 0.31872 0.41448 0.0
C60 C 0.7377 0.31984 0.40025 0.0
O61 O 0.72276 0.30555 0.36874 0.0
C62 C 0.76765 0.22963 0.32851 0.0
C63 C 0.866 0.21479 0.42862 0.0
O64 O 0.83619 0.21113 0.43838 0.0
O65 O 0.87697 0.23622 0.40899 0.0
O66 O 0.47212 0.78448 0.2773 0.0
Cd67 Cd 0.43253 0.74283 0.30739 0.0
O68 O 0.43349 0.80899 0.27633 0.0
Cd69 Cd 0.38797 0.76524 0.28426 0.0
O70 O 0.33771 0.72554 0.25356 0.0
C71 C 0.31323 0.73451 0.23858 0.0
O72 O 0.31849 0.76585 0.24462 0.0
C73 C 0.46375 0.8089 0.271 0.0
C74 C 0.45745 0.70444 0.34923 0.0
O75 O 0.46422 0.73469 0.36003 0.0
O76 O 0.44091 0.69303 0.31823 0.0
O77 O 0.17572 0.42706 0.794 0.0
Cd78 Cd 0.19523 0.39734 0.75269 0.0
O79 O 0.12948 0.38055 0.79745 0.0
Cd80 Cd 0.13675 0.34543 0.76131 0.0
O81 O 0.12459 0.29604 0.73429 0.0
C82 C 0.11753 0.28927 0.70231 0.0
O83 O 0.11894 0.31305 0.68426 0.0
C84 C 0.14802 0.41174 0.8066 0.0
C85 C 0.25097 0.43414 0.72024 0.0
O86 O 0.21655 0.42577 0.70702 0.0
O87 O 0.25914 0.42624 0.74932 0.0
Pr88 Pr 0.98205 0.99815 0.53139 0.0
Pr89 Pr 0.06226 0.04728 0.53406 0.0
C90 C 0.91689 0.94501 0.52328 0.0
C91 C 0.89462 0.91943 0.54143 0.0
C92 C 0.87656 0.92744 0.56508 0.0
C93 C 0.85324 0.90262 0.58005 0.0
C94 C 0.84743 0.86925 0.57175 0.0
C95 C 0.86601 0.86133 0.54857 0.0
C96 C 0.88921 0.88614 0.53345 0.0
C97 C 0.01042 0.05241 0.58334 0.0
C98 C 0.05274 0.98671 0.57697 0.0
C99 C 0.12726 0.09943 0.53817 0.0
C100 C 0.14961 0.11669 0.51496 0.0
C101 C 0.14747 0.09983 0.48365 0.0
C102 C 0.16912 0.1165 0.46192 0.0
C103 C 0.19301 0.15036 0.47104 0.0
C104 C 0.19468 0.16722 0.50227 0.0
C105 C 0.17318 0.15047 0.52406 0.0
C106 C 0.03298 0.99362 0.48121 0.0
C107 C 0.99145 0.06301 0.49659 0.0
O108 O 0.94652 0.94286 0.51608 0.0
O109 O 0.92112 0.97565 0.53159 0.0
O110 O 0.02813 0.03642 0.57423 0.0
O111 O 0.9757 0.03828 0.56788 0.0
O112 O 0.07339 0.01842 0.57732 0.0
O113 O 0.0186 0.97224 0.55823 0.0
O114 O 0.09599 0.10253 0.5371 0.0
O115 O 0.12456 0.0693 0.54091 0.0
O116 O 0.0158 1.00994 0.49071 0.0
O117 O 0.06738 1.00662 0.49736 0.0
O118 O 0.97079 0.03081 0.49209 0.0
O119 O 0.02553 0.07571 0.51531 0.0
H120 H 0.87996 0.9528 0.57174 0.0
H121 H 0.83967 0.90956 0.59812 0.0
H122 H 0.86179 0.8358 0.54138 0.0
H123 H 0.90238 0.87917 0.51502 0.0
H124 H 0.12909 0.07379 0.47602 0.0
H125 H 0.16689 0.10299 0.43785 0.0
H126 H 0.21306 0.19323 0.51009 0.0
H127 H 0.17505 0.16386 0.5481 0.0
Pr128 Pr 0.51056 0.01359 0.08652 0.0
Pr129 Pr 0.5728 1.00847 0.06091 0.0
C130 C 0.46294 0.02205 0.12149 0.0
C131 C 0.45667 0.05087 0.13537 0.0
C132 C 0.42776 0.05812 0.11802 0.0
C133 C 0.42319 0.0866 0.12928 0.0
C134 C 0.44716 0.10838 0.15844 0.0
C135 C 0.4753 0.10047 0.17648 0.0
C136 C 0.48004 0.07208 0.16508 0.0
C137 C 0.53094 0.05433 0.03742 0.0
C138 C 0.5968 0.06336 0.12628 0.0
C139 C 0.62045 1.00281 0.02416 0.0
C140 C 0.62169 0.97897 0.9978 0.0
C141 C 0.65573 0.97771 0.99608 0.0
C142 C 0.65754 0.95512 0.97139 0.0
C143 C 0.62529 0.93339 0.9479 0.0
C144 C 0.59116 0.93478 0.94969 0.0
C145 C 0.58937 0.95729 0.97452 0.0
C146 C 0.55391 0.97 0.11176 0.0
C147 C 0.48642 0.95773 0.0228 0.0
O148 O 0.49317 0.01899 0.13577 0.0
O149 O 0.45516 0.01486 0.08865 0.0
O150 O 0.55335 0.05101 0.0613 0.0
O151 O 0.49696 0.03689 0.03878 0.0
O152 O 0.60729 0.0573 0.09866 0.0
O153 O 0.5626 0.04645 0.12944 0.0
O154 O 0.59836 0.01765 0.01548 0.0
O155 O 0.61989 0.99402 0.05402 0.0
O156 O 0.53085 0.97164 0.08722 0.0
O157 O 0.58781 0.98812 0.11041 0.0
O158 O 0.4774 0.96306 0.05142 0.0
O159 O 0.51998 0.97537 0.01853 0.0
H160 H 0.40914 0.04217 0.09519 0.0
H161 H 0.4015 0.09202 0.11449 0.0
H162 H 0.49385 0.11635 0.19937 0.0
H163 H 0.5024 0.0671 0.17928 0.0
H164 H 0.68096 0.99426 0.01384 0.0
H165 H 0.68428 0.9549 0.97046 0.0
H166 H 0.56577 0.91811 0.93223 0.0
H167 H 0.56276 0.9577 0.9756 0.0
Pr168 Pr 0.53009 0.58723 0.58375 0.0
Pr169 Pr 0.52 0.51692 0.5579 0.0
C170 C 0.53578 0.65008 0.59402 0.0
C171 C 0.50994 0.66427 0.60171 0.0
C172 C 0.52334 0.69712 0.61782 0.0
C173 C 0.49873 0.70999 0.62668 0.0
C174 C 0.46035 0.69013 0.6195 0.0
C175 C 0.4471 0.65728 0.603 0.0
C176 C 0.47167 0.64446 0.59425 0.0
C177 C 0.55665 0.5552 0.6318 0.0
C178 C 0.45639 0.52729 0.59525 0.0
C179 C 0.51564 0.45457 0.54712 0.0
C180 C 0.54107 0.44082 0.53728 0.0
C181 C 0.52708 0.40843 0.51983 0.0
C182 C 0.55097 0.39605 0.50853 0.0
C183 C 0.58929 0.41594 0.51446 0.0
C184 C 0.60321 0.44829 0.53243 0.0
C185 C 0.57931 0.46063 0.54366 0.0
C186 C 0.49637 0.55005 0.50918 0.0
C187 C 0.59326 0.57631 0.54613 0.0
O188 O 0.52648 0.63264 0.56402 0.0
O189 O 0.54802 0.63617 0.61782 0.0
O190 O 0.56142 0.5553 0.60211 0.0
O191 O 0.53833 0.57278 0.63798 0.0
O192 O 0.47223 0.50731 0.58741 0.0
O193 O 0.4701 0.55878 0.59112 0.0
O194 O 0.52662 0.47237 0.57713 0.0
O195 O 0.50105 0.46771 0.52402 0.0
O196 O 0.48998 0.54964 0.5384 0.0
O197 O 0.51388 0.53151 0.50377 0.0
O198 O 0.57742 0.59643 0.55355 0.0
O199 O 0.58001 0.5452 0.55143 0.0
H200 H 0.55282 0.71268 0.62386 0.0
H201 H 0.50972 0.73545 0.63915 0.0
H202 H 0.4178 0.64119 0.59761 0.0
H203 H 0.46083 0.61889 0.58207 0.0
H204 H 0.4976 0.39293 0.51443 0.0
H205 H 0.53927 0.37122 0.49433 0.0
H206 H 0.63258 0.46412 0.53775 0.0
H207 H 0.59066 0.48581 0.557 0.0
Pr208 Pr 0.02361 0.56659 1.00868 0.0
Pr209 Pr 0.03565 0.51852 0.05443 0.0
C210 C 0.99454 0.60109 0.96954 0.0
C211 C 0.96568 0.5957 0.93927 0.0
C212 C 0.96275 0.62322 0.92614 0.0
C213 C 0.93276 0.61898 0.9001 0.0
C214 C 0.90509 0.58704 0.88671 0.0
C215 C 0.90879 0.55936 0.8993 0.0
C216 C 0.93886 0.56369 0.92539 0.0
C217 C 0.09329 0.59238 0.05313 0.0
C218 C 0.99683 0.56439 0.08271 0.0
C219 C 0.06282 0.48276 0.09325 0.0
C220 C 0.09529 0.47432 0.09958 0.0
C221 C 0.1137 0.47712 0.13298 0.0
C222 C 0.14526 0.47034 0.13995 0.0
C223 C 0.15893 0.46046 0.11361 0.0
C224 C 0.14028 0.45738 0.08009 0.0
C225 C 0.1088 0.46444 0.0731 0.0
C226 C 0.96458 0.49502 0.01337 0.0
C227 C 0.06088 0.52002 0.98149 0.0
O228 O 0.02413 0.5967 0.96561 0.0
O229 O 0.98247 0.58936 0.99565 0.0
O230 O 0.06294 0.57505 0.05988 0.0
O231 O 0.08822 0.59944 0.02277 0.0
O232 O 0.01387 0.54498 0.09139 0.0
O233 O 0.9943 0.57335 0.05242 0.0
O234 O 0.06922 0.51373 0.10298 0.0
O235 O 0.03877 0.4698 0.06442 0.0
O236 O 0.9942 0.51 1.00395 0.0
O237 O 0.97104 0.49021 0.04449 0.0
O238 O 0.036 0.53198 0.97134 0.0
O239 O 0.07108 0.51873 0.01383 0.0
H240 H 0.983 0.64814 0.93682 0.0
H241 H 0.93054 0.64086 0.89137 0.0
H242 H 0.88823 0.53444 0.88926 0.0
H243 H 0.94069 0.5422 0.93537 0.0
H244 H 0.10375 0.48474 0.15375 0.0
H245 H 0.15882 0.47257 0.16602 0.0
H246 H 0.15042 0.45009 0.0593 0.0
H247 H 0.09526 0.46241 0.04708 0.0
C248 C 0.3465 0.25826 0.37675 0.0
C249 C 0.33254 0.25485 0.34199 0.0
C250 C 0.32376 0.24107 0.39766 0.0
C251 C 0.28613 0.21998 0.3835 0.0
C252 C 0.27188 0.21631 0.34844 0.0
C253 C 0.29526 0.23375 0.32809 0.0
C254 C 0.33998 0.24556 0.43495 0.0
C255 C 0.23187 0.19408 0.33245 0.0
C256 C 0.23587 0.15315 0.43245 0.0
C257 C 0.21637 0.16799 0.44817 0.0
C258 C 0.25856 0.16973 0.41123 0.0
C259 C 0.26167 0.20186 0.40546 0.0
C260 C 0.24179 0.21685 0.42101 0.0
C261 C 0.21945 0.19976 0.44226 0.0
C262 C 0.27952 0.15303 0.39527 0.0
C263 C 0.24418 0.25097 0.41525 0.0
H264 H 0.37526 0.27448 0.38772 0.0
H265 H 0.28421 0.23097 0.30127 0.0
H266 H 0.32471 0.25566 0.44952 0.0
H267 H 0.3368 0.22117 0.44265 0.0
H268 H 0.36987 0.26263 0.44195 0.0
H269 H 0.22511 0.19387 0.30479 0.0
H270 H 0.22578 0.16825 0.33721 0.0
H271 H 0.21326 0.20249 0.344 0.0
H272 H 0.2339 0.12875 0.43726 0.0
H273 H 0.20407 0.21115 0.45402 0.0
H274 H 0.30979 0.16836 0.40348 0.0
H275 H 0.27204 0.15091 0.36743 0.0
H276 H 0.2737 0.12781 0.40196 0.0
H277 H 0.27332 0.26948 0.42379 0.0
H278 H 0.22655 0.25892 0.42883 0.0
H279 H 0.23543 0.25121 0.38793 0.0
C280 C 0.32652 0.88708 0.86112 0.0
C281 C 0.31496 0.8538 0.84686 0.0
C282 C 0.35405 0.90096 0.89089 0.0
C283 C 0.37041 0.88108 0.90695 0.0
C284 C 0.35832 0.84727 0.89322 0.0
C285 C 0.33074 0.83401 0.86327 0.0
C286 C 0.3662 0.93716 0.90477 0.0
C287 C 0.37503 0.82532 0.9098 0.0
C288 C 0.46601 0.93094 0.96248 0.0
C289 C 0.45778 0.93409 0.99421 0.0
C290 C 0.43805 0.91225 0.93408 0.0
C291 C 0.40098 0.89632 0.93751 0.0
C292 C 0.39283 0.89779 0.96979 0.0
C293 C 0.42135 0.9167 0.99778 0.0
C294 C 0.44792 0.91116 0.9001 0.0
C295 C 0.35368 0.8809 0.97449 0.0
H296 H 0.31449 0.90257 0.84871 0.0
H297 H 0.32195 0.80826 0.85249 0.0
H298 H 0.36305 0.93967 0.93117 0.0
H299 H 0.396 0.95105 0.90508 0.0
H300 H 0.35002 0.94896 0.88972 0.0
H301 H 0.36123 0.79914 0.89693 0.0
H302 H 0.40495 0.83486 0.90956 0.0
H303 H 0.37296 0.82584 0.93657 0.0
H304 H 0.49408 0.94416 0.95947 0.0
H305 H 0.41475 0.91878 0.02225 0.0
H306 H 0.43592 0.92546 0.88422 0.0
H307 H 0.43592 0.88521 0.88683 0.0
H308 H 0.4784 0.92184 0.90222 0.0
H309 H 0.33673 0.89376 0.96286 0.0
H310 H 0.35263 0.88117 1.00154 0.0
H311 H 0.34068 0.85475 0.96166 0.0
C312 C 0.57959 0.4123 0.73128 0.0
C313 C 0.60115 0.42508 0.76413 0.0
C314 C 0.57275 0.43345 0.70933 0.0
C315 C 0.58893 0.46826 0.72014 0.0
C316 C 0.61177 0.48129 0.75294 0.0
C317 C 0.61701 0.45951 0.77475 0.0
C318 C 0.54746 0.41848 0.6749 0.0
C319 C 0.63062 0.51825 0.76509 0.0
C320 C 0.5943 0.52368 0.65205 0.0
C321 C 0.56561 0.53369 0.65475 0.0
C322 C 0.6028 0.50299 0.67368 0.0
C323 C 0.58105 0.49096 0.69755 0.0
C324 C 0.55164 0.50066 0.69991 0.0
C325 C 0.54471 0.52238 0.67887 0.0
C326 C 0.63514 0.49416 0.67107 0.0
C327 C 0.52709 0.48767 0.72429 0.0
H328 H 0.56718 0.38566 0.72307 0.0
H329 H 0.63405 0.46948 0.80003 0.0
H330 H 0.52357 0.42566 0.67211 0.0
H331 H 0.56246 0.42829 0.65501 0.0
H332 H 0.5367 0.39093 0.67048 0.0
H333 H 0.65212 0.52459 0.7888 0.0
H334 H 0.64383 0.53131 0.74557 0.0
H335 H 0.60972 0.52775 0.76963 0.0
H336 H 0.61049 0.53249 0.63339 0.0
H337 H 0.52221 0.5298 0.68067 0.0
H338 H 0.62478 0.46741 0.66093 0.0
H339 H 0.65333 0.49845 0.69639 0.0
H340 H 0.65203 0.50885 0.65432 0.0
H341 H 0.51479 0.46009 0.71998 0.0
H342 H 0.50426 0.49629 0.7218 0.0
H343 H 0.54382 0.49596 0.75054 0.0
C344 C 0.89748 0.6293 0.20963 0.0
C345 C 0.92375 0.64878 0.23876 0.0
C346 C 0.90797 0.61512 0.18343 0.0
C347 C 0.94581 0.62123 0.18599 0.0
C348 C 0.97257 0.6416 0.21498 0.0
C349 C 0.96117 0.65475 0.24117 0.0
C350 C 0.87846 0.593 0.15334 0.0
C351 C 0.01328 0.6494 0.2184 0.0
C352 C 0.97303 0.56175 0.13576 0.0
C353 C 0.98192 0.57797 0.10817 0.0
C354 C 0.96037 0.57512 0.16078 0.0
C355 C 0.95739 0.60591 0.15866 0.0
C356 C 0.96623 0.62235 0.13079 0.0
C357 C 0.97794 0.608 0.1057 0.0
C358 C 0.95039 0.55636 0.18961 0.0
C359 C 0.96423 0.65553 0.12789 0.0
H360 H 0.86847 0.62435 0.2077 0.0
H361 H 0.98165 0.66991 0.26352 0.0
H362 H 0.8845 0.60293 0.12985 0.0
H363 H 0.8785 0.56782 0.1511 0.0
H364 H 0.85028 0.59069 0.15515 0.0
H365 H 0.03078 0.66696 0.2417 0.0
H366 H 0.01783 0.62619 0.21882 0.0
H367 H 0.02273 0.66038 0.19632 0.0
H368 H 0.97582 0.53845 0.13774 0.0
H369 H 0.98508 0.62085 0.08462 0.0
H370 H 0.92174 0.55223 0.19154 0.0
H371 H 0.96925 0.57125 0.21372 0.0
H372 H 0.95227 0.53191 0.18663 0.0
H373 H 0.9358 0.65349 0.128 0.0
H374 H 0.97182 0.66502 0.10457 0.0
H375 H 0.98326 0.67405 0.14999 0.0
C376 C 0.43288 0.28316 0.17108 0.0
C377 C 0.4312 0.29541 0.2031 0.0
C378 C 0.43413 0.25201 0.16467 0.0
C379 C 0.43417 0.23283 0.19106 0.0
C380 C 0.43231 0.24502 0.22343 0.0
C381 C 0.43095 0.27624 0.22909 0.0
C382 C 0.4359 0.23982 0.12975 0.0
C383 C 0.43273 0.22551 0.25231 0.0
C384 C 0.40866 0.14073 0.16598 0.0
C385 C 0.44371 0.13985 0.16903 0.0
C386 C 0.40511 0.1707 0.17362 0.0
C387 C 0.43737 0.20052 0.1849 0.0
C388 C 0.4728 0.1997 0.18901 0.0
C389 C 0.47555 0.16944 0.18087 0.0
C390 C 0.36684 0.17059 0.1689 0.0
C391 C 0.50788 0.23094 0.20119 0.0
H392 H 0.43324 0.298 0.15098 0.0
H393 H 0.4311 0.28613 0.25419 0.0
H394 H 0.46217 0.23664 0.13077 0.0
H395 H 0.41277 0.21516 0.11991 0.0
H396 H 0.43432 0.2572 0.11174 0.0
H397 H 0.429 0.23758 0.2754 0.0
H398 H 0.41043 0.20007 0.24509 0.0
H399 H 0.45951 0.22293 0.25834 0.0
H400 H 0.38389 0.11794 0.15741 0.0
H401 H 0.50275 0.1692 0.18287 0.0
H402 H 0.36325 0.18616 0.14953 0.0
H403 H 0.36345 0.18162 0.19272 0.0
H404 H 0.34453 0.14516 0.16096 0.0
H405 H 0.50988 0.24834 0.18257 0.0
H406 H 0.5332 0.22577 0.20499 0.0
H407 H 0.50724 0.24374 0.22532 0.0
C408 C 0.15473 0.88061 0.66623 0.0
C409 C 0.15139 0.8793 0.69981 0.0
C410 C 0.13648 0.89588 0.64511 0.0
C411 C 0.11439 0.91017 0.65789 0.0
C412 C 0.10972 0.90776 0.69132 0.0
C413 C 0.12826 0.89234 0.71186 0.0
C414 C 0.14195 0.89782 0.60953 0.0
C415 C 0.08629 0.92259 0.70583 0.0
C416 C 0.10372 0.98241 0.61904 0.0
C417 C 0.06807 0.9671 0.59805 0.0
C418 C 0.11903 0.96411 0.63859 0.0
C419 C 0.09825 0.92963 0.63713 0.0
C420 C 0.06222 0.91399 0.61608 0.0
C421 C 0.04753 0.93292 0.5968 0.0
C422 C 0.15754 0.98171 0.66081 0.0
C423 C 0.03926 0.87727 0.61385 0.0
H424 H 0.17242 0.87048 0.65666 0.0
H425 H 0.12534 0.8913 0.73771 0.0
H426 H 0.11474 0.88844 0.59135 0.0
H427 H 0.15737 0.92412 0.6068 0.0
H428 H 0.15764 0.88331 0.60262 0.0
H429 H 0.08335 0.91654 0.73141 0.0
H430 H 0.09909 0.95002 0.7074 0.0
H431 H 0.05823 0.91348 0.6891 0.0
H432 H 0.11983 1.00877 0.62019 0.0
H433 H 0.02001 0.92083 0.58058 0.0
H434 H 0.17596 0.9703 0.65358 0.0
H435 H 0.1566 0.97888 0.68747 0.0
H436 H 0.17004 1.00865 0.65909 0.0
H437 H 0.05423 0.86282 0.60522 0.0
H438 H 0.01172 0.86888 0.59627 0.0
H439 H 0.03494 0.87135 0.63915 0.0
C440 C 0.7706 0.37543 0.89831 0.0
C441 C 0.74622 0.39056 0.88846 0.0
C442 C 0.80733 0.39433 0.9158 0.0
C443 C 0.81986 0.42919 0.92409 0.0
C444 C 0.79592 0.44482 0.913 0.0
C445 C 0.75941 0.42532 0.89504 0.0
C446 C 0.83224 0.37681 0.92666 0.0
C447 C 0.80835 0.48193 0.92146 0.0
C448 C 0.89585 0.46695 1.00359 0.0
C449 C 0.92757 0.48013 0.99046 0.0
C450 C 0.86049 0.45134 0.98219 0.0
C451 C 0.85687 0.44865 0.9468 0.0
C452 C 0.88879 0.46274 0.93343 0.0
C453 C 0.92384 0.4783 0.95548 0.0
C454 C 0.82707 0.43701 0.99745 0.0
C455 C 0.88613 0.46033 0.89588 0.0
H456 H 0.76074 0.34862 0.89297 0.0
H457 H 0.74074 0.4372 0.8875 0.0
H458 H 0.85901 0.38875 0.91905 0.0
H459 H 0.83852 0.37887 0.95454 0.0
H460 H 0.81937 0.35004 0.91568 0.0
H461 H 0.78703 0.49045 0.90964 0.0
H462 H 0.81449 0.48916 0.94919 0.0
H463 H 0.83433 0.49518 0.91306 0.0
H464 H 0.8987 0.46859 0.03066 0.0
H465 H 0.94842 0.48841 0.94528 0.0
H466 H 0.81397 0.40958 0.9904 0.0
H467 H 0.80606 0.44656 0.98741 0.0
H468 H 0.83438 0.44311 0.0254 0.0
H469 H 0.87886 0.43422 0.88505 0.0
H470 H 0.91264 0.47642 0.88972 0.0
H471 H 0.86386 0.46741 0.88343 0.0
C472 C 0.76598 0.63854 0.45581 0.0
C473 C 0.75233 0.63396 0.42084 0.0
C474 C 0.74177 0.62954 0.47786 0.0
C475 C 0.70296 0.61509 0.46461 0.0
C476 C 0.68902 0.60961 0.42928 0.0
C477 C 0.71386 0.61934 0.40785 0.0
C478 C 0.75768 0.6362 0.51539 0.0
C479 C 0.6478 0.59393 0.41416 0.0
C480 C 0.6386 0.56525 0.51756 0.0
C481 C 0.62417 0.5876 0.52837 0.0
C482 C 0.66467 0.57404 0.49727 0.0
C483 C 0.67685 0.60605 0.48765 0.0
C484 C 0.6632 0.62905 0.4992 0.0
C485 C 0.63711 0.6196 0.51951 0.0
C486 C 0.67822 0.54866 0.4852 0.0
C487 C 0.67567 0.66348 0.48961 0.0
H488 H 0.79567 0.65007 0.4661 0.0
H489 H 0.70309 0.61566 0.38088 0.0
H490 H 0.74834 0.65373 0.52779 0.0
H491 H 0.74735 0.61285 0.52623 0.0
H492 H 0.7885 0.64694 0.52164 0.0
H493 H 0.64147 0.59035 0.38616 0.0
H494 H 0.63497 0.56944 0.42242 0.0
H495 H 0.63455 0.6098 0.42321 0.0
H496 H 0.62879 0.54043 0.52415 0.0
H497 H 0.62619 0.63705 0.52772 0.0
H498 H 0.70896 0.5589 0.49232 0.0
H499 H 0.66998 0.54278 0.45728 0.0
H500 H 0.66688 0.52519 0.49576 0.0
H501 H 0.70572 0.67768 0.50076 0.0
H502 H 0.66023 0.67745 0.49836 0.0
H503 H 0.67181 0.66208 0.46185 0.0
C504 C 0.34965 0.43569 0.14251 0.0
C505 C 0.35271 0.41919 0.17031 0.0
C506 C 0.31804 0.442 0.13155 0.0
C507 C 0.28864 0.43124 0.14858 0.0
C508 C 0.29118 0.41387 0.17614 0.0
C509 C 0.32326 0.40821 0.18678 0.0
C510 C 0.31649 0.46086 0.10226 0.0
C511 C 0.26025 0.40173 0.19475 0.0
C512 C 0.22396 0.47554 0.14543 0.0
C513 C 0.19265 0.45355 0.12135 0.0
C514 C 0.25559 0.46883 0.15408 0.0
C515 C 0.25582 0.43926 0.13847 0.0
C516 C 0.22447 0.41714 0.11382 0.0
C517 C 0.19329 0.42464 0.10541 0.0
C518 C 0.28863 0.49325 0.18019 0.0
C519 C 0.22358 0.38524 0.09684 0.0
H520 H 0.37232 0.44433 0.1297 0.0
H521 H 0.32533 0.3953 0.20818 0.0
H522 H 0.29119 0.44626 0.08235 0.0
H523 H 0.31479 0.48455 0.11076 0.0
H524 H 0.34114 0.4666 0.09106 0.0
H525 H 0.26575 0.38721 0.21459 0.0
H526 H 0.25656 0.42322 0.20675 0.0
H527 H 0.2337 0.38592 0.17681 0.0
H528 H 0.22372 0.49813 0.15746 0.0
H529 H 0.16901 0.40746 0.08699 0.0
H530 H 0.3138 0.50131 0.16961 0.0
H531 H 0.294 0.48111 0.20223 0.0
H532 H 0.28446 0.51562 0.1891 0.0
H533 H 0.24733 0.39066 0.08447 0.0
H534 H 0.19745 0.37111 0.07761 0.0
H535 H 0.22646 0.36924 0.11598 0.0
C536 C 0.58719 0.22444 0.9646 0.0
C537 C 0.59264 0.22283 0.9316 0.0
C538 C 0.57649 0.19599 0.98036 0.0
C539 C 0.57139 0.16512 0.96286 0.0
C540 C 0.57638 0.16318 0.92938 0.0
C541 C 0.58676 0.19202 0.91408 0.0
C542 C 0.57101 0.19908 0.01593 0.0
C543 C 0.57141 0.13076 0.90996 0.0
C544 C 0.57884 0.10092 0.01797 0.0
C545 C 0.54144 0.08107 0.01644 0.0
C546 C 0.589 0.12775 0.99981 0.0
C547 C 0.56107 0.13501 0.97986 0.0
C548 C 0.52325 0.11448 0.97759 0.0
C549 C 0.5139 0.08768 0.99578 0.0
C550 C 0.62964 0.14883 1.00265 0.0
C551 C 0.49263 0.12146 0.95679 0.0
H552 H 0.59152 0.24808 0.97831 0.0
H553 H 0.59108 0.19055 0.88864 0.0
H554 H 0.54262 0.18171 0.01692 0.0
H555 H 0.59082 0.19209 0.03294 0.0
H556 H 0.57512 0.22469 0.02574 0.0
H557 H 0.57573 0.13327 0.88397 0.0
H558 H 0.59135 0.12154 0.92336 0.0
H559 H 0.54312 0.11163 0.90844 0.0
H560 H 0.60021 0.09578 0.03378 0.0
H561 H 0.48492 0.07235 0.99444 0.0
H562 H 0.63674 0.17441 0.01505 0.0
H563 H 0.63568 0.15072 0.97719 0.0
H564 H 0.64786 0.13866 0.01744 0.0
H565 H 0.4941 0.14595 0.96723 0.0
H566 H 0.46465 0.1022 0.95634 0.0
H567 H 0.49614 0.12277 0.9305 0.0
C568 C 0.94213 0.81458 0.36144 0.0
C569 C 0.92699 0.79121 0.38215 0.0
C570 C 0.95904 0.84887 0.37402 0.0
C571 C 0.96136 0.85989 0.40818 0.0
C572 C 0.94623 0.83638 0.42914 0.0
C573 C 0.92912 0.80248 0.41585 0.0
C574 C 0.97437 0.8733 0.35082 0.0
C575 C 0.94855 0.84696 0.46584 0.0
C576 C 0.03589 0.94192 0.45593 0.0
C577 C 0.01535 0.96099 0.45918 0.0
C578 C 0.01897 0.90945 0.43809 0.0
C579 C 0.98063 0.89583 0.42277 0.0
C580 C 0.96013 0.91559 0.42462 0.0
C581 C 0.9777 0.94791 0.44302 0.0
C582 C 0.04174 0.88912 0.43724 0.0
C583 C 0.91928 0.9021 0.40844 0.0
H584 H 0.9404 0.80613 0.33535 0.0
H585 H 0.91773 0.78469 0.43218 0.0
H586 H 0.96161 0.89157 0.3503 0.0
H587 H 1.0047 0.88744 0.3604 0.0
H588 H 0.96923 0.86087 0.32466 0.0
H589 H 0.93501 0.82556 0.47864 0.0
H590 H 0.97804 0.86017 0.47937 0.0
H591 H 0.93516 0.86454 0.46811 0.0
H592 H 0.06502 0.95193 0.46839 0.0
H593 H 0.96176 0.96263 0.44541 0.0
H594 H 0.03828 0.87793 0.41098 0.0
H595 H 0.03185 0.8684 0.45187 0.0
H596 H 0.07175 0.90416 0.44803 0.0
H597 H 0.91387 0.89002 0.38211 0.0
H598 H 0.90856 0.92184 0.40831 0.0
H599 H 0.90346 0.8829 0.42246 0.0
C600 C 0.32942 0.77468 0.67431 0.0
C601 C 0.30475 0.75326 0.69132 0.0
C602 C 0.35445 0.76529 0.66075 0.0
C603 C 0.35485 0.73378 0.66437 0.0
C604 C 0.32941 0.71174 0.68078 0.0
C605 C 0.30464 0.72173 0.69401 0.0
C606 C 0.38104 0.78938 0.64325 0.0
C607 C 0.32899 0.67791 0.68512 0.0
C608 C 0.39996 0.69637 0.60858 0.0
C609 C 0.43421 0.70305 0.6302 0.0
C610 C 0.37411 0.70678 0.61911 0.0
C611 C 0.3827 0.72422 0.65207 0.0
C612 C 0.41751 0.73161 0.67378 0.0
C613 C 0.44286 0.72096 0.66257 0.0
C614 C 0.33737 0.69863 0.59518 0.0
C615 C 0.42764 0.75006 0.70917 0.0
H616 H 0.32967 0.79907 0.67207 0.0
H617 H 0.28568 0.70501 0.70711 0.0
H618 H 0.40998 0.79666 0.65747 0.0
H619 H 0.37869 0.77736 0.61763 0.0
H620 H 0.37593 0.81223 0.64103 0.0
H621 H 0.3066 0.66327 0.69743 0.0
H622 H 0.32516 0.6636 0.66026 0.0
H623 H 0.35602 0.68076 0.70066 0.0
H624 H 0.39333 0.68289 0.58338 0.0
H625 H 0.46908 0.72583 0.67953 0.0
H626 H 0.33298 0.72167 0.59208 0.0
H627 H 0.31443 0.68217 0.60578 0.0
H628 H 0.33558 0.68607 0.56995 0.0
H629 H 0.42508 0.77416 0.70858 0.0
H630 H 0.45635 0.75491 0.72242 0.0
H631 H 0.40811 0.7354 0.724 0.0
C632 C 0.72126 0.74242 0.67635 0.0
C633 C 0.69667 0.71264 0.6555 0.0
C634 C 0.74526 0.7687 0.66312 0.0
C635 C 0.74468 0.76503 0.62822 0.0
C636 C 0.71943 0.7352 0.60697 0.0
C637 C 0.69591 0.70931 0.62091 0.0
C638 C 0.77202 0.79998 0.68665 0.0
C639 C 0.71777 0.7303 0.56963 0.0
C640 C 0.78666 0.84254 0.58861 0.0
C641 C 0.82132 0.84273 0.58659 0.0
C642 C 0.76146 0.81744 0.60211 0.0
C643 C 0.77121 0.79199 0.61407 0.0
C644 C 0.80621 0.79211 0.61225 0.0
C645 C 0.83079 0.81742 0.59844 0.0
C646 C 0.72426 0.81797 0.60328 0.0
C647 C 0.81771 0.7655 0.62492 0.0
H648 H 0.72295 0.74471 0.70325 0.0
H649 H 0.67705 0.68624 0.60472 0.0
H650 H 0.80094 0.80321 0.68701 0.0
H651 H 0.76881 0.82201 0.67757 0.0
H652 H 0.76786 0.7995 0.71285 0.0
H653 H 0.69464 0.70671 0.55638 0.0
H654 H 0.71425 0.75124 0.55818 0.0
H655 H 0.74419 0.72995 0.56539 0.0
H656 H 0.77896 0.86177 0.57905 0.0
H657 H 0.85767 0.81762 0.59726 0.0
H658 H 0.7207 0.81879 0.62964 0.0
H659 H 0.70167 0.79484 0.58845 0.0
H660 H 0.72101 0.83961 0.59315 0.0
H661 H 0.81679 0.76499 0.6519 0.0
H662 H 0.84611 0.76945 0.62218 0.0
H663 H 0.79799 0.74075 0.61083 0.0
C664 C 0.72697 0.21756 0.27073 0.0
C665 C 0.74636 0.20709 0.29638 0.0
C666 C 0.7043 0.19556 0.24136 0.0
C667 C 0.70086 0.16231 0.23763 0.0
C668 C 0.72129 0.15188 0.26288 0.0
C669 C 0.74385 0.17441 0.29191 0.0
C670 C 0.68306 0.2076 0.21485 0.0
C671 C 0.71829 0.11658 0.25979 0.0
C672 C 0.61216 0.09554 0.18375 0.0
C673 C 0.62339 0.08934 0.15425 0.0
C674 C 0.63703 0.1195 0.21086 0.0
C675 C 0.67405 0.13779 0.20844 0.0
C676 C 0.6855 0.13204 0.1786 0.0
C677 C 0.66002 0.10782 0.15182 0.0
C678 C 0.62375 0.12493 0.24229 0.0
C679 C 0.72475 0.15122 0.17511 0.0
H680 H 0.72886 0.2428 0.27387 0.0
H681 H 0.7588 0.16609 0.31152 0.0
H682 H 0.68794 0.20174 0.1897 0.0
H683 H 0.65287 0.19452 0.21337 0.0
H684 H 0.69096 0.23479 0.22032 0.0
H685 H 0.73771 0.11298 0.28064 0.0
H686 H 0.68957 0.09934 0.25996 0.0
H687 H 0.72411 0.10952 0.23548 0.0
H688 H 0.58389 0.08148 0.18584 0.0
H689 H 0.66889 0.10327 0.12908 0.0
H690 H 0.62834 0.15136 0.24803 0.0
H691 H 0.63997 0.11925 0.26413 0.0
H692 H 0.59384 0.10917 0.23981 0.0
H693 H 0.73188 0.1783 0.1795 0.0
H694 H 0.72891 0.14455 0.14984 0.0
H695 H 0.74443 0.14629 0.1945 0.0
C696 C 0.44698 0.64796 0.36422 0.0
C697 C 0.46595 0.68261 0.37244 0.0
C698 C 0.45215 0.62687 0.38699 0.0
C699 C 0.47759 0.64066 0.41853 0.0
C700 C 0.49758 0.6756 0.42663 0.0
C701 C 0.49118 0.69618 0.40368 0.0
C702 C 0.42981 0.58983 0.37755 0.0
C703 C 0.52567 0.69125 0.45958 0.0
C704 C 0.46675 0.58822 0.48957 0.0
C705 C 0.49159 0.57352 0.48652 0.0
C706 C 0.462 0.61026 0.46774 0.0
C707 C 0.4833 0.61838 0.44283 0.0
C708 C 0.50925 0.60431 0.44044 0.0
C709 C 0.51273 0.58176 0.462 0.0
C710 C 0.4337 0.62435 0.4709 0.0
C711 C 0.53333 0.61299 0.41502 0.0
H712 H 0.42715 0.63727 0.3403 0.0
H713 H 0.50599 0.72292 0.41019 0.0
H714 H 0.44866 0.57692 0.3774 0.0
H715 H 0.41331 0.5804 0.3966 0.0
H716 H 0.41062 0.58308 0.35236 0.0
H717 H 0.53986 0.71869 0.4616 0.0
H718 H 0.51187 0.68542 0.48099 0.0
H719 H 0.54692 0.68076 0.46222 0.0
H720 H 0.45055 0.58202 0.50866 0.0
H721 H 0.53245 0.57088 0.45993 0.0
H722 H 0.41227 0.61664 0.44702 0.0
H723 H 0.44715 0.65189 0.47524 0.0
H724 H 0.41979 0.61597 0.49186 0.0
H725 H 0.51574 0.60415 0.38911 0.0
H726 H 0.55398 0.60178 0.41801 0.0
H727 H 0.54836 0.64037 0.41757 0.0
C728 C 0.10553 0.41233 0.84474 0.0
C729 C 0.13707 0.4296 0.83231 0.0
C730 C 0.09466 0.42823 0.86923 0.0
C731 C 0.11578 0.46239 0.88188 0.0
C732 C 0.14767 0.48006 0.86954 0.0
C733 C 0.15791 0.4635 0.84489 0.0
C734 C 0.06041 0.40839 0.88152 0.0
C735 C 0.17097 0.51648 0.8824 0.0
C736 C 0.06525 0.50744 0.92173 0.0
C737 C 0.07667 0.50701 0.95624 0.0
C738 C 0.07855 0.49388 0.89741 0.0
C739 C 0.10395 0.47945 0.90769 0.0
C740 C 0.11624 0.47958 0.94253 0.0
C741 C 0.10248 0.49333 0.96634 0.0
C742 C 0.06462 0.49422 0.86058 0.0
C743 C 0.14327 0.46447 0.95464 0.0
H744 H 0.08911 0.38616 0.83531 0.0
H745 H 0.18234 0.47711 0.83559 0.0
H746 H 0.06768 0.40917 0.9092 0.0
H747 H 0.03985 0.41952 0.87641 0.0
H748 H 0.0471 0.38199 0.8693 0.0
H749 H 0.1951 0.52664 0.87052 0.0
H750 H 0.15379 0.53091 0.87735 0.0
H751 H 0.18133 0.52028 0.91012 0.0
H752 H 0.0454 0.51798 0.91357 0.0
H753 H 0.11162 0.49291 0.99289 0.0
H754 H 0.04866 0.46835 0.8473 0.0
H755 H 0.08833 0.50582 0.84859 0.0
H756 H 0.04648 0.50795 0.85679 0.0
H757 H 0.1306 0.43743 0.94501 0.0
H758 H 0.15154 0.46802 0.98259 0.0
H759 H 0.16857 0.47565 0.94458 0.0
C760 C 0.60891 0.78201 0.8169 0.0
C761 C 0.63704 0.79127 0.79877 0.0
C762 C 0.60652 0.80528 0.84065 0.0
C763 C 0.63285 0.83868 0.84643 0.0
C764 C 0.66108 0.84832 0.82797 0.0
C765 C 0.66287 0.8245 0.80439 0.0
C766 C 0.57603 0.794 0.85984 0.0
C767 C 0.6896 0.88373 0.83336 0.0
C768 C 0.60801 0.90445 0.88827 0.0
C769 C 0.62728 0.90925 0.9218 0.0
C770 C 0.60982 0.88179 0.8634 0.0
C771 C 0.63125 0.86335 0.87231 0.0
C772 C 0.65074 0.86807 0.90611 0.0
C773 C 0.64858 0.89099 0.93041 0.0
C774 C 0.58882 0.8776 0.8276 0.0
C775 C 0.67363 0.84868 0.91669 0.0
H776 H 0.58879 0.75644 0.81275 0.0
H777 H 0.68466 0.83192 0.79049 0.0
H778 H 0.5883 0.79827 0.88726 0.0
H779 H 0.55913 0.8088 0.85591 0.0
H780 H 0.55739 0.76725 0.85202 0.0
H781 H 0.70919 0.88741 0.8164 0.0
H782 H 0.6756 0.90087 0.82899 0.0
H783 H 0.70574 0.89085 0.85985 0.0
H784 H 0.59186 0.91877 0.88139 0.0
H785 H 0.66315 0.89427 0.95635 0.0
H786 H 0.56844 0.85146 0.81937 0.0
H787 H 0.60826 0.8831 0.81042 0.0
H788 H 0.57379 0.8941 0.82473 0.0
H789 H 0.65571 0.82167 0.91148 0.0
H790 H 0.68743 0.85552 0.9439 0.0
H791 H 0.69522 0.85309 0.90179 0.0
C792 C 0.91244 0.19155 0.42097 0.0
C793 C 0.88628 0.1939 0.43857 0.0
C794 C 0.93039 0.17043 0.42886 0.0
C795 C 0.92242 0.15162 0.45533 0.0
C796 C 0.89655 0.15434 0.47359 0.0
C797 C 0.87855 0.17524 0.4648 0.0
C798 C 0.95762 0.16799 0.40867 0.0
C799 C 0.88781 0.13511 0.50237 0.0
C800 C 0.94157 0.07393 0.45954 0.0
C801 C 0.97514 0.0859 0.48369 0.0
C802 C 0.92457 0.09526 0.44938 0.0
C803 C 0.94129 0.1292 0.46412 0.0
C804 C 0.9755 0.14151 0.48806 0.0
C805 C 0.99209 0.11977 0.49741 0.0
C806 C 0.88837 0.08135 0.42336 0.0
C807 C 0.99398 0.17739 0.50477 0.0
H808 H 0.91836 0.20573 0.40051 0.0
H809 H 0.85845 0.17702 0.47856 0.0
H810 H 0.98531 0.17531 0.42557 0.0
H811 H 0.94851 0.14188 0.39673 0.0
H812 H 0.96047 0.18402 0.38866 0.0
H813 H 0.86758 0.14051 0.51448 0.0
H814 H 0.87626 0.10804 0.49313 0.0
H815 H 0.91362 0.14124 0.52177 0.0
H816 H 0.92838 0.04782 0.44882 0.0
H817 H 0.01782 0.1292 0.5164 0.0
H818 H 0.89061 0.09607 0.40229 0.0
H819 H 0.86602 0.08327 0.4348 0.0
H820 H 0.88009 0.0549 0.41296 0.0
H821 H 0.99618 0.19426 0.48561 0.0
H822 H 0.02219 0.18374 0.52031 0.0
H823 H 0.97683 0.18225 0.52128 0.0
C824 C 0.2519 0.71996 0.19959 0.0
C825 C 0.28105 0.71103 0.21249 0.0
C826 C 0.22222 0.69905 0.17343 0.0
C827 C 0.22184 0.66859 0.15953 0.0
C828 C 0.251 0.65923 0.17259 0.0
C829 C 0.28019 0.6805 0.19909 0.0
C830 C 0.19131 0.70966 0.16055 0.0
C831 C 0.25161 0.62701 0.15827 0.0
C832 C 0.12749 0.60426 0.11295 0.0
C833 C 0.12765 0.60961 0.07948 0.0
C834 C 0.15846 0.62248 0.13913 0.0
C835 C 0.19051 0.64648 0.13162 0.0
C836 C 0.19146 0.65093 0.09767 0.0
C837 C 0.15988 0.63247 0.07194 0.0
C838 C 0.15623 0.61706 0.17496 0.0
C839 C 0.22535 0.67599 0.08869 0.0
H840 H 0.2523 0.74345 0.20989 0.0
H841 H 0.30275 0.67353 0.20879 0.0
H842 H 0.18934 0.71177 0.13341 0.0
H843 H 0.16436 0.6906 0.16294 0.0
H844 H 0.19551 0.73389 0.17443 0.0
H845 H 0.27621 0.6233 0.17134 0.0
H846 H 0.22618 0.60572 0.16031 0.0
H847 H 0.25176 0.62666 0.13107 0.0
H848 H 0.10266 0.58647 0.11889 0.0
H849 H 0.16013 0.63647 0.04606 0.0
H850 H 0.15725 0.63979 0.1894 0.0
H851 H 0.18032 0.61245 0.18758 0.0
H852 H 0.13034 0.5958 0.17626 0.0
H853 H 0.22961 0.70146 0.09905 0.0
H854 H 0.22285 0.67439 0.061 0.0
H855 H 0.25044 0.67222 0.10016 0.0
C856 C 0.27073 0.45383 0.6677 0.0
C857 C 0.28028 0.45083 0.70177 0.0
C858 C 0.29812 0.46721 0.64921 0.0
C859 C 0.33608 0.47817 0.6652 0.0
C860 C 0.34593 0.47607 0.69983 0.0
C861 C 0.31796 0.46231 0.71762 0.0
C862 C 0.2864 0.46875 0.61231 0.0
C863 C 0.38605 0.48778 0.71795 0.0
C864 C 0.40686 0.48051 0.61319 0.0
C865 C 0.42381 0.51446 0.61097 0.0
C866 C 0.37779 0.46833 0.63009 0.0
C867 C 0.36547 0.49063 0.64549 0.0
C868 C 0.38199 0.52484 0.64284 0.0
C869 C 0.41081 0.53631 0.62552 0.0
C870 C 0.36071 0.43162 0.63197 0.0
C871 C 0.36989 0.54949 0.65907 0.0
H872 H 0.24173 0.44495 0.65517 0.0
H873 H 0.32567 0.4602 0.74393 0.0
H874 H 0.30018 0.4945 0.60719 0.0
H875 H 0.29526 0.45277 0.5969 0.0
H876 H 0.25589 0.46045 0.60392 0.0
H877 H 0.3892 0.48602 0.74527 0.0
H878 H 0.39883 0.47261 0.70661 0.0
H879 H 0.40182 0.51396 0.71504 0.0
H880 H 0.41656 0.46336 0.60201 0.0
H881 H 0.42375 0.56261 0.62412 0.0
H882 H 0.33021 0.42144 0.62225 0.0
H883 H 0.36574 0.42763 0.65862 0.0
H884 H 0.37218 0.41735 0.61733 0.0
H885 H 0.33957 0.54172 0.65011 0.0
H886 H 0.38446 0.57502 0.65359 0.0
H887 H 0.37548 0.55012 0.6868 0.0
C888 C 0.73123 0.6081 0.78298 0.0
C889 C 0.71541 0.58863 0.75101 0.0
C890 C 0.76073 0.60506 0.80471 0.0
C891 C 0.77455 0.58177 0.79438 0.0
C892 C 0.75775 0.56112 0.76269 0.0
C893 C 0.7285 0.56492 0.74129 0.0
C894 C 0.77789 0.62757 0.83831 0.0
C895 C 0.77134 0.53566 0.751 0.0
C896 C 0.87516 0.60246 0.83498 0.0
C897 C 0.87169 0.58309 0.86101 0.0
C898 C 0.84376 0.6015 0.81253 0.0
C899 C 0.80793 0.58051 0.81603 0.0
C900 C 0.8042 0.55989 0.84138 0.0
C901 C 0.83613 0.56148 0.86363 0.0
C902 C 0.84893 0.62377 0.78574 0.0
C903 C 0.76647 0.53708 0.8458 0.0
H904 H 0.72121 0.6264 0.79074 0.0
H905 H 0.71624 0.54961 0.71673 0.0
H906 H 0.7782 0.61262 0.859 0.0
H907 H 0.80714 0.64411 0.83902 0.0
H908 H 0.76281 0.64326 0.84325 0.0
H909 H 0.75338 0.51971 0.72696 0.0
H910 H 0.79995 0.54843 0.74729 0.0
H911 H 0.77243 0.51954 0.77046 0.0
H912 H 0.90254 0.61879 0.83244 0.0
H913 H 0.83315 0.5467 0.88388 0.0
H914 H 0.83699 0.64214 0.79024 0.0
H915 H 0.83391 0.6089 0.76051 0.0
H916 H 0.87862 0.63745 0.78535 0.0
H917 H 0.75222 0.55211 0.85467 0.0
H918 H 0.76829 0.52021 0.8643 0.0
H919 H 0.74892 0.52184 0.82136 0.0
C920 C 0.48373 0.86629 0.25654 0.0
C921 C 0.48592 0.8353 0.25352 0.0
C922 C 0.49832 0.88954 0.23552 0.0
C923 C 0.5149 0.88138 0.21033 0.0
C924 C 0.51888 0.85079 0.20826 0.0
C925 C 0.50463 0.82821 0.23013 0.0
C926 C 0.49427 0.92215 0.23917 0.0
C927 C 0.53607 0.84101 0.18159 0.0
C928 C 0.50804 0.92245 0.13189 0.0
C929 C 0.54398 0.94728 0.13682 0.0
C930 C 0.49851 0.90045 0.15529 0.0
C931 C 0.52538 0.90374 0.18466 0.0
C932 C 0.56166 0.92897 0.18985 0.0
C933 C 0.5706 0.95026 0.16572 0.0
C934 C 0.4596 0.87371 0.1486 0.0
C935 C 0.59086 0.93375 0.22109 0.0
H936 H 0.46942 0.87196 0.27468 0.0
H937 H 0.50607 0.80417 0.22744 0.0
H938 H 0.52113 0.94317 0.24006 0.0
H939 H 0.47404 0.92253 0.21696 0.0
H940 H 0.4845 0.92624 0.26224 0.0
H941 H 0.54005 0.81782 0.18513 0.0
H942 H 0.51788 0.83711 0.15635 0.0
H943 H 0.5633 0.86118 0.18175 0.0
H944 H 0.48742 0.92001 0.10953 0.0
H945 H 0.59838 0.96956 0.1697 0.0
H946 H 0.44569 0.87747 0.16875 0.0
H947 H 0.46053 0.84894 0.14902 0.0
H948 H 0.4425 0.87355 0.12391 0.0
H949 H 0.58137 0.93928 0.24384 0.0
H950 H 0.61787 0.9543 0.2212 0.0
H951 H 0.59517 0.91055 0.2231 0.0
C952 C 0.09755 0.24697 0.65029 0.0
C953 C 0.10538 0.25452 0.68557 0.0
C954 C 0.08389 0.21398 0.63406 0.0
C955 C 0.07777 0.18782 0.65354 0.0
C956 C 0.08637 0.19531 0.68916 0.0
C957 C 0.10014 0.22852 0.70473 0.0
C958 C 0.07518 0.20704 0.59602 0.0
C959 C 0.08008 0.16813 0.71081 0.0
C960 C 1.00564 0.10231 0.61104 0.0
C961 C 0.02784 0.0862 0.60313 0.0
C962 C 0.02157 0.13521 0.62781 0.0
C963 C 0.06069 0.15255 0.6366 0.0
C964 C 0.08327 0.13628 0.62884 0.0
C965 C 0.06656 0.1032 0.61237 0.0
C966 C 0.99647 0.15155 0.6357 0.0
C967 C 0.12504 0.15402 0.63737 0.0
H968 H 0.10159 0.26683 0.63523 0.0
H969 H 0.10609 0.23402 0.73199 0.0
H970 H 0.08982 0.19221 0.58749 0.0
H971 H 0.04501 0.19207 0.58632 0.0
H972 H 0.08323 0.23019 0.58457 0.0
H973 H 0.0896 0.17812 0.73816 0.0
H974 H 0.05009 0.15159 0.70546 0.0
H975 H 0.09492 0.1526 0.70467 0.0
H976 H 0.97569 0.08928 0.60383 0.0
H977 H 0.08382 0.09088 0.60608 0.0
H978 H 1.00078 0.17331 0.62233 0.0
H979 H 1.00345 0.16083 0.6631 0.0
H980 H 0.96667 0.13429 0.62819 0.0
H981 H 0.13372 0.17611 0.62436 0.0
H982 H 0.13863 0.13778 0.62991 0.0
H983 H 0.13525 0.16305 0.66485 0.0
C984 C 0.68491 0.33613 0.40215 0.0
C985 C 0.71861 0.33585 0.41866 0.0
C986 C 0.6656 0.35017 0.41911 0.0
C987 C 0.68031 0.36437 0.45348 0.0
C988 C 0.71453 0.36458 0.47027 0.0
C989 C 0.7333 0.35028 0.45265 0.0
C990 C 0.62919 0.34945 0.40029 0.0
C991 C 0.7311 0.37963 0.50689 0.0
C992 C 0.64199 0.42404 0.48596 0.0
C993 C 0.6144 0.40336 0.50095 0.0
C994 C 0.66456 0.41201 0.47145 0.0
C995 C 0.65931 0.37844 0.47177 0.0
C996 C 0.63218 0.35768 0.48761 0.0
C997 C 0.6101 0.37039 0.50204 0.0
C998 C 0.69318 0.43494 0.4548 0.0
C999 C 0.62577 0.32174 0.48848 0.0
H1000 H 0.67333 0.3251 0.37589 0.0
H1001 H 0.75933 0.3502 0.46558 0.0
H1002 H 0.60656 0.33527 0.41252 0.0
H1003 H 0.63055 0.37509 0.40122 0.0
H1004 H 0.62185 0.33792 0.37346 0.0
H1005 H 0.75834 0.37851 0.51606 0.0
H1006 H 0.73485 0.40598 0.51059 0.0
H1007 H 0.7119 0.36633 0.52264 0.0
H1008 H 0.64522 0.44942 0.48464 0.0
H1009 H 0.58926 0.35443 0.51406 0.0
H1010 H 0.68545 0.42614 0.42725 0.0
H1011 H 0.7207 0.43464 0.46452 0.0
H1012 H 0.69577 0.46097 0.45901 0.0
H1013 H 0.6158 0.3079 0.46241 0.0
H1014 H 0.60504 0.30943 0.50339 0.0
H1015 H 0.65217 0.3199 0.49944 0.0
loop_
_geom_bond_atom_site_label_1
_geom_bond_atom_site_label_2
_geom_bond_distance
_geom_bond_site_symmetry_2
_ccdc_geom_bond_type
O0 Cd1 2.300 . S
O0 C7 1.275 . S
Cd1 O0 2.300 . S
Cd1 O9 2.381 . S
Cd1 O10 2.378 . S
O2 Cd3 2.385 . S
O2 C7 1.255 . S
Cd3 O2 2.385 . S
Cd3 O4 2.317 . S
O4 Cd3 2.317 . S
O4 C5 1.232 . S
C5 O4 1.232 . S
C5 O6 1.218 . S
O6 C5 1.218 . S
C7 O0 1.275 . S
C7 O2 1.255 . S
C8 O9 1.258 . S
C8 O10 1.256 . S
O9 Cd1 2.381 . S
O9 C8 1.258 . S
O10 Cd1 2.378 . S
O10 C8 1.256 . S
O11 Cd12 2.300 . S
O11 C18 1.275 . S
Cd12 O11 2.300 . S
Cd12 O20 2.381 . S
Cd12 O21 2.378 . S
O13 Cd14 2.385 . S
O13 C18 1.255 . S
Cd14 O13 2.385 . S
Cd14 O15 2.317 . S
O15 Cd14 2.317 . S
O15 C16 1.232 . S
C16 O15 1.232 . S
C16 O17 1.218 . S
O17 C16 1.218 . S
C18 O11 1.275 . S
C18 O13 1.255 . S
C19 O20 1.258 . S
C19 O21 1.256 . S
O20 Cd12 2.381 . S
O20 C19 1.258 . S
O21 Cd12 2.378 . S
O21 C19 1.256 . S
O22 Cd23 2.300 . S
O22 C29 1.275 . S
Cd23 O22 2.300 . S
Cd23 O31 2.381 . S
Cd23 O32 2.378 . S
O24 Cd25 2.385 . S
O24 C29 1.255 . S
Cd25 O24 2.385 . S
Cd25 O26 2.317 . S
O26 Cd25 2.317 . S
O26 C27 1.232 . S
C27 O26 1.232 . S
C27 O28 1.218 . S
O28 C27 1.218 . S
C29 O22 1.275 . S
C29 O24 1.255 . S
C30 O31 1.258 . S
C30 O32 1.256 . S
O31 Cd23 2.381 . S
O31 C30 1.258 . S
O32 Cd23 2.378 . S
O32 C30 1.256 . S
O33 Cd34 2.300 . S
O33 C40 1.275 . S
Cd34 O33 2.300 . S
Cd34 O42 2.381 . S
Cd34 O43 2.378 . S
O35 Cd36 2.385 . S
O35 C40 1.255 . S
Cd36 O35 2.385 . S
Cd36 O37 2.317 . S
O37 Cd36 2.317 . S
O37 C38 1.232 . S
C38 O37 1.232 . S
C38 O39 1.218 . S
O39 C38 1.218 . S
C40 O33 1.275 . S
C40 O35 1.255 . S
C41 O42 1.258 . S
C41 O43 1.256 . S
O42 Cd34 2.381 . S
O42 C41 1.258 . S
O43 Cd34 2.378 . S
O43 C41 1.256 . S
O44 Cd45 2.300 . S
O44 C51 1.275 . S
Cd45 O44 2.300 . S
Cd45 O53 2.381 . S
Cd45 O54 2.378 . S
O46 Cd47 2.385 . S
O46 C51 1.255 . S
Cd47 O46 2.385 . S
Cd47 O48 2.317 . S
O48 Cd47 2.317 . S
O48 C49 1.232 . S
C49 O48 1.232 . S
C49 O50 1.218 . S
O50 C49 1.218 . S
C51 O44 1.275 . S
C51 O46 1.255 . S
C52 O53 1.258 . S
C52 O54 1.256 . S
O53 Cd45 2.381 . S
O53 C52 1.258 . S
O54 Cd45 2.378 . S
O54 C52 1.256 . S
O55 Cd56 2.300 . S
O55 C62 1.275 . S
Cd56 O55 2.300 . S
Cd56 O64 2.381 . S
Cd56 O65 2.378 . S
O57 Cd58 2.385 . S
O57 C62 1.255 . S
Cd58 O57 2.385 . S
Cd58 O59 2.317 . S
O59 Cd58 2.317 . S
O59 C60 1.232 . S
C60 O59 1.232 . S
C60 O61 1.218 . S
O61 C60 1.218 . S
C62 O55 1.275 . S
C62 O57 1.255 . S
C63 O64 1.258 . S
C63 O65 1.256 . S
O64 Cd56 2.381 . S
O64 C63 1.258 . S
O65 Cd56 2.378 . S
O65 C63 1.256 . S
O66 Cd67 2.300 . S
O66 C73 1.275 . S
Cd67 O66 2.300 . S
Cd67 O75 2.381 . S
Cd67 O76 2.378 . S
O68 Cd69 2.385 . S
O68 C73 1.255 . S
Cd69 O68 2.385 . S
Cd69 O70 2.317 . S
O70 Cd69 2.317 . S
O70 C71 1.232 . S
C71 O70 1.232 . S
C71 O72 1.218 . S
O72 C71 1.218 . S
C73 O66 1.275 . S
C73 O68 1.255 . S
C74 O75 1.258 . S
C74 O76 1.256 . S
O75 Cd67 2.381 . S
O75 C74 1.258 . S
O76 Cd67 2.378 . S
O76 C74 1.256 . S
O77 Cd78 2.300 . S
O77 C84 1.275 . S
Cd78 O77 2.300 . S
Cd78 O86 2.381 . S
Cd78 O87 2.378 . S
O79 Cd80 2.385 . S
O79 C84 1.255 . S
Cd80 O79 2.385 . S
Cd80 O81 2.317 . S
O81 Cd80 2.317 . S
O81 C82 1.232 . S
C82 O81 1.232 . S
C82 O83 1.218 . S
O83 C82 1.218 . S
C84 O77 1.275 . S
C84 O79 1.255 . S
C85 O86 1.258 . S
C85 O87 1.256 . S
O86 Cd78 2.381 . S
O86 C85 1.258 . S
O87 Cd78 2.378 . S
O87 C85 1.256 . S
Pr88 C90 2.880 . S
Pr88 O108 2.562 . S
Pr88 O109 2.490 . S
Pr88 O110 2.695 1_665 S
Pr88 O111 2.512 1_665 S
Pr88 O113 2.437 1_655 S
Pr88 O116 2.436 . S
Pr88 O118 2.438 1_565 S
Pr89 C99 2.880 . S
Pr89 O110 2.436 . S
Pr89 O112 2.438 1_545 S
Pr89 O114 2.562 . S
Pr89 O115 2.490 . S
Pr89 O116 2.695 1_445 S
Pr89 O117 2.512 1_545 S
Pr89 O119 2.437 1_455 S
C90 Pr88 2.880 . S
C90 C91 1.491 . S
C90 O108 1.254 . S
C90 O109 1.225 . S
C91 C90 1.491 . S
C91 C92 1.392 . S
C91 C96 1.356 . S
C92 C91 1.392 . S
C92 C93 1.368 . S
C92 H120 0.929 . S
C93 C92 1.368 . S
C93 C94 1.386 . S
C93 H121 0.929 . S
C94 C93 1.386 . S
C94 C95 1.373 . S
C95 C94 1.373 . S
C95 C96 1.409 . S
C95 H122 0.931 . S
C96 C91 1.356 . S
C96 C95 1.409 . S
C96 H123 0.930 . S
C97 O110 1.270 . S
C97 O111 1.248 . S
C98 O112 1.267 . S
C98 O113 1.278 . S
C99 Pr89 2.880 . S
C99 C100 1.491 . S
C99 O114 1.254 . S
C99 O115 1.225 . S
C100 C99 1.491 . S
C100 C101 1.392 . S
C100 C105 1.356 . S
C101 C100 1.392 . S
C101 C102 1.368 . S
C101 H124 0.929 . S
C102 C101 1.368 . S
C102 C103 1.386 . S
C102 H125 0.929 . S
C103 C102 1.386 . S
C103 C104 1.373 . S
C104 C103 1.373 . S
C104 C105 1.409 . S
C104 H126 0.931 . S
C105 C100 1.356 . S
C105 C104 1.409 . S
C105 H127 0.930 . S
C106 O116 1.270 . S
C106 O117 1.248 1_655 S
C107 O118 1.267 . S
C107 O119 1.278 . S
O108 Pr88 2.562 . S
O108 C90 1.254 . S
O109 Pr88 2.490 . S
O109 C90 1.225 . S
O110 Pr88 2.695 1_445 S
O110 Pr89 2.436 . S
O110 C97 1.270 . S
O111 Pr88 2.512 1_445 S
O111 C97 1.248 . S
O112 Pr89 2.438 1_565 S
O112 C98 1.267 . S
O113 Pr88 2.437 1_455 S
O113 C98 1.278 . S
O114 Pr89 2.562 . S
O114 C99 1.254 . S
O115 Pr89 2.490 . S
O115 C99 1.225 . S
O116 Pr88 2.436 . S
O116 Pr89 2.695 1_665 S
O116 C106 1.270 . S
O117 Pr89 2.512 1_565 S
O117 C106 1.248 1_455 S
O118 Pr88 2.438 1_545 S
O118 C107 1.267 . S
O119 Pr89 2.437 1_655 S
O119 C107 1.278 . S
H120 C92 0.929 . S
H121 C93 0.929 . S
H122 C95 0.931 . S
H123 C96 0.930 . S
H124 C101 0.929 . S
H125 C102 0.929 . S
H126 C104 0.931 . S
H127 C105 0.930 . S
Pr128 C130 2.880 . S
Pr128 O148 2.562 . S
Pr128 O149 2.490 . S
Pr128 O150 2.695 . S
Pr128 O151 2.512 . S
Pr128 O153 2.437 . S
Pr128 O156 2.436 . S
Pr128 O158 2.438 1_544 S
Pr129 C139 2.880 1_544 S
Pr129 O150 2.436 . S
Pr129 O152 2.438 . S
Pr129 O154 2.562 1_544 S
Pr129 O155 2.490 1_545 S
Pr129 O156 2.695 . S
Pr129 O157 2.512 1_545 S
Pr129 O159 2.437 1_545 S
C130 Pr128 2.880 . S
C130 C131 1.491 . S
C130 O148 1.254 . S
C130 O149 1.225 . S
C131 C130 1.491 . S
C131 C132 1.392 . S
C131 C136 1.356 . S
C132 C131 1.392 . S
C132 C133 1.368 . S
C132 H160 0.929 . S
C133 C132 1.368 . S
C133 C134 1.386 . S
C133 H161 0.929 . S
C134 C133 1.386 . S
C134 C135 1.373 . S
C135 C134 1.373 . S
C135 C136 1.409 . S
C135 H162 0.931 . S
C136 C131 1.356 . S
C136 C135 1.409 . S
C136 H163 0.930 . S
C137 O150 1.270 . S
C137 O151 1.248 . S
C138 O152 1.267 . S
C138 O153 1.278 . S
C139 Pr129 2.880 1_566 S
C139 C140 1.491 . S
C139 O154 1.254 . S
C139 O155 1.225 1_556 S
C140 C139 1.491 . S
C140 C141 1.392 . S
C140 C145 1.356 . S
C141 C140 1.392 . S
C141 C142 1.368 . S
C141 H164 0.929 . S
C142 C141 1.368 . S
C142 C143 1.386 . S
C142 H165 0.929 . S
C143 C142 1.386 . S
C143 C144 1.373 . S
C144 C143 1.373 . S
C144 C145 1.409 . S
C144 H166 0.931 . S
C145 C140 1.356 . S
C145 C144 1.409 . S
C145 H167 0.930 . S
C146 O156 1.270 1_565 S
C146 O157 1.248 . S
C147 O158 1.267 . S
C147 O159 1.278 1_556 S
O148 Pr128 2.562 . S
O148 C130 1.254 . S
O149 Pr128 2.490 . S
O149 C130 1.225 . S
O150 Pr128 2.695 . S
O150 Pr129 2.436 . S
O150 C137 1.270 . S
O151 Pr128 2.512 . S
O151 C137 1.248 . S
O152 Pr129 2.438 . S
O152 C138 1.267 . S
O153 Pr128 2.437 . S
O153 C138 1.278 . S
O154 Pr129 2.562 1_566 S
O154 C139 1.254 . S
O155 Pr129 2.490 1_565 S
O155 C139 1.225 1_554 S
O156 Pr128 2.436 . S
O156 Pr129 2.695 . S
O156 C146 1.270 1_545 S
O157 Pr129 2.512 1_565 S
O157 C146 1.248 . S
O158 Pr128 2.438 1_566 S
O158 C147 1.267 . S
O159 Pr129 2.437 1_565 S
O159 C147 1.278 1_554 S
H160 C132 0.929 . S
H161 C133 0.929 . S
H162 C135 0.931 . S
H163 C136 0.930 . S
H164 C141 0.929 . S
H165 C142 0.929 . S
H166 C144 0.931 . S
H167 C145 0.930 . S
Pr168 C170 2.880 . S
Pr168 O188 2.562 . S
Pr168 O189 2.490 . S
Pr168 O190 2.695 . S
Pr168 O191 2.512 . S
Pr168 O193 2.437 . S
Pr168 O196 2.436 . S
Pr168 O198 2.438 . S
Pr169 C179 2.880 . S
Pr169 O190 2.436 . S
Pr169 O192 2.438 . S
Pr169 O194 2.562 . S
Pr169 O195 2.490 . S
Pr169 O196 2.695 . S
Pr169 O197 2.512 . S
Pr169 O199 2.437 . S
C170 Pr168 2.880 . S
C170 C171 1.491 . S
C170 O188 1.254 . S
C170 O189 1.225 . S
C171 C170 1.491 . S
C171 C172 1.392 . S
C171 C176 1.356 . S
C172 C171 1.392 . S
C172 C173 1.368 . S
C172 H200 0.929 . S
C173 C172 1.368 . S
C173 C174 1.386 . S
C173 H201 0.929 . S
C174 C173 1.386 . S
C174 C175 1.373 . S
C175 C174 1.373 . S
C175 C176 1.409 . S
C175 H202 0.931 . S
C176 C171 1.356 . S
C176 C175 1.409 . S
C176 H203 0.930 . S
C177 O190 1.270 . S
C177 O191 1.248 . S
C178 O192 1.267 . S
C178 O193 1.278 . S
C179 Pr169 2.880 . S
C179 C180 1.491 . S
C179 O194 1.254 . S
C179 O195 1.225 . S
C180 C179 1.491 . S
C180 C181 1.392 . S
C180 C185 1.356 . S
C181 C180 1.392 . S
C181 C182 1.368 . S
C181 H204 0.929 . S
C182 C181 1.368 . S
C182 C183 1.386 . S
C182 H205 0.929 . S
C183 C182 1.386 . S
C183 C184 1.373 . S
C184 C183 1.373 . S
C184 C185 1.409 . S
C184 H206 0.931 . S
C185 C180 1.356 . S
C185 C184 1.409 . S
C185 H207 0.930 . S
C186 O196 1.270 . S
C186 O197 1.248 . S
C187 O198 1.267 . S
C187 O199 1.278 . S
O188 Pr168 2.562 . S
O188 C170 1.254 . S
O189 Pr168 2.490 . S
O189 C170 1.225 . S
O190 Pr168 2.695 . S
O190 Pr169 2.436 . S
O190 C177 1.270 . S
O191 Pr168 2.512 . S
O191 C177 1.248 . S
O192 Pr169 2.438 . S
O192 C178 1.267 . S
O193 Pr168 2.437 . S
O193 C178 1.278 . S
O194 Pr169 2.562 . S
O194 C179 1.254 . S
O195 Pr169 2.490 . S
O195 C179 1.225 . S
O196 Pr168 2.436 . S
O196 Pr169 2.695 . S
O196 C186 1.270 . S
O197 Pr169 2.512 . S
O197 C186 1.248 . S
O198 Pr168 2.438 . S
O198 C187 1.267 . S
O199 Pr169 2.437 . S
O199 C187 1.278 . S
H200 C172 0.929 . S
H201 C173 0.929 . S
H202 C175 0.931 . S
H203 C176 0.930 . S
H204 C181 0.929 . S
H205 C182 0.929 . S
H206 C184 0.931 . S
H207 C185 0.930 . S
Pr208 C210 2.880 1_455 S
Pr208 O228 2.562 1_455 S
Pr208 O229 2.490 . S
Pr208 O230 2.695 1_556 S
Pr208 O231 2.512 1_556 S
Pr208 O233 2.437 1_556 S
Pr208 O236 2.436 1_455 S
Pr208 O238 2.438 . S
Pr209 C219 2.880 . S
Pr209 O230 2.436 . S
Pr209 O232 2.438 1_455 S
Pr209 O234 2.562 . S
Pr209 O235 2.490 . S
Pr209 O236 2.695 1_454 S
Pr209 O237 2.512 1_454 S
Pr209 O239 2.437 1_554 S
C210 Pr208 2.880 1_655 S
C210 C211 1.491 . S
C210 O228 1.254 . S
C210 O229 1.225 1_655 S
C211 C210 1.491 . S
C211 C212 1.392 . S
C211 C216 1.356 . S
C212 C211 1.392 . S
C212 C213 1.368 . S
C212 H240 0.929 1_655 S
C213 C212 1.368 . S
C213 C214 1.386 . S
C213 H241 0.929 . S
C214 C213 1.386 . S
C214 C215 1.373 . S
C215 C214 1.373 . S
C215 C216 1.409 . S
C215 H242 0.931 . S
C216 C211 1.356 . S
C216 C215 1.409 . S
C216 H243 0.930 . S
C217 O230 1.270 . S
C217 O231 1.248 . S
C218 O232 1.267 . S
C218 O233 1.278 1_655 S
C219 Pr209 2.880 . S
C219 C220 1.491 . S
C219 O234 1.254 . S
C219 O235 1.225 . S
C220 C219 1.491 . S
C220 C221 1.392 . S
C220 C225 1.356 . S
C221 C220 1.392 . S
C221 C222 1.368 . S
C221 H244 0.929 . S
C222 C221 1.368 . S
C222 C223 1.386 . S
C222 H245 0.929 . S
C223 C222 1.386 . S
C223 C224 1.373 . S
C224 C223 1.373 . S
C224 C225 1.409 . S
C224 H246 0.931 . S
C225 C220 1.356 . S
C225 C224 1.409 . S
C225 H247 0.930 . S
C226 O236 1.270 . S
C226 O237 1.248 . S
C227 O238 1.267 . S
C227 O239 1.278 . S
O228 Pr208 2.562 1_655 S
O228 C210 1.254 . S
O229 Pr208 2.490 . S
O229 C210 1.225 1_455 S
O230 Pr208 2.695 1_554 S
O230 Pr209 2.436 . S
O230 C217 1.270 . S
O231 Pr208 2.512 1_554 S
O231 C217 1.248 . S
O232 Pr209 2.438 1_655 S
O232 C218 1.267 . S
O233 Pr208 2.437 1_554 S
O233 C218 1.278 1_455 S
O234 Pr209 2.562 . S
O234 C219 1.254 . S
O235 Pr209 2.490 . S
O235 C219 1.225 . S
O236 Pr208 2.436 1_655 S
O236 Pr209 2.695 1_656 S
O236 C226 1.270 . S
O237 Pr209 2.512 1_656 S
O237 C226 1.248 . S
O238 Pr208 2.438 . S
O238 C227 1.267 . S
O239 Pr209 2.437 1_556 S
O239 C227 1.278 . S
H240 C212 0.929 1_455 S
H241 C213 0.929 . S
H242 C215 0.931 . S
H243 C216 0.930 . S
H244 C221 0.929 . S
H245 C222 0.929 . S
H246 C224 0.931 . S
H247 C225 0.930 . S
C248 C249 1.391 . S
C248 C250 1.394 . S
C248 H264 0.931 . S
C249 C248 1.391 . S
C249 C253 1.376 . S
C250 C248 1.394 . S
C250 C251 1.369 . S
C250 C254 1.531 . S
C251 C250 1.369 . S
C251 C252 1.410 . S
C251 C259 1.503 . S
C252 C251 1.410 . S
C252 C253 1.392 . S
C252 C255 1.511 . S
C253 C249 1.376 . S
C253 C252 1.392 . S
C253 H265 0.929 . S
C254 C250 1.531 . S
C254 H266 0.960 . S
C254 H267 0.962 . S
C254 H268 0.960 . S
C255 C252 1.511 . S
C255 H269 0.961 . S
C255 H270 0.961 . S
C255 H271 0.961 . S
C256 C257 1.370 . S
C256 C258 1.363 . S
C256 H272 0.931 . S
C257 C256 1.370 . S
C257 C261 1.408 . S
C258 C256 1.363 . S
C258 C259 1.370 . S
C258 C262 1.524 . S
C259 C251 1.503 . S
C259 C258 1.370 . S
C259 C260 1.403 . S
C260 C259 1.403 . S
C260 C261 1.404 . S
C260 C263 1.539 . S
C261 C257 1.408 . S
C261 C260 1.404 . S
C261 H273 0.930 . S
C262 C258 1.524 . S
C262 H274 0.956 . S
C262 H275 0.961 . S
C262 H276 0.961 . S
C263 C260 1.539 . S
C263 H277 0.958 . S
C263 H278 0.961 . S
C263 H279 0.960 . S
H264 C248 0.931 . S
H265 C253 0.929 . S
H266 C254 0.960 . S
H267 C254 0.962 . S
H268 C254 0.960 . S
H269 C255 0.961 . S
H270 C255 0.961 . S
H271 C255 0.961 . S
H272 C256 0.931 . S
H273 C261 0.930 . S
H274 C262 0.956 . S
H275 C262 0.961 . S
H276 C262 0.961 . S
H277 C263 0.958 . S
H278 C263 0.961 . S
H279 C263 0.960 . S
C280 C281 1.391 . S
C280 C282 1.394 . S
C280 H296 0.931 . S
C281 C280 1.391 . S
C281 C285 1.376 . S
C282 C280 1.394 . S
C282 C283 1.369 . S
C282 C286 1.531 . S
C283 C282 1.369 . S
C283 C284 1.410 . S
C283 C291 1.503 . S
C284 C283 1.410 . S
C284 C285 1.392 . S
C284 C287 1.511 . S
C285 C281 1.376 . S
C285 C284 1.392 . S
C285 H297 0.929 . S
C286 C282 1.531 . S
C286 H298 0.960 . S
C286 H299 0.962 . S
C286 H300 0.960 . S
C287 C284 1.511 . S
C287 H301 0.961 . S
C287 H302 0.961 . S
C287 H303 0.961 . S
C288 C289 1.370 . S
C288 C290 1.363 . S
C288 H304 0.931 . S
C289 C288 1.370 . S
C289 C293 1.408 . S
C290 C288 1.363 . S
C290 C291 1.370 . S
C290 C294 1.524 . S
C291 C283 1.503 . S
C291 C290 1.370 . S
C291 C292 1.403 . S
C292 C291 1.403 . S
C292 C293 1.404 . S
C292 C295 1.539 . S
C293 C289 1.408 . S
C293 C292 1.404 . S
C293 H305 0.930 . S
C294 C290 1.524 . S
C294 H306 0.956 . S
C294 H307 0.961 . S
C294 H308 0.961 . S
C295 C292 1.539 . S
C295 H309 0.958 . S
C295 H310 0.961 . S
C295 H311 0.960 . S
H296 C280 0.931 . S
H297 C285 0.929 . S
H298 C286 0.960 . S
H299 C286 0.962 . S
H300 C286 0.960 . S
H301 C287 0.961 . S
H302 C287 0.961 . S
H303 C287 0.961 . S
H304 C288 0.931 . S
H305 C293 0.930 . S
H306 C294 0.956 . S
H307 C294 0.961 . S
H308 C294 0.961 . S
H309 C295 0.958 . S
H310 C295 0.961 . S
H311 C295 0.960 . S
C312 C313 1.391 . S
C312 C314 1.394 . S
C312 H328 0.931 . S
C313 C312 1.391 . S
C313 C317 1.376 . S
C314 C312 1.394 . S
C314 C315 1.369 . S
C314 C318 1.531 . S
C315 C314 1.369 . S
C315 C316 1.410 . S
C315 C323 1.503 . S
C316 C315 1.410 . S
C316 C317 1.392 . S
C316 C319 1.511 . S
C317 C313 1.376 . S
C317 C316 1.392 . S
C317 H329 0.929 . S
C318 C314 1.531 . S
C318 H330 0.960 . S
C318 H331 0.962 . S
C318 H332 0.960 . S
C319 C316 1.511 . S
C319 H333 0.961 . S
C319 H334 0.961 . S
C319 H335 0.961 . S
C320 C321 1.370 . S
C320 C322 1.363 . S
C320 H336 0.931 . S
C321 C320 1.370 . S
C321 C325 1.408 . S
C322 C320 1.363 . S
C322 C323 1.370 . S
C322 C326 1.524 . S
C323 C315 1.503 . S
C323 C322 1.370 . S
C323 C324 1.403 . S
C324 C323 1.403 . S
C324 C325 1.404 . S
C324 C327 1.539 . S
C325 C321 1.408 . S
C325 C324 1.404 . S
C325 H337 0.930 . S
C326 C322 1.524 . S
C326 H338 0.956 . S
C326 H339 0.961 . S
C326 H340 0.961 . S
C327 C324 1.539 . S
C327 H341 0.958 . S
C327 H342 0.961 . S
C327 H343 0.960 . S
H328 C312 0.931 . S
H329 C317 0.929 . S
H330 C318 0.960 . S
H331 C318 0.962 . S
H332 C318 0.960 . S
H333 C319 0.961 . S
H334 C319 0.961 . S
H335 C319 0.961 . S
H336 C320 0.931 . S
H337 C325 0.930 . S
H338 C326 0.956 . S
H339 C326 0.961 . S
H340 C326 0.961 . S
H341 C327 0.958 . S
H342 C327 0.961 . S
H343 C327 0.960 . S
C344 C345 1.391 . S
C344 C346 1.394 . S
C344 H360 0.931 . S
C345 C344 1.391 . S
C345 C349 1.376 . S
C346 C344 1.394 . S
C346 C347 1.369 . S
C346 C350 1.531 . S
C347 C346 1.369 . S
C347 C348 1.410 . S
C347 C355 1.503 . S
C348 C347 1.410 . S
C348 C349 1.392 . S
C348 C351 1.511 . S
C349 C345 1.376 . S
C349 C348 1.392 . S
C349 H361 0.929 . S
C350 C346 1.531 . S
C350 H362 0.960 . S
C350 H363 0.962 . S
C350 H364 0.960 . S
C351 C348 1.511 . S
C351 H365 0.961 . S
C351 H366 0.961 . S
C351 H367 0.961 . S
C352 C353 1.370 . S
C352 C354 1.363 . S
C352 H368 0.931 . S
C353 C352 1.370 . S
C353 C357 1.408 . S
C354 C352 1.363 . S
C354 C355 1.370 . S
C354 C358 1.524 . S
C355 C347 1.503 . S
C355 C354 1.370 . S
C355 C356 1.403 . S
C356 C355 1.403 . S
C356 C357 1.404 . S
C356 C359 1.539 . S
C357 C353 1.408 . S
C357 C356 1.404 . S
C357 H369 0.930 1_655 S
C358 C354 1.524 . S
C358 H370 0.956 . S
C358 H371 0.961 . S
C358 H372 0.961 . S
C359 C356 1.539 . S
C359 H373 0.958 . S
C359 H374 0.961 1_655 S
C359 H375 0.960 . S
H360 C344 0.931 . S
H361 C349 0.929 . S
H362 C350 0.960 . S
H363 C350 0.962 . S
H364 C350 0.960 . S
H365 C351 0.961 . S
H366 C351 0.961 . S
H367 C351 0.961 . S
H368 C352 0.931 . S
H369 C357 0.930 1_455 S
H370 C358 0.956 . S
H371 C358 0.961 . S
H372 C358 0.961 . S
H373 C359 0.958 . S
H374 C359 0.961 1_455 S
H375 C359 0.960 . S
C376 C377 1.391 . S
C376 C378 1.394 . S
C376 H392 0.931 . S
C377 C376 1.391 . S
C377 C381 1.376 . S
C378 C376 1.394 . S
C378 C379 1.369 . S
C378 C382 1.531 . S
C379 C378 1.369 . S
C379 C380 1.410 . S
C379 C387 1.503 . S
C380 C379 1.410 . S
C380 C381 1.392 . S
C380 C383 1.511 . S
C381 C377 1.376 . S
C381 C380 1.392 . S
C381 H393 0.929 . S
C382 C378 1.531 . S
C382 H394 0.960 . S
C382 H395 0.962 . S
C382 H396 0.960 . S
C383 C380 1.511 . S
C383 H397 0.961 . S
C383 H398 0.961 . S
C383 H399 0.961 . S
C384 C385 1.370 . S
C384 C386 1.363 . S
C384 H400 0.931 . S
C385 C384 1.370 . S
C385 C389 1.408 . S
C386 C384 1.363 . S
C386 C387 1.370 . S
C386 C390 1.524 . S
C387 C379 1.503 . S
C387 C386 1.370 . S
C387 C388 1.403 . S
C388 C387 1.403 . S
C388 C389 1.404 . S
C388 C391 1.539 . S
C389 C385 1.408 . S
C389 C388 1.404 . S
C389 H401 0.930 . S
C390 C386 1.524 . S
C390 H402 0.956 . S
C390 H403 0.961 . S
C390 H404 0.961 . S
C391 C388 1.539 . S
C391 H405 0.958 . S
C391 H406 0.961 . S
C391 H407 0.960 . S
H392 C376 0.931 . S
H393 C381 0.929 . S
H394 C382 0.960 . S
H395 C382 0.962 . S
H396 C382 0.960 . S
H397 C383 0.961 . S
H398 C383 0.961 . S
H399 C383 0.961 . S
H400 C384 0.931 . S
H401 C389 0.930 . S
H402 C390 0.956 . S
H403 C390 0.961 . S
H404 C390 0.961 . S
H405 C391 0.958 . S
H406 C391 0.961 . S
H407 C391 0.960 . S
C408 C409 1.391 . S
C408 C410 1.394 . S
C408 H424 0.931 . S
C409 C408 1.391 . S
C409 C413 1.376 . S
C410 C408 1.394 . S
C410 C411 1.369 . S
C410 C414 1.531 . S
C411 C410 1.369 . S
C411 C412 1.410 . S
C411 C419 1.503 . S
C412 C411 1.410 . S
C412 C413 1.392 . S
C412 C415 1.511 . S
C413 C409 1.376 . S
C413 C412 1.392 . S
C413 H425 0.929 . S
C414 C410 1.531 . S
C414 H426 0.960 . S
C414 H427 0.962 . S
C414 H428 0.960 . S
C415 C412 1.511 . S
C415 H429 0.961 . S
C415 H430 0.961 . S
C415 H431 0.961 . S
C416 C417 1.370 . S
C416 C418 1.363 . S
C416 H432 0.931 . S
C417 C416 1.370 . S
C417 C421 1.408 . S
C418 C416 1.363 . S
C418 C419 1.370 . S
C418 C422 1.524 . S
C419 C411 1.503 . S
C419 C418 1.370 . S
C419 C420 1.403 . S
C420 C419 1.403 . S
C420 C421 1.404 . S
C420 C423 1.539 . S
C421 C417 1.408 . S
C421 C420 1.404 . S
C421 H433 0.930 . S
C422 C418 1.524 . S
C422 H434 0.956 . S
C422 H435 0.961 . S
C422 H436 0.961 . S
C423 C420 1.539 . S
C423 H437 0.958 . S
C423 H438 0.961 . S
C423 H439 0.960 . S
H424 C408 0.931 . S
H425 C413 0.929 . S
H426 C414 0.960 . S
H427 C414 0.962 . S
H428 C414 0.960 . S
H429 C415 0.961 . S
H430 C415 0.961 . S
H431 C415 0.961 . S
H432 C416 0.931 . S
H433 C421 0.930 . S
H434 C422 0.956 . S
H435 C422 0.961 . S
H436 C422 0.961 . S
H437 C423 0.958 . S
H438 C423 0.961 . S
H439 C423 0.960 . S
C440 C441 1.391 . S
C440 C442 1.394 . S
C440 H456 0.931 . S
C441 C440 1.391 . S
C441 C445 1.376 . S
C442 C440 1.394 . S
C442 C443 1.369 . S
C442 C446 1.531 . S
C443 C442 1.369 . S
C443 C444 1.410 . S
C443 C451 1.503 . S
C444 C443 1.410 . S
C444 C445 1.392 . S
C444 C447 1.511 . S
C445 C441 1.376 . S
C445 C444 1.392 . S
C445 H457 0.929 . S
C446 C442 1.531 . S
C446 H458 0.960 . S
C446 H459 0.962 . S
C446 H460 0.960 . S
C447 C444 1.511 . S
C447 H461 0.961 . S
C447 H462 0.961 . S
C447 H463 0.961 . S
C448 C449 1.370 . S
C448 C450 1.363 . S
C448 H464 0.931 . S
C449 C448 1.370 . S
C449 C453 1.408 . S
C450 C448 1.363 . S
C450 C451 1.370 . S
C450 C454 1.524 . S
C451 C443 1.503 . S
C451 C450 1.370 . S
C451 C452 1.403 . S
C452 C451 1.403 . S
C452 C453 1.404 . S
C452 C455 1.539 . S
C453 C449 1.408 . S
C453 C452 1.404 . S
C453 H465 0.930 . S
C454 C450 1.524 . S
C454 H466 0.956 . S
C454 H467 0.961 . S
C454 H468 0.961 . S
C455 C452 1.539 . S
C455 H469 0.958 . S
C455 H470 0.961 . S
C455 H471 0.960 . S
H456 C440 0.931 . S
H457 C445 0.929 . S
H458 C446 0.960 . S
H459 C446 0.962 . S
H460 C446 0.960 . S
H461 C447 0.961 . S
H462 C447 0.961 . S
H463 C447 0.961 . S
H464 C448 0.931 . S
H465 C453 0.930 . S
H466 C454 0.956 . S
H467 C454 0.961 . S
H468 C454 0.961 . S
H469 C455 0.958 . S
H470 C455 0.961 . S
H471 C455 0.960 . S
C472 C473 1.391 . S
C472 C474 1.394 . S
C472 H488 0.931 . S
C473 C472 1.391 . S
C473 C477 1.376 . S
C474 C472 1.394 . S
C474 C475 1.369 . S
C474 C478 1.531 . S
C475 C474 1.369 . S
C475 C476 1.410 . S
C475 C483 1.503 . S
C476 C475 1.410 . S
C476 C477 1.392 . S
C476 C479 1.511 . S
C477 C473 1.376 . S
C477 C476 1.392 . S
C477 H489 0.929 . S
C478 C474 1.531 . S
C478 H490 0.960 . S
C478 H491 0.962 . S
C478 H492 0.960 . S
C479 C476 1.511 . S
C479 H493 0.961 . S
C479 H494 0.961 . S
C479 H495 0.961 . S
C480 C481 1.370 . S
C480 C482 1.363 . S
C480 H496 0.931 . S
C481 C480 1.370 . S
C481 C485 1.408 . S
C482 C480 1.363 . S
C482 C483 1.370 . S
C482 C486 1.524 . S
C483 C475 1.503 . S
C483 C482 1.370 . S
C483 C484 1.403 . S
C484 C483 1.403 . S
C484 C485 1.404 . S
C484 C487 1.539 . S
C485 C481 1.408 . S
C485 C484 1.404 . S
C485 H497 0.930 . S
C486 C482 1.524 . S
C486 H498 0.956 . S
C486 H499 0.961 . S
C486 H500 0.961 . S
C487 C484 1.539 . S
C487 H501 0.958 . S
C487 H502 0.961 . S
C487 H503 0.960 . S
H488 C472 0.931 . S
H489 C477 0.929 . S
H490 C478 0.960 . S
H491 C478 0.962 . S
H492 C478 0.960 . S
H493 C479 0.961 . S
H494 C479 0.961 . S
H495 C479 0.961 . S
H496 C480 0.931 . S
H497 C485 0.930 . S
H498 C486 0.956 . S
H499 C486 0.961 . S
H500 C486 0.961 . S
H501 C487 0.958 . S
H502 C487 0.961 . S
H503 C487 0.960 . S
C504 C505 1.391 . S
C504 C506 1.394 . S
C504 H520 0.931 . S
C505 C504 1.391 . S
C505 C509 1.376 . S
C506 C504 1.394 . S
C506 C507 1.369 . S
C506 C510 1.531 . S
C507 C506 1.369 . S
C507 C508 1.410 . S
C507 C515 1.503 . S
C508 C507 1.410 . S
C508 C509 1.392 . S
C508 C511 1.511 . S
C509 C505 1.376 . S
C509 C508 1.392 . S
C509 H521 0.929 . S
C510 C506 1.531 . S
C510 H522 0.960 . S
C510 H523 0.962 . S
C510 H524 0.960 . S
C511 C508 1.511 . S
C511 H525 0.961 . S
C511 H526 0.961 . S
C511 H527 0.961 . S
C512 C513 1.370 . S
C512 C514 1.363 . S
C512 H528 0.931 . S
C513 C512 1.370 . S
C513 C517 1.408 . S
C514 C512 1.363 . S
C514 C515 1.370 . S
C514 C518 1.524 . S
C515 C507 1.503 . S
C515 C514 1.370 . S
C515 C516 1.403 . S
C516 C515 1.403 . S
C516 C517 1.404 . S
C516 C519 1.539 . S
C517 C513 1.408 . S
C517 C516 1.404 . S
C517 H529 0.930 . S
C518 C514 1.524 . S
C518 H530 0.956 . S
C518 H531 0.961 . S
C518 H532 0.961 . S
C519 C516 1.539 . S
C519 H533 0.958 . S
C519 H534 0.961 . S
C519 H535 0.960 . S
H520 C504 0.931 . S
H521 C509 0.929 . S
H522 C510 0.960 . S
H523 C510 0.962 . S
H524 C510 0.960 . S
H525 C511 0.961 . S
H526 C511 0.961 . S
H527 C511 0.961 . S
H528 C512 0.931 . S
H529 C517 0.930 . S
H530 C518 0.956 . S
H531 C518 0.961 . S
H532 C518 0.961 . S
H533 C519 0.958 . S
H534 C519 0.961 . S
H535 C519 0.960 . S
C536 C537 1.391 . S
C536 C538 1.394 . S
C536 H552 0.931 . S
C537 C536 1.391 . S
C537 C541 1.376 . S
C538 C536 1.394 . S
C538 C539 1.369 . S
C538 C542 1.531 . S
C539 C538 1.369 . S
C539 C540 1.410 . S
C539 C547 1.503 . S
C540 C539 1.410 . S
C540 C541 1.392 . S
C540 C543 1.511 . S
C541 C537 1.376 . S
C541 C540 1.392 . S
C541 H553 0.929 . S
C542 C538 1.531 . S
C542 H554 0.960 . S
C542 H555 0.962 . S
C542 H556 0.960 . S
C543 C540 1.511 . S
C543 H557 0.961 . S
C543 H558 0.961 . S
C543 H559 0.961 . S
C544 C545 1.370 . S
C544 C546 1.363 . S
C544 H560 0.931 . S
C545 C544 1.370 . S
C545 C549 1.408 . S
C546 C544 1.363 . S
C546 C547 1.370 . S
C546 C550 1.524 . S
C547 C539 1.503 . S
C547 C546 1.370 . S
C547 C548 1.403 . S
C548 C547 1.403 . S
C548 C549 1.404 . S
C548 C551 1.539 . S
C549 C545 1.408 . S
C549 C548 1.404 . S
C549 H561 0.930 . S
C550 C546 1.524 . S
C550 H562 0.956 . S
C550 H563 0.961 . S
C550 H564 0.961 . S
C551 C548 1.539 . S
C551 H565 0.958 . S
C551 H566 0.961 . S
C551 H567 0.960 . S
H552 C536 0.931 . S
H553 C541 0.929 . S
H554 C542 0.960 . S
H555 C542 0.962 . S
H556 C542 0.960 . S
H557 C543 0.961 . S
H558 C543 0.961 . S
H559 C543 0.961 . S
H560 C544 0.931 . S
H561 C549 0.930 . S
H562 C550 0.956 . S
H563 C550 0.961 . S
H564 C550 0.961 . S
H565 C551 0.958 . S
H566 C551 0.961 . S
H567 C551 0.960 . S
C568 C569 1.391 . S
C568 C570 1.394 . S
C568 H584 0.931 . S
C569 C568 1.391 . S
C569 C573 1.376 . S
C570 C568 1.394 . S
C570 C571 1.369 . S
C570 C574 1.531 . S
C571 C570 1.369 . S
C571 C572 1.410 . S
C571 C579 1.503 . S
C572 C571 1.410 . S
C572 C573 1.392 . S
C572 C575 1.511 . S
C573 C569 1.376 . S
C573 C572 1.392 . S
C573 H585 0.929 . S
C574 C570 1.531 . S
C574 H586 0.960 . S
C574 H587 0.962 . S
C574 H588 0.960 . S
C575 C572 1.511 . S
C575 H589 0.961 . S
C575 H590 0.961 . S
C575 H591 0.961 . S
C576 C577 1.370 . S
C576 C578 1.363 . S
C576 H592 0.931 . S
C577 C576 1.370 . S
C577 C581 1.408 . S
C578 C576 1.363 . S
C578 C579 1.370 . S
C578 C582 1.524 . S
C579 C571 1.503 . S
C579 C578 1.370 . S
C579 C580 1.403 . S
C580 C579 1.403 . S
C580 C581 1.404 . S
C580 C583 1.539 . S
C581 C577 1.408 . S
C581 C580 1.404 . S
C581 H593 0.930 . S
C582 C578 1.524 . S
C582 H594 0.956 . S
C582 H595 0.961 . S
C582 H596 0.961 . S
C583 C580 1.539 . S
C583 H597 0.958 . S
C583 H598 0.961 . S
C583 H599 0.960 . S
H584 C568 0.931 . S
H585 C573 0.929 . S
H586 C574 0.960 . S
H587 C574 0.962 . S
H588 C574 0.960 . S
H589 C575 0.961 . S
H590 C575 0.961 . S
H591 C575 0.961 . S
H592 C576 0.931 . S
H593 C581 0.930 . S
H594 C582 0.956 . S
H595 C582 0.961 . S
H596 C582 0.961 . S
H597 C583 0.958 . S
H598 C583 0.961 . S
H599 C583 0.960 . S
C600 C601 1.391 . S
C600 C602 1.394 . S
C600 H616 0.931 . S
C601 C600 1.391 . S
C601 C605 1.376 . S
C602 C600 1.394 . S
C602 C603 1.369 . S
C602 C606 1.531 . S
C603 C602 1.369 . S
C603 C604 1.410 . S
C603 C611 1.503 . S
C604 C603 1.410 . S
C604 C605 1.392 . S
C604 C607 1.511 . S
C605 C601 1.376 . S
C605 C604 1.392 . S
C605 H617 0.929 . S
C606 C602 1.531 . S
C606 H618 0.960 . S
C606 H619 0.962 . S
C606 H620 0.960 . S
C607 C604 1.511 . S
C607 H621 0.961 . S
C607 H622 0.961 . S
C607 H623 0.961 . S
C608 C609 1.370 . S
C608 C610 1.363 . S
C608 H624 0.931 . S
C609 C608 1.370 . S
C609 C613 1.408 . S
C610 C608 1.363 . S
C610 C611 1.370 . S
C610 C614 1.524 . S
C611 C603 1.503 . S
C611 C610 1.370 . S
C611 C612 1.403 . S
C612 C611 1.403 . S
C612 C613 1.404 . S
C612 C615 1.539 . S
C613 C609 1.408 . S
C613 C612 1.404 . S
C613 H625 0.930 . S
C614 C610 1.524 . S
C614 H626 0.956 . S
C614 H627 0.961 . S
C614 H628 0.961 . S
C615 C612 1.539 . S
C615 H629 0.958 . S
C615 H630 0.961 . S
C615 H631 0.960 . S
H616 C600 0.931 . S
H617 C605 0.929 . S
H618 C606 0.960 . S
H619 C606 0.962 . S
H620 C606 0.960 . S
H621 C607 0.961 . S
H622 C607 0.961 . S
H623 C607 0.961 . S
H624 C608 0.931 . S
H625 C613 0.930 . S
H626 C614 0.956 . S
H627 C614 0.961 . S
H628 C614 0.961 . S
H629 C615 0.958 . S
H630 C615 0.961 . S
H631 C615 0.960 . S
C632 C633 1.391 . S
C632 C634 1.394 . S
C632 H648 0.931 . S
C633 C632 1.391 . S
C633 C637 1.376 . S
C634 C632 1.394 . S
C634 C635 1.369 . S
C634 C638 1.531 . S
C635 C634 1.369 . S
C635 C636 1.410 . S
C635 C643 1.503 . S
C636 C635 1.410 . S
C636 C637 1.392 . S
C636 C639 1.511 . S
C637 C633 1.376 . S
C637 C636 1.392 . S
C637 H649 0.929 . S
C638 C634 1.531 . S
C638 H650 0.960 . S
C638 H651 0.962 . S
C638 H652 0.960 . S
C639 C636 1.511 . S
C639 H653 0.961 . S
C639 H654 0.961 . S
C639 H655 0.961 . S
C640 C641 1.370 . S
C640 C642 1.363 . S
C640 H656 0.931 . S
C641 C640 1.370 . S
C641 C645 1.408 . S
C642 C640 1.363 . S
C642 C643 1.370 . S
C642 C646 1.524 . S
C643 C635 1.503 . S
C643 C642 1.370 . S
C643 C644 1.403 . S
C644 C643 1.403 . S
C644 C645 1.404 . S
C644 C647 1.539 . S
C645 C641 1.408 . S
C645 C644 1.404 . S
C645 H657 0.930 . S
C646 C642 1.524 . S
C646 H658 0.956 . S
C646 H659 0.961 . S
C646 H660 0.961 . S
C647 C644 1.539 . S
C647 H661 0.958 . S
C647 H662 0.961 . S
C647 H663 0.960 . S
H648 C632 0.931 . S
H649 C637 0.929 . S
H650 C638 0.960 . S
H651 C638 0.962 . S
H652 C638 0.960 . S
H653 C639 0.961 . S
H654 C639 0.961 . S
H655 C639 0.961 . S
H656 C640 0.931 . S
H657 C645 0.930 . S
H658 C646 0.956 . S
H659 C646 0.961 . S
H660 C646 0.961 . S
H661 C647 0.958 . S
H662 C647 0.961 . S
H663 C647 0.960 . S
C664 C665 1.391 . S
C664 C666 1.394 . S
C664 H680 0.931 . S
C665 C664 1.391 . S
C665 C669 1.376 . S
C666 C664 1.394 . S
C666 C667 1.369 . S
C666 C670 1.531 . S
C667 C666 1.369 . S
C667 C668 1.410 . S
C667 C675 1.503 . S
C668 C667 1.410 . S
C668 C669 1.392 . S
C668 C671 1.511 . S
C669 C665 1.376 . S
C669 C668 1.392 . S
C669 H681 0.929 . S
C670 C666 1.531 . S
C670 H682 0.960 . S
C670 H683 0.962 . S
C670 H684 0.960 . S
C671 C668 1.511 . S
C671 H685 0.961 . S
C671 H686 0.961 . S
C671 H687 0.961 . S
C672 C673 1.370 . S
C672 C674 1.363 . S
C672 H688 0.931 . S
C673 C672 1.370 . S
C673 C677 1.408 . S
C674 C672 1.363 . S
C674 C675 1.370 . S
C674 C678 1.524 . S
C675 C667 1.503 . S
C675 C674 1.370 . S
C675 C676 1.403 . S
C676 C675 1.403 . S
C676 C677 1.404 . S
C676 C679 1.539 . S
C677 C673 1.408 . S
C677 C676 1.404 . S
C677 H689 0.930 . S
C678 C674 1.524 . S
C678 H690 0.956 . S
C678 H691 0.961 . S
C678 H692 0.961 . S
C679 C676 1.539 . S
C679 H693 0.958 . S
C679 H694 0.961 . S
C679 H695 0.960 . S
H680 C664 0.931 . S
H681 C669 0.929 . S
H682 C670 0.960 . S
H683 C670 0.962 . S
H684 C670 0.960 . S
H685 C671 0.961 . S
H686 C671 0.961 . S
H687 C671 0.961 . S
H688 C672 0.931 . S
H689 C677 0.930 . S
H690 C678 0.956 . S
H691 C678 0.961 . S
H692 C678 0.961 . S
H693 C679 0.958 . S
H694 C679 0.961 . S
H695 C679 0.960 . S
C696 C697 1.391 . S
C696 C698 1.394 . S
C696 H712 0.931 . S
C697 C696 1.391 . S
C697 C701 1.376 . S
C698 C696 1.394 . S
C698 C699 1.369 . S
C698 C702 1.531 . S
C699 C698 1.369 . S
C699 C700 1.410 . S
C699 C707 1.503 . S
C700 C699 1.410 . S
C700 C701 1.392 . S
C700 C703 1.511 . S
C701 C697 1.376 . S
C701 C700 1.392 . S
C701 H713 0.929 . S
C702 C698 1.531 . S
C702 H714 0.960 . S
C702 H715 0.962 . S
C702 H716 0.960 . S
C703 C700 1.511 . S
C703 H717 0.961 . S
C703 H718 0.961 . S
C703 H719 0.961 . S
C704 C705 1.370 . S
C704 C706 1.363 . S
C704 H720 0.931 . S
C705 C704 1.370 . S
C705 C709 1.408 . S
C706 C704 1.363 . S
C706 C707 1.370 . S
C706 C710 1.524 . S
C707 C699 1.503 . S
C707 C706 1.370 . S
C707 C708 1.403 . S
C708 C707 1.403 . S
C708 C709 1.404 . S
C708 C711 1.539 . S
C709 C705 1.408 . S
C709 C708 1.404 . S
C709 H721 0.930 . S
C710 C706 1.524 . S
C710 H722 0.956 . S
C710 H723 0.961 . S
C710 H724 0.961 . S
C711 C708 1.539 . S
C711 H725 0.958 . S
C711 H726 0.961 . S
C711 H727 0.960 . S
H712 C696 0.931 . S
H713 C701 0.929 . S
H714 C702 0.960 . S
H715 C702 0.962 . S
H716 C702 0.960 . S
H717 C703 0.961 . S
H718 C703 0.961 . S
H719 C703 0.961 . S
H720 C704 0.931 . S
H721 C709 0.930 . S
H722 C710 0.956 . S
H723 C710 0.961 . S
H724 C710 0.961 . S
H725 C711 0.958 . S
H726 C711 0.961 . S
H727 C711 0.960 . S
C728 C729 1.391 . S
C728 C730 1.394 . S
C728 H744 0.931 . S
C729 C728 1.391 . S
C729 C733 1.376 . S
C730 C728 1.394 . S
C730 C731 1.369 . S
C730 C734 1.531 . S
C731 C730 1.369 . S
C731 C732 1.410 . S
C731 C739 1.503 . S
C732 C731 1.410 . S
C732 C733 1.392 . S
C732 C735 1.511 . S
C733 C729 1.376 . S
C733 C732 1.392 . S
C733 H745 0.929 . S
C734 C730 1.531 . S
C734 H746 0.960 . S
C734 H747 0.962 . S
C734 H748 0.960 . S
C735 C732 1.511 . S
C735 H749 0.961 . S
C735 H750 0.961 . S
C735 H751 0.961 . S
C736 C737 1.370 . S
C736 C738 1.363 . S
C736 H752 0.931 . S
C737 C736 1.370 . S
C737 C741 1.408 . S
C738 C736 1.363 . S
C738 C739 1.370 . S
C738 C742 1.524 . S
C739 C731 1.503 . S
C739 C738 1.370 . S
C739 C740 1.403 . S
C740 C739 1.403 . S
C740 C741 1.404 . S
C740 C743 1.539 . S
C741 C737 1.408 . S
C741 C740 1.404 . S
C741 H753 0.930 . S
C742 C738 1.524 . S
C742 H754 0.956 . S
C742 H755 0.961 . S
C742 H756 0.961 . S
C743 C740 1.539 . S
C743 H757 0.958 . S
C743 H758 0.961 . S
C743 H759 0.960 . S
H744 C728 0.931 . S
H745 C733 0.929 . S
H746 C734 0.960 . S
H747 C734 0.962 . S
H748 C734 0.960 . S
H749 C735 0.961 . S
H750 C735 0.961 . S
H751 C735 0.961 . S
H752 C736 0.931 . S
H753 C741 0.930 . S
H754 C742 0.956 . S
H755 C742 0.961 . S
H756 C742 0.961 . S
H757 C743 0.958 . S
H758 C743 0.961 . S
H759 C743 0.960 . S
C760 C761 1.391 . S
C760 C762 1.394 . S
C760 H776 0.931 . S
C761 C760 1.391 . S
C761 C765 1.376 . S
C762 C760 1.394 . S
C762 C763 1.369 . S
C762 C766 1.531 . S
C763 C762 1.369 . S
C763 C764 1.410 . S
C763 C771 1.503 . S
C764 C763 1.410 . S
C764 C765 1.392 . S
C764 C767 1.511 . S
C765 C761 1.376 . S
C765 C764 1.392 . S
C765 H777 0.929 . S
C766 C762 1.531 . S
C766 H778 0.960 . S
C766 H779 0.962 . S
C766 H780 0.960 . S
C767 C764 1.511 . S
C767 H781 0.961 . S
C767 H782 0.961 . S
C767 H783 0.961 . S
C768 C769 1.370 . S
C768 C770 1.363 . S
C768 H784 0.931 . S
C769 C768 1.370 . S
C769 C773 1.408 . S
C770 C768 1.363 . S
C770 C771 1.370 . S
C770 C774 1.524 . S
C771 C763 1.503 . S
C771 C770 1.370 . S
C771 C772 1.403 . S
C772 C771 1.403 . S
C772 C773 1.404 . S
C772 C775 1.539 . S
C773 C769 1.408 . S
C773 C772 1.404 . S
C773 H785 0.930 . S
C774 C770 1.524 . S
C774 H786 0.956 . S
C774 H787 0.961 . S
C774 H788 0.961 . S
C775 C772 1.539 . S
C775 H789 0.958 . S
C775 H790 0.961 . S
C775 H791 0.960 . S
H776 C760 0.931 . S
H777 C765 0.929 . S
H778 C766 0.960 . S
H779 C766 0.962 . S
H780 C766 0.960 . S
H781 C767 0.961 . S
H782 C767 0.961 . S
H783 C767 0.961 . S
H784 C768 0.931 . S
H785 C773 0.930 . S
H786 C774 0.956 . S
H787 C774 0.961 . S
H788 C774 0.961 . S
H789 C775 0.958 . S
H790 C775 0.961 . S
H791 C775 0.960 . S
C792 C793 1.391 . S
C792 C794 1.394 . S
C792 H808 0.931 . S
C793 C792 1.391 . S
C793 C797 1.376 . S
C794 C792 1.394 . S
C794 C795 1.369 . S
C794 C798 1.531 . S
C795 C794 1.369 . S
C795 C796 1.410 . S
C795 C803 1.503 . S
C796 C795 1.410 . S
C796 C797 1.392 . S
C796 C799 1.511 . S
C797 C793 1.376 . S
C797 C796 1.392 . S
C797 H809 0.929 . S
C798 C794 1.531 . S
C798 H810 0.960 . S
C798 H811 0.962 . S
C798 H812 0.960 1_655 S
C799 C796 1.511 . S
C799 H813 0.961 . S
C799 H814 0.961 . S
C799 H815 0.961 . S
C800 C801 1.370 . S
C800 C802 1.363 . S
C800 H816 0.931 . S
C801 C800 1.370 . S
C801 C805 1.408 . S
C802 C800 1.363 . S
C802 C803 1.370 . S
C802 C806 1.524 . S
C803 C795 1.503 . S
C803 C802 1.370 . S
C803 C804 1.403 . S
C804 C803 1.403 . S
C804 C805 1.404 . S
C804 C807 1.539 . S
C805 C801 1.408 . S
C805 C804 1.404 . S
C805 H817 0.930 . S
C806 C802 1.524 . S
C806 H818 0.956 . S
C806 H819 0.961 . S
C806 H820 0.961 . S
C807 C804 1.539 . S
C807 H821 0.958 . S
C807 H822 0.961 . S
C807 H823 0.960 . S
H808 C792 0.931 . S
H809 C797 0.929 . S
H810 C798 0.960 . S
H811 C798 0.962 . S
H812 C798 0.960 1_455 S
H813 C799 0.961 . S
H814 C799 0.961 . S
H815 C799 0.961 . S
H816 C800 0.931 . S
H817 C805 0.930 . S
H818 C806 0.956 . S
H819 C806 0.961 . S
H820 C806 0.961 . S
H821 C807 0.958 . S
H822 C807 0.961 . S
H823 C807 0.960 . S
C824 C825 1.391 . S
C824 C826 1.394 . S
C824 H840 0.931 . S
C825 C824 1.391 . S
C825 C829 1.376 . S
C826 C824 1.394 . S
C826 C827 1.369 . S
C826 C830 1.531 . S
C827 C826 1.369 . S
C827 C828 1.410 . S
C827 C835 1.503 . S
C828 C827 1.410 . S
C828 C829 1.392 . S
C828 C831 1.511 . S
C829 C825 1.376 . S
C829 C828 1.392 . S
C829 H841 0.929 . S
C830 C826 1.531 . S
C830 H842 0.960 . S
C830 H843 0.962 . S
C830 H844 0.960 . S
C831 C828 1.511 . S
C831 H845 0.961 . S
C831 H846 0.961 . S
C831 H847 0.961 . S
C832 C833 1.370 . S
C832 C834 1.363 . S
C832 H848 0.931 . S
C833 C832 1.370 . S
C833 C837 1.408 . S
C834 C832 1.363 . S
C834 C835 1.370 . S
C834 C838 1.524 . S
C835 C827 1.503 . S
C835 C834 1.370 . S
C835 C836 1.403 . S
C836 C835 1.403 . S
C836 C837 1.404 . S
C836 C839 1.539 . S
C837 C833 1.408 . S
C837 C836 1.404 . S
C837 H849 0.930 . S
C838 C834 1.524 . S
C838 H850 0.956 . S
C838 H851 0.961 . S
C838 H852 0.961 . S
C839 C836 1.539 . S
C839 H853 0.958 . S
C839 H854 0.961 . S
C839 H855 0.960 . S
H840 C824 0.931 . S
H841 C829 0.929 . S
H842 C830 0.960 . S
H843 C830 0.962 . S
H844 C830 0.960 . S
H845 C831 0.961 . S
H846 C831 0.961 . S
H847 C831 0.961 . S
H848 C832 0.931 . S
H849 C837 0.930 . S
H850 C838 0.956 . S
H851 C838 0.961 . S
H852 C838 0.961 . S
H853 C839 0.958 . S
H854 C839 0.961 . S
H855 C839 0.960 . S
C856 C857 1.391 . S
C856 C858 1.394 . S
C856 H872 0.931 . S
C857 C856 1.391 . S
C857 C861 1.376 . S
C858 C856 1.394 . S
C858 C859 1.369 . S
C858 C862 1.531 . S
C859 C858 1.369 . S
C859 C860 1.410 . S
C859 C867 1.503 . S
C860 C859 1.410 . S
C860 C861 1.392 . S
C860 C863 1.511 . S
C861 C857 1.376 . S
C861 C860 1.392 . S
C861 H873 0.929 . S
C862 C858 1.531 . S
C862 H874 0.960 . S
C862 H875 0.962 . S
C862 H876 0.960 . S
C863 C860 1.511 . S
C863 H877 0.961 . S
C863 H878 0.961 . S
C863 H879 0.961 . S
C864 C865 1.370 . S
C864 C866 1.363 . S
C864 H880 0.931 . S
C865 C864 1.370 . S
C865 C869 1.408 . S
C866 C864 1.363 . S
C866 C867 1.370 . S
C866 C870 1.524 . S
C867 C859 1.503 . S
C867 C866 1.370 . S
C867 C868 1.403 . S
C868 C867 1.403 . S
C868 C869 1.404 . S
C868 C871 1.539 . S
C869 C865 1.408 . S
C869 C868 1.404 . S
C869 H881 0.930 . S
C870 C866 1.524 . S
C870 H882 0.956 . S
C870 H883 0.961 . S
C870 H884 0.961 . S
C871 C868 1.539 . S
C871 H885 0.958 . S
C871 H886 0.961 . S
C871 H887 0.960 . S
H872 C856 0.931 . S
H873 C861 0.929 . S
H874 C862 0.960 . S
H875 C862 0.962 . S
H876 C862 0.960 . S
H877 C863 0.961 . S
H878 C863 0.961 . S
H879 C863 0.961 . S
H880 C864 0.931 . S
H881 C869 0.930 . S
H882 C870 0.956 . S
H883 C870 0.961 . S
H884 C870 0.961 . S
H885 C871 0.958 . S
H886 C871 0.961 . S
H887 C871 0.960 . S
C888 C889 1.391 . S
C888 C890 1.394 . S
C888 H904 0.931 . S
C889 C888 1.391 . S
C889 C893 1.376 . S
C890 C888 1.394 . S
C890 C891 1.369 . S
C890 C894 1.531 . S
C891 C890 1.369 . S
C891 C892 1.410 . S
C891 C899 1.503 . S
C892 C891 1.410 . S
C892 C893 1.392 . S
C892 C895 1.511 . S
C893 C889 1.376 . S
C893 C892 1.392 . S
C893 H905 0.929 . S
C894 C890 1.531 . S
C894 H906 0.960 . S
C894 H907 0.962 . S
C894 H908 0.960 . S
C895 C892 1.511 . S
C895 H909 0.961 . S
C895 H910 0.961 . S
C895 H911 0.961 . S
C896 C897 1.370 . S
C896 C898 1.363 . S
C896 H912 0.931 . S
C897 C896 1.370 . S
C897 C901 1.408 . S
C898 C896 1.363 . S
C898 C899 1.370 . S
C898 C902 1.524 . S
C899 C891 1.503 . S
C899 C898 1.370 . S
C899 C900 1.403 . S
C900 C899 1.403 . S
C900 C901 1.404 . S
C900 C903 1.539 . S
C901 C897 1.408 . S
C901 C900 1.404 . S
C901 H913 0.930 . S
C902 C898 1.524 . S
C902 H914 0.956 . S
C902 H915 0.961 . S
C902 H916 0.961 . S
C903 C900 1.539 . S
C903 H917 0.958 . S
C903 H918 0.961 . S
C903 H919 0.960 . S
H904 C888 0.931 . S
H905 C893 0.929 . S
H906 C894 0.960 . S
H907 C894 0.962 . S
H908 C894 0.960 . S
H909 C895 0.961 . S
H910 C895 0.961 . S
H911 C895 0.961 . S
H912 C896 0.931 . S
H913 C901 0.930 . S
H914 C902 0.956 . S
H915 C902 0.961 . S
H916 C902 0.961 . S
H917 C903 0.958 . S
H918 C903 0.961 . S
H919 C903 0.960 . S
C920 C921 1.391 . S
C920 C922 1.394 . S
C920 H936 0.931 . S
C921 C920 1.391 . S
C921 C925 1.376 . S
C922 C920 1.394 . S
C922 C923 1.369 . S
C922 C926 1.531 . S
C923 C922 1.369 . S
C923 C924 1.410 . S
C923 C931 1.503 . S
C924 C923 1.410 . S
C924 C925 1.392 . S
C924 C927 1.511 . S
C925 C921 1.376 . S
C925 C924 1.392 . S
C925 H937 0.929 . S
C926 C922 1.531 . S
C926 H938 0.960 . S
C926 H939 0.962 . S
C926 H940 0.960 . S
C927 C924 1.511 . S
C927 H941 0.961 . S
C927 H942 0.961 . S
C927 H943 0.961 . S
C928 C929 1.370 . S
C928 C930 1.363 . S
C928 H944 0.931 . S
C929 C928 1.370 . S
C929 C933 1.408 . S
C930 C928 1.363 . S
C930 C931 1.370 . S
C930 C934 1.524 . S
C931 C923 1.503 . S
C931 C930 1.370 . S
C931 C932 1.403 . S
C932 C931 1.403 . S
C932 C933 1.404 . S
C932 C935 1.539 . S
C933 C929 1.408 . S
C933 C932 1.404 . S
C933 H945 0.930 . S
C934 C930 1.524 . S
C934 H946 0.956 . S
C934 H947 0.961 . S
C934 H948 0.961 . S
C935 C932 1.539 . S
C935 H949 0.958 . S
C935 H950 0.961 . S
C935 H951 0.960 . S
H936 C920 0.931 . S
H937 C925 0.929 . S
H938 C926 0.960 . S
H939 C926 0.962 . S
H940 C926 0.960 . S
H941 C927 0.961 . S
H942 C927 0.961 . S
H943 C927 0.961 . S
H944 C928 0.931 . S
H945 C933 0.930 . S
H946 C934 0.956 . S
H947 C934 0.961 . S
H948 C934 0.961 . S
H949 C935 0.958 . S
H950 C935 0.961 . S
H951 C935 0.960 . S
C952 C953 1.391 . S
C952 C954 1.394 . S
C952 H968 0.931 . S
C953 C952 1.391 . S
C953 C957 1.376 . S
C954 C952 1.394 . S
C954 C955 1.369 . S
C954 C958 1.531 . S
C955 C954 1.369 . S
C955 C956 1.410 . S
C955 C963 1.503 . S
C956 C955 1.410 . S
C956 C957 1.392 . S
C956 C959 1.511 . S
C957 C953 1.376 . S
C957 C956 1.392 . S
C957 H969 0.929 . S
C958 C954 1.531 . S
C958 H970 0.960 . S
C958 H971 0.962 . S
C958 H972 0.960 . S
C959 C956 1.511 . S
C959 H973 0.961 . S
C959 H974 0.961 . S
C959 H975 0.961 . S
C960 C961 1.370 . S
C960 C962 1.363 . S
C960 H976 0.931 . S
C961 C960 1.370 . S
C961 C965 1.408 . S
C962 C960 1.363 . S
C962 C963 1.370 . S
C962 C966 1.524 . S
C963 C955 1.503 . S
C963 C962 1.370 . S
C963 C964 1.403 . S
C964 C963 1.403 . S
C964 C965 1.404 . S
C964 C967 1.539 . S
C965 C961 1.408 . S
C965 C964 1.404 . S
C965 H977 0.930 . S
C966 C962 1.524 . S
C966 H978 0.956 . S
C966 H979 0.961 . S
C966 H980 0.961 . S
C967 C964 1.539 . S
C967 H981 0.958 . S
C967 H982 0.961 . S
C967 H983 0.960 . S
H968 C952 0.931 . S
H969 C957 0.929 . S
H970 C958 0.960 . S
H971 C958 0.962 . S
H972 C958 0.960 . S
H973 C959 0.961 . S
H974 C959 0.961 . S
H975 C959 0.961 . S
H976 C960 0.931 . S
H977 C965 0.930 . S
H978 C966 0.956 . S
H979 C966 0.961 . S
H980 C966 0.961 . S
H981 C967 0.958 . S
H982 C967 0.961 . S
H983 C967 0.960 . S
C984 C985 1.391 . S
C984 C986 1.394 . S
C984 H1000 0.931 . S
C985 C984 1.391 . S
C985 C989 1.376 . S
C986 C984 1.394 . S
C986 C987 1.369 . S
C986 C990 1.531 . S
C987 C986 1.369 . S
C987 C988 1.410 . S
C987 C995 1.503 . S
C988 C987 1.410 . S
C988 C989 1.392 . S
C988 C991 1.511 . S
C989 C985 1.376 . S
C989 C988 1.392 . S
C989 H1001 0.929 . S
C990 C986 1.531 . S
C990 H1002 0.960 . S
C990 H1003 0.962 . S
C990 H1004 0.960 . S
C991 C988 1.511 . S
C991 H1005 0.961 . S
C991 H1006 0.961 . S
C991 H1007 0.961 . S
C992 C993 1.370 . S
C992 C994 1.363 . S
C992 H1008 0.931 . S
C993 C992 1.370 . S
C993 C997 1.408 . S
C994 C992 1.363 . S
C994 C995 1.370 . S
C994 C998 1.524 . S
C995 C987 1.503 . S
C995 C994 1.370 . S
C995 C996 1.403 . S
C996 C995 1.403 . S
C996 C997 1.404 . S
C996 C999 1.539 . S
C997 C993 1.408 . S
C997 C996 1.404 . S
C997 H1009 0.930 . S
C998 C994 1.524 . S
C998 H1010 0.956 . S
C998 H1011 0.961 . S
C998 H1012 0.961 . S
C999 C996 1.539 . S
C999 H1013 0.958 . S
C999 H1014 0.961 . S
C999 H1015 0.960 . S
H1000 C984 0.931 . S
H1001 C989 0.929 . S
H1002 C990 0.960 . S
H1003 C990 0.962 . S
H1004 C990 0.960 . S
H1005 C991 0.961 . S
H1006 C991 0.961 . S
H1007 C991 0.961 . S
H1008 C992 0.931 . S
H1009 C997 0.930 . S
H1010 C998 0.956 . S
H1011 C998 0.961 . S
H1012 C998 0.961 . S
H1013 C999 0.958 . S
H1014 C999 0.961 . S
H1015 C999 0.960 . S
C249 C5 0.853 . S
C257 C103 1.085 . S
C281 C18 1.521 . S
C289 C147 1.512 . S
C321 C177 2.069 . S
C313 C30 2.065 . S
C345 C41 2.429 . S
C353 C218 2.417 . S
C385 C134 0.983 . S
C377 C7 0.993 . S
C417 C98 2.595 . S
C409 C16 2.473 . S
C449 C226 1.202 . S
C441 C29 1.162 . S
C481 C187 1.801 . S
C473 C38 1.459 . S
C505 C8 1.016 . S
C513 C223 1.124 . S
C545 C137 2.186 1_556 S
C537 C27 2.089 . S
C569 C40 2.142 . S
C577 C106 2.108 . S
C601 C19 1.880 . S
C609 C174 1.873 . S
C641 C94 1.072 . S
C633 C51 0.939 . S
C665 C62 1.725 . S
C673 C138 1.687 . S
C697 C74 2.216 . S
C705 C186 2.247 . S
C729 C84 2.352 . S
C737 C227 2.398 . S
C761 C49 0.947 . S
C769 C143 1.129 . S
C801 C107 2.513 . S
C793 C63 2.500 . S
C833 C217 1.092 . S
C825 C71 1.083 . S
C865 C178 1.956 . S
C857 C85 2.039 . S
C889 C52 0.922 . S
C897 C214 1.047 . S
C929 C146 2.204 . S
C921 C73 2.298 . S
C961 C97 1.794 . S
C953 C82 1.726 . S
C985 C60 1.835 . S
C993 C183 1.944 . S
