# Generated by pormake.
# Topology pyr, (3,6)-cn, num edge types: 1
# Building blocks:
#     Node 0, Type 0, BuildingBlock: WUSLED_clean_sbu_0, # of connection points: 3
#     Node 1, Type 0, BuildingBlock: WUSLED_clean_sbu_0, # of connection points: 3
#     Node 2, Type 0, BuildingBlock: WUSLED_clean_sbu_0, # of connection points: 3
#     Node 3, Type 0, BuildingBlock: WUSLED_clean_sbu_0, # of connection points: 3
#     Node 4, Type 0, BuildingBlock: WUSLED_clean_sbu_0, # of connection points: 3
#     Node 5, Type 0, BuildingBlock: WUSLED_clean_sbu_0, # of connection points: 3
#     Node 6, Type 0, BuildingBlock: WUSLED_clean_sbu_0, # of connection points: 3
#     Node 7, Type 0, BuildingBlock: WUSLED_clean_sbu_0, # of connection points: 3
#     Node 8, Type 1, BuildingBlock: MIFKUJ_clean_sbu_0, # of connection points: 6
#     Node 9, Type 1, BuildingBlock: MIFKUJ_clean_sbu_0, # of connection points: 6
#     Node 10, Type 1, BuildingBlock: MIFKUJ_clean_sbu_0, # of connection points: 6
#     Node 11, Type 1, BuildingBlock: MIFKUJ_clean_sbu_0, # of connection points: 6
#     Edge 12, Type (0, 1), BuildingBlock: AJUNOK_clean_linker_0, # of connection points: 2
#     Edge 13, Type (0, 1), BuildingBlock: AJUNOK_clean_linker_0, # of connection points: 2
#     Edge 14, Type (0, 1), BuildingBlock: AJUNOK_clean_linker_0, # of connection points: 2
#     Edge 15, Type (0, 1), BuildingBlock: AJUNOK_clean_linker_0, # of connection points: 2
#     Edge 16, Type (0, 1), BuildingBlock: AJUNOK_clean_linker_0, # of connection points: 2
#     Edge 17, Type (0, 1), BuildingBlock: AJUNOK_clean_linker_0, # of connection points: 2
#     Edge 18, Type (0, 1), BuildingBlock: AJUNOK_clean_linker_0, # of connection points: 2
#     Edge 19, Type (0, 1), BuildingBlock: AJUNOK_clean_linker_0, # of connection points: 2
#     Edge 20, Type (0, 1), BuildingBlock: AJUNOK_clean_linker_0, # of connection points: 2
#     Edge 21, Type (0, 1), BuildingBlock: AJUNOK_clean_linker_0, # of connection points: 2
#     Edge 22, Type (0, 1), BuildingBlock: AJUNOK_clean_linker_0, # of connection points: 2
#     Edge 23, Type (0, 1), BuildingBlock: AJUNOK_clean_linker_0, # of connection points: 2
#     Edge 24, Type (0, 1), BuildingBlock: AJUNOK_clean_linker_0, # of connection points: 2
#     Edge 25, Type (0, 1), BuildingBlock: AJUNOK_clean_linker_0, # of connection points: 2
#     Edge 26, Type (0, 1), BuildingBlock: AJUNOK_clean_linker_0, # of connection points: 2
#     Edge 27, Type (0, 1), BuildingBlock: AJUNOK_clean_linker_0, # of connection points: 2
#     Edge 28, Type (0, 1), BuildingBlock: AJUNOK_clean_linker_0, # of connection points: 2
#     Edge 29, Type (0, 1), BuildingBlock: AJUNOK_clean_linker_0, # of connection points: 2
#     Edge 30, Type (0, 1), BuildingBlock: AJUNOK_clean_linker_0, # of connection points: 2
#     Edge 31, Type (0, 1), BuildingBlock: AJUNOK_clean_linker_0, # of connection points: 2
#     Edge 32, Type (0, 1), BuildingBlock: AJUNOK_clean_linker_0, # of connection points: 2
#     Edge 33, Type (0, 1), BuildingBlock: AJUNOK_clean_linker_0, # of connection points: 2
#     Edge 34, Type (0, 1), BuildingBlock: AJUNOK_clean_linker_0, # of connection points: 2
#     Edge 35, Type (0, 1), BuildingBlock: AJUNOK_clean_linker_0, # of connection points: 2
# Relax obj value: 0.027
# Max RMSD: 0.084
# Mean RMSD: 0.046
data_MOF--net-pyr--node1-WUSLED_clean_sbu_0--node2-MIFKUJ_clean_sbu_0--edge1-AJUNOK_clean_linker_0
_symmetry_space_group_name_H-M    P1
_symmetry_Int_Tables_number       1
_symmetry_cell_setting            triclinic
loop_
_symmetry_equiv_pos_as_xyz
'x, y, z'
_cell_length_a     40.583029
_cell_length_b     36.78
_cell_length_c     39.254831
_cell_angle_alpha  85.067565
_cell_angle_beta   89.068224
_cell_angle_gamma 96.195252
loop_
_atom_site_label
_atom_site_type_symbol
_atom_site_fract_x
_atom_site_fract_y
_atom_site_fract_z
_atom_type_partial_charge
C0 C 0.18627 0.25087 0.13931 0.0
C1 C 0.15622 0.25708 0.15491 0.0
C2 C 0.15613 0.31456 0.11916 0.0
C3 C 0.14113 0.28866 0.14474 0.0
C4 C 0.18604 0.30793 0.10348 0.0
C5 C 0.20098 0.2764 0.11352 0.0
U6 U 0.19854 0.1684 0.20211 0.0
O7 O 0.2084 0.11249 0.19245 0.0
O8 O 0.24488 0.14739 0.21929 0.0
C9 C 0.23851 0.11674 0.20451 0.0
C10 C 0.20292 0.2183 0.1498 0.0
C11 C 0.26567 0.10686 0.1827 0.0
C12 C 0.288 0.09369 0.12764 0.0
C13 C 0.26194 0.10359 0.14748 0.0
C14 C 0.32208 0.09092 0.17766 0.0
C15 C 0.31828 0.08714 0.14258 0.0
C16 C 0.29598 0.1005 0.19753 0.0
C17 C 0.14372 0.15113 0.28459 0.0
C18 C 0.12705 0.15274 0.3442 0.0
C19 C 0.12207 0.09488 0.31855 0.0
C20 C 0.13508 0.1129 0.28759 0.0
C21 C 0.11778 0.11465 0.34711 0.0
C22 C 0.13985 0.17077 0.31323 0.0
C23 C 0.15493 0.17153 0.25164 0.0
O24 O 0.22142 0.22098 0.17681 0.0
O25 O 0.18463 0.18653 0.14998 0.0
O26 O 0.148 0.15501 0.22378 0.0
O27 O 0.18485 0.18935 0.25076 0.0
H28 H 0.14457 0.23764 0.17498 0.0
H29 H 0.11808 0.29313 0.15718 0.0
H30 H 0.19779 0.32709 0.08324 0.0
H31 H 0.2241 0.27197 0.10116 0.0
H32 H 0.2846 0.09148 0.10055 0.0
H33 H 0.23895 0.10866 0.13524 0.0
H34 H 0.34514 0.08593 0.18983 0.0
H35 H 0.29945 0.10287 0.22459 0.0
H36 H 0.12346 0.16877 0.36558 0.0
H37 H 0.11516 0.06548 0.32015 0.0
H38 H 0.13785 0.09702 0.26593 0.0
H39 H 0.14611 0.20028 0.31143 0.0
C40 C 0.26719 0.86729 0.63508 0.0
C41 C 0.26072 0.89486 0.65606 0.0
C42 C 0.2117 0.90623 0.62358 0.0
C43 C 0.23322 0.91423 0.65031 0.0
C44 C 0.21845 0.87872 0.60251 0.0
C45 C 0.24595 0.85935 0.60829 0.0
U46 U 0.34296 0.84868 0.68617 0.0
O47 O 0.36187 0.79665 0.70398 0.0
O48 O 0.39265 0.83753 0.66975 0.0
C49 C 0.3893 0.80415 0.68527 0.0
C50 C 0.29596 0.84676 0.64103 0.0
C51 C 0.39773 0.77483 0.6646 0.0
C52 C 0.39409 0.74387 0.61232 0.0
C53 C 0.38601 0.77229 0.63135 0.0
C54 C 0.42556 0.72024 0.65963 0.0
C55 C 0.41372 0.71734 0.6264 0.0
C56 C 0.4176 0.74873 0.67854 0.0
C57 C 0.36522 0.90343 0.76173 0.0
C58 C 0.41368 0.89249 0.79496 0.0
C59 C 0.3784 0.93784 0.81069 0.0
C60 C 0.35791 0.92998 0.78338 0.0
C61 C 0.40659 0.9193 0.81664 0.0
C62 C 0.39317 0.88466 0.76766 0.0
C63 C 0.34351 0.89527 0.7332 0.0
O64 O 0.32501 0.86612 0.63542 0.0
O65 O 0.2944 0.82502 0.66953 0.0
O66 O 0.32627 0.86276 0.73648 0.0
O67 O 0.35715 0.90377 0.70256 0.0
H68 H 0.27701 0.90143 0.67678 0.0
H69 H 0.22903 0.93577 0.6665 0.0
H70 H 0.20225 0.87197 0.58177 0.0
H71 H 0.25062 0.83815 0.59186 0.0
H72 H 0.38514 0.74276 0.58656 0.0
H73 H 0.37062 0.79225 0.62016 0.0
H74 H 0.44054 0.7001 0.67121 0.0
H75 H 0.4268 0.75025 0.7042 0.0
H76 H 0.43527 0.87786 0.79894 0.0
H77 H 0.37198 0.95809 0.82741 0.0
H78 H 0.33628 0.94453 0.77923 0.0
H79 H 0.39911 0.86399 0.75116 0.0
C80 C 0.6122 0.39 0.75843 0.0
C81 C 0.63638 0.41153 0.73722 0.0
C82 C 0.59347 0.4321 0.69952 0.0
C83 C 0.62709 0.43226 0.70792 0.0
C84 C 0.56942 0.41076 0.72109 0.0
C85 C 0.57871 0.39002 0.75022 0.0
U86 U 0.66839 0.36345 0.83327 0.0
O87 O 0.65433 0.33962 0.88548 0.0
O88 O 0.68199 0.30878 0.85144 0.0
C89 C 0.66624 0.30844 0.88102 0.0
C90 C 0.62107 0.36613 0.78837 0.0
C91 C 0.64524 0.27406 0.89296 0.0
C92 C 0.59369 0.24129 0.91749 0.0
C93 C 0.6119 0.27387 0.9035 0.0
C94 C 0.6415 0.20845 0.91002 0.0
C95 C 0.60833 0.20825 0.92099 0.0
C96 C 0.65972 0.24098 0.89621 0.0
C97 C 0.74876 0.42411 0.84962 0.0
C98 C 0.78603 0.41038 0.89588 0.0
C99 C 0.79975 0.46384 0.85568 0.0
C100 C 0.77047 0.4552 0.83844 0.0
C101 C 0.80796 0.44155 0.88457 0.0
C102 C 0.75663 0.40171 0.87851 0.0
C103 C 0.71834 0.41555 0.83052 0.0
O104 O 0.64719 0.34845 0.78454 0.0
O105 O 0.6195 0.37958 0.81824 0.0
O106 O 0.69025 0.41745 0.84707 0.0
O107 O 0.71774 0.38671 0.81287 0.0
H108 H 0.66241 0.41195 0.74305 0.0
H109 H 0.64617 0.44839 0.69178 0.0
H110 H 0.54341 0.40931 0.71497 0.0
H111 H 0.55968 0.37341 0.76608 0.0
H112 H 0.56817 0.24192 0.92572 0.0
H113 H 0.60003 0.29893 0.90148 0.0
H114 H 0.6537 0.18363 0.91303 0.0
H115 H 0.68547 0.24045 0.88873 0.0
H116 H 0.79189 0.39239 0.91772 0.0
H117 H 0.81598 0.48816 0.84648 0.0
H118 H 0.7648 0.47283 0.81624 0.0
H119 H 0.74018 0.37747 0.88743 0.0
C120 C 0.79055 0.59039 0.32764 0.0
C121 C 0.78905 0.59112 0.36338 0.0
C122 C 0.73117 0.56533 0.36479 0.0
C123 C 0.75962 0.5786 0.38179 0.0
C124 C 0.73254 0.5658 0.32891 0.0
C125 C 0.76202 0.57799 0.31056 0.0
U126 U 0.86942 0.65587 0.31112 0.0
O127 O 0.92008 0.64527 0.2976 0.0
O128 O 0.89331 0.68079 0.26266 0.0
C129 C 0.91957 0.66306 0.26714 0.0
C130 C 0.82145 0.60267 0.30776 0.0
C131 C 0.92854 0.64241 0.23853 0.0
C132 C 0.91783 0.59073 0.20404 0.0
C133 C 0.90867 0.61063 0.23087 0.0
C134 C 0.96669 0.63431 0.19223 0.0
C135 C 0.94696 0.6024 0.18442 0.0
C136 C 0.95752 0.65415 0.21903 0.0
C137 C 0.88359 0.73297 0.37302 0.0
C138 C 0.90834 0.79656 0.36636 0.0
C139 C 0.89936 0.76486 0.42297 0.0
C140 C 0.88632 0.73316 0.40857 0.0
C141 C 0.90994 0.79709 0.40209 0.0
C142 C 0.89529 0.76472 0.35191 0.0
C143 C 0.8656 0.70055 0.35937 0.0
O144 O 0.82204 0.63457 0.28977 0.0
O145 O 0.84919 0.59837 0.32372 0.0
O146 O 0.8791 0.66963 0.36386 0.0
O147 O 0.85224 0.7056 0.32926 0.0
H148 H 0.81066 0.60107 0.37711 0.0
H149 H 0.75927 0.57867 0.40939 0.0
H150 H 0.71077 0.55675 0.31499 0.0
H151 H 0.76256 0.57771 0.28298 0.0
H152 H 0.90245 0.56593 0.19903 0.0
H153 H 0.88625 0.60108 0.24583 0.0
H154 H 0.98917 0.64404 0.17744 0.0
H155 H 0.97314 0.6786 0.22462 0.0
H156 H 0.91587 0.82116 0.34967 0.0
H157 H 0.90047 0.76443 0.45055 0.0
H158 H 0.87734 0.70904 0.42533 0.0
H159 H 0.89338 0.76534 0.32438 0.0
C160 C 0.84857 0.7727 0.89714 0.0
C161 C 0.88275 0.77258 0.89082 0.0
C162 C 0.88173 0.71352 0.92431 0.0
C163 C 0.8992 0.74321 0.90434 0.0
C164 C 0.84732 0.7133 0.92955 0.0
C165 C 0.83097 0.7427 0.91624 0.0
U166 U 0.83665 0.85282 0.8314 0.0
O167 O 0.79103 0.87169 0.81023 0.0
O168 O 0.82398 0.90837 0.83915 0.0
C169 C 0.79531 0.90302 0.82423 0.0
C170 C 0.83085 0.80387 0.88444 0.0
C171 C 0.7664 0.91306 0.84308 0.0
C172 C 0.71775 0.89689 0.88061 0.0
C173 C 0.74604 0.88694 0.8644 0.0
C174 C 0.7304 0.95929 0.85511 0.0
C175 C 0.7095 0.93316 0.87596 0.0
C176 C 0.75855 0.94931 0.83885 0.0
C177 C 0.89597 0.87157 0.75274 0.0
C178 C 0.91347 0.92876 0.71819 0.0
C179 C 0.91682 0.87059 0.69444 0.0
C180 C 0.90409 0.85202 0.7252 0.0
C181 C 0.92175 0.90914 0.69067 0.0
C182 C 0.90049 0.91016 0.74893 0.0
C183 C 0.8839 0.85098 0.78529 0.0
O184 O 0.84729 0.83664 0.88492 0.0
O185 O 0.81438 0.79963 0.85625 0.0
O186 O 0.85477 0.83165 0.78455 0.0
O187 O 0.88818 0.86819 0.81318 0.0
H188 H 0.89677 0.79535 0.8758 0.0
H189 H 0.92567 0.74404 0.89974 0.0
H190 H 0.833 0.69033 0.94397 0.0
H191 H 0.80453 0.74209 0.92104 0.0
H192 H 0.70186 0.87598 0.89601 0.0
H193 H 0.7517 0.85877 0.86803 0.0
H194 H 0.72483 0.98747 0.85119 0.0
H195 H 0.774 0.96987 0.82258 0.0
H196 H 0.91701 0.9585 0.71589 0.0
H197 H 0.92353 0.85478 0.67384 0.0
H198 H 0.90097 0.82227 0.72765 0.0
H199 H 0.89432 0.92594 0.76974 0.0
C200 C 0.63017 0.16517 0.28341 0.0
C201 C 0.65067 0.14241 0.26817 0.0
C202 C 0.60975 0.13098 0.22464 0.0
C203 C 0.64053 0.12544 0.23896 0.0
C204 C 0.58921 0.15352 0.24026 0.0
C205 C 0.5994 0.17054 0.26938 0.0
U206 U 0.69085 0.17921 0.35476 0.0
O207 O 0.71162 0.22989 0.37615 0.0
O208 O 0.68235 0.18645 0.40909 0.0
C209 C 0.69694 0.22031 0.40615 0.0
C210 C 0.64067 0.18337 0.31388 0.0
C211 C 0.67784 0.24799 0.41953 0.0
C212 C 0.6269 0.27682 0.42388 0.0
C213 C 0.6446 0.25017 0.41091 0.0
C214 C 0.67567 0.29969 0.45361 0.0
C215 C 0.64219 0.30165 0.44564 0.0
C216 C 0.69326 0.273 0.44079 0.0
C217 C 0.76527 0.12278 0.35801 0.0
C218 C 0.80541 0.12298 0.4033 0.0
C219 C 0.81304 0.08886 0.35414 0.0
C220 C 0.78385 0.10006 0.34046 0.0
C221 C 0.82424 0.10035 0.38559 0.0
C222 C 0.77615 0.13427 0.38951 0.0
C223 C 0.73459 0.13384 0.34298 0.0
O224 O 0.63911 0.16192 0.34255 0.0
O225 O 0.6683 0.20567 0.30996 0.0
O226 O 0.73644 0.16764 0.32861 0.0
O227 O 0.70733 0.12409 0.36157 0.0
H228 H 0.67447 0.13781 0.27888 0.0
H229 H 0.65658 0.10772 0.22778 0.0
H230 H 0.56542 0.15832 0.22966 0.0
H231 H 0.58329 0.18799 0.28089 0.0
H232 H 0.60121 0.27783 0.41716 0.0
H233 H 0.63238 0.23126 0.39421 0.0
H234 H 0.68844 0.31912 0.46945 0.0
H235 H 0.719 0.27201 0.44734 0.0
H236 H 0.81348 0.13214 0.42761 0.0
H237 H 0.82662 0.07076 0.34032 0.0
H238 H 0.77568 0.09079 0.31621 0.0
H239 H 0.76202 0.15184 0.40339 0.0
C240 C 0.29545 0.60277 0.1853 0.0
C241 C 0.27415 0.62859 0.17342 0.0
C242 C 0.23632 0.58 0.15214 0.0
C243 C 0.24485 0.61727 0.15696 0.0
C244 C 0.25845 0.5546 0.16273 0.0
C245 C 0.28758 0.56585 0.17927 0.0
U246 U 0.37409 0.66646 0.20249 0.0
O247 O 0.39434 0.68302 0.25118 0.0
O248 O 0.42331 0.65218 0.21838 0.0
C249 C 0.42106 0.66618 0.24791 0.0
C250 C 0.32526 0.61313 0.20504 0.0
C251 C 0.43048 0.64328 0.27826 0.0
C252 C 0.41663 0.60158 0.32937 0.0
C253 C 0.40675 0.62172 0.29999 0.0
C254 C 0.47398 0.62387 0.31535 0.0
C255 C 0.4504 0.60239 0.33734 0.0
C256 C 0.46411 0.64402 0.28614 0.0
C257 C 0.39667 0.75359 0.14013 0.0
C258 C 0.43498 0.80757 0.14859 0.0
C259 C 0.41451 0.7979 0.09209 0.0
C260 C 0.39602 0.76532 0.10525 0.0
C261 C 0.43399 0.81959 0.11361 0.0
C262 C 0.41647 0.77477 0.16176 0.0
C263 C 0.37585 0.71967 0.15302 0.0
O264 O 0.35396 0.61135 0.18962 0.0
O265 O 0.32483 0.64224 0.22225 0.0
O266 O 0.36003 0.7202 0.18245 0.0
O267 O 0.38863 0.68877 0.14985 0.0
H268 H 0.27978 0.65734 0.17745 0.0
H269 H 0.22833 0.63747 0.14898 0.0
H270 H 0.25299 0.52584 0.15864 0.0
H271 H 0.30375 0.54552 0.1879 0.0
H272 H 0.3979 0.58531 0.34584 0.0
H273 H 0.38062 0.6207 0.29441 0.0
H274 H 0.50008 0.62577 0.32113 0.0
H275 H 0.4828 0.66065 0.26988 0.0
H276 H 0.45019 0.82339 0.16568 0.0
H277 H 0.4131 0.8065 0.06511 0.0
H278 H 0.38089 0.74939 0.08814 0.0
H279 H 0.4175 0.76608 0.18876 0.0
C280 C 0.10888 0.2785 0.70751 0.0
C281 C 0.12798 0.2779 0.67747 0.0
C282 C 0.09963 0.21815 0.66758 0.0
C283 C 0.12337 0.24806 0.65769 0.0
C284 C 0.08049 0.21883 0.69773 0.0
C285 C 0.08508 0.24884 0.71752 0.0
U286 U 0.16452 0.36166 0.72641 0.0
O287 O 0.15526 0.41696 0.73854 0.0
O288 O 0.18234 0.38274 0.77444 0.0
C289 C 0.16902 0.41364 0.76858 0.0
C290 C 0.11505 0.30941 0.72884 0.0
C291 C 0.15045 0.42544 0.79742 0.0
C292 C 0.09968 0.42577 0.83113 0.0
C293 C 0.11681 0.41309 0.804 0.0
C294 C 0.14974 0.46279 0.84549 0.0
C295 C 0.11596 0.45095 0.85203 0.0
C296 C 0.16676 0.45021 0.8184 0.0
C297 C 0.24277 0.38231 0.66752 0.0
C298 C 0.30021 0.40528 0.67638 0.0
C299 C 0.27655 0.41515 0.62055 0.0
C300 C 0.24635 0.3967 0.63321 0.0
C301 C 0.30395 0.41916 0.64186 0.0
C302 C 0.26992 0.38702 0.68911 0.0
C303 C 0.21119 0.36087 0.67945 0.0
O304 O 0.14091 0.30788 0.74842 0.0
O305 O 0.11372 0.34206 0.71272 0.0
O306 O 0.18418 0.37703 0.6739 0.0
O307 O 0.21092 0.34223 0.7096 0.0
H308 H 0.14669 0.30044 0.66946 0.0
H309 H 0.1384 0.24837 0.63458 0.0
H310 H 0.06249 0.19585 0.70637 0.0
H311 H 0.07039 0.24868 0.74084 0.0
H312 H 0.07383 0.41561 0.83598 0.0
H313 H 0.10385 0.39379 0.78815 0.0
H314 H 0.1629 0.4822 0.8611 0.0
H315 H 0.19272 0.46004 0.81368 0.0
H316 H 0.3209 0.40799 0.6934 0.0
H317 H 0.2784 0.42637 0.59407 0.0
H318 H 0.2258 0.39339 0.61606 0.0
H319 H 0.26798 0.37622 0.7157 0.0
Zn320 Zn 0.05694 0.03108 0.5516 0.0
Zn321 Zn 0.97894 0.99812 0.48674 0.0
C322 C 0.08851 0.09271 0.5852 0.0
O323 O 0.11582 0.08032 0.57488 0.0
C324 C 0.94457 0.93289 0.4662 0.0
O325 O 0.92196 0.94425 0.48585 0.0
O326 O 0.09478 1.0017 0.56452 0.0
O327 O 1.01475 1.00072 0.56865 0.0
O328 O 0.97234 0.9824 0.53711 0.0
C329 C 0.09873 0.98875 0.59508 0.0
O330 O 0.07747 0.99475 0.619 0.0
O331 O 0.06071 0.07635 0.5777 0.0
C332 C 0.94067 0.03878 0.44043 0.0
O333 O 0.96424 0.03142 0.41961 0.0
O334 O 0.94156 0.02748 0.47189 0.0
O335 O 0.02173 0.02735 0.46925 0.0
O336 O 0.06348 0.04677 0.50121 0.0
O337 O 0.97265 0.95189 0.46224 0.0
C338 C 0.98607 0.98376 0.5659 0.0
C339 C 0.05037 0.04442 0.47219 0.0
Zn340 Zn 0.53367 0.98793 0.97705 0.0
Zn341 Zn 0.50375 0.0432 0.06033 0.0
C342 C 0.49266 0.94768 0.93104 0.0
O343 O 0.50353 0.91971 0.94888 0.0
C344 C 0.55979 0.06931 0.10132 0.0
O345 O 0.57606 0.07549 0.07184 0.0
O346 O 0.57702 0.97004 0.96256 0.0
O347 O 0.54201 0.04269 0.97938 0.0
O348 O 0.52639 0.07553 0.0203 0.0
C349 C 0.58671 0.97702 0.93146 0.0
O350 O 0.56827 0.99528 0.91044 0.0
O351 O 0.50194 0.97995 0.93883 0.0
C352 C 0.43138 0.04114 0.07053 0.0
O353 O 0.43019 0.00825 0.05967 0.0
O354 O 0.45927 0.06053 0.07102 0.0
O355 O 0.49765 0.98782 0.05966 0.0
O356 O 0.51377 0.95583 0.01823 0.0
O357 O 0.5299 0.0547 0.10204 0.0
C358 C 0.54065 0.07344 0.99153 0.0
C359 C 0.50028 0.95727 0.04751 0.0
Zn360 Zn 0.55952 0.49352 0.49125 0.0
Zn361 Zn 0.48118 0.53087 0.54444 0.0
C362 C 0.60834 0.51093 0.43997 0.0
O363 O 0.58572 0.48961 0.42539 0.0
C364 C 0.42989 0.49742 0.59042 0.0
O365 O 0.4471 0.51846 0.61068 0.0
O366 O 0.56095 0.44101 0.47962 0.0
O367 O 0.56137 0.49191 0.54309 0.0
O368 O 0.51908 0.51106 0.57026 0.0
C369 C 0.58423 0.42554 0.49417 0.0
O370 O 0.60254 0.44347 0.51587 0.0
O371 O 0.6027 0.51905 0.47024 0.0
C372 C 0.44657 0.59216 0.55593 0.0
O373 O 0.42513 0.57397 0.53719 0.0
O374 O 0.47415 0.57968 0.56182 0.0
O375 O 0.48233 0.53845 0.49272 0.0
O376 O 0.52354 0.51752 0.46518 0.0
O377 O 0.44003 0.4972 0.55962 0.0
C378 C 0.54674 0.4978 0.57068 0.0
C379 C 0.49714 0.53333 0.465 0.0
Zn380 Zn 0.97817 0.52593 0.99042 0.0
Zn381 Zn 0.06301 0.5029 0.04823 0.0
C382 C 0.93218 0.49327 0.9462 0.0
O383 O 0.95393 0.51284 0.925 0.0
C384 C 0.10899 0.52983 0.09477 0.0
O385 O 0.08605 0.50968 0.11416 0.0
O386 O 0.96859 0.57579 0.9691 0.0
O387 O 0.97876 0.53157 0.04156 0.0
O388 O 0.02352 0.52045 0.07088 0.0
C389 C 0.94207 0.58593 0.98108 0.0
O390 O 0.92479 0.56402 1.00462 0.0
O391 O 0.93752 0.49241 0.97813 0.0
C392 C 0.09997 0.44468 0.06326 0.0
O393 O 0.11991 0.46793 0.04311 0.0
O394 O 0.07054 0.45203 0.06893 0.0
O395 O 0.0629 0.4998 0.99715 0.0
O396 O 0.01875 0.51052 0.96657 0.0
O397 O 0.10407 0.53464 0.06279 0.0
C398 C 0.99438 0.53013 0.06944 0.0
C399 C 0.04823 0.50176 0.96873 0.0
C400 C 0.07158 0.07389 0.37826 0.0
C401 C 0.102 0.09596 0.37929 0.0
C402 C 0.05528 0.05734 0.40833 0.0
C403 C 0.06875 0.06202 0.44076 0.0
H404 H 0.05994 0.06993 0.35402 0.0
H405 H 0.03182 0.04082 0.40597 0.0
S406 S 0.14917 0.11561 0.45695 0.0
N407 N 0.14585 0.12044 0.41499 0.0
N408 N 0.11537 0.08958 0.47163 0.0
C409 C 0.09961 0.08357 0.44202 0.0
C410 C 0.11612 0.1005 0.4113 0.0
C411 C 0.43745 0.89858 0.86818 0.0
C412 C 0.42838 0.92744 0.84568 0.0
C413 C 0.45804 0.90546 0.89575 0.0
C414 C 0.47047 0.9415 0.90188 0.0
H415 H 0.4283 0.87041 0.86464 0.0
H416 H 0.46417 0.88223 0.91238 0.0
S417 S 0.45529 0.02665 0.84917 0.0
N418 N 0.43423 0.99329 0.83046 0.0
N419 N 0.47273 1.00644 0.88234 0.0
C420 C 0.46169 0.97065 0.87938 0.0
C421 C 0.44069 0.96357 0.8513 0.0
C422 C 0.59909 0.44846 0.63601 0.0
C423 C 0.58342 0.45249 0.66749 0.0
C424 C 0.58791 0.46438 0.60509 0.0
C425 C 0.56056 0.48508 0.60423 0.0
H426 H 0.61941 0.43171 0.6351 0.0
H427 H 0.60031 0.45937 0.58161 0.0
S428 S 0.51367 0.50775 0.68036 0.0
N429 N 0.54124 0.48156 0.69636 0.0
N430 N 0.52008 0.51135 0.63851 0.0
C431 C 0.54572 0.49078 0.63583 0.0
C432 C 0.55713 0.4745 0.6673 0.0
C433 C 0.99016 0.57247 0.1542 0.0
C434 C 0.95735 0.58124 0.15619 0.0
C435 C 1.00136 0.55453 0.12687 0.0
C436 C 0.9803 0.54479 0.10013 0.0
H437 H 1.00749 0.5799 0.1738 0.0
H438 H 0.02713 0.54937 0.12629 0.0
S439 S 0.89138 0.55974 0.09438 0.0
N440 N 0.90346 0.57772 0.12984 0.0
N441 N 0.92424 0.54341 0.07872 0.0
C442 C 0.94703 0.55228 0.10246 0.0
C443 C 0.93563 0.57059 0.1304 0.0
C444 C 0.37779 0.09573 0.12278 0.0
C445 C 0.34606 0.07635 0.1219 0.0
C446 C 0.40488 0.0849 0.10508 0.0
C447 C 0.40145 0.05393 0.08609 0.0
H448 H 0.38178 0.11934 0.13752 0.0
H449 H 0.42887 0.10048 0.10712 0.0
S450 S 0.32313 0.99422 0.07522 0.0
N451 N 0.3124 0.02524 0.10006 0.0
N452 N 0.36321 1.00463 0.06686 0.0
C453 C 0.3696 0.03472 0.08449 0.0
C454 C 0.34195 0.046 0.10233 0.0
C455 C 0.17707 0.94228 0.58397 0.0
C456 C 0.18261 0.92695 0.61715 0.0
C457 C 0.14998 0.96218 0.57719 0.0
C458 C 0.12718 0.96745 0.60331 0.0
H459 H 0.19406 0.93925 0.56309 0.0
H460 H 0.14702 0.97357 0.55119 0.0
S461 S 0.12988 0.93125 0.69446 0.0
N462 N 0.16262 0.91719 0.67624 0.0
N463 N 0.11178 0.95473 0.66374 0.0
C464 C 0.13233 0.95195 0.63664 0.0
C465 C 0.16002 0.93172 0.6435 0.0
C466 C 0.86923 0.45988 0.88224 0.0
C467 C 0.83978 0.45089 0.90196 0.0
C468 C 0.89909 0.47207 0.89714 0.0
C469 C 0.90092 0.47581 0.93249 0.0
H470 H 0.86912 0.45802 0.85484 0.0
H471 H 0.92082 0.47933 0.88055 0.0
S472 S 0.83102 0.4549 0.99577 0.0
N473 N 0.81437 0.44575 0.95892 0.0
N474 N 0.87063 0.4684 0.98708 0.0
C475 C 0.87191 0.46568 0.9528 0.0
C476 C 0.84135 0.45329 0.93752 0.0
C477 C 0.68793 0.57019 0.41031 0.0
C478 C 0.70024 0.55066 0.38442 0.0
C479 C 0.65842 0.557 0.42864 0.0
C480 C 0.64007 0.52398 0.4215 0.0
H481 H 0.7009 0.59616 0.41608 0.0
H482 H 0.64959 0.57313 0.448 0.0
S483 S 0.6636 0.46043 0.359 0.0
N484 N 0.69326 0.49504 0.3548 0.0
N485 N 0.6376 0.47071 0.38855 0.0
C486 C 0.65254 0.50378 0.39627 0.0
C487 C 0.68265 0.51701 0.37789 0.0
C488 C 0.10752 0.34648 0.09837 0.0
C489 C 0.14079 0.34846 0.10844 0.0
C490 C 0.09378 0.378 0.08487 0.0
C491 C 0.11301 0.41231 0.08081 0.0
H492 H 0.0924 0.32023 0.09979 0.0
H493 H 0.06846 0.37523 0.07632 0.0
S494 S 0.19929 0.43317 0.10893 0.0
N495 N 0.19105 0.38834 0.11756 0.0
N496 N 0.1655 0.44724 0.09178 0.0
C497 C 0.14564 0.41492 0.09253 0.0
C498 C 0.15948 0.38307 0.10645 0.0
C499 C 0.57336 0.17412 0.9693 0.0
C500 C 0.58964 0.17395 0.93741 0.0
C501 C 0.55732 0.1417 0.98632 0.0
C502 C 0.5567 0.1077 0.97208 0.0
H503 H 0.57374 0.19939 0.98165 0.0
H504 H 0.54573 0.14335 1.0111 0.0
S505 S 0.59357 0.09323 0.88757 0.0
N506 N 0.60265 0.13753 0.89126 0.0
N507 N 0.57266 0.07665 0.92294 0.0
C508 C 0.57223 0.10745 0.93967 0.0
C509 C 0.58865 0.14049 0.92246 0.0
C510 C 0.89954 0.84262 0.44358 0.0
C511 C 0.91999 0.83173 0.41793 0.0
C512 C 0.90781 0.87527 0.45888 0.0
C513 C 0.93702 0.89839 0.44935 0.0
H514 H 0.87662 0.82597 0.45163 0.0
H515 H 0.89106 0.8823 0.47844 0.0
S516 S 0.99946 0.88189 0.38379 0.0
N517 N 0.97099 0.84621 0.38391 0.0
N518 N 0.98668 0.90779 0.41259 0.0
C519 C 0.95787 0.88773 0.4238 0.0
C520 C 0.94928 0.85444 0.40807 0.0
C521 C 0.45439 0.67712 0.60529 0.0
C522 C 0.42168 0.68638 0.60683 0.0
C523 C 0.46229 0.64706 0.58829 0.0
C524 C 0.4378 0.62505 0.57208 0.0
H525 H 0.47408 0.69323 0.61739 0.0
H526 H 0.4878 0.64094 0.58806 0.0
S527 S 0.34806 0.63703 0.56976 0.0
N528 N 0.36447 0.67065 0.59151 0.0
N529 N 0.37922 0.61456 0.55912 0.0
C530 C 0.40499 0.63424 0.5732 0.0
C531 C 0.39696 0.66479 0.59065 0.0
C532 C 0.96485 0.95448 0.65979 0.0
C533 C 0.93675 0.92875 0.65854 0.0
C534 C 0.98047 0.97211 0.62978 0.0
C535 C 0.96844 0.96502 0.59724 0.0
H536 H 0.97527 0.9605 0.68419 0.0
H537 H 1.00223 0.99145 0.63222 0.0
S538 S 0.89445 0.90089 0.58034 0.0
N539 N 0.89676 0.89776 0.62242 0.0
N540 N 0.92592 0.93076 0.56593 0.0
C541 C 0.93991 0.9397 0.59574 0.0
C542 C 0.92417 0.92159 0.62636 0.0
C543 C 0.56699 0.09398 0.1931 0.0
C544 C 0.59876 0.11334 0.19354 0.0
C545 C 0.55516 0.07883 0.16352 0.0
C546 C 0.57451 0.08266 0.13301 0.0
H547 H 0.55102 0.09073 0.21579 0.0
H548 H 0.53029 0.06468 0.1645 0.0
S549 S 0.6599 0.13048 0.12115 0.0
N550 N 0.64969 0.13514 0.1613 0.0
N551 N 0.62765 0.10661 0.1056 0.0
C552 C 0.60671 0.10129 0.13338 0.0
C553 C 0.61878 0.11662 0.16364 0.0
C554 C 0.44586 0.58595 0.4009 0.0
C555 C 0.4611 0.58213 0.36915 0.0
C556 C 0.4572 0.56947 0.43151 0.0
C557 C 0.48423 0.5483 0.43174 0.0
H558 H 0.42561 0.60274 0.40224 0.0
H559 H 0.44499 0.57409 0.45525 0.0
S560 S 0.53051 0.52686 0.35473 0.0
N561 N 0.50297 0.55345 0.3394 0.0
N562 N 0.52439 0.52258 0.39662 0.0
C563 C 0.49891 0.54324 0.39989 0.0
C564 C 0.48736 0.56013 0.36876 0.0
C565 C 0.11227 0.46379 0.91354 0.0
C566 C 0.09818 0.46453 0.88103 0.0
C567 C 0.0962 0.47643 0.94137 0.0
C568 C 0.06534 0.49054 0.93797 0.0
H569 H 0.13575 0.45282 0.91764 0.0
H570 H 0.10806 0.47463 0.9659 0.0
S571 S 0.01903 0.50067 0.85734 0.0
N572 N 0.05242 0.48198 0.84642 0.0
N573 N 0.02208 0.50578 0.89858 0.0
C574 C 0.05126 0.49202 0.9053 0.0
C575 C 0.06766 0.47897 0.87695 0.0
C576 C 0.65737 0.96364 0.87064 0.0
C577 C 0.6784 0.94363 0.8912 0.0
C578 C 0.62795 0.9741 0.88398 0.0
C579 C 0.61818 0.96509 0.91854 0.0
H580 H 0.66353 0.97102 0.8438 0.0
H581 H 0.61276 0.98944 0.86685 0.0
S582 S 0.66506 0.91374 0.98356 0.0
N583 N 0.6879 0.9158 0.9481 0.0
N584 N 0.63239 0.93513 0.97326 0.0
C585 C 0.63903 0.94508 0.9395 0.0
C586 C 0.6691 0.93439 0.92582 0.0
C587 C 0.85493 0.07129 0.43379 0.0
C588 C 0.85508 0.08779 0.4001 0.0
C589 C 0.883 0.05639 0.44697 0.0
C590 C 0.91227 0.05743 0.42694 0.0
H591 H 0.83262 0.06881 0.44973 0.0
H592 H 0.88136 0.04305 0.47273 0.0
S593 S 0.92654 0.10182 0.33852 0.0
N594 N 0.88774 0.10736 0.34807 0.0
N595 N 0.94039 0.07925 0.37257 0.0
C596 C 0.9131 0.07525 0.39366 0.0
C597 C 0.88455 0.09043 0.38031 0.0
C598 C 0.193 0.58426 0.10694 0.0
C599 C 0.20376 0.56725 0.1377 0.0
C600 C 0.16242 0.57206 0.093 0.0
C601 C 0.1412 0.54286 0.10966 0.0
H602 H 0.20856 0.60683 0.09331 0.0
H603 H 0.15528 0.58577 0.06917 0.0
S604 S 0.15779 0.48937 0.19113 0.0
N605 N 0.19057 0.52002 0.18451 0.0
N606 N 0.13354 0.49705 0.15857 0.0
C607 C 0.15169 0.52582 0.14055 0.0
C608 C 0.18282 0.538 0.15448 0.0
C609 C 0.35351 0.46511 0.64657 0.0
C610 C 0.33631 0.43812 0.62831 0.0
C611 C 0.38384 0.48376 0.63422 0.0
C612 C 0.3982 0.47626 0.60304 0.0
H613 H 0.3432 0.47231 0.6704 0.0
H614 H 0.39584 0.50461 0.64913 0.0
S615 S 0.36421 0.40608 0.54661 0.0
N616 N 0.33668 0.40328 0.57842 0.0
N617 N 0.39343 0.43875 0.55484 0.0
C618 C 0.38147 0.44895 0.58471 0.0
C619 C 0.3506 0.42981 0.59741 0.0
C620 C 0.92116 0.66567 0.92 0.0
C621 C 0.89917 0.68283 0.93984 0.0
C622 C 0.93606 0.63507 0.93377 0.0
C623 C 0.92932 0.62051 0.9678 0.0
H624 H 0.9261 0.67524 0.89335 0.0
H625 H 0.95198 0.62198 0.91732 0.0
S626 S 0.87737 0.65855 0.03177 0.0
N627 N 0.87437 0.68537 0.99627 0.0
N628 N 0.90174 0.62768 0.02189 0.0
C629 C 0.90853 0.63839 0.98826 0.0
C630 C 0.89361 0.66958 0.97436 0.0
C631 C 0.47218 0.85549 0.06895 0.0
C632 C 0.45285 0.8547 0.09914 0.0
C633 C 0.48813 0.88852 0.05316 0.0
C634 C 0.4854 0.92237 0.06676 0.0
H635 H 0.47472 0.83032 0.05719 0.0
H636 H 0.50223 0.88744 0.02967 0.0
S637 S 0.43777 0.9351 0.14582 0.0
N638 N 0.43198 0.89047 0.14231 0.0
N639 N 0.46215 0.95257 0.11305 0.0
C640 C 0.46671 0.92181 0.09751 0.0
C641 C 0.45045 0.88804 0.11357 0.0
C642 C 0.12403 0.1705 0.63621 0.0
C643 C 0.09579 0.18601 0.64684 0.0
C644 C 0.12135 0.14052 0.6163 0.0
C645 C 0.0903 0.12474 0.60609 0.0
H646 H 0.14847 0.18144 0.64362 0.0
H647 H 0.14391 0.12959 0.60901 0.0
S648 S 1.00872 0.15619 0.62617 0.0
N649 N 0.03584 0.18419 0.64491 0.0
N650 N 0.03059 0.1276 0.60778 0.0
C651 C 0.06179 0.14012 0.61647 0.0
C652 C 0.06458 0.17073 0.63679 0.0
C653 C 0.60566 0.35258 0.43744 0.0
C654 C 0.62375 0.33025 0.4594 0.0
C655 C 0.5911 0.38227 0.44929 0.0
C656 C 0.59431 0.3907 0.48344 0.0
H657 H 0.60395 0.34808 0.41059 0.0
H658 H 0.57878 0.3998 0.43117 0.0
S659 S 0.63472 0.33749 0.55232 0.0
N660 N 0.64053 0.31608 0.51779 0.0
N661 N 0.61389 0.37222 0.53981 0.0
C662 C 0.61075 0.36743 0.50601 0.0
C663 C 0.6253 0.33713 0.49406 0.0
loop_
_geom_bond_atom_site_label_1
_geom_bond_atom_site_label_2
_geom_bond_distance
_geom_bond_site_symmetry_2
_ccdc_geom_bond_type
C0 C1 1.264 . S
C0 C5 1.479 . S
C0 C10 1.465 . S
C1 C0 1.264 . S
C1 C3 1.339 . S
C1 H28 0.931 . S
C2 C3 1.395 . S
C2 C4 1.320 . S
C3 C1 1.339 . S
C3 C2 1.395 . S
C3 H29 0.929 . S
C4 C2 1.320 . S
C4 C5 1.405 . S
C4 H30 0.930 . S
C5 C0 1.479 . S
C5 C4 1.405 . S
C5 H31 0.931 . S
U6 O7 2.454 . S
U6 O8 2.458 . S
U6 C9 2.984 . S
U6 C10 2.847 . S
U6 C23 2.882 . S
U6 O24 2.441 . S
U6 O25 2.420 . S
U6 O26 2.455 . S
U6 O27 2.449 . S
O7 U6 2.454 . S
O7 C9 1.353 . S
O8 U6 2.458 . S
O8 C9 1.286 . S
C9 U6 2.984 . S
C9 O7 1.353 . S
C9 O8 1.286 . S
C9 C11 1.363 . S
C10 C0 1.465 . S
C10 U6 2.847 . S
C10 O24 1.249 . S
C10 O25 1.202 . S
C11 C9 1.363 . S
C11 C13 1.408 . S
C11 C16 1.342 . S
C12 C13 1.310 . S
C12 C15 1.461 . S
C12 H32 0.932 . S
C13 C11 1.408 . S
C13 C12 1.310 . S
C13 H33 0.930 . S
C14 C15 1.474 . S
C14 C16 1.285 . S
C14 H34 0.929 . S
C15 C12 1.461 . S
C15 C14 1.474 . S
C16 C11 1.342 . S
C16 C14 1.285 . S
C16 H35 0.930 . S
C17 C20 1.424 . S
C17 C22 1.245 . S
C17 C23 1.428 . S
C18 C21 1.260 . S
C18 C22 1.477 . S
C18 H36 0.932 . S
C19 C20 1.384 . S
C19 C21 1.479 . S
C19 H37 0.929 . S
C20 C17 1.424 . S
C20 C19 1.384 . S
C20 H38 0.928 . S
C21 C18 1.260 . S
C21 C19 1.479 . S
C22 C17 1.245 . S
C22 C18 1.477 . S
C22 H39 0.932 . S
C23 U6 2.882 . S
C23 C17 1.428 . S
C23 O26 1.301 . S
C23 O27 1.282 . S
O24 U6 2.441 . S
O24 C10 1.249 . S
O25 U6 2.420 . S
O25 C10 1.202 . S
O26 U6 2.455 . S
O26 C23 1.301 . S
O27 U6 2.449 . S
O27 C23 1.282 . S
H28 C1 0.931 . S
H29 C3 0.929 . S
H30 C4 0.930 . S
H31 C5 0.931 . S
H32 C12 0.932 . S
H33 C13 0.930 . S
H34 C14 0.929 . S
H35 C16 0.930 . S
H36 C18 0.932 . S
H37 C19 0.929 . S
H38 C20 0.928 . S
H39 C22 0.932 . S
C40 C41 1.264 . S
C40 C45 1.479 . S
C40 C50 1.465 . S
C41 C40 1.264 . S
C41 C43 1.339 . S
C41 H68 0.931 . S
C42 C43 1.395 . S
C42 C44 1.320 . S
C43 C41 1.339 . S
C43 C42 1.395 . S
C43 H69 0.929 . S
C44 C42 1.320 . S
C44 C45 1.405 . S
C44 H70 0.930 . S
C45 C40 1.479 . S
C45 C44 1.405 . S
C45 H71 0.931 . S
U46 O47 2.454 . S
U46 O48 2.458 . S
U46 C49 2.984 . S
U46 C50 2.847 . S
U46 C63 2.882 . S
U46 O64 2.441 . S
U46 O65 2.420 . S
U46 O66 2.455 . S
U46 O67 2.449 . S
O47 U46 2.454 . S
O47 C49 1.353 . S
O48 U46 2.458 . S
O48 C49 1.286 . S
C49 U46 2.984 . S
C49 O47 1.353 . S
C49 O48 1.286 . S
C49 C51 1.363 . S
C50 C40 1.465 . S
C50 U46 2.847 . S
C50 O64 1.249 . S
C50 O65 1.202 . S
C51 C49 1.363 . S
C51 C53 1.408 . S
C51 C56 1.342 . S
C52 C53 1.310 . S
C52 C55 1.461 . S
C52 H72 0.932 . S
C53 C51 1.408 . S
C53 C52 1.310 . S
C53 H73 0.930 . S
C54 C55 1.474 . S
C54 C56 1.285 . S
C54 H74 0.929 . S
C55 C52 1.461 . S
C55 C54 1.474 . S
C56 C51 1.342 . S
C56 C54 1.285 . S
C56 H75 0.930 . S
C57 C60 1.424 . S
C57 C62 1.245 . S
C57 C63 1.428 . S
C58 C61 1.260 . S
C58 C62 1.477 . S
C58 H76 0.932 . S
C59 C60 1.384 . S
C59 C61 1.479 . S
C59 H77 0.929 . S
C60 C57 1.424 . S
C60 C59 1.384 . S
C60 H78 0.928 . S
C61 C58 1.260 . S
C61 C59 1.479 . S
C62 C57 1.245 . S
C62 C58 1.477 . S
C62 H79 0.932 . S
C63 U46 2.882 . S
C63 C57 1.428 . S
C63 O66 1.301 . S
C63 O67 1.282 . S
O64 U46 2.441 . S
O64 C50 1.249 . S
O65 U46 2.420 . S
O65 C50 1.202 . S
O66 U46 2.455 . S
O66 C63 1.301 . S
O67 U46 2.449 . S
O67 C63 1.282 . S
H68 C41 0.931 . S
H69 C43 0.929 . S
H70 C44 0.930 . S
H71 C45 0.931 . S
H72 C52 0.932 . S
H73 C53 0.930 . S
H74 C54 0.929 . S
H75 C56 0.930 . S
H76 C58 0.932 . S
H77 C59 0.929 . S
H78 C60 0.928 . S
H79 C62 0.932 . S
C80 C81 1.264 . S
C80 C85 1.479 . S
C80 C90 1.465 . S
C81 C80 1.264 . S
C81 C83 1.339 . S
C81 H108 0.931 . S
C82 C83 1.395 . S
C82 C84 1.320 . S
C83 C81 1.339 . S
C83 C82 1.395 . S
C83 H109 0.929 . S
C84 C82 1.320 . S
C84 C85 1.405 . S
C84 H110 0.930 . S
C85 C80 1.479 . S
C85 C84 1.405 . S
C85 H111 0.931 . S
U86 O87 2.454 . S
U86 O88 2.458 . S
U86 C89 2.984 . S
U86 C90 2.847 . S
U86 C103 2.882 . S
U86 O104 2.441 . S
U86 O105 2.420 . S
U86 O106 2.455 . S
U86 O107 2.449 . S
O87 U86 2.454 . S
O87 C89 1.353 . S
O88 U86 2.458 . S
O88 C89 1.286 . S
C89 U86 2.984 . S
C89 O87 1.353 . S
C89 O88 1.286 . S
C89 C91 1.363 . S
C90 C80 1.465 . S
C90 U86 2.847 . S
C90 O104 1.249 . S
C90 O105 1.202 . S
C91 C89 1.363 . S
C91 C93 1.408 . S
C91 C96 1.342 . S
C92 C93 1.310 . S
C92 C95 1.461 . S
C92 H112 0.932 . S
C93 C91 1.408 . S
C93 C92 1.310 . S
C93 H113 0.930 . S
C94 C95 1.474 . S
C94 C96 1.285 . S
C94 H114 0.929 . S
C95 C92 1.461 . S
C95 C94 1.474 . S
C96 C91 1.342 . S
C96 C94 1.285 . S
C96 H115 0.930 . S
C97 C100 1.424 . S
C97 C102 1.245 . S
C97 C103 1.428 . S
C98 C101 1.260 . S
C98 C102 1.477 . S
C98 H116 0.932 . S
C99 C100 1.384 . S
C99 C101 1.479 . S
C99 H117 0.929 . S
C100 C97 1.424 . S
C100 C99 1.384 . S
C100 H118 0.928 . S
C101 C98 1.260 . S
C101 C99 1.479 . S
C102 C97 1.245 . S
C102 C98 1.477 . S
C102 H119 0.932 . S
C103 U86 2.882 . S
C103 C97 1.428 . S
C103 O106 1.301 . S
C103 O107 1.282 . S
O104 U86 2.441 . S
O104 C90 1.249 . S
O105 U86 2.420 . S
O105 C90 1.202 . S
O106 U86 2.455 . S
O106 C103 1.301 . S
O107 U86 2.449 . S
O107 C103 1.282 . S
H108 C81 0.931 . S
H109 C83 0.929 . S
H110 C84 0.930 . S
H111 C85 0.931 . S
H112 C92 0.932 . S
H113 C93 0.930 . S
H114 C94 0.929 . S
H115 C96 0.930 . S
H116 C98 0.932 . S
H117 C99 0.929 . S
H118 C100 0.928 . S
H119 C102 0.932 . S
C120 C121 1.264 . S
C120 C125 1.479 . S
C120 C130 1.465 . S
C121 C120 1.264 . S
C121 C123 1.339 . S
C121 H148 0.931 . S
C122 C123 1.395 . S
C122 C124 1.320 . S
C123 C121 1.339 . S
C123 C122 1.395 . S
C123 H149 0.929 . S
C124 C122 1.320 . S
C124 C125 1.405 . S
C124 H150 0.930 . S
C125 C120 1.479 . S
C125 C124 1.405 . S
C125 H151 0.931 . S
U126 O127 2.454 . S
U126 O128 2.458 . S
U126 C129 2.984 . S
U126 C130 2.847 . S
U126 C143 2.882 . S
U126 O144 2.441 . S
U126 O145 2.420 . S
U126 O146 2.455 . S
U126 O147 2.449 . S
O127 U126 2.454 . S
O127 C129 1.353 . S
O128 U126 2.458 . S
O128 C129 1.286 . S
C129 U126 2.984 . S
C129 O127 1.353 . S
C129 O128 1.286 . S
C129 C131 1.363 . S
C130 C120 1.465 . S
C130 U126 2.847 . S
C130 O144 1.249 . S
C130 O145 1.202 . S
C131 C129 1.363 . S
C131 C133 1.408 . S
C131 C136 1.342 . S
C132 C133 1.310 . S
C132 C135 1.461 . S
C132 H152 0.932 . S
C133 C131 1.408 . S
C133 C132 1.310 . S
C133 H153 0.930 . S
C134 C135 1.474 . S
C134 C136 1.285 . S
C134 H154 0.929 . S
C135 C132 1.461 . S
C135 C134 1.474 . S
C136 C131 1.342 . S
C136 C134 1.285 . S
C136 H155 0.930 . S
C137 C140 1.424 . S
C137 C142 1.245 . S
C137 C143 1.428 . S
C138 C141 1.260 . S
C138 C142 1.477 . S
C138 H156 0.932 . S
C139 C140 1.384 . S
C139 C141 1.479 . S
C139 H157 0.929 . S
C140 C137 1.424 . S
C140 C139 1.384 . S
C140 H158 0.928 . S
C141 C138 1.260 . S
C141 C139 1.479 . S
C142 C137 1.245 . S
C142 C138 1.477 . S
C142 H159 0.932 . S
C143 U126 2.882 . S
C143 C137 1.428 . S
C143 O146 1.301 . S
C143 O147 1.282 . S
O144 U126 2.441 . S
O144 C130 1.249 . S
O145 U126 2.420 . S
O145 C130 1.202 . S
O146 U126 2.455 . S
O146 C143 1.301 . S
O147 U126 2.449 . S
O147 C143 1.282 . S
H148 C121 0.931 . S
H149 C123 0.929 . S
H150 C124 0.930 . S
H151 C125 0.931 . S
H152 C132 0.932 . S
H153 C133 0.930 . S
H154 C134 0.929 . S
H155 C136 0.930 . S
H156 C138 0.932 . S
H157 C139 0.929 . S
H158 C140 0.928 . S
H159 C142 0.932 . S
C160 C161 1.264 . S
C160 C165 1.479 . S
C160 C170 1.465 . S
C161 C160 1.264 . S
C161 C163 1.339 . S
C161 H188 0.931 . S
C162 C163 1.395 . S
C162 C164 1.320 . S
C163 C161 1.339 . S
C163 C162 1.395 . S
C163 H189 0.929 . S
C164 C162 1.320 . S
C164 C165 1.405 . S
C164 H190 0.930 . S
C165 C160 1.479 . S
C165 C164 1.405 . S
C165 H191 0.931 . S
U166 O167 2.454 . S
U166 O168 2.458 . S
U166 C169 2.984 . S
U166 C170 2.847 . S
U166 C183 2.882 . S
U166 O184 2.441 . S
U166 O185 2.420 . S
U166 O186 2.455 . S
U166 O187 2.449 . S
O167 U166 2.454 . S
O167 C169 1.353 . S
O168 U166 2.458 . S
O168 C169 1.286 . S
C169 U166 2.984 . S
C169 O167 1.353 . S
C169 O168 1.286 . S
C169 C171 1.363 . S
C170 C160 1.465 . S
C170 U166 2.847 . S
C170 O184 1.249 . S
C170 O185 1.202 . S
C171 C169 1.363 . S
C171 C173 1.408 . S
C171 C176 1.342 . S
C172 C173 1.310 . S
C172 C175 1.461 . S
C172 H192 0.932 . S
C173 C171 1.408 . S
C173 C172 1.310 . S
C173 H193 0.930 . S
C174 C175 1.474 . S
C174 C176 1.285 . S
C174 H194 0.929 . S
C175 C172 1.461 . S
C175 C174 1.474 . S
C176 C171 1.342 . S
C176 C174 1.285 . S
C176 H195 0.930 . S
C177 C180 1.424 . S
C177 C182 1.245 . S
C177 C183 1.428 . S
C178 C181 1.260 . S
C178 C182 1.477 . S
C178 H196 0.932 . S
C179 C180 1.384 . S
C179 C181 1.479 . S
C179 H197 0.929 . S
C180 C177 1.424 . S
C180 C179 1.384 . S
C180 H198 0.928 . S
C181 C178 1.260 . S
C181 C179 1.479 . S
C182 C177 1.245 . S
C182 C178 1.477 . S
C182 H199 0.932 . S
C183 U166 2.882 . S
C183 C177 1.428 . S
C183 O186 1.301 . S
C183 O187 1.282 . S
O184 U166 2.441 . S
O184 C170 1.249 . S
O185 U166 2.420 . S
O185 C170 1.202 . S
O186 U166 2.455 . S
O186 C183 1.301 . S
O187 U166 2.449 . S
O187 C183 1.282 . S
H188 C161 0.931 . S
H189 C163 0.929 . S
H190 C164 0.930 . S
H191 C165 0.931 . S
H192 C172 0.932 . S
H193 C173 0.930 . S
H194 C174 0.929 . S
H195 C176 0.930 . S
H196 C178 0.932 . S
H197 C179 0.929 . S
H198 C180 0.928 . S
H199 C182 0.932 . S
C200 C201 1.264 . S
C200 C205 1.479 . S
C200 C210 1.465 . S
C201 C200 1.264 . S
C201 C203 1.339 . S
C201 H228 0.931 . S
C202 C203 1.395 . S
C202 C204 1.320 . S
C203 C201 1.339 . S
C203 C202 1.395 . S
C203 H229 0.929 . S
C204 C202 1.320 . S
C204 C205 1.405 . S
C204 H230 0.930 . S
C205 C200 1.479 . S
C205 C204 1.405 . S
C205 H231 0.931 . S
U206 O207 2.454 . S
U206 O208 2.458 . S
U206 C209 2.984 . S
U206 C210 2.847 . S
U206 C223 2.882 . S
U206 O224 2.441 . S
U206 O225 2.420 . S
U206 O226 2.455 . S
U206 O227 2.449 . S
O207 U206 2.454 . S
O207 C209 1.353 . S
O208 U206 2.458 . S
O208 C209 1.286 . S
C209 U206 2.984 . S
C209 O207 1.353 . S
C209 O208 1.286 . S
C209 C211 1.363 . S
C210 C200 1.465 . S
C210 U206 2.847 . S
C210 O224 1.249 . S
C210 O225 1.202 . S
C211 C209 1.363 . S
C211 C213 1.408 . S
C211 C216 1.342 . S
C212 C213 1.310 . S
C212 C215 1.461 . S
C212 H232 0.932 . S
C213 C211 1.408 . S
C213 C212 1.310 . S
C213 H233 0.930 . S
C214 C215 1.474 . S
C214 C216 1.285 . S
C214 H234 0.929 . S
C215 C212 1.461 . S
C215 C214 1.474 . S
C216 C211 1.342 . S
C216 C214 1.285 . S
C216 H235 0.930 . S
C217 C220 1.424 . S
C217 C222 1.245 . S
C217 C223 1.428 . S
C218 C221 1.260 . S
C218 C222 1.477 . S
C218 H236 0.932 . S
C219 C220 1.384 . S
C219 C221 1.479 . S
C219 H237 0.929 . S
C220 C217 1.424 . S
C220 C219 1.384 . S
C220 H238 0.928 . S
C221 C218 1.260 . S
C221 C219 1.479 . S
C222 C217 1.245 . S
C222 C218 1.477 . S
C222 H239 0.932 . S
C223 U206 2.882 . S
C223 C217 1.428 . S
C223 O226 1.301 . S
C223 O227 1.282 . S
O224 U206 2.441 . S
O224 C210 1.249 . S
O225 U206 2.420 . S
O225 C210 1.202 . S
O226 U206 2.455 . S
O226 C223 1.301 . S
O227 U206 2.449 . S
O227 C223 1.282 . S
H228 C201 0.931 . S
H229 C203 0.929 . S
H230 C204 0.930 . S
H231 C205 0.931 . S
H232 C212 0.932 . S
H233 C213 0.930 . S
H234 C214 0.929 . S
H235 C216 0.930 . S
H236 C218 0.932 . S
H237 C219 0.929 . S
H238 C220 0.928 . S
H239 C222 0.932 . S
C240 C241 1.264 . S
C240 C245 1.479 . S
C240 C250 1.465 . S
C241 C240 1.264 . S
C241 C243 1.339 . S
C241 H268 0.931 . S
C242 C243 1.395 . S
C242 C244 1.320 . S
C243 C241 1.339 . S
C243 C242 1.395 . S
C243 H269 0.929 . S
C244 C242 1.320 . S
C244 C245 1.405 . S
C244 H270 0.930 . S
C245 C240 1.479 . S
C245 C244 1.405 . S
C245 H271 0.931 . S
U246 O247 2.454 . S
U246 O248 2.458 . S
U246 C249 2.984 . S
U246 C250 2.847 . S
U246 C263 2.882 . S
U246 O264 2.441 . S
U246 O265 2.420 . S
U246 O266 2.455 . S
U246 O267 2.449 . S
O247 U246 2.454 . S
O247 C249 1.353 . S
O248 U246 2.458 . S
O248 C249 1.286 . S
C249 U246 2.984 . S
C249 O247 1.353 . S
C249 O248 1.286 . S
C249 C251 1.363 . S
C250 C240 1.465 . S
C250 U246 2.847 . S
C250 O264 1.249 . S
C250 O265 1.202 . S
C251 C249 1.363 . S
C251 C253 1.408 . S
C251 C256 1.342 . S
C252 C253 1.310 . S
C252 C255 1.461 . S
C252 H272 0.932 . S
C253 C251 1.408 . S
C253 C252 1.310 . S
C253 H273 0.930 . S
C254 C255 1.474 . S
C254 C256 1.285 . S
C254 H274 0.929 . S
C255 C252 1.461 . S
C255 C254 1.474 . S
C256 C251 1.342 . S
C256 C254 1.285 . S
C256 H275 0.930 . S
C257 C260 1.424 . S
C257 C262 1.245 . S
C257 C263 1.428 . S
C258 C261 1.260 . S
C258 C262 1.477 . S
C258 H276 0.932 . S
C259 C260 1.384 . S
C259 C261 1.479 . S
C259 H277 0.929 . S
C260 C257 1.424 . S
C260 C259 1.384 . S
C260 H278 0.928 . S
C261 C258 1.260 . S
C261 C259 1.479 . S
C262 C257 1.245 . S
C262 C258 1.477 . S
C262 H279 0.932 . S
C263 U246 2.882 . S
C263 C257 1.428 . S
C263 O266 1.301 . S
C263 O267 1.282 . S
O264 U246 2.441 . S
O264 C250 1.249 . S
O265 U246 2.420 . S
O265 C250 1.202 . S
O266 U246 2.455 . S
O266 C263 1.301 . S
O267 U246 2.449 . S
O267 C263 1.282 . S
H268 C241 0.931 . S
H269 C243 0.929 . S
H270 C244 0.930 . S
H271 C245 0.931 . S
H272 C252 0.932 . S
H273 C253 0.930 . S
H274 C254 0.929 . S
H275 C256 0.930 . S
H276 C258 0.932 . S
H277 C259 0.929 . S
H278 C260 0.928 . S
H279 C262 0.932 . S
C280 C281 1.264 . S
C280 C285 1.479 . S
C280 C290 1.465 . S
C281 C280 1.264 . S
C281 C283 1.339 . S
C281 H308 0.931 . S
C282 C283 1.395 . S
C282 C284 1.320 . S
C283 C281 1.339 . S
C283 C282 1.395 . S
C283 H309 0.929 . S
C284 C282 1.320 . S
C284 C285 1.405 . S
C284 H310 0.930 . S
C285 C280 1.479 . S
C285 C284 1.405 . S
C285 H311 0.931 . S
U286 O287 2.454 . S
U286 O288 2.458 . S
U286 C289 2.984 . S
U286 C290 2.847 . S
U286 C303 2.882 . S
U286 O304 2.441 . S
U286 O305 2.420 . S
U286 O306 2.455 . S
U286 O307 2.449 . S
O287 U286 2.454 . S
O287 C289 1.353 . S
O288 U286 2.458 . S
O288 C289 1.286 . S
C289 U286 2.984 . S
C289 O287 1.353 . S
C289 O288 1.286 . S
C289 C291 1.363 . S
C290 C280 1.465 . S
C290 U286 2.847 . S
C290 O304 1.249 . S
C290 O305 1.202 . S
C291 C289 1.363 . S
C291 C293 1.408 . S
C291 C296 1.342 . S
C292 C293 1.310 . S
C292 C295 1.461 . S
C292 H312 0.932 . S
C293 C291 1.408 . S
C293 C292 1.310 . S
C293 H313 0.930 . S
C294 C295 1.474 . S
C294 C296 1.285 . S
C294 H314 0.929 . S
C295 C292 1.461 . S
C295 C294 1.474 . S
C296 C291 1.342 . S
C296 C294 1.285 . S
C296 H315 0.930 . S
C297 C300 1.424 . S
C297 C302 1.245 . S
C297 C303 1.428 . S
C298 C301 1.260 . S
C298 C302 1.477 . S
C298 H316 0.932 . S
C299 C300 1.384 . S
C299 C301 1.479 . S
C299 H317 0.929 . S
C300 C297 1.424 . S
C300 C299 1.384 . S
C300 H318 0.928 . S
C301 C298 1.260 . S
C301 C299 1.479 . S
C302 C297 1.245 . S
C302 C298 1.477 . S
C302 H319 0.932 . S
C303 U286 2.882 . S
C303 C297 1.428 . S
C303 O306 1.301 . S
C303 O307 1.282 . S
O304 U286 2.441 . S
O304 C290 1.249 . S
O305 U286 2.420 . S
O305 C290 1.202 . S
O306 U286 2.455 . S
O306 C303 1.301 . S
O307 U286 2.449 . S
O307 C303 1.282 . S
H308 C281 0.931 . S
H309 C283 0.929 . S
H310 C284 0.930 . S
H311 C285 0.931 . S
H312 C292 0.932 . S
H313 C293 0.930 . S
H314 C294 0.929 . S
H315 C296 0.930 . S
H316 C298 0.932 . S
H317 C299 0.929 . S
H318 C300 0.928 . S
H319 C302 0.932 . S
Zn320 O326 1.969 1_545 S
Zn320 O327 1.965 1_545 S
Zn320 O331 2.024 . S
Zn320 O336 1.969 . S
Zn321 O328 1.969 . S
Zn321 O334 1.969 1_565 S
Zn321 O335 1.965 1_665 S
Zn321 O337 2.024 . S
C322 O323 1.229 . S
C322 O331 1.058 . S
O323 C322 1.229 . S
C324 O325 1.229 . S
C324 O337 1.058 . S
O325 C324 1.229 . S
O326 Zn320 1.969 1_565 S
O326 C329 1.267 . S
O327 Zn320 1.965 1_565 S
O327 C338 1.260 1_455 S
O328 Zn321 1.969 . S
O328 C338 1.258 . S
C329 O326 1.267 . S
C329 O330 1.228 . S
O330 C329 1.228 . S
O331 Zn320 2.024 . S
O331 C322 1.058 . S
C332 O333 1.228 . S
C332 O334 1.267 . S
O333 C332 1.228 . S
O334 Zn321 1.969 1_545 S
O334 C332 1.267 . S
O335 Zn321 1.965 1_445 S
O335 C339 1.260 . S
O336 Zn320 1.969 . S
O336 C339 1.258 . S
O337 Zn321 2.024 . S
O337 C324 1.058 . S
C338 O327 1.260 1_655 S
C338 O328 1.258 . S
C339 O335 1.260 . S
C339 O336 1.258 . S
Zn340 O346 1.969 . S
Zn340 O347 1.965 1_565 S
Zn340 O351 2.024 . S
Zn340 O356 1.969 1_556 S
Zn341 O348 1.969 . S
Zn341 O354 1.969 . S
Zn341 O355 1.965 1_545 S
Zn341 O357 2.024 . S
C342 O343 1.229 . S
C342 O351 1.058 . S
O343 C342 1.229 . S
C344 O345 1.229 . S
C344 O357 1.058 . S
O345 C344 1.229 . S
O346 Zn340 1.969 . S
O346 C349 1.267 . S
O347 Zn340 1.965 1_545 S
O347 C358 1.260 . S
O348 Zn341 1.969 . S
O348 C358 1.258 1_554 S
C349 O346 1.267 . S
C349 O350 1.228 . S
O350 C349 1.228 . S
O351 Zn340 2.024 . S
O351 C342 1.058 . S
C352 O353 1.228 . S
C352 O354 1.267 . S
O353 C352 1.228 . S
O354 Zn341 1.969 . S
O354 C352 1.267 . S
O355 Zn341 1.965 1_565 S
O355 C359 1.260 . S
O356 Zn340 1.969 1_554 S
O356 C359 1.258 . S
O357 Zn341 2.024 . S
O357 C344 1.058 . S
C358 O347 1.260 . S
C358 O348 1.258 1_556 S
C359 O355 1.260 . S
C359 O356 1.258 . S
Zn360 O366 1.969 . S
Zn360 O367 1.965 . S
Zn360 O371 2.024 . S
Zn360 O376 1.969 . S
Zn361 O368 1.969 . S
Zn361 O374 1.969 . S
Zn361 O375 1.965 . S
Zn361 O377 2.024 . S
C362 O363 1.229 . S
C362 O371 1.058 . S
O363 C362 1.229 . S
C364 O365 1.229 . S
C364 O377 1.058 . S
O365 C364 1.229 . S
O366 Zn360 1.969 . S
O366 C369 1.267 . S
O367 Zn360 1.965 . S
O367 C378 1.260 . S
O368 Zn361 1.969 . S
O368 C378 1.258 . S
C369 O366 1.267 . S
C369 O370 1.228 . S
O370 C369 1.228 . S
O371 Zn360 2.024 . S
O371 C362 1.058 . S
C372 O373 1.228 . S
C372 O374 1.267 . S
O373 C372 1.228 . S
O374 Zn361 1.969 . S
O374 C372 1.267 . S
O375 Zn361 1.965 . S
O375 C379 1.260 . S
O376 Zn360 1.969 . S
O376 C379 1.258 . S
O377 Zn361 2.024 . S
O377 C364 1.058 . S
C378 O367 1.260 . S
C378 O368 1.258 . S
C379 O375 1.260 . S
C379 O376 1.258 . S
Zn380 O386 1.969 . S
Zn380 O387 1.965 1_556 S
Zn380 O391 2.024 . S
Zn380 O396 1.969 1_655 S
Zn381 O388 1.969 . S
Zn381 O394 1.969 . S
Zn381 O395 1.965 1_554 S
Zn381 O397 2.024 . S
C382 O383 1.229 . S
C382 O391 1.058 . S
O383 C382 1.229 . S
C384 O385 1.229 . S
C384 O397 1.058 . S
O385 C384 1.229 . S
O386 Zn380 1.969 . S
O386 C389 1.267 . S
O387 Zn380 1.965 1_554 S
O387 C398 1.260 . S
O388 Zn381 1.969 . S
O388 C398 1.258 1_455 S
C389 O386 1.267 . S
C389 O390 1.228 . S
O390 C389 1.228 . S
O391 Zn380 2.024 . S
O391 C382 1.058 . S
C392 O393 1.228 . S
C392 O394 1.267 . S
O393 C392 1.228 . S
O394 Zn381 1.969 . S
O394 C392 1.267 . S
O395 Zn381 1.965 1_556 S
O395 C399 1.260 . S
O396 Zn380 1.969 1_455 S
O396 C399 1.258 . S
O397 Zn381 2.024 . S
O397 C384 1.058 . S
C398 O387 1.260 . S
C398 O388 1.258 1_655 S
C399 O395 1.260 . S
C399 O396 1.258 . S
C400 C401 1.369 . S
C400 C402 1.419 . S
C400 H404 0.930 . S
C401 C400 1.369 . S
C401 C410 1.429 . S
C402 C400 1.419 . S
C402 C403 1.363 . S
C402 H405 0.929 . S
C403 C402 1.363 . S
C403 C409 1.428 . S
H404 C400 0.930 . S
H405 C402 0.929 . S
S406 N407 1.633 . S
S406 N408 1.616 . S
N407 S406 1.633 . S
N407 C410 1.350 . S
N408 S406 1.616 . S
N408 C409 1.351 . S
C409 C403 1.428 . S
C409 N408 1.351 . S
C409 C410 1.434 . S
C410 C401 1.429 . S
C410 N407 1.350 . S
C410 C409 1.434 . S
C411 C412 1.369 . S
C411 C413 1.419 . S
C411 H415 0.930 . S
C412 C411 1.369 . S
C412 C421 1.429 . S
C413 C411 1.419 . S
C413 C414 1.363 . S
C413 H416 0.929 . S
C414 C413 1.363 . S
C414 C420 1.428 . S
H415 C411 0.930 . S
H416 C413 0.929 . S
S417 N418 1.613 1_545 S
S417 N419 1.610 1_545 S
N418 S417 1.613 1_565 S
N418 C421 1.350 . S
N419 S417 1.610 1_565 S
N419 C420 1.351 . S
C420 C414 1.428 . S
C420 N419 1.351 . S
C420 C421 1.434 . S
C421 C412 1.429 . S
C421 N418 1.350 . S
C421 C420 1.434 . S
C422 C423 1.369 . S
C422 C424 1.419 . S
C422 H426 0.930 . S
C423 C422 1.369 . S
C423 C432 1.429 . S
C424 C422 1.419 . S
C424 C425 1.363 . S
C424 H427 0.929 . S
C425 C424 1.363 . S
C425 C431 1.428 . S
H426 C422 0.930 . S
H427 C424 0.929 . S
S428 N429 1.613 . S
S428 N430 1.610 . S
N429 S428 1.613 . S
N429 C432 1.350 . S
N430 S428 1.610 . S
N430 C431 1.351 . S
C431 C425 1.428 . S
C431 N430 1.351 . S
C431 C432 1.434 . S
C432 C423 1.429 . S
C432 N429 1.350 . S
C432 C431 1.434 . S
C433 C434 1.369 . S
C433 C435 1.419 . S
C433 H437 0.930 . S
C434 C433 1.369 . S
C434 C443 1.429 . S
C435 C433 1.419 . S
C435 C436 1.363 . S
C435 H438 0.929 . S
C436 C435 1.363 . S
C436 C442 1.428 . S
H437 C433 0.930 . S
H438 C435 0.929 . S
S439 N440 1.613 . S
S439 N441 1.610 . S
N440 S439 1.613 . S
N440 C443 1.350 . S
N441 S439 1.610 . S
N441 C442 1.351 . S
C442 C436 1.428 . S
C442 N441 1.351 . S
C442 C443 1.434 . S
C443 C434 1.429 . S
C443 N440 1.350 . S
C443 C442 1.434 . S
C444 C445 1.369 . S
C444 C446 1.419 . S
C444 H448 0.930 . S
C445 C444 1.369 . S
C445 C454 1.429 . S
C446 C444 1.419 . S
C446 C447 1.363 . S
C446 H449 0.929 . S
C447 C446 1.363 . S
C447 C453 1.428 . S
H448 C444 0.930 . S
H449 C446 0.929 . S
S450 N451 1.613 . S
S450 N452 1.610 . S
N451 S450 1.613 . S
N451 C454 1.350 . S
N452 S450 1.610 . S
N452 C453 1.351 . S
C453 C447 1.428 . S
C453 N452 1.351 . S
C453 C454 1.434 . S
C454 C445 1.429 . S
C454 N451 1.350 . S
C454 C453 1.434 . S
C455 C456 1.369 . S
C455 C457 1.419 . S
C455 H459 0.930 . S
C456 C455 1.369 . S
C456 C465 1.429 . S
C457 C455 1.419 . S
C457 C458 1.363 . S
C457 H460 0.929 . S
C458 C457 1.363 . S
C458 C464 1.428 . S
H459 C455 0.930 . S
H460 C457 0.929 . S
S461 N462 1.613 . S
S461 N463 1.610 . S
N462 S461 1.613 . S
N462 C465 1.350 . S
N463 S461 1.610 . S
N463 C464 1.351 . S
C464 C458 1.428 . S
C464 N463 1.351 . S
C464 C465 1.434 . S
C465 C456 1.429 . S
C465 N462 1.350 . S
C465 C464 1.434 . S
C466 C467 1.369 . S
C466 C468 1.419 . S
C466 H470 0.930 . S
C467 C466 1.369 . S
C467 C476 1.429 . S
C468 C466 1.419 . S
C468 C469 1.363 . S
C468 H471 0.929 . S
C469 C468 1.363 . S
C469 C475 1.428 . S
H470 C466 0.930 . S
H471 C468 0.929 . S
S472 N473 1.613 . S
S472 N474 1.610 . S
N473 S472 1.613 . S
N473 C476 1.350 . S
N474 S472 1.610 . S
N474 C475 1.351 . S
C475 C469 1.428 . S
C475 N474 1.351 . S
C475 C476 1.434 . S
C476 C467 1.429 . S
C476 N473 1.350 . S
C476 C475 1.434 . S
C477 C478 1.369 . S
C477 C479 1.419 . S
C477 H481 0.930 . S
C478 C477 1.369 . S
C478 C487 1.429 . S
C479 C477 1.419 . S
C479 C480 1.363 . S
C479 H482 0.929 . S
C480 C479 1.363 . S
C480 C486 1.428 . S
H481 C477 0.930 . S
H482 C479 0.929 . S
S483 N484 1.613 . S
S483 N485 1.610 . S
N484 S483 1.613 . S
N484 C487 1.350 . S
N485 S483 1.610 . S
N485 C486 1.351 . S
C486 C480 1.428 . S
C486 N485 1.351 . S
C486 C487 1.434 . S
C487 C478 1.429 . S
C487 N484 1.350 . S
C487 C486 1.434 . S
C488 C489 1.369 . S
C488 C490 1.419 . S
C488 H492 0.930 . S
C489 C488 1.369 . S
C489 C498 1.429 . S
C490 C488 1.419 . S
C490 C491 1.363 . S
C490 H493 0.929 . S
C491 C490 1.363 . S
C491 C497 1.428 . S
H492 C488 0.930 . S
H493 C490 0.929 . S
S494 N495 1.613 . S
S494 N496 1.610 . S
N495 S494 1.613 . S
N495 C498 1.350 . S
N496 S494 1.610 . S
N496 C497 1.351 . S
C497 C491 1.428 . S
C497 N496 1.351 . S
C497 C498 1.434 . S
C498 C489 1.429 . S
C498 N495 1.350 . S
C498 C497 1.434 . S
C499 C500 1.369 . S
C499 C501 1.419 . S
C499 H503 0.930 . S
C500 C499 1.369 . S
C500 C509 1.429 . S
C501 C499 1.419 . S
C501 C502 1.363 . S
C501 H504 0.929 . S
C502 C501 1.363 . S
C502 C508 1.428 . S
H503 C499 0.930 . S
H504 C501 0.929 . S
S505 N506 1.613 . S
S505 N507 1.610 . S
N506 S505 1.613 . S
N506 C509 1.350 . S
N507 S505 1.610 . S
N507 C508 1.351 . S
C508 C502 1.428 . S
C508 N507 1.351 . S
C508 C509 1.434 . S
C509 C500 1.429 . S
C509 N506 1.350 . S
C509 C508 1.434 . S
C510 C511 1.369 . S
C510 C512 1.419 . S
C510 H514 0.930 . S
C511 C510 1.369 . S
C511 C520 1.429 . S
C512 C510 1.419 . S
C512 C513 1.363 . S
C512 H515 0.929 . S
C513 C512 1.363 . S
C513 C519 1.428 . S
H514 C510 0.930 . S
H515 C512 0.929 . S
S516 N517 1.613 1_455 S
S516 N518 1.610 1_455 S
N517 S516 1.613 1_655 S
N517 C520 1.350 . S
N518 S516 1.610 1_655 S
N518 C519 1.351 . S
C519 C513 1.428 . S
C519 N518 1.351 . S
C519 C520 1.434 . S
C520 C511 1.429 . S
C520 N517 1.350 . S
C520 C519 1.434 . S
C521 C522 1.369 . S
C521 C523 1.419 . S
C521 H525 0.930 . S
C522 C521 1.369 . S
C522 C531 1.429 . S
C523 C521 1.419 . S
C523 C524 1.363 . S
C523 H526 0.929 . S
C524 C523 1.363 . S
C524 C530 1.428 . S
H525 C521 0.930 . S
H526 C523 0.929 . S
S527 N528 1.613 . S
S527 N529 1.610 . S
N528 S527 1.613 . S
N528 C531 1.350 . S
N529 S527 1.610 . S
N529 C530 1.351 . S
C530 C524 1.428 . S
C530 N529 1.351 . S
C530 C531 1.434 . S
C531 C522 1.429 . S
C531 N528 1.350 . S
C531 C530 1.434 . S
C532 C533 1.369 . S
C532 C534 1.419 . S
C532 H536 0.930 . S
C533 C532 1.369 . S
C533 C542 1.429 . S
C534 C532 1.419 . S
C534 C535 1.363 . S
C534 H537 0.929 . S
C535 C534 1.363 . S
C535 C541 1.428 . S
H536 C532 0.930 . S
H537 C534 0.929 . S
S538 N539 1.613 . S
S538 N540 1.610 . S
N539 S538 1.613 . S
N539 C542 1.350 . S
N540 S538 1.610 . S
N540 C541 1.351 . S
C541 C535 1.428 . S
C541 N540 1.351 . S
C541 C542 1.434 . S
C542 C533 1.429 . S
C542 N539 1.350 . S
C542 C541 1.434 . S
C543 C544 1.369 . S
C543 C545 1.419 . S
C543 H547 0.930 . S
C544 C543 1.369 . S
C544 C553 1.429 . S
C545 C543 1.419 . S
C545 C546 1.363 . S
C545 H548 0.929 . S
C546 C545 1.363 . S
C546 C552 1.428 . S
H547 C543 0.930 . S
H548 C545 0.929 . S
S549 N550 1.613 . S
S549 N551 1.610 . S
N550 S549 1.613 . S
N550 C553 1.350 . S
N551 S549 1.610 . S
N551 C552 1.351 . S
C552 C546 1.428 . S
C552 N551 1.351 . S
C552 C553 1.434 . S
C553 C544 1.429 . S
C553 N550 1.350 . S
C553 C552 1.434 . S
C554 C555 1.369 . S
C554 C556 1.419 . S
C554 H558 0.930 . S
C555 C554 1.369 . S
C555 C564 1.429 . S
C556 C554 1.419 . S
C556 C557 1.363 . S
C556 H559 0.929 . S
C557 C556 1.363 . S
C557 C563 1.428 . S
H558 C554 0.930 . S
H559 C556 0.929 . S
S560 N561 1.613 . S
S560 N562 1.610 . S
N561 S560 1.613 . S
N561 C564 1.350 . S
N562 S560 1.610 . S
N562 C563 1.351 . S
C563 C557 1.428 . S
C563 N562 1.351 . S
C563 C564 1.434 . S
C564 C555 1.429 . S
C564 N561 1.350 . S
C564 C563 1.434 . S
C565 C566 1.369 . S
C565 C567 1.419 . S
C565 H569 0.930 . S
C566 C565 1.369 . S
C566 C575 1.429 . S
C567 C565 1.419 . S
C567 C568 1.363 . S
C567 H570 0.929 . S
C568 C567 1.363 . S
C568 C574 1.428 . S
H569 C565 0.930 . S
H570 C567 0.929 . S
S571 N572 1.613 . S
S571 N573 1.610 . S
N572 S571 1.613 . S
N572 C575 1.350 . S
N573 S571 1.610 . S
N573 C574 1.351 . S
C574 C568 1.428 . S
C574 N573 1.351 . S
C574 C575 1.434 . S
C575 C566 1.429 . S
C575 N572 1.350 . S
C575 C574 1.434 . S
C576 C577 1.369 . S
C576 C578 1.419 . S
C576 H580 0.930 . S
C577 C576 1.369 . S
C577 C586 1.429 . S
C578 C576 1.419 . S
C578 C579 1.363 . S
C578 H581 0.929 . S
C579 C578 1.363 . S
C579 C585 1.428 . S
H580 C576 0.930 . S
H581 C578 0.929 . S
S582 N583 1.613 . S
S582 N584 1.610 . S
N583 S582 1.613 . S
N583 C586 1.350 . S
N584 S582 1.610 . S
N584 C585 1.351 . S
C585 C579 1.428 . S
C585 N584 1.351 . S
C585 C586 1.434 . S
C586 C577 1.429 . S
C586 N583 1.350 . S
C586 C585 1.434 . S
C587 C588 1.369 . S
C587 C589 1.419 . S
C587 H591 0.930 . S
C588 C587 1.369 . S
C588 C597 1.429 . S
C589 C587 1.419 . S
C589 C590 1.363 . S
C589 H592 0.929 . S
C590 C589 1.363 . S
C590 C596 1.428 . S
H591 C587 0.930 . S
H592 C589 0.929 . S
S593 N594 1.613 . S
S593 N595 1.610 . S
N594 S593 1.613 . S
N594 C597 1.350 . S
N595 S593 1.610 . S
N595 C596 1.351 . S
C596 C590 1.428 . S
C596 N595 1.351 . S
C596 C597 1.434 . S
C597 C588 1.429 . S
C597 N594 1.350 . S
C597 C596 1.434 . S
C598 C599 1.369 . S
C598 C600 1.419 . S
C598 H602 0.930 . S
C599 C598 1.369 . S
C599 C608 1.429 . S
C600 C598 1.419 . S
C600 C601 1.363 . S
C600 H603 0.929 . S
C601 C600 1.363 . S
C601 C607 1.428 . S
H602 C598 0.930 . S
H603 C600 0.929 . S
S604 N605 1.613 . S
S604 N606 1.610 . S
N605 S604 1.613 . S
N605 C608 1.350 . S
N606 S604 1.610 . S
N606 C607 1.351 . S
C607 C601 1.428 . S
C607 N606 1.351 . S
C607 C608 1.434 . S
C608 C599 1.429 . S
C608 N605 1.350 . S
C608 C607 1.434 . S
C609 C610 1.369 . S
C609 C611 1.419 . S
C609 H613 0.930 . S
C610 C609 1.369 . S
C610 C619 1.429 . S
C611 C609 1.419 . S
C611 C612 1.363 . S
C611 H614 0.929 . S
C612 C611 1.363 . S
C612 C618 1.428 . S
H613 C609 0.930 . S
H614 C611 0.929 . S
S615 N616 1.613 . S
S615 N617 1.610 . S
N616 S615 1.613 . S
N616 C619 1.350 . S
N617 S615 1.610 . S
N617 C618 1.351 . S
C618 C612 1.428 . S
C618 N617 1.351 . S
C618 C619 1.434 . S
C619 C610 1.429 . S
C619 N616 1.350 . S
C619 C618 1.434 . S
C620 C621 1.369 . S
C620 C622 1.419 . S
C620 H624 0.930 . S
C621 C620 1.369 . S
C621 C630 1.429 . S
C622 C620 1.419 . S
C622 C623 1.363 . S
C622 H625 0.929 . S
C623 C622 1.363 . S
C623 C629 1.428 . S
H624 C620 0.930 . S
H625 C622 0.929 . S
S626 N627 1.613 . S
S626 N628 1.610 . S
N627 S626 1.613 . S
N627 C630 1.350 . S
N628 S626 1.610 . S
N628 C629 1.351 . S
C629 C623 1.428 . S
C629 N628 1.351 . S
C629 C630 1.434 . S
C630 C621 1.429 . S
C630 N627 1.350 . S
C630 C629 1.434 . S
C631 C632 1.369 . S
C631 C633 1.419 . S
C631 H635 0.930 . S
C632 C631 1.369 . S
C632 C641 1.429 . S
C633 C631 1.419 . S
C633 C634 1.363 . S
C633 H636 0.929 . S
C634 C633 1.363 . S
C634 C640 1.428 . S
H635 C631 0.930 . S
H636 C633 0.929 . S
S637 N638 1.613 . S
S637 N639 1.610 . S
N638 S637 1.613 . S
N638 C641 1.350 . S
N639 S637 1.610 . S
N639 C640 1.351 . S
C640 C634 1.428 . S
C640 N639 1.351 . S
C640 C641 1.434 . S
C641 C632 1.429 . S
C641 N638 1.350 . S
C641 C640 1.434 . S
C642 C643 1.369 . S
C642 C644 1.419 . S
C642 H646 0.930 . S
C643 C642 1.369 . S
C643 C652 1.429 . S
C644 C642 1.419 . S
C644 C645 1.363 . S
C644 H647 0.929 . S
C645 C644 1.363 . S
C645 C651 1.428 . S
H646 C642 0.930 . S
H647 C644 0.929 . S
S648 N649 1.613 1_655 S
S648 N650 1.610 1_655 S
N649 S648 1.613 1_455 S
N649 C652 1.350 . S
N650 S648 1.610 1_455 S
N650 C651 1.351 . S
C651 C645 1.428 . S
C651 N650 1.351 . S
C651 C652 1.434 . S
C652 C643 1.429 . S
C652 N649 1.350 . S
C652 C651 1.434 . S
C653 C654 1.369 . S
C653 C655 1.419 . S
C653 H657 0.930 . S
C654 C653 1.369 . S
C654 C663 1.429 . S
C655 C653 1.419 . S
C655 C656 1.363 . S
C655 H658 0.929 . S
C656 C655 1.363 . S
C656 C662 1.428 . S
H657 C653 0.930 . S
H658 C655 0.929 . S
S659 N660 1.613 . S
S659 N661 1.610 . S
N660 S659 1.613 . S
N660 C663 1.350 . S
N661 S659 1.610 . S
N661 C662 1.351 . S
C662 C656 1.428 . S
C662 N661 1.351 . S
C662 C663 1.434 . S
C663 C654 1.429 . S
C663 N660 1.350 . S
C663 C662 1.434 . S
C401 C21 1.526 . S
C403 C339 1.545 . S
C412 C61 1.330 . S
C414 C342 1.299 . S
C425 C378 1.749 . S
C423 C82 1.717 . S
C434 C135 1.708 . S
C436 C398 1.700 . S
C447 C352 1.676 . S
C445 C15 1.712 . S
C458 C329 1.512 . S
C456 C42 1.524 . S
C469 C382 1.572 . S
C467 C101 1.695 . S
C480 C362 1.407 . S
C478 C122 1.489 . S
C489 C2 1.394 . S
C491 C392 1.358 . S
C502 C358 1.591 . S
C500 C95 1.606 . S
C511 C141 1.670 . S
C513 C324 1.663 . S
C522 C55 1.333 . S
C524 C372 1.295 . S
C535 C338 1.558 . S
C533 C181 1.640 . S
C544 C202 1.302 . S
C546 C344 1.284 . S
C555 C255 1.760 . S
C557 C379 1.743 . S
C566 C295 1.691 . S
C568 C399 1.689 . S
C577 C175 1.713 . S
C579 C349 1.670 . S
C590 C332 1.525 . S
C588 C221 1.536 . S
C601 C384 1.513 . S
C599 C242 1.688 . S
C612 C364 1.457 . S
C610 C301 1.508 . S
C621 C162 1.435 . S
C623 C389 1.342 . S
C634 C359 1.638 . S
C632 C261 1.644 . S
C645 C322 1.621 . S
C643 C282 1.656 . S
C654 C215 1.360 . S
C656 C369 1.326 . S
