# Generated by pormake.
# Topology wbl, (4,4)-cn, num edge types: 1
# Building blocks:
#     Node 0, Type 0, BuildingBlock: MUDLON_clean_sbu_0, # of connection points: 4
#     Node 1, Type 0, BuildingBlock: MUDLON_clean_sbu_0, # of connection points: 4
#     Node 2, Type 0, BuildingBlock: MUDLON_clean_sbu_0, # of connection points: 4
#     Node 3, Type 0, BuildingBlock: MUDLON_clean_sbu_0, # of connection points: 4
#     Node 4, Type 0, BuildingBlock: MUDLON_clean_sbu_0, # of connection points: 4
#     Node 5, Type 0, BuildingBlock: MUDLON_clean_sbu_0, # of connection points: 4
#     Node 6, Type 0, BuildingBlock: MUDLON_clean_sbu_0, # of connection points: 4
#     Node 7, Type 0, BuildingBlock: MUDLON_clean_sbu_0, # of connection points: 4
#     Node 8, Type 1, BuildingBlock: GALJAG_clean_sbu_0, # of connection points: 4
#     Node 9, Type 1, BuildingBlock: GALJAG_clean_sbu_0, # of connection points: 4
#     Node 10, Type 1, BuildingBlock: GALJAG_clean_sbu_0, # of connection points: 4
#     Node 11, Type 1, BuildingBlock: GALJAG_clean_sbu_0, # of connection points: 4
#     Node 12, Type 1, BuildingBlock: GALJAG_clean_sbu_0, # of connection points: 4
#     Node 13, Type 1, BuildingBlock: GALJAG_clean_sbu_0, # of connection points: 4
#     Node 14, Type 1, BuildingBlock: GALJAG_clean_sbu_0, # of connection points: 4
#     Node 15, Type 1, BuildingBlock: GALJAG_clean_sbu_0, # of connection points: 4
#     Edge 16, Type (0, 1), BuildingBlock: MIFKUJ_clean_linker_0, # of connection points: 2
#     Edge 17, Type (0, 1), BuildingBlock: MIFKUJ_clean_linker_0, # of connection points: 2
#     Edge 18, Type (0, 1), BuildingBlock: MIFKUJ_clean_linker_0, # of connection points: 2
#     Edge 19, Type (0, 1), BuildingBlock: MIFKUJ_clean_linker_0, # of connection points: 2
#     Edge 20, Type (0, 1), BuildingBlock: MIFKUJ_clean_linker_0, # of connection points: 2
#     Edge 21, Type (0, 1), BuildingBlock: MIFKUJ_clean_linker_0, # of connection points: 2
#     Edge 22, Type (0, 1), BuildingBlock: MIFKUJ_clean_linker_0, # of connection points: 2
#     Edge 23, Type (0, 1), BuildingBlock: MIFKUJ_clean_linker_0, # of connection points: 2
#     Edge 24, Type (0, 1), BuildingBlock: MIFKUJ_clean_linker_0, # of connection points: 2
#     Edge 25, Type (0, 1), BuildingBlock: MIFKUJ_clean_linker_0, # of connection points: 2
#     Edge 26, Type (0, 1), BuildingBlock: MIFKUJ_clean_linker_0, # of connection points: 2
#     Edge 27, Type (0, 1), BuildingBlock: MIFKUJ_clean_linker_0, # of connection points: 2
#     Edge 28, Type (0, 1), BuildingBlock: MIFKUJ_clean_linker_0, # of connection points: 2
#     Edge 29, Type (0, 1), BuildingBlock: MIFKUJ_clean_linker_0, # of connection points: 2
#     Edge 30, Type (0, 1), BuildingBlock: MIFKUJ_clean_linker_0, # of connection points: 2
#     Edge 31, Type (0, 1), BuildingBlock: MIFKUJ_clean_linker_0, # of connection points: 2
#     Edge 32, Type (0, 1), BuildingBlock: MIFKUJ_clean_linker_0, # of connection points: 2
#     Edge 33, Type (0, 1), BuildingBlock: MIFKUJ_clean_linker_0, # of connection points: 2
#     Edge 34, Type (0, 1), BuildingBlock: MIFKUJ_clean_linker_0, # of connection points: 2
#     Edge 35, Type (0, 1), BuildingBlock: MIFKUJ_clean_linker_0, # of connection points: 2
#     Edge 36, Type (0, 1), BuildingBlock: MIFKUJ_clean_linker_0, # of connection points: 2
#     Edge 37, Type (0, 1), BuildingBlock: MIFKUJ_clean_linker_0, # of connection points: 2
#     Edge 38, Type (0, 1), BuildingBlock: MIFKUJ_clean_linker_0, # of connection points: 2
#     Edge 39, Type (0, 1), BuildingBlock: MIFKUJ_clean_linker_0, # of connection points: 2
#     Edge 40, Type (0, 1), BuildingBlock: MIFKUJ_clean_linker_0, # of connection points: 2
#     Edge 41, Type (0, 1), BuildingBlock: MIFKUJ_clean_linker_0, # of connection points: 2
#     Edge 42, Type (0, 1), BuildingBlock: MIFKUJ_clean_linker_0, # of connection points: 2
#     Edge 43, Type (0, 1), BuildingBlock: MIFKUJ_clean_linker_0, # of connection points: 2
#     Edge 44, Type (0, 1), BuildingBlock: MIFKUJ_clean_linker_0, # of connection points: 2
#     Edge 45, Type (0, 1), BuildingBlock: MIFKUJ_clean_linker_0, # of connection points: 2
#     Edge 46, Type (0, 1), BuildingBlock: MIFKUJ_clean_linker_0, # of connection points: 2
#     Edge 47, Type (0, 1), BuildingBlock: MIFKUJ_clean_linker_0, # of connection points: 2
# Relax obj value: 0.157
# Max RMSD: 0.184
# Mean RMSD: 0.147
data_MOF--net-wbl--node1-MUDLON_clean_sbu_0--node2-GALJAG_clean_sbu_0--edge1-MIFKUJ_clean_linker_0
_symmetry_space_group_name_H-M    P1
_symmetry_Int_Tables_number       1
_symmetry_cell_setting            triclinic
loop_
_symmetry_equiv_pos_as_xyz
'x, y, z'
_cell_length_a     44.155752
_cell_length_b     44.314809
_cell_length_c     105.34839
_cell_angle_alpha  90.03542
_cell_angle_beta   90.0429
_cell_angle_gamma 90.001172
loop_
_atom_site_label
_atom_site_type_symbol
_atom_site_fract_x
_atom_site_fract_y
_atom_site_fract_z
_atom_type_partial_charge
Mg0 Mg 0.00374 0.01753 0.34876 0.0
C1 C 0.97082 0.98325 0.36931 0.0
O2 O 0.95291 0.00686 0.3685 0.0
C3 C 0.94449 0.01118 0.33429 0.0
O4 O 0.94454 0.98446 0.33968 0.0
C5 C 0.04287 0.97893 0.33239 0.0
O6 O 0.01919 0.96128 0.33378 0.0
O7 O 0.04279 0.00473 0.33766 0.0
O8 O 0.99278 0.98089 0.36157 0.0
O9 O 0.01396 0.05494 0.36131 0.0
C10 C 0.99461 0.07586 0.36278 0.0
O11 O 0.97027 0.07593 0.3556 0.0
O12 O 0.96638 0.02912 0.33637 0.0
Mg13 Mg 0.98978 0.51138 0.59639 0.0
C14 C 0.04762 0.52095 0.61117 0.0
O15 O 0.04752 0.54635 0.60476 0.0
C16 C 0.97207 0.4468 0.59164 0.0
O17 O 0.97949 0.44486 0.60369 0.0
C18 C 0.02293 0.54741 0.57656 0.0
O19 O 0.04004 0.52315 0.57674 0.0
O20 O -9e-05 0.54865 0.58378 0.0
O21 O 0.02777 0.50106 0.60866 0.0
O22 O 0.95579 0.52329 0.61029 0.0
C23 C 0.93042 0.50991 0.61117 0.0
O24 O 0.92205 0.49132 0.60211 0.0
O25 O 0.97485 0.47198 0.58599 0.0
Mg26 Mg 0.49034 0.47573 0.85077 0.0
C27 C 0.52592 0.50713 0.87116 0.0
O28 O 0.54192 0.48226 0.87009 0.0
C29 C 0.54819 0.4806 0.83555 0.0
O30 O 0.5474 0.50825 0.84004 0.0
C31 C 0.45238 0.51738 0.8353 0.0
O32 O 0.47559 0.53489 0.83789 0.0
O33 O 0.45214 0.49058 0.83958 0.0
O34 O 0.50398 0.51149 0.86355 0.0
O35 O 0.47877 0.43933 0.86359 0.0
C36 C 0.49848 0.41895 0.86549 0.0
O37 O 0.52273 0.41847 0.85827 0.0
O38 O 0.5271 0.46237 0.83843 0.0
Mg39 Mg 0.51213 0.99803 0.1012 0.0
C40 C 0.54724 0.96052 0.12005 0.0
O41 O 0.52324 0.9432 0.11891 0.0
C42 C 0.51432 0.9426 0.08424 0.0
O43 O 0.543 0.94311 0.08756 0.0
C44 C 0.53611 0.03688 0.07979 0.0
O45 O 0.5374 0.01066 0.07399 0.0
O46 O 0.52596 0.03815 0.09106 0.0
O47 O 0.54956 0.98366 0.11299 0.0
O48 O 0.47686 0.00898 0.11474 0.0
C49 C 0.45622 0.98982 0.11709 0.0
O50 O 0.45523 0.96481 0.1104 0.0
O51 O 0.49663 0.96289 0.08844 0.0
Mg52 Mg 0.0138 0.49643 0.91895 0.0
C53 C 0.01495 0.55457 0.90398 0.0
O54 O 0.03719 0.56089 0.91183 0.0
C55 C 0.95734 0.4994 0.93527 0.0
O56 O 0.95698 0.5273 0.93106 0.0
C57 C 0.05837 0.50932 0.94036 0.0
O58 O 0.03707 0.49684 0.94731 0.0
O59 O 0.05475 0.51119 0.92843 0.0
O60 O 0.99873 0.53141 0.90607 0.0
O61 O 0.02205 0.4611 0.90523 0.0
C62 C 0.03679 0.46986 0.89556 0.0
O63 O 0.05094 0.49592 0.89613 0.0
O64 O 0.97868 0.48194 0.9319 0.0
Mg65 Mg 0.49052 0.49486 0.16858 0.0
C66 C 0.44905 0.47134 0.14821 0.0
O67 O 0.47016 0.45051 0.14771 0.0
C68 C 0.51486 0.4331 0.17458 0.0
O69 O 0.52126 0.4343 0.16242 0.0
C70 C 0.45965 0.53655 0.18627 0.0
O71 O 0.43927 0.51523 0.18478 0.0
O72 O 0.48491 0.53403 0.18059 0.0
O73 O 0.44986 0.4906 0.15715 0.0
O74 O 0.52508 0.50126 0.15429 0.0
C75 C 0.51743 0.51674 0.14465 0.0
O76 O 0.49148 0.53124 0.14486 0.0
O77 O 0.50137 0.45524 0.17977 0.0
Mg78 Mg 0.49079 0.01281 0.41604 0.0
C79 C 0.46606 0.04141 0.39295 0.0
O80 O 0.45071 0.01603 0.39346 0.0
C81 C 0.43757 0.97751 0.42561 0.0
O82 O 0.44883 0.95821 0.41741 0.0
C83 C 0.52941 0.0493 0.43383 0.0
O84 O 0.50649 0.06795 0.4325 0.0
O85 O 0.52881 0.02411 0.42808 0.0
O86 O 0.48329 0.04816 0.4022 0.0
O87 O 0.50162 0.97491 0.40394 0.0
C88 C 0.51958 0.9802 0.3948 0.0
O89 O 0.53376 0.00627 0.3945 0.0
O90 O 0.45047 0.00294 0.42704 0.0
Mg91 Mg 0.00921 0.00766 0.66857 0.0
C92 C 0.06446 0.99367 0.65363 0.0
O93 O 0.05743 0.96681 0.658 0.0
C94 C 0.01204 0.06781 0.6826 0.0
O95 O 0.03679 0.07145 0.67586 0.0
C96 C 0.03543 0.96488 0.68679 0.0
O97 O 0.05258 0.9889 0.68815 0.0
O98 O 0.01369 0.96577 0.67889 0.0
O99 O 0.0501 0.01643 0.65781 0.0
O100 O 0.97642 0.00729 0.65332 0.0
C101 C 0.97815 0.03212 0.64732 0.0
O102 O 0.99594 0.05332 0.65186 0.0
O103 O 0.99704 0.0435 0.68152 0.0
In104 In 0.38678 0.63139 0.00683 0.0
O105 O 0.37797 0.68015 0.01302 0.0
O106 O 0.42361 0.66539 0.01187 0.0
C107 C 0.32981 0.62179 0.9982 0.0
C108 C 0.389 0.59938 0.02854 0.0
C109 C 0.4223 0.61528 0.98701 0.0
O110 O 0.34524 0.64445 0.99495 0.0
O111 O 0.34286 0.60436 0.00588 0.0
O112 O 0.42718 0.60602 0.99815 0.0
O113 O 0.39977 0.63253 0.98595 0.0
C114 C 0.4056 0.68657 0.01448 0.0
O115 O 0.39666 0.5883 0.01796 0.0
O116 O 0.38027 0.62649 0.02812 0.0
In117 In 0.36773 0.86821 0.25843 0.0
O118 O 0.35703 0.81922 0.25351 0.0
O119 O 0.4016 0.83523 0.2499 0.0
C120 C 0.3136 0.88429 0.26828 0.0
C121 C 0.37021 0.90279 0.23735 0.0
C122 C 0.40483 0.87241 0.27871 0.0
O123 O 0.31868 0.85811 0.26408 0.0
O124 O 0.33565 0.90221 0.26743 0.0
O125 O 0.40856 0.88781 0.26877 0.0
O126 O 0.38258 0.85458 0.27837 0.0
C127 C 0.38323 0.81344 0.24938 0.0
O128 O 0.38415 0.90951 0.24742 0.0
O129 O 0.35496 0.87878 0.23795 0.0
In130 In 0.11832 0.87939 0.5063 0.0
O131 O 0.10469 0.91977 0.51864 0.0
O132 O 0.13097 0.88495 0.52708 0.0
C133 C 0.08142 0.88939 0.4862 0.0
C134 C 0.10313 0.82327 0.514 0.0
C135 C 0.17306 0.89409 0.49669 0.0
O136 O 0.07584 0.89996 0.49708 0.0
O137 O 0.10523 0.87382 0.48556 0.0
O138 O 0.16359 0.86726 0.4972 0.0
O139 O 0.15511 0.91348 0.50118 0.0
C140 C 0.11767 0.90991 0.52849 0.0
O141 O 0.12979 0.83038 0.51091 0.0
O142 O 0.08407 0.84438 0.51309 0.0
In143 In 0.13684 0.63361 0.75692 0.0
O144 O 0.10217 0.6095 0.76941 0.0
O145 O 0.12153 0.65019 0.77634 0.0
C146 C 0.13244 0.60125 0.7353 0.0
C147 C 0.19141 0.61734 0.76616 0.0
C148 C 0.11968 0.68768 0.74775 0.0
O149 O 0.1142 0.59802 0.74443 0.0
O150 O 0.15303 0.6205 0.73716 0.0
O151 O 0.14625 0.68265 0.75165 0.0
O152 O 0.10182 0.66554 0.74859 0.0
C153 C 0.10368 0.6285 0.77832 0.0
O154 O 0.18552 0.64411 0.76289 0.0
O155 O 0.16996 0.59892 0.7646 0.0
In156 In 0.86174 0.14745 0.50462 0.0
O157 O 0.84646 0.1799 0.52023 0.0
O158 O 0.87948 0.19529 0.50712 0.0
C159 C 0.80626 0.1317 0.49619 0.0
C160 C 0.88328 0.11115 0.52309 0.0
C161 C 0.89543 0.14666 0.48325 0.0
O162 O 0.81196 0.15752 0.50065 0.0
O163 O 0.82849 0.11378 0.49607 0.0
O164 O 0.9015 0.13049 0.49276 0.0
O165 O 0.87227 0.16304 0.48447 0.0
C166 C 0.86406 0.20086 0.51691 0.0
O167 O 0.89854 0.13217 0.51822 0.0
O168 O 0.8572 0.10775 0.51841 0.0
In169 In 0.86822 0.3771 0.75694 0.0
O170 O 0.88583 0.41478 0.74422 0.0
O171 O 0.8488 0.38856 0.73749 0.0
C172 C 0.90372 0.38471 0.77753 0.0
C173 C 0.88994 0.32483 0.74759 0.0
C174 C 0.81386 0.39048 0.7671 0.0
O175 O 0.9035 0.40307 0.76837 0.0
O176 O 0.88619 0.36244 0.77626 0.0
O177 O 0.82009 0.36436 0.76305 0.0
O178 O 0.83489 0.40951 0.76593 0.0
C179 C 0.86713 0.40982 0.73538 0.0
O180 O 0.86371 0.32678 0.75232 0.0
O181 O 0.90492 0.34905 0.74768 0.0
In182 In 0.64025 0.36493 0.00778 0.0
O183 O 0.65564 0.32159 0.01785 0.0
O184 O 0.60993 0.32458 0.01184 0.0
C185 C 0.69357 0.38507 0.99857 0.0
C186 C 0.62844 0.40063 0.02796 0.0
C187 C 0.60616 0.36582 0.98658 0.0
O188 O 0.68873 0.35753 0.00086 0.0
O189 O 0.67159 0.40234 0.00096 0.0
O190 O 0.59773 0.37806 0.99681 0.0
O191 O 0.63183 0.35331 0.98704 0.0
C192 C 0.63001 0.30911 0.01727 0.0
O193 O 0.61327 0.4018 0.01783 0.0
O194 O 0.64969 0.38165 0.02788 0.0
In195 In 0.6265 0.1175 0.25438 0.0
O196 O 0.58268 0.10397 0.26443 0.0
O197 O 0.61196 0.13467 0.27384 0.0
C198 C 0.6247 0.07571 0.23581 0.0
C199 C 0.68033 0.10217 0.26469 0.0
C200 C 0.61275 0.16951 0.2423 0.0
O201 O 0.60814 0.0741 0.24556 0.0
O202 O 0.64227 0.0982 0.23552 0.0
O203 O 0.633 0.16817 0.25075 0.0
O204 O 0.59963 0.14486 0.24003 0.0
C205 C 0.58767 0.11979 0.27417 0.0
O206 O 0.67695 0.12591 0.2582 0.0
O207 O 0.65676 0.08638 0.26585 0.0
H208 H 0.09538 0.00974 0.32779 0.0
H209 H 0.1395 0.99233 0.31589 0.0
H210 H 0.09465 0.90773 0.30831 0.0
H211 H 0.05051 0.9248 0.32034 0.0
H212 H 0.1525 0.89921 0.31583 0.0
H213 H 0.101 0.96028 0.28518 0.0
H214 H 0.07584 0.00606 0.27708 0.0
H215 H 0.15781 0.05668 0.28238 0.0
H216 H 0.18335 0.01129 0.29069 0.0
H217 H 0.26215 0.85039 0.27064 0.0
H218 H 0.2143 0.86533 0.28059 0.0
H219 H 0.25176 0.95305 0.28899 0.0
H220 H 0.29932 0.93847 0.27889 0.0
H221 H 0.19548 0.95813 0.28009 0.0
H222 H 0.24607 0.89816 0.31181 0.0
H223 H 0.27136 0.85279 0.32025 0.0
H224 H 0.19124 0.80046 0.31319 0.0
H225 H 0.1656 0.84547 0.30454 0.0
C226 C 0.09483 0.98746 0.32356 0.0
C227 C 0.0694 0.96868 0.32499 0.0
C228 C 0.12003 0.97759 0.31672 0.0
C229 C 0.12021 0.94886 0.3111 0.0
C230 C 0.09494 0.93 0.31255 0.0
C231 C 0.06971 0.93984 0.3194 0.0
C232 C 0.14706 0.93832 0.30392 0.0
C233 C 0.16163 0.91181 0.30788 0.0
C234 C 0.15927 0.95511 0.29371 0.0
C235 C 0.14401 0.98243 0.28866 0.0
C236 C 0.1136 0.98123 0.28471 0.0
C237 C 0.09928 0.0071 0.28006 0.0
C238 C 0.11519 0.03428 0.27924 0.0
C239 C 0.1455 0.03562 0.28303 0.0
C240 C 0.15992 0.00982 0.2877 0.0
C241 C 0.26011 0.87287 0.27458 0.0
C242 C 0.28446 0.89324 0.27402 0.0
C243 C 0.23283 0.88134 0.2803 0.0
C244 C 0.22959 0.91021 0.28565 0.0
C245 C 0.25376 0.93068 0.28492 0.0
C246 C 0.28095 0.92228 0.27918 0.0
C247 C 0.20113 0.91918 0.29209 0.0
C248 C 0.18624 0.94541 0.28799 0.0
C249 C 0.18867 0.90217 0.30219 0.0
C250 C 0.20404 0.8751 0.3074 0.0
C251 C 0.23393 0.87692 0.31196 0.0
C252 C 0.24831 0.85128 0.3168 0.0
C253 C 0.23295 0.82374 0.31722 0.0
C254 C 0.20313 0.8218 0.31283 0.0
C255 C 0.18866 0.84737 0.30797 0.0
H256 H 0.24411 0.80391 0.32097 0.0
H257 H 0.10407 0.05429 0.27564 0.0
H258 H 0.99004 0.59871 0.57238 0.0
H259 H 0.00475 0.64281 0.55991 0.0
H260 H 0.08931 0.59978 0.55031 0.0
H261 H 0.0748 0.55551 0.56279 0.0
H262 H 0.0969 0.65817 0.55854 0.0
H263 H 0.03603 0.60569 0.5282 0.0
H264 H 0.99074 0.57903 0.52033 0.0
H265 H 0.93694 0.65839 0.52654 0.0
H266 H 0.98185 0.68541 0.53462 0.0
H267 H 0.13921 0.77328 0.51519 0.0
H268 H 0.12647 0.72388 0.52407 0.0
H269 H 0.03658 0.75582 0.53288 0.0
H270 H 0.04894 0.80496 0.52372 0.0
H271 H 0.03392 0.70028 0.52378 0.0
H272 H 0.09335 0.7514 0.55562 0.0
H273 H 0.13806 0.77815 0.56402 0.0
H274 H 0.19397 0.70149 0.5555 0.0
H275 H 0.14962 0.67443 0.54689 0.0
C276 C 0.01169 0.59852 0.56756 0.0
C277 C 0.03125 0.57359 0.56857 0.0
C278 C 0.02001 0.62369 0.5604 0.0
C279 C 0.04802 0.62445 0.55411 0.0
C280 C 0.06757 0.5996 0.55507 0.0
C281 C 0.05918 0.5743 0.56217 0.0
C282 C 0.05726 0.65169 0.54694 0.0
C283 C 0.08345 0.66712 0.55079 0.0
C284 C 0.03932 0.66363 0.53701 0.0
C285 C 0.01227 0.64749 0.53212 0.0
C286 C 0.0145 0.61739 0.52798 0.0
C287 C 0.9889 0.60222 0.52347 0.0
C288 C 0.96097 0.61698 0.52296 0.0
C289 C 0.95859 0.64697 0.52695 0.0
C290 C 0.98412 0.66223 0.53148 0.0
C291 C 0.11668 0.76969 0.51895 0.0
C292 C 0.09511 0.79301 0.51882 0.0
C293 C 0.10947 0.7415 0.52407 0.0
C294 C 0.08071 0.73627 0.52932 0.0
C295 C 0.05892 0.75933 0.5289 0.0
C296 C 0.06604 0.78743 0.5237 0.0
C297 C 0.07338 0.70704 0.53549 0.0
C298 C 0.04754 0.69122 0.53146 0.0
C299 C 0.09157 0.6948 0.5453 0.0
C300 C 0.11824 0.71103 0.55048 0.0
C301 C 0.11522 0.74034 0.55545 0.0
C302 C 0.14049 0.75555 0.56026 0.0
C303 C 0.16885 0.74157 0.56026 0.0
C304 C 0.17199 0.71232 0.55547 0.0
C305 C 0.1468 0.69703 0.55063 0.0
H306 H 0.18839 0.75337 0.56399 0.0
H307 H 0.94117 0.6052 0.51946 0.0
H308 H 0.44471 0.57424 0.82577 0.0
H309 H 0.40258 0.59297 0.81294 0.0
H310 H 0.3605 0.50519 0.81434 0.0
H311 H 0.40263 0.48618 0.82711 0.0
H312 H 0.35955 0.52924 0.79044 0.0
H313 H 0.3351 0.56121 0.83299 0.0
H314 H 0.34457 0.58669 0.85342 0.0
H315 H 0.35479 0.67143 0.83416 0.0
H316 H 0.34578 0.64636 0.81357 0.0
H317 H 0.20821 0.56113 0.7738 0.0
H318 H 0.25531 0.54638 0.78422 0.0
H319 H 0.2877 0.63807 0.78181 0.0
H320 H 0.24026 0.65311 0.7715 0.0
H321 H 0.29637 0.61499 0.80515 0.0
H322 H 0.31724 0.58392 0.76272 0.0
H323 H 0.30756 0.55865 0.74226 0.0
H324 H 0.30437 0.47274 0.76104 0.0
H325 H 0.31359 0.49754 0.78165 0.0
C326 C 0.42651 0.55889 0.82335 0.0
C327 C 0.42696 0.52873 0.8275 0.0
C328 C 0.40242 0.56967 0.81604 0.0
C329 C 0.37833 0.55052 0.81278 0.0
C330 C 0.3789 0.52032 0.81677 0.0
C331 C 0.40293 0.50954 0.8241 0.0
C332 C 0.3524 0.56194 0.80527 0.0
C333 C 0.34553 0.5478 0.7937 0.0
C334 C 0.33474 0.58674 0.80936 0.0
C335 C 0.34011 0.60185 0.82173 0.0
C336 C 0.33963 0.58523 0.8331 0.0
C337 C 0.34486 0.59961 0.84471 0.0
C338 C 0.35037 0.63064 0.84509 0.0
C339 C 0.35058 0.64738 0.83385 0.0
C340 C 0.34539 0.63311 0.82221 0.0
C341 C 0.22545 0.57815 0.7754 0.0
C342 C 0.2206 0.60829 0.77182 0.0
C343 C 0.25241 0.56963 0.7813 0.0
C344 C 0.27515 0.59105 0.78366 0.0
C345 C 0.27046 0.62117 0.78004 0.0
C346 C 0.24343 0.62973 0.77412 0.0
C347 C 0.30322 0.58204 0.79038 0.0
C348 C 0.31052 0.59662 0.80181 0.0
C349 C 0.32132 0.55768 0.78614 0.0
C350 C 0.31587 0.54264 0.77375 0.0
C351 C 0.31424 0.55966 0.76251 0.0
C352 C 0.30888 0.54541 0.75088 0.0
C353 C 0.30529 0.51411 0.75035 0.0
C354 C 0.30713 0.49699 0.76146 0.0
C355 C 0.31246 0.51113 0.77312 0.0
H356 H 0.30114 0.50312 0.74134 0.0
H357 H 0.35441 0.64173 0.85409 0.0
H358 H 0.54581 0.89597 0.07348 0.0
H359 H 0.52588 0.85537 0.06017 0.0
H360 H 0.43635 0.89383 0.06275 0.0
H361 H 0.45599 0.93432 0.0762 0.0
H362 H 0.4352 0.83404 0.06684 0.0
H363 H 0.47719 0.90017 0.03558 0.0
H364 H 0.51664 0.93165 0.02565 0.0
H365 H 0.57358 0.85381 0.02123 0.0
H366 H 0.53462 0.82191 0.0313 0.0
H367 H 0.37116 0.73535 0.02114 0.0
H368 H 0.38834 0.78189 0.03141 0.0
H369 H 0.48053 0.74976 0.0302 0.0
H370 H 0.4636 0.70351 0.01973 0.0
H371 H 0.47807 0.80873 0.02462 0.0
H372 H 0.43772 0.74349 0.05711 0.0
H373 H 0.3987 0.71185 0.06726 0.0
H374 H 0.33904 0.78818 0.06953 0.0
H375 H 0.37758 0.82019 0.05923 0.0
C376 C 0.5219 0.89589 0.07118 0.0
C377 C 0.50251 0.91841 0.07589 0.0
C378 C 0.51056 0.87273 0.06351 0.0
C379 C 0.47967 0.87175 0.06035 0.0
C380 C 0.46027 0.89419 0.06505 0.0
C381 C 0.47157 0.91735 0.07271 0.0
C382 C 0.46747 0.84678 0.05248 0.0
C383 C 0.44422 0.82883 0.05751 0.0
C384 C 0.47966 0.83961 0.04042 0.0
C385 C 0.50308 0.8587 0.0343 0.0
C386 C 0.49821 0.8898 0.03258 0.0
C387 C 0.52047 0.90771 0.02691 0.0
C388 C 0.54762 0.89475 0.02284 0.0
C389 C 0.55254 0.86382 0.0244 0.0
C390 C 0.53037 0.84581 0.03008 0.0
C391 C 0.39512 0.73837 0.02295 0.0
C392 C 0.41602 0.71572 0.01971 0.0
C393 C 0.40489 0.7649 0.02886 0.0
C394 C 0.43568 0.76909 0.03175 0.0
C395 C 0.45668 0.74698 0.02809 0.0
C396 C 0.44695 0.72053 0.02213 0.0
C397 C 0.44597 0.79589 0.03903 0.0
C398 C 0.46889 0.81413 0.0339 0.0
C399 C 0.43352 0.80332 0.05101 0.0
C400 C 0.4104 0.78414 0.05727 0.0
C401 C 0.41619 0.75347 0.05969 0.0
C402 C 0.39418 0.73548 0.06548 0.0
C403 C 0.36637 0.74798 0.069 0.0
C404 C 0.36056 0.77852 0.06677 0.0
C405 C 0.38249 0.7966 0.06096 0.0
H406 H 0.34936 0.73402 0.07349 0.0
H407 H 0.56483 0.90865 0.01845 0.0
H408 H 0.10186 0.54424 0.92925 0.0
H409 H 0.14654 0.56639 0.9392 0.0
H410 H 0.12202 0.52552 0.97491 0.0
H411 H 0.0767 0.50393 0.96509 0.0
H412 H 0.1401 0.5814 0.97873 0.0
H413 H 0.17908 0.49638 0.95591 0.0
H414 H 0.18747 0.46357 0.93733 0.0
H415 H 0.231 0.53656 0.91773 0.0
H416 H 0.2225 0.56996 0.93614 0.0
H417 H 0.28722 0.58377 0.00779 0.0
H418 H 0.23905 0.56909 0.99802 0.0
H419 H 0.25688 0.6286 0.96653 0.0
H420 H 0.30483 0.64397 0.97642 0.0
H421 H 0.24226 0.56575 0.96028 0.0
H422 H 0.20486 0.64974 0.98431 0.0
H423 H 0.19725 0.68062 0.00351 0.0
H424 H 0.15181 0.60663 0.02164 0.0
H425 H 0.15957 0.57512 0.0026 0.0
C426 C 0.10599 0.53985 0.93922 0.0
C427 C 0.08581 0.52216 0.94637 0.0
C428 C 0.13162 0.55249 0.94489 0.0
C429 C 0.1379 0.54729 0.95777 0.0
C430 C 0.11766 0.52982 0.96496 0.0
C431 C 0.09183 0.5174 0.95932 0.0
C432 C 0.16554 0.56011 0.96374 0.0
C433 C 0.16246 0.57766 0.97477 0.0
C434 C 0.1947 0.55578 0.95844 0.0
C435 C 0.19987 0.53576 0.94735 0.0
C436 C 0.19023 0.50551 0.9476 0.0
C437 C 0.19504 0.48679 0.93711 0.0
C438 C 0.20968 0.498 0.92634 0.0
C439 C 0.21962 0.52793 0.92607 0.0
C440 C 0.21483 0.54676 0.93653 0.0
C441 C 0.28066 0.59402 0.99887 0.0
C442 C 0.2997 0.61498 0.99284 0.0
C443 C 0.25317 0.58567 0.99333 0.0
C444 C 0.2445 0.59781 0.98158 0.0
C445 C 0.26324 0.61907 0.97562 0.0
C446 C 0.29049 0.62788 0.98129 0.0
C447 C 0.21672 0.58685 0.97523 0.0
C448 C 0.21983 0.56958 0.96416 0.0
C449 C 0.1877 0.59111 0.98059 0.0
C450 C 0.18309 0.60996 0.99207 0.0
C451 C 0.19353 0.63993 0.99244 0.0
C452 C 0.18912 0.65758 0.00328 0.0
C453 C 0.17413 0.64557 0.0138 0.0
C454 C 0.16346 0.61589 0.01349 0.0
C455 C 0.16784 0.59813 0.00267 0.0
H456 H 0.17072 0.65928 0.02219 0.0
H457 H 0.21339 0.48347 0.91823 0.0
H458 H 0.49638 0.58495 0.19126 0.0
H459 H 0.48357 0.63057 0.20319 0.0
H460 H 0.39436 0.595 0.21055 0.0
H461 H 0.40684 0.54949 0.19857 0.0
H462 H 0.39194 0.65254 0.20233 0.0
H463 H 0.44685 0.59712 0.23388 0.0
H464 H 0.48998 0.56849 0.2426 0.0
H465 H 0.54799 0.64526 0.23741 0.0
H466 H 0.50528 0.67423 0.22848 0.0
H467 H 0.3475 0.76345 0.24708 0.0
H468 H 0.36088 0.71503 0.23742 0.0
H469 H 0.45088 0.74823 0.22975 0.0
H470 H 0.43779 0.79655 0.23956 0.0
H471 H 0.45238 0.69107 0.23861 0.0
H472 H 0.39806 0.74585 0.20647 0.0
H473 H 0.35516 0.77452 0.19758 0.0
H474 H 0.29626 0.69883 0.20372 0.0
H475 H 0.33875 0.66983 0.21282 0.0
C476 C 0.4741 0.58675 0.19548 0.0
C477 C 0.45263 0.5636 0.19396 0.0
C478 C 0.46686 0.61278 0.20234 0.0
C479 C 0.43808 0.61606 0.20783 0.0
C480 C 0.41669 0.59291 0.20639 0.0
C481 C 0.42392 0.56688 0.19956 0.0
C482 C 0.42988 0.64409 0.2147 0.0
C483 C 0.40487 0.66073 0.21039 0.0
C484 C 0.4472 0.65509 0.22501 0.0
C485 C 0.47292 0.63775 0.2304 0.0
C486 C 0.46886 0.60782 0.2345 0.0
C487 C 0.49322 0.59154 0.2395 0.0
C488 C 0.52172 0.60502 0.24052 0.0
C489 C 0.5259 0.63484 0.23659 0.0
C490 C 0.50162 0.65121 0.23157 0.0
C491 C 0.37017 0.76037 0.24339 0.0
C492 C 0.39155 0.78381 0.24401 0.0
C493 C 0.37775 0.73275 0.23784 0.0
C494 C 0.40676 0.72818 0.23273 0.0
C495 C 0.42836 0.75131 0.23362 0.0
C496 C 0.42081 0.77891 0.23919 0.0
C497 C 0.41445 0.6995 0.22624 0.0
C498 C 0.43938 0.68279 0.23059 0.0
C499 C 0.39709 0.68842 0.21594 0.0
C500 C 0.37152 0.70579 0.21045 0.0
C501 C 0.37591 0.7354 0.20602 0.0
C502 C 0.35167 0.7517 0.20092 0.0
C503 C 0.32298 0.73853 0.20011 0.0
C504 C 0.31849 0.70901 0.20437 0.0
C505 C 0.34264 0.69263 0.20949 0.0
H506 H 0.30425 0.75118 0.19616 0.0
H507 H 0.54056 0.59238 0.2444 0.0
H508 H 0.40765 0.01222 0.44311 0.0
H509 H 0.36344 0.99813 0.45576 0.0
H510 H 0.36267 0.91025 0.43812 0.0
H511 H 0.40645 0.9243 0.42529 0.0
H512 H 0.30703 0.93242 0.43931 0.0
H513 H 0.38966 0.92014 0.46825 0.0
H514 H 0.43543 0.93536 0.48005 0.0
H515 H 0.38555 0.00633 0.4983 0.0
H516 H 0.33955 0.9918 0.48647 0.0
H517 H 0.21021 0.85782 0.48275 0.0
H518 H 0.25618 0.87245 0.47133 0.0
H519 H 0.2473 0.96338 0.48546 0.0
H520 H 0.20111 0.94898 0.49684 0.0
H521 H 0.30759 0.94007 0.48632 0.0
H522 H 0.22458 0.9509 0.45698 0.0
H523 H 0.17925 0.93366 0.44538 0.0
H524 H 0.23102 0.86276 0.42803 0.0
H525 H 0.27658 0.87929 0.4397 0.0
C526 C 0.39806 0.9899 0.44192 0.0
C527 C 0.41063 0.96935 0.43322 0.0
C528 C 0.37287 0.98183 0.4492 0.0
C529 C 0.35997 0.953 0.448 0.0
C530 C 0.37227 0.9326 0.43921 0.0
C531 C 0.39736 0.94067 0.43191 0.0
C532 C 0.33348 0.9441 0.4558 0.0
C533 C 0.30733 0.93375 0.4496 0.0
C534 C 0.33365 0.94632 0.46921 0.0
C535 C 0.36124 0.95508 0.47637 0.0
C536 C 0.38851 0.93915 0.4747 0.0
C537 C 0.41448 0.94763 0.48141 0.0
C538 C 0.41342 0.97185 0.48989 0.0
C539 C 0.38635 0.9876 0.49171 0.0
C540 C 0.36031 0.97924 0.48502 0.0
C541 C 0.2182 0.88086 0.48352 0.0
C542 C 0.20202 0.90232 0.49062 0.0
C543 C 0.24438 0.88919 0.47697 0.0
C544 C 0.25492 0.91904 0.47748 0.0
C545 C 0.23947 0.94024 0.48495 0.0
C546 C 0.21308 0.93201 0.4914 0.0
C547 C 0.28136 0.92836 0.46981 0.0
C548 C 0.30741 0.9388 0.47603 0.0
C549 C 0.28122 0.92597 0.45642 0.0
C550 C 0.25392 0.91615 0.44931 0.0
C551 C 0.22624 0.93147 0.45077 0.0
C552 C 0.20051 0.92186 0.44417 0.0
C553 C 0.20223 0.89708 0.436 0.0
C554 C 0.22971 0.88192 0.43438 0.0
C555 C 0.2555 0.89142 0.44098 0.0
H556 H 0.18229 0.88967 0.43089 0.0
H557 H 0.43355 0.97838 0.49508 0.0
H558 H 0.08455 0.95396 0.70178 0.0
H559 H 0.0976 0.90715 0.7127 0.0
H560 H 0.01574 0.8657 0.69871 0.0
H561 H 0.00243 0.91256 0.68769 0.0
H562 H 0.02733 0.85413 0.72461 0.0
H563 H 0.07901 0.84928 0.68449 0.0
H564 H 0.11234 0.86829 0.66751 0.0
H565 H 0.18685 0.87214 0.69368 0.0
H566 H 0.15383 0.85358 0.71087 0.0
H567 H 0.06549 0.70152 0.73683 0.0
H568 H 0.05041 0.74933 0.7272 0.0
H569 H 0.1372 0.78776 0.73691 0.0
H570 H 0.1527 0.73965 0.74631 0.0
H571 H 0.12272 0.80137 0.71329 0.0
H572 H 0.0722 0.80617 0.75341 0.0
H573 H 0.03933 0.78825 0.77075 0.0
H574 H 0.96342 0.7856 0.74527 0.0
H575 H 0.99594 0.80311 0.72773 0.0
C576 C 0.06921 0.93497 0.70106 0.0
C577 C 0.04252 0.93691 0.69382 0.0
C578 C 0.07676 0.90823 0.70728 0.0
C579 C 0.05775 0.88296 0.7064 0.0
C580 C 0.03069 0.885 0.69947 0.0
C581 C 0.0232 0.91172 0.69316 0.0
C582 C 0.06658 0.85423 0.71251 0.0
C583 C 0.04796 0.84232 0.72204 0.0
C584 C 0.0939 0.83938 0.70934 0.0
C585 C 0.11387 0.85032 0.699 0.0
C586 C 0.10244 0.85441 0.68665 0.0
C587 C 0.12129 0.86507 0.67698 0.0
C588 C 0.15167 0.87149 0.67952 0.0
C589 C 0.1633 0.86719 0.69173 0.0
C590 C 0.14453 0.85658 0.70143 0.0
C591 C 0.08131 0.72021 0.73697 0.0
C592 C 0.11026 0.71691 0.74234 0.0
C593 C 0.07261 0.74756 0.73151 0.0
C594 C 0.09253 0.77225 0.73147 0.0
C595 C 0.12145 0.76901 0.73686 0.0
C596 C 0.13026 0.74157 0.74225 0.0
C597 C 0.08352 0.80115 0.72547 0.0
C598 C 0.10209 0.81312 0.71591 0.0
C599 C 0.05624 0.81613 0.72868 0.0
C600 C 0.03659 0.80568 0.73922 0.0
C601 C 0.04855 0.80154 0.75148 0.0
C602 C 0.02997 0.79149 0.76135 0.0
C603 C 0.99932 0.78571 0.75911 0.0
C604 C 0.98717 0.79005 0.74699 0.0
C605 C 0.00566 0.80006 0.73708 0.0
H606 H 0.98498 0.77794 0.76676 0.0
H607 H 0.16623 0.87973 0.67202 0.0
H608 H 0.59826 0.51279 0.82853 0.0
H609 H 0.6408 0.49555 0.81562 0.0
H610 H 0.59823 0.40852 0.81129 0.0
H611 H 0.55581 0.42539 0.82439 0.0
H612 H 0.65685 0.40249 0.81697 0.0
H613 H 0.59907 0.45904 0.78682 0.0
H614 H 0.57127 0.50317 0.77861 0.0
H615 H 0.65218 0.55669 0.7808 0.0
H616 H 0.68038 0.51298 0.78919 0.0
H617 H 0.76423 0.35426 0.77047 0.0
H618 H 0.71633 0.36772 0.78079 0.0
H619 H 0.75004 0.45773 0.78754 0.0
H620 H 0.79752 0.44463 0.77708 0.0
H621 H 0.69288 0.4594 0.77935 0.0
H622 H 0.74937 0.40412 0.81102 0.0
H623 H 0.77725 0.36027 0.81947 0.0
H624 H 0.69857 0.30456 0.81446 0.0
H625 H 0.67033 0.34802 0.80582 0.0
C626 C 0.59787 0.49002 0.8248 0.0
C627 C 0.57362 0.47049 0.82747 0.0
C628 C 0.62214 0.48024 0.81737 0.0
C629 C 0.6225 0.45086 0.81236 0.0
C630 C 0.59837 0.4313 0.81503 0.0
C631 C 0.57412 0.44102 0.8225 0.0
C632 C 0.64848 0.44035 0.80462 0.0
C633 C 0.66442 0.41463 0.80861 0.0
C634 C 0.65864 0.45648 0.79385 0.0
C635 C 0.64178 0.48278 0.78873 0.0
C636 C 0.61089 0.48028 0.78564 0.0
C637 C 0.59507 0.50521 0.78093 0.0
C638 C 0.60993 0.53273 0.77921 0.0
C639 C 0.64068 0.53536 0.78215 0.0
C640 C 0.65661 0.5105 0.78686 0.0
C641 C 0.76132 0.37692 0.77412 0.0
C642 C 0.78462 0.39836 0.77301 0.0
C643 C 0.73403 0.38456 0.78005 0.0
C644 C 0.72974 0.41366 0.78504 0.0
C645 C 0.75283 0.43517 0.78374 0.0
C646 C 0.78 0.4276 0.7778 0.0
C647 C 0.70148 0.42184 0.79181 0.0
C648 C 0.68511 0.44711 0.78764 0.0
C649 C 0.69094 0.40532 0.80242 0.0
C650 C 0.70786 0.37922 0.80764 0.0
C651 C 0.7381 0.38246 0.81163 0.0
C652 C 0.75395 0.35769 0.81647 0.0
C653 C 0.73972 0.32962 0.81746 0.0
C654 C 0.70958 0.32629 0.81366 0.0
C655 C 0.69364 0.35099 0.8088 0.0
H656 H 0.75203 0.31048 0.82121 0.0
H657 H 0.59764 0.55201 0.77557 0.0
H658 H 0.55449 0.04336 0.05513 0.0
H659 H 0.57306 0.08915 0.04481 0.0
H660 H 0.56215 0.13843 0.07985 0.0
H661 H 0.54288 0.09301 0.09014 0.0
H662 H 0.5416 0.17063 0.06124 0.0
H663 H 0.63267 0.11615 0.06911 0.0
H664 H 0.66729 0.0725 0.0687 0.0
H665 H 0.66726 0.07397 0.02795 0.0
H666 H 0.63229 0.1174 0.02811 0.0
H667 H 0.66589 0.27586 0.03318 0.0
H668 H 0.65238 0.2289 0.0441 0.0
H669 H 0.56602 0.22833 0.0249 0.0
H670 H 0.57901 0.2755 0.01427 0.0
H671 H 0.63815 0.17307 0.03718 0.0
H672 H 0.51155 0.20408 0.04449 0.0
H673 H 0.48001 0.24963 0.04709 0.0
H674 H 0.55668 0.29829 0.06161 0.0
H675 H 0.58855 0.25294 0.05927 0.0
C676 C 0.55605 0.06394 0.06064 0.0
C677 C 0.54721 0.06454 0.07346 0.0
C678 C 0.56684 0.09007 0.05475 0.0
C679 C 0.56937 0.11716 0.0616 0.0
C680 C 0.56041 0.1178 0.07437 0.0
C681 C 0.54942 0.09178 0.08024 0.0
C682 C 0.58066 0.14503 0.05539 0.0
C683 C 0.56272 0.17112 0.05599 0.0
C684 C 0.60856 0.14593 0.04877 0.0
C685 C 0.62964 0.11986 0.04862 0.0
C686 C 0.63986 0.10702 0.06006 0.0
C687 C 0.65958 0.08235 0.05987 0.0
C688 C 0.66941 0.07042 0.04831 0.0
C689 C 0.6596 0.08321 0.0369 0.0
C690 C 0.63985 0.10787 0.03703 0.0
C691 C 0.64412 0.26556 0.03124 0.0
C692 C 0.62336 0.27946 0.02299 0.0
C693 C 0.63646 0.23873 0.03746 0.0
C694 C 0.60798 0.2254 0.03549 0.0
C695 C 0.58785 0.23856 0.02678 0.0
C696 C 0.59535 0.26546 0.02068 0.0
C697 C 0.59875 0.19837 0.04283 0.0
C698 C 0.61705 0.1725 0.04244 0.0
C699 C 0.57159 0.19788 0.04997 0.0
C700 C 0.55248 0.22517 0.05159 0.0
C701 C 0.52163 0.22446 0.04829 0.0
C702 C 0.50371 0.25025 0.04971 0.0
C703 C 0.51636 0.27686 0.05447 0.0
C704 C 0.54693 0.2777 0.05788 0.0
C705 C 0.56494 0.25197 0.0565 0.0
H706 H 0.50245 0.29681 0.05555 0.0
H707 H 0.68468 0.05132 0.04818 0.0
H708 H 0.93937 0.06321 0.32052 0.0
H709 H 0.89663 0.07948 0.30749 0.0
H710 H 0.84877 0.99755 0.3168 0.0
H711 H 0.89172 0.98078 0.32964 0.0
H712 H 0.84292 0.01034 0.29219 0.0
H713 H 0.83227 0.06503 0.33144 0.0
H714 H 0.84906 0.09859 0.34875 0.0
H715 H 0.86248 0.17055 0.32206 0.0
H716 H 0.84616 0.13727 0.30456 0.0
H717 H 0.69231 0.05105 0.27803 0.0
H718 H 0.73955 0.03692 0.28848 0.0
H719 H 0.78113 0.1194 0.27549 0.0
H720 H 0.7336 0.13387 0.26503 0.0
H721 H 0.79247 0.10836 0.30067 0.0
H722 H 0.7996 0.05401 0.26157 0.0
H723 H 0.78193 0.02021 0.24451 0.0
H724 H 0.77433 0.94731 0.27115 0.0
H725 H 0.79154 0.98081 0.28842 0.0
C726 C 0.91979 0.04859 0.31978 0.0
C727 C 0.91889 0.02074 0.32616 0.0
C728 C 0.89532 0.058 0.31236 0.0
C729 C 0.86933 0.03993 0.31131 0.0
C730 C 0.86859 0.01188 0.31749 0.0
C731 C 0.89313 0.00236 0.32485 0.0
C732 C 0.84279 0.0503 0.30384 0.0
C733 C 0.8317 0.03163 0.29413 0.0
C734 C 0.82866 0.07847 0.30615 0.0
C735 C 0.8383 0.09856 0.31667 0.0
C736 C 0.83902 0.08794 0.32925 0.0
C737 C 0.84841 0.10693 0.3391 0.0
C738 C 0.85691 0.13666 0.3365 0.0
C739 C 0.85594 0.1475 0.32405 0.0
C740 C 0.8466 0.12859 0.31417 0.0
C741 C 0.71152 0.06616 0.27734 0.0
C742 C 0.7093 0.09354 0.27069 0.0
C743 C 0.73854 0.05799 0.28328 0.0
C744 C 0.76394 0.07695 0.28264 0.0
C745 C 0.76179 0.10441 0.27606 0.0
C746 C 0.73471 0.11259 0.27006 0.0
C747 C 0.7924 0.06823 0.28914 0.0
C748 C 0.80385 0.0872 0.29867 0.0
C749 C 0.8068 0.04029 0.2867 0.0
C750 C 0.79664 0.02001 0.27631 0.0
C751 C 0.79395 0.03084 0.26382 0.0
C752 C 0.78405 0.01172 0.2541 0.0
C753 C 0.77696 0.98165 0.25675 0.0
C754 C 0.77982 0.97061 0.26911 0.0
C755 C 0.78968 0.98965 0.27887 0.0
H756 H 0.76929 0.96688 0.24922 0.0
H757 H 0.86419 0.15132 0.34414 0.0
H758 H 0.94988 0.44489 0.56743 0.0
H759 H 0.92664 0.40207 0.55657 0.0
H760 H 0.94054 0.34669 0.58972 0.0
H761 H 0.96404 0.38946 0.60068 0.0
H762 H 0.95673 0.31746 0.5682 0.0
H763 H 0.87098 0.37157 0.58324 0.0
H764 H 0.83867 0.41611 0.58688 0.0
H765 H 0.82719 0.42706 0.54667 0.0
H766 H 0.85983 0.38284 0.54277 0.0
H767 H 0.83325 0.21851 0.5382 0.0
H768 H 0.84647 0.26012 0.55257 0.0
H769 H 0.91986 0.2854 0.52778 0.0
H770 H 0.90665 0.24432 0.51333 0.0
H771 H 0.85489 0.32549 0.54844 0.0
H772 H 0.98175 0.29212 0.54812 0.0
H773 H 0.01266 0.24634 0.54501 0.0
H774 H 0.93885 0.19122 0.55783 0.0
H775 H 0.90777 0.23668 0.56139 0.0
C776 C 0.94806 0.42361 0.57243 0.0
C777 C 0.95879 0.42059 0.58493 0.0
C778 C 0.93459 0.39921 0.56623 0.0
C779 C 0.93151 0.37133 0.57241 0.0
C780 C 0.9426 0.36807 0.58482 0.0
C781 C 0.956 0.39253 0.59105 0.0
C782 C 0.91729 0.3455 0.56574 0.0
C783 C 0.93439 0.31915 0.56396 0.0
C784 C 0.88787 0.34749 0.56043 0.0
C785 C 0.86804 0.37399 0.56272 0.0
C786 C 0.86175 0.3836 0.57517 0.0
C787 C 0.84334 0.40877 0.57728 0.0
C788 C 0.83093 0.42443 0.56701 0.0
C789 C 0.83684 0.41491 0.55461 0.0
C790 C 0.85526 0.38976 0.55245 0.0
C791 C 0.85182 0.23332 0.5357 0.0
C792 C 0.86901 0.22813 0.52468 0.0
C793 C 0.85929 0.25704 0.5439 0.0
C794 C 0.88428 0.27552 0.54125 0.0
C795 C 0.90061 0.27118 0.52999 0.0
C796 C 0.89298 0.24776 0.52175 0.0
C797 C 0.89482 0.29813 0.55057 0.0
C798 C 0.87707 0.32377 0.55283 0.0
C799 C 0.92342 0.29531 0.55651 0.0
C800 C 0.94233 0.26785 0.55489 0.0
C801 C 0.97219 0.27026 0.55038 0.0
C802 C 0.98974 0.24436 0.54855 0.0
C803 C 0.9777 0.2159 0.55121 0.0
C804 C 0.94813 0.21328 0.55579 0.0
C805 C 0.93054 0.23912 0.55771 0.0
H806 H 0.99128 0.19587 0.54974 0.0
H807 H 0.81669 0.44392 0.56867 0.0
H808 H 0.58093 0.01653 0.43797 0.0
H809 H 0.62552 0.03143 0.45015 0.0
H810 H 0.58286 0.11614 0.45951 0.0
H811 H 0.53823 0.10159 0.44717 0.0
H812 H 0.64014 0.12443 0.45185 0.0
H813 H 0.58975 0.06083 0.48173 0.0
H814 H 0.56418 0.01474 0.48926 0.0
H815 H 0.64468 0.96313 0.48209 0.0
H816 H 0.67061 0.00885 0.47434 0.0
H817 H 0.75481 0.16592 0.49594 0.0
H818 H 0.70554 0.15257 0.48688 0.0
H819 H 0.74069 0.06558 0.47584 0.0
H820 H 0.78981 0.07858 0.48508 0.0
H821 H 0.68487 0.06035 0.48562 0.0
H822 H 0.73382 0.12328 0.45441 0.0
H823 H 0.75927 0.16924 0.44665 0.0
H824 H 0.68106 0.22206 0.45629 0.0
H825 H 0.65529 0.17645 0.46426 0.0
C826 C 0.58092 0.03827 0.44267 0.0
C827 C 0.556 0.05787 0.4416 0.0
C828 C 0.60639 0.0467 0.44968 0.0
C829 C 0.60738 0.07476 0.45586 0.0
C830 C 0.58253 0.09435 0.45484 0.0
C831 C 0.55702 0.08596 0.4478 0.0
C832 C 0.63484 0.08401 0.46298 0.0
C833 C 0.64963 0.1107 0.4594 0.0
C834 C 0.64752 0.06577 0.47264 0.0
C835 C 0.63204 0.03824 0.47735 0.0
C836 C 0.60193 0.03961 0.48167 0.0
C837 C 0.58739 0.01356 0.48599 0.0
C838 C 0.60277 0.98601 0.48613 0.0
C839 C 0.63278 0.98448 0.48197 0.0
C840 C 0.64742 0.01047 0.47762 0.0
C841 C 0.75198 0.1439 0.49163 0.0
C842 C 0.77618 0.12334 0.49115 0.0
C843 C 0.72386 0.13634 0.48642 0.0
C844 C 0.71956 0.10822 0.48054 0.0
C845 C 0.74352 0.08741 0.48032 0.0
C846 C 0.77159 0.09491 0.48557 0.0
C847 C 0.69032 0.10058 0.47439 0.0
C848 C 0.67521 0.0742 0.47815 0.0
C849 C 0.67733 0.11909 0.46488 0.0
C850 C 0.69277 0.14651 0.46006 0.0
C851 C 0.72214 0.14473 0.45497 0.0
C852 C 0.73661 0.17071 0.45051 0.0
C853 C 0.72182 0.19857 0.45101 0.0
C854 C 0.6925 0.20048 0.45593 0.0
C855 C 0.67795 0.17457 0.46041 0.0
H856 H 0.73305 0.21865 0.44756 0.0
H857 H 0.59147 0.96586 0.48948 0.0
H858 H 0.03656 0.12389 0.68631 0.0
H859 H 0.01563 0.16525 0.69893 0.0
H860 H 0.94065 0.10873 0.71003 0.0
H861 H 0.96117 0.06741 0.69734 0.0
H862 H 0.92153 0.1632 0.70224 0.0
H863 H 0.99643 0.12548 0.73104 0.0
H864 H 0.04738 0.10908 0.7377 0.0
H865 H 0.08251 0.19742 0.72977 0.0
H866 H 0.03183 0.21425 0.7229 0.0
H867 H 0.8638 0.26878 0.74721 0.0
H868 H 0.88439 0.22266 0.73768 0.0
H869 H 0.964 0.27169 0.72591 0.0
H870 H 0.94393 0.31749 0.73562 0.0
H871 H 0.9795 0.21844 0.73524 0.0
H872 H 0.90594 0.25513 0.70509 0.0
H873 H 0.85537 0.27178 0.69802 0.0
H874 H 0.81816 0.18556 0.70814 0.0
H875 H 0.86846 0.16854 0.71543 0.0
C876 C 0.01574 0.12018 0.69151 0.0
C877 C 0.00053 0.09236 0.69081 0.0
C878 C 0.00387 0.1438 0.69876 0.0
C879 C 0.97669 0.13998 0.70549 0.0
C880 C 0.96164 0.11215 0.7049 0.0
C881 C 0.97347 0.08854 0.69767 0.0
C882 C 0.96336 0.16537 0.71274 0.0
C883 C 0.934 0.17497 0.70961 0.0
C884 C 0.97989 0.18106 0.72217 0.0
C885 C 0.01037 0.17105 0.72635 0.0
C886 C 0.01506 0.14135 0.73062 0.0
C887 C 0.04389 0.13198 0.73445 0.0
C888 C 0.06818 0.15217 0.73413 0.0
C889 C 0.06368 0.1818 0.73 0.0
C890 C 0.0349 0.19127 0.72616 0.0
C891 C 0.88572 0.26964 0.74262 0.0
C892 C 0.90222 0.29672 0.74211 0.0
C893 C 0.89742 0.24334 0.73714 0.0
C894 C 0.92561 0.24382 0.73096 0.0
C895 C 0.94224 0.27077 0.73064 0.0
C896 C 0.93068 0.29695 0.73615 0.0
C897 C 0.9378 0.21648 0.72464 0.0
C898 C 0.96694 0.20651 0.72795 0.0
C899 C 0.92111 0.2005 0.71534 0.0
C900 C 0.89088 0.21069 0.71094 0.0
C901 C 0.88692 0.23981 0.7059 0.0
C902 C 0.85832 0.2493 0.70184 0.0
C903 C 0.83355 0.22977 0.70266 0.0
C904 C 0.83735 0.20068 0.70753 0.0
C905 C 0.8659 0.1911 0.71162 0.0
H906 H 0.81143 0.23716 0.69951 0.0
H907 H 0.09048 0.14488 0.7371 0.0
H908 H 0.95096 0.44267 0.94511 0.0
H909 H 0.90823 0.42269 0.95718 0.0
H910 H 0.86416 0.50945 0.95539 0.0
H911 H 0.90699 0.52978 0.94342 0.0
H912 H 0.85914 0.48395 0.97887 0.0
H913 H 0.84354 0.45349 0.93539 0.0
H914 H 0.85769 0.42956 0.9151 0.0
H915 H 0.86793 0.34422 0.93391 0.0
H916 H 0.85422 0.36775 0.95435 0.0
H917 H 0.70763 0.44282 0.99195 0.0
H918 H 0.75468 0.46121 0.98257 0.0
H919 H 0.79186 0.37121 0.98389 0.0
H920 H 0.7445 0.35253 0.99309 0.0
H921 H 0.80235 0.39658 0.96146 0.0
H922 H 0.81545 0.42587 0.00474 0.0
H923 H 0.80147 0.44938 0.02513 0.0
H924 H 0.79647 0.53611 0.0071 0.0
H925 H 0.81001 0.51305 0.98655 0.0
C926 C 0.93227 0.45759 0.94734 0.0
C927 C 0.93228 0.48779 0.94322 0.0
C928 C 0.90783 0.44609 0.95421 0.0
C929 C 0.88285 0.46448 0.95703 0.0
C930 C 0.88319 0.49486 0.95328 0.0
C931 C 0.90766 0.50641 0.94641 0.0
C932 C 0.856 0.45184 0.96358 0.0
C933 C 0.84651 0.46505 0.97501 0.0
C934 C 0.84006 0.42665 0.95871 0.0
C935 C 0.84816 0.41245 0.94641 0.0
C936 C 0.84904 0.42967 0.93521 0.0
C937 C 0.85694 0.41617 0.92368 0.0
C938 C 0.86379 0.38541 0.92322 0.0
C939 C 0.86267 0.36806 0.93428 0.0
C940 C 0.85481 0.38146 0.94584 0.0
C941 C 0.72587 0.42696 0.9903 0.0
C942 C 0.72242 0.39624 0.99327 0.0
C943 C 0.75282 0.43753 0.985 0.0
C944 C 0.77696 0.41766 0.98267 0.0
C945 C 0.77356 0.38695 0.98563 0.0
C946 C 0.74654 0.37633 0.99091 0.0
C947 C 0.80529 0.42882 0.97674 0.0
C948 C 0.81506 0.41534 0.9654 0.0
C949 C 0.82154 0.45369 0.98173 0.0
C950 C 0.8135 0.46768 0.99408 0.0
C951 C 0.81115 0.44992 0.0051 0.0
C952 C 0.80334 0.46317 0.01669 0.0
C953 C 0.79801 0.49421 0.0174 0.0
C954 C 0.80057 0.51207 0.00653 0.0
C955 C 0.80835 0.49893 0.99491 0.0
H956 H 0.79197 0.50443 0.02638 0.0
H957 H 0.8699 0.375 0.91429 0.0
H958 H 0.52728 0.3764 0.16607 0.0
H959 H 0.54393 0.33288 0.17859 0.0
H960 H 0.54151 0.38689 0.21261 0.0
H961 H 0.52403 0.43042 0.20021 0.0
H962 H 0.59868 0.34883 0.2066 0.0
H963 H 0.48962 0.34464 0.21194 0.0
H964 H 0.43704 0.34428 0.20404 0.0
H965 H 0.45585 0.2649 0.18202 0.0
H966 H 0.50871 0.26507 0.18965 0.0
H967 H 0.6226 0.22763 0.24997 0.0
H968 H 0.60628 0.27387 0.23923 0.0
H969 H 0.56956 0.22057 0.20852 0.0
H970 H 0.58433 0.17449 0.21957 0.0
H971 H 0.53144 0.26077 0.21369 0.0
H972 H 0.63858 0.26336 0.20671 0.0
H973 H 0.69274 0.26287 0.21244 0.0
H974 H 0.68059 0.34303 0.23478 0.0
H975 H 0.62625 0.34378 0.22931 0.0
C976 C 0.5302 0.37899 0.17622 0.0
C977 C 0.52429 0.40675 0.18218 0.0
C978 C 0.5397 0.35415 0.18334 0.0
C979 C 0.54394 0.35683 0.19648 0.0
C980 C 0.53836 0.38453 0.20246 0.0
C981 C 0.52824 0.40925 0.19539 0.0
C982 C 0.55405 0.33047 0.20393 0.0
C983 C 0.58397 0.32968 0.20836 0.0
C984 C 0.535 0.3053 0.20579 0.0
C985 C 0.50319 0.30506 0.20127 0.0
C986 C 0.48263 0.32729 0.20532 0.0
C987 C 0.45276 0.32708 0.20091 0.0
C988 C 0.44313 0.30463 0.19251 0.0
C989 C 0.46335 0.28229 0.18852 0.0
C990 C 0.49325 0.28242 0.19289 0.0
C991 C 0.61116 0.22591 0.2409 0.0
C992 C 0.60466 0.19756 0.2356 0.0
C993 C 0.60198 0.25232 0.23472 0.0
C994 C 0.58695 0.25083 0.22296 0.0
C995 C 0.58096 0.22241 0.2176 0.0
C996 C 0.5895 0.19607 0.2239 0.0
C997 C 0.57649 0.27864 0.21637 0.0
C998 C 0.54637 0.27981 0.21205 0.0
C999 C 0.59564 0.30388 0.21437 0.0
C1000 C 0.62828 0.30342 0.21772 0.0
C1001 C 0.64741 0.28074 0.21293 0.0
C1002 C 0.67815 0.28044 0.21611 0.0
C1003 C 0.69008 0.30285 0.224 0.0
C1004 C 0.67131 0.32565 0.22869 0.0
C1005 C 0.64054 0.32603 0.22555 0.0
H1006 H 0.71389 0.30259 0.22645 0.0
H1007 H 0.42 0.3045 0.18911 0.0
H1008 H 0.01054 0.93873 0.37597 0.0
H1009 H 0.01543 0.91507 0.3967 0.0
H1010 H 0.93377 0.95941 0.40921 0.0
H1011 H 0.92867 0.98334 0.38839 0.0
H1012 H 0.98097 0.97276 0.42407 0.0
H1013 H 0.93695 0.88274 0.40876 0.0
H1014 H 0.9279 0.84048 0.39401 0.0
H1015 H 0.01954 0.81038 0.39905 0.0
H1016 H 0.02932 0.8527 0.41369 0.0
H1017 H 0.02694 0.91904 0.48512 0.0
H1018 H 0.99624 0.9292 0.46617 0.0
H1019 H 0.06259 0.88352 0.44302 0.0
H1020 H 0.09275 0.87274 0.46185 0.0
H1021 H 0.00896 0.86797 0.43548 0.0
H1022 H 0.05788 0.96128 0.44603 0.0
H1023 H 0.07177 0.0066 0.45828 0.0
H1024 H 0.97849 0.03379 0.45948 0.0
H1025 H 0.96393 0.9882 0.44748 0.0
C1026 C 0.99305 0.94277 0.38297 0.0
C1027 C 0.96951 0.96338 0.38059 0.0
C1028 C 0.9958 0.92906 0.39483 0.0
C1029 C 0.97497 0.93547 0.40453 0.0
C1030 C 0.95008 0.95413 0.40186 0.0
C1031 C 0.9472 0.96775 0.38994 0.0
C1032 C 0.98215 0.92662 0.41777 0.0
C1033 C 0.98661 0.94977 0.42666 0.0
C1034 C 0.98965 0.89664 0.42108 0.0
C1035 C 0.98389 0.87103 0.4123 0.0
C1036 C 0.95525 0.86724 0.40666 0.0
C1037 C 0.94998 0.84324 0.39833 0.0
C1038 C 0.97314 0.82277 0.39559 0.0
C1039 C 0.00161 0.82624 0.40119 0.0
C1040 C 0.00702 0.85021 0.40953 0.0
C1041 C 0.03483 0.91108 0.47598 0.0
C1042 C 0.06226 0.89516 0.47495 0.0
C1043 C 0.01734 0.91696 0.46516 0.0
C1044 C 0.02719 0.90732 0.45314 0.0
C1045 C 0.05439 0.89107 0.45218 0.0
C1046 C 0.0717 0.88503 0.46296 0.0
C1047 C 0.00985 0.91452 0.44142 0.0
C1048 C 0.00313 0.89096 0.43292 0.0
C1049 C 0.00121 0.94438 0.43826 0.0
C1050 C 0.00972 0.97092 0.4461 0.0
C1051 C 0.04024 0.97656 0.44913 0.0
C1052 C 0.04825 0.00239 0.45598 0.0
C1053 C 0.026 0.02296 0.45973 0.0
C1054 C 0.99568 0.01773 0.45664 0.0
C1055 C 0.98752 0.99186 0.44985 0.0
H1056 H 0.03228 0.04304 0.46496 0.0
H1057 H 0.96901 0.80421 0.38914 0.0
H1058 H 0.03719 0.48371 0.63132 0.0
H1059 H 0.05812 0.48891 0.6527 0.0
H1060 H 0.11821 0.5588 0.63957 0.0
H1061 H 0.09704 0.55423 0.61814 0.0
H1062 H 0.14256 0.51618 0.65946 0.0
H1063 H 0.05949 0.58243 0.64927 0.0
H1064 H 0.00825 0.59526 0.64178 0.0
H1065 H 0.96943 0.5415 0.67147 0.0
H1066 H 0.02054 0.52736 0.67887 0.0
H1067 H 0.16605 0.60842 0.71382 0.0
H1068 H 0.15711 0.58572 0.69303 0.0
H1069 H 0.08218 0.53502 0.70839 0.0
H1070 H 0.09064 0.55821 0.72918 0.0
H1071 H 0.06579 0.56319 0.68761 0.0
H1072 H 0.14905 0.50033 0.69912 0.0
H1073 H 0.20044 0.48851 0.70681 0.0
H1074 H 0.23894 0.53704 0.67547 0.0
H1075 H 0.18776 0.54955 0.66768 0.0
C1076 C 0.05548 0.49958 0.63286 0.0
C1077 C 0.06522 0.51886 0.62308 0.0
C1078 C 0.06733 0.50252 0.64509 0.0
C1079 C 0.08936 0.52444 0.64768 0.0
C1080 C 0.10119 0.54175 0.63771 0.0
C1081 C 0.08899 0.53919 0.6255 0.0
C1082 C 0.09674 0.53224 0.66097 0.0
C1083 C 0.12593 0.5266 0.66564 0.0
C1084 C 0.07471 0.5453 0.66903 0.0
C1085 C 0.04391 0.55327 0.66445 0.0
C1086 C 0.04007 0.57278 0.65404 0.0
C1087 C 0.01104 0.58036 0.64983 0.0
C1088 C 0.98561 0.56901 0.65609 0.0
C1089 C 0.98917 0.55004 0.66657 0.0
C1090 C 0.01817 0.54217 0.67075 0.0
C1091 C 0.14793 0.59213 0.71281 0.0
C1092 C 0.12894 0.58519 0.7231 0.0
C1093 C 0.14296 0.579 0.70093 0.0
C1094 C 0.11913 0.55844 0.69916 0.0
C1095 C 0.10072 0.5508 0.70954 0.0
C1096 C 0.10559 0.56403 0.72141 0.0
C1097 C 0.11174 0.54711 0.68626 0.0
C1098 C 0.08244 0.55229 0.68158 0.0
C1099 C 0.13369 0.53365 0.67825 0.0
C1100 C 0.16453 0.52609 0.68287 0.0
C1101 C 0.16846 0.50869 0.69392 0.0
C1102 C 0.19756 0.50183 0.69828 0.0
C1103 C 0.22294 0.51207 0.69165 0.0
C1104 C 0.21926 0.52914 0.6806 0.0
C1105 C 0.19021 0.53609 0.6762 0.0
H1106 H 0.24544 0.50673 0.69504 0.0
H1107 H 0.96315 0.57513 0.65287 0.0
H1108 H 0.49191 0.5562 0.87769 0.0
H1109 H 0.48904 0.57994 0.89847 0.0
H1110 H 0.56353 0.52516 0.91156 0.0
H1111 H 0.56639 0.50093 0.89072 0.0
H1112 H 0.51531 0.51838 0.92624 0.0
H1113 H 0.57035 0.60197 0.91114 0.0
H1114 H 0.58537 0.64255 0.89645 0.0
H1115 H 0.49802 0.68394 0.9006 0.0
H1116 H 0.48228 0.64337 0.91518 0.0
H1117 H 0.47356 0.58029 0.98676 0.0
H1118 H 0.50384 0.56572 0.96821 0.0
H1119 H 0.44311 0.61568 0.94393 0.0
H1120 H 0.41335 0.6307 0.96234 0.0
H1121 H 0.49923 0.62596 0.93712 0.0
H1122 H 0.44018 0.53847 0.94822 0.0
H1123 H 0.42207 0.49553 0.96097 0.0
H1124 H 0.51211 0.45907 0.96217 0.0
H1125 H 0.53095 0.50227 0.94971 0.0
C1126 C 0.5083 0.54976 0.88484 0.0
C1127 C 0.52907 0.52633 0.8826 0.0
C1128 C 0.50675 0.56352 0.89674 0.0
C1129 C 0.5261 0.55437 0.90659 0.0
C1130 C 0.54842 0.5326 0.90409 0.0
C1131 C 0.55003 0.51882 0.89216 0.0
C1132 C 0.51968 0.5642 0.91979 0.0
C1133 C 0.51231 0.54192 0.92872 0.0
C1134 C 0.51575 0.59493 0.92298 0.0
C1135 C 0.5251 0.6195 0.91423 0.0
C1136 C 0.55426 0.6196 0.90886 0.0
C1137 C 0.56292 0.64263 0.90056 0.0
C1138 C 0.54266 0.6658 0.89759 0.0
C1139 C 0.5137 0.66599 0.90292 0.0
C1140 C 0.50492 0.64301 0.91123 0.0
C1141 C 0.4668 0.5882 0.97745 0.0
C1142 C 0.44106 0.60657 0.97599 0.0
C1143 C 0.48405 0.57982 0.96687 0.0
C1144 C 0.47565 0.58946 0.95465 0.0
C1145 C 0.45015 0.60807 0.95325 0.0
C1146 C 0.43305 0.61654 0.96379 0.0
C1147 C 0.49278 0.57998 0.94319 0.0
C1148 C 0.50249 0.6024 0.93468 0.0
C1149 C 0.49822 0.54925 0.94024 0.0
C1150 C 0.48713 0.52405 0.94828 0.0
C1151 C 0.45626 0.52167 0.95143 0.0
C1152 C 0.44584 0.49721 0.95857 0.0
C1153 C 0.46597 0.4747 0.96246 0.0
C1154 C 0.49658 0.47664 0.95923 0.0
C1155 C 0.50716 0.50116 0.95216 0.0
H1156 H 0.45781 0.45567 0.9679 0.0
H1157 H 0.54941 0.68361 0.89116 0.0
H1158 H 0.41376 0.95045 0.12597 0.0
H1159 H 0.38976 0.95082 0.14674 0.0
H1160 H 0.43139 0.03663 0.15514 0.0
H1161 H 0.45598 0.03621 0.13434 0.0
H1162 H 0.44449 0.99758 0.17267 0.0
H1163 H 0.35332 0.02976 0.15435 0.0
H1164 H 0.31134 0.0322 0.13895 0.0
H1165 H 0.28569 0.94146 0.14832 0.0
H1166 H 0.32778 0.93826 0.16364 0.0
H1167 H 0.39388 0.95944 0.23459 0.0
H1168 H 0.40027 0.98784 0.21483 0.0
H1169 H 0.35944 0.91451 0.19392 0.0
H1170 H 0.35196 0.88674 0.21364 0.0
H1171 H 0.34102 0.96453 0.18428 0.0
H1172 H 0.43752 0.92601 0.19779 0.0
H1173 H 0.48322 0.91899 0.21088 0.0
H1174 H 0.50327 0.01352 0.20802 0.0
H1175 H 0.45721 0.02129 0.19517 0.0
C1176 C 0.41725 0.9698 0.13208 0.0
C1177 C 0.4371 0.9931 0.12855 0.0
C1178 C 0.40325 0.97013 0.14395 0.0
C1179 C 0.40856 0.99388 0.1525 0.0
C1180 C 0.42684 0.01815 0.14868 0.0
C1181 C 0.44089 0.01784 0.13679 0.0
C1182 C 0.39906 0.9906 0.16595 0.0
C1183 C 0.42178 0.99069 0.17525 0.0
C1184 C 0.36931 0.98201 0.16934 0.0
C1185 C 0.34384 0.98376 0.16014 0.0
C1186 C 0.33887 0.01024 0.15307 0.0
C1187 C 0.31502 0.01177 0.14436 0.0
C1188 C 0.29587 0.987 0.14265 0.0
C1189 C 0.30052 0.96065 0.14966 0.0
C1190 C 0.32434 0.95899 0.15838 0.0
C1191 C 0.38603 0.94957 0.22577 0.0
C1192 C 0.37262 0.92081 0.22562 0.0
C1193 C 0.38976 0.96577 0.21449 0.0
C1194 C 0.38074 0.95316 0.20284 0.0
C1195 C 0.36652 0.9248 0.20277 0.0
C1196 C 0.36238 0.90885 0.21405 0.0
C1197 C 0.38728 0.96849 0.1906 0.0
C1198 C 0.36377 0.97134 0.18167 0.0
C1199 C 0.41671 0.97872 0.18737 0.0
C1200 C 0.44345 0.97437 0.19575 0.0
C1201 C 0.45125 0.94545 0.20019 0.0
C1202 C 0.47732 0.9413 0.20752 0.0
C1203 C 0.49603 0.96583 0.21036 0.0
C1204 C 0.48865 0.99458 0.20589 0.0
C1205 C 0.46251 0.99888 0.19861 0.0
H1206 H 0.51634 0.96253 0.21594 0.0
H1207 H 0.27742 0.98823 0.1359 0.0
H1208 H 0.99178 0.53021 0.88226 0.0
H1209 H 0.00214 0.54633 0.86054 0.0
H1210 H 0.04891 0.62489 0.87465 0.0
H1211 H 0.03959 0.60835 0.89653 0.0
H1212 H 0.00919 0.63434 0.85239 0.0
H1213 H 0.08911 0.57297 0.8682 0.0
H1214 H 0.11567 0.52926 0.87733 0.0
H1215 H 0.08693 0.47423 0.84602 0.0
H1216 H 0.05897 0.51728 0.83697 0.0
H1217 H 0.10308 0.66699 0.79854 0.0
H1218 H 0.08094 0.65812 0.81948 0.0
H1219 H 0.04607 0.57245 0.8066 0.0
H1220 H 0.06832 0.5811 0.78564 0.0
H1221 H 0.07886 0.56772 0.82832 0.0
H1222 H 0.99848 0.63061 0.81266 0.0
H1223 H 0.97662 0.67633 0.80298 0.0
H1224 H 0.01166 0.73017 0.83354 0.0
H1225 H 0.03412 0.68482 0.84332 0.0
C1226 C 0.00364 0.55132 0.88079 0.0
C1227 C 0.01503 0.56797 0.89113 0.0
C1228 C 0.00967 0.56037 0.86836 0.0
C1229 C 0.02656 0.58656 0.86604 0.0
C1230 C 0.03592 0.60453 0.87629 0.0
C1231 C 0.03054 0.5951 0.88876 0.0
C1232 C 0.03622 0.59394 0.85297 0.0
C1233 C 0.02459 0.61993 0.84714 0.0
C1234 C 0.05611 0.57485 0.84614 0.0
C1235 C 0.07131 0.54834 0.85202 0.0
C1236 C 0.08771 0.5514 0.86341 0.0
C1237 C 0.10321 0.52675 0.86855 0.0
C1238 C 0.10298 0.49897 0.86227 0.0
C1239 C 0.08714 0.49577 0.85087 0.0
C1240 C 0.07127 0.52025 0.84578 0.0
C1241 C 0.09032 0.64646 0.80011 0.0
C1242 C 0.08755 0.62465 0.79048 0.0
C1243 C 0.07755 0.6415 0.81206 0.0
C1244 C 0.06175 0.61469 0.81457 0.0
C1245 C 0.05816 0.59331 0.80484 0.0
C1246 C 0.07084 0.5983 0.79288 0.0
C1247 C 0.05133 0.60772 0.82761 0.0
C1248 C 0.06308 0.58189 0.8335 0.0
C1249 C 0.03183 0.62705 0.8345 0.0
C1250 C 0.01822 0.65433 0.82867 0.0
C1251 C 0.00174 0.65223 0.81727 0.0
C1252 C 0.9892 0.67808 0.81177 0.0
C1253 C 0.99281 0.70615 0.81762 0.0
C1254 C 0.00891 0.70842 0.82901 0.0
C1255 C 0.02152 0.68264 0.83454 0.0
H1256 H 0.98308 0.72613 0.81335 0.0
H1257 H 0.11506 0.47993 0.86624 0.0
H1258 H 0.41838 0.52313 0.14239 0.0
H1259 H 0.39937 0.53777 0.12157 0.0
H1260 H 0.41915 0.44889 0.10714 0.0
H1261 H 0.43906 0.4342 0.12797 0.0
H1262 H 0.44622 0.4917 0.09322 0.0
H1263 H 0.34641 0.47411 0.10861 0.0
H1264 H 0.30354 0.47746 0.12352 0.0
H1265 H 0.30137 0.57372 0.11898 0.0
H1266 H 0.34453 0.57102 0.10418 0.0
H1267 H 0.40066 0.53925 0.03161 0.0
H1268 H 0.40287 0.51101 0.05156 0.0
H1269 H 0.38256 0.59241 0.07239 0.0
H1270 H 0.37948 0.62051 0.05249 0.0
H1271 H 0.35188 0.54635 0.08201 0.0
H1272 H 0.45775 0.56438 0.07105 0.0
H1273 H 0.50226 0.56257 0.05689 0.0
H1274 H 0.49264 0.4665 0.05341 0.0
H1275 H 0.44797 0.46783 0.06751 0.0
C1276 C 0.41795 0.50636 0.1349 0.0
C1277 C 0.43064 0.47759 0.13677 0.0
C1278 C 0.40701 0.51479 0.12298 0.0
C1279 C 0.40809 0.49447 0.11276 0.0
C1280 C 0.41854 0.465 0.11486 0.0
C1281 C 0.42974 0.45662 0.12676 0.0
C1282 C 0.40189 0.50519 0.09967 0.0
C1283 C 0.42524 0.50295 0.09068 0.0
C1284 C 0.3749 0.52061 0.09645 0.0
C1285 C 0.34887 0.52236 0.10534 0.0
C1286 C 0.33695 0.49602 0.11086 0.0
C1287 C 0.31256 0.4978 0.11928 0.0
C1288 C 0.29977 0.52579 0.12221 0.0
C1289 C 0.31131 0.55205 0.1167 0.0
C1290 C 0.33571 0.5504 0.10828 0.0
C1291 C 0.39662 0.55107 0.04045 0.0
C1292 C 0.39008 0.5821 0.04051 0.0
C1293 C 0.39796 0.53495 0.05184 0.0
C1294 C 0.39326 0.54967 0.06349 0.0
C1295 C 0.38623 0.58056 0.06353 0.0
C1296 C 0.38462 0.59662 0.05215 0.0
C1297 C 0.39637 0.53323 0.0757 0.0
C1298 C 0.37254 0.5345 0.08451 0.0
C1299 C 0.42295 0.51702 0.07881 0.0
C1300 C 0.44954 0.51621 0.07026 0.0
C1301 C 0.46508 0.54291 0.06721 0.0
C1302 C 0.49034 0.54196 0.05921 0.0
C1303 C 0.50026 0.51443 0.05425 0.0
C1304 C 0.4849 0.48781 0.05724 0.0
C1305 C 0.45966 0.48864 0.06525 0.0
H1306 H 0.51987 0.51372 0.04809 0.0
H1307 H 0.28089 0.52712 0.12873 0.0
H1308 H 0.49321 0.92462 0.39201 0.0
H1309 H 0.48162 0.89908 0.37196 0.0
H1310 H 0.53008 0.96802 0.35146 0.0
H1311 H 0.54205 0.99349 0.37137 0.0
H1312 H 0.46813 0.96137 0.34495 0.0
H1313 H 0.55728 0.9 0.35092 0.0
H1314 H 0.5904 0.86504 0.3627 0.0
H1315 H 0.51921 0.79907 0.36362 0.0
H1316 H 0.4855 0.83382 0.352 0.0
H1317 H 0.44951 0.91388 0.28239 0.0
H1318 H 0.47579 0.92538 0.30224 0.0
H1319 H 0.42873 0.85243 0.3208 0.0
H1320 H 0.40219 0.84081 0.30095 0.0
H1321 H 0.48993 0.8585 0.32872 0.0
H1322 H 0.40074 0.91705 0.32325 0.0
H1323 H 0.36494 0.95096 0.31239 0.0
H1324 H 0.43139 0.02166 0.31251 0.0
H1325 H 0.46789 0.98778 0.32317 0.0
C1326 C 0.50214 0.93386 0.38326 0.0
C1327 C 0.51831 0.96122 0.38327 0.0
C1328 C 0.49555 0.9192 0.37183 0.0
C1329 C 0.50493 0.93178 0.36027 0.0
C1330 C 0.5227 0.95799 0.36031 0.0
C1331 C 0.52957 0.97246 0.37172 0.0
C1332 C 0.49278 0.92017 0.34814 0.0
C1333 C 0.47333 0.93908 0.34127 0.0
C1334 C 0.49849 0.89057 0.34374 0.0
C1335 C 0.51876 0.86964 0.3507 0.0
C1336 C 0.54858 0.87815 0.35374 0.0
C1337 C 0.56749 0.85835 0.36037 0.0
C1338 C 0.55689 0.82989 0.36394 0.0
C1339 C 0.52738 0.82114 0.36086 0.0
C1340 C 0.50838 0.84087 0.35424 0.0
C1341 C 0.44511 0.89996 0.29064 0.0
C1342 C 0.42354 0.87669 0.29018 0.0
C1343 C 0.46016 0.90654 0.30195 0.0
C1344 C 0.45392 0.88993 0.31299 0.0
C1345 C 0.43382 0.86547 0.31237 0.0
C1346 C 0.41858 0.85899 0.30106 0.0
C1347 C 0.46604 0.90013 0.32535 0.0
C1348 C 0.48502 0.88089 0.33234 0.0
C1349 C 0.45943 0.9293 0.33006 0.0
C1350 C 0.43737 0.94967 0.32371 0.0
C1351 C 0.40795 0.93965 0.32078 0.0
C1352 C 0.38747 0.95888 0.31469 0.0
C1353 C 0.39599 0.98837 0.31166 0.0
C1354 C 0.42494 0.99872 0.31477 0.0
C1355 C 0.44554 0.97951 0.3208 0.0
H1356 H 0.38009 0.00325 0.30698 0.0
H1357 H 0.57156 0.81459 0.36907 0.0
H1358 H 0.1016 0.95127 0.64329 0.0
H1359 H 0.11958 0.94946 0.62145 0.0
H1360 H 0.08422 0.03887 0.61489 0.0
H1361 H 0.06586 0.04073 0.63678 0.0
H1362 H 0.0618 -0.00024 0.59835 0.0
H1363 H 0.1603 0.02534 0.61205 0.0
H1364 H 0.2062 0.02374 0.62536 0.0
H1365 H 0.22132 0.9315 0.61462 0.0
H1366 H 0.17527 0.93235 0.60138 0.0
H1367 H 0.09726 0.9671 0.53349 0.0
H1368 H 0.09561 0.99263 0.55413 0.0
H1369 H 0.13393 0.9136 0.5719 0.0
H1370 H 0.13658 0.88856 0.55133 0.0
H1371 H 0.15916 0.9612 0.58148 0.0
H1372 H 0.05546 0.93187 0.57226 0.0
H1373 H 0.00721 0.9311 0.56045 0.0
H1374 H 8e-05 0.02735 0.56402 0.0
H1375 H 0.04852 0.02873 0.57573 0.0
C1376 C 0.09846 0.97093 0.63733 0.0
C1377 C 0.08208 0.99601 0.64173 0.0
C1378 C 0.1089 0.96994 0.62483 0.0
C1379 C 0.10328 0.99405 0.61651 0.0
C1380 C 0.08885 0.02004 0.62115 0.0
C1381 C 0.07851 0.02112 0.63369 0.0
C1382 C 0.10842 0.98996 0.60269 0.0
C1383 C 0.08326 0.99192 0.59458 0.0
C1384 C 0.13636 0.97956 0.59782 0.0
C1385 C 0.1642 0.9789 0.60575 0.0
C1386 C 0.17328 0.00463 0.61259 0.0
C1387 C 0.19936 0.00387 0.62011 0.0
C1388 C 0.21665 0.97753 0.62085 0.0
C1389 C 0.20792 0.9519 0.61404 0.0
C1390 C 0.18185 0.95253 0.6065 0.0
C1391 C 0.10543 0.95529 0.54181 0.0
C1392 C 0.11696 0.92582 0.54081 0.0
C1393 C 0.10438 0.96984 0.55361 0.0
C1394 C 0.11434 0.95494 0.56462 0.0
C1395 C 0.12621 0.92565 0.56356 0.0
C1396 C 0.1276 0.91129 0.55179 0.0
C1397 C 0.11202 0.96922 0.57736 0.0
C1398 C 0.1378 0.96942 0.58521 0.0
C1399 C 0.08447 0.98118 0.58207 0.0
C1400 C 0.05589 0.98046 0.57466 0.0
C1401 C 0.04384 0.95292 0.57036 0.0
C1402 C 0.01642 0.95237 0.56371 0.0
C1403 C 0.00072 0.97919 0.5614 0.0
C1404 C 0.0124 0.00663 0.56573 0.0
C1405 C 0.03983 0.00731 0.57237 0.0
H1406 H 0.97938 0.97868 0.55634 0.0
H1407 H 0.23683 0.97698 0.62668 0.0
H1408 H 0.45273 0.41494 0.8831 0.0
H1409 H 0.45726 0.39568 0.90482 0.0
H1410 H 0.5483 0.36595 0.89676 0.0
H1411 H 0.54351 0.38377 0.87507 0.0
H1412 H 0.52224 0.32884 0.9131 0.0
H1413 H 0.52504 0.43991 0.90722 0.0
H1414 H 0.49893 0.48726 0.90164 0.0
H1415 H 0.43498 0.47319 0.93166 0.0
H1416 H 0.45964 0.42492 0.93704 0.0
H1417 H 0.62315 0.34902 0.9628 0.0
H1418 H 0.59275 0.35004 0.94349 0.0
H1419 H 0.51613 0.38303 0.96483 0.0
H1420 H 0.54699 0.38309 0.98417 0.0
H1421 H 0.51967 0.41297 0.94417 0.0
H1422 H 0.51871 0.30885 0.95295 0.0
H1423 H 0.5387 0.25878 0.95876 0.0
H1424 H 0.59335 0.25772 0.92507 0.0
H1425 H 0.57405 0.30798 0.91914 0.0
C1426 C 0.47337 0.40349 0.88587 0.0
C1427 C 0.49802 0.40145 0.87744 0.0
C1428 C 0.47596 0.39261 0.8983 0.0
C1429 C 0.50346 0.38024 0.90254 0.0
C1430 C 0.52695 0.37568 0.89377 0.0
C1431 C 0.5242 0.38601 0.88133 0.0
C1432 C 0.50976 0.3752 0.91622 0.0
C1433 C 0.52164 0.34718 0.91992 0.0
C1434 C 0.50762 0.39874 0.92531 0.0
C1435 C 0.49386 0.42849 0.92238 0.0
C1436 C 0.50529 0.44678 0.91258 0.0
C1437 C 0.4907 0.47375 0.90943 0.0
C1438 C 0.46541 0.48328 0.9163 0.0
C1439 C 0.45454 0.46577 0.92633 0.0
C1440 C 0.46866 0.43848 0.92937 0.0
C1441 C 0.59978 0.35634 0.96339 0.0
C1442 C 0.58741 0.36591 0.97498 0.0
C1443 C 0.5823 0.35666 0.95236 0.0
C1444 C 0.55187 0.36593 0.95273 0.0
C1445 C 0.53946 0.37556 0.96432 0.0
C1446 C 0.5571 0.3756 0.97535 0.0
C1447 C 0.53385 0.36709 0.94082 0.0
C1448 C 0.51968 0.39431 0.93749 0.0
C1449 C 0.53335 0.34266 0.93215 0.0
C1450 C 0.54499 0.31229 0.93562 0.0
C1451 C 0.53513 0.29803 0.94681 0.0
C1452 C 0.54632 0.2696 0.95012 0.0
C1453 C 0.5673 0.25509 0.94229 0.0
C1454 C 0.57708 0.26897 0.93112 0.0
C1455 C 0.56598 0.29742 0.92777 0.0
H1456 H 0.57594 0.23308 0.94487 0.0
H1457 H 0.45435 0.50432 0.9139 0.0
H1458 H 0.54605 0.9168 0.13845 0.0
H1459 H 0.56936 0.92001 0.15948 0.0
H1460 H 0.6157 0.00144 0.14834 0.0
H1461 H 0.59334 0.99797 0.12726 0.0
H1462 H 0.64795 0.968 0.16667 0.0
H1463 H 0.54293 0.00677 0.15975 0.0
H1464 H 0.49237 0.99357 0.15145 0.0
H1465 H 0.48622 0.92051 0.17806 0.0
H1466 H 0.53685 0.93325 0.18648 0.0
H1467 H 0.65101 0.08015 0.21257 0.0
H1468 H 0.64491 0.04646 0.1945 0.0
H1469 H 0.58819 0.98789 0.21699 0.0
H1470 H 0.59334 0.02242 0.23506 0.0
H1471 H 0.56304 0.9948 0.19544 0.0
H1472 H 0.66179 0.9666 0.20718 0.0
H1473 H 0.71495 0.97247 0.21389 0.0
H1474 H 0.73565 0.01725 0.17882 0.0
H1475 H 0.6825 0.01209 0.17197 0.0
C1476 C 0.56201 0.93482 0.14033 0.0
C1477 C 0.56718 0.9576 0.1313 0.0
C1478 C 0.57534 0.93659 0.15236 0.0
C1479 C 0.5936 0.96141 0.15556 0.0
C1480 C 0.60152 0.9822 0.1461 0.0
C1481 C 0.58849 0.98028 0.13405 0.0
C1482 C 0.59962 0.96925 0.16902 0.0
C1483 C 0.62954 0.97376 0.17304 0.0
C1484 C 0.57553 0.9757 0.17745 0.0
C1485 C 0.5436 0.97086 0.17369 0.0
C1486 C 0.53056 0.98817 0.16394 0.0
C1487 C 0.502 0.98065 0.15916 0.0
C1488 C 0.4862 0.95606 0.16416 0.0
C1489 C 0.49856 0.93945 0.17417 0.0
C1490 C 0.52713 0.94687 0.17898 0.0
C1491 C 0.63751 0.05994 0.21372 0.0
C1492 C 0.62269 0.0539 0.22523 0.0
C1493 C 0.63423 0.04049 0.2034 0.0
C1494 C 0.61659 0.01419 0.20441 0.0
C1495 C 0.60208 0.00789 0.21598 0.0
C1496 C 0.60506 0.02761 0.2263 0.0
C1497 C 0.61166 0.99481 0.19306 0.0
C1498 C 0.58177 0.98828 0.18937 0.0
C1499 C 0.63593 0.98593 0.18506 0.0
C1500 C 0.66805 0.98905 0.18908 0.0
C1501 C 0.67762 0.97787 0.20092 0.0
C1502 C 0.70777 0.98106 0.20475 0.0
C1503 C 0.72866 0.99525 0.19679 0.0
C1504 C 0.71944 0.00624 0.18497 0.0
C1505 C 0.68931 0.00314 0.1811 0.0
H1506 H 0.75199 0.9977 0.19977 0.0
H1507 H 0.46428 0.94999 0.16033 0.0
H1508 H 0.04054 0.08036 0.38025 0.0
H1509 H 0.03726 0.10332 0.40134 0.0
H1510 H 0.94833 0.13744 0.39231 0.0
H1511 H 0.95175 0.11543 0.37118 0.0
H1512 H 0.97863 0.17513 0.40855 0.0
H1513 H 0.96202 0.06585 0.40368 0.0
H1514 H 0.98179 0.01593 0.39774 0.0
H1515 H 0.04916 0.02191 0.427 0.0
H1516 H 0.03082 0.07273 0.43271 0.0
H1517 H 0.87979 0.16842 0.46001 0.0
H1518 H 0.90872 0.1651 0.44036 0.0
H1519 H 0.98186 0.12151 0.4605 0.0
H1520 H 0.95219 0.12351 0.4801 0.0
H1521 H 0.97321 0.09274 0.44034 0.0
H1522 H 0.98728 0.19634 0.44819 0.0
H1523 H 0.97416 0.24877 0.45374 0.0
H1524 H 0.91781 0.25511 0.42062 0.0
H1525 H 0.9302 0.20255 0.41496 0.0
C1526 C 0.02067 0.09352 0.38262 0.0
C1527 C 0.99607 0.09544 0.37415 0.0
C1528 C 0.01885 0.10664 0.39468 0.0
C1529 C 0.99221 0.12137 0.3985 0.0
C1530 C 0.969 0.12596 0.3896 0.0
C1531 C 0.97093 0.11317 0.37752 0.0
C1532 C 0.98612 0.12792 0.41207 0.0
C1533 C 0.97747 0.15723 0.41555 0.0
C1534 C 0.98582 0.10471 0.42133 0.0
C1535 C 0.99544 0.07337 0.41844 0.0
C1536 C 0.98116 0.05662 0.4088 0.0
C1537 C 0.99216 0.02816 0.40546 0.0
C1538 C 0.01677 0.01573 0.41195 0.0
C1539 C 0.03025 0.03165 0.42191 0.0
C1540 C 0.01968 0.06038 0.42515 0.0
C1541 C 0.90214 0.15836 0.46026 0.0
C1542 C 0.91373 0.14616 0.47155 0.0
C1543 C 0.91884 0.15673 0.44904 0.0
C1544 C 0.94782 0.14359 0.44895 0.0
C1545 C 0.95963 0.13186 0.46031 0.0
C1546 C 0.94267 0.133 0.4715 0.0
C1547 C 0.96447 0.1399 0.43678 0.0
C1548 C 0.97505 0.11103 0.43354 0.0
C1549 C 0.96714 0.16368 0.42786 0.0
C1550 C 0.95958 0.19539 0.43119 0.0
C1551 C 0.97193 0.20883 0.44213 0.0
C1552 C 0.96464 0.2386 0.44529 0.0
C1553 C 0.94514 0.25525 0.43754 0.0
C1554 C 0.93292 0.24218 0.42661 0.0
C1555 C 0.94011 0.21241 0.42341 0.0
H1556 H 0.93952 0.2783 0.44001 0.0
H1557 H 0.02523 0.99367 0.40932 0.0
H1558 H 0.94663 0.53966 0.63286 0.0
H1559 H 0.92869 0.52908 0.6543 0.0
H1560 H 0.86151 0.46822 0.63932 0.0
H1561 H 0.87929 0.47848 0.61774 0.0
H1562 H 0.84243 0.50191 0.66151 0.0
H1563 H 0.92348 0.4401 0.64642 0.0
H1564 H 0.9734 0.42864 0.6372 0.0
H1565 H 0.01715 0.47257 0.66857 0.0
H1566 H 0.96744 0.48519 0.67779 0.0
H1567 H 0.83041 0.40178 0.71479 0.0
H1568 H 0.83483 0.42588 0.69399 0.0
H1569 H 0.90976 0.47922 0.70772 0.0
H1570 H 0.90568 0.45499 0.72849 0.0
H1571 H 0.92333 0.45048 0.68605 0.0
H1572 H 0.84124 0.51148 0.70133 0.0
H1573 H 0.79085 0.52106 0.71055 0.0
H1574 H 0.74882 0.47532 0.67921 0.0
H1575 H 0.799 0.46508 0.66988 0.0
C1576 C 0.92749 0.52463 0.63405 0.0
C1577 C 0.91476 0.50945 0.62359 0.0
C1578 C 0.91734 0.51863 0.64632 0.0
C1579 C 0.89425 0.4975 0.64836 0.0
C1580 C 0.87947 0.48453 0.63791 0.0
C1581 C 0.88973 0.49037 0.62559 0.0
C1582 C 0.88851 0.4861 0.66133 0.0
C1583 C 0.85997 0.49046 0.66687 0.0
C1584 C 0.91161 0.4714 0.66831 0.0
C1585 C 0.94163 0.46418 0.66267 0.0
C1586 C 0.9437 0.44785 0.65124 0.0
C1587 C 0.97199 0.44107 0.64603 0.0
C1588 C 0.99843 0.45003 0.65225 0.0
C1589 C 0.99664 0.46583 0.66371 0.0
C1590 C 0.9684 0.47286 0.66892 0.0
C1591 C 0.84756 0.41893 0.71342 0.0
C1592 C 0.86782 0.4264 0.72324 0.0
C1593 C 0.84995 0.4328 0.70155 0.0
C1594 C 0.87252 0.45447 0.69933 0.0
C1595 C 0.89217 0.46257 0.70924 0.0
C1596 C 0.8898 0.44873 0.7211 0.0
C1597 C 0.87739 0.46676 0.68641 0.0
C1598 C 0.90581 0.46226 0.68079 0.0
C1599 C 0.85413 0.48109 0.67938 0.0
C1600 C 0.82392 0.48727 0.68496 0.0
C1601 C 0.82128 0.50323 0.69645 0.0
C1602 C 0.79274 0.50883 0.70169 0.0
C1603 C 0.76666 0.49874 0.69549 0.0
C1604 C 0.76905 0.48309 0.68402 0.0
C1605 C 0.79753 0.47742 0.67874 0.0
H1606 H 0.74459 0.5031 0.69956 0.0
H1607 H 0.02031 0.44451 0.64825 0.0
H1608 H 0.50164 0.09038 0.38748 0.0
H1609 H 0.51315 0.11053 0.36646 0.0
H1610 H 0.44845 0.04933 0.34972 0.0
H1611 H 0.43705 0.02883 0.37067 0.0
H1612 H 0.50219 0.04381 0.33881 0.0
H1613 H 0.43706 0.12613 0.34925 0.0
H1614 H 0.41692 0.16791 0.3622 0.0
H1615 H 0.50258 0.21347 0.36003 0.0
H1616 H 0.52338 0.17176 0.34721 0.0
H1617 H 0.53329 0.09121 0.2768 0.0
H1618 H 0.50374 0.08533 0.29628 0.0
H1619 H 0.56833 0.14022 0.31658 0.0
H1620 H 0.59762 0.1468 0.29707 0.0
H1621 H 0.50946 0.15042 0.32473 0.0
H1622 H 0.57681 0.06302 0.31982 0.0
H1623 H 0.59901 0.02136 0.30732 0.0
H1624 H 0.50993 0.98732 0.29927 0.0
H1625 H 0.48742 0.02936 0.31147 0.0
C1626 C 0.4893 0.08171 0.37937 0.0
C1627 C 0.46859 0.05782 0.38076 0.0
C1628 C 0.49583 0.09335 0.36735 0.0
C1629 C 0.48163 0.08148 0.3565 0.0
C1630 C 0.4597 0.05882 0.35795 0.0
C1631 C 0.45315 0.04718 0.36996 0.0
C1632 C 0.4922 0.09009 0.34363 0.0
C1633 C 0.50309 0.06711 0.33567 0.0
C1634 C 0.49426 0.12054 0.33962 0.0
C1635 C 0.48185 0.14567 0.34735 0.0
C1636 C 0.45169 0.14493 0.35163 0.0
C1637 C 0.44014 0.16863 0.35893 0.0
C1638 C 0.45848 0.1933 0.36196 0.0
C1639 C 0.4884 0.19434 0.35768 0.0
C1640 C 0.50007 0.17069 0.35038 0.0
C1641 C 0.54094 0.10242 0.28537 0.0
C1642 C 0.56794 0.11915 0.28547 0.0
C1643 C 0.52407 0.09901 0.29649 0.0
C1644 C 0.53414 0.11193 0.30791 0.0
C1645 C 0.56018 0.13005 0.30787 0.0
C1646 C 0.57696 0.13365 0.29673 0.0
C1647 C 0.51927 0.10415 0.32008 0.0
C1648 C 0.50793 0.12718 0.32789 0.0
C1649 C 0.51693 0.07383 0.32407 0.0
C1650 C 0.53046 0.04886 0.31668 0.0
C1651 C 0.56204 0.0466 0.31538 0.0
C1652 C 0.57468 0.02303 0.30831 0.0
C1653 C 0.55591 0.00162 0.30254 0.0
C1654 C 0.52447 0.00381 0.30378 0.0
C1655 C 0.51177 0.02742 0.3108 0.0
H1656 H 0.56573 0.98338 0.29709 0.0
H1657 H 0.44949 0.21163 0.36761 0.0
H1658 H 0.93942 0.9939 0.63451 0.0
H1659 H 0.91918 0.00077 0.61296 0.0
H1660 H 0.96609 0.08596 0.61016 0.0
H1661 H 0.98527 0.07983 0.63155 0.0
H1662 H 0.91257 0.09203 0.60103 0.0
H1663 H 0.99188 0.01784 0.59784 0.0
H1664 H 0.0172 0.96927 0.602 0.0
H1665 H 0.94316 0.92185 0.58473 0.0
H1666 H 0.91671 0.97001 0.58091 0.0
H1667 H 0.93421 0.12185 0.53685 0.0
H1668 H 0.94746 0.10041 0.55745 0.0
H1669 H 0.86986 0.04156 0.55556 0.0
H1670 H 0.85603 0.06328 0.53491 0.0
H1671 H 0.93207 0.0175 0.56681 0.0
H1672 H 0.85428 0.09559 0.56999 0.0
H1673 H 0.83401 0.14586 0.56465 0.0
H1674 H 0.91256 0.18768 0.58105 0.0
H1675 H 0.93368 0.13759 0.58617 0.0
C1676 C 0.94507 0.0142 0.62931 0.0
C1677 C 0.96391 0.03632 0.63474 0.0
C1678 C 0.93367 0.01801 0.61699 0.0
C1679 C 0.94136 0.04376 0.60989 0.0
C1680 C 0.95972 0.06596 0.61544 0.0
C1681 C 0.97075 0.06237 0.62771 0.0
C1682 C 0.93082 0.04808 0.59664 0.0
C1683 C 0.91685 0.07562 0.5936 0.0
C1684 C 0.93608 0.02656 0.58691 0.0
C1685 C 0.952 0.99758 0.5893 0.0
C1686 C 0.9807 0.99706 0.59512 0.0
C1687 C 0.99531 0.9696 0.5974 0.0
C1688 C 0.98178 0.94253 0.59366 0.0
C1689 C 0.95356 0.94284 0.58767 0.0
C1690 C 0.93869 0.97021 0.58549 0.0
C1691 C 0.9203 0.10387 0.54066 0.0
C1692 C 0.8939 0.09443 0.53435 0.0
C1693 C 0.92797 0.09162 0.5524 0.0
C1694 C 0.90953 0.06957 0.55798 0.0
C1695 C 0.88437 0.05849 0.55133 0.0
C1696 C 0.87645 0.07102 0.53959 0.0
C1697 C 0.91444 0.0614 0.57139 0.0
C1698 C 0.92733 0.0334 0.57439 0.0
C1699 C 0.90881 0.08264 0.58111 0.0
C1700 C 0.89569 0.11281 0.57835 0.0
C1701 C 0.86736 0.11548 0.57235 0.0
C1702 C 0.85572 0.14396 0.56936 0.0
C1703 C 0.87205 0.16995 0.57246 0.0
C1704 C 0.89997 0.16752 0.57862 0.0
C1705 C 0.9118 0.1391 0.58156 0.0
H1706 H 0.86304 0.19198 0.57011 0.0
H1707 H 0.99325 0.92132 0.59535 0.0
H1708 H 0.01684 0.41249 0.89031 0.0
H1709 H 0.99852 0.39364 0.86975 0.0
H1710 H 0.02191 0.47851 0.85235 0.0
H1711 H 0.04055 0.49718 0.87263 0.0
H1712 H 0.9644 0.46306 0.8476 0.0
H1713 H 0.06214 0.41615 0.84573 0.0
H1714 H 0.10412 0.38423 0.85331 0.0
H1715 H 0.04562 0.30682 0.85317 0.0
H1716 H 0.00312 0.3384 0.84576 0.0
H1717 H 0.93968 0.43298 0.78305 0.0
H1718 H 0.96648 0.44312 0.80292 0.0
H1719 H 0.93556 0.35813 0.81806 0.0
H1720 H 0.90873 0.34773 0.79816 0.0
H1721 H 0.99625 0.37107 0.82428 0.0
H1722 H 0.8986 0.41869 0.82605 0.0
H1723 H 0.85715 0.45102 0.81823 0.0
H1724 H 0.91644 0.52783 0.81862 0.0
H1725 H 0.9584 0.49584 0.82626 0.0
C1726 C 0.01878 0.42677 0.88201 0.0
C1727 C 0.03046 0.45618 0.88305 0.0
C1728 C 0.00832 0.41601 0.87029 0.0
C1729 C 0.00908 0.43467 0.85952 0.0
C1730 C 0.02144 0.46368 0.86052 0.0
C1731 C 0.03228 0.47423 0.87212 0.0
C1732 C 0.99496 0.42516 0.8474 0.0
C1733 C 0.97164 0.44313 0.84244 0.0
C1734 C 0.00387 0.39874 0.84085 0.0
C1735 C 0.02936 0.37971 0.84533 0.0
C1736 C 0.05814 0.39238 0.84743 0.0
C1737 C 0.08205 0.37433 0.85167 0.0
C1738 C 0.07752 0.34353 0.85376 0.0
C1739 C 0.04908 0.33069 0.85157 0.0
C1740 C 0.02508 0.34865 0.84734 0.0
C1741 C 0.93883 0.4163 0.79056 0.0
C1742 C 0.9219 0.38969 0.78911 0.0
C1743 C 0.95413 0.42214 0.8019 0.0
C1744 C 0.9527 0.4015 0.81198 0.0
C1745 C 0.9369 0.37432 0.81038 0.0
C1746 C 0.92149 0.3685 0.79904 0.0
C1747 C 0.96611 0.40929 0.82445 0.0
C1748 C 0.98908 0.39095 0.82949 0.0
C1749 C 0.95697 0.43546 0.83111 0.0
C1750 C 0.93171 0.4548 0.8266 0.0
C1751 C 0.90286 0.44243 0.82437 0.0
C1752 C 0.87926 0.4607 0.81999 0.0
C1753 C 0.88417 0.49144 0.8179 0.0
C1754 C 0.91268 0.504 0.82022 0.0
C1755 C 0.93637 0.48581 0.82459 0.0
H1756 H 0.86588 0.50555 0.81451 0.0
H1757 H 0.09607 0.32959 0.85704 0.0
H1758 H 0.49642 0.52885 0.12089 0.0
H1759 H 0.51953 0.51439 0.10075 0.0
H1760 H 0.59804 0.48099 0.12065 0.0
H1761 H 0.57482 0.49499 0.14097 0.0
H1762 H 0.61149 0.51222 0.0973 0.0
H1763 H 0.54993 0.43359 0.11378 0.0
H1764 H 0.50496 0.4076 0.12224 0.0
H1765 H 0.45614 0.42719 0.08796 0.0
H1766 H 0.50074 0.45378 0.07943 0.0
H1767 H 0.66047 0.40517 0.05004 0.0
H1768 H 0.64554 0.43177 0.06943 0.0
H1769 H 0.56438 0.46325 0.05086 0.0
H1770 H 0.57921 0.43682 0.03142 0.0
H1771 H 0.55412 0.4338 0.07375 0.0
H1772 H 0.61892 0.51221 0.05748 0.0
H1773 H 0.66676 0.53279 0.04908 0.0
H1774 H 0.71264 0.50768 0.08344 0.0
H1775 H 0.66515 0.48656 0.09198 0.0
C1776 C 0.51891 0.51907 0.12101 0.0
C1777 C 0.53378 0.51292 0.13253 0.0
C1778 C 0.53201 0.51073 0.10948 0.0
C1779 C 0.56033 0.49642 0.10927 0.0
C1780 C 0.57616 0.49204 0.12067 0.0
C1781 C 0.56285 0.49997 0.13224 0.0
C1782 C 0.57199 0.4837 0.09725 0.0
C1783 C 0.59913 0.4949 0.09218 0.0
C1784 C 0.55573 0.46115 0.09062 0.0
C1785 C 0.52849 0.44628 0.09603 0.0
C1786 C 0.52944 0.43291 0.10814 0.0
C1787 C 0.50408 0.41786 0.11293 0.0
C1788 C 0.47776 0.41566 0.10563 0.0
C1789 C 0.47658 0.42884 0.0936 0.0
C1790 C 0.50183 0.444 0.0888 0.0
C1791 C 0.63965 0.4181 0.05004 0.0
C1792 C 0.6209 0.41882 0.03926 0.0
C1793 C 0.63125 0.43339 0.06109 0.0
C1794 C 0.60395 0.44955 0.06153 0.0
C1795 C 0.58558 0.45094 0.05067 0.0
C1796 C 0.59409 0.43586 0.03959 0.0
C1797 C 0.59322 0.46274 0.07362 0.0
C1798 C 0.56632 0.45138 0.07879 0.0
C1799 C 0.61 0.48465 0.0804 0.0
C1800 C 0.63852 0.49755 0.07532 0.0
C1801 C 0.63926 0.51085 0.06321 0.0
C1802 C 0.6663 0.52266 0.05843 0.0
C1803 C 0.69274 0.52148 0.06571 0.0
C1804 C 0.69216 0.50856 0.0778 0.0
C1805 C 0.66517 0.4967 0.08262 0.0
H1806 H 0.71366 0.53062 0.06199 0.0
H1807 H 0.45828 0.40366 0.10928 0.0
loop_
_geom_bond_atom_site_label_1
_geom_bond_atom_site_label_2
_geom_bond_distance
_geom_bond_site_symmetry_2
_ccdc_geom_bond_type
Mg0 O7 2.141 1_545 S
Mg0 O8 2.048 1_545 S
Mg0 O9 2.048 1_455 S
Mg0 O12 2.141 1_455 S
C1 O2 1.313 . S
C1 O8 1.195 . S
O2 C1 1.313 . S
C3 O4 1.245 . S
C3 O12 1.289 . S
O4 C3 1.245 . S
C5 O6 1.245 . S
C5 O7 1.289 . S
O6 C5 1.245 . S
O7 Mg0 2.141 1_565 S
O7 C5 1.289 . S
O8 Mg0 2.048 1_565 S
O8 C1 1.195 . S
O9 Mg0 2.048 1_655 S
O9 C10 1.195 . S
C10 O9 1.195 . S
C10 O11 1.313 1_545 S
O11 C10 1.313 1_565 S
O12 Mg0 2.141 1_655 S
O12 C3 1.289 . S
Mg13 O20 2.141 1_655 S
Mg13 O21 2.048 1_655 S
Mg13 O22 2.048 . S
Mg13 O25 2.141 . S
C14 O15 1.313 . S
C14 O21 1.195 . S
O15 C14 1.313 . S
C16 O17 1.245 . S
C16 O25 1.289 . S
O17 C16 1.245 . S
C18 O19 1.245 . S
C18 O20 1.289 . S
O19 C18 1.245 . S
O20 Mg13 2.141 1_455 S
O20 C18 1.289 . S
O21 Mg13 2.048 1_455 S
O21 C14 1.195 . S
O22 Mg13 2.048 . S
O22 C23 1.195 . S
C23 O22 1.195 . S
C23 O24 1.313 1_655 S
O24 C23 1.313 1_455 S
O25 Mg13 2.141 . S
O25 C16 1.289 . S
Mg26 O33 2.141 . S
Mg26 O34 2.048 . S
Mg26 O35 2.048 . S
Mg26 O38 2.141 . S
C27 O28 1.313 . S
C27 O34 1.195 . S
O28 C27 1.313 . S
C29 O30 1.245 . S
C29 O38 1.289 . S
O30 C29 1.245 . S
C31 O32 1.245 . S
C31 O33 1.289 . S
O32 C31 1.245 . S
O33 Mg26 2.141 . S
O33 C31 1.289 . S
O34 Mg26 2.048 . S
O34 C27 1.195 . S
O35 Mg26 2.048 . S
O35 C36 1.195 . S
C36 O35 1.195 . S
C36 O37 1.313 . S
O37 C36 1.313 . S
O38 Mg26 2.141 . S
O38 C29 1.289 . S
Mg39 O46 2.141 . S
Mg39 O47 2.048 . S
Mg39 O48 2.048 1_545 S
Mg39 O51 2.141 1_545 S
C40 O41 1.313 . S
C40 O47 1.195 . S
O41 C40 1.313 . S
C42 O43 1.245 . S
C42 O51 1.289 . S
O43 C42 1.245 . S
C44 O45 1.245 . S
C44 O46 1.289 . S
O45 C44 1.245 . S
O46 Mg39 2.141 . S
O46 C44 1.289 . S
O47 Mg39 2.048 . S
O47 C40 1.195 . S
O48 Mg39 2.048 1_565 S
O48 C49 1.195 . S
C49 O48 1.195 . S
C49 O50 1.313 . S
O50 C49 1.313 . S
O51 Mg39 2.141 1_565 S
O51 C42 1.289 . S
Mg52 O59 2.141 . S
Mg52 O60 2.048 . S
Mg52 O61 2.048 1_455 S
Mg52 O64 2.141 1_455 S
C53 O54 1.313 . S
C53 O60 1.195 . S
O54 C53 1.313 . S
C55 O56 1.245 . S
C55 O64 1.289 . S
O56 C55 1.245 . S
C57 O58 1.245 . S
C57 O59 1.289 . S
O58 C57 1.245 . S
O59 Mg52 2.141 . S
O59 C57 1.289 . S
O60 Mg52 2.048 . S
O60 C53 1.195 . S
O61 Mg52 2.048 1_655 S
O61 C62 1.195 . S
C62 O61 1.195 . S
C62 O63 1.313 . S
O63 C62 1.313 . S
O64 Mg52 2.141 1_655 S
O64 C55 1.289 . S
Mg65 O72 2.141 . S
Mg65 O73 2.048 . S
Mg65 O74 2.048 . S
Mg65 O77 2.141 . S
C66 O67 1.313 . S
C66 O73 1.195 . S
O67 C66 1.313 . S
C68 O69 1.245 . S
C68 O77 1.289 . S
O69 C68 1.245 . S
C70 O71 1.245 . S
C70 O72 1.289 . S
O71 C70 1.245 . S
O72 Mg65 2.141 . S
O72 C70 1.289 . S
O73 Mg65 2.048 . S
O73 C66 1.195 . S
O74 Mg65 2.048 . S
O74 C75 1.195 . S
C75 O74 1.195 . S
C75 O76 1.313 . S
O76 C75 1.313 . S
O77 Mg65 2.141 . S
O77 C68 1.289 . S
Mg78 O85 2.141 1_565 S
Mg78 O86 2.048 1_565 S
Mg78 O87 2.048 . S
Mg78 O90 2.141 . S
C79 O80 1.313 . S
C79 O86 1.195 . S
O80 C79 1.313 . S
C81 O82 1.257 . S
C81 O90 1.289 . S
O82 C81 1.257 . S
C83 O84 1.245 . S
C83 O85 1.289 . S
O84 C83 1.245 . S
O85 Mg78 2.141 1_545 S
O85 C83 1.289 . S
O86 Mg78 2.048 1_545 S
O86 C79 1.195 . S
O87 Mg78 2.048 . S
O87 C88 1.195 . S
C88 O87 1.195 . S
C88 O89 1.313 1_565 S
O89 C88 1.313 1_545 S
O90 Mg78 2.141 . S
O90 C81 1.289 . S
Mg91 O98 2.141 1_655 S
Mg91 O99 2.048 1_655 S
Mg91 O100 2.048 1_565 S
Mg91 O103 2.141 1_565 S
C92 O93 1.313 . S
C92 O99 1.195 . S
O93 C92 1.313 . S
C94 O95 1.245 . S
C94 O103 1.289 . S
O95 C94 1.245 . S
C96 O97 1.245 . S
C96 O98 1.289 . S
O97 C96 1.245 . S
O98 Mg91 2.141 1_455 S
O98 C96 1.289 . S
O99 Mg91 2.048 1_455 S
O99 C92 1.195 . S
O100 Mg91 2.048 1_545 S
O100 C101 1.195 . S
C101 O100 1.195 . S
C101 O102 1.313 1_655 S
O102 C101 1.313 1_455 S
O103 Mg91 2.141 1_545 S
O103 C94 1.289 . S
In104 O105 2.294 . S
In104 O106 2.326 . S
In104 O110 2.266 . S
In104 O111 2.339 . S
In104 O112 2.266 1_554 S
In104 O113 2.326 1_554 S
In104 O115 2.294 . S
In104 O116 2.326 . S
O105 In104 2.294 . S
O105 C114 1.240 . S
O106 In104 2.326 . S
O106 C114 1.252 . S
C107 O110 1.252 1_556 S
C107 O111 1.256 1_556 S
C108 O115 1.240 . S
C108 O116 1.252 . S
C109 O112 1.252 . S
C109 O113 1.260 . S
O110 In104 2.266 . S
O110 C107 1.252 1_554 S
O111 In104 2.339 . S
O111 C107 1.256 1_554 S
O112 In104 2.266 1_556 S
O112 C109 1.252 . S
O113 In104 2.326 1_556 S
O113 C109 1.260 . S
C114 O105 1.240 . S
C114 O106 1.252 . S
O115 In104 2.294 . S
O115 C108 1.240 . S
O116 In104 2.326 . S
O116 C108 1.252 . S
In117 O118 2.294 . S
In117 O119 2.326 . S
In117 O123 2.266 . S
In117 O124 2.326 . S
In117 O125 2.266 . S
In117 O126 2.326 . S
In117 O128 2.294 . S
In117 O129 2.326 . S
O118 In117 2.294 . S
O118 C127 1.240 . S
O119 In117 2.326 . S
O119 C127 1.252 . S
C120 O123 1.252 . S
C120 O124 1.260 . S
C121 O128 1.240 . S
C121 O129 1.252 . S
C122 O125 1.252 . S
C122 O126 1.260 . S
O123 In117 2.266 . S
O123 C120 1.252 . S
O124 In117 2.326 . S
O124 C120 1.260 . S
O125 In117 2.266 . S
O125 C122 1.252 . S
O126 In117 2.326 . S
O126 C122 1.260 . S
C127 O118 1.240 . S
C127 O119 1.252 . S
O128 In117 2.294 . S
O128 C121 1.240 . S
O129 In117 2.326 . S
O129 C121 1.252 . S
In130 O131 2.294 . S
In130 O132 2.326 . S
In130 O136 2.266 . S
In130 O137 2.326 . S
In130 O138 2.266 . S
In130 O139 2.326 . S
In130 O141 2.294 . S
In130 O142 2.326 . S
O131 In130 2.294 . S
O131 C140 1.240 . S
O132 In130 2.326 . S
O132 C140 1.252 . S
C133 O136 1.252 . S
C133 O137 1.260 . S
C134 O141 1.240 . S
C134 O142 1.252 . S
C135 O138 1.252 . S
C135 O139 1.260 . S
O136 In130 2.266 . S
O136 C133 1.252 . S
O137 In130 2.326 . S
O137 C133 1.260 . S
O138 In130 2.266 . S
O138 C135 1.252 . S
O139 In130 2.326 . S
O139 C135 1.260 . S
C140 O131 1.240 . S
C140 O132 1.252 . S
O141 In130 2.294 . S
O141 C134 1.240 . S
O142 In130 2.326 . S
O142 C134 1.252 . S
In143 O144 2.294 . S
In143 O145 2.326 . S
In143 O149 2.266 . S
In143 O150 2.326 . S
In143 O151 2.266 . S
In143 O152 2.326 . S
In143 O154 2.294 . S
In143 O155 2.326 . S
O144 In143 2.294 . S
O144 C153 1.240 . S
O145 In143 2.326 . S
O145 C153 1.252 . S
C146 O149 1.252 . S
C146 O150 1.260 . S
C147 O154 1.240 . S
C147 O155 1.252 . S
C148 O151 1.252 . S
C148 O152 1.260 . S
O149 In143 2.266 . S
O149 C146 1.252 . S
O150 In143 2.326 . S
O150 C146 1.260 . S
O151 In143 2.266 . S
O151 C148 1.252 . S
O152 In143 2.326 . S
O152 C148 1.260 . S
C153 O144 1.240 . S
C153 O145 1.252 . S
O154 In143 2.294 . S
O154 C147 1.240 . S
O155 In143 2.326 . S
O155 C147 1.252 . S
In156 O157 2.294 . S
In156 O158 2.326 . S
In156 O162 2.266 . S
In156 O163 2.326 . S
In156 O164 2.266 . S
In156 O165 2.326 . S
In156 O167 2.294 . S
In156 O168 2.326 . S
O157 In156 2.294 . S
O157 C166 1.240 . S
O158 In156 2.326 . S
O158 C166 1.252 . S
C159 O162 1.252 . S
C159 O163 1.260 . S
C160 O167 1.240 . S
C160 O168 1.252 . S
C161 O164 1.252 . S
C161 O165 1.260 . S
O162 In156 2.266 . S
O162 C159 1.252 . S
O163 In156 2.326 . S
O163 C159 1.260 . S
O164 In156 2.266 . S
O164 C161 1.252 . S
O165 In156 2.326 . S
O165 C161 1.260 . S
C166 O157 1.240 . S
C166 O158 1.252 . S
O167 In156 2.294 . S
O167 C160 1.240 . S
O168 In156 2.326 . S
O168 C160 1.252 . S
In169 O170 2.294 . S
In169 O171 2.326 . S
In169 O175 2.266 . S
In169 O176 2.326 . S
In169 O177 2.266 . S
In169 O178 2.326 . S
In169 O180 2.294 . S
In169 O181 2.326 . S
O170 In169 2.294 . S
O170 C179 1.240 . S
O171 In169 2.326 . S
O171 C179 1.252 . S
C172 O175 1.252 . S
C172 O176 1.260 . S
C173 O180 1.240 . S
C173 O181 1.252 . S
C174 O177 1.252 . S
C174 O178 1.260 . S
O175 In169 2.266 . S
O175 C172 1.252 . S
O176 In169 2.326 . S
O176 C172 1.260 . S
O177 In169 2.266 . S
O177 C174 1.252 . S
O178 In169 2.326 . S
O178 C174 1.260 . S
C179 O170 1.240 . S
C179 O171 1.252 . S
O180 In169 2.294 . S
O180 C173 1.240 . S
O181 In169 2.326 . S
O181 C173 1.252 . S
In182 O183 2.294 . S
In182 O184 2.326 . S
In182 O188 2.266 . S
In182 O189 2.339 . S
In182 O190 2.266 1_554 S
In182 O191 2.326 1_554 S
In182 O193 2.294 . S
In182 O194 2.326 . S
O183 In182 2.294 . S
O183 C192 1.240 . S
O184 In182 2.326 . S
O184 C192 1.252 . S
C185 O188 1.252 1_556 S
C185 O189 1.255 1_556 S
C186 O193 1.240 . S
C186 O194 1.252 . S
C187 O190 1.252 . S
C187 O191 1.260 . S
O188 In182 2.266 . S
O188 C185 1.252 1_554 S
O189 In182 2.339 . S
O189 C185 1.255 1_554 S
O190 In182 2.266 1_556 S
O190 C187 1.252 . S
O191 In182 2.326 1_556 S
O191 C187 1.260 . S
C192 O183 1.240 . S
C192 O184 1.252 . S
O193 In182 2.294 . S
O193 C186 1.240 . S
O194 In182 2.326 . S
O194 C186 1.252 . S
In195 O196 2.294 . S
In195 O197 2.326 . S
In195 O201 2.266 . S
In195 O202 2.326 . S
In195 O203 2.266 . S
In195 O204 2.326 . S
In195 O206 2.294 . S
In195 O207 2.326 . S
O196 In195 2.294 . S
O196 C205 1.240 . S
O197 In195 2.326 . S
O197 C205 1.252 . S
C198 O201 1.252 . S
C198 O202 1.260 . S
C199 O206 1.240 . S
C199 O207 1.252 . S
C200 O203 1.252 . S
C200 O204 1.260 . S
O201 In195 2.266 . S
O201 C198 1.252 . S
O202 In195 2.326 . S
O202 C198 1.260 . S
O203 In195 2.266 . S
O203 C200 1.252 . S
O204 In195 2.326 . S
O204 C200 1.260 . S
C205 O196 1.240 . S
C205 O197 1.252 . S
O206 In195 2.294 . S
O206 C199 1.240 . S
O207 In195 2.326 . S
O207 C199 1.252 . S
H208 C226 0.951 . S
H209 C228 0.951 . S
H210 C230 0.950 . S
H211 C231 0.950 . S
H212 C233 0.950 . S
H213 C236 0.950 . S
H214 C237 0.950 . S
H215 C239 0.950 . S
H216 C240 0.950 . S
H217 C241 0.951 . S
H218 C243 0.951 . S
H219 C245 0.950 . S
H220 C246 0.950 . S
H221 C248 0.950 . S
H222 C251 0.950 . S
H223 C252 0.950 . S
H224 C254 0.950 . S
H225 C255 0.950 . S
C226 H208 0.951 . S
C226 C227 1.366 . S
C226 C228 1.388 . S
C227 C226 1.366 . S
C227 C231 1.385 . S
C228 H209 0.951 . S
C228 C226 1.388 . S
C228 C229 1.366 . S
C229 C228 1.366 . S
C229 C230 1.414 . S
C229 C232 1.499 . S
C230 H210 0.950 . S
C230 C229 1.414 . S
C230 C231 1.374 . S
C231 H211 0.950 . S
C231 C227 1.385 . S
C231 C230 1.374 . S
C232 C229 1.499 . S
C232 C233 1.373 . S
C232 C234 1.389 . S
C233 H212 0.950 . S
C233 C232 1.373 . S
C233 C249 1.377 . S
C234 C232 1.389 . S
C234 C235 1.524 . S
C234 C248 1.377 . S
C235 C234 1.524 . S
C235 C236 1.397 . S
C235 C240 1.363 . S
C236 H213 0.950 . S
C236 C235 1.397 . S
C236 C237 1.334 1_565 S
C237 H214 0.950 . S
C237 C236 1.334 1_545 S
C237 C238 1.287 . S
C238 C237 1.287 . S
C238 C239 1.524 . S
C238 H257 0.913 . S
C239 H215 0.950 . S
C239 C238 1.524 . S
C239 C240 1.415 1_545 S
C240 H216 0.950 . S
C240 C235 1.363 . S
C240 C239 1.415 1_565 S
C241 H217 0.951 . S
C241 C242 1.366 . S
C241 C243 1.388 . S
C242 C241 1.366 . S
C242 C246 1.385 . S
C243 H218 0.951 . S
C243 C241 1.388 . S
C243 C244 1.366 . S
C244 C243 1.366 . S
C244 C245 1.414 . S
C244 C247 1.499 . S
C245 H219 0.950 . S
C245 C244 1.414 . S
C245 C246 1.374 . S
C246 H220 0.950 . S
C246 C242 1.385 . S
C246 C245 1.374 . S
C247 C244 1.499 . S
C247 C248 1.373 . S
C247 C249 1.389 . S
C248 H221 0.950 . S
C248 C234 1.377 . S
C248 C247 1.373 . S
C249 C233 1.377 . S
C249 C247 1.389 . S
C249 C250 1.524 . S
C250 C249 1.524 . S
C250 C251 1.397 . S
C250 C255 1.363 . S
C251 H222 0.950 . S
C251 C250 1.397 . S
C251 C252 1.334 . S
C252 H223 0.950 . S
C252 C251 1.334 . S
C252 C253 1.287 . S
C253 C252 1.287 . S
C253 C254 1.524 . S
C253 H256 0.999 . S
C254 H224 0.950 . S
C254 C253 1.524 . S
C254 C255 1.415 . S
C255 H225 0.950 . S
C255 C250 1.363 . S
C255 C254 1.415 . S
H256 C253 0.999 . S
H257 C238 0.913 . S
H258 C276 0.951 . S
H259 C278 0.951 . S
H260 C280 0.950 . S
H261 C281 0.950 . S
H262 C283 0.950 . S
H263 C286 0.950 . S
H264 C287 0.946 1_655 S
H265 C289 0.950 . S
H266 C290 0.950 . S
H267 C291 0.951 . S
H268 C293 0.951 . S
H269 C295 0.950 . S
H270 C296 0.950 . S
H271 C298 0.950 . S
H272 C301 0.950 . S
H273 C302 0.950 . S
H274 C304 0.950 . S
H275 C305 0.950 . S
C276 H258 0.951 . S
C276 C277 1.366 . S
C276 C278 1.388 . S
C277 C276 1.366 . S
C277 C281 1.385 . S
C278 H259 0.951 . S
C278 C276 1.388 . S
C278 C279 1.366 . S
C279 C278 1.366 . S
C279 C280 1.414 . S
C279 C282 1.499 . S
C280 H260 0.950 . S
C280 C279 1.414 . S
C280 C281 1.374 . S
C281 H261 0.950 . S
C281 C277 1.385 . S
C281 C280 1.374 . S
C282 C279 1.499 . S
C282 C283 1.373 . S
C282 C284 1.389 . S
C283 H262 0.950 . S
C283 C282 1.373 . S
C283 C299 1.377 . S
C284 C282 1.389 . S
C284 C285 1.524 . S
C284 C298 1.377 . S
C285 C284 1.524 . S
C285 C286 1.397 . S
C285 C290 1.363 . S
C286 H263 0.950 . S
C286 C285 1.397 . S
C286 C287 1.334 . S
C287 H264 0.946 1_455 S
C287 C286 1.334 . S
C287 C288 1.287 1_455 S
C288 C287 1.287 1_655 S
C288 C289 1.524 . S
C288 H307 0.913 . S
C289 H265 0.950 . S
C289 C288 1.524 . S
C289 C290 1.415 1_655 S
C290 H266 0.950 . S
C290 C285 1.363 . S
C290 C289 1.415 1_455 S
C291 H267 0.951 . S
C291 C292 1.366 . S
C291 C293 1.388 . S
C292 C291 1.366 . S
C292 C296 1.385 . S
C293 H268 0.951 . S
C293 C291 1.388 . S
C293 C294 1.366 . S
C294 C293 1.366 . S
C294 C295 1.414 . S
C294 C297 1.499 . S
C295 H269 0.950 . S
C295 C294 1.414 . S
C295 C296 1.374 . S
C296 H270 0.950 . S
C296 C292 1.385 . S
C296 C295 1.374 . S
C297 C294 1.499 . S
C297 C298 1.373 . S
C297 C299 1.389 . S
C298 H271 0.950 . S
C298 C284 1.377 . S
C298 C297 1.373 . S
C299 C283 1.377 . S
C299 C297 1.389 . S
C299 C300 1.524 . S
C300 C299 1.524 . S
C300 C301 1.397 . S
C300 C305 1.363 . S
C301 H272 0.950 . S
C301 C300 1.397 . S
C301 C302 1.334 . S
C302 H273 0.950 . S
C302 C301 1.334 . S
C302 C303 1.287 . S
C303 C302 1.287 . S
C303 C304 1.524 . S
C303 H306 0.999 . S
C304 H274 0.950 . S
C304 C303 1.524 . S
C304 C305 1.415 . S
C305 H275 0.950 . S
C305 C300 1.363 . S
C305 C304 1.415 . S
H306 C303 0.999 . S
H307 C288 0.913 . S
H308 C326 0.951 . S
H309 C328 0.951 . S
H310 C330 0.950 . S
H311 C331 0.950 . S
H312 C333 0.950 . S
H313 C336 0.950 . S
H314 C337 0.950 . S
H315 C339 0.950 . S
H316 C340 0.950 . S
H317 C341 0.951 . S
H318 C343 0.951 . S
H319 C345 0.950 . S
H320 C346 0.950 . S
H321 C348 0.950 . S
H322 C351 0.950 . S
H323 C352 0.950 . S
H324 C354 0.950 . S
H325 C355 0.950 . S
C326 H308 0.951 . S
C326 C327 1.366 . S
C326 C328 1.388 . S
C327 C326 1.366 . S
C327 C331 1.385 . S
C328 H309 0.951 . S
C328 C326 1.388 . S
C328 C329 1.366 . S
C329 C328 1.366 . S
C329 C330 1.414 . S
C329 C332 1.499 . S
C330 H310 0.950 . S
C330 C329 1.414 . S
C330 C331 1.374 . S
C331 H311 0.950 . S
C331 C327 1.385 . S
C331 C330 1.374 . S
C332 C329 1.499 . S
C332 C333 1.373 . S
C332 C334 1.389 . S
C333 H312 0.950 . S
C333 C332 1.373 . S
C333 C349 1.377 . S
C334 C332 1.389 . S
C334 C335 1.524 . S
C334 C348 1.377 . S
C335 C334 1.524 . S
C335 C336 1.397 . S
C335 C340 1.363 . S
C336 H313 0.950 . S
C336 C335 1.397 . S
C336 C337 1.334 . S
C337 H314 0.950 . S
C337 C336 1.334 . S
C337 C338 1.287 . S
C338 C337 1.287 . S
C338 C339 1.524 . S
C338 H357 0.913 . S
C339 H315 0.950 . S
C339 C338 1.524 . S
C339 C340 1.415 . S
C340 H316 0.950 . S
C340 C335 1.363 . S
C340 C339 1.415 . S
C341 H317 0.951 . S
C341 C342 1.366 . S
C341 C343 1.388 . S
C342 C341 1.366 . S
C342 C346 1.385 . S
C343 H318 0.951 . S
C343 C341 1.388 . S
C343 C344 1.366 . S
C344 C343 1.366 . S
C344 C345 1.414 . S
C344 C347 1.499 . S
C345 H319 0.950 . S
C345 C344 1.414 . S
C345 C346 1.374 . S
C346 H320 0.950 . S
C346 C342 1.385 . S
C346 C345 1.374 . S
C347 C344 1.499 . S
C347 C348 1.373 . S
C347 C349 1.389 . S
C348 H321 0.950 . S
C348 C334 1.377 . S
C348 C347 1.373 . S
C349 C333 1.377 . S
C349 C347 1.389 . S
C349 C350 1.524 . S
C350 C349 1.524 . S
C350 C351 1.397 . S
C350 C355 1.363 . S
C351 H322 0.950 . S
C351 C350 1.397 . S
C351 C352 1.334 . S
C352 H323 0.950 . S
C352 C351 1.334 . S
C352 C353 1.287 . S
C353 C352 1.287 . S
C353 C354 1.524 . S
C353 H356 0.999 . S
C354 H324 0.950 . S
C354 C353 1.524 . S
C354 C355 1.415 . S
C355 H325 0.950 . S
C355 C350 1.363 . S
C355 C354 1.415 . S
H356 C353 0.999 . S
H357 C338 0.913 . S
H358 C376 0.951 . S
H359 C378 0.951 . S
H360 C380 0.950 . S
H361 C381 0.950 . S
H362 C383 0.950 . S
H363 C386 0.950 . S
H364 C387 0.950 . S
H365 C389 0.950 . S
H366 C390 0.950 . S
H367 C391 0.951 . S
H368 C393 0.951 . S
H369 C395 0.950 . S
H370 C396 0.950 . S
H371 C398 0.950 . S
H372 C401 0.950 . S
H373 C402 0.950 . S
H374 C404 0.950 . S
H375 C405 0.950 . S
C376 H358 0.951 . S
C376 C377 1.366 . S
C376 C378 1.388 . S
C377 C376 1.366 . S
C377 C381 1.385 . S
C378 H359 0.951 . S
C378 C376 1.388 . S
C378 C379 1.366 . S
C379 C378 1.366 . S
C379 C380 1.414 . S
C379 C382 1.499 . S
C380 H360 0.950 . S
C380 C379 1.414 . S
C380 C381 1.374 . S
C381 H361 0.950 . S
C381 C377 1.385 . S
C381 C380 1.374 . S
C382 C379 1.499 . S
C382 C383 1.373 . S
C382 C384 1.389 . S
C383 H362 0.950 . S
C383 C382 1.373 . S
C383 C399 1.377 . S
C384 C382 1.389 . S
C384 C385 1.524 . S
C384 C398 1.377 . S
C385 C384 1.524 . S
C385 C386 1.397 . S
C385 C390 1.363 . S
C386 H363 0.950 . S
C386 C385 1.397 . S
C386 C387 1.334 . S
C387 H364 0.950 . S
C387 C386 1.334 . S
C387 C388 1.287 . S
C388 C387 1.287 . S
C388 C389 1.524 . S
C388 H407 0.913 . S
C389 H365 0.950 . S
C389 C388 1.524 . S
C389 C390 1.415 . S
C390 H366 0.950 . S
C390 C385 1.363 . S
C390 C389 1.415 . S
C391 H367 0.951 . S
C391 C392 1.366 . S
C391 C393 1.388 . S
C392 C391 1.366 . S
C392 C396 1.385 . S
C393 H368 0.951 . S
C393 C391 1.388 . S
C393 C394 1.366 . S
C394 C393 1.366 . S
C394 C395 1.414 . S
C394 C397 1.499 . S
C395 H369 0.950 . S
C395 C394 1.414 . S
C395 C396 1.374 . S
C396 H370 0.950 . S
C396 C392 1.385 . S
C396 C395 1.374 . S
C397 C394 1.499 . S
C397 C398 1.373 . S
C397 C399 1.389 . S
C398 H371 0.950 . S
C398 C384 1.377 . S
C398 C397 1.373 . S
C399 C383 1.377 . S
C399 C397 1.389 . S
C399 C400 1.524 . S
C400 C399 1.524 . S
C400 C401 1.397 . S
C400 C405 1.363 . S
C401 H372 0.950 . S
C401 C400 1.397 . S
C401 C402 1.334 . S
C402 H373 0.950 . S
C402 C401 1.334 . S
C402 C403 1.287 . S
C403 C402 1.287 . S
C403 C404 1.524 . S
C403 H406 0.999 . S
C404 H374 0.950 . S
C404 C403 1.524 . S
C404 C405 1.415 . S
C405 H375 0.950 . S
C405 C400 1.363 . S
C405 C404 1.415 . S
H406 C403 0.999 . S
H407 C388 0.913 . S
H408 C426 0.951 . S
H409 C428 0.951 . S
H410 C430 0.950 . S
H411 C431 0.950 . S
H412 C433 0.950 . S
H413 C436 0.950 . S
H414 C437 0.950 . S
H415 C439 0.950 . S
H416 C440 0.950 . S
H417 C441 0.951 1_554 S
H418 C443 0.951 . S
H419 C445 0.950 . S
H420 C446 0.950 . S
H421 C448 0.950 . S
H422 C451 0.950 . S
H423 C452 0.950 . S
H424 C454 0.950 . S
H425 C455 0.950 . S
C426 H408 0.951 . S
C426 C427 1.366 . S
C426 C428 1.388 . S
C427 C426 1.366 . S
C427 C431 1.385 . S
C428 H409 0.951 . S
C428 C426 1.388 . S
C428 C429 1.366 . S
C429 C428 1.366 . S
C429 C430 1.414 . S
C429 C432 1.499 . S
C430 H410 0.950 . S
C430 C429 1.414 . S
C430 C431 1.374 . S
C431 H411 0.950 . S
C431 C427 1.385 . S
C431 C430 1.374 . S
C432 C429 1.499 . S
C432 C433 1.373 . S
C432 C434 1.389 . S
C433 H412 0.950 . S
C433 C432 1.373 . S
C433 C449 1.377 . S
C434 C432 1.389 . S
C434 C435 1.524 . S
C434 C448 1.377 . S
C435 C434 1.524 . S
C435 C436 1.397 . S
C435 C440 1.363 . S
C436 H413 0.950 . S
C436 C435 1.397 . S
C436 C437 1.334 . S
C437 H414 0.950 . S
C437 C436 1.334 . S
C437 C438 1.287 . S
C438 C437 1.287 . S
C438 C439 1.524 . S
C438 H457 0.913 . S
C439 H415 0.950 . S
C439 C438 1.524 . S
C439 C440 1.415 . S
C440 H416 0.950 . S
C440 C435 1.363 . S
C440 C439 1.415 . S
C441 H417 0.951 1_556 S
C441 C442 1.366 . S
C441 C443 1.388 . S
C442 C441 1.366 . S
C442 C446 1.385 . S
C443 H418 0.951 . S
C443 C441 1.388 . S
C443 C444 1.366 . S
C444 C443 1.366 . S
C444 C445 1.414 . S
C444 C447 1.499 . S
C445 H419 0.950 . S
C445 C444 1.414 . S
C445 C446 1.374 . S
C446 H420 0.950 . S
C446 C442 1.385 . S
C446 C445 1.374 . S
C447 C444 1.499 . S
C447 C448 1.373 . S
C447 C449 1.389 . S
C448 H421 0.950 . S
C448 C434 1.377 . S
C448 C447 1.373 . S
C449 C433 1.377 . S
C449 C447 1.389 . S
C449 C450 1.524 . S
C450 C449 1.524 . S
C450 C451 1.397 . S
C450 C455 1.363 . S
C451 H422 0.950 . S
C451 C450 1.397 . S
C451 C452 1.334 . S
C452 H423 0.950 . S
C452 C451 1.334 . S
C452 C453 1.287 . S
C453 C452 1.287 . S
C453 C454 1.524 . S
C453 H456 0.999 . S
C454 H424 0.950 . S
C454 C453 1.524 . S
C454 C455 1.415 . S
C455 H425 0.950 . S
C455 C450 1.363 . S
C455 C454 1.415 . S
H456 C453 0.999 . S
H457 C438 0.913 . S
H458 C476 0.951 . S
H459 C478 0.951 . S
H460 C480 0.950 . S
H461 C481 0.950 . S
H462 C483 0.950 . S
H463 C486 0.950 . S
H464 C487 0.950 . S
H465 C489 0.950 . S
H466 C490 0.950 . S
H467 C491 0.951 . S
H468 C493 0.951 . S
H469 C495 0.950 . S
H470 C496 0.950 . S
H471 C498 0.950 . S
H472 C501 0.950 . S
H473 C502 0.950 . S
H474 C504 0.950 . S
H475 C505 0.950 . S
C476 H458 0.951 . S
C476 C477 1.366 . S
C476 C478 1.388 . S
C477 C476 1.366 . S
C477 C481 1.385 . S
C478 H459 0.951 . S
C478 C476 1.388 . S
C478 C479 1.366 . S
C479 C478 1.366 . S
C479 C480 1.414 . S
C479 C482 1.499 . S
C480 H460 0.950 . S
C480 C479 1.414 . S
C480 C481 1.374 . S
C481 H461 0.950 . S
C481 C477 1.385 . S
C481 C480 1.374 . S
C482 C479 1.499 . S
C482 C483 1.373 . S
C482 C484 1.389 . S
C483 H462 0.950 . S
C483 C482 1.373 . S
C483 C499 1.377 . S
C484 C482 1.389 . S
C484 C485 1.524 . S
C484 C498 1.377 . S
C485 C484 1.524 . S
C485 C486 1.397 . S
C485 C490 1.363 . S
C486 H463 0.950 . S
C486 C485 1.397 . S
C486 C487 1.334 . S
C487 H464 0.950 . S
C487 C486 1.334 . S
C487 C488 1.287 . S
C488 C487 1.287 . S
C488 C489 1.524 . S
C488 H507 0.913 . S
C489 H465 0.950 . S
C489 C488 1.524 . S
C489 C490 1.415 . S
C490 H466 0.950 . S
C490 C485 1.363 . S
C490 C489 1.415 . S
C491 H467 0.951 . S
C491 C492 1.366 . S
C491 C493 1.388 . S
C492 C491 1.366 . S
C492 C496 1.385 . S
C493 H468 0.951 . S
C493 C491 1.388 . S
C493 C494 1.366 . S
C494 C493 1.366 . S
C494 C495 1.414 . S
C494 C497 1.499 . S
C495 H469 0.950 . S
C495 C494 1.414 . S
C495 C496 1.374 . S
C496 H470 0.950 . S
C496 C492 1.385 . S
C496 C495 1.374 . S
C497 C494 1.499 . S
C497 C498 1.373 . S
C497 C499 1.389 . S
C498 H471 0.950 . S
C498 C484 1.377 . S
C498 C497 1.373 . S
C499 C483 1.377 . S
C499 C497 1.389 . S
C499 C500 1.524 . S
C500 C499 1.524 . S
C500 C501 1.397 . S
C500 C505 1.363 . S
C501 H472 0.950 . S
C501 C500 1.397 . S
C501 C502 1.334 . S
C502 H473 0.950 . S
C502 C501 1.334 . S
C502 C503 1.287 . S
C503 C502 1.287 . S
C503 C504 1.524 . S
C503 H506 0.999 . S
C504 H474 0.950 . S
C504 C503 1.524 . S
C504 C505 1.415 . S
C505 H475 0.950 . S
C505 C500 1.363 . S
C505 C504 1.415 . S
H506 C503 0.999 . S
H507 C488 0.913 . S
H508 C526 0.951 . S
H509 C528 0.951 . S
H510 C530 0.950 . S
H511 C531 0.950 . S
H512 C533 0.950 . S
H513 C536 0.950 . S
H514 C537 0.950 . S
H515 C539 0.950 . S
H516 C540 0.950 . S
H517 C541 0.951 . S
H518 C543 0.951 . S
H519 C545 0.950 . S
H520 C546 0.950 . S
H521 C548 0.950 . S
H522 C551 0.950 . S
H523 C552 0.950 . S
H524 C554 0.950 . S
H525 C555 0.950 . S
C526 H508 0.951 . S
C526 C527 1.366 . S
C526 C528 1.388 . S
C527 C526 1.366 . S
C527 C531 1.385 . S
C528 H509 0.951 . S
C528 C526 1.388 . S
C528 C529 1.366 . S
C529 C528 1.366 . S
C529 C530 1.414 . S
C529 C532 1.499 . S
C530 H510 0.950 . S
C530 C529 1.414 . S
C530 C531 1.374 . S
C531 H511 0.950 . S
C531 C527 1.385 . S
C531 C530 1.374 . S
C532 C529 1.499 . S
C532 C533 1.373 . S
C532 C534 1.389 . S
C533 H512 0.950 . S
C533 C532 1.373 . S
C533 C549 1.377 . S
C534 C532 1.389 . S
C534 C535 1.524 . S
C534 C548 1.377 . S
C535 C534 1.524 . S
C535 C536 1.397 . S
C535 C540 1.363 . S
C536 H513 0.950 . S
C536 C535 1.397 . S
C536 C537 1.334 . S
C537 H514 0.950 . S
C537 C536 1.334 . S
C537 C538 1.287 . S
C538 C537 1.287 . S
C538 C539 1.524 . S
C538 H557 0.913 . S
C539 H515 0.950 . S
C539 C538 1.524 . S
C539 C540 1.415 . S
C540 H516 0.950 . S
C540 C535 1.363 . S
C540 C539 1.415 . S
C541 H517 0.951 . S
C541 C542 1.366 . S
C541 C543 1.388 . S
C542 C541 1.366 . S
C542 C546 1.385 . S
C543 H518 0.951 . S
C543 C541 1.388 . S
C543 C544 1.366 . S
C544 C543 1.366 . S
C544 C545 1.414 . S
C544 C547 1.499 . S
C545 H519 0.950 . S
C545 C544 1.414 . S
C545 C546 1.374 . S
C546 H520 0.950 . S
C546 C542 1.385 . S
C546 C545 1.374 . S
C547 C544 1.499 . S
C547 C548 1.373 . S
C547 C549 1.389 . S
C548 H521 0.950 . S
C548 C534 1.377 . S
C548 C547 1.373 . S
C549 C533 1.377 . S
C549 C547 1.389 . S
C549 C550 1.524 . S
C550 C549 1.524 . S
C550 C551 1.397 . S
C550 C555 1.363 . S
C551 H522 0.950 . S
C551 C550 1.397 . S
C551 C552 1.334 . S
C552 H523 0.950 . S
C552 C551 1.334 . S
C552 C553 1.287 . S
C553 C552 1.287 . S
C553 C554 1.524 . S
C553 H556 0.999 . S
C554 H524 0.950 . S
C554 C553 1.524 . S
C554 C555 1.415 . S
C555 H525 0.950 . S
C555 C550 1.363 . S
C555 C554 1.415 . S
H556 C553 0.999 . S
H557 C538 0.913 . S
H558 C576 0.951 . S
H559 C578 0.951 . S
H560 C580 0.950 . S
H561 C581 0.950 . S
H562 C583 0.950 . S
H563 C586 0.950 . S
H564 C587 0.950 . S
H565 C589 0.950 . S
H566 C590 0.950 . S
H567 C591 0.951 . S
H568 C593 0.951 . S
H569 C595 0.950 . S
H570 C596 0.950 . S
H571 C598 0.950 . S
H572 C601 0.950 . S
H573 C602 0.950 . S
H574 C604 0.950 . S
H575 C605 0.950 . S
C576 H558 0.951 . S
C576 C577 1.366 . S
C576 C578 1.388 . S
C577 C576 1.366 . S
C577 C581 1.385 . S
C578 H559 0.951 . S
C578 C576 1.388 . S
C578 C579 1.366 . S
C579 C578 1.366 . S
C579 C580 1.414 . S
C579 C582 1.499 . S
C580 H560 0.950 . S
C580 C579 1.414 . S
C580 C581 1.374 . S
C581 H561 0.950 . S
C581 C577 1.385 . S
C581 C580 1.374 . S
C582 C579 1.499 . S
C582 C583 1.373 . S
C582 C584 1.389 . S
C583 H562 0.950 . S
C583 C582 1.373 . S
C583 C599 1.377 . S
C584 C582 1.389 . S
C584 C585 1.524 . S
C584 C598 1.377 . S
C585 C584 1.524 . S
C585 C586 1.397 . S
C585 C590 1.363 . S
C586 H563 0.950 . S
C586 C585 1.397 . S
C586 C587 1.334 . S
C587 H564 0.950 . S
C587 C586 1.334 . S
C587 C588 1.287 . S
C588 C587 1.287 . S
C588 C589 1.524 . S
C588 H607 0.913 . S
C589 H565 0.950 . S
C589 C588 1.524 . S
C589 C590 1.415 . S
C590 H566 0.950 . S
C590 C585 1.363 . S
C590 C589 1.415 . S
C591 H567 0.951 . S
C591 C592 1.366 . S
C591 C593 1.388 . S
C592 C591 1.366 . S
C592 C596 1.385 . S
C593 H568 0.951 . S
C593 C591 1.388 . S
C593 C594 1.366 . S
C594 C593 1.366 . S
C594 C595 1.414 . S
C594 C597 1.499 . S
C595 H569 0.950 . S
C595 C594 1.414 . S
C595 C596 1.374 . S
C596 H570 0.950 . S
C596 C592 1.385 . S
C596 C595 1.374 . S
C597 C594 1.499 . S
C597 C598 1.373 . S
C597 C599 1.389 . S
C598 H571 0.950 . S
C598 C584 1.377 . S
C598 C597 1.373 . S
C599 C583 1.377 . S
C599 C597 1.389 . S
C599 C600 1.524 . S
C600 C599 1.524 . S
C600 C601 1.397 . S
C600 C605 1.363 . S
C601 H572 0.950 . S
C601 C600 1.397 . S
C601 C602 1.334 . S
C602 H573 0.950 . S
C602 C601 1.334 . S
C602 C603 1.287 . S
C603 C602 1.287 . S
C603 C604 1.524 . S
C603 H606 0.999 . S
C604 H574 0.950 . S
C604 C603 1.524 . S
C604 C605 1.415 . S
C605 H575 0.950 . S
C605 C600 1.363 . S
C605 C604 1.415 . S
H606 C603 0.999 . S
H607 C588 0.913 . S
H608 C626 0.951 . S
H609 C628 0.951 . S
H610 C630 0.950 . S
H611 C631 0.950 . S
H612 C633 0.950 . S
H613 C636 0.950 . S
H614 C637 0.950 . S
H615 C639 0.950 . S
H616 C640 0.950 . S
H617 C641 0.951 . S
H618 C643 0.951 . S
H619 C645 0.950 . S
H620 C646 0.950 . S
H621 C648 0.950 . S
H622 C651 0.950 . S
H623 C652 0.950 . S
H624 C654 0.950 . S
H625 C655 0.950 . S
C626 H608 0.951 . S
C626 C627 1.366 . S
C626 C628 1.388 . S
C627 C626 1.366 . S
C627 C631 1.385 . S
C628 H609 0.951 . S
C628 C626 1.388 . S
C628 C629 1.366 . S
C629 C628 1.366 . S
C629 C630 1.414 . S
C629 C632 1.499 . S
C630 H610 0.950 . S
C630 C629 1.414 . S
C630 C631 1.374 . S
C631 H611 0.950 . S
C631 C627 1.385 . S
C631 C630 1.374 . S
C632 C629 1.499 . S
C632 C633 1.373 . S
C632 C634 1.389 . S
C633 H612 0.950 . S
C633 C632 1.373 . S
C633 C649 1.377 . S
C634 C632 1.389 . S
C634 C635 1.524 . S
C634 C648 1.377 . S
C635 C634 1.524 . S
C635 C636 1.397 . S
C635 C640 1.363 . S
C636 H613 0.950 . S
C636 C635 1.397 . S
C636 C637 1.334 . S
C637 H614 0.950 . S
C637 C636 1.334 . S
C637 C638 1.287 . S
C638 C637 1.287 . S
C638 C639 1.524 . S
C638 H657 0.913 . S
C639 H615 0.950 . S
C639 C638 1.524 . S
C639 C640 1.415 . S
C640 H616 0.950 . S
C640 C635 1.363 . S
C640 C639 1.415 . S
C641 H617 0.951 . S
C641 C642 1.366 . S
C641 C643 1.388 . S
C642 C641 1.366 . S
C642 C646 1.385 . S
C643 H618 0.951 . S
C643 C641 1.388 . S
C643 C644 1.366 . S
C644 C643 1.366 . S
C644 C645 1.414 . S
C644 C647 1.499 . S
C645 H619 0.950 . S
C645 C644 1.414 . S
C645 C646 1.374 . S
C646 H620 0.950 . S
C646 C642 1.385 . S
C646 C645 1.374 . S
C647 C644 1.499 . S
C647 C648 1.373 . S
C647 C649 1.389 . S
C648 H621 0.950 . S
C648 C634 1.377 . S
C648 C647 1.373 . S
C649 C633 1.377 . S
C649 C647 1.389 . S
C649 C650 1.524 . S
C650 C649 1.524 . S
C650 C651 1.397 . S
C650 C655 1.363 . S
C651 H622 0.950 . S
C651 C650 1.397 . S
C651 C652 1.334 . S
C652 H623 0.950 . S
C652 C651 1.334 . S
C652 C653 1.287 . S
C653 C652 1.287 . S
C653 C654 1.524 . S
C653 H656 0.999 . S
C654 H624 0.950 . S
C654 C653 1.524 . S
C654 C655 1.415 . S
C655 H625 0.950 . S
C655 C650 1.363 . S
C655 C654 1.415 . S
H656 C653 0.999 . S
H657 C638 0.913 . S
H658 C676 0.951 . S
H659 C678 0.951 . S
H660 C680 0.950 . S
H661 C681 0.950 . S
H662 C683 0.950 . S
H663 C686 0.950 . S
H664 C687 0.950 . S
H665 C689 0.950 . S
H666 C690 0.950 . S
H667 C691 0.951 . S
H668 C693 0.951 . S
H669 C695 0.950 . S
H670 C696 0.950 . S
H671 C698 0.950 . S
H672 C701 0.950 . S
H673 C702 0.950 . S
H674 C704 0.950 . S
H675 C705 0.950 . S
C676 H658 0.951 . S
C676 C677 1.366 . S
C676 C678 1.388 . S
C677 C676 1.366 . S
C677 C681 1.385 . S
C678 H659 0.951 . S
C678 C676 1.388 . S
C678 C679 1.366 . S
C679 C678 1.366 . S
C679 C680 1.414 . S
C679 C682 1.499 . S
C680 H660 0.950 . S
C680 C679 1.414 . S
C680 C681 1.374 . S
C681 H661 0.950 . S
C681 C677 1.385 . S
C681 C680 1.374 . S
C682 C679 1.499 . S
C682 C683 1.373 . S
C682 C684 1.389 . S
C683 H662 0.950 . S
C683 C682 1.373 . S
C683 C699 1.377 . S
C684 C682 1.389 . S
C684 C685 1.524 . S
C684 C698 1.377 . S
C685 C684 1.524 . S
C685 C686 1.397 . S
C685 C690 1.363 . S
C686 H663 0.950 . S
C686 C685 1.397 . S
C686 C687 1.334 . S
C687 H664 0.950 . S
C687 C686 1.334 . S
C687 C688 1.287 . S
C688 C687 1.287 . S
C688 C689 1.524 . S
C688 H707 0.913 . S
C689 H665 0.950 . S
C689 C688 1.524 . S
C689 C690 1.415 . S
C690 H666 0.950 . S
C690 C685 1.363 . S
C690 C689 1.415 . S
C691 H667 0.951 . S
C691 C692 1.366 . S
C691 C693 1.388 . S
C692 C691 1.366 . S
C692 C696 1.385 . S
C693 H668 0.951 . S
C693 C691 1.388 . S
C693 C694 1.366 . S
C694 C693 1.366 . S
C694 C695 1.414 . S
C694 C697 1.499 . S
C695 H669 0.950 . S
C695 C694 1.414 . S
C695 C696 1.374 . S
C696 H670 0.950 . S
C696 C692 1.385 . S
C696 C695 1.374 . S
C697 C694 1.499 . S
C697 C698 1.373 . S
C697 C699 1.389 . S
C698 H671 0.950 . S
C698 C684 1.377 . S
C698 C697 1.373 . S
C699 C683 1.377 . S
C699 C697 1.389 . S
C699 C700 1.524 . S
C700 C699 1.524 . S
C700 C701 1.397 . S
C700 C705 1.363 . S
C701 H672 0.950 . S
C701 C700 1.397 . S
C701 C702 1.334 . S
C702 H673 0.950 . S
C702 C701 1.334 . S
C702 C703 1.287 . S
C703 C702 1.287 . S
C703 C704 1.524 . S
C703 H706 0.999 . S
C704 H674 0.950 . S
C704 C703 1.524 . S
C704 C705 1.415 . S
C705 H675 0.950 . S
C705 C700 1.363 . S
C705 C704 1.415 . S
H706 C703 0.999 . S
H707 C688 0.913 . S
H708 C726 0.951 . S
H709 C728 0.951 . S
H710 C730 0.950 . S
H711 C731 0.950 . S
H712 C733 0.950 . S
H713 C736 0.950 . S
H714 C737 0.950 . S
H715 C739 0.950 . S
H716 C740 0.950 . S
H717 C741 0.951 . S
H718 C743 0.951 . S
H719 C745 0.950 . S
H720 C746 0.950 . S
H721 C748 0.950 . S
H722 C751 0.950 . S
H723 C752 0.950 . S
H724 C754 0.950 . S
H725 C755 0.950 . S
C726 H708 0.951 . S
C726 C727 1.366 . S
C726 C728 1.388 . S
C727 C726 1.366 . S
C727 C731 1.385 . S
C728 H709 0.951 . S
C728 C726 1.388 . S
C728 C729 1.366 . S
C729 C728 1.366 . S
C729 C730 1.414 . S
C729 C732 1.499 . S
C730 H710 0.950 . S
C730 C729 1.414 . S
C730 C731 1.374 . S
C731 H711 0.950 . S
C731 C727 1.385 . S
C731 C730 1.374 . S
C732 C729 1.499 . S
C732 C733 1.373 . S
C732 C734 1.389 . S
C733 H712 0.950 . S
C733 C732 1.373 . S
C733 C749 1.377 . S
C734 C732 1.389 . S
C734 C735 1.524 . S
C734 C748 1.377 . S
C735 C734 1.524 . S
C735 C736 1.397 . S
C735 C740 1.363 . S
C736 H713 0.950 . S
C736 C735 1.397 . S
C736 C737 1.334 . S
C737 H714 0.950 . S
C737 C736 1.334 . S
C737 C738 1.287 . S
C738 C737 1.287 . S
C738 C739 1.524 . S
C738 H757 0.913 . S
C739 H715 0.950 . S
C739 C738 1.524 . S
C739 C740 1.415 . S
C740 H716 0.950 . S
C740 C735 1.363 . S
C740 C739 1.415 . S
C741 H717 0.951 . S
C741 C742 1.366 . S
C741 C743 1.388 . S
C742 C741 1.366 . S
C742 C746 1.385 . S
C743 H718 0.951 . S
C743 C741 1.388 . S
C743 C744 1.366 . S
C744 C743 1.366 . S
C744 C745 1.414 . S
C744 C747 1.499 . S
C745 H719 0.950 . S
C745 C744 1.414 . S
C745 C746 1.374 . S
C746 H720 0.950 . S
C746 C742 1.385 . S
C746 C745 1.374 . S
C747 C744 1.499 . S
C747 C748 1.373 . S
C747 C749 1.389 . S
C748 H721 0.950 . S
C748 C734 1.377 . S
C748 C747 1.373 . S
C749 C733 1.377 . S
C749 C747 1.389 . S
C749 C750 1.524 . S
C750 C749 1.524 . S
C750 C751 1.397 . S
C750 C755 1.363 . S
C751 H722 0.950 . S
C751 C750 1.397 . S
C751 C752 1.334 . S
C752 H723 0.950 . S
C752 C751 1.334 . S
C752 C753 1.287 . S
C753 C752 1.287 . S
C753 C754 1.524 . S
C753 H756 0.999 . S
C754 H724 0.950 . S
C754 C753 1.524 . S
C754 C755 1.415 . S
C755 H725 0.950 . S
C755 C750 1.363 . S
C755 C754 1.415 . S
H756 C753 0.999 . S
H757 C738 0.913 . S
H758 C776 0.951 . S
H759 C778 0.951 . S
H760 C780 0.950 . S
H761 C781 0.950 . S
H762 C783 0.950 . S
H763 C786 0.950 . S
H764 C787 0.950 . S
H765 C789 0.950 . S
H766 C790 0.950 . S
H767 C791 0.951 . S
H768 C793 0.951 . S
H769 C795 0.950 . S
H770 C796 0.950 . S
H771 C798 0.950 . S
H772 C801 0.950 . S
H773 C802 0.950 . S
H774 C804 0.950 1_455 S
H775 C805 0.950 . S
C776 H758 0.951 . S
C776 C777 1.366 . S
C776 C778 1.388 . S
C777 C776 1.366 . S
C777 C781 1.385 . S
C778 H759 0.951 . S
C778 C776 1.388 . S
C778 C779 1.366 . S
C779 C778 1.366 . S
C779 C780 1.414 . S
C779 C782 1.499 . S
C780 H760 0.950 . S
C780 C779 1.414 . S
C780 C781 1.374 . S
C781 H761 0.950 . S
C781 C777 1.385 . S
C781 C780 1.374 . S
C782 C779 1.499 . S
C782 C783 1.373 . S
C782 C784 1.389 . S
C783 H762 0.950 . S
C783 C782 1.373 . S
C783 C799 1.377 . S
C784 C782 1.389 . S
C784 C785 1.524 . S
C784 C798 1.377 . S
C785 C784 1.524 . S
C785 C786 1.397 . S
C785 C790 1.363 . S
C786 H763 0.950 . S
C786 C785 1.397 . S
C786 C787 1.334 . S
C787 H764 0.950 . S
C787 C786 1.334 . S
C787 C788 1.287 . S
C788 C787 1.287 . S
C788 C789 1.524 . S
C788 H807 0.913 . S
C789 H765 0.950 . S
C789 C788 1.524 . S
C789 C790 1.415 . S
C790 H766 0.950 . S
C790 C785 1.363 . S
C790 C789 1.415 . S
C791 H767 0.951 . S
C791 C792 1.366 . S
C791 C793 1.388 . S
C792 C791 1.366 . S
C792 C796 1.385 . S
C793 H768 0.951 . S
C793 C791 1.388 . S
C793 C794 1.366 . S
C794 C793 1.366 . S
C794 C795 1.414 . S
C794 C797 1.499 . S
C795 H769 0.950 . S
C795 C794 1.414 . S
C795 C796 1.374 . S
C796 H770 0.950 . S
C796 C792 1.385 . S
C796 C795 1.374 . S
C797 C794 1.499 . S
C797 C798 1.373 . S
C797 C799 1.389 . S
C798 H771 0.950 . S
C798 C784 1.377 . S
C798 C797 1.373 . S
C799 C783 1.377 . S
C799 C797 1.389 . S
C799 C800 1.524 . S
C800 C799 1.524 . S
C800 C801 1.397 . S
C800 C805 1.363 . S
C801 H772 0.950 . S
C801 C800 1.397 . S
C801 C802 1.334 . S
C802 H773 0.950 . S
C802 C801 1.334 . S
C802 C803 1.287 . S
C803 C802 1.287 . S
C803 C804 1.524 . S
C803 H806 0.999 . S
C804 H774 0.950 1_655 S
C804 C803 1.524 . S
C804 C805 1.415 . S
C805 H775 0.950 . S
C805 C800 1.363 . S
C805 C804 1.415 . S
H806 C803 0.999 . S
H807 C788 0.913 . S
H808 C826 0.951 . S
H809 C828 0.951 . S
H810 C830 0.950 . S
H811 C831 0.950 . S
H812 C833 0.950 . S
H813 C836 0.950 . S
H814 C837 0.950 . S
H815 C839 0.950 . S
H816 C840 0.950 . S
H817 C841 0.951 . S
H818 C843 0.951 . S
H819 C845 0.950 . S
H820 C846 0.950 . S
H821 C848 0.950 . S
H822 C851 0.950 . S
H823 C852 0.950 . S
H824 C854 0.950 . S
H825 C855 0.950 . S
C826 H808 0.951 . S
C826 C827 1.366 . S
C826 C828 1.388 . S
C827 C826 1.366 . S
C827 C831 1.385 . S
C828 H809 0.951 . S
C828 C826 1.388 . S
C828 C829 1.366 . S
C829 C828 1.366 . S
C829 C830 1.414 . S
C829 C832 1.499 . S
C830 H810 0.950 . S
C830 C829 1.414 . S
C830 C831 1.374 . S
C831 H811 0.950 . S
C831 C827 1.385 . S
C831 C830 1.374 . S
C832 C829 1.499 . S
C832 C833 1.373 . S
C832 C834 1.389 . S
C833 H812 0.950 . S
C833 C832 1.373 . S
C833 C849 1.377 . S
C834 C832 1.389 . S
C834 C835 1.524 . S
C834 C848 1.377 . S
C835 C834 1.524 . S
C835 C836 1.397 . S
C835 C840 1.363 . S
C836 H813 0.950 . S
C836 C835 1.397 . S
C836 C837 1.334 . S
C837 H814 0.950 . S
C837 C836 1.334 . S
C837 C838 1.287 1_545 S
C838 C837 1.287 1_565 S
C838 C839 1.524 . S
C838 H857 0.913 . S
C839 H815 0.950 . S
C839 C838 1.524 . S
C839 C840 1.415 1_565 S
C840 H816 0.950 . S
C840 C835 1.363 . S
C840 C839 1.415 1_545 S
C841 H817 0.951 . S
C841 C842 1.366 . S
C841 C843 1.388 . S
C842 C841 1.366 . S
C842 C846 1.385 . S
C843 H818 0.951 . S
C843 C841 1.388 . S
C843 C844 1.366 . S
C844 C843 1.366 . S
C844 C845 1.414 . S
C844 C847 1.499 . S
C845 H819 0.950 . S
C845 C844 1.414 . S
C845 C846 1.374 . S
C846 H820 0.950 . S
C846 C842 1.385 . S
C846 C845 1.374 . S
C847 C844 1.499 . S
C847 C848 1.373 . S
C847 C849 1.389 . S
C848 H821 0.950 . S
C848 C834 1.377 . S
C848 C847 1.373 . S
C849 C833 1.377 . S
C849 C847 1.389 . S
C849 C850 1.524 . S
C850 C849 1.524 . S
C850 C851 1.397 . S
C850 C855 1.363 . S
C851 H822 0.950 . S
C851 C850 1.397 . S
C851 C852 1.334 . S
C852 H823 0.950 . S
C852 C851 1.334 . S
C852 C853 1.287 . S
C853 C852 1.287 . S
C853 C854 1.524 . S
C853 H856 0.999 . S
C854 H824 0.950 . S
C854 C853 1.524 . S
C854 C855 1.415 . S
C855 H825 0.950 . S
C855 C850 1.363 . S
C855 C854 1.415 . S
H856 C853 0.999 . S
H857 C838 0.913 . S
H858 C876 0.951 . S
H859 C878 0.951 . S
H860 C880 0.950 . S
H861 C881 0.950 . S
H862 C883 0.950 . S
H863 C886 0.950 . S
H864 C887 0.950 . S
H865 C889 0.950 . S
H866 C890 0.950 . S
H867 C891 0.951 . S
H868 C893 0.951 . S
H869 C895 0.950 . S
H870 C896 0.950 . S
H871 C898 0.950 . S
H872 C901 0.950 . S
H873 C902 0.950 . S
H874 C904 0.950 . S
H875 C905 0.950 . S
C876 H858 0.951 . S
C876 C877 1.366 . S
C876 C878 1.388 . S
C877 C876 1.366 . S
C877 C881 1.385 . S
C878 H859 0.951 . S
C878 C876 1.388 . S
C878 C879 1.366 . S
C879 C878 1.366 . S
C879 C880 1.414 . S
C879 C882 1.499 . S
C880 H860 0.950 . S
C880 C879 1.414 . S
C880 C881 1.374 . S
C881 H861 0.950 . S
C881 C877 1.385 . S
C881 C880 1.374 . S
C882 C879 1.499 . S
C882 C883 1.373 . S
C882 C884 1.389 . S
C883 H862 0.950 . S
C883 C882 1.373 . S
C883 C899 1.377 . S
C884 C882 1.389 . S
C884 C885 1.524 . S
C884 C898 1.377 . S
C885 C884 1.524 . S
C885 C886 1.397 . S
C885 C890 1.363 . S
C886 H863 0.950 . S
C886 C885 1.397 . S
C886 C887 1.334 1_655 S
C887 H864 0.950 . S
C887 C886 1.334 1_455 S
C887 C888 1.287 . S
C888 C887 1.287 . S
C888 C889 1.524 . S
C888 H907 0.913 . S
C889 H865 0.950 . S
C889 C888 1.524 . S
C889 C890 1.415 1_455 S
C890 H866 0.950 . S
C890 C885 1.363 . S
C890 C889 1.415 1_655 S
C891 H867 0.951 . S
C891 C892 1.366 . S
C891 C893 1.388 . S
C892 C891 1.366 . S
C892 C896 1.385 . S
C893 H868 0.951 . S
C893 C891 1.388 . S
C893 C894 1.366 . S
C894 C893 1.366 . S
C894 C895 1.414 . S
C894 C897 1.499 . S
C895 H869 0.950 . S
C895 C894 1.414 . S
C895 C896 1.374 . S
C896 H870 0.950 . S
C896 C892 1.385 . S
C896 C895 1.374 . S
C897 C894 1.499 . S
C897 C898 1.373 . S
C897 C899 1.389 . S
C898 H871 0.950 . S
C898 C884 1.377 . S
C898 C897 1.373 . S
C899 C883 1.377 . S
C899 C897 1.389 . S
C899 C900 1.524 . S
C900 C899 1.524 . S
C900 C901 1.397 . S
C900 C905 1.363 . S
C901 H872 0.950 . S
C901 C900 1.397 . S
C901 C902 1.334 . S
C902 H873 0.950 . S
C902 C901 1.334 . S
C902 C903 1.287 . S
C903 C902 1.287 . S
C903 C904 1.524 . S
C903 H906 0.999 . S
C904 H874 0.950 . S
C904 C903 1.524 . S
C904 C905 1.415 . S
C905 H875 0.950 . S
C905 C900 1.363 . S
C905 C904 1.415 . S
H906 C903 0.999 . S
H907 C888 0.913 . S
H908 C926 0.951 . S
H909 C928 0.951 . S
H910 C930 0.950 . S
H911 C931 0.950 . S
H912 C933 0.950 . S
H913 C936 0.950 . S
H914 C937 0.950 . S
H915 C939 0.950 . S
H916 C940 0.950 . S
H917 C941 0.951 . S
H918 C943 0.951 . S
H919 C945 0.950 . S
H920 C946 0.950 1_554 S
H921 C948 0.950 . S
H922 C951 0.950 . S
H923 C952 0.950 1_554 S
H924 C954 0.950 . S
H925 C955 0.950 . S
C926 H908 0.951 . S
C926 C927 1.366 . S
C926 C928 1.388 . S
C927 C926 1.366 . S
C927 C931 1.385 . S
C928 H909 0.951 . S
C928 C926 1.388 . S
C928 C929 1.366 . S
C929 C928 1.366 . S
C929 C930 1.414 . S
C929 C932 1.499 . S
C930 H910 0.950 . S
C930 C929 1.414 . S
C930 C931 1.374 . S
C931 H911 0.950 . S
C931 C927 1.385 . S
C931 C930 1.374 . S
C932 C929 1.499 . S
C932 C933 1.373 . S
C932 C934 1.389 . S
C933 H912 0.950 . S
C933 C932 1.373 . S
C933 C949 1.377 . S
C934 C932 1.389 . S
C934 C935 1.524 . S
C934 C948 1.377 . S
C935 C934 1.524 . S
C935 C936 1.397 . S
C935 C940 1.363 . S
C936 H913 0.950 . S
C936 C935 1.397 . S
C936 C937 1.334 . S
C937 H914 0.950 . S
C937 C936 1.334 . S
C937 C938 1.287 . S
C938 C937 1.287 . S
C938 C939 1.524 . S
C938 H957 0.913 . S
C939 H915 0.950 . S
C939 C938 1.524 . S
C939 C940 1.415 . S
C940 H916 0.950 . S
C940 C935 1.363 . S
C940 C939 1.415 . S
C941 H917 0.951 . S
C941 C942 1.366 . S
C941 C943 1.388 . S
C942 C941 1.366 . S
C942 C946 1.385 . S
C943 H918 0.951 . S
C943 C941 1.388 . S
C943 C944 1.366 . S
C944 C943 1.366 . S
C944 C945 1.414 . S
C944 C947 1.499 . S
C945 H919 0.950 . S
C945 C944 1.414 . S
C945 C946 1.374 . S
C946 H920 0.950 1_556 S
C946 C942 1.385 . S
C946 C945 1.374 . S
C947 C944 1.499 . S
C947 C948 1.373 . S
C947 C949 1.389 . S
C948 H921 0.950 . S
C948 C934 1.377 . S
C948 C947 1.373 . S
C949 C933 1.377 . S
C949 C947 1.389 . S
C949 C950 1.524 . S
C950 C949 1.524 . S
C950 C951 1.397 . S
C950 C955 1.363 . S
C951 H922 0.950 . S
C951 C950 1.397 . S
C951 C952 1.334 . S
C952 H923 0.950 1_556 S
C952 C951 1.334 . S
C952 C953 1.287 . S
C953 C952 1.287 . S
C953 C954 1.524 . S
C953 H956 0.999 . S
C954 H924 0.950 . S
C954 C953 1.524 . S
C954 C955 1.415 . S
C955 H925 0.950 . S
C955 C950 1.363 . S
C955 C954 1.415 . S
H956 C953 0.999 . S
H957 C938 0.913 . S
H958 C976 0.951 . S
H959 C978 0.951 . S
H960 C980 0.950 . S
H961 C981 0.950 . S
H962 C983 0.950 . S
H963 C986 0.950 . S
H964 C987 0.950 . S
H965 C989 0.950 . S
H966 C990 0.950 . S
H967 C991 0.951 . S
H968 C993 0.951 . S
H969 C995 0.950 . S
H970 C996 0.950 . S
H971 C998 0.950 . S
H972 C1001 0.950 . S
H973 C1002 0.950 . S
H974 C1004 0.950 . S
H975 C1005 0.950 . S
C976 H958 0.951 . S
C976 C977 1.366 . S
C976 C978 1.388 . S
C977 C976 1.366 . S
C977 C981 1.385 . S
C978 H959 0.951 . S
C978 C976 1.388 . S
C978 C979 1.366 . S
C979 C978 1.366 . S
C979 C980 1.414 . S
C979 C982 1.499 . S
C980 H960 0.950 . S
C980 C979 1.414 . S
C980 C981 1.374 . S
C981 H961 0.950 . S
C981 C977 1.385 . S
C981 C980 1.374 . S
C982 C979 1.499 . S
C982 C983 1.373 . S
C982 C984 1.389 . S
C983 H962 0.950 . S
C983 C982 1.373 . S
C983 C999 1.377 . S
C984 C982 1.389 . S
C984 C985 1.524 . S
C984 C998 1.377 . S
C985 C984 1.524 . S
C985 C986 1.397 . S
C985 C990 1.363 . S
C986 H963 0.950 . S
C986 C985 1.397 . S
C986 C987 1.334 . S
C987 H964 0.950 . S
C987 C986 1.334 . S
C987 C988 1.287 . S
C988 C987 1.287 . S
C988 C989 1.524 . S
C988 H1007 0.913 . S
C989 H965 0.950 . S
C989 C988 1.524 . S
C989 C990 1.415 . S
C990 H966 0.950 . S
C990 C985 1.363 . S
C990 C989 1.415 . S
C991 H967 0.951 . S
C991 C992 1.366 . S
C991 C993 1.388 . S
C992 C991 1.366 . S
C992 C996 1.385 . S
C993 H968 0.951 . S
C993 C991 1.388 . S
C993 C994 1.366 . S
C994 C993 1.366 . S
C994 C995 1.414 . S
C994 C997 1.499 . S
C995 H969 0.950 . S
C995 C994 1.414 . S
C995 C996 1.374 . S
C996 H970 0.950 . S
C996 C992 1.385 . S
C996 C995 1.374 . S
C997 C994 1.499 . S
C997 C998 1.373 . S
C997 C999 1.389 . S
C998 H971 0.950 . S
C998 C984 1.377 . S
C998 C997 1.373 . S
C999 C983 1.377 . S
C999 C997 1.389 . S
C999 C1000 1.524 . S
C1000 C999 1.524 . S
C1000 C1001 1.397 . S
C1000 C1005 1.363 . S
C1001 H972 0.950 . S
C1001 C1000 1.397 . S
C1001 C1002 1.334 . S
C1002 H973 0.950 . S
C1002 C1001 1.334 . S
C1002 C1003 1.287 . S
C1003 C1002 1.287 . S
C1003 C1004 1.524 . S
C1003 H1006 0.999 . S
C1004 H974 0.950 . S
C1004 C1003 1.524 . S
C1004 C1005 1.415 . S
C1005 H975 0.950 . S
C1005 C1000 1.363 . S
C1005 C1004 1.415 . S
H1006 C1003 0.999 . S
H1007 C988 0.913 . S
H1008 C1026 0.951 . S
H1009 C1028 0.951 . S
H1010 C1030 0.950 . S
H1011 C1031 0.950 . S
H1012 C1033 0.950 . S
H1013 C1036 0.950 . S
H1014 C1037 0.950 . S
H1015 C1039 0.950 . S
H1016 C1040 0.950 . S
H1017 C1041 0.951 . S
H1018 C1043 0.951 . S
H1019 C1045 0.950 . S
H1020 C1046 0.950 . S
H1021 C1048 0.950 . S
H1022 C1051 0.950 . S
H1023 C1052 0.950 . S
H1024 C1054 0.950 . S
H1025 C1055 0.950 . S
C1026 H1008 0.951 . S
C1026 C1027 1.366 . S
C1026 C1028 1.388 . S
C1027 C1026 1.366 . S
C1027 C1031 1.385 . S
C1028 H1009 0.951 . S
C1028 C1026 1.388 . S
C1028 C1029 1.366 . S
C1029 C1028 1.366 . S
C1029 C1030 1.414 . S
C1029 C1032 1.499 . S
C1030 H1010 0.950 . S
C1030 C1029 1.414 . S
C1030 C1031 1.374 . S
C1031 H1011 0.950 . S
C1031 C1027 1.385 . S
C1031 C1030 1.374 . S
C1032 C1029 1.499 . S
C1032 C1033 1.373 . S
C1032 C1034 1.389 . S
C1033 H1012 0.950 . S
C1033 C1032 1.373 . S
C1033 C1049 1.377 . S
C1034 C1032 1.389 . S
C1034 C1035 1.524 . S
C1034 C1048 1.377 . S
C1035 C1034 1.524 . S
C1035 C1036 1.397 . S
C1035 C1040 1.363 . S
C1036 H1013 0.950 . S
C1036 C1035 1.397 . S
C1036 C1037 1.334 . S
C1037 H1014 0.950 . S
C1037 C1036 1.334 . S
C1037 C1038 1.287 . S
C1038 C1037 1.287 . S
C1038 C1039 1.524 . S
C1038 H1057 0.913 . S
C1039 H1015 0.950 . S
C1039 C1038 1.524 . S
C1039 C1040 1.415 . S
C1040 H1016 0.950 . S
C1040 C1035 1.363 . S
C1040 C1039 1.415 . S
C1041 H1017 0.951 . S
C1041 C1042 1.366 . S
C1041 C1043 1.388 . S
C1042 C1041 1.366 . S
C1042 C1046 1.385 . S
C1043 H1018 0.951 . S
C1043 C1041 1.388 . S
C1043 C1044 1.366 . S
C1044 C1043 1.366 . S
C1044 C1045 1.414 . S
C1044 C1047 1.499 . S
C1045 H1019 0.950 . S
C1045 C1044 1.414 . S
C1045 C1046 1.374 . S
C1046 H1020 0.950 . S
C1046 C1042 1.385 . S
C1046 C1045 1.374 . S
C1047 C1044 1.499 . S
C1047 C1048 1.373 . S
C1047 C1049 1.389 . S
C1048 H1021 0.950 . S
C1048 C1034 1.377 . S
C1048 C1047 1.373 . S
C1049 C1033 1.377 . S
C1049 C1047 1.389 . S
C1049 C1050 1.524 . S
C1050 C1049 1.524 . S
C1050 C1051 1.397 . S
C1050 C1055 1.363 . S
C1051 H1022 0.950 . S
C1051 C1050 1.397 . S
C1051 C1052 1.334 . S
C1052 H1023 0.950 . S
C1052 C1051 1.334 . S
C1052 C1053 1.287 . S
C1053 C1052 1.287 . S
C1053 C1054 1.524 . S
C1053 H1056 0.999 . S
C1054 H1024 0.950 . S
C1054 C1053 1.524 . S
C1054 C1055 1.415 . S
C1055 H1025 0.950 . S
C1055 C1050 1.363 . S
C1055 C1054 1.415 . S
H1056 C1053 0.999 . S
H1057 C1038 0.913 . S
H1058 C1076 0.951 . S
H1059 C1078 0.951 . S
H1060 C1080 0.950 . S
H1061 C1081 0.950 . S
H1062 C1083 0.950 . S
H1063 C1086 0.950 . S
H1064 C1087 0.950 . S
H1065 C1089 0.939 1_655 S
H1066 C1090 0.950 . S
H1067 C1091 0.951 . S
H1068 C1093 0.951 . S
H1069 C1095 0.950 . S
H1070 C1096 0.950 . S
H1071 C1098 0.950 . S
H1072 C1101 0.950 . S
H1073 C1102 0.950 . S
H1074 C1104 0.950 . S
H1075 C1105 0.950 . S
C1076 H1058 0.951 . S
C1076 C1077 1.366 . S
C1076 C1078 1.388 . S
C1077 C1076 1.366 . S
C1077 C1081 1.385 . S
C1078 H1059 0.951 . S
C1078 C1076 1.388 . S
C1078 C1079 1.366 . S
C1079 C1078 1.366 . S
C1079 C1080 1.414 . S
C1079 C1082 1.499 . S
C1080 H1060 0.950 . S
C1080 C1079 1.414 . S
C1080 C1081 1.374 . S
C1081 H1061 0.950 . S
C1081 C1077 1.385 . S
C1081 C1080 1.374 . S
C1082 C1079 1.499 . S
C1082 C1083 1.373 . S
C1082 C1084 1.389 . S
C1083 H1062 0.950 . S
C1083 C1082 1.373 . S
C1083 C1099 1.377 . S
C1084 C1082 1.389 . S
C1084 C1085 1.524 . S
C1084 C1098 1.377 . S
C1085 C1084 1.524 . S
C1085 C1086 1.397 . S
C1085 C1090 1.363 . S
C1086 H1063 0.950 . S
C1086 C1085 1.397 . S
C1086 C1087 1.334 . S
C1087 H1064 0.950 . S
C1087 C1086 1.334 . S
C1087 C1088 1.287 . S
C1088 C1087 1.287 . S
C1088 C1089 1.524 . S
C1088 H1107 0.913 . S
C1089 H1065 0.939 1_455 S
C1089 C1088 1.524 . S
C1089 C1090 1.415 . S
C1090 H1066 0.950 . S
C1090 C1085 1.363 . S
C1090 C1089 1.415 . S
C1091 H1067 0.951 . S
C1091 C1092 1.366 . S
C1091 C1093 1.388 . S
C1092 C1091 1.366 . S
C1092 C1096 1.385 . S
C1093 H1068 0.951 . S
C1093 C1091 1.388 . S
C1093 C1094 1.366 . S
C1094 C1093 1.366 . S
C1094 C1095 1.414 . S
C1094 C1097 1.499 . S
C1095 H1069 0.950 . S
C1095 C1094 1.414 . S
C1095 C1096 1.374 . S
C1096 H1070 0.950 . S
C1096 C1092 1.385 . S
C1096 C1095 1.374 . S
C1097 C1094 1.499 . S
C1097 C1098 1.373 . S
C1097 C1099 1.389 . S
C1098 H1071 0.950 . S
C1098 C1084 1.377 . S
C1098 C1097 1.373 . S
C1099 C1083 1.377 . S
C1099 C1097 1.389 . S
C1099 C1100 1.524 . S
C1100 C1099 1.524 . S
C1100 C1101 1.397 . S
C1100 C1105 1.363 . S
C1101 H1072 0.950 . S
C1101 C1100 1.397 . S
C1101 C1102 1.334 . S
C1102 H1073 0.950 . S
C1102 C1101 1.334 . S
C1102 C1103 1.287 . S
C1103 C1102 1.287 . S
C1103 C1104 1.524 . S
C1103 H1106 0.999 . S
C1104 H1074 0.950 . S
C1104 C1103 1.524 . S
C1104 C1105 1.415 . S
C1105 H1075 0.950 . S
C1105 C1100 1.363 . S
C1105 C1104 1.415 . S
H1106 C1103 0.999 . S
H1107 C1088 0.913 . S
H1108 C1126 0.951 . S
H1109 C1128 0.951 . S
H1110 C1130 0.950 . S
H1111 C1131 0.950 . S
H1112 C1133 0.950 . S
H1113 C1136 0.950 . S
H1114 C1137 0.950 . S
H1115 C1139 0.950 . S
H1116 C1140 0.950 . S
H1117 C1141 0.951 . S
H1118 C1143 0.951 . S
H1119 C1145 0.950 . S
H1120 C1146 0.950 . S
H1121 C1148 0.950 . S
H1122 C1151 0.950 . S
H1123 C1152 0.950 . S
H1124 C1154 0.950 . S
H1125 C1155 0.950 . S
C1126 H1108 0.951 . S
C1126 C1127 1.366 . S
C1126 C1128 1.388 . S
C1127 C1126 1.366 . S
C1127 C1131 1.385 . S
C1128 H1109 0.951 . S
C1128 C1126 1.388 . S
C1128 C1129 1.366 . S
C1129 C1128 1.366 . S
C1129 C1130 1.414 . S
C1129 C1132 1.499 . S
C1130 H1110 0.950 . S
C1130 C1129 1.414 . S
C1130 C1131 1.374 . S
C1131 H1111 0.950 . S
C1131 C1127 1.385 . S
C1131 C1130 1.374 . S
C1132 C1129 1.499 . S
C1132 C1133 1.373 . S
C1132 C1134 1.389 . S
C1133 H1112 0.950 . S
C1133 C1132 1.373 . S
C1133 C1149 1.377 . S
C1134 C1132 1.389 . S
C1134 C1135 1.524 . S
C1134 C1148 1.377 . S
C1135 C1134 1.524 . S
C1135 C1136 1.397 . S
C1135 C1140 1.363 . S
C1136 H1113 0.950 . S
C1136 C1135 1.397 . S
C1136 C1137 1.334 . S
C1137 H1114 0.950 . S
C1137 C1136 1.334 . S
C1137 C1138 1.287 . S
C1138 C1137 1.287 . S
C1138 C1139 1.524 . S
C1138 H1157 0.913 . S
C1139 H1115 0.950 . S
C1139 C1138 1.524 . S
C1139 C1140 1.415 . S
C1140 H1116 0.950 . S
C1140 C1135 1.363 . S
C1140 C1139 1.415 . S
C1141 H1117 0.951 . S
C1141 C1142 1.366 . S
C1141 C1143 1.388 . S
C1142 C1141 1.366 . S
C1142 C1146 1.385 . S
C1143 H1118 0.951 . S
C1143 C1141 1.388 . S
C1143 C1144 1.366 . S
C1144 C1143 1.366 . S
C1144 C1145 1.414 . S
C1144 C1147 1.499 . S
C1145 H1119 0.950 . S
C1145 C1144 1.414 . S
C1145 C1146 1.374 . S
C1146 H1120 0.950 . S
C1146 C1142 1.385 . S
C1146 C1145 1.374 . S
C1147 C1144 1.499 . S
C1147 C1148 1.373 . S
C1147 C1149 1.389 . S
C1148 H1121 0.950 . S
C1148 C1134 1.377 . S
C1148 C1147 1.373 . S
C1149 C1133 1.377 . S
C1149 C1147 1.389 . S
C1149 C1150 1.524 . S
C1150 C1149 1.524 . S
C1150 C1151 1.397 . S
C1150 C1155 1.363 . S
C1151 H1122 0.950 . S
C1151 C1150 1.397 . S
C1151 C1152 1.334 . S
C1152 H1123 0.950 . S
C1152 C1151 1.334 . S
C1152 C1153 1.287 . S
C1153 C1152 1.287 . S
C1153 C1154 1.524 . S
C1153 H1156 0.999 . S
C1154 H1124 0.950 . S
C1154 C1153 1.524 . S
C1154 C1155 1.415 . S
C1155 H1125 0.950 . S
C1155 C1150 1.363 . S
C1155 C1154 1.415 . S
H1156 C1153 0.999 . S
H1157 C1138 0.913 . S
H1158 C1176 0.951 . S
H1159 C1178 0.951 . S
H1160 C1180 0.950 . S
H1161 C1181 0.950 . S
H1162 C1183 0.950 . S
H1163 C1186 0.950 . S
H1164 C1187 0.950 . S
H1165 C1189 0.950 . S
H1166 C1190 0.950 . S
H1167 C1191 0.951 . S
H1168 C1193 0.951 . S
H1169 C1195 0.950 . S
H1170 C1196 0.950 . S
H1171 C1198 0.950 . S
H1172 C1201 0.950 . S
H1173 C1202 0.950 . S
H1174 C1204 0.950 . S
H1175 C1205 0.950 . S
C1176 H1158 0.951 . S
C1176 C1177 1.366 . S
C1176 C1178 1.388 . S
C1177 C1176 1.366 . S
C1177 C1181 1.385 . S
C1178 H1159 0.951 . S
C1178 C1176 1.388 . S
C1178 C1179 1.366 . S
C1179 C1178 1.366 . S
C1179 C1180 1.414 . S
C1179 C1182 1.499 . S
C1180 H1160 0.950 . S
C1180 C1179 1.414 . S
C1180 C1181 1.374 . S
C1181 H1161 0.950 . S
C1181 C1177 1.385 . S
C1181 C1180 1.374 . S
C1182 C1179 1.499 . S
C1182 C1183 1.373 . S
C1182 C1184 1.389 . S
C1183 H1162 0.950 . S
C1183 C1182 1.373 . S
C1183 C1199 1.377 . S
C1184 C1182 1.389 . S
C1184 C1185 1.524 . S
C1184 C1198 1.377 . S
C1185 C1184 1.524 . S
C1185 C1186 1.397 . S
C1185 C1190 1.363 . S
C1186 H1163 0.950 . S
C1186 C1185 1.397 . S
C1186 C1187 1.334 . S
C1187 H1164 0.950 . S
C1187 C1186 1.334 . S
C1187 C1188 1.287 . S
C1188 C1187 1.287 . S
C1188 C1189 1.524 . S
C1188 H1207 0.913 . S
C1189 H1165 0.950 . S
C1189 C1188 1.524 . S
C1189 C1190 1.415 . S
C1190 H1166 0.950 . S
C1190 C1185 1.363 . S
C1190 C1189 1.415 . S
C1191 H1167 0.951 . S
C1191 C1192 1.366 . S
C1191 C1193 1.388 . S
C1192 C1191 1.366 . S
C1192 C1196 1.385 . S
C1193 H1168 0.951 . S
C1193 C1191 1.388 . S
C1193 C1194 1.366 . S
C1194 C1193 1.366 . S
C1194 C1195 1.414 . S
C1194 C1197 1.499 . S
C1195 H1169 0.950 . S
C1195 C1194 1.414 . S
C1195 C1196 1.374 . S
C1196 H1170 0.950 . S
C1196 C1192 1.385 . S
C1196 C1195 1.374 . S
C1197 C1194 1.499 . S
C1197 C1198 1.373 . S
C1197 C1199 1.389 . S
C1198 H1171 0.950 . S
C1198 C1184 1.377 . S
C1198 C1197 1.373 . S
C1199 C1183 1.377 . S
C1199 C1197 1.389 . S
C1199 C1200 1.524 . S
C1200 C1199 1.524 . S
C1200 C1201 1.397 . S
C1200 C1205 1.363 . S
C1201 H1172 0.950 . S
C1201 C1200 1.397 . S
C1201 C1202 1.334 . S
C1202 H1173 0.950 . S
C1202 C1201 1.334 . S
C1202 C1203 1.287 . S
C1203 C1202 1.287 . S
C1203 C1204 1.524 . S
C1203 H1206 0.999 . S
C1204 H1174 0.950 . S
C1204 C1203 1.524 . S
C1204 C1205 1.415 . S
C1205 H1175 0.950 . S
C1205 C1200 1.363 . S
C1205 C1204 1.415 . S
H1206 C1203 0.999 . S
H1207 C1188 0.913 . S
H1208 C1226 0.951 . S
H1209 C1228 0.951 . S
H1210 C1230 0.950 . S
H1211 C1231 0.950 . S
H1212 C1233 0.950 . S
H1213 C1236 0.950 . S
H1214 C1237 0.950 . S
H1215 C1239 0.950 . S
H1216 C1240 0.950 . S
H1217 C1241 0.951 . S
H1218 C1243 0.951 . S
H1219 C1245 0.950 . S
H1220 C1246 0.950 . S
H1221 C1248 0.950 . S
H1222 C1251 0.950 . S
H1223 C1252 0.950 . S
H1224 C1254 0.950 . S
H1225 C1255 0.950 . S
C1226 H1208 0.951 . S
C1226 C1227 1.366 . S
C1226 C1228 1.388 . S
C1227 C1226 1.366 . S
C1227 C1231 1.385 . S
C1228 H1209 0.951 . S
C1228 C1226 1.388 . S
C1228 C1229 1.366 . S
C1229 C1228 1.366 . S
C1229 C1230 1.414 . S
C1229 C1232 1.499 . S
C1230 H1210 0.950 . S
C1230 C1229 1.414 . S
C1230 C1231 1.374 . S
C1231 H1211 0.950 . S
C1231 C1227 1.385 . S
C1231 C1230 1.374 . S
C1232 C1229 1.499 . S
C1232 C1233 1.373 . S
C1232 C1234 1.389 . S
C1233 H1212 0.950 . S
C1233 C1232 1.373 . S
C1233 C1249 1.377 . S
C1234 C1232 1.389 . S
C1234 C1235 1.524 . S
C1234 C1248 1.377 . S
C1235 C1234 1.524 . S
C1235 C1236 1.397 . S
C1235 C1240 1.363 . S
C1236 H1213 0.950 . S
C1236 C1235 1.397 . S
C1236 C1237 1.334 . S
C1237 H1214 0.950 . S
C1237 C1236 1.334 . S
C1237 C1238 1.287 . S
C1238 C1237 1.287 . S
C1238 C1239 1.524 . S
C1238 H1257 0.913 . S
C1239 H1215 0.950 . S
C1239 C1238 1.524 . S
C1239 C1240 1.415 . S
C1240 H1216 0.950 . S
C1240 C1235 1.363 . S
C1240 C1239 1.415 . S
C1241 H1217 0.951 . S
C1241 C1242 1.366 . S
C1241 C1243 1.388 . S
C1242 C1241 1.366 . S
C1242 C1246 1.385 . S
C1243 H1218 0.951 . S
C1243 C1241 1.388 . S
C1243 C1244 1.366 . S
C1244 C1243 1.366 . S
C1244 C1245 1.414 . S
C1244 C1247 1.499 . S
C1245 H1219 0.950 . S
C1245 C1244 1.414 . S
C1245 C1246 1.374 . S
C1246 H1220 0.950 . S
C1246 C1242 1.385 . S
C1246 C1245 1.374 . S
C1247 C1244 1.499 . S
C1247 C1248 1.373 . S
C1247 C1249 1.389 . S
C1248 H1221 0.950 . S
C1248 C1234 1.377 . S
C1248 C1247 1.373 . S
C1249 C1233 1.377 . S
C1249 C1247 1.389 . S
C1249 C1250 1.524 . S
C1250 C1249 1.524 . S
C1250 C1251 1.397 . S
C1250 C1255 1.363 . S
C1251 H1222 0.950 . S
C1251 C1250 1.397 . S
C1251 C1252 1.334 . S
C1252 H1223 0.950 . S
C1252 C1251 1.334 . S
C1252 C1253 1.287 . S
C1253 C1252 1.287 . S
C1253 C1254 1.524 . S
C1253 H1256 0.999 . S
C1254 H1224 0.950 . S
C1254 C1253 1.524 . S
C1254 C1255 1.415 . S
C1255 H1225 0.950 . S
C1255 C1250 1.363 . S
C1255 C1254 1.415 . S
H1256 C1253 0.999 . S
H1257 C1238 0.913 . S
H1258 C1276 0.951 . S
H1259 C1278 0.951 . S
H1260 C1280 0.950 . S
H1261 C1281 0.950 . S
H1262 C1283 0.950 . S
H1263 C1286 0.950 . S
H1264 C1287 0.950 . S
H1265 C1289 0.950 . S
H1266 C1290 0.950 . S
H1267 C1291 0.951 . S
H1268 C1293 0.951 . S
H1269 C1295 0.950 . S
H1270 C1296 0.950 . S
H1271 C1298 0.950 . S
H1272 C1301 0.950 . S
H1273 C1302 0.950 . S
H1274 C1304 0.950 . S
H1275 C1305 0.950 . S
C1276 H1258 0.951 . S
C1276 C1277 1.366 . S
C1276 C1278 1.388 . S
C1277 C1276 1.366 . S
C1277 C1281 1.385 . S
C1278 H1259 0.951 . S
C1278 C1276 1.388 . S
C1278 C1279 1.366 . S
C1279 C1278 1.366 . S
C1279 C1280 1.414 . S
C1279 C1282 1.499 . S
C1280 H1260 0.950 . S
C1280 C1279 1.414 . S
C1280 C1281 1.374 . S
C1281 H1261 0.950 . S
C1281 C1277 1.385 . S
C1281 C1280 1.374 . S
C1282 C1279 1.499 . S
C1282 C1283 1.373 . S
C1282 C1284 1.389 . S
C1283 H1262 0.950 . S
C1283 C1282 1.373 . S
C1283 C1299 1.377 . S
C1284 C1282 1.389 . S
C1284 C1285 1.524 . S
C1284 C1298 1.377 . S
C1285 C1284 1.524 . S
C1285 C1286 1.397 . S
C1285 C1290 1.363 . S
C1286 H1263 0.950 . S
C1286 C1285 1.397 . S
C1286 C1287 1.334 . S
C1287 H1264 0.950 . S
C1287 C1286 1.334 . S
C1287 C1288 1.287 . S
C1288 C1287 1.287 . S
C1288 C1289 1.524 . S
C1288 H1307 0.913 . S
C1289 H1265 0.950 . S
C1289 C1288 1.524 . S
C1289 C1290 1.415 . S
C1290 H1266 0.950 . S
C1290 C1285 1.363 . S
C1290 C1289 1.415 . S
C1291 H1267 0.951 . S
C1291 C1292 1.366 . S
C1291 C1293 1.388 . S
C1292 C1291 1.366 . S
C1292 C1296 1.385 . S
C1293 H1268 0.951 . S
C1293 C1291 1.388 . S
C1293 C1294 1.366 . S
C1294 C1293 1.366 . S
C1294 C1295 1.414 . S
C1294 C1297 1.499 . S
C1295 H1269 0.950 . S
C1295 C1294 1.414 . S
C1295 C1296 1.374 . S
C1296 H1270 0.950 . S
C1296 C1292 1.385 . S
C1296 C1295 1.374 . S
C1297 C1294 1.499 . S
C1297 C1298 1.373 . S
C1297 C1299 1.389 . S
C1298 H1271 0.950 . S
C1298 C1284 1.377 . S
C1298 C1297 1.373 . S
C1299 C1283 1.377 . S
C1299 C1297 1.389 . S
C1299 C1300 1.524 . S
C1300 C1299 1.524 . S
C1300 C1301 1.397 . S
C1300 C1305 1.363 . S
C1301 H1272 0.950 . S
C1301 C1300 1.397 . S
C1301 C1302 1.334 . S
C1302 H1273 0.950 . S
C1302 C1301 1.334 . S
C1302 C1303 1.287 . S
C1303 C1302 1.287 . S
C1303 C1304 1.524 . S
C1303 H1306 0.999 . S
C1304 H1274 0.950 . S
C1304 C1303 1.524 . S
C1304 C1305 1.415 . S
C1305 H1275 0.950 . S
C1305 C1300 1.363 . S
C1305 C1304 1.415 . S
H1306 C1303 0.999 . S
H1307 C1288 0.913 . S
H1308 C1326 0.951 . S
H1309 C1328 0.951 . S
H1310 C1330 0.950 . S
H1311 C1331 0.950 . S
H1312 C1333 0.950 . S
H1313 C1336 0.950 . S
H1314 C1337 0.950 . S
H1315 C1339 0.950 . S
H1316 C1340 0.950 . S
H1317 C1341 0.951 . S
H1318 C1343 0.951 . S
H1319 C1345 0.950 . S
H1320 C1346 0.950 . S
H1321 C1348 0.950 . S
H1322 C1351 0.950 . S
H1323 C1352 0.950 . S
H1324 C1354 0.950 . S
H1325 C1355 0.950 . S
C1326 H1308 0.951 . S
C1326 C1327 1.366 . S
C1326 C1328 1.388 . S
C1327 C1326 1.366 . S
C1327 C1331 1.385 . S
C1328 H1309 0.951 . S
C1328 C1326 1.388 . S
C1328 C1329 1.366 . S
C1329 C1328 1.366 . S
C1329 C1330 1.414 . S
C1329 C1332 1.499 . S
C1330 H1310 0.950 . S
C1330 C1329 1.414 . S
C1330 C1331 1.374 . S
C1331 H1311 0.950 . S
C1331 C1327 1.385 . S
C1331 C1330 1.374 . S
C1332 C1329 1.499 . S
C1332 C1333 1.373 . S
C1332 C1334 1.389 . S
C1333 H1312 0.950 . S
C1333 C1332 1.373 . S
C1333 C1349 1.377 . S
C1334 C1332 1.389 . S
C1334 C1335 1.524 . S
C1334 C1348 1.377 . S
C1335 C1334 1.524 . S
C1335 C1336 1.397 . S
C1335 C1340 1.363 . S
C1336 H1313 0.950 . S
C1336 C1335 1.397 . S
C1336 C1337 1.334 . S
C1337 H1314 0.950 . S
C1337 C1336 1.334 . S
C1337 C1338 1.287 . S
C1338 C1337 1.287 . S
C1338 C1339 1.524 . S
C1338 H1357 0.913 . S
C1339 H1315 0.950 . S
C1339 C1338 1.524 . S
C1339 C1340 1.415 . S
C1340 H1316 0.950 . S
C1340 C1335 1.363 . S
C1340 C1339 1.415 . S
C1341 H1317 0.951 . S
C1341 C1342 1.366 . S
C1341 C1343 1.388 . S
C1342 C1341 1.366 . S
C1342 C1346 1.385 . S
C1343 H1318 0.951 . S
C1343 C1341 1.388 . S
C1343 C1344 1.366 . S
C1344 C1343 1.366 . S
C1344 C1345 1.414 . S
C1344 C1347 1.499 . S
C1345 H1319 0.950 . S
C1345 C1344 1.414 . S
C1345 C1346 1.374 . S
C1346 H1320 0.950 . S
C1346 C1342 1.385 . S
C1346 C1345 1.374 . S
C1347 C1344 1.499 . S
C1347 C1348 1.373 . S
C1347 C1349 1.389 . S
C1348 H1321 0.950 . S
C1348 C1334 1.377 . S
C1348 C1347 1.373 . S
C1349 C1333 1.377 . S
C1349 C1347 1.389 . S
C1349 C1350 1.524 . S
C1350 C1349 1.524 . S
C1350 C1351 1.397 . S
C1350 C1355 1.363 . S
C1351 H1322 0.950 . S
C1351 C1350 1.397 . S
C1351 C1352 1.334 . S
C1352 H1323 0.950 . S
C1352 C1351 1.334 . S
C1352 C1353 1.287 . S
C1353 C1352 1.287 . S
C1353 C1354 1.524 . S
C1353 H1356 0.999 . S
C1354 H1324 0.950 . S
C1354 C1353 1.524 . S
C1354 C1355 1.415 . S
C1355 H1325 0.950 . S
C1355 C1350 1.363 . S
C1355 C1354 1.415 . S
H1356 C1353 0.999 . S
H1357 C1338 0.913 . S
H1358 C1376 0.951 . S
H1359 C1378 0.951 . S
H1360 C1380 0.950 . S
H1361 C1381 0.950 . S
H1362 C1383 0.950 . S
H1363 C1386 0.950 . S
H1364 C1387 0.950 . S
H1365 C1389 0.950 . S
H1366 C1390 0.950 . S
H1367 C1391 0.951 . S
H1368 C1393 0.951 . S
H1369 C1395 0.950 . S
H1370 C1396 0.950 . S
H1371 C1398 0.950 . S
H1372 C1401 0.950 . S
H1373 C1402 0.950 . S
H1374 C1404 0.950 . S
H1375 C1405 0.950 . S
C1376 H1358 0.951 . S
C1376 C1377 1.366 . S
C1376 C1378 1.388 . S
C1377 C1376 1.366 . S
C1377 C1381 1.385 . S
C1378 H1359 0.951 . S
C1378 C1376 1.388 . S
C1378 C1379 1.366 . S
C1379 C1378 1.366 . S
C1379 C1380 1.414 . S
C1379 C1382 1.499 . S
C1380 H1360 0.950 . S
C1380 C1379 1.414 . S
C1380 C1381 1.374 . S
C1381 H1361 0.950 . S
C1381 C1377 1.385 . S
C1381 C1380 1.374 . S
C1382 C1379 1.499 . S
C1382 C1383 1.373 . S
C1382 C1384 1.389 . S
C1383 H1362 0.950 . S
C1383 C1382 1.373 . S
C1383 C1399 1.377 . S
C1384 C1382 1.389 . S
C1384 C1385 1.524 . S
C1384 C1398 1.377 . S
C1385 C1384 1.524 . S
C1385 C1386 1.397 . S
C1385 C1390 1.363 . S
C1386 H1363 0.950 . S
C1386 C1385 1.397 . S
C1386 C1387 1.334 1_565 S
C1387 H1364 0.950 . S
C1387 C1386 1.334 1_545 S
C1387 C1388 1.287 . S
C1388 C1387 1.287 . S
C1388 C1389 1.524 1_545 S
C1388 H1407 0.913 . S
C1389 H1365 0.950 . S
C1389 C1388 1.524 1_565 S
C1389 C1390 1.415 . S
C1390 H1366 0.950 . S
C1390 C1385 1.363 . S
C1390 C1389 1.415 . S
C1391 H1367 0.951 . S
C1391 C1392 1.366 . S
C1391 C1393 1.388 . S
C1392 C1391 1.366 . S
C1392 C1396 1.385 . S
C1393 H1368 0.951 . S
C1393 C1391 1.388 . S
C1393 C1394 1.366 . S
C1394 C1393 1.366 . S
C1394 C1395 1.414 . S
C1394 C1397 1.499 . S
C1395 H1369 0.950 . S
C1395 C1394 1.414 . S
C1395 C1396 1.374 . S
C1396 H1370 0.950 . S
C1396 C1392 1.385 . S
C1396 C1395 1.374 . S
C1397 C1394 1.499 . S
C1397 C1398 1.373 . S
C1397 C1399 1.389 . S
C1398 H1371 0.950 . S
C1398 C1384 1.377 . S
C1398 C1397 1.373 . S
C1399 C1383 1.377 . S
C1399 C1397 1.389 . S
C1399 C1400 1.524 . S
C1400 C1399 1.524 . S
C1400 C1401 1.397 . S
C1400 C1405 1.363 . S
C1401 H1372 0.950 . S
C1401 C1400 1.397 . S
C1401 C1402 1.334 . S
C1402 H1373 0.950 . S
C1402 C1401 1.334 . S
C1402 C1403 1.287 . S
C1403 C1402 1.287 . S
C1403 C1404 1.524 . S
C1403 H1406 0.999 . S
C1404 H1374 0.950 . S
C1404 C1403 1.524 . S
C1404 C1405 1.415 . S
C1405 H1375 0.950 . S
C1405 C1400 1.363 . S
C1405 C1404 1.415 . S
H1406 C1403 0.999 . S
H1407 C1388 0.913 . S
H1408 C1426 0.951 . S
H1409 C1428 0.951 . S
H1410 C1430 0.950 . S
H1411 C1431 0.950 . S
H1412 C1433 0.950 . S
H1413 C1436 0.950 . S
H1414 C1437 0.950 . S
H1415 C1439 0.950 . S
H1416 C1440 0.950 . S
H1417 C1441 0.951 . S
H1418 C1443 0.951 . S
H1419 C1445 0.950 . S
H1420 C1446 0.950 . S
H1421 C1448 0.950 . S
H1422 C1451 0.950 . S
H1423 C1452 0.950 . S
H1424 C1454 0.950 . S
H1425 C1455 0.950 . S
C1426 H1408 0.951 . S
C1426 C1427 1.366 . S
C1426 C1428 1.388 . S
C1427 C1426 1.366 . S
C1427 C1431 1.385 . S
C1428 H1409 0.951 . S
C1428 C1426 1.388 . S
C1428 C1429 1.366 . S
C1429 C1428 1.366 . S
C1429 C1430 1.414 . S
C1429 C1432 1.499 . S
C1430 H1410 0.950 . S
C1430 C1429 1.414 . S
C1430 C1431 1.374 . S
C1431 H1411 0.950 . S
C1431 C1427 1.385 . S
C1431 C1430 1.374 . S
C1432 C1429 1.499 . S
C1432 C1433 1.373 . S
C1432 C1434 1.389 . S
C1433 H1412 0.950 . S
C1433 C1432 1.373 . S
C1433 C1449 1.377 . S
C1434 C1432 1.389 . S
C1434 C1435 1.524 . S
C1434 C1448 1.377 . S
C1435 C1434 1.524 . S
C1435 C1436 1.397 . S
C1435 C1440 1.363 . S
C1436 H1413 0.950 . S
C1436 C1435 1.397 . S
C1436 C1437 1.334 . S
C1437 H1414 0.950 . S
C1437 C1436 1.334 . S
C1437 C1438 1.287 . S
C1438 C1437 1.287 . S
C1438 C1439 1.524 . S
C1438 H1457 0.913 . S
C1439 H1415 0.950 . S
C1439 C1438 1.524 . S
C1439 C1440 1.415 . S
C1440 H1416 0.950 . S
C1440 C1435 1.363 . S
C1440 C1439 1.415 . S
C1441 H1417 0.951 . S
C1441 C1442 1.366 . S
C1441 C1443 1.388 . S
C1442 C1441 1.366 . S
C1442 C1446 1.385 . S
C1443 H1418 0.951 . S
C1443 C1441 1.388 . S
C1443 C1444 1.366 . S
C1444 C1443 1.366 . S
C1444 C1445 1.414 . S
C1444 C1447 1.499 . S
C1445 H1419 0.950 . S
C1445 C1444 1.414 . S
C1445 C1446 1.374 . S
C1446 H1420 0.950 . S
C1446 C1442 1.385 . S
C1446 C1445 1.374 . S
C1447 C1444 1.499 . S
C1447 C1448 1.373 . S
C1447 C1449 1.389 . S
C1448 H1421 0.950 . S
C1448 C1434 1.377 . S
C1448 C1447 1.373 . S
C1449 C1433 1.377 . S
C1449 C1447 1.389 . S
C1449 C1450 1.524 . S
C1450 C1449 1.524 . S
C1450 C1451 1.397 . S
C1450 C1455 1.363 . S
C1451 H1422 0.950 . S
C1451 C1450 1.397 . S
C1451 C1452 1.334 . S
C1452 H1423 0.950 . S
C1452 C1451 1.334 . S
C1452 C1453 1.287 . S
C1453 C1452 1.287 . S
C1453 C1454 1.524 . S
C1453 H1456 0.999 . S
C1454 H1424 0.950 . S
C1454 C1453 1.524 . S
C1454 C1455 1.415 . S
C1455 H1425 0.950 . S
C1455 C1450 1.363 . S
C1455 C1454 1.415 . S
H1456 C1453 0.999 . S
H1457 C1438 0.913 . S
H1458 C1476 0.951 . S
H1459 C1478 0.951 . S
H1460 C1480 0.950 . S
H1461 C1481 0.950 . S
H1462 C1483 0.950 . S
H1463 C1486 0.950 . S
H1464 C1487 0.950 . S
H1465 C1489 0.950 . S
H1466 C1490 0.950 . S
H1467 C1491 0.951 . S
H1468 C1493 0.951 . S
H1469 C1495 0.950 . S
H1470 C1496 0.950 . S
H1471 C1498 0.950 . S
H1472 C1501 0.950 . S
H1473 C1502 0.950 . S
H1474 C1504 0.950 . S
H1475 C1505 0.950 . S
C1476 H1458 0.951 . S
C1476 C1477 1.366 . S
C1476 C1478 1.388 . S
C1477 C1476 1.366 . S
C1477 C1481 1.385 . S
C1478 H1459 0.951 . S
C1478 C1476 1.388 . S
C1478 C1479 1.366 . S
C1479 C1478 1.366 . S
C1479 C1480 1.414 . S
C1479 C1482 1.499 . S
C1480 H1460 0.950 . S
C1480 C1479 1.414 . S
C1480 C1481 1.374 . S
C1481 H1461 0.950 . S
C1481 C1477 1.385 . S
C1481 C1480 1.374 . S
C1482 C1479 1.499 . S
C1482 C1483 1.373 . S
C1482 C1484 1.389 . S
C1483 H1462 0.950 . S
C1483 C1482 1.373 . S
C1483 C1499 1.377 . S
C1484 C1482 1.389 . S
C1484 C1485 1.524 . S
C1484 C1498 1.377 . S
C1485 C1484 1.524 . S
C1485 C1486 1.397 . S
C1485 C1490 1.363 . S
C1486 H1463 0.950 . S
C1486 C1485 1.397 . S
C1486 C1487 1.334 . S
C1487 H1464 0.950 . S
C1487 C1486 1.334 . S
C1487 C1488 1.287 . S
C1488 C1487 1.287 . S
C1488 C1489 1.524 . S
C1488 H1507 0.913 . S
C1489 H1465 0.950 . S
C1489 C1488 1.524 . S
C1489 C1490 1.415 . S
C1490 H1466 0.950 . S
C1490 C1485 1.363 . S
C1490 C1489 1.415 . S
C1491 H1467 0.951 . S
C1491 C1492 1.366 . S
C1491 C1493 1.388 . S
C1492 C1491 1.366 . S
C1492 C1496 1.385 . S
C1493 H1468 0.951 . S
C1493 C1491 1.388 . S
C1493 C1494 1.366 . S
C1494 C1493 1.366 . S
C1494 C1495 1.414 . S
C1494 C1497 1.499 . S
C1495 H1469 0.950 . S
C1495 C1494 1.414 . S
C1495 C1496 1.374 . S
C1496 H1470 0.950 . S
C1496 C1492 1.385 . S
C1496 C1495 1.374 . S
C1497 C1494 1.499 . S
C1497 C1498 1.373 . S
C1497 C1499 1.389 . S
C1498 H1471 0.950 . S
C1498 C1484 1.377 . S
C1498 C1497 1.373 . S
C1499 C1483 1.377 . S
C1499 C1497 1.389 . S
C1499 C1500 1.524 . S
C1500 C1499 1.524 . S
C1500 C1501 1.397 . S
C1500 C1505 1.363 . S
C1501 H1472 0.950 . S
C1501 C1500 1.397 . S
C1501 C1502 1.334 . S
C1502 H1473 0.950 . S
C1502 C1501 1.334 . S
C1502 C1503 1.287 . S
C1503 C1502 1.287 . S
C1503 C1504 1.524 . S
C1503 H1506 0.999 . S
C1504 H1474 0.950 . S
C1504 C1503 1.524 . S
C1504 C1505 1.415 . S
C1505 H1475 0.950 . S
C1505 C1500 1.363 . S
C1505 C1504 1.415 . S
H1506 C1503 0.999 . S
H1507 C1488 0.913 . S
H1508 C1526 0.951 . S
H1509 C1528 0.951 . S
H1510 C1530 0.950 . S
H1511 C1531 0.950 . S
H1512 C1533 0.950 . S
H1513 C1536 0.950 . S
H1514 C1537 0.957 . S
H1515 C1539 0.950 . S
H1516 C1540 0.950 . S
H1517 C1541 0.951 . S
H1518 C1543 0.951 . S
H1519 C1545 0.950 . S
H1520 C1546 0.950 . S
H1521 C1548 0.950 . S
H1522 C1551 0.950 . S
H1523 C1552 0.950 . S
H1524 C1554 0.950 . S
H1525 C1555 0.950 . S
C1526 H1508 0.951 . S
C1526 C1527 1.366 . S
C1526 C1528 1.388 . S
C1527 C1526 1.366 . S
C1527 C1531 1.385 . S
C1528 H1509 0.951 . S
C1528 C1526 1.388 . S
C1528 C1529 1.366 . S
C1529 C1528 1.366 . S
C1529 C1530 1.414 . S
C1529 C1532 1.499 . S
C1530 H1510 0.950 . S
C1530 C1529 1.414 . S
C1530 C1531 1.374 . S
C1531 H1511 0.950 . S
C1531 C1527 1.385 . S
C1531 C1530 1.374 . S
C1532 C1529 1.499 . S
C1532 C1533 1.373 . S
C1532 C1534 1.389 . S
C1533 H1512 0.950 . S
C1533 C1532 1.373 . S
C1533 C1549 1.377 . S
C1534 C1532 1.389 . S
C1534 C1535 1.524 . S
C1534 C1548 1.377 . S
C1535 C1534 1.524 . S
C1535 C1536 1.397 . S
C1535 C1540 1.363 . S
C1536 H1513 0.950 . S
C1536 C1535 1.397 . S
C1536 C1537 1.327 1_545 S
C1537 H1514 0.957 . S
C1537 C1536 1.327 1_565 S
C1537 C1538 1.287 . S
C1538 C1537 1.287 . S
C1538 C1539 1.507 1_565 S
C1538 H1557 0.932 . S
C1539 H1515 0.950 . S
C1539 C1538 1.507 1_545 S
C1539 C1540 1.415 . S
C1540 H1516 0.950 . S
C1540 C1535 1.363 . S
C1540 C1539 1.415 . S
C1541 H1517 0.951 . S
C1541 C1542 1.366 . S
C1541 C1543 1.388 . S
C1542 C1541 1.366 . S
C1542 C1546 1.385 . S
C1543 H1518 0.951 . S
C1543 C1541 1.388 . S
C1543 C1544 1.366 . S
C1544 C1543 1.366 . S
C1544 C1545 1.414 . S
C1544 C1547 1.499 . S
C1545 H1519 0.950 . S
C1545 C1544 1.414 . S
C1545 C1546 1.374 . S
C1546 H1520 0.950 . S
C1546 C1542 1.385 . S
C1546 C1545 1.374 . S
C1547 C1544 1.499 . S
C1547 C1548 1.373 . S
C1547 C1549 1.389 . S
C1548 H1521 0.950 . S
C1548 C1534 1.377 . S
C1548 C1547 1.373 . S
C1549 C1533 1.377 . S
C1549 C1547 1.389 . S
C1549 C1550 1.524 . S
C1550 C1549 1.524 . S
C1550 C1551 1.397 . S
C1550 C1555 1.363 . S
C1551 H1522 0.950 . S
C1551 C1550 1.397 . S
C1551 C1552 1.334 . S
C1552 H1523 0.950 . S
C1552 C1551 1.334 . S
C1552 C1553 1.287 . S
C1553 C1552 1.287 . S
C1553 C1554 1.524 . S
C1553 H1556 0.999 . S
C1554 H1524 0.950 . S
C1554 C1553 1.524 . S
C1554 C1555 1.415 . S
C1555 H1525 0.950 . S
C1555 C1550 1.363 . S
C1555 C1554 1.415 . S
H1556 C1553 0.999 . S
H1557 C1538 0.932 . S
H1558 C1576 0.951 . S
H1559 C1578 0.951 . S
H1560 C1580 0.950 . S
H1561 C1581 0.950 . S
H1562 C1583 0.950 . S
H1563 C1586 0.950 . S
H1564 C1587 0.950 . S
H1565 C1589 0.950 . S
H1566 C1590 0.950 . S
H1567 C1591 0.951 . S
H1568 C1593 0.951 . S
H1569 C1595 0.950 . S
H1570 C1596 0.950 . S
H1571 C1598 0.950 . S
H1572 C1601 0.950 . S
H1573 C1602 0.950 . S
H1574 C1604 0.950 . S
H1575 C1605 0.950 . S
C1576 H1558 0.951 . S
C1576 C1577 1.366 . S
C1576 C1578 1.388 . S
C1577 C1576 1.366 . S
C1577 C1581 1.385 . S
C1578 H1559 0.951 . S
C1578 C1576 1.388 . S
C1578 C1579 1.366 . S
C1579 C1578 1.366 . S
C1579 C1580 1.414 . S
C1579 C1582 1.499 . S
C1580 H1560 0.950 . S
C1580 C1579 1.414 . S
C1580 C1581 1.374 . S
C1581 H1561 0.950 . S
C1581 C1577 1.385 . S
C1581 C1580 1.374 . S
C1582 C1579 1.499 . S
C1582 C1583 1.373 . S
C1582 C1584 1.389 . S
C1583 H1562 0.950 . S
C1583 C1582 1.373 . S
C1583 C1599 1.377 . S
C1584 C1582 1.389 . S
C1584 C1585 1.524 . S
C1584 C1598 1.377 . S
C1585 C1584 1.524 . S
C1585 C1586 1.397 . S
C1585 C1590 1.363 . S
C1586 H1563 0.950 . S
C1586 C1585 1.397 . S
C1586 C1587 1.334 1_655 S
C1587 H1564 0.950 . S
C1587 C1586 1.334 1_455 S
C1587 C1588 1.287 . S
C1588 C1587 1.287 . S
C1588 C1589 1.524 1_455 S
C1588 H1607 0.913 . S
C1589 H1565 0.950 . S
C1589 C1588 1.524 1_655 S
C1589 C1590 1.415 . S
C1590 H1566 0.950 . S
C1590 C1585 1.363 . S
C1590 C1589 1.415 . S
C1591 H1567 0.951 . S
C1591 C1592 1.366 . S
C1591 C1593 1.388 . S
C1592 C1591 1.366 . S
C1592 C1596 1.385 . S
C1593 H1568 0.951 . S
C1593 C1591 1.388 . S
C1593 C1594 1.366 . S
C1594 C1593 1.366 . S
C1594 C1595 1.414 . S
C1594 C1597 1.499 . S
C1595 H1569 0.950 . S
C1595 C1594 1.414 . S
C1595 C1596 1.374 . S
C1596 H1570 0.950 . S
C1596 C1592 1.385 . S
C1596 C1595 1.374 . S
C1597 C1594 1.499 . S
C1597 C1598 1.373 . S
C1597 C1599 1.389 . S
C1598 H1571 0.950 . S
C1598 C1584 1.377 . S
C1598 C1597 1.373 . S
C1599 C1583 1.377 . S
C1599 C1597 1.389 . S
C1599 C1600 1.524 . S
C1600 C1599 1.524 . S
C1600 C1601 1.397 . S
C1600 C1605 1.363 . S
C1601 H1572 0.950 . S
C1601 C1600 1.397 . S
C1601 C1602 1.334 . S
C1602 H1573 0.950 . S
C1602 C1601 1.334 . S
C1602 C1603 1.287 . S
C1603 C1602 1.287 . S
C1603 C1604 1.524 . S
C1603 H1606 0.999 . S
C1604 H1574 0.950 . S
C1604 C1603 1.524 . S
C1604 C1605 1.415 . S
C1605 H1575 0.950 . S
C1605 C1600 1.363 . S
C1605 C1604 1.415 . S
H1606 C1603 0.999 . S
H1607 C1588 0.913 . S
H1608 C1626 0.951 . S
H1609 C1628 0.951 . S
H1610 C1630 0.950 . S
H1611 C1631 0.950 . S
H1612 C1633 0.950 . S
H1613 C1636 0.950 . S
H1614 C1637 0.950 . S
H1615 C1639 0.950 . S
H1616 C1640 0.950 . S
H1617 C1641 0.951 . S
H1618 C1643 0.951 . S
H1619 C1645 0.950 . S
H1620 C1646 0.950 . S
H1621 C1648 0.950 . S
H1622 C1651 0.950 . S
H1623 C1652 0.950 . S
H1624 C1654 0.950 . S
H1625 C1655 0.950 . S
C1626 H1608 0.951 . S
C1626 C1627 1.366 . S
C1626 C1628 1.388 . S
C1627 C1626 1.366 . S
C1627 C1631 1.385 . S
C1628 H1609 0.951 . S
C1628 C1626 1.388 . S
C1628 C1629 1.366 . S
C1629 C1628 1.366 . S
C1629 C1630 1.414 . S
C1629 C1632 1.499 . S
C1630 H1610 0.950 . S
C1630 C1629 1.414 . S
C1630 C1631 1.374 . S
C1631 H1611 0.950 . S
C1631 C1627 1.385 . S
C1631 C1630 1.374 . S
C1632 C1629 1.499 . S
C1632 C1633 1.373 . S
C1632 C1634 1.389 . S
C1633 H1612 0.950 . S
C1633 C1632 1.373 . S
C1633 C1649 1.377 . S
C1634 C1632 1.389 . S
C1634 C1635 1.524 . S
C1634 C1648 1.377 . S
C1635 C1634 1.524 . S
C1635 C1636 1.397 . S
C1635 C1640 1.363 . S
C1636 H1613 0.950 . S
C1636 C1635 1.397 . S
C1636 C1637 1.334 . S
C1637 H1614 0.950 . S
C1637 C1636 1.334 . S
C1637 C1638 1.287 . S
C1638 C1637 1.287 . S
C1638 C1639 1.524 . S
C1638 H1657 0.913 . S
C1639 H1615 0.950 . S
C1639 C1638 1.524 . S
C1639 C1640 1.415 . S
C1640 H1616 0.950 . S
C1640 C1635 1.363 . S
C1640 C1639 1.415 . S
C1641 H1617 0.951 . S
C1641 C1642 1.366 . S
C1641 C1643 1.388 . S
C1642 C1641 1.366 . S
C1642 C1646 1.385 . S
C1643 H1618 0.951 . S
C1643 C1641 1.388 . S
C1643 C1644 1.366 . S
C1644 C1643 1.366 . S
C1644 C1645 1.414 . S
C1644 C1647 1.499 . S
C1645 H1619 0.950 . S
C1645 C1644 1.414 . S
C1645 C1646 1.374 . S
C1646 H1620 0.950 . S
C1646 C1642 1.385 . S
C1646 C1645 1.374 . S
C1647 C1644 1.499 . S
C1647 C1648 1.373 . S
C1647 C1649 1.389 . S
C1648 H1621 0.950 . S
C1648 C1634 1.377 . S
C1648 C1647 1.373 . S
C1649 C1633 1.377 . S
C1649 C1647 1.389 . S
C1649 C1650 1.524 . S
C1650 C1649 1.524 . S
C1650 C1651 1.397 . S
C1650 C1655 1.363 . S
C1651 H1622 0.950 . S
C1651 C1650 1.397 . S
C1651 C1652 1.334 . S
C1652 H1623 0.950 . S
C1652 C1651 1.334 . S
C1652 C1653 1.287 . S
C1653 C1652 1.287 . S
C1653 C1654 1.524 . S
C1653 H1656 0.999 . S
C1654 H1624 0.950 . S
C1654 C1653 1.524 . S
C1654 C1655 1.415 . S
C1655 H1625 0.950 . S
C1655 C1650 1.363 . S
C1655 C1654 1.415 . S
H1656 C1653 0.999 . S
H1657 C1638 0.913 . S
H1658 C1676 0.951 . S
H1659 C1678 0.951 . S
H1660 C1680 0.950 . S
H1661 C1681 0.950 . S
H1662 C1683 0.950 . S
H1663 C1686 0.950 . S
H1664 C1687 0.950 1_565 S
H1665 C1689 0.950 . S
H1666 C1690 0.950 . S
H1667 C1691 0.951 . S
H1668 C1693 0.951 . S
H1669 C1695 0.950 . S
H1670 C1696 0.950 . S
H1671 C1698 0.950 . S
H1672 C1701 0.950 . S
H1673 C1702 0.950 . S
H1674 C1704 0.950 . S
H1675 C1705 0.950 . S
C1676 H1658 0.951 . S
C1676 C1677 1.366 . S
C1676 C1678 1.388 . S
C1677 C1676 1.366 . S
C1677 C1681 1.385 . S
C1678 H1659 0.951 . S
C1678 C1676 1.388 . S
C1678 C1679 1.366 . S
C1679 C1678 1.366 . S
C1679 C1680 1.414 . S
C1679 C1682 1.499 . S
C1680 H1660 0.950 . S
C1680 C1679 1.414 . S
C1680 C1681 1.374 . S
C1681 H1661 0.950 . S
C1681 C1677 1.385 . S
C1681 C1680 1.374 . S
C1682 C1679 1.499 . S
C1682 C1683 1.373 . S
C1682 C1684 1.389 . S
C1683 H1662 0.950 . S
C1683 C1682 1.373 . S
C1683 C1699 1.377 . S
C1684 C1682 1.389 . S
C1684 C1685 1.524 . S
C1684 C1698 1.377 . S
C1685 C1684 1.524 . S
C1685 C1686 1.397 . S
C1685 C1690 1.363 . S
C1686 H1663 0.950 . S
C1686 C1685 1.397 . S
C1686 C1687 1.334 . S
C1687 H1664 0.950 1_545 S
C1687 C1686 1.334 . S
C1687 C1688 1.287 1_545 S
C1688 C1687 1.287 1_565 S
C1688 C1689 1.524 . S
C1688 H1707 0.913 . S
C1689 H1665 0.950 . S
C1689 C1688 1.524 . S
C1689 C1690 1.415 1_565 S
C1690 H1666 0.950 . S
C1690 C1685 1.363 . S
C1690 C1689 1.415 1_545 S
C1691 H1667 0.951 . S
C1691 C1692 1.366 . S
C1691 C1693 1.388 . S
C1692 C1691 1.366 . S
C1692 C1696 1.385 . S
C1693 H1668 0.951 . S
C1693 C1691 1.388 . S
C1693 C1694 1.366 . S
C1694 C1693 1.366 . S
C1694 C1695 1.414 . S
C1694 C1697 1.499 . S
C1695 H1669 0.950 . S
C1695 C1694 1.414 . S
C1695 C1696 1.374 . S
C1696 H1670 0.950 . S
C1696 C1692 1.385 . S
C1696 C1695 1.374 . S
C1697 C1694 1.499 . S
C1697 C1698 1.373 . S
C1697 C1699 1.389 . S
C1698 H1671 0.950 . S
C1698 C1684 1.377 . S
C1698 C1697 1.373 . S
C1699 C1683 1.377 . S
C1699 C1697 1.389 . S
C1699 C1700 1.524 . S
C1700 C1699 1.524 . S
C1700 C1701 1.397 . S
C1700 C1705 1.363 . S
C1701 H1672 0.950 . S
C1701 C1700 1.397 . S
C1701 C1702 1.334 . S
C1702 H1673 0.950 . S
C1702 C1701 1.334 . S
C1702 C1703 1.287 . S
C1703 C1702 1.287 . S
C1703 C1704 1.524 . S
C1703 H1706 0.999 . S
C1704 H1674 0.950 . S
C1704 C1703 1.524 . S
C1704 C1705 1.415 . S
C1705 H1675 0.950 . S
C1705 C1700 1.363 . S
C1705 C1704 1.415 . S
H1706 C1703 0.999 . S
H1707 C1688 0.913 . S
H1708 C1726 0.951 . S
H1709 C1728 0.951 . S
H1710 C1730 0.950 . S
H1711 C1731 0.950 . S
H1712 C1733 0.950 . S
H1713 C1736 0.950 . S
H1714 C1737 0.950 . S
H1715 C1739 0.950 . S
H1716 C1740 0.950 . S
H1717 C1741 0.951 . S
H1718 C1743 0.951 . S
H1719 C1745 0.950 . S
H1720 C1746 0.950 . S
H1721 C1748 0.950 . S
H1722 C1751 0.950 . S
H1723 C1752 0.950 . S
H1724 C1754 0.950 . S
H1725 C1755 0.950 . S
C1726 H1708 0.951 . S
C1726 C1727 1.366 . S
C1726 C1728 1.388 . S
C1727 C1726 1.366 . S
C1727 C1731 1.385 . S
C1728 H1709 0.951 . S
C1728 C1726 1.388 . S
C1728 C1729 1.366 . S
C1729 C1728 1.366 . S
C1729 C1730 1.414 . S
C1729 C1732 1.499 . S
C1730 H1710 0.950 . S
C1730 C1729 1.414 . S
C1730 C1731 1.374 . S
C1731 H1711 0.950 . S
C1731 C1727 1.385 . S
C1731 C1730 1.374 . S
C1732 C1729 1.499 . S
C1732 C1733 1.373 . S
C1732 C1734 1.389 . S
C1733 H1712 0.950 . S
C1733 C1732 1.373 . S
C1733 C1749 1.377 . S
C1734 C1732 1.389 . S
C1734 C1735 1.524 . S
C1734 C1748 1.377 . S
C1735 C1734 1.524 . S
C1735 C1736 1.397 . S
C1735 C1740 1.363 . S
C1736 H1713 0.950 . S
C1736 C1735 1.397 . S
C1736 C1737 1.334 1_655 S
C1737 H1714 0.950 . S
C1737 C1736 1.334 1_455 S
C1737 C1738 1.287 . S
C1738 C1737 1.287 . S
C1738 C1739 1.524 1_455 S
C1738 H1757 0.913 . S
C1739 H1715 0.950 . S
C1739 C1738 1.524 1_655 S
C1739 C1740 1.415 . S
C1740 H1716 0.950 . S
C1740 C1735 1.363 . S
C1740 C1739 1.415 . S
C1741 H1717 0.951 . S
C1741 C1742 1.366 . S
C1741 C1743 1.388 . S
C1742 C1741 1.366 . S
C1742 C1746 1.385 . S
C1743 H1718 0.951 . S
C1743 C1741 1.388 . S
C1743 C1744 1.366 . S
C1744 C1743 1.366 . S
C1744 C1745 1.414 . S
C1744 C1747 1.499 . S
C1745 H1719 0.950 . S
C1745 C1744 1.414 . S
C1745 C1746 1.374 . S
C1746 H1720 0.950 . S
C1746 C1742 1.385 . S
C1746 C1745 1.374 . S
C1747 C1744 1.499 . S
C1747 C1748 1.373 . S
C1747 C1749 1.389 . S
C1748 H1721 0.950 . S
C1748 C1734 1.377 . S
C1748 C1747 1.373 . S
C1749 C1733 1.377 . S
C1749 C1747 1.389 . S
C1749 C1750 1.524 . S
C1750 C1749 1.524 . S
C1750 C1751 1.397 . S
C1750 C1755 1.363 . S
C1751 H1722 0.950 . S
C1751 C1750 1.397 . S
C1751 C1752 1.334 . S
C1752 H1723 0.950 . S
C1752 C1751 1.334 . S
C1752 C1753 1.287 . S
C1753 C1752 1.287 . S
C1753 C1754 1.524 . S
C1753 H1756 0.999 . S
C1754 H1724 0.950 . S
C1754 C1753 1.524 . S
C1754 C1755 1.415 . S
C1755 H1725 0.950 . S
C1755 C1750 1.363 . S
C1755 C1754 1.415 . S
H1756 C1753 0.999 . S
H1757 C1738 0.913 . S
H1758 C1776 0.951 . S
H1759 C1778 0.951 . S
H1760 C1780 0.950 . S
H1761 C1781 0.950 . S
H1762 C1783 0.950 . S
H1763 C1786 0.950 . S
H1764 C1787 0.950 . S
H1765 C1789 0.950 . S
H1766 C1790 0.950 . S
H1767 C1791 0.951 . S
H1768 C1793 0.951 . S
H1769 C1795 0.950 . S
H1770 C1796 0.950 . S
H1771 C1798 0.950 . S
H1772 C1801 0.950 . S
H1773 C1802 0.950 . S
H1774 C1804 0.950 . S
H1775 C1805 0.950 . S
C1776 H1758 0.951 . S
C1776 C1777 1.366 . S
C1776 C1778 1.388 . S
C1777 C1776 1.366 . S
C1777 C1781 1.385 . S
C1778 H1759 0.951 . S
C1778 C1776 1.388 . S
C1778 C1779 1.366 . S
C1779 C1778 1.366 . S
C1779 C1780 1.414 . S
C1779 C1782 1.499 . S
C1780 H1760 0.950 . S
C1780 C1779 1.414 . S
C1780 C1781 1.374 . S
C1781 H1761 0.950 . S
C1781 C1777 1.385 . S
C1781 C1780 1.374 . S
C1782 C1779 1.499 . S
C1782 C1783 1.373 . S
C1782 C1784 1.389 . S
C1783 H1762 0.950 . S
C1783 C1782 1.373 . S
C1783 C1799 1.377 . S
C1784 C1782 1.389 . S
C1784 C1785 1.524 . S
C1784 C1798 1.377 . S
C1785 C1784 1.524 . S
C1785 C1786 1.397 . S
C1785 C1790 1.363 . S
C1786 H1763 0.950 . S
C1786 C1785 1.397 . S
C1786 C1787 1.334 . S
C1787 H1764 0.950 . S
C1787 C1786 1.334 . S
C1787 C1788 1.287 . S
C1788 C1787 1.287 . S
C1788 C1789 1.524 . S
C1788 H1807 0.913 . S
C1789 H1765 0.950 . S
C1789 C1788 1.524 . S
C1789 C1790 1.415 . S
C1790 H1766 0.950 . S
C1790 C1785 1.363 . S
C1790 C1789 1.415 . S
C1791 H1767 0.951 . S
C1791 C1792 1.366 . S
C1791 C1793 1.388 . S
C1792 C1791 1.366 . S
C1792 C1796 1.385 . S
C1793 H1768 0.951 . S
C1793 C1791 1.388 . S
C1793 C1794 1.366 . S
C1794 C1793 1.366 . S
C1794 C1795 1.414 . S
C1794 C1797 1.499 . S
C1795 H1769 0.950 . S
C1795 C1794 1.414 . S
C1795 C1796 1.374 . S
C1796 H1770 0.950 . S
C1796 C1792 1.385 . S
C1796 C1795 1.374 . S
C1797 C1794 1.499 . S
C1797 C1798 1.373 . S
C1797 C1799 1.389 . S
C1798 H1771 0.950 . S
C1798 C1784 1.377 . S
C1798 C1797 1.373 . S
C1799 C1783 1.377 . S
C1799 C1797 1.389 . S
C1799 C1800 1.524 . S
C1800 C1799 1.524 . S
C1800 C1801 1.397 . S
C1800 C1805 1.363 . S
C1801 H1772 0.950 . S
C1801 C1800 1.397 . S
C1801 C1802 1.334 . S
C1802 H1773 0.950 . S
C1802 C1801 1.334 . S
C1802 C1803 1.287 . S
C1803 C1802 1.287 . S
C1803 C1804 1.524 . S
C1803 H1806 0.999 . S
C1804 H1774 0.950 . S
C1804 C1803 1.524 . S
C1804 C1805 1.415 . S
C1805 H1775 0.950 . S
C1805 C1800 1.363 . S
C1805 C1804 1.415 . S
H1806 C1803 0.999 . S
H1807 C1788 0.913 . S
C242 C120 1.185 . S
C227 C5 1.191 . S
C292 C134 1.179 . S
C277 C18 1.186 . S
C342 C147 1.185 . S
C327 C31 1.193 . S
C377 C42 1.184 . S
C392 C114 1.187 . S
C427 C57 1.201 . S
C442 C107 1.195 . S
C477 C70 1.196 . S
C492 C127 1.189 . S
C542 C135 1.187 . S
C527 C81 1.182 . S
C592 C148 1.190 . S
C577 C96 1.196 . S
C627 C29 1.180 . S
C642 C174 1.184 . S
C692 C192 1.178 . S
C677 C44 1.186 . S
C727 C3 1.182 . S
C742 C199 1.185 . S
C792 C166 1.186 . S
C777 C16 1.183 . S
C827 C83 1.201 . S
C842 C159 1.196 . S
C877 C94 1.186 . S
C892 C173 1.189 . S
C942 C185 1.187 . S
C927 C55 1.183 . S
C977 C68 1.185 . S
C992 C200 1.189 . S
C1042 C133 1.512 . S
C1027 C1 1.505 . S
C1092 C146 1.513 . S
C1077 C14 1.506 . S
C1127 C27 1.500 . S
C1142 C109 1.507 . S
C1177 C49 1.519 . S
C1192 C121 1.499 . S
C1227 C53 1.491 . S
C1242 C153 1.491 . S
C1292 C108 1.494 . S
C1277 C66 1.493 . S
C1342 C122 1.506 . S
C1327 C88 1.521 . S
C1392 C140 1.499 . S
C1377 C92 1.498 . S
C1442 C187 1.511 . S
C1427 C36 1.527 . S
C1492 C198 1.512 . S
C1477 C40 1.505 . S
C1527 C10 1.521 . S
C1542 C161 1.505 . S
C1592 C179 1.498 . S
C1577 C23 1.519 . S
C1642 C205 1.493 . S
C1627 C79 1.493 . S
C1677 C101 1.515 . S
C1692 C160 1.494 . S
C1742 C172 1.507 . S
C1727 C62 1.522 . S
C1792 C186 1.498 . S
C1777 C75 1.519 . S
