# Generated by pormake.
# Topology gar, (4,6)-cn, num edge types: 1
# Building blocks:
#     Node 0, Type 0, BuildingBlock: TATPOV_clean_sbu_0, # of connection points: 4
#     Node 1, Type 0, BuildingBlock: TATPOV_clean_sbu_0, # of connection points: 4
#     Node 2, Type 0, BuildingBlock: TATPOV_clean_sbu_0, # of connection points: 4
#     Node 3, Type 0, BuildingBlock: TATPOV_clean_sbu_0, # of connection points: 4
#     Node 4, Type 0, BuildingBlock: TATPOV_clean_sbu_0, # of connection points: 4
#     Node 5, Type 0, BuildingBlock: TATPOV_clean_sbu_0, # of connection points: 4
#     Node 6, Type 0, BuildingBlock: TATPOV_clean_sbu_0, # of connection points: 4
#     Node 7, Type 0, BuildingBlock: TATPOV_clean_sbu_0, # of connection points: 4
#     Node 8, Type 0, BuildingBlock: TATPOV_clean_sbu_0, # of connection points: 4
#     Node 9, Type 0, BuildingBlock: TATPOV_clean_sbu_0, # of connection points: 4
#     Node 10, Type 0, BuildingBlock: TATPOV_clean_sbu_0, # of connection points: 4
#     Node 11, Type 0, BuildingBlock: TATPOV_clean_sbu_0, # of connection points: 4
#     Node 12, Type 0, BuildingBlock: TATPOV_clean_sbu_0, # of connection points: 4
#     Node 13, Type 0, BuildingBlock: TATPOV_clean_sbu_0, # of connection points: 4
#     Node 14, Type 0, BuildingBlock: TATPOV_clean_sbu_0, # of connection points: 4
#     Node 15, Type 0, BuildingBlock: TATPOV_clean_sbu_0, # of connection points: 4
#     Node 16, Type 0, BuildingBlock: TATPOV_clean_sbu_0, # of connection points: 4
#     Node 17, Type 0, BuildingBlock: TATPOV_clean_sbu_0, # of connection points: 4
#     Node 18, Type 0, BuildingBlock: TATPOV_clean_sbu_0, # of connection points: 4
#     Node 19, Type 0, BuildingBlock: TATPOV_clean_sbu_0, # of connection points: 4
#     Node 20, Type 0, BuildingBlock: TATPOV_clean_sbu_0, # of connection points: 4
#     Node 21, Type 0, BuildingBlock: TATPOV_clean_sbu_0, # of connection points: 4
#     Node 22, Type 0, BuildingBlock: TATPOV_clean_sbu_0, # of connection points: 4
#     Node 23, Type 0, BuildingBlock: TATPOV_clean_sbu_0, # of connection points: 4
#     Node 24, Type 1, BuildingBlock: KUMJIN_clean_sbu_0, # of connection points: 6
#     Node 25, Type 1, BuildingBlock: KUMJIN_clean_sbu_0, # of connection points: 6
#     Node 26, Type 1, BuildingBlock: KUMJIN_clean_sbu_0, # of connection points: 6
#     Node 27, Type 1, BuildingBlock: KUMJIN_clean_sbu_0, # of connection points: 6
#     Node 28, Type 1, BuildingBlock: KUMJIN_clean_sbu_0, # of connection points: 6
#     Node 29, Type 1, BuildingBlock: KUMJIN_clean_sbu_0, # of connection points: 6
#     Node 30, Type 1, BuildingBlock: KUMJIN_clean_sbu_0, # of connection points: 6
#     Node 31, Type 1, BuildingBlock: KUMJIN_clean_sbu_0, # of connection points: 6
#     Node 32, Type 1, BuildingBlock: KUMJIN_clean_sbu_0, # of connection points: 6
#     Node 33, Type 1, BuildingBlock: KUMJIN_clean_sbu_0, # of connection points: 6
#     Node 34, Type 1, BuildingBlock: KUMJIN_clean_sbu_0, # of connection points: 6
#     Node 35, Type 1, BuildingBlock: KUMJIN_clean_sbu_0, # of connection points: 6
#     Node 36, Type 1, BuildingBlock: KUMJIN_clean_sbu_0, # of connection points: 6
#     Node 37, Type 1, BuildingBlock: KUMJIN_clean_sbu_0, # of connection points: 6
#     Node 38, Type 1, BuildingBlock: KUMJIN_clean_sbu_0, # of connection points: 6
#     Node 39, Type 1, BuildingBlock: KUMJIN_clean_sbu_0, # of connection points: 6
#     Edge 40, Type (0, 1), BuildingBlock: TEMPAE_clean_linker_10, # of connection points: 2
#     Edge 41, Type (0, 1), BuildingBlock: TEMPAE_clean_linker_10, # of connection points: 2
#     Edge 42, Type (0, 1), BuildingBlock: TEMPAE_clean_linker_10, # of connection points: 2
#     Edge 43, Type (0, 1), BuildingBlock: TEMPAE_clean_linker_10, # of connection points: 2
#     Edge 44, Type (0, 1), BuildingBlock: TEMPAE_clean_linker_10, # of connection points: 2
#     Edge 45, Type (0, 1), BuildingBlock: TEMPAE_clean_linker_10, # of connection points: 2
#     Edge 46, Type (0, 1), BuildingBlock: TEMPAE_clean_linker_10, # of connection points: 2
#     Edge 47, Type (0, 1), BuildingBlock: TEMPAE_clean_linker_10, # of connection points: 2
#     Edge 48, Type (0, 1), BuildingBlock: TEMPAE_clean_linker_10, # of connection points: 2
#     Edge 49, Type (0, 1), BuildingBlock: TEMPAE_clean_linker_10, # of connection points: 2
#     Edge 50, Type (0, 1), BuildingBlock: TEMPAE_clean_linker_10, # of connection points: 2
#     Edge 51, Type (0, 1), BuildingBlock: TEMPAE_clean_linker_10, # of connection points: 2
#     Edge 52, Type (0, 1), BuildingBlock: TEMPAE_clean_linker_10, # of connection points: 2
#     Edge 53, Type (0, 1), BuildingBlock: TEMPAE_clean_linker_10, # of connection points: 2
#     Edge 54, Type (0, 1), BuildingBlock: TEMPAE_clean_linker_10, # of connection points: 2
#     Edge 55, Type (0, 1), BuildingBlock: TEMPAE_clean_linker_10, # of connection points: 2
#     Edge 56, Type (0, 1), BuildingBlock: TEMPAE_clean_linker_10, # of connection points: 2
#     Edge 57, Type (0, 1), BuildingBlock: TEMPAE_clean_linker_10, # of connection points: 2
#     Edge 58, Type (0, 1), BuildingBlock: TEMPAE_clean_linker_10, # of connection points: 2
#     Edge 59, Type (0, 1), BuildingBlock: TEMPAE_clean_linker_10, # of connection points: 2
#     Edge 60, Type (0, 1), BuildingBlock: TEMPAE_clean_linker_10, # of connection points: 2
#     Edge 61, Type (0, 1), BuildingBlock: TEMPAE_clean_linker_10, # of connection points: 2
#     Edge 62, Type (0, 1), BuildingBlock: TEMPAE_clean_linker_10, # of connection points: 2
#     Edge 63, Type (0, 1), BuildingBlock: TEMPAE_clean_linker_10, # of connection points: 2
#     Edge 64, Type (0, 1), BuildingBlock: TEMPAE_clean_linker_10, # of connection points: 2
#     Edge 65, Type (0, 1), BuildingBlock: TEMPAE_clean_linker_10, # of connection points: 2
#     Edge 66, Type (0, 1), BuildingBlock: TEMPAE_clean_linker_10, # of connection points: 2
#     Edge 67, Type (0, 1), BuildingBlock: TEMPAE_clean_linker_10, # of connection points: 2
#     Edge 68, Type (0, 1), BuildingBlock: TEMPAE_clean_linker_10, # of connection points: 2
#     Edge 69, Type (0, 1), BuildingBlock: TEMPAE_clean_linker_10, # of connection points: 2
#     Edge 70, Type (0, 1), BuildingBlock: TEMPAE_clean_linker_10, # of connection points: 2
#     Edge 71, Type (0, 1), BuildingBlock: TEMPAE_clean_linker_10, # of connection points: 2
#     Edge 72, Type (0, 1), BuildingBlock: TEMPAE_clean_linker_10, # of connection points: 2
#     Edge 73, Type (0, 1), BuildingBlock: TEMPAE_clean_linker_10, # of connection points: 2
#     Edge 74, Type (0, 1), BuildingBlock: TEMPAE_clean_linker_10, # of connection points: 2
#     Edge 75, Type (0, 1), BuildingBlock: TEMPAE_clean_linker_10, # of connection points: 2
#     Edge 76, Type (0, 1), BuildingBlock: TEMPAE_clean_linker_10, # of connection points: 2
#     Edge 77, Type (0, 1), BuildingBlock: TEMPAE_clean_linker_10, # of connection points: 2
#     Edge 78, Type (0, 1), BuildingBlock: TEMPAE_clean_linker_10, # of connection points: 2
#     Edge 79, Type (0, 1), BuildingBlock: TEMPAE_clean_linker_10, # of connection points: 2
#     Edge 80, Type (0, 1), BuildingBlock: TEMPAE_clean_linker_10, # of connection points: 2
#     Edge 81, Type (0, 1), BuildingBlock: TEMPAE_clean_linker_10, # of connection points: 2
#     Edge 82, Type (0, 1), BuildingBlock: TEMPAE_clean_linker_10, # of connection points: 2
#     Edge 83, Type (0, 1), BuildingBlock: TEMPAE_clean_linker_10, # of connection points: 2
#     Edge 84, Type (0, 1), BuildingBlock: TEMPAE_clean_linker_10, # of connection points: 2
#     Edge 85, Type (0, 1), BuildingBlock: TEMPAE_clean_linker_10, # of connection points: 2
#     Edge 86, Type (0, 1), BuildingBlock: TEMPAE_clean_linker_10, # of connection points: 2
#     Edge 87, Type (0, 1), BuildingBlock: TEMPAE_clean_linker_10, # of connection points: 2
#     Edge 88, Type (0, 1), BuildingBlock: TEMPAE_clean_linker_10, # of connection points: 2
#     Edge 89, Type (0, 1), BuildingBlock: TEMPAE_clean_linker_10, # of connection points: 2
#     Edge 90, Type (0, 1), BuildingBlock: TEMPAE_clean_linker_10, # of connection points: 2
#     Edge 91, Type (0, 1), BuildingBlock: TEMPAE_clean_linker_10, # of connection points: 2
#     Edge 92, Type (0, 1), BuildingBlock: TEMPAE_clean_linker_10, # of connection points: 2
#     Edge 93, Type (0, 1), BuildingBlock: TEMPAE_clean_linker_10, # of connection points: 2
#     Edge 94, Type (0, 1), BuildingBlock: TEMPAE_clean_linker_10, # of connection points: 2
#     Edge 95, Type (0, 1), BuildingBlock: TEMPAE_clean_linker_10, # of connection points: 2
#     Edge 96, Type (0, 1), BuildingBlock: TEMPAE_clean_linker_10, # of connection points: 2
#     Edge 97, Type (0, 1), BuildingBlock: TEMPAE_clean_linker_10, # of connection points: 2
#     Edge 98, Type (0, 1), BuildingBlock: TEMPAE_clean_linker_10, # of connection points: 2
#     Edge 99, Type (0, 1), BuildingBlock: TEMPAE_clean_linker_10, # of connection points: 2
#     Edge 100, Type (0, 1), BuildingBlock: TEMPAE_clean_linker_10, # of connection points: 2
#     Edge 101, Type (0, 1), BuildingBlock: TEMPAE_clean_linker_10, # of connection points: 2
#     Edge 102, Type (0, 1), BuildingBlock: TEMPAE_clean_linker_10, # of connection points: 2
#     Edge 103, Type (0, 1), BuildingBlock: TEMPAE_clean_linker_10, # of connection points: 2
#     Edge 104, Type (0, 1), BuildingBlock: TEMPAE_clean_linker_10, # of connection points: 2
#     Edge 105, Type (0, 1), BuildingBlock: TEMPAE_clean_linker_10, # of connection points: 2
#     Edge 106, Type (0, 1), BuildingBlock: TEMPAE_clean_linker_10, # of connection points: 2
#     Edge 107, Type (0, 1), BuildingBlock: TEMPAE_clean_linker_10, # of connection points: 2
#     Edge 108, Type (0, 1), BuildingBlock: TEMPAE_clean_linker_10, # of connection points: 2
#     Edge 109, Type (0, 1), BuildingBlock: TEMPAE_clean_linker_10, # of connection points: 2
#     Edge 110, Type (0, 1), BuildingBlock: TEMPAE_clean_linker_10, # of connection points: 2
#     Edge 111, Type (0, 1), BuildingBlock: TEMPAE_clean_linker_10, # of connection points: 2
#     Edge 112, Type (0, 1), BuildingBlock: TEMPAE_clean_linker_10, # of connection points: 2
#     Edge 113, Type (0, 1), BuildingBlock: TEMPAE_clean_linker_10, # of connection points: 2
#     Edge 114, Type (0, 1), BuildingBlock: TEMPAE_clean_linker_10, # of connection points: 2
#     Edge 115, Type (0, 1), BuildingBlock: TEMPAE_clean_linker_10, # of connection points: 2
#     Edge 116, Type (0, 1), BuildingBlock: TEMPAE_clean_linker_10, # of connection points: 2
#     Edge 117, Type (0, 1), BuildingBlock: TEMPAE_clean_linker_10, # of connection points: 2
#     Edge 118, Type (0, 1), BuildingBlock: TEMPAE_clean_linker_10, # of connection points: 2
#     Edge 119, Type (0, 1), BuildingBlock: TEMPAE_clean_linker_10, # of connection points: 2
#     Edge 120, Type (0, 1), BuildingBlock: TEMPAE_clean_linker_10, # of connection points: 2
#     Edge 121, Type (0, 1), BuildingBlock: TEMPAE_clean_linker_10, # of connection points: 2
#     Edge 122, Type (0, 1), BuildingBlock: TEMPAE_clean_linker_10, # of connection points: 2
#     Edge 123, Type (0, 1), BuildingBlock: TEMPAE_clean_linker_10, # of connection points: 2
#     Edge 124, Type (0, 1), BuildingBlock: TEMPAE_clean_linker_10, # of connection points: 2
#     Edge 125, Type (0, 1), BuildingBlock: TEMPAE_clean_linker_10, # of connection points: 2
#     Edge 126, Type (0, 1), BuildingBlock: TEMPAE_clean_linker_10, # of connection points: 2
#     Edge 127, Type (0, 1), BuildingBlock: TEMPAE_clean_linker_10, # of connection points: 2
#     Edge 128, Type (0, 1), BuildingBlock: TEMPAE_clean_linker_10, # of connection points: 2
#     Edge 129, Type (0, 1), BuildingBlock: TEMPAE_clean_linker_10, # of connection points: 2
#     Edge 130, Type (0, 1), BuildingBlock: TEMPAE_clean_linker_10, # of connection points: 2
#     Edge 131, Type (0, 1), BuildingBlock: TEMPAE_clean_linker_10, # of connection points: 2
#     Edge 132, Type (0, 1), BuildingBlock: TEMPAE_clean_linker_10, # of connection points: 2
#     Edge 133, Type (0, 1), BuildingBlock: TEMPAE_clean_linker_10, # of connection points: 2
#     Edge 134, Type (0, 1), BuildingBlock: TEMPAE_clean_linker_10, # of connection points: 2
#     Edge 135, Type (0, 1), BuildingBlock: TEMPAE_clean_linker_10, # of connection points: 2
# Relax obj value: 0.136
# Max RMSD: 0.331
# Mean RMSD: 0.171
data_MOF--net-gar--node1-TATPOV_clean_sbu_0--node2-KUMJIN_clean_sbu_0--edge1-TEMPAE_clean_linker_10
_symmetry_space_group_name_H-M    P1
_symmetry_Int_Tables_number       1
_symmetry_cell_setting            triclinic
loop_
_symmetry_equiv_pos_as_xyz
'x, y, z'
_cell_length_a     61.865422
_cell_length_b     57.104403
_cell_length_c     57.556384
_cell_angle_alpha  100.86046
_cell_angle_beta   94.191663
_cell_angle_gamma 104.58092
loop_
_atom_site_label
_atom_site_type_symbol
_atom_site_fract_x
_atom_site_fract_y
_atom_site_fract_z
_atom_type_partial_charge
Zn0 Zn 0.10434 0.3316 0.41923 0.0
Zn1 Zn 0.12656 0.33139 0.38719 0.0
O2 O 0.14019 0.36589 0.40831 0.0
O3 O 0.11537 0.3665 0.43362 0.0
O4 O 0.14859 0.33144 0.36438 0.0
O5 O 0.11547 0.30915 0.43524 0.0
O6 O 0.12514 0.29927 0.39955 0.0
C7 C 0.13268 0.37733 0.42562 0.0
C8 C 0.07796 0.32527 0.37574 0.0
O9 O 0.09724 0.33092 0.36872 0.0
O10 O 0.07618 0.32059 0.39625 0.0
C11 C 0.15186 0.34651 0.35056 0.0
O12 O 0.13901 0.36148 0.34944 0.0
C13 C 0.12219 0.29462 0.42003 0.0
Zn14 Zn 0.98977 0.71242 0.67283 0.0
Zn15 Zn 1.0012 0.75685 0.66036 0.0
O16 O 0.977 0.7586 0.68126 0.0
O17 O 0.97372 0.72631 0.69795 0.0
O18 O 0.00663 0.78647 0.64502 0.0
O19 O 0.02376 0.71883 0.67689 0.0
O20 O 0.03105 0.75897 0.67789 0.0
C21 C 0.96864 0.74601 0.69604 0.0
C22 C 0.98224 0.7058 0.62623 0.0
O23 O 0.99455 0.72775 0.6332 0.0
O24 O 0.97201 0.69491 0.64098 0.0
C25 C 0.00412 0.78311 0.62239 0.0
O26 O 0.99636 0.76066 0.60924 0.0
C27 C 0.03762 0.74004 0.68004 0.0
Zn28 Zn 0.59713 0.8327 0.9115 0.0
Zn29 Zn 0.62492 0.83076 0.88807 0.0
O30 O 0.63852 0.86408 0.91091 0.0
O31 O 0.6044 0.86829 0.9097 0.0
O32 O 0.64555 0.82588 0.86505 0.0
O33 O 0.61282 0.82187 0.93719 0.0
O34 O 0.62124 0.80179 0.90444 0.0
C35 C 0.62537 0.87781 0.91465 0.0
C36 C 0.57704 0.81724 0.8689 0.0
O37 O 0.59659 0.83028 0.86736 0.0
O38 O 0.57395 0.80787 0.88696 0.0
C39 C 0.65975 0.84318 0.85913 0.0
O40 O 0.66256 0.86635 0.86992 0.0
C41 C 0.61876 0.80364 0.92633 0.0
Zn42 Zn 0.49067 0.21418 0.17529 0.0
Zn43 Zn 0.5001 0.25728 0.1591 0.0
O44 O 0.4768 0.26045 0.18084 0.0
O45 O 0.47419 0.22933 0.19904 0.0
O46 O 0.50376 0.2852 0.1418 0.0
O47 O 0.52441 0.2218 0.17989 0.0
O48 O 0.53138 0.25996 0.17412 0.0
C49 C 0.46865 0.24852 0.19615 0.0
C50 C 0.48045 0.20442 0.128 0.0
O51 O 0.49105 0.22711 0.13344 0.0
O52 O 0.47359 0.19332 0.14416 0.0
C53 C 0.49875 0.28081 0.11928 0.0
O54 O 0.48984 0.25801 0.1073 0.0
C55 C 0.53828 0.24219 0.17937 0.0
Zn56 Zn 0.13109 0.81874 0.08334 0.0
Zn57 Zn 0.09763 0.81252 0.10926 0.0
O58 O 0.09514 0.84313 0.09341 0.0
O59 O 0.12116 0.84595 0.06939 0.0
O60 O 0.07007 0.80785 0.12766 0.0
O61 O 0.12045 0.7813 0.06759 0.0
O62 O 0.09097 0.77711 0.08709 0.0
C63 C 0.10519 0.85363 0.07782 0.0
C64 C 0.14761 0.82346 0.13282 0.0
O65 O 0.12639 0.81717 0.13427 0.0
O66 O 0.15435 0.82763 0.11331 0.0
C67 C 0.06454 0.8251 0.14136 0.0
O68 O 0.07769 0.8478 0.1453 0.0
C69 C 0.1026 0.76751 0.07254 0.0
Zn70 Zn 0.48976 0.76114 0.45901 0.0
Zn71 Zn 0.51953 0.76399 0.42856 0.0
O72 O 0.52735 0.80096 0.44834 0.0
O73 O 0.50362 0.7981 0.47499 0.0
O74 O 0.54562 0.76329 0.4078 0.0
O75 O 0.49722 0.73145 0.47093 0.0
O76 O 0.52341 0.73557 0.44715 0.0
C77 C 0.51893 0.81139 0.4658 0.0
C78 C 0.46863 0.75655 0.41044 0.0
O79 O 0.48877 0.75807 0.40529 0.0
O80 O 0.46478 0.75626 0.43177 0.0
C81 C 0.55744 0.78148 0.40035 0.0
O82 O 0.55221 0.80267 0.40452 0.0
C83 C 0.5136 0.72463 0.46258 0.0
Zn84 Zn 0.62876 0.31688 0.58077 0.0
Zn85 Zn 0.59746 0.31291 0.60959 0.0
O86 O 0.59361 0.34222 0.59229 0.0
O87 O 0.62087 0.34714 0.56989 0.0
O88 O 0.57143 0.30931 0.63011 0.0
O89 O 0.61545 0.28009 0.56348 0.0
O90 O 0.59039 0.27666 0.58867 0.0
C91 C 0.60418 0.35382 0.57768 0.0
C92 C 0.64745 0.32044 0.63011 0.0
O93 O 0.62702 0.31889 0.63395 0.0
O94 O 0.65258 0.32089 0.6092 0.0
C95 C 0.55974 0.32478 0.63435 0.0
O96 O 0.565 0.3452 0.62618 0.0
C97 C 0.59942 0.26658 0.57159 0.0
Zn98 Zn 0.9893 0.25995 0.95984 0.0
Zn99 Zn 0.021 0.26544 0.93191 0.0
O100 O 0.02865 0.30146 0.95301 0.0
O101 O 0.00197 0.2969 0.97639 0.0
O102 O 0.04799 0.26601 0.91257 0.0
O103 O 0.99725 0.23076 0.97206 0.0
O104 O 0.02458 0.23659 0.94982 0.0
C105 C 0.01856 0.31084 0.96946 0.0
C106 C 0.97017 0.257 0.91128 0.0
O107 O 0.99094 0.2606 0.90767 0.0
O108 O 0.96504 0.25435 0.93176 0.0
C109 C 0.05773 0.2831 0.90246 0.0
O110 O 0.04951 0.30221 0.90259 0.0
C111 C 0.01434 0.22489 0.96453 0.0
Zn112 Zn 0.44694 0.01019 0.30635 0.0
Zn113 Zn 0.4265 0.04582 0.30001 0.0
O114 O 0.44326 0.0614 0.33093 0.0
O115 O 0.4376 0.02448 0.33808 0.0
O116 O 0.41088 0.06898 0.2933 0.0
O117 O 0.4684 0.02416 0.28385 0.0
O118 O 0.44413 0.04399 0.27443 0.0
C119 C 0.44163 0.04751 0.34561 0.0
C120 C 0.4025 0.99202 0.2891 0.0
O121 O 0.40227 0.01429 0.29675 0.0
O122 O 0.42066 0.9857 0.2885 0.0
C123 C 0.3956 0.07271 0.30567 0.0
O124 O 0.39167 0.06174 0.32365 0.0
C125 C 0.46043 0.03529 0.26967 0.0
Zn126 Zn 0.27683 0.22813 0.50736 0.0
Zn127 Zn 0.30323 0.20003 0.50968 0.0
O128 O 0.31104 0.21581 0.48001 0.0
O129 O 0.29098 0.24264 0.48127 0.0
O130 O 0.32695 0.18124 0.51317 0.0
O131 O 0.28417 0.2455 0.54175 0.0
O132 O 0.30788 0.22283 0.5441 0.0
C133 C 0.30492 0.23254 0.47138 0.0
C134 C 0.25228 0.17644 0.49854 0.0
O135 O 0.27187 0.17344 0.50298 0.0
O136 O 0.25025 0.19797 0.49858 0.0
C137 C 0.33396 0.16871 0.49606 0.0
O138 O 0.32508 0.16664 0.47407 0.0
C139 C 0.29869 0.23921 0.55398 0.0
Zn140 Zn 0.15358 0.03551 0.77146 0.0
Zn141 Zn 0.17758 1.00331 0.76479 0.0
O142 O 0.16032 1.00269 0.79952 0.0
O143 O 0.13873 0.02814 0.80078 0.0
O144 O 0.19565 0.97103 0.76083 0.0
O145 O 0.13655 0.02813 0.73826 0.0
O146 O 0.15663 1.0018 0.72839 0.0
C147 C 0.14616 0.01309 0.81045 0.0
C148 C 0.20068 0.06185 0.77381 0.0
O149 O 0.20312 0.03958 0.76953 0.0
O150 O 0.18131 0.06477 0.77631 0.0
C151 C 0.21251 0.96792 0.77405 0.0
O152 O 0.22147 0.98564 0.79291 0.0
C153 C 0.14228 0.01355 0.72191 0.0
Zn154 Zn 0.37034 0.91659 0.02853 0.0
Zn155 Zn 0.32646 0.92651 0.01656 0.0
O156 O 0.32847 0.91614 0.98302 0.0
O157 O 0.36169 0.90988 0.9926 0.0
O158 O 0.29741 0.93314 0.02181 0.0
O159 O 0.35934 0.88901 0.04606 0.0
O160 O 0.33145 0.89766 0.0277 0.0
C161 C 0.34593 0.9099 0.97711 0.0
C162 C 0.3688 0.96631 0.03795 0.0
O163 O 0.35004 0.95862 0.02484 0.0
O164 O 0.37609 0.95161 0.04822 0.0
C165 C 0.28962 0.94299 0.00632 0.0
O166 O 0.29965 0.94527 0.98721 0.0
C167 C 0.34365 0.89965 0.04685 0.0
Zn168 Zn 0.34302 0.35282 0.03283 0.0
Zn169 Zn 0.31742 0.38273 0.03269 0.0
O170 O 0.31092 0.36074 0.99805 0.0
O171 O 0.32947 0.33289 -0.0001 0.0
O172 O 0.29422 0.40242 0.03371 0.0
O173 O 0.33317 0.34266 0.06288 0.0
O174 O 0.30969 0.3657 0.06119 0.0
C175 C 0.31677 0.34178 0.98793 0.0
C176 C 0.36836 0.40407 0.03725 0.0
O177 O 0.34911 0.40844 0.03798 0.0
O178 O 0.36985 0.38204 0.03485 0.0
C179 C 0.28432 0.40581 0.015 0.0
O180 O 0.29045 0.39796 0.99423 0.0
C181 C 0.31761 0.35102 0.07122 0.0
Zn182 Zn 0.75806 0.1514 0.02888 0.0
Zn183 Zn 0.79171 0.14139 0.03312 0.0
O184 O 0.79626 0.16053 0.00688 0.0
O185 O 0.76058 0.14461 0.99378 0.0
O186 O 0.81896 0.13116 0.03845 0.0
O187 O 0.772 0.18595 0.0464 0.0
O188 O 0.78892 0.16331 0.06399 0.0
C189 C 0.77997 0.15632 0.99059 0.0
C190 C 0.75013 0.10603 0.03388 0.0
O191 O 0.76662 0.10925 0.02197 0.0
O192 O 0.74831 0.12477 0.04828 0.0
C193 C 0.82194 0.11773 0.01952 0.0
O194 O 0.8074 0.11304 0.00028 0.0
C195 C 0.78251 0.18288 0.06467 0.0
Zn196 Zn 0.17886 0.59791 0.23896 0.0
Zn197 Zn 0.19813 0.54718 0.2299 0.0
O198 O 0.19984 0.55424 0.26455 0.0
O199 O 0.18316 0.5848 0.26965 0.0
O200 O 0.20309 0.51471 0.22157 0.0
O201 O 0.17214 0.57638 0.20408 0.0
O202 O 0.16668 0.54203 0.21706 0.0
C203 C 0.19184 0.56948 0.27775 0.0
C204 C 0.21975 0.59243 0.22085 0.0
O205 O 0.22307 0.57138 0.21913 0.0
O206 O 0.19992 0.59283 0.2141 0.0
C207 C 0.22346 0.51456 0.22241 0.0
O208 O 0.23938 0.53551 0.22794 0.0
C209 C 0.16436 0.55299 0.20048 0.0
Zn210 Zn 0.84436 0.85322 0.53089 0.0
Zn211 Zn 0.81513 0.87875 0.52904 0.0
O212 O 0.81072 0.85723 0.49482 0.0
O213 O 0.83458 0.83477 0.49694 0.0
O214 O 0.78838 0.89356 0.52779 0.0
O215 O 0.83374 0.8392 0.55843 0.0
O216 O 0.80896 0.86082 0.55745 0.0
C217 C 0.8198 0.84087 0.48485 0.0
C218 C 0.86578 0.90565 0.53847 0.0
O219 O 0.84557 0.90741 0.5352 0.0
O220 O 0.86925 0.88463 0.53777 0.0
C221 C 0.78959 0.91628 0.52888 0.0
O222 O 0.80938 0.93213 0.53033 0.0
C223 C 0.81762 0.84623 0.56691 0.0
Zn224 Zn 0.97084 0.04678 0.26875 0.0
Zn225 Zn 0.94406 0.07553 0.27014 0.0
O226 O 0.96303 0.07885 0.30783 0.0
O227 O 0.98854 0.0582 0.30166 0.0
O228 O 0.92425 0.10584 0.26946 0.0
O229 O 0.98575 0.05256 0.2393 0.0
O230 O 0.96357 0.07675 0.23684 0.0
C231 C 0.97945 0.07088 0.31634 0.0
C232 C 0.92404 0.01698 0.26468 0.0
O233 O 0.9197 0.03811 0.26489 0.0
O234 O 0.9444 0.01627 0.26601 0.0
C235 C 0.91969 0.12297 0.28546 0.0
O236 O 0.92711 0.12427 0.30777 0.0
C237 C 0.97873 0.06664 0.22785 0.0
Zn238 Zn 0.24683 0.66479 0.51697 0.0
Zn239 Zn 0.29298 0.64109 0.52602 0.0
O240 O 0.30088 0.64706 0.49278 0.0
O241 O 0.27206 0.65711 0.50407 0.0
O242 O 0.31713 0.62971 0.53916 0.0
O243 O 0.25924 0.68021 0.55071 0.0
O244 O 0.29222 0.67026 0.55094 0.0
C245 C 0.28389 0.65428 0.48776 0.0
C246 C 0.24218 0.61161 0.51835 0.0
O247 O 0.26322 0.61444 0.52345 0.0
O248 O 0.23365 0.62896 0.51481 0.0
C249 C 0.31511 0.60733 0.52988 0.0
O250 O 0.29724 0.59491 0.51462 0.0
C251 C 0.27885 0.68179 0.56042 0.0
Zn252 Zn 0.47037 0.54735 0.76938 0.0
Zn253 Zn 0.44321 0.57514 0.77065 0.0
O254 O 0.46216 0.57848 0.80828 0.0
O255 O 0.48837 0.55884 0.80202 0.0
O256 O 0.42231 0.60427 0.77017 0.0
O257 O 0.48505 0.55275 0.73987 0.0
O258 O 0.46258 0.57661 0.73728 0.0
C259 C 0.47888 0.57094 0.81675 0.0
C260 C 0.42386 0.51695 0.7658 0.0
O261 O 0.41914 0.53779 0.76565 0.0
O262 O 0.44433 0.51667 0.76706 0.0
C263 C 0.42319 0.62577 0.78374 0.0
O264 O 0.43854 0.63349 0.80253 0.0
C265 C 0.47784 0.56664 0.72833 0.0
Zn266 Zn 0.67594 0.07537 0.75707 0.0
Zn267 Zn 0.69533 0.03477 0.73244 0.0
O268 O 0.69224 0.02986 0.76535 0.0
O269 O 0.7024 0.06936 0.77783 0.0
O270 O 0.70959 0.00955 0.7191 0.0
O271 O 0.66263 0.06392 0.72137 0.0
O272 O 0.66617 0.0259 0.71465 0.0
C273 C 0.697 0.04818 0.78269 0.0
C274 C 0.72172 0.08619 0.74381 0.0
O275 O 0.71497 0.06704 0.72725 0.0
O276 O 0.7105 0.08967 0.76126 0.0
C277 C 0.73008 0.01574 0.72776 0.0
O278 O 0.73888 0.03821 0.7407 0.0
C279 C 0.65827 0.04233 0.70831 0.0
Zn280 Zn 0.7771 0.72613 0.00592 0.0
Zn281 Zn 0.80263 0.69675 0.00699 0.0
O282 O 0.81009 0.71312 0.97777 0.0
O283 O 0.79269 0.74256 0.98144 0.0
O284 O 0.82668 0.67837 0.01006 0.0
O285 O 0.78379 0.74157 0.04081 0.0
O286 O 0.80736 0.71857 0.04182 0.0
C287 C 0.80547 0.73138 0.97059 0.0
C288 C 0.75201 0.67396 0.99488 0.0
O289 O 0.77131 0.67041 -0.00032 0.0
O290 O 0.75051 0.69578 0.99534 0.0
C291 C 0.8326 0.66401 0.99351 0.0
O292 O 0.82205 0.65908 0.97177 0.0
C293 C 0.79828 0.73467 0.05244 0.0
Zn294 Zn 0.94515 0.50557 0.81389 0.0
Zn295 Zn 0.93143 0.55101 0.80591 0.0
O296 O 0.94197 0.55886 0.83993 0.0
O297 O 0.92535 0.52031 0.8365 0.0
O298 O 0.91869 0.57664 0.80052 0.0
O299 O 0.95508 0.51392 0.7815 0.0
O300 O 0.95584 0.55339 0.78623 0.0
C301 C 0.93682 0.54047 0.84953 0.0
C302 C 0.90782 0.49879 0.78204 0.0
O303 O 0.90654 0.51936 0.79406 0.0
O304 O 0.92699 0.49463 0.7807 0.0
C305 C 0.90346 0.58116 0.8126 0.0
O306 O 0.89839 0.57007 0.8303 0.0
C307 C 0.96035 0.53444 0.7748 0.0
Zn308 Zn 0.86235 0.42308 0.52199 0.0
Zn309 Zn 0.82966 0.43647 0.51636 0.0
O310 O 0.83181 0.41937 0.48338 0.0
O311 O 0.86866 0.42912 0.48953 0.0
O312 O 0.80236 0.44726 0.51505 0.0
O313 O 0.845 0.38933 0.52409 0.0
O314 O 0.82488 0.41344 0.53931 0.0
C315 C 0.85056 0.42097 0.4753 0.0
C316 C 0.87063 0.46901 0.5437 0.0
O317 O 0.85582 0.4674 0.52665 0.0
O318 O 0.86925 0.45002 0.55225 0.0
C319 C 0.80227 0.46615 0.50666 0.0
O320 O 0.82011 0.47717 0.49781 0.0
C321 C 0.83079 0.39351 0.53785 0.0
Zn322 Zn 0.65267 0.53391 0.26999 0.0
Zn323 Zn 0.6765 0.50329 0.26499 0.0
O324 O 0.65812 0.50252 0.29969 0.0
O325 O 0.63644 0.52734 0.29803 0.0
O326 O 0.69488 0.47118 0.26175 0.0
O327 O 0.6357 0.52693 0.2372 0.0
O328 O 0.65599 0.50091 0.2278 0.0
C329 C 0.64336 0.51306 0.30924 0.0
C330 C 0.699 0.56208 0.2744 0.0
O331 O 0.70199 0.54004 0.26986 0.0
O332 O 0.67931 0.56412 0.27654 0.0
C333 C 0.71345 0.4696 0.27324 0.0
O334 O 0.72445 0.4892 0.28956 0.0
C335 C 0.64145 0.51231 0.22099 0.0
Eu336 Eu 0.03736 0.02455 0.00523 0.0
C337 C 0.11194 0.11648 0.06059 0.0
C338 C 0.11999 0.14058 0.03029 0.0
C339 C 0.12932 0.16096 0.07211 0.0
C340 C 0.11145 0.11763 0.03678 0.0
C341 C 0.12126 0.1381 0.07852 0.0
C342 C 0.12862 0.1622 0.04805 0.0
C343 C 0.11571 0.11277 0.10789 0.0
N344 N 0.10439 0.09411 0.06628 0.0
C345 C 0.10684 0.09188 0.08953 0.0
C346 C 0.12281 0.13603 0.10238 0.0
Eu347 Eu 0.09118 0.05895 0.03443 0.0
N348 N 0.10357 0.09628 0.02 0.0
C349 C 0.10461 0.09681 0.99635 0.0
C350 C 0.12017 0.14111 0.00614 0.0
C351 C 0.11256 0.1191 0.98913 0.0
H352 H 0.10173 0.07384 0.09391 0.0
H353 H 0.11275 0.11923 0.97036 0.0
H354 H 0.13523 0.17991 0.04335 0.0
H355 H 0.11727 0.11087 0.12625 0.0
H356 H 0.09854 0.08044 0.98247 0.0
H357 H 0.01509 0.96552 0.07028 0.0
H358 H 0.12648 0.15835 0.00047 0.0
H359 H 0.02806 0.00872 0.94561 0.0
H360 H 0.03358 1.00278 0.05751 0.0
H361 H 0.00884 0.97244 0.9138 0.0
H362 H 0.1365 0.17773 0.08563 0.0
H363 H 0.99409 0.92797 0.04067 0.0
H364 H 0.981 0.90701 0.99803 0.0
H365 H 0.12992 0.15218 0.11661 0.0
H366 H 0.97975 0.90864 0.95561 0.0
N367 N 0.02312 0.98783 0.02013 0.0
C368 C 0.02421 0.98719 0.0439 0.0
C369 C 0.00209 0.94459 0.03473 0.0
C370 C 1.00097 0.94507 0.01051 0.0
C371 C 0.01387 0.96572 0.05147 0.0
C372 C 0.01179 0.96718 0.00364 0.0
H373 H 0.99029 0.93272 0.92412 0.0
N374 N 0.0221 0.98933 0.97375 0.0
C375 C 0.00966 0.97079 0.93225 0.0
C376 C 0.01143 0.96792 0.97978 0.0
C377 C 0.0208 0.99121 0.95035 0.0
C378 C 0.99914 0.94846 0.93816 0.0
C379 C 0.99977 0.94685 0.96213 0.0
O380 O 0.01353 0.03454 0.98205 0.0
O381 O 0.05892 0.06356 0.019 0.0
O382 O 0.06731 0.06745 0.06266 0.0
O383 O 0.03367 0.03877 0.04527 0.0
O384 O 0.04652 0.05346 0.98313 0.0
O385 O 0.00561 0.029 0.01713 0.0
O386 O 0.11602 0.04973 0.05711 0.0
O387 O 0.06989 0.01956 0.02053 0.0
O388 O 0.06072 0.01625 0.97672 0.0
O389 O 0.09486 0.04389 0.99437 0.0
O390 O 0.08225 0.02999 0.05632 0.0
O391 O 0.12388 0.05789 0.02282 0.0
C392 C 0.05659 0.0719 0.00025 0.0
C393 C 0.97537 0.02484 0.98766 0.0
C394 C 0.93836 0.03124 0.98859 0.0
C395 C 0.96079 0.03714 0.99842 0.0
C396 C 0.93031 0.01245 0.96797 0.0
C397 C 0.96747 0.00606 0.96702 0.0
C398 C 0.94489 0.99985 0.95726 0.0
C399 C 0.04606 0.05549 0.06402 0.0
C400 C 0.99902 0.03435 0.99723 0.0
C401 C 0.98881 0.92496 0.9689 0.0
C402 C 0.98946 0.92406 0.99304 0.0
C403 C 0.07264 0.01122 0.0393 0.0
C404 C 0.15431 0.06096 0.05183 0.0
C405 C 0.16839 0.0465 0.04375 0.0
C406 C 0.19077 0.05261 0.054 0.0
C407 C 0.19928 0.07395 0.07218 0.0
C408 C 0.16264 0.08217 0.07011 0.0
C409 C 0.1852 0.08868 0.08017 0.0
C410 C 0.08208 0.02768 0.97549 0.0
C411 C 0.13067 0.05153 0.04207 0.0
H412 H 0.96706 0.05184 0.01423 0.0
H413 H 0.91297 0.00795 0.95994 0.0
H414 H 0.97867 0.9966 0.95824 0.0
H415 H 0.9388 0.98561 0.94118 0.0
H416 H 0.16173 0.03003 0.02967 0.0
H417 H 0.21656 0.07887 0.08047 0.0
H418 H 0.15178 0.09338 0.07676 0.0
H419 H 0.19168 0.10492 0.09442 0.0
Eu420 Eu 0.32244 0.78468 0.24876 0.0
C421 C 0.28318 0.85173 0.323 0.0
C422 C 0.317 0.87802 0.34784 0.0
C423 C 0.28451 0.89386 0.34262 0.0
C424 C 0.30507 0.85513 0.3327 0.0
C425 C 0.27235 0.87072 0.32867 0.0
C426 C 0.30685 0.89753 0.35211 0.0
C427 C 0.23747 0.84161 0.30922 0.0
N428 N 0.27181 0.82917 0.30971 0.0
C429 C 0.24896 0.82348 0.30408 0.0
C430 C 0.24932 0.86553 0.32111 0.0
Eu431 Eu 0.29183 0.79883 0.30069 0.0
N432 N 0.31422 0.83568 0.32852 0.0
C433 C 0.33489 0.83783 0.34059 0.0
C434 C 0.33847 0.88042 0.35899 0.0
C435 C 0.34726 0.86009 0.35567 0.0
H436 H 0.2396 0.80492 0.29501 0.0
H437 H 0.3637 0.86155 0.36463 0.0
H438 H 0.31587 0.91525 0.36345 0.0
H439 H 0.21948 0.83709 0.30405 0.0
H440 H 0.3427 0.82297 0.33889 0.0
H441 H 0.24924 0.73267 0.18164 0.0
H442 H 0.34814 0.89766 0.37068 0.0
H443 H 0.37164 0.77124 0.25874 0.0
H444 H 0.26879 0.7643 0.21564 0.0
H445 H 0.38967 0.73839 0.2447 0.0
H446 H 0.27656 0.90874 0.34687 0.0
H447 H 0.26565 0.69889 0.16538 0.0
H448 H 0.29678 0.6788 0.16766 0.0
H449 H 0.24038 0.87956 0.32523 0.0
H450 H 0.33421 0.67953 0.18562 0.0
N451 N 0.29832 0.75124 0.21886 0.0
C452 C 0.27747 0.75111 0.20868 0.0
C453 C 0.27493 0.71341 0.18029 0.0
C454 C 0.29583 0.71302 0.19088 0.0
C455 C 0.2657 0.73249 0.18931 0.0
C456 C 0.30736 0.73243 0.21031 0.0
H457 H 0.36876 0.70145 0.21423 0.0
N458 N 0.33974 0.7521 0.23831 0.0
C459 C 0.37233 0.73631 0.23801 0.0
C460 C 0.32844 0.73271 0.22052 0.0
C461 C 0.36188 0.75473 0.24613 0.0
C462 C 0.36049 0.71555 0.2208 0.0
C463 C 0.3385 0.71378 0.21146 0.0
O464 O 0.35567 0.8027 0.24081 0.0
O465 O 0.31393 0.81259 0.27564 0.0
O466 O 0.2729 0.80812 0.26961 0.0
O467 O 0.29261 0.79963 0.23706 0.0
O468 O 0.3476 0.81878 0.27157 0.0
O469 O 0.32524 0.79758 0.21566 0.0
O470 O 0.26147 0.77885 0.31257 0.0
O471 O 0.30036 0.77074 0.27378 0.0
O472 O 0.33789 0.77067 0.27867 0.0
O473 O 0.32431 0.78862 0.31245 0.0
O474 O 0.26711 0.76427 0.27819 0.0
O475 O 0.29427 0.78465 0.33291 0.0
C476 C 0.33283 0.82742 0.28233 0.0
C477 C 0.36119 0.81717 0.2045 0.0
C478 C 0.36419 0.8399 0.17319 0.0
C479 C 0.35142 0.82817 0.18863 0.0
C480 C 0.38696 0.84023 0.17315 0.0
C481 C 0.38405 0.81777 0.20498 0.0
C482 C 0.39688 0.82921 0.18915 0.0
C483 C 0.27539 0.80634 0.24664 0.0
C484 C 0.34719 0.80544 0.22047 0.0
C485 C 0.32676 0.6942 0.19269 0.0
C486 C 0.3055 0.69385 0.18241 0.0
C487 C 0.28175 0.75513 0.26763 0.0
C488 C 0.26266 0.77899 0.35346 0.0
C489 C 0.26597 0.76316 0.36785 0.0
C490 C 0.25503 0.76192 0.38788 0.0
C491 C 0.24144 0.77764 0.39458 0.0
C492 C 0.24898 0.79488 0.35958 0.0
C493 C 0.23854 0.79432 0.38039 0.0
C494 C 0.33872 0.77751 0.30206 0.0
C495 C 0.27248 0.77605 0.33146 0.0
H496 H 0.33374 0.82771 0.18829 0.0
H497 H 0.39702 0.84927 0.16107 0.0
H498 H 0.39186 0.80928 0.21735 0.0
H499 H 0.41447 0.82959 0.18935 0.0
H500 H 0.27643 0.75074 0.36284 0.0
H501 H 0.23285 0.77662 0.41025 0.0
H502 H 0.24615 0.80727 0.34832 0.0
H503 H 0.22785 0.80635 0.3852 0.0
Eu504 Eu 0.58636 0.04251 0.50923 0.0
C505 C 0.50237 0.99139 0.55303 0.0
C506 C 0.48195 0.95731 0.52082 0.0
C507 C 0.47967 0.95349 0.56196 0.0
C508 C 0.49663 0.98133 0.52884 0.0
C509 C 0.49348 0.97781 0.56985 0.0
C510 C 0.47397 0.94323 0.53749 0.0
C511 C 0.51111 0.01402 0.60095 0.0
N512 N 0.51581 0.01489 0.56014 0.0
C513 C 0.51964 0.0267 0.5836 0.0
C514 C 0.49826 0.98935 0.59408 0.0
Eu515 Eu 0.52992 0.03479 0.52989 0.0
N516 N 0.5044 0.99552 0.51318 0.0
C517 C 0.49685 0.98741 0.48935 0.0
C518 C 0.47513 0.94845 0.49633 0.0
C519 C 0.48228 0.96377 0.48059 0.0
H520 H 0.52973 0.04573 0.58886 0.0
H521 H 0.47673 0.95731 0.46165 0.0
H522 H 0.4629 0.92465 0.53164 0.0
H523 H 0.51455 0.02323 0.61959 0.0
H524 H 0.50218 0.99881 0.47679 0.0
H525 H 0.63724 0.12213 0.57653 0.0
H526 H 0.46389 0.93011 0.48947 0.0
H527 H 0.58744 0.03031 0.44958 0.0
H528 H 0.61315 0.07977 0.56197 0.0
H529 H 0.60205 0.05289 0.41878 0.0
H530 H 0.47288 0.94265 0.57462 0.0
H531 H 0.64926 0.14883 0.54811 0.0
H532 H 0.64984 0.15359 0.50578 0.0
H533 H 0.4917 0.97956 0.60755 0.0
H534 H 0.64054 0.13473 0.46297 0.0
N535 N 0.61047 0.08247 0.52542 0.0
C536 C 0.61792 0.09114 0.54922 0.0
C537 C 0.6384 0.13025 0.54153 0.0
C538 C 0.63177 0.12079 0.51708 0.0
C539 C 0.63176 0.1152 0.55763 0.0
C540 C 0.61783 0.09635 0.50938 0.0
H541 H 0.62327 0.09713 0.43048 0.0
N542 N 0.60013 0.06163 0.4782 0.0
C543 C 0.60501 0.06234 0.43735 0.0
C544 C 0.61263 0.08563 0.48515 0.0
C545 C 0.59686 0.0496 0.45477 0.0
C546 C 0.61695 0.08733 0.44403 0.0
C547 C 0.62115 0.09921 0.46817 0.0
O548 O 0.59833 0.00923 0.50335 0.0
O549 O 0.55414 0.0159 0.51256 0.0
O550 O 0.54982 0.01755 0.5525 0.0
O551 O 0.58399 0.04281 0.54796 0.0
O552 O 0.56783 0.00727 0.48171 0.0
O553 O 0.62156 0.04399 0.52037 0.0
O554 O 0.51601 0.06438 0.54626 0.0
O555 O 0.56161 0.06172 0.52505 0.0
O556 O 0.56629 0.0555 0.4836 0.0
O557 O 0.52996 0.03661 0.49124 0.0
O558 O 0.54912 0.07028 0.55669 0.0
O559 O 0.49838 0.03946 0.51355 0.0
C560 C 0.55147 0.99938 0.49365 0.0
C561 C 0.63617 0.01357 0.49783 0.0
C562 C 0.667 0.99392 0.4935 0.0
C563 C 0.65202 1.00312 0.50771 0.0
C564 C 0.66559 0.99546 0.46927 0.0
C565 C 0.63565 0.0154 0.47391 0.0
C566 C 0.65032 0.00645 0.45974 0.0
C567 C 0.57193 0.02509 0.55698 0.0
C568 C 0.61905 0.02057 0.51198 0.0
C569 C 0.63407 0.12395 0.47578 0.0
C570 C 0.63935 0.1347 0.50017 0.0
C571 C 0.56431 0.07849 0.54372 0.0
C572 C 0.47695 0.05912 0.53978 0.0
C573 C 0.4631 0.07205 0.5302 0.0
C574 C 0.4438 0.07526 0.54067 0.0
C575 C 0.4389 0.06556 0.56104 0.0
C576 C 0.47129 0.04914 0.5597 0.0
C577 C 0.45244 0.05247 0.5703 0.0
C578 C 0.54439 0.0475 0.47823 0.0
C579 C 0.49834 0.05828 0.53038 0.0
H580 H 0.65248 1.00211 0.52634 0.0
H581 H 0.67601 0.9878 0.45736 0.0
H582 H 0.6235 0.0231 0.46599 0.0
H583 H 0.64953 0.00755 0.44114 0.0
H584 H 0.46744 0.07965 0.51473 0.0
H585 H 0.42472 0.06835 0.57009 0.0
H586 H 0.48171 0.03927 0.56741 0.0
H587 H 0.44845 0.04515 0.58597 0.0
Eu588 Eu 0.28389 0.29633 0.77009 0.0
C589 C 0.36064 0.26875 0.8195 0.0
C590 C 0.37778 0.3063 0.84917 0.0
C591 C 0.37763 0.26644 0.85821 0.0
C592 C 0.36564 0.29417 0.82653 0.0
C593 C 0.36735 0.25466 0.83494 0.0
C594 C 0.38289 0.29227 0.8653 0.0
C595 C 0.3569 0.21917 0.80204 0.0
N596 N 0.35145 0.25809 0.79669 0.0
C597 C 0.35093 0.23404 0.78738 0.0
C598 C 0.36469 0.2294 0.8261 0.0
Eu599 Eu 0.33927 0.28355 0.77326 0.0
N600 N 0.36071 0.30714 0.81035 0.0
C601 C 0.36939 0.33236 0.81503 0.0
C602 C 0.38562 0.33213 0.8544 0.0
C603 C 0.38197 0.34514 0.83698 0.0
H604 H 0.34526 0.22619 0.76864 0.0
H605 H 0.38853 0.36509 0.84055 0.0
H606 H 0.39183 0.30126 0.8829 0.0
H607 H 0.35565 0.1999 0.79472 0.0
H608 H 0.36687 0.3431 0.80215 0.0
H609 H 0.24347 0.21713 0.69612 0.0
H610 H 0.39519 0.34211 0.87146 0.0
H611 H 0.27757 0.35367 0.77788 0.0
H612 H 0.26243 0.23735 0.73606 0.0
H613 H 0.26537 0.38087 0.75399 0.0
H614 H 0.38259 0.25589 0.87044 0.0
H615 H 0.23329 0.24191 0.66843 0.0
H616 H 0.23221 0.28348 0.66102 0.0
H617 H 0.36962 0.21795 0.83738 0.0
H618 H 0.23857 0.32815 0.67657 0.0
N619 N 0.26393 0.27418 0.73186 0.0
C620 C 0.25822 0.24887 0.72468 0.0
C621 C 0.24183 0.25113 0.68613 0.0
C622 C 0.2467 0.27683 0.69378 0.0
C623 C 0.24743 0.23708 0.70174 0.0
C624 C 0.25768 0.28792 0.71712 0.0
H625 H 0.25057 0.36454 0.71129 0.0
N626 N 0.27076 0.32274 0.74868 0.0
C627 C 0.26432 0.36188 0.74575 0.0
C628 C 0.26134 0.31301 0.72578 0.0
C629 C 0.2712 0.34646 0.75919 0.0
C630 C 0.25603 0.35261 0.72166 0.0
C631 C 0.25397 0.32775 0.71151 0.0
O632 O 0.26629 0.31259 0.79779 0.0
O633 O 0.31215 0.29227 0.79411 0.0
O634 O 0.3143 0.24792 0.77855 0.0
O635 O 0.27924 0.25602 0.7745 0.0
O636 O 0.30192 0.32422 0.80315 0.0
O637 O 0.25122 0.27544 0.77813 0.0
O638 O 0.35638 0.26535 0.74645 0.0
O639 O 0.31118 0.28772 0.74902 0.0
O640 O 0.30834 0.33222 0.76515 0.0
O641 O 0.34326 0.32346 0.76729 0.0
O642 O 0.3217 0.25557 0.74051 0.0
O643 O 0.37194 0.30317 0.76414 0.0
C644 C 0.31469 0.31158 0.81022 0.0
C645 C 0.22672 0.29809 0.7955 0.0
C646 C 0.19207 0.29649 0.81414 0.0
C647 C 0.21297 0.2908 0.81295 0.0
C648 C 0.18533 0.30972 0.79802 0.0
C649 C 0.21936 0.31097 0.77946 0.0
C650 C 0.19888 0.31689 0.78085 0.0
C651 C 0.29195 0.24086 0.77731 0.0
C652 C 0.24911 0.29329 0.79482 0.0
C653 C 0.24408 0.31706 0.6879 0.0
C654 C 0.24043 0.29163 0.67906 0.0
C655 C 0.30921 0.26834 0.73308 0.0
C656 C 0.3959 0.2791 0.74816 0.0
C657 C 0.41074 0.28825 0.73241 0.0
C658 C 0.43155 0.28243 0.73142 0.0
C659 C 0.43705 0.26698 0.74586 0.0
C660 C 0.40195 0.26394 0.76258 0.0
C661 C 0.42231 0.25775 0.76125 0.0
C662 C 0.33054 0.33883 0.76521 0.0
C663 C 0.37371 0.28431 0.74847 0.0
H664 H 0.21847 0.28082 0.82545 0.0
H665 H 0.16945 0.31443 0.7987 0.0
H666 H 0.22949 0.31662 0.76593 0.0
H667 H 0.19346 0.32706 0.76853 0.0
H668 H 0.40622 0.29996 0.72116 0.0
H669 H 0.45283 0.26203 0.74519 0.0
H670 H 0.39091 0.25673 0.77476 0.0
H671 H 0.42671 0.2458 0.77224 0.0
Eu672 Eu 0.05605 0.0668 0.53202 0.0
C673 C 0.07579 0.9876 0.45201 0.0
C674 C 0.04137 0.97289 0.42435 0.0
C675 C 0.07637 0.96719 0.41099 0.0
C676 C 0.05289 0.98463 0.44737 0.0
C677 C 0.08774 0.97867 0.43392 0.0
C678 C 0.05324 0.96432 0.40622 0.0
C679 C 0.12114 0.99183 0.46274 0.0
N680 N 0.08635 0.99865 0.47433 0.0
C681 C 0.10856 1.00014 0.48013 0.0
C682 C 0.11071 0.98117 0.43949 0.0
Eu683 Eu 0.06384 0.01063 0.50338 0.0
N684 N 0.04185 0.99325 0.46524 0.0
C685 C 0.01912 0.99034 0.46107 0.0
C686 C 0.01823 0.97013 0.42014 0.0
C687 C 0.00709 0.97891 0.43859 0.0
H688 H 0.1166 0.00806 0.49822 0.0
H689 H 0.9892 0.97702 0.43551 0.0
H690 H 0.04467 0.95534 0.38848 0.0
H691 H 0.13881 0.99347 0.46733 0.0
H692 H 0.0099 0.99732 0.4746 0.0
H693 H 0.1285 0.09852 0.60238 0.0
H694 H 0.00885 0.96134 0.4027 0.0
H695 H 0.0034 0.07079 0.5349 0.0
H696 H 0.10897 0.07965 0.56245 0.0
H697 H 0.98044 0.0859 0.56466 0.0
H698 H 0.08528 0.96027 0.39688 0.0
H699 H 0.10776 0.11328 0.63457 0.0
H700 H 0.07165 0.12008 0.64725 0.0
H701 H 0.12045 0.97457 0.42607 0.0
H702 H 0.03152 0.11661 0.63711 0.0
N703 N 0.07664 0.0828 0.57097 0.0
C704 C 0.09933 0.08597 0.57582 0.0
C705 C 0.09888 0.1048 0.61685 0.0
C706 C 0.07587 0.1023 0.6118 0.0
C707 C 0.11065 0.09661 0.59874 0.0
C708 C 0.06502 0.09098 0.58843 0.0
H709 H 0.99742 0.10376 0.60653 0.0
N710 N 0.03258 0.07861 0.56004 0.0
C711 C 0.99779 0.08674 0.57003 0.0
C712 C 0.04238 0.08888 0.58278 0.0
C713 C 0.01079 0.0781 0.55327 0.0
C714 C 0.00744 0.09678 0.59364 0.0
C715 C 0.03004 0.09823 0.60023 0.0
O716 O 0.04275 0.09184 0.51533 0.0
O717 O 0.05526 0.04448 0.49441 0.0
O718 O 0.09134 0.0394 0.49227 0.0
O719 O 0.09217 0.07186 0.52335 0.0
O720 O 0.02703 0.05539 0.50186 0.0
O721 O 0.07632 0.10527 0.53519 0.0
O722 O 0.07886 0.98572 0.51858 0.0
O723 O 0.06469 0.03305 0.54066 0.0
O724 O 0.02783 0.03856 0.54256 0.0
O725 O 0.02794 0.0053 0.51273 0.0
O726 O 0.09308 0.02199 0.53356 0.0
O727 O 0.04364 0.97295 0.50308 0.0
C728 C 0.03639 0.04587 0.48449 0.0
C729 C 0.0569 0.13475 0.52685 0.0
C730 C 0.06124 0.1722 0.5115 0.0
C731 C 0.06856 0.15152 0.51441 0.0
C732 C 0.04294 0.17688 0.523 0.0
C733 C 0.03883 0.13958 0.53842 0.0
C734 C 0.03211 0.16085 0.53676 0.0
C735 C 0.10155 0.06136 0.50582 0.0
C736 C 0.06064 0.11025 0.52213 0.0
C737 C 0.04071 0.10926 0.62351 0.0
C738 C 0.06356 0.11126 0.62929 0.0
C739 C 0.08359 0.03191 0.55057 0.0
C740 C 0.06295 0.94287 0.50909 0.0
C741 C 0.05386 0.92735 0.52398 0.0
C742 C 0.0596 0.90521 0.52352 0.0
C743 C 0.07407 0.89816 0.50759 0.0
C744 C 0.07723 0.93582 0.4929 0.0
C745 C 0.08263 0.91334 0.49208 0.0
C746 C 0.01804 0.01624 0.5295 0.0
C747 C 0.06038 0.96783 0.51431 0.0
H748 H 0.08261 0.14749 0.50578 0.0
H749 H 0.03654 0.19242 0.52085 0.0
H750 H 0.02938 0.1265 0.54778 0.0
H751 H 0.01788 0.16436 0.54528 0.0
H752 H 0.04328 0.93313 0.53692 0.0
H753 H 0.07874 0.88105 0.50724 0.0
H754 H 0.08472 0.94796 0.48159 0.0
H755 H 0.09388 0.90798 0.47986 0.0
Eu756 Eu 0.33925 0.81024 0.76539 0.0
C757 C 0.2793 0.7329 0.80728 0.0
C758 C 0.28148 0.69384 0.78348 0.0
C759 C 0.27326 0.69602 0.82421 0.0
C760 C 0.28269 0.71931 0.78578 0.0
C761 C 0.27387 0.72105 0.82642 0.0
C762 C 0.27714 0.68249 0.80285 0.0
C763 C 0.26736 0.75859 0.84793 0.0
N764 N 0.27984 0.75712 0.80913 0.0
C765 C 0.2728 0.76955 0.82866 0.0
C766 C 0.2683 0.73436 0.847 0.0
Eu767 Eu 0.2874 0.77366 0.77461 0.0
N768 N 0.28646 0.73052 0.76697 0.0
C769 C 0.28787 0.71653 0.7452 0.0
C770 C 0.28436 0.68023 0.76166 0.0
C771 C 0.28738 0.6916 0.74241 0.0
H772 H 0.2715 0.78824 0.8296 0.0
H773 H 0.28899 0.68106 0.72521 0.0
H774 H 0.27629 0.66306 0.80132 0.0
H775 H 0.26233 0.76883 0.86344 0.0
H776 H 0.28917 0.72371 0.72935 0.0
H777 H 0.32694 0.89637 0.81491 0.0
H778 H 0.28375 0.66079 0.75934 0.0
H779 H 0.35665 0.79745 0.71161 0.0
H780 H 0.32806 0.85276 0.80834 0.0
H781 H 0.36654 0.81852 0.67844 0.0
H782 H 0.2693 0.68678 0.83879 0.0
H783 H 0.33473 0.91956 0.78285 0.0
H784 H 0.34543 0.9204 0.74177 0.0
H785 H 0.26393 0.72583 0.86193 0.0
H786 H 0.35596 0.89927 0.70477 0.0
N787 N 0.33643 0.85132 0.77309 0.0
C788 C 0.33183 0.86283 0.79443 0.0
C789 C 0.33533 0.90044 0.77994 0.0
C790 C 0.3406 0.88869 0.7583 0.0
C791 C 0.33099 0.88746 0.79811 0.0
C792 C 0.34099 0.86371 0.7553 0.0
H793 H 0.36387 0.86143 0.68105 0.0
N794 N 0.34728 0.8277 0.73192 0.0
C795 C 0.36077 0.82794 0.69391 0.0
C796 C 0.34661 0.85163 0.7342 0.0
C797 C 0.3551 0.81605 0.7126 0.0
C798 C 0.35925 0.85217 0.69547 0.0
C799 C 0.35239 0.86443 0.71588 0.0
O800 O 0.37253 0.80552 0.76121 0.0
O801 O 0.32452 0.77255 0.775 0.0
O802 O 0.30521 0.79666 0.81011 0.0
O803 O 0.34224 0.80793 0.80334 0.0
O804 O 0.34384 0.77337 0.74728 0.0
O805 O 0.36905 0.83649 0.7876 0.0
O806 O 0.25854 0.78546 0.78591 0.0
O807 O 0.30495 0.81422 0.7755 0.0
O808 O 0.31729 0.79956 0.73048 0.0
O809 O 0.29295 0.76427 0.73679 0.0
O810 O 0.27538 0.79902 0.75323 0.0
O811 O 0.25334 0.75159 0.75854 0.0
C812 C 0.33435 0.7592 0.76084 0.0
C813 C 0.40469 0.83919 0.7735 0.0
C814 C 0.44511 0.8499 0.78501 0.0
C815 C 0.42304 0.84173 0.79025 0.0
C816 C 0.44854 0.85711 0.76319 0.0
C817 C 0.40825 0.84662 0.75191 0.0
C818 C 0.43016 0.85579 0.74692 0.0
C819 C 0.32682 0.80519 0.81757 0.0
C820 C 0.38276 0.82488 0.7777 0.0
C821 C 0.35166 0.88918 0.71869 0.0
C822 C 0.34571 0.90123 0.73979 0.0
C823 C 0.29008 0.81979 0.76205 0.0
C824 C 0.22164 0.75834 0.77797 0.0
C825 C 0.20368 0.74966 0.75963 0.0
C826 C 0.18147 0.74645 0.76476 0.0
C827 C 0.17737 0.75058 0.78873 0.0
C828 C 0.21734 0.76265 0.8018 0.0
C829 C 0.19525 0.75834 0.80711 0.0
C830 C 0.30299 0.77785 0.72277 0.0
C831 C 0.24412 0.76707 0.77122 0.0
H832 H 0.42002 0.83602 0.80694 0.0
H833 H 0.46533 0.8629 0.7583 0.0
H834 H 0.39428 0.84471 0.73871 0.0
H835 H 0.43291 0.86103 0.73003 0.0
H836 H 0.20711 0.74678 0.74124 0.0
H837 H 0.16045 0.74886 0.79332 0.0
H838 H 0.23087 0.77029 0.81626 0.0
H839 H 0.192 0.76205 0.82548 0.0
Eu840 Eu 0.56554 0.04511 0.04126 0.0
C841 C 0.50326 0.05838 0.95826 0.0
C842 C 0.47942 0.01644 0.94447 0.0
C843 C 0.46598 0.05107 0.9368 0.0
C844 C 0.5 0.03314 0.95591 0.0
C845 C 0.48634 0.06762 0.94854 0.0
C846 C 0.46249 0.02554 0.93487 0.0
C847 C 0.51124 0.10889 0.96187 0.0
N848 N 0.52294 0.07392 0.97007 0.0
C849 C 0.52753 0.09881 0.97099 0.0
C850 C 0.49047 0.09323 0.95073 0.0
Eu851 Eu 0.55062 0.05547 0.98296 0.0
N852 N 0.51661 0.02497 0.96556 0.0
C853 C 0.51365 1.00023 0.96456 0.0
C854 C 0.47635 0.99112 0.94332 0.0
C855 C 0.49352 0.983 0.9535 0.0
H856 H 0.54396 0.11089 0.97861 0.0
H857 H 0.49122 0.96347 0.95295 0.0
H858 H 0.44661 0.01299 0.92597 0.0
H859 H 0.51486 0.12867 0.9631 0.0
H860 H 0.52646 0.99356 0.97274 0.0
H861 H 0.6127 0.12669 0.11063 0.0
H862 H 0.46074 0.97773 0.93484 0.0
H863 H 0.57137 0.98663 0.03507 0.0
H864 H 0.57994 0.10126 0.08335 0.0
H865 H 0.6003 0.96644 0.046 0.0
H866 H 0.4528 0.05783 0.92923 0.0
H867 H 0.64586 0.11111 0.11706 0.0
H868 H 0.6633 0.07612 0.11015 0.0
H869 H 0.4779 0.10105 0.94351 0.0
H870 H 0.65983 0.0325 0.09296 0.0
N871 N 0.59501 0.07194 0.07065 0.0
C872 C 0.59457 0.09433 0.08416 0.0
C873 C 0.6317 0.09992 0.10412 0.0
C874 C 0.63124 0.07606 0.09226 0.0
C875 C 0.61306 0.10883 0.10046 0.0
C876 C 0.61234 0.06207 0.07556 0.0
H877 H 0.63645 0.99161 0.06948 0.0
N878 N 0.59135 0.02315 0.05141 0.0
C879 C 0.60342 0.98632 0.05157 0.0
C880 C 0.61042 0.03717 0.06579 0.0
C881 C 0.58705 0.99781 0.04555 0.0
C882 C 0.62382 1.00062 0.0647 0.0
C883 C 0.6273 0.02617 0.07255 0.0
O884 O 0.54494 0.01183 0.04968 0.0
O885 O 0.53696 0.03776 0.01316 0.0
O886 O 0.54293 0.08509 0.00968 0.0
O887 O 0.5621 0.08396 0.04622 0.0
O888 O 0.53714 0.03778 0.0134 0.0
O889 O 0.54679 0.04817 0.0716 0.0
O890 O 0.56923 0.07853 0.96157 0.0
O891 O 0.5776 0.0595 0.01147 0.0
O892 O 0.58446 0.02607 0.01574 0.0
O893 O 0.56317 0.02085 0.97922 0.0
O894 O 0.58239 0.08807 0.99505 0.0
O895 O 0.55656 0.0386 0.94751 0.0
C896 C 0.51946 0.04246 0.02164 0.0
C897 C 0.53756 0.01387 0.08921 0.0
C898 C 0.5172 0.00606 0.12205 0.0
C899 C 0.51933 0.01528 0.1015 0.0
C900 C 0.53325 0.99507 0.13041 0.0
C901 C 0.55392 1.00317 0.0974 0.0
C902 C 0.55162 0.99361 0.118 0.0
C903 C 0.5506 0.09401 0.03246 0.0
C904 C 0.53867 0.02417 0.06817 0.0
C905 C 0.64664 0.04062 0.08786 0.0
C906 C 0.64862 0.06548 0.09765 0.0
C907 C 0.59135 0.07949 0.01135 0.0
C908 C 0.56388 0.06517 0.9203 0.0
C909 C 0.57938 0.06 0.90548 0.0
C910 C 0.58126 0.06898 0.88471 0.0
C911 C 0.56696 0.08292 0.87832 0.0
C912 C 0.54914 0.0787 0.91403 0.0
C913 C 0.55062 0.08742 0.89287 0.0
C914 C 0.57814 0.01509 0.99311 0.0
C915 C 0.56721 0.0601 0.94374 0.0
H916 H 0.50701 0.02414 0.09542 0.0
H917 H 0.5319 0.98842 0.14682 0.0
H918 H 0.56836 1.00236 0.08811 0.0
H919 H 0.56422 0.98548 0.12453 0.0
H920 H 0.59124 0.05033 0.91107 0.0
H921 H 0.5685 0.09031 0.86233 0.0
H922 H 0.53717 0.08316 0.92566 0.0
H923 H 0.53957 0.09821 0.88811 0.0
Eu924 Eu 0.31522 0.30812 0.27782 0.0
C925 C 0.22659 0.22812 0.23593 0.0
C926 C 0.20979 0.21403 0.26933 0.0
C927 C 0.187 0.20495 0.23099 0.0
C928 C 0.22882 0.2258 0.25946 0.0
C929 C 0.20556 0.21761 0.22146 0.0
C930 C 0.18908 0.20326 0.25488 0.0
C931 C 0.22276 0.2314 0.18854 0.0
N932 N 0.24494 0.2401 0.227 0.0
C933 C 0.24324 0.2412 0.2033 0.0
C934 C 0.20383 0.21953 0.19762 0.0
Eu935 Eu 0.28021 0.24657 0.25048 0.0
N936 N 0.2492 0.23606 0.27301 0.0
C937 C 0.25062 0.23772 0.29723 0.0
C938 C 0.21193 0.21388 0.29361 0.0
C939 C 0.23227 0.22636 0.30772 0.0
H940 H 0.25768 0.24795 0.19471 0.0
H941 H 0.23375 0.22768 0.3268 0.0
H942 H 0.17447 0.19384 0.26211 0.0
H943 H 0.22183 0.23221 0.16986 0.0
H944 H 0.26515 0.24906 0.30916 0.0
H945 H 0.36411 0.31434 0.20235 0.0
H946 H 0.1977 0.20516 0.30182 0.0
H947 H 0.33379 0.32166 0.33637 0.0
H948 H 0.33175 0.2975 0.22198 0.0
H949 H 0.36861 0.34456 0.36323 0.0
H950 H 0.17089 0.19653 0.22003 0.0
H951 H 0.39908 0.34202 0.22648 0.0
H952 H 0.42073 0.36215 0.26682 0.0
H953 H 0.18808 0.21146 0.18595 0.0
H954 H 0.42237 0.36912 0.31049 0.0
N955 N 0.3474 0.31573 0.25711 0.0
C956 C 0.34651 0.30976 0.23286 0.0
C957 C 0.38478 0.33459 0.23524 0.0
C958 C 0.38604 0.33976 0.26008 0.0
C959 C 0.36507 0.31907 0.22159 0.0
C960 C 0.36689 0.32977 0.27063 0.0
H961 H 0.40332 0.36194 0.3465 0.0
N962 N 0.3492 0.3232 0.30458 0.0
C963 C 0.36876 0.34125 0.34411 0.0
C964 C 0.36789 0.33339 0.29514 0.0
C965 C 0.34919 0.32779 0.32879 0.0
C966 C 0.38827 0.35115 0.3346 0.0
C967 C 0.38796 0.34754 0.30986 0.0
O968 O 0.31163 0.33863 0.30485 0.0
O969 O 0.27954 0.28492 0.26556 0.0
O970 O 0.28696 0.27026 0.22276 0.0
O971 O 0.29854 0.31142 0.24267 0.0
O972 O 0.28726 0.30211 0.3009 0.0
O973 O 0.31846 0.3444 0.26902 0.0
O974 O 0.28447 0.22625 0.21573 0.0
O975 O 0.31424 0.27244 0.25408 0.0
O976 O 0.32061 0.28374 0.30343 0.0
O977 O 0.29415 0.24515 0.28827 0.0
O978 O 0.31242 0.23686 0.25911 0.0
O979 O 0.26821 0.20647 0.24123 0.0
C980 C 0.27096 0.29009 0.28428 0.0
C981 C 0.3169 0.37997 0.2987 0.0
C982 C 0.30597 0.41562 0.29064 0.0
C983 C 0.30809 0.39175 0.2828 0.0
C984 C 0.31439 0.4284 0.31425 0.0
C985 C 0.32517 0.39259 0.32226 0.0
C986 C 0.32423 0.41696 0.32988 0.0
C987 C 0.29063 0.29413 0.22312 0.0
C988 C 0.31613 0.35407 0.29079 0.0
C989 C 0.40689 0.35805 0.29947 0.0
C990 C 0.40592 0.35421 0.27462 0.0
C991 C 0.32578 0.25805 0.25831 0.0
C992 C 0.28511 0.1847 0.21217 0.0
C993 C 0.29492 0.17416 0.22867 0.0
C994 C 0.30245 0.15329 0.22084 0.0
C995 C 0.30061 0.14324 0.19631 0.0
C996 C 0.28349 0.17479 0.18769 0.0
C997 C 0.2913 0.15413 0.1798 0.0
C998 C 0.30954 0.26115 0.30531 0.0
C999 C 0.27498 0.20477 0.22017 0.0
H1000 H 0.30187 0.38181 0.26458 0.0
H1001 H 0.3127 0.44682 0.32086 0.0
H1002 H 0.3322 0.38358 0.33472 0.0
H1003 H 0.33052 0.42673 0.34808 0.0
H1004 H 0.29611 0.18171 0.24763 0.0
H1005 H 0.30659 0.12719 0.18998 0.0
H1006 H 0.27584 0.18278 0.17473 0.0
H1007 H 0.28992 0.14641 0.16091 0.0
Eu1008 Eu 0.55683 0.5675 0.03128 0.0
C1009 C 0.57431 0.48718 0.95176 0.0
C1010 C 0.53936 0.47285 0.92488 0.0
C1011 C 0.57396 0.46716 0.9104 0.0
C1012 C 0.55136 0.48434 0.94775 0.0
C1013 C 0.58579 0.47831 0.93319 0.0
C1014 C 0.55081 0.46446 0.90626 0.0
C1015 C 0.61968 0.49085 0.96129 0.0
N1016 N 0.58535 0.49799 0.97393 0.0
C1017 C 0.60757 0.49918 0.97915 0.0
C1018 C 0.60879 0.48052 0.93816 0.0
Eu1019 Eu 0.5637 0.51057 0.00361 0.0
N1020 N 0.54073 0.49275 0.96609 0.0
C1021 C 0.51791 0.48958 0.96266 0.0
C1022 C 0.51619 0.4701 0.92134 0.0
C1023 C 0.50544 0.47846 0.94034 0.0
H1024 H 0.61597 0.50694 0.99712 0.0
H1025 H 0.48749 0.47641 0.93781 0.0
H1026 H 0.54187 0.45571 0.88862 0.0
H1027 H 0.63737 0.49225 0.96541 0.0
H1028 H 0.5089 0.49596 0.97671 0.0
H1029 H 0.62939 0.6043 0.10095 0.0
H1030 H 0.50646 0.46152 0.90404 0.0
H1031 H 0.50329 0.56921 0.03375 0.0
H1032 H 0.60967 0.58302 0.06145 0.0
H1033 H 0.47998 0.58439 0.06302 0.0
H1034 H 0.58252 0.46033 0.89591 0.0
H1035 H 0.60835 0.61935 0.13273 0.0
H1036 H 0.57176 0.62488 0.1452 0.0
H1037 H 0.61818 0.47394 0.92436 0.0
H1038 H 0.53127 0.61945 0.13498 0.0
N1039 N 0.57724 0.58532 0.06993 0.0
C1040 C 0.60001 0.58941 0.07473 0.0
C1041 C 0.59946 0.60986 0.11523 0.0
C1042 C 0.57625 0.60622 0.11021 0.0
C1043 C 0.61139 0.60148 0.09735 0.0
C1044 C 0.56544 0.59371 0.0871 0.0
H1045 H 0.49699 0.60435 0.10453 0.0
N1046 N 0.53285 0.57922 0.05881 0.0
C1047 C 0.49753 0.58611 0.06845 0.0
C1048 C 0.54261 0.59059 0.08137 0.0
C1049 C 0.51074 0.57744 0.05197 0.0
C1050 C 0.5072 0.59736 0.09186 0.0
C1051 C 0.53003 0.59996 0.09853 0.0
O1052 O 0.54341 0.59205 0.01388 0.0
O1053 O 0.55499 0.5441 0.99397 0.0
O1054 O 0.59072 0.53863 0.99108 0.0
O1055 O 0.59278 0.5716 0.0221 0.0
O1056 O 0.527 0.55522 0.00198 0.0
O1057 O 0.57713 0.60558 0.03333 0.0
O1058 O 0.57871 0.48576 0.01898 0.0
O1059 O 0.56582 0.53419 0.04041 0.0
O1060 O 0.53053 0.54 0.04485 0.0
O1061 O 0.52825 0.50645 0.0143 0.0
O1062 O 0.59356 0.52218 0.03339 0.0
O1063 O 0.54332 0.47321 0.0041 0.0
C1064 C 0.53592 0.5453 0.98444 0.0
C1065 C 0.5571 0.63476 0.02671 0.0
C1066 C 0.56131 0.67422 0.01544 0.0
C1067 C 0.56809 0.6526 0.01502 0.0
C1068 C 0.54388 0.67832 0.0287 0.0
C1069 C 0.53985 0.63893 0.04008 0.0
C1070 C 0.53339 0.66079 0.04118 0.0
C1071 C 0.60144 0.56064 0.00417 0.0
C1072 C 0.56124 0.61056 0.02057 0.0
C1073 C 0.54066 0.6121 0.1216 0.0
C1074 C 0.56371 0.6152 0.12742 0.0
C1075 C 0.58478 0.53331 0.05033 0.0
C1076 C 0.56254 0.44294 0.00941 0.0
C1077 C 0.55241 0.42681 0.0233 0.0
C1078 C 0.55777 0.40442 0.02262 0.0
C1079 C 0.57301 0.39783 0.00742 0.0
C1080 C 0.57748 0.43625 0.99388 0.0
C1081 C 0.58258 0.4136 0.99283 0.0
C1082 C 0.51994 0.5178 0.03223 0.0
C1083 C 0.56017 0.46797 0.01501 0.0
H1084 H 0.5814 0.6491 0.00473 0.0
H1085 H 0.53806 0.69472 0.02899 0.0
H1086 H 0.53092 0.62508 0.04894 0.0
H1087 H 0.5198 0.66384 0.05114 0.0
H1088 H 0.54133 0.43235 0.03577 0.0
H1089 H 0.57744 0.38057 0.00687 0.0
H1090 H 0.58572 0.44879 0.98328 0.0
H1091 H 0.59436 0.40855 0.98115 0.0
Eu1092 Eu 0.83916 0.31195 0.26504 0.0
C1093 C 0.77592 0.23356 0.30995 0.0
C1094 C 0.77386 0.19374 0.28473 0.0
C1095 C 0.76406 0.19586 0.32501 0.0
C1096 C 0.77864 0.2198 0.28836 0.0
C1097 C 0.76824 0.22167 0.32836 0.0
C1098 C 0.76683 0.18193 0.30323 0.0
C1099 C 0.76711 0.26133 0.35123 0.0
N1100 N 0.77944 0.25836 0.31248 0.0
C1101 C 0.77434 0.27219 0.33234 0.0
C1102 C 0.76423 0.23597 0.34932 0.0
Eu1103 Eu 0.78968 0.27526 0.27919 0.0
N1104 N 0.78542 0.23173 0.27074 0.0
C1105 C 0.78729 0.21837 0.24887 0.0
C1106 C 0.77598 0.1802 0.26251 0.0
C1107 C 0.78268 0.19259 0.2445 0.0
H1108 H 0.7762 0.29176 0.33369 0.0
H1109 H 0.78439 0.1823 0.22723 0.0
H1110 H 0.7632 0.16198 0.30076 0.0
H1111 H 0.76358 0.27247 0.36715 0.0
H1112 H 0.79267 0.2271 0.23451 0.0
H1113 H 0.83392 0.40348 0.31139 0.0
H1114 H 0.77245 0.1602 0.25905 0.0
H1115 H 0.85718 0.29632 0.21264 0.0
H1116 H 0.83348 0.36028 0.30779 0.0
H1117 H 0.86639 0.31405 0.17741 0.0
H1118 H 0.75822 0.18643 0.33897 0.0
H1119 H 0.84052 0.42346 0.2771 0.0
H1120 H 0.8495 0.42061 0.2352 0.0
H1121 H 0.75834 0.22752 0.36386 0.0
H1122 H 0.85817 0.39638 0.19877 0.0
N1123 N 0.83926 0.35444 0.27115 0.0
C1124 C 0.83645 0.36818 0.2924 0.0
C1125 C 0.84026 0.40415 0.27524 0.0
C1126 C 0.84405 0.39044 0.25384 0.0
C1127 C 0.8366 0.39298 0.29464 0.0
C1128 C 0.84339 0.36528 0.25226 0.0
H1129 H 0.86444 0.35673 0.17706 0.0
N1130 N 0.84805 0.32765 0.23083 0.0
C1131 C 0.86096 0.32468 0.19238 0.0
C1132 C 0.84797 0.35153 0.23157 0.0
C1133 C 0.85541 0.31454 0.21213 0.0
C1134 C 0.85987 0.34878 0.19227 0.0
C1135 C 0.85372 0.36269 0.21217 0.0
O1136 O 0.87192 0.30571 0.26024 0.0
O1137 O 0.82639 0.27515 0.27688 0.0
O1138 O 0.81373 0.28582 0.31334 0.0
O1139 O 0.83627 0.32025 0.30363 0.0
O1140 O 0.84342 0.27393 0.24796 0.0
O1141 O 0.86921 0.33509 0.28889 0.0
O1142 O 0.75692 0.28072 0.28555 0.0
O1143 O 0.80243 0.31191 0.2678 0.0
O1144 O 0.81555 0.30294 0.23172 0.0
O1145 O 0.79283 0.26766 0.24001 0.0
O1146 O 0.78554 0.31299 0.29702 0.0
O1147 O 0.7605 0.25732 0.25236 0.0
C1148 C 0.83505 0.26063 0.26269 0.0
C1149 C 0.90444 0.33858 0.27416 0.0
C1150 C 0.94486 0.35104 0.28573 0.0
C1151 C 0.92308 0.33975 0.28994 0.0
C1152 C 0.94783 0.36194 0.26585 0.0
C1153 C 0.90748 0.34938 0.25426 0.0
C1154 C 0.92915 0.36113 0.25022 0.0
C1155 C 0.82954 0.30696 0.31924 0.0
C1156 C 0.88255 0.32371 0.27788 0.0
C1157 C 0.85386 0.38753 0.21352 0.0
C1158 C 0.84896 0.40134 0.23427 0.0
C1159 C 0.79363 0.32612 0.28209 0.0
C1160 C 0.72459 0.2504 0.26524 0.0
C1161 C 0.70716 0.25278 0.24993 0.0
C1162 C 0.68497 0.24016 0.25104 0.0
C1163 C 0.68023 0.22435 0.26707 0.0
C1164 C 0.71998 0.23452 0.2812 0.0
C1165 C 0.69778 0.22134 0.28192 0.0
C1166 C 0.79969 0.28212 0.22531 0.0
C1167 C 0.74691 0.26648 0.26523 0.0
H1168 H 0.92065 0.33111 0.30517 0.0
H1169 H 0.96456 0.37035 0.26202 0.0
H1170 H 0.8933 0.3484 0.24169 0.0
H1171 H 0.93151 0.36915 0.23467 0.0
H1172 H 0.71074 0.26547 0.23795 0.0
H1173 H 0.66302 0.21458 0.26819 0.0
H1174 H 0.7333 0.23272 0.29334 0.0
H1175 H 0.69414 0.20924 0.29435 0.0
Eu1176 Eu 0.05974 0.53184 0.53337 0.0
C1177 C 0.99963 0.55523 0.45682 0.0
C1178 C 0.98176 0.51404 0.43309 0.0
C1179 C 0.96168 0.54571 0.43604 0.0
C1180 C 1.00036 0.53111 0.44821 0.0
C1181 C 0.98045 0.56289 0.45028 0.0
C1182 C 0.96234 0.52135 0.42744 0.0
C1183 C 1.00081 0.60483 0.46937 0.0
N1184 N 0.01818 0.57167 0.47007 0.0
C1185 C 0.01948 0.59646 0.47493 0.0
C1186 C 0.98104 0.58789 0.45732 0.0
Eu1187 Eu 0.04963 0.55633 0.47824 0.0
N1188 N 0.01946 0.52457 0.45375 0.0
C1189 C 0.02098 0.50122 0.44443 0.0
C1190 C 0.9833 0.49018 0.42371 0.0
C1191 C 0.00302 0.48378 0.42939 0.0
H1192 H 0.03499 0.60989 0.48335 0.0
H1193 H 0.0044 0.46535 0.42221 0.0
H1194 H 0.94791 0.50843 0.41601 0.0
H1195 H 0.00183 0.62438 0.47402 0.0
H1196 H 0.03585 0.49554 0.44839 0.0
H1197 H 0.11427 0.62057 0.58771 0.0
H1198 H 0.96942 0.47661 0.41203 0.0
H1199 H 0.0678 0.47559 0.52694 0.0
H1200 H 0.08272 0.59453 0.55942 0.0
H1201 H 0.0953 0.45509 0.54116 0.0
H1202 H 0.94682 0.55127 0.43098 0.0
H1203 H 0.14243 0.60266 0.60483 0.0
H1204 H 0.15581 0.56544 0.60741 0.0
H1205 H 0.96668 0.59446 0.45264 0.0
H1206 H 0.15105 0.52073 0.59443 0.0
N1207 N 0.0912 0.56038 0.56018 0.0
C1208 C 0.0939 0.58547 0.56689 0.0
C1209 C 0.12813 0.59066 0.59251 0.0
C1210 C 0.12551 0.56522 0.58585 0.0
C1211 C 0.11227 0.60081 0.58293 0.0
C1212 C 0.10667 0.55036 0.56952 0.0
H1213 H 0.12886 0.47966 0.56949 0.0
N1214 N 0.08638 0.51168 0.54569 0.0
C1215 C 0.09811 0.47488 0.54705 0.0
C1216 C 0.10418 0.52529 0.562 0.0
C1217 C 0.08272 0.48661 0.53882 0.0
C1218 C 0.11697 0.48879 0.5631 0.0
C1219 C 0.1201 0.51425 0.57098 0.0
O1220 O 0.03944 0.50212 0.54752 0.0
O1221 O 0.03585 0.53555 0.5047 0.0
O1222 O 0.03802 0.57865 0.50785 0.0
O1223 O 0.04931 0.56723 0.54296 0.0
O1224 O 0.03026 0.50123 0.51185 0.0
O1225 O 0.04346 0.5405 0.56491 0.0
O1226 O 0.06358 0.58903 0.4644 0.0
O1227 O 0.0733 0.55334 0.50721 0.0
O1228 O 0.07148 0.50875 0.50326 0.0
O1229 O 0.06726 0.5261 0.46958 0.0
O1230 O 0.08178 0.58616 0.49613 0.0
O1231 O 0.05975 0.55142 0.44268 0.0
C1232 C 0.02166 0.51489 0.50048 0.0
C1233 C 0.0356 0.51077 0.58841 0.0
C1234 C 0.02115 0.51297 0.62626 0.0
C1235 C 0.02179 0.5193 0.60413 0.0
C1236 C 0.0343 0.49798 0.63286 0.0
C1237 C 0.04895 0.49587 0.59492 0.0
C1238 C 0.04818 0.48944 0.61716 0.0
C1239 C 0.04128 0.58154 0.5311 0.0
C1240 C 0.03491 0.51726 0.56521 0.0
C1241 C 0.13863 0.52888 0.58743 0.0
C1242 C 0.14133 0.55431 0.59484 0.0
C1243 C 0.08805 0.57351 0.51037 0.0
C1244 C 0.07484 0.58633 0.42511 0.0
C1245 C 0.08669 0.57378 0.40997 0.0
C1246 C 0.09632 0.58418 0.39191 0.0
C1247 C 0.09362 0.6071 0.38862 0.0
C1248 C 0.07238 0.60939 0.42217 0.0
C1249 C 0.08165 0.61966 0.40378 0.0
C1250 C 0.07325 0.50999 0.48072 0.0
C1251 C 0.06576 0.57542 0.44428 0.0
H1252 H 0.01153 0.53089 0.59916 0.0
H1253 H 0.03381 0.49298 0.65011 0.0
H1254 H 0.05975 0.48913 0.58288 0.0
H1255 H 0.05832 0.47785 0.62221 0.0
H1256 H 0.08883 0.55609 0.41249 0.0
H1257 H 0.10124 0.61553 0.37478 0.0
H1258 H 0.06327 0.61934 0.43398 0.0
H1259 H 0.07979 0.63745 0.40145 0.0
Eu1260 Eu 0.78336 0.79572 0.26624 0.0
C1261 C 0.85896 0.76646 0.31853 0.0
C1262 C 0.87443 0.80326 0.34982 0.0
C1263 C 0.87543 0.76301 0.35706 0.0
C1264 C 0.86332 0.79186 0.32657 0.0
C1265 C 0.8656 0.7519 0.33352 0.0
C1266 C 0.87987 0.78863 0.36518 0.0
C1267 C 0.855 0.71695 0.30005 0.0
N1268 N 0.84983 0.75623 0.29555 0.0
C1269 C 0.84877 0.7321 0.28588 0.0
C1270 C 0.86307 0.72678 0.3241 0.0
Eu1271 Eu 0.83901 0.78309 0.27298 0.0
N1272 N 0.85832 0.80562 0.31116 0.0
C1273 C 0.86563 0.83096 0.31737 0.0
C1274 C 0.8807 0.8291 0.35663 0.0
C1275 C 0.87673 0.843 0.34014 0.0
H1276 H 0.84233 0.72438 0.26727 0.0
H1277 H 0.882 0.86304 0.34503 0.0
H1278 H 0.88824 0.79707 0.38311 0.0
H1279 H 0.8535 0.69769 0.29243 0.0
H1280 H 0.86272 0.84232 0.30522 0.0
H1281 H 0.74331 0.71868 0.19037 0.0
H1282 H 0.88924 0.83851 0.3743 0.0
H1283 H 0.77839 0.85346 0.2758 0.0
H1284 H 0.76342 0.73786 0.23003 0.0
H1285 H 0.76624 0.88176 0.25323 0.0
H1286 H 0.88042 0.75207 0.36887 0.0
H1287 H 0.7319 0.74439 0.16438 0.0
H1288 H 0.731 0.78646 0.1584 0.0
H1289 H 0.86801 0.71503 0.33504 0.0
H1290 H 0.7377 0.83096 0.17525 0.0
N1291 N 0.76402 0.7749 0.22749 0.0
C1292 C 0.75853 0.74971 0.21947 0.0
C1293 C 0.74098 0.75314 0.18194 0.0
C1294 C 0.74603 0.77877 0.19032 0.0
C1295 C 0.7472 0.73856 0.19663 0.0
C1296 C 0.75743 0.7892 0.21358 0.0
H1297 H 0.75057 0.86659 0.21065 0.0
N1298 N 0.77091 0.82323 0.24591 0.0
C1299 C 0.76488 0.86286 0.24444 0.0
C1300 C 0.76118 0.81417 0.22302 0.0
C1301 C 0.77179 0.84686 0.25712 0.0
C1302 C 0.75609 0.85423 0.22041 0.0
C1303 C 0.75368 0.82948 0.20954 0.0
O1304 O 0.76573 0.80976 0.29511 0.0
O1305 O 0.81113 0.79287 0.29141 0.0
O1306 O 0.81358 0.74879 0.28061 0.0
O1307 O 0.77878 0.75495 0.26921 0.0
O1308 O 0.79986 0.82432 0.2995 0.0
O1309 O 0.74971 0.77466 0.27193 0.0
O1310 O 0.85542 0.77106 0.24229 0.0
O1311 O 0.81145 0.78607 0.24725 0.0
O1312 O 0.80838 0.83079 0.25998 0.0
O1313 O 0.84346 0.82335 0.26772 0.0
O1314 O 0.82238 0.75393 0.24058 0.0
O1315 O 0.87526 0.79911 0.27129 0.0
C1316 C 0.813 0.81228 0.30705 0.0
C1317 C 0.726 0.79688 0.29207 0.0
C1318 C 0.69107 0.79446 0.31052 0.0
C1319 C 0.71136 0.78753 0.30807 0.0
C1320 C 0.68595 0.81104 0.29723 0.0
C1321 C 0.72015 0.81313 0.27886 0.0
C1322 C 0.70037 0.82029 0.28159 0.0
C1323 C 0.7912 0.74077 0.27576 0.0
C1324 C 0.74795 0.79101 0.29028 0.0
C1325 C 0.74335 0.81944 0.18597 0.0
C1326 C 0.7395 0.79411 0.17639 0.0
C1327 C 0.8098 0.76616 0.23209 0.0
C1328 C 0.89434 0.77462 0.24606 0.0
C1329 C 0.91251 0.78617 0.23485 0.0
C1330 C 0.9293 0.77413 0.22824 0.0
C1331 C 0.92723 0.75032 0.23283 0.0
C1332 C 0.89322 0.75112 0.25059 0.0
C1333 C 0.9095 0.73911 0.24406 0.0
C1334 C 0.83082 0.83804 0.26283 0.0
C1335 C 0.87529 0.78562 0.2504 0.0
H1336 H 0.71568 0.77501 0.31846 0.0
H1337 H 0.67064 0.81683 0.29897 0.0
H1338 H 0.73097 0.82049 0.26656 0.0
H1339 H 0.69619 0.83309 0.2715 0.0
H1340 H 0.9134 0.80428 0.23114 0.0
H1341 H 0.93912 0.73999 0.22733 0.0
H1342 H 0.87935 0.74161 0.25846 0.0
H1343 H 0.90813 0.72075 0.24729 0.0
Eu1344 Eu 0.81856 0.28141 0.74763 0.0
C1345 C 0.79296 0.35859 0.82579 0.0
C1346 C 0.8294 0.38204 0.84737 0.0
C1347 C 0.79688 0.39798 0.85311 0.0
C1348 C 0.81552 0.36063 0.83168 0.0
C1349 C 0.78344 0.37743 0.83627 0.0
C1350 C 0.81985 0.40034 0.85857 0.0
C1351 C 0.74807 0.35449 0.8126 0.0
N1352 N 0.78051 0.33856 0.80926 0.0
C1353 C 0.75815 0.33623 0.80283 0.0
C1354 C 0.76071 0.37511 0.82951 0.0
Eu1355 Eu 0.7967 0.30461 0.80206 0.0
N1356 N 0.82416 0.34243 0.82079 0.0
C1357 C 0.84701 0.34639 0.82205 0.0
C1358 C 0.85258 0.38479 0.85073 0.0
C1359 C 0.86149 0.36734 0.83731 0.0
H1360 H 0.74741 0.31965 0.79119 0.0
H1361 H 0.87953 0.37 0.83869 0.0
H1362 H 0.83019 0.41671 0.871 0.0
H1363 H 0.73034 0.35226 0.80757 0.0
H1364 H 0.85433 0.33366 0.81122 0.0
H1365 H 0.73641 0.21866 0.70398 0.0
H1366 H 0.86382 0.40094 0.86266 0.0
H1367 H 0.86648 0.26418 0.75739 0.0
H1368 H 0.7608 0.25105 0.73613 0.0
H1369 H 0.88431 0.23355 0.73749 0.0
H1370 H 0.78977 0.41244 0.86157 0.0
H1371 H 0.7531 0.19239 0.67536 0.0
H1372 H 0.7874 0.17873 0.66447 0.0
H1373 H 0.75276 0.38908 0.83727 0.0
H1374 H 0.82737 0.18138 0.67502 0.0
N1375 N 0.79143 0.24496 0.72487 0.0
C1376 C 0.76851 0.24037 0.72349 0.0
C1377 C 0.76395 0.20684 0.68938 0.0
C1378 C 0.78713 0.20954 0.69285 0.0
C1379 C 0.75449 0.22163 0.70546 0.0
C1380 C 0.80041 0.22856 0.71144 0.0
H1381 H 0.86329 0.20093 0.70298 0.0
N1382 N 0.83439 0.24773 0.73632 0.0
C1383 C 0.86687 0.23212 0.73181 0.0
C1384 C 0.82267 0.22986 0.71752 0.0
C1385 C 0.85639 0.24916 0.74347 0.0
C1386 C 0.85502 0.21388 0.71223 0.0
C1387 C 0.83263 0.21258 0.70483 0.0
O1388 O 0.85362 0.30053 0.7464 0.0
O1389 O 0.82019 0.31424 0.77621 0.0
O1390 O 0.77314 0.30453 0.7685 0.0
O1391 O 0.78679 0.29011 0.73286 0.0
O1392 O 0.81687 0.3184 0.74097 0.0
O1393 O 0.83076 0.28299 0.71345 0.0
O1394 O 0.76273 0.28918 0.80981 0.0
O1395 O 0.79498 0.27256 0.77319 0.0
O1396 O 0.83958 0.27703 0.781 0.0
O1397 O 0.82875 0.29612 0.81651 0.0
O1398 O 0.79405 0.26552 0.80727 0.0
O1399 O 0.79004 0.3077 0.83887 0.0
C1400 C 0.81852 0.32922 0.76308 0.0
C1401 C 0.86215 0.31616 0.71204 0.0
C1402 C 0.86047 0.34368 0.68509 0.0
C1403 C 0.84957 0.32651 0.69772 0.0
C1404 C 0.88413 0.35117 0.68752 0.0
C1405 C 0.88573 0.32363 0.7143 0.0
C1406 C 0.89667 0.34123 0.70219 0.0
C1407 C 0.77167 0.29875 0.74472 0.0
C1408 C 0.85107 0.2961 0.7231 0.0
C1409 C 0.81994 0.19461 0.68522 0.0
C1410 C 0.79724 0.19322 0.6791 0.0
C1411 C 0.79405 0.25622 0.7851 0.0
C1412 C 0.75714 0.28102 0.84794 0.0
C1413 C 0.76881 0.26896 0.86125 0.0
C1414 C 0.7577 0.25542 0.8767 0.0
C1415 C 0.73495 0.2537 0.87884 0.0
C1416 C 0.73435 0.27931 0.85004 0.0
C1417 C 0.72329 0.26564 0.86546 0.0
C1418 C 0.8423 0.2847 0.8047 0.0
C1419 C 0.76852 0.2967 0.83283 0.0
H1420 H 0.83132 0.32059 0.69567 0.0
H1421 H 0.89288 0.36394 0.67737 0.0
H1422 H 0.89564 0.31545 0.72505 0.0
H1423 H 0.91487 0.34667 0.70365 0.0
H1424 H 0.78643 0.27021 0.85977 0.0
H1425 H 0.72631 0.2432 0.89088 0.0
H1426 H 0.72522 0.28879 0.83995 0.0
H1427 H 0.70576 0.26444 0.86716 0.0
Eu1428 Eu 0.82125 0.81398 0.77652 0.0
C1429 C 0.73004 0.74152 0.73686 0.0
C1430 C 0.71023 0.72869 0.76914 0.0
C1431 C 0.68899 0.731 0.73299 0.0
C1432 C 0.73062 0.73651 0.75953 0.0
C1433 C 0.70903 0.73724 0.72289 0.0
C1434 C 0.68961 0.72704 0.75619 0.0
C1435 C 0.72846 0.73967 0.68837 0.0
N1436 N 0.7496 0.74687 0.72718 0.0
C1437 C 0.7487 0.74371 0.70282 0.0
C1438 C 0.70856 0.73715 0.69856 0.0
Eu1439 Eu 0.78349 0.75036 0.752 0.0
N1440 N 0.75066 0.73639 0.77096 0.0
C1441 C 0.75061 0.72548 0.79031 0.0
C1442 C 0.7109 0.72095 0.79072 0.0
C1443 C 0.73112 0.71877 0.80104 0.0
H1444 H 0.76355 0.74366 0.69412 0.0
H1445 H 0.73159 0.71113 0.81685 0.0
H1446 H 0.67391 0.72113 0.76337 0.0
H1447 H 0.72819 0.73778 0.66927 0.0
H1448 H 0.76535 0.72113 0.79753 0.0
H1449 H 0.86677 0.82104 0.69812 0.0
H1450 H 0.69566 0.71499 0.79867 0.0
H1451 H 0.84338 0.82234 0.83456 0.0
H1452 H 0.83546 0.80319 0.71819 0.0
H1453 H 0.87982 0.83928 0.85897 0.0
H1454 H 0.67282 0.72789 0.72257 0.0
H1455 H 0.90286 0.84624 0.72162 0.0
H1456 H 0.92716 0.85994 0.76092 0.0
H1457 H 0.69278 0.7334 0.68722 0.0
H1458 H 0.93128 0.86225 0.80408 0.0
N1459 N 0.85218 0.81989 0.75349 0.0
C1460 C 0.85046 0.81489 0.72909 0.0
C1461 C 0.88893 0.83846 0.7307 0.0
C1462 C 0.89158 0.84079 0.75539 0.0
C1463 C 0.86856 0.82449 0.7174 0.0
C1464 C 0.87269 0.83105 0.76646 0.0
H1465 H 0.91401 0.85399 0.84047 0.0
N1466 N 0.85647 0.82334 0.80112 0.0
C1467 C 0.87884 0.83697 0.83978 0.0
C1468 C 0.875 0.83239 0.79083 0.0
C1469 C 0.85813 0.82659 0.82554 0.0
C1470 C 0.89803 0.84541 0.82931 0.0
C1471 C 0.89625 0.8436 0.80467 0.0
O1472 O 0.816 0.83718 0.80917 0.0
O1473 O 0.78735 0.78742 0.77433 0.0
O1474 O 0.78611 0.77562 0.72514 0.0
O1475 O 0.80799 0.81661 0.73999 0.0
O1476 O 0.78806 0.82274 0.76941 0.0
O1477 O 0.83329 0.854 0.78213 0.0
O1478 O 0.79042 0.7287 0.71921 0.0
O1479 O 0.81754 0.77641 0.75535 0.0
O1480 O 0.82152 0.79017 0.80412 0.0
O1481 O 0.79225 0.75384 0.79164 0.0
O1482 O 0.81637 0.74137 0.761 0.0
O1483 O 0.7728 0.71024 0.74501 0.0
C1484 C 0.77543 0.80125 0.77022 0.0
C1485 C 0.81839 0.87932 0.81033 0.0
C1486 C 0.79763 0.90783 0.80139 0.0
C1487 C 0.8042 0.88611 0.7944 0.0
C1488 C 0.8053 0.92269 0.82436 0.0
C1489 C 0.826 0.8942 0.83322 0.0
C1490 C 0.81945 0.91584 0.8402 0.0
C1491 C 0.79475 0.79873 0.72299 0.0
C1492 C 0.82658 0.85763 0.80324 0.0
C1493 C 0.91494 0.85345 0.79369 0.0
C1494 C 0.91256 0.85227 0.76916 0.0
C1495 C 0.82938 0.76281 0.76043 0.0
C1496 C 0.78784 0.6861 0.71588 0.0
C1497 C 0.80001 0.67713 0.73179 0.0
C1498 C 0.80522 0.65471 0.72421 0.0
C1499 C 0.79846 0.64141 0.70056 0.0
C1500 C 0.78131 0.67299 0.69219 0.0
C1501 C 0.78665 0.65069 0.68455 0.0
C1502 C 0.8081 0.76961 0.80782 0.0
C1503 C 0.77988 0.70773 0.72408 0.0
H1504 H 0.79849 0.87473 0.7766 0.0
H1505 H 0.80076 0.93986 0.82984 0.0
H1506 H 0.83726 0.88921 0.84556 0.0
H1507 H 0.82555 0.92745 0.85778 0.0
H1508 H 0.80482 0.68715 0.75019 0.0
H1509 H 0.80249 0.62405 0.69448 0.0
H1510 H 0.77166 0.67976 0.67977 0.0
H1511 H 0.78144 0.64047 0.66632 0.0
Eu1512 Eu 0.53529 0.52359 0.50575 0.0
C1513 C 0.61039 0.61613 0.56174 0.0
C1514 C 0.61934 0.64072 0.53197 0.0
C1515 C 0.62918 0.66025 0.57397 0.0
C1516 C 0.61001 0.61773 0.53806 0.0
C1517 C 0.62036 0.63732 0.57996 0.0
C1518 C 0.62862 0.66196 0.55003 0.0
C1519 C 0.61433 0.61126 0.6087 0.0
N1520 N 0.6024 0.59361 0.56699 0.0
C1521 C 0.60494 0.59078 0.59004 0.0
C1522 C 0.62195 0.63469 0.60365 0.0
Eu1523 Eu 0.58919 0.559 0.53465 0.0
N1524 N 0.60164 0.59669 0.52098 0.0
C1525 C 0.60286 0.59754 0.49745 0.0
C1526 C 0.61976 0.64161 0.50792 0.0
C1527 C 0.61158 0.61989 0.4906 0.0
H1528 H 0.59956 0.57258 0.59402 0.0
H1529 H 0.61198 0.62028 0.47191 0.0
H1530 H 0.63588 0.67969 0.54564 0.0
H1531 H 0.61596 0.60891 0.62691 0.0
H1532 H 0.59646 0.58134 0.48342 0.0
H1533 H 0.51419 0.46074 0.56748 0.0
H1534 H 0.62673 0.65889 0.50255 0.0
H1535 H 0.52367 0.51124 0.44658 0.0
H1536 H 0.52877 0.50018 0.55653 0.0
H1537 H 0.50671 0.47541 0.41329 0.0
H1538 H 0.6369 0.67669 0.58772 0.0
H1539 H 0.49924 0.42255 0.53636 0.0
H1540 H 0.48916 0.40256 0.49309 0.0
H1541 H 0.62956 0.65049 0.61811 0.0
H1542 H 0.48703 0.40647 0.45124 0.0
N1543 N 0.52291 0.48553 0.51882 0.0
C1544 C 0.52222 0.48419 0.54231 0.0
C1545 C 0.50575 0.44006 0.53124 0.0
C1546 C 0.50546 0.44149 0.50726 0.0
C1547 C 0.51406 0.46155 0.54883 0.0
C1548 C 0.51429 0.46476 0.50151 0.0
H1549 H 0.49342 0.43347 0.42139 0.0
N1550 N 0.52119 0.48957 0.47305 0.0
C1551 C 0.50865 0.47269 0.43135 0.0
C1552 C 0.51333 0.46687 0.47795 0.0
C1553 C 0.51834 0.49289 0.45021 0.0
C1554 C 0.50118 0.44907 0.436 0.0
C1555 C 0.50321 0.44594 0.45952 0.0
O1556 O 0.51079 0.53585 0.48582 0.0
O1557 O 0.55669 0.56278 0.5189 0.0
O1558 O 0.56533 0.5681 0.56254 0.0
O1559 O 0.53246 0.53766 0.54607 0.0
O1560 O 0.54344 0.55255 0.48331 0.0
O1561 O 0.50252 0.523 0.51816 0.0
O1562 O 0.61444 0.54908 0.55619 0.0
O1563 O 0.56779 0.51963 0.52194 0.0
O1564 O 0.55857 0.51462 0.47731 0.0
O1565 O 0.59199 0.54404 0.49424 0.0
O1566 O 0.58143 0.53062 0.55746 0.0
O1567 O 0.62169 0.55878 0.52232 0.0
C1568 C 0.55413 0.57105 0.50013 0.0
C1569 C 0.47252 0.5242 0.4905 0.0
C1570 C 0.43695 0.5342 0.49053 0.0
C1571 C 0.45849 0.53714 0.50159 0.0
C1572 C 0.42904 0.51771 0.46846 0.0
C1573 C 0.46466 0.50733 0.46859 0.0
C1574 C 0.44283 0.50403 0.45768 0.0
C1575 C 0.54451 0.55526 0.56438 0.0
C1576 C 0.49605 0.53208 0.50057 0.0
C1577 C 0.49484 0.42273 0.46515 0.0
C1578 C 0.49603 0.4205 0.48897 0.0
C1579 C 0.57062 0.51183 0.541 0.0
C1580 C 0.65243 0.56337 0.55125 0.0
C1581 C 0.66732 0.5491 0.54609 0.0
C1582 C 0.6901 0.55828 0.55515 0.0
C1583 C 0.69776 0.58186 0.57035 0.0
C1584 C 0.66004 0.58698 0.5662 0.0
C1585 C 0.68271 0.5961 0.57586 0.0
C1586 C 0.57961 0.52694 0.47564 0.0
C1587 C 0.62904 0.55216 0.54118 0.0
H1588 H 0.46474 0.55056 0.5183 0.0
H1589 H 0.41232 0.51547 0.4597 0.0
H1590 H 0.47548 0.49736 0.45967 0.0
H1591 H 0.43679 0.49129 0.44064 0.0
H1592 H 0.66104 0.5306 0.53496 0.0
H1593 H 0.71536 0.58942 0.57754 0.0
H1594 H 0.6486 0.5982 0.57048 0.0
H1595 H 0.68865 0.6143 0.58747 0.0
Eu1596 Eu 0.08574 0.54115 0.01245 0.0
C1597 C 0.00204 0.48857 0.04978 0.0
C1598 C 0.98383 0.45514 0.01599 0.0
C1599 C 0.9811 0.44853 0.05622 0.0
C1600 C 0.99717 0.4797 0.0252 0.0
C1601 C 0.99331 0.47324 0.06543 0.0
C1602 C 0.97633 0.43954 0.03158 0.0
C1603 C 0.00643 0.50865 0.09821 0.0
N1604 N 0.01369 0.51262 0.05841 0.0
C1605 C 0.01467 0.52314 0.08212 0.0
C1606 C 0.99613 0.48345 0.0899 0.0
Eu1607 Eu 0.02839 0.53505 0.02948 0.0
N1608 N 0.00405 0.49537 0.01039 0.0
C1609 C 0.9965 0.48799 0.98644 0.0
C1610 C 0.9776 0.44716 0.99139 0.0
C1611 C 0.98366 0.46377 0.97662 0.0
H1612 H 0.02279 0.54266 0.08879 0.0
H1613 H 0.97823 0.45802 0.95762 0.0
H1614 H 0.96607 0.42071 0.02477 0.0
H1615 H 0.00802 0.51695 0.11699 0.0
H1616 H 0.99998 0.50034 0.97439 0.0
H1617 H 0.13238 0.62098 0.08126 0.0
H1618 H 0.96733 0.42852 0.9837 0.0
H1619 H 0.08878 0.5295 0.9534 0.0
H1620 H 0.1077 0.57879 0.06544 0.0
H1621 H 0.10464 0.55215 0.92308 0.0
H1622 H 0.97452 0.43648 0.068 0.0
H1623 H 0.14787 0.64722 0.05353 0.0
H1624 H 0.15112 0.65213 0.01134 0.0
H1625 H 0.98962 0.47227 0.1024 0.0
H1626 H 0.1432 0.63362 0.96836 0.0
N1627 N 0.10905 0.58123 0.02912 0.0
C1628 C 0.11441 0.59003 0.05315 0.0
C1629 C 0.13692 0.62878 0.04648 0.0
C1630 C 0.13173 0.61942 0.02185 0.0
C1631 C 0.12836 0.61395 0.06219 0.0
C1632 C 0.11774 0.59512 0.01358 0.0
H1633 H 0.12615 0.59629 0.93533 0.0
N1634 N 0.1005 0.56089 0.98211 0.0
C1635 C 0.10704 0.56156 0.94163 0.0
C1636 C 0.1133 0.58468 0.98937 0.0
C1637 C 0.09811 0.54882 0.95875 0.0
C1638 C 0.11916 0.58649 0.94862 0.0
C1639 C 0.12275 0.59824 0.97278 0.0
O1640 O 0.09939 0.5103 0.99904 0.0
O1641 O 0.05346 0.51468 0.01705 0.0
O1642 O 0.04978 0.53058 0.06065 0.0
O1643 O 0.08591 0.53543 0.04938 0.0
O1644 O 0.06675 0.50603 0.98567 0.0
O1645 O 0.11898 0.53984 0.0275 0.0
O1646 O 0.0163 0.56246 0.05257 0.0
O1647 O 0.06384 0.56089 0.03368 0.0
O1648 O 0.06629 0.55389 0.98582 0.0
O1649 O 0.02956 0.53337 0.99045 0.0
O1650 O 0.03705 0.57399 0.02337 0.0
O1651 O 0.99535 0.5405 0.01954 0.0
C1652 C 0.05114 0.49808 0.99829 0.0
C1653 C 0.13844 0.51647 0.00261 0.0
C1654 C 0.17023 0.49867 0.00055 0.0
C1655 C 0.15137 0.50227 0.01134 0.0
C1656 C 0.17573 0.50884 0.98064 0.0
C1657 C 0.14429 0.52675 0.9829 0.0
C1658 C 0.16276 0.52275 0.97185 0.0
C1659 C 0.07092 0.53036 0.06393 0.0
C1660 C 0.11814 0.51891 0.0133 0.0
C1661 C 0.13596 0.62281 0.98086 0.0
C1662 C 0.14047 0.63336 0.00534 0.0
C1663 C 0.05842 0.57968 0.02881 0.0
C1664 C 0.97738 0.56167 0.04918 0.0
C1665 C 0.96259 0.57214 0.03749 0.0
C1666 C 0.94459 0.5784 0.04855 0.0
C1667 C 0.94169 0.57388 0.0715 0.0
C1668 C 0.9739 0.55715 0.07191 0.0
C1669 C 0.95611 0.56316 0.08293 0.0
C1670 C 0.04483 0.54437 0.97835 0.0
C1671 C 0.99756 0.55825 0.03838 0.0
H1672 H 0.14688 0.49421 0.02653 0.0
H1673 H 0.19004 0.50593 0.97187 0.0
H1674 H 0.13454 0.53765 0.97593 0.0
H1675 H 0.16704 0.53046 0.95646 0.0
H1676 H 0.96532 0.57566 0.01993 0.0
H1677 H 0.92851 0.57907 0.08093 0.0
H1678 H 0.98517 0.5496 0.08148 0.0
H1679 H 0.95374 0.55994 0.10063 0.0
C1680 C 0.04499 0.20575 0.97758 0.0
C1681 C 0.02201 0.20422 0.97258 0.0
C1682 C 0.05222 0.18645 0.98536 0.0
C1683 C 0.03623 0.16432 0.98723 0.0
C1684 C 0.01298 0.1628 0.98229 0.0
C1685 C 0.00624 0.18281 0.97557 0.0
C1686 C 0.07709 0.18964 0.99133 0.0
C1687 C 0.99513 0.13965 0.98341 0.0
C1688 C 0.05289 0.10306 0.97599 0.0
C1689 C 0.05461 0.0974 0.99868 0.0
C1690 C 0.04757 0.12481 0.97231 0.0
C1691 C 0.0437 0.14191 0.99177 0.0
C1692 C 0.04622 0.13685 0.01502 0.0
C1693 C 0.05166 0.11474 0.01821 0.0
C1694 C 0.04525 0.12896 0.94722 0.0
C1695 C 0.04273 0.15456 0.03647 0.0
H1696 H 0.0574 0.22227 0.97577 0.0
H1697 H 0.98845 0.18132 0.97185 0.0
H1698 H 0.08048 0.18469 0.00873 0.0
H1699 H 0.08287 0.17697 0.97763 0.0
H1700 H 0.08719 0.20892 0.99218 0.0
H1701 H 0.97783 0.14112 0.97883 0.0
H1702 H 0.99765 0.1235 0.97088 0.0
H1703 H 0.99657 0.13584 0.00157 0.0
H1704 H 0.0552 0.08994 0.96074 0.0
H1705 H 0.0528 0.11065 0.03583 0.0
H1706 H 0.05671 0.14703 0.94625 0.0
H1707 H 0.0278 0.12961 0.94205 0.0
H1708 H 0.04914 0.11419 0.93402 0.0
H1709 H 0.05422 0.17325 0.03773 0.0
H1710 H 0.04577 0.14846 0.05334 0.0
H1711 H 0.02528 0.15632 0.03451 0.0
C1712 C 0.1831 0.84316 0.16183 0.0
C1713 C 0.1646 0.82264 0.15238 0.0
C1714 C 0.20083 0.84155 0.17796 0.0
C1715 C 0.2008 0.81854 0.184 0.0
C1716 C 0.18206 0.79777 0.17449 0.0
C1717 C 0.16412 0.80017 0.15919 0.0
C1718 C 0.2198 0.86448 0.18829 0.0
C1719 C 0.18124 0.77272 0.17988 0.0
C1720 C 0.25765 0.80844 0.20583 0.0
C1721 C 0.25713 0.81108 0.23058 0.0
C1722 C 0.23961 0.81082 0.19057 0.0
C1723 C 0.22038 0.81619 0.20007 0.0
C1724 C 0.21993 0.8193 0.22502 0.0
C1725 C 0.2381 0.8167 0.23975 0.0
C1726 C 0.24097 0.80717 0.16414 0.0
C1727 C 0.20017 0.82537 0.2363 0.0
H1728 H 0.18376 0.86051 0.15648 0.0
H1729 H 0.15016 0.78408 0.15156 0.0
H1730 H 0.22239 0.86739 0.20802 0.0
H1731 H 0.23569 0.86209 0.18174 0.0
H1732 H 0.21654 0.88133 0.18347 0.0
H1733 H 0.16594 0.75822 0.17054 0.0
H1734 H 0.19632 0.767 0.17447 0.0
H1735 H 0.18156 0.77376 0.19935 0.0
H1736 H 0.27203 0.80406 0.19821 0.0
H1737 H 0.23708 0.81881 0.25855 0.0
H1738 H 0.23982 0.82411 0.15792 0.0
H1739 H 0.22653 0.79179 0.15436 0.0
H1740 H 0.25686 0.80291 0.15939 0.0
H1741 H 0.19803 0.84304 0.23246 0.0
H1742 H 0.20224 0.82711 0.25594 0.0
H1743 H 0.18444 0.81076 0.22853 0.0
C1744 C 0.54306 0.85465 0.46574 0.0
C1745 C 0.52472 0.83924 0.47345 0.0
C1746 C 0.54714 0.88076 0.47096 0.0
C1747 C 0.53226 0.89204 0.48373 0.0
C1748 C 0.51394 0.87662 0.49191 0.0
C1749 C 0.51056 0.85064 0.48692 0.0
C1750 C 0.56727 0.8963 0.46244 0.0
C1751 C 0.49727 0.88748 0.50508 0.0
C1752 C 0.551 0.96207 0.51115 0.0
C1753 C 0.54345 0.97215 0.49268 0.0
C1754 C 0.54747 0.93621 0.50863 0.0
C1755 C 0.53525 0.91972 0.48744 0.0
C1756 C 0.52659 0.92986 0.46928 0.0
C1757 C 0.53156 0.95583 0.47171 0.0
C1758 C 0.55795 0.9267 0.52813 0.0
C1759 C 0.51237 0.91325 0.44699 0.0
H1760 H 0.55415 0.84627 0.45535 0.0
H1761 H 0.49618 0.83915 0.49286 0.0
H1762 H 0.56157 0.90577 0.44899 0.0
H1763 H 0.57748 0.91091 0.47756 0.0
H1764 H 0.57817 0.88508 0.45433 0.0
H1765 H 0.48464 0.8733 0.51142 0.0
H1766 H 0.5061 0.90234 0.52065 0.0
H1767 H 0.48828 0.89606 0.49312 0.0
H1768 H 0.56093 0.9745 0.52706 0.0
H1769 H 0.52607 0.96343 0.45716 0.0
H1770 H 0.57114 0.91821 0.52127 0.0
H1771 H 0.54518 0.91207 0.53368 0.0
H1772 H 0.56574 0.94166 0.54405 0.0
H1773 H 0.52285 0.90353 0.43611 0.0
H1774 H 0.50471 0.92377 0.43592 0.0
H1775 H 0.49869 0.89889 0.45173 0.0
C1776 C 0.5343 0.29823 0.65711 0.0
C1777 C 0.5399 0.3196 0.64768 0.0
C1778 C 0.51555 0.29322 0.66967 0.0
C1779 C 0.50195 0.30991 0.67286 0.0
C1780 C 0.50736 0.33137 0.66314 0.0
C1781 C 0.52625 0.33597 0.65076 0.0
C1782 C 0.51043 0.27015 0.67976 0.0
C1783 C 0.49336 0.34966 0.66612 0.0
C1784 C 0.44379 0.28481 0.69104 0.0
C1785 C 0.44812 0.29249 0.71593 0.0
C1786 C 0.46094 0.29102 0.67662 0.0
C1787 C 0.4828 0.30543 0.6874 0.0
C1788 C 0.48676 0.31431 0.71246 0.0
C1789 C 0.46946 0.30754 0.72639 0.0
C1790 C 0.45596 0.2812 0.65 0.0
C1791 C 0.50961 0.33006 0.72472 0.0
H1792 H 0.54464 0.28541 0.65481 0.0
H1793 H 0.53031 0.3525 0.64348 0.0
H1794 H 0.51122 0.27529 0.69944 0.0
H1795 H 0.49308 0.2586 0.67269 0.0
H1796 H 0.52236 0.25881 0.67541 0.0
H1797 H 0.49901 0.36469 0.65635 0.0
H1798 H 0.4754 0.34003 0.65962 0.0
H1799 H 0.49438 0.35813 0.6853 0.0
H1800 H 0.42733 0.27297 0.68297 0.0
H1801 H 0.47278 0.31345 0.74565 0.0
H1802 H 0.4654 0.26734 0.64459 0.0
H1803 H 0.46167 0.29637 0.64045 0.0
H1804 H 0.43774 0.2723 0.64416 0.0
H1805 H 0.5219 0.31884 0.72308 0.0
H1806 H 0.50933 0.33744 0.74396 0.0
H1807 H 0.51573 0.34585 0.71606 0.0
C1808 C 0.00986 0.82719 0.61941 0.0
C1809 C 0.01241 0.8036 0.61063 0.0
C1810 C 0.01705 0.84633 0.60728 0.0
C1811 C 0.02752 0.84167 0.58646 0.0
C1812 C 0.0307 0.81802 0.57806 0.0
C1813 C 0.02283 0.79917 0.59011 0.0
C1814 C 0.01296 0.87122 0.61632 0.0
C1815 C 0.04222 0.81251 0.55618 0.0
C1816 C 0.02847 0.87659 0.53707 0.0
C1817 C 0.05105 0.89021 0.54054 0.0
C1818 C 0.02009 0.86177 0.55291 0.0
C1819 C 0.03469 0.86101 0.57271 0.0
C1820 C 0.05718 0.87606 0.57705 0.0
C1821 C 0.06519 0.89045 0.56071 0.0
C1822 C 0.99605 0.84583 0.54766 0.0
C1823 C 0.07307 0.87595 0.59821 0.0
H1824 H 0.00168 0.83041 0.63528 0.0
H1825 H 0.02504 0.78093 0.58359 0.0
H1826 H 0.02891 0.88614 0.61885 0.0
H1827 H 1.00119 0.87498 0.6029 0.0
H1828 H 0.00568 0.87216 0.63344 0.0
H1829 H 0.04389 0.79328 0.55247 0.0
H1830 H 0.03256 0.81521 0.54036 0.0
H1831 H 0.05928 0.82554 0.55852 0.0
H1832 H 0.0176 0.87702 0.52159 0.0
H1833 H 0.08251 0.90168 0.56351 0.0
H1834 H 0.98755 0.84726 0.56398 0.0
H1835 H 0.99591 0.82614 0.54166 0.0
H1836 H 0.98617 0.85102 0.5335 0.0
H1837 H 0.06501 0.87813 0.61478 0.0
H1838 H 0.08902 0.89093 0.60064 0.0
H1839 H 0.07719 0.85788 0.59566 0.0
C1840 C 0.55115 0.81524 0.83315 0.0
C1841 C 0.55797 0.82308 0.85759 0.0
C1842 C 0.53274 0.82153 0.82293 0.0
C1843 C 0.52166 0.83642 0.83761 0.0
C1844 C 0.52922 0.8451 0.86221 0.0
C1845 C 0.54722 0.83805 0.87195 0.0
C1846 C 0.52486 0.81194 0.79659 0.0
C1847 C 0.51804 0.8611 0.87851 0.0
C1848 C 0.48514 0.86607 0.80421 0.0
C1849 C 0.46424 0.84836 0.80112 0.0
C1850 C 0.50395 0.86301 0.81707 0.0
C1851 C 0.50159 0.84196 0.8272 0.0
C1852 C 0.48029 0.82504 0.82576 0.0
C1853 C 0.46191 0.8282 0.81236 0.0
C1854 C 0.52649 0.88173 0.81906 0.0
C1855 C 0.47712 0.80295 0.83734 0.0
H1856 H 0.5599 0.80395 0.82225 0.0
H1857 H 0.55309 0.84442 0.89089 0.0
H1858 H 0.50751 0.79949 0.79398 0.0
H1859 H 0.52428 0.82756 0.78787 0.0
H1860 H 0.53593 0.80153 0.78754 0.0
H1861 H 0.52957 0.87169 0.89492 0.0
H1862 H 0.51225 0.87436 0.86949 0.0
H1863 H 0.5031 0.84906 0.88398 0.0
H1864 H 0.48691 0.88201 0.79613 0.0
H1865 H 0.44595 0.8142 0.80991 0.0
H1866 H 0.53807 0.87292 0.80901 0.0
H1867 H 0.53425 0.88805 0.83796 0.0
H1868 H 0.52512 0.89814 0.81195 0.0
H1869 H 0.4855 0.78957 0.82791 0.0
H1870 H 0.45905 0.7933 0.83694 0.0
H1871 H 0.48505 0.80878 0.85618 0.0
C1872 C 0.47319 0.17409 0.08912 0.0
C1873 C 0.48789 0.19048 0.10814 0.0
C1874 C 0.48173 0.15947 0.07175 0.0
C1875 C 0.50502 0.16105 0.07462 0.0
C1876 C 0.51988 0.17842 0.0934 0.0
C1877 C 0.51106 0.19309 0.10983 0.0
C1878 C 0.46583 0.14139 0.05135 0.0
C1879 C 0.54473 0.17995 0.09759 0.0
C1880 C 0.52823 0.10688 0.06253 0.0
C1881 C 0.54066 0.11239 0.04408 0.0
C1882 C 0.51442 0.12138 0.07108 0.0
C1883 C 0.5137 0.14204 0.06111 0.0
C1884 C 0.52578 0.14722 0.04197 0.0
C1885 C 0.53925 0.13214 0.03358 0.0
C1886 C 0.50164 0.11537 0.09157 0.0
C1887 C 0.52528 0.16924 0.03118 0.0
H1888 H 0.45528 0.17242 0.0881 0.0
H1889 H 0.52222 0.20575 0.12494 0.0
H1890 H 0.47389 0.13976 0.03473 0.0
H1891 H 0.46115 0.12279 0.05569 0.0
H1892 H 0.45014 0.14701 0.04804 0.0
H1893 H 0.55402 0.19583 0.11214 0.0
H1894 H 0.54682 0.16269 0.10251 0.0
H1895 H 0.55268 0.18179 0.08114 0.0
H1896 H 0.52876 0.09076 0.06975 0.0
H1897 H 0.54866 0.1357 0.01886 0.0
H1898 H 0.4838 0.1153 0.08774 0.0
H1899 H 0.50908 0.12979 0.10795 0.0
H1900 H 0.50209 0.09707 0.09525 0.0
H1901 H 0.5078 0.17075 0.02833 0.0
H1902 H 0.53234 0.16807 0.01392 0.0
H1903 H 0.53537 0.18647 0.04363 0.0
C1904 C 0.16744 0.34536 0.31196 0.0
C1905 C 0.17064 0.34719 0.3366 0.0
C1906 C 0.18378 0.33967 0.29792 0.0
C1907 C 0.20344 0.33609 0.30912 0.0
C1908 C 0.20778 0.34091 0.33428 0.0
C1909 C 0.19111 0.34615 0.34775 0.0
C1910 C 0.17921 0.33533 0.27116 0.0
C1911 C 0.22912 0.33834 0.34689 0.0
C1912 C 0.23033 0.28611 0.28761 0.0
C1913 C 0.25118 0.29979 0.28346 0.0
C1914 C 0.21321 0.29736 0.29282 0.0
C1915 C 0.21767 0.32327 0.29516 0.0
C1916 C 0.23805 0.33693 0.28912 0.0
C1917 C 0.25435 0.32474 0.28251 0.0
C1918 C 0.19153 0.28196 0.29889 0.0
C1919 C 0.24348 0.36462 0.2916 0.0
H1920 H 0.15155 0.3464 0.30354 0.0
H1921 H 0.19358 0.34812 0.36695 0.0
H1922 H 0.19443 0.34447 0.2638 0.0
H1923 H 0.17508 0.31517 0.26339 0.0
H1924 H 0.16494 0.34236 0.26545 0.0
H1925 H 0.23097 0.3456 0.36645 0.0
H1926 H 0.22895 0.31851 0.34369 0.0
H1927 H 0.2441 0.34838 0.33978 0.0
H1928 H 0.22754 0.26714 0.28857 0.0
H1929 H 0.27031 0.3352 0.27856 0.0
H1930 H 0.17682 0.28733 0.29163 0.0
H1931 H 0.19196 0.28513 0.31857 0.0
H1932 H 0.18905 0.26183 0.29184 0.0
H1933 H 0.23499 0.36868 0.27577 0.0
H1934 H 0.26188 0.37301 0.29297 0.0
H1935 H 0.23741 0.37373 0.30762 0.0
C1936 C 0.97902 0.07821 0.1854 0.0
C1937 C 0.98867 0.06961 0.20408 0.0
C1938 C 0.98797 0.07808 0.16288 0.0
C1939 C 0.00719 0.06902 0.15807 0.0
C1940 C 0.01722 0.06104 0.17712 0.0
C1941 C 0.00809 0.06147 0.19927 0.0
C1942 C 0.97652 0.08739 0.14395 0.0
C1943 C 0.03758 0.0513 0.17397 0.0
C1944 C 0.01695 0.04217 0.09259 0.0
C1945 C 0.03568 0.05991 0.08778 0.0
C1946 C 0.00769 0.04499 0.11477 0.0
C1947 C 0.01636 0.06666 0.13327 0.0
C1948 C 0.03485 0.08506 0.12827 0.0
C1949 C 0.04434 0.08135 0.10619 0.0
C1950 C 0.98875 0.02416 0.11862 0.0
C1951 C 0.04456 0.10906 0.14626 0.0
H1952 H 0.96412 0.08455 0.1881 0.0
H1953 H 0.01629 0.05486 0.21299 0.0
H1954 H 0.98916 0.1004 0.13638 0.0
H1955 H 0.96773 0.07159 0.12917 0.0
H1956 H 0.96399 0.0969 0.15099 0.0
H1957 H 0.04363 0.04569 0.19017 0.0
H1958 H 0.03348 0.03507 0.15879 0.0
H1959 H 0.05153 0.06565 0.16966 0.0
H1960 H 0.00967 0.02545 0.07909 0.0
H1961 H 0.05853 0.09559 0.10326 0.0
H1962 H 0.97376 0.03094 0.12214 0.0
H1963 H 0.99381 0.01749 0.13454 0.0
H1964 H 0.98392 0.00828 0.10303 0.0
H1965 H 0.03137 0.11899 0.14911 0.0
H1966 H 0.05916 0.12134 0.14042 0.0
H1967 H 0.04998 0.1054 0.1637 0.0
C1968 C 0.29329 0.66339 0.44856 0.0
C1969 C 0.27803 0.66039 0.4652 0.0
C1970 C 0.28959 0.67564 0.43041 0.0
C1971 C 0.27084 0.68557 0.43003 0.0
C1972 C 0.25423 0.68008 0.44521 0.0
C1973 C 0.25772 0.66672 0.46212 0.0
C1974 C 0.30676 0.67991 0.41327 0.0
C1975 C 0.23421 0.69088 0.44576 0.0
C1976 C 0.27315 0.74863 0.42033 0.0
C1977 C 0.25747 0.74259 0.40004 0.0
C1978 C 0.27958 0.72996 0.42914 0.0
C1979 C 0.26997 0.70497 0.41711 0.0
C1980 C 0.25515 0.69898 0.39578 0.0
C1981 C 0.24878 0.71797 0.38762 0.0
C1982 C 0.29565 0.73688 0.45195 0.0
C1983 C 0.24525 0.67252 0.38227 0.0
H1984 H 0.30866 0.65773 0.45063 0.0
H1985 H 0.24541 0.66334 0.47441 0.0
H1986 H 0.29897 0.68133 0.39578 0.0
H1987 H 0.31992 0.69747 0.42082 0.0
H1988 H 0.31514 0.66471 0.41042 0.0
H1989 H 0.22251 0.68386 0.45819 0.0
H1990 H 0.24018 0.71136 0.45156 0.0
H1991 H 0.22461 0.68654 0.42775 0.0
H1992 H 0.28065 0.76792 0.42892 0.0
H1993 H 0.23751 0.71376 0.37113 0.0
H1994 H 0.30905 0.72717 0.45002 0.0
H1995 H 0.28636 0.73106 0.4666 0.0
H1996 H 0.30373 0.75714 0.4572 0.0
H1997 H 0.25788 0.66176 0.38255 0.0
H1998 H 0.23896 0.67157 0.36344 0.0
H1999 H 0.23089 0.66348 0.39087 0.0
C2000 C 0.64259 0.01266 0.67035 0.0
C2001 C 0.64678 0.03677 0.68416 0.0
C2002 C 0.63241 0.00678 0.64697 0.0
C2003 C 0.6261 0.02538 0.63755 0.0
C2004 C 0.63146 0.0501 0.65068 0.0
C2005 C 0.64169 0.05553 0.67414 0.0
C2006 C 0.62742 0.98048 0.63278 0.0
C2007 C 0.62562 0.07049 0.64028 0.0
C2008 C 0.60656 0.01862 0.57365 0.0
C2009 C 0.58376 0.01689 0.57495 0.0
C2010 C 0.62075 0.01975 0.59376 0.0
C2011 C 0.61139 0.01841 0.61518 0.0
C2012 C 0.58784 0.01307 0.61574 0.0
C2013 C 0.57407 0.01222 0.59523 0.0
C2014 C 0.6458 0.02549 0.59248 0.0
C2015 C 0.5775 0.011 0.63849 0.0
H2016 H 0.64704 0.9982 0.67783 0.0
H2017 H 0.64562 0.07432 0.68457 0.0
H2018 H 0.60907 0.97154 0.63101 0.0
H2019 H 0.6321 0.98017 0.61451 0.0
H2020 H 0.63651 0.96927 0.64143 0.0
H2021 H 0.63395 0.08916 0.6515 0.0
H2022 H 0.63062 0.06987 0.62209 0.0
H2023 H 0.60713 0.0678 0.63873 0.0
H2024 H 0.61374 0.02151 0.55754 0.0
H2025 H 0.5563 0.01029 0.59583 0.0
H2026 H 0.65443 0.0173 0.6051 0.0
H2027 H 0.65314 0.04588 0.59719 0.0
H2028 H 0.6494 0.0187 0.57415 0.0
H2029 H 0.58456 0.99887 0.64802 0.0
H2030 H 0.55889 1.00353 0.63508 0.0
H2031 H 0.58158 0.02962 0.65046 0.0
C2032 C 0.3217 0.31423 0.95045 0.0
C2033 C 0.31179 0.3323 0.96158 0.0
C2034 C 0.32097 0.30818 0.92554 0.0
C2035 C 0.30963 0.32004 0.91118 0.0
C2036 C 0.29816 0.33696 0.92212 0.0
C2037 C 0.29955 0.34307 0.94719 0.0
C2038 C 0.33375 0.29039 0.91475 0.0
C2039 C 0.2852 0.3494 0.9074 0.0
C2040 C 0.32964 0.3318 0.85244 0.0
C2041 C 0.31611 0.31126 0.83588 0.0
C2042 C 0.32868 0.33393 0.87701 0.0
C2043 C 0.31179 0.31667 0.88512 0.0
C2044 C 0.29711 0.29653 0.8683 0.0
C2045 C 0.29998 0.29359 0.84396 0.0
C2046 C 0.34549 0.35499 0.89422 0.0
C2047 C 0.27773 0.27883 0.87584 0.0
H2048 H 0.33114 0.30566 0.96128 0.0
H2049 H 0.29169 0.35691 0.9555 0.0
H2050 H 0.32282 0.27574 0.90017 0.0
H2051 H 0.34811 0.30052 0.90681 0.0
H2052 H 0.34039 0.2814 0.92813 0.0
H2053 H 0.27502 0.35966 0.91823 0.0
H2054 H 0.29705 0.36266 0.89933 0.0
H2055 H 0.27384 0.33545 0.89255 0.0
H2056 H 0.34061 0.34661 0.84617 0.0
H2057 H 0.28851 0.27846 0.83102 0.0
H2058 H 0.35359 0.34779 0.90816 0.0
H2059 H 0.3368 0.36819 0.90334 0.0
H2060 H 0.35887 0.36525 0.88515 0.0
H2061 H 0.28418 0.26828 0.88774 0.0
H2062 H 0.2667 0.26548 0.86035 0.0
H2063 H 0.2674 0.28933 0.88611 0.0
C2064 C 0.00967 0.08379 0.35311 0.0
C2065 C 0.98697 0.07264 0.343 0.0
C2066 C 0.01874 0.08069 0.37568 0.0
C2067 C 0.00548 0.06475 0.38878 0.0
C2068 C 0.98258 0.05327 0.37856 0.0
C2069 C 0.97374 0.05744 0.35635 0.0
C2070 C 0.04294 0.09425 0.3851 0.0
C2071 C 0.96749 0.03546 0.39063 0.0
C2072 C 0.03617 0.03942 0.43761 0.0
C2073 C 0.03094 0.05142 0.45947 0.0
C2074 C 0.02777 0.04296 0.41484 0.0
C2075 C 0.0151 0.06055 0.41314 0.0
C2076 C 0.01157 0.07422 0.43523 0.0
C2077 C 0.01866 0.06901 0.45745 0.0
C2078 C 0.03201 0.02725 0.39243 0.0
C2079 C 1.00044 0.09491 0.43554 0.0
H2080 H 0.0207 0.09474 0.343 0.0
H2081 H 0.9566 0.04754 0.34871 0.0
H2082 H 0.04511 0.10089 0.40476 0.0
H2083 H 0.05367 0.0815 0.38091 0.0
H2084 H 0.04911 0.11035 0.37681 0.0
H2085 H 0.95053 0.02702 0.38027 0.0
H2086 H 0.97532 0.02046 0.39308 0.0
H2087 H 0.96549 0.04516 0.4086 0.0
H2088 H 0.04639 0.02675 0.43805 0.0
H2089 H 0.01463 0.07928 0.47359 0.0
H2090 H 0.04233 0.03918 0.38195 0.0
H2091 H 0.01577 0.01731 0.38113 0.0
H2092 H 0.04086 0.01346 0.39626 0.0
H2093 H 0.00906 0.10787 0.42482 0.0
H2094 H 1.00081 0.10555 0.4539 0.0
H2095 H 0.98266 0.08729 0.42731 0.0
C2096 C 0.2703 0.6865 0.60141 0.0
C2097 C 0.28499 0.69354 0.58511 0.0
C2098 C 0.27601 0.69755 0.62546 0.0
C2099 C 0.29634 0.71647 0.63255 0.0
C2100 C 0.31202 0.72204 0.61643 0.0
C2101 C 0.30619 0.71009 0.59262 0.0
C2102 C 0.25972 0.6902 0.64284 0.0
C2103 C 0.33404 0.7419 0.62396 0.0
C2104 C 0.29215 0.76931 0.67969 0.0
C2105 C 0.30371 0.76477 0.69919 0.0
C2106 C 0.28981 0.75354 0.6575 0.0
C2107 C 0.29939 0.73327 0.65547 0.0
C2108 C 0.31167 0.72918 0.67513 0.0
C2109 C 0.31375 0.74522 0.6969 0.0
C2110 C 0.27637 0.75793 0.63653 0.0
C2111 C 0.32133 0.70718 0.6737 0.0
H2112 H 0.25439 0.67251 0.59531 0.0
H2113 H 0.31767 0.71445 0.57971 0.0
H2114 H 0.26879 0.69011 0.66016 0.0
H2115 H 0.24971 0.70383 0.64627 0.0
H2116 H 0.24786 0.67159 0.63572 0.0
H2117 H 0.34533 0.74187 0.60981 0.0
H2118 H 0.33061 0.76031 0.6281 0.0
H2119 H 0.34297 0.73944 0.64038 0.0
H2120 H 0.28423 0.78437 0.68202 0.0
H2121 H 0.32234 0.74164 0.71231 0.0
H2122 H 0.26072 0.74256 0.63094 0.0
H2123 H 0.28614 0.7582 0.62112 0.0
H2124 H 0.27162 0.77562 0.64083 0.0
H2125 H 0.30758 0.69045 0.67387 0.0
H2126 H 0.3343 0.70985 0.6891 0.0
H2127 H 0.3289 0.70349 0.65698 0.0
C2128 C 0.65928 0.04289 0.79344 0.0
C2129 C 0.68202 0.04589 0.80071 0.0
C2130 C 0.64468 0.04623 0.81013 0.0
C2131 C 0.65306 0.05183 0.83461 0.0
C2132 C 0.67575 0.0533 0.8421 0.0
C2133 C 0.6903 0.05087 0.82483 0.0
C2134 C 0.62064 0.04508 0.80149 0.0
C2135 C 0.68468 0.05807 0.86815 0.0
C2136 C 0.6161 0.08505 0.86759 0.0
C2137 C 0.59969 0.06489 0.87149 0.0
C2138 C 0.63527 0.08142 0.85771 0.0
C2139 C 0.63775 0.05709 0.85181 0.0
C2140 C 0.62191 0.03698 0.8572 0.0
C2141 C 0.60276 0.04106 0.86652 0.0
C2142 C 0.65197 0.10326 0.85208 0.0
C2143 C 0.62427 0.01089 0.85156 0.0
H2144 H 0.65324 0.03949 0.77459 0.0
H2145 H 0.70808 0.05343 0.83007 0.0
H2146 H 0.60872 0.03056 0.80811 0.0
H2147 H 0.61709 0.06302 0.80855 0.0
H2148 H 0.61715 0.04099 0.78172 0.0
H2149 H 0.70233 0.05696 0.87078 0.0
H2150 H 0.68398 0.0767 0.87737 0.0
H2151 H 0.67399 0.04439 0.87683 0.0
H2152 H 0.614 0.10357 0.87239 0.0
H2153 H 0.59015 0.02558 0.87011 0.0
H2154 H 0.64968 0.10234 0.83259 0.0
H2155 H 0.6695 0.10281 0.85704 0.0
H2156 H 0.64973 0.1212 0.86147 0.0
H2157 H 0.61757 1.0023 0.83261 0.0
H2158 H 0.61464 0.99925 0.86281 0.0
H2159 H 0.64217 0.01071 0.85418 0.0
C2160 C 0.32588 0.35261 0.1143 0.0
C2161 C 0.31022 0.34523 0.09373 0.0
C2162 C 0.32019 0.34546 0.13556 0.0
C2163 C 0.29845 0.32997 0.13603 0.0
C2164 C 0.28233 0.32303 0.11541 0.0
C2165 C 0.28835 0.331 0.09448 0.0
C2166 C 0.33778 0.35361 0.15721 0.0
C2167 C 0.25909 0.30635 0.1152 0.0
C2168 C 0.29663 0.28832 0.18039 0.0
C2169 C 0.28988 0.30191 0.2001 0.0
C2170 C 0.29889 0.29696 0.15921 0.0
C2171 C 0.29355 0.31932 0.15742 0.0
C2172 C 0.28548 0.33236 0.17685 0.0
C2173 C 0.28417 0.32374 0.19817 0.0
C2174 C 0.30811 0.28279 0.1392 0.0
C2175 C 0.2791 0.35594 0.17554 0.0
H2176 H 0.34275 0.36374 0.11362 0.0
H2177 H 0.27633 0.32523 0.07845 0.0
H2178 H 0.33093 0.36221 0.1729 0.0
H2179 H 0.34247 0.33725 0.16154 0.0
H2180 H 0.35325 0.36711 0.15441 0.0
H2181 H 0.248 0.30412 0.0984 0.0
H2182 H 0.26035 0.28779 0.11724 0.0
H2183 H 0.2511 0.31387 0.13049 0.0
H2184 H 0.30133 0.27157 0.18195 0.0
H2185 H 0.27886 0.33417 0.21341 0.0
H2186 H 0.32471 0.29427 0.13649 0.0
H2187 H 0.29675 0.27874 0.12227 0.0
H2188 H 0.31028 0.26506 0.1429 0.0
H2189 H 0.29458 0.37121 0.17671 0.0
H2190 H 0.26948 0.3613 0.19027 0.0
H2191 H 0.26884 0.3539 0.15827 0.0
C2192 C 0.25904 0.96058 0.99383 0.0
C2193 C 0.27285 0.95643 0.01208 0.0
C2194 C 0.24459 0.97562 0.99914 0.0
C2195 C 0.24462 0.98712 0.02317 0.0
C2196 C 0.25853 0.98289 0.04165 0.0
C2197 C 0.2723 0.96726 0.03588 0.0
C2198 C 0.22962 0.9795 0.97911 0.0
C2199 C 0.25927 0.99534 0.06743 0.0
C2200 C 0.22585 0.04539 0.03925 0.0
C2201 C 0.20466 0.03597 0.04594 0.0
C2202 C 0.23876 0.02947 0.03075 0.0
C2203 C 0.23021 1.00373 0.02926 0.0
C2204 C 0.20864 0.99408 0.03561 0.0
C2205 C 0.1961 0.01038 0.04395 0.0
C2206 C 0.26173 0.04026 0.024 0.0
C2207 C 0.19908 0.96667 0.03421 0.0
H2208 H 0.25965 0.9522 0.97543 0.0
H2209 H 0.28336 0.96437 0.04994 0.0
H2210 H 0.21177 0.97407 0.98237 0.0
H2211 H 0.23391 0.9994 0.97843 0.0
H2212 H 0.23125 0.96862 0.96148 0.0
H2213 H 0.27148 0.99051 0.07954 0.0
H2214 H 0.264 0.01576 0.06942 0.0
H2215 H 0.24234 0.98988 0.07322 0.0
H2216 H 0.23221 0.06515 0.04047 0.0
H2217 H 0.17967 1.00316 0.04922 0.0
H2218 H 0.26372 0.03003 0.00624 0.0
H2219 H 0.27489 0.03832 0.0371 0.0
H2220 H 0.26474 0.06019 0.02359 0.0
H2221 H 0.20012 0.95591 0.01634 0.0
H2222 H 0.18126 0.962 0.03776 0.0
H2223 H 0.20917 0.9606 0.04747 0.0
C2224 C 0.71011 0.65842 0.98506 0.0
C2225 C 0.7308 0.65338 0.99043 0.0
C2226 C 0.68953 0.64064 0.98395 0.0
C2227 C 0.6894 0.61699 0.9882 0.0
C2228 C 0.71018 0.61115 0.99202 0.0
C2229 C 0.73066 0.62943 0.99315 0.0
C2230 C 0.6679 0.64782 0.97981 0.0
C2231 C 0.7108 0.58605 0.99627 0.0
C2232 C 0.63934 0.59038 0.01863 0.0
C2233 C 0.62452 0.5733 -0.00015 0.0
C2234 C 0.66086 0.60354 0.01523 0.0
C2235 C 0.66779 0.60018 0.99222 0.0
C2236 C 0.65315 0.58256 0.97315 0.0
C2237 C 0.63177 0.56909 0.97726 0.0
C2238 C 0.67591 0.62176 0.03624 0.0
C2239 C 0.65963 0.57873 0.94824 0.0
H2240 H 0.70988 0.67672 0.98262 0.0
H2241 H 0.74649 0.62522 0.99709 0.0
H2242 H 0.65566 0.63322 0.96622 0.0
H2243 H 0.66014 0.64971 0.99662 0.0
H2244 H 0.67069 0.66565 0.97388 0.0
H2245 H 0.72797 0.58336 0.99617 0.0
H2246 H 0.70511 0.58398 0.0138 0.0
H2247 H 0.69908 0.57117 0.98245 0.0
H2248 H 0.63416 0.59368 0.03618 0.0
H2249 H 0.62045 0.55595 0.96261 0.0
H2250 H 0.6783 0.64089 0.03343 0.0
H2251 H 0.69277 0.61832 0.03788 0.0
H2252 H 0.66883 0.62066 0.05332 0.0
H2253 H 0.65925 0.59518 0.94074 0.0
H2254 H 0.648 0.56211 0.93621 0.0
H2255 H 0.67705 0.57682 0.94847 0.0
C2256 C 0.71294 0.4219 0.25901 0.0
C2257 C 0.72423 0.44703 0.26959 0.0
C2258 C 0.72371 0.40192 0.25846 0.0
C2259 C 0.74673 0.40625 0.26853 0.0
C2260 C 0.7582 0.43158 0.27841 0.0
C2261 C 0.74713 0.45095 0.2789 0.0
C2262 C 0.71015 0.37582 0.24736 0.0
C2263 C 0.78255 0.43838 0.28904 0.0
C2264 C 0.76959 0.35633 0.29437 0.0
C2265 C 0.78256 0.34702 0.27737 0.0
C2266 C 0.75778 0.37444 0.29134 0.0
C2267 C 0.75844 0.38489 0.27066 0.0
C2268 C 0.77165 0.37576 0.2533 0.0
C2269 C 0.7831 0.35712 0.25665 0.0
C2270 C 0.74443 0.38253 0.31073 0.0
C2271 C 0.77354 0.38547 0.23076 0.0
H2272 H 0.69543 0.41759 0.25166 0.0
H2273 H 0.75679 0.46971 0.28705 0.0
H2274 H 0.71943 0.36698 0.2341 0.0
H2275 H 0.70769 0.36473 0.26132 0.0
H2276 H 0.69339 0.37511 0.23844 0.0
H2277 H 0.78988 0.45873 0.29482 0.0
H2278 H 0.78406 0.42988 0.30469 0.0
H2279 H 0.79269 0.43093 0.27585 0.0
H2280 H 0.76845 0.34919 0.31053 0.0
H2281 H 0.79245 0.35046 0.24286 0.0
H2282 H 0.72668 0.37946 0.30315 0.0
H2283 H 0.75135 0.40266 0.31831 0.0
H2284 H 0.74468 0.37242 0.32541 0.0
H2285 H 0.75722 0.37796 0.21906 0.0
H2286 H 0.78688 0.38002 0.22084 0.0
H2287 H 0.77723 0.40596 0.2348 0.0
C2288 C 0.89635 0.50542 0.53291 0.0
C2289 C 0.89333 0.48454 0.54309 0.0
C2290 C 0.91686 0.51515 0.5248 0.0
C2291 C 0.93401 0.50298 0.52613 0.0
C2292 C 0.93158 0.48305 0.53789 0.0
C2293 C 0.91151 0.47458 0.54688 0.0
C2294 C 0.91995 0.5377 0.51403 0.0
C2295 C 0.94987 0.46998 0.5402 0.0
C2296 C 0.98012 0.49956 0.48831 0.0
C2297 C 0.99855 0.51501 0.504 0.0
C2298 C 0.95823 0.49841 0.49377 0.0
C2299 C 0.95519 0.51126 0.51637 0.0
C2300 C 0.9738 0.52737 0.53197 0.0
C2301 C 0.99516 0.52948 0.52521 0.0
C2302 C 0.93853 0.48176 0.47636 0.0
C2303 C 0.97159 0.54097 0.55658 0.0
H2304 H 0.88236 0.51325 0.53018 0.0
H2305 H 0.90946 0.45856 0.55491 0.0
H2306 H 0.93512 0.55227 0.52353 0.0
H2307 H 0.92276 0.53289 0.4951 0.0
H2308 H 0.90517 0.54543 0.51494 0.0
H2309 H 0.94508 0.45458 0.5497 0.0
H2310 H 0.95363 0.46225 0.52224 0.0
H2311 H 0.9656 0.48334 0.55002 0.0
H2312 H 0.98277 0.48783 0.47232 0.0
H2313 H 0.00938 0.54108 0.53754 0.0
H2314 H 0.92434 0.49038 0.47591 0.0
H2315 H 0.93256 0.46399 0.48211 0.0
H2316 H 0.94322 0.47771 0.45805 0.0
H2317 H 0.96772 0.55862 0.55513 0.0
H2318 H 0.98742 0.54537 0.56889 0.0
H2319 H 0.95796 0.53022 0.56494 0.0
C2320 C 0.38316 0.09347 0.27553 0.0
C2321 C 0.3807 0.08637 0.29742 0.0
C2322 C 0.36817 0.10461 0.26597 0.0
C2323 C 0.35054 0.10909 0.27888 0.0
C2324 C 0.3482 0.10257 0.30124 0.0
C2325 C 0.36337 0.09105 0.31028 0.0
C2326 C 0.37104 0.1112 0.24188 0.0
C2327 C 0.32956 0.10741 0.31532 0.0
C2328 C 0.32942 0.15723 0.25626 0.0
C2329 C 0.31238 0.14221 0.23837 0.0
C2330 C 0.34075 0.14668 0.27147 0.0
C2331 C 0.33474 0.12064 0.26848 0.0
C2332 C 0.31636 0.10557 0.25172 0.0
C2333 C 0.30537 0.11663 0.23671 0.0
C2334 C 0.36051 0.16313 0.28905 0.0
C2335 C 0.30972 0.07767 0.24806 0.0
H2336 H 0.39654 0.0898 0.26546 0.0
H2337 H 0.36154 0.08551 0.32719 0.0
H2338 H 0.35567 0.10146 0.22911 0.0
H2339 H 0.37345 0.13138 0.24346 0.0
H2340 H 0.38566 0.10619 0.23423 0.0
H2341 H 0.33095 0.10249 0.33304 0.0
H2342 H 0.32981 0.12723 0.31795 0.0
H2343 H 0.31302 0.09643 0.30522 0.0
H2344 H 0.33473 0.17708 0.25747 0.0
H2345 H 0.2918 0.10522 0.22314 0.0
H2346 H 0.37643 0.16141 0.28207 0.0
H2347 H 0.36046 0.15736 0.30641 0.0
H2348 H 0.3605 0.18292 0.29208 0.0
H2349 H 0.32202 0.07021 0.23798 0.0
H2350 H 0.29271 0.06921 0.23782 0.0
H2351 H 0.30997 0.07186 0.26539 0.0
C2352 C 0.36376 0.16162 0.52385 0.0
C2353 C 0.35188 0.15645 0.50092 0.0
C2354 C 0.38021 0.14958 0.5289 0.0
C2355 C 0.38481 0.13175 0.51066 0.0
C2356 C 0.37333 0.12692 0.48733 0.0
C2357 C 0.35707 0.13938 0.48273 0.0
C2358 C 0.39221 0.15542 0.55397 0.0
C2359 C 0.37766 0.10798 0.46742 0.0
C2360 C 0.43762 0.11057 0.52269 0.0
C2361 C 0.42879 0.08891 0.53097 0.0
C2362 C 0.4235 0.12442 0.51538 0.0
C2363 C 0.40004 0.11657 0.51658 0.0
C2364 C 0.39102 0.09439 0.52426 0.0
C2365 C 0.40542 0.08078 0.53111 0.0
C2366 C 0.43374 0.14779 0.50698 0.0
C2367 C 0.36614 0.08531 0.52585 0.0
H2368 H 0.36008 0.17496 0.53798 0.0
H2369 H 0.34807 0.13529 0.46494 0.0
H2370 H 0.38778 0.13876 0.56179 0.0
H2371 H 0.4107 0.1605 0.55373 0.0
H2372 H 0.38776 0.17083 0.56575 0.0
H2373 H 0.3689 0.10795 0.44986 0.0
H2374 H 0.39598 0.11156 0.46622 0.0
H2375 H 0.37178 0.08922 0.47123 0.0
H2376 H 0.45564 0.11714 0.52261 0.0
H2377 H 0.39831 0.06377 0.53686 0.0
H2378 H 0.43171 0.16407 0.51969 0.0
H2379 H 0.42487 0.14739 0.48939 0.0
H2380 H 0.45195 0.15041 0.50543 0.0
H2381 H 0.36092 0.09916 0.53886 0.0
H2382 H 0.3617 0.06731 0.5315 0.0
H2383 H 0.35627 0.08314 0.50833 0.0
C2384 C 0.73131 0.59091 0.25908 0.0
C2385 C 0.71726 0.58623 0.27682 0.0
C2386 C 0.7443 0.61541 0.25882 0.0
C2387 C 0.7437 0.63608 0.27686 0.0
C2388 C 0.73015 0.63118 0.29521 0.0
C2389 C 0.71711 0.60674 0.29478 0.0
C2390 C 0.75793 0.61934 0.23854 0.0
C2391 C 0.72864 0.65198 0.31498 0.0
C2392 C 0.78977 0.69908 0.28738 0.0
C2393 C 0.77911 0.71405 0.27646 0.0
C2394 C 0.77873 0.67398 0.28746 0.0
C2395 C 0.75624 0.66283 0.27616 0.0
C2396 C 0.74536 0.67787 0.26516 0.0
C2397 C 0.75668 0.703 0.26566 0.0
C2398 C 0.79115 0.65942 0.30003 0.0
C2399 C 0.72158 0.66736 0.25269 0.0
H2400 H 0.73117 0.57566 0.2446 0.0
H2401 H 0.70608 0.60376 0.30836 0.0
H2402 H 0.75145 0.63129 0.22825 0.0
H2403 H 0.77574 0.62913 0.24561 0.0
H2404 H 0.75733 0.60163 0.22622 0.0
H2405 H 0.71939 0.64506 0.32924 0.0
H2406 H 0.74574 0.66353 0.32306 0.0
H2407 H 0.71981 0.66416 0.3076 0.0
H2408 H 0.80674 0.70711 0.29632 0.0
H2409 H 0.74781 0.71395 0.25729 0.0
H2410 H 0.79193 0.64248 0.28741 0.0
H2411 H 0.7819 0.65338 0.31462 0.0
H2412 H 0.80857 0.67036 0.3077 0.0
H2413 H 0.72061 0.65078 0.23861 0.0
H2414 H 0.71554 0.68099 0.24438 0.0
H2415 H 0.71001 0.6613 0.26555 0.0
C2416 C 0.87213 0.46764 0.76364 0.0
C2417 C 0.8894 0.47759 0.78253 0.0
C2418 C 0.85633 0.44519 0.76333 0.0
C2419 C 0.85829 0.43302 0.78237 0.0
C2420 C 0.87445 0.44446 0.80252 0.0
C2421 C 0.89006 0.46661 0.80222 0.0
C2422 C 0.83913 0.43329 0.74162 0.0
C2423 C 0.8765 0.43227 0.82337 0.0
C2424 C 0.81587 0.37168 0.77841 0.0
C2425 C 0.82854 0.35557 0.77011 0.0
C2426 C 0.82572 0.39724 0.78401 0.0
C2427 C 0.84776 0.40637 0.77856 0.0
C2428 C 0.86011 0.38992 0.76884 0.0
C2429 C 0.8505 0.3646 0.76544 0.0
C2430 C 0.81275 0.41429 0.7958 0.0
C2431 C 0.88328 0.39895 0.7616 0.0
H2432 H 0.87173 0.47664 0.74868 0.0
H2433 H 0.90349 0.47474 0.81689 0.0
H2434 H 0.8443 0.41787 0.73074 0.0
H2435 H 0.8224 0.42531 0.74686 0.0
H2436 H 0.83747 0.44669 0.73035 0.0
H2437 H 0.8885 0.44482 0.83863 0.0
H2438 H 0.85978 0.42638 0.82944 0.0
H2439 H 0.8824 0.41548 0.81782 0.0
H2440 H 0.79835 0.36437 0.78024 0.0
H2441 H 0.85985 0.35177 0.75824 0.0
H2442 H 0.81297 0.42956 0.78637 0.0
H2443 H 0.82094 0.42289 0.8143 0.0
H2444 H 0.79499 0.40431 0.79652 0.0
H2445 H 0.883 0.41189 0.74949 0.0
H2446 H 0.88953 0.3835 0.75236 0.0
H2447 H 0.89544 0.40917 0.7776 0.0
C2448 C 0.08375 0.88681 0.08112 0.0
C2449 C 0.09876 0.87505 0.06969 0.0
C2450 C 0.0786 0.90759 0.07418 0.0
C2451 C 0.0885 0.91713 0.05515 0.0
C2452 C 0.10326 0.90499 0.04322 0.0
C2453 C 0.1082 0.88437 0.05059 0.0
C2454 C 0.06285 0.91972 0.0876 0.0
C2455 C 0.11458 0.91433 0.0231 0.0
C2456 C 0.0652 0.9636 0.0263 0.0
C2457 C 0.0774 0.98659 0.04066 0.0
C2458 C 0.06804 0.94088 0.03107 0.0
C2459 C 0.08502 0.94096 0.04923 0.0
C2460 C 0.09887 0.9642 0.06207 0.0
C2461 C 0.09448 0.98634 0.05819 0.0
C2462 C 0.0523 0.9168 0.01724 0.0
C2463 C 0.11831 0.96584 0.08033 0.0
H2464 H 0.0763 0.88007 0.09589 0.0
H2465 H 0.11977 0.87565 0.04143 0.0
H2466 H 0.07213 0.93877 0.0972 0.0
H2467 H 0.04915 0.92133 0.07493 0.0
H2468 H 0.05525 0.90928 0.10078 0.0
H2469 H 0.12383 0.90162 0.01408 0.0
H2470 H 0.10199 0.91672 0.00964 0.0
H2471 H 0.12668 0.93277 0.03018 0.0
H2472 H 0.05302 0.96317 0.01177 0.0
H2473 H 0.10479 1.00372 0.06909 0.0
H2474 H 0.04222 0.90732 0.02964 0.0
H2475 H 0.06199 0.90427 0.00892 0.0
H2476 H 0.04057 0.91961 0.00312 0.0
H2477 H 0.11178 0.95887 0.09589 0.0
H2478 H 0.1291 0.98512 0.08671 0.0
H2479 H 0.12894 0.95407 0.07269 0.0
C2480 C 0.95592 0.263 0.87029 0.0
C2481 C 0.95184 0.25841 0.89299 0.0
C2482 C 0.93884 0.26646 0.85438 0.0
C2483 C 0.91702 0.26563 0.8612 0.0
C2484 C 0.91278 0.26062 0.88389 0.0
C2485 C 0.92998 0.25703 0.89925 0.0
C2486 C 0.94436 0.27174 0.83048 0.0
C2487 C 0.89003 0.25951 0.89225 0.0
C2488 C 0.87708 0.29911 0.83543 0.0
C2489 C 0.86167 0.27992 0.81873 0.0
C2490 C 0.89574 0.29499 0.84822 0.0
C2491 C 0.89875 0.27078 0.84531 0.0
C2492 C 0.88312 0.25131 0.82851 0.0
C2493 C 0.86522 0.25621 0.81512 0.0
C2494 C 0.9122 0.31664 0.86509 0.0
C2495 C 0.88493 0.22506 0.82507 0.0
H2496 H 0.9726 0.26433 0.86509 0.0
H2497 H 0.9263 0.25366 0.91664 0.0
H2498 H 0.93147 0.25925 0.81601 0.0
H2499 H 0.94413 0.291 0.83 0.0
H2500 H 0.96117 0.26947 0.82676 0.0
H2501 H 0.889 0.25449 0.90995 0.0
H2502 H 0.88645 0.27777 0.89352 0.0
H2503 H 0.87663 0.24575 0.87914 0.0
H2504 H 0.87482 0.31757 0.83827 0.0
H2505 H 0.85354 0.24123 0.8023 0.0
H2506 H 0.92965 0.31743 0.8612 0.0
H2507 H 0.91132 0.31422 0.8837 0.0
H2508 H 0.9088 0.33459 0.86383 0.0
H2509 H 0.90156 0.22415 0.81959 0.0
H2510 H 0.87152 0.21197 0.81143 0.0
H2511 H 0.88372 0.21886 0.8422 0.0
C2512 C 0.60893 0.22728 0.55282 0.0
C2513 C 0.59337 0.2388 0.56337 0.0
C2514 C 0.60505 0.20124 0.54774 0.0
C2515 C 0.58478 0.1859 0.55269 0.0
C2516 C 0.5685 0.19736 0.56224 0.0
C2517 C 0.57312 0.22352 0.56782 0.0
C2518 C 0.62329 0.19027 0.53836 0.0
C2519 C 0.54631 0.18195 0.56708 0.0
C2520 C 0.5683 0.11582 0.52512 0.0
C2521 C 0.57242 0.10576 0.54491 0.0
C2522 C 0.5721 0.1417 0.52727 0.0
C2523 C 0.58128 0.15818 0.54955 0.0
C2524 C 0.58659 0.14802 0.56923 0.0
C2525 C 0.58141 0.12207 0.56687 0.0
C2526 C 0.56525 0.15126 0.50596 0.0
C2527 C 0.59752 0.16458 0.59298 0.0
H2528 H 0.62477 0.2387 0.54952 0.0
H2529 H 0.5609 0.23203 0.5759 0.0
H2530 H 0.63038 0.18228 0.55228 0.0
H2531 H 0.61632 0.17501 0.52254 0.0
H2532 H 0.63719 0.20427 0.53343 0.0
H2533 H 0.53438 0.19323 0.5717 0.0
H2534 H 0.53839 0.16697 0.55124 0.0
H2535 H 0.54916 0.17299 0.5821 0.0
H2536 H 0.56095 0.10336 0.50822 0.0
H2537 H 0.5845 0.11445 0.58229 0.0
H2538 H 0.57983 0.16487 0.50169 0.0
H2539 H 0.55216 0.16103 0.51018 0.0
H2540 H 0.55848 0.13615 0.4899 0.0
H2541 H 0.61274 0.17863 0.59053 0.0
H2542 H 0.60248 0.154 0.60583 0.0
H2543 H 0.58575 0.17468 0.60085 0.0
C2544 C 0.58826 0.76069 0.38991 0.0
C2545 C 0.57754 0.77936 0.38792 0.0
C2546 C 0.60791 0.75958 0.37908 0.0
C2547 C 0.61698 0.77737 0.36564 0.0
C2548 C 0.60597 0.79596 0.36335 0.0
C2549 C 0.58664 0.79685 0.37461 0.0
C2550 C 0.61921 0.73973 0.38252 0.0
C2551 C 0.61461 0.81504 0.34887 0.0
C2552 C 0.67735 0.79581 0.35072 0.0
C2553 C 0.67449 0.78479 0.32636 0.0
C2554 C 0.6592 0.79184 0.3644 0.0
C2555 C 0.63762 0.7767 0.35341 0.0
C2556 C 0.63528 0.76397 0.32931 0.0
C2557 C 0.65365 0.76831 0.31609 0.0
C2558 C 0.66272 0.80531 0.39015 0.0
C2559 C 0.61288 0.74727 0.31686 0.0
H2560 H 0.58157 0.74723 0.40037 0.0
H2561 H 0.57854 0.81129 0.37284 0.0
H2562 H 0.62341 0.73063 0.36531 0.0
H2563 H 0.63525 0.74832 0.39454 0.0
H2564 H 0.60852 0.72536 0.3905 0.0
H2565 H 0.60396 0.82801 0.34843 0.0
H2566 H 0.63203 0.82594 0.35642 0.0
H2567 H 0.61518 0.80568 0.33027 0.0
H2568 H 0.69334 0.80879 0.35869 0.0
H2569 H 0.65133 0.75993 0.29722 0.0
H2570 H 0.65495 0.79258 0.40146 0.0
H2571 H 0.65437 0.82051 0.39194 0.0
H2572 H 0.68086 0.81339 0.397 0.0
H2573 H 0.6052 0.73432 0.328 0.0
H2574 H 0.61444 0.73632 0.29924 0.0
H2575 H 0.60118 0.75867 0.31408 0.0
C2576 C 0.09755 0.25368 0.41685 0.0
C2577 C 0.1191 0.2698 0.42406 0.0
C2578 C 0.08906 0.23543 0.4294 0.0
C2579 C 0.10298 0.23279 0.4488 0.0
C2580 C 0.12571 0.2471 0.45418 0.0
C2581 C 0.1334 0.26598 0.44199 0.0
C2582 C 0.06447 0.22122 0.42377 0.0
C2583 C 0.14122 0.24403 0.47419 0.0
C2584 C 0.07449 0.21338 0.5006 0.0
C2585 C 0.07202 0.18782 0.49542 0.0
C2586 C 0.08446 0.22823 0.48544 0.0
C2587 C 0.09295 0.21735 0.46515 0.0
C2588 C 0.09099 0.19173 0.46001 0.0
C2589 C 0.07999 0.17714 0.47484 0.0
C2590 C 0.08556 0.25548 0.49097 0.0
C2591 C 0.1003 0.17972 0.43875 0.0
H2592 H 0.08637 0.25742 0.40343 0.0
H2593 H 0.14985 0.27902 0.44781 0.0
H2594 H 0.06236 0.20112 0.42226 0.0
H2595 H 0.05525 0.22743 0.43854 0.0
H2596 H 0.05651 0.22406 0.40696 0.0
H2597 H 0.15902 0.2542 0.4739 0.0
H2598 H 0.13605 0.25116 0.49159 0.0
H2599 H 0.1401 0.22412 0.47299 0.0
H2600 H 0.0687 0.22186 0.51654 0.0
H2601 H 0.07754 0.15729 0.4701 0.0
H2602 H 0.07699 0.26027 0.47562 0.0
H2603 H 0.10335 0.26677 0.49387 0.0
H2604 H 0.07754 0.26079 0.50708 0.0
H2605 H 0.09018 0.17972 0.42204 0.0
H2606 H 0.10009 0.16028 0.43909 0.0
H2607 H 0.11786 0.19038 0.43815 0.0
C2608 C 0.56933 0.2243 0.18941 0.0
C2609 C 0.56249 0.2446 0.18434 0.0
C2610 C 0.59193 0.22619 0.1958 0.0
C2611 C 0.60813 0.24898 0.19714 0.0
C2612 C 0.6017 0.2689 0.19006 0.0
C2613 C 0.57877 0.26655 0.18385 0.0
C2614 C 0.59823 0.20428 0.20273 0.0
C2615 C 0.6189 0.29292 0.19011 0.0
C2616 C 0.6512 0.25545 0.2484 0.0
C2617 C 0.6668 0.24528 0.23681 0.0
C2618 C 0.63316 0.25957 0.23531 0.0
C2619 C 0.63058 0.25276 0.21009 0.0
C2620 C 0.6474 0.24443 0.19829 0.0
C2621 C 0.66549 0.24081 0.21191 0.0
C2622 C 0.61587 0.26919 0.24854 0.0
C2623 C 0.64553 0.23745 0.17145 0.0
H2624 H 0.55693 0.20701 0.18915 0.0
H2625 H 0.57361 0.28204 0.1792 0.0
H2626 H 0.61201 0.19999 0.19291 0.0
H2627 H 0.60442 0.20881 0.22207 0.0
H2628 H 0.58378 0.1874 0.19901 0.0
H2629 H 0.61159 0.30537 0.18125 0.0
H2630 H 0.62578 0.30271 0.20873 0.0
H2631 H 0.63323 0.28921 0.18092 0.0
H2632 H 0.65288 0.25969 0.26773 0.0
H2633 H 0.67806 0.23351 0.20311 0.0
H2634 H 0.60018 0.25398 0.24661 0.0
H2635 H 0.61159 0.28415 0.24093 0.0
H2636 H 0.62185 0.27649 0.26785 0.0
H2637 H 0.63673 0.21746 0.16535 0.0
H2638 H 0.66246 0.24054 0.16538 0.0
H2639 H 0.63584 0.24807 0.16276 0.0
C2640 C 0.62249 0.90133 0.95296 0.0
C2641 C 0.63222 0.90116 0.93178 0.0
C2642 C 0.61735 0.92249 0.96452 0.0
C2643 C 0.62388 0.94426 0.95558 0.0
C2644 C 0.63723 0.94524 0.93668 0.0
C2645 C 0.64073 0.92319 0.92432 0.0
C2646 C 0.60235 0.92051 0.9841 0.0
C2647 C 0.6457 0.96891 0.92813 0.0
C2648 C 0.58177 0.98155 0.96077 0.0
C2649 C 0.59051 0.99809 0.98249 0.0
C2650 C 0.59309 0.96445 0.95122 0.0
C2651 C 0.6137 0.96439 0.96369 0.0
C2652 C 0.62287 0.98149 0.98532 0.0
C2653 C 0.61121 0.99835 0.99437 0.0
C2654 C 0.5823 0.94556 0.92859 0.0
C2655 C 0.64471 0.98185 -0.00081 0.0
H2656 H 0.61591 0.88396 0.9584 0.0
H2657 H 0.64818 0.92279 0.90782 0.0
H2658 H 0.60927 0.93593 -0.0002 0.0
H2659 H 0.58547 0.92184 0.9775 0.0
H2660 H 0.60018 0.90271 0.99 0.0
H2661 H 0.65913 0.96772 0.91651 0.0
H2662 H 0.63162 0.97276 0.9178 0.0
H2663 H 0.65236 0.98478 0.94354 0.0
H2664 H 0.56575 0.98144 0.95165 0.0
H2665 H 0.61839 0.01174 0.01084 0.0
H2666 H 0.57864 0.92663 0.93223 0.0
H2667 H 0.59398 0.9464 0.91487 0.0
H2668 H 0.56633 0.94844 0.9211 0.0
H2669 H 0.64678 0.96298 0.99827 0.0
H2670 H 0.64584 0.99078 0.01828 0.0
H2671 H 0.659 0.9924 0.99152 0.0
C2672 C 0.93604 0.73495 0.71799 0.0
C2673 C 0.95089 0.75273 0.70879 0.0
C2674 C 0.91707 0.73995 0.72715 0.0
C2675 C 0.91327 0.76338 0.72737 0.0
C2676 C 0.92857 0.78156 0.71867 0.0
C2677 C 0.94731 0.77602 0.7095 0.0
C2678 C 0.90062 0.7198 0.7356 0.0
C2679 C 0.92484 0.80647 0.7183 0.0
C2680 C 0.85214 0.75906 0.72803 0.0
C2681 C 0.85124 0.76506 0.75251 0.0
C2682 C 0.87267 0.76044 0.71928 0.0
C2683 C 0.89256 0.76794 0.73563 0.0
C2684 C 0.89177 0.77543 0.76037 0.0
C2685 C 0.87084 0.77338 0.76867 0.0
C2686 C 0.87274 0.75207 0.69277 0.0
C2687 C 0.91289 0.78428 0.77804 0.0
H2688 H 0.93867 0.71675 0.71709 0.0
H2689 H 0.95885 0.78971 0.7023 0.0
H2690 H 0.89827 0.72645 0.75439 0.0
H2691 H 0.88393 0.71501 0.72471 0.0
H2692 H 0.90627 0.70267 0.73438 0.0
H2693 H 0.93835 0.81847 0.71075 0.0
H2694 H 0.90855 0.80402 0.7075 0.0
H2695 H 0.92418 0.81591 0.73675 0.0
H2696 H 0.83665 0.75286 0.71576 0.0
H2697 H 0.86976 0.77814 0.78762 0.0
H2698 H 0.87467 0.73296 0.689 0.0
H2699 H 0.88702 0.7641 0.68633 0.0
H2700 H 0.85682 0.75195 0.68242 0.0
H2701 H 0.91963 0.76834 0.77976 0.0
H2702 H 0.90971 0.79299 0.79595 0.0
H2703 H 0.92604 0.79788 0.77168 0.0
C2704 C 0.11766 0.9953 0.8378 0.0
C2705 C 0.13905 0.01021 0.83526 0.0
C2706 C 0.10857 0.99665 0.86018 0.0
C2707 C 0.12048 0.01397 0.8813 0.0
C2708 C 0.14211 0.029 0.8788 0.0
C2709 C 0.15091 0.02699 0.85629 0.0
C2710 C 0.08568 0.97984 0.86097 0.0
C2711 C 0.1558 0.04812 0.89993 0.0
C2712 C 0.08722 0.03619 0.93339 0.0
C2713 C 0.09168 0.02363 0.95137 0.0
C2714 C 0.09627 0.0333 0.91106 0.0
C2715 C 0.11022 0.017 0.9055 0.0
C2716 C 0.11448 1.00397 0.92353 0.0
C2717 C 0.1055 0.00755 0.94591 0.0
C2718 C 0.09098 0.04806 0.89335 0.0
C2719 C 0.12849 0.98587 0.91907 0.0
H2720 H 0.10756 0.98291 0.82195 0.0
H2721 H 0.16692 0.03952 0.85495 0.0
H2722 H 0.0861 0.97064 0.87628 0.0
H2723 H 0.07336 0.99095 0.86358 0.0
H2724 H 0.07961 0.96541 0.8443 0.0
H2725 H 0.17228 0.05832 0.89561 0.0
H2726 H 0.14627 0.06164 0.90628 0.0
H2727 H 0.15885 0.0391 0.91485 0.0
H2728 H 0.0767 0.04872 0.93693 0.0
H2729 H 0.10924 0.99749 0.95919 0.0
H2730 H 0.08178 0.03533 0.87659 0.0
H2731 H 0.10685 0.05941 0.88883 0.0
H2732 H 0.08062 0.06051 0.90023 0.0
H2733 H 0.12051 0.97116 0.90306 0.0
H2734 H 0.13047 0.97707 0.93444 0.0
H2735 H 0.14542 0.99542 0.91535 0.0
C2736 C 0.81006 0.38279 0.57118 0.0
C2737 C 0.82731 0.38039 0.55725 0.0
C2738 C 0.81034 0.37661 0.59355 0.0
C2739 C 0.82843 0.36823 0.60193 0.0
C2740 C 0.84528 0.36461 0.58737 0.0
C2741 C 0.84425 0.37031 0.56494 0.0
C2742 C 0.79208 0.38035 0.6087 0.0
C2743 C 0.86522 0.35628 0.59604 0.0
C2744 C 0.85275 0.37609 0.66503 0.0
C2745 C 0.84734 0.35134 0.66705 0.0
C2746 C 0.8444 0.38259 0.64468 0.0
C2747 C 0.83052 0.36372 0.62615 0.0
C2748 C 0.82294 0.33922 0.62934 0.0
C2749 C 0.83152 0.33325 0.64989 0.0
C2750 C 0.85273 0.40904 0.64197 0.0
C2751 C 0.80813 0.31875 0.60982 0.0
H2752 H 0.79704 0.39071 0.56513 0.0
H2753 H 0.85781 0.3688 0.55431 0.0
H2754 H 0.78393 0.36282 0.61396 0.0
H2755 H 0.79954 0.39434 0.62535 0.0
H2756 H 0.77898 0.38661 0.59928 0.0
H2757 H 0.87657 0.354 0.58219 0.0
H2758 H 0.87515 0.37011 0.61184 0.0
H2759 H 0.85937 0.33841 0.6016 0.0
H2760 H 0.86467 0.39006 0.67862 0.0
H2761 H 0.82733 0.31405 0.65149 0.0
H2762 H 0.83982 0.41457 0.6315 0.0
H2763 H 0.8678 0.41087 0.6324 0.0
H2764 H 0.85766 0.42209 0.65962 0.0
H2765 H 0.79455 0.32506 0.60136 0.0
H2766 H 0.8004 0.30202 0.61662 0.0
H2767 H 0.81841 0.31347 0.59574 0.0
C2768 C 0.47811 0.06592 0.36709 0.0
C2769 C 0.45516 0.05658 0.36816 0.0
C2770 C 0.49376 0.06378 0.38436 0.0
C2771 C 0.48597 0.05373 0.40369 0.0
C2772 C 0.4628 0.04596 0.40588 0.0
C2773 C 0.44741 0.04713 0.38759 0.0
C2774 C 0.51847 0.07082 0.38118 0.0
C2775 C 0.45441 0.03548 0.42681 0.0
C2776 C 0.52601 0.03028 0.43824 0.0
C2777 C 0.53463 0.05102 0.45667 0.0
C2778 C 0.50985 0.03076 0.42047 0.0
C2779 C 0.50245 0.05241 0.42203 0.0
C2780 C 0.51174 0.0736 0.44034 0.0
C2781 C 0.52812 0.0727 0.45756 0.0
C2782 C 0.50019 0.00802 0.40075 0.0
C2783 C 0.50368 0.09671 0.44227 0.0
H2784 H 0.4838 0.07205 0.35129 0.0
H2785 H 0.42954 0.03907 0.38752 0.0
H2786 H 0.52803 0.08577 0.39634 0.0
H2787 H 0.52542 0.05468 0.38108 0.0
H2788 H 0.52143 0.07724 0.36433 0.0
H2789 H 0.43573 0.03013 0.42549 0.0
H2790 H 0.46038 0.01893 0.428 0.0
H2791 H 0.46133 0.04936 0.44366 0.0
H2792 H 0.53094 0.01338 0.4386 0.0
H2793 H 0.53455 0.08817 0.47263 0.0
H2794 H 0.50172 0.01296 0.38309 0.0
H2795 H 0.48201 1.0004 0.4017 0.0
H2796 H 0.50874 0.99324 0.40184 0.0
H2797 H 0.50644 0.10436 0.42605 0.0
H2798 H 0.51247 0.11131 0.4581 0.0
H2799 H 0.48532 0.09207 0.44345 0.0
C2800 C 0.78181 0.73793 0.09039 0.0
C2801 C 0.8011 0.7419 0.07878 0.0
C2802 C 0.78328 0.74373 0.11532 0.0
C2803 C 0.80456 0.75465 0.12916 0.0
C2804 C 0.82416 0.75948 0.11748 0.0
C2805 C 0.82225 0.75258 0.09236 0.0
C2806 C 0.762 0.73781 0.12684 0.0
C2807 C 0.84714 0.77151 0.13152 0.0
C2808 C 0.80493 0.78319 0.19506 0.0
C2809 C 0.80664 0.7635 0.20577 0.0
C2810 C 0.80419 0.78071 0.17012 0.0
C2811 C 0.80625 0.75845 0.15575 0.0
C2812 C 0.80847 0.7388 0.16665 0.0
C2813 C 0.80822 0.74141 0.19132 0.0
C2814 C 0.80132 0.80192 0.15919 0.0
C2815 C 0.81099 0.71485 0.15222 0.0
H2816 H 0.76546 0.72956 0.07986 0.0
H2817 H 0.83717 0.75582 0.08335 0.0
H2818 H 0.76364 0.72638 0.14013 0.0
H2819 H 0.75914 0.7553 0.13641 0.0
H2820 H 0.74698 0.72773 0.11365 0.0
H2821 H 0.86026 0.7767 0.11982 0.0
H2822 H 0.84684 0.78837 0.14459 0.0
H2823 H 0.85194 0.75857 0.14177 0.0
H2824 H 0.80438 0.80055 0.20616 0.0
H2825 H 0.80981 0.72618 0.19947 0.0
H2826 H 0.786 0.79568 0.14592 0.0
H2827 H 0.81588 0.80821 0.14959 0.0
H2828 H 0.79981 0.81788 0.17276 0.0
H2829 H 0.79559 0.7055 0.13938 0.0
H2830 H 0.81386 0.70194 0.16358 0.0
H2831 H 0.82533 0.71868 0.14171 0.0
C2832 C 0.12762 0.99389 0.676 0.0
C2833 C 0.1337 0.01418 0.69585 0.0
C2834 C 0.11799 0.9958 0.65295 0.0
C2835 C 0.11458 0.01868 0.64866 0.0
C2836 C 0.12091 0.03907 0.66858 0.0
C2837 C 0.12987 0.03652 0.69131 0.0
C2838 C 0.11103 0.97303 0.6331 0.0
C2839 C 0.11831 0.06405 0.66591 0.0
C2840 C 0.11332 0.03199 0.58402 0.0
C2841 C 0.09055 0.03023 0.57658 0.0
C2842 C 0.12103 0.02837 0.60679 0.0
C2843 C 0.10582 0.022 0.62348 0.0
C2844 C 0.08266 0.02025 0.61619 0.0
C2845 C 0.07543 0.02446 0.59326 0.0
C2846 C 0.14584 0.03154 0.61302 0.0
C2847 C 0.06519 0.01306 0.63233 0.0
H2848 H 0.12978 0.97626 0.67855 0.0
H2849 H 0.13419 0.05264 0.70588 0.0
H2850 H 0.09319 0.96986 0.6257 0.0
H2851 H 0.12136 0.97583 0.61838 0.0
H2852 H 0.11293 0.95622 0.63916 0.0
H2853 H 0.12438 0.0784 0.68263 0.0
H2854 H 0.1278 0.07027 0.65154 0.0
H2855 H 0.10034 0.06265 0.66062 0.0
H2856 H 0.12547 0.03633 0.57174 0.0
H2857 H 0.05774 0.02248 0.58817 0.0
H2858 H 0.14862 0.01398 0.61643 0.0
H2859 H 0.15234 0.04591 0.62964 0.0
H2860 H 0.15576 0.03699 0.59864 0.0
H2861 H 0.06309 0.99339 0.63327 0.0
H2862 H 0.0486 0.01525 0.62585 0.0
H2863 H 0.07069 0.02433 0.65071 0.0
C2864 C 0.83233 0.40153 0.43414 0.0
C2865 C 0.85084 0.40671 0.45157 0.0
C2866 C 0.83006 0.38348 0.41338 0.0
C2867 C 0.84636 0.37 0.41068 0.0
C2868 C 0.8653 0.37555 0.42799 0.0
C2869 C 0.8676 0.39434 0.44805 0.0
C2870 C 0.81023 0.3787 0.39451 0.0
C2871 C 0.88274 0.36113 0.42567 0.0
C2872 C 0.82724 0.31128 0.36305 0.0
C2873 C 0.83743 0.31963 0.34416 0.0
C2874 C 0.83109 0.3271 0.38562 0.0
C2875 C 0.84473 0.35172 0.38863 0.0
C2876 C 0.85623 0.35953 0.37006 0.0
C2877 C 0.8533 0.34291 0.34845 0.0
C2878 C 0.81963 0.31798 0.40573 0.0
C2879 C 0.87001 0.38602 0.37218 0.0
H2880 H 0.81939 0.41115 0.43704 0.0
H2881 H 0.88179 0.39815 0.46173 0.0
H2882 H 0.81617 0.3802 0.37697 0.0
H2883 H 0.79933 0.35961 0.39259 0.0
H2884 H 0.79986 0.39187 0.39885 0.0
H2885 H 0.89529 0.3663 0.44186 0.0
H2886 H 0.87438 0.34097 0.42237 0.0
H2887 H 0.89184 0.36445 0.41021 0.0
H2888 H 0.8157 0.29298 0.36007 0.0
H2889 H 0.86217 0.34919 0.33427 0.0
H2890 H 0.80506 0.32573 0.40852 0.0
H2891 H 0.83133 0.32426 0.42262 0.0
H2892 H 0.81336 0.29744 0.40184 0.0
H2893 H 0.8592 0.39874 0.37616 0.0
H2894 H 0.8774 0.38902 0.3556 0.0
H2895 H 0.88388 0.39134 0.38708 0.0
C2896 C 0.48099 0.02041 0.23699 0.0
C2897 C 0.46478 0.03208 0.24481 0.0
C2898 C 0.48293 0.01469 0.21271 0.0
C2899 C 0.46806 0.02058 0.19614 0.0
C2900 C 0.45089 0.03107 0.20378 0.0
C2901 C 0.44976 0.03722 0.22809 0.0
C2902 C 0.5013 1.00298 0.20485 0.0
C2903 C 0.43406 0.03635 0.18648 0.0
C2904 C 0.50327 0.03521 0.14962 0.0
C2905 C 0.49999 0.0112 0.13638 0.0
C2906 C 0.48995 0.03968 0.16747 0.0
C2907 C 0.47327 0.01946 0.17169 0.0
C2908 C 0.46738 0.9963 0.15547 0.0
C2909 C 0.48133 0.9922 0.13804 0.0
C2910 C 0.49624 0.06489 0.18412 0.0
C2911 C 0.44841 0.97497 0.15836 0.0
H2912 H 0.49207 0.01573 0.24977 0.0
H2913 H 0.43659 0.04555 0.23386 0.0
H2914 H 0.49396 0.98551 0.1914 0.0
H2915 H 0.51338 0.01564 0.19639 0.0
H2916 H 0.51078 0.99874 0.21995 0.0
H2917 H 0.419 0.03914 0.19481 0.0
H2918 H 0.442 0.05341 0.18035 0.0
H2919 H 0.42849 0.02103 0.17049 0.0
H2920 H 0.51747 0.04993 0.14746 0.0
H2921 H 0.4785 0.97392 0.1268 0.0
H2922 H 0.50618 0.06416 0.2007 0.0
H2923 H 0.48104 0.07047 0.18923 0.0
H2924 H 0.50655 0.07937 0.17599 0.0
H2925 H 0.45525 0.96333 0.16872 0.0
H2926 H 0.44044 0.96314 0.14068 0.0
H2927 H 0.43534 0.98141 0.16791 0.0
C2928 C 0.81003 0.71885 0.92764 0.0
C2929 C 0.81216 0.73767 0.94788 0.0
C2930 C 0.81142 0.72433 0.90487 0.0
C2931 C 0.81563 0.74927 0.90242 0.0
C2932 C 0.81933 0.76845 0.92305 0.0
C2933 C 0.81721 0.76238 0.94548 0.0
C2934 C 0.80705 0.70334 0.88328 0.0
C2935 C 0.82425 0.79529 0.92133 0.0
C2936 C 0.83131 0.76533 0.84332 0.0
C2937 C 0.81029 0.76455 0.83191 0.0
C2938 C 0.83337 0.76023 0.86624 0.0
C2939 C 0.81404 0.75505 0.87821 0.0
C2940 C 0.7929 0.75511 0.86691 0.0
C2941 C 0.79126 0.75955 0.84377 0.0
C2942 C 0.8561 0.75998 0.87746 0.0
C2943 C 0.77197 0.75043 0.87922 0.0
H2944 H 0.80577 0.6997 0.9294 0.0
H2945 H 0.81881 0.77695 0.96113 0.0
H2946 H 0.79143 0.7026 0.87205 0.0
H2947 H 0.82102 0.70653 0.87221 0.0
H2948 H 0.80516 0.6851 0.88821 0.0
H2949 H 0.82909 0.80805 0.93913 0.0
H2950 H 0.83804 0.79989 0.91028 0.0
H2951 H 0.80911 0.79863 0.91246 0.0
H2952 H 0.84603 0.7694 0.83409 0.0
H2953 H 0.77512 0.75962 0.83511 0.0
H2954 H 0.85542 0.74117 0.8804 0.0
H2955 H 0.86065 0.77288 0.89516 0.0
H2956 H 0.86958 0.76526 0.86618 0.0
H2957 H 0.76805 0.73149 0.8828 0.0
H2958 H 0.75711 0.75231 0.86841 0.0
H2959 H 0.77483 0.76365 0.89667 0.0
C2960 C 0.84675 0.09691 0.99716 0.0
C2961 C 0.84123 0.10742 0.01907 0.0
C2962 C 0.86473 0.0864 0.99619 0.0
C2963 C 0.8772 0.08621 0.01772 0.0
C2964 C 0.87196 0.09709 0.03997 0.0
C2965 C 0.85398 0.1078 0.04038 0.0
C2966 C 0.87007 0.07507 0.97209 0.0
C2967 C 0.8851 0.09718 0.06317 0.0
C2968 C 0.90304 0.03361 0.00519 0.0
C2969 C 0.92386 0.0457 -0.00056 0.0
C2970 C 0.8884 0.04714 0.01394 0.0
C2971 C 0.89478 0.07316 0.01641 0.0
C2972 C 0.91653 0.08563 0.01242 0.0
C2973 C 0.93091 0.07163 0.00389 0.0
C2974 C 0.86539 0.03343 0.01852 0.0
C2975 C 0.92381 0.11341 0.01499 0.0
H2976 H 0.83699 0.09684 0.9807 0.0
H2977 H 0.84965 0.11602 0.05736 0.0
H2978 H 0.88785 0.08359 0.97006 0.0
H2979 H 0.86795 0.05494 0.9706 0.0
H2980 H 0.85907 0.07753 0.9571 0.0
H2981 H 0.8775 0.10444 0.07894 0.0
H2982 H 0.88609 0.0782 0.06389 0.0
H2983 H 0.9026 0.10889 0.06441 0.0
H2984 H 0.89802 0.01356 0.00224 0.0
H2985 H 0.94722 0.08089 -0.00044 0.0
H2986 H 0.85263 0.03317 0.00381 0.0
H2987 H 0.86086 0.04292 0.03536 0.0
H2988 H 0.86449 0.01398 0.01956 0.0
H2989 H 0.91566 0.11839 -0.00049 0.0
H2990 H 0.94235 0.12051 0.01567 0.0
H2991 H 0.91848 0.12292 0.03131 0.0
C2992 C 0.3928 0.44817 0.05074 0.0
C2993 C 0.38925 0.42392 0.03759 0.0
C2994 C 0.41354 0.4661 0.05194 0.0
C2995 C 0.43078 0.45971 0.03922 0.0
C2996 C 0.42688 0.43543 0.02539 0.0
C2997 C 0.40635 0.41788 0.02495 0.0
C2998 C 0.41714 0.49173 0.06704 0.0
C2999 C 0.44449 0.42782 0.01112 0.0
C3000 C 0.47857 0.50595 0.02061 0.0
C3001 C 0.49691 0.50603 0.03641 0.0
C3002 C 0.45663 0.49229 0.02236 0.0
C3003 C 0.45305 0.47805 0.04011 0.0
C3004 C 0.47153 0.47893 0.05671 0.0
C3005 C 0.49328 0.49302 0.05469 0.0
C3006 C 0.43751 0.49195 0.00433 0.0
C3007 C 0.46855 0.4639 0.07575 0.0
H3008 H 0.37967 0.4529 0.0606 0.0
H3009 H 0.40362 0.39925 0.01449 0.0
H3010 H 0.43213 0.49616 0.08056 0.0
H3011 H 0.42052 0.50564 0.05572 0.0
H3012 H 0.40236 0.49362 0.07635 0.0
H3013 H 0.43852 0.40842 0.0007 0.0
H3014 H 0.44933 0.44023 0.99857 0.0
H3015 H 0.45988 0.42963 0.02324 0.0
H3016 H 0.48152 0.51605 0.00645 0.0
H3017 H 0.50759 0.49302 0.06677 0.0
H3018 H 0.42307 0.49544 0.01341 0.0
H3019 H 0.43157 0.47337 0.99227 0.0
H3020 H 0.4426 0.50598 0.99334 0.0
H3021 H 0.45455 0.4672 0.08573 0.0
H3022 H 0.48408 0.46834 0.08856 0.0
H3023 H 0.46404 0.44388 0.0673 0.0
C3024 C 0.41168 0.66662 0.79577 0.0
C3025 C 0.40807 0.64343 0.77959 0.0
C3026 C 0.39921 0.68428 0.7933 0.0
C3027 C 0.38152 0.67945 0.77424 0.0
C3028 C 0.37747 0.656 0.75784 0.0
C3029 C 0.39058 0.63867 0.76054 0.0
C3030 C 0.40536 0.70854 0.81136 0.0
C3031 C 0.35905 0.64909 0.73716 0.0
C3032 C 0.33947 0.7224 0.78137 0.0
C3033 C 0.34549 0.7383 0.76538 0.0
C3034 C 0.34998 0.7028 0.78358 0.0
C3035 C 0.36852 0.69937 0.77094 0.0
C3036 C 0.37549 0.71639 0.75596 0.0
C3037 C 0.36378 0.73453 0.75289 0.0
C3038 C 0.34079 0.68532 0.79927 0.0
C3039 C 0.39612 0.71612 0.74359 0.0
H3040 H 0.42477 0.6714 0.81076 0.0
H3041 H 0.38702 0.62132 0.7476 0.0
H3042 H 0.40634 0.72431 0.80241 0.0
H3043 H 0.39217 0.70856 0.82341 0.0
H3044 H 0.42171 0.71169 0.82245 0.0
H3045 H 0.35606 0.62963 0.72734 0.0
H3046 H 0.34314 0.65169 0.74359 0.0
H3047 H 0.36361 0.66148 0.72455 0.0
H3048 H 0.32652 0.72514 0.79228 0.0
H3049 H 0.36961 0.74648 0.74079 0.0
H3050 H 0.35428 0.68524 0.813 0.0
H3051 H 0.33455 0.6662 0.78828 0.0
H3052 H 0.3268 0.69024 0.80832 0.0
H3053 H 0.4108 0.71845 0.75697 0.0
H3054 H 0.40028 0.73104 0.73342 0.0
H3055 H 0.39358 0.69803 0.73114 0.0
C3056 C 0.21041 0.57896 0.49902 0.0
C3057 C 0.22613 0.58875 0.51937 0.0
C3058 C 0.1876 0.57528 0.50113 0.0
C3059 C 0.18082 0.57883 0.52422 0.0
C3060 C 0.19657 0.58334 0.54468 0.0
C3061 C 0.2194 0.58771 0.54189 0.0
C3062 C 0.17159 0.57164 0.47879 0.0
C3063 C 0.18968 0.58578 0.56947 0.0
C3064 C 0.12772 0.59932 0.52239 0.0
C3065 C 0.11178 0.57631 0.51832 0.0
C3066 C 0.1507 0.60088 0.52655 0.0
C3067 C 0.15743 0.57889 0.52648 0.0
C3068 C 0.14135 0.55605 0.52391 0.0
C3069 C 0.11881 0.55508 0.51942 0.0
C3070 C 0.16779 0.62563 0.52939 0.0
C3071 C 0.14802 0.53232 0.52384 0.0
H3072 H 0.216 0.5795 0.48163 0.0
H3073 H 0.23193 0.59467 0.55754 0.0
H3074 H 0.15434 0.56074 0.48008 0.0
H3075 H 0.1705 0.59005 0.47604 0.0
H3076 H 0.1777 0.56243 0.46281 0.0
H3077 H 0.20421 0.59541 0.58341 0.0
H3078 H 0.1766 0.59596 0.57154 0.0
H3079 H 0.18248 0.56699 0.57265 0.0
H3080 H 0.12229 0.61578 0.52144 0.0
H3081 H 0.1068 0.53737 0.51612 0.0
H3082 H 0.17655 0.62588 0.51324 0.0
H3083 H 0.18073 0.62858 0.54485 0.0
H3084 H 0.15988 0.64122 0.53195 0.0
H3085 H 0.15852 0.52912 0.5094 0.0
H3086 H 0.13323 0.5159 0.52122 0.0
H3087 H 0.15836 0.53395 0.54093 0.0
C3088 C 0.7611 1.00255 0.74556 0.0
C3089 C 0.74113 0.99638 0.73001 0.0
C3090 C 0.76876 0.9842 0.75354 0.0
C3091 C 0.75645 0.95913 0.74505 0.0
C3092 C 0.7374 0.9526 0.72771 0.0
C3093 C 0.72984 0.97144 0.72038 0.0
C3094 C 0.789 0.99186 0.77244 0.0
C3095 C 0.72417 0.92594 0.71821 0.0
C3096 C 0.79074 0.91833 0.76211 0.0
C3097 C 0.78386 0.91593 0.78439 0.0
C3098 C 0.78031 0.93048 0.74769 0.0
C3099 C 0.76282 0.94027 0.756 0.0
C3100 C 0.75446 0.93582 0.77745 0.0
C3101 C 0.76519 0.92363 0.79147 0.0
C3102 C 0.7894 0.93497 0.72478 0.0
C3103 C 0.73579 0.94609 0.78683 0.0
H3104 H 0.76991 0.02181 0.75292 0.0
H3105 H 0.71438 0.96666 0.70824 0.0
H3106 H 0.7838 0.98659 0.78921 0.0
H3107 H 0.80174 0.98212 0.76671 0.0
H3108 H 0.79705 0.01214 0.77638 0.0
H3109 H 0.71158 0.92388 0.70266 0.0
H3110 H 0.73564 0.91431 0.71289 0.0
H3111 H 0.71515 0.91867 0.73242 0.0
H3112 H 0.80523 0.91227 0.75672 0.0
H3113 H 0.75976 0.92127 0.80859 0.0
H3114 H 0.79928 0.95461 0.7274 0.0
H3115 H 0.77543 0.93161 0.71029 0.0
H3116 H 0.80051 0.923 0.71901 0.0
H3117 H 0.74239 0.96639 0.79374 0.0
H3118 H 0.72895 0.9376 0.80154 0.0
H3119 H 0.72181 0.94303 0.77244 0.0
C3120 C 0.74855 0.91036 0.51574 0.0
C3121 C 0.76899 0.92502 0.52907 0.0
C3122 C 0.72981 0.91999 0.51375 0.0
C3123 C 0.73151 0.94455 0.52583 0.0
C3124 C 0.75131 0.95827 0.54129 0.0
C3125 C 0.76999 0.9486 0.54227 0.0
C3126 C 0.70878 0.9046 0.4975 0.0
C3127 C 0.75321 0.98378 0.55583 0.0
C3128 C 0.70433 0.98407 0.49387 0.0
C3129 C 0.68384 0.98234 0.50334 0.0
C3130 C 0.71945 0.97134 0.50071 0.0
C3131 C 0.71487 0.95761 0.51869 0.0
C3132 C 0.69491 0.9569 0.52951 0.0
C3133 C 0.6794 0.9688 0.52133 0.0
C3134 C 0.74028 0.97232 0.48829 0.0
C3135 C 0.68947 0.94325 0.54929 0.0
H3136 H 0.7476 0.89192 0.50581 0.0
H3137 H 0.78554 0.95967 0.55318 0.0
H3138 H 0.69375 0.90444 0.50692 0.0
H3139 H 0.70669 0.91296 0.48184 0.0
H3140 H 0.7093 0.88517 0.49104 0.0
H3141 H 0.76768 0.98989 0.57021 0.0
H3142 H 0.75559 0.9973 0.54406 0.0
H3143 H 0.73753 0.98413 0.56396 0.0
H3144 H 0.7086 0.99526 0.48077 0.0
H3145 H 0.66365 0.96703 0.52882 0.0
H3146 H 0.7413 0.95326 0.48096 0.0
H3147 H 0.75556 0.98179 0.50124 0.0
H3148 H 0.7405 0.98229 0.47346 0.0
H3149 H 0.67929 0.92401 0.54144 0.0
H3150 H 0.6793 0.95212 0.56147 0.0
H3151 H 0.70486 0.94244 0.55993 0.0
C3152 C 0.41307 0.4776 0.78124 0.0
C3153 C 0.40681 0.49273 0.76667 0.0
C3154 C 0.39965 0.45343 0.78103 0.0
C3155 C 0.37924 0.44304 0.76536 0.0
C3156 C 0.3725 0.4583 0.75079 0.0
C3157 C 0.38612 0.48288 0.75178 0.0
C3158 C 0.40773 0.43881 0.79746 0.0
C3159 C 0.35118 0.44827 0.73351 0.0
C3160 C 0.35978 0.37098 0.75019 0.0
C3161 C 0.3421 0.36537 0.76404 0.0
C3162 C 0.37109 0.39585 0.74957 0.0
C3163 C 0.36556 0.41617 0.76399 0.0
C3164 C 0.34786 0.41051 0.77825 0.0
C3165 C 0.33617 0.38546 0.77771 0.0
C3166 C 0.38915 0.40035 0.73343 0.0
C3167 C 0.34181 0.43094 0.79492 0.0
H3168 H 0.42891 0.48469 0.79289 0.0
H3169 H 0.38103 0.49392 0.74013 0.0
H3170 H 0.39403 0.43102 0.80754 0.0
H3171 H 0.41253 0.42302 0.78682 0.0
H3172 H 0.42252 0.45026 0.81038 0.0
H3173 H 0.34825 0.46191 0.72306 0.0
H3174 H 0.35202 0.43126 0.72099 0.0
H3175 H 0.33652 0.44296 0.74327 0.0
H3176 H 0.36464 0.35582 0.73952 0.0
H3177 H 0.32286 0.38159 0.78883 0.0
H3178 H 0.40579 0.40903 0.7443 0.0
H3179 H 0.38607 0.41341 0.72234 0.0
H3180 H 0.38992 0.38296 0.72146 0.0
H3181 H 0.3564 0.44095 0.80864 0.0
H3182 H 0.32711 0.42381 0.80406 0.0
H3183 H 0.33796 0.44459 0.78503 0.0
C3184 C 0.22463 0.62953 0.25382 0.0
C3185 C 0.23365 0.61183 0.24066 0.0
C3186 C 0.23857 0.6501 0.26977 0.0
C3187 C 0.26207 0.65441 0.27005 0.0
C3188 C 0.27106 0.63482 0.26062 0.0
C3189 C 0.25659 0.61342 0.24585 0.0
C3190 C 0.22828 0.66974 0.28193 0.0
C3191 C 0.29612 0.63829 0.26248 0.0
C3192 C 0.27177 0.71142 0.2468 0.0
C3193 C 0.28068 0.72942 0.26729 0.0
C3194 C 0.27001 0.6867 0.24662 0.0
C3195 C 0.27414 0.67965 0.26857 0.0
C3196 C 0.2838 0.69791 0.28942 0.0
C3197 C 0.28757 0.72284 0.28832 0.0
C3198 C 0.2611 0.66811 0.22333 0.0
C3199 C 0.28831 0.69161 0.31328 0.0
H3200 H 0.20716 0.62888 0.25047 0.0
H3201 H 0.2636 0.59926 0.23655 0.0
H3202 H 0.23827 0.67978 0.29935 0.0
H3203 H 0.22801 0.68336 0.27052 0.0
H3204 H 0.21068 0.66153 0.28489 0.0
H3205 H 0.30021 0.6203 0.26158 0.0
H3206 H 0.30269 0.64615 0.24734 0.0
H3207 H 0.30481 0.65133 0.27931 0.0
H3208 H 0.26522 0.71632 0.23116 0.0
H3209 H 0.29441 0.73707 0.30432 0.0
H3210 H 0.24293 0.65922 0.22302 0.0
H3211 H 0.27023 0.65361 0.22096 0.0
H3212 H 0.26281 0.67697 0.20777 0.0
H3213 H 0.27537 0.6957 0.32461 0.0
H3214 H 0.3049 0.70347 0.32265 0.0
H3215 H 0.28804 0.67188 0.31176 0.0
C3216 C 0.54285 0.70658 0.48076 0.0
C3217 C 0.52076 0.70354 0.47035 0.0
C3218 C 0.54945 0.68693 0.48861 0.0
C3219 C 0.53395 0.6631 0.48518 0.0
C3220 C 0.51159 0.66003 0.47468 0.0
C3221 C 0.50523 0.68025 0.46788 0.0
C3222 C 0.57318 0.69167 0.50042 0.0
C3223 C 0.49441 0.63514 0.47008 0.0
C3224 C 0.55462 0.60415 0.47684 0.0
C3225 C 0.55228 0.59664 0.49864 0.0
C3226 C 0.54984 0.6261 0.47283 0.0
C3227 C 0.54142 0.64094 0.49065 0.0
C3228 C 0.53926 0.63369 0.51296 0.0
C3229 C 0.54496 0.6119 0.51679 0.0
C3230 C 0.55312 0.63294 0.44901 0.0
C3231 C 0.53023 0.64854 0.53255 0.0
H3232 H 0.55494 0.72453 0.48316 0.0
H3233 H 0.48811 0.67761 0.45997 0.0
H3234 H 0.57303 0.68497 0.51731 0.0
H3235 H 0.58254 0.68123 0.48862 0.0
H3236 H 0.58242 0.71164 0.50437 0.0
H3237 H 0.47766 0.63572 0.46221 0.0
H3238 H 0.50027 0.62132 0.4577 0.0
H3239 H 0.4925 0.62856 0.48695 0.0
H3240 H 0.56002 0.59247 0.46258 0.0
H3241 H 0.54258 0.60616 0.53355 0.0
H3242 H 0.56381 0.65224 0.4516 0.0
H3243 H 0.53659 0.63207 0.43946 0.0
H3244 H 0.56111 0.62047 0.43757 0.0
H3245 H 0.54102 0.6679 0.53737 0.0
H3246 H 0.52946 0.64064 0.5488 0.0
H3247 H 0.51308 0.64922 0.52621 0.0
C3248 C 0.66508 0.32753 0.67337 0.0
C3249 C 0.66493 0.31859 0.64885 0.0
C3250 C 0.68184 0.32544 0.69052 0.0
C3251 C 0.69849 0.31336 0.68319 0.0
C3252 C 0.69795 0.30377 0.6585 0.0
C3253 C 0.68157 0.30684 0.64179 0.0
C3254 C 0.68202 0.33663 0.71647 0.0
C3255 C 0.71457 0.2899 0.64963 0.0
C3256 C 0.75595 0.32391 0.71997 0.0
C3257 C 0.75251 0.30325 0.73047 0.0
C3258 C 0.73832 0.32805 0.70559 0.0
C3259 C 0.71667 0.31077 0.70096 0.0
C3260 C 0.7131 0.29 0.7119 0.0
C3261 C 0.73093 0.28666 0.7267 0.0
C3262 C 0.74304 0.35076 0.69497 0.0
C3263 C 0.69062 0.27079 0.70734 0.0
H3264 H 0.65238 0.33662 0.67912 0.0
H3265 H 0.6815 0.29942 0.623 0.0
H3266 H 0.68175 0.32254 0.7274 0.0
H3267 H 0.6978 0.35165 0.72288 0.0
H3268 H 0.66747 0.34442 0.71955 0.0
H3269 H 0.71136 0.2826 0.63003 0.0
H3270 H 0.73195 0.30226 0.65416 0.0
H3271 H 0.71376 0.27414 0.65857 0.0
H3272 H 0.77256 0.33687 0.72296 0.0
H3273 H 0.72814 0.27067 0.73481 0.0
H3274 H 0.73004 0.36081 0.69861 0.0
H3275 H 0.74224 0.34517 0.67533 0.0
H3276 H 0.75989 0.36363 0.70214 0.0
H3277 H 0.67712 0.27962 0.71239 0.0
H3278 H 0.69035 0.25594 0.7174 0.0
H3279 H 0.6866 0.2622 0.68801 0.0
C3280 C 0.00614 0.34917 0.98339 0.0
C3281 C 0.02373 0.33838 0.97796 0.0
C3282 C 0.0096 0.37507 0.98858 0.0
C3283 C 0.03139 0.391 0.98926 0.0
C3284 C 0.04951 0.38024 0.98506 0.0
C3285 C 0.0454 0.35415 0.97895 0.0
C3286 C 0.98964 0.38536 0.9922 0.0
C3287 C 0.07322 0.39636 0.98665 0.0
C3288 C 0.038 0.45477 0.97413 0.0
C3289 C 0.0427 0.47083 0.99664 0.0
C3290 C 0.03378 0.42893 0.97163 0.0
C3291 C 0.03481 0.41862 0.99213 0.0
C3292 C 0.03919 0.43478 0.01502 0.0
C3293 C 0.04286 0.46061 0.01698 0.0
C3294 C 0.02871 0.41267 0.94688 0.0
C3295 C 0.04053 0.42498 0.0375 0.0
H3296 H 0.98926 0.33726 0.98242 0.0
H3297 H 0.05914 0.34609 0.97491 0.0
H3298 H 0.99302 0.39904 0.00934 0.0
H3299 H 0.98696 0.39515 0.97777 0.0
H3300 H 0.97393 0.37073 0.99221 0.0
H3301 H 0.08573 0.38538 0.98512 0.0
H3302 H 0.0744 0.40687 0.97222 0.0
H3303 H 0.07771 0.4101 0.00388 0.0
H3304 H 0.03806 0.46256 0.95833 0.0
H3305 H 0.04678 0.47289 0.03445 0.0
H3306 H 0.01276 0.39792 0.94534 0.0
H3307 H 0.04227 0.40342 0.94348 0.0
H3308 H 0.02722 0.42331 0.93283 0.0
H3309 H 0.02335 0.41539 0.04051 0.0
H3310 H 0.04809 0.44005 0.05341 0.0
H3311 H 0.0506 0.41132 0.03587 0.0
C3312 C 0.02634 0.79764 0.14421 0.0
C3313 C 0.04347 0.81971 0.15282 0.0
C3314 C 0.00665 0.79216 0.15532 0.0
C3315 C 0.00409 0.80893 0.17582 0.0
C3316 C 0.02104 0.83155 0.18415 0.0
C3317 C 0.04039 0.83672 0.1725 0.0
C3318 C 0.98884 0.76807 0.14551 0.0
C3319 C 0.01913 0.84994 0.20595 0.0
C3320 C 0.94627 0.79876 0.19838 0.0
C3321 C 0.94879 0.78541 0.21611 0.0
C3322 C 0.96418 0.80707 0.18543 0.0
C3323 C 0.98504 0.80161 0.19002 0.0
C3324 C 0.9878 0.78872 0.20827 0.0
C3325 C 0.96989 0.78117 0.22122 0.0
C3326 C 0.96057 0.82109 0.1664 0.0
C3327 C 0.0096 0.7823 0.21377 0.0
H3328 H 0.02834 0.78455 0.12878 0.0
H3329 H 0.05344 0.85387 0.17925 0.0
H3330 H 0.98728 0.75624 0.15887 0.0
H3331 H 0.97224 0.77169 0.14197 0.0
H3332 H 0.99273 0.75764 0.12873 0.0
H3333 H 0.03263 0.8676 0.20888 0.0
H3334 H 0.00255 0.85402 0.20429 0.0
H3335 H 0.02022 0.84187 0.22195 0.0
H3336 H 0.9301 0.80206 0.19408 0.0
H3337 H 0.97239 0.77152 0.23527 0.0
H3338 H 0.96024 0.8094 0.14858 0.0
H3339 H 0.97467 0.83808 0.16845 0.0
H3340 H 0.94451 0.82644 0.16691 0.0
H3341 H 0.01307 0.77027 0.19776 0.0
H3342 H 0.0092 0.77251 0.22874 0.0
H3343 H 0.02382 0.79937 0.21838 0.0
C3344 C 0.51064 0.29487 0.08302 0.0
C3345 C 0.50528 0.30064 0.10624 0.0
C3346 C 0.5184 0.31351 0.07066 0.0
C3347 C 0.52034 0.33839 0.08168 0.0
C3348 C 0.51423 0.34428 0.10484 0.0
C3349 C 0.50702 0.32525 0.11705 0.0
C3350 C 0.5251 0.30662 0.04608 0.0
C3351 C 0.51551 0.3706 0.11675 0.0
C3352 C 0.56227 0.38318 0.05574 0.0
C3353 C 0.54812 0.3887 0.03875 0.0
C3354 C 0.55327 0.3681 0.07114 0.0
C3355 C 0.52965 0.3581 0.06902 0.0
C3356 C 0.51526 0.36455 0.05254 0.0
C3357 C 0.52473 0.38001 0.03765 0.0
C3358 C 0.56905 0.36194 0.08887 0.0
C3359 C 0.49001 0.35405 0.04972 0.0
H3360 H 0.5095 0.27581 0.07476 0.0
H3361 H 0.50267 0.32956 0.13497 0.0
H3362 H 0.51562 0.31354 0.033 0.0
H3363 H 0.54327 0.31551 0.0462 0.0
H3364 H 0.52198 0.28629 0.03985 0.0
H3365 H 0.5095 0.37188 0.13455 0.0
H3366 H 0.53313 0.38226 0.11891 0.0
H3367 H 0.5052 0.37846 0.10537 0.0
H3368 H 0.58036 0.39061 0.05688 0.0
H3369 H 0.51391 0.38472 0.02463 0.0
H3370 H 0.56874 0.34213 0.08347 0.0
H3371 H 0.56352 0.36473 0.10685 0.0
H3372 H 0.58668 0.3734 0.09007 0.0
H3373 H 0.48552 0.33417 0.04079 0.0
H3374 H 0.48115 0.36377 0.03884 0.0
H3375 H 0.48377 0.35525 0.06737 0.0
C3376 C 0.04204 0.33641 0.37585 0.0
C3377 C 0.05852 0.3295 0.36277 0.0
C3378 C 0.02441 0.34321 0.36497 0.0
C3379 C 0.02272 0.34206 0.34018 0.0
C3380 C 0.03946 0.3355 0.32684 0.0
C3381 C 0.05744 0.32953 0.33841 0.0
C3382 C 0.00741 0.35092 0.38012 0.0
C3383 C 0.03806 0.33427 0.30031 0.0
C3384 C 0.96487 0.32662 0.30628 0.0
C3385 C 0.96439 0.34946 0.30098 0.0
C3386 C 0.98362 0.3242 0.31964 0.0
C3387 C 0.00227 0.34513 0.32777 0.0
C3388 C 0.00154 0.36851 0.32346 0.0
C3389 C 0.98258 0.37036 0.30981 0.0
C3390 C 0.98368 0.29912 0.32455 0.0
C3391 C 0.02079 0.3914 0.33306 0.0
H3392 H 0.04319 0.33718 0.39488 0.0
H3393 H 0.07046 0.32468 0.32843 0.0
H3394 H 1.00043 0.36484 0.37344 0.0
H3395 H 0.99327 0.33441 0.37982 0.0
H3396 H 0.01497 0.35877 0.39899 0.0
H3397 H 0.05308 0.33023 0.29278 0.0
H3398 H 0.02285 0.31959 0.29107 0.0
H3399 H 0.03632 0.35205 0.29639 0.0
H3400 H 0.9508 0.31043 0.29938 0.0
H3401 H 0.98194 0.38809 0.30605 0.0
H3402 H 0.98691 0.30043 0.34403 0.0
H3403 H 0.99746 0.29281 0.31628 0.0
H3404 H 0.9675 0.28489 0.31751 0.0
H3405 H 0.02578 0.39307 0.35235 0.0
H3406 H 0.01642 0.40856 0.33057 0.0
H3407 H 0.03565 0.38991 0.3238 0.0
C3408 C 0.97622 0.67632 0.58712 0.0
C3409 C 0.9902 0.6908 0.60757 0.0
C3410 C 0.98432 0.65982 0.5712 0.0
C3411 C 0.00621 0.65751 0.57694 0.0
C3412 C 0.02056 0.67291 0.59716 0.0
C3413 C 0.01238 0.68967 0.61211 0.0
C3414 C 0.96926 0.64407 0.54904 0.0
C3415 C 0.04381 0.67033 0.60414 0.0
C3416 C 0.02009 0.59702 0.562 0.0
C3417 C 0.03372 0.60134 0.54422 0.0
C3418 C 0.00961 0.61477 0.57178 0.0
C3419 C 0.01357 0.63724 0.56374 0.0
C3420 C 0.0277 0.64176 0.54603 0.0
C3421 C 0.03786 0.62367 0.5366 0.0
C3422 C 0.99481 0.60979 0.59105 0.0
C3423 C 0.0326 0.66583 0.53759 0.0
H3424 H 0.95911 0.67757 0.5839 0.0
H3425 H 0.02296 0.70096 0.62822 0.0
H3426 H 0.97875 0.64356 0.53339 0.0
H3427 H 0.96316 0.62476 0.55138 0.0
H3428 H 0.95443 0.65101 0.54517 0.0
H3429 H 0.05337 0.68527 0.61934 0.0
H3430 H 0.04227 0.65227 0.60931 0.0
H3431 H 0.05379 0.67065 0.58892 0.0
H3432 H 0.01729 0.57967 0.56782 0.0
H3433 H 0.04906 0.62691 0.52321 0.0
H3434 H 0.97783 0.61173 0.58583 0.0
H3435 H 0.00204 0.62359 0.60788 0.0
H3436 H 0.99295 0.59097 0.59459 0.0
H3437 H 0.01667 0.67038 0.53279 0.0
H3438 H 0.04208 0.66515 0.5219 0.0
H3439 H 0.04271 0.68113 0.55217 0.0
C3440 C 0.69557 0.84986 0.84154 0.0
C3441 C 0.67317 0.83646 0.84052 0.0
C3442 C 0.70937 0.84091 0.82597 0.0
C3443 C 0.70016 0.81837 0.80899 0.0
C3444 C 0.67721 0.80563 0.80699 0.0
C3445 C 0.66394 0.81483 0.82294 0.0
C3446 C 0.73403 0.85473 0.82861 0.0
C3447 C 0.66704 0.78164 0.78896 0.0
C3448 C 0.73898 0.80964 0.76339 0.0
C3449 C 0.75236 0.79784 0.77487 0.0
C3450 C 0.72027 0.81463 0.77323 0.0
C3451 C 0.71514 0.8073 0.79475 0.0
C3452 C 0.72713 0.79277 0.80477 0.0
C3453 C 0.74601 0.78858 0.79485 0.0
C3454 C 0.70783 0.83027 0.76226 0.0
C3455 C 0.7218 0.78429 0.82754 0.0
H3456 H 0.70259 0.86649 0.8553 0.0
H3457 H 0.64644 0.80468 0.82212 0.0
H3458 H 0.74447 0.84324 0.83459 0.0
H3459 H 0.73891 0.85836 0.81118 0.0
H3460 H 0.73813 0.87268 0.84173 0.0
H3461 H 0.64842 0.77555 0.78805 0.0
H3462 H 0.67148 0.78362 0.77096 0.0
H3463 H 0.67402 0.76687 0.79382 0.0
H3464 H 0.74432 0.81693 0.74802 0.0
H3465 H 0.75688 0.78006 0.80399 0.0
H3466 H 0.71356 0.84964 0.77273 0.0
H3467 H 0.68944 0.82358 0.76269 0.0
H3468 H 0.71102 0.83038 0.74353 0.0
H3469 H 0.7275 0.80037 0.84286 0.0
H3470 H 0.73035 0.77003 0.8307 0.0
H3471 H 0.7034 0.77659 0.82711 0.0
C3472 C 0.47832 0.57865 0.6861 0.0
C3473 C 0.48769 0.5695 0.70452 0.0
C3474 C 0.48724 0.57855 0.66357 0.0
C3475 C 0.50611 0.56894 0.65853 0.0
C3476 C 0.51586 0.56038 0.67731 0.0
C3477 C 0.50679 0.56082 0.69947 0.0
C3478 C 0.47616 0.58852 0.64491 0.0
C3479 C 0.53585 0.55004 0.67387 0.0
C3480 C 0.51537 0.54219 0.59293 0.0
C3481 C 0.53427 0.55973 0.58818 0.0
C3482 C 0.50616 0.5451 0.61511 0.0
C3483 C 0.51518 0.5666 0.63371 0.0
C3484 C 0.53391 0.58475 0.62883 0.0
C3485 C 0.54323 0.58103 0.60667 0.0
C3486 C 0.48689 0.52455 0.61884 0.0
C3487 C 0.5441 0.60849 0.64704 0.0
H3488 H 0.46368 0.58544 0.68901 0.0
H3489 H 0.51478 0.55379 0.713 0.0
H3490 H 0.48905 0.6017 0.63779 0.0
H3491 H 0.46744 0.57308 0.62977 0.0
H3492 H 0.46368 0.59803 0.65203 0.0
H3493 H 0.54171 0.54402 0.6899 0.0
H3494 H 0.53142 0.53395 0.65852 0.0
H3495 H 0.55004 0.56418 0.66965 0.0
H3496 H 0.50787 0.52558 0.57935 0.0
H3497 H 0.55758 0.5951 0.60378 0.0
H3498 H 0.47219 0.53176 0.62272 0.0
H3499 H 0.49183 0.51744 0.63452 0.0
H3500 H 0.48166 0.50889 0.60308 0.0
H3501 H 0.5313 0.61895 0.64997 0.0
H3502 H 0.55901 0.62045 0.64137 0.0
H3503 H 0.5492 0.60446 0.66441 0.0
C3504 C 0.76338 0.17959 0.96619 0.0
C3505 C 0.78173 0.17078 0.97215 0.0
C3506 C 0.76466 0.19541 0.95046 0.0
C3507 C 0.78459 0.2019 0.93984 0.0
C3508 C 0.80331 0.19321 0.94579 0.0
C3509 C 0.80178 0.17789 0.96234 0.0
C3510 C 0.74454 0.20501 0.94518 0.0
C3511 C 0.82468 0.19994 0.93456 0.0
C3512 C 0.76676 0.21746 0.88295 0.0
C3513 C 0.76972 0.24284 0.89063 0.0
C3514 C 0.77432 0.20403 0.89812 0.0
C3515 C 0.78471 0.21651 0.92141 0.0
C3516 C 0.7897 0.24261 0.92832 0.0
C3517 C 0.78201 0.25559 0.91267 0.0
C3518 C 0.76864 0.17619 0.89027 0.0
C3519 C 0.80054 0.25646 0.95311 0.0
H3520 H 0.74812 0.17472 0.97442 0.0
H3521 H 0.81605 0.17131 0.96742 0.0
H3522 H 0.74968 0.22554 0.94874 0.0
H3523 H 0.73759 0.19817 0.92608 0.0
H3524 H 0.73088 0.19912 0.95608 0.0
H3525 H 0.83783 0.19195 0.94142 0.0
H3526 H 0.82102 0.1932 0.91493 0.0
H3527 H 0.83146 0.22037 0.93803 0.0
H3528 H 0.75728 0.20794 0.86569 0.0
H3529 H 0.78422 0.27537 0.91828 0.0
H3530 H 0.75378 0.16768 0.89853 0.0
H3531 H 0.7828 0.16917 0.89621 0.0
H3532 H 0.76452 0.16999 0.87059 0.0
H3533 H 0.78745 0.2555 0.96537 0.0
H3534 H 0.80853 0.2763 0.95354 0.0
H3535 H 0.8134 0.24817 0.96001 0.0
C3536 C 0.16132 0.54714 0.15667 0.0
C3537 C 0.15497 0.53829 0.17687 0.0
C3538 C 0.14886 0.53569 0.13449 0.0
C3539 C 0.12927 0.51619 0.13344 0.0
C3540 C 0.12553 0.50441 0.15274 0.0
C3541 C 0.13863 0.51573 0.17457 0.0
C3542 C 0.1544 0.54706 0.11328 0.0
C3543 C 0.10529 0.48277 0.15155 0.0
C3544 C 0.08178 0.53569 0.10638 0.0
C3545 C 0.07855 0.52117 0.08358 0.0
C3546 C 0.09738 0.53287 0.12356 0.0
C3547 C 0.10969 0.51515 0.11719 0.0
C3548 C 0.10456 0.49873 0.09475 0.0
C3549 C 0.08865 0.50181 0.07815 0.0
C3550 C 0.10238 0.55076 0.14751 0.0
C3551 C 0.11746 0.48003 0.08699 0.0
H3552 H 0.17497 0.56383 0.15841 0.0
H3553 H 0.13447 0.50835 0.19021 0.0
H3554 H 0.1497 0.53276 0.09644 0.0
H3555 H 0.14477 0.56089 0.11217 0.0
H3556 H 0.17263 0.55669 0.11497 0.0
H3557 H 0.10778 0.47215 0.16535 0.0
H3558 H 0.09035 0.48982 0.15471 0.0
H3559 H 0.10165 0.47014 0.13371 0.0
H3560 H 0.07395 0.55078 0.11 0.0
H3561 H 0.08592 0.49082 0.06007 0.0
H3562 H 0.11891 0.56448 0.14863 0.0
H3563 H 0.10323 0.54085 0.16221 0.0
H3564 H 0.08945 0.56109 0.15034 0.0
H3565 H 0.13097 0.48819 0.07685 0.0
H3566 H 0.10624 0.4632 0.07483 0.0
H3567 H 0.12538 0.4745 0.10223 0.0
C3568 C 0.83061 0.81969 0.4473 0.0
C3569 C 0.81561 0.83142 0.45862 0.0
C3570 C 0.82954 0.81416 0.42241 0.0
C3571 C 0.81269 0.81988 0.40833 0.0
C3572 C 0.79651 0.83018 0.41952 0.0
C3573 C 0.79832 0.83614 0.44459 0.0
C3574 C 0.84754 0.80393 0.41131 0.0
C3575 C 0.77779 0.83573 0.40504 0.0
C3576 C 0.82491 0.83589 0.34871 0.0
C3577 C 0.81569 0.8131 0.33285 0.0
C3578 C 0.82488 0.83803 0.37336 0.0
C3579 C 0.8135 0.81736 0.3822 0.0
C3580 C 0.80343 0.79443 0.36613 0.0
C3581 C 0.8052 0.79239 0.34165 0.0
C3582 C 0.83688 0.86248 0.38989 0.0
C3583 C 0.79007 0.77238 0.37466 0.0
H3584 H 0.84408 0.81601 0.45793 0.0
H3585 H 0.78656 0.84503 0.45316 0.0
H3586 H 0.83995 0.78764 0.39659 0.0
H3587 H 0.85849 0.81827 0.40355 0.0
H3588 H 0.85824 0.79841 0.42448 0.0
H3589 H 0.76521 0.84116 0.41622 0.0
H3590 H 0.7849 0.85106 0.39614 0.0
H3591 H 0.76906 0.8193 0.39083 0.0
H3592 H 0.83223 0.85209 0.34176 0.0
H3593 H 0.79718 0.77499 0.32924 0.0
H3594 H 0.84853 0.85959 0.40402 0.0
H3595 H 0.82447 0.8708 0.39884 0.0
H3596 H 0.84672 0.87587 0.3803 0.0
H3597 H 0.80109 0.76668 0.38731 0.0
H3598 H 0.7823 0.75628 0.35973 0.0
H3599 H 0.77653 0.77748 0.38442 0.0
C3600 C 0.50873 0.58393 0.85378 0.0
C3601 C 0.48621 0.57234 0.84333 0.0
C3602 C 0.51775 0.58057 0.87624 0.0
C3603 C 0.50464 0.56394 0.88884 0.0
C3604 C 0.48194 0.55196 0.87822 0.0
C3605 C 0.47313 0.55639 0.85615 0.0
C3606 C 0.54175 0.59459 0.88608 0.0
C3607 C 0.46708 0.53335 0.8897 0.0
C3608 C 0.53572 0.53898 0.93764 0.0
C3609 C 0.53 0.5505 0.95942 0.0
C3610 C 0.52736 0.54253 0.91487 0.0
C3611 C 0.51415 0.55962 0.91316 0.0
C3612 C 0.50995 0.5727 0.9352 0.0
C3613 C 0.51708 0.56749 0.95738 0.0
C3614 C 0.53235 0.52749 0.89248 0.0
C3615 C 0.49809 0.59281 0.9355 0.0
H3616 H 0.51967 0.59543 0.84404 0.0
H3617 H 0.45616 0.54613 0.84818 0.0
H3618 H 0.54368 0.6007 0.90579 0.0
H3619 H 0.55288 0.58234 0.88165 0.0
H3620 H 0.54764 0.61109 0.87827 0.0
H3621 H 0.45035 0.52449 0.87898 0.0
H3622 H 0.47542 0.51871 0.89207 0.0
H3623 H 0.46453 0.54249 0.90767 0.0
H3624 H 0.54636 0.52673 0.93816 0.0
H3625 H 0.51261 0.57734 0.9735 0.0
H3626 H 0.54316 0.5399 0.88275 0.0
H3627 H 0.51645 0.51778 0.88048 0.0
H3628 H 0.54104 0.51356 0.89628 0.0
H3629 H 0.50658 0.60624 0.92516 0.0
H3630 H 0.49786 0.60302 0.95389 0.0
H3631 H 0.48048 0.58469 0.92686 0.0
C3632 C 0.78578 0.22398 0.08931 0.0
C3633 C 0.78199 0.1985 0.08729 0.0
C3634 C 0.78447 0.23896 0.11095 0.0
C3635 C 0.77881 0.22778 0.13038 0.0
C3636 C 0.77327 0.20179 0.12777 0.0
C3637 C 0.77533 0.18739 0.10617 0.0
C3638 C 0.79091 0.26674 0.1136 0.0
C3639 C 0.76675 0.18939 0.14819 0.0
C3640 C 0.81075 0.26148 0.1895 0.0
C3641 C 0.79455 0.27096 0.20044 0.0
C3642 C 0.80584 0.24779 0.16632 0.0
C3643 C 0.78394 0.24317 0.15432 0.0
C3644 C 0.76728 0.25242 0.16547 0.0
C3645 C 0.77287 0.2664 0.18879 0.0
C3646 C 0.82385 0.23754 0.15511 0.0
C3647 C 0.74369 0.24714 0.15302 0.0
H3648 H 0.79045 0.23219 0.07424 0.0
H3649 H 0.7716 0.16743 0.10399 0.0
H3650 H 0.77867 0.27486 0.12311 0.0
H3651 H 0.80765 0.27488 0.12447 0.0
H3652 H 0.79184 0.27221 0.09609 0.0
H3653 H 0.75928 0.16909 0.14201 0.0
H3654 H 0.78192 0.19251 0.16115 0.0
H3655 H 0.75452 0.19743 0.15779 0.0
H3656 H 0.82691 0.26373 0.19948 0.0
H3657 H 0.76032 0.27326 0.19808 0.0
H3658 H 0.82623 0.24286 0.13771 0.0
H3659 H 0.81862 0.21701 0.15172 0.0
H3660 H 0.84033 0.24425 0.16663 0.0
H3661 H 0.74415 0.25561 0.13717 0.0
H3662 H 0.73244 0.25449 0.16487 0.0
H3663 H 0.73633 0.22689 0.14654 0.0
C3664 C 0.17802 0.54161 0.30432 0.0
C3665 C 0.1877 0.56571 0.30148 0.0
C3666 C 0.16489 0.5378 0.32272 0.0
C3667 C 0.16202 0.55867 0.33842 0.0
C3668 C 0.17498 0.58283 0.33788 0.0
C3669 C 0.1876 0.58607 0.31911 0.0
C3670 C 0.15169 0.51178 0.32305 0.0
C3671 C 0.17282 0.60558 0.35482 0.0
C3672 C 0.10692 0.56802 0.35279 0.0
C3673 C 0.11036 0.57175 0.37756 0.0
C3674 C 0.12248 0.56017 0.33913 0.0
C3675 C 0.14195 0.5565 0.35085 0.0
C3676 C 0.14396 0.55719 0.37554 0.0
C3677 C 0.12806 0.565 0.38878 0.0
C3678 C 0.11931 0.55866 0.31256 0.0
C3679 C 0.16404 0.55231 0.38829 0.0
H3680 H 0.17826 0.52583 0.29058 0.0
H3681 H 0.19544 0.60463 0.31684 0.0
H3682 H 0.148 0.50983 0.34127 0.0
H3683 H 0.13541 0.50708 0.31142 0.0
H3684 H 0.16093 0.49817 0.316 0.0
H3685 H 0.1863 0.62238 0.35408 0.0
H3686 H 0.1563 0.60892 0.35003 0.0
H3687 H 0.17355 0.60293 0.37342 0.0
H3688 H 0.0927 0.57249 0.34427 0.0
H3689 H 0.13036 0.56748 0.40803 0.0
H3690 H 0.12309 0.54182 0.30271 0.0
H3691 H 0.13108 0.575 0.30829 0.0
H3692 H 0.10187 0.55837 0.30602 0.0
H3693 H 0.16915 0.53693 0.37732 0.0
H3694 H 0.1605 0.54774 0.40581 0.0
H3695 H 0.1785 0.5691 0.3915 0.0
C3696 C 0.78806 0.83053 0.5921 0.0
C3697 C 0.81076 0.83939 0.58925 0.0
C3698 C 0.78202 0.82277 0.61311 0.0
C3699 C 0.79907 0.82484 0.63181 0.0
C3700 C 0.82197 0.83441 0.62912 0.0
C3701 C 0.82751 0.84121 0.60774 0.0
C3702 C 0.75751 0.81188 0.61515 0.0
C3703 C 0.84068 0.83727 0.64875 0.0
C3704 C 0.79023 0.82744 0.69652 0.0
C3705 C 0.79182 0.80405 0.69911 0.0
C3706 C 0.79079 0.83387 0.67419 0.0
C3707 C 0.79341 0.8166 0.65415 0.0
C3708 C 0.79386 0.79249 0.6565 0.0
C3709 C 0.79307 0.78651 0.679 0.0
C3710 C 0.79009 0.8597 0.67241 0.0
C3711 C 0.79684 0.77358 0.63567 0.0
H3712 H 0.77516 0.82895 0.57765 0.0
H3713 H 0.84506 0.84824 0.60552 0.0
H3714 H 0.75483 0.79263 0.61773 0.0
H3715 H 0.75255 0.82265 0.63101 0.0
H3716 H 0.74628 0.81162 0.59908 0.0
H3717 H 0.85752 0.84614 0.64421 0.0
H3718 H 0.83786 0.84864 0.66554 0.0
H3719 H 0.84079 0.81885 0.65227 0.0
H3720 H 0.78924 0.84095 0.71213 0.0
H3721 H 0.79493 0.76862 0.68108 0.0
H3722 H 0.77832 0.85913 0.6567 0.0
H3723 H 0.80707 0.87051 0.66997 0.0
H3724 H 0.78486 0.8696 0.68865 0.0
H3725 H 0.78532 0.77268 0.61963 0.0
H3726 H 0.79369 0.75479 0.63962 0.0
H3727 H 0.81431 0.77914 0.63126 0.0
C3728 C 0.76426 0.46449 0.51835 0.0
C3729 C 0.78389 0.47765 0.51081 0.0
C3730 C 0.74785 0.47615 0.52563 0.0
C3731 C 0.7513 0.50146 0.52525 0.0
C3732 C 0.77071 0.51462 0.51694 0.0
C3733 C 0.7868 0.50246 0.50967 0.0
C3734 C 0.72705 0.46153 0.53399 0.0
C3735 C 0.77476 0.54171 0.51635 0.0
C3736 C 0.70322 0.53042 0.52411 0.0
C3737 C 0.70558 0.54322 0.5479 0.0
C3738 C 0.71738 0.51572 0.51674 0.0
C3739 C 0.73462 0.51438 0.53346 0.0
C3740 C 0.73692 0.52683 0.55758 0.0
C3741 C 0.72223 0.54112 0.56457 0.0
C3742 C 0.7143 0.50224 0.49095 0.0
C3743 C 0.75511 0.52542 0.57582 0.0
H3744 H 0.76194 0.44518 0.51907 0.0
H3745 H 0.80203 0.51266 0.50397 0.0
H3746 H 0.72491 0.47096 0.55202 0.0
H3747 H 0.71191 0.46046 0.52182 0.0
H3748 H 0.7277 0.44237 0.53457 0.0
H3749 H 0.79067 0.54913 0.5092 0.0
H3750 H 0.7606 0.54445 0.50517 0.0
H3751 H 0.77548 0.55269 0.53462 0.0
H3752 H 0.6905 0.5322 0.51109 0.0
H3753 H 0.72372 0.55058 0.58305 0.0
H3754 H 0.71351 0.48242 0.48977 0.0
H3755 H 0.72897 0.51029 0.48223 0.0
H3756 H 0.69877 0.50341 0.48081 0.0
H3757 H 0.75396 0.5058 0.57624 0.0
H3758 H 0.75401 0.53542 0.59404 0.0
H3759 H 0.77191 0.53354 0.57077 0.0
C3760 C 0.23156 0.13238 0.4995 0.0
C3761 C 0.23138 0.15556 0.49476 0.0
C3762 C 0.21125 0.114 0.49882 0.0
C3763 C 0.19031 0.1189 0.49324 0.0
C3764 C 0.19016 0.14175 0.48717 0.0
C3765 C 0.21057 0.15968 0.48798 0.0
C3766 C 0.21217 0.08987 0.50534 0.0
C3767 C 0.16835 0.14796 0.48118 0.0
C3768 C 0.13358 0.06948 0.48085 0.0
C3769 C 0.12483 0.07456 0.50251 0.0
C3770 C 0.15518 0.08319 0.47763 0.0
C3771 C 0.16859 0.1019 0.49672 0.0
C3772 C 0.16018 0.10623 0.51889 0.0
C3773 C 0.1384 0.09289 0.52133 0.0
C3774 C 0.16328 0.07838 0.45355 0.0
C3775 C 0.1739 0.12563 0.53993 0.0
H3776 H 0.24749 0.12895 0.50467 0.0
H3777 H 0.21012 0.17738 0.48401 0.0
H3778 H 0.20554 0.08885 0.52263 0.0
H3779 H 0.20134 0.074 0.49178 0.0
H3780 H 0.22959 0.08786 0.50693 0.0
H3781 H 0.17105 0.1652 0.4742 0.0
H3782 H 0.15677 0.13256 0.46773 0.0
H3783 H 0.15985 0.15048 0.49743 0.0
H3784 H 0.12326 0.05539 0.46616 0.0
H3785 H 0.13202 0.09709 0.53815 0.0
H3786 H 0.18027 0.07532 0.45545 0.0
H3787 H 0.16475 0.09486 0.44556 0.0
H3788 H 0.15167 0.06207 0.44107 0.0
H3789 H 0.19099 0.12311 0.54307 0.0
H3790 H 0.16591 0.12498 0.55656 0.0
H3791 H 0.17591 0.14434 0.5361 0.0
C3792 C 0.24541 0.94856 0.78142 0.0
C3793 C 0.22351 0.94557 0.76968 0.0
C3794 C 0.25643 0.92907 0.78009 0.0
C3795 C 0.24584 0.90457 0.76683 0.0
C3796 C 0.22373 0.90117 0.7547 0.0
C3797 C 0.21307 0.92128 0.75611 0.0
C3798 C 0.27979 0.93488 0.79324 0.0
C3799 C 0.21093 0.87586 0.74051 0.0
C3800 C 0.28305 0.85819 0.74784 0.0
C3801 C 0.28183 0.84378 0.76546 0.0
C3802 C 0.27197 0.87765 0.74818 0.0
C3803 C 0.25794 0.88309 0.76605 0.0
C3804 C 0.25644 0.86834 0.78376 0.0
C3805 C 0.26813 0.84936 0.78328 0.0
C3806 C 0.27513 0.89228 0.7289 0.0
C3807 C 0.24186 0.87221 0.8032 0.0
H3808 H 0.25432 0.96666 0.79206 0.0
H3809 H 0.19624 0.91767 0.74698 0.0
H3810 H 0.2797 0.92349 0.80688 0.0
H3811 H 0.29155 0.93005 0.78067 0.0
H3812 H 0.28637 0.95473 0.80223 0.0
H3813 H 0.19491 0.87603 0.73058 0.0
H3814 H 0.22141 0.86853 0.72766 0.0
H3815 H 0.20705 0.86289 0.75273 0.0
H3816 H 0.29257 0.85398 0.73328 0.0
H3817 H 0.26589 0.83819 0.79665 0.0
H3818 H 0.28128 0.91238 0.73698 0.0
H3819 H 0.25871 0.88918 0.718 0.0
H3820 H 0.28727 0.88707 0.71697 0.0
H3821 H 0.24795 0.89148 0.81382 0.0
H3822 H 0.24172 0.85925 0.8154 0.0
H3823 H 0.22432 0.86961 0.79518 0.0
C3824 C 0.40262 1.00173 0.04596 0.0
C3825 C 0.38606 0.98399 0.02961 0.0
C3826 C 0.42336 0.01223 0.0389 0.0
C3827 C 0.42754 1.00382 0.01527 0.0
C3828 C 0.41033 0.98707 0.99834 0.0
C3829 C 0.38951 0.9777 0.00565 0.0
C3830 C 0.44143 0.03054 0.05727 0.0
C3831 C 0.41457 0.97706 0.97334 0.0
C3832 C 0.48236 0.04335 0.00543 0.0
C3833 C 0.49681 0.02948 0.01105 0.0
C3834 C 0.45912 0.03334 0.00299 0.0
C3835 C 0.45065 0.01043 0.00941 0.0
C3836 C 0.46522 0.99593 0.01435 0.0
C3837 C 0.4883 0.00545 0.01434 0.0
C3838 C 0.44376 0.04825 0.99591 0.0
C3839 C 0.45695 0.97205 0.02271 0.0
H3840 H 0.39989 0.00604 0.0645 0.0
H3841 H 0.37679 0.96335 0.99319 0.0
H3842 H 0.45519 0.02205 0.0612 0.0
H3843 H 0.44885 0.04723 0.0503 0.0
H3844 H 0.43484 0.03647 0.07421 0.0
H3845 H 0.39866 0.96699 0.96148 0.0
H3846 H 0.424 0.99221 0.96541 0.0
H3847 H 0.42506 0.96397 0.97395 0.0
H3848 H 0.48924 0.06238 0.00397 0.0
H3849 H 0.49983 0.99539 0.01979 0.0
H3850 H 0.43628 0.05563 0.01168 0.0
H3851 H 0.42972 0.03626 0.98236 0.0
H3852 H 0.45287 0.06402 0.98852 0.0
H3853 H 0.45279 0.97638 0.0412 0.0
H3854 H 0.46985 0.96157 0.0227 0.0
H3855 H 0.44142 0.96 0.01139 0.0
C3856 C 0.87403 0.60363 0.81698 0.0
C3857 C 0.88874 0.5942 0.80308 0.0
C3858 C 0.85901 0.61471 0.80696 0.0
C3859 C 0.85869 0.61567 0.78258 0.0
C3860 C 0.87353 0.6061 0.76851 0.0
C3861 C 0.88857 0.59571 0.77905 0.0
C3862 C 0.84341 0.62514 0.82225 0.0
C3863 C 0.87337 0.60651 0.74227 0.0
C3864 C 0.80975 0.62097 0.74389 0.0
C3865 C 0.81773 0.64534 0.74115 0.0
C3866 C 0.82225 0.61145 0.75902 0.0
C3867 C 0.84308 0.62681 0.77134 0.0
C3868 C 0.8507 0.65179 0.76949 0.0
C3869 C 0.83781 0.66083 0.75434 0.0
C3870 C 0.81398 0.58457 0.76048 0.0
C3871 C 0.87319 0.66834 0.78208 0.0
H3872 H 0.87427 0.60232 0.83554 0.0
H3873 H 0.89976 0.58808 0.76814 0.0
H3874 H 0.84531 0.64479 0.82138 0.0
H3875 H 0.82569 0.61481 0.81536 0.0
H3876 H 0.84668 0.62403 0.8412 0.0
H3877 H 0.88592 0.59785 0.73396 0.0
H3878 H 0.85645 0.59647 0.73248 0.0
H3879 H 0.87705 0.62587 0.73983 0.0
H3880 H 0.79398 0.60927 0.73385 0.0
H3881 H 0.84387 0.67969 0.75203 0.0
H3882 H 0.81549 0.58261 0.7793 0.0
H3883 H 0.82455 0.57385 0.75093 0.0
H3884 H 0.79618 0.57621 0.75236 0.0
H3885 H 0.87518 0.66708 0.80108 0.0
H3886 H 0.87527 0.68802 0.78114 0.0
H3887 H 0.88696 0.66212 0.77371 0.0
C3888 C 0.86554 0.66201 0.02048 0.0
C3889 C 0.85111 0.65277 0.9989 0.0
C3890 C 0.8824 0.65085 0.0264 0.0
C3891 C 0.88475 0.6297 0.01054 0.0
C3892 C 0.87081 0.62083 0.98835 0.0
C3893 C 0.85424 0.63253 0.98275 0.0
C3894 C 0.89716 0.66115 0.05008 0.0
C3895 C 0.87277 0.59832 0.97096 0.0
C3896 C 0.93717 0.60828 0.02365 0.0
C3897 C 0.9291 0.59021 0.03679 0.0
C3898 C 0.92283 0.62079 0.01426 0.0
C3899 C 0.89998 0.61536 0.01839 0.0
C3900 C 0.89164 0.59669 0.03103 0.0
C3901 C 0.90619 0.58421 0.0398 0.0
C3902 C 0.93232 0.64033 0.00058 0.0
C3903 C 0.86743 0.59034 0.03595 0.0
H3904 H 0.86351 0.67787 0.03292 0.0
H3905 H 0.84327 0.62532 0.96599 0.0
H3906 H 0.89362 0.64748 0.06164 0.0
H3907 H 0.91518 0.66446 0.04743 0.0
H3908 H 0.89441 0.67879 0.05956 0.0
H3909 H 0.86244 0.59532 0.9535 0.0
H3910 H 0.89058 0.60016 0.96796 0.0
H3911 H 0.86712 0.58162 0.97852 0.0
H3912 H 0.95485 0.61325 0.02133 0.0
H3913 H 0.89959 0.56986 0.04935 0.0
H3914 H 0.93266 0.65886 0.01107 0.0
H3915 H 0.92144 0.63727 0.98348 0.0
H3916 H 0.94969 0.6405 0.99672 0.0
H3917 H 0.86395 0.60679 0.04705 0.0
H3918 H 0.86341 0.57482 0.0454 0.0
H3919 H 0.85593 0.58521 0.01899 0.0
C3920 C 0.23165 0.10024 0.79494 0.0
C3921 C 0.2191 0.08502 0.77362 0.0
C3922 C 0.2445 0.12504 0.79604 0.0
C3923 C 0.2447 0.13556 0.77546 0.0
C3924 C 0.23232 0.12007 0.75381 0.0
C3925 C 0.21975 0.09535 0.75322 0.0
C3926 C 0.25711 0.1404 0.81962 0.0
C3927 C 0.23156 0.12995 0.73132 0.0
C3928 C 0.2575 0.20697 0.78216 0.0
C3929 C 0.28018 0.2141 0.77794 0.0
C3930 C 0.24602 0.1819 0.78177 0.0
C3931 C 0.25709 0.1628 0.77668 0.0
C3932 C 0.27994 0.16989 0.77237 0.0
C3933 C 0.29107 0.19512 0.77313 0.0
C3934 C 0.22185 0.17582 0.78671 0.0
C3935 C 0.29268 0.15067 0.76661 0.0
H3936 H 0.23064 0.09309 0.81111 0.0
H3937 H 0.20946 0.08434 0.73684 0.0
H3938 H 0.27481 0.1492 0.81753 0.0
H3939 H 0.24927 0.15552 0.82596 0.0
H3940 H 0.25706 0.12923 0.83347 0.0
H3941 H 0.22211 0.11548 0.71568 0.0
H3942 H 0.22341 0.14532 0.73384 0.0
H3943 H 0.2489 0.13761 0.72737 0.0
H3944 H 0.24859 0.22109 0.78582 0.0
H3945 H 0.30828 0.19983 0.76931 0.0
H3946 H 0.22008 0.1663 0.80187 0.0
H3947 H 0.21092 0.16292 0.77096 0.0
H3948 H 0.21567 0.1926 0.791 0.0
H3949 H 0.29292 0.14063 0.78132 0.0
H3950 H 0.31032 0.15892 0.7638 0.0
H3951 H 0.28404 0.1368 0.75026 0.0
C3952 C 0.38068 0.95159 0.26681 0.0
C3953 C 0.38182 0.97258 0.2842 0.0
C3954 C 0.36601 0.92911 0.26764 0.0
C3955 C 0.35247 0.92818 0.28644 0.0
C3956 C 0.35128 0.95002 0.30188 0.0
C3957 C 0.36617 0.97238 0.30052 0.0
C3958 C 0.36765 0.90607 0.25069 0.0
C3959 C 0.33679 0.94939 0.32185 0.0
C3960 C 0.3189 0.86345 0.27954 0.0
C3961 C 0.33545 0.85376 0.28892 0.0
C3962 C 0.32307 0.88874 0.28089 0.0
C3963 C 0.3439 0.9043 0.29263 0.0
C3964 C 0.35931 0.89488 0.305 0.0
C3965 C 0.3553 0.86935 0.30205 0.0
C3966 C 0.30673 0.8981 0.26681 0.0
C3967 C 0.38124 0.91139 0.31885 0.0
H3968 H 0.39292 0.95224 0.25419 0.0
H3969 H 0.36735 0.98892 0.31394 0.0
H3970 H 0.35081 0.89288 0.24457 0.0
H3971 H 0.37562 0.91054 0.2348 0.0
H3972 H 0.37813 0.89664 0.26002 0.0
H3973 H 0.33332 0.96759 0.32794 0.0
H3974 H 0.32057 0.93487 0.31635 0.0
H3975 H 0.34572 0.94501 0.33721 0.0
H3976 H 0.30355 0.85123 0.26926 0.0
H3977 H 0.36787 0.86156 0.30937 0.0
H3978 H 0.31225 0.89922 0.24903 0.0
H3979 H 0.30624 0.9169 0.27575 0.0
H3980 H 0.28944 0.88541 0.26401 0.0
H3981 H 0.39361 0.91608 0.30627 0.0
H3982 H 0.38845 0.90209 0.33157 0.0
H3983 H 0.37887 0.92893 0.32896 0.0
C3984 C 0.57514 0.37723 0.56938 0.0
C3985 C 0.59746 0.37539 0.57012 0.0
C3986 C 0.56888 0.3974 0.56219 0.0
C3987 C 0.58535 0.417 0.55627 0.0
C3988 C 0.60789 0.4152 0.55704 0.0
C3989 C 0.61353 0.39445 0.5635 0.0
C3990 C 0.54453 0.39779 0.56102 0.0
C3991 C 0.62636 0.43568 0.55177 0.0
C3992 C 0.57032 0.46635 0.5243 0.0
C3993 C 0.57183 0.48619 0.54358 0.0
C3994 C 0.57394 0.44352 0.52803 0.0
C3995 C 0.57956 0.44035 0.55154 0.0
C3996 C 0.58051 0.4602 0.5709 0.0
C3997 C 0.57652 0.48244 0.56671 0.0
C3998 C 0.57214 0.42292 0.50674 0.0
C3999 C 0.58645 0.45833 0.59628 0.0
H4000 H 0.56241 0.36268 0.57416 0.0
H4001 H 0.63084 0.39354 0.56403 0.0
H4002 H 0.5428 0.4139 0.57418 0.0
H4003 H 0.53854 0.4 0.54311 0.0
H4004 H 0.53346 0.38063 0.56467 0.0
H4005 H 0.64287 0.43129 0.55221 0.0
H4006 H 0.62198 0.43924 0.53397 0.0
H4007 H 0.62812 0.45307 0.56509 0.0
H4008 H 0.56676 0.46879 0.50633 0.0
H4009 H 0.5776 0.49737 0.58187 0.0
H4010 H 0.56069 0.40546 0.50929 0.0
H4011 H 0.58891 0.41961 0.50493 0.0
H4012 H 0.5658 0.42722 0.48992 0.0
H4013 H 0.57423 0.44235 0.60056 0.0
H4014 H 0.58652 0.47533 0.60941 0.0
H4015 H 0.60335 0.45507 0.59841 0.0
C4016 C 0.44951 0.75182 0.36799 0.0
C4017 C 0.4498 0.75798 0.39288 0.0
C4018 C 0.43158 0.75377 0.35214 0.0
C4019 C 0.41373 0.76283 0.36122 0.0
C4020 C 0.41422 0.7694 0.38629 0.0
C4021 C 0.43188 0.76662 0.4016 0.0
C4022 C 0.43181 0.74624 0.32563 0.0
C4023 C 0.39618 0.77981 0.39709 0.0
C4024 C 0.37804 0.79218 0.32375 0.0
C4025 C 0.35761 0.77358 0.31725 0.0
C4026 C 0.39652 0.7887 0.33739 0.0
C4027 C 0.39471 0.766 0.34486 0.0
C4028 C 0.37407 0.74706 0.33799 0.0
C4029 C 0.35589 0.75104 0.32425 0.0
C4030 C 0.41793 0.80952 0.3441 0.0
C4031 C 0.37111 0.72254 0.34527 0.0
H4032 H 0.46316 0.74524 0.36087 0.0
H4033 H 0.43186 0.77187 0.4207 0.0
H4034 H 0.41532 0.73347 0.31707 0.0
H4035 H 0.43451 0.76285 0.3177 0.0
H4036 H 0.44528 0.73704 0.32131 0.0
H4037 H 0.39911 0.78451 0.4169 0.0
H4038 H 0.39552 0.79679 0.39066 0.0
H4039 H 0.37946 0.76622 0.39135 0.0
H4040 H 0.37957 0.80954 0.3181 0.0
H4041 H 0.34026 0.7365 0.31898 0.0
H4042 H 0.43233 0.80301 0.33773 0.0
H4043 H 0.42155 0.81555 0.3638 0.0
H4044 H 0.41693 0.82578 0.33651 0.0
H4045 H 0.38456 0.71404 0.33922 0.0
H4046 H 0.35447 0.70937 0.33777 0.0
H4047 H 0.37272 0.72545 0.36499 0.0
C4048 C 0.11444 0.72856 0.05904 0.0
C4049 C 0.09707 0.73991 0.0638 0.0
C4050 C 0.11029 0.70255 0.05305 0.0
C4051 C 0.08806 0.6871 0.05106 0.0
C4052 C 0.07029 0.69846 0.05506 0.0
C4053 C 0.07503 0.72459 0.06178 0.0
C4054 C 0.12993 0.69162 0.04982 0.0
C4055 C 0.04622 0.68296 0.05246 0.0
C4056 C 0.07284 0.61954 0.01618 0.0
C4057 C 0.07144 0.60624 0.03443 0.0
C4058 C 0.07897 0.6457 0.02125 0.0
C4059 C 0.08346 0.65917 0.04528 0.0
C4060 C 0.08273 0.64576 0.06378 0.0
C4061 C 0.07648 0.61955 0.05816 0.0
C4062 C 0.07947 0.65886 0.00083 0.0
C4063 C 0.08764 0.65908 0.08962 0.0
H4064 H 0.1316 0.74006 0.06091 0.0
H4065 H 0.06144 0.73304 0.06541 0.0
H4066 H 0.13239 0.68244 0.06477 0.0
H4067 H 0.12649 0.67734 0.03304 0.0
H4068 H 0.14582 0.70587 0.0495 0.0
H4069 H 0.03413 0.69446 0.05412 0.0
H4070 H 0.0418 0.66983 0.03487 0.0
H4071 H 0.04421 0.67177 0.06636 0.0
H4072 H 0.06816 0.60937 0.99783 0.0
H4073 H 0.07452 0.60942 0.07237 0.0
H4074 H 0.09579 0.67307 0.00254 0.0
H4075 H 0.06603 0.6686 0.00133 0.0
H4076 H 0.07693 0.6459 0.98322 0.0
H4077 H 0.10421 0.67314 0.09286 0.0
H4078 H 0.08775 0.64621 0.10186 0.0
H4079 H 0.07473 0.66905 0.09405 0.0
C4080 C 0.08539 0.29643 0.87452 0.0
C4081 C 0.07864 0.28204 0.89129 0.0
C4082 C 0.10523 0.29626 0.86405 0.0
C4083 C 0.11915 0.28172 0.87076 0.0
C4084 C 0.11254 0.26721 0.88784 0.0
C4085 C 0.0923 0.26739 0.89774 0.0
C4086 C 0.11126 0.31166 0.84563 0.0
C4087 C 0.12702 0.2519 0.89601 0.0
C4088 C 0.15722 0.26884 0.82364 0.0
C4089 C 0.17651 0.28872 0.83151 0.0
C4090 C 0.13916 0.26499 0.83729 0.0
C4091 C 0.14023 0.28164 0.85928 0.0
C4092 C 0.16049 0.30056 0.86818 0.0
C4093 C 0.17834 0.30398 0.85411 0.0
C4094 C 0.11819 0.2443 0.82719 0.0
C4095 C 0.1627 0.31837 0.89174 0.0
H4096 H 0.07499 0.30775 0.86933 0.0
H4097 H 0.08742 0.25642 0.9109 0.0
H4098 H 0.1278 0.3255 0.85177 0.0
H4099 H 0.11286 0.29963 0.82865 0.0
H4100 H 0.09851 0.3216 0.84201 0.0
H4101 H 0.11844 0.2396 0.90733 0.0
H4102 H 0.13177 0.24039 0.8805 0.0
H4103 H 0.14285 0.26439 0.90649 0.0
H4104 H 0.15571 0.25717 0.80608 0.0
H4105 H 0.19313 0.31954 0.86014 0.0
H4106 H 0.1047 0.25222 0.82109 0.0
H4107 H 0.11199 0.2341 0.84105 0.0
H4108 H 0.12112 0.23095 0.81183 0.0
H4109 H 0.15246 0.33147 0.88983 0.0
H4110 H 0.18044 0.32925 0.89796 0.0
H4111 H 0.15622 0.30829 0.90559 0.0
C4112 C 0.62951 0.77428 0.94837 0.0
C4113 C 0.61317 0.78141 0.93562 0.0
C4114 C 0.62304 0.75486 0.96024 0.0
C4115 C 0.59983 0.74306 0.95929 0.0
C4116 C 0.58344 0.74968 0.94543 0.0
C4117 C 0.59041 0.76887 0.93364 0.0
C4118 C 0.64081 0.74772 0.97456 0.0
C4119 C 0.55851 0.73764 0.94423 0.0
C4120 C 0.57707 0.6832 0.97838 0.0
C4121 C 0.57204 0.69186 0.00132 0.0
C4122 C 0.58743 0.69975 0.96491 0.0
C4123 C 0.59225 0.7254 0.97444 0.0
C4124 C 0.58742 0.73426 0.99759 0.0
C4125 C 0.5775 0.7173 0.01086 0.0
C4126 C 0.59239 0.68986 0.94019 0.0
C4127 C 0.59188 0.76163 0.00798 0.0
H4128 H 0.64708 0.78438 0.94972 0.0
H4129 H 0.57797 0.77487 0.9237 0.0
H4130 H 0.63871 0.75173 0.99376 0.0
H4131 H 0.63885 0.72753 0.96909 0.0
H4132 H 0.65813 0.75785 0.97234 0.0
H4133 H 0.54819 0.74411 0.9315 0.0
H4134 H 0.55489 0.71721 0.93879 0.0
H4135 H 0.55311 0.74191 0.96215 0.0
H4136 H 0.57251 0.66349 0.97074 0.0
H4137 H 0.57393 0.72396 0.02869 0.0
H4138 H 0.60987 0.69917 0.93777 0.0
H4139 H 0.58094 0.69388 0.92665 0.0
H4140 H 0.59018 0.66953 0.93661 0.0
H4141 H 0.60964 0.77142 0.0072 0.0
H4142 H 0.5884 0.76539 0.02679 0.0
H4143 H 0.58108 0.7696 0.99727 0.0
C4144 C 0.07491 0.76203 0.70307 0.0
C4145 C 0.06152 0.74229 0.68564 0.0
C4146 C 0.09684 0.76213 0.71104 0.0
C4147 C 0.10549 0.7424 0.70062 0.0
C4148 C 0.09281 0.72398 0.68112 0.0
C4149 C 0.07064 0.72379 0.67424 0.0
C4150 C 0.11002 0.78221 0.73184 0.0
C4151 C 0.102 0.7036 0.66853 0.0
C4152 C 0.16575 0.75352 0.72615 0.0
C4153 C 0.16287 0.74143 0.7453 0.0
C4154 C 0.14738 0.75198 0.70969 0.0
C4155 C 0.12568 0.73882 0.7131 0.0
C4156 C 0.12293 0.72504 0.73122 0.0
C4157 C 0.14167 0.72628 0.74694 0.0
C4158 C 0.1511 0.76581 0.68977 0.0
C4159 C 0.09996 0.71058 0.73526 0.0
H4160 H 0.06775 0.77644 0.71157 0.0
H4161 H 0.06025 0.70885 0.66031 0.0
H4162 H 0.11335 0.77391 0.74723 0.0
H4163 H 0.12655 0.79155 0.72703 0.0
H4164 H 0.10098 0.79641 0.73756 0.0
H4165 H 0.09316 0.69566 0.65014 0.0
H4166 H 0.12031 0.71047 0.66761 0.0
H4167 H 0.09953 0.68848 0.67848 0.0
H4168 H 0.18209 0.76534 0.72467 0.0
H4169 H 0.13953 0.7163 0.76125 0.0
H4170 H 0.14901 0.78466 0.69571 0.0
H4171 H 0.13882 0.7563 0.67365 0.0
H4172 H 0.16842 0.76785 0.68485 0.0
H4173 H 0.08949 0.72346 0.74034 0.0
H4174 H 0.10091 0.70009 0.74954 0.0
H4175 H 0.09122 0.6973 0.71863 0.0
C4176 C 0.14013 0.41459 0.45661 0.0
C4177 C 0.13973 0.40413 0.43257 0.0
C4178 C 0.13312 0.43599 0.46309 0.0
C4179 C 0.12596 0.44692 0.44491 0.0
C4180 C 0.12911 0.43871 0.42099 0.0
C4181 C 0.13629 0.41726 0.41504 0.0
C4182 C 0.1302 0.44454 0.48888 0.0
C4183 C 0.12186 0.45036 0.40134 0.0
C4184 C 0.0756 0.46933 0.45996 0.0
C4185 C 0.08572 0.49454 0.4682 0.0
C4186 C 0.08836 0.45369 0.45064 0.0
C4187 C 0.11177 0.46376 0.45049 0.0
C4188 C 0.12178 0.48943 0.45801 0.0
C4189 C 0.10846 0.50473 0.46662 0.0
C4190 C 0.07706 0.42632 0.44215 0.0
C4191 C 0.14673 0.50034 0.45843 0.0
H4192 H 0.14276 0.40415 0.46998 0.0
H4193 H 0.13587 0.4089 0.39639 0.0
H4194 H 0.13543 0.46505 0.49429 0.0
H4195 H 0.11215 0.43817 0.4912 0.0
H4196 H 0.14003 0.43693 0.50105 0.0
H4197 H 0.1289 0.44468 0.38464 0.0
H4198 H 0.10321 0.4445 0.39751 0.0
H4199 H 0.12713 0.47086 0.40684 0.0
H4200 H 0.05791 0.46186 0.46136 0.0
H4201 H 0.11602 0.52442 0.47312 0.0
H4202 H 0.08333 0.41592 0.45436 0.0
H4203 H 0.08121 0.41953 0.42412 0.0
H4204 H 0.05844 0.42204 0.44145 0.0
H4205 H 0.15594 0.49629 0.4738 0.0
H4206 H 0.15103 0.52062 0.46009 0.0
H4207 H 0.15283 0.49203 0.44205 0.0
C4208 C 0.43794 0.26906 0.19797 0.0
C4209 C 0.44943 0.25385 0.20707 0.0
C4210 C 0.41711 0.27048 0.20488 0.0
C4211 C 0.40805 0.25672 0.22154 0.0
C4212 C 0.41962 0.24148 0.23091 0.0
C4213 C 0.44042 0.24051 0.22379 0.0
C4214 C 0.4051 0.28681 0.19441 0.0
C4215 C 0.40979 0.22575 0.248 0.0
C4216 C 0.36717 0.27332 0.26211 0.0
C4217 C 0.34691 0.25855 0.2491 0.0
C4218 C 0.38723 0.27446 0.25222 0.0
C4219 C 0.38679 0.25861 0.23004 0.0
C4220 C 0.36635 0.2426 0.21747 0.0
C4221 C 0.34645 0.2433 0.22696 0.0
C4222 C 0.40889 0.29224 0.26548 0.0
C4223 C 0.36555 0.22421 0.19458 0.0
H4224 H 0.44476 0.27912 0.18476 0.0
H4225 H 0.44922 0.22857 0.23066 0.0
H4226 H 0.38661 0.27863 0.19118 0.0
H4227 H 0.40862 0.30479 0.20723 0.0
H4228 H 0.4111 0.29048 0.17737 0.0
H4229 H 0.42012 0.21328 0.25188 0.0
H4230 H 0.40853 0.23779 0.26509 0.0
H4231 H 0.3925 0.21427 0.24052 0.0
H4232 H 0.36724 0.28401 0.27977 0.0
H4233 H 0.33052 0.23149 0.21734 0.0
H4234 H 0.41677 0.30457 0.25385 0.0
H4235 H 0.42106 0.28199 0.27001 0.0
H4236 H 0.40615 0.30377 0.28223 0.0
H4237 H 0.37206 0.23412 0.18065 0.0
H4238 H 0.3482 0.21234 0.1878 0.0
H4239 H 0.37649 0.21206 0.19749 0.0
C4240 C 0.61702 0.52277 0.34014 0.0
C4241 C 0.63407 0.511 0.33358 0.0
C4242 C 0.60855 0.52388 0.36267 0.0
C4243 C 0.61669 0.51278 0.38038 0.0
C4244 C 0.63349 0.50023 0.37389 0.0
C4245 C 0.64193 0.49957 0.35103 0.0
C4246 C 0.59092 0.5376 0.36765 0.0
C4247 C 0.64263 0.48735 0.39128 0.0
C4248 C 0.60979 0.53837 0.44737 0.0
C4249 C 0.58962 0.52232 0.45161 0.0
C4250 C 0.61873 0.53525 0.42497 0.0
C4251 C 0.60794 0.51514 0.40546 0.0
C4252 C 0.58783 0.49853 0.40979 0.0
C4253 C 0.57897 0.5024 0.43223 0.0
C4254 C 0.63968 0.55415 0.42201 0.0
C4255 C 0.57524 0.47659 0.39047 0.0
H4256 H 0.61022 0.53177 0.32753 0.0
H4257 H 0.65492 0.49032 0.34702 0.0
H4258 H 0.57556 0.525 0.37176 0.0
H4259 H 0.59726 0.55297 0.38354 0.0
H4260 H 0.58615 0.54541 0.35238 0.0
H4261 H 0.65536 0.47826 0.38409 0.0
H4262 H 0.65042 0.50086 0.40813 0.0
H4263 H 0.62862 0.47314 0.39574 0.0
H4264 H 0.61855 0.55396 0.46156 0.0
H4265 H 0.5635 0.48956 0.43454 0.0
H4266 H 0.63587 0.56343 0.40752 0.0
H4267 H 0.65284 0.54486 0.41668 0.0
H4268 H 0.64655 0.56849 0.4386 0.0
H4269 H 0.56642 0.48302 0.37647 0.0
H4270 H 0.56251 0.46306 0.39744 0.0
H4271 H 0.58708 0.46701 0.38189 0.0
C4272 C 0.31423 0.89178 0.07275 0.0
C4273 C 0.33542 0.90556 0.06943 0.0
C4274 C 0.31118 0.8852 0.09468 0.0
C4275 C 0.32989 0.89267 0.1126 0.0
C4276 C 0.34918 0.91149 0.11083 0.0
C4277 C 0.35164 0.91791 0.08889 0.0
C4278 C 0.28993 0.86619 0.09667 0.0
C4279 C 0.36946 0.92028 0.12972 0.0
C4280 C 0.34117 0.86826 0.16652 0.0
C4281 C 0.35326 0.85167 0.15727 0.0
C4282 C 0.33097 0.88003 0.15157 0.0
C4283 C 0.33337 0.87518 0.12713 0.0
C4284 C 0.34396 0.85677 0.11746 0.0
C4285 C 0.35394 0.84532 0.13284 0.0
C4286 C 0.31921 0.89888 0.16224 0.0
C4287 C 0.34648 0.85052 0.09124 0.0
H4288 H 0.30152 0.88283 0.05751 0.0
H4289 H 0.3678 0.9291 0.08601 0.0
H4290 H 0.29152 0.84739 0.08922 0.0
H4291 H 0.28678 0.86713 0.11551 0.0
H4292 H 0.27521 0.86881 0.08623 0.0
H4293 H 0.38096 0.93794 0.12763 0.0
H4294 H 0.36433 0.92294 0.14786 0.0
H4295 H 0.37904 0.90612 0.12812 0.0
H4296 H 0.34034 0.87265 0.18555 0.0
H4297 H 0.36264 0.83173 0.12588 0.0
H4298 H 0.30547 0.90004 0.14936 0.0
H4299 H 0.33152 0.91741 0.1674 0.0
H4300 H 0.31211 0.89441 0.17856 0.0
H4301 H 0.33016 0.84708 0.08009 0.0
H4302 H 0.35277 0.83385 0.08657 0.0
H4303 H 0.35863 0.86629 0.08653 0.0
C4304 C 0.94934 0.52852 0.88575 0.0
C4305 C 0.95453 0.53837 0.86587 0.0
C4306 C 0.96654 0.52587 0.90115 0.0
C4307 C 0.98894 0.53307 0.89586 0.0
C4308 C 0.99387 0.54077 0.87458 0.0
C4309 C 0.97646 0.54352 0.85976 0.0
C4310 C 0.96097 0.51722 0.92379 0.0
C4311 C 0.01765 0.54781 0.8684 0.0
C4312 C 0.0293 0.56399 0.9505 0.0
C4313 C 0.03716 0.54422 0.9545 0.0
C4314 C 0.01412 0.56083 0.93051 0.0
C4315 C 0.00733 0.53743 0.91455 0.0
C4316 C 0.01696 0.51812 0.91754 0.0
C4317 C 0.03189 0.52177 0.93792 0.0
C4318 C 0.00381 0.58167 0.92772 0.0
C4319 C 0.00994 0.49307 0.90066 0.0
H4320 H 0.93204 0.52361 0.88954 0.0
H4321 H 0.97998 0.54985 0.84344 0.0
H4322 H 0.97047 0.50392 0.92732 0.0
H4323 H 0.96593 0.53337 0.93909 0.0
H4324 H 0.94269 0.5083 0.92302 0.0
H4325 H 0.01805 0.54956 0.84953 0.0
H4326 H 0.02709 0.56585 0.88006 0.0
H4327 H 0.02655 0.53388 0.87161 0.0
H4328 H 0.03336 0.58101 0.96406 0.0
H4329 H 0.03797 0.50652 0.94188 0.0
H4330 H 0.98566 0.57615 0.92986 0.0
H4331 H 0.00511 0.58557 0.90964 0.0
H4332 H 0.01204 0.59902 0.9411 0.0
H4333 H 0.99354 0.48228 0.90457 0.0
H4334 H 0.02242 0.48235 0.90265 0.0
H4335 H 0.00774 0.49491 0.88185 0.0
C4336 C 0.32236 0.25727 0.5941 0.0
C4337 C 0.30127 0.24734 0.58027 0.0
C4338 C 0.32405 0.26436 0.61919 0.0
C4339 C 0.30423 0.26041 0.63061 0.0
C4340 C 0.28299 0.25056 0.61652 0.0
C4341 C 0.28178 0.24457 0.59161 0.0
C4342 C 0.34701 0.27539 0.6335 0.0
C4343 C 0.2615 0.2453 0.62779 0.0
C4344 C 0.30629 0.24457 0.69172 0.0
C4345 C 0.30569 0.26665 0.70692 0.0
C4346 C 0.30667 0.24276 0.66715 0.0
C4347 C 0.30557 0.26328 0.65711 0.0
C4348 C 0.30433 0.28553 0.67223 0.0
C4349 C 0.30493 0.28714 0.69707 0.0
C4350 C 0.30834 0.21879 0.65193 0.0
C4351 C 0.30267 0.30767 0.66223 0.0
H4352 H 0.33745 0.25961 0.58532 0.0
H4353 H 0.26546 0.23672 0.58092 0.0
H4354 H 0.34705 0.29203 0.64707 0.0
H4355 H 0.35127 0.26174 0.64316 0.0
H4356 H 0.36032 0.28066 0.62203 0.0
H4357 H 0.24625 0.23848 0.61435 0.0
H4358 H 0.26156 0.23114 0.63859 0.0
H4359 H 0.26038 0.26234 0.63999 0.0
H4360 H 0.30714 0.22871 0.69921 0.0
H4361 H 0.30509 0.30446 0.70877 0.0
H4362 H 0.32319 0.22236 0.64209 0.0
H4363 H 0.2932 0.21073 0.63849 0.0
H4364 H 0.30991 0.20489 0.66264 0.0
H4365 H 0.31812 0.31452 0.65412 0.0
H4366 H 0.30051 0.32302 0.67611 0.0
H4367 H 0.28823 0.30233 0.64791 0.0
C4368 C 0.63668 0.49811 0.1736 0.0
C4369 C 0.63161 0.51153 0.19488 0.0
C4370 C 0.62783 0.4999 0.15018 0.0
C4371 C 0.61385 0.51601 0.14712 0.0
C4372 C 0.60849 0.52913 0.16848 0.0
C4373 C 0.61699 0.52658 0.19136 0.0
C4374 C 0.63344 0.48433 0.12852 0.0
C4375 C 0.59389 0.54656 0.16728 0.0
C4376 C 0.61277 0.54164 0.08827 0.0
C4377 C 0.59076 0.53066 0.07617 0.0
C4378 C 0.61996 0.53768 0.11109 0.0
C4379 C 0.60577 0.52037 0.12218 0.0
C4380 C 0.58364 0.50847 0.10963 0.0
C4381 C 0.57643 0.51397 0.08737 0.0
C4382 C 0.643 0.55245 0.1235 0.0
C4383 C 0.5677 0.4887 0.11884 0.0
H4384 H 0.64765 0.48625 0.17512 0.0
H4385 H 0.6123 0.5372 0.20689 0.0
H4386 H 0.61803 0.47517 0.1156 0.0
H4387 H 0.64546 0.49633 0.11946 0.0
H4388 H 0.6411 0.46994 0.13319 0.0
H4389 H 0.59202 0.55655 0.18522 0.0
H4390 H 0.60117 0.56039 0.15678 0.0
H4391 H 0.57688 0.53605 0.15803 0.0
H4392 H 0.62465 0.55368 0.07982 0.0
H4393 H 0.55977 0.50417 0.07814 0.0
H4394 H 0.654 0.53996 0.12442 0.0
H4395 H 0.64181 0.56135 0.14208 0.0
H4396 H 0.6511 0.56708 0.11418 0.0
H4397 H 0.57207 0.47094 0.11332 0.0
H4398 H 0.54994 0.486 0.11139 0.0
H4399 H 0.56905 0.49299 0.13858 0.0
C4400 C 0.36273 0.88513 0.94793 0.0
C4401 C 0.34618 0.89761 0.95269 0.0
C4402 C 0.36037 0.86793 0.92681 0.0
C4403 C 0.34173 0.86437 0.90973 0.0
C4404 C 0.32575 0.87808 0.91358 0.0
C4405 C 0.32809 0.89458 0.93532 0.0
C4406 C 0.3774 0.85308 0.92309 0.0
C4407 C 0.30609 0.87496 0.89497 0.0
C4408 C 0.34919 0.84109 0.84697 0.0
C4409 C 0.33387 0.81762 0.84216 0.0
C4410 C 0.35175 0.8567 0.86909 0.0
C4411 C 0.33998 0.84762 0.887 0.0
C4412 C 0.32644 0.82294 0.88305 0.0
C4413 C 0.32331 0.80814 0.86025 0.0
C4414 C 0.36571 0.8833 0.87271 0.0
C4415 C 0.31475 0.81257 0.90251 0.0
H4416 H 0.37689 0.8876 0.96127 0.0
H4417 H 0.31539 0.90437 0.93902 0.0
H4418 H 0.36869 0.83298 0.91824 0.0
H4419 H 0.38676 0.85768 0.90811 0.0
H4420 H 0.38976 0.85665 0.93921 0.0
H4421 H 0.29559 0.88765 0.90067 0.0
H4422 H 0.3123 0.87849 0.878 0.0
H4423 H 0.29527 0.85563 0.89122 0.0
H4424 H 0.35782 0.84806 0.83293 0.0
H4425 H 0.31247 0.78945 0.85649 0.0
H4426 H 0.37949 0.88758 0.88758 0.0
H4427 H 0.35504 0.89599 0.87762 0.0
H4428 H 0.37324 0.88738 0.85648 0.0
H4429 H 0.32726 0.81482 0.91816 0.0
H4430 H 0.30558 0.79263 0.8965 0.0
H4431 H 0.30255 0.82297 0.90855 0.0
C4432 C 0.95907 0.54994 0.73757 0.0
C4433 C 0.96678 0.53482 0.75096 0.0
C4434 C 0.96338 0.54923 0.71401 0.0
C4435 C 0.97618 0.53353 0.70407 0.0
C4436 C 0.98371 0.51796 0.71744 0.0
C4437 C 0.97867 0.51863 0.74075 0.0
C4438 C 0.95417 0.56507 0.6998 0.0
C4439 C 0.99739 0.50084 0.70727 0.0
C4440 C 0.98461 0.50948 0.64188 0.0
C4441 C 0.00712 0.52251 0.64277 0.0
C4442 C 0.97251 0.51545 0.66067 0.0
C4443 C 0.98363 0.53447 0.68053 0.0
C4444 C 0.00527 0.54988 0.67964 0.0
C4445 C 0.01693 0.54351 0.66066 0.0
C4446 C 0.94904 0.49936 0.66054 0.0
C4447 C 0.01739 0.57081 0.70023 0.0
H4448 H 0.94915 0.56187 0.74532 0.0
H4449 H 0.98421 0.5067 0.75109 0.0
H4450 H 0.96815 0.57833 0.69419 0.0
H4451 H 0.94357 0.55325 0.68332 0.0
H4452 H 0.94389 0.57566 0.71008 0.0
H4453 H 0.00198 0.49012 0.72016 0.0
H4454 H 0.98773 0.48757 0.69102 0.0
H4455 H 0.01312 0.5117 0.70204 0.0
H4456 H 0.97705 0.49361 0.62744 0.0
H4457 H 0.03425 0.55382 0.66067 0.0
H4458 H 0.93868 0.50972 0.67088 0.0
H4459 H 0.95006 0.48353 0.66878 0.0
H4460 H 0.94043 0.49172 0.64202 0.0
H4461 H 0.00579 0.58131 0.70783 0.0
H4462 H 0.03169 0.58386 0.69475 0.0
H4463 H 0.02412 0.56303 0.71456 0.0
C4464 C 0.32301 0.22417 0.43379 0.0
C4465 C 0.31164 0.2384 0.44833 0.0
C4466 C 0.32612 0.22745 0.41044 0.0
C4467 C 0.31743 0.24511 0.40137 0.0
C4468 C 0.3069 0.26026 0.41637 0.0
C4469 C 0.30434 0.25688 0.43962 0.0
C4470 C 0.33791 0.21135 0.39516 0.0
C4471 C 0.29704 0.27907 0.4074 0.0
C4472 C 0.33241 0.26825 0.34523 0.0
C4473 C 0.31392 0.25404 0.32846 0.0
C4474 C 0.33453 0.26461 0.36869 0.0
C4475 C 0.31755 0.24656 0.37573 0.0
C4476 C 0.29955 0.2312 0.3585 0.0
C4477 C 0.29838 0.23464 0.33496 0.0
C4478 C 0.35452 0.28068 0.38614 0.0
C4479 C 0.28098 0.21161 0.36496 0.0
H4480 H 0.32876 0.20987 0.44028 0.0
H4481 H 0.29567 0.26814 0.45068 0.0
H4482 H 0.32545 0.1977 0.38104 0.0
H4483 H 0.35053 0.22274 0.38616 0.0
H4484 H 0.34646 0.20111 0.40571 0.0
H4485 H 0.28993 0.28987 0.42152 0.0
H4486 H 0.31009 0.29219 0.40043 0.0
H4487 H 0.28346 0.26947 0.39244 0.0
H4488 H 0.34513 0.28255 0.34018 0.0
H4489 H 0.28457 0.22278 0.322 0.0
H4490 H 0.36252 0.26902 0.39537 0.0
H4491 H 0.34889 0.29334 0.39999 0.0
H4492 H 0.36735 0.29205 0.37729 0.0
H4493 H 0.2873 0.19543 0.36679 0.0
H4494 H 0.26605 0.20514 0.35112 0.0
H4495 H 0.27549 0.21861 0.38223 0.0
C4496 C 0.35486 0.61196 0.5454 0.0
C4497 C 0.33456 0.59745 0.53169 0.0
C4498 C 0.37462 0.6045 0.54339 0.0
C4499 C 0.37376 0.58234 0.52712 0.0
C4500 C 0.35305 0.56705 0.51434 0.0
C4501 C 0.33362 0.57469 0.51706 0.0
C4502 C 0.39644 0.62095 0.55754 0.0
C4503 C 0.35154 0.54331 0.49663 0.0
C4504 C 0.41865 0.56807 0.49183 0.0
C4505 C 0.42322 0.54918 0.50194 0.0
C4506 C 0.40442 0.58154 0.50185 0.0
C4507 C 0.39436 0.57529 0.52195 0.0
C4508 C 0.40055 0.5577 0.53339 0.0
C4509 C 0.41514 0.54483 0.52321 0.0
C4510 C 0.39855 0.60076 0.48967 0.0
C4511 C 0.39011 0.55083 0.55492 0.0
H4512 H 0.35554 0.6296 0.55687 0.0
H4513 H 0.31791 0.56343 0.5066 0.0
H4514 H 0.40654 0.60981 0.56479 0.0
H4515 H 0.40662 0.63116 0.54569 0.0
H4516 H 0.39351 0.63471 0.57254 0.0
H4517 H 0.3339 0.53319 0.48898 0.0
H4518 H 0.36122 0.54757 0.48175 0.0
H4519 H 0.35898 0.53087 0.50527 0.0
H4520 H 0.42572 0.57179 0.47577 0.0
H4521 H 0.41935 0.53051 0.53116 0.0
H4522 H 0.3985 0.61754 0.50298 0.0
H4523 H 0.38138 0.59315 0.47969 0.0
H4524 H 0.41052 0.60627 0.47692 0.0
H4525 H 0.38971 0.56766 0.56797 0.0
H4526 H 0.39932 0.53996 0.5639 0.0
H4527 H 0.37243 0.53951 0.54927 0.0
C4528 C 0.90604 0.92617 0.55401 0.0
C4529 C 0.88591 0.92729 0.54187 0.0
C4530 C 0.92663 0.94337 0.55373 0.0
C4531 C 0.92733 0.96234 0.54091 0.0
C4532 C 0.90686 0.96457 0.52983 0.0
C4533 C 0.88633 0.94705 0.53052 0.0
C4534 C 0.94787 0.94017 0.56587 0.0
C4535 C 0.90683 0.98445 0.51592 0.0
C4536 C 0.98345 0.01245 0.55098 0.0
C4537 C 0.99454 1.0032 0.53237 0.0
C4538 C 0.96124 0.99995 0.55352 0.0
C4539 C 0.94974 0.97772 0.53702 0.0
C4540 C 0.96067 0.96867 0.5179 0.0
C4541 C 0.98286 0.98131 0.51596 0.0
C4542 C 0.95032 0.01017 0.57426 0.0
C4543 C 0.94917 0.94511 0.4998 0.0
H4544 H 0.90586 0.91107 0.56302 0.0
H4545 H 0.8709 0.94795 0.52097 0.0
H4546 H 0.95828 0.93423 0.55221 0.0
H4547 H 0.95806 0.95801 0.57727 0.0
H4548 H 0.94426 0.92612 0.57707 0.0
H4549 H 0.88957 0.98611 0.51148 0.0
H4550 H 0.91758 1.00264 0.5261 0.0
H4551 H 0.91397 0.97994 0.49903 0.0
H4552 H 0.99224 0.02921 0.56386 0.0
H4553 H 0.99108 0.9738 0.50151 0.0
H4554 H 0.94793 0.99734 0.58671 0.0
H4555 H 0.93341 0.01156 0.56792 0.0
H4556 H 0.96059 0.02872 0.58424 0.0
H4557 H 0.94688 0.92905 0.50852 0.0
H4558 H 0.95899 0.94195 0.48465 0.0
H4559 H 0.93221 0.94566 0.49262 0.0
C4560 C 0.89708 0.14418 0.25812 0.0
C4561 C 0.90651 0.1423 0.28071 0.0
C4562 C 0.88517 0.16256 0.25523 0.0
C4563 C 0.88235 0.18047 0.27515 0.0
C4564 C 0.89187 0.17859 0.29783 0.0
C4565 C 0.90333 0.16002 0.30024 0.0
C4566 C 0.87524 0.16255 0.23055 0.0
C4567 C 0.89001 0.19648 0.32001 0.0
C4568 C 0.86972 0.24255 0.26396 0.0
C4569 C 0.84716 0.24082 0.26858 0.0
C4570 C 0.88122 0.22402 0.26675 0.0
C4571 C 0.86998 0.20118 0.27267 0.0
C4572 C 0.84725 0.19931 0.27757 0.0
C4573 C 0.83679 0.21908 0.2764 0.0
C4574 C 0.90587 0.22936 0.26377 0.0
C4575 C 0.83305 0.17584 0.28304 0.0
H4576 H 0.89889 0.1312 0.24254 0.0
H4577 H 0.91003 0.15958 0.31802 0.0
H4578 H 0.85731 0.16266 0.2305 0.0
H4579 H 0.88429 0.17958 0.22502 0.0
H4580 H 0.87636 0.14625 0.21718 0.0
H4581 H 0.89984 0.19449 0.33611 0.0
H4582 H 0.896 0.21583 0.3177 0.0
H4583 H 0.87211 0.19328 0.32311 0.0
H4584 H 0.87885 0.25895 0.25837 0.0
H4585 H 0.82016 0.21695 0.28128 0.0
H4586 H 0.90816 0.21728 0.24719 0.0
H4587 H 0.91542 0.22527 0.2789 0.0
H4588 H 0.91322 0.24897 0.26281 0.0
H4589 H 0.82378 0.16359 0.26605 0.0
H4590 H 0.82039 0.1798 0.29483 0.0
H4591 H 0.84322 0.16552 0.29146 0.0
C4592 C 0.71689 0.07061 0.03185 0.0
C4593 C 0.72881 0.08956 0.02179 0.0
C4594 C 0.69336 0.06243 0.02695 0.0
C4595 C 0.68204 0.07507 0.01342 0.0
C4596 C 0.69426 0.09278 0.00173 0.0
C4597 C 0.71759 0.09887 0.00523 0.0
C4598 C 0.68086 0.04222 0.03833 0.0
C4599 C 0.68302 0.10808 0.98856 0.0
C4600 C 0.6209 0.06405 0.99341 0.0
C4601 C 0.61481 0.07962 0.01214 0.0
C4602 C 0.64227 0.06029 0.9947 0.0
C4603 C 0.65813 0.07352 0.01463 0.0
C4604 C 0.65199 0.0892 0.03373 0.0
C4605 C 0.6301 0.09187 0.03231 0.0
C4606 C 0.64806 0.0428 0.97446 0.0
C4607 C 0.66878 0.10395 0.05507 0.0
H4608 H 0.72567 0.06355 0.04478 0.0
H4609 H 0.72691 0.11376 0.99779 0.0
H4610 H 0.68133 0.04981 0.05761 0.0
H4611 H 0.66306 0.0344 0.03023 0.0
H4612 H 0.68932 0.02708 0.03675 0.0
H4613 H 0.69517 0.12104 0.98041 0.0
H4614 H 0.66981 0.09601 0.97426 0.0
H4615 H 0.67473 0.11916 0.00115 0.0
H4616 H 0.60868 0.05436 0.97793 0.0
H4617 H 0.62501 0.10361 0.04676 0.0
H4618 H 0.65845 0.03181 0.98147 0.0
H4619 H 0.65806 0.05347 0.96283 0.0
H4620 H 0.63274 0.02998 0.96323 0.0
H4621 H 0.67542 0.09126 0.06415 0.0
H4622 H 0.66129 0.11547 0.06817 0.0
H4623 H 0.68326 0.11632 0.0492 0.0
C4624 C 0.22509 0.48531 0.24763 0.0
C4625 C 0.22901 0.49249 0.2261 0.0
C4626 C 0.23538 0.46839 0.25482 0.0
C4627 C 0.2494 0.4585 0.23972 0.0
C4628 C 0.25121 0.46366 0.21677 0.0
C4629 C 0.24126 0.48125 0.21035 0.0
C4630 C 0.23326 0.46335 0.27954 0.0
C4631 C 0.26539 0.45253 0.20003 0.0
C4632 C 0.29979 0.45125 0.27476 0.0
C4633 C 0.29301 0.42604 0.27486 0.0
C4634 C 0.2861 0.46186 0.2622 0.0
C4635 C 0.26518 0.44674 0.24971 0.0
C4636 C 0.25876 0.42107 0.2486 0.0
C4637 C 0.27297 0.41093 0.26099 0.0
C4638 C 0.29348 0.48943 0.26339 0.0
C4639 C 0.23636 0.40462 0.2357 0.0
H4640 H 0.21559 0.4945 0.25967 0.0
H4641 H 0.24398 0.48712 0.19369 0.0
H4642 H 0.23046 0.44333 0.27919 0.0
H4643 H 0.24917 0.47336 0.2914 0.0
H4644 H 0.21927 0.46959 0.28744 0.0
H4645 H 0.26168 0.45486 0.18156 0.0
H4646 H 0.28346 0.46175 0.20634 0.0
H4647 H 0.26255 0.4325 0.19976 0.0
H4648 H 0.31558 0.46276 0.2849 0.0
H4649 H 0.26785 0.3913 0.26051 0.0
H4650 H 0.28203 0.49853 0.27333 0.0
H4651 H 0.2925 0.49321 0.24519 0.0
H4652 H 0.31096 0.49806 0.27239 0.0
H4653 H 0.22278 0.40764 0.24651 0.0
H4654 H 0.23581 0.38468 0.23275 0.0
H4655 H 0.23259 0.40922 0.21823 0.0
C4656 C 0.25507 0.42144 0.99549 0.0
C4657 C 0.26554 0.41766 0.01636 0.0
C4658 C 0.23755 0.43293 0.99619 0.0
C4659 C 0.23024 0.44091 0.01833 0.0
C4660 C 0.24014 0.43641 0.03942 0.0
C4661 C 0.25774 0.42486 0.03821 0.0
C4662 C 0.22738 0.43732 0.97324 0.0
C4663 C 0.2324 0.44422 0.06323 0.0
C4664 C 0.20764 0.49595 0.01627 0.0
C4665 C 0.18462 0.48463 0.00988 0.0
C4666 C 0.2225 0.48215 0.02118 0.0
C4667 C 0.21408 0.45631 0.01931 0.0
C4668 C 0.19054 0.44513 0.01472 0.0
C4669 C 0.17599 0.45952 0.01008 0.0
C4670 C 0.2474 0.49493 0.02648 0.0
C4671 C 0.18084 0.41772 0.01288 0.0
H4672 H 0.26077 0.41573 0.97851 0.0
H4673 H 0.2655 0.42168 0.0544 0.0
H4674 H 0.20883 0.42956 0.9708 0.0
H4675 H 0.23089 0.45752 0.97408 0.0
H4676 H 0.23415 0.42884 0.95738 0.0
H4677 H 0.24159 0.43908 0.07795 0.0
H4678 H 0.23486 0.46456 0.06747 0.0
H4679 H 0.21412 0.43544 0.06247 0.0
H4680 H 0.21415 0.51548 0.01642 0.0
H4681 H 0.15809 0.45086 0.0052 0.0
H4682 H 0.25593 0.48887 0.01105 0.0
H4683 H 0.25492 0.48977 0.0422 0.0
H4684 H 0.25089 0.51542 0.02995 0.0
H4685 H 0.18313 0.40747 0.99525 0.0
H4686 H 0.16255 0.41304 0.01457 0.0
H4687 H 0.18965 0.41115 0.02677 0.0
C4688 C 0.88849 0.98099 0.24713 0.0
C4689 C 0.90663 0.9929 0.26525 0.0
C4690 C 0.8753 0.95615 0.24586 0.0
C4691 C 0.87984 0.94259 0.26327 0.0
C4692 C 0.89769 0.95497 0.28194 0.0
C4693 C 0.91082 0.97941 0.28245 0.0
C4694 C 0.85697 0.94398 0.22526 0.0
C4695 C 0.90342 0.94218 0.30128 0.0
C4696 C 0.8345 0.8846 0.27182 0.0
C4697 C 0.84271 0.8646 0.26169 0.0
C4698 C 0.84621 0.90969 0.27244 0.0
C4699 C 0.86649 0.91552 0.2619 0.0
C4700 C 0.87453 0.89528 0.2511 0.0
C4701 C 0.86294 0.87042 0.25157 0.0
C4702 C 0.83716 0.93008 0.28516 0.0
C4703 C 0.89549 0.89987 0.2389 0.0
H4704 H 0.88526 0.9906 0.23328 0.0
H4705 H 0.92492 0.98797 0.29636 0.0
H4706 H 0.86043 0.92708 0.21505 0.0
H4707 H 0.84056 0.93805 0.23201 0.0
H4708 H 0.85549 0.95651 0.21298 0.0
H4709 H 0.916 0.95498 0.3159 0.0
H4710 H 0.88803 0.93406 0.30894 0.0
H4711 H 0.9104 0.92675 0.2936 0.0
H4712 H 0.81922 0.88069 0.28015 0.0
H4713 H 0.86965 0.8554 0.24368 0.0
H4714 H 0.83392 0.94188 0.27279 0.0
H4715 H 0.8499 0.94212 0.30002 0.0
H4716 H 0.82133 0.92278 0.29252 0.0
H4717 H 0.8937 0.91083 0.22521 0.0
H4718 H 0.899 0.88237 0.23018 0.0
H4719 H 0.91022 0.9109 0.25203 0.0
C4720 C 0.75665 0.11502 0.765 0.0
C4721 C 0.74248 0.10461 0.74356 0.0
C4722 C 0.77102 0.13878 0.76853 0.0
C4723 C 0.77078 0.15193 0.75007 0.0
C4724 C 0.75917 0.13973 0.72718 0.0
C4725 C 0.74503 0.11584 0.72409 0.0
C4726 C 0.78312 0.15108 0.79327 0.0
C4727 C 0.75922 0.15304 0.70705 0.0
C4728 C 0.76611 0.21624 0.77298 0.0
C4729 C 0.78848 0.22991 0.77518 0.0
C4730 C 0.76004 0.19074 0.76416 0.0
C4731 C 0.77684 0.17908 0.75673 0.0
C4732 C 0.79945 0.19305 0.7585 0.0
C4733 C 0.80514 0.21838 0.76861 0.0
C4734 C 0.73584 0.17626 0.76372 0.0
C4735 C 0.8175 0.18121 0.75003 0.0
H4736 H 0.75463 0.10574 0.77983 0.0
H4737 H 0.734 0.10736 0.70748 0.0
H4738 H 0.79985 0.16361 0.79265 0.0
H4739 H 0.773 0.16239 0.80285 0.0
H4740 H 0.7854 0.1372 0.80374 0.0
H4741 H 0.75217 0.14017 0.68961 0.0
H4742 H 0.74901 0.16644 0.71057 0.0
H4743 H 0.77669 0.16339 0.70611 0.0
H4744 H 0.75345 0.22551 0.77859 0.0
H4745 H 0.82252 0.22906 0.77155 0.0
H4746 H 0.73506 0.16191 0.77446 0.0
H4747 H 0.72847 0.16664 0.74519 0.0
H4748 H 0.72521 0.18828 0.77091 0.0
H4749 H 0.81803 0.16559 0.75874 0.0
H4750 H 0.83444 0.19462 0.75361 0.0
H4751 H 0.81348 0.17337 0.73058 0.0
loop_
_geom_bond_atom_site_label_1
_geom_bond_atom_site_label_2
_geom_bond_distance
_geom_bond_site_symmetry_2
_ccdc_geom_bond_type
Zn0 O3 2.031 . S
Zn0 O5 2.049 . S
Zn0 O10 2.067 . S
Zn1 O2 1.962 . S
Zn1 O4 1.986 . S
Zn1 O6 1.996 . S
Zn1 O9 1.943 . S
O2 Zn1 1.962 . S
O2 C7 1.254 . S
O3 Zn0 2.031 . S
O3 C7 1.269 . S
O4 Zn1 1.986 . S
O4 C11 1.262 . S
O5 Zn0 2.049 . S
O5 C13 1.260 . S
O6 Zn1 1.996 . S
O6 C13 1.257 . S
C7 O2 1.254 . S
C7 O3 1.269 . S
C8 O9 1.249 . S
C8 O10 1.270 . S
O9 Zn1 1.943 . S
O9 C8 1.249 . S
O10 Zn0 2.067 . S
O10 C8 1.270 . S
C11 O4 1.262 . S
C11 O12 1.232 . S
O12 C11 1.232 . S
C13 O5 1.260 . S
C13 O6 1.257 . S
Zn14 O17 2.031 1_455 S
Zn14 O19 2.049 . S
Zn14 O24 2.067 . S
Zn15 O16 1.929 1_455 S
Zn15 O18 2.000 . S
Zn15 O20 2.023 . S
Zn15 O23 1.950 1_455 S
O16 Zn15 1.929 1_655 S
O16 C21 1.254 . S
O17 Zn14 2.031 1_655 S
O17 C21 1.269 . S
O18 Zn15 2.000 . S
O18 C25 1.262 . S
O19 Zn14 2.049 . S
O19 C27 1.260 . S
O20 Zn15 2.023 . S
O20 C27 1.257 . S
C21 O16 1.254 . S
C21 O17 1.269 . S
C22 O23 1.249 . S
C22 O24 1.270 1_655 S
O23 Zn15 1.950 1_655 S
O23 C22 1.249 . S
O24 Zn14 2.067 . S
O24 C22 1.270 1_455 S
C25 O18 1.262 . S
C25 O26 1.232 1_455 S
O26 C25 1.232 1_655 S
C27 O19 1.260 . S
C27 O20 1.257 . S
Zn28 O31 2.031 . S
Zn28 O33 2.049 . S
Zn28 O38 2.067 . S
Zn29 O30 1.962 . S
Zn29 O32 1.986 . S
Zn29 O34 1.996 . S
Zn29 O37 1.943 . S
O30 Zn29 1.962 . S
O30 C35 1.254 . S
O31 Zn28 2.031 . S
O31 C35 1.269 . S
O32 Zn29 1.986 . S
O32 C39 1.262 . S
O33 Zn28 2.049 . S
O33 C41 1.260 . S
O34 Zn29 1.996 . S
O34 C41 1.257 . S
C35 O30 1.254 . S
C35 O31 1.269 . S
C36 O37 1.249 . S
C36 O38 1.270 . S
O37 Zn29 1.943 . S
O37 C36 1.249 . S
O38 Zn28 2.067 . S
O38 C36 1.270 . S
C39 O32 1.262 . S
C39 O40 1.232 . S
O40 C39 1.232 . S
C41 O33 1.260 . S
C41 O34 1.257 . S
Zn42 O45 2.031 . S
Zn42 O47 2.049 . S
Zn42 O52 2.067 . S
Zn43 O44 1.962 . S
Zn43 O46 1.986 . S
Zn43 O48 1.996 . S
Zn43 O51 1.943 . S
O44 Zn43 1.962 . S
O44 C49 1.254 . S
O45 Zn42 2.031 . S
O45 C49 1.269 . S
O46 Zn43 1.986 . S
O46 C53 1.262 . S
O47 Zn42 2.049 . S
O47 C55 1.260 . S
O48 Zn43 1.996 . S
O48 C55 1.257 . S
C49 O44 1.254 . S
C49 O45 1.269 . S
C50 O51 1.249 . S
C50 O52 1.270 . S
O51 Zn43 1.943 . S
O51 C50 1.249 . S
O52 Zn42 2.067 . S
O52 C50 1.270 . S
C53 O46 1.262 . S
C53 O54 1.232 . S
O54 C53 1.232 . S
C55 O47 1.260 . S
C55 O48 1.257 . S
Zn56 O59 2.031 . S
Zn56 O61 2.049 . S
Zn56 O66 2.067 . S
Zn57 O58 1.962 . S
Zn57 O60 1.986 . S
Zn57 O62 1.996 . S
Zn57 O65 1.943 . S
O58 Zn57 1.962 . S
O58 C63 1.254 . S
O59 Zn56 2.031 . S
O59 C63 1.269 . S
O60 Zn57 1.986 . S
O60 C67 1.262 . S
O61 Zn56 2.049 . S
O61 C69 1.260 . S
O62 Zn57 1.996 . S
O62 C69 1.257 . S
C63 O58 1.254 . S
C63 O59 1.269 . S
C64 O65 1.249 . S
C64 O66 1.270 . S
O65 Zn57 1.943 . S
O65 C64 1.249 . S
O66 Zn56 2.067 . S
O66 C64 1.270 . S
C67 O60 1.262 . S
C67 O68 1.232 . S
O68 C67 1.232 . S
C69 O61 1.260 . S
C69 O62 1.257 . S
Zn70 O73 2.031 . S
Zn70 O75 2.049 . S
Zn70 O80 2.067 . S
Zn71 O72 1.962 . S
Zn71 O74 1.986 . S
Zn71 O76 1.996 . S
Zn71 O79 1.943 . S
O72 Zn71 1.962 . S
O72 C77 1.254 . S
O73 Zn70 2.031 . S
O73 C77 1.269 . S
O74 Zn71 1.986 . S
O74 C81 1.262 . S
O75 Zn70 2.049 . S
O75 C83 1.260 . S
O76 Zn71 1.996 . S
O76 C83 1.257 . S
C77 O72 1.254 . S
C77 O73 1.269 . S
C78 O79 1.249 . S
C78 O80 1.270 . S
O79 Zn71 1.943 . S
O79 C78 1.249 . S
O80 Zn70 2.067 . S
O80 C78 1.270 . S
C81 O74 1.262 . S
C81 O82 1.232 . S
O82 C81 1.232 . S
C83 O75 1.260 . S
C83 O76 1.257 . S
Zn84 O87 2.031 . S
Zn84 O89 2.049 . S
Zn84 O94 2.067 . S
Zn85 O86 1.962 . S
Zn85 O88 1.986 . S
Zn85 O90 1.996 . S
Zn85 O93 1.943 . S
O86 Zn85 1.962 . S
O86 C91 1.254 . S
O87 Zn84 2.031 . S
O87 C91 1.269 . S
O88 Zn85 1.986 . S
O88 C95 1.262 . S
O89 Zn84 2.049 . S
O89 C97 1.260 . S
O90 Zn85 1.996 . S
O90 C97 1.257 . S
C91 O86 1.254 . S
C91 O87 1.269 . S
C92 O93 1.249 . S
C92 O94 1.270 . S
O93 Zn85 1.943 . S
O93 C92 1.249 . S
O94 Zn84 2.067 . S
O94 C92 1.270 . S
C95 O88 1.262 . S
C95 O96 1.232 . S
O96 C95 1.232 . S
C97 O89 1.260 . S
C97 O90 1.257 . S
Zn98 O101 2.031 1_655 S
Zn98 O103 2.049 . S
Zn98 O108 2.067 . S
Zn99 O100 1.962 . S
Zn99 O102 1.986 . S
Zn99 O104 1.996 . S
Zn99 O107 1.943 . S
O100 Zn99 1.962 . S
O100 C105 1.254 . S
O101 Zn98 2.031 1_455 S
O101 C105 1.269 . S
O102 Zn99 1.986 . S
O102 C109 1.262 . S
O103 Zn98 2.049 . S
O103 C111 1.260 1_655 S
O104 Zn99 1.996 . S
O104 C111 1.257 . S
C105 O100 1.254 . S
C105 O101 1.269 . S
C106 O107 1.249 1_655 S
C106 O108 1.270 . S
O107 Zn99 1.943 . S
O107 C106 1.249 1_455 S
O108 Zn98 2.067 . S
O108 C106 1.270 . S
C109 O102 1.262 . S
C109 O110 1.232 . S
O110 C109 1.232 . S
C111 O103 1.260 1_455 S
C111 O104 1.257 . S
Zn112 O115 2.031 1_565 S
Zn112 O117 2.049 . S
Zn112 O122 2.067 . S
Zn113 O114 1.962 . S
Zn113 O116 1.986 . S
Zn113 O118 1.996 . S
Zn113 O121 1.939 1_545 S
O114 Zn113 1.962 . S
O114 C119 1.254 . S
O115 Zn112 2.031 1_545 S
O115 C119 1.269 . S
O116 Zn113 1.986 . S
O116 C123 1.262 . S
O117 Zn112 2.049 . S
O117 C125 1.260 1_565 S
O118 Zn113 1.996 . S
O118 C125 1.257 . S
C119 O114 1.254 . S
C119 O115 1.269 . S
C120 O121 1.254 . S
C120 O122 1.270 . S
O121 Zn113 1.939 1_565 S
O121 C120 1.254 . S
O122 Zn112 2.067 . S
O122 C120 1.270 . S
C123 O116 1.262 . S
C123 O124 1.232 . S
O124 C123 1.232 . S
C125 O117 1.260 1_545 S
C125 O118 1.257 . S
Zn126 O129 2.031 . S
Zn126 O131 2.049 . S
Zn126 O136 2.067 . S
Zn127 O128 1.962 . S
Zn127 O130 1.986 . S
Zn127 O132 1.996 . S
Zn127 O135 1.943 . S
O128 Zn127 1.962 . S
O128 C133 1.254 . S
O129 Zn126 2.031 . S
O129 C133 1.269 . S
O130 Zn127 1.986 . S
O130 C137 1.262 . S
O131 Zn126 2.049 . S
O131 C139 1.260 . S
O132 Zn127 1.996 . S
O132 C139 1.257 . S
C133 O128 1.254 . S
C133 O129 1.269 . S
C134 O135 1.249 . S
C134 O136 1.270 . S
O135 Zn127 1.943 . S
O135 C134 1.249 . S
O136 Zn126 2.067 . S
O136 C134 1.270 . S
C137 O130 1.262 . S
C137 O138 1.232 . S
O138 C137 1.232 . S
C139 O131 1.260 . S
C139 O132 1.257 . S
Zn140 O143 2.031 . S
Zn140 O145 2.049 . S
Zn140 O150 2.067 . S
Zn141 O142 1.962 . S
Zn141 O144 1.986 . S
Zn141 O146 1.996 . S
Zn141 O149 1.943 1_565 S
O142 Zn141 1.962 . S
O142 C147 1.254 1_565 S
O143 Zn140 2.031 . S
O143 C147 1.269 . S
O144 Zn141 1.986 . S
O144 C151 1.262 . S
O145 Zn140 2.049 . S
O145 C153 1.260 1_545 S
O146 Zn141 1.996 . S
O146 C153 1.257 . S
C147 O142 1.254 1_545 S
C147 O143 1.269 . S
C148 O149 1.249 . S
C148 O150 1.270 . S
O149 Zn141 1.943 1_545 S
O149 C148 1.249 . S
O150 Zn140 2.067 . S
O150 C148 1.270 . S
C151 O144 1.262 . S
C151 O152 1.232 . S
O152 C151 1.232 . S
C153 O145 1.260 1_565 S
C153 O146 1.257 . S
Zn154 O157 2.031 1_554 S
Zn154 O159 2.049 . S
Zn154 O164 2.067 . S
Zn155 O156 1.962 1_554 S
Zn155 O158 1.986 . S
Zn155 O160 1.996 . S
Zn155 O163 1.943 . S
O156 Zn155 1.962 1_556 S
O156 C161 1.254 . S
O157 Zn154 2.031 1_556 S
O157 C161 1.269 . S
O158 Zn155 1.986 . S
O158 C165 1.262 . S
O159 Zn154 2.049 . S
O159 C167 1.260 . S
O160 Zn155 1.996 . S
O160 C167 1.257 . S
C161 O156 1.254 . S
C161 O157 1.269 . S
C162 O163 1.249 . S
C162 O164 1.270 . S
O163 Zn155 1.943 . S
O163 C162 1.249 . S
O164 Zn154 2.067 . S
O164 C162 1.270 . S
C165 O158 1.262 . S
C165 O166 1.232 1_554 S
O166 C165 1.232 1_556 S
C167 O159 1.260 . S
C167 O160 1.257 . S
Zn168 O171 2.031 . S
Zn168 O173 2.049 . S
Zn168 O178 2.067 . S
Zn169 O170 1.962 . S
Zn169 O172 1.986 . S
Zn169 O174 1.996 . S
Zn169 O177 1.943 . S
O170 Zn169 1.962 . S
O170 C175 1.254 1_554 S
O171 Zn168 2.031 . S
O171 C175 1.269 1_554 S
O172 Zn169 1.986 . S
O172 C179 1.262 . S
O173 Zn168 2.049 . S
O173 C181 1.260 . S
O174 Zn169 1.996 . S
O174 C181 1.257 . S
C175 O170 1.254 1_556 S
C175 O171 1.269 1_556 S
C176 O177 1.249 . S
C176 O178 1.270 . S
O177 Zn169 1.943 . S
O177 C176 1.249 . S
O178 Zn168 2.067 . S
O178 C176 1.270 . S
C179 O172 1.262 . S
C179 O180 1.232 . S
O180 C179 1.232 . S
C181 O173 1.260 . S
C181 O174 1.257 . S
Zn182 O185 2.031 . S
Zn182 O187 2.049 . S
Zn182 O192 2.067 . S
Zn183 O184 1.962 . S
Zn183 O186 1.986 . S
Zn183 O188 1.996 . S
Zn183 O191 1.943 . S
O184 Zn183 1.962 . S
O184 C189 1.254 1_554 S
O185 Zn182 2.031 . S
O185 C189 1.269 1_554 S
O186 Zn183 1.986 . S
O186 C193 1.262 . S
O187 Zn182 2.049 . S
O187 C195 1.260 . S
O188 Zn183 1.996 . S
O188 C195 1.257 . S
C189 O184 1.254 1_556 S
C189 O185 1.269 1_556 S
C190 O191 1.249 . S
C190 O192 1.270 . S
O191 Zn183 1.943 . S
O191 C190 1.249 . S
O192 Zn182 2.067 . S
O192 C190 1.270 . S
C193 O186 1.262 . S
C193 O194 1.232 . S
O194 C193 1.232 . S
C195 O187 1.260 . S
C195 O188 1.257 . S
Zn196 O199 2.031 . S
Zn196 O201 2.049 . S
Zn196 O206 2.067 . S
Zn197 O198 1.962 . S
Zn197 O200 1.986 . S
Zn197 O202 1.996 . S
Zn197 O205 1.943 . S
O198 Zn197 1.962 . S
O198 C203 1.254 . S
O199 Zn196 2.031 . S
O199 C203 1.269 . S
O200 Zn197 1.986 . S
O200 C207 1.262 . S
O201 Zn196 2.049 . S
O201 C209 1.260 . S
O202 Zn197 1.996 . S
O202 C209 1.257 . S
C203 O198 1.254 . S
C203 O199 1.269 . S
C204 O205 1.249 . S
C204 O206 1.270 . S
O205 Zn197 1.943 . S
O205 C204 1.249 . S
O206 Zn196 2.067 . S
O206 C204 1.270 . S
C207 O200 1.262 . S
C207 O208 1.232 . S
O208 C207 1.232 . S
C209 O201 1.260 . S
C209 O202 1.257 . S
Zn210 O213 2.031 . S
Zn210 O215 2.049 . S
Zn210 O220 2.067 . S
Zn211 O212 1.962 . S
Zn211 O214 1.986 . S
Zn211 O216 1.996 . S
Zn211 O219 1.943 . S
O212 Zn211 1.962 . S
O212 C217 1.254 . S
O213 Zn210 2.031 . S
O213 C217 1.269 . S
O214 Zn211 1.986 . S
O214 C221 1.262 . S
O215 Zn210 2.049 . S
O215 C223 1.260 . S
O216 Zn211 1.996 . S
O216 C223 1.257 . S
C217 O212 1.254 . S
C217 O213 1.269 . S
C218 O219 1.249 . S
C218 O220 1.270 . S
O219 Zn211 1.943 . S
O219 C218 1.249 . S
O220 Zn210 2.067 . S
O220 C218 1.270 . S
C221 O214 1.262 . S
C221 O222 1.232 . S
O222 C221 1.232 . S
C223 O215 1.260 . S
C223 O216 1.257 . S
Zn224 O227 2.031 . S
Zn224 O229 2.049 . S
Zn224 O234 2.067 . S
Zn225 O226 1.962 . S
Zn225 O228 1.986 . S
Zn225 O230 1.996 . S
Zn225 O233 1.943 . S
O226 Zn225 1.962 . S
O226 C231 1.254 . S
O227 Zn224 2.031 . S
O227 C231 1.269 . S
O228 Zn225 1.986 . S
O228 C235 1.262 . S
O229 Zn224 2.049 . S
O229 C237 1.260 . S
O230 Zn225 1.996 . S
O230 C237 1.257 . S
C231 O226 1.254 . S
C231 O227 1.269 . S
C232 O233 1.249 . S
C232 O234 1.270 . S
O233 Zn225 1.943 . S
O233 C232 1.249 . S
O234 Zn224 2.067 . S
O234 C232 1.270 . S
C235 O228 1.262 . S
C235 O236 1.232 . S
O236 C235 1.232 . S
C237 O229 1.260 . S
C237 O230 1.257 . S
Zn238 O241 2.031 . S
Zn238 O243 2.049 . S
Zn238 O248 2.067 . S
Zn239 O240 1.962 . S
Zn239 O242 1.986 . S
Zn239 O244 1.996 . S
Zn239 O247 1.943 . S
O240 Zn239 1.962 . S
O240 C245 1.254 . S
O241 Zn238 2.031 . S
O241 C245 1.269 . S
O242 Zn239 1.986 . S
O242 C249 1.262 . S
O243 Zn238 2.049 . S
O243 C251 1.260 . S
O244 Zn239 1.996 . S
O244 C251 1.257 . S
C245 O240 1.254 . S
C245 O241 1.269 . S
C246 O247 1.249 . S
C246 O248 1.270 . S
O247 Zn239 1.943 . S
O247 C246 1.249 . S
O248 Zn238 2.067 . S
O248 C246 1.270 . S
C249 O242 1.262 . S
C249 O250 1.232 . S
O250 C249 1.232 . S
C251 O243 1.260 . S
C251 O244 1.257 . S
Zn252 O255 2.031 . S
Zn252 O257 2.049 . S
Zn252 O262 2.067 . S
Zn253 O254 1.962 . S
Zn253 O256 1.986 . S
Zn253 O258 1.996 . S
Zn253 O261 1.943 . S
O254 Zn253 1.962 . S
O254 C259 1.254 . S
O255 Zn252 2.031 . S
O255 C259 1.269 . S
O256 Zn253 1.986 . S
O256 C263 1.262 . S
O257 Zn252 2.049 . S
O257 C265 1.260 . S
O258 Zn253 1.996 . S
O258 C265 1.257 . S
C259 O254 1.254 . S
C259 O255 1.269 . S
C260 O261 1.249 . S
C260 O262 1.270 . S
O261 Zn253 1.943 . S
O261 C260 1.249 . S
O262 Zn252 2.067 . S
O262 C260 1.270 . S
C263 O256 1.262 . S
C263 O264 1.232 . S
O264 C263 1.232 . S
C265 O257 1.260 . S
C265 O258 1.257 . S
Zn266 O269 2.031 . S
Zn266 O271 2.049 . S
Zn266 O276 2.067 . S
Zn267 O268 1.962 . S
Zn267 O270 1.986 . S
Zn267 O272 1.996 . S
Zn267 O275 1.943 . S
O268 Zn267 1.962 . S
O268 C273 1.254 . S
O269 Zn266 2.031 . S
O269 C273 1.269 . S
O270 Zn267 1.986 . S
O270 C277 1.262 . S
O271 Zn266 2.049 . S
O271 C279 1.260 . S
O272 Zn267 1.996 . S
O272 C279 1.257 . S
C273 O268 1.254 . S
C273 O269 1.269 . S
C274 O275 1.249 . S
C274 O276 1.270 . S
O275 Zn267 1.943 . S
O275 C274 1.249 . S
O276 Zn266 2.067 . S
O276 C274 1.270 . S
C277 O270 1.262 . S
C277 O278 1.232 . S
O278 C277 1.232 . S
C279 O271 1.260 . S
C279 O272 1.257 . S
Zn280 O283 2.031 1_554 S
Zn280 O285 2.049 . S
Zn280 O290 2.067 . S
Zn281 O282 1.989 . S
Zn281 O284 1.972 1_556 S
Zn281 O286 1.976 1_556 S
Zn281 O289 1.940 . S
O282 Zn281 1.989 . S
O282 C287 1.254 . S
O283 Zn280 2.031 1_556 S
O283 C287 1.269 . S
O284 Zn281 1.972 1_554 S
O284 C291 1.262 1_554 S
O285 Zn280 2.049 . S
O285 C293 1.260 . S
O286 Zn281 1.976 1_554 S
O286 C293 1.257 . S
C287 O282 1.254 . S
C287 O283 1.269 . S
C288 O289 1.249 . S
C288 O290 1.270 1_556 S
O289 Zn281 1.940 . S
O289 C288 1.249 . S
O290 Zn280 2.067 . S
O290 C288 1.270 1_554 S
C291 O284 1.262 1_556 S
C291 O292 1.232 . S
O292 C291 1.232 . S
C293 O285 1.260 . S
C293 O286 1.257 . S
Zn294 O297 2.031 . S
Zn294 O299 2.049 . S
Zn294 O304 2.067 . S
Zn295 O296 1.962 . S
Zn295 O298 1.986 . S
Zn295 O300 1.996 . S
Zn295 O303 1.943 . S
O296 Zn295 1.962 . S
O296 C301 1.254 . S
O297 Zn294 2.031 . S
O297 C301 1.269 . S
O298 Zn295 1.986 . S
O298 C305 1.262 . S
O299 Zn294 2.049 . S
O299 C307 1.260 . S
O300 Zn295 1.996 . S
O300 C307 1.257 . S
C301 O296 1.254 . S
C301 O297 1.269 . S
C302 O303 1.249 . S
C302 O304 1.270 . S
O303 Zn295 1.943 . S
O303 C302 1.249 . S
O304 Zn294 2.067 . S
O304 C302 1.270 . S
C305 O298 1.262 . S
C305 O306 1.232 . S
O306 C305 1.232 . S
C307 O299 1.260 . S
C307 O300 1.257 . S
Zn308 O311 2.031 . S
Zn308 O313 2.049 . S
Zn308 O318 2.067 . S
Zn309 O310 1.962 . S
Zn309 O312 1.986 . S
Zn309 O314 1.996 . S
Zn309 O317 1.943 . S
O310 Zn309 1.962 . S
O310 C315 1.254 . S
O311 Zn308 2.031 . S
O311 C315 1.269 . S
O312 Zn309 1.986 . S
O312 C319 1.262 . S
O313 Zn308 2.049 . S
O313 C321 1.260 . S
O314 Zn309 1.996 . S
O314 C321 1.257 . S
C315 O310 1.254 . S
C315 O311 1.269 . S
C316 O317 1.249 . S
C316 O318 1.270 . S
O317 Zn309 1.943 . S
O317 C316 1.249 . S
O318 Zn308 2.067 . S
O318 C316 1.270 . S
C319 O312 1.262 . S
C319 O320 1.232 . S
O320 C319 1.232 . S
C321 O313 1.260 . S
C321 O314 1.257 . S
Zn322 O325 2.031 . S
Zn322 O327 2.049 . S
Zn322 O332 2.067 . S
Zn323 O324 1.962 . S
Zn323 O326 1.986 . S
Zn323 O328 1.996 . S
Zn323 O331 1.943 . S
O324 Zn323 1.962 . S
O324 C329 1.254 . S
O325 Zn322 2.031 . S
O325 C329 1.269 . S
O326 Zn323 1.986 . S
O326 C333 1.262 . S
O327 Zn322 2.049 . S
O327 C335 1.260 . S
O328 Zn323 1.996 . S
O328 C335 1.257 . S
C329 O324 1.254 . S
C329 O325 1.269 . S
C330 O331 1.249 . S
C330 O332 1.270 . S
O331 Zn323 1.943 . S
O331 C330 1.249 . S
O332 Zn322 2.067 . S
O332 C330 1.270 . S
C333 O326 1.262 . S
C333 O334 1.232 . S
O334 C333 1.232 . S
C335 O327 1.260 . S
C335 O328 1.257 . S
Eu336 N367 2.657 1_545 S
Eu336 N374 2.609 1_544 S
Eu336 O380 2.558 1_454 S
Eu336 O381 2.612 . S
Eu336 O383 2.339 . S
Eu336 O384 2.563 . S
Eu336 O385 2.419 1_455 S
Eu336 O387 2.380 . S
Eu336 O388 2.432 1_554 S
Eu336 C400 2.848 1_454 S
C337 C340 1.429 . S
C337 C341 1.411 . S
C337 N344 1.377 . S
C338 C340 1.420 . S
C338 C342 1.423 . S
C338 C350 1.392 . S
C339 C341 1.420 . S
C339 C342 1.351 . S
C339 H362 0.931 . S
C340 C337 1.429 . S
C340 C338 1.420 . S
C340 N348 1.362 . S
C341 C337 1.411 . S
C341 C339 1.420 . S
C341 C346 1.395 . S
C342 C338 1.423 . S
C342 C339 1.351 . S
C342 H354 0.930 . S
C343 C345 1.400 . S
C343 C346 1.386 . S
C343 H355 0.930 . S
N344 C337 1.377 . S
N344 C345 1.321 . S
N344 Eu347 2.609 . S
C345 C343 1.400 . S
C345 N344 1.321 . S
C345 H352 0.930 . S
C346 C341 1.395 . S
C346 C343 1.386 . S
C346 H365 0.930 . S
Eu347 N344 2.609 . S
Eu347 N348 2.657 . S
Eu347 O381 2.380 . S
Eu347 O382 2.432 . S
Eu347 O386 2.558 . S
Eu347 O387 2.612 . S
Eu347 O389 2.339 1_554 S
Eu347 O390 2.563 . S
Eu347 O391 2.419 . S
Eu347 C411 2.848 . S
N348 C340 1.362 . S
N348 Eu347 2.657 . S
N348 C349 1.334 1_554 S
C349 N348 1.334 1_556 S
C349 C351 1.413 . S
C349 H356 0.929 . S
C350 C338 1.392 . S
C350 C351 1.367 1_554 S
C350 H358 0.930 1_554 S
C351 C349 1.413 . S
C351 C350 1.367 1_556 S
C351 H353 0.930 . S
H352 C345 0.930 . S
H353 C351 0.930 . S
H354 C342 0.930 . S
H355 C343 0.930 . S
H356 C349 0.929 . S
H357 C371 0.930 . S
H358 C350 0.930 1_556 S
H359 C377 0.930 . S
H360 C368 0.902 1_545 S
H361 C375 0.930 . S
H362 C339 0.931 . S
H363 C369 0.930 . S
H364 C402 0.938 . S
H365 C346 0.930 . S
H366 C401 0.931 . S
N367 Eu336 2.657 1_565 S
N367 C368 1.334 . S
N367 C372 1.362 . S
C368 H360 0.902 1_565 S
C368 N367 1.334 . S
C368 C371 1.413 . S
C369 H363 0.930 . S
C369 C370 1.392 . S
C369 C371 1.367 1_655 S
C370 C369 1.392 . S
C370 C372 1.420 1_655 S
C370 C402 1.430 . S
C371 H357 0.930 . S
C371 C368 1.413 . S
C371 C369 1.367 1_455 S
C372 N367 1.362 . S
C372 C370 1.420 1_455 S
C372 C376 1.429 1_554 S
H373 C378 0.930 . S
N374 Eu336 2.609 1_566 S
N374 C376 1.377 . S
N374 C377 1.321 . S
C375 H361 0.930 . S
C375 C377 1.400 . S
C375 C378 1.385 1_455 S
C376 C372 1.429 1_556 S
C376 N374 1.377 . S
C376 C379 1.411 1_455 S
C377 H359 0.930 . S
C377 N374 1.321 . S
C377 C375 1.400 . S
C378 H373 0.930 . S
C378 C375 1.385 1_655 S
C378 C379 1.395 . S
C379 C376 1.411 1_655 S
C379 C378 1.395 . S
C379 C401 1.420 . S
O380 Eu336 2.558 1_656 S
O380 C400 1.257 . S
O381 Eu336 2.612 . S
O381 Eu347 2.380 . S
O381 C392 1.276 . S
O382 Eu347 2.432 . S
O382 C399 1.264 . S
O383 Eu336 2.339 . S
O383 C399 1.254 . S
O384 Eu336 2.563 . S
O384 C392 1.235 . S
O385 Eu336 2.419 1_655 S
O385 C400 1.249 1_554 S
O386 Eu347 2.558 . S
O386 C411 1.257 . S
O387 Eu336 2.380 . S
O387 Eu347 2.612 . S
O387 C403 1.276 1_545 S
O388 Eu336 2.432 1_556 S
O388 C410 1.264 . S
O389 Eu347 2.339 1_556 S
O389 C410 1.254 . S
O390 Eu347 2.563 . S
O390 C403 1.235 1_545 S
O391 Eu347 2.419 . S
O391 C411 1.249 . S
C392 O381 1.276 . S
C392 O384 1.235 . S
C393 C395 1.393 1_556 S
C393 C397 1.395 . S
C393 C400 1.492 . S
C394 C395 1.393 . S
C394 C396 1.384 1_554 S
C395 C393 1.393 1_554 S
C395 C394 1.393 . S
C395 H412 0.930 . S
C396 C394 1.384 1_556 S
C396 C398 1.395 . S
C396 H413 0.930 . S
C397 C393 1.395 . S
C397 C398 1.379 . S
C397 H414 0.930 . S
C398 C396 1.395 . S
C398 C397 1.379 . S
C398 H415 0.930 . S
C399 O382 1.264 . S
C399 O383 1.254 . S
C400 Eu336 2.848 1_656 S
C400 O380 1.257 . S
C400 O385 1.249 1_556 S
C400 C393 1.492 . S
C401 H366 0.931 . S
C401 C379 1.420 . S
C401 C402 1.336 1_556 S
C402 H364 0.938 . S
C402 C370 1.430 . S
C402 C401 1.336 1_554 S
C403 O387 1.276 1_565 S
C403 O390 1.235 1_565 S
C404 C405 1.393 . S
C404 C408 1.395 . S
C404 C411 1.492 . S
C405 C404 1.393 . S
C405 C406 1.392 . S
C405 H416 0.930 . S
C406 C405 1.392 . S
C406 C407 1.386 . S
C407 C406 1.386 . S
C407 C409 1.395 . S
C407 H417 0.930 . S
C408 C404 1.395 . S
C408 C409 1.379 . S
C408 H418 0.930 . S
C409 C407 1.395 . S
C409 C408 1.379 . S
C409 H419 0.930 . S
C410 O388 1.264 . S
C410 O389 1.254 . S
C411 Eu347 2.848 . S
C411 O386 1.257 . S
C411 O391 1.249 . S
C411 C404 1.492 . S
H412 C395 0.930 . S
H413 C396 0.930 . S
H414 C397 0.930 . S
H415 C398 0.930 . S
H416 C405 0.930 . S
H417 C407 0.930 . S
H418 C408 0.930 . S
H419 C409 0.930 . S
Eu420 N451 2.657 . S
Eu420 N458 2.609 . S
Eu420 O464 2.558 . S
Eu420 O465 2.612 . S
Eu420 O467 2.339 . S
Eu420 O468 2.563 . S
Eu420 O469 2.419 . S
Eu420 O471 2.380 . S
Eu420 O472 2.432 . S
Eu420 C484 2.848 . S
C421 C424 1.429 . S
C421 C425 1.411 . S
C421 N428 1.377 . S
C422 C424 1.420 . S
C422 C426 1.423 . S
C422 C434 1.392 . S
C423 C425 1.420 . S
C423 C426 1.351 . S
C423 H446 0.931 . S
C424 C421 1.429 . S
C424 C422 1.420 . S
C424 N432 1.362 . S
C425 C421 1.411 . S
C425 C423 1.420 . S
C425 C430 1.395 . S
C426 C422 1.423 . S
C426 C423 1.351 . S
C426 H438 0.930 . S
C427 C429 1.400 . S
C427 C430 1.386 . S
C427 H439 0.930 . S
N428 C421 1.377 . S
N428 C429 1.321 . S
N428 Eu431 2.609 . S
C429 C427 1.400 . S
C429 N428 1.321 . S
C429 H436 0.930 . S
C430 C425 1.395 . S
C430 C427 1.386 . S
C430 H449 0.930 . S
Eu431 N428 2.609 . S
Eu431 N432 2.657 . S
Eu431 O465 2.380 . S
Eu431 O466 2.432 . S
Eu431 O470 2.558 . S
Eu431 O471 2.612 . S
Eu431 O473 2.339 . S
Eu431 O474 2.563 . S
Eu431 O475 2.419 . S
Eu431 C495 2.848 . S
N432 C424 1.362 . S
N432 Eu431 2.657 . S
N432 C433 1.334 . S
C433 N432 1.334 . S
C433 C435 1.413 . S
C433 H440 0.929 . S
C434 C422 1.392 . S
C434 C435 1.367 . S
C434 H442 0.930 . S
C435 C433 1.413 . S
C435 C434 1.367 . S
C435 H437 0.930 . S
H436 C429 0.930 . S
H437 C435 0.930 . S
H438 C426 0.930 . S
H439 C427 0.930 . S
H440 C433 0.929 . S
H441 C455 0.930 . S
H442 C434 0.930 . S
H443 C461 0.930 . S
H444 C452 0.929 . S
H445 C459 0.930 . S
H446 C423 0.931 . S
H447 C453 0.930 . S
H448 C486 0.930 . S
H449 C430 0.930 . S
H450 C485 0.931 . S
N451 Eu420 2.657 . S
N451 C452 1.334 . S
N451 C456 1.362 . S
C452 H444 0.929 . S
C452 N451 1.334 . S
C452 C455 1.413 . S
C453 H447 0.930 . S
C453 C454 1.392 . S
C453 C455 1.367 . S
C454 C453 1.392 . S
C454 C456 1.420 . S
C454 C486 1.423 . S
C455 H441 0.930 . S
C455 C452 1.413 . S
C455 C453 1.367 . S
C456 N451 1.362 . S
C456 C454 1.420 . S
C456 C460 1.429 . S
H457 C462 0.930 . S
N458 Eu420 2.609 . S
N458 C460 1.377 . S
N458 C461 1.321 . S
C459 H445 0.930 . S
C459 C461 1.400 . S
C459 C462 1.386 . S
C460 C456 1.429 . S
C460 N458 1.377 . S
C460 C463 1.411 . S
C461 H443 0.930 . S
C461 N458 1.321 . S
C461 C459 1.400 . S
C462 H457 0.930 . S
C462 C459 1.386 . S
C462 C463 1.395 . S
C463 C460 1.411 . S
C463 C462 1.395 . S
C463 C485 1.420 . S
O464 Eu420 2.558 . S
O464 C484 1.257 . S
O465 Eu420 2.612 . S
O465 Eu431 2.380 . S
O465 C476 1.276 . S
O466 Eu431 2.432 . S
O466 C483 1.264 . S
O467 Eu420 2.339 . S
O467 C483 1.254 . S
O468 Eu420 2.563 . S
O468 C476 1.235 . S
O469 Eu420 2.419 . S
O469 C484 1.249 . S
O470 Eu431 2.558 . S
O470 C495 1.257 . S
O471 Eu420 2.380 . S
O471 Eu431 2.612 . S
O471 C487 1.276 . S
O472 Eu420 2.432 . S
O472 C494 1.264 . S
O473 Eu431 2.339 . S
O473 C494 1.254 . S
O474 Eu431 2.563 . S
O474 C487 1.235 . S
O475 Eu431 2.419 . S
O475 C495 1.249 . S
C476 O465 1.276 . S
C476 O468 1.235 . S
C477 C479 1.393 . S
C477 C481 1.395 . S
C477 C484 1.492 . S
C478 C479 1.392 . S
C478 C480 1.386 . S
C479 C477 1.393 . S
C479 C478 1.392 . S
C479 H496 0.930 . S
C480 C478 1.386 . S
C480 C482 1.395 . S
C480 H497 0.930 . S
C481 C477 1.395 . S
C481 C482 1.379 . S
C481 H498 0.930 . S
C482 C480 1.395 . S
C482 C481 1.379 . S
C482 H499 0.930 . S
C483 O466 1.264 . S
C483 O467 1.254 . S
C484 Eu420 2.848 . S
C484 O464 1.257 . S
C484 O469 1.249 . S
C484 C477 1.492 . S
C485 H450 0.931 . S
C485 C463 1.420 . S
C485 C486 1.351 . S
C486 H448 0.930 . S
C486 C454 1.423 . S
C486 C485 1.351 . S
C487 O471 1.276 . S
C487 O474 1.235 . S
C488 C489 1.393 . S
C488 C492 1.395 . S
C488 C495 1.492 . S
C489 C488 1.393 . S
C489 C490 1.392 . S
C489 H500 0.930 . S
C490 C489 1.392 . S
C490 C491 1.386 . S
C491 C490 1.386 . S
C491 C493 1.395 . S
C491 H501 0.930 . S
C492 C488 1.395 . S
C492 C493 1.379 . S
C492 H502 0.930 . S
C493 C491 1.395 . S
C493 C492 1.379 . S
C493 H503 0.930 . S
C494 O472 1.264 . S
C494 O473 1.254 . S
C495 Eu431 2.848 . S
C495 O470 1.257 . S
C495 O475 1.249 . S
C495 C488 1.492 . S
H496 C479 0.930 . S
H497 C480 0.930 . S
H498 C481 0.930 . S
H499 C482 0.930 . S
H500 C489 0.930 . S
H501 C491 0.930 . S
H502 C492 0.930 . S
H503 C493 0.930 . S
Eu504 N535 2.657 . S
Eu504 N542 2.609 . S
Eu504 O548 2.558 . S
Eu504 O549 2.612 . S
Eu504 O551 2.339 . S
Eu504 O552 2.563 1_545 S
Eu504 O553 2.419 . S
Eu504 O555 2.380 . S
Eu504 O556 2.432 . S
Eu504 C568 2.848 . S
C505 C508 1.429 . S
C505 C509 1.411 . S
C505 N512 1.377 1_565 S
C506 C508 1.420 . S
C506 C510 1.423 . S
C506 C518 1.392 . S
C507 C509 1.420 . S
C507 C510 1.351 . S
C507 H530 0.931 . S
C508 C505 1.429 . S
C508 C506 1.420 . S
C508 N516 1.362 . S
C509 C505 1.411 . S
C509 C507 1.420 . S
C509 C514 1.395 . S
C510 C506 1.423 . S
C510 C507 1.351 . S
C510 H522 0.930 . S
C511 C513 1.400 1_565 S
C511 C514 1.386 . S
C511 H523 0.930 1_565 S
N512 C505 1.377 1_545 S
N512 C513 1.321 . S
N512 Eu515 2.609 . S
C513 C511 1.400 1_545 S
C513 N512 1.321 . S
C513 H520 0.930 . S
C514 C509 1.395 . S
C514 C511 1.386 . S
C514 H533 0.930 . S
Eu515 N512 2.609 . S
Eu515 N516 2.657 1_545 S
Eu515 O549 2.380 . S
Eu515 O550 2.432 . S
Eu515 O554 2.558 . S
Eu515 O555 2.612 . S
Eu515 O557 2.339 . S
Eu515 O558 2.563 . S
Eu515 O559 2.419 . S
Eu515 C579 2.848 . S
N516 C508 1.362 . S
N516 Eu515 2.657 1_565 S
N516 C517 1.334 . S
C517 N516 1.334 . S
C517 C519 1.413 . S
C517 H524 0.929 . S
C518 C506 1.392 . S
C518 C519 1.367 . S
C518 H526 0.930 . S
C519 C517 1.413 . S
C519 C518 1.367 . S
C519 H521 0.930 . S
H520 C513 0.930 . S
H521 C519 0.930 . S
H522 C510 0.930 . S
H523 C511 0.930 1_545 S
H524 C517 0.929 . S
H525 C539 0.930 . S
H526 C518 0.930 . S
H527 C545 0.930 . S
H528 C536 0.929 . S
H529 C543 0.930 . S
H530 C507 0.931 . S
H531 C537 0.930 . S
H532 C570 0.930 . S
H533 C514 0.930 . S
H534 C569 0.931 . S
N535 Eu504 2.657 . S
N535 C536 1.334 . S
N535 C540 1.362 . S
C536 H528 0.929 . S
C536 N535 1.334 . S
C536 C539 1.413 . S
C537 H531 0.930 . S
C537 C538 1.392 . S
C537 C539 1.367 . S
C538 C537 1.392 . S
C538 C540 1.420 . S
C538 C570 1.423 . S
C539 H525 0.930 . S
C539 C536 1.413 . S
C539 C537 1.367 . S
C540 N535 1.362 . S
C540 C538 1.420 . S
C540 C544 1.429 . S
H541 C546 0.930 . S
N542 Eu504 2.609 . S
N542 C544 1.377 . S
N542 C545 1.321 . S
C543 H529 0.930 . S
C543 C545 1.400 . S
C543 C546 1.386 . S
C544 C540 1.429 . S
C544 N542 1.377 . S
C544 C547 1.411 . S
C545 H527 0.930 . S
C545 N542 1.321 . S
C545 C543 1.400 . S
C546 H541 0.930 . S
C546 C543 1.386 . S
C546 C547 1.395 . S
C547 C544 1.411 . S
C547 C546 1.395 . S
C547 C569 1.420 . S
O548 Eu504 2.558 . S
O548 C568 1.257 . S
O549 Eu504 2.612 . S
O549 Eu515 2.380 . S
O549 C560 1.276 1_545 S
O550 Eu515 2.432 . S
O550 C567 1.264 . S
O551 Eu504 2.339 . S
O551 C567 1.254 . S
O552 Eu504 2.563 1_565 S
O552 C560 1.235 . S
O553 Eu504 2.419 . S
O553 C568 1.249 . S
O554 Eu515 2.558 . S
O554 C579 1.257 . S
O555 Eu504 2.380 . S
O555 Eu515 2.612 . S
O555 C571 1.276 . S
O556 Eu504 2.432 . S
O556 C578 1.264 . S
O557 Eu515 2.339 . S
O557 C578 1.254 . S
O558 Eu515 2.563 . S
O558 C571 1.235 . S
O559 Eu515 2.419 . S
O559 C579 1.249 . S
C560 O549 1.276 1_565 S
C560 O552 1.235 . S
C561 C563 1.393 1_545 S
C561 C565 1.395 . S
C561 C568 1.492 . S
C562 C563 1.392 . S
C562 C564 1.386 . S
C563 C561 1.393 1_565 S
C563 C562 1.392 . S
C563 H580 0.930 . S
C564 C562 1.386 . S
C564 C566 1.395 . S
C564 H581 0.930 . S
C565 C561 1.395 . S
C565 C566 1.379 1_545 S
C565 H582 0.930 . S
C566 C564 1.395 . S
C566 C565 1.379 1_565 S
C566 H583 0.930 . S
C567 O550 1.264 . S
C567 O551 1.254 . S
C568 Eu504 2.848 . S
C568 O548 1.257 . S
C568 O553 1.249 . S
C568 C561 1.492 . S
C569 H534 0.931 . S
C569 C547 1.420 . S
C569 C570 1.351 . S
C570 H532 0.930 . S
C570 C538 1.423 . S
C570 C569 1.351 . S
C571 O555 1.276 . S
C571 O558 1.235 . S
C572 C573 1.393 . S
C572 C576 1.395 . S
C572 C579 1.492 . S
C573 C572 1.393 . S
C573 C574 1.392 . S
C573 H584 0.930 . S
C574 C573 1.392 . S
C574 C575 1.386 . S
C575 C574 1.386 . S
C575 C577 1.395 . S
C575 H585 0.930 . S
C576 C572 1.395 . S
C576 C577 1.379 . S
C576 H586 0.930 . S
C577 C575 1.395 . S
C577 C576 1.379 . S
C577 H587 0.930 . S
C578 O556 1.264 . S
C578 O557 1.254 . S
C579 Eu515 2.848 . S
C579 O554 1.257 . S
C579 O559 1.249 . S
C579 C572 1.492 . S
H580 C563 0.930 . S
H581 C564 0.930 . S
H582 C565 0.930 . S
H583 C566 0.930 . S
H584 C573 0.930 . S
H585 C575 0.930 . S
H586 C576 0.930 . S
H587 C577 0.930 . S
Eu588 N619 2.657 . S
Eu588 N626 2.609 . S
Eu588 O632 2.558 . S
Eu588 O633 2.612 . S
Eu588 O635 2.339 . S
Eu588 O636 2.563 . S
Eu588 O637 2.419 . S
Eu588 O639 2.380 . S
Eu588 O640 2.432 . S
Eu588 C652 2.848 . S
C589 C592 1.429 . S
C589 C593 1.411 . S
C589 N596 1.377 . S
C590 C592 1.420 . S
C590 C594 1.423 . S
C590 C602 1.392 . S
C591 C593 1.420 . S
C591 C594 1.351 . S
C591 H614 0.931 . S
C592 C589 1.429 . S
C592 C590 1.420 . S
C592 N600 1.362 . S
C593 C589 1.411 . S
C593 C591 1.420 . S
C593 C598 1.395 . S
C594 C590 1.423 . S
C594 C591 1.351 . S
C594 H606 0.930 . S
C595 C597 1.400 . S
C595 C598 1.386 . S
C595 H607 0.930 . S
N596 C589 1.377 . S
N596 C597 1.321 . S
N596 Eu599 2.609 . S
C597 C595 1.400 . S
C597 N596 1.321 . S
C597 H604 0.930 . S
C598 C593 1.395 . S
C598 C595 1.386 . S
C598 H617 0.930 . S
Eu599 N596 2.609 . S
Eu599 N600 2.657 . S
Eu599 O633 2.380 . S
Eu599 O634 2.432 . S
Eu599 O638 2.558 . S
Eu599 O639 2.612 . S
Eu599 O641 2.339 . S
Eu599 O642 2.563 . S
Eu599 O643 2.419 . S
Eu599 C663 2.848 . S
N600 C592 1.362 . S
N600 Eu599 2.657 . S
N600 C601 1.334 . S
C601 N600 1.334 . S
C601 C603 1.413 . S
C601 H608 0.929 . S
C602 C590 1.392 . S
C602 C603 1.367 . S
C602 H610 0.930 . S
C603 C601 1.413 . S
C603 C602 1.367 . S
C603 H605 0.930 . S
H604 C597 0.930 . S
H605 C603 0.930 . S
H606 C594 0.930 . S
H607 C595 0.930 . S
H608 C601 0.929 . S
H609 C623 0.930 . S
H610 C602 0.930 . S
H611 C629 0.930 . S
H612 C620 0.929 . S
H613 C627 0.930 . S
H614 C591 0.931 . S
H615 C621 0.930 . S
H616 C654 0.930 . S
H617 C598 0.930 . S
H618 C653 0.931 . S
N619 Eu588 2.657 . S
N619 C620 1.334 . S
N619 C624 1.362 . S
C620 H612 0.929 . S
C620 N619 1.334 . S
C620 C623 1.413 . S
C621 H615 0.930 . S
C621 C622 1.392 . S
C621 C623 1.367 . S
C622 C621 1.392 . S
C622 C624 1.420 . S
C622 C654 1.423 . S
C623 H609 0.930 . S
C623 C620 1.413 . S
C623 C621 1.367 . S
C624 N619 1.362 . S
C624 C622 1.420 . S
C624 C628 1.429 . S
H625 C630 0.930 . S
N626 Eu588 2.609 . S
N626 C628 1.377 . S
N626 C629 1.321 . S
C627 H613 0.930 . S
C627 C629 1.400 . S
C627 C630 1.386 . S
C628 C624 1.429 . S
C628 N626 1.377 . S
C628 C631 1.411 . S
C629 H611 0.930 . S
C629 N626 1.321 . S
C629 C627 1.400 . S
C630 H625 0.930 . S
C630 C627 1.386 . S
C630 C631 1.395 . S
C631 C628 1.411 . S
C631 C630 1.395 . S
C631 C653 1.420 . S
O632 Eu588 2.558 . S
O632 C652 1.257 . S
O633 Eu588 2.612 . S
O633 Eu599 2.380 . S
O633 C644 1.276 . S
O634 Eu599 2.432 . S
O634 C651 1.264 . S
O635 Eu588 2.339 . S
O635 C651 1.254 . S
O636 Eu588 2.563 . S
O636 C644 1.235 . S
O637 Eu588 2.419 . S
O637 C652 1.249 . S
O638 Eu599 2.558 . S
O638 C663 1.257 . S
O639 Eu588 2.380 . S
O639 Eu599 2.612 . S
O639 C655 1.276 . S
O640 Eu588 2.432 . S
O640 C662 1.264 . S
O641 Eu599 2.339 . S
O641 C662 1.254 . S
O642 Eu599 2.563 . S
O642 C655 1.235 . S
O643 Eu599 2.419 . S
O643 C663 1.249 . S
C644 O633 1.276 . S
C644 O636 1.235 . S
C645 C647 1.393 . S
C645 C649 1.395 . S
C645 C652 1.492 . S
C646 C647 1.392 . S
C646 C648 1.386 . S
C647 C645 1.393 . S
C647 C646 1.392 . S
C647 H664 0.930 . S
C648 C646 1.386 . S
C648 C650 1.395 . S
C648 H665 0.930 . S
C649 C645 1.395 . S
C649 C650 1.379 . S
C649 H666 0.930 . S
C650 C648 1.395 . S
C650 C649 1.379 . S
C650 H667 0.930 . S
C651 O634 1.264 . S
C651 O635 1.254 . S
C652 Eu588 2.848 . S
C652 O632 1.257 . S
C652 O637 1.249 . S
C652 C645 1.492 . S
C653 H618 0.931 . S
C653 C631 1.420 . S
C653 C654 1.351 . S
C654 H616 0.930 . S
C654 C622 1.423 . S
C654 C653 1.351 . S
C655 O639 1.276 . S
C655 O642 1.235 . S
C656 C657 1.393 . S
C656 C660 1.395 . S
C656 C663 1.492 . S
C657 C656 1.393 . S
C657 C658 1.392 . S
C657 H668 0.930 . S
C658 C657 1.392 . S
C658 C659 1.386 . S
C659 C658 1.386 . S
C659 C661 1.395 . S
C659 H669 0.930 . S
C660 C656 1.395 . S
C660 C661 1.379 . S
C660 H670 0.930 . S
C661 C659 1.395 . S
C661 C660 1.379 . S
C661 H671 0.930 . S
C662 O640 1.264 . S
C662 O641 1.254 . S
C663 Eu599 2.848 . S
C663 O638 1.257 . S
C663 O643 1.249 . S
C663 C656 1.492 . S
H664 C647 0.930 . S
H665 C648 0.930 . S
H666 C649 0.930 . S
H667 C650 0.930 . S
H668 C657 0.930 . S
H669 C659 0.930 . S
H670 C660 0.930 . S
H671 C661 0.930 . S
Eu672 N703 2.657 . S
Eu672 N710 2.609 . S
Eu672 O716 2.558 . S
Eu672 O717 2.612 . S
Eu672 O719 2.339 . S
Eu672 O720 2.563 . S
Eu672 O721 2.419 . S
Eu672 O723 2.380 . S
Eu672 O724 2.432 . S
Eu672 C736 2.848 . S
C673 C676 1.429 . S
C673 C677 1.411 . S
C673 N680 1.377 . S
C674 C676 1.420 . S
C674 C678 1.423 . S
C674 C686 1.392 . S
C675 C677 1.420 . S
C675 C678 1.351 . S
C675 H698 0.931 . S
C676 C673 1.429 . S
C676 C674 1.420 . S
C676 N684 1.362 . S
C677 C673 1.411 . S
C677 C675 1.420 . S
C677 C682 1.395 . S
C678 C674 1.423 . S
C678 C675 1.351 . S
C678 H690 0.930 . S
C679 C681 1.400 . S
C679 C682 1.386 . S
C679 H691 0.930 . S
N680 C673 1.377 . S
N680 C681 1.321 . S
N680 Eu683 2.609 1_565 S
C681 C679 1.400 . S
C681 N680 1.321 . S
C681 H688 0.930 . S
C682 C677 1.395 . S
C682 C679 1.386 . S
C682 H701 0.930 . S
Eu683 N680 2.609 1_545 S
Eu683 N684 2.657 1_545 S
Eu683 O717 2.380 . S
Eu683 O718 2.432 . S
Eu683 O722 2.558 1_545 S
Eu683 O723 2.612 . S
Eu683 O725 2.339 . S
Eu683 O726 2.563 . S
Eu683 O727 2.419 1_545 S
Eu683 C747 2.848 1_545 S
N684 C676 1.362 . S
N684 Eu683 2.657 1_565 S
N684 C685 1.334 . S
C685 N684 1.334 . S
C685 C687 1.408 1_455 S
C685 H692 0.929 . S
C686 C674 1.392 . S
C686 C687 1.361 1_455 S
C686 H694 0.930 1_455 S
C687 C685 1.408 1_655 S
C687 C686 1.361 1_655 S
C687 H689 0.943 . S
H688 C681 0.930 . S
H689 C687 0.943 . S
H690 C678 0.930 . S
H691 C679 0.930 . S
H692 C685 0.929 . S
H693 C707 0.930 . S
H694 C686 0.930 1_655 S
H695 C713 0.930 . S
H696 C704 0.929 . S
H697 C711 0.930 1_655 S
H698 C675 0.931 . S
H699 C705 0.930 . S
H700 C738 0.930 . S
H701 C682 0.930 . S
H702 C737 0.931 . S
N703 Eu672 2.657 . S
N703 C704 1.334 . S
N703 C708 1.362 . S
C704 H696 0.929 . S
C704 N703 1.334 . S
C704 C707 1.413 . S
C705 H699 0.930 . S
C705 C706 1.392 . S
C705 C707 1.367 . S
C706 C705 1.392 . S
C706 C708 1.420 . S
C706 C738 1.423 . S
C707 H693 0.930 . S
C707 C704 1.413 . S
C707 C705 1.367 . S
C708 N703 1.362 . S
C708 C706 1.420 . S
C708 C712 1.429 . S
H709 C714 0.930 . S
N710 Eu672 2.609 . S
N710 C712 1.377 . S
N710 C713 1.321 . S
C711 H697 0.930 1_455 S
C711 C713 1.400 . S
C711 C714 1.386 . S
C712 C708 1.429 . S
C712 N710 1.377 . S
C712 C715 1.411 . S
C713 H695 0.930 . S
C713 N710 1.321 . S
C713 C711 1.400 . S
C714 H709 0.930 . S
C714 C711 1.386 . S
C714 C715 1.395 . S
C715 C712 1.411 . S
C715 C714 1.395 . S
C715 C737 1.420 . S
O716 Eu672 2.558 . S
O716 C736 1.257 . S
O717 Eu672 2.612 . S
O717 Eu683 2.380 . S
O717 C728 1.276 . S
O718 Eu683 2.432 . S
O718 C735 1.264 . S
O719 Eu672 2.339 . S
O719 C735 1.254 . S
O720 Eu672 2.563 . S
O720 C728 1.235 . S
O721 Eu672 2.419 . S
O721 C736 1.249 . S
O722 Eu683 2.558 1_565 S
O722 C747 1.257 . S
O723 Eu672 2.380 . S
O723 Eu683 2.612 . S
O723 C739 1.276 . S
O724 Eu672 2.432 . S
O724 C746 1.264 . S
O725 Eu683 2.339 . S
O725 C746 1.254 . S
O726 Eu683 2.563 . S
O726 C739 1.235 . S
O727 Eu683 2.419 1_565 S
O727 C747 1.249 . S
C728 O717 1.276 . S
C728 O720 1.235 . S
C729 C731 1.393 . S
C729 C733 1.395 . S
C729 C736 1.492 . S
C730 C731 1.392 . S
C730 C732 1.386 . S
C731 C729 1.393 . S
C731 C730 1.392 . S
C731 H748 0.930 . S
C732 C730 1.386 . S
C732 C734 1.395 . S
C732 H749 0.930 . S
C733 C729 1.395 . S
C733 C734 1.379 . S
C733 H750 0.930 . S
C734 C732 1.395 . S
C734 C733 1.379 . S
C734 H751 0.930 . S
C735 O718 1.264 . S
C735 O719 1.254 . S
C736 Eu672 2.848 . S
C736 O716 1.257 . S
C736 O721 1.249 . S
C736 C729 1.492 . S
C737 H702 0.931 . S
C737 C715 1.420 . S
C737 C738 1.351 . S
C738 H700 0.930 . S
C738 C706 1.423 . S
C738 C737 1.351 . S
C739 O723 1.276 . S
C739 O726 1.235 . S
C740 C741 1.393 . S
C740 C744 1.395 . S
C740 C747 1.492 . S
C741 C740 1.393 . S
C741 C742 1.392 . S
C741 H752 0.930 . S
C742 C741 1.392 . S
C742 C743 1.386 . S
C743 C742 1.386 . S
C743 C745 1.395 . S
C743 H753 0.930 . S
C744 C740 1.395 . S
C744 C745 1.379 . S
C744 H754 0.930 . S
C745 C743 1.395 . S
C745 C744 1.379 . S
C745 H755 0.930 . S
C746 O724 1.264 . S
C746 O725 1.254 . S
C747 Eu683 2.848 1_565 S
C747 O722 1.257 . S
C747 O727 1.249 . S
C747 C740 1.492 . S
H748 C731 0.930 . S
H749 C732 0.930 . S
H750 C733 0.930 . S
H751 C734 0.930 . S
H752 C741 0.930 . S
H753 C743 0.930 . S
H754 C744 0.930 . S
H755 C745 0.930 . S
Eu756 N787 2.657 . S
Eu756 N794 2.609 . S
Eu756 O800 2.558 . S
Eu756 O801 2.612 . S
Eu756 O803 2.339 . S
Eu756 O804 2.563 . S
Eu756 O805 2.419 . S
Eu756 O807 2.380 . S
Eu756 O808 2.432 . S
Eu756 C820 2.848 . S
C757 C760 1.429 . S
C757 C761 1.411 . S
C757 N764 1.377 . S
C758 C760 1.420 . S
C758 C762 1.423 . S
C758 C770 1.392 . S
C759 C761 1.420 . S
C759 C762 1.351 . S
C759 H782 0.931 . S
C760 C757 1.429 . S
C760 C758 1.420 . S
C760 N768 1.362 . S
C761 C757 1.411 . S
C761 C759 1.420 . S
C761 C766 1.395 . S
C762 C758 1.423 . S
C762 C759 1.351 . S
C762 H774 0.930 . S
C763 C765 1.400 . S
C763 C766 1.386 . S
C763 H775 0.930 . S
N764 C757 1.377 . S
N764 C765 1.321 . S
N764 Eu767 2.609 . S
C765 C763 1.400 . S
C765 N764 1.321 . S
C765 H772 0.930 . S
C766 C761 1.395 . S
C766 C763 1.386 . S
C766 H785 0.930 . S
Eu767 N764 2.609 . S
Eu767 N768 2.657 . S
Eu767 O801 2.380 . S
Eu767 O802 2.432 . S
Eu767 O806 2.558 . S
Eu767 O807 2.612 . S
Eu767 O809 2.339 . S
Eu767 O810 2.563 . S
Eu767 O811 2.419 . S
Eu767 C831 2.848 . S
N768 C760 1.362 . S
N768 Eu767 2.657 . S
N768 C769 1.334 . S
C769 N768 1.334 . S
C769 C771 1.413 . S
C769 H776 0.929 . S
C770 C758 1.392 . S
C770 C771 1.367 . S
C770 H778 0.930 . S
C771 C769 1.413 . S
C771 C770 1.367 . S
C771 H773 0.930 . S
H772 C765 0.930 . S
H773 C771 0.930 . S
H774 C762 0.930 . S
H775 C763 0.930 . S
H776 C769 0.929 . S
H777 C791 0.930 . S
H778 C770 0.930 . S
H779 C797 0.930 . S
H780 C788 0.929 . S
H781 C795 0.930 . S
H782 C759 0.931 . S
H783 C789 0.930 . S
H784 C822 0.930 . S
H785 C766 0.930 . S
H786 C821 0.931 . S
N787 Eu756 2.657 . S
N787 C788 1.334 . S
N787 C792 1.362 . S
C788 H780 0.929 . S
C788 N787 1.334 . S
C788 C791 1.413 . S
C789 H783 0.930 . S
C789 C790 1.392 . S
C789 C791 1.367 . S
C790 C789 1.392 . S
C790 C792 1.420 . S
C790 C822 1.423 . S
C791 H777 0.930 . S
C791 C788 1.413 . S
C791 C789 1.367 . S
C792 N787 1.362 . S
C792 C790 1.420 . S
C792 C796 1.429 . S
H793 C798 0.930 . S
N794 Eu756 2.609 . S
N794 C796 1.377 . S
N794 C797 1.321 . S
C795 H781 0.930 . S
C795 C797 1.400 . S
C795 C798 1.386 . S
C796 C792 1.429 . S
C796 N794 1.377 . S
C796 C799 1.411 . S
C797 H779 0.930 . S
C797 N794 1.321 . S
C797 C795 1.400 . S
C798 H793 0.930 . S
C798 C795 1.386 . S
C798 C799 1.395 . S
C799 C796 1.411 . S
C799 C798 1.395 . S
C799 C821 1.420 . S
O800 Eu756 2.558 . S
O800 C820 1.257 . S
O801 Eu756 2.612 . S
O801 Eu767 2.380 . S
O801 C812 1.276 . S
O802 Eu767 2.432 . S
O802 C819 1.264 . S
O803 Eu756 2.339 . S
O803 C819 1.254 . S
O804 Eu756 2.563 . S
O804 C812 1.235 . S
O805 Eu756 2.419 . S
O805 C820 1.249 . S
O806 Eu767 2.558 . S
O806 C831 1.257 . S
O807 Eu756 2.380 . S
O807 Eu767 2.612 . S
O807 C823 1.276 . S
O808 Eu756 2.432 . S
O808 C830 1.264 . S
O809 Eu767 2.339 . S
O809 C830 1.254 . S
O810 Eu767 2.563 . S
O810 C823 1.235 . S
O811 Eu767 2.419 . S
O811 C831 1.249 . S
C812 O801 1.276 . S
C812 O804 1.235 . S
C813 C815 1.393 . S
C813 C817 1.395 . S
C813 C820 1.492 . S
C814 C815 1.392 . S
C814 C816 1.386 . S
C815 C813 1.393 . S
C815 C814 1.392 . S
C815 H832 0.930 . S
C816 C814 1.386 . S
C816 C818 1.395 . S
C816 H833 0.930 . S
C817 C813 1.395 . S
C817 C818 1.379 . S
C817 H834 0.930 . S
C818 C816 1.395 . S
C818 C817 1.379 . S
C818 H835 0.930 . S
C819 O802 1.264 . S
C819 O803 1.254 . S
C820 Eu756 2.848 . S
C820 O800 1.257 . S
C820 O805 1.249 . S
C820 C813 1.492 . S
C821 H786 0.931 . S
C821 C799 1.420 . S
C821 C822 1.351 . S
C822 H784 0.930 . S
C822 C790 1.423 . S
C822 C821 1.351 . S
C823 O807 1.276 . S
C823 O810 1.235 . S
C824 C825 1.393 . S
C824 C828 1.395 . S
C824 C831 1.492 . S
C825 C824 1.393 . S
C825 C826 1.392 . S
C825 H836 0.930 . S
C826 C825 1.392 . S
C826 C827 1.386 . S
C827 C826 1.386 . S
C827 C829 1.395 . S
C827 H837 0.930 . S
C828 C824 1.395 . S
C828 C829 1.379 . S
C828 H838 0.930 . S
C829 C827 1.395 . S
C829 C828 1.379 . S
C829 H839 0.930 . S
C830 O808 1.264 . S
C830 O809 1.254 . S
C831 Eu767 2.848 . S
C831 O806 1.257 . S
C831 O811 1.249 . S
C831 C824 1.492 . S
H832 C815 0.930 . S
H833 C816 0.930 . S
H834 C817 0.930 . S
H835 C818 0.930 . S
H836 C825 0.930 . S
H837 C827 0.930 . S
H838 C828 0.930 . S
H839 C829 0.930 . S
Eu840 N871 2.657 . S
Eu840 N878 2.609 . S
Eu840 O884 2.585 . S
Eu840 O885 2.612 . S
Eu840 O887 2.339 . S
Eu840 O888 2.563 . S
Eu840 O889 2.419 . S
Eu840 O891 2.380 . S
Eu840 O892 2.432 1_545 S
Eu840 C904 2.848 . S
C841 C844 1.429 . S
C841 C845 1.411 . S
C841 N848 1.377 . S
C842 C844 1.420 . S
C842 C846 1.423 . S
C842 C854 1.392 1_545 S
C843 C845 1.420 . S
C843 C846 1.351 . S
C843 H866 0.931 . S
C844 C841 1.429 . S
C844 C842 1.420 . S
C844 N852 1.362 . S
C845 C841 1.411 . S
C845 C843 1.420 . S
C845 C850 1.395 . S
C846 C842 1.423 . S
C846 C843 1.351 . S
C846 H858 0.930 . S
C847 C849 1.400 . S
C847 C850 1.386 . S
C847 H859 0.930 . S
N848 C841 1.377 . S
N848 C849 1.321 . S
N848 Eu851 2.609 . S
C849 C847 1.400 . S
C849 N848 1.321 . S
C849 H856 0.930 . S
C850 C845 1.395 . S
C850 C847 1.386 . S
C850 H869 0.930 . S
Eu851 N848 2.609 . S
Eu851 N852 2.657 . S
Eu851 O885 2.380 1_556 S
Eu851 O886 2.432 1_556 S
Eu851 O890 2.558 . S
Eu851 O891 2.612 1_556 S
Eu851 O893 2.339 . S
Eu851 O894 2.563 . S
Eu851 O895 2.419 . S
Eu851 C915 2.848 . S
N852 C844 1.362 . S
N852 Eu851 2.657 . S
N852 C853 1.334 1_545 S
C853 N852 1.334 1_565 S
C853 C855 1.413 . S
C853 H860 0.929 . S
C854 C842 1.392 1_565 S
C854 C855 1.367 . S
C854 H862 0.930 . S
C855 C853 1.413 . S
C855 C854 1.367 . S
C855 H857 0.930 . S
H856 C849 0.930 . S
H857 C855 0.930 . S
H858 C846 0.930 . S
H859 C847 0.930 . S
H860 C853 0.929 . S
H861 C875 0.930 . S
H862 C854 0.930 . S
H863 C881 0.930 . S
H864 C872 0.929 . S
H865 C879 0.930 . S
H866 C843 0.931 . S
H867 C873 0.930 . S
H868 C906 0.930 . S
H869 C850 0.930 . S
H870 C905 0.931 . S
N871 Eu840 2.657 . S
N871 C872 1.334 . S
N871 C876 1.362 . S
C872 H864 0.929 . S
C872 N871 1.334 . S
C872 C875 1.413 . S
C873 H867 0.930 . S
C873 C874 1.392 . S
C873 C875 1.367 . S
C874 C873 1.392 . S
C874 C876 1.420 . S
C874 C906 1.423 . S
C875 H861 0.930 . S
C875 C872 1.413 . S
C875 C873 1.367 . S
C876 N871 1.362 . S
C876 C874 1.420 . S
C876 C880 1.429 . S
H877 C882 0.930 . S
N878 Eu840 2.609 . S
N878 C880 1.377 . S
N878 C881 1.321 1_545 S
C879 H865 0.930 . S
C879 C881 1.400 . S
C879 C882 1.386 . S
C880 C876 1.429 . S
C880 N878 1.377 . S
C880 C883 1.411 . S
C881 H863 0.930 . S
C881 N878 1.321 1_565 S
C881 C879 1.400 . S
C882 H877 0.930 . S
C882 C879 1.386 . S
C882 C883 1.395 1_565 S
C883 C880 1.411 . S
C883 C882 1.395 1_545 S
C883 C905 1.420 . S
O884 Eu840 2.585 . S
O884 C904 1.282 . S
O885 Eu840 2.612 . S
O885 Eu851 2.380 1_554 S
O885 C896 1.276 . S
O886 Eu851 2.432 1_554 S
O886 C903 1.264 . S
O887 Eu840 2.339 . S
O887 C903 1.254 . S
O888 Eu840 2.563 . S
O888 C896 1.235 . S
O889 Eu840 2.419 . S
O889 C904 1.249 . S
O890 Eu851 2.558 . S
O890 C915 1.257 . S
O891 Eu840 2.380 . S
O891 Eu851 2.612 1_554 S
O891 C907 1.276 . S
O892 Eu840 2.432 1_565 S
O892 C914 1.261 1_564 S
O893 Eu851 2.339 . S
O893 C914 1.267 . S
O894 Eu851 2.563 . S
O894 C907 1.235 1_556 S
O895 Eu851 2.419 . S
O895 C915 1.249 . S
C896 O885 1.276 . S
C896 O888 1.235 . S
C897 C899 1.393 . S
C897 C901 1.395 1_545 S
C897 C904 1.492 . S
C898 C899 1.392 . S
C898 C900 1.344 1_545 S
C899 C897 1.393 . S
C899 C898 1.392 . S
C899 H916 0.930 . S
C900 C898 1.344 1_565 S
C900 C902 1.423 . S
C900 H917 0.944 . S
C901 C897 1.395 1_565 S
C901 C902 1.379 . S
C901 H918 0.930 . S
C902 C900 1.423 . S
C902 C901 1.379 . S
C902 H919 0.930 . S
C903 O886 1.264 . S
C903 O887 1.254 . S
C904 Eu840 2.848 . S
C904 O884 1.282 . S
C904 O889 1.249 . S
C904 C897 1.492 . S
C905 H870 0.931 . S
C905 C883 1.420 . S
C905 C906 1.351 . S
C906 H868 0.930 . S
C906 C874 1.423 . S
C906 C905 1.351 . S
C907 O891 1.276 . S
C907 O894 1.235 1_554 S
C908 C909 1.393 . S
C908 C912 1.395 . S
C908 C915 1.492 . S
C909 C908 1.393 . S
C909 C910 1.392 . S
C909 H920 0.930 . S
C910 C909 1.392 . S
C910 C911 1.386 . S
C911 C910 1.386 . S
C911 C913 1.395 . S
C911 H921 0.930 . S
C912 C908 1.395 . S
C912 C913 1.379 . S
C912 H922 0.930 . S
C913 C911 1.395 . S
C913 C912 1.379 . S
C913 H923 0.930 . S
C914 O892 1.261 1_546 S
C914 O893 1.267 . S
C915 Eu851 2.848 . S
C915 O890 1.257 . S
C915 O895 1.249 . S
C915 C908 1.492 . S
H916 C899 0.930 . S
H917 C900 0.944 . S
H918 C901 0.930 . S
H919 C902 0.930 . S
H920 C909 0.930 . S
H921 C911 0.930 . S
H922 C912 0.930 . S
H923 C913 0.930 . S
Eu924 N955 2.657 . S
Eu924 N962 2.609 . S
Eu924 O968 2.558 . S
Eu924 O969 2.612 . S
Eu924 O971 2.339 . S
Eu924 O972 2.563 . S
Eu924 O973 2.419 . S
Eu924 O975 2.380 . S
Eu924 O976 2.432 . S
Eu924 C988 2.848 . S
C925 C928 1.429 . S
C925 C929 1.411 . S
C925 N932 1.377 . S
C926 C928 1.420 . S
C926 C930 1.423 . S
C926 C938 1.392 . S
C927 C929 1.420 . S
C927 C930 1.351 . S
C927 H950 0.931 . S
C928 C925 1.429 . S
C928 C926 1.420 . S
C928 N936 1.362 . S
C929 C925 1.411 . S
C929 C927 1.420 . S
C929 C934 1.395 . S
C930 C926 1.423 . S
C930 C927 1.351 . S
C930 H942 0.930 . S
C931 C933 1.400 . S
C931 C934 1.386 . S
C931 H943 0.930 . S
N932 C925 1.377 . S
N932 C933 1.321 . S
N932 Eu935 2.609 . S
C933 C931 1.400 . S
C933 N932 1.321 . S
C933 H940 0.930 . S
C934 C929 1.395 . S
C934 C931 1.386 . S
C934 H953 0.930 . S
Eu935 N932 2.609 . S
Eu935 N936 2.657 . S
Eu935 O969 2.380 . S
Eu935 O970 2.432 . S
Eu935 O974 2.558 . S
Eu935 O975 2.612 . S
Eu935 O977 2.339 . S
Eu935 O978 2.563 . S
Eu935 O979 2.419 . S
Eu935 C999 2.848 . S
N936 C928 1.362 . S
N936 Eu935 2.657 . S
N936 C937 1.334 . S
C937 N936 1.334 . S
C937 C939 1.413 . S
C937 H944 0.929 . S
C938 C926 1.392 . S
C938 C939 1.367 . S
C938 H946 0.930 . S
C939 C937 1.413 . S
C939 C938 1.367 . S
C939 H941 0.930 . S
H940 C933 0.930 . S
H941 C939 0.930 . S
H942 C930 0.930 . S
H943 C931 0.930 . S
H944 C937 0.929 . S
H945 C959 0.930 . S
H946 C938 0.930 . S
H947 C965 0.930 . S
H948 C956 0.929 . S
H949 C963 0.930 . S
H950 C927 0.931 . S
H951 C957 0.930 . S
H952 C990 0.930 . S
H953 C934 0.930 . S
H954 C989 0.931 . S
N955 Eu924 2.657 . S
N955 C956 1.334 . S
N955 C960 1.362 . S
C956 H948 0.929 . S
C956 N955 1.334 . S
C956 C959 1.413 . S
C957 H951 0.930 . S
C957 C958 1.392 . S
C957 C959 1.367 . S
C958 C957 1.392 . S
C958 C960 1.420 . S
C958 C990 1.423 . S
C959 H945 0.930 . S
C959 C956 1.413 . S
C959 C957 1.367 . S
C960 N955 1.362 . S
C960 C958 1.420 . S
C960 C964 1.429 . S
H961 C966 0.930 . S
N962 Eu924 2.609 . S
N962 C964 1.377 . S
N962 C965 1.321 . S
C963 H949 0.930 . S
C963 C965 1.400 . S
C963 C966 1.386 . S
C964 C960 1.429 . S
C964 N962 1.377 . S
C964 C967 1.411 . S
C965 H947 0.930 . S
C965 N962 1.321 . S
C965 C963 1.400 . S
C966 H961 0.930 . S
C966 C963 1.386 . S
C966 C967 1.395 . S
C967 C964 1.411 . S
C967 C966 1.395 . S
C967 C989 1.420 . S
O968 Eu924 2.558 . S
O968 C988 1.257 . S
O969 Eu924 2.612 . S
O969 Eu935 2.380 . S
O969 C980 1.276 . S
O970 Eu935 2.432 . S
O970 C987 1.264 . S
O971 Eu924 2.339 . S
O971 C987 1.254 . S
O972 Eu924 2.563 . S
O972 C980 1.235 . S
O973 Eu924 2.419 . S
O973 C988 1.249 . S
O974 Eu935 2.558 . S
O974 C999 1.257 . S
O975 Eu924 2.380 . S
O975 Eu935 2.612 . S
O975 C991 1.276 . S
O976 Eu924 2.432 . S
O976 C998 1.264 . S
O977 Eu935 2.339 . S
O977 C998 1.254 . S
O978 Eu935 2.563 . S
O978 C991 1.235 . S
O979 Eu935 2.419 . S
O979 C999 1.249 . S
C980 O969 1.276 . S
C980 O972 1.235 . S
C981 C983 1.393 . S
C981 C985 1.395 . S
C981 C988 1.492 . S
C982 C983 1.392 . S
C982 C984 1.386 . S
C983 C981 1.393 . S
C983 C982 1.392 . S
C983 H1000 0.930 . S
C984 C982 1.386 . S
C984 C986 1.395 . S
C984 H1001 0.930 . S
C985 C981 1.395 . S
C985 C986 1.379 . S
C985 H1002 0.930 . S
C986 C984 1.395 . S
C986 C985 1.379 . S
C986 H1003 0.930 . S
C987 O970 1.264 . S
C987 O971 1.254 . S
C988 Eu924 2.848 . S
C988 O968 1.257 . S
C988 O973 1.249 . S
C988 C981 1.492 . S
C989 H954 0.931 . S
C989 C967 1.420 . S
C989 C990 1.351 . S
C990 H952 0.930 . S
C990 C958 1.423 . S
C990 C989 1.351 . S
C991 O975 1.276 . S
C991 O978 1.235 . S
C992 C993 1.393 . S
C992 C996 1.395 . S
C992 C999 1.492 . S
C993 C992 1.393 . S
C993 C994 1.392 . S
C993 H1004 0.930 . S
C994 C993 1.392 . S
C994 C995 1.386 . S
C995 C994 1.386 . S
C995 C997 1.395 . S
C995 H1005 0.930 . S
C996 C992 1.395 . S
C996 C997 1.379 . S
C996 H1006 0.930 . S
C997 C995 1.395 . S
C997 C996 1.379 . S
C997 H1007 0.930 . S
C998 O976 1.264 . S
C998 O977 1.254 . S
C999 Eu935 2.848 . S
C999 O974 1.257 . S
C999 O979 1.249 . S
C999 C992 1.492 . S
H1000 C983 0.930 . S
H1001 C984 0.930 . S
H1002 C985 0.930 . S
H1003 C986 0.930 . S
H1004 C993 0.930 . S
H1005 C995 0.930 . S
H1006 C996 0.930 . S
H1007 C997 0.930 . S
Eu1008 N1039 2.657 . S
Eu1008 N1046 2.609 . S
Eu1008 O1052 2.558 . S
Eu1008 O1053 2.612 1_554 S
Eu1008 O1055 2.339 . S
Eu1008 O1056 2.563 1_554 S
Eu1008 O1057 2.419 . S
Eu1008 O1059 2.380 . S
Eu1008 O1060 2.432 . S
Eu1008 C1072 2.848 . S
C1009 C1012 1.429 . S
C1009 C1013 1.411 . S
C1009 N1016 1.377 . S
C1010 C1012 1.420 . S
C1010 C1014 1.423 . S
C1010 C1022 1.392 . S
C1011 C1013 1.420 . S
C1011 C1014 1.351 . S
C1011 H1034 0.931 . S
C1012 C1009 1.429 . S
C1012 C1010 1.420 . S
C1012 N1020 1.362 . S
C1013 C1009 1.411 . S
C1013 C1011 1.420 . S
C1013 C1018 1.395 . S
C1014 C1010 1.423 . S
C1014 C1011 1.351 . S
C1014 H1026 0.930 . S
C1015 C1017 1.400 . S
C1015 C1018 1.386 . S
C1015 H1027 0.930 . S
N1016 C1009 1.377 . S
N1016 C1017 1.321 . S
N1016 Eu1019 2.609 1_556 S
C1017 C1015 1.400 . S
C1017 N1016 1.321 . S
C1017 H1024 0.930 . S
C1018 C1013 1.395 . S
C1018 C1015 1.386 . S
C1018 H1037 0.930 . S
Eu1019 N1016 2.609 1_554 S
Eu1019 N1020 2.657 1_554 S
Eu1019 O1053 2.380 1_554 S
Eu1019 O1054 2.432 . S
Eu1019 O1058 2.558 . S
Eu1019 O1059 2.612 . S
Eu1019 O1061 2.339 . S
Eu1019 O1062 2.563 . S
Eu1019 O1063 2.419 . S
Eu1019 C1083 2.848 . S
N1020 C1012 1.362 . S
N1020 Eu1019 2.657 1_556 S
N1020 C1021 1.334 . S
C1021 N1020 1.334 . S
C1021 C1023 1.413 . S
C1021 H1028 0.929 . S
C1022 C1010 1.392 . S
C1022 C1023 1.367 . S
C1022 H1030 0.930 . S
C1023 C1021 1.413 . S
C1023 C1022 1.367 . S
C1023 H1025 0.930 . S
H1024 C1017 0.930 . S
H1025 C1023 0.930 . S
H1026 C1014 0.930 . S
H1027 C1015 0.930 . S
H1028 C1021 0.929 . S
H1029 C1043 0.930 . S
H1030 C1022 0.930 . S
H1031 C1049 0.930 . S
H1032 C1040 0.929 . S
H1033 C1047 0.930 . S
H1034 C1011 0.931 . S
H1035 C1041 0.930 . S
H1036 C1074 0.930 . S
H1037 C1018 0.930 . S
H1038 C1073 0.931 . S
N1039 Eu1008 2.657 . S
N1039 C1040 1.334 . S
N1039 C1044 1.362 . S
C1040 H1032 0.929 . S
C1040 N1039 1.334 . S
C1040 C1043 1.413 . S
C1041 H1035 0.930 . S
C1041 C1042 1.392 . S
C1041 C1043 1.367 . S
C1042 C1041 1.392 . S
C1042 C1044 1.420 . S
C1042 C1074 1.423 . S
C1043 H1029 0.930 . S
C1043 C1040 1.413 . S
C1043 C1041 1.367 . S
C1044 N1039 1.362 . S
C1044 C1042 1.420 . S
C1044 C1048 1.429 . S
H1045 C1050 0.930 . S
N1046 Eu1008 2.609 . S
N1046 C1048 1.377 . S
N1046 C1049 1.321 . S
C1047 H1033 0.930 . S
C1047 C1049 1.400 . S
C1047 C1050 1.386 . S
C1048 C1044 1.429 . S
C1048 N1046 1.377 . S
C1048 C1051 1.411 . S
C1049 H1031 0.930 . S
C1049 N1046 1.321 . S
C1049 C1047 1.400 . S
C1050 H1045 0.930 . S
C1050 C1047 1.386 . S
C1050 C1051 1.395 . S
C1051 C1048 1.411 . S
C1051 C1050 1.395 . S
C1051 C1073 1.420 . S
O1052 Eu1008 2.558 . S
O1052 C1072 1.257 . S
O1053 Eu1008 2.612 1_556 S
O1053 Eu1019 2.380 1_556 S
O1053 C1064 1.276 . S
O1054 Eu1019 2.432 . S
O1054 C1071 1.264 . S
O1055 Eu1008 2.339 . S
O1055 C1071 1.254 . S
O1056 Eu1008 2.563 1_556 S
O1056 C1064 1.235 . S
O1057 Eu1008 2.419 . S
O1057 C1072 1.249 . S
O1058 Eu1019 2.558 . S
O1058 C1083 1.257 . S
O1059 Eu1008 2.380 . S
O1059 Eu1019 2.612 . S
O1059 C1075 1.276 . S
O1060 Eu1008 2.432 . S
O1060 C1082 1.264 . S
O1061 Eu1019 2.339 . S
O1061 C1082 1.254 . S
O1062 Eu1019 2.563 . S
O1062 C1075 1.235 . S
O1063 Eu1019 2.419 . S
O1063 C1083 1.249 . S
C1064 O1053 1.276 . S
C1064 O1056 1.235 . S
C1065 C1067 1.393 . S
C1065 C1069 1.395 . S
C1065 C1072 1.492 . S
C1066 C1067 1.392 1_556 S
C1066 C1068 1.386 1_556 S
C1067 C1065 1.393 . S
C1067 C1066 1.392 1_554 S
C1067 H1084 0.930 1_554 S
C1068 C1066 1.386 1_554 S
C1068 C1070 1.395 . S
C1068 H1085 0.915 1_554 S
C1069 C1065 1.395 . S
C1069 C1070 1.379 . S
C1069 H1086 0.930 . S
C1070 C1068 1.395 . S
C1070 C1069 1.379 . S
C1070 H1087 0.930 . S
C1071 O1054 1.264 . S
C1071 O1055 1.254 . S
C1072 Eu1008 2.848 . S
C1072 O1052 1.257 . S
C1072 O1057 1.249 . S
C1072 C1065 1.492 . S
C1073 H1038 0.931 . S
C1073 C1051 1.420 . S
C1073 C1074 1.351 . S
C1074 H1036 0.930 . S
C1074 C1042 1.423 . S
C1074 C1073 1.351 . S
C1075 O1059 1.276 . S
C1075 O1062 1.235 . S
C1076 C1077 1.393 . S
C1076 C1080 1.395 . S
C1076 C1083 1.492 . S
C1077 C1076 1.393 . S
C1077 C1078 1.392 . S
C1077 H1088 0.930 . S
C1078 C1077 1.392 . S
C1078 C1079 1.386 . S
C1079 C1078 1.386 . S
C1079 C1081 1.395 . S
C1079 H1089 0.930 . S
C1080 C1076 1.395 . S
C1080 C1081 1.379 . S
C1080 H1090 0.930 . S
C1081 C1079 1.395 . S
C1081 C1080 1.379 . S
C1081 H1091 0.930 . S
C1082 O1060 1.264 . S
C1082 O1061 1.254 . S
C1083 Eu1019 2.848 . S
C1083 O1058 1.257 . S
C1083 O1063 1.249 . S
C1083 C1076 1.492 . S
H1084 C1067 0.930 1_556 S
H1085 C1068 0.915 1_556 S
H1086 C1069 0.930 . S
H1087 C1070 0.930 . S
H1088 C1077 0.930 . S
H1089 C1079 0.930 . S
H1090 C1080 0.930 . S
H1091 C1081 0.930 . S
Eu1092 N1123 2.657 . S
Eu1092 N1130 2.609 . S
Eu1092 O1136 2.558 . S
Eu1092 O1137 2.612 . S
Eu1092 O1139 2.339 . S
Eu1092 O1140 2.563 . S
Eu1092 O1141 2.419 . S
Eu1092 O1143 2.380 . S
Eu1092 O1144 2.432 . S
Eu1092 C1156 2.848 . S
C1093 C1096 1.429 . S
C1093 C1097 1.411 . S
C1093 N1100 1.377 . S
C1094 C1096 1.420 . S
C1094 C1098 1.423 . S
C1094 C1106 1.392 . S
C1095 C1097 1.420 . S
C1095 C1098 1.351 . S
C1095 H1118 0.931 . S
C1096 C1093 1.429 . S
C1096 C1094 1.420 . S
C1096 N1104 1.362 . S
C1097 C1093 1.411 . S
C1097 C1095 1.420 . S
C1097 C1102 1.395 . S
C1098 C1094 1.423 . S
C1098 C1095 1.351 . S
C1098 H1110 0.930 . S
C1099 C1101 1.400 . S
C1099 C1102 1.386 . S
C1099 H1111 0.930 . S
N1100 C1093 1.377 . S
N1100 C1101 1.321 . S
N1100 Eu1103 2.609 . S
C1101 C1099 1.400 . S
C1101 N1100 1.321 . S
C1101 H1108 0.930 . S
C1102 C1097 1.395 . S
C1102 C1099 1.386 . S
C1102 H1121 0.930 . S
Eu1103 N1100 2.609 . S
Eu1103 N1104 2.657 . S
Eu1103 O1137 2.380 . S
Eu1103 O1138 2.432 . S
Eu1103 O1142 2.558 . S
Eu1103 O1143 2.612 . S
Eu1103 O1145 2.339 . S
Eu1103 O1146 2.563 . S
Eu1103 O1147 2.419 . S
Eu1103 C1167 2.848 . S
N1104 C1096 1.362 . S
N1104 Eu1103 2.657 . S
N1104 C1105 1.334 . S
C1105 N1104 1.334 . S
C1105 C1107 1.413 . S
C1105 H1112 0.929 . S
C1106 C1094 1.392 . S
C1106 C1107 1.367 . S
C1106 H1114 0.930 . S
C1107 C1105 1.413 . S
C1107 C1106 1.367 . S
C1107 H1109 0.930 . S
H1108 C1101 0.930 . S
H1109 C1107 0.930 . S
H1110 C1098 0.930 . S
H1111 C1099 0.930 . S
H1112 C1105 0.929 . S
H1113 C1127 0.930 . S
H1114 C1106 0.930 . S
H1115 C1133 0.930 . S
H1116 C1124 0.929 . S
H1117 C1131 0.930 . S
H1118 C1095 0.931 . S
H1119 C1125 0.930 . S
H1120 C1158 0.930 . S
H1121 C1102 0.930 . S
H1122 C1157 0.931 . S
N1123 Eu1092 2.657 . S
N1123 C1124 1.334 . S
N1123 C1128 1.362 . S
C1124 H1116 0.929 . S
C1124 N1123 1.334 . S
C1124 C1127 1.413 . S
C1125 H1119 0.930 . S
C1125 C1126 1.392 . S
C1125 C1127 1.367 . S
C1126 C1125 1.392 . S
C1126 C1128 1.420 . S
C1126 C1158 1.423 . S
C1127 H1113 0.930 . S
C1127 C1124 1.413 . S
C1127 C1125 1.367 . S
C1128 N1123 1.362 . S
C1128 C1126 1.420 . S
C1128 C1132 1.429 . S
H1129 C1134 0.930 . S
N1130 Eu1092 2.609 . S
N1130 C1132 1.377 . S
N1130 C1133 1.321 . S
C1131 H1117 0.930 . S
C1131 C1133 1.400 . S
C1131 C1134 1.386 . S
C1132 C1128 1.429 . S
C1132 N1130 1.377 . S
C1132 C1135 1.411 . S
C1133 H1115 0.930 . S
C1133 N1130 1.321 . S
C1133 C1131 1.400 . S
C1134 H1129 0.930 . S
C1134 C1131 1.386 . S
C1134 C1135 1.395 . S
C1135 C1132 1.411 . S
C1135 C1134 1.395 . S
C1135 C1157 1.420 . S
O1136 Eu1092 2.558 . S
O1136 C1156 1.257 . S
O1137 Eu1092 2.612 . S
O1137 Eu1103 2.380 . S
O1137 C1148 1.276 . S
O1138 Eu1103 2.432 . S
O1138 C1155 1.264 . S
O1139 Eu1092 2.339 . S
O1139 C1155 1.254 . S
O1140 Eu1092 2.563 . S
O1140 C1148 1.235 . S
O1141 Eu1092 2.419 . S
O1141 C1156 1.249 . S
O1142 Eu1103 2.558 . S
O1142 C1167 1.257 . S
O1143 Eu1092 2.380 . S
O1143 Eu1103 2.612 . S
O1143 C1159 1.276 . S
O1144 Eu1092 2.432 . S
O1144 C1166 1.264 . S
O1145 Eu1103 2.339 . S
O1145 C1166 1.254 . S
O1146 Eu1103 2.563 . S
O1146 C1159 1.235 . S
O1147 Eu1103 2.419 . S
O1147 C1167 1.249 . S
C1148 O1137 1.276 . S
C1148 O1140 1.235 . S
C1149 C1151 1.393 . S
C1149 C1153 1.395 . S
C1149 C1156 1.492 . S
C1150 C1151 1.392 . S
C1150 C1152 1.386 . S
C1151 C1149 1.393 . S
C1151 C1150 1.392 . S
C1151 H1168 0.930 . S
C1152 C1150 1.386 . S
C1152 C1154 1.395 . S
C1152 H1169 0.930 . S
C1153 C1149 1.395 . S
C1153 C1154 1.379 . S
C1153 H1170 0.930 . S
C1154 C1152 1.395 . S
C1154 C1153 1.379 . S
C1154 H1171 0.930 . S
C1155 O1138 1.264 . S
C1155 O1139 1.254 . S
C1156 Eu1092 2.848 . S
C1156 O1136 1.257 . S
C1156 O1141 1.249 . S
C1156 C1149 1.492 . S
C1157 H1122 0.931 . S
C1157 C1135 1.420 . S
C1157 C1158 1.351 . S
C1158 H1120 0.930 . S
C1158 C1126 1.423 . S
C1158 C1157 1.351 . S
C1159 O1143 1.276 . S
C1159 O1146 1.235 . S
C1160 C1161 1.393 . S
C1160 C1164 1.395 . S
C1160 C1167 1.492 . S
C1161 C1160 1.393 . S
C1161 C1162 1.392 . S
C1161 H1172 0.930 . S
C1162 C1161 1.392 . S
C1162 C1163 1.386 . S
C1163 C1162 1.386 . S
C1163 C1165 1.395 . S
C1163 H1173 0.930 . S
C1164 C1160 1.395 . S
C1164 C1165 1.379 . S
C1164 H1174 0.930 . S
C1165 C1163 1.395 . S
C1165 C1164 1.379 . S
C1165 H1175 0.930 . S
C1166 O1144 1.264 . S
C1166 O1145 1.254 . S
C1167 Eu1103 2.848 . S
C1167 O1142 1.257 . S
C1167 O1147 1.249 . S
C1167 C1160 1.492 . S
H1168 C1151 0.930 . S
H1169 C1152 0.930 . S
H1170 C1153 0.930 . S
H1171 C1154 0.930 . S
H1172 C1161 0.930 . S
H1173 C1163 0.930 . S
H1174 C1164 0.930 . S
H1175 C1165 0.930 . S
Eu1176 N1207 2.657 . S
Eu1176 N1214 2.609 . S
Eu1176 O1220 2.558 . S
Eu1176 O1221 2.612 . S
Eu1176 O1223 2.339 . S
Eu1176 O1224 2.563 . S
Eu1176 O1225 2.419 . S
Eu1176 O1227 2.380 . S
Eu1176 O1228 2.432 . S
Eu1176 C1240 2.848 . S
C1177 C1180 1.429 1_455 S
C1177 C1181 1.409 1_455 S
C1177 N1184 1.378 . S
C1178 C1180 1.420 . S
C1178 C1182 1.423 . S
C1178 C1190 1.392 . S
C1179 C1181 1.420 . S
C1179 C1182 1.351 . S
C1179 H1202 0.931 . S
C1180 C1177 1.429 1_655 S
C1180 C1178 1.420 . S
C1180 N1188 1.362 1_655 S
C1181 C1177 1.409 1_655 S
C1181 C1179 1.420 . S
C1181 C1186 1.395 . S
C1182 C1178 1.423 . S
C1182 C1179 1.351 . S
C1182 H1194 0.930 . S
C1183 C1185 1.400 . S
C1183 C1186 1.386 1_455 S
C1183 H1195 0.930 . S
N1184 C1177 1.378 . S
N1184 C1185 1.321 . S
N1184 Eu1187 2.609 . S
C1185 C1183 1.400 . S
C1185 N1184 1.321 . S
C1185 H1192 0.930 . S
C1186 C1181 1.395 . S
C1186 C1183 1.386 1_655 S
C1186 H1205 0.930 . S
Eu1187 N1184 2.609 . S
Eu1187 N1188 2.657 . S
Eu1187 O1221 2.380 . S
Eu1187 O1222 2.432 . S
Eu1187 O1226 2.558 . S
Eu1187 O1227 2.612 . S
Eu1187 O1229 2.339 . S
Eu1187 O1230 2.563 . S
Eu1187 O1231 2.419 . S
Eu1187 C1251 2.848 . S
N1188 C1180 1.362 1_455 S
N1188 Eu1187 2.657 . S
N1188 C1189 1.334 . S
C1189 N1188 1.334 . S
C1189 C1191 1.413 1_455 S
C1189 H1196 0.929 . S
C1190 C1178 1.392 . S
C1190 C1191 1.367 . S
C1190 H1198 0.930 . S
C1191 C1189 1.413 1_655 S
C1191 C1190 1.367 . S
C1191 H1193 0.930 . S
H1192 C1185 0.930 . S
H1193 C1191 0.930 . S
H1194 C1182 0.930 . S
H1195 C1183 0.930 . S
H1196 C1189 0.929 . S
H1197 C1211 0.930 . S
H1198 C1190 0.930 . S
H1199 C1217 0.930 . S
H1200 C1208 0.929 . S
H1201 C1215 0.930 . S
H1202 C1179 0.931 . S
H1203 C1209 0.930 . S
H1204 C1242 0.930 . S
H1205 C1186 0.930 . S
H1206 C1241 0.931 . S
N1207 Eu1176 2.657 . S
N1207 C1208 1.334 . S
N1207 C1212 1.362 . S
C1208 H1200 0.929 . S
C1208 N1207 1.334 . S
C1208 C1211 1.413 . S
C1209 H1203 0.930 . S
C1209 C1210 1.392 . S
C1209 C1211 1.367 . S
C1210 C1209 1.392 . S
C1210 C1212 1.420 . S
C1210 C1242 1.423 . S
C1211 H1197 0.930 . S
C1211 C1208 1.413 . S
C1211 C1209 1.367 . S
C1212 N1207 1.362 . S
C1212 C1210 1.420 . S
C1212 C1216 1.429 . S
H1213 C1218 0.930 . S
N1214 Eu1176 2.609 . S
N1214 C1216 1.377 . S
N1214 C1217 1.321 . S
C1215 H1201 0.930 . S
C1215 C1217 1.400 . S
C1215 C1218 1.386 . S
C1216 C1212 1.429 . S
C1216 N1214 1.377 . S
C1216 C1219 1.411 . S
C1217 H1199 0.930 . S
C1217 N1214 1.321 . S
C1217 C1215 1.400 . S
C1218 H1213 0.930 . S
C1218 C1215 1.386 . S
C1218 C1219 1.395 . S
C1219 C1216 1.411 . S
C1219 C1218 1.395 . S
C1219 C1241 1.420 . S
O1220 Eu1176 2.558 . S
O1220 C1240 1.257 . S
O1221 Eu1176 2.612 . S
O1221 Eu1187 2.380 . S
O1221 C1232 1.276 . S
O1222 Eu1187 2.432 . S
O1222 C1239 1.264 . S
O1223 Eu1176 2.339 . S
O1223 C1239 1.254 . S
O1224 Eu1176 2.563 . S
O1224 C1232 1.235 . S
O1225 Eu1176 2.419 . S
O1225 C1240 1.249 . S
O1226 Eu1187 2.558 . S
O1226 C1251 1.257 . S
O1227 Eu1176 2.380 . S
O1227 Eu1187 2.612 . S
O1227 C1243 1.276 . S
O1228 Eu1176 2.432 . S
O1228 C1250 1.264 . S
O1229 Eu1187 2.339 . S
O1229 C1250 1.254 . S
O1230 Eu1187 2.563 . S
O1230 C1243 1.235 . S
O1231 Eu1187 2.419 . S
O1231 C1251 1.249 . S
C1232 O1221 1.276 . S
C1232 O1224 1.235 . S
C1233 C1235 1.393 . S
C1233 C1237 1.395 . S
C1233 C1240 1.492 . S
C1234 C1235 1.392 . S
C1234 C1236 1.386 . S
C1235 C1233 1.393 . S
C1235 C1234 1.392 . S
C1235 H1252 0.930 . S
C1236 C1234 1.386 . S
C1236 C1238 1.395 . S
C1236 H1253 0.930 . S
C1237 C1233 1.395 . S
C1237 C1238 1.379 . S
C1237 H1254 0.930 . S
C1238 C1236 1.395 . S
C1238 C1237 1.379 . S
C1238 H1255 0.930 . S
C1239 O1222 1.264 . S
C1239 O1223 1.254 . S
C1240 Eu1176 2.848 . S
C1240 O1220 1.257 . S
C1240 O1225 1.249 . S
C1240 C1233 1.492 . S
C1241 H1206 0.931 . S
C1241 C1219 1.420 . S
C1241 C1242 1.351 . S
C1242 H1204 0.930 . S
C1242 C1210 1.423 . S
C1242 C1241 1.351 . S
C1243 O1227 1.276 . S
C1243 O1230 1.235 . S
C1244 C1245 1.393 . S
C1244 C1248 1.395 . S
C1244 C1251 1.492 . S
C1245 C1244 1.393 . S
C1245 C1246 1.392 . S
C1245 H1256 0.930 . S
C1246 C1245 1.392 . S
C1246 C1247 1.386 . S
C1247 C1246 1.386 . S
C1247 C1249 1.395 . S
C1247 H1257 0.930 . S
C1248 C1244 1.395 . S
C1248 C1249 1.379 . S
C1248 H1258 0.930 . S
C1249 C1247 1.395 . S
C1249 C1248 1.379 . S
C1249 H1259 0.930 . S
C1250 O1228 1.264 . S
C1250 O1229 1.254 . S
C1251 Eu1187 2.848 . S
C1251 O1226 1.257 . S
C1251 O1231 1.249 . S
C1251 C1244 1.492 . S
H1252 C1235 0.930 . S
H1253 C1236 0.930 . S
H1254 C1237 0.930 . S
H1255 C1238 0.930 . S
H1256 C1245 0.930 . S
H1257 C1247 0.930 . S
H1258 C1248 0.930 . S
H1259 C1249 0.930 . S
Eu1260 N1291 2.657 . S
Eu1260 N1298 2.609 . S
Eu1260 O1304 2.558 . S
Eu1260 O1305 2.612 . S
Eu1260 O1307 2.339 . S
Eu1260 O1308 2.563 . S
Eu1260 O1309 2.419 . S
Eu1260 O1311 2.380 . S
Eu1260 O1312 2.432 . S
Eu1260 C1324 2.848 . S
C1261 C1264 1.429 . S
C1261 C1265 1.411 . S
C1261 N1268 1.377 . S
C1262 C1264 1.420 . S
C1262 C1266 1.423 . S
C1262 C1274 1.392 . S
C1263 C1265 1.420 . S
C1263 C1266 1.351 . S
C1263 H1286 0.931 . S
C1264 C1261 1.429 . S
C1264 C1262 1.420 . S
C1264 N1272 1.362 . S
C1265 C1261 1.411 . S
C1265 C1263 1.420 . S
C1265 C1270 1.395 . S
C1266 C1262 1.423 . S
C1266 C1263 1.351 . S
C1266 H1278 0.930 . S
C1267 C1269 1.400 . S
C1267 C1270 1.386 . S
C1267 H1279 0.930 . S
N1268 C1261 1.377 . S
N1268 C1269 1.321 . S
N1268 Eu1271 2.609 . S
C1269 C1267 1.400 . S
C1269 N1268 1.321 . S
C1269 H1276 0.930 . S
C1270 C1265 1.395 . S
C1270 C1267 1.386 . S
C1270 H1289 0.930 . S
Eu1271 N1268 2.609 . S
Eu1271 N1272 2.657 . S
Eu1271 O1305 2.380 . S
Eu1271 O1306 2.432 . S
Eu1271 O1310 2.558 . S
Eu1271 O1311 2.612 . S
Eu1271 O1313 2.339 . S
Eu1271 O1314 2.563 . S
Eu1271 O1315 2.419 . S
Eu1271 C1335 2.848 . S
N1272 C1264 1.362 . S
N1272 Eu1271 2.657 . S
N1272 C1273 1.334 . S
C1273 N1272 1.334 . S
C1273 C1275 1.413 . S
C1273 H1280 0.929 . S
C1274 C1262 1.392 . S
C1274 C1275 1.367 . S
C1274 H1282 0.930 . S
C1275 C1273 1.413 . S
C1275 C1274 1.367 . S
C1275 H1277 0.930 . S
H1276 C1269 0.930 . S
H1277 C1275 0.930 . S
H1278 C1266 0.930 . S
H1279 C1267 0.930 . S
H1280 C1273 0.929 . S
H1281 C1295 0.930 . S
H1282 C1274 0.930 . S
H1283 C1301 0.930 . S
H1284 C1292 0.929 . S
H1285 C1299 0.930 . S
H1286 C1263 0.931 . S
H1287 C1293 0.930 . S
H1288 C1326 0.930 . S
H1289 C1270 0.930 . S
H1290 C1325 0.931 . S
N1291 Eu1260 2.657 . S
N1291 C1292 1.334 . S
N1291 C1296 1.362 . S
C1292 H1284 0.929 . S
C1292 N1291 1.334 . S
C1292 C1295 1.413 . S
C1293 H1287 0.930 . S
C1293 C1294 1.392 . S
C1293 C1295 1.367 . S
C1294 C1293 1.392 . S
C1294 C1296 1.420 . S
C1294 C1326 1.423 . S
C1295 H1281 0.930 . S
C1295 C1292 1.413 . S
C1295 C1293 1.367 . S
C1296 N1291 1.362 . S
C1296 C1294 1.420 . S
C1296 C1300 1.429 . S
H1297 C1302 0.930 . S
N1298 Eu1260 2.609 . S
N1298 C1300 1.377 . S
N1298 C1301 1.321 . S
C1299 H1285 0.930 . S
C1299 C1301 1.400 . S
C1299 C1302 1.386 . S
C1300 C1296 1.429 . S
C1300 N1298 1.377 . S
C1300 C1303 1.411 . S
C1301 H1283 0.930 . S
C1301 N1298 1.321 . S
C1301 C1299 1.400 . S
C1302 H1297 0.930 . S
C1302 C1299 1.386 . S
C1302 C1303 1.395 . S
C1303 C1300 1.411 . S
C1303 C1302 1.395 . S
C1303 C1325 1.420 . S
O1304 Eu1260 2.558 . S
O1304 C1324 1.257 . S
O1305 Eu1260 2.612 . S
O1305 Eu1271 2.380 . S
O1305 C1316 1.276 . S
O1306 Eu1271 2.432 . S
O1306 C1323 1.264 . S
O1307 Eu1260 2.339 . S
O1307 C1323 1.254 . S
O1308 Eu1260 2.563 . S
O1308 C1316 1.235 . S
O1309 Eu1260 2.419 . S
O1309 C1324 1.249 . S
O1310 Eu1271 2.558 . S
O1310 C1335 1.257 . S
O1311 Eu1260 2.380 . S
O1311 Eu1271 2.612 . S
O1311 C1327 1.276 . S
O1312 Eu1260 2.432 . S
O1312 C1334 1.264 . S
O1313 Eu1271 2.339 . S
O1313 C1334 1.254 . S
O1314 Eu1271 2.563 . S
O1314 C1327 1.235 . S
O1315 Eu1271 2.419 . S
O1315 C1335 1.249 . S
C1316 O1305 1.276 . S
C1316 O1308 1.235 . S
C1317 C1319 1.393 . S
C1317 C1321 1.395 . S
C1317 C1324 1.492 . S
C1318 C1319 1.392 . S
C1318 C1320 1.386 . S
C1319 C1317 1.393 . S
C1319 C1318 1.392 . S
C1319 H1336 0.930 . S
C1320 C1318 1.386 . S
C1320 C1322 1.395 . S
C1320 H1337 0.930 . S
C1321 C1317 1.395 . S
C1321 C1322 1.379 . S
C1321 H1338 0.930 . S
C1322 C1320 1.395 . S
C1322 C1321 1.379 . S
C1322 H1339 0.930 . S
C1323 O1306 1.264 . S
C1323 O1307 1.254 . S
C1324 Eu1260 2.848 . S
C1324 O1304 1.257 . S
C1324 O1309 1.249 . S
C1324 C1317 1.492 . S
C1325 H1290 0.931 . S
C1325 C1303 1.420 . S
C1325 C1326 1.351 . S
C1326 H1288 0.930 . S
C1326 C1294 1.423 . S
C1326 C1325 1.351 . S
C1327 O1311 1.276 . S
C1327 O1314 1.235 . S
C1328 C1329 1.393 . S
C1328 C1332 1.395 . S
C1328 C1335 1.492 . S
C1329 C1328 1.393 . S
C1329 C1330 1.392 . S
C1329 H1340 0.930 . S
C1330 C1329 1.392 . S
C1330 C1331 1.386 . S
C1331 C1330 1.386 . S
C1331 C1333 1.395 . S
C1331 H1341 0.930 . S
C1332 C1328 1.395 . S
C1332 C1333 1.379 . S
C1332 H1342 0.930 . S
C1333 C1331 1.395 . S
C1333 C1332 1.379 . S
C1333 H1343 0.930 . S
C1334 O1312 1.264 . S
C1334 O1313 1.254 . S
C1335 Eu1271 2.848 . S
C1335 O1310 1.257 . S
C1335 O1315 1.249 . S
C1335 C1328 1.492 . S
H1336 C1319 0.930 . S
H1337 C1320 0.930 . S
H1338 C1321 0.930 . S
H1339 C1322 0.930 . S
H1340 C1329 0.930 . S
H1341 C1331 0.930 . S
H1342 C1332 0.930 . S
H1343 C1333 0.930 . S
Eu1344 N1375 2.657 . S
Eu1344 N1382 2.609 . S
Eu1344 O1388 2.558 . S
Eu1344 O1389 2.612 . S
Eu1344 O1391 2.339 . S
Eu1344 O1392 2.563 . S
Eu1344 O1393 2.419 . S
Eu1344 O1395 2.380 . S
Eu1344 O1396 2.432 . S
Eu1344 C1408 2.848 . S
C1345 C1348 1.429 . S
C1345 C1349 1.411 . S
C1345 N1352 1.377 . S
C1346 C1348 1.420 . S
C1346 C1350 1.423 . S
C1346 C1358 1.392 . S
C1347 C1349 1.420 . S
C1347 C1350 1.351 . S
C1347 H1370 0.931 . S
C1348 C1345 1.429 . S
C1348 C1346 1.420 . S
C1348 N1356 1.362 . S
C1349 C1345 1.411 . S
C1349 C1347 1.420 . S
C1349 C1354 1.395 . S
C1350 C1346 1.423 . S
C1350 C1347 1.351 . S
C1350 H1362 0.930 . S
C1351 C1353 1.400 . S
C1351 C1354 1.386 . S
C1351 H1363 0.930 . S
N1352 C1345 1.377 . S
N1352 C1353 1.321 . S
N1352 Eu1355 2.609 . S
C1353 C1351 1.400 . S
C1353 N1352 1.321 . S
C1353 H1360 0.930 . S
C1354 C1349 1.395 . S
C1354 C1351 1.386 . S
C1354 H1373 0.930 . S
Eu1355 N1352 2.609 . S
Eu1355 N1356 2.657 . S
Eu1355 O1389 2.380 . S
Eu1355 O1390 2.432 . S
Eu1355 O1394 2.558 . S
Eu1355 O1395 2.612 . S
Eu1355 O1397 2.339 . S
Eu1355 O1398 2.563 . S
Eu1355 O1399 2.419 . S
Eu1355 C1419 2.848 . S
N1356 C1348 1.362 . S
N1356 Eu1355 2.657 . S
N1356 C1357 1.334 . S
C1357 N1356 1.334 . S
C1357 C1359 1.413 . S
C1357 H1364 0.929 . S
C1358 C1346 1.392 . S
C1358 C1359 1.367 . S
C1358 H1366 0.930 . S
C1359 C1357 1.413 . S
C1359 C1358 1.367 . S
C1359 H1361 0.930 . S
H1360 C1353 0.930 . S
H1361 C1359 0.930 . S
H1362 C1350 0.930 . S
H1363 C1351 0.930 . S
H1364 C1357 0.929 . S
H1365 C1379 0.930 . S
H1366 C1358 0.930 . S
H1367 C1385 0.930 . S
H1368 C1376 0.929 . S
H1369 C1383 0.930 . S
H1370 C1347 0.931 . S
H1371 C1377 0.930 . S
H1372 C1410 0.930 . S
H1373 C1354 0.930 . S
H1374 C1409 0.931 . S
N1375 Eu1344 2.657 . S
N1375 C1376 1.334 . S
N1375 C1380 1.362 . S
C1376 H1368 0.929 . S
C1376 N1375 1.334 . S
C1376 C1379 1.413 . S
C1377 H1371 0.930 . S
C1377 C1378 1.392 . S
C1377 C1379 1.367 . S
C1378 C1377 1.392 . S
C1378 C1380 1.420 . S
C1378 C1410 1.423 . S
C1379 H1365 0.930 . S
C1379 C1376 1.413 . S
C1379 C1377 1.367 . S
C1380 N1375 1.362 . S
C1380 C1378 1.420 . S
C1380 C1384 1.429 . S
H1381 C1386 0.930 . S
N1382 Eu1344 2.609 . S
N1382 C1384 1.377 . S
N1382 C1385 1.321 . S
C1383 H1369 0.930 . S
C1383 C1385 1.400 . S
C1383 C1386 1.386 . S
C1384 C1380 1.429 . S
C1384 N1382 1.377 . S
C1384 C1387 1.411 . S
C1385 H1367 0.930 . S
C1385 N1382 1.321 . S
C1385 C1383 1.400 . S
C1386 H1381 0.930 . S
C1386 C1383 1.386 . S
C1386 C1387 1.395 . S
C1387 C1384 1.411 . S
C1387 C1386 1.395 . S
C1387 C1409 1.420 . S
O1388 Eu1344 2.558 . S
O1388 C1408 1.257 . S
O1389 Eu1344 2.612 . S
O1389 Eu1355 2.380 . S
O1389 C1400 1.276 . S
O1390 Eu1355 2.432 . S
O1390 C1407 1.264 . S
O1391 Eu1344 2.339 . S
O1391 C1407 1.254 . S
O1392 Eu1344 2.563 . S
O1392 C1400 1.235 . S
O1393 Eu1344 2.419 . S
O1393 C1408 1.249 . S
O1394 Eu1355 2.558 . S
O1394 C1419 1.257 . S
O1395 Eu1344 2.380 . S
O1395 Eu1355 2.612 . S
O1395 C1411 1.276 . S
O1396 Eu1344 2.432 . S
O1396 C1418 1.264 . S
O1397 Eu1355 2.339 . S
O1397 C1418 1.254 . S
O1398 Eu1355 2.563 . S
O1398 C1411 1.235 . S
O1399 Eu1355 2.419 . S
O1399 C1419 1.249 . S
C1400 O1389 1.276 . S
C1400 O1392 1.235 . S
C1401 C1403 1.393 . S
C1401 C1405 1.395 . S
C1401 C1408 1.492 . S
C1402 C1403 1.392 . S
C1402 C1404 1.386 . S
C1403 C1401 1.393 . S
C1403 C1402 1.392 . S
C1403 H1420 0.930 . S
C1404 C1402 1.386 . S
C1404 C1406 1.395 . S
C1404 H1421 0.930 . S
C1405 C1401 1.395 . S
C1405 C1406 1.379 . S
C1405 H1422 0.930 . S
C1406 C1404 1.395 . S
C1406 C1405 1.379 . S
C1406 H1423 0.930 . S
C1407 O1390 1.264 . S
C1407 O1391 1.254 . S
C1408 Eu1344 2.848 . S
C1408 O1388 1.257 . S
C1408 O1393 1.249 . S
C1408 C1401 1.492 . S
C1409 H1374 0.931 . S
C1409 C1387 1.420 . S
C1409 C1410 1.351 . S
C1410 H1372 0.930 . S
C1410 C1378 1.423 . S
C1410 C1409 1.351 . S
C1411 O1395 1.276 . S
C1411 O1398 1.235 . S
C1412 C1413 1.393 . S
C1412 C1416 1.395 . S
C1412 C1419 1.492 . S
C1413 C1412 1.393 . S
C1413 C1414 1.392 . S
C1413 H1424 0.930 . S
C1414 C1413 1.392 . S
C1414 C1415 1.386 . S
C1415 C1414 1.386 . S
C1415 C1417 1.395 . S
C1415 H1425 0.930 . S
C1416 C1412 1.395 . S
C1416 C1417 1.379 . S
C1416 H1426 0.930 . S
C1417 C1415 1.395 . S
C1417 C1416 1.379 . S
C1417 H1427 0.930 . S
C1418 O1396 1.264 . S
C1418 O1397 1.254 . S
C1419 Eu1355 2.848 . S
C1419 O1394 1.257 . S
C1419 O1399 1.249 . S
C1419 C1412 1.492 . S
H1420 C1403 0.930 . S
H1421 C1404 0.930 . S
H1422 C1405 0.930 . S
H1423 C1406 0.930 . S
H1424 C1413 0.930 . S
H1425 C1415 0.930 . S
H1426 C1416 0.930 . S
H1427 C1417 0.930 . S
Eu1428 N1459 2.657 . S
Eu1428 N1466 2.609 . S
Eu1428 O1472 2.558 . S
Eu1428 O1473 2.612 . S
Eu1428 O1475 2.339 . S
Eu1428 O1476 2.563 . S
Eu1428 O1477 2.419 . S
Eu1428 O1479 2.380 . S
Eu1428 O1480 2.432 . S
Eu1428 C1492 2.848 . S
C1429 C1432 1.429 . S
C1429 C1433 1.411 . S
C1429 N1436 1.377 . S
C1430 C1432 1.420 . S
C1430 C1434 1.423 . S
C1430 C1442 1.392 . S
C1431 C1433 1.420 . S
C1431 C1434 1.351 . S
C1431 H1454 0.931 . S
C1432 C1429 1.429 . S
C1432 C1430 1.420 . S
C1432 N1440 1.362 . S
C1433 C1429 1.411 . S
C1433 C1431 1.420 . S
C1433 C1438 1.395 . S
C1434 C1430 1.423 . S
C1434 C1431 1.351 . S
C1434 H1446 0.930 . S
C1435 C1437 1.400 . S
C1435 C1438 1.386 . S
C1435 H1447 0.930 . S
N1436 C1429 1.377 . S
N1436 C1437 1.321 . S
N1436 Eu1439 2.609 . S
C1437 C1435 1.400 . S
C1437 N1436 1.321 . S
C1437 H1444 0.930 . S
C1438 C1433 1.395 . S
C1438 C1435 1.386 . S
C1438 H1457 0.930 . S
Eu1439 N1436 2.609 . S
Eu1439 N1440 2.657 . S
Eu1439 O1473 2.380 . S
Eu1439 O1474 2.432 . S
Eu1439 O1478 2.558 . S
Eu1439 O1479 2.612 . S
Eu1439 O1481 2.339 . S
Eu1439 O1482 2.563 . S
Eu1439 O1483 2.419 . S
Eu1439 C1503 2.848 . S
N1440 C1432 1.362 . S
N1440 Eu1439 2.657 . S
N1440 C1441 1.334 . S
C1441 N1440 1.334 . S
C1441 C1443 1.413 . S
C1441 H1448 0.929 . S
C1442 C1430 1.392 . S
C1442 C1443 1.367 . S
C1442 H1450 0.930 . S
C1443 C1441 1.413 . S
C1443 C1442 1.367 . S
C1443 H1445 0.930 . S
H1444 C1437 0.930 . S
H1445 C1443 0.930 . S
H1446 C1434 0.930 . S
H1447 C1435 0.930 . S
H1448 C1441 0.929 . S
H1449 C1463 0.930 . S
H1450 C1442 0.930 . S
H1451 C1469 0.930 . S
H1452 C1460 0.929 . S
H1453 C1467 0.930 . S
H1454 C1431 0.931 . S
H1455 C1461 0.930 . S
H1456 C1494 0.930 . S
H1457 C1438 0.930 . S
H1458 C1493 0.931 . S
N1459 Eu1428 2.657 . S
N1459 C1460 1.334 . S
N1459 C1464 1.362 . S
C1460 H1452 0.929 . S
C1460 N1459 1.334 . S
C1460 C1463 1.413 . S
C1461 H1455 0.930 . S
C1461 C1462 1.392 . S
C1461 C1463 1.367 . S
C1462 C1461 1.392 . S
C1462 C1464 1.420 . S
C1462 C1494 1.423 . S
C1463 H1449 0.930 . S
C1463 C1460 1.413 . S
C1463 C1461 1.367 . S
C1464 N1459 1.362 . S
C1464 C1462 1.420 . S
C1464 C1468 1.429 . S
H1465 C1470 0.930 . S
N1466 Eu1428 2.609 . S
N1466 C1468 1.377 . S
N1466 C1469 1.321 . S
C1467 H1453 0.930 . S
C1467 C1469 1.400 . S
C1467 C1470 1.386 . S
C1468 C1464 1.429 . S
C1468 N1466 1.377 . S
C1468 C1471 1.411 . S
C1469 H1451 0.930 . S
C1469 N1466 1.321 . S
C1469 C1467 1.400 . S
C1470 H1465 0.930 . S
C1470 C1467 1.386 . S
C1470 C1471 1.395 . S
C1471 C1468 1.411 . S
C1471 C1470 1.395 . S
C1471 C1493 1.420 . S
O1472 Eu1428 2.558 . S
O1472 C1492 1.257 . S
O1473 Eu1428 2.612 . S
O1473 Eu1439 2.380 . S
O1473 C1484 1.276 . S
O1474 Eu1439 2.432 . S
O1474 C1491 1.264 . S
O1475 Eu1428 2.339 . S
O1475 C1491 1.254 . S
O1476 Eu1428 2.563 . S
O1476 C1484 1.235 . S
O1477 Eu1428 2.419 . S
O1477 C1492 1.249 . S
O1478 Eu1439 2.558 . S
O1478 C1503 1.257 . S
O1479 Eu1428 2.380 . S
O1479 Eu1439 2.612 . S
O1479 C1495 1.276 . S
O1480 Eu1428 2.432 . S
O1480 C1502 1.264 . S
O1481 Eu1439 2.339 . S
O1481 C1502 1.254 . S
O1482 Eu1439 2.563 . S
O1482 C1495 1.235 . S
O1483 Eu1439 2.419 . S
O1483 C1503 1.249 . S
C1484 O1473 1.276 . S
C1484 O1476 1.235 . S
C1485 C1487 1.393 . S
C1485 C1489 1.395 . S
C1485 C1492 1.492 . S
C1486 C1487 1.392 . S
C1486 C1488 1.386 . S
C1487 C1485 1.393 . S
C1487 C1486 1.392 . S
C1487 H1504 0.930 . S
C1488 C1486 1.386 . S
C1488 C1490 1.395 . S
C1488 H1505 0.930 . S
C1489 C1485 1.395 . S
C1489 C1490 1.379 . S
C1489 H1506 0.930 . S
C1490 C1488 1.395 . S
C1490 C1489 1.379 . S
C1490 H1507 0.930 . S
C1491 O1474 1.264 . S
C1491 O1475 1.254 . S
C1492 Eu1428 2.848 . S
C1492 O1472 1.257 . S
C1492 O1477 1.249 . S
C1492 C1485 1.492 . S
C1493 H1458 0.931 . S
C1493 C1471 1.420 . S
C1493 C1494 1.351 . S
C1494 H1456 0.930 . S
C1494 C1462 1.423 . S
C1494 C1493 1.351 . S
C1495 O1479 1.276 . S
C1495 O1482 1.235 . S
C1496 C1497 1.393 . S
C1496 C1500 1.395 . S
C1496 C1503 1.492 . S
C1497 C1496 1.393 . S
C1497 C1498 1.392 . S
C1497 H1508 0.930 . S
C1498 C1497 1.392 . S
C1498 C1499 1.386 . S
C1499 C1498 1.386 . S
C1499 C1501 1.395 . S
C1499 H1509 0.930 . S
C1500 C1496 1.395 . S
C1500 C1501 1.379 . S
C1500 H1510 0.930 . S
C1501 C1499 1.395 . S
C1501 C1500 1.379 . S
C1501 H1511 0.930 . S
C1502 O1480 1.264 . S
C1502 O1481 1.254 . S
C1503 Eu1439 2.848 . S
C1503 O1478 1.257 . S
C1503 O1483 1.249 . S
C1503 C1496 1.492 . S
H1504 C1487 0.930 . S
H1505 C1488 0.930 . S
H1506 C1489 0.930 . S
H1507 C1490 0.930 . S
H1508 C1497 0.930 . S
H1509 C1499 0.930 . S
H1510 C1500 0.930 . S
H1511 C1501 0.930 . S
Eu1512 N1543 2.657 . S
Eu1512 N1550 2.609 . S
Eu1512 O1556 2.558 . S
Eu1512 O1557 2.612 . S
Eu1512 O1559 2.339 . S
Eu1512 O1560 2.563 . S
Eu1512 O1561 2.419 . S
Eu1512 O1563 2.380 . S
Eu1512 O1564 2.432 . S
Eu1512 C1576 2.848 . S
C1513 C1516 1.429 . S
C1513 C1517 1.411 . S
C1513 N1520 1.377 . S
C1514 C1516 1.420 . S
C1514 C1518 1.423 . S
C1514 C1526 1.392 . S
C1515 C1517 1.420 . S
C1515 C1518 1.351 . S
C1515 H1538 0.931 . S
C1516 C1513 1.429 . S
C1516 C1514 1.420 . S
C1516 N1524 1.362 . S
C1517 C1513 1.411 . S
C1517 C1515 1.420 . S
C1517 C1522 1.395 . S
C1518 C1514 1.423 . S
C1518 C1515 1.351 . S
C1518 H1530 0.930 . S
C1519 C1521 1.400 . S
C1519 C1522 1.386 . S
C1519 H1531 0.930 . S
N1520 C1513 1.377 . S
N1520 C1521 1.321 . S
N1520 Eu1523 2.609 . S
C1521 C1519 1.400 . S
C1521 N1520 1.321 . S
C1521 H1528 0.930 . S
C1522 C1517 1.395 . S
C1522 C1519 1.386 . S
C1522 H1541 0.930 . S
Eu1523 N1520 2.609 . S
Eu1523 N1524 2.657 . S
Eu1523 O1557 2.380 . S
Eu1523 O1558 2.432 . S
Eu1523 O1562 2.558 . S
Eu1523 O1563 2.612 . S
Eu1523 O1565 2.339 . S
Eu1523 O1566 2.563 . S
Eu1523 O1567 2.419 . S
Eu1523 C1587 2.848 . S
N1524 C1516 1.362 . S
N1524 Eu1523 2.657 . S
N1524 C1525 1.334 . S
C1525 N1524 1.334 . S
C1525 C1527 1.413 . S
C1525 H1532 0.929 . S
C1526 C1514 1.392 . S
C1526 C1527 1.367 . S
C1526 H1534 0.930 . S
C1527 C1525 1.413 . S
C1527 C1526 1.367 . S
C1527 H1529 0.930 . S
H1528 C1521 0.930 . S
H1529 C1527 0.930 . S
H1530 C1518 0.930 . S
H1531 C1519 0.930 . S
H1532 C1525 0.929 . S
H1533 C1547 0.930 . S
H1534 C1526 0.930 . S
H1535 C1553 0.930 . S
H1536 C1544 0.929 . S
H1537 C1551 0.930 . S
H1538 C1515 0.931 . S
H1539 C1545 0.930 . S
H1540 C1578 0.930 . S
H1541 C1522 0.930 . S
H1542 C1577 0.931 . S
N1543 Eu1512 2.657 . S
N1543 C1544 1.334 . S
N1543 C1548 1.362 . S
C1544 H1536 0.929 . S
C1544 N1543 1.334 . S
C1544 C1547 1.413 . S
C1545 H1539 0.930 . S
C1545 C1546 1.392 . S
C1545 C1547 1.367 . S
C1546 C1545 1.392 . S
C1546 C1548 1.420 . S
C1546 C1578 1.423 . S
C1547 H1533 0.930 . S
C1547 C1544 1.413 . S
C1547 C1545 1.367 . S
C1548 N1543 1.362 . S
C1548 C1546 1.420 . S
C1548 C1552 1.429 . S
H1549 C1554 0.930 . S
N1550 Eu1512 2.609 . S
N1550 C1552 1.377 . S
N1550 C1553 1.321 . S
C1551 H1537 0.930 . S
C1551 C1553 1.400 . S
C1551 C1554 1.386 . S
C1552 C1548 1.429 . S
C1552 N1550 1.377 . S
C1552 C1555 1.411 . S
C1553 H1535 0.930 . S
C1553 N1550 1.321 . S
C1553 C1551 1.400 . S
C1554 H1549 0.930 . S
C1554 C1551 1.386 . S
C1554 C1555 1.395 . S
C1555 C1552 1.411 . S
C1555 C1554 1.395 . S
C1555 C1577 1.420 . S
O1556 Eu1512 2.558 . S
O1556 C1576 1.257 . S
O1557 Eu1512 2.612 . S
O1557 Eu1523 2.380 . S
O1557 C1568 1.276 . S
O1558 Eu1523 2.432 . S
O1558 C1575 1.264 . S
O1559 Eu1512 2.339 . S
O1559 C1575 1.254 . S
O1560 Eu1512 2.563 . S
O1560 C1568 1.235 . S
O1561 Eu1512 2.419 . S
O1561 C1576 1.249 . S
O1562 Eu1523 2.558 . S
O1562 C1587 1.257 . S
O1563 Eu1512 2.380 . S
O1563 Eu1523 2.612 . S
O1563 C1579 1.276 . S
O1564 Eu1512 2.432 . S
O1564 C1586 1.264 . S
O1565 Eu1523 2.339 . S
O1565 C1586 1.254 . S
O1566 Eu1523 2.563 . S
O1566 C1579 1.235 . S
O1567 Eu1523 2.419 . S
O1567 C1587 1.249 . S
C1568 O1557 1.276 . S
C1568 O1560 1.235 . S
C1569 C1571 1.393 . S
C1569 C1573 1.395 . S
C1569 C1576 1.492 . S
C1570 C1571 1.392 . S
C1570 C1572 1.386 . S
C1571 C1569 1.393 . S
C1571 C1570 1.392 . S
C1571 H1588 0.930 . S
C1572 C1570 1.386 . S
C1572 C1574 1.395 . S
C1572 H1589 0.930 . S
C1573 C1569 1.395 . S
C1573 C1574 1.379 . S
C1573 H1590 0.930 . S
C1574 C1572 1.395 . S
C1574 C1573 1.379 . S
C1574 H1591 0.930 . S
C1575 O1558 1.264 . S
C1575 O1559 1.254 . S
C1576 Eu1512 2.848 . S
C1576 O1556 1.257 . S
C1576 O1561 1.249 . S
C1576 C1569 1.492 . S
C1577 H1542 0.931 . S
C1577 C1555 1.420 . S
C1577 C1578 1.351 . S
C1578 H1540 0.930 . S
C1578 C1546 1.423 . S
C1578 C1577 1.351 . S
C1579 O1563 1.276 . S
C1579 O1566 1.235 . S
C1580 C1581 1.393 . S
C1580 C1584 1.395 . S
C1580 C1587 1.492 . S
C1581 C1580 1.393 . S
C1581 C1582 1.392 . S
C1581 H1592 0.930 . S
C1582 C1581 1.392 . S
C1582 C1583 1.386 . S
C1583 C1582 1.386 . S
C1583 C1585 1.395 . S
C1583 H1593 0.930 . S
C1584 C1580 1.395 . S
C1584 C1585 1.379 . S
C1584 H1594 0.930 . S
C1585 C1583 1.395 . S
C1585 C1584 1.379 . S
C1585 H1595 0.930 . S
C1586 O1564 1.264 . S
C1586 O1565 1.254 . S
C1587 Eu1523 2.848 . S
C1587 O1562 1.257 . S
C1587 O1567 1.249 . S
C1587 C1580 1.492 . S
H1588 C1571 0.930 . S
H1589 C1572 0.930 . S
H1590 C1573 0.930 . S
H1591 C1574 0.930 . S
H1592 C1581 0.930 . S
H1593 C1583 0.930 . S
H1594 C1584 0.930 . S
H1595 C1585 0.930 . S
Eu1596 N1627 2.657 . S
Eu1596 N1634 2.609 1_554 S
Eu1596 O1640 2.558 1_554 S
Eu1596 O1641 2.612 . S
Eu1596 O1643 2.339 . S
Eu1596 O1644 2.566 1_554 S
Eu1596 O1645 2.419 . S
Eu1596 O1647 2.380 . S
Eu1596 O1648 2.432 1_554 S
Eu1596 C1660 2.848 1_554 S
C1597 C1600 1.429 . S
C1597 C1601 1.411 . S
C1597 N1604 1.377 1_655 S
C1598 C1600 1.420 . S
C1598 C1602 1.423 . S
C1598 C1610 1.392 1_554 S
C1599 C1601 1.420 . S
C1599 C1602 1.351 . S
C1599 H1622 0.931 . S
C1600 C1597 1.429 . S
C1600 C1598 1.420 . S
C1600 N1608 1.362 . S
C1601 C1597 1.411 . S
C1601 C1599 1.420 . S
C1601 C1606 1.395 . S
C1602 C1598 1.423 . S
C1602 C1599 1.351 . S
C1602 H1614 0.930 . S
C1603 C1605 1.400 . S
C1603 C1606 1.386 1_455 S
C1603 H1615 0.930 . S
N1604 C1597 1.377 1_455 S
N1604 C1605 1.321 . S
N1604 Eu1607 2.609 . S
C1605 C1603 1.400 . S
C1605 N1604 1.321 . S
C1605 H1612 0.930 . S
C1606 C1601 1.395 . S
C1606 C1603 1.386 1_655 S
C1606 H1625 0.930 . S
Eu1607 N1604 2.609 . S
Eu1607 N1608 2.657 1_455 S
Eu1607 O1641 2.380 . S
Eu1607 O1642 2.432 . S
Eu1607 O1646 2.558 . S
Eu1607 O1647 2.612 . S
Eu1607 O1649 2.339 1_554 S
Eu1607 O1650 2.563 . S
Eu1607 O1651 2.419 1_455 S
Eu1607 C1671 2.848 1_455 S
N1608 C1600 1.362 . S
N1608 Eu1607 2.657 1_655 S
N1608 C1609 1.334 1_554 S
C1609 N1608 1.334 1_556 S
C1609 C1611 1.413 . S
C1609 H1616 0.930 1_655 S
C1610 C1598 1.392 1_556 S
C1610 C1611 1.367 . S
C1610 H1618 0.930 . S
C1611 C1609 1.413 . S
C1611 C1610 1.367 . S
C1611 H1613 0.930 . S
H1612 C1605 0.930 . S
H1613 C1611 0.930 . S
H1614 C1602 0.930 . S
H1615 C1603 0.930 . S
H1616 C1609 0.930 1_455 S
H1617 C1631 0.930 . S
H1618 C1610 0.930 . S
H1619 C1637 0.930 . S
H1620 C1628 0.929 . S
H1621 C1635 0.930 . S
H1622 C1599 0.931 . S
H1623 C1629 0.930 . S
H1624 C1662 0.930 . S
H1625 C1606 0.930 . S
H1626 C1661 0.931 . S
N1627 Eu1596 2.657 . S
N1627 C1628 1.334 . S
N1627 C1632 1.362 . S
C1628 H1620 0.929 . S
C1628 N1627 1.334 . S
C1628 C1631 1.413 . S
C1629 H1623 0.930 . S
C1629 C1630 1.392 . S
C1629 C1631 1.367 . S
C1630 C1629 1.392 . S
C1630 C1632 1.420 . S
C1630 C1662 1.423 . S
C1631 H1617 0.930 . S
C1631 C1628 1.413 . S
C1631 C1629 1.367 . S
C1632 N1627 1.362 . S
C1632 C1630 1.420 . S
C1632 C1636 1.429 1_554 S
H1633 C1638 0.930 . S
N1634 Eu1596 2.609 1_556 S
N1634 C1636 1.377 . S
N1634 C1637 1.321 . S
C1635 H1621 0.930 . S
C1635 C1637 1.400 . S
C1635 C1638 1.386 . S
C1636 C1632 1.429 1_556 S
C1636 N1634 1.377 . S
C1636 C1639 1.411 . S
C1637 H1619 0.930 . S
C1637 N1634 1.321 . S
C1637 C1635 1.400 . S
C1638 H1633 0.930 . S
C1638 C1635 1.386 . S
C1638 C1639 1.395 . S
C1639 C1636 1.411 . S
C1639 C1638 1.395 . S
C1639 C1661 1.420 . S
O1640 Eu1596 2.558 1_556 S
O1640 C1660 1.257 . S
O1641 Eu1596 2.612 . S
O1641 Eu1607 2.380 . S
O1641 C1652 1.276 . S
O1642 Eu1607 2.432 . S
O1642 C1659 1.264 . S
O1643 Eu1596 2.339 . S
O1643 C1659 1.254 . S
O1644 Eu1596 2.566 1_556 S
O1644 C1652 1.221 1_556 S
O1645 Eu1596 2.419 . S
O1645 C1660 1.249 1_554 S
O1646 Eu1607 2.558 . S
O1646 C1671 1.257 1_455 S
O1647 Eu1596 2.380 . S
O1647 Eu1607 2.612 . S
O1647 C1663 1.276 . S
O1648 Eu1596 2.432 1_556 S
O1648 C1670 1.264 . S
O1649 Eu1607 2.339 1_556 S
O1649 C1670 1.254 . S
O1650 Eu1607 2.563 . S
O1650 C1663 1.235 . S
O1651 Eu1607 2.419 1_655 S
O1651 C1671 1.249 . S
C1652 O1641 1.276 . S
C1652 O1644 1.221 1_554 S
C1653 C1655 1.393 1_556 S
C1653 C1657 1.395 . S
C1653 C1660 1.492 . S
C1654 C1655 1.392 1_556 S
C1654 C1656 1.386 . S
C1655 C1653 1.393 1_554 S
C1655 C1654 1.392 1_554 S
C1655 H1672 0.930 . S
C1656 C1654 1.386 . S
C1656 C1658 1.395 . S
C1656 H1673 0.930 . S
C1657 C1653 1.395 . S
C1657 C1658 1.379 . S
C1657 H1674 0.930 . S
C1658 C1656 1.395 . S
C1658 C1657 1.379 . S
C1658 H1675 0.930 . S
C1659 O1642 1.264 . S
C1659 O1643 1.254 . S
C1660 Eu1596 2.848 1_556 S
C1660 O1640 1.257 . S
C1660 O1645 1.249 1_556 S
C1660 C1653 1.492 . S
C1661 H1626 0.931 . S
C1661 C1639 1.420 . S
C1661 C1662 1.351 1_556 S
C1662 H1624 0.930 . S
C1662 C1630 1.423 . S
C1662 C1661 1.351 1_554 S
C1663 O1647 1.276 . S
C1663 O1650 1.235 . S
C1664 C1665 1.393 . S
C1664 C1668 1.395 . S
C1664 C1671 1.492 . S
C1665 C1664 1.393 . S
C1665 C1666 1.392 . S
C1665 H1676 0.930 . S
C1666 C1665 1.392 . S
C1666 C1667 1.386 . S
C1667 C1666 1.386 . S
C1667 C1669 1.395 . S
C1667 H1677 0.930 . S
C1668 C1664 1.395 . S
C1668 C1669 1.379 . S
C1668 H1678 0.930 . S
C1669 C1667 1.395 . S
C1669 C1668 1.379 . S
C1669 H1679 0.930 . S
C1670 O1648 1.264 . S
C1670 O1649 1.254 . S
C1671 Eu1607 2.848 1_655 S
C1671 O1646 1.257 1_655 S
C1671 O1651 1.249 . S
C1671 C1664 1.492 . S
H1672 C1655 0.930 . S
H1673 C1656 0.930 . S
H1674 C1657 0.930 . S
H1675 C1658 0.930 . S
H1676 C1665 0.930 . S
H1677 C1667 0.930 . S
H1678 C1668 0.930 . S
H1679 C1669 0.930 . S
C1680 C1681 1.391 . S
C1680 C1682 1.394 . S
C1680 H1696 0.931 . S
C1681 C1680 1.391 . S
C1681 C1685 1.376 . S
C1682 C1680 1.394 . S
C1682 C1683 1.369 . S
C1682 C1686 1.531 1_556 S
C1683 C1682 1.369 . S
C1683 C1684 1.410 . S
C1683 C1691 1.503 1_556 S
C1684 C1683 1.410 . S
C1684 C1685 1.392 . S
C1684 C1687 1.511 1_455 S
C1685 C1681 1.376 . S
C1685 C1684 1.392 . S
C1685 H1697 0.929 1_455 S
C1686 C1682 1.531 1_554 S
C1686 H1698 0.960 . S
C1686 H1699 0.962 1_554 S
C1686 H1700 0.960 . S
C1687 C1684 1.511 1_655 S
C1687 H1701 0.961 . S
C1687 H1702 0.961 . S
C1687 H1703 0.928 1_556 S
C1688 C1689 1.370 1_556 S
C1688 C1690 1.363 . S
C1688 H1704 0.931 . S
C1689 C1688 1.370 1_554 S
C1689 C1693 1.408 . S
C1690 C1688 1.363 . S
C1690 C1691 1.370 1_556 S
C1690 C1694 1.524 . S
C1691 C1683 1.503 1_554 S
C1691 C1690 1.370 1_554 S
C1691 C1692 1.403 . S
C1692 C1691 1.403 . S
C1692 C1693 1.404 . S
C1692 C1695 1.539 . S
C1693 C1689 1.408 . S
C1693 C1692 1.404 . S
C1693 H1705 0.930 . S
C1694 C1690 1.524 . S
C1694 H1706 0.956 . S
C1694 H1707 0.961 . S
C1694 H1708 0.961 . S
C1695 C1692 1.539 . S
C1695 H1709 0.958 . S
C1695 H1710 0.961 . S
C1695 H1711 0.960 . S
H1696 C1680 0.931 . S
H1697 C1685 0.929 1_655 S
H1698 C1686 0.960 . S
H1699 C1686 0.962 1_556 S
H1700 C1686 0.960 . S
H1701 C1687 0.961 . S
H1702 C1687 0.961 . S
H1703 C1687 0.928 1_554 S
H1704 C1688 0.931 . S
H1705 C1693 0.930 . S
H1706 C1694 0.956 . S
H1707 C1694 0.961 . S
H1708 C1694 0.961 . S
H1709 C1695 0.958 . S
H1710 C1695 0.961 . S
H1711 C1695 0.960 . S
C1712 C1713 1.391 . S
C1712 C1714 1.394 . S
C1712 H1728 0.931 . S
C1713 C1712 1.391 . S
C1713 C1717 1.376 . S
C1714 C1712 1.394 . S
C1714 C1715 1.369 . S
C1714 C1718 1.531 . S
C1715 C1714 1.369 . S
C1715 C1716 1.410 . S
C1715 C1723 1.503 . S
C1716 C1715 1.410 . S
C1716 C1717 1.392 . S
C1716 C1719 1.511 . S
C1717 C1713 1.376 . S
C1717 C1716 1.392 . S
C1717 H1729 0.929 . S
C1718 C1714 1.531 . S
C1718 H1730 0.960 . S
C1718 H1731 0.962 . S
C1718 H1732 0.960 . S
C1719 C1716 1.511 . S
C1719 H1733 0.961 . S
C1719 H1734 0.961 . S
C1719 H1735 0.961 . S
C1720 C1721 1.370 . S
C1720 C1722 1.363 . S
C1720 H1736 0.931 . S
C1721 C1720 1.370 . S
C1721 C1725 1.408 . S
C1722 C1720 1.363 . S
C1722 C1723 1.370 . S
C1722 C1726 1.524 . S
C1723 C1715 1.503 . S
C1723 C1722 1.370 . S
C1723 C1724 1.403 . S
C1724 C1723 1.403 . S
C1724 C1725 1.404 . S
C1724 C1727 1.539 . S
C1725 C1721 1.408 . S
C1725 C1724 1.404 . S
C1725 H1737 0.930 . S
C1726 C1722 1.524 . S
C1726 H1738 0.956 . S
C1726 H1739 0.961 . S
C1726 H1740 0.961 . S
C1727 C1724 1.539 . S
C1727 H1741 0.958 . S
C1727 H1742 0.961 . S
C1727 H1743 0.960 . S
H1728 C1712 0.931 . S
H1729 C1717 0.929 . S
H1730 C1718 0.960 . S
H1731 C1718 0.962 . S
H1732 C1718 0.960 . S
H1733 C1719 0.961 . S
H1734 C1719 0.961 . S
H1735 C1719 0.961 . S
H1736 C1720 0.931 . S
H1737 C1725 0.930 . S
H1738 C1726 0.956 . S
H1739 C1726 0.961 . S
H1740 C1726 0.961 . S
H1741 C1727 0.958 . S
H1742 C1727 0.961 . S
H1743 C1727 0.960 . S
C1744 C1745 1.391 . S
C1744 C1746 1.394 . S
C1744 H1760 0.931 . S
C1745 C1744 1.391 . S
C1745 C1749 1.376 . S
C1746 C1744 1.394 . S
C1746 C1747 1.369 . S
C1746 C1750 1.531 . S
C1747 C1746 1.369 . S
C1747 C1748 1.410 . S
C1747 C1755 1.503 . S
C1748 C1747 1.410 . S
C1748 C1749 1.392 . S
C1748 C1751 1.511 . S
C1749 C1745 1.376 . S
C1749 C1748 1.392 . S
C1749 H1761 0.929 . S
C1750 C1746 1.531 . S
C1750 H1762 0.960 . S
C1750 H1763 0.962 . S
C1750 H1764 0.960 . S
C1751 C1748 1.511 . S
C1751 H1765 0.961 . S
C1751 H1766 0.961 . S
C1751 H1767 0.961 . S
C1752 C1753 1.370 . S
C1752 C1754 1.363 . S
C1752 H1768 0.931 . S
C1753 C1752 1.370 . S
C1753 C1757 1.408 . S
C1754 C1752 1.363 . S
C1754 C1755 1.370 . S
C1754 C1758 1.524 . S
C1755 C1747 1.503 . S
C1755 C1754 1.370 . S
C1755 C1756 1.403 . S
C1756 C1755 1.403 . S
C1756 C1757 1.404 . S
C1756 C1759 1.539 . S
C1757 C1753 1.408 . S
C1757 C1756 1.404 . S
C1757 H1769 0.930 . S
C1758 C1754 1.524 . S
C1758 H1770 0.956 . S
C1758 H1771 0.961 . S
C1758 H1772 0.961 . S
C1759 C1756 1.539 . S
C1759 H1773 0.958 . S
C1759 H1774 0.961 . S
C1759 H1775 0.960 . S
H1760 C1744 0.931 . S
H1761 C1749 0.929 . S
H1762 C1750 0.960 . S
H1763 C1750 0.962 . S
H1764 C1750 0.960 . S
H1765 C1751 0.961 . S
H1766 C1751 0.961 . S
H1767 C1751 0.961 . S
H1768 C1752 0.931 . S
H1769 C1757 0.930 . S
H1770 C1758 0.956 . S
H1771 C1758 0.961 . S
H1772 C1758 0.961 . S
H1773 C1759 0.958 . S
H1774 C1759 0.961 . S
H1775 C1759 0.960 . S
C1776 C1777 1.391 . S
C1776 C1778 1.394 . S
C1776 H1792 0.931 . S
C1777 C1776 1.391 . S
C1777 C1781 1.376 . S
C1778 C1776 1.394 . S
C1778 C1779 1.369 . S
C1778 C1782 1.531 . S
C1779 C1778 1.369 . S
C1779 C1780 1.410 . S
C1779 C1787 1.503 . S
C1780 C1779 1.410 . S
C1780 C1781 1.392 . S
C1780 C1783 1.511 . S
C1781 C1777 1.376 . S
C1781 C1780 1.392 . S
C1781 H1793 0.929 . S
C1782 C1778 1.531 . S
C1782 H1794 0.960 . S
C1782 H1795 0.962 . S
C1782 H1796 0.960 . S
C1783 C1780 1.511 . S
C1783 H1797 0.961 . S
C1783 H1798 0.961 . S
C1783 H1799 0.961 . S
C1784 C1785 1.370 . S
C1784 C1786 1.363 . S
C1784 H1800 0.931 . S
C1785 C1784 1.370 . S
C1785 C1789 1.408 . S
C1786 C1784 1.363 . S
C1786 C1787 1.370 . S
C1786 C1790 1.524 . S
C1787 C1779 1.503 . S
C1787 C1786 1.370 . S
C1787 C1788 1.403 . S
C1788 C1787 1.403 . S
C1788 C1789 1.404 . S
C1788 C1791 1.539 . S
C1789 C1785 1.408 . S
C1789 C1788 1.404 . S
C1789 H1801 0.930 . S
C1790 C1786 1.524 . S
C1790 H1802 0.956 . S
C1790 H1803 0.961 . S
C1790 H1804 0.961 . S
C1791 C1788 1.539 . S
C1791 H1805 0.958 . S
C1791 H1806 0.961 . S
C1791 H1807 0.960 . S
H1792 C1776 0.931 . S
H1793 C1781 0.929 . S
H1794 C1782 0.960 . S
H1795 C1782 0.962 . S
H1796 C1782 0.960 . S
H1797 C1783 0.961 . S
H1798 C1783 0.961 . S
H1799 C1783 0.961 . S
H1800 C1784 0.931 . S
H1801 C1789 0.930 . S
H1802 C1790 0.956 . S
H1803 C1790 0.961 . S
H1804 C1790 0.961 . S
H1805 C1791 0.958 . S
H1806 C1791 0.961 . S
H1807 C1791 0.960 . S
C1808 C1809 1.391 . S
C1808 C1810 1.394 . S
C1808 H1824 0.931 1_455 S
C1809 C1808 1.391 . S
C1809 C1813 1.376 . S
C1810 C1808 1.394 . S
C1810 C1811 1.369 . S
C1810 C1814 1.531 . S
C1811 C1810 1.369 . S
C1811 C1812 1.410 . S
C1811 C1819 1.503 . S
C1812 C1811 1.410 . S
C1812 C1813 1.392 . S
C1812 C1815 1.511 . S
C1813 C1809 1.376 . S
C1813 C1812 1.392 . S
C1813 H1825 0.929 . S
C1814 C1810 1.531 . S
C1814 H1826 0.960 . S
C1814 H1827 0.962 1_455 S
C1814 H1828 0.960 . S
C1815 C1812 1.511 . S
C1815 H1829 0.961 . S
C1815 H1830 0.961 . S
C1815 H1831 0.961 . S
C1816 C1817 1.370 . S
C1816 C1818 1.363 . S
C1816 H1832 0.931 . S
C1817 C1816 1.370 . S
C1817 C1821 1.408 . S
C1818 C1816 1.363 . S
C1818 C1819 1.370 . S
C1818 C1822 1.524 1_455 S
C1819 C1811 1.503 . S
C1819 C1818 1.370 . S
C1819 C1820 1.403 . S
C1820 C1819 1.403 . S
C1820 C1821 1.404 . S
C1820 C1823 1.539 . S
C1821 C1817 1.408 . S
C1821 C1820 1.404 . S
C1821 H1833 0.930 . S
C1822 C1818 1.524 1_655 S
C1822 H1834 0.956 . S
C1822 H1835 0.979 . S
C1822 H1836 0.961 . S
C1823 C1820 1.539 . S
C1823 H1837 0.958 . S
C1823 H1838 0.961 . S
C1823 H1839 0.960 . S
H1824 C1808 0.931 1_655 S
H1825 C1813 0.929 . S
H1826 C1814 0.960 . S
H1827 C1814 0.962 1_655 S
H1828 C1814 0.960 . S
H1829 C1815 0.961 . S
H1830 C1815 0.961 . S
H1831 C1815 0.961 . S
H1832 C1816 0.931 . S
H1833 C1821 0.930 . S
H1834 C1822 0.956 . S
H1835 C1822 0.979 . S
H1836 C1822 0.961 . S
H1837 C1823 0.958 . S
H1838 C1823 0.961 . S
H1839 C1823 0.960 . S
C1840 C1841 1.391 . S
C1840 C1842 1.394 . S
C1840 H1856 0.931 . S
C1841 C1840 1.391 . S
C1841 C1845 1.376 . S
C1842 C1840 1.394 . S
C1842 C1843 1.369 . S
C1842 C1846 1.531 . S
C1843 C1842 1.369 . S
C1843 C1844 1.410 . S
C1843 C1851 1.503 . S
C1844 C1843 1.410 . S
C1844 C1845 1.392 . S
C1844 C1847 1.511 . S
C1845 C1841 1.376 . S
C1845 C1844 1.392 . S
C1845 H1857 0.929 . S
C1846 C1842 1.531 . S
C1846 H1858 0.960 . S
C1846 H1859 0.962 . S
C1846 H1860 0.960 . S
C1847 C1844 1.511 . S
C1847 H1861 0.961 . S
C1847 H1862 0.961 . S
C1847 H1863 0.961 . S
C1848 C1849 1.370 . S
C1848 C1850 1.363 . S
C1848 H1864 0.931 . S
C1849 C1848 1.370 . S
C1849 C1853 1.408 . S
C1850 C1848 1.363 . S
C1850 C1851 1.370 . S
C1850 C1854 1.524 . S
C1851 C1843 1.503 . S
C1851 C1850 1.370 . S
C1851 C1852 1.403 . S
C1852 C1851 1.403 . S
C1852 C1853 1.404 . S
C1852 C1855 1.539 . S
C1853 C1849 1.408 . S
C1853 C1852 1.404 . S
C1853 H1865 0.930 . S
C1854 C1850 1.524 . S
C1854 H1866 0.956 . S
C1854 H1867 0.961 . S
C1854 H1868 0.961 . S
C1855 C1852 1.539 . S
C1855 H1869 0.958 . S
C1855 H1870 0.961 . S
C1855 H1871 0.960 . S
H1856 C1840 0.931 . S
H1857 C1845 0.929 . S
H1858 C1846 0.960 . S
H1859 C1846 0.962 . S
H1860 C1846 0.960 . S
H1861 C1847 0.961 . S
H1862 C1847 0.961 . S
H1863 C1847 0.961 . S
H1864 C1848 0.931 . S
H1865 C1853 0.930 . S
H1866 C1854 0.956 . S
H1867 C1854 0.961 . S
H1868 C1854 0.961 . S
H1869 C1855 0.958 . S
H1870 C1855 0.961 . S
H1871 C1855 0.960 . S
C1872 C1873 1.391 . S
C1872 C1874 1.394 . S
C1872 H1888 0.931 . S
C1873 C1872 1.391 . S
C1873 C1877 1.376 . S
C1874 C1872 1.394 . S
C1874 C1875 1.369 . S
C1874 C1878 1.531 . S
C1875 C1874 1.369 . S
C1875 C1876 1.410 . S
C1875 C1883 1.503 . S
C1876 C1875 1.410 . S
C1876 C1877 1.392 . S
C1876 C1879 1.511 . S
C1877 C1873 1.376 . S
C1877 C1876 1.392 . S
C1877 H1889 0.929 . S
C1878 C1874 1.531 . S
C1878 H1890 0.960 . S
C1878 H1891 0.962 . S
C1878 H1892 0.960 . S
C1879 C1876 1.511 . S
C1879 H1893 0.961 . S
C1879 H1894 0.961 . S
C1879 H1895 0.961 . S
C1880 C1881 1.370 . S
C1880 C1882 1.363 . S
C1880 H1896 0.931 . S
C1881 C1880 1.370 . S
C1881 C1885 1.408 . S
C1882 C1880 1.363 . S
C1882 C1883 1.370 . S
C1882 C1886 1.524 . S
C1883 C1875 1.503 . S
C1883 C1882 1.370 . S
C1883 C1884 1.403 . S
C1884 C1883 1.403 . S
C1884 C1885 1.404 . S
C1884 C1887 1.539 . S
C1885 C1881 1.408 . S
C1885 C1884 1.404 . S
C1885 H1897 0.930 . S
C1886 C1882 1.524 . S
C1886 H1898 0.956 . S
C1886 H1899 0.961 . S
C1886 H1900 0.961 . S
C1887 C1884 1.539 . S
C1887 H1901 0.958 . S
C1887 H1902 0.961 . S
C1887 H1903 0.960 . S
H1888 C1872 0.931 . S
H1889 C1877 0.929 . S
H1890 C1878 0.960 . S
H1891 C1878 0.962 . S
H1892 C1878 0.960 . S
H1893 C1879 0.961 . S
H1894 C1879 0.961 . S
H1895 C1879 0.961 . S
H1896 C1880 0.931 . S
H1897 C1885 0.930 . S
H1898 C1886 0.956 . S
H1899 C1886 0.961 . S
H1900 C1886 0.961 . S
H1901 C1887 0.958 . S
H1902 C1887 0.961 . S
H1903 C1887 0.960 . S
C1904 C1905 1.391 . S
C1904 C1906 1.394 . S
C1904 H1920 0.931 . S
C1905 C1904 1.391 . S
C1905 C1909 1.376 . S
C1906 C1904 1.394 . S
C1906 C1907 1.369 . S
C1906 C1910 1.531 . S
C1907 C1906 1.369 . S
C1907 C1908 1.410 . S
C1907 C1915 1.503 . S
C1908 C1907 1.410 . S
C1908 C1909 1.392 . S
C1908 C1911 1.511 . S
C1909 C1905 1.376 . S
C1909 C1908 1.392 . S
C1909 H1921 0.929 . S
C1910 C1906 1.531 . S
C1910 H1922 0.960 . S
C1910 H1923 0.962 . S
C1910 H1924 0.960 . S
C1911 C1908 1.511 . S
C1911 H1925 0.961 . S
C1911 H1926 0.961 . S
C1911 H1927 0.961 . S
C1912 C1913 1.370 . S
C1912 C1914 1.363 . S
C1912 H1928 0.931 . S
C1913 C1912 1.370 . S
C1913 C1917 1.408 . S
C1914 C1912 1.363 . S
C1914 C1915 1.370 . S
C1914 C1918 1.524 . S
C1915 C1907 1.503 . S
C1915 C1914 1.370 . S
C1915 C1916 1.403 . S
C1916 C1915 1.403 . S
C1916 C1917 1.404 . S
C1916 C1919 1.539 . S
C1917 C1913 1.408 . S
C1917 C1916 1.404 . S
C1917 H1929 0.930 . S
C1918 C1914 1.524 . S
C1918 H1930 0.956 . S
C1918 H1931 0.961 . S
C1918 H1932 0.961 . S
C1919 C1916 1.539 . S
C1919 H1933 0.958 . S
C1919 H1934 0.961 . S
C1919 H1935 0.960 . S
H1920 C1904 0.931 . S
H1921 C1909 0.929 . S
H1922 C1910 0.960 . S
H1923 C1910 0.962 . S
H1924 C1910 0.960 . S
H1925 C1911 0.961 . S
H1926 C1911 0.961 . S
H1927 C1911 0.961 . S
H1928 C1912 0.931 . S
H1929 C1917 0.930 . S
H1930 C1918 0.956 . S
H1931 C1918 0.961 . S
H1932 C1918 0.961 . S
H1933 C1919 0.958 . S
H1934 C1919 0.961 . S
H1935 C1919 0.960 . S
C1936 C1937 1.391 . S
C1936 C1938 1.394 . S
C1936 H1952 0.931 . S
C1937 C1936 1.391 . S
C1937 C1941 1.376 1_655 S
C1938 C1936 1.394 . S
C1938 C1939 1.369 1_655 S
C1938 C1942 1.531 . S
C1939 C1938 1.369 1_455 S
C1939 C1940 1.410 . S
C1939 C1947 1.503 . S
C1940 C1939 1.410 . S
C1940 C1941 1.392 . S
C1940 C1943 1.511 . S
C1941 C1937 1.376 1_455 S
C1941 C1940 1.392 . S
C1941 H1953 0.929 . S
C1942 C1938 1.531 . S
C1942 H1954 0.960 . S
C1942 H1955 0.962 . S
C1942 H1956 0.960 . S
C1943 C1940 1.511 . S
C1943 H1957 0.961 . S
C1943 H1958 0.961 . S
C1943 H1959 0.961 . S
C1944 C1945 1.370 . S
C1944 C1946 1.363 . S
C1944 H1960 0.931 . S
C1945 C1944 1.370 . S
C1945 C1949 1.408 . S
C1946 C1944 1.363 . S
C1946 C1947 1.370 . S
C1946 C1950 1.524 1_455 S
C1947 C1939 1.503 . S
C1947 C1946 1.370 . S
C1947 C1948 1.403 . S
C1948 C1947 1.403 . S
C1948 C1949 1.404 . S
C1948 C1951 1.539 . S
C1949 C1945 1.408 . S
C1949 C1948 1.404 . S
C1949 H1961 0.930 . S
C1950 C1946 1.524 1_655 S
C1950 H1962 0.956 . S
C1950 H1963 0.951 1_655 S
C1950 H1964 0.961 . S
C1951 C1948 1.539 . S
C1951 H1965 0.958 . S
C1951 H1966 0.961 . S
C1951 H1967 0.960 . S
H1952 C1936 0.931 . S
H1953 C1941 0.929 . S
H1954 C1942 0.960 . S
H1955 C1942 0.962 . S
H1956 C1942 0.960 . S
H1957 C1943 0.961 . S
H1958 C1943 0.961 . S
H1959 C1943 0.961 . S
H1960 C1944 0.931 . S
H1961 C1949 0.930 . S
H1962 C1950 0.956 . S
H1963 C1950 0.951 1_455 S
H1964 C1950 0.961 . S
H1965 C1951 0.958 . S
H1966 C1951 0.961 . S
H1967 C1951 0.960 . S
C1968 C1969 1.391 . S
C1968 C1970 1.394 . S
C1968 H1984 0.931 . S
C1969 C1968 1.391 . S
C1969 C1973 1.376 . S
C1970 C1968 1.394 . S
C1970 C1971 1.369 . S
C1970 C1974 1.531 . S
C1971 C1970 1.369 . S
C1971 C1972 1.410 . S
C1971 C1979 1.503 . S
C1972 C1971 1.410 . S
C1972 C1973 1.392 . S
C1972 C1975 1.511 . S
C1973 C1969 1.376 . S
C1973 C1972 1.392 . S
C1973 H1985 0.929 . S
C1974 C1970 1.531 . S
C1974 H1986 0.960 . S
C1974 H1987 0.962 . S
C1974 H1988 0.960 . S
C1975 C1972 1.511 . S
C1975 H1989 0.961 . S
C1975 H1990 0.961 . S
C1975 H1991 0.961 . S
C1976 C1977 1.370 . S
C1976 C1978 1.363 . S
C1976 H1992 0.931 . S
C1977 C1976 1.370 . S
C1977 C1981 1.408 . S
C1978 C1976 1.363 . S
C1978 C1979 1.370 . S
C1978 C1982 1.524 . S
C1979 C1971 1.503 . S
C1979 C1978 1.370 . S
C1979 C1980 1.403 . S
C1980 C1979 1.403 . S
C1980 C1981 1.404 . S
C1980 C1983 1.539 . S
C1981 C1977 1.408 . S
C1981 C1980 1.404 . S
C1981 H1993 0.930 . S
C1982 C1978 1.524 . S
C1982 H1994 0.956 . S
C1982 H1995 0.961 . S
C1982 H1996 0.961 . S
C1983 C1980 1.539 . S
C1983 H1997 0.958 . S
C1983 H1998 0.961 . S
C1983 H1999 0.960 . S
H1984 C1968 0.931 . S
H1985 C1973 0.929 . S
H1986 C1974 0.960 . S
H1987 C1974 0.962 . S
H1988 C1974 0.960 . S
H1989 C1975 0.961 . S
H1990 C1975 0.961 . S
H1991 C1975 0.961 . S
H1992 C1976 0.931 . S
H1993 C1981 0.930 . S
H1994 C1982 0.956 . S
H1995 C1982 0.961 . S
H1996 C1982 0.961 . S
H1997 C1983 0.958 . S
H1998 C1983 0.961 . S
H1999 C1983 0.960 . S
C2000 C2001 1.391 . S
C2000 C2002 1.394 . S
C2000 H2016 0.931 . S
C2001 C2000 1.391 . S
C2001 C2005 1.376 . S
C2002 C2000 1.394 . S
C2002 C2003 1.369 . S
C2002 C2006 1.531 1_545 S
C2003 C2002 1.369 . S
C2003 C2004 1.410 . S
C2003 C2011 1.503 . S
C2004 C2003 1.410 . S
C2004 C2005 1.392 . S
C2004 C2007 1.511 . S
C2005 C2001 1.376 . S
C2005 C2004 1.392 . S
C2005 H2017 0.929 . S
C2006 C2002 1.531 1_565 S
C2006 H2018 0.960 . S
C2006 H2019 0.962 . S
C2006 H2020 0.960 . S
C2007 C2004 1.511 . S
C2007 H2021 0.961 . S
C2007 H2022 0.961 . S
C2007 H2023 0.961 . S
C2008 C2009 1.370 . S
C2008 C2010 1.363 . S
C2008 H2024 0.931 . S
C2009 C2008 1.370 . S
C2009 C2013 1.408 . S
C2010 C2008 1.363 . S
C2010 C2011 1.370 . S
C2010 C2014 1.524 . S
C2011 C2003 1.503 . S
C2011 C2010 1.370 . S
C2011 C2012 1.403 . S
C2012 C2011 1.403 . S
C2012 C2013 1.404 . S
C2012 C2015 1.539 . S
C2013 C2009 1.408 . S
C2013 C2012 1.404 . S
C2013 H2025 0.930 . S
C2014 C2010 1.524 . S
C2014 H2026 0.956 . S
C2014 H2027 0.961 . S
C2014 H2028 0.961 . S
C2015 C2012 1.539 . S
C2015 H2029 0.958 . S
C2015 H2030 0.961 . S
C2015 H2031 0.960 . S
H2016 C2000 0.931 . S
H2017 C2005 0.929 . S
H2018 C2006 0.960 . S
H2019 C2006 0.962 . S
H2020 C2006 0.960 . S
H2021 C2007 0.961 . S
H2022 C2007 0.961 . S
H2023 C2007 0.961 . S
H2024 C2008 0.931 . S
H2025 C2013 0.930 . S
H2026 C2014 0.956 . S
H2027 C2014 0.961 . S
H2028 C2014 0.961 . S
H2029 C2015 0.958 . S
H2030 C2015 0.961 . S
H2031 C2015 0.960 . S
C2032 C2033 1.391 . S
C2032 C2034 1.394 . S
C2032 H2048 0.931 . S
C2033 C2032 1.391 . S
C2033 C2037 1.376 . S
C2034 C2032 1.394 . S
C2034 C2035 1.369 . S
C2034 C2038 1.531 . S
C2035 C2034 1.369 . S
C2035 C2036 1.410 . S
C2035 C2043 1.503 . S
C2036 C2035 1.410 . S
C2036 C2037 1.392 . S
C2036 C2039 1.511 . S
C2037 C2033 1.376 . S
C2037 C2036 1.392 . S
C2037 H2049 0.929 . S
C2038 C2034 1.531 . S
C2038 H2050 0.960 . S
C2038 H2051 0.962 . S
C2038 H2052 0.960 . S
C2039 C2036 1.511 . S
C2039 H2053 0.961 . S
C2039 H2054 0.961 . S
C2039 H2055 0.961 . S
C2040 C2041 1.370 . S
C2040 C2042 1.363 . S
C2040 H2056 0.931 . S
C2041 C2040 1.370 . S
C2041 C2045 1.408 . S
C2042 C2040 1.363 . S
C2042 C2043 1.370 . S
C2042 C2046 1.524 . S
C2043 C2035 1.503 . S
C2043 C2042 1.370 . S
C2043 C2044 1.403 . S
C2044 C2043 1.403 . S
C2044 C2045 1.404 . S
C2044 C2047 1.539 . S
C2045 C2041 1.408 . S
C2045 C2044 1.404 . S
C2045 H2057 0.930 . S
C2046 C2042 1.524 . S
C2046 H2058 0.956 . S
C2046 H2059 0.961 . S
C2046 H2060 0.961 . S
C2047 C2044 1.539 . S
C2047 H2061 0.958 . S
C2047 H2062 0.961 . S
C2047 H2063 0.960 . S
H2048 C2032 0.931 . S
H2049 C2037 0.929 . S
H2050 C2038 0.960 . S
H2051 C2038 0.962 . S
H2052 C2038 0.960 . S
H2053 C2039 0.961 . S
H2054 C2039 0.961 . S
H2055 C2039 0.961 . S
H2056 C2040 0.931 . S
H2057 C2045 0.930 . S
H2058 C2046 0.956 . S
H2059 C2046 0.961 . S
H2060 C2046 0.961 . S
H2061 C2047 0.958 . S
H2062 C2047 0.961 . S
H2063 C2047 0.960 . S
C2064 C2065 1.391 1_455 S
C2064 C2066 1.394 . S
C2064 H2080 0.931 . S
C2065 C2064 1.391 1_655 S
C2065 C2069 1.376 . S
C2066 C2064 1.394 . S
C2066 C2067 1.369 . S
C2066 C2070 1.531 . S
C2067 C2066 1.369 . S
C2067 C2068 1.410 1_455 S
C2067 C2075 1.503 . S
C2068 C2067 1.410 1_655 S
C2068 C2069 1.392 . S
C2068 C2071 1.511 . S
C2069 C2065 1.376 . S
C2069 C2068 1.392 . S
C2069 H2081 0.929 . S
C2070 C2066 1.531 . S
C2070 H2082 0.960 . S
C2070 H2083 0.962 . S
C2070 H2084 0.960 . S
C2071 C2068 1.511 . S
C2071 H2085 0.961 . S
C2071 H2086 0.961 . S
C2071 H2087 0.961 . S
C2072 C2073 1.370 . S
C2072 C2074 1.363 . S
C2072 H2088 0.931 . S
C2073 C2072 1.370 . S
C2073 C2077 1.408 . S
C2074 C2072 1.363 . S
C2074 C2075 1.370 . S
C2074 C2078 1.524 . S
C2075 C2067 1.503 . S
C2075 C2074 1.370 . S
C2075 C2076 1.403 . S
C2076 C2075 1.403 . S
C2076 C2077 1.404 . S
C2076 C2079 1.539 . S
C2077 C2073 1.408 . S
C2077 C2076 1.404 . S
C2077 H2089 0.930 . S
C2078 C2074 1.524 . S
C2078 H2090 0.956 . S
C2078 H2091 0.961 . S
C2078 H2092 0.961 . S
C2079 C2076 1.539 . S
C2079 H2093 0.958 . S
C2079 H2094 0.961 . S
C2079 H2095 0.960 1_455 S
H2080 C2064 0.931 . S
H2081 C2069 0.929 . S
H2082 C2070 0.960 . S
H2083 C2070 0.962 . S
H2084 C2070 0.960 . S
H2085 C2071 0.961 . S
H2086 C2071 0.961 . S
H2087 C2071 0.961 . S
H2088 C2072 0.931 . S
H2089 C2077 0.930 . S
H2090 C2078 0.956 . S
H2091 C2078 0.961 . S
H2092 C2078 0.961 . S
H2093 C2079 0.958 . S
H2094 C2079 0.961 . S
H2095 C2079 0.960 1_655 S
C2096 C2097 1.391 . S
C2096 C2098 1.394 . S
C2096 H2112 0.931 . S
C2097 C2096 1.391 . S
C2097 C2101 1.376 . S
C2098 C2096 1.394 . S
C2098 C2099 1.369 . S
C2098 C2102 1.531 . S
C2099 C2098 1.369 . S
C2099 C2100 1.410 . S
C2099 C2107 1.503 . S
C2100 C2099 1.410 . S
C2100 C2101 1.392 . S
C2100 C2103 1.511 . S
C2101 C2097 1.376 . S
C2101 C2100 1.392 . S
C2101 H2113 0.929 . S
C2102 C2098 1.531 . S
C2102 H2114 0.960 . S
C2102 H2115 0.962 . S
C2102 H2116 0.960 . S
C2103 C2100 1.511 . S
C2103 H2117 0.961 . S
C2103 H2118 0.961 . S
C2103 H2119 0.961 . S
C2104 C2105 1.370 . S
C2104 C2106 1.363 . S
C2104 H2120 0.931 . S
C2105 C2104 1.370 . S
C2105 C2109 1.408 . S
C2106 C2104 1.363 . S
C2106 C2107 1.370 . S
C2106 C2110 1.524 . S
C2107 C2099 1.503 . S
C2107 C2106 1.370 . S
C2107 C2108 1.403 . S
C2108 C2107 1.403 . S
C2108 C2109 1.404 . S
C2108 C2111 1.539 . S
C2109 C2105 1.408 . S
C2109 C2108 1.404 . S
C2109 H2121 0.930 . S
C2110 C2106 1.524 . S
C2110 H2122 0.956 . S
C2110 H2123 0.961 . S
C2110 H2124 0.961 . S
C2111 C2108 1.539 . S
C2111 H2125 0.958 . S
C2111 H2126 0.961 . S
C2111 H2127 0.960 . S
H2112 C2096 0.931 . S
H2113 C2101 0.929 . S
H2114 C2102 0.960 . S
H2115 C2102 0.962 . S
H2116 C2102 0.960 . S
H2117 C2103 0.961 . S
H2118 C2103 0.961 . S
H2119 C2103 0.961 . S
H2120 C2104 0.931 . S
H2121 C2109 0.930 . S
H2122 C2110 0.956 . S
H2123 C2110 0.961 . S
H2124 C2110 0.961 . S
H2125 C2111 0.958 . S
H2126 C2111 0.961 . S
H2127 C2111 0.960 . S
C2128 C2129 1.391 . S
C2128 C2130 1.394 . S
C2128 H2144 0.931 . S
C2129 C2128 1.391 . S
C2129 C2133 1.376 . S
C2130 C2128 1.394 . S
C2130 C2131 1.369 . S
C2130 C2134 1.531 . S
C2131 C2130 1.369 . S
C2131 C2132 1.410 . S
C2131 C2139 1.503 . S
C2132 C2131 1.410 . S
C2132 C2133 1.392 . S
C2132 C2135 1.511 . S
C2133 C2129 1.376 . S
C2133 C2132 1.392 . S
C2133 H2145 0.929 . S
C2134 C2130 1.531 . S
C2134 H2146 0.960 . S
C2134 H2147 0.962 . S
C2134 H2148 0.960 . S
C2135 C2132 1.511 . S
C2135 H2149 0.961 . S
C2135 H2150 0.961 . S
C2135 H2151 0.961 . S
C2136 C2137 1.370 . S
C2136 C2138 1.363 . S
C2136 H2152 0.931 . S
C2137 C2136 1.370 . S
C2137 C2141 1.408 . S
C2138 C2136 1.363 . S
C2138 C2139 1.370 . S
C2138 C2142 1.524 . S
C2139 C2131 1.503 . S
C2139 C2138 1.370 . S
C2139 C2140 1.403 . S
C2140 C2139 1.403 . S
C2140 C2141 1.404 . S
C2140 C2143 1.539 . S
C2141 C2137 1.408 . S
C2141 C2140 1.404 . S
C2141 H2153 0.930 . S
C2142 C2138 1.524 . S
C2142 H2154 0.956 . S
C2142 H2155 0.961 . S
C2142 H2156 0.961 . S
C2143 C2140 1.539 . S
C2143 H2157 0.958 1_545 S
C2143 H2158 0.961 1_545 S
C2143 H2159 0.960 . S
H2144 C2128 0.931 . S
H2145 C2133 0.929 . S
H2146 C2134 0.960 . S
H2147 C2134 0.962 . S
H2148 C2134 0.960 . S
H2149 C2135 0.961 . S
H2150 C2135 0.961 . S
H2151 C2135 0.961 . S
H2152 C2136 0.931 . S
H2153 C2141 0.930 . S
H2154 C2142 0.956 . S
H2155 C2142 0.961 . S
H2156 C2142 0.961 . S
H2157 C2143 0.958 1_565 S
H2158 C2143 0.961 1_565 S
H2159 C2143 0.960 . S
C2160 C2161 1.391 . S
C2160 C2162 1.394 . S
C2160 H2176 0.931 . S
C2161 C2160 1.391 . S
C2161 C2165 1.376 . S
C2162 C2160 1.394 . S
C2162 C2163 1.369 . S
C2162 C2166 1.531 . S
C2163 C2162 1.369 . S
C2163 C2164 1.410 . S
C2163 C2171 1.503 . S
C2164 C2163 1.410 . S
C2164 C2165 1.392 . S
C2164 C2167 1.511 . S
C2165 C2161 1.376 . S
C2165 C2164 1.392 . S
C2165 H2177 0.929 . S
C2166 C2162 1.531 . S
C2166 H2178 0.960 . S
C2166 H2179 0.962 . S
C2166 H2180 0.960 . S
C2167 C2164 1.511 . S
C2167 H2181 0.961 . S
C2167 H2182 0.961 . S
C2167 H2183 0.961 . S
C2168 C2169 1.370 . S
C2168 C2170 1.363 . S
C2168 H2184 0.931 . S
C2169 C2168 1.370 . S
C2169 C2173 1.408 . S
C2170 C2168 1.363 . S
C2170 C2171 1.370 . S
C2170 C2174 1.524 . S
C2171 C2163 1.503 . S
C2171 C2170 1.370 . S
C2171 C2172 1.403 . S
C2172 C2171 1.403 . S
C2172 C2173 1.404 . S
C2172 C2175 1.539 . S
C2173 C2169 1.408 . S
C2173 C2172 1.404 . S
C2173 H2185 0.930 . S
C2174 C2170 1.524 . S
C2174 H2186 0.956 . S
C2174 H2187 0.961 . S
C2174 H2188 0.961 . S
C2175 C2172 1.539 . S
C2175 H2189 0.958 . S
C2175 H2190 0.961 . S
C2175 H2191 0.960 . S
H2176 C2160 0.931 . S
H2177 C2165 0.929 . S
H2178 C2166 0.960 . S
H2179 C2166 0.962 . S
H2180 C2166 0.960 . S
H2181 C2167 0.961 . S
H2182 C2167 0.961 . S
H2183 C2167 0.961 . S
H2184 C2168 0.931 . S
H2185 C2173 0.930 . S
H2186 C2174 0.956 . S
H2187 C2174 0.961 . S
H2188 C2174 0.961 . S
H2189 C2175 0.958 . S
H2190 C2175 0.961 . S
H2191 C2175 0.960 . S
C2192 C2193 1.391 1_556 S
C2192 C2194 1.394 1_556 S
C2192 H2208 0.931 . S
C2193 C2192 1.391 1_554 S
C2193 C2197 1.376 . S
C2194 C2192 1.394 1_554 S
C2194 C2195 1.369 . S
C2194 C2198 1.531 1_554 S
C2195 C2194 1.369 . S
C2195 C2196 1.410 . S
C2195 C2203 1.503 . S
C2196 C2195 1.410 . S
C2196 C2197 1.392 . S
C2196 C2199 1.511 . S
C2197 C2193 1.376 . S
C2197 C2196 1.392 . S
C2197 H2209 0.929 . S
C2198 C2194 1.531 1_556 S
C2198 H2210 0.960 . S
C2198 H2211 0.962 . S
C2198 H2212 0.960 . S
C2199 C2196 1.511 . S
C2199 H2213 0.961 1_565 S
C2199 H2214 0.961 1_565 S
C2199 H2215 0.961 . S
C2200 C2201 1.370 . S
C2200 C2202 1.363 . S
C2200 H2216 0.931 . S
C2201 C2200 1.370 . S
C2201 C2205 1.408 1_545 S
C2202 C2200 1.363 . S
C2202 C2203 1.370 1_545 S
C2202 C2206 1.524 . S
C2203 C2195 1.503 . S
C2203 C2202 1.370 1_565 S
C2203 C2204 1.403 . S
C2204 C2203 1.403 . S
C2204 C2205 1.404 . S
C2204 C2207 1.539 . S
C2205 C2201 1.408 1_565 S
C2205 C2204 1.404 . S
C2205 H2217 0.930 . S
C2206 C2202 1.524 . S
C2206 H2218 0.956 . S
C2206 H2219 0.961 . S
C2206 H2220 0.961 . S
C2207 C2204 1.539 . S
C2207 H2221 0.958 . S
C2207 H2222 0.961 . S
C2207 H2223 0.960 . S
H2208 C2192 0.931 . S
H2209 C2197 0.929 . S
H2210 C2198 0.960 . S
H2211 C2198 0.962 . S
H2212 C2198 0.960 . S
H2213 C2199 0.961 1_545 S
H2214 C2199 0.961 1_545 S
H2215 C2199 0.961 . S
H2216 C2200 0.931 . S
H2217 C2205 0.930 . S
H2218 C2206 0.956 . S
H2219 C2206 0.961 . S
H2220 C2206 0.961 . S
H2221 C2207 0.958 . S
H2222 C2207 0.961 . S
H2223 C2207 0.960 . S
C2224 C2225 1.391 . S
C2224 C2226 1.394 . S
C2224 H2240 0.931 . S
C2225 C2224 1.391 . S
C2225 C2229 1.376 . S
C2226 C2224 1.394 . S
C2226 C2227 1.369 . S
C2226 C2230 1.531 . S
C2227 C2226 1.369 . S
C2227 C2228 1.410 . S
C2227 C2235 1.503 . S
C2228 C2227 1.410 . S
C2228 C2229 1.392 . S
C2228 C2231 1.511 . S
C2229 C2225 1.376 . S
C2229 C2228 1.392 . S
C2229 H2241 0.929 . S
C2230 C2226 1.531 . S
C2230 H2242 0.960 . S
C2230 H2243 0.962 1_556 S
C2230 H2244 0.960 . S
C2231 C2228 1.511 . S
C2231 H2245 0.961 . S
C2231 H2246 0.961 . S
C2231 H2247 0.961 . S
C2232 C2233 1.370 1_554 S
C2232 C2234 1.363 . S
C2232 H2248 0.931 . S
C2233 C2232 1.370 1_556 S
C2233 C2237 1.408 . S
C2234 C2232 1.363 . S
C2234 C2235 1.370 1_554 S
C2234 C2238 1.524 . S
C2235 C2227 1.503 . S
C2235 C2234 1.370 1_556 S
C2235 C2236 1.403 . S
C2236 C2235 1.403 . S
C2236 C2237 1.404 . S
C2236 C2239 1.539 . S
C2237 C2233 1.408 . S
C2237 C2236 1.404 . S
C2237 H2249 0.930 . S
C2238 C2234 1.524 . S
C2238 H2250 0.956 . S
C2238 H2251 0.961 . S
C2238 H2252 0.961 . S
C2239 C2236 1.539 . S
C2239 H2253 0.958 . S
C2239 H2254 0.961 . S
C2239 H2255 0.960 . S
H2240 C2224 0.931 . S
H2241 C2229 0.929 . S
H2242 C2230 0.960 . S
H2243 C2230 0.962 1_554 S
H2244 C2230 0.960 . S
H2245 C2231 0.961 . S
H2246 C2231 0.961 . S
H2247 C2231 0.961 . S
H2248 C2232 0.931 . S
H2249 C2237 0.930 . S
H2250 C2238 0.956 . S
H2251 C2238 0.961 . S
H2252 C2238 0.961 . S
H2253 C2239 0.958 . S
H2254 C2239 0.961 . S
H2255 C2239 0.960 . S
C2256 C2257 1.391 . S
C2256 C2258 1.394 . S
C2256 H2272 0.931 . S
C2257 C2256 1.391 . S
C2257 C2261 1.376 . S
C2258 C2256 1.394 . S
C2258 C2259 1.369 . S
C2258 C2262 1.531 . S
C2259 C2258 1.369 . S
C2259 C2260 1.410 . S
C2259 C2267 1.503 . S
C2260 C2259 1.410 . S
C2260 C2261 1.392 . S
C2260 C2263 1.511 . S
C2261 C2257 1.376 . S
C2261 C2260 1.392 . S
C2261 H2273 0.929 . S
C2262 C2258 1.531 . S
C2262 H2274 0.960 . S
C2262 H2275 0.962 . S
C2262 H2276 0.960 . S
C2263 C2260 1.511 . S
C2263 H2277 0.961 . S
C2263 H2278 0.961 . S
C2263 H2279 0.961 . S
C2264 C2265 1.370 . S
C2264 C2266 1.363 . S
C2264 H2280 0.931 . S
C2265 C2264 1.370 . S
C2265 C2269 1.408 . S
C2266 C2264 1.363 . S
C2266 C2267 1.370 . S
C2266 C2270 1.524 . S
C2267 C2259 1.503 . S
C2267 C2266 1.370 . S
C2267 C2268 1.403 . S
C2268 C2267 1.403 . S
C2268 C2269 1.404 . S
C2268 C2271 1.539 . S
C2269 C2265 1.408 . S
C2269 C2268 1.404 . S
C2269 H2281 0.930 . S
C2270 C2266 1.524 . S
C2270 H2282 0.956 . S
C2270 H2283 0.961 . S
C2270 H2284 0.961 . S
C2271 C2268 1.539 . S
C2271 H2285 0.958 . S
C2271 H2286 0.961 . S
C2271 H2287 0.960 . S
H2272 C2256 0.931 . S
H2273 C2261 0.929 . S
H2274 C2262 0.960 . S
H2275 C2262 0.962 . S
H2276 C2262 0.960 . S
H2277 C2263 0.961 . S
H2278 C2263 0.961 . S
H2279 C2263 0.961 . S
H2280 C2264 0.931 . S
H2281 C2269 0.930 . S
H2282 C2270 0.956 . S
H2283 C2270 0.961 . S
H2284 C2270 0.961 . S
H2285 C2271 0.958 . S
H2286 C2271 0.961 . S
H2287 C2271 0.960 . S
C2288 C2289 1.391 . S
C2288 C2290 1.394 . S
C2288 H2304 0.931 . S
C2289 C2288 1.391 . S
C2289 C2293 1.376 . S
C2290 C2288 1.394 . S
C2290 C2291 1.369 . S
C2290 C2294 1.531 . S
C2291 C2290 1.369 . S
C2291 C2292 1.410 . S
C2291 C2299 1.503 . S
C2292 C2291 1.410 . S
C2292 C2293 1.392 . S
C2292 C2295 1.511 . S
C2293 C2289 1.376 . S
C2293 C2292 1.392 . S
C2293 H2305 0.929 . S
C2294 C2290 1.531 . S
C2294 H2306 0.960 . S
C2294 H2307 0.962 . S
C2294 H2308 0.960 . S
C2295 C2292 1.511 . S
C2295 H2309 0.961 . S
C2295 H2310 0.961 . S
C2295 H2311 0.961 . S
C2296 C2297 1.370 1_655 S
C2296 C2298 1.363 . S
C2296 H2312 0.931 . S
C2297 C2296 1.370 1_455 S
C2297 C2301 1.406 . S
C2298 C2296 1.363 . S
C2298 C2299 1.370 . S
C2298 C2302 1.524 . S
C2299 C2291 1.503 . S
C2299 C2298 1.370 . S
C2299 C2300 1.403 . S
C2300 C2299 1.403 . S
C2300 C2301 1.409 1_655 S
C2300 C2303 1.539 . S
C2301 C2297 1.406 . S
C2301 C2300 1.409 1_455 S
C2301 H2313 0.927 . S
C2302 C2298 1.524 . S
C2302 H2314 0.956 . S
C2302 H2315 0.961 . S
C2302 H2316 0.961 . S
C2303 C2300 1.539 . S
C2303 H2317 0.958 . S
C2303 H2318 0.961 . S
C2303 H2319 0.960 . S
H2304 C2288 0.931 . S
H2305 C2293 0.929 . S
H2306 C2294 0.960 . S
H2307 C2294 0.962 . S
H2308 C2294 0.960 . S
H2309 C2295 0.961 . S
H2310 C2295 0.961 . S
H2311 C2295 0.961 . S
H2312 C2296 0.931 . S
H2313 C2301 0.927 . S
H2314 C2302 0.956 . S
H2315 C2302 0.961 . S
H2316 C2302 0.961 . S
H2317 C2303 0.958 . S
H2318 C2303 0.961 . S
H2319 C2303 0.960 . S
C2320 C2321 1.391 . S
C2320 C2322 1.394 . S
C2320 H2336 0.931 . S
C2321 C2320 1.391 . S
C2321 C2325 1.376 . S
C2322 C2320 1.394 . S
C2322 C2323 1.369 . S
C2322 C2326 1.531 . S
C2323 C2322 1.369 . S
C2323 C2324 1.410 . S
C2323 C2331 1.503 . S
C2324 C2323 1.410 . S
C2324 C2325 1.392 . S
C2324 C2327 1.511 . S
C2325 C2321 1.376 . S
C2325 C2324 1.392 . S
C2325 H2337 0.929 . S
C2326 C2322 1.531 . S
C2326 H2338 0.960 . S
C2326 H2339 0.962 . S
C2326 H2340 0.960 . S
C2327 C2324 1.511 . S
C2327 H2341 0.961 . S
C2327 H2342 0.961 . S
C2327 H2343 0.961 . S
C2328 C2329 1.370 . S
C2328 C2330 1.363 . S
C2328 H2344 0.931 . S
C2329 C2328 1.370 . S
C2329 C2333 1.408 . S
C2330 C2328 1.363 . S
C2330 C2331 1.370 . S
C2330 C2334 1.524 . S
C2331 C2323 1.503 . S
C2331 C2330 1.370 . S
C2331 C2332 1.403 . S
C2332 C2331 1.403 . S
C2332 C2333 1.404 . S
C2332 C2335 1.539 . S
C2333 C2329 1.408 . S
C2333 C2332 1.404 . S
C2333 H2345 0.930 . S
C2334 C2330 1.524 . S
C2334 H2346 0.956 . S
C2334 H2347 0.961 . S
C2334 H2348 0.961 . S
C2335 C2332 1.539 . S
C2335 H2349 0.958 . S
C2335 H2350 0.961 . S
C2335 H2351 0.960 . S
H2336 C2320 0.931 . S
H2337 C2325 0.929 . S
H2338 C2326 0.960 . S
H2339 C2326 0.962 . S
H2340 C2326 0.960 . S
H2341 C2327 0.961 . S
H2342 C2327 0.961 . S
H2343 C2327 0.961 . S
H2344 C2328 0.931 . S
H2345 C2333 0.930 . S
H2346 C2334 0.956 . S
H2347 C2334 0.961 . S
H2348 C2334 0.961 . S
H2349 C2335 0.958 . S
H2350 C2335 0.961 . S
H2351 C2335 0.960 . S
C2352 C2353 1.391 . S
C2352 C2354 1.394 . S
C2352 H2368 0.931 . S
C2353 C2352 1.391 . S
C2353 C2357 1.376 . S
C2354 C2352 1.394 . S
C2354 C2355 1.369 . S
C2354 C2358 1.531 . S
C2355 C2354 1.369 . S
C2355 C2356 1.410 . S
C2355 C2363 1.503 . S
C2356 C2355 1.410 . S
C2356 C2357 1.392 . S
C2356 C2359 1.511 . S
C2357 C2353 1.376 . S
C2357 C2356 1.392 . S
C2357 H2369 0.929 . S
C2358 C2354 1.531 . S
C2358 H2370 0.960 . S
C2358 H2371 0.962 . S
C2358 H2372 0.960 . S
C2359 C2356 1.511 . S
C2359 H2373 0.961 . S
C2359 H2374 0.961 . S
C2359 H2375 0.961 . S
C2360 C2361 1.370 . S
C2360 C2362 1.363 . S
C2360 H2376 0.931 . S
C2361 C2360 1.370 . S
C2361 C2365 1.408 . S
C2362 C2360 1.363 . S
C2362 C2363 1.370 . S
C2362 C2366 1.524 . S
C2363 C2355 1.503 . S
C2363 C2362 1.370 . S
C2363 C2364 1.403 . S
C2364 C2363 1.403 . S
C2364 C2365 1.404 . S
C2364 C2367 1.539 . S
C2365 C2361 1.408 . S
C2365 C2364 1.404 . S
C2365 H2377 0.930 . S
C2366 C2362 1.524 . S
C2366 H2378 0.956 . S
C2366 H2379 0.961 . S
C2366 H2380 0.961 . S
C2367 C2364 1.539 . S
C2367 H2381 0.958 . S
C2367 H2382 0.961 . S
C2367 H2383 0.960 . S
H2368 C2352 0.931 . S
H2369 C2357 0.929 . S
H2370 C2358 0.960 . S
H2371 C2358 0.962 . S
H2372 C2358 0.960 . S
H2373 C2359 0.961 . S
H2374 C2359 0.961 . S
H2375 C2359 0.961 . S
H2376 C2360 0.931 . S
H2377 C2365 0.930 . S
H2378 C2366 0.956 . S
H2379 C2366 0.961 . S
H2380 C2366 0.961 . S
H2381 C2367 0.958 . S
H2382 C2367 0.961 . S
H2383 C2367 0.960 . S
C2384 C2385 1.391 . S
C2384 C2386 1.394 . S
C2384 H2400 0.931 . S
C2385 C2384 1.391 . S
C2385 C2389 1.376 . S
C2386 C2384 1.394 . S
C2386 C2387 1.369 . S
C2386 C2390 1.531 . S
C2387 C2386 1.369 . S
C2387 C2388 1.410 . S
C2387 C2395 1.503 . S
C2388 C2387 1.410 . S
C2388 C2389 1.392 . S
C2388 C2391 1.511 . S
C2389 C2385 1.376 . S
C2389 C2388 1.392 . S
C2389 H2401 0.929 . S
C2390 C2386 1.531 . S
C2390 H2402 0.960 . S
C2390 H2403 0.962 . S
C2390 H2404 0.960 . S
C2391 C2388 1.511 . S
C2391 H2405 0.961 . S
C2391 H2406 0.961 . S
C2391 H2407 0.961 . S
C2392 C2393 1.370 . S
C2392 C2394 1.363 . S
C2392 H2408 0.931 . S
C2393 C2392 1.370 . S
C2393 C2397 1.408 . S
C2394 C2392 1.363 . S
C2394 C2395 1.370 . S
C2394 C2398 1.524 . S
C2395 C2387 1.503 . S
C2395 C2394 1.370 . S
C2395 C2396 1.403 . S
C2396 C2395 1.403 . S
C2396 C2397 1.404 . S
C2396 C2399 1.539 . S
C2397 C2393 1.408 . S
C2397 C2396 1.404 . S
C2397 H2409 0.930 . S
C2398 C2394 1.524 . S
C2398 H2410 0.956 . S
C2398 H2411 0.961 . S
C2398 H2412 0.961 . S
C2399 C2396 1.539 . S
C2399 H2413 0.958 . S
C2399 H2414 0.961 . S
C2399 H2415 0.960 . S
H2400 C2384 0.931 . S
H2401 C2389 0.929 . S
H2402 C2390 0.960 . S
H2403 C2390 0.962 . S
H2404 C2390 0.960 . S
H2405 C2391 0.961 . S
H2406 C2391 0.961 . S
H2407 C2391 0.961 . S
H2408 C2392 0.931 . S
H2409 C2397 0.930 . S
H2410 C2398 0.956 . S
H2411 C2398 0.961 . S
H2412 C2398 0.961 . S
H2413 C2399 0.958 . S
H2414 C2399 0.961 . S
H2415 C2399 0.960 . S
C2416 C2417 1.391 . S
C2416 C2418 1.394 . S
C2416 H2432 0.931 . S
C2417 C2416 1.391 . S
C2417 C2421 1.376 . S
C2418 C2416 1.394 . S
C2418 C2419 1.369 . S
C2418 C2422 1.531 . S
C2419 C2418 1.369 . S
C2419 C2420 1.410 . S
C2419 C2427 1.503 . S
C2420 C2419 1.410 . S
C2420 C2421 1.392 . S
C2420 C2423 1.511 . S
C2421 C2417 1.376 . S
C2421 C2420 1.392 . S
C2421 H2433 0.929 . S
C2422 C2418 1.531 . S
C2422 H2434 0.960 . S
C2422 H2435 0.962 . S
C2422 H2436 0.960 . S
C2423 C2420 1.511 . S
C2423 H2437 0.961 . S
C2423 H2438 0.961 . S
C2423 H2439 0.961 . S
C2424 C2425 1.370 . S
C2424 C2426 1.363 . S
C2424 H2440 0.931 . S
C2425 C2424 1.370 . S
C2425 C2429 1.408 . S
C2426 C2424 1.363 . S
C2426 C2427 1.370 . S
C2426 C2430 1.524 . S
C2427 C2419 1.503 . S
C2427 C2426 1.370 . S
C2427 C2428 1.403 . S
C2428 C2427 1.403 . S
C2428 C2429 1.404 . S
C2428 C2431 1.539 . S
C2429 C2425 1.408 . S
C2429 C2428 1.404 . S
C2429 H2441 0.930 . S
C2430 C2426 1.524 . S
C2430 H2442 0.956 . S
C2430 H2443 0.961 . S
C2430 H2444 0.961 . S
C2431 C2428 1.539 . S
C2431 H2445 0.958 . S
C2431 H2446 0.961 . S
C2431 H2447 0.960 . S
H2432 C2416 0.931 . S
H2433 C2421 0.929 . S
H2434 C2422 0.960 . S
H2435 C2422 0.962 . S
H2436 C2422 0.960 . S
H2437 C2423 0.961 . S
H2438 C2423 0.961 . S
H2439 C2423 0.961 . S
H2440 C2424 0.931 . S
H2441 C2429 0.930 . S
H2442 C2430 0.956 . S
H2443 C2430 0.961 . S
H2444 C2430 0.961 . S
H2445 C2431 0.958 . S
H2446 C2431 0.961 . S
H2447 C2431 0.960 . S
C2448 C2449 1.391 . S
C2448 C2450 1.394 . S
C2448 H2464 0.931 . S
C2449 C2448 1.391 . S
C2449 C2453 1.376 . S
C2450 C2448 1.394 . S
C2450 C2451 1.369 . S
C2450 C2454 1.531 . S
C2451 C2450 1.369 . S
C2451 C2452 1.410 . S
C2451 C2459 1.503 . S
C2452 C2451 1.410 . S
C2452 C2453 1.392 . S
C2452 C2455 1.511 . S
C2453 C2449 1.376 . S
C2453 C2452 1.392 . S
C2453 H2465 0.929 . S
C2454 C2450 1.531 . S
C2454 H2466 0.960 . S
C2454 H2467 0.962 . S
C2454 H2468 0.960 . S
C2455 C2452 1.511 . S
C2455 H2469 0.961 . S
C2455 H2470 0.961 . S
C2455 H2471 0.961 . S
C2456 C2457 1.370 . S
C2456 C2458 1.363 . S
C2456 H2472 0.931 . S
C2457 C2456 1.370 . S
C2457 C2461 1.408 . S
C2458 C2456 1.363 . S
C2458 C2459 1.370 . S
C2458 C2462 1.524 . S
C2459 C2451 1.503 . S
C2459 C2458 1.370 . S
C2459 C2460 1.403 . S
C2460 C2459 1.403 . S
C2460 C2461 1.404 . S
C2460 C2463 1.539 . S
C2461 C2457 1.408 . S
C2461 C2460 1.404 . S
C2461 H2473 0.930 . S
C2462 C2458 1.524 . S
C2462 H2474 0.956 . S
C2462 H2475 0.961 . S
C2462 H2476 0.961 . S
C2463 C2460 1.539 . S
C2463 H2477 0.958 . S
C2463 H2478 0.961 . S
C2463 H2479 0.960 . S
H2464 C2448 0.931 . S
H2465 C2453 0.929 . S
H2466 C2454 0.960 . S
H2467 C2454 0.962 . S
H2468 C2454 0.960 . S
H2469 C2455 0.961 . S
H2470 C2455 0.961 . S
H2471 C2455 0.961 . S
H2472 C2456 0.931 . S
H2473 C2461 0.930 . S
H2474 C2462 0.956 . S
H2475 C2462 0.961 . S
H2476 C2462 0.961 . S
H2477 C2463 0.958 . S
H2478 C2463 0.961 . S
H2479 C2463 0.960 . S
C2480 C2481 1.391 . S
C2480 C2482 1.394 . S
C2480 H2496 0.931 . S
C2481 C2480 1.391 . S
C2481 C2485 1.376 . S
C2482 C2480 1.394 . S
C2482 C2483 1.369 . S
C2482 C2486 1.531 . S
C2483 C2482 1.369 . S
C2483 C2484 1.410 . S
C2483 C2491 1.503 . S
C2484 C2483 1.410 . S
C2484 C2485 1.392 . S
C2484 C2487 1.511 . S
C2485 C2481 1.376 . S
C2485 C2484 1.392 . S
C2485 H2497 0.929 . S
C2486 C2482 1.531 . S
C2486 H2498 0.960 . S
C2486 H2499 0.962 . S
C2486 H2500 0.960 . S
C2487 C2484 1.511 . S
C2487 H2501 0.961 . S
C2487 H2502 0.961 . S
C2487 H2503 0.961 . S
C2488 C2489 1.370 . S
C2488 C2490 1.363 . S
C2488 H2504 0.931 . S
C2489 C2488 1.370 . S
C2489 C2493 1.408 . S
C2490 C2488 1.363 . S
C2490 C2491 1.370 . S
C2490 C2494 1.524 . S
C2491 C2483 1.503 . S
C2491 C2490 1.370 . S
C2491 C2492 1.403 . S
C2492 C2491 1.403 . S
C2492 C2493 1.404 . S
C2492 C2495 1.539 . S
C2493 C2489 1.408 . S
C2493 C2492 1.404 . S
C2493 H2505 0.930 . S
C2494 C2490 1.524 . S
C2494 H2506 0.956 . S
C2494 H2507 0.961 . S
C2494 H2508 0.961 . S
C2495 C2492 1.539 . S
C2495 H2509 0.958 . S
C2495 H2510 0.961 . S
C2495 H2511 0.960 . S
H2496 C2480 0.931 . S
H2497 C2485 0.929 . S
H2498 C2486 0.960 . S
H2499 C2486 0.962 . S
H2500 C2486 0.960 . S
H2501 C2487 0.961 . S
H2502 C2487 0.961 . S
H2503 C2487 0.961 . S
H2504 C2488 0.931 . S
H2505 C2493 0.930 . S
H2506 C2494 0.956 . S
H2507 C2494 0.961 . S
H2508 C2494 0.961 . S
H2509 C2495 0.958 . S
H2510 C2495 0.961 . S
H2511 C2495 0.960 . S
C2512 C2513 1.391 . S
C2512 C2514 1.394 . S
C2512 H2528 0.931 . S
C2513 C2512 1.391 . S
C2513 C2517 1.376 . S
C2514 C2512 1.394 . S
C2514 C2515 1.369 . S
C2514 C2518 1.531 . S
C2515 C2514 1.369 . S
C2515 C2516 1.410 . S
C2515 C2523 1.503 . S
C2516 C2515 1.410 . S
C2516 C2517 1.392 . S
C2516 C2519 1.511 . S
C2517 C2513 1.376 . S
C2517 C2516 1.392 . S
C2517 H2529 0.929 . S
C2518 C2514 1.531 . S
C2518 H2530 0.960 . S
C2518 H2531 0.962 . S
C2518 H2532 0.960 . S
C2519 C2516 1.511 . S
C2519 H2533 0.961 . S
C2519 H2534 0.961 . S
C2519 H2535 0.961 . S
C2520 C2521 1.370 . S
C2520 C2522 1.363 . S
C2520 H2536 0.931 . S
C2521 C2520 1.370 . S
C2521 C2525 1.408 . S
C2522 C2520 1.363 . S
C2522 C2523 1.370 . S
C2522 C2526 1.524 . S
C2523 C2515 1.503 . S
C2523 C2522 1.370 . S
C2523 C2524 1.403 . S
C2524 C2523 1.403 . S
C2524 C2525 1.404 . S
C2524 C2527 1.539 . S
C2525 C2521 1.408 . S
C2525 C2524 1.404 . S
C2525 H2537 0.930 . S
C2526 C2522 1.524 . S
C2526 H2538 0.956 . S
C2526 H2539 0.961 . S
C2526 H2540 0.961 . S
C2527 C2524 1.539 . S
C2527 H2541 0.958 . S
C2527 H2542 0.961 . S
C2527 H2543 0.960 . S
H2528 C2512 0.931 . S
H2529 C2517 0.929 . S
H2530 C2518 0.960 . S
H2531 C2518 0.962 . S
H2532 C2518 0.960 . S
H2533 C2519 0.961 . S
H2534 C2519 0.961 . S
H2535 C2519 0.961 . S
H2536 C2520 0.931 . S
H2537 C2525 0.930 . S
H2538 C2526 0.956 . S
H2539 C2526 0.961 . S
H2540 C2526 0.961 . S
H2541 C2527 0.958 . S
H2542 C2527 0.961 . S
H2543 C2527 0.960 . S
C2544 C2545 1.391 . S
C2544 C2546 1.394 . S
C2544 H2560 0.931 . S
C2545 C2544 1.391 . S
C2545 C2549 1.376 . S
C2546 C2544 1.394 . S
C2546 C2547 1.369 . S
C2546 C2550 1.531 . S
C2547 C2546 1.369 . S
C2547 C2548 1.410 . S
C2547 C2555 1.503 . S
C2548 C2547 1.410 . S
C2548 C2549 1.392 . S
C2548 C2551 1.511 . S
C2549 C2545 1.376 . S
C2549 C2548 1.392 . S
C2549 H2561 0.929 . S
C2550 C2546 1.531 . S
C2550 H2562 0.960 . S
C2550 H2563 0.962 . S
C2550 H2564 0.960 . S
C2551 C2548 1.511 . S
C2551 H2565 0.961 . S
C2551 H2566 0.961 . S
C2551 H2567 0.961 . S
C2552 C2553 1.370 . S
C2552 C2554 1.363 . S
C2552 H2568 0.931 . S
C2553 C2552 1.370 . S
C2553 C2557 1.408 . S
C2554 C2552 1.363 . S
C2554 C2555 1.370 . S
C2554 C2558 1.524 . S
C2555 C2547 1.503 . S
C2555 C2554 1.370 . S
C2555 C2556 1.403 . S
C2556 C2555 1.403 . S
C2556 C2557 1.404 . S
C2556 C2559 1.539 . S
C2557 C2553 1.408 . S
C2557 C2556 1.404 . S
C2557 H2569 0.930 . S
C2558 C2554 1.524 . S
C2558 H2570 0.956 . S
C2558 H2571 0.961 . S
C2558 H2572 0.961 . S
C2559 C2556 1.539 . S
C2559 H2573 0.958 . S
C2559 H2574 0.961 . S
C2559 H2575 0.960 . S
H2560 C2544 0.931 . S
H2561 C2549 0.929 . S
H2562 C2550 0.960 . S
H2563 C2550 0.962 . S
H2564 C2550 0.960 . S
H2565 C2551 0.961 . S
H2566 C2551 0.961 . S
H2567 C2551 0.961 . S
H2568 C2552 0.931 . S
H2569 C2557 0.930 . S
H2570 C2558 0.956 . S
H2571 C2558 0.961 . S
H2572 C2558 0.961 . S
H2573 C2559 0.958 . S
H2574 C2559 0.961 . S
H2575 C2559 0.960 . S
C2576 C2577 1.391 . S
C2576 C2578 1.394 . S
C2576 H2592 0.931 . S
C2577 C2576 1.391 . S
C2577 C2581 1.376 . S
C2578 C2576 1.394 . S
C2578 C2579 1.369 . S
C2578 C2582 1.531 . S
C2579 C2578 1.369 . S
C2579 C2580 1.410 . S
C2579 C2587 1.503 . S
C2580 C2579 1.410 . S
C2580 C2581 1.392 . S
C2580 C2583 1.511 . S
C2581 C2577 1.376 . S
C2581 C2580 1.392 . S
C2581 H2593 0.929 . S
C2582 C2578 1.531 . S
C2582 H2594 0.960 . S
C2582 H2595 0.962 . S
C2582 H2596 0.960 . S
C2583 C2580 1.511 . S
C2583 H2597 0.961 . S
C2583 H2598 0.961 . S
C2583 H2599 0.961 . S
C2584 C2585 1.370 . S
C2584 C2586 1.363 . S
C2584 H2600 0.931 . S
C2585 C2584 1.370 . S
C2585 C2589 1.408 . S
C2586 C2584 1.363 . S
C2586 C2587 1.370 . S
C2586 C2590 1.524 . S
C2587 C2579 1.503 . S
C2587 C2586 1.370 . S
C2587 C2588 1.403 . S
C2588 C2587 1.403 . S
C2588 C2589 1.404 . S
C2588 C2591 1.539 . S
C2589 C2585 1.408 . S
C2589 C2588 1.404 . S
C2589 H2601 0.930 . S
C2590 C2586 1.524 . S
C2590 H2602 0.956 . S
C2590 H2603 0.961 . S
C2590 H2604 0.961 . S
C2591 C2588 1.539 . S
C2591 H2605 0.958 . S
C2591 H2606 0.961 . S
C2591 H2607 0.960 . S
H2592 C2576 0.931 . S
H2593 C2581 0.929 . S
H2594 C2582 0.960 . S
H2595 C2582 0.962 . S
H2596 C2582 0.960 . S
H2597 C2583 0.961 . S
H2598 C2583 0.961 . S
H2599 C2583 0.961 . S
H2600 C2584 0.931 . S
H2601 C2589 0.930 . S
H2602 C2590 0.956 . S
H2603 C2590 0.961 . S
H2604 C2590 0.961 . S
H2605 C2591 0.958 . S
H2606 C2591 0.961 . S
H2607 C2591 0.960 . S
C2608 C2609 1.391 . S
C2608 C2610 1.394 . S
C2608 H2624 0.931 . S
C2609 C2608 1.391 . S
C2609 C2613 1.376 . S
C2610 C2608 1.394 . S
C2610 C2611 1.369 . S
C2610 C2614 1.531 . S
C2611 C2610 1.369 . S
C2611 C2612 1.410 . S
C2611 C2619 1.503 . S
C2612 C2611 1.410 . S
C2612 C2613 1.392 . S
C2612 C2615 1.511 . S
C2613 C2609 1.376 . S
C2613 C2612 1.392 . S
C2613 H2625 0.929 . S
C2614 C2610 1.531 . S
C2614 H2626 0.960 . S
C2614 H2627 0.962 . S
C2614 H2628 0.960 . S
C2615 C2612 1.511 . S
C2615 H2629 0.961 . S
C2615 H2630 0.961 . S
C2615 H2631 0.961 . S
C2616 C2617 1.370 . S
C2616 C2618 1.363 . S
C2616 H2632 0.931 . S
C2617 C2616 1.370 . S
C2617 C2621 1.408 . S
C2618 C2616 1.363 . S
C2618 C2619 1.370 . S
C2618 C2622 1.524 . S
C2619 C2611 1.503 . S
C2619 C2618 1.370 . S
C2619 C2620 1.403 . S
C2620 C2619 1.403 . S
C2620 C2621 1.404 . S
C2620 C2623 1.539 . S
C2621 C2617 1.408 . S
C2621 C2620 1.404 . S
C2621 H2633 0.930 . S
C2622 C2618 1.524 . S
C2622 H2634 0.956 . S
C2622 H2635 0.961 . S
C2622 H2636 0.961 . S
C2623 C2620 1.539 . S
C2623 H2637 0.958 . S
C2623 H2638 0.961 . S
C2623 H2639 0.960 . S
H2624 C2608 0.931 . S
H2625 C2613 0.929 . S
H2626 C2614 0.960 . S
H2627 C2614 0.962 . S
H2628 C2614 0.960 . S
H2629 C2615 0.961 . S
H2630 C2615 0.961 . S
H2631 C2615 0.961 . S
H2632 C2616 0.931 . S
H2633 C2621 0.930 . S
H2634 C2622 0.956 . S
H2635 C2622 0.961 . S
H2636 C2622 0.961 . S
H2637 C2623 0.958 . S
H2638 C2623 0.961 . S
H2639 C2623 0.960 . S
C2640 C2641 1.391 . S
C2640 C2642 1.394 . S
C2640 H2656 0.931 . S
C2641 C2640 1.391 . S
C2641 C2645 1.376 . S
C2642 C2640 1.394 . S
C2642 C2643 1.369 . S
C2642 C2646 1.531 . S
C2643 C2642 1.369 . S
C2643 C2644 1.410 . S
C2643 C2651 1.503 . S
C2644 C2643 1.410 . S
C2644 C2645 1.392 . S
C2644 C2647 1.511 . S
C2645 C2641 1.376 . S
C2645 C2644 1.392 . S
C2645 H2657 0.929 . S
C2646 C2642 1.531 . S
C2646 H2658 0.960 . S
C2646 H2659 0.962 . S
C2646 H2660 0.960 . S
C2647 C2644 1.511 . S
C2647 H2661 0.961 . S
C2647 H2662 0.961 . S
C2647 H2663 0.961 . S
C2648 C2649 1.370 . S
C2648 C2650 1.363 . S
C2648 H2664 0.931 . S
C2649 C2648 1.370 . S
C2649 C2653 1.427 . S
C2650 C2648 1.363 . S
C2650 C2651 1.370 . S
C2650 C2654 1.524 . S
C2651 C2643 1.503 . S
C2651 C2650 1.370 . S
C2651 C2652 1.403 . S
C2652 C2651 1.403 . S
C2652 C2653 1.414 . S
C2652 C2655 1.539 1_556 S
C2653 C2649 1.427 . S
C2653 C2652 1.414 . S
C2653 H2665 0.902 1_556 S
C2654 C2650 1.524 . S
C2654 H2666 0.956 . S
C2654 H2667 0.961 . S
C2654 H2668 0.961 . S
C2655 C2652 1.539 1_554 S
C2655 H2669 0.958 . S
C2655 H2670 0.961 . S
C2655 H2671 0.960 1_554 S
H2656 C2640 0.931 . S
H2657 C2645 0.929 . S
H2658 C2646 0.960 . S
H2659 C2646 0.962 . S
H2660 C2646 0.960 . S
H2661 C2647 0.961 . S
H2662 C2647 0.961 . S
H2663 C2647 0.961 . S
H2664 C2648 0.931 . S
H2665 C2653 0.902 1_554 S
H2666 C2654 0.956 . S
H2667 C2654 0.961 . S
H2668 C2654 0.961 . S
H2669 C2655 0.958 . S
H2670 C2655 0.961 . S
H2671 C2655 0.960 1_556 S
C2672 C2673 1.391 . S
C2672 C2674 1.394 . S
C2672 H2688 0.931 . S
C2673 C2672 1.391 . S
C2673 C2677 1.376 . S
C2674 C2672 1.394 . S
C2674 C2675 1.369 . S
C2674 C2678 1.531 . S
C2675 C2674 1.369 . S
C2675 C2676 1.410 . S
C2675 C2683 1.503 . S
C2676 C2675 1.410 . S
C2676 C2677 1.392 . S
C2676 C2679 1.511 . S
C2677 C2673 1.376 . S
C2677 C2676 1.392 . S
C2677 H2689 0.929 . S
C2678 C2674 1.531 . S
C2678 H2690 0.960 . S
C2678 H2691 0.962 . S
C2678 H2692 0.960 . S
C2679 C2676 1.511 . S
C2679 H2693 0.961 . S
C2679 H2694 0.961 . S
C2679 H2695 0.961 . S
C2680 C2681 1.370 . S
C2680 C2682 1.363 . S
C2680 H2696 0.931 . S
C2681 C2680 1.370 . S
C2681 C2685 1.408 . S
C2682 C2680 1.363 . S
C2682 C2683 1.370 . S
C2682 C2686 1.524 . S
C2683 C2675 1.503 . S
C2683 C2682 1.370 . S
C2683 C2684 1.403 . S
C2684 C2683 1.403 . S
C2684 C2685 1.404 . S
C2684 C2687 1.539 . S
C2685 C2681 1.408 . S
C2685 C2684 1.404 . S
C2685 H2697 0.930 . S
C2686 C2682 1.524 . S
C2686 H2698 0.956 . S
C2686 H2699 0.961 . S
C2686 H2700 0.961 . S
C2687 C2684 1.539 . S
C2687 H2701 0.958 . S
C2687 H2702 0.961 . S
C2687 H2703 0.960 . S
H2688 C2672 0.931 . S
H2689 C2677 0.929 . S
H2690 C2678 0.960 . S
H2691 C2678 0.962 . S
H2692 C2678 0.960 . S
H2693 C2679 0.961 . S
H2694 C2679 0.961 . S
H2695 C2679 0.961 . S
H2696 C2680 0.931 . S
H2697 C2685 0.930 . S
H2698 C2686 0.956 . S
H2699 C2686 0.961 . S
H2700 C2686 0.961 . S
H2701 C2687 0.958 . S
H2702 C2687 0.961 . S
H2703 C2687 0.960 . S
C2704 C2705 1.391 1_565 S
C2704 C2706 1.394 . S
C2704 H2720 0.931 . S
C2705 C2704 1.391 1_545 S
C2705 C2709 1.376 . S
C2706 C2704 1.394 . S
C2706 C2707 1.369 1_565 S
C2706 C2710 1.531 . S
C2707 C2706 1.369 1_545 S
C2707 C2708 1.410 . S
C2707 C2715 1.503 . S
C2708 C2707 1.410 . S
C2708 C2709 1.392 . S
C2708 C2711 1.511 . S
C2709 C2705 1.376 . S
C2709 C2708 1.392 . S
C2709 H2721 0.929 . S
C2710 C2706 1.531 . S
C2710 H2722 0.960 . S
C2710 H2723 0.962 . S
C2710 H2724 0.960 . S
C2711 C2708 1.511 . S
C2711 H2725 0.961 . S
C2711 H2726 0.961 . S
C2711 H2727 0.961 . S
C2712 C2713 1.370 . S
C2712 C2714 1.363 . S
C2712 H2728 0.931 . S
C2713 C2712 1.370 . S
C2713 C2717 1.408 1_545 S
C2714 C2712 1.363 . S
C2714 C2715 1.370 . S
C2714 C2718 1.524 . S
C2715 C2707 1.503 . S
C2715 C2714 1.370 . S
C2715 C2716 1.403 1_545 S
C2716 C2715 1.403 1_565 S
C2716 C2717 1.404 . S
C2716 C2719 1.539 . S
C2717 C2713 1.408 1_565 S
C2717 C2716 1.404 . S
C2717 H2729 0.930 . S
C2718 C2714 1.524 . S
C2718 H2730 0.956 . S
C2718 H2731 0.961 . S
C2718 H2732 0.961 . S
C2719 C2716 1.539 . S
C2719 H2733 0.958 . S
C2719 H2734 0.961 . S
C2719 H2735 0.960 . S
H2720 C2704 0.931 . S
H2721 C2709 0.929 . S
H2722 C2710 0.960 . S
H2723 C2710 0.962 . S
H2724 C2710 0.960 . S
H2725 C2711 0.961 . S
H2726 C2711 0.961 . S
H2727 C2711 0.961 . S
H2728 C2712 0.931 . S
H2729 C2717 0.930 . S
H2730 C2718 0.956 . S
H2731 C2718 0.961 . S
H2732 C2718 0.961 . S
H2733 C2719 0.958 . S
H2734 C2719 0.961 . S
H2735 C2719 0.960 . S
C2736 C2737 1.391 . S
C2736 C2738 1.394 . S
C2736 H2752 0.931 . S
C2737 C2736 1.391 . S
C2737 C2741 1.376 . S
C2738 C2736 1.394 . S
C2738 C2739 1.369 . S
C2738 C2742 1.531 . S
C2739 C2738 1.369 . S
C2739 C2740 1.410 . S
C2739 C2747 1.503 . S
C2740 C2739 1.410 . S
C2740 C2741 1.392 . S
C2740 C2743 1.511 . S
C2741 C2737 1.376 . S
C2741 C2740 1.392 . S
C2741 H2753 0.929 . S
C2742 C2738 1.531 . S
C2742 H2754 0.960 . S
C2742 H2755 0.962 . S
C2742 H2756 0.960 . S
C2743 C2740 1.511 . S
C2743 H2757 0.961 . S
C2743 H2758 0.961 . S
C2743 H2759 0.961 . S
C2744 C2745 1.370 . S
C2744 C2746 1.363 . S
C2744 H2760 0.931 . S
C2745 C2744 1.370 . S
C2745 C2749 1.408 . S
C2746 C2744 1.363 . S
C2746 C2747 1.370 . S
C2746 C2750 1.524 . S
C2747 C2739 1.503 . S
C2747 C2746 1.370 . S
C2747 C2748 1.403 . S
C2748 C2747 1.403 . S
C2748 C2749 1.404 . S
C2748 C2751 1.539 . S
C2749 C2745 1.408 . S
C2749 C2748 1.404 . S
C2749 H2761 0.930 . S
C2750 C2746 1.524 . S
C2750 H2762 0.956 . S
C2750 H2763 0.961 . S
C2750 H2764 0.961 . S
C2751 C2748 1.539 . S
C2751 H2765 0.958 . S
C2751 H2766 0.961 . S
C2751 H2767 0.960 . S
H2752 C2736 0.931 . S
H2753 C2741 0.929 . S
H2754 C2742 0.960 . S
H2755 C2742 0.962 . S
H2756 C2742 0.960 . S
H2757 C2743 0.961 . S
H2758 C2743 0.961 . S
H2759 C2743 0.961 . S
H2760 C2744 0.931 . S
H2761 C2749 0.930 . S
H2762 C2750 0.956 . S
H2763 C2750 0.961 . S
H2764 C2750 0.961 . S
H2765 C2751 0.958 . S
H2766 C2751 0.961 . S
H2767 C2751 0.960 . S
C2768 C2769 1.391 . S
C2768 C2770 1.394 . S
C2768 H2784 0.931 . S
C2769 C2768 1.391 . S
C2769 C2773 1.376 . S
C2770 C2768 1.394 . S
C2770 C2771 1.369 . S
C2770 C2774 1.531 . S
C2771 C2770 1.369 . S
C2771 C2772 1.410 . S
C2771 C2779 1.503 . S
C2772 C2771 1.410 . S
C2772 C2773 1.392 . S
C2772 C2775 1.511 . S
C2773 C2769 1.376 . S
C2773 C2772 1.392 . S
C2773 H2785 0.929 . S
C2774 C2770 1.531 . S
C2774 H2786 0.960 . S
C2774 H2787 0.962 . S
C2774 H2788 0.960 . S
C2775 C2772 1.511 . S
C2775 H2789 0.961 . S
C2775 H2790 0.961 . S
C2775 H2791 0.961 . S
C2776 C2777 1.370 . S
C2776 C2778 1.363 . S
C2776 H2792 0.931 . S
C2777 C2776 1.370 . S
C2777 C2781 1.408 . S
C2778 C2776 1.363 . S
C2778 C2779 1.370 . S
C2778 C2782 1.524 1_545 S
C2779 C2771 1.503 . S
C2779 C2778 1.370 . S
C2779 C2780 1.403 . S
C2780 C2779 1.403 . S
C2780 C2781 1.404 . S
C2780 C2783 1.539 . S
C2781 C2777 1.408 . S
C2781 C2780 1.404 . S
C2781 H2793 0.930 . S
C2782 C2778 1.524 1_565 S
C2782 H2794 0.956 . S
C2782 H2795 0.961 . S
C2782 H2796 0.961 . S
C2783 C2780 1.539 . S
C2783 H2797 0.958 . S
C2783 H2798 0.961 . S
C2783 H2799 0.960 . S
H2784 C2768 0.931 . S
H2785 C2773 0.929 . S
H2786 C2774 0.960 . S
H2787 C2774 0.962 . S
H2788 C2774 0.960 . S
H2789 C2775 0.961 . S
H2790 C2775 0.961 . S
H2791 C2775 0.961 . S
H2792 C2776 0.931 . S
H2793 C2781 0.930 . S
H2794 C2782 0.956 . S
H2795 C2782 0.961 . S
H2796 C2782 0.961 . S
H2797 C2783 0.958 . S
H2798 C2783 0.961 . S
H2799 C2783 0.960 . S
C2800 C2801 1.391 . S
C2800 C2802 1.394 . S
C2800 H2816 0.931 . S
C2801 C2800 1.391 . S
C2801 C2805 1.376 . S
C2802 C2800 1.394 . S
C2802 C2803 1.369 . S
C2802 C2806 1.531 . S
C2803 C2802 1.369 . S
C2803 C2804 1.410 . S
C2803 C2811 1.503 . S
C2804 C2803 1.410 . S
C2804 C2805 1.392 . S
C2804 C2807 1.511 . S
C2805 C2801 1.376 . S
C2805 C2804 1.392 . S
C2805 H2817 0.929 . S
C2806 C2802 1.531 . S
C2806 H2818 0.960 . S
C2806 H2819 0.962 . S
C2806 H2820 0.960 . S
C2807 C2804 1.511 . S
C2807 H2821 0.961 . S
C2807 H2822 0.961 . S
C2807 H2823 0.961 . S
C2808 C2809 1.370 . S
C2808 C2810 1.363 . S
C2808 H2824 0.931 . S
C2809 C2808 1.370 . S
C2809 C2813 1.408 . S
C2810 C2808 1.363 . S
C2810 C2811 1.370 . S
C2810 C2814 1.524 . S
C2811 C2803 1.503 . S
C2811 C2810 1.370 . S
C2811 C2812 1.403 . S
C2812 C2811 1.403 . S
C2812 C2813 1.404 . S
C2812 C2815 1.539 . S
C2813 C2809 1.408 . S
C2813 C2812 1.404 . S
C2813 H2825 0.930 . S
C2814 C2810 1.524 . S
C2814 H2826 0.956 . S
C2814 H2827 0.961 . S
C2814 H2828 0.961 . S
C2815 C2812 1.539 . S
C2815 H2829 0.958 . S
C2815 H2830 0.961 . S
C2815 H2831 0.960 . S
H2816 C2800 0.931 . S
H2817 C2805 0.929 . S
H2818 C2806 0.960 . S
H2819 C2806 0.962 . S
H2820 C2806 0.960 . S
H2821 C2807 0.961 . S
H2822 C2807 0.961 . S
H2823 C2807 0.961 . S
H2824 C2808 0.931 . S
H2825 C2813 0.930 . S
H2826 C2814 0.956 . S
H2827 C2814 0.961 . S
H2828 C2814 0.961 . S
H2829 C2815 0.958 . S
H2830 C2815 0.961 . S
H2831 C2815 0.960 . S
C2832 C2833 1.391 . S
C2832 C2834 1.394 . S
C2832 H2848 0.931 . S
C2833 C2832 1.391 . S
C2833 C2837 1.376 1_565 S
C2834 C2832 1.394 . S
C2834 C2835 1.369 1_565 S
C2834 C2838 1.531 . S
C2835 C2834 1.369 1_545 S
C2835 C2836 1.410 . S
C2835 C2843 1.503 . S
C2836 C2835 1.410 . S
C2836 C2837 1.392 . S
C2836 C2839 1.511 . S
C2837 C2833 1.376 1_545 S
C2837 C2836 1.392 . S
C2837 H2849 0.929 . S
C2838 C2834 1.531 . S
C2838 H2850 0.960 . S
C2838 H2851 0.962 . S
C2838 H2852 0.960 . S
C2839 C2836 1.511 . S
C2839 H2853 0.961 . S
C2839 H2854 0.961 . S
C2839 H2855 0.961 . S
C2840 C2841 1.370 . S
C2840 C2842 1.363 . S
C2840 H2856 0.931 . S
C2841 C2840 1.370 . S
C2841 C2845 1.408 . S
C2842 C2840 1.363 . S
C2842 C2843 1.370 . S
C2842 C2846 1.524 . S
C2843 C2835 1.503 . S
C2843 C2842 1.370 . S
C2843 C2844 1.403 . S
C2844 C2843 1.403 . S
C2844 C2845 1.404 . S
C2844 C2847 1.539 . S
C2845 C2841 1.408 . S
C2845 C2844 1.404 . S
C2845 H2857 0.930 . S
C2846 C2842 1.524 . S
C2846 H2858 0.956 . S
C2846 H2859 0.961 . S
C2846 H2860 0.961 . S
C2847 C2844 1.539 . S
C2847 H2861 0.958 1_545 S
C2847 H2862 0.961 . S
C2847 H2863 0.960 . S
H2848 C2832 0.931 . S
H2849 C2837 0.929 . S
H2850 C2838 0.960 . S
H2851 C2838 0.962 . S
H2852 C2838 0.960 . S
H2853 C2839 0.961 . S
H2854 C2839 0.961 . S
H2855 C2839 0.961 . S
H2856 C2840 0.931 . S
H2857 C2845 0.930 . S
H2858 C2846 0.956 . S
H2859 C2846 0.961 . S
H2860 C2846 0.961 . S
H2861 C2847 0.958 1_565 S
H2862 C2847 0.961 . S
H2863 C2847 0.960 . S
C2864 C2865 1.391 . S
C2864 C2866 1.394 . S
C2864 H2880 0.931 . S
C2865 C2864 1.391 . S
C2865 C2869 1.376 . S
C2866 C2864 1.394 . S
C2866 C2867 1.369 . S
C2866 C2870 1.531 . S
C2867 C2866 1.369 . S
C2867 C2868 1.410 . S
C2867 C2875 1.503 . S
C2868 C2867 1.410 . S
C2868 C2869 1.392 . S
C2868 C2871 1.511 . S
C2869 C2865 1.376 . S
C2869 C2868 1.392 . S
C2869 H2881 0.929 . S
C2870 C2866 1.531 . S
C2870 H2882 0.960 . S
C2870 H2883 0.962 . S
C2870 H2884 0.960 . S
C2871 C2868 1.511 . S
C2871 H2885 0.961 . S
C2871 H2886 0.961 . S
C2871 H2887 0.961 . S
C2872 C2873 1.370 . S
C2872 C2874 1.363 . S
C2872 H2888 0.931 . S
C2873 C2872 1.370 . S
C2873 C2877 1.408 . S
C2874 C2872 1.363 . S
C2874 C2875 1.370 . S
C2874 C2878 1.524 . S
C2875 C2867 1.503 . S
C2875 C2874 1.370 . S
C2875 C2876 1.403 . S
C2876 C2875 1.403 . S
C2876 C2877 1.404 . S
C2876 C2879 1.539 . S
C2877 C2873 1.408 . S
C2877 C2876 1.404 . S
C2877 H2889 0.930 . S
C2878 C2874 1.524 . S
C2878 H2890 0.956 . S
C2878 H2891 0.961 . S
C2878 H2892 0.961 . S
C2879 C2876 1.539 . S
C2879 H2893 0.958 . S
C2879 H2894 0.961 . S
C2879 H2895 0.960 . S
H2880 C2864 0.931 . S
H2881 C2869 0.929 . S
H2882 C2870 0.960 . S
H2883 C2870 0.962 . S
H2884 C2870 0.960 . S
H2885 C2871 0.961 . S
H2886 C2871 0.961 . S
H2887 C2871 0.961 . S
H2888 C2872 0.931 . S
H2889 C2877 0.930 . S
H2890 C2878 0.956 . S
H2891 C2878 0.961 . S
H2892 C2878 0.961 . S
H2893 C2879 0.958 . S
H2894 C2879 0.961 . S
H2895 C2879 0.960 . S
C2896 C2897 1.391 . S
C2896 C2898 1.394 . S
C2896 H2912 0.931 . S
C2897 C2896 1.391 . S
C2897 C2901 1.376 . S
C2898 C2896 1.394 . S
C2898 C2899 1.369 . S
C2898 C2902 1.531 . S
C2899 C2898 1.369 . S
C2899 C2900 1.410 . S
C2899 C2907 1.503 . S
C2900 C2899 1.410 . S
C2900 C2901 1.392 . S
C2900 C2903 1.511 . S
C2901 C2897 1.376 . S
C2901 C2900 1.392 . S
C2901 H2913 0.929 . S
C2902 C2898 1.531 . S
C2902 H2914 0.960 1_545 S
C2902 H2915 0.962 . S
C2902 H2916 0.960 1_545 S
C2903 C2900 1.511 . S
C2903 H2917 0.961 . S
C2903 H2918 0.961 . S
C2903 H2919 0.961 . S
C2904 C2905 1.370 . S
C2904 C2906 1.363 . S
C2904 H2920 0.931 . S
C2905 C2904 1.370 . S
C2905 C2909 1.417 . S
C2906 C2904 1.363 . S
C2906 C2907 1.370 . S
C2906 C2910 1.524 . S
C2907 C2899 1.503 . S
C2907 C2906 1.370 . S
C2907 C2908 1.403 1_545 S
C2908 C2907 1.403 1_565 S
C2908 C2909 1.402 1_565 S
C2908 C2911 1.539 . S
C2909 C2905 1.417 . S
C2909 C2908 1.402 1_545 S
C2909 H2921 0.923 1_545 S
C2910 C2906 1.524 . S
C2910 H2922 0.956 . S
C2910 H2923 0.961 . S
C2910 H2924 0.961 . S
C2911 C2908 1.539 . S
C2911 H2925 0.958 . S
C2911 H2926 0.961 . S
C2911 H2927 0.960 . S
H2912 C2896 0.931 . S
H2913 C2901 0.929 . S
H2914 C2902 0.960 1_565 S
H2915 C2902 0.962 . S
H2916 C2902 0.960 1_565 S
H2917 C2903 0.961 . S
H2918 C2903 0.961 . S
H2919 C2903 0.961 . S
H2920 C2904 0.931 . S
H2921 C2909 0.923 1_565 S
H2922 C2910 0.956 . S
H2923 C2910 0.961 . S
H2924 C2910 0.961 . S
H2925 C2911 0.958 . S
H2926 C2911 0.961 . S
H2927 C2911 0.960 . S
C2928 C2929 1.391 . S
C2928 C2930 1.394 . S
C2928 H2944 0.931 . S
C2929 C2928 1.391 . S
C2929 C2933 1.376 . S
C2930 C2928 1.394 . S
C2930 C2931 1.369 . S
C2930 C2934 1.531 . S
C2931 C2930 1.369 . S
C2931 C2932 1.410 . S
C2931 C2939 1.503 . S
C2932 C2931 1.410 . S
C2932 C2933 1.392 . S
C2932 C2935 1.511 . S
C2933 C2929 1.376 . S
C2933 C2932 1.392 . S
C2933 H2945 0.929 . S
C2934 C2930 1.531 . S
C2934 H2946 0.960 . S
C2934 H2947 0.962 . S
C2934 H2948 0.960 . S
C2935 C2932 1.511 . S
C2935 H2949 0.961 . S
C2935 H2950 0.961 . S
C2935 H2951 0.961 . S
C2936 C2937 1.370 . S
C2936 C2938 1.363 . S
C2936 H2952 0.931 . S
C2937 C2936 1.370 . S
C2937 C2941 1.408 . S
C2938 C2936 1.363 . S
C2938 C2939 1.370 . S
C2938 C2942 1.524 . S
C2939 C2931 1.503 . S
C2939 C2938 1.370 . S
C2939 C2940 1.403 . S
C2940 C2939 1.403 . S
C2940 C2941 1.404 . S
C2940 C2943 1.539 . S
C2941 C2937 1.408 . S
C2941 C2940 1.404 . S
C2941 H2953 0.930 . S
C2942 C2938 1.524 . S
C2942 H2954 0.956 . S
C2942 H2955 0.961 . S
C2942 H2956 0.961 . S
C2943 C2940 1.539 . S
C2943 H2957 0.958 . S
C2943 H2958 0.961 . S
C2943 H2959 0.960 . S
H2944 C2928 0.931 . S
H2945 C2933 0.929 . S
H2946 C2934 0.960 . S
H2947 C2934 0.962 . S
H2948 C2934 0.960 . S
H2949 C2935 0.961 . S
H2950 C2935 0.961 . S
H2951 C2935 0.961 . S
H2952 C2936 0.931 . S
H2953 C2941 0.930 . S
H2954 C2942 0.956 . S
H2955 C2942 0.961 . S
H2956 C2942 0.961 . S
H2957 C2943 0.958 . S
H2958 C2943 0.961 . S
H2959 C2943 0.960 . S
C2960 C2961 1.391 . S
C2960 C2962 1.394 . S
C2960 H2976 0.931 1_554 S
C2961 C2960 1.391 . S
C2961 C2965 1.376 . S
C2962 C2960 1.394 . S
C2962 C2963 1.369 . S
C2962 C2966 1.531 1_554 S
C2963 C2962 1.369 . S
C2963 C2964 1.410 . S
C2963 C2971 1.503 . S
C2964 C2963 1.410 . S
C2964 C2965 1.392 . S
C2964 C2967 1.511 . S
C2965 C2961 1.376 . S
C2965 C2964 1.392 . S
C2965 H2977 0.929 . S
C2966 C2962 1.531 1_556 S
C2966 H2978 0.960 . S
C2966 H2979 0.962 . S
C2966 H2980 0.960 . S
C2967 C2964 1.511 . S
C2967 H2981 0.961 . S
C2967 H2982 0.961 . S
C2967 H2983 0.961 . S
C2968 C2969 1.370 . S
C2968 C2970 1.363 . S
C2968 H2984 0.931 . S
C2969 C2968 1.370 . S
C2969 C2973 1.408 . S
C2970 C2968 1.363 . S
C2970 C2971 1.370 . S
C2970 C2974 1.524 . S
C2971 C2963 1.503 . S
C2971 C2970 1.370 . S
C2971 C2972 1.403 . S
C2972 C2971 1.403 . S
C2972 C2973 1.404 . S
C2972 C2975 1.539 . S
C2973 C2969 1.408 . S
C2973 C2972 1.404 . S
C2973 H2985 0.930 . S
C2974 C2970 1.524 . S
C2974 H2986 0.956 . S
C2974 H2987 0.961 . S
C2974 H2988 0.961 . S
C2975 C2972 1.539 . S
C2975 H2989 0.958 . S
C2975 H2990 0.961 . S
C2975 H2991 0.960 . S
H2976 C2960 0.931 1_556 S
H2977 C2965 0.929 . S
H2978 C2966 0.960 . S
H2979 C2966 0.962 . S
H2980 C2966 0.960 . S
H2981 C2967 0.961 . S
H2982 C2967 0.961 . S
H2983 C2967 0.961 . S
H2984 C2968 0.931 . S
H2985 C2973 0.930 . S
H2986 C2974 0.956 . S
H2987 C2974 0.961 . S
H2988 C2974 0.961 . S
H2989 C2975 0.958 . S
H2990 C2975 0.961 . S
H2991 C2975 0.960 . S
C2992 C2993 1.391 . S
C2992 C2994 1.394 . S
C2992 H3008 0.931 . S
C2993 C2992 1.391 . S
C2993 C2997 1.376 . S
C2994 C2992 1.394 . S
C2994 C2995 1.369 . S
C2994 C2998 1.531 . S
C2995 C2994 1.369 . S
C2995 C2996 1.410 . S
C2995 C3003 1.503 . S
C2996 C2995 1.410 . S
C2996 C2997 1.392 . S
C2996 C2999 1.511 . S
C2997 C2993 1.376 . S
C2997 C2996 1.392 . S
C2997 H3009 0.929 . S
C2998 C2994 1.531 . S
C2998 H3010 0.960 . S
C2998 H3011 0.962 . S
C2998 H3012 0.960 . S
C2999 C2996 1.511 . S
C2999 H3013 0.961 . S
C2999 H3014 0.961 . S
C2999 H3015 0.961 . S
C3000 C3001 1.370 . S
C3000 C3002 1.363 . S
C3000 H3016 0.931 . S
C3001 C3000 1.370 . S
C3001 C3005 1.408 . S
C3002 C3000 1.363 . S
C3002 C3003 1.370 . S
C3002 C3006 1.524 . S
C3003 C2995 1.503 . S
C3003 C3002 1.370 . S
C3003 C3004 1.403 . S
C3004 C3003 1.403 . S
C3004 C3005 1.404 . S
C3004 C3007 1.539 . S
C3005 C3001 1.408 . S
C3005 C3004 1.404 . S
C3005 H3017 0.930 . S
C3006 C3002 1.524 . S
C3006 H3018 0.956 . S
C3006 H3019 0.961 1_554 S
C3006 H3020 0.961 1_554 S
C3007 C3004 1.539 . S
C3007 H3021 0.958 . S
C3007 H3022 0.961 . S
C3007 H3023 0.960 . S
H3008 C2992 0.931 . S
H3009 C2997 0.929 . S
H3010 C2998 0.960 . S
H3011 C2998 0.962 . S
H3012 C2998 0.960 . S
H3013 C2999 0.961 . S
H3014 C2999 0.961 . S
H3015 C2999 0.961 . S
H3016 C3000 0.931 . S
H3017 C3005 0.930 . S
H3018 C3006 0.956 . S
H3019 C3006 0.961 1_556 S
H3020 C3006 0.961 1_556 S
H3021 C3007 0.958 . S
H3022 C3007 0.961 . S
H3023 C3007 0.960 . S
C3024 C3025 1.391 . S
C3024 C3026 1.394 . S
C3024 H3040 0.931 . S
C3025 C3024 1.391 . S
C3025 C3029 1.376 . S
C3026 C3024 1.394 . S
C3026 C3027 1.369 . S
C3026 C3030 1.531 . S
C3027 C3026 1.369 . S
C3027 C3028 1.410 . S
C3027 C3035 1.503 . S
C3028 C3027 1.410 . S
C3028 C3029 1.392 . S
C3028 C3031 1.511 . S
C3029 C3025 1.376 . S
C3029 C3028 1.392 . S
C3029 H3041 0.929 . S
C3030 C3026 1.531 . S
C3030 H3042 0.960 . S
C3030 H3043 0.962 . S
C3030 H3044 0.960 . S
C3031 C3028 1.511 . S
C3031 H3045 0.961 . S
C3031 H3046 0.961 . S
C3031 H3047 0.961 . S
C3032 C3033 1.370 . S
C3032 C3034 1.363 . S
C3032 H3048 0.931 . S
C3033 C3032 1.370 . S
C3033 C3037 1.408 . S
C3034 C3032 1.363 . S
C3034 C3035 1.370 . S
C3034 C3038 1.524 . S
C3035 C3027 1.503 . S
C3035 C3034 1.370 . S
C3035 C3036 1.403 . S
C3036 C3035 1.403 . S
C3036 C3037 1.404 . S
C3036 C3039 1.539 . S
C3037 C3033 1.408 . S
C3037 C3036 1.404 . S
C3037 H3049 0.930 . S
C3038 C3034 1.524 . S
C3038 H3050 0.956 . S
C3038 H3051 0.961 . S
C3038 H3052 0.961 . S
C3039 C3036 1.539 . S
C3039 H3053 0.958 . S
C3039 H3054 0.961 . S
C3039 H3055 0.960 . S
H3040 C3024 0.931 . S
H3041 C3029 0.929 . S
H3042 C3030 0.960 . S
H3043 C3030 0.962 . S
H3044 C3030 0.960 . S
H3045 C3031 0.961 . S
H3046 C3031 0.961 . S
H3047 C3031 0.961 . S
H3048 C3032 0.931 . S
H3049 C3037 0.930 . S
H3050 C3038 0.956 . S
H3051 C3038 0.961 . S
H3052 C3038 0.961 . S
H3053 C3039 0.958 . S
H3054 C3039 0.961 . S
H3055 C3039 0.960 . S
C3056 C3057 1.391 . S
C3056 C3058 1.394 . S
C3056 H3072 0.931 . S
C3057 C3056 1.391 . S
C3057 C3061 1.376 . S
C3058 C3056 1.394 . S
C3058 C3059 1.369 . S
C3058 C3062 1.531 . S
C3059 C3058 1.369 . S
C3059 C3060 1.410 . S
C3059 C3067 1.503 . S
C3060 C3059 1.410 . S
C3060 C3061 1.392 . S
C3060 C3063 1.511 . S
C3061 C3057 1.376 . S
C3061 C3060 1.392 . S
C3061 H3073 0.929 . S
C3062 C3058 1.531 . S
C3062 H3074 0.960 . S
C3062 H3075 0.962 . S
C3062 H3076 0.960 . S
C3063 C3060 1.511 . S
C3063 H3077 0.961 . S
C3063 H3078 0.961 . S
C3063 H3079 0.961 . S
C3064 C3065 1.370 . S
C3064 C3066 1.363 . S
C3064 H3080 0.931 . S
C3065 C3064 1.370 . S
C3065 C3069 1.408 . S
C3066 C3064 1.363 . S
C3066 C3067 1.370 . S
C3066 C3070 1.524 . S
C3067 C3059 1.503 . S
C3067 C3066 1.370 . S
C3067 C3068 1.403 . S
C3068 C3067 1.403 . S
C3068 C3069 1.404 . S
C3068 C3071 1.539 . S
C3069 C3065 1.408 . S
C3069 C3068 1.404 . S
C3069 H3081 0.930 . S
C3070 C3066 1.524 . S
C3070 H3082 0.956 . S
C3070 H3083 0.961 . S
C3070 H3084 0.961 . S
C3071 C3068 1.539 . S
C3071 H3085 0.958 . S
C3071 H3086 0.961 . S
C3071 H3087 0.960 . S
H3072 C3056 0.931 . S
H3073 C3061 0.929 . S
H3074 C3062 0.960 . S
H3075 C3062 0.962 . S
H3076 C3062 0.960 . S
H3077 C3063 0.961 . S
H3078 C3063 0.961 . S
H3079 C3063 0.961 . S
H3080 C3064 0.931 . S
H3081 C3069 0.930 . S
H3082 C3070 0.956 . S
H3083 C3070 0.961 . S
H3084 C3070 0.961 . S
H3085 C3071 0.958 . S
H3086 C3071 0.961 . S
H3087 C3071 0.960 . S
C3088 C3089 1.391 1_545 S
C3088 C3090 1.394 1_545 S
C3088 H3104 0.931 . S
C3089 C3088 1.391 1_565 S
C3089 C3093 1.376 . S
C3090 C3088 1.394 1_565 S
C3090 C3091 1.369 . S
C3090 C3094 1.531 1_565 S
C3091 C3090 1.369 . S
C3091 C3092 1.410 . S
C3091 C3099 1.503 . S
C3092 C3091 1.410 . S
C3092 C3093 1.392 . S
C3092 C3095 1.511 . S
C3093 C3089 1.376 . S
C3093 C3092 1.392 . S
C3093 H3105 0.929 . S
C3094 C3090 1.531 1_545 S
C3094 H3106 0.960 1_545 S
C3094 H3107 0.962 . S
C3094 H3108 0.960 . S
C3095 C3092 1.511 . S
C3095 H3109 0.961 . S
C3095 H3110 0.961 . S
C3095 H3111 0.961 . S
C3096 C3097 1.370 . S
C3096 C3098 1.363 . S
C3096 H3112 0.931 . S
C3097 C3096 1.370 . S
C3097 C3101 1.408 . S
C3098 C3096 1.363 . S
C3098 C3099 1.370 . S
C3098 C3102 1.524 . S
C3099 C3091 1.503 . S
C3099 C3098 1.370 . S
C3099 C3100 1.403 . S
C3100 C3099 1.403 . S
C3100 C3101 1.404 . S
C3100 C3103 1.539 . S
C3101 C3097 1.408 . S
C3101 C3100 1.404 . S
C3101 H3113 0.930 . S
C3102 C3098 1.524 . S
C3102 H3114 0.956 . S
C3102 H3115 0.961 . S
C3102 H3116 0.961 . S
C3103 C3100 1.539 . S
C3103 H3117 0.958 . S
C3103 H3118 0.961 . S
C3103 H3119 0.960 . S
H3104 C3088 0.931 . S
H3105 C3093 0.929 . S
H3106 C3094 0.960 1_565 S
H3107 C3094 0.962 . S
H3108 C3094 0.960 . S
H3109 C3095 0.961 . S
H3110 C3095 0.961 . S
H3111 C3095 0.961 . S
H3112 C3096 0.931 . S
H3113 C3101 0.930 . S
H3114 C3102 0.956 . S
H3115 C3102 0.961 . S
H3116 C3102 0.961 . S
H3117 C3103 0.958 . S
H3118 C3103 0.961 . S
H3119 C3103 0.960 . S
C3120 C3121 1.391 . S
C3120 C3122 1.394 . S
C3120 H3136 0.931 . S
C3121 C3120 1.391 . S
C3121 C3125 1.376 . S
C3122 C3120 1.394 . S
C3122 C3123 1.369 . S
C3122 C3126 1.531 . S
C3123 C3122 1.369 . S
C3123 C3124 1.410 . S
C3123 C3131 1.503 . S
C3124 C3123 1.410 . S
C3124 C3125 1.392 . S
C3124 C3127 1.511 . S
C3125 C3121 1.376 . S
C3125 C3124 1.392 . S
C3125 H3137 0.929 . S
C3126 C3122 1.531 . S
C3126 H3138 0.960 . S
C3126 H3139 0.962 . S
C3126 H3140 0.960 . S
C3127 C3124 1.511 . S
C3127 H3141 0.961 . S
C3127 H3142 0.961 . S
C3127 H3143 0.961 . S
C3128 C3129 1.370 . S
C3128 C3130 1.363 . S
C3128 H3144 0.931 . S
C3129 C3128 1.370 . S
C3129 C3133 1.408 . S
C3130 C3128 1.363 . S
C3130 C3131 1.370 . S
C3130 C3134 1.524 . S
C3131 C3123 1.503 . S
C3131 C3130 1.370 . S
C3131 C3132 1.403 . S
C3132 C3131 1.403 . S
C3132 C3133 1.404 . S
C3132 C3135 1.539 . S
C3133 C3129 1.408 . S
C3133 C3132 1.404 . S
C3133 H3145 0.930 . S
C3134 C3130 1.524 . S
C3134 H3146 0.956 . S
C3134 H3147 0.961 . S
C3134 H3148 0.961 . S
C3135 C3132 1.539 . S
C3135 H3149 0.958 . S
C3135 H3150 0.961 . S
C3135 H3151 0.960 . S
H3136 C3120 0.931 . S
H3137 C3125 0.929 . S
H3138 C3126 0.960 . S
H3139 C3126 0.962 . S
H3140 C3126 0.960 . S
H3141 C3127 0.961 . S
H3142 C3127 0.961 . S
H3143 C3127 0.961 . S
H3144 C3128 0.931 . S
H3145 C3133 0.930 . S
H3146 C3134 0.956 . S
H3147 C3134 0.961 . S
H3148 C3134 0.961 . S
H3149 C3135 0.958 . S
H3150 C3135 0.961 . S
H3151 C3135 0.960 . S
C3152 C3153 1.391 . S
C3152 C3154 1.394 . S
C3152 H3168 0.931 . S
C3153 C3152 1.391 . S
C3153 C3157 1.376 . S
C3154 C3152 1.394 . S
C3154 C3155 1.369 . S
C3154 C3158 1.531 . S
C3155 C3154 1.369 . S
C3155 C3156 1.410 . S
C3155 C3163 1.503 . S
C3156 C3155 1.410 . S
C3156 C3157 1.392 . S
C3156 C3159 1.511 . S
C3157 C3153 1.376 . S
C3157 C3156 1.392 . S
C3157 H3169 0.929 . S
C3158 C3154 1.531 . S
C3158 H3170 0.960 . S
C3158 H3171 0.962 . S
C3158 H3172 0.960 . S
C3159 C3156 1.511 . S
C3159 H3173 0.961 . S
C3159 H3174 0.961 . S
C3159 H3175 0.961 . S
C3160 C3161 1.370 . S
C3160 C3162 1.363 . S
C3160 H3176 0.931 . S
C3161 C3160 1.370 . S
C3161 C3165 1.408 . S
C3162 C3160 1.363 . S
C3162 C3163 1.370 . S
C3162 C3166 1.524 . S
C3163 C3155 1.503 . S
C3163 C3162 1.370 . S
C3163 C3164 1.403 . S
C3164 C3163 1.403 . S
C3164 C3165 1.404 . S
C3164 C3167 1.539 . S
C3165 C3161 1.408 . S
C3165 C3164 1.404 . S
C3165 H3177 0.930 . S
C3166 C3162 1.524 . S
C3166 H3178 0.956 . S
C3166 H3179 0.961 . S
C3166 H3180 0.961 . S
C3167 C3164 1.539 . S
C3167 H3181 0.958 . S
C3167 H3182 0.961 . S
C3167 H3183 0.960 . S
H3168 C3152 0.931 . S
H3169 C3157 0.929 . S
H3170 C3158 0.960 . S
H3171 C3158 0.962 . S
H3172 C3158 0.960 . S
H3173 C3159 0.961 . S
H3174 C3159 0.961 . S
H3175 C3159 0.961 . S
H3176 C3160 0.931 . S
H3177 C3165 0.930 . S
H3178 C3166 0.956 . S
H3179 C3166 0.961 . S
H3180 C3166 0.961 . S
H3181 C3167 0.958 . S
H3182 C3167 0.961 . S
H3183 C3167 0.960 . S
C3184 C3185 1.391 . S
C3184 C3186 1.394 . S
C3184 H3200 0.931 . S
C3185 C3184 1.391 . S
C3185 C3189 1.376 . S
C3186 C3184 1.394 . S
C3186 C3187 1.369 . S
C3186 C3190 1.531 . S
C3187 C3186 1.369 . S
C3187 C3188 1.410 . S
C3187 C3195 1.503 . S
C3188 C3187 1.410 . S
C3188 C3189 1.392 . S
C3188 C3191 1.511 . S
C3189 C3185 1.376 . S
C3189 C3188 1.392 . S
C3189 H3201 0.929 . S
C3190 C3186 1.531 . S
C3190 H3202 0.960 . S
C3190 H3203 0.962 . S
C3190 H3204 0.960 . S
C3191 C3188 1.511 . S
C3191 H3205 0.961 . S
C3191 H3206 0.961 . S
C3191 H3207 0.961 . S
C3192 C3193 1.370 . S
C3192 C3194 1.363 . S
C3192 H3208 0.931 . S
C3193 C3192 1.370 . S
C3193 C3197 1.408 . S
C3194 C3192 1.363 . S
C3194 C3195 1.370 . S
C3194 C3198 1.524 . S
C3195 C3187 1.503 . S
C3195 C3194 1.370 . S
C3195 C3196 1.403 . S
C3196 C3195 1.403 . S
C3196 C3197 1.404 . S
C3196 C3199 1.539 . S
C3197 C3193 1.408 . S
C3197 C3196 1.404 . S
C3197 H3209 0.930 . S
C3198 C3194 1.524 . S
C3198 H3210 0.956 . S
C3198 H3211 0.961 . S
C3198 H3212 0.961 . S
C3199 C3196 1.539 . S
C3199 H3213 0.958 . S
C3199 H3214 0.961 . S
C3199 H3215 0.960 . S
H3200 C3184 0.931 . S
H3201 C3189 0.929 . S
H3202 C3190 0.960 . S
H3203 C3190 0.962 . S
H3204 C3190 0.960 . S
H3205 C3191 0.961 . S
H3206 C3191 0.961 . S
H3207 C3191 0.961 . S
H3208 C3192 0.931 . S
H3209 C3197 0.930 . S
H3210 C3198 0.956 . S
H3211 C3198 0.961 . S
H3212 C3198 0.961 . S
H3213 C3199 0.958 . S
H3214 C3199 0.961 . S
H3215 C3199 0.960 . S
C3216 C3217 1.391 . S
C3216 C3218 1.394 . S
C3216 H3232 0.931 . S
C3217 C3216 1.391 . S
C3217 C3221 1.376 . S
C3218 C3216 1.394 . S
C3218 C3219 1.369 . S
C3218 C3222 1.531 . S
C3219 C3218 1.369 . S
C3219 C3220 1.410 . S
C3219 C3227 1.503 . S
C3220 C3219 1.410 . S
C3220 C3221 1.392 . S
C3220 C3223 1.511 . S
C3221 C3217 1.376 . S
C3221 C3220 1.392 . S
C3221 H3233 0.929 . S
C3222 C3218 1.531 . S
C3222 H3234 0.960 . S
C3222 H3235 0.962 . S
C3222 H3236 0.960 . S
C3223 C3220 1.511 . S
C3223 H3237 0.961 . S
C3223 H3238 0.961 . S
C3223 H3239 0.961 . S
C3224 C3225 1.370 . S
C3224 C3226 1.363 . S
C3224 H3240 0.931 . S
C3225 C3224 1.370 . S
C3225 C3229 1.408 . S
C3226 C3224 1.363 . S
C3226 C3227 1.370 . S
C3226 C3230 1.524 . S
C3227 C3219 1.503 . S
C3227 C3226 1.370 . S
C3227 C3228 1.403 . S
C3228 C3227 1.403 . S
C3228 C3229 1.404 . S
C3228 C3231 1.539 . S
C3229 C3225 1.408 . S
C3229 C3228 1.404 . S
C3229 H3241 0.930 . S
C3230 C3226 1.524 . S
C3230 H3242 0.956 . S
C3230 H3243 0.961 . S
C3230 H3244 0.961 . S
C3231 C3228 1.539 . S
C3231 H3245 0.958 . S
C3231 H3246 0.961 . S
C3231 H3247 0.960 . S
H3232 C3216 0.931 . S
H3233 C3221 0.929 . S
H3234 C3222 0.960 . S
H3235 C3222 0.962 . S
H3236 C3222 0.960 . S
H3237 C3223 0.961 . S
H3238 C3223 0.961 . S
H3239 C3223 0.961 . S
H3240 C3224 0.931 . S
H3241 C3229 0.930 . S
H3242 C3230 0.956 . S
H3243 C3230 0.961 . S
H3244 C3230 0.961 . S
H3245 C3231 0.958 . S
H3246 C3231 0.961 . S
H3247 C3231 0.960 . S
C3248 C3249 1.391 . S
C3248 C3250 1.394 . S
C3248 H3264 0.931 . S
C3249 C3248 1.391 . S
C3249 C3253 1.376 . S
C3250 C3248 1.394 . S
C3250 C3251 1.369 . S
C3250 C3254 1.531 . S
C3251 C3250 1.369 . S
C3251 C3252 1.410 . S
C3251 C3259 1.503 . S
C3252 C3251 1.410 . S
C3252 C3253 1.392 . S
C3252 C3255 1.511 . S
C3253 C3249 1.376 . S
C3253 C3252 1.392 . S
C3253 H3265 0.929 . S
C3254 C3250 1.531 . S
C3254 H3266 0.960 . S
C3254 H3267 0.962 . S
C3254 H3268 0.960 . S
C3255 C3252 1.511 . S
C3255 H3269 0.961 . S
C3255 H3270 0.961 . S
C3255 H3271 0.961 . S
C3256 C3257 1.370 . S
C3256 C3258 1.363 . S
C3256 H3272 0.931 . S
C3257 C3256 1.370 . S
C3257 C3261 1.408 . S
C3258 C3256 1.363 . S
C3258 C3259 1.370 . S
C3258 C3262 1.524 . S
C3259 C3251 1.503 . S
C3259 C3258 1.370 . S
C3259 C3260 1.403 . S
C3260 C3259 1.403 . S
C3260 C3261 1.404 . S
C3260 C3263 1.539 . S
C3261 C3257 1.408 . S
C3261 C3260 1.404 . S
C3261 H3273 0.930 . S
C3262 C3258 1.524 . S
C3262 H3274 0.956 . S
C3262 H3275 0.961 . S
C3262 H3276 0.961 . S
C3263 C3260 1.539 . S
C3263 H3277 0.958 . S
C3263 H3278 0.961 . S
C3263 H3279 0.960 . S
H3264 C3248 0.931 . S
H3265 C3253 0.929 . S
H3266 C3254 0.960 . S
H3267 C3254 0.962 . S
H3268 C3254 0.960 . S
H3269 C3255 0.961 . S
H3270 C3255 0.961 . S
H3271 C3255 0.961 . S
H3272 C3256 0.931 . S
H3273 C3261 0.930 . S
H3274 C3262 0.956 . S
H3275 C3262 0.961 . S
H3276 C3262 0.961 . S
H3277 C3263 0.958 . S
H3278 C3263 0.961 . S
H3279 C3263 0.960 . S
C3280 C3281 1.391 . S
C3280 C3282 1.394 . S
C3280 H3296 0.931 1_455 S
C3281 C3280 1.391 . S
C3281 C3285 1.376 . S
C3282 C3280 1.394 . S
C3282 C3283 1.369 . S
C3282 C3286 1.531 1_455 S
C3283 C3282 1.369 . S
C3283 C3284 1.410 . S
C3283 C3291 1.505 1_556 S
C3284 C3283 1.410 . S
C3284 C3285 1.392 . S
C3284 C3287 1.511 1_556 S
C3285 C3281 1.376 . S
C3285 C3284 1.392 . S
C3285 H3297 0.929 . S
C3286 C3282 1.531 1_655 S
C3286 H3298 0.960 1_556 S
C3286 H3299 0.962 . S
C3286 H3300 0.960 . S
C3287 C3284 1.511 1_554 S
C3287 H3301 0.958 1_554 S
C3287 H3302 0.959 1_554 S
C3287 H3303 0.965 . S
C3288 C3289 1.370 1_556 S
C3288 C3290 1.363 . S
C3288 H3304 0.931 . S
C3289 C3288 1.370 1_554 S
C3289 C3293 1.408 . S
C3290 C3288 1.363 . S
C3290 C3291 1.329 1_556 S
C3290 C3294 1.524 . S
C3291 C3283 1.505 1_554 S
C3291 C3290 1.329 1_554 S
C3291 C3292 1.444 . S
C3292 C3291 1.444 . S
C3292 C3293 1.404 . S
C3292 C3295 1.539 . S
C3293 C3289 1.408 . S
C3293 C3292 1.404 . S
C3293 H3305 0.930 . S
C3294 C3290 1.524 . S
C3294 H3306 0.956 . S
C3294 H3307 0.961 . S
C3294 H3308 0.961 . S
C3295 C3292 1.539 . S
C3295 H3309 0.958 . S
C3295 H3310 0.961 . S
C3295 H3311 0.960 . S
H3296 C3280 0.931 1_655 S
H3297 C3285 0.929 . S
H3298 C3286 0.960 1_554 S
H3299 C3286 0.962 . S
H3300 C3286 0.960 . S
H3301 C3287 0.958 1_556 S
H3302 C3287 0.959 1_556 S
H3303 C3287 0.965 . S
H3304 C3288 0.931 . S
H3305 C3293 0.930 . S
H3306 C3294 0.956 . S
H3307 C3294 0.961 . S
H3308 C3294 0.961 . S
H3309 C3295 0.958 . S
H3310 C3295 0.961 . S
H3311 C3295 0.960 . S
C3312 C3313 1.391 . S
C3312 C3314 1.392 1_455 S
C3312 H3328 0.931 . S
C3313 C3312 1.391 . S
C3313 C3317 1.376 . S
C3314 C3312 1.392 1_655 S
C3314 C3315 1.369 1_655 S
C3314 C3318 1.532 . S
C3315 C3314 1.369 1_455 S
C3315 C3316 1.410 . S
C3315 C3323 1.503 1_455 S
C3316 C3315 1.410 . S
C3316 C3317 1.392 . S
C3316 C3319 1.511 . S
C3317 C3313 1.376 . S
C3317 C3316 1.392 . S
C3317 H3329 0.929 . S
C3318 C3314 1.532 . S
C3318 H3330 0.960 . S
C3318 H3331 0.962 . S
C3318 H3332 0.960 . S
C3319 C3316 1.511 . S
C3319 H3333 0.961 . S
C3319 H3334 0.961 . S
C3319 H3335 0.961 . S
C3320 C3321 1.370 . S
C3320 C3322 1.363 . S
C3320 H3336 0.931 . S
C3321 C3320 1.370 . S
C3321 C3325 1.408 . S
C3322 C3320 1.363 . S
C3322 C3323 1.370 . S
C3322 C3326 1.524 . S
C3323 C3315 1.503 1_655 S
C3323 C3322 1.370 . S
C3323 C3324 1.403 . S
C3324 C3323 1.403 . S
C3324 C3325 1.404 . S
C3324 C3327 1.539 . S
C3325 C3321 1.408 . S
C3325 C3324 1.404 . S
C3325 H3337 0.930 . S
C3326 C3322 1.524 . S
C3326 H3338 0.956 . S
C3326 H3339 0.961 . S
C3326 H3340 0.961 . S
C3327 C3324 1.539 . S
C3327 H3341 0.958 . S
C3327 H3342 0.961 . S
C3327 H3343 0.960 1_655 S
H3328 C3312 0.931 . S
H3329 C3317 0.929 . S
H3330 C3318 0.960 . S
H3331 C3318 0.962 . S
H3332 C3318 0.960 . S
H3333 C3319 0.961 . S
H3334 C3319 0.961 . S
H3335 C3319 0.961 . S
H3336 C3320 0.931 . S
H3337 C3325 0.930 . S
H3338 C3326 0.956 . S
H3339 C3326 0.961 . S
H3340 C3326 0.961 . S
H3341 C3327 0.958 . S
H3342 C3327 0.961 . S
H3343 C3327 0.960 1_455 S
C3344 C3345 1.391 . S
C3344 C3346 1.394 . S
C3344 H3360 0.931 . S
C3345 C3344 1.391 . S
C3345 C3349 1.376 . S
C3346 C3344 1.394 . S
C3346 C3347 1.369 . S
C3346 C3350 1.531 . S
C3347 C3346 1.369 . S
C3347 C3348 1.410 . S
C3347 C3355 1.503 . S
C3348 C3347 1.410 . S
C3348 C3349 1.392 . S
C3348 C3351 1.511 . S
C3349 C3345 1.376 . S
C3349 C3348 1.392 . S
C3349 H3361 0.929 . S
C3350 C3346 1.531 . S
C3350 H3362 0.960 . S
C3350 H3363 0.962 . S
C3350 H3364 0.960 . S
C3351 C3348 1.511 . S
C3351 H3365 0.961 . S
C3351 H3366 0.961 . S
C3351 H3367 0.961 . S
C3352 C3353 1.370 . S
C3352 C3354 1.363 . S
C3352 H3368 0.931 . S
C3353 C3352 1.370 . S
C3353 C3357 1.408 . S
C3354 C3352 1.363 . S
C3354 C3355 1.370 . S
C3354 C3358 1.524 . S
C3355 C3347 1.503 . S
C3355 C3354 1.370 . S
C3355 C3356 1.403 . S
C3356 C3355 1.403 . S
C3356 C3357 1.404 . S
C3356 C3359 1.539 . S
C3357 C3353 1.408 . S
C3357 C3356 1.404 . S
C3357 H3369 0.930 . S
C3358 C3354 1.524 . S
C3358 H3370 0.956 . S
C3358 H3371 0.961 . S
C3358 H3372 0.961 . S
C3359 C3356 1.539 . S
C3359 H3373 0.958 . S
C3359 H3374 0.961 . S
C3359 H3375 0.960 . S
H3360 C3344 0.931 . S
H3361 C3349 0.929 . S
H3362 C3350 0.960 . S
H3363 C3350 0.962 . S
H3364 C3350 0.960 . S
H3365 C3351 0.961 . S
H3366 C3351 0.961 . S
H3367 C3351 0.961 . S
H3368 C3352 0.931 . S
H3369 C3357 0.930 . S
H3370 C3358 0.956 . S
H3371 C3358 0.961 . S
H3372 C3358 0.961 . S
H3373 C3359 0.958 . S
H3374 C3359 0.961 . S
H3375 C3359 0.960 . S
C3376 C3377 1.391 . S
C3376 C3378 1.394 . S
C3376 H3392 0.931 . S
C3377 C3376 1.391 . S
C3377 C3381 1.376 . S
C3378 C3376 1.394 . S
C3378 C3379 1.369 . S
C3378 C3382 1.531 . S
C3379 C3378 1.369 . S
C3379 C3380 1.410 . S
C3379 C3387 1.503 . S
C3380 C3379 1.410 . S
C3380 C3381 1.392 . S
C3380 C3383 1.511 . S
C3381 C3377 1.376 . S
C3381 C3380 1.392 . S
C3381 H3393 0.929 . S
C3382 C3378 1.531 . S
C3382 H3394 0.960 . S
C3382 H3395 0.962 . S
C3382 H3396 0.960 . S
C3383 C3380 1.511 . S
C3383 H3397 0.961 . S
C3383 H3398 0.961 . S
C3383 H3399 0.961 . S
C3384 C3385 1.370 . S
C3384 C3386 1.363 . S
C3384 H3400 0.931 . S
C3385 C3384 1.370 . S
C3385 C3389 1.408 . S
C3386 C3384 1.363 . S
C3386 C3387 1.370 1_655 S
C3386 C3390 1.524 . S
C3387 C3379 1.503 . S
C3387 C3386 1.370 1_455 S
C3387 C3388 1.403 1_455 S
C3388 C3387 1.403 1_655 S
C3388 C3389 1.404 . S
C3388 C3391 1.539 1_655 S
C3389 C3385 1.408 . S
C3389 C3388 1.404 . S
C3389 H3401 0.930 . S
C3390 C3386 1.524 . S
C3390 H3402 0.956 . S
C3390 H3403 0.961 1_655 S
C3390 H3404 0.961 . S
C3391 C3388 1.539 1_455 S
C3391 H3405 0.958 . S
C3391 H3406 0.961 . S
C3391 H3407 0.960 . S
H3392 C3376 0.931 . S
H3393 C3381 0.929 . S
H3394 C3382 0.960 . S
H3395 C3382 0.962 . S
H3396 C3382 0.960 . S
H3397 C3383 0.961 . S
H3398 C3383 0.961 . S
H3399 C3383 0.961 . S
H3400 C3384 0.931 . S
H3401 C3389 0.930 . S
H3402 C3390 0.956 . S
H3403 C3390 0.961 1_455 S
H3404 C3390 0.961 . S
H3405 C3391 0.958 . S
H3406 C3391 0.961 . S
H3407 C3391 0.960 . S
C3408 C3409 1.391 . S
C3408 C3410 1.394 . S
C3408 H3424 0.931 . S
C3409 C3408 1.391 . S
C3409 C3413 1.376 1_655 S
C3410 C3408 1.394 . S
C3410 C3411 1.369 1_655 S
C3410 C3414 1.531 . S
C3411 C3410 1.369 1_455 S
C3411 C3412 1.410 . S
C3411 C3419 1.503 . S
C3412 C3411 1.410 . S
C3412 C3413 1.392 . S
C3412 C3415 1.511 . S
C3413 C3409 1.376 1_455 S
C3413 C3412 1.392 . S
C3413 H3425 0.929 . S
C3414 C3410 1.531 . S
C3414 H3426 0.960 . S
C3414 H3427 0.962 . S
C3414 H3428 0.960 . S
C3415 C3412 1.511 . S
C3415 H3429 0.961 . S
C3415 H3430 0.961 . S
C3415 H3431 0.961 . S
C3416 C3417 1.370 . S
C3416 C3418 1.363 . S
C3416 H3432 0.931 . S
C3417 C3416 1.370 . S
C3417 C3421 1.408 . S
C3418 C3416 1.363 . S
C3418 C3419 1.370 . S
C3418 C3422 1.524 1_455 S
C3419 C3411 1.503 . S
C3419 C3418 1.370 . S
C3419 C3420 1.403 . S
C3420 C3419 1.403 . S
C3420 C3421 1.404 . S
C3420 C3423 1.539 . S
C3421 C3417 1.408 . S
C3421 C3420 1.404 . S
C3421 H3433 0.930 . S
C3422 C3418 1.524 1_655 S
C3422 H3434 0.956 . S
C3422 H3435 0.961 1_655 S
C3422 H3436 0.961 . S
C3423 C3420 1.539 . S
C3423 H3437 0.958 . S
C3423 H3438 0.961 . S
C3423 H3439 0.960 . S
H3424 C3408 0.931 . S
H3425 C3413 0.929 . S
H3426 C3414 0.960 . S
H3427 C3414 0.962 . S
H3428 C3414 0.960 . S
H3429 C3415 0.961 . S
H3430 C3415 0.961 . S
H3431 C3415 0.961 . S
H3432 C3416 0.931 . S
H3433 C3421 0.930 . S
H3434 C3422 0.956 . S
H3435 C3422 0.961 1_455 S
H3436 C3422 0.961 . S
H3437 C3423 0.958 . S
H3438 C3423 0.961 . S
H3439 C3423 0.960 . S
C3440 C3441 1.391 . S
C3440 C3442 1.394 . S
C3440 H3456 0.931 . S
C3441 C3440 1.391 . S
C3441 C3445 1.376 . S
C3442 C3440 1.394 . S
C3442 C3443 1.369 . S
C3442 C3446 1.531 . S
C3443 C3442 1.369 . S
C3443 C3444 1.410 . S
C3443 C3451 1.503 . S
C3444 C3443 1.410 . S
C3444 C3445 1.392 . S
C3444 C3447 1.511 . S
C3445 C3441 1.376 . S
C3445 C3444 1.392 . S
C3445 H3457 0.929 . S
C3446 C3442 1.531 . S
C3446 H3458 0.960 . S
C3446 H3459 0.962 . S
C3446 H3460 0.960 . S
C3447 C3444 1.511 . S
C3447 H3461 0.961 . S
C3447 H3462 0.961 . S
C3447 H3463 0.961 . S
C3448 C3449 1.370 . S
C3448 C3450 1.363 . S
C3448 H3464 0.931 . S
C3449 C3448 1.370 . S
C3449 C3453 1.408 . S
C3450 C3448 1.363 . S
C3450 C3451 1.370 . S
C3450 C3454 1.524 . S
C3451 C3443 1.503 . S
C3451 C3450 1.370 . S
C3451 C3452 1.403 . S
C3452 C3451 1.403 . S
C3452 C3453 1.404 . S
C3452 C3455 1.539 . S
C3453 C3449 1.408 . S
C3453 C3452 1.404 . S
C3453 H3465 0.930 . S
C3454 C3450 1.524 . S
C3454 H3466 0.956 . S
C3454 H3467 0.961 . S
C3454 H3468 0.961 . S
C3455 C3452 1.539 . S
C3455 H3469 0.958 . S
C3455 H3470 0.961 . S
C3455 H3471 0.960 . S
H3456 C3440 0.931 . S
H3457 C3445 0.929 . S
H3458 C3446 0.960 . S
H3459 C3446 0.962 . S
H3460 C3446 0.960 . S
H3461 C3447 0.961 . S
H3462 C3447 0.961 . S
H3463 C3447 0.961 . S
H3464 C3448 0.931 . S
H3465 C3453 0.930 . S
H3466 C3454 0.956 . S
H3467 C3454 0.961 . S
H3468 C3454 0.961 . S
H3469 C3455 0.958 . S
H3470 C3455 0.961 . S
H3471 C3455 0.960 . S
C3472 C3473 1.391 . S
C3472 C3474 1.394 . S
C3472 H3488 0.931 . S
C3473 C3472 1.391 . S
C3473 C3477 1.376 . S
C3474 C3472 1.394 . S
C3474 C3475 1.369 . S
C3474 C3478 1.531 . S
C3475 C3474 1.369 . S
C3475 C3476 1.410 . S
C3475 C3483 1.503 . S
C3476 C3475 1.410 . S
C3476 C3477 1.392 . S
C3476 C3479 1.511 . S
C3477 C3473 1.376 . S
C3477 C3476 1.392 . S
C3477 H3489 0.929 . S
C3478 C3474 1.531 . S
C3478 H3490 0.960 . S
C3478 H3491 0.962 . S
C3478 H3492 0.960 . S
C3479 C3476 1.511 . S
C3479 H3493 0.961 . S
C3479 H3494 0.961 . S
C3479 H3495 0.961 . S
C3480 C3481 1.370 . S
C3480 C3482 1.363 . S
C3480 H3496 0.931 . S
C3481 C3480 1.370 . S
C3481 C3485 1.408 . S
C3482 C3480 1.363 . S
C3482 C3483 1.370 . S
C3482 C3486 1.524 . S
C3483 C3475 1.503 . S
C3483 C3482 1.370 . S
C3483 C3484 1.403 . S
C3484 C3483 1.403 . S
C3484 C3485 1.404 . S
C3484 C3487 1.539 . S
C3485 C3481 1.408 . S
C3485 C3484 1.404 . S
C3485 H3497 0.930 . S
C3486 C3482 1.524 . S
C3486 H3498 0.956 . S
C3486 H3499 0.961 . S
C3486 H3500 0.961 . S
C3487 C3484 1.539 . S
C3487 H3501 0.958 . S
C3487 H3502 0.961 . S
C3487 H3503 0.960 . S
H3488 C3472 0.931 . S
H3489 C3477 0.929 . S
H3490 C3478 0.960 . S
H3491 C3478 0.962 . S
H3492 C3478 0.960 . S
H3493 C3479 0.961 . S
H3494 C3479 0.961 . S
H3495 C3479 0.961 . S
H3496 C3480 0.931 . S
H3497 C3485 0.930 . S
H3498 C3486 0.956 . S
H3499 C3486 0.961 . S
H3500 C3486 0.961 . S
H3501 C3487 0.958 . S
H3502 C3487 0.961 . S
H3503 C3487 0.960 . S
C3504 C3505 1.391 . S
C3504 C3506 1.394 . S
C3504 H3520 0.931 . S
C3505 C3504 1.391 . S
C3505 C3509 1.376 . S
C3506 C3504 1.394 . S
C3506 C3507 1.369 . S
C3506 C3510 1.531 . S
C3507 C3506 1.369 . S
C3507 C3508 1.410 . S
C3507 C3515 1.503 . S
C3508 C3507 1.410 . S
C3508 C3509 1.392 . S
C3508 C3511 1.511 . S
C3509 C3505 1.376 . S
C3509 C3508 1.392 . S
C3509 H3521 0.929 . S
C3510 C3506 1.531 . S
C3510 H3522 0.960 . S
C3510 H3523 0.962 . S
C3510 H3524 0.960 . S
C3511 C3508 1.511 . S
C3511 H3525 0.961 . S
C3511 H3526 0.961 . S
C3511 H3527 0.961 . S
C3512 C3513 1.370 . S
C3512 C3514 1.363 . S
C3512 H3528 0.931 . S
C3513 C3512 1.370 . S
C3513 C3517 1.408 . S
C3514 C3512 1.363 . S
C3514 C3515 1.370 . S
C3514 C3518 1.524 . S
C3515 C3507 1.503 . S
C3515 C3514 1.370 . S
C3515 C3516 1.403 . S
C3516 C3515 1.403 . S
C3516 C3517 1.404 . S
C3516 C3519 1.539 . S
C3517 C3513 1.408 . S
C3517 C3516 1.404 . S
C3517 H3529 0.930 . S
C3518 C3514 1.524 . S
C3518 H3530 0.956 . S
C3518 H3531 0.961 . S
C3518 H3532 0.961 . S
C3519 C3516 1.539 . S
C3519 H3533 0.958 . S
C3519 H3534 0.961 . S
C3519 H3535 0.960 . S
H3520 C3504 0.931 . S
H3521 C3509 0.929 . S
H3522 C3510 0.960 . S
H3523 C3510 0.962 . S
H3524 C3510 0.960 . S
H3525 C3511 0.961 . S
H3526 C3511 0.961 . S
H3527 C3511 0.961 . S
H3528 C3512 0.931 . S
H3529 C3517 0.930 . S
H3530 C3518 0.956 . S
H3531 C3518 0.961 . S
H3532 C3518 0.961 . S
H3533 C3519 0.958 . S
H3534 C3519 0.961 . S
H3535 C3519 0.960 . S
C3536 C3537 1.391 . S
C3536 C3538 1.394 . S
C3536 H3552 0.931 . S
C3537 C3536 1.391 . S
C3537 C3541 1.376 . S
C3538 C3536 1.394 . S
C3538 C3539 1.369 . S
C3538 C3542 1.531 . S
C3539 C3538 1.369 . S
C3539 C3540 1.410 . S
C3539 C3547 1.503 . S
C3540 C3539 1.410 . S
C3540 C3541 1.392 . S
C3540 C3543 1.511 . S
C3541 C3537 1.376 . S
C3541 C3540 1.392 . S
C3541 H3553 0.929 . S
C3542 C3538 1.531 . S
C3542 H3554 0.960 . S
C3542 H3555 0.962 . S
C3542 H3556 0.960 . S
C3543 C3540 1.511 . S
C3543 H3557 0.961 . S
C3543 H3558 0.961 . S
C3543 H3559 0.961 . S
C3544 C3545 1.370 . S
C3544 C3546 1.363 . S
C3544 H3560 0.931 . S
C3545 C3544 1.370 . S
C3545 C3549 1.408 . S
C3546 C3544 1.363 . S
C3546 C3547 1.370 . S
C3546 C3550 1.524 . S
C3547 C3539 1.503 . S
C3547 C3546 1.370 . S
C3547 C3548 1.403 . S
C3548 C3547 1.403 . S
C3548 C3549 1.404 . S
C3548 C3551 1.539 . S
C3549 C3545 1.408 . S
C3549 C3548 1.404 . S
C3549 H3561 0.930 . S
C3550 C3546 1.524 . S
C3550 H3562 0.956 . S
C3550 H3563 0.961 . S
C3550 H3564 0.961 . S
C3551 C3548 1.539 . S
C3551 H3565 0.958 . S
C3551 H3566 0.961 . S
C3551 H3567 0.960 . S
H3552 C3536 0.931 . S
H3553 C3541 0.929 . S
H3554 C3542 0.960 . S
H3555 C3542 0.962 . S
H3556 C3542 0.960 . S
H3557 C3543 0.961 . S
H3558 C3543 0.961 . S
H3559 C3543 0.961 . S
H3560 C3544 0.931 . S
H3561 C3549 0.930 . S
H3562 C3550 0.956 . S
H3563 C3550 0.961 . S
H3564 C3550 0.961 . S
H3565 C3551 0.958 . S
H3566 C3551 0.961 . S
H3567 C3551 0.960 . S
C3568 C3569 1.391 . S
C3568 C3570 1.394 . S
C3568 H3584 0.931 . S
C3569 C3568 1.391 . S
C3569 C3573 1.376 . S
C3570 C3568 1.394 . S
C3570 C3571 1.369 . S
C3570 C3574 1.531 . S
C3571 C3570 1.369 . S
C3571 C3572 1.410 . S
C3571 C3579 1.503 . S
C3572 C3571 1.410 . S
C3572 C3573 1.392 . S
C3572 C3575 1.511 . S
C3573 C3569 1.376 . S
C3573 C3572 1.392 . S
C3573 H3585 0.929 . S
C3574 C3570 1.531 . S
C3574 H3586 0.960 . S
C3574 H3587 0.962 . S
C3574 H3588 0.960 . S
C3575 C3572 1.511 . S
C3575 H3589 0.961 . S
C3575 H3590 0.961 . S
C3575 H3591 0.961 . S
C3576 C3577 1.370 . S
C3576 C3578 1.363 . S
C3576 H3592 0.931 . S
C3577 C3576 1.370 . S
C3577 C3581 1.408 . S
C3578 C3576 1.363 . S
C3578 C3579 1.370 . S
C3578 C3582 1.524 . S
C3579 C3571 1.503 . S
C3579 C3578 1.370 . S
C3579 C3580 1.403 . S
C3580 C3579 1.403 . S
C3580 C3581 1.404 . S
C3580 C3583 1.539 . S
C3581 C3577 1.408 . S
C3581 C3580 1.404 . S
C3581 H3593 0.930 . S
C3582 C3578 1.524 . S
C3582 H3594 0.956 . S
C3582 H3595 0.961 . S
C3582 H3596 0.961 . S
C3583 C3580 1.539 . S
C3583 H3597 0.958 . S
C3583 H3598 0.961 . S
C3583 H3599 0.960 . S
H3584 C3568 0.931 . S
H3585 C3573 0.929 . S
H3586 C3574 0.960 . S
H3587 C3574 0.962 . S
H3588 C3574 0.960 . S
H3589 C3575 0.961 . S
H3590 C3575 0.961 . S
H3591 C3575 0.961 . S
H3592 C3576 0.931 . S
H3593 C3581 0.930 . S
H3594 C3582 0.956 . S
H3595 C3582 0.961 . S
H3596 C3582 0.961 . S
H3597 C3583 0.958 . S
H3598 C3583 0.961 . S
H3599 C3583 0.960 . S
C3600 C3601 1.391 . S
C3600 C3602 1.394 . S
C3600 H3616 0.931 . S
C3601 C3600 1.391 . S
C3601 C3605 1.376 . S
C3602 C3600 1.394 . S
C3602 C3603 1.369 . S
C3602 C3606 1.531 . S
C3603 C3602 1.369 . S
C3603 C3604 1.410 . S
C3603 C3611 1.503 . S
C3604 C3603 1.410 . S
C3604 C3605 1.392 . S
C3604 C3607 1.511 . S
C3605 C3601 1.376 . S
C3605 C3604 1.392 . S
C3605 H3617 0.929 . S
C3606 C3602 1.531 . S
C3606 H3618 0.960 . S
C3606 H3619 0.962 . S
C3606 H3620 0.960 . S
C3607 C3604 1.511 . S
C3607 H3621 0.961 . S
C3607 H3622 0.961 . S
C3607 H3623 0.961 . S
C3608 C3609 1.370 . S
C3608 C3610 1.363 . S
C3608 H3624 0.931 . S
C3609 C3608 1.370 . S
C3609 C3613 1.408 . S
C3610 C3608 1.363 . S
C3610 C3611 1.370 . S
C3610 C3614 1.524 . S
C3611 C3603 1.503 . S
C3611 C3610 1.370 . S
C3611 C3612 1.403 . S
C3612 C3611 1.403 . S
C3612 C3613 1.404 . S
C3612 C3615 1.539 . S
C3613 C3609 1.408 . S
C3613 C3612 1.404 . S
C3613 H3625 0.930 . S
C3614 C3610 1.524 . S
C3614 H3626 0.956 . S
C3614 H3627 0.961 . S
C3614 H3628 0.961 . S
C3615 C3612 1.539 . S
C3615 H3629 0.958 . S
C3615 H3630 0.961 . S
C3615 H3631 0.960 . S
H3616 C3600 0.931 . S
H3617 C3605 0.929 . S
H3618 C3606 0.960 . S
H3619 C3606 0.962 . S
H3620 C3606 0.960 . S
H3621 C3607 0.961 . S
H3622 C3607 0.961 . S
H3623 C3607 0.961 . S
H3624 C3608 0.931 . S
H3625 C3613 0.930 . S
H3626 C3614 0.956 . S
H3627 C3614 0.961 . S
H3628 C3614 0.961 . S
H3629 C3615 0.958 . S
H3630 C3615 0.961 . S
H3631 C3615 0.960 . S
C3632 C3633 1.391 . S
C3632 C3634 1.394 . S
C3632 H3648 0.931 . S
C3633 C3632 1.391 . S
C3633 C3637 1.376 . S
C3634 C3632 1.394 . S
C3634 C3635 1.369 . S
C3634 C3638 1.531 . S
C3635 C3634 1.369 . S
C3635 C3636 1.410 . S
C3635 C3643 1.503 . S
C3636 C3635 1.410 . S
C3636 C3637 1.392 . S
C3636 C3639 1.511 . S
C3637 C3633 1.376 . S
C3637 C3636 1.392 . S
C3637 H3649 0.929 . S
C3638 C3634 1.531 . S
C3638 H3650 0.960 . S
C3638 H3651 0.962 . S
C3638 H3652 0.960 . S
C3639 C3636 1.511 . S
C3639 H3653 0.961 . S
C3639 H3654 0.961 . S
C3639 H3655 0.961 . S
C3640 C3641 1.370 . S
C3640 C3642 1.363 . S
C3640 H3656 0.931 . S
C3641 C3640 1.370 . S
C3641 C3645 1.408 . S
C3642 C3640 1.363 . S
C3642 C3643 1.370 . S
C3642 C3646 1.524 . S
C3643 C3635 1.503 . S
C3643 C3642 1.370 . S
C3643 C3644 1.403 . S
C3644 C3643 1.403 . S
C3644 C3645 1.404 . S
C3644 C3647 1.539 . S
C3645 C3641 1.408 . S
C3645 C3644 1.404 . S
C3645 H3657 0.930 . S
C3646 C3642 1.524 . S
C3646 H3658 0.956 . S
C3646 H3659 0.961 . S
C3646 H3660 0.961 . S
C3647 C3644 1.539 . S
C3647 H3661 0.958 . S
C3647 H3662 0.961 . S
C3647 H3663 0.960 . S
H3648 C3632 0.931 . S
H3649 C3637 0.929 . S
H3650 C3638 0.960 . S
H3651 C3638 0.962 . S
H3652 C3638 0.960 . S
H3653 C3639 0.961 . S
H3654 C3639 0.961 . S
H3655 C3639 0.961 . S
H3656 C3640 0.931 . S
H3657 C3645 0.930 . S
H3658 C3646 0.956 . S
H3659 C3646 0.961 . S
H3660 C3646 0.961 . S
H3661 C3647 0.958 . S
H3662 C3647 0.961 . S
H3663 C3647 0.960 . S
C3664 C3665 1.391 . S
C3664 C3666 1.394 . S
C3664 H3680 0.931 . S
C3665 C3664 1.391 . S
C3665 C3669 1.376 . S
C3666 C3664 1.394 . S
C3666 C3667 1.369 . S
C3666 C3670 1.531 . S
C3667 C3666 1.369 . S
C3667 C3668 1.410 . S
C3667 C3675 1.503 . S
C3668 C3667 1.410 . S
C3668 C3669 1.392 . S
C3668 C3671 1.511 . S
C3669 C3665 1.376 . S
C3669 C3668 1.392 . S
C3669 H3681 0.929 . S
C3670 C3666 1.531 . S
C3670 H3682 0.960 . S
C3670 H3683 0.962 . S
C3670 H3684 0.960 . S
C3671 C3668 1.511 . S
C3671 H3685 0.961 . S
C3671 H3686 0.961 . S
C3671 H3687 0.961 . S
C3672 C3673 1.370 . S
C3672 C3674 1.363 . S
C3672 H3688 0.931 . S
C3673 C3672 1.370 . S
C3673 C3677 1.408 . S
C3674 C3672 1.363 . S
C3674 C3675 1.370 . S
C3674 C3678 1.524 . S
C3675 C3667 1.503 . S
C3675 C3674 1.370 . S
C3675 C3676 1.403 . S
C3676 C3675 1.403 . S
C3676 C3677 1.404 . S
C3676 C3679 1.539 . S
C3677 C3673 1.408 . S
C3677 C3676 1.404 . S
C3677 H3689 0.930 . S
C3678 C3674 1.524 . S
C3678 H3690 0.956 . S
C3678 H3691 0.961 . S
C3678 H3692 0.961 . S
C3679 C3676 1.539 . S
C3679 H3693 0.958 . S
C3679 H3694 0.961 . S
C3679 H3695 0.960 . S
H3680 C3664 0.931 . S
H3681 C3669 0.929 . S
H3682 C3670 0.960 . S
H3683 C3670 0.962 . S
H3684 C3670 0.960 . S
H3685 C3671 0.961 . S
H3686 C3671 0.961 . S
H3687 C3671 0.961 . S
H3688 C3672 0.931 . S
H3689 C3677 0.930 . S
H3690 C3678 0.956 . S
H3691 C3678 0.961 . S
H3692 C3678 0.961 . S
H3693 C3679 0.958 . S
H3694 C3679 0.961 . S
H3695 C3679 0.960 . S
C3696 C3697 1.391 . S
C3696 C3698 1.394 . S
C3696 H3712 0.931 . S
C3697 C3696 1.391 . S
C3697 C3701 1.376 . S
C3698 C3696 1.394 . S
C3698 C3699 1.369 . S
C3698 C3702 1.531 . S
C3699 C3698 1.369 . S
C3699 C3700 1.410 . S
C3699 C3707 1.503 . S
C3700 C3699 1.410 . S
C3700 C3701 1.392 . S
C3700 C3703 1.511 . S
C3701 C3697 1.376 . S
C3701 C3700 1.392 . S
C3701 H3713 0.929 . S
C3702 C3698 1.531 . S
C3702 H3714 0.960 . S
C3702 H3715 0.962 . S
C3702 H3716 0.960 . S
C3703 C3700 1.511 . S
C3703 H3717 0.961 . S
C3703 H3718 0.961 . S
C3703 H3719 0.961 . S
C3704 C3705 1.370 . S
C3704 C3706 1.363 . S
C3704 H3720 0.931 . S
C3705 C3704 1.370 . S
C3705 C3709 1.408 . S
C3706 C3704 1.363 . S
C3706 C3707 1.370 . S
C3706 C3710 1.524 . S
C3707 C3699 1.503 . S
C3707 C3706 1.370 . S
C3707 C3708 1.403 . S
C3708 C3707 1.403 . S
C3708 C3709 1.404 . S
C3708 C3711 1.539 . S
C3709 C3705 1.408 . S
C3709 C3708 1.404 . S
C3709 H3721 0.930 . S
C3710 C3706 1.524 . S
C3710 H3722 0.956 . S
C3710 H3723 0.961 . S
C3710 H3724 0.961 . S
C3711 C3708 1.539 . S
C3711 H3725 0.958 . S
C3711 H3726 0.961 . S
C3711 H3727 0.960 . S
H3712 C3696 0.931 . S
H3713 C3701 0.929 . S
H3714 C3702 0.960 . S
H3715 C3702 0.962 . S
H3716 C3702 0.960 . S
H3717 C3703 0.961 . S
H3718 C3703 0.961 . S
H3719 C3703 0.961 . S
H3720 C3704 0.931 . S
H3721 C3709 0.930 . S
H3722 C3710 0.956 . S
H3723 C3710 0.961 . S
H3724 C3710 0.961 . S
H3725 C3711 0.958 . S
H3726 C3711 0.961 . S
H3727 C3711 0.960 . S
C3728 C3729 1.391 . S
C3728 C3730 1.394 . S
C3728 H3744 0.931 . S
C3729 C3728 1.391 . S
C3729 C3733 1.376 . S
C3730 C3728 1.394 . S
C3730 C3731 1.369 . S
C3730 C3734 1.531 . S
C3731 C3730 1.369 . S
C3731 C3732 1.410 . S
C3731 C3739 1.503 . S
C3732 C3731 1.410 . S
C3732 C3733 1.392 . S
C3732 C3735 1.511 . S
C3733 C3729 1.376 . S
C3733 C3732 1.392 . S
C3733 H3745 0.929 . S
C3734 C3730 1.531 . S
C3734 H3746 0.960 . S
C3734 H3747 0.962 . S
C3734 H3748 0.960 . S
C3735 C3732 1.511 . S
C3735 H3749 0.961 . S
C3735 H3750 0.961 . S
C3735 H3751 0.961 . S
C3736 C3737 1.370 . S
C3736 C3738 1.363 . S
C3736 H3752 0.931 . S
C3737 C3736 1.370 . S
C3737 C3741 1.408 . S
C3738 C3736 1.363 . S
C3738 C3739 1.370 . S
C3738 C3742 1.524 . S
C3739 C3731 1.503 . S
C3739 C3738 1.370 . S
C3739 C3740 1.403 . S
C3740 C3739 1.403 . S
C3740 C3741 1.404 . S
C3740 C3743 1.539 . S
C3741 C3737 1.408 . S
C3741 C3740 1.404 . S
C3741 H3753 0.930 . S
C3742 C3738 1.524 . S
C3742 H3754 0.956 . S
C3742 H3755 0.961 . S
C3742 H3756 0.961 . S
C3743 C3740 1.539 . S
C3743 H3757 0.958 . S
C3743 H3758 0.961 . S
C3743 H3759 0.960 . S
H3744 C3728 0.931 . S
H3745 C3733 0.929 . S
H3746 C3734 0.960 . S
H3747 C3734 0.962 . S
H3748 C3734 0.960 . S
H3749 C3735 0.961 . S
H3750 C3735 0.961 . S
H3751 C3735 0.961 . S
H3752 C3736 0.931 . S
H3753 C3741 0.930 . S
H3754 C3742 0.956 . S
H3755 C3742 0.961 . S
H3756 C3742 0.961 . S
H3757 C3743 0.958 . S
H3758 C3743 0.961 . S
H3759 C3743 0.960 . S
C3760 C3761 1.391 . S
C3760 C3762 1.394 . S
C3760 H3776 0.931 . S
C3761 C3760 1.391 . S
C3761 C3765 1.376 . S
C3762 C3760 1.394 . S
C3762 C3763 1.369 . S
C3762 C3766 1.531 . S
C3763 C3762 1.369 . S
C3763 C3764 1.410 . S
C3763 C3771 1.503 . S
C3764 C3763 1.410 . S
C3764 C3765 1.392 . S
C3764 C3767 1.511 . S
C3765 C3761 1.376 . S
C3765 C3764 1.392 . S
C3765 H3777 0.929 . S
C3766 C3762 1.531 . S
C3766 H3778 0.960 . S
C3766 H3779 0.962 . S
C3766 H3780 0.960 . S
C3767 C3764 1.511 . S
C3767 H3781 0.961 . S
C3767 H3782 0.961 . S
C3767 H3783 0.961 . S
C3768 C3769 1.370 . S
C3768 C3770 1.363 . S
C3768 H3784 0.931 . S
C3769 C3768 1.370 . S
C3769 C3773 1.408 . S
C3770 C3768 1.363 . S
C3770 C3771 1.370 . S
C3770 C3774 1.524 . S
C3771 C3763 1.503 . S
C3771 C3770 1.370 . S
C3771 C3772 1.403 . S
C3772 C3771 1.403 . S
C3772 C3773 1.404 . S
C3772 C3775 1.539 . S
C3773 C3769 1.408 . S
C3773 C3772 1.404 . S
C3773 H3785 0.930 . S
C3774 C3770 1.524 . S
C3774 H3786 0.956 . S
C3774 H3787 0.961 . S
C3774 H3788 0.961 . S
C3775 C3772 1.539 . S
C3775 H3789 0.958 . S
C3775 H3790 0.961 . S
C3775 H3791 0.960 . S
H3776 C3760 0.931 . S
H3777 C3765 0.929 . S
H3778 C3766 0.960 . S
H3779 C3766 0.962 . S
H3780 C3766 0.960 . S
H3781 C3767 0.961 . S
H3782 C3767 0.961 . S
H3783 C3767 0.961 . S
H3784 C3768 0.931 . S
H3785 C3773 0.930 . S
H3786 C3774 0.956 . S
H3787 C3774 0.961 . S
H3788 C3774 0.961 . S
H3789 C3775 0.958 . S
H3790 C3775 0.961 . S
H3791 C3775 0.960 . S
C3792 C3793 1.391 . S
C3792 C3794 1.394 . S
C3792 H3808 0.931 . S
C3793 C3792 1.391 . S
C3793 C3797 1.376 . S
C3794 C3792 1.394 . S
C3794 C3795 1.369 . S
C3794 C3798 1.531 . S
C3795 C3794 1.369 . S
C3795 C3796 1.410 . S
C3795 C3803 1.503 . S
C3796 C3795 1.410 . S
C3796 C3797 1.392 . S
C3796 C3799 1.511 . S
C3797 C3793 1.376 . S
C3797 C3796 1.392 . S
C3797 H3809 0.929 . S
C3798 C3794 1.531 . S
C3798 H3810 0.960 . S
C3798 H3811 0.962 . S
C3798 H3812 0.960 . S
C3799 C3796 1.511 . S
C3799 H3813 0.961 . S
C3799 H3814 0.961 . S
C3799 H3815 0.961 . S
C3800 C3801 1.370 . S
C3800 C3802 1.363 . S
C3800 H3816 0.931 . S
C3801 C3800 1.370 . S
C3801 C3805 1.408 . S
C3802 C3800 1.363 . S
C3802 C3803 1.370 . S
C3802 C3806 1.524 . S
C3803 C3795 1.503 . S
C3803 C3802 1.370 . S
C3803 C3804 1.403 . S
C3804 C3803 1.403 . S
C3804 C3805 1.404 . S
C3804 C3807 1.539 . S
C3805 C3801 1.408 . S
C3805 C3804 1.404 . S
C3805 H3817 0.930 . S
C3806 C3802 1.524 . S
C3806 H3818 0.956 . S
C3806 H3819 0.961 . S
C3806 H3820 0.961 . S
C3807 C3804 1.539 . S
C3807 H3821 0.958 . S
C3807 H3822 0.961 . S
C3807 H3823 0.960 . S
H3808 C3792 0.931 . S
H3809 C3797 0.929 . S
H3810 C3798 0.960 . S
H3811 C3798 0.962 . S
H3812 C3798 0.960 . S
H3813 C3799 0.961 . S
H3814 C3799 0.961 . S
H3815 C3799 0.961 . S
H3816 C3800 0.931 . S
H3817 C3805 0.930 . S
H3818 C3806 0.956 . S
H3819 C3806 0.961 . S
H3820 C3806 0.961 . S
H3821 C3807 0.958 . S
H3822 C3807 0.961 . S
H3823 C3807 0.960 . S
C3824 C3825 1.391 . S
C3824 C3826 1.394 . S
C3824 H3840 0.931 . S
C3825 C3824 1.391 . S
C3825 C3829 1.376 . S
C3826 C3824 1.394 . S
C3826 C3827 1.369 . S
C3826 C3830 1.531 1_565 S
C3827 C3826 1.369 . S
C3827 C3828 1.410 . S
C3827 C3835 1.515 . S
C3828 C3827 1.410 . S
C3828 C3829 1.392 . S
C3828 C3831 1.511 1_554 S
C3829 C3825 1.376 . S
C3829 C3828 1.392 . S
C3829 H3841 0.929 1_554 S
C3830 C3826 1.531 1_545 S
C3830 H3842 0.960 . S
C3830 H3843 0.962 . S
C3830 H3844 0.960 . S
C3831 C3828 1.511 1_556 S
C3831 H3845 0.961 . S
C3831 H3846 0.961 . S
C3831 H3847 0.961 1_556 S
C3832 C3833 1.370 1_556 S
C3832 C3834 1.369 . S
C3832 H3848 0.931 . S
C3833 C3832 1.370 1_554 S
C3833 C3837 1.408 . S
C3834 C3832 1.369 . S
C3834 C3835 1.322 1_546 S
C3834 C3838 1.539 . S
C3835 C3827 1.515 . S
C3835 C3834 1.322 1_564 S
C3835 C3836 1.419 . S
C3836 C3835 1.419 . S
C3836 C3837 1.404 1_565 S
C3836 C3839 1.539 . S
C3837 C3833 1.408 . S
C3837 C3836 1.404 1_545 S
C3837 H3849 0.930 . S
C3838 C3834 1.539 . S
C3838 H3850 0.956 . S
C3838 H3851 0.961 1_545 S
C3838 H3852 0.961 . S
C3839 C3836 1.539 . S
C3839 H3853 0.958 . S
C3839 H3854 0.961 . S
C3839 H3855 0.960 . S
H3840 C3824 0.931 . S
H3841 C3829 0.929 1_556 S
H3842 C3830 0.960 . S
H3843 C3830 0.962 . S
H3844 C3830 0.960 . S
H3845 C3831 0.961 . S
H3846 C3831 0.961 . S
H3847 C3831 0.961 1_554 S
H3848 C3832 0.931 . S
H3849 C3837 0.930 . S
H3850 C3838 0.956 . S
H3851 C3838 0.961 1_565 S
H3852 C3838 0.961 . S
H3853 C3839 0.958 . S
H3854 C3839 0.961 . S
H3855 C3839 0.960 . S
C3856 C3857 1.391 . S
C3856 C3858 1.394 . S
C3856 H3872 0.931 . S
C3857 C3856 1.391 . S
C3857 C3861 1.376 . S
C3858 C3856 1.394 . S
C3858 C3859 1.369 . S
C3858 C3862 1.531 . S
C3859 C3858 1.369 . S
C3859 C3860 1.410 . S
C3859 C3867 1.503 . S
C3860 C3859 1.410 . S
C3860 C3861 1.392 . S
C3860 C3863 1.511 . S
C3861 C3857 1.376 . S
C3861 C3860 1.392 . S
C3861 H3873 0.929 . S
C3862 C3858 1.531 . S
C3862 H3874 0.960 . S
C3862 H3875 0.962 . S
C3862 H3876 0.960 . S
C3863 C3860 1.511 . S
C3863 H3877 0.961 . S
C3863 H3878 0.961 . S
C3863 H3879 0.961 . S
C3864 C3865 1.370 . S
C3864 C3866 1.363 . S
C3864 H3880 0.931 . S
C3865 C3864 1.370 . S
C3865 C3869 1.408 . S
C3866 C3864 1.363 . S
C3866 C3867 1.370 . S
C3866 C3870 1.524 . S
C3867 C3859 1.503 . S
C3867 C3866 1.370 . S
C3867 C3868 1.403 . S
C3868 C3867 1.403 . S
C3868 C3869 1.404 . S
C3868 C3871 1.539 . S
C3869 C3865 1.408 . S
C3869 C3868 1.404 . S
C3869 H3881 0.930 . S
C3870 C3866 1.524 . S
C3870 H3882 0.956 . S
C3870 H3883 0.961 . S
C3870 H3884 0.961 . S
C3871 C3868 1.539 . S
C3871 H3885 0.958 . S
C3871 H3886 0.961 . S
C3871 H3887 0.960 . S
H3872 C3856 0.931 . S
H3873 C3861 0.929 . S
H3874 C3862 0.960 . S
H3875 C3862 0.962 . S
H3876 C3862 0.960 . S
H3877 C3863 0.961 . S
H3878 C3863 0.961 . S
H3879 C3863 0.961 . S
H3880 C3864 0.931 . S
H3881 C3869 0.930 . S
H3882 C3870 0.956 . S
H3883 C3870 0.961 . S
H3884 C3870 0.961 . S
H3885 C3871 0.958 . S
H3886 C3871 0.961 . S
H3887 C3871 0.960 . S
C3888 C3889 1.391 . S
C3888 C3890 1.394 . S
C3888 H3904 0.931 . S
C3889 C3888 1.391 . S
C3889 C3893 1.376 1_554 S
C3890 C3888 1.394 . S
C3890 C3891 1.369 . S
C3890 C3894 1.531 . S
C3891 C3890 1.369 . S
C3891 C3892 1.410 1_554 S
C3891 C3899 1.503 . S
C3892 C3891 1.410 1_556 S
C3892 C3893 1.392 . S
C3892 C3895 1.511 . S
C3893 C3889 1.376 1_556 S
C3893 C3892 1.392 . S
C3893 H3905 0.929 . S
C3894 C3890 1.531 . S
C3894 H3906 0.960 . S
C3894 H3907 0.962 . S
C3894 H3908 0.960 . S
C3895 C3892 1.511 . S
C3895 H3909 0.961 . S
C3895 H3910 0.961 . S
C3895 H3911 0.961 . S
C3896 C3897 1.370 . S
C3896 C3898 1.363 . S
C3896 H3912 0.931 . S
C3897 C3896 1.370 . S
C3897 C3901 1.408 . S
C3898 C3896 1.363 . S
C3898 C3899 1.370 . S
C3898 C3902 1.524 1_554 S
C3899 C3891 1.503 . S
C3899 C3898 1.370 . S
C3899 C3900 1.403 . S
C3900 C3899 1.403 . S
C3900 C3901 1.404 . S
C3900 C3903 1.539 . S
C3901 C3897 1.408 . S
C3901 C3900 1.404 . S
C3901 H3913 0.930 . S
C3902 C3898 1.524 1_556 S
C3902 H3914 0.956 1_556 S
C3902 H3915 0.961 . S
C3902 H3916 0.961 . S
C3903 C3900 1.539 . S
C3903 H3917 0.958 . S
C3903 H3918 0.961 . S
C3903 H3919 0.960 . S
H3904 C3888 0.931 . S
H3905 C3893 0.929 . S
H3906 C3894 0.960 . S
H3907 C3894 0.962 . S
H3908 C3894 0.960 . S
H3909 C3895 0.961 . S
H3910 C3895 0.961 . S
H3911 C3895 0.961 . S
H3912 C3896 0.931 . S
H3913 C3901 0.930 . S
H3914 C3902 0.956 1_554 S
H3915 C3902 0.961 . S
H3916 C3902 0.961 . S
H3917 C3903 0.958 . S
H3918 C3903 0.961 . S
H3919 C3903 0.960 . S
C3920 C3921 1.391 . S
C3920 C3922 1.394 . S
C3920 H3936 0.931 . S
C3921 C3920 1.391 . S
C3921 C3925 1.376 . S
C3922 C3920 1.394 . S
C3922 C3923 1.369 . S
C3922 C3926 1.531 . S
C3923 C3922 1.369 . S
C3923 C3924 1.410 . S
C3923 C3931 1.503 . S
C3924 C3923 1.410 . S
C3924 C3925 1.392 . S
C3924 C3927 1.511 . S
C3925 C3921 1.376 . S
C3925 C3924 1.392 . S
C3925 H3937 0.929 . S
C3926 C3922 1.531 . S
C3926 H3938 0.960 . S
C3926 H3939 0.962 . S
C3926 H3940 0.960 . S
C3927 C3924 1.511 . S
C3927 H3941 0.961 . S
C3927 H3942 0.961 . S
C3927 H3943 0.961 . S
C3928 C3929 1.370 . S
C3928 C3930 1.363 . S
C3928 H3944 0.931 . S
C3929 C3928 1.370 . S
C3929 C3933 1.408 . S
C3930 C3928 1.363 . S
C3930 C3931 1.370 . S
C3930 C3934 1.524 . S
C3931 C3923 1.503 . S
C3931 C3930 1.370 . S
C3931 C3932 1.403 . S
C3932 C3931 1.403 . S
C3932 C3933 1.404 . S
C3932 C3935 1.539 . S
C3933 C3929 1.408 . S
C3933 C3932 1.404 . S
C3933 H3945 0.930 . S
C3934 C3930 1.524 . S
C3934 H3946 0.956 . S
C3934 H3947 0.961 . S
C3934 H3948 0.961 . S
C3935 C3932 1.539 . S
C3935 H3949 0.958 . S
C3935 H3950 0.961 . S
C3935 H3951 0.960 . S
H3936 C3920 0.931 . S
H3937 C3925 0.929 . S
H3938 C3926 0.960 . S
H3939 C3926 0.962 . S
H3940 C3926 0.960 . S
H3941 C3927 0.961 . S
H3942 C3927 0.961 . S
H3943 C3927 0.961 . S
H3944 C3928 0.931 . S
H3945 C3933 0.930 . S
H3946 C3934 0.956 . S
H3947 C3934 0.961 . S
H3948 C3934 0.961 . S
H3949 C3935 0.958 . S
H3950 C3935 0.961 . S
H3951 C3935 0.960 . S
C3952 C3953 1.391 . S
C3952 C3954 1.394 . S
C3952 H3968 0.931 . S
C3953 C3952 1.391 . S
C3953 C3957 1.376 . S
C3954 C3952 1.394 . S
C3954 C3955 1.369 . S
C3954 C3958 1.531 . S
C3955 C3954 1.369 . S
C3955 C3956 1.410 . S
C3955 C3963 1.503 . S
C3956 C3955 1.410 . S
C3956 C3957 1.392 . S
C3956 C3959 1.511 . S
C3957 C3953 1.376 . S
C3957 C3956 1.392 . S
C3957 H3969 0.929 . S
C3958 C3954 1.531 . S
C3958 H3970 0.960 . S
C3958 H3971 0.962 . S
C3958 H3972 0.960 . S
C3959 C3956 1.511 . S
C3959 H3973 0.961 . S
C3959 H3974 0.961 . S
C3959 H3975 0.961 . S
C3960 C3961 1.370 . S
C3960 C3962 1.363 . S
C3960 H3976 0.931 . S
C3961 C3960 1.370 . S
C3961 C3965 1.408 . S
C3962 C3960 1.363 . S
C3962 C3963 1.370 . S
C3962 C3966 1.524 . S
C3963 C3955 1.503 . S
C3963 C3962 1.370 . S
C3963 C3964 1.403 . S
C3964 C3963 1.403 . S
C3964 C3965 1.404 . S
C3964 C3967 1.539 . S
C3965 C3961 1.408 . S
C3965 C3964 1.404 . S
C3965 H3977 0.930 . S
C3966 C3962 1.524 . S
C3966 H3978 0.956 . S
C3966 H3979 0.961 . S
C3966 H3980 0.961 . S
C3967 C3964 1.539 . S
C3967 H3981 0.958 . S
C3967 H3982 0.961 . S
C3967 H3983 0.960 . S
H3968 C3952 0.931 . S
H3969 C3957 0.929 . S
H3970 C3958 0.960 . S
H3971 C3958 0.962 . S
H3972 C3958 0.960 . S
H3973 C3959 0.961 . S
H3974 C3959 0.961 . S
H3975 C3959 0.961 . S
H3976 C3960 0.931 . S
H3977 C3965 0.930 . S
H3978 C3966 0.956 . S
H3979 C3966 0.961 . S
H3980 C3966 0.961 . S
H3981 C3967 0.958 . S
H3982 C3967 0.961 . S
H3983 C3967 0.960 . S
C3984 C3985 1.391 . S
C3984 C3986 1.394 . S
C3984 H4000 0.931 . S
C3985 C3984 1.391 . S
C3985 C3989 1.376 . S
C3986 C3984 1.394 . S
C3986 C3987 1.369 . S
C3986 C3990 1.531 . S
C3987 C3986 1.369 . S
C3987 C3988 1.410 . S
C3987 C3995 1.503 . S
C3988 C3987 1.410 . S
C3988 C3989 1.392 . S
C3988 C3991 1.511 . S
C3989 C3985 1.376 . S
C3989 C3988 1.392 . S
C3989 H4001 0.929 . S
C3990 C3986 1.531 . S
C3990 H4002 0.960 . S
C3990 H4003 0.962 . S
C3990 H4004 0.960 . S
C3991 C3988 1.511 . S
C3991 H4005 0.961 . S
C3991 H4006 0.961 . S
C3991 H4007 0.961 . S
C3992 C3993 1.370 . S
C3992 C3994 1.363 . S
C3992 H4008 0.931 . S
C3993 C3992 1.370 . S
C3993 C3997 1.408 . S
C3994 C3992 1.363 . S
C3994 C3995 1.370 . S
C3994 C3998 1.524 . S
C3995 C3987 1.503 . S
C3995 C3994 1.370 . S
C3995 C3996 1.403 . S
C3996 C3995 1.403 . S
C3996 C3997 1.404 . S
C3996 C3999 1.539 . S
C3997 C3993 1.408 . S
C3997 C3996 1.404 . S
C3997 H4009 0.930 . S
C3998 C3994 1.524 . S
C3998 H4010 0.956 . S
C3998 H4011 0.961 . S
C3998 H4012 0.961 . S
C3999 C3996 1.539 . S
C3999 H4013 0.958 . S
C3999 H4014 0.961 . S
C3999 H4015 0.960 . S
H4000 C3984 0.931 . S
H4001 C3989 0.929 . S
H4002 C3990 0.960 . S
H4003 C3990 0.962 . S
H4004 C3990 0.960 . S
H4005 C3991 0.961 . S
H4006 C3991 0.961 . S
H4007 C3991 0.961 . S
H4008 C3992 0.931 . S
H4009 C3997 0.930 . S
H4010 C3998 0.956 . S
H4011 C3998 0.961 . S
H4012 C3998 0.961 . S
H4013 C3999 0.958 . S
H4014 C3999 0.961 . S
H4015 C3999 0.960 . S
C4016 C4017 1.391 . S
C4016 C4018 1.394 . S
C4016 H4032 0.931 . S
C4017 C4016 1.391 . S
C4017 C4021 1.376 . S
C4018 C4016 1.394 . S
C4018 C4019 1.369 . S
C4018 C4022 1.531 . S
C4019 C4018 1.369 . S
C4019 C4020 1.410 . S
C4019 C4027 1.503 . S
C4020 C4019 1.410 . S
C4020 C4021 1.392 . S
C4020 C4023 1.511 . S
C4021 C4017 1.376 . S
C4021 C4020 1.392 . S
C4021 H4033 0.929 . S
C4022 C4018 1.531 . S
C4022 H4034 0.960 . S
C4022 H4035 0.962 . S
C4022 H4036 0.960 . S
C4023 C4020 1.511 . S
C4023 H4037 0.961 . S
C4023 H4038 0.961 . S
C4023 H4039 0.961 . S
C4024 C4025 1.370 . S
C4024 C4026 1.363 . S
C4024 H4040 0.931 . S
C4025 C4024 1.370 . S
C4025 C4029 1.408 . S
C4026 C4024 1.363 . S
C4026 C4027 1.370 . S
C4026 C4030 1.524 . S
C4027 C4019 1.503 . S
C4027 C4026 1.370 . S
C4027 C4028 1.403 . S
C4028 C4027 1.403 . S
C4028 C4029 1.404 . S
C4028 C4031 1.539 . S
C4029 C4025 1.408 . S
C4029 C4028 1.404 . S
C4029 H4041 0.930 . S
C4030 C4026 1.524 . S
C4030 H4042 0.956 . S
C4030 H4043 0.961 . S
C4030 H4044 0.961 . S
C4031 C4028 1.539 . S
C4031 H4045 0.958 . S
C4031 H4046 0.961 . S
C4031 H4047 0.960 . S
H4032 C4016 0.931 . S
H4033 C4021 0.929 . S
H4034 C4022 0.960 . S
H4035 C4022 0.962 . S
H4036 C4022 0.960 . S
H4037 C4023 0.961 . S
H4038 C4023 0.961 . S
H4039 C4023 0.961 . S
H4040 C4024 0.931 . S
H4041 C4029 0.930 . S
H4042 C4030 0.956 . S
H4043 C4030 0.961 . S
H4044 C4030 0.961 . S
H4045 C4031 0.958 . S
H4046 C4031 0.961 . S
H4047 C4031 0.960 . S
C4048 C4049 1.391 . S
C4048 C4050 1.394 . S
C4048 H4064 0.931 . S
C4049 C4048 1.391 . S
C4049 C4053 1.376 . S
C4050 C4048 1.394 . S
C4050 C4051 1.369 . S
C4050 C4054 1.531 . S
C4051 C4050 1.369 . S
C4051 C4052 1.410 . S
C4051 C4059 1.503 . S
C4052 C4051 1.410 . S
C4052 C4053 1.392 . S
C4052 C4055 1.511 . S
C4053 C4049 1.376 . S
C4053 C4052 1.392 . S
C4053 H4065 0.929 . S
C4054 C4050 1.531 . S
C4054 H4066 0.960 . S
C4054 H4067 0.962 . S
C4054 H4068 0.960 . S
C4055 C4052 1.511 . S
C4055 H4069 0.961 . S
C4055 H4070 0.961 . S
C4055 H4071 0.961 . S
C4056 C4057 1.370 . S
C4056 C4058 1.363 . S
C4056 H4072 0.931 1_554 S
C4057 C4056 1.370 . S
C4057 C4061 1.408 . S
C4058 C4056 1.363 . S
C4058 C4059 1.370 . S
C4058 C4062 1.524 . S
C4059 C4051 1.503 . S
C4059 C4058 1.370 . S
C4059 C4060 1.403 . S
C4060 C4059 1.403 . S
C4060 C4061 1.404 . S
C4060 C4063 1.539 . S
C4061 C4057 1.408 . S
C4061 C4060 1.404 . S
C4061 H4073 0.930 . S
C4062 C4058 1.524 . S
C4062 H4074 0.956 . S
C4062 H4075 0.961 . S
C4062 H4076 0.961 1_554 S
C4063 C4060 1.539 . S
C4063 H4077 0.958 . S
C4063 H4078 0.961 . S
C4063 H4079 0.960 . S
H4064 C4048 0.931 . S
H4065 C4053 0.929 . S
H4066 C4054 0.960 . S
H4067 C4054 0.962 . S
H4068 C4054 0.960 . S
H4069 C4055 0.961 . S
H4070 C4055 0.961 . S
H4071 C4055 0.961 . S
H4072 C4056 0.931 1_556 S
H4073 C4061 0.930 . S
H4074 C4062 0.956 . S
H4075 C4062 0.961 . S
H4076 C4062 0.961 1_556 S
H4077 C4063 0.958 . S
H4078 C4063 0.961 . S
H4079 C4063 0.960 . S
C4080 C4081 1.391 . S
C4080 C4082 1.394 . S
C4080 H4096 0.931 . S
C4081 C4080 1.391 . S
C4081 C4085 1.376 . S
C4082 C4080 1.394 . S
C4082 C4083 1.369 . S
C4082 C4086 1.531 . S
C4083 C4082 1.369 . S
C4083 C4084 1.410 . S
C4083 C4091 1.503 . S
C4084 C4083 1.410 . S
C4084 C4085 1.392 . S
C4084 C4087 1.511 . S
C4085 C4081 1.376 . S
C4085 C4084 1.392 . S
C4085 H4097 0.929 . S
C4086 C4082 1.531 . S
C4086 H4098 0.960 . S
C4086 H4099 0.962 . S
C4086 H4100 0.960 . S
C4087 C4084 1.511 . S
C4087 H4101 0.961 . S
C4087 H4102 0.961 . S
C4087 H4103 0.961 . S
C4088 C4089 1.370 . S
C4088 C4090 1.363 . S
C4088 H4104 0.931 . S
C4089 C4088 1.370 . S
C4089 C4093 1.408 . S
C4090 C4088 1.363 . S
C4090 C4091 1.370 . S
C4090 C4094 1.524 . S
C4091 C4083 1.503 . S
C4091 C4090 1.370 . S
C4091 C4092 1.403 . S
C4092 C4091 1.403 . S
C4092 C4093 1.404 . S
C4092 C4095 1.539 . S
C4093 C4089 1.408 . S
C4093 C4092 1.404 . S
C4093 H4105 0.930 . S
C4094 C4090 1.524 . S
C4094 H4106 0.956 . S
C4094 H4107 0.961 . S
C4094 H4108 0.961 . S
C4095 C4092 1.539 . S
C4095 H4109 0.958 . S
C4095 H4110 0.961 . S
C4095 H4111 0.960 . S
H4096 C4080 0.931 . S
H4097 C4085 0.929 . S
H4098 C4086 0.960 . S
H4099 C4086 0.962 . S
H4100 C4086 0.960 . S
H4101 C4087 0.961 . S
H4102 C4087 0.961 . S
H4103 C4087 0.961 . S
H4104 C4088 0.931 . S
H4105 C4093 0.930 . S
H4106 C4094 0.956 . S
H4107 C4094 0.961 . S
H4108 C4094 0.961 . S
H4109 C4095 0.958 . S
H4110 C4095 0.961 . S
H4111 C4095 0.960 . S
C4112 C4113 1.391 . S
C4112 C4114 1.394 . S
C4112 H4128 0.931 . S
C4113 C4112 1.391 . S
C4113 C4117 1.376 . S
C4114 C4112 1.394 . S
C4114 C4115 1.369 . S
C4114 C4118 1.531 . S
C4115 C4114 1.369 . S
C4115 C4116 1.410 . S
C4115 C4123 1.503 . S
C4116 C4115 1.410 . S
C4116 C4117 1.392 . S
C4116 C4119 1.511 . S
C4117 C4113 1.376 . S
C4117 C4116 1.392 . S
C4117 H4129 0.929 . S
C4118 C4114 1.531 . S
C4118 H4130 0.960 . S
C4118 H4131 0.962 . S
C4118 H4132 0.960 . S
C4119 C4116 1.511 . S
C4119 H4133 0.961 . S
C4119 H4134 0.961 . S
C4119 H4135 0.961 . S
C4120 C4121 1.370 . S
C4120 C4122 1.363 . S
C4120 H4136 0.931 . S
C4121 C4120 1.370 . S
C4121 C4125 1.408 . S
C4122 C4120 1.363 . S
C4122 C4123 1.370 . S
C4122 C4126 1.524 . S
C4123 C4115 1.503 . S
C4123 C4122 1.370 . S
C4123 C4124 1.403 . S
C4124 C4123 1.403 . S
C4124 C4125 1.404 . S
C4124 C4127 1.540 . S
C4125 C4121 1.408 . S
C4125 C4124 1.404 . S
C4125 H4137 0.930 1_556 S
C4126 C4122 1.524 . S
C4126 H4138 0.956 . S
C4126 H4139 0.961 . S
C4126 H4140 0.961 . S
C4127 C4124 1.540 . S
C4127 H4141 0.957 1_556 S
C4127 H4142 0.960 1_556 S
C4127 H4143 0.961 . S
H4128 C4112 0.931 . S
H4129 C4117 0.929 . S
H4130 C4118 0.960 . S
H4131 C4118 0.962 . S
H4132 C4118 0.960 . S
H4133 C4119 0.961 . S
H4134 C4119 0.961 . S
H4135 C4119 0.961 . S
H4136 C4120 0.931 . S
H4137 C4125 0.930 1_554 S
H4138 C4126 0.956 . S
H4139 C4126 0.961 . S
H4140 C4126 0.961 . S
H4141 C4127 0.957 1_554 S
H4142 C4127 0.960 1_554 S
H4143 C4127 0.961 . S
C4144 C4145 1.391 . S
C4144 C4146 1.394 . S
C4144 H4160 0.931 . S
C4145 C4144 1.391 . S
C4145 C4149 1.376 . S
C4146 C4144 1.394 . S
C4146 C4147 1.369 . S
C4146 C4150 1.531 . S
C4147 C4146 1.369 . S
C4147 C4148 1.410 . S
C4147 C4155 1.503 . S
C4148 C4147 1.410 . S
C4148 C4149 1.392 . S
C4148 C4151 1.511 . S
C4149 C4145 1.376 . S
C4149 C4148 1.392 . S
C4149 H4161 0.929 . S
C4150 C4146 1.531 . S
C4150 H4162 0.960 . S
C4150 H4163 0.962 . S
C4150 H4164 0.960 . S
C4151 C4148 1.511 . S
C4151 H4165 0.961 . S
C4151 H4166 0.961 . S
C4151 H4167 0.961 . S
C4152 C4153 1.370 . S
C4152 C4154 1.363 . S
C4152 H4168 0.931 . S
C4153 C4152 1.370 . S
C4153 C4157 1.408 . S
C4154 C4152 1.363 . S
C4154 C4155 1.370 . S
C4154 C4158 1.524 . S
C4155 C4147 1.503 . S
C4155 C4154 1.370 . S
C4155 C4156 1.403 . S
C4156 C4155 1.403 . S
C4156 C4157 1.404 . S
C4156 C4159 1.539 . S
C4157 C4153 1.408 . S
C4157 C4156 1.404 . S
C4157 H4169 0.930 . S
C4158 C4154 1.524 . S
C4158 H4170 0.956 . S
C4158 H4171 0.961 . S
C4158 H4172 0.961 . S
C4159 C4156 1.539 . S
C4159 H4173 0.958 . S
C4159 H4174 0.961 . S
C4159 H4175 0.960 . S
H4160 C4144 0.931 . S
H4161 C4149 0.929 . S
H4162 C4150 0.960 . S
H4163 C4150 0.962 . S
H4164 C4150 0.960 . S
H4165 C4151 0.961 . S
H4166 C4151 0.961 . S
H4167 C4151 0.961 . S
H4168 C4152 0.931 . S
H4169 C4157 0.930 . S
H4170 C4158 0.956 . S
H4171 C4158 0.961 . S
H4172 C4158 0.961 . S
H4173 C4159 0.958 . S
H4174 C4159 0.961 . S
H4175 C4159 0.960 . S
C4176 C4177 1.391 . S
C4176 C4178 1.394 . S
C4176 H4192 0.931 . S
C4177 C4176 1.391 . S
C4177 C4181 1.376 . S
C4178 C4176 1.394 . S
C4178 C4179 1.369 . S
C4178 C4182 1.531 . S
C4179 C4178 1.369 . S
C4179 C4180 1.410 . S
C4179 C4187 1.503 . S
C4180 C4179 1.410 . S
C4180 C4181 1.392 . S
C4180 C4183 1.511 . S
C4181 C4177 1.376 . S
C4181 C4180 1.392 . S
C4181 H4193 0.929 . S
C4182 C4178 1.531 . S
C4182 H4194 0.960 . S
C4182 H4195 0.962 . S
C4182 H4196 0.960 . S
C4183 C4180 1.511 . S
C4183 H4197 0.961 . S
C4183 H4198 0.961 . S
C4183 H4199 0.961 . S
C4184 C4185 1.370 . S
C4184 C4186 1.363 . S
C4184 H4200 0.931 . S
C4185 C4184 1.370 . S
C4185 C4189 1.408 . S
C4186 C4184 1.363 . S
C4186 C4187 1.370 . S
C4186 C4190 1.524 . S
C4187 C4179 1.503 . S
C4187 C4186 1.370 . S
C4187 C4188 1.403 . S
C4188 C4187 1.403 . S
C4188 C4189 1.404 . S
C4188 C4191 1.539 . S
C4189 C4185 1.408 . S
C4189 C4188 1.404 . S
C4189 H4201 0.930 . S
C4190 C4186 1.524 . S
C4190 H4202 0.956 . S
C4190 H4203 0.961 . S
C4190 H4204 0.961 . S
C4191 C4188 1.539 . S
C4191 H4205 0.958 . S
C4191 H4206 0.961 . S
C4191 H4207 0.960 . S
H4192 C4176 0.931 . S
H4193 C4181 0.929 . S
H4194 C4182 0.960 . S
H4195 C4182 0.962 . S
H4196 C4182 0.960 . S
H4197 C4183 0.961 . S
H4198 C4183 0.961 . S
H4199 C4183 0.961 . S
H4200 C4184 0.931 . S
H4201 C4189 0.930 . S
H4202 C4190 0.956 . S
H4203 C4190 0.961 . S
H4204 C4190 0.961 . S
H4205 C4191 0.958 . S
H4206 C4191 0.961 . S
H4207 C4191 0.960 . S
C4208 C4209 1.391 . S
C4208 C4210 1.394 . S
C4208 H4224 0.931 . S
C4209 C4208 1.391 . S
C4209 C4213 1.376 . S
C4210 C4208 1.394 . S
C4210 C4211 1.369 . S
C4210 C4214 1.531 . S
C4211 C4210 1.369 . S
C4211 C4212 1.410 . S
C4211 C4219 1.503 . S
C4212 C4211 1.410 . S
C4212 C4213 1.392 . S
C4212 C4215 1.511 . S
C4213 C4209 1.376 . S
C4213 C4212 1.392 . S
C4213 H4225 0.929 . S
C4214 C4210 1.531 . S
C4214 H4226 0.960 . S
C4214 H4227 0.962 . S
C4214 H4228 0.960 . S
C4215 C4212 1.511 . S
C4215 H4229 0.961 . S
C4215 H4230 0.961 . S
C4215 H4231 0.961 . S
C4216 C4217 1.370 . S
C4216 C4218 1.363 . S
C4216 H4232 0.931 . S
C4217 C4216 1.370 . S
C4217 C4221 1.408 . S
C4218 C4216 1.363 . S
C4218 C4219 1.370 . S
C4218 C4222 1.524 . S
C4219 C4211 1.503 . S
C4219 C4218 1.370 . S
C4219 C4220 1.403 . S
C4220 C4219 1.403 . S
C4220 C4221 1.404 . S
C4220 C4223 1.539 . S
C4221 C4217 1.408 . S
C4221 C4220 1.404 . S
C4221 H4233 0.930 . S
C4222 C4218 1.524 . S
C4222 H4234 0.956 . S
C4222 H4235 0.961 . S
C4222 H4236 0.961 . S
C4223 C4220 1.539 . S
C4223 H4237 0.958 . S
C4223 H4238 0.961 . S
C4223 H4239 0.960 . S
H4224 C4208 0.931 . S
H4225 C4213 0.929 . S
H4226 C4214 0.960 . S
H4227 C4214 0.962 . S
H4228 C4214 0.960 . S
H4229 C4215 0.961 . S
H4230 C4215 0.961 . S
H4231 C4215 0.961 . S
H4232 C4216 0.931 . S
H4233 C4221 0.930 . S
H4234 C4222 0.956 . S
H4235 C4222 0.961 . S
H4236 C4222 0.961 . S
H4237 C4223 0.958 . S
H4238 C4223 0.961 . S
H4239 C4223 0.960 . S
C4240 C4241 1.391 . S
C4240 C4242 1.394 . S
C4240 H4256 0.931 . S
C4241 C4240 1.391 . S
C4241 C4245 1.376 . S
C4242 C4240 1.394 . S
C4242 C4243 1.369 . S
C4242 C4246 1.531 . S
C4243 C4242 1.369 . S
C4243 C4244 1.410 . S
C4243 C4251 1.503 . S
C4244 C4243 1.410 . S
C4244 C4245 1.392 . S
C4244 C4247 1.511 . S
C4245 C4241 1.376 . S
C4245 C4244 1.392 . S
C4245 H4257 0.929 . S
C4246 C4242 1.531 . S
C4246 H4258 0.960 . S
C4246 H4259 0.962 . S
C4246 H4260 0.960 . S
C4247 C4244 1.511 . S
C4247 H4261 0.961 . S
C4247 H4262 0.961 . S
C4247 H4263 0.961 . S
C4248 C4249 1.370 . S
C4248 C4250 1.363 . S
C4248 H4264 0.931 . S
C4249 C4248 1.370 . S
C4249 C4253 1.408 . S
C4250 C4248 1.363 . S
C4250 C4251 1.370 . S
C4250 C4254 1.524 . S
C4251 C4243 1.503 . S
C4251 C4250 1.370 . S
C4251 C4252 1.403 . S
C4252 C4251 1.403 . S
C4252 C4253 1.404 . S
C4252 C4255 1.539 . S
C4253 C4249 1.408 . S
C4253 C4252 1.404 . S
C4253 H4265 0.930 . S
C4254 C4250 1.524 . S
C4254 H4266 0.956 . S
C4254 H4267 0.961 . S
C4254 H4268 0.961 . S
C4255 C4252 1.539 . S
C4255 H4269 0.958 . S
C4255 H4270 0.961 . S
C4255 H4271 0.960 . S
H4256 C4240 0.931 . S
H4257 C4245 0.929 . S
H4258 C4246 0.960 . S
H4259 C4246 0.962 . S
H4260 C4246 0.960 . S
H4261 C4247 0.961 . S
H4262 C4247 0.961 . S
H4263 C4247 0.961 . S
H4264 C4248 0.931 . S
H4265 C4253 0.930 . S
H4266 C4254 0.956 . S
H4267 C4254 0.961 . S
H4268 C4254 0.961 . S
H4269 C4255 0.958 . S
H4270 C4255 0.961 . S
H4271 C4255 0.960 . S
C4272 C4273 1.391 . S
C4272 C4274 1.394 . S
C4272 H4288 0.931 . S
C4273 C4272 1.391 . S
C4273 C4277 1.376 . S
C4274 C4272 1.394 . S
C4274 C4275 1.369 . S
C4274 C4278 1.531 . S
C4275 C4274 1.369 . S
C4275 C4276 1.410 . S
C4275 C4283 1.503 . S
C4276 C4275 1.410 . S
C4276 C4277 1.392 . S
C4276 C4279 1.511 . S
C4277 C4273 1.376 . S
C4277 C4276 1.392 . S
C4277 H4289 0.929 . S
C4278 C4274 1.531 . S
C4278 H4290 0.960 . S
C4278 H4291 0.962 . S
C4278 H4292 0.960 . S
C4279 C4276 1.511 . S
C4279 H4293 0.961 . S
C4279 H4294 0.961 . S
C4279 H4295 0.961 . S
C4280 C4281 1.370 . S
C4280 C4282 1.363 . S
C4280 H4296 0.931 . S
C4281 C4280 1.370 . S
C4281 C4285 1.408 . S
C4282 C4280 1.363 . S
C4282 C4283 1.370 . S
C4282 C4286 1.524 . S
C4283 C4275 1.503 . S
C4283 C4282 1.370 . S
C4283 C4284 1.403 . S
C4284 C4283 1.403 . S
C4284 C4285 1.404 . S
C4284 C4287 1.539 . S
C4285 C4281 1.408 . S
C4285 C4284 1.404 . S
C4285 H4297 0.930 . S
C4286 C4282 1.524 . S
C4286 H4298 0.956 . S
C4286 H4299 0.961 . S
C4286 H4300 0.961 . S
C4287 C4284 1.539 . S
C4287 H4301 0.958 . S
C4287 H4302 0.961 . S
C4287 H4303 0.960 . S
H4288 C4272 0.931 . S
H4289 C4277 0.929 . S
H4290 C4278 0.960 . S
H4291 C4278 0.962 . S
H4292 C4278 0.960 . S
H4293 C4279 0.961 . S
H4294 C4279 0.961 . S
H4295 C4279 0.961 . S
H4296 C4280 0.931 . S
H4297 C4285 0.930 . S
H4298 C4286 0.956 . S
H4299 C4286 0.961 . S
H4300 C4286 0.961 . S
H4301 C4287 0.958 . S
H4302 C4287 0.961 . S
H4303 C4287 0.960 . S
C4304 C4305 1.391 . S
C4304 C4306 1.394 . S
C4304 H4320 0.931 . S
C4305 C4304 1.391 . S
C4305 C4309 1.376 . S
C4306 C4304 1.394 . S
C4306 C4307 1.369 . S
C4306 C4310 1.531 . S
C4307 C4306 1.369 . S
C4307 C4308 1.410 . S
C4307 C4315 1.530 . S
C4308 C4307 1.410 . S
C4308 C4309 1.392 . S
C4308 C4311 1.511 1_655 S
C4309 C4305 1.376 . S
C4309 C4308 1.392 . S
C4309 H4321 0.929 . S
C4310 C4306 1.531 . S
C4310 H4322 0.960 . S
C4310 H4323 0.962 . S
C4310 H4324 0.960 . S
C4311 C4308 1.511 1_455 S
C4311 H4325 0.961 . S
C4311 H4326 0.961 . S
C4311 H4327 0.961 . S
C4312 C4313 1.370 . S
C4312 C4314 1.363 . S
C4312 H4328 0.931 . S
C4313 C4312 1.370 . S
C4313 C4317 1.408 . S
C4314 C4312 1.363 . S
C4314 C4315 1.374 1_455 S
C4314 C4318 1.524 1_455 S
C4315 C4307 1.530 . S
C4315 C4314 1.374 1_655 S
C4315 C4316 1.375 1_655 S
C4316 C4315 1.375 1_455 S
C4316 C4317 1.404 . S
C4316 C4319 1.539 . S
C4317 C4313 1.408 . S
C4317 C4316 1.404 . S
C4317 H4329 0.930 . S
C4318 C4314 1.524 1_655 S
C4318 H4330 0.956 . S
C4318 H4331 0.961 . S
C4318 H4332 0.961 1_655 S
C4319 C4316 1.539 . S
C4319 H4333 0.958 1_455 S
C4319 H4334 0.961 . S
C4319 H4335 0.968 . S
H4320 C4304 0.931 . S
H4321 C4309 0.929 . S
H4322 C4310 0.960 . S
H4323 C4310 0.962 . S
H4324 C4310 0.960 . S
H4325 C4311 0.961 . S
H4326 C4311 0.961 . S
H4327 C4311 0.961 . S
H4328 C4312 0.931 . S
H4329 C4317 0.930 . S
H4330 C4318 0.956 . S
H4331 C4318 0.961 . S
H4332 C4318 0.961 1_455 S
H4333 C4319 0.958 1_655 S
H4334 C4319 0.961 . S
H4335 C4319 0.968 . S
C4336 C4337 1.391 . S
C4336 C4338 1.394 . S
C4336 H4352 0.931 . S
C4337 C4336 1.391 . S
C4337 C4341 1.376 . S
C4338 C4336 1.394 . S
C4338 C4339 1.369 . S
C4338 C4342 1.531 . S
C4339 C4338 1.369 . S
C4339 C4340 1.410 . S
C4339 C4347 1.503 . S
C4340 C4339 1.410 . S
C4340 C4341 1.392 . S
C4340 C4343 1.511 . S
C4341 C4337 1.376 . S
C4341 C4340 1.392 . S
C4341 H4353 0.929 . S
C4342 C4338 1.531 . S
C4342 H4354 0.960 . S
C4342 H4355 0.962 . S
C4342 H4356 0.960 . S
C4343 C4340 1.511 . S
C4343 H4357 0.961 . S
C4343 H4358 0.961 . S
C4343 H4359 0.961 . S
C4344 C4345 1.370 . S
C4344 C4346 1.363 . S
C4344 H4360 0.931 . S
C4345 C4344 1.370 . S
C4345 C4349 1.408 . S
C4346 C4344 1.363 . S
C4346 C4347 1.370 . S
C4346 C4350 1.524 . S
C4347 C4339 1.503 . S
C4347 C4346 1.370 . S
C4347 C4348 1.403 . S
C4348 C4347 1.403 . S
C4348 C4349 1.404 . S
C4348 C4351 1.539 . S
C4349 C4345 1.408 . S
C4349 C4348 1.404 . S
C4349 H4361 0.930 . S
C4350 C4346 1.524 . S
C4350 H4362 0.956 . S
C4350 H4363 0.961 . S
C4350 H4364 0.961 . S
C4351 C4348 1.539 . S
C4351 H4365 0.958 . S
C4351 H4366 0.961 . S
C4351 H4367 0.960 . S
H4352 C4336 0.931 . S
H4353 C4341 0.929 . S
H4354 C4342 0.960 . S
H4355 C4342 0.962 . S
H4356 C4342 0.960 . S
H4357 C4343 0.961 . S
H4358 C4343 0.961 . S
H4359 C4343 0.961 . S
H4360 C4344 0.931 . S
H4361 C4349 0.930 . S
H4362 C4350 0.956 . S
H4363 C4350 0.961 . S
H4364 C4350 0.961 . S
H4365 C4351 0.958 . S
H4366 C4351 0.961 . S
H4367 C4351 0.960 . S
C4368 C4369 1.391 . S
C4368 C4370 1.394 . S
C4368 H4384 0.931 . S
C4369 C4368 1.391 . S
C4369 C4373 1.376 . S
C4370 C4368 1.394 . S
C4370 C4371 1.369 . S
C4370 C4374 1.531 . S
C4371 C4370 1.369 . S
C4371 C4372 1.410 . S
C4371 C4379 1.503 . S
C4372 C4371 1.410 . S
C4372 C4373 1.392 . S
C4372 C4375 1.511 . S
C4373 C4369 1.376 . S
C4373 C4372 1.392 . S
C4373 H4385 0.929 . S
C4374 C4370 1.531 . S
C4374 H4386 0.960 . S
C4374 H4387 0.962 . S
C4374 H4388 0.960 . S
C4375 C4372 1.511 . S
C4375 H4389 0.961 . S
C4375 H4390 0.961 . S
C4375 H4391 0.961 . S
C4376 C4377 1.370 . S
C4376 C4378 1.363 . S
C4376 H4392 0.931 . S
C4377 C4376 1.370 . S
C4377 C4381 1.408 . S
C4378 C4376 1.363 . S
C4378 C4379 1.370 . S
C4378 C4382 1.524 . S
C4379 C4371 1.503 . S
C4379 C4378 1.370 . S
C4379 C4380 1.403 . S
C4380 C4379 1.403 . S
C4380 C4381 1.404 . S
C4380 C4383 1.539 . S
C4381 C4377 1.408 . S
C4381 C4380 1.404 . S
C4381 H4393 0.930 . S
C4382 C4378 1.524 . S
C4382 H4394 0.956 . S
C4382 H4395 0.961 . S
C4382 H4396 0.961 . S
C4383 C4380 1.539 . S
C4383 H4397 0.958 . S
C4383 H4398 0.961 . S
C4383 H4399 0.960 . S
H4384 C4368 0.931 . S
H4385 C4373 0.929 . S
H4386 C4374 0.960 . S
H4387 C4374 0.962 . S
H4388 C4374 0.960 . S
H4389 C4375 0.961 . S
H4390 C4375 0.961 . S
H4391 C4375 0.961 . S
H4392 C4376 0.931 . S
H4393 C4381 0.930 . S
H4394 C4382 0.956 . S
H4395 C4382 0.961 . S
H4396 C4382 0.961 . S
H4397 C4383 0.958 . S
H4398 C4383 0.961 . S
H4399 C4383 0.960 . S
C4400 C4401 1.391 . S
C4400 C4402 1.394 . S
C4400 H4416 0.931 . S
C4401 C4400 1.391 . S
C4401 C4405 1.376 . S
C4402 C4400 1.394 . S
C4402 C4403 1.369 . S
C4402 C4406 1.531 . S
C4403 C4402 1.369 . S
C4403 C4404 1.410 . S
C4403 C4411 1.503 . S
C4404 C4403 1.410 . S
C4404 C4405 1.392 . S
C4404 C4407 1.511 . S
C4405 C4401 1.376 . S
C4405 C4404 1.392 . S
C4405 H4417 0.929 . S
C4406 C4402 1.531 . S
C4406 H4418 0.960 . S
C4406 H4419 0.962 . S
C4406 H4420 0.960 . S
C4407 C4404 1.511 . S
C4407 H4421 0.961 . S
C4407 H4422 0.961 . S
C4407 H4423 0.961 . S
C4408 C4409 1.370 . S
C4408 C4410 1.363 . S
C4408 H4424 0.931 . S
C4409 C4408 1.370 . S
C4409 C4413 1.408 . S
C4410 C4408 1.363 . S
C4410 C4411 1.370 . S
C4410 C4414 1.524 . S
C4411 C4403 1.503 . S
C4411 C4410 1.370 . S
C4411 C4412 1.403 . S
C4412 C4411 1.403 . S
C4412 C4413 1.404 . S
C4412 C4415 1.539 . S
C4413 C4409 1.408 . S
C4413 C4412 1.404 . S
C4413 H4425 0.930 . S
C4414 C4410 1.524 . S
C4414 H4426 0.956 . S
C4414 H4427 0.961 . S
C4414 H4428 0.961 . S
C4415 C4412 1.539 . S
C4415 H4429 0.958 . S
C4415 H4430 0.961 . S
C4415 H4431 0.960 . S
H4416 C4400 0.931 . S
H4417 C4405 0.929 . S
H4418 C4406 0.960 . S
H4419 C4406 0.962 . S
H4420 C4406 0.960 . S
H4421 C4407 0.961 . S
H4422 C4407 0.961 . S
H4423 C4407 0.961 . S
H4424 C4408 0.931 . S
H4425 C4413 0.930 . S
H4426 C4414 0.956 . S
H4427 C4414 0.961 . S
H4428 C4414 0.961 . S
H4429 C4415 0.958 . S
H4430 C4415 0.961 . S
H4431 C4415 0.960 . S
C4432 C4433 1.391 . S
C4432 C4434 1.394 . S
C4432 H4448 0.931 . S
C4433 C4432 1.391 . S
C4433 C4437 1.376 . S
C4434 C4432 1.394 . S
C4434 C4435 1.369 . S
C4434 C4438 1.531 . S
C4435 C4434 1.369 . S
C4435 C4436 1.410 . S
C4435 C4443 1.503 . S
C4436 C4435 1.410 . S
C4436 C4437 1.392 . S
C4436 C4439 1.511 . S
C4437 C4433 1.376 . S
C4437 C4436 1.392 . S
C4437 H4449 0.929 . S
C4438 C4434 1.531 . S
C4438 H4450 0.960 . S
C4438 H4451 0.962 . S
C4438 H4452 0.960 . S
C4439 C4436 1.511 . S
C4439 H4453 0.961 . S
C4439 H4454 0.961 . S
C4439 H4455 0.961 1_655 S
C4440 C4441 1.370 . S
C4440 C4442 1.363 . S
C4440 H4456 0.931 . S
C4441 C4440 1.370 . S
C4441 C4445 1.408 1_655 S
C4442 C4440 1.363 . S
C4442 C4443 1.370 . S
C4442 C4446 1.524 . S
C4443 C4435 1.503 . S
C4443 C4442 1.370 . S
C4443 C4444 1.403 1_655 S
C4444 C4443 1.403 1_455 S
C4444 C4445 1.404 . S
C4444 C4447 1.539 . S
C4445 C4441 1.408 1_455 S
C4445 C4444 1.404 . S
C4445 H4457 0.930 . S
C4446 C4442 1.524 . S
C4446 H4458 0.956 . S
C4446 H4459 0.961 . S
C4446 H4460 0.961 . S
C4447 C4444 1.539 . S
C4447 H4461 0.958 . S
C4447 H4462 0.961 . S
C4447 H4463 0.960 . S
H4448 C4432 0.931 . S
H4449 C4437 0.929 . S
H4450 C4438 0.960 . S
H4451 C4438 0.962 . S
H4452 C4438 0.960 . S
H4453 C4439 0.961 . S
H4454 C4439 0.961 . S
H4455 C4439 0.961 1_455 S
H4456 C4440 0.931 . S
H4457 C4445 0.930 . S
H4458 C4446 0.956 . S
H4459 C4446 0.961 . S
H4460 C4446 0.961 . S
H4461 C4447 0.958 . S
H4462 C4447 0.961 . S
H4463 C4447 0.960 . S
C4464 C4465 1.391 . S
C4464 C4466 1.394 . S
C4464 H4480 0.931 . S
C4465 C4464 1.391 . S
C4465 C4469 1.376 . S
C4466 C4464 1.394 . S
C4466 C4467 1.369 . S
C4466 C4470 1.531 . S
C4467 C4466 1.369 . S
C4467 C4468 1.410 . S
C4467 C4475 1.503 . S
C4468 C4467 1.410 . S
C4468 C4469 1.392 . S
C4468 C4471 1.511 . S
C4469 C4465 1.376 . S
C4469 C4468 1.392 . S
C4469 H4481 0.929 . S
C4470 C4466 1.531 . S
C4470 H4482 0.960 . S
C4470 H4483 0.962 . S
C4470 H4484 0.960 . S
C4471 C4468 1.511 . S
C4471 H4485 0.961 . S
C4471 H4486 0.961 . S
C4471 H4487 0.961 . S
C4472 C4473 1.370 . S
C4472 C4474 1.363 . S
C4472 H4488 0.931 . S
C4473 C4472 1.370 . S
C4473 C4477 1.408 . S
C4474 C4472 1.363 . S
C4474 C4475 1.370 . S
C4474 C4478 1.524 . S
C4475 C4467 1.503 . S
C4475 C4474 1.370 . S
C4475 C4476 1.403 . S
C4476 C4475 1.403 . S
C4476 C4477 1.404 . S
C4476 C4479 1.539 . S
C4477 C4473 1.408 . S
C4477 C4476 1.404 . S
C4477 H4489 0.930 . S
C4478 C4474 1.524 . S
C4478 H4490 0.956 . S
C4478 H4491 0.961 . S
C4478 H4492 0.961 . S
C4479 C4476 1.539 . S
C4479 H4493 0.958 . S
C4479 H4494 0.961 . S
C4479 H4495 0.960 . S
H4480 C4464 0.931 . S
H4481 C4469 0.929 . S
H4482 C4470 0.960 . S
H4483 C4470 0.962 . S
H4484 C4470 0.960 . S
H4485 C4471 0.961 . S
H4486 C4471 0.961 . S
H4487 C4471 0.961 . S
H4488 C4472 0.931 . S
H4489 C4477 0.930 . S
H4490 C4478 0.956 . S
H4491 C4478 0.961 . S
H4492 C4478 0.961 . S
H4493 C4479 0.958 . S
H4494 C4479 0.961 . S
H4495 C4479 0.960 . S
C4496 C4497 1.391 . S
C4496 C4498 1.394 . S
C4496 H4512 0.931 . S
C4497 C4496 1.391 . S
C4497 C4501 1.376 . S
C4498 C4496 1.394 . S
C4498 C4499 1.369 . S
C4498 C4502 1.531 . S
C4499 C4498 1.369 . S
C4499 C4500 1.410 . S
C4499 C4507 1.503 . S
C4500 C4499 1.410 . S
C4500 C4501 1.392 . S
C4500 C4503 1.511 . S
C4501 C4497 1.376 . S
C4501 C4500 1.392 . S
C4501 H4513 0.929 . S
C4502 C4498 1.531 . S
C4502 H4514 0.960 . S
C4502 H4515 0.962 . S
C4502 H4516 0.960 . S
C4503 C4500 1.511 . S
C4503 H4517 0.961 . S
C4503 H4518 0.961 . S
C4503 H4519 0.961 . S
C4504 C4505 1.370 . S
C4504 C4506 1.363 . S
C4504 H4520 0.931 . S
C4505 C4504 1.370 . S
C4505 C4509 1.408 . S
C4506 C4504 1.363 . S
C4506 C4507 1.370 . S
C4506 C4510 1.524 . S
C4507 C4499 1.503 . S
C4507 C4506 1.370 . S
C4507 C4508 1.403 . S
C4508 C4507 1.403 . S
C4508 C4509 1.404 . S
C4508 C4511 1.539 . S
C4509 C4505 1.408 . S
C4509 C4508 1.404 . S
C4509 H4521 0.930 . S
C4510 C4506 1.524 . S
C4510 H4522 0.956 . S
C4510 H4523 0.961 . S
C4510 H4524 0.961 . S
C4511 C4508 1.539 . S
C4511 H4525 0.958 . S
C4511 H4526 0.961 . S
C4511 H4527 0.960 . S
H4512 C4496 0.931 . S
H4513 C4501 0.929 . S
H4514 C4502 0.960 . S
H4515 C4502 0.962 . S
H4516 C4502 0.960 . S
H4517 C4503 0.961 . S
H4518 C4503 0.961 . S
H4519 C4503 0.961 . S
H4520 C4504 0.931 . S
H4521 C4509 0.930 . S
H4522 C4510 0.956 . S
H4523 C4510 0.961 . S
H4524 C4510 0.961 . S
H4525 C4511 0.958 . S
H4526 C4511 0.961 . S
H4527 C4511 0.960 . S
C4528 C4529 1.391 . S
C4528 C4530 1.394 . S
C4528 H4544 0.931 . S
C4529 C4528 1.391 . S
C4529 C4533 1.376 . S
C4530 C4528 1.394 . S
C4530 C4531 1.369 . S
C4530 C4534 1.531 . S
C4531 C4530 1.369 . S
C4531 C4532 1.410 . S
C4531 C4539 1.503 . S
C4532 C4531 1.410 . S
C4532 C4533 1.392 . S
C4532 C4535 1.511 . S
C4533 C4529 1.376 . S
C4533 C4532 1.392 . S
C4533 H4545 0.929 . S
C4534 C4530 1.531 . S
C4534 H4546 0.960 . S
C4534 H4547 0.962 . S
C4534 H4548 0.960 . S
C4535 C4532 1.511 . S
C4535 H4549 0.961 . S
C4535 H4550 0.961 . S
C4535 H4551 0.961 . S
C4536 C4537 1.370 . S
C4536 C4538 1.363 . S
C4536 H4552 0.931 1_565 S
C4537 C4536 1.370 . S
C4537 C4541 1.408 . S
C4538 C4536 1.363 . S
C4538 C4539 1.370 . S
C4538 C4542 1.524 . S
C4539 C4531 1.503 . S
C4539 C4538 1.370 . S
C4539 C4540 1.403 . S
C4540 C4539 1.403 . S
C4540 C4541 1.404 . S
C4540 C4543 1.539 . S
C4541 C4537 1.408 . S
C4541 C4540 1.404 . S
C4541 H4553 0.930 . S
C4542 C4538 1.524 . S
C4542 H4554 0.956 . S
C4542 H4555 0.961 . S
C4542 H4556 0.961 1_565 S
C4543 C4540 1.539 . S
C4543 H4557 0.958 . S
C4543 H4558 0.961 . S
C4543 H4559 0.960 . S
H4544 C4528 0.931 . S
H4545 C4533 0.929 . S
H4546 C4534 0.960 . S
H4547 C4534 0.962 . S
H4548 C4534 0.960 . S
H4549 C4535 0.961 . S
H4550 C4535 0.961 . S
H4551 C4535 0.961 . S
H4552 C4536 0.931 1_545 S
H4553 C4541 0.930 . S
H4554 C4542 0.956 . S
H4555 C4542 0.961 . S
H4556 C4542 0.961 1_545 S
H4557 C4543 0.958 . S
H4558 C4543 0.961 . S
H4559 C4543 0.960 . S
C4560 C4561 1.391 . S
C4560 C4562 1.394 . S
C4560 H4576 0.931 . S
C4561 C4560 1.391 . S
C4561 C4565 1.376 . S
C4562 C4560 1.394 . S
C4562 C4563 1.369 . S
C4562 C4566 1.531 . S
C4563 C4562 1.369 . S
C4563 C4564 1.410 . S
C4563 C4571 1.503 . S
C4564 C4563 1.410 . S
C4564 C4565 1.392 . S
C4564 C4567 1.511 . S
C4565 C4561 1.376 . S
C4565 C4564 1.392 . S
C4565 H4577 0.929 . S
C4566 C4562 1.531 . S
C4566 H4578 0.960 . S
C4566 H4579 0.962 . S
C4566 H4580 0.960 . S
C4567 C4564 1.511 . S
C4567 H4581 0.961 . S
C4567 H4582 0.961 . S
C4567 H4583 0.961 . S
C4568 C4569 1.370 . S
C4568 C4570 1.363 . S
C4568 H4584 0.931 . S
C4569 C4568 1.370 . S
C4569 C4573 1.408 . S
C4570 C4568 1.363 . S
C4570 C4571 1.370 . S
C4570 C4574 1.524 . S
C4571 C4563 1.503 . S
C4571 C4570 1.370 . S
C4571 C4572 1.403 . S
C4572 C4571 1.403 . S
C4572 C4573 1.404 . S
C4572 C4575 1.539 . S
C4573 C4569 1.408 . S
C4573 C4572 1.404 . S
C4573 H4585 0.930 . S
C4574 C4570 1.524 . S
C4574 H4586 0.956 . S
C4574 H4587 0.961 . S
C4574 H4588 0.961 . S
C4575 C4572 1.539 . S
C4575 H4589 0.958 . S
C4575 H4590 0.961 . S
C4575 H4591 0.960 . S
H4576 C4560 0.931 . S
H4577 C4565 0.929 . S
H4578 C4566 0.960 . S
H4579 C4566 0.962 . S
H4580 C4566 0.960 . S
H4581 C4567 0.961 . S
H4582 C4567 0.961 . S
H4583 C4567 0.961 . S
H4584 C4568 0.931 . S
H4585 C4573 0.930 . S
H4586 C4574 0.956 . S
H4587 C4574 0.961 . S
H4588 C4574 0.961 . S
H4589 C4575 0.958 . S
H4590 C4575 0.961 . S
H4591 C4575 0.960 . S
C4592 C4593 1.391 . S
C4592 C4594 1.394 . S
C4592 H4608 0.931 . S
C4593 C4592 1.391 . S
C4593 C4597 1.376 . S
C4594 C4592 1.394 . S
C4594 C4595 1.369 . S
C4594 C4598 1.531 . S
C4595 C4594 1.369 . S
C4595 C4596 1.410 . S
C4595 C4603 1.503 . S
C4596 C4595 1.410 . S
C4596 C4597 1.392 . S
C4596 C4599 1.511 . S
C4597 C4593 1.376 . S
C4597 C4596 1.392 . S
C4597 H4609 0.929 . S
C4598 C4594 1.531 . S
C4598 H4610 0.960 . S
C4598 H4611 0.962 . S
C4598 H4612 0.960 . S
C4599 C4596 1.511 . S
C4599 H4613 0.961 . S
C4599 H4614 0.961 . S
C4599 H4615 0.961 . S
C4600 C4601 1.370 1_556 S
C4600 C4602 1.363 . S
C4600 H4616 0.931 . S
C4601 C4600 1.370 1_554 S
C4601 C4605 1.408 . S
C4602 C4600 1.363 . S
C4602 C4603 1.357 1_556 S
C4602 C4606 1.539 . S
C4603 C4595 1.503 . S
C4603 C4602 1.357 1_554 S
C4603 C4604 1.403 . S
C4604 C4603 1.403 . S
C4604 C4605 1.404 . S
C4604 C4607 1.539 . S
C4605 C4601 1.408 . S
C4605 C4604 1.404 . S
C4605 H4617 0.930 . S
C4606 C4602 1.539 . S
C4606 H4618 0.956 . S
C4606 H4619 0.961 . S
C4606 H4620 0.961 . S
C4607 C4604 1.539 . S
C4607 H4621 0.958 . S
C4607 H4622 0.961 . S
C4607 H4623 0.960 . S
H4608 C4592 0.931 . S
H4609 C4597 0.929 . S
H4610 C4598 0.960 . S
H4611 C4598 0.962 . S
H4612 C4598 0.960 . S
H4613 C4599 0.961 . S
H4614 C4599 0.961 . S
H4615 C4599 0.961 . S
H4616 C4600 0.931 . S
H4617 C4605 0.930 . S
H4618 C4606 0.956 . S
H4619 C4606 0.961 . S
H4620 C4606 0.961 . S
H4621 C4607 0.958 . S
H4622 C4607 0.961 . S
H4623 C4607 0.960 . S
C4624 C4625 1.391 . S
C4624 C4626 1.394 . S
C4624 H4640 0.931 . S
C4625 C4624 1.391 . S
C4625 C4629 1.376 . S
C4626 C4624 1.394 . S
C4626 C4627 1.369 . S
C4626 C4630 1.531 . S
C4627 C4626 1.369 . S
C4627 C4628 1.410 . S
C4627 C4635 1.503 . S
C4628 C4627 1.410 . S
C4628 C4629 1.392 . S
C4628 C4631 1.511 . S
C4629 C4625 1.376 . S
C4629 C4628 1.392 . S
C4629 H4641 0.929 . S
C4630 C4626 1.531 . S
C4630 H4642 0.960 . S
C4630 H4643 0.962 . S
C4630 H4644 0.960 . S
C4631 C4628 1.511 . S
C4631 H4645 0.961 . S
C4631 H4646 0.961 . S
C4631 H4647 0.961 . S
C4632 C4633 1.370 . S
C4632 C4634 1.363 . S
C4632 H4648 0.931 . S
C4633 C4632 1.370 . S
C4633 C4637 1.408 . S
C4634 C4632 1.363 . S
C4634 C4635 1.370 . S
C4634 C4638 1.524 . S
C4635 C4627 1.503 . S
C4635 C4634 1.370 . S
C4635 C4636 1.403 . S
C4636 C4635 1.403 . S
C4636 C4637 1.404 . S
C4636 C4639 1.539 . S
C4637 C4633 1.408 . S
C4637 C4636 1.404 . S
C4637 H4649 0.930 . S
C4638 C4634 1.524 . S
C4638 H4650 0.956 . S
C4638 H4651 0.961 . S
C4638 H4652 0.961 . S
C4639 C4636 1.539 . S
C4639 H4653 0.958 . S
C4639 H4654 0.961 . S
C4639 H4655 0.960 . S
H4640 C4624 0.931 . S
H4641 C4629 0.929 . S
H4642 C4630 0.960 . S
H4643 C4630 0.962 . S
H4644 C4630 0.960 . S
H4645 C4631 0.961 . S
H4646 C4631 0.961 . S
H4647 C4631 0.961 . S
H4648 C4632 0.931 . S
H4649 C4637 0.930 . S
H4650 C4638 0.956 . S
H4651 C4638 0.961 . S
H4652 C4638 0.961 . S
H4653 C4639 0.958 . S
H4654 C4639 0.961 . S
H4655 C4639 0.960 . S
C4656 C4657 1.391 . S
C4656 C4658 1.394 . S
C4656 H4672 0.931 . S
C4657 C4656 1.391 . S
C4657 C4661 1.376 . S
C4658 C4656 1.394 . S
C4658 C4659 1.369 . S
C4658 C4662 1.531 1_554 S
C4659 C4658 1.369 . S
C4659 C4660 1.410 . S
C4659 C4667 1.503 . S
C4660 C4659 1.410 . S
C4660 C4661 1.392 . S
C4660 C4663 1.511 . S
C4661 C4657 1.376 . S
C4661 C4660 1.392 . S
C4661 H4673 0.929 . S
C4662 C4658 1.531 1_556 S
C4662 H4674 0.960 . S
C4662 H4675 0.962 . S
C4662 H4676 0.960 . S
C4663 C4660 1.511 . S
C4663 H4677 0.961 . S
C4663 H4678 0.961 . S
C4663 H4679 0.961 . S
C4664 C4665 1.370 . S
C4664 C4666 1.363 . S
C4664 H4680 0.931 . S
C4665 C4664 1.370 . S
C4665 C4669 1.408 . S
C4666 C4664 1.363 . S
C4666 C4667 1.370 . S
C4666 C4670 1.524 . S
C4667 C4659 1.503 . S
C4667 C4666 1.370 . S
C4667 C4668 1.403 . S
C4668 C4667 1.403 . S
C4668 C4669 1.404 . S
C4668 C4671 1.539 . S
C4669 C4665 1.408 . S
C4669 C4668 1.404 . S
C4669 H4681 0.930 . S
C4670 C4666 1.524 . S
C4670 H4682 0.956 . S
C4670 H4683 0.961 . S
C4670 H4684 0.961 . S
C4671 C4668 1.539 . S
C4671 H4685 0.958 1_554 S
C4671 H4686 0.961 . S
C4671 H4687 0.960 . S
H4672 C4656 0.931 . S
H4673 C4661 0.929 . S
H4674 C4662 0.960 . S
H4675 C4662 0.962 . S
H4676 C4662 0.960 . S
H4677 C4663 0.961 . S
H4678 C4663 0.961 . S
H4679 C4663 0.961 . S
H4680 C4664 0.931 . S
H4681 C4669 0.930 . S
H4682 C4670 0.956 . S
H4683 C4670 0.961 . S
H4684 C4670 0.961 . S
H4685 C4671 0.958 1_556 S
H4686 C4671 0.961 . S
H4687 C4671 0.960 . S
C4688 C4689 1.391 . S
C4688 C4690 1.394 . S
C4688 H4704 0.931 . S
C4689 C4688 1.391 . S
C4689 C4693 1.376 . S
C4690 C4688 1.394 . S
C4690 C4691 1.369 . S
C4690 C4694 1.531 . S
C4691 C4690 1.369 . S
C4691 C4692 1.410 . S
C4691 C4699 1.503 . S
C4692 C4691 1.410 . S
C4692 C4693 1.392 . S
C4692 C4695 1.511 . S
C4693 C4689 1.376 . S
C4693 C4692 1.392 . S
C4693 H4705 0.929 . S
C4694 C4690 1.531 . S
C4694 H4706 0.960 . S
C4694 H4707 0.962 . S
C4694 H4708 0.960 . S
C4695 C4692 1.511 . S
C4695 H4709 0.961 . S
C4695 H4710 0.961 . S
C4695 H4711 0.961 . S
C4696 C4697 1.370 . S
C4696 C4698 1.363 . S
C4696 H4712 0.931 . S
C4697 C4696 1.370 . S
C4697 C4701 1.408 . S
C4698 C4696 1.363 . S
C4698 C4699 1.370 . S
C4698 C4702 1.524 . S
C4699 C4691 1.503 . S
C4699 C4698 1.370 . S
C4699 C4700 1.403 . S
C4700 C4699 1.403 . S
C4700 C4701 1.404 . S
C4700 C4703 1.539 . S
C4701 C4697 1.408 . S
C4701 C4700 1.404 . S
C4701 H4713 0.930 . S
C4702 C4698 1.524 . S
C4702 H4714 0.956 . S
C4702 H4715 0.961 . S
C4702 H4716 0.961 . S
C4703 C4700 1.539 . S
C4703 H4717 0.958 . S
C4703 H4718 0.961 . S
C4703 H4719 0.960 . S
H4704 C4688 0.931 . S
H4705 C4693 0.929 . S
H4706 C4694 0.960 . S
H4707 C4694 0.962 . S
H4708 C4694 0.960 . S
H4709 C4695 0.961 . S
H4710 C4695 0.961 . S
H4711 C4695 0.961 . S
H4712 C4696 0.931 . S
H4713 C4701 0.930 . S
H4714 C4702 0.956 . S
H4715 C4702 0.961 . S
H4716 C4702 0.961 . S
H4717 C4703 0.958 . S
H4718 C4703 0.961 . S
H4719 C4703 0.960 . S
C4720 C4721 1.391 . S
C4720 C4722 1.394 . S
C4720 H4736 0.931 . S
C4721 C4720 1.391 . S
C4721 C4725 1.376 . S
C4722 C4720 1.394 . S
C4722 C4723 1.369 . S
C4722 C4726 1.531 . S
C4723 C4722 1.369 . S
C4723 C4724 1.410 . S
C4723 C4731 1.503 . S
C4724 C4723 1.410 . S
C4724 C4725 1.392 . S
C4724 C4727 1.511 . S
C4725 C4721 1.376 . S
C4725 C4724 1.392 . S
C4725 H4737 0.929 . S
C4726 C4722 1.531 . S
C4726 H4738 0.960 . S
C4726 H4739 0.962 . S
C4726 H4740 0.960 . S
C4727 C4724 1.511 . S
C4727 H4741 0.961 . S
C4727 H4742 0.961 . S
C4727 H4743 0.961 . S
C4728 C4729 1.370 . S
C4728 C4730 1.363 . S
C4728 H4744 0.931 . S
C4729 C4728 1.370 . S
C4729 C4733 1.408 . S
C4730 C4728 1.363 . S
C4730 C4731 1.370 . S
C4730 C4734 1.524 . S
C4731 C4723 1.503 . S
C4731 C4730 1.370 . S
C4731 C4732 1.403 . S
C4732 C4731 1.403 . S
C4732 C4733 1.404 . S
C4732 C4735 1.539 . S
C4733 C4729 1.408 . S
C4733 C4732 1.404 . S
C4733 H4745 0.930 . S
C4734 C4730 1.524 . S
C4734 H4746 0.956 . S
C4734 H4747 0.961 . S
C4734 H4748 0.961 . S
C4735 C4732 1.539 . S
C4735 H4749 0.958 . S
C4735 H4750 0.961 . S
C4735 H4751 0.960 . S
H4736 C4720 0.931 . S
H4737 C4725 0.929 . S
H4738 C4726 0.960 . S
H4739 C4726 0.962 . S
H4740 C4726 0.960 . S
H4741 C4727 0.961 . S
H4742 C4727 0.961 . S
H4743 C4727 0.961 . S
H4744 C4728 0.931 . S
H4745 C4733 0.930 . S
H4746 C4734 0.956 . S
H4747 C4734 0.961 . S
H4748 C4734 0.961 . S
H4749 C4735 0.958 . S
H4750 C4735 0.961 . S
H4751 C4735 0.960 . S
C1681 C111 1.753 . S
C1689 C392 1.650 . S
C1713 C64 2.192 . S
C1721 C483 2.211 . S
C1745 C77 1.495 . S
C1753 C560 1.432 . S
C1785 C658 1.289 . S
C1777 C95 1.406 . S
C1809 C25 1.368 . S
C1817 C742 1.310 . S
C1849 C814 0.977 . S
C1841 C36 0.960 . S
C1881 C903 0.897 . S
C1873 C50 0.856 . S
C1905 C11 1.449 . S
C1913 C980 1.230 . S
C1945 C399 1.972 . S
C1937 C237 1.975 . S
C1969 C245 0.667 . S
C1977 C490 0.660 . S
C2009 C567 1.060 . S
C2001 C279 0.974 . S
C2041 C644 1.495 . S
C2033 C175 1.597 . S
C2065 C231 1.979 . S
C2073 C728 1.820 . S
C2105 C830 1.030 . S
C2097 C251 1.115 . S
C2137 C910 0.779 . S
C2129 C273 0.757 . S
C2169 C987 1.469 . S
C2161 C181 1.571 . S
C2201 C406 1.309 . S
C2193 C165 1.370 . S
C2225 C288 1.905 . S
C2233 C1071 1.891 1_556 S
C2265 C1159 2.186 . S
C2257 C333 2.353 . S
C2297 C1232 0.487 . S
C2289 C316 0.443 . S
C2321 C123 0.839 . S
C2329 C994 0.847 . S
C2353 C137 1.366 . S
C2361 C574 1.305 . S
C2385 C330 2.154 . S
C2393 C1323 2.182 . S
C2425 C1400 0.685 . S
C2417 C302 0.655 . S
C2457 C403 1.760 . S
C2449 C63 1.916 . S
C2489 C1418 2.239 . S
C2481 C106 2.279 . S
C2513 C97 1.551 . S
C2521 C571 1.513 . S
C2545 C81 1.477 . S
C2553 C1318 1.338 . S
C2585 C730 1.421 . S
C2577 C13 1.381 . S
C2609 C55 0.980 . S
C2617 C1162 0.972 . S
C2649 C914 0.959 1_565 S
C2641 C35 0.959 . S
C2681 C1495 1.459 . S
C2673 C21 1.572 . S
C2713 C410 2.089 . S
C2705 C147 2.188 . S
C2745 C1402 0.667 . S
C2737 C321 0.635 . S
C2769 C119 1.138 . S
C2777 C578 1.109 . S
C2801 C293 1.663 . S
C2809 C1327 1.612 . S
C2833 C153 1.940 . S
C2841 C739 2.014 . S
C2873 C1155 1.080 . S
C2865 C315 1.178 . S
C2897 C125 0.742 . S
C2905 C898 0.751 . S
C2929 C287 1.715 . S
C2937 C1502 1.558 . S
C2961 C193 1.397 . S
C2969 C394 1.364 . S
C2993 C176 1.931 . S
C3001 C1082 1.914 . S
C3025 C263 2.309 . S
C3033 C812 2.122 . S
C3057 C246 0.728 . S
C3065 C1243 0.654 . S
C3097 C1486 0.851 . S
C3089 C277 0.797 1_565 S
C3121 C221 1.380 . S
C3129 C562 1.346 . S
C3161 C662 2.232 . S
C3153 C260 2.275 . S
C3193 C487 0.831 . S
C3185 C204 0.878 . S
C3217 C83 1.754 . S
C3225 C1568 1.645 . S
C3257 C1407 2.204 . S
C3249 C92 2.168 . S
C3281 C105 1.515 . S
C3289 C1652 1.443 . S
C3313 C67 1.415 . S
C3321 C1330 1.266 . S
C3345 C53 1.373 . S
C3353 C1078 1.328 . S
C3385 C1150 0.947 . S
C3377 C8 1.015 . S
C3417 C1239 0.896 . S
C3409 C22 0.843 . S
C3449 C1484 1.253 . S
C3441 C39 1.423 . S
C3481 C1575 1.972 . S
C3473 C265 1.974 . S
C3505 C189 0.611 . S
C3513 C1414 0.667 . S
C3545 C1659 1.071 . S
C3537 C209 1.074 . S
C3577 C1316 1.502 . S
C3569 C217 1.596 . S
C3609 C1064 1.820 . S
C3601 C259 1.979 . S
C3633 C195 1.011 . S
C3641 C1166 1.069 . S
C3673 C1246 0.776 . S
C3665 C203 0.776 . S
C3697 C223 1.518 . S
C3705 C1491 1.442 . S
C3737 C1582 1.288 . S
C3729 C319 1.390 . S
C3761 C134 1.859 . S
C3769 C735 1.874 . S
C3801 C823 2.161 . S
C3793 C151 2.346 . S
C3833 C896 0.477 . S
C3825 C162 0.385 . S
C3865 C1498 0.866 . S
C3857 C305 0.871 . S
C3889 C291 1.364 1_554 S
C3897 C1666 1.300 . S
C3929 C651 2.179 . S
C3921 C148 2.185 . S
C3961 C476 0.728 . S
C3953 C120 0.724 . S
C3985 C91 1.904 . S
C3993 C1579 1.762 . S
C4025 C494 2.238 . S
C4017 C78 2.276 . S
C4049 C69 1.562 . S
C4057 C1663 1.508 . S
C4081 C109 1.452 . S
C4089 C646 1.337 . S
C4113 C41 1.295 . S
C4121 C1066 1.394 . S
C4153 C826 0.916 . S
C4145 C27 0.927 . S
C4177 C7 0.988 . S
C4185 C1250 0.974 . S
C4209 C49 1.608 . S
C4217 C991 1.420 . S
C4249 C1586 2.087 . S
C4241 C329 2.184 . S
C4273 C167 0.587 . S
C4281 C478 0.642 . S
C4313 C1670 1.078 . S
C4305 C301 1.105 . S
C4337 C139 1.623 . S
C4345 C655 1.644 . S
C4369 C335 1.966 . S
C4377 C1075 2.007 . S
C4409 C819 1.101 . S
C4401 C161 1.149 . S
C4433 C307 0.763 . S
C4441 C1234 0.756 1_655 S
C4473 C998 1.556 . S
C4465 C133 1.714 . S
C4505 C1570 1.354 . S
C4497 C249 1.438 . S
C4537 C746 1.896 1_665 S
C4529 C218 1.943 . S
C4561 C235 2.305 . S
C4569 C1148 2.146 . S
C4601 C907 0.651 . S
C4593 C190 0.584 . S
C4625 C207 0.856 . S
C4633 C982 0.870 . S
C4657 C179 1.353 . S
C4665 C1654 1.339 1_554 S
C4697 C1334 2.245 . S
C4689 C232 2.237 1_565 S
C4729 C1411 0.866 . S
C4721 C274 0.868 . S
