# Generated by pormake.
# Topology pth, (4,4)-cn, num edge types: 1
# Building blocks:
#     Node 0, Type 0, BuildingBlock: TATPOV_clean_sbu_0, # of connection points: 4
#     Node 1, Type 0, BuildingBlock: TATPOV_clean_sbu_0, # of connection points: 4
#     Node 2, Type 0, BuildingBlock: TATPOV_clean_sbu_0, # of connection points: 4
#     Node 3, Type 1, BuildingBlock: MUDLON_clean_sbu_0, # of connection points: 4
#     Node 4, Type 1, BuildingBlock: MUDLON_clean_sbu_0, # of connection points: 4
#     Node 5, Type 1, BuildingBlock: MUDLON_clean_sbu_0, # of connection points: 4
#     Edge 6, Type (0, 1), BuildingBlock: ZUJKAS_clean_linker_0, # of connection points: 2
#     Edge 7, Type (0, 1), BuildingBlock: ZUJKAS_clean_linker_0, # of connection points: 2
#     Edge 8, Type (0, 1), BuildingBlock: ZUJKAS_clean_linker_0, # of connection points: 2
#     Edge 9, Type (0, 1), BuildingBlock: ZUJKAS_clean_linker_0, # of connection points: 2
#     Edge 10, Type (0, 1), BuildingBlock: ZUJKAS_clean_linker_0, # of connection points: 2
#     Edge 11, Type (0, 1), BuildingBlock: ZUJKAS_clean_linker_0, # of connection points: 2
#     Edge 12, Type (0, 1), BuildingBlock: ZUJKAS_clean_linker_0, # of connection points: 2
#     Edge 13, Type (0, 1), BuildingBlock: ZUJKAS_clean_linker_0, # of connection points: 2
#     Edge 14, Type (0, 1), BuildingBlock: ZUJKAS_clean_linker_0, # of connection points: 2
#     Edge 15, Type (0, 1), BuildingBlock: ZUJKAS_clean_linker_0, # of connection points: 2
#     Edge 16, Type (0, 1), BuildingBlock: ZUJKAS_clean_linker_0, # of connection points: 2
#     Edge 17, Type (0, 1), BuildingBlock: ZUJKAS_clean_linker_0, # of connection points: 2
# Relax obj value: 0.071
# Max RMSD: 0.185
# Mean RMSD: 0.119
data_MOF--net-pth--node1-TATPOV_clean_sbu_0--node2-MUDLON_clean_sbu_0--edge1-ZUJKAS_clean_linker_0
_symmetry_space_group_name_H-M    P1
_symmetry_Int_Tables_number       1
_symmetry_cell_setting            triclinic
loop_
_symmetry_equiv_pos_as_xyz
'x, y, z'
_cell_length_a     29.525247
_cell_length_b     29.249641
_cell_length_c     76.48512
_cell_angle_alpha  92.67579
_cell_angle_beta   91.95348
_cell_angle_gamma 120.94626
loop_
_atom_site_label
_atom_site_type_symbol
_atom_site_fract_x
_atom_site_fract_y
_atom_site_fract_z
_atom_type_partial_charge
Zn0 Zn 0.13106 0.02187 0.07848 0.0
Zn1 Zn 0.10461 0.08328 0.097 0.0
O2 O 0.11917 0.04182 0.11568 0.0
O3 O 0.13899 0.99002 0.10016 0.0
O4 O 0.08623 0.13049 0.11164 0.0
O5 O 0.19427 0.08689 0.0702 0.0
O6 O 0.16924 0.1374 0.08388 0.0
C7 C 0.13183 0.00612 0.11487 0.0
C8 C 0.02644 1.00046 0.06826 0.0
O9 O 0.03738 0.03644 0.08051 0.0
O10 O 0.06016 0.98748 0.06473 0.0
C11 C 0.05416 0.11133 0.12367 0.0
O12 O 0.03283 0.06045 0.12635 0.0
C13 C 0.20091 0.13257 0.07407 0.0
Zn14 Zn 0.1558 0.11816 0.41321 0.0
Zn15 Zn 0.0704 0.09036 0.43068 0.0
O16 O 0.13031 0.10726 0.44978 0.0
O17 O 0.20237 0.13862 0.43526 0.0
O18 O 0.00729 0.07069 0.44515 0.0
O19 O 0.14794 0.17436 0.40193 0.0
O20 O 0.07948 0.15474 0.41738 0.0
C21 C 0.18028 0.12764 0.4496 0.0
C22 C 0.07145 0.01013 0.40365 0.0
O23 O 0.04601 0.02277 0.41401 0.0
O24 O 0.11985 0.04309 0.40171 0.0
C25 C 0.9967 0.03851 0.45713 0.0
O26 O 0.02643 0.01768 0.45958 0.0
C27 C 0.11183 0.18297 0.40623 0.0
Zn28 Zn 0.123 0.97748 0.77945 0.0
Zn29 Zn 0.06158 0.00373 0.76099 0.0
O30 O 0.09892 0.98469 0.74196 0.0
O31 O 0.14428 0.95702 0.75695 0.0
O32 O 0.01411 0.0216 0.74693 0.0
O33 O 0.05945 0.92143 0.79085 0.0
O34 O 0.00888 0.94178 0.77536 0.0
C35 C 0.12923 0.9656 0.74243 0.0
C36 C 0.14954 0.08682 0.78731 0.0
O37 O 0.11071 0.0733 0.77623 0.0
O38 O 0.16355 0.05361 0.79064 0.0
C39 C 0.03155 0.05384 0.73487 0.0
O40 O 0.08159 0.07596 0.73149 0.0
C41 C 0.01407 0.9138 0.78669 0.0
Mg42 Mg 0.01578 0.561 0.26293 0.0
C43 C 0.02258 0.51483 0.29593 0.0
O44 O 0.97467 0.50722 0.29561 0.0
C45 C 0.08494 0.64267 0.23787 0.0
O46 O 0.07591 0.59929 0.22873 0.0
C47 C 0.97445 0.45168 0.24419 0.0
O48 O 0.96787 0.43785 0.26042 0.0
O49 O 0.98988 0.49984 0.24126 0.0
O50 O 0.05201 0.53898 0.28365 0.0
O51 O 0.95637 0.57152 0.27544 0.0
C52 C 0.94742 0.60779 0.27118 0.0
O53 O 0.96502 0.63063 0.25652 0.0
O54 O 0.06817 0.63861 0.25314 0.0
Mg55 Mg 0.56641 0.03971 0.59702 0.0
C56 C 0.51546 0.06162 0.56777 0.0
O57 O 0.511 0.01578 0.56282 0.0
C58 C 0.63334 0.07489 0.63101 0.0
O59 O 0.58633 0.0427 0.63653 0.0
C60 C 0.45184 0.96866 0.6079 0.0
O61 O 0.43815 0.96702 0.59127 0.0
O62 O 0.50062 0.99115 0.61291 0.0
O63 O 0.54085 0.08552 0.58232 0.0
O64 O 0.58875 0.99877 0.57771 0.0
C65 C 0.62475 0.98855 0.58154 0.0
O66 O 0.64292 0.99567 0.59797 0.0
O67 O 0.63691 0.08549 0.61498 0.0
Mg68 Mg 0.53952 0.5857 0.92819 0.0
C69 C 0.42729 0.51997 0.91268 0.0
O70 O 0.42168 0.49954 0.92795 0.0
C71 C 0.60589 0.70029 0.94267 0.0
O72 O 0.62695 0.70354 0.92759 0.0
C73 C 0.53584 0.52817 0.96075 0.0
O74 O 0.57355 0.57642 0.96666 0.0
O75 O 0.51757 0.5202 0.94488 0.0
O76 O 0.47141 0.56101 0.90991 0.0
O77 O 0.60548 0.60293 0.91223 0.0
C78 C 0.59721 0.58901 0.89587 0.0
O79 O 0.54823 0.55873 0.88922 0.0
O80 O 0.56484 0.6565 0.94578 0.0
H81 H 0.99566 0.08478 0.15245 0.0
H82 H 0.97711 0.14213 0.17136 0.0
H83 H 0.06618 0.27343 0.13938 0.0
H84 H 0.08504 0.21633 0.12032 0.0
H85 H 0.05618 0.24162 0.19005 0.0
H86 H 0.92256 0.26727 0.14391 0.0
H87 H 0.93549 0.21351 0.14072 0.0
H88 H 0.98416 0.27998 0.13577 0.0
C89 C 0.01107 0.12574 0.14933 0.0
C90 C 0.04182 0.14592 0.13484 0.0
C91 C 1.00041 0.15845 0.16017 0.0
C92 C 0.01974 0.21181 0.15666 0.0
C93 C 0.05017 0.2321 0.14216 0.0
H94 H 0.00797 0.47341 0.21093 0.0
H95 H 0.01684 0.4144 0.18938 0.0
C96 C 0.06116 0.19948 0.13134 0.0
C97 C 0.01007 0.24675 0.1687 0.0
H98 H 0.94737 0.31753 0.17134 0.0
C99 C 0.03224 0.25808 0.186 0.0
C100 C 0.97919 0.26848 0.16331 0.0
C101 C 0.95355 0.25655 0.14496 0.0
C102 C 0.02491 0.29108 0.19804 0.0
C103 C 0.99323 0.31215 0.19277 0.0
C104 C 0.97134 0.30111 0.1754 0.0
C105 C 0.98304 0.34619 0.20512 0.0
C106 C 0.05235 0.30411 0.21616 0.0
C107 C 0.95918 0.32689 0.22083 0.0
C108 C 0.95433 0.36058 0.23322 0.0
C109 C 0.97258 0.41412 0.23004 0.0
C110 C 0.99356 0.43244 0.21382 0.0
C111 C 0.99875 0.39877 0.20149 0.0
H112 H 0.08631 0.29766 0.21648 0.0
H113 H 0.06703 0.34621 0.22087 0.0
H114 H 0.02391 0.27759 0.22543 0.0
H115 H 0.94541 0.28603 0.22371 0.0
H116 H 0.93751 0.345 0.24548 0.0
H117 H 0.92268 0.06851 0.45446 0.0
H118 H 0.85346 0.05136 0.47455 0.0
H119 H 0.9031 0.96458 0.50609 0.0
H120 H 0.97206 0.98111 0.48612 0.0
H121 H 0.76836 0.94142 0.48715 0.0
H122 H 0.91135 0.0923 0.53885 0.0
H123 H 0.92569 0.09471 0.51602 0.0
H124 H 0.92804 0.04627 0.52894 0.0
C125 C 0.91871 0.04552 0.46562 0.0
C126 C 0.95313 0.02641 0.46872 0.0
C127 C 0.87906 0.03566 0.47704 0.0
C128 C 0.87346 0.00698 0.49183 0.0
C129 C 0.90702 0.98703 0.49479 0.0
H130 H 0.69886 0.95945 0.58491 0.0
H131 H 0.75471 0.95718 0.56244 0.0
C132 C 0.94638 0.99651 0.48333 0.0
C133 C 0.83383 0.99943 0.50455 0.0
H134 H 0.82253 0.04086 0.54574 0.0
C135 C 0.77999 0.96312 0.49997 0.0
C136 C 0.84934 0.02759 0.52125 0.0
C137 C 0.90668 0.06772 0.52664 0.0
C138 C 0.74115 0.95367 0.51182 0.0
C139 C 0.75659 0.98234 0.52851 0.0
C140 C 0.8106 0.01866 0.53301 0.0
C141 C 0.71778 0.97659 0.54147 0.0
C142 C 0.68419 0.91218 0.50647 0.0
C143 C 0.67756 0.98712 0.53713 0.0
C144 C 0.64508 0.98778 0.54994 0.0
C145 C 0.65277 0.97887 0.56742 0.0
C146 C 0.69185 0.96652 0.57159 0.0
C147 C 0.72395 0.96536 0.55875 0.0
H148 H 0.68112 0.88261 0.49612 0.0
H149 H 0.66288 0.89049 0.51784 0.0
H150 H 0.66406 0.93221 0.50107 0.0
H151 H 0.67272 0.99718 0.52403 0.0
H152 H 0.61571 0.99792 0.54629 0.0
H153 H 0.91192 0.89313 0.78437 0.0
H154 H 0.83835 0.83176 0.80132 0.0
H155 H 0.93853 0.78381 0.8266 0.0
H156 H 0.01178 0.8442 0.8097 0.0
H157 H 0.83617 0.69783 0.81628 0.0
H158 H 0.83243 0.86278 0.85408 0.0
H159 H 0.82573 0.86265 0.83063 0.0
H160 H 0.88657 0.87415 0.84102 0.0
C161 C 0.91815 0.86921 0.79343 0.0
C162 C 0.96793 0.87399 0.79577 0.0
C163 C 0.87617 0.83438 0.80317 0.0
C164 C 0.88328 0.80387 0.81541 0.0
C165 C 0.93226 0.80714 0.81728 0.0
H166 H 0.70176 0.6626 0.90475 0.0
H167 H 0.77154 0.71104 0.88484 0.0
C168 C 0.97415 0.84187 0.80762 0.0
C169 C 0.84054 0.76972 0.82674 0.0
H170 H 0.76768 0.77472 0.85968 0.0
C171 C 0.82099 0.71453 0.82574 0.0
C172 C 0.82152 0.79181 0.83926 0.0
C173 C 0.84283 0.85113 0.84149 0.0
C174 C 0.78264 0.68074 0.83686 0.0
C175 C 0.763 0.70274 0.84917 0.0
C176 C 0.78272 0.75795 0.8502 0.0
C177 C 0.72201 0.66945 0.86117 0.0
C178 C 0.76437 0.62205 0.83562 0.0
C179 C 0.6712 0.62945 0.85447 0.0
C180 C 0.63125 0.60154 0.86582 0.0
C181 C 0.64126 0.61338 0.88409 0.0
C182 C 0.69269 0.65234 0.89077 0.0
C183 C 0.7326 0.68022 0.87941 0.0
H184 H 0.79263 0.61409 0.82887 0.0
H185 H 0.75933 0.60662 0.84885 0.0
H186 H 0.72554 0.59943 0.82799 0.0
H187 H 0.66189 0.62109 0.84044 0.0
H188 H 0.59207 0.57197 0.86021 0.0
H189 H 0.15933 0.93069 0.11689 0.0
H190 H 0.1621 0.88538 0.14238 0.0
H191 H 0.11954 0.98038 0.17477 0.0
H192 H 0.11552 0.02567 0.14902 0.0
H193 H 0.22135 0.92256 0.17407 0.0
H194 H 1.00597 0.82781 0.18359 0.0
H195 H 0.03457 0.86046 0.16403 0.0
H196 H 0.04315 0.89952 0.18404 0.0
C197 C 0.15062 0.94227 0.1294 0.0
C198 C 0.13668 0.98158 0.13084 0.0
C199 C 0.15245 0.91635 0.14401 0.0
C200 C 0.14039 0.92894 0.16044 0.0
C201 C 0.12808 0.96935 0.16213 0.0
H202 H 0.08672 0.73331 0.24999 0.0
H203 H 0.10797 0.81141 0.23377 0.0
C204 C 0.12607 0.99538 0.14743 0.0
C205 C 0.13917 0.89787 0.17542 0.0
H206 H 0.05454 0.80332 0.20164 0.0
C207 C 0.18504 0.897 0.18027 0.0
C208 C 0.0918 0.86462 0.18354 0.0
C209 C 0.04089 0.8626 0.17851 0.0
C210 C 0.18434 0.86241 0.19254 0.0
C211 C 0.1364 0.82741 0.20001 0.0
C212 C 0.09125 0.83023 0.19587 0.0
C213 C 0.13066 0.78409 0.2108 0.0
C214 C 0.23466 0.86291 0.19716 0.0
C215 C 0.13706 0.74315 0.20334 0.0
C216 C 0.12478 0.69838 0.21252 0.0
C217 C 0.10573 0.6936 0.22934 0.0
C218 C 0.10153 0.73579 0.23709 0.0
C219 C 0.11351 0.78043 0.22784 0.0
H220 H 0.27022 0.90179 0.19474 0.0
H221 H 0.23709 0.855 0.21112 0.0
H222 H 0.23536 0.83118 0.18885 0.0
H223 H 0.1493 0.74465 0.19009 0.0
H224 H 0.12835 0.66662 0.20616 0.0
H225 H 0.15457 0.06538 0.47745 0.0
H226 H 0.21582 0.07091 0.50105 0.0
H227 H 0.34116 0.21598 0.48193 0.0
H228 H 0.28085 0.20874 0.45785 0.0
H229 H 0.37274 0.15048 0.48469 0.0
H230 H 0.28359 0.15299 0.5467 0.0
H231 H 0.23722 0.09707 0.53216 0.0
H232 H 0.26048 0.16408 0.52609 0.0
C233 C 0.19485 0.09911 0.47861 0.0
C234 C 0.21318 0.13642 0.46581 0.0
C235 C 0.22983 0.10252 0.49218 0.0
C236 C 0.28323 0.14417 0.49343 0.0
C237 C 0.30032 0.1834 0.48127 0.0
H238 H 0.5069 0.15008 0.57498 0.0
H239 H 0.45509 0.17834 0.5576 0.0
C240 C 0.26583 0.17928 0.46752 0.0
C241 C 0.3228 0.1429 0.50568 0.0
H242 H 0.34633 0.12277 0.54786 0.0
C243 C 0.36726 0.14545 0.49857 0.0
C244 C 0.31649 0.13708 0.52387 0.0
C245 C 0.27213 0.13826 0.53267 0.0
C246 C 0.40398 0.13984 0.50888 0.0
C247 C 0.3953 0.12962 0.52671 0.0
C248 C 0.35253 0.12984 0.53411 0.0
C249 C 0.42752 0.11396 0.5373 0.0
C250 C 0.45142 0.14417 0.50046 0.0
C251 C 0.4288 0.06834 0.53172 0.0
C252 C 0.4584 0.05245 0.54146 0.0
C253 C 0.48703 0.08146 0.55718 0.0
C254 C 0.48562 0.12715 0.56286 0.0
C255 C 0.45588 0.14317 0.55301 0.0
H256 H 0.46196 0.16948 0.48915 0.0
H257 H 0.48643 0.16127 0.51 0.0
H258 H 0.4419 0.10376 0.49546 0.0
H259 H 0.40631 0.0445 0.51986 0.0
H260 H 0.45814 0.01683 0.53673 0.0
H261 H 0.12995 0.16856 0.78433 0.0
H262 H 0.17348 0.25515 0.80151 0.0
H263 H 0.27339 0.21182 0.82961 0.0
H264 H 0.23115 0.1262 0.81243 0.0
H265 H 0.17757 0.27552 0.83692 0.0
H266 H 0.38059 0.35915 0.81582 0.0
H267 H 0.32413 0.30199 0.80418 0.0
H268 H 0.3558 0.29378 0.82333 0.0
C269 C 0.16165 0.17778 0.79402 0.0
C270 C 0.1772 0.14046 0.79693 0.0
C271 C 0.18641 0.22723 0.80384 0.0
C272 C 0.22734 0.24037 0.81663 0.0
C273 C 0.24289 0.20321 0.81951 0.0
H274 H 0.33636 0.42291 0.91315 0.0
H275 H 0.28298 0.36258 0.88801 0.0
C276 C 0.21836 0.154 0.80972 0.0
C277 C 0.25221 0.29144 0.82776 0.0
H278 H 0.37264 0.39535 0.84383 0.0
C279 C 0.22017 0.30234 0.8382 0.0
C280 C 0.30764 0.32721 0.82917 0.0
C281 C 0.34393 0.32025 0.81737 0.0
C282 C 0.24241 0.34595 0.85087 0.0
C283 C 0.29817 0.37874 0.8534 0.0
C284 C 0.32991 0.36994 0.8421 0.0
C285 C 0.3248 0.41885 0.86863 0.0
C286 C 0.20586 0.35584 0.86155 0.0
C287 C 0.36614 0.47097 0.86625 0.0
C288 C 0.39745 0.50552 0.88068 0.0
C289 C 0.38809 0.48848 0.89779 0.0
C290 C 0.34465 0.43749 0.90019 0.0
C291 C 0.31368 0.40292 0.88577 0.0
H292 H 0.16785 0.34232 0.85391 0.0
H293 H 0.19659 0.33252 0.87331 0.0
H294 H 0.22408 0.3988 0.8659 0.0
H295 H 0.37562 0.48415 0.85316 0.0
H296 H 0.43059 0.54452 0.87835 0.0
H297 H 0.05388 0.11363 0.70641 0.0
H298 H 0.99404 0.13134 0.68906 0.0
H299 H 0.8686 0.03849 0.7225 0.0
H300 H 0.92802 0.02062 0.73995 0.0
H301 H 0.89606 0.05265 0.67107 0.0
H302 H 0.86864 0.17974 0.72052 0.0
H303 H 0.92286 0.16787 0.72242 0.0
H304 H 0.85803 0.11804 0.72818 0.0
C305 C 0.01367 0.09726 0.71017 0.0
C306 C 0.99578 0.06573 0.72459 0.0
C307 C 0.97956 0.10745 0.70023 0.0
C308 C 0.92714 0.08688 0.70464 0.0
C309 C 0.9092 0.0556 0.71907 0.0
H310 H 0.63733 0.05126 0.66487 0.0
H311 H 0.71341 0.06176 0.68213 0.0
C312 C 0.94316 0.04514 0.72896 0.0
C313 C 0.89023 0.09555 0.69365 0.0
H314 H 0.80842 0.14579 0.69513 0.0
C315 C 0.87735 0.07361 0.67622 0.0
C316 C 0.86596 0.12289 0.70044 0.0
C317 C 0.87983 0.14895 0.71887 0.0
C318 C 0.83892 0.07602 0.66562 0.0
C319 C 0.81368 0.10238 0.67253 0.0
C320 C 0.82784 0.12574 0.68982 0.0
C321 C 0.76934 0.102 0.66258 0.0
C322 C 0.82384 0.04794 0.64745 0.0
C323 C 0.77574 0.123 0.64607 0.0
C324 C 0.73199 0.11667 0.63605 0.0
C325 C 0.68121 0.08973 0.64245 0.0
C326 C 0.67573 0.07191 0.65946 0.0
C327 C 0.71928 0.07793 0.66938 0.0
H328 H 0.83801 0.01953 0.6457 0.0
H329 H 0.78024 0.02561 0.64465 0.0
H330 H 0.84199 0.07805 0.63763 0.0
H331 H 0.81428 0.14299 0.64075 0.0
H332 H 0.73766 0.13118 0.62305 0.0
H333 H 0.9445 0.01953 0.07057 0.0
H334 H 0.85971 0.97438 0.05288 0.0
H335 H 0.90755 0.87664 0.02474 0.0
H336 H 0.99137 0.92065 0.04225 0.0
H337 H 0.84105 0.96711 0.01605 0.0
H338 H 0.76207 0.76671 0.04045 0.0
H339 H 0.81659 0.82635 0.0518 0.0
H340 H 0.82787 0.79332 0.03348 0.0
C341 C 0.93676 0.98818 0.06068 0.0
C342 C 0.97469 0.97355 0.05791 0.0
C343 C 0.88836 0.96251 0.05059 0.0
C344 C 0.877 0.92152 0.03772 0.0
C345 C 0.91498 0.90731 0.03486 0.0
H346 H 0.70148 0.79238 0.94152 0.0
H347 H 0.75915 0.85143 0.96627 0.0
C348 C 0.96312 0.93283 0.04485 0.0
C349 C 0.82645 0.89419 0.02671 0.0
H350 H 0.72587 0.76955 0.01205 0.0
C351 C 0.81516 0.92401 0.01539 0.0
C352 C 0.79203 0.83813 0.02611 0.0
C353 C 0.79991 0.80433 0.03875 0.0
C354 C 0.77251 0.89874 1.00262 0.0
C355 C 0.7411 0.8422 1.00095 0.0
C356 C 0.75018 0.81283 0.01314 0.0
C357 C 0.70242 0.81219 0.98573 0.0
C358 C 0.76225 0.93287 0.99087 0.0
C359 C 0.65096 0.77037 0.9883 0.0
C360 C 0.61796 0.73584 0.97411 0.0
C361 C 0.63593 0.74238 0.95709 0.0
C362 C 0.68625 0.78619 0.95443 0.0
C363 C 0.71926 0.82042 0.96861 0.0
H364 H 0.77461 0.97226 0.99774 0.0
H365 H 0.78591 0.94047 0.97923 0.0
H366 H 0.71978 0.91304 0.98632 0.0
H367 H 0.63714 0.76305 1.0014 0.0
H368 H 0.57944 0.70252 0.97664 0.0
H369 H 0.96624 0.94783 0.39256 0.0
H370 H 0.92625 0.87079 0.37076 0.0
H371 H 0.07629 0.87938 0.3688 0.0
H372 H 0.11658 0.957 0.38997 0.0
H373 H 0.03743 0.87954 0.33698 0.0
H374 H 0.88027 0.71441 0.37158 0.0
H375 H 0.87642 0.77373 0.37158 0.0
H376 H 0.93176 0.77589 0.383 0.0
C377 C 0.99029 0.93247 0.38773 0.0
C378 C 0.04461 0.95862 0.39287 0.0
C379 C 0.96736 0.88832 0.37532 0.0
C380 C 0.99819 0.86909 0.36817 0.0
C381 C 0.05173 0.89359 0.37405 0.0
H382 H 0.94324 0.59457 0.30639 0.0
H383 H 0.94424 0.65581 0.32934 0.0
C384 C 0.07473 0.93796 0.38617 0.0
C385 C 0.97701 0.82705 0.35339 0.0
H386 H 0.88528 0.69602 0.34144 0.0
C387 C 1.00399 0.83946 0.33794 0.0
C388 C 0.93339 0.77478 0.35466 0.0
C389 C 0.90396 0.75856 0.37114 0.0
C390 C 0.99004 0.80084 0.32399 0.0
C391 C 0.94631 0.74848 0.32518 0.0
C392 C 0.91829 0.7363 0.34045 0.0
C393 C 0.93316 0.70497 0.31145 0.0
C394 C 0.02429 0.81599 0.30854 0.0
C395 C 0.92318 0.71012 0.29378 0.0
C396 C 0.92355 0.67563 0.28055 0.0
C397 C 0.93268 0.63467 0.28481 0.0
C398 C 0.93648 0.62592 0.3026 0.0
C399 C 0.93703 0.66096 0.31579 0.0
H400 H 0.06308 0.85347 0.31161 0.0
H401 H 0.03181 0.78378 0.30432 0.0
H402 H 1.00382 0.82253 0.29737 0.0
H403 H 0.91843 0.74284 0.29015 0.0
H404 H 0.91974 0.68298 0.26698 0.0
H405 H 0.1674 0.02855 0.71505 0.0
H406 H 0.21197 0.01625 0.69046 0.0
H407 H 0.17713 0.86426 0.70836 0.0
H408 H 0.13656 0.87889 0.73368 0.0
H409 H 0.27099 0.91222 0.70168 0.0
H410 H 0.16746 0.93569 0.64472 0.0
H411 H 0.19422 0.99404 0.6596 0.0
H412 H 0.14379 0.93015 0.66639 0.0
C413 C 0.16858 0.99218 0.7135 0.0
C414 C 0.14864 0.95464 0.72619 0.0
C415 C 0.19365 0.98485 0.69934 0.0
C416 C 0.19732 0.93878 0.69724 0.0
C417 C 0.1751 0.90021 0.7096 0.0
H418 H 0.34391 0.90373 0.60309 0.0
H419 H 0.2785 0.88758 0.62462 0.0
C420 C 0.15171 0.90842 0.72404 0.0
C421 C 0.22868 0.93313 0.68329 0.0
H422 H 0.25487 0.95099 0.64016 0.0
C423 C 0.26659 0.9198 0.68817 0.0
C424 C 0.22271 0.94175 0.66549 0.0
C425 C 0.17937 0.95055 0.65874 0.0
C426 C 0.29975 0.91687 0.67603 0.0
C427 C 0.29717 0.93047 0.65865 0.0
C428 C 0.25779 0.94154 0.65354 0.0
C429 C 0.33655 0.93622 0.6459 0.0
C430 C 0.33675 0.8986 0.68205 0.0
C431 C 0.39099 0.96856 0.65061 0.0
C432 C 0.42827 0.97657 0.63851 0.0
C433 C 0.41206 0.95388 0.62117 0.0
C434 C 0.35761 0.92148 0.61638 0.0
C435 C 0.32022 0.91247 0.62866 0.0
H436 H 0.31976 0.87044 0.69251 0.0
H437 H 0.34531 0.87853 0.67109 0.0
H438 H 0.37451 0.93369 0.68769 0.0
H439 H 0.40487 0.98908 0.66356 0.0
H440 H 0.46984 1.00261 0.64256 0.0
H441 H 0.29439 0.14582 0.0644 0.0
H442 H 0.36093 0.21721 0.04813 0.0
H443 H 0.26911 0.29389 0.04833 0.0
H444 H 0.20371 0.22374 0.06543 0.0
H445 H 0.34917 0.23814 0.01679 0.0
H446 H 0.4121 0.42159 0.05928 0.0
H447 H 0.37304 0.35577 0.06699 0.0
H448 H 0.34177 0.38443 0.0547 0.0
C449 C 0.289 0.17857 0.0613 0.0
C450 C 0.24393 0.17932 0.06621 0.0
C451 C 0.32701 0.21932 0.05196 0.0
C452 C 0.3205 0.26138 0.04708 0.0
C453 C 0.27599 0.26282 0.05232 0.0
H454 H 0.44093 0.43446 0.95515 0.0
H455 H 0.39251 0.3697 0.97641 0.0
C456 C 0.23841 0.22253 0.06202 0.0
C457 C 0.35768 0.30065 0.0352 0.0
H458 H 0.4319 0.43383 0.02901 0.0
C459 C 0.36774 0.28096 0.01961 0.0
C460 C 0.38277 0.35663 0.0389 0.0
C461 C 0.37733 0.38082 0.05597 0.0
C462 C 0.40083 0.3154 0.00747 0.0
C463 C 0.42304 0.37118 0.01062 0.0
C464 C 0.41436 0.39105 0.02644 0.0
C465 C 0.45391 0.40946 0.99747 0.0
C466 C 0.41205 0.29143 0.9915 0.0
C467 C 0.50425 0.45421 1.00225 0.0
C468 C 0.53175 0.49202 0.99016 0.0
C469 C 0.5095 0.48565 0.97302 0.0
C470 C 0.45958 0.44025 0.96816 0.0
C471 C 0.43187 0.40294 0.98031 0.0
H472 H 0.40839 0.25263 0.99408 0.0
H473 H 0.38269 0.28366 0.98058 0.0
H474 H 0.45234 0.31866 0.98723 0.0
H475 H 0.52204 0.46026 0.01542 0.0
H476 H 0.57004 0.52664 0.99434 0.0
H477 H 0.18 0.25446 0.38448 0.0
H478 H 0.1695 0.31838 0.36822 0.0
H479 H 0.02194 0.26991 0.39156 0.0
H480 H 0.03232 0.20565 0.40816 0.0
H481 H 0.08498 0.29011 0.34394 0.0
H482 H 0.10028 0.43474 0.39701 0.0
H483 H 0.12268 0.38858 0.40031 0.0
H484 H 0.05332 0.36567 0.39984 0.0
C485 C 0.14549 0.25762 0.38637 0.0
C486 C 0.10683 0.22468 0.3976 0.0
C487 C 0.13964 0.2943 0.37704 0.0
C488 C 0.09521 0.29918 0.37877 0.0
C489 C 0.05702 0.26738 0.39027 0.0
H490 H 0.96828 0.46324 0.32374 0.0
H491 H 0.98966 0.41455 0.3442 0.0
C492 C 0.06287 0.23052 0.39967 0.0
C493 C 0.0874 0.33477 0.3675 0.0
H494 H 0.07535 0.44486 0.36827 0.0
C495 C 0.08318 0.32416 0.34924 0.0
C496 C 0.08495 0.379 0.37449 0.0
C497 C 0.09096 0.39315 0.39398 0.0
C498 C 0.0756 0.35598 0.33775 0.0
C499 C 0.07329 0.40035 0.34471 0.0
C500 C 0.07756 0.41106 0.36298 0.0
C501 C 0.06352 0.43422 0.33319 0.0
C502 C 0.06852 0.34081 0.31828 0.0
C503 C 0.09879 0.46279 0.3205 0.0
C504 C 0.08657 0.49063 0.30866 0.0
C505 C 0.039 0.49051 0.30942 0.0
C506 C 1.00508 0.46387 0.32268 0.0
C507 C 0.01727 0.43609 0.33445 0.0
H508 H 0.059 0.29909 0.31542 0.0
H509 H 0.03647 0.34502 0.31204 0.0
H510 H 0.1058 0.3678 0.31215 0.0
H511 H 0.13524 0.46268 0.31953 0.0
H512 H 0.11367 0.51102 0.29867 0.0
loop_
_geom_bond_atom_site_label_1
_geom_bond_atom_site_label_2
_geom_bond_distance
_geom_bond_site_symmetry_2
_ccdc_geom_bond_type
Zn0 O3 2.031 1_545 S
Zn0 O5 2.049 . S
Zn0 O10 2.067 . S
Zn1 O2 1.962 . S
Zn1 O4 1.986 . S
Zn1 O6 1.996 . S
Zn1 O9 1.943 . S
O2 Zn1 1.962 . S
O2 C7 1.254 . S
O3 Zn0 2.031 1_565 S
O3 C7 1.269 1_565 S
O4 Zn1 1.986 . S
O4 C11 1.262 . S
O5 Zn0 2.049 . S
O5 C13 1.260 . S
O6 Zn1 1.996 . S
O6 C13 1.257 . S
C7 O2 1.254 . S
C7 O3 1.269 1_545 S
C8 O9 1.249 . S
C8 O10 1.270 . S
O9 Zn1 1.943 . S
O9 C8 1.249 . S
O10 Zn0 2.067 . S
O10 C8 1.270 . S
C11 O4 1.262 . S
C11 O12 1.232 . S
O12 C11 1.232 . S
C13 O5 1.260 . S
C13 O6 1.257 . S
Zn14 O17 2.031 . S
Zn14 O19 2.049 . S
Zn14 O24 2.067 . S
Zn15 O16 1.962 . S
Zn15 O18 1.986 1_455 S
Zn15 O20 1.996 . S
Zn15 O23 1.943 . S
O16 Zn15 1.962 . S
O16 C21 1.254 . S
O17 Zn14 2.031 . S
O17 C21 1.269 . S
O18 Zn15 1.986 1_655 S
O18 C25 1.262 . S
O19 Zn14 2.049 . S
O19 C27 1.260 . S
O20 Zn15 1.996 . S
O20 C27 1.257 . S
C21 O16 1.254 . S
C21 O17 1.269 . S
C22 O23 1.249 . S
C22 O24 1.270 . S
O23 Zn15 1.943 . S
O23 C22 1.249 . S
O24 Zn14 2.067 . S
O24 C22 1.270 . S
C25 O18 1.262 . S
C25 O26 1.232 . S
O26 C25 1.232 . S
C27 O19 1.260 . S
C27 O20 1.257 . S
Zn28 O31 2.031 1_565 S
Zn28 O33 2.049 . S
Zn28 O38 2.067 1_565 S
Zn29 O30 1.962 1_545 S
Zn29 O32 1.986 1_455 S
Zn29 O34 1.996 1_445 S
Zn29 O37 1.943 . S
O30 Zn29 1.962 1_565 S
O30 C35 1.254 1_565 S
O31 Zn28 2.031 1_545 S
O31 C35 1.269 . S
O32 Zn29 1.986 1_655 S
O32 C39 1.262 . S
O33 Zn28 2.049 . S
O33 C41 1.260 1_455 S
O34 Zn29 1.996 1_665 S
O34 C41 1.257 . S
C35 O30 1.254 1_545 S
C35 O31 1.269 . S
C36 O37 1.249 . S
C36 O38 1.270 . S
O37 Zn29 1.943 . S
O37 C36 1.249 . S
O38 Zn28 2.067 1_545 S
O38 C36 1.270 . S
C39 O32 1.262 . S
C39 O40 1.232 1_655 S
O40 C39 1.232 1_455 S
C41 O33 1.260 1_655 S
C41 O34 1.257 . S
Mg42 O49 2.141 . S
Mg42 O50 2.048 . S
Mg42 O51 2.048 . S
Mg42 O54 2.141 . S
C43 O44 1.313 1_455 S
C43 O50 1.195 . S
O44 C43 1.313 1_655 S
C45 O46 1.245 . S
C45 O54 1.289 . S
O46 C45 1.245 . S
C47 O48 1.245 . S
C47 O49 1.289 . S
O48 C47 1.245 . S
O49 Mg42 2.141 . S
O49 C47 1.289 . S
O50 Mg42 2.048 . S
O50 C43 1.195 . S
O51 Mg42 2.048 . S
O51 C52 1.195 . S
C52 O51 1.195 . S
C52 O53 1.313 1_455 S
O53 C52 1.313 1_655 S
O54 Mg42 2.141 . S
O54 C45 1.289 . S
Mg55 O62 2.141 . S
Mg55 O63 2.048 . S
Mg55 O64 2.048 . S
Mg55 O67 2.141 . S
C56 O57 1.331 . S
C56 O63 1.195 . S
O57 C56 1.331 . S
C58 O59 1.245 1_545 S
C58 O67 1.289 . S
O59 C58 1.245 1_565 S
C60 O61 1.245 1_545 S
C60 O62 1.289 . S
O61 C60 1.245 1_565 S
O62 Mg55 2.141 . S
O62 C60 1.289 . S
O63 Mg55 2.048 . S
O63 C56 1.195 . S
O64 Mg55 2.048 . S
O64 C65 1.195 . S
C65 O64 1.195 . S
C65 O66 1.326 . S
O66 C65 1.326 . S
O67 Mg55 2.141 . S
O67 C58 1.289 . S
Mg68 O75 2.141 . S
Mg68 O76 2.048 . S
Mg68 O77 2.048 . S
Mg68 O80 2.141 . S
C69 O70 1.313 . S
C69 O76 1.195 . S
O70 C69 1.313 . S
C71 O72 1.245 . S
C71 O80 1.289 . S
O72 C71 1.245 . S
C73 O74 1.245 . S
C73 O75 1.289 . S
O74 C73 1.245 . S
O75 Mg68 2.141 . S
O75 C73 1.289 . S
O76 Mg68 2.048 . S
O76 C69 1.195 . S
O77 Mg68 2.048 . S
O77 C78 1.195 . S
C78 O77 1.195 . S
C78 O79 1.313 . S
O79 C78 1.313 . S
O80 Mg68 2.141 . S
O80 C71 1.289 . S
H81 C89 0.929 . S
H82 C91 0.930 . S
H83 C93 0.930 . S
H84 C96 0.929 . S
H85 C99 0.930 . S
H86 C101 0.960 . S
H87 C101 0.960 . S
H88 C101 0.960 . S
C89 H81 0.929 . S
C89 C90 1.377 . S
C89 C91 1.384 . S
C90 C89 1.377 . S
C90 C96 1.390 . S
C91 H82 0.930 . S
C91 C89 1.384 . S
C91 C92 1.372 . S
C92 C91 1.372 . S
C92 C93 1.400 . S
C92 C97 1.490 . S
C93 H83 0.930 . S
C93 C92 1.400 . S
C93 C96 1.386 . S
H94 C110 0.930 . S
H95 C111 0.931 . S
C96 H84 0.929 . S
C96 C90 1.390 . S
C96 C93 1.386 . S
C97 C92 1.490 . S
C97 C99 1.395 . S
C97 C100 1.403 . S
H98 C104 0.930 . S
C99 H85 0.930 . S
C99 C97 1.395 . S
C99 C102 1.403 . S
C100 C97 1.403 . S
C100 C101 1.524 . S
C100 C104 1.400 . S
C101 H86 0.960 . S
C101 H87 0.960 . S
C101 H88 0.960 . S
C101 C100 1.524 . S
C102 C99 1.403 . S
C102 C103 1.392 . S
C102 C106 1.495 . S
C103 C102 1.392 . S
C103 C104 1.385 . S
C103 C105 1.478 . S
C104 H98 0.930 . S
C104 C100 1.400 . S
C104 C103 1.385 . S
C105 C103 1.478 . S
C105 C107 1.381 . S
C105 C111 1.383 . S
C106 C102 1.495 . S
C106 H112 0.959 . S
C106 H113 0.961 . S
C106 H114 0.960 . S
C107 C105 1.381 . S
C107 C108 1.394 . S
C107 H115 0.930 . S
C108 C107 1.394 . S
C108 C109 1.383 . S
C108 H116 0.920 1_455 S
C109 C108 1.383 . S
C109 C110 1.377 . S
C110 H94 0.930 . S
C110 C109 1.377 . S
C110 C111 1.379 . S
C111 H95 0.931 . S
C111 C105 1.383 . S
C111 C110 1.379 . S
H112 C106 0.959 . S
H113 C106 0.961 . S
H114 C106 0.960 . S
H115 C107 0.930 . S
H116 C108 0.920 1_655 S
H117 C125 0.929 . S
H118 C127 0.930 . S
H119 C129 0.930 . S
H120 C132 0.929 . S
H121 C135 0.930 . S
H122 C137 0.960 . S
H123 C137 0.960 . S
H124 C137 0.960 . S
C125 H117 0.929 . S
C125 C126 1.377 . S
C125 C127 1.384 . S
C126 C125 1.377 . S
C126 C132 1.390 . S
C127 H118 0.930 . S
C127 C125 1.384 . S
C127 C128 1.372 . S
C128 C127 1.372 . S
C128 C129 1.400 . S
C128 C133 1.490 . S
C129 H119 0.930 . S
C129 C128 1.400 . S
C129 C132 1.386 . S
H130 C146 0.930 . S
H131 C147 0.927 1_565 S
C132 H120 0.929 . S
C132 C126 1.390 . S
C132 C129 1.386 . S
C133 C128 1.490 . S
C133 C135 1.395 . S
C133 C136 1.403 . S
H134 C140 0.930 . S
C135 H121 0.930 . S
C135 C133 1.395 . S
C135 C138 1.403 . S
C136 C133 1.403 . S
C136 C137 1.524 . S
C136 C140 1.400 . S
C137 H122 0.960 . S
C137 H123 0.960 . S
C137 H124 0.960 . S
C137 C136 1.524 . S
C138 C135 1.403 . S
C138 C139 1.392 . S
C138 C142 1.495 . S
C139 C138 1.392 . S
C139 C140 1.385 . S
C139 C141 1.478 . S
C140 H134 0.930 . S
C140 C136 1.400 . S
C140 C139 1.385 . S
C141 C139 1.478 . S
C141 C143 1.381 . S
C141 C147 1.383 . S
C142 C138 1.495 . S
C142 H148 0.959 1_545 S
C142 H149 0.961 1_545 S
C142 H150 0.960 . S
C143 C141 1.381 . S
C143 C144 1.394 . S
C143 H151 0.930 . S
C144 C143 1.394 . S
C144 C145 1.383 . S
C144 H152 0.929 . S
C145 C144 1.383 . S
C145 C146 1.377 . S
C146 H130 0.930 . S
C146 C145 1.377 . S
C146 C147 1.379 . S
C147 H131 0.927 1_545 S
C147 C141 1.383 . S
C147 C146 1.379 . S
H148 C142 0.959 1_565 S
H149 C142 0.961 1_565 S
H150 C142 0.960 . S
H151 C143 0.930 . S
H152 C144 0.929 . S
H153 C161 0.929 . S
H154 C163 0.930 . S
H155 C165 0.930 . S
H156 C168 0.929 . S
H157 C171 0.930 . S
H158 C173 0.960 . S
H159 C173 0.960 . S
H160 C173 0.960 . S
C161 H153 0.929 . S
C161 C162 1.377 . S
C161 C163 1.384 . S
C162 C161 1.377 . S
C162 C168 1.390 . S
C163 H154 0.930 . S
C163 C161 1.384 . S
C163 C164 1.372 . S
C164 C163 1.372 . S
C164 C165 1.400 . S
C164 C169 1.490 . S
C165 H155 0.930 . S
C165 C164 1.400 . S
C165 C168 1.386 . S
H166 C182 0.930 . S
H167 C183 0.931 . S
C168 H156 0.929 . S
C168 C162 1.390 . S
C168 C165 1.386 . S
C169 C164 1.490 . S
C169 C171 1.395 . S
C169 C172 1.403 . S
H170 C176 0.930 . S
C171 H157 0.930 . S
C171 C169 1.395 . S
C171 C174 1.403 . S
C172 C169 1.403 . S
C172 C173 1.524 . S
C172 C176 1.400 . S
C173 H158 0.960 . S
C173 H159 0.960 . S
C173 H160 0.960 . S
C173 C172 1.524 . S
C174 C171 1.403 . S
C174 C175 1.392 . S
C174 C178 1.495 . S
C175 C174 1.392 . S
C175 C176 1.385 . S
C175 C177 1.478 . S
C176 H170 0.930 . S
C176 C172 1.400 . S
C176 C175 1.385 . S
C177 C175 1.478 . S
C177 C179 1.381 . S
C177 C183 1.383 . S
C178 C174 1.495 . S
C178 H184 0.959 . S
C178 H185 0.961 . S
C178 H186 0.960 . S
C179 C177 1.381 . S
C179 C180 1.394 . S
C179 H187 0.930 . S
C180 C179 1.394 . S
C180 C181 1.383 . S
C180 H188 0.929 . S
C181 C180 1.383 . S
C181 C182 1.377 . S
C182 H166 0.930 . S
C182 C181 1.377 . S
C182 C183 1.379 . S
C183 H167 0.931 . S
C183 C177 1.383 . S
C183 C182 1.379 . S
H184 C178 0.959 . S
H185 C178 0.961 . S
H186 C178 0.960 . S
H187 C179 0.930 . S
H188 C180 0.929 . S
H189 C197 0.929 . S
H190 C199 0.930 . S
H191 C201 0.930 . S
H192 C204 0.929 1_545 S
H193 C207 0.930 . S
H194 C209 0.960 . S
H195 C209 0.960 . S
H196 C209 0.960 . S
C197 H189 0.929 . S
C197 C198 1.377 . S
C197 C199 1.384 . S
C198 C197 1.377 . S
C198 C204 1.390 . S
C199 H190 0.930 . S
C199 C197 1.384 . S
C199 C200 1.372 . S
C200 C199 1.372 . S
C200 C201 1.400 . S
C200 C205 1.490 . S
C201 H191 0.930 . S
C201 C200 1.400 . S
C201 C204 1.386 . S
H202 C218 0.930 . S
H203 C219 0.931 . S
C204 H192 0.929 1_565 S
C204 C198 1.390 . S
C204 C201 1.386 . S
C205 C200 1.490 . S
C205 C207 1.395 . S
C205 C208 1.403 . S
H206 C212 0.930 . S
C207 H193 0.930 . S
C207 C205 1.395 . S
C207 C210 1.403 . S
C208 C205 1.403 . S
C208 C209 1.524 . S
C208 C212 1.400 . S
C209 H194 0.960 . S
C209 H195 0.960 . S
C209 H196 0.960 . S
C209 C208 1.524 . S
C210 C207 1.403 . S
C210 C211 1.392 . S
C210 C214 1.495 . S
C211 C210 1.392 . S
C211 C212 1.385 . S
C211 C213 1.478 . S
C212 H206 0.930 . S
C212 C208 1.400 . S
C212 C211 1.385 . S
C213 C211 1.478 . S
C213 C215 1.381 . S
C213 C219 1.383 . S
C214 C210 1.495 . S
C214 H220 0.959 . S
C214 H221 0.961 . S
C214 H222 0.960 . S
C215 C213 1.381 . S
C215 C216 1.394 . S
C215 H223 0.930 . S
C216 C215 1.394 . S
C216 C217 1.383 . S
C216 H224 0.929 . S
C217 C216 1.383 . S
C217 C218 1.377 . S
C218 H202 0.930 . S
C218 C217 1.377 . S
C218 C219 1.379 . S
C219 H203 0.931 . S
C219 C213 1.383 . S
C219 C218 1.379 . S
H220 C214 0.959 . S
H221 C214 0.961 . S
H222 C214 0.960 . S
H223 C215 0.930 . S
H224 C216 0.929 . S
H225 C233 0.929 . S
H226 C235 0.930 . S
H227 C237 0.930 . S
H228 C240 0.929 . S
H229 C243 0.930 . S
H230 C245 0.960 . S
H231 C245 0.960 . S
H232 C245 0.960 . S
C233 H225 0.929 . S
C233 C234 1.377 . S
C233 C235 1.384 . S
C234 C233 1.377 . S
C234 C240 1.390 . S
C235 H226 0.930 . S
C235 C233 1.384 . S
C235 C236 1.372 . S
C236 C235 1.372 . S
C236 C237 1.400 . S
C236 C241 1.490 . S
C237 H227 0.930 . S
C237 C236 1.400 . S
C237 C240 1.386 . S
H238 C254 0.930 . S
H239 C255 0.931 . S
C240 H228 0.929 . S
C240 C234 1.390 . S
C240 C237 1.386 . S
C241 C236 1.490 . S
C241 C243 1.395 . S
C241 C244 1.403 . S
H242 C248 0.930 . S
C243 H229 0.930 . S
C243 C241 1.395 . S
C243 C246 1.403 . S
C244 C241 1.403 . S
C244 C245 1.524 . S
C244 C248 1.400 . S
C245 H230 0.960 . S
C245 H231 0.960 . S
C245 H232 0.960 . S
C245 C244 1.524 . S
C246 C243 1.403 . S
C246 C247 1.392 . S
C246 C250 1.495 . S
C247 C246 1.392 . S
C247 C248 1.385 . S
C247 C249 1.478 . S
C248 H242 0.930 . S
C248 C244 1.400 . S
C248 C247 1.385 . S
C249 C247 1.478 . S
C249 C251 1.381 . S
C249 C255 1.383 . S
C250 C246 1.495 . S
C250 H256 0.959 . S
C250 H257 0.961 . S
C250 H258 0.960 . S
C251 C249 1.381 . S
C251 C252 1.394 . S
C251 H259 0.930 1_545 S
C252 C251 1.394 . S
C252 C253 1.383 . S
C252 H260 0.929 1_545 S
C253 C252 1.383 . S
C253 C254 1.377 . S
C254 H238 0.930 . S
C254 C253 1.377 . S
C254 C255 1.379 . S
C255 H239 0.931 . S
C255 C249 1.383 . S
C255 C254 1.379 . S
H256 C250 0.959 . S
H257 C250 0.961 . S
H258 C250 0.960 . S
H259 C251 0.930 1_565 S
H260 C252 0.929 1_565 S
H261 C269 0.929 . S
H262 C271 0.930 . S
H263 C273 0.930 . S
H264 C276 0.929 . S
H265 C279 0.930 . S
H266 C281 0.960 . S
H267 C281 0.960 . S
H268 C281 0.960 . S
C269 H261 0.929 . S
C269 C270 1.377 . S
C269 C271 1.384 . S
C270 C269 1.377 . S
C270 C276 1.390 . S
C271 H262 0.930 . S
C271 C269 1.384 . S
C271 C272 1.372 . S
C272 C271 1.372 . S
C272 C273 1.400 . S
C272 C277 1.490 . S
C273 H263 0.930 . S
C273 C272 1.400 . S
C273 C276 1.386 . S
H274 C290 0.930 . S
H275 C291 0.931 . S
C276 H264 0.929 . S
C276 C270 1.390 . S
C276 C273 1.386 . S
C277 C272 1.490 . S
C277 C279 1.395 . S
C277 C280 1.403 . S
H278 C284 0.930 . S
C279 H265 0.930 . S
C279 C277 1.395 . S
C279 C282 1.403 . S
C280 C277 1.403 . S
C280 C281 1.524 . S
C280 C284 1.400 . S
C281 H266 0.960 . S
C281 H267 0.960 . S
C281 H268 0.960 . S
C281 C280 1.524 . S
C282 C279 1.403 . S
C282 C283 1.392 . S
C282 C286 1.495 . S
C283 C282 1.392 . S
C283 C284 1.385 . S
C283 C285 1.478 . S
C284 H278 0.930 . S
C284 C280 1.400 . S
C284 C283 1.385 . S
C285 C283 1.478 . S
C285 C287 1.381 . S
C285 C291 1.383 . S
C286 C282 1.495 . S
C286 H292 0.959 . S
C286 H293 0.961 . S
C286 H294 0.960 . S
C287 C285 1.381 . S
C287 C288 1.394 . S
C287 H295 0.930 . S
C288 C287 1.394 . S
C288 C289 1.383 . S
C288 H296 0.929 . S
C289 C288 1.383 . S
C289 C290 1.377 . S
C290 H274 0.930 . S
C290 C289 1.377 . S
C290 C291 1.379 . S
C291 H275 0.931 . S
C291 C285 1.383 . S
C291 C290 1.379 . S
H292 C286 0.959 . S
H293 C286 0.961 . S
H294 C286 0.960 . S
H295 C287 0.930 . S
H296 C288 0.929 . S
H297 C305 0.929 . S
H298 C307 0.930 . S
H299 C309 0.930 . S
H300 C312 0.929 . S
H301 C315 0.930 . S
H302 C317 0.960 . S
H303 C317 0.960 1_545 S
H304 C317 0.960 . S
C305 H297 0.929 . S
C305 C306 1.377 . S
C305 C307 1.384 . S
C306 C305 1.377 . S
C306 C312 1.390 1_545 S
C307 H298 0.930 . S
C307 C305 1.384 . S
C307 C308 1.372 . S
C308 C307 1.372 . S
C308 C309 1.400 1_545 S
C308 C313 1.490 . S
C309 H299 0.930 . S
C309 C308 1.400 1_565 S
C309 C312 1.386 . S
H310 C326 0.918 1_565 S
H311 C327 0.931 1_565 S
C312 H300 0.929 . S
C312 C306 1.390 1_565 S
C312 C309 1.386 . S
C313 C308 1.490 . S
C313 C315 1.395 . S
C313 C316 1.403 . S
H314 C320 0.930 . S
C315 H301 0.930 . S
C315 C313 1.395 . S
C315 C318 1.403 . S
C316 C313 1.403 . S
C316 C317 1.524 1_545 S
C316 C320 1.400 . S
C317 H302 0.960 . S
C317 H303 0.960 1_565 S
C317 H304 0.960 . S
C317 C316 1.524 1_565 S
C318 C315 1.403 . S
C318 C319 1.392 . S
C318 C322 1.495 . S
C319 C318 1.392 . S
C319 C320 1.385 . S
C319 C321 1.478 . S
C320 H314 0.930 . S
C320 C316 1.400 . S
C320 C319 1.385 . S
C321 C319 1.478 . S
C321 C323 1.381 . S
C321 C327 1.383 . S
C322 C318 1.495 . S
C322 H328 0.959 . S
C322 H329 0.961 . S
C322 H330 0.960 . S
C323 C321 1.381 . S
C323 C324 1.394 . S
C323 H331 0.930 . S
C324 C323 1.394 . S
C324 C325 1.383 . S
C324 H332 0.929 . S
C325 C324 1.383 . S
C325 C326 1.397 . S
C326 H310 0.918 1_545 S
C326 C325 1.397 . S
C326 C327 1.371 . S
C327 H311 0.931 1_545 S
C327 C321 1.383 . S
C327 C326 1.371 . S
H328 C322 0.959 . S
H329 C322 0.961 . S
H330 C322 0.960 . S
H331 C323 0.930 . S
H332 C324 0.929 . S
H333 C341 0.929 . S
H334 C343 0.930 . S
H335 C345 0.930 . S
H336 C348 0.929 1_455 S
H337 C351 0.930 . S
H338 C353 0.960 . S
H339 C353 0.960 . S
H340 C353 0.960 . S
C341 H333 0.929 . S
C341 C342 1.377 . S
C341 C343 1.384 . S
C342 C341 1.377 . S
C342 C348 1.390 . S
C343 H334 0.930 . S
C343 C341 1.384 . S
C343 C344 1.372 . S
C344 C343 1.372 . S
C344 C345 1.400 . S
C344 C349 1.490 . S
C345 H335 0.930 . S
C345 C344 1.400 . S
C345 C348 1.386 . S
H346 C362 0.930 . S
H347 C363 0.931 . S
C348 H336 0.929 1_655 S
C348 C342 1.390 . S
C348 C345 1.386 . S
C349 C344 1.490 . S
C349 C351 1.395 . S
C349 C352 1.403 . S
H350 C356 0.930 . S
C351 H337 0.930 . S
C351 C349 1.395 . S
C351 C354 1.428 . S
C352 C349 1.403 . S
C352 C353 1.524 . S
C352 C356 1.400 . S
C353 H338 0.960 . S
C353 H339 0.960 . S
C353 H340 0.960 . S
C353 C352 1.524 . S
C354 C351 1.428 . S
C354 C355 1.393 . S
C354 C358 1.470 1_554 S
C355 C354 1.393 . S
C355 C356 1.404 . S
C355 C357 1.460 1_554 S
C356 H350 0.930 . S
C356 C352 1.400 . S
C356 C355 1.404 . S
C357 C355 1.460 1_556 S
C357 C359 1.381 . S
C357 C363 1.383 . S
C358 C354 1.470 1_556 S
C358 H364 0.959 . S
C358 H365 0.961 . S
C358 H366 0.960 . S
C359 C357 1.381 . S
C359 C360 1.394 . S
C359 H367 0.930 . S
C360 C359 1.394 . S
C360 C361 1.383 . S
C360 H368 0.929 . S
C361 C360 1.383 . S
C361 C362 1.377 . S
C362 H346 0.930 . S
C362 C361 1.377 . S
C362 C363 1.379 . S
C363 H347 0.931 . S
C363 C357 1.383 . S
C363 C362 1.379 . S
H364 C358 0.959 . S
H365 C358 0.961 . S
H366 C358 0.960 . S
H367 C359 0.930 . S
H368 C360 0.929 . S
H369 C377 0.929 1_655 S
H370 C379 0.930 . S
H371 C381 0.930 . S
H372 C384 0.929 . S
H373 C387 0.930 . S
H374 C389 0.960 . S
H375 C389 0.960 . S
H376 C389 0.960 . S
C377 H369 0.929 1_455 S
C377 C378 1.377 . S
C377 C379 1.384 . S
C378 C377 1.377 . S
C378 C384 1.390 . S
C379 H370 0.930 . S
C379 C377 1.384 . S
C379 C380 1.372 . S
C380 C379 1.372 . S
C380 C381 1.400 . S
C380 C385 1.490 . S
C381 H371 0.930 . S
C381 C380 1.400 . S
C381 C384 1.386 . S
H382 C398 0.930 . S
H383 C399 0.931 . S
C384 H372 0.929 . S
C384 C378 1.390 . S
C384 C381 1.386 . S
C385 C380 1.490 . S
C385 C387 1.395 . S
C385 C388 1.403 1_455 S
H386 C392 0.930 1_655 S
C387 H373 0.930 . S
C387 C385 1.395 . S
C387 C390 1.403 . S
C388 C385 1.403 1_655 S
C388 C389 1.524 . S
C388 C392 1.400 1_655 S
C389 H374 0.960 . S
C389 H375 0.960 . S
C389 H376 0.960 . S
C389 C388 1.524 . S
C390 C387 1.403 . S
C390 C391 1.392 . S
C390 C394 1.495 . S
C391 C390 1.392 . S
C391 C392 1.385 . S
C391 C393 1.478 . S
C392 H386 0.930 1_455 S
C392 C388 1.400 1_455 S
C392 C391 1.385 . S
C393 C391 1.478 . S
C393 C395 1.381 . S
C393 C399 1.383 . S
C394 C390 1.495 . S
C394 H400 0.959 . S
C394 H401 0.961 . S
C394 H402 0.960 . S
C395 C393 1.381 . S
C395 C396 1.394 . S
C395 H403 0.930 . S
C396 C395 1.394 . S
C396 C397 1.383 . S
C396 H404 0.929 . S
C397 C396 1.383 . S
C397 C398 1.377 . S
C398 H382 0.930 . S
C398 C397 1.377 . S
C398 C399 1.379 . S
C399 H383 0.931 . S
C399 C393 1.383 . S
C399 C398 1.379 . S
H400 C394 0.959 . S
H401 C394 0.961 . S
H402 C394 0.960 . S
H403 C395 0.930 . S
H404 C396 0.929 . S
H405 C413 0.929 . S
H406 C415 0.930 . S
H407 C417 0.930 . S
H408 C420 0.929 . S
H409 C423 0.930 . S
H410 C425 0.960 . S
H411 C425 0.960 1_545 S
H412 C425 0.960 . S
C413 H405 0.929 . S
C413 C414 1.377 . S
C413 C415 1.384 . S
C414 C413 1.377 . S
C414 C420 1.390 1_545 S
C415 H406 0.930 . S
C415 C413 1.384 . S
C415 C416 1.372 . S
C416 C415 1.372 . S
C416 C417 1.400 1_545 S
C416 C421 1.490 . S
C417 H407 0.930 . S
C417 C416 1.400 1_565 S
C417 C420 1.386 . S
H418 C434 0.930 . S
H419 C435 0.931 . S
C420 H408 0.929 . S
C420 C414 1.390 1_565 S
C420 C417 1.386 . S
C421 C416 1.490 . S
C421 C423 1.395 . S
C421 C424 1.403 . S
H422 C428 0.930 . S
C423 H409 0.930 . S
C423 C421 1.395 . S
C423 C426 1.403 . S
C424 C421 1.403 . S
C424 C425 1.524 1_545 S
C424 C428 1.400 . S
C425 H410 0.960 . S
C425 H411 0.960 1_565 S
C425 H412 0.960 . S
C425 C424 1.524 1_565 S
C426 C423 1.403 . S
C426 C427 1.392 . S
C426 C430 1.495 . S
C427 C426 1.392 . S
C427 C428 1.385 . S
C427 C429 1.478 . S
C428 H422 0.930 . S
C428 C424 1.400 . S
C428 C427 1.385 . S
C429 C427 1.478 . S
C429 C431 1.381 . S
C429 C435 1.383 1_545 S
C430 C426 1.495 . S
C430 H436 0.959 . S
C430 H437 0.961 . S
C430 H438 0.960 . S
C431 C429 1.381 . S
C431 C432 1.394 . S
C431 H439 0.930 . S
C432 C431 1.394 . S
C432 C433 1.383 . S
C432 H440 0.929 . S
C433 C432 1.383 . S
C433 C434 1.377 1_545 S
C434 H418 0.930 . S
C434 C433 1.377 1_565 S
C434 C435 1.379 . S
C435 H419 0.931 . S
C435 C429 1.383 1_565 S
C435 C434 1.379 . S
H436 C430 0.959 . S
H437 C430 0.961 . S
H438 C430 0.960 . S
H439 C431 0.930 . S
H440 C432 0.929 . S
H441 C449 0.929 . S
H442 C451 0.930 . S
H443 C453 0.930 . S
H444 C456 0.929 . S
H445 C459 0.930 . S
H446 C461 0.960 . S
H447 C461 0.960 . S
H448 C461 0.960 . S
C449 H441 0.929 . S
C449 C450 1.377 . S
C449 C451 1.384 . S
C450 C449 1.377 . S
C450 C456 1.390 . S
C451 H442 0.930 . S
C451 C449 1.384 . S
C451 C452 1.372 . S
C452 C451 1.372 . S
C452 C453 1.400 . S
C452 C457 1.490 . S
C453 H443 0.930 . S
C453 C452 1.400 . S
C453 C456 1.386 . S
H454 C470 0.930 . S
H455 C471 0.931 . S
C456 H444 0.929 . S
C456 C450 1.390 . S
C456 C453 1.386 . S
C457 C452 1.490 . S
C457 C459 1.395 . S
C457 C460 1.403 . S
H458 C464 0.930 . S
C459 H445 0.930 . S
C459 C457 1.395 . S
C459 C462 1.376 1_554 S
C460 C457 1.403 . S
C460 C461 1.524 . S
C460 C464 1.400 . S
C461 H446 0.960 . S
C461 H447 0.960 . S
C461 H448 0.960 . S
C461 C460 1.524 . S
C462 C459 1.376 1_556 S
C462 C463 1.392 . S
C462 C466 1.520 . S
C463 C462 1.392 . S
C463 C464 1.355 1_556 S
C463 C465 1.510 . S
C464 H458 0.930 . S
C464 C460 1.400 . S
C464 C463 1.355 1_554 S
C465 C463 1.510 . S
C465 C467 1.381 . S
C465 C471 1.383 . S
C466 C462 1.520 . S
C466 H472 0.959 . S
C466 H473 0.961 . S
C466 H474 0.960 . S
C467 C465 1.381 . S
C467 C468 1.394 . S
C467 H475 0.930 . S
C468 C467 1.394 . S
C468 C469 1.383 . S
C468 H476 0.929 . S
C469 C468 1.383 . S
C469 C470 1.377 . S
C470 H454 0.930 . S
C470 C469 1.377 . S
C470 C471 1.379 . S
C471 H455 0.931 . S
C471 C465 1.383 . S
C471 C470 1.379 . S
H472 C466 0.959 . S
H473 C466 0.961 . S
H474 C466 0.960 . S
H475 C467 0.930 . S
H476 C468 0.929 . S
H477 C485 0.929 . S
H478 C487 0.930 . S
H479 C489 0.930 . S
H480 C492 0.929 . S
H481 C495 0.930 . S
H482 C497 0.960 . S
H483 C497 0.960 . S
H484 C497 0.960 . S
C485 H477 0.929 . S
C485 C486 1.377 . S
C485 C487 1.384 . S
C486 C485 1.377 . S
C486 C492 1.390 . S
C487 H478 0.930 . S
C487 C485 1.384 . S
C487 C488 1.372 . S
C488 C487 1.372 . S
C488 C489 1.400 . S
C488 C493 1.490 . S
C489 H479 0.930 . S
C489 C488 1.400 . S
C489 C492 1.386 . S
H490 C506 0.930 1_655 S
H491 C507 0.931 1_655 S
C492 H480 0.929 . S
C492 C486 1.390 . S
C492 C489 1.386 . S
C493 C488 1.490 . S
C493 C495 1.395 . S
C493 C496 1.403 . S
H494 C500 0.930 . S
C495 H481 0.930 . S
C495 C493 1.395 . S
C495 C498 1.403 . S
C496 C493 1.403 . S
C496 C497 1.524 . S
C496 C500 1.400 . S
C497 H482 0.960 . S
C497 H483 0.960 . S
C497 H484 0.960 . S
C497 C496 1.524 . S
C498 C495 1.403 . S
C498 C499 1.392 . S
C498 C502 1.495 . S
C499 C498 1.392 . S
C499 C500 1.385 . S
C499 C501 1.478 . S
C500 H494 0.930 . S
C500 C496 1.400 . S
C500 C499 1.385 . S
C501 C499 1.478 . S
C501 C503 1.381 . S
C501 C507 1.383 . S
C502 C498 1.495 . S
C502 H508 0.959 . S
C502 H509 0.961 1_455 S
C502 H510 0.960 . S
C503 C501 1.381 . S
C503 C504 1.394 . S
C503 H511 0.930 . S
C504 C503 1.394 . S
C504 C505 1.383 . S
C504 H512 0.929 . S
C505 C504 1.383 . S
C505 C506 1.377 . S
C506 H490 0.930 1_455 S
C506 C505 1.377 . S
C506 C507 1.379 . S
C507 H491 0.931 1_455 S
C507 C501 1.383 . S
C507 C506 1.379 . S
H508 C502 0.959 . S
H509 C502 0.961 1_655 S
H510 C502 0.960 . S
H511 C503 0.930 . S
H512 C504 0.929 . S
C109 C47 1.224 . S
C90 C11 1.217 . S
C126 C25 1.352 . S
C145 C65 1.357 . S
C162 C41 1.341 . S
C181 C78 1.385 . S
C198 C7 1.283 1_565 S
C217 C45 1.277 . S
C253 C56 1.418 . S
C234 C21 1.423 . S
C270 C36 1.381 . S
C289 C69 1.448 . S
C325 C58 1.285 . S
C306 C39 1.275 . S
C342 C8 1.306 1_665 S
C361 C71 1.363 . S
C397 C52 1.498 . S
C378 C22 1.433 1_565 S
C433 C60 1.324 . S
C414 C35 1.333 . S
C469 C73 1.301 . S
C450 C13 1.257 . S
C486 C27 1.373 . S
C505 C43 1.432 . S
