# Generated by pormake.
# Topology soc, (4,6)-cn, num edge types: 1
# Building blocks:
#     Node 0, Type 0, BuildingBlock: ESEHIV_clean_sbu_0, # of connection points: 4
#     Node 1, Type 0, BuildingBlock: ESEHIV_clean_sbu_0, # of connection points: 4
#     Node 2, Type 0, BuildingBlock: ESEHIV_clean_sbu_0, # of connection points: 4
#     Node 3, Type 0, BuildingBlock: ESEHIV_clean_sbu_0, # of connection points: 4
#     Node 4, Type 0, BuildingBlock: ESEHIV_clean_sbu_0, # of connection points: 4
#     Node 5, Type 0, BuildingBlock: ESEHIV_clean_sbu_0, # of connection points: 4
#     Node 6, Type 0, BuildingBlock: ESEHIV_clean_sbu_0, # of connection points: 4
#     Node 7, Type 0, BuildingBlock: ESEHIV_clean_sbu_0, # of connection points: 4
#     Node 8, Type 0, BuildingBlock: ESEHIV_clean_sbu_0, # of connection points: 4
#     Node 9, Type 0, BuildingBlock: ESEHIV_clean_sbu_0, # of connection points: 4
#     Node 10, Type 0, BuildingBlock: ESEHIV_clean_sbu_0, # of connection points: 4
#     Node 11, Type 0, BuildingBlock: ESEHIV_clean_sbu_0, # of connection points: 4
#     Node 12, Type 1, BuildingBlock: BETGAK_clean_sbu_0, # of connection points: 6
#     Node 13, Type 1, BuildingBlock: BETGAK_clean_sbu_0, # of connection points: 6
#     Node 14, Type 1, BuildingBlock: BETGAK_clean_sbu_0, # of connection points: 6
#     Node 15, Type 1, BuildingBlock: BETGAK_clean_sbu_0, # of connection points: 6
#     Node 16, Type 1, BuildingBlock: BETGAK_clean_sbu_0, # of connection points: 6
#     Node 17, Type 1, BuildingBlock: BETGAK_clean_sbu_0, # of connection points: 6
#     Node 18, Type 1, BuildingBlock: BETGAK_clean_sbu_0, # of connection points: 6
#     Node 19, Type 1, BuildingBlock: BETGAK_clean_sbu_0, # of connection points: 6
#     Edge 20, Type (0, 1), BuildingBlock: AJUNOK_clean_linker_0, # of connection points: 2
#     Edge 21, Type (0, 1), BuildingBlock: AJUNOK_clean_linker_0, # of connection points: 2
#     Edge 22, Type (0, 1), BuildingBlock: AJUNOK_clean_linker_0, # of connection points: 2
#     Edge 23, Type (0, 1), BuildingBlock: AJUNOK_clean_linker_0, # of connection points: 2
#     Edge 24, Type (0, 1), BuildingBlock: AJUNOK_clean_linker_0, # of connection points: 2
#     Edge 25, Type (0, 1), BuildingBlock: AJUNOK_clean_linker_0, # of connection points: 2
#     Edge 26, Type (0, 1), BuildingBlock: AJUNOK_clean_linker_0, # of connection points: 2
#     Edge 27, Type (0, 1), BuildingBlock: AJUNOK_clean_linker_0, # of connection points: 2
#     Edge 28, Type (0, 1), BuildingBlock: AJUNOK_clean_linker_0, # of connection points: 2
#     Edge 29, Type (0, 1), BuildingBlock: AJUNOK_clean_linker_0, # of connection points: 2
#     Edge 30, Type (0, 1), BuildingBlock: AJUNOK_clean_linker_0, # of connection points: 2
#     Edge 31, Type (0, 1), BuildingBlock: AJUNOK_clean_linker_0, # of connection points: 2
#     Edge 32, Type (0, 1), BuildingBlock: AJUNOK_clean_linker_0, # of connection points: 2
#     Edge 33, Type (0, 1), BuildingBlock: AJUNOK_clean_linker_0, # of connection points: 2
#     Edge 34, Type (0, 1), BuildingBlock: AJUNOK_clean_linker_0, # of connection points: 2
#     Edge 35, Type (0, 1), BuildingBlock: AJUNOK_clean_linker_0, # of connection points: 2
#     Edge 36, Type (0, 1), BuildingBlock: AJUNOK_clean_linker_0, # of connection points: 2
#     Edge 37, Type (0, 1), BuildingBlock: AJUNOK_clean_linker_0, # of connection points: 2
#     Edge 38, Type (0, 1), BuildingBlock: AJUNOK_clean_linker_0, # of connection points: 2
#     Edge 39, Type (0, 1), BuildingBlock: AJUNOK_clean_linker_0, # of connection points: 2
#     Edge 40, Type (0, 1), BuildingBlock: AJUNOK_clean_linker_0, # of connection points: 2
#     Edge 41, Type (0, 1), BuildingBlock: AJUNOK_clean_linker_0, # of connection points: 2
#     Edge 42, Type (0, 1), BuildingBlock: AJUNOK_clean_linker_0, # of connection points: 2
#     Edge 43, Type (0, 1), BuildingBlock: AJUNOK_clean_linker_0, # of connection points: 2
#     Edge 44, Type (0, 1), BuildingBlock: AJUNOK_clean_linker_0, # of connection points: 2
#     Edge 45, Type (0, 1), BuildingBlock: AJUNOK_clean_linker_0, # of connection points: 2
#     Edge 46, Type (0, 1), BuildingBlock: AJUNOK_clean_linker_0, # of connection points: 2
#     Edge 47, Type (0, 1), BuildingBlock: AJUNOK_clean_linker_0, # of connection points: 2
#     Edge 48, Type (0, 1), BuildingBlock: AJUNOK_clean_linker_0, # of connection points: 2
#     Edge 49, Type (0, 1), BuildingBlock: AJUNOK_clean_linker_0, # of connection points: 2
#     Edge 50, Type (0, 1), BuildingBlock: AJUNOK_clean_linker_0, # of connection points: 2
#     Edge 51, Type (0, 1), BuildingBlock: AJUNOK_clean_linker_0, # of connection points: 2
#     Edge 52, Type (0, 1), BuildingBlock: AJUNOK_clean_linker_0, # of connection points: 2
#     Edge 53, Type (0, 1), BuildingBlock: AJUNOK_clean_linker_0, # of connection points: 2
#     Edge 54, Type (0, 1), BuildingBlock: AJUNOK_clean_linker_0, # of connection points: 2
#     Edge 55, Type (0, 1), BuildingBlock: AJUNOK_clean_linker_0, # of connection points: 2
#     Edge 56, Type (0, 1), BuildingBlock: AJUNOK_clean_linker_0, # of connection points: 2
#     Edge 57, Type (0, 1), BuildingBlock: AJUNOK_clean_linker_0, # of connection points: 2
#     Edge 58, Type (0, 1), BuildingBlock: AJUNOK_clean_linker_0, # of connection points: 2
#     Edge 59, Type (0, 1), BuildingBlock: AJUNOK_clean_linker_0, # of connection points: 2
#     Edge 60, Type (0, 1), BuildingBlock: AJUNOK_clean_linker_0, # of connection points: 2
#     Edge 61, Type (0, 1), BuildingBlock: AJUNOK_clean_linker_0, # of connection points: 2
#     Edge 62, Type (0, 1), BuildingBlock: AJUNOK_clean_linker_0, # of connection points: 2
#     Edge 63, Type (0, 1), BuildingBlock: AJUNOK_clean_linker_0, # of connection points: 2
#     Edge 64, Type (0, 1), BuildingBlock: AJUNOK_clean_linker_0, # of connection points: 2
#     Edge 65, Type (0, 1), BuildingBlock: AJUNOK_clean_linker_0, # of connection points: 2
#     Edge 66, Type (0, 1), BuildingBlock: AJUNOK_clean_linker_0, # of connection points: 2
#     Edge 67, Type (0, 1), BuildingBlock: AJUNOK_clean_linker_0, # of connection points: 2
# Relax obj value: 0.229
# Max RMSD: 0.355
# Mean RMSD: 0.193
data_MOF--net-soc--node1-ESEHIV_clean_sbu_0--node2-BETGAK_clean_sbu_0--edge1-AJUNOK_clean_linker_0
_symmetry_space_group_name_H-M    P1
_symmetry_Int_Tables_number       1
_symmetry_cell_setting            triclinic
loop_
_symmetry_equiv_pos_as_xyz
'x, y, z'
_cell_length_a     39.687324
_cell_length_b     38.542036
_cell_length_c     32.60316
_cell_angle_alpha  79.072546
_cell_angle_beta   79.95653
_cell_angle_gamma 64.462546
loop_
_atom_site_label
_atom_site_type_symbol
_atom_site_fract_x
_atom_site_fract_y
_atom_site_fract_z
_atom_type_partial_charge
Cu0 Cu 0.06254 0.07109 0.41218 0.0
N1 N 0.0824 0.08991 0.4456 0.0
N2 N 0.11226 0.12277 0.46005 0.0
C3 C 0.10505 0.10801 0.43005 0.0
C4 C 0.09315 0.11385 0.49584 0.0
C5 C 0.07464 0.0936 0.48681 0.0
O6 O 0.10511 0.03809 0.37655 0.0
C7 C 0.99588 0.13333 0.41441 0.0
O8 O 0.99958 0.11813 0.45384 0.0
H9 H 0.11411 0.11223 0.3969 0.0
H10 H 0.0553 0.08432 0.50837 0.0
N11 N 0.04053 0.03921 0.44321 0.0
N12 N 1.01232 0.99916 0.45221 0.0
C13 C 1.02199 0.02518 0.42526 0.0
C14 C 0.04231 0.02185 0.48326 0.0
C15 C 1.02449 0.99722 0.48899 0.0
C16 C 0.12578 1.00599 0.39658 0.0
O17 O 0.11761 0.99911 0.43719 0.0
H18 H 1.01634 0.03352 0.3927 0.0
H19 H 0.05721 0.02501 0.506 0.0
O20 O 1.02182 0.11641 0.38647 0.0
H21 H 0.09175 0.12239 0.52608 0.0
H22 H 1.02206 0.97819 0.51729 0.0
Cu23 Cu 0.0745 0.06744 0.78056 0.0
N24 N 0.05796 0.04558 0.7467 0.0
N25 N 1.02484 1.017 0.72988 0.0
C26 C 1.02675 0.03896 0.75628 0.0
C27 C 0.05626 1.00951 0.70266 0.0
C28 C 0.07657 0.0273 0.71308 0.0
O29 O 0.02935 0.10468 0.80949 0.0
C30 C 0.14474 1.00885 0.78702 0.0
O31 O 0.1482 0.02781 0.74981 0.0
H32 H 1.00667 0.04879 0.78321 0.0
H33 H 0.10396 0.02512 0.69866 0.0
N34 N 0.09664 0.0987 0.74877 0.0
N35 N 0.12365 0.13984 0.73756 0.0
C36 C 0.11007 0.11801 0.76649 0.0
C37 C 0.10205 0.10824 0.70698 0.0
C38 C 0.11924 0.13355 0.69993 0.0
C39 C 1.0095 0.13074 0.78228 0.0
O40 O 1.02126 0.12815 0.74231 0.0
H41 H 0.11063 0.11521 0.80007 0.0
H42 H 0.09407 0.09761 0.68351 0.0
O43 O 0.1138 0.02288 0.81048 0.0
H44 H 0.06536 0.99042 0.67876 0.0
H45 H 0.12778 0.14635 0.66973 0.0
Cu46 Cu 0.32129 0.10422 0.12854 0.0
N47 N 0.27797 0.10764 0.10992 0.0
N48 N 0.24177 0.08531 0.08856 0.0
C49 C 0.27598 0.07692 0.09879 0.0
C50 C 0.22115 0.12307 0.0924 0.0
C51 C 0.24359 0.13681 0.1062 0.0
O52 O 0.34309 0.04938 0.15661 0.0
C53 C 0.33013 0.15454 0.05717 0.0
O54 O 0.29482 0.17392 0.07046 0.0
H55 H 0.29931 0.0487 0.09824 0.0
H56 H 0.23528 0.16587 0.11326 0.0
N57 N 0.30797 0.13771 0.16903 0.0
N58 N 0.31048 0.17211 0.21545 0.0
C59 C 0.32964 0.15052 0.18404 0.0
C60 C 0.27415 0.15215 0.19137 0.0
C61 C 0.27559 0.17337 0.21989 0.0
C62 C 0.31992 0.03963 0.18371 0.0
O63 O 0.2865 0.06672 0.19281 0.0
H64 H 0.35901 0.14312 0.17323 0.0
H65 H 0.25028 0.14676 0.18801 0.0
O66 O 0.34919 0.12221 0.07846 0.0
H67 H 0.19213 0.1392 0.08615 0.0
H68 H 0.25289 0.18821 0.24264 0.0
Cu69 Cu 0.10802 0.32552 0.16017 0.0
N70 N 0.12087 0.35532 0.11331 0.0
N71 N 0.15331 0.3642 0.05197 0.0
C72 C 0.1547 0.3435 0.09049 0.0
C73 C 0.11734 0.39041 0.05081 0.0
C74 C 0.09738 0.38488 0.08872 0.0
O75 O 0.14838 0.30714 0.19917 0.0
C76 C 0.09589 0.28754 0.09763 0.0
O77 O 0.12157 0.29589 0.07217 0.0
H78 H 0.17862 0.31741 0.10014 0.0
H79 H 0.06732 0.39902 0.09637 0.0
N80 N 0.06296 0.35434 0.19054 0.0
N81 N 1.0065 0.36492 0.22661 0.0
C82 C 0.03255 0.34616 0.19654 0.0
C83 C 0.05606 0.37925 0.21789 0.0
C84 C 1.02159 0.3856 0.24025 0.0
C85 C 0.15643 0.33306 0.2098 0.0
O86 O 0.1406 0.3689 0.1918 0.0
H87 H 0.03067 0.32496 0.18086 0.0
H88 H 0.0755 0.39007 0.22363 0.0
O89 O 0.09224 0.291 0.13677 0.0
H90 H 0.10585 0.4106 1.02364 0.0
H91 H 1.01033 0.40195 0.26663 0.0
Cu92 Cu 0.79991 0.03419 0.04129 0.0
N93 N 0.82733 0.05642 1.00236 0.0
N94 N 0.83688 0.10612 0.96383 0.0
C95 C 0.81147 0.0939 0.98644 0.0
C96 C 0.87025 0.07514 0.96554 0.0
C97 C 0.86422 0.04421 0.98919 0.0
O98 O 0.77284 0.07336 0.07965 0.0
C99 C 0.79541 0.99299 0.98506 0.0
O100 O 0.83167 0.98261 0.98421 0.0
H101 H 0.78217 0.1125 0.99375 0.0
H102 H 0.8854 1.01552 0.99729 0.0
N103 N 0.82843 0.99076 0.07583 0.0
N104 N 0.83583 0.94664 0.13236 0.0
C105 C 0.81131 0.9748 0.1077 0.0
C106 C 0.86537 0.97235 0.0806 0.0
C107 C 0.87001 0.9449 0.11573 0.0
C108 C 0.7965 0.07858 0.09708 0.0
O109 O 0.8325 0.05899 0.08676 0.0
H110 H 0.78109 0.98484 0.11352 0.0
H111 H 0.88723 0.97914 0.06118 0.0
O112 O 0.77302 1.01725 1.0098 0.0
H113 H 0.89707 0.07523 0.95169 0.0
H114 H 0.89628 0.92529 0.12808 0.0
Cu115 Cu 0.0413 0.80646 1.03283 0.0
N116 N 1.01051 0.82072 0.98898 0.0
N117 N 0.96868 0.82294 0.94899 0.0
C118 C 0.983 0.80958 0.98656 0.0
C119 C 0.9881 0.84295 0.92694 0.0
C120 C 1.0137 0.84158 0.95156 0.0
O121 O 1.02175 0.77842 0.08281 0.0
C122 C 0.10837 0.81132 0.9894 0.0
O123 O 0.08439 0.84782 0.98542 0.0
H124 H 0.97428 0.79129 1.01147 0.0
H125 H 0.03356 0.85462 0.94241 0.0
N126 N 0.03696 0.8483 0.05651 0.0
N127 N 0.05693 0.87391 0.0976 0.0
C128 C 0.05991 0.84126 0.08546 0.0
C129 C 1.01843 0.88712 0.04946 0.0
C130 C 0.03112 0.90315 0.07479 0.0
C131 C 0.98796 0.79757 0.09877 0.0
O132 O 0.96835 0.83208 0.0797 0.0
H133 H 0.08042 0.81246 0.09512 0.0
H134 H 0.99864 0.90253 1.02639 0.0
O135 O 0.09604 0.78581 1.00855 0.0
H136 H 0.98373 0.85796 0.8954 0.0
H137 H 1.02292 0.93371 0.07551 0.0
Cu138 Cu 0.57149 0.55167 0.91356 0.0
N139 N 0.58759 0.57668 0.94385 0.0
N140 N 0.60966 0.61725 0.95659 0.0
C141 C 0.59739 0.60613 0.92761 0.0
C142 C 0.60674 0.59442 0.99269 0.0
C143 C 0.59281 0.56955 0.98478 0.0
O144 O 0.61445 0.51321 0.88393 0.0
C145 C 0.50209 0.6107 0.9057 0.0
O146 O 0.50136 0.60089 0.94657 0.0
H147 H 0.59735 0.61767 0.89466 0.0
H148 H 0.58752 0.54748 1.00717 0.0
N149 N 0.55066 0.52175 0.94994 0.0
N150 N 0.51689 0.48692 0.96696 0.0
C151 C 0.52112 0.51702 0.94192 0.0
C152 C 0.56596 0.4936 0.98115 0.0
C153 C 0.54487 0.47205 0.992 0.0
C154 C 0.64532 0.5166 0.873 0.0
O155 O 0.6455 0.55079 0.87117 0.0
H156 H 0.50482 0.53351 0.91595 0.0
H157 H 0.59241 0.48696 0.99239 0.0
O158 O 0.53165 0.59252 0.88226 0.0
H159 H 0.61485 0.59515 1.02244 0.0
H160 H 0.55166 0.44554 1.01365 0.0
Cu161 Cu 0.57558 0.5787 0.26839 0.0
N162 N 0.55727 0.55632 0.23792 0.0
N163 N 0.52563 0.52422 0.22668 0.0
C164 C 0.52783 0.54726 0.25137 0.0
C165 C 0.5549 0.51836 0.19669 0.0
C166 C 0.57447 0.53836 0.20371 0.0
O167 O 0.53351 0.61686 0.29871 0.0
C168 C 0.64459 0.51867 0.28282 0.0
O169 O 0.65234 0.53193 0.24389 0.0
H170 H 0.51034 0.55473 0.28059 0.0
H171 H 0.60069 0.53773 0.18688 0.0
N172 N 0.6 0.6058 0.23241 0.0
N173 N 0.63681 0.63697 0.21265 0.0
C174 C 0.62325 0.61762 0.24479 0.0
C175 C 0.59862 0.61823 0.19095 0.0
C176 C 0.62146 0.63784 0.1786 0.0
C177 C 0.51456 0.6471 0.27501 0.0
O178 O 0.52283 0.64827 0.23417 0.0
H179 H 0.63056 0.61162 0.27667 0.0
H180 H 0.58216 0.61344 0.17123 0.0
O181 O 0.61193 0.5356 0.30169 0.0
H182 H 0.56257 0.49947 0.17278 0.0
H183 H 0.62716 0.65075 0.14717 0.0
Cu184 Cu 0.81331 0.61457 0.64178 0.0
N185 N 0.82059 0.64453 0.59165 0.0
N186 N 0.83794 0.67024 0.52922 0.0
C187 C 0.85 0.64457 0.56366 0.0
C188 C 0.80029 0.68711 0.53592 0.0
C189 C 0.78976 0.67127 0.57435 0.0
O190 O 0.8001 0.6494 0.68502 0.0
C191 C 0.7962 0.5761 0.59407 0.0
O192 O 0.82774 0.5778 0.57582 0.0
H193 H 0.87908 0.62572 0.56774 0.0
H194 H 0.7613 0.67792 0.58858 0.0
N195 N 0.85207 0.56741 0.66056 0.0
N196 N 0.87049 0.50721 0.69576 0.0
C197 C 0.84557 0.53506 0.67122 0.0
C198 C 0.88226 0.5599 0.67993 0.0
C199 C 0.89368 0.52274 0.70168 0.0
C200 C 0.82283 0.6655 0.68319 0.0
O201 O 0.85156 0.65723 0.65411 0.0
H202 H 0.82023 0.53352 0.66576 0.0
H203 H 0.89298 0.581 0.68162 0.0
O204 O 0.77964 0.59472 0.62579 0.0
H205 H 0.78183 0.7094 0.51442 0.0
H206 H 0.91568 0.50928 0.72243 0.0
Cu207 Cu 0.60073 0.84133 0.64862 0.0
N208 N 0.64678 0.83134 0.61084 0.0
N209 N 0.69203 0.82788 0.55557 0.0
C210 C 0.66752 0.81236 0.57707 0.0
C211 C 0.6854 0.85766 0.57614 0.0
C212 C 0.65827 0.85983 0.60846 0.0
O213 O 0.60846 0.86912 0.68858 0.0
C214 C 0.56609 0.83842 0.59108 0.0
O215 O 0.59424 0.80458 0.59832 0.0
H216 H 0.6634 0.78935 0.56721 0.0
H217 H 0.64469 0.88402 0.62628 0.0
N218 N 0.57812 0.80919 0.68426 0.0
N219 N 0.52845 0.80132 0.72473 0.0
C220 C 0.53997 0.82174 0.69114 0.0
C221 C 0.59091 0.77942 0.71503 0.0
C222 C 0.56055 0.77475 0.73992 0.0
C223 C 0.63563 0.84691 0.71044 0.0
O224 O 0.65179 0.80987 0.70628 0.0
H225 H 0.52073 0.84744 0.67375 0.0
H226 H 0.62 0.76359 0.72086 0.0
O227 O 0.56325 0.86615 0.60954 0.0
H228 H 0.69699 0.87908 0.56656 0.0
H229 H 0.56195 0.75421 0.76797 0.0
Cu230 Cu 0.30341 0.53478 0.5522 0.0
N231 N 0.3301 0.56181 0.5161 0.0
N232 N 0.33901 0.61394 0.47991 0.0
C233 C 0.31397 0.60021 0.5019 0.0
C234 C 0.37238 0.5827 0.48066 0.0
C235 C 0.36686 0.5508 0.50288 0.0
O236 O 0.27296 0.57236 0.58989 0.0
C237 C 0.3015 0.49657 0.49147 0.0
O238 O 0.33727 0.48914 0.48932 0.0
H239 H 0.28452 0.61802 0.5094 0.0
H240 H 0.38831 0.52191 0.5097 0.0
N241 N 0.32994 0.48986 0.58891 0.0
N242 N 0.33861 0.4438 0.64509 0.0
C243 C 0.31446 0.47781 0.62618 0.0
C244 C 0.36516 0.46244 0.58407 0.0
C245 C 0.37048 0.43402 0.61841 0.0
C246 C 0.29581 0.57607 0.60995 0.0
O247 O 0.33202 0.55556 0.60182 0.0
H248 H 0.28543 0.49293 0.63825 0.0
H249 H 0.38523 0.46247 0.557 0.0
O250 O 0.27851 0.51827 0.51808 0.0
H251 H 0.39907 0.58281 0.46629 0.0
H252 H 0.39567 0.40766 0.62295 0.0
Cu253 Cu 0.52888 0.31282 0.53659 0.0
N254 N 0.57398 0.28734 0.50409 0.0
N255 N 0.63008 0.27745 0.46832 0.0
C256 C 0.60066 0.30109 0.49183 0.0
C257 C 0.62162 0.24778 0.46534 0.0
C258 C 0.58724 0.25365 0.48791 0.0
O259 O 0.54179 0.3453 0.5672 0.0
C260 C 0.48159 0.31159 0.48032 0.0
O261 O 0.50598 0.27531 0.48309 0.0
H262 H 0.59823 0.32828 0.49943 0.0
H263 H 0.57324 0.23443 0.49221 0.0
N264 N 0.51666 0.27922 0.57908 0.0
N265 N 0.48811 0.26269 0.63989 0.0
C266 C 0.49071 0.29204 0.61148 0.0
C267 C 0.53069 0.24028 0.58657 0.0
C268 C 0.5129 0.22998 0.62413 0.0
C269 C 0.56676 0.32579 0.59297 0.0
O270 O 0.58018 0.2878 0.59755 0.0
H271 H 0.47408 0.32253 0.61387 0.0
H272 H 0.55271 0.22079 0.56674 0.0
O273 O 0.4859 0.33479 0.50067 0.0
H274 H 0.63927 0.2234 0.44843 0.0
H275 H 0.51853 0.20078 0.63928 0.0
La276 La 0.29119 0.31728 0.38858 0.0
La277 La 0.32991 0.34539 0.31589 0.0
C278 C 0.25189 0.28921 0.44069 0.0
C279 C 0.23147 0.26549 0.44082 0.0
C280 C 0.21895 0.24954 0.47933 0.0
C281 C 0.19958 0.22662 0.48036 0.0
C282 C 0.19225 0.21955 0.44284 0.0
C283 C 0.20463 0.23588 0.40417 0.0
C284 C 0.22441 0.25851 0.40318 0.0
C285 C 0.35271 0.32003 0.40746 0.0
C286 C 0.33489 0.2632 0.31696 0.0
C287 C 0.3698 0.37336 0.26498 0.0
C288 C 0.39036 0.39713 0.26508 0.0
C289 C 0.38091 0.43235 0.23844 0.0
C290 C 0.40104 0.45471 0.23627 0.0
C291 C 0.43112 0.44197 0.26047 0.0
C292 C 0.44035 0.40699 0.28757 0.0
C293 C 0.42 0.38473 0.29004 0.0
C294 C 0.26988 0.34141 0.2952 0.0
C295 C 0.28609 0.39975 0.38725 0.0
O296 O 0.28848 0.27174 0.43393 0.0
O297 O 0.23839 0.32394 0.41958 0.0
O298 O 0.32271 0.32393 0.43237 0.0
O299 O 0.34971 0.31006 0.37357 0.0
O300 O 0.30859 0.27158 0.34894 0.0
O301 O 0.35222 0.28611 0.30176 0.0
O302 O 0.33313 0.39093 0.27095 0.0
O303 O 0.38293 0.33822 0.28534 0.0
O304 O 0.29963 0.33956 0.27083 0.0
O305 O 0.27151 0.35128 0.32999 0.0
O306 O 0.31267 0.39093 0.35565 0.0
O307 O 0.26863 0.3769 0.40229 0.0
H308 H 0.2243 0.25469 0.50861 0.0
H309 H 0.19057 0.21414 0.51055 0.0
H310 H 0.19876 0.23145 0.37482 0.0
H311 H 0.23413 0.27059 0.37317 0.0
H312 H 0.35836 0.44222 0.21871 0.0
H313 H 0.39399 0.48126 0.21456 0.0
H314 H 0.46364 0.39666 0.30633 0.0
H315 H 0.4279 0.35764 0.31087 0.0
La316 La 0.81079 0.35027 0.37473 0.0
La317 La 0.81816 0.29741 0.30681 0.0
C318 C 0.78846 0.4106 0.40919 0.0
C319 C 0.77719 0.42956 0.44747 0.0
C320 C 0.78977 0.40951 0.48632 0.0
C321 C 0.78502 0.43017 0.51953 0.0
C322 C 0.76824 0.47107 0.51396 0.0
C323 C 0.75298 0.49059 0.47614 0.0
C324 C 0.75745 0.46999 0.44322 0.0
C325 C 0.86269 0.27807 0.39023 0.0
C326 C 0.76093 0.30183 0.38782 0.0
C327 C 0.83785 0.24788 0.25721 0.0
C328 C 0.8242 0.22713 0.23539 0.0
C329 C 0.78581 0.23687 0.23464 0.0
C330 C 0.77462 0.21457 0.21504 0.0
C331 C 0.80174 0.18212 0.19665 0.0
C332 C 0.83996 0.17329 0.19683 0.0
C333 C 0.85101 0.19549 0.21606 0.0
C334 C 0.76272 0.36695 0.30473 0.0
C335 C 0.87197 0.34116 0.29768 0.0
O336 O 0.82397 0.38727 0.40182 0.0
O337 O 0.76555 0.39876 0.39756 0.0
O338 O 0.85316 0.30486 0.41436 0.0
O339 O 0.84109 0.29266 0.3619 0.0
O340 O 0.76631 0.33053 0.39844 0.0
O341 O 0.78117 0.2817 0.35657 0.0
O342 O 0.83687 0.2393 0.29821 0.0
O343 O 0.8284 0.28504 0.24467 0.0
O344 O 0.76103 0.33764 0.29261 0.0
O345 O 0.79536 0.35744 0.31343 0.0
O346 O 0.86762 0.31107 0.2891 0.0
O347 O 0.84815 0.3643 0.32465 0.0
H348 H 0.80503 0.37825 0.49021 0.0
H349 H 0.79674 0.41436 0.54856 0.0
H350 H 0.74031 0.52199 0.47071 0.0
H351 H 0.74767 0.48593 0.41336 0.0
H352 H 0.7647 0.26123 0.24959 0.0
H353 H 0.745 0.22201 0.21512 0.0
H354 H 0.86143 0.14887 0.18226 0.0
H355 H 0.88072 0.18759 0.21629 0.0
La356 La 0.82994 0.77273 0.31449 0.0
La357 La 0.85921 0.82491 0.33989 0.0
C358 C 0.80285 0.72533 0.3126 0.0
C359 C 0.78268 0.71269 0.28998 0.0
C360 C 0.77603 0.72676 0.2479 0.0
C361 C 0.75428 0.71499 0.22899 0.0
C362 C 0.73913 0.68943 0.25231 0.0
C363 C 0.74574 0.67603 0.29448 0.0
C364 C 0.76737 0.68754 0.31307 0.0
C365 C 0.80961 0.84092 0.26867 0.0
C366 C 0.79229 0.81237 0.39821 0.0
C367 C 0.87971 0.87783 0.34105 0.0
C368 C 0.89095 0.89626 0.36812 0.0
C369 C 0.90976 0.87533 0.40362 0.0
C370 C 0.92753 0.89133 0.42302 0.0
C371 C 0.92661 0.92808 0.40678 0.0
C372 C 0.90563 0.94984 0.37321 0.0
C373 C 0.88784 0.93401 0.35404 0.0
C374 C 0.8794 0.7577 0.38785 0.0
C375 C 0.89904 0.78092 0.25814 0.0
O376 O 0.83792 0.71887 0.29925 0.0
O377 O 0.78367 0.75881 0.32651 0.0
O378 O 0.81143 0.81017 0.25659 0.0
O379 O 0.81404 0.8339 0.30714 0.0
O380 O 0.80014 0.78331 0.37715 0.0
O381 O 0.80951 0.83617 0.3866 0.0
O382 O 0.90285 0.84222 0.33524 0.0
O383 O 0.84433 0.88357 0.34488 0.0
O384 O 0.87739 0.78934 0.39834 0.0
O385 O 0.87518 0.76316 0.349 0.0
O386 O 0.89281 0.80942 0.2795 0.0
O387 O 0.88028 0.75864 0.26911 0.0
H388 H 0.78728 0.74685 0.23007 0.0
H389 H 0.74942 0.72562 0.19639 0.0
H390 H 0.73369 0.65698 0.31335 0.0
H391 H 0.77158 0.67726 0.34589 0.0
H392 H 0.9125 0.84599 0.41474 0.0
H393 H 0.94384 0.87421 0.44884 0.0
H394 H 0.90477 0.97826 0.3604 0.0
H395 H 0.87362 0.95035 0.32653 0.0
La396 La 0.3028 0.82236 0.31019 0.0
La397 La 0.34435 0.83833 0.36275 0.0
C398 C 0.25975 0.81918 0.26479 0.0
C399 C 0.23172 0.84027 0.23523 0.0
C400 C 0.23694 0.82496 0.19779 0.0
C401 C 0.20724 0.83745 0.17367 0.0
C402 C 0.17214 0.86545 0.1868 0.0
C403 C 0.16748 0.88285 0.22259 0.0
C404 C 0.19729 0.87039 0.24678 0.0
C405 C 0.37267 0.77101 0.31188 0.0
C406 C 0.3327 0.8888 0.27628 0.0
C407 C 0.38577 0.84157 0.40945 0.0
C408 C 0.41023 0.84338 0.4368 0.0
C409 C 0.39493 0.86357 0.47192 0.0
C410 C 0.41857 0.86568 0.49746 0.0
C411 C 0.45756 0.84743 0.48809 0.0
C412 C 0.47272 0.82811 0.45242 0.0
C413 C 0.44921 0.82602 0.42697 0.0
C414 C 0.27404 0.88993 0.36016 0.0
C415 C 0.31832 0.76906 0.39504 0.0
O416 O 0.29452 0.81384 0.25171 0.0
O417 O 0.25005 0.82591 0.30396 0.0
O418 O 0.34478 0.76304 0.30972 0.0
O419 O 0.36174 0.80712 0.3101 0.0
O420 O 0.30639 0.87634 0.27541 0.0
O421 O 0.35584 0.87311 0.30573 0.0
O422 O 0.35033 0.84911 0.42125 0.0
O423 O 0.39817 0.8306 0.37205 0.0
O424 O 0.30209 0.89801 0.36153 0.0
O425 O 0.28531 0.85367 0.36264 0.0
O426 O 0.34324 0.78306 0.39658 0.0
O427 O 0.29428 0.78522 0.36655 0.0
H428 H 0.26316 0.80134 0.18878 0.0
H429 H 0.21089 0.82342 0.14638 0.0
H430 H 0.14024 0.9041 0.23324 0.0
H431 H 0.19262 0.88243 0.27577 0.0
H432 H 0.36482 0.87761 0.47965 0.0
H433 H 0.40655 0.88054 0.52504 0.0
H434 H 0.50284 0.81403 0.44469 0.0
H435 H 0.46157 0.81054 0.39987 0.0
La436 La 0.32429 0.82808 0.88933 0.0
La437 La 0.31735 0.78315 0.8266 0.0
C438 C 0.3196 0.8704 0.94118 0.0
C439 C 0.29476 0.89748 0.9702 0.0
C440 C 0.31033 0.90035 1.00396 0.0
C441 C 0.2905 0.93043 1.02806 0.0
C442 C 0.25459 0.95813 1.01887 0.0
C443 C 0.23783 0.9535 0.98686 0.0
C444 C 0.25795 0.92328 0.96244 0.0
C445 C 0.37677 0.75692 0.88689 0.0
C446 C 0.25751 0.79809 0.90598 0.0
C447 C 0.32925 0.7306 0.78419 0.0
C448 C 0.31179 0.72332 0.75268 0.0
C449 C 0.2757 0.72362 0.76104 0.0
C450 C 0.26351 0.7082 0.73415 0.0
C451 C 0.28718 0.69287 0.69882 0.0
C452 C 0.32135 0.69658 0.68816 0.0
C453 C 0.33364 0.71164 0.71507 0.0
C454 C 0.26894 0.85689 0.81215 0.0
C455 C 0.37967 0.81822 0.80705 0.0
O456 O 0.32519 0.83389 0.95166 0.0
O457 O 0.31696 0.88238 0.90087 0.0
O458 O 0.38212 0.78553 0.89481 0.0
O459 O 0.34246 0.76787 0.88359 0.0
O460 O 0.2714 0.82141 0.91503 0.0
O461 O 0.27325 0.7772 0.87436 0.0
O462 O 0.31272 0.73184 0.82272 0.0
O463 O 0.34235 0.75718 0.77196 0.0
O464 O 0.27353 0.82971 0.79097 0.0
O465 O 0.2919 0.84175 0.83923 0.0
O466 O 0.36941 0.79108 0.80148 0.0
O467 O 0.36143 0.84119 0.83651 0.0
H468 H 0.3388 0.88062 1.01016 0.0
H469 H 0.30442 0.93343 0.05212 0.0
H470 H 0.20998 0.97414 0.97958 0.0
H471 H 0.24553 0.92115 0.93649 0.0
H472 H 0.25809 0.73313 0.78963 0.0
H473 H 0.23727 0.70503 0.7429 0.0
H474 H 0.34016 0.68428 0.66126 0.0
H475 H 0.36143 0.71149 0.70803 0.0
La476 La 0.31538 0.27765 0.83863 0.0
La477 La 0.34373 0.3271 0.86714 0.0
C478 C 0.29324 0.22626 0.83523 0.0
C479 C 0.26495 0.2205 0.81782 0.0
C480 C 0.25575 0.23554 0.77657 0.0
C481 C 0.2295 0.22765 0.76103 0.0
C482 C 0.21214 0.20516 0.78683 0.0
C483 C 0.22125 0.19064 0.82813 0.0
C484 C 0.24739 0.19838 0.84351 0.0
C485 C 0.3029 0.34273 0.78597 0.0
C486 C 0.26775 0.33075 0.91131 0.0
C487 C 0.37292 0.37211 0.87124 0.0
C488 C 0.38361 0.38943 0.9001 0.0
C489 C 0.40943 0.36649 0.9293 0.0
C490 C 0.42698 0.38321 0.9478 0.0
C491 C 0.41867 0.42283 0.93728 0.0
C492 C 0.39028 0.44619 0.91133 0.0
C493 C 0.37288 0.42954 0.8928 0.0
C494 C 0.35437 0.26166 0.91854 0.0
C495 C 0.38911 0.27874 0.79428 0.0
O496 O 0.31986 0.23185 0.80906 0.0
O497 O 0.28056 0.24914 0.86431 0.0
O498 O 0.30381 0.31114 0.77685 0.0
O499 O 0.30268 0.33881 0.82557 0.0
O500 O 0.27315 0.30197 0.89079 0.0
O501 O 0.29017 0.34882 0.90405 0.0
O502 O 0.337 0.38397 0.86836 0.0
O503 O 0.39206 0.33486 0.86959 0.0
O504 O 0.35014 0.29379 0.92982 0.0
O505 O 0.35702 0.2655 0.87881 0.0
O506 O 0.37631 0.31225 0.80817 0.0
O507 O 0.37337 0.25445 0.80987 0.0
H508 H 0.26903 0.25288 0.75638 0.0
H509 H 0.22284 0.23891 0.729 0.0
H510 H 0.20882 0.17247 0.84823 0.0
H511 H 0.25437 0.18657 0.87538 0.0
H512 H 0.41804 0.33538 0.93549 0.0
H513 H 0.4491 0.36474 0.9675 0.0
H514 H 0.38353 0.47688 0.90299 0.0
H515 H 0.35311 0.4476 0.87028 0.0
La516 La 0.80075 0.32251 0.81211 0.0
La517 La 0.85446 0.32077 0.87063 0.0
C518 C 0.75039 0.33435 0.76672 0.0
C519 C 0.72143 0.34043 0.73896 0.0
C520 C 0.73126 0.32005 0.70407 0.0
C521 C 0.70373 0.32319 0.67984 0.0
C522 C 0.66542 0.3469 0.6896 0.0
C523 C 0.65582 0.36791 0.72408 0.0
C524 C 0.68334 0.36446 0.74856 0.0
C525 C 0.86799 0.26433 0.80799 0.0
C526 C 0.8454 0.37557 0.78805 0.0
C527 C 0.90934 0.30507 0.91126 0.0
C528 C 0.92842 0.30072 0.94861 0.0
C529 C 0.92625 0.33305 0.96494 0.0
C530 C 0.9511 0.32854 0.99352 0.0
C531 C 0.97896 0.29171 1.00601 0.0
C532 C 0.97952 0.25933 0.99144 0.0
C533 C 0.95474 0.26381 0.96305 0.0
C534 C 0.78616 0.37715 0.87867 0.0
C535 C 0.81507 0.26209 0.89356 0.0
O536 O 0.78617 0.32209 0.75311 0.0
O537 O 0.7427 0.34211 0.80562 0.0
O538 O 0.83727 0.26342 0.80133 0.0
O539 O 0.86144 0.29859 0.81278 0.0
O540 O 0.81354 0.37292 0.78602 0.0
O541 O 0.87044 0.35035 0.8128 0.0
O542 O 0.88933 0.33968 0.89326 0.0
O543 O 0.89703 0.2795 0.9073 0.0
O544 O 0.81593 0.37699 0.88955 0.0
O545 O 0.7942 0.34368 0.87023 0.0
O546 O 0.8407 0.27275 0.90105 0.0
O547 O 0.79232 0.28108 0.86381 0.0
H548 H 0.76023 0.3008 0.69607 0.0
H549 H 0.71244 0.30617 0.65398 0.0
H550 H 0.62694 0.3872 0.73223 0.0
H551 H 0.67473 0.38051 0.77522 0.0
H552 H 0.90662 0.36201 0.95416 0.0
H553 H 0.9498 0.35412 1.0041 0.0
H554 H 1.00001 0.23048 1.00099 0.0
H555 H 0.9575 0.23841 0.9507 0.0
La556 La 0.77673 0.82295 0.87127 0.0
La557 La 0.81706 0.85042 0.80146 0.0
C558 C 0.73964 0.79332 0.9245 0.0
C559 C 0.71956 0.76924 0.92606 0.0
C560 C 0.70646 0.75524 0.9653 0.0
C561 C 0.68848 0.73082 0.96806 0.0
C562 C 0.68339 0.72018 0.93151 0.0
C563 C 0.6964 0.73447 0.89205 0.0
C564 C 0.71469 0.75876 0.88938 0.0
C565 C 0.84065 0.81758 0.89137 0.0
C566 C 0.81446 0.77252 0.79539 0.0
C567 C 0.85755 0.87906 0.75255 0.0
C568 C 0.87778 0.90281 0.75426 0.0
C569 C 0.87075 0.93676 0.72589 0.0
C570 C 0.89182 0.95815 0.72396 0.0
C571 C 0.92077 0.94549 0.74988 0.0
C572 C 0.92638 0.9127 0.77999 0.0
C573 C 0.90497 0.89153 0.78223 0.0
C574 C 0.75189 0.85836 0.7821 0.0
C575 C 0.7766 0.9023 0.87548 0.0
O576 O 0.77595 0.77621 0.91527 0.0
O577 O 0.72496 0.82847 0.90469 0.0
O578 O 0.80974 0.82556 0.91538 0.0
O579 O 0.83637 0.81038 0.85657 0.0
O580 O 0.78746 0.78198 0.8267 0.0
O581 O 0.83495 0.79281 0.78361 0.0
O582 O 0.82094 0.89648 0.758 0.0
O583 O 0.87047 0.84355 0.77198 0.0
O584 O 0.78234 0.85092 0.75696 0.0
O585 O 0.75724 0.86414 0.81707 0.0
O586 O 0.80414 0.8923 0.84492 0.0
O587 O 0.75674 0.88144 0.88801 0.0
H588 H 0.71042 0.76297 0.99382 0.0
H589 H 0.67844 0.72028 0.9988 0.0
H590 H 0.6929 0.72643 0.86351 0.0
H591 H 0.72488 0.76944 0.85887 0.0
H592 H 0.8495 0.94626 0.70448 0.0
H593 H 0.88607 0.98408 0.70147 0.0
H594 H 0.94832 0.90252 0.80062 0.0
H595 H 0.91054 0.8658 0.80485 0.0
C596 C 0.11943 0.17838 0.47738 0.0
C597 C 0.13227 0.14703 0.45419 0.0
C598 C 0.13857 0.20217 0.47269 0.0
C599 C 0.17134 0.19543 0.44471 0.0
H600 H 0.09419 0.18477 0.4991 0.0
H601 H 0.12764 0.22603 0.49121 0.0
S602 S 0.21691 0.11675 0.37698 0.0
N603 N 0.17981 0.11028 0.40231 0.0
N604 N 0.21598 0.15511 0.39352 0.0
C605 C 0.18426 0.1645 0.42083 0.0
C606 C 0.16469 0.14024 0.42559 0.0
C607 C 0.94345 0.19269 0.43818 0.0
C608 C 0.96261 0.17021 0.40519 0.0
C609 C 0.91106 0.22688 0.43266 0.0
C610 C 0.89595 0.2403 0.39399 0.0
H611 H 0.95364 0.18401 0.46886 0.0
H612 H 0.89773 0.24301 0.45918 0.0
S613 S 0.93602 0.19345 0.29659 0.0
N614 N 0.96447 0.16427 0.33187 0.0
N615 N 0.90378 0.22935 0.32119 0.0
C616 C 0.91495 0.21854 0.36033 0.0
C617 C 0.94827 0.18339 0.36597 0.0
C618 C 0.96478 0.97229 0.47099 0.0
C619 C 0.99387 0.97733 0.44269 0.0
C620 C 0.94367 0.95482 0.46003 0.0
C621 C 0.95129 0.94202 0.42055 0.0
H622 H 0.95738 0.98336 0.50095 0.0
H623 H 0.92048 0.95261 0.48177 0.0
S624 S 1.02787 0.94337 0.33796 0.0
N625 N 0.03186 0.96417 0.37563 0.0
N626 N 0.99174 0.93198 0.35483 0.0
C627 C 0.98149 0.94507 0.39295 0.0
C628 C 1.00295 0.96261 0.40408 0.0
C629 C 0.19045 0.98747 0.35975 0.0
C630 C 0.16053 0.97727 0.37714 0.0
C631 C 0.22695 0.95876 0.35263 0.0
C632 C 0.2346 0.91898 0.36227 0.0
H633 H 0.18618 1.01763 0.35451 0.0
H634 H 0.2496 0.9678 0.34104 0.0
S635 S 0.16496 0.87759 0.40438 0.0
N636 N 0.14026 0.925 0.40121 0.0
N637 N 0.2086 0.87115 0.38671 0.0
C638 C 0.20444 0.90855 0.37695 0.0
C639 C 0.16746 0.93772 0.38477 0.0
C640 C 0.18883 0.9544 0.83532 0.0
C641 C 0.17447 0.96918 0.79603 0.0
C642 C 0.22044 0.91846 0.84074 0.0
C643 C 0.23822 0.89635 0.80708 0.0
H644 H 0.17621 0.971 0.86155 0.0
H645 H 0.23058 0.90765 0.87138 0.0
S646 S 0.21038 0.92153 0.69882 0.0
N647 N 0.17975 0.95783 0.72378 0.0
N648 N 0.23864 0.89172 0.7338 0.0
C649 C 0.22363 0.91079 0.76815 0.0
C650 C 0.19187 0.94678 0.76269 0.0
C651 C 0.17591 0.15986 0.72212 0.0
C652 C 0.14224 0.16189 0.74607 0.0
C653 C 0.19761 0.17598 0.7342 0.0
C654 C 0.18609 0.19459 0.7705 0.0
H655 H 0.18654 0.14382 0.69537 0.0
H656 H 0.22447 0.172 0.7164 0.0
S657 S 0.09762 0.21221 0.84042 0.0
N658 N 0.09643 0.18738 0.80501 0.0
N659 N 0.13735 0.21765 0.82777 0.0
C660 C 0.1514 0.19884 0.7932 0.0
C661 C 0.1294 0.18246 0.78096 0.0
C662 C 0.96755 0.18711 0.82249 0.0
C663 C 0.97275 0.16266 0.79269 0.0
C664 C 0.93424 0.22125 0.82645 0.0
C665 C 0.90505 0.23146 0.80127 0.0
H666 H 0.98973 0.18056 0.84174 0.0
H667 H 0.93126 0.23934 0.84953 0.0
S668 S 0.90567 0.17757 0.71791 0.0
N669 N 0.94626 0.15156 0.73725 0.0
N670 N 0.88429 0.21477 0.74492 0.0
C671 C 0.91021 0.2071 0.77154 0.0
C672 C 0.94384 0.17295 0.76727 0.0
C673 C 0.98072 0.99205 0.77393 0.0
C674 C 0.99774 1.00063 0.73394 0.0
C675 C 0.95551 0.97464 0.77885 0.0
C676 C 0.94641 0.96514 0.74398 0.0
H677 H 0.9875 0.99798 0.80184 0.0
H678 H 0.94315 0.96847 0.81018 0.0
S679 S 0.98288 0.98164 0.63258 0.0
N680 N 1.0026 0.99935 0.6588 0.0
N681 N 0.95674 0.96481 0.66826 0.0
C682 C 0.96308 0.9736 0.70385 0.0
C683 C 0.98841 0.99171 0.69879 0.0
C684 C 0.3406 0.21458 0.22329 0.0
C685 C 0.32396 0.18882 0.24128 0.0
C686 C 0.34724 0.23652 0.24843 0.0
C687 C 0.33761 0.23313 0.29236 0.0
H688 H 0.34624 0.21954 0.18947 0.0
H689 H 0.35753 0.25808 0.233 0.0
S690 S 0.29893 0.16479 0.35458 0.0
N691 N 0.30217 0.15774 0.30541 0.0
N692 N 0.31472 0.19835 0.3527 0.0
C693 C 0.32364 0.20516 0.31065 0.0
C694 C 0.31677 0.1832 0.28512 0.0
C695 C 0.9674 0.32714 0.23765 0.0
C696 C 0.97205 0.36026 0.24322 0.0
C697 C 0.93472 0.32161 0.25439 0.0
C698 C 0.90528 0.34876 0.27776 0.0
H699 H 0.98938 0.30464 0.22103 0.0
H700 H 0.93297 0.29538 0.24966 0.0
S701 S 0.9021 0.4414 0.29993 0.0
N702 N 0.94282 0.42171 0.27185 0.0
N703 N 0.88258 0.41057 0.30486 0.0
C704 C 0.9093 0.38218 0.28324 0.0
C705 C 0.9423 0.38808 0.26565 0.0
C706 C 0.84454 0.914 0.20502 0.0
C707 C 0.82673 0.92316 0.16832 0.0
C708 C 0.83658 0.88987 0.23968 0.0
C709 C 0.81108 0.87382 0.23825 0.0
H710 H 0.86504 0.92513 0.20662 0.0
H711 H 0.8521 0.88208 0.2664 0.0
S712 S 0.7563 0.89004 0.15005 0.0
N713 N 0.78171 0.91536 0.1332 0.0
N714 N 0.76694 0.87013 0.19815 0.0
C715 C 0.79224 0.88399 0.20233 0.0
C716 C 0.80004 0.90859 0.16736 0.0
C717 C 0.09663 0.90329 0.11358 0.0
C718 C 0.08126 0.87557 0.12427 0.0
C719 C 0.12541 0.90092 0.13502 0.0
C720 C 0.13937 0.87081 0.16756 0.0
H721 H 0.08773 0.92565 0.08717 0.0
H722 H 0.13774 0.92176 0.12519 0.0
S723 S 0.10714 0.79284 0.20977 0.0
N724 N 0.08047 0.81887 0.17184 0.0
N725 N 0.13535 0.81391 0.21099 0.0
C726 C 0.12348 0.84384 0.17963 0.0
C727 C 0.09411 0.8464 0.15827 0.0
C728 C 0.23794 0.02276 0.09956 0.0
C729 C 0.2317 0.05845 0.07463 0.0
C730 C 0.24061 0.99109 0.08225 0.0
C731 C 0.23807 0.99395 0.03913 0.0
H732 H 0.24371 0.01862 0.1318 0.0
H733 H 0.24807 0.96333 0.10185 0.0
S734 S 0.21736 0.08297 0.96204 0.0
N735 N 0.21869 0.09655 1.00661 0.0
N736 N 0.22494 0.03672 0.97301 0.0
C737 C 0.22827 0.03061 1.01483 0.0
C738 C 0.22492 0.06301 1.03287 0.0
C739 C 0.1732 0.35767 0.97646 0.0
C740 C 0.18225 0.35553 1.01709 0.0
C741 C 0.20101 0.34931 0.94214 0.0
C742 C 0.23857 0.33953 0.9472 0.0
H743 H 0.14449 0.36528 0.97131 0.0
H744 H 0.19306 0.35099 0.91144 0.0
S745 S 0.27756 0.32665 0.04712 0.0
N746 N 0.232 0.34027 0.06051 0.0
N747 N 0.28399 0.32552 0.99589 0.0
C748 C 0.24814 0.33653 0.9876 0.0
C749 C 0.22005 0.34423 1.02261 0.0
C750 C 0.8538 0.16149 0.95408 0.0
C751 C 0.83004 0.14544 0.947 0.0
C752 C 0.84725 0.19996 0.93864 0.0
C753 C 0.81689 0.22384 0.91493 0.0
H754 H 0.87754 0.14417 0.9719 0.0
H755 H 0.86704 0.21049 0.94442 0.0
S756 S 0.7463 0.19473 0.88822 0.0
N757 N 0.77473 0.15567 0.91583 0.0
N758 N 0.76249 0.22809 0.88578 0.0
C759 C 0.79253 0.20808 0.90819 0.0
C760 C 0.79907 0.16888 0.92448 0.0
C761 C 0.93866 0.81347 0.89345 0.0
C762 C 0.93793 0.81874 0.9354 0.0
C763 C 0.90791 0.81155 0.87921 0.0
C764 C 0.875 0.81578 0.90618 0.0
H765 H 0.96321 0.81086 0.87148 0.0
H766 H 0.90964 0.80749 0.84684 0.0
S767 S 0.85855 0.83126 1.01865 0.0
N768 N 0.90143 0.82839 1.00334 0.0
N769 N 0.84392 0.82538 0.97721 0.0
C770 C 0.87424 0.82076 0.9483 0.0
C771 C 0.90555 0.82213 0.96275 0.0
C772 C 0.22283 0.31738 0.2185 0.0
C773 C 0.18637 0.32442 0.23745 0.0
C774 C 0.24902 0.32159 0.23892 0.0
C775 C 0.24032 0.33381 0.27932 0.0
H776 H 0.23059 0.31085 0.18639 0.0
H777 H 0.27624 0.31663 0.22158 0.0
S778 S 0.14966 0.35128 0.34514 0.0
N779 N 0.14354 0.34083 0.30082 0.0
N780 N 0.19286 0.34882 0.33929 0.0
C781 C 0.20456 0.33869 0.29993 0.0
C782 C 0.17765 0.33419 0.2789 0.0
C783 C 0.16169 0.83211 0.97205 0.0
C784 C 0.14876 0.80303 0.97276 0.0
C785 C 0.19698 0.82948 0.95182 0.0
C786 C 0.22142 0.79782 0.93039 0.0
H787 H 0.14391 0.85792 0.98673 0.0
H788 H 0.20451 0.85336 0.95183 0.0
S789 S 0.20258 0.71244 0.92412 0.0
N790 N 0.16451 0.74035 0.95157 0.0
N791 N 0.2305 0.73547 0.9129 0.0
C792 C 0.20941 0.76787 0.93166 0.0
C793 C 0.1734 0.77035 0.95301 0.0
C794 C 0.32911 0.1802 0.98072 0.0
C795 C 0.3458 0.17211 1.01821 0.0
C796 C 0.33499 0.20629 0.94656 0.0
C797 C 0.35645 0.22668 0.94914 0.0
H798 H 0.3097 0.16779 0.97861 0.0
H799 H 0.32046 0.21245 0.91936 0.0
S800 S 0.40835 0.2141 0.03898 0.0
N801 N 0.38714 0.18446 0.05436 0.0
N802 N 0.39678 0.23462 0.99123 0.0
C803 C 0.3747 0.21741 0.98565 0.0
C804 C 0.36966 0.18997 1.01989 0.0
C805 C 1.02794 0.30322 0.09109 0.0
C806 C 0.0665 0.28303 0.07835 0.0
C807 C 0.99981 0.3055 0.06813 0.0
C808 C 1.00895 0.28734 1.03159 0.0
H809 H 1.01926 0.31921 0.11766 0.0
H810 H 0.97067 0.32211 0.07875 0.0
S811 S 0.10549 0.23104 0.98441 0.0
N812 N 0.11197 0.24455 1.02648 0.0
N813 N 0.05958 0.24867 0.98367 0.0
C814 C 0.04733 0.26649 1.01895 0.0
C815 C 0.07587 0.26445 0.04211 0.0
C816 C 0.76133 0.95553 0.96958 0.0
C817 C 0.78263 0.97753 0.95537 0.0
C818 C 0.75708 0.93319 0.94273 0.0
C819 C 0.77391 0.93219 0.90077 0.0
H820 H 0.75005 0.95352 1.00225 0.0
H821 H 0.74245 0.91481 0.95574 0.0
S822 S 0.82901 0.98853 0.8477 0.0
N823 N 0.81816 0.99939 0.89624 0.0
N824 N 0.80973 0.95861 0.84578 0.0
C825 C 0.79317 0.95624 0.88579 0.0
C826 C 0.79769 0.97851 0.9131 0.0
C827 C 0.98219 0.78203 0.17807 0.0
C828 C 0.96995 0.78399 0.13924 0.0
C829 C 0.95991 0.77936 0.2166 0.0
C830 C 0.92488 0.77757 0.21808 0.0
H831 H 1.008 0.78508 0.17856 0.0
H832 H 0.96968 0.77989 0.2454 0.0
S833 S 0.87916 0.78366 0.12554 0.0
N834 N 0.91955 0.78561 0.10511 0.0
N835 N 0.87886 0.77908 0.17697 0.0
C836 C 0.91283 0.77864 0.17963 0.0
C837 C 0.93498 0.78229 0.14049 0.0
C838 C 0.29619 0.98799 0.20989 0.0
C839 C 0.32683 0.99866 0.20214 0.0
C840 C 0.29901 0.95187 0.23186 0.0
C841 C 0.33248 0.92465 0.24814 0.0
H842 H 0.26921 1.00825 0.19965 0.0
H843 H 0.2741 0.94604 0.2377 0.0
S844 S 0.42171 0.9372 0.2355 0.0
N845 N 0.39241 0.978 0.21104 0.0
N846 N 0.39768 0.91053 0.2535 0.0
C847 C 0.36375 0.93444 0.23983 0.0
C848 C 0.361 0.97116 0.21651 0.0
C849 C 0.76804 0.14528 0.11855 0.0
C850 C 0.78621 0.10486 0.12907 0.0
C851 C 0.77041 0.17078 0.14267 0.0
C852 C 0.79129 0.15645 0.17764 0.0
H853 H 0.75479 0.15712 0.08968 0.0
H854 H 0.75836 0.20163 0.13205 0.0
S855 S 0.83983 0.05316 0.22076 0.0
N856 N 0.82237 0.05199 0.17889 0.0
N857 N 0.82672 0.09953 0.224 0.0
C858 C 0.8069 0.11624 0.19014 0.0
C859 C 0.80438 0.09054 0.16587 0.0
C860 C 0.65887 0.63463 0.97033 0.0
C861 C 0.62771 0.6434 0.9491 0.0
C862 C 0.67725 0.65924 0.96354 0.0
C863 C 0.6651 0.69353 0.9353 0.0
H864 H 0.66939 0.6083 0.99207 0.0
H865 H 0.70114 0.65144 0.98063 0.0
S866 S 0.58493 0.72991 0.87176 0.0
N867 N 0.58545 0.68878 0.89854 0.0
N868 N 0.62034 0.7352 0.88568 0.0
C869 C 0.63443 0.70246 0.91321 0.0
C870 C 0.6156 0.67735 0.92018 0.0
C871 C 0.47481 0.67877 0.87139 0.0
C872 C 0.46995 0.64498 0.88951 0.0
C873 C 0.44387 0.71485 0.86827 0.0
C874 C 0.40712 0.71813 0.88244 0.0
H875 H 0.50281 0.67783 0.86285 0.0
H876 H 0.44894 0.74062 0.85658 0.0
S877 S 0.3794 0.63747 0.92774 0.0
N878 N 0.42566 0.61643 0.91894 0.0
N879 N 0.36736 0.68413 0.91135 0.0
C880 C 0.40165 0.68416 0.89727 0.0
C881 C 0.4332 0.64756 0.90137 0.0
C882 C 0.48571 0.47047 0.91987 0.0
C883 C 0.49289 0.46974 0.96082 0.0
C884 C 0.46152 0.45522 0.9129 0.0
C885 C 0.44379 0.43853 0.94659 0.0
H886 H 0.49916 0.48257 0.89288 0.0
H887 H 0.45692 0.45617 0.88081 0.0
S888 S 0.45366 0.42885 0.05947 0.0
N889 N 0.48071 0.45088 1.03539 0.0
N890 N 0.43534 0.42122 1.02207 0.0
C891 C 0.45125 0.43674 0.98758 0.0
C892 C 0.47582 0.45261 0.99475 0.0
C893 C 0.68278 0.44492 0.86743 0.0
C894 C 0.68149 0.48135 0.87144 0.0
C895 C 0.71658 0.41104 0.86929 0.0
C896 C 0.7502 0.41238 0.87552 0.0
H897 H 0.65743 0.44246 0.8633 0.0
H898 H 0.71614 0.38364 0.86686 0.0
S899 S 0.76162 0.49987 0.89043 0.0
N900 N 0.71693 0.51587 0.88373 0.0
N901 N 0.7797 0.45311 0.88672 0.0
C902 C 0.7491 0.44856 0.87978 0.0
C903 C 0.71501 0.48278 0.87783 0.0
C904 C 0.70969 0.47577 0.29846 0.0
C905 C 0.67216 0.48101 0.30025 0.0
C906 C 0.73883 0.43853 0.30278 0.0
C907 C 0.73139 0.40541 0.30759 0.0
H908 H 0.71674 0.50063 0.2914 0.0
H909 H 0.76749 0.43573 0.29961 0.0
S910 S 0.63764 0.40353 0.31842 0.0
N911 N 0.6288 0.45015 0.31096 0.0
N912 N 0.68367 0.38002 0.3182 0.0
C913 C 0.69383 0.41023 0.31201 0.0
C914 C 0.66411 0.44815 0.30853 0.0
C915 C 0.69813 0.62379 0.23175 0.0
C916 C 0.66489 0.65003 0.21479 0.0
C917 C 0.72348 0.63667 0.24085 0.0
C918 C 0.71596 0.67634 0.234 0.0
H919 H 0.70375 0.59332 0.23941 0.0
H920 H 0.74829 0.61567 0.25524 0.0
S921 S 0.63249 0.75628 0.18967 0.0
N922 N 0.62585 0.71671 0.19019 0.0
N923 N 0.67324 0.74163 0.20837 0.0
C924 C 0.68341 0.70271 0.21546 0.0
C925 C 0.6578 0.68935 0.20568 0.0
C926 C 0.4546 0.67353 0.32113 0.0
C927 C 0.4821 0.68002 0.29141 0.0
C928 C 0.41961 0.70403 0.32935 0.0
C929 C 0.41161 0.74196 0.30905 0.0
H930 H 0.45908 0.64439 0.33571 0.0
H931 H 0.39809 0.69761 0.35038 0.0
S932 S 0.47565 0.77455 0.23204 0.0
N933 N 0.50009 0.72745 0.24381 0.0
N934 N 0.43466 0.78492 0.26067 0.0
C935 C 0.4398 0.74932 0.28176 0.0
C936 C 0.47503 0.71821 0.27255 0.0
C937 C 0.51644 0.4644 0.23283 0.0
C938 C 0.50149 0.50429 0.23552 0.0
C939 C 0.49353 0.4442 0.24233 0.0
C940 C 0.45492 0.4634 0.25439 0.0
H941 H 0.5461 0.44869 0.22372 0.0
H942 H 0.50593 0.41354 0.23931 0.0
S943 S 0.40247 0.5675 0.26707 0.0
N944 N 0.44617 0.5622 0.25179 0.0
N945 N 0.4028 0.52413 0.26961 0.0
C946 C 0.43968 0.5032 0.25767 0.0
C947 C 0.4631 0.52368 0.24831 0.0
C948 C 0.83686 0.71835 0.70048 0.0
C949 C 0.81881 0.69286 0.71257 0.0
C950 C 0.83609 0.743 0.72771 0.0
C951 C 0.81741 0.74335 0.76864 0.0
H952 H 0.85171 0.71952 0.66939 0.0
H953 H 0.84987 0.76239 0.71615 0.0
S954 S 0.76803 0.68014 0.81687 0.0
N955 N 0.78284 0.66855 0.76876 0.0
N956 N 0.78192 0.71407 0.82042 0.0
C957 C 0.79965 0.71757 0.78135 0.0
C958 C 0.80016 0.69267 0.75328 0.0
C959 C 0.47912 0.8155 0.78597 0.0
C960 C 0.49012 0.80896 0.74356 0.0
C961 C 0.44274 0.82069 0.80551 0.0
C962 C 0.416 0.81838 0.78393 0.0
H963 H 0.49898 0.81634 0.80428 0.0
H964 H 0.43611 0.82485 0.83837 0.0
S965 S 0.43022 0.80275 0.67215 0.0
N966 N 0.47041 0.80229 0.68021 0.0
N967 N 0.40325 0.80981 0.71723 0.0
C968 C 0.42657 0.81227 0.7414 0.0
C969 C 0.46317 0.80822 0.72117 0.0
C970 C 0.34436 0.37949 0.68186 0.0
C971 C 0.33069 0.4197 0.68216 0.0
C972 C 0.33576 0.35544 0.71609 0.0
C973 C 0.31379 0.37002 0.75299 0.0
H974 H 0.36094 0.36656 0.65426 0.0
H975 H 0.34631 0.32488 0.71328 0.0
S976 S 0.27342 0.4729 0.77156 0.0
N977 N 0.29516 0.47308 0.72343 0.0
N978 N 0.28007 0.42738 0.7885 0.0
C979 C 0.30109 0.40998 0.75463 0.0
C980 C 0.30915 0.43489 0.71906 0.0
C981 C 0.61709 0.34774 0.59641 0.0
C982 C 0.58439 0.3431 0.6155 0.0
C983 C 0.64238 0.35022 0.62022 0.0
C984 C 0.63593 0.34864 0.66441 0.0
H985 H 0.62411 0.34747 0.56293 0.0
H986 H 0.66771 0.35246 0.60388 0.0
S987 S 0.55255 0.33973 0.72948 0.0
N988 N 0.54595 0.33906 0.68105 0.0
N989 N 0.59242 0.34449 0.72577 0.0
C990 C 0.60206 0.3463 0.6836 0.0
C991 C 0.57668 0.34328 0.65925 0.0
C992 C 0.75032 0.55306 0.57621 0.0
C993 C 0.78701 0.546 0.58239 0.0
C994 C 0.74373 0.5274 0.55628 0.0
C995 C 0.7735 0.49353 0.54289 0.0
H996 H 0.72705 0.57967 0.58417 0.0
H997 H 0.71542 0.53493 0.54964 0.0
S998 S 0.87454 0.46136 0.55326 0.0
N999 N 0.85329 0.50201 0.57461 0.0
N1000 N 0.84068 0.45412 0.53846 0.0
C1001 C 0.80991 0.4853 0.55108 0.0
C1002 C 0.81669 0.51147 0.57047 0.0
C1003 C 0.74664 0.83405 0.50899 0.0
C1004 C 0.71797 0.82015 0.51696 0.0
C1005 C 0.7693 0.83254 0.47052 0.0
C1006 C 0.76594 0.81554 0.43798 0.0
H1007 H 0.75194 0.84657 0.53281 0.0
H1008 H 0.7903 0.84413 0.46672 0.0
S1009 S 0.69834 0.77127 0.44197 0.0
N1010 N 0.68891 0.78728 0.48803 0.0
N1011 N 0.73304 0.78223 0.41668 0.0
C1012 C 0.7387 0.7998 0.44561 0.0
C1013 C 0.71461 0.80239 0.48473 0.0
C1014 C 0.36012 0.66777 0.45786 0.0
C1015 C 0.33225 0.65359 0.46087 0.0
C1016 C 0.35478 0.70551 0.4383 0.0
C1017 C 0.32141 0.73096 0.42035 0.0
H1018 H 0.38648 0.6495 0.47068 0.0
H1019 H 0.3776 0.7143 0.43616 0.0
S1020 S 0.23932 0.70854 0.41952 0.0
N1021 N 0.26973 0.66867 0.44396 0.0
N1022 N 0.25969 0.73905 0.40763 0.0
C1023 C 0.29309 0.71736 0.4236 0.0
C1024 C 0.29844 0.679 0.44374 0.0
C1025 C 0.45289 0.3068 0.41922 0.0
C1026 C 0.44813 0.32212 0.45716 0.0
C1027 C 0.42219 0.30794 0.40138 0.0
C1028 C 0.38536 0.32362 0.42135 0.0
H1029 H 0.48094 0.29237 0.40399 0.0
H1030 H 0.42765 0.29474 0.37304 0.0
S1031 S 0.35705 0.36969 0.51979 0.0
N1032 N 0.40308 0.35535 0.51244 0.0
N1033 N 0.34588 0.35749 0.47988 0.0
C1034 C 0.38013 0.34077 0.45813 0.0
C1035 C 0.41125 0.34002 0.47582 0.0
C1036 C 0.68449 0.8719 0.70554 0.0
C1037 C 0.65665 0.86178 0.73046 0.0
C1038 C 0.71347 0.87335 0.72335 0.0
C1039 C 0.71599 0.86488 0.76699 0.0
H1040 H 0.68589 0.87582 0.67173 0.0
H1041 H 0.73528 0.87921 0.70228 0.0
S1042 S 0.64795 0.84016 0.84637 0.0
N1043 N 0.63218 0.84491 0.80107 0.0
N1044 N 0.68583 0.84931 0.83494 0.0
C1045 C 0.68692 0.85725 0.79257 0.0
C1046 C 0.65762 0.85508 0.77419 0.0
C1047 C 0.67701 0.27598 0.40749 0.0
C1048 C 0.66317 0.28311 0.44916 0.0
C1049 C 0.70916 0.28131 0.38816 0.0
C1050 C 0.72859 0.29403 0.40985 0.0
H1051 H 0.66245 0.26682 0.38955 0.0
H1052 H 0.71832 0.2763 0.35567 0.0
S1053 S 0.7055 0.31368 0.52058 0.0
N1054 N 0.67263 0.30109 0.51227 0.0
N1055 N 0.73256 0.31208 0.47574 0.0
C1056 C 0.71523 0.30091 0.45164 0.0
C1057 C 0.68263 0.29522 0.47136 0.0
C1058 C 0.87833 0.70298 0.49624 0.0
C1059 C 0.85911 0.68079 0.49292 0.0
C1060 C 0.88791 0.72499 0.46068 0.0
C1061 C 0.87864 0.72546 0.42061 0.0
H1062 H 0.88285 0.70608 0.52691 0.0
H1063 H 0.90029 0.74395 0.46522 0.0
S1064 S 0.83452 0.66561 0.39582 0.0
N1065 N 0.83521 0.65619 0.4472 0.0
N1066 N 0.85445 0.69639 0.37976 0.0
C1067 C 0.86294 0.70001 0.41665 0.0
C1068 C 0.85277 0.67802 0.45305 0.0
C1069 C 0.5097 0.87718 0.55157 0.0
C1070 C 0.53676 0.84106 0.56691 0.0
C1071 C 0.48305 0.87937 0.52686 0.0
C1072 C 0.48291 0.8455 0.51702 0.0
H1073 H 0.50965 0.90381 0.55785 0.0
H1074 H 0.46321 0.90759 0.5144 0.0
S1075 S 0.54378 0.74396 0.55421 0.0
N1076 N 0.5589 0.77051 0.57373 0.0
N1077 N 0.50883 0.77525 0.52752 0.0
C1078 C 0.50841 0.80937 0.53381 0.0
C1079 C 0.5354 0.80697 0.55872 0.0
C1080 C 0.26937 0.45637 0.47862 0.0
C1081 C 0.28981 0.47903 0.46302 0.0
C1082 C 0.26577 0.43264 0.45306 0.0
C1083 C 0.28229 0.43105 0.41101 0.0
H1084 H 0.25833 0.45492 0.51142 0.0
H1085 H 0.25198 0.41371 0.46719 0.0
S1086 S 0.33492 0.48893 0.35453 0.0
N1087 N 0.32406 0.50096 0.40258 0.0
N1088 N 0.31675 0.45769 0.35436 0.0
C1089 C 0.30059 0.45581 0.39462 0.0
C1090 C 0.30455 0.47938 0.42069 0.0
C1091 C 0.44916 0.23885 0.69538 0.0
C1092 C 0.46497 0.26579 0.67953 0.0
C1093 C 0.4256 0.24216 0.73334 0.0
C1094 C 0.41728 0.27241 0.75688 0.0
H1095 H 0.45426 0.21565 0.67771 0.0
H1096 H 0.4131 0.22152 0.74365 0.0
S1097 S 0.45341 0.34944 0.73007 0.0
N1098 N 0.47202 0.32263 0.69136 0.0
N1099 N 0.42802 0.3292 0.76203 0.0
C1100 C 0.43374 0.29904 0.74171 0.0
C1101 C 0.45745 0.2957 0.70319 0.0
C1102 C 0.873 0.4606 0.76029 0.0
C1103 C 0.86676 0.4725 0.7177 0.0
C1104 C 0.86635 0.42886 0.7828 0.0
C1105 C 0.85287 0.40823 0.76361 0.0
H1106 H 0.88203 0.47657 0.77663 0.0
H1107 H 0.8709 0.42099 0.81574 0.0
S1108 S 0.83414 0.42564 0.65286 0.0
N1109 N 0.84804 0.45939 0.65714 0.0
N1110 N 0.83493 0.40049 0.69989 0.0
C1111 C 0.84682 0.41942 0.7213 0.0
C1112 C 0.85395 0.45135 0.69824 0.0
C1113 C 0.26128 0.64379 0.62706 0.0
C1114 C 0.28449 0.60466 0.63899 0.0
C1115 C 0.26033 0.67298 0.64795 0.0
C1116 C 0.28249 0.66332 0.68103 0.0
H1117 H 0.24628 0.65204 0.59957 0.0
H1118 H 0.244 0.7031 0.63682 0.0
S1119 S 0.34544 0.56515 0.7257 0.0
N1120 N 0.3278 0.55783 0.68755 0.0
N1121 N 0.32617 0.61253 0.72635 0.0
C1122 C 0.30389 0.62427 0.69465 0.0
C1123 C 0.30476 0.59488 0.67375 0.0
loop_
_geom_bond_atom_site_label_1
_geom_bond_atom_site_label_2
_geom_bond_distance
_geom_bond_site_symmetry_2
_ccdc_geom_bond_type
Cu0 N1 1.999 . S
Cu0 O6 1.974 1_545 S
Cu0 N11 1.985 1_545 S
Cu0 O20 1.959 1_455 S
N1 Cu0 1.999 . S
N1 C3 1.263 . S
N1 C5 1.389 . S
N2 C3 1.358 . S
N2 C4 1.400 . S
C3 N1 1.263 . S
C3 N2 1.358 . S
C3 H9 0.930 . S
C4 N2 1.400 . S
C4 C5 1.351 . S
C4 H21 0.930 . S
C5 N1 1.389 . S
C5 C4 1.351 . S
C5 H10 0.930 . S
O6 Cu0 1.974 1_565 S
O6 C16 1.282 . S
C7 O8 1.261 1_655 S
C7 O20 1.251 . S
O8 C7 1.261 1_455 S
H9 C3 0.930 . S
H10 C5 0.930 . S
N11 Cu0 1.985 1_565 S
N11 C13 1.339 1_465 S
N11 C14 1.390 . S
N12 C13 1.333 1_565 S
N12 C15 1.336 1_655 S
C13 N11 1.339 1_645 S
C13 N12 1.333 1_545 S
C13 H18 0.937 . S
C14 N11 1.390 . S
C14 C15 1.346 . S
C14 H19 0.930 . S
C15 N12 1.336 1_455 S
C15 C14 1.346 . S
C15 H22 0.929 . S
C16 O6 1.282 . S
C16 O17 1.216 . S
O17 C16 1.216 . S
H18 C13 0.937 . S
H19 C14 0.930 . S
O20 Cu0 1.959 1_655 S
O20 C7 1.251 . S
H21 C4 0.930 . S
H22 C15 0.929 . S
Cu23 N24 1.999 . S
Cu23 O29 1.974 1_455 S
Cu23 N34 1.985 . S
Cu23 O43 1.959 . S
N24 Cu23 1.999 . S
N24 C26 1.263 1_455 S
N24 C28 1.389 . S
N25 C26 1.358 . S
N25 C27 1.400 1_545 S
C26 N24 1.263 1_655 S
C26 N25 1.358 . S
C26 H32 0.930 . S
C27 N25 1.400 1_565 S
C27 C28 1.351 1_665 S
C27 H44 0.930 . S
C28 N24 1.389 . S
C28 C27 1.351 1_445 S
C28 H33 0.930 1_545 S
O29 Cu23 1.974 1_655 S
O29 C39 1.282 . S
C30 O31 1.261 . S
C30 O43 1.251 . S
O31 C30 1.261 . S
H32 C26 0.930 . S
H33 C28 0.930 1_565 S
N34 Cu23 1.985 . S
N34 C36 1.335 . S
N34 C37 1.390 . S
N35 C36 1.345 . S
N35 C38 1.336 . S
C36 N34 1.335 . S
C36 N35 1.345 . S
C36 H41 0.930 . S
C37 N34 1.390 . S
C37 C38 1.346 . S
C37 H42 0.930 . S
C38 N35 1.336 . S
C38 C37 1.346 . S
C38 H45 0.929 . S
C39 O29 1.282 . S
C39 O40 1.216 . S
O40 C39 1.216 . S
H41 C36 0.930 . S
H42 C37 0.930 . S
O43 Cu23 1.959 . S
O43 C30 1.251 . S
H44 C27 0.930 . S
H45 C38 0.929 . S
Cu46 N47 1.999 . S
Cu46 O52 1.974 . S
Cu46 N57 1.985 . S
Cu46 O66 1.959 . S
N47 Cu46 1.999 . S
N47 C49 1.263 . S
N47 C51 1.389 . S
N48 C49 1.358 . S
N48 C50 1.400 . S
C49 N47 1.263 . S
C49 N48 1.358 . S
C49 H55 0.930 . S
C50 N48 1.400 . S
C50 C51 1.351 . S
C50 H67 0.930 1_554 S
C51 N47 1.389 . S
C51 C50 1.351 . S
C51 H56 0.930 . S
O52 Cu46 1.974 . S
O52 C62 1.282 . S
C53 O54 1.261 . S
C53 O66 1.251 . S
O54 C53 1.261 . S
H55 C49 0.930 . S
H56 C51 0.930 . S
N57 Cu46 1.985 . S
N57 C59 1.335 . S
N57 C60 1.390 . S
N58 C59 1.345 . S
N58 C61 1.336 . S
C59 N57 1.335 . S
C59 N58 1.345 . S
C59 H64 0.930 . S
C60 N57 1.390 . S
C60 C61 1.346 . S
C60 H65 0.930 . S
C61 N58 1.336 . S
C61 C60 1.346 . S
C61 H68 0.929 . S
C62 O52 1.282 . S
C62 O63 1.216 . S
O63 C62 1.216 . S
H64 C59 0.930 . S
H65 C60 0.930 . S
O66 Cu46 1.959 . S
O66 C53 1.251 . S
H67 C50 0.930 1_556 S
H68 C61 0.929 . S
Cu69 N70 1.999 . S
Cu69 O75 1.974 . S
Cu69 N80 1.985 . S
Cu69 O89 1.959 . S
N70 Cu69 1.999 . S
N70 C72 1.263 . S
N70 C74 1.389 . S
N71 C72 1.358 . S
N71 C73 1.400 1_554 S
C72 N70 1.263 . S
C72 N71 1.358 . S
C72 H78 0.930 . S
C73 N71 1.400 1_556 S
C73 C74 1.351 1_556 S
C73 H90 0.930 . S
C74 N70 1.389 . S
C74 C73 1.351 1_554 S
C74 H79 0.930 1_554 S
O75 Cu69 1.974 . S
O75 C85 1.282 . S
C76 O77 1.261 . S
C76 O89 1.251 . S
O77 C76 1.261 . S
H78 C72 0.930 . S
H79 C74 0.930 1_556 S
N80 Cu69 1.985 . S
N80 C82 1.335 . S
N80 C83 1.390 . S
N81 C82 1.345 1_655 S
N81 C84 1.336 1_655 S
C82 N80 1.335 . S
C82 N81 1.345 1_455 S
C82 H87 0.930 1_455 S
C83 N80 1.390 . S
C83 C84 1.346 . S
C83 H88 0.930 . S
C84 N81 1.336 1_455 S
C84 C83 1.346 . S
C84 H91 0.929 . S
C85 O75 1.282 . S
C85 O86 1.216 . S
O86 C85 1.216 . S
H87 C82 0.930 1_655 S
H88 C83 0.930 . S
O89 Cu69 1.959 . S
O89 C76 1.251 . S
H90 C73 0.930 . S
H91 C84 0.929 . S
Cu92 N93 1.999 1_554 S
Cu92 O98 1.974 . S
Cu92 N103 1.985 1_545 S
Cu92 O112 1.959 1_544 S
N93 Cu92 1.999 1_556 S
N93 C95 1.263 . S
N93 C97 1.389 . S
N94 C95 1.358 . S
N94 C96 1.400 . S
C95 N93 1.263 . S
C95 N94 1.358 . S
C95 H101 0.930 . S
C96 N94 1.400 . S
C96 C97 1.351 . S
C96 H113 0.930 . S
C97 N93 1.389 . S
C97 C96 1.351 . S
C97 H102 0.930 . S
O98 Cu92 1.974 . S
O98 C108 1.282 . S
C99 O100 1.261 . S
C99 O112 1.251 . S
O100 C99 1.261 . S
H101 C95 0.930 . S
H102 C97 0.930 . S
N103 Cu92 1.985 1_565 S
N103 C105 1.335 . S
N103 C106 1.390 . S
N104 C105 1.345 . S
N104 C107 1.336 . S
C105 N103 1.335 . S
C105 N104 1.345 . S
C105 H110 0.930 . S
C106 N103 1.390 . S
C106 C107 1.346 . S
C106 H111 0.930 . S
C107 N104 1.336 . S
C107 C106 1.346 . S
C107 H114 0.929 . S
C108 O98 1.282 . S
C108 O109 1.216 . S
O109 C108 1.216 . S
H110 C105 0.930 . S
H111 C106 0.930 . S
O112 Cu92 1.959 1_566 S
O112 C99 1.251 . S
H113 C96 0.930 . S
H114 C107 0.929 . S
Cu115 N116 1.999 1_454 S
Cu115 O121 1.974 1_455 S
Cu115 N126 1.985 . S
Cu115 O135 1.959 1_554 S
N116 Cu115 1.999 1_656 S
N116 C118 1.263 . S
N116 C120 1.389 . S
N117 C118 1.358 . S
N117 C119 1.400 . S
C118 N116 1.263 . S
C118 N117 1.358 . S
C118 H124 0.930 . S
C119 N117 1.400 . S
C119 C120 1.351 . S
C119 H136 0.930 . S
C120 N116 1.389 . S
C120 C119 1.351 . S
C120 H125 0.930 1_655 S
O121 Cu115 1.974 1_655 S
O121 C131 1.282 . S
C122 O123 1.261 . S
C122 O135 1.251 . S
O123 C122 1.261 . S
H124 C118 0.930 . S
H125 C120 0.930 1_455 S
N126 Cu115 1.985 . S
N126 C128 1.335 . S
N126 C129 1.390 . S
N127 C128 1.345 . S
N127 C130 1.336 . S
C128 N126 1.335 . S
C128 N127 1.345 . S
C128 H133 0.930 . S
C129 N126 1.390 . S
C129 C130 1.346 . S
C129 H134 0.930 1_455 S
C130 N127 1.336 . S
C130 C129 1.346 . S
C130 H137 0.929 . S
C131 O121 1.282 . S
C131 O132 1.216 . S
O132 C131 1.216 . S
H133 C128 0.930 . S
H134 C129 0.930 1_655 S
O135 Cu115 1.959 1_556 S
O135 C122 1.251 . S
H136 C119 0.930 . S
H137 C130 0.929 . S
Cu138 N139 1.999 . S
Cu138 O144 1.974 . S
Cu138 N149 1.985 . S
Cu138 O158 1.959 . S
N139 Cu138 1.999 . S
N139 C141 1.263 . S
N139 C143 1.389 . S
N140 C141 1.358 . S
N140 C142 1.400 . S
C141 N139 1.263 . S
C141 N140 1.358 . S
C141 H147 0.930 . S
C142 N140 1.400 . S
C142 C143 1.351 . S
C142 H159 0.915 1_556 S
C143 N139 1.389 . S
C143 C142 1.351 . S
C143 H148 0.930 1_556 S
O144 Cu138 1.974 . S
O144 C154 1.282 . S
C145 O146 1.261 . S
C145 O158 1.251 . S
O146 C145 1.261 . S
H147 C141 0.930 . S
H148 C143 0.930 1_554 S
N149 Cu138 1.985 . S
N149 C151 1.335 . S
N149 C152 1.390 . S
N150 C151 1.345 . S
N150 C153 1.336 . S
C151 N149 1.335 . S
C151 N150 1.345 . S
C151 H156 0.930 . S
C152 N149 1.390 . S
C152 C153 1.346 . S
C152 H157 0.930 . S
C153 N150 1.336 . S
C153 C152 1.346 . S
C153 H160 0.929 . S
C154 O144 1.282 . S
C154 O155 1.216 . S
O155 C154 1.216 . S
H156 C151 0.930 . S
H157 C152 0.930 . S
O158 Cu138 1.959 . S
O158 C145 1.251 . S
H159 C142 0.915 1_554 S
H160 C153 0.929 . S
Cu161 N162 1.999 . S
Cu161 O167 1.974 . S
Cu161 N172 1.985 . S
Cu161 O181 1.959 . S
N162 Cu161 1.999 . S
N162 C164 1.263 . S
N162 C166 1.389 . S
N163 C164 1.358 . S
N163 C165 1.400 . S
C164 N162 1.263 . S
C164 N163 1.358 . S
C164 H170 0.930 . S
C165 N163 1.400 . S
C165 C166 1.351 . S
C165 H182 0.930 . S
C166 N162 1.389 . S
C166 C165 1.351 . S
C166 H171 0.930 . S
O167 Cu161 1.974 . S
O167 C177 1.282 . S
C168 O169 1.261 . S
C168 O181 1.251 . S
O169 C168 1.261 . S
H170 C164 0.930 . S
H171 C166 0.930 . S
N172 Cu161 1.985 . S
N172 C174 1.335 . S
N172 C175 1.390 . S
N173 C174 1.345 . S
N173 C176 1.336 . S
C174 N172 1.335 . S
C174 N173 1.345 . S
C174 H179 0.930 . S
C175 N172 1.390 . S
C175 C176 1.346 . S
C175 H180 0.930 . S
C176 N173 1.336 . S
C176 C175 1.346 . S
C176 H183 0.929 . S
C177 O167 1.282 . S
C177 O178 1.216 . S
O178 C177 1.216 . S
H179 C174 0.930 . S
H180 C175 0.930 . S
O181 Cu161 1.959 . S
O181 C168 1.251 . S
H182 C165 0.930 . S
H183 C176 0.929 . S
Cu184 N185 1.999 . S
Cu184 O190 1.974 . S
Cu184 N195 1.985 . S
Cu184 O204 1.959 . S
N185 Cu184 1.999 . S
N185 C187 1.263 . S
N185 C189 1.389 . S
N186 C187 1.358 . S
N186 C188 1.400 . S
C187 N185 1.263 . S
C187 N186 1.358 . S
C187 H193 0.930 . S
C188 N186 1.400 . S
C188 C189 1.351 . S
C188 H205 0.930 . S
C189 N185 1.389 . S
C189 C188 1.351 . S
C189 H194 0.930 . S
O190 Cu184 1.974 . S
O190 C200 1.282 . S
C191 O192 1.261 . S
C191 O204 1.251 . S
O192 C191 1.261 . S
H193 C187 0.930 . S
H194 C189 0.930 . S
N195 Cu184 1.985 . S
N195 C197 1.335 . S
N195 C198 1.390 . S
N196 C197 1.345 . S
N196 C199 1.336 . S
C197 N195 1.335 . S
C197 N196 1.345 . S
C197 H202 0.930 . S
C198 N195 1.390 . S
C198 C199 1.346 . S
C198 H203 0.930 . S
C199 N196 1.336 . S
C199 C198 1.346 . S
C199 H206 0.929 . S
C200 O190 1.282 . S
C200 O201 1.216 . S
O201 C200 1.216 . S
H202 C197 0.930 . S
H203 C198 0.930 . S
O204 Cu184 1.959 . S
O204 C191 1.251 . S
H205 C188 0.930 . S
H206 C199 0.929 . S
Cu207 N208 1.999 . S
Cu207 O213 1.974 . S
Cu207 N218 1.985 . S
Cu207 O227 1.959 . S
N208 Cu207 1.999 . S
N208 C210 1.263 . S
N208 C212 1.389 . S
N209 C210 1.358 . S
N209 C211 1.400 . S
C210 N208 1.263 . S
C210 N209 1.358 . S
C210 H216 0.930 . S
C211 N209 1.400 . S
C211 C212 1.351 . S
C211 H228 0.930 . S
C212 N208 1.389 . S
C212 C211 1.351 . S
C212 H217 0.930 . S
O213 Cu207 1.974 . S
O213 C223 1.282 . S
C214 O215 1.261 . S
C214 O227 1.251 . S
O215 C214 1.261 . S
H216 C210 0.930 . S
H217 C212 0.930 . S
N218 Cu207 1.985 . S
N218 C220 1.335 . S
N218 C221 1.390 . S
N219 C220 1.345 . S
N219 C222 1.336 . S
C220 N218 1.335 . S
C220 N219 1.345 . S
C220 H225 0.930 . S
C221 N218 1.390 . S
C221 C222 1.346 . S
C221 H226 0.930 . S
C222 N219 1.336 . S
C222 C221 1.346 . S
C222 H229 0.929 . S
C223 O213 1.282 . S
C223 O224 1.216 . S
O224 C223 1.216 . S
H225 C220 0.930 . S
H226 C221 0.930 . S
O227 Cu207 1.959 . S
O227 C214 1.251 . S
H228 C211 0.930 . S
H229 C222 0.929 . S
Cu230 N231 1.999 . S
Cu230 O236 1.974 . S
Cu230 N241 1.985 . S
Cu230 O250 1.959 . S
N231 Cu230 1.999 . S
N231 C233 1.263 . S
N231 C235 1.389 . S
N232 C233 1.358 . S
N232 C234 1.400 . S
C233 N231 1.263 . S
C233 N232 1.358 . S
C233 H239 0.930 . S
C234 N232 1.400 . S
C234 C235 1.351 . S
C234 H251 0.930 . S
C235 N231 1.389 . S
C235 C234 1.351 . S
C235 H240 0.930 . S
O236 Cu230 1.974 . S
O236 C246 1.282 . S
C237 O238 1.261 . S
C237 O250 1.251 . S
O238 C237 1.261 . S
H239 C233 0.930 . S
H240 C235 0.930 . S
N241 Cu230 1.985 . S
N241 C243 1.335 . S
N241 C244 1.390 . S
N242 C243 1.345 . S
N242 C245 1.336 . S
C243 N241 1.335 . S
C243 N242 1.345 . S
C243 H248 0.930 . S
C244 N241 1.390 . S
C244 C245 1.346 . S
C244 H249 0.930 . S
C245 N242 1.336 . S
C245 C244 1.346 . S
C245 H252 0.929 . S
C246 O236 1.282 . S
C246 O247 1.216 . S
O247 C246 1.216 . S
H248 C243 0.930 . S
H249 C244 0.930 . S
O250 Cu230 1.959 . S
O250 C237 1.251 . S
H251 C234 0.930 . S
H252 C245 0.929 . S
Cu253 N254 1.999 . S
Cu253 O259 1.974 . S
Cu253 N264 1.985 . S
Cu253 O273 1.959 . S
N254 Cu253 1.999 . S
N254 C256 1.263 . S
N254 C258 1.389 . S
N255 C256 1.358 . S
N255 C257 1.400 . S
C256 N254 1.263 . S
C256 N255 1.358 . S
C256 H262 0.930 . S
C257 N255 1.400 . S
C257 C258 1.351 . S
C257 H274 0.930 . S
C258 N254 1.389 . S
C258 C257 1.351 . S
C258 H263 0.930 . S
O259 Cu253 1.974 . S
O259 C269 1.282 . S
C260 O261 1.261 . S
C260 O273 1.251 . S
O261 C260 1.261 . S
H262 C256 0.930 . S
H263 C258 0.930 . S
N264 Cu253 1.985 . S
N264 C266 1.335 . S
N264 C267 1.390 . S
N265 C266 1.345 . S
N265 C268 1.336 . S
C266 N264 1.335 . S
C266 N265 1.345 . S
C266 H271 0.930 . S
C267 N264 1.390 . S
C267 C268 1.346 . S
C267 H272 0.930 . S
C268 N265 1.336 . S
C268 C267 1.346 . S
C268 H275 0.929 . S
C269 O259 1.282 . S
C269 O270 1.216 . S
O270 C269 1.216 . S
H271 C266 0.930 . S
H272 C267 0.930 . S
O273 Cu253 1.959 . S
O273 C260 1.251 . S
H274 C257 0.930 . S
H275 C268 0.929 . S
La276 C278 2.928 . S
La276 O296 2.521 . S
La276 O297 2.628 . S
La276 O298 2.554 . S
La276 O299 2.757 . S
La276 O300 2.470 . S
La276 O305 2.482 . S
La276 O307 2.503 . S
La277 C287 2.928 . S
La277 O299 2.482 . S
La277 O301 2.503 . S
La277 O302 2.521 . S
La277 O303 2.628 . S
La277 O304 2.554 . S
La277 O305 2.757 . S
La277 O306 2.470 . S
C278 La276 2.928 . S
C278 C279 1.503 . S
C278 O296 1.261 . S
C278 O297 1.243 . S
C279 C278 1.503 . S
C279 C280 1.394 . S
C279 C284 1.373 . S
C280 C279 1.394 . S
C280 C281 1.380 . S
C280 H308 0.930 . S
C281 C280 1.380 . S
C281 C282 1.376 . S
C281 H309 0.930 . S
C282 C281 1.376 . S
C282 C283 1.370 . S
C283 C282 1.370 . S
C283 C284 1.396 . S
C283 H310 0.929 . S
C284 C279 1.373 . S
C284 C283 1.396 . S
C284 H311 0.929 . S
C285 O298 1.240 . S
C285 O299 1.289 . S
C286 O300 1.258 . S
C286 O301 1.256 . S
C287 La277 2.928 . S
C287 C288 1.503 . S
C287 O302 1.261 . S
C287 O303 1.243 . S
C288 C287 1.503 . S
C288 C289 1.394 . S
C288 C293 1.373 . S
C289 C288 1.394 . S
C289 C290 1.380 . S
C289 H312 0.930 . S
C290 C289 1.380 . S
C290 C291 1.376 . S
C290 H313 0.930 . S
C291 C290 1.376 . S
C291 C292 1.370 . S
C292 C291 1.370 . S
C292 C293 1.396 . S
C292 H314 0.929 . S
C293 C288 1.373 . S
C293 C292 1.396 . S
C293 H315 0.929 . S
C294 O304 1.240 . S
C294 O305 1.289 . S
C295 O306 1.258 . S
C295 O307 1.256 . S
O296 La276 2.521 . S
O296 C278 1.261 . S
O297 La276 2.628 . S
O297 C278 1.243 . S
O298 La276 2.554 . S
O298 C285 1.240 . S
O299 La276 2.757 . S
O299 La277 2.482 . S
O299 C285 1.289 . S
O300 La276 2.470 . S
O300 C286 1.258 . S
O301 La277 2.503 . S
O301 C286 1.256 . S
O302 La277 2.521 . S
O302 C287 1.261 . S
O303 La277 2.628 . S
O303 C287 1.243 . S
O304 La277 2.554 . S
O304 C294 1.240 . S
O305 La276 2.482 . S
O305 La277 2.757 . S
O305 C294 1.289 . S
O306 La277 2.470 . S
O306 C295 1.258 . S
O307 La276 2.503 . S
O307 C295 1.256 . S
H308 C280 0.930 . S
H309 C281 0.930 . S
H310 C283 0.929 . S
H311 C284 0.929 . S
H312 C289 0.930 . S
H313 C290 0.930 . S
H314 C292 0.929 . S
H315 C293 0.929 . S
La316 C318 2.928 . S
La316 O336 2.521 . S
La316 O337 2.628 . S
La316 O338 2.554 . S
La316 O339 2.757 . S
La316 O340 2.470 . S
La316 O345 2.482 . S
La316 O347 2.503 . S
La317 C327 2.928 . S
La317 O339 2.482 . S
La317 O341 2.503 . S
La317 O342 2.521 . S
La317 O343 2.628 . S
La317 O344 2.554 . S
La317 O345 2.757 . S
La317 O346 2.470 . S
C318 La316 2.928 . S
C318 C319 1.503 . S
C318 O336 1.261 . S
C318 O337 1.243 . S
C319 C318 1.503 . S
C319 C320 1.394 . S
C319 C324 1.373 . S
C320 C319 1.394 . S
C320 C321 1.380 . S
C320 H348 0.930 . S
C321 C320 1.380 . S
C321 C322 1.376 . S
C321 H349 0.930 . S
C322 C321 1.376 . S
C322 C323 1.370 . S
C323 C322 1.370 . S
C323 C324 1.396 . S
C323 H350 0.929 . S
C324 C319 1.373 . S
C324 C323 1.396 . S
C324 H351 0.929 . S
C325 O338 1.240 . S
C325 O339 1.289 . S
C326 O340 1.258 . S
C326 O341 1.256 . S
C327 La317 2.928 . S
C327 C328 1.503 . S
C327 O342 1.261 . S
C327 O343 1.243 . S
C328 C327 1.503 . S
C328 C329 1.394 . S
C328 C333 1.373 . S
C329 C328 1.394 . S
C329 C330 1.380 . S
C329 H352 0.930 . S
C330 C329 1.380 . S
C330 C331 1.376 . S
C330 H353 0.930 . S
C331 C330 1.376 . S
C331 C332 1.370 . S
C332 C331 1.370 . S
C332 C333 1.396 . S
C332 H354 0.929 . S
C333 C328 1.373 . S
C333 C332 1.396 . S
C333 H355 0.929 . S
C334 O344 1.240 . S
C334 O345 1.289 . S
C335 O346 1.258 . S
C335 O347 1.256 . S
O336 La316 2.521 . S
O336 C318 1.261 . S
O337 La316 2.628 . S
O337 C318 1.243 . S
O338 La316 2.554 . S
O338 C325 1.240 . S
O339 La316 2.757 . S
O339 La317 2.482 . S
O339 C325 1.289 . S
O340 La316 2.470 . S
O340 C326 1.258 . S
O341 La317 2.503 . S
O341 C326 1.256 . S
O342 La317 2.521 . S
O342 C327 1.261 . S
O343 La317 2.628 . S
O343 C327 1.243 . S
O344 La317 2.554 . S
O344 C334 1.240 . S
O345 La316 2.482 . S
O345 La317 2.757 . S
O345 C334 1.289 . S
O346 La317 2.470 . S
O346 C335 1.258 . S
O347 La316 2.503 . S
O347 C335 1.256 . S
H348 C320 0.930 . S
H349 C321 0.930 . S
H350 C323 0.929 . S
H351 C324 0.929 . S
H352 C329 0.930 . S
H353 C330 0.930 . S
H354 C332 0.929 . S
H355 C333 0.929 . S
La356 C358 2.928 . S
La356 O376 2.521 . S
La356 O377 2.628 . S
La356 O378 2.554 . S
La356 O379 2.757 . S
La356 O380 2.470 . S
La356 O385 2.482 . S
La356 O387 2.503 . S
La357 C367 2.928 . S
La357 O379 2.482 . S
La357 O381 2.503 . S
La357 O382 2.521 . S
La357 O383 2.628 . S
La357 O384 2.554 . S
La357 O385 2.757 . S
La357 O386 2.470 . S
C358 La356 2.928 . S
C358 C359 1.503 . S
C358 O376 1.261 . S
C358 O377 1.243 . S
C359 C358 1.503 . S
C359 C360 1.394 . S
C359 C364 1.373 . S
C360 C359 1.394 . S
C360 C361 1.380 . S
C360 H388 0.930 . S
C361 C360 1.380 . S
C361 C362 1.376 . S
C361 H389 0.930 . S
C362 C361 1.376 . S
C362 C363 1.370 . S
C363 C362 1.370 . S
C363 C364 1.396 . S
C363 H390 0.929 . S
C364 C359 1.373 . S
C364 C363 1.396 . S
C364 H391 0.929 . S
C365 O378 1.240 . S
C365 O379 1.289 . S
C366 O380 1.258 . S
C366 O381 1.256 . S
C367 La357 2.928 . S
C367 C368 1.503 . S
C367 O382 1.261 . S
C367 O383 1.243 . S
C368 C367 1.503 . S
C368 C369 1.394 . S
C368 C373 1.373 . S
C369 C368 1.394 . S
C369 C370 1.380 . S
C369 H392 0.930 . S
C370 C369 1.380 . S
C370 C371 1.376 . S
C370 H393 0.930 . S
C371 C370 1.376 . S
C371 C372 1.370 . S
C372 C371 1.370 . S
C372 C373 1.396 . S
C372 H394 0.929 . S
C373 C368 1.373 . S
C373 C372 1.396 . S
C373 H395 0.929 . S
C374 O384 1.240 . S
C374 O385 1.289 . S
C375 O386 1.258 . S
C375 O387 1.256 . S
O376 La356 2.521 . S
O376 C358 1.261 . S
O377 La356 2.628 . S
O377 C358 1.243 . S
O378 La356 2.554 . S
O378 C365 1.240 . S
O379 La356 2.757 . S
O379 La357 2.482 . S
O379 C365 1.289 . S
O380 La356 2.470 . S
O380 C366 1.258 . S
O381 La357 2.503 . S
O381 C366 1.256 . S
O382 La357 2.521 . S
O382 C367 1.261 . S
O383 La357 2.628 . S
O383 C367 1.243 . S
O384 La357 2.554 . S
O384 C374 1.240 . S
O385 La356 2.482 . S
O385 La357 2.757 . S
O385 C374 1.289 . S
O386 La357 2.470 . S
O386 C375 1.258 . S
O387 La356 2.503 . S
O387 C375 1.256 . S
H388 C360 0.930 . S
H389 C361 0.930 . S
H390 C363 0.929 . S
H391 C364 0.929 . S
H392 C369 0.930 . S
H393 C370 0.930 . S
H394 C372 0.929 . S
H395 C373 0.929 . S
La396 C398 2.928 . S
La396 O416 2.521 . S
La396 O417 2.628 . S
La396 O418 2.554 . S
La396 O419 2.757 . S
La396 O420 2.470 . S
La396 O425 2.482 . S
La396 O427 2.503 . S
La397 C407 2.928 . S
La397 O419 2.482 . S
La397 O421 2.503 . S
La397 O422 2.521 . S
La397 O423 2.628 . S
La397 O424 2.554 . S
La397 O425 2.757 . S
La397 O426 2.470 . S
C398 La396 2.928 . S
C398 C399 1.503 . S
C398 O416 1.261 . S
C398 O417 1.243 . S
C399 C398 1.503 . S
C399 C400 1.394 . S
C399 C404 1.373 . S
C400 C399 1.394 . S
C400 C401 1.380 . S
C400 H428 0.930 . S
C401 C400 1.380 . S
C401 C402 1.376 . S
C401 H429 0.930 . S
C402 C401 1.376 . S
C402 C403 1.370 . S
C403 C402 1.370 . S
C403 C404 1.396 . S
C403 H430 0.929 . S
C404 C399 1.373 . S
C404 C403 1.396 . S
C404 H431 0.929 . S
C405 O418 1.240 . S
C405 O419 1.289 . S
C406 O420 1.258 . S
C406 O421 1.256 . S
C407 La397 2.928 . S
C407 C408 1.503 . S
C407 O422 1.261 . S
C407 O423 1.243 . S
C408 C407 1.503 . S
C408 C409 1.394 . S
C408 C413 1.373 . S
C409 C408 1.394 . S
C409 C410 1.380 . S
C409 H432 0.930 . S
C410 C409 1.380 . S
C410 C411 1.376 . S
C410 H433 0.930 . S
C411 C410 1.376 . S
C411 C412 1.370 . S
C412 C411 1.370 . S
C412 C413 1.396 . S
C412 H434 0.929 . S
C413 C408 1.373 . S
C413 C412 1.396 . S
C413 H435 0.929 . S
C414 O424 1.240 . S
C414 O425 1.289 . S
C415 O426 1.258 . S
C415 O427 1.256 . S
O416 La396 2.521 . S
O416 C398 1.261 . S
O417 La396 2.628 . S
O417 C398 1.243 . S
O418 La396 2.554 . S
O418 C405 1.240 . S
O419 La396 2.757 . S
O419 La397 2.482 . S
O419 C405 1.289 . S
O420 La396 2.470 . S
O420 C406 1.258 . S
O421 La397 2.503 . S
O421 C406 1.256 . S
O422 La397 2.521 . S
O422 C407 1.261 . S
O423 La397 2.628 . S
O423 C407 1.243 . S
O424 La397 2.554 . S
O424 C414 1.240 . S
O425 La396 2.482 . S
O425 La397 2.757 . S
O425 C414 1.289 . S
O426 La397 2.470 . S
O426 C415 1.258 . S
O427 La396 2.503 . S
O427 C415 1.256 . S
H428 C400 0.930 . S
H429 C401 0.930 . S
H430 C403 0.929 . S
H431 C404 0.929 . S
H432 C409 0.930 . S
H433 C410 0.930 . S
H434 C412 0.929 . S
H435 C413 0.929 . S
La436 C438 2.928 . S
La436 O456 2.521 . S
La436 O457 2.628 . S
La436 O458 2.554 . S
La436 O459 2.757 . S
La436 O460 2.470 . S
La436 O465 2.482 . S
La436 O467 2.503 . S
La437 C447 2.928 . S
La437 O459 2.482 . S
La437 O461 2.503 . S
La437 O462 2.521 . S
La437 O463 2.628 . S
La437 O464 2.554 . S
La437 O465 2.757 . S
La437 O466 2.470 . S
C438 La436 2.928 . S
C438 C439 1.503 . S
C438 O456 1.261 . S
C438 O457 1.243 . S
C439 C438 1.503 . S
C439 C440 1.394 . S
C439 C444 1.373 . S
C440 C439 1.394 . S
C440 C441 1.380 . S
C440 H468 0.930 . S
C441 C440 1.380 . S
C441 C442 1.376 . S
C441 H469 0.930 1_556 S
C442 C441 1.376 . S
C442 C443 1.370 . S
C443 C442 1.370 . S
C443 C444 1.396 . S
C443 H470 0.929 . S
C444 C439 1.373 . S
C444 C443 1.396 . S
C444 H471 0.929 . S
C445 O458 1.240 . S
C445 O459 1.289 . S
C446 O460 1.258 . S
C446 O461 1.256 . S
C447 La437 2.928 . S
C447 C448 1.503 . S
C447 O462 1.261 . S
C447 O463 1.243 . S
C448 C447 1.503 . S
C448 C449 1.394 . S
C448 C453 1.373 . S
C449 C448 1.394 . S
C449 C450 1.380 . S
C449 H472 0.930 . S
C450 C449 1.380 . S
C450 C451 1.376 . S
C450 H473 0.930 . S
C451 C450 1.376 . S
C451 C452 1.370 . S
C452 C451 1.370 . S
C452 C453 1.396 . S
C452 H474 0.929 . S
C453 C448 1.373 . S
C453 C452 1.396 . S
C453 H475 0.929 . S
C454 O464 1.240 . S
C454 O465 1.289 . S
C455 O466 1.258 . S
C455 O467 1.256 . S
O456 La436 2.521 . S
O456 C438 1.261 . S
O457 La436 2.628 . S
O457 C438 1.243 . S
O458 La436 2.554 . S
O458 C445 1.240 . S
O459 La436 2.757 . S
O459 La437 2.482 . S
O459 C445 1.289 . S
O460 La436 2.470 . S
O460 C446 1.258 . S
O461 La437 2.503 . S
O461 C446 1.256 . S
O462 La437 2.521 . S
O462 C447 1.261 . S
O463 La437 2.628 . S
O463 C447 1.243 . S
O464 La437 2.554 . S
O464 C454 1.240 . S
O465 La436 2.482 . S
O465 La437 2.757 . S
O465 C454 1.289 . S
O466 La437 2.470 . S
O466 C455 1.258 . S
O467 La436 2.503 . S
O467 C455 1.256 . S
H468 C440 0.930 . S
H469 C441 0.930 1_554 S
H470 C443 0.929 . S
H471 C444 0.929 . S
H472 C449 0.930 . S
H473 C450 0.930 . S
H474 C452 0.929 . S
H475 C453 0.929 . S
La476 C478 2.928 . S
La476 O496 2.521 . S
La476 O497 2.628 . S
La476 O498 2.554 . S
La476 O499 2.757 . S
La476 O500 2.470 . S
La476 O505 2.482 . S
La476 O507 2.503 . S
La477 C487 2.928 . S
La477 O499 2.482 . S
La477 O501 2.503 . S
La477 O502 2.521 . S
La477 O503 2.628 . S
La477 O504 2.554 . S
La477 O505 2.757 . S
La477 O506 2.470 . S
C478 La476 2.928 . S
C478 C479 1.503 . S
C478 O496 1.261 . S
C478 O497 1.243 . S
C479 C478 1.503 . S
C479 C480 1.394 . S
C479 C484 1.373 . S
C480 C479 1.394 . S
C480 C481 1.380 . S
C480 H508 0.930 . S
C481 C480 1.380 . S
C481 C482 1.376 . S
C481 H509 0.930 . S
C482 C481 1.376 . S
C482 C483 1.370 . S
C483 C482 1.370 . S
C483 C484 1.396 . S
C483 H510 0.929 . S
C484 C479 1.373 . S
C484 C483 1.396 . S
C484 H511 0.929 . S
C485 O498 1.240 . S
C485 O499 1.289 . S
C486 O500 1.258 . S
C486 O501 1.256 . S
C487 La477 2.928 . S
C487 C488 1.503 . S
C487 O502 1.261 . S
C487 O503 1.243 . S
C488 C487 1.503 . S
C488 C489 1.394 . S
C488 C493 1.373 . S
C489 C488 1.394 . S
C489 C490 1.380 . S
C489 H512 0.930 . S
C490 C489 1.380 . S
C490 C491 1.376 . S
C490 H513 0.930 . S
C491 C490 1.376 . S
C491 C492 1.370 . S
C492 C491 1.370 . S
C492 C493 1.396 . S
C492 H514 0.929 . S
C493 C488 1.373 . S
C493 C492 1.396 . S
C493 H515 0.929 . S
C494 O504 1.240 . S
C494 O505 1.289 . S
C495 O506 1.258 . S
C495 O507 1.256 . S
O496 La476 2.521 . S
O496 C478 1.261 . S
O497 La476 2.628 . S
O497 C478 1.243 . S
O498 La476 2.554 . S
O498 C485 1.240 . S
O499 La476 2.757 . S
O499 La477 2.482 . S
O499 C485 1.289 . S
O500 La476 2.470 . S
O500 C486 1.258 . S
O501 La477 2.503 . S
O501 C486 1.256 . S
O502 La477 2.521 . S
O502 C487 1.261 . S
O503 La477 2.628 . S
O503 C487 1.243 . S
O504 La477 2.554 . S
O504 C494 1.240 . S
O505 La476 2.482 . S
O505 La477 2.757 . S
O505 C494 1.289 . S
O506 La477 2.470 . S
O506 C495 1.258 . S
O507 La476 2.503 . S
O507 C495 1.256 . S
H508 C480 0.930 . S
H509 C481 0.930 . S
H510 C483 0.929 . S
H511 C484 0.929 . S
H512 C489 0.930 . S
H513 C490 0.930 . S
H514 C492 0.929 . S
H515 C493 0.929 . S
La516 C518 2.928 . S
La516 O536 2.521 . S
La516 O537 2.628 . S
La516 O538 2.554 . S
La516 O539 2.757 . S
La516 O540 2.470 . S
La516 O545 2.482 . S
La516 O547 2.503 . S
La517 C527 2.928 . S
La517 O539 2.482 . S
La517 O541 2.503 . S
La517 O542 2.521 . S
La517 O543 2.628 . S
La517 O544 2.554 . S
La517 O545 2.757 . S
La517 O546 2.470 . S
C518 La516 2.928 . S
C518 C519 1.503 . S
C518 O536 1.261 . S
C518 O537 1.243 . S
C519 C518 1.503 . S
C519 C520 1.394 . S
C519 C524 1.373 . S
C520 C519 1.394 . S
C520 C521 1.380 . S
C520 H548 0.930 . S
C521 C520 1.380 . S
C521 C522 1.376 . S
C521 H549 0.930 . S
C522 C521 1.376 . S
C522 C523 1.370 . S
C523 C522 1.370 . S
C523 C524 1.396 . S
C523 H550 0.929 . S
C524 C519 1.373 . S
C524 C523 1.396 . S
C524 H551 0.929 . S
C525 O538 1.240 . S
C525 O539 1.289 . S
C526 O540 1.258 . S
C526 O541 1.256 . S
C527 La517 2.928 . S
C527 C528 1.503 . S
C527 O542 1.261 . S
C527 O543 1.243 . S
C528 C527 1.503 . S
C528 C529 1.394 . S
C528 C533 1.373 . S
C529 C528 1.394 . S
C529 C530 1.380 . S
C529 H552 0.930 . S
C530 C529 1.380 . S
C530 C531 1.376 . S
C530 H553 0.930 1_556 S
C531 C530 1.376 . S
C531 C532 1.370 . S
C532 C531 1.370 . S
C532 C533 1.396 . S
C532 H554 0.929 . S
C533 C528 1.373 . S
C533 C532 1.396 . S
C533 H555 0.929 . S
C534 O544 1.240 . S
C534 O545 1.289 . S
C535 O546 1.258 . S
C535 O547 1.256 . S
O536 La516 2.521 . S
O536 C518 1.261 . S
O537 La516 2.628 . S
O537 C518 1.243 . S
O538 La516 2.554 . S
O538 C525 1.240 . S
O539 La516 2.757 . S
O539 La517 2.482 . S
O539 C525 1.289 . S
O540 La516 2.470 . S
O540 C526 1.258 . S
O541 La517 2.503 . S
O541 C526 1.256 . S
O542 La517 2.521 . S
O542 C527 1.261 . S
O543 La517 2.628 . S
O543 C527 1.243 . S
O544 La517 2.554 . S
O544 C534 1.240 . S
O545 La516 2.482 . S
O545 La517 2.757 . S
O545 C534 1.289 . S
O546 La517 2.470 . S
O546 C535 1.258 . S
O547 La516 2.503 . S
O547 C535 1.256 . S
H548 C520 0.930 . S
H549 C521 0.930 . S
H550 C523 0.929 . S
H551 C524 0.929 . S
H552 C529 0.930 . S
H553 C530 0.930 1_554 S
H554 C532 0.929 . S
H555 C533 0.929 . S
La556 C558 2.928 . S
La556 O576 2.521 . S
La556 O577 2.628 . S
La556 O578 2.554 . S
La556 O579 2.757 . S
La556 O580 2.470 . S
La556 O585 2.482 . S
La556 O587 2.503 . S
La557 C567 2.928 . S
La557 O579 2.482 . S
La557 O581 2.503 . S
La557 O582 2.521 . S
La557 O583 2.628 . S
La557 O584 2.554 . S
La557 O585 2.757 . S
La557 O586 2.470 . S
C558 La556 2.928 . S
C558 C559 1.503 . S
C558 O576 1.261 . S
C558 O577 1.243 . S
C559 C558 1.503 . S
C559 C560 1.394 . S
C559 C564 1.373 . S
C560 C559 1.394 . S
C560 C561 1.380 . S
C560 H588 0.930 . S
C561 C560 1.380 . S
C561 C562 1.376 . S
C561 H589 0.930 . S
C562 C561 1.376 . S
C562 C563 1.370 . S
C563 C562 1.370 . S
C563 C564 1.396 . S
C563 H590 0.929 . S
C564 C559 1.373 . S
C564 C563 1.396 . S
C564 H591 0.929 . S
C565 O578 1.240 . S
C565 O579 1.289 . S
C566 O580 1.258 . S
C566 O581 1.256 . S
C567 La557 2.928 . S
C567 C568 1.503 . S
C567 O582 1.261 . S
C567 O583 1.243 . S
C568 C567 1.503 . S
C568 C569 1.394 . S
C568 C573 1.373 . S
C569 C568 1.394 . S
C569 C570 1.380 . S
C569 H592 0.930 . S
C570 C569 1.380 . S
C570 C571 1.376 . S
C570 H593 0.930 . S
C571 C570 1.376 . S
C571 C572 1.370 . S
C572 C571 1.370 . S
C572 C573 1.396 . S
C572 H594 0.929 . S
C573 C568 1.373 . S
C573 C572 1.396 . S
C573 H595 0.929 . S
C574 O584 1.240 . S
C574 O585 1.289 . S
C575 O586 1.258 . S
C575 O587 1.256 . S
O576 La556 2.521 . S
O576 C558 1.261 . S
O577 La556 2.628 . S
O577 C558 1.243 . S
O578 La556 2.554 . S
O578 C565 1.240 . S
O579 La556 2.757 . S
O579 La557 2.482 . S
O579 C565 1.289 . S
O580 La556 2.470 . S
O580 C566 1.258 . S
O581 La557 2.503 . S
O581 C566 1.256 . S
O582 La557 2.521 . S
O582 C567 1.261 . S
O583 La557 2.628 . S
O583 C567 1.243 . S
O584 La557 2.554 . S
O584 C574 1.240 . S
O585 La556 2.482 . S
O585 La557 2.757 . S
O585 C574 1.289 . S
O586 La557 2.470 . S
O586 C575 1.258 . S
O587 La556 2.503 . S
O587 C575 1.256 . S
H588 C560 0.930 . S
H589 C561 0.930 . S
H590 C563 0.929 . S
H591 C564 0.929 . S
H592 C569 0.930 . S
H593 C570 0.930 . S
H594 C572 0.929 . S
H595 C573 0.929 . S
C596 C597 1.369 . S
C596 C598 1.419 . S
C596 H600 0.930 . S
C597 C596 1.369 . S
C597 C606 1.429 . S
C598 C596 1.419 . S
C598 C599 1.363 . S
C598 H601 0.929 . S
C599 C598 1.363 . S
C599 C605 1.428 . S
H600 C596 0.930 . S
H601 C598 0.929 . S
S602 N603 1.613 . S
S602 N604 1.610 . S
N603 S602 1.613 . S
N603 C606 1.350 . S
N604 S602 1.610 . S
N604 C605 1.351 . S
C605 C599 1.428 . S
C605 N604 1.351 . S
C605 C606 1.434 . S
C606 C597 1.429 . S
C606 N603 1.350 . S
C606 C605 1.434 . S
C607 C608 1.369 . S
C607 C609 1.419 . S
C607 H611 0.930 . S
C608 C607 1.369 . S
C608 C617 1.429 . S
C609 C607 1.419 . S
C609 C610 1.363 . S
C609 H612 0.929 . S
C610 C609 1.363 . S
C610 C616 1.428 . S
H611 C607 0.930 . S
H612 C609 0.929 . S
S613 N614 1.613 . S
S613 N615 1.610 . S
N614 S613 1.613 . S
N614 C617 1.350 . S
N615 S613 1.610 . S
N615 C616 1.351 . S
C616 C610 1.428 . S
C616 N615 1.351 . S
C616 C617 1.434 . S
C617 C608 1.429 . S
C617 N614 1.350 . S
C617 C616 1.434 . S
C618 C619 1.369 . S
C618 C620 1.419 . S
C618 H622 0.930 . S
C619 C618 1.369 . S
C619 C628 1.429 . S
C620 C618 1.419 . S
C620 C621 1.363 . S
C620 H623 0.929 . S
C621 C620 1.363 . S
C621 C627 1.428 . S
H622 C618 0.930 . S
H623 C620 0.929 . S
S624 N625 1.613 . S
S624 N626 1.610 . S
N625 S624 1.613 . S
N625 C628 1.350 1_455 S
N626 S624 1.610 . S
N626 C627 1.351 1_455 S
C627 C621 1.428 . S
C627 N626 1.351 1_655 S
C627 C628 1.434 . S
C628 C619 1.429 . S
C628 N625 1.350 1_655 S
C628 C627 1.434 . S
C629 C630 1.369 . S
C629 C631 1.419 . S
C629 H633 0.930 . S
C630 C629 1.369 . S
C630 C639 1.429 . S
C631 C629 1.419 . S
C631 C632 1.363 . S
C631 H634 0.929 . S
C632 C631 1.363 . S
C632 C638 1.428 . S
H633 C629 0.930 . S
H634 C631 0.929 . S
S635 N636 1.613 . S
S635 N637 1.610 . S
N636 S635 1.613 . S
N636 C639 1.350 . S
N637 S635 1.610 . S
N637 C638 1.351 . S
C638 C632 1.428 . S
C638 N637 1.351 . S
C638 C639 1.434 . S
C639 C630 1.429 . S
C639 N636 1.350 . S
C639 C638 1.434 . S
C640 C641 1.369 . S
C640 C642 1.419 . S
C640 H644 0.930 . S
C641 C640 1.369 . S
C641 C650 1.429 . S
C642 C640 1.419 . S
C642 C643 1.363 . S
C642 H645 0.929 . S
C643 C642 1.363 . S
C643 C649 1.428 . S
H644 C640 0.930 . S
H645 C642 0.929 . S
S646 N647 1.613 . S
S646 N648 1.610 . S
N647 S646 1.613 . S
N647 C650 1.350 . S
N648 S646 1.610 . S
N648 C649 1.351 . S
C649 C643 1.428 . S
C649 N648 1.351 . S
C649 C650 1.434 . S
C650 C641 1.429 . S
C650 N647 1.350 . S
C650 C649 1.434 . S
C651 C652 1.369 . S
C651 C653 1.419 . S
C651 H655 0.930 . S
C652 C651 1.369 . S
C652 C661 1.429 . S
C653 C651 1.419 . S
C653 C654 1.363 . S
C653 H656 0.929 . S
C654 C653 1.363 . S
C654 C660 1.428 . S
H655 C651 0.930 . S
H656 C653 0.929 . S
S657 N658 1.613 . S
S657 N659 1.610 . S
N658 S657 1.613 . S
N658 C661 1.350 . S
N659 S657 1.610 . S
N659 C660 1.351 . S
C660 C654 1.428 . S
C660 N659 1.351 . S
C660 C661 1.434 . S
C661 C652 1.429 . S
C661 N658 1.350 . S
C661 C660 1.434 . S
C662 C663 1.369 . S
C662 C664 1.419 . S
C662 H666 0.930 . S
C663 C662 1.369 . S
C663 C672 1.429 . S
C664 C662 1.419 . S
C664 C665 1.363 . S
C664 H667 0.929 . S
C665 C664 1.363 . S
C665 C671 1.428 . S
H666 C662 0.930 . S
H667 C664 0.929 . S
S668 N669 1.613 . S
S668 N670 1.610 . S
N669 S668 1.613 . S
N669 C672 1.350 . S
N670 S668 1.610 . S
N670 C671 1.351 . S
C671 C665 1.428 . S
C671 N670 1.351 . S
C671 C672 1.434 . S
C672 C663 1.429 . S
C672 N669 1.350 . S
C672 C671 1.434 . S
C673 C674 1.369 . S
C673 C675 1.419 . S
C673 H677 0.930 . S
C674 C673 1.369 . S
C674 C683 1.429 1_545 S
C675 C673 1.419 . S
C675 C676 1.363 1_545 S
C675 H678 0.929 . S
C676 C675 1.363 1_565 S
C676 C682 1.428 . S
H677 C673 0.930 . S
H678 C675 0.929 . S
S679 N680 1.613 . S
S679 N681 1.610 . S
N680 S679 1.613 . S
N680 C683 1.350 . S
N681 S679 1.610 . S
N681 C682 1.351 . S
C682 C676 1.428 . S
C682 N681 1.351 . S
C682 C683 1.434 . S
C683 C674 1.429 1_565 S
C683 N680 1.350 . S
C683 C682 1.434 . S
C684 C685 1.369 . S
C684 C686 1.419 . S
C684 H688 0.930 . S
C685 C684 1.369 . S
C685 C694 1.429 . S
C686 C684 1.419 . S
C686 C687 1.363 . S
C686 H689 0.929 . S
C687 C686 1.363 . S
C687 C693 1.428 . S
H688 C684 0.930 . S
H689 C686 0.929 . S
S690 N691 1.613 . S
S690 N692 1.610 . S
N691 S690 1.613 . S
N691 C694 1.350 . S
N692 S690 1.610 . S
N692 C693 1.351 . S
C693 C687 1.428 . S
C693 N692 1.351 . S
C693 C694 1.434 . S
C694 C685 1.429 . S
C694 N691 1.350 . S
C694 C693 1.434 . S
C695 C696 1.369 . S
C695 C697 1.419 . S
C695 H699 0.930 . S
C696 C695 1.369 . S
C696 C705 1.429 . S
C697 C695 1.419 . S
C697 C698 1.363 . S
C697 H700 0.929 . S
C698 C697 1.363 . S
C698 C704 1.428 . S
H699 C695 0.930 . S
H700 C697 0.929 . S
S701 N702 1.613 . S
S701 N703 1.610 . S
N702 S701 1.613 . S
N702 C705 1.350 . S
N703 S701 1.610 . S
N703 C704 1.351 . S
C704 C698 1.428 . S
C704 N703 1.351 . S
C704 C705 1.434 . S
C705 C696 1.429 . S
C705 N702 1.350 . S
C705 C704 1.434 . S
C706 C707 1.369 . S
C706 C708 1.419 . S
C706 H710 0.930 . S
C707 C706 1.369 . S
C707 C716 1.429 . S
C708 C706 1.419 . S
C708 C709 1.363 . S
C708 H711 0.929 . S
C709 C708 1.363 . S
C709 C715 1.428 . S
H710 C706 0.930 . S
H711 C708 0.929 . S
S712 N713 1.613 . S
S712 N714 1.610 . S
N713 S712 1.613 . S
N713 C716 1.350 . S
N714 S712 1.610 . S
N714 C715 1.351 . S
C715 C709 1.428 . S
C715 N714 1.351 . S
C715 C716 1.434 . S
C716 C707 1.429 . S
C716 N713 1.350 . S
C716 C715 1.434 . S
C717 C718 1.369 . S
C717 C719 1.419 . S
C717 H721 0.930 . S
C718 C717 1.369 . S
C718 C727 1.429 . S
C719 C717 1.419 . S
C719 C720 1.363 . S
C719 H722 0.929 . S
C720 C719 1.363 . S
C720 C726 1.428 . S
H721 C717 0.930 . S
H722 C719 0.929 . S
S723 N724 1.613 . S
S723 N725 1.610 . S
N724 S723 1.613 . S
N724 C727 1.350 . S
N725 S723 1.610 . S
N725 C726 1.351 . S
C726 C720 1.428 . S
C726 N725 1.351 . S
C726 C727 1.434 . S
C727 C718 1.429 . S
C727 N724 1.350 . S
C727 C726 1.434 . S
C728 C729 1.369 1_565 S
C728 C730 1.419 . S
C728 H732 0.930 . S
C729 C728 1.369 1_545 S
C729 C738 1.429 . S
C730 C728 1.419 . S
C730 C731 1.363 . S
C730 H733 0.929 . S
C731 C730 1.363 . S
C731 C737 1.428 1_554 S
H732 C728 0.930 . S
H733 C730 0.929 . S
S734 N735 1.613 . S
S734 N736 1.610 . S
N735 S734 1.613 . S
N735 C738 1.350 1_556 S
N736 S734 1.610 . S
N736 C737 1.351 1_545 S
C737 C731 1.428 1_556 S
C737 N736 1.351 1_565 S
C737 C738 1.434 1_566 S
C738 C729 1.429 . S
C738 N735 1.350 1_554 S
C738 C737 1.434 1_544 S
C739 C740 1.369 . S
C739 C741 1.419 . S
C739 H743 0.930 . S
C740 C739 1.369 . S
C740 C749 1.429 . S
C741 C739 1.419 . S
C741 C742 1.363 . S
C741 H744 0.929 . S
C742 C741 1.363 . S
C742 C748 1.428 . S
H743 C739 0.930 . S
H744 C741 0.929 . S
S745 N746 1.613 . S
S745 N747 1.610 . S
N746 S745 1.613 . S
N746 C749 1.350 . S
N747 S745 1.610 . S
N747 C748 1.351 . S
C748 C742 1.428 . S
C748 N747 1.351 . S
C748 C749 1.434 . S
C749 C740 1.429 . S
C749 N746 1.350 . S
C749 C748 1.434 . S
C750 C751 1.369 . S
C750 C752 1.419 . S
C750 H754 0.930 . S
C751 C750 1.369 . S
C751 C760 1.429 . S
C752 C750 1.419 . S
C752 C753 1.363 . S
C752 H755 0.929 . S
C753 C752 1.363 . S
C753 C759 1.428 . S
H754 C750 0.930 . S
H755 C752 0.929 . S
S756 N757 1.613 . S
S756 N758 1.610 . S
N757 S756 1.613 . S
N757 C760 1.350 . S
N758 S756 1.610 . S
N758 C759 1.351 . S
C759 C753 1.428 . S
C759 N758 1.351 . S
C759 C760 1.434 . S
C760 C751 1.429 . S
C760 N757 1.350 . S
C760 C759 1.434 . S
C761 C762 1.369 . S
C761 C763 1.419 . S
C761 H765 0.930 . S
C762 C761 1.369 . S
C762 C771 1.429 . S
C763 C761 1.419 . S
C763 C764 1.363 . S
C763 H766 0.929 . S
C764 C763 1.363 . S
C764 C770 1.428 . S
H765 C761 0.930 . S
H766 C763 0.929 . S
S767 N768 1.613 . S
S767 N769 1.610 . S
N768 S767 1.613 . S
N768 C771 1.350 . S
N769 S767 1.610 . S
N769 C770 1.351 . S
C770 C764 1.428 . S
C770 N769 1.351 . S
C770 C771 1.434 . S
C771 C762 1.429 . S
C771 N768 1.350 . S
C771 C770 1.434 . S
C772 C773 1.369 . S
C772 C774 1.419 . S
C772 H776 0.930 . S
C773 C772 1.369 . S
C773 C782 1.429 . S
C774 C772 1.419 . S
C774 C775 1.363 . S
C774 H777 0.929 . S
C775 C774 1.363 . S
C775 C781 1.428 . S
H776 C772 0.930 . S
H777 C774 0.929 . S
S778 N779 1.613 . S
S778 N780 1.610 . S
N779 S778 1.613 . S
N779 C782 1.350 . S
N780 S778 1.610 . S
N780 C781 1.351 . S
C781 C775 1.428 . S
C781 N780 1.351 . S
C781 C782 1.434 . S
C782 C773 1.429 . S
C782 N779 1.350 . S
C782 C781 1.434 . S
C783 C784 1.369 . S
C783 C785 1.419 . S
C783 H787 0.930 . S
C784 C783 1.369 . S
C784 C793 1.429 . S
C785 C783 1.419 . S
C785 C786 1.363 . S
C785 H788 0.929 . S
C786 C785 1.363 . S
C786 C792 1.428 . S
H787 C783 0.930 . S
H788 C785 0.929 . S
S789 N790 1.613 . S
S789 N791 1.610 . S
N790 S789 1.613 . S
N790 C793 1.350 . S
N791 S789 1.610 . S
N791 C792 1.351 . S
C792 C786 1.428 . S
C792 N791 1.351 . S
C792 C793 1.434 . S
C793 C784 1.429 . S
C793 N790 1.350 . S
C793 C792 1.434 . S
C794 C795 1.369 1_556 S
C794 C796 1.419 . S
C794 H798 0.930 . S
C795 C794 1.369 1_554 S
C795 C804 1.429 . S
C796 C794 1.419 . S
C796 C797 1.363 . S
C796 H799 0.929 . S
C797 C796 1.363 . S
C797 C803 1.428 . S
H798 C794 0.930 . S
H799 C796 0.929 . S
S800 N801 1.613 . S
S800 N802 1.610 1_554 S
N801 S800 1.613 . S
N801 C804 1.350 . S
N802 S800 1.610 1_556 S
N802 C803 1.351 . S
C803 C797 1.428 . S
C803 N802 1.351 . S
C803 C804 1.434 1_556 S
C804 C795 1.429 . S
C804 N801 1.350 . S
C804 C803 1.434 1_554 S
C805 C806 1.369 1_655 S
C805 C807 1.419 . S
C805 H809 0.930 . S
C806 C805 1.369 1_455 S
C806 C815 1.429 . S
C807 C805 1.419 . S
C807 C808 1.363 . S
C807 H810 0.929 . S
C808 C807 1.363 . S
C808 C814 1.428 1_554 S
H809 C805 0.930 . S
H810 C807 0.929 . S
S811 N812 1.613 . S
S811 N813 1.610 . S
N812 S811 1.613 . S
N812 C815 1.350 1_556 S
N813 S811 1.610 . S
N813 C814 1.351 1_455 S
C814 C808 1.428 1_556 S
C814 N813 1.351 1_655 S
C814 C815 1.434 1_656 S
C815 C806 1.429 . S
C815 N812 1.350 1_554 S
C815 C814 1.434 1_454 S
C816 C817 1.369 . S
C816 C818 1.419 . S
C816 H820 0.930 . S
C817 C816 1.369 . S
C817 C826 1.429 . S
C818 C816 1.419 . S
C818 C819 1.363 . S
C818 H821 0.929 . S
C819 C818 1.363 . S
C819 C825 1.428 . S
H820 C816 0.930 . S
H821 C818 0.929 . S
S822 N823 1.613 . S
S822 N824 1.610 . S
N823 S822 1.613 . S
N823 C826 1.350 . S
N824 S822 1.610 . S
N824 C825 1.351 . S
C825 C819 1.428 . S
C825 N824 1.351 . S
C825 C826 1.434 . S
C826 C817 1.429 . S
C826 N823 1.350 . S
C826 C825 1.434 . S
C827 C828 1.369 . S
C827 C829 1.419 . S
C827 H831 0.930 . S
C828 C827 1.369 . S
C828 C837 1.429 . S
C829 C827 1.419 . S
C829 C830 1.363 . S
C829 H832 0.929 . S
C830 C829 1.363 . S
C830 C836 1.428 . S
H831 C827 0.930 . S
H832 C829 0.929 . S
S833 N834 1.613 . S
S833 N835 1.610 . S
N834 S833 1.613 . S
N834 C837 1.350 . S
N835 S833 1.610 . S
N835 C836 1.351 . S
C836 C830 1.428 . S
C836 N835 1.351 . S
C836 C837 1.434 . S
C837 C828 1.429 . S
C837 N834 1.350 . S
C837 C836 1.434 . S
C838 C839 1.369 1_565 S
C838 C840 1.419 . S
C838 H842 0.930 1_565 S
C839 C838 1.369 1_545 S
C839 C848 1.429 1_545 S
C840 C838 1.419 . S
C840 C841 1.363 . S
C840 H843 0.929 . S
C841 C840 1.363 . S
C841 C847 1.428 . S
H842 C838 0.930 1_545 S
H843 C840 0.929 . S
S844 N845 1.613 . S
S844 N846 1.610 . S
N845 S844 1.613 . S
N845 C848 1.350 . S
N846 S844 1.610 . S
N846 C847 1.351 . S
C847 C841 1.428 . S
C847 N846 1.351 . S
C847 C848 1.434 . S
C848 C839 1.429 1_565 S
C848 N845 1.350 . S
C848 C847 1.434 . S
C849 C850 1.369 . S
C849 C851 1.419 . S
C849 H853 0.930 . S
C850 C849 1.369 . S
C850 C859 1.429 . S
C851 C849 1.419 . S
C851 C852 1.363 . S
C851 H854 0.929 . S
C852 C851 1.363 . S
C852 C858 1.428 . S
H853 C849 0.930 . S
H854 C851 0.929 . S
S855 N856 1.613 . S
S855 N857 1.610 . S
N856 S855 1.613 . S
N856 C859 1.350 . S
N857 S855 1.610 . S
N857 C858 1.351 . S
C858 C852 1.428 . S
C858 N857 1.351 . S
C858 C859 1.434 . S
C859 C850 1.429 . S
C859 N856 1.350 . S
C859 C858 1.434 . S
C860 C861 1.369 . S
C860 C862 1.419 . S
C860 H864 0.930 . S
C861 C860 1.369 . S
C861 C870 1.429 . S
C862 C860 1.419 . S
C862 C863 1.363 . S
C862 H865 0.929 . S
C863 C862 1.363 . S
C863 C869 1.428 . S
H864 C860 0.930 . S
H865 C862 0.929 . S
S866 N867 1.613 . S
S866 N868 1.610 . S
N867 S866 1.613 . S
N867 C870 1.350 . S
N868 S866 1.610 . S
N868 C869 1.351 . S
C869 C863 1.428 . S
C869 N868 1.351 . S
C869 C870 1.434 . S
C870 C861 1.429 . S
C870 N867 1.350 . S
C870 C869 1.434 . S
C871 C872 1.369 . S
C871 C873 1.419 . S
C871 H875 0.930 . S
C872 C871 1.369 . S
C872 C881 1.429 . S
C873 C871 1.419 . S
C873 C874 1.363 . S
C873 H876 0.929 . S
C874 C873 1.363 . S
C874 C880 1.428 . S
H875 C871 0.930 . S
H876 C873 0.929 . S
S877 N878 1.613 . S
S877 N879 1.610 . S
N878 S877 1.613 . S
N878 C881 1.350 . S
N879 S877 1.610 . S
N879 C880 1.351 . S
C880 C874 1.428 . S
C880 N879 1.351 . S
C880 C881 1.434 . S
C881 C872 1.429 . S
C881 N878 1.350 . S
C881 C880 1.434 . S
C882 C883 1.369 . S
C882 C884 1.419 . S
C882 H886 0.930 . S
C883 C882 1.369 . S
C883 C892 1.429 . S
C884 C882 1.419 . S
C884 C885 1.363 . S
C884 H887 0.929 . S
C885 C884 1.363 . S
C885 C891 1.428 . S
H886 C882 0.930 . S
H887 C884 0.929 . S
S888 N889 1.613 . S
S888 N890 1.610 . S
N889 S888 1.613 . S
N889 C892 1.350 . S
N890 S888 1.610 . S
N890 C891 1.351 . S
C891 C885 1.428 . S
C891 N890 1.351 . S
C891 C892 1.434 . S
C892 C883 1.429 . S
C892 N889 1.350 . S
C892 C891 1.434 . S
C893 C894 1.369 . S
C893 C895 1.419 . S
C893 H897 0.930 . S
C894 C893 1.369 . S
C894 C903 1.429 . S
C895 C893 1.419 . S
C895 C896 1.363 . S
C895 H898 0.929 . S
C896 C895 1.363 . S
C896 C902 1.428 . S
H897 C893 0.930 . S
H898 C895 0.929 . S
S899 N900 1.613 . S
S899 N901 1.610 . S
N900 S899 1.613 . S
N900 C903 1.350 . S
N901 S899 1.610 . S
N901 C902 1.351 . S
C902 C896 1.428 . S
C902 N901 1.351 . S
C902 C903 1.434 . S
C903 C894 1.429 . S
C903 N900 1.350 . S
C903 C902 1.434 . S
C904 C905 1.369 . S
C904 C906 1.419 . S
C904 H908 0.930 . S
C905 C904 1.369 . S
C905 C914 1.429 . S
C906 C904 1.419 . S
C906 C907 1.363 . S
C906 H909 0.929 . S
C907 C906 1.363 . S
C907 C913 1.428 . S
H908 C904 0.930 . S
H909 C906 0.929 . S
S910 N911 1.613 . S
S910 N912 1.610 . S
N911 S910 1.613 . S
N911 C914 1.350 . S
N912 S910 1.610 . S
N912 C913 1.351 . S
C913 C907 1.428 . S
C913 N912 1.351 . S
C913 C914 1.434 . S
C914 C905 1.429 . S
C914 N911 1.350 . S
C914 C913 1.434 . S
C915 C916 1.369 . S
C915 C917 1.419 . S
C915 H919 0.930 . S
C916 C915 1.369 . S
C916 C925 1.429 . S
C917 C915 1.419 . S
C917 C918 1.363 . S
C917 H920 0.929 . S
C918 C917 1.363 . S
C918 C924 1.428 . S
H919 C915 0.930 . S
H920 C917 0.929 . S
S921 N922 1.613 . S
S921 N923 1.610 . S
N922 S921 1.613 . S
N922 C925 1.350 . S
N923 S921 1.610 . S
N923 C924 1.351 . S
C924 C918 1.428 . S
C924 N923 1.351 . S
C924 C925 1.434 . S
C925 C916 1.429 . S
C925 N922 1.350 . S
C925 C924 1.434 . S
C926 C927 1.369 . S
C926 C928 1.419 . S
C926 H930 0.930 . S
C927 C926 1.369 . S
C927 C936 1.429 . S
C928 C926 1.419 . S
C928 C929 1.363 . S
C928 H931 0.929 . S
C929 C928 1.363 . S
C929 C935 1.428 . S
H930 C926 0.930 . S
H931 C928 0.929 . S
S932 N933 1.613 . S
S932 N934 1.610 . S
N933 S932 1.613 . S
N933 C936 1.350 . S
N934 S932 1.610 . S
N934 C935 1.351 . S
C935 C929 1.428 . S
C935 N934 1.351 . S
C935 C936 1.434 . S
C936 C927 1.429 . S
C936 N933 1.350 . S
C936 C935 1.434 . S
C937 C938 1.369 . S
C937 C939 1.419 . S
C937 H941 0.930 . S
C938 C937 1.369 . S
C938 C947 1.429 . S
C939 C937 1.419 . S
C939 C940 1.363 . S
C939 H942 0.929 . S
C940 C939 1.363 . S
C940 C946 1.428 . S
H941 C937 0.930 . S
H942 C939 0.929 . S
S943 N944 1.613 . S
S943 N945 1.610 . S
N944 S943 1.613 . S
N944 C947 1.350 . S
N945 S943 1.610 . S
N945 C946 1.351 . S
C946 C940 1.428 . S
C946 N945 1.351 . S
C946 C947 1.434 . S
C947 C938 1.429 . S
C947 N944 1.350 . S
C947 C946 1.434 . S
C948 C949 1.369 . S
C948 C950 1.419 . S
C948 H952 0.930 . S
C949 C948 1.369 . S
C949 C958 1.429 . S
C950 C948 1.419 . S
C950 C951 1.363 . S
C950 H953 0.929 . S
C951 C950 1.363 . S
C951 C957 1.428 . S
H952 C948 0.930 . S
H953 C950 0.929 . S
S954 N955 1.613 . S
S954 N956 1.610 . S
N955 S954 1.613 . S
N955 C958 1.350 . S
N956 S954 1.610 . S
N956 C957 1.351 . S
C957 C951 1.428 . S
C957 N956 1.351 . S
C957 C958 1.434 . S
C958 C949 1.429 . S
C958 N955 1.350 . S
C958 C957 1.434 . S
C959 C960 1.369 . S
C959 C961 1.419 . S
C959 H963 0.930 . S
C960 C959 1.369 . S
C960 C969 1.429 . S
C961 C959 1.419 . S
C961 C962 1.363 . S
C961 H964 0.929 . S
C962 C961 1.363 . S
C962 C968 1.428 . S
H963 C959 0.930 . S
H964 C961 0.929 . S
S965 N966 1.613 . S
S965 N967 1.610 . S
N966 S965 1.613 . S
N966 C969 1.350 . S
N967 S965 1.610 . S
N967 C968 1.351 . S
C968 C962 1.428 . S
C968 N967 1.351 . S
C968 C969 1.434 . S
C969 C960 1.429 . S
C969 N966 1.350 . S
C969 C968 1.434 . S
C970 C971 1.369 . S
C970 C972 1.419 . S
C970 H974 0.930 . S
C971 C970 1.369 . S
C971 C980 1.429 . S
C972 C970 1.419 . S
C972 C973 1.363 . S
C972 H975 0.929 . S
C973 C972 1.363 . S
C973 C979 1.428 . S
H974 C970 0.930 . S
H975 C972 0.929 . S
S976 N977 1.613 . S
S976 N978 1.610 . S
N977 S976 1.613 . S
N977 C980 1.350 . S
N978 S976 1.610 . S
N978 C979 1.351 . S
C979 C973 1.428 . S
C979 N978 1.351 . S
C979 C980 1.434 . S
C980 C971 1.429 . S
C980 N977 1.350 . S
C980 C979 1.434 . S
C981 C982 1.369 . S
C981 C983 1.419 . S
C981 H985 0.930 . S
C982 C981 1.369 . S
C982 C991 1.429 . S
C983 C981 1.419 . S
C983 C984 1.363 . S
C983 H986 0.929 . S
C984 C983 1.363 . S
C984 C990 1.428 . S
H985 C981 0.930 . S
H986 C983 0.929 . S
S987 N988 1.613 . S
S987 N989 1.610 . S
N988 S987 1.613 . S
N988 C991 1.350 . S
N989 S987 1.610 . S
N989 C990 1.351 . S
C990 C984 1.428 . S
C990 N989 1.351 . S
C990 C991 1.434 . S
C991 C982 1.429 . S
C991 N988 1.350 . S
C991 C990 1.434 . S
C992 C993 1.369 . S
C992 C994 1.419 . S
C992 H996 0.930 . S
C993 C992 1.369 . S
C993 C1002 1.429 . S
C994 C992 1.419 . S
C994 C995 1.363 . S
C994 H997 0.929 . S
C995 C994 1.363 . S
C995 C1001 1.428 . S
H996 C992 0.930 . S
H997 C994 0.929 . S
S998 N999 1.613 . S
S998 N1000 1.610 . S
N999 S998 1.613 . S
N999 C1002 1.350 . S
N1000 S998 1.610 . S
N1000 C1001 1.351 . S
C1001 C995 1.428 . S
C1001 N1000 1.351 . S
C1001 C1002 1.434 . S
C1002 C993 1.429 . S
C1002 N999 1.350 . S
C1002 C1001 1.434 . S
C1003 C1004 1.369 . S
C1003 C1005 1.419 . S
C1003 H1007 0.930 . S
C1004 C1003 1.369 . S
C1004 C1013 1.429 . S
C1005 C1003 1.419 . S
C1005 C1006 1.363 . S
C1005 H1008 0.929 . S
C1006 C1005 1.363 . S
C1006 C1012 1.428 . S
H1007 C1003 0.930 . S
H1008 C1005 0.929 . S
S1009 N1010 1.613 . S
S1009 N1011 1.610 . S
N1010 S1009 1.613 . S
N1010 C1013 1.350 . S
N1011 S1009 1.610 . S
N1011 C1012 1.351 . S
C1012 C1006 1.428 . S
C1012 N1011 1.351 . S
C1012 C1013 1.434 . S
C1013 C1004 1.429 . S
C1013 N1010 1.350 . S
C1013 C1012 1.434 . S
C1014 C1015 1.369 . S
C1014 C1016 1.419 . S
C1014 H1018 0.930 . S
C1015 C1014 1.369 . S
C1015 C1024 1.429 . S
C1016 C1014 1.419 . S
C1016 C1017 1.363 . S
C1016 H1019 0.929 . S
C1017 C1016 1.363 . S
C1017 C1023 1.428 . S
H1018 C1014 0.930 . S
H1019 C1016 0.929 . S
S1020 N1021 1.613 . S
S1020 N1022 1.610 . S
N1021 S1020 1.613 . S
N1021 C1024 1.350 . S
N1022 S1020 1.610 . S
N1022 C1023 1.351 . S
C1023 C1017 1.428 . S
C1023 N1022 1.351 . S
C1023 C1024 1.434 . S
C1024 C1015 1.429 . S
C1024 N1021 1.350 . S
C1024 C1023 1.434 . S
C1025 C1026 1.369 . S
C1025 C1027 1.419 . S
C1025 H1029 0.930 . S
C1026 C1025 1.369 . S
C1026 C1035 1.429 . S
C1027 C1025 1.419 . S
C1027 C1028 1.363 . S
C1027 H1030 0.929 . S
C1028 C1027 1.363 . S
C1028 C1034 1.428 . S
H1029 C1025 0.930 . S
H1030 C1027 0.929 . S
S1031 N1032 1.613 . S
S1031 N1033 1.610 . S
N1032 S1031 1.613 . S
N1032 C1035 1.350 . S
N1033 S1031 1.610 . S
N1033 C1034 1.351 . S
C1034 C1028 1.428 . S
C1034 N1033 1.351 . S
C1034 C1035 1.434 . S
C1035 C1026 1.429 . S
C1035 N1032 1.350 . S
C1035 C1034 1.434 . S
C1036 C1037 1.369 . S
C1036 C1038 1.419 . S
C1036 H1040 0.930 . S
C1037 C1036 1.369 . S
C1037 C1046 1.429 . S
C1038 C1036 1.419 . S
C1038 C1039 1.363 . S
C1038 H1041 0.929 . S
C1039 C1038 1.363 . S
C1039 C1045 1.428 . S
H1040 C1036 0.930 . S
H1041 C1038 0.929 . S
S1042 N1043 1.613 . S
S1042 N1044 1.610 . S
N1043 S1042 1.613 . S
N1043 C1046 1.350 . S
N1044 S1042 1.610 . S
N1044 C1045 1.351 . S
C1045 C1039 1.428 . S
C1045 N1044 1.351 . S
C1045 C1046 1.434 . S
C1046 C1037 1.429 . S
C1046 N1043 1.350 . S
C1046 C1045 1.434 . S
C1047 C1048 1.369 . S
C1047 C1049 1.419 . S
C1047 H1051 0.930 . S
C1048 C1047 1.369 . S
C1048 C1057 1.429 . S
C1049 C1047 1.419 . S
C1049 C1050 1.363 . S
C1049 H1052 0.929 . S
C1050 C1049 1.363 . S
C1050 C1056 1.428 . S
H1051 C1047 0.930 . S
H1052 C1049 0.929 . S
S1053 N1054 1.613 . S
S1053 N1055 1.610 . S
N1054 S1053 1.613 . S
N1054 C1057 1.350 . S
N1055 S1053 1.610 . S
N1055 C1056 1.351 . S
C1056 C1050 1.428 . S
C1056 N1055 1.351 . S
C1056 C1057 1.434 . S
C1057 C1048 1.429 . S
C1057 N1054 1.350 . S
C1057 C1056 1.434 . S
C1058 C1059 1.369 . S
C1058 C1060 1.419 . S
C1058 H1062 0.930 . S
C1059 C1058 1.369 . S
C1059 C1068 1.429 . S
C1060 C1058 1.419 . S
C1060 C1061 1.363 . S
C1060 H1063 0.929 . S
C1061 C1060 1.363 . S
C1061 C1067 1.428 . S
H1062 C1058 0.930 . S
H1063 C1060 0.929 . S
S1064 N1065 1.613 . S
S1064 N1066 1.610 . S
N1065 S1064 1.613 . S
N1065 C1068 1.350 . S
N1066 S1064 1.610 . S
N1066 C1067 1.351 . S
C1067 C1061 1.428 . S
C1067 N1066 1.351 . S
C1067 C1068 1.434 . S
C1068 C1059 1.429 . S
C1068 N1065 1.350 . S
C1068 C1067 1.434 . S
C1069 C1070 1.369 . S
C1069 C1071 1.419 . S
C1069 H1073 0.930 . S
C1070 C1069 1.369 . S
C1070 C1079 1.429 . S
C1071 C1069 1.419 . S
C1071 C1072 1.363 . S
C1071 H1074 0.929 . S
C1072 C1071 1.363 . S
C1072 C1078 1.428 . S
H1073 C1069 0.930 . S
H1074 C1071 0.929 . S
S1075 N1076 1.613 . S
S1075 N1077 1.610 . S
N1076 S1075 1.613 . S
N1076 C1079 1.350 . S
N1077 S1075 1.610 . S
N1077 C1078 1.351 . S
C1078 C1072 1.428 . S
C1078 N1077 1.351 . S
C1078 C1079 1.434 . S
C1079 C1070 1.429 . S
C1079 N1076 1.350 . S
C1079 C1078 1.434 . S
C1080 C1081 1.369 . S
C1080 C1082 1.419 . S
C1080 H1084 0.930 . S
C1081 C1080 1.369 . S
C1081 C1090 1.429 . S
C1082 C1080 1.419 . S
C1082 C1083 1.363 . S
C1082 H1085 0.929 . S
C1083 C1082 1.363 . S
C1083 C1089 1.428 . S
H1084 C1080 0.930 . S
H1085 C1082 0.929 . S
S1086 N1087 1.613 . S
S1086 N1088 1.610 . S
N1087 S1086 1.613 . S
N1087 C1090 1.350 . S
N1088 S1086 1.610 . S
N1088 C1089 1.351 . S
C1089 C1083 1.428 . S
C1089 N1088 1.351 . S
C1089 C1090 1.434 . S
C1090 C1081 1.429 . S
C1090 N1087 1.350 . S
C1090 C1089 1.434 . S
C1091 C1092 1.369 . S
C1091 C1093 1.419 . S
C1091 H1095 0.930 . S
C1092 C1091 1.369 . S
C1092 C1101 1.429 . S
C1093 C1091 1.419 . S
C1093 C1094 1.363 . S
C1093 H1096 0.929 . S
C1094 C1093 1.363 . S
C1094 C1100 1.428 . S
H1095 C1091 0.930 . S
H1096 C1093 0.929 . S
S1097 N1098 1.613 . S
S1097 N1099 1.610 . S
N1098 S1097 1.613 . S
N1098 C1101 1.350 . S
N1099 S1097 1.610 . S
N1099 C1100 1.351 . S
C1100 C1094 1.428 . S
C1100 N1099 1.351 . S
C1100 C1101 1.434 . S
C1101 C1092 1.429 . S
C1101 N1098 1.350 . S
C1101 C1100 1.434 . S
C1102 C1103 1.369 . S
C1102 C1104 1.419 . S
C1102 H1106 0.930 . S
C1103 C1102 1.369 . S
C1103 C1112 1.429 . S
C1104 C1102 1.419 . S
C1104 C1105 1.363 . S
C1104 H1107 0.929 . S
C1105 C1104 1.363 . S
C1105 C1111 1.428 . S
H1106 C1102 0.930 . S
H1107 C1104 0.929 . S
S1108 N1109 1.613 . S
S1108 N1110 1.610 . S
N1109 S1108 1.613 . S
N1109 C1112 1.350 . S
N1110 S1108 1.610 . S
N1110 C1111 1.351 . S
C1111 C1105 1.428 . S
C1111 N1110 1.351 . S
C1111 C1112 1.434 . S
C1112 C1103 1.429 . S
C1112 N1109 1.350 . S
C1112 C1111 1.434 . S
C1113 C1114 1.369 . S
C1113 C1115 1.419 . S
C1113 H1117 0.930 . S
C1114 C1113 1.369 . S
C1114 C1123 1.429 . S
C1115 C1113 1.419 . S
C1115 C1116 1.363 . S
C1115 H1118 0.929 . S
C1116 C1115 1.363 . S
C1116 C1122 1.428 . S
H1117 C1113 0.930 . S
H1118 C1115 0.929 . S
S1119 N1120 1.613 . S
S1119 N1121 1.610 . S
N1120 S1119 1.613 . S
N1120 C1123 1.350 . S
N1121 S1119 1.610 . S
N1121 C1122 1.351 . S
C1122 C1116 1.428 . S
C1122 N1121 1.351 . S
C1122 C1123 1.434 . S
C1123 C1114 1.429 . S
C1123 N1120 1.350 . S
C1123 C1122 1.434 . S
C599 C282 1.293 . S
C597 N2 1.271 . S
C610 C325 2.417 . S
C608 C7 2.436 . S
C621 C371 1.886 . S
C619 N12 1.708 . S
C630 C16 1.845 . S
C632 C414 1.900 . S
C643 C454 2.559 . S
C641 C30 2.546 1_565 S
C654 C482 1.571 . S
C652 N35 1.513 . S
C663 C39 2.132 . S
C665 C525 2.082 . S
C676 C571 1.176 . S
C674 N25 1.145 . S
C687 C286 1.350 . S
C685 N58 1.288 . S
C696 N81 2.151 . S
C698 C335 2.065 . S
C709 C365 1.487 . S
C707 N104 1.493 . S
C718 N127 1.512 . S
C720 C402 1.402 . S
C731 C442 1.151 1_554 S
C729 N48 1.286 . S
C742 C486 1.515 . S
C740 N71 1.449 1_556 S
C751 N94 1.738 . S
C753 C535 1.659 . S
C764 C565 1.830 . S
C762 N117 1.862 . S
C773 C85 2.684 . S
C775 C294 2.507 . S
C784 C122 2.620 . S
C786 C446 2.574 . S
C795 C53 2.310 . S
C797 C494 2.165 . S
C808 C531 1.503 1_554 S
C806 C76 1.588 . S
C819 C575 2.127 . S
C817 C99 2.111 . S
C830 C375 2.067 . S
C828 C131 2.092 . S
C841 C406 2.122 . S
C839 C62 2.155 . S
C850 C108 1.369 . S
C852 C331 1.311 . S
C863 C562 1.368 . S
C861 N140 1.348 . S
C872 C145 2.433 . S
C874 C445 2.405 . S
C885 C491 1.716 . S
C883 N150 1.544 . S
C894 C154 1.850 . S
C896 C534 1.905 . S
C907 C334 2.566 . S
C905 C168 2.554 . S
C916 N173 1.354 . S
C918 C362 1.415 . S
C929 C405 2.087 . S
C927 C177 2.137 . S
C940 C291 1.229 . S
C938 N163 1.163 . S
C951 C566 1.781 . S
C949 C200 1.744 . S
C962 C455 2.328 . S
C960 N219 2.410 . S
C971 N242 1.758 . S
C973 C485 1.752 . S
C984 C522 1.594 . S
C982 C269 1.748 . S
C995 C322 1.398 . S
C993 C191 1.516 . S
C1004 N209 1.686 . S
C1006 C366 1.782 . S
C1015 N232 2.010 . S
C1017 C415 1.933 . S
C1026 C260 2.461 . S
C1028 C285 2.363 . S
C1037 C223 2.392 . S
C1039 C574 2.216 . S
C1048 N255 2.203 . S
C1050 C326 2.160 . S
C1059 N186 1.899 . S
C1061 C374 1.756 . S
C1072 C411 1.253 . S
C1070 C214 1.328 . S
C1083 C295 1.831 . S
C1081 C237 1.810 . S
C1094 C495 1.738 . S
C1092 N265 1.607 . S
C1105 C526 1.741 . S
C1103 N196 1.760 . S
C1116 C451 1.067 . S
C1114 C246 1.121 . S
