# Generated by pormake.
# Topology hwx, (6,3)-cn, num edge types: 1
# Building blocks:
#     Node 0, Type 0, BuildingBlock: IZENUY_clean_sbu_0, # of connection points: 6
#     Node 1, Type 0, BuildingBlock: IZENUY_clean_sbu_0, # of connection points: 6
#     Node 2, Type 0, BuildingBlock: IZENUY_clean_sbu_0, # of connection points: 6
#     Node 3, Type 0, BuildingBlock: IZENUY_clean_sbu_0, # of connection points: 6
#     Node 4, Type 1, BuildingBlock: WUSLED_clean_sbu_0, # of connection points: 3
#     Node 5, Type 1, BuildingBlock: WUSLED_clean_sbu_0, # of connection points: 3
#     Node 6, Type 1, BuildingBlock: WUSLED_clean_sbu_0, # of connection points: 3
#     Node 7, Type 1, BuildingBlock: WUSLED_clean_sbu_0, # of connection points: 3
#     Node 8, Type 1, BuildingBlock: WUSLED_clean_sbu_0, # of connection points: 3
#     Node 9, Type 1, BuildingBlock: WUSLED_clean_sbu_0, # of connection points: 3
#     Node 10, Type 1, BuildingBlock: WUSLED_clean_sbu_0, # of connection points: 3
#     Node 11, Type 1, BuildingBlock: WUSLED_clean_sbu_0, # of connection points: 3
#     Edge 12, Type (0, 1), BuildingBlock: ZUJKAS_clean_linker_0, # of connection points: 2
#     Edge 13, Type (0, 1), BuildingBlock: ZUJKAS_clean_linker_0, # of connection points: 2
#     Edge 14, Type (0, 1), BuildingBlock: ZUJKAS_clean_linker_0, # of connection points: 2
#     Edge 15, Type (0, 1), BuildingBlock: ZUJKAS_clean_linker_0, # of connection points: 2
#     Edge 16, Type (0, 1), BuildingBlock: ZUJKAS_clean_linker_0, # of connection points: 2
#     Edge 17, Type (0, 1), BuildingBlock: ZUJKAS_clean_linker_0, # of connection points: 2
#     Edge 18, Type (0, 1), BuildingBlock: ZUJKAS_clean_linker_0, # of connection points: 2
#     Edge 19, Type (0, 1), BuildingBlock: ZUJKAS_clean_linker_0, # of connection points: 2
#     Edge 20, Type (0, 1), BuildingBlock: ZUJKAS_clean_linker_0, # of connection points: 2
#     Edge 21, Type (0, 1), BuildingBlock: ZUJKAS_clean_linker_0, # of connection points: 2
#     Edge 22, Type (0, 1), BuildingBlock: ZUJKAS_clean_linker_0, # of connection points: 2
#     Edge 23, Type (0, 1), BuildingBlock: ZUJKAS_clean_linker_0, # of connection points: 2
#     Edge 24, Type (0, 1), BuildingBlock: ZUJKAS_clean_linker_0, # of connection points: 2
#     Edge 25, Type (0, 1), BuildingBlock: ZUJKAS_clean_linker_0, # of connection points: 2
#     Edge 26, Type (0, 1), BuildingBlock: ZUJKAS_clean_linker_0, # of connection points: 2
#     Edge 27, Type (0, 1), BuildingBlock: ZUJKAS_clean_linker_0, # of connection points: 2
#     Edge 28, Type (0, 1), BuildingBlock: ZUJKAS_clean_linker_0, # of connection points: 2
#     Edge 29, Type (0, 1), BuildingBlock: ZUJKAS_clean_linker_0, # of connection points: 2
#     Edge 30, Type (0, 1), BuildingBlock: ZUJKAS_clean_linker_0, # of connection points: 2
#     Edge 31, Type (0, 1), BuildingBlock: ZUJKAS_clean_linker_0, # of connection points: 2
#     Edge 32, Type (0, 1), BuildingBlock: ZUJKAS_clean_linker_0, # of connection points: 2
#     Edge 33, Type (0, 1), BuildingBlock: ZUJKAS_clean_linker_0, # of connection points: 2
#     Edge 34, Type (0, 1), BuildingBlock: ZUJKAS_clean_linker_0, # of connection points: 2
#     Edge 35, Type (0, 1), BuildingBlock: ZUJKAS_clean_linker_0, # of connection points: 2
# Relax obj value: 0.049
# Max RMSD: 0.074
# Mean RMSD: 0.065
data_MOF--net-hwx--node1-IZENUY_clean_sbu_0--node2-WUSLED_clean_sbu_0--edge1-ZUJKAS_clean_linker_0
_symmetry_space_group_name_H-M    P1
_symmetry_Int_Tables_number       1
_symmetry_cell_setting            triclinic
loop_
_symmetry_equiv_pos_as_xyz
'x, y, z'
_cell_length_a     74.655963
_cell_length_b     73.345819
_cell_length_c     35.486536
_cell_angle_alpha  90.387016
_cell_angle_beta   90.477727
_cell_angle_gamma 90.046992
loop_
_atom_site_label
_atom_site_type_symbol
_atom_site_fract_x
_atom_site_fract_y
_atom_site_fract_z
_atom_type_partial_charge
Fe0 Fe 0.24666 0.22663 0.06246 0.0
Fe1 Fe 0.24647 0.22686 0.97582 0.0
O2 O 0.24233 0.21548 0.01881 0.0
Fe3 Fe 0.23391 0.19285 0.01813 0.0
O4 O 0.22114 0.19523 0.06179 0.0
O5 O 0.22339 0.22421 0.07697 0.0
O6 O 0.2408 0.24954 0.04542 0.0
C7 C 0.23187 0.2548 1.01694 0.0
C8 C 0.25867 0.19053 0.07507 0.0
O9 O 0.23092 0.24502 0.98757 0.0
C10 C 0.25846 0.19273 0.9576 0.0
O11 O 0.27026 0.22979 0.05115 0.0
O12 O 0.26561 0.24014 0.99389 0.0
O13 O 0.25346 0.18442 0.0435 0.0
O14 O 0.25327 0.20577 0.08739 0.0
C15 C 0.21395 0.20779 0.96124 0.0
O16 O 0.26237 0.20943 0.96089 0.0
O17 O 0.24503 0.18621 0.97435 0.0
C18 C 0.27576 0.23795 0.02224 0.0
O19 O 0.22793 0.21583 0.94999 0.0
O20 O 0.21383 0.19973 0.9926 0.0
C21 C 0.21531 0.20911 0.07913 0.0
Fe22 Fe 0.27751 0.72656 0.56308 0.0
Fe23 Fe 0.29063 0.69296 0.51952 0.0
O24 O 0.28199 0.71548 0.51955 0.0
Fe25 Fe 0.278 0.72681 0.47619 0.0
O26 O 0.28389 0.74958 0.49428 0.0
O27 O 0.29298 0.745 0.55273 0.0
O28 O 0.29595 0.71549 0.589 0.0
C29 C 0.31016 0.708 0.5773 0.0
C30 C 0.24846 0.73787 0.51622 0.0
O31 O 0.31057 0.70021 0.54548 0.0
C32 C 0.26641 0.69036 0.46148 0.0
O33 O 0.26168 0.70892 0.57665 0.0
O34 O 0.27936 0.68598 0.56297 0.0
O35 O 0.25435 0.73023 0.48679 0.0
O36 O 0.25832 0.73964 0.54524 0.0
C37 C 0.3095 0.70935 0.4596 0.0
O38 O 0.27129 0.68437 0.4933 0.0
O39 O 0.27141 0.70596 0.45042 0.0
C40 C 0.26577 0.69229 0.57968 0.0
O41 O 0.30359 0.69544 0.47626 0.0
O42 O 0.30135 0.72439 0.46208 0.0
C43 C 0.29262 0.75455 0.5233 0.0
Fe44 Fe 0.7806 0.82219 0.97919 0.0
Fe45 Fe 0.78078 0.82238 0.06561 0.0
O46 O 0.785 0.83359 0.02251 0.0
Fe47 Fe 0.79348 0.85622 0.02268 0.0
O48 O 0.78184 0.86298 0.97923 0.0
O49 O 0.76457 0.83958 0.96499 0.0
O50 O 0.76157 0.80889 0.99659 0.0
C51 C 0.75142 0.81136 0.02453 0.0
C52 C 0.81287 0.84148 0.96476 0.0
O53 O 0.75711 0.81948 0.05377 0.0
C54 C 0.81231 0.83966 0.0835 0.0
O55 O 0.79628 0.80401 0.99047 0.0
O56 O 0.78632 0.7995 0.04776 0.0
O57 O 0.81333 0.8494 0.99652 0.0
O58 O 0.79882 0.83331 0.95362 0.0
C59 C 0.7693 0.85863 0.08027 0.0
O60 O 0.80414 0.8246 0.08062 0.0
O61 O 0.80668 0.85359 0.06616 0.0
C62 C 0.79517 0.79417 0.01944 0.0
O63 O 0.77446 0.84311 0.09133 0.0
O64 O 0.77424 0.86475 0.0488 0.0
C65 C 0.76831 0.85631 0.96239 0.0
Fe66 Fe 0.732 0.35594 0.52116 0.0
Fe67 Fe 0.74446 0.32212 0.56504 0.0
O68 O 0.74034 0.33328 0.52166 0.0
Fe69 Fe 0.74461 0.32187 0.47832 0.0
O70 O 0.76107 0.33899 0.46526 0.0
O71 O 0.74364 0.36238 0.47769 0.0
O72 O 0.75127 0.36451 0.54747 0.0
C73 C 0.75669 0.35833 0.57872 0.0
C74 C 0.7125 0.3413 0.46305 0.0
O75 O 0.75179 0.34279 0.59018 0.0
C76 C 0.72895 0.29455 0.5184 0.0
O77 O 0.71896 0.35383 0.56439 0.0
O78 O 0.72131 0.32504 0.58018 0.0
O79 O 0.72665 0.33349 0.45186 0.0
O80 O 0.71203 0.34887 0.49507 0.0
C81 C 0.77334 0.31001 0.52464 0.0
O82 O 0.73784 0.29948 0.5473 0.0
O83 O 0.72863 0.30401 0.4888 0.0
C84 C 0.71328 0.34017 0.58227 0.0
O85 O 0.76797 0.31837 0.5536 0.0
O86 O 0.76319 0.30796 0.49627 0.0
C87 C 0.75748 0.35573 0.46245 0.0
C88 C 0.17142 0.55328 0.91348 0.0
C89 C 0.17349 0.57173 0.92382 0.0
C90 C 0.18177 0.57931 0.85919 0.0
C91 C 0.17851 0.58471 0.89671 0.0
C92 C 0.17875 0.56103 0.84889 0.0
C93 C 0.1736 0.54822 0.87566 0.0
U94 U 0.16725 0.53262 1.01433 0.0
O95 O 0.151 0.50904 0.03253 0.0
O96 O 0.18036 0.50782 0.03544 0.0
C97 C 0.16518 0.49919 0.04085 0.0
C98 C 0.16873 0.53855 0.94123 0.0
C99 C 0.16485 0.47942 0.03183 0.0
C100 C 0.17172 0.45317 0.99168 0.0
C101 C 0.16971 0.47217 0.99654 0.0
C102 C 0.16326 0.4486 0.05659 0.0
C103 C 0.16912 0.4412 0.02216 0.0
C104 C 0.1612 0.4674 0.06131 0.0
C105 C 0.17071 0.56788 0.09964 0.0
C106 C 0.17983 0.56543 0.16568 0.0
C107 C 0.173 0.59497 0.13925 0.0
C108 C 0.16882 0.58673 0.10473 0.0
C109 C 0.17923 0.58457 0.16978 0.0
C110 C 0.17572 0.55712 0.13068 0.0
C111 C 0.1695 0.56079 0.06054 0.0
O112 O 0.18274 0.53443 0.96208 0.0
O113 O 0.15364 0.53835 0.96008 0.0
O114 O 0.15414 0.55416 0.04831 0.0
O115 O 0.1835 0.55206 0.04739 0.0
H116 H 0.17187 0.57595 0.9529 0.0
H117 H 0.18072 0.59872 0.90543 0.0
H118 H 0.18092 0.55651 0.82016 0.0
H119 H 0.17201 0.53412 0.867 0.0
H120 H 0.17618 0.44797 0.96472 0.0
H121 H 0.17257 0.48118 0.97329 0.0
H122 H 0.16072 0.43985 0.08042 0.0
H123 H 0.15741 0.47263 0.08873 0.0
H124 H 0.18448 0.55702 0.18874 0.0
H125 H 0.17203 0.60967 0.14158 0.0
H126 H 0.16495 0.59529 0.08126 0.0
H127 H 0.17721 0.54251 0.12745 0.0
C128 C 0.97509 0.87043 0.62754 0.0
C129 C 0.95725 0.87193 0.61495 0.0
C130 C 0.94666 0.87155 0.68004 0.0
C131 C 0.94316 0.87247 0.64098 0.0
C132 C 0.96462 0.8708 0.69232 0.0
C133 C 0.97863 0.87021 0.66637 0.0
U134 U 0.99523 0.86651 0.5278 0.0
O135 O 0.02236 0.87356 0.5079 0.0
O136 O 0.01286 0.84523 0.50473 0.0
C137 C 0.0261 0.85659 0.49859 0.0
C138 C 0.99007 0.86744 0.60113 0.0
C139 C 0.04448 0.84963 0.50543 0.0
C140 C 0.07094 0.84361 0.54444 0.0
C141 C 0.05354 0.85092 0.54027 0.0
C142 C 0.07014 0.83363 0.47937 0.0
C143 C 0.07954 0.83484 0.51388 0.0
C144 C 0.05301 0.841 0.47524 0.0
C145 C 0.96135 0.87433 0.44377 0.0
C146 C 0.96272 0.865 0.37773 0.0
C147 C 0.93642 0.88049 0.40121 0.0
C148 C 0.94433 0.88168 0.43694 0.0
C149 C 0.94533 0.87187 0.37122 0.0
C150 C 0.9707 0.86624 0.41377 0.0
C151 C 0.96779 0.87381 0.48326 0.0
O152 O 0.98902 0.85249 0.58064 0.0
O153 O 0.99562 0.88161 0.58194 0.0
O154 O 0.97939 0.88626 0.49446 0.0
O155 O 0.97102 0.85761 0.49725 0.0
H156 H 0.9542 0.87217 0.58505 0.0
H157 H 0.92951 0.87331 0.63053 0.0
H158 H 0.96787 0.86985 0.72204 0.0
H159 H 0.99227 0.86897 0.6767 0.0
H160 H 0.07766 0.84496 0.57146 0.0
H161 H 0.0472 0.85749 0.56411 0.0
H162 H 0.07579 0.8266 0.45536 0.0
H163 H 0.04627 0.83973 0.44817 0.0
H164 H 0.97 0.8584 0.35516 0.0
H165 H 0.92292 0.88563 0.39757 0.0
H166 H 0.93679 0.88778 0.45974 0.0
H167 H 0.98387 0.86045 0.41845 0.0
C168 C 0.84491 0.49593 0.12748 0.0
C169 C 0.83882 0.47873 0.11525 0.0
C170 C 0.83801 0.46807 0.18038 0.0
C171 C 0.83536 0.46493 0.14148 0.0
C172 C 0.84472 0.48513 0.19216 0.0
C173 C 0.84809 0.49888 0.16601 0.0
U174 U 0.84775 0.51602 0.02766 0.0
O175 O 0.83547 0.54088 1.00471 0.0
O176 O 0.86476 0.53826 1.00625 0.0
C177 C 0.85097 0.54866 0.99795 0.0
C178 C 0.84713 0.51127 0.10109 0.0
C179 C 0.85239 0.56832 1.0069 0.0
C180 C 0.85113 0.59431 0.05005 0.0
C181 C 0.85134 0.57533 0.04377 0.0
C182 C 0.85337 0.59928 0.98291 0.0
C183 C 0.85186 0.60658 0.01955 0.0
C184 C 0.85369 0.58046 0.97678 0.0
C185 C 0.84301 0.48017 0.94502 0.0
C186 C 0.83956 0.48411 0.87717 0.0
C187 C 0.83972 0.4538 0.90379 0.0
C188 C 0.84207 0.46128 0.93971 0.0
C189 C 0.83831 0.46504 0.87192 0.0
C190 C 0.84189 0.49163 0.91351 0.0
C191 C 0.84426 0.48701 0.98415 0.0
O192 O 0.862 0.51149 0.08153 0.0
O193 O 0.83291 0.5155 0.08092 0.0
O194 O 0.83061 0.49647 0.99681 0.0
O195 O 0.85986 0.49325 0.99593 0.0
H196 H 0.83637 0.47611 0.08556 0.0
H197 H 0.8304 0.45189 0.13137 0.0
H198 H 0.84669 0.48815 0.22182 0.0
H199 H 0.85276 0.51205 0.17605 0.0
H200 H 0.85018 0.59935 0.07871 0.0
H201 H 0.85034 0.56618 0.06749 0.0
H202 H 0.85357 0.60806 0.95853 0.0
H203 H 0.8544 0.57535 0.9481 0.0
H204 H 0.83861 0.49318 0.8533 0.0
H205 H 0.83836 0.43915 0.90129 0.0
H206 H 0.84275 0.45221 0.96367 0.0
H207 H 0.84257 0.5063 0.91705 0.0
C208 C 0.05068 0.19384 0.41272 0.0
C209 C 0.06852 0.19313 0.42572 0.0
C210 C 0.07911 0.19064 0.36108 0.0
C211 C 0.08266 0.1916 0.4 0.0
C212 C 0.06128 0.19089 0.3483 0.0
C213 C 0.0472 0.19248 0.3739 0.0
U214 U 0.03095 0.19713 0.51222 0.0
O215 O 0.01153 0.21658 0.5358 0.0
O216 O 1.00498 0.18741 0.53369 0.0
C217 C 0.99946 0.20394 0.54219 0.0
C218 C 0.03557 0.19664 0.43878 0.0
C219 C 0.98069 0.20858 0.53263 0.0
C220 C 0.95745 0.2189 0.48898 0.0
C221 C 0.97508 0.21285 0.49579 0.0
C222 C 0.95085 0.21587 0.55533 0.0
C223 C 0.94533 0.22072 0.51891 0.0
C224 C 0.96833 0.20984 0.56209 0.0
C225 C 0.06628 0.18954 0.59383 0.0
C226 C 0.06521 0.19584 0.66132 0.0
C227 C 0.09206 0.1831 0.63377 0.0
C228 C 0.08376 0.18293 0.59842 0.0
C229 C 0.08301 0.1898 0.66537 0.0
C230 C 0.05686 0.19574 0.6256 0.0
C231 C 0.0592 0.1909 0.55502 0.0
O232 O 0.03046 0.1823 0.45794 0.0
O233 O 0.0362 0.21161 0.45932 0.0
O234 O 0.05462 0.20721 0.54325 0.0
O235 O 0.04842 0.17792 0.54291 0.0
H236 H 0.0715 0.19412 0.45559 0.0
H237 H 0.09635 0.19153 0.41038 0.0
H238 H 0.05829 0.19031 0.31839 0.0
H239 H 0.03356 0.19302 0.3633 0.0
H240 H 0.95347 0.2227 0.46068 0.0
H241 H 0.98441 0.21199 0.47264 0.0
H242 H 0.94176 0.21731 0.57882 0.0
H243 H 0.97237 0.20666 0.5907 0.0
H244 H 0.05806 0.20118 0.68542 0.0
H245 H 0.10581 0.17852 0.63627 0.0
H246 H 0.09127 0.17816 0.57427 0.0
H247 H 0.04335 0.20095 0.6226 0.0
C248 C 0.67043 0.98518 0.61801 0.0
C249 C 0.67144 0.9662 0.61418 0.0
C250 C 0.68039 0.96368 0.67986 0.0
C251 C 0.67633 0.95547 0.64498 0.0
C252 C 0.67848 0.98262 0.68417 0.0
C253 C 0.67347 0.99334 0.65338 0.0
U254 U 0.66605 1.01628 0.52393 0.0
O255 O 0.64948 0.0412 0.53003 0.0
O256 O 0.67903 0.04284 0.53174 0.0
C257 C 0.66375 0.05152 0.53492 0.0
C258 C 0.66885 0.99639 0.58414 0.0
C259 C 0.66332 0.07093 0.52515 0.0
C260 C 0.66274 0.1018 0.54992 0.0
C261 C 0.66018 0.08318 0.55472 0.0
C262 C 0.67072 0.09646 0.48475 0.0
C263 C 0.66832 0.10873 0.51512 0.0
C264 C 0.66835 0.07761 0.48979 0.0
C265 C 0.6706 0.98797 0.42731 0.0
C266 C 0.67185 0.98061 0.3605 0.0
C267 C 0.68352 0.95919 0.40608 0.0
C268 C 0.67857 0.97108 0.43557 0.0
C269 C 0.68082 0.96418 0.36808 0.0
C270 C 0.66684 0.9923 0.38971 0.0
C271 C 0.66816 1.00269 0.45544 0.0
O272 O 0.68295 1.00314 0.56732 0.0
O273 O 0.65327 0.99969 0.56801 0.0
O274 O 0.65287 1.00425 0.47334 0.0
O275 O 0.68218 1.00794 0.47532 0.0
H276 H 0.66935 0.95979 0.5869 0.0
H277 H 0.67792 0.94091 0.64103 0.0
H278 H 0.68152 0.98914 0.71096 0.0
H279 H 0.67279 1.00801 0.65678 0.0
H280 H 0.66115 0.11066 0.5742 0.0
H281 H 0.65663 0.07822 0.58239 0.0
H282 H 0.67482 0.10137 0.45743 0.0
H283 H 0.67097 0.06831 0.46666 0.0
H284 H 0.66915 0.98475 0.33177 0.0
H285 H 0.69033 0.9466 0.41299 0.0
H286 H 0.6816 0.96744 0.46445 0.0
H287 H 0.66074 1.00526 0.3827 0.0
C288 C 0.54852 0.37133 0.91493 0.0
C289 C 0.566 0.37697 0.92479 0.0
C290 C 0.57596 0.37151 0.86009 0.0
C291 C 0.57961 0.37719 0.89741 0.0
C292 C 0.55835 0.36653 0.85037 0.0
C293 C 0.54483 0.36652 0.87737 0.0
U294 U 0.5278 0.36787 1.01583 0.0
O295 O 0.50034 0.37517 0.03369 0.0
O296 O 0.50938 0.34672 0.03608 0.0
C297 C 0.4962 0.35822 0.04186 0.0
C298 C 0.53399 0.36897 0.94278 0.0
C299 C 0.47781 0.35149 0.03372 0.0
C300 C 0.45283 0.34317 0.99199 0.0
C301 C 0.46991 0.35112 0.99753 0.0
C302 C 0.45149 0.33625 0.05848 0.0
C303 C 0.44366 0.33528 0.02245 0.0
C304 C 0.46826 0.34428 0.06401 0.0
C305 C 0.56311 0.3747 0.1004 0.0
C306 C 0.56299 0.3735 0.16924 0.0
C307 C 0.59107 0.37456 0.13593 0.0
C308 C 0.5818 0.37526 0.10175 0.0
C309 C 0.58198 0.37375 0.17057 0.0
C310 C 0.55363 0.37383 0.13442 0.0
C311 C 0.55478 0.37418 0.06235 0.0
O312 O 0.53461 0.35397 0.96273 0.0
O313 O 0.52893 0.38329 0.9625 0.0
O314 O 0.54329 0.38689 0.05237 0.0
O315 O 0.55132 0.35811 0.04749 0.0
H316 H 0.5692 0.38071 0.95365 0.0
H317 H 0.5931 0.38104 0.90571 0.0
H318 H 0.5551 0.36223 0.82185 0.0
H319 H 0.53149 0.36217 0.86906 0.0
H320 H 0.44709 0.34259 0.96387 0.0
H321 H 0.47703 0.35659 0.97365 0.0
H322 H 0.44469 0.33049 0.0825 0.0
H323 H 0.47401 0.34447 0.09215 0.0
H324 H 0.55528 0.37302 0.1949 0.0
H325 H 0.60551 0.37406 0.13454 0.0
H326 H 0.58942 0.37579 0.0759 0.0
H327 H 0.53913 0.37329 0.13411 0.0
C328 C 0.34422 0.05132 0.41503 0.0
C329 C 0.33711 0.068 0.42761 0.0
C330 C 0.33714 0.07965 0.36334 0.0
C331 C 0.3335 0.08201 0.40192 0.0
C332 C 0.34496 0.0632 0.35123 0.0
C333 C 0.34838 0.04916 0.37681 0.0
U334 U 0.34714 0.03124 0.51423 0.0
O335 O 0.33493 1.00654 0.53756 0.0
O336 O 0.36421 1.00919 0.53672 0.0
C337 C 0.35043 0.99875 0.54463 0.0
C338 C 0.34653 0.03575 0.4408 0.0
C339 C 0.35176 0.97921 0.53481 0.0
C340 C 0.348 0.95376 0.4909 0.0
C341 C 0.34901 0.97263 0.49789 0.0
C342 C 0.35321 0.94798 0.55721 0.0
C343 C 0.34971 0.94135 0.52074 0.0
C344 C 0.35426 0.96673 0.56414 0.0
C345 C 0.34225 0.06679 0.59638 0.0
C346 C 0.33458 0.06252 0.66232 0.0
C347 C 0.3414 0.09271 0.63922 0.0
C348 C 0.34439 0.08547 0.60339 0.0
C349 C 0.33617 0.08143 0.66906 0.0
C350 C 0.33763 0.05523 0.62619 0.0
C351 C 0.34355 0.06039 0.55704 0.0
O352 O 0.36142 0.03556 0.46084 0.0
O353 O 0.33234 0.03133 0.46042 0.0
O354 O 0.32994 0.0509 0.54372 0.0
O355 O 0.35917 0.05426 0.54582 0.0
H356 H 0.33393 0.07001 0.45708 0.0
H357 H 0.32761 0.09459 0.41209 0.0
H358 H 0.34773 0.0609 0.32166 0.0
H359 H 0.35385 0.03641 0.36655 0.0
H360 H 0.34513 0.94888 0.4626 0.0
H361 H 0.347 0.98206 0.47486 0.0
H362 H 0.35439 0.93864 0.58064 0.0
H363 H 0.35632 0.97151 0.59281 0.0
H364 H 0.3307 0.05344 0.68477 0.0
H365 H 0.34241 0.10734 0.64306 0.0
H366 H 0.3478 0.09462 0.5807 0.0
H367 H 0.33592 0.04073 0.62132 0.0
C368 C 0.47363 0.69326 0.12483 0.0
C369 C 0.45576 0.69443 0.11216 0.0
C370 C 0.44508 0.68992 0.17623 0.0
C371 C 0.44159 0.69292 0.13776 0.0
C372 C 0.46292 0.68818 0.18853 0.0
C373 C 0.47705 0.68995 0.1631 0.0
U374 U 0.49338 0.69803 0.02573 0.0
O375 O 0.51299 0.71763 1.00405 0.0
O376 O 0.51914 0.68836 1.00279 0.0
C377 C 0.52483 0.70497 0.99591 0.0
C378 C 0.48884 0.69619 0.0991 0.0
C379 C 0.54374 0.70923 1.00502 0.0
C380 C 0.56706 0.72128 0.04675 0.0
C381 C 0.54936 0.71523 0.04089 0.0
C382 C 0.57378 0.71467 0.98146 0.0
C383 C 0.5794 0.72142 1.01682 0.0
C384 C 0.55619 0.70867 0.9757 0.0
C385 C 0.45737 0.69281 0.94411 0.0
C386 C 0.45953 0.69253 0.87554 0.0
C387 C 0.43051 0.69109 0.90533 0.0
C388 C 0.43874 0.69177 0.94066 0.0
C389 C 0.4407 0.69124 0.87215 0.0
C390 C 0.46783 0.69328 0.91136 0.0
C391 C 0.4649 0.69328 0.98267 0.0
O392 O 0.49359 0.68213 0.07832 0.0
O393 O 0.48861 0.71156 0.08026 0.0
O394 O 0.46978 0.70923 0.9963 0.0
O395 O 0.47552 0.67988 0.99287 0.0
H396 H 0.4528 0.69688 0.08269 0.0
H397 H 0.42793 0.69428 0.12763 0.0
H398 H 0.46594 0.68607 0.2181 0.0
H399 H 0.49071 0.68907 0.17349 0.0
H400 H 0.571 0.72614 0.07449 0.0
H401 H 0.53998 0.71572 0.064 0.0
H402 H 0.58275 0.71477 0.95764 0.0
H403 H 0.55212 0.70418 0.94776 0.0
H404 H 0.46782 0.69271 0.85065 0.0
H405 H 0.41602 0.69069 0.90417 0.0
H406 H 0.43043 0.69154 0.96555 0.0
H407 H 0.48229 0.69415 0.91347 0.0
H408 H 0.19975 0.17721 0.10082 0.0
H409 H 0.17578 0.17283 0.14612 0.0
H410 H 0.17235 0.23096 0.16314 0.0
H411 H 0.19652 0.23556 0.11764 0.0
H412 H 0.17666 0.18419 0.22305 0.0
H413 H 0.11952 0.21427 0.14409 0.0
H414 H 0.1399 0.2069 0.12151 0.0
H415 H 0.1393 0.22827 0.14645 0.0
C416 C 0.19385 0.18914 0.11388 0.0
C417 C 0.20014 0.20677 0.10556 0.0
C418 C 0.18013 0.18657 0.13985 0.0
C419 C 0.17218 0.20154 0.1578 0.0
C420 C 0.17816 0.21921 0.14924 0.0
H421 H 0.09564 0.22038 0.33331 0.0
H422 H 0.11827 0.22159 0.28361 0.0
C423 C 0.19204 0.22181 0.1234 0.0
C424 C 0.15828 0.19856 0.18688 0.0
H425 H 0.11466 0.20752 0.20862 0.0
C426 C 0.16306 0.18918 0.21985 0.0
C427 C 0.14051 0.20487 0.18239 0.0
C428 C 0.13437 0.214 0.14659 0.0
C429 C 0.15075 0.18661 0.24912 0.0
C430 C 0.13312 0.19346 0.24518 0.0
C431 C 0.12822 0.20241 0.21176 0.0
C432 C 0.11983 0.19234 0.27612 0.0
C433 C 0.15684 0.17709 0.28452 0.0
C434 C 0.11321 0.17547 0.28853 0.0
C435 C 0.10026 0.17479 0.31695 0.0
C436 C 0.09383 0.19096 0.3334 0.0
C437 C 0.10057 0.20776 0.32124 0.0
C438 C 0.1134 0.20844 0.29278 0.0
H439 H 0.17166 0.1758 0.28606 0.0
H440 H 0.15216 0.18454 0.30993 0.0
H441 H 0.151 0.16318 0.28504 0.0
H442 H 0.11779 0.16288 0.27575 0.0
H443 H 0.09506 0.1617 0.32567 0.0
H444 H 0.27683 0.6597 0.60858 0.0
H445 H 0.26174 0.64073 0.65496 0.0
H446 H 0.21805 0.67905 0.65919 0.0
H447 H 0.23313 0.69826 0.6128 0.0
H448 H 0.25118 0.65173 0.72957 0.0
H449 H 0.19381 0.62812 0.64137 0.0
H450 H 0.21425 0.63698 0.62169 0.0
H451 H 0.19788 0.6523 0.64078 0.0
C452 C 0.26393 0.66407 0.61907 0.0
C453 C 0.25615 0.68052 0.60682 0.0
C454 C 0.25535 0.6532 0.6457 0.0
C455 C 0.23869 0.65837 0.66026 0.0
C456 C 0.2308 0.67468 0.64794 0.0
H457 H 0.17031 0.61347 0.83711 0.0
H458 H 0.18378 0.6331 0.78869 0.0
C459 C 0.23947 0.68569 0.62157 0.0
C460 C 0.22991 0.64702 0.68939 0.0
H461 H 0.19272 0.62119 0.70661 0.0
C462 C 0.2384 0.64507 0.72457 0.0
C463 C 0.21334 0.63814 0.68264 0.0
C464 C 0.2043 0.63879 0.6445 0.0
C465 C 0.23058 0.6348 0.75345 0.0
C466 C 0.21384 0.62623 0.74701 0.0
C467 C 0.2054 0.62805 0.71172 0.0
C468 C 0.20545 0.61453 0.77607 0.0
C469 C 0.24021 0.63324 0.79081 0.0
C470 C 0.21312 0.59762 0.78483 0.0
C471 C 0.20543 0.58645 0.81204 0.0
C472 C 0.18993 0.59191 0.83134 0.0
C473 C 0.18231 0.60896 0.82287 0.0
C474 C 0.18993 0.6201 0.79513 0.0
H475 H 0.25131 0.64327 0.79366 0.0
H476 H 0.23073 0.6353 0.81442 0.0
H477 H 0.24595 0.61935 0.79341 0.0
H478 H 0.22504 0.59302 0.77041 0.0
H479 H 0.21168 0.57346 0.81814 0.0
H480 H 0.83374 0.81321 0.11536 0.0
H481 H 0.85823 0.81769 0.16139 0.0
H482 H 0.8491 0.87569 0.15969 0.0
H483 H 0.82492 0.87144 0.11386 0.0
H484 H 0.89063 0.84219 0.15427 0.0
H485 H 0.84604 0.86023 0.27339 0.0
H486 H 0.83813 0.84803 0.2321 0.0
H487 H 0.84177 0.87221 0.2302 0.0
C488 C 0.83697 0.8269 0.12483 0.0
C489 C 0.82734 0.84194 0.11091 0.0
C490 C 0.85099 0.82944 0.15101 0.0
C491 C 0.85538 0.84702 0.16416 0.0
C492 C 0.84586 0.86201 0.15015 0.0
H493 H 0.92457 0.89632 0.33248 0.0
H494 H 0.90435 0.89005 0.27941 0.0
C495 C 0.83206 0.85953 0.12377 0.0
C496 C 0.8698 0.84991 0.19273 0.0
H497 H 0.8771 0.86515 0.2827 0.0
C498 C 0.88772 0.84705 0.18249 0.0
C499 C 0.86596 0.85639 0.22939 0.0
C500 C 0.84694 0.85929 0.2422 0.0
C501 C 0.90192 0.85096 0.20769 0.0
C502 C 0.89807 0.85755 0.24435 0.0
C503 C 0.88011 0.86018 0.2546 0.0
C504 C 0.9123 0.86186 0.27281 0.0
C505 C 0.92092 0.8486 0.19444 0.0
C506 C 0.92394 0.84827 0.28623 0.0
C507 C 0.93558 0.85184 0.31668 0.0
C508 C 0.93567 0.86903 0.33459 0.0
C509 C 0.92468 0.88286 0.31973 0.0
C510 C 0.91311 0.8793 0.28932 0.0
H511 H 0.92168 0.84809 0.16319 0.0
H512 H 0.92958 0.85989 0.20496 0.0
H513 H 0.92635 0.83561 0.20553 0.0
H514 H 0.92339 0.83462 0.27446 0.0
H515 H 0.94371 0.84082 0.32759 0.0
H516 H 0.78248 0.34775 0.62861 0.0
H517 H 0.7987 0.36684 0.67464 0.0
H518 H 0.77056 0.41426 0.63427 0.0
H519 H 0.75456 0.39529 0.58769 0.0
H520 H 0.82061 0.40026 0.66084 0.0
H521 H 0.76138 0.41112 0.75197 0.0
H522 H 0.76272 0.39272 0.71805 0.0
H523 H 0.75781 0.41545 0.70263 0.0
C524 C 0.77987 0.36227 0.62942 0.0
C525 C 0.76731 0.37007 0.60456 0.0
C526 C 0.78914 0.37314 0.65565 0.0
C527 C 0.78572 0.39192 0.65802 0.0
C528 C 0.77333 0.39977 0.63296 0.0
H529 H 0.81574 0.47755 0.81604 0.0
H530 H 0.80514 0.4608 0.7603 0.0
C531 C 0.76429 0.38896 0.60624 0.0
C532 C 0.7949 0.4033 0.68703 0.0
H533 H 0.78729 0.42834 0.76671 0.0
C534 C 0.81338 0.40642 0.68404 0.0
C535 C 0.78542 0.41114 0.71739 0.0
C536 C 0.76576 0.40737 0.7231 0.0
C537 C 0.82257 0.41762 0.71013 0.0
C538 C 0.81303 0.42575 0.74022 0.0
C539 C 0.79456 0.42239 0.74333 0.0
C540 C 0.82185 0.43716 0.76989 0.0
C541 C 0.84233 0.42093 0.7048 0.0
C542 C 0.83525 0.42976 0.79313 0.0
C543 C 0.84154 0.43943 0.82468 0.0
C544 C 0.83432 0.45658 0.83428 0.0
C545 C 0.82167 0.46443 0.80963 0.0
C546 C 0.81548 0.45479 0.77785 0.0
H547 H 0.84651 0.41794 0.67542 0.0
H548 H 0.84593 0.43524 0.71186 0.0
H549 H 0.85003 0.41181 0.72376 0.0
H550 H 0.84022 0.41611 0.78805 0.0
H551 H 0.85156 0.43308 0.84249 0.0
H552 H 0.67674 0.34501 0.47858 0.0
H553 H 0.65202 0.34928 0.43336 0.0
H554 H 0.68979 0.3489 0.342 0.0
H555 H 0.71426 0.34377 0.38669 0.0
H556 H 0.6447 0.37602 0.38594 0.0
H557 H 0.65446 0.31343 0.30082 0.0
H558 H 0.66574 0.31699 0.34542 0.0
H559 H 0.67444 0.32693 0.303 0.0
C560 C 0.67969 0.34567 0.44878 0.0
C561 C 0.6974 0.34384 0.43614 0.0
C562 C 0.66557 0.34812 0.42295 0.0
C563 C 0.66891 0.34899 0.38403 0.0
C564 C 0.68669 0.34759 0.3716 0.0
H565 H 0.61641 0.38623 0.18596 0.0
H566 H 0.63538 0.3794 0.23964 0.0
C567 C 0.70072 0.34478 0.39726 0.0
C568 C 0.65399 0.35209 0.35646 0.0
H569 H 0.63632 0.33683 0.2727 0.0
C570 C 0.64271 0.36727 0.36151 0.0
C571 C 0.65124 0.34065 0.32453 0.0
C572 C 0.662 0.32349 0.31832 0.0
C573 C 0.62938 0.37171 0.33479 0.0
C574 C 0.62718 0.3607 0.30229 0.0
C575 C 0.63804 0.34525 0.29771 0.0
C576 C 0.61477 0.36578 0.2711 0.0
C577 C 0.61801 0.38843 0.34073 0.0
C578 C 0.59666 0.36058 0.27102 0.0
C579 C 0.58571 0.36376 0.23924 0.0
C580 C 0.59262 0.37239 0.20693 0.0
C581 C 0.61053 0.37869 0.20881 0.0
C582 C 0.62149 0.37509 0.24001 0.0
H583 H 0.62185 0.39606 0.36673 0.0
H584 H 0.61924 0.39765 0.31619 0.0
H585 H 0.60373 0.38435 0.34269 0.0
H586 H 0.59117 0.35352 0.29502 0.0
H587 H 0.5721 0.35874 0.23965 0.0
H588 H 0.24654 0.16103 0.926 0.0
H589 H 0.26178 0.14137 0.88083 0.0
H590 H 0.30728 0.17761 0.88207 0.0
H591 H 0.29197 0.19763 0.92743 0.0
H592 H 0.27529 0.15291 0.8072 0.0
H593 H 0.32763 0.12453 0.90275 0.0
H594 H 0.30709 0.13439 0.92006 0.0
H595 H 0.3246 0.1489 0.90329 0.0
C596 C 0.25984 0.16483 0.91694 0.0
C597 C 0.26808 0.1809 0.93044 0.0
C598 C 0.2685 0.15357 0.89103 0.0
C599 C 0.2857 0.15794 0.87843 0.0
C600 C 0.29406 0.17391 0.89182 0.0
H601 H 0.35306 0.10914 0.70767 0.0
H602 H 0.34135 0.12679 0.76081 0.0
C603 C 0.28528 0.18537 0.91753 0.0
C604 C 0.29448 0.14596 0.85032 0.0
H605 H 0.32868 0.11553 0.83865 0.0
C606 C 0.28695 0.14473 0.81404 0.0
C607 C 0.30964 0.13527 0.85947 0.0
C608 C 0.31773 0.13565 0.89854 0.0
C609 C 0.29431 0.13321 0.78648 0.0
C610 C 0.30943 0.12245 0.79563 0.0
C611 C 0.31704 0.12374 0.83185 0.0
C612 C 0.31766 0.11019 0.76727 0.0
C613 C 0.28607 0.13283 0.74751 0.0
C614 C 0.30854 0.0946 0.7543 0.0
C615 C 0.31516 0.08448 0.72384 0.0
C616 C 0.33099 0.08986 0.70573 0.0
C617 C 0.34067 0.10481 0.72054 0.0
C618 C 0.33407 0.11487 0.75102 0.0
H619 H 0.27617 0.14396 0.7434 0.0
H620 H 0.29663 0.13405 0.72581 0.0
H621 H 0.27913 0.1196 0.7429 0.0
H622 H 0.29592 0.09069 0.76678 0.0
H623 H 0.30732 0.07311 0.71315 0.0
H624 H 0.32784 0.67804 0.44383 0.0
H625 H 0.35188 0.67351 0.39866 0.0
H626 H 0.3503 0.7306 0.37081 0.0
H627 H 0.32612 0.73536 0.41623 0.0
H628 H 0.34978 0.68012 0.32084 0.0
H629 H 0.40425 0.72024 0.38897 0.0
H630 H 0.38476 0.71252 0.41413 0.0
H631 H 0.38338 0.73229 0.38463 0.0
C632 C 0.33264 0.68974 0.42838 0.0
C633 C 0.32491 0.70709 0.43362 0.0
C634 C 0.34642 0.68707 0.4025 0.0
C635 C 0.35298 0.7017 0.3815 0.0
C636 C 0.3456 0.71914 0.38709 0.0
H637 H 0.42262 0.71784 0.19306 0.0
H638 H 0.40032 0.71926 0.24347 0.0
C639 C 0.33171 0.72183 0.41293 0.0
C640 C 0.36684 0.69848 0.35232 0.0
H641 H 0.40889 0.71103 0.32526 0.0
C642 C 0.36276 0.68677 0.32192 0.0
C643 C 0.38386 0.70693 0.35407 0.0
C644 C 0.38946 0.71856 0.38736 0.0
C645 C 0.37495 0.68392 0.29245 0.0
C646 C 0.39167 0.69298 0.29345 0.0
C647 C 0.39597 0.70427 0.32436 0.0
C648 C 0.4046 0.69156 0.26193 0.0
C649 C 0.36973 0.67165 0.25991 0.0
C650 C 0.41433 0.67546 0.2555 0.0
C651 C 0.42724 0.67472 0.22701 0.0
C652 C 0.43038 0.68996 0.20415 0.0
C653 C 0.42029 0.70586 0.21002 0.0
C654 C 0.40764 0.70671 0.23888 0.0
H655 H 0.35537 0.66768 0.26077 0.0
H656 H 0.37239 0.6785 0.23271 0.0
H657 H 0.37797 0.65907 0.26085 0.0
H658 H 0.41224 0.66364 0.27307 0.0
H659 H 0.4349 0.66233 0.22304 0.0
H660 H 0.78135 0.88467 0.92203 0.0
H661 H 0.76541 0.90331 0.8757 0.0
H662 H 0.71702 0.87282 0.89529 0.0
H663 H 0.73302 0.85379 0.94137 0.0
H664 H 0.7459 0.88814 0.80855 0.0
H665 H 0.70422 0.92955 0.90619 0.0
H666 H 0.72473 0.91853 0.92093 0.0
H667 H 0.70473 0.90531 0.91414 0.0
C668 C 0.76727 0.88202 0.91671 0.0
C669 C 0.75838 0.8678 0.93531 0.0
C670 C 0.75823 0.89265 0.8902 0.0
C671 C 0.74005 0.88951 0.8824 0.0
C672 C 0.73104 0.87549 0.90122 0.0
H673 H 0.66526 0.93587 0.71943 0.0
H674 H 0.67953 0.91767 0.7695 0.0
C675 C 0.74018 0.86461 0.92732 0.0
C676 C 0.73075 0.90044 0.85335 0.0
H677 H 0.69872 0.93311 0.84086 0.0
C678 C 0.73558 0.89796 0.81555 0.0
C679 C 0.71743 0.91332 0.86276 0.0
C680 C 0.71248 0.91703 0.9032 0.0
C681 C 0.72718 0.90788 0.78672 0.0
C682 C 0.71374 0.92064 0.79608 0.0
C683 C 0.70893 0.92316 0.83388 0.0
C684 C 0.70492 0.93184 0.76689 0.0
C685 C 0.73262 0.9046 0.74639 0.0
C686 C 0.71447 0.94586 0.74941 0.0
C687 C 0.7063 0.95634 0.72144 0.0
C688 C 0.68854 0.95283 0.71033 0.0
C689 C 0.67897 0.93877 0.72772 0.0
C690 C 0.68707 0.92845 0.75619 0.0
H691 H 0.7409 0.89211 0.74325 0.0
H692 H 0.7206 0.90334 0.7279 0.0
H693 H 0.74056 0.91641 0.73648 0.0
H694 H 0.72824 0.94867 0.75739 0.0
H695 H 0.71394 0.96702 0.70803 0.0
H696 H 0.81642 0.82521 0.89582 0.0
H697 H 0.8396 0.83024 0.84903 0.0
H698 H 0.86646 0.86769 0.92474 0.0
H699 H 0.84329 0.86262 0.97216 0.0
H700 H 0.84781 0.8635 0.81588 0.0
H701 H 0.90738 0.83459 0.8886 0.0
H702 H 0.88474 0.82955 0.90277 0.0
H703 H 0.89493 0.85089 0.91584 0.0
C704 C 0.82732 0.83441 0.90283 0.0
C705 C 0.82791 0.84356 0.93784 0.0
C706 C 0.84058 0.83726 0.87593 0.0
C707 C 0.85484 0.84925 0.88337 0.0
C708 C 0.85573 0.85815 0.91856 0.0
H709 H 0.94414 0.8882 0.74944 0.0
H710 H 0.92144 0.8833 0.79773 0.0
C711 C 0.84243 0.85529 0.94561 0.0
C712 C 0.86813 0.85313 0.85338 0.0
H713 H 0.91259 0.8505 0.83181 0.0
C714 C 0.86197 0.86062 0.81932 0.0
C715 C 0.88659 0.84934 0.85785 0.0
C716 C 0.89386 0.8405 0.89306 0.0
C717 C 0.87379 0.86471 0.78989 0.0
C718 C 0.89228 0.86097 0.79433 0.0
C719 C 0.89844 0.85346 0.82842 0.0
C720 C 0.90548 0.86465 0.76397 0.0
C721 C 0.86639 0.87336 0.7546 0.0
C722 C 0.90403 0.85593 0.72869 0.0
C723 C 0.917 0.85874 0.70094 0.0
C724 C 0.93183 0.87017 0.70798 0.0
C725 C 0.93303 0.87915 0.74313 0.0
C726 C 0.92004 0.87638 0.7708 0.0
H727 H 0.85307 0.87966 0.75944 0.0
H728 H 0.87564 0.88398 0.74394 0.0
H729 H 0.86478 0.86275 0.73241 0.0
H730 H 0.89314 0.84653 0.72294 0.0
H731 H 0.91576 0.85136 0.67451 0.0
H732 H 0.79332 0.36314 0.462 0.0
H733 H 0.80936 0.38294 0.41784 0.0
H734 H 0.75998 0.39206 0.35668 0.0
H735 H 0.74391 0.37334 0.40206 0.0
H736 H 0.81554 0.38067 0.34622 0.0
H737 H 0.77572 0.44318 0.36721 0.0
H738 H 0.77367 0.42378 0.3978 0.0
H739 H 0.76137 0.42463 0.35387 0.0
C740 C 0.78598 0.36953 0.43919 0.0
C741 C 0.76743 0.36694 0.43544 0.0
C742 C 0.7951 0.38084 0.41402 0.0
C743 C 0.78584 0.38945 0.38435 0.0
C744 C 0.76735 0.38625 0.38008 0.0
H745 H 0.80783 0.44679 0.18036 0.0
H746 H 0.79711 0.42703 0.23068 0.0
C747 C 0.75819 0.3754 0.40576 0.0
C748 C 0.79549 0.40115 0.35688 0.0
H749 H 0.79273 0.44161 0.30987 0.0
C750 C 0.81068 0.3941 0.3387 0.0
C751 C 0.78937 0.41883 0.34726 0.0
C752 C 0.77427 0.42811 0.36792 0.0
C753 C 0.81931 0.40383 0.30999 0.0
C754 C 0.81248 0.42096 0.29893 0.0
C755 C 0.79773 0.4283 0.31794 0.0
C756 C 0.8201 0.43139 0.26708 0.0
C757 C 0.83534 0.39554 0.29083 0.0
C758 C 0.83674 0.44016 0.27059 0.0
C759 C 0.84294 0.45149 0.24181 0.0
C760 C 0.8326 0.45426 0.20893 0.0
C761 C 0.81624 0.44485 0.20501 0.0
C762 C 0.81002 0.43364 0.23388 0.0
H763 H 0.83769 0.38122 0.29959 0.0
H764 H 0.83354 0.3959 0.25976 0.0
H765 H 0.84746 0.40366 0.29802 0.0
H766 H 0.84468 0.4387 0.29608 0.0
H767 H 0.85567 0.45836 0.24562 0.0
H768 H 0.2073 0.22763 0.89795 0.0
H769 H 0.18302 0.22363 0.85212 0.0
H770 H 0.16154 0.17968 0.91806 0.0
H771 H 0.18565 0.18385 0.96461 0.0
H772 H 0.17586 0.19309 0.80957 0.0
H773 H 0.11715 0.21037 0.89812 0.0
H774 H 0.13982 0.21599 0.91196 0.0
H775 H 0.13162 0.19311 0.91711 0.0
C776 C 0.19733 0.21721 0.90296 0.0
C777 C 0.19844 0.20605 0.935 0.0
C778 C 0.18345 0.21494 0.87668 0.0
C779 C 0.17034 0.20147 0.88176 0.0
C780 C 0.17127 0.19041 0.91391 0.0
H781 H 0.08336 0.1674 0.72692 0.0
H782 H 0.10412 0.16916 0.78133 0.0
C783 C 0.18511 0.19277 0.94044 0.0
C784 C 0.15627 0.19856 0.85239 0.0
H785 H 0.11103 0.19957 0.83632 0.0
C786 C 0.16169 0.1945 0.81548 0.0
C787 C 0.13777 0.20029 0.86011 0.0
C788 C 0.13117 0.20533 0.89887 0.0
C789 C 0.14916 0.19227 0.78608 0.0
C790 C 0.13069 0.19436 0.79363 0.0
C791 C 0.1252 0.19796 0.83066 0.0
C792 C 0.11709 0.1939 0.76286 0.0
C793 C 0.15577 0.1877 0.74706 0.0
C794 C 0.11716 0.20751 0.73525 0.0
C795 C 0.10534 0.20656 0.70458 0.0
C796 C 0.09312 0.1921 0.70109 0.0
C797 C 0.09252 0.17881 0.7294 0.0
C798 C 0.1044 0.17976 0.76024 0.0
H799 H 0.16973 0.18247 0.74761 0.0
H800 H 0.14698 0.17736 0.73329 0.0
H801 H 0.15549 0.20018 0.72956 0.0
H802 H 0.12667 0.21865 0.73698 0.0
H803 H 0.1061 0.21685 0.68287 0.0
H804 H 0.24691 0.65947 0.4768 0.0
H805 H 0.23117 0.63951 0.43145 0.0
H806 H 0.24815 0.67385 0.34035 0.0
H807 H 0.26372 0.69383 0.38514 0.0
H808 H 0.20324 0.65001 0.37515 0.0
H809 H 0.26465 0.62123 0.31066 0.0
H810 H 0.26483 0.63233 0.35628 0.0
H811 H 0.2641 0.64568 0.31403 0.0
C812 C 0.24729 0.66275 0.4471 0.0
C813 C 0.25657 0.67826 0.43464 0.0
C814 C 0.23826 0.65136 0.42126 0.0
C815 C 0.23864 0.65511 0.38251 0.0
C816 C 0.24783 0.6706 0.37008 0.0
H817 H 0.20183 0.61358 0.17074 0.0
H818 H 0.21468 0.6297 0.2247 0.0
C819 C 0.25664 0.68207 0.39582 0.0
C820 C 0.22941 0.64298 0.35477 0.0
H821 H 0.23716 0.61545 0.27866 0.0
C822 C 0.21061 0.64223 0.35432 0.0
C823 C 0.23908 0.63295 0.32753 0.0
C824 C 0.25929 0.63291 0.32717 0.0
C825 C 0.20121 0.63229 0.32636 0.0
C826 C 0.2109 0.62248 0.2987 0.0
C827 C 0.22971 0.62289 0.29989 0.0
C828 C 0.20198 0.61284 0.2665 0.0
C829 C 0.18103 0.63306 0.32557 0.0
C830 C 0.19052 0.59784 0.27185 0.0
C831 C 0.18305 0.58849 0.24069 0.0
C832 C 0.18683 0.59409 0.2037 0.0
C833 C 0.19832 0.60909 0.19874 0.0
C834 C 0.20579 0.61829 0.22964 0.0
H835 H 0.17578 0.64413 0.34394 0.0
H836 H 0.176 0.63521 0.2964 0.0
H837 H 0.17558 0.61991 0.33567 0.0
H838 H 0.18758 0.59319 0.30003 0.0
H839 H 0.17426 0.577 0.24549 0.0
H840 H 0.34563 0.71392 0.5635 0.0
H841 H 0.37086 0.7107 0.60822 0.0
H842 H 0.33418 0.69384 0.69448 0.0
H843 H 0.30897 0.69755 0.65037 0.0
H844 H 0.37223 0.7284 0.69062 0.0
H845 H 0.37588 0.65279 0.6802 0.0
H846 H 0.36618 0.6666 0.64329 0.0
H847 H 0.35408 0.66287 0.68601 0.0
C848 C 0.34304 0.70951 0.59202 0.0
C849 C 0.32544 0.70595 0.6036 0.0
C850 C 0.35739 0.70774 0.61748 0.0
C851 C 0.35436 0.70193 0.65451 0.0
C852 C 0.33678 0.69831 0.66601 0.0
H853 H 0.41112 0.67104 0.85303 0.0
H854 H 0.39221 0.67391 0.79744 0.0
C855 C 0.32242 0.70047 0.64087 0.0
C856 C 0.36949 0.69956 0.68138 0.0
H857 H 0.39382 0.66701 0.7271 0.0
C858 C 0.37716 0.71502 0.69842 0.0
C859 C 0.37565 0.68208 0.69163 0.0
C860 C 0.36765 0.66507 0.67428 0.0
C861 C 0.39041 0.71346 0.72667 0.0
C862 C 0.39667 0.6959 0.73711 0.0
C863 C 0.38923 0.68047 0.71908 0.0
C864 C 0.40947 0.69311 0.76916 0.0
C865 C 0.39677 0.73061 0.7464 0.0
C866 C 0.42602 0.7023 0.77151 0.0
C867 C 0.43672 0.70111 0.80418 0.0
C868 C 0.43123 0.69043 0.83482 0.0
C869 C 0.41549 0.67998 0.83074 0.0
C870 C 0.40469 0.68144 0.79861 0.0
H871 H 0.38734 0.74214 0.74205 0.0
H872 H 0.39836 0.72841 0.77717 0.0
H873 H 0.40993 0.73469 0.73484 0.0
H874 H 0.43044 0.7108 0.74858 0.0
H875 H 0.44885 0.70919 0.80601 0.0
H876 H 0.75563 0.84877 0.14814 0.0
H877 H 0.73966 0.8676 0.19347 0.0
H878 H 0.74351 0.91366 0.11913 0.0
H879 H 0.75945 0.89474 0.07297 0.0
H880 H 0.75178 0.89866 0.22971 0.0
H881 H 0.69024 0.91322 0.14598 0.0
H882 H 0.70576 0.89541 0.13321 0.0
H883 H 0.71098 0.9188 0.12342 0.0
C884 C 0.75303 0.86287 0.14112 0.0
C885 C 0.75886 0.87021 0.10675 0.0
C886 C 0.74388 0.87364 0.1672 0.0
C887 C 0.74021 0.892 0.15964 0.0
C888 C 0.74589 0.89943 0.12531 0.0
H889 H 0.6973 0.97695 0.30491 0.0
H890 H 0.71063 0.95954 0.25345 0.0
C891 C 0.75507 0.88861 0.09901 0.0
C892 C 0.73096 0.90329 0.18852 0.0
H893 H 0.69287 0.9278 0.20563 0.0
C894 C 0.73889 0.905 0.22442 0.0
C895 C 0.71412 0.91157 0.18162 0.0
C896 C 0.70465 0.90959 0.14411 0.0
C897 C 0.73047 0.91473 0.25353 0.0
C898 C 0.71362 0.92286 0.24674 0.0
C899 C 0.70576 0.92143 0.21076 0.0
C900 C 0.70425 0.93322 0.27674 0.0
C901 C 0.73967 0.91644 0.29139 0.0
C902 C 0.69604 0.92415 0.30679 0.0
C903 C 0.68822 0.93408 0.33632 0.0
C904 C 0.68847 0.95328 0.33629 0.0
C905 C 0.69652 0.96221 0.30569 0.0
C906 C 0.70424 0.9523 0.27623 0.0
H907 H 0.75365 0.91128 0.2908 0.0
H908 H 0.73985 0.93092 0.3008 0.0
H909 H 0.7321 0.90855 0.31255 0.0
H910 H 0.69585 0.90939 0.30755 0.0
H911 H 0.68197 0.92675 0.35911 0.0
H912 H 0.69817 0.37235 0.60412 0.0
H913 H 0.67455 0.37739 0.64989 0.0
H914 H 0.66989 0.31937 0.6661 0.0
H915 H 0.69405 0.31418 0.62076 0.0
H916 H 0.6399 0.36731 0.6527 0.0
H917 H 0.67698 0.33705 0.77314 0.0
H918 H 0.68755 0.34192 0.72881 0.0
H919 H 0.67403 0.32178 0.73385 0.0
C920 C 0.69216 0.36059 0.61731 0.0
C921 C 0.6982 0.34283 0.60895 0.0
C922 C 0.67858 0.36353 0.64352 0.0
C923 C 0.6706 0.34883 0.66208 0.0
C924 C 0.67614 0.331 0.65295 0.0
H925 H 0.58416 0.34067 0.82159 0.0
H926 H 0.60678 0.33625 0.77285 0.0
C927 C 0.6899 0.32803 0.62685 0.0
C928 C 0.65672 0.35238 0.69127 0.0
H929 H 0.64695 0.34587 0.78424 0.0
C930 C 0.64149 0.36267 0.68149 0.0
C931 C 0.65882 0.3465 0.729 0.0
C932 C 0.67529 0.33635 0.74203 0.0
C933 C 0.62824 0.36693 0.70819 0.0
C934 C 0.63028 0.36082 0.74567 0.0
C935 C 0.64546 0.35058 0.75548 0.0
C936 C 0.61637 0.36404 0.77478 0.0
C937 C 0.612 0.37768 0.69614 0.0
C938 C 0.6144 0.38113 0.79253 0.0
C939 C 0.60159 0.38363 0.82101 0.0
C940 C 0.59041 0.36913 0.83171 0.0
C941 C 0.59251 0.3521 0.81382 0.0
C942 C 0.60541 0.34956 0.78592 0.0
H943 H 0.61158 0.37997 0.66522 0.0
H944 H 0.5996 0.37045 0.70453 0.0
H945 H 0.6121 0.39114 0.71066 0.0
H946 H 0.62282 0.39247 0.7845 0.0
H947 H 0.6002 0.39692 0.83413 0.0
H948 H 0.29445 0.18344 0.07833 0.0
H949 H 0.3103 0.16469 0.12537 0.0
H950 H 0.25991 0.15245 0.1783 0.0
H951 H 0.24418 0.17109 0.1314 0.0
H952 H 0.3112 0.16898 0.20395 0.0
H953 H 0.2822 0.10204 0.16395 0.0
H954 H 0.28071 0.12172 0.13382 0.0
H955 H 0.2654 0.11906 0.17231 0.0
C956 C 0.28684 0.17647 0.09976 0.0
C957 C 0.26816 0.17837 0.1012 0.0
C958 C 0.29586 0.16589 0.12665 0.0
C959 C 0.28627 0.15694 0.15502 0.0
C960 C 0.26756 0.1589 0.15627 0.0
H961 H 0.30465 0.09634 0.35734 0.0
H962 H 0.29392 0.11616 0.30665 0.0
C963 C 0.25859 0.16955 0.1296 0.0
C964 C 0.29571 0.146 0.18416 0.0
H965 H 0.29654 0.10383 0.22447 0.0
C966 C 0.30818 0.15468 0.20817 0.0
C967 C 0.29184 0.12731 0.18951 0.0
C968 C 0.27945 0.11692 0.16329 0.0
C969 C 0.31629 0.14533 0.23833 0.0
C970 C 0.31183 0.12687 0.2445 0.0
C971 C 0.29978 0.11806 0.21988 0.0
C972 C 0.31908 0.11647 0.27693 0.0
C973 C 0.32914 0.15532 0.26415 0.0
C974 C 0.33687 0.11028 0.27722 0.0
C975 C 0.343 0.09881 0.30602 0.0
C976 C 0.33148 0.09351 0.3352 0.0
C977 C 0.31389 0.10035 0.33552 0.0
C978 C 0.30772 0.11159 0.3065 0.0
H979 H 0.32949 0.17019 0.25842 0.0
H980 H 0.32539 0.15321 0.29402 0.0
H981 H 0.34283 0.14974 0.26034 0.0
H982 H 0.34582 0.11382 0.25453 0.0
H983 H 0.35664 0.09381 0.30514 0.0
H984 H 0.21346 0.27181 0.95976 0.0
H985 H 0.20177 0.303 0.95915 0.0
H986 H 0.22061 0.31117 0.07317 0.0
H987 H 0.23251 0.28015 0.07398 0.0
H988 H 0.17648 0.32026 1.00712 0.0
H989 H 0.24301 0.35394 1.01653 0.0
H990 H 0.24045 0.33012 1.00448 0.0
H991 H 0.23887 0.33752 0.05273 0.0
C992 C 0.21512 0.28021 0.98475 0.0
C993 C 0.22405 0.27345 1.01684 0.0
C994 C 0.20839 0.29805 0.98435 0.0
C995 C 0.21054 0.30952 1.0159 0.0
C996 C 0.2191 0.3027 0.04823 0.0
H997 H 0.18673 0.42088 0.0748 0.0
H998 H 0.19493 0.38881 0.07215 0.0
C999 C 0.22582 0.28489 0.04869 0.0
C1000 C 0.20389 0.32865 1.01502 0.0
H1001 H 0.21759 0.37297 0.02262 0.0
C1002 C 0.18545 0.33182 1.01024 0.0
C1003 C 0.21561 0.3437 0.0192 0.0
C1004 C 0.23561 0.34123 0.0232 0.0
C1005 C 0.17838 0.34963 1.01056 0.0
C1006 C 0.19012 0.36471 1.01487 0.0
C1007 C 0.20857 0.36146 0.01924 0.0
C1008 C 0.18368 0.38396 1.01665 0.0
C1009 C 0.15837 0.35211 1.0076 0.0
C1010 C 0.17455 0.3921 0.98624 0.0
C1011 C 0.1697 0.41063 0.98773 0.0
C1012 C 0.17384 0.42136 0.01973 0.0
C1013 C 0.18295 0.41305 0.05 0.0
C1014 C 0.18778 0.39466 0.04846 0.0
H1015 H 0.15105 0.33927 1.0137 0.0
H1016 H 0.15373 0.36288 0.02735 0.0
H1017 H 0.15482 0.35633 0.97853 0.0
H1018 H 0.1715 0.38423 0.96106 0.0
H1019 H 0.16268 0.41653 0.96394 0.0
H1020 H 0.22608 0.7452 0.45581 0.0
H1021 H 0.19755 0.76186 0.45678 0.0
H1022 H 0.2013 0.7665 0.57774 0.0
H1023 H 0.22979 0.75027 0.57701 0.0
H1024 H 0.16502 0.75544 0.49186 0.0
H1025 H 0.19521 0.8194 0.54712 0.0
H1026 H 0.2085 0.80091 0.52859 0.0
H1027 H 0.20002 0.79993 0.57583 0.0
C1028 C 0.2208 0.74971 0.48262 0.0
C1029 C 0.23041 0.74659 0.51627 0.0
C1030 C 0.20448 0.75926 0.48314 0.0
C1031 C 0.19745 0.76587 0.51727 0.0
C1032 C 0.20666 0.76206 0.55094 0.0
H1033 H 0.09572 0.81858 0.57597 0.0
H1034 H 0.12452 0.80249 0.5784 0.0
C1035 C 0.22295 0.75265 0.55045 0.0
C1036 C 0.1806 0.77685 0.51792 0.0
H1037 H 0.16335 0.818 0.54592 0.0
C1038 C 0.16469 0.76912 0.50361 0.0
C1039 C 0.18012 0.7948 0.53301 0.0
C1040 C 0.19689 0.80435 0.54667 0.0
C1041 C 0.14835 0.7787 0.50466 0.0
C1042 C 0.14785 0.79647 0.52033 0.0
C1043 C 0.16372 0.80427 0.53443 0.0
C1044 C 0.13108 0.80748 0.52016 0.0
C1045 C 0.13164 0.76982 0.48895 0.0
C1046 C 0.12553 0.81617 0.48707 0.0
C1047 C 0.10932 0.82571 0.48575 0.0
C1048 C 0.09793 0.82653 0.51732 0.0
C1049 C 0.10395 0.81835 0.55102 0.0
C1050 C 0.12039 0.809 0.55243 0.0
H1051 H 0.13369 0.75513 0.48246 0.0
H1052 H 0.12047 0.7712 0.50925 0.0
H1053 H 0.12757 0.77685 0.46264 0.0
H1054 H 0.13369 0.81539 0.462 0.0
H1055 H 0.10566 0.8323 0.4596 0.0
H1056 H 0.81823 0.77844 0.9685 0.0
H1057 H 0.82945 0.74695 0.96824 0.0
H1058 H 0.79962 0.73583 0.06901 0.0
H1059 H 0.7884 0.76702 0.06957 0.0
H1060 H 0.84925 0.72829 0.02653 0.0
H1061 H 0.78413 0.6948 0.99544 0.0
H1062 H 0.78793 0.7188 0.98778 0.0
H1063 H 0.78346 0.71056 0.03436 0.0
C1064 C 0.81405 0.76927 0.99056 0.0
C1065 C 0.80239 0.77529 0.01903 0.0
C1066 C 0.82048 0.7513 0.99039 0.0
C1067 C 0.81518 0.73898 0.01834 0.0
C1068 C 0.80367 0.745 0.04684 0.0
H1069 H 0.8309 0.62491 0.07101 0.0
H1070 H 0.82406 0.65747 0.07299 0.0
C1071 C 0.79736 0.76293 0.04723 0.0
C1072 C 0.82186 0.71989 0.01848 0.0
H1073 H 0.80782 0.67556 1.01596 0.0
C1074 C 0.84024 0.71673 0.02394 0.0
C1075 C 0.81008 0.70484 1.01515 0.0
C1076 C 0.79032 0.70735 1.0075 0.0
C1077 C 0.84709 0.69893 0.02736 0.0
C1078 C 0.83525 0.68385 0.02462 0.0
C1079 C 0.8169 0.68707 0.01855 0.0
C1080 C 0.84149 0.66456 0.02693 0.0
C1081 C 0.86684 0.6965 0.03502 0.0
C1082 C 0.85399 0.6577 1.00117 0.0
C1083 C 0.85822 0.6391 1.00045 0.0
C1084 C 0.84974 0.62677 0.0249 0.0
C1085 C 0.83782 0.63386 0.05185 0.0
C1086 C 0.83374 0.65252 0.05279 0.0
H1087 H 0.87298 0.7091 0.04701 0.0
H1088 H 0.8693 0.68508 0.05478 0.0
H1089 H 0.87372 0.69337 1.00815 0.0
H1090 H 0.85997 0.66657 0.9805 0.0
H1091 H 0.86776 0.63433 0.97982 0.0
H1092 H 0.78067 0.27618 0.49759 0.0
H1093 H 0.80953 0.26044 0.49667 0.0
H1094 H 0.83467 0.3074 0.54863 0.0
H1095 H 0.80548 0.32271 0.55168 0.0
H1096 H 0.83902 0.26716 0.46203 0.0
H1097 H 0.85467 0.26922 0.61475 0.0
H1098 H 0.83297 0.27546 0.59633 0.0
H1099 H 0.85123 0.29155 0.59593 0.0
C1100 C 0.79235 0.28305 0.50919 0.0
C1101 C 0.79085 0.30058 0.52504 0.0
C1102 C 0.80886 0.27406 0.50858 0.0
C1103 C 0.82435 0.28252 0.5232 0.0
C1104 C 0.8229 0.30025 0.53838 0.0
H1105 H 0.93727 0.25624 0.52921 0.0
H1106 H 0.9076 0.27059 0.5282 0.0
C1107 C 0.80624 0.30907 0.53991 0.0
C1108 C 0.84198 0.2729 0.52141 0.0
H1109 H 0.87842 0.26031 0.57417 0.0
C1110 C 0.84755 0.26556 0.48668 0.0
C1111 C 0.85316 0.27063 0.55353 0.0
C1112 C 0.84763 0.27696 0.59228 0.0
C1113 C 0.86405 0.25647 0.483 0.0
C1114 C 0.87538 0.25465 0.51489 0.0
C1115 C 0.86978 0.26181 0.54966 0.0
C1116 C 0.89336 0.24592 0.51274 0.0
C1117 C 0.86943 0.24923 0.44485 0.0
C1118 C 0.89528 0.22727 0.50408 0.0
C1119 C 0.91229 0.21907 0.50454 0.0
C1120 C 0.92759 0.22943 0.51361 0.0
C1121 C 0.92567 0.24807 0.52168 0.0
C1122 C 0.90874 0.25623 0.52129 0.0
H1123 H 0.86105 0.255 0.42182 0.0
H1124 H 0.88371 0.25234 0.43918 0.0
H1125 H 0.86778 0.23419 0.44435 0.0
H1126 H 0.88359 0.21896 0.49804 0.0
H1127 H 0.91344 0.20459 0.49887 0.0
H1128 H 0.69914 0.28217 0.55327 0.0
H1129 H 0.68783 0.25061 0.55386 0.0
H1130 H 0.73159 0.2338 0.48302 0.0
H1131 H 0.7427 0.26534 0.482 0.0
H1132 H 0.67808 0.22799 0.48963 0.0
H1133 H 0.73346 0.19873 0.57516 0.0
H1134 H 0.72901 0.22291 0.57323 0.0
H1135 H 0.74064 0.21181 0.53537 0.0
C1136 C 0.70619 0.27168 0.53768 0.0
C1137 C 0.7216 0.27601 0.51726 0.0
C1138 C 0.6998 0.25374 0.5381 0.0
C1139 C 0.709 0.23988 0.51883 0.0
C1140 C 0.72442 0.24427 0.49838 0.0
H1141 H 0.69631 0.12442 0.47748 0.0
H1142 H 0.70529 0.15653 0.47818 0.0
C1143 C 0.73065 0.26224 0.49752 0.0
C1144 C 0.7023 0.22086 0.5193 0.0
H1145 H 0.71359 0.17761 0.54538 0.0
C1146 C 0.68575 0.21697 0.50204 0.0
C1147 C 0.71235 0.20658 0.53567 0.0
C1148 C 0.72978 0.21017 0.55624 0.0
C1149 C 0.67922 0.19903 0.49963 0.0
C1150 C 0.68946 0.18469 0.51524 0.0
C1151 C 0.70587 0.18863 0.53311 0.0
C1152 C 0.68338 0.16547 0.51323 0.0
C1153 C 0.66168 0.19546 0.47949 0.0
C1154 C 0.66799 0.15992 0.53237 0.0
C1155 C 0.66266 0.14166 0.53157 0.0
C1156 C 0.67276 0.12848 0.512 0.0
C1157 C 0.68804 0.13418 0.49231 0.0
C1158 C 0.69332 0.1525 0.49303 0.0
H1159 H 0.6572 0.2074 0.46278 0.0
H1160 H 0.66284 0.18347 0.46038 0.0
H1161 H 0.6512 0.19241 0.50052 0.0
H1162 H 0.66026 0.16967 0.54854 0.0
H1163 H 0.65074 0.13782 0.5468 0.0
H1164 H 0.30809 0.22547 0.04894 0.0
H1165 H 0.33706 0.24168 0.04832 0.0
H1166 H 0.31139 0.28827 0.99792 0.0
H1167 H 0.2827 0.27204 0.99751 0.0
H1168 H 0.35402 0.25937 0.97803 0.0
H1169 H 0.33967 0.30663 0.09709 0.0
H1170 H 0.3283 0.28505 0.09088 0.0
H1171 H 0.32224 0.3041 0.06206 0.0
C1172 C 0.30869 0.2392 0.0379 0.0
C1173 C 0.29321 0.24753 0.02326 0.0
C1174 C 0.3252 0.2484 0.03745 0.0
C1175 C 0.32632 0.26623 0.0233 0.0
C1176 C 0.31081 0.27457 1.00909 0.0
H1177 H 0.41154 0.34712 0.99223 0.0
H1178 H 0.38275 0.33053 0.99109 0.0
C1179 C 0.29446 0.26527 1.00876 0.0
C1180 C 0.34366 0.27619 0.02267 0.0
H1181 H 0.36579 0.31269 0.06151 0.0
C1182 C 0.35666 0.27095 0.99641 0.0
C1183 C 0.34701 0.29136 0.04653 0.0
C1184 C 0.33367 0.29713 0.07599 0.0
C1185 C 0.37283 0.28068 0.99302 0.0
C1186 C 0.37615 0.29593 1.0167 0.0
C1187 C 0.36316 0.30113 0.04308 0.0
C1188 C 0.39351 0.30594 1.0159 0.0
C1189 C 0.38621 0.27478 0.96379 0.0
C1190 C 0.40905 0.29763 0.03002 0.0
C1191 C 0.42533 0.30705 0.03089 0.0
C1192 C 0.42654 0.32501 0.01743 0.0
C1193 C 0.41106 0.33325 1.00242 0.0
C1194 C 0.39461 0.32383 1.00201 0.0
H1195 H 0.38037 0.26485 0.94332 0.0
H1196 H 0.39127 0.28677 0.94817 0.0
H1197 H 0.39782 0.26825 0.97801 0.0
H1198 H 0.4085 0.28391 0.04107 0.0
H1199 H 0.43703 0.30037 0.04262 0.0
H1200 H 0.32608 0.76473 0.50234 0.0
H1201 H 0.33846 0.79586 0.50129 0.0
H1202 H 0.28837 0.81684 0.54307 0.0
H1203 H 0.27621 0.78576 0.54475 0.0
H1204 H 0.32711 0.82593 0.46215 0.0
H1205 H 0.32403 0.84005 0.61536 0.0
H1206 H 0.32144 0.81739 0.59594 0.0
H1207 H 0.30283 0.83298 0.59612 0.0
C1208 C 0.31789 0.77604 0.51176 0.0
C1209 C 0.30037 0.77299 0.52424 0.0
C1210 C 0.3249 0.79377 0.511 0.0
C1211 C 0.31448 0.80869 0.52279 0.0
C1212 C 0.29684 0.80555 0.53481 0.0
H1213 H 0.31804 0.92509 0.53336 0.0
H1214 H 0.31107 0.89244 0.5318 0.0
C1215 C 0.28988 0.78785 0.53565 0.0
C1216 C 0.32178 0.82758 0.52161 0.0
H1217 H 0.32817 0.86585 0.5755 0.0
C1218 C 0.32755 0.83461 0.487 0.0
C1219 C 0.32249 0.83888 0.55409 0.0
C1220 C 0.31754 0.83189 0.59254 0.0
C1221 C 0.33319 0.85286 0.48369 0.0
C1222 C 0.33322 0.86432 0.51592 0.0
C1223 C 0.32801 0.85711 0.55072 0.0
C1224 C 0.33751 0.88412 0.51402 0.0
C1225 C 0.3384 0.85992 0.4455 0.0
C1226 C 0.35467 0.89036 0.50421 0.0
C1227 C 0.35862 0.9091 0.50493 0.0
C1228 C 0.34546 0.92178 0.5155 0.0
C1229 C 0.32831 0.91553 0.52474 0.0
C1230 C 0.32437 0.89691 0.52402 0.0
H1231 H 0.3343 0.85046 0.4224 0.0
H1232 H 0.33228 0.87347 0.4403 0.0
H1233 H 0.35317 0.86154 0.44454 0.0
H1234 H 0.36512 0.88074 0.49704 0.0
H1235 H 0.37203 0.91364 0.49826 0.0
H1236 H 0.72112 0.82201 0.06219 0.0
H1237 H 0.6916 0.80699 0.06101 0.0
H1238 H 0.71193 0.76592 0.98523 0.0
H1239 H 0.7412 0.78092 0.98572 0.0
H1240 H 0.66924 0.79593 0.98932 0.0
H1241 H 0.69074 0.73917 0.08262 0.0
H1242 H 0.70223 0.76086 0.08194 0.0
H1243 H 0.70524 0.74484 0.04412 0.0
C1244 C 0.71926 0.80977 0.04534 0.0
C1245 C 0.7335 0.8026 0.02419 0.0
C1246 C 0.70241 0.80127 0.04454 0.0
C1247 C 0.69965 0.78529 0.02322 0.0
C1248 C 0.7138 0.7782 1.00195 0.0
H1249 H 0.61136 0.70927 0.98779 0.0
H1250 H 0.64039 0.72488 0.98907 0.0
C1251 C 0.73051 0.78682 1.00223 0.0
C1252 C 0.68214 0.77568 0.02369 0.0
H1253 H 0.66168 0.73715 0.05589 0.0
C1254 C 0.66752 0.78317 1.0041 0.0
C1255 C 0.68003 0.7589 0.04253 0.0
C1256 C 0.69532 0.75043 0.06424 0.0
C1257 C 0.65084 0.7742 1.00271 0.0
C1258 C 0.64867 0.75752 0.02201 0.0
C1259 C 0.66335 0.74998 0.04133 0.0
C1260 C 0.63122 0.74774 0.0225 0.0
C1261 C 0.63576 0.78233 0.97984 0.0
C1262 C 0.61654 0.75515 0.04171 0.0
C1263 C 0.59993 0.74625 0.04116 0.0
C1264 C 0.59761 0.72974 0.02121 0.0
C1265 C 0.61256 0.72207 1.00301 0.0
C1266 C 0.62919 0.73094 1.00378 0.0
H1267 H 0.64044 0.79354 0.96148 0.0
H1268 H 0.62928 0.77168 0.96196 0.0
H1269 H 0.62545 0.78787 0.99913 0.0
H1270 H 0.61789 0.76798 0.05678 0.0
H1271 H 0.58874 0.75265 0.05524 0.0
loop_
_geom_bond_atom_site_label_1
_geom_bond_atom_site_label_2
_geom_bond_distance
_geom_bond_site_symmetry_2
_ccdc_geom_bond_type
Fe0 O2 1.918 . S
Fe0 O5 1.997 . S
Fe0 O6 2.002 . S
Fe0 O11 1.976 . S
Fe0 O14 1.996 . S
Fe1 O2 1.918 1_556 S
Fe1 O9 1.997 . S
Fe1 O12 1.996 . S
Fe1 O16 1.976 . S
Fe1 O19 2.002 . S
O2 Fe0 1.918 . S
O2 Fe1 1.918 1_554 S
O2 Fe3 1.918 . S
Fe3 O2 1.918 . S
Fe3 O4 2.002 . S
Fe3 O13 1.976 . S
Fe3 O17 1.996 1_554 S
Fe3 O20 1.997 1_554 S
O4 Fe3 2.002 . S
O4 C21 1.295 . S
O5 Fe0 1.997 . S
O5 C21 1.235 . S
O6 Fe0 2.002 . S
O6 C7 1.295 . S
C7 O6 1.295 . S
C7 O9 1.235 1_554 S
C8 O13 1.287 . S
C8 O14 1.255 . S
O9 Fe1 1.997 . S
O9 C7 1.235 1_556 S
C10 O16 1.287 . S
C10 O17 1.255 . S
O11 Fe0 1.976 . S
O11 C18 1.287 . S
O12 Fe1 1.996 . S
O12 C18 1.255 1_556 S
O13 Fe3 1.976 . S
O13 C8 1.287 . S
O14 Fe0 1.996 . S
O14 C8 1.255 . S
C15 O19 1.295 . S
C15 O20 1.235 . S
O16 Fe1 1.976 . S
O16 C10 1.287 . S
O17 Fe3 1.996 1_556 S
O17 C10 1.255 . S
C18 O11 1.287 . S
C18 O12 1.255 1_554 S
O19 Fe1 2.002 . S
O19 C15 1.295 . S
O20 Fe3 1.997 1_556 S
O20 C15 1.235 . S
C21 O4 1.295 . S
C21 O5 1.235 . S
Fe22 O24 1.918 . S
Fe22 O27 1.997 . S
Fe22 O28 2.002 . S
Fe22 O33 1.976 . S
Fe22 O36 1.996 . S
Fe23 O24 1.918 . S
Fe23 O31 1.997 . S
Fe23 O34 1.996 . S
Fe23 O38 1.976 . S
Fe23 O41 2.002 . S
O24 Fe22 1.918 . S
O24 Fe23 1.918 . S
O24 Fe25 1.918 . S
Fe25 O24 1.918 . S
Fe25 O26 2.002 . S
Fe25 O35 1.976 . S
Fe25 O39 1.996 . S
Fe25 O42 1.997 . S
O26 Fe25 2.002 . S
O26 C43 1.295 . S
O27 Fe22 1.997 . S
O27 C43 1.235 . S
O28 Fe22 2.002 . S
O28 C29 1.295 . S
C29 O28 1.295 . S
C29 O31 1.235 . S
C30 O35 1.287 . S
C30 O36 1.255 . S
O31 Fe23 1.997 . S
O31 C29 1.235 . S
C32 O38 1.287 . S
C32 O39 1.255 . S
O33 Fe22 1.976 . S
O33 C40 1.287 . S
O34 Fe23 1.996 . S
O34 C40 1.255 . S
O35 Fe25 1.976 . S
O35 C30 1.287 . S
O36 Fe22 1.996 . S
O36 C30 1.255 . S
C37 O41 1.295 . S
C37 O42 1.235 . S
O38 Fe23 1.976 . S
O38 C32 1.287 . S
O39 Fe25 1.996 . S
O39 C32 1.255 . S
C40 O33 1.287 . S
C40 O34 1.255 . S
O41 Fe23 2.002 . S
O41 C37 1.295 . S
O42 Fe25 1.997 . S
O42 C37 1.235 . S
C43 O26 1.295 . S
C43 O27 1.235 . S
Fe44 O46 1.918 1_556 S
Fe44 O49 1.997 . S
Fe44 O50 2.002 . S
Fe44 O55 1.976 . S
Fe44 O58 1.996 . S
Fe45 O46 1.918 . S
Fe45 O53 1.997 . S
Fe45 O56 1.996 . S
Fe45 O60 1.976 . S
Fe45 O63 2.002 . S
O46 Fe44 1.918 1_554 S
O46 Fe45 1.918 . S
O46 Fe47 1.918 . S
Fe47 O46 1.918 . S
Fe47 O48 2.002 1_554 S
Fe47 O57 1.976 1_554 S
Fe47 O61 1.996 . S
Fe47 O64 1.997 . S
O48 Fe47 2.002 1_556 S
O48 C65 1.295 . S
O49 Fe44 1.997 . S
O49 C65 1.235 . S
O50 Fe44 2.002 . S
O50 C51 1.295 1_556 S
C51 O50 1.295 1_554 S
C51 O53 1.235 . S
C52 O57 1.287 . S
C52 O58 1.255 . S
O53 Fe45 1.997 . S
O53 C51 1.235 . S
C54 O60 1.287 . S
C54 O61 1.255 . S
O55 Fe44 1.976 . S
O55 C62 1.287 1_556 S
O56 Fe45 1.996 . S
O56 C62 1.255 . S
O57 Fe47 1.976 1_556 S
O57 C52 1.287 . S
O58 Fe44 1.996 . S
O58 C52 1.255 . S
C59 O63 1.295 . S
C59 O64 1.235 . S
O60 Fe45 1.976 . S
O60 C54 1.287 . S
O61 Fe47 1.996 . S
O61 C54 1.255 . S
C62 O55 1.287 1_554 S
C62 O56 1.255 . S
O63 Fe45 2.002 . S
O63 C59 1.295 . S
O64 Fe47 1.997 . S
O64 C59 1.235 . S
C65 O48 1.295 . S
C65 O49 1.235 . S
Fe66 O68 1.918 . S
Fe66 O71 1.997 . S
Fe66 O72 2.002 . S
Fe66 O77 1.976 . S
Fe66 O80 1.996 . S
Fe67 O68 1.918 . S
Fe67 O75 1.997 . S
Fe67 O78 1.996 . S
Fe67 O82 1.976 . S
Fe67 O85 2.002 . S
O68 Fe66 1.918 . S
O68 Fe67 1.918 . S
O68 Fe69 1.918 . S
Fe69 O68 1.918 . S
Fe69 O70 2.002 . S
Fe69 O79 1.976 . S
Fe69 O83 1.996 . S
Fe69 O86 1.997 . S
O70 Fe69 2.002 . S
O70 C87 1.295 . S
O71 Fe66 1.997 . S
O71 C87 1.235 . S
O72 Fe66 2.002 . S
O72 C73 1.295 . S
C73 O72 1.295 . S
C73 O75 1.235 . S
C74 O79 1.287 . S
C74 O80 1.255 . S
O75 Fe67 1.997 . S
O75 C73 1.235 . S
C76 O82 1.287 . S
C76 O83 1.255 . S
O77 Fe66 1.976 . S
O77 C84 1.287 . S
O78 Fe67 1.996 . S
O78 C84 1.255 . S
O79 Fe69 1.976 . S
O79 C74 1.287 . S
O80 Fe66 1.996 . S
O80 C74 1.255 . S
C81 O85 1.295 . S
C81 O86 1.235 . S
O82 Fe67 1.976 . S
O82 C76 1.287 . S
O83 Fe69 1.996 . S
O83 C76 1.255 . S
C84 O77 1.287 . S
C84 O78 1.255 . S
O85 Fe67 2.002 . S
O85 C81 1.295 . S
O86 Fe69 1.997 . S
O86 C81 1.235 . S
C87 O70 1.295 . S
C87 O71 1.235 . S
C88 C89 1.264 . S
C88 C93 1.479 . S
C88 C98 1.465 . S
C89 C88 1.264 . S
C89 C91 1.339 . S
C89 H116 0.931 . S
C90 C91 1.395 . S
C90 C92 1.320 . S
C91 C89 1.339 . S
C91 C90 1.395 . S
C91 H117 0.929 . S
C92 C90 1.320 . S
C92 C93 1.405 . S
C92 H118 0.930 . S
C93 C88 1.479 . S
C93 C92 1.405 . S
C93 H119 0.931 . S
U94 O95 2.454 . S
U94 O96 2.458 1_556 S
U94 C97 2.984 . S
U94 C98 2.847 . S
U94 C111 2.882 1_556 S
U94 O112 2.441 . S
U94 O113 2.420 . S
U94 O114 2.455 1_556 S
U94 O115 2.449 1_556 S
O95 U94 2.454 . S
O95 C97 1.353 . S
O96 U94 2.458 1_554 S
O96 C97 1.286 1_554 S
C97 U94 2.984 . S
C97 O95 1.353 . S
C97 O96 1.286 1_556 S
C97 C99 1.364 . S
C98 C88 1.465 . S
C98 U94 2.847 . S
C98 O112 1.249 . S
C98 O113 1.202 . S
C99 C97 1.364 . S
C99 C101 1.431 . S
C99 C104 1.318 1_556 S
C100 C101 1.310 . S
C100 C103 1.461 1_556 S
C100 H120 0.932 . S
C101 C99 1.431 . S
C101 C100 1.310 . S
C101 H121 0.930 . S
C102 C103 1.474 . S
C102 C104 1.285 . S
C102 H122 0.929 . S
C103 C100 1.461 1_554 S
C103 C102 1.474 . S
C104 C99 1.318 1_554 S
C104 C102 1.285 . S
C104 H123 0.930 . S
C105 C108 1.424 . S
C105 C110 1.245 . S
C105 C111 1.428 . S
C106 C109 1.260 . S
C106 C110 1.477 . S
C106 H124 0.932 . S
C107 C108 1.384 . S
C107 C109 1.479 . S
C107 H125 0.929 . S
C108 C105 1.424 . S
C108 C107 1.384 . S
C108 H126 0.928 . S
C109 C106 1.260 . S
C109 C107 1.479 . S
C110 C105 1.245 . S
C110 C106 1.477 . S
C110 H127 0.932 . S
C111 U94 2.882 1_554 S
C111 C105 1.428 . S
C111 O114 1.301 . S
C111 O115 1.282 . S
O112 U94 2.441 . S
O112 C98 1.249 . S
O113 U94 2.420 . S
O113 C98 1.202 . S
O114 U94 2.455 1_554 S
O114 C111 1.301 . S
O115 U94 2.449 1_554 S
O115 C111 1.282 . S
H116 C89 0.931 . S
H117 C91 0.929 . S
H118 C92 0.930 . S
H119 C93 0.931 . S
H120 C100 0.932 . S
H121 C101 0.930 . S
H122 C102 0.929 . S
H123 C104 0.930 . S
H124 C106 0.932 . S
H125 C107 0.929 . S
H126 C108 0.928 . S
H127 C110 0.932 . S
C128 C129 1.264 . S
C128 C133 1.479 . S
C128 C138 1.465 . S
C129 C128 1.264 . S
C129 C131 1.339 . S
C129 H156 0.931 . S
C130 C131 1.395 . S
C130 C132 1.320 . S
C131 C129 1.339 . S
C131 C130 1.395 . S
C131 H157 0.929 . S
C132 C130 1.320 . S
C132 C133 1.405 . S
C132 H158 0.930 . S
C133 C128 1.479 . S
C133 C132 1.405 . S
C133 H159 0.931 . S
U134 O135 2.454 1_655 S
U134 O136 2.458 1_655 S
U134 C137 2.984 1_655 S
U134 C138 2.847 . S
U134 C151 2.882 . S
U134 O152 2.441 . S
U134 O153 2.420 . S
U134 O154 2.455 . S
U134 O155 2.449 . S
O135 U134 2.454 1_455 S
O135 C137 1.353 . S
O136 U134 2.458 1_455 S
O136 C137 1.286 . S
C137 U134 2.984 1_455 S
C137 O135 1.353 . S
C137 O136 1.286 . S
C137 C139 1.363 . S
C138 C128 1.465 . S
C138 U134 2.847 . S
C138 O152 1.249 . S
C138 O153 1.202 . S
C139 C137 1.363 . S
C139 C141 1.408 . S
C139 C144 1.342 . S
C140 C141 1.310 . S
C140 C143 1.461 . S
C140 H160 0.932 . S
C141 C139 1.408 . S
C141 C140 1.310 . S
C141 H161 0.930 . S
C142 C143 1.474 . S
C142 C144 1.285 . S
C142 H162 0.929 . S
C143 C140 1.461 . S
C143 C142 1.474 . S
C144 C139 1.342 . S
C144 C142 1.285 . S
C144 H163 0.930 . S
C145 C148 1.424 . S
C145 C150 1.245 . S
C145 C151 1.428 . S
C146 C149 1.260 . S
C146 C150 1.477 . S
C146 H164 0.932 . S
C147 C148 1.384 . S
C147 C149 1.479 . S
C147 H165 0.929 . S
C148 C145 1.424 . S
C148 C147 1.384 . S
C148 H166 0.928 . S
C149 C146 1.260 . S
C149 C147 1.479 . S
C150 C145 1.245 . S
C150 C146 1.477 . S
C150 H167 0.932 . S
C151 U134 2.882 . S
C151 C145 1.428 . S
C151 O154 1.301 . S
C151 O155 1.282 . S
O152 U134 2.441 . S
O152 C138 1.249 . S
O153 U134 2.420 . S
O153 C138 1.202 . S
O154 U134 2.455 . S
O154 C151 1.301 . S
O155 U134 2.449 . S
O155 C151 1.282 . S
H156 C129 0.931 . S
H157 C131 0.929 . S
H158 C132 0.930 . S
H159 C133 0.931 . S
H160 C140 0.932 . S
H161 C141 0.930 . S
H162 C142 0.929 . S
H163 C144 0.930 . S
H164 C146 0.932 . S
H165 C147 0.929 . S
H166 C148 0.928 . S
H167 C150 0.932 . S
C168 C169 1.264 . S
C168 C173 1.479 . S
C168 C178 1.465 . S
C169 C168 1.264 . S
C169 C171 1.339 . S
C169 H196 0.931 . S
C170 C171 1.395 . S
C170 C172 1.320 . S
C171 C169 1.339 . S
C171 C170 1.395 . S
C171 H197 0.929 . S
C172 C170 1.320 . S
C172 C173 1.405 . S
C172 H198 0.930 . S
C173 C168 1.479 . S
C173 C172 1.405 . S
C173 H199 0.931 . S
U174 O175 2.454 . S
U174 O176 2.458 1_554 S
U174 C177 2.984 . S
U174 C178 2.847 . S
U174 C191 2.882 1_554 S
U174 O192 2.441 . S
U174 O193 2.420 . S
U174 O194 2.455 1_554 S
U174 O195 2.449 1_554 S
O175 U174 2.454 . S
O175 C177 1.353 . S
O176 U174 2.458 1_556 S
O176 C177 1.286 1_556 S
C177 U174 2.984 . S
C177 O175 1.353 . S
C177 O176 1.286 1_554 S
C177 C179 1.363 . S
C178 C168 1.465 . S
C178 U174 2.847 . S
C178 O192 1.249 . S
C178 O193 1.202 . S
C179 C177 1.363 . S
C179 C181 1.408 . S
C179 C184 1.342 1_554 S
C180 C181 1.310 . S
C180 C183 1.461 . S
C180 H200 0.932 . S
C181 C179 1.408 . S
C181 C180 1.310 . S
C181 H201 0.930 . S
C182 C183 1.474 1_556 S
C182 C184 1.285 . S
C182 H202 0.929 . S
C183 C180 1.461 . S
C183 C182 1.474 1_554 S
C184 C179 1.342 1_556 S
C184 C182 1.285 . S
C184 H203 0.930 . S
C185 C188 1.424 . S
C185 C190 1.245 . S
C185 C191 1.428 . S
C186 C189 1.260 . S
C186 C190 1.477 . S
C186 H204 0.932 . S
C187 C188 1.384 . S
C187 C189 1.479 . S
C187 H205 0.929 . S
C188 C185 1.424 . S
C188 C187 1.384 . S
C188 H206 0.928 . S
C189 C186 1.260 . S
C189 C187 1.479 . S
C190 C185 1.245 . S
C190 C186 1.477 . S
C190 H207 0.932 . S
C191 U174 2.882 1_556 S
C191 C185 1.428 . S
C191 O194 1.301 . S
C191 O195 1.282 . S
O192 U174 2.441 . S
O192 C178 1.249 . S
O193 U174 2.420 . S
O193 C178 1.202 . S
O194 U174 2.455 1_556 S
O194 C191 1.301 . S
O195 U174 2.449 1_556 S
O195 C191 1.282 . S
H196 C169 0.931 . S
H197 C171 0.929 . S
H198 C172 0.930 . S
H199 C173 0.931 . S
H200 C180 0.932 . S
H201 C181 0.930 . S
H202 C182 0.929 . S
H203 C184 0.930 . S
H204 C186 0.932 . S
H205 C187 0.929 . S
H206 C188 0.928 . S
H207 C190 0.932 . S
C208 C209 1.264 . S
C208 C213 1.479 . S
C208 C218 1.465 . S
C209 C208 1.264 . S
C209 C211 1.339 . S
C209 H236 0.931 . S
C210 C211 1.395 . S
C210 C212 1.320 . S
C211 C209 1.339 . S
C211 C210 1.395 . S
C211 H237 0.929 . S
C212 C210 1.320 . S
C212 C213 1.405 . S
C212 H238 0.930 . S
C213 C208 1.479 . S
C213 C212 1.405 . S
C213 H239 0.931 . S
U214 O215 2.454 1_455 S
U214 O216 2.458 1_455 S
U214 C217 2.984 1_455 S
U214 C218 2.847 . S
U214 C231 2.882 . S
U214 O232 2.441 . S
U214 O233 2.420 . S
U214 O234 2.455 . S
U214 O235 2.449 . S
O215 U214 2.454 1_655 S
O215 C217 1.353 . S
O216 U214 2.458 1_655 S
O216 C217 1.286 . S
C217 U214 2.984 1_655 S
C217 O215 1.353 . S
C217 O216 1.286 . S
C217 C219 1.363 . S
C218 C208 1.465 . S
C218 U214 2.847 . S
C218 O232 1.249 . S
C218 O233 1.202 . S
C219 C217 1.363 . S
C219 C221 1.408 . S
C219 C224 1.342 . S
C220 C221 1.310 . S
C220 C223 1.461 . S
C220 H240 0.932 . S
C221 C219 1.408 . S
C221 C220 1.310 . S
C221 H241 0.930 . S
C222 C223 1.474 . S
C222 C224 1.285 . S
C222 H242 0.929 . S
C223 C220 1.461 . S
C223 C222 1.474 . S
C224 C219 1.342 . S
C224 C222 1.285 . S
C224 H243 0.930 . S
C225 C228 1.424 . S
C225 C230 1.245 . S
C225 C231 1.428 . S
C226 C229 1.260 . S
C226 C230 1.477 . S
C226 H244 0.932 . S
C227 C228 1.384 . S
C227 C229 1.479 . S
C227 H245 0.929 . S
C228 C225 1.424 . S
C228 C227 1.384 . S
C228 H246 0.928 . S
C229 C226 1.260 . S
C229 C227 1.479 . S
C230 C225 1.245 . S
C230 C226 1.477 . S
C230 H247 0.932 . S
C231 U214 2.882 . S
C231 C225 1.428 . S
C231 O234 1.301 . S
C231 O235 1.282 . S
O232 U214 2.441 . S
O232 C218 1.249 . S
O233 U214 2.420 . S
O233 C218 1.202 . S
O234 U214 2.455 . S
O234 C231 1.301 . S
O235 U214 2.449 . S
O235 C231 1.282 . S
H236 C209 0.931 . S
H237 C211 0.929 . S
H238 C212 0.930 . S
H239 C213 0.931 . S
H240 C220 0.932 . S
H241 C221 0.930 . S
H242 C222 0.929 . S
H243 C224 0.930 . S
H244 C226 0.932 . S
H245 C227 0.929 . S
H246 C228 0.928 . S
H247 C230 0.932 . S
C248 C249 1.264 . S
C248 C253 1.479 . S
C248 C258 1.465 . S
C249 C248 1.264 . S
C249 C251 1.339 . S
C249 H276 0.931 . S
C250 C251 1.395 . S
C250 C252 1.320 . S
C251 C249 1.339 . S
C251 C250 1.395 . S
C251 H277 0.929 . S
C252 C250 1.320 . S
C252 C253 1.405 . S
C252 H278 0.930 . S
C253 C248 1.479 . S
C253 C252 1.405 . S
C253 H279 0.931 . S
U254 O255 2.454 1_565 S
U254 O256 2.458 1_565 S
U254 C257 2.984 1_565 S
U254 C258 2.847 . S
U254 C271 2.882 . S
U254 O272 2.441 . S
U254 O273 2.420 . S
U254 O274 2.455 . S
U254 O275 2.449 . S
O255 U254 2.454 1_545 S
O255 C257 1.353 . S
O256 U254 2.458 1_545 S
O256 C257 1.286 . S
C257 U254 2.984 1_545 S
C257 O255 1.353 . S
C257 O256 1.286 . S
C257 C259 1.363 . S
C258 C248 1.465 . S
C258 U254 2.847 . S
C258 O272 1.249 . S
C258 O273 1.202 . S
C259 C257 1.363 . S
C259 C261 1.408 . S
C259 C264 1.342 . S
C260 C261 1.310 . S
C260 C263 1.461 . S
C260 H280 0.932 . S
C261 C259 1.408 . S
C261 C260 1.310 . S
C261 H281 0.930 . S
C262 C263 1.474 . S
C262 C264 1.285 . S
C262 H282 0.929 . S
C263 C260 1.461 . S
C263 C262 1.474 . S
C264 C259 1.342 . S
C264 C262 1.285 . S
C264 H283 0.930 . S
C265 C268 1.424 . S
C265 C270 1.245 . S
C265 C271 1.428 . S
C266 C269 1.260 . S
C266 C270 1.477 . S
C266 H284 0.932 . S
C267 C268 1.384 . S
C267 C269 1.479 . S
C267 H285 0.929 . S
C268 C265 1.424 . S
C268 C267 1.384 . S
C268 H286 0.928 . S
C269 C266 1.260 . S
C269 C267 1.479 . S
C270 C265 1.245 . S
C270 C266 1.477 . S
C270 H287 0.932 . S
C271 U254 2.882 . S
C271 C265 1.428 . S
C271 O274 1.301 . S
C271 O275 1.282 . S
O272 U254 2.441 . S
O272 C258 1.249 . S
O273 U254 2.420 . S
O273 C258 1.202 . S
O274 U254 2.455 . S
O274 C271 1.301 . S
O275 U254 2.449 . S
O275 C271 1.282 . S
H276 C249 0.931 . S
H277 C251 0.929 . S
H278 C252 0.930 . S
H279 C253 0.931 . S
H280 C260 0.932 . S
H281 C261 0.930 . S
H282 C262 0.929 . S
H283 C264 0.930 . S
H284 C266 0.932 . S
H285 C267 0.929 . S
H286 C268 0.928 . S
H287 C270 0.932 . S
C288 C289 1.264 . S
C288 C293 1.479 . S
C288 C298 1.465 . S
C289 C288 1.264 . S
C289 C291 1.339 . S
C289 H316 0.931 . S
C290 C291 1.395 . S
C290 C292 1.320 . S
C291 C289 1.339 . S
C291 C290 1.395 . S
C291 H317 0.929 . S
C292 C290 1.320 . S
C292 C293 1.405 . S
C292 H318 0.930 . S
C293 C288 1.479 . S
C293 C292 1.405 . S
C293 H319 0.931 . S
U294 O295 2.459 . S
U294 O296 2.453 1_556 S
U294 C297 2.984 1_556 S
U294 C298 2.857 . S
U294 C311 2.872 1_556 S
U294 O312 2.452 . S
U294 O313 2.427 . S
U294 O314 2.443 1_556 S
U294 O315 2.443 1_556 S
O295 U294 2.459 . S
O295 C297 1.353 1_556 S
O296 U294 2.453 1_554 S
O296 C297 1.286 . S
C297 U294 2.984 1_554 S
C297 O295 1.353 1_554 S
C297 O296 1.286 . S
C297 C299 1.363 . S
C298 C288 1.465 . S
C298 U294 2.857 . S
C298 O312 1.249 . S
C298 O313 1.202 . S
C299 C297 1.363 . S
C299 C301 1.408 1_554 S
C299 C304 1.342 . S
C300 C301 1.310 . S
C300 C303 1.461 1_556 S
C300 H320 0.932 . S
C301 C299 1.408 1_556 S
C301 C300 1.310 . S
C301 H321 0.930 . S
C302 C303 1.474 . S
C302 C304 1.285 . S
C302 H322 0.929 . S
C303 C300 1.461 1_554 S
C303 C302 1.474 . S
C304 C299 1.342 . S
C304 C302 1.285 . S
C304 H323 0.930 . S
C305 C308 1.424 . S
C305 C310 1.245 . S
C305 C311 1.428 . S
C306 C309 1.260 . S
C306 C310 1.477 . S
C306 H324 0.932 . S
C307 C308 1.384 . S
C307 C309 1.479 . S
C307 H325 0.929 . S
C308 C305 1.424 . S
C308 C307 1.384 . S
C308 H326 0.928 . S
C309 C306 1.260 . S
C309 C307 1.479 . S
C310 C305 1.245 . S
C310 C306 1.477 . S
C310 H327 0.932 . S
C311 U294 2.872 1_554 S
C311 C305 1.428 . S
C311 O314 1.301 . S
C311 O315 1.282 . S
O312 U294 2.452 . S
O312 C298 1.249 . S
O313 U294 2.427 . S
O313 C298 1.202 . S
O314 U294 2.443 1_554 S
O314 C311 1.301 . S
O315 U294 2.443 1_554 S
O315 C311 1.282 . S
H316 C289 0.931 . S
H317 C291 0.929 . S
H318 C292 0.930 . S
H319 C293 0.931 . S
H320 C300 0.932 . S
H321 C301 0.930 . S
H322 C302 0.929 . S
H323 C304 0.930 . S
H324 C306 0.932 . S
H325 C307 0.929 . S
H326 C308 0.928 . S
H327 C310 0.932 . S
C328 C329 1.264 . S
C328 C333 1.479 . S
C328 C338 1.465 . S
C329 C328 1.264 . S
C329 C331 1.339 . S
C329 H356 0.931 . S
C330 C331 1.395 . S
C330 C332 1.320 . S
C331 C329 1.339 . S
C331 C330 1.395 . S
C331 H357 0.929 . S
C332 C330 1.320 . S
C332 C333 1.405 . S
C332 H358 0.930 . S
C333 C328 1.479 . S
C333 C332 1.405 . S
C333 H359 0.931 . S
U334 O335 2.454 1_545 S
U334 O336 2.458 1_545 S
U334 C337 2.984 1_545 S
U334 C338 2.847 . S
U334 C351 2.882 . S
U334 O352 2.441 . S
U334 O353 2.420 . S
U334 O354 2.455 . S
U334 O355 2.449 . S
O335 U334 2.454 1_565 S
O335 C337 1.353 . S
O336 U334 2.458 1_565 S
O336 C337 1.286 . S
C337 U334 2.984 1_565 S
C337 O335 1.353 . S
C337 O336 1.286 . S
C337 C339 1.363 . S
C338 C328 1.465 . S
C338 U334 2.847 . S
C338 O352 1.249 . S
C338 O353 1.202 . S
C339 C337 1.363 . S
C339 C341 1.408 . S
C339 C344 1.342 . S
C340 C341 1.310 . S
C340 C343 1.461 . S
C340 H360 0.932 . S
C341 C339 1.408 . S
C341 C340 1.310 . S
C341 H361 0.930 . S
C342 C343 1.474 . S
C342 C344 1.285 . S
C342 H362 0.929 . S
C343 C340 1.461 . S
C343 C342 1.474 . S
C344 C339 1.342 . S
C344 C342 1.285 . S
C344 H363 0.930 . S
C345 C348 1.424 . S
C345 C350 1.245 . S
C345 C351 1.428 . S
C346 C349 1.260 . S
C346 C350 1.477 . S
C346 H364 0.932 . S
C347 C348 1.384 . S
C347 C349 1.479 . S
C347 H365 0.929 . S
C348 C345 1.424 . S
C348 C347 1.384 . S
C348 H366 0.928 . S
C349 C346 1.260 . S
C349 C347 1.479 . S
C350 C345 1.245 . S
C350 C346 1.477 . S
C350 H367 0.932 . S
C351 U334 2.882 . S
C351 C345 1.428 . S
C351 O354 1.301 . S
C351 O355 1.282 . S
O352 U334 2.441 . S
O352 C338 1.249 . S
O353 U334 2.420 . S
O353 C338 1.202 . S
O354 U334 2.455 . S
O354 C351 1.301 . S
O355 U334 2.449 . S
O355 C351 1.282 . S
H356 C329 0.931 . S
H357 C331 0.929 . S
H358 C332 0.930 . S
H359 C333 0.931 . S
H360 C340 0.932 . S
H361 C341 0.930 . S
H362 C342 0.929 . S
H363 C344 0.930 . S
H364 C346 0.932 . S
H365 C347 0.929 . S
H366 C348 0.928 . S
H367 C350 0.932 . S
C368 C369 1.264 . S
C368 C373 1.479 . S
C368 C378 1.465 . S
C369 C368 1.264 . S
C369 C371 1.339 . S
C369 H396 0.931 . S
C370 C371 1.395 . S
C370 C372 1.320 . S
C371 C369 1.339 . S
C371 C370 1.395 . S
C371 H397 0.929 . S
C372 C370 1.320 . S
C372 C373 1.405 . S
C372 H398 0.930 . S
C373 C368 1.479 . S
C373 C372 1.405 . S
C373 H399 0.931 . S
U374 O375 2.454 . S
U374 O376 2.458 1_554 S
U374 C377 2.984 . S
U374 C378 2.847 . S
U374 C391 2.882 1_554 S
U374 O392 2.441 . S
U374 O393 2.420 . S
U374 O394 2.455 1_554 S
U374 O395 2.449 1_554 S
O375 U374 2.454 . S
O375 C377 1.353 . S
O376 U374 2.458 1_556 S
O376 C377 1.286 1_556 S
C377 U374 2.984 . S
C377 O375 1.353 . S
C377 O376 1.286 1_554 S
C377 C379 1.363 . S
C378 C368 1.465 . S
C378 U374 2.847 . S
C378 O392 1.249 . S
C378 O393 1.202 . S
C379 C377 1.363 . S
C379 C381 1.408 . S
C379 C384 1.342 1_554 S
C380 C381 1.310 . S
C380 C383 1.461 . S
C380 H400 0.932 . S
C381 C379 1.408 . S
C381 C380 1.310 . S
C381 H401 0.930 . S
C382 C383 1.474 1_556 S
C382 C384 1.285 . S
C382 H402 0.929 . S
C383 C380 1.461 . S
C383 C382 1.474 1_554 S
C384 C379 1.342 1_556 S
C384 C382 1.285 . S
C384 H403 0.930 . S
C385 C388 1.424 . S
C385 C390 1.245 . S
C385 C391 1.428 . S
C386 C389 1.260 . S
C386 C390 1.477 . S
C386 H404 0.932 . S
C387 C388 1.384 . S
C387 C389 1.479 . S
C387 H405 0.929 . S
C388 C385 1.424 . S
C388 C387 1.384 . S
C388 H406 0.928 . S
C389 C386 1.260 . S
C389 C387 1.479 . S
C390 C385 1.245 . S
C390 C386 1.477 . S
C390 H407 0.932 . S
C391 U374 2.882 1_556 S
C391 C385 1.428 . S
C391 O394 1.301 . S
C391 O395 1.282 . S
O392 U374 2.441 . S
O392 C378 1.249 . S
O393 U374 2.420 . S
O393 C378 1.202 . S
O394 U374 2.455 1_556 S
O394 C391 1.301 . S
O395 U374 2.449 1_556 S
O395 C391 1.282 . S
H396 C369 0.931 . S
H397 C371 0.929 . S
H398 C372 0.930 . S
H399 C373 0.931 . S
H400 C380 0.932 . S
H401 C381 0.930 . S
H402 C382 0.929 . S
H403 C384 0.930 . S
H404 C386 0.932 . S
H405 C387 0.929 . S
H406 C388 0.928 . S
H407 C390 0.932 . S
H408 C416 0.929 . S
H409 C418 0.930 . S
H410 C420 0.930 . S
H411 C423 0.929 . S
H412 C426 0.930 . S
H413 C428 0.960 . S
H414 C428 0.960 . S
H415 C428 0.960 . S
C416 H408 0.929 . S
C416 C417 1.377 . S
C416 C418 1.384 . S
C417 C416 1.377 . S
C417 C423 1.390 . S
C418 H409 0.930 . S
C418 C416 1.384 . S
C418 C419 1.372 . S
C419 C418 1.372 . S
C419 C420 1.400 . S
C419 C424 1.490 . S
C420 H410 0.930 . S
C420 C419 1.400 . S
C420 C423 1.386 . S
H421 C437 0.930 . S
H422 C438 0.931 . S
C423 H411 0.929 . S
C423 C417 1.390 . S
C423 C420 1.386 . S
C424 C419 1.490 . S
C424 C426 1.395 . S
C424 C427 1.403 . S
H425 C431 0.930 . S
C426 H412 0.930 . S
C426 C424 1.395 . S
C426 C429 1.403 . S
C427 C424 1.403 . S
C427 C428 1.524 . S
C427 C431 1.400 . S
C428 H413 0.960 . S
C428 H414 0.960 . S
C428 H415 0.960 . S
C428 C427 1.524 . S
C429 C426 1.403 . S
C429 C430 1.392 . S
C429 C433 1.495 . S
C430 C429 1.392 . S
C430 C431 1.385 . S
C430 C432 1.478 . S
C431 H425 0.930 . S
C431 C427 1.400 . S
C431 C430 1.385 . S
C432 C430 1.478 . S
C432 C434 1.381 . S
C432 C438 1.383 . S
C433 C429 1.495 . S
C433 H439 0.959 . S
C433 H440 0.961 . S
C433 H441 0.960 . S
C434 C432 1.381 . S
C434 C435 1.394 . S
C434 H442 0.930 . S
C435 C434 1.394 . S
C435 C436 1.383 . S
C435 H443 0.929 . S
C436 C435 1.383 . S
C436 C437 1.377 . S
C437 H421 0.930 . S
C437 C436 1.377 . S
C437 C438 1.379 . S
C438 H422 0.931 . S
C438 C432 1.383 . S
C438 C437 1.379 . S
H439 C433 0.959 . S
H440 C433 0.961 . S
H441 C433 0.960 . S
H442 C434 0.930 . S
H443 C435 0.929 . S
H444 C452 0.929 . S
H445 C454 0.930 . S
H446 C456 0.930 . S
H447 C459 0.929 . S
H448 C462 0.930 . S
H449 C464 0.960 . S
H450 C464 0.960 . S
H451 C464 0.960 . S
C452 H444 0.929 . S
C452 C453 1.377 . S
C452 C454 1.384 . S
C453 C452 1.377 . S
C453 C459 1.390 . S
C454 H445 0.930 . S
C454 C452 1.384 . S
C454 C455 1.372 . S
C455 C454 1.372 . S
C455 C456 1.400 . S
C455 C460 1.490 . S
C456 H446 0.930 . S
C456 C455 1.400 . S
C456 C459 1.386 . S
H457 C473 0.930 . S
H458 C474 0.931 . S
C459 H447 0.929 . S
C459 C453 1.390 . S
C459 C456 1.386 . S
C460 C455 1.490 . S
C460 C462 1.395 . S
C460 C463 1.403 . S
H461 C467 0.930 . S
C462 H448 0.930 . S
C462 C460 1.395 . S
C462 C465 1.403 . S
C463 C460 1.403 . S
C463 C464 1.524 . S
C463 C467 1.400 . S
C464 H449 0.960 . S
C464 H450 0.960 . S
C464 H451 0.960 . S
C464 C463 1.524 . S
C465 C462 1.403 . S
C465 C466 1.392 . S
C465 C469 1.495 . S
C466 C465 1.392 . S
C466 C467 1.385 . S
C466 C468 1.478 . S
C467 H461 0.930 . S
C467 C463 1.400 . S
C467 C466 1.385 . S
C468 C466 1.478 . S
C468 C470 1.381 . S
C468 C474 1.383 . S
C469 C465 1.495 . S
C469 H475 0.959 . S
C469 H476 0.961 . S
C469 H477 0.960 . S
C470 C468 1.381 . S
C470 C471 1.394 . S
C470 H478 0.930 . S
C471 C470 1.394 . S
C471 C472 1.383 . S
C471 H479 0.929 . S
C472 C471 1.383 . S
C472 C473 1.377 . S
C473 H457 0.930 . S
C473 C472 1.377 . S
C473 C474 1.379 . S
C474 H458 0.931 . S
C474 C468 1.383 . S
C474 C473 1.379 . S
H475 C469 0.959 . S
H476 C469 0.961 . S
H477 C469 0.960 . S
H478 C470 0.930 . S
H479 C471 0.929 . S
H480 C488 0.929 . S
H481 C490 0.930 . S
H482 C492 0.930 . S
H483 C495 0.929 . S
H484 C498 0.930 . S
H485 C500 0.960 . S
H486 C500 0.960 . S
H487 C500 0.960 . S
C488 H480 0.929 . S
C488 C489 1.377 . S
C488 C490 1.384 . S
C489 C488 1.377 . S
C489 C495 1.390 . S
C490 H481 0.930 . S
C490 C488 1.384 . S
C490 C491 1.372 . S
C491 C490 1.372 . S
C491 C492 1.400 . S
C491 C496 1.490 . S
C492 H482 0.930 . S
C492 C491 1.400 . S
C492 C495 1.386 . S
H493 C509 0.930 . S
H494 C510 0.931 . S
C495 H483 0.929 . S
C495 C489 1.390 . S
C495 C492 1.386 . S
C496 C491 1.490 . S
C496 C498 1.395 . S
C496 C499 1.403 . S
H497 C503 0.930 . S
C498 H484 0.930 . S
C498 C496 1.395 . S
C498 C501 1.403 . S
C499 C496 1.403 . S
C499 C500 1.524 . S
C499 C503 1.400 . S
C500 H485 0.960 . S
C500 H486 0.960 . S
C500 H487 0.960 . S
C500 C499 1.524 . S
C501 C498 1.403 . S
C501 C502 1.392 . S
C501 C505 1.495 . S
C502 C501 1.392 . S
C502 C503 1.385 . S
C502 C504 1.478 . S
C503 H497 0.930 . S
C503 C499 1.400 . S
C503 C502 1.385 . S
C504 C502 1.478 . S
C504 C506 1.381 . S
C504 C510 1.383 . S
C505 C501 1.495 . S
C505 H511 0.959 . S
C505 H512 0.961 . S
C505 H513 0.960 . S
C506 C504 1.381 . S
C506 C507 1.394 . S
C506 H514 0.930 . S
C507 C506 1.394 . S
C507 C508 1.383 . S
C507 H515 0.929 . S
C508 C507 1.383 . S
C508 C509 1.377 . S
C509 H493 0.930 . S
C509 C508 1.377 . S
C509 C510 1.379 . S
C510 H494 0.931 . S
C510 C504 1.383 . S
C510 C509 1.379 . S
H511 C505 0.959 . S
H512 C505 0.961 . S
H513 C505 0.960 . S
H514 C506 0.930 . S
H515 C507 0.929 . S
H516 C524 0.929 . S
H517 C526 0.930 . S
H518 C528 0.930 . S
H519 C531 0.929 . S
H520 C534 0.930 . S
H521 C536 0.960 . S
H522 C536 0.960 . S
H523 C536 0.960 . S
C524 H516 0.929 . S
C524 C525 1.377 . S
C524 C526 1.384 . S
C525 C524 1.377 . S
C525 C531 1.390 . S
C526 H517 0.930 . S
C526 C524 1.384 . S
C526 C527 1.372 . S
C527 C526 1.372 . S
C527 C528 1.400 . S
C527 C532 1.490 . S
C528 H518 0.930 . S
C528 C527 1.400 . S
C528 C531 1.386 . S
H529 C545 0.930 . S
H530 C546 0.931 . S
C531 H519 0.929 . S
C531 C525 1.390 . S
C531 C528 1.386 . S
C532 C527 1.490 . S
C532 C534 1.395 . S
C532 C535 1.403 . S
H533 C539 0.930 . S
C534 H520 0.930 . S
C534 C532 1.395 . S
C534 C537 1.403 . S
C535 C532 1.403 . S
C535 C536 1.524 . S
C535 C539 1.400 . S
C536 H521 0.960 . S
C536 H522 0.960 . S
C536 H523 0.960 . S
C536 C535 1.524 . S
C537 C534 1.403 . S
C537 C538 1.392 . S
C537 C541 1.495 . S
C538 C537 1.392 . S
C538 C539 1.385 . S
C538 C540 1.478 . S
C539 H533 0.930 . S
C539 C535 1.400 . S
C539 C538 1.385 . S
C540 C538 1.478 . S
C540 C542 1.381 . S
C540 C546 1.383 . S
C541 C537 1.495 . S
C541 H547 0.959 . S
C541 H548 0.961 . S
C541 H549 0.960 . S
C542 C540 1.381 . S
C542 C543 1.394 . S
C542 H550 0.930 . S
C543 C542 1.394 . S
C543 C544 1.383 . S
C543 H551 0.929 . S
C544 C543 1.383 . S
C544 C545 1.377 . S
C545 H529 0.930 . S
C545 C544 1.377 . S
C545 C546 1.379 . S
C546 H530 0.931 . S
C546 C540 1.383 . S
C546 C545 1.379 . S
H547 C541 0.959 . S
H548 C541 0.961 . S
H549 C541 0.960 . S
H550 C542 0.930 . S
H551 C543 0.929 . S
H552 C560 0.929 . S
H553 C562 0.930 . S
H554 C564 0.930 . S
H555 C567 0.929 . S
H556 C570 0.930 . S
H557 C572 0.960 . S
H558 C572 0.960 . S
H559 C572 0.960 . S
C560 H552 0.929 . S
C560 C561 1.377 . S
C560 C562 1.384 . S
C561 C560 1.377 . S
C561 C567 1.390 . S
C562 H553 0.930 . S
C562 C560 1.384 . S
C562 C563 1.372 . S
C563 C562 1.372 . S
C563 C564 1.400 . S
C563 C568 1.490 . S
C564 H554 0.930 . S
C564 C563 1.400 . S
C564 C567 1.386 . S
H565 C581 0.930 . S
H566 C582 0.931 . S
C567 H555 0.929 . S
C567 C561 1.390 . S
C567 C564 1.386 . S
C568 C563 1.490 . S
C568 C570 1.395 . S
C568 C571 1.403 . S
H569 C575 0.930 . S
C570 H556 0.930 . S
C570 C568 1.395 . S
C570 C573 1.403 . S
C571 C568 1.403 . S
C571 C572 1.524 . S
C571 C575 1.400 . S
C572 H557 0.960 . S
C572 H558 0.960 . S
C572 H559 0.960 . S
C572 C571 1.524 . S
C573 C570 1.403 . S
C573 C574 1.392 . S
C573 C577 1.495 . S
C574 C573 1.392 . S
C574 C575 1.385 . S
C574 C576 1.478 . S
C575 H569 0.930 . S
C575 C571 1.400 . S
C575 C574 1.385 . S
C576 C574 1.478 . S
C576 C578 1.381 . S
C576 C582 1.383 . S
C577 C573 1.495 . S
C577 H583 0.959 . S
C577 H584 0.961 . S
C577 H585 0.960 . S
C578 C576 1.381 . S
C578 C579 1.394 . S
C578 H586 0.930 . S
C579 C578 1.394 . S
C579 C580 1.383 . S
C579 H587 0.929 . S
C580 C579 1.383 . S
C580 C581 1.377 . S
C581 H565 0.930 . S
C581 C580 1.377 . S
C581 C582 1.379 . S
C582 H566 0.931 . S
C582 C576 1.383 . S
C582 C581 1.379 . S
H583 C577 0.959 . S
H584 C577 0.961 . S
H585 C577 0.960 . S
H586 C578 0.930 . S
H587 C579 0.929 . S
H588 C596 0.929 . S
H589 C598 0.930 . S
H590 C600 0.930 . S
H591 C603 0.929 . S
H592 C606 0.930 . S
H593 C608 0.960 . S
H594 C608 0.960 . S
H595 C608 0.960 . S
C596 H588 0.929 . S
C596 C597 1.377 . S
C596 C598 1.384 . S
C597 C596 1.377 . S
C597 C603 1.390 . S
C598 H589 0.930 . S
C598 C596 1.384 . S
C598 C599 1.372 . S
C599 C598 1.372 . S
C599 C600 1.400 . S
C599 C604 1.490 . S
C600 H590 0.930 . S
C600 C599 1.400 . S
C600 C603 1.386 . S
H601 C617 0.930 . S
H602 C618 0.931 . S
C603 H591 0.929 . S
C603 C597 1.390 . S
C603 C600 1.386 . S
C604 C599 1.490 . S
C604 C606 1.395 . S
C604 C607 1.403 . S
H605 C611 0.930 . S
C606 H592 0.930 . S
C606 C604 1.395 . S
C606 C609 1.403 . S
C607 C604 1.403 . S
C607 C608 1.524 . S
C607 C611 1.400 . S
C608 H593 0.960 . S
C608 H594 0.960 . S
C608 H595 0.960 . S
C608 C607 1.524 . S
C609 C606 1.403 . S
C609 C610 1.392 . S
C609 C613 1.495 . S
C610 C609 1.392 . S
C610 C611 1.385 . S
C610 C612 1.478 . S
C611 H605 0.930 . S
C611 C607 1.400 . S
C611 C610 1.385 . S
C612 C610 1.478 . S
C612 C614 1.381 . S
C612 C618 1.383 . S
C613 C609 1.495 . S
C613 H619 0.959 . S
C613 H620 0.961 . S
C613 H621 0.960 . S
C614 C612 1.381 . S
C614 C615 1.394 . S
C614 H622 0.930 . S
C615 C614 1.394 . S
C615 C616 1.383 . S
C615 H623 0.929 . S
C616 C615 1.383 . S
C616 C617 1.377 . S
C617 H601 0.930 . S
C617 C616 1.377 . S
C617 C618 1.379 . S
C618 H602 0.931 . S
C618 C612 1.383 . S
C618 C617 1.379 . S
H619 C613 0.959 . S
H620 C613 0.961 . S
H621 C613 0.960 . S
H622 C614 0.930 . S
H623 C615 0.929 . S
H624 C632 0.929 . S
H625 C634 0.930 . S
H626 C636 0.930 . S
H627 C639 0.929 . S
H628 C642 0.930 . S
H629 C644 0.960 . S
H630 C644 0.960 . S
H631 C644 0.960 . S
C632 H624 0.929 . S
C632 C633 1.377 . S
C632 C634 1.384 . S
C633 C632 1.377 . S
C633 C639 1.390 . S
C634 H625 0.930 . S
C634 C632 1.384 . S
C634 C635 1.372 . S
C635 C634 1.372 . S
C635 C636 1.400 . S
C635 C640 1.490 . S
C636 H626 0.930 . S
C636 C635 1.400 . S
C636 C639 1.386 . S
H637 C653 0.930 . S
H638 C654 0.931 . S
C639 H627 0.929 . S
C639 C633 1.390 . S
C639 C636 1.386 . S
C640 C635 1.490 . S
C640 C642 1.395 . S
C640 C643 1.403 . S
H641 C647 0.930 . S
C642 H628 0.930 . S
C642 C640 1.395 . S
C642 C645 1.403 . S
C643 C640 1.403 . S
C643 C644 1.524 . S
C643 C647 1.400 . S
C644 H629 0.960 . S
C644 H630 0.960 . S
C644 H631 0.960 . S
C644 C643 1.524 . S
C645 C642 1.403 . S
C645 C646 1.392 . S
C645 C649 1.495 . S
C646 C645 1.392 . S
C646 C647 1.385 . S
C646 C648 1.478 . S
C647 H641 0.930 . S
C647 C643 1.400 . S
C647 C646 1.385 . S
C648 C646 1.478 . S
C648 C650 1.381 . S
C648 C654 1.383 . S
C649 C645 1.495 . S
C649 H655 0.959 . S
C649 H656 0.961 . S
C649 H657 0.960 . S
C650 C648 1.381 . S
C650 C651 1.394 . S
C650 H658 0.930 . S
C651 C650 1.394 . S
C651 C652 1.383 . S
C651 H659 0.929 . S
C652 C651 1.383 . S
C652 C653 1.377 . S
C653 H637 0.930 . S
C653 C652 1.377 . S
C653 C654 1.379 . S
C654 H638 0.931 . S
C654 C648 1.383 . S
C654 C653 1.379 . S
H655 C649 0.959 . S
H656 C649 0.961 . S
H657 C649 0.960 . S
H658 C650 0.930 . S
H659 C651 0.929 . S
H660 C668 0.929 . S
H661 C670 0.930 . S
H662 C672 0.930 . S
H663 C675 0.929 . S
H664 C678 0.930 . S
H665 C680 0.960 . S
H666 C680 0.960 . S
H667 C680 0.960 . S
C668 H660 0.929 . S
C668 C669 1.377 . S
C668 C670 1.384 . S
C669 C668 1.377 . S
C669 C675 1.390 . S
C670 H661 0.930 . S
C670 C668 1.384 . S
C670 C671 1.372 . S
C671 C670 1.372 . S
C671 C672 1.400 . S
C671 C676 1.490 . S
C672 H662 0.930 . S
C672 C671 1.400 . S
C672 C675 1.386 . S
H673 C689 0.930 . S
H674 C690 0.931 . S
C675 H663 0.929 . S
C675 C669 1.390 . S
C675 C672 1.386 . S
C676 C671 1.490 . S
C676 C678 1.395 . S
C676 C679 1.403 . S
H677 C683 0.930 . S
C678 H664 0.930 . S
C678 C676 1.395 . S
C678 C681 1.403 . S
C679 C676 1.403 . S
C679 C680 1.524 . S
C679 C683 1.400 . S
C680 H665 0.960 . S
C680 H666 0.960 . S
C680 H667 0.960 . S
C680 C679 1.524 . S
C681 C678 1.403 . S
C681 C682 1.392 . S
C681 C685 1.495 . S
C682 C681 1.392 . S
C682 C683 1.385 . S
C682 C684 1.478 . S
C683 H677 0.930 . S
C683 C679 1.400 . S
C683 C682 1.385 . S
C684 C682 1.478 . S
C684 C686 1.381 . S
C684 C690 1.383 . S
C685 C681 1.495 . S
C685 H691 0.959 . S
C685 H692 0.961 . S
C685 H693 0.960 . S
C686 C684 1.381 . S
C686 C687 1.394 . S
C686 H694 0.930 . S
C687 C686 1.394 . S
C687 C688 1.383 . S
C687 H695 0.929 . S
C688 C687 1.383 . S
C688 C689 1.377 . S
C689 H673 0.930 . S
C689 C688 1.377 . S
C689 C690 1.379 . S
C690 H674 0.931 . S
C690 C684 1.383 . S
C690 C689 1.379 . S
H691 C685 0.959 . S
H692 C685 0.961 . S
H693 C685 0.960 . S
H694 C686 0.930 . S
H695 C687 0.929 . S
H696 C704 0.929 . S
H697 C706 0.930 . S
H698 C708 0.930 . S
H699 C711 0.929 . S
H700 C714 0.930 . S
H701 C716 0.960 . S
H702 C716 0.960 . S
H703 C716 0.960 . S
C704 H696 0.929 . S
C704 C705 1.377 . S
C704 C706 1.384 . S
C705 C704 1.377 . S
C705 C711 1.390 . S
C706 H697 0.930 . S
C706 C704 1.384 . S
C706 C707 1.372 . S
C707 C706 1.372 . S
C707 C708 1.400 . S
C707 C712 1.490 . S
C708 H698 0.930 . S
C708 C707 1.400 . S
C708 C711 1.386 . S
H709 C725 0.930 . S
H710 C726 0.931 . S
C711 H699 0.929 . S
C711 C705 1.390 . S
C711 C708 1.386 . S
C712 C707 1.490 . S
C712 C714 1.395 . S
C712 C715 1.403 . S
H713 C719 0.930 . S
C714 H700 0.930 . S
C714 C712 1.395 . S
C714 C717 1.403 . S
C715 C712 1.403 . S
C715 C716 1.524 . S
C715 C719 1.400 . S
C716 H701 0.960 . S
C716 H702 0.960 . S
C716 H703 0.960 . S
C716 C715 1.524 . S
C717 C714 1.403 . S
C717 C718 1.392 . S
C717 C721 1.495 . S
C718 C717 1.392 . S
C718 C719 1.385 . S
C718 C720 1.478 . S
C719 H713 0.930 . S
C719 C715 1.400 . S
C719 C718 1.385 . S
C720 C718 1.478 . S
C720 C722 1.381 . S
C720 C726 1.383 . S
C721 C717 1.495 . S
C721 H727 0.959 . S
C721 H728 0.961 . S
C721 H729 0.960 . S
C722 C720 1.381 . S
C722 C723 1.394 . S
C722 H730 0.930 . S
C723 C722 1.394 . S
C723 C724 1.383 . S
C723 H731 0.929 . S
C724 C723 1.383 . S
C724 C725 1.377 . S
C725 H709 0.930 . S
C725 C724 1.377 . S
C725 C726 1.379 . S
C726 H710 0.931 . S
C726 C720 1.383 . S
C726 C725 1.379 . S
H727 C721 0.959 . S
H728 C721 0.961 . S
H729 C721 0.960 . S
H730 C722 0.930 . S
H731 C723 0.929 . S
H732 C740 0.929 . S
H733 C742 0.930 . S
H734 C744 0.930 . S
H735 C747 0.929 . S
H736 C750 0.930 . S
H737 C752 0.960 . S
H738 C752 0.960 . S
H739 C752 0.960 . S
C740 H732 0.929 . S
C740 C741 1.377 . S
C740 C742 1.384 . S
C741 C740 1.377 . S
C741 C747 1.390 . S
C742 H733 0.930 . S
C742 C740 1.384 . S
C742 C743 1.372 . S
C743 C742 1.372 . S
C743 C744 1.400 . S
C743 C748 1.490 . S
C744 H734 0.930 . S
C744 C743 1.400 . S
C744 C747 1.386 . S
H745 C761 0.930 . S
H746 C762 0.931 . S
C747 H735 0.929 . S
C747 C741 1.390 . S
C747 C744 1.386 . S
C748 C743 1.490 . S
C748 C750 1.395 . S
C748 C751 1.403 . S
H749 C755 0.930 . S
C750 H736 0.930 . S
C750 C748 1.395 . S
C750 C753 1.403 . S
C751 C748 1.403 . S
C751 C752 1.524 . S
C751 C755 1.400 . S
C752 H737 0.960 . S
C752 H738 0.960 . S
C752 H739 0.960 . S
C752 C751 1.524 . S
C753 C750 1.403 . S
C753 C754 1.392 . S
C753 C757 1.495 . S
C754 C753 1.392 . S
C754 C755 1.385 . S
C754 C756 1.478 . S
C755 H749 0.930 . S
C755 C751 1.400 . S
C755 C754 1.385 . S
C756 C754 1.478 . S
C756 C758 1.381 . S
C756 C762 1.383 . S
C757 C753 1.495 . S
C757 H763 0.959 . S
C757 H764 0.961 . S
C757 H765 0.960 . S
C758 C756 1.381 . S
C758 C759 1.394 . S
C758 H766 0.930 . S
C759 C758 1.394 . S
C759 C760 1.383 . S
C759 H767 0.929 . S
C760 C759 1.383 . S
C760 C761 1.377 . S
C761 H745 0.930 . S
C761 C760 1.377 . S
C761 C762 1.379 . S
C762 H746 0.931 . S
C762 C756 1.383 . S
C762 C761 1.379 . S
H763 C757 0.959 . S
H764 C757 0.961 . S
H765 C757 0.960 . S
H766 C758 0.930 . S
H767 C759 0.929 . S
H768 C776 0.929 . S
H769 C778 0.930 . S
H770 C780 0.930 . S
H771 C783 0.929 . S
H772 C786 0.930 . S
H773 C788 0.960 . S
H774 C788 0.960 . S
H775 C788 0.960 . S
C776 H768 0.929 . S
C776 C777 1.377 . S
C776 C778 1.384 . S
C777 C776 1.377 . S
C777 C783 1.390 . S
C778 H769 0.930 . S
C778 C776 1.384 . S
C778 C779 1.372 . S
C779 C778 1.372 . S
C779 C780 1.400 . S
C779 C784 1.490 . S
C780 H770 0.930 . S
C780 C779 1.400 . S
C780 C783 1.386 . S
H781 C797 0.930 . S
H782 C798 0.931 . S
C783 H771 0.929 . S
C783 C777 1.390 . S
C783 C780 1.386 . S
C784 C779 1.490 . S
C784 C786 1.395 . S
C784 C787 1.403 . S
H785 C791 0.930 . S
C786 H772 0.930 . S
C786 C784 1.395 . S
C786 C789 1.403 . S
C787 C784 1.403 . S
C787 C788 1.524 . S
C787 C791 1.400 . S
C788 H773 0.960 . S
C788 H774 0.960 . S
C788 H775 0.960 . S
C788 C787 1.524 . S
C789 C786 1.403 . S
C789 C790 1.392 . S
C789 C793 1.495 . S
C790 C789 1.392 . S
C790 C791 1.385 . S
C790 C792 1.478 . S
C791 H785 0.930 . S
C791 C787 1.400 . S
C791 C790 1.385 . S
C792 C790 1.478 . S
C792 C794 1.381 . S
C792 C798 1.383 . S
C793 C789 1.495 . S
C793 H799 0.959 . S
C793 H800 0.961 . S
C793 H801 0.960 . S
C794 C792 1.381 . S
C794 C795 1.394 . S
C794 H802 0.930 . S
C795 C794 1.394 . S
C795 C796 1.383 . S
C795 H803 0.929 . S
C796 C795 1.383 . S
C796 C797 1.377 . S
C797 H781 0.930 . S
C797 C796 1.377 . S
C797 C798 1.379 . S
C798 H782 0.931 . S
C798 C792 1.383 . S
C798 C797 1.379 . S
H799 C793 0.959 . S
H800 C793 0.961 . S
H801 C793 0.960 . S
H802 C794 0.930 . S
H803 C795 0.929 . S
H804 C812 0.929 . S
H805 C814 0.930 . S
H806 C816 0.930 . S
H807 C819 0.929 . S
H808 C822 0.930 . S
H809 C824 0.960 . S
H810 C824 0.960 . S
H811 C824 0.960 . S
C812 H804 0.929 . S
C812 C813 1.377 . S
C812 C814 1.384 . S
C813 C812 1.377 . S
C813 C819 1.390 . S
C814 H805 0.930 . S
C814 C812 1.384 . S
C814 C815 1.372 . S
C815 C814 1.372 . S
C815 C816 1.400 . S
C815 C820 1.490 . S
C816 H806 0.930 . S
C816 C815 1.400 . S
C816 C819 1.386 . S
H817 C833 0.930 . S
H818 C834 0.931 . S
C819 H807 0.929 . S
C819 C813 1.390 . S
C819 C816 1.386 . S
C820 C815 1.490 . S
C820 C822 1.395 . S
C820 C823 1.403 . S
H821 C827 0.930 . S
C822 H808 0.930 . S
C822 C820 1.395 . S
C822 C825 1.403 . S
C823 C820 1.403 . S
C823 C824 1.524 . S
C823 C827 1.400 . S
C824 H809 0.960 . S
C824 H810 0.960 . S
C824 H811 0.960 . S
C824 C823 1.524 . S
C825 C822 1.403 . S
C825 C826 1.392 . S
C825 C829 1.495 . S
C826 C825 1.392 . S
C826 C827 1.385 . S
C826 C828 1.478 . S
C827 H821 0.930 . S
C827 C823 1.400 . S
C827 C826 1.385 . S
C828 C826 1.478 . S
C828 C830 1.381 . S
C828 C834 1.383 . S
C829 C825 1.495 . S
C829 H835 0.959 . S
C829 H836 0.961 . S
C829 H837 0.960 . S
C830 C828 1.381 . S
C830 C831 1.394 . S
C830 H838 0.930 . S
C831 C830 1.394 . S
C831 C832 1.383 . S
C831 H839 0.929 . S
C832 C831 1.383 . S
C832 C833 1.377 . S
C833 H817 0.930 . S
C833 C832 1.377 . S
C833 C834 1.379 . S
C834 H818 0.931 . S
C834 C828 1.383 . S
C834 C833 1.379 . S
H835 C829 0.959 . S
H836 C829 0.961 . S
H837 C829 0.960 . S
H838 C830 0.930 . S
H839 C831 0.929 . S
H840 C848 0.929 . S
H841 C850 0.930 . S
H842 C852 0.930 . S
H843 C855 0.929 . S
H844 C858 0.930 . S
H845 C860 0.960 . S
H846 C860 0.960 . S
H847 C860 0.960 . S
C848 H840 0.929 . S
C848 C849 1.377 . S
C848 C850 1.384 . S
C849 C848 1.377 . S
C849 C855 1.390 . S
C850 H841 0.930 . S
C850 C848 1.384 . S
C850 C851 1.372 . S
C851 C850 1.372 . S
C851 C852 1.400 . S
C851 C856 1.490 . S
C852 H842 0.930 . S
C852 C851 1.400 . S
C852 C855 1.386 . S
H853 C869 0.930 . S
H854 C870 0.931 . S
C855 H843 0.929 . S
C855 C849 1.390 . S
C855 C852 1.386 . S
C856 C851 1.490 . S
C856 C858 1.395 . S
C856 C859 1.403 . S
H857 C863 0.930 . S
C858 H844 0.930 . S
C858 C856 1.395 . S
C858 C861 1.403 . S
C859 C856 1.403 . S
C859 C860 1.524 . S
C859 C863 1.400 . S
C860 H845 0.960 . S
C860 H846 0.960 . S
C860 H847 0.960 . S
C860 C859 1.524 . S
C861 C858 1.403 . S
C861 C862 1.392 . S
C861 C865 1.495 . S
C862 C861 1.392 . S
C862 C863 1.385 . S
C862 C864 1.478 . S
C863 H857 0.930 . S
C863 C859 1.400 . S
C863 C862 1.385 . S
C864 C862 1.478 . S
C864 C866 1.381 . S
C864 C870 1.383 . S
C865 C861 1.495 . S
C865 H871 0.959 . S
C865 H872 0.961 . S
C865 H873 0.960 . S
C866 C864 1.381 . S
C866 C867 1.394 . S
C866 H874 0.930 . S
C867 C866 1.394 . S
C867 C868 1.383 . S
C867 H875 0.929 . S
C868 C867 1.383 . S
C868 C869 1.377 . S
C869 H853 0.930 . S
C869 C868 1.377 . S
C869 C870 1.379 . S
C870 H854 0.931 . S
C870 C864 1.383 . S
C870 C869 1.379 . S
H871 C865 0.959 . S
H872 C865 0.961 . S
H873 C865 0.960 . S
H874 C866 0.930 . S
H875 C867 0.929 . S
H876 C884 0.929 . S
H877 C886 0.930 . S
H878 C888 0.930 . S
H879 C891 0.929 . S
H880 C894 0.930 . S
H881 C896 0.960 . S
H882 C896 0.960 . S
H883 C896 0.960 . S
C884 H876 0.929 . S
C884 C885 1.377 . S
C884 C886 1.384 . S
C885 C884 1.377 . S
C885 C891 1.390 . S
C886 H877 0.930 . S
C886 C884 1.384 . S
C886 C887 1.372 . S
C887 C886 1.372 . S
C887 C888 1.400 . S
C887 C892 1.490 . S
C888 H878 0.930 . S
C888 C887 1.400 . S
C888 C891 1.386 . S
H889 C905 0.930 . S
H890 C906 0.931 . S
C891 H879 0.929 . S
C891 C885 1.390 . S
C891 C888 1.386 . S
C892 C887 1.490 . S
C892 C894 1.395 . S
C892 C895 1.403 . S
H893 C899 0.930 . S
C894 H880 0.930 . S
C894 C892 1.395 . S
C894 C897 1.403 . S
C895 C892 1.403 . S
C895 C896 1.524 . S
C895 C899 1.400 . S
C896 H881 0.960 . S
C896 H882 0.960 . S
C896 H883 0.960 . S
C896 C895 1.524 . S
C897 C894 1.403 . S
C897 C898 1.392 . S
C897 C901 1.495 . S
C898 C897 1.392 . S
C898 C899 1.385 . S
C898 C900 1.478 . S
C899 H893 0.930 . S
C899 C895 1.400 . S
C899 C898 1.385 . S
C900 C898 1.478 . S
C900 C902 1.381 . S
C900 C906 1.383 . S
C901 C897 1.495 . S
C901 H907 0.959 . S
C901 H908 0.961 . S
C901 H909 0.960 . S
C902 C900 1.381 . S
C902 C903 1.394 . S
C902 H910 0.930 . S
C903 C902 1.394 . S
C903 C904 1.383 . S
C903 H911 0.929 . S
C904 C903 1.383 . S
C904 C905 1.377 . S
C905 H889 0.930 . S
C905 C904 1.377 . S
C905 C906 1.379 . S
C906 H890 0.931 . S
C906 C900 1.383 . S
C906 C905 1.379 . S
H907 C901 0.959 . S
H908 C901 0.961 . S
H909 C901 0.960 . S
H910 C902 0.930 . S
H911 C903 0.929 . S
H912 C920 0.929 . S
H913 C922 0.930 . S
H914 C924 0.930 . S
H915 C927 0.929 . S
H916 C930 0.930 . S
H917 C932 0.960 . S
H918 C932 0.960 . S
H919 C932 0.960 . S
C920 H912 0.929 . S
C920 C921 1.377 . S
C920 C922 1.384 . S
C921 C920 1.377 . S
C921 C927 1.390 . S
C922 H913 0.930 . S
C922 C920 1.384 . S
C922 C923 1.372 . S
C923 C922 1.372 . S
C923 C924 1.400 . S
C923 C928 1.490 . S
C924 H914 0.930 . S
C924 C923 1.400 . S
C924 C927 1.386 . S
H925 C941 0.930 . S
H926 C942 0.931 . S
C927 H915 0.929 . S
C927 C921 1.390 . S
C927 C924 1.386 . S
C928 C923 1.490 . S
C928 C930 1.395 . S
C928 C931 1.403 . S
H929 C935 0.930 . S
C930 H916 0.930 . S
C930 C928 1.395 . S
C930 C933 1.403 . S
C931 C928 1.403 . S
C931 C932 1.524 . S
C931 C935 1.400 . S
C932 H917 0.960 . S
C932 H918 0.960 . S
C932 H919 0.960 . S
C932 C931 1.524 . S
C933 C930 1.403 . S
C933 C934 1.392 . S
C933 C937 1.495 . S
C934 C933 1.392 . S
C934 C935 1.385 . S
C934 C936 1.478 . S
C935 H929 0.930 . S
C935 C931 1.400 . S
C935 C934 1.385 . S
C936 C934 1.478 . S
C936 C938 1.381 . S
C936 C942 1.383 . S
C937 C933 1.495 . S
C937 H943 0.959 . S
C937 H944 0.961 . S
C937 H945 0.960 . S
C938 C936 1.381 . S
C938 C939 1.394 . S
C938 H946 0.930 . S
C939 C938 1.394 . S
C939 C940 1.383 . S
C939 H947 0.929 . S
C940 C939 1.383 . S
C940 C941 1.377 . S
C941 H925 0.930 . S
C941 C940 1.377 . S
C941 C942 1.379 . S
C942 H926 0.931 . S
C942 C936 1.383 . S
C942 C941 1.379 . S
H943 C937 0.959 . S
H944 C937 0.961 . S
H945 C937 0.960 . S
H946 C938 0.930 . S
H947 C939 0.929 . S
H948 C956 0.929 . S
H949 C958 0.930 . S
H950 C960 0.930 . S
H951 C963 0.929 . S
H952 C966 0.930 . S
H953 C968 0.960 . S
H954 C968 0.960 . S
H955 C968 0.960 . S
C956 H948 0.929 . S
C956 C957 1.377 . S
C956 C958 1.384 . S
C957 C956 1.377 . S
C957 C963 1.390 . S
C958 H949 0.930 . S
C958 C956 1.384 . S
C958 C959 1.372 . S
C959 C958 1.372 . S
C959 C960 1.400 . S
C959 C964 1.490 . S
C960 H950 0.930 . S
C960 C959 1.400 . S
C960 C963 1.386 . S
H961 C977 0.930 . S
H962 C978 0.931 . S
C963 H951 0.929 . S
C963 C957 1.390 . S
C963 C960 1.386 . S
C964 C959 1.490 . S
C964 C966 1.395 . S
C964 C967 1.403 . S
H965 C971 0.930 . S
C966 H952 0.930 . S
C966 C964 1.395 . S
C966 C969 1.403 . S
C967 C964 1.403 . S
C967 C968 1.524 . S
C967 C971 1.400 . S
C968 H953 0.960 . S
C968 H954 0.960 . S
C968 H955 0.960 . S
C968 C967 1.524 . S
C969 C966 1.403 . S
C969 C970 1.392 . S
C969 C973 1.495 . S
C970 C969 1.392 . S
C970 C971 1.385 . S
C970 C972 1.478 . S
C971 H965 0.930 . S
C971 C967 1.400 . S
C971 C970 1.385 . S
C972 C970 1.478 . S
C972 C974 1.381 . S
C972 C978 1.383 . S
C973 C969 1.495 . S
C973 H979 0.959 . S
C973 H980 0.961 . S
C973 H981 0.960 . S
C974 C972 1.381 . S
C974 C975 1.394 . S
C974 H982 0.930 . S
C975 C974 1.394 . S
C975 C976 1.383 . S
C975 H983 0.929 . S
C976 C975 1.383 . S
C976 C977 1.377 . S
C977 H961 0.930 . S
C977 C976 1.377 . S
C977 C978 1.379 . S
C978 H962 0.931 . S
C978 C972 1.383 . S
C978 C977 1.379 . S
H979 C973 0.959 . S
H980 C973 0.961 . S
H981 C973 0.960 . S
H982 C974 0.930 . S
H983 C975 0.929 . S
H984 C992 0.929 . S
H985 C994 0.930 . S
H986 C996 0.930 . S
H987 C999 0.929 . S
H988 C1002 0.930 . S
H989 C1004 0.960 . S
H990 C1004 0.960 1_556 S
H991 C1004 0.960 . S
C992 H984 0.929 . S
C992 C993 1.377 1_556 S
C992 C994 1.384 . S
C993 C992 1.377 1_554 S
C993 C999 1.390 . S
C994 H985 0.930 . S
C994 C992 1.384 . S
C994 C995 1.364 1_556 S
C995 C994 1.364 1_554 S
C995 C996 1.408 . S
C995 C1000 1.490 . S
C996 H986 0.930 . S
C996 C995 1.408 . S
C996 C999 1.386 . S
H997 C1013 0.930 . S
H998 C1014 0.931 . S
C999 H987 0.929 . S
C999 C993 1.390 . S
C999 C996 1.386 . S
C1000 C995 1.490 . S
C1000 C1002 1.394 1_554 S
C1000 C1003 1.403 . S
H1001 C1007 0.930 . S
C1002 H988 0.930 . S
C1002 C1000 1.394 1_556 S
C1002 C1005 1.403 . S
C1003 C1000 1.403 . S
C1003 C1004 1.524 . S
C1003 C1007 1.400 . S
C1004 H989 0.960 . S
C1004 H990 0.960 1_554 S
C1004 H991 0.960 . S
C1004 C1003 1.524 . S
C1005 C1002 1.403 . S
C1005 C1006 1.392 1_556 S
C1005 C1009 1.495 . S
C1006 C1005 1.392 1_554 S
C1006 C1007 1.386 . S
C1006 C1008 1.478 . S
C1007 H1001 0.930 . S
C1007 C1003 1.400 . S
C1007 C1006 1.386 . S
C1008 C1006 1.478 . S
C1008 C1010 1.381 1_554 S
C1008 C1014 1.383 . S
C1009 C1005 1.495 . S
C1009 H1015 0.959 . S
C1009 H1016 0.961 1_556 S
C1009 H1017 0.960 . S
C1010 C1008 1.381 1_556 S
C1010 C1011 1.394 . S
C1010 H1018 0.930 . S
C1011 C1010 1.394 . S
C1011 C1012 1.383 1_556 S
C1011 H1019 0.929 . S
C1012 C1011 1.383 1_554 S
C1012 C1013 1.377 . S
C1013 H997 0.930 . S
C1013 C1012 1.377 . S
C1013 C1014 1.379 . S
C1014 H998 0.931 . S
C1014 C1008 1.383 . S
C1014 C1013 1.379 . S
H1015 C1009 0.959 . S
H1016 C1009 0.961 1_554 S
H1017 C1009 0.960 . S
H1018 C1010 0.930 . S
H1019 C1011 0.929 . S
H1020 C1028 0.929 . S
H1021 C1030 0.930 . S
H1022 C1032 0.930 . S
H1023 C1035 0.929 . S
H1024 C1038 0.930 . S
H1025 C1040 0.960 . S
H1026 C1040 0.960 . S
H1027 C1040 0.960 . S
C1028 H1020 0.929 . S
C1028 C1029 1.377 . S
C1028 C1030 1.384 . S
C1029 C1028 1.377 . S
C1029 C1035 1.390 . S
C1030 H1021 0.930 . S
C1030 C1028 1.384 . S
C1030 C1031 1.372 . S
C1031 C1030 1.372 . S
C1031 C1032 1.400 . S
C1031 C1036 1.490 . S
C1032 H1022 0.930 . S
C1032 C1031 1.400 . S
C1032 C1035 1.386 . S
H1033 C1049 0.930 . S
H1034 C1050 0.931 . S
C1035 H1023 0.929 . S
C1035 C1029 1.390 . S
C1035 C1032 1.386 . S
C1036 C1031 1.490 . S
C1036 C1038 1.395 . S
C1036 C1039 1.403 . S
H1037 C1043 0.930 . S
C1038 H1024 0.930 . S
C1038 C1036 1.395 . S
C1038 C1041 1.403 . S
C1039 C1036 1.403 . S
C1039 C1040 1.524 . S
C1039 C1043 1.400 . S
C1040 H1025 0.960 . S
C1040 H1026 0.960 . S
C1040 H1027 0.960 . S
C1040 C1039 1.524 . S
C1041 C1038 1.403 . S
C1041 C1042 1.392 . S
C1041 C1045 1.495 . S
C1042 C1041 1.392 . S
C1042 C1043 1.385 . S
C1042 C1044 1.478 . S
C1043 H1037 0.930 . S
C1043 C1039 1.400 . S
C1043 C1042 1.385 . S
C1044 C1042 1.478 . S
C1044 C1046 1.381 . S
C1044 C1050 1.383 . S
C1045 C1041 1.495 . S
C1045 H1051 0.959 . S
C1045 H1052 0.961 . S
C1045 H1053 0.960 . S
C1046 C1044 1.381 . S
C1046 C1047 1.394 . S
C1046 H1054 0.930 . S
C1047 C1046 1.394 . S
C1047 C1048 1.383 . S
C1047 H1055 0.929 . S
C1048 C1047 1.383 . S
C1048 C1049 1.377 . S
C1049 H1033 0.930 . S
C1049 C1048 1.377 . S
C1049 C1050 1.379 . S
C1050 H1034 0.931 . S
C1050 C1044 1.383 . S
C1050 C1049 1.379 . S
H1051 C1045 0.959 . S
H1052 C1045 0.961 . S
H1053 C1045 0.960 . S
H1054 C1046 0.930 . S
H1055 C1047 0.929 . S
H1056 C1064 0.929 . S
H1057 C1066 0.930 . S
H1058 C1068 0.930 . S
H1059 C1071 0.929 . S
H1060 C1074 0.930 . S
H1061 C1076 0.960 . S
H1062 C1076 0.960 . S
H1063 C1076 0.960 1_554 S
C1064 H1056 0.929 . S
C1064 C1065 1.377 1_556 S
C1064 C1066 1.384 . S
C1065 C1064 1.377 1_554 S
C1065 C1071 1.390 . S
C1066 H1057 0.930 . S
C1066 C1064 1.384 . S
C1066 C1067 1.372 1_556 S
C1067 C1066 1.372 1_554 S
C1067 C1068 1.400 . S
C1067 C1072 1.490 . S
C1068 H1058 0.930 . S
C1068 C1067 1.400 . S
C1068 C1071 1.386 . S
H1069 C1085 0.930 . S
H1070 C1086 0.931 . S
C1071 H1059 0.929 . S
C1071 C1065 1.390 . S
C1071 C1068 1.386 . S
C1072 C1067 1.490 . S
C1072 C1074 1.395 . S
C1072 C1075 1.403 1_554 S
H1073 C1079 0.930 . S
C1074 H1060 0.930 . S
C1074 C1072 1.395 . S
C1074 C1077 1.403 . S
C1075 C1072 1.403 1_556 S
C1075 C1076 1.524 . S
C1075 C1079 1.400 . S
C1076 H1061 0.960 . S
C1076 H1062 0.960 . S
C1076 H1063 0.960 1_556 S
C1076 C1075 1.524 . S
C1077 C1074 1.403 . S
C1077 C1078 1.392 . S
C1077 C1081 1.495 . S
C1078 C1077 1.392 . S
C1078 C1079 1.385 1_554 S
C1078 C1080 1.478 . S
C1079 H1073 0.930 . S
C1079 C1075 1.400 . S
C1079 C1078 1.385 1_556 S
C1080 C1078 1.478 . S
C1080 C1082 1.381 1_554 S
C1080 C1086 1.383 . S
C1081 C1077 1.495 . S
C1081 H1087 0.959 . S
C1081 H1088 0.961 . S
C1081 H1089 0.960 1_554 S
C1082 C1080 1.381 1_556 S
C1082 C1083 1.394 . S
C1082 H1090 0.930 . S
C1083 C1082 1.394 . S
C1083 C1084 1.383 1_556 S
C1083 H1091 0.929 . S
C1084 C1083 1.383 1_554 S
C1084 C1085 1.377 . S
C1085 H1069 0.930 . S
C1085 C1084 1.377 . S
C1085 C1086 1.379 . S
C1086 H1070 0.931 . S
C1086 C1080 1.383 . S
C1086 C1085 1.379 . S
H1087 C1081 0.959 . S
H1088 C1081 0.961 . S
H1089 C1081 0.960 1_556 S
H1090 C1082 0.930 . S
H1091 C1083 0.929 . S
H1092 C1100 0.929 . S
H1093 C1102 0.930 . S
H1094 C1104 0.930 . S
H1095 C1107 0.929 . S
H1096 C1110 0.930 . S
H1097 C1112 0.960 . S
H1098 C1112 0.960 . S
H1099 C1112 0.960 . S
C1100 H1092 0.929 . S
C1100 C1101 1.377 . S
C1100 C1102 1.384 . S
C1101 C1100 1.377 . S
C1101 C1107 1.390 . S
C1102 H1093 0.930 . S
C1102 C1100 1.384 . S
C1102 C1103 1.372 . S
C1103 C1102 1.372 . S
C1103 C1104 1.400 . S
C1103 C1108 1.490 . S
C1104 H1094 0.930 . S
C1104 C1103 1.400 . S
C1104 C1107 1.386 . S
H1105 C1121 0.930 . S
H1106 C1122 0.931 . S
C1107 H1095 0.929 . S
C1107 C1101 1.390 . S
C1107 C1104 1.386 . S
C1108 C1103 1.490 . S
C1108 C1110 1.395 . S
C1108 C1111 1.403 . S
H1109 C1115 0.930 . S
C1110 H1096 0.930 . S
C1110 C1108 1.395 . S
C1110 C1113 1.403 . S
C1111 C1108 1.403 . S
C1111 C1112 1.524 . S
C1111 C1115 1.400 . S
C1112 H1097 0.960 . S
C1112 H1098 0.960 . S
C1112 H1099 0.960 . S
C1112 C1111 1.524 . S
C1113 C1110 1.403 . S
C1113 C1114 1.392 . S
C1113 C1117 1.495 . S
C1114 C1113 1.392 . S
C1114 C1115 1.385 . S
C1114 C1116 1.478 . S
C1115 H1109 0.930 . S
C1115 C1111 1.400 . S
C1115 C1114 1.385 . S
C1116 C1114 1.478 . S
C1116 C1118 1.381 . S
C1116 C1122 1.383 . S
C1117 C1113 1.495 . S
C1117 H1123 0.959 . S
C1117 H1124 0.961 . S
C1117 H1125 0.960 . S
C1118 C1116 1.381 . S
C1118 C1119 1.394 . S
C1118 H1126 0.930 . S
C1119 C1118 1.394 . S
C1119 C1120 1.383 . S
C1119 H1127 0.929 . S
C1120 C1119 1.383 . S
C1120 C1121 1.377 . S
C1121 H1105 0.930 . S
C1121 C1120 1.377 . S
C1121 C1122 1.379 . S
C1122 H1106 0.931 . S
C1122 C1116 1.383 . S
C1122 C1121 1.379 . S
H1123 C1117 0.959 . S
H1124 C1117 0.961 . S
H1125 C1117 0.960 . S
H1126 C1118 0.930 . S
H1127 C1119 0.929 . S
H1128 C1136 0.929 . S
H1129 C1138 0.930 . S
H1130 C1140 0.930 . S
H1131 C1143 0.929 . S
H1132 C1146 0.930 . S
H1133 C1148 0.960 . S
H1134 C1148 0.960 . S
H1135 C1148 0.960 . S
C1136 H1128 0.929 . S
C1136 C1137 1.377 . S
C1136 C1138 1.384 . S
C1137 C1136 1.377 . S
C1137 C1143 1.390 . S
C1138 H1129 0.930 . S
C1138 C1136 1.384 . S
C1138 C1139 1.372 . S
C1139 C1138 1.372 . S
C1139 C1140 1.400 . S
C1139 C1144 1.490 . S
C1140 H1130 0.930 . S
C1140 C1139 1.400 . S
C1140 C1143 1.386 . S
H1141 C1157 0.930 . S
H1142 C1158 0.931 . S
C1143 H1131 0.929 . S
C1143 C1137 1.390 . S
C1143 C1140 1.386 . S
C1144 C1139 1.490 . S
C1144 C1146 1.395 . S
C1144 C1147 1.403 . S
H1145 C1151 0.930 . S
C1146 H1132 0.930 . S
C1146 C1144 1.395 . S
C1146 C1149 1.403 . S
C1147 C1144 1.403 . S
C1147 C1148 1.524 . S
C1147 C1151 1.400 . S
C1148 H1133 0.960 . S
C1148 H1134 0.960 . S
C1148 H1135 0.960 . S
C1148 C1147 1.524 . S
C1149 C1146 1.403 . S
C1149 C1150 1.392 . S
C1149 C1153 1.495 . S
C1150 C1149 1.392 . S
C1150 C1151 1.385 . S
C1150 C1152 1.478 . S
C1151 H1145 0.930 . S
C1151 C1147 1.400 . S
C1151 C1150 1.385 . S
C1152 C1150 1.478 . S
C1152 C1154 1.381 . S
C1152 C1158 1.383 . S
C1153 C1149 1.495 . S
C1153 H1159 0.959 . S
C1153 H1160 0.961 . S
C1153 H1161 0.960 . S
C1154 C1152 1.381 . S
C1154 C1155 1.394 . S
C1154 H1162 0.930 . S
C1155 C1154 1.394 . S
C1155 C1156 1.383 . S
C1155 H1163 0.929 . S
C1156 C1155 1.383 . S
C1156 C1157 1.377 . S
C1157 H1141 0.930 . S
C1157 C1156 1.377 . S
C1157 C1158 1.379 . S
C1158 H1142 0.931 . S
C1158 C1152 1.383 . S
C1158 C1157 1.379 . S
H1159 C1153 0.959 . S
H1160 C1153 0.961 . S
H1161 C1153 0.960 . S
H1162 C1154 0.930 . S
H1163 C1155 0.929 . S
H1164 C1172 0.929 . S
H1165 C1174 0.930 . S
H1166 C1176 0.930 . S
H1167 C1179 0.929 . S
H1168 C1182 0.930 . S
H1169 C1184 0.960 . S
H1170 C1184 0.960 . S
H1171 C1184 0.960 . S
C1172 H1164 0.929 . S
C1172 C1173 1.377 . S
C1172 C1174 1.384 . S
C1173 C1172 1.377 . S
C1173 C1179 1.390 1_554 S
C1174 H1165 0.930 . S
C1174 C1172 1.384 . S
C1174 C1175 1.372 . S
C1175 C1174 1.372 . S
C1175 C1176 1.400 1_554 S
C1175 C1180 1.490 . S
C1176 H1166 0.930 . S
C1176 C1175 1.400 1_556 S
C1176 C1179 1.386 . S
H1177 C1193 0.930 . S
H1178 C1194 0.931 . S
C1179 H1167 0.929 . S
C1179 C1173 1.390 1_556 S
C1179 C1176 1.386 . S
C1180 C1175 1.490 . S
C1180 C1182 1.395 1_554 S
C1180 C1183 1.403 . S
H1181 C1187 0.930 . S
C1182 H1168 0.930 . S
C1182 C1180 1.395 1_556 S
C1182 C1185 1.403 . S
C1183 C1180 1.403 . S
C1183 C1184 1.524 . S
C1183 C1187 1.400 . S
C1184 H1169 0.960 . S
C1184 H1170 0.960 . S
C1184 H1171 0.960 . S
C1184 C1183 1.524 . S
C1185 C1182 1.403 . S
C1185 C1186 1.409 . S
C1185 C1189 1.495 . S
C1186 C1185 1.409 . S
C1186 C1187 1.368 1_556 S
C1186 C1188 1.478 . S
C1187 H1181 0.930 . S
C1187 C1183 1.400 . S
C1187 C1186 1.368 1_554 S
C1188 C1186 1.478 . S
C1188 C1190 1.381 1_556 S
C1188 C1194 1.383 . S
C1189 C1185 1.495 . S
C1189 H1195 0.959 . S
C1189 H1196 0.961 . S
C1189 H1197 0.960 . S
C1190 C1188 1.381 1_554 S
C1190 C1191 1.394 . S
C1190 H1198 0.930 . S
C1191 C1190 1.394 . S
C1191 C1192 1.383 . S
C1191 H1199 0.929 . S
C1192 C1191 1.383 . S
C1192 C1193 1.377 1_554 S
C1193 H1177 0.930 . S
C1193 C1192 1.377 1_556 S
C1193 C1194 1.379 . S
C1194 H1178 0.931 . S
C1194 C1188 1.383 . S
C1194 C1193 1.379 . S
H1195 C1189 0.959 . S
H1196 C1189 0.961 . S
H1197 C1189 0.960 . S
H1198 C1190 0.930 . S
H1199 C1191 0.929 . S
H1200 C1208 0.929 . S
H1201 C1210 0.930 . S
H1202 C1212 0.930 . S
H1203 C1215 0.929 . S
H1204 C1218 0.930 . S
H1205 C1220 0.960 . S
H1206 C1220 0.960 . S
H1207 C1220 0.960 . S
C1208 H1200 0.929 . S
C1208 C1209 1.377 . S
C1208 C1210 1.384 . S
C1209 C1208 1.377 . S
C1209 C1215 1.390 . S
C1210 H1201 0.930 . S
C1210 C1208 1.384 . S
C1210 C1211 1.372 . S
C1211 C1210 1.372 . S
C1211 C1212 1.400 . S
C1211 C1216 1.490 . S
C1212 H1202 0.930 . S
C1212 C1211 1.400 . S
C1212 C1215 1.386 . S
H1213 C1229 0.930 . S
H1214 C1230 0.931 . S
C1215 H1203 0.929 . S
C1215 C1209 1.390 . S
C1215 C1212 1.386 . S
C1216 C1211 1.490 . S
C1216 C1218 1.395 . S
C1216 C1219 1.403 . S
H1217 C1223 0.930 . S
C1218 H1204 0.930 . S
C1218 C1216 1.395 . S
C1218 C1221 1.403 . S
C1219 C1216 1.403 . S
C1219 C1220 1.524 . S
C1219 C1223 1.400 . S
C1220 H1205 0.960 . S
C1220 H1206 0.960 . S
C1220 H1207 0.960 . S
C1220 C1219 1.524 . S
C1221 C1218 1.403 . S
C1221 C1222 1.392 . S
C1221 C1225 1.495 . S
C1222 C1221 1.392 . S
C1222 C1223 1.385 . S
C1222 C1224 1.478 . S
C1223 H1217 0.930 . S
C1223 C1219 1.400 . S
C1223 C1222 1.385 . S
C1224 C1222 1.478 . S
C1224 C1226 1.381 . S
C1224 C1230 1.383 . S
C1225 C1221 1.495 . S
C1225 H1231 0.959 . S
C1225 H1232 0.961 . S
C1225 H1233 0.960 . S
C1226 C1224 1.381 . S
C1226 C1227 1.394 . S
C1226 H1234 0.930 . S
C1227 C1226 1.394 . S
C1227 C1228 1.383 . S
C1227 H1235 0.929 . S
C1228 C1227 1.383 . S
C1228 C1229 1.377 . S
C1229 H1213 0.930 . S
C1229 C1228 1.377 . S
C1229 C1230 1.379 . S
C1230 H1214 0.931 . S
C1230 C1224 1.383 . S
C1230 C1229 1.379 . S
H1231 C1225 0.959 . S
H1232 C1225 0.961 . S
H1233 C1225 0.960 . S
H1234 C1226 0.930 . S
H1235 C1227 0.929 . S
H1236 C1244 0.929 . S
H1237 C1246 0.930 . S
H1238 C1248 0.930 . S
H1239 C1251 0.929 . S
H1240 C1254 0.930 . S
H1241 C1256 0.960 . S
H1242 C1256 0.960 . S
H1243 C1256 0.960 . S
C1244 H1236 0.929 . S
C1244 C1245 1.377 . S
C1244 C1246 1.384 . S
C1245 C1244 1.377 . S
C1245 C1251 1.390 1_554 S
C1246 H1237 0.930 . S
C1246 C1244 1.384 . S
C1246 C1247 1.372 . S
C1247 C1246 1.372 . S
C1247 C1248 1.400 1_554 S
C1247 C1252 1.490 . S
C1248 H1238 0.930 . S
C1248 C1247 1.400 1_556 S
C1248 C1251 1.386 . S
H1249 C1265 0.930 . S
H1250 C1266 0.931 . S
C1251 H1239 0.929 . S
C1251 C1245 1.390 1_556 S
C1251 C1248 1.386 . S
C1252 C1247 1.490 . S
C1252 C1254 1.395 1_554 S
C1252 C1255 1.403 . S
H1253 C1259 0.930 . S
C1254 H1240 0.930 . S
C1254 C1252 1.395 1_556 S
C1254 C1257 1.403 . S
C1255 C1252 1.403 . S
C1255 C1256 1.524 . S
C1255 C1259 1.400 . S
C1256 H1241 0.960 . S
C1256 H1242 0.960 . S
C1256 H1243 0.960 . S
C1256 C1255 1.524 . S
C1257 C1254 1.403 . S
C1257 C1258 1.392 . S
C1257 C1261 1.495 . S
C1258 C1257 1.392 . S
C1258 C1259 1.385 1_556 S
C1258 C1260 1.478 . S
C1259 H1253 0.930 . S
C1259 C1255 1.400 . S
C1259 C1258 1.385 1_554 S
C1260 C1258 1.478 . S
C1260 C1262 1.381 1_556 S
C1260 C1266 1.383 . S
C1261 C1257 1.495 . S
C1261 H1267 0.959 . S
C1261 H1268 0.961 . S
C1261 H1269 0.960 . S
C1262 C1260 1.381 1_554 S
C1262 C1263 1.394 . S
C1262 H1270 0.930 . S
C1263 C1262 1.394 . S
C1263 C1264 1.381 1_554 S
C1263 H1271 0.929 . S
C1264 C1263 1.381 1_556 S
C1264 C1265 1.380 . S
C1265 H1249 0.930 . S
C1265 C1264 1.380 . S
C1265 C1266 1.379 . S
C1266 H1250 0.931 . S
C1266 C1260 1.383 . S
C1266 C1265 1.379 . S
H1267 C1261 0.959 . S
H1268 C1261 0.961 . S
H1269 C1261 0.960 . S
H1270 C1262 0.930 . S
H1271 C1263 0.929 . S
C417 C21 1.618 . S
C436 C210 1.575 . S
C453 C40 1.756 . S
C472 C90 1.733 . S
C508 C149 1.600 . S
C489 C54 1.598 . S
C525 C73 1.805 . S
C544 C189 1.721 . S
C580 C309 1.594 . S
C561 C74 1.596 . S
C616 C349 1.619 . S
C597 C10 1.765 . S
C652 C370 1.583 . S
C633 C37 1.623 . S
C688 C250 1.783 . S
C669 C65 1.799 . S
C705 C52 1.588 . S
C724 C130 1.584 . S
C741 C87 1.801 . S
C760 C170 1.721 . S
C777 C15 1.638 . S
C796 C229 1.563 . S
C832 C109 1.744 . S
C813 C32 1.756 . S
C849 C29 1.633 . S
C868 C389 1.543 . S
C904 C269 1.782 . S
C885 C59 1.808 . S
C940 C290 1.595 . S
C921 C84 1.588 . S
C957 C8 1.747 . S
C976 C330 1.660 . S
C1012 C103 1.873 . S
C993 C7 1.901 . S
C1048 C143 1.680 . S
C1029 C30 1.709 . S
C1065 C62 1.924 . S
C1084 C183 1.885 . S
C1101 C81 1.690 . S
C1120 C223 1.691 . S
C1156 C263 1.890 . S
C1137 C76 1.923 . S
C1173 C18 1.712 . S
C1192 C303 1.685 . S
C1209 C43 1.901 . S
C1228 C343 1.848 . S
C1245 C51 1.694 . S
C1264 C383 1.677 1_556 S
