# Generated by pormake.
# Topology gar, (4,6)-cn, num edge types: 1
# Building blocks:
#     Node 0, Type 0, BuildingBlock: GALJAG_clean_sbu_0, # of connection points: 4
#     Node 1, Type 0, BuildingBlock: GALJAG_clean_sbu_0, # of connection points: 4
#     Node 2, Type 0, BuildingBlock: GALJAG_clean_sbu_0, # of connection points: 4
#     Node 3, Type 0, BuildingBlock: GALJAG_clean_sbu_0, # of connection points: 4
#     Node 4, Type 0, BuildingBlock: GALJAG_clean_sbu_0, # of connection points: 4
#     Node 5, Type 0, BuildingBlock: GALJAG_clean_sbu_0, # of connection points: 4
#     Node 6, Type 0, BuildingBlock: GALJAG_clean_sbu_0, # of connection points: 4
#     Node 7, Type 0, BuildingBlock: GALJAG_clean_sbu_0, # of connection points: 4
#     Node 8, Type 0, BuildingBlock: GALJAG_clean_sbu_0, # of connection points: 4
#     Node 9, Type 0, BuildingBlock: GALJAG_clean_sbu_0, # of connection points: 4
#     Node 10, Type 0, BuildingBlock: GALJAG_clean_sbu_0, # of connection points: 4
#     Node 11, Type 0, BuildingBlock: GALJAG_clean_sbu_0, # of connection points: 4
#     Node 12, Type 0, BuildingBlock: GALJAG_clean_sbu_0, # of connection points: 4
#     Node 13, Type 0, BuildingBlock: GALJAG_clean_sbu_0, # of connection points: 4
#     Node 14, Type 0, BuildingBlock: GALJAG_clean_sbu_0, # of connection points: 4
#     Node 15, Type 0, BuildingBlock: GALJAG_clean_sbu_0, # of connection points: 4
#     Node 16, Type 0, BuildingBlock: GALJAG_clean_sbu_0, # of connection points: 4
#     Node 17, Type 0, BuildingBlock: GALJAG_clean_sbu_0, # of connection points: 4
#     Node 18, Type 0, BuildingBlock: GALJAG_clean_sbu_0, # of connection points: 4
#     Node 19, Type 0, BuildingBlock: GALJAG_clean_sbu_0, # of connection points: 4
#     Node 20, Type 0, BuildingBlock: GALJAG_clean_sbu_0, # of connection points: 4
#     Node 21, Type 0, BuildingBlock: GALJAG_clean_sbu_0, # of connection points: 4
#     Node 22, Type 0, BuildingBlock: GALJAG_clean_sbu_0, # of connection points: 4
#     Node 23, Type 0, BuildingBlock: GALJAG_clean_sbu_0, # of connection points: 4
#     Node 24, Type 1, BuildingBlock: MIFKUJ_clean_sbu_0, # of connection points: 6
#     Node 25, Type 1, BuildingBlock: MIFKUJ_clean_sbu_0, # of connection points: 6
#     Node 26, Type 1, BuildingBlock: MIFKUJ_clean_sbu_0, # of connection points: 6
#     Node 27, Type 1, BuildingBlock: MIFKUJ_clean_sbu_0, # of connection points: 6
#     Node 28, Type 1, BuildingBlock: MIFKUJ_clean_sbu_0, # of connection points: 6
#     Node 29, Type 1, BuildingBlock: MIFKUJ_clean_sbu_0, # of connection points: 6
#     Node 30, Type 1, BuildingBlock: MIFKUJ_clean_sbu_0, # of connection points: 6
#     Node 31, Type 1, BuildingBlock: MIFKUJ_clean_sbu_0, # of connection points: 6
#     Node 32, Type 1, BuildingBlock: MIFKUJ_clean_sbu_0, # of connection points: 6
#     Node 33, Type 1, BuildingBlock: MIFKUJ_clean_sbu_0, # of connection points: 6
#     Node 34, Type 1, BuildingBlock: MIFKUJ_clean_sbu_0, # of connection points: 6
#     Node 35, Type 1, BuildingBlock: MIFKUJ_clean_sbu_0, # of connection points: 6
#     Node 36, Type 1, BuildingBlock: MIFKUJ_clean_sbu_0, # of connection points: 6
#     Node 37, Type 1, BuildingBlock: MIFKUJ_clean_sbu_0, # of connection points: 6
#     Node 38, Type 1, BuildingBlock: MIFKUJ_clean_sbu_0, # of connection points: 6
#     Node 39, Type 1, BuildingBlock: MIFKUJ_clean_sbu_0, # of connection points: 6
#     Edge 40, Type (0, 1), BuildingBlock: OJICUG_clean_linker_0, # of connection points: 2
#     Edge 41, Type (0, 1), BuildingBlock: OJICUG_clean_linker_0, # of connection points: 2
#     Edge 42, Type (0, 1), BuildingBlock: OJICUG_clean_linker_0, # of connection points: 2
#     Edge 43, Type (0, 1), BuildingBlock: OJICUG_clean_linker_0, # of connection points: 2
#     Edge 44, Type (0, 1), BuildingBlock: OJICUG_clean_linker_0, # of connection points: 2
#     Edge 45, Type (0, 1), BuildingBlock: OJICUG_clean_linker_0, # of connection points: 2
#     Edge 46, Type (0, 1), BuildingBlock: OJICUG_clean_linker_0, # of connection points: 2
#     Edge 47, Type (0, 1), BuildingBlock: OJICUG_clean_linker_0, # of connection points: 2
#     Edge 48, Type (0, 1), BuildingBlock: OJICUG_clean_linker_0, # of connection points: 2
#     Edge 49, Type (0, 1), BuildingBlock: OJICUG_clean_linker_0, # of connection points: 2
#     Edge 50, Type (0, 1), BuildingBlock: OJICUG_clean_linker_0, # of connection points: 2
#     Edge 51, Type (0, 1), BuildingBlock: OJICUG_clean_linker_0, # of connection points: 2
#     Edge 52, Type (0, 1), BuildingBlock: OJICUG_clean_linker_0, # of connection points: 2
#     Edge 53, Type (0, 1), BuildingBlock: OJICUG_clean_linker_0, # of connection points: 2
#     Edge 54, Type (0, 1), BuildingBlock: OJICUG_clean_linker_0, # of connection points: 2
#     Edge 55, Type (0, 1), BuildingBlock: OJICUG_clean_linker_0, # of connection points: 2
#     Edge 56, Type (0, 1), BuildingBlock: OJICUG_clean_linker_0, # of connection points: 2
#     Edge 57, Type (0, 1), BuildingBlock: OJICUG_clean_linker_0, # of connection points: 2
#     Edge 58, Type (0, 1), BuildingBlock: OJICUG_clean_linker_0, # of connection points: 2
#     Edge 59, Type (0, 1), BuildingBlock: OJICUG_clean_linker_0, # of connection points: 2
#     Edge 60, Type (0, 1), BuildingBlock: OJICUG_clean_linker_0, # of connection points: 2
#     Edge 61, Type (0, 1), BuildingBlock: OJICUG_clean_linker_0, # of connection points: 2
#     Edge 62, Type (0, 1), BuildingBlock: OJICUG_clean_linker_0, # of connection points: 2
#     Edge 63, Type (0, 1), BuildingBlock: OJICUG_clean_linker_0, # of connection points: 2
#     Edge 64, Type (0, 1), BuildingBlock: OJICUG_clean_linker_0, # of connection points: 2
#     Edge 65, Type (0, 1), BuildingBlock: OJICUG_clean_linker_0, # of connection points: 2
#     Edge 66, Type (0, 1), BuildingBlock: OJICUG_clean_linker_0, # of connection points: 2
#     Edge 67, Type (0, 1), BuildingBlock: OJICUG_clean_linker_0, # of connection points: 2
#     Edge 68, Type (0, 1), BuildingBlock: OJICUG_clean_linker_0, # of connection points: 2
#     Edge 69, Type (0, 1), BuildingBlock: OJICUG_clean_linker_0, # of connection points: 2
#     Edge 70, Type (0, 1), BuildingBlock: OJICUG_clean_linker_0, # of connection points: 2
#     Edge 71, Type (0, 1), BuildingBlock: OJICUG_clean_linker_0, # of connection points: 2
#     Edge 72, Type (0, 1), BuildingBlock: OJICUG_clean_linker_0, # of connection points: 2
#     Edge 73, Type (0, 1), BuildingBlock: OJICUG_clean_linker_0, # of connection points: 2
#     Edge 74, Type (0, 1), BuildingBlock: OJICUG_clean_linker_0, # of connection points: 2
#     Edge 75, Type (0, 1), BuildingBlock: OJICUG_clean_linker_0, # of connection points: 2
#     Edge 76, Type (0, 1), BuildingBlock: OJICUG_clean_linker_0, # of connection points: 2
#     Edge 77, Type (0, 1), BuildingBlock: OJICUG_clean_linker_0, # of connection points: 2
#     Edge 78, Type (0, 1), BuildingBlock: OJICUG_clean_linker_0, # of connection points: 2
#     Edge 79, Type (0, 1), BuildingBlock: OJICUG_clean_linker_0, # of connection points: 2
#     Edge 80, Type (0, 1), BuildingBlock: OJICUG_clean_linker_0, # of connection points: 2
#     Edge 81, Type (0, 1), BuildingBlock: OJICUG_clean_linker_0, # of connection points: 2
#     Edge 82, Type (0, 1), BuildingBlock: OJICUG_clean_linker_0, # of connection points: 2
#     Edge 83, Type (0, 1), BuildingBlock: OJICUG_clean_linker_0, # of connection points: 2
#     Edge 84, Type (0, 1), BuildingBlock: OJICUG_clean_linker_0, # of connection points: 2
#     Edge 85, Type (0, 1), BuildingBlock: OJICUG_clean_linker_0, # of connection points: 2
#     Edge 86, Type (0, 1), BuildingBlock: OJICUG_clean_linker_0, # of connection points: 2
#     Edge 87, Type (0, 1), BuildingBlock: OJICUG_clean_linker_0, # of connection points: 2
#     Edge 88, Type (0, 1), BuildingBlock: OJICUG_clean_linker_0, # of connection points: 2
#     Edge 89, Type (0, 1), BuildingBlock: OJICUG_clean_linker_0, # of connection points: 2
#     Edge 90, Type (0, 1), BuildingBlock: OJICUG_clean_linker_0, # of connection points: 2
#     Edge 91, Type (0, 1), BuildingBlock: OJICUG_clean_linker_0, # of connection points: 2
#     Edge 92, Type (0, 1), BuildingBlock: OJICUG_clean_linker_0, # of connection points: 2
#     Edge 93, Type (0, 1), BuildingBlock: OJICUG_clean_linker_0, # of connection points: 2
#     Edge 94, Type (0, 1), BuildingBlock: OJICUG_clean_linker_0, # of connection points: 2
#     Edge 95, Type (0, 1), BuildingBlock: OJICUG_clean_linker_0, # of connection points: 2
#     Edge 96, Type (0, 1), BuildingBlock: OJICUG_clean_linker_0, # of connection points: 2
#     Edge 97, Type (0, 1), BuildingBlock: OJICUG_clean_linker_0, # of connection points: 2
#     Edge 98, Type (0, 1), BuildingBlock: OJICUG_clean_linker_0, # of connection points: 2
#     Edge 99, Type (0, 1), BuildingBlock: OJICUG_clean_linker_0, # of connection points: 2
#     Edge 100, Type (0, 1), BuildingBlock: OJICUG_clean_linker_0, # of connection points: 2
#     Edge 101, Type (0, 1), BuildingBlock: OJICUG_clean_linker_0, # of connection points: 2
#     Edge 102, Type (0, 1), BuildingBlock: OJICUG_clean_linker_0, # of connection points: 2
#     Edge 103, Type (0, 1), BuildingBlock: OJICUG_clean_linker_0, # of connection points: 2
#     Edge 104, Type (0, 1), BuildingBlock: OJICUG_clean_linker_0, # of connection points: 2
#     Edge 105, Type (0, 1), BuildingBlock: OJICUG_clean_linker_0, # of connection points: 2
#     Edge 106, Type (0, 1), BuildingBlock: OJICUG_clean_linker_0, # of connection points: 2
#     Edge 107, Type (0, 1), BuildingBlock: OJICUG_clean_linker_0, # of connection points: 2
#     Edge 108, Type (0, 1), BuildingBlock: OJICUG_clean_linker_0, # of connection points: 2
#     Edge 109, Type (0, 1), BuildingBlock: OJICUG_clean_linker_0, # of connection points: 2
#     Edge 110, Type (0, 1), BuildingBlock: OJICUG_clean_linker_0, # of connection points: 2
#     Edge 111, Type (0, 1), BuildingBlock: OJICUG_clean_linker_0, # of connection points: 2
#     Edge 112, Type (0, 1), BuildingBlock: OJICUG_clean_linker_0, # of connection points: 2
#     Edge 113, Type (0, 1), BuildingBlock: OJICUG_clean_linker_0, # of connection points: 2
#     Edge 114, Type (0, 1), BuildingBlock: OJICUG_clean_linker_0, # of connection points: 2
#     Edge 115, Type (0, 1), BuildingBlock: OJICUG_clean_linker_0, # of connection points: 2
#     Edge 116, Type (0, 1), BuildingBlock: OJICUG_clean_linker_0, # of connection points: 2
#     Edge 117, Type (0, 1), BuildingBlock: OJICUG_clean_linker_0, # of connection points: 2
#     Edge 118, Type (0, 1), BuildingBlock: OJICUG_clean_linker_0, # of connection points: 2
#     Edge 119, Type (0, 1), BuildingBlock: OJICUG_clean_linker_0, # of connection points: 2
#     Edge 120, Type (0, 1), BuildingBlock: OJICUG_clean_linker_0, # of connection points: 2
#     Edge 121, Type (0, 1), BuildingBlock: OJICUG_clean_linker_0, # of connection points: 2
#     Edge 122, Type (0, 1), BuildingBlock: OJICUG_clean_linker_0, # of connection points: 2
#     Edge 123, Type (0, 1), BuildingBlock: OJICUG_clean_linker_0, # of connection points: 2
#     Edge 124, Type (0, 1), BuildingBlock: OJICUG_clean_linker_0, # of connection points: 2
#     Edge 125, Type (0, 1), BuildingBlock: OJICUG_clean_linker_0, # of connection points: 2
#     Edge 126, Type (0, 1), BuildingBlock: OJICUG_clean_linker_0, # of connection points: 2
#     Edge 127, Type (0, 1), BuildingBlock: OJICUG_clean_linker_0, # of connection points: 2
#     Edge 128, Type (0, 1), BuildingBlock: OJICUG_clean_linker_0, # of connection points: 2
#     Edge 129, Type (0, 1), BuildingBlock: OJICUG_clean_linker_0, # of connection points: 2
#     Edge 130, Type (0, 1), BuildingBlock: OJICUG_clean_linker_0, # of connection points: 2
#     Edge 131, Type (0, 1), BuildingBlock: OJICUG_clean_linker_0, # of connection points: 2
#     Edge 132, Type (0, 1), BuildingBlock: OJICUG_clean_linker_0, # of connection points: 2
#     Edge 133, Type (0, 1), BuildingBlock: OJICUG_clean_linker_0, # of connection points: 2
#     Edge 134, Type (0, 1), BuildingBlock: OJICUG_clean_linker_0, # of connection points: 2
#     Edge 135, Type (0, 1), BuildingBlock: OJICUG_clean_linker_0, # of connection points: 2
# Relax obj value: 0.126
# Max RMSD: 0.303
# Mean RMSD: 0.156
data_MOF--net-gar--node1-GALJAG_clean_sbu_0--node2-MIFKUJ_clean_sbu_0--edge1-OJICUG_clean_linker_0
_symmetry_space_group_name_H-M    P1
_symmetry_Int_Tables_number       1
_symmetry_cell_setting            triclinic
loop_
_symmetry_equiv_pos_as_xyz
'x, y, z'
_cell_length_a     42.050336
_cell_length_b     42.052004
_cell_length_c     39.963379
_cell_angle_alpha  94.831435
_cell_angle_beta   94.742215
_cell_angle_gamma 99.307796
loop_
_atom_site_label
_atom_site_type_symbol
_atom_site_fract_x
_atom_site_fract_y
_atom_site_fract_z
_atom_type_partial_charge
In0 In 0.03187 0.28568 0.4045 0.0
O1 O 0.0644 0.29022 0.36111 0.0
O2 O 0.08546 0.28295 0.40939 0.0
C3 C 0.98373 0.29172 0.35757 0.0
C4 C 0.02012 0.22838 0.43131 0.0
C5 C 0.03298 0.33648 0.45081 0.0
O6 O 0.98893 0.26474 0.36623 0.0
O7 O 0.00323 0.31581 0.37204 0.0
O8 O 0.00785 0.31574 0.44169 0.0
O9 O 0.05793 0.33119 0.43719 0.0
C10 C 0.08936 0.28605 0.37882 0.0
O11 O 0.01977 0.25492 0.44837 0.0
O12 O 0.02565 0.23091 0.4011 0.0
In13 In 0.01298 0.7511 0.64306 0.0
O14 O 0.02863 0.78314 0.60156 0.0
O15 O 0.99038 0.7944 0.62935 0.0
C16 C 0.01945 0.69809 0.60261 0.0
C17 C 0.06863 0.76763 0.68387 0.0
C18 C 0.96013 0.74023 0.67769 0.0
O19 O 0.99789 0.71484 0.59568 0.0
O20 O 0.03698 0.70781 0.62978 0.0
O21 O 0.98435 0.76156 0.68826 0.0
O22 O 0.96314 0.72394 0.65052 0.0
C23 C 0.00859 0.80188 0.60672 0.0
O24 O 0.05958 0.78488 0.66184 0.0
O25 O 0.04884 0.74216 0.6865 0.0
In26 In 0.53159 0.78468 0.89978 0.0
O27 O 0.56204 0.76042 0.86286 0.0
O28 O 0.57303 0.81129 0.87426 0.0
C29 C 0.47007 0.77573 0.87104 0.0
C30 C 0.53353 0.73595 0.93914 0.0
C31 C 0.53393 0.84132 0.93754 0.0
O32 O 0.49362 0.77624 0.85317 0.0
O33 O 0.47793 0.77948 0.90238 0.0
O34 O 0.5469 0.81874 0.94861 0.0
O35 O 0.5215 0.83574 0.9074 0.0
C36 C 0.5802 0.78648 0.85877 0.0
O37 O 0.55641 0.75969 0.94086 0.0
O38 O 0.51044 0.73649 0.91717 0.0
In39 In 0.50621 0.25476 0.13268 0.0
O40 O 0.49468 0.21769 0.08606 0.0
O41 O 0.51895 0.20455 0.13031 0.0
C42 C 0.50298 0.30869 0.10204 0.0
C43 C 0.45184 0.24765 0.16461 0.0
C44 C 0.56689 0.26964 0.16294 0.0
O45 O 0.51051 0.2838 0.08695 0.0
O46 O 0.49672 0.30604 0.1321 0.0
O47 O 0.54353 0.25746 0.17837 0.0
O48 O 0.55934 0.27465 0.13291 0.0
C49 C 0.50795 0.19666 0.09993 0.0
O50 O 0.47927 0.25888 0.18013 0.0
O51 O 0.45222 0.23936 0.13357 0.0
In52 In 0.03894 0.78666 0.17949 0.0
O53 O 0.03727 0.75111 0.13287 0.0
O54 O 0.03361 0.73271 0.18091 0.0
C55 C 0.03854 0.8403 0.14664 0.0
C56 C 0.98483 0.78295 0.2115 0.0
C57 C 0.09787 0.7875 0.21152 0.0
O58 O 0.02865 0.81232 0.13185 0.0
O59 O 0.04874 0.84084 0.17723 0.0
O60 O 0.07379 0.79104 0.22741 0.0
O61 O 0.09249 0.78512 0.17985 0.0
C62 C 0.03455 0.72665 0.14954 0.0
O63 O 0.01056 0.80194 0.22267 0.0
O64 O 0.98619 0.76641 0.18407 0.0
In65 In 0.51062 0.75506 0.40881 0.0
O66 O 0.5317 0.74248 0.35936 0.0
O67 O 0.56239 0.77274 0.39856 0.0
C68 C 0.45158 0.74908 0.37433 0.0
C69 C 0.51292 0.70855 0.45208 0.0
C70 C 0.52075 0.81736 0.43525 0.0
O71 O 0.47165 0.73141 0.36558 0.0
O72 O 0.46066 0.76751 0.40099 0.0
O73 O 0.52188 0.79455 0.4538 0.0
O74 O 0.51518 0.80851 0.40413 0.0
C75 C 0.55915 0.75948 0.36866 0.0
O76 O 0.4922 0.72706 0.45224 0.0
O77 O 0.53231 0.71316 0.42991 0.0
In78 In 0.54166 0.27655 0.67051 0.0
O79 O 0.54081 0.24127 0.6232 0.0
O80 O 0.52797 0.22247 0.66898 0.0
C81 C 0.54797 0.33336 0.64311 0.0
C82 C 0.48467 0.275 0.69667 0.0
C83 C 0.59933 0.27685 0.70495 0.0
O84 O 0.54016 0.30653 0.62528 0.0
O85 O 0.55342 0.3313 0.6743 0.0
O86 O 0.57638 0.28668 0.71893 0.0
O87 O 0.59343 0.26818 0.67378 0.0
C88 C 0.53211 0.21657 0.63834 0.0
O89 O 0.50989 0.27112 0.71418 0.0
O90 O 0.48843 0.27974 0.66641 0.0
In91 In 0.01074 0.26151 0.90974 0.0
O92 O 0.02748 0.22963 0.94933 0.0
O93 O 0.98269 0.21297 0.91987 0.0
C94 C 0.01726 0.31457 0.95446 0.0
C95 C 0.06101 0.26418 0.87146 0.0
C96 C 0.95608 0.26152 0.86986 0.0
O97 O 0.03205 0.29137 0.95971 0.0
O98 O 1.00001 0.31114 0.9267 0.0
O99 O 0.98111 0.25411 0.85794 0.0
O100 O 0.95852 0.26769 0.90151 0.0
C101 C 0.00326 0.20743 0.94244 0.0
O102 O 0.04483 0.23808 0.87835 0.0
O103 O 0.05182 0.28936 0.88374 0.0
In104 In 0.4001 0.02083 0.28288 0.0
O105 O 0.43939 0.00334 0.25405 0.0
O106 O 0.43095 0.05144 0.24943 0.0
C107 C 0.4361 0.02387 0.34271 0.0
C108 C 0.35797 0.06322 0.27854 0.0
C109 C 0.36487 0.96101 0.26731 0.0
O110 O 0.44331 0.04356 0.32135 0.0
O111 O 0.41063 0.00359 0.33418 0.0
O112 O 0.36278 0.97812 0.29425 0.0
O113 O 0.38375 0.97453 0.24786 0.0
C114 C 0.44698 0.02955 0.24114 0.0
O115 O 0.36319 0.04547 0.25329 0.0
O116 O 0.37386 0.05953 0.30566 0.0
In117 In 0.26626 0.14135 0.50783 0.0
O118 O 0.26636 0.18398 0.54836 0.0
O119 O 0.27577 0.13937 0.56437 0.0
C120 C 0.27104 0.17695 0.45366 0.0
C121 C 0.31862 0.11055 0.50802 0.0
C122 C 0.20405 0.10921 0.50293 0.0
O123 O 0.27979 0.18915 0.48361 0.0
O124 O 0.25979 0.147 0.45109 0.0
O125 O 0.22705 0.09579 0.49359 0.0
O126 O 0.21225 0.13883 0.51318 0.0
C127 C 0.2723 0.16803 0.57284 0.0
O128 O 0.29067 0.09622 0.51211 0.0
O129 O 0.31999 0.13997 0.50311 0.0
In130 In 0.151 0.02444 0.80364 0.0
O131 O 0.15225 0.01202 0.74733 0.0
O132 O 0.10837 0.02383 0.76311 0.0
C133 C 0.1151 0.02138 0.85762 0.0
C134 C 0.18238 0.97257 0.80556 0.0
C135 C 0.18302 0.0866 0.80688 0.0
O136 O 0.10316 0.01117 0.82789 0.0
O137 O 0.14492 0.03317 0.86003 0.0
O138 O 0.19619 0.06416 0.81805 0.0
O139 O 0.15376 0.07788 0.79552 0.0
C140 C 0.12384 0.01617 0.73877 0.0
O141 O 0.19601 0.99994 0.79881 0.0
O142 O 0.15337 0.97157 0.81199 0.0
In143 In 0.2693 0.88407 0.02613 0.0
O144 O 0.2399 0.85018 0.0581 0.0
O145 O 0.29002 0.84821 0.05759 0.0
C146 C 0.26728 0.84503 0.96835 0.0
C147 C 0.22634 0.92571 0.03004 0.0
C148 C 0.32621 0.92459 0.04121 0.0
O149 O 0.29213 0.86456 0.981 0.0
O150 O 0.24265 0.84582 0.9842 0.0
O151 O 0.31263 0.90769 0.0623 0.0
O152 O 0.31057 0.92186 0.01246 0.0
C153 C 0.26356 0.83743 0.06857 0.0
O154 O 0.23373 0.91355 0.00238 0.0
O155 O 0.24054 0.91685 0.05576 0.0
In156 In 0.28571 0.39418 0.05473 0.0
O157 O 0.26729 0.34682 0.07836 0.0
O158 O 0.29581 0.38528 0.11027 0.0
C159 C 0.28179 0.36922 0.98963 0.0
C160 C 0.23458 0.42627 0.05411 0.0
C161 C 0.34606 0.42934 0.05505 0.0
O162 O 0.28625 0.35227 0.01374 0.0
O163 O 0.27939 0.39814 0.99857 0.0
O164 O 0.32231 0.44176 0.06387 0.0
O165 O 0.33978 0.39903 0.04783 0.0
C166 C 0.28013 0.35684 0.10775 0.0
O167 O 0.26161 0.43772 0.07027 0.0
O168 O 0.23287 0.39811 0.03974 0.0
In169 In 0.78118 0.14523 0.04437 0.0
O170 O 0.82046 0.11959 0.06776 0.0
O171 O 0.80691 0.10888 0.01538 0.0
C172 C 0.72216 0.10925 0.02466 0.0
C173 C 0.78236 0.18151 0.10412 0.0
C174 C 0.79088 0.19184 0.00231 0.0
O175 O 0.73704 0.12863 0.00661 0.0
O176 O 0.73727 0.10738 0.05286 0.0
O177 O 0.76448 0.1846 0.01502 0.0
O178 O 0.81262 0.17591 0.01132 0.0
C179 C 0.82471 0.10393 0.04064 0.0
O180 O 0.76323 0.15513 0.09603 0.0
O181 O 0.80162 0.1893 0.08251 0.0
In182 In 0.14439 0.50927 0.26791 0.0
O183 O 0.17175 0.47087 0.24593 0.0
O184 O 0.17817 0.48237 0.29887 0.0
C185 C 0.18114 0.56736 0.28943 0.0
C186 C 0.1125 0.51025 0.20629 0.0
C187 C 0.09431 0.50065 0.30594 0.0
O188 O 0.1607 0.55277 0.30667 0.0
O189 O 0.1838 0.55226 0.26142 0.0
O190 O 0.10931 0.478 0.29738 0.0
O191 O 0.10431 0.5273 0.29487 0.0
C192 C 0.18525 0.46566 0.27382 0.0
O193 O 0.10436 0.48845 0.22524 0.0
O194 O 0.137 0.53072 0.21802 0.0
In195 In 0.77804 0.89542 0.5539 0.0
O196 O 0.76303 0.84736 0.57725 0.0
O197 O 0.78939 0.88693 0.60948 0.0
C198 C 0.76857 0.85709 0.49469 0.0
C199 C 0.73109 0.93343 0.55112 0.0
C200 C 0.83875 0.93063 0.55693 0.0
O201 O 0.74823 0.85534 0.51627 0.0
O202 O 0.79363 0.87804 0.503 0.0
O203 O 0.81401 0.94379 0.55967 0.0
O204 O 0.83287 0.90008 0.55371 0.0
C205 C 0.77569 0.8577 0.60663 0.0
O206 O 0.7403 0.92187 0.57766 0.0
O207 O 0.74574 0.92621 0.52608 0.0
In208 In 0.89837 0.01542 0.25563 0.0
O209 O 0.94634 0.03402 0.23296 0.0
O210 O 0.90884 0.00368 0.20123 0.0
C211 C 0.92334 0.01426 0.31984 0.0
C212 C 0.86862 0.06835 0.25737 0.0
C213 C 0.86186 0.95554 0.25196 0.0
O214 O 0.94126 0.01703 0.29592 0.0
O215 O 0.89352 0.01233 0.31112 0.0
O216 O 0.84954 0.9804 0.24703 0.0
O217 O 0.89235 0.96078 0.25706 0.0
C218 C 0.9371 0.01976 0.20389 0.0
O219 O 0.86171 0.04557 0.23398 0.0
O220 O 0.89098 0.06494 0.27898 0.0
In221 In 0.27965 0.6438 0.53948 0.0
O222 O 0.31056 0.60781 0.55901 0.0
O223 O 0.31734 0.62322 0.5105 0.0
C224 C 0.22635 0.5987 0.52174 0.0
C225 C 0.27816 0.68014 0.59813 0.0
C226 C 0.28277 0.69331 0.50083 0.0
O227 O 0.24242 0.61289 0.50036 0.0
O228 O 0.23743 0.60693 0.55212 0.0
O229 O 0.25661 0.67491 0.50404 0.0
O230 O 0.30752 0.68644 0.51677 0.0
C231 C 0.32515 0.60565 0.53275 0.0
O232 O 0.25316 0.66521 0.5805 0.0
O233 O 0.30452 0.67575 0.58703 0.0
In234 In 0.39611 0.51342 0.75243 0.0
O235 O 0.37819 0.55641 0.72951 0.0
O236 O 0.3544 0.53776 0.77024 0.0
C237 C 0.36157 0.45276 0.75417 0.0
C238 C 0.4339 0.51571 0.69964 0.0
C239 C 0.43054 0.5291 0.81397 0.0
O240 O 0.34979 0.4745 0.73992 0.0
O241 O 0.39047 0.46148 0.76667 0.0
O242 O 0.4348 0.50554 0.79413 0.0
O243 O 0.41009 0.54509 0.80225 0.0
C244 C 0.35674 0.55885 0.7495 0.0
O245 O 0.44229 0.53281 0.72741 0.0
O246 O 0.4066 0.49779 0.69847 0.0
In247 In 0.65185 0.01275 0.76815 0.0
O248 O 0.67942 0.97596 0.74346 0.0
O249 O 0.685 0.98398 0.79683 0.0
C250 C 0.69068 0.06999 0.78763 0.0
C251 C 0.61496 0.01251 0.70952 0.0
C252 C 0.60398 0.0047 0.80876 0.0
O253 O 0.67222 0.0553 0.80673 0.0
O254 O 0.6903 0.05539 0.75864 0.0
O255 O 0.61873 0.98208 0.79956 0.0
O256 O 0.61336 0.03133 0.79736 0.0
C257 C 0.69231 0.96882 0.77084 0.0
O258 O 0.61098 0.98932 0.72762 0.0
O259 O 0.63811 0.03492 0.72039 0.0
In260 In 0.76855 0.64793 0.0098 0.0
O261 O 0.79562 0.60455 0.01274 0.0
O262 O 0.82271 0.65022 0.00594 0.0
C263 C 0.70781 0.61336 0.00707 0.0
C264 C 0.77458 0.67524 0.07447 0.0
C265 C 0.76918 0.68166 0.95435 0.0
O266 O 0.7308 0.60131 0.99556 0.0
O267 O 0.71531 0.64273 0.01853 0.0
O268 O 0.77867 0.69502 0.98374 0.0
O269 O 0.75922 0.65155 0.95303 0.0
C270 C 0.82301 0.62078 0.00966 0.0
O271 O 0.76782 0.6907 0.04981 0.0
O272 O 0.77878 0.64672 0.06631 0.0
In273 In 0.90911 0.52574 0.78022 0.0
O274 O 0.87188 0.55389 0.80106 0.0
O275 O 0.88089 0.55789 0.74996 0.0
C276 C 0.86928 0.4682 0.76788 0.0
C277 C 0.95604 0.53424 0.73839 0.0
C278 C 0.94929 0.53157 0.83762 0.0
O279 O 0.87667 0.48217 0.79735 0.0
O280 O 0.8814 0.48359 0.74497 0.0
O281 O 0.94361 0.5064 0.81719 0.0
O282 O 0.93406 0.55377 0.82964 0.0
C283 C 0.86513 0.56583 0.77394 0.0
O284 O 0.9458 0.55784 0.75308 0.0
O285 O 0.94223 0.50673 0.74444 0.0
In286 In 0.77571 0.40068 0.52646 0.0
O287 O 0.7965 0.37014 0.56413 0.0
O288 O 0.74548 0.36095 0.5518 0.0
C289 C 0.77142 0.36212 0.46767 0.0
C290 C 0.7333 0.44254 0.5352 0.0
C291 C 0.83318 0.44078 0.54016 0.0
O292 O 0.79515 0.36577 0.48976 0.0
O293 O 0.74968 0.37834 0.47481 0.0
O294 O 0.81664 0.42957 0.56273 0.0
O295 O 0.8202 0.43272 0.5104 0.0
C296 C 0.76964 0.35363 0.56853 0.0
O297 O 0.74962 0.44175 0.51009 0.0
O298 O 0.73805 0.42205 0.55552 0.0
In299 In 0.64286 0.53188 0.29747 0.0
O300 O 0.66362 0.49076 0.31975 0.0
O301 O 0.68081 0.50532 0.27399 0.0
C302 C 0.67729 0.593 0.30293 0.0
C303 C 0.60736 0.51967 0.2364 0.0
C304 C 0.60772 0.52376 0.35135 0.0
O305 O 0.69058 0.56822 0.30031 0.0
O306 O 0.64705 0.58693 0.30369 0.0
O307 O 0.63806 0.53207 0.35393 0.0
O308 O 0.59454 0.52015 0.32141 0.0
C309 C 0.68164 0.48622 0.29669 0.0
O310 O 0.61681 0.49782 0.25243 0.0
O311 O 0.61457 0.54768 0.25173 0.0
Zn312 Zn 0.06175 0.01216 0.05107 0.0
Zn313 Zn 0.99284 0.02455 0.01511 0.0
C314 C 0.05172 0.96068 0.08605 0.0
O315 O 0.06861 0.98534 0.10569 0.0
C316 C 0.99687 0.07986 0.98622 0.0
O317 O 0.98087 0.05642 0.96442 0.0
O318 O 0.10996 0.01005 0.05978 0.0
O319 O 0.05974 0.028 0.00427 0.0
O320 O 0.0138 0.00335 0.97644 0.0
C321 C 0.11723 0.99172 0.03545 0.0
O322 O 0.09462 0.97954 0.01103 0.0
O323 O 0.04327 0.96488 0.05554 0.0
C324 C 0.93636 0.04195 0.03297 0.0
O325 O 0.9592 0.05488 0.05687 0.0
O326 O 0.94386 0.02435 0.00819 0.0
O327 O 0.99778 0.00697 0.06061 0.0
O328 O 0.04118 0.03718 0.08757 0.0
O329 O 0.00902 0.07262 0.01429 0.0
C330 C 0.04372 0.01527 0.97667 0.0
C331 C 0.01178 0.02354 0.0874 0.0
Zn332 Zn 0.26971 0.76524 0.3228 0.0
Zn333 Zn 0.28122 0.76184 0.25094 0.0
C334 C 0.23607 0.70175 0.32509 0.0
O335 O 0.22098 0.71843 0.34599 0.0
C336 C 0.31573 0.82409 0.24752 0.0
O337 O 0.33103 0.806 0.22827 0.0
O338 O 0.26645 0.77012 0.37272 0.0
O339 O 0.31574 0.7811 0.31498 0.0
O340 O 0.31708 0.74245 0.27498 0.0
C341 C 0.29122 0.7749 0.39412 0.0
O342 O 0.31991 0.7837 0.38392 0.0
O343 O 0.25918 0.71662 0.31079 0.0
C344 C 0.26 0.77244 0.18732 0.0
O345 O 0.24174 0.78588 0.20742 0.0
O346 O 0.28135 0.75752 0.20013 0.0
O347 O 0.23471 0.7462 0.25889 0.0
O348 O 0.23467 0.78473 0.29929 0.0
O349 O 0.29225 0.8105 0.26224 0.0
C350 C 0.33105 0.76104 0.30058 0.0
C351 C 0.21995 0.76634 0.27404 0.0
Zn352 Zn 0.48953 0.02832 0.53865 0.0
Zn353 Zn 0.55933 0.01226 0.51728 0.0
C354 C 0.50437 0.08493 0.57726 0.0
O355 O 0.48658 0.0643 0.59397 0.0
C356 C 0.54456 0.95316 0.48192 0.0
O357 O 0.55986 0.97243 0.46204 0.0
O358 O 0.44159 0.03342 0.53835 0.0
O359 O 0.49342 0.00754 0.49269 0.0
O360 O 0.53931 0.03304 0.47813 0.0
C361 C 0.43548 0.05333 0.5172 0.0
O362 O 0.45841 0.06433 0.49862 0.0
O363 O 0.5114 0.07519 0.54818 0.0
C364 C 0.61687 0.99392 0.5415 0.0
O365 O 0.59638 0.98575 0.56364 0.0
O366 O 0.60742 0.0086 0.51678 0.0
O367 O 0.55464 0.0332 0.56319 0.0
O368 O 0.50897 0.00591 0.57667 0.0
O369 O 0.53908 0.96504 0.51078 0.0
C370 C 0.50934 0.02157 0.47091 0.0
C371 C 0.53868 0.01827 0.58446 0.0
Zn372 Zn 0.30266 0.25863 0.77284 0.0
Zn373 Zn 0.24002 0.28143 0.78892 0.0
C374 C 0.28674 0.21777 0.71372 0.0
O375 O 0.29979 0.20042 0.7352 0.0
C376 C 0.25873 0.32099 0.84858 0.0
O377 O 0.24589 0.3395 0.82825 0.0
O378 O 0.34921 0.2543 0.76842 0.0
O379 O 0.30683 0.30653 0.78752 0.0
O380 O 0.26204 0.31511 0.76055 0.0
C381 C 0.35946 0.27194 0.74587 0.0
O382 O 0.33993 0.28933 0.73149 0.0
O383 O 0.28268 0.24614 0.72427 0.0
C384 C 0.18121 0.26652 0.81297 0.0
O385 O 0.19868 0.2462 0.82523 0.0
O386 O 0.19387 0.28705 0.79418 0.0
O387 O 0.23586 0.23345 0.77374 0.0
O388 O 0.2806 0.22533 0.80134 0.0
O389 O 0.26081 0.29231 0.83713 0.0
C390 C 0.29161 0.32501 0.77127 0.0
C391 C 0.25113 0.21518 0.79033 0.0
Zn392 Zn 0.03303 0.98776 0.53874 0.0
Zn393 Zn 0.009 0.05157 0.51995 0.0
C394 C 0.07392 0.00139 0.59788 0.0
O395 O 0.09109 0.98856 0.576 0.0
C396 C 0.96913 0.02886 0.46106 0.0
O397 O 0.94975 0.04075 0.48108 0.0
O398 O 0.03628 0.94039 0.54063 0.0
O399 O 0.98507 0.98473 0.52486 0.0
O400 O 0.97593 0.03052 0.54945 0.0
C401 C 0.01695 0.92872 0.56118 0.0
O402 O 1.00043 0.94813 0.57715 0.0
O403 O 0.04574 0.0061 0.58762 0.0
C404 C 0.0186 0.10653 0.48776 0.0
O405 O 0.03683 0.08737 0.47418 0.0
O406 O 0.00262 0.09717 0.5119 0.0
O407 O 0.05689 0.05682 0.53486 0.0
O408 O 0.06632 0.01084 0.51067 0.0
O409 O 0.99813 0.02839 0.47268 0.0
C410 C 0.96659 1.00047 0.54058 0.0
C411 C 0.07563 0.04091 0.5197 0.0
Zn412 Zn 0.26111 0.80007 0.7741 0.0
Zn413 Zn 0.27529 0.72898 0.78724 0.0
C414 C 0.20204 0.7918 0.739 0.0
O415 O 0.2219 0.81078 0.72259 0.0
C416 C 0.33505 0.74437 0.8219 0.0
O417 O 0.31702 0.72639 0.84087 0.0
O418 O 0.25803 0.84863 0.77672 0.0
O419 O 0.28046 0.79366 0.82007 0.0
O420 O 0.25453 0.74537 0.82826 0.0
C421 C 0.23897 0.85531 0.79861 0.0
O422 O 0.22771 0.83247 0.81716 0.0
O423 O 0.21358 0.78016 0.76483 0.0
C424 C 0.29667 0.67361 0.76032 0.0
O425 O 0.30578 0.69586 0.74026 0.0
O426 O 0.28025 0.681 0.78444 0.0
O427 O 0.25347 0.73591 0.74258 0.0
O428 O 0.2829 0.78242 0.7345 0.0
O429 O 0.32219 0.75097 0.79396 0.0
C430 C 0.26695 0.77437 0.83946 0.0
C431 C 0.26904 0.75385 0.72333 0.0
Zn432 Zn 0.52422 0.02215 0.98792 0.0
Zn433 Zn 0.52386 0.01252 0.06074 0.0
C434 C 0.58809 0.05355 0.9877 0.0
O435 O 0.57194 0.06848 0.9662 0.0
C436 C 0.46082 0.98131 0.06554 0.0
O437 O 0.47829 0.96668 0.08611 0.0
O438 O 0.52177 0.021 0.93731 0.0
O439 O 0.50371 0.97794 0.9977 0.0
O440 O 0.54087 0.97436 0.03822 0.0
C441 C 0.53394 0.99763 0.92434 0.0
O442 O 0.54332 0.9768 0.94406 0.0
O443 O 0.57266 0.0307 0.00193 0.0
C444 C 0.51581 0.03703 0.1246 0.0
O445 O 0.50534 0.05726 0.10479 0.0
O446 O 0.52842 0.01397 0.11155 0.0
O447 O 0.54221 0.05769 0.05075 0.0
O448 O 0.50613 0.05984 0.00855 0.0
O449 O 0.47506 0.00353 0.04962 0.0
C450 C 0.52188 0.96113 0.01264 0.0
C451 C 0.52395 0.07367 0.03463 0.0
Zn452 Zn 0.27914 0.2316 0.25988 0.0
Zn453 Zn 0.26855 0.29973 0.29837 0.0
C454 C 0.33021 0.23785 0.22371 0.0
O455 O 0.30453 0.2229 0.20421 0.0
C456 C 0.21474 0.28892 0.33041 0.0
O457 O 0.2385 0.30354 0.35262 0.0
O458 O 0.27787 0.18289 0.24985 0.0
O459 O 0.26503 0.2334 0.30757 0.0
O460 O 0.29172 0.27844 0.33541 0.0
C461 C 0.29663 0.17479 0.27325 0.0
O462 O 0.3112 0.19719 0.29691 0.0
O463 O 0.32675 0.24715 0.25424 0.0
C464 C 0.24882 0.35532 0.28284 0.0
O465 O 0.23653 0.3326 0.25856 0.0
O466 O 0.26679 0.34801 0.30741 0.0
O467 O 0.2858 0.29746 0.25232 0.0
O468 O 0.25547 0.25443 0.22452 0.0
O469 O 0.22094 0.28187 0.30023 0.0
C470 C 0.27927 0.24864 0.33498 0.0
C471 C 0.27012 0.28352 0.22502 0.0
Zn472 Zn 0.53219 0.49159 0.02967 0.0
Zn473 Zn 0.51429 0.55741 0.01793 0.0
C474 C 0.5647 0.49844 0.09422 0.0
O475 O 0.58072 0.47997 0.07628 0.0
C476 C 0.47948 0.55121 0.95504 0.0
O477 O 0.46284 0.567 0.9751 0.0
O478 O 0.53188 0.44368 0.03173 0.0
O479 O 0.4861 0.49182 0.01082 0.0
O480 O 0.47835 0.53411 0.04268 0.0
C481 C 0.51176 0.43373 0.05227 0.0
O482 O 0.4957 0.45449 0.06675 0.0
O483 O 0.54143 0.50951 0.07942 0.0
C484 C 0.53541 0.62043 0.00421 0.0
O485 O 0.55823 0.60507 0.99414 0.0
O486 O 0.51205 0.605 0.01777 0.0
O487 O 0.56088 0.55707 0.03546 0.0
O488 O 0.56917 0.51354 0.00558 0.0
O489 O 0.50466 0.5417 0.96782 0.0
C490 C 0.46794 0.50549 0.0291 0.0
C491 C 0.57965 0.54219 0.01916 0.0
Zn492 Zn 0.75452 0.31162 0.2652 0.0
Zn493 Zn 0.79592 0.24356 0.29086 0.0
C494 C 0.69977 0.29905 0.22034 0.0
O495 O 0.72132 0.31562 0.20362 0.0
C496 C 0.85609 0.29106 0.29803 0.0
O497 O 0.83989 0.31092 0.31379 0.0
O498 O 0.75442 0.36022 0.26541 0.0
O499 O 0.7634 0.30283 0.31387 0.0
O500 O 0.78509 0.26347 0.33533 0.0
C501 C 0.73428 0.36805 0.28546 0.0
O502 O 0.71869 0.34535 0.3015 0.0
O503 O 0.70842 0.29239 0.24976 0.0
C504 C 0.81126 0.18409 0.26564 0.0
O505 O 0.81524 0.20152 0.2401 0.0
O506 O 0.80122 0.19644 0.29218 0.0
O507 O 0.76339 0.24686 0.25207 0.0
O508 O 0.78007 0.29177 0.23014 0.0
O509 O 0.84102 0.26413 0.28367 0.0
C510 C 0.7723 0.28882 0.33916 0.0
C511 C 0.77485 0.26097 0.22778 0.0
Zn512 Zn 0.02883 0.52095 0.48895 0.0
Zn513 Zn 0.03426 0.51747 0.56108 0.0
C514 C 0.09896 0.52625 0.48138 0.0
O515 O 0.09007 0.51542 0.44967 0.0
C516 C 0.96879 0.49162 0.56858 0.0
O517 O 0.98378 0.47867 0.59272 0.0
O518 O 0.0239 0.52028 0.43825 0.0
O519 O 0.00998 0.47653 0.5007 0.0
O520 O 0.05006 0.47802 0.5399 0.0
C521 C 0.0208 0.49369 0.41956 0.0
O522 O 0.01563 0.46633 0.43341 0.0
O523 O 0.0775 0.52876 0.50161 0.0
C524 C 0.03296 0.54499 0.62754 0.0
O525 O 0.02925 0.56972 0.61055 0.0
O526 O 0.0396 0.51962 0.61191 0.0
O527 O 0.05294 0.56164 0.54901 0.0
O528 O 0.01268 0.5603 0.51026 0.0
O529 O 0.98538 0.50995 0.55032 0.0
C530 C 0.02948 0.46197 0.517 0.0
C531 C 0.0331 0.5763 0.53336 0.0
Zn532 Zn 0.79833 0.7653 0.27495 0.0
Zn533 Zn 0.73447 0.78919 0.28962 0.0
C534 C 0.78638 0.7255 0.2152 0.0
O535 O 0.79755 0.70771 0.23746 0.0
C536 C 0.7399 0.78873 0.3614 0.0
O537 O 0.71243 0.76856 0.35387 0.0
O538 O 0.84485 0.75951 0.27532 0.0
O539 O 0.80172 0.81294 0.29021 0.0
O540 O 0.75801 0.82179 0.26134 0.0
C541 C 0.86076 0.78054 0.25929 0.0
O542 O 0.84592 0.80185 0.24511 0.0
O543 O 0.78221 0.75393 0.22534 0.0
C544 C 0.66431 0.77779 0.28452 0.0
O545 O 0.6665 0.75434 0.2614 0.0
O546 O 0.6896 0.79798 0.29573 0.0
O547 O 0.72849 0.74105 0.276 0.0
O548 O 0.77408 0.73197 0.30138 0.0
O549 O 0.75563 0.79914 0.33754 0.0
C550 C 0.78739 0.83137 0.27295 0.0
C551 C 0.74432 0.72244 0.29137 0.0
Zn552 Zn 0.77469 0.26824 0.81977 0.0
Zn553 Zn 0.78511 0.27014 0.74601 0.0
C554 C 0.74535 0.20434 0.8209 0.0
O555 O 0.72984 0.22045 0.84189 0.0
C556 C 0.81444 0.33357 0.7434 0.0
O557 O 0.83016 0.31697 0.7231 0.0
O558 O 0.77575 0.27082 0.8706 0.0
O559 O 0.81852 0.28995 0.81013 0.0
O560 O 0.82393 0.25438 0.76861 0.0
C561 C 0.79867 0.25798 0.88351 0.0
O562 O 0.8192 0.24802 0.86368 0.0
O563 O 0.76774 0.21991 0.80619 0.0
C564 C 0.76101 0.27866 0.68115 0.0
O565 O 0.73841 0.28603 0.69968 0.0
O566 O 0.78464 0.26752 0.6951 0.0
O567 O 0.74055 0.24958 0.75544 0.0
O568 O 0.73608 0.28435 0.79821 0.0
O569 O 0.79211 0.31853 0.75859 0.0
C570 C 0.83617 0.27281 0.79497 0.0
C571 C 0.72337 0.26652 0.77165 0.0
Zn572 Zn 0.77947 0.72918 0.758 0.0
Zn573 Zn 0.76652 0.79793 0.79234 0.0
C574 C 0.83438 0.73283 0.72723 0.0
O575 O 0.81015 0.71881 0.70526 0.0
C576 C 0.70716 0.79258 0.8154 0.0
O577 O 0.72782 0.81007 0.83898 0.0
O578 O 0.77821 0.68058 0.74738 0.0
O579 O 0.76278 0.73121 0.80476 0.0
O580 O 0.78596 0.77797 0.83206 0.0
C581 C 0.79382 0.67041 0.77191 0.0
O582 O 0.80493 0.69064 0.79869 0.0
O583 O 0.82806 0.74368 0.75631 0.0
C584 C 0.75099 0.85519 0.77505 0.0
O585 O 0.73923 0.83341 0.74972 0.0
O586 O 0.76669 0.84643 0.80037 0.0
O587 O 0.78816 0.79458 0.749 0.0
O588 O 0.75812 0.75187 0.72076 0.0
O589 O 0.7179 0.78063 0.78906 0.0
C590 C 0.77424 0.74812 0.83232 0.0
C591 C 0.77283 0.78093 0.72147 0.0
Zn592 Zn 0.56227 0.50774 0.55088 0.0
Zn593 Zn 0.49336 0.52899 0.5126 0.0
C594 C 0.55476 0.45796 0.59094 0.0
O595 O 0.56722 0.48379 0.61157 0.0
C596 C 0.50336 0.59785 0.52859 0.0
O597 O 0.477 0.59084 0.54389 0.0
O598 O 0.61044 0.51152 0.56551 0.0
O599 O 0.55925 0.51038 0.49983 0.0
O600 O 0.51118 0.5092 0.47224 0.0
C601 C 0.63206 0.51996 0.54598 0.0
O602 O 0.62466 0.53588 0.52036 0.0
O603 O 0.54796 0.46138 0.55995 0.0
C604 C 0.42466 0.527 0.51908 0.0
O605 O 0.4295 0.5072 0.5419 0.0
O606 O 0.44722 0.53601 0.50083 0.0
O607 O 0.49311 0.50565 0.55494 0.0
O608 O 0.53726 0.53339 0.58294 0.0
O609 O 0.51781 0.57493 0.5187 0.0
C610 C 0.54138 0.50895 0.4722 0.0
C611 C 0.50777 0.51998 0.58249 0.0
Zn612 Zn 0.99759 0.54446 0.03799 0.0
Zn613 Zn 0.06335 0.50425 0.01342 0.0
C614 C 0.01478 0.59562 0.08798 0.0
O615 O 0.99903 0.57308 0.10417 0.0
C616 C 0.0447 0.43933 0.02948 0.0
O617 O 0.07095 0.4468 0.05073 0.0
O618 O 0.94954 0.54814 0.03662 0.0
O619 O 0.0069 0.53892 0.98958 0.0
O620 O 0.04874 0.52036 0.9698 0.0
C621 C 0.94458 0.57231 0.02081 0.0
O622 O 0.96916 0.58884 0.00805 0.0
O623 O 0.01929 0.58883 0.05737 0.0
C624 C 0.13076 0.50043 0.03641 0.0
O625 O 0.12756 0.52274 0.06031 0.0
O626 O 0.108 0.49154 0.01281 0.0
O627 O 0.06181 0.53377 0.05523 0.0
O628 O 0.01415 0.51463 0.07063 0.0
O629 O 0.03453 0.46156 0.01412 0.0
C630 C 0.0229 0.53214 0.96514 0.0
C631 C 0.04482 0.52102 0.07697 0.0
C632 C 0.02404 0.16985 0.98155 0.0
C633 C 1.00044 0.17609 0.95698 0.0
H634 H 0.04139 0.1342 0.01062 0.0
C635 C 0.97491 0.15118 0.94431 0.0
H636 H 0.04398 0.18872 0.99178 0.0
C637 C 0.97371 0.1203 0.95467 0.0
C638 C 0.99782 0.11358 0.97823 0.0
H639 H 0.95628 0.15521 0.92551 0.0
H640 H 0.95397 0.1015 0.94376 0.0
C641 C 0.0226 0.13877 0.99232 0.0
C642 C 0.13987 0.79634 0.26115 0.0
C643 C 0.12885 0.7825 0.2282 0.0
H644 H 0.17792 0.80246 0.30159 0.0
C645 C 0.14703 0.76229 0.21129 0.0
H646 H 0.12596 0.81177 0.27474 0.0
C647 C 0.17583 0.75601 0.22692 0.0
C648 C 0.18775 0.77078 0.25937 0.0
H649 H 0.13869 0.75084 0.18608 0.0
H650 H 0.18912 0.74012 0.2131 0.0
C651 C 0.16942 0.7909 0.27649 0.0
C652 C 0.52731 0.86189 0.48278 0.0
C653 C 0.52557 0.85187 0.44812 0.0
H654 H 0.53415 0.90228 0.52092 0.0
C655 C 0.52829 0.87531 0.42504 0.0
H656 H 0.52506 0.84425 0.50106 0.0
C657 C 0.53353 0.90809 0.43627 0.0
C658 C 0.53587 0.9183 0.47084 0.0
H659 H 0.52688 0.86838 0.39815 0.0
H660 H 0.53609 0.92551 0.41776 0.0
C661 C 0.53222 0.89497 0.49408 0.0
C662 C 0.44706 0.26189 0.74108 0.0
C663 C 0.45304 0.27411 0.71009 0.0
H664 H 0.41227 0.25113 0.77678 0.0
C665 C 0.42821 0.2853 0.69132 0.0
H666 H 0.46586 0.253 0.75594 0.0
C667 C 0.39802 0.28454 0.70326 0.0
C668 C 0.39177 0.27221 0.73409 0.0
H669 H 0.43212 0.29486 0.66737 0.0
H670 H 0.37945 0.29344 0.68805 0.0
C671 C 0.41647 0.2607 0.7529 0.0
C672 C 0.98515 0.85133 0.59738 0.0
C673 C 0.00868 0.8322 0.5906 0.0
H674 H 0.96923 0.89652 0.59301 0.0
C675 C 0.03364 0.8438 0.5711 0.0
H676 H 0.9655 0.84297 0.61211 0.0
C677 C 0.0359 0.87483 0.56012 0.0
C678 C 0.01326 0.89459 0.56861 0.0
H679 H 0.05211 0.82949 0.56551 0.0
H680 H 0.05599 0.88378 0.54624 0.0
C681 C 0.9874 0.88213 0.58651 0.0
C682 C 0.41179 0.76628 0.87997 0.0
C683 C 0.43569 0.77008 0.85738 0.0
H684 H 0.36145 0.7555 0.88629 0.0
C685 C 0.42615 0.76773 0.82257 0.0
H686 H 0.41825 0.76816 0.90696 0.0
C687 C 0.39316 0.7608 0.81065 0.0
C688 C 0.36951 0.7557 0.83344 0.0
H689 H 0.4441 0.77075 0.80464 0.0
H690 H 0.38623 0.75821 0.78372 0.0
C691 C 0.37917 0.75901 0.86814 0.0
C692 C 0.53548 0.14891 0.09554 0.0
C693 C 0.51232 0.16594 0.08187 0.0
H694 H 0.55805 0.10722 0.09076 0.0
C695 C 0.49424 0.15361 0.05105 0.0
H696 H 0.55013 0.1581 0.119 0.0
C697 C 0.49849 0.12392 0.03484 0.0
C698 C 0.52121 0.10653 0.04907 0.0
H699 H 0.4764 0.16651 0.03989 0.0
H700 H 0.4836 0.11435 0.01165 0.0
C701 C 0.54013 0.11978 0.07917 0.0
C702 C 0.12422 0.28562 0.33057 0.0
C703 C 0.12072 0.28449 0.3652 0.0
H704 H 0.15701 0.28722 0.29193 0.0
C705 C 0.14768 0.28174 0.38722 0.0
H706 H 0.10371 0.28743 0.31299 0.0
C707 C 0.17779 0.28153 0.37524 0.0
C708 C 0.18169 0.28382 0.34092 0.0
H709 H 0.14572 0.28046 0.41395 0.0
H710 H 0.1983 0.28034 0.39311 0.0
C711 C 0.15454 0.28513 0.31845 0.0
C712 C 0.98916 0.03865 0.17778 0.0
C713 C 0.9572 0.02142 0.17489 0.0
H714 H 0.03185 0.05301 0.15253 0.0
C715 C 0.94398 0.00527 0.14347 0.0
H716 H 1.00005 0.05138 0.20171 0.0
C717 C 0.96196 0.00617 0.1157 0.0
C718 C 0.9939 0.0233 0.1182 0.0
H719 H 0.9195 0.99181 0.14018 0.0
H720 H 0.95048 0.99331 0.09203 0.0
C721 C 0.00738 0.03958 0.14966 0.0
C722 C 0.25624 0.72508 0.46028 0.0
C723 C 0.28453 0.71921 0.47814 0.0
H724 H 0.23609 0.7483 0.42011 0.0
C725 C 0.31462 0.73653 0.47213 0.0
H726 H 0.23267 0.71242 0.46479 0.0
C727 C 0.31662 0.75723 0.44657 0.0
C728 C 0.28855 0.76084 0.4266 0.0
H729 H 0.33678 0.73277 0.4859 0.0
H730 H 0.34035 0.76865 0.44106 0.0
C731 C 0.25822 0.74579 0.43479 0.0
C732 C 0.60123 0.04006 0.65909 0.0
C733 C 0.59392 0.01407 0.67849 0.0
H734 H 0.58902 0.06195 0.61473 0.0
C735 C 0.56641 0.99034 0.66812 0.0
H736 H 0.62203 0.05889 0.66654 0.0
C737 C 0.54707 0.99224 0.63825 0.0
C738 C 0.55525 0.01775 0.61835 0.0
H739 H 0.56009 0.97018 0.68285 0.0
H740 H 0.52658 0.97326 0.63012 0.0
C741 C 0.58219 0.04184 0.62942 0.0
C742 C 0.27883 0.32377 0.94347 0.0
C743 C 0.27856 0.35657 0.9536 0.0
H744 H 0.273 0.28657 0.90202 0.0
C745 C 0.27402 0.37759 0.9288 0.0
H746 H 0.28239 0.30703 0.96206 0.0
C747 C 0.26872 0.36601 0.89477 0.0
C748 C 0.26786 0.33308 0.88453 0.0
H749 H 0.27391 0.40305 0.93569 0.0
H750 H 0.26467 0.38291 0.87649 0.0
C751 C 0.27357 0.3121 0.90915 0.0
C752 C 0.91377 0.0122 0.38029 0.0
C753 C 0.93574 0.01456 0.35562 0.0
H754 H 0.90718 0.01439 0.43279 0.0
C755 C 0.96908 0.01849 0.36581 0.0
H756 H 0.88791 0.00887 0.37331 0.0
C757 C 0.98019 0.0214 0.40021 0.0
C758 C 0.9581 0.02062 0.42483 0.0
H759 H 0.98655 0.02024 0.34731 0.0
H760 H 0.00602 0.02568 0.40752 0.0
C761 C 0.92481 0.01529 0.41444 0.0
C762 C 0.30346 0.72242 0.64528 0.0
C763 C 0.27612 0.70138 0.62894 0.0
H764 H 0.32246 0.7568 0.68805 0.0
C765 C 0.24613 0.70082 0.64209 0.0
H766 H 0.32681 0.72352 0.63545 0.0
C767 C 0.24373 0.71965 0.67182 0.0
C768 C 0.27112 0.73987 0.6888 0.0
H769 H 0.22458 0.68509 0.62995 0.0
H770 H 0.22054 0.71766 0.68217 0.0
C771 C 0.30091 0.74179 0.67498 0.0
C772 C 0.57259 0.97174 0.84766 0.0
C773 C 0.58015 1.00124 0.83375 0.0
H774 H 0.55114 0.94737 0.88713 0.0
C775 C 0.56731 0.02818 0.84638 0.0
H776 H 0.58182 0.95048 0.83814 0.0
C777 C 0.54955 0.02637 0.87441 0.0
C778 C 0.54458 0.99762 0.89018 0.0
H779 H 0.57253 0.05115 0.83586 0.0
H780 H 0.54181 0.04806 0.88508 0.0
C781 C 0.55497 0.96996 0.87567 0.0
C782 C 0.29063 0.3513 0.16927 0.0
C783 C 0.27699 0.33733 0.13713 0.0
H784 H 0.29896 0.34565 0.22154 0.0
C785 C 0.26049 0.30506 0.13377 0.0
H786 H 0.30336 0.37607 0.17292 0.0
C787 C 0.25792 0.28721 0.16205 0.0
C788 C 0.27178 0.30135 0.19422 0.0
H789 H 0.24965 0.29359 0.10929 0.0
H790 H 0.24525 0.26244 0.15871 0.0
C791 C 0.28805 0.33367 0.19729 0.0
C792 C 0.19274 0.95881 0.06338 0.0
C793 C 0.20153 0.94693 0.03204 0.0
H794 H 0.1592 0.98312 0.08925 0.0
C795 C 0.185 0.95389 0.00233 0.0
H796 H 0.20522 0.95397 0.08673 0.0
C797 C 0.15892 0.97049 0.00383 0.0
C798 C 0.14885 0.98073 0.03505 0.0
H799 H 0.19134 0.94539 0.97782 0.0
H800 H 0.14575 0.9742 0.98039 0.0
C801 C 0.16663 0.97573 0.06488 0.0
C802 C 0.66585 0.56249 0.99415 0.0
C803 C 0.67517 0.5945 0.00924 0.0
H804 H 0.6282 0.5206 0.98523 0.0
C805 C 0.65323 0.6085 0.02786 0.0
H806 H 0.68236 0.551 0.97979 0.0
C807 C 0.62277 0.59111 0.03143 0.0
C808 C 0.61299 0.55927 0.01605 0.0
H809 H 0.65967 0.63297 0.04008 0.0
H810 H 0.60675 0.60294 0.04618 0.0
C811 C 0.63493 0.54505 0.99739 0.0
C812 C 0.71579 0.45073 0.26696 0.0
C813 C 0.6997 0.45873 0.29525 0.0
H814 H 0.73992 0.41563 0.24161 0.0
C815 C 0.69864 0.43853 0.32148 0.0
H816 H 0.71703 0.46591 0.24636 0.0
C817 C 0.71154 0.41003 0.31873 0.0
C818 C 0.72602 0.40097 0.28975 0.0
H819 H 0.68671 0.44408 0.34374 0.0
H820 H 0.7092 0.39448 0.339 0.0
C821 C 0.72898 0.42206 0.26427 0.0
C822 C 0.88193 0.46004 0.58087 0.0
C823 C 0.86669 0.45831 0.548 0.0
H824 H 0.92626 0.47194 0.613 0.0
C825 C 0.88471 0.47063 0.52242 0.0
H826 H 0.86869 0.45082 0.60113 0.0
C827 C 0.91778 0.48312 0.52936 0.0
C828 C 0.93331 0.48295 0.56183 0.0
H829 H 0.87353 0.46962 0.49686 0.0
H830 H 0.93145 0.49141 0.50901 0.0
C831 C 0.91494 0.47201 0.58765 0.0
C832 C 0.33098 0.10539 0.30621 0.0
C833 C 0.33692 0.08811 0.27646 0.0
H834 H 0.31262 0.14587 0.32822 0.0
C835 C 0.32471 0.09664 0.24517 0.0
H836 H 0.33965 0.09917 0.33069 0.0
C837 C 0.30894 0.12357 0.24373 0.0
C838 C 0.30531 0.1422 0.27358 0.0
H839 H 0.32882 0.08358 0.22182 0.0
H840 H 0.30161 0.13103 0.21938 0.0
C841 C 0.31538 0.13209 0.30477 0.0
C842 C 0.34818 0.06569 0.5249 0.0
C843 C 0.34775 0.09471 0.50973 0.0
H844 H 0.37641 0.02986 0.5398 0.0
C845 C 0.376 0.10937 0.49701 0.0
H846 H 0.32677 0.05391 0.53511 0.0
C847 C 0.40399 0.09547 0.49924 0.0
C848 C 0.40482 0.06675 0.51481 0.0
H849 H 0.37651 0.13169 0.4852 0.0
H850 H 0.42525 0.1077 0.48913 0.0
C851 C 0.37659 0.05198 0.52772 0.0
C852 C 0.72906 0.63277 0.3037 0.0
C853 C 0.69507 0.62637 0.30254 0.0
H854 H 0.77149 0.66837 0.30142 0.0
C855 C 0.6778 0.65204 0.29925 0.0
H856 H 0.74301 0.61344 0.30625 0.0
C857 C 0.69397 0.68319 0.2961 0.0
C858 C 0.72787 0.68957 0.29654 0.0
H859 H 0.65162 0.64795 0.29831 0.0
H860 H 0.67982 0.7023 0.2932 0.0
C861 C 0.74535 0.66417 0.30099 0.0
C862 C 0.83624 0.41877 0.78639 0.0
C863 C 0.85096 0.43502 0.76084 0.0
H864 H 0.81236 0.3735 0.80067 0.0
C865 C 0.85046 0.41835 0.72881 0.0
H866 H 0.83623 0.43114 0.81128 0.0
C867 C 0.83736 0.38557 0.72299 0.0
C868 C 0.82398 0.36894 0.74887 0.0
H869 H 0.8615 0.43025 0.70858 0.0
H870 H 0.83843 0.37302 0.69839 0.0
C871 C 0.82253 0.38593 0.78033 0.0
C872 C 0.04542 0.90012 0.15018 0.0
C873 C 0.03868 0.87043 0.1301 0.0
H874 H 0.05395 0.95148 0.15199 0.0
C875 C 0.03327 0.87031 0.09483 0.0
H876 H 0.04923 0.90108 0.17742 0.0
C877 C 0.0361 0.89966 0.07995 0.0
C878 C 0.04431 0.9293 0.10026 0.0
H879 H 0.02785 0.84767 0.07878 0.0
H880 H 0.03305 0.89913 0.05273 0.0
C881 C 0.04811 0.9291 0.13551 0.0
C882 C 0.9076 0.28706 0.86089 0.0
C883 C 0.92681 0.26525 0.84877 0.0
H884 H 0.86494 0.30749 0.85284 0.0
C885 C 0.91761 0.24753 0.81707 0.0
H886 H 0.91446 0.30145 0.88498 0.0
C887 C 0.8885 0.25047 0.79862 0.0
C888 C 0.86877 0.27169 0.81142 0.0
H889 H 0.93229 0.23071 0.80715 0.0
H890 H 0.88113 0.23567 0.77488 0.0
C891 C 0.87925 0.29062 0.84227 0.0
C892 C 0.53061 0.1762 0.58771 0.0
C893 C 0.52706 0.18309 0.62213 0.0
H894 H 0.52642 0.13927 0.54617 0.0
C895 C 0.51814 0.15746 0.64159 0.0
H896 H 0.53766 0.19558 0.57221 0.0
C897 C 0.51188 0.12568 0.62691 0.0
C898 C 0.51439 0.11863 0.59236 0.0
H899 H 0.51551 0.1619 0.66824 0.0
H900 H 0.50458 0.1066 0.6427 0.0
C901 C 0.52437 0.14408 0.57289 0.0
C902 C 0.61217 0.78924 0.35565 0.0
C903 C 0.58505 0.76504 0.34598 0.0
H904 H 0.65795 0.81293 0.34343 0.0
C905 C 0.58281 0.74692 0.31444 0.0
H906 H 0.61439 0.80389 0.37962 0.0
C907 C 0.60791 0.75207 0.29356 0.0
C908 C 0.63551 0.7757 0.30369 0.0
H909 H 0.56201 0.7283 0.30624 0.0
H910 H 0.60608 0.73697 0.26991 0.0
C911 C 0.63701 0.79465 0.33468 0.0
C912 C 0.02349 0.1698 0.42631 0.0
C913 C 0.01685 0.19692 0.44568 0.0
H914 H 0.02923 0.12026 0.42455 0.0
C915 C 0.00884 0.19376 0.47888 0.0
H916 H 0.02966 0.17138 0.40064 0.0
C917 C 0.00823 0.16404 0.49262 0.0
C918 C 0.0162 0.13738 0.47348 0.0
H919 H 0.00355 0.21432 0.49434 0.0
H920 H 0.00259 0.16222 0.51842 0.0
C921 C 0.02338 0.1405 0.4401 0.0
C922 C 0.60911 0.26981 0.21107 0.0
C923 C 0.60071 0.27675 0.17806 0.0
H924 H 0.64731 0.27123 0.25044 0.0
C925 C 0.62511 0.29023 0.15897 0.0
H926 H 0.59074 0.25927 0.22626 0.0
C927 C 0.65728 0.29696 0.17266 0.0
C928 C 0.66579 0.29033 0.20574 0.0
H929 H 0.61939 0.2957 0.13338 0.0
H930 H 0.67545 0.30754 0.15727 0.0
C931 C 0.64145 0.27652 0.22482 0.0
C932 C 0.50609 0.88801 0.94873 0.0
C933 C 0.53069 0.87091 0.95855 0.0
H934 H 0.48327 0.92884 0.95881 0.0
C935 C 0.55109 0.88211 0.9883 0.0
H936 H 0.48959 0.87962 0.92629 0.0
C937 C 0.54777 0.91099 0.00701 0.0
C938 C 0.52365 0.92858 0.99643 0.0
H939 H 0.57005 0.86907 0.99653 0.0
H940 H 0.56452 0.91992 0.02911 0.0
C941 C 0.50235 0.91618 0.96761 0.0
C942 C 0.92484 0.75751 0.72159 0.0
C943 C 0.92935 0.73658 0.69359 0.0
H944 H 0.89103 0.7728 0.75466 0.0
C945 C 0.90315 0.71331 0.67887 0.0
H946 H 0.94467 0.7757 0.73347 0.0
C947 C 0.8728 0.71189 0.69069 0.0
C948 C 0.86774 0.73357 0.71772 0.0
H949 H 0.9058 0.6967 0.65744 0.0
H950 H 0.85306 0.69396 0.67814 0.0
C951 C 0.89422 0.75591 0.73371 0.0
C952 C 0.06271 0.00648 0.88439 0.0
C953 C 0.09605 0.01951 0.88745 0.0
H954 H 0.01974 0.9948 0.90995 0.0
C955 C 0.11147 0.0308 0.9197 0.0
H956 H 0.05009 0.99752 0.85985 0.0
C957 C 0.09425 0.02925 0.9481 0.0
C958 C 0.06091 0.01633 0.94537 0.0
H959 H 0.13704 0.04089 0.92312 0.0
H960 H 0.10739 0.03826 0.97239 0.0
C961 C 0.0453 0.0049 0.91307 0.0
C962 C 0.79472 0.32022 0.60872 0.0
C963 C 0.76679 0.32945 0.5933 0.0
H964 H 0.81472 0.2959 0.64831 0.0
C965 C 0.7365 0.31738 0.60372 0.0
H966 H 0.81838 0.32896 0.60095 0.0
C967 C 0.73444 0.29857 0.63089 0.0
C968 C 0.76258 0.29117 0.64783 0.0
H969 H 0.71457 0.32393 0.59213 0.0
H970 H 0.71095 0.29119 0.63974 0.0
C971 C 0.79261 0.30104 0.63564 0.0
C972 C 0.44391 0.00305 0.39841 0.0
C973 C 0.45583 0.02375 0.37498 0.0
H974 H 0.45149 0.98599 0.44643 0.0
C975 C 0.4865 0.04333 0.38257 0.0
H976 H 0.42046 0.98758 0.39331 0.0
C977 C 0.50476 0.0423 0.41341 0.0
C978 C 0.49239 0.02184 0.43703 0.0
H979 H 0.49632 0.05938 0.36474 0.0
H980 H 0.52812 0.05783 0.419 0.0
C981 C 0.46186 0.00215 0.42897 0.0
C982 C 0.77206 0.72049 0.11935 0.0
C983 C 0.77675 0.68865 0.11023 0.0
H984 H 0.77119 0.75731 0.15986 0.0
C985 C 0.78335 0.66906 0.13581 0.0
H986 H 0.76679 0.73611 0.10014 0.0
C987 C 0.78568 0.68101 0.16968 0.0
C988 C 0.78151 0.71295 0.17901 0.0
H989 H 0.78691 0.64437 0.1297 0.0
H990 H 0.7911 0.66514 0.18857 0.0
C991 C 0.77442 0.73256 0.15349 0.0
C992 C 0.13005 0.00535 0.67761 0.0
C993 C 0.11057 0.01315 0.70293 0.0
H994 H 0.13395 0.99601 0.62496 0.0
C995 C 0.079 0.01839 0.69347 0.0
H996 H 0.15454 1.00135 0.68398 0.0
C997 C 0.06707 0.0154 0.65928 0.0
C998 C 0.08654 0.0071 0.63402 0.0
H999 H 0.06349 0.0246 0.71246 0.0
H1000 H 0.04251 0.01906 0.65268 0.0
C1001 C 0.11822 0.00238 0.64366 0.0
C1002 C 0.74573 0.34148 0.40949 0.0
C1003 C 0.76986 0.34107 0.4358 0.0
H1004 H 0.72714 0.32449 0.35862 0.0
C1005 C 0.79314 0.32095 0.43106 0.0
H1006 H 0.72731 0.3565 0.41247 0.0
C1007 C 0.79298 0.30251 0.40017 0.0
C1008 C 0.76975 0.30416 0.37333 0.0
H1009 H 0.8119 0.31991 0.45101 0.0
H1010 H 0.81184 0.2881 0.39684 0.0
C1011 C 0.74575 0.32329 0.37858 0.0
C1012 C 0.48389 0.00659 0.20333 0.0
C1013 C 0.47043 0.03321 0.21574 0.0
H1014 H 0.5096 0.98701 0.1646 0.0
C1015 C 0.47711 0.06256 0.20137 0.0
H1016 H 0.47932 0.98372 0.21416 0.0
C1017 C 0.49456 0.06448 0.17325 0.0
C1018 C 0.50559 0.03708 0.15896 0.0
H1019 H 0.46741 0.08359 0.21071 0.0
H1020 H 0.49774 0.08694 0.16149 0.0
C1021 C 0.50141 0.00852 0.17511 0.0
C1022 C 0.75823 0.68292 0.89205 0.0
C1023 C 0.77007 0.69947 0.9237 0.0
H1024 H 0.75008 0.68509 0.83902 0.0
C1025 C 0.78301 0.73272 0.92543 0.0
H1026 H 0.74809 0.65737 0.88972 0.0
C1027 C 0.78431 0.7489 0.896 0.0
C1028 C 0.77262 0.73214 0.86426 0.0
H1029 H 0.79235 0.74618 0.94949 0.0
H1030 H 0.7946 0.77439 0.89809 0.0
C1031 C 0.75942 0.69897 0.86285 0.0
C1032 C 0.86849 0.07844 0.06777 0.0
C1033 C 0.85011 0.08341 0.03836 0.0
H1034 H 0.90963 0.06057 0.08892 0.0
C1035 C 0.85776 0.07048 0.00692 0.0
H1036 H 0.86303 0.08774 0.09236 0.0
C1037 C 0.88464 0.05468 0.00489 0.0
C1038 C 0.90419 0.05169 0.0343 0.0
H1039 H 0.84389 0.07383 0.9838 0.0
H1040 H 0.89116 0.04659 0.98033 0.0
C1041 C 0.89518 0.06278 0.06575 0.0
C1042 C 0.4 0.43474 0.03226 0.0
C1043 C 0.37769 0.44894 0.05016 0.0
H1044 H 0.44518 0.44143 0.01096 0.0
C1045 C 0.38512 0.48224 0.06119 0.0
H1046 H 0.39494 0.40927 0.02314 0.0
C1047 C 0.41438 0.50086 0.05449 0.0
C1048 C 0.43649 0.48663 0.03615 0.0
H1049 H 0.36829 0.49391 0.07488 0.0
H1050 H 0.41954 0.52637 0.06343 0.0
C1051 C 0.4288 0.45335 0.02508 0.0
C1052 C 0.34094 0.60804 0.72603 0.0
C1053 C 0.33811 0.58606 0.75058 0.0
H1054 H 0.32974 0.65231 0.70959 0.0
C1055 C 0.31921 0.59171 0.7773 0.0
H1056 H 0.35516 0.60439 0.70507 0.0
C1057 C 0.30463 0.61952 0.78009 0.0
C1058 C 0.30857 0.64215 0.75615 0.0
H1059 H 0.31659 0.57521 0.79667 0.0
H1060 H 0.29115 0.62376 0.80151 0.0
C1061 C 0.32632 0.63562 0.72871 0.0
C1062 C 0.18598 0.5653 0.47795 0.0
C1063 C 0.1955 0.57636 0.51201 0.0
H1064 H 0.14815 0.54015 0.44159 0.0
C1065 C 0.17421 0.56787 0.53633 0.0
H1066 H 0.202 0.57132 0.45869 0.0
C1067 C 0.14323 0.55026 0.52654 0.0
C1068 C 0.13312 0.5405 0.49227 0.0
H1069 H 0.18094 0.57602 0.56279 0.0
H1070 H 0.12685 0.54521 0.54571 0.0
C1071 C 0.15517 0.54734 0.46819 0.0
C1072 C 0.72324 0.93333 0.80358 0.0
C1073 C 0.7121 0.94288 0.77238 0.0
H1074 H 0.74492 0.89797 0.82905 0.0
C1075 C 0.71793 0.92577 0.74248 0.0
H1076 H 0.71919 0.94621 0.82705 0.0
C1077 C 0.73262 0.89841 0.74367 0.0
C1078 C 0.74192 0.88761 0.77477 0.0
H1079 H 0.70993 0.9327 0.71809 0.0
H1080 H 0.73552 0.88491 0.72011 0.0
C1081 C 0.73815 0.9059 0.80477 0.0
C1082 C 0.6937 0.96376 0.51866 0.0
C1083 C 0.70407 0.95224 0.54913 0.0
H1084 H 0.65816 0.98647 0.49226 0.0
C1085 C 0.68727 0.95742 0.57746 0.0
H1086 H 0.70623 0.96022 0.49638 0.0
C1087 C 0.65991 0.97236 0.57508 0.0
C1088 C 0.64864 0.98268 0.54434 0.0
H1089 H 0.69468 0.94907 0.60134 0.0
H1090 H 0.64704 0.97504 0.59727 0.0
C1091 C 0.66629 0.97895 0.51631 0.0
C1092 C 0.35875 0.39739 0.77314 0.0
C1093 C 0.34317 0.42 0.75725 0.0
H1094 H 0.35493 0.35023 0.78988 0.0
C1095 C 0.31015 0.41112 0.74546 0.0
H1096 H 0.38413 0.40334 0.78252 0.0
C1097 C 0.29311 0.38029 0.7498 0.0
C1098 C 0.30879 0.35782 0.76602 0.0
H1099 H 0.29744 0.42805 0.73315 0.0
H1100 H 0.2677 0.37415 0.74063 0.0
C1101 C 0.34186 0.36683 0.77745 0.0
C1102 C 0.22011 0.6169 0.27992 0.0
C1103 C 0.19815 0.60068 0.30004 0.0
H1104 H 0.24969 0.66178 0.27219 0.0
C1105 C 0.19069 0.61735 0.32952 0.0
H1106 H 0.22631 0.6046 0.25706 0.0
C1107 C 0.20376 0.64995 0.33797 0.0
C1108 C 0.22482 0.66657 0.3173 0.0
H1109 H 0.17392 0.6055 0.3456 0.0
H1110 H 0.19687 0.66228 0.36046 0.0
C1111 C 0.23348 0.64958 0.28857 0.0
C1112 C 0.53561 0.66111 0.47216 0.0
C1113 C 0.51349 0.68269 0.475 0.0
H1114 H 0.5503 0.61764 0.48742 0.0
C1115 C 0.49092 0.67844 0.49896 0.0
H1116 H 0.5535 0.66392 0.45414 0.0
C1117 C 0.48922 0.65208 0.51825 0.0
C1118 C 0.50999 0.62927 0.51393 0.0
H1119 H 0.47377 0.69487 0.502 0.0
H1120 H 0.47054 0.64875 0.53535 0.0
C1121 C 0.53389 0.63467 0.49141 0.0
C1122 C 0.64111 0.29146 0.75486 0.0
C1123 C 0.63012 0.27363 0.72357 0.0
H1124 H 0.6797 0.30343 0.79487 0.0
C1125 C 0.64875 0.25202 0.70976 0.0
H1126 H 0.62694 0.30811 0.7661 0.0
C1127 C 0.67818 0.24871 0.72643 0.0
C1128 C 0.69018 0.26759 0.75694 0.0
H1129 H 0.64058 0.23755 0.68594 0.0
H1130 H 0.69198 0.23195 0.71472 0.0
C1131 C 0.67114 0.28867 0.77134 0.0
C1132 C 1.00129 0.36762 0.97143 0.0
C1133 C 0.02086 0.3443 0.97778 0.0
H1134 H 0.99283 0.41577 0.98361 0.0
C1135 C 0.04498 0.35071 0.00507 0.0
H1136 H 0.98212 0.36313 0.95089 0.0
C1137 C 0.05111 0.38098 0.02398 0.0
C1138 C 0.03318 0.40525 0.01585 0.0
H1139 H 0.06019 0.33299 0.01071 0.0
H1140 H 0.07118 0.38595 0.04354 0.0
C1141 C 0.0073 0.39775 0.99033 0.0
C1142 C 0.94731 0.80902 0.24524 0.0
C1143 C 0.95491 0.78113 0.22819 0.0
H1144 H 0.91061 0.83059 0.26825 0.0
C1145 C 0.93269 0.75202 0.22515 0.0
H1146 H 0.9641 0.83173 0.24774 0.0
C1147 C 0.90268 0.7511 0.23795 0.0
C1148 C 0.89432 0.77952 0.25297 0.0
H1149 H 0.93824 0.73021 0.21215 0.0
H1150 H 0.88529 0.72878 0.23418 0.0
C1151 C 0.91691 0.80836 0.257 0.0
C1152 C 0.48762 0.36303 0.10186 0.0
C1153 C 0.50318 0.33931 0.08682 0.0
H1154 H 0.47782 0.41109 0.10242 0.0
C1155 C 0.52039 0.34602 0.05882 0.0
H1156 H 0.47407 0.35842 0.12337 0.0
C1157 C 0.52299 0.37664 0.04692 0.0
C1158 C 0.50801 0.40063 0.06263 0.0
H1159 H 0.53269 0.32804 0.04689 0.0
H1160 H 0.53705 0.38166 0.02587 0.0
C1161 C 0.4898 0.39325 0.08977 0.0
C1162 C 0.94048 0.32276 0.33958 0.0
C1163 C 0.95458 0.29474 0.33579 0.0
H1164 H 0.8978 0.34373 0.33026 0.0
C1165 C 0.9383 0.26796 0.31432 0.0
H1166 H 0.95265 0.34379 0.35598 0.0
C1167 C 0.90728 0.26813 0.29908 0.0
C1168 C 0.89162 0.29482 0.30574 0.0
H1169 H 0.94886 0.24621 0.3107 0.0
H1170 H 0.89472 0.24629 0.28423 0.0
C1171 C 0.90908 0.32272 0.32487 0.0
C1172 C 0.99966 0.65297 0.5565 0.0
C1173 C 0.02391 0.669 0.58135 0.0
H1174 H 0.98349 0.61071 0.52141 0.0
C1175 C 0.05243 0.65618 0.5871 0.0
H1176 H 0.97749 0.66249 0.55147 0.0
C1177 C 0.05607 0.62711 0.5697 0.0
C1178 C 0.03106 0.60982 0.54643 0.0
H1179 H 0.07175 0.66824 0.60572 0.0
H1180 H 0.07804 0.61748 0.57559 0.0
C1181 C 0.00317 0.62347 0.53921 0.0
C1182 C 0.62017 0.75949 0.82772 0.0
C1183 C 0.61 0.78783 0.84116 0.0
H1184 H 0.65931 0.7387 0.80812 0.0
C1185 C 0.63047 0.81771 0.84111 0.0
H1186 H 0.60487 0.73611 0.82741 0.0
C1187 C 0.66134 0.81906 0.83046 0.0
C1188 C 0.67234 0.79066 0.81908 0.0
H1189 H 0.62337 0.84001 0.85104 0.0
H1190 H 0.67725 0.8423 0.83251 0.0
C1191 C 0.65118 0.76093 0.81654 0.0
C1192 C 0.48309 0.53876 0.6712 0.0
C1193 C 0.45406 0.51649 0.67062 0.0
H1194 H 0.52304 0.55748 0.64394 0.0
C1195 C 0.44407 0.49475 0.64166 0.0
H1196 H 0.49157 0.55577 0.69322 0.0
C1197 C 0.46211 0.49554 0.6138 0.0
C1198 C 0.4906 0.51835 0.61374 0.0
H1199 H 0.42212 0.47702 0.6404 0.0
H1200 H 0.45353 0.47814 0.59213 0.0
C1201 C 0.50119 0.53968 0.64303 0.0
C1202 C 0.76848 0.22825 0.96351 0.0
C1203 C 0.79478 0.21443 0.97606 0.0
H1204 H 0.74916 0.25352 0.92429 0.0
C1205 C 0.82386 0.2197 0.96092 0.0
H1206 H 0.74581 0.22474 0.97485 0.0
C1207 C 0.82579 0.23621 0.93213 0.0
C1208 C 0.79869 0.24778 0.91793 0.0
H1209 H 0.84464 0.20964 0.97025 0.0
H1210 H 0.84804 0.2384 0.91996 0.0
C1211 C 0.77043 0.24487 0.93466 0.0
C1212 C 0.10645 0.53654 0.15317 0.0
C1213 C 0.09452 0.51253 0.17342 0.0
H1214 H 0.09973 0.55829 0.10736 0.0
C1215 C 0.06519 0.49166 0.16227 0.0
H1216 H 0.12879 0.55317 0.16113 0.0
C1217 C 0.04832 0.49468 0.13119 0.0
C1218 C 0.06076 0.51837 0.11076 0.0
H1219 H 0.05531 0.47306 0.17753 0.0
H1220 H 0.026 0.47814 0.12286 0.0
C1221 C 0.0898 0.53941 0.12227 0.0
C1222 C 0.78464 0.84284 0.43705 0.0
C1223 C 0.76288 0.83733 0.46165 0.0
H1224 H 0.79465 0.83162 0.3861 0.0
C1225 C 0.73496 0.81371 0.45387 0.0
H1226 H 0.80646 0.8608 0.44237 0.0
C1227 C 0.72831 0.79681 0.42173 0.0
C1228 C 0.74934 0.80331 0.39661 0.0
H1229 H 0.71783 0.8088 0.47236 0.0
H1230 H 0.70607 0.77947 0.41628 0.0
C1231 C 0.77791 0.82607 0.40483 0.0
C1232 C 0.46802 0.51758 0.86247 0.0
C1233 C 0.44566 0.53594 0.84922 0.0
H1234 H 0.49666 0.50808 0.90654 0.0
C1235 C 0.43595 0.55999 0.87067 0.0
H1236 H 0.47591 0.49884 0.84651 0.0
C1237 C 0.44739 0.56493 0.90475 0.0
C1238 C 0.46913 0.5462 0.91835 0.0
H1239 H 0.4188 0.57459 0.86132 0.0
H1240 H 0.43892 0.58343 0.92053 0.0
C1241 C 0.47986 0.52283 0.89677 0.0
C1242 C 0.76151 0.1903 0.16017 0.0
C1243 C 0.78127 0.20207 0.1358 0.0
H1244 H 0.74399 0.19967 0.20798 0.0
C1245 C 0.79893 0.23378 0.1416 0.0
H1246 H 0.74754 0.16605 0.15643 0.0
C1247 C 0.79671 0.25336 0.17127 0.0
C1248 C 0.77709 0.24136 0.19574 0.0
H1249 H 0.81423 0.24355 0.12311 0.0
H1250 H 0.81056 0.27765 0.17522 0.0
C1251 C 0.75948 0.20965 0.18974 0.0
C1252 C 0.05964 0.46754 0.34256 0.0
C1253 C 0.0697 0.49744 0.33024 0.0
H1254 H 0.03531 0.44269 0.38014 0.0
C1255 C 0.05865 0.52505 0.34396 0.0
H1256 H 0.06753 0.44581 0.33222 0.0
C1257 C 0.0403 0.52335 0.37151 0.0
C1258 C 0.03252 0.49396 0.3857 0.0
H1259 H 0.06579 0.5484 0.33475 0.0
H1260 H 0.03389 0.54545 0.38291 0.0
C1261 C 0.04104 0.46577 0.36995 0.0
C1262 C 0.75823 0.80512 0.63189 0.0
C1263 C 0.77476 0.83738 0.63543 0.0
H1264 H 0.74447 0.76175 0.65611 0.0
C1265 C 0.79066 0.85033 0.66704 0.0
H1266 H 0.74572 0.79439 0.6078 0.0
C1267 C 0.79011 0.83172 0.6944 0.0
C1268 C 0.77345 0.79952 0.69121 0.0
H1269 H 0.80363 0.875 0.67075 0.0
H1270 H 0.80269 0.84288 0.7183 0.0
C1271 C 0.75752 0.78638 0.65952 0.0
C1272 C 0.69079 0.46328 0.56737 0.0
C1273 C 0.7098 0.46498 0.54002 0.0
H1274 H 0.65175 0.47969 0.59115 0.0
C1275 C 0.70539 0.48759 0.51683 0.0
H1276 H 0.69375 0.44628 0.58583 0.0
C1277 C 0.68147 0.507 0.52003 0.0
C1278 C 0.6613 0.50417 0.54643 0.0
H1279 H 0.71983 0.48969 0.49565 0.0
H1280 H 0.67792 0.52324 0.50093 0.0
C1281 C 0.66682 0.48262 0.57053 0.0
C1282 C 0.16279 0.05768 0.49672 0.0
C1283 C 0.17071 0.09148 0.50456 0.0
H1284 H 0.12658 0.015 0.49533 0.0
C1285 C 0.14686 0.10827 0.51618 0.0
H1286 H 0.18069 0.04402 0.4878 0.0
C1287 C 0.11614 0.09176 0.52063 0.0
C1288 C 0.10826 0.05789 0.51357 0.0
H1289 H 0.15207 0.13427 0.52245 0.0
H1290 H 0.0986 0.10568 0.52993 0.0
C1291 C 0.13184 0.04105 0.50112 0.0
C1292 C 0.22629 0.94201 0.78797 0.0
C1293 C 0.19841 0.94357 0.80492 0.0
H1294 H 0.26096 0.91275 0.77214 0.0
C1295 C 0.18496 0.91648 0.82034 0.0
H1296 H 0.23712 0.96252 0.77569 0.0
C1297 C 0.19879 0.88842 0.81877 0.0
C1298 C 0.22619 0.88635 0.8012 0.0
H1299 H 0.16356 0.91688 0.83362 0.0
H1300 H 0.18741 0.86801 0.83083 0.0
C1301 C 0.23989 0.91353 0.78585 0.0
C1302 C 0.37709 0.94055 0.07945 0.0
C1303 C 0.35936 0.94307 0.04873 0.0
H1304 H 0.42305 0.95076 0.1087 0.0
C1305 C 0.37457 0.96095 0.02454 0.0
H1306 H 0.36604 0.92705 0.09865 0.0
C1307 C 0.40739 0.97486 0.03047 0.0
C1308 C 0.42545 0.97066 0.06046 0.0
H1309 H 0.36143 0.96331 0.00065 0.0
H1310 H 0.41891 0.9876 0.01103 0.0
C1311 C 0.40981 0.95402 0.08516 0.0
C1312 C 0.82779 0.59894 0.79996 0.0
C1313 C 0.84206 0.58881 0.77128 0.0
H1314 H 0.80055 0.63251 0.82218 0.0
C1315 C 0.83563 0.6024 0.74092 0.0
H1316 H 0.832 0.58876 0.82362 0.0
C1317 C 0.81702 0.62722 0.73997 0.0
C1318 C 0.80488 0.63888 0.76943 0.0
H1319 H 0.84616 0.5949 0.71834 0.0
H1320 H 0.8142 0.63883 0.71696 0.0
C1321 C 0.80957 0.62382 0.79908 0.0
C1322 C 0.85481 0.57668 0.02336 0.0
C1323 C 0.85339 0.60708 0.0115 0.0
H1324 H 0.88487 0.54172 0.03609 0.0
C1325 C 0.8818 0.62525 0.00245 0.0
H1326 H 0.83326 0.56219 0.03068 0.0
C1327 C 0.91099 0.61354 0.00527 0.0
C1328 C 0.91277 0.58342 0.0176 0.0
H1329 H 0.88157 0.64872 0.99322 0.0
H1330 H 0.93233 0.62849 0.99811 0.0
C1331 C 0.88432 0.56502 0.02659 0.0
C1332 C 0.23392 0.12879 0.81539 0.0
C1333 C 0.20065 0.11988 0.80478 0.0
H1334 H 0.27616 0.16587 0.81922 0.0
C1335 C 0.18434 0.14271 0.79023 0.0
H1336 H 0.24721 0.11169 0.8266 0.0
C1337 C 0.20084 0.17342 0.78579 0.0
C1338 C 0.23418 0.18238 0.7959 0.0
H1339 H 0.15875 0.13672 0.78173 0.0
H1340 H 0.1873 0.19014 0.7742 0.0
C1341 C 0.25052 0.15978 0.81107 0.0
C1342 C 0.32855 0.91221 0.2829 0.0
C1343 C 0.34938 0.92672 0.26065 0.0
H1344 H 0.30127 0.86814 0.29611 0.0
C1345 C 0.35744 0.90755 0.23319 0.0
H1346 H 0.32197 0.92646 0.3043 0.0
C1347 C 0.346 0.87432 0.22879 0.0
C1348 C 0.32597 0.85957 0.25154 0.0
H1349 H 0.37342 0.91803 0.21562 0.0
H1350 H 0.3532 0.86013 0.20771 0.0
C1351 C 0.31676 0.87889 0.27825 0.0
C1352 C 0.54208 0.36684 0.59446 0.0
C1353 C 0.54937 0.3649 0.62914 0.0
H1354 H 0.53777 0.39795 0.55498 0.0
C1355 C 0.55733 0.39356 0.65092 0.0
H1356 H 0.53568 0.34507 0.57712 0.0
C1357 C 0.55833 0.42358 0.63838 0.0
C1358 C 0.55144 0.42572 0.60371 0.0
H1359 H 0.56285 0.39288 0.67779 0.0
H1360 H 0.56479 0.44515 0.656 0.0
C1361 C 0.54309 0.39705 0.58183 0.0
C1362 C 0.40754 0.77928 0.35949 0.0
C1363 C 0.42145 0.75143 0.35368 0.0
H1364 H 0.36932 0.8047 0.34621 0.0
C1365 C 0.40685 0.72739 0.32793 0.0
H1366 H 0.41859 0.79863 0.37858 0.0
C1367 C 0.37784 0.73068 0.30939 0.0
C1368 C 0.3635 0.75825 0.31619 0.0
H1369 H 0.41738 0.70586 0.3227 0.0
H1370 H 0.36625 0.71137 0.29054 0.0
C1371 C 0.37924 0.78281 0.34079 0.0
C1372 C 0.03449 0.68702 0.09919 0.0
C1373 C 0.03191 0.69329 0.13383 0.0
H1374 H 0.03153 0.65091 0.05741 0.0
C1375 C 0.02607 0.66726 0.15356 0.0
H1376 H 0.0392 0.7067 0.08347 0.0
C1377 C 0.02166 0.63548 0.13874 0.0
C1378 C 0.0232 0.62911 0.10394 0.0
H1379 H 0.02418 0.67137 0.1804 0.0
H1380 H 0.0164 0.61591 0.15449 0.0
C1381 C 0.0303 0.65514 0.08435 0.0
C1382 C 0.10625 0.29398 0.84303 0.0
C1383 C 0.08973 0.26483 0.85258 0.0
H1384 H 0.14833 0.31736 0.82206 0.0
C1385 C 0.10194 0.23608 0.84567 0.0
H1386 H 0.09722 0.31645 0.84794 0.0
C1387 C 0.13105 0.23669 0.83133 0.0
C1388 C 0.14831 0.26595 0.82308 0.0
H1389 H 0.08967 0.21322 0.85256 0.0
H1390 H 0.14051 0.2143 0.8275 0.0
C1391 C 0.1353 0.29449 0.82807 0.0
C1392 C 0.56319 0.70173 0.97418 0.0
C1393 C 0.53381 0.70899 0.96027 0.0
H1394 H 0.58659 0.66745 0.99927 0.0
C1395 C 0.50462 0.68906 0.96496 0.0
H1396 H 0.58598 0.71678 0.97095 0.0
C1397 C 0.5049 0.66139 0.98192 0.0
C1398 C 0.53442 0.65291 0.99372 0.0
H1399 H 0.48162 0.69438 0.95468 0.0
H1400 H 0.4822 0.64558 0.98382 0.0
C1401 C 0.56351 0.67364 0.99041 0.0
C1402 C 0.11312 0.75388 0.7234 0.0
C1403 C 0.10147 0.77511 0.70183 0.0
H1404 H 0.15448 0.74253 0.75249 0.0
C1405 C 0.12256 0.80261 0.6948 0.0
H1406 H 0.09733 0.73246 0.72919 0.0
C1407 C 0.15494 0.80803 0.7076 0.0
C1408 C 0.16705 0.78629 0.72805 0.0
H1409 H 0.11436 0.81952 0.67842 0.0
H1410 H 0.17062 0.82918 0.70099 0.0
C1411 C 0.14573 0.75956 0.73663 0.0
C1412 C 0.00245 0.37665 0.47677 0.0
C1413 C 0.03219 0.36646 0.47256 0.0
H1414 H 0.97844 0.41519 0.49417 0.0
C1415 C 0.06099 0.38659 0.4867 0.0
H1416 H 0.97987 0.3617 0.46609 0.0
C1417 C 0.06009 0.41699 0.50351 0.0
C1418 C 0.03042 0.42792 0.50567 0.0
H1419 H 0.08424 0.37927 0.48384 0.0
H1420 H 0.08264 0.43267 0.51296 0.0
C1421 C 1.00161 0.40724 0.4928 0.0
C1422 C 0.4208 0.25489 0.21532 0.0
C1423 C 0.42128 0.24558 0.18071 0.0
H1424 H 0.39142 0.25995 0.25646 0.0
C1425 C 0.39188 0.23482 0.16078 0.0
H1426 H 0.44318 0.26346 0.23124 0.0
C1427 C 0.36265 0.23308 0.17498 0.0
C1428 C 0.36189 0.24193 0.2096 0.0
H1429 H 0.39135 0.22773 0.13401 0.0
H1430 H 0.34055 0.22454 0.15859 0.0
C1431 C 0.39126 0.25306 0.22971 0.0
C1432 C 0.55613 0.51777 0.38015 0.0
C1433 C 0.58966 0.51785 0.38122 0.0
H1434 H 0.51438 0.51506 0.40808 0.0
C1435 C 0.60635 0.51239 0.41152 0.0
H1436 H 0.5426 0.52171 0.35705 0.0
C1437 C 0.59019 0.50782 0.44034 0.0
C1438 C 0.55698 0.50933 0.44001 0.0
H1439 H 0.63207 0.51171 0.41304 0.0
H1440 H 0.60403 0.50364 0.46308 0.0
C1441 C 0.53997 0.51379 0.40934 0.0
C1442 C 0.28902 0.80327 0.10776 0.0
C1443 C 0.26127 0.81442 0.09445 0.0
H1444 H 0.31029 0.78027 0.14783 0.0
C1445 C 0.23196 0.80608 0.10853 0.0
H1446 H 0.31189 0.80915 0.09717 0.0
C1447 C 0.23108 0.78956 0.13731 0.0
C1448 C 0.25942 0.78093 0.15238 0.0
H1449 H 0.21012 0.814 0.09857 0.0
H1450 H 0.20861 0.78531 0.14899 0.0
C1451 C 0.28808 0.78651 0.13655 0.0
C1452 C 0.97071 0.55849 0.89495 0.0
C1453 C 0.97134 0.53424 0.8688 0.0
H1454 H 0.98712 0.57704 0.94601 0.0
C1455 C 0.99229 0.5117 0.87324 0.0
H1456 H 0.95498 0.57631 0.89213 0.0
C1457 C 0.01115 0.51247 0.90391 0.0
C1458 C 0.00891 0.53546 0.93079 0.0
H1459 H 0.99347 0.49292 0.85331 0.0
H1460 H 0.02598 0.49395 0.90722 0.0
C1461 C 0.98913 0.55893 0.92575 0.0
C1462 C 0.28027 0.16105 0.63406 0.0
C1463 C 0.27455 0.18115 0.60869 0.0
H1464 H 0.28801 0.15669 0.68676 0.0
C1465 C 0.27102 0.21331 0.61809 0.0
H1466 H 0.28286 0.1361 0.62773 0.0
C1467 C 0.2739 0.22524 0.65231 0.0
C1468 C 0.28039 0.20518 0.6776 0.0
H1469 H 0.26643 0.22931 0.59906 0.0
H1470 H 0.27181 0.25028 0.6589 0.0
C1471 C 0.28313 0.17288 0.66801 0.0
C1472 C 0.57936 0.53728 0.18468 0.0
C1473 C 0.59276 0.51341 0.20099 0.0
H1474 H 0.55925 0.55109 0.13784 0.0
C1475 C 0.59472 0.48412 0.18232 0.0
H1476 H 0.57758 0.56011 0.1985 0.0
C1477 C 0.58499 0.47935 0.1478 0.0
C1478 C 0.57246 0.50345 0.13122 0.0
H1479 H 0.60496 0.46529 0.19409 0.0
H1480 H 0.58763 0.45678 0.13396 0.0
C1481 C 0.56889 0.53217 0.15007 0.0
C1482 C 0.23951 0.80191 0.92297 0.0
C1483 C 0.26747 0.82338 0.93729 0.0
H1484 H 0.21755 0.76847 0.88044 0.0
C1485 C 0.29601 0.82472 0.9212 0.0
H1486 H 0.21724 0.80021 0.93504 0.0
C1487 C 0.29616 0.80662 0.89044 0.0
C1488 C 0.26788 0.78652 0.87517 0.0
H1489 H 0.31806 0.84066 0.93176 0.0
H1490 H 0.31816 0.80936 0.87782 0.0
C1491 C 0.23975 0.78347 0.89206 0.0
C1492 C 0.99146 0.56854 0.70344 0.0
C1493 C 0.98071 0.53811 0.71426 0.0
H1494 H 0.01732 0.5947 0.66768 0.0
C1495 C 0.99199 0.51084 0.70002 0.0
H1496 H 0.98344 0.59001 0.71428 0.0
C1497 C 0.01166 0.51352 0.67358 0.0
C1498 C 0.0201 0.54349 0.66073 0.0
H1499 H 0.98443 0.48713 0.70825 0.0
H1500 H 0.01839 0.49174 0.66183 0.0
C1501 C 0.01097 0.5712 0.67685 0.0
C1502 C 0.28646 0.22938 0.42719 0.0
C1503 C 0.27381 0.19595 0.42384 0.0
H1504 H 0.29832 0.27251 0.40197 0.0
C1505 C 0.26366 0.18046 0.39137 0.0
H1506 H 0.29455 0.24207 0.4519 0.0
C1507 C 0.26579 0.19774 0.36305 0.0
C1508 C 0.27823 0.2312 0.3661 0.0
H1509 H 0.25391 0.15481 0.38773 0.0
H1510 H 0.25753 0.18461 0.33858 0.0
C1511 C 0.28869 0.24684 0.3986 0.0
C1512 C 0.35359 0.56117 0.55085 0.0
C1513 C 0.34925 0.58411 0.52807 0.0
H1514 H 0.38024 0.52453 0.56535 0.0
C1515 C 0.36815 0.5863 0.50068 0.0
H1516 H 0.33916 0.55874 0.57201 0.0
C1517 C 0.39179 0.56676 0.49683 0.0
C1518 C 0.39675 0.54437 0.52012 0.0
H1519 H 0.36522 0.60367 0.48261 0.0
H1520 H 0.40669 0.56978 0.4761 0.0
C1521 C 0.37696 0.54138 0.54681 0.0
C1522 C 0.87849 0.98314 0.5606 0.0
C1523 C 0.87168 0.9491 0.55494 0.0
H1524 H 0.91394 0.02631 0.56091 0.0
C1525 C 0.89645 0.93249 0.54558 0.0
H1526 H 0.85984 0.99664 0.56778 0.0
C1527 C 0.927 0.94934 0.54118 0.0
C1528 C 0.93396 0.98338 0.54651 0.0
H1529 H 0.89209 0.90632 0.54089 0.0
H1530 H 0.94514 0.93549 0.53332 0.0
C1531 C 0.90944 1.00013 0.55666 0.0
C1532 C 0.83594 0.10616 0.23097 0.0
C1533 C 0.85178 0.09661 0.2598 0.0
H1534 H 0.8108 0.14165 0.21032 0.0
C1535 C 0.85187 0.11464 0.29111 0.0
H1536 H 0.83544 0.09267 0.20656 0.0
C1537 C 0.83697 0.14211 0.29346 0.0
C1538 C 0.82243 0.15249 0.26437 0.0
H1539 H 0.8637 0.10764 0.3138 0.0
H1540 H 0.83811 0.15601 0.31774 0.0
C1541 C 0.82181 0.1341 0.23317 0.0
C1542 C 0.67207 0.07126 0.035 0.0
C1543 C 0.68882 0.09217 0.01423 0.0
H1544 H 0.62684 0.04219 0.04276 0.0
C1545 C 0.67278 0.09826 0.98381 0.0
H1546 H 0.68388 0.0661 0.05858 0.0
C1547 C 0.64035 0.08487 0.97495 0.0
C1548 C 0.62319 0.06483 0.99614 0.0
H1549 H 0.68504 0.11414 0.96717 0.0
H1550 H 0.62856 0.0907 0.95166 0.0
C1551 C 0.6395 0.05754 0.02593 0.0
C1552 C 0.21751 0.43243 0.3086 0.0
C1553 C 0.20601 0.44057 0.27685 0.0
H1554 H 0.24082 0.39898 0.33566 0.0
C1555 C 0.21286 0.42308 0.24764 0.0
H1556 H 0.21273 0.44565 0.33158 0.0
C1557 C 0.22893 0.39675 0.25002 0.0
C1558 C 0.23864 0.38725 0.28164 0.0
H1559 H 0.20471 0.42895 0.22283 0.0
H1560 H 0.23258 0.38293 0.22692 0.0
C1561 C 0.23381 0.40594 0.311 0.0
C1562 C 0.20964 0.47537 0.06862 0.0
C1563 C 0.20795 0.44518 0.04998 0.0
H1564 H 0.18665 0.5166 0.07886 0.0
C1565 C 0.18122 0.43383 0.02608 0.0
H1566 H 0.23003 0.48484 0.08708 0.0
C1567 C 0.15668 0.45224 0.02093 0.0
C1568 C 0.15814 0.4823 0.03982 0.0
H1569 H 0.17934 0.41077 0.01113 0.0
H1570 H 0.13626 0.44258 0.00258 0.0
C1571 C 0.18488 0.49364 0.06376 0.0
C1572 C 0.85721 0.90032 0.27108 0.0
C1573 C 0.8424 0.92349 0.25534 0.0
H1574 H 0.85151 0.85409 0.28988 0.0
C1575 C 0.80897 0.91626 0.24509 0.0
H1576 H 0.88281 0.90523 0.27967 0.0
C1577 C 0.79082 0.88626 0.25038 0.0
C1578 C 0.80572 0.86329 0.26662 0.0
H1579 H 0.79687 0.93379 0.23307 0.0
H1580 H 0.76517 0.88124 0.24213 0.0
C1581 C 0.83911 0.87089 0.277 0.0
C1582 C 0.70418 0.11923 0.82857 0.0
C1583 C 0.70852 0.10309 0.79752 0.0
H1584 H 0.71258 0.16385 0.86021 0.0
C1585 C 0.72774 0.1198 0.77526 0.0
H1586 H 0.68964 0.10698 0.84633 0.0
C1587 C 0.74117 0.15255 0.78339 0.0
C1588 C 0.7352 0.16902 0.81368 0.0
H1589 H 0.73152 0.1079 0.75117 0.0
H1590 H 0.75496 0.16526 0.76538 0.0
C1591 C 0.71724 0.15186 0.83648 0.0
loop_
_geom_bond_atom_site_label_1
_geom_bond_atom_site_label_2
_geom_bond_distance
_geom_bond_site_symmetry_2
_ccdc_geom_bond_type
In0 O1 2.294 . S
In0 O2 2.326 . S
In0 O6 2.266 1_455 S
In0 O7 2.326 1_455 S
In0 O8 2.266 . S
In0 O9 2.326 . S
In0 O11 2.294 . S
In0 O12 2.326 . S
O1 In0 2.294 . S
O1 C10 1.240 . S
O2 In0 2.326 . S
O2 C10 1.252 . S
C3 O6 1.252 . S
C3 O7 1.260 . S
C4 O11 1.240 . S
C4 O12 1.252 . S
C5 O8 1.252 . S
C5 O9 1.260 . S
O6 In0 2.266 1_655 S
O6 C3 1.252 . S
O7 In0 2.326 1_655 S
O7 C3 1.260 . S
O8 In0 2.266 . S
O8 C5 1.252 . S
O9 In0 2.326 . S
O9 C5 1.260 . S
C10 O1 1.240 . S
C10 O2 1.252 . S
O11 In0 2.294 . S
O11 C4 1.240 . S
O12 In0 2.326 . S
O12 C4 1.252 . S
In13 O14 2.294 . S
In13 O15 2.326 . S
In13 O19 2.266 1_455 S
In13 O20 2.326 . S
In13 O21 2.266 1_455 S
In13 O22 2.326 1_455 S
In13 O24 2.294 . S
In13 O25 2.326 . S
O14 In13 2.294 . S
O14 C23 1.240 . S
O15 In13 2.326 . S
O15 C23 1.252 . S
C16 O19 1.253 . S
C16 O20 1.259 1_655 S
C17 O24 1.240 . S
C17 O25 1.252 . S
C18 O21 1.252 . S
C18 O22 1.260 . S
O19 In13 2.266 1_655 S
O19 C16 1.253 . S
O20 In13 2.326 . S
O20 C16 1.259 1_455 S
O21 In13 2.266 1_655 S
O21 C18 1.252 . S
O22 In13 2.326 1_655 S
O22 C18 1.260 . S
C23 O14 1.240 . S
C23 O15 1.252 . S
O24 In13 2.294 . S
O24 C17 1.240 . S
O25 In13 2.326 . S
O25 C17 1.252 . S
In26 O27 2.294 . S
In26 O28 2.326 . S
In26 O32 2.266 . S
In26 O33 2.326 . S
In26 O34 2.266 . S
In26 O35 2.326 . S
In26 O37 2.294 . S
In26 O38 2.326 . S
O27 In26 2.294 . S
O27 C36 1.240 . S
O28 In26 2.326 . S
O28 C36 1.252 . S
C29 O32 1.252 . S
C29 O33 1.260 . S
C30 O37 1.240 . S
C30 O38 1.252 . S
C31 O34 1.252 . S
C31 O35 1.260 . S
O32 In26 2.266 . S
O32 C29 1.252 . S
O33 In26 2.326 . S
O33 C29 1.260 . S
O34 In26 2.266 . S
O34 C31 1.252 . S
O35 In26 2.326 . S
O35 C31 1.260 . S
C36 O27 1.240 . S
C36 O28 1.252 . S
O37 In26 2.294 . S
O37 C30 1.240 . S
O38 In26 2.326 . S
O38 C30 1.252 . S
In39 O40 2.294 . S
In39 O41 2.326 . S
In39 O45 2.266 . S
In39 O46 2.326 . S
In39 O47 2.266 . S
In39 O48 2.326 . S
In39 O50 2.294 . S
In39 O51 2.326 . S
O40 In39 2.294 . S
O40 C49 1.240 . S
O41 In39 2.326 . S
O41 C49 1.252 . S
C42 O45 1.252 . S
C42 O46 1.260 . S
C43 O50 1.240 . S
C43 O51 1.252 . S
C44 O47 1.252 . S
C44 O48 1.260 . S
O45 In39 2.266 . S
O45 C42 1.252 . S
O46 In39 2.326 . S
O46 C42 1.260 . S
O47 In39 2.266 . S
O47 C44 1.252 . S
O48 In39 2.326 . S
O48 C44 1.260 . S
C49 O40 1.240 . S
C49 O41 1.252 . S
O50 In39 2.294 . S
O50 C43 1.240 . S
O51 In39 2.326 . S
O51 C43 1.252 . S
In52 O53 2.294 . S
In52 O54 2.326 . S
In52 O58 2.266 . S
In52 O59 2.326 . S
In52 O60 2.266 . S
In52 O61 2.326 . S
In52 O63 2.294 . S
In52 O64 2.326 1_455 S
O53 In52 2.294 . S
O53 C62 1.240 . S
O54 In52 2.326 . S
O54 C62 1.252 . S
C55 O58 1.252 . S
C55 O59 1.260 . S
C56 O63 1.240 1_655 S
C56 O64 1.252 . S
C57 O60 1.252 . S
C57 O61 1.260 . S
O58 In52 2.266 . S
O58 C55 1.252 . S
O59 In52 2.326 . S
O59 C55 1.260 . S
O60 In52 2.266 . S
O60 C57 1.252 . S
O61 In52 2.326 . S
O61 C57 1.260 . S
C62 O53 1.240 . S
C62 O54 1.252 . S
O63 In52 2.294 . S
O63 C56 1.240 1_455 S
O64 In52 2.326 1_655 S
O64 C56 1.252 . S
In65 O66 2.294 . S
In65 O67 2.326 . S
In65 O71 2.266 . S
In65 O72 2.326 . S
In65 O73 2.266 . S
In65 O74 2.326 . S
In65 O76 2.294 . S
In65 O77 2.326 . S
O66 In65 2.294 . S
O66 C75 1.240 . S
O67 In65 2.326 . S
O67 C75 1.252 . S
C68 O71 1.252 . S
C68 O72 1.260 . S
C69 O76 1.240 . S
C69 O77 1.252 . S
C70 O73 1.252 . S
C70 O74 1.260 . S
O71 In65 2.266 . S
O71 C68 1.252 . S
O72 In65 2.326 . S
O72 C68 1.260 . S
O73 In65 2.266 . S
O73 C70 1.252 . S
O74 In65 2.326 . S
O74 C70 1.260 . S
C75 O66 1.240 . S
C75 O67 1.252 . S
O76 In65 2.294 . S
O76 C69 1.240 . S
O77 In65 2.326 . S
O77 C69 1.252 . S
In78 O79 2.294 . S
In78 O80 2.326 . S
In78 O84 2.266 . S
In78 O85 2.326 . S
In78 O86 2.266 . S
In78 O87 2.326 . S
In78 O89 2.294 . S
In78 O90 2.326 . S
O79 In78 2.294 . S
O79 C88 1.240 . S
O80 In78 2.326 . S
O80 C88 1.252 . S
C81 O84 1.252 . S
C81 O85 1.260 . S
C82 O89 1.240 . S
C82 O90 1.252 . S
C83 O86 1.252 . S
C83 O87 1.260 . S
O84 In78 2.266 . S
O84 C81 1.252 . S
O85 In78 2.326 . S
O85 C81 1.260 . S
O86 In78 2.266 . S
O86 C83 1.252 . S
O87 In78 2.326 . S
O87 C83 1.260 . S
C88 O79 1.240 . S
C88 O80 1.252 . S
O89 In78 2.294 . S
O89 C82 1.240 . S
O90 In78 2.326 . S
O90 C82 1.252 . S
In91 O92 2.294 . S
In91 O93 2.326 . S
In91 O97 2.266 . S
In91 O98 2.326 . S
In91 O99 2.266 1_455 S
In91 O100 2.326 1_455 S
In91 O102 2.294 . S
In91 O103 2.326 . S
O92 In91 2.294 . S
O92 C101 1.240 . S
O93 In91 2.326 . S
O93 C101 1.252 . S
C94 O97 1.252 . S
C94 O98 1.260 . S
C95 O102 1.240 . S
C95 O103 1.252 . S
C96 O99 1.252 . S
C96 O100 1.260 . S
O97 In91 2.266 . S
O97 C94 1.252 . S
O98 In91 2.326 . S
O98 C94 1.260 . S
O99 In91 2.266 1_655 S
O99 C96 1.252 . S
O100 In91 2.326 1_655 S
O100 C96 1.260 . S
C101 O92 1.240 . S
C101 O93 1.252 . S
O102 In91 2.294 . S
O102 C95 1.240 . S
O103 In91 2.326 . S
O103 C95 1.252 . S
In104 O105 2.294 . S
In104 O106 2.326 . S
In104 O110 2.266 . S
In104 O111 2.326 . S
In104 O112 2.266 1_545 S
In104 O113 2.326 1_545 S
In104 O115 2.294 . S
In104 O116 2.326 . S
O105 In104 2.294 . S
O105 C114 1.240 . S
O106 In104 2.326 . S
O106 C114 1.252 . S
C107 O110 1.252 . S
C107 O111 1.260 . S
C108 O115 1.240 . S
C108 O116 1.252 . S
C109 O112 1.252 . S
C109 O113 1.260 . S
O110 In104 2.266 . S
O110 C107 1.252 . S
O111 In104 2.326 . S
O111 C107 1.260 . S
O112 In104 2.266 1_565 S
O112 C109 1.252 . S
O113 In104 2.326 1_565 S
O113 C109 1.260 . S
C114 O105 1.240 . S
C114 O106 1.252 . S
O115 In104 2.294 . S
O115 C108 1.240 . S
O116 In104 2.326 . S
O116 C108 1.252 . S
In117 O118 2.294 . S
In117 O119 2.326 . S
In117 O123 2.266 . S
In117 O124 2.326 . S
In117 O125 2.266 . S
In117 O126 2.326 . S
In117 O128 2.294 . S
In117 O129 2.326 . S
O118 In117 2.294 . S
O118 C127 1.240 . S
O119 In117 2.326 . S
O119 C127 1.252 . S
C120 O123 1.252 . S
C120 O124 1.260 . S
C121 O128 1.240 . S
C121 O129 1.252 . S
C122 O125 1.252 . S
C122 O126 1.260 . S
O123 In117 2.266 . S
O123 C120 1.252 . S
O124 In117 2.326 . S
O124 C120 1.260 . S
O125 In117 2.266 . S
O125 C122 1.252 . S
O126 In117 2.326 . S
O126 C122 1.260 . S
C127 O118 1.240 . S
C127 O119 1.252 . S
O128 In117 2.294 . S
O128 C121 1.240 . S
O129 In117 2.326 . S
O129 C121 1.252 . S
In130 O131 2.294 . S
In130 O132 2.326 . S
In130 O136 2.266 . S
In130 O137 2.326 . S
In130 O138 2.266 . S
In130 O139 2.326 . S
In130 O141 2.294 1_545 S
In130 O142 2.326 1_545 S
O131 In130 2.294 . S
O131 C140 1.240 . S
O132 In130 2.326 . S
O132 C140 1.252 . S
C133 O136 1.252 . S
C133 O137 1.260 . S
C134 O141 1.240 . S
C134 O142 1.252 . S
C135 O138 1.252 . S
C135 O139 1.260 . S
O136 In130 2.266 . S
O136 C133 1.252 . S
O137 In130 2.326 . S
O137 C133 1.260 . S
O138 In130 2.266 . S
O138 C135 1.252 . S
O139 In130 2.326 . S
O139 C135 1.260 . S
C140 O131 1.240 . S
C140 O132 1.252 . S
O141 In130 2.294 1_565 S
O141 C134 1.240 . S
O142 In130 2.326 1_565 S
O142 C134 1.252 . S
In143 O144 2.294 . S
In143 O145 2.326 . S
In143 O149 2.266 1_554 S
In143 O150 2.326 1_554 S
In143 O151 2.266 . S
In143 O152 2.326 . S
In143 O154 2.294 . S
In143 O155 2.326 . S
O144 In143 2.294 . S
O144 C153 1.240 . S
O145 In143 2.326 . S
O145 C153 1.252 . S
C146 O149 1.252 . S
C146 O150 1.260 . S
C147 O154 1.240 . S
C147 O155 1.252 . S
C148 O151 1.252 . S
C148 O152 1.260 . S
O149 In143 2.266 1_556 S
O149 C146 1.252 . S
O150 In143 2.326 1_556 S
O150 C146 1.260 . S
O151 In143 2.266 . S
O151 C148 1.252 . S
O152 In143 2.326 . S
O152 C148 1.260 . S
C153 O144 1.240 . S
C153 O145 1.252 . S
O154 In143 2.294 . S
O154 C147 1.240 . S
O155 In143 2.326 . S
O155 C147 1.252 . S
In156 O157 2.294 . S
In156 O158 2.326 . S
In156 O162 2.266 . S
In156 O163 2.327 1_554 S
In156 O164 2.266 . S
In156 O165 2.326 . S
In156 O167 2.294 . S
In156 O168 2.326 . S
O157 In156 2.294 . S
O157 C166 1.240 . S
O158 In156 2.326 . S
O158 C166 1.252 . S
C159 O162 1.252 1_556 S
C159 O163 1.260 . S
C160 O167 1.240 . S
C160 O168 1.252 . S
C161 O164 1.252 . S
C161 O165 1.260 . S
O162 In156 2.266 . S
O162 C159 1.252 1_554 S
O163 In156 2.327 1_556 S
O163 C159 1.260 . S
O164 In156 2.266 . S
O164 C161 1.252 . S
O165 In156 2.326 . S
O165 C161 1.260 . S
C166 O157 1.240 . S
C166 O158 1.252 . S
O167 In156 2.294 . S
O167 C160 1.240 . S
O168 In156 2.326 . S
O168 C160 1.252 . S
In169 O170 2.294 . S
In169 O171 2.326 . S
In169 O175 2.266 . S
In169 O176 2.326 . S
In169 O177 2.266 . S
In169 O178 2.326 1_554 S
In169 O180 2.294 . S
In169 O181 2.326 . S
O170 In169 2.294 . S
O170 C179 1.240 . S
O171 In169 2.326 . S
O171 C179 1.252 . S
C172 O175 1.252 . S
C172 O176 1.260 . S
C173 O180 1.240 . S
C173 O181 1.252 . S
C174 O177 1.252 1_556 S
C174 O178 1.260 . S
O175 In169 2.266 . S
O175 C172 1.252 . S
O176 In169 2.326 . S
O176 C172 1.260 . S
O177 In169 2.266 . S
O177 C174 1.252 1_554 S
O178 In169 2.326 1_556 S
O178 C174 1.260 . S
C179 O170 1.240 . S
C179 O171 1.252 . S
O180 In169 2.294 . S
O180 C173 1.240 . S
O181 In169 2.326 . S
O181 C173 1.252 . S
In182 O183 2.294 . S
In182 O184 2.326 . S
In182 O188 2.266 . S
In182 O189 2.326 . S
In182 O190 2.266 . S
In182 O191 2.326 . S
In182 O193 2.294 . S
In182 O194 2.326 . S
O183 In182 2.294 . S
O183 C192 1.240 . S
O184 In182 2.326 . S
O184 C192 1.252 . S
C185 O188 1.252 . S
C185 O189 1.260 . S
C186 O193 1.240 . S
C186 O194 1.252 . S
C187 O190 1.252 . S
C187 O191 1.260 . S
O188 In182 2.266 . S
O188 C185 1.252 . S
O189 In182 2.326 . S
O189 C185 1.260 . S
O190 In182 2.266 . S
O190 C187 1.252 . S
O191 In182 2.326 . S
O191 C187 1.260 . S
C192 O183 1.240 . S
C192 O184 1.252 . S
O193 In182 2.294 . S
O193 C186 1.240 . S
O194 In182 2.326 . S
O194 C186 1.252 . S
In195 O196 2.294 . S
In195 O197 2.326 . S
In195 O201 2.266 . S
In195 O202 2.326 . S
In195 O203 2.266 . S
In195 O204 2.326 . S
In195 O206 2.294 . S
In195 O207 2.326 . S
O196 In195 2.294 . S
O196 C205 1.240 . S
O197 In195 2.326 . S
O197 C205 1.252 . S
C198 O201 1.252 . S
C198 O202 1.260 . S
C199 O206 1.240 . S
C199 O207 1.252 . S
C200 O203 1.252 . S
C200 O204 1.260 . S
O201 In195 2.266 . S
O201 C198 1.252 . S
O202 In195 2.326 . S
O202 C198 1.260 . S
O203 In195 2.266 . S
O203 C200 1.252 . S
O204 In195 2.326 . S
O204 C200 1.260 . S
C205 O196 1.240 . S
C205 O197 1.252 . S
O206 In195 2.294 . S
O206 C199 1.240 . S
O207 In195 2.326 . S
O207 C199 1.252 . S
In208 O209 2.294 . S
In208 O210 2.326 . S
In208 O214 2.266 . S
In208 O215 2.326 . S
In208 O216 2.266 1_545 S
In208 O217 2.326 1_545 S
In208 O219 2.294 . S
In208 O220 2.326 . S
O209 In208 2.294 . S
O209 C218 1.240 . S
O210 In208 2.326 . S
O210 C218 1.252 . S
C211 O214 1.252 . S
C211 O215 1.260 . S
C212 O219 1.240 . S
C212 O220 1.252 . S
C213 O216 1.252 . S
C213 O217 1.260 . S
O214 In208 2.266 . S
O214 C211 1.252 . S
O215 In208 2.326 . S
O215 C211 1.260 . S
O216 In208 2.266 1_565 S
O216 C213 1.252 . S
O217 In208 2.326 1_565 S
O217 C213 1.260 . S
C218 O209 1.240 . S
C218 O210 1.252 . S
O219 In208 2.294 . S
O219 C212 1.240 . S
O220 In208 2.326 . S
O220 C212 1.252 . S
In221 O222 2.294 . S
In221 O223 2.326 . S
In221 O227 2.266 . S
In221 O228 2.326 . S
In221 O229 2.266 . S
In221 O230 2.326 . S
In221 O232 2.294 . S
In221 O233 2.326 . S
O222 In221 2.294 . S
O222 C231 1.240 . S
O223 In221 2.326 . S
O223 C231 1.252 . S
C224 O227 1.252 . S
C224 O228 1.260 . S
C225 O232 1.240 . S
C225 O233 1.252 . S
C226 O229 1.252 . S
C226 O230 1.260 . S
O227 In221 2.266 . S
O227 C224 1.252 . S
O228 In221 2.326 . S
O228 C224 1.260 . S
O229 In221 2.266 . S
O229 C226 1.252 . S
O230 In221 2.326 . S
O230 C226 1.260 . S
C231 O222 1.240 . S
C231 O223 1.252 . S
O232 In221 2.294 . S
O232 C225 1.240 . S
O233 In221 2.326 . S
O233 C225 1.252 . S
In234 O235 2.294 . S
In234 O236 2.326 . S
In234 O240 2.266 . S
In234 O241 2.326 . S
In234 O242 2.266 . S
In234 O243 2.326 . S
In234 O245 2.294 . S
In234 O246 2.326 . S
O235 In234 2.294 . S
O235 C244 1.240 . S
O236 In234 2.326 . S
O236 C244 1.252 . S
C237 O240 1.252 . S
C237 O241 1.260 . S
C238 O245 1.240 . S
C238 O246 1.252 . S
C239 O242 1.252 . S
C239 O243 1.260 . S
O240 In234 2.266 . S
O240 C237 1.252 . S
O241 In234 2.326 . S
O241 C237 1.260 . S
O242 In234 2.266 . S
O242 C239 1.252 . S
O243 In234 2.326 . S
O243 C239 1.260 . S
C244 O235 1.240 . S
C244 O236 1.252 . S
O245 In234 2.294 . S
O245 C238 1.240 . S
O246 In234 2.326 . S
O246 C238 1.252 . S
In247 O248 2.294 1_545 S
In247 O249 2.326 1_545 S
In247 O253 2.266 . S
In247 O254 2.326 . S
In247 O255 2.266 . S
In247 O256 2.326 . S
In247 O258 2.294 1_545 S
In247 O259 2.326 1_545 S
O248 In247 2.294 1_565 S
O248 C257 1.240 . S
O249 In247 2.326 1_565 S
O249 C257 1.252 . S
C250 O253 1.252 . S
C250 O254 1.260 . S
C251 O258 1.240 . S
C251 O259 1.252 . S
C252 O255 1.252 . S
C252 O256 1.260 . S
O253 In247 2.266 . S
O253 C250 1.252 . S
O254 In247 2.326 . S
O254 C250 1.260 . S
O255 In247 2.266 . S
O255 C252 1.252 . S
O256 In247 2.326 . S
O256 C252 1.260 . S
C257 O248 1.240 . S
C257 O249 1.252 . S
O258 In247 2.294 1_565 S
O258 C251 1.240 . S
O259 In247 2.326 1_565 S
O259 C251 1.252 . S
In260 O261 2.294 . S
In260 O262 2.326 . S
In260 O266 2.266 1_554 S
In260 O267 2.325 1_554 S
In260 O268 2.264 1_554 S
In260 O269 2.322 1_554 S
In260 O271 2.296 . S
In260 O272 2.330 . S
O261 In260 2.294 . S
O261 C270 1.240 . S
O262 In260 2.326 . S
O262 C270 1.252 . S
C263 O266 1.252 . S
C263 O267 1.260 . S
C264 O271 1.240 . S
C264 O272 1.252 . S
C265 O268 1.252 . S
C265 O269 1.260 . S
O266 In260 2.266 1_556 S
O266 C263 1.252 . S
O267 In260 2.325 1_556 S
O267 C263 1.260 . S
O268 In260 2.264 1_556 S
O268 C265 1.252 . S
O269 In260 2.322 1_556 S
O269 C265 1.260 . S
C270 O261 1.240 . S
C270 O262 1.252 . S
O271 In260 2.296 . S
O271 C264 1.240 . S
O272 In260 2.330 . S
O272 C264 1.252 . S
In273 O274 2.294 . S
In273 O275 2.326 . S
In273 O279 2.266 . S
In273 O280 2.326 . S
In273 O281 2.266 . S
In273 O282 2.326 . S
In273 O284 2.294 . S
In273 O285 2.326 . S
O274 In273 2.294 . S
O274 C283 1.240 . S
O275 In273 2.326 . S
O275 C283 1.252 . S
C276 O279 1.252 . S
C276 O280 1.260 . S
C277 O284 1.240 . S
C277 O285 1.252 . S
C278 O281 1.252 . S
C278 O282 1.260 . S
O279 In273 2.266 . S
O279 C276 1.252 . S
O280 In273 2.326 . S
O280 C276 1.260 . S
O281 In273 2.266 . S
O281 C278 1.252 . S
O282 In273 2.326 . S
O282 C278 1.260 . S
C283 O274 1.240 . S
C283 O275 1.252 . S
O284 In273 2.294 . S
O284 C277 1.240 . S
O285 In273 2.326 . S
O285 C277 1.252 . S
In286 O287 2.294 . S
In286 O288 2.326 . S
In286 O292 2.266 . S
In286 O293 2.326 . S
In286 O294 2.266 . S
In286 O295 2.326 . S
In286 O297 2.294 . S
In286 O298 2.326 . S
O287 In286 2.294 . S
O287 C296 1.240 . S
O288 In286 2.326 . S
O288 C296 1.252 . S
C289 O292 1.252 . S
C289 O293 1.260 . S
C290 O297 1.240 . S
C290 O298 1.252 . S
C291 O294 1.252 . S
C291 O295 1.260 . S
O292 In286 2.266 . S
O292 C289 1.252 . S
O293 In286 2.326 . S
O293 C289 1.260 . S
O294 In286 2.266 . S
O294 C291 1.252 . S
O295 In286 2.326 . S
O295 C291 1.260 . S
C296 O287 1.240 . S
C296 O288 1.252 . S
O297 In286 2.294 . S
O297 C290 1.240 . S
O298 In286 2.326 . S
O298 C290 1.252 . S
In299 O300 2.294 . S
In299 O301 2.326 . S
In299 O305 2.266 . S
In299 O306 2.326 . S
In299 O307 2.266 . S
In299 O308 2.326 . S
In299 O310 2.294 . S
In299 O311 2.326 . S
O300 In299 2.294 . S
O300 C309 1.240 . S
O301 In299 2.326 . S
O301 C309 1.252 . S
C302 O305 1.252 . S
C302 O306 1.260 . S
C303 O310 1.240 . S
C303 O311 1.252 . S
C304 O307 1.252 . S
C304 O308 1.260 . S
O305 In299 2.266 . S
O305 C302 1.252 . S
O306 In299 2.326 . S
O306 C302 1.260 . S
O307 In299 2.266 . S
O307 C304 1.252 . S
O308 In299 2.326 . S
O308 C304 1.260 . S
C309 O300 1.240 . S
C309 O301 1.252 . S
O310 In299 2.294 . S
O310 C303 1.240 . S
O311 In299 2.326 . S
O311 C303 1.252 . S
Zn312 O318 1.970 . S
Zn312 O319 1.972 . S
Zn312 O323 2.014 1_545 S
Zn312 O328 1.974 . S
Zn313 O320 1.969 1_554 S
Zn313 O326 1.969 1_455 S
Zn313 O327 1.965 . S
Zn313 O329 2.024 . S
C314 O315 1.229 . S
C314 O323 1.058 . S
O315 C314 1.229 . S
C316 O317 1.223 1_554 S
C316 O329 1.058 . S
O317 C316 1.223 1_556 S
O318 Zn312 1.970 . S
O318 C321 1.267 1_545 S
O319 Zn312 1.972 . S
O319 C330 1.260 1_554 S
O320 Zn313 1.969 1_556 S
O320 C330 1.258 . S
C321 O318 1.267 1_565 S
C321 O322 1.228 . S
O322 C321 1.228 . S
O323 Zn312 2.014 1_565 S
O323 C314 1.058 . S
C324 O325 1.228 . S
C324 O326 1.267 . S
O325 C324 1.228 . S
O326 Zn313 1.969 1_655 S
O326 C324 1.267 . S
O327 Zn313 1.965 . S
O327 C331 1.260 . S
O328 Zn312 1.974 . S
O328 C331 1.258 . S
O329 Zn313 2.024 . S
O329 C316 1.058 . S
C330 O319 1.260 1_556 S
C330 O320 1.258 . S
C331 O327 1.260 . S
C331 O328 1.258 . S
Zn332 O338 1.969 . S
Zn332 O339 1.965 . S
Zn332 O343 2.024 . S
Zn332 O348 1.969 . S
Zn333 O340 1.969 . S
Zn333 O346 1.969 . S
Zn333 O347 1.965 . S
Zn333 O349 2.024 . S
C334 O335 1.229 . S
C334 O343 1.058 . S
O335 C334 1.229 . S
C336 O337 1.229 . S
C336 O349 1.058 . S
O337 C336 1.229 . S
O338 Zn332 1.969 . S
O338 C341 1.267 . S
O339 Zn332 1.965 . S
O339 C350 1.260 . S
O340 Zn333 1.969 . S
O340 C350 1.258 . S
C341 O338 1.267 . S
C341 O342 1.228 . S
O342 C341 1.228 . S
O343 Zn332 2.024 . S
O343 C334 1.058 . S
C344 O345 1.228 . S
C344 O346 1.267 . S
O345 C344 1.228 . S
O346 Zn333 1.969 . S
O346 C344 1.267 . S
O347 Zn333 1.965 . S
O347 C351 1.260 . S
O348 Zn332 1.969 . S
O348 C351 1.258 . S
O349 Zn333 2.024 . S
O349 C336 1.058 . S
C350 O339 1.260 . S
C350 O340 1.258 . S
C351 O347 1.260 . S
C351 O348 1.258 . S
Zn352 O358 1.969 . S
Zn352 O359 1.965 . S
Zn352 O363 2.024 . S
Zn352 O368 1.969 . S
Zn353 O360 1.969 . S
Zn353 O366 1.969 . S
Zn353 O367 1.948 1_565 S
Zn353 O369 2.024 . S
C354 O355 1.229 . S
C354 O363 1.058 . S
O355 C354 1.229 . S
C356 O357 1.229 . S
C356 O369 1.058 . S
O357 C356 1.229 . S
O358 Zn352 1.969 . S
O358 C361 1.267 . S
O359 Zn352 1.965 . S
O359 C370 1.260 . S
O360 Zn353 1.969 . S
O360 C370 1.258 1_565 S
C361 O358 1.267 . S
C361 O362 1.228 . S
O362 C361 1.228 . S
O363 Zn352 2.024 . S
O363 C354 1.058 . S
C364 O365 1.228 . S
C364 O366 1.267 . S
O365 C364 1.228 . S
O366 Zn353 1.969 . S
O366 C364 1.267 . S
O367 Zn353 1.948 1_545 S
O367 C371 1.265 . S
O368 Zn352 1.969 . S
O368 C371 1.258 . S
O369 Zn353 2.024 . S
O369 C356 1.058 . S
C370 O359 1.260 . S
C370 O360 1.258 1_545 S
C371 O367 1.265 . S
C371 O368 1.258 . S
Zn372 O378 1.969 . S
Zn372 O379 1.965 . S
Zn372 O383 2.024 . S
Zn372 O388 1.969 . S
Zn373 O380 1.969 . S
Zn373 O386 1.969 . S
Zn373 O387 1.965 . S
Zn373 O389 2.024 . S
C374 O375 1.229 . S
C374 O383 1.058 . S
O375 C374 1.229 . S
C376 O377 1.229 . S
C376 O389 1.058 . S
O377 C376 1.229 . S
O378 Zn372 1.969 . S
O378 C381 1.267 . S
O379 Zn372 1.965 . S
O379 C390 1.260 . S
O380 Zn373 1.969 . S
O380 C390 1.258 . S
C381 O378 1.267 . S
C381 O382 1.228 . S
O382 C381 1.228 . S
O383 Zn372 2.024 . S
O383 C374 1.058 . S
C384 O385 1.228 . S
C384 O386 1.267 . S
O385 C384 1.228 . S
O386 Zn373 1.969 . S
O386 C384 1.267 . S
O387 Zn373 1.965 . S
O387 C391 1.260 . S
O388 Zn372 1.969 . S
O388 C391 1.258 . S
O389 Zn373 2.024 . S
O389 C376 1.058 . S
C390 O379 1.260 . S
C390 O380 1.258 . S
C391 O387 1.260 . S
C391 O388 1.258 . S
Zn392 O398 1.969 . S
Zn392 O399 1.965 . S
Zn392 O403 2.024 1_565 S
Zn392 O408 1.969 1_565 S
Zn393 O400 1.969 1_455 S
Zn393 O406 1.969 . S
Zn393 O407 1.965 . S
Zn393 O409 2.024 . S
C394 O395 1.229 1_545 S
C394 O403 1.058 . S
O395 C394 1.229 1_565 S
C396 O397 1.229 . S
C396 O409 1.058 1_655 S
O397 C396 1.229 . S
O398 Zn392 1.969 . S
O398 C401 1.267 . S
O399 Zn392 1.965 . S
O399 C410 1.260 1_455 S
O400 Zn393 1.969 1_655 S
O400 C410 1.258 1_545 S
C401 O398 1.267 . S
C401 O402 1.228 . S
O402 C401 1.228 . S
O403 Zn392 2.024 1_545 S
O403 C394 1.058 . S
C404 O405 1.228 . S
C404 O406 1.267 . S
O405 C404 1.228 . S
O406 Zn393 1.969 . S
O406 C404 1.267 . S
O407 Zn393 1.965 . S
O407 C411 1.260 . S
O408 Zn392 1.969 1_545 S
O408 C411 1.258 . S
O409 Zn393 2.024 . S
O409 C396 1.058 1_455 S
C410 O399 1.260 1_655 S
C410 O400 1.258 1_565 S
C411 O407 1.260 . S
C411 O408 1.258 . S
Zn412 O418 1.969 . S
Zn412 O419 1.965 . S
Zn412 O423 2.024 . S
Zn412 O428 1.969 . S
Zn413 O420 1.969 . S
Zn413 O426 1.969 . S
Zn413 O427 1.965 . S
Zn413 O429 2.024 . S
C414 O415 1.229 . S
C414 O423 1.058 . S
O415 C414 1.229 . S
C416 O417 1.229 . S
C416 O429 1.058 . S
O417 C416 1.229 . S
O418 Zn412 1.969 . S
O418 C421 1.267 . S
O419 Zn412 1.965 . S
O419 C430 1.260 . S
O420 Zn413 1.969 . S
O420 C430 1.258 . S
C421 O418 1.267 . S
C421 O422 1.228 . S
O422 C421 1.228 . S
O423 Zn412 2.024 . S
O423 C414 1.058 . S
C424 O425 1.228 . S
C424 O426 1.267 . S
O425 C424 1.228 . S
O426 Zn413 1.969 . S
O426 C424 1.267 . S
O427 Zn413 1.965 . S
O427 C431 1.260 . S
O428 Zn412 1.969 . S
O428 C431 1.258 . S
O429 Zn413 2.024 . S
O429 C416 1.058 . S
C430 O419 1.260 . S
C430 O420 1.258 . S
C431 O427 1.260 . S
C431 O428 1.258 . S
Zn432 O438 1.969 . S
Zn432 O439 1.965 . S
Zn432 O443 2.024 1_556 S
Zn432 O448 1.969 1_556 S
Zn433 O440 1.969 1_545 S
Zn433 O446 1.969 1_545 S
Zn433 O447 1.965 . S
Zn433 O449 2.024 . S
C434 O435 1.229 1_554 S
C434 O443 1.058 . S
O435 C434 1.229 1_556 S
C436 O437 1.229 . S
C436 O449 1.058 1_565 S
O437 C436 1.229 . S
O438 Zn432 1.969 . S
O438 C441 1.267 . S
O439 Zn432 1.965 . S
O439 C450 1.260 1_546 S
O440 Zn433 1.969 1_565 S
O440 C450 1.258 . S
C441 O438 1.267 . S
C441 O442 1.228 . S
O442 C441 1.228 . S
O443 Zn432 2.024 1_554 S
O443 C434 1.058 . S
C444 O445 1.228 . S
C444 O446 1.267 1_545 S
O445 C444 1.228 . S
O446 Zn433 1.969 1_565 S
O446 C444 1.267 1_565 S
O447 Zn433 1.965 . S
O447 C451 1.260 . S
O448 Zn432 1.969 1_554 S
O448 C451 1.258 . S
O449 Zn433 2.024 . S
O449 C436 1.058 1_545 S
C450 O439 1.260 1_564 S
C450 O440 1.258 . S
C451 O447 1.260 . S
C451 O448 1.258 . S
Zn452 O458 1.969 . S
Zn452 O459 1.965 . S
Zn452 O463 2.024 . S
Zn452 O468 1.969 . S
Zn453 O460 1.969 . S
Zn453 O466 1.969 . S
Zn453 O467 1.965 . S
Zn453 O469 2.024 . S
C454 O455 1.229 . S
C454 O463 1.058 . S
O455 C454 1.229 . S
C456 O457 1.229 . S
C456 O469 1.058 . S
O457 C456 1.229 . S
O458 Zn452 1.969 . S
O458 C461 1.267 . S
O459 Zn452 1.965 . S
O459 C470 1.260 . S
O460 Zn453 1.969 . S
O460 C470 1.258 . S
C461 O458 1.267 . S
C461 O462 1.228 . S
O462 C461 1.228 . S
O463 Zn452 2.024 . S
O463 C454 1.058 . S
C464 O465 1.228 . S
C464 O466 1.267 . S
O465 C464 1.228 . S
O466 Zn453 1.969 . S
O466 C464 1.267 . S
O467 Zn453 1.965 . S
O467 C471 1.260 . S
O468 Zn452 1.969 . S
O468 C471 1.258 . S
O469 Zn453 2.024 . S
O469 C456 1.058 . S
C470 O459 1.260 . S
C470 O460 1.258 . S
C471 O467 1.260 . S
C471 O468 1.258 . S
Zn472 O478 1.969 . S
Zn472 O479 1.965 . S
Zn472 O483 2.024 . S
Zn472 O488 1.969 . S
Zn473 O480 1.969 1_556 S
Zn473 O486 1.969 . S
Zn473 O487 1.965 1_556 S
Zn473 O489 2.024 . S
C474 O475 1.229 . S
C474 O483 1.058 . S
O475 C474 1.229 . S
C476 O477 1.229 . S
C476 O489 1.058 . S
O477 C476 1.229 . S
O478 Zn472 1.969 . S
O478 C481 1.267 . S
O479 Zn472 1.965 . S
O479 C490 1.260 . S
O480 Zn473 1.969 1_554 S
O480 C490 1.258 . S
C481 O478 1.267 . S
C481 O482 1.228 . S
O482 C481 1.228 . S
O483 Zn472 2.024 . S
O483 C474 1.058 . S
C484 O485 1.228 . S
C484 O486 1.267 . S
O485 C484 1.228 . S
O486 Zn473 1.969 . S
O486 C484 1.267 . S
O487 Zn473 1.965 1_554 S
O487 C491 1.260 . S
O488 Zn472 1.969 . S
O488 C491 1.258 . S
O489 Zn473 2.024 . S
O489 C476 1.058 . S
C490 O479 1.260 . S
C490 O480 1.258 . S
C491 O487 1.260 . S
C491 O488 1.258 . S
Zn492 O498 1.969 . S
Zn492 O499 1.965 . S
Zn492 O503 2.024 . S
Zn492 O508 1.969 . S
Zn493 O500 1.969 . S
Zn493 O506 1.969 . S
Zn493 O507 1.965 . S
Zn493 O509 2.024 . S
C494 O495 1.229 . S
C494 O503 1.058 . S
O495 C494 1.229 . S
C496 O497 1.229 . S
C496 O509 1.058 . S
O497 C496 1.229 . S
O498 Zn492 1.969 . S
O498 C501 1.267 . S
O499 Zn492 1.965 . S
O499 C510 1.260 . S
O500 Zn493 1.969 . S
O500 C510 1.258 . S
C501 O498 1.267 . S
C501 O502 1.228 . S
O502 C501 1.228 . S
O503 Zn492 2.024 . S
O503 C494 1.058 . S
C504 O505 1.228 . S
C504 O506 1.267 . S
O505 C504 1.228 . S
O506 Zn493 1.969 . S
O506 C504 1.267 . S
O507 Zn493 1.965 . S
O507 C511 1.260 . S
O508 Zn492 1.969 . S
O508 C511 1.258 . S
O509 Zn493 2.024 . S
O509 C496 1.058 . S
C510 O499 1.260 . S
C510 O500 1.258 . S
C511 O507 1.260 . S
C511 O508 1.258 . S
Zn512 O518 1.969 . S
Zn512 O519 1.965 . S
Zn512 O523 2.024 . S
Zn512 O528 1.969 . S
Zn513 O520 1.969 . S
Zn513 O526 1.969 . S
Zn513 O527 1.965 1_655 S
Zn513 O529 2.024 . S
C514 O515 1.229 . S
C514 O523 1.058 . S
O515 C514 1.229 . S
C516 O517 1.229 . S
C516 O529 1.058 . S
O517 C516 1.229 . S
O518 Zn512 1.969 . S
O518 C521 1.267 . S
O519 Zn512 1.965 . S
O519 C530 1.260 . S
O520 Zn513 1.969 . S
O520 C530 1.258 1_655 S
C521 O518 1.267 . S
C521 O522 1.228 . S
O522 C521 1.228 . S
O523 Zn512 2.024 . S
O523 C514 1.058 . S
C524 O525 1.228 . S
C524 O526 1.267 . S
O525 C524 1.228 . S
O526 Zn513 1.969 . S
O526 C524 1.267 . S
O527 Zn513 1.965 1_455 S
O527 C531 1.260 . S
O528 Zn512 1.969 . S
O528 C531 1.258 . S
O529 Zn513 2.024 . S
O529 C516 1.058 . S
C530 O519 1.260 . S
C530 O520 1.258 1_455 S
C531 O527 1.260 . S
C531 O528 1.258 . S
Zn532 O538 1.969 . S
Zn532 O539 1.965 . S
Zn532 O543 2.024 . S
Zn532 O548 1.969 . S
Zn533 O540 1.969 . S
Zn533 O546 1.969 . S
Zn533 O547 1.965 . S
Zn533 O549 2.024 . S
C534 O535 1.229 . S
C534 O543 1.058 . S
O535 C534 1.229 . S
C536 O537 1.229 . S
C536 O549 1.058 . S
O537 C536 1.229 . S
O538 Zn532 1.969 . S
O538 C541 1.267 . S
O539 Zn532 1.965 . S
O539 C550 1.260 . S
O540 Zn533 1.969 . S
O540 C550 1.258 . S
C541 O538 1.267 . S
C541 O542 1.228 . S
O542 C541 1.228 . S
O543 Zn532 2.024 . S
O543 C534 1.058 . S
C544 O545 1.228 . S
C544 O546 1.267 . S
O545 C544 1.228 . S
O546 Zn533 1.969 . S
O546 C544 1.267 . S
O547 Zn533 1.965 . S
O547 C551 1.260 . S
O548 Zn532 1.969 . S
O548 C551 1.258 . S
O549 Zn533 2.024 . S
O549 C536 1.058 . S
C550 O539 1.260 . S
C550 O540 1.258 . S
C551 O547 1.260 . S
C551 O548 1.258 . S
Zn552 O558 1.969 . S
Zn552 O559 1.965 . S
Zn552 O563 2.024 . S
Zn552 O568 1.969 . S
Zn553 O560 1.969 . S
Zn553 O566 1.969 . S
Zn553 O567 1.965 . S
Zn553 O569 2.024 . S
C554 O555 1.229 . S
C554 O563 1.058 . S
O555 C554 1.229 . S
C556 O557 1.229 . S
C556 O569 1.058 . S
O557 C556 1.229 . S
O558 Zn552 1.969 . S
O558 C561 1.267 . S
O559 Zn552 1.965 . S
O559 C570 1.260 . S
O560 Zn553 1.969 . S
O560 C570 1.258 . S
C561 O558 1.267 . S
C561 O562 1.228 . S
O562 C561 1.228 . S
O563 Zn552 2.024 . S
O563 C554 1.058 . S
C564 O565 1.228 . S
C564 O566 1.267 . S
O565 C564 1.228 . S
O566 Zn553 1.969 . S
O566 C564 1.267 . S
O567 Zn553 1.965 . S
O567 C571 1.260 . S
O568 Zn552 1.969 . S
O568 C571 1.258 . S
O569 Zn553 2.024 . S
O569 C556 1.058 . S
C570 O559 1.260 . S
C570 O560 1.258 . S
C571 O567 1.260 . S
C571 O568 1.258 . S
Zn572 O578 1.969 . S
Zn572 O579 1.965 . S
Zn572 O583 2.024 . S
Zn572 O588 1.969 . S
Zn573 O580 1.969 . S
Zn573 O586 1.969 . S
Zn573 O587 1.965 . S
Zn573 O589 2.024 . S
C574 O575 1.229 . S
C574 O583 1.058 . S
O575 C574 1.229 . S
C576 O577 1.229 . S
C576 O589 1.058 . S
O577 C576 1.229 . S
O578 Zn572 1.969 . S
O578 C581 1.267 . S
O579 Zn572 1.965 . S
O579 C590 1.260 . S
O580 Zn573 1.969 . S
O580 C590 1.258 . S
C581 O578 1.267 . S
C581 O582 1.228 . S
O582 C581 1.228 . S
O583 Zn572 2.024 . S
O583 C574 1.058 . S
C584 O585 1.228 . S
C584 O586 1.267 . S
O585 C584 1.228 . S
O586 Zn573 1.969 . S
O586 C584 1.267 . S
O587 Zn573 1.965 . S
O587 C591 1.260 . S
O588 Zn572 1.969 . S
O588 C591 1.258 . S
O589 Zn573 2.024 . S
O589 C576 1.058 . S
C590 O579 1.260 . S
C590 O580 1.258 . S
C591 O587 1.260 . S
C591 O588 1.258 . S
Zn592 O598 1.969 . S
Zn592 O599 1.965 . S
Zn592 O603 2.024 . S
Zn592 O608 1.969 . S
Zn593 O600 1.969 . S
Zn593 O606 1.969 . S
Zn593 O607 1.965 . S
Zn593 O609 2.024 . S
C594 O595 1.229 . S
C594 O603 1.058 . S
O595 C594 1.229 . S
C596 O597 1.229 . S
C596 O609 1.058 . S
O597 C596 1.229 . S
O598 Zn592 1.969 . S
O598 C601 1.267 . S
O599 Zn592 1.965 . S
O599 C610 1.260 . S
O600 Zn593 1.969 . S
O600 C610 1.258 . S
C601 O598 1.267 . S
C601 O602 1.228 . S
O602 C601 1.228 . S
O603 Zn592 2.024 . S
O603 C594 1.058 . S
C604 O605 1.228 . S
C604 O606 1.267 . S
O605 C604 1.228 . S
O606 Zn593 1.969 . S
O606 C604 1.267 . S
O607 Zn593 1.965 . S
O607 C611 1.260 . S
O608 Zn592 1.969 . S
O608 C611 1.258 . S
O609 Zn593 2.024 . S
O609 C596 1.058 . S
C610 O599 1.260 . S
C610 O600 1.258 . S
C611 O607 1.260 . S
C611 O608 1.258 . S
Zn612 O618 1.969 . S
Zn612 O619 1.965 . S
Zn612 O623 2.024 1_655 S
Zn612 O628 1.969 1_655 S
Zn613 O620 1.969 1_554 S
Zn613 O626 1.969 . S
Zn613 O627 1.965 . S
Zn613 O629 2.024 . S
C614 O615 1.229 1_455 S
C614 O623 1.058 . S
O615 C614 1.229 1_655 S
C616 O617 1.229 1_554 S
C616 O629 1.058 . S
O617 C616 1.229 1_556 S
O618 Zn612 1.969 . S
O618 C621 1.267 . S
O619 Zn612 1.965 . S
O619 C630 1.260 1_554 S
O620 Zn613 1.969 1_556 S
O620 C630 1.258 1_455 S
C621 O618 1.267 . S
C621 O622 1.228 . S
O622 C621 1.228 . S
O623 Zn612 2.024 1_455 S
O623 C614 1.058 . S
C624 O625 1.228 . S
C624 O626 1.267 . S
O625 C624 1.228 . S
O626 Zn613 1.969 . S
O626 C624 1.267 . S
O627 Zn613 1.965 . S
O627 C631 1.260 . S
O628 Zn612 1.969 1_455 S
O628 C631 1.258 . S
O629 Zn613 2.024 . S
O629 C616 1.058 . S
C630 O619 1.260 1_556 S
C630 O620 1.258 1_655 S
C631 O627 1.260 . S
C631 O628 1.258 . S
C632 C633 1.387 . S
C632 H636 0.950 . S
C632 C641 1.390 1_556 S
C633 C632 1.387 . S
C633 C635 1.387 . S
H634 C641 0.950 . S
C635 C633 1.387 . S
C635 C637 1.390 . S
C635 H639 0.950 . S
H636 C632 0.950 . S
C637 C635 1.390 . S
C637 C638 1.387 1_556 S
C637 H640 0.950 . S
C638 C637 1.387 1_554 S
C638 C641 1.387 . S
H639 C635 0.950 . S
H640 C637 0.950 . S
C641 C632 1.390 1_554 S
C641 H634 0.950 . S
C641 C638 1.387 . S
C642 C643 1.387 . S
C642 H646 0.950 . S
C642 C651 1.390 . S
C643 C642 1.387 . S
C643 C645 1.387 . S
H644 C651 0.950 . S
C645 C643 1.387 . S
C645 C647 1.390 . S
C645 H649 0.950 . S
H646 C642 0.950 . S
C647 C645 1.390 . S
C647 C648 1.387 . S
C647 H650 0.950 . S
C648 C647 1.387 . S
C648 C651 1.387 . S
H649 C645 0.950 . S
H650 C647 0.950 . S
C651 C642 1.390 . S
C651 H644 0.950 . S
C651 C648 1.387 . S
C652 C653 1.387 . S
C652 H656 0.950 . S
C652 C661 1.390 . S
C653 C652 1.387 . S
C653 C655 1.387 . S
H654 C661 0.950 . S
C655 C653 1.387 . S
C655 C657 1.390 . S
C655 H659 0.950 . S
H656 C652 0.950 . S
C657 C655 1.390 . S
C657 C658 1.387 . S
C657 H660 0.950 . S
C658 C657 1.387 . S
C658 C661 1.387 . S
H659 C655 0.950 . S
H660 C657 0.950 . S
C661 C652 1.390 . S
C661 H654 0.950 . S
C661 C658 1.387 . S
C662 C663 1.387 . S
C662 H666 0.950 . S
C662 C671 1.390 . S
C663 C662 1.387 . S
C663 C665 1.387 . S
H664 C671 0.950 . S
C665 C663 1.387 . S
C665 C667 1.390 . S
C665 H669 0.950 . S
H666 C662 0.950 . S
C667 C665 1.390 . S
C667 C668 1.387 . S
C667 H670 0.950 . S
C668 C667 1.387 . S
C668 C671 1.387 . S
H669 C665 0.950 . S
H670 C667 0.950 . S
C671 C662 1.390 . S
C671 H664 0.950 . S
C671 C668 1.387 . S
C672 C673 1.387 . S
C672 H676 0.950 1_455 S
C672 C681 1.390 . S
C673 C672 1.387 . S
C673 C675 1.387 . S
H674 C681 0.950 1_655 S
C675 C673 1.387 . S
C675 C677 1.390 . S
C675 H679 0.950 . S
H676 C672 0.950 1_655 S
C677 C675 1.390 . S
C677 C678 1.387 . S
C677 H680 0.950 . S
C678 C677 1.387 . S
C678 C681 1.387 . S
H679 C675 0.950 . S
H680 C677 0.950 . S
C681 C672 1.390 . S
C681 H674 0.950 1_455 S
C681 C678 1.387 . S
C682 C683 1.387 . S
C682 H686 0.950 . S
C682 C691 1.390 . S
C683 C682 1.387 . S
C683 C685 1.387 . S
H684 C691 0.950 . S
C685 C683 1.387 . S
C685 C687 1.390 . S
C685 H689 0.950 . S
H686 C682 0.950 . S
C687 C685 1.390 . S
C687 C688 1.387 . S
C687 H690 0.950 . S
C688 C687 1.387 . S
C688 C691 1.387 . S
H689 C685 0.950 . S
H690 C687 0.950 . S
C691 C682 1.390 . S
C691 H684 0.950 . S
C691 C688 1.387 . S
C692 C693 1.387 . S
C692 H696 0.950 . S
C692 C701 1.390 . S
C693 C692 1.387 . S
C693 C695 1.387 . S
H694 C701 0.950 . S
C695 C693 1.387 . S
C695 C697 1.390 . S
C695 H699 0.950 . S
H696 C692 0.950 . S
C697 C695 1.390 . S
C697 C698 1.387 . S
C697 H700 0.950 . S
C698 C697 1.387 . S
C698 C701 1.387 . S
H699 C695 0.950 . S
H700 C697 0.950 . S
C701 C692 1.390 . S
C701 H694 0.950 . S
C701 C698 1.387 . S
C702 C703 1.387 . S
C702 H706 0.950 . S
C702 C711 1.390 . S
C703 C702 1.387 . S
C703 C705 1.387 . S
H704 C711 0.950 . S
C705 C703 1.387 . S
C705 C707 1.390 . S
C705 H709 0.950 . S
H706 C702 0.950 . S
C707 C705 1.390 . S
C707 C708 1.387 . S
C707 H710 0.950 . S
C708 C707 1.387 . S
C708 C711 1.387 . S
H709 C705 0.950 . S
H710 C707 0.950 . S
C711 C702 1.390 . S
C711 H704 0.950 . S
C711 C708 1.387 . S
C712 C713 1.387 . S
C712 H716 0.950 . S
C712 C721 1.390 . S
C713 C712 1.387 . S
C713 C715 1.387 . S
H714 C721 0.950 1_455 S
C715 C713 1.387 . S
C715 C717 1.390 . S
C715 H719 0.950 1_545 S
H716 C712 0.950 . S
C717 C715 1.390 . S
C717 C718 1.387 1_655 S
C717 H720 0.950 1_545 S
C718 C717 1.387 1_455 S
C718 C721 1.387 1_455 S
H719 C715 0.950 1_565 S
H720 C717 0.950 1_565 S
C721 C712 1.390 . S
C721 H714 0.950 1_655 S
C721 C718 1.387 1_655 S
C722 C723 1.387 . S
C722 H726 0.950 . S
C722 C731 1.390 . S
C723 C722 1.387 . S
C723 C725 1.387 . S
H724 C731 0.950 . S
C725 C723 1.387 . S
C725 C727 1.390 . S
C725 H729 0.950 . S
H726 C722 0.950 . S
C727 C725 1.390 . S
C727 C728 1.387 . S
C727 H730 0.950 . S
C728 C727 1.387 . S
C728 C731 1.387 . S
H729 C725 0.950 . S
H730 C727 0.950 . S
C731 C722 1.390 . S
C731 H724 0.950 . S
C731 C728 1.387 . S
C732 C733 1.387 1_545 S
C732 H736 0.950 . S
C732 C741 1.390 . S
C733 C732 1.387 1_565 S
C733 C735 1.387 . S
H734 C741 0.950 . S
C735 C733 1.387 . S
C735 C737 1.390 . S
C735 H739 0.950 . S
H736 C732 0.950 . S
C737 C735 1.390 . S
C737 C738 1.387 . S
C737 H740 0.950 . S
C738 C737 1.387 . S
C738 C741 1.387 1_565 S
H739 C735 0.950 . S
H740 C737 0.950 . S
C741 C732 1.390 . S
C741 H734 0.950 . S
C741 C738 1.387 1_545 S
C742 C743 1.387 . S
C742 H746 0.950 . S
C742 C751 1.390 . S
C743 C742 1.387 . S
C743 C745 1.387 . S
H744 C751 0.950 . S
C745 C743 1.387 . S
C745 C747 1.390 . S
C745 H749 0.950 . S
H746 C742 0.950 . S
C747 C745 1.390 . S
C747 C748 1.387 . S
C747 H750 0.950 . S
C748 C747 1.387 . S
C748 C751 1.387 . S
H749 C745 0.950 . S
H750 C747 0.950 . S
C751 C742 1.390 . S
C751 H744 0.950 . S
C751 C748 1.387 . S
C752 C753 1.387 1_565 S
C752 H756 0.950 . S
C752 C761 1.390 . S
C753 C752 1.387 1_545 S
C753 C755 1.387 . S
H754 C761 0.950 . S
C755 C753 1.387 . S
C755 C757 1.390 . S
C755 H759 0.950 . S
H756 C752 0.950 . S
C757 C755 1.390 . S
C757 C758 1.387 . S
C757 H760 0.950 1_655 S
C758 C757 1.387 . S
C758 C761 1.387 1_545 S
H759 C755 0.950 . S
H760 C757 0.950 1_455 S
C761 C752 1.390 . S
C761 H754 0.950 . S
C761 C758 1.387 1_565 S
C762 C763 1.387 . S
C762 H766 0.950 . S
C762 C771 1.390 . S
C763 C762 1.387 . S
C763 C765 1.387 . S
H764 C771 0.950 . S
C765 C763 1.387 . S
C765 C767 1.390 . S
C765 H769 0.950 . S
H766 C762 0.950 . S
C767 C765 1.390 . S
C767 C768 1.387 . S
C767 H770 0.950 . S
C768 C767 1.387 . S
C768 C771 1.387 . S
H769 C765 0.950 . S
H770 C767 0.950 . S
C771 C762 1.390 . S
C771 H764 0.950 . S
C771 C768 1.387 . S
C772 C773 1.387 1_565 S
C772 H776 0.950 . S
C772 C781 1.390 1_565 S
C773 C772 1.387 1_545 S
C773 C775 1.387 . S
H774 C781 0.950 1_565 S
C775 C773 1.387 . S
C775 C777 1.390 . S
C775 H779 0.950 . S
H776 C772 0.950 . S
C777 C775 1.390 . S
C777 C778 1.387 . S
C777 H780 0.950 . S
C778 C777 1.387 . S
C778 C781 1.387 . S
H779 C775 0.950 . S
H780 C777 0.950 . S
C781 C772 1.390 1_545 S
C781 H774 0.950 1_545 S
C781 C778 1.387 . S
C782 C783 1.387 . S
C782 H786 0.950 . S
C782 C791 1.390 . S
C783 C782 1.387 . S
C783 C785 1.387 . S
H784 C791 0.950 . S
C785 C783 1.387 . S
C785 C787 1.390 . S
C785 H789 0.950 . S
H786 C782 0.950 . S
C787 C785 1.390 . S
C787 C788 1.387 . S
C787 H790 0.950 . S
C788 C787 1.387 . S
C788 C791 1.387 . S
H789 C785 0.950 . S
H790 C787 0.950 . S
C791 C782 1.390 . S
C791 H784 0.950 . S
C791 C788 1.387 . S
C792 C793 1.387 . S
C792 H796 0.950 . S
C792 C801 1.390 . S
C793 C792 1.387 . S
C793 C795 1.387 . S
H794 C801 0.950 . S
C795 C793 1.387 . S
C795 C797 1.390 . S
C795 H799 0.950 1_554 S
H796 C792 0.950 . S
C797 C795 1.390 . S
C797 C798 1.387 . S
C797 H800 0.950 . S
C798 C797 1.387 . S
C798 C801 1.387 . S
H799 C795 0.950 1_556 S
H800 C797 0.950 . S
C801 C792 1.390 . S
C801 H794 0.950 . S
C801 C798 1.387 . S
C802 C803 1.387 . S
C802 H806 0.950 . S
C802 C811 1.390 . S
C803 C802 1.387 . S
C803 C805 1.387 1_556 S
H804 C811 0.950 . S
C805 C803 1.387 1_554 S
C805 C807 1.390 . S
C805 H809 0.950 . S
H806 C802 0.950 . S
C807 C805 1.390 . S
C807 C808 1.387 . S
C807 H810 0.950 . S
C808 C807 1.387 . S
C808 C811 1.387 1_554 S
H809 C805 0.950 . S
H810 C807 0.950 . S
C811 C802 1.390 . S
C811 H804 0.950 . S
C811 C808 1.387 1_556 S
C812 C813 1.387 . S
C812 H816 0.950 . S
C812 C821 1.390 . S
C813 C812 1.387 . S
C813 C815 1.387 . S
H814 C821 0.950 . S
C815 C813 1.387 . S
C815 C817 1.390 . S
C815 H819 0.950 . S
H816 C812 0.950 . S
C817 C815 1.390 . S
C817 C818 1.387 . S
C817 H820 0.950 . S
C818 C817 1.387 . S
C818 C821 1.387 . S
H819 C815 0.950 . S
H820 C817 0.950 . S
C821 C812 1.390 . S
C821 H814 0.950 . S
C821 C818 1.387 . S
C822 C823 1.387 . S
C822 H826 0.950 . S
C822 C831 1.390 . S
C823 C822 1.387 . S
C823 C825 1.387 . S
H824 C831 0.950 . S
C825 C823 1.387 . S
C825 C827 1.390 . S
C825 H829 0.950 . S
H826 C822 0.950 . S
C827 C825 1.390 . S
C827 C828 1.387 . S
C827 H830 0.950 . S
C828 C827 1.387 . S
C828 C831 1.387 . S
H829 C825 0.950 . S
H830 C827 0.950 . S
C831 C822 1.390 . S
C831 H824 0.950 . S
C831 C828 1.387 . S
C832 C833 1.387 . S
C832 H836 0.950 . S
C832 C841 1.390 . S
C833 C832 1.387 . S
C833 C835 1.387 . S
H834 C841 0.950 . S
C835 C833 1.387 . S
C835 C837 1.390 . S
C835 H839 0.950 . S
H836 C832 0.950 . S
C837 C835 1.390 . S
C837 C838 1.387 . S
C837 H840 0.950 . S
C838 C837 1.387 . S
C838 C841 1.387 . S
H839 C835 0.950 . S
H840 C837 0.950 . S
C841 C832 1.390 . S
C841 H834 0.950 . S
C841 C838 1.387 . S
C842 C843 1.387 . S
C842 H846 0.950 . S
C842 C851 1.390 . S
C843 C842 1.387 . S
C843 C845 1.387 . S
H844 C851 0.950 . S
C845 C843 1.387 . S
C845 C847 1.390 . S
C845 H849 0.950 . S
H846 C842 0.950 . S
C847 C845 1.390 . S
C847 C848 1.387 . S
C847 H850 0.950 . S
C848 C847 1.387 . S
C848 C851 1.387 . S
H849 C845 0.950 . S
H850 C847 0.950 . S
C851 C842 1.390 . S
C851 H844 0.950 . S
C851 C848 1.387 . S
C852 C853 1.387 . S
C852 H856 0.950 . S
C852 C861 1.390 . S
C853 C852 1.387 . S
C853 C855 1.387 . S
H854 C861 0.950 . S
C855 C853 1.387 . S
C855 C857 1.390 . S
C855 H859 0.950 . S
H856 C852 0.950 . S
C857 C855 1.390 . S
C857 C858 1.387 . S
C857 H860 0.950 . S
C858 C857 1.387 . S
C858 C861 1.387 . S
H859 C855 0.950 . S
H860 C857 0.950 . S
C861 C852 1.390 . S
C861 H854 0.950 . S
C861 C858 1.387 . S
C862 C863 1.387 . S
C862 H866 0.950 . S
C862 C871 1.390 . S
C863 C862 1.387 . S
C863 C865 1.387 . S
H864 C871 0.950 . S
C865 C863 1.387 . S
C865 C867 1.390 . S
C865 H869 0.950 . S
H866 C862 0.950 . S
C867 C865 1.390 . S
C867 C868 1.387 . S
C867 H870 0.950 . S
C868 C867 1.387 . S
C868 C871 1.387 . S
H869 C865 0.950 . S
H870 C867 0.950 . S
C871 C862 1.390 . S
C871 H864 0.950 . S
C871 C868 1.387 . S
C872 C873 1.387 . S
C872 H876 0.950 . S
C872 C881 1.390 . S
C873 C872 1.387 . S
C873 C875 1.387 . S
H874 C881 0.950 . S
C875 C873 1.387 . S
C875 C877 1.390 . S
C875 H879 0.950 . S
H876 C872 0.950 . S
C877 C875 1.390 . S
C877 C878 1.387 . S
C877 H880 0.950 . S
C878 C877 1.387 . S
C878 C881 1.387 . S
H879 C875 0.950 . S
H880 C877 0.950 . S
C881 C872 1.390 . S
C881 H874 0.950 . S
C881 C878 1.387 . S
C882 C883 1.387 . S
C882 H886 0.950 . S
C882 C891 1.390 . S
C883 C882 1.387 . S
C883 C885 1.387 . S
H884 C891 0.950 . S
C885 C883 1.387 . S
C885 C887 1.390 . S
C885 H889 0.950 . S
H886 C882 0.950 . S
C887 C885 1.390 . S
C887 C888 1.387 . S
C887 H890 0.950 . S
C888 C887 1.387 . S
C888 C891 1.387 . S
H889 C885 0.950 . S
H890 C887 0.950 . S
C891 C882 1.390 . S
C891 H884 0.950 . S
C891 C888 1.387 . S
C892 C893 1.387 . S
C892 H896 0.950 . S
C892 C901 1.390 . S
C893 C892 1.387 . S
C893 C895 1.387 . S
H894 C901 0.950 . S
C895 C893 1.387 . S
C895 C897 1.390 . S
C895 H899 0.950 . S
H896 C892 0.950 . S
C897 C895 1.390 . S
C897 C898 1.387 . S
C897 H900 0.950 . S
C898 C897 1.387 . S
C898 C901 1.387 . S
H899 C895 0.950 . S
H900 C897 0.950 . S
C901 C892 1.390 . S
C901 H894 0.950 . S
C901 C898 1.387 . S
C902 C903 1.387 . S
C902 H906 0.950 . S
C902 C911 1.390 . S
C903 C902 1.387 . S
C903 C905 1.387 . S
H904 C911 0.950 . S
C905 C903 1.387 . S
C905 C907 1.390 . S
C905 H909 0.950 . S
H906 C902 0.950 . S
C907 C905 1.390 . S
C907 C908 1.387 . S
C907 H910 0.950 . S
C908 C907 1.387 . S
C908 C911 1.387 . S
H909 C905 0.950 . S
H910 C907 0.950 . S
C911 C902 1.390 . S
C911 H904 0.950 . S
C911 C908 1.387 . S
C912 C913 1.387 . S
C912 H916 0.950 . S
C912 C921 1.390 . S
C913 C912 1.387 . S
C913 C915 1.387 . S
H914 C921 0.950 . S
C915 C913 1.387 . S
C915 C917 1.390 . S
C915 H919 0.950 . S
H916 C912 0.950 . S
C917 C915 1.390 . S
C917 C918 1.387 . S
C917 H920 0.950 . S
C918 C917 1.387 . S
C918 C921 1.387 . S
H919 C915 0.950 . S
H920 C917 0.950 . S
C921 C912 1.390 . S
C921 H914 0.950 . S
C921 C918 1.387 . S
C922 C923 1.387 . S
C922 H926 0.950 . S
C922 C931 1.390 . S
C923 C922 1.387 . S
C923 C925 1.387 . S
H924 C931 0.950 . S
C925 C923 1.387 . S
C925 C927 1.390 . S
C925 H929 0.950 . S
H926 C922 0.950 . S
C927 C925 1.390 . S
C927 C928 1.387 . S
C927 H930 0.950 . S
C928 C927 1.387 . S
C928 C931 1.387 . S
H929 C925 0.950 . S
H930 C927 0.950 . S
C931 C922 1.390 . S
C931 H924 0.950 . S
C931 C928 1.387 . S
C932 C933 1.387 . S
C932 H936 0.950 . S
C932 C941 1.390 . S
C933 C932 1.387 . S
C933 C935 1.387 . S
H934 C941 0.950 . S
C935 C933 1.387 . S
C935 C937 1.390 . S
C935 H939 0.950 . S
H936 C932 0.950 . S
C937 C935 1.390 . S
C937 C938 1.387 . S
C937 H940 0.950 1_556 S
C938 C937 1.387 . S
C938 C941 1.387 . S
H939 C935 0.950 . S
H940 C937 0.950 1_554 S
C941 C932 1.390 . S
C941 H934 0.950 . S
C941 C938 1.387 . S
C942 C943 1.387 . S
C942 H946 0.950 . S
C942 C951 1.390 . S
C943 C942 1.387 . S
C943 C945 1.387 . S
H944 C951 0.950 . S
C945 C943 1.387 . S
C945 C947 1.390 . S
C945 H949 0.950 . S
H946 C942 0.950 . S
C947 C945 1.390 . S
C947 C948 1.387 . S
C947 H950 0.950 . S
C948 C947 1.387 . S
C948 C951 1.387 . S
H949 C945 0.950 . S
H950 C947 0.950 . S
C951 C942 1.390 . S
C951 H944 0.950 . S
C951 C948 1.387 . S
C952 C953 1.397 . S
C952 H956 0.941 1_545 S
C952 C961 1.389 1_545 S
C953 C952 1.397 . S
C953 C955 1.387 . S
H954 C961 0.950 . S
C955 C953 1.387 . S
C955 C957 1.390 . S
C955 H959 0.950 . S
H956 C952 0.941 1_565 S
C957 C955 1.390 . S
C957 C958 1.387 . S
C957 H960 0.950 . S
C958 C957 1.387 . S
C958 C961 1.387 1_545 S
H959 C955 0.950 . S
H960 C957 0.950 . S
C961 C952 1.389 1_565 S
C961 H954 0.950 . S
C961 C958 1.387 1_565 S
C962 C963 1.387 . S
C962 H966 0.950 . S
C962 C971 1.390 . S
C963 C962 1.387 . S
C963 C965 1.387 . S
H964 C971 0.950 . S
C965 C963 1.387 . S
C965 C967 1.390 . S
C965 H969 0.950 . S
H966 C962 0.950 . S
C967 C965 1.390 . S
C967 C968 1.387 . S
C967 H970 0.950 . S
C968 C967 1.387 . S
C968 C971 1.387 . S
H969 C965 0.950 . S
H970 C967 0.950 . S
C971 C962 1.390 . S
C971 H964 0.950 . S
C971 C968 1.387 . S
C972 C973 1.387 . S
C972 H976 0.950 . S
C972 C981 1.390 . S
C973 C972 1.387 . S
C973 C975 1.387 . S
H974 C981 0.950 . S
C975 C973 1.387 . S
C975 C977 1.390 1_545 S
C975 H979 0.950 1_545 S
H976 C972 0.950 . S
C977 C975 1.390 1_565 S
C977 C978 1.387 1_565 S
C977 H980 0.950 . S
C978 C977 1.387 1_545 S
C978 C981 1.387 . S
H979 C975 0.950 1_565 S
H980 C977 0.950 . S
C981 C972 1.390 . S
C981 H974 0.950 . S
C981 C978 1.387 . S
C982 C983 1.387 . S
C982 H986 0.950 . S
C982 C991 1.390 . S
C983 C982 1.387 . S
C983 C985 1.387 . S
H984 C991 0.950 . S
C985 C983 1.387 . S
C985 C987 1.390 . S
C985 H989 0.950 . S
H986 C982 0.950 . S
C987 C985 1.390 . S
C987 C988 1.387 . S
C987 H990 0.950 . S
C988 C987 1.387 . S
C988 C991 1.387 . S
H989 C985 0.950 . S
H990 C987 0.950 . S
C991 C982 1.390 . S
C991 H984 0.950 . S
C991 C988 1.387 . S
C992 C993 1.387 1_565 S
C992 H996 0.950 . S
C992 C1001 1.390 . S
C993 C992 1.387 1_545 S
C993 C995 1.387 . S
H994 C1001 0.950 . S
C995 C993 1.387 . S
C995 C997 1.390 . S
C995 H999 0.950 . S
H996 C992 0.950 . S
C997 C995 1.390 . S
C997 C998 1.387 . S
C997 H1000 0.950 . S
C998 C997 1.387 . S
C998 C1001 1.387 1_545 S
H999 C995 0.950 . S
H1000 C997 0.950 . S
C1001 C992 1.390 . S
C1001 H994 0.950 . S
C1001 C998 1.387 1_565 S
C1002 C1003 1.387 . S
C1002 H1006 0.950 . S
C1002 C1011 1.390 . S
C1003 C1002 1.387 . S
C1003 C1005 1.387 . S
H1004 C1011 0.950 . S
C1005 C1003 1.387 . S
C1005 C1007 1.390 . S
C1005 H1009 0.950 . S
H1006 C1002 0.950 . S
C1007 C1005 1.390 . S
C1007 C1008 1.387 . S
C1007 H1010 0.950 . S
C1008 C1007 1.387 . S
C1008 C1011 1.387 . S
H1009 C1005 0.950 . S
H1010 C1007 0.950 . S
C1011 C1002 1.390 . S
C1011 H1004 0.950 . S
C1011 C1008 1.387 . S
C1012 C1013 1.387 . S
C1012 H1016 0.950 . S
C1012 C1021 1.390 . S
C1013 C1012 1.387 . S
C1013 C1015 1.387 . S
H1014 C1021 0.950 . S
C1015 C1013 1.387 . S
C1015 C1017 1.390 . S
C1015 H1019 0.950 . S
H1016 C1012 0.950 . S
C1017 C1015 1.390 . S
C1017 C1018 1.387 . S
C1017 H1020 0.950 . S
C1018 C1017 1.387 . S
C1018 C1021 1.387 . S
H1019 C1015 0.950 . S
H1020 C1017 0.950 . S
C1021 C1012 1.390 . S
C1021 H1014 0.950 . S
C1021 C1018 1.387 . S
C1022 C1023 1.387 . S
C1022 H1026 0.950 . S
C1022 C1031 1.390 . S
C1023 C1022 1.387 . S
C1023 C1025 1.387 . S
H1024 C1031 0.950 . S
C1025 C1023 1.387 . S
C1025 C1027 1.390 . S
C1025 H1029 0.950 . S
H1026 C1022 0.950 . S
C1027 C1025 1.390 . S
C1027 C1028 1.387 . S
C1027 H1030 0.950 . S
C1028 C1027 1.387 . S
C1028 C1031 1.387 . S
H1029 C1025 0.950 . S
H1030 C1027 0.950 . S
C1031 C1022 1.390 . S
C1031 H1024 0.950 . S
C1031 C1028 1.387 . S
C1032 C1033 1.387 . S
C1032 H1036 0.950 . S
C1032 C1041 1.390 . S
C1033 C1032 1.387 . S
C1033 C1035 1.387 . S
H1034 C1041 0.950 . S
C1035 C1033 1.387 . S
C1035 C1037 1.390 . S
C1035 H1039 0.950 . S
H1036 C1032 0.950 . S
C1037 C1035 1.390 . S
C1037 C1038 1.387 . S
C1037 H1040 0.950 1_554 S
C1038 C1037 1.387 . S
C1038 C1041 1.387 . S
H1039 C1035 0.950 . S
H1040 C1037 0.950 1_556 S
C1041 C1032 1.390 . S
C1041 H1034 0.950 . S
C1041 C1038 1.387 . S
C1042 C1043 1.387 . S
C1042 H1046 0.950 . S
C1042 C1051 1.390 . S
C1043 C1042 1.387 . S
C1043 C1045 1.387 . S
H1044 C1051 0.950 1_556 S
C1045 C1043 1.387 . S
C1045 C1047 1.390 . S
C1045 H1049 0.950 . S
H1046 C1042 0.950 . S
C1047 C1045 1.390 . S
C1047 C1048 1.387 . S
C1047 H1050 0.950 . S
C1048 C1047 1.387 . S
C1048 C1051 1.387 . S
H1049 C1045 0.950 . S
H1050 C1047 0.950 . S
C1051 C1042 1.390 . S
C1051 H1044 0.950 1_554 S
C1051 C1048 1.387 . S
C1052 C1053 1.387 . S
C1052 H1056 0.950 . S
C1052 C1061 1.390 . S
C1053 C1052 1.387 . S
C1053 C1055 1.387 . S
H1054 C1061 0.950 . S
C1055 C1053 1.387 . S
C1055 C1057 1.390 . S
C1055 H1059 0.950 . S
H1056 C1052 0.950 . S
C1057 C1055 1.390 . S
C1057 C1058 1.387 . S
C1057 H1060 0.950 . S
C1058 C1057 1.387 . S
C1058 C1061 1.387 . S
H1059 C1055 0.950 . S
H1060 C1057 0.950 . S
C1061 C1052 1.390 . S
C1061 H1054 0.950 . S
C1061 C1058 1.387 . S
C1062 C1063 1.387 . S
C1062 H1066 0.950 . S
C1062 C1071 1.390 . S
C1063 C1062 1.387 . S
C1063 C1065 1.387 . S
H1064 C1071 0.950 . S
C1065 C1063 1.387 . S
C1065 C1067 1.390 . S
C1065 H1069 0.950 . S
H1066 C1062 0.950 . S
C1067 C1065 1.390 . S
C1067 C1068 1.387 . S
C1067 H1070 0.950 . S
C1068 C1067 1.387 . S
C1068 C1071 1.387 . S
H1069 C1065 0.950 . S
H1070 C1067 0.950 . S
C1071 C1062 1.390 . S
C1071 H1064 0.950 . S
C1071 C1068 1.387 . S
C1072 C1073 1.387 . S
C1072 H1076 0.950 . S
C1072 C1081 1.390 . S
C1073 C1072 1.387 . S
C1073 C1075 1.387 . S
H1074 C1081 0.950 . S
C1075 C1073 1.387 . S
C1075 C1077 1.390 . S
C1075 H1079 0.950 . S
H1076 C1072 0.950 . S
C1077 C1075 1.390 . S
C1077 C1078 1.387 . S
C1077 H1080 0.950 . S
C1078 C1077 1.387 . S
C1078 C1081 1.387 . S
H1079 C1075 0.950 . S
H1080 C1077 0.950 . S
C1081 C1072 1.390 . S
C1081 H1074 0.950 . S
C1081 C1078 1.387 . S
C1082 C1083 1.387 . S
C1082 H1086 0.950 . S
C1082 C1091 1.390 . S
C1083 C1082 1.387 . S
C1083 C1085 1.387 . S
H1084 C1091 0.950 . S
C1085 C1083 1.387 . S
C1085 C1087 1.390 . S
C1085 H1089 0.950 . S
H1086 C1082 0.950 . S
C1087 C1085 1.390 . S
C1087 C1088 1.387 . S
C1087 H1090 0.950 . S
C1088 C1087 1.387 . S
C1088 C1091 1.387 . S
H1089 C1085 0.950 . S
H1090 C1087 0.950 . S
C1091 C1082 1.390 . S
C1091 H1084 0.950 . S
C1091 C1088 1.387 . S
C1092 C1093 1.387 . S
C1092 H1096 0.950 . S
C1092 C1101 1.390 . S
C1093 C1092 1.387 . S
C1093 C1095 1.387 . S
H1094 C1101 0.950 . S
C1095 C1093 1.387 . S
C1095 C1097 1.390 . S
C1095 H1099 0.950 . S
H1096 C1092 0.950 . S
C1097 C1095 1.390 . S
C1097 C1098 1.387 . S
C1097 H1100 0.950 . S
C1098 C1097 1.387 . S
C1098 C1101 1.387 . S
H1099 C1095 0.950 . S
H1100 C1097 0.950 . S
C1101 C1092 1.390 . S
C1101 H1094 0.950 . S
C1101 C1098 1.387 . S
C1102 C1103 1.387 . S
C1102 H1106 0.950 . S
C1102 C1111 1.390 . S
C1103 C1102 1.387 . S
C1103 C1105 1.387 . S
H1104 C1111 0.950 . S
C1105 C1103 1.387 . S
C1105 C1107 1.390 . S
C1105 H1109 0.950 . S
H1106 C1102 0.950 . S
C1107 C1105 1.390 . S
C1107 C1108 1.387 . S
C1107 H1110 0.950 . S
C1108 C1107 1.387 . S
C1108 C1111 1.387 . S
H1109 C1105 0.950 . S
H1110 C1107 0.950 . S
C1111 C1102 1.390 . S
C1111 H1104 0.950 . S
C1111 C1108 1.387 . S
C1112 C1113 1.387 . S
C1112 H1116 0.950 . S
C1112 C1121 1.390 . S
C1113 C1112 1.387 . S
C1113 C1115 1.387 . S
H1114 C1121 0.950 . S
C1115 C1113 1.387 . S
C1115 C1117 1.390 . S
C1115 H1119 0.950 . S
H1116 C1112 0.950 . S
C1117 C1115 1.390 . S
C1117 C1118 1.387 . S
C1117 H1120 0.950 . S
C1118 C1117 1.387 . S
C1118 C1121 1.387 . S
H1119 C1115 0.950 . S
H1120 C1117 0.950 . S
C1121 C1112 1.390 . S
C1121 H1114 0.950 . S
C1121 C1118 1.387 . S
C1122 C1123 1.387 . S
C1122 H1126 0.950 . S
C1122 C1131 1.390 . S
C1123 C1122 1.387 . S
C1123 C1125 1.387 . S
H1124 C1131 0.950 . S
C1125 C1123 1.387 . S
C1125 C1127 1.390 . S
C1125 H1129 0.950 . S
H1126 C1122 0.950 . S
C1127 C1125 1.390 . S
C1127 C1128 1.387 . S
C1127 H1130 0.950 . S
C1128 C1127 1.387 . S
C1128 C1131 1.387 . S
H1129 C1125 0.950 . S
H1130 C1127 0.950 . S
C1131 C1122 1.390 . S
C1131 H1124 0.950 . S
C1131 C1128 1.387 . S
C1132 C1133 1.387 . S
C1132 H1136 0.950 . S
C1132 C1141 1.390 . S
C1133 C1132 1.387 . S
C1133 C1135 1.387 1_455 S
H1134 C1141 0.950 . S
C1135 C1133 1.387 1_655 S
C1135 C1137 1.390 . S
C1135 H1139 0.950 . S
H1136 C1132 0.950 . S
C1137 C1135 1.390 . S
C1137 C1138 1.390 . S
C1137 H1140 0.950 1_556 S
C1138 C1137 1.390 . S
C1138 C1141 1.384 1_655 S
H1139 C1135 0.950 . S
H1140 C1137 0.950 1_554 S
C1141 C1132 1.390 . S
C1141 H1134 0.950 . S
C1141 C1138 1.384 1_455 S
C1142 C1143 1.387 . S
C1142 H1146 0.950 . S
C1142 C1151 1.390 . S
C1143 C1142 1.387 . S
C1143 C1145 1.387 . S
H1144 C1151 0.950 . S
C1145 C1143 1.387 . S
C1145 C1147 1.390 . S
C1145 H1149 0.950 . S
H1146 C1142 0.950 . S
C1147 C1145 1.390 . S
C1147 C1148 1.387 . S
C1147 H1150 0.950 . S
C1148 C1147 1.387 . S
C1148 C1151 1.387 . S
H1149 C1145 0.950 . S
H1150 C1147 0.950 . S
C1151 C1142 1.390 . S
C1151 H1144 0.950 . S
C1151 C1148 1.387 . S
C1152 C1153 1.387 . S
C1152 H1156 0.950 . S
C1152 C1161 1.390 . S
C1153 C1152 1.387 . S
C1153 C1155 1.387 . S
H1154 C1161 0.950 . S
C1155 C1153 1.387 . S
C1155 C1157 1.390 . S
C1155 H1159 0.950 . S
H1156 C1152 0.950 . S
C1157 C1155 1.390 . S
C1157 C1158 1.387 . S
C1157 H1160 0.950 . S
C1158 C1157 1.387 . S
C1158 C1161 1.387 . S
H1159 C1155 0.950 . S
H1160 C1157 0.950 . S
C1161 C1152 1.390 . S
C1161 H1154 0.950 . S
C1161 C1158 1.387 . S
C1162 C1163 1.387 . S
C1162 H1166 0.950 . S
C1162 C1171 1.390 . S
C1163 C1162 1.387 . S
C1163 C1165 1.387 . S
H1164 C1171 0.950 . S
C1165 C1163 1.387 . S
C1165 C1167 1.390 . S
C1165 H1169 0.950 . S
H1166 C1162 0.950 . S
C1167 C1165 1.390 . S
C1167 C1168 1.387 . S
C1167 H1170 0.950 . S
C1168 C1167 1.387 . S
C1168 C1171 1.387 . S
H1169 C1165 0.950 . S
H1170 C1167 0.950 . S
C1171 C1162 1.390 . S
C1171 H1164 0.950 . S
C1171 C1168 1.387 . S
C1172 C1173 1.387 . S
C1172 H1176 0.950 . S
C1172 C1181 1.390 . S
C1173 C1172 1.387 . S
C1173 C1175 1.387 1_655 S
H1174 C1181 0.950 . S
C1175 C1173 1.387 1_455 S
C1175 C1177 1.390 . S
C1175 H1179 0.950 . S
H1176 C1172 0.950 . S
C1177 C1175 1.390 . S
C1177 C1178 1.387 . S
C1177 H1180 0.950 . S
C1178 C1177 1.387 . S
C1178 C1181 1.387 1_455 S
H1179 C1175 0.950 . S
H1180 C1177 0.950 . S
C1181 C1172 1.390 . S
C1181 H1174 0.950 . S
C1181 C1178 1.387 1_655 S
C1182 C1183 1.387 . S
C1182 H1186 0.950 . S
C1182 C1191 1.390 . S
C1183 C1182 1.387 . S
C1183 C1185 1.387 . S
H1184 C1191 0.950 . S
C1185 C1183 1.387 . S
C1185 C1187 1.390 . S
C1185 H1189 0.950 . S
H1186 C1182 0.950 . S
C1187 C1185 1.390 . S
C1187 C1188 1.387 . S
C1187 H1190 0.950 . S
C1188 C1187 1.387 . S
C1188 C1191 1.387 . S
H1189 C1185 0.950 . S
H1190 C1187 0.950 . S
C1191 C1182 1.390 . S
C1191 H1184 0.950 . S
C1191 C1188 1.387 . S
C1192 C1193 1.387 . S
C1192 H1196 0.950 . S
C1192 C1201 1.390 . S
C1193 C1192 1.387 . S
C1193 C1195 1.387 . S
H1194 C1201 0.950 . S
C1195 C1193 1.387 . S
C1195 C1197 1.390 . S
C1195 H1199 0.950 . S
H1196 C1192 0.950 . S
C1197 C1195 1.390 . S
C1197 C1198 1.387 . S
C1197 H1200 0.950 . S
C1198 C1197 1.387 . S
C1198 C1201 1.387 . S
H1199 C1195 0.950 . S
H1200 C1197 0.950 . S
C1201 C1192 1.390 . S
C1201 H1194 0.950 . S
C1201 C1198 1.387 . S
C1202 C1203 1.387 . S
C1202 H1206 0.950 . S
C1202 C1211 1.390 . S
C1203 C1202 1.387 . S
C1203 C1205 1.387 . S
H1204 C1211 0.950 . S
C1205 C1203 1.387 . S
C1205 C1207 1.390 . S
C1205 H1209 0.950 . S
H1206 C1202 0.950 . S
C1207 C1205 1.390 . S
C1207 C1208 1.387 . S
C1207 H1210 0.950 . S
C1208 C1207 1.387 . S
C1208 C1211 1.387 . S
H1209 C1205 0.950 . S
H1210 C1207 0.950 . S
C1211 C1202 1.390 . S
C1211 H1204 0.950 . S
C1211 C1208 1.387 . S
C1212 C1213 1.387 . S
C1212 H1216 0.950 . S
C1212 C1221 1.390 . S
C1213 C1212 1.387 . S
C1213 C1215 1.387 . S
H1214 C1221 0.950 . S
C1215 C1213 1.387 . S
C1215 C1217 1.390 . S
C1215 H1219 0.950 . S
H1216 C1212 0.950 . S
C1217 C1215 1.390 . S
C1217 C1218 1.387 . S
C1217 H1220 0.950 . S
C1218 C1217 1.387 . S
C1218 C1221 1.387 . S
H1219 C1215 0.950 . S
H1220 C1217 0.950 . S
C1221 C1212 1.390 . S
C1221 H1214 0.950 . S
C1221 C1218 1.387 . S
C1222 C1223 1.387 . S
C1222 H1226 0.950 . S
C1222 C1231 1.390 . S
C1223 C1222 1.387 . S
C1223 C1225 1.387 . S
H1224 C1231 0.950 . S
C1225 C1223 1.387 . S
C1225 C1227 1.390 . S
C1225 H1229 0.950 . S
H1226 C1222 0.950 . S
C1227 C1225 1.390 . S
C1227 C1228 1.387 . S
C1227 H1230 0.950 . S
C1228 C1227 1.387 . S
C1228 C1231 1.387 . S
H1229 C1225 0.950 . S
H1230 C1227 0.950 . S
C1231 C1222 1.390 . S
C1231 H1224 0.950 . S
C1231 C1228 1.387 . S
C1232 C1233 1.387 . S
C1232 H1236 0.950 . S
C1232 C1241 1.390 . S
C1233 C1232 1.387 . S
C1233 C1235 1.387 . S
H1234 C1241 0.950 . S
C1235 C1233 1.387 . S
C1235 C1237 1.390 . S
C1235 H1239 0.950 . S
H1236 C1232 0.950 . S
C1237 C1235 1.390 . S
C1237 C1238 1.387 . S
C1237 H1240 0.950 . S
C1238 C1237 1.387 . S
C1238 C1241 1.387 . S
H1239 C1235 0.950 . S
H1240 C1237 0.950 . S
C1241 C1232 1.390 . S
C1241 H1234 0.950 . S
C1241 C1238 1.387 . S
C1242 C1243 1.387 . S
C1242 H1246 0.950 . S
C1242 C1251 1.390 . S
C1243 C1242 1.387 . S
C1243 C1245 1.387 . S
H1244 C1251 0.950 . S
C1245 C1243 1.387 . S
C1245 C1247 1.390 . S
C1245 H1249 0.950 . S
H1246 C1242 0.950 . S
C1247 C1245 1.390 . S
C1247 C1248 1.387 . S
C1247 H1250 0.950 . S
C1248 C1247 1.387 . S
C1248 C1251 1.387 . S
H1249 C1245 0.950 . S
H1250 C1247 0.950 . S
C1251 C1242 1.390 . S
C1251 H1244 0.950 . S
C1251 C1248 1.387 . S
C1252 C1253 1.387 . S
C1252 H1256 0.950 . S
C1252 C1261 1.390 . S
C1253 C1252 1.387 . S
C1253 C1255 1.387 . S
H1254 C1261 0.950 . S
C1255 C1253 1.387 . S
C1255 C1257 1.390 . S
C1255 H1259 0.950 . S
H1256 C1252 0.950 . S
C1257 C1255 1.390 . S
C1257 C1258 1.387 . S
C1257 H1260 0.950 . S
C1258 C1257 1.387 . S
C1258 C1261 1.387 . S
H1259 C1255 0.950 . S
H1260 C1257 0.950 . S
C1261 C1252 1.390 . S
C1261 H1254 0.950 . S
C1261 C1258 1.387 . S
C1262 C1263 1.387 . S
C1262 H1266 0.950 . S
C1262 C1271 1.390 . S
C1263 C1262 1.387 . S
C1263 C1265 1.387 . S
H1264 C1271 0.950 . S
C1265 C1263 1.387 . S
C1265 C1267 1.390 . S
C1265 H1269 0.950 . S
H1266 C1262 0.950 . S
C1267 C1265 1.390 . S
C1267 C1268 1.387 . S
C1267 H1270 0.950 . S
C1268 C1267 1.387 . S
C1268 C1271 1.387 . S
H1269 C1265 0.950 . S
H1270 C1267 0.950 . S
C1271 C1262 1.390 . S
C1271 H1264 0.950 . S
C1271 C1268 1.387 . S
C1272 C1273 1.387 . S
C1272 H1276 0.950 . S
C1272 C1281 1.390 . S
C1273 C1272 1.387 . S
C1273 C1275 1.387 . S
H1274 C1281 0.950 . S
C1275 C1273 1.387 . S
C1275 C1277 1.390 . S
C1275 H1279 0.950 . S
H1276 C1272 0.950 . S
C1277 C1275 1.390 . S
C1277 C1278 1.387 . S
C1277 H1280 0.950 . S
C1278 C1277 1.387 . S
C1278 C1281 1.387 . S
H1279 C1275 0.950 . S
H1280 C1277 0.950 . S
C1281 C1272 1.390 . S
C1281 H1274 0.950 . S
C1281 C1278 1.387 . S
C1282 C1283 1.387 . S
C1282 H1286 0.950 . S
C1282 C1291 1.390 . S
C1283 C1282 1.387 . S
C1283 C1285 1.387 . S
H1284 C1291 0.950 . S
C1285 C1283 1.387 . S
C1285 C1287 1.390 . S
C1285 H1289 0.950 . S
H1286 C1282 0.950 . S
C1287 C1285 1.390 . S
C1287 C1288 1.387 . S
C1287 H1290 0.950 . S
C1288 C1287 1.387 . S
C1288 C1291 1.387 . S
H1289 C1285 0.950 . S
H1290 C1287 0.950 . S
C1291 C1282 1.390 . S
C1291 H1284 0.950 . S
C1291 C1288 1.387 . S
C1292 C1293 1.387 . S
C1292 H1296 0.950 . S
C1292 C1301 1.390 . S
C1293 C1292 1.387 . S
C1293 C1295 1.387 . S
H1294 C1301 0.950 . S
C1295 C1293 1.387 . S
C1295 C1297 1.390 . S
C1295 H1299 0.950 . S
H1296 C1292 0.950 . S
C1297 C1295 1.390 . S
C1297 C1298 1.387 . S
C1297 H1300 0.950 . S
C1298 C1297 1.387 . S
C1298 C1301 1.387 . S
H1299 C1295 0.950 . S
H1300 C1297 0.950 . S
C1301 C1292 1.390 . S
C1301 H1294 0.950 . S
C1301 C1298 1.387 . S
C1302 C1303 1.387 . S
C1302 H1306 0.950 . S
C1302 C1311 1.390 . S
C1303 C1302 1.387 . S
C1303 C1305 1.387 1_554 S
H1304 C1311 0.950 . S
C1305 C1303 1.387 1_556 S
C1305 C1307 1.390 . S
C1305 H1309 0.950 . S
H1306 C1302 0.950 . S
C1307 C1305 1.390 . S
C1307 C1308 1.387 1_556 S
C1307 H1310 0.950 . S
C1308 C1307 1.387 1_554 S
C1308 C1311 1.387 . S
H1309 C1305 0.950 . S
H1310 C1307 0.950 . S
C1311 C1302 1.390 . S
C1311 H1304 0.950 . S
C1311 C1308 1.387 . S
C1312 C1313 1.387 . S
C1312 H1316 0.950 . S
C1312 C1321 1.390 . S
C1313 C1312 1.387 . S
C1313 C1315 1.387 . S
H1314 C1321 0.950 . S
C1315 C1313 1.387 . S
C1315 C1317 1.390 . S
C1315 H1319 0.950 . S
H1316 C1312 0.950 . S
C1317 C1315 1.390 . S
C1317 C1318 1.387 . S
C1317 H1320 0.950 . S
C1318 C1317 1.387 . S
C1318 C1321 1.387 . S
H1319 C1315 0.950 . S
H1320 C1317 0.950 . S
C1321 C1312 1.390 . S
C1321 H1314 0.950 . S
C1321 C1318 1.387 . S
C1322 C1323 1.387 1_556 S
C1322 H1326 0.950 . S
C1322 C1331 1.390 1_556 S
C1323 C1322 1.387 1_554 S
C1323 C1325 1.387 . S
H1324 C1331 0.950 1_556 S
C1325 C1323 1.387 . S
C1325 C1327 1.390 . S
C1325 H1329 0.950 . S
H1326 C1322 0.950 . S
C1327 C1325 1.390 . S
C1327 C1328 1.387 . S
C1327 H1330 0.950 . S
C1328 C1327 1.387 . S
C1328 C1331 1.387 . S
H1329 C1325 0.950 . S
H1330 C1327 0.950 . S
C1331 C1322 1.390 1_554 S
C1331 H1324 0.950 1_554 S
C1331 C1328 1.387 . S
C1332 C1333 1.387 . S
C1332 H1336 0.950 . S
C1332 C1341 1.390 . S
C1333 C1332 1.387 . S
C1333 C1335 1.387 . S
H1334 C1341 0.950 . S
C1335 C1333 1.387 . S
C1335 C1337 1.390 . S
C1335 H1339 0.950 . S
H1336 C1332 0.950 . S
C1337 C1335 1.390 . S
C1337 C1338 1.387 . S
C1337 H1340 0.950 . S
C1338 C1337 1.387 . S
C1338 C1341 1.387 . S
H1339 C1335 0.950 . S
H1340 C1337 0.950 . S
C1341 C1332 1.390 . S
C1341 H1334 0.950 . S
C1341 C1338 1.387 . S
C1342 C1343 1.387 . S
C1342 H1346 0.950 . S
C1342 C1351 1.390 . S
C1343 C1342 1.387 . S
C1343 C1345 1.387 . S
H1344 C1351 0.950 . S
C1345 C1343 1.387 . S
C1345 C1347 1.390 . S
C1345 H1349 0.950 . S
H1346 C1342 0.950 . S
C1347 C1345 1.390 . S
C1347 C1348 1.387 . S
C1347 H1350 0.950 . S
C1348 C1347 1.387 . S
C1348 C1351 1.387 . S
H1349 C1345 0.950 . S
H1350 C1347 0.950 . S
C1351 C1342 1.390 . S
C1351 H1344 0.950 . S
C1351 C1348 1.387 . S
C1352 C1353 1.387 . S
C1352 H1356 0.950 . S
C1352 C1361 1.390 . S
C1353 C1352 1.387 . S
C1353 C1355 1.387 . S
H1354 C1361 0.950 . S
C1355 C1353 1.387 . S
C1355 C1357 1.390 . S
C1355 H1359 0.950 . S
H1356 C1352 0.950 . S
C1357 C1355 1.390 . S
C1357 C1358 1.387 . S
C1357 H1360 0.950 . S
C1358 C1357 1.387 . S
C1358 C1361 1.387 . S
H1359 C1355 0.950 . S
H1360 C1357 0.950 . S
C1361 C1352 1.390 . S
C1361 H1354 0.950 . S
C1361 C1358 1.387 . S
C1362 C1363 1.387 . S
C1362 H1366 0.950 . S
C1362 C1371 1.390 . S
C1363 C1362 1.387 . S
C1363 C1365 1.387 . S
H1364 C1371 0.950 . S
C1365 C1363 1.387 . S
C1365 C1367 1.390 . S
C1365 H1369 0.950 . S
H1366 C1362 0.950 . S
C1367 C1365 1.390 . S
C1367 C1368 1.387 . S
C1367 H1370 0.950 . S
C1368 C1367 1.387 . S
C1368 C1371 1.387 . S
H1369 C1365 0.950 . S
H1370 C1367 0.950 . S
C1371 C1362 1.390 . S
C1371 H1364 0.950 . S
C1371 C1368 1.387 . S
C1372 C1373 1.387 . S
C1372 H1376 0.950 1_455 S
C1372 C1381 1.390 . S
C1373 C1372 1.387 . S
C1373 C1375 1.387 . S
H1374 C1381 0.950 1_655 S
C1375 C1373 1.387 . S
C1375 C1377 1.390 . S
C1375 H1379 0.950 . S
H1376 C1372 0.950 1_655 S
C1377 C1375 1.390 . S
C1377 C1378 1.387 . S
C1377 H1380 0.950 . S
C1378 C1377 1.387 . S
C1378 C1381 1.387 . S
H1379 C1375 0.950 . S
H1380 C1377 0.950 . S
C1381 C1372 1.390 . S
C1381 H1374 0.950 1_455 S
C1381 C1378 1.387 . S
C1382 C1383 1.387 . S
C1382 H1386 0.950 . S
C1382 C1391 1.390 . S
C1383 C1382 1.387 . S
C1383 C1385 1.387 . S
H1384 C1391 0.950 . S
C1385 C1383 1.387 . S
C1385 C1387 1.390 . S
C1385 H1389 0.950 . S
H1386 C1382 0.950 . S
C1387 C1385 1.390 . S
C1387 C1388 1.387 . S
C1387 H1390 0.950 . S
C1388 C1387 1.387 . S
C1388 C1391 1.387 . S
H1389 C1385 0.950 . S
H1390 C1387 0.950 . S
C1391 C1382 1.390 . S
C1391 H1384 0.950 . S
C1391 C1388 1.387 . S
C1392 C1393 1.387 . S
C1392 H1396 0.950 . S
C1392 C1401 1.390 . S
C1393 C1392 1.387 . S
C1393 C1395 1.387 . S
H1394 C1401 0.950 . S
C1395 C1393 1.387 . S
C1395 C1397 1.390 . S
C1395 H1399 0.950 . S
H1396 C1392 0.950 . S
C1397 C1395 1.390 . S
C1397 C1398 1.387 . S
C1397 H1400 0.950 . S
C1398 C1397 1.387 . S
C1398 C1401 1.387 . S
H1399 C1395 0.950 . S
H1400 C1397 0.950 . S
C1401 C1392 1.390 . S
C1401 H1394 0.950 . S
C1401 C1398 1.387 . S
C1402 C1403 1.387 . S
C1402 H1406 0.950 . S
C1402 C1411 1.390 . S
C1403 C1402 1.387 . S
C1403 C1405 1.387 . S
H1404 C1411 0.950 . S
C1405 C1403 1.387 . S
C1405 C1407 1.390 . S
C1405 H1409 0.950 . S
H1406 C1402 0.950 . S
C1407 C1405 1.390 . S
C1407 C1408 1.387 . S
C1407 H1410 0.950 . S
C1408 C1407 1.387 . S
C1408 C1411 1.387 . S
H1409 C1405 0.950 . S
H1410 C1407 0.950 . S
C1411 C1402 1.390 . S
C1411 H1404 0.950 . S
C1411 C1408 1.387 . S
C1412 C1413 1.411 . S
C1412 H1416 0.934 1_455 S
C1412 C1421 1.383 1_455 S
C1413 C1412 1.411 . S
C1413 C1415 1.387 . S
H1414 C1421 0.950 . S
C1415 C1413 1.387 . S
C1415 C1417 1.390 . S
C1415 H1419 0.950 . S
H1416 C1412 0.934 1_655 S
C1417 C1415 1.390 . S
C1417 C1418 1.387 . S
C1417 H1420 0.950 . S
C1418 C1417 1.387 . S
C1418 C1421 1.387 1_455 S
H1419 C1415 0.950 . S
H1420 C1417 0.950 . S
C1421 C1412 1.383 1_655 S
C1421 H1414 0.950 . S
C1421 C1418 1.387 1_655 S
C1422 C1423 1.387 . S
C1422 H1426 0.950 . S
C1422 C1431 1.390 . S
C1423 C1422 1.387 . S
C1423 C1425 1.387 . S
H1424 C1431 0.950 . S
C1425 C1423 1.387 . S
C1425 C1427 1.390 . S
C1425 H1429 0.950 . S
H1426 C1422 0.950 . S
C1427 C1425 1.390 . S
C1427 C1428 1.387 . S
C1427 H1430 0.950 . S
C1428 C1427 1.387 . S
C1428 C1431 1.387 . S
H1429 C1425 0.950 . S
H1430 C1427 0.950 . S
C1431 C1422 1.390 . S
C1431 H1424 0.950 . S
C1431 C1428 1.387 . S
C1432 C1433 1.387 . S
C1432 H1436 0.950 . S
C1432 C1441 1.390 . S
C1433 C1432 1.387 . S
C1433 C1435 1.387 . S
H1434 C1441 0.950 . S
C1435 C1433 1.387 . S
C1435 C1437 1.390 . S
C1435 H1439 0.950 . S
H1436 C1432 0.950 . S
C1437 C1435 1.390 . S
C1437 C1438 1.387 . S
C1437 H1440 0.950 . S
C1438 C1437 1.387 . S
C1438 C1441 1.387 . S
H1439 C1435 0.950 . S
H1440 C1437 0.950 . S
C1441 C1432 1.390 . S
C1441 H1434 0.950 . S
C1441 C1438 1.387 . S
C1442 C1443 1.387 . S
C1442 H1446 0.950 . S
C1442 C1451 1.390 . S
C1443 C1442 1.387 . S
C1443 C1445 1.387 . S
H1444 C1451 0.950 . S
C1445 C1443 1.387 . S
C1445 C1447 1.390 . S
C1445 H1449 0.950 . S
H1446 C1442 0.950 . S
C1447 C1445 1.390 . S
C1447 C1448 1.387 . S
C1447 H1450 0.950 . S
C1448 C1447 1.387 . S
C1448 C1451 1.387 . S
H1449 C1445 0.950 . S
H1450 C1447 0.950 . S
C1451 C1442 1.390 . S
C1451 H1444 0.950 . S
C1451 C1448 1.387 . S
C1452 C1453 1.387 . S
C1452 H1456 0.950 . S
C1452 C1461 1.390 . S
C1453 C1452 1.387 . S
C1453 C1455 1.387 . S
H1454 C1461 0.950 . S
C1455 C1453 1.387 . S
C1455 C1457 1.390 . S
C1455 H1459 0.950 . S
H1456 C1452 0.950 . S
C1457 C1455 1.390 . S
C1457 C1458 1.387 . S
C1457 H1460 0.950 . S
C1458 C1457 1.387 . S
C1458 C1461 1.387 . S
H1459 C1455 0.950 . S
H1460 C1457 0.950 . S
C1461 C1452 1.390 . S
C1461 H1454 0.950 . S
C1461 C1458 1.387 . S
C1462 C1463 1.387 . S
C1462 H1466 0.950 . S
C1462 C1471 1.390 . S
C1463 C1462 1.387 . S
C1463 C1465 1.387 . S
H1464 C1471 0.950 . S
C1465 C1463 1.387 . S
C1465 C1467 1.390 . S
C1465 H1469 0.950 . S
H1466 C1462 0.950 . S
C1467 C1465 1.390 . S
C1467 C1468 1.387 . S
C1467 H1470 0.950 . S
C1468 C1467 1.387 . S
C1468 C1471 1.387 . S
H1469 C1465 0.950 . S
H1470 C1467 0.950 . S
C1471 C1462 1.390 . S
C1471 H1464 0.950 . S
C1471 C1468 1.387 . S
C1472 C1473 1.387 . S
C1472 H1476 0.950 . S
C1472 C1481 1.390 . S
C1473 C1472 1.387 . S
C1473 C1475 1.387 . S
H1474 C1481 0.950 . S
C1475 C1473 1.387 . S
C1475 C1477 1.390 . S
C1475 H1479 0.950 . S
H1476 C1472 0.950 . S
C1477 C1475 1.390 . S
C1477 C1478 1.387 . S
C1477 H1480 0.950 . S
C1478 C1477 1.387 . S
C1478 C1481 1.387 . S
H1479 C1475 0.950 . S
H1480 C1477 0.950 . S
C1481 C1472 1.390 . S
C1481 H1474 0.950 . S
C1481 C1478 1.387 . S
C1482 C1483 1.387 . S
C1482 H1486 0.950 . S
C1482 C1491 1.390 . S
C1483 C1482 1.387 . S
C1483 C1485 1.387 . S
H1484 C1491 0.950 . S
C1485 C1483 1.387 . S
C1485 C1487 1.390 . S
C1485 H1489 0.950 . S
H1486 C1482 0.950 . S
C1487 C1485 1.390 . S
C1487 C1488 1.387 . S
C1487 H1490 0.950 . S
C1488 C1487 1.387 . S
C1488 C1491 1.387 . S
H1489 C1485 0.950 . S
H1490 C1487 0.950 . S
C1491 C1482 1.390 . S
C1491 H1484 0.950 . S
C1491 C1488 1.387 . S
C1492 C1493 1.387 . S
C1492 H1496 0.950 . S
C1492 C1501 1.390 . S
C1493 C1492 1.387 . S
C1493 C1495 1.387 . S
H1494 C1501 0.950 . S
C1495 C1493 1.387 . S
C1495 C1497 1.390 . S
C1495 H1499 0.950 . S
H1496 C1492 0.950 . S
C1497 C1495 1.390 . S
C1497 C1498 1.387 . S
C1497 H1500 0.950 . S
C1498 C1497 1.387 . S
C1498 C1501 1.387 . S
H1499 C1495 0.950 . S
H1500 C1497 0.950 . S
C1501 C1492 1.390 . S
C1501 H1494 0.950 . S
C1501 C1498 1.387 . S
C1502 C1503 1.387 . S
C1502 H1506 0.950 . S
C1502 C1511 1.390 . S
C1503 C1502 1.387 . S
C1503 C1505 1.387 . S
H1504 C1511 0.950 . S
C1505 C1503 1.387 . S
C1505 C1507 1.390 . S
C1505 H1509 0.950 . S
H1506 C1502 0.950 . S
C1507 C1505 1.390 . S
C1507 C1508 1.387 . S
C1507 H1510 0.950 . S
C1508 C1507 1.387 . S
C1508 C1511 1.387 . S
H1509 C1505 0.950 . S
H1510 C1507 0.950 . S
C1511 C1502 1.390 . S
C1511 H1504 0.950 . S
C1511 C1508 1.387 . S
C1512 C1513 1.387 . S
C1512 H1516 0.950 . S
C1512 C1521 1.390 . S
C1513 C1512 1.387 . S
C1513 C1515 1.387 . S
H1514 C1521 0.950 . S
C1515 C1513 1.387 . S
C1515 C1517 1.390 . S
C1515 H1519 0.950 . S
H1516 C1512 0.950 . S
C1517 C1515 1.390 . S
C1517 C1518 1.387 . S
C1517 H1520 0.950 . S
C1518 C1517 1.387 . S
C1518 C1521 1.387 . S
H1519 C1515 0.950 . S
H1520 C1517 0.950 . S
C1521 C1512 1.390 . S
C1521 H1514 0.950 . S
C1521 C1518 1.387 . S
C1522 C1523 1.387 . S
C1522 H1526 0.950 . S
C1522 C1531 1.390 . S
C1523 C1522 1.387 . S
C1523 C1525 1.387 . S
H1524 C1531 0.959 . S
C1525 C1523 1.387 . S
C1525 C1527 1.390 . S
C1525 H1529 0.950 . S
H1526 C1522 0.950 . S
C1527 C1525 1.390 . S
C1527 C1528 1.387 . S
C1527 H1530 0.950 . S
C1528 C1527 1.387 . S
C1528 C1531 1.387 . S
H1529 C1525 0.950 . S
H1530 C1527 0.950 . S
C1531 C1522 1.390 . S
C1531 H1524 0.959 . S
C1531 C1528 1.387 . S
C1532 C1533 1.387 . S
C1532 H1536 0.950 . S
C1532 C1541 1.390 . S
C1533 C1532 1.387 . S
C1533 C1535 1.387 . S
H1534 C1541 0.950 . S
C1535 C1533 1.387 . S
C1535 C1537 1.390 . S
C1535 H1539 0.950 . S
H1536 C1532 0.950 . S
C1537 C1535 1.390 . S
C1537 C1538 1.387 . S
C1537 H1540 0.950 . S
C1538 C1537 1.387 . S
C1538 C1541 1.387 . S
H1539 C1535 0.950 . S
H1540 C1537 0.950 . S
C1541 C1532 1.390 . S
C1541 H1534 0.950 . S
C1541 C1538 1.387 . S
C1542 C1543 1.387 . S
C1542 H1546 0.950 . S
C1542 C1551 1.390 . S
C1543 C1542 1.387 . S
C1543 C1545 1.387 1_554 S
H1544 C1551 0.950 . S
C1545 C1543 1.387 1_556 S
C1545 C1547 1.390 . S
C1545 H1549 0.950 . S
H1546 C1542 0.950 . S
C1547 C1545 1.390 . S
C1547 C1548 1.387 1_556 S
C1547 H1550 0.950 . S
C1548 C1547 1.387 1_554 S
C1548 C1551 1.387 . S
H1549 C1545 0.950 . S
H1550 C1547 0.950 . S
C1551 C1542 1.390 . S
C1551 H1544 0.950 . S
C1551 C1548 1.387 . S
C1552 C1553 1.387 . S
C1552 H1556 0.950 . S
C1552 C1561 1.390 . S
C1553 C1552 1.387 . S
C1553 C1555 1.387 . S
H1554 C1561 0.950 . S
C1555 C1553 1.387 . S
C1555 C1557 1.390 . S
C1555 H1559 0.950 . S
H1556 C1552 0.950 . S
C1557 C1555 1.390 . S
C1557 C1558 1.387 . S
C1557 H1560 0.950 . S
C1558 C1557 1.387 . S
C1558 C1561 1.387 . S
H1559 C1555 0.950 . S
H1560 C1557 0.950 . S
C1561 C1552 1.390 . S
C1561 H1554 0.950 . S
C1561 C1558 1.387 . S
C1562 C1563 1.387 . S
C1562 H1566 0.950 . S
C1562 C1571 1.390 . S
C1563 C1562 1.387 . S
C1563 C1565 1.387 . S
H1564 C1571 0.950 . S
C1565 C1563 1.387 . S
C1565 C1567 1.390 . S
C1565 H1569 0.950 . S
H1566 C1562 0.950 . S
C1567 C1565 1.390 . S
C1567 C1568 1.387 . S
C1567 H1570 0.950 1_554 S
C1568 C1567 1.387 . S
C1568 C1571 1.387 . S
H1569 C1565 0.950 . S
H1570 C1567 0.950 1_556 S
C1571 C1562 1.390 . S
C1571 H1564 0.950 . S
C1571 C1568 1.387 . S
C1572 C1573 1.387 . S
C1572 H1576 0.950 . S
C1572 C1581 1.390 . S
C1573 C1572 1.387 . S
C1573 C1575 1.387 . S
H1574 C1581 0.950 . S
C1575 C1573 1.387 . S
C1575 C1577 1.390 . S
C1575 H1579 0.950 . S
H1576 C1572 0.950 . S
C1577 C1575 1.390 . S
C1577 C1578 1.387 . S
C1577 H1580 0.950 . S
C1578 C1577 1.387 . S
C1578 C1581 1.387 . S
H1579 C1575 0.950 . S
H1580 C1577 0.950 . S
C1581 C1572 1.390 . S
C1581 H1574 0.950 . S
C1581 C1578 1.387 . S
C1582 C1583 1.387 . S
C1582 H1586 0.950 . S
C1582 C1591 1.390 . S
C1583 C1582 1.387 . S
C1583 C1585 1.387 . S
H1584 C1591 0.950 . S
C1585 C1583 1.387 . S
C1585 C1587 1.390 . S
C1585 H1589 0.950 . S
H1586 C1582 0.950 . S
C1587 C1585 1.390 . S
C1587 C1588 1.387 . S
C1587 H1590 0.950 . S
C1588 C1587 1.387 . S
C1588 C1591 1.387 . S
H1589 C1585 0.950 . S
H1590 C1587 0.950 . S
C1591 C1582 1.390 . S
C1591 H1584 0.950 . S
C1591 C1588 1.387 . S
C633 C101 1.653 . S
C638 C316 1.328 . S
C643 C57 1.548 . S
C648 C351 1.511 . S
C653 C70 1.214 . S
C658 C356 1.064 . S
C668 C381 1.335 . S
C663 C82 1.452 . S
C673 C23 1.451 . S
C678 C401 1.331 . S
C688 C416 1.070 . S
C683 C29 1.216 . S
C698 C451 1.502 . S
C693 C49 1.539 . S
C703 C10 1.651 . S
C708 C456 1.328 . S
C718 C331 1.653 . S
C713 C218 1.766 . S
C723 C226 1.163 . S
C728 C341 1.043 . S
C738 C371 1.449 1_565 S
C733 C251 1.490 . S
C748 C376 1.142 . S
C743 C159 1.281 . S
C753 C211 1.282 . S
C758 C396 1.148 . S
C768 C431 1.452 . S
C763 C225 1.492 . S
C778 C441 1.038 . S
C773 C252 1.160 . S
C788 C471 1.652 . S
C783 C166 1.765 . S
C798 C321 1.417 . S
C793 C147 1.689 . S
C803 C263 1.748 . S
C808 C491 1.739 . S
C818 C501 1.467 . S
C813 C309 1.636 . S
C828 C516 1.054 . S
C823 C291 1.186 . S
C833 C108 1.686 . S
C838 C461 1.412 . S
C843 C121 1.634 . S
C848 C361 1.463 . S
C853 C302 1.748 . S
C858 C551 1.740 . S
C868 C556 1.059 . S
C863 C276 1.189 . S
C878 C314 1.377 . S
C873 C55 1.588 . S
C888 C570 1.671 . S
C883 C96 1.702 . S
C893 C88 1.332 . S
C898 C354 1.219 . S
C903 C75 1.606 . S
C908 C544 1.521 . S
C918 C404 1.522 . S
C913 C4 1.605 . S
C923 C44 1.339 . S
C928 C494 1.226 . S
C938 C450 1.671 1_556 S
C933 C31 1.701 . S
C948 C574 1.383 . S
C943 C18 1.591 . S
C958 C330 1.741 . S
C953 C133 1.821 . S
C968 C564 1.226 . S
C963 C296 1.297 . S
C973 C107 1.606 . S
C978 C370 1.573 . S
C983 C264 1.443 . S
C988 C534 1.323 . S
C993 C140 1.443 . S
C998 C394 1.326 . S
C1008 C510 1.574 . S
C1003 C289 1.608 . S
C1013 C114 1.300 . S
C1018 C444 1.230 . S
C1023 C265 1.822 . S
C1028 C590 1.744 . S
C1033 C179 1.611 . S
C1038 C324 1.450 . S
C1043 C161 1.914 . S
C1048 C490 1.891 . S
C1053 C244 1.737 . S
C1058 C424 1.626 . S
C1063 C224 1.296 . S
C1068 C514 1.201 . S
C1078 C584 1.444 . S
C1073 C257 1.609 . S
C1083 C199 1.735 . S
C1088 C364 1.622 . S
C1098 C390 1.889 . S
C1093 C237 1.912 . S
C1108 C334 1.197 . S
C1103 C185 1.294 . S
C1113 C69 1.655 . S
C1118 C596 1.334 . S
C1128 C571 1.512 . S
C1123 C83 1.548 . S
C1133 C94 1.214 . S
C1138 C616 1.066 1_656 S
C1143 C56 1.451 . S
C1148 C541 1.331 . S
C1153 C42 1.460 . S
C1158 C481 1.337 . S
C1168 C496 1.070 . S
C1163 C3 1.217 . S
C1178 C531 1.511 . S
C1173 C16 1.546 . S
C1188 C576 1.333 . S
C1183 C36 1.655 . S
C1198 C611 1.652 . S
C1193 C238 1.766 . S
C1203 C174 1.162 . S
C1208 C561 1.043 . S
C1218 C631 1.449 . S
C1213 C186 1.489 . S
C1228 C536 1.146 . S
C1223 C198 1.281 . S
C1238 C476 1.147 . S
C1233 C239 1.283 . S
C1243 C173 1.491 . S
C1248 C511 1.450 . S
C1258 C521 1.039 . S
C1253 C187 1.161 . S
C1263 C205 1.765 . S
C1268 C591 1.650 . S
C1278 C601 1.415 . S
C1273 C290 1.687 . S
C1283 C122 1.748 . S
C1288 C411 1.741 . S
C1298 C421 1.468 . S
C1293 C134 1.637 . S
C1308 C436 1.053 . S
C1303 C148 1.185 . S
C1318 C581 1.409 . S
C1313 C283 1.684 . S
C1323 C270 1.633 . S
C1328 C621 1.462 . S
C1338 C391 1.741 . S
C1333 C135 1.748 . S
C1348 C336 1.058 . S
C1343 C109 1.189 . S
C1353 C81 1.590 . S
C1358 C594 1.381 . S
C1368 C350 1.671 . S
C1363 C68 1.701 . S
C1373 C62 1.332 . S
C1378 C614 1.220 . S
C1383 C95 1.605 . S
C1388 C384 1.521 . S
C1393 C30 1.606 . S
C1398 C484 1.525 . S
C1408 C414 1.215 . S
C1403 C17 1.331 . S
C1413 C5 1.701 . S
C1418 C530 1.672 . S
C1423 C43 1.586 . S
C1428 C454 1.376 . S
C1438 C610 1.741 . S
C1433 C304 1.821 . S
C1443 C153 1.294 . S
C1448 C344 1.224 . S
C1458 C630 1.573 . S
C1453 C278 1.606 . S
C1463 C127 1.442 . S
C1468 C374 1.323 . S
C1473 C303 1.439 . S
C1478 C474 1.320 . S
C1488 C430 1.572 . S
C1483 C146 1.605 . S
C1493 C277 1.295 . S
C1498 C524 1.227 . S
C1508 C470 1.742 . S
C1503 C120 1.821 . S
C1518 C604 1.450 . S
C1513 C231 1.611 . S
C1528 C410 1.890 . S
C1523 C200 1.912 . S
C1533 C212 1.737 . S
C1538 C504 1.626 . S
C1548 C434 1.197 . S
C1543 C172 1.295 . S
C1553 C192 1.609 . S
C1558 C464 1.444 . S
C1563 C160 1.737 . S
C1568 C624 1.626 . S
C1578 C550 1.890 . S
C1573 C213 1.913 . S
C1588 C554 1.201 . S
C1583 C250 1.296 . S
