# Generated by pormake.
# Topology gar, (4,6)-cn, num edge types: 1
# Building blocks:
#     Node 0, Type 0, BuildingBlock: GALJAG_clean_sbu_0, # of connection points: 4
#     Node 1, Type 0, BuildingBlock: GALJAG_clean_sbu_0, # of connection points: 4
#     Node 2, Type 0, BuildingBlock: GALJAG_clean_sbu_0, # of connection points: 4
#     Node 3, Type 0, BuildingBlock: GALJAG_clean_sbu_0, # of connection points: 4
#     Node 4, Type 0, BuildingBlock: GALJAG_clean_sbu_0, # of connection points: 4
#     Node 5, Type 0, BuildingBlock: GALJAG_clean_sbu_0, # of connection points: 4
#     Node 6, Type 0, BuildingBlock: GALJAG_clean_sbu_0, # of connection points: 4
#     Node 7, Type 0, BuildingBlock: GALJAG_clean_sbu_0, # of connection points: 4
#     Node 8, Type 0, BuildingBlock: GALJAG_clean_sbu_0, # of connection points: 4
#     Node 9, Type 0, BuildingBlock: GALJAG_clean_sbu_0, # of connection points: 4
#     Node 10, Type 0, BuildingBlock: GALJAG_clean_sbu_0, # of connection points: 4
#     Node 11, Type 0, BuildingBlock: GALJAG_clean_sbu_0, # of connection points: 4
#     Node 12, Type 0, BuildingBlock: GALJAG_clean_sbu_0, # of connection points: 4
#     Node 13, Type 0, BuildingBlock: GALJAG_clean_sbu_0, # of connection points: 4
#     Node 14, Type 0, BuildingBlock: GALJAG_clean_sbu_0, # of connection points: 4
#     Node 15, Type 0, BuildingBlock: GALJAG_clean_sbu_0, # of connection points: 4
#     Node 16, Type 0, BuildingBlock: GALJAG_clean_sbu_0, # of connection points: 4
#     Node 17, Type 0, BuildingBlock: GALJAG_clean_sbu_0, # of connection points: 4
#     Node 18, Type 0, BuildingBlock: GALJAG_clean_sbu_0, # of connection points: 4
#     Node 19, Type 0, BuildingBlock: GALJAG_clean_sbu_0, # of connection points: 4
#     Node 20, Type 0, BuildingBlock: GALJAG_clean_sbu_0, # of connection points: 4
#     Node 21, Type 0, BuildingBlock: GALJAG_clean_sbu_0, # of connection points: 4
#     Node 22, Type 0, BuildingBlock: GALJAG_clean_sbu_0, # of connection points: 4
#     Node 23, Type 0, BuildingBlock: GALJAG_clean_sbu_0, # of connection points: 4
#     Node 24, Type 1, BuildingBlock: KUMJIN_clean_sbu_1, # of connection points: 6
#     Node 25, Type 1, BuildingBlock: KUMJIN_clean_sbu_1, # of connection points: 6
#     Node 26, Type 1, BuildingBlock: KUMJIN_clean_sbu_1, # of connection points: 6
#     Node 27, Type 1, BuildingBlock: KUMJIN_clean_sbu_1, # of connection points: 6
#     Node 28, Type 1, BuildingBlock: KUMJIN_clean_sbu_1, # of connection points: 6
#     Node 29, Type 1, BuildingBlock: KUMJIN_clean_sbu_1, # of connection points: 6
#     Node 30, Type 1, BuildingBlock: KUMJIN_clean_sbu_1, # of connection points: 6
#     Node 31, Type 1, BuildingBlock: KUMJIN_clean_sbu_1, # of connection points: 6
#     Node 32, Type 1, BuildingBlock: KUMJIN_clean_sbu_1, # of connection points: 6
#     Node 33, Type 1, BuildingBlock: KUMJIN_clean_sbu_1, # of connection points: 6
#     Node 34, Type 1, BuildingBlock: KUMJIN_clean_sbu_1, # of connection points: 6
#     Node 35, Type 1, BuildingBlock: KUMJIN_clean_sbu_1, # of connection points: 6
#     Node 36, Type 1, BuildingBlock: KUMJIN_clean_sbu_1, # of connection points: 6
#     Node 37, Type 1, BuildingBlock: KUMJIN_clean_sbu_1, # of connection points: 6
#     Node 38, Type 1, BuildingBlock: KUMJIN_clean_sbu_1, # of connection points: 6
#     Node 39, Type 1, BuildingBlock: KUMJIN_clean_sbu_1, # of connection points: 6
#     Edge 40, Type (0, 1), BuildingBlock: XIVTED_clean_linker_0, # of connection points: 2
#     Edge 41, Type (0, 1), BuildingBlock: XIVTED_clean_linker_0, # of connection points: 2
#     Edge 42, Type (0, 1), BuildingBlock: XIVTED_clean_linker_0, # of connection points: 2
#     Edge 43, Type (0, 1), BuildingBlock: XIVTED_clean_linker_0, # of connection points: 2
#     Edge 44, Type (0, 1), BuildingBlock: XIVTED_clean_linker_0, # of connection points: 2
#     Edge 45, Type (0, 1), BuildingBlock: XIVTED_clean_linker_0, # of connection points: 2
#     Edge 46, Type (0, 1), BuildingBlock: XIVTED_clean_linker_0, # of connection points: 2
#     Edge 47, Type (0, 1), BuildingBlock: XIVTED_clean_linker_0, # of connection points: 2
#     Edge 48, Type (0, 1), BuildingBlock: XIVTED_clean_linker_0, # of connection points: 2
#     Edge 49, Type (0, 1), BuildingBlock: XIVTED_clean_linker_0, # of connection points: 2
#     Edge 50, Type (0, 1), BuildingBlock: XIVTED_clean_linker_0, # of connection points: 2
#     Edge 51, Type (0, 1), BuildingBlock: XIVTED_clean_linker_0, # of connection points: 2
#     Edge 52, Type (0, 1), BuildingBlock: XIVTED_clean_linker_0, # of connection points: 2
#     Edge 53, Type (0, 1), BuildingBlock: XIVTED_clean_linker_0, # of connection points: 2
#     Edge 54, Type (0, 1), BuildingBlock: XIVTED_clean_linker_0, # of connection points: 2
#     Edge 55, Type (0, 1), BuildingBlock: XIVTED_clean_linker_0, # of connection points: 2
#     Edge 56, Type (0, 1), BuildingBlock: XIVTED_clean_linker_0, # of connection points: 2
#     Edge 57, Type (0, 1), BuildingBlock: XIVTED_clean_linker_0, # of connection points: 2
#     Edge 58, Type (0, 1), BuildingBlock: XIVTED_clean_linker_0, # of connection points: 2
#     Edge 59, Type (0, 1), BuildingBlock: XIVTED_clean_linker_0, # of connection points: 2
#     Edge 60, Type (0, 1), BuildingBlock: XIVTED_clean_linker_0, # of connection points: 2
#     Edge 61, Type (0, 1), BuildingBlock: XIVTED_clean_linker_0, # of connection points: 2
#     Edge 62, Type (0, 1), BuildingBlock: XIVTED_clean_linker_0, # of connection points: 2
#     Edge 63, Type (0, 1), BuildingBlock: XIVTED_clean_linker_0, # of connection points: 2
#     Edge 64, Type (0, 1), BuildingBlock: XIVTED_clean_linker_0, # of connection points: 2
#     Edge 65, Type (0, 1), BuildingBlock: XIVTED_clean_linker_0, # of connection points: 2
#     Edge 66, Type (0, 1), BuildingBlock: XIVTED_clean_linker_0, # of connection points: 2
#     Edge 67, Type (0, 1), BuildingBlock: XIVTED_clean_linker_0, # of connection points: 2
#     Edge 68, Type (0, 1), BuildingBlock: XIVTED_clean_linker_0, # of connection points: 2
#     Edge 69, Type (0, 1), BuildingBlock: XIVTED_clean_linker_0, # of connection points: 2
#     Edge 70, Type (0, 1), BuildingBlock: XIVTED_clean_linker_0, # of connection points: 2
#     Edge 71, Type (0, 1), BuildingBlock: XIVTED_clean_linker_0, # of connection points: 2
#     Edge 72, Type (0, 1), BuildingBlock: XIVTED_clean_linker_0, # of connection points: 2
#     Edge 73, Type (0, 1), BuildingBlock: XIVTED_clean_linker_0, # of connection points: 2
#     Edge 74, Type (0, 1), BuildingBlock: XIVTED_clean_linker_0, # of connection points: 2
#     Edge 75, Type (0, 1), BuildingBlock: XIVTED_clean_linker_0, # of connection points: 2
#     Edge 76, Type (0, 1), BuildingBlock: XIVTED_clean_linker_0, # of connection points: 2
#     Edge 77, Type (0, 1), BuildingBlock: XIVTED_clean_linker_0, # of connection points: 2
#     Edge 78, Type (0, 1), BuildingBlock: XIVTED_clean_linker_0, # of connection points: 2
#     Edge 79, Type (0, 1), BuildingBlock: XIVTED_clean_linker_0, # of connection points: 2
#     Edge 80, Type (0, 1), BuildingBlock: XIVTED_clean_linker_0, # of connection points: 2
#     Edge 81, Type (0, 1), BuildingBlock: XIVTED_clean_linker_0, # of connection points: 2
#     Edge 82, Type (0, 1), BuildingBlock: XIVTED_clean_linker_0, # of connection points: 2
#     Edge 83, Type (0, 1), BuildingBlock: XIVTED_clean_linker_0, # of connection points: 2
#     Edge 84, Type (0, 1), BuildingBlock: XIVTED_clean_linker_0, # of connection points: 2
#     Edge 85, Type (0, 1), BuildingBlock: XIVTED_clean_linker_0, # of connection points: 2
#     Edge 86, Type (0, 1), BuildingBlock: XIVTED_clean_linker_0, # of connection points: 2
#     Edge 87, Type (0, 1), BuildingBlock: XIVTED_clean_linker_0, # of connection points: 2
#     Edge 88, Type (0, 1), BuildingBlock: XIVTED_clean_linker_0, # of connection points: 2
#     Edge 89, Type (0, 1), BuildingBlock: XIVTED_clean_linker_0, # of connection points: 2
#     Edge 90, Type (0, 1), BuildingBlock: XIVTED_clean_linker_0, # of connection points: 2
#     Edge 91, Type (0, 1), BuildingBlock: XIVTED_clean_linker_0, # of connection points: 2
#     Edge 92, Type (0, 1), BuildingBlock: XIVTED_clean_linker_0, # of connection points: 2
#     Edge 93, Type (0, 1), BuildingBlock: XIVTED_clean_linker_0, # of connection points: 2
#     Edge 94, Type (0, 1), BuildingBlock: XIVTED_clean_linker_0, # of connection points: 2
#     Edge 95, Type (0, 1), BuildingBlock: XIVTED_clean_linker_0, # of connection points: 2
#     Edge 96, Type (0, 1), BuildingBlock: XIVTED_clean_linker_0, # of connection points: 2
#     Edge 97, Type (0, 1), BuildingBlock: XIVTED_clean_linker_0, # of connection points: 2
#     Edge 98, Type (0, 1), BuildingBlock: XIVTED_clean_linker_0, # of connection points: 2
#     Edge 99, Type (0, 1), BuildingBlock: XIVTED_clean_linker_0, # of connection points: 2
#     Edge 100, Type (0, 1), BuildingBlock: XIVTED_clean_linker_0, # of connection points: 2
#     Edge 101, Type (0, 1), BuildingBlock: XIVTED_clean_linker_0, # of connection points: 2
#     Edge 102, Type (0, 1), BuildingBlock: XIVTED_clean_linker_0, # of connection points: 2
#     Edge 103, Type (0, 1), BuildingBlock: XIVTED_clean_linker_0, # of connection points: 2
#     Edge 104, Type (0, 1), BuildingBlock: XIVTED_clean_linker_0, # of connection points: 2
#     Edge 105, Type (0, 1), BuildingBlock: XIVTED_clean_linker_0, # of connection points: 2
#     Edge 106, Type (0, 1), BuildingBlock: XIVTED_clean_linker_0, # of connection points: 2
#     Edge 107, Type (0, 1), BuildingBlock: XIVTED_clean_linker_0, # of connection points: 2
#     Edge 108, Type (0, 1), BuildingBlock: XIVTED_clean_linker_0, # of connection points: 2
#     Edge 109, Type (0, 1), BuildingBlock: XIVTED_clean_linker_0, # of connection points: 2
#     Edge 110, Type (0, 1), BuildingBlock: XIVTED_clean_linker_0, # of connection points: 2
#     Edge 111, Type (0, 1), BuildingBlock: XIVTED_clean_linker_0, # of connection points: 2
#     Edge 112, Type (0, 1), BuildingBlock: XIVTED_clean_linker_0, # of connection points: 2
#     Edge 113, Type (0, 1), BuildingBlock: XIVTED_clean_linker_0, # of connection points: 2
#     Edge 114, Type (0, 1), BuildingBlock: XIVTED_clean_linker_0, # of connection points: 2
#     Edge 115, Type (0, 1), BuildingBlock: XIVTED_clean_linker_0, # of connection points: 2
#     Edge 116, Type (0, 1), BuildingBlock: XIVTED_clean_linker_0, # of connection points: 2
#     Edge 117, Type (0, 1), BuildingBlock: XIVTED_clean_linker_0, # of connection points: 2
#     Edge 118, Type (0, 1), BuildingBlock: XIVTED_clean_linker_0, # of connection points: 2
#     Edge 119, Type (0, 1), BuildingBlock: XIVTED_clean_linker_0, # of connection points: 2
#     Edge 120, Type (0, 1), BuildingBlock: XIVTED_clean_linker_0, # of connection points: 2
#     Edge 121, Type (0, 1), BuildingBlock: XIVTED_clean_linker_0, # of connection points: 2
#     Edge 122, Type (0, 1), BuildingBlock: XIVTED_clean_linker_0, # of connection points: 2
#     Edge 123, Type (0, 1), BuildingBlock: XIVTED_clean_linker_0, # of connection points: 2
#     Edge 124, Type (0, 1), BuildingBlock: XIVTED_clean_linker_0, # of connection points: 2
#     Edge 125, Type (0, 1), BuildingBlock: XIVTED_clean_linker_0, # of connection points: 2
#     Edge 126, Type (0, 1), BuildingBlock: XIVTED_clean_linker_0, # of connection points: 2
#     Edge 127, Type (0, 1), BuildingBlock: XIVTED_clean_linker_0, # of connection points: 2
#     Edge 128, Type (0, 1), BuildingBlock: XIVTED_clean_linker_0, # of connection points: 2
#     Edge 129, Type (0, 1), BuildingBlock: XIVTED_clean_linker_0, # of connection points: 2
#     Edge 130, Type (0, 1), BuildingBlock: XIVTED_clean_linker_0, # of connection points: 2
#     Edge 131, Type (0, 1), BuildingBlock: XIVTED_clean_linker_0, # of connection points: 2
#     Edge 132, Type (0, 1), BuildingBlock: XIVTED_clean_linker_0, # of connection points: 2
#     Edge 133, Type (0, 1), BuildingBlock: XIVTED_clean_linker_0, # of connection points: 2
#     Edge 134, Type (0, 1), BuildingBlock: XIVTED_clean_linker_0, # of connection points: 2
#     Edge 135, Type (0, 1), BuildingBlock: XIVTED_clean_linker_0, # of connection points: 2
# Relax obj value: 0.084
# Max RMSD: 0.179
# Mean RMSD: 0.129
data_MOF--net-gar--node1-GALJAG_clean_sbu_0--node2-KUMJIN_clean_sbu_1--edge1-XIVTED_clean_linker_0
_symmetry_space_group_name_H-M    P1
_symmetry_Int_Tables_number       1
_symmetry_cell_setting            triclinic
loop_
_symmetry_equiv_pos_as_xyz
'x, y, z'
_cell_length_a     60.26205
_cell_length_b     60.377985
_cell_length_c     56.525647
_cell_angle_alpha  96.160935
_cell_angle_beta   96.170304
_cell_angle_gamma 100.76893
loop_
_atom_site_label
_atom_site_type_symbol
_atom_site_fract_x
_atom_site_fract_y
_atom_site_fract_z
_atom_type_partial_charge
In0 In 0.05504 0.32569 0.36484 0.0
O1 O 0.08015 0.32889 0.33444 0.0
O2 O 0.09141 0.31696 0.36613 0.0
C3 C 1.00974 0.31981 0.34366 0.0
C4 C 0.04945 0.28813 0.38822 0.0
C5 C 0.05981 0.36878 0.39015 0.0
O6 O 0.02581 0.31751 0.33136 0.0
O7 O 0.01649 0.32436 0.36582 0.0
O8 O 0.06519 0.35213 0.39951 0.0
O9 O 0.05392 0.36435 0.36774 0.0
C10 C 0.09591 0.32124 0.34565 0.0
O11 O 0.05305 0.30816 0.39902 0.0
O12 O 0.0481 0.28697 0.36563 0.0
In13 In 0.02861 0.75952 0.69983 0.0
O14 O 0.02696 0.77635 0.66554 0.0
O15 O 0.04042 0.79763 0.69834 0.0
C16 C 0.02189 0.72041 0.66806 0.0
C17 C 0.07487 0.76353 0.7198 0.0
C18 C 0.98666 0.76104 0.71891 0.0
O19 O 0.02149 0.73976 0.66169 0.0
O20 O 0.02469 0.72045 0.69062 0.0
O21 O 1.0018 0.75152 0.72858 0.0
O22 O 0.99291 0.76959 0.70082 0.0
C23 C 0.03511 0.79625 0.6759 0.0
O24 O 0.06269 0.77756 0.72619 0.0
O25 O 0.06341 0.74705 0.70528 0.0
In26 In 0.55481 0.82304 0.86258 0.0
O27 O 0.57455 0.81051 0.83094 0.0
O28 O 0.59457 0.83089 0.86077 0.0
C29 C 0.50997 0.82063 0.84124 0.0
C30 C 0.55223 0.78477 0.88549 0.0
C31 C 0.55822 0.86515 0.88944 0.0
O32 O 0.52656 0.82083 0.8291 0.0
O33 O 0.51598 0.82142 0.86343 0.0
O34 O 0.558 0.84679 0.89835 0.0
O35 O 0.55798 0.86271 0.86683 0.0
C36 C 0.59459 0.81905 0.84094 0.0
O37 O 0.56302 0.80412 0.89521 0.0
O38 O 0.54249 0.7848 0.86462 0.0
In39 In 0.52811 0.26026 0.19715 0.0
O40 O 0.52775 0.24176 0.15939 0.0
O41 O 0.52608 0.22139 0.18771 0.0
C42 C 0.5274 0.29605 0.17206 0.0
C43 C 0.48641 0.25901 0.21705 0.0
C44 C 0.57415 0.26738 0.21814 0.0
O45 O 0.52366 0.27574 0.16206 0.0
O46 O 0.53094 0.29826 0.19471 0.0
O47 O 0.55909 0.25087 0.22184 0.0
O48 O 0.56574 0.2806 0.20572 0.0
C49 C 0.52672 0.2221 0.16545 0.0
O50 O 0.50522 0.27126 0.22689 0.0
O51 O 0.48892 0.24655 0.19857 0.0
In52 In 0.07248 0.80438 0.117 0.0
O53 O 0.07853 0.77346 0.08957 0.0
O54 O 0.05293 0.76663 0.11169 0.0
C55 C 0.0712 0.84611 0.09795 0.0
C56 C 0.03702 0.80048 0.14284 0.0
C57 C 0.11304 0.80836 0.14659 0.0
O58 O 0.06633 0.82691 0.08489 0.0
O59 O 0.07761 0.84411 0.11943 0.0
O60 O 0.09606 0.81566 0.153 0.0
O61 O 0.11021 0.79987 0.12476 0.0
C62 C 0.06383 0.75829 0.0964 0.0
O63 O 0.05686 0.79892 0.15118 0.0
O64 O 0.03483 0.80427 0.12122 0.0
In65 In 0.50769 0.77549 0.45147 0.0
O66 O 0.52474 0.77468 0.41666 0.0
O67 O 0.54616 0.78147 0.45004 0.0
C68 C 0.46577 0.77388 0.42475 0.0
C69 C 0.5115 0.73571 0.47282 0.0
C70 C 0.51341 0.82018 0.47404 0.0
O71 O 0.48283 0.76932 0.41552 0.0
O72 O 0.46938 0.77797 0.44735 0.0
O73 O 0.49965 0.8037 0.4798 0.0
O74 O 0.5249 0.81402 0.45806 0.0
C75 C 0.54489 0.77862 0.4274 0.0
O76 O 0.51452 0.75527 0.48469 0.0
O77 O 0.50548 0.73596 0.45082 0.0
In78 In 0.57197 0.30231 0.61666 0.0
O79 O 0.57503 0.27154 0.58724 0.0
O80 O 0.55732 0.26373 0.61626 0.0
C81 C 0.57195 0.34335 0.59591 0.0
C82 C 0.53703 0.30185 0.64324 0.0
C83 C 0.61223 0.30565 0.64587 0.0
O84 O 0.55835 0.32475 0.58783 0.0
O85 O 0.58644 0.34076 0.61269 0.0
O86 O 0.59558 0.31355 0.65245 0.0
O87 O 0.60914 0.29687 0.62408 0.0
C88 C 0.56454 0.25586 0.59769 0.0
O89 O 0.5575 0.30401 0.65225 0.0
O90 O 0.53401 0.30028 0.62061 0.0
In91 In 1.00743 0.2772 0.95076 0.0
O92 O 0.01351 0.25571 0.98316 0.0
O93 O 1.00614 0.23784 0.9484 0.0
C94 C 0.01255 0.32231 0.97233 0.0
C95 C 0.04515 0.2788 0.92752 0.0
C96 C 0.96541 0.27443 0.92382 0.0
O97 O 1.0078 0.3055 0.98387 0.0
O98 O 0.01526 0.3163 0.95099 0.0
O99 O 0.98431 0.27875 0.91597 0.0
O100 O 0.96719 0.27016 0.94533 0.0
C101 C 0.01143 0.23663 0.9704 0.0
O102 O 0.02508 0.27303 0.91676 0.0
O103 O 0.04626 0.28387 0.94997 0.0
In104 In 0.401 0.03096 0.31673 0.0
O105 O 0.43145 0.04003 0.29677 0.0
O106 O 0.39793 0.03229 0.27729 0.0
C107 C 0.41887 0.02812 0.3603 0.0
C108 C 0.38552 0.0686 0.32251 0.0
C109 C 0.37912 0.98859 0.30553 0.0
O110 O 0.42995 0.02672 0.34261 0.0
O111 O 0.39901 0.03186 0.35608 0.0
O112 O 0.3692 1.00494 0.30263 0.0
O113 O 0.39989 0.99368 0.3139 0.0
C114 C 0.41904 0.03818 0.27685 0.0
O115 O 0.37247 0.0494 0.32136 0.0
O116 O 0.40646 0.06853 0.32252 0.0
In117 In 0.27245 0.18997 0.5188 0.0
O118 O 0.26955 0.21897 0.54826 0.0
O119 O 0.28426 0.1917 0.55886 0.0
C120 C 0.27381 0.20866 0.47666 0.0
C121 C 0.30731 0.16815 0.51904 0.0
C122 C 0.23105 0.16305 0.51667 0.0
O123 O 0.28144 0.22032 0.49683 0.0
O124 O 0.26483 0.18841 0.47806 0.0
O125 O 0.24716 0.15671 0.50721 0.0
O126 O 0.23543 0.18335 0.52675 0.0
C127 C 0.27818 0.21004 0.5654 0.0
O128 O 0.28684 0.15806 0.51752 0.0
O129 O 0.31043 0.18957 0.52063 0.0
In130 In 0.1386 0.05785 0.79514 0.0
O131 O 0.11471 0.0371 0.76191 0.0
O132 O 0.12454 0.07249 0.76194 0.0
C133 C 0.12187 0.05586 0.83826 0.0
C134 C 0.16312 0.02517 0.79256 0.0
C135 C 0.16854 0.09749 0.79882 0.0
O136 O 0.11004 0.05938 0.81965 0.0
O137 O 0.14164 0.05351 0.83498 0.0
O138 O 0.17171 0.07904 0.78838 0.0
O139 O 0.14995 0.09615 0.80761 0.0
C140 C 0.11434 0.05376 0.75028 0.0
O141 O 0.17173 0.04602 0.79407 0.0
O142 O 0.14175 0.0205 0.79222 0.0
In143 In 0.30109 0.92925 0.99993 0.0
O144 O 0.29464 0.89833 0.01935 0.0
O145 O 0.29579 0.93108 0.03856 0.0
C146 C 0.29629 0.90812 0.95589 0.0
C147 C 0.27485 0.95944 0.99879 0.0
C148 C 0.34486 0.94633 0.00494 0.0
O149 O 0.28319 0.90102 0.97066 0.0
O150 O 0.31142 0.9254 0.96356 0.0
O151 O 0.32992 0.95565 0.99515 0.0
O152 O 0.3378 0.92797 0.01311 0.0
C153 C 0.29306 0.90992 0.03886 0.0
O154 O 0.2953 0.96421 0.00821 0.0
O155 O 0.26735 0.93899 0.98984 0.0
In156 In 0.31343 0.39465 0.04745 0.0
O157 O 0.31074 0.362 0.0657 0.0
O158 O 0.30901 0.39268 0.08682 0.0
C159 C 0.31134 0.37279 0.00254 0.0
C160 C 0.27635 0.41379 0.04574 0.0
C161 C 0.35528 0.42176 0.05136 0.0
O162 O 0.3068 0.36209 0.02006 0.0
O163 O 0.31662 0.39411 0.0078 0.0
O164 O 0.33707 0.42851 0.04607 0.0
O165 O 0.35251 0.40144 0.05576 0.0
C166 C 0.30829 0.37162 0.08596 0.0
O167 O 0.29298 0.42015 0.06205 0.0
O168 O 0.27823 0.39767 0.03046 0.0
In169 In 0.77214 0.13289 0.06172 0.0
O170 O 0.78928 0.10307 0.06532 0.0
O171 O 0.80904 0.13706 0.07307 0.0
C172 C 0.72879 0.11449 0.04908 0.0
C173 C 0.76874 0.15299 0.1043 0.0
C174 C 0.78123 0.15302 0.02322 0.0
O175 O 0.74377 0.10232 0.04933 0.0
O176 O 0.73585 0.13538 0.05601 0.0
O177 O 0.78611 0.1634 0.04426 0.0
O178 O 0.77271 0.13211 0.02168 0.0
C179 C 0.80851 0.11601 0.0722 0.0
O180 O 0.7673 0.16264 0.08565 0.0
O181 O 0.77191 0.13286 0.10166 0.0
In182 In 0.20079 0.55806 0.25192 0.0
O183 O 0.23383 0.54547 0.24893 0.0
O184 O 0.20196 0.52199 0.24367 0.0
C185 C 0.21754 0.602 0.26146 0.0
C186 C 0.17893 0.55135 0.20851 0.0
C187 C 0.17457 0.55292 0.28663 0.0
O188 O 0.22519 0.58815 0.27379 0.0
O189 O 0.20229 0.59343 0.24423 0.0
O190 O 0.16722 0.55598 0.2658 0.0
O191 O 0.19554 0.55266 0.29028 0.0
C192 C 0.22307 0.52521 0.24326 0.0
O193 O 0.17088 0.54221 0.22563 0.0
O194 O 0.19821 0.56456 0.21335 0.0
In195 In 0.8139 0.89531 0.54862 0.0
O196 O 0.80836 0.86264 0.56675 0.0
O197 O 0.81535 0.89411 0.58914 0.0
C198 C 0.80868 0.87363 0.50339 0.0
C199 C 0.77662 0.91381 0.54793 0.0
C200 C 0.85561 0.92241 0.54981 0.0
O201 O 0.8194 0.86704 0.52091 0.0
O202 O 0.80041 0.89098 0.50873 0.0
O203 O 0.83986 0.92907 0.55973 0.0
O204 O 0.85062 0.90207 0.54008 0.0
C205 C 0.81044 0.8728 0.58776 0.0
O206 O 0.79654 0.92573 0.5518 0.0
O207 O 0.77553 0.89264 0.54379 0.0
In208 In 0.93693 0.01738 0.26825 0.0
O209 O 0.96666 0.03394 0.24976 0.0
O210 O 0.94128 0.00798 0.22884 0.0
C211 C 0.96225 0.02259 0.31213 0.0
C212 C 0.91235 0.05021 0.26635 0.0
C213 C 0.9096 0.97579 0.26449 0.0
O214 O 0.96301 1.00718 0.29557 0.0
O215 O 0.94943 0.03589 0.30637 0.0
O216 O 0.90188 0.99385 0.26502 0.0
O217 O 0.93092 0.97867 0.26492 0.0
C218 C 0.95947 0.02248 0.22947 0.0
O219 O 0.90705 0.03355 0.27778 0.0
O220 O 0.9297 0.05003 0.25577 0.0
In221 In 0.27721 0.63421 0.56044 0.0
O222 O 0.29281 0.60329 0.56047 0.0
O223 O 0.31328 0.63592 0.57477 0.0
C224 C 0.23374 0.61662 0.55015 0.0
C225 C 0.27326 0.65603 0.60197 0.0
C226 C 0.28432 0.65121 0.51996 0.0
O227 O 0.24773 0.60492 0.55761 0.0
O228 O 0.24178 0.63699 0.54801 0.0
O229 O 0.29124 0.6628 0.54027 0.0
O230 O 0.27574 0.63053 0.5203 0.0
C231 C 0.31176 0.6147 0.57081 0.0
O232 O 0.27582 0.66602 0.58367 0.0
O233 O 0.27304 0.63503 0.59954 0.0
In234 In 0.43729 0.51666 0.76792 0.0
O235 O 0.41039 0.53598 0.75305 0.0
O236 O 0.43245 0.55074 0.7849 0.0
C237 C 0.41006 0.47504 0.76507 0.0
C238 C 0.46187 0.52182 0.73039 0.0
C239 C 0.45982 0.51852 0.81245 0.0
O240 O 0.40237 0.49217 0.75955 0.0
O241 O 0.43133 0.4788 0.77111 0.0
O242 O 0.4701 0.51941 0.79409 0.0
O243 O 0.43853 0.51674 0.8082 0.0
C244 C 0.41655 0.55267 0.76941 0.0
O245 O 0.46428 0.53673 0.74834 0.0
O246 O 0.44769 0.50392 0.73168 0.0
In247 In 0.69922 0.0596 0.75209 0.0
O248 O 0.72593 0.03865 0.7466 0.0
O249 O 0.69112 0.02239 0.74738 0.0
C250 C 0.71725 0.10302 0.76027 0.0
C251 C 0.68003 0.05909 0.70842 0.0
C252 C 0.68027 0.0565 0.79197 0.0
O253 O 0.72915 0.08852 0.76547 0.0
O254 O 0.69724 0.09523 0.75018 0.0
O255 O 0.66893 0.05062 0.77141 0.0
O256 O 0.70143 0.06349 0.79245 0.0
C257 C 0.71109 0.02037 0.74437 0.0
O258 O 0.66947 0.06118 0.72642 0.0
O259 O 0.70061 0.05733 0.71232 0.0
In260 In 0.77301 0.68915 0.01881 0.0
O261 O 0.78979 0.65882 0.01574 0.0
O262 O 0.81151 0.69159 0.02405 0.0
C263 C 0.73178 0.66177 0.01594 0.0
C264 C 0.77769 0.70859 0.06554 0.0
C265 C 0.77463 0.70646 0.97601 0.0
O266 O 0.74912 0.6548 0.0102 0.0
O267 O 0.73495 0.68283 0.02288 0.0
O268 O 0.77923 0.71921 0.99591 0.0
O269 O 0.76863 0.68575 0.97794 0.0
C270 C 0.80984 0.67029 0.02016 0.0
O271 O 0.77089 0.71846 0.04824 0.0
O272 O 0.78225 0.68947 0.05914 0.0
In273 In 0.89986 0.53155 0.81223 0.0
O274 O 0.86683 0.54325 0.80897 0.0
O275 O 0.89755 0.56793 0.82105 0.0
C276 C 0.87858 0.48903 0.80917 0.0
C277 C 0.91615 0.5382 0.77132 0.0
C278 C 0.92367 0.53117 0.85397 0.0
O279 O 0.87078 0.50528 0.81867 0.0
O280 O 0.89702 0.49421 0.80056 0.0
O281 O 0.93131 0.5262 0.83458 0.0
O282 O 0.90488 0.53738 0.85201 0.0
C283 C 0.87609 0.56367 0.81654 0.0
O284 O 0.92698 0.54805 0.79121 0.0
O285 O 0.8971 0.52568 0.77226 0.0
In286 In 0.80061 0.43026 0.49645 0.0
O287 O 0.7917 0.39999 0.51635 0.0
O288 O 0.79841 0.43333 0.53603 0.0
C289 C 0.80351 0.41061 0.45325 0.0
C290 C 0.76323 0.44672 0.4904 0.0
C291 C 0.8428 0.45395 0.50737 0.0
O292 O 0.8065 0.40098 0.47172 0.0
O293 O 0.79824 0.42979 0.45653 0.0
O294 O 0.82607 0.46339 0.50317 0.0
O295 O 0.83812 0.43263 0.50632 0.0
C296 C 0.79325 0.41214 0.53634 0.0
O297 O 0.78286 0.45909 0.4922 0.0
O298 O 0.76252 0.42576 0.49114 0.0
In299 In 0.63967 0.55881 0.29624 0.0
O300 O 0.67075 0.54266 0.30133 0.0
O301 O 0.63944 0.5217 0.28437 0.0
C302 C 0.67093 0.5975 0.2991 0.0
C303 C 0.6155 0.5568 0.25178 0.0
C304 C 0.62195 0.55593 0.33876 0.0
O305 O 0.67255 0.57913 0.28714 0.0
O306 O 0.6535 0.59644 0.30987 0.0
O307 O 0.61114 0.56161 0.32067 0.0
O308 O 0.64105 0.55176 0.33517 0.0
C309 C 0.66026 0.52318 0.29166 0.0
O310 O 0.61467 0.5399 0.26323 0.0
O311 O 0.62681 0.57509 0.26354 0.0
Eu312 Eu 0.07689 0.05839 0.05735 0.0
C313 C 1.0031 0.98036 0.99899 0.0
N314 N 0.01384 1.00057 0.99316 0.0
C315 C 0.01434 0.98342 0.95304 0.0
C316 C 0.99775 0.96075 0.98187 0.0
C317 C 0.01922 1.00244 0.97052 0.0
C318 C 1.0036 0.96247 0.95873 0.0
C319 C 0.98568 0.95862 0.02839 0.0
C320 C 0.99715 0.9793 0.0221 0.0
C321 C 0.98049 0.93907 0.01138 0.0
C322 C 0.98647 0.94014 0.9882 0.0
Eu323 Eu 0.01795 0.03191 0.02296 0.0
N324 N 1.00213 0.99854 0.03824 0.0
C325 C 0.97919 0.9583 0.05142 0.0
C326 C 0.99434 0.99861 0.05999 0.0
C327 C 0.98333 0.97846 0.06719 0.0
H328 H 0.02639 0.01871 0.96554 0.0
H329 H 0.97739 0.97865 0.08461 0.0
H330 H 0.06637 0.07019 0.11464 0.0
H331 H 0.12316 0.11321 1.00051 0.0
H332 H 0.99531 0.01426 0.07124 0.0
H333 H 0.97028 0.94276 0.05689 0.0
H334 H 0.1012 0.07777 0.01045 0.0
H335 H 0.0185 0.98502 0.93506 0.0
H336 H 0.97157 0.92308 0.01587 0.0
H337 H 0.98212 0.92494 0.97522 0.0
H338 H 0.07525 0.10252 0.14669 0.0
H339 H 0.99963 0.94781 0.94504 0.0
H340 H 0.13265 0.14752 0.03063 0.0
N341 N 0.08131 0.08895 0.08851 0.0
C342 C 0.09387 0.10901 0.0843 0.0
C343 C 0.08029 0.10467 0.12914 0.0
C344 C 0.1 0.12778 0.10253 0.0
C345 C 0.07476 0.08647 0.11066 0.0
C346 C 0.09293 0.12542 0.12507 0.0
N347 N 0.09574 0.09214 0.04477 0.0
C348 C 0.10387 0.09278 0.0232 0.0
C349 C 0.11472 0.13113 0.0573 0.0
C350 C 0.10126 0.11065 0.06189 0.0
C351 C 0.12225 0.13211 0.0348 0.0
C352 C 0.11686 0.11282 0.01772 0.0
H353 H 0.09747 0.13938 0.13956 0.0
H354 H 0.11839 0.16262 0.11181 0.0
H355 H 0.13117 0.16558 0.07223 0.0
O356 O 0.10928 0.04868 0.05166 0.0
O357 O 0.05576 0.0858 0.04808 0.0
O358 O 0.02988 0.06855 0.01526 0.0
O359 O 0.10256 0.06034 0.08791 0.0
O360 O 0.07628 0.04271 0.01821 0.0
O361 O 0.04241 0.04813 0.99958 0.0
O362 O 0.98404 0.03519 0.02989 0.0
O363 O 0.04148 1.00606 0.02961 0.0
O364 O 0.06322 0.02183 0.06505 0.0
O365 O 0.99122 0.03028 0.99319 0.0
O366 O 0.01925 0.05096 0.06064 0.0
O367 O 0.05109 0.0421 0.07911 0.0
C368 C 0.0414 0.08711 0.02901 0.0
C369 C 0.13891 0.05025 0.08501 0.0
C370 C 0.17419 0.03838 0.07927 0.0
C371 C 0.18107 0.04244 0.10414 0.0
C372 C 0.14565 0.05425 0.10994 0.0
C373 C 0.16676 0.0504 0.11943 0.0
C374 C 0.1533 0.04257 0.06985 0.0
C375 C 0.06347 0.04576 0.99885 0.0
C376 C 0.11661 0.05308 0.07463 0.0
C377 C 0.1134 0.14812 0.09795 0.0
C378 C 0.12068 0.14981 0.0754 0.0
C379 C 0.05369 1.00364 0.04967 0.0
C380 C 0.96465 0.05317 0.00206 0.0
C381 C 0.93854 0.07675 0.0144 0.0
C382 C 0.94104 0.08801 0.99408 0.0
C383 C 0.96709 0.06432 0.98161 0.0
C384 C 0.95041 0.05951 0.01825 0.0
C385 C 0.95528 0.08172 0.9777 0.0
C386 C 0.03134 0.0476 0.08016 0.0
C387 C 0.97661 0.03496 0.00731 0.0
H388 H 0.19724 0.03912 0.11168 0.0
H389 H 0.13459 0.06013 0.12205 0.0
H390 H 0.17192 0.05336 0.13862 0.0
H391 H 0.14822 0.0397 0.05058 0.0
H392 H 0.93165 0.10123 0.99063 0.0
H393 H 0.97804 0.05966 0.96874 0.0
H394 H 0.94856 0.05098 0.0341 0.0
H395 H 0.95704 0.09023 0.96191 0.0
Eu396 Eu 0.26402 0.79673 0.32696 0.0
C397 C 0.31873 0.75806 0.23472 0.0
N398 N 0.32698 0.77372 0.25431 0.0
C399 C 0.36056 0.75801 0.26013 0.0
C400 C 0.3307 0.741 0.22775 0.0
C401 C 0.34796 0.77444 0.2665 0.0
C402 C 0.35175 0.741 0.2409 0.0
C403 C 0.28906 0.74302 0.20126 0.0
C404 C 0.29827 0.75917 0.22149 0.0
C405 C 0.30056 0.72555 0.19474 0.0
C406 C 0.32136 0.72459 0.20791 0.0
Eu407 Eu 0.30299 0.79872 0.26569 0.0
N408 N 0.28718 0.77584 0.22875 0.0
C409 C 0.26855 0.74489 0.18821 0.0
C410 C 0.26793 0.77856 0.21521 0.0
C411 C 0.25815 0.76296 0.195 0.0
H412 H 0.3551 0.78768 0.28119 0.0
H413 H 0.24258 0.7649 0.18468 0.0
H414 H 0.21338 0.8078 0.30789 0.0
H415 H 0.32244 0.83513 0.4084 0.0
H416 H 0.26002 0.79274 0.21972 0.0
H417 H 0.26085 0.73275 0.17263 0.0
H418 H 0.30448 0.80452 0.37595 0.0
H419 H 0.37704 0.75844 0.27009 0.0
H420 H 0.29362 0.71284 0.17941 0.0
H421 H 0.33017 0.71118 0.20249 0.0
H422 H 0.191 0.83754 0.31572 0.0
H423 H 0.36148 0.72819 0.23612 0.0
H424 H 0.30577 0.86937 0.41524 0.0
N425 N 0.24062 0.82312 0.33521 0.0
C426 C 0.24878 0.84028 0.35335 0.0
C427 C 0.2073 0.83859 0.32635 0.0
C428 C 0.23681 0.85784 0.35821 0.0
C429 C 0.22002 0.82179 0.32195 0.0
C430 C 0.21584 0.85683 0.3444 0.0
N431 N 0.27969 0.82242 0.36228 0.0
C432 C 0.29778 0.81986 0.37774 0.0
C433 C 0.27824 0.85765 0.3861 0.0
C434 C 0.26919 0.84014 0.36704 0.0
C435 C 0.29816 0.8562 0.40052 0.0
C436 C 0.30767 0.83696 0.39664 0.0
H437 H 0.20604 0.86993 0.34764 0.0
H438 H 0.2373 0.8895 0.38052 0.0
H439 H 0.27368 0.88939 0.40492 0.0
O440 O 0.2629 0.76997 0.34975 0.0
O441 O 0.27198 0.83098 0.31485 0.0
O442 O 0.30156 0.81998 0.30043 0.0
O443 O 0.23165 0.77447 0.32988 0.0
O444 O 0.30165 0.79191 0.33478 0.0
O445 O 0.32291 0.79392 0.30164 0.0
O446 O 0.30302 0.82718 0.24531 0.0
O447 O 0.28388 0.76291 0.26545 0.0
O448 O 0.27873 0.7821 0.2975 0.0
O449 O 0.33503 0.81932 0.25942 0.0
O450 O 0.26666 0.80664 0.26126 0.0
O451 O 0.24325 0.79122 0.28913 0.0
C452 C 0.28871 0.83499 0.30221 0.0
C453 C 0.23028 0.76335 0.36877 0.0
C454 C 0.22989 0.74921 0.40729 0.0
C455 C 0.21325 0.76163 0.41291 0.0
C456 C 0.214 0.77623 0.37461 0.0
C457 C 0.20543 0.77519 0.3966 0.0
C458 C 0.23806 0.74991 0.38514 0.0
C459 C 0.32066 0.79133 0.32452 0.0
C460 C 0.24075 0.76449 0.34661 0.0
C461 C 0.24612 0.87571 0.37666 0.0
C462 C 0.26685 0.87567 0.39051 0.0
C463 C 0.27471 0.76249 0.28485 0.0
C464 C 0.33403 0.83612 0.22351 0.0
C465 C 0.3293 0.84918 0.18465 0.0
C466 C 0.35098 0.84557 0.18069 0.0
C467 C 0.35586 0.83267 0.21957 0.0
C468 C 0.32093 0.84468 0.20602 0.0
C469 C 0.36426 0.83742 0.19821 0.0
C470 C 0.2465 0.79949 0.2685 0.0
C471 C 0.32511 0.83184 0.24607 0.0
H472 H 0.20668 0.76113 0.42999 0.0
H473 H 0.20807 0.78716 0.36239 0.0
H474 H 0.19286 0.78507 0.40109 0.0
H475 H 0.25073 0.74006 0.3807 0.0
H476 H 0.35759 0.84915 0.16412 0.0
H477 H 0.36647 0.82641 0.23297 0.0
H478 H 0.30418 0.84776 0.20887 0.0
H479 H 0.38107 0.83479 0.19522 0.0
Eu480 Eu 0.50364 0.03251 0.56033 0.0
C481 C 0.58665 0.0823 0.50672 0.0
N482 N 0.57083 0.06265 0.49983 0.0
C483 C 0.56549 0.07223 0.45976 0.0
C484 C 0.59167 0.09807 0.49037 0.0
C485 C 0.56104 0.05704 0.47644 0.0
C486 C 0.58062 0.09294 0.46681 0.0
C487 C 0.61509 0.10667 0.53725 0.0
C488 C 0.59854 0.08654 0.53 0.0
C489 C 0.61951 0.12254 0.5211 0.0
C490 C 0.6079 0.11823 0.49777 0.0
Eu491 Eu 0.56644 0.03851 0.52996 0.0
N492 N 0.59384 0.07115 0.54563 0.0
C493 C 0.62689 0.11021 0.56051 0.0
C494 C 0.60629 0.07382 0.56767 0.0
C495 C 0.62266 0.09356 0.57568 0.0
H496 H 0.55028 0.04065 0.4701 0.0
H497 H 0.63225 0.09574 0.59339 0.0
H498 H 0.52135 0.02979 0.62007 0.0
H499 H 0.43497 0.97644 0.49938 0.0
H500 H 0.60411 0.06049 0.57874 0.0
H501 H 0.63969 0.12547 0.56672 0.0
H502 H 0.46443 0.01098 0.51291 0.0
H503 H 0.55752 0.06777 0.44134 0.0
H504 H 0.63211 0.13811 0.52641 0.0
H505 H 0.61182 0.13052 0.48543 0.0
H506 H 0.51528 1.00238 0.64857 0.0
H507 H 0.58412 0.10458 0.45374 0.0
H508 H 0.42804 0.94672 0.52612 0.0
N509 N 0.50028 0.00796 0.59046 0.0
C510 C 0.48429 0.98837 0.58393 0.0
C511 C 0.50681 0.99804 0.63032 0.0
C512 C 0.47975 0.97251 0.60032 0.0
C513 C 0.51063 0.0134 0.6137 0.0
C514 C 0.49158 0.97738 0.62353 0.0
N515 N 0.47569 0.99994 0.54556 0.0
C516 C 0.46234 0.99766 0.52405 0.0
C517 C 0.45427 0.96473 0.55454 0.0
C518 C 0.47149 0.98446 0.56118 0.0
C519 C 0.44135 0.96167 0.53187 0.0
C520 C 0.44529 0.97832 0.51665 0.0
H521 H 0.48849 0.96566 0.6366 0.0
H522 H 0.45953 0.94024 0.60577 0.0
H523 H 0.43737 0.93341 0.56572 0.0
O524 O 0.47373 0.04681 0.54836 0.0
O525 O 0.51023 0.99838 0.54084 0.0
O526 O 0.54566 1.00223 0.5262 0.0
O527 O 0.48396 0.04479 0.58655 0.0
O528 O 0.51566 0.04605 0.52761 0.0
O529 O 0.53535 0.02769 0.50343 0.0
O530 O 0.59718 0.02496 0.54191 0.0
O531 O 0.55813 0.07264 0.54666 0.0
O532 O 0.52475 0.06929 0.5653 0.0
O533 O 0.58494 0.0248 0.50372 0.0
O534 O 0.55272 0.02426 0.56151 0.0
O535 O 0.53481 0.04331 0.58671 0.0
C536 C 0.52615 0.9898 0.53026 0.0
C537 C 0.45061 0.06034 0.57798 0.0
C538 C 0.42139 0.08225 0.57058 0.0
C539 C 0.41587 0.08068 0.5939 0.0
C540 C 0.44489 0.05879 0.60132 0.0
C541 C 0.42757 0.0689 0.60918 0.0
C542 C 0.43866 0.07199 0.56251 0.0
C543 C 0.51616 0.03291 0.50801 0.0
C544 C 0.46968 0.05059 0.57056 0.0
C545 C 0.46307 0.95259 0.5934 0.0
C546 C 0.45038 0.94873 0.57062 0.0
C547 C 0.54332 0.08156 0.5587 0.0
C548 C 0.61865 0.00976 0.51106 0.0
C549 C 0.64753 0.98684 0.516 0.0
C550 C 0.651 0.98779 0.49194 0.0
C551 C 0.6226 0.01069 0.48705 0.0
C552 C 0.63146 0.99803 0.52574 0.0
C553 C 0.63868 0.99978 0.47761 0.0
C554 C 0.5532 0.03667 0.58177 0.0
C555 C 0.59999 0.01976 0.51947 0.0
H556 H 0.40251 0.08859 0.60023 0.0
H557 H 0.45387 0.04985 0.61359 0.0
H558 H 0.42329 0.06771 0.62717 0.0
H559 H 0.44299 0.07344 0.54452 0.0
H560 H 0.66344 0.97933 0.48429 0.0
H561 H 0.61305 0.01966 0.47535 0.0
H562 H 0.62857 0.99706 0.54424 0.0
H563 H 0.64148 1.00048 0.45909 0.0
Eu564 Eu 0.32368 0.27239 0.78976 0.0
C565 C 0.24204 0.30647 0.73508 0.0
N566 N 0.25606 0.31743 0.75505 0.0
C567 C 0.25775 0.35309 0.73977 0.0
C568 C 0.23544 0.31862 0.71648 0.0
C569 C 0.26377 0.3404 0.75782 0.0
C570 C 0.24355 0.34217 0.71901 0.0
C571 C 0.22001 0.27124 0.71243 0.0
C572 C 0.23451 0.28292 0.733 0.0
C573 C 0.21335 0.28338 0.69397 0.0
C574 C 0.22107 0.30696 0.69597 0.0
Eu575 Eu 0.26453 0.29435 0.78423 0.0
N576 N 0.24179 0.27139 0.75079 0.0
C577 C 0.21257 0.24768 0.71104 0.0
C578 C 0.23369 0.24867 0.75006 0.0
C579 C 0.21927 0.2364 0.73005 0.0
H580 H 0.27422 0.34905 0.7741 0.0
H581 H 0.21307 0.2183 0.72946 0.0
H582 H 0.31001 0.21787 0.80056 0.0
H583 H 0.38702 0.34275 0.83976 0.0
H584 H 0.23773 0.24004 0.76503 0.0
H585 H 0.20136 0.23812 0.69557 0.0
H586 H 0.35931 0.32242 0.80523 0.0
H587 H 0.26392 0.37131 0.74197 0.0
H588 H 0.20223 0.27467 0.67804 0.0
H589 H 0.21581 0.31603 0.68152 0.0
H590 H 0.31714 0.19511 0.83317 0.0
H591 H 0.23888 0.35209 0.70509 0.0
H592 H 0.39504 0.3232 0.87511 0.0
N593 N 0.33 0.2487 0.8195 0.0
C594 C 0.34486 0.25862 0.83926 0.0
C595 C 0.32485 0.21301 0.83524 0.0
C596 C 0.34993 0.24609 0.85809 0.0
C597 C 0.32049 0.22607 0.81695 0.0
C598 C 0.33948 0.22309 0.856 0.0
N599 N 0.35021 0.29292 0.82191 0.0
C600 C 0.3619 0.31433 0.82107 0.0
C601 C 0.37144 0.29192 0.86029 0.0
C602 C 0.3554 0.28132 0.84042 0.0
C603 C 0.38251 0.31447 0.86024 0.0
C604 C 0.37795 0.32561 0.84037 0.0
H605 H 0.34295 0.21288 0.87007 0.0
H606 H 0.36956 0.24741 0.89285 0.0
H607 H 0.38847 0.28748 0.89472 0.0
O608 O 0.35187 0.28098 0.76778 0.0
O609 O 0.31062 0.28372 0.82495 0.0
O610 O 0.28931 0.31095 0.81705 0.0
O611 O 0.3441 0.24777 0.78049 0.0
O612 O 0.32338 0.30636 0.7752 0.0
O613 O 0.29574 0.32287 0.79201 0.0
O614 O 0.23557 0.28189 0.80336 0.0
O615 O 0.27974 0.28592 0.7494 0.0
O616 O 0.29802 0.25709 0.75728 0.0
O617 O 0.23953 0.31509 0.79168 0.0
O618 O 0.2678 0.26356 0.80307 0.0
O619 O 0.29126 0.24579 0.78199 0.0
C620 C 0.30168 0.30128 0.8319 0.0
C621 C 0.37507 0.2526 0.75661 0.0
C622 C 0.40864 0.25827 0.73556 0.0
C623 C 0.40957 0.23524 0.73582 0.0
C624 C 0.37643 0.22957 0.75647 0.0
C625 C 0.39351 0.221 0.7461 0.0
C626 C 0.39118 0.26699 0.7458 0.0
C627 C 0.31475 0.32418 0.78216 0.0
C628 C 0.35685 0.26089 0.76839 0.0
C629 C 0.36549 0.25676 0.87819 0.0
C630 C 0.37624 0.2796 0.87927 0.0
C631 C 0.28893 0.26871 0.74195 0.0
C632 C 0.21798 0.30933 0.82418 0.0
C633 C 0.18741 0.30745 0.84985 0.0
C634 C 0.19834 0.32885 0.86206 0.0
C635 C 0.2286 0.33055 0.83706 0.0
C636 C 0.19722 0.29776 0.83064 0.0
C637 C 0.21871 0.34026 0.8557 0.0
C638 C 0.27452 0.24508 0.79507 0.0
C639 C 0.22735 0.30035 0.80274 0.0
H640 H 0.42282 0.22825 0.72796 0.0
H641 H 0.36426 0.21803 0.76445 0.0
H642 H 0.39437 0.20326 0.74616 0.0
H643 H 0.39046 0.28479 0.74576 0.0
H644 H 0.19098 0.33685 0.87655 0.0
H645 H 0.24436 0.33988 0.83241 0.0
H646 H 0.18877 0.28143 0.82079 0.0
H647 H 0.22682 0.3568 0.86521 0.0
Eu648 Eu 0.05622 1.0051 0.5259 0.0
C649 C 0.02726 0.08772 0.58082 0.0
N650 N 0.01635 0.07484 0.56011 0.0
C651 C 0.98048 0.07283 0.57538 0.0
C652 C 0.01514 0.09285 0.60003 0.0
C653 C 0.99312 0.06851 0.55669 0.0
C654 C 0.99157 0.0847 0.59729 0.0
C655 C 0.06173 0.11205 0.60273 0.0
C656 C 0.05036 0.09721 0.58228 0.0
C657 C 0.04992 0.11627 0.62228 0.0
C658 C 0.02671 0.10665 0.62096 0.0
Eu659 Eu 0.03998 0.06815 0.53035 0.0
N660 N 0.06158 0.09253 0.56333 0.0
C661 C 0.0845 0.12265 0.60265 0.0
C662 C 0.08318 0.10398 0.56237 0.0
C663 C 0.09515 0.11889 0.58221 0.0
H664 H 0.98408 0.06045 0.53948 0.0
H665 H 0.11249 0.12753 0.58168 0.0
H666 H 0.11155 0.01887 0.51524 0.0
H667 H 0.98518 0.94318 0.47464 0.0
H668 H 0.09108 0.10143 0.54631 0.0
H669 H 0.0938 0.1342 0.61801 0.0
H670 H 1.00472 0.97163 0.50875 0.0
H671 H 0.96213 0.06735 0.57272 0.0
H672 H 0.05843 0.1274 0.63828 0.0
H673 H 0.01768 0.11058 0.63594 0.0
H674 H 0.13418 0.01128 0.48294 0.0
H675 H 0.98167 0.08829 0.61162 0.0
H676 H 1.00612 0.93292 0.44111 0.0
N677 N 0.0803 0.99916 0.49635 0.0
C678 C 0.07058 0.98349 0.4771 0.0
C679 C 0.11623 1.00364 0.48089 0.0
C680 C 0.08329 0.97801 0.45851 0.0
C681 C 0.10308 0.00835 0.49899 0.0
C682 C 0.10624 0.98864 0.46041 0.0
N683 N 0.03576 0.97842 0.49393 0.0
C684 C 0.0137 0.96785 0.49383 0.0
C685 C 0.03754 0.95609 0.45645 0.0
C686 C 0.04788 0.97259 0.47607 0.0
C687 C 0.01468 0.9456 0.45592 0.0
C688 C 1.00275 0.95145 0.47473 0.0
H689 H 0.11654 0.98489 0.4465 0.0
H690 H 0.08239 0.95757 0.42435 0.0
H691 H 0.04238 0.93845 0.42252 0.0
O692 O 0.04913 0.97049 0.53654 0.0
O693 O 0.04512 0.01808 0.49047 0.0
O694 O 0.02099 0.04283 0.49915 0.0
O695 O 0.08328 0.9921 0.54492 0.0
O696 O 0.02192 1.00636 0.53842 0.0
O697 O 1.00951 0.03823 0.52564 0.0
O698 O 0.05217 0.09221 0.50557 0.0
O699 O 0.06281 0.05905 0.56156 0.0
O700 O 0.04787 0.0214 0.56114 0.0
O701 O 0.02424 0.0972 0.52481 0.0
O702 O 0.06885 0.0591 0.5115 0.0
O703 O 0.08494 0.03606 0.53462 0.0
C704 C 0.02961 0.02988 0.48384 0.0
C705 C 0.07944 0.95437 0.55652 0.0
C706 C 0.07601 0.92233 0.57969 0.0
C707 C 0.09816 0.92008 0.5759 0.0
C708 C 0.10156 0.95179 0.55298 0.0
C709 C 0.11078 0.93464 0.56251 0.0
C710 C 0.06647 0.93936 0.56968 0.0
C711 C 1.00606 0.0182 0.53366 0.0
C712 C 0.07019 0.97252 0.54599 0.0
C713 C 0.07289 0.96187 0.43881 0.0
C714 C 0.05012 0.95091 0.43781 0.0
C715 C 0.0589 0.04098 0.57276 0.0
C716 C 0.02627 0.11374 0.4888 0.0
C717 C 0.02492 0.14407 0.46341 0.0
C718 C 1.0035 0.13223 0.45207 0.0
C719 C 1.0046 0.10254 0.47747 0.0
C720 C 0.03645 0.13464 0.48169 0.0
C721 C 0.99347 0.11158 0.45901 0.0
C722 C 0.08677 0.05359 0.52258 0.0
C723 C 0.03732 0.10487 0.50943 0.0
H724 H 0.1057 0.90699 0.58338 0.0
H725 H 0.11166 0.96294 0.54263 0.0
H726 H 0.12781 0.9327 0.5596 0.0
H727 H 0.04937 0.94122 0.57257 0.0
H728 H 0.99436 0.13918 0.43802 0.0
H729 H 0.99616 0.08686 0.48308 0.0
H730 H 0.0529 0.14378 0.49073 0.0
H731 H 0.97682 0.10275 0.45031 0.0
Eu732 Eu 0.29803 0.82887 0.75286 0.0
C733 C 0.25429 0.74468 0.80633 0.0
N734 N 0.27438 0.76009 0.81227 0.0
C735 C 0.26671 0.76575 0.8531 0.0
C736 C 0.23915 0.74031 0.82349 0.0
C737 C 0.28132 0.76937 0.8357 0.0
C738 C 0.24536 0.75155 0.84688 0.0
C739 C 0.22892 0.71557 0.77735 0.0
C740 C 0.24919 0.73219 0.78342 0.0
C741 C 0.21352 0.71206 0.79414 0.0
C742 C 0.21862 0.72438 0.81711 0.0
Eu743 Eu 0.29615 0.76538 0.77987 0.0
N744 N 0.26404 0.73609 0.76709 0.0
C745 C 0.22477 0.70273 0.75459 0.0
C746 C 0.26065 0.7228 0.74544 0.0
C747 C 0.24087 0.70618 0.73869 0.0
H748 H 0.29822 0.77937 0.84143 0.0
H749 H 0.23812 0.69597 0.72129 0.0
H750 H 0.30554 0.81122 0.69388 0.0
H751 H 0.35111 0.89601 0.81788 0.0
H752 H 0.2733 0.72476 0.73353 0.0
H753 H 0.2094 0.68984 0.7493 0.0
H754 H 0.31669 0.86673 0.80177 0.0
H755 H 0.27209 0.77365 0.87145 0.0
H756 H 0.19779 0.69953 0.78967 0.0
H757 H 0.20676 0.72106 0.83003 0.0
H758 H 0.33525 0.81767 0.66834 0.0
H759 H 0.23418 0.74864 0.8605 0.0
H760 H 0.38309 0.90309 0.79387 0.0
N761 N 0.32523 0.83197 0.72518 0.0
C762 C 0.34456 0.84803 0.73318 0.0
C763 C 0.3383 0.82593 0.68669 0.0
C764 C 0.36187 0.85269 0.71835 0.0
C765 C 0.32154 0.82187 0.70179 0.0
C766 C 0.35867 0.84112 0.69508 0.0
N767 N 0.32987 0.8567 0.76989 0.0
C768 C 0.33084 0.86949 0.79152 0.0
C769 C 0.36656 0.87758 0.76419 0.0
C770 C 0.34683 0.86078 0.75585 0.0
C771 C 0.36816 0.8901 0.78688 0.0
C772 C 0.35017 0.88613 0.80052 0.0
H773 H 0.3715 0.84438 0.68316 0.0
H774 H 0.395 0.87291 0.71562 0.0
H775 H 0.39922 0.89441 0.75576 0.0
O776 O 0.28362 0.85906 0.76356 0.0
O777 O 0.33104 0.82373 0.77646 0.0
O778 O 0.3295 0.78515 0.76901 0.0
O779 O 0.28513 0.84719 0.72574 0.0
O780 O 0.28429 0.81492 0.78462 0.0
O781 O 0.30532 0.79609 0.80735 0.0
O782 O 0.3084 0.73467 0.76744 0.0
O783 O 0.26052 0.76997 0.76147 0.0
O784 O 0.26181 0.80805 0.75468 0.0
O785 O 0.32015 0.75273 0.80339 0.0
O786 O 0.30526 0.78385 0.74946 0.0
O787 O 0.28589 0.79974 0.72384 0.0
C788 C 0.341 0.8059 0.7778 0.0
C789 C 0.26856 0.88002 0.73263 0.0
C790 C 0.24975 0.91171 0.73988 0.0
C791 C 0.24771 0.91379 0.71529 0.0
C792 C 0.26634 0.88223 0.708 0.0
C793 C 0.25592 0.89903 0.69942 0.0
C794 C 0.26005 0.89474 0.74859 0.0
C795 C 0.29737 0.81432 0.80423 0.0
C796 C 0.27911 0.86184 0.74108 0.0
C797 C 0.38158 0.86925 0.7268 0.0
C798 C 0.38396 0.88157 0.74964 0.0
C799 C 0.25039 0.78705 0.75586 0.0
C800 C 0.32137 0.71385 0.79777 0.0
C801 C 0.33884 0.68089 0.79965 0.0
C802 C 0.32931 0.67674 0.82073 0.0
C803 C 0.31144 0.70926 0.81857 0.0
C804 C 0.33468 0.69934 0.78807 0.0
C805 C 0.31545 0.69073 0.82997 0.0
C806 C 0.29261 0.78169 0.72917 0.0
C807 C 0.32085 0.73524 0.78797 0.0
H808 H 0.23962 0.92681 0.7084 0.0
H809 H 0.27261 0.87096 0.69526 0.0
H810 H 0.25421 0.9006 0.68045 0.0
H811 H 0.2615 0.89314 0.7676 0.0
H812 H 0.33262 0.66265 0.83 0.0
H813 H 0.30123 0.72037 0.8264 0.0
H814 H 0.34267 0.70301 0.77223 0.0
H815 H 0.30818 0.68746 0.84625 0.0
Eu816 Eu 0.53428 0.06552 0.9901 0.0
C817 C 0.58039 0.01403 0.08162 0.0
N818 N 0.5629 1.00502 0.06396 0.0
C819 C 0.57397 0.96885 0.06233 0.0
C820 C 0.59583 1.00077 0.08987 0.0
C821 C 0.55916 0.98266 0.05473 0.0
C822 C 0.59252 0.97798 0.07985 0.0
C823 C 0.60127 0.04651 0.10946 0.0
C824 C 0.583 0.03666 0.09137 0.0
C825 C 0.61671 0.03337 0.1176 0.0
C826 C 0.614 0.01057 0.10784 0.0
Eu827 Eu 0.53856 0.02924 0.05205 0.0
N828 N 0.56813 0.04919 0.08261 0.0
C829 C 0.60359 0.06935 0.11878 0.0
C830 C 0.57016 0.07136 0.09212 0.0
C831 C 0.58789 0.08177 0.11014 0.0
H832 H 0.54431 0.97532 0.04204 0.0
H833 H 0.58938 0.0994 0.11742 0.0
H834 H 0.5291 0.11887 0.0052 0.0
H835 H 0.47795 0.99793 0.92571 0.0
H836 H 0.55827 0.08129 0.08626 0.0
H837 H 0.61737 0.07752 0.13269 0.0
H838 H 0.50921 0.01346 0.95747 0.0
H839 H 0.57094 0.95111 0.05486 0.0
H840 H 0.63085 0.04069 0.13143 0.0
H841 H 0.62605 1.00065 0.11432 0.0
H842 H 0.50453 0.14525 0.99318 0.0
H843 H 0.60398 0.96723 0.08573 0.0
H844 H 0.45318 0.02261 0.90972 0.0
N845 N 0.51097 0.09117 0.97993 0.0
C846 C 0.49363 0.08367 0.96184 0.0
C847 C 0.50121 0.12796 0.98427 0.0
C848 C 0.47919 0.09817 0.95428 0.0
C849 C 0.51497 0.11292 0.9912 0.0
C850 C 0.48324 0.12057 0.9657 0.0
N851 N 0.50371 0.04753 0.95963 0.0
C852 C 0.49929 0.02494 0.95074 0.0
C853 C 0.47135 0.05273 0.93313 0.0
C854 C 0.4899 0.06125 0.95133 0.0
C855 C 0.46727 0.02979 0.92365 0.0
C856 C 0.48121 0.01582 0.93263 0.0
H857 H 0.47255 0.13223 0.96039 0.0
H858 H 0.44984 0.10077 0.92977 0.0
H859 H 0.4429 0.06093 0.91131 0.0
O860 O 0.55803 0.06427 0.96391 0.0
O861 O 0.50108 0.05733 0.00389 0.0
O862 O 0.51295 0.02807 0.01903 0.0
O863 O 0.55738 0.09643 0.98476 0.0
O864 O 0.54236 0.02934 0.98283 0.0
O865 O 0.53911 0.00757 0.01548 0.0
O866 O 0.51945 0.03062 0.08261 0.0
O867 O 0.57403 0.04175 0.04419 0.0
O868 O 0.55052 0.05449 0.02106 0.0
O869 O 0.51775 0.99807 0.06043 0.0
O870 O 0.52717 0.06402 0.05611 0.0
O871 O 0.54015 0.08728 0.02728 0.0
C872 C 0.49755 0.04074 0.01688 0.0
C873 C 0.56541 0.09677 0.9448 0.0
C874 C 0.58066 0.09962 0.90723 0.0
C875 C 0.56629 0.11439 0.90097 0.0
C876 C 0.55071 0.11136 0.93854 0.0
C877 C 0.55125 0.12018 0.91666 0.0
C878 C 0.58024 0.09095 0.92906 0.0
C879 C 0.54227 0.01005 0.99266 0.0
C880 C 0.56511 0.08626 0.96687 0.0
C881 C 0.46108 0.08987 0.93583 0.0
C882 C 0.45715 0.0672 0.9253 0.0
C883 C 0.57146 0.05358 0.02706 0.0
C884 C 0.49659 0.99718 0.09452 0.0
C885 C 0.47379 0.99953 0.12711 0.0
C886 C 0.46443 0.97621 0.12152 0.0
C887 C 0.48738 0.9738 0.08917 0.0
C888 C 0.48994 0.00991 0.11369 0.0
C889 C 0.47137 0.96338 0.1027 0.0
C890 C 0.53185 0.08413 0.04793 0.0
C891 C 0.51174 0.00871 0.07916 0.0
H892 H 0.56655 0.12115 0.88399 0.0
H893 H 0.53884 0.11586 0.95034 0.0
H894 H 0.53993 0.1314 0.91181 0.0
H895 H 0.59142 0.07946 0.93371 0.0
H896 H 0.452 0.9679 0.1319 0.0
H897 H 0.49224 0.96366 0.07433 0.0
H898 H 0.49682 0.02802 0.11785 0.0
H899 H 0.4642 0.94538 0.09849 0.0
Eu900 Eu 0.26995 0.25001 0.25699 0.0
C901 C 0.34904 0.3302 0.31608 0.0
N902 N 0.32905 0.31819 0.32124 0.0
C903 C 0.34489 0.32108 0.36252 0.0
C904 C 0.36788 0.33781 0.33408 0.0
C905 C 0.32662 0.31408 0.34419 0.0
C906 C 0.36565 0.33288 0.35743 0.0
C907 C 0.37072 0.34882 0.28731 0.0
C908 C 0.35043 0.3358 0.29296 0.0
C909 C 0.38955 0.35607 0.30512 0.0
C910 C 0.38813 0.35061 0.32843 0.0
Eu911 Eu 0.29848 0.31058 0.28965 0.0
N912 N 0.332 0.3285 0.27597 0.0
C913 C 0.37142 0.35435 0.26394 0.0
C914 C 0.33225 0.33495 0.2536 0.0
C915 C 0.35202 0.3475 0.24706 0.0
H916 H 0.31039 0.30647 0.34879 0.0
H917 H 0.3521 0.35234 0.22917 0.0
H918 H 0.25853 0.26172 0.1996 0.0
H919 H 0.2134 0.20911 0.31542 0.0
H920 H 0.31705 0.33123 0.24108 0.0
H921 H 0.38668 0.36431 0.25891 0.0
H922 H 0.24967 0.2295 0.30529 0.0
H923 H 0.34276 0.31785 0.38069 0.0
H924 H 0.40524 0.36611 0.30111 0.0
H925 H 0.40272 0.35662 0.34206 0.0
H926 H 0.22585 0.25489 0.16835 0.0
H927 H 0.37968 0.33858 0.37177 0.0
H928 H 0.17891 0.20124 0.28552 0.0
N929 N 0.23939 0.24934 0.22672 0.0
C930 C 0.21884 0.23802 0.2314 0.0
C931 C 0.22353 0.25051 0.18612 0.0
C932 C 0.19981 0.23269 0.21338 0.0
C933 C 0.242 0.25513 0.20428 0.0
C934 C 0.20234 0.23928 0.19067 0.0
N935 N 0.23561 0.23527 0.27098 0.0
C936 C 0.23461 0.22734 0.2926 0.0
C937 C 0.19597 0.21836 0.25874 0.0
C938 C 0.21693 0.23076 0.25396 0.0
C939 C 0.19469 0.21087 0.28124 0.0
C940 C 0.21411 0.21531 0.29819 0.0
H941 H 0.18819 0.23525 0.17635 0.0
H942 H 0.16438 0.21588 0.20448 0.0
H943 H 0.16098 0.20349 0.24412 0.0
O944 O 0.26983 0.2144 0.26097 0.0
O945 O 0.24494 0.27362 0.26781 0.0
O946 O 0.2633 0.2985 0.30087 0.0
O947 O 0.2647 0.22469 0.22563 0.0
O948 O 0.28682 0.25022 0.29537 0.0
O949 O 0.28551 0.28557 0.31451 0.0
O950 O 0.28808 0.34059 0.27804 0.0
O951 O 0.32546 0.29158 0.27601 0.0
O952 O 0.3089 0.25617 0.2548 0.0
O953 O 0.30119 0.34057 0.31548 0.0
O954 O 0.27878 0.3057 0.25215 0.0
O955 O 0.28763 0.2739 0.23381 0.0
C956 C 0.24439 0.28799 0.28715 0.0
C957 C 0.27699 0.19034 0.22745 0.0
C958 C 0.29946 0.16156 0.23238 0.0
C959 C 0.29447 0.1538 0.2077 0.0
C960 C 0.27187 0.18242 0.2028 0.0
C961 C 0.28075 0.1643 0.19296 0.0
C962 C 0.29093 0.17999 0.2421 0.0
C963 C 0.28636 0.26404 0.31498 0.0
C964 C 0.26593 0.20791 0.23785 0.0
C965 C 0.17904 0.22031 0.21822 0.0
C966 C 0.17711 0.21323 0.2408 0.0
C967 C 0.32709 0.27234 0.26328 0.0
C968 C 0.27377 0.36251 0.30699 0.0
C969 C 0.25313 0.39223 0.30067 0.0
C970 C 0.24049 0.38666 0.31935 0.0
C971 C 0.26136 0.35671 0.32588 0.0
C972 C 0.26937 0.37995 0.29438 0.0
C973 C 0.24465 0.36881 0.33197 0.0
C974 C 0.2843 0.29458 0.23319 0.0
C975 C 0.29177 0.35138 0.29982 0.0
H976 H 0.30081 0.13939 0.19994 0.0
H977 H 0.26072 0.19002 0.19123 0.0
H978 H 0.27668 0.15817 0.17399 0.0
H979 H 0.295 0.18608 0.26112 0.0
H980 H 0.22794 0.39634 0.32445 0.0
H981 H 0.26459 0.34304 0.33586 0.0
H982 H 0.279 0.38432 0.27976 0.0
H983 H 0.23515 0.36455 0.3466 0.0
Eu984 Eu 0.55855 0.50324 0.02249 0.0
C985 C 0.5249 0.58681 0.07847 0.0
N986 N 0.5147 0.57117 0.05942 0.0
C987 C 0.47917 0.56741 0.07562 0.0
C988 C 0.51268 0.59273 0.09732 0.0
C989 C 0.49189 0.56237 0.05722 0.0
C990 C 0.48969 0.5824 0.09594 0.0
C991 C 0.558 0.61504 0.09735 0.0
C992 C 0.54728 0.59789 0.07852 0.0
C993 C 0.54612 0.62042 0.11652 0.0
C994 C 0.52353 0.60927 0.11652 0.0
Eu995 Eu 0.53793 0.56417 0.02932 0.0
N996 N 0.55854 0.59209 0.05997 0.0
C997 C 0.58032 0.62635 0.09622 0.0
C998 C 0.5797 0.60391 0.05801 0.0
C999 C 0.59113 0.62091 0.07633 0.0
H1000 H 0.48316 0.5521 0.04097 0.0
H1001 H 0.60813 0.62997 0.07497 0.0
H1002 H 0.61206 0.51896 0.00896 0.0
H1003 H 0.48245 0.45056 0.96843 0.0
H1004 H 0.58756 0.60038 0.04215 0.0
H1005 H 0.58918 0.63958 0.11036 0.0
H1006 H 0.50413 0.47519 0.00419 0.0
H1007 H 0.46116 0.5601 0.07388 0.0
H1008 H 0.55413 0.63341 0.13125 0.0
H1009 H 0.51444 0.61393 0.13121 0.0
H1010 H 0.63357 0.51111 0.97546 0.0
H1011 H 0.47971 0.58651 0.11004 0.0
H1012 H 0.50191 0.44099 0.9335 0.0
N1013 N 0.58049 0.49949 0.99091 0.0
C1014 C 0.56958 0.48502 0.97119 0.0
C1015 C 0.61555 0.50388 0.97393 0.0
C1016 C 0.58142 0.47977 0.9518 0.0
C1017 C 0.60319 0.50862 0.99274 0.0
C1018 C 0.60464 0.48943 0.95337 0.0
N1019 N 0.53513 0.48092 0.98908 0.0
C1020 C 0.51262 0.47187 0.98881 0.0
C1021 C 0.53472 0.46105 0.94964 0.0
C1022 C 0.54637 0.47557 0.97021 0.0
C1023 C 0.51144 0.45219 0.949 0.0
C1024 C 0.50037 0.45762 0.96866 0.0
H1025 H 0.61433 0.48569 0.93889 0.0
H1026 H 0.57873 0.4607 0.91653 0.0
H1027 H 0.53792 0.44448 0.91457 0.0
O1028 O 0.55073 0.46811 0.03117 0.0
O1029 O 0.54987 0.52075 0.9895 0.0
O1030 O 0.52018 0.53688 0.99934 0.0
O1031 O 0.58565 0.48542 0.03197 0.0
O1032 O 0.52652 0.5032 0.03991 0.0
O1033 O 0.5102 0.53203 0.02578 0.0
O1034 O 0.54693 0.58935 0.00345 0.0
O1035 O 0.55962 0.55739 0.06285 0.0
O1036 O 0.55861 0.51845 0.06115 0.0
O1037 O 0.51614 0.58732 0.02073 0.0
O1038 O 0.56983 0.5593 0.01334 0.0
O1039 O 0.58635 0.53447 0.03408 0.0
C1040 C 0.53095 0.52769 0.98325 0.0
C1041 C 0.57985 0.45456 0.05507 0.0
C1042 C 0.57333 0.42547 0.08205 0.0
C1043 C 0.59694 0.42901 0.08891 0.0
C1044 C 0.60341 0.45754 0.06232 0.0
C1045 C 0.61182 0.44487 0.07906 0.0
C1046 C 0.56472 0.43813 0.06486 0.0
C1047 C 0.50906 0.51306 0.03573 0.0
C1048 C 0.57212 0.46683 0.03533 0.0
C1049 C 0.56985 0.46501 0.93152 0.0
C1050 C 0.54659 0.45575 0.93042 0.0
C1051 C 0.56206 0.5391 0.07307 0.0
C1052 C 0.52069 0.61588 0.99395 0.0
C1053 C 0.52536 0.64816 0.97046 0.0
C1054 C 0.50301 0.65042 0.9733 0.0
C1055 C 0.49831 0.61881 0.99609 0.0
C1056 C 0.53442 0.63081 0.98098 0.0
C1057 C 0.48966 0.63589 0.98597 0.0
C1058 C 0.58763 0.55367 0.02483 0.0
C1059 C 0.52865 0.59751 0.00625 0.0
H1060 H 0.60391 0.41923 0.10179 0.0
H1061 H 0.61554 0.4694 0.05466 0.0
H1062 H 0.63001 0.44721 0.08426 0.0
H1063 H 0.54653 0.43513 0.05916 0.0
H1064 H 0.4958 0.66362 0.96563 0.0
H1065 H 0.48724 0.60786 0.00579 0.0
H1066 H 0.5517 0.62898 0.97907 0.0
H1067 H 0.47246 0.6379 0.98797 0.0
Eu1068 Eu 0.79759 0.32765 0.25664 0.0
C1069 C 0.74751 0.2426 0.30765 0.0
N1070 N 0.76765 0.25781 0.31447 0.0
C1071 C 0.7589 0.26247 0.35501 0.0
C1072 C 0.73207 0.23749 0.32437 0.0
C1073 C 0.77397 0.2666 0.33816 0.0
C1074 C 0.73775 0.24814 0.34803 0.0
C1075 C 0.72268 0.21397 0.27761 0.0
C1076 C 0.74266 0.2309 0.28427 0.0
C1077 C 0.70719 0.20954 0.29412 0.0
C1078 C 0.71181 0.22131 0.31734 0.0
Eu1079 Eu 0.79099 0.2619 0.28331 0.0
N1080 N 0.75748 0.23575 0.26808 0.0
C1081 C 0.71884 0.20191 0.25445 0.0
C1082 C 0.75446 0.2232 0.24603 0.0
C1083 C 0.7349 0.20644 0.23866 0.0
H1084 H 0.79082 0.2763 0.34475 0.0
H1085 H 0.7324 0.19681 0.22096 0.0
H1086 H 0.79685 0.31639 0.19508 0.0
H1087 H 0.85763 0.39233 0.31909 0.0
H1088 H 0.76733 0.2258 0.23437 0.0
H1089 H 0.70369 0.18884 0.2487 0.0
H1090 H 0.82129 0.36573 0.30486 0.0
H1091 H 0.76389 0.26987 0.37356 0.0
H1092 H 0.69167 0.19678 0.28919 0.0
H1093 H 0.69981 0.21734 0.32999 0.0
H1094 H 0.82407 0.3218 0.16607 0.0
H1095 H 0.7263 0.24465 0.36131 0.0
H1096 H 0.88765 0.3976 0.29246 0.0
N1097 N 0.82084 0.33304 0.22538 0.0
C1098 C 0.84162 0.34701 0.23243 0.0
C1099 C 0.82936 0.32863 0.18475 0.0
C1100 C 0.85745 0.35127 0.21591 0.0
C1101 C 0.81409 0.32515 0.20156 0.0
C1102 C 0.85128 0.34135 0.19204 0.0
N1103 N 0.83104 0.35479 0.27135 0.0
C1104 C 0.83442 0.36735 0.29344 0.0
C1105 C 0.8677 0.37371 0.26308 0.0
C1106 C 0.84673 0.35833 0.25582 0.0
C1107 C 0.87178 0.38565 0.28627 0.0
C1108 C 0.85492 0.3827 0.30138 0.0
H1109 H 0.86297 0.34421 0.17888 0.0
H1110 H 0.89099 0.36916 0.21099 0.0
H1111 H 0.89995 0.38871 0.25226 0.0
O1112 O 0.78593 0.35828 0.27119 0.0
O1113 O 0.83118 0.31996 0.27649 0.0
O1114 O 0.82789 0.2828 0.28771 0.0
O1115 O 0.77837 0.34486 0.23314 0.0
O1116 O 0.78487 0.31035 0.28694 0.0
O1117 O 0.80246 0.29136 0.3119 0.0
O1118 O 0.80539 0.23395 0.26734 0.0
O1119 O 0.7575 0.26949 0.26353 0.0
O1120 O 0.76081 0.30726 0.25513 0.0
O1121 O 0.80059 0.2369 0.30492 0.0
O1122 O 0.80506 0.27946 0.25379 0.0
O1123 O 0.78837 0.29817 0.22794 0.0
C1124 C 0.83996 0.30322 0.2853 0.0
C1125 C 0.77504 0.38279 0.24299 0.0
C1126 C 0.75425 0.41347 0.2438 0.0
C1127 C 0.7629 0.41993 0.22294 0.0
C1128 C 0.78414 0.38969 0.22245 0.0
C1129 C 0.77808 0.40826 0.21253 0.0
C1130 C 0.76059 0.39511 0.25396 0.0
C1131 C 0.79719 0.31043 0.30722 0.0
C1132 C 0.77605 0.36038 0.25004 0.0
C1133 C 0.87863 0.3659 0.22343 0.0
C1134 C 0.88373 0.37708 0.24692 0.0
C1135 C 0.74854 0.28673 0.25642 0.0
C1136 C 0.8309 0.22054 0.29446 0.0
C1137 C 0.85548 0.19303 0.29345 0.0
C1138 C 0.87208 0.20826 0.30976 0.0
C1139 C 0.84767 0.23576 0.31065 0.0
C1140 C 0.83483 0.19917 0.28593 0.0
C1141 C 0.86814 0.22952 0.31834 0.0
C1142 C 0.79382 0.27935 0.23294 0.0
C1143 C 0.80866 0.22604 0.28774 0.0
H1144 H 0.75792 0.43401 0.21479 0.0
H1145 H 0.79506 0.38013 0.21347 0.0
H1146 H 0.78465 0.41323 0.19639 0.0
H1147 H 0.75309 0.38953 0.26947 0.0
H1148 H 0.88801 0.20358 0.31596 0.0
H1149 H 0.8448 0.25226 0.31762 0.0
H1150 H 0.82188 0.18735 0.27351 0.0
H1151 H 0.88091 0.24112 0.33106 0.0
Eu1152 Eu 0.03231 0.56761 0.48909 0.0
C1153 C 0.07385 0.51414 0.57867 0.0
N1154 N 0.05767 0.50521 0.55982 0.0
C1155 C 0.07634 0.47407 0.55145 0.0
C1156 C 0.09255 0.5038 0.58419 0.0
C1157 C 0.05825 0.48512 0.5466 0.0
C1158 C 0.09378 0.48364 0.5701 0.0
C1159 C 0.08685 0.54234 0.61353 0.0
C1160 C 0.07108 0.53315 0.59297 0.0
C1161 C 0.10626 0.53297 0.61842 0.0
C1162 C 0.10908 0.51369 0.60377 0.0
Eu1163 Eu 0.03035 0.52712 0.54957 0.0
N1164 N 0.05217 0.54175 0.58758 0.0
C1165 C 0.08218 0.56011 0.62897 0.0
C1166 C 0.04635 0.55731 0.60391 0.0
C1167 C 0.06151 0.56717 0.6245 0.0
H1168 H 0.04488 0.47767 0.53212 0.0
H1169 H 0.05722 0.58018 0.6369 0.0
H1170 H 0.02261 0.61959 0.50746 0.0
H1171 H 0.995 0.50956 0.40737 0.0
H1172 H 0.03016 0.56249 0.60102 0.0
H1173 H 0.09389 0.56775 0.6449 0.0
H1174 H 0.02361 0.52524 0.44231 0.0
H1175 H 0.0769 0.45827 0.54072 0.0
H1176 H 0.11879 0.54004 0.63388 0.0
H1177 H 0.12378 0.50622 0.60811 0.0
H1178 H 0.9946 0.64321 0.4975 0.0
H1179 H 0.10784 0.47511 0.57377 0.0
H1180 H 0.9639 0.52963 0.39655 0.0
N1181 N 1.0077 0.59259 0.47968 0.0
C1182 C 0.99179 0.5854 0.46006 0.0
C1183 C 0.99348 0.62688 0.48697 0.0
C1184 C 0.97545 0.59841 0.45371 0.0
C1185 C 1.00918 0.61331 0.49272 0.0
C1186 C 0.97637 0.61929 0.46756 0.0
N1187 N 1.00785 0.55281 0.45285 0.0
C1188 C 1.0097 0.53371 0.43855 0.0
C1189 C 0.97541 0.5569 0.42595 0.0
C1190 C 0.99185 0.56495 0.44625 0.0
C1191 C 0.97628 0.53645 0.4122 0.0
C1192 C 0.99373 0.52501 0.41833 0.0
H1193 H 0.96415 0.6298 0.46323 0.0
H1194 H 0.94599 0.59991 0.42876 0.0
H1195 H 0.94587 0.5635 0.40455 0.0
O1196 O 0.05918 0.56791 0.46648 0.0
O1197 O 0.9961 0.55152 0.49085 0.0
O1198 O 0.01711 0.5411 0.51876 0.0
O1199 O 0.05208 0.59979 0.48205 0.0
O1200 O 0.03942 0.53073 0.48289 0.0
O1201 O 0.02883 0.50678 0.51235 0.0
O1202 O 0.99899 0.52548 0.56563 0.0
O1203 O 0.06421 0.53567 0.53665 0.0
O1204 O 0.05537 0.56688 0.523 0.0
O1205 O 1.00917 0.49435 0.55284 0.0
O1206 O 0.02822 0.56482 0.55876 0.0
O1207 O 0.02943 0.5868 0.52626 0.0
C1208 C 0.99671 0.54002 0.50849 0.0
C1209 C 0.06436 0.59818 0.44367 0.0
C1210 C 0.07869 0.59519 0.40528 0.0
C1211 C 0.06665 0.6116 0.39797 0.0
C1212 C 0.05234 0.61465 0.43637 0.0
C1213 C 0.05362 0.62137 0.41357 0.0
C1214 C 0.07758 0.58871 0.42814 0.0
C1215 C 0.03563 0.51056 0.49118 0.0
C1216 C 0.0632 0.58995 0.467 0.0
C1217 C 0.95881 0.59025 0.43376 0.0
C1218 C 0.95875 0.56952 0.41996 0.0
C1219 C 0.06962 0.55321 0.52524 0.0
C1220 C 0.99015 0.49426 0.58723 0.0
C1221 C 0.9825 0.49956 0.62862 0.0
C1222 C 0.97988 0.476 0.62914 0.0
C1223 C 0.98727 0.47075 0.58799 0.0
C1224 C 0.98764 0.50863 0.60763 0.0
C1225 C 0.98224 0.46171 0.6089 0.0
C1226 C 0.0277 0.58404 0.54922 0.0
C1227 C 0.99524 0.50346 0.56496 0.0
H1228 H 0.0675 0.61698 0.38036 0.0
H1229 H 0.04192 0.62219 0.4481 0.0
H1230 H 0.04443 0.63409 0.40795 0.0
H1231 H 0.08664 0.57581 0.43371 0.0
H1232 H 0.97539 0.46854 0.64501 0.0
H1233 H 0.98883 0.45936 0.57236 0.0
H1234 H 0.9896 0.52681 0.60728 0.0
H1235 H 0.97992 0.44356 0.60935 0.0
Eu1236 Eu 0.82569 0.77471 0.29172 0.0
C1237 C 0.74192 0.8041 0.23391 0.0
N1238 N 0.75518 0.81557 0.25414 0.0
C1239 C 0.75483 0.85105 0.23897 0.0
C1240 C 0.73481 0.81589 0.21519 0.0
C1241 C 0.76124 0.83871 0.25718 0.0
C1242 C 0.74166 0.8396 0.21783 0.0
C1243 C 0.72092 0.76834 0.21146 0.0
C1244 C 0.73515 0.78048 0.23198 0.0
C1245 C 0.71395 0.78008 0.19277 0.0
C1246 C 0.72093 0.80374 0.19459 0.0
Eu1247 Eu 0.76461 0.79292 0.28347 0.0
N1248 N 0.74263 0.76938 0.25005 0.0
C1249 C 0.71394 0.74476 0.21043 0.0
C1250 C 0.73493 0.74665 0.2497 0.0
C1251 C 0.72077 0.73392 0.22976 0.0
H1252 H 0.77044 0.84773 0.2739 0.0
H1253 H 0.71487 0.71581 0.22947 0.0
H1254 H 0.81482 0.71877 0.29952 0.0
H1255 H 0.88088 0.84743 0.34757 0.0
H1256 H 0.73912 0.73843 0.26497 0.0
H1257 H 0.70291 0.73485 0.19502 0.0
H1258 H 0.85344 0.82772 0.31263 0.0
H1259 H 0.75978 0.86941 0.24139 0.0
H1260 H 0.70305 0.77101 0.17685 0.0
H1261 H 0.7153 0.81253 0.18004 0.0
H1262 H 0.82408 0.69521 0.33058 0.0
H1263 H 0.73657 0.84924 0.20382 0.0
H1264 H 0.89299 0.82577 0.37969 0.0
N1265 N 0.83287 0.74991 0.31989 0.0
C1266 C 0.8474 0.75987 0.33994 0.0
C1267 C 0.83057 0.71339 0.33353 0.0
C1268 C 0.85393 0.74676 0.3577 0.0
C1269 C 0.82496 0.72693 0.31614 0.0
C1270 C 0.84502 0.72335 0.35444 0.0
N1271 N 0.84926 0.79571 0.32554 0.0
C1272 C 0.85819 0.81833 0.32685 0.0
C1273 C 0.87205 0.79371 0.36267 0.0
C1274 C 0.85629 0.78321 0.34251 0.0
C1275 C 0.88079 0.81711 0.36452 0.0
C1276 C 0.87391 0.82943 0.34648 0.0
H1277 H 0.84956 0.71273 0.36773 0.0
H1278 H 0.8746 0.74745 0.39169 0.0
H1279 H 0.89055 0.78844 0.39596 0.0
O1280 O 0.85209 0.786 0.26898 0.0
O1281 O 0.81244 0.78855 0.32599 0.0
O1282 O 0.78771 0.81227 0.31603 0.0
O1283 O 0.85355 0.75705 0.28801 0.0
O1284 O 0.82239 0.80636 0.2743 0.0
O1285 O 0.79464 0.82297 0.29005 0.0
O1286 O 0.73735 0.77984 0.30464 0.0
O1287 O 0.77994 0.78233 0.24935 0.0
O1288 O 0.8024 0.75654 0.25833 0.0
O1289 O 0.73663 0.81036 0.2883 0.0
O1290 O 0.77059 0.76344 0.30348 0.0
O1291 O 0.79508 0.74598 0.28371 0.0
C1292 C 0.80047 0.80409 0.33193 0.0
C1293 C 0.87151 0.75773 0.25306 0.0
C1294 C 0.90182 0.75601 0.22796 0.0
C1295 C 0.89269 0.73281 0.22073 0.0
C1296 C 0.86234 0.73463 0.2451 0.0
C1297 C 0.87296 0.72228 0.22906 0.0
C1298 C 0.89104 0.76851 0.24404 0.0
C1299 C 0.8143 0.82439 0.28137 0.0
C1300 C 0.86287 0.7697 0.27312 0.0
C1301 C 0.86939 0.75729 0.37792 0.0
C1302 C 0.87851 0.78064 0.38033 0.0
C1303 C 0.79086 0.76615 0.24266 0.0
C1304 C 0.71689 0.80667 0.32218 0.0
C1305 C 0.68656 0.80604 0.34808 0.0
C1306 C 0.69642 0.82859 0.3578 0.0
C1307 C 0.72634 0.82913 0.33251 0.0
C1308 C 0.6968 0.79511 0.32999 0.0
C1309 C 0.71609 0.83998 0.35007 0.0
C1310 C 0.77715 0.745 0.29508 0.0
C1311 C 0.72657 0.79637 0.30162 0.0
H1312 H 0.90083 0.72284 0.2085 0.0
H1313 H 0.8474 0.72592 0.25187 0.0
H1314 H 0.86608 0.70439 0.22339 0.0
H1315 H 0.89842 0.78624 0.25033 0.0
H1316 H 0.6887 0.83753 0.37133 0.0
H1317 H 0.7414 0.83856 0.32658 0.0
H1318 H 0.68917 0.77787 0.32201 0.0
H1319 H 0.72332 0.85741 0.35761 0.0
Eu1320 Eu 0.76408 0.29572 0.82532 0.0
C1321 C 0.81752 0.25158 0.73569 0.0
N1322 N 0.82548 0.26826 0.75449 0.0
C1323 C 0.86015 0.25447 0.76092 0.0
C1324 C 0.83048 0.23524 0.72923 0.0
C1325 C 0.84667 0.27023 0.76673 0.0
C1326 C 0.85196 0.23679 0.74222 0.0
C1327 C 0.78736 0.23342 0.70365 0.0
C1328 C 0.79623 0.25072 0.72296 0.0
C1329 C 0.80014 0.21701 0.69735 0.0
C1330 C 0.82164 0.21794 0.71007 0.0
Eu1331 Eu 0.80134 0.29385 0.76312 0.0
N1332 N 0.78393 0.26645 0.72996 0.0
C1333 C 0.76587 0.23311 0.69129 0.0
C1334 C 0.76349 0.26686 0.71721 0.0
C1335 C 0.75399 0.25004 0.69796 0.0
H1336 H 0.85348 0.28419 0.78071 0.0
H1337 H 0.7376 0.25028 0.68816 0.0
H1338 H 0.71358 0.30718 0.80738 0.0
H1339 H 0.82787 0.33766 0.90185 0.0
H1340 H 0.75457 0.28028 0.72145 0.0
H1341 H 0.75844 0.22008 0.67639 0.0
H1342 H 0.81034 0.30742 0.86949 0.0
H1343 H 0.87691 0.25605 0.77078 0.0
H1344 H 0.79357 0.20355 0.68262 0.0
H1345 H 0.83133 0.20519 0.70493 0.0
H1346 H 0.69089 0.33627 0.81689 0.0
H1347 H 0.86244 0.22458 0.73779 0.0
H1348 H 0.80875 0.36955 0.91204 0.0
N1349 N 0.74114 0.32217 0.83445 0.0
C1350 C 0.74957 0.33905 0.85279 0.0
C1351 C 0.7074 0.33731 0.82707 0.0
C1352 C 0.73731 0.35616 0.8587 0.0
C1353 C 0.72031 0.3209 0.8217 0.0
C1354 C 0.71598 0.35511 0.84557 0.0
N1355 N 0.78184 0.32237 0.85942 0.0
C1356 C 0.80187 0.32137 0.87277 0.0
C1357 C 0.77993 0.35679 0.88455 0.0
C1358 C 0.77059 0.33927 0.86553 0.0
C1359 C 0.80097 0.35637 0.89739 0.0
C1360 C 0.81185 0.33845 0.89163 0.0
H1361 H 0.706 0.36789 0.84961 0.0
H1362 H 0.73758 0.38711 0.88212 0.0
H1363 H 0.77496 0.38772 0.90471 0.0
O1364 O 0.76292 0.2689 0.84804 0.0
O1365 O 0.77303 0.32936 0.81212 0.0
O1366 O 0.80276 0.31868 0.79657 0.0
O1367 O 0.7315 0.27445 0.82944 0.0
O1368 O 0.80013 0.28717 0.83168 0.0
O1369 O 0.82258 0.29513 0.80034 0.0
O1370 O 0.7995 0.31604 0.73539 0.0
O1371 O 0.78479 0.25824 0.76748 0.0
O1372 O 0.77729 0.28135 0.79511 0.0
O1373 O 0.83281 0.31252 0.75282 0.0
O1374 O 0.7659 0.30401 0.75939 0.0
O1375 O 0.74273 0.28964 0.7879 0.0
C1376 C 0.78963 0.3335 0.79913 0.0
C1377 C 0.7311 0.26297 0.86819 0.0
C1378 C 0.73173 0.24804 0.90628 0.0
C1379 C 0.7188 0.26359 0.91461 0.0
C1380 C 0.71804 0.27848 0.87644 0.0
C1381 C 0.71171 0.27856 0.89955 0.0
C1382 C 0.73747 0.24757 0.88301 0.0
C1383 C 0.81983 0.28968 0.82236 0.0
C1384 C 0.74076 0.26397 0.84561 0.0
C1385 C 0.74668 0.37374 0.87741 0.0
C1386 C 0.76797 0.37409 0.89026 0.0
C1387 C 0.77503 0.26052 0.78623 0.0
C1388 C 0.83285 0.33763 0.72208 0.0
C1389 C 0.83023 0.36035 0.68948 0.0
C1390 C 0.85345 0.3702 0.69534 0.0
C1391 C 0.85615 0.34729 0.72766 0.0
C1392 C 0.82 0.34405 0.70279 0.0
C1393 C 0.86638 0.36353 0.71428 0.0
C1394 C 0.74582 0.2978 0.76722 0.0
C1395 C 0.82161 0.32183 0.737 0.0
H1396 H 0.7143 0.26417 0.93268 0.0
H1397 H 0.7132 0.29081 0.86536 0.0
H1398 H 0.70176 0.29058 0.90597 0.0
H1399 H 0.74805 0.23597 0.87684 0.0
H1400 H 0.86161 0.38273 0.68499 0.0
H1401 H 0.86636 0.34256 0.74254 0.0
H1402 H 0.802 0.33662 0.69825 0.0
H1403 H 0.88433 0.37101 0.71864 0.0
Eu1404 Eu 0.77076 0.74868 0.75646 0.0
C1405 C 0.84915 0.82736 0.81294 0.0
N1406 N 0.82941 0.81562 0.81892 0.0
C1407 C 0.8474 0.8167 0.85917 0.0
C1408 C 0.86899 0.83368 0.82983 0.0
C1409 C 0.82815 0.81096 0.84191 0.0
C1410 C 0.86798 0.82788 0.85305 0.0
C1411 C 0.86903 0.84763 0.78402 0.0
C1412 C 0.84917 0.8345 0.79039 0.0
C1413 C 0.88899 0.85319 0.80049 0.0
C1414 C 0.88894 0.84632 0.82337 0.0
Eu1415 Eu 0.79733 0.809 0.78898 0.0
N1416 N 0.82948 0.82943 0.77502 0.0
C1417 C 0.86803 0.85542 0.76154 0.0
C1418 C 0.82802 0.83832 0.75387 0.0
C1419 C 0.84734 0.85094 0.7465 0.0
H1420 H 0.81217 0.80382 0.84747 0.0
H1421 H 0.84614 0.85758 0.72947 0.0
H1422 H 0.75792 0.76012 0.69967 0.0
H1423 H 0.71493 0.70927 0.8173 0.0
H1424 H 0.81189 0.8361 0.74296 0.0
H1425 H 0.88293 0.86552 0.75597 0.0
H1426 H 0.75102 0.72832 0.80609 0.0
H1427 H 0.8462 0.81295 0.87734 0.0
H1428 H 0.9044 0.86329 0.79593 0.0
H1429 H 0.90431 0.85129 0.83613 0.0
H1430 H 0.72473 0.75285 0.66891 0.0
H1431 H 0.88278 0.83263 0.86659 0.0
H1432 H 0.68015 0.70067 0.7878 0.0
N1433 N 0.73945 0.74725 0.72703 0.0
C1434 C 0.71924 0.73551 0.732 0.0
C1435 C 0.72283 0.74832 0.68671 0.0
C1436 C 0.69987 0.73024 0.71441 0.0
C1437 C 0.74158 0.75307 0.70455 0.0
C1438 C 0.70186 0.73693 0.69166 0.0
N1439 N 0.73691 0.73285 0.77124 0.0
C1440 C 0.73601 0.72593 0.79338 0.0
C1441 C 0.69697 0.71638 0.76007 0.0
C1442 C 0.7179 0.72828 0.75463 0.0
C1443 C 0.69593 0.70977 0.78295 0.0
C1444 C 0.71551 0.71465 0.79968 0.0
H1445 H 0.68744 0.73295 0.67764 0.0
H1446 H 0.66431 0.7137 0.70641 0.0
H1447 H 0.66167 0.70189 0.74639 0.0
O1448 O 0.76435 0.71179 0.75298 0.0
O1449 O 0.74547 0.77257 0.76535 0.0
O1450 O 0.76352 0.79281 0.80059 0.0
O1451 O 0.77517 0.72901 0.72326 0.0
O1452 O 0.78675 0.74683 0.79463 0.0
O1453 O 0.7874 0.78282 0.81369 0.0
O1454 O 0.78018 0.83635 0.78063 0.0
O1455 O 0.82236 0.79282 0.76797 0.0
O1456 O 0.81025 0.7541 0.76627 0.0
O1457 O 0.80017 0.83825 0.81607 0.0
O1458 O 0.77783 0.80546 0.75159 0.0
O1459 O 0.78745 0.77376 0.73381 0.0
C1460 C 0.74455 0.78482 0.78598 0.0
C1461 C 0.7826 0.69243 0.72472 0.0
C1462 C 0.80379 0.6643 0.73605 0.0
C1463 C 0.80449 0.65683 0.71187 0.0
C1464 C 0.78331 0.68512 0.70042 0.0
C1465 C 0.79438 0.66742 0.69404 0.0
C1466 C 0.79318 0.68218 0.74249 0.0
C1467 C 0.78803 0.76124 0.81425 0.0
C1468 C 0.76944 0.70959 0.73112 0.0
C1469 C 0.67925 0.71804 0.71979 0.0
C1470 C 0.67777 0.71126 0.74255 0.0
C1471 C 0.8265 0.77204 0.76508 0.0
C1472 C 0.78129 0.86922 0.80946 0.0
C1473 C 0.76345 0.89976 0.79868 0.0
C1474 C 0.76473 0.90822 0.82298 0.0
C1475 C 0.78304 0.87774 0.83384 0.0
C1476 C 0.77188 0.88051 0.79197 0.0
C1477 C 0.77478 0.8973 0.84055 0.0
C1478 C 0.78296 0.79397 0.73265 0.0
C1479 C 0.78707 0.84749 0.80206 0.0
H1480 H 0.81262 0.64277 0.70687 0.0
H1481 H 0.77501 0.69285 0.68644 0.0
H1482 H 0.79477 0.66169 0.67532 0.0
H1483 H 0.79263 0.68755 0.76134 0.0
H1484 H 0.75817 0.92328 0.82826 0.0
H1485 H 0.79018 0.86899 0.84764 0.0
H1486 H 0.77044 0.87399 0.77308 0.0
H1487 H 0.77589 0.90379 0.85933 0.0
Eu1488 Eu 0.58019 0.55786 0.55663 0.0
C1489 C 0.50221 0.48089 0.49995 0.0
N1490 N 0.51547 0.50033 0.49504 0.0
C1491 C 0.51724 0.48265 0.45542 0.0
C1492 C 0.49651 0.46133 0.48272 0.0
C1493 C 0.52245 0.50162 0.47296 0.0
C1494 C 0.50431 0.46238 0.46034 0.0
C1495 C 0.48082 0.46031 0.52778 0.0
C1496 C 0.49417 0.48045 0.5223 0.0
C1497 C 0.47526 0.44089 0.51059 0.0
C1498 C 0.48299 0.44142 0.48814 0.0
Eu1499 Eu 0.51867 0.53196 0.52428 0.0
N1500 N 0.49966 0.49951 0.53876 0.0
C1501 C 0.47337 0.46025 0.55039 0.0
C1502 C 0.49158 0.4998 0.56038 0.0
C1503 C 0.47874 0.4801 0.56673 0.0
H1504 H 0.53104 0.51744 0.46822 0.0
H1505 H 0.4725 0.48039 0.584 0.0
H1506 H 0.56846 0.57008 0.61382 0.0
H1507 H 0.6287 0.61175 0.50115 0.0
H1508 H 0.494 0.51537 0.5723 0.0
H1509 H 0.46315 0.44508 0.55527 0.0
H1510 H 0.6062 0.57622 0.51107 0.0
H1511 H 0.52275 0.48383 0.43791 0.0
H1512 H 0.46489 0.42534 0.51447 0.0
H1513 H 0.47839 0.42631 0.47505 0.0
H1514 H 0.57553 0.60286 0.64496 0.0
H1515 H 0.50011 0.44777 0.44658 0.0
H1516 H 0.6365 0.64661 0.53048 0.0
N1517 N 0.58235 0.58878 0.58705 0.0
C1518 C 0.59494 0.6089 0.58285 0.0
C1519 C 0.58063 0.60493 0.62741 0.0
C1520 C 0.60037 0.62795 0.6008 0.0
C1521 C 0.57592 0.58643 0.60928 0.0
C1522 C 0.59276 0.62581 0.62312 0.0
N1523 N 0.59932 0.59142 0.54439 0.0
C1524 C 0.60856 0.5916 0.52341 0.0
C1525 C 0.61732 0.63064 0.55657 0.0
C1526 C 0.60369 0.61022 0.56105 0.0
C1527 C 0.62603 0.63122 0.53459 0.0
C1528 C 0.62163 0.6116 0.51795 0.0
H1529 H 0.59679 0.63997 0.63741 0.0
H1530 H 0.61831 0.66297 0.60999 0.0
H1531 H 0.63286 0.6654 0.5712 0.0
O1532 O 0.61288 0.54893 0.55093 0.0
O1533 O 0.56315 0.5835 0.53667 0.0
O1534 O 0.5244 0.5708 0.53409 0.0
O1535 O 0.6067 0.56188 0.58698 0.0
O1536 O 0.57748 0.54032 0.51829 0.0
O1537 O 0.54403 0.54809 0.50139 0.0
O1538 O 0.48232 0.52977 0.52387 0.0
O1539 O 0.53918 0.50431 0.53405 0.0
O1540 O 0.56981 0.52038 0.56279 0.0
O1541 O 0.49775 0.53602 0.49177 0.0
O1542 O 0.52042 0.54954 0.5622 0.0
O1543 O 0.55409 0.54239 0.57917 0.0
C1544 C 0.5421 0.58701 0.53265 0.0
C1545 C 0.64368 0.55314 0.58368 0.0
C1546 C 0.67716 0.53747 0.579 0.0
C1547 C 0.68546 0.54462 0.60327 0.0
C1548 C 0.65208 0.56079 0.60794 0.0
C1549 C 0.67303 0.55662 0.61763 0.0
C1550 C 0.65653 0.542 0.56927 0.0
C1551 C 0.56475 0.5449 0.49976 0.0
C1552 C 0.62079 0.55472 0.57365 0.0
C1553 C 0.61391 0.64827 0.59633 0.0
C1554 C 0.62226 0.64965 0.57426 0.0
C1555 C 0.55576 0.50229 0.55062 0.0
C1556 C 0.46731 0.55396 0.49948 0.0
C1557 C 0.44122 0.5765 0.51426 0.0
C1558 C 0.44492 0.59041 0.49613 0.0
C1559 C 0.47073 0.56769 0.4811 0.0
C1560 C 0.45239 0.55839 0.51581 0.0
C1561 C 0.45958 0.58588 0.47953 0.0
C1562 C 0.53383 0.54667 0.58095 0.0
C1563 C 0.47949 0.53536 0.50227 0.0
H1564 H 0.70137 0.54087 0.61099 0.0
H1565 H 0.6423 0.5695 0.61947 0.0
H1566 H 0.67937 0.56225 0.63638 0.0
H1567 H 0.64995 0.53569 0.55064 0.0
H1568 H 0.43615 0.60439 0.49453 0.0
H1569 H 0.4821 0.56451 0.46811 0.0
H1570 H 0.44959 0.54787 0.53005 0.0
H1571 H 0.46227 0.59645 0.46539 0.0
Eu1572 Eu 1.00467 0.53441 0.05994 0.0
C1573 C 0.08762 0.58241 0.00557 0.0
N1574 N 0.07256 0.56218 0.99941 0.0
C1575 C 0.06777 0.5693 0.95842 0.0
C1576 C 0.09273 0.59714 0.98828 0.0
C1577 C 0.06349 0.55504 0.976 0.0
C1578 C 0.0822 0.59055 0.96462 0.0
C1579 C 0.11529 0.60842 0.03548 0.0
C1580 C 0.0988 0.58816 0.02905 0.0
C1581 C 0.11987 0.62327 0.01837 0.0
C1582 C 0.10858 0.6177 0.9949 0.0
Eu1583 Eu 0.06706 0.54054 0.03151 0.0
N1584 N 0.09357 0.57399 0.04567 0.0
C1585 C 0.12679 0.61308 0.05892 0.0
C1586 C 0.10583 0.57752 0.06787 0.0
C1587 C 0.12229 0.59736 0.07508 0.0
H1588 H 0.05328 0.53823 0.97047 0.0
H1589 H 0.13174 0.60032 0.0929 0.0
H1590 H 0.02117 0.53187 0.11991 0.0
H1591 H 0.94237 0.47448 0.99534 0.0
H1592 H 0.10333 0.56472 0.07966 0.0
H1593 H 0.13959 0.62845 0.06452 0.0
H1594 H 0.96942 0.5105 0.01023 0.0
H1595 H 0.06022 0.56373 0.93998 0.0
H1596 H 0.13232 0.63902 0.02304 0.0
H1597 H 0.11256 0.62923 0.98184 0.0
H1598 H 0.01496 0.50438 0.14829 0.0
H1599 H 0.08565 0.60143 0.95086 0.0
H1600 H 0.93542 0.44472 0.02204 0.0
N1601 N 1.00147 0.5096 0.08981 0.0
C1602 C 0.98645 0.48942 0.08273 0.0
C1603 C 1.00716 0.49982 0.12982 0.0
C1604 C 0.98194 0.47341 0.09896 0.0
C1605 C 0.01105 0.51526 0.11329 0.0
C1606 C 0.99276 0.47873 0.12259 0.0
N1607 N 0.97916 0.50046 0.04385 0.0
C1608 C 0.96726 0.49726 0.02147 0.0
C1609 C 0.95913 0.46422 0.05185 0.0
C1610 C 0.97489 0.48485 0.05935 0.0
C1611 C 0.94767 0.46035 0.02842 0.0
C1612 C 0.95162 0.47704 0.01324 0.0
H1613 H 0.98964 0.46691 0.13557 0.0
H1614 H 0.96283 0.44038 0.10365 0.0
H1615 H 0.94304 0.43229 0.06245 0.0
O1616 O 0.97287 0.54562 0.04758 0.0
O1617 O 0.01511 0.50058 0.04436 0.0
O1618 O 0.04475 0.50483 0.02013 0.0
O1619 O 0.98414 0.54547 0.08593 0.0
O1620 O 0.01427 0.54755 0.02584 0.0
O1621 O 0.03652 0.52902 0.00442 0.0
O1622 O 0.09231 0.52385 0.04943 0.0
O1623 O 0.05865 0.57495 0.04714 0.0
O1624 O 0.02384 0.57173 0.0629 0.0
O1625 O 0.09436 0.53153 0.01302 0.0
O1626 O 0.05171 0.52886 0.06297 0.0
O1627 O 0.03448 0.54813 0.08778 0.0
C1628 C 0.02827 0.49214 0.02958 0.0
C1629 C 0.94863 0.55701 0.07708 0.0
C1630 C 0.92031 0.58047 0.07267 0.0
C1631 C 0.91305 0.57493 0.09446 0.0
C1632 C 0.94108 0.55142 0.09877 0.0
C1633 C 0.92329 0.56027 0.10732 0.0
C1634 C 0.93789 0.57123 0.06375 0.0
C1635 C 0.01685 0.53449 0.00681 0.0
C1636 C 0.96886 0.54948 0.06977 0.0
C1637 C 0.96642 0.45281 0.09138 0.0
C1638 C 0.95509 0.44821 0.06792 0.0
C1639 C 0.04286 0.58401 0.05731 0.0
C1640 C 0.10778 0.49949 0.02289 0.0
C1641 C 0.13577 0.47549 0.02064 0.0
C1642 C 0.12057 0.45993 0.0033 0.0
C1643 C 0.09254 0.48363 0.0058 0.0
C1644 C 0.12927 0.49518 0.03061 0.0
C1645 C 0.09895 0.4639 0.99611 0.0
C1646 C 0.05305 0.54212 0.08278 0.0
C1647 C 0.10264 0.52172 0.0304 0.0
H1648 H 0.89942 0.58194 0.10145 0.0
H1649 H 0.94916 0.54043 0.10929 0.0
H1650 H 0.91764 0.55601 0.12411 0.0
H1651 H 0.94377 0.57586 0.04714 0.0
H1652 H 0.12555 0.4448 0.99524 0.0
H1653 H 0.07602 0.48687 0.99934 0.0
H1654 H 0.14127 0.50756 0.04345 0.0
H1655 H 0.08733 0.45193 0.98263 0.0
H1656 H 0.01215 0.19531 0.94461 0.0
H1657 H 0.04948 0.13027 0.05635 0.0
H1658 H 0.02173 0.22762 0.01769 0.0
H1659 H 0.02644 0.09711 0.98423 0.0
H1660 H 0.04242 0.16643 0.04318 0.0
H1661 H 0.02026 0.16042 0.95905 0.0
C1662 C 0.01579 0.19515 0.96377 0.0
C1663 C 0.01595 0.21481 0.97979 0.0
C1664 C 0.03896 0.15126 0.03021 0.0
C1665 C 0.02562 0.17401 0.99683 0.0
C1666 C 0.04307 0.13048 0.03775 0.0
C1667 C 0.03842 0.11014 0.02157 0.0
C1668 C 0.0305 0.15216 0.00607 0.0
C1669 C 0.03011 0.11197 0.99763 0.0
C1670 C 0.0205 0.17502 0.97207 0.0
C1671 C 0.02122 0.21311 0.00447 0.0
N1672 N 0.02658 0.13229 0.99075 0.0
N1673 N 0.02579 0.19329 0.01213 0.0
H1674 H 0.12998 0.83752 0.18793 0.0
H1675 H 0.22069 0.76553 0.23513 0.0
H1676 H 0.14267 0.77869 0.1454 0.0
H1677 H 0.22629 0.83599 0.2622 0.0
H1678 H 0.18893 0.76807 0.2053 0.0
H1679 H 0.16225 0.83575 0.21775 0.0
C1680 C 0.13963 0.82429 0.18478 0.0
C1681 C 0.13367 0.80836 0.16394 0.0
C1682 C 0.19698 0.78297 0.21782 0.0
C1683 C 0.17038 0.80583 0.19852 0.0
C1684 C 0.215 0.78144 0.23511 0.0
C1685 C 0.22598 0.80045 0.25154 0.0
C1686 C 0.1896 0.80367 0.21693 0.0
C1687 C 0.21815 0.82084 0.25008 0.0
C1688 C 0.15806 0.82329 0.20185 0.0
C1689 C 0.14678 0.79152 0.16098 0.0
N1690 N 0.20042 0.82189 0.23322 0.0
N1691 N 0.16428 0.79055 0.17813 0.0
H1692 H 0.54835 0.85634 0.47281 0.0
H1693 H 0.48753 0.955 0.52775 0.0
H1694 H 0.48267 0.84083 0.49739 0.0
H1695 H 0.55765 0.96572 0.51489 0.0
H1696 H 0.48402 0.91394 0.51558 0.0
H1697 H 0.55083 0.89664 0.48685 0.0
C1698 C 0.53442 0.86135 0.48124 0.0
C1699 C 0.51533 0.84486 0.48396 0.0
C1700 C 0.5002 0.9253 0.51552 0.0
C1701 C 0.51787 0.89177 0.49993 0.0
C1702 C 0.50222 0.94889 0.5226 0.0
C1703 C 0.52291 0.96434 0.52265 0.0
C1704 C 0.51899 0.91681 0.50816 0.0
C1705 C 0.54122 0.95493 0.51521 0.0
C1706 C 0.53584 0.88451 0.48929 0.0
C1707 C 0.49785 0.85274 0.49506 0.0
N1708 N 0.5388 0.93212 0.50833 0.0
N1709 N 0.49945 0.87549 0.50244 0.0
H1710 H 0.5394 0.2974 0.69079 0.0
H1711 H 0.40458 0.27701 0.69366 0.0
H1712 H 0.4917 0.30136 0.62952 0.0
H1713 H 0.45351 0.27005 0.75237 0.0
H1714 H 0.43614 0.29143 0.67154 0.0
H1715 H 0.50814 0.29189 0.7149 0.0
C1716 C 0.52234 0.29736 0.68246 0.0
C1717 C 0.51815 0.29984 0.6581 0.0
C1718 C 0.43996 0.28718 0.68946 0.0
C1719 C 0.48209 0.29353 0.68571 0.0
C1720 C 0.42198 0.27923 0.70214 0.0
C1721 C 0.42659 0.27251 0.72484 0.0
C1722 C 0.46258 0.28829 0.69962 0.0
C1723 C 0.44935 0.27521 0.73494 0.0
C1724 C 0.50445 0.29419 0.69626 0.0
C1725 C 0.49565 0.29945 0.64823 0.0
N1726 N 0.46647 0.28268 0.7222 0.0
N1727 N 0.47842 0.29627 0.66206 0.0
H1728 H 0.05624 0.84003 0.69319 0.0
H1729 H 0.04101 0.88574 0.56549 0.0
H1730 H 0.0203 0.79823 0.62877 0.0
H1731 H 0.08447 0.92352 0.62784 0.0
H1732 H 0.0276 0.85576 0.58988 0.0
H1733 H 0.0618 0.87273 0.67088 0.0
C1734 C 0.04944 0.83776 0.67437 0.0
C1735 C 0.03801 0.81633 0.66277 0.0
C1736 C 0.03976 0.8708 0.59833 0.0
C1737 C 0.04415 0.85375 0.63709 0.0
C1738 C 0.0472 0.88795 0.58448 0.0
C1739 C 0.06376 0.90702 0.59481 0.0
C1740 C 0.04905 0.87284 0.62259 0.0
C1741 C 0.07161 0.90904 0.61934 0.0
C1742 C 0.05258 0.85645 0.66162 0.0
C1743 C 0.02943 0.81441 0.63836 0.0
N1744 N 0.06433 0.89208 0.63235 0.0
N1745 N 0.03276 0.83284 0.6263 0.0
H1746 H 0.4768 0.83749 0.86305 0.0
H1747 H 0.37081 0.77846 0.7652 0.0
H1748 H 0.48663 0.80176 0.7961 0.0
H1749 H 0.3697 0.84084 0.80945 0.0
H1750 H 0.41161 0.78304 0.77931 0.0
H1751 H 0.4367 0.83543 0.84716 0.0
C1752 C 0.47059 0.82919 0.84497 0.0
C1753 C 0.48546 0.81988 0.83096 0.0
C1754 C 0.40252 0.7958 0.7859 0.0
C1755 C 0.43878 0.81694 0.81268 0.0
C1756 C 0.37906 0.79318 0.77788 0.0
C1757 C 0.36642 0.80929 0.78597 0.0
C1758 C 0.41376 0.81438 0.80285 0.0
C1759 C 0.37849 0.82798 0.80249 0.0
C1760 C 0.4476 0.8281 0.83587 0.0
C1761 C 0.47609 0.80936 0.80761 0.0
N1762 N 0.40121 0.82982 0.81055 0.0
N1763 N 0.45347 0.80792 0.79941 0.0
H1764 H 0.53504 0.22128 0.11866 0.0
H1765 H 0.51253 0.08528 0.08993 0.0
H1766 H 0.51854 0.17663 0.17161 0.0
H1767 H 0.54672 0.13003 0.04468 0.0
H1768 H 0.51101 0.11837 0.11818 0.0
H1769 H 0.53568 0.18818 0.08976 0.0
C1770 C 0.53148 0.20451 0.12423 0.0
C1771 C 0.52677 0.20183 0.14773 0.0
C1772 C 0.5187 0.12099 0.10199 0.0
C1773 C 0.52733 0.16361 0.11442 0.0
C1774 C 0.51954 0.10203 0.08569 0.0
C1775 C 0.52961 0.10461 0.06451 0.0
C1776 C 0.52771 0.14298 0.09716 0.0
C1777 C 0.5384 0.12697 0.06037 0.0
C1778 C 0.53192 0.18558 0.10768 0.0
C1779 C 0.52233 0.17959 0.15378 0.0
N1780 N 0.53719 0.14518 0.07644 0.0
N1781 N 0.52263 0.1614 0.13727 0.0
H1782 H 0.12218 0.29092 0.35921 0.0
H1783 H 0.22557 0.32605 0.28244 0.0
H1784 H 0.11935 0.33994 0.30958 0.0
H1785 H 0.21166 0.26138 0.3088 0.0
H1786 H 0.18962 0.33414 0.29525 0.0
H1787 H 0.15687 0.28252 0.3442 0.0
C1788 C 0.12883 0.30006 0.34519 0.0
C1789 C 0.11742 0.31627 0.33582 0.0
C1790 C 0.19424 0.31804 0.29801 0.0
C1791 C 0.15825 0.30683 0.31854 0.0
C1792 C 0.21488 0.31338 0.29066 0.0
C1793 C 0.22172 0.29268 0.29395 0.0
C1794 C 0.18023 0.30217 0.3094 0.0
C1795 C 0.2071 0.27726 0.30523 0.0
C1796 C 0.14877 0.29515 0.33653 0.0
C1797 C 0.12723 0.32729 0.31746 0.0
N1798 N 0.18739 0.28233 0.31259 0.0
N1799 N 0.147 0.32259 0.30971 0.0
H1800 H 0.95793 0.99251 0.1893 0.0
H1801 H 1.00739 0.07614 0.10319 0.0
H1802 H 0.98616 0.06179 0.2204 0.0
H1803 H 0.0328 0.01445 0.10857 0.0
H1804 H 0.99085 0.07122 0.14099 0.0
H1805 H 0.97632 0.99976 0.15335 0.0
C1806 C 0.96797 0.00923 0.18854 0.0
C1807 C 0.97074 0.02652 0.20789 0.0
C1808 C 1.00006 0.05884 0.13373 0.0
C1809 C 0.99107 0.03503 0.1667 0.0
C1810 C 1.00931 0.06155 0.11223 0.0
C1811 C 0.02122 0.04556 0.10275 0.0
C1812 C 1.00208 0.0396 0.14511 0.0
C1813 C 0.02368 0.02713 0.11532 0.0
C1814 C 0.97843 0.01331 0.16811 0.0
C1815 C 0.98384 0.04795 0.20593 0.0
N1816 N 0.01381 0.0244 0.13559 0.0
N1817 N 0.99335 0.05172 0.18555 0.0
H1818 H 0.24802 0.63876 0.48565 0.0
H1819 H 0.27428 0.75159 0.42417 0.0
H1820 H 0.30929 0.6898 0.50775 0.0
H1821 H 0.20631 0.71479 0.42743 0.0
H1822 H 0.2897 0.72561 0.44885 0.0
H1823 H 0.23515 0.66253 0.45688 0.0
C1824 C 0.25917 0.65461 0.48375 0.0
C1825 C 0.27986 0.66236 0.49879 0.0
C1826 C 0.27143 0.72334 0.44426 0.0
C1827 C 0.26508 0.68963 0.46643 0.0
C1828 C 0.26266 0.73812 0.43034 0.0
C1829 C 0.23905 0.73529 0.42413 0.0
C1830 C 0.25644 0.70548 0.45158 0.0
C1831 C 0.2246 0.7176 0.43224 0.0
C1832 C 0.25163 0.66829 0.46766 0.0
C1833 C 0.29332 0.68329 0.49626 0.0
N1834 N 0.23356 0.70319 0.4455 0.0
N1835 N 0.28565 0.69632 0.48035 0.0
H1836 H 0.66947 0.02237 0.6749 0.0
H1837 H 0.56643 0.07112 0.61793 0.0
H1838 H 0.66266 0.09209 0.69007 0.0
H1839 H 0.58315 0.00878 0.58677 0.0
H1840 H 0.60156 0.07817 0.64579 0.0
H1841 H 0.63885 0.01669 0.64133 0.0
C1842 C 0.66213 0.03668 0.67032 0.0
C1843 C 0.66828 0.05771 0.68469 0.0
C1844 C 0.59759 0.06301 0.63277 0.0
C1845 C 0.63337 0.05136 0.64759 0.0
C1846 C 0.57748 0.05887 0.61723 0.0
C1847 C 0.57242 0.03961 0.6001 0.0
C1848 C 0.61229 0.04754 0.63119 0.0
C1849 C 0.58694 0.02404 0.59965 0.0
C1850 C 0.64458 0.03343 0.6515 0.0
C1851 C 0.65814 0.07571 0.67901 0.0
N1852 N 0.60643 0.0284 0.61505 0.0
N1853 N 0.64084 0.07206 0.66091 0.0
H1854 H 0.32057 0.3934 0.96325 0.0
H1855 H 0.30453 0.27886 0.87168 0.0
H1856 H 0.30093 0.32701 0.98519 0.0
H1857 H 0.30754 0.34568 0.85032 0.0
H1858 H 0.30742 0.29558 0.91392 0.0
H1859 H 0.31999 0.37563 0.92239 0.0
C1860 C 0.3161 0.37503 0.95947 0.0
C1861 C 0.31076 0.36168 0.9777 0.0
C1862 C 0.30757 0.30655 0.89996 0.0
C1863 C 0.3101 0.34109 0.93065 0.0
C1864 C 0.30606 0.29706 0.87593 0.0
C1865 C 0.30558 0.31093 0.85754 0.0
C1866 C 0.30909 0.33011 0.90556 0.0
C1867 C 0.30753 0.33436 0.86394 0.0
C1868 C 0.31576 0.36487 0.93607 0.0
C1869 C 0.30516 0.33794 0.97166 0.0
N1870 N 0.30924 0.34318 0.88735 0.0
N1871 N 0.30498 0.32836 0.94862 0.0
H1872 H 0.98226 0.99051 0.33165 0.0
H1873 H 0.01735 0.06395 0.46149 0.0
H1874 H 0.96864 0.05765 0.34868 0.0
H1875 H 0.0236 0.99433 0.44721 0.0
H1876 H 1.00168 0.06282 0.41959 0.0
H1877 H 0.99977 0.99226 0.37314 0.0
C1878 C 0.98319 1.00573 0.34407 0.0
C1879 C 0.97409 0.02401 0.33671 0.0
C1880 C 1.00644 0.0477 0.42556 0.0
C1881 C 0.99406 0.02613 0.3842 0.0
C1882 C 0.01518 0.04833 0.44954 0.0
C1883 C 0.02143 0.02911 0.45801 0.0
C1884 C 1.00399 0.02759 0.4097 0.0
C1885 C 0.01916 0.0095 0.44153 0.0
C1886 C 0.99309 1.00667 0.36777 0.0
C1887 C 0.97547 0.04318 0.3536 0.0
N1888 N 1.01053 0.00917 0.41819 0.0
N1889 N 0.98529 0.04375 0.37654 0.0
H1890 H 0.24005 0.67774 0.6129 0.0
H1891 H 0.3211 0.75269 0.72368 0.0
H1892 H 0.30414 0.66297 0.64141 0.0
H1893 H 0.25515 0.76481 0.69709 0.0
H1894 H 0.31367 0.71732 0.69626 0.0
H1895 H 0.24249 0.70606 0.64779 0.0
C1896 C 0.25436 0.68027 0.62694 0.0
C1897 C 0.27199 0.6685 0.62471 0.0
C1898 C 0.30073 0.72757 0.69655 0.0
C1899 C 0.2755 0.70105 0.66362 0.0
C1900 C 0.305 0.74769 0.71206 0.0
C1901 C 0.28844 0.7611 0.71259 0.0
C1902 C 0.27988 0.72118 0.68152 0.0
C1903 C 0.26811 0.75457 0.69708 0.0
C1904 C 0.25587 0.6964 0.64669 0.0
C1905 C 0.29027 0.67194 0.64293 0.0
N1906 N 0.26433 0.73487 0.68209 0.0
N1907 N 0.29183 0.68838 0.66161 0.0
H1908 H 0.64111 0.03005 0.80009 0.0
H1909 H 0.6211 0.12404 0.89974 0.0
H1910 H 0.69338 0.08787 0.83142 0.0
H1911 H 0.57578 0.05886 0.8804 0.0
H1912 H 0.64868 0.11053 0.8758 0.0
H1913 H 0.61804 0.03871 0.83146 0.0
C1914 C 0.64785 0.04429 0.81396 0.0
C1915 C 0.66894 0.05837 0.81333 0.0
C1916 C 0.6327 0.09917 0.87676 0.0
C1917 C 0.6426 0.06884 0.84853 0.0
C1918 C 0.61695 0.107 0.89005 0.0
C1919 C 0.59616 0.09265 0.8912 0.0
C1920 C 0.62736 0.07693 0.86456 0.0
C1921 C 0.59156 0.07047 0.87926 0.0
C1922 C 0.63472 0.04928 0.83177 0.0
C1923 C 0.67715 0.07659 0.83153 0.0
N1924 N 0.60702 0.06329 0.86619 0.0
N1925 N 0.6637 0.08162 0.84823 0.0
H1926 H 0.31055 0.32728 0.09094 0.0
H1927 H 0.27043 0.33343 0.22193 0.0
H1928 H 0.29626 0.38794 0.12869 0.0
H1929 H 0.30134 0.27941 0.19264 0.0
H1930 H 0.27534 0.35155 0.18562 0.0
H1931 H 0.30322 0.30754 0.12596 0.0
C1932 C 0.30588 0.33643 0.10658 0.0
C1933 C 0.30414 0.35932 0.10693 0.0
C1934 C 0.28097 0.33568 0.1871 0.0
C1935 C 0.29549 0.33681 0.14694 0.0
C1936 C 0.27811 0.32528 0.20781 0.0
C1937 C 0.28557 0.30489 0.21045 0.0
C1938 C 0.29123 0.32559 0.16871 0.0
C1939 C 0.29532 0.29511 0.19144 0.0
C1940 C 0.30171 0.32517 0.12656 0.0
C1941 C 0.29795 0.37034 0.12766 0.0
N1942 N 0.29789 0.30554 0.17142 0.0
N1943 N 0.2938 0.35899 0.14676 0.0
H1944 H 0.28726 1.00281 0.02045 0.0
H1945 H 0.16087 1.00345 0.04302 0.0
H1946 H 0.22927 0.95285 0.98444 0.0
H1947 H 0.21922 0.05362 0.07766 0.0
H1948 H 0.18466 0.98891 0.01536 0.0
H1949 H 0.2617 0.02633 0.03455 0.0
C1950 C 0.26911 0.99711 0.01497 0.0
C1951 C 0.26017 0.97575 0.00175 0.0
C1952 C 0.19222 1.00325 0.02883 0.0
C1953 C 0.23096 1.0023 0.01804 0.0
C1954 C 0.17873 0.01145 0.04465 0.0
C1955 C 0.18838 0.02946 0.06276 0.0
C1956 C 0.21548 0.01305 0.0314 0.0
C1957 C 0.21142 0.03933 0.06424 0.0
C1958 C 0.25453 0.01051 0.02308 0.0
C1959 C 0.23667 0.96913 0.99496 0.0
N1960 N 0.22431 0.03083 0.04881 0.0
N1961 N 0.22272 0.98225 0.00363 0.0
H1962 H 0.7153 0.62208 0.98656 0.0
H1963 H 0.61963 0.57417 0.06207 0.0
H1964 H 0.69942 0.66539 0.04552 0.0
H1965 H 0.6057 0.56476 0.98486 0.0
H1966 H 0.65497 0.60149 0.05958 0.0
H1967 H 0.68014 0.59453 0.98847 0.0
C1968 C 0.70432 0.62579 0.9998 0.0
C1969 C 0.71002 0.64602 0.0158 0.0
C1970 C 0.64422 0.5932 0.04325 0.0
C1971 C 0.67064 0.61448 0.01857 0.0
C1972 C 0.62436 0.57754 0.04465 0.0
C1973 C 0.61005 0.56742 0.02363 0.0
C1974 C 0.65 0.5979 0.02067 0.0
C1975 C 0.61646 0.57243 0.00141 0.0
C1976 C 0.68441 0.61014 1.00087 0.0
C1977 C 0.6954 0.65006 0.03274 0.0
N1978 N 0.63618 0.58724 1.00045 0.0
N1979 N 0.67643 0.63423 0.03392 0.0
H1980 H 0.64466 0.48362 0.26179 0.0
H1981 H 0.75982 0.43784 0.288 0.0
H1982 H 0.70179 0.51903 0.31319 0.0
H1983 H 0.71195 0.4159 0.22371 0.0
H1984 H 0.73444 0.4618 0.30338 0.0
H1985 H 0.66522 0.453 0.25339 0.0
C1986 C 0.66142 0.48477 0.27153 0.0
C1987 C 0.67169 0.50388 0.28803 0.0
C1988 C 0.72939 0.45154 0.28604 0.0
C1989 C 0.69514 0.46902 0.27865 0.0
C1990 C 0.74378 0.43792 0.27735 0.0
C1991 C 0.738 0.42549 0.25445 0.0
C1992 C 0.70908 0.45237 0.27175 0.0
C1993 C 0.71706 0.42576 0.24126 0.0
C1994 C 0.67313 0.46735 0.26671 0.0
C1995 C 0.69342 0.50463 0.30015 0.0
N1996 N 0.70334 0.43917 0.25005 0.0
N1997 N 0.70451 0.48744 0.29513 0.0
H1998 H 0.88088 0.43791 0.52074 0.0
H1999 H 0.96258 0.55805 0.52317 0.0
H2000 H 0.85758 0.49879 0.50472 0.0
H2001 H 0.98428 0.49453 0.50788 0.0
H2002 H 0.92484 0.53702 0.52796 0.0
H2003 H 0.92016 0.45937 0.52684 0.0
C2004 C 0.88406 0.45582 0.51869 0.0
C2005 C 0.86615 0.46673 0.51228 0.0
C2006 C 0.93804 0.52772 0.52411 0.0
C2007 C 0.91052 0.49105 0.51929 0.0
C2008 C 0.95942 0.53964 0.52152 0.0
C2009 C 0.97625 0.52777 0.51571 0.0
C2010 C 0.9337 0.5039 0.52055 0.0
C2011 C 0.97165 0.50406 0.51303 0.0
C2012 C 0.90636 0.46796 0.52218 0.0
C2013 C 0.87099 0.48987 0.50983 0.0
N2014 N 0.95058 0.49273 0.51542 0.0
N2015 N 0.89284 0.50131 0.51326 0.0
H2016 H 0.39997 0.09269 0.28856 0.0
H2017 H 0.29126 0.14938 0.27622 0.0
H2018 H 0.34956 0.08542 0.33742 0.0
H2019 H 0.33921 0.14892 0.22469 0.0
H2020 H 0.31484 0.13073 0.30234 0.0
H2021 H 0.38035 0.11825 0.26845 0.0
C2022 C 0.38524 0.09738 0.29569 0.0
C2023 C 0.37654 0.08763 0.31495 0.0
C2024 C 0.32018 0.13478 0.28535 0.0
C2025 C 0.35371 0.11636 0.29177 0.0
C2026 C 0.30683 0.14541 0.2705 0.0
C2027 C 0.31334 0.1504 0.24825 0.0
C2028 C 0.34004 0.1292 0.27775 0.0
C2029 C 0.33346 0.14492 0.24153 0.0
C2030 C 0.37386 0.1117 0.28401 0.0
C2031 C 0.3568 0.09309 0.32279 0.0
N2032 N 0.3461 0.13451 0.25624 0.0
N2033 N 0.34588 0.10722 0.31106 0.0
H2034 H 0.30409 0.12253 0.50925 0.0
H2035 H 0.43042 0.12756 0.56858 0.0
H2036 H 0.35284 0.18532 0.53186 0.0
H2037 H 0.38357 0.0654 0.53888 0.0
H2038 H 0.40435 0.1493 0.55003 0.0
H2039 H 0.33454 0.10147 0.51525 0.0
C2040 C 0.3213 0.13189 0.51525 0.0
C2041 C 0.32601 0.15566 0.52028 0.0
C2042 C 0.39996 0.1309 0.54707 0.0
C2043 C 0.3609 0.1317 0.52731 0.0
C2044 C 0.41486 0.11858 0.55753 0.0
C2045 C 0.40888 0.09487 0.55509 0.0
C2046 C 0.3789 0.11927 0.5345 0.0
C2047 C 0.38859 0.08376 0.54098 0.0
C2048 C 0.33869 0.11987 0.5186 0.0
C2049 C 0.34855 0.16698 0.52785 0.0
N2050 N 0.3741 0.0961 0.53143 0.0
N2051 N 0.36518 0.15485 0.53145 0.0
H2052 H 0.70151 0.60697 0.26772 0.0
H2053 H 0.74827 0.73547 0.3283 0.0
H2054 H 0.67832 0.63622 0.33126 0.0
H2055 H 0.77491 0.70411 0.26823 0.0
H2056 H 0.72312 0.69914 0.33036 0.0
H2057 H 0.72865 0.64248 0.26782 0.0
C2058 C 0.7023 0.62084 0.28183 0.0
C2059 C 0.68771 0.61872 0.29953 0.0
C2060 C 0.73457 0.70015 0.31683 0.0
C2061 C 0.71882 0.65934 0.29988 0.0
C2062 C 0.74894 0.72086 0.31567 0.0
C2063 C 0.76369 0.72271 0.2981 0.0
C2064 C 0.73478 0.68125 0.30011 0.0
C2065 C 0.76395 0.70331 0.28221 0.0
C2066 C 0.71778 0.64111 0.28187 0.0
C2067 C 0.68922 0.63726 0.31722 0.0
N2068 N 0.74955 0.68341 0.28347 0.0
N2069 N 0.70455 0.65683 0.31697 0.0
H2070 H 0.85457 0.47188 0.84268 0.0
H2071 H 0.80501 0.35363 0.76194 0.0
H2072 H 0.87637 0.45396 0.77416 0.0
H2073 H 0.79809 0.36641 0.83691 0.0
H2074 H 0.82909 0.39136 0.76459 0.0
H2075 H 0.83221 0.43353 0.84015 0.0
C2076 C 0.85456 0.45972 0.82711 0.0
C2077 C 0.86688 0.46577 0.80845 0.0
C2078 C 0.82226 0.38588 0.78044 0.0
C2079 C 0.84134 0.42242 0.80519 0.0
C2080 C 0.80867 0.36442 0.77888 0.0
C2081 C 0.80005 0.35707 0.79923 0.0
C2082 C 0.82686 0.39987 0.80256 0.0
C2083 C 0.80433 0.37173 0.82077 0.0
C2084 C 0.8419 0.43792 0.82567 0.0
C2085 C 0.86689 0.44962 0.78881 0.0
N2086 N 0.8176 0.39255 0.82191 0.0
N2087 N 0.85397 0.42854 0.78751 0.0
H2088 H 0.07798 0.88789 0.12562 0.0
H2089 H 0.04219 0.96139 0.02076 0.0
H2090 H 0.05839 0.85779 0.052 0.0
H2091 H 0.0702 0.99088 0.09303 0.0
H2092 H 0.04612 0.92364 0.03148 0.0
H2093 H 0.07351 0.92489 0.11392 0.0
C2094 C 0.07285 0.88893 0.10688 0.0
C2095 C 0.06877 0.86917 0.0899 0.0
C2096 C 0.05144 0.93833 0.04504 0.0
C2097 C 0.06337 0.91264 0.07608 0.0
C2098 C 0.04912 0.96009 0.03891 0.0
C2099 C 0.05589 0.9799 0.05585 0.0
C2100 C 0.06049 0.93582 0.06849 0.0
C2101 C 0.06482 0.97651 0.07909 0.0
C2102 C 0.07025 0.91032 0.10018 0.0
C2103 C 0.06188 0.87222 0.06592 0.0
N2104 N 0.06676 0.95524 0.0846 0.0
N2105 N 0.05943 0.89327 0.05982 0.0
H2106 H 0.96034 0.29659 0.88454 0.0
H2107 H 0.82299 0.26622 0.86174 0.0
H2108 H 0.92044 0.25673 0.9297 0.0
H2109 H 0.86484 0.30782 0.8195 0.0
H2110 H 0.85768 0.26226 0.8868 0.0
H2111 H 0.92526 0.30052 0.86083 0.0
C2112 C 0.94417 0.28845 0.8894 0.0
C2113 C 0.94353 0.27618 0.90921 0.0
C2114 C 0.85928 0.27224 0.87203 0.0
C2115 C 0.90272 0.28058 0.88167 0.0
C2116 C 0.83942 0.27456 0.85769 0.0
C2117 C 0.84079 0.28721 0.83816 0.0
C2118 C 0.88088 0.28271 0.86702 0.0
C2119 C 0.86272 0.29753 0.83395 0.0
C2120 C 0.92404 0.29078 0.87581 0.0
C2121 C 0.92188 0.26636 0.91466 0.0
N2122 N 0.8817 0.29506 0.84814 0.0
N2123 N 0.90243 0.26867 0.90096 0.0
H2124 H 0.57872 0.23162 0.55858 0.0
H2125 H 0.52673 0.10719 0.59386 0.0
H2126 H 0.54368 0.22093 0.62017 0.0
H2127 H 0.56812 0.11575 0.53673 0.0
H2128 H 0.53189 0.14867 0.60244 0.0
H2129 H 0.57418 0.18991 0.54897 0.0
C2130 C 0.57002 0.22065 0.57009 0.0
C2131 C 0.56157 0.23026 0.59029 0.0
C2132 C 0.54002 0.14157 0.58809 0.0
C2133 C 0.55633 0.18187 0.57933 0.0
C2134 C 0.53706 0.11767 0.58313 0.0
C2135 C 0.54726 0.10742 0.56468 0.0
C2136 C 0.55314 0.15594 0.57442 0.0
C2137 C 0.56035 0.12246 0.55151 0.0
C2138 C 0.56747 0.19669 0.5646 0.0
C2139 C 0.55049 0.21472 0.60437 0.0
N2140 N 0.56282 0.14567 0.55653 0.0
N2141 N 0.54824 0.19168 0.59868 0.0
H2142 H 0.58918 0.78472 0.44744 0.0
H2143 H 0.64341 0.7885 0.32377 0.0
H2144 H 0.54767 0.77453 0.37861 0.0
H2145 H 0.68202 0.79944 0.39415 0.0
H2146 H 0.60806 0.77882 0.34214 0.0
H2147 H 0.62305 0.78659 0.42719 0.0
C2148 C 0.58717 0.78287 0.42801 0.0
C2149 C 0.56548 0.77961 0.41477 0.0
C2150 C 0.62431 0.78301 0.3535 0.0
C2151 C 0.60456 0.78173 0.39119 0.0
C2152 C 0.64448 0.78828 0.34299 0.0
C2153 C 0.66567 0.79486 0.3575 0.0
C2154 C 0.62542 0.78435 0.37867 0.0
C2155 C 0.66605 0.79456 0.38232 0.0
C2156 C 0.60659 0.78387 0.41639 0.0
C2157 C 0.56405 0.77718 0.38957 0.0
N2158 N 0.64634 0.78964 0.39207 0.0
N2159 N 0.5833 0.77841 0.37859 0.0
H2160 H 0.0373 0.28349 0.4331 0.0
H2161 H 0.05249 0.1536 0.42894 0.0
H2162 H 0.05811 0.24641 0.37268 0.0
H2163 H 0.01668 0.18525 0.48058 0.0
H2164 H 0.06062 0.18956 0.41178 0.0
H2165 H 0.03455 0.24952 0.45379 0.0
C2166 C 0.04139 0.26822 0.42424 0.0
C2167 C 0.04775 0.26773 0.40104 0.0
C2168 C 0.05125 0.18876 0.42707 0.0
C2169 C 0.04509 0.22887 0.42481 0.0
C2170 C 0.04684 0.16833 0.437 0.0
C2171 C 0.03414 0.16662 0.45633 0.0
C2172 C 0.04278 0.2076 0.43647 0.0
C2173 C 0.02679 0.18603 0.46586 0.0
C2174 C 0.03982 0.24883 0.43606 0.0
C2175 C 0.05285 0.24746 0.39042 0.0
N2176 N 0.03111 0.20566 0.45579 0.0
N2177 N 0.05149 0.22892 0.40239 0.0
H2178 H 0.6077 0.30494 0.21663 0.0
H2179 H 0.71509 0.2473 0.25186 0.0
H2180 H 0.59978 0.23718 0.23619 0.0
H2181 H 0.72187 0.3186 0.24644 0.0
H2182 H 0.67359 0.24266 0.24477 0.0
H2183 H 0.64917 0.30965 0.22588 0.0
C2184 C 0.61458 0.29102 0.22304 0.0
C2185 C 0.59975 0.27063 0.22571 0.0
C2186 C 0.68407 0.25938 0.24521 0.0
C2187 C 0.6482 0.27589 0.2361 0.0
C2188 C 0.70803 0.26207 0.24953 0.0
C2189 C 0.72263 0.28339 0.25047 0.0
C2190 C 0.67403 0.27814 0.24118 0.0
C2191 C 0.71179 0.30171 0.24614 0.0
C2192 C 0.63846 0.29375 0.22831 0.0
C2193 C 0.61019 0.2533 0.23399 0.0
N2194 N 0.68846 0.29866 0.24169 0.0
N2195 N 0.63353 0.25627 0.23869 0.0
H2196 H 0.55886 0.87356 0.93828 0.0
H2197 H 0.54729 1.00511 0.94393 0.0
H2198 H 0.55478 0.90719 0.87493 0.0
H2199 H 0.54317 0.96654 0.00368 0.0
H2200 H 0.55143 0.9708 0.91847 0.0
H2201 H 0.55521 0.90849 0.96245 0.0
C2202 C 0.55732 0.88832 0.92938 0.0
C2203 C 0.55724 0.8872 0.90436 0.0
C2204 C 0.54976 0.96992 0.93724 0.0
C2205 C 0.55285 0.92785 0.93234 0.0
C2206 C 0.54738 0.98961 0.95192 0.0
C2207 C 0.54506 0.98921 0.97649 0.0
C2208 C 0.5501 0.94947 0.94705 0.0
C2209 C 0.54521 0.96825 0.98529 0.0
C2210 C 0.55515 0.90837 0.94328 0.0
C2211 C 0.55508 0.90712 0.8941 0.0
N2212 N 0.54775 0.94952 0.97079 0.0
N2213 N 0.55297 0.9265 0.90804 0.0
H2214 H 0.9571 0.78826 0.70476 0.0
H2215 H 0.84948 0.73585 0.7697 0.0
H2216 H 0.96194 0.73696 0.75132 0.0
H2217 H 0.85829 0.80185 0.74566 0.0
H2218 H 0.88801 0.73297 0.7599 0.0
H2219 H 0.91935 0.7905 0.71605 0.0
C2220 C 0.95036 0.77741 0.71745 0.0
C2221 C 0.96335 0.76246 0.72706 0.0
C2222 C 0.88154 0.74811 0.7568 0.0
C2223 C 0.91876 0.76472 0.74003 0.0
C2224 C 0.85934 0.74975 0.76234 0.0
C2225 C 0.85014 0.76923 0.7588 0.0
C2226 C 0.8949 0.76581 0.74697 0.0
C2227 C 0.86427 0.78654 0.7491 0.0
C2228 C 0.92857 0.77875 0.72394 0.0
C2229 C 0.95303 0.74889 0.7434 0.0
N2230 N 0.88546 0.78434 0.74346 0.0
N2231 N 0.93153 0.75022 0.74914 0.0
H2232 H 0.14416 0.04555 0.8792 0.0
H2233 H 0.04428 0.06035 0.95885 0.0
H2234 H 0.08094 0.06299 0.85186 0.0
H2235 H 0.10372 0.03553 0.98515 0.0
H2236 H 0.05841 0.06279 0.92033 0.0
H2237 H 0.13066 0.04319 0.91838 0.0
C2238 C 0.12741 0.0489 0.88141 0.0
C2239 C 0.11364 0.05446 0.8621 0.0
C2240 C 0.06841 0.05676 0.93443 0.0
C2241 C 0.09808 0.05183 0.90716 0.0
C2242 C 0.06032 0.05529 0.95657 0.0
C2243 C 0.07267 0.04745 0.97541 0.0
C2244 C 0.08921 0.05053 0.93084 0.0
C2245 C 0.09352 0.04154 0.9712 0.0
C2246 C 0.11972 0.04752 0.90384 0.0
C2247 C 0.09212 0.05861 0.86614 0.0
N2248 N 0.10112 0.04319 0.9494 0.0
N2249 N 0.08505 0.05724 0.88817 0.0
H2250 H 0.79183 0.36809 0.54375 0.0
H2251 H 0.8216 0.40199 0.68328 0.0
H2252 H 0.78972 0.43427 0.5798 0.0
H2253 H 0.80885 0.3326 0.64937 0.0
H2254 H 0.80469 0.41317 0.64624 0.0
H2255 H 0.79336 0.35354 0.58242 0.0
C2256 C 0.79121 0.37941 0.55979 0.0
C2257 C 0.79092 0.40242 0.55877 0.0
C2258 C 0.80524 0.39542 0.64695 0.0
C2259 C 0.79273 0.38604 0.60287 0.0
C2260 C 0.81495 0.38914 0.668 0.0
C2261 C 0.81694 0.36655 0.6689 0.0
C2262 C 0.79808 0.37902 0.62663 0.0
C2263 C 0.80777 0.35028 0.64904 0.0
C2264 C 0.79205 0.37112 0.58183 0.0
C2265 C 0.79024 0.41646 0.57996 0.0
N2266 N 0.79912 0.35692 0.62843 0.0
N2267 N 0.79145 0.40809 0.60124 0.0
H2268 H 0.408 0.04469 0.40322 0.0
H2269 H 0.50562 0.99635 0.47416 0.0
H2270 H 0.45003 1.00274 0.37055 0.0
H2271 H 0.4836 0.05766 0.49972 0.0
H2272 H 0.47538 0.98947 0.44022 0.0
H2273 H 0.42637 0.04047 0.4429 0.0
C2274 C 0.42089 0.03439 0.40452 0.0
C2275 C 0.42812 0.0245 0.38395 0.0
C2276 C 0.477 1.00423 0.45349 0.0
C2277 C 0.44846 0.01926 0.4285 0.0
C2278 C 0.49425 0.00822 0.4726 0.0
C2279 C 0.49707 0.02774 0.4892 0.0
C2280 C 0.46287 0.02005 0.45105 0.0
C2281 C 0.4819 0.04253 0.48697 0.0
C2282 C 0.43122 0.03193 0.42699 0.0
C2283 C 0.44456 0.01109 0.38619 0.0
N2284 N 0.46545 0.0385 0.46791 0.0
N2285 N 0.45437 0.00897 0.40821 0.0
H2286 H 0.76507 0.7474 0.08563 0.0
H2287 H 0.8062 0.72966 0.22142 0.0
H2288 H 0.79507 0.69119 0.10457 0.0
H2289 H 0.77209 0.78367 0.20379 0.0
H2290 H 0.80321 0.71616 0.17863 0.0
H2291 H 0.76818 0.76164 0.12854 0.0
C2292 C 0.77239 0.7381 0.09877 0.0
C2293 C 0.77983 0.71807 0.09139 0.0
C2294 C 0.79623 0.73089 0.18409 0.0
C2295 C 0.78348 0.73427 0.14065 0.0
C2296 C 0.79795 0.73865 0.20863 0.0
C2297 C 0.7891 0.75772 0.21649 0.0
C2298 C 0.78562 0.74223 0.16703 0.0
C2299 C 0.77878 0.76867 0.19881 0.0
C2300 C 0.77412 0.74621 0.1233 0.0
C2301 C 0.78908 0.7067 0.10932 0.0
N2302 N 0.77731 0.76079 0.17503 0.0
N2303 N 0.79065 0.71493 0.13297 0.0
H2304 H 0.08873 0.01589 0.72143 0.0
H2305 H 0.08949 0.07569 0.60108 0.0
H2306 H 0.11941 0.08609 0.71975 0.0
H2307 H 0.04894 0.00948 0.60399 0.0
H2308 H 0.10218 0.07893 0.64403 0.0
H2309 H 0.07554 0.01227 0.67824 0.0
C2310 C 0.09254 0.03059 0.71205 0.0
C2311 C 0.10495 0.05142 0.72439 0.0
C2312 C 0.09041 0.06371 0.63536 0.0
C2313 C 0.09023 0.04729 0.67473 0.0
C2314 C 0.08295 0.06196 0.61077 0.0
C2315 C 0.06752 0.04262 0.59885 0.0
C2316 C 0.08276 0.04578 0.64832 0.0
C2317 C 0.06059 0.02488 0.61237 0.0
C2318 C 0.08505 0.0285 0.68735 0.0
C2319 C 0.10962 0.06979 0.71114 0.0
N2320 N 0.06821 0.02689 0.63629 0.0
N2321 N 0.10236 0.06728 0.68714 0.0
H2322 H 0.78681 0.42061 0.40994 0.0
H2323 H 0.83444 0.32167 0.34052 0.0
H2324 H 0.828 0.37841 0.44352 0.0
H2325 H 0.7732 0.34363 0.31439 0.0
H2326 H 0.84147 0.35232 0.37405 0.0
H2327 H 0.79079 0.40156 0.37054 0.0
C2328 C 0.79686 0.4075 0.40892 0.0
C2329 C 0.8067 0.40055 0.42971 0.0
C2330 C 0.82675 0.35065 0.36069 0.0
C2331 C 0.81166 0.37939 0.38538 0.0
C2332 C 0.82272 0.33321 0.34176 0.0
C2333 C 0.80319 0.3303 0.32508 0.0
C2334 C 0.81093 0.36482 0.36292 0.0
C2335 C 0.78845 0.34554 0.32707 0.0
C2336 C 0.7992 0.39679 0.38659 0.0
C2337 C 0.81976 0.38377 0.42775 0.0
N2338 N 0.79251 0.36216 0.34596 0.0
N2339 N 0.82176 0.37359 0.40585 0.0
H2340 H 0.39521 0.03885 0.23357 0.0
H2341 H 0.50123 0.02664 0.16468 0.0
H2342 H 0.46359 0.04459 0.26895 0.0
H2343 H 0.43081 1.00328 0.13446 0.0
H2344 H 0.48897 0.04491 0.2005 0.0
H2345 H 0.40971 0.03785 0.195 0.0
C2346 C 0.41335 0.04021 0.23321 0.0
C2347 C 0.42824 0.04125 0.25429 0.0
C2348 C 0.47625 0.0361 0.18584 0.0
C2349 C 0.44481 0.04001 0.21039 0.0
C2350 C 0.4832 0.02572 0.16551 0.0
C2351 C 0.46688 0.01303 0.14712 0.0
C2352 C 0.4529 0.03381 0.18749 0.0
C2353 C 0.4438 0.01244 0.14869 0.0
C2354 C 0.4216 0.03969 0.21122 0.0
C2355 C 0.45158 0.04342 0.25296 0.0
N2356 N 0.43744 0.0225 0.16873 0.0
N2357 N 0.45917 0.04233 0.23122 0.0
H2358 H 0.77258 0.6806 0.93281 0.0
H2359 H 0.7777 0.78343 0.85525 0.0
H2360 H 0.78194 0.75041 0.96472 0.0
H2361 H 0.79379 0.71955 0.82794 0.0
H2362 H 0.77573 0.77063 0.89434 0.0
H2363 H 0.77656 0.69345 0.89358 0.0
C2364 C 0.77542 0.69867 0.93159 0.0
C2365 C 0.77685 0.71447 0.95218 0.0
C2366 C 0.77991 0.75945 0.87992 0.0
C2367 C 0.78135 0.72926 0.90707 0.0
C2368 C 0.78128 0.76681 0.85746 0.0
C2369 C 0.78671 0.75287 0.83817 0.0
C2370 C 0.78331 0.73763 0.88329 0.0
C2371 C 0.78993 0.73106 0.84225 0.0
C2372 C 0.7778 0.70597 0.90915 0.0
C2373 C 0.78068 0.73764 0.9494 0.0
N2374 N 0.78809 0.72408 0.86431 0.0
N2375 N 0.78264 0.74431 0.92727 0.0
H2376 H 0.81415 0.07223 0.06396 0.0
H2377 H 0.93476 0.11838 0.03553 0.0
H2378 H 0.85045 0.1408 0.08928 0.0
H2379 H 0.90736 0.04657 0.03203 0.0
H2380 H 0.9066 0.12631 0.06157 0.0
H2381 H 0.8504 0.06085 0.05987 0.0
C2382 C 0.82981 0.0847 0.06931 0.0
C2383 C 0.82949 0.10756 0.07612 0.0
C2384 C 0.90706 0.10878 0.05552 0.0
C2385 C 0.87064 0.09497 0.07116 0.0
C2386 C 0.92285 0.10435 0.04041 0.0
C2387 C 0.92285 0.08192 0.03128 0.0
C2388 C 0.89099 0.09061 0.06101 0.0
C2389 C 0.90764 0.06416 0.03855 0.0
C2390 C 0.8505 0.07825 0.06701 0.0
C2391 C 0.8501 0.12309 0.08324 0.0
N2392 N 0.892 0.06891 0.05271 0.0
N2393 N 0.86994 0.11663 0.07997 0.0
H2394 H 0.3645 0.46282 0.03469 0.0
H2395 H 0.49975 0.47755 0.06173 0.0
H2396 H 0.3974 0.41285 0.06519 0.0
H2397 H 0.46671 0.51805 0.01617 0.0
H2398 H 0.46247 0.45529 0.06583 0.0
H2399 H 0.40186 0.48521 0.0309 0.0
C2400 C 0.37961 0.45665 0.0408 0.0
C2401 C 0.37787 0.43599 0.0504 0.0
C2402 C 0.46338 0.46918 0.05511 0.0
C2403 C 0.42069 0.46154 0.04604 0.0
C2404 C 0.48466 0.48196 0.05279 0.0
C2405 C 0.48641 0.50012 0.03906 0.0
C2406 C 0.4436 0.47464 0.04375 0.0
C2407 C 0.46623 0.50476 0.02762 0.0
C2408 C 0.40093 0.46939 0.03849 0.0
C2409 C 0.398 0.42872 0.05777 0.0
N2410 N 0.44567 0.49218 0.03032 0.0
N2411 N 0.41859 0.44152 0.0555 0.0
H2412 H 0.38416 0.56356 0.73686 0.0
H2413 H 0.38074 0.67831 0.82022 0.0
H2414 H 0.42673 0.58877 0.80433 0.0
H2415 H 0.3307 0.65049 0.75887 0.0
H2416 H 0.40255 0.64932 0.8093 0.0
H2417 H 0.36816 0.59821 0.74014 0.0
C2418 C 0.39012 0.57636 0.75232 0.0
C2419 C 0.4066 0.57322 0.77048 0.0
C2420 C 0.38691 0.6496 0.79804 0.0
C2421 C 0.38868 0.61273 0.77421 0.0
C2422 C 0.37458 0.66617 0.80424 0.0
C2423 C 0.35387 0.66633 0.7906 0.0
C2424 C 0.37818 0.63287 0.77829 0.0
C2425 C 0.34658 0.65059 0.76988 0.0
C2426 C 0.38109 0.59612 0.75412 0.0
C2427 C 0.41396 0.59041 0.78998 0.0
N2428 N 0.35857 0.63415 0.76451 0.0
N2429 N 0.40487 0.60932 0.79136 0.0
H2430 H 0.20369 0.62898 0.51761 0.0
H2431 H 0.09705 0.56307 0.56706 0.0
H2432 H 0.20947 0.58467 0.5721 0.0
H2433 H 0.09566 0.56744 0.4913 0.0
H2434 H 0.1375 0.58038 0.57318 0.0
H2435 H 0.16228 0.61489 0.51117 0.0
C2436 C 0.19613 0.61625 0.5281 0.0
C2437 C 0.20958 0.60766 0.54522 0.0
C2438 C 0.12825 0.57751 0.55524 0.0
C2439 C 0.16319 0.59229 0.53848 0.0
C2440 C 0.10541 0.56754 0.55173 0.0
C2441 C 0.09349 0.56352 0.52858 0.0
C2442 C 0.13889 0.58365 0.53545 0.0
C2443 C 0.10448 0.57039 0.50933 0.0
C2444 C 0.17276 0.60831 0.52443 0.0
C2445 C 0.19944 0.59133 0.55853 0.0
N2446 N 0.12688 0.58018 0.51315 0.0
N2447 N 0.1766 0.58423 0.55501 0.0
H2448 H 0.68162 0.98007 0.74012 0.0
H2449 H 0.78446 0.91967 0.76427 0.0
H2450 H 0.75206 0.0098 0.73686 0.0
H2451 H 0.71943 0.90352 0.79021 0.0
H2452 H 0.76839 0.94275 0.73641 0.0
H2453 H 0.69152 0.9429 0.73983 0.0
C2454 C 0.69913 0.97868 0.73884 0.0
C2455 C 0.71633 0.99796 0.7395 0.0
C2456 C 0.75751 0.93365 0.74776 0.0
C2457 C 0.72757 0.95573 0.73907 0.0
C2458 C 0.76668 0.92079 0.7637 0.0
C2459 C 0.75331 0.91085 0.77999 0.0
C2460 C 0.73498 0.93635 0.74838 0.0
C2461 C 0.73031 0.91192 0.77843 0.0
C2462 C 0.70468 0.95745 0.73845 0.0
C2463 C 0.73853 0.99528 0.73718 0.0
N2464 N 0.72187 0.92489 0.76309 0.0
N2465 N 0.74369 0.97445 0.73762 0.0
H2466 H 0.77393 0.95686 0.56607 0.0
H2467 H 0.64397 0.94125 0.51186 0.0
H2468 H 0.73279 0.89327 0.53072 0.0
H2469 H 0.68339 1.00408 0.55049 0.0
H2470 H 0.67432 0.92174 0.5248 0.0
H2471 H 0.73972 0.97326 0.56549 0.0
C2472 C 0.75766 0.94637 0.55821 0.0
C2473 C 0.75614 0.92377 0.54823 0.0
C2474 C 0.67617 0.93967 0.53102 0.0
C2475 C 0.71701 0.94231 0.54754 0.0
C2476 C 0.65874 0.9507 0.52386 0.0
C2477 C 0.66136 0.97418 0.53022 0.0
C2478 C 0.69646 0.95238 0.54427 0.0
C2479 C 0.68083 0.98588 0.54541 0.0
C2480 C 0.73813 0.95566 0.55803 0.0
C2481 C 0.73467 0.91079 0.53855 0.0
N2482 N 0.69791 0.97493 0.55159 0.0
N2483 N 0.71597 0.92032 0.53823 0.0
H2484 H 0.36665 0.45762 0.74221 0.0
H2485 H 0.34245 0.35451 0.81697 0.0
H2486 H 0.41992 0.44185 0.79094 0.0
H2487 H 0.31552 0.34559 0.74208 0.0
H2488 H 0.36622 0.39104 0.81194 0.0
H2489 H 0.34257 0.42063 0.74577 0.0
C2490 C 0.37327 0.44638 0.75358 0.0
C2491 C 0.39535 0.4527 0.76618 0.0
C2492 C 0.35505 0.3811 0.79664 0.0
C2493 C 0.36783 0.41096 0.77078 0.0
C2494 C 0.3416 0.3603 0.79947 0.0
C2495 C 0.3276 0.34691 0.77973 0.0
C2496 C 0.35362 0.389 0.77417 0.0
C2497 C 0.32647 0.35539 0.75759 0.0
C2498 C 0.35959 0.42534 0.75555 0.0
C2499 C 0.40308 0.43756 0.78076 0.0
N2500 N 0.33921 0.37606 0.7554 0.0
N2501 N 0.38926 0.41752 0.78288 0.0
H2502 H 0.20869 0.63338 0.23339 0.0
H2503 H 0.27943 0.73774 0.32143 0.0
H2504 H 0.24036 0.62594 0.30357 0.0
H2505 H 0.2361 0.74228 0.25726 0.0
H2506 H 0.26084 0.69776 0.31969 0.0
H2507 H 0.21595 0.67409 0.24452 0.0
C2508 C 0.21723 0.64043 0.25121 0.0
C2509 C 0.22405 0.6265 0.26763 0.0
C2510 C 0.25477 0.70776 0.30653 0.0
C2511 C 0.23213 0.67303 0.28071 0.0
C2512 C 0.26517 0.73052 0.30771 0.0
C2513 C 0.25897 0.74286 0.28943 0.0
C2514 C 0.23855 0.69775 0.28673 0.0
C2515 C 0.24098 0.73308 0.27164 0.0
C2516 C 0.22115 0.66366 0.25769 0.0
C2517 C 0.23511 0.63633 0.2904 0.0
N2518 N 0.23155 0.71087 0.27048 0.0
N2519 N 0.23895 0.65921 0.29632 0.0
H2520 H 0.5498 0.7171 0.47058 0.0
H2521 H 0.50142 0.60238 0.52586 0.0
H2522 H 0.48531 0.70571 0.49793 0.0
H2523 H 0.57293 0.6241 0.52124 0.0
H2524 H 0.49457 0.63818 0.51251 0.0
H2525 H 0.55793 0.6822 0.48576 0.0
C2526 C 0.53735 0.70734 0.47989 0.0
C2527 C 0.51685 0.7147 0.48304 0.0
C2528 C 0.51182 0.63526 0.51455 0.0
C2529 C 0.52592 0.67387 0.50026 0.0
C2530 C 0.51582 0.61462 0.52222 0.0
C2531 C 0.53793 0.60974 0.52508 0.0
C2532 C 0.52991 0.6516 0.50914 0.0
C2533 C 0.5556 0.62674 0.51967 0.0
C2534 C 0.54202 0.6873 0.48859 0.0
C2535 C 0.50138 0.70099 0.49513 0.0
N2536 N 0.55122 0.64657 0.51193 0.0
N2537 N 0.50613 0.68139 0.50303 0.0
H2538 H 0.64087 0.27521 0.64417 0.0
H2539 H 0.72983 0.33591 0.75788 0.0
H2540 H 0.63007 0.33472 0.68711 0.0
H2541 H 0.71557 0.26325 0.7387 0.0
H2542 H 0.69741 0.33836 0.72834 0.0
H2543 H 0.67275 0.27309 0.6744 0.0
C2544 C 0.6454 0.28802 0.65977 0.0
C2545 C 0.6328 0.30524 0.66301 0.0
C2546 C 0.70131 0.32187 0.73069 0.0
C2547 C 0.66946 0.30301 0.69764 0.0
C2548 C 0.71975 0.32048 0.74754 0.0
C2549 C 0.72524 0.29934 0.75085 0.0
C2550 C 0.68865 0.30204 0.71649 0.0
C2551 C 0.71175 0.27985 0.73687 0.0
C2552 C 0.66347 0.28668 0.67712 0.0
C2553 C 0.6393 0.32118 0.68383 0.0
N2554 N 0.6943 0.28169 0.72012 0.0
N2555 N 0.65724 0.31981 0.70019 0.0
H2556 H 1.01034 0.3578 0.94652 0.0
H2557 H 0.02673 0.45761 0.05834 0.0
H2558 H 0.01779 0.34389 0.01979 0.0
H2559 H 0.02047 0.46841 0.98413 0.0
H2560 H 0.0227 0.4164 0.04567 0.0
H2561 H 0.01279 0.39794 0.9607 0.0
C2562 C 0.01261 0.36314 0.96568 0.0
C2563 C 0.01392 0.34708 0.98186 0.0
C2564 C 0.02193 0.42772 0.03212 0.0
C2565 C 0.01695 0.39402 0.99857 0.0
C2566 C 0.02415 0.45132 0.03937 0.0
C2567 C 0.02392 0.46671 0.0223 0.0
C2568 C 0.01903 0.41916 0.00751 0.0
C2569 C 0.02087 0.4574 0.99798 0.0
C2570 C 0.01398 0.38627 0.97382 0.0
C2571 C 0.01661 0.35543 0.00653 0.0
N2572 N 0.01847 0.43449 0.99142 0.0
N2573 N 0.01814 0.37818 0.01407 0.0
H2574 H 0.03311 0.77379 0.17825 0.0
H2575 H 0.90865 0.79218 0.20228 0.0
H2576 H 0.99706 0.81649 0.13893 0.0
H2577 H 0.94276 0.74325 0.23295 0.0
H2578 H 0.94231 0.80507 0.18242 0.0
H2579 H 1.00127 0.7654 0.20119 0.0
C2580 C 0.01852 0.78161 0.17466 0.0
C2581 C 0.01771 0.79594 0.1568 0.0
C2582 C 0.94248 0.79167 0.19369 0.0
C2583 C 0.98113 0.78657 0.18318 0.0
C2584 C 0.9234 0.78447 0.20513 0.0
C2585 C 0.92297 0.76653 0.21901 0.0
C2586 C 0.96124 0.78094 0.19643 0.0
C2587 C 0.94239 0.75697 0.22214 0.0
C2588 C 1.0003 0.77678 0.18773 0.0
C2589 C 0.99826 0.8053 0.15255 0.0
N2590 N 0.96066 0.76422 0.21086 0.0
N2591 N 0.98071 0.80052 0.16574 0.0
H2592 H 0.53752 0.34119 0.18973 0.0
H2593 H 0.54806 0.38399 0.0612 0.0
H2594 H 0.52185 0.29583 0.12316 0.0
H2595 H 0.56693 0.42727 0.12881 0.0
H2596 H 0.53273 0.35229 0.08265 0.0
H2597 H 0.54343 0.37351 0.16703 0.0
C2598 C 0.53508 0.33804 0.1703 0.0
C2599 C 0.52922 0.31577 0.15834 0.0
C2600 C 0.5398 0.36885 0.09274 0.0
C2601 C 0.53607 0.35281 0.13209 0.0
C2602 C 0.54827 0.38696 0.08047 0.0
C2603 C 0.55859 0.40824 0.09331 0.0
C2604 C 0.54178 0.37212 0.11799 0.0
C2605 C 0.55895 0.41114 0.1183 0.0
C2606 C 0.53848 0.35652 0.15731 0.0
C2607 C 0.52638 0.31273 0.13312 0.0
N2608 N 0.5509 0.39328 0.12981 0.0
N2609 N 0.52997 0.33102 0.12083 0.0
H2610 H 0.97743 0.33849 0.36468 0.0
H2611 H 0.86839 0.27422 0.27414 0.0
H2612 H 0.98518 0.29761 0.29997 0.0
H2613 H 0.86991 0.34004 0.31278 0.0
H2614 H 0.90961 0.27896 0.28652 0.0
H2615 H 0.93715 0.33584 0.34956 0.0
C2616 C 0.97072 0.32892 0.34725 0.0
C2617 C 0.98505 0.31831 0.33366 0.0
C2618 C 0.90101 0.29244 0.29221 0.0
C2619 C 0.93817 0.31482 0.31628 0.0
C2620 C 0.87738 0.28974 0.2852 0.0
C2621 C 0.86545 0.3068 0.29224 0.0
C2622 C 0.91304 0.3121 0.30715 0.0
C2623 C 0.87825 0.32651 0.30662 0.0
C2624 C 0.94762 0.32751 0.33858 0.0
C2625 C 0.97504 0.30618 0.31114 0.0
N2626 N 0.90112 0.32845 0.31384 0.0
N2627 N 0.9523 0.30454 0.30336 0.0
H2628 H 1.00471 0.71265 0.62019 0.0
H2629 H 0.0542 0.59989 0.59221 0.0
H2630 H 0.03796 0.68164 0.67539 0.0
H2631 H 1.00078 0.61607 0.54438 0.0
H2632 H 0.05155 0.63199 0.62142 0.0
H2633 H 1.0058 0.67981 0.59089 0.0
C2634 C 0.01214 0.69888 0.62619 0.0
C2635 C 0.02109 0.69987 0.6504 0.0
C2636 C 0.04024 0.62847 0.60465 0.0
C2637 C 0.0229 0.66238 0.6167 0.0
C2638 C 0.04154 0.60989 0.58808 0.0
C2639 C 0.0271 0.60465 0.56618 0.0
C2640 C 0.0247 0.64245 0.59916 0.0
C2641 C 0.01215 0.61933 0.56109 0.0
C2642 C 0.01275 0.68013 0.60942 0.0
C2643 C 0.03061 0.68153 0.65704 0.0
N2644 N 0.01131 0.6375 0.57742 0.0
N2645 N 0.03145 0.66372 0.64031 0.0
H2646 H 0.59957 0.78938 0.80128 0.0
H2647 H 0.73782 0.81416 0.82441 0.0
H2648 H 0.63984 0.83739 0.85884 0.0
H2649 H 0.69921 0.76767 0.76461 0.0
H2650 H 0.70219 0.82248 0.83679 0.0
H2651 H 0.63497 0.78089 0.78757 0.0
C2652 C 0.61578 0.79835 0.81098 0.0
C2653 C 0.61631 0.81437 0.83131 0.0
C2654 C 0.70136 0.81034 0.82101 0.0
C2655 C 0.65764 0.80445 0.81552 0.0
C2656 C 0.72191 0.80548 0.81384 0.0
C2657 C 0.72205 0.78989 0.79336 0.0
C2658 C 0.68016 0.79954 0.80789 0.0
C2659 C 0.70041 0.77961 0.78058 0.0
C2660 C 0.63614 0.79339 0.80312 0.0
C2661 C 0.6382 0.82503 0.84308 0.0
N2662 N 0.68061 0.7845 0.78804 0.0
N2663 N 0.65766 0.81994 0.8351 0.0
H2664 H 0.46409 0.49049 0.69242 0.0
H2665 H 0.51338 0.57637 0.60666 0.0
H2666 H 0.48628 0.56168 0.7196 0.0
H2667 H 0.53356 0.51162 0.6073 0.0
H2668 H 0.49727 0.57109 0.64449 0.0
H2669 H 0.48294 0.49726 0.65672 0.0
C2670 C 0.47302 0.5075 0.69094 0.0
C2671 C 0.47379 0.5255 0.7091 0.0
C2672 C 0.50525 0.55809 0.63628 0.0
C2673 C 0.49492 0.53339 0.66816 0.0
C2674 C 0.51428 0.56104 0.61475 0.0
C2675 C 0.52459 0.54432 0.60392 0.0
C2676 C 0.50583 0.53792 0.64642 0.0
C2677 C 0.52573 0.52488 0.6152 0.0
C2678 C 0.48378 0.51132 0.67063 0.0
C2679 C 0.48542 0.54728 0.70611 0.0
N2680 N 0.51608 0.522 0.63561 0.0
N2681 N 0.49535 0.55068 0.68591 0.0
H2682 H 0.80218 0.19659 0.02119 0.0
H2683 H 0.72569 0.20204 0.89861 0.0
H2684 H 0.75896 0.13773 0.97825 0.0
H2685 H 0.75941 0.2607 0.94858 0.0
H2686 H 0.74318 0.17768 0.92375 0.0
H2687 H 0.79344 0.21965 0.98988 0.0
C2688 C 0.79128 0.18845 0.00489 0.0
C2689 C 0.78103 0.16537 0.00233 0.0
C2690 C 0.74678 0.19587 0.9292 0.0
C2691 C 0.77051 0.19161 0.96691 0.0
C2692 C 0.7367 0.20967 0.91502 0.0
C2693 C 0.74079 0.23318 0.92203 0.0
C2694 C 0.76122 0.20579 0.95032 0.0
C2695 C 0.75543 0.24251 0.94307 0.0
C2696 C 0.78615 0.20162 0.98714 0.0
C2697 C 0.76714 0.15553 0.98089 0.0
N2698 N 0.76513 0.22874 0.95656 0.0
N2699 N 0.76194 0.16883 0.96411 0.0
H2700 H 0.17589 0.58339 0.17893 0.0
H2701 H 0.07302 0.5071 0.09122 0.0
H2702 H 0.15035 0.51329 0.18713 0.0
H2703 H 0.07338 0.5772 0.11677 0.0
H2704 H 0.10725 0.50877 0.1191 0.0
H2705 H 0.14474 0.58075 0.14625 0.0
C2706 C 0.16414 0.56731 0.17324 0.0
C2707 C 0.16521 0.54854 0.18548 0.0
C2708 C 0.09981 0.52375 0.11853 0.0
C2709 C 0.13022 0.5456 0.14921 0.0
C2710 C 0.0804 0.52282 0.10284 0.0
C2711 C 0.07104 0.54224 0.1017 0.0
C2712 C 0.10982 0.5443 0.13274 0.0
C2713 C 0.08048 0.56203 0.11736 0.0
C2714 C 0.14636 0.56594 0.15504 0.0
C2715 C 0.14972 0.52808 0.17798 0.0
N2716 N 0.09986 0.56273 0.13218 0.0
N2717 N 0.13258 0.52715 0.16027 0.0
H2718 H 0.77885 0.87777 0.46497 0.0
H2719 H 0.82734 0.79557 0.37146 0.0
H2720 H 0.83387 0.84416 0.48507 0.0
H2721 H 0.77592 0.83354 0.35151 0.0
H2722 H 0.82968 0.81229 0.41311 0.0
H2723 H 0.77649 0.86016 0.42351 0.0
C2724 C 0.79046 0.86669 0.46062 0.0
C2725 C 0.8066 0.86243 0.47845 0.0
C2726 C 0.81789 0.81697 0.3996 0.0
C2727 C 0.80419 0.84237 0.43095 0.0
C2728 C 0.81675 0.8076 0.37566 0.0
C2729 C 0.8019 0.81356 0.35761 0.0
C2730 C 0.80362 0.83202 0.40572 0.0
C2731 C 0.7879 0.82861 0.36459 0.0
C2732 C 0.78912 0.85664 0.43695 0.0
C2733 C 0.8211 0.84779 0.47187 0.0
N2734 N 0.78906 0.83724 0.38801 0.0
N2735 N 0.81963 0.83837 0.44863 0.0
H2736 H 0.50574 0.52983 0.82889 0.0
H2737 H 0.4861 0.51763 0.96541 0.0
H2738 H 0.44007 0.50885 0.85219 0.0
H2739 H 0.55305 0.53011 0.94322 0.0
H2740 H 0.4693 0.51441 0.92363 0.0
H2741 H 0.52384 0.53092 0.87027 0.0
C2742 C 0.49517 0.52532 0.84266 0.0
C2743 C 0.47138 0.51919 0.83709 0.0
C2744 C 0.48768 0.5179 0.92778 0.0
C2745 C 0.49188 0.5203 0.8843 0.0
C2746 C 0.49725 0.51978 0.95167 0.0
C2747 C 0.52096 0.52438 0.95775 0.0
C2748 C 0.50188 0.52104 0.90974 0.0
C2749 C 0.53466 0.52657 0.93921 0.0
C2750 C 0.50549 0.52593 0.86625 0.0
C2751 C 0.45846 0.51374 0.85565 0.0
N2752 N 0.52493 0.52514 0.91602 0.0
N2753 N 0.46885 0.51441 0.87833 0.0
H2754 H 0.80052 0.1579 0.14304 0.0
H2755 H 0.75858 0.26751 0.19752 0.0
H2756 H 0.73816 0.1775 0.11667 0.0
H2757 H 0.81976 0.24757 0.22724 0.0
H2758 H 0.75008 0.23314 0.16868 0.0
H2759 H 0.80624 0.18816 0.17697 0.0
C2760 C 0.78764 0.16808 0.14506 0.0
C2761 C 0.76888 0.16557 0.12747 0.0
C2762 C 0.76525 0.2361 0.18165 0.0
C2763 C 0.77539 0.20002 0.16519 0.0
C2764 C 0.77015 0.25576 0.19788 0.0
C2765 C 0.78943 0.25969 0.21495 0.0
C2766 C 0.77996 0.22061 0.1825 0.0
C2767 C 0.80428 0.24445 0.21469 0.0
C2768 C 0.79101 0.18544 0.16411 0.0
C2769 C 0.75283 0.17922 0.13012 0.0
N2770 N 0.79916 0.22535 0.19867 0.0
N2771 N 0.75655 0.1961 0.1486 0.0
H2772 H 0.12858 0.54208 0.28059 0.0
H2773 H 0.12197 0.58856 0.41587 0.0
H2774 H 0.1871 0.56089 0.33507 0.0
H2775 H 0.0659 0.57664 0.35869 0.0
H2776 H 0.14448 0.57095 0.3887 0.0
H2777 H 0.10383 0.54632 0.31134 0.0
C2778 C 0.13615 0.54681 0.29915 0.0
C2779 C 0.15981 0.55154 0.30543 0.0
C2780 C 0.12721 0.57204 0.38215 0.0
C2781 C 0.13178 0.55685 0.34049 0.0
C2782 C 0.11441 0.58211 0.39758 0.0
C2783 C 0.09229 0.58441 0.38921 0.0
C2784 C 0.11774 0.5643 0.35827 0.0
C2785 C 0.08314 0.57571 0.36554 0.0
C2786 C 0.12205 0.54924 0.31666 0.0
C2787 C 0.16887 0.55726 0.32963 0.0
N2788 N 0.096 0.56614 0.3508 0.0
N2789 N 0.15479 0.56018 0.34636 0.0
H2790 H 0.80154 0.89083 0.63125 0.0
H2791 H 0.80058 0.77837 0.69284 0.0
H2792 H 0.80827 0.82765 0.59195 0.0
H2793 H 0.76933 0.83277 0.72059 0.0
H2794 H 0.80587 0.79673 0.65679 0.0
H2795 H 0.79263 0.87079 0.66553 0.0
C2796 C 0.80131 0.87276 0.62991 0.0
C2797 C 0.80585 0.8609 0.60881 0.0
C2798 C 0.79773 0.80457 0.67071 0.0
C2799 C 0.79568 0.83787 0.64798 0.0
C2800 C 0.79468 0.7941 0.69132 0.0
C2801 C 0.78468 0.80415 0.70994 0.0
C2802 C 0.79107 0.82543 0.66879 0.0
C2803 C 0.77731 0.82451 0.70683 0.0
C2804 C 0.79605 0.8613 0.64941 0.0
C2805 C 0.80499 0.83744 0.60794 0.0
N2806 N 0.78092 0.83463 0.68681 0.0
N2807 N 0.80019 0.82671 0.62732 0.0
H2808 H 0.75757 0.48827 0.48013 0.0
H2809 H 0.68518 0.49576 0.58502 0.0
H2810 H 0.7249 0.42849 0.50806 0.0
H2811 H 0.69244 0.54703 0.5373 0.0
H2812 H 0.69929 0.47039 0.55607 0.0
H2813 H 0.73158 0.50958 0.49795 0.0
C2814 C 0.74434 0.47948 0.48929 0.0
C2815 C 0.74344 0.45684 0.49307 0.0
C2816 C 0.69772 0.48717 0.55191 0.0
C2817 C 0.71447 0.48102 0.51401 0.0
C2818 C 0.69022 0.50171 0.5686 0.0
C2819 C 0.68851 0.52353 0.56363 0.0
C2820 C 0.70369 0.49478 0.53039 0.0
C2821 C 0.69422 0.53041 0.54182 0.0
C2822 C 0.72961 0.49162 0.49953 0.0
C2823 C 0.7261 0.44604 0.50495 0.0
N2824 N 0.70183 0.5161 0.526 0.0
N2825 N 0.7126 0.45846 0.51568 0.0
H2826 H 0.20353 0.16221 0.55193 0.0
H2827 H 0.10175 0.06992 0.48319 0.0
H2828 H 0.21011 0.12768 0.48295 0.0
H2829 H 0.12203 0.06896 0.55852 0.0
H2830 H 0.13764 0.09636 0.48149 0.0
H2831 H 0.16901 0.13362 0.5537 0.0
C2832 C 0.1975 0.14879 0.53706 0.0
C2833 C 0.20944 0.14726 0.5172 0.0
C2834 C 0.13426 0.09018 0.49831 0.0
C2835 C 0.17033 0.11495 0.51905 0.0
C2836 C 0.11391 0.07519 0.4993 0.0
C2837 C 0.10919 0.06734 0.521 0.0
C2838 C 0.14952 0.09787 0.51935 0.0
C2839 C 0.12534 0.07454 0.54143 0.0
C2840 C 0.17806 0.13244 0.5382 0.0
C2841 C 0.20125 0.12939 0.49852 0.0
N2842 N 0.14473 0.08982 0.54023 0.0
N2843 N 0.18198 0.11401 0.49976 0.0
H2844 H 0.15061 0.97933 0.79415 0.0
H2845 H 0.26641 0.95661 0.75114 0.0
H2846 H 0.20772 0.03184 0.78635 0.0
H2847 H 0.21298 0.90278 0.76399 0.0
H2848 H 0.24709 0.98449 0.76997 0.0
H2849 H 0.17444 0.95093 0.78813 0.0
C2850 C 0.16818 0.98485 0.79132 0.0
C2851 C 0.1772 0.00785 0.7905 0.0
C2852 C 0.2397 0.9666 0.76916 0.0
C2853 C 0.20439 0.97574 0.7837 0.0
C2854 C 0.25081 0.95077 0.75853 0.0
C2855 C 0.24105 0.92764 0.75602 0.0
C2856 C 0.21848 0.95917 0.77687 0.0
C2857 C 0.22087 0.92063 0.7657 0.0
C2858 C 0.18178 0.96871 0.78801 0.0
C2859 C 0.20007 0.01424 0.78702 0.0
N2860 N 0.20993 0.93644 0.77539 0.0
N2861 N 0.2128 0.99824 0.78352 0.0
H2862 H 0.37943 0.94674 0.04044 0.0
H2863 H 0.46133 0.04031 0.98375 0.0
H2864 H 0.36341 0.96978 0.97212 0.0
H2865 H 0.48025 0.0176 0.05117 0.0
H2866 H 0.42429 0.01558 0.98053 0.0
H2867 H 0.41728 0.97159 0.04491 0.0
C2868 C 0.38417 0.95668 0.02625 0.0
C2869 C 0.3686 0.9567 0.0061 0.0
C2870 C 0.43654 0.01591 0.99612 0.0
C2871 C 0.41077 0.98501 0.01112 0.0
C2872 C 0.45759 0.03024 0.99808 0.0
C2873 C 0.47403 0.03015 0.01749 0.0
C2874 C 0.43207 1.0016 0.01377 0.0
C2875 C 0.46831 0.01707 0.03559 0.0
C2876 C 0.40549 0.97097 0.02887 0.0
C2877 C 0.37507 0.96974 0.9881 0.0
N2878 N 0.44775 1.00299 0.03327 0.0
N2879 N 0.3957 0.98357 0.99113 0.0
H2880 H 0.83003 0.55876 0.81057 0.0
H2881 H 0.84543 0.6761 0.76204 0.0
H2882 H 0.89256 0.60918 0.82379 0.0
H2883 H 0.78184 0.62778 0.75349 0.0
H2884 H 0.86062 0.65603 0.79345 0.0
H2885 H 0.80933 0.58803 0.80015 0.0
C2886 C 0.83928 0.57615 0.81181 0.0
C2887 C 0.86303 0.5816 0.81704 0.0
C2888 C 0.84323 0.64994 0.78498 0.0
C2889 C 0.83977 0.61482 0.80482 0.0
C2890 C 0.83479 0.66119 0.76694 0.0
C2891 C 0.81289 0.65278 0.75492 0.0
C2892 C 0.82956 0.63019 0.79067 0.0
C2893 C 0.79917 0.63405 0.76206 0.0
C2894 C 0.8275 0.59285 0.8059 0.0
C2895 C 0.87426 0.60431 0.81912 0.0
N2896 N 0.80788 0.62307 0.77934 0.0
N2897 N 0.86256 0.6201 0.81234 0.0
H2898 H 0.81192 0.62766 1.00094 0.0
H2899 H 0.9226 0.62506 0.08725 0.0
H2900 H 0.85207 0.68765 0.04473 0.0
H2901 H 0.89336 0.57146 0.02963 0.0
H2902 H 0.89898 0.64951 0.06973 0.0
H2903 H 0.84302 0.60765 0.00892 0.0
C2904 C 0.82746 0.63668 0.01199 0.0
C2905 C 0.82951 0.65924 0.02234 0.0
C2906 C 0.89801 0.63258 0.06061 0.0
C2907 C 0.86494 0.63647 0.03176 0.0
C2908 C 0.91145 0.6187 0.0706 0.0
C2909 C 0.9096 0.59636 0.05983 0.0
C2910 C 0.88235 0.62378 0.04002 0.0
C2911 C 0.89509 0.58868 0.03835 0.0
C2912 C 0.84522 0.6253 0.01646 0.0
C2913 C 0.84993 0.67025 0.0364 0.0
N2914 N 0.88163 0.60228 0.0293 0.0
N2915 N 0.86678 0.65861 0.04104 0.0
H2916 H 0.20621 0.10444 0.77598 0.0
H2917 H 0.24322 0.23665 0.82622 0.0
H2918 H 0.16907 0.13901 0.8242 0.0
H2919 H 0.27447 0.20318 0.77117 0.0
H2920 H 0.21821 0.2004 0.82876 0.0
H2921 H 0.23351 0.13989 0.77691 0.0
C2922 C 0.20386 0.11951 0.78686 0.0
C2923 C 0.1853 0.11886 0.79996 0.0
C2924 C 0.23065 0.20096 0.81626 0.0
C2925 C 0.21657 0.15951 0.80117 0.0
C2926 C 0.24497 0.22163 0.81483 0.0
C2927 C 0.26098 0.22291 0.79849 0.0
C2928 C 0.23236 0.18146 0.80123 0.0
C2929 C 0.26253 0.20293 0.78419 0.0
C2930 C 0.21945 0.13976 0.78736 0.0
C2931 C 0.18308 0.13886 0.81373 0.0
N2932 N 0.24832 0.18304 0.78583 0.0
N2933 N 0.19856 0.15843 0.81397 0.0
H2934 H 0.34772 0.96653 0.26838 0.0
H2935 H 0.31486 0.86089 0.33957 0.0
H2936 H 0.38255 0.95889 0.33687 0.0
H2937 H 0.28736 0.86088 0.26596 0.0
H2938 H 0.33805 0.89849 0.33946 0.0
H2939 H 0.32469 0.92813 0.26657 0.0
C2940 C 0.35043 0.95661 0.28291 0.0
C2941 C 0.36673 0.96542 0.30278 0.0
C2942 C 0.32699 0.89035 0.32328 0.0
C2943 C 0.34054 0.92259 0.30132 0.0
C2944 C 0.31368 0.86914 0.32348 0.0
C2945 C 0.29959 0.85829 0.30271 0.0
C2946 C 0.32607 0.90051 0.30209 0.0
C2947 C 0.29838 0.86905 0.28214 0.0
C2948 C 0.33741 0.93489 0.28193 0.0
C2949 C 0.37013 0.95231 0.32119 0.0
N2950 N 0.31167 0.88978 0.28226 0.0
N2951 N 0.35688 0.93151 0.32015 0.0
H2952 H 0.60052 0.38528 0.61107 0.0
H2953 H 0.52906 0.45949 0.53227 0.0
H2954 H 0.53911 0.35547 0.56338 0.0
H2955 H 0.58855 0.48956 0.58261 0.0
H2956 H 0.53245 0.42194 0.54301 0.0
H2957 H 0.59685 0.42295 0.60032 0.0
C2958 C 0.58628 0.38649 0.59818 0.0
C2959 C 0.57025 0.36663 0.58809 0.0
C2960 C 0.54484 0.43668 0.55176 0.0
C2961 C 0.56573 0.41076 0.57562 0.0
C2962 C 0.54279 0.45847 0.5457 0.0
C2963 C 0.55823 0.47846 0.55659 0.0
C2964 C 0.56281 0.43417 0.56878 0.0
C2965 C 0.57597 0.4751 0.57359 0.0
C2966 C 0.58415 0.40825 0.59208 0.0
C2967 C 0.55212 0.36992 0.57161 0.0
N2968 N 0.57775 0.45371 0.57899 0.0
N2969 N 0.5504 0.39127 0.566 0.0
H2970 H 0.4337 0.79793 0.43813 0.0
H2971 H 0.34811 0.76102 0.3146 0.0
H2972 H 0.44811 0.75497 0.37818 0.0
H2973 H 0.34176 0.81476 0.36839 0.0
H2974 H 0.38322 0.75663 0.33845 0.0
H2975 H 0.39871 0.80229 0.41413 0.0
C2976 C 0.4294 0.78918 0.42 0.0
C2977 C 0.44392 0.77587 0.41033 0.0
C2978 C 0.37408 0.76928 0.34518 0.0
C2979 C 0.40344 0.78072 0.38253 0.0
C2980 C 0.354 0.77183 0.33151 0.0
C2981 C 0.3415 0.78794 0.33967 0.0
C2982 C 0.38196 0.78296 0.36735 0.0
C2983 C 0.35009 0.80143 0.36179 0.0
C2984 C 0.4094 0.79178 0.40621 0.0
C2985 C 0.43751 0.76533 0.38649 0.0
N2986 N 0.36963 0.79862 0.37481 0.0
N2987 N 0.41778 0.76783 0.37355 0.0
H2988 H 0.03387 0.72423 0.1117 0.0
H2989 H 0.0721 0.61769 0.03917 0.0
H2990 H 0.08594 0.73299 0.06502 0.0
H2991 H 0.02115 0.61043 0.08708 0.0
H2992 H 0.07777 0.65912 0.04816 0.0
H2993 H 0.02908 0.68294 0.10241 0.0
C2994 C 0.04427 0.71758 0.0993 0.0
C2995 C 0.06032 0.73263 0.08913 0.0
C2996 C 0.06542 0.64855 0.05686 0.0
C2997 C 0.05487 0.68425 0.07832 0.0
C2998 C 0.06239 0.62461 0.05196 0.0
C2999 C 0.04654 0.60992 0.06274 0.0
C3000 C 0.05233 0.65845 0.07262 0.0
C3001 C 0.03374 0.62062 0.07832 0.0
C3002 C 0.04152 0.69376 0.09404 0.0
C3003 C 0.07326 0.72242 0.07332 0.0
N3004 N 0.03691 0.64391 0.08272 0.0
N3005 N 0.07028 0.6991 0.06848 0.0
H3006 H 0.08916 0.28166 0.94726 0.0
H3007 H 0.14388 0.2963 0.82521 0.0
H3008 H 0.048 0.2775 0.87905 0.0
H3009 H 0.18207 0.29406 0.89351 0.0
H3010 H 0.10825 0.28614 0.84292 0.0
H3011 H 0.12299 0.28371 0.92674 0.0
C3012 C 0.08724 0.2812 0.92793 0.0
C3013 C 0.0657 0.27955 0.91492 0.0
C3014 C 0.12443 0.28747 0.8539 0.0
C3015 C 0.10461 0.28202 0.89107 0.0
C3016 C 0.14473 0.29304 0.84373 0.0
C3017 C 0.16594 0.29603 0.85796 0.0
C3018 C 0.12542 0.28497 0.87848 0.0
C3019 C 0.16609 0.29196 0.88194 0.0
C3020 C 0.10659 0.28228 0.91614 0.0
C3021 C 0.06428 0.27879 0.88981 0.0
N3022 N 0.14625 0.28688 0.89145 0.0
N3023 N 0.08347 0.28024 0.87873 0.0
H3024 H 0.52758 0.74215 0.86864 0.0
H3025 H 0.55937 0.68561 0.98648 0.0
H3026 H 0.57466 0.77903 0.92904 0.0
H3027 H 0.51746 0.64928 0.92254 0.0
H3028 H 0.56877 0.71886 0.96499 0.0
H3029 H 0.52587 0.70753 0.88764 0.0
C3030 C 0.53765 0.74297 0.8859 0.0
C3031 C 0.55122 0.76364 0.89724 0.0
C3032 C 0.55796 0.70343 0.95547 0.0
C3033 C 0.54946 0.72368 0.91927 0.0
C3034 C 0.55292 0.68431 0.96764 0.0
C3035 C 0.53789 0.66451 0.95617 0.0
C3036 C 0.5476 0.70282 0.93178 0.0
C3037 C 0.52941 0.66405 0.93194 0.0
C3038 C 0.53673 0.72311 0.89676 0.0
C3039 C 0.56385 0.76354 0.91967 0.0
N3040 N 0.53411 0.68292 0.92072 0.0
N3041 N 0.56261 0.74394 0.92997 0.0
H3042 H 0.10276 0.73283 0.71093 0.0
H3043 H 0.22281 0.8189 0.7588 0.0
H3044 H 0.1067 0.80129 0.74409 0.0
H3045 H 0.21758 0.74671 0.7422 0.0
H3046 H 0.18114 0.81333 0.75137 0.0
H3047 H 0.14436 0.73799 0.72005 0.0
C3048 C 0.11225 0.74896 0.72032 0.0
C3049 C 0.10064 0.76651 0.72688 0.0
C3050 C 0.18899 0.79862 0.74941 0.0
C3051 C 0.14937 0.77277 0.73718 0.0
C3052 C 0.21303 0.80177 0.7536 0.0
C3053 C 0.22431 0.78325 0.75137 0.0
C3054 C 0.17547 0.7767 0.74244 0.0
C3055 C 0.21008 0.76156 0.74458 0.0
C3056 C 0.13622 0.7519 0.72552 0.0
C3057 C 0.11446 0.78707 0.7388 0.0
N3058 N 0.18672 0.75897 0.74026 0.0
N3059 N 0.1378 0.78961 0.74337 0.0
H3060 H 0.0815 0.38785 0.43535 0.0
H3061 H 1.00948 0.48721 0.44981 0.0
H3062 H 0.03304 0.39935 0.37851 0.0
H3063 H 0.07012 0.48694 0.49741 0.0
H3064 H 0.01614 0.45375 0.4248 0.0
H3065 H 0.07617 0.42245 0.4595 0.0
C3066 C 0.06983 0.3977 0.42785 0.0
C3067 C 0.05795 0.39068 0.40462 0.0
C3068 C 0.02812 0.46105 0.44062 0.0
C3069 C 0.05123 0.43028 0.43264 0.0
C3070 C 0.0244 0.48033 0.45482 0.0
C3071 C 0.03949 0.49026 0.47555 0.0
C3072 C 0.04692 0.4512 0.44728 0.0
C3073 C 0.05804 0.47992 0.4816 0.0
C3074 C 0.06676 0.41749 0.44171 0.0
C3075 C 0.04289 0.40418 0.3961 0.0
N3076 N 0.0612 0.46105 0.46766 0.0
N3077 N 0.03985 0.42307 0.41008 0.0
H3078 H 0.44528 0.22858 0.20357 0.0
H3079 H 0.36889 0.3021 0.27616 0.0
H3080 H 0.4734 0.29199 0.2484 0.0
H3081 H 0.34063 0.23637 0.23611 0.0
H3082 H 0.40636 0.29905 0.2653 0.0
H3083 H 0.40734 0.2311 0.21467 0.0
C3084 C 0.44362 0.24305 0.21585 0.0
C3085 C 0.46307 0.25998 0.22508 0.0
C3086 C 0.39208 0.28517 0.25887 0.0
C3087 C 0.4187 0.26322 0.23777 0.0
C3088 C 0.3703 0.28699 0.265 0.0
C3089 C 0.35081 0.26969 0.25707 0.0
C3090 C 0.39516 0.26565 0.24463 0.0
C3091 C 0.3547 0.25036 0.24282 0.0
C3092 C 0.42175 0.24448 0.22218 0.0
C3093 C 0.45929 0.2783 0.24089 0.0
N3094 N 0.37615 0.24891 0.23716 0.0
N3095 N 0.43781 0.27945 0.24654 0.0
H3096 H 0.64225 0.5415 0.37825 0.0
H3097 H 0.54612 0.56207 0.46112 0.0
H3098 H 0.58266 0.56681 0.35363 0.0
H3099 H 0.6036 0.53299 0.48454 0.0
H3100 H 0.55979 0.56487 0.42228 0.0
H3101 H 0.62892 0.53915 0.41739 0.0
C3102 C 0.62631 0.54657 0.38104 0.0
C3103 C 0.61353 0.55434 0.36249 0.0
C3104 C 0.56946 0.55787 0.43586 0.0
C3105 C 0.59814 0.55173 0.40762 0.0
C3106 C 0.56165 0.55622 0.45814 0.0
C3107 C 0.57362 0.54709 0.47625 0.0
C3108 C 0.58952 0.55044 0.43142 0.0
C3109 C 0.59375 0.54006 0.4712 0.0
C3110 C 0.61871 0.54521 0.40348 0.0
C3111 C 0.59304 0.56066 0.36731 0.0
N3112 N 0.60102 0.54185 0.4493 0.0
N3113 N 0.58601 0.55924 0.38937 0.0
H3114 H 0.28479 0.865 0.04419 0.0
H3115 H 0.32268 0.89222 0.18314 0.0
H3116 H 0.29395 0.93216 0.08348 0.0
H3117 H 0.30433 0.82442 0.14487 0.0
H3118 H 0.3048 0.90662 0.14854 0.0
H3119 H 0.28456 0.84902 0.08196 0.0
C3120 C 0.28643 0.87631 0.06079 0.0
C3121 C 0.28982 0.89987 0.0609 0.0
C3122 C 0.30421 0.88852 0.14786 0.0
C3123 C 0.28981 0.8819 0.10404 0.0
C3124 C 0.31443 0.88041 0.16751 0.0
C3125 C 0.3153 0.85735 0.1662 0.0
C3126 C 0.29515 0.87335 0.12693 0.0
C3127 C 0.3043 0.84244 0.14601 0.0
C3128 C 0.28621 0.86723 0.08233 0.0
C3129 C 0.29161 0.91386 0.08275 0.0
N3130 N 0.29493 0.85076 0.1269 0.0
N3131 N 0.29199 0.90467 0.10357 0.0
H3132 H 0.91161 0.54406 0.89731 0.0
H3133 H 0.01358 0.50265 0.96855 0.0
H3134 H 0.96022 0.51161 0.86322 0.0
H3135 H 0.98196 0.5564 0.99747 0.0
H3136 H 0.98674 0.49696 0.93197 0.0
H3137 H 0.93049 0.5398 0.93639 0.0
C3138 C 0.92629 0.53606 0.89811 0.0
C3139 C 0.93486 0.52864 0.87725 0.0
C3140 C 0.98561 0.50983 0.94645 0.0
C3141 C 0.95604 0.52351 0.92145 0.0
C3142 C 1.00088 0.51314 0.96719 0.0
C3143 C 1.00004 0.53023 0.98568 0.0
C3144 C 0.96962 0.52382 0.94436 0.0
C3145 C 0.98322 0.54323 0.98337 0.0
C3146 C 0.93689 0.53354 0.92031 0.0
C3147 C 0.95353 0.51798 0.87905 0.0
N3148 N 0.96865 0.53985 0.96284 0.0
N3149 N 0.9637 0.51585 0.90095 0.0
H3150 H 0.29589 0.19266 0.60424 0.0
H3151 H 0.27165 0.28791 0.70347 0.0
H3152 H 0.26501 0.2485 0.58581 0.0
H3153 H 0.30243 0.23147 0.7201 0.0
H3154 H 0.26863 0.27402 0.66065 0.0
H3155 H 0.29832 0.20698 0.64668 0.0
C3156 C 0.28968 0.20803 0.60909 0.0
C3157 C 0.28028 0.21941 0.59129 0.0
C3158 C 0.27603 0.26467 0.67367 0.0
C3159 C 0.28294 0.23599 0.64032 0.0
C3160 C 0.27764 0.27254 0.69822 0.0
C3161 C 0.28707 0.26077 0.71566 0.0
C3162 C 0.28411 0.24496 0.66633 0.0
C3163 C 0.29493 0.24114 0.7075 0.0
C3164 C 0.29104 0.2162 0.63344 0.0
C3165 C 0.27245 0.2392 0.59885 0.0
N3166 N 0.29328 0.23393 0.68358 0.0
N3167 N 0.27394 0.24684 0.62274 0.0
H3168 H 0.61547 0.59084 0.22313 0.0
H3169 H 0.56566 0.50557 0.10191 0.0
H3170 H 0.59581 0.51815 0.22088 0.0
H3171 H 0.57852 0.57851 0.10481 0.0
H3172 H 0.57845 0.50996 0.14495 0.0
H3173 H 0.60309 0.58685 0.17982 0.0
C3174 C 0.60831 0.57406 0.2136 0.0
C3175 C 0.6064 0.55484 0.22583 0.0
C3176 C 0.57823 0.52506 0.13625 0.0
C3177 C 0.5925 0.55007 0.17593 0.0
C3178 C 0.57093 0.52259 0.11153 0.0
C3179 C 0.57029 0.54175 0.09949 0.0
C3180 C 0.58506 0.54688 0.14935 0.0
C3181 C 0.57783 0.56326 0.1132 0.0
C3182 C 0.60133 0.57177 0.1888 0.0
C3183 C 0.59733 0.53349 0.21235 0.0
N3184 N 0.58478 0.56524 0.13728 0.0
N3185 N 0.5908 0.5317 0.18823 0.0
H3186 H 0.26199 0.87523 0.93138 0.0
H3187 H 0.33336 0.83298 0.83765 0.0
H3188 H 0.32807 0.9156 0.92589 0.0
H3189 H 0.26226 0.83262 0.81657 0.0
H3190 H 0.33282 0.85987 0.87335 0.0
H3191 H 0.26209 0.85495 0.89145 0.0
C3192 C 0.27636 0.87987 0.92167 0.0
C3193 C 0.29509 0.8968 0.93173 0.0
C3194 C 0.31748 0.85399 0.86068 0.0
C3195 C 0.29538 0.87398 0.88699 0.0
C3196 C 0.31774 0.83866 0.84068 0.0
C3197 C 0.2978 0.83082 0.82469 0.0
C3198 C 0.29694 0.86053 0.86473 0.0
C3199 C 0.27792 0.83856 0.82875 0.0
C3200 C 0.27635 0.8685 0.89903 0.0
C3201 C 0.31335 0.90246 0.91863 0.0
N3202 N 0.27784 0.85282 0.84879 0.0
N3203 N 0.31323 0.89075 0.89689 0.0
H3204 H 0.90987 0.50322 0.73612 0.0
H3205 H 0.95568 0.53147 0.62919 0.0
H3206 H 0.94597 0.5726 0.75679 0.0
H3207 H 0.99926 0.50053 0.67547 0.0
H3208 H 0.94149 0.54813 0.66476 0.0
H3209 H 0.93003 0.50109 0.70094 0.0
C3210 C 0.92163 0.51818 0.73288 0.0
C3211 C 0.92634 0.53817 0.74909 0.0
C3212 C 0.95482 0.53843 0.66699 0.0
C3213 C 0.94898 0.53579 0.70921 0.0
C3214 C 0.96286 0.52888 0.64685 0.0
C3215 C 0.97825 0.51421 0.64954 0.0
C3216 C 0.96238 0.53321 0.6896 0.0
C3217 C 0.98697 0.5113 0.67272 0.0
C3218 C 0.93309 0.51689 0.71299 0.0
C3219 C 0.94211 0.55693 0.74453 0.0
N3220 N 0.97844 0.52024 0.69194 0.0
N3221 N 0.95309 0.55532 0.7248 0.0
H3222 H 0.28763 0.25272 0.46744 0.0
H3223 H 0.2909 0.22153 0.32685 0.0
H3224 H 0.26551 0.18395 0.43202 0.0
H3225 H 0.27733 0.28561 0.35717 0.0
H3226 H 0.2881 0.20782 0.36613 0.0
H3227 H 0.29122 0.26584 0.42803 0.0
C3228 C 0.2835 0.2404 0.45142 0.0
C3229 C 0.27603 0.21724 0.45308 0.0
C3230 C 0.28605 0.22499 0.36413 0.0
C3231 C 0.28052 0.23206 0.40796 0.0
C3232 C 0.28769 0.23285 0.34172 0.0
C3233 C 0.28506 0.25506 0.33864 0.0
C3234 C 0.28219 0.23955 0.38376 0.0
C3235 C 0.28047 0.26872 0.35865 0.0
C3236 C 0.28553 0.24788 0.42894 0.0
C3237 C 0.27113 0.202 0.43163 0.0
N3238 N 0.27946 0.26088 0.38028 0.0
N3239 N 0.27356 0.20964 0.41004 0.0
H3240 H 0.31512 0.57083 0.55801 0.0
H3241 H 0.43876 0.6161 0.54088 0.0
H3242 H 0.35341 0.63567 0.59365 0.0
H3243 H 0.40781 0.54473 0.52654 0.0
H3244 H 0.41003 0.62186 0.56699 0.0
H3245 H 0.35067 0.55793 0.55457 0.0
C3246 C 0.33103 0.58209 0.56573 0.0
C3247 C 0.33164 0.60459 0.57515 0.0
C3248 C 0.40981 0.60482 0.55858 0.0
C3249 C 0.37205 0.59028 0.57101 0.0
C3250 C 0.42595 0.60167 0.54343 0.0
C3251 C 0.42515 0.58009 0.53126 0.0
C3252 C 0.3926 0.5863 0.56102 0.0
C3253 C 0.40873 0.56171 0.5355 0.0
C3254 C 0.35132 0.57475 0.56383 0.0
C3255 C 0.35246 0.61842 0.58543 0.0
N3256 N 0.39279 0.56531 0.54974 0.0
N3257 N 0.37202 0.61124 0.58248 0.0
H3258 H 0.87634 0.96178 0.5789 0.0
H3259 H 0.97483 0.99383 0.49768 0.0
H3260 H 0.88462 0.91736 0.51685 0.0
H3261 H 0.98475 0.01652 0.57364 0.0
H3262 H 0.93782 0.97039 0.50181 0.0
H3263 H 0.91271 0.98669 0.57501 0.0
C3264 C 0.88582 0.9573 0.56449 0.0
C3265 C 0.87761 0.93745 0.54827 0.0
C3266 C 0.94798 0.98069 0.51753 0.0
C3267 C 0.91867 0.96598 0.54339 0.0
C3268 C 0.96895 0.99411 0.51514 0.0
C3269 C 0.9826 1.007 0.53537 0.0
C3270 C 0.94047 0.98068 0.54021 0.0
C3271 C 0.97449 1.00681 0.55766 0.0
C3272 C 0.90651 0.97146 0.56231 0.0
C3273 C 0.89048 0.93241 0.52987 0.0
N3274 N 0.95382 0.99389 0.55952 0.0
N3275 N 0.91028 0.94667 0.52781 0.0
H3276 H 0.87487 0.05554 0.28829 0.0
H3277 H 0.88866 0.18521 0.26709 0.0
H3278 H 0.92264 0.0884 0.24499 0.0
H3279 H 0.83272 0.15088 0.29955 0.0
H3280 H 0.89955 0.14881 0.2565 0.0
H3281 H 0.85749 0.08921 0.29092 0.0
C3282 C 0.88152 0.06973 0.27913 0.0
C3283 C 0.90027 0.06928 0.26651 0.0
C3284 C 0.88474 0.14909 0.26572 0.0
C3285 C 0.88064 0.10768 0.2695 0.0
C3286 C 0.87859 0.16984 0.27174 0.0
C3287 C 0.86004 0.17084 0.28438 0.0
C3288 C 0.87244 0.12928 0.27279 0.0
C3289 C 0.84725 0.15061 0.28987 0.0
C3290 C 0.87159 0.08889 0.2806 0.0
C3291 C 0.90825 0.08806 0.25498 0.0
N3292 N 0.85391 0.13057 0.28435 0.0
N3293 N 0.89851 0.10655 0.25693 0.0
H3294 H 0.70842 0.07064 0.03215 0.0
H3295 H 0.58659 0.09825 0.02663 0.0
H3296 H 0.69545 0.13871 0.044 0.0
H3297 H 0.59957 0.03189 0.00435 0.0
H3298 H 0.62606 0.11497 0.02366 0.0
H3299 H 0.6686 0.05694 0.01533 0.0
C3300 C 0.69717 0.08265 0.0311 0.0
C3301 C 0.70499 0.10569 0.03958 0.0
C3302 C 0.62015 0.09684 0.0185 0.0
C3303 C 0.65985 0.09043 0.02011 0.0
C3304 C 0.59757 0.08742 0.01986 0.0
C3305 C 0.59031 0.06385 0.01572 0.0
C3306 C 0.63527 0.08231 0.01364 0.0
C3307 C 0.60498 0.05022 0.00771 0.0
C3308 C 0.67456 0.07494 0.02126 0.0
C3309 C 0.68993 0.12071 0.0378 0.0
N3310 N 0.6271 0.05963 0.00744 0.0
N3311 N 0.66796 0.11276 0.02838 0.0
H3312 H 0.20407 0.48466 0.21773 0.0
H3313 H 0.28592 0.42892 0.30019 0.0
H3314 H 0.26581 0.52176 0.26111 0.0
H3315 H 0.21666 0.39785 0.27101 0.0
H3316 H 0.28437 0.45944 0.27541 0.0
H3317 H 0.21549 0.4491 0.22471 0.0
C3318 C 0.22049 0.48524 0.22799 0.0
C3319 C 0.23384 0.50585 0.23956 0.0
C3320 C 0.26954 0.44594 0.27438 0.0
C3321 C 0.24658 0.46569 0.24792 0.0
C3322 C 0.27028 0.42885 0.28872 0.0
C3323 C 0.25105 0.41162 0.28807 0.0
C3324 C 0.24939 0.4457 0.25943 0.0
C3325 C 0.23144 0.41149 0.2725 0.0
C3326 C 0.2269 0.46501 0.23205 0.0
C3327 C 0.25502 0.50603 0.25227 0.0
N3328 N 0.23101 0.42853 0.25883 0.0
N3329 N 0.26053 0.48603 0.25674 0.0
H3330 H 0.25713 0.43315 0.08229 0.0
H3331 H 0.16978 0.47905 0.99299 0.0
H3332 H 0.25136 0.41998 0.00514 0.0
H3333 H 0.15361 0.46284 0.06234 0.0
H3334 H 0.2061 0.46676 1.00085 0.0
H3335 H 0.22416 0.45185 0.07831 0.0
C3336 C 0.24898 0.43434 0.06456 0.0
C3337 C 0.25673 0.42499 0.04397 0.0
C3338 C 0.19467 0.46602 0.01441 0.0
C3339 C 0.21988 0.44671 0.03936 0.0
C3340 C 0.17411 0.4731 0.00998 0.0
C3341 C 0.15885 0.47158 0.02696 0.0
C3342 C 0.19983 0.4573 0.03592 0.0
C3343 C 0.16511 0.46409 0.04886 0.0
C3344 C 0.23027 0.44495 0.06233 0.0
C3345 C 0.24568 0.42681 0.02141 0.0
N3346 N 0.18515 0.45695 0.05268 0.0
N3347 N 0.22789 0.43762 0.01969 0.0
H3348 H 0.92235 0.93462 0.26191 0.0
H3349 H 0.80538 0.86687 0.29465 0.0
H3350 H 0.86415 0.96576 0.26923 0.0
H3351 H 0.85431 0.83373 0.26213 0.0
H3352 H 0.82787 0.90368 0.28917 0.0
H3353 H 0.89891 0.89781 0.26574 0.0
C3354 C 0.90458 0.93367 0.26412 0.0
C3355 C 0.89515 0.95325 0.26514 0.0
C3356 C 0.83353 0.88829 0.28309 0.0
C3357 C 0.86829 0.91122 0.26983 0.0
C3358 C 0.82061 0.86723 0.28606 0.0
C3359 C 0.82758 0.84702 0.27835 0.0
C3360 C 0.85385 0.88921 0.27283 0.0
C3361 C 0.84802 0.84875 0.26813 0.0
C3362 C 0.89121 0.91266 0.26632 0.0
C3363 C 0.87206 0.95106 0.26824 0.0
N3364 N 0.86045 0.86943 0.26578 0.0
N3365 N 0.85944 0.93044 0.27061 0.0
H3366 H 0.69634 0.13589 0.746 0.0
H3367 H 0.79022 0.23429 0.81715 0.0
H3368 H 0.75328 0.12471 0.79332 0.0
H3369 H 0.73043 0.24383 0.77362 0.0
H3370 H 0.77194 0.19475 0.81807 0.0
H3371 H 0.70473 0.17557 0.76261 0.0
C3372 C 0.71076 0.14191 0.75985 0.0
C3373 C 0.72438 0.12724 0.76819 0.0
C3374 C 0.76246 0.20567 0.80903 0.0
C3375 C 0.73392 0.17256 0.78752 0.0
C3376 C 0.77281 0.22815 0.80871 0.0
C3377 C 0.76168 0.24168 0.79504 0.0
C3378 C 0.74133 0.19702 0.79498 0.0
C3379 C 0.73936 0.23352 0.78422 0.0
C3380 C 0.71535 0.16451 0.76958 0.0
C3381 C 0.7427 0.13573 0.78618 0.0
N3382 N 0.72999 0.21137 0.78394 0.0
N3383 N 0.74709 0.15804 0.7952 0.0
loop_
_geom_bond_atom_site_label_1
_geom_bond_atom_site_label_2
_geom_bond_distance
_geom_bond_site_symmetry_2
_ccdc_geom_bond_type
In0 O1 2.294 . S
In0 O2 2.326 . S
In0 O6 2.266 . S
In0 O7 2.326 . S
In0 O8 2.266 . S
In0 O9 2.326 . S
In0 O11 2.294 . S
In0 O12 2.326 . S
O1 In0 2.294 . S
O1 C10 1.240 . S
O2 In0 2.326 . S
O2 C10 1.252 . S
C3 O6 1.252 1_655 S
C3 O7 1.260 1_655 S
C4 O11 1.240 . S
C4 O12 1.252 . S
C5 O8 1.252 . S
C5 O9 1.260 . S
O6 In0 2.266 . S
O6 C3 1.252 1_455 S
O7 In0 2.326 . S
O7 C3 1.260 1_455 S
O8 In0 2.266 . S
O8 C5 1.252 . S
O9 In0 2.326 . S
O9 C5 1.260 . S
C10 O1 1.240 . S
C10 O2 1.252 . S
O11 In0 2.294 . S
O11 C4 1.240 . S
O12 In0 2.326 . S
O12 C4 1.252 . S
In13 O14 2.294 . S
In13 O15 2.326 . S
In13 O19 2.266 . S
In13 O20 2.326 . S
In13 O21 2.266 1_455 S
In13 O22 2.326 1_455 S
In13 O24 2.294 . S
In13 O25 2.326 . S
O14 In13 2.294 . S
O14 C23 1.240 . S
O15 In13 2.326 . S
O15 C23 1.252 . S
C16 O19 1.252 . S
C16 O20 1.260 . S
C17 O24 1.240 . S
C17 O25 1.252 . S
C18 O21 1.252 . S
C18 O22 1.260 . S
O19 In13 2.266 . S
O19 C16 1.252 . S
O20 In13 2.326 . S
O20 C16 1.260 . S
O21 In13 2.266 1_655 S
O21 C18 1.252 . S
O22 In13 2.326 1_655 S
O22 C18 1.260 . S
C23 O14 1.240 . S
C23 O15 1.252 . S
O24 In13 2.294 . S
O24 C17 1.240 . S
O25 In13 2.326 . S
O25 C17 1.252 . S
In26 O27 2.294 . S
In26 O28 2.326 . S
In26 O32 2.266 . S
In26 O33 2.326 . S
In26 O34 2.266 . S
In26 O35 2.326 . S
In26 O37 2.294 . S
In26 O38 2.326 . S
O27 In26 2.294 . S
O27 C36 1.240 . S
O28 In26 2.326 . S
O28 C36 1.252 . S
C29 O32 1.252 . S
C29 O33 1.260 . S
C30 O37 1.240 . S
C30 O38 1.252 . S
C31 O34 1.252 . S
C31 O35 1.260 . S
O32 In26 2.266 . S
O32 C29 1.252 . S
O33 In26 2.326 . S
O33 C29 1.260 . S
O34 In26 2.266 . S
O34 C31 1.252 . S
O35 In26 2.326 . S
O35 C31 1.260 . S
C36 O27 1.240 . S
C36 O28 1.252 . S
O37 In26 2.294 . S
O37 C30 1.240 . S
O38 In26 2.326 . S
O38 C30 1.252 . S
In39 O40 2.294 . S
In39 O41 2.326 . S
In39 O45 2.266 . S
In39 O46 2.326 . S
In39 O47 2.266 . S
In39 O48 2.326 . S
In39 O50 2.294 . S
In39 O51 2.326 . S
O40 In39 2.294 . S
O40 C49 1.240 . S
O41 In39 2.326 . S
O41 C49 1.252 . S
C42 O45 1.252 . S
C42 O46 1.260 . S
C43 O50 1.240 . S
C43 O51 1.252 . S
C44 O47 1.252 . S
C44 O48 1.260 . S
O45 In39 2.266 . S
O45 C42 1.252 . S
O46 In39 2.326 . S
O46 C42 1.260 . S
O47 In39 2.266 . S
O47 C44 1.252 . S
O48 In39 2.326 . S
O48 C44 1.260 . S
C49 O40 1.240 . S
C49 O41 1.252 . S
O50 In39 2.294 . S
O50 C43 1.240 . S
O51 In39 2.326 . S
O51 C43 1.252 . S
In52 O53 2.294 . S
In52 O54 2.326 . S
In52 O58 2.266 . S
In52 O59 2.326 . S
In52 O60 2.266 . S
In52 O61 2.326 . S
In52 O63 2.294 . S
In52 O64 2.326 . S
O53 In52 2.294 . S
O53 C62 1.240 . S
O54 In52 2.326 . S
O54 C62 1.252 . S
C55 O58 1.252 . S
C55 O59 1.260 . S
C56 O63 1.240 . S
C56 O64 1.252 . S
C57 O60 1.252 . S
C57 O61 1.260 . S
O58 In52 2.266 . S
O58 C55 1.252 . S
O59 In52 2.326 . S
O59 C55 1.260 . S
O60 In52 2.266 . S
O60 C57 1.252 . S
O61 In52 2.326 . S
O61 C57 1.260 . S
C62 O53 1.240 . S
C62 O54 1.252 . S
O63 In52 2.294 . S
O63 C56 1.240 . S
O64 In52 2.326 . S
O64 C56 1.252 . S
In65 O66 2.294 . S
In65 O67 2.326 . S
In65 O71 2.266 . S
In65 O72 2.326 . S
In65 O73 2.266 . S
In65 O74 2.326 . S
In65 O76 2.294 . S
In65 O77 2.326 . S
O66 In65 2.294 . S
O66 C75 1.240 . S
O67 In65 2.326 . S
O67 C75 1.252 . S
C68 O71 1.252 . S
C68 O72 1.260 . S
C69 O76 1.240 . S
C69 O77 1.252 . S
C70 O73 1.252 . S
C70 O74 1.260 . S
O71 In65 2.266 . S
O71 C68 1.252 . S
O72 In65 2.326 . S
O72 C68 1.260 . S
O73 In65 2.266 . S
O73 C70 1.252 . S
O74 In65 2.326 . S
O74 C70 1.260 . S
C75 O66 1.240 . S
C75 O67 1.252 . S
O76 In65 2.294 . S
O76 C69 1.240 . S
O77 In65 2.326 . S
O77 C69 1.252 . S
In78 O79 2.294 . S
In78 O80 2.326 . S
In78 O84 2.266 . S
In78 O85 2.326 . S
In78 O86 2.266 . S
In78 O87 2.326 . S
In78 O89 2.294 . S
In78 O90 2.326 . S
O79 In78 2.294 . S
O79 C88 1.240 . S
O80 In78 2.326 . S
O80 C88 1.252 . S
C81 O84 1.252 . S
C81 O85 1.260 . S
C82 O89 1.240 . S
C82 O90 1.252 . S
C83 O86 1.252 . S
C83 O87 1.260 . S
O84 In78 2.266 . S
O84 C81 1.252 . S
O85 In78 2.326 . S
O85 C81 1.260 . S
O86 In78 2.266 . S
O86 C83 1.252 . S
O87 In78 2.326 . S
O87 C83 1.260 . S
C88 O79 1.240 . S
C88 O80 1.252 . S
O89 In78 2.294 . S
O89 C82 1.240 . S
O90 In78 2.326 . S
O90 C82 1.252 . S
In91 O92 2.296 . S
In91 O93 2.334 1_455 S
In91 O97 2.270 . S
In91 O98 2.323 . S
In91 O99 2.258 1_455 S
In91 O100 2.312 1_455 S
In91 O102 2.303 . S
In91 O103 2.340 . S
O92 In91 2.296 . S
O92 C101 1.240 . S
O93 In91 2.334 1_655 S
O93 C101 1.251 1_655 S
C94 O97 1.251 . S
C94 O98 1.260 . S
C95 O102 1.240 . S
C95 O103 1.252 . S
C96 O99 1.252 . S
C96 O100 1.260 . S
O97 In91 2.270 . S
O97 C94 1.251 . S
O98 In91 2.323 . S
O98 C94 1.260 . S
O99 In91 2.258 1_655 S
O99 C96 1.252 . S
O100 In91 2.312 1_655 S
O100 C96 1.260 . S
C101 O92 1.240 . S
C101 O93 1.251 1_455 S
O102 In91 2.303 . S
O102 C95 1.240 . S
O103 In91 2.340 . S
O103 C95 1.252 . S
In104 O105 2.294 . S
In104 O106 2.326 . S
In104 O110 2.266 . S
In104 O111 2.326 . S
In104 O112 2.266 1_545 S
In104 O113 2.326 1_545 S
In104 O115 2.294 . S
In104 O116 2.326 . S
O105 In104 2.294 . S
O105 C114 1.240 . S
O106 In104 2.326 . S
O106 C114 1.252 . S
C107 O110 1.252 . S
C107 O111 1.260 . S
C108 O115 1.240 . S
C108 O116 1.252 . S
C109 O112 1.252 . S
C109 O113 1.260 . S
O110 In104 2.266 . S
O110 C107 1.252 . S
O111 In104 2.326 . S
O111 C107 1.260 . S
O112 In104 2.266 1_565 S
O112 C109 1.252 . S
O113 In104 2.326 1_565 S
O113 C109 1.260 . S
C114 O105 1.240 . S
C114 O106 1.252 . S
O115 In104 2.294 . S
O115 C108 1.240 . S
O116 In104 2.326 . S
O116 C108 1.252 . S
In117 O118 2.294 . S
In117 O119 2.326 . S
In117 O123 2.266 . S
In117 O124 2.326 . S
In117 O125 2.266 . S
In117 O126 2.326 . S
In117 O128 2.294 . S
In117 O129 2.326 . S
O118 In117 2.294 . S
O118 C127 1.240 . S
O119 In117 2.326 . S
O119 C127 1.252 . S
C120 O123 1.252 . S
C120 O124 1.260 . S
C121 O128 1.240 . S
C121 O129 1.252 . S
C122 O125 1.252 . S
C122 O126 1.260 . S
O123 In117 2.266 . S
O123 C120 1.252 . S
O124 In117 2.326 . S
O124 C120 1.260 . S
O125 In117 2.266 . S
O125 C122 1.252 . S
O126 In117 2.326 . S
O126 C122 1.260 . S
C127 O118 1.240 . S
C127 O119 1.252 . S
O128 In117 2.294 . S
O128 C121 1.240 . S
O129 In117 2.326 . S
O129 C121 1.252 . S
In130 O131 2.294 . S
In130 O132 2.326 . S
In130 O136 2.266 . S
In130 O137 2.326 . S
In130 O138 2.266 . S
In130 O139 2.326 . S
In130 O141 2.294 . S
In130 O142 2.326 . S
O131 In130 2.294 . S
O131 C140 1.240 . S
O132 In130 2.326 . S
O132 C140 1.252 . S
C133 O136 1.252 . S
C133 O137 1.260 . S
C134 O141 1.240 . S
C134 O142 1.252 . S
C135 O138 1.252 . S
C135 O139 1.260 . S
O136 In130 2.266 . S
O136 C133 1.252 . S
O137 In130 2.326 . S
O137 C133 1.260 . S
O138 In130 2.266 . S
O138 C135 1.252 . S
O139 In130 2.326 . S
O139 C135 1.260 . S
C140 O131 1.240 . S
C140 O132 1.252 . S
O141 In130 2.294 . S
O141 C134 1.240 . S
O142 In130 2.326 . S
O142 C134 1.252 . S
In143 O144 2.296 . S
In143 O145 2.329 . S
In143 O149 2.264 1_554 S
In143 O150 2.322 1_554 S
In143 O151 2.266 1_554 S
In143 O152 2.323 1_554 S
In143 O154 2.294 . S
In143 O155 2.327 . S
O144 In143 2.296 . S
O144 C153 1.240 . S
O145 In143 2.329 . S
O145 C153 1.252 . S
C146 O149 1.252 . S
C146 O150 1.260 . S
C147 O154 1.240 . S
C147 O155 1.252 . S
C148 O151 1.253 . S
C148 O152 1.257 . S
O149 In143 2.264 1_556 S
O149 C146 1.252 . S
O150 In143 2.322 1_556 S
O150 C146 1.260 . S
O151 In143 2.266 1_556 S
O151 C148 1.253 . S
O152 In143 2.323 1_556 S
O152 C148 1.257 . S
C153 O144 1.240 . S
C153 O145 1.252 . S
O154 In143 2.294 . S
O154 C147 1.240 . S
O155 In143 2.327 . S
O155 C147 1.252 . S
In156 O157 2.294 . S
In156 O158 2.326 . S
In156 O162 2.266 . S
In156 O163 2.326 . S
In156 O164 2.266 . S
In156 O165 2.326 . S
In156 O167 2.294 . S
In156 O168 2.326 . S
O157 In156 2.294 . S
O157 C166 1.240 . S
O158 In156 2.326 . S
O158 C166 1.252 . S
C159 O162 1.249 . S
C159 O163 1.260 . S
C160 O167 1.240 . S
C160 O168 1.252 . S
C161 O164 1.252 . S
C161 O165 1.260 . S
O162 In156 2.266 . S
O162 C159 1.249 . S
O163 In156 2.326 . S
O163 C159 1.260 . S
O164 In156 2.266 . S
O164 C161 1.252 . S
O165 In156 2.326 . S
O165 C161 1.260 . S
C166 O157 1.240 . S
C166 O158 1.252 . S
O167 In156 2.294 . S
O167 C160 1.240 . S
O168 In156 2.326 . S
O168 C160 1.252 . S
In169 O170 2.294 . S
In169 O171 2.326 . S
In169 O175 2.266 . S
In169 O176 2.326 . S
In169 O177 2.266 . S
In169 O178 2.326 . S
In169 O180 2.294 . S
In169 O181 2.326 . S
O170 In169 2.294 . S
O170 C179 1.240 . S
O171 In169 2.326 . S
O171 C179 1.252 . S
C172 O175 1.252 . S
C172 O176 1.260 . S
C173 O180 1.240 . S
C173 O181 1.252 . S
C174 O177 1.252 . S
C174 O178 1.260 . S
O175 In169 2.266 . S
O175 C172 1.252 . S
O176 In169 2.326 . S
O176 C172 1.260 . S
O177 In169 2.266 . S
O177 C174 1.252 . S
O178 In169 2.326 . S
O178 C174 1.260 . S
C179 O170 1.240 . S
C179 O171 1.252 . S
O180 In169 2.294 . S
O180 C173 1.240 . S
O181 In169 2.326 . S
O181 C173 1.252 . S
In182 O183 2.294 . S
In182 O184 2.326 . S
In182 O188 2.266 . S
In182 O189 2.326 . S
In182 O190 2.266 . S
In182 O191 2.326 . S
In182 O193 2.294 . S
In182 O194 2.326 . S
O183 In182 2.294 . S
O183 C192 1.240 . S
O184 In182 2.326 . S
O184 C192 1.252 . S
C185 O188 1.252 . S
C185 O189 1.260 . S
C186 O193 1.240 . S
C186 O194 1.252 . S
C187 O190 1.252 . S
C187 O191 1.260 . S
O188 In182 2.266 . S
O188 C185 1.252 . S
O189 In182 2.326 . S
O189 C185 1.260 . S
O190 In182 2.266 . S
O190 C187 1.252 . S
O191 In182 2.326 . S
O191 C187 1.260 . S
C192 O183 1.240 . S
C192 O184 1.252 . S
O193 In182 2.294 . S
O193 C186 1.240 . S
O194 In182 2.326 . S
O194 C186 1.252 . S
In195 O196 2.294 . S
In195 O197 2.326 . S
In195 O201 2.266 . S
In195 O202 2.326 . S
In195 O203 2.266 . S
In195 O204 2.326 . S
In195 O206 2.294 . S
In195 O207 2.326 . S
O196 In195 2.294 . S
O196 C205 1.240 . S
O197 In195 2.326 . S
O197 C205 1.252 . S
C198 O201 1.252 . S
C198 O202 1.260 . S
C199 O206 1.240 . S
C199 O207 1.252 . S
C200 O203 1.252 . S
C200 O204 1.260 . S
O201 In195 2.266 . S
O201 C198 1.252 . S
O202 In195 2.326 . S
O202 C198 1.260 . S
O203 In195 2.266 . S
O203 C200 1.252 . S
O204 In195 2.326 . S
O204 C200 1.260 . S
C205 O196 1.240 . S
C205 O197 1.252 . S
O206 In195 2.294 . S
O206 C199 1.240 . S
O207 In195 2.326 . S
O207 C199 1.252 . S
In208 O209 2.294 . S
In208 O210 2.326 . S
In208 O214 2.266 . S
In208 O215 2.326 . S
In208 O216 2.266 1_545 S
In208 O217 2.326 1_545 S
In208 O219 2.294 . S
In208 O220 2.326 . S
O209 In208 2.294 . S
O209 C218 1.240 . S
O210 In208 2.326 . S
O210 C218 1.252 . S
C211 O214 1.252 . S
C211 O215 1.260 . S
C212 O219 1.240 . S
C212 O220 1.252 . S
C213 O216 1.252 . S
C213 O217 1.260 . S
O214 In208 2.266 . S
O214 C211 1.252 . S
O215 In208 2.326 . S
O215 C211 1.260 . S
O216 In208 2.266 1_565 S
O216 C213 1.252 . S
O217 In208 2.326 1_565 S
O217 C213 1.260 . S
C218 O209 1.240 . S
C218 O210 1.252 . S
O219 In208 2.294 . S
O219 C212 1.240 . S
O220 In208 2.326 . S
O220 C212 1.252 . S
In221 O222 2.294 . S
In221 O223 2.326 . S
In221 O227 2.266 . S
In221 O228 2.326 . S
In221 O229 2.266 . S
In221 O230 2.326 . S
In221 O232 2.294 . S
In221 O233 2.326 . S
O222 In221 2.294 . S
O222 C231 1.240 . S
O223 In221 2.326 . S
O223 C231 1.252 . S
C224 O227 1.252 . S
C224 O228 1.260 . S
C225 O232 1.240 . S
C225 O233 1.252 . S
C226 O229 1.252 . S
C226 O230 1.260 . S
O227 In221 2.266 . S
O227 C224 1.252 . S
O228 In221 2.326 . S
O228 C224 1.260 . S
O229 In221 2.266 . S
O229 C226 1.252 . S
O230 In221 2.326 . S
O230 C226 1.260 . S
C231 O222 1.240 . S
C231 O223 1.252 . S
O232 In221 2.294 . S
O232 C225 1.240 . S
O233 In221 2.326 . S
O233 C225 1.252 . S
In234 O235 2.294 . S
In234 O236 2.326 . S
In234 O240 2.266 . S
In234 O241 2.326 . S
In234 O242 2.266 . S
In234 O243 2.326 . S
In234 O245 2.294 . S
In234 O246 2.326 . S
O235 In234 2.294 . S
O235 C244 1.240 . S
O236 In234 2.326 . S
O236 C244 1.252 . S
C237 O240 1.252 . S
C237 O241 1.260 . S
C238 O245 1.240 . S
C238 O246 1.252 . S
C239 O242 1.252 . S
C239 O243 1.260 . S
O240 In234 2.266 . S
O240 C237 1.252 . S
O241 In234 2.326 . S
O241 C237 1.260 . S
O242 In234 2.266 . S
O242 C239 1.252 . S
O243 In234 2.326 . S
O243 C239 1.260 . S
C244 O235 1.240 . S
C244 O236 1.252 . S
O245 In234 2.294 . S
O245 C238 1.240 . S
O246 In234 2.326 . S
O246 C238 1.252 . S
In247 O248 2.294 . S
In247 O249 2.326 . S
In247 O253 2.266 . S
In247 O254 2.326 . S
In247 O255 2.266 . S
In247 O256 2.326 . S
In247 O258 2.294 . S
In247 O259 2.326 . S
O248 In247 2.294 . S
O248 C257 1.240 . S
O249 In247 2.326 . S
O249 C257 1.252 . S
C250 O253 1.252 . S
C250 O254 1.260 . S
C251 O258 1.240 . S
C251 O259 1.252 . S
C252 O255 1.252 . S
C252 O256 1.260 . S
O253 In247 2.266 . S
O253 C250 1.252 . S
O254 In247 2.326 . S
O254 C250 1.260 . S
O255 In247 2.266 . S
O255 C252 1.252 . S
O256 In247 2.326 . S
O256 C252 1.260 . S
C257 O248 1.240 . S
C257 O249 1.252 . S
O258 In247 2.294 . S
O258 C251 1.240 . S
O259 In247 2.326 . S
O259 C251 1.252 . S
In260 O261 2.294 . S
In260 O262 2.326 . S
In260 O266 2.266 . S
In260 O267 2.326 . S
In260 O268 2.266 1_554 S
In260 O269 2.326 1_554 S
In260 O271 2.294 . S
In260 O272 2.326 . S
O261 In260 2.294 . S
O261 C270 1.240 . S
O262 In260 2.326 . S
O262 C270 1.252 . S
C263 O266 1.252 . S
C263 O267 1.260 . S
C264 O271 1.240 . S
C264 O272 1.252 . S
C265 O268 1.252 . S
C265 O269 1.260 . S
O266 In260 2.266 . S
O266 C263 1.252 . S
O267 In260 2.326 . S
O267 C263 1.260 . S
O268 In260 2.266 1_556 S
O268 C265 1.252 . S
O269 In260 2.326 1_556 S
O269 C265 1.260 . S
C270 O261 1.240 . S
C270 O262 1.252 . S
O271 In260 2.294 . S
O271 C264 1.240 . S
O272 In260 2.326 . S
O272 C264 1.252 . S
In273 O274 2.294 . S
In273 O275 2.326 . S
In273 O279 2.266 . S
In273 O280 2.326 . S
In273 O281 2.266 . S
In273 O282 2.326 . S
In273 O284 2.294 . S
In273 O285 2.326 . S
O274 In273 2.294 . S
O274 C283 1.240 . S
O275 In273 2.326 . S
O275 C283 1.252 . S
C276 O279 1.252 . S
C276 O280 1.260 . S
C277 O284 1.240 . S
C277 O285 1.252 . S
C278 O281 1.252 . S
C278 O282 1.260 . S
O279 In273 2.266 . S
O279 C276 1.252 . S
O280 In273 2.326 . S
O280 C276 1.260 . S
O281 In273 2.266 . S
O281 C278 1.252 . S
O282 In273 2.326 . S
O282 C278 1.260 . S
C283 O274 1.240 . S
C283 O275 1.252 . S
O284 In273 2.294 . S
O284 C277 1.240 . S
O285 In273 2.326 . S
O285 C277 1.252 . S
In286 O287 2.294 . S
In286 O288 2.326 . S
In286 O292 2.266 . S
In286 O293 2.326 . S
In286 O294 2.266 . S
In286 O295 2.326 . S
In286 O297 2.294 . S
In286 O298 2.326 . S
O287 In286 2.294 . S
O287 C296 1.240 . S
O288 In286 2.326 . S
O288 C296 1.252 . S
C289 O292 1.252 . S
C289 O293 1.260 . S
C290 O297 1.240 . S
C290 O298 1.252 . S
C291 O294 1.252 . S
C291 O295 1.260 . S
O292 In286 2.266 . S
O292 C289 1.252 . S
O293 In286 2.326 . S
O293 C289 1.260 . S
O294 In286 2.266 . S
O294 C291 1.252 . S
O295 In286 2.326 . S
O295 C291 1.260 . S
C296 O287 1.240 . S
C296 O288 1.252 . S
O297 In286 2.294 . S
O297 C290 1.240 . S
O298 In286 2.326 . S
O298 C290 1.252 . S
In299 O300 2.294 . S
In299 O301 2.326 . S
In299 O305 2.266 . S
In299 O306 2.326 . S
In299 O307 2.266 . S
In299 O308 2.326 . S
In299 O310 2.294 . S
In299 O311 2.326 . S
O300 In299 2.294 . S
O300 C309 1.240 . S
O301 In299 2.326 . S
O301 C309 1.252 . S
C302 O305 1.252 . S
C302 O306 1.260 . S
C303 O310 1.240 . S
C303 O311 1.252 . S
C304 O307 1.252 . S
C304 O308 1.260 . S
O305 In299 2.266 . S
O305 C302 1.252 . S
O306 In299 2.326 . S
O306 C302 1.260 . S
O307 In299 2.266 . S
O307 C304 1.252 . S
O308 In299 2.326 . S
O308 C304 1.260 . S
C309 O300 1.240 . S
C309 O301 1.252 . S
O310 In299 2.294 . S
O310 C303 1.240 . S
O311 In299 2.326 . S
O311 C303 1.252 . S
Eu312 N341 2.600 . S
Eu312 N347 2.562 . S
Eu312 O356 2.462 . S
Eu312 O357 2.373 . S
Eu312 O359 2.432 . S
Eu312 O360 2.291 . S
Eu312 O364 2.335 . S
Eu312 O367 2.372 . S
Eu312 C376 2.787 . S
C313 N314 1.365 . S
C313 C316 1.405 . S
C313 C320 1.448 1_556 S
N314 C313 1.365 . S
N314 C317 1.321 . S
N314 Eu323 2.600 1_666 S
C315 C317 1.409 . S
C315 C318 1.367 . S
C315 H335 0.931 . S
C316 C313 1.405 . S
C316 C318 1.403 . S
C316 C322 1.439 . S
C317 N314 1.321 . S
C317 C315 1.409 . S
C317 H328 0.915 1_665 S
C318 C315 1.367 . S
C318 C316 1.403 . S
C318 H339 0.929 . S
C319 C320 1.430 . S
C319 C321 1.387 . S
C319 C325 1.404 . S
C320 C313 1.448 1_554 S
C320 C319 1.430 . S
C320 N324 1.351 . S
C321 C319 1.387 . S
C321 C322 1.374 1_554 S
C321 H336 0.931 . S
C322 C316 1.439 . S
C322 C321 1.374 1_556 S
C322 H337 0.931 . S
Eu323 N314 2.600 1_444 S
Eu323 N324 2.562 1_445 S
Eu323 O358 2.335 . S
Eu323 O361 2.372 1_554 S
Eu323 O362 2.462 1_455 S
Eu323 O363 2.373 . S
Eu323 O365 2.432 1_455 S
Eu323 O366 2.291 . S
Eu323 C387 2.787 1_455 S
N324 C320 1.351 . S
N324 Eu323 2.562 1_665 S
N324 C326 1.325 . S
C325 C319 1.404 . S
C325 C327 1.366 . S
C325 H333 0.930 . S
C326 N324 1.325 . S
C326 C327 1.416 . S
C326 H332 0.929 1_565 S
C327 C325 1.366 . S
C327 C326 1.416 . S
C327 H329 0.930 . S
H328 C317 0.915 1_445 S
H329 C327 0.930 . S
H330 C345 0.930 . S
H331 C352 0.930 . S
H332 C326 0.929 1_545 S
H333 C325 0.930 . S
H334 C348 0.929 . S
H335 C315 0.931 . S
H336 C321 0.931 . S
H337 C322 0.931 . S
H338 C343 0.931 . S
H339 C318 0.929 . S
H340 C351 0.930 . S
N341 Eu312 2.600 . S
N341 C342 1.365 . S
N341 C345 1.319 . S
C342 N341 1.365 . S
C342 C344 1.405 . S
C342 C350 1.448 . S
C343 H338 0.931 . S
C343 C345 1.397 . S
C343 C346 1.367 . S
C344 C342 1.405 . S
C344 C346 1.403 . S
C344 C377 1.439 . S
C345 H330 0.930 . S
C345 N341 1.319 . S
C345 C343 1.397 . S
C346 C343 1.367 . S
C346 C344 1.403 . S
C346 H353 0.929 . S
N347 Eu312 2.562 . S
N347 C348 1.325 . S
N347 C350 1.351 . S
C348 H334 0.929 . S
C348 N347 1.325 . S
C348 C352 1.416 . S
C349 C350 1.430 . S
C349 C351 1.404 . S
C349 C378 1.387 . S
C350 C342 1.448 . S
C350 N347 1.351 . S
C350 C349 1.430 . S
C351 H340 0.930 . S
C351 C349 1.404 . S
C351 C352 1.366 . S
C352 H331 0.930 . S
C352 C348 1.416 . S
C352 C351 1.366 . S
H353 C346 0.929 . S
H354 C377 0.931 . S
H355 C378 0.931 . S
O356 Eu312 2.462 . S
O356 C376 1.252 . S
O357 Eu312 2.373 . S
O357 C368 1.249 . S
O358 Eu323 2.335 . S
O358 C368 1.264 . S
O359 Eu312 2.432 . S
O359 C376 1.268 . S
O360 Eu312 2.291 . S
O360 C375 1.255 . S
O361 Eu323 2.372 1_556 S
O361 C375 1.257 1_556 S
O362 Eu323 2.462 1_655 S
O362 C387 1.252 . S
O363 Eu323 2.373 . S
O363 C379 1.268 . S
O364 Eu312 2.335 . S
O364 C379 1.293 . S
O365 Eu323 2.432 1_655 S
O365 C387 1.268 . S
O366 Eu323 2.291 . S
O366 C386 1.255 . S
O367 Eu312 2.372 . S
O367 C386 1.257 . S
C368 O357 1.249 . S
C368 O358 1.264 . S
C369 C372 1.382 . S
C369 C374 1.390 . S
C369 C376 1.506 . S
C370 C371 1.398 . S
C370 C374 1.392 . S
C371 C370 1.398 . S
C371 C373 1.372 . S
C371 H388 0.931 . S
C372 C369 1.382 . S
C372 C373 1.390 . S
C372 H389 0.931 . S
C373 C371 1.372 . S
C373 C372 1.390 . S
C373 H390 0.929 . S
C374 C369 1.390 . S
C374 C370 1.392 . S
C374 H391 0.930 . S
C375 O360 1.255 . S
C375 O361 1.257 1_554 S
C376 Eu312 2.787 . S
C376 O356 1.252 . S
C376 O359 1.268 . S
C376 C369 1.506 . S
C377 C344 1.439 . S
C377 H354 0.931 . S
C377 C378 1.374 . S
C378 C349 1.387 . S
C378 H355 0.931 . S
C378 C377 1.374 . S
C379 O363 1.268 . S
C379 O364 1.293 . S
C380 C383 1.382 1_554 S
C380 C384 1.390 . S
C380 C387 1.506 . S
C381 C382 1.398 . S
C381 C384 1.392 . S
C382 C381 1.398 . S
C382 C385 1.372 1_554 S
C382 H392 0.931 . S
C383 C380 1.382 1_556 S
C383 C385 1.390 . S
C383 H393 0.931 . S
C384 C380 1.390 . S
C384 C381 1.392 . S
C384 H394 0.930 . S
C385 C382 1.372 1_556 S
C385 C383 1.390 . S
C385 H395 0.929 . S
C386 O366 1.255 . S
C386 O367 1.257 . S
C387 Eu323 2.787 1_655 S
C387 O362 1.252 . S
C387 O365 1.268 . S
C387 C380 1.506 . S
H388 C371 0.931 . S
H389 C372 0.931 . S
H390 C373 0.929 . S
H391 C374 0.930 . S
H392 C382 0.931 . S
H393 C383 0.931 . S
H394 C384 0.930 . S
H395 C385 0.929 . S
Eu396 N425 2.600 . S
Eu396 N431 2.562 . S
Eu396 O440 2.462 . S
Eu396 O441 2.373 . S
Eu396 O443 2.432 . S
Eu396 O444 2.291 . S
Eu396 O448 2.335 . S
Eu396 O451 2.372 . S
Eu396 C460 2.787 . S
C397 N398 1.365 . S
C397 C400 1.405 . S
C397 C404 1.448 . S
N398 C397 1.365 . S
N398 C401 1.319 . S
N398 Eu407 2.600 . S
C399 C401 1.397 . S
C399 C402 1.367 . S
C399 H419 0.931 . S
C400 C397 1.405 . S
C400 C402 1.403 . S
C400 C406 1.439 . S
C401 N398 1.319 . S
C401 C399 1.397 . S
C401 H412 0.930 . S
C402 C399 1.367 . S
C402 C400 1.403 . S
C402 H423 0.929 . S
C403 C404 1.430 . S
C403 C405 1.387 . S
C403 C409 1.404 . S
C404 C397 1.448 . S
C404 C403 1.430 . S
C404 N408 1.351 . S
C405 C403 1.387 . S
C405 C406 1.374 . S
C405 H420 0.931 . S
C406 C400 1.439 . S
C406 C405 1.374 . S
C406 H421 0.931 . S
Eu407 N398 2.600 . S
Eu407 N408 2.562 . S
Eu407 O442 2.335 . S
Eu407 O445 2.372 . S
Eu407 O446 2.462 . S
Eu407 O447 2.373 . S
Eu407 O449 2.432 . S
Eu407 O450 2.291 . S
Eu407 C471 2.787 . S
N408 C404 1.351 . S
N408 Eu407 2.562 . S
N408 C410 1.325 . S
C409 C403 1.404 . S
C409 C411 1.366 . S
C409 H417 0.930 . S
C410 N408 1.325 . S
C410 C411 1.416 . S
C410 H416 0.929 . S
C411 C409 1.366 . S
C411 C410 1.416 . S
C411 H413 0.930 . S
H412 C401 0.930 . S
H413 C411 0.930 . S
H414 C429 0.930 . S
H415 C436 0.930 . S
H416 C410 0.929 . S
H417 C409 0.930 . S
H418 C432 0.929 . S
H419 C399 0.931 . S
H420 C405 0.931 . S
H421 C406 0.931 . S
H422 C427 0.931 . S
H423 C402 0.929 . S
H424 C435 0.930 . S
N425 Eu396 2.600 . S
N425 C426 1.365 . S
N425 C429 1.319 . S
C426 N425 1.365 . S
C426 C428 1.405 . S
C426 C434 1.448 . S
C427 H422 0.931 . S
C427 C429 1.397 . S
C427 C430 1.367 . S
C428 C426 1.405 . S
C428 C430 1.403 . S
C428 C461 1.439 . S
C429 H414 0.930 . S
C429 N425 1.319 . S
C429 C427 1.397 . S
C430 C427 1.367 . S
C430 C428 1.403 . S
C430 H437 0.929 . S
N431 Eu396 2.562 . S
N431 C432 1.325 . S
N431 C434 1.351 . S
C432 H418 0.929 . S
C432 N431 1.325 . S
C432 C436 1.416 . S
C433 C434 1.430 . S
C433 C435 1.404 . S
C433 C462 1.387 . S
C434 C426 1.448 . S
C434 N431 1.351 . S
C434 C433 1.430 . S
C435 H424 0.930 . S
C435 C433 1.404 . S
C435 C436 1.366 . S
C436 H415 0.930 . S
C436 C432 1.416 . S
C436 C435 1.366 . S
H437 C430 0.929 . S
H438 C461 0.931 . S
H439 C462 0.931 . S
O440 Eu396 2.462 . S
O440 C460 1.252 . S
O441 Eu396 2.373 . S
O441 C452 1.249 . S
O442 Eu407 2.335 . S
O442 C452 1.264 . S
O443 Eu396 2.432 . S
O443 C460 1.268 . S
O444 Eu396 2.291 . S
O444 C459 1.255 . S
O445 Eu407 2.372 . S
O445 C459 1.257 . S
O446 Eu407 2.462 . S
O446 C471 1.252 . S
O447 Eu407 2.373 . S
O447 C463 1.249 . S
O448 Eu396 2.335 . S
O448 C463 1.264 . S
O449 Eu407 2.432 . S
O449 C471 1.268 . S
O450 Eu407 2.291 . S
O450 C470 1.255 . S
O451 Eu396 2.372 . S
O451 C470 1.257 . S
C452 O441 1.249 . S
C452 O442 1.264 . S
C453 C456 1.382 . S
C453 C458 1.390 . S
C453 C460 1.506 . S
C454 C455 1.398 . S
C454 C458 1.392 . S
C455 C454 1.398 . S
C455 C457 1.372 . S
C455 H472 0.931 . S
C456 C453 1.382 . S
C456 C457 1.390 . S
C456 H473 0.931 . S
C457 C455 1.372 . S
C457 C456 1.390 . S
C457 H474 0.929 . S
C458 C453 1.390 . S
C458 C454 1.392 . S
C458 H475 0.930 . S
C459 O444 1.255 . S
C459 O445 1.257 . S
C460 Eu396 2.787 . S
C460 O440 1.252 . S
C460 O443 1.268 . S
C460 C453 1.506 . S
C461 C428 1.439 . S
C461 H438 0.931 . S
C461 C462 1.374 . S
C462 C433 1.387 . S
C462 H439 0.931 . S
C462 C461 1.374 . S
C463 O447 1.249 . S
C463 O448 1.264 . S
C464 C467 1.382 . S
C464 C468 1.390 . S
C464 C471 1.506 . S
C465 C466 1.398 . S
C465 C468 1.392 . S
C466 C465 1.398 . S
C466 C469 1.372 . S
C466 H476 0.931 . S
C467 C464 1.382 . S
C467 C469 1.390 . S
C467 H477 0.931 . S
C468 C464 1.390 . S
C468 C465 1.392 . S
C468 H478 0.930 . S
C469 C466 1.372 . S
C469 C467 1.390 . S
C469 H479 0.929 . S
C470 O450 1.255 . S
C470 O451 1.257 . S
C471 Eu407 2.787 . S
C471 O446 1.252 . S
C471 O449 1.268 . S
C471 C464 1.506 . S
H472 C455 0.931 . S
H473 C456 0.931 . S
H474 C457 0.929 . S
H475 C458 0.930 . S
H476 C466 0.931 . S
H477 C467 0.931 . S
H478 C468 0.930 . S
H479 C469 0.929 . S
Eu480 N509 2.600 1_545 S
Eu480 N515 2.562 1_545 S
Eu480 O524 2.462 . S
Eu480 O525 2.373 1_545 S
Eu480 O527 2.432 . S
Eu480 O528 2.291 . S
Eu480 O532 2.335 . S
Eu480 O535 2.372 . S
Eu480 C544 2.787 . S
C481 N482 1.365 . S
C481 C484 1.405 . S
C481 C488 1.448 . S
N482 C481 1.365 . S
N482 C485 1.319 . S
N482 Eu491 2.600 . S
C483 C485 1.397 . S
C483 C486 1.367 . S
C483 H503 0.931 . S
C484 C481 1.405 . S
C484 C486 1.403 . S
C484 C490 1.439 . S
C485 N482 1.319 . S
C485 C483 1.397 . S
C485 H496 0.930 . S
C486 C483 1.367 . S
C486 C484 1.403 . S
C486 H507 0.929 . S
C487 C488 1.430 . S
C487 C489 1.387 . S
C487 C493 1.404 . S
C488 C481 1.448 . S
C488 C487 1.430 . S
C488 N492 1.351 . S
C489 C487 1.387 . S
C489 C490 1.374 . S
C489 H504 0.931 . S
C490 C484 1.439 . S
C490 C489 1.374 . S
C490 H505 0.931 . S
Eu491 N482 2.600 . S
Eu491 N492 2.562 . S
Eu491 O526 2.335 1_545 S
Eu491 O529 2.372 . S
Eu491 O530 2.462 . S
Eu491 O531 2.373 . S
Eu491 O533 2.432 . S
Eu491 O534 2.291 . S
Eu491 C555 2.787 . S
N492 C488 1.351 . S
N492 Eu491 2.562 . S
N492 C494 1.325 . S
C493 C487 1.404 . S
C493 C495 1.366 . S
C493 H501 0.930 . S
C494 N492 1.325 . S
C494 C495 1.416 . S
C494 H500 0.929 . S
C495 C493 1.366 . S
C495 C494 1.416 . S
C495 H497 0.930 . S
H496 C485 0.930 . S
H497 C495 0.930 . S
H498 C513 0.930 1_545 S
H499 C520 0.930 . S
H500 C494 0.929 . S
H501 C493 0.930 . S
H502 C516 0.929 . S
H503 C483 0.931 . S
H504 C489 0.931 . S
H505 C490 0.931 . S
H506 C511 0.931 . S
H507 C486 0.929 . S
H508 C519 0.930 . S
N509 Eu480 2.600 1_565 S
N509 C510 1.365 . S
N509 C513 1.319 . S
C510 N509 1.365 . S
C510 C512 1.405 . S
C510 C518 1.448 . S
C511 H506 0.931 . S
C511 C513 1.397 . S
C511 C514 1.367 . S
C512 C510 1.405 . S
C512 C514 1.403 . S
C512 C545 1.439 . S
C513 H498 0.930 1_565 S
C513 N509 1.319 . S
C513 C511 1.397 . S
C514 C511 1.367 . S
C514 C512 1.403 . S
C514 H521 0.929 . S
N515 Eu480 2.562 1_565 S
N515 C516 1.325 . S
N515 C518 1.351 . S
C516 H502 0.929 . S
C516 N515 1.325 . S
C516 C520 1.416 . S
C517 C518 1.430 . S
C517 C519 1.404 . S
C517 C546 1.387 . S
C518 C510 1.448 . S
C518 N515 1.351 . S
C518 C517 1.430 . S
C519 H508 0.930 . S
C519 C517 1.404 . S
C519 C520 1.366 . S
C520 H499 0.930 . S
C520 C516 1.416 . S
C520 C519 1.366 . S
H521 C514 0.929 . S
H522 C545 0.931 . S
H523 C546 0.931 . S
O524 Eu480 2.462 . S
O524 C544 1.252 . S
O525 Eu480 2.373 1_565 S
O525 C536 1.249 . S
O526 Eu491 2.335 1_565 S
O526 C536 1.264 . S
O527 Eu480 2.432 . S
O527 C544 1.268 . S
O528 Eu480 2.291 . S
O528 C543 1.255 . S
O529 Eu491 2.372 . S
O529 C543 1.257 . S
O530 Eu491 2.462 . S
O530 C555 1.252 . S
O531 Eu491 2.373 . S
O531 C547 1.249 . S
O532 Eu480 2.335 . S
O532 C547 1.264 . S
O533 Eu491 2.432 . S
O533 C555 1.268 . S
O534 Eu491 2.291 . S
O534 C554 1.255 . S
O535 Eu480 2.372 . S
O535 C554 1.257 . S
C536 O525 1.249 . S
C536 O526 1.264 . S
C537 C540 1.382 . S
C537 C542 1.390 . S
C537 C544 1.506 . S
C538 C539 1.398 . S
C538 C542 1.392 . S
C539 C538 1.398 . S
C539 C541 1.372 . S
C539 H556 0.931 . S
C540 C537 1.382 . S
C540 C541 1.390 . S
C540 H557 0.931 . S
C541 C539 1.372 . S
C541 C540 1.390 . S
C541 H558 0.929 . S
C542 C537 1.390 . S
C542 C538 1.392 . S
C542 H559 0.930 . S
C543 O528 1.255 . S
C543 O529 1.257 . S
C544 Eu480 2.787 . S
C544 O524 1.252 . S
C544 O527 1.268 . S
C544 C537 1.506 . S
C545 C512 1.439 . S
C545 H522 0.931 . S
C545 C546 1.374 . S
C546 C517 1.387 . S
C546 H523 0.931 . S
C546 C545 1.374 . S
C547 O531 1.249 . S
C547 O532 1.264 . S
C548 C551 1.382 . S
C548 C552 1.390 . S
C548 C555 1.506 1_565 S
C549 C550 1.398 . S
C549 C552 1.392 . S
C550 C549 1.398 . S
C550 C553 1.372 . S
C550 H560 0.931 . S
C551 C548 1.382 . S
C551 C553 1.390 . S
C551 H561 0.931 . S
C552 C548 1.390 . S
C552 C549 1.392 . S
C552 H562 0.930 . S
C553 C550 1.372 . S
C553 C551 1.390 . S
C553 H563 0.929 . S
C554 O534 1.255 . S
C554 O535 1.257 . S
C555 Eu491 2.787 . S
C555 O530 1.252 . S
C555 O533 1.268 . S
C555 C548 1.506 1_545 S
H556 C539 0.931 . S
H557 C540 0.931 . S
H558 C541 0.929 . S
H559 C542 0.930 . S
H560 C550 0.931 . S
H561 C551 0.931 . S
H562 C552 0.930 . S
H563 C553 0.929 . S
Eu564 N593 2.600 . S
Eu564 N599 2.562 . S
Eu564 O608 2.462 . S
Eu564 O609 2.373 . S
Eu564 O611 2.432 . S
Eu564 O612 2.291 . S
Eu564 O616 2.335 . S
Eu564 O619 2.372 . S
Eu564 C628 2.787 . S
C565 N566 1.365 . S
C565 C568 1.405 . S
C565 C572 1.448 . S
N566 C565 1.365 . S
N566 C569 1.319 . S
N566 Eu575 2.600 . S
C567 C569 1.397 . S
C567 C570 1.367 . S
C567 H587 0.931 . S
C568 C565 1.405 . S
C568 C570 1.403 . S
C568 C574 1.439 . S
C569 N566 1.319 . S
C569 C567 1.397 . S
C569 H580 0.930 . S
C570 C567 1.367 . S
C570 C568 1.403 . S
C570 H591 0.929 . S
C571 C572 1.430 . S
C571 C573 1.387 . S
C571 C577 1.404 . S
C572 C565 1.448 . S
C572 C571 1.430 . S
C572 N576 1.351 . S
C573 C571 1.387 . S
C573 C574 1.374 . S
C573 H588 0.931 . S
C574 C568 1.439 . S
C574 C573 1.374 . S
C574 H589 0.931 . S
Eu575 N566 2.600 . S
Eu575 N576 2.562 . S
Eu575 O610 2.335 . S
Eu575 O613 2.372 . S
Eu575 O614 2.462 . S
Eu575 O615 2.373 . S
Eu575 O617 2.432 . S
Eu575 O618 2.291 . S
Eu575 C639 2.787 . S
N576 C572 1.351 . S
N576 Eu575 2.562 . S
N576 C578 1.325 . S
C577 C571 1.404 . S
C577 C579 1.366 . S
C577 H585 0.930 . S
C578 N576 1.325 . S
C578 C579 1.416 . S
C578 H584 0.929 . S
C579 C577 1.366 . S
C579 C578 1.416 . S
C579 H581 0.930 . S
H580 C569 0.930 . S
H581 C579 0.930 . S
H582 C597 0.930 . S
H583 C604 0.930 . S
H584 C578 0.929 . S
H585 C577 0.930 . S
H586 C600 0.929 . S
H587 C567 0.931 . S
H588 C573 0.931 . S
H589 C574 0.931 . S
H590 C595 0.931 . S
H591 C570 0.929 . S
H592 C603 0.930 . S
N593 Eu564 2.600 . S
N593 C594 1.365 . S
N593 C597 1.319 . S
C594 N593 1.365 . S
C594 C596 1.405 . S
C594 C602 1.448 . S
C595 H590 0.931 . S
C595 C597 1.397 . S
C595 C598 1.367 . S
C596 C594 1.405 . S
C596 C598 1.403 . S
C596 C629 1.439 . S
C597 H582 0.930 . S
C597 N593 1.319 . S
C597 C595 1.397 . S
C598 C595 1.367 . S
C598 C596 1.403 . S
C598 H605 0.929 . S
N599 Eu564 2.562 . S
N599 C600 1.325 . S
N599 C602 1.351 . S
C600 H586 0.929 . S
C600 N599 1.325 . S
C600 C604 1.416 . S
C601 C602 1.430 . S
C601 C603 1.404 . S
C601 C630 1.387 . S
C602 C594 1.448 . S
C602 N599 1.351 . S
C602 C601 1.430 . S
C603 H592 0.930 . S
C603 C601 1.404 . S
C603 C604 1.366 . S
C604 H583 0.930 . S
C604 C600 1.416 . S
C604 C603 1.366 . S
H605 C598 0.929 . S
H606 C629 0.931 . S
H607 C630 0.931 . S
O608 Eu564 2.462 . S
O608 C628 1.252 . S
O609 Eu564 2.373 . S
O609 C620 1.249 . S
O610 Eu575 2.335 . S
O610 C620 1.264 . S
O611 Eu564 2.432 . S
O611 C628 1.268 . S
O612 Eu564 2.291 . S
O612 C627 1.255 . S
O613 Eu575 2.372 . S
O613 C627 1.257 . S
O614 Eu575 2.462 . S
O614 C639 1.252 . S
O615 Eu575 2.373 . S
O615 C631 1.249 . S
O616 Eu564 2.335 . S
O616 C631 1.264 . S
O617 Eu575 2.432 . S
O617 C639 1.268 . S
O618 Eu575 2.291 . S
O618 C638 1.255 . S
O619 Eu564 2.372 . S
O619 C638 1.257 . S
C620 O609 1.249 . S
C620 O610 1.264 . S
C621 C624 1.382 . S
C621 C626 1.390 . S
C621 C628 1.506 . S
C622 C623 1.398 . S
C622 C626 1.392 . S
C623 C622 1.398 . S
C623 C625 1.372 . S
C623 H640 0.931 . S
C624 C621 1.382 . S
C624 C625 1.390 . S
C624 H641 0.931 . S
C625 C623 1.372 . S
C625 C624 1.390 . S
C625 H642 0.929 . S
C626 C621 1.390 . S
C626 C622 1.392 . S
C626 H643 0.930 . S
C627 O612 1.255 . S
C627 O613 1.257 . S
C628 Eu564 2.787 . S
C628 O608 1.252 . S
C628 O611 1.268 . S
C628 C621 1.506 . S
C629 C596 1.439 . S
C629 H606 0.931 . S
C629 C630 1.374 . S
C630 C601 1.387 . S
C630 H607 0.931 . S
C630 C629 1.374 . S
C631 O615 1.249 . S
C631 O616 1.264 . S
C632 C635 1.382 . S
C632 C636 1.390 . S
C632 C639 1.506 . S
C633 C634 1.398 . S
C633 C636 1.392 . S
C634 C633 1.398 . S
C634 C637 1.372 . S
C634 H644 0.931 . S
C635 C632 1.382 . S
C635 C637 1.390 . S
C635 H645 0.931 . S
C636 C632 1.390 . S
C636 C633 1.392 . S
C636 H646 0.930 . S
C637 C634 1.372 . S
C637 C635 1.390 . S
C637 H647 0.929 . S
C638 O618 1.255 . S
C638 O619 1.257 . S
C639 Eu575 2.787 . S
C639 O614 1.252 . S
C639 O617 1.268 . S
C639 C632 1.506 . S
H640 C623 0.931 . S
H641 C624 0.931 . S
H642 C625 0.929 . S
H643 C626 0.930 . S
H644 C634 0.931 . S
H645 C635 0.931 . S
H646 C636 0.930 . S
H647 C637 0.929 . S
Eu648 N677 2.600 . S
Eu648 N683 2.562 . S
Eu648 O692 2.462 . S
Eu648 O693 2.373 1_565 S
Eu648 O695 2.432 . S
Eu648 O696 2.291 . S
Eu648 O700 2.335 1_565 S
Eu648 O703 2.372 1_565 S
Eu648 C712 2.787 . S
C649 N650 1.365 . S
C649 C652 1.437 . S
C649 C656 1.448 . S
N650 C649 1.365 . S
N650 C653 1.319 1_455 S
N650 Eu659 2.600 . S
C651 C653 1.397 . S
C651 C654 1.367 . S
C651 H671 0.931 . S
C652 C649 1.437 . S
C652 C654 1.359 1_455 S
C652 C658 1.454 . S
C653 N650 1.319 1_655 S
C653 C651 1.397 . S
C653 H664 0.930 . S
C654 C651 1.367 . S
C654 C652 1.359 1_655 S
C654 H675 0.929 . S
C655 C656 1.430 . S
C655 C657 1.387 . S
C655 C661 1.404 . S
C656 C649 1.448 . S
C656 C655 1.430 . S
C656 N660 1.351 . S
C657 C655 1.387 . S
C657 C658 1.374 . S
C657 H672 0.931 . S
C658 C652 1.454 . S
C658 C657 1.374 . S
C658 H673 0.931 . S
Eu659 N650 2.600 . S
Eu659 N660 2.562 . S
Eu659 O694 2.335 . S
Eu659 O697 2.372 1_455 S
Eu659 O698 2.462 . S
Eu659 O699 2.373 . S
Eu659 O701 2.432 . S
Eu659 O702 2.291 . S
Eu659 C723 2.787 . S
N660 C656 1.351 . S
N660 Eu659 2.562 . S
N660 C662 1.325 . S
C661 C655 1.404 . S
C661 C663 1.366 . S
C661 H669 0.930 . S
C662 N660 1.325 . S
C662 C663 1.416 . S
C662 H668 0.929 . S
C663 C661 1.366 . S
C663 C662 1.416 . S
C663 H665 0.930 . S
H664 C653 0.930 . S
H665 C663 0.930 . S
H666 C681 0.930 1_545 S
H667 C688 0.930 . S
H668 C662 0.929 . S
H669 C661 0.930 . S
H670 C684 0.929 . S
H671 C651 0.931 . S
H672 C657 0.931 . S
H673 C658 0.931 . S
H674 C679 0.931 . S
H675 C654 0.929 . S
H676 C687 0.920 1_655 S
N677 Eu648 2.600 . S
N677 C678 1.365 . S
N677 C681 1.319 . S
C678 N677 1.365 . S
C678 C680 1.405 . S
C678 C686 1.448 . S
C679 H674 0.931 . S
C679 C681 1.397 . S
C679 C682 1.367 . S
C680 C678 1.405 . S
C680 C682 1.403 . S
C680 C713 1.439 . S
C681 H666 0.930 1_565 S
C681 N677 1.319 . S
C681 C679 1.397 . S
C682 C679 1.367 . S
C682 C680 1.403 . S
C682 H689 0.929 . S
N683 Eu648 2.562 . S
N683 C684 1.325 . S
N683 C686 1.351 . S
C684 H670 0.929 . S
C684 N683 1.325 . S
C684 C688 1.416 1_455 S
C685 C686 1.430 . S
C685 C687 1.404 . S
C685 C714 1.387 . S
C686 C678 1.448 . S
C686 N683 1.351 . S
C686 C685 1.430 . S
C687 H676 0.920 1_455 S
C687 C685 1.404 . S
C687 C688 1.366 1_455 S
C688 H667 0.930 . S
C688 C684 1.416 1_655 S
C688 C687 1.366 1_655 S
H689 C682 0.929 . S
H690 C713 0.931 . S
H691 C714 0.931 . S
O692 Eu648 2.462 . S
O692 C712 1.252 . S
O693 Eu648 2.373 1_545 S
O693 C704 1.249 . S
O694 Eu659 2.335 . S
O694 C704 1.264 . S
O695 Eu648 2.432 . S
O695 C712 1.268 . S
O696 Eu648 2.291 . S
O696 C711 1.255 1_465 S
O697 Eu659 2.372 1_655 S
O697 C711 1.257 . S
O698 Eu659 2.462 . S
O698 C723 1.252 . S
O699 Eu659 2.373 . S
O699 C715 1.249 . S
O700 Eu648 2.335 1_545 S
O700 C715 1.264 . S
O701 Eu659 2.432 . S
O701 C723 1.268 . S
O702 Eu659 2.291 . S
O702 C722 1.255 . S
O703 Eu648 2.372 1_545 S
O703 C722 1.257 . S
C704 O693 1.249 . S
C704 O694 1.264 . S
C705 C708 1.382 . S
C705 C710 1.390 . S
C705 C712 1.506 . S
C706 C707 1.398 . S
C706 C710 1.392 . S
C707 C706 1.398 . S
C707 C709 1.372 . S
C707 H724 0.931 . S
C708 C705 1.382 . S
C708 C709 1.390 . S
C708 H725 0.931 . S
C709 C707 1.372 . S
C709 C708 1.390 . S
C709 H726 0.929 . S
C710 C705 1.390 . S
C710 C706 1.392 . S
C710 H727 0.930 . S
C711 O696 1.255 1_645 S
C711 O697 1.257 . S
C712 Eu648 2.787 . S
C712 O692 1.252 . S
C712 O695 1.268 . S
C712 C705 1.506 . S
C713 C680 1.439 . S
C713 H690 0.931 . S
C713 C714 1.374 . S
C714 C685 1.387 . S
C714 H691 0.931 . S
C714 C713 1.374 . S
C715 O699 1.249 . S
C715 O700 1.264 . S
C716 C719 1.382 1_455 S
C716 C720 1.390 . S
C716 C723 1.506 . S
C717 C718 1.398 . S
C717 C720 1.392 . S
C718 C717 1.398 . S
C718 C721 1.372 1_455 S
C718 H728 0.931 . S
C719 C716 1.382 1_655 S
C719 C721 1.390 . S
C719 H729 0.931 . S
C720 C716 1.390 . S
C720 C717 1.392 . S
C720 H730 0.930 . S
C721 C718 1.372 1_655 S
C721 C719 1.390 . S
C721 H731 0.929 . S
C722 O702 1.255 . S
C722 O703 1.257 . S
C723 Eu659 2.787 . S
C723 O698 1.252 . S
C723 O701 1.268 . S
C723 C716 1.506 . S
H724 C707 0.931 . S
H725 C708 0.931 . S
H726 C709 0.929 . S
H727 C710 0.930 . S
H728 C718 0.931 . S
H729 C719 0.931 . S
H730 C720 0.930 . S
H731 C721 0.929 . S
Eu732 N761 2.600 . S
Eu732 N767 2.562 . S
Eu732 O776 2.462 . S
Eu732 O777 2.373 . S
Eu732 O779 2.432 . S
Eu732 O780 2.291 . S
Eu732 O784 2.335 . S
Eu732 O787 2.372 . S
Eu732 C796 2.787 . S
C733 N734 1.365 . S
C733 C736 1.405 . S
C733 C740 1.448 . S
N734 C733 1.365 . S
N734 C737 1.319 . S
N734 Eu743 2.600 . S
C735 C737 1.397 . S
C735 C738 1.367 . S
C735 H755 0.931 . S
C736 C733 1.405 . S
C736 C738 1.403 . S
C736 C742 1.439 . S
C737 N734 1.319 . S
C737 C735 1.397 . S
C737 H748 0.930 . S
C738 C735 1.367 . S
C738 C736 1.403 . S
C738 H759 0.929 . S
C739 C740 1.430 . S
C739 C741 1.387 . S
C739 C745 1.404 . S
C740 C733 1.448 . S
C740 C739 1.430 . S
C740 N744 1.351 . S
C741 C739 1.387 . S
C741 C742 1.374 . S
C741 H756 0.931 . S
C742 C736 1.439 . S
C742 C741 1.374 . S
C742 H757 0.931 . S
Eu743 N734 2.600 . S
Eu743 N744 2.562 . S
Eu743 O778 2.335 . S
Eu743 O781 2.372 . S
Eu743 O782 2.462 . S
Eu743 O783 2.373 . S
Eu743 O785 2.432 . S
Eu743 O786 2.291 . S
Eu743 C807 2.787 . S
N744 C740 1.351 . S
N744 Eu743 2.562 . S
N744 C746 1.325 . S
C745 C739 1.404 . S
C745 C747 1.366 . S
C745 H753 0.930 . S
C746 N744 1.325 . S
C746 C747 1.416 . S
C746 H752 0.929 . S
C747 C745 1.366 . S
C747 C746 1.416 . S
C747 H749 0.930 . S
H748 C737 0.930 . S
H749 C747 0.930 . S
H750 C765 0.930 . S
H751 C772 0.930 . S
H752 C746 0.929 . S
H753 C745 0.930 . S
H754 C768 0.929 . S
H755 C735 0.931 . S
H756 C741 0.931 . S
H757 C742 0.931 . S
H758 C763 0.931 . S
H759 C738 0.929 . S
H760 C771 0.930 . S
N761 Eu732 2.600 . S
N761 C762 1.365 . S
N761 C765 1.319 . S
C762 N761 1.365 . S
C762 C764 1.405 . S
C762 C770 1.448 . S
C763 H758 0.931 . S
C763 C765 1.397 . S
C763 C766 1.367 . S
C764 C762 1.405 . S
C764 C766 1.403 . S
C764 C797 1.439 . S
C765 H750 0.930 . S
C765 N761 1.319 . S
C765 C763 1.397 . S
C766 C763 1.367 . S
C766 C764 1.403 . S
C766 H773 0.929 . S
N767 Eu732 2.562 . S
N767 C768 1.325 . S
N767 C770 1.351 . S
C768 H754 0.929 . S
C768 N767 1.325 . S
C768 C772 1.416 . S
C769 C770 1.430 . S
C769 C771 1.404 . S
C769 C798 1.387 . S
C770 C762 1.448 . S
C770 N767 1.351 . S
C770 C769 1.430 . S
C771 H760 0.930 . S
C771 C769 1.404 . S
C771 C772 1.366 . S
C772 H751 0.930 . S
C772 C768 1.416 . S
C772 C771 1.366 . S
H773 C766 0.929 . S
H774 C797 0.931 . S
H775 C798 0.931 . S
O776 Eu732 2.462 . S
O776 C796 1.252 . S
O777 Eu732 2.373 . S
O777 C788 1.249 . S
O778 Eu743 2.335 . S
O778 C788 1.264 . S
O779 Eu732 2.432 . S
O779 C796 1.268 . S
O780 Eu732 2.291 . S
O780 C795 1.255 . S
O781 Eu743 2.372 . S
O781 C795 1.257 . S
O782 Eu743 2.462 . S
O782 C807 1.252 . S
O783 Eu743 2.373 . S
O783 C799 1.249 . S
O784 Eu732 2.335 . S
O784 C799 1.264 . S
O785 Eu743 2.432 . S
O785 C807 1.268 . S
O786 Eu743 2.291 . S
O786 C806 1.255 . S
O787 Eu732 2.372 . S
O787 C806 1.257 . S
C788 O777 1.249 . S
C788 O778 1.264 . S
C789 C792 1.382 . S
C789 C794 1.390 . S
C789 C796 1.506 . S
C790 C791 1.398 . S
C790 C794 1.392 . S
C791 C790 1.398 . S
C791 C793 1.372 . S
C791 H808 0.931 . S
C792 C789 1.382 . S
C792 C793 1.390 . S
C792 H809 0.931 . S
C793 C791 1.372 . S
C793 C792 1.390 . S
C793 H810 0.929 . S
C794 C789 1.390 . S
C794 C790 1.392 . S
C794 H811 0.930 . S
C795 O780 1.255 . S
C795 O781 1.257 . S
C796 Eu732 2.787 . S
C796 O776 1.252 . S
C796 O779 1.268 . S
C796 C789 1.506 . S
C797 C764 1.439 . S
C797 H774 0.931 . S
C797 C798 1.374 . S
C798 C769 1.387 . S
C798 H775 0.931 . S
C798 C797 1.374 . S
C799 O783 1.249 . S
C799 O784 1.264 . S
C800 C803 1.382 . S
C800 C804 1.390 . S
C800 C807 1.506 . S
C801 C802 1.398 . S
C801 C804 1.392 . S
C802 C801 1.398 . S
C802 C805 1.372 . S
C802 H812 0.931 . S
C803 C800 1.382 . S
C803 C805 1.390 . S
C803 H813 0.931 . S
C804 C800 1.390 . S
C804 C801 1.392 . S
C804 H814 0.930 . S
C805 C802 1.372 . S
C805 C803 1.390 . S
C805 H815 0.929 . S
C806 O786 1.255 . S
C806 O787 1.257 . S
C807 Eu743 2.787 . S
C807 O782 1.252 . S
C807 O785 1.268 . S
C807 C800 1.506 . S
H808 C791 0.931 . S
H809 C792 0.931 . S
H810 C793 0.929 . S
H811 C794 0.930 . S
H812 C802 0.931 . S
H813 C803 0.931 . S
H814 C804 0.930 . S
H815 C805 0.929 . S
Eu816 N845 2.600 . S
Eu816 N851 2.562 . S
Eu816 O860 2.462 . S
Eu816 O861 2.373 1_556 S
Eu816 O863 2.432 . S
Eu816 O864 2.291 . S
Eu816 O868 2.335 1_556 S
Eu816 O871 2.372 1_556 S
Eu816 C880 2.787 . S
C817 N818 1.365 . S
C817 C820 1.404 . S
C817 C824 1.448 . S
N818 C817 1.365 . S
N818 C821 1.319 1_545 S
N818 Eu827 2.600 . S
C819 C821 1.397 . S
C819 C822 1.367 . S
C819 H839 0.931 . S
C820 C817 1.404 . S
C820 C822 1.405 1_545 S
C820 C826 1.439 . S
C821 N818 1.319 1_565 S
C821 C819 1.397 . S
C821 H832 0.930 . S
C822 C819 1.367 . S
C822 C820 1.405 1_565 S
C822 H843 0.929 . S
C823 C824 1.430 . S
C823 C825 1.387 . S
C823 C829 1.404 . S
C824 C817 1.448 . S
C824 C823 1.430 . S
C824 N828 1.351 . S
C825 C823 1.387 . S
C825 C826 1.374 . S
C825 H840 0.931 . S
C826 C820 1.439 . S
C826 C825 1.374 . S
C826 H841 0.931 . S
Eu827 N818 2.600 . S
Eu827 N828 2.562 . S
Eu827 O862 2.335 . S
Eu827 O865 2.363 1_545 S
Eu827 O866 2.462 . S
Eu827 O867 2.373 . S
Eu827 O869 2.426 1_545 S
Eu827 O870 2.291 . S
Eu827 C891 2.787 . S
N828 C824 1.351 . S
N828 Eu827 2.562 . S
N828 C830 1.325 . S
C829 C823 1.404 . S
C829 C831 1.366 . S
C829 H837 0.930 . S
C830 N828 1.325 . S
C830 C831 1.416 . S
C830 H836 0.929 . S
C831 C829 1.366 . S
C831 C830 1.416 . S
C831 H833 0.930 . S
H832 C821 0.930 . S
H833 C831 0.930 . S
H834 C849 0.930 . S
H835 C856 0.930 1_565 S
H836 C830 0.929 . S
H837 C829 0.930 . S
H838 C852 0.929 . S
H839 C819 0.931 . S
H840 C825 0.931 . S
H841 C826 0.931 . S
H842 C847 0.931 . S
H843 C822 0.929 . S
H844 C855 0.930 . S
N845 Eu816 2.600 . S
N845 C846 1.365 . S
N845 C849 1.319 . S
C846 N845 1.365 . S
C846 C848 1.405 . S
C846 C854 1.448 . S
C847 H842 0.931 . S
C847 C849 1.397 . S
C847 C850 1.367 . S
C848 C846 1.405 . S
C848 C850 1.403 . S
C848 C881 1.439 . S
C849 H834 0.930 . S
C849 N845 1.319 . S
C849 C847 1.397 . S
C850 C847 1.367 . S
C850 C848 1.403 . S
C850 H857 0.929 . S
N851 Eu816 2.562 . S
N851 C852 1.325 . S
N851 C854 1.351 . S
C852 H838 0.929 . S
C852 N851 1.325 . S
C852 C856 1.416 . S
C853 C854 1.430 . S
C853 C855 1.404 . S
C853 C882 1.387 . S
C854 C846 1.448 . S
C854 N851 1.351 . S
C854 C853 1.430 . S
C855 H844 0.930 . S
C855 C853 1.404 . S
C855 C856 1.366 . S
C856 H835 0.930 1_545 S
C856 C852 1.416 . S
C856 C855 1.366 . S
H857 C850 0.929 . S
H858 C881 0.931 . S
H859 C882 0.931 . S
O860 Eu816 2.462 . S
O860 C880 1.252 . S
O861 Eu816 2.373 1_554 S
O861 C872 1.249 . S
O862 Eu827 2.335 . S
O862 C872 1.264 . S
O863 Eu816 2.432 . S
O863 C880 1.268 . S
O864 Eu816 2.291 . S
O864 C879 1.255 . S
O865 Eu827 2.363 1_565 S
O865 C879 1.252 1_564 S
O866 Eu827 2.462 . S
O866 C891 1.252 . S
O867 Eu827 2.373 . S
O867 C883 1.249 . S
O868 Eu816 2.335 1_554 S
O868 C883 1.264 . S
O869 Eu827 2.426 1_565 S
O869 C891 1.262 1_565 S
O870 Eu827 2.291 . S
O870 C890 1.255 . S
O871 Eu816 2.372 1_554 S
O871 C890 1.257 . S
C872 O861 1.249 . S
C872 O862 1.264 . S
C873 C876 1.382 . S
C873 C878 1.390 . S
C873 C880 1.506 . S
C874 C875 1.398 . S
C874 C878 1.392 . S
C875 C874 1.398 . S
C875 C877 1.372 . S
C875 H892 0.931 . S
C876 C873 1.382 . S
C876 C877 1.390 . S
C876 H893 0.931 . S
C877 C875 1.372 . S
C877 C876 1.390 . S
C877 H894 0.929 . S
C878 C873 1.390 . S
C878 C874 1.392 . S
C878 H895 0.930 . S
C879 O864 1.255 . S
C879 O865 1.252 1_546 S
C880 Eu816 2.787 . S
C880 O860 1.252 . S
C880 O863 1.268 . S
C880 C873 1.506 . S
C881 C848 1.439 . S
C881 H858 0.931 . S
C881 C882 1.374 . S
C882 C853 1.387 . S
C882 H859 0.931 . S
C882 C881 1.374 . S
C883 O867 1.249 . S
C883 O868 1.264 . S
C884 C887 1.382 1_545 S
C884 C888 1.390 . S
C884 C891 1.506 . S
C885 C886 1.398 1_545 S
C885 C888 1.392 . S
C886 C885 1.398 1_565 S
C886 C889 1.372 . S
C886 H896 0.931 . S
C887 C884 1.382 1_565 S
C887 C889 1.390 . S
C887 H897 0.931 . S
C888 C884 1.390 . S
C888 C885 1.392 . S
C888 H898 0.930 . S
C889 C886 1.372 . S
C889 C887 1.390 . S
C889 H899 0.929 . S
C890 O870 1.255 . S
C890 O871 1.257 . S
C891 Eu827 2.787 . S
C891 O866 1.252 . S
C891 O869 1.262 1_545 S
C891 C884 1.506 . S
H892 C875 0.931 . S
H893 C876 0.931 . S
H894 C877 0.929 . S
H895 C878 0.930 . S
H896 C886 0.931 . S
H897 C887 0.931 . S
H898 C888 0.930 . S
H899 C889 0.929 . S
Eu900 N929 2.600 . S
Eu900 N935 2.562 . S
Eu900 O944 2.462 . S
Eu900 O945 2.373 . S
Eu900 O947 2.432 . S
Eu900 O948 2.291 . S
Eu900 O952 2.335 . S
Eu900 O955 2.372 . S
Eu900 C964 2.787 . S
C901 N902 1.365 . S
C901 C904 1.405 . S
C901 C908 1.448 . S
N902 C901 1.365 . S
N902 C905 1.319 . S
N902 Eu911 2.600 . S
C903 C905 1.397 . S
C903 C906 1.367 . S
C903 H923 0.931 . S
C904 C901 1.405 . S
C904 C906 1.403 . S
C904 C910 1.439 . S
C905 N902 1.319 . S
C905 C903 1.397 . S
C905 H916 0.930 . S
C906 C903 1.367 . S
C906 C904 1.403 . S
C906 H927 0.929 . S
C907 C908 1.430 . S
C907 C909 1.387 . S
C907 C913 1.404 . S
C908 C901 1.448 . S
C908 C907 1.430 . S
C908 N912 1.351 . S
C909 C907 1.387 . S
C909 C910 1.374 . S
C909 H924 0.931 . S
C910 C904 1.439 . S
C910 C909 1.374 . S
C910 H925 0.931 . S
Eu911 N902 2.600 . S
Eu911 N912 2.562 . S
Eu911 O946 2.335 . S
Eu911 O949 2.372 . S
Eu911 O950 2.462 . S
Eu911 O951 2.373 . S
Eu911 O953 2.432 . S
Eu911 O954 2.291 . S
Eu911 C975 2.787 . S
N912 C908 1.351 . S
N912 Eu911 2.562 . S
N912 C914 1.325 . S
C913 C907 1.404 . S
C913 C915 1.366 . S
C913 H921 0.930 . S
C914 N912 1.325 . S
C914 C915 1.416 . S
C914 H920 0.929 . S
C915 C913 1.366 . S
C915 C914 1.416 . S
C915 H917 0.930 . S
H916 C905 0.930 . S
H917 C915 0.930 . S
H918 C933 0.930 . S
H919 C940 0.930 . S
H920 C914 0.929 . S
H921 C913 0.930 . S
H922 C936 0.929 . S
H923 C903 0.931 . S
H924 C909 0.931 . S
H925 C910 0.931 . S
H926 C931 0.931 . S
H927 C906 0.929 . S
H928 C939 0.930 . S
N929 Eu900 2.600 . S
N929 C930 1.365 . S
N929 C933 1.319 . S
C930 N929 1.365 . S
C930 C932 1.405 . S
C930 C938 1.448 . S
C931 H926 0.931 . S
C931 C933 1.397 . S
C931 C934 1.367 . S
C932 C930 1.405 . S
C932 C934 1.403 . S
C932 C965 1.439 . S
C933 H918 0.930 . S
C933 N929 1.319 . S
C933 C931 1.397 . S
C934 C931 1.367 . S
C934 C932 1.403 . S
C934 H941 0.929 . S
N935 Eu900 2.562 . S
N935 C936 1.325 . S
N935 C938 1.351 . S
C936 H922 0.929 . S
C936 N935 1.325 . S
C936 C940 1.416 . S
C937 C938 1.430 . S
C937 C939 1.404 . S
C937 C966 1.387 . S
C938 C930 1.448 . S
C938 N935 1.351 . S
C938 C937 1.430 . S
C939 H928 0.930 . S
C939 C937 1.404 . S
C939 C940 1.366 . S
C940 H919 0.930 . S
C940 C936 1.416 . S
C940 C939 1.366 . S
H941 C934 0.929 . S
H942 C965 0.931 . S
H943 C966 0.931 . S
O944 Eu900 2.462 . S
O944 C964 1.252 . S
O945 Eu900 2.373 . S
O945 C956 1.249 . S
O946 Eu911 2.335 . S
O946 C956 1.264 . S
O947 Eu900 2.432 . S
O947 C964 1.268 . S
O948 Eu900 2.291 . S
O948 C963 1.255 . S
O949 Eu911 2.372 . S
O949 C963 1.257 . S
O950 Eu911 2.462 . S
O950 C975 1.252 . S
O951 Eu911 2.373 . S
O951 C967 1.249 . S
O952 Eu900 2.335 . S
O952 C967 1.264 . S
O953 Eu911 2.432 . S
O953 C975 1.268 . S
O954 Eu911 2.291 . S
O954 C974 1.255 . S
O955 Eu900 2.372 . S
O955 C974 1.257 . S
C956 O945 1.249 . S
C956 O946 1.264 . S
C957 C960 1.382 . S
C957 C962 1.390 . S
C957 C964 1.506 . S
C958 C959 1.398 . S
C958 C962 1.392 . S
C959 C958 1.398 . S
C959 C961 1.372 . S
C959 H976 0.931 . S
C960 C957 1.382 . S
C960 C961 1.390 . S
C960 H977 0.931 . S
C961 C959 1.372 . S
C961 C960 1.390 . S
C961 H978 0.929 . S
C962 C957 1.390 . S
C962 C958 1.392 . S
C962 H979 0.930 . S
C963 O948 1.255 . S
C963 O949 1.257 . S
C964 Eu900 2.787 . S
C964 O944 1.252 . S
C964 O947 1.268 . S
C964 C957 1.506 . S
C965 C932 1.439 . S
C965 H942 0.931 . S
C965 C966 1.374 . S
C966 C937 1.387 . S
C966 H943 0.931 . S
C966 C965 1.374 . S
C967 O951 1.249 . S
C967 O952 1.264 . S
C968 C971 1.382 . S
C968 C972 1.390 . S
C968 C975 1.506 . S
C969 C970 1.398 . S
C969 C972 1.392 . S
C970 C969 1.398 . S
C970 C973 1.372 . S
C970 H980 0.931 . S
C971 C968 1.382 . S
C971 C973 1.390 . S
C971 H981 0.931 . S
C972 C968 1.390 . S
C972 C969 1.392 . S
C972 H982 0.930 . S
C973 C970 1.372 . S
C973 C971 1.390 . S
C973 H983 0.929 . S
C974 O954 1.255 . S
C974 O955 1.257 . S
C975 Eu911 2.787 . S
C975 O950 1.252 . S
C975 O953 1.268 . S
C975 C968 1.506 . S
H976 C959 0.931 . S
H977 C960 0.931 . S
H978 C961 0.929 . S
H979 C962 0.930 . S
H980 C970 0.931 . S
H981 C971 0.931 . S
H982 C972 0.930 . S
H983 C973 0.929 . S
Eu984 N1013 2.600 1_554 S
Eu984 N1019 2.562 1_554 S
Eu984 O1028 2.462 . S
Eu984 O1029 2.373 1_554 S
Eu984 O1031 2.432 . S
Eu984 O1032 2.291 . S
Eu984 O1036 2.335 . S
Eu984 O1039 2.372 . S
Eu984 C1048 2.787 . S
C985 N986 1.365 . S
C985 C988 1.405 . S
C985 C992 1.448 . S
N986 C985 1.365 . S
N986 C989 1.319 . S
N986 Eu995 2.600 . S
C987 C989 1.397 . S
C987 C990 1.367 . S
C987 H1007 0.931 . S
C988 C985 1.405 . S
C988 C990 1.403 . S
C988 C994 1.439 . S
C989 N986 1.319 . S
C989 C987 1.397 . S
C989 H1000 0.930 . S
C990 C987 1.367 . S
C990 C988 1.403 . S
C990 H1011 0.929 . S
C991 C992 1.430 . S
C991 C993 1.387 . S
C991 C997 1.404 . S
C992 C985 1.448 . S
C992 C991 1.430 . S
C992 N996 1.351 . S
C993 C991 1.387 . S
C993 C994 1.374 . S
C993 H1008 0.931 . S
C994 C988 1.439 . S
C994 C993 1.374 . S
C994 H1009 0.931 . S
Eu995 N986 2.600 . S
Eu995 N996 2.562 . S
Eu995 O1030 2.335 1_554 S
Eu995 O1033 2.372 . S
Eu995 O1034 2.462 . S
Eu995 O1035 2.373 . S
Eu995 O1037 2.432 . S
Eu995 O1038 2.291 . S
Eu995 C1059 2.787 . S
N996 C992 1.351 . S
N996 Eu995 2.562 . S
N996 C998 1.325 . S
C997 C991 1.404 . S
C997 C999 1.366 . S
C997 H1005 0.930 . S
C998 N996 1.325 . S
C998 C999 1.416 . S
C998 H1004 0.929 . S
C999 C997 1.366 . S
C999 C998 1.416 . S
C999 H1001 0.930 . S
H1000 C989 0.930 . S
H1001 C999 0.930 . S
H1002 C1017 0.930 . S
H1003 C1024 0.930 . S
H1004 C998 0.929 . S
H1005 C997 0.930 . S
H1006 C1020 0.929 . S
H1007 C987 0.931 . S
H1008 C993 0.931 . S
H1009 C994 0.931 . S
H1010 C1015 0.931 . S
H1011 C990 0.929 . S
H1012 C1023 0.930 . S
N1013 Eu984 2.600 1_556 S
N1013 C1014 1.365 . S
N1013 C1017 1.319 . S
C1014 N1013 1.365 . S
C1014 C1016 1.405 . S
C1014 C1022 1.448 . S
C1015 H1010 0.931 . S
C1015 C1017 1.397 . S
C1015 C1018 1.367 . S
C1016 C1014 1.405 . S
C1016 C1018 1.403 . S
C1016 C1049 1.439 . S
C1017 H1002 0.930 . S
C1017 N1013 1.319 . S
C1017 C1015 1.397 . S
C1018 C1015 1.367 . S
C1018 C1016 1.403 . S
C1018 H1025 0.929 . S
N1019 Eu984 2.562 1_556 S
N1019 C1020 1.325 . S
N1019 C1022 1.351 . S
C1020 H1006 0.929 . S
C1020 N1019 1.325 . S
C1020 C1024 1.416 . S
C1021 C1022 1.430 . S
C1021 C1023 1.404 . S
C1021 C1050 1.387 . S
C1022 C1014 1.448 . S
C1022 N1019 1.351 . S
C1022 C1021 1.430 . S
C1023 H1012 0.930 . S
C1023 C1021 1.404 . S
C1023 C1024 1.366 . S
C1024 H1003 0.930 . S
C1024 C1020 1.416 . S
C1024 C1023 1.366 . S
H1025 C1018 0.929 . S
H1026 C1049 0.931 . S
H1027 C1050 0.931 . S
O1028 Eu984 2.462 . S
O1028 C1048 1.252 . S
O1029 Eu984 2.373 1_556 S
O1029 C1040 1.249 . S
O1030 Eu995 2.335 1_556 S
O1030 C1040 1.264 . S
O1031 Eu984 2.432 . S
O1031 C1048 1.268 . S
O1032 Eu984 2.291 . S
O1032 C1047 1.255 . S
O1033 Eu995 2.372 . S
O1033 C1047 1.257 . S
O1034 Eu995 2.462 . S
O1034 C1059 1.252 . S
O1035 Eu995 2.373 . S
O1035 C1051 1.249 . S
O1036 Eu984 2.335 . S
O1036 C1051 1.264 . S
O1037 Eu995 2.432 . S
O1037 C1059 1.268 . S
O1038 Eu995 2.291 . S
O1038 C1058 1.255 . S
O1039 Eu984 2.372 . S
O1039 C1058 1.257 . S
C1040 O1029 1.249 . S
C1040 O1030 1.264 . S
C1041 C1044 1.382 . S
C1041 C1046 1.390 . S
C1041 C1048 1.506 . S
C1042 C1043 1.398 . S
C1042 C1046 1.392 . S
C1043 C1042 1.398 . S
C1043 C1045 1.372 . S
C1043 H1060 0.931 . S
C1044 C1041 1.382 . S
C1044 C1045 1.390 . S
C1044 H1061 0.931 . S
C1045 C1043 1.372 . S
C1045 C1044 1.390 . S
C1045 H1062 0.929 . S
C1046 C1041 1.390 . S
C1046 C1042 1.392 . S
C1046 H1063 0.930 . S
C1047 O1032 1.255 . S
C1047 O1033 1.257 . S
C1048 Eu984 2.787 . S
C1048 O1028 1.252 . S
C1048 O1031 1.268 . S
C1048 C1041 1.506 . S
C1049 C1016 1.439 . S
C1049 H1026 0.931 . S
C1049 C1050 1.374 . S
C1050 C1021 1.387 . S
C1050 H1027 0.931 . S
C1050 C1049 1.374 . S
C1051 O1035 1.249 . S
C1051 O1036 1.264 . S
C1052 C1055 1.382 . S
C1052 C1056 1.390 . S
C1052 C1059 1.506 1_556 S
C1053 C1054 1.398 . S
C1053 C1056 1.392 . S
C1054 C1053 1.398 . S
C1054 C1057 1.372 . S
C1054 H1064 0.931 . S
C1055 C1052 1.382 . S
C1055 C1057 1.390 . S
C1055 H1065 0.931 . S
C1056 C1052 1.390 . S
C1056 C1053 1.392 . S
C1056 H1066 0.930 . S
C1057 C1054 1.372 . S
C1057 C1055 1.390 . S
C1057 H1067 0.929 . S
C1058 O1038 1.255 . S
C1058 O1039 1.257 . S
C1059 Eu995 2.787 . S
C1059 O1034 1.252 . S
C1059 O1037 1.268 . S
C1059 C1052 1.506 1_554 S
H1060 C1043 0.931 . S
H1061 C1044 0.931 . S
H1062 C1045 0.929 . S
H1063 C1046 0.930 . S
H1064 C1054 0.931 . S
H1065 C1055 0.931 . S
H1066 C1056 0.930 . S
H1067 C1057 0.929 . S
Eu1068 N1097 2.600 . S
Eu1068 N1103 2.562 . S
Eu1068 O1112 2.462 . S
Eu1068 O1113 2.373 . S
Eu1068 O1115 2.432 . S
Eu1068 O1116 2.291 . S
Eu1068 O1120 2.335 . S
Eu1068 O1123 2.372 . S
Eu1068 C1132 2.787 . S
C1069 N1070 1.365 . S
C1069 C1072 1.405 . S
C1069 C1076 1.448 . S
N1070 C1069 1.365 . S
N1070 C1073 1.319 . S
N1070 Eu1079 2.600 . S
C1071 C1073 1.397 . S
C1071 C1074 1.367 . S
C1071 H1091 0.931 . S
C1072 C1069 1.405 . S
C1072 C1074 1.403 . S
C1072 C1078 1.439 . S
C1073 N1070 1.319 . S
C1073 C1071 1.397 . S
C1073 H1084 0.930 . S
C1074 C1071 1.367 . S
C1074 C1072 1.403 . S
C1074 H1095 0.929 . S
C1075 C1076 1.430 . S
C1075 C1077 1.387 . S
C1075 C1081 1.404 . S
C1076 C1069 1.448 . S
C1076 C1075 1.430 . S
C1076 N1080 1.351 . S
C1077 C1075 1.387 . S
C1077 C1078 1.374 . S
C1077 H1092 0.931 . S
C1078 C1072 1.439 . S
C1078 C1077 1.374 . S
C1078 H1093 0.931 . S
Eu1079 N1070 2.600 . S
Eu1079 N1080 2.562 . S
Eu1079 O1114 2.335 . S
Eu1079 O1117 2.372 . S
Eu1079 O1118 2.462 . S
Eu1079 O1119 2.373 . S
Eu1079 O1121 2.432 . S
Eu1079 O1122 2.291 . S
Eu1079 C1143 2.787 . S
N1080 C1076 1.351 . S
N1080 Eu1079 2.562 . S
N1080 C1082 1.325 . S
C1081 C1075 1.404 . S
C1081 C1083 1.366 . S
C1081 H1089 0.930 . S
C1082 N1080 1.325 . S
C1082 C1083 1.416 . S
C1082 H1088 0.929 . S
C1083 C1081 1.366 . S
C1083 C1082 1.416 . S
C1083 H1085 0.930 . S
H1084 C1073 0.930 . S
H1085 C1083 0.930 . S
H1086 C1101 0.930 . S
H1087 C1108 0.930 . S
H1088 C1082 0.929 . S
H1089 C1081 0.930 . S
H1090 C1104 0.929 . S
H1091 C1071 0.931 . S
H1092 C1077 0.931 . S
H1093 C1078 0.931 . S
H1094 C1099 0.931 . S
H1095 C1074 0.929 . S
H1096 C1107 0.930 . S
N1097 Eu1068 2.600 . S
N1097 C1098 1.365 . S
N1097 C1101 1.319 . S
C1098 N1097 1.365 . S
C1098 C1100 1.405 . S
C1098 C1106 1.448 . S
C1099 H1094 0.931 . S
C1099 C1101 1.397 . S
C1099 C1102 1.367 . S
C1100 C1098 1.405 . S
C1100 C1102 1.403 . S
C1100 C1133 1.439 . S
C1101 H1086 0.930 . S
C1101 N1097 1.319 . S
C1101 C1099 1.397 . S
C1102 C1099 1.367 . S
C1102 C1100 1.403 . S
C1102 H1109 0.929 . S
N1103 Eu1068 2.562 . S
N1103 C1104 1.325 . S
N1103 C1106 1.351 . S
C1104 H1090 0.929 . S
C1104 N1103 1.325 . S
C1104 C1108 1.416 . S
C1105 C1106 1.430 . S
C1105 C1107 1.404 . S
C1105 C1134 1.387 . S
C1106 C1098 1.448 . S
C1106 N1103 1.351 . S
C1106 C1105 1.430 . S
C1107 H1096 0.930 . S
C1107 C1105 1.404 . S
C1107 C1108 1.366 . S
C1108 H1087 0.930 . S
C1108 C1104 1.416 . S
C1108 C1107 1.366 . S
H1109 C1102 0.929 . S
H1110 C1133 0.931 . S
H1111 C1134 0.931 . S
O1112 Eu1068 2.462 . S
O1112 C1132 1.252 . S
O1113 Eu1068 2.373 . S
O1113 C1124 1.249 . S
O1114 Eu1079 2.335 . S
O1114 C1124 1.264 . S
O1115 Eu1068 2.432 . S
O1115 C1132 1.268 . S
O1116 Eu1068 2.291 . S
O1116 C1131 1.255 . S
O1117 Eu1079 2.372 . S
O1117 C1131 1.257 . S
O1118 Eu1079 2.462 . S
O1118 C1143 1.252 . S
O1119 Eu1079 2.373 . S
O1119 C1135 1.249 . S
O1120 Eu1068 2.335 . S
O1120 C1135 1.264 . S
O1121 Eu1079 2.432 . S
O1121 C1143 1.268 . S
O1122 Eu1079 2.291 . S
O1122 C1142 1.255 . S
O1123 Eu1068 2.372 . S
O1123 C1142 1.257 . S
C1124 O1113 1.249 . S
C1124 O1114 1.264 . S
C1125 C1128 1.382 . S
C1125 C1130 1.390 . S
C1125 C1132 1.506 . S
C1126 C1127 1.398 . S
C1126 C1130 1.392 . S
C1127 C1126 1.398 . S
C1127 C1129 1.372 . S
C1127 H1144 0.931 . S
C1128 C1125 1.382 . S
C1128 C1129 1.390 . S
C1128 H1145 0.931 . S
C1129 C1127 1.372 . S
C1129 C1128 1.390 . S
C1129 H1146 0.929 . S
C1130 C1125 1.390 . S
C1130 C1126 1.392 . S
C1130 H1147 0.930 . S
C1131 O1116 1.255 . S
C1131 O1117 1.257 . S
C1132 Eu1068 2.787 . S
C1132 O1112 1.252 . S
C1132 O1115 1.268 . S
C1132 C1125 1.506 . S
C1133 C1100 1.439 . S
C1133 H1110 0.931 . S
C1133 C1134 1.374 . S
C1134 C1105 1.387 . S
C1134 H1111 0.931 . S
C1134 C1133 1.374 . S
C1135 O1119 1.249 . S
C1135 O1120 1.264 . S
C1136 C1139 1.382 . S
C1136 C1140 1.390 . S
C1136 C1143 1.506 . S
C1137 C1138 1.398 . S
C1137 C1140 1.392 . S
C1138 C1137 1.398 . S
C1138 C1141 1.372 . S
C1138 H1148 0.931 . S
C1139 C1136 1.382 . S
C1139 C1141 1.390 . S
C1139 H1149 0.931 . S
C1140 C1136 1.390 . S
C1140 C1137 1.392 . S
C1140 H1150 0.930 . S
C1141 C1138 1.372 . S
C1141 C1139 1.390 . S
C1141 H1151 0.929 . S
C1142 O1122 1.255 . S
C1142 O1123 1.257 . S
C1143 Eu1079 2.787 . S
C1143 O1118 1.252 . S
C1143 O1121 1.268 . S
C1143 C1136 1.506 . S
H1144 C1127 0.931 . S
H1145 C1128 0.931 . S
H1146 C1129 0.929 . S
H1147 C1130 0.930 . S
H1148 C1138 0.931 . S
H1149 C1139 0.931 . S
H1150 C1140 0.930 . S
H1151 C1141 0.929 . S
Eu1152 N1181 2.600 1_455 S
Eu1152 N1187 2.562 1_455 S
Eu1152 O1196 2.462 . S
Eu1152 O1197 2.373 1_455 S
Eu1152 O1199 2.432 . S
Eu1152 O1200 2.291 . S
Eu1152 O1204 2.335 . S
Eu1152 O1207 2.372 . S
Eu1152 C1216 2.787 . S
C1153 N1154 1.365 . S
C1153 C1156 1.405 . S
C1153 C1160 1.448 . S
N1154 C1153 1.365 . S
N1154 C1157 1.319 . S
N1154 Eu1163 2.600 . S
C1155 C1157 1.397 . S
C1155 C1158 1.367 . S
C1155 H1175 0.931 . S
C1156 C1153 1.405 . S
C1156 C1158 1.403 . S
C1156 C1162 1.439 . S
C1157 N1154 1.319 . S
C1157 C1155 1.397 . S
C1157 H1168 0.930 . S
C1158 C1155 1.367 . S
C1158 C1156 1.403 . S
C1158 H1179 0.929 . S
C1159 C1160 1.430 . S
C1159 C1161 1.387 . S
C1159 C1165 1.404 . S
C1160 C1153 1.448 . S
C1160 C1159 1.430 . S
C1160 N1164 1.351 . S
C1161 C1159 1.387 . S
C1161 C1162 1.374 . S
C1161 H1176 0.931 . S
C1162 C1156 1.439 . S
C1162 C1161 1.374 . S
C1162 H1177 0.931 . S
Eu1163 N1154 2.600 . S
Eu1163 N1164 2.562 . S
Eu1163 O1198 2.335 1_455 S
Eu1163 O1201 2.372 . S
Eu1163 O1202 2.462 . S
Eu1163 O1203 2.373 . S
Eu1163 O1205 2.432 . S
Eu1163 O1206 2.291 . S
Eu1163 C1227 2.787 1_455 S
N1164 C1160 1.351 . S
N1164 Eu1163 2.562 . S
N1164 C1166 1.325 . S
C1165 C1159 1.404 . S
C1165 C1167 1.366 . S
C1165 H1173 0.930 . S
C1166 N1164 1.325 . S
C1166 C1167 1.416 . S
C1166 H1172 0.929 . S
C1167 C1165 1.366 . S
C1167 C1166 1.416 . S
C1167 H1169 0.930 . S
H1168 C1157 0.930 . S
H1169 C1167 0.930 . S
H1170 C1185 0.930 1_455 S
H1171 C1192 0.930 . S
H1172 C1166 0.929 . S
H1173 C1165 0.930 . S
H1174 C1188 0.929 . S
H1175 C1155 0.931 . S
H1176 C1161 0.931 . S
H1177 C1162 0.931 . S
H1178 C1183 0.931 . S
H1179 C1158 0.929 . S
H1180 C1191 0.930 . S
N1181 Eu1152 2.600 1_655 S
N1181 C1182 1.365 . S
N1181 C1185 1.319 . S
C1182 N1181 1.365 . S
C1182 C1184 1.405 . S
C1182 C1190 1.448 . S
C1183 H1178 0.931 . S
C1183 C1185 1.397 . S
C1183 C1186 1.367 . S
C1184 C1182 1.405 . S
C1184 C1186 1.403 . S
C1184 C1217 1.439 . S
C1185 H1170 0.930 1_655 S
C1185 N1181 1.319 . S
C1185 C1183 1.397 . S
C1186 C1183 1.367 . S
C1186 C1184 1.403 . S
C1186 H1193 0.929 . S
N1187 Eu1152 2.562 1_655 S
N1187 C1188 1.325 . S
N1187 C1190 1.351 . S
C1188 H1174 0.929 . S
C1188 N1187 1.325 . S
C1188 C1192 1.416 . S
C1189 C1190 1.430 . S
C1189 C1191 1.404 . S
C1189 C1218 1.387 . S
C1190 C1182 1.448 . S
C1190 N1187 1.351 . S
C1190 C1189 1.430 . S
C1191 H1180 0.930 . S
C1191 C1189 1.404 . S
C1191 C1192 1.366 . S
C1192 H1171 0.930 . S
C1192 C1188 1.416 . S
C1192 C1191 1.366 . S
H1193 C1186 0.929 . S
H1194 C1217 0.931 . S
H1195 C1218 0.931 . S
O1196 Eu1152 2.462 . S
O1196 C1216 1.252 . S
O1197 Eu1152 2.373 1_655 S
O1197 C1208 1.249 . S
O1198 Eu1163 2.335 1_655 S
O1198 C1208 1.264 . S
O1199 Eu1152 2.432 . S
O1199 C1216 1.268 . S
O1200 Eu1152 2.291 . S
O1200 C1215 1.255 . S
O1201 Eu1163 2.372 . S
O1201 C1215 1.257 . S
O1202 Eu1163 2.462 . S
O1202 C1227 1.252 1_455 S
O1203 Eu1163 2.373 . S
O1203 C1219 1.249 . S
O1204 Eu1152 2.335 . S
O1204 C1219 1.264 . S
O1205 Eu1163 2.432 . S
O1205 C1227 1.268 1_455 S
O1206 Eu1163 2.291 . S
O1206 C1226 1.255 . S
O1207 Eu1152 2.372 . S
O1207 C1226 1.257 . S
C1208 O1197 1.249 . S
C1208 O1198 1.264 . S
C1209 C1212 1.382 . S
C1209 C1214 1.390 . S
C1209 C1216 1.506 . S
C1210 C1211 1.398 . S
C1210 C1214 1.392 . S
C1211 C1210 1.398 . S
C1211 C1213 1.372 . S
C1211 H1228 0.931 . S
C1212 C1209 1.382 . S
C1212 C1213 1.390 . S
C1212 H1229 0.931 . S
C1213 C1211 1.372 . S
C1213 C1212 1.390 . S
C1213 H1230 0.929 . S
C1214 C1209 1.390 . S
C1214 C1210 1.392 . S
C1214 H1231 0.930 . S
C1215 O1200 1.255 . S
C1215 O1201 1.257 . S
C1216 Eu1152 2.787 . S
C1216 O1196 1.252 . S
C1216 O1199 1.268 . S
C1216 C1209 1.506 . S
C1217 C1184 1.439 . S
C1217 H1194 0.931 . S
C1217 C1218 1.374 . S
C1218 C1189 1.387 . S
C1218 H1195 0.931 . S
C1218 C1217 1.374 . S
C1219 O1203 1.249 . S
C1219 O1204 1.264 . S
C1220 C1223 1.382 . S
C1220 C1224 1.390 . S
C1220 C1227 1.506 . S
C1221 C1222 1.398 . S
C1221 C1224 1.392 . S
C1222 C1221 1.398 . S
C1222 C1225 1.372 . S
C1222 H1232 0.931 . S
C1223 C1220 1.382 . S
C1223 C1225 1.390 . S
C1223 H1233 0.931 . S
C1224 C1220 1.390 . S
C1224 C1221 1.392 . S
C1224 H1234 0.930 . S
C1225 C1222 1.372 . S
C1225 C1223 1.390 . S
C1225 H1235 0.929 . S
C1226 O1206 1.255 . S
C1226 O1207 1.257 . S
C1227 Eu1163 2.787 1_655 S
C1227 O1202 1.252 1_655 S
C1227 O1205 1.268 1_655 S
C1227 C1220 1.506 . S
H1228 C1211 0.931 . S
H1229 C1212 0.931 . S
H1230 C1213 0.929 . S
H1231 C1214 0.930 . S
H1232 C1222 0.931 . S
H1233 C1223 0.931 . S
H1234 C1224 0.930 . S
H1235 C1225 0.929 . S
Eu1236 N1265 2.600 . S
Eu1236 N1271 2.562 . S
Eu1236 O1280 2.462 . S
Eu1236 O1281 2.373 . S
Eu1236 O1283 2.432 . S
Eu1236 O1284 2.291 . S
Eu1236 O1288 2.335 . S
Eu1236 O1291 2.372 . S
Eu1236 C1300 2.787 . S
C1237 N1238 1.365 . S
C1237 C1240 1.405 . S
C1237 C1244 1.448 . S
N1238 C1237 1.365 . S
N1238 C1241 1.319 . S
N1238 Eu1247 2.600 . S
C1239 C1241 1.397 . S
C1239 C1242 1.367 . S
C1239 H1259 0.931 . S
C1240 C1237 1.405 . S
C1240 C1242 1.403 . S
C1240 C1246 1.439 . S
C1241 N1238 1.319 . S
C1241 C1239 1.397 . S
C1241 H1252 0.930 . S
C1242 C1239 1.367 . S
C1242 C1240 1.403 . S
C1242 H1263 0.929 . S
C1243 C1244 1.430 . S
C1243 C1245 1.387 . S
C1243 C1249 1.404 . S
C1244 C1237 1.448 . S
C1244 C1243 1.430 . S
C1244 N1248 1.351 . S
C1245 C1243 1.387 . S
C1245 C1246 1.374 . S
C1245 H1260 0.931 . S
C1246 C1240 1.439 . S
C1246 C1245 1.374 . S
C1246 H1261 0.931 . S
Eu1247 N1238 2.600 . S
Eu1247 N1248 2.562 . S
Eu1247 O1282 2.335 . S
Eu1247 O1285 2.372 . S
Eu1247 O1286 2.462 . S
Eu1247 O1287 2.373 . S
Eu1247 O1289 2.432 . S
Eu1247 O1290 2.291 . S
Eu1247 C1311 2.787 . S
N1248 C1244 1.351 . S
N1248 Eu1247 2.562 . S
N1248 C1250 1.325 . S
C1249 C1243 1.404 . S
C1249 C1251 1.366 . S
C1249 H1257 0.930 . S
C1250 N1248 1.325 . S
C1250 C1251 1.416 . S
C1250 H1256 0.929 . S
C1251 C1249 1.366 . S
C1251 C1250 1.416 . S
C1251 H1253 0.930 . S
H1252 C1241 0.930 . S
H1253 C1251 0.930 . S
H1254 C1269 0.930 . S
H1255 C1276 0.930 . S
H1256 C1250 0.929 . S
H1257 C1249 0.930 . S
H1258 C1272 0.929 . S
H1259 C1239 0.931 . S
H1260 C1245 0.931 . S
H1261 C1246 0.931 . S
H1262 C1267 0.931 . S
H1263 C1242 0.929 . S
H1264 C1275 0.930 . S
N1265 Eu1236 2.600 . S
N1265 C1266 1.365 . S
N1265 C1269 1.319 . S
C1266 N1265 1.365 . S
C1266 C1268 1.405 . S
C1266 C1274 1.448 . S
C1267 H1262 0.931 . S
C1267 C1269 1.397 . S
C1267 C1270 1.367 . S
C1268 C1266 1.405 . S
C1268 C1270 1.403 . S
C1268 C1301 1.439 . S
C1269 H1254 0.930 . S
C1269 N1265 1.319 . S
C1269 C1267 1.397 . S
C1270 C1267 1.367 . S
C1270 C1268 1.403 . S
C1270 H1277 0.929 . S
N1271 Eu1236 2.562 . S
N1271 C1272 1.325 . S
N1271 C1274 1.351 . S
C1272 H1258 0.929 . S
C1272 N1271 1.325 . S
C1272 C1276 1.416 . S
C1273 C1274 1.430 . S
C1273 C1275 1.404 . S
C1273 C1302 1.387 . S
C1274 C1266 1.448 . S
C1274 N1271 1.351 . S
C1274 C1273 1.430 . S
C1275 H1264 0.930 . S
C1275 C1273 1.404 . S
C1275 C1276 1.366 . S
C1276 H1255 0.930 . S
C1276 C1272 1.416 . S
C1276 C1275 1.366 . S
H1277 C1270 0.929 . S
H1278 C1301 0.931 . S
H1279 C1302 0.931 . S
O1280 Eu1236 2.462 . S
O1280 C1300 1.252 . S
O1281 Eu1236 2.373 . S
O1281 C1292 1.249 . S
O1282 Eu1247 2.335 . S
O1282 C1292 1.264 . S
O1283 Eu1236 2.432 . S
O1283 C1300 1.268 . S
O1284 Eu1236 2.291 . S
O1284 C1299 1.255 . S
O1285 Eu1247 2.372 . S
O1285 C1299 1.257 . S
O1286 Eu1247 2.462 . S
O1286 C1311 1.252 . S
O1287 Eu1247 2.373 . S
O1287 C1303 1.249 . S
O1288 Eu1236 2.335 . S
O1288 C1303 1.264 . S
O1289 Eu1247 2.432 . S
O1289 C1311 1.268 . S
O1290 Eu1247 2.291 . S
O1290 C1310 1.255 . S
O1291 Eu1236 2.372 . S
O1291 C1310 1.257 . S
C1292 O1281 1.249 . S
C1292 O1282 1.264 . S
C1293 C1296 1.382 . S
C1293 C1298 1.390 . S
C1293 C1300 1.506 . S
C1294 C1295 1.398 . S
C1294 C1298 1.392 . S
C1295 C1294 1.398 . S
C1295 C1297 1.372 . S
C1295 H1312 0.931 . S
C1296 C1293 1.382 . S
C1296 C1297 1.390 . S
C1296 H1313 0.931 . S
C1297 C1295 1.372 . S
C1297 C1296 1.390 . S
C1297 H1314 0.929 . S
C1298 C1293 1.390 . S
C1298 C1294 1.392 . S
C1298 H1315 0.930 . S
C1299 O1284 1.255 . S
C1299 O1285 1.257 . S
C1300 Eu1236 2.787 . S
C1300 O1280 1.252 . S
C1300 O1283 1.268 . S
C1300 C1293 1.506 . S
C1301 C1268 1.439 . S
C1301 H1278 0.931 . S
C1301 C1302 1.374 . S
C1302 C1273 1.387 . S
C1302 H1279 0.931 . S
C1302 C1301 1.374 . S
C1303 O1287 1.249 . S
C1303 O1288 1.264 . S
C1304 C1307 1.382 . S
C1304 C1308 1.390 . S
C1304 C1311 1.506 . S
C1305 C1306 1.398 . S
C1305 C1308 1.392 . S
C1306 C1305 1.398 . S
C1306 C1309 1.372 . S
C1306 H1316 0.931 . S
C1307 C1304 1.382 . S
C1307 C1309 1.390 . S
C1307 H1317 0.931 . S
C1308 C1304 1.390 . S
C1308 C1305 1.392 . S
C1308 H1318 0.930 . S
C1309 C1306 1.372 . S
C1309 C1307 1.390 . S
C1309 H1319 0.929 . S
C1310 O1290 1.255 . S
C1310 O1291 1.257 . S
C1311 Eu1247 2.787 . S
C1311 O1286 1.252 . S
C1311 O1289 1.268 . S
C1311 C1304 1.506 . S
H1312 C1295 0.931 . S
H1313 C1296 0.931 . S
H1314 C1297 0.929 . S
H1315 C1298 0.930 . S
H1316 C1306 0.931 . S
H1317 C1307 0.931 . S
H1318 C1308 0.930 . S
H1319 C1309 0.929 . S
Eu1320 N1349 2.600 . S
Eu1320 N1355 2.562 . S
Eu1320 O1364 2.462 . S
Eu1320 O1365 2.373 . S
Eu1320 O1367 2.432 . S
Eu1320 O1368 2.291 . S
Eu1320 O1372 2.335 . S
Eu1320 O1375 2.372 . S
Eu1320 C1384 2.787 . S
C1321 N1322 1.365 . S
C1321 C1324 1.405 . S
C1321 C1328 1.448 . S
N1322 C1321 1.365 . S
N1322 C1325 1.319 . S
N1322 Eu1331 2.600 . S
C1323 C1325 1.397 . S
C1323 C1326 1.367 . S
C1323 H1343 0.931 . S
C1324 C1321 1.405 . S
C1324 C1326 1.403 . S
C1324 C1330 1.439 . S
C1325 N1322 1.319 . S
C1325 C1323 1.397 . S
C1325 H1336 0.930 . S
C1326 C1323 1.367 . S
C1326 C1324 1.403 . S
C1326 H1347 0.929 . S
C1327 C1328 1.430 . S
C1327 C1329 1.387 . S
C1327 C1333 1.404 . S
C1328 C1321 1.448 . S
C1328 C1327 1.430 . S
C1328 N1332 1.351 . S
C1329 C1327 1.387 . S
C1329 C1330 1.374 . S
C1329 H1344 0.931 . S
C1330 C1324 1.439 . S
C1330 C1329 1.374 . S
C1330 H1345 0.931 . S
Eu1331 N1322 2.600 . S
Eu1331 N1332 2.562 . S
Eu1331 O1366 2.335 . S
Eu1331 O1369 2.372 . S
Eu1331 O1370 2.462 . S
Eu1331 O1371 2.373 . S
Eu1331 O1373 2.432 . S
Eu1331 O1374 2.291 . S
Eu1331 C1395 2.787 . S
N1332 C1328 1.351 . S
N1332 Eu1331 2.562 . S
N1332 C1334 1.325 . S
C1333 C1327 1.404 . S
C1333 C1335 1.366 . S
C1333 H1341 0.930 . S
C1334 N1332 1.325 . S
C1334 C1335 1.416 . S
C1334 H1340 0.929 . S
C1335 C1333 1.366 . S
C1335 C1334 1.416 . S
C1335 H1337 0.930 . S
H1336 C1325 0.930 . S
H1337 C1335 0.930 . S
H1338 C1353 0.930 . S
H1339 C1360 0.930 . S
H1340 C1334 0.929 . S
H1341 C1333 0.930 . S
H1342 C1356 0.929 . S
H1343 C1323 0.931 . S
H1344 C1329 0.931 . S
H1345 C1330 0.931 . S
H1346 C1351 0.931 . S
H1347 C1326 0.929 . S
H1348 C1359 0.930 . S
N1349 Eu1320 2.600 . S
N1349 C1350 1.365 . S
N1349 C1353 1.319 . S
C1350 N1349 1.365 . S
C1350 C1352 1.405 . S
C1350 C1358 1.448 . S
C1351 H1346 0.931 . S
C1351 C1353 1.397 . S
C1351 C1354 1.367 . S
C1352 C1350 1.405 . S
C1352 C1354 1.403 . S
C1352 C1385 1.439 . S
C1353 H1338 0.930 . S
C1353 N1349 1.319 . S
C1353 C1351 1.397 . S
C1354 C1351 1.367 . S
C1354 C1352 1.403 . S
C1354 H1361 0.929 . S
N1355 Eu1320 2.562 . S
N1355 C1356 1.325 . S
N1355 C1358 1.351 . S
C1356 H1342 0.929 . S
C1356 N1355 1.325 . S
C1356 C1360 1.416 . S
C1357 C1358 1.430 . S
C1357 C1359 1.404 . S
C1357 C1386 1.387 . S
C1358 C1350 1.448 . S
C1358 N1355 1.351 . S
C1358 C1357 1.430 . S
C1359 H1348 0.930 . S
C1359 C1357 1.404 . S
C1359 C1360 1.366 . S
C1360 H1339 0.930 . S
C1360 C1356 1.416 . S
C1360 C1359 1.366 . S
H1361 C1354 0.929 . S
H1362 C1385 0.931 . S
H1363 C1386 0.931 . S
O1364 Eu1320 2.462 . S
O1364 C1384 1.252 . S
O1365 Eu1320 2.373 . S
O1365 C1376 1.249 . S
O1366 Eu1331 2.335 . S
O1366 C1376 1.264 . S
O1367 Eu1320 2.432 . S
O1367 C1384 1.268 . S
O1368 Eu1320 2.291 . S
O1368 C1383 1.255 . S
O1369 Eu1331 2.372 . S
O1369 C1383 1.257 . S
O1370 Eu1331 2.462 . S
O1370 C1395 1.252 . S
O1371 Eu1331 2.373 . S
O1371 C1387 1.249 . S
O1372 Eu1320 2.335 . S
O1372 C1387 1.264 . S
O1373 Eu1331 2.432 . S
O1373 C1395 1.268 . S
O1374 Eu1331 2.291 . S
O1374 C1394 1.255 . S
O1375 Eu1320 2.372 . S
O1375 C1394 1.257 . S
C1376 O1365 1.249 . S
C1376 O1366 1.264 . S
C1377 C1380 1.382 . S
C1377 C1382 1.390 . S
C1377 C1384 1.506 . S
C1378 C1379 1.398 . S
C1378 C1382 1.392 . S
C1379 C1378 1.398 . S
C1379 C1381 1.372 . S
C1379 H1396 0.931 . S
C1380 C1377 1.382 . S
C1380 C1381 1.390 . S
C1380 H1397 0.931 . S
C1381 C1379 1.372 . S
C1381 C1380 1.390 . S
C1381 H1398 0.929 . S
C1382 C1377 1.390 . S
C1382 C1378 1.392 . S
C1382 H1399 0.930 . S
C1383 O1368 1.255 . S
C1383 O1369 1.257 . S
C1384 Eu1320 2.787 . S
C1384 O1364 1.252 . S
C1384 O1367 1.268 . S
C1384 C1377 1.506 . S
C1385 C1352 1.439 . S
C1385 H1362 0.931 . S
C1385 C1386 1.374 . S
C1386 C1357 1.387 . S
C1386 H1363 0.931 . S
C1386 C1385 1.374 . S
C1387 O1371 1.249 . S
C1387 O1372 1.264 . S
C1388 C1391 1.382 . S
C1388 C1392 1.390 . S
C1388 C1395 1.506 . S
C1389 C1390 1.398 . S
C1389 C1392 1.392 . S
C1390 C1389 1.398 . S
C1390 C1393 1.372 . S
C1390 H1400 0.931 . S
C1391 C1388 1.382 . S
C1391 C1393 1.390 . S
C1391 H1401 0.931 . S
C1392 C1388 1.390 . S
C1392 C1389 1.392 . S
C1392 H1402 0.930 . S
C1393 C1390 1.372 . S
C1393 C1391 1.390 . S
C1393 H1403 0.929 . S
C1394 O1374 1.255 . S
C1394 O1375 1.257 . S
C1395 Eu1331 2.787 . S
C1395 O1370 1.252 . S
C1395 O1373 1.268 . S
C1395 C1388 1.506 . S
H1396 C1379 0.931 . S
H1397 C1380 0.931 . S
H1398 C1381 0.929 . S
H1399 C1382 0.930 . S
H1400 C1390 0.931 . S
H1401 C1391 0.931 . S
H1402 C1392 0.930 . S
H1403 C1393 0.929 . S
Eu1404 N1433 2.600 . S
Eu1404 N1439 2.562 . S
Eu1404 O1448 2.462 . S
Eu1404 O1449 2.373 . S
Eu1404 O1451 2.432 . S
Eu1404 O1452 2.291 . S
Eu1404 O1456 2.335 . S
Eu1404 O1459 2.372 . S
Eu1404 C1468 2.787 . S
C1405 N1406 1.365 . S
C1405 C1408 1.405 . S
C1405 C1412 1.448 . S
N1406 C1405 1.365 . S
N1406 C1409 1.319 . S
N1406 Eu1415 2.600 . S
C1407 C1409 1.397 . S
C1407 C1410 1.367 . S
C1407 H1427 0.931 . S
C1408 C1405 1.405 . S
C1408 C1410 1.403 . S
C1408 C1414 1.439 . S
C1409 N1406 1.319 . S
C1409 C1407 1.397 . S
C1409 H1420 0.930 . S
C1410 C1407 1.367 . S
C1410 C1408 1.403 . S
C1410 H1431 0.929 . S
C1411 C1412 1.430 . S
C1411 C1413 1.387 . S
C1411 C1417 1.404 . S
C1412 C1405 1.448 . S
C1412 C1411 1.430 . S
C1412 N1416 1.351 . S
C1413 C1411 1.387 . S
C1413 C1414 1.374 . S
C1413 H1428 0.931 . S
C1414 C1408 1.439 . S
C1414 C1413 1.374 . S
C1414 H1429 0.931 . S
Eu1415 N1406 2.600 . S
Eu1415 N1416 2.562 . S
Eu1415 O1450 2.335 . S
Eu1415 O1453 2.372 . S
Eu1415 O1454 2.462 . S
Eu1415 O1455 2.373 . S
Eu1415 O1457 2.432 . S
Eu1415 O1458 2.291 . S
Eu1415 C1479 2.787 . S
N1416 C1412 1.351 . S
N1416 Eu1415 2.562 . S
N1416 C1418 1.325 . S
C1417 C1411 1.404 . S
C1417 C1419 1.366 . S
C1417 H1425 0.930 . S
C1418 N1416 1.325 . S
C1418 C1419 1.416 . S
C1418 H1424 0.929 . S
C1419 C1417 1.366 . S
C1419 C1418 1.416 . S
C1419 H1421 0.930 . S
H1420 C1409 0.930 . S
H1421 C1419 0.930 . S
H1422 C1437 0.930 . S
H1423 C1444 0.930 . S
H1424 C1418 0.929 . S
H1425 C1417 0.930 . S
H1426 C1440 0.929 . S
H1427 C1407 0.931 . S
H1428 C1413 0.931 . S
H1429 C1414 0.931 . S
H1430 C1435 0.931 . S
H1431 C1410 0.929 . S
H1432 C1443 0.930 . S
N1433 Eu1404 2.600 . S
N1433 C1434 1.365 . S
N1433 C1437 1.319 . S
C1434 N1433 1.365 . S
C1434 C1436 1.405 . S
C1434 C1442 1.448 . S
C1435 H1430 0.931 . S
C1435 C1437 1.397 . S
C1435 C1438 1.367 . S
C1436 C1434 1.405 . S
C1436 C1438 1.403 . S
C1436 C1469 1.439 . S
C1437 H1422 0.930 . S
C1437 N1433 1.319 . S
C1437 C1435 1.397 . S
C1438 C1435 1.367 . S
C1438 C1436 1.403 . S
C1438 H1445 0.929 . S
N1439 Eu1404 2.562 . S
N1439 C1440 1.325 . S
N1439 C1442 1.351 . S
C1440 H1426 0.929 . S
C1440 N1439 1.325 . S
C1440 C1444 1.416 . S
C1441 C1442 1.430 . S
C1441 C1443 1.404 . S
C1441 C1470 1.387 . S
C1442 C1434 1.448 . S
C1442 N1439 1.351 . S
C1442 C1441 1.430 . S
C1443 H1432 0.930 . S
C1443 C1441 1.404 . S
C1443 C1444 1.366 . S
C1444 H1423 0.930 . S
C1444 C1440 1.416 . S
C1444 C1443 1.366 . S
H1445 C1438 0.929 . S
H1446 C1469 0.931 . S
H1447 C1470 0.931 . S
O1448 Eu1404 2.462 . S
O1448 C1468 1.252 . S
O1449 Eu1404 2.373 . S
O1449 C1460 1.249 . S
O1450 Eu1415 2.335 . S
O1450 C1460 1.264 . S
O1451 Eu1404 2.432 . S
O1451 C1468 1.268 . S
O1452 Eu1404 2.291 . S
O1452 C1467 1.255 . S
O1453 Eu1415 2.372 . S
O1453 C1467 1.257 . S
O1454 Eu1415 2.462 . S
O1454 C1479 1.252 . S
O1455 Eu1415 2.373 . S
O1455 C1471 1.249 . S
O1456 Eu1404 2.335 . S
O1456 C1471 1.264 . S
O1457 Eu1415 2.432 . S
O1457 C1479 1.268 . S
O1458 Eu1415 2.291 . S
O1458 C1478 1.255 . S
O1459 Eu1404 2.372 . S
O1459 C1478 1.257 . S
C1460 O1449 1.249 . S
C1460 O1450 1.264 . S
C1461 C1464 1.382 . S
C1461 C1466 1.390 . S
C1461 C1468 1.506 . S
C1462 C1463 1.398 . S
C1462 C1466 1.392 . S
C1463 C1462 1.398 . S
C1463 C1465 1.372 . S
C1463 H1480 0.931 . S
C1464 C1461 1.382 . S
C1464 C1465 1.390 . S
C1464 H1481 0.931 . S
C1465 C1463 1.372 . S
C1465 C1464 1.390 . S
C1465 H1482 0.929 . S
C1466 C1461 1.390 . S
C1466 C1462 1.392 . S
C1466 H1483 0.930 . S
C1467 O1452 1.255 . S
C1467 O1453 1.257 . S
C1468 Eu1404 2.787 . S
C1468 O1448 1.252 . S
C1468 O1451 1.268 . S
C1468 C1461 1.506 . S
C1469 C1436 1.439 . S
C1469 H1446 0.931 . S
C1469 C1470 1.374 . S
C1470 C1441 1.387 . S
C1470 H1447 0.931 . S
C1470 C1469 1.374 . S
C1471 O1455 1.249 . S
C1471 O1456 1.264 . S
C1472 C1475 1.382 . S
C1472 C1476 1.390 . S
C1472 C1479 1.506 . S
C1473 C1474 1.398 . S
C1473 C1476 1.392 . S
C1474 C1473 1.398 . S
C1474 C1477 1.372 . S
C1474 H1484 0.931 . S
C1475 C1472 1.382 . S
C1475 C1477 1.390 . S
C1475 H1485 0.931 . S
C1476 C1472 1.390 . S
C1476 C1473 1.392 . S
C1476 H1486 0.930 . S
C1477 C1474 1.372 . S
C1477 C1475 1.390 . S
C1477 H1487 0.929 . S
C1478 O1458 1.255 . S
C1478 O1459 1.257 . S
C1479 Eu1415 2.787 . S
C1479 O1454 1.252 . S
C1479 O1457 1.268 . S
C1479 C1472 1.506 . S
H1480 C1463 0.931 . S
H1481 C1464 0.931 . S
H1482 C1465 0.929 . S
H1483 C1466 0.930 . S
H1484 C1474 0.931 . S
H1485 C1475 0.931 . S
H1486 C1476 0.930 . S
H1487 C1477 0.929 . S
Eu1488 N1517 2.600 . S
Eu1488 N1523 2.562 . S
Eu1488 O1532 2.462 . S
Eu1488 O1533 2.373 . S
Eu1488 O1535 2.432 . S
Eu1488 O1536 2.291 . S
Eu1488 O1540 2.335 . S
Eu1488 O1543 2.372 . S
Eu1488 C1552 2.787 . S
C1489 N1490 1.365 . S
C1489 C1492 1.405 . S
C1489 C1496 1.448 . S
N1490 C1489 1.365 . S
N1490 C1493 1.319 . S
N1490 Eu1499 2.600 . S
C1491 C1493 1.397 . S
C1491 C1494 1.367 . S
C1491 H1511 0.931 . S
C1492 C1489 1.405 . S
C1492 C1494 1.403 . S
C1492 C1498 1.439 . S
C1493 N1490 1.319 . S
C1493 C1491 1.397 . S
C1493 H1504 0.930 . S
C1494 C1491 1.367 . S
C1494 C1492 1.403 . S
C1494 H1515 0.929 . S
C1495 C1496 1.430 . S
C1495 C1497 1.387 . S
C1495 C1501 1.404 . S
C1496 C1489 1.448 . S
C1496 C1495 1.430 . S
C1496 N1500 1.351 . S
C1497 C1495 1.387 . S
C1497 C1498 1.374 . S
C1497 H1512 0.931 . S
C1498 C1492 1.439 . S
C1498 C1497 1.374 . S
C1498 H1513 0.931 . S
Eu1499 N1490 2.600 . S
Eu1499 N1500 2.562 . S
Eu1499 O1534 2.335 . S
Eu1499 O1537 2.372 . S
Eu1499 O1538 2.462 . S
Eu1499 O1539 2.373 . S
Eu1499 O1541 2.432 . S
Eu1499 O1542 2.291 . S
Eu1499 C1563 2.787 . S
N1500 C1496 1.351 . S
N1500 Eu1499 2.562 . S
N1500 C1502 1.325 . S
C1501 C1495 1.404 . S
C1501 C1503 1.366 . S
C1501 H1509 0.930 . S
C1502 N1500 1.325 . S
C1502 C1503 1.416 . S
C1502 H1508 0.929 . S
C1503 C1501 1.366 . S
C1503 C1502 1.416 . S
C1503 H1505 0.930 . S
H1504 C1493 0.930 . S
H1505 C1503 0.930 . S
H1506 C1521 0.930 . S
H1507 C1528 0.930 . S
H1508 C1502 0.929 . S
H1509 C1501 0.930 . S
H1510 C1524 0.929 . S
H1511 C1491 0.931 . S
H1512 C1497 0.931 . S
H1513 C1498 0.931 . S
H1514 C1519 0.931 . S
H1515 C1494 0.929 . S
H1516 C1527 0.930 . S
N1517 Eu1488 2.600 . S
N1517 C1518 1.365 . S
N1517 C1521 1.319 . S
C1518 N1517 1.365 . S
C1518 C1520 1.405 . S
C1518 C1526 1.448 . S
C1519 H1514 0.931 . S
C1519 C1521 1.397 . S
C1519 C1522 1.367 . S
C1520 C1518 1.405 . S
C1520 C1522 1.403 . S
C1520 C1553 1.439 . S
C1521 H1506 0.930 . S
C1521 N1517 1.319 . S
C1521 C1519 1.397 . S
C1522 C1519 1.367 . S
C1522 C1520 1.403 . S
C1522 H1529 0.929 . S
N1523 Eu1488 2.562 . S
N1523 C1524 1.325 . S
N1523 C1526 1.351 . S
C1524 H1510 0.929 . S
C1524 N1523 1.325 . S
C1524 C1528 1.416 . S
C1525 C1526 1.430 . S
C1525 C1527 1.404 . S
C1525 C1554 1.387 . S
C1526 C1518 1.448 . S
C1526 N1523 1.351 . S
C1526 C1525 1.430 . S
C1527 H1516 0.930 . S
C1527 C1525 1.404 . S
C1527 C1528 1.366 . S
C1528 H1507 0.930 . S
C1528 C1524 1.416 . S
C1528 C1527 1.366 . S
H1529 C1522 0.929 . S
H1530 C1553 0.931 . S
H1531 C1554 0.931 . S
O1532 Eu1488 2.462 . S
O1532 C1552 1.252 . S
O1533 Eu1488 2.373 . S
O1533 C1544 1.249 . S
O1534 Eu1499 2.335 . S
O1534 C1544 1.264 . S
O1535 Eu1488 2.432 . S
O1535 C1552 1.268 . S
O1536 Eu1488 2.291 . S
O1536 C1551 1.255 . S
O1537 Eu1499 2.372 . S
O1537 C1551 1.257 . S
O1538 Eu1499 2.462 . S
O1538 C1563 1.252 . S
O1539 Eu1499 2.373 . S
O1539 C1555 1.249 . S
O1540 Eu1488 2.335 . S
O1540 C1555 1.264 . S
O1541 Eu1499 2.432 . S
O1541 C1563 1.268 . S
O1542 Eu1499 2.291 . S
O1542 C1562 1.255 . S
O1543 Eu1488 2.372 . S
O1543 C1562 1.257 . S
C1544 O1533 1.249 . S
C1544 O1534 1.264 . S
C1545 C1548 1.382 . S
C1545 C1550 1.390 . S
C1545 C1552 1.506 . S
C1546 C1547 1.398 . S
C1546 C1550 1.392 . S
C1547 C1546 1.398 . S
C1547 C1549 1.372 . S
C1547 H1564 0.931 . S
C1548 C1545 1.382 . S
C1548 C1549 1.390 . S
C1548 H1565 0.931 . S
C1549 C1547 1.372 . S
C1549 C1548 1.390 . S
C1549 H1566 0.929 . S
C1550 C1545 1.390 . S
C1550 C1546 1.392 . S
C1550 H1567 0.930 . S
C1551 O1536 1.255 . S
C1551 O1537 1.257 . S
C1552 Eu1488 2.787 . S
C1552 O1532 1.252 . S
C1552 O1535 1.268 . S
C1552 C1545 1.506 . S
C1553 C1520 1.439 . S
C1553 H1530 0.931 . S
C1553 C1554 1.374 . S
C1554 C1525 1.387 . S
C1554 H1531 0.931 . S
C1554 C1553 1.374 . S
C1555 O1539 1.249 . S
C1555 O1540 1.264 . S
C1556 C1559 1.382 . S
C1556 C1560 1.390 . S
C1556 C1563 1.506 . S
C1557 C1558 1.398 . S
C1557 C1560 1.392 . S
C1558 C1557 1.398 . S
C1558 C1561 1.372 . S
C1558 H1568 0.931 . S
C1559 C1556 1.382 . S
C1559 C1561 1.390 . S
C1559 H1569 0.931 . S
C1560 C1556 1.390 . S
C1560 C1557 1.392 . S
C1560 H1570 0.930 . S
C1561 C1558 1.372 . S
C1561 C1559 1.390 . S
C1561 H1571 0.929 . S
C1562 O1542 1.255 . S
C1562 O1543 1.257 . S
C1563 Eu1499 2.787 . S
C1563 O1538 1.252 . S
C1563 O1541 1.268 . S
C1563 C1556 1.506 . S
H1564 C1547 0.931 . S
H1565 C1548 0.931 . S
H1566 C1549 0.929 . S
H1567 C1550 0.930 . S
H1568 C1558 0.931 . S
H1569 C1559 0.931 . S
H1570 C1560 0.930 . S
H1571 C1561 0.929 . S
Eu1572 N1601 2.600 . S
Eu1572 N1607 2.562 . S
Eu1572 O1616 2.462 . S
Eu1572 O1617 2.373 1_655 S
Eu1572 O1619 2.432 . S
Eu1572 O1620 2.291 . S
Eu1572 O1624 2.335 1_655 S
Eu1572 O1627 2.372 1_655 S
Eu1572 C1636 2.787 . S
C1573 N1574 1.362 1_554 S
C1573 C1576 1.375 1_554 S
C1573 C1580 1.483 . S
N1574 C1573 1.362 1_556 S
N1574 C1577 1.319 . S
N1574 Eu1583 2.600 1_556 S
C1575 C1577 1.397 . S
C1575 C1578 1.367 . S
C1575 H1595 0.931 . S
C1576 C1573 1.375 1_556 S
C1576 C1578 1.403 . S
C1576 C1582 1.439 . S
C1577 N1574 1.319 . S
C1577 C1575 1.397 . S
C1577 H1588 0.930 . S
C1578 C1575 1.367 . S
C1578 C1576 1.403 . S
C1578 H1599 0.929 . S
C1579 C1580 1.430 . S
C1579 C1581 1.387 . S
C1579 C1585 1.404 . S
C1580 C1573 1.483 . S
C1580 C1579 1.430 . S
C1580 N1584 1.351 . S
C1581 C1579 1.387 . S
C1581 C1582 1.374 1_554 S
C1581 H1596 0.931 . S
C1582 C1576 1.439 . S
C1582 C1581 1.374 1_556 S
C1582 H1597 0.931 . S
Eu1583 N1574 2.600 1_554 S
Eu1583 N1584 2.562 . S
Eu1583 O1618 2.335 . S
Eu1583 O1621 2.372 1_554 S
Eu1583 O1622 2.462 . S
Eu1583 O1623 2.373 . S
Eu1583 O1625 2.447 . S
Eu1583 O1626 2.291 . S
Eu1583 C1647 2.787 . S
N1584 C1580 1.351 . S
N1584 Eu1583 2.562 . S
N1584 C1586 1.325 . S
C1585 C1579 1.404 . S
C1585 C1587 1.366 . S
C1585 H1593 0.930 . S
C1586 N1584 1.325 . S
C1586 C1587 1.416 . S
C1586 H1592 0.929 . S
C1587 C1585 1.366 . S
C1587 C1586 1.416 . S
C1587 H1589 0.930 . S
H1588 C1577 0.930 . S
H1589 C1587 0.930 . S
H1590 C1605 0.906 1_455 S
H1591 C1612 0.960 . S
H1592 C1586 0.929 . S
H1593 C1585 0.930 . S
H1594 C1608 0.929 . S
H1595 C1575 0.931 . S
H1596 C1581 0.931 . S
H1597 C1582 0.931 . S
H1598 C1603 0.931 . S
H1599 C1578 0.929 . S
H1600 C1611 0.930 . S
N1601 Eu1572 2.600 . S
N1601 C1602 1.365 . S
N1601 C1605 1.319 . S
C1602 N1601 1.365 . S
C1602 C1604 1.405 . S
C1602 C1610 1.448 . S
C1603 H1598 0.931 . S
C1603 C1605 1.397 . S
C1603 C1606 1.367 . S
C1604 C1602 1.405 . S
C1604 C1606 1.403 . S
C1604 C1637 1.439 . S
C1605 H1590 0.906 1_655 S
C1605 N1601 1.319 . S
C1605 C1603 1.397 . S
C1606 C1603 1.367 . S
C1606 C1604 1.403 . S
C1606 H1613 0.929 . S
N1607 Eu1572 2.562 . S
N1607 C1608 1.325 . S
N1607 C1610 1.351 . S
C1608 H1594 0.929 . S
C1608 N1607 1.325 . S
C1608 C1612 1.416 . S
C1609 C1610 1.430 . S
C1609 C1611 1.404 . S
C1609 C1638 1.387 . S
C1610 C1602 1.448 . S
C1610 N1607 1.351 . S
C1610 C1609 1.430 . S
C1611 H1600 0.930 . S
C1611 C1609 1.404 . S
C1611 C1612 1.366 . S
C1612 H1591 0.960 . S
C1612 C1608 1.416 . S
C1612 C1611 1.366 . S
H1613 C1606 0.929 . S
H1614 C1637 0.931 . S
H1615 C1638 0.931 . S
O1616 Eu1572 2.462 . S
O1616 C1636 1.252 . S
O1617 Eu1572 2.373 1_455 S
O1617 C1628 1.249 . S
O1618 Eu1583 2.335 . S
O1618 C1628 1.264 . S
O1619 Eu1572 2.432 . S
O1619 C1636 1.268 . S
O1620 Eu1572 2.291 . S
O1620 C1635 1.242 1_655 S
O1621 Eu1583 2.372 1_556 S
O1621 C1635 1.293 1_556 S
O1622 Eu1583 2.462 . S
O1622 C1647 1.252 . S
O1623 Eu1583 2.373 . S
O1623 C1639 1.249 . S
O1624 Eu1572 2.335 1_455 S
O1624 C1639 1.264 . S
O1625 Eu1583 2.447 . S
O1625 C1647 1.286 . S
O1626 Eu1583 2.291 . S
O1626 C1646 1.255 . S
O1627 Eu1572 2.372 1_455 S
O1627 C1646 1.257 . S
C1628 O1617 1.249 . S
C1628 O1618 1.264 . S
C1629 C1632 1.382 . S
C1629 C1634 1.390 . S
C1629 C1636 1.506 . S
C1630 C1631 1.398 . S
C1630 C1634 1.392 . S
C1631 C1630 1.398 . S
C1631 C1633 1.372 . S
C1631 H1648 0.931 . S
C1632 C1629 1.382 . S
C1632 C1633 1.390 . S
C1632 H1649 0.931 . S
C1633 C1631 1.372 . S
C1633 C1632 1.390 . S
C1633 H1650 0.929 . S
C1634 C1629 1.390 . S
C1634 C1630 1.392 . S
C1634 H1651 0.930 . S
C1635 O1620 1.242 1_455 S
C1635 O1621 1.293 1_554 S
C1636 Eu1572 2.787 . S
C1636 O1616 1.252 . S
C1636 O1619 1.268 . S
C1636 C1629 1.506 . S
C1637 C1604 1.439 . S
C1637 H1614 0.931 . S
C1637 C1638 1.374 . S
C1638 C1609 1.387 . S
C1638 H1615 0.931 . S
C1638 C1637 1.374 . S
C1639 O1623 1.249 . S
C1639 O1624 1.264 . S
C1640 C1643 1.382 1_554 S
C1640 C1644 1.390 . S
C1640 C1647 1.506 . S
C1641 C1642 1.398 . S
C1641 C1644 1.392 . S
C1642 C1641 1.398 . S
C1642 C1645 1.372 1_554 S
C1642 H1652 0.925 1_554 S
C1643 C1640 1.382 1_556 S
C1643 C1645 1.390 . S
C1643 H1653 0.931 . S
C1644 C1640 1.390 . S
C1644 C1641 1.392 . S
C1644 H1654 0.930 . S
C1645 C1642 1.372 1_556 S
C1645 C1643 1.390 . S
C1645 H1655 0.929 . S
C1646 O1626 1.255 . S
C1646 O1627 1.257 . S
C1647 Eu1583 2.787 . S
C1647 O1622 1.252 . S
C1647 O1625 1.286 . S
C1647 C1640 1.506 . S
H1648 C1631 0.931 . S
H1649 C1632 0.931 . S
H1650 C1633 0.929 . S
H1651 C1634 0.930 . S
H1652 C1642 0.925 1_556 S
H1653 C1643 0.931 . S
H1654 C1644 0.930 . S
H1655 C1645 0.929 . S
H1656 C1662 0.930 . S
H1657 C1666 0.930 . S
H1658 C1671 0.929 1_655 S
H1659 C1669 0.929 1_556 S
H1660 C1664 0.929 . S
H1661 C1670 0.929 . S
C1662 H1656 0.930 . S
C1662 C1663 1.367 . S
C1662 C1670 1.378 . S
C1663 C1662 1.367 . S
C1663 C1671 1.433 1_556 S
C1664 H1660 0.929 . S
C1664 C1666 1.378 . S
C1664 C1668 1.350 . S
C1665 C1668 1.463 1_556 S
C1665 C1670 1.350 . S
C1665 N1673 1.427 1_556 S
C1666 H1657 0.930 . S
C1666 C1664 1.378 . S
C1666 C1667 1.367 . S
C1667 C1666 1.367 . S
C1667 C1669 1.433 . S
C1668 C1664 1.350 . S
C1668 C1665 1.463 1_554 S
C1668 N1672 1.427 1_554 S
C1669 H1659 0.929 1_554 S
C1669 C1667 1.433 . S
C1669 N1672 1.384 1_554 S
C1670 H1661 0.929 . S
C1670 C1662 1.378 . S
C1670 C1665 1.350 . S
C1671 H1658 0.929 1_455 S
C1671 C1663 1.433 1_554 S
C1671 N1673 1.384 . S
N1672 C1668 1.427 1_556 S
N1672 C1669 1.384 1_556 S
N1673 C1665 1.427 1_554 S
N1673 C1671 1.384 . S
H1674 C1680 0.930 . S
H1675 C1684 0.930 . S
H1676 C1689 0.929 . S
H1677 C1687 0.929 . S
H1678 C1682 0.929 . S
H1679 C1688 0.929 . S
C1680 H1674 0.930 . S
C1680 C1681 1.367 . S
C1680 C1688 1.378 . S
C1681 C1680 1.367 . S
C1681 C1689 1.433 . S
C1682 H1678 0.929 . S
C1682 C1684 1.378 . S
C1682 C1686 1.350 . S
C1683 C1686 1.463 . S
C1683 C1688 1.350 . S
C1683 N1691 1.427 . S
C1684 H1675 0.930 . S
C1684 C1682 1.378 . S
C1684 C1685 1.367 . S
C1685 C1684 1.367 . S
C1685 C1687 1.433 . S
C1686 C1682 1.350 . S
C1686 C1683 1.463 . S
C1686 N1690 1.427 . S
C1687 H1677 0.929 . S
C1687 C1685 1.433 . S
C1687 N1690 1.384 . S
C1688 H1679 0.929 . S
C1688 C1680 1.378 . S
C1688 C1683 1.350 . S
C1689 H1676 0.929 . S
C1689 C1681 1.433 . S
C1689 N1691 1.384 . S
N1690 C1686 1.427 . S
N1690 C1687 1.384 . S
N1691 C1683 1.427 . S
N1691 C1689 1.384 . S
H1692 C1698 0.930 . S
H1693 C1702 0.930 . S
H1694 C1707 0.929 . S
H1695 C1705 0.929 . S
H1696 C1700 0.929 . S
H1697 C1706 0.929 . S
C1698 H1692 0.930 . S
C1698 C1699 1.367 . S
C1698 C1706 1.378 . S
C1699 C1698 1.367 . S
C1699 C1707 1.433 . S
C1700 H1696 0.929 . S
C1700 C1702 1.378 . S
C1700 C1704 1.350 . S
C1701 C1704 1.463 . S
C1701 C1706 1.350 . S
C1701 N1709 1.427 . S
C1702 H1693 0.930 . S
C1702 C1700 1.378 . S
C1702 C1703 1.367 . S
C1703 C1702 1.367 . S
C1703 C1705 1.433 . S
C1704 C1700 1.350 . S
C1704 C1701 1.463 . S
C1704 N1708 1.427 . S
C1705 H1695 0.929 . S
C1705 C1703 1.433 . S
C1705 N1708 1.384 . S
C1706 H1697 0.929 . S
C1706 C1698 1.378 . S
C1706 C1701 1.350 . S
C1707 H1694 0.929 . S
C1707 C1699 1.433 . S
C1707 N1709 1.384 . S
N1708 C1704 1.427 . S
N1708 C1705 1.384 . S
N1709 C1701 1.427 . S
N1709 C1707 1.384 . S
H1710 C1716 0.930 . S
H1711 C1720 0.930 . S
H1712 C1725 0.929 . S
H1713 C1723 0.929 . S
H1714 C1718 0.929 . S
H1715 C1724 0.929 . S
C1716 H1710 0.930 . S
C1716 C1717 1.367 . S
C1716 C1724 1.378 . S
C1717 C1716 1.367 . S
C1717 C1725 1.433 . S
C1718 H1714 0.929 . S
C1718 C1720 1.378 . S
C1718 C1722 1.350 . S
C1719 C1722 1.463 . S
C1719 C1724 1.350 . S
C1719 N1727 1.427 . S
C1720 H1711 0.930 . S
C1720 C1718 1.378 . S
C1720 C1721 1.367 . S
C1721 C1720 1.367 . S
C1721 C1723 1.433 . S
C1722 C1718 1.350 . S
C1722 C1719 1.463 . S
C1722 N1726 1.427 . S
C1723 H1713 0.929 . S
C1723 C1721 1.433 . S
C1723 N1726 1.384 . S
C1724 H1715 0.929 . S
C1724 C1716 1.378 . S
C1724 C1719 1.350 . S
C1725 H1712 0.929 . S
C1725 C1717 1.433 . S
C1725 N1727 1.384 . S
N1726 C1722 1.427 . S
N1726 C1723 1.384 . S
N1727 C1719 1.427 . S
N1727 C1725 1.384 . S
H1728 C1734 0.930 . S
H1729 C1738 0.930 . S
H1730 C1743 0.929 . S
H1731 C1741 0.929 . S
H1732 C1736 0.929 . S
H1733 C1742 0.929 . S
C1734 H1728 0.930 . S
C1734 C1735 1.367 . S
C1734 C1742 1.378 . S
C1735 C1734 1.367 . S
C1735 C1743 1.433 . S
C1736 H1732 0.929 . S
C1736 C1738 1.378 . S
C1736 C1740 1.350 . S
C1737 C1740 1.463 . S
C1737 C1742 1.350 . S
C1737 N1745 1.427 . S
C1738 H1729 0.930 . S
C1738 C1736 1.378 . S
C1738 C1739 1.367 . S
C1739 C1738 1.367 . S
C1739 C1741 1.433 . S
C1740 C1736 1.350 . S
C1740 C1737 1.463 . S
C1740 N1744 1.427 . S
C1741 H1731 0.929 . S
C1741 C1739 1.433 . S
C1741 N1744 1.384 . S
C1742 H1733 0.929 . S
C1742 C1734 1.378 . S
C1742 C1737 1.350 . S
C1743 H1730 0.929 . S
C1743 C1735 1.433 . S
C1743 N1745 1.384 . S
N1744 C1740 1.427 . S
N1744 C1741 1.384 . S
N1745 C1737 1.427 . S
N1745 C1743 1.384 . S
H1746 C1752 0.930 . S
H1747 C1756 0.930 . S
H1748 C1761 0.929 . S
H1749 C1759 0.929 . S
H1750 C1754 0.929 . S
H1751 C1760 0.929 . S
C1752 H1746 0.930 . S
C1752 C1753 1.367 . S
C1752 C1760 1.378 . S
C1753 C1752 1.367 . S
C1753 C1761 1.433 . S
C1754 H1750 0.929 . S
C1754 C1756 1.378 . S
C1754 C1758 1.350 . S
C1755 C1758 1.463 . S
C1755 C1760 1.350 . S
C1755 N1763 1.427 . S
C1756 H1747 0.930 . S
C1756 C1754 1.378 . S
C1756 C1757 1.367 . S
C1757 C1756 1.367 . S
C1757 C1759 1.433 . S
C1758 C1754 1.350 . S
C1758 C1755 1.463 . S
C1758 N1762 1.427 . S
C1759 H1749 0.929 . S
C1759 C1757 1.433 . S
C1759 N1762 1.384 . S
C1760 H1751 0.929 . S
C1760 C1752 1.378 . S
C1760 C1755 1.350 . S
C1761 H1748 0.929 . S
C1761 C1753 1.433 . S
C1761 N1763 1.384 . S
N1762 C1758 1.427 . S
N1762 C1759 1.384 . S
N1763 C1755 1.427 . S
N1763 C1761 1.384 . S
H1764 C1770 0.930 . S
H1765 C1774 0.930 . S
H1766 C1779 0.929 . S
H1767 C1777 0.929 . S
H1768 C1772 0.929 . S
H1769 C1778 0.929 . S
C1770 H1764 0.930 . S
C1770 C1771 1.367 . S
C1770 C1778 1.378 . S
C1771 C1770 1.367 . S
C1771 C1779 1.433 . S
C1772 H1768 0.929 . S
C1772 C1774 1.378 . S
C1772 C1776 1.350 . S
C1773 C1776 1.463 . S
C1773 C1778 1.350 . S
C1773 N1781 1.427 . S
C1774 H1765 0.930 . S
C1774 C1772 1.378 . S
C1774 C1775 1.367 . S
C1775 C1774 1.367 . S
C1775 C1777 1.433 . S
C1776 C1772 1.350 . S
C1776 C1773 1.463 . S
C1776 N1780 1.427 . S
C1777 H1767 0.929 . S
C1777 C1775 1.433 . S
C1777 N1780 1.384 . S
C1778 H1769 0.929 . S
C1778 C1770 1.378 . S
C1778 C1773 1.350 . S
C1779 H1766 0.929 . S
C1779 C1771 1.433 . S
C1779 N1781 1.384 . S
N1780 C1776 1.427 . S
N1780 C1777 1.384 . S
N1781 C1773 1.427 . S
N1781 C1779 1.384 . S
H1782 C1788 0.930 . S
H1783 C1792 0.930 . S
H1784 C1797 0.929 . S
H1785 C1795 0.929 . S
H1786 C1790 0.929 . S
H1787 C1796 0.929 . S
C1788 H1782 0.930 . S
C1788 C1789 1.367 . S
C1788 C1796 1.378 . S
C1789 C1788 1.367 . S
C1789 C1797 1.433 . S
C1790 H1786 0.929 . S
C1790 C1792 1.378 . S
C1790 C1794 1.350 . S
C1791 C1794 1.463 . S
C1791 C1796 1.350 . S
C1791 N1799 1.427 . S
C1792 H1783 0.930 . S
C1792 C1790 1.378 . S
C1792 C1793 1.367 . S
C1793 C1792 1.367 . S
C1793 C1795 1.433 . S
C1794 C1790 1.350 . S
C1794 C1791 1.463 . S
C1794 N1798 1.427 . S
C1795 H1785 0.929 . S
C1795 C1793 1.433 . S
C1795 N1798 1.384 . S
C1796 H1787 0.929 . S
C1796 C1788 1.378 . S
C1796 C1791 1.350 . S
C1797 H1784 0.929 . S
C1797 C1789 1.433 . S
C1797 N1799 1.384 . S
N1798 C1794 1.427 . S
N1798 C1795 1.384 . S
N1799 C1791 1.427 . S
N1799 C1797 1.384 . S
H1800 C1806 0.930 1_565 S
H1801 C1810 0.930 . S
H1802 C1815 0.929 . S
H1803 C1813 0.929 . S
H1804 C1808 0.929 . S
H1805 C1814 0.899 1_565 S
C1806 H1800 0.930 1_545 S
C1806 C1807 1.367 . S
C1806 C1814 1.378 . S
C1807 C1806 1.367 . S
C1807 C1815 1.433 . S
C1808 H1804 0.929 . S
C1808 C1810 1.378 . S
C1808 C1812 1.350 1_455 S
C1809 C1812 1.463 . S
C1809 C1814 1.350 . S
C1809 N1817 1.427 . S
C1810 H1801 0.930 . S
C1810 C1808 1.378 . S
C1810 C1811 1.367 . S
C1811 C1810 1.367 . S
C1811 C1813 1.433 . S
C1812 C1808 1.350 1_655 S
C1812 C1809 1.463 . S
C1812 N1816 1.427 . S
C1813 H1803 0.929 . S
C1813 C1811 1.433 . S
C1813 N1816 1.384 1_455 S
C1814 H1805 0.899 1_545 S
C1814 C1806 1.378 . S
C1814 C1809 1.350 . S
C1815 H1802 0.929 . S
C1815 C1807 1.433 . S
C1815 N1817 1.384 . S
N1816 C1812 1.427 . S
N1816 C1813 1.384 1_655 S
N1817 C1809 1.427 . S
N1817 C1815 1.384 . S
H1818 C1824 0.930 . S
H1819 C1828 0.930 . S
H1820 C1833 0.929 . S
H1821 C1831 0.929 . S
H1822 C1826 0.929 . S
H1823 C1832 0.929 . S
C1824 H1818 0.930 . S
C1824 C1825 1.367 . S
C1824 C1832 1.378 . S
C1825 C1824 1.367 . S
C1825 C1833 1.433 . S
C1826 H1822 0.929 . S
C1826 C1828 1.378 . S
C1826 C1830 1.350 . S
C1827 C1830 1.463 . S
C1827 C1832 1.350 . S
C1827 N1835 1.427 . S
C1828 H1819 0.930 . S
C1828 C1826 1.378 . S
C1828 C1829 1.367 . S
C1829 C1828 1.367 . S
C1829 C1831 1.433 . S
C1830 C1826 1.350 . S
C1830 C1827 1.463 . S
C1830 N1834 1.427 . S
C1831 H1821 0.929 . S
C1831 C1829 1.433 . S
C1831 N1834 1.384 . S
C1832 H1823 0.929 . S
C1832 C1824 1.378 . S
C1832 C1827 1.350 . S
C1833 H1820 0.929 . S
C1833 C1825 1.433 . S
C1833 N1835 1.384 . S
N1834 C1830 1.427 . S
N1834 C1831 1.384 . S
N1835 C1827 1.427 . S
N1835 C1833 1.384 . S
H1836 C1842 0.930 . S
H1837 C1846 0.930 . S
H1838 C1851 0.929 . S
H1839 C1849 0.929 1_565 S
H1840 C1844 0.929 . S
H1841 C1850 0.929 . S
C1842 H1836 0.930 . S
C1842 C1843 1.367 . S
C1842 C1850 1.378 . S
C1843 C1842 1.367 . S
C1843 C1851 1.433 . S
C1844 H1840 0.929 . S
C1844 C1846 1.378 . S
C1844 C1848 1.350 . S
C1845 C1848 1.463 . S
C1845 C1850 1.350 . S
C1845 N1853 1.427 . S
C1846 H1837 0.930 . S
C1846 C1844 1.378 . S
C1846 C1847 1.367 . S
C1847 C1846 1.367 . S
C1847 C1849 1.433 . S
C1848 C1844 1.350 . S
C1848 C1845 1.463 . S
C1848 N1852 1.427 . S
C1849 H1839 0.929 1_545 S
C1849 C1847 1.433 . S
C1849 N1852 1.384 . S
C1850 H1841 0.929 . S
C1850 C1842 1.378 . S
C1850 C1845 1.350 . S
C1851 H1838 0.929 . S
C1851 C1843 1.433 . S
C1851 N1853 1.384 . S
N1852 C1848 1.427 . S
N1852 C1849 1.384 . S
N1853 C1845 1.427 . S
N1853 C1851 1.384 . S
H1854 C1860 0.930 . S
H1855 C1864 0.930 . S
H1856 C1869 0.929 . S
H1857 C1867 0.929 . S
H1858 C1862 0.929 . S
H1859 C1868 0.929 . S
C1860 H1854 0.930 . S
C1860 C1861 1.367 . S
C1860 C1868 1.378 . S
C1861 C1860 1.367 . S
C1861 C1869 1.433 . S
C1862 H1858 0.929 . S
C1862 C1864 1.378 . S
C1862 C1866 1.350 . S
C1863 C1866 1.463 . S
C1863 C1868 1.350 . S
C1863 N1871 1.427 . S
C1864 H1855 0.930 . S
C1864 C1862 1.378 . S
C1864 C1865 1.367 . S
C1865 C1864 1.367 . S
C1865 C1867 1.433 . S
C1866 C1862 1.350 . S
C1866 C1863 1.463 . S
C1866 N1870 1.427 . S
C1867 H1857 0.929 . S
C1867 C1865 1.433 . S
C1867 N1870 1.384 . S
C1868 H1859 0.929 . S
C1868 C1860 1.378 . S
C1868 C1863 1.350 . S
C1869 H1856 0.929 . S
C1869 C1861 1.433 . S
C1869 N1871 1.384 . S
N1870 C1866 1.427 . S
N1870 C1867 1.384 . S
N1871 C1863 1.427 . S
N1871 C1869 1.384 . S
H1872 C1878 0.930 . S
H1873 C1882 0.930 . S
H1874 C1887 0.929 . S
H1875 C1885 0.973 . S
H1876 C1880 0.938 . S
H1877 C1886 0.929 . S
C1878 H1872 0.930 . S
C1878 C1879 1.367 1_565 S
C1878 C1886 1.378 . S
C1879 C1878 1.367 1_545 S
C1879 C1887 1.433 . S
C1880 H1876 0.938 . S
C1880 C1882 1.378 . S
C1880 C1884 1.350 1_455 S
C1881 C1884 1.463 . S
C1881 C1886 1.350 1_545 S
C1881 N1889 1.427 . S
C1882 H1873 0.930 . S
C1882 C1880 1.378 . S
C1882 C1883 1.367 . S
C1883 C1882 1.367 . S
C1883 C1885 1.397 1_545 S
C1884 C1880 1.350 1_655 S
C1884 C1881 1.463 . S
C1884 N1888 1.427 1_545 S
C1885 H1875 0.973 . S
C1885 C1883 1.397 1_565 S
C1885 N1888 1.376 1_455 S
C1886 H1877 0.929 . S
C1886 C1878 1.378 . S
C1886 C1881 1.350 1_565 S
C1887 H1874 0.929 . S
C1887 C1879 1.433 . S
C1887 N1889 1.384 . S
N1888 C1884 1.427 1_565 S
N1888 C1885 1.376 1_655 S
N1889 C1881 1.427 . S
N1889 C1887 1.384 . S
H1890 C1896 0.930 . S
H1891 C1900 0.930 . S
H1892 C1905 0.929 . S
H1893 C1903 0.929 . S
H1894 C1898 0.929 . S
H1895 C1904 0.929 . S
C1896 H1890 0.930 . S
C1896 C1897 1.367 . S
C1896 C1904 1.378 . S
C1897 C1896 1.367 . S
C1897 C1905 1.433 . S
C1898 H1894 0.929 . S
C1898 C1900 1.378 . S
C1898 C1902 1.350 . S
C1899 C1902 1.463 . S
C1899 C1904 1.350 . S
C1899 N1907 1.427 . S
C1900 H1891 0.930 . S
C1900 C1898 1.378 . S
C1900 C1901 1.367 . S
C1901 C1900 1.367 . S
C1901 C1903 1.433 . S
C1902 C1898 1.350 . S
C1902 C1899 1.463 . S
C1902 N1906 1.427 . S
C1903 H1893 0.929 . S
C1903 C1901 1.433 . S
C1903 N1906 1.384 . S
C1904 H1895 0.929 . S
C1904 C1896 1.378 . S
C1904 C1899 1.350 . S
C1905 H1892 0.929 . S
C1905 C1897 1.433 . S
C1905 N1907 1.384 . S
N1906 C1902 1.427 . S
N1906 C1903 1.384 . S
N1907 C1899 1.427 . S
N1907 C1905 1.384 . S
H1908 C1914 0.930 . S
H1909 C1918 0.930 . S
H1910 C1923 0.929 . S
H1911 C1921 0.929 . S
H1912 C1916 0.929 . S
H1913 C1922 0.929 . S
C1914 H1908 0.930 . S
C1914 C1915 1.367 . S
C1914 C1922 1.378 . S
C1915 C1914 1.367 . S
C1915 C1923 1.433 . S
C1916 H1912 0.929 . S
C1916 C1918 1.378 . S
C1916 C1920 1.350 . S
C1917 C1920 1.463 . S
C1917 C1922 1.350 . S
C1917 N1925 1.427 . S
C1918 H1909 0.930 . S
C1918 C1916 1.378 . S
C1918 C1919 1.367 . S
C1919 C1918 1.367 . S
C1919 C1921 1.433 . S
C1920 C1916 1.350 . S
C1920 C1917 1.463 . S
C1920 N1924 1.427 . S
C1921 H1911 0.929 . S
C1921 C1919 1.433 . S
C1921 N1924 1.384 . S
C1922 H1913 0.929 . S
C1922 C1914 1.378 . S
C1922 C1917 1.350 . S
C1923 H1910 0.929 . S
C1923 C1915 1.433 . S
C1923 N1925 1.384 . S
N1924 C1920 1.427 . S
N1924 C1921 1.384 . S
N1925 C1917 1.427 . S
N1925 C1923 1.384 . S
H1926 C1932 0.930 . S
H1927 C1936 0.930 . S
H1928 C1941 0.929 . S
H1929 C1939 0.929 . S
H1930 C1934 0.929 . S
H1931 C1940 0.929 . S
C1932 H1926 0.930 . S
C1932 C1933 1.367 . S
C1932 C1940 1.378 . S
C1933 C1932 1.367 . S
C1933 C1941 1.433 . S
C1934 H1930 0.929 . S
C1934 C1936 1.378 . S
C1934 C1938 1.350 . S
C1935 C1938 1.463 . S
C1935 C1940 1.350 . S
C1935 N1943 1.427 . S
C1936 H1927 0.930 . S
C1936 C1934 1.378 . S
C1936 C1937 1.367 . S
C1937 C1936 1.367 . S
C1937 C1939 1.433 . S
C1938 C1934 1.350 . S
C1938 C1935 1.463 . S
C1938 N1942 1.427 . S
C1939 H1929 0.929 . S
C1939 C1937 1.433 . S
C1939 N1942 1.384 . S
C1940 H1931 0.929 . S
C1940 C1932 1.378 . S
C1940 C1935 1.350 . S
C1941 H1928 0.929 . S
C1941 C1933 1.433 . S
C1941 N1943 1.384 . S
N1942 C1938 1.427 . S
N1942 C1939 1.384 . S
N1943 C1935 1.427 . S
N1943 C1941 1.384 . S
H1944 C1950 0.930 . S
H1945 C1954 0.930 . S
H1946 C1959 0.929 . S
H1947 C1957 0.929 . S
H1948 C1952 0.929 . S
H1949 C1958 0.929 . S
C1950 H1944 0.930 . S
C1950 C1951 1.367 . S
C1950 C1958 1.378 . S
C1951 C1950 1.367 . S
C1951 C1959 1.433 1_554 S
C1952 H1948 0.929 . S
C1952 C1954 1.378 . S
C1952 C1956 1.350 . S
C1953 C1956 1.463 . S
C1953 C1958 1.350 . S
C1953 N1961 1.446 . S
C1954 H1945 0.930 . S
C1954 C1952 1.378 . S
C1954 C1955 1.367 1_565 S
C1955 C1954 1.367 1_545 S
C1955 C1957 1.433 . S
C1956 C1952 1.350 . S
C1956 C1953 1.463 . S
C1956 N1960 1.427 1_565 S
C1957 H1947 0.929 . S
C1957 C1955 1.433 . S
C1957 N1960 1.384 . S
C1958 H1949 0.929 . S
C1958 C1950 1.378 . S
C1958 C1953 1.350 . S
C1959 H1946 0.929 . S
C1959 C1951 1.433 1_556 S
C1959 N1961 1.375 1_556 S
N1960 C1956 1.427 1_545 S
N1960 C1957 1.384 . S
N1961 C1953 1.446 . S
N1961 C1959 1.375 1_554 S
H1962 C1968 0.930 . S
H1963 C1972 0.930 . S
H1964 C1977 0.929 . S
H1965 C1975 0.929 . S
H1966 C1970 0.929 . S
H1967 C1976 0.929 . S
C1968 H1962 0.930 . S
C1968 C1969 1.367 1_556 S
C1968 C1976 1.378 . S
C1969 C1968 1.367 1_554 S
C1969 C1977 1.433 . S
C1970 H1966 0.929 . S
C1970 C1972 1.378 . S
C1970 C1974 1.350 . S
C1971 C1974 1.463 . S
C1971 C1976 1.350 1_554 S
C1971 N1979 1.427 . S
C1972 H1963 0.930 . S
C1972 C1970 1.378 . S
C1972 C1973 1.367 . S
C1973 C1972 1.367 . S
C1973 C1975 1.433 1_554 S
C1974 C1970 1.350 . S
C1974 C1971 1.463 . S
C1974 N1978 1.427 1_554 S
C1975 H1965 0.929 . S
C1975 C1973 1.433 1_556 S
C1975 N1978 1.384 . S
C1976 H1967 0.929 . S
C1976 C1968 1.378 . S
C1976 C1971 1.350 1_556 S
C1977 H1964 0.929 . S
C1977 C1969 1.433 . S
C1977 N1979 1.384 . S
N1978 C1974 1.427 1_556 S
N1978 C1975 1.384 . S
N1979 C1971 1.427 . S
N1979 C1977 1.384 . S
H1980 C1986 0.930 . S
H1981 C1990 0.930 . S
H1982 C1995 0.929 . S
H1983 C1993 0.929 . S
H1984 C1988 0.929 . S
H1985 C1994 0.929 . S
C1986 H1980 0.930 . S
C1986 C1987 1.367 . S
C1986 C1994 1.378 . S
C1987 C1986 1.367 . S
C1987 C1995 1.433 . S
C1988 H1984 0.929 . S
C1988 C1990 1.378 . S
C1988 C1992 1.350 . S
C1989 C1992 1.463 . S
C1989 C1994 1.350 . S
C1989 N1997 1.427 . S
C1990 H1981 0.930 . S
C1990 C1988 1.378 . S
C1990 C1991 1.367 . S
C1991 C1990 1.367 . S
C1991 C1993 1.433 . S
C1992 C1988 1.350 . S
C1992 C1989 1.463 . S
C1992 N1996 1.427 . S
C1993 H1983 0.929 . S
C1993 C1991 1.433 . S
C1993 N1996 1.384 . S
C1994 H1985 0.929 . S
C1994 C1986 1.378 . S
C1994 C1989 1.350 . S
C1995 H1982 0.929 . S
C1995 C1987 1.433 . S
C1995 N1997 1.384 . S
N1996 C1992 1.427 . S
N1996 C1993 1.384 . S
N1997 C1989 1.427 . S
N1997 C1995 1.384 . S
H1998 C2004 0.930 . S
H1999 C2008 0.930 . S
H2000 C2013 0.929 . S
H2001 C2011 0.929 . S
H2002 C2006 0.929 . S
H2003 C2012 0.929 . S
C2004 H1998 0.930 . S
C2004 C2005 1.367 . S
C2004 C2012 1.378 . S
C2005 C2004 1.367 . S
C2005 C2013 1.433 . S
C2006 H2002 0.929 . S
C2006 C2008 1.378 . S
C2006 C2010 1.350 . S
C2007 C2010 1.463 . S
C2007 C2012 1.350 . S
C2007 N2015 1.427 . S
C2008 H1999 0.930 . S
C2008 C2006 1.378 . S
C2008 C2009 1.367 . S
C2009 C2008 1.367 . S
C2009 C2011 1.433 . S
C2010 C2006 1.350 . S
C2010 C2007 1.463 . S
C2010 N2014 1.427 . S
C2011 H2001 0.929 . S
C2011 C2009 1.433 . S
C2011 N2014 1.384 . S
C2012 H2003 0.929 . S
C2012 C2004 1.378 . S
C2012 C2007 1.350 . S
C2013 H2000 0.929 . S
C2013 C2005 1.433 . S
C2013 N2015 1.384 . S
N2014 C2010 1.427 . S
N2014 C2011 1.384 . S
N2015 C2007 1.427 . S
N2015 C2013 1.384 . S
H2016 C2022 0.930 . S
H2017 C2026 0.930 . S
H2018 C2031 0.929 . S
H2019 C2029 0.929 . S
H2020 C2024 0.929 . S
H2021 C2030 0.929 . S
C2022 H2016 0.930 . S
C2022 C2023 1.367 . S
C2022 C2030 1.378 . S
C2023 C2022 1.367 . S
C2023 C2031 1.433 . S
C2024 H2020 0.929 . S
C2024 C2026 1.378 . S
C2024 C2028 1.350 . S
C2025 C2028 1.463 . S
C2025 C2030 1.350 . S
C2025 N2033 1.427 . S
C2026 H2017 0.930 . S
C2026 C2024 1.378 . S
C2026 C2027 1.367 . S
C2027 C2026 1.367 . S
C2027 C2029 1.433 . S
C2028 C2024 1.350 . S
C2028 C2025 1.463 . S
C2028 N2032 1.427 . S
C2029 H2019 0.929 . S
C2029 C2027 1.433 . S
C2029 N2032 1.384 . S
C2030 H2021 0.929 . S
C2030 C2022 1.378 . S
C2030 C2025 1.350 . S
C2031 H2018 0.929 . S
C2031 C2023 1.433 . S
C2031 N2033 1.384 . S
N2032 C2028 1.427 . S
N2032 C2029 1.384 . S
N2033 C2025 1.427 . S
N2033 C2031 1.384 . S
H2034 C2040 0.930 . S
H2035 C2044 0.930 . S
H2036 C2049 0.929 . S
H2037 C2047 0.929 . S
H2038 C2042 0.929 . S
H2039 C2048 0.929 . S
C2040 H2034 0.930 . S
C2040 C2041 1.367 . S
C2040 C2048 1.378 . S
C2041 C2040 1.367 . S
C2041 C2049 1.433 . S
C2042 H2038 0.929 . S
C2042 C2044 1.378 . S
C2042 C2046 1.350 . S
C2043 C2046 1.463 . S
C2043 C2048 1.350 . S
C2043 N2051 1.427 . S
C2044 H2035 0.930 . S
C2044 C2042 1.378 . S
C2044 C2045 1.367 . S
C2045 C2044 1.367 . S
C2045 C2047 1.433 . S
C2046 C2042 1.350 . S
C2046 C2043 1.463 . S
C2046 N2050 1.427 . S
C2047 H2037 0.929 . S
C2047 C2045 1.433 . S
C2047 N2050 1.384 . S
C2048 H2039 0.929 . S
C2048 C2040 1.378 . S
C2048 C2043 1.350 . S
C2049 H2036 0.929 . S
C2049 C2041 1.433 . S
C2049 N2051 1.384 . S
N2050 C2046 1.427 . S
N2050 C2047 1.384 . S
N2051 C2043 1.427 . S
N2051 C2049 1.384 . S
H2052 C2058 0.930 . S
H2053 C2062 0.930 . S
H2054 C2067 0.929 . S
H2055 C2065 0.929 . S
H2056 C2060 0.929 . S
H2057 C2066 0.929 . S
C2058 H2052 0.930 . S
C2058 C2059 1.367 . S
C2058 C2066 1.378 . S
C2059 C2058 1.367 . S
C2059 C2067 1.433 . S
C2060 H2056 0.929 . S
C2060 C2062 1.378 . S
C2060 C2064 1.350 . S
C2061 C2064 1.463 . S
C2061 C2066 1.350 . S
C2061 N2069 1.427 . S
C2062 H2053 0.930 . S
C2062 C2060 1.378 . S
C2062 C2063 1.367 . S
C2063 C2062 1.367 . S
C2063 C2065 1.433 . S
C2064 C2060 1.350 . S
C2064 C2061 1.463 . S
C2064 N2068 1.427 . S
C2065 H2055 0.929 . S
C2065 C2063 1.433 . S
C2065 N2068 1.384 . S
C2066 H2057 0.929 . S
C2066 C2058 1.378 . S
C2066 C2061 1.350 . S
C2067 H2054 0.929 . S
C2067 C2059 1.433 . S
C2067 N2069 1.384 . S
N2068 C2064 1.427 . S
N2068 C2065 1.384 . S
N2069 C2061 1.427 . S
N2069 C2067 1.384 . S
H2070 C2076 0.930 . S
H2071 C2080 0.930 . S
H2072 C2085 0.929 . S
H2073 C2083 0.929 . S
H2074 C2078 0.929 . S
H2075 C2084 0.929 . S
C2076 H2070 0.930 . S
C2076 C2077 1.367 . S
C2076 C2084 1.378 . S
C2077 C2076 1.367 . S
C2077 C2085 1.433 . S
C2078 H2074 0.929 . S
C2078 C2080 1.378 . S
C2078 C2082 1.350 . S
C2079 C2082 1.463 . S
C2079 C2084 1.350 . S
C2079 N2087 1.427 . S
C2080 H2071 0.930 . S
C2080 C2078 1.378 . S
C2080 C2081 1.367 . S
C2081 C2080 1.367 . S
C2081 C2083 1.433 . S
C2082 C2078 1.350 . S
C2082 C2079 1.463 . S
C2082 N2086 1.427 . S
C2083 H2073 0.929 . S
C2083 C2081 1.433 . S
C2083 N2086 1.384 . S
C2084 H2075 0.929 . S
C2084 C2076 1.378 . S
C2084 C2079 1.350 . S
C2085 H2072 0.929 . S
C2085 C2077 1.433 . S
C2085 N2087 1.384 . S
N2086 C2082 1.427 . S
N2086 C2083 1.384 . S
N2087 C2079 1.427 . S
N2087 C2085 1.384 . S
H2088 C2094 0.930 . S
H2089 C2098 0.930 . S
H2090 C2103 0.929 . S
H2091 C2101 0.929 . S
H2092 C2096 0.929 . S
H2093 C2102 0.929 . S
C2094 H2088 0.930 . S
C2094 C2095 1.367 . S
C2094 C2102 1.378 . S
C2095 C2094 1.367 . S
C2095 C2103 1.433 . S
C2096 H2092 0.929 . S
C2096 C2098 1.378 . S
C2096 C2100 1.350 . S
C2097 C2100 1.463 . S
C2097 C2102 1.350 . S
C2097 N2105 1.427 . S
C2098 H2089 0.930 . S
C2098 C2096 1.378 . S
C2098 C2099 1.367 . S
C2099 C2098 1.367 . S
C2099 C2101 1.433 . S
C2100 C2096 1.350 . S
C2100 C2097 1.463 . S
C2100 N2104 1.427 . S
C2101 H2091 0.929 . S
C2101 C2099 1.433 . S
C2101 N2104 1.384 . S
C2102 H2093 0.929 . S
C2102 C2094 1.378 . S
C2102 C2097 1.350 . S
C2103 H2090 0.929 . S
C2103 C2095 1.433 . S
C2103 N2105 1.384 . S
N2104 C2100 1.427 . S
N2104 C2101 1.384 . S
N2105 C2097 1.427 . S
N2105 C2103 1.384 . S
H2106 C2112 0.930 . S
H2107 C2116 0.930 . S
H2108 C2121 0.929 . S
H2109 C2119 0.929 . S
H2110 C2114 0.929 . S
H2111 C2120 0.929 . S
C2112 H2106 0.930 . S
C2112 C2113 1.367 . S
C2112 C2120 1.378 . S
C2113 C2112 1.367 . S
C2113 C2121 1.433 . S
C2114 H2110 0.929 . S
C2114 C2116 1.378 . S
C2114 C2118 1.350 . S
C2115 C2118 1.463 . S
C2115 C2120 1.350 . S
C2115 N2123 1.427 . S
C2116 H2107 0.930 . S
C2116 C2114 1.378 . S
C2116 C2117 1.367 . S
C2117 C2116 1.367 . S
C2117 C2119 1.433 . S
C2118 C2114 1.350 . S
C2118 C2115 1.463 . S
C2118 N2122 1.427 . S
C2119 H2109 0.929 . S
C2119 C2117 1.433 . S
C2119 N2122 1.384 . S
C2120 H2111 0.929 . S
C2120 C2112 1.378 . S
C2120 C2115 1.350 . S
C2121 H2108 0.929 . S
C2121 C2113 1.433 . S
C2121 N2123 1.384 . S
N2122 C2118 1.427 . S
N2122 C2119 1.384 . S
N2123 C2115 1.427 . S
N2123 C2121 1.384 . S
H2124 C2130 0.930 . S
H2125 C2134 0.930 . S
H2126 C2139 0.929 . S
H2127 C2137 0.929 . S
H2128 C2132 0.929 . S
H2129 C2138 0.929 . S
C2130 H2124 0.930 . S
C2130 C2131 1.367 . S
C2130 C2138 1.378 . S
C2131 C2130 1.367 . S
C2131 C2139 1.433 . S
C2132 H2128 0.929 . S
C2132 C2134 1.378 . S
C2132 C2136 1.350 . S
C2133 C2136 1.463 . S
C2133 C2138 1.350 . S
C2133 N2141 1.427 . S
C2134 H2125 0.930 . S
C2134 C2132 1.378 . S
C2134 C2135 1.367 . S
C2135 C2134 1.367 . S
C2135 C2137 1.433 . S
C2136 C2132 1.350 . S
C2136 C2133 1.463 . S
C2136 N2140 1.427 . S
C2137 H2127 0.929 . S
C2137 C2135 1.433 . S
C2137 N2140 1.384 . S
C2138 H2129 0.929 . S
C2138 C2130 1.378 . S
C2138 C2133 1.350 . S
C2139 H2126 0.929 . S
C2139 C2131 1.433 . S
C2139 N2141 1.384 . S
N2140 C2136 1.427 . S
N2140 C2137 1.384 . S
N2141 C2133 1.427 . S
N2141 C2139 1.384 . S
H2142 C2148 0.930 . S
H2143 C2152 0.930 . S
H2144 C2157 0.929 . S
H2145 C2155 0.929 . S
H2146 C2150 0.929 . S
H2147 C2156 0.929 . S
C2148 H2142 0.930 . S
C2148 C2149 1.367 . S
C2148 C2156 1.378 . S
C2149 C2148 1.367 . S
C2149 C2157 1.433 . S
C2150 H2146 0.929 . S
C2150 C2152 1.378 . S
C2150 C2154 1.350 . S
C2151 C2154 1.463 . S
C2151 C2156 1.350 . S
C2151 N2159 1.427 . S
C2152 H2143 0.930 . S
C2152 C2150 1.378 . S
C2152 C2153 1.367 . S
C2153 C2152 1.367 . S
C2153 C2155 1.433 . S
C2154 C2150 1.350 . S
C2154 C2151 1.463 . S
C2154 N2158 1.427 . S
C2155 H2145 0.929 . S
C2155 C2153 1.433 . S
C2155 N2158 1.384 . S
C2156 H2147 0.929 . S
C2156 C2148 1.378 . S
C2156 C2151 1.350 . S
C2157 H2144 0.929 . S
C2157 C2149 1.433 . S
C2157 N2159 1.384 . S
N2158 C2154 1.427 . S
N2158 C2155 1.384 . S
N2159 C2151 1.427 . S
N2159 C2157 1.384 . S
H2160 C2166 0.930 . S
H2161 C2170 0.930 . S
H2162 C2175 0.929 . S
H2163 C2173 0.929 . S
H2164 C2168 0.929 . S
H2165 C2174 0.929 . S
C2166 H2160 0.930 . S
C2166 C2167 1.367 . S
C2166 C2174 1.378 . S
C2167 C2166 1.367 . S
C2167 C2175 1.433 . S
C2168 H2164 0.929 . S
C2168 C2170 1.378 . S
C2168 C2172 1.350 . S
C2169 C2172 1.463 . S
C2169 C2174 1.350 . S
C2169 N2177 1.427 . S
C2170 H2161 0.930 . S
C2170 C2168 1.378 . S
C2170 C2171 1.367 . S
C2171 C2170 1.367 . S
C2171 C2173 1.433 . S
C2172 C2168 1.350 . S
C2172 C2169 1.463 . S
C2172 N2176 1.427 . S
C2173 H2163 0.929 . S
C2173 C2171 1.433 . S
C2173 N2176 1.384 . S
C2174 H2165 0.929 . S
C2174 C2166 1.378 . S
C2174 C2169 1.350 . S
C2175 H2162 0.929 . S
C2175 C2167 1.433 . S
C2175 N2177 1.384 . S
N2176 C2172 1.427 . S
N2176 C2173 1.384 . S
N2177 C2169 1.427 . S
N2177 C2175 1.384 . S
H2178 C2184 0.930 . S
H2179 C2188 0.930 . S
H2180 C2193 0.929 . S
H2181 C2191 0.929 . S
H2182 C2186 0.929 . S
H2183 C2192 0.929 . S
C2184 H2178 0.930 . S
C2184 C2185 1.367 . S
C2184 C2192 1.378 . S
C2185 C2184 1.367 . S
C2185 C2193 1.433 . S
C2186 H2182 0.929 . S
C2186 C2188 1.378 . S
C2186 C2190 1.350 . S
C2187 C2190 1.463 . S
C2187 C2192 1.350 . S
C2187 N2195 1.427 . S
C2188 H2179 0.930 . S
C2188 C2186 1.378 . S
C2188 C2189 1.367 . S
C2189 C2188 1.367 . S
C2189 C2191 1.433 . S
C2190 C2186 1.350 . S
C2190 C2187 1.463 . S
C2190 N2194 1.427 . S
C2191 H2181 0.929 . S
C2191 C2189 1.433 . S
C2191 N2194 1.384 . S
C2192 H2183 0.929 . S
C2192 C2184 1.378 . S
C2192 C2187 1.350 . S
C2193 H2180 0.929 . S
C2193 C2185 1.433 . S
C2193 N2195 1.384 . S
N2194 C2190 1.427 . S
N2194 C2191 1.384 . S
N2195 C2187 1.427 . S
N2195 C2193 1.384 . S
H2196 C2202 0.930 . S
H2197 C2206 0.930 . S
H2198 C2211 0.929 . S
H2199 C2209 0.901 1_554 S
H2200 C2204 0.929 . S
H2201 C2210 0.929 . S
C2202 H2196 0.930 . S
C2202 C2203 1.367 . S
C2202 C2210 1.378 . S
C2203 C2202 1.367 . S
C2203 C2211 1.433 . S
C2204 H2200 0.929 . S
C2204 C2206 1.378 . S
C2204 C2208 1.350 . S
C2205 C2208 1.463 . S
C2205 C2210 1.350 . S
C2205 N2213 1.427 . S
C2206 H2197 0.930 . S
C2206 C2204 1.378 . S
C2206 C2207 1.367 . S
C2207 C2206 1.367 . S
C2207 C2209 1.433 . S
C2208 C2204 1.350 . S
C2208 C2205 1.463 . S
C2208 N2212 1.427 . S
C2209 H2199 0.901 1_556 S
C2209 C2207 1.433 . S
C2209 N2212 1.384 . S
C2210 H2201 0.929 . S
C2210 C2202 1.378 . S
C2210 C2205 1.350 . S
C2211 H2198 0.929 . S
C2211 C2203 1.433 . S
C2211 N2213 1.384 . S
N2212 C2208 1.427 . S
N2212 C2209 1.384 . S
N2213 C2205 1.427 . S
N2213 C2211 1.384 . S
H2214 C2220 0.930 . S
H2215 C2224 0.930 . S
H2216 C2229 0.929 . S
H2217 C2227 0.929 . S
H2218 C2222 0.929 . S
H2219 C2228 0.929 . S
C2220 H2214 0.930 . S
C2220 C2221 1.367 . S
C2220 C2228 1.378 . S
C2221 C2220 1.367 . S
C2221 C2229 1.433 . S
C2222 H2218 0.929 . S
C2222 C2224 1.378 . S
C2222 C2226 1.350 . S
C2223 C2226 1.463 . S
C2223 C2228 1.350 . S
C2223 N2231 1.427 . S
C2224 H2215 0.930 . S
C2224 C2222 1.378 . S
C2224 C2225 1.367 . S
C2225 C2224 1.367 . S
C2225 C2227 1.433 . S
C2226 C2222 1.350 . S
C2226 C2223 1.463 . S
C2226 N2230 1.427 . S
C2227 H2217 0.929 . S
C2227 C2225 1.433 . S
C2227 N2230 1.384 . S
C2228 H2219 0.929 . S
C2228 C2220 1.378 . S
C2228 C2223 1.350 . S
C2229 H2216 0.929 . S
C2229 C2221 1.433 . S
C2229 N2231 1.384 . S
N2230 C2226 1.427 . S
N2230 C2227 1.384 . S
N2231 C2223 1.427 . S
N2231 C2229 1.384 . S
H2232 C2238 0.930 . S
H2233 C2242 0.930 . S
H2234 C2247 0.929 . S
H2235 C2245 0.929 . S
H2236 C2240 0.929 . S
H2237 C2246 0.929 . S
C2238 H2232 0.930 . S
C2238 C2239 1.367 . S
C2238 C2246 1.378 . S
C2239 C2238 1.367 . S
C2239 C2247 1.433 . S
C2240 H2236 0.929 . S
C2240 C2242 1.378 . S
C2240 C2244 1.350 . S
C2241 C2244 1.463 . S
C2241 C2246 1.350 . S
C2241 N2249 1.427 . S
C2242 H2233 0.930 . S
C2242 C2240 1.378 . S
C2242 C2243 1.367 . S
C2243 C2242 1.367 . S
C2243 C2245 1.433 . S
C2244 C2240 1.350 . S
C2244 C2241 1.463 . S
C2244 N2248 1.427 . S
C2245 H2235 0.929 . S
C2245 C2243 1.433 . S
C2245 N2248 1.384 . S
C2246 H2237 0.929 . S
C2246 C2238 1.378 . S
C2246 C2241 1.350 . S
C2247 H2234 0.929 . S
C2247 C2239 1.433 . S
C2247 N2249 1.384 . S
N2248 C2244 1.427 . S
N2248 C2245 1.384 . S
N2249 C2241 1.427 . S
N2249 C2247 1.384 . S
H2250 C2256 0.930 . S
H2251 C2260 0.930 . S
H2252 C2265 0.929 . S
H2253 C2263 0.929 . S
H2254 C2258 0.929 . S
H2255 C2264 0.929 . S
C2256 H2250 0.930 . S
C2256 C2257 1.367 . S
C2256 C2264 1.378 . S
C2257 C2256 1.367 . S
C2257 C2265 1.433 . S
C2258 H2254 0.929 . S
C2258 C2260 1.378 . S
C2258 C2262 1.350 . S
C2259 C2262 1.463 . S
C2259 C2264 1.350 . S
C2259 N2267 1.427 . S
C2260 H2251 0.930 . S
C2260 C2258 1.378 . S
C2260 C2261 1.367 . S
C2261 C2260 1.367 . S
C2261 C2263 1.433 . S
C2262 C2258 1.350 . S
C2262 C2259 1.463 . S
C2262 N2266 1.427 . S
C2263 H2253 0.929 . S
C2263 C2261 1.433 . S
C2263 N2266 1.384 . S
C2264 H2255 0.929 . S
C2264 C2256 1.378 . S
C2264 C2259 1.350 . S
C2265 H2252 0.929 . S
C2265 C2257 1.433 . S
C2265 N2267 1.384 . S
N2266 C2262 1.427 . S
N2266 C2263 1.384 . S
N2267 C2259 1.427 . S
N2267 C2265 1.384 . S
H2268 C2274 0.930 . S
H2269 C2278 0.930 1_565 S
H2270 C2283 0.929 . S
H2271 C2281 0.929 . S
H2272 C2276 0.929 1_565 S
H2273 C2282 0.929 . S
C2274 H2268 0.930 . S
C2274 C2275 1.367 . S
C2274 C2282 1.378 . S
C2275 C2274 1.367 . S
C2275 C2283 1.433 1_545 S
C2276 H2272 0.929 1_545 S
C2276 C2278 1.378 . S
C2276 C2280 1.350 . S
C2277 C2280 1.463 . S
C2277 C2282 1.350 . S
C2277 N2285 1.427 1_545 S
C2278 H2269 0.930 1_545 S
C2278 C2276 1.378 . S
C2278 C2279 1.367 . S
C2279 C2278 1.367 . S
C2279 C2281 1.433 . S
C2280 C2276 1.350 . S
C2280 C2277 1.463 . S
C2280 N2284 1.427 . S
C2281 H2271 0.929 . S
C2281 C2279 1.433 . S
C2281 N2284 1.384 . S
C2282 H2273 0.929 . S
C2282 C2274 1.378 . S
C2282 C2277 1.350 . S
C2283 H2270 0.929 . S
C2283 C2275 1.433 1_565 S
C2283 N2285 1.384 . S
N2284 C2280 1.427 . S
N2284 C2281 1.384 . S
N2285 C2277 1.427 1_565 S
N2285 C2283 1.384 . S
H2286 C2292 0.930 . S
H2287 C2296 0.930 . S
H2288 C2301 0.929 . S
H2289 C2299 0.929 . S
H2290 C2294 0.929 . S
H2291 C2300 0.929 . S
C2292 H2286 0.930 . S
C2292 C2293 1.367 . S
C2292 C2300 1.378 . S
C2293 C2292 1.367 . S
C2293 C2301 1.433 . S
C2294 H2290 0.929 . S
C2294 C2296 1.378 . S
C2294 C2298 1.350 . S
C2295 C2298 1.463 . S
C2295 C2300 1.350 . S
C2295 N2303 1.427 . S
C2296 H2287 0.930 . S
C2296 C2294 1.378 . S
C2296 C2297 1.367 . S
C2297 C2296 1.367 . S
C2297 C2299 1.433 . S
C2298 C2294 1.350 . S
C2298 C2295 1.463 . S
C2298 N2302 1.427 . S
C2299 H2289 0.929 . S
C2299 C2297 1.433 . S
C2299 N2302 1.384 . S
C2300 H2291 0.929 . S
C2300 C2292 1.378 . S
C2300 C2295 1.350 . S
C2301 H2288 0.929 . S
C2301 C2293 1.433 . S
C2301 N2303 1.384 . S
N2302 C2298 1.427 . S
N2302 C2299 1.384 . S
N2303 C2295 1.427 . S
N2303 C2301 1.384 . S
H2304 C2310 0.930 . S
H2305 C2314 0.930 . S
H2306 C2319 0.929 . S
H2307 C2317 0.925 1_565 S
H2308 C2312 0.929 . S
H2309 C2318 0.929 . S
C2310 H2304 0.930 . S
C2310 C2311 1.367 . S
C2310 C2318 1.378 . S
C2311 C2310 1.367 . S
C2311 C2319 1.433 . S
C2312 H2308 0.929 . S
C2312 C2314 1.378 . S
C2312 C2316 1.350 . S
C2313 C2316 1.463 . S
C2313 C2318 1.350 . S
C2313 N2321 1.427 . S
C2314 H2305 0.930 . S
C2314 C2312 1.378 . S
C2314 C2315 1.367 . S
C2315 C2314 1.367 . S
C2315 C2317 1.433 . S
C2316 C2312 1.350 . S
C2316 C2313 1.463 . S
C2316 N2320 1.427 . S
C2317 H2307 0.925 1_545 S
C2317 C2315 1.433 . S
C2317 N2320 1.384 . S
C2318 H2309 0.929 . S
C2318 C2310 1.378 . S
C2318 C2313 1.350 . S
C2319 H2306 0.929 . S
C2319 C2311 1.433 . S
C2319 N2321 1.384 . S
N2320 C2316 1.427 . S
N2320 C2317 1.384 . S
N2321 C2313 1.427 . S
N2321 C2319 1.384 . S
H2322 C2328 0.930 . S
H2323 C2332 0.930 . S
H2324 C2337 0.929 . S
H2325 C2335 0.929 . S
H2326 C2330 0.929 . S
H2327 C2336 0.929 . S
C2328 H2322 0.930 . S
C2328 C2329 1.367 . S
C2328 C2336 1.378 . S
C2329 C2328 1.367 . S
C2329 C2337 1.433 . S
C2330 H2326 0.929 . S
C2330 C2332 1.378 . S
C2330 C2334 1.350 . S
C2331 C2334 1.463 . S
C2331 C2336 1.350 . S
C2331 N2339 1.427 . S
C2332 H2323 0.930 . S
C2332 C2330 1.378 . S
C2332 C2333 1.367 . S
C2333 C2332 1.367 . S
C2333 C2335 1.433 . S
C2334 C2330 1.350 . S
C2334 C2331 1.463 . S
C2334 N2338 1.427 . S
C2335 H2325 0.929 . S
C2335 C2333 1.433 . S
C2335 N2338 1.384 . S
C2336 H2327 0.929 . S
C2336 C2328 1.378 . S
C2336 C2331 1.350 . S
C2337 H2324 0.929 . S
C2337 C2329 1.433 . S
C2337 N2339 1.384 . S
N2338 C2334 1.427 . S
N2338 C2335 1.384 . S
N2339 C2331 1.427 . S
N2339 C2337 1.384 . S
H2340 C2346 0.930 . S
H2341 C2350 0.930 . S
H2342 C2355 0.929 . S
H2343 C2353 0.929 . S
H2344 C2348 0.929 . S
H2345 C2354 0.929 . S
C2346 H2340 0.930 . S
C2346 C2347 1.367 . S
C2346 C2354 1.378 . S
C2347 C2346 1.367 . S
C2347 C2355 1.433 . S
C2348 H2344 0.929 . S
C2348 C2350 1.378 . S
C2348 C2352 1.350 . S
C2349 C2352 1.463 . S
C2349 C2354 1.350 . S
C2349 N2357 1.427 . S
C2350 H2341 0.930 . S
C2350 C2348 1.378 . S
C2350 C2351 1.367 . S
C2351 C2350 1.367 . S
C2351 C2353 1.433 . S
C2352 C2348 1.350 . S
C2352 C2349 1.463 . S
C2352 N2356 1.427 . S
C2353 H2343 0.929 . S
C2353 C2351 1.433 . S
C2353 N2356 1.384 . S
C2354 H2345 0.929 . S
C2354 C2346 1.378 . S
C2354 C2349 1.350 . S
C2355 H2342 0.929 . S
C2355 C2347 1.433 . S
C2355 N2357 1.384 . S
N2356 C2352 1.427 . S
N2356 C2353 1.384 . S
N2357 C2349 1.427 . S
N2357 C2355 1.384 . S
H2358 C2364 0.930 . S
H2359 C2368 0.930 . S
H2360 C2373 0.929 . S
H2361 C2371 0.929 . S
H2362 C2366 0.929 . S
H2363 C2372 0.929 . S
C2364 H2358 0.930 . S
C2364 C2365 1.367 . S
C2364 C2372 1.378 . S
C2365 C2364 1.367 . S
C2365 C2373 1.433 . S
C2366 H2362 0.929 . S
C2366 C2368 1.378 . S
C2366 C2370 1.350 . S
C2367 C2370 1.463 . S
C2367 C2372 1.350 . S
C2367 N2375 1.427 . S
C2368 H2359 0.930 . S
C2368 C2366 1.378 . S
C2368 C2369 1.367 . S
C2369 C2368 1.367 . S
C2369 C2371 1.433 . S
C2370 C2366 1.350 . S
C2370 C2367 1.463 . S
C2370 N2374 1.427 . S
C2371 H2361 0.929 . S
C2371 C2369 1.433 . S
C2371 N2374 1.384 . S
C2372 H2363 0.929 . S
C2372 C2364 1.378 . S
C2372 C2367 1.350 . S
C2373 H2360 0.929 . S
C2373 C2365 1.433 . S
C2373 N2375 1.384 . S
N2374 C2370 1.427 . S
N2374 C2371 1.384 . S
N2375 C2367 1.427 . S
N2375 C2373 1.384 . S
H2376 C2382 0.930 . S
H2377 C2386 0.930 . S
H2378 C2391 0.929 . S
H2379 C2389 0.929 . S
H2380 C2384 0.929 . S
H2381 C2390 0.929 . S
C2382 H2376 0.930 . S
C2382 C2383 1.367 . S
C2382 C2390 1.378 . S
C2383 C2382 1.367 . S
C2383 C2391 1.433 . S
C2384 H2380 0.929 . S
C2384 C2386 1.378 . S
C2384 C2388 1.350 . S
C2385 C2388 1.463 . S
C2385 C2390 1.350 . S
C2385 N2393 1.427 . S
C2386 H2377 0.930 . S
C2386 C2384 1.378 . S
C2386 C2387 1.367 . S
C2387 C2386 1.367 . S
C2387 C2389 1.433 . S
C2388 C2384 1.350 . S
C2388 C2385 1.463 . S
C2388 N2392 1.427 . S
C2389 H2379 0.929 . S
C2389 C2387 1.433 . S
C2389 N2392 1.384 . S
C2390 H2381 0.929 . S
C2390 C2382 1.378 . S
C2390 C2385 1.350 . S
C2391 H2378 0.929 . S
C2391 C2383 1.433 . S
C2391 N2393 1.384 . S
N2392 C2388 1.427 . S
N2392 C2389 1.384 . S
N2393 C2385 1.427 . S
N2393 C2391 1.384 . S
H2394 C2400 0.930 . S
H2395 C2404 0.930 . S
H2396 C2409 0.929 . S
H2397 C2407 0.929 . S
H2398 C2402 0.929 . S
H2399 C2408 0.929 . S
C2400 H2394 0.930 . S
C2400 C2401 1.367 . S
C2400 C2408 1.378 . S
C2401 C2400 1.367 . S
C2401 C2409 1.433 . S
C2402 H2398 0.929 . S
C2402 C2404 1.378 . S
C2402 C2406 1.350 . S
C2403 C2406 1.463 . S
C2403 C2408 1.350 . S
C2403 N2411 1.427 . S
C2404 H2395 0.930 . S
C2404 C2402 1.378 . S
C2404 C2405 1.367 . S
C2405 C2404 1.367 . S
C2405 C2407 1.433 . S
C2406 C2402 1.350 . S
C2406 C2403 1.463 . S
C2406 N2410 1.427 . S
C2407 H2397 0.929 . S
C2407 C2405 1.433 . S
C2407 N2410 1.384 . S
C2408 H2399 0.929 . S
C2408 C2400 1.378 . S
C2408 C2403 1.350 . S
C2409 H2396 0.929 . S
C2409 C2401 1.433 . S
C2409 N2411 1.384 . S
N2410 C2406 1.427 . S
N2410 C2407 1.384 . S
N2411 C2403 1.427 . S
N2411 C2409 1.384 . S
H2412 C2418 0.930 . S
H2413 C2422 0.930 . S
H2414 C2427 0.929 . S
H2415 C2425 0.929 . S
H2416 C2420 0.929 . S
H2417 C2426 0.929 . S
C2418 H2412 0.930 . S
C2418 C2419 1.367 . S
C2418 C2426 1.378 . S
C2419 C2418 1.367 . S
C2419 C2427 1.433 . S
C2420 H2416 0.929 . S
C2420 C2422 1.378 . S
C2420 C2424 1.350 . S
C2421 C2424 1.463 . S
C2421 C2426 1.350 . S
C2421 N2429 1.427 . S
C2422 H2413 0.930 . S
C2422 C2420 1.378 . S
C2422 C2423 1.367 . S
C2423 C2422 1.367 . S
C2423 C2425 1.433 . S
C2424 C2420 1.350 . S
C2424 C2421 1.463 . S
C2424 N2428 1.427 . S
C2425 H2415 0.929 . S
C2425 C2423 1.433 . S
C2425 N2428 1.384 . S
C2426 H2417 0.929 . S
C2426 C2418 1.378 . S
C2426 C2421 1.350 . S
C2427 H2414 0.929 . S
C2427 C2419 1.433 . S
C2427 N2429 1.384 . S
N2428 C2424 1.427 . S
N2428 C2425 1.384 . S
N2429 C2421 1.427 . S
N2429 C2427 1.384 . S
H2430 C2436 0.930 . S
H2431 C2440 0.930 . S
H2432 C2445 0.929 . S
H2433 C2443 0.929 . S
H2434 C2438 0.929 . S
H2435 C2444 0.929 . S
C2436 H2430 0.930 . S
C2436 C2437 1.367 . S
C2436 C2444 1.378 . S
C2437 C2436 1.367 . S
C2437 C2445 1.433 . S
C2438 H2434 0.929 . S
C2438 C2440 1.378 . S
C2438 C2442 1.350 . S
C2439 C2442 1.463 . S
C2439 C2444 1.350 . S
C2439 N2447 1.427 . S
C2440 H2431 0.930 . S
C2440 C2438 1.378 . S
C2440 C2441 1.367 . S
C2441 C2440 1.367 . S
C2441 C2443 1.433 . S
C2442 C2438 1.350 . S
C2442 C2439 1.463 . S
C2442 N2446 1.427 . S
C2443 H2433 0.929 . S
C2443 C2441 1.433 . S
C2443 N2446 1.384 . S
C2444 H2435 0.929 . S
C2444 C2436 1.378 . S
C2444 C2439 1.350 . S
C2445 H2432 0.929 . S
C2445 C2437 1.433 . S
C2445 N2447 1.384 . S
N2446 C2442 1.427 . S
N2446 C2443 1.384 . S
N2447 C2439 1.427 . S
N2447 C2445 1.384 . S
H2448 C2454 0.930 . S
H2449 C2458 0.930 . S
H2450 C2463 0.929 1_545 S
H2451 C2461 0.929 . S
H2452 C2456 0.929 . S
H2453 C2462 0.929 . S
C2454 H2448 0.930 . S
C2454 C2455 1.367 1_565 S
C2454 C2462 1.378 . S
C2455 C2454 1.367 1_545 S
C2455 C2463 1.433 1_545 S
C2456 H2452 0.929 . S
C2456 C2458 1.378 . S
C2456 C2460 1.350 . S
C2457 C2460 1.463 . S
C2457 C2462 1.350 . S
C2457 N2465 1.427 . S
C2458 H2449 0.930 . S
C2458 C2456 1.378 . S
C2458 C2459 1.367 . S
C2459 C2458 1.367 . S
C2459 C2461 1.433 . S
C2460 C2456 1.350 . S
C2460 C2457 1.463 . S
C2460 N2464 1.427 . S
C2461 H2451 0.929 . S
C2461 C2459 1.433 . S
C2461 N2464 1.384 . S
C2462 H2453 0.929 . S
C2462 C2454 1.378 . S
C2462 C2457 1.350 . S
C2463 H2450 0.929 1_565 S
C2463 C2455 1.433 1_565 S
C2463 N2465 1.384 . S
N2464 C2460 1.427 . S
N2464 C2461 1.384 . S
N2465 C2457 1.427 . S
N2465 C2463 1.384 . S
H2466 C2472 0.930 . S
H2467 C2476 0.930 . S
H2468 C2481 0.929 . S
H2469 C2479 0.929 . S
H2470 C2474 0.929 . S
H2471 C2480 0.929 . S
C2472 H2466 0.930 . S
C2472 C2473 1.367 . S
C2472 C2480 1.378 . S
C2473 C2472 1.367 . S
C2473 C2481 1.433 . S
C2474 H2470 0.929 . S
C2474 C2476 1.378 . S
C2474 C2478 1.350 . S
C2475 C2478 1.463 . S
C2475 C2480 1.350 . S
C2475 N2483 1.427 . S
C2476 H2467 0.930 . S
C2476 C2474 1.378 . S
C2476 C2477 1.367 . S
C2477 C2476 1.367 . S
C2477 C2479 1.433 . S
C2478 C2474 1.350 . S
C2478 C2475 1.463 . S
C2478 N2482 1.427 . S
C2479 H2469 0.929 . S
C2479 C2477 1.433 . S
C2479 N2482 1.384 . S
C2480 H2471 0.929 . S
C2480 C2472 1.378 . S
C2480 C2475 1.350 . S
C2481 H2468 0.929 . S
C2481 C2473 1.433 . S
C2481 N2483 1.384 . S
N2482 C2478 1.427 . S
N2482 C2479 1.384 . S
N2483 C2475 1.427 . S
N2483 C2481 1.384 . S
H2484 C2490 0.930 . S
H2485 C2494 0.930 . S
H2486 C2499 0.929 . S
H2487 C2497 0.929 . S
H2488 C2492 0.929 . S
H2489 C2498 0.929 . S
C2490 H2484 0.930 . S
C2490 C2491 1.367 . S
C2490 C2498 1.378 . S
C2491 C2490 1.367 . S
C2491 C2499 1.433 . S
C2492 H2488 0.929 . S
C2492 C2494 1.378 . S
C2492 C2496 1.350 . S
C2493 C2496 1.463 . S
C2493 C2498 1.350 . S
C2493 N2501 1.427 . S
C2494 H2485 0.930 . S
C2494 C2492 1.378 . S
C2494 C2495 1.367 . S
C2495 C2494 1.367 . S
C2495 C2497 1.433 . S
C2496 C2492 1.350 . S
C2496 C2493 1.463 . S
C2496 N2500 1.427 . S
C2497 H2487 0.929 . S
C2497 C2495 1.433 . S
C2497 N2500 1.384 . S
C2498 H2489 0.929 . S
C2498 C2490 1.378 . S
C2498 C2493 1.350 . S
C2499 H2486 0.929 . S
C2499 C2491 1.433 . S
C2499 N2501 1.384 . S
N2500 C2496 1.427 . S
N2500 C2497 1.384 . S
N2501 C2493 1.427 . S
N2501 C2499 1.384 . S
H2502 C2508 0.930 . S
H2503 C2512 0.930 . S
H2504 C2517 0.929 . S
H2505 C2515 0.929 . S
H2506 C2510 0.929 . S
H2507 C2516 0.929 . S
C2508 H2502 0.930 . S
C2508 C2509 1.367 . S
C2508 C2516 1.378 . S
C2509 C2508 1.367 . S
C2509 C2517 1.433 . S
C2510 H2506 0.929 . S
C2510 C2512 1.378 . S
C2510 C2514 1.350 . S
C2511 C2514 1.463 . S
C2511 C2516 1.350 . S
C2511 N2519 1.427 . S
C2512 H2503 0.930 . S
C2512 C2510 1.378 . S
C2512 C2513 1.367 . S
C2513 C2512 1.367 . S
C2513 C2515 1.433 . S
C2514 C2510 1.350 . S
C2514 C2511 1.463 . S
C2514 N2518 1.427 . S
C2515 H2505 0.929 . S
C2515 C2513 1.433 . S
C2515 N2518 1.384 . S
C2516 H2507 0.929 . S
C2516 C2508 1.378 . S
C2516 C2511 1.350 . S
C2517 H2504 0.929 . S
C2517 C2509 1.433 . S
C2517 N2519 1.384 . S
N2518 C2514 1.427 . S
N2518 C2515 1.384 . S
N2519 C2511 1.427 . S
N2519 C2517 1.384 . S
H2520 C2526 0.930 . S
H2521 C2530 0.930 . S
H2522 C2535 0.929 . S
H2523 C2533 0.929 . S
H2524 C2528 0.929 . S
H2525 C2534 0.929 . S
C2526 H2520 0.930 . S
C2526 C2527 1.367 . S
C2526 C2534 1.378 . S
C2527 C2526 1.367 . S
C2527 C2535 1.433 . S
C2528 H2524 0.929 . S
C2528 C2530 1.378 . S
C2528 C2532 1.350 . S
C2529 C2532 1.463 . S
C2529 C2534 1.350 . S
C2529 N2537 1.427 . S
C2530 H2521 0.930 . S
C2530 C2528 1.378 . S
C2530 C2531 1.367 . S
C2531 C2530 1.367 . S
C2531 C2533 1.433 . S
C2532 C2528 1.350 . S
C2532 C2529 1.463 . S
C2532 N2536 1.427 . S
C2533 H2523 0.929 . S
C2533 C2531 1.433 . S
C2533 N2536 1.384 . S
C2534 H2525 0.929 . S
C2534 C2526 1.378 . S
C2534 C2529 1.350 . S
C2535 H2522 0.929 . S
C2535 C2527 1.433 . S
C2535 N2537 1.384 . S
N2536 C2532 1.427 . S
N2536 C2533 1.384 . S
N2537 C2529 1.427 . S
N2537 C2535 1.384 . S
H2538 C2544 0.930 . S
H2539 C2548 0.930 . S
H2540 C2553 0.929 . S
H2541 C2551 0.929 . S
H2542 C2546 0.929 . S
H2543 C2552 0.929 . S
C2544 H2538 0.930 . S
C2544 C2545 1.367 . S
C2544 C2552 1.378 . S
C2545 C2544 1.367 . S
C2545 C2553 1.433 . S
C2546 H2542 0.929 . S
C2546 C2548 1.378 . S
C2546 C2550 1.350 . S
C2547 C2550 1.463 . S
C2547 C2552 1.350 . S
C2547 N2555 1.427 . S
C2548 H2539 0.930 . S
C2548 C2546 1.378 . S
C2548 C2549 1.367 . S
C2549 C2548 1.367 . S
C2549 C2551 1.433 . S
C2550 C2546 1.350 . S
C2550 C2547 1.463 . S
C2550 N2554 1.427 . S
C2551 H2541 0.929 . S
C2551 C2549 1.433 . S
C2551 N2554 1.384 . S
C2552 H2543 0.929 . S
C2552 C2544 1.378 . S
C2552 C2547 1.350 . S
C2553 H2540 0.929 . S
C2553 C2545 1.433 . S
C2553 N2555 1.384 . S
N2554 C2550 1.427 . S
N2554 C2551 1.384 . S
N2555 C2547 1.427 . S
N2555 C2553 1.384 . S
H2556 C2562 0.930 . S
H2557 C2566 0.930 . S
H2558 C2571 0.929 . S
H2559 C2569 0.929 1_656 S
H2560 C2564 0.929 . S
H2561 C2570 0.929 . S
C2562 H2556 0.930 . S
C2562 C2563 1.367 1_655 S
C2562 C2570 1.378 . S
C2563 C2562 1.367 1_455 S
C2563 C2571 1.433 1_556 S
C2564 H2560 0.929 . S
C2564 C2566 1.378 . S
C2564 C2568 1.350 . S
C2565 C2568 1.463 1_556 S
C2565 C2570 1.350 1_455 S
C2565 N2573 1.427 1_556 S
C2566 H2557 0.930 . S
C2566 C2564 1.378 . S
C2566 C2567 1.367 . S
C2567 C2566 1.367 . S
C2567 C2569 1.433 . S
C2568 C2564 1.350 . S
C2568 C2565 1.463 1_554 S
C2568 N2572 1.406 1_454 S
C2569 H2559 0.929 1_454 S
C2569 C2567 1.433 . S
C2569 N2572 1.391 1_454 S
C2570 H2561 0.929 . S
C2570 C2562 1.378 . S
C2570 C2565 1.350 1_655 S
C2571 H2558 0.929 . S
C2571 C2563 1.433 1_554 S
C2571 N2573 1.384 . S
N2572 C2568 1.406 1_656 S
N2572 C2569 1.391 1_656 S
N2573 C2565 1.427 1_554 S
N2573 C2571 1.384 . S
H2574 C2580 0.945 . S
H2575 C2584 0.930 . S
H2576 C2589 0.929 . S
H2577 C2587 0.929 . S
H2578 C2582 0.929 . S
H2579 C2588 0.929 . S
C2580 H2574 0.945 . S
C2580 C2581 1.375 . S
C2580 C2588 1.378 . S
C2581 C2580 1.375 . S
C2581 C2589 1.464 . S
C2582 H2578 0.929 . S
C2582 C2584 1.378 . S
C2582 C2586 1.350 . S
C2583 C2586 1.463 . S
C2583 C2588 1.350 . S
C2583 N2591 1.427 . S
C2584 H2575 0.930 . S
C2584 C2582 1.378 . S
C2584 C2585 1.367 . S
C2585 C2584 1.367 . S
C2585 C2587 1.433 . S
C2586 C2582 1.350 . S
C2586 C2583 1.463 . S
C2586 N2590 1.427 . S
C2587 H2577 0.929 . S
C2587 C2585 1.433 . S
C2587 N2590 1.384 . S
C2588 H2579 0.929 . S
C2588 C2580 1.378 . S
C2588 C2583 1.350 . S
C2589 H2576 0.929 . S
C2589 C2581 1.464 . S
C2589 N2591 1.384 . S
N2590 C2586 1.427 . S
N2590 C2587 1.384 . S
N2591 C2583 1.427 . S
N2591 C2589 1.384 . S
H2592 C2598 0.930 . S
H2593 C2602 0.930 . S
H2594 C2607 0.929 . S
H2595 C2605 0.929 . S
H2596 C2600 0.929 . S
H2597 C2606 0.929 . S
C2598 H2592 0.930 . S
C2598 C2599 1.367 . S
C2598 C2606 1.378 . S
C2599 C2598 1.367 . S
C2599 C2607 1.433 . S
C2600 H2596 0.929 . S
C2600 C2602 1.378 . S
C2600 C2604 1.350 . S
C2601 C2604 1.463 . S
C2601 C2606 1.350 . S
C2601 N2609 1.427 . S
C2602 H2593 0.930 . S
C2602 C2600 1.378 . S
C2602 C2603 1.367 . S
C2603 C2602 1.367 . S
C2603 C2605 1.433 . S
C2604 C2600 1.350 . S
C2604 C2601 1.463 . S
C2604 N2608 1.427 . S
C2605 H2595 0.929 . S
C2605 C2603 1.433 . S
C2605 N2608 1.384 . S
C2606 H2597 0.929 . S
C2606 C2598 1.378 . S
C2606 C2601 1.350 . S
C2607 H2594 0.929 . S
C2607 C2599 1.433 . S
C2607 N2609 1.384 . S
N2608 C2604 1.427 . S
N2608 C2605 1.384 . S
N2609 C2601 1.427 . S
N2609 C2607 1.384 . S
H2610 C2616 0.930 . S
H2611 C2620 0.930 . S
H2612 C2625 0.929 . S
H2613 C2623 0.929 . S
H2614 C2618 0.929 . S
H2615 C2624 0.929 . S
C2616 H2610 0.930 . S
C2616 C2617 1.367 . S
C2616 C2624 1.378 . S
C2617 C2616 1.367 . S
C2617 C2625 1.433 . S
C2618 H2614 0.929 . S
C2618 C2620 1.378 . S
C2618 C2622 1.350 . S
C2619 C2622 1.463 . S
C2619 C2624 1.350 . S
C2619 N2627 1.427 . S
C2620 H2611 0.930 . S
C2620 C2618 1.378 . S
C2620 C2621 1.367 . S
C2621 C2620 1.367 . S
C2621 C2623 1.433 . S
C2622 C2618 1.350 . S
C2622 C2619 1.463 . S
C2622 N2626 1.427 . S
C2623 H2613 0.929 . S
C2623 C2621 1.433 . S
C2623 N2626 1.384 . S
C2624 H2615 0.929 . S
C2624 C2616 1.378 . S
C2624 C2619 1.350 . S
C2625 H2612 0.929 . S
C2625 C2617 1.433 . S
C2625 N2627 1.384 . S
N2626 C2622 1.427 . S
N2626 C2623 1.384 . S
N2627 C2619 1.427 . S
N2627 C2625 1.384 . S
H2628 C2634 0.930 . S
H2629 C2638 0.930 . S
H2630 C2643 0.929 . S
H2631 C2641 0.929 . S
H2632 C2636 0.929 . S
H2633 C2642 0.929 . S
C2634 H2628 0.930 . S
C2634 C2635 1.367 1_655 S
C2634 C2642 1.378 . S
C2635 C2634 1.367 1_455 S
C2635 C2643 1.433 . S
C2636 H2632 0.929 . S
C2636 C2638 1.378 . S
C2636 C2640 1.350 . S
C2637 C2640 1.463 . S
C2637 C2642 1.350 1_455 S
C2637 N2645 1.427 . S
C2638 H2629 0.930 . S
C2638 C2636 1.378 . S
C2638 C2639 1.367 . S
C2639 C2638 1.367 . S
C2639 C2641 1.433 1_455 S
C2640 C2636 1.350 . S
C2640 C2637 1.463 . S
C2640 N2644 1.427 1_455 S
C2641 H2631 0.929 . S
C2641 C2639 1.433 1_655 S
C2641 N2644 1.384 . S
C2642 H2633 0.929 . S
C2642 C2634 1.378 . S
C2642 C2637 1.350 1_655 S
C2643 H2630 0.929 . S
C2643 C2635 1.433 . S
C2643 N2645 1.384 . S
N2644 C2640 1.427 1_655 S
N2644 C2641 1.384 . S
N2645 C2637 1.427 . S
N2645 C2643 1.384 . S
H2646 C2652 0.930 . S
H2647 C2656 0.930 . S
H2648 C2661 0.929 . S
H2649 C2659 0.929 . S
H2650 C2654 0.929 . S
H2651 C2660 0.929 . S
C2652 H2646 0.930 . S
C2652 C2653 1.367 . S
C2652 C2660 1.378 . S
C2653 C2652 1.367 . S
C2653 C2661 1.433 . S
C2654 H2650 0.929 . S
C2654 C2656 1.378 . S
C2654 C2658 1.350 . S
C2655 C2658 1.463 . S
C2655 C2660 1.350 . S
C2655 N2663 1.427 . S
C2656 H2647 0.930 . S
C2656 C2654 1.378 . S
C2656 C2657 1.367 . S
C2657 C2656 1.367 . S
C2657 C2659 1.433 . S
C2658 C2654 1.350 . S
C2658 C2655 1.463 . S
C2658 N2662 1.427 . S
C2659 H2649 0.929 . S
C2659 C2657 1.433 . S
C2659 N2662 1.384 . S
C2660 H2651 0.929 . S
C2660 C2652 1.378 . S
C2660 C2655 1.350 . S
C2661 H2648 0.929 . S
C2661 C2653 1.433 . S
C2661 N2663 1.384 . S
N2662 C2658 1.427 . S
N2662 C2659 1.384 . S
N2663 C2655 1.427 . S
N2663 C2661 1.384 . S
H2664 C2670 0.930 . S
H2665 C2674 0.930 . S
H2666 C2679 0.929 . S
H2667 C2677 0.929 . S
H2668 C2672 0.929 . S
H2669 C2678 0.929 . S
C2670 H2664 0.930 . S
C2670 C2671 1.367 . S
C2670 C2678 1.378 . S
C2671 C2670 1.367 . S
C2671 C2679 1.433 . S
C2672 H2668 0.929 . S
C2672 C2674 1.378 . S
C2672 C2676 1.350 . S
C2673 C2676 1.463 . S
C2673 C2678 1.350 . S
C2673 N2681 1.427 . S
C2674 H2665 0.930 . S
C2674 C2672 1.378 . S
C2674 C2675 1.367 . S
C2675 C2674 1.367 . S
C2675 C2677 1.433 . S
C2676 C2672 1.350 . S
C2676 C2673 1.463 . S
C2676 N2680 1.427 . S
C2677 H2667 0.929 . S
C2677 C2675 1.433 . S
C2677 N2680 1.384 . S
C2678 H2669 0.929 . S
C2678 C2670 1.378 . S
C2678 C2673 1.350 . S
C2679 H2666 0.929 . S
C2679 C2671 1.433 . S
C2679 N2681 1.384 . S
N2680 C2676 1.427 . S
N2680 C2677 1.384 . S
N2681 C2673 1.427 . S
N2681 C2679 1.384 . S
H2682 C2688 0.930 . S
H2683 C2692 0.930 . S
H2684 C2697 0.929 . S
H2685 C2695 0.929 . S
H2686 C2690 0.929 . S
H2687 C2696 0.929 . S
C2688 H2682 0.930 . S
C2688 C2689 1.367 . S
C2688 C2696 1.378 1_554 S
C2689 C2688 1.367 . S
C2689 C2697 1.433 1_554 S
C2690 H2686 0.929 . S
C2690 C2692 1.378 . S
C2690 C2694 1.350 . S
C2691 C2694 1.463 . S
C2691 C2696 1.350 . S
C2691 N2699 1.427 . S
C2692 H2683 0.930 . S
C2692 C2690 1.378 . S
C2692 C2693 1.367 . S
C2693 C2692 1.367 . S
C2693 C2695 1.433 . S
C2694 C2690 1.350 . S
C2694 C2691 1.463 . S
C2694 N2698 1.427 . S
C2695 H2685 0.929 . S
C2695 C2693 1.433 . S
C2695 N2698 1.384 . S
C2696 H2687 0.929 . S
C2696 C2688 1.378 1_556 S
C2696 C2691 1.350 . S
C2697 H2684 0.929 . S
C2697 C2689 1.433 1_556 S
C2697 N2699 1.384 . S
N2698 C2694 1.427 . S
N2698 C2695 1.384 . S
N2699 C2691 1.427 . S
N2699 C2697 1.384 . S
H2700 C2706 0.930 . S
H2701 C2710 0.930 . S
H2702 C2715 0.929 . S
H2703 C2713 0.929 . S
H2704 C2708 0.929 . S
H2705 C2714 0.929 . S
C2706 H2700 0.930 . S
C2706 C2707 1.367 . S
C2706 C2714 1.378 . S
C2707 C2706 1.367 . S
C2707 C2715 1.433 . S
C2708 H2704 0.929 . S
C2708 C2710 1.378 . S
C2708 C2712 1.350 . S
C2709 C2712 1.463 . S
C2709 C2714 1.350 . S
C2709 N2717 1.427 . S
C2710 H2701 0.930 . S
C2710 C2708 1.378 . S
C2710 C2711 1.367 . S
C2711 C2710 1.367 . S
C2711 C2713 1.433 . S
C2712 C2708 1.350 . S
C2712 C2709 1.463 . S
C2712 N2716 1.427 . S
C2713 H2703 0.929 . S
C2713 C2711 1.433 . S
C2713 N2716 1.384 . S
C2714 H2705 0.929 . S
C2714 C2706 1.378 . S
C2714 C2709 1.350 . S
C2715 H2702 0.929 . S
C2715 C2707 1.433 . S
C2715 N2717 1.384 . S
N2716 C2712 1.427 . S
N2716 C2713 1.384 . S
N2717 C2709 1.427 . S
N2717 C2715 1.384 . S
H2718 C2724 0.930 . S
H2719 C2728 0.930 . S
H2720 C2733 0.929 . S
H2721 C2731 0.929 . S
H2722 C2726 0.929 . S
H2723 C2732 0.929 . S
C2724 H2718 0.930 . S
C2724 C2725 1.367 . S
C2724 C2732 1.378 . S
C2725 C2724 1.367 . S
C2725 C2733 1.433 . S
C2726 H2722 0.929 . S
C2726 C2728 1.378 . S
C2726 C2730 1.350 . S
C2727 C2730 1.463 . S
C2727 C2732 1.350 . S
C2727 N2735 1.427 . S
C2728 H2719 0.930 . S
C2728 C2726 1.378 . S
C2728 C2729 1.367 . S
C2729 C2728 1.367 . S
C2729 C2731 1.433 . S
C2730 C2726 1.350 . S
C2730 C2727 1.463 . S
C2730 N2734 1.427 . S
C2731 H2721 0.929 . S
C2731 C2729 1.433 . S
C2731 N2734 1.384 . S
C2732 H2723 0.929 . S
C2732 C2724 1.378 . S
C2732 C2727 1.350 . S
C2733 H2720 0.929 . S
C2733 C2725 1.433 . S
C2733 N2735 1.384 . S
N2734 C2730 1.427 . S
N2734 C2731 1.384 . S
N2735 C2727 1.427 . S
N2735 C2733 1.384 . S
H2736 C2742 0.930 . S
H2737 C2746 0.930 . S
H2738 C2751 0.929 . S
H2739 C2749 0.929 . S
H2740 C2744 0.929 . S
H2741 C2750 0.929 . S
C2742 H2736 0.930 . S
C2742 C2743 1.367 . S
C2742 C2750 1.378 . S
C2743 C2742 1.367 . S
C2743 C2751 1.433 . S
C2744 H2740 0.929 . S
C2744 C2746 1.378 . S
C2744 C2748 1.350 . S
C2745 C2748 1.463 . S
C2745 C2750 1.350 . S
C2745 N2753 1.427 . S
C2746 H2737 0.930 . S
C2746 C2744 1.378 . S
C2746 C2747 1.367 . S
C2747 C2746 1.367 . S
C2747 C2749 1.433 . S
C2748 C2744 1.350 . S
C2748 C2745 1.463 . S
C2748 N2752 1.427 . S
C2749 H2739 0.929 . S
C2749 C2747 1.433 . S
C2749 N2752 1.384 . S
C2750 H2741 0.929 . S
C2750 C2742 1.378 . S
C2750 C2745 1.350 . S
C2751 H2738 0.929 . S
C2751 C2743 1.433 . S
C2751 N2753 1.384 . S
N2752 C2748 1.427 . S
N2752 C2749 1.384 . S
N2753 C2745 1.427 . S
N2753 C2751 1.384 . S
H2754 C2760 0.930 . S
H2755 C2764 0.930 . S
H2756 C2769 0.929 . S
H2757 C2767 0.929 . S
H2758 C2762 0.929 . S
H2759 C2768 0.929 . S
C2760 H2754 0.930 . S
C2760 C2761 1.367 . S
C2760 C2768 1.378 . S
C2761 C2760 1.367 . S
C2761 C2769 1.433 . S
C2762 H2758 0.929 . S
C2762 C2764 1.378 . S
C2762 C2766 1.350 . S
C2763 C2766 1.463 . S
C2763 C2768 1.350 . S
C2763 N2771 1.427 . S
C2764 H2755 0.930 . S
C2764 C2762 1.378 . S
C2764 C2765 1.367 . S
C2765 C2764 1.367 . S
C2765 C2767 1.433 . S
C2766 C2762 1.350 . S
C2766 C2763 1.463 . S
C2766 N2770 1.427 . S
C2767 H2757 0.929 . S
C2767 C2765 1.433 . S
C2767 N2770 1.384 . S
C2768 H2759 0.929 . S
C2768 C2760 1.378 . S
C2768 C2763 1.350 . S
C2769 H2756 0.929 . S
C2769 C2761 1.433 . S
C2769 N2771 1.384 . S
N2770 C2766 1.427 . S
N2770 C2767 1.384 . S
N2771 C2763 1.427 . S
N2771 C2769 1.384 . S
H2772 C2778 0.930 . S
H2773 C2782 0.930 . S
H2774 C2787 0.929 . S
H2775 C2785 0.929 . S
H2776 C2780 0.929 . S
H2777 C2786 0.929 . S
C2778 H2772 0.930 . S
C2778 C2779 1.367 . S
C2778 C2786 1.378 . S
C2779 C2778 1.367 . S
C2779 C2787 1.433 . S
C2780 H2776 0.929 . S
C2780 C2782 1.378 . S
C2780 C2784 1.350 . S
C2781 C2784 1.463 . S
C2781 C2786 1.350 . S
C2781 N2789 1.427 . S
C2782 H2773 0.930 . S
C2782 C2780 1.378 . S
C2782 C2783 1.367 . S
C2783 C2782 1.367 . S
C2783 C2785 1.433 . S
C2784 C2780 1.350 . S
C2784 C2781 1.463 . S
C2784 N2788 1.427 . S
C2785 H2775 0.929 . S
C2785 C2783 1.433 . S
C2785 N2788 1.384 . S
C2786 H2777 0.929 . S
C2786 C2778 1.378 . S
C2786 C2781 1.350 . S
C2787 H2774 0.929 . S
C2787 C2779 1.433 . S
C2787 N2789 1.384 . S
N2788 C2784 1.427 . S
N2788 C2785 1.384 . S
N2789 C2781 1.427 . S
N2789 C2787 1.384 . S
H2790 C2796 0.930 . S
H2791 C2800 0.930 . S
H2792 C2805 0.929 . S
H2793 C2803 0.929 . S
H2794 C2798 0.929 . S
H2795 C2804 0.929 . S
C2796 H2790 0.930 . S
C2796 C2797 1.367 . S
C2796 C2804 1.378 . S
C2797 C2796 1.367 . S
C2797 C2805 1.433 . S
C2798 H2794 0.929 . S
C2798 C2800 1.378 . S
C2798 C2802 1.350 . S
C2799 C2802 1.463 . S
C2799 C2804 1.350 . S
C2799 N2807 1.427 . S
C2800 H2791 0.930 . S
C2800 C2798 1.378 . S
C2800 C2801 1.367 . S
C2801 C2800 1.367 . S
C2801 C2803 1.433 . S
C2802 C2798 1.350 . S
C2802 C2799 1.463 . S
C2802 N2806 1.427 . S
C2803 H2793 0.929 . S
C2803 C2801 1.433 . S
C2803 N2806 1.384 . S
C2804 H2795 0.929 . S
C2804 C2796 1.378 . S
C2804 C2799 1.350 . S
C2805 H2792 0.929 . S
C2805 C2797 1.433 . S
C2805 N2807 1.384 . S
N2806 C2802 1.427 . S
N2806 C2803 1.384 . S
N2807 C2799 1.427 . S
N2807 C2805 1.384 . S
H2808 C2814 0.930 . S
H2809 C2818 0.930 . S
H2810 C2823 0.929 . S
H2811 C2821 0.929 . S
H2812 C2816 0.929 . S
H2813 C2822 0.929 . S
C2814 H2808 0.930 . S
C2814 C2815 1.367 . S
C2814 C2822 1.378 . S
C2815 C2814 1.367 . S
C2815 C2823 1.433 . S
C2816 H2812 0.929 . S
C2816 C2818 1.378 . S
C2816 C2820 1.350 . S
C2817 C2820 1.463 . S
C2817 C2822 1.350 . S
C2817 N2825 1.427 . S
C2818 H2809 0.930 . S
C2818 C2816 1.378 . S
C2818 C2819 1.367 . S
C2819 C2818 1.367 . S
C2819 C2821 1.433 . S
C2820 C2816 1.350 . S
C2820 C2817 1.463 . S
C2820 N2824 1.427 . S
C2821 H2811 0.929 . S
C2821 C2819 1.433 . S
C2821 N2824 1.384 . S
C2822 H2813 0.929 . S
C2822 C2814 1.378 . S
C2822 C2817 1.350 . S
C2823 H2810 0.929 . S
C2823 C2815 1.433 . S
C2823 N2825 1.384 . S
N2824 C2820 1.427 . S
N2824 C2821 1.384 . S
N2825 C2817 1.427 . S
N2825 C2823 1.384 . S
H2826 C2832 0.930 . S
H2827 C2836 0.930 . S
H2828 C2841 0.929 . S
H2829 C2839 0.929 . S
H2830 C2834 0.929 . S
H2831 C2840 0.929 . S
C2832 H2826 0.930 . S
C2832 C2833 1.367 . S
C2832 C2840 1.378 . S
C2833 C2832 1.367 . S
C2833 C2841 1.433 . S
C2834 H2830 0.929 . S
C2834 C2836 1.378 . S
C2834 C2838 1.350 . S
C2835 C2838 1.463 . S
C2835 C2840 1.350 . S
C2835 N2843 1.427 . S
C2836 H2827 0.930 . S
C2836 C2834 1.378 . S
C2836 C2837 1.367 . S
C2837 C2836 1.367 . S
C2837 C2839 1.433 . S
C2838 C2834 1.350 . S
C2838 C2835 1.463 . S
C2838 N2842 1.427 . S
C2839 H2829 0.929 . S
C2839 C2837 1.433 . S
C2839 N2842 1.384 . S
C2840 H2831 0.929 . S
C2840 C2832 1.378 . S
C2840 C2835 1.350 . S
C2841 H2828 0.929 . S
C2841 C2833 1.433 . S
C2841 N2843 1.384 . S
N2842 C2838 1.427 . S
N2842 C2839 1.384 . S
N2843 C2835 1.427 . S
N2843 C2841 1.384 . S
H2844 C2850 0.930 . S
H2845 C2854 0.930 . S
H2846 C2859 0.929 1_545 S
H2847 C2857 0.929 . S
H2848 C2852 0.929 . S
H2849 C2858 0.929 . S
C2850 H2844 0.930 . S
C2850 C2851 1.367 . S
C2850 C2858 1.378 . S
C2851 C2850 1.367 . S
C2851 C2859 1.433 . S
C2852 H2848 0.929 . S
C2852 C2854 1.378 . S
C2852 C2856 1.350 . S
C2853 C2856 1.463 . S
C2853 C2858 1.350 . S
C2853 N2861 1.427 . S
C2854 H2845 0.930 . S
C2854 C2852 1.378 . S
C2854 C2855 1.367 . S
C2855 C2854 1.367 . S
C2855 C2857 1.433 . S
C2856 C2852 1.350 . S
C2856 C2853 1.463 . S
C2856 N2860 1.427 . S
C2857 H2847 0.929 . S
C2857 C2855 1.433 . S
C2857 N2860 1.384 . S
C2858 H2849 0.929 . S
C2858 C2850 1.378 . S
C2858 C2853 1.350 . S
C2859 H2846 0.929 1_565 S
C2859 C2851 1.433 . S
C2859 N2861 1.384 . S
N2860 C2856 1.427 . S
N2860 C2857 1.384 . S
N2861 C2853 1.427 . S
N2861 C2859 1.384 . S
H2862 C2868 0.930 . S
H2863 C2872 0.930 . S
H2864 C2877 0.929 . S
H2865 C2875 0.929 . S
H2866 C2870 0.929 . S
H2867 C2876 0.929 . S
C2868 H2862 0.930 . S
C2868 C2869 1.350 1_554 S
C2868 C2876 1.378 . S
C2869 C2868 1.350 1_556 S
C2869 C2877 1.451 . S
C2870 H2866 0.929 . S
C2870 C2872 1.378 . S
C2870 C2874 1.350 1_546 S
C2871 C2874 1.463 . S
C2871 C2876 1.350 . S
C2871 N2879 1.427 1_554 S
C2872 H2863 0.930 . S
C2872 C2870 1.378 . S
C2872 C2873 1.367 1_556 S
C2873 C2872 1.367 1_554 S
C2873 C2875 1.433 . S
C2874 C2870 1.350 1_564 S
C2874 C2871 1.463 . S
C2874 N2878 1.421 . S
C2875 H2865 0.929 . S
C2875 C2873 1.433 . S
C2875 N2878 1.363 1_545 S
C2876 H2867 0.929 . S
C2876 C2868 1.378 . S
C2876 C2871 1.350 . S
C2877 H2864 0.929 . S
C2877 C2869 1.451 . S
C2877 N2879 1.384 . S
N2878 C2874 1.421 . S
N2878 C2875 1.363 1_565 S
N2879 C2871 1.427 1_556 S
N2879 C2877 1.384 . S
H2880 C2886 0.930 . S
H2881 C2890 0.930 . S
H2882 C2895 0.929 . S
H2883 C2893 0.929 . S
H2884 C2888 0.929 . S
H2885 C2894 0.929 . S
C2886 H2880 0.930 . S
C2886 C2887 1.367 . S
C2886 C2894 1.378 . S
C2887 C2886 1.367 . S
C2887 C2895 1.433 . S
C2888 H2884 0.929 . S
C2888 C2890 1.378 . S
C2888 C2892 1.350 . S
C2889 C2892 1.463 . S
C2889 C2894 1.350 . S
C2889 N2897 1.427 . S
C2890 H2881 0.930 . S
C2890 C2888 1.378 . S
C2890 C2891 1.367 . S
C2891 C2890 1.367 . S
C2891 C2893 1.433 . S
C2892 C2888 1.350 . S
C2892 C2889 1.463 . S
C2892 N2896 1.427 . S
C2893 H2883 0.929 . S
C2893 C2891 1.433 . S
C2893 N2896 1.384 . S
C2894 H2885 0.929 . S
C2894 C2886 1.378 . S
C2894 C2889 1.350 . S
C2895 H2882 0.929 . S
C2895 C2887 1.433 . S
C2895 N2897 1.384 . S
N2896 C2892 1.427 . S
N2896 C2893 1.384 . S
N2897 C2889 1.427 . S
N2897 C2895 1.384 . S
H2898 C2904 0.930 1_556 S
H2899 C2908 0.930 . S
H2900 C2913 0.929 . S
H2901 C2911 0.929 . S
H2902 C2906 0.929 . S
H2903 C2912 0.943 . S
C2904 H2898 0.930 1_554 S
C2904 C2905 1.367 . S
C2904 C2912 1.378 . S
C2905 C2904 1.367 . S
C2905 C2913 1.433 . S
C2906 H2902 0.929 . S
C2906 C2908 1.378 . S
C2906 C2910 1.350 . S
C2907 C2910 1.463 . S
C2907 C2912 1.350 . S
C2907 N2915 1.427 . S
C2908 H2899 0.930 . S
C2908 C2906 1.378 . S
C2908 C2909 1.367 . S
C2909 C2908 1.367 . S
C2909 C2911 1.433 . S
C2910 C2906 1.350 . S
C2910 C2907 1.463 . S
C2910 N2914 1.427 . S
C2911 H2901 0.929 . S
C2911 C2909 1.433 . S
C2911 N2914 1.384 . S
C2912 H2903 0.943 . S
C2912 C2904 1.378 . S
C2912 C2907 1.350 . S
C2913 H2900 0.929 . S
C2913 C2905 1.433 . S
C2913 N2915 1.384 . S
N2914 C2910 1.427 . S
N2914 C2911 1.384 . S
N2915 C2907 1.427 . S
N2915 C2913 1.384 . S
H2916 C2922 0.930 . S
H2917 C2926 0.930 . S
H2918 C2931 0.929 . S
H2919 C2929 0.929 . S
H2920 C2924 0.929 . S
H2921 C2930 0.929 . S
C2922 H2916 0.930 . S
C2922 C2923 1.367 . S
C2922 C2930 1.378 . S
C2923 C2922 1.367 . S
C2923 C2931 1.433 . S
C2924 H2920 0.929 . S
C2924 C2926 1.378 . S
C2924 C2928 1.350 . S
C2925 C2928 1.463 . S
C2925 C2930 1.350 . S
C2925 N2933 1.427 . S
C2926 H2917 0.930 . S
C2926 C2924 1.378 . S
C2926 C2927 1.367 . S
C2927 C2926 1.367 . S
C2927 C2929 1.433 . S
C2928 C2924 1.350 . S
C2928 C2925 1.463 . S
C2928 N2932 1.427 . S
C2929 H2919 0.929 . S
C2929 C2927 1.433 . S
C2929 N2932 1.384 . S
C2930 H2921 0.929 . S
C2930 C2922 1.378 . S
C2930 C2925 1.350 . S
C2931 H2918 0.929 . S
C2931 C2923 1.433 . S
C2931 N2933 1.384 . S
N2932 C2928 1.427 . S
N2932 C2929 1.384 . S
N2933 C2925 1.427 . S
N2933 C2931 1.384 . S
H2934 C2940 0.930 . S
H2935 C2944 0.930 . S
H2936 C2949 0.929 . S
H2937 C2947 0.929 . S
H2938 C2942 0.929 . S
H2939 C2948 0.929 . S
C2940 H2934 0.930 . S
C2940 C2941 1.367 . S
C2940 C2948 1.378 . S
C2941 C2940 1.367 . S
C2941 C2949 1.433 . S
C2942 H2938 0.929 . S
C2942 C2944 1.378 . S
C2942 C2946 1.350 . S
C2943 C2946 1.463 . S
C2943 C2948 1.350 . S
C2943 N2951 1.427 . S
C2944 H2935 0.930 . S
C2944 C2942 1.378 . S
C2944 C2945 1.367 . S
C2945 C2944 1.367 . S
C2945 C2947 1.433 . S
C2946 C2942 1.350 . S
C2946 C2943 1.463 . S
C2946 N2950 1.427 . S
C2947 H2937 0.929 . S
C2947 C2945 1.433 . S
C2947 N2950 1.384 . S
C2948 H2939 0.929 . S
C2948 C2940 1.378 . S
C2948 C2943 1.350 . S
C2949 H2936 0.929 . S
C2949 C2941 1.433 . S
C2949 N2951 1.384 . S
N2950 C2946 1.427 . S
N2950 C2947 1.384 . S
N2951 C2943 1.427 . S
N2951 C2949 1.384 . S
H2952 C2958 0.930 . S
H2953 C2962 0.930 . S
H2954 C2967 0.929 . S
H2955 C2965 0.929 . S
H2956 C2960 0.929 . S
H2957 C2966 0.929 . S
C2958 H2952 0.930 . S
C2958 C2959 1.367 . S
C2958 C2966 1.378 . S
C2959 C2958 1.367 . S
C2959 C2967 1.433 . S
C2960 H2956 0.929 . S
C2960 C2962 1.378 . S
C2960 C2964 1.350 . S
C2961 C2964 1.463 . S
C2961 C2966 1.350 . S
C2961 N2969 1.427 . S
C2962 H2953 0.930 . S
C2962 C2960 1.378 . S
C2962 C2963 1.367 . S
C2963 C2962 1.367 . S
C2963 C2965 1.433 . S
C2964 C2960 1.350 . S
C2964 C2961 1.463 . S
C2964 N2968 1.427 . S
C2965 H2955 0.929 . S
C2965 C2963 1.433 . S
C2965 N2968 1.384 . S
C2966 H2957 0.929 . S
C2966 C2958 1.378 . S
C2966 C2961 1.350 . S
C2967 H2954 0.929 . S
C2967 C2959 1.433 . S
C2967 N2969 1.384 . S
N2968 C2964 1.427 . S
N2968 C2965 1.384 . S
N2969 C2961 1.427 . S
N2969 C2967 1.384 . S
H2970 C2976 0.930 . S
H2971 C2980 0.930 . S
H2972 C2985 0.929 . S
H2973 C2983 0.929 . S
H2974 C2978 0.929 . S
H2975 C2984 0.929 . S
C2976 H2970 0.930 . S
C2976 C2977 1.367 . S
C2976 C2984 1.378 . S
C2977 C2976 1.367 . S
C2977 C2985 1.433 . S
C2978 H2974 0.929 . S
C2978 C2980 1.378 . S
C2978 C2982 1.350 . S
C2979 C2982 1.463 . S
C2979 C2984 1.350 . S
C2979 N2987 1.427 . S
C2980 H2971 0.930 . S
C2980 C2978 1.378 . S
C2980 C2981 1.367 . S
C2981 C2980 1.367 . S
C2981 C2983 1.433 . S
C2982 C2978 1.350 . S
C2982 C2979 1.463 . S
C2982 N2986 1.427 . S
C2983 H2973 0.929 . S
C2983 C2981 1.433 . S
C2983 N2986 1.384 . S
C2984 H2975 0.929 . S
C2984 C2976 1.378 . S
C2984 C2979 1.350 . S
C2985 H2972 0.929 . S
C2985 C2977 1.433 . S
C2985 N2987 1.384 . S
N2986 C2982 1.427 . S
N2986 C2983 1.384 . S
N2987 C2979 1.427 . S
N2987 C2985 1.384 . S
H2988 C2994 0.930 . S
H2989 C2998 0.930 . S
H2990 C3003 0.929 . S
H2991 C3001 0.929 . S
H2992 C2996 0.929 . S
H2993 C3002 0.929 . S
C2994 H2988 0.930 . S
C2994 C2995 1.367 . S
C2994 C3002 1.378 . S
C2995 C2994 1.367 . S
C2995 C3003 1.433 . S
C2996 H2992 0.929 . S
C2996 C2998 1.378 . S
C2996 C3000 1.350 . S
C2997 C3000 1.463 . S
C2997 C3002 1.350 . S
C2997 N3005 1.427 . S
C2998 H2989 0.930 . S
C2998 C2996 1.378 . S
C2998 C2999 1.367 . S
C2999 C2998 1.367 . S
C2999 C3001 1.433 . S
C3000 C2996 1.350 . S
C3000 C2997 1.463 . S
C3000 N3004 1.427 . S
C3001 H2991 0.929 . S
C3001 C2999 1.433 . S
C3001 N3004 1.384 . S
C3002 H2993 0.929 . S
C3002 C2994 1.378 . S
C3002 C2997 1.350 . S
C3003 H2990 0.929 . S
C3003 C2995 1.433 . S
C3003 N3005 1.384 . S
N3004 C3000 1.427 . S
N3004 C3001 1.384 . S
N3005 C2997 1.427 . S
N3005 C3003 1.384 . S
H3006 C3012 0.930 . S
H3007 C3016 0.930 . S
H3008 C3021 0.929 . S
H3009 C3019 0.929 . S
H3010 C3014 0.929 . S
H3011 C3020 0.929 . S
C3012 H3006 0.930 . S
C3012 C3013 1.367 . S
C3012 C3020 1.378 . S
C3013 C3012 1.367 . S
C3013 C3021 1.433 . S
C3014 H3010 0.929 . S
C3014 C3016 1.378 . S
C3014 C3018 1.350 . S
C3015 C3018 1.463 . S
C3015 C3020 1.350 . S
C3015 N3023 1.427 . S
C3016 H3007 0.930 . S
C3016 C3014 1.378 . S
C3016 C3017 1.367 . S
C3017 C3016 1.367 . S
C3017 C3019 1.433 . S
C3018 C3014 1.350 . S
C3018 C3015 1.463 . S
C3018 N3022 1.427 . S
C3019 H3009 0.929 . S
C3019 C3017 1.433 . S
C3019 N3022 1.384 . S
C3020 H3011 0.929 . S
C3020 C3012 1.378 . S
C3020 C3015 1.350 . S
C3021 H3008 0.929 . S
C3021 C3013 1.433 . S
C3021 N3023 1.384 . S
N3022 C3018 1.427 . S
N3022 C3019 1.384 . S
N3023 C3015 1.427 . S
N3023 C3021 1.384 . S
H3024 C3030 0.930 . S
H3025 C3034 0.930 . S
H3026 C3039 0.929 . S
H3027 C3037 0.929 . S
H3028 C3032 0.929 . S
H3029 C3038 0.929 . S
C3030 H3024 0.930 . S
C3030 C3031 1.367 . S
C3030 C3038 1.378 . S
C3031 C3030 1.367 . S
C3031 C3039 1.433 . S
C3032 H3028 0.929 . S
C3032 C3034 1.378 . S
C3032 C3036 1.350 . S
C3033 C3036 1.463 . S
C3033 C3038 1.350 . S
C3033 N3041 1.427 . S
C3034 H3025 0.930 . S
C3034 C3032 1.378 . S
C3034 C3035 1.367 . S
C3035 C3034 1.367 . S
C3035 C3037 1.433 . S
C3036 C3032 1.350 . S
C3036 C3033 1.463 . S
C3036 N3040 1.427 . S
C3037 H3027 0.929 . S
C3037 C3035 1.433 . S
C3037 N3040 1.384 . S
C3038 H3029 0.929 . S
C3038 C3030 1.378 . S
C3038 C3033 1.350 . S
C3039 H3026 0.929 . S
C3039 C3031 1.433 . S
C3039 N3041 1.384 . S
N3040 C3036 1.427 . S
N3040 C3037 1.384 . S
N3041 C3033 1.427 . S
N3041 C3039 1.384 . S
H3042 C3048 0.930 . S
H3043 C3052 0.930 . S
H3044 C3057 0.929 . S
H3045 C3055 0.929 . S
H3046 C3050 0.929 . S
H3047 C3056 0.929 . S
C3048 H3042 0.930 . S
C3048 C3049 1.367 . S
C3048 C3056 1.378 . S
C3049 C3048 1.367 . S
C3049 C3057 1.433 . S
C3050 H3046 0.929 . S
C3050 C3052 1.378 . S
C3050 C3054 1.350 . S
C3051 C3054 1.463 . S
C3051 C3056 1.350 . S
C3051 N3059 1.427 . S
C3052 H3043 0.930 . S
C3052 C3050 1.378 . S
C3052 C3053 1.367 . S
C3053 C3052 1.367 . S
C3053 C3055 1.433 . S
C3054 C3050 1.350 . S
C3054 C3051 1.463 . S
C3054 N3058 1.427 . S
C3055 H3045 0.929 . S
C3055 C3053 1.433 . S
C3055 N3058 1.384 . S
C3056 H3047 0.929 . S
C3056 C3048 1.378 . S
C3056 C3051 1.350 . S
C3057 H3044 0.929 . S
C3057 C3049 1.433 . S
C3057 N3059 1.384 . S
N3058 C3054 1.427 . S
N3058 C3055 1.384 . S
N3059 C3051 1.427 . S
N3059 C3057 1.384 . S
H3060 C3066 0.930 . S
H3061 C3070 0.930 1_655 S
H3062 C3075 0.929 . S
H3063 C3073 0.929 . S
H3064 C3068 0.951 . S
H3065 C3074 0.929 . S
C3066 H3060 0.930 . S
C3066 C3067 1.367 . S
C3066 C3074 1.378 . S
C3067 C3066 1.367 . S
C3067 C3075 1.433 . S
C3068 H3064 0.951 . S
C3068 C3070 1.378 . S
C3068 C3072 1.350 . S
C3069 C3072 1.463 . S
C3069 C3074 1.350 . S
C3069 N3077 1.427 . S
C3070 H3061 0.930 1_455 S
C3070 C3068 1.378 . S
C3070 C3071 1.367 . S
C3071 C3070 1.367 . S
C3071 C3073 1.433 . S
C3072 C3068 1.350 . S
C3072 C3069 1.463 . S
C3072 N3076 1.427 . S
C3073 H3063 0.929 . S
C3073 C3071 1.433 . S
C3073 N3076 1.384 . S
C3074 H3065 0.929 . S
C3074 C3066 1.378 . S
C3074 C3069 1.350 . S
C3075 H3062 0.929 . S
C3075 C3067 1.433 . S
C3075 N3077 1.384 . S
N3076 C3072 1.427 . S
N3076 C3073 1.384 . S
N3077 C3069 1.427 . S
N3077 C3075 1.384 . S
H3078 C3084 0.930 . S
H3079 C3088 0.930 . S
H3080 C3093 0.929 . S
H3081 C3091 0.929 . S
H3082 C3086 0.929 . S
H3083 C3092 0.929 . S
C3084 H3078 0.930 . S
C3084 C3085 1.367 . S
C3084 C3092 1.378 . S
C3085 C3084 1.367 . S
C3085 C3093 1.433 . S
C3086 H3082 0.929 . S
C3086 C3088 1.378 . S
C3086 C3090 1.350 . S
C3087 C3090 1.463 . S
C3087 C3092 1.350 . S
C3087 N3095 1.427 . S
C3088 H3079 0.930 . S
C3088 C3086 1.378 . S
C3088 C3089 1.367 . S
C3089 C3088 1.367 . S
C3089 C3091 1.433 . S
C3090 C3086 1.350 . S
C3090 C3087 1.463 . S
C3090 N3094 1.427 . S
C3091 H3081 0.929 . S
C3091 C3089 1.433 . S
C3091 N3094 1.384 . S
C3092 H3083 0.929 . S
C3092 C3084 1.378 . S
C3092 C3087 1.350 . S
C3093 H3080 0.929 . S
C3093 C3085 1.433 . S
C3093 N3095 1.384 . S
N3094 C3090 1.427 . S
N3094 C3091 1.384 . S
N3095 C3087 1.427 . S
N3095 C3093 1.384 . S
H3096 C3102 0.930 . S
H3097 C3106 0.930 . S
H3098 C3111 0.929 . S
H3099 C3109 0.929 . S
H3100 C3104 0.929 . S
H3101 C3110 0.929 . S
C3102 H3096 0.930 . S
C3102 C3103 1.367 . S
C3102 C3110 1.378 . S
C3103 C3102 1.367 . S
C3103 C3111 1.433 . S
C3104 H3100 0.929 . S
C3104 C3106 1.378 . S
C3104 C3108 1.350 . S
C3105 C3108 1.463 . S
C3105 C3110 1.350 . S
C3105 N3113 1.427 . S
C3106 H3097 0.930 . S
C3106 C3104 1.378 . S
C3106 C3107 1.367 . S
C3107 C3106 1.367 . S
C3107 C3109 1.433 . S
C3108 C3104 1.350 . S
C3108 C3105 1.463 . S
C3108 N3112 1.427 . S
C3109 H3099 0.929 . S
C3109 C3107 1.433 . S
C3109 N3112 1.384 . S
C3110 H3101 0.929 . S
C3110 C3102 1.378 . S
C3110 C3105 1.350 . S
C3111 H3098 0.929 . S
C3111 C3103 1.433 . S
C3111 N3113 1.384 . S
N3112 C3108 1.427 . S
N3112 C3109 1.384 . S
N3113 C3105 1.427 . S
N3113 C3111 1.384 . S
H3114 C3120 0.930 . S
H3115 C3124 0.930 . S
H3116 C3129 0.929 . S
H3117 C3127 0.929 . S
H3118 C3122 0.929 . S
H3119 C3128 0.929 . S
C3120 H3114 0.930 . S
C3120 C3121 1.367 . S
C3120 C3128 1.378 . S
C3121 C3120 1.367 . S
C3121 C3129 1.433 . S
C3122 H3118 0.929 . S
C3122 C3124 1.378 . S
C3122 C3126 1.350 . S
C3123 C3126 1.463 . S
C3123 C3128 1.350 . S
C3123 N3131 1.427 . S
C3124 H3115 0.930 . S
C3124 C3122 1.378 . S
C3124 C3125 1.367 . S
C3125 C3124 1.367 . S
C3125 C3127 1.433 . S
C3126 C3122 1.350 . S
C3126 C3123 1.463 . S
C3126 N3130 1.427 . S
C3127 H3117 0.929 . S
C3127 C3125 1.433 . S
C3127 N3130 1.384 . S
C3128 H3119 0.929 . S
C3128 C3120 1.378 . S
C3128 C3123 1.350 . S
C3129 H3116 0.929 . S
C3129 C3121 1.433 . S
C3129 N3131 1.384 . S
N3130 C3126 1.427 . S
N3130 C3127 1.384 . S
N3131 C3123 1.427 . S
N3131 C3129 1.384 . S
H3132 C3138 0.930 . S
H3133 C3142 0.930 1_455 S
H3134 C3147 0.929 . S
H3135 C3145 0.929 . S
H3136 C3140 0.929 . S
H3137 C3146 0.929 . S
C3138 H3132 0.930 . S
C3138 C3139 1.367 . S
C3138 C3146 1.378 . S
C3139 C3138 1.367 . S
C3139 C3147 1.433 . S
C3140 H3136 0.929 . S
C3140 C3142 1.378 . S
C3140 C3144 1.350 . S
C3141 C3144 1.463 . S
C3141 C3146 1.350 . S
C3141 N3149 1.427 . S
C3142 H3133 0.930 1_655 S
C3142 C3140 1.378 . S
C3142 C3143 1.367 . S
C3143 C3142 1.367 . S
C3143 C3145 1.433 . S
C3144 C3140 1.350 . S
C3144 C3141 1.463 . S
C3144 N3148 1.427 . S
C3145 H3135 0.929 . S
C3145 C3143 1.433 . S
C3145 N3148 1.384 . S
C3146 H3137 0.929 . S
C3146 C3138 1.378 . S
C3146 C3141 1.350 . S
C3147 H3134 0.929 . S
C3147 C3139 1.433 . S
C3147 N3149 1.384 . S
N3148 C3144 1.427 . S
N3148 C3145 1.384 . S
N3149 C3141 1.427 . S
N3149 C3147 1.384 . S
H3150 C3156 0.930 . S
H3151 C3160 0.930 . S
H3152 C3165 0.929 . S
H3153 C3163 0.929 . S
H3154 C3158 0.929 . S
H3155 C3164 0.929 . S
C3156 H3150 0.930 . S
C3156 C3157 1.367 . S
C3156 C3164 1.378 . S
C3157 C3156 1.367 . S
C3157 C3165 1.433 . S
C3158 H3154 0.929 . S
C3158 C3160 1.378 . S
C3158 C3162 1.350 . S
C3159 C3162 1.463 . S
C3159 C3164 1.350 . S
C3159 N3167 1.427 . S
C3160 H3151 0.930 . S
C3160 C3158 1.378 . S
C3160 C3161 1.367 . S
C3161 C3160 1.367 . S
C3161 C3163 1.433 . S
C3162 C3158 1.350 . S
C3162 C3159 1.463 . S
C3162 N3166 1.427 . S
C3163 H3153 0.929 . S
C3163 C3161 1.433 . S
C3163 N3166 1.384 . S
C3164 H3155 0.929 . S
C3164 C3156 1.378 . S
C3164 C3159 1.350 . S
C3165 H3152 0.929 . S
C3165 C3157 1.433 . S
C3165 N3167 1.384 . S
N3166 C3162 1.427 . S
N3166 C3163 1.384 . S
N3167 C3159 1.427 . S
N3167 C3165 1.384 . S
H3168 C3174 0.930 . S
H3169 C3178 0.930 . S
H3170 C3183 0.929 . S
H3171 C3181 0.929 . S
H3172 C3176 0.929 . S
H3173 C3182 0.929 . S
C3174 H3168 0.930 . S
C3174 C3175 1.367 . S
C3174 C3182 1.378 . S
C3175 C3174 1.367 . S
C3175 C3183 1.433 . S
C3176 H3172 0.929 . S
C3176 C3178 1.378 . S
C3176 C3180 1.350 . S
C3177 C3180 1.463 . S
C3177 C3182 1.350 . S
C3177 N3185 1.427 . S
C3178 H3169 0.930 . S
C3178 C3176 1.378 . S
C3178 C3179 1.367 . S
C3179 C3178 1.367 . S
C3179 C3181 1.433 . S
C3180 C3176 1.350 . S
C3180 C3177 1.463 . S
C3180 N3184 1.427 . S
C3181 H3171 0.929 . S
C3181 C3179 1.433 . S
C3181 N3184 1.384 . S
C3182 H3173 0.929 . S
C3182 C3174 1.378 . S
C3182 C3177 1.350 . S
C3183 H3170 0.929 . S
C3183 C3175 1.433 . S
C3183 N3185 1.384 . S
N3184 C3180 1.427 . S
N3184 C3181 1.384 . S
N3185 C3177 1.427 . S
N3185 C3183 1.384 . S
H3186 C3192 0.930 . S
H3187 C3196 0.930 . S
H3188 C3201 0.929 . S
H3189 C3199 0.929 . S
H3190 C3194 0.929 . S
H3191 C3200 0.929 . S
C3192 H3186 0.930 . S
C3192 C3193 1.367 . S
C3192 C3200 1.378 . S
C3193 C3192 1.367 . S
C3193 C3201 1.433 . S
C3194 H3190 0.929 . S
C3194 C3196 1.378 . S
C3194 C3198 1.350 . S
C3195 C3198 1.463 . S
C3195 C3200 1.350 . S
C3195 N3203 1.427 . S
C3196 H3187 0.930 . S
C3196 C3194 1.378 . S
C3196 C3197 1.367 . S
C3197 C3196 1.367 . S
C3197 C3199 1.433 . S
C3198 C3194 1.350 . S
C3198 C3195 1.463 . S
C3198 N3202 1.427 . S
C3199 H3189 0.929 . S
C3199 C3197 1.433 . S
C3199 N3202 1.384 . S
C3200 H3191 0.929 . S
C3200 C3192 1.378 . S
C3200 C3195 1.350 . S
C3201 H3188 0.929 . S
C3201 C3193 1.433 . S
C3201 N3203 1.384 . S
N3202 C3198 1.427 . S
N3202 C3199 1.384 . S
N3203 C3195 1.427 . S
N3203 C3201 1.384 . S
H3204 C3210 0.930 . S
H3205 C3214 0.930 . S
H3206 C3219 0.929 . S
H3207 C3217 0.929 . S
H3208 C3212 0.929 . S
H3209 C3218 0.929 . S
C3210 H3204 0.930 . S
C3210 C3211 1.367 . S
C3210 C3218 1.378 . S
C3211 C3210 1.367 . S
C3211 C3219 1.433 . S
C3212 H3208 0.929 . S
C3212 C3214 1.378 . S
C3212 C3216 1.350 . S
C3213 C3216 1.463 . S
C3213 C3218 1.350 . S
C3213 N3221 1.427 . S
C3214 H3205 0.930 . S
C3214 C3212 1.378 . S
C3214 C3215 1.367 . S
C3215 C3214 1.367 . S
C3215 C3217 1.433 . S
C3216 C3212 1.350 . S
C3216 C3213 1.463 . S
C3216 N3220 1.427 . S
C3217 H3207 0.929 . S
C3217 C3215 1.433 . S
C3217 N3220 1.384 . S
C3218 H3209 0.929 . S
C3218 C3210 1.378 . S
C3218 C3213 1.350 . S
C3219 H3206 0.929 . S
C3219 C3211 1.433 . S
C3219 N3221 1.384 . S
N3220 C3216 1.427 . S
N3220 C3217 1.384 . S
N3221 C3213 1.427 . S
N3221 C3219 1.384 . S
H3222 C3228 0.930 . S
H3223 C3232 0.930 . S
H3224 C3237 0.929 . S
H3225 C3235 0.929 . S
H3226 C3230 0.929 . S
H3227 C3236 0.929 . S
C3228 H3222 0.930 . S
C3228 C3229 1.367 . S
C3228 C3236 1.378 . S
C3229 C3228 1.367 . S
C3229 C3237 1.433 . S
C3230 H3226 0.929 . S
C3230 C3232 1.378 . S
C3230 C3234 1.350 . S
C3231 C3234 1.463 . S
C3231 C3236 1.350 . S
C3231 N3239 1.427 . S
C3232 H3223 0.930 . S
C3232 C3230 1.378 . S
C3232 C3233 1.367 . S
C3233 C3232 1.367 . S
C3233 C3235 1.433 . S
C3234 C3230 1.350 . S
C3234 C3231 1.463 . S
C3234 N3238 1.427 . S
C3235 H3225 0.929 . S
C3235 C3233 1.433 . S
C3235 N3238 1.384 . S
C3236 H3227 0.929 . S
C3236 C3228 1.378 . S
C3236 C3231 1.350 . S
C3237 H3224 0.929 . S
C3237 C3229 1.433 . S
C3237 N3239 1.384 . S
N3238 C3234 1.427 . S
N3238 C3235 1.384 . S
N3239 C3231 1.427 . S
N3239 C3237 1.384 . S
H3240 C3246 0.930 . S
H3241 C3250 0.930 . S
H3242 C3255 0.929 . S
H3243 C3253 0.929 . S
H3244 C3248 0.929 . S
H3245 C3254 0.929 . S
C3246 H3240 0.930 . S
C3246 C3247 1.367 . S
C3246 C3254 1.378 . S
C3247 C3246 1.367 . S
C3247 C3255 1.433 . S
C3248 H3244 0.929 . S
C3248 C3250 1.378 . S
C3248 C3252 1.350 . S
C3249 C3252 1.463 . S
C3249 C3254 1.350 . S
C3249 N3257 1.427 . S
C3250 H3241 0.930 . S
C3250 C3248 1.378 . S
C3250 C3251 1.367 . S
C3251 C3250 1.367 . S
C3251 C3253 1.433 . S
C3252 C3248 1.350 . S
C3252 C3249 1.463 . S
C3252 N3256 1.427 . S
C3253 H3243 0.929 . S
C3253 C3251 1.433 . S
C3253 N3256 1.384 . S
C3254 H3245 0.929 . S
C3254 C3246 1.378 . S
C3254 C3249 1.350 . S
C3255 H3242 0.929 . S
C3255 C3247 1.433 . S
C3255 N3257 1.384 . S
N3256 C3252 1.427 . S
N3256 C3253 1.384 . S
N3257 C3249 1.427 . S
N3257 C3255 1.384 . S
H3258 C3264 0.930 . S
H3259 C3268 0.930 . S
H3260 C3273 0.929 . S
H3261 C3271 0.929 . S
H3262 C3266 0.929 . S
H3263 C3272 0.929 . S
C3264 H3258 0.930 . S
C3264 C3265 1.367 . S
C3264 C3272 1.378 . S
C3265 C3264 1.367 . S
C3265 C3273 1.433 . S
C3266 H3262 0.929 . S
C3266 C3268 1.378 . S
C3266 C3270 1.350 . S
C3267 C3270 1.463 . S
C3267 C3272 1.350 . S
C3267 N3275 1.427 . S
C3268 H3259 0.930 . S
C3268 C3266 1.378 . S
C3268 C3269 1.367 . S
C3269 C3268 1.367 . S
C3269 C3271 1.433 . S
C3270 C3266 1.350 . S
C3270 C3267 1.463 . S
C3270 N3274 1.427 . S
C3271 H3261 0.929 . S
C3271 C3269 1.433 . S
C3271 N3274 1.384 . S
C3272 H3263 0.929 . S
C3272 C3264 1.378 . S
C3272 C3267 1.350 . S
C3273 H3260 0.929 . S
C3273 C3265 1.433 . S
C3273 N3275 1.384 . S
N3274 C3270 1.427 . S
N3274 C3271 1.384 . S
N3275 C3267 1.427 . S
N3275 C3273 1.384 . S
H3276 C3282 0.930 . S
H3277 C3286 0.930 . S
H3278 C3291 0.929 . S
H3279 C3289 0.929 . S
H3280 C3284 0.929 . S
H3281 C3290 0.929 . S
C3282 H3276 0.930 . S
C3282 C3283 1.367 . S
C3282 C3290 1.378 . S
C3283 C3282 1.367 . S
C3283 C3291 1.433 . S
C3284 H3280 0.929 . S
C3284 C3286 1.378 . S
C3284 C3288 1.350 . S
C3285 C3288 1.463 . S
C3285 C3290 1.350 . S
C3285 N3293 1.427 . S
C3286 H3277 0.930 . S
C3286 C3284 1.378 . S
C3286 C3287 1.367 . S
C3287 C3286 1.367 . S
C3287 C3289 1.433 . S
C3288 C3284 1.350 . S
C3288 C3285 1.463 . S
C3288 N3292 1.427 . S
C3289 H3279 0.929 . S
C3289 C3287 1.433 . S
C3289 N3292 1.384 . S
C3290 H3281 0.929 . S
C3290 C3282 1.378 . S
C3290 C3285 1.350 . S
C3291 H3278 0.929 . S
C3291 C3283 1.433 . S
C3291 N3293 1.384 . S
N3292 C3288 1.427 . S
N3292 C3289 1.384 . S
N3293 C3285 1.427 . S
N3293 C3291 1.384 . S
H3294 C3300 0.930 . S
H3295 C3304 0.930 . S
H3296 C3309 0.929 . S
H3297 C3307 0.929 . S
H3298 C3302 0.929 . S
H3299 C3308 0.929 . S
C3300 H3294 0.930 . S
C3300 C3301 1.367 . S
C3300 C3308 1.378 . S
C3301 C3300 1.367 . S
C3301 C3309 1.433 . S
C3302 H3298 0.929 . S
C3302 C3304 1.378 . S
C3302 C3306 1.350 . S
C3303 C3306 1.463 . S
C3303 C3308 1.350 . S
C3303 N3311 1.427 . S
C3304 H3295 0.930 . S
C3304 C3302 1.378 . S
C3304 C3305 1.367 . S
C3305 C3304 1.367 . S
C3305 C3307 1.433 . S
C3306 C3302 1.350 . S
C3306 C3303 1.463 . S
C3306 N3310 1.427 . S
C3307 H3297 0.929 . S
C3307 C3305 1.433 . S
C3307 N3310 1.384 . S
C3308 H3299 0.929 . S
C3308 C3300 1.378 . S
C3308 C3303 1.350 . S
C3309 H3296 0.929 . S
C3309 C3301 1.433 . S
C3309 N3311 1.384 . S
N3310 C3306 1.427 . S
N3310 C3307 1.384 . S
N3311 C3303 1.427 . S
N3311 C3309 1.384 . S
H3312 C3318 0.930 . S
H3313 C3322 0.930 . S
H3314 C3327 0.929 . S
H3315 C3325 0.929 . S
H3316 C3320 0.929 . S
H3317 C3326 0.929 . S
C3318 H3312 0.930 . S
C3318 C3319 1.367 . S
C3318 C3326 1.378 . S
C3319 C3318 1.367 . S
C3319 C3327 1.433 . S
C3320 H3316 0.929 . S
C3320 C3322 1.378 . S
C3320 C3324 1.350 . S
C3321 C3324 1.463 . S
C3321 C3326 1.350 . S
C3321 N3329 1.427 . S
C3322 H3313 0.930 . S
C3322 C3320 1.378 . S
C3322 C3323 1.367 . S
C3323 C3322 1.367 . S
C3323 C3325 1.433 . S
C3324 C3320 1.350 . S
C3324 C3321 1.463 . S
C3324 N3328 1.427 . S
C3325 H3315 0.929 . S
C3325 C3323 1.433 . S
C3325 N3328 1.384 . S
C3326 H3317 0.929 . S
C3326 C3318 1.378 . S
C3326 C3321 1.350 . S
C3327 H3314 0.929 . S
C3327 C3319 1.433 . S
C3327 N3329 1.384 . S
N3328 C3324 1.427 . S
N3328 C3325 1.384 . S
N3329 C3321 1.427 . S
N3329 C3327 1.384 . S
H3330 C3336 0.930 . S
H3331 C3340 0.930 . S
H3332 C3345 0.929 . S
H3333 C3343 0.929 . S
H3334 C3338 0.929 . S
H3335 C3344 0.929 . S
C3336 H3330 0.930 . S
C3336 C3337 1.367 . S
C3336 C3344 1.378 . S
C3337 C3336 1.367 . S
C3337 C3345 1.433 . S
C3338 H3334 0.929 . S
C3338 C3340 1.378 . S
C3338 C3342 1.350 . S
C3339 C3342 1.463 . S
C3339 C3344 1.350 . S
C3339 N3347 1.427 . S
C3340 H3331 0.930 . S
C3340 C3338 1.378 . S
C3340 C3341 1.367 . S
C3341 C3340 1.367 . S
C3341 C3343 1.433 . S
C3342 C3338 1.350 . S
C3342 C3339 1.463 . S
C3342 N3346 1.427 . S
C3343 H3333 0.929 . S
C3343 C3341 1.433 . S
C3343 N3346 1.384 . S
C3344 H3335 0.929 . S
C3344 C3336 1.378 . S
C3344 C3339 1.350 . S
C3345 H3332 0.929 . S
C3345 C3337 1.433 . S
C3345 N3347 1.384 . S
N3346 C3342 1.427 . S
N3346 C3343 1.384 . S
N3347 C3339 1.427 . S
N3347 C3345 1.384 . S
H3348 C3354 0.930 . S
H3349 C3358 0.930 . S
H3350 C3363 0.929 . S
H3351 C3361 0.929 . S
H3352 C3356 0.929 . S
H3353 C3362 0.929 . S
C3354 H3348 0.930 . S
C3354 C3355 1.367 . S
C3354 C3362 1.378 . S
C3355 C3354 1.367 . S
C3355 C3363 1.433 . S
C3356 H3352 0.929 . S
C3356 C3358 1.378 . S
C3356 C3360 1.350 . S
C3357 C3360 1.463 . S
C3357 C3362 1.350 . S
C3357 N3365 1.427 . S
C3358 H3349 0.930 . S
C3358 C3356 1.378 . S
C3358 C3359 1.367 . S
C3359 C3358 1.367 . S
C3359 C3361 1.433 . S
C3360 C3356 1.350 . S
C3360 C3357 1.463 . S
C3360 N3364 1.427 . S
C3361 H3351 0.929 . S
C3361 C3359 1.433 . S
C3361 N3364 1.384 . S
C3362 H3353 0.929 . S
C3362 C3354 1.378 . S
C3362 C3357 1.350 . S
C3363 H3350 0.929 . S
C3363 C3355 1.433 . S
C3363 N3365 1.384 . S
N3364 C3360 1.427 . S
N3364 C3361 1.384 . S
N3365 C3357 1.427 . S
N3365 C3363 1.384 . S
H3366 C3372 0.930 . S
H3367 C3376 0.930 . S
H3368 C3381 0.929 . S
H3369 C3379 0.929 . S
H3370 C3374 0.929 . S
H3371 C3380 0.929 . S
C3372 H3366 0.930 . S
C3372 C3373 1.367 . S
C3372 C3380 1.378 . S
C3373 C3372 1.367 . S
C3373 C3381 1.433 . S
C3374 H3370 0.929 . S
C3374 C3376 1.378 . S
C3374 C3378 1.350 . S
C3375 C3378 1.463 . S
C3375 C3380 1.350 . S
C3375 N3383 1.427 . S
C3376 H3367 0.930 . S
C3376 C3374 1.378 . S
C3376 C3377 1.367 . S
C3377 C3376 1.367 . S
C3377 C3379 1.433 . S
C3378 C3374 1.350 . S
C3378 C3375 1.463 . S
C3378 N3382 1.427 . S
C3379 H3369 0.929 . S
C3379 C3377 1.433 . S
C3379 N3382 1.384 . S
C3380 H3371 0.929 . S
C3380 C3372 1.378 . S
C3380 C3375 1.350 . S
C3381 H3368 0.929 . S
C3381 C3373 1.433 . S
C3381 N3383 1.384 . S
N3382 C3378 1.427 . S
N3382 C3379 1.384 . S
N3383 C3375 1.427 . S
N3383 C3381 1.384 . S
C1663 C101 2.030 . S
C1667 C368 2.030 . S
C1681 C57 1.790 . S
C1685 C470 1.812 . S
C1699 C70 1.710 . S
C1703 C536 1.709 . S
C1721 C622 1.403 . S
C1717 C82 1.475 . S
C1735 C23 1.481 . S
C1739 C706 1.404 . S
C1757 C788 1.708 . S
C1753 C29 1.711 . S
C1775 C890 1.808 . S
C1771 C49 1.776 . S
C1789 C10 2.028 . S
C1793 C956 2.028 . S
C1811 C386 1.616 . S
C1807 C218 1.648 . S
C1825 C226 0.930 . S
C1829 C454 0.917 . S
C1847 C554 1.140 . S
C1843 C251 1.139 . S
C1865 C620 1.547 . S
C1861 C159 1.555 1_556 S
C1879 C211 1.550 . S
C1883 C704 1.545 . S
C1901 C806 1.153 . S
C1897 C225 1.133 . S
C1919 C874 0.886 . S
C1915 C252 0.928 . S
C1937 C974 1.612 . S
C1933 C166 1.644 . S
C1955 C370 1.044 . S
C1951 C147 1.047 . S
C1969 C263 1.610 . S
C1973 C1058 1.614 . S
C1991 C1126 1.379 . S
C1987 C309 1.418 . S
C2009 C1208 0.738 . S
C2005 C291 0.734 . S
C2023 C108 1.049 . S
C2027 C958 1.047 . S
C2041 C121 1.418 . S
C2045 C538 1.365 . S
C2059 C302 1.608 . S
C2063 C1310 1.623 . S
C2081 C1376 0.730 . S
C2077 C276 0.736 . S
C2099 C379 2.214 1_565 S
C2095 C55 2.242 . S
C2117 C1383 2.100 . S
C2113 C96 2.100 . S
C2131 C88 2.045 . S
C2135 C547 2.051 . S
C2149 C75 1.668 . S
C2153 C1305 1.542 . S
C2171 C717 1.553 . S
C2167 C4 1.665 . S
C2185 C44 2.050 . S
C2189 C1135 2.061 . S
C2207 C879 2.096 1_565 S
C2203 C31 2.100 . S
C2225 C1471 2.265 . S
C2221 C18 2.242 . S
C2243 C375 1.888 1_556 S
C2239 C133 1.933 . S
C2261 C1389 1.058 . S
C2257 C296 1.127 . S
C2275 C107 1.369 . S
C2279 C543 1.351 . S
C2293 C264 1.852 . S
C2297 C1303 1.851 . S
C2311 C140 1.853 . S
C2315 C715 1.852 . S
C2333 C1131 1.352 . S
C2329 C289 1.371 . S
C2347 C114 1.132 . S
C2351 C885 1.044 . S
C2365 C265 1.935 . S
C2369 C1467 1.892 . S
C2383 C179 1.107 . S
C2387 C381 1.065 . S
C2401 C161 1.859 . S
C2405 C1047 1.845 . S
C2419 C244 1.514 . S
C2423 C801 1.409 . S
C2437 C224 1.067 . S
C2441 C1219 1.068 . S
C2459 C1473 1.069 . S
C2455 C257 1.104 . S
C2473 C199 1.511 . S
C2477 C549 1.410 . S
C2495 C627 1.839 . S
C2491 C237 1.860 . S
C2513 C463 1.066 . S
C2509 C185 1.067 . S
C2527 C69 2.029 . S
C2531 C1544 2.028 . S
C2549 C1394 1.818 . S
C2545 C83 1.786 . S
C2563 C94 1.711 . S
C2567 C1628 1.709 . S
C2581 C56 1.434 1_655 S
C2585 C1294 1.406 . S
C2599 C42 1.492 . S
C2603 C1042 1.405 . S
C2621 C1124 1.708 . S
C2617 C3 1.711 . S
C2639 C1226 1.813 . S
C2635 C16 1.787 . S
C2657 C1460 2.026 . S
C2653 C36 2.028 . S
C2675 C1562 1.615 . S
C2671 C238 1.649 . S
C2689 C174 0.924 . S
C2693 C1378 0.887 . S
C2711 C1646 1.154 . S
C2707 C186 1.141 . S
C2729 C1292 1.548 . S
C2725 C198 1.549 . S
C2747 C1040 1.547 . S
C2743 C239 1.549 . S
C2761 C173 1.143 . S
C2765 C1142 1.143 . S
C2783 C1210 0.895 . S
C2779 C187 0.923 . S
C2797 C205 1.647 . S
C2801 C1478 1.606 . S
C2819 C1546 1.025 . S
C2815 C290 1.056 . S
C2833 C122 1.608 . S
C2837 C722 1.622 . S
C2855 C790 1.368 . S
C2851 C134 1.427 1_565 S
C2873 C872 0.738 . S
C2869 C148 0.737 . S
C2891 C1462 1.031 . S
C2887 C283 1.049 . S
C2905 C270 1.420 . S
C2909 C1630 1.360 . S
C2927 C638 1.622 . S
C2923 C135 1.606 . S
C2945 C452 0.736 . S
C2941 C109 0.730 . S
C2959 C81 2.246 . S
C2963 C1555 2.267 . S
C2981 C459 2.098 . S
C2977 C68 2.101 . S
C2995 C62 2.042 . S
C2999 C1639 2.051 . S
C3013 C95 1.667 . S
C3017 C633 1.536 . S
C3031 C30 1.667 . S
C3035 C1053 1.552 . S
C3053 C799 2.049 . S
C3049 C17 2.042 . S
C3067 C5 2.103 . S
C3071 C1215 2.095 . S
C3085 C43 2.245 . S
C3089 C967 2.258 . S
C3107 C1551 1.888 . S
C3103 C304 1.933 . S
C3121 C153 1.125 . S
C3125 C465 1.046 . S
C3143 C1635 1.331 1_656 S
C3139 C278 1.371 . S
C3157 C127 1.851 . S
C3161 C631 1.850 . S
C3175 C303 1.847 . S
C3179 C1051 1.846 . S
C3197 C795 1.352 . S
C3193 C146 1.370 . S
C3211 C277 1.128 . S
C3215 C1221 1.062 . S
C3233 C963 1.891 . S
C3229 C120 1.932 . S
C3251 C1557 1.071 . S
C3247 C231 1.104 . S
C3269 C711 1.838 1_565 S
C3265 C200 1.861 . S
C3283 C212 1.511 . S
C3287 C1137 1.428 . S
C3305 C883 1.069 . S
C3301 C172 1.069 . S
C3319 C192 1.110 . S
C3323 C969 1.050 . S
C3337 C160 1.513 . S
C3341 C1641 1.409 . S
C3359 C1299 1.840 . S
C3355 C213 1.863 . S
C3377 C1387 1.066 . S
C3373 C250 1.067 . S
