# Generated by pormake.
# Topology anh, (6,3)-cn, num edge types: 1
# Building blocks:
#     Node 0, Type 0, BuildingBlock: NUHQIS_clean_sbu_0, # of connection points: 6
#     Node 1, Type 0, BuildingBlock: NUHQIS_clean_sbu_0, # of connection points: 6
#     Node 2, Type 0, BuildingBlock: NUHQIS_clean_sbu_0, # of connection points: 6
#     Node 3, Type 1, BuildingBlock: OLANEW_clean_sbu_2, # of connection points: 3
#     Node 4, Type 1, BuildingBlock: OLANEW_clean_sbu_2, # of connection points: 3
#     Node 5, Type 1, BuildingBlock: OLANEW_clean_sbu_2, # of connection points: 3
#     Node 6, Type 1, BuildingBlock: OLANEW_clean_sbu_2, # of connection points: 3
#     Node 7, Type 1, BuildingBlock: OLANEW_clean_sbu_2, # of connection points: 3
#     Node 8, Type 1, BuildingBlock: OLANEW_clean_sbu_2, # of connection points: 3
#     Edge 9, Type (0, 1), BuildingBlock: FUNLAD_clean_linker_0, # of connection points: 2
#     Edge 10, Type (0, 1), BuildingBlock: FUNLAD_clean_linker_0, # of connection points: 2
#     Edge 11, Type (0, 1), BuildingBlock: FUNLAD_clean_linker_0, # of connection points: 2
#     Edge 12, Type (0, 1), BuildingBlock: FUNLAD_clean_linker_0, # of connection points: 2
#     Edge 13, Type (0, 1), BuildingBlock: FUNLAD_clean_linker_0, # of connection points: 2
#     Edge 14, Type (0, 1), BuildingBlock: FUNLAD_clean_linker_0, # of connection points: 2
#     Edge 15, Type (0, 1), BuildingBlock: FUNLAD_clean_linker_0, # of connection points: 2
#     Edge 16, Type (0, 1), BuildingBlock: FUNLAD_clean_linker_0, # of connection points: 2
#     Edge 17, Type (0, 1), BuildingBlock: FUNLAD_clean_linker_0, # of connection points: 2
#     Edge 18, Type (0, 1), BuildingBlock: FUNLAD_clean_linker_0, # of connection points: 2
#     Edge 19, Type (0, 1), BuildingBlock: FUNLAD_clean_linker_0, # of connection points: 2
#     Edge 20, Type (0, 1), BuildingBlock: FUNLAD_clean_linker_0, # of connection points: 2
#     Edge 21, Type (0, 1), BuildingBlock: FUNLAD_clean_linker_0, # of connection points: 2
#     Edge 22, Type (0, 1), BuildingBlock: FUNLAD_clean_linker_0, # of connection points: 2
#     Edge 23, Type (0, 1), BuildingBlock: FUNLAD_clean_linker_0, # of connection points: 2
#     Edge 24, Type (0, 1), BuildingBlock: FUNLAD_clean_linker_0, # of connection points: 2
#     Edge 25, Type (0, 1), BuildingBlock: FUNLAD_clean_linker_0, # of connection points: 2
#     Edge 26, Type (0, 1), BuildingBlock: FUNLAD_clean_linker_0, # of connection points: 2
# Relax obj value: 0.187
# Max RMSD: 0.127
# Mean RMSD: 0.109
data_MOF--net-anh--node1-NUHQIS_clean_sbu_0--node2-OLANEW_clean_sbu_2--edge1-FUNLAD_clean_linker_0
_symmetry_space_group_name_H-M    P1
_symmetry_Int_Tables_number       1
_symmetry_cell_setting            triclinic
loop_
_symmetry_equiv_pos_as_xyz
'x, y, z'
_cell_length_a     41.231192
_cell_length_b     41.318889
_cell_length_c     58.322875
_cell_angle_alpha  90.29833
_cell_angle_beta   93.332725
_cell_angle_gamma 119.68187
loop_
_atom_site_label
_atom_site_type_symbol
_atom_site_fract_x
_atom_site_fract_y
_atom_site_fract_z
_atom_type_partial_charge
Tb0 Tb 0.09859 0.55917 0.16853 0.0
Eu1 Eu 0.05136 0.60336 0.16258 0.0
C2 C 0.07382 0.58393 0.21136 0.0
C3 C 1.00958 0.51456 0.16842 0.0
C4 C 0.17315 0.53412 0.16519 0.0
C5 C 0.22058 0.51591 0.16414 0.0
C6 C 0.18587 0.50924 0.17075 0.0
C7 C 0.19546 0.56591 0.15297 0.0
C8 C 0.23025 0.57262 0.1463 0.0
C9 C 0.2432 0.54768 0.15185 0.0
C10 C 0.1366 0.52657 0.17224 0.0
O11 O 0.10417 0.57811 0.13348 0.0
O12 O 0.04793 0.57581 0.1284 0.0
O13 O 0.11083 0.64646 0.15662 0.0
O14 O 0.13998 0.61816 0.17555 0.0
C15 C 0.07634 0.57524 0.11985 0.0
O16 O 1.01776 0.62067 0.14116 0.0
O17 O 0.03024 0.63744 0.17718 0.0
O18 O 0.07405 0.61075 0.19938 0.0
O19 O 0.07478 0.55605 0.20124 0.0
O20 O 0.04009 0.5149 0.16235 0.0
O21 O 1.00927 0.54563 0.17278 0.0
C22 C 0.14094 0.6479 0.16669 0.0
O23 O 0.13729 0.54956 0.18789 0.0
O24 O 0.11118 0.51947 0.15562 0.0
C25 C 0.96967 0.61959 0.16127 0.0
C26 C 0.89134 0.58407 0.16255 0.0
C27 C 0.90995 0.6128 0.14728 0.0
C28 C 0.94887 0.63048 0.14668 0.0
C29 C 0.95124 0.59161 0.17697 0.0
C30 C 0.91246 0.57418 0.17769 0.0
C31 C 1.00979 0.63467 0.15859 0.0
H32 H 0.22944 0.49584 0.16833 0.0
H33 H 0.16886 0.48452 0.18012 0.0
H34 H 0.18596 0.58546 0.14861 0.0
H35 H 0.24713 0.59746 0.13702 0.0
H36 H 0.89431 0.62103 0.13547 0.0
H37 H 0.9626 0.6518 0.13435 0.0
H38 H 0.96667 0.58232 0.18817 0.0
H39 H 0.89885 0.55173 0.18936 0.0
Tb40 Tb 0.58216 0.04711 0.50395 0.0
Eu41 Eu 0.4926 1.0068 0.48948 0.0
C42 C 0.52455 0.0176 0.5418 0.0
C43 C 0.53439 0.95938 0.50034 0.0
C44 C 0.67627 0.12431 0.51457 0.0
C45 C 0.72897 0.18093 0.53174 0.0
C46 C 0.70882 0.142 0.52932 0.0
C47 C 0.66457 0.14584 0.50182 0.0
C48 C 0.68456 0.18458 0.50425 0.0
C49 C 0.71651 0.20254 0.5196 0.0
C50 C 0.65133 0.08395 0.51504 0.0
O51 O 0.5772 0.06054 0.46812 0.0
O52 O 0.52016 1.01066 0.45682 0.0
O53 O 0.51525 0.06814 0.48404 0.0
O54 O 0.56567 0.08913 0.51016 0.0
C55 C 0.55251 0.03846 0.45184 0.0
O56 O 0.44261 0.96313 0.47066 0.0
O57 O 0.43869 1.00402 0.49192 0.0
O58 O 0.49978 0.01928 0.5275 0.0
O59 O 0.55503 0.01959 0.5346 0.0
O60 O 0.56643 0.98901 0.49624 0.0
O61 O 0.50392 0.96161 0.50233 0.0
C62 C 0.5415 0.09483 0.49765 0.0
O63 O 0.62565 0.07426 0.5296 0.0
O64 O 0.63741 0.0664 0.49515 0.0
C65 C 0.38904 0.94255 0.49114 0.0
C66 C 0.32884 0.88349 0.51152 0.0
C67 C 0.32234 0.9038 0.49432 0.0
C68 C 0.35227 0.9331 0.48419 0.0
C69 C 0.39577 0.92302 0.50866 0.0
C70 C 0.36588 0.89361 0.51873 0.0
C71 C 0.42037 0.97254 0.48005 0.0
H72 H 0.75339 0.19403 0.54377 0.0
H73 H 0.7178 0.12571 0.53958 0.0
H74 H 0.63917 0.13264 0.49059 0.0
H75 H 0.67463 0.20046 0.49436 0.0
H76 H 0.29409 0.89631 0.48821 0.0
H77 H 0.34671 0.94803 0.47072 0.0
H78 H 0.42415 0.93029 0.51434 0.0
H79 H 0.37171 0.87867 0.53205 0.0
Tb80 Tb 0.57311 0.56629 0.83728 0.0
Eu81 Eu 0.52418 0.476 0.8289 0.0
C82 C 0.54521 0.51394 0.87862 0.0
C83 C 0.61347 0.51874 0.83892 0.0
C84 C 0.59841 0.66533 0.84214 0.0
C85 C 0.59274 0.71558 0.85959 0.0
C86 C 0.60629 0.69062 0.86058 0.0
C87 C 0.57782 0.66614 0.82231 0.0
C88 C 0.56469 0.69147 0.8212 0.0
C89 C 0.57141 0.71588 0.84001 0.0
C90 C 0.60839 0.63595 0.84498 0.0
O91 O 0.55285 0.55821 0.80091 0.0
O92 O 0.54317 0.49918 0.79461 0.0
O93 O 0.48382 0.49663 0.81979 0.0
O94 O 0.51491 0.55162 0.84122 0.0
C95 C 0.54718 0.53056 0.78687 0.0
O96 O 0.51817 0.42486 0.81361 0.0
O97 O 0.47545 0.42224 0.83473 0.0
O98 O 0.51784 0.48906 0.86496 0.0
O99 O 0.5746 0.54183 0.87029 0.0
O100 O 0.61416 0.54892 0.8312 0.0
O101 O 0.58174 0.48943 0.84358 0.0
C102 C 0.48412 0.52495 0.83042 0.0
O103 O 0.59028 0.61189 0.86027 0.0
O104 O 0.61067 0.61976 0.82637 0.0
C105 C 0.49061 0.37405 0.83758 0.0
C106 C 0.50079 0.32071 0.86186 0.0
C107 C 0.49871 0.31982 0.83771 0.0
C108 C 0.49353 0.34618 0.82569 0.0
C109 C 0.49224 0.3748 0.86177 0.0
C110 C 0.49696 0.34807 0.87382 0.0
C111 C 0.48864 0.40347 0.82454 0.0
H112 H 0.59848 0.73434 0.87423 0.0
H113 H 0.6219 0.6902 0.87608 0.0
H114 H 0.5709 0.64652 0.80798 0.0
H115 H 0.54801 0.69098 0.806 0.0
H116 H 0.50106 0.29865 0.8281 0.0
H117 H 0.49249 0.34523 0.80707 0.0
H118 H 0.49054 0.39636 0.87137 0.0
H119 H 0.49856 0.34932 0.89243 0.0
O120 O 0.62123 0.12038 0.23854 0.0
Cd121 Cd 0.64619 0.1482 0.20125 0.0
O122 O 0.57117 0.06823 0.22532 0.0
Cd123 Cd 0.51736 1.01387 0.22503 0.0
O124 O 0.4646 0.95863 0.22137 0.0
C125 C 0.44324 0.94829 0.20291 0.0
O126 O 0.45262 0.97102 0.18577 0.0
C127 C 0.5921 0.08944 0.24231 0.0
C128 C 0.71229 0.21898 0.20097 0.0
O129 O 0.6799 0.21604 0.20164 0.0
O130 O 0.71383 0.18874 0.2013 0.0
O131 O 0.55532 0.4987 0.57058 0.0
Cd132 Cd 0.55853 0.47202 0.53291 0.0
O133 O 0.55824 0.55141 0.56019 0.0
Cd134 Cd 0.55795 0.60541 0.56164 0.0
O135 O 0.56135 0.66061 0.55654 0.0
C136 C 0.53818 0.66407 0.54274 0.0
O137 O 0.51133 0.63414 0.53164 0.0
C138 C 0.55583 0.52904 0.57594 0.0
C139 C 0.56003 0.40392 0.53183 0.0
O140 O 0.59019 0.4355 0.53486 0.0
O141 O 0.52903 0.4042 0.53008 0.0
O142 O 0.10146 0.5401 0.9022 0.0
Cd143 Cd 0.12099 0.5315 0.86414 0.0
O144 O 0.04592 0.53291 0.89149 0.0
Cd145 Cd 0.99099 0.53117 0.89302 0.0
O146 O 0.93479 0.52674 0.8876 0.0
C147 C 0.93176 0.55416 0.88017 0.0
O148 O 0.96242 0.58517 0.8762 0.0
C149 C 0.07124 0.53906 0.90737 0.0
C150 C 0.19198 0.53654 0.8621 0.0
O151 O 0.18827 0.56554 0.86095 0.0
O152 O 0.1625 0.50527 0.86495 0.0
O153 O 0.99614 0.55682 0.42471 0.0
Cd154 Cd 0.97997 0.54613 0.46451 0.0
O155 O 0.97185 0.5933 0.41883 0.0
Cd156 Cd 0.94401 0.57799 0.45095 0.0
O157 O 0.90548 0.53612 0.4733 0.0
C158 C 0.91295 0.53291 0.49434 0.0
O159 O 0.94514 0.55773 0.50457 0.0
C160 C 0.99034 0.57846 0.41182 0.0
C161 C 0.03588 0.60591 0.4912 0.0
O162 O 0.03741 0.57597 0.48813 0.0
O163 O 1.00758 0.60719 0.48203 0.0
O164 O 0.42046 0.97575 0.7543 0.0
Cd165 Cd 0.41139 0.96928 0.79542 0.0
O166 O 0.4797 0.0192 0.75971 0.0
Cd167 Cd 0.47823 0.02706 0.79649 0.0
O168 O 0.4836 0.04996 0.83111 0.0
C169 C 0.45496 0.04284 0.84182 0.0
O170 O 0.42159 0.01936 0.83231 0.0
C171 C 0.4518 0.99728 0.74623 0.0
C172 C 0.44277 0.92719 0.81217 0.0
O173 O 0.40815 0.9114 0.80502 0.0
O174 O 0.46197 0.96278 0.81222 0.0
O175 O 0.4873 0.33482 0.06568 0.0
Cd176 Cd 0.48743 0.30793 0.10277 0.0
O177 O 0.50307 0.38638 0.08534 0.0
Cd178 Cd 0.51084 0.44245 0.08923 0.0
O179 O 0.49477 0.48497 0.09293 0.0
C180 C 0.47281 0.48633 0.07725 0.0
O181 O 0.46293 0.46389 0.05897 0.0
C182 C 0.49635 0.36903 0.06602 0.0
C183 C 0.55978 0.35043 0.12261 0.0
O184 O 0.55029 0.32102 0.11016 0.0
O185 O 0.53448 0.35877 0.12655 0.0
C186 C 0.2907 0.56571 0.12231 0.0
C187 C 0.27974 0.55406 0.14455 0.0
C188 C 0.32349 0.5683 0.11481 0.0
C189 C 0.34587 0.55902 0.1294 0.0
C190 C 0.3359 0.54943 0.152 0.0
C191 C 0.30321 0.54686 0.15948 0.0
C192 C 0.37858 0.557 0.12164 0.0
C193 C 0.38325 0.55201 0.09946 0.0
C194 C 0.41052 0.54079 0.09245 0.0
C195 C 0.40259 0.51991 0.07176 0.0
C196 C 0.42412 0.50383 0.06617 0.0
C197 C 0.45415 0.50841 0.08117 0.0
H198 H 0.45065 0.56532 0.12207 0.0
C199 C 0.46394 0.53174 0.10097 0.0
C200 C 0.44251 0.54798 0.10651 0.0
H201 H 0.48742 0.53646 0.11264 0.0
H202 H 0.27328 0.57161 0.11042 0.0
H203 H 0.33076 0.57706 0.09752 0.0
H204 H 0.35281 0.54263 0.16375 0.0
H205 H 0.296 0.53866 0.17689 0.0
H206 H 0.39679 0.5549 0.13503 0.0
H207 H 0.36335 0.55112 0.08611 0.0
H208 H 0.37848 0.51438 0.06043 0.0
H209 H 0.41607 0.48638 0.05063 0.0
C210 C 0.77527 0.2647 0.52415 0.0
C211 C 0.73605 0.24362 0.52315 0.0
C212 C 0.7934 0.30362 0.52571 0.0
C213 C 0.77257 0.32219 0.52649 0.0
C214 C 0.73345 0.30099 0.52625 0.0
C215 C 0.71537 0.26215 0.5247 0.0
C216 C 0.79011 0.3632 0.52477 0.0
C217 C 0.82673 0.38709 0.52985 0.0
C218 C 0.8455 0.42646 0.52295 0.0
C219 C 0.88015 0.45219 0.53403 0.0
C220 C 0.90123 0.48785 0.52563 0.0
C221 C 0.88821 0.49818 0.50574 0.0
H222 H 0.80561 0.41846 0.49428 0.0
C223 C 0.85276 0.47309 0.49531 0.0
C224 C 0.83166 0.43761 0.50375 0.0
H225 H 0.84195 0.48022 0.47996 0.0
H226 H 0.7919 0.25119 0.52275 0.0
H227 H 0.82351 0.31884 0.52516 0.0
H228 H 0.71671 0.31453 0.52672 0.0
H229 H 0.6851 0.24661 0.52439 0.0
H230 H 0.77213 0.37384 0.51824 0.0
H231 H 0.84412 0.37733 0.53853 0.0
H232 H 0.89157 0.44424 0.54874 0.0
H233 H 0.92852 0.50655 0.53401 0.0
C234 C 0.55792 0.76224 0.8207 0.0
C235 C 0.55468 0.7403 0.83964 0.0
C236 C 0.54124 0.78455 0.82016 0.0
C237 C 0.52076 0.78502 0.83852 0.0
C238 C 0.51714 0.7627 0.85729 0.0
C239 C 0.5343 0.74083 0.85798 0.0
C240 C 0.50155 0.80726 0.83796 0.0
C241 C 0.51588 0.84046 0.82811 0.0
C242 C 0.49628 0.8623 0.82631 0.0
C243 C 0.51755 0.90114 0.82512 0.0
C244 C 0.50004 0.92238 0.82152 0.0
C245 C 0.46084 0.90504 0.8186 0.0
H246 H 0.43972 0.81497 0.82434 0.0
C247 C 0.43944 0.86619 0.8202 0.0
C248 C 0.45698 0.84498 0.82406 0.0
H249 H 0.40919 0.85205 0.8179 0.0
H250 H 0.57339 0.76216 0.80632 0.0
H251 H 0.54369 0.8007 0.80514 0.0
H252 H 0.50115 0.76232 0.87149 0.0
H253 H 0.53096 0.72369 0.87263 0.0
H254 H 0.47578 0.79661 0.84663 0.0
H255 H 0.54353 0.85269 0.82159 0.0
H256 H 0.54785 0.91508 0.82666 0.0
H257 H 0.51734 0.95226 0.82026 0.0
C258 C 0.82975 0.54867 0.13998 0.0
C259 C 0.84995 0.56207 0.16136 0.0
C260 C 0.79121 0.52432 0.13878 0.0
C261 C 0.77208 0.51288 0.15898 0.0
C262 C 0.79187 0.52779 0.18029 0.0
C263 C 0.83058 0.5519 0.18151 0.0
C264 C 0.73162 0.48511 0.15808 0.0
C265 C 0.71618 0.45619 0.14264 0.0
C266 C 0.6758 0.42793 0.14033 0.0
C267 C 0.64799 0.43531 0.14745 0.0
C268 C 0.61012 0.40933 0.1426 0.0
C269 C 0.59936 0.37561 0.13051 0.0
H270 H 0.68578 0.38735 0.12325 0.0
C271 C 0.62715 0.36774 0.12419 0.0
C272 C 0.66493 0.3937 0.12896 0.0
H273 H 0.61983 0.34204 0.11484 0.0
H274 H 0.84393 0.5559 0.12417 0.0
H275 H 0.7765 0.51417 0.12204 0.0
H276 H 0.7776 0.51977 0.19605 0.0
H277 H 0.84547 0.56215 0.19821 0.0
H278 H 0.71506 0.48739 0.17113 0.0
H279 H 0.73419 0.45247 0.1313 0.0
H280 H 0.65519 0.46166 0.15583 0.0
H281 H 0.58935 0.4163 0.1476 0.0
C282 C 0.2646 0.85137 0.526 0.0
C283 C 0.29695 0.85045 0.52075 0.0
C284 C 0.23273 0.81886 0.53171 0.0
C285 C 0.23249 0.78467 0.53196 0.0
C286 C 0.26572 0.78438 0.52841 0.0
C287 C 0.29763 0.81692 0.52278 0.0
C288 C 0.19762 0.74844 0.53369 0.0
C289 C 0.1639 0.74303 0.5257 0.0
C290 C 0.13009 0.70584 0.52096 0.0
C291 C 0.09584 0.70447 0.51537 0.0
C292 C 0.06464 0.67147 0.50677 0.0
C293 C 0.06703 0.63904 0.50352 0.0
H294 H 0.15765 0.67236 0.5226 0.0
C295 C 0.10057 0.63968 0.51036 0.0
C296 C 0.13187 0.67275 0.51891 0.0
H297 H 0.10325 0.6151 0.50808 0.0
H298 H 0.26367 0.87709 0.52518 0.0
H299 H 0.20817 0.82055 0.53536 0.0
H300 H 0.26641 0.75851 0.5287 0.0
H301 H 0.32216 0.81533 0.51882 0.0
H302 H 0.20073 0.72499 0.53907 0.0
H303 H 0.16132 0.76677 0.52022 0.0
H304 H 0.09358 0.72944 0.51673 0.0
H305 H 0.03909 0.67182 0.50182 0.0
C306 C 0.48313 0.27146 0.89109 0.0
C307 C 0.50696 0.29289 0.87426 0.0
C308 C 0.4854 0.24117 0.89996 0.0
C309 C 0.51165 0.23204 0.8921 0.0
C310 C 0.53764 0.25575 0.87692 0.0
C311 C 0.53514 0.28567 0.86794 0.0
C312 C 0.51002 0.19591 0.8965 0.0
C313 C 0.47751 0.16424 0.89908 0.0
C314 C 0.47097 0.12726 0.8907 0.0
C315 C 0.50045 0.12013 0.88736 0.0
C316 C 0.49461 0.0905 0.8728 0.0
C317 C 0.4591 0.06705 0.86179 0.0
H318 H 0.4112 0.10514 0.88477 0.0
C319 C 0.4287 0.07097 0.86779 0.0
C320 C 0.43463 0.10086 0.88212 0.0
H321 H 0.40084 0.05294 0.85991 0.0
H322 H 0.46145 0.27683 0.89643 0.0
H323 H 0.4657 0.22425 0.91223 0.0
H324 H 0.55843 0.24968 0.87075 0.0
H325 H 0.55437 0.30234 0.85535 0.0
H326 H 0.53439 0.19422 0.89219 0.0
H327 H 0.45275 0.16604 0.90223 0.0
H328 H 0.52852 0.13855 0.89473 0.0
H329 H 0.51838 0.08741 0.86905 0.0
C330 C 0.56526 0.91971 0.50541 0.0
C331 C 0.53269 0.92282 0.50408 0.0
C332 C 0.56339 0.8854 0.50984 0.0
C333 C 0.52879 0.85327 0.51305 0.0
C334 C 0.49632 0.85643 0.51135 0.0
C335 C 0.49821 0.89062 0.50707 0.0
C336 C 0.52478 0.81573 0.51737 0.0
C337 C 0.55278 0.80987 0.52556 0.0
C338 C 0.5479 0.77198 0.53005 0.0
C339 C 0.5742 0.76896 0.54505 0.0
C340 C 0.57101 0.73411 0.5494 0.0
C341 C 0.54153 0.70127 0.53868 0.0
H342 H 0.4982 0.73988 0.50701 0.0
C343 C 0.51536 0.70429 0.52354 0.0
C344 C 0.51851 0.73906 0.51922 0.0
H345 H 0.49243 0.67972 0.51479 0.0
H346 H 0.59232 0.94384 0.50316 0.0
H347 H 0.58903 0.88419 0.5104 0.0
H348 H 0.46921 0.83229 0.51353 0.0
H349 H 0.47246 0.89172 0.50615 0.0
H350 H 0.49676 0.792 0.5146 0.0
H351 H 0.58016 0.83371 0.53015 0.0
H352 H 0.59734 0.79369 0.55353 0.0
H353 H 0.5918 0.73298 0.56108 0.0
C354 C 0.68381 0.54975 0.83894 0.0
C355 C 0.64938 0.51844 0.84335 0.0
C356 C 0.71766 0.54993 0.84369 0.0
C357 C 0.71812 0.51879 0.85315 0.0
C358 C 0.68362 0.4873 0.85717 0.0
C359 C 0.64977 0.48714 0.85243 0.0
C360 C 0.75355 0.51748 0.85846 0.0
C361 C 0.78799 0.54806 0.86131 0.0
C362 C 0.824 0.54776 0.86628 0.0
C363 C 0.85776 0.5811 0.86402 0.0
C364 C 0.89237 0.58296 0.86854 0.0
C365 C 0.89447 0.55155 0.87566 0.0
H366 H 0.80092 0.49004 0.87599 0.0
C367 C 0.86079 0.51812 0.87817 0.0
C368 C 0.82596 0.51619 0.87354 0.0
H369 H 0.8613 0.49338 0.8837 0.0
H370 H 0.68471 0.5743 0.83179 0.0
H371 H 0.7432 0.5744 0.83953 0.0
H372 H 0.68281 0.46272 0.86422 0.0
H373 H 0.62389 0.46244 0.85602 0.0
H374 H 0.75067 0.4901 0.8603 0.0
H375 H 0.79046 0.57533 0.85982 0.0
H376 H 0.85745 0.60599 0.8586 0.0
H377 H 0.91757 0.60926 0.86645 0.0
C378 C 0.20889 0.68767 0.18098 0.0
C379 C 0.17659 0.68443 0.1691 0.0
C380 C 0.24199 0.72231 0.1839 0.0
C381 C 0.24368 0.75475 0.17503 0.0
C382 C 0.21156 0.75127 0.16286 0.0
C383 C 0.17851 0.71675 0.16001 0.0
C384 C 0.27834 0.79242 0.1773 0.0
C385 C 0.30756 0.80218 0.19297 0.0
C386 C 0.34189 0.84015 0.19516 0.0
C387 C 0.3651 0.85088 0.21567 0.0
C388 C 0.39778 0.88587 0.21833 0.0
C389 C 0.40836 0.9111 0.20045 0.0
H390 H 0.33659 0.85817 0.16084 0.0
C391 C 0.38535 0.9003 0.17986 0.0
C392 C 0.35271 0.86537 0.1772 0.0
H393 H 0.39266 0.91877 0.1656 0.0
H394 H 0.20866 0.66342 0.18813 0.0
H395 H 0.26619 0.72326 0.19284 0.0
H396 H 0.21189 0.77552 0.15561 0.0
H397 H 0.15439 0.71552 0.15071 0.0
H398 H 0.27875 0.8134 0.16604 0.0
H399 H 0.30594 0.78214 0.20545 0.0
H400 H 0.35787 0.83212 0.22978 0.0
H401 H 0.4148 0.89307 0.2344 0.0
C402 C 0.57043 0.16055 0.5145 0.0
C403 C 0.54265 0.13144 0.50001 0.0
C404 C 0.57036 0.19426 0.51764 0.0
C405 C 0.54252 0.19991 0.50624 0.0
C406 C 0.51513 0.1709 0.49156 0.0
C407 C 0.51519 0.13726 0.48844 0.0
C408 C 0.53991 0.23467 0.50954 0.0
C409 C 0.56684 0.2668 0.52024 0.0
C410 C 0.5638 0.30132 0.52328 0.0
C411 C 0.59669 0.33563 0.52832 0.0
C412 C 0.59543 0.36869 0.53132 0.0
C413 C 0.56114 0.36844 0.52958 0.0
H414 H 0.50313 0.27521 0.51881 0.0
C415 C 0.52808 0.33407 0.52499 0.0
C416 C 0.52933 0.30095 0.52193 0.0
H417 H 0.50112 0.33271 0.52365 0.0
H418 H 0.59207 0.15717 0.52373 0.0
H419 H 0.5918 0.21526 0.52938 0.0
H420 H 0.49323 0.17411 0.48253 0.0
H421 H 0.49331 0.1156 0.47716 0.0
H422 H 0.5147 0.23371 0.50212 0.0
H423 H 0.59315 0.26887 0.52637 0.0
H424 H 0.62366 0.33699 0.52971 0.0
H425 H 0.62148 0.39454 0.53488 0.0
C426 C 0.44717 0.55387 0.84461 0.0
C427 C 0.44829 0.5254 0.8319 0.0
C428 C 0.41311 0.55286 0.84751 0.0
C429 C 0.37911 0.52336 0.83762 0.0
C430 C 0.38043 0.49526 0.82466 0.0
C431 C 0.41444 0.49626 0.82179 0.0
C432 C 0.34166 0.51972 0.84112 0.0
C433 C 0.33643 0.54755 0.84903 0.0
C434 C 0.29885 0.54354 0.85249 0.0
C435 C 0.29556 0.57581 0.8535 0.0
C436 C 0.26111 0.57358 0.85681 0.0
C437 C 0.2289 0.53895 0.85944 0.0
H438 H 0.26798 0.48335 0.85556 0.0
C439 C 0.23221 0.50665 0.85888 0.0
C440 C 0.2667 0.50886 0.85549 0.0
H441 H 0.20808 0.47951 0.86097 0.0
H442 H 0.47258 0.57668 0.85281 0.0
H443 H 0.41373 0.57478 0.85804 0.0
H444 H 0.35489 0.47208 0.81686 0.0
H445 H 0.41403 0.47375 0.81194 0.0
H446 H 0.31729 0.49295 0.83622 0.0
H447 H 0.36046 0.57516 0.85229 0.0
H448 H 0.31975 0.60297 0.8515 0.0
H449 H 0.25973 0.59908 0.85719 0.0
C450 C 0.94202 0.4765 0.17799 0.0
C451 C 0.97493 0.47803 0.1711 0.0
C452 C 0.90984 0.44218 0.18123 0.0
C453 C 0.90965 0.40825 0.17772 0.0
C454 C 0.94248 0.40995 0.17058 0.0
C455 C 0.97459 0.44421 0.16736 0.0
C456 C 0.87628 0.37053 0.18093 0.0
C457 C 0.84434 0.3644 0.1901 0.0
C458 C 0.81121 0.3265 0.19303 0.0
C459 C 0.77626 0.3236 0.19602 0.0
C460 C 0.74441 0.28894 0.19884 0.0
C461 C 0.74659 0.25602 0.19897 0.0
H462 H 0.83991 0.29432 0.19201 0.0
C463 C 0.78165 0.25885 0.19644 0.0
C464 C 0.81354 0.29357 0.19354 0.0
H465 H 0.78448 0.23415 0.19657 0.0
H466 H 0.94106 0.5019 0.18099 0.0
H467 H 0.88538 0.44276 0.18635 0.0
H468 H 0.94347 0.38456 0.16759 0.0
H469 H 0.99927 0.44408 0.16205 0.0
H470 H 0.87844 0.34666 0.17526 0.0
H471 H 0.84147 0.38797 0.19538 0.0
H472 H 0.77343 0.34831 0.19594 0.0
H473 H 0.71798 0.28797 0.20077 0.0
C474 C 0.04917 0.5714 0.07947 0.0
C475 C 0.07727 0.57176 0.09455 0.0
C476 C 0.05024 0.56829 0.0556 0.0
C477 C 0.07937 0.56516 0.04624 0.0
C478 C 0.10739 0.5656 0.06141 0.0
C479 C 0.10639 0.56882 0.0852 0.0
C480 C 0.08262 0.56247 0.02098 0.0
C481 C 0.05547 0.55595 1.00444 0.0
C482 C 0.05998 0.55319 0.97937 0.0
C483 C 0.028 0.53351 0.96418 0.0
C484 C 0.03129 0.52945 0.94067 0.0
C485 C 0.06671 0.54525 0.9318 0.0
H486 H 0.12075 0.58671 0.98104 0.0
C487 C 0.09863 0.56579 0.94688 0.0
C488 C 0.09537 0.57001 0.97028 0.0
H489 H 0.12636 0.57871 0.94056 0.0
H490 H 1.02642 0.57383 0.08606 0.0
H491 H 0.02843 0.56891 0.04475 0.0
H492 H 0.13032 0.56344 0.05483 0.0
H493 H 0.12851 0.56898 0.09625 0.0
H494 H 0.10859 0.56479 0.01596 0.0
H495 H 0.02829 0.55068 0.0092 0.0
H496 H 1.00034 0.52048 0.97061 0.0
H497 H 1.00616 0.51285 0.92968 0.0
C498 C 0.53273 0.02462 0.40971 0.0
C499 C 0.56019 0.0462 0.42727 0.0
C500 C 0.53927 0.03243 0.38657 0.0
C501 C 0.5737 0.06193 0.38031 0.0
C502 C 0.60112 0.08342 0.39789 0.0
C503 C 0.59453 0.07566 0.42106 0.0
C504 C 0.58167 0.07228 0.35591 0.0
C505 C 0.56185 0.04988 0.33739 0.0
C506 C 0.56982 0.06082 0.31309 0.0
C507 C 0.55641 0.03277 0.29558 0.0
C508 C 0.56319 0.04181 0.27256 0.0
C509 C 0.58324 0.07921 0.26646 0.0
H510 H 0.59932 0.12093 0.31958 0.0
C511 C 0.59632 0.1073 0.28391 0.0
C512 C 0.58951 0.09831 0.30689 0.0
H513 H 0.61168 0.13644 0.27979 0.0
H514 H 0.50579 1.00188 0.41382 0.0
H515 H 0.51684 1.01571 0.37381 0.0
H516 H 0.62782 0.10648 0.39371 0.0
H517 H 0.61631 0.09295 0.43408 0.0
H518 H 0.6058 0.09927 0.3533 0.0
H519 H 0.53966 0.0217 0.33987 0.0
H520 H 0.54106 1.00365 0.29975 0.0
H521 H 0.55365 0.01944 0.25972 0.0
C522 C 0.55893 0.56703 0.75053 0.0
C523 C 0.54257 0.53288 0.7616 0.0
C524 C 0.55535 0.56772 0.72639 0.0
C525 C 0.53473 0.53421 0.71306 0.0
C526 C 0.51752 0.50045 0.72435 0.0
C527 C 0.52165 0.49973 0.74818 0.0
C528 C 0.53019 0.53223 0.68745 0.0
C529 C 0.55454 0.55754 0.67356 0.0
C530 C 0.55233 0.55015 0.64821 0.0
C531 C 0.56811 0.58002 0.63335 0.0
C532 C 0.5684 0.57352 0.60969 0.0
C533 C 0.55327 0.53697 0.60047 0.0
H534 H 0.52604 0.48976 0.64962 0.0
C535 C 0.53752 0.5072 0.61537 0.0
C536 C 0.53712 0.51362 0.63884 0.0
H537 H 0.52593 0.47869 0.60894 0.0
H538 H 0.57505 0.59305 0.76045 0.0
H539 H 0.56843 0.59435 0.71833 0.0
H540 H 0.5013 0.47422 0.71462 0.0
H541 H 0.50822 0.47293 0.7561 0.0
H542 H 0.50668 0.50686 0.67973 0.0
H543 H 0.57764 0.58357 0.68084 0.0
H544 H 0.58066 0.60847 0.64009 0.0
H545 H 0.58171 0.59716 0.59887 0.0
C546 C 0.48567 1.01186 0.57457 0.0
C547 C 0.51782 1.01329 0.56652 0.0
C548 C 0.47979 1.00909 0.59798 0.0
C549 C 0.50582 1.00734 0.6139 0.0
C550 C 0.53787 1.00867 0.60583 0.0
C551 C 0.54378 1.01148 0.5824 0.0
C552 C 0.50165 1.00626 0.63907 0.0
C553 C 0.46874 0.99483 0.64845 0.0
C554 C 0.46524 0.99557 0.67364 0.0
C555 C 0.43056 0.97181 0.68242 0.0
C556 C 0.42605 0.97225 0.70598 0.0
C557 C 0.45617 0.99678 0.72124 0.0
H558 H 0.52202 0.04022 0.68277 0.0
C559 C 0.49074 0.02092 0.71239 0.0
C560 C 0.49522 0.02048 0.68888 0.0
H561 H 0.51446 0.04046 0.72363 0.0
H562 H 0.4652 1.01346 0.56283 0.0
H563 H 0.45532 1.00937 0.60346 0.0
H564 H 0.55855 1.0077 0.6177 0.0
H565 H 0.5689 1.01261 0.57679 0.0
H566 H 0.52671 1.01435 0.65021 0.0
H567 H 0.44306 0.98329 0.63746 0.0
H568 H 0.40687 0.95266 0.67103 0.0
H569 H 0.39902 0.95339 0.7122 0.0
C570 C 0.50819 0.48659 0.91245 0.0
C571 C 0.54329 0.50792 0.90353 0.0
C572 C 0.5055 0.47638 0.93528 0.0
C573 C 0.53796 0.48658 0.94964 0.0
C574 C 0.57308 0.50987 0.94112 0.0
C575 C 0.57577 0.52053 0.91822 0.0
C576 C 0.53596 0.47251 0.97325 0.0
C577 C 0.50709 0.43982 0.97924 0.0
C578 C 0.50478 0.42303 1.00201 0.0
C579 C 0.47869 0.38505 1.00392 0.0
C580 C 0.47571 0.36763 0.02476 0.0
C581 C 0.49846 0.38794 0.04428 0.0
H582 H 0.5474 0.47287 0.02118 0.0
C583 C 0.52443 0.42596 0.04251 0.0
C584 C 0.52739 0.44346 0.02166 0.0
H585 H 0.5433 0.44204 0.05704 0.0
H586 H 0.48262 0.4772 0.90163 0.0
H587 H 0.47787 0.46009 0.94143 0.0
H588 H 0.59854 0.51867 0.95193 0.0
H589 H 0.60318 0.53713 0.91178 0.0
H590 H 0.56017 0.48811 0.98522 0.0
H591 H 0.48469 0.42301 0.96636 0.0
H592 H 0.46076 0.36859 0.98913 0.0
H593 H 0.45556 0.33823 0.0256 0.0
C594 C 0.07197 0.61501 0.24784 0.0
C595 C 0.07015 0.58406 0.23642 0.0
C596 C 0.06652 0.61441 0.27129 0.0
C597 C 0.05863 0.58255 0.28379 0.0
C598 C 0.05803 0.55214 0.27249 0.0
C599 C 0.06367 0.55282 0.24908 0.0
C600 C 0.05082 0.57975 0.3085 0.0
C601 C 0.03923 0.60083 0.31923 0.0
C602 C 0.0285 0.59595 0.34342 0.0
C603 C 1.00561 0.60987 0.35052 0.0
C604 C 0.99364 0.60473 0.37281 0.0
C605 C 1.00439 0.58556 0.38855 0.0
H606 H 0.05914 0.56801 0.3551 0.0
C607 C 0.0282 0.57258 0.3817 0.0
C608 C 0.04035 0.57792 0.35946 0.0
H609 H 0.03748 0.55821 0.39352 0.0
H610 H 0.07744 0.63974 0.23865 0.0
H611 H 0.06871 0.63905 0.27942 0.0
H612 H 0.05243 0.52739 0.28171 0.0
H613 H 0.06223 0.52855 0.24084 0.0
H614 H 0.05218 0.55757 0.31759 0.0
H615 H 0.0348 0.62085 0.30959 0.0
H616 H 0.99636 0.62423 0.33865 0.0
H617 H 0.97547 0.61525 0.37756 0.0
loop_
_geom_bond_atom_site_label_1
_geom_bond_atom_site_label_2
_geom_bond_distance
_geom_bond_site_symmetry_2
_ccdc_geom_bond_type
Tb0 C10 2.825 . S
Tb0 O11 2.347 . S
Tb0 O14 2.366 . S
Tb0 O19 2.418 . S
Tb0 O20 2.384 1_455 S
Tb0 O23 2.479 . S
Tb0 O24 2.471 . S
Eu1 O12 2.418 . S
Eu1 O13 2.384 1_655 S
Eu1 O16 2.479 . S
Eu1 O17 2.471 . S
Eu1 O18 2.347 1_655 S
Eu1 O21 2.366 . S
Eu1 C31 2.825 . S
C2 O18 1.259 . S
C2 O19 1.265 . S
C3 O20 1.255 . S
C3 O21 1.265 . S
C4 C6 1.380 . S
C4 C7 1.374 . S
C4 C10 1.507 . S
C5 C6 1.384 . S
C5 C9 1.387 . S
C5 H32 0.930 . S
C6 C4 1.380 . S
C6 C5 1.384 . S
C6 H33 0.931 . S
C7 C4 1.374 . S
C7 C8 1.390 . S
C7 H34 0.930 . S
C8 C7 1.390 . S
C8 C9 1.391 . S
C8 H35 0.930 . S
C9 C5 1.387 . S
C9 C8 1.391 . S
C10 Tb0 2.825 . S
C10 C4 1.507 . S
C10 O23 1.238 . S
C10 O24 1.247 . S
O11 Tb0 2.347 . S
O11 C15 1.259 . S
O12 Eu1 2.418 . S
O12 C15 1.265 1_655 S
O13 Eu1 2.384 1_455 S
O13 C22 1.255 . S
O14 Tb0 2.366 . S
O14 C22 1.265 . S
C15 O11 1.259 . S
C15 O12 1.265 1_455 S
O16 Eu1 2.479 . S
O16 C31 1.238 . S
O17 Eu1 2.471 . S
O17 C31 1.247 . S
O18 Eu1 2.347 1_455 S
O18 C2 1.259 . S
O19 Tb0 2.418 . S
O19 C2 1.265 . S
O20 Tb0 2.384 1_655 S
O20 C3 1.255 . S
O21 Eu1 2.366 . S
O21 C3 1.265 . S
C22 O13 1.255 . S
C22 O14 1.265 . S
O23 Tb0 2.479 . S
O23 C10 1.238 . S
O24 Tb0 2.471 . S
O24 C10 1.247 . S
C25 C28 1.380 . S
C25 C29 1.374 . S
C25 C31 1.507 . S
C26 C27 1.387 . S
C26 C30 1.391 . S
C27 C26 1.387 . S
C27 C28 1.384 . S
C27 H36 0.930 . S
C28 C25 1.380 . S
C28 C27 1.384 . S
C28 H37 0.931 . S
C29 C25 1.374 . S
C29 C30 1.390 . S
C29 H38 0.930 . S
C30 C26 1.391 . S
C30 C29 1.390 . S
C30 H39 0.930 . S
C31 Eu1 2.825 . S
C31 O16 1.238 . S
C31 O17 1.247 . S
C31 C25 1.507 . S
H32 C5 0.930 . S
H33 C6 0.931 . S
H34 C7 0.930 . S
H35 C8 0.930 . S
H36 C27 0.930 . S
H37 C28 0.931 . S
H38 C29 0.930 . S
H39 C30 0.930 . S
Tb40 C50 2.825 . S
Tb40 O51 2.347 . S
Tb40 O54 2.366 . S
Tb40 O59 2.418 . S
Tb40 O60 2.407 . S
Tb40 O63 2.479 . S
Tb40 O64 2.471 . S
Eu41 O52 2.418 . S
Eu41 O53 2.384 . S
Eu41 O56 2.479 1_545 S
Eu41 O57 2.471 1_545 S
Eu41 O58 2.347 . S
Eu41 O61 2.366 1_545 S
Eu41 C71 2.825 1_545 S
C42 O58 1.259 . S
C42 O59 1.265 . S
C43 O60 1.246 1_565 S
C43 O61 1.265 . S
C44 C46 1.380 . S
C44 C47 1.374 . S
C44 C50 1.507 . S
C45 C46 1.384 . S
C45 C49 1.387 . S
C45 H72 0.930 . S
C46 C44 1.380 . S
C46 C45 1.384 . S
C46 H73 0.931 . S
C47 C44 1.374 . S
C47 C48 1.390 . S
C47 H74 0.930 . S
C48 C47 1.390 . S
C48 C49 1.391 . S
C48 H75 0.930 . S
C49 C45 1.387 . S
C49 C48 1.391 . S
C50 Tb40 2.825 . S
C50 C44 1.507 . S
C50 O63 1.238 . S
C50 O64 1.247 . S
O51 Tb40 2.347 . S
O51 C55 1.259 . S
O52 Eu41 2.418 . S
O52 C55 1.265 . S
O53 Eu41 2.384 . S
O53 C62 1.255 . S
O54 Tb40 2.366 . S
O54 C62 1.265 . S
C55 O51 1.259 . S
C55 O52 1.265 . S
O56 Eu41 2.479 1_565 S
O56 C71 1.238 . S
O57 Eu41 2.471 1_565 S
O57 C71 1.247 . S
O58 Eu41 2.347 . S
O58 C42 1.259 . S
O59 Tb40 2.418 . S
O59 C42 1.265 . S
O60 Tb40 2.407 . S
O60 C43 1.246 1_545 S
O61 Eu41 2.366 1_565 S
O61 C43 1.265 . S
C62 O53 1.255 . S
C62 O54 1.265 . S
O63 Tb40 2.479 . S
O63 C50 1.238 . S
O64 Tb40 2.471 . S
O64 C50 1.247 . S
C65 C68 1.380 . S
C65 C69 1.374 . S
C65 C71 1.507 . S
C66 C67 1.387 . S
C66 C70 1.391 . S
C67 C66 1.387 . S
C67 C68 1.384 . S
C67 H76 0.930 . S
C68 C65 1.380 . S
C68 C67 1.384 . S
C68 H77 0.931 . S
C69 C65 1.374 . S
C69 C70 1.390 . S
C69 H78 0.930 . S
C70 C66 1.391 . S
C70 C69 1.390 . S
C70 H79 0.930 . S
C71 Eu41 2.825 1_565 S
C71 O56 1.238 . S
C71 O57 1.247 . S
C71 C65 1.507 . S
H72 C45 0.930 . S
H73 C46 0.931 . S
H74 C47 0.930 . S
H75 C48 0.930 . S
H76 C67 0.930 . S
H77 C68 0.931 . S
H78 C69 0.930 . S
H79 C70 0.930 . S
Tb80 C90 2.825 . S
Tb80 O91 2.347 . S
Tb80 O94 2.366 . S
Tb80 O99 2.418 . S
Tb80 O100 2.384 . S
Tb80 O103 2.479 . S
Tb80 O104 2.471 . S
Eu81 O92 2.418 . S
Eu81 O93 2.384 . S
Eu81 O96 2.479 . S
Eu81 O97 2.471 . S
Eu81 O98 2.347 . S
Eu81 O101 2.366 . S
Eu81 C111 2.825 . S
C82 O98 1.259 . S
C82 O99 1.265 . S
C83 O100 1.255 . S
C83 O101 1.265 . S
C84 C86 1.380 . S
C84 C87 1.374 . S
C84 C90 1.507 . S
C85 C86 1.384 . S
C85 C89 1.387 . S
C85 H112 0.930 . S
C86 C84 1.380 . S
C86 C85 1.384 . S
C86 H113 0.931 . S
C87 C84 1.374 . S
C87 C88 1.390 . S
C87 H114 0.930 . S
C88 C87 1.390 . S
C88 C89 1.391 . S
C88 H115 0.930 . S
C89 C85 1.387 . S
C89 C88 1.391 . S
C90 Tb80 2.825 . S
C90 C84 1.507 . S
C90 O103 1.238 . S
C90 O104 1.247 . S
O91 Tb80 2.347 . S
O91 C95 1.259 . S
O92 Eu81 2.418 . S
O92 C95 1.265 . S
O93 Eu81 2.384 . S
O93 C102 1.255 . S
O94 Tb80 2.366 . S
O94 C102 1.265 . S
C95 O91 1.259 . S
C95 O92 1.265 . S
O96 Eu81 2.479 . S
O96 C111 1.238 . S
O97 Eu81 2.471 . S
O97 C111 1.247 . S
O98 Eu81 2.347 . S
O98 C82 1.259 . S
O99 Tb80 2.418 . S
O99 C82 1.265 . S
O100 Tb80 2.384 . S
O100 C83 1.255 . S
O101 Eu81 2.366 . S
O101 C83 1.265 . S
C102 O93 1.255 . S
C102 O94 1.265 . S
O103 Tb80 2.479 . S
O103 C90 1.238 . S
O104 Tb80 2.471 . S
O104 C90 1.247 . S
C105 C108 1.380 . S
C105 C109 1.374 . S
C105 C111 1.507 . S
C106 C107 1.387 . S
C106 C110 1.391 . S
C107 C106 1.387 . S
C107 C108 1.384 . S
C107 H116 0.930 . S
C108 C105 1.380 . S
C108 C107 1.384 . S
C108 H117 0.931 . S
C109 C105 1.374 . S
C109 C110 1.390 . S
C109 H118 0.930 . S
C110 C106 1.391 . S
C110 C109 1.390 . S
C110 H119 0.930 . S
C111 Eu81 2.825 . S
C111 O96 1.238 . S
C111 O97 1.247 . S
C111 C105 1.507 . S
H112 C85 0.930 . S
H113 C86 0.931 . S
H114 C87 0.930 . S
H115 C88 0.930 . S
H116 C107 0.930 . S
H117 C108 0.931 . S
H118 C109 0.930 . S
H119 C110 0.930 . S
O120 Cd121 2.300 . S
O120 C127 1.275 . S
Cd121 O120 2.300 . S
Cd121 O129 2.381 . S
Cd121 O130 2.378 . S
O122 Cd123 2.385 . S
O122 C127 1.255 1_565 S
Cd123 O122 2.385 . S
Cd123 O124 2.317 . S
O124 Cd123 2.317 . S
O124 C125 1.232 . S
C125 O124 1.232 . S
C125 O126 1.218 . S
O126 C125 1.218 . S
C127 O120 1.275 . S
C127 O122 1.255 1_545 S
C128 O129 1.258 . S
C128 O130 1.256 . S
O129 Cd121 2.381 . S
O129 C128 1.258 . S
O130 Cd121 2.378 . S
O130 C128 1.256 . S
O131 Cd132 2.300 . S
O131 C138 1.275 . S
Cd132 O131 2.300 . S
Cd132 O140 2.381 . S
Cd132 O141 2.378 . S
O133 Cd134 2.385 . S
O133 C138 1.255 . S
Cd134 O133 2.385 . S
Cd134 O135 2.317 . S
O135 Cd134 2.317 . S
O135 C136 1.232 . S
C136 O135 1.232 . S
C136 O137 1.218 . S
O137 C136 1.218 . S
C138 O131 1.275 . S
C138 O133 1.255 . S
C139 O140 1.258 . S
C139 O141 1.256 . S
O140 Cd132 2.381 . S
O140 C139 1.258 . S
O141 Cd132 2.378 . S
O141 C139 1.256 . S
O142 Cd143 2.300 . S
O142 C149 1.275 . S
Cd143 O142 2.300 . S
Cd143 O151 2.381 . S
Cd143 O152 2.378 . S
O144 Cd145 2.385 . S
O144 C149 1.255 1_655 S
Cd145 O144 2.385 . S
Cd145 O146 2.317 . S
O146 Cd145 2.317 . S
O146 C147 1.232 . S
C147 O146 1.232 . S
C147 O148 1.218 . S
O148 C147 1.218 . S
C149 O142 1.275 . S
C149 O144 1.255 1_455 S
C150 O151 1.258 . S
C150 O152 1.256 . S
O151 Cd143 2.381 . S
O151 C150 1.258 . S
O152 Cd143 2.378 . S
O152 C150 1.256 . S
O153 Cd154 2.300 . S
O153 C160 1.275 . S
Cd154 O153 2.300 . S
Cd154 O162 2.381 . S
Cd154 O163 2.378 . S
O155 Cd156 2.385 . S
O155 C160 1.255 1_655 S
Cd156 O155 2.385 . S
Cd156 O157 2.317 . S
O157 Cd156 2.317 . S
O157 C158 1.232 . S
C158 O157 1.232 . S
C158 O159 1.218 . S
O159 C158 1.218 . S
C160 O153 1.275 . S
C160 O155 1.255 1_455 S
C161 O162 1.258 . S
C161 O163 1.256 . S
O162 Cd154 2.381 . S
O162 C161 1.258 . S
O163 Cd154 2.378 . S
O163 C161 1.256 . S
O164 Cd165 2.300 . S
O164 C171 1.275 1_565 S
Cd165 O164 2.300 . S
Cd165 O173 2.381 . S
Cd165 O174 2.378 . S
O166 Cd167 2.385 . S
O166 C171 1.255 . S
Cd167 O166 2.385 . S
Cd167 O168 2.317 . S
O168 Cd167 2.317 . S
O168 C169 1.232 . S
C169 O168 1.232 . S
C169 O170 1.218 . S
O170 C169 1.218 . S
C171 O164 1.275 1_545 S
C171 O166 1.255 . S
C172 O173 1.258 . S
C172 O174 1.256 . S
O173 Cd165 2.381 . S
O173 C172 1.258 . S
O174 Cd165 2.378 . S
O174 C172 1.256 . S
O175 Cd176 2.300 . S
O175 C182 1.275 . S
Cd176 O175 2.300 . S
Cd176 O184 2.381 . S
Cd176 O185 2.378 . S
O177 Cd178 2.385 . S
O177 C182 1.255 . S
Cd178 O177 2.385 . S
Cd178 O179 2.317 . S
O179 Cd178 2.317 . S
O179 C180 1.232 . S
C180 O179 1.232 . S
C180 O181 1.218 . S
O181 C180 1.218 . S
C182 O175 1.275 . S
C182 O177 1.255 . S
C183 O184 1.258 . S
C183 O185 1.256 . S
O184 Cd176 2.381 . S
O184 C183 1.258 . S
O185 Cd176 2.378 . S
O185 C183 1.256 . S
C186 C187 1.386 . S
C186 C188 1.383 . S
C186 H202 0.951 . S
C187 C186 1.386 . S
C187 C191 1.383 . S
C188 C186 1.383 . S
C188 C189 1.402 . S
C188 H203 0.951 . S
C189 C188 1.402 . S
C189 C190 1.375 . S
C189 C192 1.481 . S
C190 C189 1.375 . S
C190 C191 1.367 . S
C190 H204 0.951 . S
C191 C187 1.383 . S
C191 C190 1.367 . S
C191 H205 0.950 . S
C192 C189 1.481 . S
C192 C193 1.297 . S
C192 H206 0.950 . S
C193 C192 1.297 . S
C193 C194 1.479 . S
C193 H207 0.950 . S
C194 C193 1.479 . S
C194 C195 1.375 . S
C194 C200 1.404 . S
C195 C194 1.375 . S
C195 C196 1.369 . S
C195 H208 0.950 . S
C196 C195 1.369 . S
C196 C197 1.392 . S
C196 H209 0.951 . S
C197 C196 1.392 . S
C197 C199 1.384 . S
H198 C200 0.949 . S
C199 C197 1.384 . S
C199 C200 1.385 . S
C199 H201 0.950 . S
C200 C194 1.404 . S
C200 H198 0.949 . S
C200 C199 1.385 . S
H201 C199 0.950 . S
H202 C186 0.951 . S
H203 C188 0.951 . S
H204 C190 0.951 . S
H205 C191 0.950 . S
H206 C192 0.950 . S
H207 C193 0.950 . S
H208 C195 0.950 . S
H209 C196 0.951 . S
C210 C211 1.386 . S
C210 C212 1.383 . S
C210 H226 0.951 . S
C211 C210 1.386 . S
C211 C215 1.383 . S
C212 C210 1.383 . S
C212 C213 1.402 . S
C212 H227 0.951 . S
C213 C212 1.402 . S
C213 C214 1.375 . S
C213 C216 1.481 . S
C214 C213 1.375 . S
C214 C215 1.367 . S
C214 H228 0.951 . S
C215 C211 1.383 . S
C215 C214 1.367 . S
C215 H229 0.950 . S
C216 C213 1.481 . S
C216 C217 1.297 . S
C216 H230 0.950 . S
C217 C216 1.297 . S
C217 C218 1.479 . S
C217 H231 0.950 . S
C218 C217 1.479 . S
C218 C219 1.375 . S
C218 C224 1.404 . S
C219 C218 1.375 . S
C219 C220 1.369 . S
C219 H232 0.950 . S
C220 C219 1.369 . S
C220 C221 1.392 . S
C220 H233 0.951 . S
C221 C220 1.392 . S
C221 C223 1.384 . S
H222 C224 0.949 . S
C223 C221 1.384 . S
C223 C224 1.385 . S
C223 H225 0.950 . S
C224 C218 1.404 . S
C224 H222 0.949 . S
C224 C223 1.385 . S
H225 C223 0.950 . S
H226 C210 0.951 . S
H227 C212 0.951 . S
H228 C214 0.951 . S
H229 C215 0.950 . S
H230 C216 0.950 . S
H231 C217 0.950 . S
H232 C219 0.950 . S
H233 C220 0.951 . S
C234 C235 1.386 . S
C234 C236 1.383 . S
C234 H250 0.951 . S
C235 C234 1.386 . S
C235 C239 1.383 . S
C236 C234 1.383 . S
C236 C237 1.402 . S
C236 H251 0.951 . S
C237 C236 1.402 . S
C237 C238 1.375 . S
C237 C240 1.481 . S
C238 C237 1.375 . S
C238 C239 1.367 . S
C238 H252 0.951 . S
C239 C235 1.383 . S
C239 C238 1.367 . S
C239 H253 0.950 . S
C240 C237 1.481 . S
C240 C241 1.297 . S
C240 H254 0.950 . S
C241 C240 1.297 . S
C241 C242 1.479 . S
C241 H255 0.950 . S
C242 C241 1.479 . S
C242 C243 1.375 . S
C242 C248 1.404 . S
C243 C242 1.375 . S
C243 C244 1.369 . S
C243 H256 0.950 . S
C244 C243 1.369 . S
C244 C245 1.392 . S
C244 H257 0.951 . S
C245 C244 1.392 . S
C245 C247 1.384 . S
H246 C248 0.949 . S
C247 C245 1.384 . S
C247 C248 1.385 . S
C247 H249 0.950 . S
C248 C242 1.404 . S
C248 H246 0.949 . S
C248 C247 1.385 . S
H249 C247 0.950 . S
H250 C234 0.951 . S
H251 C236 0.951 . S
H252 C238 0.951 . S
H253 C239 0.950 . S
H254 C240 0.950 . S
H255 C241 0.950 . S
H256 C243 0.950 . S
H257 C244 0.951 . S
C258 C259 1.386 . S
C258 C260 1.383 . S
C258 H274 0.951 . S
C259 C258 1.386 . S
C259 C263 1.383 . S
C260 C258 1.383 . S
C260 C261 1.402 . S
C260 H275 0.951 . S
C261 C260 1.402 . S
C261 C262 1.375 . S
C261 C264 1.481 . S
C262 C261 1.375 . S
C262 C263 1.367 . S
C262 H276 0.951 . S
C263 C259 1.383 . S
C263 C262 1.367 . S
C263 H277 0.950 . S
C264 C261 1.481 . S
C264 C265 1.297 . S
C264 H278 0.950 . S
C265 C264 1.297 . S
C265 C266 1.479 . S
C265 H279 0.950 . S
C266 C265 1.479 . S
C266 C267 1.375 . S
C266 C272 1.404 . S
C267 C266 1.375 . S
C267 C268 1.369 . S
C267 H280 0.950 . S
C268 C267 1.369 . S
C268 C269 1.392 . S
C268 H281 0.951 . S
C269 C268 1.392 . S
C269 C271 1.384 . S
H270 C272 0.949 . S
C271 C269 1.384 . S
C271 C272 1.385 . S
C271 H273 0.950 . S
C272 C266 1.404 . S
C272 H270 0.949 . S
C272 C271 1.385 . S
H273 C271 0.950 . S
H274 C258 0.951 . S
H275 C260 0.951 . S
H276 C262 0.951 . S
H277 C263 0.950 . S
H278 C264 0.950 . S
H279 C265 0.950 . S
H280 C267 0.950 . S
H281 C268 0.951 . S
C282 C283 1.386 . S
C282 C284 1.383 . S
C282 H298 0.951 . S
C283 C282 1.386 . S
C283 C287 1.383 . S
C284 C282 1.383 . S
C284 C285 1.402 . S
C284 H299 0.951 . S
C285 C284 1.402 . S
C285 C286 1.375 . S
C285 C288 1.481 . S
C286 C285 1.375 . S
C286 C287 1.367 . S
C286 H300 0.951 . S
C287 C283 1.383 . S
C287 C286 1.367 . S
C287 H301 0.950 . S
C288 C285 1.481 . S
C288 C289 1.297 . S
C288 H302 0.950 . S
C289 C288 1.297 . S
C289 C290 1.479 . S
C289 H303 0.950 . S
C290 C289 1.479 . S
C290 C291 1.375 . S
C290 C296 1.404 . S
C291 C290 1.375 . S
C291 C292 1.369 . S
C291 H304 0.950 . S
C292 C291 1.369 . S
C292 C293 1.392 . S
C292 H305 0.951 . S
C293 C292 1.392 . S
C293 C295 1.384 . S
H294 C296 0.949 . S
C295 C293 1.384 . S
C295 C296 1.385 . S
C295 H297 0.950 . S
C296 C290 1.404 . S
C296 H294 0.949 . S
C296 C295 1.385 . S
H297 C295 0.950 . S
H298 C282 0.951 . S
H299 C284 0.951 . S
H300 C286 0.951 . S
H301 C287 0.950 . S
H302 C288 0.950 . S
H303 C289 0.950 . S
H304 C291 0.950 . S
H305 C292 0.951 . S
C306 C307 1.386 . S
C306 C308 1.383 . S
C306 H322 0.951 . S
C307 C306 1.386 . S
C307 C311 1.383 . S
C308 C306 1.383 . S
C308 C309 1.402 . S
C308 H323 0.951 . S
C309 C308 1.402 . S
C309 C310 1.375 . S
C309 C312 1.481 . S
C310 C309 1.375 . S
C310 C311 1.367 . S
C310 H324 0.951 . S
C311 C307 1.383 . S
C311 C310 1.367 . S
C311 H325 0.950 . S
C312 C309 1.481 . S
C312 C313 1.297 . S
C312 H326 0.950 . S
C313 C312 1.297 . S
C313 C314 1.479 . S
C313 H327 0.950 . S
C314 C313 1.479 . S
C314 C315 1.375 . S
C314 C320 1.404 . S
C315 C314 1.375 . S
C315 C316 1.369 . S
C315 H328 0.950 . S
C316 C315 1.369 . S
C316 C317 1.392 . S
C316 H329 0.951 . S
C317 C316 1.392 . S
C317 C319 1.384 . S
H318 C320 0.949 . S
C319 C317 1.384 . S
C319 C320 1.385 . S
C319 H321 0.950 . S
C320 C314 1.404 . S
C320 H318 0.949 . S
C320 C319 1.385 . S
H321 C319 0.950 . S
H322 C306 0.951 . S
H323 C308 0.951 . S
H324 C310 0.951 . S
H325 C311 0.950 . S
H326 C312 0.950 . S
H327 C313 0.950 . S
H328 C315 0.950 . S
H329 C316 0.951 . S
C330 C331 1.386 . S
C330 C332 1.383 . S
C330 H346 0.951 . S
C331 C330 1.386 . S
C331 C335 1.383 . S
C332 C330 1.383 . S
C332 C333 1.402 . S
C332 H347 0.951 . S
C333 C332 1.402 . S
C333 C334 1.375 . S
C333 C336 1.481 . S
C334 C333 1.375 . S
C334 C335 1.367 . S
C334 H348 0.951 . S
C335 C331 1.383 . S
C335 C334 1.367 . S
C335 H349 0.950 . S
C336 C333 1.481 . S
C336 C337 1.297 . S
C336 H350 0.950 . S
C337 C336 1.297 . S
C337 C338 1.479 . S
C337 H351 0.950 . S
C338 C337 1.479 . S
C338 C339 1.375 . S
C338 C344 1.404 . S
C339 C338 1.375 . S
C339 C340 1.369 . S
C339 H352 0.950 . S
C340 C339 1.369 . S
C340 C341 1.392 . S
C340 H353 0.951 . S
C341 C340 1.392 . S
C341 C343 1.384 . S
H342 C344 0.949 . S
C343 C341 1.384 . S
C343 C344 1.385 . S
C343 H345 0.950 . S
C344 C338 1.404 . S
C344 H342 0.949 . S
C344 C343 1.385 . S
H345 C343 0.950 . S
H346 C330 0.951 . S
H347 C332 0.951 . S
H348 C334 0.951 . S
H349 C335 0.950 . S
H350 C336 0.950 . S
H351 C337 0.950 . S
H352 C339 0.950 . S
H353 C340 0.951 . S
C354 C355 1.386 . S
C354 C356 1.383 . S
C354 H370 0.951 . S
C355 C354 1.386 . S
C355 C359 1.383 . S
C356 C354 1.383 . S
C356 C357 1.402 . S
C356 H371 0.951 . S
C357 C356 1.402 . S
C357 C358 1.375 . S
C357 C360 1.481 . S
C358 C357 1.375 . S
C358 C359 1.367 . S
C358 H372 0.951 . S
C359 C355 1.383 . S
C359 C358 1.367 . S
C359 H373 0.950 . S
C360 C357 1.481 . S
C360 C361 1.297 . S
C360 H374 0.950 . S
C361 C360 1.297 . S
C361 C362 1.479 . S
C361 H375 0.950 . S
C362 C361 1.479 . S
C362 C363 1.375 . S
C362 C368 1.404 . S
C363 C362 1.375 . S
C363 C364 1.369 . S
C363 H376 0.950 . S
C364 C363 1.369 . S
C364 C365 1.392 . S
C364 H377 0.951 . S
C365 C364 1.392 . S
C365 C367 1.384 . S
H366 C368 0.949 . S
C367 C365 1.384 . S
C367 C368 1.385 . S
C367 H369 0.950 . S
C368 C362 1.404 . S
C368 H366 0.949 . S
C368 C367 1.385 . S
H369 C367 0.950 . S
H370 C354 0.951 . S
H371 C356 0.951 . S
H372 C358 0.951 . S
H373 C359 0.950 . S
H374 C360 0.950 . S
H375 C361 0.950 . S
H376 C363 0.950 . S
H377 C364 0.951 . S
C378 C379 1.386 . S
C378 C380 1.383 . S
C378 H394 0.951 . S
C379 C378 1.386 . S
C379 C383 1.383 . S
C380 C378 1.383 . S
C380 C381 1.402 . S
C380 H395 0.951 . S
C381 C380 1.402 . S
C381 C382 1.375 . S
C381 C384 1.481 . S
C382 C381 1.375 . S
C382 C383 1.367 . S
C382 H396 0.951 . S
C383 C379 1.383 . S
C383 C382 1.367 . S
C383 H397 0.950 . S
C384 C381 1.481 . S
C384 C385 1.297 . S
C384 H398 0.950 . S
C385 C384 1.297 . S
C385 C386 1.479 . S
C385 H399 0.950 . S
C386 C385 1.479 . S
C386 C387 1.375 . S
C386 C392 1.404 . S
C387 C386 1.375 . S
C387 C388 1.369 . S
C387 H400 0.950 . S
C388 C387 1.369 . S
C388 C389 1.392 . S
C388 H401 0.951 . S
C389 C388 1.392 . S
C389 C391 1.384 . S
H390 C392 0.949 . S
C391 C389 1.384 . S
C391 C392 1.385 . S
C391 H393 0.950 . S
C392 C386 1.404 . S
C392 H390 0.949 . S
C392 C391 1.385 . S
H393 C391 0.950 . S
H394 C378 0.951 . S
H395 C380 0.951 . S
H396 C382 0.951 . S
H397 C383 0.950 . S
H398 C384 0.950 . S
H399 C385 0.950 . S
H400 C387 0.950 . S
H401 C388 0.951 . S
C402 C403 1.386 . S
C402 C404 1.383 . S
C402 H418 0.951 . S
C403 C402 1.386 . S
C403 C407 1.383 . S
C404 C402 1.383 . S
C404 C405 1.402 . S
C404 H419 0.951 . S
C405 C404 1.402 . S
C405 C406 1.375 . S
C405 C408 1.481 . S
C406 C405 1.375 . S
C406 C407 1.367 . S
C406 H420 0.951 . S
C407 C403 1.383 . S
C407 C406 1.367 . S
C407 H421 0.950 . S
C408 C405 1.481 . S
C408 C409 1.297 . S
C408 H422 0.950 . S
C409 C408 1.297 . S
C409 C410 1.479 . S
C409 H423 0.950 . S
C410 C409 1.479 . S
C410 C411 1.375 . S
C410 C416 1.404 . S
C411 C410 1.375 . S
C411 C412 1.369 . S
C411 H424 0.950 . S
C412 C411 1.369 . S
C412 C413 1.392 . S
C412 H425 0.951 . S
C413 C412 1.392 . S
C413 C415 1.384 . S
H414 C416 0.949 . S
C415 C413 1.384 . S
C415 C416 1.385 . S
C415 H417 0.950 . S
C416 C410 1.404 . S
C416 H414 0.949 . S
C416 C415 1.385 . S
H417 C415 0.950 . S
H418 C402 0.951 . S
H419 C404 0.951 . S
H420 C406 0.951 . S
H421 C407 0.950 . S
H422 C408 0.950 . S
H423 C409 0.950 . S
H424 C411 0.950 . S
H425 C412 0.951 . S
C426 C427 1.386 . S
C426 C428 1.383 . S
C426 H442 0.951 . S
C427 C426 1.386 . S
C427 C431 1.383 . S
C428 C426 1.383 . S
C428 C429 1.402 . S
C428 H443 0.951 . S
C429 C428 1.402 . S
C429 C430 1.375 . S
C429 C432 1.481 . S
C430 C429 1.375 . S
C430 C431 1.367 . S
C430 H444 0.951 . S
C431 C427 1.383 . S
C431 C430 1.367 . S
C431 H445 0.950 . S
C432 C429 1.481 . S
C432 C433 1.297 . S
C432 H446 0.950 . S
C433 C432 1.297 . S
C433 C434 1.479 . S
C433 H447 0.950 . S
C434 C433 1.479 . S
C434 C435 1.375 . S
C434 C440 1.404 . S
C435 C434 1.375 . S
C435 C436 1.369 . S
C435 H448 0.950 . S
C436 C435 1.369 . S
C436 C437 1.392 . S
C436 H449 0.951 . S
C437 C436 1.392 . S
C437 C439 1.384 . S
H438 C440 0.949 . S
C439 C437 1.384 . S
C439 C440 1.385 . S
C439 H441 0.950 . S
C440 C434 1.404 . S
C440 H438 0.949 . S
C440 C439 1.385 . S
H441 C439 0.950 . S
H442 C426 0.951 . S
H443 C428 0.951 . S
H444 C430 0.951 . S
H445 C431 0.950 . S
H446 C432 0.950 . S
H447 C433 0.950 . S
H448 C435 0.950 . S
H449 C436 0.951 . S
C450 C451 1.386 . S
C450 C452 1.383 . S
C450 H466 0.951 . S
C451 C450 1.386 . S
C451 C455 1.383 . S
C452 C450 1.383 . S
C452 C453 1.402 . S
C452 H467 0.951 . S
C453 C452 1.402 . S
C453 C454 1.375 . S
C453 C456 1.481 . S
C454 C453 1.375 . S
C454 C455 1.367 . S
C454 H468 0.951 . S
C455 C451 1.383 . S
C455 C454 1.367 . S
C455 H469 0.950 . S
C456 C453 1.481 . S
C456 C457 1.297 . S
C456 H470 0.950 . S
C457 C456 1.297 . S
C457 C458 1.479 . S
C457 H471 0.950 . S
C458 C457 1.479 . S
C458 C459 1.375 . S
C458 C464 1.404 . S
C459 C458 1.375 . S
C459 C460 1.369 . S
C459 H472 0.950 . S
C460 C459 1.369 . S
C460 C461 1.392 . S
C460 H473 0.951 . S
C461 C460 1.392 . S
C461 C463 1.384 . S
H462 C464 0.949 . S
C463 C461 1.384 . S
C463 C464 1.385 . S
C463 H465 0.950 . S
C464 C458 1.404 . S
C464 H462 0.949 . S
C464 C463 1.385 . S
H465 C463 0.950 . S
H466 C450 0.951 . S
H467 C452 0.951 . S
H468 C454 0.951 . S
H469 C455 0.950 . S
H470 C456 0.950 . S
H471 C457 0.950 . S
H472 C459 0.950 . S
H473 C460 0.951 . S
C474 C475 1.386 1_655 S
C474 C476 1.383 . S
C474 H490 0.951 . S
C475 C474 1.386 1_455 S
C475 C479 1.383 . S
C476 C474 1.383 . S
C476 C477 1.402 1_655 S
C476 H491 0.951 . S
C477 C476 1.402 1_455 S
C477 C478 1.375 . S
C477 C480 1.481 . S
C478 C477 1.375 . S
C478 C479 1.367 . S
C478 H492 0.951 . S
C479 C475 1.383 . S
C479 C478 1.367 . S
C479 H493 0.950 . S
C480 C477 1.481 . S
C480 C481 1.291 1_455 S
C480 H494 0.950 . S
C481 C480 1.291 1_655 S
C481 C482 1.479 1_654 S
C481 H495 0.958 . S
C482 C481 1.479 1_456 S
C482 C483 1.375 1_455 S
C482 C488 1.404 . S
C483 C482 1.375 1_655 S
C483 C484 1.369 . S
C483 H496 0.950 . S
C484 C483 1.369 . S
C484 C485 1.392 1_655 S
C484 H497 0.951 . S
C485 C484 1.392 1_455 S
C485 C487 1.384 . S
H486 C488 0.949 . S
C487 C485 1.384 . S
C487 C488 1.385 . S
C487 H489 0.950 . S
C488 C482 1.404 . S
C488 H486 0.949 . S
C488 C487 1.385 . S
H489 C487 0.950 . S
H490 C474 0.951 . S
H491 C476 0.951 . S
H492 C478 0.951 . S
H493 C479 0.950 . S
H494 C480 0.950 . S
H495 C481 0.958 . S
H496 C483 0.950 . S
H497 C484 0.951 . S
C498 C499 1.386 . S
C498 C500 1.383 . S
C498 H514 0.951 1_545 S
C499 C498 1.386 . S
C499 C503 1.383 . S
C500 C498 1.383 . S
C500 C501 1.402 . S
C500 H515 0.951 1_545 S
C501 C500 1.402 . S
C501 C502 1.375 . S
C501 C504 1.481 . S
C502 C501 1.375 . S
C502 C503 1.367 . S
C502 H516 0.951 . S
C503 C499 1.383 . S
C503 C502 1.367 . S
C503 H517 0.950 . S
C504 C501 1.481 . S
C504 C505 1.297 . S
C504 H518 0.950 . S
C505 C504 1.297 . S
C505 C506 1.479 . S
C505 H519 0.950 1_545 S
C506 C505 1.479 . S
C506 C507 1.375 1_545 S
C506 C512 1.404 . S
C507 C506 1.375 1_565 S
C507 C508 1.369 . S
C507 H520 0.950 . S
C508 C507 1.369 . S
C508 C509 1.392 1_565 S
C508 H521 0.951 . S
C509 C508 1.392 1_545 S
C509 C511 1.384 . S
H510 C512 0.949 . S
C511 C509 1.384 . S
C511 C512 1.385 . S
C511 H513 0.950 . S
C512 C506 1.404 . S
C512 H510 0.949 . S
C512 C511 1.385 . S
H513 C511 0.950 . S
H514 C498 0.951 1_565 S
H515 C500 0.951 1_565 S
H516 C502 0.951 . S
H517 C503 0.950 . S
H518 C504 0.950 . S
H519 C505 0.950 1_565 S
H520 C507 0.950 . S
H521 C508 0.951 . S
C522 C523 1.386 . S
C522 C524 1.383 . S
C522 H538 0.951 . S
C523 C522 1.386 . S
C523 C527 1.383 . S
C524 C522 1.383 . S
C524 C525 1.402 . S
C524 H539 0.951 . S
C525 C524 1.402 . S
C525 C526 1.375 . S
C525 C528 1.481 . S
C526 C525 1.375 . S
C526 C527 1.367 . S
C526 H540 0.951 . S
C527 C523 1.383 . S
C527 C526 1.367 . S
C527 H541 0.950 . S
C528 C525 1.481 . S
C528 C529 1.297 . S
C528 H542 0.950 . S
C529 C528 1.297 . S
C529 C530 1.479 . S
C529 H543 0.950 . S
C530 C529 1.479 . S
C530 C531 1.375 . S
C530 C536 1.404 . S
C531 C530 1.375 . S
C531 C532 1.369 . S
C531 H544 0.950 . S
C532 C531 1.369 . S
C532 C533 1.392 . S
C532 H545 0.951 . S
C533 C532 1.392 . S
C533 C535 1.384 . S
H534 C536 0.949 . S
C535 C533 1.384 . S
C535 C536 1.385 . S
C535 H537 0.950 . S
C536 C530 1.404 . S
C536 H534 0.949 . S
C536 C535 1.385 . S
H537 C535 0.950 . S
H538 C522 0.951 . S
H539 C524 0.951 . S
H540 C526 0.951 . S
H541 C527 0.950 . S
H542 C528 0.950 . S
H543 C529 0.950 . S
H544 C531 0.950 . S
H545 C532 0.951 . S
C546 C547 1.386 . S
C546 C548 1.383 . S
C546 H562 0.951 . S
C547 C546 1.386 . S
C547 C551 1.382 . S
C548 C546 1.383 . S
C548 C549 1.402 . S
C548 H563 0.951 . S
C549 C548 1.402 . S
C549 C550 1.375 1_545 S
C549 C552 1.481 . S
C550 C549 1.375 1_565 S
C550 C551 1.367 1_565 S
C550 H564 0.951 . S
C551 C547 1.382 . S
C551 C550 1.367 1_545 S
C551 H565 0.951 1_545 S
C552 C549 1.481 . S
C552 C553 1.297 . S
C552 H566 0.950 1_545 S
C553 C552 1.297 . S
C553 C554 1.479 . S
C553 H567 0.950 . S
C554 C553 1.479 . S
C554 C555 1.375 . S
C554 C560 1.404 1_545 S
C555 C554 1.375 . S
C555 C556 1.369 . S
C555 H568 0.950 . S
C556 C555 1.369 . S
C556 C557 1.392 . S
C556 H569 0.951 . S
C557 C556 1.392 . S
C557 C559 1.384 1_545 S
H558 C560 0.949 . S
C559 C557 1.384 1_565 S
C559 C560 1.385 . S
C559 H561 0.950 . S
C560 C554 1.404 1_565 S
C560 H558 0.949 . S
C560 C559 1.385 . S
H561 C559 0.950 . S
H562 C546 0.951 . S
H563 C548 0.951 . S
H564 C550 0.951 . S
H565 C551 0.951 1_565 S
H566 C552 0.950 1_565 S
H567 C553 0.950 . S
H568 C555 0.950 . S
H569 C556 0.951 . S
C570 C571 1.386 . S
C570 C572 1.383 . S
C570 H586 0.951 . S
C571 C570 1.386 . S
C571 C575 1.383 . S
C572 C570 1.383 . S
C572 C573 1.402 . S
C572 H587 0.951 . S
C573 C572 1.402 . S
C573 C574 1.375 . S
C573 C576 1.481 . S
C574 C573 1.375 . S
C574 C575 1.367 . S
C574 H588 0.951 . S
C575 C571 1.383 . S
C575 C574 1.367 . S
C575 H589 0.950 . S
C576 C573 1.481 . S
C576 C577 1.297 . S
C576 H590 0.950 . S
C577 C576 1.297 . S
C577 C578 1.479 1_556 S
C577 H591 0.950 . S
C578 C577 1.479 1_554 S
C578 C579 1.375 . S
C578 C584 1.404 . S
C579 C578 1.375 . S
C579 C580 1.369 . S
C579 H592 0.950 . S
C580 C579 1.369 . S
C580 C581 1.392 . S
C580 H593 0.951 . S
C581 C580 1.392 . S
C581 C583 1.384 . S
H582 C584 0.949 . S
C583 C581 1.384 . S
C583 C584 1.385 . S
C583 H585 0.950 . S
C584 C578 1.404 . S
C584 H582 0.949 . S
C584 C583 1.385 . S
H585 C583 0.950 . S
H586 C570 0.951 . S
H587 C572 0.951 . S
H588 C574 0.951 . S
H589 C575 0.950 . S
H590 C576 0.950 . S
H591 C577 0.950 . S
H592 C579 0.950 . S
H593 C580 0.951 . S
C594 C595 1.386 1_655 S
C594 C596 1.383 . S
C594 H610 0.951 . S
C595 C594 1.386 1_455 S
C595 C599 1.383 . S
C596 C594 1.383 . S
C596 C597 1.402 1_655 S
C596 H611 0.951 . S
C597 C596 1.402 1_455 S
C597 C598 1.375 . S
C597 C600 1.481 . S
C598 C597 1.375 . S
C598 C599 1.367 . S
C598 H612 0.951 . S
C599 C595 1.383 . S
C599 C598 1.367 . S
C599 H613 0.950 . S
C600 C597 1.481 . S
C600 C601 1.297 1_455 S
C600 H614 0.950 . S
C601 C600 1.297 1_655 S
C601 C602 1.479 . S
C601 H615 0.950 . S
C602 C601 1.479 . S
C602 C603 1.375 . S
C602 C608 1.404 1_655 S
C603 C602 1.375 . S
C603 C604 1.369 . S
C603 H616 0.950 . S
C604 C603 1.369 . S
C604 C605 1.392 1_655 S
C604 H617 0.951 . S
C605 C604 1.392 1_455 S
C605 C607 1.385 . S
H606 C608 0.949 . S
C607 C605 1.385 . S
C607 C608 1.385 . S
C607 H609 0.950 . S
C608 C602 1.404 1_455 S
C608 H606 0.949 . S
C608 C607 1.385 . S
H609 C607 0.950 . S
H610 C594 0.951 . S
H611 C596 0.951 . S
H612 C598 0.951 . S
H613 C599 0.950 . S
H614 C600 0.950 . S
H615 C601 0.950 . S
H616 C603 0.950 . S
H617 C604 0.951 . S
C187 C9 0.592 . S
C197 C180 0.562 . S
C211 C49 0.385 . S
C221 C158 0.760 . S
C235 C89 0.231 . S
C245 C172 0.445 . S
C259 C26 0.372 . S
C269 C183 0.474 . S
C293 C161 0.119 . S
C283 C66 0.378 . S
C317 C169 0.847 . S
C307 C106 0.438 . S
C331 C43 3.136 . S
C341 C136 2.820 . S
C355 C83 3.247 . S
C365 C147 2.851 . S
C379 C22 3.294 . S
C389 C125 2.961 . S
C413 C139 2.885 . S
C403 C62 2.964 . S
C437 C150 2.784 . S
C427 C102 2.839 . S
C451 C3 2.795 . S
C461 C128 2.736 . S
C485 C149 1.693 . S
C475 C15 1.650 . S
C499 C55 1.668 . S
C509 C127 1.692 . S
C523 C95 1.683 . S
C533 C138 1.617 . S
C557 C171 1.241 . S
C547 C42 1.239 . S
C581 C182 1.126 . S
C571 C82 1.218 . S
C595 C2 1.219 . S
C605 C160 1.267 . S
