# Generated by pormake.
# Topology pyr, (3,6)-cn, num edge types: 1
# Building blocks:
#     Node 0, Type 0, BuildingBlock: OLANEW_clean_sbu_2, # of connection points: 3
#     Node 1, Type 0, BuildingBlock: OLANEW_clean_sbu_2, # of connection points: 3
#     Node 2, Type 0, BuildingBlock: OLANEW_clean_sbu_2, # of connection points: 3
#     Node 3, Type 0, BuildingBlock: OLANEW_clean_sbu_2, # of connection points: 3
#     Node 4, Type 0, BuildingBlock: OLANEW_clean_sbu_2, # of connection points: 3
#     Node 5, Type 0, BuildingBlock: OLANEW_clean_sbu_2, # of connection points: 3
#     Node 6, Type 0, BuildingBlock: OLANEW_clean_sbu_2, # of connection points: 3
#     Node 7, Type 0, BuildingBlock: OLANEW_clean_sbu_2, # of connection points: 3
#     Node 8, Type 1, BuildingBlock: PAMTUU_clean_sbu_0, # of connection points: 6
#     Node 9, Type 1, BuildingBlock: PAMTUU_clean_sbu_0, # of connection points: 6
#     Node 10, Type 1, BuildingBlock: PAMTUU_clean_sbu_0, # of connection points: 6
#     Node 11, Type 1, BuildingBlock: PAMTUU_clean_sbu_0, # of connection points: 6
#     Edge 12, Type (0, 1), BuildingBlock: XIVTED_clean_linker_0, # of connection points: 2
#     Edge 13, Type (0, 1), BuildingBlock: XIVTED_clean_linker_0, # of connection points: 2
#     Edge 14, Type (0, 1), BuildingBlock: XIVTED_clean_linker_0, # of connection points: 2
#     Edge 15, Type (0, 1), BuildingBlock: XIVTED_clean_linker_0, # of connection points: 2
#     Edge 16, Type (0, 1), BuildingBlock: XIVTED_clean_linker_0, # of connection points: 2
#     Edge 17, Type (0, 1), BuildingBlock: XIVTED_clean_linker_0, # of connection points: 2
#     Edge 18, Type (0, 1), BuildingBlock: XIVTED_clean_linker_0, # of connection points: 2
#     Edge 19, Type (0, 1), BuildingBlock: XIVTED_clean_linker_0, # of connection points: 2
#     Edge 20, Type (0, 1), BuildingBlock: XIVTED_clean_linker_0, # of connection points: 2
#     Edge 21, Type (0, 1), BuildingBlock: XIVTED_clean_linker_0, # of connection points: 2
#     Edge 22, Type (0, 1), BuildingBlock: XIVTED_clean_linker_0, # of connection points: 2
#     Edge 23, Type (0, 1), BuildingBlock: XIVTED_clean_linker_0, # of connection points: 2
#     Edge 24, Type (0, 1), BuildingBlock: XIVTED_clean_linker_0, # of connection points: 2
#     Edge 25, Type (0, 1), BuildingBlock: XIVTED_clean_linker_0, # of connection points: 2
#     Edge 26, Type (0, 1), BuildingBlock: XIVTED_clean_linker_0, # of connection points: 2
#     Edge 27, Type (0, 1), BuildingBlock: XIVTED_clean_linker_0, # of connection points: 2
#     Edge 28, Type (0, 1), BuildingBlock: XIVTED_clean_linker_0, # of connection points: 2
#     Edge 29, Type (0, 1), BuildingBlock: XIVTED_clean_linker_0, # of connection points: 2
#     Edge 30, Type (0, 1), BuildingBlock: XIVTED_clean_linker_0, # of connection points: 2
#     Edge 31, Type (0, 1), BuildingBlock: XIVTED_clean_linker_0, # of connection points: 2
#     Edge 32, Type (0, 1), BuildingBlock: XIVTED_clean_linker_0, # of connection points: 2
#     Edge 33, Type (0, 1), BuildingBlock: XIVTED_clean_linker_0, # of connection points: 2
#     Edge 34, Type (0, 1), BuildingBlock: XIVTED_clean_linker_0, # of connection points: 2
#     Edge 35, Type (0, 1), BuildingBlock: XIVTED_clean_linker_0, # of connection points: 2
# Relax obj value: 0.125
# Max RMSD: 0.185
# Mean RMSD: 0.122
data_MOF--net-pyr--node1-OLANEW_clean_sbu_2--node2-PAMTUU_clean_sbu_0--edge1-XIVTED_clean_linker_0
_symmetry_space_group_name_H-M    P1
_symmetry_Int_Tables_number       1
_symmetry_cell_setting            triclinic
loop_
_symmetry_equiv_pos_as_xyz
'x, y, z'
_cell_length_a     41.272928
_cell_length_b     42.947446
_cell_length_c     40.704605
_cell_angle_alpha  93.544465
_cell_angle_beta   89.076485
_cell_angle_gamma 103.84161
loop_
_atom_site_label
_atom_site_type_symbol
_atom_site_fract_x
_atom_site_fract_y
_atom_site_fract_z
_atom_type_partial_charge
O0 O 0.40436 0.29645 0.13869 0.0
Cd1 Cd 0.38599 0.34705 0.1413 0.0
O2 O 0.36525 0.27611 0.17345 0.0
Cd3 Cd 0.33782 0.24226 0.20778 0.0
O4 O 0.30434 0.21448 0.24299 0.0
C5 C 0.31153 0.21785 0.27344 0.0
O6 O 0.33965 0.23764 0.28313 0.0
C7 C 0.39038 0.27334 0.15601 0.0
C8 C 0.31946 0.34606 0.12727 0.0
O9 O 0.34165 0.34917 0.10451 0.0
O10 O 0.32837 0.34202 0.15643 0.0
O11 O 0.19978 0.80009 0.80806 0.0
Cd12 Cd 0.1707 0.77748 0.75718 0.0
O13 O 0.15661 0.80516 0.83845 0.0
Cd14 Cd 0.12385 0.79375 0.79568 0.0
O15 O 0.10002 0.80994 0.75472 0.0
C16 C 0.11901 0.83011 0.73707 0.0
O17 O 0.15116 0.83812 0.7434 0.0
C18 C 0.1878 0.80752 0.83558 0.0
C19 C 0.21572 0.75063 0.72032 0.0
O20 O 0.21454 0.7799 0.71748 0.0
O21 O 0.19463 0.73373 0.73954 0.0
O22 O 0.71773 0.43435 0.87477 0.0
Cd23 Cd 0.66247 0.41861 0.84735 0.0
O24 O 0.70336 0.39045 0.90147 0.0
Cd25 Cd 0.70063 0.35213 0.93591 0.0
O26 O 0.68012 0.30775 0.96156 0.0
C27 C 0.64893 0.29525 0.95913 0.0
O28 O 0.63061 0.30947 0.94192 0.0
C29 C 0.72483 0.4164 0.89604 0.0
C30 C 0.64754 0.45095 0.79343 0.0
O31 O 0.6446 0.46181 0.82311 0.0
O32 O 0.65903 0.42577 0.78913 0.0
O33 O 0.90543 0.73428 0.36542 0.0
Cd34 Cd 0.87787 0.68052 0.34117 0.0
O35 O 0.85585 0.74222 0.37805 0.0
Cd36 Cd 0.82572 0.69405 0.36573 0.0
O37 O 0.78241 0.66424 0.38922 0.0
C38 C 0.77032 0.67988 0.41183 0.0
O39 O 0.78437 0.71055 0.41765 0.0
C40 C 0.88739 0.75249 0.37744 0.0
C41 C 0.907 0.65455 0.28662 0.0
O42 O 0.88902 0.6747 0.28319 0.0
O43 O 0.91228 0.64754 0.31591 0.0
O44 O 0.69025 0.74531 0.79216 0.0
Cd45 Cd 0.66651 0.70332 0.82932 0.0
O46 O 0.67856 0.78185 0.82706 0.0
Cd47 Cd 0.67316 0.82803 0.8499 0.0
O48 O 0.65613 0.862 0.88454 0.0
C49 C 0.62828 0.86877 0.87982 0.0
O50 O 0.61101 0.85625 0.85336 0.0
C51 C 0.69167 0.77472 0.79996 0.0
C52 C 0.71899 0.68267 0.85591 0.0
O53 O 0.70446 0.66896 0.82942 0.0
O54 O 0.70811 0.70559 0.87025 0.0
O55 O 0.86363 0.26222 0.34408 0.0
Cd56 Cd 0.89524 0.28301 0.39408 0.0
O57 O 0.82996 0.29519 0.34597 0.0
Cd58 Cd 0.84381 0.32128 0.39326 0.0
O59 O 0.81167 0.34318 0.42577 0.0
C60 C 0.78229 0.32582 0.429 0.0
O61 O 0.77517 0.29648 0.41526 0.0
C62 C 0.84018 0.27217 0.33165 0.0
C63 C 0.91571 0.23257 0.42104 0.0
O64 O 0.88823 0.23962 0.42981 0.0
O65 O 0.93392 0.24979 0.39993 0.0
O66 O 0.40078 0.76077 0.24945 0.0
Cd67 Cd 0.3741 0.70803 0.27167 0.0
O68 O 0.36671 0.75015 0.20677 0.0
Cd69 Cd 0.33525 0.70241 0.21489 0.0
O70 O 0.29187 0.66679 0.19421 0.0
C71 C 0.28401 0.67156 0.16516 0.0
O72 O 0.3024 0.69608 0.15039 0.0
C73 C 0.39063 0.76906 0.22261 0.0
C74 C 0.40241 0.68415 0.32465 0.0
O75 O 0.41045 0.67831 0.29473 0.0
O76 O 0.38222 0.70246 0.32975 0.0
O77 O 0.14538 0.41226 0.75909 0.0
Cd78 Cd 0.16572 0.38396 0.71163 0.0
O79 O 0.13573 0.36858 0.78693 0.0
Cd80 Cd 0.14534 0.33588 0.74661 0.0
O81 O 0.13624 0.29189 0.71446 0.0
C82 C 0.11762 0.26699 0.72611 0.0
O83 O 0.10602 0.26918 0.75621 0.0
C84 C 0.13615 0.39819 0.78549 0.0
C85 C 0.22557 0.41685 0.68347 0.0
O86 O 0.19735 0.41756 0.67124 0.0
O87 O 0.22551 0.40116 0.70926 0.0
Tb88 Tb 0.04304 0.01406 0.53022 0.0
Tb89 Tb 0.97407 1.00218 0.57498 0.0
C90 C 0.98272 0.95545 0.5145 0.0
C91 C 0.11719 0.04681 0.47716 0.0
C92 C 0.15867 0.09099 0.43709 0.0
C93 C 0.17212 0.07069 0.4558 0.0
C94 C 0.15152 0.04876 0.47559 0.0
C95 C 0.10368 0.06763 0.45928 0.0
C96 C 0.12427 0.08947 0.43927 0.0
C97 C 0.096 0.0221 0.4966 0.0
O98 O 0.00922 0.03631 0.50456 0.0
O99 O 0.97521 0.04427 0.54799 0.0
O100 O 0.01301 0.03769 0.60168 0.0
O101 O 0.04621 0.05881 0.55896 0.0
O102 O 0.92207 0.99678 0.57848 0.0
O103 O 0.95226 0.99927 0.62186 0.0
O104 O 0.99761 0.96414 0.58635 0.0
O105 O 0.05128 0.99046 0.57413 0.0
O106 O 0.01518 0.96545 0.51745 0.0
O107 O 0.96226 0.97013 0.53075 0.0
C108 C 0.98676 0.05021 0.51823 0.0
O109 O 0.0954 0.02856 0.52828 0.0
O110 O 0.06639 1.00867 0.48487 0.0
C111 C 0.03579 0.06096 0.58941 0.0
C112 C 0.89561 0.97216 0.62562 0.0
C113 C 0.84634 0.92954 0.66045 0.0
C114 C 0.84455 0.96155 0.65778 0.0
C115 C 0.86896 0.98262 0.64052 0.0
C116 C 0.89725 0.94007 0.62742 0.0
C117 C 0.87268 0.91884 0.64465 0.0
C118 C 0.92225 0.99594 0.61043 0.0
C119 C 0.02997 0.96761 0.5887 0.0
H120 H 0.19843 0.07103 0.45436 0.0
H121 H 0.16233 0.03285 0.48922 0.0
H122 H 0.07721 0.06666 0.4604 0.0
H123 H 0.11329 0.10507 0.4254 0.0
H124 H 0.82435 0.9704 0.6692 0.0
H125 H 0.86736 1.00735 0.63935 0.0
H126 H 0.91781 0.93167 0.61616 0.0
H127 H 0.87486 0.89437 0.64646 0.0
Tb128 Tb 0.54106 0.042 0.1182 0.0
Tb129 Tb 0.47389 0.03258 0.07317 0.0
C130 C 0.53153 0.99916 0.05159 0.0
C131 C 0.62002 0.07462 0.16557 0.0
C132 C 0.67503 0.12337 0.1879 0.0
C133 C 0.65267 0.12969 0.16489 0.0
C134 C 0.62533 0.10545 0.15377 0.0
C135 C 0.64219 0.0682 0.18838 0.0
C136 C 0.66944 0.09233 0.19949 0.0
C137 C 0.59186 0.04869 0.15412 0.0
O138 O 0.55581 0.07484 0.07902 0.0
O139 O 0.50414 0.08022 0.06326 0.0
O140 O 0.46656 0.05571 0.12073 0.0
O141 O 0.51992 0.08313 0.13103 0.0
O142 O 0.44924 0.0347 0.02891 0.0
O143 O 0.4216 0.02228 0.07357 0.0
O144 O 0.47119 0.98637 0.09355 0.0
O145 O 0.50174 1.00566 0.13993 0.0
O146 O 0.54259 1.00277 0.08205 0.0
O147 O 0.50804 1.01258 0.04219 0.0
C148 C 0.53696 0.08989 0.06341 0.0
O149 O 0.5625 0.05031 0.16536 0.0
O150 O 0.59124 0.04082 0.12267 0.0
C151 C 0.48777 0.08106 0.13349 0.0
C152 C 0.3967 0.99828 0.0241 0.0
C153 C 0.35088 0.94749 0.99073 0.0
C154 C 0.34371 0.97779 0.99635 0.0
C155 C 0.36645 1.00295 1.01289 0.0
C156 C 0.40407 0.96813 0.01875 0.0
C157 C 0.38134 0.94291 1.00209 0.0
C158 C 0.41982 0.02487 0.042 0.0
C159 C 0.48031 0.98261 0.12353 0.0
H160 H 0.65641 0.15328 0.15535 0.0
H161 H 0.6084 0.11069 0.13599 0.0
H162 H 0.63834 0.04449 0.19772 0.0
H163 H 0.68576 0.0868 0.2177 0.0
H164 H 0.32075 0.98226 0.98744 0.0
H165 H 0.36042 0.0261 0.01691 0.0
H166 H 0.42731 0.96413 0.02753 0.0
H167 H 0.38745 0.91978 0.99836 0.0
Tb168 Tb 0.50471 0.51741 0.5374 0.0
Tb169 Tb 0.50476 0.58369 0.58216 0.0
C170 C 0.47518 0.57231 0.51138 0.0
C171 C 0.53507 0.44952 0.50146 0.0
C172 C 0.58876 0.41966 0.49308 0.0
C173 C 0.55976 0.40915 0.47371 0.0
C174 C 0.53316 0.42403 0.47785 0.0
C175 C 0.56366 0.45979 0.52119 0.0
C176 C 0.59025 0.44499 0.51706 0.0
C177 C 0.50816 0.46656 0.50444 0.0
O178 O 0.55593 0.54528 0.53738 0.0
O179 O 0.5469 0.59558 0.54867 0.0
O180 O 0.54151 0.56372 0.60578 0.0
O181 O 0.52202 0.51121 0.58645 0.0
O182 O 0.50633 0.63303 0.58414 0.0
O183 O 0.50062 0.60708 0.62832 0.0
O184 O 0.46545 0.54547 0.60043 0.0
O185 O 0.45325 0.51343 0.55312 0.0
O186 O 0.49309 0.55128 0.5043 0.0
O187 O 0.46962 0.58086 0.54208 0.0
C188 C 0.56558 0.57664 0.53682 0.0
O189 O 0.49402 0.46695 0.53328 0.0
O190 O 0.51517 0.49488 0.49259 0.0
C191 C 0.53999 0.53292 0.60734 0.0
C192 C 0.46931 0.64547 0.62411 0.0
C193 C 0.41181 0.66762 0.64053 0.0
C194 C 0.44378 0.68677 0.64849 0.0
C195 C 0.47233 0.67572 0.64035 0.0
C196 C 0.43755 0.62641 0.61585 0.0
C197 C 0.40905 0.63736 0.62402 0.0
C198 C 0.49905 0.63368 0.61539 0.0
C199 C 0.44496 0.52285 0.58271 0.0
H200 H 0.55797 0.39 0.45474 0.0
H201 H 0.51137 0.41599 0.46226 0.0
H202 H 0.56556 0.47954 0.53953 0.0
H203 H 0.61199 0.4534 0.53265 0.0
H204 H 0.44669 0.71004 0.66149 0.0
H205 H 0.4967 0.69072 0.64683 0.0
H206 H 0.43482 0.60304 0.60306 0.0
H207 H 0.38486 0.62223 0.61714 0.0
Tb208 Tb 0.01103 0.55418 1.01218 0.0
Tb209 Tb 0.00899 0.48877 0.0512 0.0
C210 C 0.03726 0.49745 0.98054 0.0
C211 C 0.98158 0.61079 0.96298 0.0
C212 C 0.92576 0.62592 0.93479 0.0
C213 C 0.92718 0.59369 0.93689 0.0
C214 C 0.95484 0.58621 0.95092 0.0
C215 C 0.9808 0.6429 0.96002 0.0
C216 C 0.95315 0.65044 0.94597 0.0
C217 C 0.00839 0.60314 0.98186 0.0
O218 O 0.95911 0.5283 1.01165 0.0
O219 O 0.96419 0.47726 0.02022 0.0
O220 O 0.97848 0.51509 0.08035 0.0
O221 O 0.00542 0.56498 0.06452 0.0
O222 O 0.00325 0.43877 0.04829 0.0
O223 O 0.01453 0.46624 0.09456 0.0
O224 O 0.05301 0.52444 0.06927 0.0
O225 O 0.06226 0.5598 0.02786 0.0
O226 O 0.01745 0.51656 0.97608 0.0
O227 O 0.04346 0.49031 1.01023 0.0
C228 C 0.94691 0.49709 1.01032 0.0
O229 O 0.00208 0.60031 1.01306 0.0
O230 O 0.02113 0.58003 0.96942 0.0
C231 C 0.98602 0.54656 0.08508 0.0
C232 C 0.04164 0.42381 0.08359 0.0
C233 C 0.0986 0.39929 0.09299 0.0
C234 C 0.08403 0.41351 0.11962 0.0
C235 C 0.05585 0.42551 0.11498 0.0
C236 C 0.05566 0.40888 0.0571 0.0
C237 C 0.08372 0.39675 0.06176 0.0
C238 C 0.01325 0.43872 0.07853 0.0
C239 C 0.07209 0.54852 0.0543 0.0
H240 H 0.90637 0.57424 0.9289 0.0
H241 H 0.95488 0.56124 0.9533 0.0
H242 H 0.00114 0.66216 0.96942 0.0
H243 H 0.95302 0.67547 0.94428 0.0
H244 H 0.09493 0.41622 0.14396 0.0
H245 H 0.04556 0.43678 0.13589 0.0
H246 H 0.04529 0.40689 0.03257 0.0
H247 H 0.09379 0.38542 0.04078 0.0
H248 H 0.24914 0.17911 0.26231 0.0
H249 H 0.22141 0.12903 0.44854 0.0
H250 H 0.32072 0.21635 0.33978 0.0
H251 H 0.14542 0.10156 0.37363 0.0
H252 H 0.25829 0.16109 0.40913 0.0
H253 H 0.21101 0.15017 0.30271 0.0
C254 C 0.25687 0.1812 0.28782 0.0
C255 C 0.28823 0.20014 0.29766 0.0
C256 C 0.23348 0.14822 0.40136 0.0
C257 C 0.24464 0.16704 0.34407 0.0
C258 C 0.21247 0.12983 0.42381 0.0
C259 C 0.18034 0.11253 0.41431 0.0
C260 C 0.22239 0.14912 0.36907 0.0
C261 C 0.16988 0.11475 0.38208 0.0
C262 C 0.23502 0.16473 0.3109 0.0
C263 C 0.29682 0.20201 0.33107 0.0
N264 N 0.19092 0.13252 0.36056 0.0
N265 N 0.27518 0.18559 0.35306 0.0
H266 H 0.17271 0.83372 0.89546 0.0
H267 H 0.36456 0.90479 0.94277 0.0
H268 H 0.25519 0.81352 0.83837 0.0
H269 H 0.28271 0.93045 0.99633 0.0
H270 H 0.32449 0.86503 0.90907 0.0
H271 H 0.21221 0.86293 0.93729 0.0
C272 C 0.19906 0.83505 0.8919 0.0
C273 C 0.21067 0.82148 0.86315 0.0
C274 C 0.31528 0.87917 0.92837 0.0
C275 C 0.25601 0.85506 0.91081 0.0
C276 C 0.33817 0.90175 0.94776 0.0
C277 C 0.32697 0.92123 0.97217 0.0
C278 C 0.28091 0.87603 0.9334 0.0
C279 C 0.29243 0.91641 0.97733 0.0
C280 C 0.22161 0.85182 0.91575 0.0
C281 C 0.2451 0.82389 0.85995 0.0
N282 N 0.27063 0.89447 0.95795 0.0
N283 N 0.26655 0.84061 0.88332 0.0
H284 H 0.62816 0.50789 0.79323 0.0
H285 H 0.55528 0.47448 0.61039 0.0
H286 H 0.63957 0.42736 0.72913 0.0
H287 H 0.56729 0.56632 0.66417 0.0
H288 H 0.58428 0.45613 0.6545 0.0
H289 H 0.60446 0.52924 0.74722 0.0
C290 C 0.62595 0.49481 0.76944 0.0
C291 C 0.63588 0.46572 0.76513 0.0
C292 C 0.58072 0.48035 0.65662 0.0
C293 C 0.60829 0.48986 0.71237 0.0
C294 C 0.56401 0.49084 0.63147 0.0
C295 C 0.55866 0.522 0.63356 0.0
C296 C 0.59189 0.50096 0.68442 0.0
C297 C 0.57085 0.54213 0.66143 0.0
C298 C 0.6124 0.50703 0.74316 0.0
C299 C 0.63235 0.44987 0.73367 0.0
N300 N 0.58663 0.53119 0.68586 0.0
N301 N 0.6186 0.46197 0.70865 0.0
H302 H 0.93161 0.60051 0.28384 0.0
H303 H 0.98051 0.60852 0.09375 0.0
H304 H 0.91155 0.6725 0.22298 0.0
H305 H 0.96347 0.52028 0.14369 0.0
H306 H 0.9618 0.63486 0.14287 0.0
H307 H 0.95025 0.57346 0.2348 0.0
C308 C 0.93135 0.61077 0.26023 0.0
C309 C 0.92002 0.63885 0.25752 0.0
C310 C 0.96205 0.60972 0.14308 0.0
C311 C 0.94138 0.60805 0.20142 0.0
C312 C 0.97283 0.59465 0.11507 0.0
C313 C 0.97356 0.5621 0.11459 0.0
C314 C 0.9524 0.59234 0.17113 0.0
C315 C 0.96314 0.54535 0.14293 0.0
C316 C 0.94177 0.59518 0.23225 0.0
C317 C 0.92002 0.6509 0.22623 0.0
N318 N 0.95323 0.56073 0.17018 0.0
N319 N 0.93067 0.63554 0.19947 0.0
H320 H 0.35758 0.21063 0.16518 0.0
H321 H 0.52283 0.14387 0.14334 0.0
H322 H 0.45529 0.27066 0.14739 0.0
H323 H 0.42335 0.08303 0.14815 0.0
H324 H 0.49951 0.19104 0.15255 0.0
H325 H 0.38208 0.16414 0.16593 0.0
C326 C 0.38426 0.21417 0.16206 0.0
C327 C 0.40447 0.2447 0.15674 0.0
C328 C 0.48283 0.16734 0.15195 0.0
C329 C 0.43268 0.19141 0.15686 0.0
C330 C 0.49618 0.14037 0.14698 0.0
C331 C 0.47502 0.10941 0.14482 0.0
C332 C 0.44809 0.16334 0.1549 0.0
C333 C 0.44062 0.10643 0.14944 0.0
C334 C 0.39822 0.18753 0.16216 0.0
C335 C 0.43876 0.24755 0.15155 0.0
N336 N 0.42824 0.133 0.15403 0.0
N337 N 0.45178 0.2213 0.15177 0.0
H338 H 0.05315 0.82429 0.72176 0.0
H339 H 0.09514 0.96628 0.59785 0.0
H340 H 0.15304 0.87433 0.69568 0.0
H341 H 0.99465 0.91845 0.62458 0.0
H342 H 0.11642 0.93048 0.63127 0.0
H343 H 0.03093 0.85588 0.68364 0.0
C344 C 0.07042 0.84171 0.70783 0.0
C345 C 0.10503 0.84681 0.71209 0.0
C346 C 0.0897 0.92772 0.62979 0.0
C347 C 0.07976 0.88313 0.6686 0.0
C348 C 0.07749 0.94823 0.61071 0.0
C349 C 0.04301 0.94553 0.60849 0.0
C350 C 0.06735 0.90429 0.64692 0.0
C351 C 0.02143 0.92151 0.62564 0.0
C352 C 0.0577 0.85979 0.68614 0.0
C353 C 0.12619 0.86968 0.69336 0.0
N354 N 0.03396 0.90188 0.64422 0.0
N355 N 0.11322 0.88707 0.67259 0.0
H356 H 0.75868 0.37957 0.9295 0.0
H357 H 0.90492 0.53143 0.98754 0.0
H358 H 0.76477 0.47681 0.90399 0.0
H359 H 0.91115 0.43389 0.9999 0.0
H360 H 0.85109 0.51121 0.96104 0.0
H361 H 0.8118 0.3983 0.95914 0.0
C362 C 0.77088 0.40486 0.9304 0.0
C363 C 0.75691 0.42666 0.91444 0.0
C364 C 0.8641 0.49412 0.96955 0.0
C365 C 0.81796 0.44821 0.94807 0.0
C366 C 0.89501 0.50568 0.98481 0.0
C367 C 0.91297 0.48438 0.99592 0.0
C368 C 0.85053 0.46088 0.96534 0.0
C369 C 0.89834 0.45125 0.99172 0.0
C370 C 0.80139 0.4155 0.94713 0.0
C371 C 0.77446 0.45906 0.91584 0.0
N372 N 0.86801 0.44051 0.97674 0.0
N373 N 0.80385 0.46879 0.93238 0.0
H374 H 0.73676 0.70842 0.45825 0.0
H375 H 0.60713 0.54563 0.5018 0.0
H376 H 0.73752 0.616 0.41044 0.0
H377 H 0.59723 0.64032 0.53535 0.0
H378 H 0.65808 0.57017 0.47244 0.0
H379 H 0.6886 0.68298 0.49058 0.0
C380 C 0.72682 0.68273 0.45454 0.0
C381 C 0.74114 0.66432 0.43148 0.0
C382 C 0.6448 0.58554 0.48633 0.0
C383 C 0.6859 0.63498 0.46862 0.0
C384 C 0.61577 0.57157 0.50324 0.0
C385 C 0.59776 0.59097 0.521 0.0
C386 C 0.65601 0.61912 0.48733 0.0
C387 C 0.61017 0.62441 0.52188 0.0
C388 C 0.69926 0.66822 0.47303 0.0
C389 C 0.72717 0.63112 0.42784 0.0
N390 N 0.63847 0.6374 0.50524 0.0
N391 N 0.70029 0.61749 0.44624 0.0
H392 H 0.29461 0.36003 0.0694 0.0
H393 H 0.11662 0.36956 0.14557 0.0
H394 H 0.26632 0.34 0.16987 0.0
H395 H 0.15197 0.40358 0.05079 0.0
H396 H 0.16893 0.35359 0.15314 0.0
H397 H 0.23981 0.37023 0.06015 0.0
C398 C 0.27678 0.35747 0.08946 0.0
C399 C 0.2852 0.34927 0.12052 0.0
C400 C 0.16515 0.36444 0.13064 0.0
C401 C 0.22232 0.36114 0.11011 0.0
C402 C 0.13533 0.37375 0.12635 0.0
C403 C 0.12973 0.38809 0.09751 0.0
C404 C 0.18966 0.36938 0.10589 0.0
C405 C 0.1548 0.39226 0.07324 0.0
C406 C 0.2455 0.36343 0.08418 0.0
C407 C 0.261 0.34635 0.14555 0.0
N408 N 0.1836 0.38305 0.07803 0.0
N409 N 0.23074 0.3524 0.13984 0.0
H410 H 0.67891 0.25773 0.99525 0.0
H411 H 0.50756 0.12847 0.02844 0.0
H412 H 0.58296 0.26361 0.95904 0.0
H413 H 0.60366 0.12 0.06191 0.0
H414 H 0.53486 0.17826 1.00331 0.0
H415 H 0.65195 0.20764 0.02042 0.0
C416 C 0.6522 0.24855 0.9926 0.0
C417 C 0.63323 0.26499 0.97495 0.0
C418 C 0.55 0.16549 0.01609 0.0
C419 C 0.60216 0.20757 1.00372 0.0
C420 C 0.5344 0.13697 0.03046 0.0
C421 C 0.55326 0.11983 0.04731 0.0
C422 C 0.58479 0.17714 0.01858 0.0
C423 C 0.58801 0.13224 0.04911 0.0
C424 C 0.63681 0.21991 1.00696 0.0
C425 C 0.59867 0.25185 0.97237 0.0
N426 N 0.6026 0.16009 0.03499 0.0
N427 N 0.58431 0.22401 0.98655 0.0
H428 H 0.8549 0.79751 0.40133 0.0
H429 H 0.01758 0.91706 0.48038 0.0
H430 H 0.95371 0.78078 0.3906 0.0
H431 H 0.91723 0.92749 0.49851 0.0
H432 H 0.99538 0.86942 0.44439 0.0
H433 H 0.8782 0.84759 0.43295 0.0
C434 C 0.88161 0.80446 0.40536 0.0
C435 C 0.90235 0.78467 0.39337 0.0
C436 C 0.97821 0.88213 0.45619 0.0
C437 C 0.92923 0.84228 0.43001 0.0
C438 C 0.99084 0.9094 0.47683 0.0
C439 C 0.96923 0.92639 0.49267 0.0
C440 C 0.94367 0.87169 0.45117 0.0
C441 C 0.93485 0.91518 0.48696 0.0
C442 C 0.89487 0.83311 0.42358 0.0
C443 C 0.93676 0.7952 0.39934 0.0
N444 N 0.92316 0.88856 0.4667 0.0
N445 N 0.9491 0.82321 0.41742 0.0
H446 H 0.26753 0.7819 0.68262 0.0
H447 H 0.35331 0.633 0.66591 0.0
H448 H 0.22451 0.68948 0.72089 0.0
H449 H 0.40097 0.72786 0.63617 0.0
H450 H 0.30369 0.652 0.68154 0.0
H451 H 0.31414 0.76111 0.6605 0.0
C452 C 0.26769 0.75714 0.68609 0.0
C453 C 0.24216 0.73745 0.70381 0.0
C454 C 0.32495 0.66866 0.67152 0.0
C455 C 0.29557 0.71358 0.67874 0.0
C456 C 0.35325 0.65779 0.66243 0.0
C457 C 0.38139 0.67889 0.64976 0.0
C458 C 0.32467 0.7009 0.66789 0.0
C459 C 0.38002 0.71087 0.64625 0.0
C460 C 0.29439 0.74533 0.67356 0.0
C461 C 0.24371 0.70556 0.70753 0.0
N462 N 0.35215 0.7209 0.65528 0.0
N463 N 0.27004 0.69468 0.69525 0.0
H464 H 0.7045 0.76651 0.73468 0.0
H465 H 0.82094 0.94326 0.72075 0.0
H466 H 0.72131 0.8386 0.81526 0.0
H467 H 0.81475 0.86638 0.64591 0.0
H468 H 0.77997 0.90723 0.75361 0.0
H469 H 0.73994 0.80486 0.69975 0.0
C470 C 0.71527 0.79058 0.74495 0.0
C471 C 0.70962 0.79939 0.77796 0.0
C472 C 0.78749 0.89826 0.72997 0.0
C473 C 0.75065 0.84343 0.73805 0.0
C474 C 0.81077 0.91885 0.7111 0.0
C475 C 0.8213 0.90782 0.68048 0.0
C476 C 0.77449 0.86638 0.71814 0.0
C477 C 0.80763 0.87581 0.6695 0.0
C478 C 0.7356 0.81244 0.72497 0.0
C479 C 0.72427 0.83091 0.78986 0.0
N480 N 0.78493 0.85625 0.6883 0.0
N481 N 0.74428 0.85174 0.76996 0.0
H482 H 0.85038 0.2182 0.29737 0.0
H483 H 0.67564 0.18622 0.20532 0.0
H484 H 0.78807 0.28604 0.29951 0.0
H485 H 0.7389 0.11925 0.2006 0.0
H486 H 0.72043 0.22634 0.23296 0.0
H487 H 0.81403 0.18512 0.25529 0.0
C488 C 0.82938 0.22642 0.28866 0.0
C489 C 0.82198 0.2547 0.30242 0.0
C490 C 0.72467 0.20298 0.22557 0.0
C491 C 0.78008 0.21676 0.25448 0.0
C492 C 0.69914 0.1801 0.20959 0.0
C493 C 0.70333 0.14914 0.20105 0.0
C494 C 0.75457 0.19483 0.23322 0.0
C495 C 0.73428 0.14256 0.20747 0.0
C496 C 0.80857 0.20746 0.26466 0.0
C497 C 0.79453 0.26422 0.28996 0.0
N498 N 0.75857 0.16507 0.22349 0.0
N499 N 0.77435 0.24508 0.26703 0.0
H500 H 0.44279 0.64168 0.32144 0.0
H501 H 0.43736 0.61726 0.51572 0.0
H502 H 0.38947 0.69103 0.39088 0.0
H503 H 0.485 0.56375 0.44484 0.0
H504 H 0.4202 0.64505 0.47073 0.0
H505 H 0.45977 0.61416 0.36664 0.0
C506 C 0.4348 0.64692 0.34621 0.0
C507 C 0.41464 0.6688 0.35226 0.0
C508 C 0.43431 0.62715 0.46501 0.0
C509 C 0.4339 0.63705 0.40436 0.0
C510 C 0.44406 0.61116 0.49072 0.0
C511 C 0.46266 0.58799 0.48418 0.0
C512 C 0.44328 0.6201 0.43241 0.0
C513 C 0.47065 0.58131 0.45119 0.0
C514 C 0.44442 0.63106 0.37205 0.0
C515 C 0.40502 0.67443 0.38497 0.0
N516 N 0.46103 0.5973 0.42666 0.0
N517 N 0.41468 0.65866 0.40971 0.0
H518 H 0.11863 0.45632 0.78835 0.0
H519 H 0.07161 0.45035 0.97995 0.0
H520 H 0.12662 0.37908 0.84838 0.0
H521 H 0.03944 0.51368 0.91604 0.0
H522 H 0.09774 0.42805 0.93292 0.0
H523 H 0.09566 0.48189 0.83592 0.0
C524 C 0.11584 0.44488 0.81155 0.0
C525 C 0.12447 0.41543 0.81431 0.0
C526 C 0.08498 0.44683 0.92914 0.0
C527 C 0.09825 0.44453 0.86872 0.0
C528 C 0.07007 0.45964 0.95602 0.0
C529 C 0.05317 0.48389 0.95196 0.0
C530 C 0.0833 0.45843 0.89786 0.0
C531 C 0.05204 0.4949 0.92029 0.0
C532 C 0.10256 0.4594 0.83862 0.0
C533 C 0.12017 0.40166 0.84498 0.0
N534 N 0.06695 0.48213 0.89445 0.0
N535 N 0.10741 0.4163 0.8709 0.0
H536 H 0.5714 0.89047 0.87552 0.0
H537 H 0.58527 0.97273 0.0585 0.0
H538 H 0.65353 0.89283 0.94071 0.0
H539 H 0.51061 0.98039 0.98831 0.0
H540 H 0.60935 0.94148 0.0167 0.0
H541 H 0.54781 0.92187 0.91737 0.0
C542 C 0.58456 0.89766 0.8986 0.0
C543 C 0.61452 0.88896 0.90457 0.0
C544 C 0.58769 0.95 1.01048 0.0
C545 C 0.58746 0.92485 0.9528 0.0
C546 C 0.57383 0.96776 0.03438 0.0
C547 C 0.54584 0.97927 0.02697 0.0
C548 C 0.5734 0.94354 0.97894 0.0
C549 C 0.53222 0.97213 0.9952 0.0
C550 C 0.57104 0.91561 0.92252 0.0
C551 C 0.63042 0.89902 0.93499 0.0
N552 N 0.5461 0.95474 0.97243 0.0
N553 N 0.61664 0.91633 0.95799 0.0
H554 H 0.88376 0.19348 0.46801 0.0
H555 H 0.0141 0.08153 0.4635 0.0
H556 H 0.97033 0.20871 0.40467 0.0
H557 H 0.93387 0.07598 0.53396 0.0
H558 H 0.99655 0.12541 0.43847 0.0
H559 H 0.90013 0.14785 0.48968 0.0
C560 C 0.90626 0.18726 0.45866 0.0
C561 C 0.92576 0.20506 0.43456 0.0
C562 C 0.98278 0.11445 0.45934 0.0
C563 C 0.94466 0.15257 0.45923 0.0
C564 C 0.99267 0.08932 0.47353 0.0
C565 C 0.97553 0.07512 0.50097 0.0
C566 C 0.95546 0.12527 0.47259 0.0
C567 C 0.94803 0.0863 0.51301 0.0
C568 C 0.91561 0.16115 0.47105 0.0
C569 C 0.95462 0.19575 0.42334 0.0
N570 N 0.93893 0.11066 0.4988 0.0
N571 N 0.96321 0.17013 0.43576 0.0
H572 H 0.23884 0.61928 0.18817 0.0
H573 H 0.11988 0.59801 0.03047 0.0
H574 H 0.26079 0.67708 0.10386 0.0
H575 H 0.09955 0.53587 0.11157 0.0
H576 H 0.17242 0.62615 0.05656 0.0
H577 H 0.18847 0.58743 0.16023 0.0
C578 C 0.23318 0.62521 0.16377 0.0
C579 C 0.25407 0.651 0.14842 0.0
C580 C 0.15656 0.60627 0.06861 0.0
C581 C 0.19642 0.61471 0.11634 0.0
C582 C 0.12649 0.59013 0.05368 0.0
C583 C 0.10507 0.56456 0.06885 0.0
C584 C 0.16536 0.59693 0.09907 0.0
C585 C 0.11516 0.55548 0.09894 0.0
C586 C 0.20441 0.60701 0.14782 0.0
C587 C 0.24545 0.65752 0.11675 0.0
N588 N 0.14445 0.57174 0.11312 0.0
N589 N 0.2173 0.63961 0.10187 0.0
H590 H 0.23571 0.43699 0.62067 0.0
H591 H 0.42756 0.52272 0.64759 0.0
H592 H 0.28782 0.43355 0.71093 0.0
H593 H 0.38815 0.48779 0.55111 0.0
H594 H 0.37401 0.49724 0.67178 0.0
H595 H 0.28902 0.46263 0.59529 0.0
C596 C 0.25831 0.44177 0.63519 0.0
C597 C 0.25734 0.43313 0.66798 0.0
C598 C 0.37709 0.4951 0.64532 0.0
C599 C 0.31816 0.46262 0.6392 0.0
C600 C 0.40761 0.50975 0.63144 0.0
C601 C 0.4124 0.50732 0.59723 0.0
C602 C 0.35083 0.47832 0.62489 0.0
C603 C 0.3856 0.49009 0.5776 0.0
C604 C 0.28869 0.45621 0.62063 0.0
C605 C 0.28742 0.43972 0.68558 0.0
N606 N 0.35584 0.4764 0.5917 0.0
N607 N 0.31655 0.45426 0.67105 0.0
H608 H 0.7563 0.70833 0.91034 0.0
H609 H 0.88639 0.59738 0.88224 0.0
H610 H 0.74868 0.63566 0.83079 0.0
H611 H 0.89517 0.67229 0.95963 0.0
H612 H 0.83514 0.60998 0.86375 0.0
H613 H 0.80632 0.69421 0.92968 0.0
C614 C 0.76505 0.68928 0.89702 0.0
C615 C 0.74829 0.67318 0.86886 0.0
C616 C 0.84832 0.6237 0.88474 0.0
C617 C 0.80572 0.65699 0.8908 0.0
C618 C 0.87752 0.61644 0.89537 0.0
C619 C 0.8952 0.63388 0.92246 0.0
C620 C 0.8366 0.6485 0.90137 0.0
C621 C 0.8827 0.65855 0.93832 0.0
C622 C 0.79368 0.68128 0.90804 0.0
C623 C 0.76081 0.64873 0.85259 0.0
N624 N 0.85418 0.66508 0.92757 0.0
N625 N 0.78881 0.64143 0.86375 0.0
H626 H 0.439 0.82013 0.24998 0.0
H627 H 0.43436 0.92997 0.09796 0.0
H628 H 0.37636 0.79073 0.16424 0.0
H629 H 0.49579 0.9639 0.18375 0.0
H630 H 0.41365 0.87855 0.12241 0.0
H631 H 0.46123 0.87254 0.22662 0.0
C632 C 0.42999 0.82457 0.22629 0.0
C633 C 0.40568 0.80084 0.20917 0.0
C634 C 0.43164 0.8972 0.136 0.0
C635 C 0.43094 0.86074 0.18234 0.0
C636 C 0.44349 0.92669 0.122 0.0
C637 C 0.46689 0.95146 0.13876 0.0
C638 C 0.44321 0.89216 0.16709 0.0
C639 C 0.47772 0.94558 0.1699 0.0
C640 C 0.44263 0.85452 0.213 0.0
C641 C 0.39496 0.80811 0.17854 0.0
N642 N 0.46585 0.91656 0.18303 0.0
N643 N 0.40758 0.83723 0.16624 0.0
H644 H 0.13543 0.25379 0.6623 0.0
H645 H 0.02174 0.07385 0.65414 0.0
H646 H 0.07755 0.21018 0.74398 0.0
H647 H 0.08102 0.11565 0.57241 0.0
H648 H 0.0432 0.12334 0.68768 0.0
H649 H 0.11711 0.20314 0.62925 0.0
C650 C 0.11898 0.23356 0.67333 0.0
C651 C 0.10794 0.2363 0.70595 0.0
C652 C 0.05162 0.12169 0.66244 0.0
C653 C 0.08682 0.1783 0.66825 0.0
C654 C 0.03934 0.09338 0.64323 0.0
C655 C 0.0495 0.09053 0.61033 0.0
C656 C 0.07419 0.1475 0.64871 0.0
C657 C 0.07244 0.11672 0.59763 0.0
C658 C 0.10852 0.20465 0.65444 0.0
C659 C 0.08666 0.20926 0.71893 0.0
N660 N 0.08392 0.14412 0.61681 0.0
N661 N 0.07675 0.18149 0.70004 0.0
H662 H 0.78563 0.38781 0.45292 0.0
H663 H 0.58808 0.35592 0.48094 0.0
H664 H 0.71737 0.29465 0.43919 0.0
H665 H 0.6554 0.44974 0.49265 0.0
H666 H 0.63581 0.33254 0.46945 0.0
H667 H 0.73905 0.41034 0.47216 0.0
C668 C 0.76095 0.37202 0.45428 0.0
C669 C 0.75538 0.33933 0.44418 0.0
C670 C 0.64019 0.35823 0.4747 0.0
C671 C 0.70193 0.36499 0.46594 0.0
C672 C 0.6129 0.37162 0.48108 0.0
C673 C 0.61767 0.40488 0.48761 0.0
C674 C 0.67258 0.37822 0.47471 0.0
C675 C 0.65051 0.42395 0.48804 0.0
C676 C 0.73433 0.38492 0.46517 0.0
C677 C 0.72284 0.32003 0.4465 0.0
N678 N 0.67666 0.41038 0.4815 0.0
N679 N 0.69736 0.33318 0.45691 0.0
loop_
_geom_bond_atom_site_label_1
_geom_bond_atom_site_label_2
_geom_bond_distance
_geom_bond_site_symmetry_2
_ccdc_geom_bond_type
O0 Cd1 2.300 . S
O0 C7 1.275 . S
Cd1 O0 2.300 . S
Cd1 O9 2.381 . S
Cd1 O10 2.378 . S
O2 Cd3 2.385 . S
O2 C7 1.255 . S
Cd3 O2 2.385 . S
Cd3 O4 2.317 . S
O4 Cd3 2.317 . S
O4 C5 1.232 . S
C5 O4 1.232 . S
C5 O6 1.218 . S
O6 C5 1.218 . S
C7 O0 1.275 . S
C7 O2 1.255 . S
C8 O9 1.258 . S
C8 O10 1.256 . S
O9 Cd1 2.381 . S
O9 C8 1.258 . S
O10 Cd1 2.378 . S
O10 C8 1.256 . S
O11 Cd12 2.300 . S
O11 C18 1.275 . S
Cd12 O11 2.300 . S
Cd12 O20 2.381 . S
Cd12 O21 2.378 . S
O13 Cd14 2.385 . S
O13 C18 1.255 . S
Cd14 O13 2.385 . S
Cd14 O15 2.317 . S
O15 Cd14 2.317 . S
O15 C16 1.232 . S
C16 O15 1.232 . S
C16 O17 1.218 . S
O17 C16 1.218 . S
C18 O11 1.275 . S
C18 O13 1.255 . S
C19 O20 1.258 . S
C19 O21 1.256 . S
O20 Cd12 2.381 . S
O20 C19 1.258 . S
O21 Cd12 2.378 . S
O21 C19 1.256 . S
O22 Cd23 2.300 . S
O22 C29 1.275 . S
Cd23 O22 2.300 . S
Cd23 O31 2.381 . S
Cd23 O32 2.378 . S
O24 Cd25 2.385 . S
O24 C29 1.255 . S
Cd25 O24 2.385 . S
Cd25 O26 2.317 . S
O26 Cd25 2.317 . S
O26 C27 1.232 . S
C27 O26 1.232 . S
C27 O28 1.218 . S
O28 C27 1.218 . S
C29 O22 1.275 . S
C29 O24 1.255 . S
C30 O31 1.258 . S
C30 O32 1.256 . S
O31 Cd23 2.381 . S
O31 C30 1.258 . S
O32 Cd23 2.378 . S
O32 C30 1.256 . S
O33 Cd34 2.300 . S
O33 C40 1.275 . S
Cd34 O33 2.300 . S
Cd34 O42 2.381 . S
Cd34 O43 2.378 . S
O35 Cd36 2.385 . S
O35 C40 1.255 . S
Cd36 O35 2.385 . S
Cd36 O37 2.317 . S
O37 Cd36 2.317 . S
O37 C38 1.232 . S
C38 O37 1.232 . S
C38 O39 1.218 . S
O39 C38 1.218 . S
C40 O33 1.275 . S
C40 O35 1.255 . S
C41 O42 1.258 . S
C41 O43 1.256 . S
O42 Cd34 2.381 . S
O42 C41 1.258 . S
O43 Cd34 2.378 . S
O43 C41 1.256 . S
O44 Cd45 2.300 . S
O44 C51 1.275 . S
Cd45 O44 2.300 . S
Cd45 O53 2.381 . S
Cd45 O54 2.378 . S
O46 Cd47 2.385 . S
O46 C51 1.255 . S
Cd47 O46 2.385 . S
Cd47 O48 2.317 . S
O48 Cd47 2.317 . S
O48 C49 1.232 . S
C49 O48 1.232 . S
C49 O50 1.218 . S
O50 C49 1.218 . S
C51 O44 1.275 . S
C51 O46 1.255 . S
C52 O53 1.258 . S
C52 O54 1.256 . S
O53 Cd45 2.381 . S
O53 C52 1.258 . S
O54 Cd45 2.378 . S
O54 C52 1.256 . S
O55 Cd56 2.300 . S
O55 C62 1.275 . S
Cd56 O55 2.300 . S
Cd56 O64 2.381 . S
Cd56 O65 2.378 . S
O57 Cd58 2.385 . S
O57 C62 1.255 . S
Cd58 O57 2.385 . S
Cd58 O59 2.317 . S
O59 Cd58 2.317 . S
O59 C60 1.232 . S
C60 O59 1.232 . S
C60 O61 1.218 . S
O61 C60 1.218 . S
C62 O55 1.275 . S
C62 O57 1.255 . S
C63 O64 1.258 . S
C63 O65 1.256 . S
O64 Cd56 2.381 . S
O64 C63 1.258 . S
O65 Cd56 2.378 . S
O65 C63 1.256 . S
O66 Cd67 2.300 . S
O66 C73 1.275 . S
Cd67 O66 2.300 . S
Cd67 O75 2.381 . S
Cd67 O76 2.378 . S
O68 Cd69 2.385 . S
O68 C73 1.255 . S
Cd69 O68 2.385 . S
Cd69 O70 2.317 . S
O70 Cd69 2.317 . S
O70 C71 1.232 . S
C71 O70 1.232 . S
C71 O72 1.218 . S
O72 C71 1.218 . S
C73 O66 1.275 . S
C73 O68 1.255 . S
C74 O75 1.258 . S
C74 O76 1.256 . S
O75 Cd67 2.381 . S
O75 C74 1.258 . S
O76 Cd67 2.378 . S
O76 C74 1.256 . S
O77 Cd78 2.300 . S
O77 C84 1.275 . S
Cd78 O77 2.300 . S
Cd78 O86 2.381 . S
Cd78 O87 2.378 . S
O79 Cd80 2.385 . S
O79 C84 1.255 . S
Cd80 O79 2.385 . S
Cd80 O81 2.317 . S
O81 Cd80 2.317 . S
O81 C82 1.232 . S
C82 O81 1.232 . S
C82 O83 1.218 . S
O83 C82 1.218 . S
C84 O77 1.275 . S
C84 O79 1.255 . S
C85 O86 1.258 . S
C85 O87 1.256 . S
O86 Cd78 2.381 . S
O86 C85 1.258 . S
O87 Cd78 2.378 . S
O87 C85 1.256 . S
Tb88 C97 2.764 . S
Tb88 O98 2.325 1_455 S
Tb88 O101 2.303 . S
Tb88 O105 2.322 1_545 S
Tb88 O106 2.349 1_545 S
Tb88 O109 2.415 . S
Tb88 O110 2.399 . S
Tb89 O99 2.322 . S
Tb89 O100 2.349 . S
Tb89 O102 2.415 1_545 S
Tb89 O103 2.399 1_545 S
Tb89 O104 2.325 1_645 S
Tb89 O107 2.303 1_545 S
Tb89 C118 2.764 1_545 S
C90 O106 1.261 1_655 S
C90 O107 1.257 . S
C91 C94 1.358 . S
C91 C95 1.332 . S
C91 C97 1.504 . S
C92 C93 1.373 . S
C92 C96 1.308 . S
C93 C92 1.373 . S
C93 C94 1.429 . S
C93 H120 0.932 . S
C94 C91 1.358 . S
C94 C93 1.429 . S
C94 H121 0.930 . S
C95 C91 1.332 . S
C95 C96 1.394 . S
C95 H122 0.932 . S
C96 C92 1.308 . S
C96 C95 1.394 . S
C96 H123 0.929 . S
C97 Tb88 2.764 . S
C97 C91 1.504 . S
C97 O109 1.239 . S
C97 O110 1.263 . S
O98 Tb88 2.325 1_655 S
O98 C108 1.236 . S
O99 Tb89 2.322 . S
O99 C108 1.257 . S
O100 Tb89 2.349 . S
O100 C111 1.261 1_655 S
O101 Tb88 2.303 . S
O101 C111 1.257 . S
O102 Tb89 2.415 1_565 S
O102 C118 1.239 . S
O103 Tb89 2.399 1_565 S
O103 C118 1.263 . S
O104 Tb89 2.325 1_465 S
O104 C119 1.236 . S
O105 Tb88 2.322 1_565 S
O105 C119 1.257 . S
O106 Tb88 2.349 1_565 S
O106 C90 1.261 1_455 S
O107 Tb89 2.303 1_565 S
O107 C90 1.257 . S
C108 O98 1.236 . S
C108 O99 1.257 . S
O109 Tb88 2.415 . S
O109 C97 1.239 . S
O110 Tb88 2.399 . S
O110 C97 1.263 . S
C111 O100 1.261 1_455 S
C111 O101 1.257 . S
C112 C115 1.358 . S
C112 C116 1.332 . S
C112 C118 1.504 . S
C113 C114 1.373 . S
C113 C117 1.308 . S
C114 C113 1.373 . S
C114 C115 1.429 . S
C114 H124 0.932 . S
C115 C112 1.358 . S
C115 C114 1.429 . S
C115 H125 0.930 . S
C116 C112 1.332 . S
C116 C117 1.394 . S
C116 H126 0.932 . S
C117 C113 1.308 . S
C117 C116 1.394 . S
C117 H127 0.929 . S
C118 Tb89 2.764 1_565 S
C118 O102 1.239 . S
C118 O103 1.263 . S
C118 C112 1.504 . S
C119 O104 1.236 . S
C119 O105 1.257 . S
H120 C93 0.932 . S
H121 C94 0.930 . S
H122 C95 0.932 . S
H123 C96 0.929 . S
H124 C114 0.932 . S
H125 C115 0.930 . S
H126 C116 0.932 . S
H127 C117 0.929 . S
Tb128 C137 2.764 . S
Tb128 O138 2.325 . S
Tb128 O141 2.303 . S
Tb128 O145 2.322 1_545 S
Tb128 O146 2.349 . S
Tb128 O149 2.415 . S
Tb128 O150 2.399 . S
Tb129 O139 2.322 . S
Tb129 O140 2.349 . S
Tb129 O142 2.415 1_544 S
Tb129 O143 2.399 1_545 S
Tb129 O144 2.325 1_545 S
Tb129 O147 2.303 . S
Tb129 C158 2.764 1_544 S
C130 O146 1.261 1_565 S
C130 O147 1.257 1_565 S
C131 C134 1.358 . S
C131 C135 1.332 . S
C131 C137 1.504 . S
C132 C133 1.373 . S
C132 C136 1.308 . S
C133 C132 1.373 . S
C133 C134 1.429 . S
C133 H160 0.932 . S
C134 C131 1.358 . S
C134 C133 1.429 . S
C134 H161 0.930 . S
C135 C131 1.332 . S
C135 C136 1.394 . S
C135 H162 0.932 . S
C136 C132 1.308 . S
C136 C135 1.394 . S
C136 H163 0.929 . S
C137 Tb128 2.764 . S
C137 C131 1.504 . S
C137 O149 1.239 . S
C137 O150 1.263 . S
O138 Tb128 2.325 . S
O138 C148 1.236 . S
O139 Tb129 2.322 . S
O139 C148 1.257 . S
O140 Tb129 2.349 . S
O140 C151 1.261 . S
O141 Tb128 2.303 . S
O141 C151 1.257 . S
O142 Tb129 2.415 1_566 S
O142 C158 1.239 . S
O143 Tb129 2.399 1_565 S
O143 C158 1.263 1_554 S
O144 Tb129 2.325 1_565 S
O144 C159 1.236 . S
O145 Tb128 2.322 1_565 S
O145 C159 1.257 . S
O146 Tb128 2.349 . S
O146 C130 1.261 1_545 S
O147 Tb129 2.303 . S
O147 C130 1.257 1_545 S
C148 O138 1.236 . S
C148 O139 1.257 . S
O149 Tb128 2.415 . S
O149 C137 1.239 . S
O150 Tb128 2.399 . S
O150 C137 1.263 . S
C151 O140 1.261 . S
C151 O141 1.257 . S
C152 C155 1.358 . S
C152 C156 1.332 . S
C152 C158 1.504 . S
C153 C154 1.373 . S
C153 C157 1.308 . S
C154 C153 1.373 . S
C154 C155 1.429 . S
C154 H164 0.932 . S
C155 C152 1.358 . S
C155 C154 1.429 . S
C155 H165 0.930 . S
C156 C152 1.332 . S
C156 C157 1.394 . S
C156 H166 0.932 . S
C157 C153 1.308 . S
C157 C156 1.394 . S
C157 H167 0.929 . S
C158 Tb129 2.764 1_566 S
C158 O142 1.239 . S
C158 O143 1.263 1_556 S
C158 C152 1.504 . S
C159 O144 1.236 . S
C159 O145 1.257 . S
H160 C133 0.932 . S
H161 C134 0.930 . S
H162 C135 0.932 . S
H163 C136 0.929 . S
H164 C154 0.932 . S
H165 C155 0.930 . S
H166 C156 0.932 . S
H167 C157 0.929 . S
Tb168 C177 2.764 . S
Tb168 O178 2.325 . S
Tb168 O181 2.303 . S
Tb168 O185 2.322 . S
Tb168 O186 2.349 . S
Tb168 O189 2.415 . S
Tb168 O190 2.399 . S
Tb169 O179 2.322 . S
Tb169 O180 2.349 . S
Tb169 O182 2.415 . S
Tb169 O183 2.399 . S
Tb169 O184 2.325 . S
Tb169 O187 2.303 . S
Tb169 C198 2.764 . S
C170 O186 1.261 . S
C170 O187 1.257 . S
C171 C174 1.358 . S
C171 C175 1.332 . S
C171 C177 1.504 . S
C172 C173 1.373 . S
C172 C176 1.308 . S
C173 C172 1.373 . S
C173 C174 1.429 . S
C173 H200 0.932 . S
C174 C171 1.358 . S
C174 C173 1.429 . S
C174 H201 0.930 . S
C175 C171 1.332 . S
C175 C176 1.394 . S
C175 H202 0.932 . S
C176 C172 1.308 . S
C176 C175 1.394 . S
C176 H203 0.929 . S
C177 Tb168 2.764 . S
C177 C171 1.504 . S
C177 O189 1.239 . S
C177 O190 1.263 . S
O178 Tb168 2.325 . S
O178 C188 1.236 . S
O179 Tb169 2.322 . S
O179 C188 1.257 . S
O180 Tb169 2.349 . S
O180 C191 1.261 . S
O181 Tb168 2.303 . S
O181 C191 1.257 . S
O182 Tb169 2.415 . S
O182 C198 1.239 . S
O183 Tb169 2.399 . S
O183 C198 1.263 . S
O184 Tb169 2.325 . S
O184 C199 1.236 . S
O185 Tb168 2.322 . S
O185 C199 1.257 . S
O186 Tb168 2.349 . S
O186 C170 1.261 . S
O187 Tb169 2.303 . S
O187 C170 1.257 . S
C188 O178 1.236 . S
C188 O179 1.257 . S
O189 Tb168 2.415 . S
O189 C177 1.239 . S
O190 Tb168 2.399 . S
O190 C177 1.263 . S
C191 O180 1.261 . S
C191 O181 1.257 . S
C192 C195 1.358 . S
C192 C196 1.332 . S
C192 C198 1.504 . S
C193 C194 1.373 . S
C193 C197 1.308 . S
C194 C193 1.373 . S
C194 C195 1.429 . S
C194 H204 0.932 . S
C195 C192 1.358 . S
C195 C194 1.429 . S
C195 H205 0.930 . S
C196 C192 1.332 . S
C196 C197 1.394 . S
C196 H206 0.932 . S
C197 C193 1.308 . S
C197 C196 1.394 . S
C197 H207 0.929 . S
C198 Tb169 2.764 . S
C198 O182 1.239 . S
C198 O183 1.263 . S
C198 C192 1.504 . S
C199 O184 1.236 . S
C199 O185 1.257 . S
H200 C173 0.932 . S
H201 C174 0.930 . S
H202 C175 0.932 . S
H203 C176 0.929 . S
H204 C194 0.932 . S
H205 C195 0.930 . S
H206 C196 0.932 . S
H207 C197 0.929 . S
Tb208 C217 2.764 1_455 S
Tb208 O218 2.325 1_455 S
Tb208 O221 2.303 1_556 S
Tb208 O225 2.322 1_556 S
Tb208 O226 2.349 . S
Tb208 O229 2.415 1_455 S
Tb208 O230 2.399 1_455 S
Tb209 O219 2.322 1_455 S
Tb209 O220 2.349 1_455 S
Tb209 O222 2.415 . S
Tb209 O223 2.399 . S
Tb209 O224 2.325 . S
Tb209 O227 2.303 1_554 S
Tb209 C238 2.764 . S
C210 O226 1.261 . S
C210 O227 1.257 . S
C211 C214 1.358 . S
C211 C215 1.332 . S
C211 C217 1.504 . S
C212 C213 1.373 . S
C212 C216 1.308 . S
C213 C212 1.373 . S
C213 C214 1.429 . S
C213 H240 0.932 . S
C214 C211 1.358 . S
C214 C213 1.429 . S
C214 H241 0.930 . S
C215 C211 1.332 . S
C215 C216 1.394 . S
C215 H242 0.932 . S
C216 C212 1.308 . S
C216 C215 1.394 . S
C216 H243 0.929 . S
C217 Tb208 2.764 1_655 S
C217 C211 1.504 . S
C217 O229 1.239 . S
C217 O230 1.263 . S
O218 Tb208 2.325 1_655 S
O218 C228 1.236 . S
O219 Tb209 2.322 1_655 S
O219 C228 1.257 1_554 S
O220 Tb209 2.349 1_655 S
O220 C231 1.261 . S
O221 Tb208 2.303 1_554 S
O221 C231 1.257 1_455 S
O222 Tb209 2.415 . S
O222 C238 1.239 . S
O223 Tb209 2.399 . S
O223 C238 1.263 . S
O224 Tb209 2.325 . S
O224 C239 1.236 . S
O225 Tb208 2.322 1_554 S
O225 C239 1.257 . S
O226 Tb208 2.349 . S
O226 C210 1.261 . S
O227 Tb209 2.303 1_556 S
O227 C210 1.257 . S
C228 O218 1.236 . S
C228 O219 1.257 1_556 S
O229 Tb208 2.415 1_655 S
O229 C217 1.239 . S
O230 Tb208 2.399 1_655 S
O230 C217 1.263 . S
C231 O220 1.261 . S
C231 O221 1.257 1_655 S
C232 C235 1.358 . S
C232 C236 1.332 . S
C232 C238 1.504 . S
C233 C234 1.373 . S
C233 C237 1.308 . S
C234 C233 1.373 . S
C234 C235 1.429 . S
C234 H244 0.932 . S
C235 C232 1.358 . S
C235 C234 1.429 . S
C235 H245 0.930 . S
C236 C232 1.332 . S
C236 C237 1.394 . S
C236 H246 0.932 . S
C237 C233 1.308 . S
C237 C236 1.394 . S
C237 H247 0.929 . S
C238 Tb209 2.764 . S
C238 O222 1.239 . S
C238 O223 1.263 . S
C238 C232 1.504 . S
C239 O224 1.236 . S
C239 O225 1.257 . S
H240 C213 0.932 . S
H241 C214 0.930 . S
H242 C215 0.932 . S
H243 C216 0.929 . S
H244 C234 0.932 . S
H245 C235 0.930 . S
H246 C236 0.932 . S
H247 C237 0.929 . S
H248 C254 0.930 . S
H249 C258 0.930 . S
H250 C263 0.929 . S
H251 C261 0.929 . S
H252 C256 0.929 . S
H253 C262 0.929 . S
C254 H248 0.930 . S
C254 C255 1.367 . S
C254 C262 1.378 . S
C255 C254 1.367 . S
C255 C263 1.433 . S
C256 H252 0.929 . S
C256 C258 1.378 . S
C256 C260 1.350 . S
C257 C260 1.463 . S
C257 C262 1.350 . S
C257 N265 1.427 . S
C258 H249 0.930 . S
C258 C256 1.378 . S
C258 C259 1.367 . S
C259 C258 1.367 . S
C259 C261 1.433 . S
C260 C256 1.350 . S
C260 C257 1.463 . S
C260 N264 1.427 . S
C261 H251 0.929 . S
C261 C259 1.433 . S
C261 N264 1.384 . S
C262 H253 0.929 . S
C262 C254 1.378 . S
C262 C257 1.350 . S
C263 H250 0.929 . S
C263 C255 1.433 . S
C263 N265 1.384 . S
N264 C260 1.427 . S
N264 C261 1.384 . S
N265 C257 1.427 . S
N265 C263 1.384 . S
H266 C272 0.930 . S
H267 C276 0.930 . S
H268 C281 0.929 . S
H269 C279 0.929 . S
H270 C274 0.929 . S
H271 C280 0.929 . S
C272 H266 0.930 . S
C272 C273 1.367 . S
C272 C280 1.378 . S
C273 C272 1.367 . S
C273 C281 1.433 . S
C274 H270 0.929 . S
C274 C276 1.378 . S
C274 C278 1.350 . S
C275 C278 1.463 . S
C275 C280 1.350 . S
C275 N283 1.427 . S
C276 H267 0.930 . S
C276 C274 1.378 . S
C276 C277 1.367 . S
C277 C276 1.367 . S
C277 C279 1.433 . S
C278 C274 1.350 . S
C278 C275 1.463 . S
C278 N282 1.427 . S
C279 H269 0.929 . S
C279 C277 1.433 . S
C279 N282 1.384 . S
C280 H271 0.929 . S
C280 C272 1.378 . S
C280 C275 1.350 . S
C281 H268 0.929 . S
C281 C273 1.433 . S
C281 N283 1.384 . S
N282 C278 1.427 . S
N282 C279 1.384 . S
N283 C275 1.427 . S
N283 C281 1.384 . S
H284 C290 0.930 . S
H285 C294 0.930 . S
H286 C299 0.929 . S
H287 C297 0.929 . S
H288 C292 0.929 . S
H289 C298 0.929 . S
C290 H284 0.930 . S
C290 C291 1.367 . S
C290 C298 1.378 . S
C291 C290 1.367 . S
C291 C299 1.433 . S
C292 H288 0.929 . S
C292 C294 1.378 . S
C292 C296 1.350 . S
C293 C296 1.463 . S
C293 C298 1.350 . S
C293 N301 1.427 . S
C294 H285 0.930 . S
C294 C292 1.378 . S
C294 C295 1.367 . S
C295 C294 1.367 . S
C295 C297 1.433 . S
C296 C292 1.350 . S
C296 C293 1.463 . S
C296 N300 1.427 . S
C297 H287 0.929 . S
C297 C295 1.433 . S
C297 N300 1.384 . S
C298 H289 0.929 . S
C298 C290 1.378 . S
C298 C293 1.350 . S
C299 H286 0.929 . S
C299 C291 1.433 . S
C299 N301 1.384 . S
N300 C296 1.427 . S
N300 C297 1.384 . S
N301 C293 1.427 . S
N301 C299 1.384 . S
H302 C308 0.930 . S
H303 C312 0.930 . S
H304 C317 0.929 . S
H305 C315 0.929 . S
H306 C310 0.929 . S
H307 C316 0.929 . S
C308 H302 0.930 . S
C308 C309 1.367 . S
C308 C316 1.378 . S
C309 C308 1.367 . S
C309 C317 1.433 . S
C310 H306 0.929 . S
C310 C312 1.378 . S
C310 C314 1.350 . S
C311 C314 1.463 . S
C311 C316 1.350 . S
C311 N319 1.427 . S
C312 H303 0.930 . S
C312 C310 1.378 . S
C312 C313 1.367 . S
C313 C312 1.367 . S
C313 C315 1.433 . S
C314 C310 1.350 . S
C314 C311 1.463 . S
C314 N318 1.427 . S
C315 H305 0.929 . S
C315 C313 1.433 . S
C315 N318 1.384 . S
C316 H307 0.929 . S
C316 C308 1.378 . S
C316 C311 1.350 . S
C317 H304 0.929 . S
C317 C309 1.433 . S
C317 N319 1.384 . S
N318 C314 1.427 . S
N318 C315 1.384 . S
N319 C311 1.427 . S
N319 C317 1.384 . S
H320 C326 0.930 . S
H321 C330 0.930 . S
H322 C335 0.929 . S
H323 C333 0.929 . S
H324 C328 0.929 . S
H325 C334 0.929 . S
C326 H320 0.930 . S
C326 C327 1.367 . S
C326 C334 1.378 . S
C327 C326 1.367 . S
C327 C335 1.433 . S
C328 H324 0.929 . S
C328 C330 1.378 . S
C328 C332 1.350 . S
C329 C332 1.463 . S
C329 C334 1.350 . S
C329 N337 1.427 . S
C330 H321 0.930 . S
C330 C328 1.378 . S
C330 C331 1.367 . S
C331 C330 1.367 . S
C331 C333 1.433 . S
C332 C328 1.350 . S
C332 C329 1.463 . S
C332 N336 1.427 . S
C333 H323 0.929 . S
C333 C331 1.433 . S
C333 N336 1.384 . S
C334 H325 0.929 . S
C334 C326 1.378 . S
C334 C329 1.350 . S
C335 H322 0.929 . S
C335 C327 1.433 . S
C335 N337 1.384 . S
N336 C332 1.427 . S
N336 C333 1.384 . S
N337 C329 1.427 . S
N337 C335 1.384 . S
H338 C344 0.930 . S
H339 C348 0.930 . S
H340 C353 0.929 . S
H341 C351 0.929 . S
H342 C346 0.929 . S
H343 C352 0.929 . S
C344 H338 0.930 . S
C344 C345 1.367 . S
C344 C352 1.378 . S
C345 C344 1.367 . S
C345 C353 1.433 . S
C346 H342 0.929 . S
C346 C348 1.378 . S
C346 C350 1.350 . S
C347 C350 1.463 . S
C347 C352 1.350 . S
C347 N355 1.427 . S
C348 H339 0.930 . S
C348 C346 1.378 . S
C348 C349 1.367 . S
C349 C348 1.367 . S
C349 C351 1.433 . S
C350 C346 1.350 . S
C350 C347 1.463 . S
C350 N354 1.427 . S
C351 H341 0.929 . S
C351 C349 1.433 . S
C351 N354 1.384 . S
C352 H343 0.929 . S
C352 C344 1.378 . S
C352 C347 1.350 . S
C353 H340 0.929 . S
C353 C345 1.433 . S
C353 N355 1.384 . S
N354 C350 1.427 . S
N354 C351 1.384 . S
N355 C347 1.427 . S
N355 C353 1.384 . S
H356 C362 0.930 . S
H357 C366 0.930 1_554 S
H358 C371 0.929 . S
H359 C369 0.929 . S
H360 C364 0.929 . S
H361 C370 0.929 . S
C362 H356 0.930 . S
C362 C363 1.367 . S
C362 C370 1.378 . S
C363 C362 1.367 . S
C363 C371 1.433 . S
C364 H360 0.929 . S
C364 C366 1.378 . S
C364 C368 1.350 . S
C365 C368 1.463 . S
C365 C370 1.350 . S
C365 N373 1.427 . S
C366 H357 0.930 1_556 S
C366 C364 1.378 . S
C366 C367 1.367 . S
C367 C366 1.367 . S
C367 C369 1.433 . S
C368 C364 1.350 . S
C368 C365 1.463 . S
C368 N372 1.427 . S
C369 H359 0.929 . S
C369 C367 1.433 . S
C369 N372 1.384 . S
C370 H361 0.929 . S
C370 C362 1.378 . S
C370 C365 1.350 . S
C371 H358 0.929 . S
C371 C363 1.433 . S
C371 N373 1.384 . S
N372 C368 1.427 . S
N372 C369 1.384 . S
N373 C365 1.427 . S
N373 C371 1.384 . S
H374 C380 0.930 . S
H375 C384 0.930 . S
H376 C389 0.929 . S
H377 C387 0.929 . S
H378 C382 0.929 . S
H379 C388 0.929 . S
C380 H374 0.930 . S
C380 C381 1.367 . S
C380 C388 1.378 . S
C381 C380 1.367 . S
C381 C389 1.433 . S
C382 H378 0.929 . S
C382 C384 1.378 . S
C382 C386 1.350 . S
C383 C386 1.463 . S
C383 C388 1.350 . S
C383 N391 1.427 . S
C384 H375 0.930 . S
C384 C382 1.378 . S
C384 C385 1.367 . S
C385 C384 1.367 . S
C385 C387 1.433 . S
C386 C382 1.350 . S
C386 C383 1.463 . S
C386 N390 1.427 . S
C387 H377 0.929 . S
C387 C385 1.433 . S
C387 N390 1.384 . S
C388 H379 0.929 . S
C388 C380 1.378 . S
C388 C383 1.350 . S
C389 H376 0.929 . S
C389 C381 1.433 . S
C389 N391 1.384 . S
N390 C386 1.427 . S
N390 C387 1.384 . S
N391 C383 1.427 . S
N391 C389 1.384 . S
H392 C398 0.930 . S
H393 C402 0.930 . S
H394 C407 0.929 . S
H395 C405 0.929 . S
H396 C400 0.929 . S
H397 C406 0.929 . S
C398 H392 0.930 . S
C398 C399 1.367 . S
C398 C406 1.378 . S
C399 C398 1.367 . S
C399 C407 1.433 . S
C400 H396 0.929 . S
C400 C402 1.378 . S
C400 C404 1.350 . S
C401 C404 1.463 . S
C401 C406 1.350 . S
C401 N409 1.427 . S
C402 H393 0.930 . S
C402 C400 1.378 . S
C402 C403 1.367 . S
C403 C402 1.367 . S
C403 C405 1.433 . S
C404 C400 1.350 . S
C404 C401 1.463 . S
C404 N408 1.427 . S
C405 H395 0.929 . S
C405 C403 1.433 . S
C405 N408 1.384 . S
C406 H397 0.929 . S
C406 C398 1.378 . S
C406 C401 1.350 . S
C407 H394 0.929 . S
C407 C399 1.433 . S
C407 N409 1.384 . S
N408 C404 1.427 . S
N408 C405 1.384 . S
N409 C401 1.427 . S
N409 C407 1.384 . S
H410 C416 0.930 . S
H411 C420 0.930 . S
H412 C425 0.929 . S
H413 C423 0.929 . S
H414 C418 0.929 . S
H415 C424 0.929 . S
C416 H410 0.930 . S
C416 C417 1.367 . S
C416 C424 1.378 . S
C417 C416 1.367 . S
C417 C425 1.433 . S
C418 H414 0.929 . S
C418 C420 1.378 . S
C418 C422 1.350 1_554 S
C419 C422 1.463 . S
C419 C424 1.350 . S
C419 N427 1.427 . S
C420 H411 0.930 . S
C420 C418 1.378 . S
C420 C421 1.367 . S
C421 C420 1.367 . S
C421 C423 1.433 1_554 S
C422 C418 1.350 1_556 S
C422 C419 1.463 . S
C422 N426 1.427 . S
C423 H413 0.929 . S
C423 C421 1.433 1_556 S
C423 N426 1.384 . S
C424 H415 0.929 . S
C424 C416 1.378 . S
C424 C419 1.350 . S
C425 H412 0.929 . S
C425 C417 1.433 . S
C425 N427 1.384 . S
N426 C422 1.427 . S
N426 C423 1.384 . S
N427 C419 1.427 . S
N427 C425 1.384 . S
H428 C434 0.930 . S
H429 C438 0.930 1_455 S
H430 C443 0.929 . S
H431 C441 0.929 . S
H432 C436 0.929 . S
H433 C442 0.929 . S
C434 H428 0.930 . S
C434 C435 1.367 . S
C434 C442 1.378 . S
C435 C434 1.367 . S
C435 C443 1.433 . S
C436 H432 0.929 . S
C436 C438 1.378 . S
C436 C440 1.350 . S
C437 C440 1.463 . S
C437 C442 1.350 . S
C437 N445 1.427 . S
C438 H429 0.930 1_655 S
C438 C436 1.378 . S
C438 C439 1.367 . S
C439 C438 1.367 . S
C439 C441 1.433 . S
C440 C436 1.350 . S
C440 C437 1.463 . S
C440 N444 1.427 . S
C441 H431 0.929 . S
C441 C439 1.433 . S
C441 N444 1.384 . S
C442 H433 0.929 . S
C442 C434 1.378 . S
C442 C437 1.350 . S
C443 H430 0.929 . S
C443 C435 1.433 . S
C443 N445 1.384 . S
N444 C440 1.427 . S
N444 C441 1.384 . S
N445 C437 1.427 . S
N445 C443 1.384 . S
H446 C452 0.930 . S
H447 C456 0.930 . S
H448 C461 0.929 . S
H449 C459 0.929 . S
H450 C454 0.929 . S
H451 C460 0.929 . S
C452 H446 0.930 . S
C452 C453 1.367 . S
C452 C460 1.378 . S
C453 C452 1.367 . S
C453 C461 1.433 . S
C454 H450 0.929 . S
C454 C456 1.378 . S
C454 C458 1.350 . S
C455 C458 1.463 . S
C455 C460 1.350 . S
C455 N463 1.427 . S
C456 H447 0.930 . S
C456 C454 1.378 . S
C456 C457 1.367 . S
C457 C456 1.367 . S
C457 C459 1.433 . S
C458 C454 1.350 . S
C458 C455 1.463 . S
C458 N462 1.427 . S
C459 H449 0.929 . S
C459 C457 1.433 . S
C459 N462 1.384 . S
C460 H451 0.929 . S
C460 C452 1.378 . S
C460 C455 1.350 . S
C461 H448 0.929 . S
C461 C453 1.433 . S
C461 N463 1.384 . S
N462 C458 1.427 . S
N462 C459 1.384 . S
N463 C455 1.427 . S
N463 C461 1.384 . S
H464 C470 0.930 . S
H465 C474 0.930 . S
H466 C479 0.929 . S
H467 C477 0.929 . S
H468 C472 0.929 . S
H469 C478 0.929 . S
C470 H464 0.930 . S
C470 C471 1.367 . S
C470 C478 1.378 . S
C471 C470 1.367 . S
C471 C479 1.433 . S
C472 H468 0.929 . S
C472 C474 1.378 . S
C472 C476 1.350 . S
C473 C476 1.463 . S
C473 C478 1.350 . S
C473 N481 1.427 . S
C474 H465 0.930 . S
C474 C472 1.378 . S
C474 C475 1.367 . S
C475 C474 1.367 . S
C475 C477 1.433 . S
C476 C472 1.350 . S
C476 C473 1.463 . S
C476 N480 1.427 . S
C477 H467 0.929 . S
C477 C475 1.433 . S
C477 N480 1.384 . S
C478 H469 0.929 . S
C478 C470 1.378 . S
C478 C473 1.350 . S
C479 H466 0.929 . S
C479 C471 1.433 . S
C479 N481 1.384 . S
N480 C476 1.427 . S
N480 C477 1.384 . S
N481 C473 1.427 . S
N481 C479 1.384 . S
H482 C488 0.930 . S
H483 C492 0.930 . S
H484 C497 0.929 . S
H485 C495 0.929 . S
H486 C490 0.929 . S
H487 C496 0.929 . S
C488 H482 0.930 . S
C488 C489 1.367 . S
C488 C496 1.378 . S
C489 C488 1.367 . S
C489 C497 1.433 . S
C490 H486 0.929 . S
C490 C492 1.378 . S
C490 C494 1.350 . S
C491 C494 1.463 . S
C491 C496 1.350 . S
C491 N499 1.427 . S
C492 H483 0.930 . S
C492 C490 1.378 . S
C492 C493 1.367 . S
C493 C492 1.367 . S
C493 C495 1.433 . S
C494 C490 1.350 . S
C494 C491 1.463 . S
C494 N498 1.427 . S
C495 H485 0.929 . S
C495 C493 1.433 . S
C495 N498 1.384 . S
C496 H487 0.929 . S
C496 C488 1.378 . S
C496 C491 1.350 . S
C497 H484 0.929 . S
C497 C489 1.433 . S
C497 N499 1.384 . S
N498 C494 1.427 . S
N498 C495 1.384 . S
N499 C491 1.427 . S
N499 C497 1.384 . S
H500 C506 0.930 . S
H501 C510 0.930 . S
H502 C515 0.929 . S
H503 C513 0.929 . S
H504 C508 0.929 . S
H505 C514 0.929 . S
C506 H500 0.930 . S
C506 C507 1.367 . S
C506 C514 1.378 . S
C507 C506 1.367 . S
C507 C515 1.433 . S
C508 H504 0.929 . S
C508 C510 1.378 . S
C508 C512 1.350 . S
C509 C512 1.463 . S
C509 C514 1.350 . S
C509 N517 1.427 . S
C510 H501 0.930 . S
C510 C508 1.378 . S
C510 C511 1.367 . S
C511 C510 1.367 . S
C511 C513 1.433 . S
C512 C508 1.350 . S
C512 C509 1.463 . S
C512 N516 1.427 . S
C513 H503 0.929 . S
C513 C511 1.433 . S
C513 N516 1.384 . S
C514 H505 0.929 . S
C514 C506 1.378 . S
C514 C509 1.350 . S
C515 H502 0.929 . S
C515 C507 1.433 . S
C515 N517 1.384 . S
N516 C512 1.427 . S
N516 C513 1.384 . S
N517 C509 1.427 . S
N517 C515 1.384 . S
H518 C524 0.930 . S
H519 C528 0.930 . S
H520 C533 0.929 . S
H521 C531 0.929 . S
H522 C526 0.929 . S
H523 C532 0.929 . S
C524 H518 0.930 . S
C524 C525 1.367 . S
C524 C532 1.378 . S
C525 C524 1.367 . S
C525 C533 1.433 . S
C526 H522 0.929 . S
C526 C528 1.378 . S
C526 C530 1.350 . S
C527 C530 1.463 . S
C527 C532 1.350 . S
C527 N535 1.427 . S
C528 H519 0.930 . S
C528 C526 1.378 . S
C528 C529 1.367 . S
C529 C528 1.367 . S
C529 C531 1.433 . S
C530 C526 1.350 . S
C530 C527 1.463 . S
C530 N534 1.427 . S
C531 H521 0.929 . S
C531 C529 1.433 . S
C531 N534 1.384 . S
C532 H523 0.929 . S
C532 C524 1.378 . S
C532 C527 1.350 . S
C533 H520 0.929 . S
C533 C525 1.433 . S
C533 N535 1.384 . S
N534 C530 1.427 . S
N534 C531 1.384 . S
N535 C527 1.427 . S
N535 C533 1.384 . S
H536 C542 0.930 . S
H537 C546 0.930 . S
H538 C551 0.929 . S
H539 C549 0.929 . S
H540 C544 0.929 . S
H541 C550 0.929 . S
C542 H536 0.930 . S
C542 C543 1.367 . S
C542 C550 1.378 . S
C543 C542 1.367 . S
C543 C551 1.433 . S
C544 H540 0.929 . S
C544 C546 1.378 . S
C544 C548 1.350 1_554 S
C545 C548 1.463 . S
C545 C550 1.350 . S
C545 N553 1.427 . S
C546 H537 0.930 . S
C546 C544 1.378 . S
C546 C547 1.367 . S
C547 C546 1.367 . S
C547 C549 1.433 1_554 S
C548 C544 1.350 1_556 S
C548 C545 1.463 . S
C548 N552 1.427 . S
C549 H539 0.929 . S
C549 C547 1.433 1_556 S
C549 N552 1.384 . S
C550 H541 0.929 . S
C550 C542 1.378 . S
C550 C545 1.350 . S
C551 H538 0.929 . S
C551 C543 1.433 . S
C551 N553 1.384 . S
N552 C548 1.427 . S
N552 C549 1.384 . S
N553 C545 1.427 . S
N553 C551 1.384 . S
H554 C560 0.930 . S
H555 C564 0.939 . S
H556 C569 0.929 . S
H557 C567 0.929 . S
H558 C562 0.929 . S
H559 C568 0.929 . S
C560 H554 0.930 . S
C560 C561 1.367 . S
C560 C568 1.378 . S
C561 C560 1.367 . S
C561 C569 1.433 . S
C562 H558 0.929 . S
C562 C564 1.378 . S
C562 C566 1.350 . S
C563 C566 1.463 . S
C563 C568 1.350 . S
C563 N571 1.427 . S
C564 H555 0.939 . S
C564 C562 1.378 . S
C564 C565 1.367 . S
C565 C564 1.367 . S
C565 C567 1.433 . S
C566 C562 1.350 . S
C566 C563 1.463 . S
C566 N570 1.427 . S
C567 H557 0.929 . S
C567 C565 1.433 . S
C567 N570 1.384 . S
C568 H559 0.929 . S
C568 C560 1.378 . S
C568 C563 1.350 . S
C569 H556 0.929 . S
C569 C561 1.433 . S
C569 N571 1.384 . S
N570 C566 1.427 . S
N570 C567 1.384 . S
N571 C563 1.427 . S
N571 C569 1.384 . S
H572 C578 0.930 . S
H573 C582 0.930 . S
H574 C587 0.929 . S
H575 C585 0.929 . S
H576 C580 0.929 . S
H577 C586 0.929 . S
C578 H572 0.930 . S
C578 C579 1.367 . S
C578 C586 1.378 . S
C579 C578 1.367 . S
C579 C587 1.433 . S
C580 H576 0.929 . S
C580 C582 1.378 . S
C580 C584 1.350 . S
C581 C584 1.463 . S
C581 C586 1.350 . S
C581 N589 1.427 . S
C582 H573 0.930 . S
C582 C580 1.378 . S
C582 C583 1.367 . S
C583 C582 1.367 . S
C583 C585 1.433 . S
C584 C580 1.350 . S
C584 C581 1.463 . S
C584 N588 1.427 . S
C585 H575 0.929 . S
C585 C583 1.433 . S
C585 N588 1.384 . S
C586 H577 0.929 . S
C586 C578 1.378 . S
C586 C581 1.350 . S
C587 H574 0.929 . S
C587 C579 1.433 . S
C587 N589 1.384 . S
N588 C584 1.427 . S
N588 C585 1.384 . S
N589 C581 1.427 . S
N589 C587 1.384 . S
H590 C596 0.930 . S
H591 C600 0.930 . S
H592 C605 0.929 . S
H593 C603 0.929 . S
H594 C598 0.929 . S
H595 C604 0.929 . S
C596 H590 0.930 . S
C596 C597 1.367 . S
C596 C604 1.378 . S
C597 C596 1.367 . S
C597 C605 1.433 . S
C598 H594 0.929 . S
C598 C600 1.378 . S
C598 C602 1.350 . S
C599 C602 1.463 . S
C599 C604 1.350 . S
C599 N607 1.427 . S
C600 H591 0.930 . S
C600 C598 1.378 . S
C600 C601 1.367 . S
C601 C600 1.367 . S
C601 C603 1.433 . S
C602 C598 1.350 . S
C602 C599 1.463 . S
C602 N606 1.427 . S
C603 H593 0.929 . S
C603 C601 1.433 . S
C603 N606 1.384 . S
C604 H595 0.929 . S
C604 C596 1.378 . S
C604 C599 1.350 . S
C605 H592 0.929 . S
C605 C597 1.433 . S
C605 N607 1.384 . S
N606 C602 1.427 . S
N606 C603 1.384 . S
N607 C599 1.427 . S
N607 C605 1.384 . S
H608 C614 0.930 . S
H609 C618 0.930 . S
H610 C623 0.929 . S
H611 C621 0.929 . S
H612 C616 0.929 . S
H613 C622 0.929 . S
C614 H608 0.930 . S
C614 C615 1.367 . S
C614 C622 1.378 . S
C615 C614 1.367 . S
C615 C623 1.433 . S
C616 H612 0.929 . S
C616 C618 1.378 . S
C616 C620 1.350 . S
C617 C620 1.463 . S
C617 C622 1.350 . S
C617 N625 1.427 . S
C618 H609 0.930 . S
C618 C616 1.378 . S
C618 C619 1.367 . S
C619 C618 1.367 . S
C619 C621 1.433 . S
C620 C616 1.350 . S
C620 C617 1.463 . S
C620 N624 1.427 . S
C621 H611 0.929 . S
C621 C619 1.433 . S
C621 N624 1.384 . S
C622 H613 0.929 . S
C622 C614 1.378 . S
C622 C617 1.350 . S
C623 H610 0.929 . S
C623 C615 1.433 . S
C623 N625 1.384 . S
N624 C620 1.427 . S
N624 C621 1.384 . S
N625 C617 1.427 . S
N625 C623 1.384 . S
H626 C632 0.930 . S
H627 C636 0.930 . S
H628 C641 0.929 . S
H629 C639 0.929 . S
H630 C634 0.929 . S
H631 C640 0.929 . S
C632 H626 0.930 . S
C632 C633 1.367 . S
C632 C640 1.378 . S
C633 C632 1.367 . S
C633 C641 1.433 . S
C634 H630 0.929 . S
C634 C636 1.378 . S
C634 C638 1.350 . S
C635 C638 1.463 . S
C635 C640 1.350 . S
C635 N643 1.427 . S
C636 H627 0.930 . S
C636 C634 1.378 . S
C636 C637 1.367 . S
C637 C636 1.367 . S
C637 C639 1.433 . S
C638 C634 1.350 . S
C638 C635 1.463 . S
C638 N642 1.427 . S
C639 H629 0.929 . S
C639 C637 1.433 . S
C639 N642 1.384 . S
C640 H631 0.929 . S
C640 C632 1.378 . S
C640 C635 1.350 . S
C641 H628 0.929 . S
C641 C633 1.433 . S
C641 N643 1.384 . S
N642 C638 1.427 . S
N642 C639 1.384 . S
N643 C635 1.427 . S
N643 C641 1.384 . S
H644 C650 0.930 . S
H645 C654 0.930 1_655 S
H646 C659 0.929 . S
H647 C657 0.929 . S
H648 C652 0.929 . S
H649 C658 0.929 . S
C650 H644 0.930 . S
C650 C651 1.367 . S
C650 C658 1.378 . S
C651 C650 1.367 . S
C651 C659 1.433 . S
C652 H648 0.929 . S
C652 C654 1.378 . S
C652 C656 1.350 . S
C653 C656 1.463 . S
C653 C658 1.350 . S
C653 N661 1.427 . S
C654 H645 0.930 1_455 S
C654 C652 1.378 . S
C654 C655 1.367 . S
C655 C654 1.367 . S
C655 C657 1.433 . S
C656 C652 1.350 . S
C656 C653 1.463 . S
C656 N660 1.427 . S
C657 H647 0.929 . S
C657 C655 1.433 . S
C657 N660 1.384 . S
C658 H649 0.929 . S
C658 C650 1.378 . S
C658 C653 1.350 . S
C659 H646 0.929 . S
C659 C651 1.433 . S
C659 N661 1.384 . S
N660 C656 1.427 . S
N660 C657 1.384 . S
N661 C653 1.427 . S
N661 C659 1.384 . S
H662 C668 0.930 . S
H663 C672 0.930 . S
H664 C677 0.929 . S
H665 C675 0.929 . S
H666 C670 0.929 . S
H667 C676 0.929 . S
C668 H662 0.930 . S
C668 C669 1.367 . S
C668 C676 1.378 . S
C669 C668 1.367 . S
C669 C677 1.433 . S
C670 H666 0.929 . S
C670 C672 1.378 . S
C670 C674 1.350 . S
C671 C674 1.463 . S
C671 C676 1.350 . S
C671 N679 1.427 . S
C672 H663 0.930 . S
C672 C670 1.378 . S
C672 C673 1.367 . S
C673 C672 1.367 . S
C673 C675 1.433 . S
C674 C670 1.350 . S
C674 C671 1.463 . S
C674 N678 1.427 . S
C675 H665 0.929 . S
C675 C673 1.433 . S
C675 N678 1.384 . S
C676 H667 0.929 . S
C676 C668 1.378 . S
C676 C671 1.350 . S
C677 H664 0.929 . S
C677 C669 1.433 . S
C677 N679 1.384 . S
N678 C674 1.427 . S
N678 C675 1.384 . S
N679 C671 1.427 . S
N679 C677 1.384 . S
C255 C5 0.857 . S
C259 C92 0.988 . S
C273 C18 1.111 . S
C277 C153 1.168 . S
C295 C191 2.363 . S
C291 C30 2.389 . S
C309 C41 2.091 . S
C313 C231 2.052 . S
C331 C151 1.374 . S
C327 C7 1.298 . S
C349 C119 2.091 . S
C345 C16 2.034 . S
C367 C228 1.809 . S
C363 C29 1.741 . S
C385 C188 1.493 . S
C381 C38 1.348 . S
C399 C8 1.074 . S
C403 C233 1.104 . S
C421 C148 2.572 . S
C417 C27 2.269 . S
C435 C40 2.264 . S
C439 C90 2.231 . S
C453 C19 1.298 . S
C457 C193 1.303 . S
C475 C113 0.986 . S
C471 C51 0.912 . S
C489 C62 1.415 . S
C493 C132 1.403 . S
C507 C74 2.475 . S
C511 C170 2.456 . S
C525 C84 2.048 . S
C529 C210 2.130 . S
C543 C49 1.309 . S
C547 C130 1.660 . S
C565 C108 2.078 . S
C561 C63 2.045 . S
C583 C239 1.633 . S
C579 C71 1.408 . S
C601 C199 1.602 . S
C597 C85 1.612 . S
C615 C52 1.153 . S
C619 C212 1.190 . S
C637 C159 2.714 . S
C633 C73 2.633 . S
C655 C111 1.837 . S
C651 C82 1.615 . S
C669 C60 1.338 . S
C673 C172 1.408 . S
