# Generated by pormake.
# Topology nia, (6,6)-cn, num edge types: 1
# Building blocks:
#     Node 0, Type 0, BuildingBlock: KUMJIN_clean_sbu_0, # of connection points: 6
#     Node 1, Type 0, BuildingBlock: KUMJIN_clean_sbu_0, # of connection points: 6
#     Node 2, Type 1, BuildingBlock: MIDCAF_clean_sbu_0, # of connection points: 6
#     Node 3, Type 1, BuildingBlock: MIDCAF_clean_sbu_0, # of connection points: 6
#     Edge 4, Type (0, 1), BuildingBlock: TEMPAE_clean_linker_10, # of connection points: 2
#     Edge 5, Type (0, 1), BuildingBlock: TEMPAE_clean_linker_10, # of connection points: 2
#     Edge 6, Type (0, 1), BuildingBlock: TEMPAE_clean_linker_10, # of connection points: 2
#     Edge 7, Type (0, 1), BuildingBlock: TEMPAE_clean_linker_10, # of connection points: 2
#     Edge 8, Type (0, 1), BuildingBlock: TEMPAE_clean_linker_10, # of connection points: 2
#     Edge 9, Type (0, 1), BuildingBlock: TEMPAE_clean_linker_10, # of connection points: 2
#     Edge 10, Type (0, 1), BuildingBlock: TEMPAE_clean_linker_10, # of connection points: 2
#     Edge 11, Type (0, 1), BuildingBlock: TEMPAE_clean_linker_10, # of connection points: 2
#     Edge 12, Type (0, 1), BuildingBlock: TEMPAE_clean_linker_10, # of connection points: 2
#     Edge 13, Type (0, 1), BuildingBlock: TEMPAE_clean_linker_10, # of connection points: 2
#     Edge 14, Type (0, 1), BuildingBlock: TEMPAE_clean_linker_10, # of connection points: 2
#     Edge 15, Type (0, 1), BuildingBlock: TEMPAE_clean_linker_10, # of connection points: 2
# Relax obj value: 0.169
# Max RMSD: 0.286
# Mean RMSD: 0.204
data_MOF--net-nia--node1-KUMJIN_clean_sbu_0--node2-MIDCAF_clean_sbu_0--edge1-TEMPAE_clean_linker_10
_symmetry_space_group_name_H-M    P1
_symmetry_Int_Tables_number       1
_symmetry_cell_setting            triclinic
loop_
_symmetry_equiv_pos_as_xyz
'x, y, z'
_cell_length_a     28.699016
_cell_length_b     28.62845
_cell_length_c     33.370223
_cell_angle_alpha  89.63438
_cell_angle_beta   90.339917
_cell_angle_gamma 139.29887
loop_
_atom_site_label
_atom_site_type_symbol
_atom_site_fract_x
_atom_site_fract_y
_atom_site_fract_z
_atom_type_partial_charge
Eu0 Eu 0.02674 0.97794 0.05481 0.0
C1 C -0.00316 0.03681 0.88022 0.0
C2 C 0.1008 0.16457 0.86812 0.0
C3 C 0.0402 0.08172 0.81216 0.0
C4 C 0.0523 0.10632 0.89493 0.0
C5 C 0.98934 0.0242 0.83856 0.0
C6 C 0.09556 0.15173 0.82688 0.0
C7 C 0.87619 0.90029 0.8514 0.0
N8 N 0.94728 0.98219 0.9062 0.0
C9 C 0.88516 0.91563 0.89228 0.0
C10 C 0.92912 0.95456 0.82446 0.0
Eu11 Eu 0.96654 0.01396 0.97459 0.0
N12 N 0.05644 0.11754 0.93502 0.0
C13 C 0.10499 0.18568 0.94981 0.0
C14 C 0.15192 0.23427 0.88334 0.0
C15 C 0.15361 0.24483 0.92429 0.0
H16 H 0.84384 0.87389 0.91317 0.0
H17 H 0.19231 0.29857 0.93626 0.0
H18 H 0.13303 0.19581 0.806 0.0
H19 H 0.82824 0.84687 0.84066 0.0
H20 H 0.10688 0.1954 0.98116 0.0
H21 H 0.81115 0.68414 0.07162 0.0
H22 H 0.18973 0.2803 0.86366 0.0
H23 H 0.08848 0.09809 0.1283 0.0
H24 H 0.91854 0.79918 0.04225 0.0
H25 H 0.04558 0.10137 0.18955 0.0
H26 H 0.03569 0.07292 0.78013 0.0
H27 H 0.75859 0.67856 0.13242 0.0
H28 H 0.76644 0.74288 0.18717 0.0
H29 H 0.92165 0.94279 0.7927 0.0
H30 H 0.82935 0.85585 0.21879 0.0
N31 N 0.9231 0.86133 0.0819 0.0
C32 C 0.89445 0.79912 0.06693 0.0
C33 C 0.8049 0.73 0.11873 0.0
C34 C 0.83754 0.79361 0.13608 0.0
C35 C 0.8341 0.7329 0.08431 0.0
C36 C 0.89755 0.8595 0.1169 0.0
H37 H 0.93098 0.98913 0.21909 0.0
N38 N 0.99319 0.98639 0.11728 0.0
C39 C 0.01238 0.05106 0.17405 0.0
C40 C 0.93282 0.92352 0.13469 0.0
C41 C 0.03536 0.04911 0.13803 0.0
C42 C 0.94799 0.98765 0.19071 0.0
C43 C 0.90865 0.92269 0.17187 0.0
O44 O 0.11327 0.02942 0.09711 0.0
O45 O 0.05603 0.03748 0.99784 0.0
O46 O 0.96873 0.94374 0.94757 0.0
O47 O 0.96835 0.89495 0.00438 0.0
O48 O 0.11525 0.02451 0.01341 0.0
O49 O 0.05832 0.92967 0.06673 0.0
O50 O 0.86045 0.96393 0.97467 0.0
O51 O 0.94921 0.97348 0.0368 0.0
O52 O 0.09147 0.09327 0.05935 0.0
O53 O 0.02233 0.09581 0.02472 0.0
O54 O 0.86371 0.90422 0.99838 0.0
O55 O 0.95091 0.0776 0.96397 0.0
C56 C 0.10666 0.04949 0.98619 0.0
C57 C 0.15415 0.98167 0.11307 0.0
C58 C 0.19005 0.92877 0.12754 0.0
C59 C 0.14319 0.92491 0.10898 0.0
C60 C 0.24719 0.98905 0.15064 0.0
C61 C 0.21121 0.04118 0.13661 0.0
C62 C 0.25735 0.04466 0.15531 0.0
C63 C 0.95867 0.89548 0.96551 0.0
C64 C 0.10793 0.98027 0.09193 0.0
C65 C 0.84799 0.85727 0.19015 0.0
C66 C 0.81251 0.79295 0.1723 0.0
C67 C 0.88323 0.91525 0.03553 0.0
C68 C 0.8403 0.01305 0.93167 0.0
C69 C 0.85278 0.06964 0.9209 0.0
C70 C 0.81163 0.05968 0.89042 0.0
C71 C 0.75703 0.99252 0.87176 0.0
C72 C 0.78533 0.94649 0.9122 0.0
C73 C 0.74403 0.93647 0.88264 0.0
C74 C 0.07236 0.12213 0.05099 0.0
C75 C 0.88141 0.02152 0.96439 0.0
H76 H 0.09925 0.87847 0.09103 0.0
H77 H 0.28349 0.99261 0.16549 0.0
H78 H 0.22067 0.08542 0.1403 0.0
H79 H 0.30127 0.09072 0.17336 0.0
H80 H 0.89445 0.12102 0.93576 0.0
H81 H 0.72401 0.98333 0.84871 0.0
H82 H 0.77342 0.9015 0.91996 0.0
H83 H 0.70163 0.88493 0.86814 0.0
Eu84 Eu 0.97357 0.02165 0.54599 0.0
C85 C 0.98968 0.96728 0.37612 0.0
C86 C 0.87936 0.83985 0.37016 0.0
C87 C 0.92491 0.91737 0.31271 0.0
C88 C 0.93783 0.89996 0.39336 0.0
C89 C 0.98462 0.97639 0.33525 0.0
C90 C 0.87262 0.84916 0.33007 0.0
C91 C 0.10275 0.09913 0.34003 0.0
N92 N 0.0475 0.02299 0.39841 0.0
C93 C 0.10573 0.08703 0.38007 0.0
C94 C 0.04124 0.0439 0.31768 0.0
Eu95 Eu 0.04655 -0.00018 0.46768 0.0
N96 N 0.94576 0.89265 0.43228 0.0
C97 C 0.8992 0.82567 0.44873 0.0
C98 C 0.83011 0.77183 0.38763 0.0
C99 C 0.84066 0.7647 0.42693 0.0
H100 H 0.15486 0.1293 0.39661 0.0
H101 H 0.80375 0.71213 0.4405 0.0
H102 H 0.82813 0.80364 0.31191 0.0
H103 H 0.14833 0.15075 0.32632 0.0
H104 H 0.90655 0.8178 0.47848 0.0
H105 H 0.21605 0.31322 0.56048 0.0
H106 H 0.78459 0.72448 0.37083 0.0
H107 H 0.88534 0.89775 0.62132 0.0
H108 H 0.10786 0.20267 0.52831 0.0
H109 H 0.90882 0.88651 0.68917 0.0
H110 H 0.91993 0.92349 0.28144 0.0
H111 H 0.24951 0.31032 0.62796 0.0
H112 H 0.21986 0.23923 0.68794 0.0
H113 H 0.03929 0.05299 0.28645 0.0
H114 H 0.13811 0.12305 0.72225 0.0
N115 N 0.07953 0.13385 0.57554 0.0
C116 C 0.12131 0.19861 0.55712 0.0
C117 C 0.20163 0.26067 0.6137 0.0
C118 C 0.15751 0.19495 0.63325 0.0
C119 C 0.18303 0.26248 0.57561 0.0
C120 C 0.09585 0.13157 0.61328 0.0
H121 H 0.02286 0.99165 0.72285 0.0
N122 N 0.98943 0.00647 0.61332 0.0
C123 C 0.94967 0.93705 0.67336 0.0
C124 C 0.05004 0.06601 0.63248 0.0
C125 C 0.93742 0.9435 0.63425 0.0
C126 C 0.01394 -0.00351 0.69228 0.0
C127 C 0.06419 0.06241 0.67235 0.0
O128 O 0.87953 0.97667 0.57686 0.0
O129 O 0.96286 0.98761 0.48363 0.0
O130 O 0.07792 0.09726 0.45123 0.0
O131 O 0.01316 0.09687 0.49366 0.0
O132 O 0.86897 0.92405 0.51492 0.0
O133 O 0.95204 0.08048 0.54851 0.0
O134 O 0.15077 0.05106 0.45172 0.0
O135 O 0.05802 0.03279 0.53107 0.0
O136 O 0.92387 0.91334 0.55593 0.0
O137 O -0.00295 0.91905 0.51887 0.0
O138 O 0.14866 0.10347 0.49518 0.0
O139 O 0.06341 0.93711 0.46296 0.0
C140 C 0.89612 0.93313 0.48085 0.0
C141 C 0.89175 0.06036 0.60661 0.0
C142 C 0.86974 0.12061 0.63517 0.0
C143 C 0.87342 0.09382 0.60171 0.0
C144 C 0.88334 0.11251 0.67355 0.0
C145 C 0.90526 0.05298 0.64528 0.0
C146 C 0.90069 0.07863 0.67851 0.0
C147 C 0.05622 0.12235 0.46275 0.0
C148 C 0.89608 0.03302 0.57133 0.0
C149 C 0.12637 0.12498 0.69176 0.0
C150 C 0.17283 0.19111 0.67227 0.0
C151 C 0.12472 0.09077 0.53108 0.0
C152 C 0.14842 0.97947 0.41441 0.0
C153 C 0.14976 0.93149 0.41608 0.0
C154 C 0.16702 0.91894 0.38173 0.0
C155 C 0.18278 0.95444 0.34575 0.0
C156 C 0.16652 0.0161 0.37842 0.0
C157 C 0.18286 0.00306 0.34424 0.0
C158 C 0.94661 0.88882 0.54589 0.0
C159 C 0.12891 0.99134 0.45033 0.0
H160 H 0.86278 0.09964 0.57199 0.0
H161 H 0.87966 0.13169 0.69979 0.0
H162 H 0.91902 0.02714 0.64993 0.0
H163 H 0.91058 0.07219 0.70823 0.0
H164 H 0.13765 0.90423 0.44392 0.0
H165 H 0.19727 0.94622 0.3191 0.0
H166 H 0.16916 0.05555 0.37662 0.0
H167 H 0.19662 0.03149 0.31668 0.0
Zn168 Zn 0.379 0.68466 0.19076 0.0
Zn169 Zn 0.38337 0.69382 0.32241 0.0
Zn170 Zn 0.37903 0.6825 0.25635 0.0
C171 C 0.50862 0.74943 0.3106 0.0
C172 C 0.27079 0.55159 0.31315 0.0
O173 O 0.32628 0.70808 0.23355 0.0
O174 O 0.29143 0.65196 0.1762 0.0
C175 C 0.51319 0.79432 0.20007 0.0
O176 O 0.49179 0.75237 0.27555 0.0
O177 O 0.46182 0.7127 0.33763 0.0
O178 O 0.28733 0.59773 0.33558 0.0
O179 O 0.30448 0.57203 0.27987 0.0
O180 O 0.4704 0.78589 0.17932 0.0
O181 O 0.48964 0.75667 0.2323 0.0
O182 O 0.31341 0.57283 0.23712 0.0
O183 O 0.37536 0.61403 0.18159 0.0
C184 C 0.32825 0.56197 0.20477 0.0
O185 O 0.34182 0.72477 0.27533 0.0
O186 O 0.39987 0.7727 0.33263 0.0
C187 C 0.28861 0.68259 0.20111 0.0
C188 C 0.36138 0.76285 0.30648 0.0
Zn189 Zn 0.64169 0.32182 0.82533 0.0
Zn190 Zn 0.62659 0.34855 0.63312 0.0
Zn191 Zn 0.63494 0.33571 0.75808 0.0
C192 C 0.69536 0.44908 0.70677 0.0
C193 C 0.51964 0.27016 0.7056 0.0
O194 O 0.67844 0.29617 0.76184 0.0
O195 O 0.64255 0.25461 0.82361 0.0
C196 C 0.74649 0.46611 0.81812 0.0
O197 O 0.69986 0.4468 0.74456 0.0
O198 O 0.65479 0.38999 0.68885 0.0
O199 O 0.57832 0.31111 0.68727 0.0
O200 O 0.52319 0.2671 0.74345 0.0
O201 O 0.7319 0.4211 0.84095 0.0
O202 O 0.71219 0.4446 0.78478 0.0
O203 O 0.5244 0.26396 0.78413 0.0
O204 O 0.55612 0.28522 0.84756 0.0
C205 C 0.50909 0.25804 0.82152 0.0
O206 O 0.67186 0.30692 0.71378 0.0
O207 O 0.66999 0.31793 0.64587 0.0
C208 C 0.67112 0.26229 0.7918 0.0
C209 C 0.68383 0.30306 0.67681 0.0
C210 C 0.12122 0.80376 0.1422 0.0
C211 C 0.17999 0.87019 0.12408 0.0
C212 C 0.12132 0.75537 0.14921 0.0
C213 C 0.18151 0.77444 0.13766 0.0
C214 C 0.23636 0.83734 0.11468 0.0
C215 C 0.23527 0.88492 0.10853 0.0
C216 C 0.06111 0.68817 0.17302 0.0
C217 C 0.30063 0.85885 0.10079 0.0
C218 C 0.26215 0.74749 0.2092 0.0
C219 C 0.24946 0.6958 0.18947 0.0
C220 C 0.23602 0.76994 0.19369 0.0
C221 C 0.19645 0.74017 0.15746 0.0
C222 C 0.17954 0.68468 0.13862 0.0
C223 C 0.20589 0.66281 0.15502 0.0
C224 C 0.25529 0.82948 0.21452 0.0
C225 C 0.13693 0.65108 0.10019 0.0
H226 H 0.07821 0.79233 0.15395 0.0
H227 H 0.28016 0.93605 0.094 0.0
H228 H 0.04925 0.64322 0.16275 0.0
H229 H 0.07697 0.69807 0.20504 0.0
H230 H 0.01168 0.67197 0.1708 0.0
H231 H 0.33121 0.90131 0.07742 0.0
H232 H 0.33668 0.87968 0.12667 0.0
H233 H 0.2844 0.81213 0.08865 0.0
H234 H 0.2961 0.77352 0.23536 0.0
H235 H 0.195 0.62201 0.13972 0.0
H236 H 0.20686 0.81415 0.2196 0.0
H237 H 0.29229 0.87832 0.1955 0.0
H238 H 0.2816 0.84284 0.24362 0.0
H239 H 0.08355 0.62629 0.10503 0.0
H240 H 0.12962 0.6094 0.0889 0.0
H241 H 0.164 0.69271 0.07668 0.0
C242 C 0.15634 0.06054 0.58704 0.0
C243 C 0.17202 0.11248 0.56432 0.0
C244 C 0.20808 0.07967 0.61238 0.0
C245 C 0.27577 0.15281 0.61635 0.0
C246 C 0.29 0.20564 0.59514 0.0
C247 C 0.2388 0.18456 0.56839 0.0
C248 C 0.19154 0.02146 0.63327 0.0
C249 C 0.36037 0.28438 0.59953 0.0
C250 C 0.40135 0.22064 0.70304 0.0
C251 C 0.45322 0.23266 0.68428 0.0
C252 C 0.34142 0.1915 0.68179 0.0
C253 C 0.33354 0.17449 0.64072 0.0
C254 C 0.38481 0.18447 0.62196 0.0
C255 C 0.44427 0.21389 0.64392 0.0
C256 C 0.28891 0.18303 0.70264 0.0
C257 C 0.37822 0.16641 0.57833 0.0
H258 H 0.1053 0.00457 0.58304 0.0
H259 H 0.2513 0.22442 0.55013 0.0
H260 H 0.23268 0.02627 0.62576 0.0
H261 H 0.19298 0.02742 0.66619 0.0
H262 H 0.13826 0.96701 0.62482 0.0
H263 H 0.35987 0.3187 0.58443 0.0
H264 H 0.3732 0.29918 0.63169 0.0
H265 H 0.40383 0.29612 0.58639 0.0
H266 H 0.40964 0.23782 0.73368 0.0
H267 H 0.48448 0.22328 0.62932 0.0
H268 H 0.23391 0.1273 0.69948 0.0
H269 H 0.29012 0.21894 0.6883 0.0
H270 H 0.30128 0.19651 0.73497 0.0
H271 H 0.32419 0.11114 0.57211 0.0
H272 H 0.41873 0.17093 0.56933 0.0
H273 H 0.38515 0.20328 0.55931 0.0
C274 C 0.06135 0.18396 0.0936 0.0
C275 C 0.10476 0.18357 0.07522 0.0
C276 C 0.09049 0.23819 0.12065 0.0
C277 C 0.16494 0.29417 0.12818 0.0
C278 C 0.20874 0.29349 0.1097 0.0
C279 C 0.1778 0.23746 0.08382 0.0
C280 C 0.04197 0.23627 0.14058 0.0
C281 C 0.28864 0.35323 0.11615 0.0
C282 C 0.26081 0.47981 0.14789 0.0
C283 C 0.28045 0.48995 0.18824 0.0
C284 C 0.22052 0.41515 0.12866 0.0
C285 C 0.19899 0.35873 0.15038 0.0
C286 C 0.21591 0.36722 0.19171 0.0
C287 C 0.25663 0.43327 0.21041 0.0
C288 C 0.20417 0.40868 0.08451 0.0
C289 C 0.19284 0.30742 0.21561 0.0
H290 H 0.00435 0.14076 0.08771 0.0
H291 H 0.2108 0.23612 0.06985 0.0
H292 H 0.05277 0.24558 0.17327 0.0
H293 H 0.05259 0.27977 0.12832 0.0
H294 H 0.98458 0.18437 0.13581 0.0
H295 H 0.31427 0.34225 0.10154 0.0
H296 H 0.31274 0.40396 0.10374 0.0
H297 H 0.30118 0.36163 0.14863 0.0
H298 H 0.27824 0.52345 0.13095 0.0
H299 H 0.27201 0.44142 0.2416 0.0
H300 H 0.14589 0.36139 0.07911 0.0
H301 H 0.2307 0.40074 0.06727 0.0
H302 H 0.22257 0.45691 0.07255 0.0
H303 H 0.13368 0.25983 0.21537 0.0
H304 H 0.21173 0.32312 0.24715 0.0
H305 H 0.21374 0.291 0.20169 0.0
C306 C 0.78469 0.11913 0.61443 0.0
C307 C 0.85059 0.15605 0.63094 0.0
C308 C 0.76082 0.14747 0.61674 0.0
C309 C 0.80427 0.21441 0.63568 0.0
C310 C 0.87309 0.25406 0.64974 0.0
C311 C 0.89519 0.22413 0.64741 0.0
C312 C 0.68696 0.10338 0.6017 0.0
C313 C 0.92115 0.32545 0.67022 0.0
C314 C 0.75771 0.30824 0.63273 0.0
C315 C 0.71722 0.28261 0.66797 0.0
C316 C 0.78525 0.28564 0.62135 0.0
C317 C 0.77387 0.23768 0.64634 0.0
C318 C 0.73292 0.21148 0.68181 0.0
C319 C 0.70425 0.23344 0.69181 0.0
C320 C 0.8243 0.31111 0.58197 0.0
C321 C 0.71606 0.15779 0.70884 0.0
H322 H 0.75005 0.06627 0.60189 0.0
H323 H 0.94641 0.25281 0.65991 0.0
H324 H 0.65088 0.08112 0.62766 0.0
H325 H 0.68792 0.13726 0.58429 0.0
H326 H 0.66429 0.05812 0.58263 0.0
H327 H 0.97671 0.35444 0.67336 0.0
H328 H 0.92252 0.36002 0.65342 0.0
H329 H 0.89983 0.31657 0.70056 0.0
H330 H 0.76701 0.34538 0.61351 0.0
H331 H 0.66913 0.20958 0.71731 0.0
H332 H 0.7946 0.26448 0.562 0.0
H333 H 0.87815 0.33681 0.58674 0.0
H334 H 0.83016 0.34978 0.5664 0.0
H335 H 0.65876 0.10505 0.70563 0.0
H336 H 0.72501 0.17456 0.74035 0.0
H337 H 0.74841 0.15091 0.70263 0.0
C338 C 0.85049 0.95973 0.07516 0.0
C339 C 0.8372 0.90288 0.06533 0.0
C340 C 0.80417 0.94923 0.10014 0.0
C341 C 0.74549 0.88112 0.11769 0.0
C342 C 0.7338 0.82431 0.10928 0.0
C343 C 0.77795 0.83506 0.08157 0.0
C344 C 0.81556 0.00972 0.10556 0.0
C345 C 0.67357 0.75176 0.12877 0.0
C346 C 0.63884 0.85784 0.20115 0.0
C347 C 0.57834 0.82675 0.17995 0.0
C348 C 0.69545 0.87842 0.18117 0.0
C349 C 0.69016 0.86612 0.1394 0.0
C350 C 0.63045 0.83759 0.11778 0.0
C351 C 0.57569 0.81864 0.13825 0.0
C352 C 0.75944 0.91066 0.20483 0.0
C353 C 0.62308 0.82487 0.07308 0.0
H354 H 0.89515 0.01174 0.06147 0.0
H355 H 0.7668 0.79087 0.07301 0.0
H356 H 0.76732 0.9925 0.09557 0.0
H357 H 0.82395 0.02413 0.13766 0.0
H358 H 0.86221 0.0584 0.08834 0.0
H359 H 0.67633 0.71587 0.12232 0.0
H360 H 0.67521 0.75796 0.16174 0.0
H361 H 0.62144 0.72566 0.11793 0.0
H362 H 0.64155 0.86551 0.23315 0.0
H363 H 0.5288 0.79403 0.12156 0.0
H364 H 0.80967 0.96109 0.1907 0.0
H365 H 0.76078 0.87304 0.20471 0.0
H366 H 0.75817 0.92199 0.23632 0.0
H367 H 0.67183 0.87425 0.05737 0.0
H368 H 0.57614 0.80788 0.06034 0.0
H369 H 0.61697 0.78248 0.06661 0.0
C370 C 0.83921 0.76231 0.56585 0.0
C371 C 0.9135 0.82398 0.5669 0.0
C372 C 0.80533 0.70151 0.5884 0.0
C373 C 0.84673 0.70357 0.61365 0.0
C374 C 0.922 0.76622 0.61492 0.0
C375 C 0.95468 0.82546 0.59093 0.0
C376 C 0.72516 0.63546 0.58563 0.0
C377 C 0.96768 0.77124 0.64232 0.0
C378 C 0.74731 0.56882 0.6995 0.0
C379 C 0.73709 0.51604 0.68434 0.0
C380 C 0.78406 0.6309 0.67712 0.0
C381 C 0.81091 0.64 0.63868 0.0
C382 C 0.80058 0.58666 0.62333 0.0
C383 C 0.76358 0.52524 0.6463 0.0
C384 C 0.79337 0.68627 0.69433 0.0
C385 C 0.82722 0.59369 0.58225 0.0
H386 H 0.80765 0.76179 0.5473 0.0
H387 H 0.01207 0.87383 0.5921 0.0
H388 H 0.71109 0.58847 0.57717 0.0
H389 H 0.70065 0.62357 0.61527 0.0
H390 H 0.70123 0.64166 0.56333 0.0
H391 H 0.02532 0.82393 0.64002 0.0
H392 H 0.95047 0.76289 0.67384 0.0
H393 H 0.96063 0.72841 0.63504 0.0
H394 H 0.72414 0.5603 0.72811 0.0
H395 H 0.75523 0.48414 0.63445 0.0
H396 H 0.77421 0.69865 0.67283 0.0
H397 H 0.85098 0.73682 0.69966 0.0
H398 H 0.76407 0.66837 0.72298 0.0
H399 H 0.80089 0.59588 0.55918 0.0
H400 H 0.81657 0.54837 0.57518 0.0
H401 H 0.88555 0.6444 0.58008 0.0
C402 C 0.22605 0.89213 0.40796 0.0
C403 C 0.17431 0.87334 0.38313 0.0
C404 C 0.2485 0.86317 0.40136 0.0
C405 C 0.21848 0.81506 0.36914 0.0
C406 C 0.16011 0.78946 0.34739 0.0
C407 C 0.13888 0.81933 0.35456 0.0
C408 C 0.30861 0.88898 0.4264 0.0
C409 C 0.12492 0.73601 0.31384 0.0
C410 C 0.34587 0.83725 0.30912 0.0
C411 C 0.32224 0.77452 0.31906 0.0
C412 C 0.31254 0.85119 0.32568 0.0
C413 C 0.25574 0.80181 0.35336 0.0
C414 C 0.2334 0.7394 0.36431 0.0
C415 C 0.26681 0.72635 0.34673 0.0
C416 C 0.33825 0.9189 0.3137 0.0
C417 C 0.17666 0.68808 0.3957 0.0
H418 H 0.25303 0.9337 0.43025 0.0
H419 H 0.09798 0.80422 0.33592 0.0
H420 H 0.29871 0.84414 0.43362 0.0
H421 H 0.35929 0.9295 0.40928 0.0
H422 H 0.31577 0.91399 0.45477 0.0
H423 H 0.07527 0.71556 0.30308 0.0
H424 H 0.16258 0.76184 0.28836 0.0
H425 H 0.11166 0.68989 0.32369 0.0
H426 H 0.39042 0.87529 0.28868 0.0
H427 H 0.25103 0.67927 0.35549 0.0
H428 H 0.36088 0.95417 0.34011 0.0
H429 H 0.29277 0.90574 0.3026 0.0
H430 H 0.37982 0.94927 0.29001 0.0
H431 H 0.19923 0.71314 0.42567 0.0
H432 H 0.15767 0.63687 0.39598 0.0
H433 H 0.13017 0.67616 0.391 0.0
C434 C 0.15279 0.03041 0.93617 0.0
C435 C 0.14032 0.06766 0.94654 0.0
C436 C 0.20262 0.05569 0.90709 0.0
C437 C 0.24158 0.1206 0.887 0.0
C438 C 0.2264 0.15664 0.8952 0.0
C439 C 0.17812 0.13118 0.92611 0.0
C440 C 0.22076 0.01827 0.90271 0.0
C441 C 0.26505 0.22509 0.87364 0.0
C442 C 0.43709 0.24127 0.87416 0.0
C443 C 0.43982 0.22441 0.83551 0.0
C444 C 0.37327 0.20874 0.8906 0.0
C445 C 0.30998 0.15946 0.86737 0.0
C446 C 0.31229 0.14396 0.82763 0.0
C447 C 0.37721 0.17569 0.81236 0.0
C448 C 0.37381 0.22661 0.93333 0.0
C449 C 0.24643 0.0942 0.80149 0.0
H450 H 0.12823 0.98414 0.95381 0.0
H451 H 0.17636 0.16499 0.93689 0.0
H452 H 0.22743 0.01373 0.87086 0.0
H453 H 0.2722 0.05016 0.91818 0.0
H454 H 0.17923 0.96371 0.9161 0.0
H455 H 0.26667 0.25857 0.89188 0.0
H456 H 0.32064 0.25804 0.86555 0.0
H457 H 0.2362 0.211 0.84531 0.0
H458 H 0.48524 0.27961 0.8922 0.0
H459 H 0.37854 0.16114 0.78291 0.0
H460 H 0.33191 0.17689 0.95124 0.0
H461 H 0.36215 0.25573 0.93363 0.0
H462 H 0.42613 0.2607 0.94837 0.0
H463 H 0.20235 0.04108 0.81602 0.0
H464 H 0.25663 0.08656 0.77156 0.0
H465 H 0.22759 0.11639 0.79752 0.0
C466 C 0.14138 0.22478 0.41575 0.0
C467 C 0.07717 0.17806 0.43713 0.0
C468 C 0.16179 0.27644 0.38986 0.0
C469 C 0.11751 0.2826 0.38585 0.0
C470 C 0.05143 0.23417 0.40644 0.0
C471 C 0.03211 0.1825 0.4321 0.0
C472 C 0.23288 0.32715 0.36865 0.0
C473 C 0.00258 0.23875 0.40256 0.0
C474 C 0.22518 0.47412 0.37197 0.0
C475 C 0.22414 0.47958 0.33024 0.0
C476 C 0.18804 0.40948 0.39035 0.0
C477 C 0.14729 0.34776 0.36655 0.0
C478 C 0.14252 0.35154 0.32454 0.0
C479 C 0.18194 0.41805 0.30665 0.0
C480 C 0.1961 0.40856 0.4351 0.0
C481 C 0.09706 0.28577 0.29869 0.0
H482 H 0.1769 0.2223 0.42007 0.0
H483 H 0.98177 0.14552 0.44809 0.0
H484 H 0.22677 0.33118 0.33639 0.0
H485 H 0.27067 0.38152 0.3817 0.0
H486 H 0.25685 0.30997 0.37135 0.0
H487 H 0.94906 0.19125 0.41572 0.0
H488 H 0.02664 0.28733 0.41817 0.0
H489 H -0.00409 0.2437 0.37061 0.0
H490 H 0.25803 0.52157 0.39044 0.0
H491 H 0.17977 0.42195 0.27454 0.0
H492 H 0.2242 0.39646 0.44118 0.0
H493 H 0.14293 0.36601 0.44959 0.0
H494 H 0.22685 0.46053 0.44944 0.0
H495 H 0.11717 0.26464 0.3003 0.0
H496 H 0.09644 0.29691 0.26686 0.0
H497 H 0.04139 0.24295 0.31005 0.0
C498 C 0.81184 0.14641 0.90225 0.0
C499 C 0.82374 0.11759 0.87671 0.0
C500 C 0.80272 0.1849 0.88646 0.0
C501 C 0.80418 0.19312 0.84429 0.0
C502 C 0.82463 0.17126 0.81922 0.0
C503 C 0.83415 0.13387 0.83578 0.0
C504 C 0.78553 0.21123 0.91467 0.0
C505 C 0.82824 0.17892 0.7743 0.0
C506 C 0.66421 0.1726 0.80644 0.0
C507 C 0.70566 0.24242 0.79448 0.0
C508 C 0.69603 0.1559 0.82154 0.0
C509 C 0.7713 0.21099 0.82623 0.0
C510 C 0.81362 0.28163 0.81366 0.0
C511 C 0.78025 0.29632 0.79745 0.0
C512 C 0.64867 0.07941 0.83341 0.0
C513 C 0.89348 0.34253 0.81981 0.0
H514 H 0.80434 0.13439 0.93404 0.0
H515 H 0.84432 0.11232 0.8161 0.0
H516 H 0.80897 0.26246 0.90393 0.0
H517 H 0.72674 0.1711 0.91631 0.0
H518 H 0.80559 0.21905 0.94541 0.0
H519 H 0.86851 0.1853 0.76156 0.0
H520 H 0.77544 0.12904 0.76177 0.0
H521 H 0.84143 0.22499 0.76456 0.0
H522 H 0.60644 0.13145 0.80534 0.0
H523 H 0.81207 0.351 0.79003 0.0
H524 H 0.64978 0.07565 0.86644 0.0
H525 H 0.66856 0.06168 0.8199 0.0
H526 H 0.59231 0.04195 0.82395 0.0
H527 H 0.90515 0.35458 0.85231 0.0
H528 H 0.91959 0.39192 0.80381 0.0
H529 H 0.91757 0.32762 0.80952 0.0
C530 C 0.87798 0.96206 0.41647 0.0
C531 C 0.85559 0.91067 0.44375 0.0
C532 C 0.83237 0.94307 0.38579 0.0
C533 C 0.76371 0.87064 0.38184 0.0
C534 C 0.74414 0.81774 0.40696 0.0
C535 C 0.7893 0.83882 0.43857 0.0
C536 C 0.85491 0.00156 0.36058 0.0
C537 C 0.6727 0.7395 0.40287 0.0
C538 C 0.60368 0.82504 0.36111 0.0
C539 C 0.5822 0.79386 0.323 0.0
C540 C 0.66475 0.85347 0.37956 0.0
C541 C 0.70676 0.85219 0.35905 0.0
C542 C 0.68857 0.82575 0.31926 0.0
C543 C 0.62569 0.79609 0.30165 0.0
C544 C 0.68069 0.87942 0.42234 0.0
C545 C 0.73301 0.82479 0.29648 0.0
H546 H 0.9289 0.01786 0.42081 0.0
H547 H 0.77205 0.79931 0.4599 0.0
H548 H 0.83789 0.98427 0.32897 0.0
H549 H 0.82878 0.01369 0.37216 0.0
H550 H 0.91369 0.05168 0.36155 0.0
H551 H 0.67158 0.70465 0.4191 0.0
H552 H 0.63032 0.73002 0.41538 0.0
H553 H 0.65975 0.72345 0.3709 0.0
H554 H 0.57002 0.82343 0.37763 0.0
H555 H 0.60848 0.77096 0.27247 0.0
H556 H 0.73734 0.93318 0.42555 0.0
H557 H 0.6718 0.84226 0.44253 0.0
H558 H 0.64618 0.88231 0.43267 0.0
H559 H 0.78873 0.88004 0.2938 0.0
H560 H 0.71135 0.80168 0.26607 0.0
H561 H 0.73487 0.79263 0.31312 0.0
C562 C 0.98089 0.85116 0.91445 0.0
C563 C 0.93386 0.83789 0.9405 0.0
C564 C 0.95864 0.79615 0.8915 0.0
C565 C 0.8862 0.72733 0.89273 0.0
C566 C 0.83719 0.71489 0.91698 0.0
C567 C 0.86207 0.77008 0.94142 0.0
C568 C 0.01275 0.81132 0.86654 0.0
C569 C 0.75864 0.64328 0.91714 0.0
C570 C 0.80364 0.58857 0.81234 0.0
C571 C 0.79492 0.53976 0.8332 0.0
C572 C 0.83709 0.65239 0.83041 0.0
C573 C 0.86197 0.66719 0.87037 0.0
C574 C 0.85877 0.62111 0.89031 0.0
C575 C 0.8255 0.5581 0.87145 0.0
C576 C 0.84095 0.70079 0.80741 0.0
C577 C 0.88684 0.63622 0.93248 0.0
H578 H 0.03515 0.90414 0.91209 0.0
H579 H 0.82532 0.76068 0.96075 0.0
H580 H 0.01666 0.77757 0.8772 0.0
H581 H -0.00467 0.79713 0.83477 0.0
H582 H 0.0667 0.86841 0.86802 0.0
H583 H 0.72687 0.64401 0.9353 0.0
H584 H 0.73764 0.6276 0.886 0.0
H585 H 0.75079 0.60158 0.92941 0.0
H586 H 0.78148 0.5755 0.78266 0.0
H587 H 0.82032 0.52143 0.88769 0.0
H588 H 0.88681 0.75754 0.81676 0.0
H589 H 0.79118 0.68308 0.81268 0.0
H590 H 0.84538 0.69762 0.77476 0.0
H591 H 0.94215 0.69195 0.93476 0.0
H592 H 0.88668 0.59892 0.94222 0.0
H593 H 0.85324 0.6309 0.95355 0.0
loop_
_geom_bond_atom_site_label_1
_geom_bond_atom_site_label_2
_geom_bond_distance
_geom_bond_site_symmetry_2
_ccdc_geom_bond_type
Eu0 N31 2.657 1_455 S
Eu0 N38 2.609 . S
Eu0 O44 2.558 1_565 S
Eu0 O45 2.612 1_564 S
Eu0 O47 2.339 1_454 S
Eu0 O48 2.563 1_565 S
Eu0 O49 2.419 . S
Eu0 O51 2.380 1_455 S
Eu0 O52 2.432 1_565 S
Eu0 C64 2.848 . S
C1 C4 1.429 . S
C1 C5 1.411 . S
C1 N8 1.377 1_455 S
C2 C4 1.420 . S
C2 C6 1.423 . S
C2 C14 1.392 . S
C3 C5 1.420 . S
C3 C6 1.351 . S
C3 H26 0.931 . S
C4 C1 1.429 . S
C4 C2 1.420 . S
C4 N12 1.362 . S
C5 C1 1.411 . S
C5 C3 1.420 . S
C5 C10 1.395 1_455 S
C6 C2 1.423 . S
C6 C3 1.351 . S
C6 H18 0.930 . S
C7 C9 1.400 . S
C7 C10 1.386 1_565 S
C7 H19 0.930 . S
N8 C1 1.377 1_655 S
N8 C9 1.321 1_545 S
N8 Eu11 2.609 . S
C9 C7 1.400 . S
C9 N8 1.321 1_565 S
C9 H16 0.930 . S
C10 C5 1.395 1_655 S
C10 C7 1.386 1_545 S
C10 H29 0.930 . S
Eu11 N8 2.609 . S
Eu11 N12 2.657 1_655 S
Eu11 O45 2.380 1_655 S
Eu11 O46 2.432 1_545 S
Eu11 O50 2.558 1_545 S
Eu11 O51 2.612 1_546 S
Eu11 O53 2.339 1_656 S
Eu11 O54 2.574 1_545 S
Eu11 O55 2.419 . S
Eu11 C75 2.848 . S
N12 C4 1.362 . S
N12 Eu11 2.657 1_455 S
N12 C13 1.334 . S
C13 N12 1.334 . S
C13 C15 1.413 . S
C13 H20 0.929 . S
C14 C2 1.392 . S
C14 C15 1.367 . S
C14 H22 0.930 . S
C15 C13 1.413 . S
C15 C14 1.367 . S
C15 H17 0.930 . S
H16 C9 0.930 . S
H17 C15 0.930 . S
H18 C6 0.930 . S
H19 C7 0.930 . S
H20 C13 0.929 . S
H21 C35 0.930 . S
H22 C14 0.930 . S
H23 C41 0.930 . S
H24 C32 0.929 . S
H25 C39 0.930 . S
H26 C3 0.931 . S
H27 C33 0.930 . S
H28 C66 0.930 . S
H29 C10 0.930 . S
H30 C65 0.931 . S
N31 Eu0 2.657 1_655 S
N31 C32 1.334 . S
N31 C36 1.362 . S
C32 H24 0.929 . S
C32 N31 1.334 . S
C32 C35 1.413 . S
C33 H27 0.930 . S
C33 C34 1.392 . S
C33 C35 1.367 . S
C34 C33 1.392 . S
C34 C36 1.420 . S
C34 C66 1.423 . S
C35 H21 0.930 . S
C35 C32 1.413 . S
C35 C33 1.367 . S
C36 N31 1.362 . S
C36 C34 1.420 . S
C36 C40 1.429 . S
H37 C42 0.932 . S
N38 Eu0 2.609 . S
N38 C40 1.377 1_455 S
N38 C41 1.321 1_565 S
C39 H25 0.930 . S
C39 C41 1.400 . S
C39 C42 1.386 1_545 S
C40 C36 1.429 . S
C40 N38 1.377 1_655 S
C40 C43 1.411 . S
C41 H23 0.930 . S
C41 N38 1.321 1_545 S
C41 C39 1.400 . S
C42 H37 0.932 . S
C42 C39 1.386 1_565 S
C42 C43 1.395 1_455 S
C43 C40 1.411 . S
C43 C42 1.395 1_655 S
C43 C65 1.420 . S
O44 Eu0 2.558 1_545 S
O44 C64 1.257 1_545 S
O45 Eu0 2.612 1_546 S
O45 Eu11 2.380 1_455 S
O45 C56 1.276 . S
O46 Eu11 2.432 1_565 S
O46 C63 1.264 . S
O47 Eu0 2.339 1_656 S
O47 C63 1.254 . S
O48 Eu0 2.563 1_545 S
O48 C56 1.235 1_554 S
O49 Eu0 2.419 . S
O49 C64 1.249 . S
O50 Eu11 2.558 1_565 S
O50 C75 1.257 1_565 S
O51 Eu0 2.380 1_655 S
O51 Eu11 2.612 1_564 S
O51 C67 1.276 . S
O52 Eu0 2.432 1_545 S
O52 C74 1.264 . S
O53 Eu11 2.339 1_454 S
O53 C74 1.254 . S
O54 Eu11 2.574 1_565 S
O54 C67 1.219 1_556 S
O55 Eu11 2.419 . S
O55 C75 1.249 . S
C56 O45 1.276 . S
C56 O48 1.235 1_556 S
C57 C59 1.393 . S
C57 C61 1.395 . S
C57 C64 1.492 . S
C58 C59 1.392 . S
C58 C60 1.386 . S
C59 C57 1.393 . S
C59 C58 1.392 . S
C59 H76 0.930 . S
C60 C58 1.386 . S
C60 C62 1.395 . S
C60 H77 0.930 . S
C61 C57 1.395 . S
C61 C62 1.379 . S
C61 H78 0.930 . S
C62 C60 1.395 . S
C62 C61 1.379 . S
C62 H79 0.930 . S
C63 O46 1.264 . S
C63 O47 1.254 . S
C64 Eu0 2.848 . S
C64 O44 1.257 1_565 S
C64 O49 1.249 . S
C64 C57 1.492 . S
C65 H30 0.931 . S
C65 C43 1.420 . S
C65 C66 1.351 . S
C66 H28 0.930 . S
C66 C34 1.423 . S
C66 C65 1.351 . S
C67 O51 1.276 . S
C67 O54 1.219 1_554 S
C68 C69 1.393 . S
C68 C72 1.395 . S
C68 C75 1.492 . S
C69 C68 1.393 . S
C69 C70 1.392 . S
C69 H80 0.930 . S
C70 C69 1.392 . S
C70 C71 1.386 . S
C71 C70 1.386 . S
C71 C73 1.395 . S
C71 H81 0.930 . S
C72 C68 1.395 . S
C72 C73 1.379 . S
C72 H82 0.930 . S
C73 C71 1.395 . S
C73 C72 1.379 . S
C73 H83 0.930 . S
C74 O52 1.264 . S
C74 O53 1.254 . S
C75 Eu11 2.848 . S
C75 O50 1.257 1_545 S
C75 O55 1.249 . S
C75 C68 1.492 . S
H76 C59 0.930 . S
H77 C60 0.930 . S
H78 C61 0.930 . S
H79 C62 0.930 . S
H80 C69 0.930 . S
H81 C71 0.930 . S
H82 C72 0.930 . S
H83 C73 0.930 . S
Eu84 N115 2.657 1_655 S
Eu84 N122 2.609 1_655 S
Eu84 O128 2.558 . S
Eu84 O129 2.612 1_545 S
Eu84 O131 2.339 1_655 S
Eu84 O132 2.563 1_545 S
Eu84 O133 2.419 . S
Eu84 O135 2.380 1_655 S
Eu84 O136 2.432 1_545 S
Eu84 C148 2.848 . S
C85 C88 1.429 . S
C85 C89 1.411 . S
C85 N92 1.377 1_665 S
C86 C88 1.420 . S
C86 C90 1.423 . S
C86 C98 1.392 . S
C87 C89 1.420 . S
C87 C90 1.351 . S
C87 H110 0.931 . S
C88 C85 1.429 . S
C88 C86 1.420 . S
C88 N96 1.362 . S
C89 C85 1.411 . S
C89 C87 1.420 . S
C89 C94 1.395 1_665 S
C90 C86 1.423 . S
C90 C87 1.351 . S
C90 H102 0.930 . S
C91 C93 1.400 . S
C91 C94 1.386 . S
C91 H103 0.930 . S
N92 C85 1.377 1_445 S
N92 C93 1.321 . S
N92 Eu95 2.609 1_545 S
C93 C91 1.400 . S
C93 N92 1.321 . S
C93 H100 0.930 . S
C94 C89 1.395 1_445 S
C94 C91 1.386 . S
C94 H113 0.930 . S
Eu95 N92 2.609 1_565 S
Eu95 N96 2.657 1_455 S
Eu95 O129 2.380 1_455 S
Eu95 O130 2.432 1_565 S
Eu95 O134 2.558 1_565 S
Eu95 O135 2.612 1_565 S
Eu95 O137 2.339 1_455 S
Eu95 O138 2.563 1_565 S
Eu95 O139 2.419 . S
Eu95 C159 2.848 . S
N96 C88 1.362 . S
N96 Eu95 2.657 1_655 S
N96 C97 1.334 . S
C97 N96 1.334 . S
C97 C99 1.413 . S
C97 H104 0.929 . S
C98 C86 1.392 . S
C98 C99 1.367 . S
C98 H106 0.930 . S
C99 C97 1.413 . S
C99 C98 1.367 . S
C99 H101 0.930 . S
H100 C93 0.930 . S
H101 C99 0.930 . S
H102 C90 0.930 . S
H103 C91 0.930 . S
H104 C97 0.929 . S
H105 C119 0.930 . S
H106 C98 0.930 . S
H107 C125 0.930 . S
H108 C116 0.929 . S
H109 C123 0.930 . S
H110 C87 0.931 . S
H111 C117 0.930 . S
H112 C150 0.930 . S
H113 C94 0.930 . S
H114 C149 0.931 . S
N115 Eu84 2.657 1_455 S
N115 C116 1.334 . S
N115 C120 1.362 . S
C116 H108 0.929 . S
C116 N115 1.334 . S
C116 C119 1.413 . S
C117 H111 0.930 . S
C117 C118 1.392 . S
C117 C119 1.367 . S
C118 C117 1.392 . S
C118 C120 1.420 . S
C118 C150 1.423 . S
C119 H105 0.930 . S
C119 C116 1.413 . S
C119 C117 1.367 . S
C120 N115 1.362 . S
C120 C118 1.420 . S
C120 C124 1.429 . S
H121 C126 0.930 . S
N122 Eu84 2.609 1_455 S
N122 C124 1.377 . S
N122 C125 1.321 1_445 S
C123 H109 0.930 . S
C123 C125 1.400 . S
C123 C126 1.386 1_665 S
C124 C120 1.429 . S
C124 N122 1.377 . S
C124 C127 1.411 . S
C125 H107 0.930 . S
C125 N122 1.321 1_665 S
C125 C123 1.400 . S
C126 H121 0.930 . S
C126 C123 1.386 1_445 S
C126 C127 1.395 . S
C127 C124 1.411 . S
C127 C126 1.395 . S
C127 C149 1.420 . S
O128 Eu84 2.558 . S
O128 C148 1.257 . S
O129 Eu84 2.612 1_565 S
O129 Eu95 2.380 1_655 S
O129 C140 1.276 . S
O130 Eu95 2.432 1_545 S
O130 C147 1.264 . S
O131 Eu84 2.339 1_455 S
O131 C147 1.254 . S
O132 Eu84 2.563 1_565 S
O132 C140 1.235 . S
O133 Eu84 2.419 . S
O133 C148 1.249 . S
O134 Eu95 2.558 1_545 S
O134 C159 1.257 1_545 S
O135 Eu84 2.380 1_455 S
O135 Eu95 2.612 1_545 S
O135 C151 1.276 . S
O136 Eu84 2.432 1_565 S
O136 C158 1.264 . S
O137 Eu95 2.339 1_655 S
O137 C158 1.254 . S
O138 Eu95 2.563 1_545 S
O138 C151 1.235 . S
O139 Eu95 2.419 . S
O139 C159 1.249 . S
C140 O129 1.276 . S
C140 O132 1.235 . S
C141 C143 1.393 . S
C141 C145 1.395 . S
C141 C148 1.492 . S
C142 C143 1.392 . S
C142 C144 1.386 . S
C143 C141 1.393 . S
C143 C142 1.392 . S
C143 H160 0.930 . S
C144 C142 1.386 . S
C144 C146 1.395 . S
C144 H161 0.930 . S
C145 C141 1.395 . S
C145 C146 1.379 . S
C145 H162 0.930 . S
C146 C144 1.395 . S
C146 C145 1.379 . S
C146 H163 0.930 . S
C147 O130 1.264 . S
C147 O131 1.254 . S
C148 Eu84 2.848 . S
C148 O128 1.257 . S
C148 O133 1.249 . S
C148 C141 1.492 . S
C149 H114 0.931 . S
C149 C127 1.420 . S
C149 C150 1.351 . S
C150 H112 0.930 . S
C150 C118 1.423 . S
C150 C149 1.351 . S
C151 O135 1.276 . S
C151 O138 1.235 . S
C152 C153 1.393 . S
C152 C156 1.395 . S
C152 C159 1.492 . S
C153 C152 1.393 . S
C153 C154 1.392 . S
C153 H164 0.930 . S
C154 C153 1.392 . S
C154 C155 1.386 . S
C155 C154 1.386 . S
C155 C157 1.395 . S
C155 H165 0.930 . S
C156 C152 1.395 . S
C156 C157 1.379 . S
C156 H166 0.930 1_565 S
C157 C155 1.395 . S
C157 C156 1.379 . S
C157 H167 0.930 . S
C158 O136 1.264 . S
C158 O137 1.254 . S
C159 Eu95 2.848 . S
C159 O134 1.257 1_565 S
C159 O139 1.249 . S
C159 C152 1.492 . S
H160 C143 0.930 . S
H161 C144 0.930 . S
H162 C145 0.930 . S
H163 C146 0.930 . S
H164 C153 0.930 . S
H165 C155 0.930 . S
H166 C156 0.930 1_545 S
H167 C157 0.930 . S
Zn168 O174 1.920 . S
Zn168 O180 1.898 . S
Zn168 O183 1.905 . S
Zn169 O177 1.905 . S
Zn169 O178 1.898 . S
Zn169 O186 1.920 . S
Zn170 O173 2.080 . S
Zn170 O176 2.114 . S
Zn170 O179 2.120 . S
Zn170 O181 2.120 . S
Zn170 O182 2.114 . S
Zn170 O185 2.080 . S
C171 O176 1.166 . S
C171 O177 1.182 . S
C172 O178 1.167 . S
C172 O179 1.299 . S
O173 Zn170 2.080 . S
O173 C187 1.305 . S
O174 Zn168 1.920 . S
O174 C187 1.234 . S
C175 O180 1.167 . S
C175 O181 1.299 . S
O176 Zn170 2.114 . S
O176 C171 1.166 . S
O177 Zn169 1.905 . S
O177 C171 1.182 . S
O178 Zn169 1.898 . S
O178 C172 1.167 . S
O179 Zn170 2.120 . S
O179 C172 1.299 . S
O180 Zn168 1.898 . S
O180 C175 1.167 . S
O181 Zn170 2.120 . S
O181 C175 1.299 . S
O182 Zn170 2.114 . S
O182 C184 1.166 . S
O183 Zn168 1.905 . S
O183 C184 1.182 . S
C184 O182 1.166 . S
C184 O183 1.182 . S
O185 Zn170 2.080 . S
O185 C188 1.305 . S
O186 Zn169 1.920 . S
O186 C188 1.234 . S
C187 O173 1.305 . S
C187 O174 1.234 . S
C188 O185 1.305 . S
C188 O186 1.234 . S
Zn189 O195 1.920 . S
Zn189 O201 1.898 . S
Zn189 O204 1.905 . S
Zn190 O198 1.905 . S
Zn190 O199 1.898 . S
Zn190 O207 1.920 . S
Zn191 O194 2.080 . S
Zn191 O197 2.114 . S
Zn191 O200 2.120 . S
Zn191 O202 2.120 . S
Zn191 O203 2.114 . S
Zn191 O206 2.080 . S
C192 O197 1.166 . S
C192 O198 1.182 . S
C193 O199 1.167 . S
C193 O200 1.299 . S
O194 Zn191 2.080 . S
O194 C208 1.305 . S
O195 Zn189 1.920 . S
O195 C208 1.234 . S
C196 O201 1.167 . S
C196 O202 1.299 . S
O197 Zn191 2.114 . S
O197 C192 1.166 . S
O198 Zn190 1.905 . S
O198 C192 1.182 . S
O199 Zn190 1.898 . S
O199 C193 1.167 . S
O200 Zn191 2.120 . S
O200 C193 1.299 . S
O201 Zn189 1.898 . S
O201 C196 1.167 . S
O202 Zn191 2.120 . S
O202 C196 1.299 . S
O203 Zn191 2.114 . S
O203 C205 1.166 . S
O204 Zn189 1.905 . S
O204 C205 1.182 . S
C205 O203 1.166 . S
C205 O204 1.182 . S
O206 Zn191 2.080 . S
O206 C209 1.305 . S
O207 Zn190 1.920 . S
O207 C209 1.234 . S
C208 O194 1.305 . S
C208 O195 1.234 . S
C209 O206 1.305 . S
C209 O207 1.234 . S
C210 C211 1.391 . S
C210 C212 1.394 . S
C210 H226 0.931 . S
C211 C210 1.391 . S
C211 C215 1.376 . S
C212 C210 1.394 . S
C212 C213 1.369 . S
C212 C216 1.531 . S
C213 C212 1.369 . S
C213 C214 1.410 . S
C213 C221 1.503 . S
C214 C213 1.410 . S
C214 C215 1.392 . S
C214 C217 1.511 . S
C215 C211 1.376 . S
C215 C214 1.392 . S
C215 H227 0.929 . S
C216 C212 1.531 . S
C216 H228 0.960 . S
C216 H229 0.962 . S
C216 H230 0.960 . S
C217 C214 1.511 . S
C217 H231 0.961 . S
C217 H232 0.961 . S
C217 H233 0.961 . S
C218 C219 1.370 . S
C218 C220 1.363 . S
C218 H234 0.931 . S
C219 C218 1.370 . S
C219 C223 1.408 . S
C220 C218 1.363 . S
C220 C221 1.370 . S
C220 C224 1.524 . S
C221 C213 1.503 . S
C221 C220 1.370 . S
C221 C222 1.403 . S
C222 C221 1.403 . S
C222 C223 1.404 . S
C222 C225 1.539 . S
C223 C219 1.408 . S
C223 C222 1.404 . S
C223 H235 0.930 . S
C224 C220 1.524 . S
C224 H236 0.956 . S
C224 H237 0.961 . S
C224 H238 0.961 . S
C225 C222 1.539 . S
C225 H239 0.958 . S
C225 H240 0.961 . S
C225 H241 0.960 . S
H226 C210 0.931 . S
H227 C215 0.929 . S
H228 C216 0.960 . S
H229 C216 0.962 . S
H230 C216 0.960 . S
H231 C217 0.961 . S
H232 C217 0.961 . S
H233 C217 0.961 . S
H234 C218 0.931 . S
H235 C223 0.930 . S
H236 C224 0.956 . S
H237 C224 0.961 . S
H238 C224 0.961 . S
H239 C225 0.958 . S
H240 C225 0.961 . S
H241 C225 0.960 . S
C242 C243 1.391 . S
C242 C244 1.394 . S
C242 H258 0.931 1_545 S
C243 C242 1.391 . S
C243 C247 1.376 . S
C244 C242 1.394 . S
C244 C245 1.369 . S
C244 C248 1.531 . S
C245 C244 1.369 . S
C245 C246 1.410 . S
C245 C253 1.503 . S
C246 C245 1.410 . S
C246 C247 1.392 . S
C246 C249 1.511 . S
C247 C243 1.376 . S
C247 C246 1.392 . S
C247 H259 0.929 . S
C248 C244 1.531 . S
C248 H260 0.960 . S
C248 H261 0.962 1_545 S
C248 H262 0.960 1_545 S
C249 C246 1.511 . S
C249 H263 0.961 . S
C249 H264 0.961 . S
C249 H265 0.961 . S
C250 C251 1.370 . S
C250 C252 1.363 . S
C250 H266 0.931 . S
C251 C250 1.370 . S
C251 C255 1.408 . S
C252 C250 1.363 . S
C252 C253 1.370 . S
C252 C256 1.524 . S
C253 C245 1.503 . S
C253 C252 1.370 . S
C253 C254 1.403 . S
C254 C253 1.403 . S
C254 C255 1.404 . S
C254 C257 1.539 . S
C255 C251 1.408 . S
C255 C254 1.404 . S
C255 H267 0.930 . S
C256 C252 1.524 . S
C256 H268 0.956 . S
C256 H269 0.961 . S
C256 H270 0.961 . S
C257 C254 1.539 . S
C257 H271 0.958 . S
C257 H272 0.961 . S
C257 H273 0.960 . S
H258 C242 0.931 1_565 S
H259 C247 0.929 . S
H260 C248 0.960 . S
H261 C248 0.962 1_565 S
H262 C248 0.960 1_565 S
H263 C249 0.961 . S
H264 C249 0.961 . S
H265 C249 0.961 . S
H266 C250 0.931 . S
H267 C255 0.930 . S
H268 C256 0.956 . S
H269 C256 0.961 . S
H270 C256 0.961 . S
H271 C257 0.958 . S
H272 C257 0.961 . S
H273 C257 0.960 . S
C274 C275 1.391 . S
C274 C276 1.394 . S
C274 H290 0.931 . S
C275 C274 1.391 . S
C275 C279 1.376 . S
C276 C274 1.394 . S
C276 C277 1.369 . S
C276 C280 1.531 . S
C277 C276 1.369 . S
C277 C278 1.410 . S
C277 C285 1.503 . S
C278 C277 1.410 . S
C278 C279 1.392 . S
C278 C281 1.511 . S
C279 C275 1.376 . S
C279 C278 1.392 . S
C279 H291 0.929 . S
C280 C276 1.531 . S
C280 H292 0.960 . S
C280 H293 0.962 . S
C280 H294 0.960 1_455 S
C281 C278 1.511 . S
C281 H295 0.961 . S
C281 H296 0.961 . S
C281 H297 0.961 . S
C282 C283 1.370 . S
C282 C284 1.363 . S
C282 H298 0.931 . S
C283 C282 1.370 . S
C283 C287 1.408 . S
C284 C282 1.363 . S
C284 C285 1.370 . S
C284 C288 1.524 . S
C285 C277 1.503 . S
C285 C284 1.370 . S
C285 C286 1.403 . S
C286 C285 1.403 . S
C286 C287 1.404 . S
C286 C289 1.539 . S
C287 C283 1.408 . S
C287 C286 1.404 . S
C287 H299 0.930 . S
C288 C284 1.524 . S
C288 H300 0.956 . S
C288 H301 0.961 . S
C288 H302 0.961 . S
C289 C286 1.539 . S
C289 H303 0.958 . S
C289 H304 0.961 . S
C289 H305 0.960 . S
H290 C274 0.931 . S
H291 C279 0.929 . S
H292 C280 0.960 . S
H293 C280 0.962 . S
H294 C280 0.960 1_655 S
H295 C281 0.961 . S
H296 C281 0.961 . S
H297 C281 0.961 . S
H298 C282 0.931 . S
H299 C287 0.930 . S
H300 C288 0.956 . S
H301 C288 0.961 . S
H302 C288 0.961 . S
H303 C289 0.958 . S
H304 C289 0.961 . S
H305 C289 0.960 . S
C306 C307 1.391 . S
C306 C308 1.394 . S
C306 H322 0.931 . S
C307 C306 1.391 . S
C307 C311 1.376 . S
C308 C306 1.394 . S
C308 C309 1.369 . S
C308 C312 1.531 . S
C309 C308 1.369 . S
C309 C310 1.410 . S
C309 C317 1.503 . S
C310 C309 1.410 . S
C310 C311 1.392 . S
C310 C313 1.511 . S
C311 C307 1.376 . S
C311 C310 1.392 . S
C311 H323 0.929 . S
C312 C308 1.531 . S
C312 H324 0.960 . S
C312 H325 0.962 . S
C312 H326 0.960 . S
C313 C310 1.511 . S
C313 H327 0.961 . S
C313 H328 0.961 . S
C313 H329 0.961 . S
C314 C315 1.370 . S
C314 C316 1.363 . S
C314 H330 0.931 . S
C315 C314 1.370 . S
C315 C319 1.408 . S
C316 C314 1.363 . S
C316 C317 1.370 . S
C316 C320 1.524 . S
C317 C309 1.503 . S
C317 C316 1.370 . S
C317 C318 1.403 . S
C318 C317 1.403 . S
C318 C319 1.404 . S
C318 C321 1.539 . S
C319 C315 1.408 . S
C319 C318 1.404 . S
C319 H331 0.930 . S
C320 C316 1.524 . S
C320 H332 0.956 . S
C320 H333 0.961 . S
C320 H334 0.961 . S
C321 C318 1.539 . S
C321 H335 0.958 . S
C321 H336 0.961 . S
C321 H337 0.960 . S
H322 C306 0.931 . S
H323 C311 0.929 . S
H324 C312 0.960 . S
H325 C312 0.962 . S
H326 C312 0.960 . S
H327 C313 0.961 . S
H328 C313 0.961 . S
H329 C313 0.961 . S
H330 C314 0.931 . S
H331 C319 0.930 . S
H332 C320 0.956 . S
H333 C320 0.961 . S
H334 C320 0.961 . S
H335 C321 0.958 . S
H336 C321 0.961 . S
H337 C321 0.960 . S
C338 C339 1.391 . S
C338 C340 1.394 . S
C338 H354 0.931 . S
C339 C338 1.391 . S
C339 C343 1.376 . S
C340 C338 1.394 . S
C340 C341 1.369 . S
C340 C344 1.531 . S
C341 C340 1.369 . S
C341 C342 1.410 . S
C341 C349 1.503 . S
C342 C341 1.410 . S
C342 C343 1.392 . S
C342 C345 1.511 . S
C343 C339 1.376 . S
C343 C342 1.392 . S
C343 H355 0.929 . S
C344 C340 1.531 . S
C344 H356 0.960 . S
C344 H357 0.962 . S
C344 H358 0.960 . S
C345 C342 1.511 . S
C345 H359 0.961 . S
C345 H360 0.961 . S
C345 H361 0.961 . S
C346 C347 1.370 . S
C346 C348 1.363 . S
C346 H362 0.931 . S
C347 C346 1.370 . S
C347 C351 1.408 . S
C348 C346 1.363 . S
C348 C349 1.370 . S
C348 C352 1.524 . S
C349 C341 1.503 . S
C349 C348 1.370 . S
C349 C350 1.403 . S
C350 C349 1.403 . S
C350 C351 1.404 . S
C350 C353 1.539 . S
C351 C347 1.408 . S
C351 C350 1.404 . S
C351 H363 0.930 . S
C352 C348 1.524 . S
C352 H364 0.956 . S
C352 H365 0.961 . S
C352 H366 0.961 . S
C353 C350 1.539 . S
C353 H367 0.958 . S
C353 H368 0.961 . S
C353 H369 0.960 . S
H354 C338 0.931 . S
H355 C343 0.929 . S
H356 C344 0.960 . S
H357 C344 0.962 . S
H358 C344 0.960 . S
H359 C345 0.961 . S
H360 C345 0.961 . S
H361 C345 0.961 . S
H362 C346 0.931 . S
H363 C351 0.930 . S
H364 C352 0.956 . S
H365 C352 0.961 . S
H366 C352 0.961 . S
H367 C353 0.958 . S
H368 C353 0.961 . S
H369 C353 0.960 . S
C370 C371 1.391 . S
C370 C372 1.394 . S
C370 H386 0.931 . S
C371 C370 1.391 . S
C371 C375 1.376 . S
C372 C370 1.394 . S
C372 C373 1.369 . S
C372 C376 1.531 . S
C373 C372 1.369 . S
C373 C374 1.410 . S
C373 C381 1.503 . S
C374 C373 1.410 . S
C374 C375 1.392 . S
C374 C377 1.511 . S
C375 C371 1.376 . S
C375 C374 1.392 . S
C375 H387 0.929 1_655 S
C376 C372 1.531 . S
C376 H388 0.960 . S
C376 H389 0.962 . S
C376 H390 0.960 . S
C377 C374 1.511 . S
C377 H391 0.961 1_655 S
C377 H392 0.961 . S
C377 H393 0.961 . S
C378 C379 1.370 . S
C378 C380 1.363 . S
C378 H394 0.931 . S
C379 C378 1.370 . S
C379 C383 1.408 . S
C380 C378 1.363 . S
C380 C381 1.370 . S
C380 C384 1.524 . S
C381 C373 1.503 . S
C381 C380 1.370 . S
C381 C382 1.403 . S
C382 C381 1.403 . S
C382 C383 1.404 . S
C382 C385 1.539 . S
C383 C379 1.408 . S
C383 C382 1.404 . S
C383 H395 0.930 . S
C384 C380 1.524 . S
C384 H396 0.956 . S
C384 H397 0.961 . S
C384 H398 0.961 . S
C385 C382 1.539 . S
C385 H399 0.958 . S
C385 H400 0.961 . S
C385 H401 0.960 . S
H386 C370 0.931 . S
H387 C375 0.929 1_455 S
H388 C376 0.960 . S
H389 C376 0.962 . S
H390 C376 0.960 . S
H391 C377 0.961 1_455 S
H392 C377 0.961 . S
H393 C377 0.961 . S
H394 C378 0.931 . S
H395 C383 0.930 . S
H396 C384 0.956 . S
H397 C384 0.961 . S
H398 C384 0.961 . S
H399 C385 0.958 . S
H400 C385 0.961 . S
H401 C385 0.960 . S
C402 C403 1.391 . S
C402 C404 1.394 . S
C402 H418 0.931 . S
C403 C402 1.391 . S
C403 C407 1.376 . S
C404 C402 1.394 . S
C404 C405 1.369 . S
C404 C408 1.531 . S
C405 C404 1.369 . S
C405 C406 1.410 . S
C405 C413 1.503 . S
C406 C405 1.410 . S
C406 C407 1.392 . S
C406 C409 1.511 . S
C407 C403 1.376 . S
C407 C406 1.392 . S
C407 H419 0.929 . S
C408 C404 1.531 . S
C408 H420 0.960 . S
C408 H421 0.962 . S
C408 H422 0.960 . S
C409 C406 1.511 . S
C409 H423 0.961 . S
C409 H424 0.961 . S
C409 H425 0.961 . S
C410 C411 1.370 . S
C410 C412 1.363 . S
C410 H426 0.931 . S
C411 C410 1.370 . S
C411 C415 1.408 . S
C412 C410 1.363 . S
C412 C413 1.370 . S
C412 C416 1.524 . S
C413 C405 1.503 . S
C413 C412 1.370 . S
C413 C414 1.403 . S
C414 C413 1.403 . S
C414 C415 1.404 . S
C414 C417 1.539 . S
C415 C411 1.408 . S
C415 C414 1.404 . S
C415 H427 0.930 . S
C416 C412 1.524 . S
C416 H428 0.956 . S
C416 H429 0.961 . S
C416 H430 0.961 . S
C417 C414 1.539 . S
C417 H431 0.958 . S
C417 H432 0.961 . S
C417 H433 0.960 . S
H418 C402 0.931 . S
H419 C407 0.929 . S
H420 C408 0.960 . S
H421 C408 0.962 . S
H422 C408 0.960 . S
H423 C409 0.961 . S
H424 C409 0.961 . S
H425 C409 0.961 . S
H426 C410 0.931 . S
H427 C415 0.930 . S
H428 C416 0.956 . S
H429 C416 0.961 . S
H430 C416 0.961 . S
H431 C417 0.958 . S
H432 C417 0.961 . S
H433 C417 0.960 . S
C434 C435 1.391 . S
C434 C436 1.394 . S
C434 H450 0.931 . S
C435 C434 1.391 . S
C435 C439 1.376 . S
C436 C434 1.394 . S
C436 C437 1.369 . S
C436 C440 1.531 . S
C437 C436 1.369 . S
C437 C438 1.410 . S
C437 C445 1.503 . S
C438 C437 1.410 . S
C438 C439 1.392 . S
C438 C441 1.511 . S
C439 C435 1.376 . S
C439 C438 1.392 . S
C439 H451 0.929 . S
C440 C436 1.531 . S
C440 H452 0.960 . S
C440 H453 0.962 . S
C440 H454 0.960 . S
C441 C438 1.511 . S
C441 H455 0.961 . S
C441 H456 0.961 . S
C441 H457 0.961 . S
C442 C443 1.370 . S
C442 C444 1.363 . S
C442 H458 0.931 . S
C443 C442 1.370 . S
C443 C447 1.408 . S
C444 C442 1.363 . S
C444 C445 1.370 . S
C444 C448 1.524 . S
C445 C437 1.503 . S
C445 C444 1.370 . S
C445 C446 1.403 . S
C446 C445 1.403 . S
C446 C447 1.404 . S
C446 C449 1.539 . S
C447 C443 1.408 . S
C447 C446 1.404 . S
C447 H459 0.930 . S
C448 C444 1.524 . S
C448 H460 0.956 . S
C448 H461 0.961 . S
C448 H462 0.961 . S
C449 C446 1.539 . S
C449 H463 0.958 . S
C449 H464 0.961 . S
C449 H465 0.960 . S
H450 C434 0.931 . S
H451 C439 0.929 . S
H452 C440 0.960 . S
H453 C440 0.962 . S
H454 C440 0.960 . S
H455 C441 0.961 . S
H456 C441 0.961 . S
H457 C441 0.961 . S
H458 C442 0.931 . S
H459 C447 0.930 . S
H460 C448 0.956 . S
H461 C448 0.961 . S
H462 C448 0.961 . S
H463 C449 0.958 . S
H464 C449 0.961 . S
H465 C449 0.960 . S
C466 C467 1.391 . S
C466 C468 1.394 . S
C466 H482 0.931 . S
C467 C466 1.391 . S
C467 C471 1.376 . S
C468 C466 1.394 . S
C468 C469 1.369 . S
C468 C472 1.531 . S
C469 C468 1.369 . S
C469 C470 1.410 . S
C469 C477 1.503 . S
C470 C469 1.410 . S
C470 C471 1.392 . S
C470 C473 1.511 . S
C471 C467 1.376 . S
C471 C470 1.392 . S
C471 H483 0.929 . S
C472 C468 1.531 . S
C472 H484 0.960 . S
C472 H485 0.962 . S
C472 H486 0.960 . S
C473 C470 1.511 . S
C473 H487 0.961 1_455 S
C473 H488 0.961 . S
C473 H489 0.961 1_455 S
C474 C475 1.370 . S
C474 C476 1.363 . S
C474 H490 0.931 . S
C475 C474 1.370 . S
C475 C479 1.408 . S
C476 C474 1.363 . S
C476 C477 1.370 . S
C476 C480 1.524 . S
C477 C469 1.503 . S
C477 C476 1.370 . S
C477 C478 1.403 . S
C478 C477 1.403 . S
C478 C479 1.404 . S
C478 C481 1.539 . S
C479 C475 1.408 . S
C479 C478 1.404 . S
C479 H491 0.930 . S
C480 C476 1.524 . S
C480 H492 0.956 . S
C480 H493 0.961 . S
C480 H494 0.961 . S
C481 C478 1.539 . S
C481 H495 0.958 . S
C481 H496 0.961 . S
C481 H497 0.960 . S
H482 C466 0.931 . S
H483 C471 0.929 . S
H484 C472 0.960 . S
H485 C472 0.962 . S
H486 C472 0.960 . S
H487 C473 0.961 1_655 S
H488 C473 0.961 . S
H489 C473 0.961 1_655 S
H490 C474 0.931 . S
H491 C479 0.930 . S
H492 C480 0.956 . S
H493 C480 0.961 . S
H494 C480 0.961 . S
H495 C481 0.958 . S
H496 C481 0.961 . S
H497 C481 0.960 . S
C498 C499 1.391 . S
C498 C500 1.394 . S
C498 H514 0.931 . S
C499 C498 1.391 . S
C499 C503 1.376 . S
C500 C498 1.394 . S
C500 C501 1.369 . S
C500 C504 1.531 . S
C501 C500 1.369 . S
C501 C502 1.410 . S
C501 C509 1.503 . S
C502 C501 1.410 . S
C502 C503 1.392 . S
C502 C505 1.511 . S
C503 C499 1.376 . S
C503 C502 1.392 . S
C503 H515 0.929 . S
C504 C500 1.531 . S
C504 H516 0.960 . S
C504 H517 0.962 . S
C504 H518 0.960 . S
C505 C502 1.511 . S
C505 H519 0.961 . S
C505 H520 0.961 . S
C505 H521 0.961 . S
C506 C507 1.370 . S
C506 C508 1.363 . S
C506 H522 0.931 . S
C507 C506 1.370 . S
C507 C511 1.408 . S
C508 C506 1.363 . S
C508 C509 1.370 . S
C508 C512 1.524 . S
C509 C501 1.503 . S
C509 C508 1.370 . S
C509 C510 1.403 . S
C510 C509 1.403 . S
C510 C511 1.404 . S
C510 C513 1.539 . S
C511 C507 1.408 . S
C511 C510 1.404 . S
C511 H523 0.930 . S
C512 C508 1.524 . S
C512 H524 0.956 . S
C512 H525 0.961 . S
C512 H526 0.961 . S
C513 C510 1.539 . S
C513 H527 0.958 . S
C513 H528 0.961 . S
C513 H529 0.960 . S
H514 C498 0.931 . S
H515 C503 0.929 . S
H516 C504 0.960 . S
H517 C504 0.962 . S
H518 C504 0.960 . S
H519 C505 0.961 . S
H520 C505 0.961 . S
H521 C505 0.961 . S
H522 C506 0.931 . S
H523 C511 0.930 . S
H524 C512 0.956 . S
H525 C512 0.961 . S
H526 C512 0.961 . S
H527 C513 0.958 . S
H528 C513 0.961 . S
H529 C513 0.960 . S
C530 C531 1.391 . S
C530 C532 1.394 . S
C530 H546 0.931 1_565 S
C531 C530 1.391 . S
C531 C535 1.376 . S
C532 C530 1.394 . S
C532 C533 1.369 . S
C532 C536 1.531 . S
C533 C532 1.369 . S
C533 C534 1.410 . S
C533 C541 1.503 . S
C534 C533 1.410 . S
C534 C535 1.392 . S
C534 C537 1.511 . S
C535 C531 1.376 . S
C535 C534 1.392 . S
C535 H547 0.929 . S
C536 C532 1.531 . S
C536 H548 0.960 . S
C536 H549 0.962 . S
C536 H550 0.960 1_565 S
C537 C534 1.511 . S
C537 H551 0.961 . S
C537 H552 0.961 . S
C537 H553 0.961 . S
C538 C539 1.370 . S
C538 C540 1.363 . S
C538 H554 0.931 . S
C539 C538 1.370 . S
C539 C543 1.408 . S
C540 C538 1.363 . S
C540 C541 1.370 . S
C540 C544 1.524 . S
C541 C533 1.503 . S
C541 C540 1.370 . S
C541 C542 1.403 . S
C542 C541 1.403 . S
C542 C543 1.404 . S
C542 C545 1.539 . S
C543 C539 1.408 . S
C543 C542 1.404 . S
C543 H555 0.930 . S
C544 C540 1.524 . S
C544 H556 0.956 . S
C544 H557 0.961 . S
C544 H558 0.961 . S
C545 C542 1.539 . S
C545 H559 0.958 . S
C545 H560 0.961 . S
C545 H561 0.960 . S
H546 C530 0.931 1_545 S
H547 C535 0.929 . S
H548 C536 0.960 . S
H549 C536 0.962 . S
H550 C536 0.960 1_545 S
H551 C537 0.961 . S
H552 C537 0.961 . S
H553 C537 0.961 . S
H554 C538 0.931 . S
H555 C543 0.930 . S
H556 C544 0.956 . S
H557 C544 0.961 . S
H558 C544 0.961 . S
H559 C545 0.958 . S
H560 C545 0.961 . S
H561 C545 0.960 . S
C562 C563 1.391 . S
C562 C564 1.394 . S
C562 H578 0.931 1_655 S
C563 C562 1.391 . S
C563 C567 1.376 . S
C564 C562 1.394 . S
C564 C565 1.369 . S
C564 C568 1.531 1_655 S
C565 C564 1.369 . S
C565 C566 1.410 . S
C565 C573 1.503 . S
C566 C565 1.410 . S
C566 C567 1.392 . S
C566 C569 1.511 . S
C567 C563 1.376 . S
C567 C566 1.392 . S
C567 H579 0.929 . S
C568 C564 1.531 1_455 S
C568 H580 0.960 1_455 S
C568 H581 0.962 . S
C568 H582 0.960 . S
C569 C566 1.511 . S
C569 H583 0.961 . S
C569 H584 0.961 . S
C569 H585 0.961 . S
C570 C571 1.370 . S
C570 C572 1.363 . S
C570 H586 0.931 . S
C571 C570 1.370 . S
C571 C575 1.408 . S
C572 C570 1.363 . S
C572 C573 1.370 . S
C572 C576 1.524 . S
C573 C565 1.503 . S
C573 C572 1.370 . S
C573 C574 1.403 . S
C574 C573 1.403 . S
C574 C575 1.404 . S
C574 C577 1.539 . S
C575 C571 1.408 . S
C575 C574 1.404 . S
C575 H587 0.930 . S
C576 C572 1.524 . S
C576 H588 0.956 . S
C576 H589 0.961 . S
C576 H590 0.961 . S
C577 C574 1.539 . S
C577 H591 0.958 . S
C577 H592 0.961 . S
C577 H593 0.960 . S
H578 C562 0.931 1_455 S
H579 C567 0.929 . S
H580 C568 0.960 1_655 S
H581 C568 0.962 . S
H582 C568 0.960 . S
H583 C569 0.961 . S
H584 C569 0.961 . S
H585 C569 0.961 . S
H586 C570 0.931 . S
H587 C575 0.930 . S
H588 C576 0.956 . S
H589 C576 0.961 . S
H590 C576 0.961 . S
H591 C577 0.958 . S
H592 C577 0.961 . S
H593 C577 0.960 . S
C211 C58 1.219 . S
C219 C187 1.250 . S
C243 C151 1.548 . S
C251 C193 1.427 . S
C275 C74 1.548 . S
C283 C184 1.490 . S
C307 C142 1.083 . S
C315 C209 1.284 . S
C339 C67 1.559 . S
C347 C175 1.426 . S
C379 C192 1.455 . S
C371 C158 1.561 . S
C403 C154 1.210 . S
C411 C188 1.254 . S
C443 C205 1.504 . S
C435 C56 1.607 . S
C475 C172 1.436 . S
C467 C147 1.569 . S
C507 C208 1.276 . S
C499 C70 1.141 . S
C539 C171 1.506 . S
C531 C140 1.610 . S
C571 C196 1.400 . S
C563 C63 1.563 . S
