# Generated by pormake.
# Topology soc, (4,6)-cn, num edge types: 1
# Building blocks:
#     Node 0, Type 0, BuildingBlock: ESEHIV_clean_sbu_0, # of connection points: 4
#     Node 1, Type 0, BuildingBlock: ESEHIV_clean_sbu_0, # of connection points: 4
#     Node 2, Type 0, BuildingBlock: ESEHIV_clean_sbu_0, # of connection points: 4
#     Node 3, Type 0, BuildingBlock: ESEHIV_clean_sbu_0, # of connection points: 4
#     Node 4, Type 0, BuildingBlock: ESEHIV_clean_sbu_0, # of connection points: 4
#     Node 5, Type 0, BuildingBlock: ESEHIV_clean_sbu_0, # of connection points: 4
#     Node 6, Type 0, BuildingBlock: ESEHIV_clean_sbu_0, # of connection points: 4
#     Node 7, Type 0, BuildingBlock: ESEHIV_clean_sbu_0, # of connection points: 4
#     Node 8, Type 0, BuildingBlock: ESEHIV_clean_sbu_0, # of connection points: 4
#     Node 9, Type 0, BuildingBlock: ESEHIV_clean_sbu_0, # of connection points: 4
#     Node 10, Type 0, BuildingBlock: ESEHIV_clean_sbu_0, # of connection points: 4
#     Node 11, Type 0, BuildingBlock: ESEHIV_clean_sbu_0, # of connection points: 4
#     Node 12, Type 1, BuildingBlock: PAMTOO_clean_sbu_0, # of connection points: 6
#     Node 13, Type 1, BuildingBlock: PAMTOO_clean_sbu_0, # of connection points: 6
#     Node 14, Type 1, BuildingBlock: PAMTOO_clean_sbu_0, # of connection points: 6
#     Node 15, Type 1, BuildingBlock: PAMTOO_clean_sbu_0, # of connection points: 6
#     Node 16, Type 1, BuildingBlock: PAMTOO_clean_sbu_0, # of connection points: 6
#     Node 17, Type 1, BuildingBlock: PAMTOO_clean_sbu_0, # of connection points: 6
#     Node 18, Type 1, BuildingBlock: PAMTOO_clean_sbu_0, # of connection points: 6
#     Node 19, Type 1, BuildingBlock: PAMTOO_clean_sbu_0, # of connection points: 6
#     Edge 20, Type (0, 1), BuildingBlock: AJUNOK_clean_linker_0, # of connection points: 2
#     Edge 21, Type (0, 1), BuildingBlock: AJUNOK_clean_linker_0, # of connection points: 2
#     Edge 22, Type (0, 1), BuildingBlock: AJUNOK_clean_linker_0, # of connection points: 2
#     Edge 23, Type (0, 1), BuildingBlock: AJUNOK_clean_linker_0, # of connection points: 2
#     Edge 24, Type (0, 1), BuildingBlock: AJUNOK_clean_linker_0, # of connection points: 2
#     Edge 25, Type (0, 1), BuildingBlock: AJUNOK_clean_linker_0, # of connection points: 2
#     Edge 26, Type (0, 1), BuildingBlock: AJUNOK_clean_linker_0, # of connection points: 2
#     Edge 27, Type (0, 1), BuildingBlock: AJUNOK_clean_linker_0, # of connection points: 2
#     Edge 28, Type (0, 1), BuildingBlock: AJUNOK_clean_linker_0, # of connection points: 2
#     Edge 29, Type (0, 1), BuildingBlock: AJUNOK_clean_linker_0, # of connection points: 2
#     Edge 30, Type (0, 1), BuildingBlock: AJUNOK_clean_linker_0, # of connection points: 2
#     Edge 31, Type (0, 1), BuildingBlock: AJUNOK_clean_linker_0, # of connection points: 2
#     Edge 32, Type (0, 1), BuildingBlock: AJUNOK_clean_linker_0, # of connection points: 2
#     Edge 33, Type (0, 1), BuildingBlock: AJUNOK_clean_linker_0, # of connection points: 2
#     Edge 34, Type (0, 1), BuildingBlock: AJUNOK_clean_linker_0, # of connection points: 2
#     Edge 35, Type (0, 1), BuildingBlock: AJUNOK_clean_linker_0, # of connection points: 2
#     Edge 36, Type (0, 1), BuildingBlock: AJUNOK_clean_linker_0, # of connection points: 2
#     Edge 37, Type (0, 1), BuildingBlock: AJUNOK_clean_linker_0, # of connection points: 2
#     Edge 38, Type (0, 1), BuildingBlock: AJUNOK_clean_linker_0, # of connection points: 2
#     Edge 39, Type (0, 1), BuildingBlock: AJUNOK_clean_linker_0, # of connection points: 2
#     Edge 40, Type (0, 1), BuildingBlock: AJUNOK_clean_linker_0, # of connection points: 2
#     Edge 41, Type (0, 1), BuildingBlock: AJUNOK_clean_linker_0, # of connection points: 2
#     Edge 42, Type (0, 1), BuildingBlock: AJUNOK_clean_linker_0, # of connection points: 2
#     Edge 43, Type (0, 1), BuildingBlock: AJUNOK_clean_linker_0, # of connection points: 2
#     Edge 44, Type (0, 1), BuildingBlock: AJUNOK_clean_linker_0, # of connection points: 2
#     Edge 45, Type (0, 1), BuildingBlock: AJUNOK_clean_linker_0, # of connection points: 2
#     Edge 46, Type (0, 1), BuildingBlock: AJUNOK_clean_linker_0, # of connection points: 2
#     Edge 47, Type (0, 1), BuildingBlock: AJUNOK_clean_linker_0, # of connection points: 2
#     Edge 48, Type (0, 1), BuildingBlock: AJUNOK_clean_linker_0, # of connection points: 2
#     Edge 49, Type (0, 1), BuildingBlock: AJUNOK_clean_linker_0, # of connection points: 2
#     Edge 50, Type (0, 1), BuildingBlock: AJUNOK_clean_linker_0, # of connection points: 2
#     Edge 51, Type (0, 1), BuildingBlock: AJUNOK_clean_linker_0, # of connection points: 2
#     Edge 52, Type (0, 1), BuildingBlock: AJUNOK_clean_linker_0, # of connection points: 2
#     Edge 53, Type (0, 1), BuildingBlock: AJUNOK_clean_linker_0, # of connection points: 2
#     Edge 54, Type (0, 1), BuildingBlock: AJUNOK_clean_linker_0, # of connection points: 2
#     Edge 55, Type (0, 1), BuildingBlock: AJUNOK_clean_linker_0, # of connection points: 2
#     Edge 56, Type (0, 1), BuildingBlock: AJUNOK_clean_linker_0, # of connection points: 2
#     Edge 57, Type (0, 1), BuildingBlock: AJUNOK_clean_linker_0, # of connection points: 2
#     Edge 58, Type (0, 1), BuildingBlock: AJUNOK_clean_linker_0, # of connection points: 2
#     Edge 59, Type (0, 1), BuildingBlock: AJUNOK_clean_linker_0, # of connection points: 2
#     Edge 60, Type (0, 1), BuildingBlock: AJUNOK_clean_linker_0, # of connection points: 2
#     Edge 61, Type (0, 1), BuildingBlock: AJUNOK_clean_linker_0, # of connection points: 2
#     Edge 62, Type (0, 1), BuildingBlock: AJUNOK_clean_linker_0, # of connection points: 2
#     Edge 63, Type (0, 1), BuildingBlock: AJUNOK_clean_linker_0, # of connection points: 2
#     Edge 64, Type (0, 1), BuildingBlock: AJUNOK_clean_linker_0, # of connection points: 2
#     Edge 65, Type (0, 1), BuildingBlock: AJUNOK_clean_linker_0, # of connection points: 2
#     Edge 66, Type (0, 1), BuildingBlock: AJUNOK_clean_linker_0, # of connection points: 2
#     Edge 67, Type (0, 1), BuildingBlock: AJUNOK_clean_linker_0, # of connection points: 2
# Relax obj value: 0.140
# Max RMSD: 0.260
# Mean RMSD: 0.160
data_MOF--net-soc--node1-ESEHIV_clean_sbu_0--node2-PAMTOO_clean_sbu_0--edge1-AJUNOK_clean_linker_0
_symmetry_space_group_name_H-M    P1
_symmetry_Int_Tables_number       1
_symmetry_cell_setting            triclinic
loop_
_symmetry_equiv_pos_as_xyz
'x, y, z'
_cell_length_a     45.157637
_cell_length_b     33.826836
_cell_length_c     31.602646
_cell_angle_alpha  92.647303
_cell_angle_beta   92.510054
_cell_angle_gamma 65.121399
loop_
_atom_site_label
_atom_site_type_symbol
_atom_site_fract_x
_atom_site_fract_y
_atom_site_fract_z
_atom_type_partial_charge
Cu0 Cu 0.08128 0.04442 0.38378 0.0
N1 N 0.09621 0.07801 0.41981 0.0
N2 N 0.12151 0.12074 0.4387 0.0
C3 C 0.11464 0.09753 0.40702 0.0
C4 C 0.1066 0.11573 0.4729 0.0
C5 C 0.09105 0.08923 0.46114 0.0
O6 O 0.11862 1.00671 0.35008 0.0
C7 C 0.01921 0.10722 0.3774 0.0
O8 O 0.02359 0.10046 0.41827 0.0
H9 H 0.12289 0.09463 0.3749 0.0
H10 H 0.07653 0.07957 0.48108 0.0
N11 N 0.06727 1.00885 0.41297 0.0
N12 N 0.03909 0.96993 0.42485 0.0
C13 C 0.04459 0.99552 0.39767 0.0
C14 C 0.07666 0.99088 0.45117 0.0
C15 C 0.05941 0.96656 0.45847 0.0
C16 C 0.14393 0.98519 0.37279 0.0
O17 O 0.14165 0.98877 0.41421 0.0
H18 H 0.03287 1.00378 0.36669 0.0
H19 H 0.09485 0.99494 0.47209 0.0
O20 O 0.04284 0.08526 0.35315 0.0
H21 H 0.10601 0.13117 0.50381 0.0
H22 H 0.06149 0.94803 0.48635 0.0
Cu23 Cu 0.06317 0.0552 0.7145 0.0
N24 N 0.04646 1.02125 0.68242 0.0
N25 N 0.01535 0.98535 0.66825 0.0
C26 C 0.02404 1.00935 0.69712 0.0
C27 C 0.03348 0.9813 0.63411 0.0
C28 C 0.05261 1.00378 0.64288 0.0
O29 O 0.02568 0.0983 0.7453 0.0
C30 C 0.12557 0.99175 0.72383 0.0
O31 O 0.12187 0.99575 0.68256 0.0
H32 H 0.01474 1.01761 0.72884 0.0
H33 H 0.06978 1.00699 0.62202 0.0
N34 N 0.07906 0.08605 0.68147 0.0
N35 N 0.11053 0.11941 0.66596 0.0
C36 C 0.10112 0.10065 0.69624 0.0
C37 C 0.0741 0.09597 0.64025 0.0
C38 C 0.09358 0.1166 0.63054 0.0
C39 C 1.00107 0.12051 0.72152 0.0
O40 O 1.0038 0.11352 0.68034 0.0
H41 H 0.11046 0.09693 0.72865 0.0
H42 H 0.05812 0.08789 0.61859 0.0
O43 O 0.10138 1.01485 0.74698 0.0
H44 H 0.03277 0.96367 0.6049 0.0
H45 H 0.09593 0.12714 0.59954 0.0
Cu46 Cu 0.30978 0.06162 0.05991 0.0
N47 N 0.28064 0.04748 1.02668 0.0
N48 N 0.26727 1.00624 0.98035 0.0
C49 C 0.29171 1.0132 0.99963 0.0
C50 C 0.23939 0.03739 0.99538 0.0
C51 C 0.24777 0.06333 1.0241 0.0
O52 O 0.33531 1.00881 0.09247 0.0
C53 C 0.31176 0.11479 0.99692 0.0
O54 O 0.28029 0.12796 1.00217 0.0
H55 H 0.31739 0.99314 0.99473 0.0
H56 H 0.23107 0.09153 0.04153 0.0
N57 N 0.28927 0.10482 0.10025 0.0
N58 N 0.28703 0.15076 0.15391 0.0
C59 C 0.30515 0.1249 0.12251 0.0
C60 C 0.26016 0.11773 0.11853 0.0
C61 C 0.25864 0.14642 0.15168 0.0
C62 C 0.31771 0.99402 0.11145 0.0
O63 O 0.28582 1.01423 0.1075 0.0
H64 H 0.3303 0.11841 0.11717 0.0
H65 H 0.24204 0.10556 0.1101 0.0
O66 O 0.33157 0.0845 1.02048 0.0
H67 H 0.21501 0.04129 0.9859 0.0
H68 H 0.23858 0.16209 0.173 0.0
Cu69 Cu 0.10783 0.38127 0.05558 0.0
N70 N 0.12465 0.39731 1.00954 0.0
N71 N 0.15919 0.39271 0.95892 0.0
C72 C 0.15464 0.37472 0.99395 0.0
C73 C 0.13074 0.42767 0.95183 0.0
C74 C 0.10947 0.4305 0.98321 0.0
O75 O 0.1419 0.35963 0.10047 0.0
C76 C 0.07214 0.32749 0.05191 0.0
O77 O 0.07065 0.33286 0.09335 0.0
H78 H 0.17244 0.34494 1.00747 0.0
H79 H 0.08455 0.45459 0.98625 0.0
N80 N 0.07254 0.42875 0.07941 0.0
N81 N 0.02539 0.45366 0.11348 0.0
C82 C 0.04196 0.43119 0.07939 0.0
C83 C 0.07454 0.45306 0.11345 0.0
C84 C 0.04559 0.46823 0.13459 0.0
C85 C 0.15779 0.38263 0.10962 0.0
O86 O 0.15205 0.41652 0.08649 0.0
H87 H 0.03365 0.41148 0.0586 0.0
H88 H 0.09679 0.45443 0.12574 0.0
O89 O 0.09028 0.34058 0.03232 0.0
H90 H 0.12573 0.44961 0.9259 0.0
H91 H 0.04149 0.48338 0.16602 0.0
Cu92 Cu 0.83552 0.04515 0.05078 0.0
N93 N 0.86129 0.0638 1.0203 0.0
N94 N 0.87005 0.11016 0.98044 0.0
C95 C 0.84813 0.10274 1.00225 0.0
C96 C 0.8983 0.07413 0.98441 0.0
C97 C 0.89292 0.04556 1.00966 0.0
O98 O 0.81132 0.0965 0.08851 0.0
C99 C 0.83149 0.99307 0.98057 0.0
O100 O 0.86237 0.98593 0.98042 0.0
H101 H 0.82245 0.12451 1.00374 0.0
H102 H 0.91045 1.01343 1.01838 0.0
N103 N 0.85847 1.00134 0.08812 0.0
N104 N 0.86229 0.95757 0.14056 0.0
C105 C 0.84251 0.98516 0.11173 0.0
C106 C 0.88976 0.9834 0.10229 0.0
C107 C 0.89223 0.95596 0.13475 0.0
C108 C 0.83056 0.10831 0.11153 0.0
O109 O 0.86219 0.08572 0.10807 0.0
H110 H 0.81644 0.99472 0.10863 0.0
H111 H 0.9091 0.99057 0.09079 0.0
O112 O 0.8133 1.01962 1.00894 0.0
H113 H 0.92091 0.06862 0.96953 0.0
H114 H 0.91426 0.9363 0.15238 0.0
Cu115 Cu 0.04007 0.71165 0.05622 0.0
N116 N 0.02435 0.68944 1.00989 0.0
N117 N 0.99125 0.68869 0.95563 0.0
C118 C 0.9981 0.71329 0.98583 0.0
C119 C 0.01429 0.64768 0.96066 0.0
C120 C 0.03478 0.64826 0.99425 0.0
O121 O 1.00536 0.73542 0.09783 0.0
C122 C 0.07262 0.769 0.05193 0.0
O123 O 0.07624 0.76646 0.09335 0.0
H124 H 0.98376 0.74791 0.99114 0.0
H125 H 0.05552 0.62065 1.00671 0.0
N126 N 0.07637 0.66804 0.08236 0.0
N127 N 0.12511 0.64316 0.11596 0.0
C128 C 0.1066 0.66667 0.08364 0.0
C129 C 0.07631 0.64245 0.11373 0.0
C130 C 0.10638 0.62697 0.13447 0.0
C131 C 0.99039 0.7118 0.1052 0.0
O132 O 0.9983 0.67488 0.08348 0.0
H133 H 0.11384 0.68643 0.06431 0.0
H134 H 0.05505 0.63878 0.12371 0.0
O135 O 0.0549 0.75253 0.03262 0.0
H136 H 0.01628 0.61942 0.9414 0.0
H137 H 0.11294 0.60823 0.16295 0.0
Cu138 Cu 0.56681 0.55593 0.89217 0.0
N139 N 0.58609 0.58589 0.92614 0.0
N140 N 0.61378 0.62639 0.94157 0.0
C141 C 0.59407 0.61743 0.91314 0.0
C142 C 0.61767 0.60016 0.97425 0.0
C143 C 0.60055 0.57524 0.96465 0.0
O144 O 0.60173 0.51292 0.85726 0.0
C145 C 0.50487 0.59356 0.84406 0.0
O146 O 0.50982 0.55346 0.83273 0.0
H147 H 0.58734 0.63149 0.88217 0.0
H148 H 0.6006 0.54908 0.9831 0.0
N149 N 0.55458 0.52161 0.92587 0.0
N150 N 0.52769 0.48209 0.94205 0.0
C151 C 0.5255 0.51929 0.92528 0.0
C152 C 0.57562 0.48542 0.94509 0.0
C153 C 0.55909 0.46114 0.95534 0.0
C154 C 0.62517 0.51928 0.84251 0.0
O155 O 0.62243 0.55936 0.8411 0.0
H156 H 0.50358 0.54318 0.91079 0.0
H157 H 0.60173 0.47541 0.9478 0.0
O158 O 0.52728 0.60016 0.86502 0.0
H159 H 0.63387 0.59657 1.00151 0.0
H160 H 0.56998 0.42873 0.96794 0.0
Cu161 Cu 0.57883 0.54308 0.21514 0.0
N162 N 0.55799 0.51171 0.18667 0.0
N163 N 0.52436 0.47872 0.17678 0.0
C164 C 0.5354 0.50171 0.20402 0.0
C165 C 0.54054 0.47437 0.14067 0.0
C166 C 0.56138 0.49461 0.14693 0.0
O167 O 0.54517 0.5911 0.24564 0.0
C168 C 0.63706 0.47439 0.22672 0.0
O169 O 0.63254 0.47404 0.18539 0.0
H170 H 0.52744 0.51087 0.23625 0.0
H171 H 0.57778 0.49665 0.12411 0.0
N172 N 0.59788 0.56762 0.17908 0.0
N173 N 0.63034 0.59859 0.16096 0.0
C174 C 0.62042 0.58192 0.19254 0.0
C175 C 0.59302 0.57585 0.13746 0.0
C176 C 0.61298 0.59517 0.12622 0.0
C177 C 0.52276 0.61601 0.22083 0.0
O178 O 0.52557 0.60713 0.17989 0.0
H179 H 0.62867 0.58106 0.22529 0.0
H180 H 0.57592 0.56895 0.11687 0.0
O181 O 0.61477 0.50261 0.24925 0.0
H182 H 0.53714 0.45855 0.11151 0.0
H183 H 0.61464 0.60581 0.09497 0.0
Cu184 Cu 0.81913 0.55147 0.54912 0.0
N185 N 0.80088 0.59128 0.5069 0.0
N186 N 0.80414 0.62398 0.44901 0.0
C187 C 0.81916 0.60552 0.48525 0.0
C188 C 0.77494 0.62183 0.44798 0.0
C189 C 0.77298 0.60147 0.48392 0.0
O190 O 0.83883 0.57797 0.59287 0.0
C191 C 0.82617 0.48113 0.49601 0.0
O192 O 0.79437 0.50248 0.4985 0.0
H193 H 0.84417 0.59906 0.49417 0.0
H194 H 0.75376 0.59192 0.49108 0.0
N195 N 0.78889 0.54083 0.57882 0.0
N196 N 0.77483 0.5068 0.62732 0.0
C197 C 0.79919 0.50734 0.60486 0.0
C198 C 0.75655 0.56263 0.58457 0.0
C199 C 0.74771 0.54141 0.6147 0.0
C200 C 0.81767 0.61299 0.61017 0.0
O201 O 0.78746 0.62833 0.5952 0.0
H202 H 0.8245 0.48421 0.60787 0.0
H203 H 0.74086 0.59258 0.56938 0.0
O204 O 0.84442 0.49589 0.51743 0.0
H205 H 0.75684 0.63272 0.42244 0.0
H206 H 0.72369 0.5517 0.62758 0.0
Cu207 Cu 0.64344 0.8104 0.55918 0.0
N208 N 0.67504 0.78069 0.51833 0.0
N209 N 0.70753 0.77098 0.46342 0.0
C210 C 0.68799 0.79963 0.49244 0.0
C211 C 0.70714 0.73243 0.47177 0.0
C212 C 0.68716 0.73846 0.50557 0.0
O213 O 0.6627 0.83878 0.5997 0.0
C214 C 0.59373 0.82593 0.50331 0.0
O215 O 0.61364 0.7853 0.49443 0.0
H216 H 0.68234 0.83409 0.494 0.0
H217 H 0.68116 0.71401 0.51897 0.0
N218 N 0.62883 0.77534 0.58899 0.0
N219 N 0.5919 0.76222 0.624 0.0
C220 C 0.59843 0.79193 0.60416 0.0
C221 C 0.64217 0.73306 0.59928 0.0
C222 C 0.61924 0.72478 0.62065 0.0
C223 C 0.65485 0.8471 0.63844 0.0
O224 O 0.62887 0.84324 0.65084 0.0
H225 H 0.58107 0.82539 0.59991 0.0
H226 H 0.66666 0.70989 0.59182 0.0
O227 O 0.60347 0.84798 0.52957 0.0
H228 H 0.72023 0.70205 0.45465 0.0
H229 H 0.62252 0.69389 0.63312 0.0
Cu230 Cu 0.32559 0.55177 0.55476 0.0
N231 N 0.35015 0.57007 0.5191 0.0
N232 N 0.35874 0.61248 0.47256 0.0
C233 C 0.3364 0.60509 0.49417 0.0
C234 C 0.38781 0.58092 0.4847 0.0
C235 C 0.38247 0.55474 0.51311 0.0
O236 O 0.30628 0.60001 0.59407 0.0
C237 C 0.30649 0.52002 0.48456 0.0
O238 O 0.338 0.50603 0.4793 0.0
H239 H 0.31041 0.62536 0.49275 0.0
H240 H 0.40092 0.52675 0.52837 0.0
N241 N 0.34759 0.50194 0.58818 0.0
N242 N 0.35321 0.4528 0.63739 0.0
C243 C 0.33239 0.48322 0.61091 0.0
C244 C 0.37919 0.48258 0.60082 0.0
C245 C 0.38269 0.45246 0.63103 0.0
C246 C 0.32824 0.60904 0.61277 0.0
O247 O 0.35908 0.58399 0.60568 0.0
H248 H 0.3062 0.49357 0.60974 0.0
H249 H 0.39817 0.49113 0.59045 0.0
O250 O 0.29403 0.54136 0.51827 0.0
H251 H 0.41129 0.5768 0.47357 0.0
H252 H 0.40514 0.43246 0.6477 0.0
Cu253 Cu 0.51552 0.24502 0.54074 0.0
N254 N 0.54866 0.20998 0.50465 0.0
N255 N 0.59244 0.19324 0.46519 0.0
C256 C 0.5712 0.22269 0.49186 0.0
C257 C 0.58314 0.16016 0.46124 0.0
C258 C 0.55575 0.17085 0.48532 0.0
O259 O 0.53547 0.27875 0.57377 0.0
C260 C 0.45981 0.25868 0.49095 0.0
O261 O 0.46805 0.21845 0.50223 0.0
H262 H 0.57217 0.25295 0.50248 0.0
H263 H 0.54197 0.15164 0.48821 0.0
N264 N 0.50374 0.21293 0.57833 0.0
N265 N 0.47858 0.19942 0.63158 0.0
C266 C 0.48153 0.23032 0.60879 0.0
C267 C 0.51547 0.16945 0.58216 0.0
C268 C 0.49994 0.16102 0.61497 0.0
C269 C 0.555 0.25896 0.60411 0.0
O270 O 0.55759 0.22031 0.61385 0.0
H271 H 0.46776 0.26507 0.6141 0.0
H272 H 0.5344 0.14554 0.56307 0.0
O273 O 0.47716 0.27842 0.50478 0.0
H274 H 0.59502 0.13075 0.44197 0.0
H275 H 0.50469 0.12919 0.62644 0.0
Dy276 Dy 0.27568 0.3281 0.34985 0.0
Dy277 Dy 0.31635 0.35853 0.28081 0.0
C278 C 0.3129 0.26534 0.27288 0.0
O279 O 0.32008 0.3272 0.38522 0.0
O280 O 0.35379 0.32367 0.33098 0.0
O281 O 0.27556 0.2869 0.39996 0.0
O282 O 0.23036 0.33975 0.37952 0.0
O283 O 0.3041 0.40656 0.33441 0.0
O284 O 0.2592 0.40005 0.35854 0.0
O285 O 0.26421 0.38222 0.25732 0.0
O286 O 0.24898 0.33334 0.28741 0.0
O287 O 0.31986 0.40863 0.24396 0.0
O288 O 0.35545 0.34136 0.23691 0.0
C289 C 0.34892 0.32036 0.3712 0.0
O290 O 0.30532 0.26745 0.31284 0.0
O291 O 0.31368 0.29854 0.25401 0.0
C292 C 0.22665 0.2789 0.40877 0.0
C293 C 0.19358 0.22568 0.42011 0.0
C294 C 0.21128 0.2211 0.38318 0.0
C295 C 0.22773 0.24749 0.37756 0.0
C296 C 0.20885 0.2838 0.44537 0.0
C297 C 0.19237 0.25757 0.45097 0.0
C298 C 0.24402 0.3067 0.4043 0.0
C299 C 0.2778 0.42105 0.35711 0.0
C300 C 0.24572 0.36071 0.25747 0.0
C301 C 0.37248 0.39589 0.22057 0.0
C302 C 0.42348 0.42119 0.20822 0.0
C303 C 0.41286 0.42058 0.24933 0.0
C304 C 0.38759 0.40779 0.25551 0.0
C305 C 0.38278 0.397 0.17965 0.0
C306 C 0.40798 0.40959 0.17348 0.0
C307 C 0.34637 0.38145 0.22547 0.0
H308 H 0.21261 0.19685 0.35881 0.0
H309 H 0.24132 0.24335 0.34902 0.0
H310 H 0.20762 0.30808 0.46968 0.0
H311 H 0.1783 0.26269 0.47921 0.0
H312 H 0.42439 0.42941 0.27665 0.0
H313 H 0.37997 0.40699 0.28737 0.0
H314 H 0.37132 0.38803 0.15232 0.0
H315 H 0.41517 0.41061 0.14144 0.0
Dy316 Dy 0.81252 0.27237 0.33928 0.0
Dy317 Dy 0.84188 0.31692 0.2705 0.0
C318 C 0.76531 0.35335 0.28656 0.0
O319 O 0.81889 0.23079 0.27984 0.0
O320 O 0.81829 0.2799 0.23179 0.0
O321 O 0.81203 0.21583 0.36827 0.0
O322 O 0.781 0.28085 0.39146 0.0
O323 O 0.88459 0.25562 0.28862 0.0
O324 O 0.86647 0.24391 0.35162 0.0
O325 O 0.85574 0.33866 0.33371 0.0
O326 O 0.81771 0.32933 0.3731 0.0
O327 O 0.84208 0.37471 0.24469 0.0
O328 O 0.8686 0.31179 0.2136 0.0
C329 C 0.81703 0.24295 0.24051 0.0
O330 O 0.76902 0.31587 0.30125 0.0
O331 O 0.79028 0.36288 0.2824 0.0
C332 C 0.76183 0.22667 0.39785 0.0
C333 C 0.70702 0.20948 0.41061 0.0
C334 C 0.70891 0.23025 0.3739 0.0
C335 C 0.73611 0.23886 0.3676 0.0
C336 C 0.76061 0.20442 0.43358 0.0
C337 C 0.73348 0.19578 0.43988 0.0
C338 C 0.78903 0.23925 0.39419 0.0
C339 C 0.8899 0.23551 0.32462 0.0
C340 C 0.83896 0.34611 0.36854 0.0
C341 C 0.88624 0.36734 0.20215 0.0
C342 C 0.93124 0.3989 0.17683 0.0
C343 C 0.92466 0.39909 0.22001 0.0
C344 C 0.90235 0.38335 0.23261 0.0
C345 C 0.89292 0.36691 0.15919 0.0
C346 C 0.91519 0.38253 0.1466 0.0
C347 C 0.86088 0.35349 0.21359 0.0
H348 H 0.68911 0.24052 0.35047 0.0
H349 H 0.73674 0.25594 0.33971 0.0
H350 H 0.78025 0.19481 0.45726 0.0
H351 H 0.73262 0.17991 0.46851 0.0
H352 H 0.93636 0.41203 0.24395 0.0
H353 H 0.89736 0.38426 0.26595 0.0
H354 H 0.88058 0.35489 0.13522 0.0
H355 H 0.91999 0.3816 0.11319 0.0
Dy356 Dy 0.81888 0.76285 0.24523 0.0
Dy357 Dy 0.86036 0.78952 0.32448 0.0
C358 C 0.78786 0.79565 0.3385 0.0
O359 O 0.82508 0.8207 0.22498 0.0
O360 O 0.83261 0.85033 0.28916 0.0
O361 O 0.77698 0.78047 0.20226 0.0
O362 O 0.81706 0.71607 0.19782 0.0
O363 O 0.88949 0.77804 0.26615 0.0
O364 O 0.87191 0.7317 0.22932 0.0
O365 O 0.86861 0.72029 0.33459 0.0
O366 O 0.82675 0.71491 0.29394 0.0
O367 O 0.90574 0.7738 0.35961 0.0
O368 O 0.86299 0.83289 0.37545 0.0
C369 C 0.82792 0.85227 0.2479 0.0
O370 O 0.78276 0.79304 0.29718 0.0
O371 O 0.81575 0.79304 0.3553 0.0
C372 C 0.76396 0.72045 0.18217 0.0
C373 C 0.72031 0.68012 0.17546 0.0
C374 C 0.7087 0.72512 0.18441 0.0
C375 C 0.73031 0.74511 0.18782 0.0
C376 C 0.77537 0.67556 0.17245 0.0
C377 C 0.75382 0.65562 0.16925 0.0
C378 C 0.78724 0.74103 0.18545 0.0
C379 C 0.8924 0.75006 0.23474 0.0
C380 C 0.84878 0.70154 0.32456 0.0
C381 C 0.91469 0.8356 0.3849 0.0
C382 C 0.95412 0.88199 0.39591 0.0
C383 C 0.96606 0.84099 0.37488 0.0
C384 C 0.94655 0.81806 0.36931 0.0
C385 C 0.90276 0.87672 0.40579 0.0
C386 C 0.92221 0.89974 0.41111 0.0
C387 C 0.8944 0.81061 0.38159 0.0
H388 H 0.68294 0.74474 0.18925 0.0
H389 H 0.72062 0.77983 0.19492 0.0
H390 H 0.80105 0.65574 0.16723 0.0
H391 H 0.76332 0.62104 0.16144 0.0
H392 H 0.99056 0.82664 0.36278 0.0
H393 H 0.95663 0.78639 0.35323 0.0
H394 H 0.87849 0.89084 0.41861 0.0
H395 H 0.91259 0.93096 0.42806 0.0
Dy396 Dy 0.35058 0.83371 0.33008 0.0
Dy397 Dy 0.32026 0.78402 0.25999 0.0
C398 C 0.39901 0.75183 0.27481 0.0
O399 O 0.33377 0.87499 0.27254 0.0
O400 O 0.33927 0.82229 0.22195 0.0
O401 O 0.37148 0.87993 0.34217 0.0
O402 O 0.35812 0.85247 0.39469 0.0
O403 O 0.27694 0.84466 0.27946 0.0
O404 O 0.29757 0.85858 0.34312 0.0
O405 O 0.31681 0.76036 0.32421 0.0
O406 O 0.35974 0.76916 0.35744 0.0
O407 O 0.32148 0.72305 0.23445 0.0
O408 O 0.28885 0.78402 0.20639 0.0
C409 C 0.33734 0.86123 0.23273 0.0
O410 O 0.39587 0.78526 0.3 0.0
O411 O 0.37404 0.74506 0.25925 0.0
C412 C 0.4028 0.87118 0.40474 0.0
C413 C 0.46273 0.86186 0.44278 0.0
C414 C 0.46042 0.82745 0.41818 0.0
C415 C 0.43066 0.83205 0.39938 0.0
C416 C 0.40499 0.90576 0.42885 0.0
C417 C 0.43483 0.90119 0.44772 0.0
C418 C 0.3719 0.87715 0.38317 0.0
C419 C 0.27302 0.86595 0.31612 0.0
C420 C 0.33962 0.75 0.35441 0.0
C421 C 0.27447 0.72387 0.19802 0.0
C422 C 0.22856 0.6893 0.17751 0.0
C423 C 0.21921 0.7293 0.2003 0.0
C424 C 0.24203 0.74643 0.21062 0.0
C425 C 0.28391 0.68371 0.17593 0.0
C426 C 0.26119 0.66658 0.16571 0.0
C427 C 0.29885 0.74174 0.20573 0.0
H428 H 0.48175 0.79709 0.41315 0.0
H429 H 0.42943 0.80531 0.38031 0.0
H430 H 0.38368 0.93637 0.43283 0.0
H431 H 0.43605 0.92812 0.46646 0.0
H432 H 0.19406 0.74795 0.20906 0.0
H433 H 0.23423 0.77754 0.22766 0.0
H434 H 0.30887 0.66586 0.16596 0.0
H435 H 0.26905 0.63572 0.14821 0.0
Dy436 Dy 0.29365 0.7733 0.83436 0.0
Dy437 Dy 0.33199 0.81673 0.77606 0.0
C438 C 0.25247 0.85878 0.77965 0.0
O439 O 0.28907 0.7544 0.76684 0.0
O440 O 0.33668 0.75423 0.74552 0.0
O441 O 0.26054 0.74254 0.83886 0.0
O442 O 0.28664 0.75128 0.89496 0.0
O443 O 0.36832 0.77349 0.82263 0.0
O444 O 0.34654 0.72443 0.82954 0.0
O445 O 0.30697 0.86696 0.82524 0.0
O446 O 0.3019 0.82333 0.87556 0.0
O447 O 0.36376 0.84937 0.77218 0.0
O448 O 0.34637 0.82764 0.71467 0.0
C449 C 0.31253 0.74268 0.73966 0.0
O450 O 0.25379 0.83656 0.81347 0.0
O451 O 0.27864 0.85094 0.75741 0.0
C452 C 0.23397 0.75162 0.9042 0.0
C453 C 0.17737 0.76978 0.9514 0.0
C454 C 0.19816 0.79033 0.96241 0.0
C455 C 0.22614 0.78146 0.93897 0.0
C456 C 0.2132 0.73119 0.89332 0.0
C457 C 0.18532 0.74008 0.91657 0.0
C458 C 0.26417 0.73936 0.87986 0.0
C459 C 0.37214 0.7338 0.82995 0.0
C460 C 0.30072 0.86073 0.86383 0.0
C461 C 0.39892 0.82792 0.7141 0.0
C462 C 0.46338 0.80144 0.68617 0.0
C463 C 0.45553 0.77395 0.71113 0.0
C464 C 0.42354 0.78718 0.72517 0.0
C465 C 0.4065 0.85459 0.68805 0.0
C466 C 0.43833 0.84149 0.67416 0.0
C467 C 0.36575 0.84437 0.73107 0.0
H468 H 0.19281 0.8132 0.98919 0.0
H469 H 0.24175 0.79758 0.94835 0.0
H470 H 0.21884 0.70763 0.86708 0.0
H471 H 0.17043 0.72272 0.90791 0.0
H472 H 0.4743 0.74291 0.72084 0.0
H473 H 0.41817 0.76608 0.74529 0.0
H474 H 0.38787 0.88603 0.67904 0.0
H475 H 0.44349 0.863 0.65431 0.0
Dy476 Dy 0.31144 0.2642 0.77718 0.0
Dy477 Dy 0.35304 0.29613 0.84982 0.0
C478 C 0.27517 0.32428 0.85711 0.0
O479 O 0.32215 0.31403 0.74445 0.0
O480 O 0.33788 0.34779 0.80037 0.0
O481 O 0.27312 0.27638 0.72933 0.0
O482 O 0.30831 0.21019 0.74122 0.0
O483 O 0.38607 0.27113 0.79517 0.0
O484 O 0.36471 0.22579 0.76489 0.0
O485 O 0.35788 0.23042 0.87008 0.0
O486 O 0.31231 0.22931 0.83623 0.0
O487 O 0.39623 0.28315 0.88916 0.0
O488 O 0.35346 0.34469 0.89628 0.0
C489 C 0.33001 0.34527 0.75985 0.0
O490 O 0.27242 0.31449 0.81677 0.0
O491 O 0.30371 0.31498 0.87583 0.0
C492 C 0.25613 0.21885 0.71397 0.0
C493 C 0.20806 0.18724 0.69519 0.0
C494 C 0.19897 0.23103 0.70817 0.0
C495 C 0.22278 0.24674 0.71744 0.0
C496 C 0.2651 0.17509 0.70117 0.0
C497 C 0.24136 0.15939 0.69213 0.0
C498 C 0.28187 0.23496 0.72036 0.0
C499 C 0.38756 0.24028 0.76755 0.0
C500 C 0.33518 0.21553 0.86626 0.0
C501 C 0.40459 0.3454 0.91255 0.0
C502 C 0.44289 0.39306 0.92266 0.0
C503 C 0.44355 0.36907 0.8848 0.0
C504 C 0.42436 0.34567 0.87966 0.0
C505 C 0.40417 0.36879 0.95048 0.0
C506 C 0.42318 0.39239 0.95555 0.0
C507 C 0.38379 0.32169 0.90796 0.0
H508 H 0.17347 0.25301 0.71149 0.0
H509 H 0.21504 0.28071 0.727 0.0
H510 H 0.29058 0.15303 0.69763 0.0
H511 H 0.24902 0.12554 0.68211 0.0
H512 H 0.45909 0.36811 0.85927 0.0
H513 H 0.42498 0.32781 0.8501 0.0
H514 H 0.38896 0.36899 0.97615 0.0
H515 H 0.42215 0.41059 0.98499 0.0
Dy516 Dy 0.83372 0.33596 0.83772 0.0
Dy517 Dy 0.79585 0.28675 0.77605 0.0
C518 C 0.87454 0.25162 0.77938 0.0
O519 O 0.82709 0.36285 0.7729 0.0
O520 O 0.78356 0.35018 0.74675 0.0
O521 O 0.86837 0.36471 0.84338 0.0
O522 O 0.84309 0.36118 0.89879 0.0
O523 O 0.75793 0.33518 0.81876 0.0
O524 O 0.78099 0.38334 0.83453 0.0
O525 O 0.82445 0.24077 0.82602 0.0
O526 O 0.8232 0.29101 0.87775 0.0
O527 O 0.76769 0.24842 0.77229 0.0
O528 O 0.78158 0.26824 0.71471 0.0
C529 C 0.8018 0.37169 0.74672 0.0
O530 O 0.87298 0.27275 0.81574 0.0
O531 O 0.84818 0.25922 0.75514 0.0
C532 C 0.89724 0.35762 0.90905 0.0
C533 C 0.95719 0.33589 0.95497 0.0
C534 C 0.93645 0.31593 0.96378 0.0
C535 C 0.90682 0.32647 0.94085 0.0
C536 C 0.91786 0.3777 0.90063 0.0
C537 C 0.94741 0.36701 0.92323 0.0
C538 C 0.866 0.37053 0.88436 0.0
C539 C 0.7552 0.37462 0.8297 0.0
C540 C 0.82801 0.2512 0.86571 0.0
C541 C 0.73198 0.25867 0.71249 0.0
C542 C 0.66942 0.27284 0.67817 0.0
C543 C 0.68041 0.30612 0.67822 0.0
C544 C 0.71144 0.29915 0.69541 0.0
C545 C 0.72103 0.22558 0.71217 0.0
C546 C 0.69018 0.23254 0.69531 0.0
C547 C 0.7648 0.24953 0.73103 0.0
H548 H 0.94327 0.29198 0.98819 0.0
H549 H 0.89145 0.31038 0.94807 0.0
H550 H 0.91098 0.40205 0.87658 0.0
H551 H 0.96239 0.38377 0.91634 0.0
H552 H 0.66487 0.33763 0.66562 0.0
H553 H 0.71929 0.32533 0.6955 0.0
H554 H 0.73643 0.19412 0.72506 0.0
H555 H 0.68263 0.20609 0.69537 0.0
Dy556 Dy 0.80013 0.78275 0.83778 0.0
Dy557 Dy 0.83645 0.81673 0.76839 0.0
C558 C 0.82461 0.72955 0.74929 0.0
O559 O 0.85398 0.74478 0.84741 0.0
O560 O 0.87214 0.79282 0.82254 0.0
O561 O 0.79899 0.72973 0.87242 0.0
O562 O 0.76359 0.79606 0.88486 0.0
O563 O 0.81747 0.8719 0.8172 0.0
O564 O 0.81008 0.83569 0.87269 0.0
O565 O 0.78804 0.82708 0.73886 0.0
O566 O 0.7592 0.82786 0.79704 0.0
O567 O 0.8351 0.86535 0.72544 0.0
O568 O 0.87783 0.80359 0.72941 0.0
C569 C 0.87664 0.75926 0.84539 0.0
O570 O 0.80203 0.74277 0.77825 0.0
O571 O 0.84466 0.74846 0.74647 0.0
C572 C 0.7482 0.73908 0.899 0.0
C573 C 0.70022 0.70849 0.91284 0.0
C574 C 0.69814 0.73262 0.87679 0.0
C575 C 0.72196 0.74788 0.86993 0.0
C576 C 0.75052 0.71464 0.93458 0.0
C577 C 0.72688 0.69935 0.94139 0.0
C578 C 0.77343 0.75509 0.89362 0.0
C579 C 0.81252 0.86987 0.85776 0.0
C580 C 0.76035 0.83482 0.75671 0.0
C581 C 0.8858 0.86397 0.70718 0.0
C582 C 0.92718 0.9055 0.69502 0.0
C583 C 0.91603 0.90441 0.7357 0.0
C584 C 0.89544 0.88376 0.74175 0.0
C585 C 0.89692 0.86493 0.66672 0.0
C586 C 0.91747 0.88544 0.66067 0.0
C587 C 0.86452 0.84167 0.71219 0.0
H588 H 0.67797 0.73995 0.85411 0.0
H589 H 0.71987 0.76653 0.84212 0.0
H590 H 0.77076 0.70726 0.95718 0.0
H591 H 0.72974 0.67978 0.96874 0.0
H592 H 0.92359 0.91899 0.76286 0.0
H593 H 0.88718 0.88305 0.77327 0.0
H594 H 0.8897 0.84974 0.63972 0.0
H595 H 0.92556 0.88594 0.62901 0.0
C596 C 0.13801 0.16798 0.39723 0.0
C597 C 0.13955 0.14697 0.43526 0.0
C598 C 0.15566 0.19302 0.3926 0.0
C599 C 0.1756 0.1982 0.42583 0.0
H600 H 0.12264 0.16554 0.37091 0.0
H601 H 0.15326 0.20903 0.36291 0.0
S602 S 0.18983 0.14787 0.53109 0.0
N603 N 0.1638 0.13159 0.50621 0.0
N604 N 0.19694 0.17875 0.49761 0.0
C605 C 0.17761 0.17715 0.46399 0.0
C606 C 0.1596 0.15157 0.46869 0.0
C607 C 0.96045 0.15458 0.38924 0.0
C608 C 0.98681 0.13911 0.36151 0.0
C609 C 0.92956 0.18543 0.37684 0.0
C610 C 0.92337 0.20265 0.33607 0.0
H611 H 0.96353 0.14275 0.42113 0.0
H612 H 0.91042 0.19594 0.39982 0.0
S613 S 0.98392 0.17276 0.25078 0.0
N614 N 1.00467 0.143 0.29101 0.0
N615 N 0.94646 0.20132 0.26744 0.0
C616 C 0.94945 0.18737 0.30769 0.0
C617 C 0.98112 0.15553 0.32041 0.0
C618 C 0.02705 0.90558 0.42995 0.0
C619 C 0.01721 0.949 0.4183 0.0
C620 C 1.00661 0.88407 0.42225 0.0
C621 C 0.97537 0.90543 0.40322 0.0
H622 H 0.05098 0.88788 0.44438 0.0
H623 H 0.0152 0.85055 0.4316 0.0
S624 S 0.93766 1.01962 0.36803 0.0
N625 N 0.97388 1.01297 0.38775 0.0
N626 N 0.93551 0.97253 0.37317 0.0
C627 C 0.96508 0.94902 0.3919 0.0
C628 C 0.986 0.97078 0.39941 0.0
C629 C 0.18012 0.92989 0.31965 0.0
C630 C 0.17631 0.95867 0.35466 0.0
C631 C 0.21146 0.90041 0.30669 0.0
C632 C 0.23998 0.89892 0.32822 0.0
H633 H 0.15883 0.9289 0.30333 0.0
H634 H 0.21329 0.87788 0.28039 0.0
S635 S 0.2426 0.97276 0.41783 0.0
N636 N 0.20334 0.98713 0.40774 0.0
N637 N 0.2618 0.93273 0.38349 0.0
C638 C 0.2362 0.92939 0.36185 0.0
C639 C 0.20449 0.95899 0.37501 0.0
C640 C 0.16088 0.93469 0.77545 0.0
C641 C 0.15799 0.96138 0.7413 0.0
C642 C 0.19145 0.90189 0.78784 0.0
C643 C 0.22038 0.89467 0.76675 0.0
H644 H 0.13927 0.93804 0.79168 0.0
H645 H 0.19223 0.88157 0.81374 0.0
S646 S 0.22606 0.96013 0.67861 0.0
N647 N 0.18683 0.98112 0.68898 0.0
N648 N 0.24385 0.92034 0.71208 0.0
C649 C 0.21776 0.92268 0.7337 0.0
C650 C 0.18673 0.95575 0.72108 0.0
C651 C 0.16233 0.11557 0.69837 0.0
C652 C 0.13517 0.13604 0.67094 0.0
C653 C 0.18585 0.13213 0.70561 0.0
C654 C 0.18306 0.17002 0.68595 0.0
H655 H 0.16549 0.08638 0.71436 0.0
H656 H 0.20613 0.1155 0.72735 0.0
S657 S 0.11754 0.23486 0.60982 0.0
N658 N 0.10737 0.19565 0.62313 0.0
N659 N 0.15187 0.22653 0.6364 0.0
C660 C 0.1564 0.19043 0.65784 0.0
C661 C 0.13247 0.17341 0.65029 0.0
C662 C 0.94187 0.17036 0.7103 0.0
C663 C 0.96924 0.15301 0.73829 0.0
C664 C 0.91151 0.20165 0.72387 0.0
C665 C 0.907 0.21753 0.76607 0.0
H666 H 0.94376 0.15973 0.67727 0.0
H667 H 0.89153 0.21386 0.70079 0.0
S668 S 0.97026 0.18173 0.8529 0.0
N669 N 0.98938 0.1533 0.81077 0.0
N670 N 0.93254 0.21214 0.83647 0.0
C671 C 0.93403 0.2001 0.79471 0.0
C672 C 0.965 0.16788 0.78083 0.0
C673 C 0.99904 0.9244 0.65791 0.0
C674 C 0.99245 0.96667 0.67384 0.0
C675 C 0.97784 0.90486 0.66496 0.0
C676 C 0.94923 0.92694 0.68815 0.0
H677 H 0.02113 0.90595 0.6407 0.0
H678 H 0.98414 0.87195 0.65271 0.0
S679 S 0.91907 0.0401 0.73249 0.0
N680 N 0.95406 0.03126 0.71098 0.0
N681 N 0.9143 0.99452 0.72437 0.0
C682 C 0.94198 0.96962 0.70337 0.0
C683 C 0.96354 0.9895 0.69615 0.0
C684 C 0.28659 0.18021 0.22676 0.0
C685 C 0.29688 0.17566 0.18478 0.0
C686 C 0.29442 0.20641 0.25663 0.0
C687 C 0.31265 0.22913 0.24533 0.0
H688 H 0.27183 0.1641 0.23636 0.0
H689 H 0.28446 0.21083 0.28795 0.0
S690 S 0.34755 0.22531 0.14023 0.0
N691 N 0.32747 0.19436 0.13392 0.0
N692 N 0.34318 0.24234 0.19029 0.0
C693 C 0.3247 0.22274 0.20409 0.0
C694 C 0.3165 0.19641 0.17368 0.0
C695 C 0.96958 0.45795 0.1139 0.0
C696 C 1.00096 0.44404 0.13249 0.0
C697 C 0.94684 0.44407 0.12908 0.0
C698 C 0.95495 0.41533 0.16299 0.0
H699 H 0.96288 0.47906 0.08706 0.0
H700 H 0.92285 0.45552 0.11385 0.0
S701 S 0.0354 0.36617 0.21931 0.0
N702 N 0.03975 0.39831 0.1847 0.0
N703 N 0.99738 0.37165 0.21289 0.0
C704 C 0.98645 0.40102 0.18154 0.0
C705 C 0.00939 0.41542 0.1663 0.0
C706 C 0.82891 0.91895 0.1566 0.0
C707 C 0.85248 0.93422 0.16973 0.0
C708 C 0.81928 0.8952 0.18349 0.0
C709 C 0.83268 0.88593 0.22474 0.0
H710 H 0.81862 0.9241 0.12466 0.0
H711 H 0.80208 0.88254 0.17123 0.0
S712 S 0.89335 0.92169 0.2758 0.0
N713 N 0.88739 0.94116 0.22764 0.0
N714 N 0.86957 0.89584 0.27842 0.0
C715 C 0.85523 0.90268 0.2391 0.0
C716 C 0.86522 0.92676 0.21144 0.0
C717 C 0.17706 0.64835 0.10601 0.0
C718 C 0.15365 0.64752 0.13343 0.0
C719 C 0.20185 0.66045 0.12083 0.0
C720 C 0.20402 0.67256 0.16366 0.0
H721 H 0.17543 0.64103 0.07249 0.0
H722 H 0.21863 0.66208 0.09822 0.0
S723 S 0.1499 0.67378 0.24905 0.0
N724 N 0.13491 0.65861 0.20592 0.0
N725 N 0.18197 0.68045 0.23386 0.0
C726 C 0.18157 0.67032 0.19178 0.0
C727 C 0.15633 0.6579 0.1767 0.0
C728 C 0.29034 0.96872 0.91413 0.0
C729 C 0.27165 0.97235 0.9495 0.0
C730 C 0.29957 0.93239 0.88667 0.0
C731 C 0.29083 0.89806 0.89412 0.0
H732 H 0.29841 0.9939 0.90832 0.0
H733 H 0.31423 0.93088 0.85989 0.0
S734 S 0.24151 0.89284 0.9829 0.0
N735 N 0.24429 0.9398 0.99091 0.0
N736 N 0.26161 0.87068 0.93924 0.0
C737 C 0.27172 0.90162 0.92935 0.0
C738 C 0.26203 0.9391 0.95705 0.0
C739 C 0.18585 0.37735 0.88937 0.0
C740 C 0.18818 0.37715 0.93394 0.0
C741 C 0.21396 0.36055 0.86467 0.0
C742 C 0.24552 0.34349 0.88362 0.0
H743 H 0.16209 0.38968 0.87349 0.0
H744 H 0.21088 0.36082 0.83049 0.0
S745 S 0.26454 0.33789 0.99967 0.0
N746 N 0.22429 0.36027 0.99606 0.0
N747 N 0.27699 0.32865 0.9504 0.0
C748 C 0.248 0.34402 0.92838 0.0
C749 C 0.21941 0.3608 0.95331 0.0
C750 C 0.87307 0.1396 0.91188 0.0
C751 C 0.86262 0.14656 0.95383 0.0
C752 C 0.86182 0.17388 0.8836 0.0
C753 C 0.84025 0.21632 0.89665 0.0
H754 H 0.88883 0.10713 0.90042 0.0
H755 H 0.86993 0.16701 0.85122 0.0
S756 S 0.80767 0.25186 1.0041 0.0
N757 N 0.83077 0.1991 1.00759 0.0
N758 N 0.81026 0.26383 0.95473 0.0
C759 C 0.83081 0.22405 0.93898 0.0
C760 C 0.84181 0.18903 0.9675 0.0
C761 C 0.95478 0.7442 0.90667 0.0
C762 C 0.96409 0.7038 0.92569 0.0
C763 C 0.92709 0.76117 0.87974 0.0
C764 C 0.90729 0.73867 0.87123 0.0
H765 H 0.96897 0.76298 0.91294 0.0
H766 H 0.92073 0.79276 0.86645 0.0
S767 S 0.92154 0.631 0.91295 0.0
N768 N 0.95178 0.64134 0.93387 0.0
N769 N 0.8997 0.67295 0.88333 0.0
C770 C 0.91672 0.69775 0.88955 0.0
C771 C 0.94513 0.68035 0.91669 0.0
C772 C 0.19205 0.40656 0.15961 0.0
C773 C 0.18011 0.37511 0.14769 0.0
C774 C 0.2126 0.40189 0.19536 0.0
C775 C 0.22223 0.36561 0.22121 0.0
H776 H 0.18543 0.43545 0.14124 0.0
H777 H 0.22101 0.42713 0.20271 0.0
S778 S 0.19941 0.27247 0.20327 0.0
N779 N 0.18037 0.3055 0.16431 0.0
N780 N 0.21912 0.29656 0.23153 0.0
C781 C 0.21066 0.33365 0.20977 0.0
C782 C 0.18964 0.33841 0.17309 0.0
C783 C 0.12639 0.77382 0.04601 0.0
C784 C 0.09639 0.77793 1.02704 0.0
C785 C 0.15189 0.77334 1.02165 0.0
C786 C 0.14849 0.77699 0.97732 0.0
H787 H 0.13098 0.76844 0.07966 0.0
H788 H 0.17502 0.76779 0.03745 0.0
S789 S 0.0733 0.79553 0.91295 0.0
N790 N 0.06371 0.79062 0.96166 0.0
N791 N 0.11138 0.79022 0.91617 0.0
C792 C 0.11794 0.78403 0.95835 0.0
C793 C 0.092 0.78443 0.98309 0.0
C794 C 0.30183 0.14783 0.92576 0.0
C795 C 0.32213 0.13465 0.96231 0.0
C796 C 0.30725 0.17206 0.89453 0.0
C797 C 0.33312 0.18509 0.89824 0.0
H798 H 0.28088 0.1401 0.92155 0.0
H799 H 0.29018 0.18173 0.86777 0.0
S800 S 0.39444 0.15763 0.98731 0.0
N801 N 0.37009 0.13492 0.99979 0.0
N802 N 0.3803 0.18103 0.94147 0.0
C803 C 0.35442 0.1709 0.93409 0.0
C804 C 0.34897 0.14558 0.96591 0.0
C805 C 0.01657 0.32661 0.04765 0.0
C806 C 0.04556 0.32044 1.02747 0.0
C807 C 0.98858 0.32931 1.02419 0.0
C808 C 0.98838 0.32605 0.97962 0.0
H809 H 0.01477 0.33189 0.08169 0.0
H810 H 0.96643 0.33634 0.041 0.0
S811 S 0.05915 0.3029 0.91172 0.0
N812 N 0.07314 0.30615 0.96031 0.0
N813 N 0.02072 0.31112 0.91657 0.0
C814 C 0.01775 0.31698 0.95927 0.0
C815 C 0.04625 0.31415 0.98307 0.0
C816 C 0.83184 0.9624 0.90679 0.0
C817 C 0.82013 0.96818 0.94833 0.0
C818 C 0.82781 0.93234 0.87733 0.0
C819 C 0.81256 0.90555 0.88822 0.0
H820 H 0.84531 0.98039 0.89729 0.0
H821 H 0.83819 0.92868 0.84636 0.0
S822 S 0.77619 0.90898 0.99249 0.0
N823 N 0.79121 0.94588 0.9982 0.0
N824 N 0.7841 0.88879 0.94355 0.0
C825 C 0.79974 0.91201 0.92934 0.0
C826 C 0.80335 0.9434 0.95912 0.0
C827 C 0.95017 0.69533 0.14452 0.0
C828 C 0.96547 0.72339 0.13859 0.0
C829 C 0.92701 0.70399 0.17582 0.0
C830 C 0.91814 0.74097 0.20302 0.0
H831 H 0.95604 0.66614 0.12475 0.0
H832 H 0.91604 0.68129 0.1787 0.0
S833 S 0.94983 0.82604 0.20021 0.0
N834 N 0.96934 0.79052 0.16225 0.0
N835 N 0.92589 0.80684 0.22124 0.0
C836 C 0.9331 0.76954 0.19754 0.0
C837 C 0.95666 0.7608 0.16533 0.0
C838 C 0.34022 0.95972 0.18095 0.0
C839 C 0.3312 0.95533 0.13846 0.0
C840 C 0.34326 0.92841 0.21081 0.0
C841 C 0.3374 0.89138 0.19939 0.0
H842 H 0.34294 0.98891 0.1918 0.0
H843 H 0.3492 0.93408 0.24344 0.0
S844 S 0.31428 0.86437 0.09119 0.0
N845 N 0.31726 0.91092 0.08606 0.0
N846 N 0.32357 0.85169 0.14139 0.0
C847 C 0.32985 0.88577 0.15637 0.0
C848 C 0.32649 0.91788 0.12621 0.0
C849 C 0.80438 0.15055 0.17815 0.0
C850 C 0.81961 0.14828 0.13961 0.0
C851 C 0.80256 0.18211 0.21023 0.0
C852 C 0.8155 0.21297 0.20475 0.0
H853 H 0.7957 0.12613 0.18466 0.0
H854 H 0.79177 0.18151 0.24 0.0
S855 S 0.85772 0.2206 0.1093 0.0
N856 N 0.84793 0.17938 0.09808 0.0
N857 N 0.84343 0.23923 0.15681 0.0
C858 C 0.82951 0.21196 0.16554 0.0
C859 C 0.83189 0.17948 0.13349 0.0
C860 C 0.6456 0.64881 0.89393 0.0
C861 C 0.63278 0.65053 0.93418 0.0
C862 C 0.66657 0.66873 0.88699 0.0
C863 C 0.67555 0.69119 0.92001 0.0
H864 H 0.6404 0.6305 0.86794 0.0
H865 H 0.67675 0.66517 0.85589 0.0
S866 S 0.64547 0.70968 1.02986 0.0
N867 N 0.62843 0.67943 1.00649 0.0
N868 N 0.66761 0.71727 0.99352 0.0
C869 C 0.66184 0.69464 0.95997 0.0
C870 C 0.64057 0.67421 0.96703 0.0
C871 C 0.44376 0.62078 0.83446 0.0
C872 C 0.47151 0.62989 0.83887 0.0
C873 C 0.41187 0.65432 0.83266 0.0
C874 C 0.40619 0.69865 0.83476 0.0
H875 H 0.44657 0.58734 0.83312 0.0
H876 H 0.39154 0.64528 0.82915 0.0
S877 S 0.47063 0.74022 0.84466 0.0
N878 N 0.49112 0.6867 0.84439 0.0
N879 N 0.4317 0.74953 0.84062 0.0
C880 C 0.43385 0.70819 0.83871 0.0
C881 C 0.46627 0.67398 0.84088 0.0
C882 C 0.50286 0.43632 0.96978 0.0
C883 C 0.50421 0.46338 0.93813 0.0
C884 C 0.48252 0.41438 0.96495 0.0
C885 C 0.46293 0.4184 0.92808 0.0
H886 H 0.518 0.43168 0.99829 0.0
H887 H 0.4828 0.39321 0.98981 0.0
S888 S 0.45659 0.48614 0.8362 0.0
N889 N 0.4838 0.49307 0.86859 0.0
N890 N 0.44489 0.45307 0.86031 0.0
C891 C 0.46342 0.44613 0.89663 0.0
C892 C 0.48416 0.46839 0.90147 0.0
C893 C 0.66359 0.4393 0.8469 0.0
C894 C 0.65763 0.4818 0.83501 0.0
C895 C 0.69504 0.40474 0.845 0.0
C896 C 0.72197 0.41133 0.83184 0.0
H897 H 0.644 0.43278 0.85874 0.0
H898 H 0.69839 0.37283 0.8548 0.0
S899 S 0.71914 0.51453 0.79208 0.0
N900 N 0.68129 0.52699 0.80565 0.0
N901 N 0.73996 0.46261 0.80286 0.0
C902 C 0.71618 0.45316 0.81845 0.0
C903 C 0.68419 0.48815 0.81982 0.0
C904 C 0.67299 0.4195 0.27898 0.0
C905 C 0.66948 0.44631 0.24469 0.0
C906 C 0.70411 0.38911 0.29248 0.0
C907 C 0.73257 0.38555 0.27277 0.0
H908 H 0.65159 0.42096 0.29441 0.0
H909 H 0.7059 0.36837 0.31849 0.0
S910 S 0.73601 0.44992 0.18252 0.0
N911 N 0.69674 0.46801 0.19189 0.0
N912 N 0.75492 0.41223 0.21771 0.0
C913 C 0.72917 0.41319 0.2392 0.0
C914 C 0.69768 0.44324 0.22505 0.0
C915 C 0.648 0.65513 0.14138 0.0
C916 C 0.65343 0.6179 0.16432 0.0
C917 C 0.6695 0.6754 0.14554 0.0
C918 C 0.6975 0.65874 0.17223 0.0
H919 H 0.62664 0.66917 0.12067 0.0
H920 H 0.66436 0.7041 0.12746 0.0
S921 S 0.72321 0.56165 0.23865 0.0
N922 N 0.68925 0.56484 0.21419 0.0
N923 N 0.72944 0.60306 0.22213 0.0
C924 C 0.70335 0.6214 0.19511 0.0
C925 C 0.68137 0.60097 0.19115 0.0
C926 C 0.46471 0.66685 0.20892 0.0
C927 C 0.49239 0.65194 0.2363 0.0
C928 C 0.43507 0.69977 0.22165 0.0
C929 C 0.43177 0.71983 0.26212 0.0
H930 H 0.4656 0.6524 0.17742 0.0
H931 H 0.41442 0.70942 0.19947 0.0
S932 S 0.4969 0.69443 0.34563 0.0
N933 N 0.51485 0.6606 0.30571 0.0
N934 N 0.45879 0.72341 0.32951 0.0
C935 C 0.45933 0.70626 0.28968 0.0
C936 C 0.48968 0.67199 0.27687 0.0
C937 C 0.47352 0.488 0.21109 0.0
C938 C 0.49983 0.46329 0.18483 0.0
C939 C 0.44927 0.47384 0.21916 0.0
C940 C 0.45034 0.43446 0.20119 0.0
H941 H 0.47132 0.51897 0.22489 0.0
H942 H 0.42914 0.49434 0.23885 0.0
S943 S 0.51567 0.35549 0.13382 0.0
N944 N 0.52664 0.39591 0.14349 0.0
N945 N 0.48098 0.36952 0.15833 0.0
C946 C 0.47687 0.40895 0.17568 0.0
C947 C 0.50159 0.42331 0.16754 0.0
C948 C 0.84747 0.6528 0.65023 0.0
C949 C 0.82431 0.63505 0.64914 0.0
C950 C 0.84826 0.682 0.68342 0.0
C951 C 0.82598 0.69457 0.71697 0.0
H952 H 0.86387 0.64603 0.62416 0.0
H953 H 0.86576 0.69601 0.68186 0.0
S954 S 0.76271 0.65313 0.73055 0.0
N955 N 0.78021 0.6295 0.68582 0.0
N956 N 0.78177 0.68326 0.74787 0.0
C957 C 0.8039 0.67494 0.71707 0.0
C958 C 0.80304 0.64561 0.68331 0.0
C959 C 0.54742 0.73984 0.63775 0.0
C960 C 0.56146 0.76991 0.64344 0.0
C961 C 0.51603 0.74953 0.65259 0.0
C962 C 0.49765 0.78959 0.67366 0.0
H963 H 0.56025 0.70944 0.62028 0.0
H964 H 0.50563 0.72617 0.64629 0.0
S965 S 0.52566 0.87609 0.70258 0.0
N966 N 0.55609 0.83899 0.67594 0.0
N967 N 0.49744 0.85718 0.7035 0.0
C968 C 0.51221 0.81879 0.68139 0.0
C969 C 0.54399 0.80896 0.6664 0.0
C970 C 0.36128 0.4206 0.70863 0.0
C971 C 0.34559 0.42807 0.66829 0.0
C972 C 0.35508 0.39549 0.73858 0.0
C973 C 0.33331 0.37598 0.72936 0.0
H974 H 0.37857 0.43432 0.71715 0.0
H975 H 0.3683 0.39024 0.76875 0.0
S976 S 0.28576 0.3856 0.62825 0.0
N977 N 0.30698 0.4142 0.62103 0.0
N978 N 0.29557 0.36683 0.67661 0.0
C979 C 0.31721 0.38361 0.68921 0.0
C980 C 0.32322 0.40968 0.65897 0.0
C981 C 0.58872 0.26317 0.66687 0.0
C982 C 0.57872 0.27422 0.62461 0.0
C983 C 0.61685 0.26573 0.68467 0.0
C984 C 0.63648 0.27904 0.66086 0.0
H985 H 0.57561 0.25016 0.68577 0.0
H986 H 0.62416 0.25518 0.71683 0.0
S987 S 0.61984 0.31459 0.54958 0.0
N988 N 0.58933 0.30218 0.56026 0.0
N989 N 0.64271 0.30618 0.59343 0.0
C990 C 0.62565 0.29295 0.61938 0.0
C991 C 0.59665 0.29073 0.60132 0.0
C992 C 0.82618 0.40964 0.47436 0.0
C993 C 0.83845 0.44087 0.46838 0.0
C994 C 0.82815 0.37795 0.44287 0.0
C995 C 0.84213 0.37616 0.40336 0.0
H996 H 0.81324 0.4112 0.50292 0.0
H997 H 0.81726 0.35581 0.44907 0.0
S998 S 0.87923 0.44967 0.37227 0.0
N999 N 0.86632 0.46714 0.42066 0.0
N1000 N 0.87022 0.40768 0.36125 0.0
C1001 C 0.8561 0.40589 0.39775 0.0
C1002 C 0.85416 0.43821 0.4302 0.0
C1003 C 0.74108 0.80728 0.4392 0.0
C1004 C 0.72518 0.77972 0.43059 0.0
C1005 C 0.76024 0.81381 0.40867 0.0
C1006 C 0.76351 0.79404 0.36788 0.0
H1007 H 0.7397 0.8226 0.47034 0.0
H1008 H 0.77312 0.83385 0.41735 0.0
S1009 S 0.72562 0.72037 0.32865 0.0
N1010 N 0.71319 0.73356 0.37779 0.0
N1011 N 0.74864 0.74625 0.3204 0.0
C1012 C 0.74683 0.76753 0.35842 0.0
C1013 C 0.72787 0.76022 0.38976 0.0
C1014 C 0.3748 0.66721 0.44274 0.0
C1015 C 0.35308 0.64715 0.44339 0.0
C1016 C 0.36996 0.70063 0.41452 0.0
C1017 C 0.34334 0.71537 0.38516 0.0
H1018 H 0.39562 0.65722 0.46457 0.0
H1019 H 0.38755 0.7147 0.41557 0.0
S1020 S 0.28 0.67212 0.37267 0.0
N1021 N 0.30436 0.64369 0.4113 0.0
N1022 N 0.29516 0.70608 0.35846 0.0
C1023 C 0.32149 0.69532 0.38541 0.0
C1024 C 0.32634 0.66147 0.4144 0.0
C1025 C 0.40402 0.26864 0.46626 0.0
C1026 C 0.43078 0.27914 0.46228 0.0
C1027 C 0.37748 0.28303 0.43727 0.0
C1028 C 0.3769 0.3076 0.40227 0.0
H1029 H 0.40371 0.24862 0.4919 0.0
H1030 H 0.35767 0.27364 0.44167 0.0
S1031 S 0.44043 0.34517 0.37795 0.0
N1032 N 0.45453 0.31717 0.42149 0.0
N1033 N 0.40503 0.34328 0.36612 0.0
C1034 C 0.40328 0.31898 0.39816 0.0
C1035 C 0.43006 0.30509 0.4284 0.0
C1036 C 0.70706 0.85412 0.65654 0.0
C1037 C 0.67843 0.85232 0.67025 0.0
C1038 C 0.73249 0.8511 0.68514 0.0
C1039 C 0.73057 0.84602 0.72882 0.0
H1040 H 0.71056 0.85602 0.62313 0.0
H1041 H 0.75443 0.85089 0.67238 0.0
S1042 S 0.6591 0.8451 0.78203 0.0
N1043 N 0.64829 0.84956 0.73129 0.0
N1044 N 0.69609 0.84373 0.7849 0.0
C1045 C 0.70116 0.84717 0.74341 0.0
C1046 C 0.67514 0.85036 0.71421 0.0
C1047 C 0.65053 0.16028 0.44588 0.0
C1048 C 0.62002 0.19643 0.44691 0.0
C1049 C 0.67848 0.16437 0.43301 0.0
C1050 C 0.67678 0.20462 0.42015 0.0
H1051 H 0.65302 0.12911 0.45674 0.0
H1052 H 0.7017 0.13602 0.43379 0.0
S1053 S 0.60217 0.30842 0.41451 0.0
N1054 N 0.58938 0.27303 0.43154 0.0
N1055 N 0.64182 0.28093 0.40811 0.0
C1056 C 0.64617 0.24058 0.41963 0.0
C1057 C 0.61783 0.23644 0.43285 0.0
C1058 C 0.83754 0.66136 0.42882 0.0
C1059 C 0.81834 0.63879 0.41696 0.0
C1060 C 0.85042 0.678 0.39832 0.0
C1061 C 0.84455 0.67253 0.35486 0.0
H1062 H 0.8414 0.66784 0.46199 0.0
H1063 H 0.86306 0.69781 0.40903 0.0
S1064 S 0.80066 0.6091 0.30744 0.0
N1065 N 0.79771 0.6068 0.35907 0.0
N1066 N 0.82172 0.63818 0.30149 0.0
C1067 C 0.8274 0.64719 0.34264 0.0
C1068 C 0.81419 0.63047 0.37373 0.0
C1069 C 0.53992 0.8775 0.47193 0.0
C1070 C 0.55876 0.83914 0.49343 0.0
C1071 C 0.50809 0.88583 0.4569 0.0
C1072 C 0.49437 0.8561 0.46326 0.0
H1073 H 0.55035 0.89995 0.46491 0.0
H1074 H 0.49471 0.91464 0.43866 0.0
S1075 S 0.53204 0.75483 0.52399 0.0
N1076 N 0.56029 0.77375 0.52429 0.0
N1077 N 0.50051 0.79002 0.4972 0.0
C1078 C 0.51229 0.8193 0.48726 0.0
C1079 C 0.54452 0.81067 0.50207 0.0
C1080 C 0.29313 0.51186 0.40956 0.0
C1081 C 0.28747 0.50789 0.45211 0.0
C1082 C 0.28589 0.4872 0.37761 0.0
C1083 C 0.27309 0.45748 0.38736 0.0
H1084 H 0.30587 0.53127 0.40134 0.0
H1085 H 0.29317 0.48848 0.34565 0.0
S1086 S 0.24887 0.44089 0.49348 0.0
N1087 N 0.26421 0.47719 0.50204 0.0
N1088 N 0.25063 0.43019 0.44186 0.0
C1089 C 0.26371 0.45712 0.42921 0.0
C1090 C 0.27101 0.48254 0.4618 0.0
C1091 C 0.453 0.24109 0.6964 0.0
C1092 C 0.45767 0.2066 0.66707 0.0
C1093 C 0.4315 0.25025 0.72991 0.0
C1094 C 0.41341 0.22561 0.73526 0.0
H1095 H 0.46594 0.26139 0.69323 0.0
H1096 H 0.42831 0.27791 0.7509 0.0
S1097 S 0.41741 0.13102 0.66722 0.0
N1098 N 0.44305 0.14708 0.6458 0.0
N1099 N 0.40257 0.16413 0.70865 0.0
C1100 C 0.41846 0.19031 0.7066 0.0
C1101 C 0.4406 0.18082 0.67261 0.0
C1102 C 0.80759 0.46136 0.68529 0.0
C1103 C 0.77892 0.47644 0.65979 0.0
C1104 C 0.81456 0.42782 0.71344 0.0
C1105 C 0.7931 0.40794 0.71729 0.0
H1106 H 0.8251 0.47526 0.68302 0.0
H1107 H 0.83727 0.41705 0.73177 0.0
S1108 S 0.71315 0.43832 0.66009 0.0
N1109 N 0.72801 0.47093 0.64158 0.0
N1110 N 0.74053 0.40817 0.69523 0.0
C1111 C 0.76354 0.424 0.6932 0.0
C1112 C 0.75653 0.4583 0.66439 0.0
C1113 C 0.29713 0.65744 0.67215 0.0
C1114 C 0.32028 0.6476 0.64062 0.0
C1115 C 0.29377 0.68966 0.70344 0.0
C1116 C 0.31335 0.71294 0.70373 0.0
H1117 H 0.28289 0.63862 0.67398 0.0
H1118 H 0.27672 0.69497 0.72845 0.0
S1119 S 0.37312 0.70412 0.62264 0.0
N1120 N 0.35997 0.66672 0.60793 0.0
N1121 N 0.35342 0.72775 0.66609 0.0
C1122 C 0.33482 0.70537 0.67028 0.0
C1123 C 0.33835 0.67249 0.63883 0.0
loop_
_geom_bond_atom_site_label_1
_geom_bond_atom_site_label_2
_geom_bond_distance
_geom_bond_site_symmetry_2
_ccdc_geom_bond_type
Cu0 N1 1.999 . S
Cu0 O6 1.974 1_545 S
Cu0 N11 1.985 1_545 S
Cu0 O20 1.959 . S
N1 Cu0 1.999 . S
N1 C3 1.263 . S
N1 C5 1.389 . S
N2 C3 1.358 . S
N2 C4 1.400 . S
C3 N1 1.263 . S
C3 N2 1.358 . S
C3 H9 0.930 . S
C4 N2 1.400 . S
C4 C5 1.351 . S
C4 H21 0.930 . S
C5 N1 1.389 . S
C5 C4 1.351 . S
C5 H10 0.930 . S
O6 Cu0 1.974 1_565 S
O6 C16 1.282 . S
C7 O8 1.261 . S
C7 O20 1.251 . S
O8 C7 1.261 . S
H9 C3 0.930 . S
H10 C5 0.930 . S
N11 Cu0 1.985 1_565 S
N11 C13 1.342 1_565 S
N11 C14 1.390 . S
N12 C13 1.324 1_565 S
N12 C15 1.336 . S
C13 N11 1.342 1_545 S
C13 N12 1.324 1_545 S
C13 H18 0.942 . S
C14 N11 1.390 . S
C14 C15 1.346 . S
C14 H19 0.930 . S
C15 N12 1.336 . S
C15 C14 1.346 . S
C15 H22 0.929 . S
C16 O6 1.282 . S
C16 O17 1.216 . S
O17 C16 1.216 . S
H18 C13 0.942 . S
H19 C14 0.930 . S
O20 Cu0 1.959 . S
O20 C7 1.251 . S
H21 C4 0.930 . S
H22 C15 0.929 . S
Cu23 N24 1.999 1_545 S
Cu23 O29 1.974 . S
Cu23 N34 1.985 . S
Cu23 O43 1.959 1_545 S
N24 Cu23 1.999 1_565 S
N24 C26 1.263 . S
N24 C28 1.389 . S
N25 C26 1.358 . S
N25 C27 1.400 . S
C26 N24 1.263 . S
C26 N25 1.358 . S
C26 H32 0.930 . S
C27 N25 1.400 . S
C27 C28 1.351 . S
C27 H44 0.930 . S
C28 N24 1.389 . S
C28 C27 1.351 . S
C28 H33 0.930 . S
O29 Cu23 1.974 . S
O29 C39 1.282 . S
C30 O31 1.261 . S
C30 O43 1.251 . S
O31 C30 1.261 . S
H32 C26 0.930 . S
H33 C28 0.930 . S
N34 Cu23 1.985 . S
N34 C36 1.335 . S
N34 C37 1.390 . S
N35 C36 1.345 . S
N35 C38 1.336 . S
C36 N34 1.335 . S
C36 N35 1.345 . S
C36 H41 0.930 . S
C37 N34 1.390 . S
C37 C38 1.346 . S
C37 H42 0.930 . S
C38 N35 1.336 . S
C38 C37 1.346 . S
C38 H45 0.929 . S
C39 O29 1.282 . S
C39 O40 1.216 . S
O40 C39 1.216 . S
H41 C36 0.930 . S
H42 C37 0.930 . S
O43 Cu23 1.959 1_565 S
O43 C30 1.251 . S
H44 C27 0.930 . S
H45 C38 0.929 . S
Cu46 N47 1.999 1_544 S
Cu46 O52 1.974 1_545 S
Cu46 N57 1.985 . S
Cu46 O66 1.959 1_554 S
N47 Cu46 1.999 1_566 S
N47 C49 1.263 . S
N47 C51 1.389 . S
N48 C49 1.358 . S
N48 C50 1.400 . S
C49 N47 1.263 . S
C49 N48 1.358 . S
C49 H55 0.930 . S
C50 N48 1.400 . S
C50 C51 1.351 . S
C50 H67 0.930 . S
C51 N47 1.389 . S
C51 C50 1.351 . S
C51 H56 0.930 1_565 S
O52 Cu46 1.974 1_565 S
O52 C62 1.282 . S
C53 O54 1.261 . S
C53 O66 1.251 . S
O54 C53 1.261 . S
H55 C49 0.930 . S
H56 C51 0.930 1_545 S
N57 Cu46 1.985 . S
N57 C59 1.335 . S
N57 C60 1.390 . S
N58 C59 1.345 . S
N58 C61 1.336 . S
C59 N57 1.335 . S
C59 N58 1.345 . S
C59 H64 0.930 . S
C60 N57 1.390 . S
C60 C61 1.346 . S
C60 H65 0.930 . S
C61 N58 1.336 . S
C61 C60 1.346 . S
C61 H68 0.929 . S
C62 O52 1.282 . S
C62 O63 1.216 1_565 S
O63 C62 1.216 1_545 S
H64 C59 0.930 . S
H65 C60 0.930 . S
O66 Cu46 1.959 1_556 S
O66 C53 1.251 . S
H67 C50 0.930 . S
H68 C61 0.929 . S
Cu69 N70 1.999 1_554 S
Cu69 O75 1.974 . S
Cu69 N80 1.985 . S
Cu69 O89 1.959 1_554 S
N70 Cu69 1.999 1_556 S
N70 C72 1.263 . S
N70 C74 1.389 . S
N71 C72 1.358 . S
N71 C73 1.400 . S
C72 N70 1.263 . S
C72 N71 1.358 . S
C72 H78 0.930 1_556 S
C73 N71 1.400 . S
C73 C74 1.351 . S
C73 H90 0.930 . S
C74 N70 1.389 . S
C74 C73 1.351 . S
C74 H79 0.930 . S
O75 Cu69 1.974 . S
O75 C85 1.282 . S
C76 O77 1.261 . S
C76 O89 1.251 . S
O77 C76 1.261 . S
H78 C72 0.930 1_554 S
H79 C74 0.930 . S
N80 Cu69 1.985 . S
N80 C82 1.335 . S
N80 C83 1.390 . S
N81 C82 1.345 . S
N81 C84 1.336 . S
C82 N80 1.335 . S
C82 N81 1.345 . S
C82 H87 0.930 . S
C83 N80 1.390 . S
C83 C84 1.346 . S
C83 H88 0.930 . S
C84 N81 1.336 . S
C84 C83 1.346 . S
C84 H91 0.929 . S
C85 O75 1.282 . S
C85 O86 1.216 . S
O86 C85 1.216 . S
H87 C82 0.930 . S
H88 C83 0.930 . S
O89 Cu69 1.959 1_556 S
O89 C76 1.251 . S
H90 C73 0.930 . S
H91 C84 0.929 . S
Cu92 N93 1.999 1_554 S
Cu92 O98 1.974 . S
Cu92 N103 1.985 1_545 S
Cu92 O112 1.959 1_544 S
N93 Cu92 1.999 1_556 S
N93 C95 1.263 . S
N93 C97 1.389 . S
N94 C95 1.358 . S
N94 C96 1.400 . S
C95 N93 1.263 . S
C95 N94 1.358 . S
C95 H101 0.930 . S
C96 N94 1.400 . S
C96 C97 1.351 . S
C96 H113 0.930 . S
C97 N93 1.389 . S
C97 C96 1.351 . S
C97 H102 0.930 . S
O98 Cu92 1.974 . S
O98 C108 1.282 . S
C99 O100 1.261 . S
C99 O112 1.251 . S
O100 C99 1.261 . S
H101 C95 0.930 . S
H102 C97 0.930 . S
N103 Cu92 1.985 1_565 S
N103 C105 1.335 . S
N103 C106 1.390 . S
N104 C105 1.345 . S
N104 C107 1.336 . S
C105 N103 1.335 . S
C105 N104 1.345 . S
C105 H110 0.930 . S
C106 N103 1.390 . S
C106 C107 1.346 . S
C106 H111 0.930 . S
C107 N104 1.336 . S
C107 C106 1.346 . S
C107 H114 0.929 . S
C108 O98 1.282 . S
C108 O109 1.216 . S
O109 C108 1.216 . S
H110 C105 0.930 . S
H111 C106 0.930 . S
O112 Cu92 1.959 1_566 S
O112 C99 1.251 . S
H113 C96 0.930 . S
H114 C107 0.929 . S
Cu115 N116 1.991 1_454 S
Cu115 O121 1.981 1_455 S
Cu115 N126 1.993 . S
Cu115 O135 1.952 1_554 S
N116 Cu115 1.991 1_656 S
N116 C118 1.263 . S
N116 C120 1.389 1_655 S
N117 C118 1.358 . S
N117 C119 1.400 . S
C118 N116 1.263 . S
C118 N117 1.358 . S
C118 H124 0.930 . S
C119 N117 1.400 . S
C119 C120 1.351 1_655 S
C119 H136 0.930 . S
C120 N116 1.389 1_455 S
C120 C119 1.351 1_455 S
C120 H125 0.930 . S
O121 Cu115 1.981 1_655 S
O121 C131 1.282 . S
C122 O123 1.261 . S
C122 O135 1.251 . S
O123 C122 1.261 . S
H124 C118 0.930 . S
H125 C120 0.930 . S
N126 Cu115 1.993 . S
N126 C128 1.335 . S
N126 C129 1.390 . S
N127 C128 1.345 . S
N127 C130 1.336 . S
C128 N126 1.335 . S
C128 N127 1.345 . S
C128 H133 0.930 . S
C129 N126 1.390 . S
C129 C130 1.346 . S
C129 H134 0.930 . S
C130 N127 1.336 . S
C130 C129 1.346 . S
C130 H137 0.929 . S
C131 O121 1.282 . S
C131 O132 1.216 . S
O132 C131 1.216 . S
H133 C128 0.930 . S
H134 C129 0.930 . S
O135 Cu115 1.952 1_556 S
O135 C122 1.251 . S
H136 C119 0.930 . S
H137 C130 0.929 . S
Cu138 N139 1.999 . S
Cu138 O144 1.974 . S
Cu138 N149 1.985 . S
Cu138 O158 1.959 . S
N139 Cu138 1.999 . S
N139 C141 1.263 . S
N139 C143 1.389 . S
N140 C141 1.358 . S
N140 C142 1.400 . S
C141 N139 1.263 . S
C141 N140 1.358 . S
C141 H147 0.930 . S
C142 N140 1.400 . S
C142 C143 1.351 . S
C142 H159 0.930 . S
C143 N139 1.389 . S
C143 C142 1.351 . S
C143 H148 0.930 . S
O144 Cu138 1.974 . S
O144 C154 1.282 . S
C145 O146 1.261 . S
C145 O158 1.251 . S
O146 C145 1.261 . S
H147 C141 0.930 . S
H148 C143 0.930 . S
N149 Cu138 1.985 . S
N149 C151 1.335 . S
N149 C152 1.390 . S
N150 C151 1.345 . S
N150 C153 1.336 . S
C151 N149 1.335 . S
C151 N150 1.345 . S
C151 H156 0.930 . S
C152 N149 1.390 . S
C152 C153 1.346 . S
C152 H157 0.930 . S
C153 N150 1.336 . S
C153 C152 1.346 . S
C153 H160 0.929 . S
C154 O144 1.282 . S
C154 O155 1.216 . S
O155 C154 1.216 . S
H156 C151 0.930 . S
H157 C152 0.930 . S
O158 Cu138 1.959 . S
O158 C145 1.251 . S
H159 C142 0.930 . S
H160 C153 0.929 . S
Cu161 N162 1.999 . S
Cu161 O167 1.974 . S
Cu161 N172 1.985 . S
Cu161 O181 1.959 . S
N162 Cu161 1.999 . S
N162 C164 1.263 . S
N162 C166 1.389 . S
N163 C164 1.358 . S
N163 C165 1.400 . S
C164 N162 1.263 . S
C164 N163 1.358 . S
C164 H170 0.930 . S
C165 N163 1.400 . S
C165 C166 1.351 . S
C165 H182 0.930 . S
C166 N162 1.389 . S
C166 C165 1.351 . S
C166 H171 0.930 . S
O167 Cu161 1.974 . S
O167 C177 1.282 . S
C168 O169 1.261 . S
C168 O181 1.251 . S
O169 C168 1.261 . S
H170 C164 0.930 . S
H171 C166 0.930 . S
N172 Cu161 1.985 . S
N172 C174 1.335 . S
N172 C175 1.390 . S
N173 C174 1.345 . S
N173 C176 1.336 . S
C174 N172 1.335 . S
C174 N173 1.345 . S
C174 H179 0.930 . S
C175 N172 1.390 . S
C175 C176 1.346 . S
C175 H180 0.930 . S
C176 N173 1.336 . S
C176 C175 1.346 . S
C176 H183 0.929 . S
C177 O167 1.282 . S
C177 O178 1.216 . S
O178 C177 1.216 . S
H179 C174 0.930 . S
H180 C175 0.930 . S
O181 Cu161 1.959 . S
O181 C168 1.251 . S
H182 C165 0.930 . S
H183 C176 0.929 . S
Cu184 N185 1.999 . S
Cu184 O190 1.974 . S
Cu184 N195 1.985 . S
Cu184 O204 1.959 . S
N185 Cu184 1.999 . S
N185 C187 1.263 . S
N185 C189 1.389 . S
N186 C187 1.358 . S
N186 C188 1.400 . S
C187 N185 1.263 . S
C187 N186 1.358 . S
C187 H193 0.930 . S
C188 N186 1.400 . S
C188 C189 1.351 . S
C188 H205 0.930 . S
C189 N185 1.389 . S
C189 C188 1.351 . S
C189 H194 0.930 . S
O190 Cu184 1.974 . S
O190 C200 1.282 . S
C191 O192 1.261 . S
C191 O204 1.251 . S
O192 C191 1.261 . S
H193 C187 0.930 . S
H194 C189 0.930 . S
N195 Cu184 1.985 . S
N195 C197 1.335 . S
N195 C198 1.390 . S
N196 C197 1.345 . S
N196 C199 1.336 . S
C197 N195 1.335 . S
C197 N196 1.345 . S
C197 H202 0.930 . S
C198 N195 1.390 . S
C198 C199 1.346 . S
C198 H203 0.930 . S
C199 N196 1.336 . S
C199 C198 1.346 . S
C199 H206 0.929 . S
C200 O190 1.282 . S
C200 O201 1.216 . S
O201 C200 1.216 . S
H202 C197 0.930 . S
H203 C198 0.930 . S
O204 Cu184 1.959 . S
O204 C191 1.251 . S
H205 C188 0.930 . S
H206 C199 0.929 . S
Cu207 N208 1.999 . S
Cu207 O213 1.974 . S
Cu207 N218 1.985 . S
Cu207 O227 1.959 . S
N208 Cu207 1.999 . S
N208 C210 1.263 . S
N208 C212 1.389 . S
N209 C210 1.358 . S
N209 C211 1.400 . S
C210 N208 1.263 . S
C210 N209 1.358 . S
C210 H216 0.930 . S
C211 N209 1.400 . S
C211 C212 1.351 . S
C211 H228 0.930 . S
C212 N208 1.389 . S
C212 C211 1.351 . S
C212 H217 0.930 . S
O213 Cu207 1.974 . S
O213 C223 1.282 . S
C214 O215 1.261 . S
C214 O227 1.251 . S
O215 C214 1.261 . S
H216 C210 0.930 . S
H217 C212 0.930 . S
N218 Cu207 1.985 . S
N218 C220 1.335 . S
N218 C221 1.390 . S
N219 C220 1.345 . S
N219 C222 1.336 . S
C220 N218 1.335 . S
C220 N219 1.345 . S
C220 H225 0.930 . S
C221 N218 1.390 . S
C221 C222 1.346 . S
C221 H226 0.930 . S
C222 N219 1.336 . S
C222 C221 1.346 . S
C222 H229 0.929 . S
C223 O213 1.282 . S
C223 O224 1.216 . S
O224 C223 1.216 . S
H225 C220 0.930 . S
H226 C221 0.930 . S
O227 Cu207 1.959 . S
O227 C214 1.251 . S
H228 C211 0.930 . S
H229 C222 0.929 . S
Cu230 N231 1.999 . S
Cu230 O236 1.974 . S
Cu230 N241 1.985 . S
Cu230 O250 1.959 . S
N231 Cu230 1.999 . S
N231 C233 1.263 . S
N231 C235 1.389 . S
N232 C233 1.358 . S
N232 C234 1.400 . S
C233 N231 1.263 . S
C233 N232 1.358 . S
C233 H239 0.930 . S
C234 N232 1.400 . S
C234 C235 1.351 . S
C234 H251 0.930 . S
C235 N231 1.389 . S
C235 C234 1.351 . S
C235 H240 0.930 . S
O236 Cu230 1.974 . S
O236 C246 1.282 . S
C237 O238 1.261 . S
C237 O250 1.251 . S
O238 C237 1.261 . S
H239 C233 0.930 . S
H240 C235 0.930 . S
N241 Cu230 1.985 . S
N241 C243 1.335 . S
N241 C244 1.390 . S
N242 C243 1.345 . S
N242 C245 1.336 . S
C243 N241 1.335 . S
C243 N242 1.345 . S
C243 H248 0.930 . S
C244 N241 1.390 . S
C244 C245 1.346 . S
C244 H249 0.930 . S
C245 N242 1.336 . S
C245 C244 1.346 . S
C245 H252 0.929 . S
C246 O236 1.282 . S
C246 O247 1.216 . S
O247 C246 1.216 . S
H248 C243 0.930 . S
H249 C244 0.930 . S
O250 Cu230 1.959 . S
O250 C237 1.251 . S
H251 C234 0.930 . S
H252 C245 0.929 . S
Cu253 N254 1.999 . S
Cu253 O259 1.974 . S
Cu253 N264 1.985 . S
Cu253 O273 1.959 . S
N254 Cu253 1.999 . S
N254 C256 1.263 . S
N254 C258 1.389 . S
N255 C256 1.358 . S
N255 C257 1.400 . S
C256 N254 1.263 . S
C256 N255 1.358 . S
C256 H262 0.930 . S
C257 N255 1.400 . S
C257 C258 1.351 . S
C257 H274 0.930 . S
C258 N254 1.389 . S
C258 C257 1.351 . S
C258 H263 0.930 . S
O259 Cu253 1.974 . S
O259 C269 1.282 . S
C260 O261 1.261 . S
C260 O273 1.251 . S
O261 C260 1.261 . S
H262 C256 0.930 . S
H263 C258 0.930 . S
N264 Cu253 1.985 . S
N264 C266 1.335 . S
N264 C267 1.390 . S
N265 C266 1.345 . S
N265 C268 1.336 . S
C266 N264 1.335 . S
C266 N265 1.345 . S
C266 H271 0.930 . S
C267 N264 1.390 . S
C267 C268 1.346 . S
C267 H272 0.930 . S
C268 N265 1.336 . S
C268 C267 1.346 . S
C268 H275 0.929 . S
C269 O259 1.282 . S
C269 O270 1.216 . S
O270 C269 1.216 . S
H271 C266 0.930 . S
H272 C267 0.930 . S
O273 Cu253 1.959 . S
O273 C260 1.251 . S
H274 C257 0.930 . S
H275 C268 0.929 . S
Dy276 O279 2.307 . S
Dy276 O281 2.395 . S
Dy276 O282 2.379 . S
Dy276 O284 2.339 . S
Dy276 O286 2.298 . S
Dy276 O290 2.275 . S
Dy276 C298 2.738 . S
Dy277 O280 2.298 . S
Dy277 O283 2.275 . S
Dy277 O285 2.307 . S
Dy277 O287 2.395 . S
Dy277 O288 2.379 . S
Dy277 O291 2.339 . S
Dy277 C307 2.738 . S
C278 O290 1.254 . S
C278 O291 1.257 . S
O279 Dy276 2.307 . S
O279 C289 1.266 . S
O280 Dy277 2.298 . S
O280 C289 1.236 . S
O281 Dy276 2.395 . S
O281 C298 1.255 . S
O282 Dy276 2.379 . S
O282 C298 1.249 . S
O283 Dy277 2.275 . S
O283 C299 1.254 . S
O284 Dy276 2.339 . S
O284 C299 1.257 . S
O285 Dy277 2.307 . S
O285 C300 1.266 . S
O286 Dy276 2.298 . S
O286 C300 1.236 . S
O287 Dy277 2.395 . S
O287 C307 1.255 . S
O288 Dy277 2.379 . S
O288 C307 1.249 . S
C289 O279 1.266 . S
C289 O280 1.236 . S
O290 Dy276 2.275 . S
O290 C278 1.254 . S
O291 Dy277 2.339 . S
O291 C278 1.257 . S
C292 C295 1.344 . S
C292 C296 1.328 . S
C292 C298 1.516 . S
C293 C294 1.304 . S
C293 C297 1.323 . S
C294 C293 1.304 . S
C294 C295 1.371 . S
C294 H308 0.930 . S
C295 C292 1.344 . S
C295 C294 1.371 . S
C295 H309 0.931 . S
C296 C292 1.328 . S
C296 C297 1.433 . S
C296 H310 0.931 . S
C297 C293 1.323 . S
C297 C296 1.433 . S
C297 H311 0.933 . S
C298 Dy276 2.738 . S
C298 O281 1.255 . S
C298 O282 1.249 . S
C298 C292 1.516 . S
C299 O283 1.254 . S
C299 O284 1.257 . S
C300 O285 1.266 . S
C300 O286 1.236 . S
C301 C304 1.344 . S
C301 C305 1.328 . S
C301 C307 1.516 . S
C302 C303 1.304 . S
C302 C306 1.323 . S
C303 C302 1.304 . S
C303 C304 1.371 . S
C303 H312 0.930 . S
C304 C301 1.344 . S
C304 C303 1.371 . S
C304 H313 0.931 . S
C305 C301 1.328 . S
C305 C306 1.433 . S
C305 H314 0.931 . S
C306 C302 1.323 . S
C306 C305 1.433 . S
C306 H315 0.933 . S
C307 Dy277 2.738 . S
C307 O287 1.255 . S
C307 O288 1.249 . S
C307 C301 1.516 . S
H308 C294 0.930 . S
H309 C295 0.931 . S
H310 C296 0.931 . S
H311 C297 0.933 . S
H312 C303 0.930 . S
H313 C304 0.931 . S
H314 C305 0.931 . S
H315 C306 0.933 . S
Dy316 O319 2.307 . S
Dy316 O321 2.395 . S
Dy316 O322 2.379 . S
Dy316 O324 2.339 . S
Dy316 O326 2.298 . S
Dy316 O330 2.275 . S
Dy316 C338 2.738 . S
Dy317 O320 2.298 . S
Dy317 O323 2.275 . S
Dy317 O325 2.307 . S
Dy317 O327 2.395 . S
Dy317 O328 2.379 . S
Dy317 O331 2.339 . S
Dy317 C347 2.738 . S
C318 O330 1.254 . S
C318 O331 1.257 . S
O319 Dy316 2.307 . S
O319 C329 1.266 . S
O320 Dy317 2.298 . S
O320 C329 1.236 . S
O321 Dy316 2.395 . S
O321 C338 1.255 . S
O322 Dy316 2.379 . S
O322 C338 1.249 . S
O323 Dy317 2.275 . S
O323 C339 1.254 . S
O324 Dy316 2.339 . S
O324 C339 1.257 . S
O325 Dy317 2.307 . S
O325 C340 1.266 . S
O326 Dy316 2.298 . S
O326 C340 1.236 . S
O327 Dy317 2.395 . S
O327 C347 1.255 . S
O328 Dy317 2.379 . S
O328 C347 1.249 . S
C329 O319 1.266 . S
C329 O320 1.236 . S
O330 Dy316 2.275 . S
O330 C318 1.254 . S
O331 Dy317 2.339 . S
O331 C318 1.257 . S
C332 C335 1.344 . S
C332 C336 1.328 . S
C332 C338 1.516 . S
C333 C334 1.304 . S
C333 C337 1.323 . S
C334 C333 1.304 . S
C334 C335 1.371 . S
C334 H348 0.930 . S
C335 C332 1.344 . S
C335 C334 1.371 . S
C335 H349 0.931 . S
C336 C332 1.328 . S
C336 C337 1.433 . S
C336 H350 0.931 . S
C337 C333 1.323 . S
C337 C336 1.433 . S
C337 H351 0.933 . S
C338 Dy316 2.738 . S
C338 O321 1.255 . S
C338 O322 1.249 . S
C338 C332 1.516 . S
C339 O323 1.254 . S
C339 O324 1.257 . S
C340 O325 1.266 . S
C340 O326 1.236 . S
C341 C344 1.344 . S
C341 C345 1.328 . S
C341 C347 1.516 . S
C342 C343 1.304 . S
C342 C346 1.323 . S
C343 C342 1.304 . S
C343 C344 1.371 . S
C343 H352 0.930 . S
C344 C341 1.344 . S
C344 C343 1.371 . S
C344 H353 0.931 . S
C345 C341 1.328 . S
C345 C346 1.433 . S
C345 H354 0.931 . S
C346 C342 1.323 . S
C346 C345 1.433 . S
C346 H355 0.933 . S
C347 Dy317 2.738 . S
C347 O327 1.255 . S
C347 O328 1.249 . S
C347 C341 1.516 . S
H348 C334 0.930 . S
H349 C335 0.931 . S
H350 C336 0.931 . S
H351 C337 0.933 . S
H352 C343 0.930 . S
H353 C344 0.931 . S
H354 C345 0.931 . S
H355 C346 0.933 . S
Dy356 O359 2.307 . S
Dy356 O361 2.395 . S
Dy356 O362 2.379 . S
Dy356 O364 2.339 . S
Dy356 O366 2.298 . S
Dy356 O370 2.275 . S
Dy356 C378 2.738 . S
Dy357 O360 2.298 . S
Dy357 O363 2.275 . S
Dy357 O365 2.307 . S
Dy357 O367 2.395 . S
Dy357 O368 2.379 . S
Dy357 O371 2.339 . S
Dy357 C387 2.738 . S
C358 O370 1.254 . S
C358 O371 1.257 . S
O359 Dy356 2.307 . S
O359 C369 1.266 . S
O360 Dy357 2.298 . S
O360 C369 1.236 . S
O361 Dy356 2.395 . S
O361 C378 1.255 . S
O362 Dy356 2.379 . S
O362 C378 1.249 . S
O363 Dy357 2.275 . S
O363 C379 1.254 . S
O364 Dy356 2.339 . S
O364 C379 1.257 . S
O365 Dy357 2.307 . S
O365 C380 1.266 . S
O366 Dy356 2.298 . S
O366 C380 1.236 . S
O367 Dy357 2.395 . S
O367 C387 1.255 . S
O368 Dy357 2.379 . S
O368 C387 1.249 . S
C369 O359 1.266 . S
C369 O360 1.236 . S
O370 Dy356 2.275 . S
O370 C358 1.254 . S
O371 Dy357 2.339 . S
O371 C358 1.257 . S
C372 C375 1.344 . S
C372 C376 1.328 . S
C372 C378 1.516 . S
C373 C374 1.304 . S
C373 C377 1.323 . S
C374 C373 1.304 . S
C374 C375 1.371 . S
C374 H388 0.930 . S
C375 C372 1.344 . S
C375 C374 1.371 . S
C375 H389 0.931 . S
C376 C372 1.328 . S
C376 C377 1.433 . S
C376 H390 0.931 . S
C377 C373 1.323 . S
C377 C376 1.433 . S
C377 H391 0.933 . S
C378 Dy356 2.738 . S
C378 O361 1.255 . S
C378 O362 1.249 . S
C378 C372 1.516 . S
C379 O363 1.254 . S
C379 O364 1.257 . S
C380 O365 1.266 . S
C380 O366 1.236 . S
C381 C384 1.344 . S
C381 C385 1.328 . S
C381 C387 1.516 . S
C382 C383 1.304 . S
C382 C386 1.323 . S
C383 C382 1.304 . S
C383 C384 1.371 . S
C383 H392 0.930 . S
C384 C381 1.344 . S
C384 C383 1.371 . S
C384 H393 0.931 . S
C385 C381 1.328 . S
C385 C386 1.433 . S
C385 H394 0.931 . S
C386 C382 1.323 . S
C386 C385 1.433 . S
C386 H395 0.933 . S
C387 Dy357 2.738 . S
C387 O367 1.255 . S
C387 O368 1.249 . S
C387 C381 1.516 . S
H388 C374 0.930 . S
H389 C375 0.931 . S
H390 C376 0.931 . S
H391 C377 0.933 . S
H392 C383 0.930 . S
H393 C384 0.931 . S
H394 C385 0.931 . S
H395 C386 0.933 . S
Dy396 O399 2.307 . S
Dy396 O401 2.395 . S
Dy396 O402 2.379 . S
Dy396 O404 2.339 . S
Dy396 O406 2.298 . S
Dy396 O410 2.275 . S
Dy396 C418 2.738 . S
Dy397 O400 2.298 . S
Dy397 O403 2.275 . S
Dy397 O405 2.307 . S
Dy397 O407 2.395 . S
Dy397 O408 2.379 . S
Dy397 O411 2.339 . S
Dy397 C427 2.738 . S
C398 O410 1.254 . S
C398 O411 1.257 . S
O399 Dy396 2.307 . S
O399 C409 1.266 . S
O400 Dy397 2.298 . S
O400 C409 1.236 . S
O401 Dy396 2.395 . S
O401 C418 1.255 . S
O402 Dy396 2.379 . S
O402 C418 1.249 . S
O403 Dy397 2.275 . S
O403 C419 1.254 . S
O404 Dy396 2.339 . S
O404 C419 1.257 . S
O405 Dy397 2.307 . S
O405 C420 1.266 . S
O406 Dy396 2.298 . S
O406 C420 1.236 . S
O407 Dy397 2.395 . S
O407 C427 1.255 . S
O408 Dy397 2.379 . S
O408 C427 1.249 . S
C409 O399 1.266 . S
C409 O400 1.236 . S
O410 Dy396 2.275 . S
O410 C398 1.254 . S
O411 Dy397 2.339 . S
O411 C398 1.257 . S
C412 C415 1.344 . S
C412 C416 1.328 . S
C412 C418 1.516 . S
C413 C414 1.304 . S
C413 C417 1.323 . S
C414 C413 1.304 . S
C414 C415 1.371 . S
C414 H428 0.930 . S
C415 C412 1.344 . S
C415 C414 1.371 . S
C415 H429 0.931 . S
C416 C412 1.328 . S
C416 C417 1.433 . S
C416 H430 0.931 . S
C417 C413 1.323 . S
C417 C416 1.433 . S
C417 H431 0.933 . S
C418 Dy396 2.738 . S
C418 O401 1.255 . S
C418 O402 1.249 . S
C418 C412 1.516 . S
C419 O403 1.254 . S
C419 O404 1.257 . S
C420 O405 1.266 . S
C420 O406 1.236 . S
C421 C424 1.344 . S
C421 C425 1.328 . S
C421 C427 1.516 . S
C422 C423 1.304 . S
C422 C426 1.323 . S
C423 C422 1.304 . S
C423 C424 1.371 . S
C423 H432 0.930 . S
C424 C421 1.344 . S
C424 C423 1.371 . S
C424 H433 0.931 . S
C425 C421 1.328 . S
C425 C426 1.433 . S
C425 H434 0.931 . S
C426 C422 1.323 . S
C426 C425 1.433 . S
C426 H435 0.933 . S
C427 Dy397 2.738 . S
C427 O407 1.255 . S
C427 O408 1.249 . S
C427 C421 1.516 . S
H428 C414 0.930 . S
H429 C415 0.931 . S
H430 C416 0.931 . S
H431 C417 0.933 . S
H432 C423 0.930 . S
H433 C424 0.931 . S
H434 C425 0.931 . S
H435 C426 0.933 . S
Dy436 O439 2.307 . S
Dy436 O441 2.395 . S
Dy436 O442 2.379 . S
Dy436 O444 2.339 . S
Dy436 O446 2.298 . S
Dy436 O450 2.275 . S
Dy436 C458 2.738 . S
Dy437 O440 2.298 . S
Dy437 O443 2.275 . S
Dy437 O445 2.307 . S
Dy437 O447 2.395 . S
Dy437 O448 2.379 . S
Dy437 O451 2.339 . S
Dy437 C467 2.738 . S
C438 O450 1.254 . S
C438 O451 1.257 . S
O439 Dy436 2.307 . S
O439 C449 1.266 . S
O440 Dy437 2.298 . S
O440 C449 1.236 . S
O441 Dy436 2.395 . S
O441 C458 1.255 . S
O442 Dy436 2.379 . S
O442 C458 1.249 . S
O443 Dy437 2.275 . S
O443 C459 1.254 . S
O444 Dy436 2.339 . S
O444 C459 1.257 . S
O445 Dy437 2.307 . S
O445 C460 1.266 . S
O446 Dy436 2.298 . S
O446 C460 1.236 . S
O447 Dy437 2.395 . S
O447 C467 1.255 . S
O448 Dy437 2.379 . S
O448 C467 1.249 . S
C449 O439 1.266 . S
C449 O440 1.236 . S
O450 Dy436 2.275 . S
O450 C438 1.254 . S
O451 Dy437 2.339 . S
O451 C438 1.257 . S
C452 C455 1.344 . S
C452 C456 1.328 . S
C452 C458 1.516 . S
C453 C454 1.304 . S
C453 C457 1.323 . S
C454 C453 1.304 . S
C454 C455 1.371 . S
C454 H468 0.930 . S
C455 C452 1.344 . S
C455 C454 1.371 . S
C455 H469 0.931 . S
C456 C452 1.328 . S
C456 C457 1.433 . S
C456 H470 0.931 . S
C457 C453 1.323 . S
C457 C456 1.433 . S
C457 H471 0.933 . S
C458 Dy436 2.738 . S
C458 O441 1.255 . S
C458 O442 1.249 . S
C458 C452 1.516 . S
C459 O443 1.254 . S
C459 O444 1.257 . S
C460 O445 1.266 . S
C460 O446 1.236 . S
C461 C464 1.344 . S
C461 C465 1.328 . S
C461 C467 1.516 . S
C462 C463 1.304 . S
C462 C466 1.323 . S
C463 C462 1.304 . S
C463 C464 1.371 . S
C463 H472 0.930 . S
C464 C461 1.344 . S
C464 C463 1.371 . S
C464 H473 0.931 . S
C465 C461 1.328 . S
C465 C466 1.433 . S
C465 H474 0.931 . S
C466 C462 1.323 . S
C466 C465 1.433 . S
C466 H475 0.933 . S
C467 Dy437 2.738 . S
C467 O447 1.255 . S
C467 O448 1.249 . S
C467 C461 1.516 . S
H468 C454 0.930 . S
H469 C455 0.931 . S
H470 C456 0.931 . S
H471 C457 0.933 . S
H472 C463 0.930 . S
H473 C464 0.931 . S
H474 C465 0.931 . S
H475 C466 0.933 . S
Dy476 O479 2.307 . S
Dy476 O481 2.395 . S
Dy476 O482 2.379 . S
Dy476 O484 2.339 . S
Dy476 O486 2.298 . S
Dy476 O490 2.275 . S
Dy476 C498 2.738 . S
Dy477 O480 2.298 . S
Dy477 O483 2.275 . S
Dy477 O485 2.307 . S
Dy477 O487 2.395 . S
Dy477 O488 2.379 . S
Dy477 O491 2.339 . S
Dy477 C507 2.738 . S
C478 O490 1.254 . S
C478 O491 1.257 . S
O479 Dy476 2.307 . S
O479 C489 1.266 . S
O480 Dy477 2.298 . S
O480 C489 1.236 . S
O481 Dy476 2.395 . S
O481 C498 1.255 . S
O482 Dy476 2.379 . S
O482 C498 1.249 . S
O483 Dy477 2.275 . S
O483 C499 1.254 . S
O484 Dy476 2.339 . S
O484 C499 1.257 . S
O485 Dy477 2.307 . S
O485 C500 1.266 . S
O486 Dy476 2.298 . S
O486 C500 1.236 . S
O487 Dy477 2.395 . S
O487 C507 1.255 . S
O488 Dy477 2.379 . S
O488 C507 1.249 . S
C489 O479 1.266 . S
C489 O480 1.236 . S
O490 Dy476 2.275 . S
O490 C478 1.254 . S
O491 Dy477 2.339 . S
O491 C478 1.257 . S
C492 C495 1.344 . S
C492 C496 1.328 . S
C492 C498 1.516 . S
C493 C494 1.304 . S
C493 C497 1.323 . S
C494 C493 1.304 . S
C494 C495 1.371 . S
C494 H508 0.930 . S
C495 C492 1.344 . S
C495 C494 1.371 . S
C495 H509 0.931 . S
C496 C492 1.328 . S
C496 C497 1.433 . S
C496 H510 0.931 . S
C497 C493 1.323 . S
C497 C496 1.433 . S
C497 H511 0.933 . S
C498 Dy476 2.738 . S
C498 O481 1.255 . S
C498 O482 1.249 . S
C498 C492 1.516 . S
C499 O483 1.254 . S
C499 O484 1.257 . S
C500 O485 1.266 . S
C500 O486 1.236 . S
C501 C504 1.344 . S
C501 C505 1.328 . S
C501 C507 1.516 . S
C502 C503 1.304 . S
C502 C506 1.323 . S
C503 C502 1.304 . S
C503 C504 1.371 . S
C503 H512 0.930 . S
C504 C501 1.344 . S
C504 C503 1.371 . S
C504 H513 0.931 . S
C505 C501 1.328 . S
C505 C506 1.433 . S
C505 H514 0.931 . S
C506 C502 1.323 . S
C506 C505 1.433 . S
C506 H515 0.933 . S
C507 Dy477 2.738 . S
C507 O487 1.255 . S
C507 O488 1.249 . S
C507 C501 1.516 . S
H508 C494 0.930 . S
H509 C495 0.931 . S
H510 C496 0.931 . S
H511 C497 0.933 . S
H512 C503 0.930 . S
H513 C504 0.931 . S
H514 C505 0.931 . S
H515 C506 0.933 . S
Dy516 O519 2.307 . S
Dy516 O521 2.395 . S
Dy516 O522 2.379 . S
Dy516 O524 2.339 . S
Dy516 O526 2.298 . S
Dy516 O530 2.275 . S
Dy516 C538 2.738 . S
Dy517 O520 2.298 . S
Dy517 O523 2.275 . S
Dy517 O525 2.307 . S
Dy517 O527 2.395 . S
Dy517 O528 2.379 . S
Dy517 O531 2.339 . S
Dy517 C547 2.738 . S
C518 O530 1.254 . S
C518 O531 1.257 . S
O519 Dy516 2.307 . S
O519 C529 1.266 . S
O520 Dy517 2.298 . S
O520 C529 1.236 . S
O521 Dy516 2.395 . S
O521 C538 1.255 . S
O522 Dy516 2.379 . S
O522 C538 1.249 . S
O523 Dy517 2.275 . S
O523 C539 1.254 . S
O524 Dy516 2.339 . S
O524 C539 1.257 . S
O525 Dy517 2.307 . S
O525 C540 1.266 . S
O526 Dy516 2.298 . S
O526 C540 1.236 . S
O527 Dy517 2.395 . S
O527 C547 1.255 . S
O528 Dy517 2.379 . S
O528 C547 1.249 . S
C529 O519 1.266 . S
C529 O520 1.236 . S
O530 Dy516 2.275 . S
O530 C518 1.254 . S
O531 Dy517 2.339 . S
O531 C518 1.257 . S
C532 C535 1.344 . S
C532 C536 1.328 . S
C532 C538 1.516 . S
C533 C534 1.304 . S
C533 C537 1.323 . S
C534 C533 1.304 . S
C534 C535 1.371 . S
C534 H548 0.930 . S
C535 C532 1.344 . S
C535 C534 1.371 . S
C535 H549 0.931 . S
C536 C532 1.328 . S
C536 C537 1.433 . S
C536 H550 0.931 . S
C537 C533 1.323 . S
C537 C536 1.433 . S
C537 H551 0.933 . S
C538 Dy516 2.738 . S
C538 O521 1.255 . S
C538 O522 1.249 . S
C538 C532 1.516 . S
C539 O523 1.254 . S
C539 O524 1.257 . S
C540 O525 1.266 . S
C540 O526 1.236 . S
C541 C544 1.344 . S
C541 C545 1.328 . S
C541 C547 1.516 . S
C542 C543 1.304 . S
C542 C546 1.323 . S
C543 C542 1.304 . S
C543 C544 1.371 . S
C543 H552 0.930 . S
C544 C541 1.344 . S
C544 C543 1.371 . S
C544 H553 0.931 . S
C545 C541 1.328 . S
C545 C546 1.433 . S
C545 H554 0.931 . S
C546 C542 1.323 . S
C546 C545 1.433 . S
C546 H555 0.933 . S
C547 Dy517 2.738 . S
C547 O527 1.255 . S
C547 O528 1.249 . S
C547 C541 1.516 . S
H548 C534 0.930 . S
H549 C535 0.931 . S
H550 C536 0.931 . S
H551 C537 0.933 . S
H552 C543 0.930 . S
H553 C544 0.931 . S
H554 C545 0.931 . S
H555 C546 0.933 . S
Dy556 O559 2.307 . S
Dy556 O561 2.395 . S
Dy556 O562 2.379 . S
Dy556 O564 2.339 . S
Dy556 O566 2.298 . S
Dy556 O570 2.275 . S
Dy556 C578 2.738 . S
Dy557 O560 2.298 . S
Dy557 O563 2.275 . S
Dy557 O565 2.307 . S
Dy557 O567 2.395 . S
Dy557 O568 2.379 . S
Dy557 O571 2.339 . S
Dy557 C587 2.738 . S
C558 O570 1.254 . S
C558 O571 1.257 . S
O559 Dy556 2.307 . S
O559 C569 1.266 . S
O560 Dy557 2.298 . S
O560 C569 1.236 . S
O561 Dy556 2.395 . S
O561 C578 1.255 . S
O562 Dy556 2.379 . S
O562 C578 1.249 . S
O563 Dy557 2.275 . S
O563 C579 1.254 . S
O564 Dy556 2.339 . S
O564 C579 1.257 . S
O565 Dy557 2.307 . S
O565 C580 1.266 . S
O566 Dy556 2.298 . S
O566 C580 1.236 . S
O567 Dy557 2.395 . S
O567 C587 1.255 . S
O568 Dy557 2.379 . S
O568 C587 1.249 . S
C569 O559 1.266 . S
C569 O560 1.236 . S
O570 Dy556 2.275 . S
O570 C558 1.254 . S
O571 Dy557 2.339 . S
O571 C558 1.257 . S
C572 C575 1.344 . S
C572 C576 1.328 . S
C572 C578 1.516 . S
C573 C574 1.304 . S
C573 C577 1.323 . S
C574 C573 1.304 . S
C574 C575 1.371 . S
C574 H588 0.930 . S
C575 C572 1.344 . S
C575 C574 1.371 . S
C575 H589 0.931 . S
C576 C572 1.328 . S
C576 C577 1.433 . S
C576 H590 0.931 . S
C577 C573 1.323 . S
C577 C576 1.433 . S
C577 H591 0.933 . S
C578 Dy556 2.738 . S
C578 O561 1.255 . S
C578 O562 1.249 . S
C578 C572 1.516 . S
C579 O563 1.254 . S
C579 O564 1.257 . S
C580 O565 1.266 . S
C580 O566 1.236 . S
C581 C584 1.344 . S
C581 C585 1.328 . S
C581 C587 1.516 . S
C582 C583 1.304 . S
C582 C586 1.323 . S
C583 C582 1.304 . S
C583 C584 1.371 . S
C583 H592 0.930 . S
C584 C581 1.344 . S
C584 C583 1.371 . S
C584 H593 0.931 . S
C585 C581 1.328 . S
C585 C586 1.433 . S
C585 H594 0.931 . S
C586 C582 1.323 . S
C586 C585 1.433 . S
C586 H595 0.933 . S
C587 Dy557 2.738 . S
C587 O567 1.255 . S
C587 O568 1.249 . S
C587 C581 1.516 . S
H588 C574 0.930 . S
H589 C575 0.931 . S
H590 C576 0.931 . S
H591 C577 0.933 . S
H592 C583 0.930 . S
H593 C584 0.931 . S
H594 C585 0.931 . S
H595 C586 0.933 . S
C596 C597 1.369 . S
C596 C598 1.419 . S
C596 H600 0.930 . S
C597 C596 1.369 . S
C597 C606 1.429 . S
C598 C596 1.419 . S
C598 C599 1.363 . S
C598 H601 0.929 . S
C599 C598 1.363 . S
C599 C605 1.428 . S
H600 C596 0.930 . S
H601 C598 0.929 . S
S602 N603 1.613 . S
S602 N604 1.610 . S
N603 S602 1.613 . S
N603 C606 1.350 . S
N604 S602 1.610 . S
N604 C605 1.351 . S
C605 C599 1.428 . S
C605 N604 1.351 . S
C605 C606 1.434 . S
C606 C597 1.429 . S
C606 N603 1.350 . S
C606 C605 1.434 . S
C607 C608 1.369 . S
C607 C609 1.419 . S
C607 H611 0.930 . S
C608 C607 1.369 . S
C608 C617 1.429 . S
C609 C607 1.419 . S
C609 C610 1.363 . S
C609 H612 0.929 . S
C610 C609 1.363 . S
C610 C616 1.428 . S
H611 C607 0.930 . S
H612 C609 0.929 . S
S613 N614 1.613 . S
S613 N615 1.610 . S
N614 S613 1.613 . S
N614 C617 1.350 . S
N615 S613 1.610 . S
N615 C616 1.351 . S
C616 C610 1.428 . S
C616 N615 1.351 . S
C616 C617 1.434 . S
C617 C608 1.429 . S
C617 N614 1.350 . S
C617 C616 1.434 . S
C618 C619 1.369 1_455 S
C618 C620 1.419 1_455 S
C618 H622 0.930 . S
C619 C618 1.369 1_655 S
C619 C628 1.429 . S
C620 C618 1.419 1_655 S
C620 C621 1.363 . S
C620 H623 0.929 1_655 S
C621 C620 1.363 . S
C621 C627 1.428 . S
H622 C618 0.930 . S
H623 C620 0.929 1_455 S
S624 N625 1.613 . S
S624 N626 1.610 1_545 S
N625 S624 1.613 . S
N625 C628 1.350 1_545 S
N626 S624 1.610 1_565 S
N626 C627 1.351 . S
C627 C621 1.428 . S
C627 N626 1.351 . S
C627 C628 1.434 . S
C628 C619 1.429 . S
C628 N625 1.350 1_565 S
C628 C627 1.434 . S
C629 C630 1.369 . S
C629 C631 1.419 . S
C629 H633 0.930 . S
C630 C629 1.369 . S
C630 C639 1.429 . S
C631 C629 1.419 . S
C631 C632 1.363 . S
C631 H634 0.929 . S
C632 C631 1.363 . S
C632 C638 1.428 . S
H633 C629 0.930 . S
H634 C631 0.929 . S
S635 N636 1.613 . S
S635 N637 1.610 . S
N636 S635 1.613 . S
N636 C639 1.350 . S
N637 S635 1.610 . S
N637 C638 1.351 . S
C638 C632 1.428 . S
C638 N637 1.351 . S
C638 C639 1.434 . S
C639 C630 1.429 . S
C639 N636 1.350 . S
C639 C638 1.434 . S
C640 C641 1.369 . S
C640 C642 1.419 . S
C640 H644 0.930 . S
C641 C640 1.369 . S
C641 C650 1.429 . S
C642 C640 1.419 . S
C642 C643 1.363 . S
C642 H645 0.929 . S
C643 C642 1.363 . S
C643 C649 1.428 . S
H644 C640 0.930 . S
H645 C642 0.929 . S
S646 N647 1.613 . S
S646 N648 1.610 . S
N647 S646 1.613 . S
N647 C650 1.350 . S
N648 S646 1.610 . S
N648 C649 1.351 . S
C649 C643 1.428 . S
C649 N648 1.351 . S
C649 C650 1.434 . S
C650 C641 1.429 . S
C650 N647 1.350 . S
C650 C649 1.434 . S
C651 C652 1.369 . S
C651 C653 1.419 . S
C651 H655 0.930 . S
C652 C651 1.369 . S
C652 C661 1.429 . S
C653 C651 1.419 . S
C653 C654 1.363 . S
C653 H656 0.929 . S
C654 C653 1.363 . S
C654 C660 1.428 . S
H655 C651 0.930 . S
H656 C653 0.929 . S
S657 N658 1.613 . S
S657 N659 1.610 . S
N658 S657 1.613 . S
N658 C661 1.350 . S
N659 S657 1.610 . S
N659 C660 1.351 . S
C660 C654 1.428 . S
C660 N659 1.351 . S
C660 C661 1.434 . S
C661 C652 1.429 . S
C661 N658 1.350 . S
C661 C660 1.434 . S
C662 C663 1.369 . S
C662 C664 1.419 . S
C662 H666 0.930 . S
C663 C662 1.369 . S
C663 C672 1.429 . S
C664 C662 1.419 . S
C664 C665 1.363 . S
C664 H667 0.929 . S
C665 C664 1.363 . S
C665 C671 1.428 . S
H666 C662 0.930 . S
H667 C664 0.929 . S
S668 N669 1.613 . S
S668 N670 1.610 . S
N669 S668 1.613 . S
N669 C672 1.350 . S
N670 S668 1.610 . S
N670 C671 1.351 . S
C671 C665 1.428 . S
C671 N670 1.351 . S
C671 C672 1.434 . S
C672 C663 1.429 . S
C672 N669 1.350 . S
C672 C671 1.434 . S
C673 C674 1.369 1_455 S
C673 C675 1.419 1_455 S
C673 H677 0.930 . S
C674 C673 1.369 1_655 S
C674 C683 1.429 . S
C675 C673 1.419 1_655 S
C675 C676 1.363 . S
C675 H678 0.929 1_655 S
C676 C675 1.363 . S
C676 C682 1.428 . S
H677 C673 0.930 . S
H678 C675 0.929 1_455 S
S679 N680 1.613 . S
S679 N681 1.610 . S
N680 S679 1.613 . S
N680 C683 1.350 . S
N681 S679 1.610 . S
N681 C682 1.351 . S
C682 C676 1.428 . S
C682 N681 1.351 . S
C682 C683 1.434 . S
C683 C674 1.429 . S
C683 N680 1.350 . S
C683 C682 1.434 . S
C684 C685 1.369 . S
C684 C686 1.419 . S
C684 H688 0.930 . S
C685 C684 1.369 . S
C685 C694 1.429 . S
C686 C684 1.419 . S
C686 C687 1.363 . S
C686 H689 0.929 . S
C687 C686 1.363 . S
C687 C693 1.428 . S
H688 C684 0.930 . S
H689 C686 0.929 . S
S690 N691 1.613 . S
S690 N692 1.610 . S
N691 S690 1.613 . S
N691 C694 1.350 . S
N692 S690 1.610 . S
N692 C693 1.351 . S
C693 C687 1.428 . S
C693 N692 1.351 . S
C693 C694 1.434 . S
C694 C685 1.429 . S
C694 N691 1.350 . S
C694 C693 1.434 . S
C695 C696 1.369 1_655 S
C695 C697 1.419 . S
C695 H699 0.930 . S
C696 C695 1.369 1_455 S
C696 C705 1.429 . S
C697 C695 1.419 . S
C697 C698 1.363 . S
C697 H700 0.929 . S
C698 C697 1.363 . S
C698 C704 1.428 . S
H699 C695 0.930 . S
H700 C697 0.929 . S
S701 N702 1.613 . S
S701 N703 1.610 . S
N702 S701 1.613 . S
N702 C705 1.350 . S
N703 S701 1.610 . S
N703 C704 1.351 1_455 S
C704 C698 1.428 . S
C704 N703 1.351 1_655 S
C704 C705 1.434 1_655 S
C705 C696 1.429 . S
C705 N702 1.350 . S
C705 C704 1.434 1_455 S
C706 C707 1.369 . S
C706 C708 1.419 . S
C706 H710 0.930 . S
C707 C706 1.369 . S
C707 C716 1.429 . S
C708 C706 1.419 . S
C708 C709 1.363 . S
C708 H711 0.929 . S
C709 C708 1.363 . S
C709 C715 1.428 . S
H710 C706 0.930 . S
H711 C708 0.929 . S
S712 N713 1.613 . S
S712 N714 1.610 . S
N713 S712 1.613 . S
N713 C716 1.350 . S
N714 S712 1.610 . S
N714 C715 1.351 . S
C715 C709 1.428 . S
C715 N714 1.351 . S
C715 C716 1.434 . S
C716 C707 1.429 . S
C716 N713 1.350 . S
C716 C715 1.434 . S
C717 C718 1.369 . S
C717 C719 1.419 . S
C717 H721 0.930 . S
C718 C717 1.369 . S
C718 C727 1.429 . S
C719 C717 1.419 . S
C719 C720 1.363 . S
C719 H722 0.929 . S
C720 C719 1.363 . S
C720 C726 1.428 . S
H721 C717 0.930 . S
H722 C719 0.929 . S
S723 N724 1.613 . S
S723 N725 1.610 . S
N724 S723 1.613 . S
N724 C727 1.350 . S
N725 S723 1.610 . S
N725 C726 1.351 . S
C726 C720 1.428 . S
C726 N725 1.351 . S
C726 C727 1.434 . S
C727 C718 1.429 . S
C727 N724 1.350 . S
C727 C726 1.434 . S
C728 C729 1.369 . S
C728 C730 1.419 . S
C728 H732 0.930 . S
C729 C728 1.369 . S
C729 C738 1.429 . S
C730 C728 1.419 . S
C730 C731 1.363 . S
C730 H733 0.929 . S
C731 C730 1.363 . S
C731 C737 1.428 . S
H732 C728 0.930 . S
H733 C730 0.929 . S
S734 N735 1.613 . S
S734 N736 1.610 . S
N735 S734 1.613 . S
N735 C738 1.350 . S
N736 S734 1.610 . S
N736 C737 1.351 . S
C737 C731 1.428 . S
C737 N736 1.351 . S
C737 C738 1.434 . S
C738 C729 1.429 . S
C738 N735 1.350 . S
C738 C737 1.434 . S
C739 C740 1.369 . S
C739 C741 1.419 . S
C739 H743 0.930 . S
C740 C739 1.369 . S
C740 C749 1.429 . S
C741 C739 1.419 . S
C741 C742 1.363 . S
C741 H744 0.929 . S
C742 C741 1.363 . S
C742 C748 1.428 . S
H743 C739 0.930 . S
H744 C741 0.929 . S
S745 N746 1.613 . S
S745 N747 1.610 . S
N746 S745 1.613 . S
N746 C749 1.350 . S
N747 S745 1.610 . S
N747 C748 1.351 . S
C748 C742 1.428 . S
C748 N747 1.351 . S
C748 C749 1.434 . S
C749 C740 1.429 . S
C749 N746 1.350 . S
C749 C748 1.434 . S
C750 C751 1.369 . S
C750 C752 1.419 . S
C750 H754 0.930 . S
C751 C750 1.369 . S
C751 C760 1.429 . S
C752 C750 1.419 . S
C752 C753 1.363 . S
C752 H755 0.929 . S
C753 C752 1.363 . S
C753 C759 1.428 . S
H754 C750 0.930 . S
H755 C752 0.929 . S
S756 N757 1.613 . S
S756 N758 1.610 . S
N757 S756 1.613 . S
N757 C760 1.350 . S
N758 S756 1.610 . S
N758 C759 1.351 . S
C759 C753 1.428 . S
C759 N758 1.351 . S
C759 C760 1.434 . S
C760 C751 1.429 . S
C760 N757 1.350 . S
C760 C759 1.434 . S
C761 C762 1.369 . S
C761 C763 1.419 . S
C761 H765 0.930 . S
C762 C761 1.369 . S
C762 C771 1.429 . S
C763 C761 1.419 . S
C763 C764 1.363 . S
C763 H766 0.929 . S
C764 C763 1.363 . S
C764 C770 1.428 . S
H765 C761 0.930 . S
H766 C763 0.929 . S
S767 N768 1.613 . S
S767 N769 1.610 . S
N768 S767 1.613 . S
N768 C771 1.350 . S
N769 S767 1.610 . S
N769 C770 1.351 . S
C770 C764 1.428 . S
C770 N769 1.351 . S
C770 C771 1.434 . S
C771 C762 1.429 . S
C771 N768 1.350 . S
C771 C770 1.434 . S
C772 C773 1.369 . S
C772 C774 1.419 . S
C772 H776 0.930 . S
C773 C772 1.369 . S
C773 C782 1.429 . S
C774 C772 1.419 . S
C774 C775 1.363 . S
C774 H777 0.929 . S
C775 C774 1.363 . S
C775 C781 1.428 . S
H776 C772 0.930 . S
H777 C774 0.929 . S
S778 N779 1.613 . S
S778 N780 1.610 . S
N779 S778 1.613 . S
N779 C782 1.350 . S
N780 S778 1.610 . S
N780 C781 1.351 . S
C781 C775 1.428 . S
C781 N780 1.351 . S
C781 C782 1.434 . S
C782 C773 1.429 . S
C782 N779 1.350 . S
C782 C781 1.434 . S
C783 C784 1.369 . S
C783 C785 1.419 . S
C783 H787 0.930 . S
C784 C783 1.369 . S
C784 C793 1.429 . S
C785 C783 1.419 . S
C785 C786 1.363 . S
C785 H788 0.929 . S
C786 C785 1.363 . S
C786 C792 1.428 . S
H787 C783 0.930 . S
H788 C785 0.929 . S
S789 N790 1.613 . S
S789 N791 1.610 . S
N790 S789 1.613 . S
N790 C793 1.350 . S
N791 S789 1.610 . S
N791 C792 1.351 . S
C792 C786 1.428 . S
C792 N791 1.351 . S
C792 C793 1.434 . S
C793 C784 1.429 . S
C793 N790 1.350 . S
C793 C792 1.434 . S
C794 C795 1.369 . S
C794 C796 1.419 . S
C794 H798 0.930 . S
C795 C794 1.369 . S
C795 C804 1.429 . S
C796 C794 1.419 . S
C796 C797 1.363 . S
C796 H799 0.929 . S
C797 C796 1.363 . S
C797 C803 1.428 . S
H798 C794 0.930 . S
H799 C796 0.929 . S
S800 N801 1.613 . S
S800 N802 1.610 . S
N801 S800 1.613 . S
N801 C804 1.350 . S
N802 S800 1.610 . S
N802 C803 1.351 . S
C803 C797 1.428 . S
C803 N802 1.351 . S
C803 C804 1.434 . S
C804 C795 1.429 . S
C804 N801 1.350 . S
C804 C803 1.434 . S
C805 C806 1.369 . S
C805 C807 1.419 . S
C805 H809 0.930 . S
C806 C805 1.369 . S
C806 C815 1.429 . S
C807 C805 1.419 . S
C807 C808 1.363 1_455 S
C807 H810 0.929 . S
C808 C807 1.363 1_655 S
C808 C814 1.428 . S
H809 C805 0.930 . S
H810 C807 0.929 . S
S811 N812 1.613 . S
S811 N813 1.610 . S
N812 S811 1.613 . S
N812 C815 1.350 1_655 S
N813 S811 1.610 . S
N813 C814 1.351 . S
C814 C808 1.428 . S
C814 N813 1.351 . S
C814 C815 1.434 1_655 S
C815 C806 1.429 . S
C815 N812 1.350 1_455 S
C815 C814 1.434 1_455 S
C816 C817 1.369 . S
C816 C818 1.419 . S
C816 H820 0.930 . S
C817 C816 1.369 . S
C817 C826 1.429 . S
C818 C816 1.419 . S
C818 C819 1.363 . S
C818 H821 0.929 . S
C819 C818 1.363 . S
C819 C825 1.428 . S
H820 C816 0.930 . S
H821 C818 0.929 . S
S822 N823 1.613 . S
S822 N824 1.610 . S
N823 S822 1.613 . S
N823 C826 1.350 . S
N824 S822 1.610 . S
N824 C825 1.351 . S
C825 C819 1.428 . S
C825 N824 1.351 . S
C825 C826 1.434 . S
C826 C817 1.429 . S
C826 N823 1.350 . S
C826 C825 1.434 . S
C827 C828 1.369 . S
C827 C829 1.419 . S
C827 H831 0.930 . S
C828 C827 1.369 . S
C828 C837 1.429 . S
C829 C827 1.419 . S
C829 C830 1.363 . S
C829 H832 0.929 . S
C830 C829 1.363 . S
C830 C836 1.428 . S
H831 C827 0.930 . S
H832 C829 0.929 . S
S833 N834 1.613 . S
S833 N835 1.610 . S
N834 S833 1.613 . S
N834 C837 1.350 . S
N835 S833 1.610 . S
N835 C836 1.351 . S
C836 C830 1.428 . S
C836 N835 1.351 . S
C836 C837 1.434 . S
C837 C828 1.429 . S
C837 N834 1.350 . S
C837 C836 1.434 . S
C838 C839 1.369 . S
C838 C840 1.419 . S
C838 H842 0.930 . S
C839 C838 1.369 . S
C839 C848 1.429 . S
C840 C838 1.419 . S
C840 C841 1.363 . S
C840 H843 0.929 . S
C841 C840 1.363 . S
C841 C847 1.428 . S
H842 C838 0.930 . S
H843 C840 0.929 . S
S844 N845 1.613 . S
S844 N846 1.610 . S
N845 S844 1.613 . S
N845 C848 1.350 . S
N846 S844 1.610 . S
N846 C847 1.351 . S
C847 C841 1.428 . S
C847 N846 1.351 . S
C847 C848 1.434 . S
C848 C839 1.429 . S
C848 N845 1.350 . S
C848 C847 1.434 . S
C849 C850 1.369 . S
C849 C851 1.419 . S
C849 H853 0.930 . S
C850 C849 1.369 . S
C850 C859 1.429 . S
C851 C849 1.419 . S
C851 C852 1.363 . S
C851 H854 0.929 . S
C852 C851 1.363 . S
C852 C858 1.428 . S
H853 C849 0.930 . S
H854 C851 0.929 . S
S855 N856 1.613 . S
S855 N857 1.610 . S
N856 S855 1.613 . S
N856 C859 1.350 . S
N857 S855 1.610 . S
N857 C858 1.351 . S
C858 C852 1.428 . S
C858 N857 1.351 . S
C858 C859 1.434 . S
C859 C850 1.429 . S
C859 N856 1.350 . S
C859 C858 1.434 . S
C860 C861 1.369 . S
C860 C862 1.419 . S
C860 H864 0.930 . S
C861 C860 1.369 . S
C861 C870 1.429 . S
C862 C860 1.419 . S
C862 C863 1.363 . S
C862 H865 0.929 . S
C863 C862 1.363 . S
C863 C869 1.428 . S
H864 C860 0.930 . S
H865 C862 0.929 . S
S866 N867 1.613 . S
S866 N868 1.610 . S
N867 S866 1.613 . S
N867 C870 1.350 . S
N868 S866 1.610 . S
N868 C869 1.351 . S
C869 C863 1.428 . S
C869 N868 1.351 . S
C869 C870 1.434 . S
C870 C861 1.429 . S
C870 N867 1.350 . S
C870 C869 1.434 . S
C871 C872 1.369 . S
C871 C873 1.419 . S
C871 H875 0.930 . S
C872 C871 1.369 . S
C872 C881 1.429 . S
C873 C871 1.419 . S
C873 C874 1.363 . S
C873 H876 0.929 . S
C874 C873 1.363 . S
C874 C880 1.428 . S
H875 C871 0.930 . S
H876 C873 0.929 . S
S877 N878 1.613 . S
S877 N879 1.610 . S
N878 S877 1.613 . S
N878 C881 1.350 . S
N879 S877 1.610 . S
N879 C880 1.351 . S
C880 C874 1.428 . S
C880 N879 1.351 . S
C880 C881 1.434 . S
C881 C872 1.429 . S
C881 N878 1.350 . S
C881 C880 1.434 . S
C882 C883 1.369 . S
C882 C884 1.419 . S
C882 H886 0.930 . S
C883 C882 1.369 . S
C883 C892 1.429 . S
C884 C882 1.419 . S
C884 C885 1.363 . S
C884 H887 0.929 . S
C885 C884 1.363 . S
C885 C891 1.428 . S
H886 C882 0.930 . S
H887 C884 0.929 . S
S888 N889 1.613 . S
S888 N890 1.610 . S
N889 S888 1.613 . S
N889 C892 1.350 . S
N890 S888 1.610 . S
N890 C891 1.351 . S
C891 C885 1.428 . S
C891 N890 1.351 . S
C891 C892 1.434 . S
C892 C883 1.429 . S
C892 N889 1.350 . S
C892 C891 1.434 . S
C893 C894 1.369 . S
C893 C895 1.419 . S
C893 H897 0.930 . S
C894 C893 1.369 . S
C894 C903 1.429 . S
C895 C893 1.419 . S
C895 C896 1.363 . S
C895 H898 0.929 . S
C896 C895 1.363 . S
C896 C902 1.428 . S
H897 C893 0.930 . S
H898 C895 0.929 . S
S899 N900 1.613 . S
S899 N901 1.610 . S
N900 S899 1.613 . S
N900 C903 1.350 . S
N901 S899 1.610 . S
N901 C902 1.351 . S
C902 C896 1.428 . S
C902 N901 1.351 . S
C902 C903 1.434 . S
C903 C894 1.429 . S
C903 N900 1.350 . S
C903 C902 1.434 . S
C904 C905 1.369 . S
C904 C906 1.419 . S
C904 H908 0.930 . S
C905 C904 1.369 . S
C905 C914 1.429 . S
C906 C904 1.419 . S
C906 C907 1.363 . S
C906 H909 0.929 . S
C907 C906 1.363 . S
C907 C913 1.428 . S
H908 C904 0.930 . S
H909 C906 0.929 . S
S910 N911 1.613 . S
S910 N912 1.610 . S
N911 S910 1.613 . S
N911 C914 1.350 . S
N912 S910 1.610 . S
N912 C913 1.351 . S
C913 C907 1.428 . S
C913 N912 1.351 . S
C913 C914 1.434 . S
C914 C905 1.429 . S
C914 N911 1.350 . S
C914 C913 1.434 . S
C915 C916 1.369 . S
C915 C917 1.419 . S
C915 H919 0.930 . S
C916 C915 1.369 . S
C916 C925 1.429 . S
C917 C915 1.419 . S
C917 C918 1.363 . S
C917 H920 0.929 . S
C918 C917 1.363 . S
C918 C924 1.428 . S
H919 C915 0.930 . S
H920 C917 0.929 . S
S921 N922 1.613 . S
S921 N923 1.610 . S
N922 S921 1.613 . S
N922 C925 1.350 . S
N923 S921 1.610 . S
N923 C924 1.351 . S
C924 C918 1.428 . S
C924 N923 1.351 . S
C924 C925 1.434 . S
C925 C916 1.429 . S
C925 N922 1.350 . S
C925 C924 1.434 . S
C926 C927 1.369 . S
C926 C928 1.419 . S
C926 H930 0.930 . S
C927 C926 1.369 . S
C927 C936 1.429 . S
C928 C926 1.419 . S
C928 C929 1.363 . S
C928 H931 0.929 . S
C929 C928 1.363 . S
C929 C935 1.428 . S
H930 C926 0.930 . S
H931 C928 0.929 . S
S932 N933 1.613 . S
S932 N934 1.610 . S
N933 S932 1.613 . S
N933 C936 1.350 . S
N934 S932 1.610 . S
N934 C935 1.351 . S
C935 C929 1.428 . S
C935 N934 1.351 . S
C935 C936 1.434 . S
C936 C927 1.429 . S
C936 N933 1.350 . S
C936 C935 1.434 . S
C937 C938 1.369 . S
C937 C939 1.419 . S
C937 H941 0.930 . S
C938 C937 1.369 . S
C938 C947 1.429 . S
C939 C937 1.419 . S
C939 C940 1.363 . S
C939 H942 0.929 . S
C940 C939 1.363 . S
C940 C946 1.428 . S
H941 C937 0.930 . S
H942 C939 0.929 . S
S943 N944 1.613 . S
S943 N945 1.610 . S
N944 S943 1.613 . S
N944 C947 1.350 . S
N945 S943 1.610 . S
N945 C946 1.351 . S
C946 C940 1.428 . S
C946 N945 1.351 . S
C946 C947 1.434 . S
C947 C938 1.429 . S
C947 N944 1.350 . S
C947 C946 1.434 . S
C948 C949 1.369 . S
C948 C950 1.419 . S
C948 H952 0.930 . S
C949 C948 1.369 . S
C949 C958 1.429 . S
C950 C948 1.419 . S
C950 C951 1.363 . S
C950 H953 0.929 . S
C951 C950 1.363 . S
C951 C957 1.428 . S
H952 C948 0.930 . S
H953 C950 0.929 . S
S954 N955 1.613 . S
S954 N956 1.610 . S
N955 S954 1.613 . S
N955 C958 1.350 . S
N956 S954 1.610 . S
N956 C957 1.351 . S
C957 C951 1.428 . S
C957 N956 1.351 . S
C957 C958 1.434 . S
C958 C949 1.429 . S
C958 N955 1.350 . S
C958 C957 1.434 . S
C959 C960 1.369 . S
C959 C961 1.419 . S
C959 H963 0.930 . S
C960 C959 1.369 . S
C960 C969 1.429 . S
C961 C959 1.419 . S
C961 C962 1.363 . S
C961 H964 0.929 . S
C962 C961 1.363 . S
C962 C968 1.428 . S
H963 C959 0.930 . S
H964 C961 0.929 . S
S965 N966 1.613 . S
S965 N967 1.610 . S
N966 S965 1.613 . S
N966 C969 1.350 . S
N967 S965 1.610 . S
N967 C968 1.351 . S
C968 C962 1.428 . S
C968 N967 1.351 . S
C968 C969 1.434 . S
C969 C960 1.429 . S
C969 N966 1.350 . S
C969 C968 1.434 . S
C970 C971 1.369 . S
C970 C972 1.419 . S
C970 H974 0.930 . S
C971 C970 1.369 . S
C971 C980 1.429 . S
C972 C970 1.419 . S
C972 C973 1.363 . S
C972 H975 0.929 . S
C973 C972 1.363 . S
C973 C979 1.428 . S
H974 C970 0.930 . S
H975 C972 0.929 . S
S976 N977 1.613 . S
S976 N978 1.610 . S
N977 S976 1.613 . S
N977 C980 1.350 . S
N978 S976 1.610 . S
N978 C979 1.351 . S
C979 C973 1.428 . S
C979 N978 1.351 . S
C979 C980 1.434 . S
C980 C971 1.429 . S
C980 N977 1.350 . S
C980 C979 1.434 . S
C981 C982 1.369 . S
C981 C983 1.419 . S
C981 H985 0.930 . S
C982 C981 1.369 . S
C982 C991 1.429 . S
C983 C981 1.419 . S
C983 C984 1.363 . S
C983 H986 0.929 . S
C984 C983 1.363 . S
C984 C990 1.428 . S
H985 C981 0.930 . S
H986 C983 0.929 . S
S987 N988 1.613 . S
S987 N989 1.610 . S
N988 S987 1.613 . S
N988 C991 1.350 . S
N989 S987 1.610 . S
N989 C990 1.351 . S
C990 C984 1.428 . S
C990 N989 1.351 . S
C990 C991 1.434 . S
C991 C982 1.429 . S
C991 N988 1.350 . S
C991 C990 1.434 . S
C992 C993 1.369 . S
C992 C994 1.419 . S
C992 H996 0.930 . S
C993 C992 1.369 . S
C993 C1002 1.429 . S
C994 C992 1.419 . S
C994 C995 1.363 . S
C994 H997 0.929 . S
C995 C994 1.363 . S
C995 C1001 1.428 . S
H996 C992 0.930 . S
H997 C994 0.929 . S
S998 N999 1.613 . S
S998 N1000 1.610 . S
N999 S998 1.613 . S
N999 C1002 1.350 . S
N1000 S998 1.610 . S
N1000 C1001 1.351 . S
C1001 C995 1.428 . S
C1001 N1000 1.351 . S
C1001 C1002 1.434 . S
C1002 C993 1.429 . S
C1002 N999 1.350 . S
C1002 C1001 1.434 . S
C1003 C1004 1.369 . S
C1003 C1005 1.419 . S
C1003 H1007 0.930 . S
C1004 C1003 1.369 . S
C1004 C1013 1.429 . S
C1005 C1003 1.419 . S
C1005 C1006 1.363 . S
C1005 H1008 0.929 . S
C1006 C1005 1.363 . S
C1006 C1012 1.428 . S
H1007 C1003 0.930 . S
H1008 C1005 0.929 . S
S1009 N1010 1.613 . S
S1009 N1011 1.610 . S
N1010 S1009 1.613 . S
N1010 C1013 1.350 . S
N1011 S1009 1.610 . S
N1011 C1012 1.351 . S
C1012 C1006 1.428 . S
C1012 N1011 1.351 . S
C1012 C1013 1.434 . S
C1013 C1004 1.429 . S
C1013 N1010 1.350 . S
C1013 C1012 1.434 . S
C1014 C1015 1.369 . S
C1014 C1016 1.419 . S
C1014 H1018 0.930 . S
C1015 C1014 1.369 . S
C1015 C1024 1.429 . S
C1016 C1014 1.419 . S
C1016 C1017 1.363 . S
C1016 H1019 0.929 . S
C1017 C1016 1.363 . S
C1017 C1023 1.428 . S
H1018 C1014 0.930 . S
H1019 C1016 0.929 . S
S1020 N1021 1.613 . S
S1020 N1022 1.610 . S
N1021 S1020 1.613 . S
N1021 C1024 1.350 . S
N1022 S1020 1.610 . S
N1022 C1023 1.351 . S
C1023 C1017 1.428 . S
C1023 N1022 1.351 . S
C1023 C1024 1.434 . S
C1024 C1015 1.429 . S
C1024 N1021 1.350 . S
C1024 C1023 1.434 . S
C1025 C1026 1.369 . S
C1025 C1027 1.419 . S
C1025 H1029 0.930 . S
C1026 C1025 1.369 . S
C1026 C1035 1.429 . S
C1027 C1025 1.419 . S
C1027 C1028 1.363 . S
C1027 H1030 0.929 . S
C1028 C1027 1.363 . S
C1028 C1034 1.428 . S
H1029 C1025 0.930 . S
H1030 C1027 0.929 . S
S1031 N1032 1.613 . S
S1031 N1033 1.610 . S
N1032 S1031 1.613 . S
N1032 C1035 1.350 . S
N1033 S1031 1.610 . S
N1033 C1034 1.351 . S
C1034 C1028 1.428 . S
C1034 N1033 1.351 . S
C1034 C1035 1.434 . S
C1035 C1026 1.429 . S
C1035 N1032 1.350 . S
C1035 C1034 1.434 . S
C1036 C1037 1.369 . S
C1036 C1038 1.419 . S
C1036 H1040 0.930 . S
C1037 C1036 1.369 . S
C1037 C1046 1.429 . S
C1038 C1036 1.419 . S
C1038 C1039 1.363 . S
C1038 H1041 0.929 . S
C1039 C1038 1.363 . S
C1039 C1045 1.428 . S
H1040 C1036 0.930 . S
H1041 C1038 0.929 . S
S1042 N1043 1.613 . S
S1042 N1044 1.610 . S
N1043 S1042 1.613 . S
N1043 C1046 1.350 . S
N1044 S1042 1.610 . S
N1044 C1045 1.351 . S
C1045 C1039 1.428 . S
C1045 N1044 1.351 . S
C1045 C1046 1.434 . S
C1046 C1037 1.429 . S
C1046 N1043 1.350 . S
C1046 C1045 1.434 . S
C1047 C1048 1.369 . S
C1047 C1049 1.419 . S
C1047 H1051 0.930 . S
C1048 C1047 1.369 . S
C1048 C1057 1.429 . S
C1049 C1047 1.419 . S
C1049 C1050 1.363 . S
C1049 H1052 0.929 . S
C1050 C1049 1.363 . S
C1050 C1056 1.428 . S
H1051 C1047 0.930 . S
H1052 C1049 0.929 . S
S1053 N1054 1.613 . S
S1053 N1055 1.610 . S
N1054 S1053 1.613 . S
N1054 C1057 1.350 . S
N1055 S1053 1.610 . S
N1055 C1056 1.351 . S
C1056 C1050 1.428 . S
C1056 N1055 1.351 . S
C1056 C1057 1.434 . S
C1057 C1048 1.429 . S
C1057 N1054 1.350 . S
C1057 C1056 1.434 . S
C1058 C1059 1.369 . S
C1058 C1060 1.419 . S
C1058 H1062 0.930 . S
C1059 C1058 1.369 . S
C1059 C1068 1.429 . S
C1060 C1058 1.419 . S
C1060 C1061 1.363 . S
C1060 H1063 0.929 . S
C1061 C1060 1.363 . S
C1061 C1067 1.428 . S
H1062 C1058 0.930 . S
H1063 C1060 0.929 . S
S1064 N1065 1.613 . S
S1064 N1066 1.610 . S
N1065 S1064 1.613 . S
N1065 C1068 1.350 . S
N1066 S1064 1.610 . S
N1066 C1067 1.351 . S
C1067 C1061 1.428 . S
C1067 N1066 1.351 . S
C1067 C1068 1.434 . S
C1068 C1059 1.429 . S
C1068 N1065 1.350 . S
C1068 C1067 1.434 . S
C1069 C1070 1.369 . S
C1069 C1071 1.419 . S
C1069 H1073 0.930 . S
C1070 C1069 1.369 . S
C1070 C1079 1.429 . S
C1071 C1069 1.419 . S
C1071 C1072 1.363 . S
C1071 H1074 0.929 . S
C1072 C1071 1.363 . S
C1072 C1078 1.428 . S
H1073 C1069 0.930 . S
H1074 C1071 0.929 . S
S1075 N1076 1.613 . S
S1075 N1077 1.610 . S
N1076 S1075 1.613 . S
N1076 C1079 1.350 . S
N1077 S1075 1.610 . S
N1077 C1078 1.351 . S
C1078 C1072 1.428 . S
C1078 N1077 1.351 . S
C1078 C1079 1.434 . S
C1079 C1070 1.429 . S
C1079 N1076 1.350 . S
C1079 C1078 1.434 . S
C1080 C1081 1.369 . S
C1080 C1082 1.419 . S
C1080 H1084 0.930 . S
C1081 C1080 1.369 . S
C1081 C1090 1.429 . S
C1082 C1080 1.419 . S
C1082 C1083 1.363 . S
C1082 H1085 0.929 . S
C1083 C1082 1.363 . S
C1083 C1089 1.428 . S
H1084 C1080 0.930 . S
H1085 C1082 0.929 . S
S1086 N1087 1.613 . S
S1086 N1088 1.610 . S
N1087 S1086 1.613 . S
N1087 C1090 1.350 . S
N1088 S1086 1.610 . S
N1088 C1089 1.351 . S
C1089 C1083 1.428 . S
C1089 N1088 1.351 . S
C1089 C1090 1.434 . S
C1090 C1081 1.429 . S
C1090 N1087 1.350 . S
C1090 C1089 1.434 . S
C1091 C1092 1.369 . S
C1091 C1093 1.419 . S
C1091 H1095 0.930 . S
C1092 C1091 1.369 . S
C1092 C1101 1.429 . S
C1093 C1091 1.419 . S
C1093 C1094 1.363 . S
C1093 H1096 0.929 . S
C1094 C1093 1.363 . S
C1094 C1100 1.428 . S
H1095 C1091 0.930 . S
H1096 C1093 0.929 . S
S1097 N1098 1.613 . S
S1097 N1099 1.610 . S
N1098 S1097 1.613 . S
N1098 C1101 1.350 . S
N1099 S1097 1.610 . S
N1099 C1100 1.351 . S
C1100 C1094 1.428 . S
C1100 N1099 1.351 . S
C1100 C1101 1.434 . S
C1101 C1092 1.429 . S
C1101 N1098 1.350 . S
C1101 C1100 1.434 . S
C1102 C1103 1.369 . S
C1102 C1104 1.419 . S
C1102 H1106 0.930 . S
C1103 C1102 1.369 . S
C1103 C1112 1.429 . S
C1104 C1102 1.419 . S
C1104 C1105 1.363 . S
C1104 H1107 0.929 . S
C1105 C1104 1.363 . S
C1105 C1111 1.428 . S
H1106 C1102 0.930 . S
H1107 C1104 0.929 . S
S1108 N1109 1.613 . S
S1108 N1110 1.610 . S
N1109 S1108 1.613 . S
N1109 C1112 1.350 . S
N1110 S1108 1.610 . S
N1110 C1111 1.351 . S
C1111 C1105 1.428 . S
C1111 N1110 1.351 . S
C1111 C1112 1.434 . S
C1112 C1103 1.429 . S
C1112 N1109 1.350 . S
C1112 C1111 1.434 . S
C1113 C1114 1.369 . S
C1113 C1115 1.419 . S
C1113 H1117 0.930 . S
C1114 C1113 1.369 . S
C1114 C1123 1.429 . S
C1115 C1113 1.419 . S
C1115 C1116 1.363 . S
C1115 H1118 0.929 . S
C1116 C1115 1.363 . S
C1116 C1122 1.428 . S
H1117 C1113 0.930 . S
H1118 C1115 0.929 . S
S1119 N1120 1.613 . S
S1119 N1121 1.610 . S
N1120 S1119 1.613 . S
N1120 C1123 1.350 . S
N1121 S1119 1.610 . S
N1121 C1122 1.351 . S
C1122 C1116 1.428 . S
C1122 N1121 1.351 . S
C1122 C1123 1.434 . S
C1123 C1114 1.429 . S
C1123 N1120 1.350 . S
C1123 C1122 1.434 . S
C599 C293 1.516 . S
C597 N2 1.499 . S
C610 C339 2.081 . S
C608 C7 2.047 1_655 S
C621 C382 1.482 . S
C619 N12 1.352 1_655 S
C630 C16 2.293 . S
C632 C419 2.374 . S
C643 C438 2.178 . S
C641 C30 2.146 . S
C654 C493 1.272 . S
C652 N35 1.245 . S
C663 C39 2.509 1_655 S
C665 C518 2.488 . S
C676 C582 1.247 . S
C674 N25 1.140 1_655 S
C687 C278 1.712 . S
C685 N58 1.688 . S
C696 N81 1.691 . S
C698 C342 1.657 . S
C709 C369 1.560 . S
C707 N104 1.502 . S
C718 N127 1.687 . S
C720 C422 1.656 . S
C731 C460 1.422 . S
C729 N48 1.402 . S
C742 C478 1.667 . S
C740 N71 1.668 . S
C751 N94 1.451 . S
C753 C540 1.490 . S
C764 C569 1.565 . S
C762 N117 1.524 . S
C773 C85 1.928 . S
C775 C300 1.950 . S
C784 C122 1.771 . S
C786 C453 1.751 . S
C795 C53 2.238 . S
C797 C500 2.247 . S
C808 C533 1.799 . S
C806 C76 1.819 . S
C819 C579 2.463 . S
C817 C99 2.481 . S
C830 C379 2.075 . S
C828 C131 2.115 . S
C841 C409 2.027 . S
C839 C62 2.018 . S
C850 C108 1.904 . S
C852 C329 1.906 . S
C863 C573 1.627 . S
C861 N140 1.604 . S
C872 C145 2.036 . S
C874 C459 2.070 . S
C885 C502 1.357 . S
C883 N150 1.242 . S
C894 C154 2.297 . S
C896 C539 2.369 . S
C907 C318 2.168 . S
C905 C168 2.132 . S
C916 N173 1.154 . S
C918 C373 1.171 . S
C929 C398 2.473 . S
C927 C177 2.501 . S
C940 C302 1.362 . S
C938 N163 1.216 . S
C951 C558 2.166 . S
C949 C200 2.144 . S
C962 C462 1.850 . S
C960 N219 1.892 . S
C971 N242 1.752 . S
C973 C489 1.826 . S
C984 C542 1.929 . S
C982 C269 1.975 . S
C995 C340 1.742 . S
C993 C191 1.768 . S
C1004 N209 1.938 . S
C1006 C358 1.950 . S
C1015 N232 1.750 . S
C1017 C420 1.799 . S
C1026 C260 1.970 . S
C1028 C289 2.020 . S
C1037 C223 1.574 . S
C1039 C580 1.601 . S
C1048 N255 1.474 . S
C1050 C333 1.486 . S
C1059 N186 1.888 . S
C1061 C380 1.882 . S
C1072 C413 1.559 . S
C1070 C214 1.580 . S
C1083 C299 2.203 . S
C1081 C237 2.212 . S
C1094 C499 1.583 . S
C1092 N265 1.574 . S
C1105 C529 1.696 . S
C1103 N196 1.588 . S
C1116 C449 1.605 . S
C1114 C246 1.600 . S
