# Generated by pormake.
# Topology zzz, (3,6)-cn, num edge types: 1
# Building blocks:
#     Node 0, Type 0, BuildingBlock: WUSLED_clean_sbu_0, # of connection points: 3
#     Node 1, Type 0, BuildingBlock: WUSLED_clean_sbu_0, # of connection points: 3
#     Node 2, Type 0, BuildingBlock: WUSLED_clean_sbu_0, # of connection points: 3
#     Node 3, Type 0, BuildingBlock: WUSLED_clean_sbu_0, # of connection points: 3
#     Node 4, Type 0, BuildingBlock: WUSLED_clean_sbu_0, # of connection points: 3
#     Node 5, Type 0, BuildingBlock: WUSLED_clean_sbu_0, # of connection points: 3
#     Node 6, Type 0, BuildingBlock: WUSLED_clean_sbu_0, # of connection points: 3
#     Node 7, Type 0, BuildingBlock: WUSLED_clean_sbu_0, # of connection points: 3
#     Node 8, Type 1, BuildingBlock: KUMBOL_clean_sbu_1, # of connection points: 6
#     Node 9, Type 1, BuildingBlock: KUMBOL_clean_sbu_1, # of connection points: 6
#     Node 10, Type 1, BuildingBlock: KUMBOL_clean_sbu_1, # of connection points: 6
#     Node 11, Type 1, BuildingBlock: KUMBOL_clean_sbu_1, # of connection points: 6
#     Edge 12, Type (0, 1), BuildingBlock: XUDNAN_clean_linker_2, # of connection points: 2
#     Edge 13, Type (0, 1), BuildingBlock: XUDNAN_clean_linker_2, # of connection points: 2
#     Edge 14, Type (0, 1), BuildingBlock: XUDNAN_clean_linker_2, # of connection points: 2
#     Edge 15, Type (0, 1), BuildingBlock: XUDNAN_clean_linker_2, # of connection points: 2
#     Edge 16, Type (0, 1), BuildingBlock: XUDNAN_clean_linker_2, # of connection points: 2
#     Edge 17, Type (0, 1), BuildingBlock: XUDNAN_clean_linker_2, # of connection points: 2
#     Edge 18, Type (0, 1), BuildingBlock: XUDNAN_clean_linker_2, # of connection points: 2
#     Edge 19, Type (0, 1), BuildingBlock: XUDNAN_clean_linker_2, # of connection points: 2
#     Edge 20, Type (0, 1), BuildingBlock: XUDNAN_clean_linker_2, # of connection points: 2
#     Edge 21, Type (0, 1), BuildingBlock: XUDNAN_clean_linker_2, # of connection points: 2
#     Edge 22, Type (0, 1), BuildingBlock: XUDNAN_clean_linker_2, # of connection points: 2
#     Edge 23, Type (0, 1), BuildingBlock: XUDNAN_clean_linker_2, # of connection points: 2
#     Edge 24, Type (0, 1), BuildingBlock: XUDNAN_clean_linker_2, # of connection points: 2
#     Edge 25, Type (0, 1), BuildingBlock: XUDNAN_clean_linker_2, # of connection points: 2
#     Edge 26, Type (0, 1), BuildingBlock: XUDNAN_clean_linker_2, # of connection points: 2
#     Edge 27, Type (0, 1), BuildingBlock: XUDNAN_clean_linker_2, # of connection points: 2
#     Edge 28, Type (0, 1), BuildingBlock: XUDNAN_clean_linker_2, # of connection points: 2
#     Edge 29, Type (0, 1), BuildingBlock: XUDNAN_clean_linker_2, # of connection points: 2
#     Edge 30, Type (0, 1), BuildingBlock: XUDNAN_clean_linker_2, # of connection points: 2
#     Edge 31, Type (0, 1), BuildingBlock: XUDNAN_clean_linker_2, # of connection points: 2
#     Edge 32, Type (0, 1), BuildingBlock: XUDNAN_clean_linker_2, # of connection points: 2
#     Edge 33, Type (0, 1), BuildingBlock: XUDNAN_clean_linker_2, # of connection points: 2
#     Edge 34, Type (0, 1), BuildingBlock: XUDNAN_clean_linker_2, # of connection points: 2
#     Edge 35, Type (0, 1), BuildingBlock: XUDNAN_clean_linker_2, # of connection points: 2
# Relax obj value: 0.288
# Max RMSD: 0.200
# Mean RMSD: 0.175
data_MOF--net-zzz--node1-WUSLED_clean_sbu_0--node2-KUMBOL_clean_sbu_1--edge1-XUDNAN_clean_linker_2
_symmetry_space_group_name_H-M    P1
_symmetry_Int_Tables_number       1
_symmetry_cell_setting            triclinic
loop_
_symmetry_equiv_pos_as_xyz
'x, y, z'
_cell_length_a     60.736434
_cell_length_b     60.943208
_cell_length_c     22.425806
_cell_angle_alpha  89.994832
_cell_angle_beta   90.050857
_cell_angle_gamma 90.437137
loop_
_atom_site_label
_atom_site_type_symbol
_atom_site_fract_x
_atom_site_fract_y
_atom_site_fract_z
_atom_type_partial_charge
C0 C 0.79781 0.52766 0.31392 0.0
C1 C 0.81641 0.51485 0.30064 0.0
C2 C 0.83838 0.53363 0.37743 0.0
C3 C 0.8364 0.51781 0.3318 0.0
C4 C 0.81971 0.54639 0.39052 0.0
C5 C 0.79983 0.54346 0.35943 0.0
U6 U 0.74989 0.53865 0.20085 0.0
O7 O 0.72906 0.51436 0.15412 0.0
O8 O 0.71382 0.53817 0.21404 0.0
C9 C 0.71057 0.52308 0.17284 0.0
C10 C 0.77592 0.52302 0.28512 0.0
C11 C 0.69344 0.52751 0.12619 0.0
C12 C 0.66106 0.54744 0.0911 0.0
C13 C 0.67745 0.54385 0.13425 0.0
C14 C 0.67592 0.51827 0.03081 0.0
C15 C 0.66003 0.53475 0.03854 0.0
C16 C 0.69231 0.51468 0.07397 0.0
C17 C 0.78704 0.58173 0.12994 0.0
C18 C 0.81182 0.59823 0.05807 0.0
C19 C 0.8264 0.57693 0.1402 0.0
C20 C 0.80511 0.57385 0.16227 0.0
C21 C 0.82971 0.58768 0.08534 0.0
C22 C 0.79056 0.59517 0.08022 0.0
C23 C 0.76547 0.57122 0.13681 0.0
O24 O 0.76005 0.53713 0.29504 0.0
O25 O 0.77584 0.51562 0.22997 0.0
O26 O 0.76528 0.55069 0.1191 0.0
O27 O 0.75501 0.57427 0.18741 0.0
H28 H 0.81545 0.50227 0.26662 0.0
H29 H 0.85032 0.50774 0.31984 0.0
H30 H 0.82021 0.55842 0.42602 0.0
H31 H 0.78588 0.55337 0.37214 0.0
H32 H 0.64895 0.56 0.09954 0.0
H33 H 0.67745 0.55383 0.17419 0.0
H34 H 0.67592 0.50826 0.99092 0.0
H35 H 0.70412 0.50175 0.06635 0.0
H36 H 0.81379 0.60655 0.01571 0.0
H37 H 0.83996 0.56889 0.16251 0.0
H38 H 0.80262 0.56336 0.20074 0.0
H39 H 0.77674 0.60127 0.05468 0.0
C40 C 1.00731 0.79809 0.3295 0.0
C41 C 0.99794 0.81556 0.29784 0.0
C42 C 1.00716 0.84129 0.37872 0.0
C43 C 0.99789 0.83687 0.32207 0.0
C44 C 0.01592 0.82354 0.41092 0.0
C45 C 0.01605 0.80227 0.38651 0.0
U46 U 1.00005 0.75403 0.20394 0.0
O47 O 0.99095 0.71873 0.20792 0.0
O48 O 0.02407 0.72867 0.18026 0.0
C49 C 1.00973 0.71249 0.18441 0.0
C50 C 1.00903 0.77566 0.30354 0.0
C51 C 1.0086 0.69742 0.13193 0.0
C52 C 1.00608 0.66015 0.09139 0.0
C53 C 1.00485 0.67479 0.1399 0.0
C54 C 0.01422 0.69057 0.02569 0.0
C55 C 1.01136 0.66779 0.03383 0.0
C56 C 1.01277 0.70518 0.07391 0.0
C57 C 0.97485 0.79736 0.09776 0.0
C58 C 0.95403 0.81925 0.02752 0.0
C59 C 0.9831 0.83612 0.08621 0.0
C60 C 0.98686 0.81611 0.11468 0.0
C61 C 0.9674 0.83758 0.04022 0.0
C62 C 0.95776 0.79928 0.05611 0.0
C63 C 0.98195 0.77531 0.1152 0.0
O64 O 0.99057 0.76471 0.29459 0.0
O65 O 0.02308 0.77337 0.25946 0.0
O66 O 0.97033 0.7652 0.15641 0.0
O67 O 1.0033 0.77263 0.12093 0.0
H68 H 0.99091 0.81279 0.25409 0.0
H69 H 0.99066 0.84995 0.2961 0.0
H70 H 0.0234 0.82618 0.45421 0.0
H71 H 0.02341 0.78909 0.41189 0.0
H72 H 1.00388 0.64275 0.09943 0.0
H73 H 1.00161 0.66834 0.18406 0.0
H74 H 0.01802 0.69712 0.98195 0.0
H75 H 0.01554 0.72251 0.06601 0.0
H76 H 0.94172 0.81999 0.99261 0.0
H77 H 0.99382 0.84988 0.0966 0.0
H78 H 1.00018 0.81496 0.14665 0.0
H79 H 0.9483 0.78497 0.04265 0.0
C80 C 0.74582 0.01636 0.33872 0.0
C81 C 0.72957 1.00367 0.31008 0.0
C82 C 0.70192 0.0148 0.38358 0.0
C83 C 0.70796 1.00287 0.33223 0.0
C84 C 0.71845 0.02701 0.41309 0.0
C85 C 0.74011 0.02783 0.39078 0.0
U86 U 0.78664 1.00451 0.21341 0.0
O87 O 0.80973 0.02651 0.16563 0.0
O88 O 0.82232 0.99796 0.21382 0.0
C89 C 0.82695 0.01423 0.17721 0.0
C90 C 0.76829 0.01857 0.31285 0.0
C91 C 0.84263 1.00955 0.12722 0.0
C92 C 0.8757 0.99102 0.09132 0.0
C93 C 0.85956 0.99418 0.1352 0.0
C94 C 0.85863 0.0186 0.02977 0.0
C95 C 0.8756 1.00322 0.03791 0.0
C96 C 0.84241 0.02174 0.07376 0.0
C97 C 0.76122 0.97046 0.08433 0.0
C98 C 0.7696 0.97442 0.97913 0.0
C99 C 0.73708 0.95429 1.01046 0.0
C100 C 0.743 0.9574 0.06985 0.0
C101 C 0.74942 0.96416 0.96428 0.0
C102 C 0.77532 0.97783 0.03894 0.0
C103 C 0.76181 0.98018 0.14399 0.0
O104 O 0.77997 1.00052 0.30972 0.0
O105 O 0.76951 0.03031 0.26381 0.0
O106 O 0.76129 1.00171 0.14475 0.0
O107 O 0.7753 0.97174 0.18353 0.0
H108 H 0.73352 0.99465 0.2699 0.0
H109 H 0.6959 0.99296 0.30868 0.0
H110 H 0.7145 0.03657 0.4523 0.0
H111 H 0.75231 0.03781 0.41358 0.0
H112 H 0.88863 0.97932 0.10012 0.0
H113 H 0.86065 0.98484 0.17618 0.0
H114 H 0.85781 0.02821 0.98922 0.0
H115 H 0.82988 0.03397 0.06614 0.0
H116 H 0.77994 0.98159 0.94488 0.0
H117 H 0.72143 0.9463 1.00193 0.0
H118 H 0.73197 0.95156 0.10448 0.0
H119 H 0.78962 0.98783 0.04956 0.0
C120 C 0.53708 0.74191 0.32593 0.0
C121 C 0.54428 0.72416 0.29133 0.0
C122 C 0.53528 0.69825 0.37158 0.0
C123 C 0.54345 0.70266 0.31385 0.0
C124 C 0.52848 0.71619 0.40654 0.0
C125 C 0.52932 0.73774 0.3839 0.0
U126 U 0.54134 0.78022 0.19191 0.0
O127 O 0.55623 0.8132 0.18057 0.0
O128 O 0.52092 0.80822 0.16399 0.0
C129 C 0.53764 0.82207 0.16307 0.0
C130 C 0.53678 0.76454 0.30095 0.0
C131 C 0.53867 0.83858 0.11391 0.0
C132 C 0.54487 0.87687 0.08616 0.0
C133 C 0.54615 0.85981 0.12788 0.0
C134 C 0.52967 0.8517 1.01345 0.0
C135 C 0.53621 0.87324 0.02877 0.0
C136 C 0.53073 0.83454 0.05579 0.0
C137 C 0.55051 0.74681 0.04564 0.0
C138 C 0.54034 0.75629 0.94435 0.0
C139 C 0.5506 0.71901 0.96882 0.0
C140 C 0.55476 0.72537 0.02731 0.0
C141 C 0.54233 0.73413 0.92702 0.0
C142 C 0.54415 0.76255 1.0036 0.0
C143 C 0.54871 0.75067 0.10972 0.0
O144 O 0.55557 0.77206 0.27977 0.0
O145 O 0.52009 0.76886 0.26567 0.0
O146 O 0.52896 0.7559 0.12843 0.0
O147 O 0.56468 0.76153 0.13645 0.0
H148 H 0.55032 0.72689 0.24648 0.0
H149 H 0.54921 0.68946 0.28575 0.0
H150 H 0.52187 0.71356 0.45082 0.0
H151 H 0.52355 0.75112 0.4114 0.0
H152 H 0.55014 0.89317 0.09946 0.0
H153 H 0.55228 0.86346 0.17221 0.0
H154 H 0.52276 0.84838 0.96982 0.0
H155 H 0.52475 0.81836 0.04371 0.0
H156 H 0.5346 0.76855 0.91319 0.0
H157 H 0.55212 0.70176 0.95839 0.0
H158 H 0.55956 0.713 0.05948 0.0
H159 H 0.54082 0.77925 0.0173 0.0
C160 C 0.23957 0.5168 0.96126 0.0
C161 C 0.22896 0.49624 0.96093 0.0
C162 C 0.19862 0.51069 0.90007 0.0
C163 C 0.20869 0.49329 0.93144 0.0
C164 C 0.2093 0.53133 0.90128 0.0
C165 C 0.22938 0.53432 0.93159 0.0
U166 U 0.28699 0.50532 0.07572 0.0
O167 O 0.32297 0.50418 0.06211 0.0
O168 O 0.30882 0.52991 0.11795 0.0
C169 C 0.32689 0.52026 0.09996 0.0
C170 C 0.26171 0.52024 0.98878 0.0
C171 C 0.3436 0.51611 0.14717 0.0
C172 C 0.37523 0.52881 0.20558 0.0
C173 C 0.3594 0.5323 0.16085 0.0
C174 C 0.35966 0.49284 0.22422 0.0
C175 C 0.37573 0.50896 0.23774 0.0
C176 C 0.34377 0.49639 0.17968 0.0
C177 C 0.24947 0.46457 0.15745 0.0
C178 C 0.22615 0.44732 0.23155 0.0
C179 C 0.20981 0.46711 0.14912 0.0
C180 C 0.23076 0.47144 0.12622 0.0
C181 C 0.20742 0.45649 0.20454 0.0
C182 C 0.24704 0.45135 0.20804 0.0
C183 C 0.2708 0.4751 0.14682 0.0
O184 O 0.26233 0.52893 0.04243 0.0
O185 O 0.27618 0.50449 0.98185 0.0
O186 O 0.28099 0.47036 0.09681 0.0
O187 O 0.27106 0.49613 0.15945 0.0
H188 H 0.2365 0.48232 0.98265 0.0
H189 H 0.20102 0.47722 0.93313 0.0
H190 H 0.20256 0.54515 0.87727 0.0
H191 H 0.23727 0.55032 0.93058 0.0
H192 H 0.38736 0.54154 0.2141 0.0
H193 H 0.35956 0.5477 0.13669 0.0
H194 H 0.35923 0.47748 0.24848 0.0
H195 H 0.3316 0.48373 0.17067 0.0
H196 H 0.22506 0.43913 0.27431 0.0
H197 H 0.19567 0.47398 0.12655 0.0
H198 H 0.2324 0.4819 0.08751 0.0
H199 H 0.26138 0.44602 0.23278 0.0
C200 C 0.02857 0.24011 0.96957 0.0
C201 C 0.04781 0.22792 0.9791 0.0
C202 C 0.0339 0.19812 0.91498 0.0
C203 C 0.05044 0.20722 0.95214 0.0
C204 C 0.01445 0.21023 0.90701 0.0
C205 C 1.01187 0.2309 0.93383 0.0
U206 U 0.03952 0.28809 0.08224 0.0
O207 O 0.04339 0.32416 0.07116 0.0
O208 O 0.01416 0.31054 0.11496 0.0
C209 C 0.02575 0.3283 0.10326 0.0
C210 C 0.02566 0.26266 0.99409 0.0
C211 C 0.02804 0.34417 0.15384 0.0
C212 C 0.02985 0.38207 0.19021 0.0
C213 C 0.0306 0.36681 0.143 0.0
C214 C 0.02466 0.35233 0.26016 0.0
C215 C 0.02621 0.37503 0.24922 0.0
C216 C 0.02572 0.33712 0.21332 0.0
C217 C 0.07551 0.24991 0.17754 0.0
C218 C 0.09493 0.23092 0.25618 0.0
C219 C 0.06611 0.21223 0.20087 0.0
C220 C 0.06377 0.23061 0.16437 0.0
C221 C 0.08029 0.21304 0.25059 0.0
C222 C 0.09234 0.24941 0.22019 0.0
C223 C 0.06641 0.27125 0.161 0.0
O224 O 0.01548 0.26423 0.04558 0.0
O225 O 0.04245 0.27635 0.98947 0.0
O226 O 0.07344 0.28048 0.11152 0.0
O227 O 0.04504 0.27274 0.16867 0.0
H228 H 0.06091 0.2345 1.00678 0.0
H229 H 0.06552 0.19835 0.96037 0.0
H230 H 1.00142 0.20408 0.87843 0.0
H231 H 0.99687 0.23994 0.92565 0.0
H232 H 0.03098 0.39943 0.1802 0.0
H233 H 0.03239 0.37276 0.09774 0.0
H234 H 0.02202 0.34632 0.30508 0.0
H235 H 0.0239 0.31984 0.22359 0.0
H236 H 0.10648 0.23173 0.29295 0.0
H237 H 0.05468 0.1987 0.19465 0.0
H238 H 0.05085 0.23065 0.13101 0.0
H239 H 0.10175 0.26413 0.23038 0.0
C240 C 0.29392 0.02728 0.94546 0.0
C241 C 0.31204 0.02505 0.98397 0.0
C242 C 0.33795 0.03113 0.90172 0.0
C243 C 0.33363 0.02675 0.96242 0.0
C244 C 0.31974 0.03325 0.86305 0.0
C245 C 0.29801 0.03132 0.88469 0.0
U246 U 0.25231 0.03697 0.06948 0.0
O247 O 0.21684 0.04439 0.0712 0.0
O248 O 0.22876 0.01408 0.11236 0.0
C249 C 0.21186 0.02704 0.10361 0.0
C250 C 0.27095 0.02508 0.96855 0.0
C251 C 0.19671 0.03031 0.15514 0.0
C252 C 0.16698 0.01598 0.21788 0.0
C253 C 0.1827 1.01303 0.17274 0.0
C254 C 0.17919 0.05356 0.2299 0.0
C255 C 0.16471 0.03639 0.2466 0.0
C256 C 0.19501 0.05055 0.18487 0.0
C257 C 0.2794 0.0676 0.20352 0.0
C258 C 0.27318 0.06219 0.30933 0.0
C259 C 0.30472 0.08324 0.27523 0.0
C260 C 0.29765 0.0808 0.21658 0.0
C261 C 0.29348 0.07259 0.32222 0.0
C262 C 0.26634 0.0594 0.25012 0.0
C263 C 0.27782 0.05882 0.14296 0.0
O264 O 0.26847 1.01192 1.01452 0.0
O265 O 0.25971 0.04334 0.9742 0.0
O266 O 0.26461 0.06859 0.10507 0.0
O267 O 0.27743 0.03731 0.13917 0.0
H268 H 0.30954 0.02189 0.03103 0.0
H269 H 0.34699 0.02445 0.99373 0.0
H270 H 0.32221 0.0368 0.81623 0.0
H271 H 0.28439 0.0331 0.85393 0.0
H272 H 0.15608 1.00243 0.22882 0.0
H273 H 0.18357 0.99728 0.1505 0.0
H274 H 0.17826 0.06941 0.25151 0.0
H275 H 0.20566 0.06416 0.17271 0.0
H276 H 0.26359 0.05449 0.34431 0.0
H277 H 0.32039 0.09141 0.28202 0.0
H278 H 0.30786 0.08731 0.18099 0.0
H279 H 0.25198 0.04933 0.24062 0.0
C280 C 0.51005 0.29851 0.95528 0.0
C281 C 0.49248 0.31222 0.97086 0.0
C282 C 0.505 0.34034 0.89985 0.0
C283 C 0.48995 0.33281 0.94342 0.0
C284 C 0.52281 0.32667 0.88527 0.0
C285 C 0.52526 0.30604 0.91254 0.0
U286 U 0.50227 0.25816 0.0862 0.0
O287 O 0.49672 0.22237 0.08875 0.0
O288 O 0.52656 0.2363 0.12895 0.0
C289 C 0.51451 0.21855 0.12052 0.0
C290 C 0.51305 0.27658 0.98359 0.0
C291 C 0.51202 0.20337 0.17231 0.0
C292 C 0.5255 0.17181 0.22884 0.0
C293 C 0.52768 0.18684 0.18155 0.0
C294 C 0.49179 0.18948 0.25874 0.0
C295 C 0.50753 0.17284 0.26843 0.0
C296 C 0.49404 0.20455 0.21151 0.0
C297 C 0.47298 0.28124 0.22475 0.0
C298 C 0.48537 0.27829 0.32714 0.0
C299 C 0.45451 0.30154 0.30267 0.0
C300 C 0.45595 0.29503 0.24309 0.0
C301 C 0.47049 0.29476 0.34414 0.0
C302 C 0.48653 0.27149 0.26779 0.0
C303 C 0.47977 0.28181 0.16196 0.0
O304 O 0.52617 0.27619 0.03014 0.0
O305 O 0.49527 0.26438 0.99102 0.0
O306 O 0.47027 0.26798 0.12483 0.0
O307 O 0.5011 0.28381 0.15384 0.0
H308 H 0.48066 0.30702 1.00424 0.0
H309 H 0.47623 0.34292 0.95675 0.0
H310 H 0.53464 0.33169 0.85173 0.0
H311 H 0.53903 0.29586 0.89991 0.0
H312 H 0.53817 0.15961 0.23484 0.0
H313 H 0.5417 0.18552 0.15197 0.0
H314 H 0.4775 0.19077 0.28728 0.0
H315 H 0.48164 0.21704 0.20541 0.0
H316 H 0.49787 0.2725 0.35764 0.0
H317 H 0.44237 0.31369 0.31476 0.0
H318 H 0.44515 0.30251 0.21052 0.0
H319 H 0.49962 0.26054 0.25453 0.0
C320 C 0.07042 0.03581 0.78085 0.0
C321 C 0.05326 0.03222 0.87793 0.0
C322 C 0.05423 0.02663 0.81693 0.0
C323 C 0.06787 0.04808 0.90097 0.0
C324 C 0.08598 0.0507 0.80463 0.0
C325 C 0.08423 0.05726 0.86444 0.0
N326 N 0.07153 0.02943 0.72293 0.0
C327 C 0.0888 0.03567 0.6877 0.0
C328 C 0.10313 0.05813 0.76789 0.0
C329 C 0.10474 0.0503 0.70946 0.0
Gd330 Gd 0.99644 0.03494 0.60023 0.0
Gd331 Gd 0.04398 1.00532 0.68994 0.0
N332 N 0.04065 1.01097 0.7936 0.0
C333 C 0.03835 0.02096 0.91455 0.0
C334 C 0.02781 0.99844 0.83047 0.0
C335 C 0.02594 1.00365 0.89095 0.0
H336 H 0.01914 0.98422 0.81377 0.0
H337 H 0.01522 0.99405 0.91952 0.0
H338 H 1.01287 0.03523 0.45896 0.0
H339 H 0.09004 0.02961 0.64257 0.0
H340 H 1.00466 0.01532 0.365 0.0
H341 H 0.03709 0.02476 0.96161 0.0
H342 H 0.06717 0.05277 0.94753 0.0
H343 H 0.95067 0.02859 0.68532 0.0
H344 H 0.11545 0.06954 0.78455 0.0
H345 H 0.11819 0.05559 0.68115 0.0
H346 H 0.94454 0.96719 0.41687 0.0
H347 H 0.09582 0.06895 0.8833 0.0
H348 H 0.91158 0.97712 0.6091 0.0
H349 H 0.91866 1.00359 0.69076 0.0
N350 N 0.96342 0.01434 0.60608 0.0
C351 C 0.95874 1.00135 0.55842 0.0
C352 C 0.94853 0.01624 0.65134 0.0
C353 C 0.92607 0.98758 0.60754 0.0
C354 C 0.93003 1.00246 0.65377 0.0
C355 C 0.9401 0.98741 0.55808 0.0
H356 H 0.92146 0.96353 0.50663 0.0
N357 N 0.98862 0.01792 0.50885 0.0
C358 C 0.97156 1.00346 0.50779 0.0
C359 C 0.97873 0.99569 0.40404 0.0
C360 C 0.96636 0.99163 0.45563 0.0
C361 C 0.99993 0.02296 0.458 0.0
C362 C 0.99532 1.01172 0.40496 0.0
O363 O 0.04351 0.04272 0.67988 0.0
O364 O 1.00711 0.05015 0.68756 0.0
O365 O 1.00202 0.06723 0.56439 0.0
O366 O 0.96814 0.0557 0.57854 0.0
O367 O 1.00871 0.99649 0.71652 0.0
O368 O 0.9902 0.02855 0.69881 0.0
O369 O 1.0127 1.00411 0.56505 0.0
O370 O 0.01744 0.98383 0.64851 0.0
O371 O 0.06535 0.98384 0.73995 0.0
O372 O 0.06366 0.98077 0.64425 0.0
O373 O 0.03094 0.04245 0.56433 0.0
O374 O 0.05414 0.01447 0.59585 0.0
C375 C 0.02762 0.05557 0.69847 0.0
C376 C 0.99246 1.01003 0.72835 0.0
C377 C 0.97338 0.09261 0.53777 0.0
C378 C 0.98243 0.12791 0.49343 0.0
C379 C 0.94525 0.12047 0.52768 0.0
C380 C 0.95153 0.09941 0.54553 0.0
C381 C 0.96071 0.13483 0.50233 0.0
C382 C 0.98858 0.10682 0.51074 0.0
C383 C 0.98111 0.07151 0.56104 0.0
C384 C 0.94864 0.97668 0.45625 0.0
C385 C 0.93554 0.97456 0.50743 0.0
H386 H 0.97524 0.98695 0.36299 0.0
C387 C 1.0137 0.98485 0.59104 0.0
C388 C 0.04921 0.0308 0.55967 0.0
C389 C 0.06446 0.94843 0.70077 0.0
C390 C 0.0408 0.92044 0.74544 0.0
C391 C 0.07325 0.91004 0.68848 0.0
C392 C 0.07825 0.93215 0.67816 0.0
C393 C 0.05487 0.90418 0.72272 0.0
C394 C 0.04535 0.94245 0.73201 0.0
C395 C 0.06992 0.97175 0.69391 0.0
H396 H 0.92846 0.12577 0.53427 0.0
H397 H 0.93951 0.0887 0.56647 0.0
H398 H 0.95574 0.1512 0.48943 0.0
H399 H 1.00552 0.10178 0.50469 0.0
H400 H 0.08399 0.89744 0.67137 0.0
H401 H 0.09291 0.93652 0.65326 0.0
H402 H 0.05208 0.887 0.73265 0.0
H403 H 0.03435 0.95513 0.74754 0.0
C404 C 0.51784 0.95096 0.59328 0.0
C405 C 0.49676 0.93242 0.67062 0.0
C406 C 0.50293 0.95177 0.64025 0.0
C407 C 0.50566 0.91226 0.65295 0.0
C408 C 0.52696 0.93073 0.57586 0.0
C409 C 0.52083 0.91143 0.60601 0.0
N410 N 0.52326 0.96987 0.56438 0.0
C411 C 0.53714 0.96956 0.51654 0.0
C412 C 0.54179 0.93046 0.52814 0.0
C413 C 0.54681 0.94994 0.49821 0.0
Gd414 Gd 0.538 0.04457 0.69761 0.0
Gd415 Gd 0.50569 1.00168 0.59853 0.0
N416 N 0.4947 0.97155 0.6567 0.0
C417 C 0.48175 0.93392 0.71776 0.0
C418 C 0.47944 0.973 0.70107 0.0
C419 C 0.47298 0.95429 0.73285 0.0
H420 H 0.47223 0.98852 0.71217 0.0
H421 H 0.46113 0.95558 0.76867 0.0
H422 H 0.5654 0.0595 0.57313 0.0
H423 H 0.54037 0.98426 0.49128 0.0
H424 H 0.57185 0.09284 0.51351 0.0
H425 H 0.47668 0.91945 0.74238 0.0
H426 H 0.50103 0.8972 0.67555 0.0
H427 H 0.51577 0.06112 0.8257 0.0
H428 H 0.54918 0.91525 0.51349 0.0
H429 H 0.5579 0.94982 0.46045 0.0
H430 H 0.53785 0.14997 0.6276 0.0
H431 H 0.52764 0.89574 0.59312 0.0
H432 H 0.50523 0.13046 0.81518 0.0
H433 H 0.50148 0.09538 0.87008 0.0
N434 N 0.52635 0.07655 0.74591 0.0
C435 C 0.52912 0.09568 0.71574 0.0
C436 C 0.51686 0.07629 0.80098 0.0
C437 C 0.51127 0.11545 0.79537 0.0
C438 C 0.50907 0.09568 0.82644 0.0
C439 C 0.52156 0.11566 0.73951 0.0
H440 H 0.51881 0.15067 0.72443 0.0
N441 N 0.54677 0.07567 0.63964 0.0
C442 C 0.53985 0.09528 0.66126 0.0
C443 C 0.55467 0.11385 0.57478 0.0
C444 C 0.54334 0.11487 0.62902 0.0
C445 C 0.55889 0.07478 0.58852 0.0
C446 C 0.56271 0.09375 0.55483 0.0
O447 O 0.52716 0.98832 0.67519 0.0
O448 O 0.52555 0.01496 0.74706 0.0
O449 O 0.57325 0.03996 0.70239 0.0
O450 O 0.55567 0.05281 0.77889 0.0
O451 O 0.48454 0.02384 0.65682 0.0
O452 O 0.50541 0.03396 0.73888 0.0
O453 O 0.51432 0.05866 0.62947 0.0
O454 O 0.51347 0.03411 0.55173 0.0
O455 O 0.47067 1.00155 0.58137 0.0
O456 O 0.49309 0.9894 0.51412 0.0
O457 O 0.55664 0.02079 0.63751 0.0
O458 O 0.53562 0.0163 0.55434 0.0
C459 C 0.52739 0.99428 0.73175 0.0
C460 C 0.48616 0.03055 0.71256 0.0
C461 C 0.58408 0.02715 0.79611 0.0
C462 C 0.61598 1.00423 0.81719 0.0
C463 C 0.58138 0.99814 0.86989 0.0
C464 C 0.57175 0.01531 0.8384 0.0
C465 C 0.60336 0.9927 0.85983 0.0
C466 C 0.60601 0.02137 0.78522 0.0
C467 C 0.57391 0.0443 0.75931 0.0
C468 C 0.53547 0.13477 0.65193 0.0
C469 C 0.52462 0.13517 0.70706 0.0
H470 H 0.55757 0.1285 0.54847 0.0
C471 C 0.51095 0.05409 0.57291 0.0
C472 C 0.55501 0.01827 0.57956 0.0
C473 C 0.46236 1.01019 0.48236 0.0
C474 C 0.42968 0.0306 0.4532 0.0
C475 C 0.46392 0.03519 0.39818 0.0
C476 C 0.47426 0.02024 0.43591 0.0
C477 C 0.4418 0.0404 0.40667 0.0
C478 C 0.44013 0.01541 0.4906 0.0
C479 C 0.47311 0.99571 0.5259 0.0
H480 H 0.57181 0.98908 0.90248 0.0
H481 H 0.55465 0.01913 0.84673 0.0
H482 H 0.61051 0.97976 0.88643 0.0
H483 H 0.61516 0.0301 0.75104 0.0
H484 H 0.4731 0.0428 0.36229 0.0
H485 H 0.49155 0.01681 0.42915 0.0
H486 H 0.43411 0.05183 0.37626 0.0
H487 H 0.43114 1.00804 0.52735 0.0
C488 C 0.46825 0.50903 0.78478 0.0
C489 C 0.486 0.51544 0.87986 0.0
C490 C 0.48459 0.51919 0.81791 0.0
C491 C 0.47145 0.50045 0.90703 0.0
C492 C 0.45272 0.49504 0.8123 0.0
C493 C 0.45478 0.49032 0.87334 0.0
N494 N 0.46694 0.51368 0.72579 0.0
C495 C 0.44938 0.50663 0.69263 0.0
C496 C 0.43526 0.48676 0.77794 0.0
C497 C 0.43338 0.4929 0.71807 0.0
Gd498 Gd 0.54053 0.5039 0.59774 0.0
Gd499 Gd 0.49414 0.5369 0.68582 0.0
N500 N 0.49793 0.53404 0.79039 0.0
C501 C 0.50133 0.52761 0.913 0.0
C502 C 0.51129 0.54741 0.82353 0.0
C503 C 0.51372 0.54399 0.88486 0.0
H504 H 0.51994 0.56096 0.80304 0.0
H505 H 0.52484 0.55424 0.91053 0.0
H506 H 0.52179 0.50036 0.4587 0.0
H507 H 0.44808 0.51124 0.64621 0.0
H508 H 0.52949 0.51702 0.35997 0.0
H509 H 0.50299 0.5252 0.96066 0.0
H510 H 0.47244 0.49718 0.95445 0.0
H511 H 0.58675 0.51261 0.68002 0.0
H512 H 0.42293 0.47603 0.79748 0.0
H513 H 0.41972 0.48694 0.69144 0.0
H514 H 0.59266 0.56329 0.39508 0.0
H515 H 0.44321 0.47936 0.89521 0.0
H516 H 0.62704 0.55915 0.58724 0.0
H517 H 0.61957 0.53651 0.67671 0.0
N518 N 0.57408 0.52369 0.59687 0.0
C519 C 0.57885 0.53455 0.54546 0.0
C520 C 0.58908 0.52332 0.64226 0.0
C521 C 0.61223 0.54915 0.58924 0.0
C522 C 0.60804 0.53646 0.63988 0.0
C523 C 0.59788 0.54781 0.54048 0.0
H524 H 0.61682 0.56908 0.48199 0.0
N525 N 0.54772 0.51763 0.50212 0.0
C526 C 0.56544 0.53115 0.49628 0.0
C527 C 0.55706 0.5362 0.39189 0.0
C528 C 0.57041 0.54112 0.44118 0.0
C529 C 0.53531 0.51183 0.45377 0.0
C530 C 0.53964 0.52123 0.39803 0.0
O531 O 0.4938 0.49924 0.68397 0.0
O532 O 0.53023 0.4917 0.68841 0.0
O533 O 0.53434 0.47044 0.56895 0.0
O534 O 0.56824 0.48205 0.58195 0.0
O535 O 0.52996 0.54559 0.70792 0.0
O536 O 0.54742 0.51266 0.6945 0.0
O537 O 0.52632 0.53512 0.55784 0.0
O538 O 0.52061 0.5569 0.63882 0.0
O539 O 0.47959 0.56605 0.72602 0.0
O540 O 0.4668 0.55306 0.64353 0.0
O541 O 0.50529 0.49677 0.56727 0.0
O542 O 0.48551 0.52806 0.59044 0.0
C543 C 0.50986 0.48607 0.69974 0.0
C544 C 0.54581 0.53177 0.72144 0.0
C545 C 0.56325 0.44377 0.5528 0.0
C546 C 0.55577 0.40482 0.53735 0.0
C547 C 0.59347 0.41836 0.53963 0.0
C548 C 0.58593 0.43968 0.54901 0.0
C549 C 0.57851 0.40095 0.53424 0.0
C550 C 0.54827 0.42628 0.54636 0.0
C551 C 0.5552 0.46569 0.56913 0.0
C552 C 0.58869 0.55527 0.43686 0.0
C553 C 0.60241 0.55861 0.48642 0.0
H554 H 0.56033 0.54352 0.34874 0.0
C555 C 0.52506 0.55474 0.58189 0.0
C556 C 0.48844 0.51007 0.55886 0.0
C557 C 0.46491 0.59137 0.65485 0.0
C558 C 0.47069 0.63105 0.6605 0.0
C559 C 0.45306 0.61493 0.5735 0.0
C560 C 0.45497 0.59412 0.59862 0.0
C561 C 0.46081 0.63331 0.60416 0.0
C562 C 0.47269 0.60998 0.68565 0.0
C563 C 0.46627 0.56917 0.68131 0.0
H564 H 0.61098 0.4153 0.53692 0.0
H565 H 0.59784 0.45287 0.55428 0.0
H566 H 0.58467 0.38456 0.52663 0.0
H567 H 0.53073 0.42921 0.54996 0.0
H568 H 0.44551 0.61682 0.53007 0.0
H569 H 0.44859 0.58015 0.57399 0.0
H570 H 0.45938 0.64928 0.58336 0.0
H571 H 0.48 0.60814 0.72945 0.0
C572 C 0.03812 0.46363 0.75203 0.0
C573 C 0.06013 0.47913 0.83219 0.0
C574 C 0.0437 0.48134 0.78813 0.0
C575 C 0.07104 0.45903 0.83877 0.0
C576 C 0.04889 0.44337 0.75888 0.0
C577 C 0.06542 0.4412 0.80225 0.0
N578 N 0.02244 0.46637 0.70943 0.0
C579 C 0.01612 0.44929 0.67388 0.0
C580 C 0.04279 0.4259 0.72166 0.0
C581 C 0.02623 0.42885 0.67924 0.0
Gd582 Gd 0.02932 0.54236 0.57768 0.0
Gd583 Gd 1.00728 0.50154 0.70124 0.0
N584 N 0.0333 0.5008 0.77946 0.0
C585 C 0.06513 0.49719 0.86834 0.0
C586 C 0.03714 0.51796 0.81724 0.0
C587 C 0.05336 0.51659 0.86137 0.0
H588 H 0.02749 0.53257 0.81481 0.0
H589 H 0.05659 0.53043 0.89039 0.0
H590 H 1.01124 0.51068 0.46261 0.0
H591 H 1.003 0.4513 0.64203 0.0
H592 H 0.98265 0.51175 0.38552 0.0
H593 H 0.0777 0.49618 0.90252 0.0
H594 H 0.08382 0.4571 0.87208 0.0
H595 H 0.03147 0.59272 0.63669 0.0
H596 H 0.05066 0.41007 0.72557 0.0
H597 H 0.02121 0.41538 0.65076 0.0
H598 H 0.95347 0.58441 0.40011 0.0
H599 H 0.07396 0.42579 0.80795 0.0
H600 H 0.98393 0.63262 0.54802 0.0
H601 H 1.01256 0.62818 0.62556 0.0
N602 N 1.01328 0.57706 0.56774 0.0
C603 C 0.99804 0.57931 0.52379 0.0
C604 C 0.01875 0.59436 0.60354 0.0
C605 C 0.99213 0.61699 0.55292 0.0
C606 C 1.00822 0.61453 0.59688 0.0
C607 C 0.98689 0.5993 0.51557 0.0
H608 H 0.96196 0.61615 0.46409 0.0
N609 N 1.00397 0.54218 0.49775 0.0
C610 C 0.99321 0.56135 0.48785 0.0
C611 C 0.97294 0.54476 0.4065 0.0
C612 C 0.97719 0.56305 0.44248 0.0
C613 C 1.00104 0.52491 0.45978 0.0
C614 C 0.98518 0.52572 0.41461 0.0
O615 O 0.04306 0.49883 0.67176 0.0
O616 O 0.05345 0.5341 0.65175 0.0
O617 O 0.05112 0.53621 0.50346 0.0
O618 O 0.05302 0.56726 0.54998 0.0
O619 O 1.00567 0.53835 0.72291 0.0
O620 O 0.03488 0.55378 0.67216 0.0
O621 O 0.99361 0.54519 0.60759 0.0
O622 O 0.98302 0.50994 0.62751 0.0
O623 O 0.98588 0.50836 0.77588 0.0
O624 O 0.98355 0.47701 0.73091 0.0
O625 O 0.03117 0.50548 0.55699 0.0
O626 O 1.00155 0.49042 0.60663 0.0
C627 C 0.05799 0.5145 0.67237 0.0
C628 C 0.02044 0.55417 0.71588 0.0
C629 C 0.08632 0.54968 0.52436 0.0
C630 C 0.11825 0.52778 0.4992 0.0
C631 C 0.11756 0.54803 0.5921 0.0
C632 C 0.0966 0.55584 0.5782 0.0
C633 C 0.12826 0.53373 0.55323 0.0
C634 C 0.09757 0.53614 0.48442 0.0
C635 C 0.06281 0.55383 0.5137 0.0
C636 C 0.96594 0.58288 0.43444 0.0
C637 C 0.97078 0.60096 0.47085 0.0
H638 H 0.96067 0.54534 0.37145 0.0
C639 C 0.97861 0.52956 0.60665 0.0
C640 C 0.01623 0.48978 0.56354 0.0
C641 C 0.95042 0.49438 0.75951 0.0
C642 C 0.91801 0.51492 0.78835 0.0
C643 C 0.91696 0.49209 0.7 0.0
C644 C 0.93884 0.48608 0.70983 0.0
C645 C 0.90656 0.5066 0.73893 0.0
C646 C 0.93973 0.50856 0.79895 0.0
C647 C 0.97416 0.49062 0.76748 0.0
H648 H 0.12527 0.55263 0.63375 0.0
H649 H 0.0882 0.566 0.61048 0.0
H650 H 0.14427 0.52735 0.56516 0.0
H651 H 0.08963 0.53099 0.4433 0.0
H652 H 0.90816 0.48571 0.66172 0.0
H653 H 0.94676 0.47537 0.67797 0.0
H654 H 0.88969 0.51135 0.73053 0.0
H655 H 0.94853 0.51524 0.83706 0.0
H656 H 0.14963 1.00809 0.33503 0.0
H657 H 0.13866 0.07278 0.26028 0.0
H658 H 0.10835 0.07856 0.33174 0.0
H659 H 0.09248 0.99449 0.35983 0.0
H660 H 0.09748 0.98023 0.42888 0.0
H661 H 0.11852 0.98124 0.37234 0.0
H662 H 0.14598 0.99788 0.4487 0.0
H663 H 0.12502 0.99688 0.50544 0.0
H664 H 0.13869 0.02248 0.48849 0.0
H665 H 0.07784 0.07675 0.40977 0.0
H666 H 0.05148 0.06818 0.49071 0.0
H667 H 0.08276 1.00507 0.51623 0.0
C668 C 0.14085 0.02347 0.33347 0.0
C669 C 0.14676 0.04 0.2917 0.0
C670 C 0.13483 0.05995 0.29209 0.0
C671 C 0.11741 0.06334 0.33236 0.0
C672 C 0.112 0.04669 0.37259 0.0
C673 C 0.12347 0.02719 0.3737 0.0
C674 C 0.11443 1.01198 0.42167 0.0
C675 C 0.10518 0.99073 0.39402 0.0
C676 C 0.13208 1.00702 0.46887 0.0
C677 C 0.09612 0.02595 0.44739 0.0
C678 C 0.09485 0.04586 0.41818 0.0
C679 C 0.07884 0.06125 0.43315 0.0
C680 C 0.06386 0.05621 0.47922 0.0
C681 C 0.06504 0.03603 0.5105 0.0
C682 C 0.08148 0.02077 0.49394 0.0
H683 H 0.51931 0.12856 0.27542 0.0
H684 H 0.4915 0.18136 0.38077 0.0
H685 H 0.4878 0.15628 0.46613 0.0
H686 H 0.48601 0.0843 0.3361 0.0
H687 H 0.50818 0.06479 0.33672 0.0
H688 H 0.50807 0.08667 0.28268 0.0
H689 H 0.54688 0.09893 0.31868 0.0
H690 H 0.54686 0.07706 0.37279 0.0
H691 H 0.55118 0.10501 0.39654 0.0
H692 H 0.48787 0.12607 0.54177 0.0
H693 H 0.49215 0.09285 0.60295 0.0
H694 H 0.52029 0.05874 0.45156 0.0
C695 C 0.51252 0.13495 0.31643 0.0
C696 C 0.50546 0.15715 0.32036 0.0
C697 C 0.49657 0.16449 0.37532 0.0
C698 C 0.49453 0.15034 0.42454 0.0
C699 C 0.5015 0.1287 0.41893 0.0
C700 C 0.51039 0.12098 0.36642 0.0
C701 C 0.51699 0.09699 0.37313 0.0
C702 C 0.50403 0.08233 0.32956 0.0
C703 C 0.54196 0.09435 0.36478 0.0
C704 C 0.5103 0.09245 0.43744 0.0
C705 C 0.50146 0.11107 0.46286 0.0
C706 C 0.49464 0.11138 0.52214 0.0
C707 C 0.49715 0.09234 0.55661 0.0
C708 C 0.50643 0.07302 0.53228 0.0
C709 C 0.51282 0.07307 0.47139 0.0
H710 H 0.39315 0.53781 0.32177 0.0
H711 H 0.39821 0.47073 0.25858 0.0
H712 H 0.42714 0.46365 0.33335 0.0
H713 H 0.45129 0.54626 0.34982 0.0
H714 H 0.44704 0.56245 0.41602 0.0
H715 H 0.42665 0.56231 0.35763 0.0
H716 H 0.39687 0.55022 0.43376 0.0
H717 H 0.41722 0.55035 0.49223 0.0
H718 H 0.40115 0.52591 0.47796 0.0
H719 H 0.4566 0.46404 0.41401 0.0
H720 H 0.48281 0.4716 0.49611 0.0
H721 H 0.45826 0.53816 0.5083 0.0
C722 C 0.4004 0.52165 0.32334 0.0
C723 C 0.39319 0.50482 0.28394 0.0
C724 C 0.40308 0.48385 0.28846 0.0
C725 C 0.41968 0.47969 0.33067 0.0
C726 C 0.42636 0.4966 0.36864 0.0
C727 C 0.41696 0.51716 0.36557 0.0
C728 C 0.42702 0.53243 0.41199 0.0
C729 C 0.43869 0.55202 0.38206 0.0
C730 C 0.40952 0.54018 0.45663 0.0
C731 C 0.44349 0.51725 0.4416 0.0
C732 C 0.44298 0.4967 0.41569 0.0
C733 C 0.45704 0.48007 0.43475 0.0
C734 C 0.47193 0.48453 0.48147 0.0
C735 C 0.47262 0.50541 0.50926 0.0
C736 C 0.4581 0.52192 0.48869 0.0
H737 H 0.05089 0.41146 0.2867 0.0
H738 H 0.99092 0.37476 0.32312 0.0
H739 H 0.9821 0.40023 0.40489 0.0
H740 H 0.06409 0.42263 0.44223 0.0
H741 H 0.07476 0.44985 0.42862 0.0
H742 H 0.07636 0.42924 0.37121 0.0
H743 H 0.05575 0.45489 0.2984 0.0
H744 H 0.0541 0.47553 0.35574 0.0
H745 H 0.02937 0.4658 0.31957 0.0
H746 H 0.97887 0.42973 0.48058 0.0
H747 H 0.98243 0.46037 0.55095 0.0
H748 H 0.04562 0.47797 0.47304 0.0
C749 C 0.03589 0.40891 0.31185 0.0
C750 C 0.02158 0.39101 0.29839 0.0
C751 C 1.0022 0.38815 0.33275 0.0
C752 C 0.997 0.40262 0.3792 0.0
C753 C 1.0114 0.41992 0.39165 0.0
C754 C 0.03056 0.42312 0.35951 0.0
C755 C 0.04339 0.44277 0.38412 0.0
C756 C 0.06599 0.43569 0.40796 0.0
C757 C 0.04579 0.46082 0.33661 0.0
C758 C 0.02835 0.45008 0.43471 0.0
C759 C 1.00994 0.43667 0.43761 0.0
C760 C 0.99335 0.44017 0.47924 0.0
C761 C 0.99563 0.45766 0.51943 0.0
C762 C 0.01454 0.47148 0.51894 0.0
C763 C 0.03107 0.46763 0.47536 0.0
H764 H 0.89662 0.0343 0.96637 0.0
H765 H 0.89474 0.96441 1.00361 0.0
H766 H 0.92455 0.95863 0.93084 0.0
H767 H 0.90675 0.0291 0.80698 0.0
H768 H 0.92478 0.05269 0.80395 0.0
H769 H 0.90318 0.05138 0.85891 0.0
H770 H 0.93204 0.05747 0.9427 0.0
H771 H 0.95367 0.05868 0.88787 0.0
H772 H 0.95518 0.03922 0.94826 0.0
H773 H 0.95496 0.96029 0.85285 0.0
H774 H 0.98261 0.96944 0.77563 0.0
H775 H 0.96517 0.03815 0.78947 0.0
C776 C 0.90227 0.01773 0.9589 0.0
C777 C 0.89321 0.99984 0.99154 0.0
C778 C 0.90149 0.9785 0.98037 0.0
C779 C 0.9184 0.975 0.93869 0.0
C780 C 0.92707 0.99297 0.9079 0.0
C781 C 0.91923 0.01392 0.91734 0.0
C782 C 0.93145 0.03041 0.87835 0.0
C783 C 0.91559 0.04155 0.83446 0.0
C784 C 0.94382 0.04745 0.91659 0.0
C785 C 0.94737 0.01549 0.8458 0.0
C786 C 0.94456 0.99392 0.86333 0.0
C787 C 0.95726 0.97715 0.83892 0.0
C788 C 0.97304 0.98252 0.79518 0.0
C789 C 0.97617 1.00452 0.77623 0.0
C790 C 0.96318 0.02115 0.80256 0.0
H791 H 0.5489 0.88015 0.90994 0.0
H792 H 0.51405 0.91016 0.05733 0.0
H793 H 0.50775 0.94318 0.99656 0.0
H794 H 0.57587 0.93075 0.86148 0.0
H795 H 0.57421 0.92449 0.78308 0.0
H796 H 0.57564 0.90258 0.83691 0.0
H797 H 0.53936 0.88562 0.79524 0.0
H798 H 0.53878 0.90725 0.74066 0.0
H799 H 0.51535 0.90268 0.78873 0.0
H800 H 0.50604 0.97337 0.92319 0.0
H801 H 0.5083 0.99934 0.83982 0.0
H802 H 0.54387 0.95128 0.73512 0.0
C803 C 0.53975 0.89362 0.92899 0.0
C804 C 0.53196 0.8925 0.98871 0.0
C805 C 0.52031 0.91062 1.01211 0.0
C806 C 0.51659 0.92947 0.97781 0.0
C807 C 0.52468 0.93024 0.91974 0.0
C808 C 0.53606 0.9129 0.89522 0.0
C809 C 0.54354 0.91866 0.83205 0.0
C810 C 0.56881 0.91914 0.82817 0.0
C811 C 0.53363 0.90259 0.78646 0.0
C812 C 0.53412 0.94167 0.82467 0.0
C813 C 0.52354 0.94794 0.8764 0.0
C814 C 0.5142 0.9686 0.88237 0.0
C815 C 0.51568 0.98333 0.83457 0.0
C816 C 0.52628 0.97752 0.78057 0.0
C817 C 0.53552 0.95623 0.77552 0.0
H818 H 0.63742 0.50443 0.96837 0.0
H819 H 0.64301 0.57439 1.00228 0.0
H820 H 0.61426 0.58132 0.92696 0.0
H821 H 0.6295 0.50901 0.80861 0.0
H822 H 0.61023 0.48643 0.80499 0.0
H823 H 0.63115 0.48695 0.86198 0.0
H824 H 0.60101 0.48313 0.94323 0.0
H825 H 0.58006 0.48265 0.88634 0.0
H826 H 0.57886 0.50265 0.94546 0.0
H827 H 0.58481 0.58074 0.84543 0.0
H828 H 0.55755 0.5724 0.76614 0.0
H829 H 0.57097 0.50299 0.78621 0.0
C830 C 0.63278 0.52125 0.95979 0.0
C831 C 0.64261 0.53883 0.99205 0.0
C832 C 0.63564 0.56053 0.97937 0.0
C833 C 0.61935 0.56468 0.93618 0.0
C834 C 0.61001 0.547 0.90552 0.0
C835 C 0.6165 0.5257 0.91677 0.0
C836 C 0.6039 0.50961 0.87752 0.0
C837 C 0.61964 0.49728 0.83581 0.0
C838 C 0.59014 0.49357 0.91542 0.0
C839 C 0.58928 0.52515 0.8427 0.0
C840 C 0.59307 0.54667 0.85924 0.0
C841 C 0.58168 0.56391 0.83242 0.0
C842 C 0.56613 0.55902 0.78754 0.0
C843 C 0.56194 0.53706 0.76993 0.0
C844 C 0.57373 0.51999 0.79838 0.0
H845 H 0.98694 0.63117 0.9963 0.0
H846 H 0.04609 0.66889 0.95724 0.0
H847 H 0.05449 0.64394 0.87411 0.0
H848 H 1.00939 0.57743 0.96129 0.0
H849 H 0.98452 0.5672 0.92686 0.0
H850 H 0.98299 0.58771 0.98457 0.0
H851 H 0.96107 0.61299 0.91366 0.0
H852 H 0.96253 0.5925 0.85591 0.0
H853 H 0.97245 0.61997 0.84184 0.0
H854 H 0.0574 0.61482 0.79703 0.0
H855 H 0.05372 0.58431 0.72629 0.0
H856 H 0.99181 0.56515 0.80891 0.0
C857 C 1.00168 0.6341 0.97029 0.0
C858 C 0.0158 0.6522 0.98341 0.0
C859 C 0.03484 0.65544 0.94788 0.0
C860 C 0.03984 0.64124 0.90064 0.0
C861 C 0.02562 0.62375 0.88866 0.0
C862 C 1.00683 0.62012 0.92202 0.0
C863 C 0.99419 0.60022 0.89811 0.0
C864 C 0.99269 0.58206 0.94555 0.0
C865 C 0.9712 0.60682 0.87607 0.0
C866 C 1.00887 0.59333 0.84633 0.0
C867 C 0.02696 0.60712 0.84231 0.0
C868 C 0.04317 0.60407 0.79933 0.0
C869 C 0.04083 0.58664 0.75896 0.0
C870 C 0.02224 0.5724 0.7607 0.0
C871 C 1.00611 0.5758 0.80564 0.0
H872 H 0.06863 0.16921 0.25366 0.0
H873 H 0.07809 0.2265 0.3662 0.0
H874 H 0.05728 0.20862 0.44604 0.0
H875 H 0.01609 0.16141 0.28284 0.0
H876 H 0.01533 0.13185 0.28597 0.0
H877 H 0.0363 0.14555 0.24317 0.0
H878 H 0.06695 0.12581 0.30243 0.0
H879 H 0.04606 0.11134 0.34426 0.0
H880 H 0.06698 0.12698 0.38274 0.0
H881 H 0.02762 0.18981 0.50169 0.0
H882 H 0.99666 0.1669 0.53881 0.0
H883 H 1.00637 0.12143 0.39282 0.0
C884 C 0.06719 0.17754 0.29611 0.0
C885 C 0.07507 0.19925 0.30336 0.0
C886 C 0.07266 0.20972 0.35948 0.0
C887 C 0.06062 0.19976 0.40525 0.0
C888 C 0.05144 0.17917 0.39478 0.0
C889 C 0.0552 0.16776 0.34245 0.0
C890 C 0.04148 0.14692 0.34004 0.0
C891 C 0.02641 0.14643 0.28474 0.0
C892 C 0.05625 0.12656 0.34254 0.0
C893 C 0.0283 0.14934 0.39683 0.0
C894 C 0.03444 0.16794 0.42808 0.0
C895 C 0.02309 0.17484 0.4787 0.0
C896 C 1.00537 0.162 0.4989 0.0
C897 C 0.99934 0.1426 0.46842 0.0
C898 C 1.01091 0.1362 0.41689 0.0
H899 H 0.32499 0.09807 0.37901 0.0
H900 H 0.29067 0.03548 0.39193 0.0
H901 H 0.31992 0.02147 0.45521 0.0
H902 H 0.37065 0.07676 0.33965 0.0
H903 H 0.38987 0.09481 0.3769 0.0
H904 H 0.36288 0.10438 0.35879 0.0
H905 H 0.35555 0.11413 0.46931 0.0
H906 H 0.38293 0.10512 0.48788 0.0
H907 H 0.35947 0.09366 0.52632 0.0
H908 H 0.3566 1.00952 0.48343 0.0
H909 H 0.39627 1.00197 0.48079 0.0
H910 H 0.4096 0.07061 0.44305 0.0
C911 C 0.32321 0.08167 0.39692 0.0
C912 C 0.30559 0.06787 0.37882 0.0
C913 C 0.3037 0.0467 0.40478 0.0
C914 C 0.32049 0.03842 0.4409 0.0
C915 C 0.33908 0.05142 0.45093 0.0
C916 C 0.34038 0.07285 0.43073 0.0
C917 C 0.36378 0.08163 0.43493 0.0
C918 C 0.37227 0.08984 0.37396 0.0
C919 C 0.36553 0.0997 0.48247 0.0
C920 C 0.37566 0.06115 0.45474 0.0
C921 C 0.36102 0.04418 0.46609 0.0
C922 C 0.36819 0.02287 0.47692 0.0
C923 C 0.39081 0.01872 0.47512 0.0
C924 C 0.40606 0.03573 0.46191 0.0
C925 C 0.39833 0.05729 0.45332 0.0
H926 H 0.46853 0.33924 0.35186 0.0
H927 H 0.48556 0.28154 0.45486 0.0
H928 H 0.50505 0.30517 0.52745 0.0
H929 H 0.5164 0.36329 0.35703 0.0
H930 H 0.50756 0.39135 0.36378 0.0
H931 H 0.48973 0.37139 0.32972 0.0
H932 H 0.45876 0.38009 0.40512 0.0
H933 H 0.47626 0.4007 0.43866 0.0
H934 H 0.46446 0.37921 0.48399 0.0
H935 H 0.53015 0.33348 0.57264 0.0
H936 H 0.55532 0.36477 0.59304 0.0
H937 H 0.52086 0.40379 0.46176 0.0
C938 C 0.47513 0.33155 0.39145 0.0
C939 C 0.47545 0.30846 0.39749 0.0
C940 C 0.48518 0.29917 0.44901 0.0
C941 C 0.49621 0.31249 0.49064 0.0
C942 C 0.49697 0.33509 0.48075 0.0
C943 C 0.48613 0.3446 0.43318 0.0
C944 C 0.49186 0.36872 0.42734 0.0
C945 C 0.50199 0.37396 0.36587 0.0
C946 C 0.47163 0.38303 0.43954 0.0
C947 C 0.5087 0.37099 0.47659 0.0
C948 C 0.51122 0.35154 0.50757 0.0
C949 C 0.52782 0.34897 0.55 0.0
C950 C 0.54217 0.3667 0.56085 0.0
C951 C 0.53979 0.38665 0.52932 0.0
C952 C 0.52261 0.38887 0.48754 0.0
H953 H 0.18283 0.4935 0.21077 0.0
H954 H 0.18764 0.42777 0.28393 0.0
H955 H 0.16202 0.43812 0.36453 0.0
H956 H 0.18593 0.52044 0.33849 0.0
H957 H 0.16667 0.54192 0.32159 0.0
H958 H 0.18106 0.52843 0.26222 0.0
H959 H 0.14424 0.51757 0.21144 0.0
H960 H 0.12961 0.53176 0.26953 0.0
H961 H 0.12333 0.50338 0.25389 0.0
H962 H 0.14257 0.45797 0.44761 0.0
H963 H 0.12633 0.48448 0.51893 0.0
H964 H 0.13346 0.53636 0.38832 0.0
C965 C 0.17762 0.48081 0.24153 0.0
C966 C 0.18727 0.45978 0.24082 0.0
C967 C 0.18055 0.44402 0.28372 0.0
C968 C 0.16598 0.44974 0.3296 0.0
C969 C 0.158 0.47112 0.33114 0.0
C970 C 0.16312 0.48622 0.28721 0.0
C971 C 0.15439 0.50875 0.30194 0.0
C972 C 0.17313 0.52587 0.30632 0.0
C973 C 0.13684 0.51577 0.2565 0.0
C974 C 0.14434 0.50421 0.36221 0.0
C975 C 0.14649 0.48242 0.37839 0.0
C976 C 0.1403 0.47492 0.43478 0.0
C977 C 0.13138 0.49004 0.47511 0.0
C978 C 0.12876 0.51223 0.45845 0.0
C979 C 0.13519 0.51935 0.40141 0.0
H980 H 0.96873 0.83556 0.9197 0.0
H981 H 0.9701 0.88154 0.067 0.0
H982 H 0.98173 0.91103 0.99806 0.0
H983 H 0.0155 0.84992 0.86152 0.0
H984 H 1.00872 0.84724 0.78358 0.0
H985 H 0.99362 0.8317 0.83795 0.0
H986 H 0.95692 0.84811 0.80057 0.0
H987 H 0.97186 0.86348 0.74479 0.0
H988 H 0.95392 0.87747 0.79596 0.0
H989 H 1.0018 0.93218 0.92152 0.0
H990 H 0.02804 0.94353 0.84437 0.0
H991 H 1.01341 0.88422 0.74413 0.0
C992 C 0.97021 0.85212 0.93679 0.0
C993 C 0.96824 0.85639 0.99845 0.0
C994 C 0.97136 0.87802 0.01978 0.0
C995 C 0.97784 0.89487 0.98085 0.0
C996 C 0.98096 0.8898 0.92076 0.0
C997 C 0.97688 0.86899 0.89858 0.0
C998 C 0.98513 0.86669 0.83514 0.0
C999 C 1.00173 0.84779 0.8293 0.0
C1000 C 0.9658 0.86377 0.79153 0.0
C1001 C 0.99615 0.8888 0.82691 0.0
C1002 C 0.99293 0.90215 0.876 0.0
C1003 C 1.0038 0.9222 0.882 0.0
C1004 C 0.01871 0.92854 0.83758 0.0
C1005 C 0.02272 0.91485 0.78758 0.0
C1006 C 1.01072 0.89506 0.78162 0.0
H1007 H 0.71942 0.93807 0.90392 0.0
H1008 H 0.75342 1.00087 0.89389 0.0
H1009 H 0.72548 0.0143 0.82549 0.0
H1010 H 0.68877 0.94178 0.74899 0.0
H1011 H 0.66458 0.9299 0.78297 0.0
H1012 H 0.69159 0.92131 0.80648 0.0
H1013 H 0.68136 0.93076 0.91541 0.0
H1014 H 0.65472 0.9399 0.89248 0.0
H1015 H 0.67266 0.95823 0.93328 0.0
H1016 H 0.68926 0.0259 0.79372 0.0
H1017 H 0.6497 0.03319 0.79313 0.0
H1018 H 0.63633 0.96403 0.82414 0.0
C1019 C 0.72147 0.95434 0.88534 0.0
C1020 C 0.73853 0.96841 0.90569 0.0
C1021 C 0.7408 0.98946 0.87927 0.0
C1022 C 0.72477 0.9974 0.84021 0.0
C1023 C 0.70659 0.98414 0.82745 0.0
C1024 C 0.70508 0.96275 0.84796 0.0
C1025 C 0.68197 0.95362 0.83944 0.0
C1026 C 0.68172 0.93559 0.7916 0.0
C1027 C 0.67212 0.94517 0.89866 0.0
C1028 C 0.67028 0.97394 0.81754 0.0
C1029 C 0.68493 0.9911 0.80867 0.0
C1030 C 0.67771 1.01239 0.79795 0.0
C1031 C 0.65505 0.01638 0.79774 0.0
C1032 C 0.63971 0.99918 0.80836 0.0
C1033 C 0.64756 0.97757 0.81604 0.0
H1034 H 0.55543 0.69874 0.85901 0.0
H1035 H 0.506 0.74987 0.86782 0.0
H1036 H 0.48459 0.73098 0.79038 0.0
H1037 H 0.54744 0.68251 0.69807 0.0
H1038 H 0.55047 0.6539 0.71632 0.0
H1039 H 0.56517 0.67447 0.75868 0.0
H1040 H 0.54794 0.65883 0.85579 0.0
H1041 H 0.53284 0.63865 0.81365 0.0
H1042 H 0.51839 0.65711 0.8624 0.0
H1043 H 0.46549 0.70392 0.72398 0.0
H1044 H 0.45074 0.67098 0.67303 0.0
H1045 H 0.50976 0.6353 0.72056 0.0
C1046 C 0.54034 0.70629 0.84401 0.0
C1047 C 0.53254 0.72589 0.87016 0.0
C1048 C 0.51279 0.7352 0.84811 0.0
C1049 C 0.5003 0.72445 0.80424 0.0
C1050 C 0.50767 0.70435 0.78297 0.0
C1051 C 0.52733 0.69541 0.80182 0.0
C1052 C 0.52997 0.67218 0.7791 0.0
C1053 C 0.54942 0.67069 0.73545 0.0
C1054 C 0.53242 0.65574 0.83082 0.0
C1055 C 0.50828 0.66913 0.74703 0.0
C1056 C 0.49596 0.68808 0.74805 0.0
C1057 C 0.47514 0.68908 0.7221 0.0
C1058 C 0.46689 0.6703 0.69345 0.0
C1059 C 0.47922 0.65067 0.69227 0.0
C1060 C 0.5 0.65009 0.7204 0.0
H1061 H 0.84839 0.54795 0.07041 0.0
H1062 H 0.85387 0.61584 1.01405 0.0
H1063 H 0.87989 0.60482 0.93466 0.0
H1064 H 0.90596 0.53078 0.0339 0.0
H1065 H 0.89624 0.50433 1.00871 0.0
H1066 H 0.88195 0.51841 0.06761 0.0
H1067 H 0.84577 0.51522 1.00678 0.0
H1068 H 0.85998 0.50179 0.94693 0.0
H1069 H 0.8447 0.52646 0.93247 0.0
H1070 H 0.90094 0.58541 0.85294 0.0
H1071 H 0.91701 0.55942 0.77979 0.0
H1072 H 0.89633 0.50466 0.88974 0.0
C1073 C 0.85591 0.56072 0.0435 0.0
C1074 C 0.84945 0.58283 0.0491 0.0
C1075 C 0.85884 0.59885 1.01089 0.0
C1076 C 0.87357 0.59272 0.9657 0.0
C1077 C 0.87867 0.57055 0.95958 0.0
C1078 C 0.87033 0.55486 0.9981 0.0
C1079 C 0.8762 0.5319 0.97852 0.0
C1080 C 0.89098 0.5207 0.02495 0.0
C1081 C 0.85543 0.51805 0.9654 0.0
C1082 C 0.88871 0.53702 0.9221 0.0
C1083 C 0.89017 0.55939 0.912 0.0
C1084 C 0.90011 0.5679 0.86083 0.0
C1085 C 0.90898 0.55313 0.81944 0.0
C1086 C 0.90757 0.53029 0.8296 0.0
C1087 C 0.89742 0.52215 0.88139 0.0
H1088 H 1.00346 0.16474 0.89059 0.0
H1089 H 0.07204 0.18283 0.86418 0.0
H1090 H 0.07783 0.14858 0.80804 0.0
H1091 H 1.01228 0.1061 0.90834 0.0
H1092 H 0.98759 0.09838 0.86865 0.0
H1093 H 0.98883 0.12407 0.90829 0.0
H1094 H 0.97848 0.14475 0.8114 0.0
H1095 H 0.97728 0.1191 0.77156 0.0
H1096 H 0.9949 0.14097 0.74532 0.0
H1097 H 0.07597 0.11293 0.74999 0.0
H1098 H 0.06678 0.07824 0.69863 0.0
H1099 H 0.99981 0.08212 0.76418 0.0
C1100 C 0.01971 0.16157 0.87298 0.0
C1101 C 0.03732 0.17671 0.88253 0.0
C1102 C 0.05832 0.17155 0.85882 0.0
C1103 C 0.06176 0.15213 0.82631 0.0
C1104 C 0.04409 0.13772 0.81759 0.0
C1105 C 0.02349 0.14212 0.8405 0.0
C1106 C 1.00728 0.12384 0.8244 0.0
C1107 C 0.99848 0.11242 0.88079 0.0
C1108 C 0.98837 0.1327 0.78588 0.0
C1109 C 0.02196 0.10858 0.78862 0.0
C1110 C 0.04313 0.11695 0.78516 0.0
C1111 C 0.0595 0.10613 0.75324 0.0
C1112 C 0.05418 0.08625 0.72455 0.0
C1113 C 0.03277 0.07699 0.7284 0.0
C1114 C 0.01643 0.08855 0.76065 0.0
H1115 H 0.35661 0.01944 0.79193 0.0
H1116 H 0.37269 0.04988 0.96193 0.0
H1117 H 0.41139 0.05284 0.93159 0.0
H1118 H 0.40638 0.98867 0.7757 0.0
H1119 H 0.40904 0.99317 0.6966 0.0
H1120 H 0.3822 0.99317 0.73076 0.0
H1121 H 0.3749 0.03189 0.68786 0.0
H1122 H 0.40169 0.03191 0.65338 0.0
H1123 H 0.39416 0.05384 0.70311 0.0
H1124 H 0.44884 0.05034 0.88712 0.0
H1125 H 0.48222 0.0456 0.8274 0.0
H1126 H 0.44286 0.02037 0.6807 0.0
C1127 C 0.36817 0.02698 0.82259 0.0
C1128 C 0.36132 0.03399 0.88019 0.0
C1129 C 0.37729 0.04367 0.91852 0.0
C1130 C 0.39943 0.04564 0.90146 0.0
C1131 C 0.40563 0.03821 0.84528 0.0
C1132 C 0.3905 0.02934 0.80592 0.0
C1133 C 0.40181 0.02283 0.74789 0.0
C1134 C 0.39973 0.99798 0.73712 0.0
C1135 C 0.39259 0.0359 0.69493 0.0
C1136 C 0.42558 0.0294 0.76119 0.0
C1137 C 0.42732 0.03801 0.81794 0.0
C1138 C 0.4476 0.04407 0.84209 0.0
C1139 C 0.46661 0.04145 0.80738 0.0
C1140 C 0.46546 0.03327 0.74829 0.0
C1141 C 0.44447 0.02714 0.72514 0.0
H1142 H 0.53631 0.37167 0.86587 0.0
H1143 H 0.46604 0.35814 0.86185 0.0
H1144 H 0.45991 0.39336 0.81063 0.0
H1145 H 0.53243 0.42982 0.89266 0.0
H1146 H 0.55533 0.43706 0.84534 0.0
H1147 H 0.55447 0.41062 0.88124 0.0
H1148 H 0.55848 0.39155 0.77857 0.0
H1149 H 0.55937 0.41795 0.74244 0.0
H1150 H 0.53922 0.39775 0.71983 0.0
H1151 H 0.46123 0.42974 0.75688 0.0
H1152 H 0.46991 0.4651 0.7088 0.0
H1153 H 0.53901 0.45654 0.75038 0.0
C1154 C 0.51963 0.37602 0.85393 0.0
C1155 C 0.50164 0.36195 0.86855 0.0
C1156 C 0.4801 0.36859 0.85237 0.0
C1157 C 0.47644 0.38857 0.82272 0.0
C1158 C 0.49445 0.402 0.80926 0.0
C1159 C 0.51564 0.39607 0.82443 0.0
C1160 C 0.53204 0.41375 0.80519 0.0
C1161 C 0.54429 0.42338 0.85934 0.0
C1162 C 0.54823 0.4047 0.75876 0.0
C1163 C 0.51673 0.43056 0.77737 0.0
C1164 C 0.49514 0.42332 0.77976 0.0
C1165 C 0.47806 0.43567 0.75563 0.0
C1166 C 0.48312 0.45595 0.72889 0.0
C1167 C 0.50499 0.46415 0.72721 0.0
C1168 C 0.52203 0.45102 0.75144 0.0
H1169 H 0.16468 0.54022 0.87486 0.0
H1170 H 0.18492 0.47305 0.84167 0.0
H1171 H 0.15146 0.46691 0.78219 0.0
H1172 H 0.10586 0.52958 0.88263 0.0
H1173 H 0.09843 0.55436 0.84395 0.0
H1174 H 0.12336 0.55352 0.8875 0.0
H1175 H 0.14562 0.56591 0.79618 0.0
H1176 H 0.1213 0.56631 0.75014 0.0
H1177 H 0.14465 0.54999 0.72862 0.0
H1178 H 0.11536 0.46762 0.72607 0.0
H1179 H 0.08035 0.47585 0.67469 0.0
H1180 H 0.08452 0.5432 0.73617 0.0
C1181 C 0.16227 0.5242 0.85502 0.0
C1182 C 0.17774 0.50709 0.86434 0.0
C1183 C 0.17338 0.48639 0.83735 0.0
C1184 C 0.15438 0.48274 0.80272 0.0
C1185 C 0.13969 0.49993 0.79443 0.0
C1186 C 0.14342 0.5203 0.81963 0.0
C1187 C 0.12527 0.53617 0.8021 0.0
C1188 C 0.11247 0.54386 0.85733 0.0
C1189 C 0.13476 0.55576 0.76715 0.0
C1190 C 0.11094 0.52161 0.76256 0.0
C1191 C 0.11943 0.50066 0.7595 0.0
C1192 C 0.10871 0.48403 0.72774 0.0
C1193 C 0.08881 0.48886 0.69863 0.0
C1194 C 0.07979 0.5102 0.70068 0.0
C1195 C 0.09119 0.52682 0.7328 0.0
H1196 H 1.00168 0.85687 0.49536 0.0
H1197 H 0.01713 0.87847 0.31551 0.0
H1198 H 0.02082 0.91645 0.35143 0.0
H1199 H 0.96972 0.90475 0.53645 0.0
H1200 H 0.97961 0.90569 0.61223 0.0
H1201 H 0.97814 0.87987 0.57323 0.0
H1202 H 0.01964 0.8735 0.59415 0.0
H1203 H 0.02072 0.89924 0.63348 0.0
H1204 H 0.0394 0.89428 0.57266 0.0
H1205 H 0.0238 0.95192 0.40539 0.0
H1206 H 0.02426 0.98336 0.47357 0.0
H1207 H 1.00611 0.94068 0.62077 0.0
C1208 C 1.00593 0.86957 0.46355 0.0
C1209 C 1.00893 0.86444 0.4021 0.0
C1210 C 0.0143 0.88177 0.36231 0.0
C1211 C 0.01663 0.90347 0.38245 0.0
C1212 C 1.01355 0.90792 0.44283 0.0
C1213 C 1.00822 0.89156 0.48298 0.0
C1214 C 1.00547 0.90119 0.54544 0.0
C1215 C 0.98183 0.89766 0.56816 0.0
C1216 C 0.02233 0.89145 0.58896 0.0
C1217 C 1.0102 0.92544 0.53393 0.0
C1218 C 0.01487 0.92877 0.47427 0.0
C1219 C 0.01994 0.94952 0.45205 0.0
C1220 C 0.01996 0.9674 0.49131 0.0
C1221 C 0.01469 0.9648 0.55251 0.0
C1222 C 1.01007 0.94334 0.57424 0.0
H1223 H 0.68487 0.01451 0.49946 0.0
H1224 H 0.66508 0.01693 0.31342 0.0
H1225 H 0.62621 0.01778 0.34383 0.0
H1226 H 0.63998 0.97985 0.5505 0.0
H1227 H 0.63663 0.99395 0.62055 0.0
H1228 H 0.66319 0.99348 0.58488 0.0
H1229 H 0.66471 0.03594 0.58723 0.0
H1230 H 0.63815 0.03642 0.62293 0.0
H1231 H 0.64254 0.05136 0.55452 0.0
H1232 H 0.58941 0.01897 0.39296 0.0
H1233 H 0.55684 0.01974 0.45794 0.0
H1234 H 0.59915 0.01622 0.61387 0.0
C1235 C 0.67238 0.01532 0.4651 0.0
C1236 C 0.67829 0.0154 0.4037 0.0
C1237 C 0.66122 0.01636 0.36053 0.0
C1238 C 0.63899 0.01702 0.3774 0.0
C1239 C 0.63377 0.01676 0.43788 0.0
C1240 C 0.64991 0.01592 0.48125 0.0
C1241 C 0.63954 0.01572 0.54321 0.0
C1242 C 0.64517 0.99448 0.57675 0.0
C1243 C 0.64666 0.03607 0.57908 0.0
C1244 C 0.61513 0.01654 0.52762 0.0
C1245 C 0.61229 0.01721 0.46652 0.0
C1246 C 0.59143 0.01828 0.44087 0.0
C1247 C 0.57296 0.01859 0.47837 0.0
C1248 C 0.57521 0.01766 0.54128 0.0
C1249 C 0.59673 0.01676 0.56606 0.0
H1250 H 0.54235 0.68161 0.48603 0.0
H1251 H 0.52256 0.66189 0.30765 0.0
H1252 H 0.51856 0.6237 0.34193 0.0
H1253 H 0.57329 0.63208 0.52087 0.0
H1254 H 0.56463 0.63137 0.59773 0.0
H1255 H 0.56673 0.65722 0.55909 0.0
H1256 H 0.5264 0.66543 0.5862 0.0
H1257 H 0.5241 0.63926 0.62301 0.0
H1258 H 0.50501 0.64633 0.5646 0.0
H1259 H 0.51622 0.5875 0.39498 0.0
H1260 H 0.51519 0.55596 0.46349 0.0
H1261 H 0.53556 0.59819 0.60951 0.0
C1262 C 0.53712 0.6693 0.45413 0.0
C1263 C 0.533 0.675 0.39366 0.0
C1264 C 0.5263 0.65814 0.35373 0.0
C1265 C 0.52383 0.63631 0.37291 0.0
C1266 C 0.52808 0.6313 0.43243 0.0
C1267 C 0.53463 0.64727 0.47252 0.0
C1268 C 0.53796 0.63735 0.53416 0.0
C1269 C 0.56209 0.63964 0.55411 0.0
C1270 C 0.52239 0.64777 0.57965 0.0
C1271 C 0.53185 0.61342 0.52273 0.0
C1272 C 0.52644 0.61034 0.46343 0.0
C1273 C 0.52048 0.58975 0.44145 0.0
C1274 C 0.52007 0.57184 0.48082 0.0
C1275 C 0.52549 0.5744 0.54194 0.0
C1276 C 0.53129 0.59562 0.56313 0.0
H1277 H 0.86942 0.50264 0.41382 0.0
H1278 H 0.85602 0.57253 0.41821 0.0
H1279 H 0.88931 0.57856 0.47874 0.0
H1280 H 0.89028 0.49777 0.56188 0.0
H1281 H 0.91191 0.47881 0.54367 0.0
H1282 H 0.88719 0.47946 0.49925 0.0
H1283 H 0.91026 0.48624 0.40389 0.0
H1284 H 0.9351 0.48525 0.44781 0.0
H1285 H 0.92958 0.50885 0.40191 0.0
H1286 H 0.92373 0.57732 0.54107 0.0
H1287 H 0.95784 0.56894 0.59621 0.0
H1288 H 0.95036 0.50013 0.55064 0.0
C1289 C 0.87357 0.51926 0.42685 0.0
C1290 C 0.85961 0.53705 0.41144 0.0
C1291 C 0.86586 0.55848 0.43022 0.0
C1292 C 0.88493 0.56213 0.46446 0.0
C1293 C 0.89798 0.54428 0.47969 0.0
C1294 C 0.89273 0.52327 0.46105 0.0
C1295 C 0.90981 0.50703 0.48358 0.0
C1296 C 0.89916 0.48974 0.52453 0.0
C1297 C 0.9219 0.4962 0.43117 0.0
C1298 C 0.9252 0.52215 0.51839 0.0
C1299 C 0.91805 0.54359 0.51531 0.0
C1300 C 0.92949 0.56059 0.54354 0.0
C1301 C 0.94891 0.55567 0.57478 0.0
C1302 C 0.95693 0.53393 0.57765 0.0
C1303 C 0.94464 0.51691 0.54965 0.0
loop_
_geom_bond_atom_site_label_1
_geom_bond_atom_site_label_2
_geom_bond_distance
_geom_bond_site_symmetry_2
_ccdc_geom_bond_type
C0 C1 1.264 . S
C0 C5 1.479 . S
C0 C10 1.465 . S
C1 C0 1.264 . S
C1 C3 1.339 . S
C1 H28 0.931 . S
C2 C3 1.395 . S
C2 C4 1.320 . S
C3 C1 1.339 . S
C3 C2 1.395 . S
C3 H29 0.929 . S
C4 C2 1.320 . S
C4 C5 1.405 . S
C4 H30 0.930 . S
C5 C0 1.479 . S
C5 C4 1.405 . S
C5 H31 0.931 . S
U6 O7 2.454 . S
U6 O8 2.458 . S
U6 C9 2.984 . S
U6 C10 2.847 . S
U6 C23 2.882 . S
U6 O24 2.441 . S
U6 O25 2.420 . S
U6 O26 2.455 . S
U6 O27 2.449 . S
O7 U6 2.454 . S
O7 C9 1.353 . S
O8 U6 2.458 . S
O8 C9 1.286 . S
C9 U6 2.984 . S
C9 O7 1.353 . S
C9 O8 1.286 . S
C9 C11 1.363 . S
C10 C0 1.465 . S
C10 U6 2.847 . S
C10 O24 1.249 . S
C10 O25 1.202 . S
C11 C9 1.363 . S
C11 C13 1.408 . S
C11 C16 1.342 . S
C12 C13 1.310 . S
C12 C15 1.461 . S
C12 H32 0.932 . S
C13 C11 1.408 . S
C13 C12 1.310 . S
C13 H33 0.930 . S
C14 C15 1.474 . S
C14 C16 1.285 . S
C14 H34 0.929 . S
C15 C12 1.461 . S
C15 C14 1.474 . S
C16 C11 1.342 . S
C16 C14 1.285 . S
C16 H35 0.930 . S
C17 C20 1.424 . S
C17 C22 1.245 . S
C17 C23 1.428 . S
C18 C21 1.261 . S
C18 C22 1.477 1_556 S
C18 H36 0.932 . S
C19 C20 1.384 . S
C19 C21 1.474 1_554 S
C19 H37 0.929 . S
C20 C17 1.424 . S
C20 C19 1.384 . S
C20 H38 0.928 . S
C21 C18 1.261 . S
C21 C19 1.474 1_556 S
C22 C17 1.245 . S
C22 C18 1.477 1_554 S
C22 H39 0.932 . S
C23 U6 2.882 . S
C23 C17 1.428 . S
C23 O26 1.301 . S
C23 O27 1.282 . S
O24 U6 2.441 . S
O24 C10 1.249 . S
O25 U6 2.420 . S
O25 C10 1.202 . S
O26 U6 2.455 . S
O26 C23 1.301 . S
O27 U6 2.449 . S
O27 C23 1.282 . S
H28 C1 0.931 . S
H29 C3 0.929 . S
H30 C4 0.930 . S
H31 C5 0.931 . S
H32 C12 0.932 . S
H33 C13 0.930 . S
H34 C14 0.929 . S
H35 C16 0.930 . S
H36 C18 0.932 . S
H37 C19 0.929 . S
H38 C20 0.928 . S
H39 C22 0.932 . S
C40 C41 1.264 . S
C40 C45 1.479 . S
C40 C50 1.465 . S
C41 C40 1.264 . S
C41 C43 1.339 . S
C41 H68 0.931 . S
C42 C43 1.395 . S
C42 C44 1.320 . S
C43 C41 1.339 . S
C43 C42 1.395 . S
C43 H69 0.929 . S
C44 C42 1.320 . S
C44 C45 1.405 . S
C44 H70 0.930 . S
C45 C40 1.479 . S
C45 C44 1.405 . S
C45 H71 0.931 . S
U46 O47 2.454 . S
U46 O48 2.458 . S
U46 C49 2.984 . S
U46 C50 2.847 . S
U46 C63 2.882 . S
U46 O64 2.441 . S
U46 O65 2.420 . S
U46 O66 2.455 . S
U46 O67 2.449 . S
O47 U46 2.454 . S
O47 C49 1.353 . S
O48 U46 2.458 . S
O48 C49 1.286 . S
C49 U46 2.984 . S
C49 O47 1.353 . S
C49 O48 1.286 . S
C49 C51 1.363 . S
C50 C40 1.465 . S
C50 U46 2.847 . S
C50 O64 1.249 . S
C50 O65 1.202 . S
C51 C49 1.363 . S
C51 C53 1.408 . S
C51 C56 1.342 . S
C52 C53 1.310 . S
C52 C55 1.461 . S
C52 H72 0.932 . S
C53 C51 1.408 . S
C53 C52 1.310 . S
C53 H73 0.930 . S
C54 C55 1.474 . S
C54 C56 1.285 . S
C54 H74 0.929 . S
C55 C52 1.461 . S
C55 C54 1.474 . S
C56 C51 1.342 . S
C56 C54 1.285 . S
C56 H75 0.930 . S
C57 C60 1.424 . S
C57 C62 1.245 . S
C57 C63 1.428 . S
C58 C61 1.260 . S
C58 C62 1.477 1_556 S
C58 H76 0.932 . S
C59 C60 1.384 . S
C59 C61 1.479 1_554 S
C59 H77 0.929 . S
C60 C57 1.424 . S
C60 C59 1.384 . S
C60 H78 0.928 . S
C61 C58 1.260 . S
C61 C59 1.479 1_556 S
C62 C57 1.245 . S
C62 C58 1.477 1_554 S
C62 H79 0.932 . S
C63 U46 2.882 . S
C63 C57 1.428 . S
C63 O66 1.301 . S
C63 O67 1.282 . S
O64 U46 2.441 . S
O64 C50 1.249 . S
O65 U46 2.420 . S
O65 C50 1.202 . S
O66 U46 2.455 . S
O66 C63 1.301 . S
O67 U46 2.449 . S
O67 C63 1.282 . S
H68 C41 0.931 . S
H69 C43 0.929 . S
H70 C44 0.930 . S
H71 C45 0.931 . S
H72 C52 0.932 . S
H73 C53 0.930 . S
H74 C54 0.929 . S
H75 C56 0.930 . S
H76 C58 0.932 . S
H77 C59 0.929 . S
H78 C60 0.928 . S
H79 C62 0.932 . S
C80 C81 1.264 . S
C80 C85 1.479 . S
C80 C90 1.465 . S
C81 C80 1.264 . S
C81 C83 1.339 . S
C81 H108 0.931 . S
C82 C83 1.395 . S
C82 C84 1.320 . S
C83 C81 1.339 . S
C83 C82 1.395 . S
C83 H109 0.929 . S
C84 C82 1.320 . S
C84 C85 1.405 . S
C84 H110 0.930 . S
C85 C80 1.479 . S
C85 C84 1.405 . S
C85 H111 0.931 . S
U86 O87 2.454 . S
U86 O88 2.458 . S
U86 C89 2.984 . S
U86 C90 2.847 . S
U86 C103 2.882 . S
U86 O104 2.441 . S
U86 O105 2.420 . S
U86 O106 2.455 . S
U86 O107 2.449 . S
O87 U86 2.454 . S
O87 C89 1.353 . S
O88 U86 2.458 . S
O88 C89 1.286 . S
C89 U86 2.984 . S
C89 O87 1.353 . S
C89 O88 1.286 . S
C89 C91 1.363 . S
C90 C80 1.465 . S
C90 U86 2.847 . S
C90 O104 1.249 . S
C90 O105 1.202 . S
C91 C89 1.363 . S
C91 C93 1.408 . S
C91 C96 1.342 . S
C92 C93 1.310 . S
C92 C95 1.461 . S
C92 H112 0.932 . S
C93 C91 1.408 . S
C93 C92 1.310 . S
C93 H113 0.930 . S
C94 C95 1.474 . S
C94 C96 1.285 . S
C94 H114 0.929 . S
C95 C92 1.461 . S
C95 C94 1.474 . S
C96 C91 1.342 . S
C96 C94 1.285 . S
C96 H115 0.930 . S
C97 C100 1.424 . S
C97 C102 1.245 . S
C97 C103 1.428 . S
C98 C101 1.260 . S
C98 C102 1.477 1_556 S
C98 H116 0.932 . S
C99 C100 1.384 . S
C99 C101 1.479 1_554 S
C99 H117 0.929 . S
C100 C97 1.424 . S
C100 C99 1.384 . S
C100 H118 0.928 . S
C101 C98 1.260 . S
C101 C99 1.479 1_556 S
C102 C97 1.245 . S
C102 C98 1.477 1_554 S
C102 H119 0.932 . S
C103 U86 2.882 . S
C103 C97 1.428 . S
C103 O106 1.301 . S
C103 O107 1.282 . S
O104 U86 2.441 . S
O104 C90 1.249 . S
O105 U86 2.420 . S
O105 C90 1.202 . S
O106 U86 2.455 . S
O106 C103 1.301 . S
O107 U86 2.449 . S
O107 C103 1.282 . S
H108 C81 0.931 . S
H109 C83 0.929 . S
H110 C84 0.930 . S
H111 C85 0.931 . S
H112 C92 0.932 . S
H113 C93 0.930 . S
H114 C94 0.929 . S
H115 C96 0.930 . S
H116 C98 0.932 . S
H117 C99 0.929 . S
H118 C100 0.928 . S
H119 C102 0.932 . S
C120 C121 1.264 . S
C120 C125 1.479 . S
C120 C130 1.465 . S
C121 C120 1.264 . S
C121 C123 1.339 . S
C121 H148 0.931 . S
C122 C123 1.395 . S
C122 C124 1.320 . S
C123 C121 1.339 . S
C123 C122 1.395 . S
C123 H149 0.929 . S
C124 C122 1.320 . S
C124 C125 1.405 . S
C124 H150 0.930 . S
C125 C120 1.479 . S
C125 C124 1.405 . S
C125 H151 0.931 . S
U126 O127 2.454 . S
U126 O128 2.458 . S
U126 C129 2.984 . S
U126 C130 2.847 . S
U126 C143 2.882 . S
U126 O144 2.441 . S
U126 O145 2.420 . S
U126 O146 2.455 . S
U126 O147 2.449 . S
O127 U126 2.454 . S
O127 C129 1.353 . S
O128 U126 2.458 . S
O128 C129 1.286 . S
C129 U126 2.984 . S
C129 O127 1.353 . S
C129 O128 1.286 . S
C129 C131 1.363 . S
C130 C120 1.465 . S
C130 U126 2.847 . S
C130 O144 1.249 . S
C130 O145 1.202 . S
C131 C129 1.363 . S
C131 C133 1.408 . S
C131 C136 1.342 . S
C132 C133 1.310 . S
C132 C135 1.461 . S
C132 H152 0.932 . S
C133 C131 1.408 . S
C133 C132 1.310 . S
C133 H153 0.930 . S
C134 C135 1.474 . S
C134 C136 1.285 . S
C134 H154 0.929 . S
C135 C132 1.461 . S
C135 C134 1.474 . S
C136 C131 1.342 . S
C136 C134 1.285 . S
C136 H155 0.930 . S
C137 C140 1.424 . S
C137 C142 1.245 . S
C137 C143 1.428 . S
C138 C141 1.260 1_556 S
C138 C142 1.477 1_556 S
C138 H156 0.932 . S
C139 C140 1.384 . S
C139 C141 1.479 . S
C139 H157 0.929 . S
C140 C137 1.424 . S
C140 C139 1.384 . S
C140 H158 0.928 . S
C141 C138 1.260 1_554 S
C141 C139 1.479 . S
C142 C137 1.245 . S
C142 C138 1.477 1_554 S
C142 H159 0.932 . S
C143 U126 2.882 . S
C143 C137 1.428 . S
C143 O146 1.301 . S
C143 O147 1.282 . S
O144 U126 2.441 . S
O144 C130 1.249 . S
O145 U126 2.420 . S
O145 C130 1.202 . S
O146 U126 2.455 . S
O146 C143 1.301 . S
O147 U126 2.449 . S
O147 C143 1.282 . S
H148 C121 0.931 . S
H149 C123 0.929 . S
H150 C124 0.930 . S
H151 C125 0.931 . S
H152 C132 0.932 . S
H153 C133 0.930 . S
H154 C134 0.929 . S
H155 C136 0.930 . S
H156 C138 0.932 . S
H157 C139 0.929 . S
H158 C140 0.928 . S
H159 C142 0.932 . S
C160 C161 1.264 . S
C160 C165 1.479 . S
C160 C170 1.465 . S
C161 C160 1.264 . S
C161 C163 1.339 . S
C161 H188 0.931 . S
C162 C163 1.395 . S
C162 C164 1.320 . S
C163 C161 1.339 . S
C163 C162 1.395 . S
C163 H189 0.929 . S
C164 C162 1.320 . S
C164 C165 1.405 . S
C164 H190 0.930 . S
C165 C160 1.479 . S
C165 C164 1.405 . S
C165 H191 0.931 . S
U166 O167 2.454 . S
U166 O168 2.458 . S
U166 C169 2.984 . S
U166 C170 2.847 1_554 S
U166 C183 2.882 . S
U166 O184 2.441 1_554 S
U166 O185 2.420 1_554 S
U166 O186 2.455 . S
U166 O187 2.449 . S
O167 U166 2.454 . S
O167 C169 1.353 . S
O168 U166 2.458 . S
O168 C169 1.286 . S
C169 U166 2.984 . S
C169 O167 1.353 . S
C169 O168 1.286 . S
C169 C171 1.363 . S
C170 C160 1.465 . S
C170 U166 2.847 1_556 S
C170 O184 1.249 . S
C170 O185 1.202 . S
C171 C169 1.363 . S
C171 C173 1.408 . S
C171 C176 1.342 . S
C172 C173 1.310 . S
C172 C175 1.461 . S
C172 H192 0.932 . S
C173 C171 1.408 . S
C173 C172 1.310 . S
C173 H193 0.942 . S
C174 C175 1.474 . S
C174 C176 1.285 . S
C174 H194 0.929 . S
C175 C172 1.461 . S
C175 C174 1.474 . S
C176 C171 1.342 . S
C176 C174 1.285 . S
C176 H195 0.930 . S
C177 C180 1.424 . S
C177 C182 1.245 . S
C177 C183 1.428 . S
C178 C181 1.260 . S
C178 C182 1.477 . S
C178 H196 0.932 . S
C179 C180 1.384 . S
C179 C181 1.479 . S
C179 H197 0.929 . S
C180 C177 1.424 . S
C180 C179 1.384 . S
C180 H198 0.928 . S
C181 C178 1.260 . S
C181 C179 1.479 . S
C182 C177 1.245 . S
C182 C178 1.477 . S
C182 H199 0.932 . S
C183 U166 2.882 . S
C183 C177 1.428 . S
C183 O186 1.301 . S
C183 O187 1.282 . S
O184 U166 2.441 1_556 S
O184 C170 1.249 . S
O185 U166 2.420 1_556 S
O185 C170 1.202 . S
O186 U166 2.455 . S
O186 C183 1.301 . S
O187 U166 2.449 . S
O187 C183 1.282 . S
H188 C161 0.931 . S
H189 C163 0.929 . S
H190 C164 0.930 . S
H191 C165 0.931 . S
H192 C172 0.932 . S
H193 C173 0.942 . S
H194 C174 0.929 . S
H195 C176 0.930 . S
H196 C178 0.932 . S
H197 C179 0.929 . S
H198 C180 0.928 . S
H199 C182 0.932 . S
C200 C201 1.264 . S
C200 C205 1.479 . S
C200 C210 1.465 . S
C201 C200 1.264 . S
C201 C203 1.339 . S
C201 H228 0.931 . S
C202 C203 1.395 . S
C202 C204 1.320 . S
C203 C201 1.339 . S
C203 C202 1.395 . S
C203 H229 0.929 . S
C204 C202 1.320 . S
C204 C205 1.405 . S
C204 H230 0.930 . S
C205 C200 1.479 . S
C205 C204 1.405 . S
C205 H231 0.931 . S
U206 O207 2.454 . S
U206 O208 2.458 . S
U206 C209 2.984 . S
U206 C210 2.847 1_554 S
U206 C223 2.882 . S
U206 O224 2.441 1_554 S
U206 O225 2.420 1_554 S
U206 O226 2.455 . S
U206 O227 2.449 . S
O207 U206 2.454 . S
O207 C209 1.353 . S
O208 U206 2.458 . S
O208 C209 1.286 . S
C209 U206 2.984 . S
C209 O207 1.353 . S
C209 O208 1.286 . S
C209 C211 1.363 . S
C210 C200 1.465 . S
C210 U206 2.847 1_556 S
C210 O224 1.249 . S
C210 O225 1.202 . S
C211 C209 1.363 . S
C211 C213 1.408 . S
C211 C216 1.342 . S
C212 C213 1.310 . S
C212 C215 1.461 . S
C212 H232 0.932 . S
C213 C211 1.408 . S
C213 C212 1.310 . S
C213 H233 0.930 . S
C214 C215 1.474 . S
C214 C216 1.285 . S
C214 H234 0.929 . S
C215 C212 1.461 . S
C215 C214 1.474 . S
C216 C211 1.342 . S
C216 C214 1.285 . S
C216 H235 0.930 . S
C217 C220 1.424 . S
C217 C222 1.245 . S
C217 C223 1.428 . S
C218 C221 1.260 . S
C218 C222 1.477 . S
C218 H236 0.932 . S
C219 C220 1.384 . S
C219 C221 1.479 . S
C219 H237 0.929 . S
C220 C217 1.424 . S
C220 C219 1.384 . S
C220 H238 0.928 . S
C221 C218 1.260 . S
C221 C219 1.479 . S
C222 C217 1.245 . S
C222 C218 1.477 . S
C222 H239 0.932 . S
C223 U206 2.882 . S
C223 C217 1.428 . S
C223 O226 1.301 . S
C223 O227 1.282 . S
O224 U206 2.441 1_556 S
O224 C210 1.249 . S
O225 U206 2.420 1_556 S
O225 C210 1.202 . S
O226 U206 2.455 . S
O226 C223 1.301 . S
O227 U206 2.449 . S
O227 C223 1.282 . S
H228 C201 0.931 . S
H229 C203 0.929 . S
H230 C204 0.930 . S
H231 C205 0.931 . S
H232 C212 0.932 . S
H233 C213 0.930 . S
H234 C214 0.929 . S
H235 C216 0.930 . S
H236 C218 0.932 . S
H237 C219 0.929 . S
H238 C220 0.928 . S
H239 C222 0.932 . S
C240 C241 1.264 . S
C240 C245 1.479 . S
C240 C250 1.465 . S
C241 C240 1.264 . S
C241 C243 1.339 . S
C241 H268 0.931 . S
C242 C243 1.395 . S
C242 C244 1.320 . S
C243 C241 1.339 . S
C243 C242 1.395 . S
C243 H269 0.929 . S
C244 C242 1.320 . S
C244 C245 1.405 . S
C244 H270 0.930 . S
C245 C240 1.479 . S
C245 C244 1.405 . S
C245 H271 0.931 . S
U246 O247 2.454 . S
U246 O248 2.458 . S
U246 C249 2.984 . S
U246 C250 2.847 1_554 S
U246 C263 2.882 . S
U246 O264 2.441 1_554 S
U246 O265 2.420 1_554 S
U246 O266 2.455 . S
U246 O267 2.449 . S
O247 U246 2.454 . S
O247 C249 1.353 . S
O248 U246 2.458 . S
O248 C249 1.286 . S
C249 U246 2.984 . S
C249 O247 1.353 . S
C249 O248 1.286 . S
C249 C251 1.363 . S
C250 C240 1.465 . S
C250 U246 2.847 1_556 S
C250 O264 1.249 . S
C250 O265 1.202 . S
C251 C249 1.363 . S
C251 C253 1.408 . S
C251 C256 1.342 . S
C252 C253 1.310 . S
C252 C255 1.461 . S
C252 H272 0.932 . S
C253 C251 1.408 . S
C253 C252 1.310 . S
C253 H273 0.930 . S
C254 C255 1.474 . S
C254 C256 1.285 . S
C254 H274 0.929 . S
C255 C252 1.461 . S
C255 C254 1.474 . S
C256 C251 1.342 . S
C256 C254 1.285 . S
C256 H275 0.930 . S
C257 C260 1.424 . S
C257 C262 1.245 . S
C257 C263 1.428 . S
C258 C261 1.260 . S
C258 C262 1.477 . S
C258 H276 0.932 . S
C259 C260 1.384 . S
C259 C261 1.479 . S
C259 H277 0.929 . S
C260 C257 1.424 . S
C260 C259 1.384 . S
C260 H278 0.928 . S
C261 C258 1.260 . S
C261 C259 1.479 . S
C262 C257 1.245 . S
C262 C258 1.477 . S
C262 H279 0.932 . S
C263 U246 2.882 . S
C263 C257 1.428 . S
C263 O266 1.301 . S
C263 O267 1.282 . S
O264 U246 2.441 1_556 S
O264 C250 1.249 . S
O265 U246 2.420 1_556 S
O265 C250 1.202 . S
O266 U246 2.455 . S
O266 C263 1.301 . S
O267 U246 2.449 . S
O267 C263 1.282 . S
H268 C241 0.931 . S
H269 C243 0.929 . S
H270 C244 0.930 . S
H271 C245 0.931 . S
H272 C252 0.932 . S
H273 C253 0.930 . S
H274 C254 0.929 . S
H275 C256 0.930 . S
H276 C258 0.932 . S
H277 C259 0.929 . S
H278 C260 0.928 . S
H279 C262 0.932 . S
C280 C281 1.264 . S
C280 C285 1.479 . S
C280 C290 1.465 . S
C281 C280 1.264 . S
C281 C283 1.339 . S
C281 H308 0.931 . S
C282 C283 1.395 . S
C282 C284 1.320 . S
C283 C281 1.339 . S
C283 C282 1.395 . S
C283 H309 0.929 . S
C284 C282 1.320 . S
C284 C285 1.405 . S
C284 H310 0.930 . S
C285 C280 1.479 . S
C285 C284 1.405 . S
C285 H311 0.931 . S
U286 O287 2.454 . S
U286 O288 2.458 . S
U286 C289 2.984 . S
U286 C290 2.847 1_554 S
U286 C303 2.882 . S
U286 O304 2.441 1_554 S
U286 O305 2.420 1_554 S
U286 O306 2.455 . S
U286 O307 2.449 . S
O287 U286 2.454 . S
O287 C289 1.353 . S
O288 U286 2.458 . S
O288 C289 1.286 . S
C289 U286 2.984 . S
C289 O287 1.353 . S
C289 O288 1.286 . S
C289 C291 1.363 . S
C290 C280 1.465 . S
C290 U286 2.847 1_556 S
C290 O304 1.249 . S
C290 O305 1.202 . S
C291 C289 1.363 . S
C291 C293 1.408 . S
C291 C296 1.342 . S
C292 C293 1.310 . S
C292 C295 1.461 . S
C292 H312 0.932 . S
C293 C291 1.408 . S
C293 C292 1.310 . S
C293 H313 0.930 1_554 S
C294 C295 1.474 . S
C294 C296 1.285 . S
C294 H314 0.929 . S
C295 C292 1.461 . S
C295 C294 1.474 . S
C296 C291 1.342 . S
C296 C294 1.285 . S
C296 H315 0.930 . S
C297 C300 1.424 . S
C297 C302 1.245 . S
C297 C303 1.428 . S
C298 C301 1.260 . S
C298 C302 1.477 . S
C298 H316 0.932 . S
C299 C300 1.384 . S
C299 C301 1.479 . S
C299 H317 0.929 . S
C300 C297 1.424 . S
C300 C299 1.384 . S
C300 H318 0.928 . S
C301 C298 1.260 . S
C301 C299 1.479 . S
C302 C297 1.245 . S
C302 C298 1.477 . S
C302 H319 0.932 . S
C303 U286 2.882 . S
C303 C297 1.428 . S
C303 O306 1.301 . S
C303 O307 1.282 . S
O304 U286 2.441 1_556 S
O304 C290 1.249 . S
O305 U286 2.420 1_556 S
O305 C290 1.202 . S
O306 U286 2.455 . S
O306 C303 1.301 . S
O307 U286 2.449 . S
O307 C303 1.282 . S
H308 C281 0.931 . S
H309 C283 0.929 . S
H310 C284 0.930 . S
H311 C285 0.931 . S
H312 C292 0.932 . S
H313 C293 0.930 1_556 S
H314 C294 0.929 . S
H315 C296 0.930 . S
H316 C298 0.932 . S
H317 C299 0.929 . S
H318 C300 0.928 . S
H319 C302 0.932 . S
C320 C322 1.422 . S
C320 C324 1.415 . S
C320 N326 1.372 . S
C321 C322 1.421 . S
C321 C323 1.417 . S
C321 C333 1.422 . S
C322 C320 1.422 . S
C322 C321 1.421 . S
C322 N332 1.359 . S
C323 C321 1.417 . S
C323 C325 1.329 . S
C323 H342 0.930 . S
C324 C320 1.415 . S
C324 C325 1.437 . S
C324 C328 1.413 . S
C325 C323 1.329 . S
C325 C324 1.437 . S
C325 H347 0.929 . S
N326 C320 1.372 . S
N326 C327 1.337 1_545 S
N326 Gd331 2.620 1_545 S
C327 N326 1.337 1_565 S
C327 C329 1.378 1_565 S
C327 H339 0.929 . S
C328 C324 1.413 . S
C328 C329 1.348 . S
C328 H344 0.931 . S
C329 C327 1.378 1_545 S
C329 C328 1.348 . S
C329 H345 0.930 . S
Gd330 N350 2.622 . S
Gd330 N357 2.570 . S
Gd330 O364 2.353 1_655 S
Gd330 O365 2.468 . S
Gd330 O366 2.427 . S
Gd330 O368 2.388 . S
Gd330 O369 2.386 1_545 S
Gd330 O373 2.307 1_655 S
Gd330 C383 2.805 . S
Gd331 N326 2.620 1_565 S
Gd331 N332 2.570 1_565 S
Gd331 O363 2.386 1_565 S
Gd331 O367 2.307 1_465 S
Gd331 O370 2.353 . S
Gd331 O371 2.468 . S
Gd331 O372 2.427 . S
Gd331 O374 2.388 . S
Gd331 C395 2.805 . S
N332 C322 1.359 . S
N332 Gd331 2.570 1_545 S
N332 C334 1.343 . S
C333 C321 1.422 . S
C333 C335 1.321 . S
C333 H341 0.931 . S
C334 N332 1.343 . S
C334 C335 1.390 . S
C334 H336 0.946 1_455 S
C335 C333 1.321 . S
C335 C334 1.390 . S
C335 H337 0.968 . S
H336 C334 0.946 1_655 S
H337 C335 0.968 . S
H338 C361 0.931 1_455 S
H339 C327 0.929 . S
H340 C362 0.930 1_455 S
H341 C333 0.931 . S
H342 C323 0.930 . S
H343 C352 0.929 . S
H344 C328 0.931 . S
H345 C329 0.930 . S
H346 C384 0.930 . S
H347 C325 0.929 . S
H348 C353 0.950 . S
H349 C354 0.930 . S
N350 Gd330 2.622 . S
N350 C351 1.369 . S
N350 C352 1.338 . S
C351 N350 1.369 . S
C351 C355 1.415 1_545 S
C351 C358 1.422 . S
C352 H343 0.929 . S
C352 N350 1.338 . S
C352 C354 1.378 . S
C353 H348 0.950 . S
C353 C354 1.326 1_565 S
C353 C355 1.418 . S
C354 H349 0.930 . S
C354 C352 1.378 . S
C354 C353 1.326 1_545 S
C355 C351 1.415 1_565 S
C355 C353 1.418 . S
C355 C385 1.437 . S
H356 C385 0.929 . S
N357 Gd330 2.570 . S
N357 C358 1.359 . S
N357 C361 1.343 . S
C358 C351 1.422 . S
C358 N357 1.359 . S
C358 C360 1.421 1_545 S
C359 C360 1.422 . S
C359 C362 1.321 . S
C359 H386 0.931 . S
C360 C358 1.421 1_565 S
C360 C359 1.422 . S
C360 C384 1.417 . S
C361 H338 0.931 1_655 S
C361 N357 1.343 . S
C361 C362 1.390 1_545 S
C362 H340 0.930 1_655 S
C362 C359 1.321 . S
C362 C361 1.390 1_565 S
O363 Gd331 2.386 1_545 S
O363 C375 1.265 . S
O364 Gd330 2.353 1_455 S
O364 C375 1.242 . S
O365 Gd330 2.468 . S
O365 C383 1.263 . S
O366 Gd330 2.427 . S
O366 C383 1.252 . S
O367 Gd331 2.307 1_645 S
O367 C376 1.261 . S
O368 Gd330 2.388 . S
O368 C376 1.252 . S
O369 Gd330 2.386 1_565 S
O369 C387 1.265 . S
O370 Gd331 2.353 . S
O370 C387 1.242 1_455 S
O371 Gd331 2.468 . S
O371 C395 1.263 . S
O372 Gd331 2.427 . S
O372 C395 1.252 . S
O373 Gd330 2.307 1_455 S
O373 C388 1.261 . S
O374 Gd331 2.388 . S
O374 C388 1.252 1_565 S
C375 O363 1.265 . S
C375 O364 1.242 . S
C376 O367 1.261 . S
C376 O368 1.252 . S
C377 C380 1.394 . S
C377 C382 1.370 . S
C377 C383 1.500 . S
C378 C381 1.383 . S
C378 C382 1.395 . S
C379 C380 1.396 . S
C379 C381 1.365 . S
C379 H396 0.929 . S
C380 C377 1.394 . S
C380 C379 1.396 . S
C380 H397 0.930 . S
C381 C378 1.383 . S
C381 C379 1.365 . S
C381 H398 0.931 . S
C382 C377 1.370 . S
C382 C378 1.395 . S
C382 H399 0.930 1_655 S
C383 Gd330 2.805 . S
C383 O365 1.263 . S
C383 O366 1.252 . S
C383 C377 1.500 . S
C384 H346 0.930 . S
C384 C360 1.417 . S
C384 C385 1.329 . S
C385 C355 1.437 . S
C385 H356 0.929 . S
C385 C384 1.329 . S
H386 C359 0.931 . S
C387 O369 1.265 . S
C387 O370 1.242 1_655 S
C388 O373 1.261 . S
C388 O374 1.252 1_545 S
C389 C392 1.394 . S
C389 C394 1.370 . S
C389 C395 1.500 . S
C390 C393 1.383 . S
C390 C394 1.395 . S
C391 C392 1.396 . S
C391 C393 1.365 . S
C391 H400 0.929 . S
C392 C389 1.394 . S
C392 C391 1.396 . S
C392 H401 0.930 . S
C393 C390 1.383 . S
C393 C391 1.365 . S
C393 H402 0.931 . S
C394 C389 1.370 . S
C394 C390 1.395 . S
C394 H403 0.962 . S
C395 Gd331 2.805 . S
C395 O371 1.263 . S
C395 O372 1.252 . S
C395 C389 1.500 . S
H396 C379 0.929 . S
H397 C380 0.930 . S
H398 C381 0.931 . S
H399 C382 0.930 1_455 S
H400 C391 0.929 . S
H401 C392 0.930 . S
H402 C393 0.931 . S
H403 C394 0.962 . S
C404 C406 1.422 . S
C404 C408 1.415 . S
C404 N410 1.369 . S
C405 C406 1.421 . S
C405 C407 1.417 . S
C405 C417 1.422 . S
C406 C404 1.422 . S
C406 C405 1.421 . S
C406 N416 1.359 . S
C407 C405 1.417 . S
C407 C409 1.329 . S
C407 H426 0.930 . S
C408 C404 1.415 . S
C408 C409 1.437 . S
C408 C412 1.413 . S
C409 C407 1.329 . S
C409 C408 1.437 . S
C409 H431 0.929 . S
N410 C404 1.369 . S
N410 C411 1.338 . S
N410 Gd415 2.622 . S
C411 N410 1.338 . S
C411 C413 1.378 . S
C411 H423 0.929 . S
C412 C408 1.413 . S
C412 C413 1.348 . S
C412 H428 0.931 . S
C413 C411 1.378 . S
C413 C412 1.348 . S
C413 H429 0.930 . S
Gd414 N434 2.622 . S
Gd414 N441 2.570 . S
Gd414 O448 2.353 1_545 S
Gd414 O449 2.468 . S
Gd414 O450 2.427 . S
Gd414 O452 2.388 . S
Gd414 O453 2.386 . S
Gd414 O457 2.307 . S
Gd414 C467 2.805 . S
Gd415 N410 2.622 . S
Gd415 N416 2.570 . S
Gd415 O447 2.386 . S
Gd415 O451 2.307 1_565 S
Gd415 O454 2.353 1_565 S
Gd415 O455 2.468 . S
Gd415 O456 2.427 . S
Gd415 O458 2.388 . S
Gd415 C479 2.805 . S
N416 C406 1.359 . S
N416 Gd415 2.570 . S
N416 C418 1.343 . S
C417 C405 1.422 . S
C417 C419 1.321 . S
C417 H425 0.931 . S
C418 N416 1.343 . S
C418 C419 1.390 . S
C418 H420 0.931 . S
C419 C417 1.321 . S
C419 C418 1.390 . S
C419 H421 0.930 . S
H420 C418 0.931 . S
H421 C419 0.930 . S
H422 C445 0.931 . S
H423 C411 0.929 . S
H424 C446 0.930 . S
H425 C417 0.931 . S
H426 C407 0.930 . S
H427 C436 0.929 . S
H428 C412 0.931 . S
H429 C413 0.930 . S
H430 C468 0.930 . S
H431 C409 0.929 . S
H432 C437 0.931 . S
H433 C438 0.930 . S
N434 Gd414 2.622 . S
N434 C435 1.369 . S
N434 C436 1.338 . S
C435 N434 1.369 . S
C435 C439 1.415 . S
C435 C442 1.422 . S
C436 H427 0.929 . S
C436 N434 1.338 . S
C436 C438 1.378 . S
C437 H432 0.931 . S
C437 C438 1.348 . S
C437 C439 1.413 . S
C438 H433 0.930 . S
C438 C436 1.378 . S
C438 C437 1.348 . S
C439 C435 1.415 . S
C439 C437 1.413 . S
C439 C469 1.437 . S
H440 C469 0.929 . S
N441 Gd414 2.570 . S
N441 C442 1.359 . S
N441 C445 1.343 . S
C442 C435 1.422 . S
C442 N441 1.359 . S
C442 C444 1.421 . S
C443 C444 1.422 . S
C443 C446 1.321 . S
C443 H470 0.931 . S
C444 C442 1.421 . S
C444 C443 1.422 . S
C444 C468 1.417 . S
C445 H422 0.931 . S
C445 N441 1.343 . S
C445 C446 1.390 . S
C446 H424 0.930 . S
C446 C443 1.321 . S
C446 C445 1.390 . S
O447 Gd415 2.386 . S
O447 C459 1.265 . S
O448 Gd414 2.353 1_565 S
O448 C459 1.242 . S
O449 Gd414 2.468 . S
O449 C467 1.263 . S
O450 Gd414 2.427 . S
O450 C467 1.252 . S
O451 Gd415 2.307 1_545 S
O451 C460 1.261 . S
O452 Gd414 2.388 . S
O452 C460 1.252 . S
O453 Gd414 2.386 . S
O453 C471 1.265 . S
O454 Gd415 2.353 1_545 S
O454 C471 1.242 . S
O455 Gd415 2.468 . S
O455 C479 1.263 . S
O456 Gd415 2.427 . S
O456 C479 1.252 . S
O457 Gd414 2.307 . S
O457 C472 1.261 1_545 S
O458 Gd415 2.388 . S
O458 C472 1.252 . S
C459 O447 1.265 . S
C459 O448 1.242 . S
C460 O451 1.261 . S
C460 O452 1.252 . S
C461 C464 1.394 . S
C461 C466 1.370 . S
C461 C467 1.500 . S
C462 C465 1.383 . S
C462 C466 1.395 . S
C463 C464 1.396 . S
C463 C465 1.365 . S
C463 H480 0.929 . S
C464 C461 1.394 . S
C464 C463 1.396 . S
C464 H481 0.930 . S
C465 C462 1.383 . S
C465 C463 1.365 . S
C465 H482 0.931 . S
C466 C461 1.370 . S
C466 C462 1.395 . S
C466 H483 0.930 . S
C467 Gd414 2.805 . S
C467 O449 1.263 . S
C467 O450 1.252 . S
C467 C461 1.500 . S
C468 H430 0.930 . S
C468 C444 1.417 . S
C468 C469 1.329 . S
C469 C439 1.437 . S
C469 H440 0.929 . S
C469 C468 1.329 . S
H470 C443 0.931 . S
C471 O453 1.265 . S
C471 O454 1.242 . S
C472 O457 1.261 1_565 S
C472 O458 1.252 . S
C473 C476 1.394 . S
C473 C478 1.370 1_565 S
C473 C479 1.500 . S
C474 C477 1.383 1_545 S
C474 C478 1.395 . S
C475 C476 1.396 . S
C475 C477 1.365 . S
C475 H484 0.929 . S
C476 C473 1.394 . S
C476 C475 1.396 . S
C476 H485 0.930 . S
C477 C474 1.383 1_565 S
C477 C475 1.365 . S
C477 H486 0.931 . S
C478 C473 1.370 1_545 S
C478 C474 1.395 . S
C478 H487 0.930 . S
C479 Gd415 2.805 . S
C479 O455 1.263 . S
C479 O456 1.252 . S
C479 C473 1.500 . S
H480 C463 0.929 . S
H481 C464 0.930 . S
H482 C465 0.931 . S
H483 C466 0.930 . S
H484 C475 0.929 . S
H485 C476 0.930 . S
H486 C477 0.931 . S
H487 C478 0.930 . S
C488 C490 1.422 . S
C488 C492 1.415 . S
C488 N494 1.369 . S
C489 C490 1.421 . S
C489 C491 1.417 . S
C489 C501 1.422 . S
C490 C488 1.422 . S
C490 C489 1.421 . S
C490 N500 1.359 . S
C491 C489 1.417 . S
C491 C493 1.329 . S
C491 H510 0.930 . S
C492 C488 1.415 . S
C492 C493 1.437 . S
C492 C496 1.413 . S
C493 C491 1.329 . S
C493 C492 1.437 . S
C493 H515 0.929 . S
N494 C488 1.369 . S
N494 C495 1.338 . S
N494 Gd499 2.622 . S
C495 N494 1.338 . S
C495 C497 1.378 . S
C495 H507 0.929 . S
C496 C492 1.413 . S
C496 C497 1.348 . S
C496 H512 0.931 . S
C497 C495 1.378 . S
C497 C496 1.348 . S
C497 H513 0.930 . S
Gd498 N518 2.622 . S
Gd498 N525 2.570 . S
Gd498 O532 2.353 . S
Gd498 O533 2.468 . S
Gd498 O534 2.427 . S
Gd498 O536 2.388 . S
Gd498 O537 2.386 . S
Gd498 O541 2.307 . S
Gd498 C551 2.805 . S
Gd499 N494 2.622 . S
Gd499 N500 2.570 . S
Gd499 O531 2.386 . S
Gd499 O535 2.307 . S
Gd499 O538 2.353 . S
Gd499 O539 2.468 . S
Gd499 O540 2.427 . S
Gd499 O542 2.388 . S
Gd499 C563 2.805 . S
N500 C490 1.359 . S
N500 Gd499 2.570 . S
N500 C502 1.343 . S
C501 C489 1.422 . S
C501 C503 1.321 . S
C501 H509 0.931 . S
C502 N500 1.343 . S
C502 C503 1.390 . S
C502 H504 0.931 . S
C503 C501 1.321 . S
C503 C502 1.390 . S
C503 H505 0.930 . S
H504 C502 0.931 . S
H505 C503 0.930 . S
H506 C529 0.931 . S
H507 C495 0.929 . S
H508 C530 0.930 . S
H509 C501 0.931 . S
H510 C491 0.930 . S
H511 C520 0.929 . S
H512 C496 0.931 . S
H513 C497 0.930 . S
H514 C552 0.930 . S
H515 C493 0.929 . S
H516 C521 0.931 . S
H517 C522 0.930 . S
N518 Gd498 2.622 . S
N518 C519 1.369 . S
N518 C520 1.338 . S
C519 N518 1.369 . S
C519 C523 1.415 . S
C519 C526 1.422 . S
C520 H511 0.929 . S
C520 N518 1.338 . S
C520 C522 1.378 . S
C521 H516 0.931 . S
C521 C522 1.348 . S
C521 C523 1.413 . S
C522 H517 0.930 . S
C522 C520 1.378 . S
C522 C521 1.348 . S
C523 C519 1.415 . S
C523 C521 1.413 . S
C523 C553 1.437 . S
H524 C553 0.929 . S
N525 Gd498 2.570 . S
N525 C526 1.359 . S
N525 C529 1.343 . S
C526 C519 1.422 . S
C526 N525 1.359 . S
C526 C528 1.421 . S
C527 C528 1.422 . S
C527 C530 1.321 . S
C527 H554 0.931 . S
C528 C526 1.421 . S
C528 C527 1.422 . S
C528 C552 1.417 . S
C529 H506 0.931 . S
C529 N525 1.343 . S
C529 C530 1.390 . S
C530 H508 0.930 . S
C530 C527 1.321 . S
C530 C529 1.390 . S
O531 Gd499 2.386 . S
O531 C543 1.265 . S
O532 Gd498 2.353 . S
O532 C543 1.242 . S
O533 Gd498 2.468 . S
O533 C551 1.263 . S
O534 Gd498 2.427 . S
O534 C551 1.252 . S
O535 Gd499 2.307 . S
O535 C544 1.261 . S
O536 Gd498 2.388 . S
O536 C544 1.252 . S
O537 Gd498 2.386 . S
O537 C555 1.265 . S
O538 Gd499 2.353 . S
O538 C555 1.242 . S
O539 Gd499 2.468 . S
O539 C563 1.263 . S
O540 Gd499 2.427 . S
O540 C563 1.252 . S
O541 Gd498 2.307 . S
O541 C556 1.261 . S
O542 Gd499 2.388 . S
O542 C556 1.252 . S
C543 O531 1.265 . S
C543 O532 1.242 . S
C544 O535 1.261 . S
C544 O536 1.252 . S
C545 C548 1.394 . S
C545 C550 1.370 . S
C545 C551 1.500 . S
C546 C549 1.383 . S
C546 C550 1.395 . S
C547 C548 1.396 . S
C547 C549 1.365 . S
C547 H564 0.929 . S
C548 C545 1.394 . S
C548 C547 1.396 . S
C548 H565 0.930 . S
C549 C546 1.383 . S
C549 C547 1.365 . S
C549 H566 0.931 . S
C550 C545 1.370 . S
C550 C546 1.395 . S
C550 H567 0.930 . S
C551 Gd498 2.805 . S
C551 O533 1.263 . S
C551 O534 1.252 . S
C551 C545 1.500 . S
C552 H514 0.930 . S
C552 C528 1.417 . S
C552 C553 1.329 . S
C553 C523 1.437 . S
C553 H524 0.929 . S
C553 C552 1.329 . S
H554 C527 0.931 . S
C555 O537 1.265 . S
C555 O538 1.242 . S
C556 O541 1.261 . S
C556 O542 1.252 . S
C557 C560 1.394 . S
C557 C562 1.370 . S
C557 C563 1.500 . S
C558 C561 1.383 . S
C558 C562 1.395 . S
C559 C560 1.396 . S
C559 C561 1.365 . S
C559 H568 0.929 . S
C560 C557 1.394 . S
C560 C559 1.396 . S
C560 H569 0.930 . S
C561 C558 1.383 . S
C561 C559 1.365 . S
C561 H570 0.931 . S
C562 C557 1.370 . S
C562 C558 1.395 . S
C562 H571 0.930 . S
C563 Gd499 2.805 . S
C563 O539 1.263 . S
C563 O540 1.252 . S
C563 C557 1.500 . S
H564 C547 0.929 . S
H565 C548 0.930 . S
H566 C549 0.931 . S
H567 C550 0.930 . S
H568 C559 0.929 . S
H569 C560 0.930 . S
H570 C561 0.931 . S
H571 C562 0.930 . S
C572 C574 1.422 . S
C572 C576 1.415 . S
C572 N578 1.369 1_455 S
C573 C574 1.421 . S
C573 C575 1.417 . S
C573 C585 1.422 . S
C574 C572 1.422 . S
C574 C573 1.421 . S
C574 N584 1.372 . S
C575 C573 1.417 . S
C575 C577 1.329 . S
C575 H594 0.930 . S
C576 C572 1.415 . S
C576 C577 1.437 . S
C576 C580 1.413 . S
C577 C575 1.329 . S
C577 C576 1.437 . S
C577 H599 0.929 . S
N578 C572 1.369 1_655 S
N578 C579 1.338 . S
N578 Gd583 2.622 . S
C579 N578 1.338 . S
C579 C581 1.378 1_655 S
C579 H591 0.929 . S
C580 C576 1.413 . S
C580 C581 1.348 . S
C580 H596 0.931 . S
C581 C579 1.378 1_455 S
C581 C580 1.348 . S
C581 H597 0.925 1_455 S
Gd582 N602 2.622 . S
Gd582 N609 2.570 . S
Gd582 O616 2.353 . S
Gd582 O617 2.468 . S
Gd582 O618 2.427 . S
Gd582 O620 2.388 . S
Gd582 O621 2.386 1_455 S
Gd582 O625 2.307 . S
Gd582 C635 2.805 . S
Gd583 N578 2.622 . S
Gd583 N584 2.559 1_655 S
Gd583 O615 2.386 1_655 S
Gd583 O619 2.318 . S
Gd583 O622 2.353 . S
Gd583 O623 2.468 . S
Gd583 O624 2.427 . S
Gd583 O626 2.388 . S
Gd583 C647 2.805 . S
N584 C574 1.372 . S
N584 Gd583 2.559 1_455 S
N584 C586 1.348 . S
C585 C573 1.422 . S
C585 C587 1.321 . S
C585 H593 0.931 . S
C586 N584 1.348 . S
C586 C587 1.390 . S
C586 H588 0.931 1_455 S
C587 C585 1.321 . S
C587 C586 1.390 . S
C587 H589 0.930 . S
H588 C586 0.931 1_655 S
H589 C587 0.930 . S
H590 C613 0.931 . S
H591 C579 0.929 . S
H592 C614 0.930 . S
H593 C585 0.931 . S
H594 C575 0.930 . S
H595 C604 0.929 . S
H596 C580 0.931 . S
H597 C581 0.925 1_655 S
H598 C636 0.930 . S
H599 C577 0.929 . S
H600 C605 0.931 . S
H601 C606 0.930 . S
N602 Gd582 2.622 . S
N602 C603 1.369 . S
N602 C604 1.338 . S
C603 N602 1.369 . S
C603 C607 1.415 1_455 S
C603 C610 1.422 . S
C604 H595 0.929 . S
C604 N602 1.338 . S
C604 C606 1.378 . S
C605 H600 0.931 . S
C605 C606 1.348 1_655 S
C605 C607 1.413 . S
C606 H601 0.930 . S
C606 C604 1.378 . S
C606 C605 1.348 1_455 S
C607 C603 1.415 1_655 S
C607 C605 1.413 . S
C607 C637 1.437 . S
H608 C637 0.929 . S
N609 Gd582 2.570 . S
N609 C610 1.359 . S
N609 C613 1.343 . S
C610 C603 1.422 . S
C610 N609 1.359 . S
C610 C612 1.421 1_455 S
C611 C612 1.422 . S
C611 C614 1.321 . S
C611 H638 0.931 . S
C612 C610 1.421 1_655 S
C612 C611 1.422 . S
C612 C636 1.417 . S
C613 H590 0.931 . S
C613 N609 1.343 . S
C613 C614 1.390 1_455 S
C614 H592 0.930 . S
C614 C611 1.321 . S
C614 C613 1.390 1_655 S
O615 Gd583 2.386 1_455 S
O615 C627 1.265 . S
O616 Gd582 2.353 . S
O616 C627 1.242 . S
O617 Gd582 2.468 . S
O617 C635 1.263 . S
O618 Gd582 2.427 . S
O618 C635 1.252 . S
O619 Gd583 2.318 . S
O619 C628 1.253 1_655 S
O620 Gd582 2.388 . S
O620 C628 1.252 . S
O621 Gd582 2.386 1_655 S
O621 C639 1.265 . S
O622 Gd583 2.353 . S
O622 C639 1.242 . S
O623 Gd583 2.468 . S
O623 C647 1.263 . S
O624 Gd583 2.427 . S
O624 C647 1.252 . S
O625 Gd582 2.307 . S
O625 C640 1.261 . S
O626 Gd583 2.388 . S
O626 C640 1.252 1_655 S
C627 O615 1.265 . S
C627 O616 1.242 . S
C628 O619 1.253 1_455 S
C628 O620 1.252 . S
C629 C632 1.394 . S
C629 C634 1.370 . S
C629 C635 1.500 . S
C630 C633 1.383 . S
C630 C634 1.395 . S
C631 C632 1.396 . S
C631 C633 1.365 . S
C631 H648 0.929 . S
C632 C629 1.394 . S
C632 C631 1.396 . S
C632 H649 0.930 . S
C633 C630 1.383 . S
C633 C631 1.365 . S
C633 H650 0.931 . S
C634 C629 1.370 . S
C634 C630 1.395 . S
C634 H651 0.930 . S
C635 Gd582 2.805 . S
C635 O617 1.263 . S
C635 O618 1.252 . S
C635 C629 1.500 . S
C636 H598 0.930 . S
C636 C612 1.417 . S
C636 C637 1.329 . S
C637 C607 1.437 . S
C637 H608 0.929 . S
C637 C636 1.329 . S
H638 C611 0.931 . S
C639 O621 1.265 . S
C639 O622 1.242 . S
C640 O625 1.261 . S
C640 O626 1.252 1_455 S
C641 C644 1.394 . S
C641 C646 1.370 . S
C641 C647 1.500 . S
C642 C645 1.383 . S
C642 C646 1.395 . S
C643 C644 1.396 . S
C643 C645 1.365 . S
C643 H652 0.929 . S
C644 C641 1.394 . S
C644 C643 1.396 . S
C644 H653 0.930 . S
C645 C642 1.383 . S
C645 C643 1.365 . S
C645 H654 0.931 . S
C646 C641 1.370 . S
C646 C642 1.395 . S
C646 H655 0.930 . S
C647 Gd583 2.805 . S
C647 O623 1.263 . S
C647 O624 1.252 . S
C647 C641 1.500 . S
H648 C631 0.929 . S
H649 C632 0.930 . S
H650 C633 0.931 . S
H651 C634 0.930 . S
H652 C643 0.929 . S
H653 C644 0.930 . S
H654 C645 0.931 . S
H655 C646 0.930 . S
H656 C668 0.930 . S
H657 C670 0.930 . S
H658 C671 0.930 . S
H659 C675 0.959 . S
H660 C675 0.959 1_565 S
H661 C675 0.956 1_565 S
H662 C676 0.960 . S
H663 C676 0.961 . S
H664 C676 0.959 . S
H665 C679 0.929 . S
H666 C680 0.931 . S
H667 C682 0.930 1_565 S
C668 H656 0.930 . S
C668 C669 1.399 . S
C668 C673 1.399 . S
C669 C668 1.399 . S
C669 C670 1.376 . S
C670 H657 0.930 . S
C670 C669 1.376 . S
C670 C671 1.388 . S
C671 H658 0.930 . S
C671 C670 1.388 . S
C671 C672 1.390 . S
C672 C671 1.390 . S
C672 C673 1.394 . S
C672 C678 1.465 . S
C673 C668 1.399 . S
C673 C672 1.394 . S
C673 C674 1.516 . S
C674 C673 1.516 . S
C674 C675 1.502 . S
C674 C676 1.561 1_545 S
C674 C677 1.526 . S
C675 H659 0.959 . S
C675 H660 0.959 1_545 S
C675 H661 0.956 1_545 S
C675 C674 1.502 . S
C676 H662 0.960 . S
C676 H663 0.961 . S
C676 H664 0.959 . S
C676 C674 1.561 1_565 S
C677 C674 1.526 . S
C677 C678 1.396 . S
C677 C682 1.390 . S
C678 C672 1.465 . S
C678 C677 1.396 . S
C678 C679 1.399 . S
C679 H665 0.929 . S
C679 C678 1.399 . S
C679 C680 1.385 . S
C680 H666 0.931 . S
C680 C679 1.385 . S
C680 C681 1.389 . S
C681 C680 1.389 . S
C681 C682 1.387 . S
C682 H667 0.930 1_545 S
C682 C677 1.390 . S
C682 C681 1.387 . S
H683 C695 0.930 . S
H684 C697 0.930 . S
H685 C698 0.930 . S
H686 C702 0.959 . S
H687 C702 0.959 . S
H688 C702 0.961 . S
H689 C703 0.960 . S
H690 C703 0.961 . S
H691 C703 0.959 . S
H692 C706 0.929 . S
H693 C707 0.931 . S
H694 C709 0.930 . S
C695 H683 0.930 . S
C695 C696 1.399 . S
C695 C700 1.399 . S
C696 C695 1.399 . S
C696 C697 1.376 . S
C697 H684 0.930 . S
C697 C696 1.376 . S
C697 C698 1.388 . S
C698 H685 0.930 . S
C698 C697 1.388 . S
C698 C699 1.390 . S
C699 C698 1.390 . S
C699 C700 1.394 . S
C699 C705 1.465 . S
C700 C695 1.399 . S
C700 C699 1.394 . S
C700 C701 1.516 . S
C701 C700 1.516 . S
C701 C702 1.502 . S
C701 C703 1.561 . S
C701 C704 1.526 . S
C702 H686 0.959 . S
C702 H687 0.959 . S
C702 H688 0.961 . S
C702 C701 1.502 . S
C703 H689 0.960 . S
C703 H690 0.961 . S
C703 H691 0.959 . S
C703 C701 1.561 . S
C704 C701 1.526 . S
C704 C705 1.396 . S
C704 C709 1.390 . S
C705 C699 1.465 . S
C705 C704 1.396 . S
C705 C706 1.399 . S
C706 H692 0.929 . S
C706 C705 1.399 . S
C706 C707 1.385 . S
C707 H693 0.931 . S
C707 C706 1.385 . S
C707 C708 1.389 . S
C708 C707 1.389 . S
C708 C709 1.387 . S
C709 H694 0.930 . S
C709 C704 1.390 . S
C709 C708 1.387 . S
H710 C722 0.930 . S
H711 C724 0.930 . S
H712 C725 0.930 . S
H713 C729 0.959 . S
H714 C729 0.959 . S
H715 C729 0.961 . S
H716 C730 0.960 . S
H717 C730 0.961 . S
H718 C730 0.959 . S
H719 C733 0.929 . S
H720 C734 0.931 . S
H721 C736 0.930 . S
C722 H710 0.930 . S
C722 C723 1.399 . S
C722 C727 1.399 . S
C723 C722 1.399 . S
C723 C724 1.376 . S
C724 H711 0.930 . S
C724 C723 1.376 . S
C724 C725 1.388 . S
C725 H712 0.930 . S
C725 C724 1.388 . S
C725 C726 1.390 . S
C726 C725 1.390 . S
C726 C727 1.394 . S
C726 C732 1.465 . S
C727 C722 1.399 . S
C727 C726 1.394 . S
C727 C728 1.516 . S
C728 C727 1.516 . S
C728 C729 1.502 . S
C728 C730 1.561 . S
C728 C731 1.526 . S
C729 H713 0.959 . S
C729 H714 0.959 . S
C729 H715 0.961 . S
C729 C728 1.502 . S
C730 H716 0.960 . S
C730 H717 0.961 . S
C730 H718 0.959 . S
C730 C728 1.561 . S
C731 C728 1.526 . S
C731 C732 1.396 . S
C731 C736 1.390 . S
C732 C726 1.465 . S
C732 C731 1.396 . S
C732 C733 1.399 . S
C733 H719 0.929 . S
C733 C732 1.399 . S
C733 C734 1.385 . S
C734 H720 0.931 . S
C734 C733 1.385 . S
C734 C735 1.389 . S
C735 C734 1.389 . S
C735 C736 1.387 . S
C736 H721 0.930 . S
C736 C731 1.390 . S
C736 C735 1.387 . S
H737 C749 0.930 . S
H738 C751 0.930 . S
H739 C752 0.930 . S
H740 C756 0.959 . S
H741 C756 0.959 . S
H742 C756 0.961 . S
H743 C757 0.960 . S
H744 C757 0.961 . S
H745 C757 0.959 . S
H746 C760 0.929 1_655 S
H747 C761 0.931 1_655 S
H748 C763 0.930 . S
C749 H737 0.930 . S
C749 C750 1.399 . S
C749 C754 1.399 . S
C750 C749 1.399 . S
C750 C751 1.376 . S
C751 H738 0.930 . S
C751 C750 1.376 . S
C751 C752 1.388 . S
C752 H739 0.930 . S
C752 C751 1.388 . S
C752 C753 1.390 . S
C753 C752 1.390 . S
C753 C754 1.394 . S
C753 C759 1.465 . S
C754 C749 1.399 . S
C754 C753 1.394 . S
C754 C755 1.516 . S
C755 C754 1.516 . S
C755 C756 1.502 . S
C755 C757 1.561 . S
C755 C758 1.526 . S
C756 H740 0.959 . S
C756 H741 0.959 . S
C756 H742 0.961 . S
C756 C755 1.502 . S
C757 H743 0.960 . S
C757 H744 0.961 . S
C757 H745 0.959 . S
C757 C755 1.561 . S
C758 C755 1.526 . S
C758 C759 1.396 . S
C758 C763 1.390 . S
C759 C753 1.465 . S
C759 C758 1.396 . S
C759 C760 1.399 . S
C760 H746 0.929 1_455 S
C760 C759 1.399 . S
C760 C761 1.385 . S
C761 H747 0.931 1_455 S
C761 C760 1.385 . S
C761 C762 1.389 . S
C762 C761 1.389 . S
C762 C763 1.387 . S
C763 H748 0.930 . S
C763 C758 1.390 . S
C763 C762 1.387 . S
H764 C776 0.930 . S
H765 C778 0.930 . S
H766 C779 0.930 1_556 S
H767 C783 0.959 . S
H768 C783 0.959 1_545 S
H769 C783 0.961 . S
H770 C784 0.960 . S
H771 C784 0.961 . S
H772 C784 0.959 . S
H773 C787 0.929 . S
H774 C788 0.931 . S
H775 C790 0.954 . S
C776 H764 0.930 . S
C776 C777 1.399 . S
C776 C781 1.399 1_554 S
C777 C776 1.399 . S
C777 C778 1.376 . S
C778 H765 0.930 . S
C778 C777 1.376 . S
C778 C779 1.388 . S
C779 H766 0.930 1_554 S
C779 C778 1.388 . S
C779 C780 1.390 1_554 S
C780 C779 1.390 1_556 S
C780 C781 1.394 . S
C780 C786 1.465 . S
C781 C776 1.399 1_556 S
C781 C780 1.394 . S
C781 C782 1.512 1_565 S
C782 C781 1.512 1_545 S
C782 C783 1.500 1_545 S
C782 C784 1.568 . S
C782 C785 1.524 1_545 S
C783 H767 0.959 . S
C783 H768 0.959 1_565 S
C783 H769 0.961 . S
C783 C782 1.500 1_565 S
C784 H770 0.960 . S
C784 H771 0.961 . S
C784 H772 0.959 . S
C784 C782 1.568 . S
C785 C782 1.524 1_565 S
C785 C786 1.396 . S
C785 C790 1.379 1_565 S
C786 C780 1.465 . S
C786 C785 1.396 . S
C786 C787 1.399 . S
C787 H773 0.929 . S
C787 C786 1.399 . S
C787 C788 1.385 . S
C788 H774 0.931 . S
C788 C787 1.385 . S
C788 C789 1.389 . S
C789 C788 1.389 . S
C789 C790 1.375 1_565 S
C790 H775 0.954 . S
C790 C785 1.379 1_545 S
C790 C789 1.375 1_545 S
H791 C803 0.930 . S
H792 C805 0.930 . S
H793 C806 0.930 . S
H794 C810 0.959 . S
H795 C810 0.959 . S
H796 C810 0.961 . S
H797 C811 0.960 . S
H798 C811 0.961 . S
H799 C811 0.959 . S
H800 C814 0.929 . S
H801 C815 0.931 . S
H802 C817 0.930 . S
C803 H791 0.930 . S
C803 C804 1.399 . S
C803 C808 1.399 1_554 S
C804 C803 1.399 . S
C804 C805 1.376 . S
C805 H792 0.930 . S
C805 C804 1.376 . S
C805 C806 1.388 . S
C806 H793 0.930 . S
C806 C805 1.388 . S
C806 C807 1.390 1_554 S
C807 C806 1.390 1_556 S
C807 C808 1.394 . S
C807 C813 1.465 . S
C808 C803 1.399 1_556 S
C808 C807 1.394 . S
C808 C809 1.516 . S
C809 C808 1.516 . S
C809 C810 1.502 . S
C809 C811 1.561 . S
C809 C812 1.526 . S
C810 H794 0.959 . S
C810 H795 0.959 . S
C810 H796 0.961 . S
C810 C809 1.502 . S
C811 H797 0.960 . S
C811 H798 0.961 . S
C811 H799 0.959 . S
C811 C809 1.561 . S
C812 C809 1.526 . S
C812 C813 1.396 . S
C812 C817 1.390 . S
C813 C807 1.465 . S
C813 C812 1.396 . S
C813 C814 1.399 . S
C814 H800 0.929 . S
C814 C813 1.399 . S
C814 C815 1.385 . S
C815 H801 0.931 . S
C815 C814 1.385 . S
C815 C816 1.389 . S
C816 C815 1.389 . S
C816 C817 1.387 . S
C817 H802 0.930 . S
C817 C812 1.390 . S
C817 C816 1.387 . S
H818 C830 0.930 . S
H819 C832 0.930 . S
H820 C833 0.930 . S
H821 C837 0.959 . S
H822 C837 0.959 . S
H823 C837 0.961 . S
H824 C838 0.960 . S
H825 C838 0.961 . S
H826 C838 0.959 . S
H827 C841 0.929 . S
H828 C842 0.931 . S
H829 C844 0.930 . S
C830 H818 0.930 . S
C830 C831 1.399 . S
C830 C835 1.399 1_554 S
C831 C830 1.399 . S
C831 C832 1.376 . S
C832 H819 0.930 . S
C832 C831 1.376 . S
C832 C833 1.388 . S
C833 H820 0.930 . S
C833 C832 1.388 . S
C833 C834 1.390 1_554 S
C834 C833 1.390 1_556 S
C834 C835 1.394 . S
C834 C840 1.465 . S
C835 C830 1.399 1_556 S
C835 C834 1.394 . S
C835 C836 1.516 . S
C836 C835 1.516 . S
C836 C837 1.502 . S
C836 C838 1.561 . S
C836 C839 1.526 . S
C837 H821 0.959 . S
C837 H822 0.959 . S
C837 H823 0.961 . S
C837 C836 1.502 . S
C838 H824 0.960 . S
C838 H825 0.961 . S
C838 H826 0.959 . S
C838 C836 1.561 . S
C839 C836 1.526 . S
C839 C840 1.396 . S
C839 C844 1.390 . S
C840 C834 1.465 . S
C840 C839 1.396 . S
C840 C841 1.399 . S
C841 H827 0.929 . S
C841 C840 1.399 . S
C841 C842 1.385 . S
C842 H828 0.931 . S
C842 C841 1.385 . S
C842 C843 1.389 . S
C843 C842 1.389 . S
C843 C844 1.387 . S
C844 H829 0.930 . S
C844 C839 1.390 . S
C844 C843 1.387 . S
H845 C857 0.930 . S
H846 C859 0.930 . S
H847 C860 0.930 . S
H848 C864 0.959 1_455 S
H849 C864 0.959 . S
H850 C864 0.961 1_554 S
H851 C865 0.960 . S
H852 C865 0.961 . S
H853 C865 0.959 . S
H854 C868 0.929 . S
H855 C869 0.931 . S
H856 C871 0.930 . S
C857 H845 0.930 . S
C857 C858 1.399 . S
C857 C862 1.399 1_554 S
C858 C857 1.399 . S
C858 C859 1.376 . S
C859 H846 0.930 . S
C859 C858 1.376 . S
C859 C860 1.388 1_554 S
C860 H847 0.930 . S
C860 C859 1.388 1_556 S
C860 C861 1.390 . S
C861 C860 1.390 . S
C861 C862 1.394 . S
C861 C867 1.465 . S
C862 C857 1.399 1_556 S
C862 C861 1.394 . S
C862 C863 1.516 . S
C863 C862 1.516 . S
C863 C864 1.502 . S
C863 C865 1.561 . S
C863 C866 1.526 . S
C864 H848 0.959 1_655 S
C864 H849 0.959 . S
C864 H850 0.961 1_556 S
C864 C863 1.502 . S
C865 H851 0.960 . S
C865 H852 0.961 . S
C865 H853 0.959 . S
C865 C863 1.561 . S
C866 C863 1.526 . S
C866 C867 1.396 . S
C866 C871 1.390 . S
C867 C861 1.465 . S
C867 C866 1.396 . S
C867 C868 1.399 . S
C868 H854 0.929 . S
C868 C867 1.399 . S
C868 C869 1.385 . S
C869 H855 0.931 . S
C869 C868 1.385 . S
C869 C870 1.389 . S
C870 C869 1.389 . S
C870 C871 1.387 . S
C871 H856 0.930 . S
C871 C866 1.390 . S
C871 C870 1.387 . S
H872 C884 0.930 . S
H873 C886 0.930 . S
H874 C887 0.930 . S
H875 C891 0.959 . S
H876 C891 0.959 . S
H877 C891 0.961 . S
H878 C892 0.960 . S
H879 C892 0.961 . S
H880 C892 0.959 . S
H881 C895 0.929 . S
H882 C896 0.931 . S
H883 C898 0.930 . S
C884 H872 0.930 . S
C884 C885 1.399 . S
C884 C889 1.399 . S
C885 C884 1.399 . S
C885 C886 1.376 . S
C886 H873 0.930 . S
C886 C885 1.376 . S
C886 C887 1.388 . S
C887 H874 0.930 . S
C887 C886 1.388 . S
C887 C888 1.390 . S
C888 C887 1.390 . S
C888 C889 1.394 . S
C888 C894 1.465 . S
C889 C884 1.399 . S
C889 C888 1.394 . S
C889 C890 1.516 . S
C890 C889 1.516 . S
C890 C891 1.502 . S
C890 C892 1.561 . S
C890 C893 1.526 . S
C891 H875 0.959 . S
C891 H876 0.959 . S
C891 H877 0.961 . S
C891 C890 1.502 . S
C892 H878 0.960 . S
C892 H879 0.961 . S
C892 H880 0.959 . S
C892 C890 1.561 . S
C893 C890 1.526 . S
C893 C894 1.396 . S
C893 C898 1.390 . S
C894 C888 1.465 . S
C894 C893 1.396 . S
C894 C895 1.399 . S
C895 H881 0.929 . S
C895 C894 1.399 . S
C895 C896 1.385 1_455 S
C896 H882 0.931 . S
C896 C895 1.385 1_655 S
C896 C897 1.390 1_655 S
C897 C896 1.390 1_455 S
C897 C898 1.385 . S
C898 H883 0.930 . S
C898 C893 1.390 . S
C898 C897 1.385 . S
H899 C911 0.930 . S
H900 C913 0.930 . S
H901 C914 0.930 . S
H902 C918 0.959 . S
H903 C918 0.959 . S
H904 C918 0.961 . S
H905 C919 0.960 . S
H906 C919 0.961 . S
H907 C919 0.959 . S
H908 C922 0.929 . S
H909 C923 0.931 . S
H910 C925 0.930 . S
C911 H899 0.930 . S
C911 C912 1.399 . S
C911 C916 1.399 . S
C912 C911 1.399 . S
C912 C913 1.376 . S
C913 H900 0.930 . S
C913 C912 1.376 . S
C913 C914 1.388 . S
C914 H901 0.930 . S
C914 C913 1.388 . S
C914 C915 1.390 . S
C915 C914 1.390 . S
C915 C916 1.394 . S
C915 C921 1.465 . S
C916 C911 1.399 . S
C916 C915 1.394 . S
C916 C917 1.516 . S
C917 C916 1.516 . S
C917 C918 1.502 . S
C917 C919 1.561 . S
C917 C920 1.526 . S
C918 H902 0.959 . S
C918 H903 0.959 . S
C918 H904 0.961 . S
C918 C917 1.502 . S
C919 H905 0.960 . S
C919 H906 0.961 . S
C919 H907 0.959 . S
C919 C917 1.561 . S
C920 C917 1.526 . S
C920 C921 1.396 . S
C920 C925 1.390 . S
C921 C915 1.465 . S
C921 C920 1.396 . S
C921 C922 1.399 1_545 S
C922 H908 0.929 . S
C922 C921 1.399 1_565 S
C922 C923 1.385 . S
C923 H909 0.931 . S
C923 C922 1.385 . S
C923 C924 1.389 1_565 S
C924 C923 1.389 1_545 S
C924 C925 1.387 . S
C925 H910 0.930 . S
C925 C920 1.390 . S
C925 C924 1.387 . S
H926 C938 0.930 . S
H927 C940 0.930 . S
H928 C941 0.930 . S
H929 C945 0.959 . S
H930 C945 0.959 . S
H931 C945 0.961 . S
H932 C946 0.960 . S
H933 C946 0.961 . S
H934 C946 0.959 . S
H935 C949 0.929 . S
H936 C950 0.931 . S
H937 C952 0.930 . S
C938 H926 0.930 . S
C938 C939 1.399 . S
C938 C943 1.399 . S
C939 C938 1.399 . S
C939 C940 1.376 . S
C940 H927 0.930 . S
C940 C939 1.376 . S
C940 C941 1.388 . S
C941 H928 0.930 . S
C941 C940 1.388 . S
C941 C942 1.390 . S
C942 C941 1.390 . S
C942 C943 1.394 . S
C942 C948 1.465 . S
C943 C938 1.399 . S
C943 C942 1.394 . S
C943 C944 1.516 . S
C944 C943 1.516 . S
C944 C945 1.502 . S
C944 C946 1.561 . S
C944 C947 1.526 . S
C945 H929 0.959 . S
C945 H930 0.959 . S
C945 H931 0.961 . S
C945 C944 1.502 . S
C946 H932 0.960 . S
C946 H933 0.961 . S
C946 H934 0.959 . S
C946 C944 1.561 . S
C947 C944 1.526 . S
C947 C948 1.396 . S
C947 C952 1.390 . S
C948 C942 1.465 . S
C948 C947 1.396 . S
C948 C949 1.399 . S
C949 H935 0.929 . S
C949 C948 1.399 . S
C949 C950 1.385 . S
C950 H936 0.931 . S
C950 C949 1.385 . S
C950 C951 1.389 . S
C951 C950 1.389 . S
C951 C952 1.387 . S
C952 H937 0.930 . S
C952 C947 1.390 . S
C952 C951 1.387 . S
H953 C965 0.930 . S
H954 C967 0.930 . S
H955 C968 0.930 . S
H956 C972 0.959 . S
H957 C972 0.959 . S
H958 C972 0.961 . S
H959 C973 0.960 . S
H960 C973 0.961 . S
H961 C973 0.959 . S
H962 C976 0.929 . S
H963 C977 0.931 . S
H964 C979 0.930 . S
C965 H953 0.930 . S
C965 C966 1.399 . S
C965 C970 1.399 . S
C966 C965 1.399 . S
C966 C967 1.376 . S
C967 H954 0.930 . S
C967 C966 1.376 . S
C967 C968 1.388 . S
C968 H955 0.930 . S
C968 C967 1.388 . S
C968 C969 1.390 . S
C969 C968 1.390 . S
C969 C970 1.394 . S
C969 C975 1.465 . S
C970 C965 1.399 . S
C970 C969 1.394 . S
C970 C971 1.516 . S
C971 C970 1.516 . S
C971 C972 1.502 . S
C971 C973 1.561 . S
C971 C974 1.526 . S
C972 H956 0.959 . S
C972 H957 0.959 . S
C972 H958 0.961 . S
C972 C971 1.502 . S
C973 H959 0.960 . S
C973 H960 0.961 . S
C973 H961 0.959 . S
C973 C971 1.561 . S
C974 C971 1.526 . S
C974 C975 1.396 . S
C974 C979 1.390 . S
C975 C969 1.465 . S
C975 C974 1.396 . S
C975 C976 1.399 . S
C976 H962 0.929 . S
C976 C975 1.399 . S
C976 C977 1.385 . S
C977 H963 0.931 . S
C977 C976 1.385 . S
C977 C978 1.389 . S
C978 C977 1.389 . S
C978 C979 1.387 . S
C979 H964 0.930 . S
C979 C974 1.390 . S
C979 C978 1.387 . S
H980 C992 0.930 . S
H981 C994 0.930 . S
H982 C995 0.930 . S
H983 C999 0.959 1_455 S
H984 C999 0.959 . S
H985 C999 0.961 . S
H986 C1000 0.960 . S
H987 C1000 0.961 . S
H988 C1000 0.959 . S
H989 C1003 0.929 . S
H990 C1004 0.931 . S
H991 C1006 0.930 . S
C992 H980 0.930 . S
C992 C993 1.399 . S
C992 C997 1.399 . S
C993 C992 1.399 . S
C993 C994 1.376 1_556 S
C994 H981 0.930 . S
C994 C993 1.376 1_554 S
C994 C995 1.388 . S
C995 H982 0.930 . S
C995 C994 1.388 . S
C995 C996 1.390 1_554 S
C996 C995 1.390 1_556 S
C996 C997 1.394 . S
C996 C1002 1.465 . S
C997 C992 1.399 . S
C997 C996 1.394 . S
C997 C998 1.516 . S
C998 C997 1.516 . S
C998 C999 1.502 . S
C998 C1000 1.561 . S
C998 C1001 1.526 . S
C999 H983 0.959 1_655 S
C999 H984 0.959 . S
C999 H985 0.961 . S
C999 C998 1.502 . S
C1000 H986 0.960 . S
C1000 H987 0.961 . S
C1000 H988 0.959 . S
C1000 C998 1.561 . S
C1001 C998 1.526 . S
C1001 C1002 1.396 . S
C1001 C1006 1.390 1_655 S
C1002 C996 1.465 . S
C1002 C1001 1.396 . S
C1002 C1003 1.399 . S
C1003 H989 0.929 . S
C1003 C1002 1.399 . S
C1003 C1004 1.385 1_655 S
C1004 H990 0.931 . S
C1004 C1003 1.385 1_455 S
C1004 C1005 1.389 . S
C1005 C1004 1.389 . S
C1005 C1006 1.387 . S
C1006 H991 0.930 . S
C1006 C1001 1.390 1_455 S
C1006 C1005 1.387 . S
H1007 C1019 0.930 . S
H1008 C1021 0.930 . S
H1009 C1022 0.915 1_545 S
H1010 C1026 0.959 . S
H1011 C1026 0.959 . S
H1012 C1026 0.961 . S
H1013 C1027 0.960 . S
H1014 C1027 0.961 . S
H1015 C1027 0.959 . S
H1016 C1030 0.929 . S
H1017 C1031 0.931 . S
H1018 C1033 0.930 . S
C1019 H1007 0.930 . S
C1019 C1020 1.399 . S
C1019 C1024 1.399 . S
C1020 C1019 1.399 . S
C1020 C1021 1.376 1_556 S
C1021 H1008 0.930 . S
C1021 C1020 1.376 1_554 S
C1021 C1022 1.388 . S
C1022 H1009 0.915 1_565 S
C1022 C1021 1.388 . S
C1022 C1023 1.390 1_554 S
C1023 C1022 1.390 1_556 S
C1023 C1024 1.394 . S
C1023 C1029 1.465 . S
C1024 C1019 1.399 . S
C1024 C1023 1.394 . S
C1024 C1025 1.516 . S
C1025 C1024 1.516 . S
C1025 C1026 1.502 . S
C1025 C1027 1.561 . S
C1025 C1028 1.526 . S
C1026 H1010 0.959 . S
C1026 H1011 0.959 . S
C1026 H1012 0.961 . S
C1026 C1025 1.502 . S
C1027 H1013 0.960 . S
C1027 H1014 0.961 . S
C1027 H1015 0.959 . S
C1027 C1025 1.561 . S
C1028 C1025 1.526 . S
C1028 C1029 1.396 . S
C1028 C1033 1.390 . S
C1029 C1023 1.465 . S
C1029 C1028 1.396 . S
C1029 C1030 1.399 1_565 S
C1030 H1016 0.929 . S
C1030 C1029 1.399 1_545 S
C1030 C1031 1.385 . S
C1031 H1017 0.931 . S
C1031 C1030 1.385 . S
C1031 C1032 1.389 . S
C1032 C1031 1.389 . S
C1032 C1033 1.387 1_545 S
C1033 H1018 0.930 . S
C1033 C1028 1.390 . S
C1033 C1032 1.387 1_565 S
H1034 C1046 0.930 . S
H1035 C1048 0.930 1_554 S
H1036 C1049 0.930 . S
H1037 C1053 0.959 . S
H1038 C1053 0.959 . S
H1039 C1053 0.961 . S
H1040 C1054 0.960 . S
H1041 C1054 0.961 . S
H1042 C1054 0.959 . S
H1043 C1057 0.929 . S
H1044 C1058 0.931 . S
H1045 C1060 0.930 . S
C1046 H1034 0.930 . S
C1046 C1047 1.399 . S
C1046 C1051 1.399 . S
C1047 C1046 1.399 . S
C1047 C1048 1.376 . S
C1048 H1035 0.930 1_556 S
C1048 C1047 1.376 . S
C1048 C1049 1.388 . S
C1049 H1036 0.930 . S
C1049 C1048 1.388 . S
C1049 C1050 1.390 . S
C1050 C1049 1.390 . S
C1050 C1051 1.394 . S
C1050 C1056 1.465 . S
C1051 C1046 1.399 . S
C1051 C1050 1.394 . S
C1051 C1052 1.516 . S
C1052 C1051 1.516 . S
C1052 C1053 1.502 . S
C1052 C1054 1.561 . S
C1052 C1055 1.526 . S
C1053 H1037 0.959 . S
C1053 H1038 0.959 . S
C1053 H1039 0.961 . S
C1053 C1052 1.502 . S
C1054 H1040 0.960 . S
C1054 H1041 0.961 . S
C1054 H1042 0.959 . S
C1054 C1052 1.561 . S
C1055 C1052 1.526 . S
C1055 C1056 1.396 . S
C1055 C1060 1.390 . S
C1056 C1050 1.465 . S
C1056 C1055 1.396 . S
C1056 C1057 1.399 . S
C1057 H1043 0.929 . S
C1057 C1056 1.399 . S
C1057 C1058 1.385 . S
C1058 H1044 0.931 . S
C1058 C1057 1.385 . S
C1058 C1059 1.389 . S
C1059 C1058 1.389 . S
C1059 C1060 1.387 . S
C1060 H1045 0.930 . S
C1060 C1055 1.390 . S
C1060 C1059 1.387 . S
H1061 C1073 0.930 1_554 S
H1062 C1075 0.930 . S
H1063 C1076 0.930 . S
H1064 C1080 0.959 . S
H1065 C1080 0.958 1_556 S
H1066 C1080 0.961 . S
H1067 C1081 0.960 . S
H1068 C1081 0.961 . S
H1069 C1081 0.959 . S
H1070 C1084 0.929 . S
H1071 C1085 0.931 . S
H1072 C1087 0.930 . S
C1073 H1061 0.930 1_556 S
C1073 C1074 1.399 . S
C1073 C1078 1.399 . S
C1074 C1073 1.399 . S
C1074 C1075 1.376 . S
C1075 H1062 0.930 . S
C1075 C1074 1.376 . S
C1075 C1076 1.388 . S
C1076 H1063 0.930 . S
C1076 C1075 1.388 . S
C1076 C1077 1.390 . S
C1077 C1076 1.390 . S
C1077 C1078 1.394 . S
C1077 C1083 1.465 . S
C1078 C1073 1.399 . S
C1078 C1077 1.394 . S
C1078 C1079 1.516 . S
C1079 C1078 1.516 . S
C1079 C1080 1.502 1_556 S
C1079 C1081 1.561 . S
C1079 C1082 1.526 . S
C1080 H1064 0.959 . S
C1080 H1065 0.958 1_554 S
C1080 H1066 0.961 . S
C1080 C1079 1.502 1_554 S
C1081 H1067 0.960 . S
C1081 H1068 0.961 . S
C1081 H1069 0.959 . S
C1081 C1079 1.561 . S
C1082 C1079 1.526 . S
C1082 C1083 1.396 . S
C1082 C1087 1.390 . S
C1083 C1077 1.465 . S
C1083 C1082 1.396 . S
C1083 C1084 1.399 . S
C1084 H1070 0.929 . S
C1084 C1083 1.399 . S
C1084 C1085 1.385 . S
C1085 H1071 0.931 . S
C1085 C1084 1.385 . S
C1085 C1086 1.389 . S
C1086 C1085 1.389 . S
C1086 C1087 1.387 . S
C1087 H1072 0.930 . S
C1087 C1082 1.390 . S
C1087 C1086 1.387 . S
H1088 C1100 0.930 . S
H1089 C1102 0.930 . S
H1090 C1103 0.930 . S
H1091 C1107 0.959 . S
H1092 C1107 0.959 . S
H1093 C1107 0.961 . S
H1094 C1108 0.960 . S
H1095 C1108 0.961 . S
H1096 C1108 0.959 . S
H1097 C1111 0.929 . S
H1098 C1112 0.931 . S
H1099 C1114 0.930 . S
C1100 H1088 0.930 . S
C1100 C1101 1.399 . S
C1100 C1105 1.399 . S
C1101 C1100 1.399 . S
C1101 C1102 1.376 . S
C1102 H1089 0.930 . S
C1102 C1101 1.376 . S
C1102 C1103 1.388 . S
C1103 H1090 0.930 . S
C1103 C1102 1.388 . S
C1103 C1104 1.390 . S
C1104 C1103 1.390 . S
C1104 C1105 1.394 . S
C1104 C1110 1.465 . S
C1105 C1100 1.399 . S
C1105 C1104 1.394 . S
C1105 C1106 1.516 . S
C1106 C1105 1.516 . S
C1106 C1107 1.502 1_455 S
C1106 C1108 1.561 . S
C1106 C1109 1.526 . S
C1107 H1091 0.959 . S
C1107 H1092 0.959 . S
C1107 H1093 0.961 . S
C1107 C1106 1.502 1_655 S
C1108 H1094 0.960 . S
C1108 H1095 0.961 . S
C1108 H1096 0.959 . S
C1108 C1106 1.561 . S
C1109 C1106 1.526 . S
C1109 C1110 1.396 . S
C1109 C1114 1.390 . S
C1110 C1104 1.465 . S
C1110 C1109 1.396 . S
C1110 C1111 1.399 . S
C1111 H1097 0.929 . S
C1111 C1110 1.399 . S
C1111 C1112 1.385 . S
C1112 H1098 0.931 . S
C1112 C1111 1.385 . S
C1112 C1113 1.389 . S
C1113 C1112 1.389 . S
C1113 C1114 1.387 . S
C1114 H1099 0.930 . S
C1114 C1109 1.390 . S
C1114 C1113 1.387 . S
H1115 C1127 0.930 . S
H1116 C1129 0.930 . S
H1117 C1130 0.930 . S
H1118 C1134 0.959 . S
H1119 C1134 0.959 . S
H1120 C1134 0.961 . S
H1121 C1135 0.960 . S
H1122 C1135 0.961 . S
H1123 C1135 0.959 . S
H1124 C1138 0.929 . S
H1125 C1139 0.931 . S
H1126 C1141 0.930 . S
C1127 H1115 0.930 . S
C1127 C1128 1.399 . S
C1127 C1132 1.399 . S
C1128 C1127 1.399 . S
C1128 C1129 1.376 . S
C1129 H1116 0.930 . S
C1129 C1128 1.376 . S
C1129 C1130 1.388 . S
C1130 H1117 0.930 . S
C1130 C1129 1.388 . S
C1130 C1131 1.390 . S
C1131 C1130 1.390 . S
C1131 C1132 1.394 . S
C1131 C1137 1.465 . S
C1132 C1127 1.399 . S
C1132 C1131 1.394 . S
C1132 C1133 1.516 . S
C1133 C1132 1.516 . S
C1133 C1134 1.502 1_545 S
C1133 C1135 1.561 . S
C1133 C1136 1.526 . S
C1134 H1118 0.959 . S
C1134 H1119 0.959 . S
C1134 H1120 0.961 . S
C1134 C1133 1.502 1_565 S
C1135 H1121 0.960 . S
C1135 H1122 0.961 . S
C1135 H1123 0.959 . S
C1135 C1133 1.561 . S
C1136 C1133 1.526 . S
C1136 C1137 1.396 . S
C1136 C1141 1.390 . S
C1137 C1131 1.465 . S
C1137 C1136 1.396 . S
C1137 C1138 1.399 . S
C1138 H1124 0.929 . S
C1138 C1137 1.399 . S
C1138 C1139 1.385 . S
C1139 H1125 0.931 . S
C1139 C1138 1.385 . S
C1139 C1140 1.389 . S
C1140 C1139 1.389 . S
C1140 C1141 1.387 . S
C1141 H1126 0.930 . S
C1141 C1136 1.390 . S
C1141 C1140 1.387 . S
H1142 C1154 0.930 . S
H1143 C1156 0.930 . S
H1144 C1157 0.930 . S
H1145 C1161 0.959 . S
H1146 C1161 0.959 . S
H1147 C1161 0.961 . S
H1148 C1162 0.960 . S
H1149 C1162 0.961 . S
H1150 C1162 0.959 . S
H1151 C1165 0.929 . S
H1152 C1166 0.931 . S
H1153 C1168 0.930 . S
C1154 H1142 0.930 . S
C1154 C1155 1.399 . S
C1154 C1159 1.399 . S
C1155 C1154 1.399 . S
C1155 C1156 1.376 . S
C1156 H1143 0.930 . S
C1156 C1155 1.376 . S
C1156 C1157 1.388 . S
C1157 H1144 0.930 . S
C1157 C1156 1.388 . S
C1157 C1158 1.390 . S
C1158 C1157 1.390 . S
C1158 C1159 1.394 . S
C1158 C1164 1.465 . S
C1159 C1154 1.399 . S
C1159 C1158 1.394 . S
C1159 C1160 1.516 . S
C1160 C1159 1.516 . S
C1160 C1161 1.502 . S
C1160 C1162 1.561 . S
C1160 C1163 1.526 . S
C1161 H1145 0.959 . S
C1161 H1146 0.959 . S
C1161 H1147 0.961 . S
C1161 C1160 1.502 . S
C1162 H1148 0.960 . S
C1162 H1149 0.961 . S
C1162 H1150 0.959 . S
C1162 C1160 1.561 . S
C1163 C1160 1.526 . S
C1163 C1164 1.396 . S
C1163 C1168 1.390 . S
C1164 C1158 1.465 . S
C1164 C1163 1.396 . S
C1164 C1165 1.399 . S
C1165 H1151 0.929 . S
C1165 C1164 1.399 . S
C1165 C1166 1.385 . S
C1166 H1152 0.931 . S
C1166 C1165 1.385 . S
C1166 C1167 1.389 . S
C1167 C1166 1.389 . S
C1167 C1168 1.387 . S
C1168 H1153 0.930 . S
C1168 C1163 1.390 . S
C1168 C1167 1.387 . S
H1169 C1181 0.930 . S
H1170 C1183 0.930 . S
H1171 C1184 0.930 . S
H1172 C1188 0.959 . S
H1173 C1188 0.959 . S
H1174 C1188 0.961 . S
H1175 C1189 0.960 . S
H1176 C1189 0.961 . S
H1177 C1189 0.959 . S
H1178 C1192 0.929 . S
H1179 C1193 0.931 . S
H1180 C1195 0.930 . S
C1181 H1169 0.930 . S
C1181 C1182 1.399 . S
C1181 C1186 1.399 . S
C1182 C1181 1.399 . S
C1182 C1183 1.376 . S
C1183 H1170 0.930 . S
C1183 C1182 1.376 . S
C1183 C1184 1.388 . S
C1184 H1171 0.930 . S
C1184 C1183 1.388 . S
C1184 C1185 1.390 . S
C1185 C1184 1.390 . S
C1185 C1186 1.394 . S
C1185 C1191 1.465 . S
C1186 C1181 1.399 . S
C1186 C1185 1.394 . S
C1186 C1187 1.516 . S
C1187 C1186 1.516 . S
C1187 C1188 1.502 . S
C1187 C1189 1.561 . S
C1187 C1190 1.526 . S
C1188 H1172 0.959 . S
C1188 H1173 0.959 . S
C1188 H1174 0.961 . S
C1188 C1187 1.502 . S
C1189 H1175 0.960 . S
C1189 H1176 0.961 . S
C1189 H1177 0.959 . S
C1189 C1187 1.561 . S
C1190 C1187 1.526 . S
C1190 C1191 1.396 . S
C1190 C1195 1.390 . S
C1191 C1185 1.465 . S
C1191 C1190 1.396 . S
C1191 C1192 1.399 . S
C1192 H1178 0.929 . S
C1192 C1191 1.399 . S
C1192 C1193 1.385 . S
C1193 H1179 0.931 . S
C1193 C1192 1.385 . S
C1193 C1194 1.389 . S
C1194 C1193 1.389 . S
C1194 C1195 1.387 . S
C1195 H1180 0.930 . S
C1195 C1190 1.390 . S
C1195 C1194 1.387 . S
H1196 C1208 0.930 . S
H1197 C1210 0.930 . S
H1198 C1211 0.952 . S
H1199 C1215 0.959 . S
H1200 C1215 0.959 . S
H1201 C1215 0.961 . S
H1202 C1216 0.960 . S
H1203 C1216 0.961 . S
H1204 C1216 0.959 . S
H1205 C1219 0.929 1_455 S
H1206 C1220 0.931 1_455 S
H1207 C1222 0.930 . S
C1208 H1196 0.930 . S
C1208 C1209 1.399 . S
C1208 C1213 1.399 . S
C1209 C1208 1.399 . S
C1209 C1210 1.376 . S
C1210 H1197 0.930 . S
C1210 C1209 1.376 . S
C1210 C1211 1.388 . S
C1211 H1198 0.952 . S
C1211 C1210 1.388 . S
C1211 C1212 1.390 . S
C1212 C1211 1.390 . S
C1212 C1213 1.394 . S
C1212 C1218 1.465 . S
C1213 C1208 1.399 . S
C1213 C1212 1.394 . S
C1213 C1214 1.516 . S
C1214 C1213 1.516 . S
C1214 C1215 1.502 . S
C1214 C1216 1.561 . S
C1214 C1217 1.526 . S
C1215 H1199 0.959 . S
C1215 H1200 0.959 . S
C1215 H1201 0.961 . S
C1215 C1214 1.502 . S
C1216 H1202 0.960 . S
C1216 H1203 0.961 . S
C1216 H1204 0.959 . S
C1216 C1214 1.561 . S
C1217 C1214 1.526 . S
C1217 C1218 1.396 . S
C1217 C1222 1.390 . S
C1218 C1212 1.465 . S
C1218 C1217 1.396 . S
C1218 C1219 1.399 . S
C1219 H1205 0.929 1_655 S
C1219 C1218 1.399 . S
C1219 C1220 1.385 . S
C1220 H1206 0.931 1_655 S
C1220 C1219 1.385 . S
C1220 C1221 1.389 . S
C1221 C1220 1.389 . S
C1221 C1222 1.387 . S
C1222 H1207 0.930 . S
C1222 C1217 1.390 . S
C1222 C1221 1.387 . S
H1223 C1235 0.930 . S
H1224 C1237 0.930 . S
H1225 C1238 0.930 . S
H1226 C1242 0.959 . S
H1227 C1242 0.959 . S
H1228 C1242 0.961 . S
H1229 C1243 0.960 . S
H1230 C1243 0.961 . S
H1231 C1243 0.959 1_545 S
H1232 C1246 0.929 . S
H1233 C1247 0.931 . S
H1234 C1249 0.930 . S
C1235 H1223 0.930 . S
C1235 C1236 1.399 . S
C1235 C1240 1.399 . S
C1236 C1235 1.399 . S
C1236 C1237 1.376 . S
C1237 H1224 0.930 . S
C1237 C1236 1.376 . S
C1237 C1238 1.388 . S
C1238 H1225 0.930 . S
C1238 C1237 1.388 . S
C1238 C1239 1.390 . S
C1239 C1238 1.390 . S
C1239 C1240 1.394 . S
C1239 C1245 1.465 . S
C1240 C1235 1.399 . S
C1240 C1239 1.394 . S
C1240 C1241 1.516 . S
C1241 C1240 1.516 . S
C1241 C1242 1.502 . S
C1241 C1243 1.561 . S
C1241 C1244 1.526 . S
C1242 H1226 0.959 . S
C1242 H1227 0.959 . S
C1242 H1228 0.961 . S
C1242 C1241 1.502 . S
C1243 H1229 0.960 . S
C1243 H1230 0.961 . S
C1243 H1231 0.959 1_565 S
C1243 C1241 1.561 . S
C1244 C1241 1.526 . S
C1244 C1245 1.396 . S
C1244 C1249 1.390 . S
C1245 C1239 1.465 . S
C1245 C1244 1.396 . S
C1245 C1246 1.399 . S
C1246 H1232 0.929 . S
C1246 C1245 1.399 . S
C1246 C1247 1.385 . S
C1247 H1233 0.931 . S
C1247 C1246 1.385 . S
C1247 C1248 1.389 . S
C1248 C1247 1.389 . S
C1248 C1249 1.387 . S
C1249 H1234 0.930 . S
C1249 C1244 1.390 . S
C1249 C1248 1.387 . S
H1250 C1262 0.930 . S
H1251 C1264 0.930 . S
H1252 C1265 0.930 . S
H1253 C1269 0.959 . S
H1254 C1269 0.959 . S
H1255 C1269 0.961 . S
H1256 C1270 0.960 . S
H1257 C1270 0.961 . S
H1258 C1270 0.959 . S
H1259 C1273 0.929 . S
H1260 C1274 0.931 . S
H1261 C1276 0.930 . S
C1262 H1250 0.930 . S
C1262 C1263 1.399 . S
C1262 C1267 1.399 . S
C1263 C1262 1.399 . S
C1263 C1264 1.376 . S
C1264 H1251 0.930 . S
C1264 C1263 1.376 . S
C1264 C1265 1.388 . S
C1265 H1252 0.930 . S
C1265 C1264 1.388 . S
C1265 C1266 1.390 . S
C1266 C1265 1.390 . S
C1266 C1267 1.394 . S
C1266 C1272 1.465 . S
C1267 C1262 1.399 . S
C1267 C1266 1.394 . S
C1267 C1268 1.516 . S
C1268 C1267 1.516 . S
C1268 C1269 1.502 . S
C1268 C1270 1.561 . S
C1268 C1271 1.526 . S
C1269 H1253 0.959 . S
C1269 H1254 0.959 . S
C1269 H1255 0.961 . S
C1269 C1268 1.502 . S
C1270 H1256 0.960 . S
C1270 H1257 0.961 . S
C1270 H1258 0.959 . S
C1270 C1268 1.561 . S
C1271 C1268 1.526 . S
C1271 C1272 1.396 . S
C1271 C1276 1.390 . S
C1272 C1266 1.465 . S
C1272 C1271 1.396 . S
C1272 C1273 1.399 . S
C1273 H1259 0.929 . S
C1273 C1272 1.399 . S
C1273 C1274 1.385 . S
C1274 H1260 0.931 . S
C1274 C1273 1.385 . S
C1274 C1275 1.389 . S
C1275 C1274 1.389 . S
C1275 C1276 1.387 . S
C1276 H1261 0.930 . S
C1276 C1271 1.390 . S
C1276 C1275 1.387 . S
H1277 C1289 0.930 . S
H1278 C1291 0.930 . S
H1279 C1292 0.930 . S
H1280 C1296 0.959 . S
H1281 C1296 0.959 . S
H1282 C1296 0.961 . S
H1283 C1297 0.960 . S
H1284 C1297 0.961 . S
H1285 C1297 0.959 . S
H1286 C1300 0.929 . S
H1287 C1301 0.931 . S
H1288 C1303 0.930 . S
C1289 H1277 0.930 . S
C1289 C1290 1.399 . S
C1289 C1294 1.399 . S
C1290 C1289 1.399 . S
C1290 C1291 1.376 . S
C1291 H1278 0.930 . S
C1291 C1290 1.376 . S
C1291 C1292 1.388 . S
C1292 H1279 0.930 . S
C1292 C1291 1.388 . S
C1292 C1293 1.390 . S
C1293 C1292 1.390 . S
C1293 C1294 1.394 . S
C1293 C1299 1.465 . S
C1294 C1289 1.399 . S
C1294 C1293 1.394 . S
C1294 C1295 1.516 . S
C1295 C1294 1.516 . S
C1295 C1296 1.502 . S
C1295 C1297 1.561 . S
C1295 C1298 1.526 . S
C1296 H1280 0.959 . S
C1296 H1281 0.959 . S
C1296 H1282 0.961 . S
C1296 C1295 1.502 . S
C1297 H1283 0.960 . S
C1297 H1284 0.961 . S
C1297 H1285 0.959 . S
C1297 C1295 1.561 . S
C1298 C1295 1.526 . S
C1298 C1299 1.396 . S
C1298 C1303 1.390 . S
C1299 C1293 1.465 . S
C1299 C1298 1.396 . S
C1299 C1300 1.399 . S
C1300 H1286 0.929 . S
C1300 C1299 1.399 . S
C1300 C1301 1.385 . S
C1301 H1287 0.931 . S
C1301 C1300 1.385 . S
C1301 C1302 1.389 . S
C1302 C1301 1.389 . S
C1302 C1303 1.387 . S
C1303 H1288 0.930 . S
C1303 C1298 1.390 . S
C1303 C1302 1.387 . S
C669 C255 2.355 . S
C681 C388 2.570 . S
C708 C471 2.585 . S
C696 C295 2.368 . S
C735 C556 2.570 . S
C723 C175 2.348 . S
C762 C640 2.533 . S
C750 C215 2.340 . S
C789 C376 2.541 1_565 S
C777 C95 2.417 . S
C804 C135 2.412 . S
C816 C459 2.555 . S
C831 C15 2.415 . S
C843 C544 2.539 . S
C858 C55 2.320 . S
C870 C628 2.544 1_655 S
C897 C378 0.449 1_455 S
C885 C221 0.551 . S
C924 C474 0.630 . S
C912 C261 0.500 . S
C951 C546 0.480 . S
C939 C301 0.569 . S
C966 C181 0.512 . S
C978 C630 0.569 . S
C993 C61 0.565 . S
C1005 C390 0.579 . S
C1032 C462 0.437 . S
C1020 C101 0.476 . S
C1059 C558 0.459 . S
C1047 C141 0.445 1_556 S
C1074 C21 0.677 . S
C1086 C642 0.544 . S
C1101 C202 2.886 . S
C1113 C375 3.151 . S
C1128 C242 2.883 . S
C1140 C460 3.201 . S
C1167 C543 3.181 . S
C1155 C282 2.913 . S
C1194 C627 3.167 . S
C1182 C162 2.940 . S
C1209 C42 2.839 . S
C1221 C387 3.152 . S
C1248 C472 3.197 . S
C1236 C82 2.824 . S
C1275 C555 3.184 . S
C1263 C122 2.860 . S
C1290 C2 2.914 . S
C1302 C639 3.158 . S
