# Generated by pormake.
# Topology scu, (8,4)-cn, num edge types: 1
# Building blocks:
#     Node 0, Type 0, BuildingBlock: TAGTUT_clean_sbu_3, # of connection points: 8
#     Node 1, Type 1, BuildingBlock: NAWXER_clean_sbu_0, # of connection points: 4
#     Node 2, Type 1, BuildingBlock: NAWXER_clean_sbu_0, # of connection points: 4
#     Edge 3, Type (0, 1), BuildingBlock: TEMPAE_clean_linker_10, # of connection points: 2
#     Edge 4, Type (0, 1), BuildingBlock: TEMPAE_clean_linker_10, # of connection points: 2
#     Edge 5, Type (0, 1), BuildingBlock: TEMPAE_clean_linker_10, # of connection points: 2
#     Edge 6, Type (0, 1), BuildingBlock: TEMPAE_clean_linker_10, # of connection points: 2
#     Edge 7, Type (0, 1), BuildingBlock: TEMPAE_clean_linker_10, # of connection points: 2
#     Edge 8, Type (0, 1), BuildingBlock: TEMPAE_clean_linker_10, # of connection points: 2
#     Edge 9, Type (0, 1), BuildingBlock: TEMPAE_clean_linker_10, # of connection points: 2
#     Edge 10, Type (0, 1), BuildingBlock: TEMPAE_clean_linker_10, # of connection points: 2
# Relax obj value: 0.033
# Max RMSD: 0.097
# Mean RMSD: 0.064
data_MOF--net-scu--node1-TAGTUT_clean_sbu_3--node2-NAWXER_clean_sbu_0--edge1-TEMPAE_clean_linker_10
_symmetry_space_group_name_H-M    P1
_symmetry_Int_Tables_number       1
_symmetry_cell_setting            triclinic
loop_
_symmetry_equiv_pos_as_xyz
'x, y, z'
_cell_length_a     27.266033
_cell_length_b     22.898152
_cell_length_c     20.139434
_cell_angle_alpha  89.400978
_cell_angle_beta   91.442917
_cell_angle_gamma 90.114586
loop_
_atom_site_label
_atom_site_type_symbol
_atom_site_fract_x
_atom_site_fract_y
_atom_site_fract_z
_atom_type_partial_charge
C0 C 0.01554 0.87794 0.06389 0.0
C1 C 0.83201 0.95925 0.08548 0.0
C2 C 0.8601 0.0379 0.89927 0.0
Mg3 Mg 0.10901 0.94471 0.99172 0.0
Mg4 Mg 0.11125 0.08822 0.99985 0.0
O5 O 0.07811 0.02125 0.96765 0.0
Mg6 Mg 0.01108 0.00904 0.00245 0.0
O7 O 0.94404 0.99379 0.03668 0.0
Mg8 Mg 0.92194 0.92826 0.97727 0.0
Mg9 Mg 0.90137 0.05831 0.03985 0.0
C10 C 0.01057 0.1416 0.94101 0.0
O11 O 0.02391 0.07209 0.08941 0.0
O12 O 0.17499 0.97968 0.92646 0.0
O13 O 0.95027 0.11656 0.09625 0.0
O14 O 0.14738 0.97648 0.08538 0.0
O15 O 0.17169 0.07764 0.93597 0.0
O16 O 0.14081 0.0719 0.10095 0.0
O17 O 0.99252 0.94696 0.91795 0.0
O18 O 0.06699 0.90994 0.90176 0.0
C19 C 0.02122 0.9132 0.88688 0.0
C20 C 0.19102 0.03153 0.91251 0.0
O21 O 0.98917 0.09169 0.94531 0.0
O22 O 0.85265 0.92216 0.04709 0.0
O23 O 0.05394 0.15092 0.96595 0.0
O24 O 0.87653 0.98625 0.9074 0.0
O25 O 0.84623 0.01226 0.09124 0.0
O26 O 0.86779 0.0773 0.94279 0.0
O27 O 0.03881 0.92615 0.05529 0.0
O28 O 0.97086 0.87145 0.04392 0.0
C29 C 0.15481 0.02134 0.12089 0.0
C30 C 0.99595 0.11158 0.11307 0.0
C31 C 0.03446 0.56852 0.5972 0.0
C32 C 0.07145 0.41626 0.43745 0.0
O33 O 0.07624 0.5447 0.59079 0.0
Zn34 Zn 0.05688 0.49059 0.52017 0.0
O35 O 0.99808 0.55159 0.56113 0.0
Zn36 Zn 0.98019 0.49191 0.4862 0.0
O37 O 0.93375 0.44031 0.531 0.0
O38 O 0.01017 0.43154 0.5693 0.0
O39 O 0.02682 0.43357 0.4365 0.0
O40 O 0.10243 0.43658 0.47966 0.0
O41 O 0.04043 0.54848 0.4394 0.0
O42 O 0.96108 0.54498 0.41414 0.0
C43 C 0.96509 0.41611 0.57023 0.0
C44 C 1.00367 0.56564 0.40357 0.0
C45 C 0.57656 0.98704 0.57931 0.0
C46 C 0.42681 0.94988 0.44315 0.0
O47 O 0.55458 0.93786 0.57595 0.0
Zn48 Zn 0.5025 0.96124 0.51176 0.0
O49 O 0.55994 0.03042 0.54516 0.0
Zn50 Zn 0.50255 0.05268 0.47705 0.0
O51 O 0.46413 0.10907 0.52785 0.0
O52 O 0.46287 0.01939 0.56971 0.0
O53 O 0.44446 0.00141 0.4393 0.0
O54 O 0.44836 0.91105 0.47907 0.0
O55 O 0.54247 0.97705 0.42487 0.0
O56 O 0.53951 0.07037 0.39661 0.0
C57 C 0.4501 0.07287 0.5721 0.0
C58 C 0.55443 0.01867 0.38557 0.0
C59 C 0.98804 0.17573 0.21149 0.0
C60 C 0.01712 0.15309 0.16162 0.0
C61 C 0.0073 0.21608 0.25714 0.0
C62 C 0.05694 0.23405 0.2529 0.0
C63 C 0.08678 0.21029 0.20355 0.0
C64 C 0.06618 0.17084 0.1578 0.0
C65 C 0.97402 0.2408 0.30867 0.0
C66 C 0.13984 0.228 0.1975 0.0
C67 C 0.07153 0.38545 0.32128 0.0
C68 C 0.08472 0.37332 0.38757 0.0
C69 C 0.06688 0.34063 0.27491 0.0
C70 C 0.07527 0.28223 0.29578 0.0
C71 C 0.09355 0.27048 0.36111 0.0
C72 C 0.09798 0.31649 0.40666 0.0
C73 C 0.04776 0.35533 0.2057 0.0
C74 C 0.10384 0.20888 0.3847 0.0
H75 H 0.95005 0.16209 0.2146 0.0
H76 H 0.08794 0.15566 0.11743 0.0
H77 H 0.99061 0.2346 0.3591 0.0
H78 H 0.96949 0.28848 0.30018 0.0
H79 H 0.93712 0.22012 0.30738 0.0
H80 H 0.15985 0.19885 0.16374 0.0
H81 H 0.14192 0.27329 0.17771 0.0
H82 H 0.15878 0.22737 0.24692 0.0
H83 H 0.06104 0.4296 0.30698 0.0
H84 H 0.10753 0.3072 0.45828 0.0
H85 H 0.0089 0.34119 0.2005 0.0
H86 H 0.06881 0.33184 0.16793 0.0
H87 H 0.04964 0.40294 0.1948 0.0
H88 H 0.06861 0.1863 0.3942 0.0
H89 H 0.12646 0.20804 0.43137 0.0
H90 H 0.12297 0.18388 0.34622 0.0
C91 C 0.79253 0.94549 0.19309 0.0
C92 C 0.78865 0.94364 0.12373 0.0
C93 C 0.75085 0.95261 0.23163 0.0
C94 C 0.70419 0.95894 0.19981 0.0
C95 C 0.69973 0.9532 0.12989 0.0
C96 C 0.74219 0.94568 0.09256 0.0
C97 C 0.7573 0.9576 0.30606 0.0
C98 C 0.65073 0.95941 0.09405 0.0
C99 C 0.59632 0.9464 0.3145 0.0
C100 C 0.58787 0.00508 0.3307 0.0
C101 C 0.63241 0.93089 0.26955 0.0
C102 C 0.661 0.97504 0.23982 0.0
C103 C 0.65098 0.03455 0.25313 0.0
C104 C 0.61444 0.04891 0.29839 0.0
C105 C 0.64157 0.86705 0.25653 0.0
C106 C 0.68048 0.08298 0.22197 0.0
H107 H 0.82867 0.94547 0.21691 0.0
H108 H 0.73942 0.94616 0.03874 0.0
H109 H 0.74893 0.00288 0.32125 0.0
H110 H 0.73134 0.9281 0.33158 0.0
H111 H 0.79522 0.94678 0.32345 0.0
H112 H 0.65242 0.94614 0.04125 0.0
H113 H 0.6224 0.93274 0.11887 0.0
H114 H 0.63876 0.00565 0.09556 0.0
H115 H 0.5756 0.91208 0.33854 0.0
H116 H 0.60815 0.09425 0.3105 0.0
H117 H 0.6777 0.85421 0.27865 0.0
H118 H 0.64292 0.85908 0.20237 0.0
H119 H 0.61292 0.83845 0.27796 0.0
H120 H 0.71898 0.08084 0.24106 0.0
H121 H 0.66556 0.12687 0.23286 0.0
H122 H 0.68119 0.07759 0.16733 0.0
C123 C 0.02719 0.77322 0.08804 0.0
C124 C 0.03589 0.83117 0.10649 0.0
C125 C 0.02975 0.72791 0.13515 0.0
C126 C 0.04033 0.74133 0.20242 0.0
C127 C 0.05383 0.79909 0.22004 0.0
C128 C 0.05181 0.84354 0.17141 0.0
C129 C 0.01666 0.66668 0.11382 0.0
C130 C 0.06561 0.8151 0.29117 0.0
C131 C 0.97426 0.64596 0.32724 0.0
C132 C 0.01215 0.60958 0.35082 0.0
C133 C 0.98333 0.68988 0.27989 0.0
C134 C 0.03118 0.69663 0.2547 0.0
C135 C 0.06936 0.6594 0.27764 0.0
C136 C 0.05946 0.61663 0.32579 0.0
C137 C 0.94173 0.72923 0.25696 0.0
C138 C 0.12046 0.66435 0.25085 0.0
H139 H 0.01487 0.76392 0.03759 0.0
H140 H 0.05798 0.88857 0.18563 0.0
H141 H 0.04246 0.63449 0.13678 0.0
H142 H 0.97933 0.65563 0.13077 0.0
H143 H 0.01706 0.66202 0.05897 0.0
H144 H 0.08204 0.85942 0.29509 0.0
H145 H 0.03138 0.81418 0.31985 0.0
H146 H 0.09126 0.78306 0.31465 0.0
H147 H 0.93781 0.64092 0.34684 0.0
H148 H 0.08887 0.58825 0.34353 0.0
H149 H 0.93453 0.72373 0.20293 0.0
H150 H 0.95196 0.77561 0.26498 0.0
H151 H 0.90729 0.71992 0.28348 0.0
H152 H 0.11936 0.65691 0.19648 0.0
H153 H 0.14623 0.63245 0.27462 0.0
H154 H 0.13512 0.70901 0.25882 0.0
C155 C 0.1821 0.95732 0.21525 0.0
C156 C 0.18321 0.01244 0.18393 0.0
C157 C 0.21634 0.94202 0.26556 0.0
C158 C 0.25289 0.9827 0.28498 0.0
C159 C 0.25182 0.04001 0.25724 0.0
C160 C 0.21675 0.05435 0.20713 0.0
C161 C 0.21532 0.88098 0.29463 0.0
C162 C 0.28984 0.08494 0.27712 0.0
C163 C 0.33668 0.95908 0.43713 0.0
C164 C 0.37978 0.93979 0.40796 0.0
C165 C 0.29413 0.97071 0.39832 0.0
C166 C 0.29512 0.96353 0.32858 0.0
C167 C 0.33785 0.94074 0.29959 0.0
C168 C 0.37977 0.92947 0.33967 0.0
C169 C 0.24946 0.99459 0.43141 0.0
C170 C 0.34047 0.93205 0.22555 0.0
H171 H 0.15573 0.92493 0.19816 0.0
H172 H 0.21778 0.09691 0.18312 0.0
H173 H 0.24738 0.85611 0.27734 0.0
H174 H 0.21811 0.88236 0.34964 0.0
H175 H 0.1814 0.85693 0.27989 0.0
H176 H 0.28093 0.12898 0.25656 0.0
H177 H 0.2932 0.08773 0.33199 0.0
H178 H 0.32614 0.07159 0.25874 0.0
H179 H 0.33734 0.9691 0.48969 0.0
H180 H 0.41366 0.91654 0.31692 0.0
H181 H 0.21576 0.97199 0.41325 0.0
H182 H 0.24535 0.0416 0.41867 0.0
H183 H 0.25218 0.99004 0.48637 0.0
H184 H 0.30905 0.90518 0.20753 0.0
H185 H 0.37508 0.91046 0.21141 0.0
H186 H 0.33798 0.975 0.19965 0.0
C187 C 0.01333 0.87331 0.77452 0.0
C188 C 1.0022 0.86879 0.8417 0.0
C189 C 0.01302 0.82373 0.73436 0.0
C190 C 1.00243 0.7685 0.76296 0.0
C191 C 0.98782 0.76454 0.82983 0.0
C192 C 0.9877 0.81508 0.86849 0.0
C193 C 0.02777 0.82987 0.66286 0.0
C194 C 0.97643 0.70645 0.86214 0.0
C195 C 0.97982 0.64304 0.64556 0.0
C196 C 0.02656 0.61728 0.64336 0.0
C197 C 0.97121 0.69153 0.68523 0.0
C198 C 0.01015 0.71477 0.72414 0.0
C199 C 0.0571 0.68818 0.72383 0.0
C200 C 0.06483 0.63971 0.68316 0.0
C201 C 0.92079 0.71887 0.68402 0.0
C202 C 0.09939 0.71171 0.76541 0.0
H203 H 0.0257 0.91487 0.75466 0.0
H204 H 0.98051 0.81172 0.92112 0.0
H205 H 0.0645 0.81013 0.6568 0.0
H206 H 1.00161 0.80618 0.62971 0.0
H207 H 0.02935 0.87629 0.64642 0.0
H208 H 0.96046 0.71164 0.91195 0.0
H209 H 0.95051 0.68096 0.83049 0.0
H210 H 0.01067 0.68058 0.8679 0.0
H211 H 0.9498 0.62603 0.61518 0.0
H212 H 0.10088 0.61998 0.68188 0.0
H213 H 0.92286 0.76401 0.66369 0.0
H214 H 0.90696 0.72195 0.73519 0.0
H215 H 0.89385 0.69378 0.65335 0.0
H216 H 0.1084 0.7567 0.74867 0.0
H217 H 0.13281 0.68431 0.76224 0.0
H218 H 0.08895 0.71421 0.81821 0.0
C219 C 0.25253 0.09661 0.85866 0.0
C220 C 0.23178 0.04057 0.86554 0.0
C221 C 0.2883 0.10854 0.81158 0.0
C222 C 0.3042 0.06343 0.77003 0.0
C223 C 0.28411 0.0065 0.77706 0.0
C224 C 0.24817 -0.00431 0.82482 0.0
C225 C 0.30889 0.16967 0.80609 0.0
C226 C 0.30033 0.95715 0.73367 0.0
C227 C 0.36668 0.09978 0.60732 0.0
C228 C 0.4158 0.08807 0.62431 0.0
C229 C 0.3299 0.09359 0.65476 0.0
C230 C 0.34285 0.07555 0.72051 0.0
C231 C 0.39289 0.06743 0.73862 0.0
C232 C 0.42866 0.07329 0.69012 0.0
C233 C 0.27699 0.10261 0.63339 0.0
C234 C 0.40847 0.04898 0.80819 0.0
H235 H 0.24054 0.1318 0.88992 0.0
H236 H 0.23229 0.95244 0.82937 0.0
H237 H 0.3492 0.1689 0.81507 0.0
H238 H 0.30218 0.1872 0.75511 0.0
H239 H 0.29245 0.20003 0.84196 0.0
H240 H 0.28098 0.91559 0.74487 0.0
H241 H 0.29343 0.96869 0.68061 0.0
H242 H 0.34038 0.95007 0.74058 0.0
H243 H 0.35659 0.10918 0.55589 0.0
H244 H 0.46657 0.06278 0.70269 0.0
H245 H 0.25854 0.1321 0.66824 0.0
H246 H 0.25735 0.06014 0.63462 0.0
H247 H 0.27334 0.12128 0.58236 0.0
H248 H 0.39236 0.07848 0.84513 0.0
H249 H 0.44899 0.04904 0.81549 0.0
H250 H 0.39462 0.0043 0.8186 0.0
C251 C 0.94669 0.17314 0.8565 0.0
C252 C 0.98723 0.18726 0.89787 0.0
C253 C 0.93049 0.2111 0.80542 0.0
C254 C 0.95567 0.26431 0.79502 0.0
C255 C 0.99365 0.28119 0.84028 0.0
C256 C 0.00897 0.24247 0.89116 0.0
C257 C 0.88941 0.19156 0.7591 0.0
C258 C 0.02106 0.33801 0.83153 0.0
C259 C 0.98081 0.32018 0.62224 0.0
C260 C 0.95177 0.37043 0.61829 0.0
C261 C 0.97961 0.28297 0.67769 0.0
C262 C 0.94907 0.29694 0.73109 0.0
C263 C 0.9168 0.34531 0.72513 0.0
C264 C 0.91848 0.3817 0.66838 0.0
C265 C 0.01395 0.23125 0.68117 0.0
C266 C 0.88331 0.36116 0.78058 0.0
H267 H 0.92953 0.13067 0.86083 0.0
H268 H 0.03986 0.25423 0.92326 0.0
H269 H 0.86601 0.22889 0.74284 0.0
H270 H 0.90526 0.17227 0.71412 0.0
H271 H 0.86598 0.15794 0.78277 0.0
H272 H 0.04466 0.34842 0.87562 0.0
H273 H 0.04472 0.33504 0.78765 0.0
H274 H 0.99506 0.37456 0.8223 0.0
H275 H 1.00668 0.31183 0.58339 0.0
H276 H 0.89658 0.42117 0.6656 0.0
H277 H 0.99378 0.1911 0.6954 0.0
H278 H 0.04294 0.23882 0.71982 0.0
H279 H 0.03194 0.22355 0.63315 0.0
H280 H 0.86541 0.32164 0.80126 0.0
H281 H 0.85451 0.39261 0.76369 0.0
H282 H 0.90522 0.38147 0.8214 0.0
C283 C 0.83078 0.01559 0.78464 0.0
C284 C 0.82485 0.04707 0.84326 0.0
C285 C 0.79194 0.00914 0.73829 0.0
C286 C 0.74578 0.03412 0.75131 0.0
C287 C 0.74055 0.0693 0.80824 0.0
C288 C 0.78037 0.07575 0.85341 0.0
C289 C 0.79956 0.97258 0.67744 0.0
C290 C 0.69197 0.09679 0.82383 0.0
C291 C 0.65053 0.04574 0.61094 0.0
C292 C 0.62091 -0.00355 0.62221 0.0
C293 C 0.69124 0.05837 0.65228 0.0
C294 C 0.7026 0.02116 0.70689 0.0
C295 C 0.67317 0.97102 0.71842 0.0
C296 C 0.63281 0.959 0.67563 0.0
C297 C 0.72204 0.11165 0.63756 0.0
C298 C 0.68405 0.93043 0.77644 0.0
H299 H 0.86519 0.99331 0.77678 0.0
H300 H 0.77543 0.09935 0.89915 0.0
H301 H 0.7781 0.93152 0.68139 0.0
H302 H 0.78611 -0.00391 0.63213 0.0
H303 H 0.83875 0.96116 0.67126 0.0
H304 H 0.69498 0.1268 0.86675 0.0
H305 H 0.67716 0.12147 0.78011 0.0
H306 H 0.66504 0.06201 0.83557 0.0
H307 H 0.64191 0.0748 0.56945 0.0
H308 H 0.60999 0.92112 0.68486 0.0
H309 H 0.76068 0.09862 0.63016 0.0
H310 H 0.72199 0.14172 0.68039 0.0
H311 H 0.7086 0.13582 0.59259 0.0
H312 H 0.72143 0.91194 0.77245 0.0
H313 H 0.65732 0.89385 0.77921 0.0
H314 H 0.68332 0.95509 0.82355 0.0
loop_
_geom_bond_atom_site_label_1
_geom_bond_atom_site_label_2
_geom_bond_distance
_geom_bond_site_symmetry_2
_ccdc_geom_bond_type
C0 O27 1.312 1_655 S
C0 O28 1.208 . S
C1 O22 1.331 . S
C1 O25 1.244 1_565 S
C2 O24 1.264 1_545 S
C2 O26 1.273 . S
Mg3 O5 1.936 1_565 S
Mg3 O12 2.081 . S
Mg3 O14 2.023 1_556 S
Mg3 O18 2.031 . S
Mg3 O27 2.291 1_556 S
Mg4 O5 1.963 . S
Mg4 O15 1.942 . S
Mg4 O16 1.955 1_556 S
Mg4 O23 1.986 . S
O5 Mg3 1.936 1_545 S
O5 Mg4 1.963 . S
O5 Mg6 1.915 1_556 S
Mg6 O5 1.915 1_554 S
Mg6 O7 1.915 1_455 S
Mg6 O11 2.013 . S
Mg6 O17 2.114 1_444 S
Mg6 O21 2.013 1_454 S
Mg6 O27 2.114 1_545 S
O7 Mg6 1.915 1_655 S
O7 Mg8 1.936 1_545 S
O7 Mg9 1.963 . S
Mg8 O7 1.936 1_565 S
Mg8 O17 2.291 1_554 S
Mg8 O22 2.081 . S
Mg8 O24 2.023 1_554 S
Mg8 O28 2.031 . S
Mg9 O7 1.963 . S
Mg9 O13 1.986 . S
Mg9 O25 1.942 . S
Mg9 O26 1.955 1_554 S
C10 O21 1.191 1_455 S
C10 O23 1.307 . S
O11 Mg6 2.013 . S
O11 C30 1.191 1_455 S
O12 Mg3 2.081 . S
O12 C20 1.331 . S
O13 Mg9 1.986 . S
O13 C30 1.307 . S
O14 Mg3 2.023 1_554 S
O14 C29 1.264 1_565 S
O15 Mg4 1.942 . S
O15 C20 1.244 1_545 S
O16 Mg4 1.955 1_554 S
O16 C29 1.273 . S
O17 Mg6 2.114 1_666 S
O17 Mg8 2.291 1_556 S
O17 C19 1.312 1_655 S
O18 Mg3 2.031 . S
O18 C19 1.208 . S
C19 O17 1.312 1_455 S
C19 O18 1.208 . S
C20 O12 1.331 . S
C20 O15 1.244 1_565 S
O21 Mg6 2.013 1_656 S
O21 C10 1.191 1_655 S
O22 C1 1.331 . S
O22 Mg8 2.081 . S
O23 Mg4 1.986 . S
O23 C10 1.307 . S
O24 C2 1.264 1_565 S
O24 Mg8 2.023 1_556 S
O25 C1 1.244 1_545 S
O25 Mg9 1.942 . S
O26 C2 1.273 . S
O26 Mg9 1.955 1_556 S
O27 C0 1.312 1_455 S
O27 Mg3 2.291 1_554 S
O27 Mg6 2.114 1_565 S
O28 C0 1.208 . S
O28 Mg8 2.031 . S
C29 O14 1.264 1_545 S
C29 O16 1.273 . S
C30 O11 1.191 1_655 S
C30 O13 1.307 . S
C31 O33 1.251 . S
C31 O35 1.254 1_455 S
C32 O39 1.246 . S
C32 O40 1.259 1_655 S
O33 C31 1.251 . S
O33 Zn34 2.028 . S
Zn34 O33 2.028 . S
Zn34 O38 2.035 . S
Zn34 O40 2.035 . S
Zn34 O41 2.028 . S
O35 C31 1.254 1_655 S
O35 Zn36 2.035 . S
Zn36 O35 2.035 . S
Zn36 O37 2.028 . S
Zn36 O39 2.028 . S
Zn36 O42 2.035 . S
O37 Zn36 2.028 . S
O37 C43 1.246 . S
O38 Zn34 2.035 . S
O38 C43 1.259 1_455 S
O39 C32 1.246 . S
O39 Zn36 2.028 . S
O40 C32 1.259 1_455 S
O40 Zn34 2.035 . S
O41 Zn34 2.028 . S
O41 C44 1.251 . S
O42 Zn36 2.035 . S
O42 C44 1.253 1_655 S
C43 O37 1.246 . S
C43 O38 1.259 1_655 S
C44 O41 1.251 . S
C44 O42 1.253 1_455 S
C45 O47 1.247 1_545 S
C45 O49 1.258 . S
C46 O53 1.247 . S
C46 O54 1.258 1_545 S
O47 C45 1.247 1_565 S
O47 Zn48 2.028 . S
Zn48 O47 2.028 . S
Zn48 O52 2.035 . S
Zn48 O54 2.035 . S
Zn48 O55 2.028 . S
O49 C45 1.258 . S
O49 Zn50 2.035 . S
Zn50 O49 2.035 . S
Zn50 O51 2.028 . S
Zn50 O53 2.028 . S
Zn50 O56 2.035 . S
O51 Zn50 2.028 . S
O51 C57 1.247 . S
O52 Zn48 2.035 . S
O52 C57 1.258 1_565 S
O53 C46 1.247 . S
O53 Zn50 2.028 . S
O54 C46 1.258 1_565 S
O54 Zn48 2.035 . S
O55 Zn48 2.028 . S
O55 C58 1.247 1_565 S
O56 Zn50 2.035 . S
O56 C58 1.258 . S
C57 O51 1.247 . S
C57 O52 1.258 1_545 S
C58 O55 1.247 1_545 S
C58 O56 1.258 . S
C59 C60 1.413 . S
C59 C61 1.394 . S
C59 H75 0.931 . S
C60 C59 1.413 . S
C60 C64 1.355 1_655 S
C61 C59 1.394 . S
C61 C62 1.369 . S
C61 C65 1.531 . S
C62 C61 1.369 . S
C62 C63 1.410 1_655 S
C62 C70 1.503 . S
C63 C62 1.410 1_455 S
C63 C64 1.392 . S
C63 C66 1.511 . S
C64 C60 1.355 1_455 S
C64 C63 1.392 . S
C64 H76 0.929 . S
C65 C61 1.531 . S
C65 H77 0.960 . S
C65 H78 0.962 . S
C65 H79 0.960 . S
C66 C63 1.511 . S
C66 H80 0.961 . S
C66 H81 0.961 . S
C66 H82 0.961 . S
C67 C68 1.370 1_655 S
C67 C69 1.364 . S
C67 H83 0.931 . S
C68 C67 1.370 1_455 S
C68 C72 1.408 1_455 S
C69 C67 1.364 . S
C69 C70 1.370 . S
C69 C73 1.524 . S
C70 C62 1.503 . S
C70 C69 1.370 . S
C70 C71 1.402 . S
C71 C70 1.402 . S
C71 C72 1.404 . S
C71 C74 1.539 1_655 S
C72 C68 1.408 1_655 S
C72 C71 1.404 . S
C72 H84 0.930 1_655 S
C73 C69 1.524 . S
C73 H85 0.962 . S
C73 H86 0.955 1_655 S
C73 H87 0.960 1_655 S
C74 C71 1.539 1_455 S
C74 H88 0.958 1_455 S
C74 H89 0.961 . S
C74 H90 0.960 . S
H75 C59 0.931 . S
H76 C64 0.929 . S
H77 C65 0.960 . S
H78 C65 0.962 . S
H79 C65 0.960 . S
H80 C66 0.961 . S
H81 C66 0.961 . S
H82 C66 0.961 . S
H83 C67 0.931 . S
H84 C72 0.930 1_455 S
H85 C73 0.962 . S
H86 C73 0.955 1_455 S
H87 C73 0.960 1_455 S
H88 C74 0.958 1_655 S
H89 C74 0.961 . S
H90 C74 0.960 . S
C91 C92 1.391 . S
C91 C93 1.394 . S
C91 H107 0.931 . S
C92 C91 1.391 . S
C92 C96 1.376 1_565 S
C93 C91 1.394 . S
C93 C94 1.369 1_565 S
C93 C97 1.531 . S
C94 C93 1.369 1_545 S
C94 C95 1.410 . S
C94 C102 1.503 . S
C95 C94 1.410 . S
C95 C96 1.392 . S
C95 C98 1.511 . S
C96 C92 1.376 1_545 S
C96 C95 1.392 . S
C96 H108 0.929 . S
C97 C93 1.531 . S
C97 H109 0.960 1_565 S
C97 H110 0.962 . S
C97 H111 0.960 . S
C98 C95 1.511 . S
C98 H112 0.961 . S
C98 H113 0.961 . S
C98 H114 0.961 . S
C99 C100 1.370 1_565 S
C99 C101 1.363 . S
C99 H115 0.931 . S
C100 C99 1.370 1_545 S
C100 C104 1.408 . S
C101 C99 1.363 . S
C101 C102 1.370 1_565 S
C101 C105 1.524 . S
C102 C94 1.503 . S
C102 C101 1.370 1_545 S
C102 C103 1.403 . S
C103 C102 1.403 . S
C103 C104 1.404 . S
C103 C106 1.539 . S
C104 C100 1.408 . S
C104 C103 1.404 . S
C104 H116 0.930 . S
C105 C101 1.524 . S
C105 H117 0.956 . S
C105 H118 0.961 . S
C105 H119 0.961 . S
C106 C103 1.539 . S
C106 H120 0.958 . S
C106 H121 0.961 . S
C106 H122 0.960 . S
H107 C91 0.931 . S
H108 C96 0.929 . S
H109 C97 0.960 1_545 S
H110 C97 0.962 . S
H111 C97 0.960 . S
H112 C98 0.961 . S
H113 C98 0.961 . S
H114 C98 0.961 . S
H115 C99 0.931 . S
H116 C104 0.930 . S
H117 C105 0.956 . S
H118 C105 0.961 . S
H119 C105 0.961 . S
H120 C106 0.958 . S
H121 C106 0.961 . S
H122 C106 0.960 . S
C123 C124 1.391 1_655 S
C123 C125 1.394 . S
C123 H139 0.931 . S
C124 C123 1.391 1_455 S
C124 C128 1.376 . S
C125 C123 1.394 . S
C125 C126 1.369 1_655 S
C125 C129 1.531 . S
C126 C125 1.369 1_455 S
C126 C127 1.410 . S
C126 C134 1.503 . S
C127 C126 1.410 . S
C127 C128 1.392 . S
C127 C130 1.511 . S
C128 C124 1.376 . S
C128 C127 1.392 . S
C128 H140 0.929 . S
C129 C125 1.531 . S
C129 H141 0.960 . S
C129 H142 0.962 . S
C129 H143 0.960 . S
C130 C127 1.511 . S
C130 H144 0.961 . S
C130 H145 0.961 . S
C130 H146 0.961 . S
C131 C132 1.370 1_655 S
C131 C133 1.363 . S
C131 H147 0.931 . S
C132 C131 1.370 1_455 S
C132 C136 1.408 . S
C133 C131 1.363 . S
C133 C134 1.370 1_655 S
C133 C137 1.524 . S
C134 C126 1.503 . S
C134 C133 1.370 1_455 S
C134 C135 1.403 . S
C135 C134 1.403 . S
C135 C136 1.404 . S
C135 C138 1.539 . S
C136 C132 1.408 . S
C136 C135 1.404 . S
C136 H148 0.930 . S
C137 C133 1.524 . S
C137 H149 0.956 . S
C137 H150 0.961 . S
C137 H151 0.961 . S
C138 C135 1.539 . S
C138 H152 0.958 . S
C138 H153 0.961 . S
C138 H154 0.960 . S
H139 C123 0.931 . S
H140 C128 0.929 . S
H141 C129 0.960 . S
H142 C129 0.962 . S
H143 C129 0.960 . S
H144 C130 0.961 . S
H145 C130 0.961 . S
H146 C130 0.961 . S
H147 C131 0.931 . S
H148 C136 0.930 . S
H149 C137 0.956 . S
H150 C137 0.961 . S
H151 C137 0.961 . S
H152 C138 0.958 . S
H153 C138 0.961 . S
H154 C138 0.960 . S
C155 C156 1.391 1_565 S
C155 C157 1.394 . S
C155 H171 0.931 . S
C156 C155 1.391 1_545 S
C156 C160 1.376 . S
C157 C155 1.394 . S
C157 C158 1.369 1_565 S
C157 C161 1.531 . S
C158 C157 1.369 1_545 S
C158 C159 1.410 . S
C158 C166 1.503 . S
C159 C158 1.410 . S
C159 C160 1.392 . S
C159 C162 1.511 . S
C160 C156 1.376 . S
C160 C159 1.392 . S
C160 H172 0.929 . S
C161 C157 1.531 . S
C161 H173 0.960 . S
C161 H174 0.962 . S
C161 H175 0.960 . S
C162 C159 1.511 . S
C162 H176 0.961 . S
C162 H177 0.961 . S
C162 H178 0.961 . S
C163 C164 1.370 1_565 S
C163 C165 1.363 . S
C163 H179 0.931 . S
C164 C163 1.370 1_545 S
C164 C168 1.408 . S
C165 C163 1.363 . S
C165 C166 1.370 1_565 S
C165 C169 1.524 . S
C166 C158 1.503 . S
C166 C165 1.370 1_545 S
C166 C167 1.403 . S
C167 C166 1.403 . S
C167 C168 1.404 . S
C167 C170 1.539 . S
C168 C164 1.408 . S
C168 C167 1.404 . S
C168 H180 0.930 . S
C169 C165 1.524 . S
C169 H181 0.956 . S
C169 H182 0.961 . S
C169 H183 0.961 . S
C170 C167 1.539 . S
C170 H184 0.958 . S
C170 H185 0.961 . S
C170 H186 0.960 . S
H171 C155 0.931 . S
H172 C160 0.929 . S
H173 C161 0.960 . S
H174 C161 0.962 . S
H175 C161 0.960 . S
H176 C162 0.961 . S
H177 C162 0.961 . S
H178 C162 0.961 . S
H179 C163 0.931 . S
H180 C168 0.930 . S
H181 C169 0.956 . S
H182 C169 0.961 . S
H183 C169 0.961 . S
H184 C170 0.958 . S
H185 C170 0.961 . S
H186 C170 0.960 . S
C187 C188 1.405 . S
C187 C189 1.394 . S
C187 H203 0.931 . S
C188 C187 1.405 . S
C188 C192 1.361 1_655 S
C189 C187 1.394 . S
C189 C190 1.369 1_655 S
C189 C193 1.531 . S
C190 C189 1.369 1_455 S
C190 C191 1.410 . S
C190 C198 1.503 . S
C191 C190 1.410 . S
C191 C192 1.392 . S
C191 C194 1.511 . S
C192 C188 1.361 1_455 S
C192 C191 1.392 . S
C192 H204 0.929 . S
C193 C189 1.531 . S
C193 H205 0.960 . S
C193 H206 0.962 . S
C193 H207 0.960 . S
C194 C191 1.511 . S
C194 H208 0.961 . S
C194 H209 0.961 . S
C194 H210 0.961 . S
C195 C196 1.370 1_655 S
C195 C197 1.363 . S
C195 H211 0.931 . S
C196 C195 1.370 1_455 S
C196 C200 1.408 . S
C197 C195 1.363 . S
C197 C198 1.370 1_655 S
C197 C201 1.524 . S
C198 C190 1.503 . S
C198 C197 1.370 1_455 S
C198 C199 1.403 . S
C199 C198 1.403 . S
C199 C200 1.404 . S
C199 C202 1.539 . S
C200 C196 1.408 . S
C200 C199 1.404 . S
C200 H212 0.930 . S
C201 C197 1.524 . S
C201 H213 0.956 . S
C201 H214 0.961 . S
C201 H215 0.961 . S
C202 C199 1.539 . S
C202 H216 0.958 . S
C202 H217 0.961 . S
C202 H218 0.960 . S
H203 C187 0.931 . S
H204 C192 0.929 . S
H205 C193 0.960 . S
H206 C193 0.962 . S
H207 C193 0.960 . S
H208 C194 0.961 . S
H209 C194 0.961 . S
H210 C194 0.961 . S
H211 C195 0.931 . S
H212 C200 0.930 . S
H213 C201 0.956 . S
H214 C201 0.961 . S
H215 C201 0.961 . S
H216 C202 0.958 . S
H217 C202 0.961 . S
H218 C202 0.960 . S
C219 C220 1.391 1_545 S
C219 C221 1.394 . S
C219 H235 0.931 . S
C220 C219 1.391 1_565 S
C220 C224 1.376 . S
C221 C219 1.394 . S
C221 C222 1.369 . S
C221 C225 1.531 . S
C222 C221 1.369 . S
C222 C223 1.410 1_545 S
C222 C230 1.503 . S
C223 C222 1.410 1_565 S
C223 C224 1.392 . S
C223 C226 1.511 . S
C224 C220 1.376 . S
C224 C223 1.392 . S
C224 H236 0.929 . S
C225 C221 1.531 . S
C225 H237 0.960 . S
C225 H238 0.962 . S
C225 H239 0.960 . S
C226 C223 1.511 . S
C226 H240 0.961 . S
C226 H241 0.961 . S
C226 H242 0.961 . S
C227 C228 1.370 1_565 S
C227 C229 1.363 . S
C227 H243 0.931 . S
C228 C227 1.370 1_545 S
C228 C232 1.408 . S
C229 C227 1.363 . S
C229 C230 1.370 1_565 S
C229 C233 1.524 . S
C230 C222 1.503 . S
C230 C229 1.370 1_545 S
C230 C231 1.403 . S
C231 C230 1.403 . S
C231 C232 1.404 . S
C231 C234 1.539 . S
C232 C228 1.408 . S
C232 C231 1.404 . S
C232 H244 0.930 . S
C233 C229 1.524 . S
C233 H245 0.956 . S
C233 H246 0.961 . S
C233 H247 0.961 . S
C234 C231 1.539 . S
C234 H248 0.958 . S
C234 H249 0.961 . S
C234 H250 0.960 . S
H235 C219 0.931 . S
H236 C224 0.929 . S
H237 C225 0.960 . S
H238 C225 0.962 . S
H239 C225 0.960 . S
H240 C226 0.961 . S
H241 C226 0.961 . S
H242 C226 0.961 . S
H243 C227 0.931 . S
H244 C232 0.930 . S
H245 C233 0.956 . S
H246 C233 0.961 . S
H247 C233 0.961 . S
H248 C234 0.958 . S
H249 C234 0.961 . S
H250 C234 0.960 . S
C251 C252 1.391 . S
C251 C253 1.394 . S
C251 H267 0.931 . S
C252 C251 1.391 . S
C252 C256 1.376 1_655 S
C253 C251 1.394 . S
C253 C254 1.369 . S
C253 C257 1.531 . S
C254 C253 1.369 . S
C254 C255 1.410 1_655 S
C254 C262 1.503 . S
C255 C254 1.410 1_455 S
C255 C256 1.392 . S
C255 C258 1.511 . S
C256 C252 1.376 1_455 S
C256 C255 1.392 . S
C256 H268 0.929 . S
C257 C253 1.531 . S
C257 H269 0.960 . S
C257 H270 0.962 . S
C257 H271 0.960 . S
C258 C255 1.511 . S
C258 H272 0.961 . S
C258 H273 0.961 . S
C258 H274 0.961 . S
C259 C260 1.355 1_455 S
C259 C261 1.363 . S
C259 H275 0.931 . S
C260 C259 1.355 1_655 S
C260 C264 1.426 . S
C261 C259 1.363 . S
C261 C262 1.370 1_455 S
C261 C265 1.524 . S
C262 C254 1.503 . S
C262 C261 1.370 1_655 S
C262 C263 1.403 . S
C263 C262 1.403 . S
C263 C264 1.404 . S
C263 C266 1.539 . S
C264 C260 1.426 . S
C264 C263 1.404 . S
C264 H276 0.930 . S
C265 C261 1.524 . S
C265 H277 0.956 . S
C265 H278 0.961 . S
C265 H279 0.961 . S
C266 C263 1.539 . S
C266 H280 0.958 . S
C266 H281 0.961 . S
C266 H282 0.960 . S
H267 C251 0.931 . S
H268 C256 0.929 . S
H269 C257 0.960 . S
H270 C257 0.962 . S
H271 C257 0.960 . S
H272 C258 0.961 . S
H273 C258 0.961 . S
H274 C258 0.961 . S
H275 C259 0.931 . S
H276 C264 0.930 . S
H277 C265 0.956 . S
H278 C265 0.961 . S
H279 C265 0.961 . S
H280 C266 0.958 . S
H281 C266 0.961 . S
H282 C266 0.960 . S
C283 C284 1.391 . S
C283 C285 1.394 . S
C283 H299 0.931 . S
C284 C283 1.391 . S
C284 C288 1.376 1_545 S
C285 C283 1.394 . S
C285 C286 1.373 . S
C285 C289 1.531 . S
C286 C285 1.373 . S
C286 C287 1.407 1_545 S
C286 C294 1.503 . S
C287 C286 1.407 1_565 S
C287 C288 1.392 . S
C287 C290 1.511 . S
C288 C284 1.376 1_565 S
C288 C287 1.392 . S
C288 H300 0.929 . S
C289 C285 1.531 . S
C289 H301 0.960 . S
C289 H302 0.962 . S
C289 H303 0.960 . S
C290 C287 1.511 . S
C290 H304 0.961 . S
C290 H305 0.961 . S
C290 H306 0.961 . S
C291 C292 1.370 . S
C291 C293 1.363 . S
C291 H307 0.931 . S
C292 C291 1.370 . S
C292 C296 1.408 1_545 S
C293 C291 1.363 . S
C293 C294 1.370 . S
C293 C297 1.524 . S
C294 C286 1.503 . S
C294 C293 1.370 . S
C294 C295 1.403 1_545 S
C295 C294 1.403 1_565 S
C295 C296 1.404 . S
C295 C298 1.539 . S
C296 C292 1.408 1_565 S
C296 C295 1.404 . S
C296 H308 0.930 . S
C297 C293 1.524 . S
C297 H309 0.956 . S
C297 H310 0.961 . S
C297 H311 0.961 . S
C298 C295 1.539 . S
C298 H312 0.958 . S
C298 H313 0.961 . S
C298 H314 0.960 . S
H299 C283 0.931 . S
H300 C288 0.929 . S
H301 C289 0.960 . S
H302 C289 0.962 . S
H303 C289 0.960 . S
H304 C290 0.961 . S
H305 C290 0.961 . S
H306 C290 0.961 . S
H307 C291 0.931 . S
H308 C296 0.930 . S
H309 C297 0.956 . S
H310 C297 0.961 . S
H311 C297 0.961 . S
H312 C298 0.958 . S
H313 C298 0.961 . S
H314 C298 0.960 . S
C60 C30 1.359 . S
C68 C32 1.373 1_455 S
C92 C1 1.494 . S
C100 C58 1.529 . S
C124 C0 1.319 1_455 S
C132 C44 1.384 . S
C156 C29 1.529 . S
C164 C46 1.568 . S
C188 C19 1.339 1_655 S
C196 C31 1.390 . S
C220 C20 1.476 . S
C228 C57 1.530 . S
C260 C43 1.370 . S
C252 C10 1.342 1_655 S
C284 C2 1.538 . S
C292 C45 1.572 . S
