# Generated by pormake.
# Topology anh, (6,3)-cn, num edge types: 1
# Building blocks:
#     Node 0, Type 0, BuildingBlock: CUWYAW_clean_sbu_0, # of connection points: 6
#     Node 1, Type 0, BuildingBlock: CUWYAW_clean_sbu_0, # of connection points: 6
#     Node 2, Type 0, BuildingBlock: CUWYAW_clean_sbu_0, # of connection points: 6
#     Node 3, Type 1, BuildingBlock: OLANEW_clean_sbu_2, # of connection points: 3
#     Node 4, Type 1, BuildingBlock: OLANEW_clean_sbu_2, # of connection points: 3
#     Node 5, Type 1, BuildingBlock: OLANEW_clean_sbu_2, # of connection points: 3
#     Node 6, Type 1, BuildingBlock: OLANEW_clean_sbu_2, # of connection points: 3
#     Node 7, Type 1, BuildingBlock: OLANEW_clean_sbu_2, # of connection points: 3
#     Node 8, Type 1, BuildingBlock: OLANEW_clean_sbu_2, # of connection points: 3
#     Edge 9, Type (0, 1), BuildingBlock: OJICUG_clean_linker_0, # of connection points: 2
#     Edge 10, Type (0, 1), BuildingBlock: OJICUG_clean_linker_0, # of connection points: 2
#     Edge 11, Type (0, 1), BuildingBlock: OJICUG_clean_linker_0, # of connection points: 2
#     Edge 12, Type (0, 1), BuildingBlock: OJICUG_clean_linker_0, # of connection points: 2
#     Edge 13, Type (0, 1), BuildingBlock: OJICUG_clean_linker_0, # of connection points: 2
#     Edge 14, Type (0, 1), BuildingBlock: OJICUG_clean_linker_0, # of connection points: 2
#     Edge 15, Type (0, 1), BuildingBlock: OJICUG_clean_linker_0, # of connection points: 2
#     Edge 16, Type (0, 1), BuildingBlock: OJICUG_clean_linker_0, # of connection points: 2
#     Edge 17, Type (0, 1), BuildingBlock: OJICUG_clean_linker_0, # of connection points: 2
#     Edge 18, Type (0, 1), BuildingBlock: OJICUG_clean_linker_0, # of connection points: 2
#     Edge 19, Type (0, 1), BuildingBlock: OJICUG_clean_linker_0, # of connection points: 2
#     Edge 20, Type (0, 1), BuildingBlock: OJICUG_clean_linker_0, # of connection points: 2
#     Edge 21, Type (0, 1), BuildingBlock: OJICUG_clean_linker_0, # of connection points: 2
#     Edge 22, Type (0, 1), BuildingBlock: OJICUG_clean_linker_0, # of connection points: 2
#     Edge 23, Type (0, 1), BuildingBlock: OJICUG_clean_linker_0, # of connection points: 2
#     Edge 24, Type (0, 1), BuildingBlock: OJICUG_clean_linker_0, # of connection points: 2
#     Edge 25, Type (0, 1), BuildingBlock: OJICUG_clean_linker_0, # of connection points: 2
#     Edge 26, Type (0, 1), BuildingBlock: OJICUG_clean_linker_0, # of connection points: 2
# Relax obj value: 0.342
# Max RMSD: 0.141
# Mean RMSD: 0.121
data_MOF--net-anh--node1-CUWYAW_clean_sbu_0--node2-OLANEW_clean_sbu_2--edge1-OJICUG_clean_linker_0
_symmetry_space_group_name_H-M    P1
_symmetry_Int_Tables_number       1
_symmetry_cell_setting            triclinic
loop_
_symmetry_equiv_pos_as_xyz
'x, y, z'
_cell_length_a     28.410194
_cell_length_b     28.282295
_cell_length_c     35.898401
_cell_angle_alpha  90.842205
_cell_angle_beta   88.5548
_cell_angle_gamma 120.28315
loop_
_atom_site_label
_atom_site_type_symbol
_atom_site_fract_x
_atom_site_fract_y
_atom_site_fract_z
_atom_type_partial_charge
C0 C 0.97195 0.38587 0.13153 0.0
Eu1 Eu 1.03543 0.48021 0.16253 0.0
C2 C 0.9119 0.3532 0.12934 0.0
C3 C 0.8829 0.30458 0.14996 0.0
C4 C 0.8264 0.27982 0.15496 0.0
C5 C 0.79813 0.30335 0.13938 0.0
C6 C 0.82643 0.34903 0.11601 0.0
C7 C 0.88279 0.37372 0.11096 0.0
C8 C 0.04354 0.49568 0.23787 0.0
C9 C 0.96276 0.54096 0.17181 0.0
C10 C 0.14978 0.68604 0.22462 0.0
Eu11 Eu 0.08975 0.59676 0.18721 0.0
C12 C 0.20855 0.72476 0.22592 0.0
C13 C 0.24366 0.72497 0.19762 0.0
C14 C 0.29946 0.76286 0.19852 0.0
C15 C 0.321 0.80095 0.22783 0.0
C16 C 0.28572 0.79951 0.25662 0.0
C17 C 0.2299 0.76168 0.25563 0.0
C18 C 0.0767 0.58556 0.11328 0.0
C19 C 0.16488 0.54028 0.16365 0.0
O20 O 0.99623 0.43203 0.11309 0.0
O21 O 0.99165 0.39096 0.16482 0.0
O22 O 0.05152 0.4597 0.2205 0.0
O23 O 1.03085 0.52052 0.21508 0.0
O24 O 0.9681 0.50094 0.15664 0.0
O25 O 1.00306 0.58093 0.19059 0.0
O26 O 0.13382 0.6371 0.23753 0.0
O27 O 0.12637 0.68493 0.19343 0.0
O28 O 0.07434 0.62341 0.1327 0.0
O29 O 0.09063 0.5582 0.13313 0.0
O30 O 0.16171 0.58076 0.18059 0.0
O31 O 0.12075 0.49712 0.15092 0.0
H32 H 0.90432 0.28771 0.16417 0.0
H33 H 0.80553 0.24462 0.17315 0.0
H34 H 0.80537 0.36748 0.10329 0.0
H35 H 0.90372 0.4108 0.09452 0.0
H36 H 0.22779 0.69628 0.17461 0.0
H37 H 0.32568 0.76267 0.17615 0.0
H38 H 0.30096 0.82881 0.2793 0.0
H39 H 0.20331 0.76179 0.27776 0.0
C40 C 0.47729 0.14154 0.47422 0.0
Eu41 Eu 0.51231 0.0793 0.49876 0.0
C42 C 0.5036 0.20201 0.47565 0.0
C43 C 0.49555 0.22836 0.50663 0.0
C44 C 0.53029 0.28456 0.51221 0.0
C45 C 0.57366 0.31495 0.48705 0.0
C46 C 0.57878 0.28974 0.45456 0.0
C47 C 0.54365 0.23398 0.44863 0.0
C48 C 0.537 0.07003 0.57091 0.0
C49 C 0.64764 0.1469 0.49236 0.0
C50 C 0.61949 0.95563 0.52234 0.0
Eu51 Eu 0.57938 1.01562 0.50219 0.0
C52 C 0.6013 0.90393 0.54214 0.0
C53 C 0.63687 0.90028 0.56666 0.0
C54 C 0.62226 0.85059 0.58375 0.0
C55 C 0.57176 0.80356 0.57651 0.0
C56 C 0.53529 0.80786 0.55296 0.0
C57 C 0.54988 0.85773 0.536 0.0
C58 C 0.56461 0.04471 0.43425 0.0
C59 C 0.44388 0.94631 0.49942 0.0
O60 O 0.50298 0.12313 0.45332 0.0
O61 O 0.45989 0.11504 0.50595 0.0
O62 O 0.50981 0.09357 0.56186 0.0
O63 O 0.54936 0.05435 0.54124 0.0
O64 O 0.60074 0.14565 0.48802 0.0
O65 O 0.64997 0.10309 0.50216 0.0
O66 O 0.62353 0.99654 0.54245 0.0
O67 O 0.59891 0.95214 0.48942 0.0
O68 O 0.60793 0.04268 0.4425 0.0
O69 O 0.531 1.02825 0.46122 0.0
O70 O 0.48996 0.94664 0.50646 0.0
O71 O 0.44248 0.99197 0.49376 0.0
H72 H 0.46476 0.20506 0.52773 0.0
H73 H 0.52575 0.30335 0.53752 0.0
H74 H 0.6118 0.31263 0.4347 0.0
H75 H 0.55049 0.21531 0.42409 0.0
H76 H 0.67664 0.93555 0.57181 0.0
H77 H 0.65159 0.8485 0.60132 0.0
H78 H 0.49594 0.77244 0.54712 0.0
H79 H 0.52155 0.85981 0.51743 0.0
C80 C 0.72683 0.60716 0.85222 0.0
Eu81 Eu 0.62267 0.56741 0.84655 0.0
C82 C 0.75594 0.5851 0.87229 0.0
C83 C 0.73432 0.55658 0.90594 0.0
C84 C 0.75905 0.53098 0.92317 0.0
C85 C 0.80516 0.53264 0.90668 0.0
C86 C 0.82681 0.56138 0.87309 0.0
C87 C 0.8024 0.58748 0.85607 0.0
C88 C 0.56128 0.54355 0.91064 0.0
C89 C 0.56836 0.43376 0.83581 0.0
C90 C 0.40163 0.4561 0.83689 0.0
Eu91 Eu 0.50719 0.50056 0.83392 0.0
C92 C 0.3636 0.47659 0.83465 0.0
C93 C 0.31418 0.44545 0.81633 0.0
C94 C 0.27846 0.46542 0.81283 0.0
C95 C 0.29178 0.51692 0.82762 0.0
C96 C 0.34158 0.54802 0.84587 0.0
C97 C 0.37722 0.52811 0.84925 0.0
C98 C 0.56887 0.52244 0.77097 0.0
C99 C 0.56492 0.63459 0.82828 0.0
O100 O 0.69923 0.57787 0.82376 0.0
O101 O 0.69945 0.62387 0.87281 0.0
O102 O 0.60048 0.5916 0.90138 0.0
O103 O 0.5548 0.50984 0.88489 0.0
O104 O 0.6128 0.4828 0.83566 0.0
O105 O 0.51987 0.42872 0.84 0.0
O106 O 0.43187 0.4702 0.8665 0.0
O107 O 0.42901 0.45998 0.80623 0.0
O108 O 0.52543 0.47556 0.77753 0.0
O109 O 0.57593 0.55613 0.79648 0.0
O110 O 0.51973 0.58783 0.83645 0.0
O111 O 0.61183 0.63568 0.82487 0.0
H112 H 0.69765 0.55312 0.91856 0.0
H113 H 0.74142 0.50884 0.9489 0.0
H114 H 0.86278 0.56382 0.86006 0.0
H115 H 0.81915 0.60862 0.82989 0.0
H116 H 0.30338 0.40582 0.80456 0.0
H117 H 0.24065 0.44074 0.79835 0.0
H118 H 0.35265 0.58739 0.85817 0.0
H119 H 0.41533 0.55295 0.86337 0.0
O120 O 0.50721 0.16499 0.30602 0.0
Cd121 Cd 0.4932 0.20073 0.24848 0.0
O122 O 0.56479 0.14947 0.27385 0.0
Cd123 Cd 0.60427 0.10077 0.2665 0.0
O124 O 0.55641 1.0123 0.26104 0.0
C125 C 0.53257 0.99439 0.23024 0.0
O126 O 0.5447 1.02914 0.20277 0.0
C127 C 0.53983 0.14659 0.30438 0.0
C128 C 0.58583 0.23486 0.20378 0.0
O129 O 0.58057 0.26839 0.22547 0.0
O130 O 0.54622 0.18535 0.20216 0.0
O131 O 0.764 0.59238 0.64682 0.0
Cd132 Cd 0.81282 0.60857 0.58697 0.0
O133 O 0.69229 0.55573 0.6115 0.0
Cd134 Cd 0.60705 0.53044 0.6028 0.0
O135 O 0.56357 0.57432 0.59488 0.0
C136 C 0.56828 0.60799 0.62038 0.0
O137 O 0.59281 0.60903 0.6512 0.0
C138 C 0.71253 0.56826 0.64373 0.0
C139 C 0.74393 0.52106 0.54206 0.0
O140 O 0.74136 0.565 0.54268 0.0
O141 O 0.78119 0.51994 0.56078 0.0
O142 O 0.08772 0.63793 0.9381 0.0
Cd143 Cd 0.08408 0.64372 0.87065 0.0
O144 O 0.07852 0.55631 0.9323 0.0
Cd145 Cd 0.0494 0.4735 0.95331 0.0
O146 O 0.96309 0.44178 0.9461 0.0
C147 C 0.93931 0.45783 0.96908 0.0
O148 O 0.96375 0.48122 1.00026 0.0
C149 C 0.0832 0.59526 0.95304 0.0
C150 C 0.14659 0.60207 0.8414 0.0
O151 O 0.16733 0.65362 0.84694 0.0
O152 O 0.09545 0.57061 0.84792 0.0
O153 O 0.11171 0.59094 0.4028 0.0
Cd154 Cd 0.14778 0.63394 0.46501 0.0
O155 O 0.04234 0.51222 0.42266 0.0
Cd156 Cd 0.96584 0.42988 0.42371 0.0
O157 O 0.89073 0.35125 0.44084 0.0
C158 C 0.84536 0.34905 0.44781 0.0
O159 O 0.8429 0.39389 0.44406 0.0
C160 C 0.07071 0.54371 0.39577 0.0
C161 C 0.24593 0.73678 0.47218 0.0
O162 O 0.24633 0.69163 0.47164 0.0
O163 O 0.1999 0.73386 0.46766 0.0
O164 O 0.55743 0.97594 0.73058 0.0
Cd165 Cd 0.55879 0.93447 0.79169 0.0
O166 O 0.55794 0.04968 0.75233 0.0
Cd167 Cd 0.55798 0.12916 0.76009 0.0
O168 O 0.55072 0.20175 0.77902 0.0
C169 C 0.59079 0.24615 0.79128 0.0
O170 O 0.6389 0.25025 0.79241 0.0
C171 C 0.55712 1.02034 0.72447 0.0
C172 C 0.55892 0.83386 0.79709 0.0
O173 O 0.51416 0.83463 0.79716 0.0
O174 O 0.60325 0.87982 0.79268 0.0
O175 O 0.61313 0.52486 0.077 0.0
Cd176 Cd 0.65624 0.53236 0.13879 0.0
O177 O 0.54225 0.53306 0.0946 0.0
Cd178 Cd 0.46429 0.53574 0.09431 0.0
O179 O 0.38345 0.52994 0.10775 0.0
C180 C 0.37827 0.56417 0.12859 0.0
O181 O 0.42233 0.60574 0.14243 0.0
C182 C 0.57027 0.52638 0.06873 0.0
C183 C 0.75889 0.53757 0.14501 0.0
O184 O 0.71435 0.49188 0.14108 0.0
O185 O 0.75584 0.58128 0.14436 0.0
C186 C 0.22388 0.50537 0.13478 0.0
C187 C 0.21942 0.54555 0.15579 0.0
H188 H 0.27668 0.47956 0.10959 0.0
C189 C 0.26778 0.59162 0.16783 0.0
H190 H 0.18773 0.46935 0.12483 0.0
C191 C 0.31893 0.59741 0.15904 0.0
C192 C 0.32343 0.55746 0.13779 0.0
H193 H 0.26628 0.62355 0.18392 0.0
H194 H 0.35509 0.6336 0.1688 0.0
C195 C 0.27507 0.51128 0.12587 0.0
C196 C 0.69758 0.24654 0.47419 0.0
C197 C 0.69928 0.1991 0.4831 0.0
H198 H 0.74145 0.32991 0.45595 0.0
C199 C 0.75011 0.2016 0.48066 0.0
H200 H 0.65944 0.24653 0.47546 0.0
C201 C 0.79759 0.24994 0.46922 0.0
C202 C 0.79556 0.29714 0.46008 0.0
H203 H 0.75315 0.16593 0.48699 0.0
H204 H 0.83586 0.25025 0.46746 0.0
C205 C 0.74486 0.29466 0.46293 0.0
C206 C 0.61082 0.73464 0.81144 0.0
C207 C 0.56271 0.68522 0.82016 0.0
H208 H 0.64741 0.81951 0.79719 0.0
C209 C 0.51292 0.68482 0.82023 0.0
H210 H 0.64996 0.73674 0.81091 0.0
C211 C 0.51146 0.73259 0.81209 0.0
C212 C 0.55974 0.78212 0.80373 0.0
H213 H 0.47497 0.6476 0.82657 0.0
H214 H 0.47245 0.73079 0.81274 0.0
C215 C 0.60937 0.7823 0.80341 0.0
C216 C 0.90679 0.58811 0.17122 0.0
C217 C 0.91053 0.54063 0.16625 0.0
H218 H 0.85663 0.62482 0.1679 0.0
C219 C 0.86409 0.49266 0.15391 0.0
H220 H 0.94174 0.62593 0.18035 0.0
C221 C 0.81547 0.492 0.14672 0.0
C222 C 0.81164 0.53937 0.15148 0.0
H223 H 0.86517 0.45526 0.14991 0.0
H224 H 0.78081 0.45425 0.13722 0.0
C225 C 0.85805 0.58756 0.16375 0.0
C226 C 0.34313 0.88998 0.48637 0.0
C227 C 0.39265 0.89239 0.49422 0.0
H228 H 0.25863 0.83972 0.47315 0.0
C229 C 0.39324 0.84288 0.49469 0.0
H230 H 0.34083 0.92702 0.48554 0.0
C231 C 0.34598 0.79268 0.48723 0.0
C232 C 0.29661 0.79038 0.47919 0.0
H233 H 0.43043 0.84281 0.50033 0.0
H234 H 0.34822 0.75558 0.48781 0.0
C235 C 0.29584 0.83975 0.47905 0.0
C236 C 0.62463 0.38836 0.82526 0.0
C237 C 0.5732 0.38435 0.82723 0.0
H238 H 0.6704 0.34862 0.81266 0.0
C239 C 0.52713 0.33373 0.81807 0.0
H240 H 0.66112 0.42653 0.83195 0.0
C241 C 0.53253 0.28886 0.80654 0.0
C242 C 0.58411 0.29319 0.8041 0.0
H243 H 0.48687 0.32905 0.81893 0.0
H244 H 0.49625 0.25088 0.79928 0.0
C245 C 0.62996 0.34349 0.81404 0.0
C246 C 0.57467 0.74441 0.62677 0.0
C247 C 0.56006 0.74956 0.59059 0.0
H248 H 0.5876 0.69493 0.66495 0.0
C249 C 0.54005 0.70427 0.5664 0.0
H250 H 0.5893 0.77831 0.64624 0.0
C251 C 0.53892 0.65642 0.5771 0.0
C252 C 0.55779 0.65294 0.6122 0.0
H253 H 0.52867 0.707 0.53828 0.0
H254 H 0.52626 0.62346 0.55702 0.0
C255 C 0.57341 0.6965 0.63752 0.0
C256 C 0.84715 0.47346 0.90309 0.0
C257 C 0.83138 0.50523 0.92454 0.0
H258 H 0.89217 0.43166 0.90077 0.0
C259 C 0.84395 0.5135 0.96252 0.0
H260 H 0.8369 0.46551 0.87393 0.0
C261 C 0.87562 0.49408 0.97803 0.0
C262 C 0.895 0.46588 0.9558 0.0
H263 H 0.83204 0.53769 0.9797 0.0
H264 H 0.88752 0.504 1.0068 0.0
C265 C 0.87837 0.45367 0.91862 0.0
C266 C 0.40342 0.87408 0.19419 0.0
C267 C 0.37915 0.84477 0.22716 0.0
H268 H 0.47151 0.94414 0.16921 0.0
C269 C 0.40927 0.86088 0.26004 0.0
H270 H 0.38119 0.86283 0.16844 0.0
C271 C 0.46115 0.90752 0.2605 0.0
C272 C 0.48371 0.93917 0.22812 0.0
H273 H 0.39193 0.83848 0.28573 0.0
H274 H 0.4822 0.92033 0.2867 0.0
C275 C 0.45516 0.92084 0.19468 0.0
C276 C 0.60736 0.41235 0.50605 0.0
C277 C 0.61791 0.37005 0.49728 0.0
H278 H 0.63996 0.4945 0.52626 0.0
C279 C 0.67092 0.37911 0.50077 0.0
H280 H 0.56661 0.40597 0.50373 0.0
C281 C 0.71252 0.42907 0.514 0.0
C282 C 0.70199 0.4712 0.52347 0.0
H283 H 0.67956 0.3466 0.4948 0.0
H284 H 0.7526 0.43424 0.51766 0.0
C285 C 0.64933 0.46289 0.51865 0.0
C286 C 0.19715 0.50208 0.83245 0.0
C287 C 0.25316 0.53746 0.82565 0.0
H288 H 0.11924 0.49479 0.84231 0.0
C289 C 0.27248 0.59335 0.81961 0.0
H290 H 0.18103 0.45888 0.83748 0.0
C291 C 0.23716 0.61402 0.82274 0.0
C292 C 0.18176 0.57912 0.83167 0.0
H293 H 0.31524 0.62143 0.81348 0.0
H294 H 0.25367 0.65763 0.81945 0.0
C295 C 0.16174 0.5227 0.83531 0.0
C296 C 0.72838 0.32425 0.16499 0.0
C297 C 0.74145 0.28526 0.15164 0.0
H298 H 0.6689 0.33893 0.19176 0.0
C299 C 0.70163 0.22948 0.15328 0.0
H300 H 0.75872 0.36739 0.16487 0.0
C301 C 0.64994 0.21303 0.16873 0.0
C302 C 0.63764 0.2521 0.18328 0.0
H303 H 0.71083 0.19866 0.14326 0.0
H304 H 0.62041 0.16968 0.17056 0.0
C305 C 0.67709 0.30788 0.18071 0.0
C306 C 0.0947 0.55512 0.05131 0.0
C307 C 0.0755 0.58437 0.07233 0.0
H308 H 0.11416 0.53725 0.99679 0.0
C309 C 0.05723 0.61541 0.05392 0.0
H310 H 0.1094 0.53124 0.06493 0.0
C311 C 0.05918 0.61822 1.01516 0.0
C312 C 0.07927 0.5899 0.99398 0.0
H313 H 1.04195 0.63814 0.06951 0.0
H314 H 0.04506 0.64276 1.00177 0.0
C315 C 0.09697 0.55821 1.01236 0.0
C316 C 0.60297 0.10073 0.37655 0.0
C317 C 0.55783 0.06802 0.39977 0.0
H318 H 0.6326 0.15197 0.32817 0.0
C319 C 0.50634 0.05943 0.39056 0.0
H320 H 0.64311 0.10796 0.38307 0.0
C321 C 0.50049 0.08528 0.35963 0.0
C322 C 0.54577 0.11873 0.33674 0.0
H323 H 0.47074 0.03364 0.40777 0.0
H324 H 0.46054 0.07886 0.35347 0.0
C325 C 0.59696 0.12583 0.34521 0.0
C326 C 0.6561 0.58362 0.73667 0.0
C327 C 0.60562 0.53459 0.73842 0.0
H328 H 0.73031 0.6324 0.7053 0.0
C329 C 0.59104 0.49665 0.70919 0.0
H330 H 0.66831 0.61346 0.75899 0.0
C331 C 0.6261 0.50779 0.67847 0.0
C332 C 0.67651 0.55677 0.67664 0.0
H333 H 0.55252 0.45842 0.71 0.0
H334 H 0.61407 0.47771 0.65632 0.0
C335 C 0.6916 0.59437 0.70616 0.0
C336 C 0.53724 0.08764 0.63947 0.0
C337 C 0.5458 0.05953 0.60984 0.0
H338 H 0.53357 0.09753 0.69847 0.0
C339 C 0.55942 1.01968 0.61816 0.0
H340 H 0.52618 0.11831 0.63397 0.0
C341 C 0.56403 1.00794 0.65529 0.0
C342 C 0.55504 0.03572 0.68512 0.0
H343 H 0.56472 0.99627 0.59613 0.0
H344 H 0.57395 0.97638 0.66057 0.0
C345 C 0.54187 0.07598 0.67661 0.0
C346 C 0.56118 0.49086 0.96596 0.0
C347 C 0.54989 0.52936 0.95066 0.0
H348 H 0.57704 0.46029 1.01559 0.0
C349 C 0.53825 0.56189 0.97486 0.0
H350 H 0.57135 0.46605 0.94798 0.0
C351 C 0.54019 0.55771 1.01367 0.0
C352 C 0.55575 0.52227 0.02887 0.0
H353 H 0.53024 0.59246 0.96368 0.0
H354 H 0.53354 0.58505 0.03157 0.0
C355 C 0.56483 0.4879 1.00465 0.0
C356 C 0.04541 0.55092 0.29362 0.0
C357 C 0.04622 0.50502 0.27883 0.0
H358 H 0.05359 0.5995 0.34217 0.0
C359 C 0.05034 0.4691 0.30349 0.0
H360 H 1.04117 0.5788 0.27554 0.0
C361 C 0.05497 0.47975 0.34202 0.0
C362 C 0.05707 0.52727 0.35636 0.0
H363 H 0.05054 0.43312 0.29297 0.0
H364 H 0.05935 0.45221 0.36037 0.0
C365 C 0.05198 0.56254 0.33181 0.0
loop_
_geom_bond_atom_site_label_1
_geom_bond_atom_site_label_2
_geom_bond_distance
_geom_bond_site_symmetry_2
_ccdc_geom_bond_type
C0 Eu1 2.835 . S
C0 C2 1.500 . S
C0 O20 1.257 . S
C0 O21 1.260 . S
Eu1 C0 2.835 . S
Eu1 O20 2.473 . S
Eu1 O21 2.480 . S
Eu1 O22 2.430 . S
Eu1 O23 2.670 1_655 S
Eu1 O24 2.394 . S
Eu1 O29 2.355 1_655 S
Eu1 O31 2.374 1_655 S
C2 C0 1.500 . S
C2 C3 1.377 . S
C2 C7 1.377 . S
C3 C2 1.377 . S
C3 C4 1.395 . S
C3 H32 0.931 . S
C4 C3 1.395 . S
C4 C5 1.383 . S
C4 H33 0.931 . S
C5 C4 1.383 . S
C5 C6 1.394 . S
C6 C5 1.394 . S
C6 C7 1.378 . S
C6 H34 0.931 . S
C7 C2 1.377 . S
C7 C6 1.378 . S
C7 H35 0.931 . S
C8 O22 1.259 1_455 S
C8 O23 1.270 . S
C9 O24 1.251 . S
C9 O25 1.251 . S
C10 Eu11 2.835 . S
C10 C12 1.500 . S
C10 O26 1.257 . S
C10 O27 1.260 . S
Eu11 C10 2.835 . S
Eu11 O23 2.355 . S
Eu11 O25 2.374 1_455 S
Eu11 O26 2.473 . S
Eu11 O27 2.480 . S
Eu11 O28 2.430 . S
Eu11 O29 2.670 . S
Eu11 O30 2.394 . S
C12 C10 1.500 . S
C12 C13 1.377 . S
C12 C17 1.377 . S
C13 C12 1.377 . S
C13 C14 1.395 . S
C13 H36 0.931 . S
C14 C13 1.395 . S
C14 C15 1.383 . S
C14 H37 0.931 . S
C15 C14 1.383 . S
C15 C16 1.394 . S
C16 C15 1.394 . S
C16 C17 1.378 . S
C16 H38 0.931 . S
C17 C12 1.377 . S
C17 C16 1.378 . S
C17 H39 0.931 . S
C18 O28 1.259 . S
C18 O29 1.270 . S
C19 O30 1.251 . S
C19 O31 1.251 . S
O20 C0 1.257 . S
O20 Eu1 2.473 . S
O21 C0 1.260 . S
O21 Eu1 2.480 . S
O22 Eu1 2.430 . S
O22 C8 1.259 1_655 S
O23 Eu1 2.670 1_455 S
O23 C8 1.270 . S
O23 Eu11 2.355 . S
O24 Eu1 2.394 . S
O24 C9 1.251 . S
O25 C9 1.251 . S
O25 Eu11 2.374 1_655 S
O26 C10 1.257 . S
O26 Eu11 2.473 . S
O27 C10 1.260 . S
O27 Eu11 2.480 . S
O28 Eu11 2.430 . S
O28 C18 1.259 . S
O29 Eu1 2.355 1_455 S
O29 Eu11 2.670 . S
O29 C18 1.270 . S
O30 Eu11 2.394 . S
O30 C19 1.251 . S
O31 Eu1 2.374 1_455 S
O31 C19 1.251 . S
H32 C3 0.931 . S
H33 C4 0.931 . S
H34 C6 0.931 . S
H35 C7 0.931 . S
H36 C13 0.931 . S
H37 C14 0.931 . S
H38 C16 0.931 . S
H39 C17 0.931 . S
C40 Eu41 2.835 . S
C40 C42 1.500 . S
C40 O60 1.257 . S
C40 O61 1.260 . S
Eu41 C40 2.835 . S
Eu41 O60 2.473 . S
Eu41 O61 2.480 . S
Eu41 O62 2.430 . S
Eu41 O63 2.670 . S
Eu41 O64 2.394 . S
Eu41 O69 2.355 . S
Eu41 O71 2.374 1_545 S
C42 C40 1.500 . S
C42 C43 1.377 . S
C42 C47 1.377 . S
C43 C42 1.377 . S
C43 C44 1.395 . S
C43 H72 0.931 . S
C44 C43 1.395 . S
C44 C45 1.383 . S
C44 H73 0.931 . S
C45 C44 1.383 . S
C45 C46 1.394 . S
C46 C45 1.394 . S
C46 C47 1.378 . S
C46 H74 0.931 . S
C47 C42 1.377 . S
C47 C46 1.378 . S
C47 H75 0.931 . S
C48 O62 1.259 . S
C48 O63 1.270 . S
C49 O64 1.251 . S
C49 O65 1.251 . S
C50 Eu51 2.835 . S
C50 C52 1.500 . S
C50 O66 1.257 . S
C50 O67 1.260 . S
Eu51 C50 2.835 . S
Eu51 O63 2.355 1_565 S
Eu51 O65 2.374 1_565 S
Eu51 O66 2.473 . S
Eu51 O67 2.480 . S
Eu51 O68 2.430 . S
Eu51 O69 2.670 1_565 S
Eu51 O70 2.394 . S
C52 C50 1.500 . S
C52 C53 1.377 . S
C52 C57 1.377 . S
C53 C52 1.377 . S
C53 C54 1.395 . S
C53 H76 0.931 . S
C54 C53 1.395 . S
C54 C55 1.383 . S
C54 H77 0.931 . S
C55 C54 1.383 . S
C55 C56 1.394 . S
C56 C55 1.394 . S
C56 C57 1.378 . S
C56 H78 0.931 . S
C57 C52 1.377 . S
C57 C56 1.378 . S
C57 H79 0.931 . S
C58 O68 1.259 1_545 S
C58 O69 1.270 . S
C59 O70 1.251 . S
C59 O71 1.251 . S
O60 C40 1.257 . S
O60 Eu41 2.473 . S
O61 C40 1.260 . S
O61 Eu41 2.480 . S
O62 Eu41 2.430 . S
O62 C48 1.259 . S
O63 Eu41 2.670 . S
O63 C48 1.270 . S
O63 Eu51 2.355 1_545 S
O64 Eu41 2.394 . S
O64 C49 1.251 . S
O65 C49 1.251 . S
O65 Eu51 2.374 1_545 S
O66 C50 1.257 . S
O66 Eu51 2.473 . S
O67 C50 1.260 . S
O67 Eu51 2.480 . S
O68 Eu51 2.430 . S
O68 C58 1.259 1_565 S
O69 Eu41 2.355 . S
O69 Eu51 2.670 1_545 S
O69 C58 1.270 . S
O70 Eu51 2.394 . S
O70 C59 1.251 . S
O71 Eu41 2.374 1_565 S
O71 C59 1.251 . S
H72 C43 0.931 . S
H73 C44 0.931 . S
H74 C46 0.931 . S
H75 C47 0.931 . S
H76 C53 0.931 . S
H77 C54 0.931 . S
H78 C56 0.931 . S
H79 C57 0.931 . S
C80 Eu81 2.835 . S
C80 C82 1.500 . S
C80 O100 1.257 . S
C80 O101 1.260 . S
Eu81 C80 2.835 . S
Eu81 O100 2.473 . S
Eu81 O101 2.480 . S
Eu81 O102 2.430 . S
Eu81 O103 2.670 . S
Eu81 O104 2.394 . S
Eu81 O109 2.355 . S
Eu81 O111 2.374 . S
C82 C80 1.500 . S
C82 C83 1.377 . S
C82 C87 1.377 . S
C83 C82 1.377 . S
C83 C84 1.395 . S
C83 H112 0.931 . S
C84 C83 1.395 . S
C84 C85 1.383 . S
C84 H113 0.931 . S
C85 C84 1.383 . S
C85 C86 1.394 . S
C86 C85 1.394 . S
C86 C87 1.378 . S
C86 H114 0.931 . S
C87 C82 1.377 . S
C87 C86 1.378 . S
C87 H115 0.931 . S
C88 O102 1.259 . S
C88 O103 1.270 . S
C89 O104 1.251 . S
C89 O105 1.251 . S
C90 Eu91 2.835 . S
C90 C92 1.500 . S
C90 O106 1.257 . S
C90 O107 1.260 . S
Eu91 C90 2.835 . S
Eu91 O103 2.355 . S
Eu91 O105 2.374 . S
Eu91 O106 2.473 . S
Eu91 O107 2.480 . S
Eu91 O108 2.430 . S
Eu91 O109 2.670 . S
Eu91 O110 2.394 . S
C92 C90 1.500 . S
C92 C93 1.377 . S
C92 C97 1.377 . S
C93 C92 1.377 . S
C93 C94 1.395 . S
C93 H116 0.931 . S
C94 C93 1.395 . S
C94 C95 1.383 . S
C94 H117 0.931 . S
C95 C94 1.383 . S
C95 C96 1.394 . S
C96 C95 1.394 . S
C96 C97 1.378 . S
C96 H118 0.931 . S
C97 C92 1.377 . S
C97 C96 1.378 . S
C97 H119 0.931 . S
C98 O108 1.259 . S
C98 O109 1.270 . S
C99 O110 1.251 . S
C99 O111 1.251 . S
O100 C80 1.257 . S
O100 Eu81 2.473 . S
O101 C80 1.260 . S
O101 Eu81 2.480 . S
O102 Eu81 2.430 . S
O102 C88 1.259 . S
O103 Eu81 2.670 . S
O103 C88 1.270 . S
O103 Eu91 2.355 . S
O104 Eu81 2.394 . S
O104 C89 1.251 . S
O105 C89 1.251 . S
O105 Eu91 2.374 . S
O106 C90 1.257 . S
O106 Eu91 2.473 . S
O107 C90 1.260 . S
O107 Eu91 2.480 . S
O108 Eu91 2.430 . S
O108 C98 1.259 . S
O109 Eu81 2.355 . S
O109 Eu91 2.670 . S
O109 C98 1.270 . S
O110 Eu91 2.394 . S
O110 C99 1.251 . S
O111 Eu81 2.374 . S
O111 C99 1.251 . S
H112 C83 0.931 . S
H113 C84 0.931 . S
H114 C86 0.931 . S
H115 C87 0.931 . S
H116 C93 0.931 . S
H117 C94 0.931 . S
H118 C96 0.931 . S
H119 C97 0.931 . S
O120 Cd121 2.300 . S
O120 C127 1.275 . S
Cd121 O120 2.300 . S
Cd121 O129 2.381 . S
Cd121 O130 2.378 . S
O122 Cd123 2.385 1_545 S
O122 C127 1.255 . S
Cd123 O122 2.385 1_565 S
Cd123 O124 2.317 . S
O124 Cd123 2.317 . S
O124 C125 1.232 . S
C125 O124 1.232 . S
C125 O126 1.218 . S
O126 C125 1.218 . S
C127 O120 1.275 . S
C127 O122 1.255 . S
C128 O129 1.258 . S
C128 O130 1.256 . S
O129 Cd121 2.381 . S
O129 C128 1.258 . S
O130 Cd121 2.378 . S
O130 C128 1.256 . S
O131 Cd132 2.300 . S
O131 C138 1.275 . S
Cd132 O131 2.300 . S
Cd132 O140 2.381 . S
Cd132 O141 2.378 . S
O133 Cd134 2.385 . S
O133 C138 1.255 . S
Cd134 O133 2.385 . S
Cd134 O135 2.317 . S
O135 Cd134 2.317 . S
O135 C136 1.232 . S
C136 O135 1.232 . S
C136 O137 1.218 . S
O137 C136 1.218 . S
C138 O131 1.275 . S
C138 O133 1.255 . S
C139 O140 1.258 . S
C139 O141 1.256 . S
O140 Cd132 2.381 . S
O140 C139 1.258 . S
O141 Cd132 2.378 . S
O141 C139 1.256 . S
O142 Cd143 2.300 . S
O142 C149 1.275 1_455 S
Cd143 O142 2.300 . S
Cd143 O151 2.381 . S
Cd143 O152 2.378 . S
O144 Cd145 2.385 . S
O144 C149 1.255 . S
Cd145 O144 2.385 . S
Cd145 O146 2.317 . S
O146 Cd145 2.317 . S
O146 C147 1.232 . S
C147 O146 1.232 . S
C147 O148 1.218 . S
O148 C147 1.218 . S
C149 O142 1.275 1_655 S
C149 O144 1.255 . S
C150 O151 1.258 . S
C150 O152 1.256 . S
O151 Cd143 2.381 . S
O151 C150 1.258 . S
O152 Cd143 2.378 . S
O152 C150 1.256 . S
O153 Cd154 2.300 . S
O153 C160 1.275 . S
Cd154 O153 2.300 . S
Cd154 O162 2.381 . S
Cd154 O163 2.378 . S
O155 Cd156 2.385 . S
O155 C160 1.255 1_655 S
Cd156 O155 2.385 . S
Cd156 O157 2.317 . S
O157 Cd156 2.317 . S
O157 C158 1.232 . S
C158 O157 1.232 . S
C158 O159 1.218 . S
O159 C158 1.218 . S
C160 O153 1.275 . S
C160 O155 1.255 1_455 S
C161 O162 1.258 . S
C161 O163 1.256 . S
O162 Cd154 2.381 . S
O162 C161 1.258 . S
O163 Cd154 2.378 . S
O163 C161 1.256 . S
O164 Cd165 2.300 . S
O164 C171 1.275 1_565 S
Cd165 O164 2.300 . S
Cd165 O173 2.381 . S
Cd165 O174 2.378 . S
O166 Cd167 2.385 . S
O166 C171 1.255 . S
Cd167 O166 2.385 . S
Cd167 O168 2.317 . S
O168 Cd167 2.317 . S
O168 C169 1.232 . S
C169 O168 1.232 . S
C169 O170 1.218 . S
O170 C169 1.218 . S
C171 O164 1.275 1_545 S
C171 O166 1.255 . S
C172 O173 1.258 . S
C172 O174 1.256 . S
O173 Cd165 2.381 . S
O173 C172 1.258 . S
O174 Cd165 2.378 . S
O174 C172 1.256 . S
O175 Cd176 2.300 . S
O175 C182 1.275 . S
Cd176 O175 2.300 . S
Cd176 O184 2.381 . S
Cd176 O185 2.378 . S
O177 Cd178 2.385 . S
O177 C182 1.255 . S
Cd178 O177 2.385 . S
Cd178 O179 2.317 . S
O179 Cd178 2.317 . S
O179 C180 1.232 . S
C180 O179 1.232 . S
C180 O181 1.218 . S
O181 C180 1.218 . S
C182 O175 1.275 . S
C182 O177 1.255 . S
C183 O184 1.258 . S
C183 O185 1.256 . S
O184 Cd176 2.381 . S
O184 C183 1.258 . S
O185 Cd176 2.378 . S
O185 C183 1.256 . S
C186 C187 1.387 . S
C186 H190 0.950 . S
C186 C195 1.390 . S
C187 C186 1.387 . S
C187 C189 1.387 . S
H188 C195 0.950 . S
C189 C187 1.387 . S
C189 C191 1.390 . S
C189 H193 0.950 . S
H190 C186 0.950 . S
C191 C189 1.390 . S
C191 C192 1.387 . S
C191 H194 0.950 . S
C192 C191 1.387 . S
C192 C195 1.387 . S
H193 C189 0.950 . S
H194 C191 0.950 . S
C195 C186 1.390 . S
C195 H188 0.950 . S
C195 C192 1.387 . S
C196 C197 1.387 . S
C196 H200 0.950 . S
C196 C205 1.390 . S
C197 C196 1.387 . S
C197 C199 1.387 . S
H198 C205 0.950 . S
C199 C197 1.387 . S
C199 C201 1.390 . S
C199 H203 0.950 . S
H200 C196 0.950 . S
C201 C199 1.390 . S
C201 C202 1.387 . S
C201 H204 0.950 . S
C202 C201 1.387 . S
C202 C205 1.387 . S
H203 C199 0.950 . S
H204 C201 0.950 . S
C205 C196 1.390 . S
C205 H198 0.950 . S
C205 C202 1.387 . S
C206 C207 1.387 . S
C206 H210 0.950 . S
C206 C215 1.390 . S
C207 C206 1.387 . S
C207 C209 1.387 . S
H208 C215 0.950 . S
C209 C207 1.387 . S
C209 C211 1.390 . S
C209 H213 0.950 . S
H210 C206 0.950 . S
C211 C209 1.390 . S
C211 C212 1.387 . S
C211 H214 0.950 . S
C212 C211 1.387 . S
C212 C215 1.387 . S
H213 C209 0.950 . S
H214 C211 0.950 . S
C215 C206 1.390 . S
C215 H208 0.950 . S
C215 C212 1.387 . S
C216 C217 1.387 . S
C216 H220 0.950 . S
C216 C225 1.390 . S
C217 C216 1.387 . S
C217 C219 1.387 . S
H218 C225 0.950 . S
C219 C217 1.387 . S
C219 C221 1.390 . S
C219 H223 0.950 . S
H220 C216 0.950 . S
C221 C219 1.390 . S
C221 C222 1.387 . S
C221 H224 0.950 . S
C222 C221 1.387 . S
C222 C225 1.387 . S
H223 C219 0.950 . S
H224 C221 0.950 . S
C225 C216 1.390 . S
C225 H218 0.950 . S
C225 C222 1.387 . S
C226 C227 1.387 . S
C226 H230 0.950 . S
C226 C235 1.390 . S
C227 C226 1.387 . S
C227 C229 1.387 . S
H228 C235 0.950 . S
C229 C227 1.387 . S
C229 C231 1.390 . S
C229 H233 0.950 . S
H230 C226 0.950 . S
C231 C229 1.390 . S
C231 C232 1.387 . S
C231 H234 0.950 . S
C232 C231 1.387 . S
C232 C235 1.387 . S
H233 C229 0.950 . S
H234 C231 0.950 . S
C235 C226 1.390 . S
C235 H228 0.950 . S
C235 C232 1.387 . S
C236 C237 1.387 . S
C236 H240 0.950 . S
C236 C245 1.390 . S
C237 C236 1.387 . S
C237 C239 1.387 . S
H238 C245 0.950 . S
C239 C237 1.387 . S
C239 C241 1.390 . S
C239 H243 0.950 . S
H240 C236 0.950 . S
C241 C239 1.390 . S
C241 C242 1.387 . S
C241 H244 0.950 . S
C242 C241 1.387 . S
C242 C245 1.387 . S
H243 C239 0.950 . S
H244 C241 0.950 . S
C245 C236 1.390 . S
C245 H238 0.950 . S
C245 C242 1.387 . S
C246 C247 1.387 . S
C246 H250 0.950 . S
C246 C255 1.390 . S
C247 C246 1.387 . S
C247 C249 1.387 . S
H248 C255 0.950 . S
C249 C247 1.387 . S
C249 C251 1.390 . S
C249 H253 0.950 . S
H250 C246 0.950 . S
C251 C249 1.390 . S
C251 C252 1.387 . S
C251 H254 0.950 . S
C252 C251 1.387 . S
C252 C255 1.387 . S
H253 C249 0.950 . S
H254 C251 0.950 . S
C255 C246 1.390 . S
C255 H248 0.950 . S
C255 C252 1.387 . S
C256 C257 1.387 . S
C256 H260 0.950 . S
C256 C265 1.390 . S
C257 C256 1.387 . S
C257 C259 1.387 . S
H258 C265 0.950 . S
C259 C257 1.387 . S
C259 C261 1.390 . S
C259 H263 0.950 . S
H260 C256 0.950 . S
C261 C259 1.390 . S
C261 C262 1.387 . S
C261 H264 0.950 . S
C262 C261 1.387 . S
C262 C265 1.387 . S
H263 C259 0.950 . S
H264 C261 0.950 . S
C265 C256 1.390 . S
C265 H258 0.950 . S
C265 C262 1.387 . S
C266 C267 1.387 . S
C266 H270 0.950 . S
C266 C275 1.390 . S
C267 C266 1.387 . S
C267 C269 1.387 . S
H268 C275 0.950 . S
C269 C267 1.387 . S
C269 C271 1.390 . S
C269 H273 0.950 . S
H270 C266 0.950 . S
C271 C269 1.390 . S
C271 C272 1.387 . S
C271 H274 0.950 . S
C272 C271 1.387 . S
C272 C275 1.387 . S
H273 C269 0.950 . S
H274 C271 0.950 . S
C275 C266 1.390 . S
C275 H268 0.950 . S
C275 C272 1.387 . S
C276 C277 1.387 . S
C276 H280 0.950 . S
C276 C285 1.390 . S
C277 C276 1.387 . S
C277 C279 1.387 . S
H278 C285 0.950 . S
C279 C277 1.387 . S
C279 C281 1.390 . S
C279 H283 0.950 . S
H280 C276 0.950 . S
C281 C279 1.390 . S
C281 C282 1.387 . S
C281 H284 0.950 . S
C282 C281 1.387 . S
C282 C285 1.387 . S
H283 C279 0.950 . S
H284 C281 0.950 . S
C285 C276 1.390 . S
C285 H278 0.950 . S
C285 C282 1.387 . S
C286 C287 1.387 . S
C286 H290 0.950 . S
C286 C295 1.390 . S
C287 C286 1.387 . S
C287 C289 1.387 . S
H288 C295 0.950 . S
C289 C287 1.387 . S
C289 C291 1.390 . S
C289 H293 0.950 . S
H290 C286 0.950 . S
C291 C289 1.390 . S
C291 C292 1.387 . S
C291 H294 0.950 . S
C292 C291 1.387 . S
C292 C295 1.387 . S
H293 C289 0.950 . S
H294 C291 0.950 . S
C295 C286 1.390 . S
C295 H288 0.950 . S
C295 C292 1.387 . S
C296 C297 1.387 . S
C296 H300 0.950 . S
C296 C305 1.390 . S
C297 C296 1.387 . S
C297 C299 1.387 . S
H298 C305 0.950 . S
C299 C297 1.387 . S
C299 C301 1.390 . S
C299 H303 0.950 . S
H300 C296 0.950 . S
C301 C299 1.390 . S
C301 C302 1.387 . S
C301 H304 0.950 . S
C302 C301 1.387 . S
C302 C305 1.387 . S
H303 C299 0.950 . S
H304 C301 0.950 . S
C305 C296 1.390 . S
C305 H298 0.950 . S
C305 C302 1.387 . S
C306 C307 1.387 . S
C306 H310 0.950 . S
C306 C315 1.390 . S
C307 C306 1.387 . S
C307 C309 1.387 1_455 S
H308 C315 0.950 1_556 S
C309 C307 1.387 1_655 S
C309 C311 1.363 1_554 S
C309 H313 0.950 . S
H310 C306 0.950 . S
C311 C309 1.363 1_556 S
C311 C312 1.399 . S
C311 H314 0.965 . S
C312 C311 1.399 . S
C312 C315 1.387 1_656 S
H313 C309 0.950 . S
H314 C311 0.965 . S
C315 C306 1.390 . S
C315 H308 0.950 1_554 S
C315 C312 1.387 1_454 S
C316 C317 1.387 . S
C316 H320 0.950 . S
C316 C325 1.390 . S
C317 C316 1.387 . S
C317 C319 1.387 1_545 S
H318 C325 0.950 . S
C319 C317 1.387 1_565 S
C319 C321 1.390 . S
C319 H323 0.950 . S
H320 C316 0.950 . S
C321 C319 1.390 . S
C321 C322 1.387 1_565 S
C321 H324 0.950 . S
C322 C321 1.387 1_545 S
C322 C325 1.387 . S
H323 C319 0.950 . S
H324 C321 0.950 . S
C325 C316 1.390 . S
C325 H318 0.950 . S
C325 C322 1.387 . S
C326 C327 1.387 . S
C326 H330 0.950 . S
C326 C335 1.390 . S
C327 C326 1.387 . S
C327 C329 1.387 . S
H328 C335 0.950 . S
C329 C327 1.387 . S
C329 C331 1.390 . S
C329 H333 0.950 . S
H330 C326 0.950 . S
C331 C329 1.390 . S
C331 C332 1.387 . S
C331 H334 0.950 . S
C332 C331 1.387 . S
C332 C335 1.387 . S
H333 C329 0.950 . S
H334 C331 0.950 . S
C335 C326 1.390 . S
C335 H328 0.950 . S
C335 C332 1.387 . S
C336 C337 1.387 . S
C336 H340 0.950 . S
C336 C345 1.390 . S
C337 C336 1.387 . S
C337 C339 1.387 1_545 S
H338 C345 0.950 . S
C339 C337 1.387 1_565 S
C339 C341 1.390 . S
C339 H343 0.950 . S
H340 C336 0.950 . S
C341 C339 1.390 . S
C341 C342 1.387 1_565 S
C341 H344 0.950 . S
C342 C341 1.387 1_545 S
C342 C345 1.387 . S
H343 C339 0.950 . S
H344 C341 0.950 . S
C345 C336 1.390 . S
C345 H338 0.950 . S
C345 C342 1.387 . S
C346 C347 1.387 . S
C346 H350 0.950 . S
C346 C355 1.390 . S
C347 C346 1.387 . S
C347 C349 1.387 . S
H348 C355 0.950 1_554 S
C349 C347 1.387 . S
C349 C351 1.390 . S
C349 H353 0.950 . S
H350 C346 0.950 . S
C351 C349 1.390 . S
C351 C352 1.387 1_556 S
C351 H354 0.950 . S
C352 C351 1.387 1_554 S
C352 C355 1.387 1_554 S
H353 C349 0.950 . S
H354 C351 0.950 . S
C355 C346 1.390 . S
C355 H348 0.950 1_556 S
C355 C352 1.387 1_556 S
C356 C357 1.387 . S
C356 H360 0.950 . S
C356 C365 1.390 . S
C357 C356 1.387 . S
C357 C359 1.387 1_455 S
H358 C365 0.950 . S
C359 C357 1.387 1_655 S
C359 C361 1.390 . S
C359 H363 0.950 . S
H360 C356 0.950 . S
C361 C359 1.390 . S
C361 C362 1.387 1_655 S
C361 H364 0.950 . S
C362 C361 1.387 1_455 S
C362 C365 1.387 . S
H363 C359 0.950 . S
H364 C361 0.950 . S
C365 C356 1.390 . S
C365 H358 0.950 . S
C365 C362 1.387 . S
C187 C19 3.175 . S
C192 C180 2.831 . S
C197 C49 3.241 . S
C202 C158 2.891 . S
C207 C99 2.974 . S
C212 C172 2.893 . S
C217 C9 3.018 . S
C222 C183 2.940 . S
C232 C161 2.892 . S
C227 C59 2.973 . S
C242 C169 2.890 . S
C237 C89 3.240 . S
C247 C55 0.704 . S
C252 C136 0.742 . S
C257 C85 0.723 . S
C262 C147 0.718 . S
C267 C15 0.693 . S
C272 C125 0.744 . S
C282 C139 0.530 . S
C277 C45 0.631 . S
C292 C150 0.440 . S
C287 C95 0.537 . S
C297 C5 0.623 . S
C302 C128 0.527 . S
C312 C149 1.097 . S
C307 C18 1.114 . S
C317 C58 1.150 . S
C322 C127 1.076 . S
C327 C98 1.144 . S
C332 C138 1.077 . S
C342 C171 1.703 . S
C337 C48 1.689 . S
C352 C182 1.713 . S
C347 C88 1.738 . S
C357 C8 1.687 . S
C362 C160 1.704 . S
