# Generated by pormake.
# Topology gar, (4,6)-cn, num edge types: 1
# Building blocks:
#     Node 0, Type 0, BuildingBlock: AZAVOO_clean_sbu_0, # of connection points: 4
#     Node 1, Type 0, BuildingBlock: AZAVOO_clean_sbu_0, # of connection points: 4
#     Node 2, Type 0, BuildingBlock: AZAVOO_clean_sbu_0, # of connection points: 4
#     Node 3, Type 0, BuildingBlock: AZAVOO_clean_sbu_0, # of connection points: 4
#     Node 4, Type 0, BuildingBlock: AZAVOO_clean_sbu_0, # of connection points: 4
#     Node 5, Type 0, BuildingBlock: AZAVOO_clean_sbu_0, # of connection points: 4
#     Node 6, Type 0, BuildingBlock: AZAVOO_clean_sbu_0, # of connection points: 4
#     Node 7, Type 0, BuildingBlock: AZAVOO_clean_sbu_0, # of connection points: 4
#     Node 8, Type 0, BuildingBlock: AZAVOO_clean_sbu_0, # of connection points: 4
#     Node 9, Type 0, BuildingBlock: AZAVOO_clean_sbu_0, # of connection points: 4
#     Node 10, Type 0, BuildingBlock: AZAVOO_clean_sbu_0, # of connection points: 4
#     Node 11, Type 0, BuildingBlock: AZAVOO_clean_sbu_0, # of connection points: 4
#     Node 12, Type 0, BuildingBlock: AZAVOO_clean_sbu_0, # of connection points: 4
#     Node 13, Type 0, BuildingBlock: AZAVOO_clean_sbu_0, # of connection points: 4
#     Node 14, Type 0, BuildingBlock: AZAVOO_clean_sbu_0, # of connection points: 4
#     Node 15, Type 0, BuildingBlock: AZAVOO_clean_sbu_0, # of connection points: 4
#     Node 16, Type 0, BuildingBlock: AZAVOO_clean_sbu_0, # of connection points: 4
#     Node 17, Type 0, BuildingBlock: AZAVOO_clean_sbu_0, # of connection points: 4
#     Node 18, Type 0, BuildingBlock: AZAVOO_clean_sbu_0, # of connection points: 4
#     Node 19, Type 0, BuildingBlock: AZAVOO_clean_sbu_0, # of connection points: 4
#     Node 20, Type 0, BuildingBlock: AZAVOO_clean_sbu_0, # of connection points: 4
#     Node 21, Type 0, BuildingBlock: AZAVOO_clean_sbu_0, # of connection points: 4
#     Node 22, Type 0, BuildingBlock: AZAVOO_clean_sbu_0, # of connection points: 4
#     Node 23, Type 0, BuildingBlock: AZAVOO_clean_sbu_0, # of connection points: 4
#     Node 24, Type 1, BuildingBlock: PAMTOO_clean_sbu_0, # of connection points: 6
#     Node 25, Type 1, BuildingBlock: PAMTOO_clean_sbu_0, # of connection points: 6
#     Node 26, Type 1, BuildingBlock: PAMTOO_clean_sbu_0, # of connection points: 6
#     Node 27, Type 1, BuildingBlock: PAMTOO_clean_sbu_0, # of connection points: 6
#     Node 28, Type 1, BuildingBlock: PAMTOO_clean_sbu_0, # of connection points: 6
#     Node 29, Type 1, BuildingBlock: PAMTOO_clean_sbu_0, # of connection points: 6
#     Node 30, Type 1, BuildingBlock: PAMTOO_clean_sbu_0, # of connection points: 6
#     Node 31, Type 1, BuildingBlock: PAMTOO_clean_sbu_0, # of connection points: 6
#     Node 32, Type 1, BuildingBlock: PAMTOO_clean_sbu_0, # of connection points: 6
#     Node 33, Type 1, BuildingBlock: PAMTOO_clean_sbu_0, # of connection points: 6
#     Node 34, Type 1, BuildingBlock: PAMTOO_clean_sbu_0, # of connection points: 6
#     Node 35, Type 1, BuildingBlock: PAMTOO_clean_sbu_0, # of connection points: 6
#     Node 36, Type 1, BuildingBlock: PAMTOO_clean_sbu_0, # of connection points: 6
#     Node 37, Type 1, BuildingBlock: PAMTOO_clean_sbu_0, # of connection points: 6
#     Node 38, Type 1, BuildingBlock: PAMTOO_clean_sbu_0, # of connection points: 6
#     Node 39, Type 1, BuildingBlock: PAMTOO_clean_sbu_0, # of connection points: 6
#     Edge 40, Type (0, 1), BuildingBlock: XUDNAN_clean_linker_2, # of connection points: 2
#     Edge 41, Type (0, 1), BuildingBlock: XUDNAN_clean_linker_2, # of connection points: 2
#     Edge 42, Type (0, 1), BuildingBlock: XUDNAN_clean_linker_2, # of connection points: 2
#     Edge 43, Type (0, 1), BuildingBlock: XUDNAN_clean_linker_2, # of connection points: 2
#     Edge 44, Type (0, 1), BuildingBlock: XUDNAN_clean_linker_2, # of connection points: 2
#     Edge 45, Type (0, 1), BuildingBlock: XUDNAN_clean_linker_2, # of connection points: 2
#     Edge 46, Type (0, 1), BuildingBlock: XUDNAN_clean_linker_2, # of connection points: 2
#     Edge 47, Type (0, 1), BuildingBlock: XUDNAN_clean_linker_2, # of connection points: 2
#     Edge 48, Type (0, 1), BuildingBlock: XUDNAN_clean_linker_2, # of connection points: 2
#     Edge 49, Type (0, 1), BuildingBlock: XUDNAN_clean_linker_2, # of connection points: 2
#     Edge 50, Type (0, 1), BuildingBlock: XUDNAN_clean_linker_2, # of connection points: 2
#     Edge 51, Type (0, 1), BuildingBlock: XUDNAN_clean_linker_2, # of connection points: 2
#     Edge 52, Type (0, 1), BuildingBlock: XUDNAN_clean_linker_2, # of connection points: 2
#     Edge 53, Type (0, 1), BuildingBlock: XUDNAN_clean_linker_2, # of connection points: 2
#     Edge 54, Type (0, 1), BuildingBlock: XUDNAN_clean_linker_2, # of connection points: 2
#     Edge 55, Type (0, 1), BuildingBlock: XUDNAN_clean_linker_2, # of connection points: 2
#     Edge 56, Type (0, 1), BuildingBlock: XUDNAN_clean_linker_2, # of connection points: 2
#     Edge 57, Type (0, 1), BuildingBlock: XUDNAN_clean_linker_2, # of connection points: 2
#     Edge 58, Type (0, 1), BuildingBlock: XUDNAN_clean_linker_2, # of connection points: 2
#     Edge 59, Type (0, 1), BuildingBlock: XUDNAN_clean_linker_2, # of connection points: 2
#     Edge 60, Type (0, 1), BuildingBlock: XUDNAN_clean_linker_2, # of connection points: 2
#     Edge 61, Type (0, 1), BuildingBlock: XUDNAN_clean_linker_2, # of connection points: 2
#     Edge 62, Type (0, 1), BuildingBlock: XUDNAN_clean_linker_2, # of connection points: 2
#     Edge 63, Type (0, 1), BuildingBlock: XUDNAN_clean_linker_2, # of connection points: 2
#     Edge 64, Type (0, 1), BuildingBlock: XUDNAN_clean_linker_2, # of connection points: 2
#     Edge 65, Type (0, 1), BuildingBlock: XUDNAN_clean_linker_2, # of connection points: 2
#     Edge 66, Type (0, 1), BuildingBlock: XUDNAN_clean_linker_2, # of connection points: 2
#     Edge 67, Type (0, 1), BuildingBlock: XUDNAN_clean_linker_2, # of connection points: 2
#     Edge 68, Type (0, 1), BuildingBlock: XUDNAN_clean_linker_2, # of connection points: 2
#     Edge 69, Type (0, 1), BuildingBlock: XUDNAN_clean_linker_2, # of connection points: 2
#     Edge 70, Type (0, 1), BuildingBlock: XUDNAN_clean_linker_2, # of connection points: 2
#     Edge 71, Type (0, 1), BuildingBlock: XUDNAN_clean_linker_2, # of connection points: 2
#     Edge 72, Type (0, 1), BuildingBlock: XUDNAN_clean_linker_2, # of connection points: 2
#     Edge 73, Type (0, 1), BuildingBlock: XUDNAN_clean_linker_2, # of connection points: 2
#     Edge 74, Type (0, 1), BuildingBlock: XUDNAN_clean_linker_2, # of connection points: 2
#     Edge 75, Type (0, 1), BuildingBlock: XUDNAN_clean_linker_2, # of connection points: 2
#     Edge 76, Type (0, 1), BuildingBlock: XUDNAN_clean_linker_2, # of connection points: 2
#     Edge 77, Type (0, 1), BuildingBlock: XUDNAN_clean_linker_2, # of connection points: 2
#     Edge 78, Type (0, 1), BuildingBlock: XUDNAN_clean_linker_2, # of connection points: 2
#     Edge 79, Type (0, 1), BuildingBlock: XUDNAN_clean_linker_2, # of connection points: 2
#     Edge 80, Type (0, 1), BuildingBlock: XUDNAN_clean_linker_2, # of connection points: 2
#     Edge 81, Type (0, 1), BuildingBlock: XUDNAN_clean_linker_2, # of connection points: 2
#     Edge 82, Type (0, 1), BuildingBlock: XUDNAN_clean_linker_2, # of connection points: 2
#     Edge 83, Type (0, 1), BuildingBlock: XUDNAN_clean_linker_2, # of connection points: 2
#     Edge 84, Type (0, 1), BuildingBlock: XUDNAN_clean_linker_2, # of connection points: 2
#     Edge 85, Type (0, 1), BuildingBlock: XUDNAN_clean_linker_2, # of connection points: 2
#     Edge 86, Type (0, 1), BuildingBlock: XUDNAN_clean_linker_2, # of connection points: 2
#     Edge 87, Type (0, 1), BuildingBlock: XUDNAN_clean_linker_2, # of connection points: 2
#     Edge 88, Type (0, 1), BuildingBlock: XUDNAN_clean_linker_2, # of connection points: 2
#     Edge 89, Type (0, 1), BuildingBlock: XUDNAN_clean_linker_2, # of connection points: 2
#     Edge 90, Type (0, 1), BuildingBlock: XUDNAN_clean_linker_2, # of connection points: 2
#     Edge 91, Type (0, 1), BuildingBlock: XUDNAN_clean_linker_2, # of connection points: 2
#     Edge 92, Type (0, 1), BuildingBlock: XUDNAN_clean_linker_2, # of connection points: 2
#     Edge 93, Type (0, 1), BuildingBlock: XUDNAN_clean_linker_2, # of connection points: 2
#     Edge 94, Type (0, 1), BuildingBlock: XUDNAN_clean_linker_2, # of connection points: 2
#     Edge 95, Type (0, 1), BuildingBlock: XUDNAN_clean_linker_2, # of connection points: 2
#     Edge 96, Type (0, 1), BuildingBlock: XUDNAN_clean_linker_2, # of connection points: 2
#     Edge 97, Type (0, 1), BuildingBlock: XUDNAN_clean_linker_2, # of connection points: 2
#     Edge 98, Type (0, 1), BuildingBlock: XUDNAN_clean_linker_2, # of connection points: 2
#     Edge 99, Type (0, 1), BuildingBlock: XUDNAN_clean_linker_2, # of connection points: 2
#     Edge 100, Type (0, 1), BuildingBlock: XUDNAN_clean_linker_2, # of connection points: 2
#     Edge 101, Type (0, 1), BuildingBlock: XUDNAN_clean_linker_2, # of connection points: 2
#     Edge 102, Type (0, 1), BuildingBlock: XUDNAN_clean_linker_2, # of connection points: 2
#     Edge 103, Type (0, 1), BuildingBlock: XUDNAN_clean_linker_2, # of connection points: 2
#     Edge 104, Type (0, 1), BuildingBlock: XUDNAN_clean_linker_2, # of connection points: 2
#     Edge 105, Type (0, 1), BuildingBlock: XUDNAN_clean_linker_2, # of connection points: 2
#     Edge 106, Type (0, 1), BuildingBlock: XUDNAN_clean_linker_2, # of connection points: 2
#     Edge 107, Type (0, 1), BuildingBlock: XUDNAN_clean_linker_2, # of connection points: 2
#     Edge 108, Type (0, 1), BuildingBlock: XUDNAN_clean_linker_2, # of connection points: 2
#     Edge 109, Type (0, 1), BuildingBlock: XUDNAN_clean_linker_2, # of connection points: 2
#     Edge 110, Type (0, 1), BuildingBlock: XUDNAN_clean_linker_2, # of connection points: 2
#     Edge 111, Type (0, 1), BuildingBlock: XUDNAN_clean_linker_2, # of connection points: 2
#     Edge 112, Type (0, 1), BuildingBlock: XUDNAN_clean_linker_2, # of connection points: 2
#     Edge 113, Type (0, 1), BuildingBlock: XUDNAN_clean_linker_2, # of connection points: 2
#     Edge 114, Type (0, 1), BuildingBlock: XUDNAN_clean_linker_2, # of connection points: 2
#     Edge 115, Type (0, 1), BuildingBlock: XUDNAN_clean_linker_2, # of connection points: 2
#     Edge 116, Type (0, 1), BuildingBlock: XUDNAN_clean_linker_2, # of connection points: 2
#     Edge 117, Type (0, 1), BuildingBlock: XUDNAN_clean_linker_2, # of connection points: 2
#     Edge 118, Type (0, 1), BuildingBlock: XUDNAN_clean_linker_2, # of connection points: 2
#     Edge 119, Type (0, 1), BuildingBlock: XUDNAN_clean_linker_2, # of connection points: 2
#     Edge 120, Type (0, 1), BuildingBlock: XUDNAN_clean_linker_2, # of connection points: 2
#     Edge 121, Type (0, 1), BuildingBlock: XUDNAN_clean_linker_2, # of connection points: 2
#     Edge 122, Type (0, 1), BuildingBlock: XUDNAN_clean_linker_2, # of connection points: 2
#     Edge 123, Type (0, 1), BuildingBlock: XUDNAN_clean_linker_2, # of connection points: 2
#     Edge 124, Type (0, 1), BuildingBlock: XUDNAN_clean_linker_2, # of connection points: 2
#     Edge 125, Type (0, 1), BuildingBlock: XUDNAN_clean_linker_2, # of connection points: 2
#     Edge 126, Type (0, 1), BuildingBlock: XUDNAN_clean_linker_2, # of connection points: 2
#     Edge 127, Type (0, 1), BuildingBlock: XUDNAN_clean_linker_2, # of connection points: 2
#     Edge 128, Type (0, 1), BuildingBlock: XUDNAN_clean_linker_2, # of connection points: 2
#     Edge 129, Type (0, 1), BuildingBlock: XUDNAN_clean_linker_2, # of connection points: 2
#     Edge 130, Type (0, 1), BuildingBlock: XUDNAN_clean_linker_2, # of connection points: 2
#     Edge 131, Type (0, 1), BuildingBlock: XUDNAN_clean_linker_2, # of connection points: 2
#     Edge 132, Type (0, 1), BuildingBlock: XUDNAN_clean_linker_2, # of connection points: 2
#     Edge 133, Type (0, 1), BuildingBlock: XUDNAN_clean_linker_2, # of connection points: 2
#     Edge 134, Type (0, 1), BuildingBlock: XUDNAN_clean_linker_2, # of connection points: 2
#     Edge 135, Type (0, 1), BuildingBlock: XUDNAN_clean_linker_2, # of connection points: 2
# Relax obj value: 0.176
# Max RMSD: 0.273
# Mean RMSD: 0.197
data_MOF--net-gar--node1-AZAVOO_clean_sbu_0--node2-PAMTOO_clean_sbu_0--edge1-XUDNAN_clean_linker_2
_symmetry_space_group_name_H-M    P1
_symmetry_Int_Tables_number       1
_symmetry_cell_setting            triclinic
loop_
_symmetry_equiv_pos_as_xyz
'x, y, z'
_cell_length_a     60.864771
_cell_length_b     58.79104
_cell_length_c     57.650352
_cell_angle_alpha  99.261568
_cell_angle_beta   95.580712
_cell_angle_gamma 106.75343
loop_
_atom_site_label
_atom_site_type_symbol
_atom_site_fract_x
_atom_site_fract_y
_atom_site_fract_z
_atom_type_partial_charge
Mg0 Mg 0.041 0.31883 0.34143 0.0
O1 O 0.0465 0.35583 0.36921 0.0
O2 O 0.01513 0.34706 0.38756 0.0
Mg3 Mg 0.99015 0.30882 0.37398 0.0
C4 C 0.03412 0.36194 0.38461 0.0
C5 C 0.09838 0.32397 0.34043 0.0
O6 O 0.09894 0.31945 0.36202 0.0
O7 O 0.04977 0.29886 0.3711 0.0
O8 O 0.01729 0.29193 0.38752 0.0
O9 O 0.01822 0.33084 0.31435 0.0
O10 O 1.00395 0.31035 0.34063 0.0
C11 C 0.03729 0.28947 0.38589 0.0
C12 C 1.00021 0.32109 0.32372 0.0
O13 O 0.07966 0.32656 0.33028 0.0
Mg14 Mg 0.01616 0.77133 0.70711 0.0
O15 O 0.01106 0.73261 0.68511 0.0
O16 O 0.97839 0.72185 0.65918 0.0
Mg17 Mg 0.96008 0.75111 0.66615 0.0
C18 C 0.99668 0.71769 0.66775 0.0
C19 C 0.06975 0.76375 0.71793 0.0
O20 O 0.06003 0.74044 0.70956 0.0
O21 O 0.02406 0.78865 0.67408 0.0
O22 O 0.98905 0.77668 0.65146 0.0
O23 O 0.99274 0.75764 0.73515 0.0
O24 O 0.97907 0.76628 0.70267 0.0
C25 C 0.01067 0.78856 0.65545 0.0
C26 C 0.97506 0.75984 0.7224 0.0
O27 O 0.05689 0.77771 0.719 0.0
Mg28 Mg 0.54335 0.8214 0.8418 0.0
O29 O 0.5485 0.85716 0.87093 0.0
O30 O 0.51553 0.85012 0.88682 0.0
Mg31 Mg 0.49073 0.81186 0.87179 0.0
C32 C 0.5355 0.86406 0.88513 0.0
C33 C 0.59124 0.81359 0.82534 0.0
O34 O 0.57632 0.79177 0.81811 0.0
O35 O 0.54961 0.80007 0.87091 0.0
O36 O 0.51664 0.79369 0.88648 0.0
O37 O 0.52223 0.83487 0.8143 0.0
O38 O 0.506 0.81356 0.83909 0.0
C39 C 0.53652 0.79069 0.88523 0.0
C40 C 0.50342 0.82495 0.82239 0.0
O41 O 0.58373 0.83038 0.83575 0.0
Mg42 Mg 0.51462 0.27015 0.20914 0.0
O43 O 0.5091 0.23245 0.18513 0.0
O44 O 0.47909 0.22541 0.15659 0.0
Mg45 Mg 0.46092 0.25477 0.16595 0.0
C46 C 0.49603 0.21956 0.16599 0.0
C47 C 0.56658 0.26358 0.23142 0.0
O48 O 0.55561 0.2455 0.24093 0.0
O49 O 0.52458 0.29037 0.17846 0.0
O50 O 0.49074 0.28327 0.15518 0.0
O51 O 0.48958 0.25484 0.2352 0.0
O52 O 0.47781 0.26654 0.20379 0.0
C53 C 0.51257 0.29398 0.16068 0.0
C54 C 0.47269 0.25864 0.22263 0.0
O55 O 0.55475 0.27422 0.21994 0.0
Mg56 Mg 0.06958 0.81804 0.12563 0.0
O57 O 0.06778 0.78118 0.10086 0.0
O58 O 0.03315 0.76772 0.078 0.0
Mg59 Mg 0.0133 0.79604 0.08631 0.0
C60 C 0.05254 0.76482 0.08519 0.0
C61 C 0.11674 0.80853 0.14606 0.0
O62 O 0.10289 0.78608 0.14037 0.0
O63 O 0.07391 0.84391 0.097 0.0
O64 O 0.03745 0.83163 0.07795 0.0
O65 O 0.05094 0.79806 0.15239 0.0
O66 O 0.03276 0.80761 0.12261 0.0
C67 C 0.05787 0.84698 0.08254 0.0
C68 C 0.03152 0.79791 0.14103 0.0
O69 O 0.10904 0.82545 0.14068 0.0
Mg70 Mg 0.49436 0.77155 0.43373 0.0
O71 O 0.49897 0.80793 0.46125 0.0
O72 O 0.46932 0.79723 0.48121 0.0
Mg73 Mg 0.44629 0.75704 0.46625 0.0
C74 C 0.48695 0.81342 0.47712 0.0
C75 C 0.53465 0.78121 0.40412 0.0
O76 O 0.51612 0.77057 0.38803 0.0
O77 O 0.50509 0.749 0.46106 0.0
O78 O 0.4723 0.73532 0.47566 0.0
O79 O 0.47322 0.78446 0.40713 0.0
O80 O 0.45737 0.76142 0.43124 0.0
C81 C 0.49281 0.73478 0.47297 0.0
C82 C 0.4546 0.77352 0.41492 0.0
O83 O 0.53199 0.78517 0.42592 0.0
Mg84 Mg 0.56961 0.32133 0.62718 0.0
O85 O 0.5651 0.28486 0.60067 0.0
O86 O 0.52889 0.27215 0.58148 0.0
Mg87 Mg 0.51158 0.30224 0.59296 0.0
C88 C 0.5485 0.2687 0.58629 0.0
C89 C 0.61486 0.32516 0.65992 0.0
O90 O 0.59937 0.32567 0.67418 0.0
O91 O 0.57308 0.34784 0.59927 0.0
O92 O 0.53586 0.33705 0.58275 0.0
O93 O 0.55353 0.29902 0.65295 0.0
O94 O 0.53299 0.31287 0.62853 0.0
C95 C 0.55665 0.35157 0.58592 0.0
C96 C 0.53358 0.3007 0.64511 0.0
O97 O 0.60905 0.32506 0.63791 0.0
Mg98 Mg 0.99142 0.26543 0.93467 0.0
O99 O 0.99737 0.30273 0.9618 0.0
O100 O 0.9665 0.29465 0.98047 0.0
Mg101 Mg 0.94192 0.25551 0.96637 0.0
C102 C 0.98517 0.30962 0.97682 0.0
C103 C 0.03387 0.2664 0.90834 0.0
O104 O 0.01747 0.24759 0.89544 0.0
O105 O 0.99995 0.24126 0.96198 0.0
O106 O 0.96672 0.23349 0.97661 0.0
O107 O 0.97168 0.27921 0.90743 0.0
O108 O 0.95445 0.25763 0.93193 0.0
C109 C 0.98611 0.22946 0.9745 0.0
C110 C 0.95271 0.26964 0.91534 0.0
O111 O 0.02919 0.27782 0.92701 0.0
Mg112 Mg 0.41989 0.06465 0.30371 0.0
O113 O 0.40156 0.0269 0.3091 0.0
O114 O 0.39072 0.02538 0.34472 0.0
Mg115 Mg 0.40239 0.06563 0.36289 0.0
C116 C 0.39204 0.01495 0.32394 0.0
C117 C 0.42267 0.02944 0.26092 0.0
O118 O 0.43149 0.02248 0.27921 0.0
O119 O 0.38482 0.07009 0.2991 0.0
O120 O 0.37515 0.07197 0.33569 0.0
O121 O 0.45347 0.06196 0.31784 0.0
O122 O 0.43036 0.07483 0.34053 0.0
C123 C 0.37082 0.07256 0.31366 0.0
C124 C 0.44876 0.06821 0.33887 0.0
O125 O 0.41647 0.04846 0.26439 0.0
Mg126 Mg 0.28521 0.19438 0.50796 0.0
O127 O 0.28309 0.21926 0.54299 0.0
O128 O 0.31885 0.24426 0.55652 0.0
Mg129 Mg 0.34238 0.23739 0.52871 0.0
C130 C 0.29758 0.23587 0.55902 0.0
C131 C 0.24079 0.15549 0.49097 0.0
O132 O 0.25791 0.14741 0.48511 0.0
O133 O 0.28636 0.22244 0.4838 0.0
O134 O 0.32263 0.24672 0.4964 0.0
O135 O 0.29451 0.1703 0.53023 0.0
O136 O 0.32099 0.19878 0.51845 0.0
C137 C 0.30352 0.24041 0.48201 0.0
C138 C 0.31615 0.18175 0.53053 0.0
O139 O 0.24565 0.17776 0.50058 0.0
Mg140 Mg 0.12081 0.05217 0.79101 0.0
O141 O 0.14896 0.08905 0.80406 0.0
O142 O 0.16905 0.08691 0.83781 0.0
Mg143 Mg 0.15101 0.0512 0.84893 0.0
C144 C 0.16583 0.09813 0.8212 0.0
C145 C 0.1042 0.04456 0.73627 0.0
O146 O 0.09583 0.02223 0.73942 0.0
O147 O 0.14896 0.03494 0.78194 0.0
O148 O 0.16396 0.03172 0.81783 0.0
O149 O 0.09428 0.06396 0.80999 0.0
O150 O 0.11872 0.04745 0.82595 0.0
C151 C 0.16264 0.02779 0.79519 0.0
C152 C 0.10207 0.05663 0.82818 0.0
O153 O 0.11576 0.06099 0.75394 0.0
Mg154 Mg 0.28502 0.9222 0.0279 0.0
O155 O 0.28343 0.90441 0.98876 0.0
O156 O 0.31681 0.89624 0.98518 0.0
Mg157 Mg 0.33753 0.90438 0.02205 0.0
C158 C 0.29699 0.89673 0.97623 0.0
C159 C 0.24213 0.93099 0.00332 0.0
O160 O 0.25661 0.935 0.98788 0.0
O161 O 0.27532 0.88479 0.03737 0.0
O162 O 0.30809 0.87559 0.03282 0.0
O163 O 0.3044 0.95821 0.02117 0.0
O164 O 0.32106 0.93221 0.03259 0.0
C165 C 0.28738 0.87026 0.03764 0.0
C166 C 0.32308 0.95241 0.02571 0.0
O167 O 0.24773 0.92274 0.02132 0.0
Mg168 Mg 0.30258 0.39501 0.05037 0.0
O169 O 0.29642 0.36864 0.01373 0.0
O170 O 0.32728 0.35564 0.01145 0.0
Mg171 Mg 0.35142 0.37151 0.04749 0.0
C172 C 0.3078 0.35669 0.00207 0.0
C173 C 0.26248 0.41593 0.05418 0.0
O174 O 0.28059 0.43277 0.06716 0.0
O175 O 0.29443 0.3654 0.07283 0.0
O176 O 0.3255 0.35256 0.07134 0.0
O177 O 0.32034 0.42455 0.0333 0.0
O178 O 0.33917 0.4039 0.05165 0.0
C179 C 0.30641 0.3522 0.07914 0.0
C180 C 0.33969 0.42042 0.03916 0.0
O181 O 0.26502 0.3959 0.04474 0.0
Mg182 Mg 0.78767 0.16094 0.03957 0.0
O183 O 0.80498 0.18482 0.07557 0.0
O184 O 0.8425 0.2023 0.07403 0.0
Mg185 Mg 0.84911 0.18752 0.03693 0.0
C186 C 0.82502 0.19915 0.08512 0.0
C187 C 0.74636 0.15281 0.06831 0.0
O188 O 0.76216 0.15034 0.08408 0.0
O189 O 0.78985 0.19496 0.02585 0.0
O190 O 0.82729 0.21006 0.02228 0.0
O191 O 0.79455 0.12939 0.05074 0.0
O192 O 0.81861 0.155 0.0333 0.0
C193 C 0.80645 0.21096 0.02027 0.0
C194 C 0.81432 0.13629 0.0432 0.0
O195 O 0.75199 0.15845 0.04888 0.0
Mg196 Mg 0.13556 0.52436 0.27732 0.0
O197 O 0.16149 0.56265 0.28113 0.0
O198 O 0.17019 0.58033 0.31979 0.0
Mg199 Mg 0.15291 0.5522 0.34066 0.0
C200 C 0.17175 0.58086 0.29794 0.0
C201 C 0.13721 0.52953 0.22492 0.0
O202 O 0.1426 0.55237 0.23542 0.0
O203 O 0.16592 0.51127 0.28841 0.0
O204 O 0.17536 0.52917 0.32679 0.0
O205 O 0.10654 0.53979 0.27578 0.0
O206 O 0.12599 0.53715 0.30927 0.0
C207 C 0.17868 0.5158 0.30856 0.0
C208 C 0.11121 0.54556 0.2987 0.0
O209 O 0.13621 0.51361 0.23765 0.0
Mg210 Mg 0.79964 0.89962 0.55063 0.0
O211 O 0.79661 0.87391 0.51468 0.0
O212 O 0.82774 0.86112 0.51572 0.0
Mg213 Mg 0.85059 0.87918 0.55267 0.0
C214 C 0.80872 0.86177 0.50469 0.0
C215 C 0.75948 0.92001 0.55044 0.0
O216 O 0.77763 0.9371 0.56307 0.0
O217 O 0.79056 0.86886 0.57181 0.0
O218 O 0.82461 0.86165 0.57725 0.0
O219 O 0.81836 0.93083 0.53567 0.0
O220 O 0.83645 0.91003 0.55451 0.0
C221 C 0.80397 0.85896 0.58196 0.0
C222 C 0.83767 0.92738 0.54302 0.0
O223 O 0.76186 0.8995 0.54241 0.0
Mg224 Mg 0.95505 0.05045 0.27427 0.0
O225 O 0.92513 0.01506 0.27261 0.0
O226 O 0.91353 0.01788 0.3084 0.0
Mg227 Mg 0.93369 0.05485 0.33161 0.0
C228 C 0.91225 0.00626 0.28733 0.0
C229 C 0.97442 0.04742 0.2266 0.0
O230 O 0.99343 0.05498 0.24231 0.0
O231 O 0.92853 0.07077 0.27018 0.0
O232 O 0.91732 0.07403 0.30603 0.0
O233 O 0.98074 0.03407 0.28997 0.0
O234 O 0.96216 0.05498 0.31109 0.0
C235 C 0.91655 0.07825 0.28493 0.0
C236 C 0.97611 0.04217 0.31056 0.0
O237 O 0.95485 0.04271 0.23395 0.0
Mg238 Mg 0.28075 0.64259 0.53561 0.0
O239 O 0.29594 0.67588 0.56519 0.0
O240 O 0.32421 0.70222 0.55225 0.0
Mg241 Mg 0.32972 0.68354 0.51608 0.0
C242 C 0.3114 0.69646 0.568 0.0
C243 C 0.23521 0.64299 0.5572 0.0
O244 O 0.24053 0.66516 0.5532 0.0
O245 O 0.26438 0.66419 0.51408 0.0
O246 O 0.2947 0.68558 0.49935 0.0
O247 O 0.30448 0.62409 0.54993 0.0
O248 O 0.31239 0.64793 0.52385 0.0
C249 C 0.27302 0.67861 0.5007 0.0
C250 C 0.31883 0.63438 0.53675 0.0
O251 O 0.24865 0.6304 0.55273 0.0
Mg252 Mg 0.45053 0.54971 0.77272 0.0
O253 O 0.41975 0.51525 0.7714 0.0
O254 O 0.40877 0.51838 0.80747 0.0
Mg255 Mg 0.42999 0.55518 0.83041 0.0
C256 C 0.40692 0.50675 0.78629 0.0
C257 C 0.46933 0.54818 0.72525 0.0
O258 O 0.48801 0.55795 0.74131 0.0
O259 O 0.42524 0.57143 0.76905 0.0
O260 O 0.41406 0.57481 0.8049 0.0
O261 O 0.4751 0.53192 0.78806 0.0
O262 O 0.45812 0.55442 0.80959 0.0
C263 C 0.41348 0.5792 0.78386 0.0
C264 C 0.47122 0.5407 0.80878 0.0
O265 O 0.4497 0.54147 0.73228 0.0
Mg266 Mg 0.6643 0.02262 0.7527 0.0
O267 O 0.68139 0.06349 0.76893 0.0
O268 O 0.68564 0.0666 0.80842 0.0
Mg269 Mg 0.67356 0.02915 0.81734 0.0
C270 C 0.68754 0.07618 0.79005 0.0
C271 C 0.66204 0.04447 0.70836 0.0
O272 O 0.66068 0.06218 0.72466 0.0
O273 O 0.6992 0.01675 0.76028 0.0
O274 O 0.70298 0.01942 0.79966 0.0
O275 O 0.62972 0.02682 0.75412 0.0
O276 O 0.64979 0.01807 0.78362 0.0
C277 C 0.71045 0.01595 0.77982 0.0
C278 C 0.63207 0.02418 0.77596 0.0
O279 O 0.6684 0.02745 0.71498 0.0
Mg280 Mg 0.78888 0.69424 0.01214 0.0
O281 O 0.78786 0.71819 0.04779 0.0
O282 O 0.82171 0.74765 0.05772 0.0
Mg283 Mg 0.84386 0.74221 0.02765 0.0
C284 C 0.80166 0.73673 0.06229 0.0
C285 C 0.74377 0.65382 0.99535 0.0
O286 O 0.75974 0.64619 0.98577 0.0
O287 O 0.78474 0.7218 0.9893 0.0
O288 O 0.82051 0.74809 0.99553 0.0
O289 O 0.80378 0.67137 0.03195 0.0
O290 O 0.82525 0.70271 0.01927 0.0
C291 C 0.79981 0.73967 0.98404 0.0
C292 C 0.82421 0.68512 0.03037 0.0
O293 O 0.74977 0.67516 0.00781 0.0
Mg294 Mg 0.91647 0.56177 0.80477 0.0
O295 O 0.9026 0.52425 0.81305 0.0
O296 O 0.8894 0.52506 0.84781 0.0
Mg297 Mg 0.89773 0.56572 0.86334 0.0
C298 C 0.89328 0.51352 0.82874 0.0
C299 C 0.92377 0.52628 0.76487 0.0
O300 O 0.93405 0.5224 0.78427 0.0
O301 O 0.87976 0.56296 0.79794 0.0
O302 O 0.86997 0.56857 0.83434 0.0
O303 O 0.95152 0.56479 0.82063 0.0
O304 O 0.92606 0.57541 0.84146 0.0
C305 C 0.86548 0.56651 0.81181 0.0
C306 C 0.94602 0.57177 0.8411 0.0
O307 O 0.91481 0.54343 0.76642 0.0
Mg308 Mg 0.77415 0.4257 0.52661 0.0
O309 O 0.77831 0.40235 0.49204 0.0
O310 O 0.81302 0.3967 0.49953 0.0
Mg311 Mg 0.83101 0.41662 0.53673 0.0
C312 C 0.7941 0.3933 0.48582 0.0
C313 C 0.73043 0.42728 0.49642 0.0
O314 O 0.74569 0.43263 0.48192 0.0
O315 O 0.76701 0.39262 0.5441 0.0
O316 O 0.80273 0.38931 0.55035 0.0
O317 O 0.7914 0.45932 0.51372 0.0
O318 O 0.8096 0.44051 0.53536 0.0
C319 C 0.78108 0.38211 0.5518 0.0
C320 C 0.81068 0.45743 0.52349 0.0
O321 O 0.73603 0.41946 0.51468 0.0
Mg322 Mg 0.61737 0.55275 0.2895 0.0
O323 O 0.64843 0.58779 0.30107 0.0
O324 O 0.66843 0.58493 0.33453 0.0
Mg325 Mg 0.64958 0.54952 0.34555 0.0
C326 C 0.66567 0.59623 0.31787 0.0
C327 C 0.60569 0.54645 0.23371 0.0
O328 O 0.60587 0.52435 0.2348 0.0
O329 O 0.6422 0.53171 0.27746 0.0
O330 O 0.65964 0.52968 0.31277 0.0
O331 O 0.59539 0.569 0.31209 0.0
O332 O 0.6169 0.54764 0.32454 0.0
C333 C 0.65658 0.52475 0.29005 0.0
C334 C 0.60297 0.55995 0.32909 0.0
O335 O 0.61048 0.56227 0.25287 0.0
Dy336 Dy 0.05996 0.05776 0.03694 0.0
Dy337 Dy 0.00784 0.0244 0.0123 0.0
C338 C 0.04752 0.03643 0.98066 0.0
O339 O 0.04268 0.08655 0.03222 0.0
O340 O 0.01009 0.06225 0.00628 0.0
O341 O 0.09403 0.0813 0.03485 0.0
O342 O 0.08677 0.06992 0.06776 0.0
O343 O 1.00367 0.04564 0.04613 0.0
O344 O 0.03919 0.05099 0.0667 0.0
O345 O 0.02261 0.99883 0.02975 0.0
O346 O 0.06104 0.01903 0.03124 0.0
O347 O 0.97465 0.99975 0.01526 0.0
O348 O 0.98088 0.01067 0.98174 0.0
C349 C 0.02392 0.08398 0.01709 0.0
O350 O 0.05958 0.05461 0.9977 0.0
O351 O 0.02972 0.01938 0.9844 0.0
C352 C 0.12194 0.06783 0.05455 0.0
C353 C 0.15064 0.03944 0.04134 0.0
C354 C 0.13465 0.03253 0.05687 0.0
C355 C 0.12041 0.04654 0.06338 0.0
C356 C 0.1394 0.0759 0.04086 0.0
C357 C 0.1536 0.06181 0.03427 0.0
C358 C 0.10286 0.07867 0.05536 0.0
C359 C 0.01725 0.04958 0.0663 0.0
C360 C 0.04453 0.99939 0.03305 0.0
C361 C 0.94564 0.011 0.99503 0.0
C362 C 0.91181 0.03328 0.00647 0.0
C363 C 0.9327 0.0466 0.00011 0.0
C364 C 0.94934 0.03557 0.99437 0.0
C365 C 0.92443 0.99727 0.00027 0.0
C366 C 0.90754 0.0083 0.00582 0.0
C367 C 0.96531 1.00129 0.99446 0.0
H368 H 0.13193 0.01541 0.06265 0.0
H369 H 0.10712 0.03972 0.07395 0.0
H370 H 0.14099 0.09226 0.03389 0.0
H371 H 0.16619 0.0679 0.02276 0.0
H372 H 0.93684 0.06592 0.0008 0.0
H373 H 0.96563 0.04668 0.99062 0.0
H374 H 0.92135 0.97835 0.00111 0.0
H375 H 0.89147 0.99743 0.01026 0.0
Dy376 Dy 0.29252 0.78538 0.2661 0.0
Dy377 Dy 0.26806 0.80208 0.31074 0.0
C378 C 0.30617 0.84106 0.29158 0.0
O379 O 0.31938 0.79056 0.29811 0.0
O380 O 0.29481 0.78667 0.32616 0.0
O381 O 0.31743 0.79221 0.24164 0.0
O382 O 0.29187 0.75691 0.23716 0.0
O383 O 0.2489 0.76292 0.2957 0.0
O384 O 0.27894 0.75269 0.28106 0.0
O385 O 0.25501 0.81625 0.28007 0.0
O386 O 0.2569 0.78591 0.25129 0.0
O387 O 0.23644 0.80601 0.32223 0.0
O388 O 0.26777 0.81588 0.34779 0.0
C389 C 0.31516 0.78736 0.31961 0.0
O390 O 0.30192 0.82554 0.27134 0.0
O391 O 0.29766 0.83483 0.31052 0.0
C392 C 0.29981 0.77205 0.20274 0.0
C393 C 0.28609 0.77643 0.15604 0.0
C394 C 0.27061 0.77529 0.17268 0.0
C395 C 0.27743 0.77317 0.19581 0.0
C396 C 0.31513 0.77257 0.1861 0.0
C397 C 0.30832 0.77472 0.16288 0.0
C398 C 0.30727 0.77126 0.22751 0.0
C399 C 0.25855 0.74654 0.28779 0.0
C400 C 0.24828 0.80348 0.25834 0.0
C401 C 0.23288 0.79568 0.35968 0.0
C402 C 0.21812 0.76373 0.39036 0.0
C403 C 0.21536 0.7549 0.36581 0.0
C404 C 0.2227 0.77075 0.35058 0.0
C405 C 0.23389 0.80477 0.3839 0.0
C406 C 0.22645 0.78886 0.39919 0.0
C407 C 0.24529 0.8114 0.34468 0.0
H408 H 0.25333 0.77637 0.1679 0.0
H409 H 0.26528 0.77273 0.20836 0.0
H410 H 0.33248 0.77182 0.19118 0.0
H411 H 0.32077 0.77595 0.15056 0.0
H412 H 0.20901 0.73559 0.35865 0.0
H413 H 0.22171 0.76332 0.33193 0.0
H414 H 0.24179 0.82394 0.39122 0.0
H415 H 0.22902 0.79603 0.41812 0.0
Dy416 Dy 0.50439 0.0417 0.54374 0.0
Dy417 Dy 0.55691 0.0462 0.53082 0.0
C418 C 0.51625 0.04443 0.49105 0.0
O419 O 0.50169 0.00298 0.52838 0.0
O420 O 0.54048 0.00598 0.52982 0.0
O421 O 0.467 0.03146 0.5355 0.0
O422 O 0.48442 0.0493 0.5713 0.0
O423 O 0.55633 0.06021 0.56871 0.0
O424 O 0.52497 0.0304 0.57153 0.0
O425 O 0.55495 0.08434 0.53193 0.0
O426 O 0.52344 0.08196 0.55179 0.0
O427 O 0.59119 0.04867 0.54673 0.0
O428 O 0.58437 0.04816 0.50907 0.0
C429 C 0.51837 0.9928 0.52653 0.0
O430 O 0.50458 0.05073 0.50763 0.0
O431 O 0.53459 0.03756 0.49582 0.0
C432 C 0.45128 0.05959 0.55748 0.0
C433 C 0.42463 0.09209 0.5605 0.0
C434 C 0.42817 0.08098 0.53825 0.0
C435 C 0.44136 0.06493 0.53675 0.0
C436 C 0.44804 0.07094 0.57966 0.0
C437 C 0.43502 0.08707 0.58117 0.0
C438 C 0.465 0.04236 0.55648 0.0
C439 C 0.54565 0.04485 0.58087 0.0
C440 C 0.5413 0.09477 0.54322 0.0
C441 C 0.61192 0.02957 0.52238 0.0
C442 C 0.63831 0.99701 0.52131 0.0
C443 C 0.64881 0.02159 0.52077 0.0
C444 C 0.63575 0.03769 0.52136 0.0
C445 C 0.60112 0.00489 0.52198 0.0
C446 C 0.61418 0.98873 0.52138 0.0
C447 C 0.59925 0.04739 0.52661 0.0
H448 H 0.42025 0.08415 0.52193 0.0
H449 H 0.44356 0.05656 0.51933 0.0
H450 H 0.45555 0.06727 0.59593 0.0
H451 H 0.43306 0.09557 0.59863 0.0
H452 H 0.66725 0.02852 0.52027 0.0
H453 H 0.64442 0.05667 0.52176 0.0
H454 H 0.58275 0.99829 0.52297 0.0
H455 H 0.60553 0.97 0.52197 0.0
Dy456 Dy 0.30992 0.29139 0.78052 0.0
Dy457 Dy 0.25766 0.29935 0.77337 0.0
C458 C 0.30347 0.34116 0.77287 0.0
O459 O 0.30235 0.297 0.81827 0.0
O460 O 0.27225 0.31294 0.81203 0.0
O461 O 0.3474 0.30711 0.78712 0.0
O462 O 0.33192 0.26826 0.77821 0.0
O463 O 0.2516 0.26552 0.78763 0.0
O464 O 0.28485 0.25543 0.78175 0.0
O465 O 0.26048 0.27989 0.7375 0.0
O466 O 0.30014 0.28856 0.74115 0.0
O467 O 0.22066 0.28669 0.76126 0.0
O468 O 0.23727 0.32384 0.77973 0.0
C469 C 0.28736 0.30751 0.82637 0.0
O470 O 0.31404 0.33095 0.787 0.0
O471 O 0.28272 0.32937 0.76097 0.0
C472 C 0.36781 0.28435 0.76441 0.0
C473 C 0.40201 0.28018 0.73508 0.0
C474 C 0.39913 0.30288 0.74331 0.0
C475 C 0.3823 0.30495 0.75785 0.0
C476 C 0.37034 0.26163 0.75571 0.0
C477 C 0.38709 0.25956 0.74118 0.0
C478 C 0.35104 0.28629 0.78127 0.0
C479 C 0.26366 0.25028 0.78708 0.0
C480 C 0.27949 0.28088 0.728 0.0
C481 C 0.19981 0.30429 0.7881 0.0
C482 C 0.1669 0.30108 0.82008 0.0
C483 C 0.17394 0.28089 0.81155 0.0
C484 C 0.1903 0.28249 0.79586 0.0
C485 C 0.19259 0.32435 0.79639 0.0
C486 C 0.17641 0.32281 0.81224 0.0
C487 C 0.21762 0.30665 0.77197 0.0
H488 H 0.41042 0.3192 0.73922 0.0
H489 H 0.38099 0.32278 0.76433 0.0
H490 H 0.35956 0.2454 0.76045 0.0
H491 H 0.38848 0.24173 0.7349 0.0
H492 H 0.16715 0.26395 0.8174 0.0
H493 H 0.19561 0.26671 0.78999 0.0
H494 H 0.1996 0.34134 0.7907 0.0
H495 H 0.17118 0.33863 0.81821 0.0
Dy496 Dy 0.04533 0.01497 0.52094 0.0
Dy497 Dy 0.03759 0.06981 0.52453 0.0
C498 C 0.99686 0.02338 0.53106 0.0
O499 O 0.04101 0.01994 0.48321 0.0
O500 O 0.02242 0.04906 0.48781 0.0
O501 O 0.03525 0.97612 0.50805 0.0
O502 O 0.06691 0.99444 0.53285 0.0
O503 O 0.06892 0.07219 0.50698 0.0
O504 O 0.07987 0.04156 0.5201 0.0
O505 O 0.05684 0.06967 0.55966 0.0
O506 O 0.04442 0.02887 0.559 0.0
O507 O 0.05124 0.1088 0.53563 0.0
O508 O 0.01607 0.09221 0.51737 0.0
C509 C 0.02883 0.03261 0.47431 0.0
O510 O 0.00736 0.00866 0.5209 0.0
O511 O 0.00712 0.04691 0.53791 0.0
C512 C 0.04722 0.95366 0.53541 0.0
C513 C 0.03993 0.91342 0.55843 0.0
C514 C 0.02431 0.91306 0.53856 0.0
C515 C 0.02796 0.93285 0.52715 0.0
C516 C 0.06249 0.95434 0.55569 0.0
C517 C 0.05884 0.93452 0.5671 0.0
C518 C 0.0524 0.97361 0.52182 0.0
C519 C 0.08442 0.06121 0.51095 0.0
C520 C 0.05409 0.05127 0.57056 0.0
C521 C 0.03672 0.13056 0.51013 0.0
C522 C 0.04454 0.166 0.48123 0.0
C523 C 0.04767 0.14328 0.47356 0.0
C524 C 0.04378 0.12573 0.48787 0.0
C525 C 0.03362 0.15312 0.51786 0.0
C526 C 0.03747 0.17064 0.5036 0.0
C527 C 0.03277 0.11245 0.52557 0.0
H528 H 0.00931 0.89732 0.53161 0.0
H529 H 0.01591 0.93161 0.51153 0.0
H530 H 0.07765 0.96996 0.56244 0.0
H531 H 0.07134 0.93542 0.5822 0.0
H532 H 0.05281 0.13891 0.45636 0.0
H533 H 0.04625 0.10839 0.48155 0.0
H534 H 0.02829 0.15725 0.53503 0.0
H535 H 0.03519 0.18799 0.51028 0.0
Dy536 Dy 0.29583 0.83467 0.75813 0.0
Dy537 Dy 0.28405 0.78008 0.77041 0.0
C538 C 0.28456 0.825 0.80884 0.0
O539 O 0.33025 0.82777 0.7606 0.0
O540 O 0.32291 0.79816 0.78292 0.0
O541 O 0.31236 0.87344 0.76824 0.0
O542 O 0.29142 0.85779 0.73373 0.0
O543 O 0.29755 0.77677 0.73602 0.0
O544 O 0.29186 0.80996 0.72331 0.0
O545 O 0.24906 0.78181 0.75406 0.0
O546 O 0.25757 0.82316 0.75986 0.0
O547 O 0.26817 0.74133 0.76022 0.0
O548 O 0.28736 0.7573 0.79562 0.0
C549 C 0.3377 0.8146 0.77407 0.0
O550 O 0.29905 0.83875 0.79762 0.0
O551 O 0.27299 0.80245 0.79916 0.0
C552 C 0.28982 0.89548 0.75234 0.0
C553 C 0.26304 0.92745 0.75542 0.0
C554 C 0.25867 0.90825 0.76783 0.0
C555 C 0.27191 0.89236 0.76625 0.0
C556 C 0.29447 0.91472 0.74017 0.0
C557 C 0.28118 0.93061 0.74169 0.0
C558 C 0.30246 0.87767 0.74901 0.0
C559 C 0.29628 0.78926 0.71935 0.0
C560 C 0.24228 0.80133 0.7547 0.0
C561 C 0.29087 0.71954 0.77712 0.0
C562 C 0.31719 0.68692 0.77145 0.0
C563 C 0.30046 0.68686 0.75278 0.0
C564 C 0.28743 0.70292 0.75559 0.0
C565 C 0.30725 0.71927 0.79595 0.0
C566 C 0.3203 0.70321 0.79312 0.0
C567 C 0.27777 0.73733 0.77979 0.0
H568 H 0.24463 0.90513 0.77829 0.0
H569 H 0.26789 0.87735 0.77549 0.0
H570 H 0.30813 0.91724 0.72921 0.0
H571 H 0.2851 0.94535 0.73212 0.0
H572 H 0.29733 0.67428 0.73599 0.0
H573 H 0.27477 0.70241 0.74079 0.0
H574 H 0.31024 0.7317 0.81282 0.0
H575 H 0.33318 0.70392 0.8078 0.0
Dy576 Dy 0.53318 0.06501 0.00828 0.0
Dy577 Dy 0.53326 0.03034 0.04666 0.0
C578 C 0.54425 0.0147 0.99569 0.0
O579 O 0.49714 0.05404 0.01624 0.0
O580 O 0.49832 0.01788 0.0244 0.0
O581 O 0.51632 0.06977 0.9756 0.0
O582 O 0.54803 0.09699 0.99419 0.0
O583 O 0.52046 0.05969 0.06521 0.0
O584 O 0.53142 0.08874 0.04242 0.0
O585 O 0.56744 0.05862 0.05687 0.0
O586 O 0.57068 0.07089 0.0212 0.0
O587 O 0.53991 0.02298 0.08171 0.0
O588 O 0.52376 0.99339 0.05183 0.0
C589 C 0.4865 0.03208 0.01873 0.0
O590 O 0.5315 0.0277 0.98861 0.0
O591 O 0.55236 0.01813 0.0183 0.0
C592 C 0.54253 0.08835 0.952 0.0
C593 C 0.5587 0.08014 0.90826 0.0
C594 C 0.53512 0.07774 0.90889 0.0
C595 C 0.52715 0.08194 0.93056 0.0
C596 C 0.56626 0.09173 0.9514 0.0
C597 C 0.57428 0.08779 0.92971 0.0
C598 C 0.53313 0.08906 0.97458 0.0
C599 C 0.52416 0.08211 0.06186 0.0
C600 C 0.57971 0.07062 0.04278 0.0
C601 C 0.50878 0.9916 0.08748 0.0
C602 C 0.47331 0.98183 0.11557 0.0
C603 C 0.4712 0.99351 0.09645 0.0
C604 C 0.48879 0.99837 0.08254 0.0
C605 C 0.51056 0.9789 0.10575 0.0
C606 C 0.49286 0.97396 0.11971 0.0
C607 C 0.52836 1.00002 0.07491 0.0
H608 H 0.52261 0.07163 0.89274 0.0
H609 H 0.50877 0.07918 0.93063 0.0
H610 H 0.57856 0.09671 0.96766 0.0
H611 H 0.59263 0.09029 0.92979 0.0
H612 H 0.45637 0.99976 0.09283 0.0
H613 H 0.48725 0.00835 0.06855 0.0
H614 H 0.52598 0.97373 0.10983 0.0
H615 H 0.49516 0.96528 0.13457 0.0
Dy616 Dy 0.26818 0.26118 0.26805 0.0
Dy617 Dy 0.297 0.31738 0.28429 0.0
C618 C 0.2927 0.28299 0.32231 0.0
O619 O 0.24138 0.28091 0.26615 0.0
O620 O 0.26124 0.31369 0.29488 0.0
O621 O 0.2405 0.23055 0.27295 0.0
O622 O 0.25988 0.22676 0.24388 0.0
O623 O 0.28012 0.31369 0.24672 0.0
O624 O 0.2771 0.274 0.23453 0.0
O625 O 0.32311 0.30028 0.26953 0.0
O626 O 0.30562 0.26135 0.2737 0.0
O627 O 0.31691 0.35124 0.27614 0.0
O628 O 0.30989 0.34952 0.31192 0.0
C629 C 0.24139 0.29938 0.28243 0.0
O630 O 0.27443 0.26773 0.30807 0.0
O631 O 0.30678 0.30071 0.31455 0.0
C632 C 0.24914 0.1942 0.26316 0.0
C633 C 0.26086 0.15358 0.27325 0.0
C634 C 0.27374 0.17704 0.28569 0.0
C635 C 0.26792 0.19716 0.2807 0.0
C636 C 0.23564 0.1709 0.25132 0.0
C637 C 0.24143 0.15067 0.25636 0.0
C638 C 0.2449 0.21557 0.25616 0.0
C639 C 0.27849 0.29536 0.22957 0.0
C640 C 0.3238 0.27803 0.26951 0.0
C641 C 0.30765 0.38372 0.29751 0.0
C642 C 0.28749 0.42136 0.30163 0.0
C643 C 0.27414 0.39753 0.29074 0.0
C644 C 0.28414 0.37891 0.28868 0.0
C645 C 0.32125 0.40745 0.30789 0.0
C646 C 0.31124 0.4262 0.30991 0.0
C647 C 0.31727 0.36357 0.29715 0.0
H648 H 0.28907 0.18003 0.29846 0.0
H649 H 0.27859 0.21511 0.2899 0.0
H650 H 0.22108 0.1684 0.23773 0.0
H651 H 0.23108 0.13283 0.24663 0.0
H652 H 0.25573 0.39306 0.28458 0.0
H653 H 0.27337 0.36059 0.28075 0.0
H654 H 0.33942 0.41139 0.31482 0.0
H655 H 0.32202 0.4444 0.31817 0.0
Dy656 Dy 0.54501 0.51373 0.01776 0.0
Dy657 Dy 0.53746 0.56849 0.02139 0.0
C658 C 0.49665 0.52101 0.0256 0.0
O659 O 0.5279 0.51404 0.98153 0.0
O660 O 0.53813 0.55527 0.98317 0.0
O661 O 0.53109 0.47449 0.00949 0.0
O662 O 0.56755 0.49204 0.02325 0.0
O663 O 0.57536 0.57395 0.02158 0.0
O664 O 0.57425 0.5361 0.00248 0.0
O665 O 0.54008 0.56233 0.05879 0.0
O666 O 0.56032 0.53473 0.05441 0.0
O667 O 0.5493 0.6075 0.03377 0.0
O668 O 0.51601 0.59008 0.01164 0.0
C669 C 0.52985 0.53283 0.97122 0.0
O670 O 0.5123 0.51141 0.03305 0.0
O671 O 0.50245 0.54075 0.01667 0.0
C672 C 0.54939 0.45467 0.03444 0.0
C673 C 0.54794 0.42135 0.06522 0.0
C674 C 0.55807 0.44644 0.07386 0.0
C675 C 0.55873 0.46293 0.05867 0.0
C676 C 0.53908 0.4297 0.02583 0.0
C677 C 0.5383 0.41322 0.04103 0.0
C678 C 0.55063 0.47162 0.01781 0.0
C679 C 0.58506 0.55942 0.00972 0.0
C680 C 0.55296 0.5504 0.06785 0.0
C681 C 0.53636 0.62957 0.00723 0.0
C682 C 0.54396 0.66578 0.97918 0.0
C683 C 0.53553 0.66931 0.00094 0.0
C684 C 0.53179 0.65141 0.01479 0.0
C685 C 0.54487 0.6259 0.9856 0.0
C686 C 0.54867 0.64384 0.97173 0.0
C687 C 0.53148 0.61062 0.02175 0.0
H688 H 0.56537 0.45338 0.09244 0.0
H689 H 0.56666 0.4821 0.06586 0.0
H690 H 0.5318 0.4229 0.00722 0.0
H691 H 0.53056 0.39405 0.03369 0.0
H692 H 0.532 0.68604 0.00743 0.0
H693 H 0.52521 0.6546 0.03141 0.0
H694 H 0.54837 0.60909 0.97935 0.0
H695 H 0.55489 0.64032 0.95496 0.0
Dy696 Dy 0.79119 0.33044 0.2705 0.0
Dy697 Dy 0.77999 0.27362 0.27573 0.0
C698 C 0.78221 0.31479 0.31992 0.0
O699 O 0.82563 0.32866 0.28672 0.0
O700 O 0.81935 0.28732 0.27897 0.0
O701 O 0.80085 0.36898 0.28489 0.0
O702 O 0.79227 0.35543 0.24682 0.0
O703 O 0.77912 0.27615 0.23761 0.0
O704 O 0.80681 0.31242 0.24239 0.0
O705 O 0.74486 0.28004 0.27405 0.0
O706 O 0.75407 0.31119 0.2539 0.0
O707 O 0.76879 0.23606 0.2577 0.0
O708 O 0.77772 0.24524 0.29593 0.0
C709 C 0.83348 0.30983 0.28558 0.0
O710 O 0.7779 0.32846 0.30527 0.0
O711 O 0.78774 0.29523 0.31243 0.0
C712 C 0.78137 0.38942 0.26223 0.0
C713 C 0.75255 0.41893 0.25812 0.0
C714 C 0.74319 0.39356 0.25205 0.0
C715 C 0.75746 0.37893 0.25422 0.0
C716 C 0.79078 0.4147 0.26828 0.0
C717 C 0.77649 0.42936 0.26633 0.0
C718 C 0.7966 0.37417 0.26407 0.0
C719 C 0.7961 0.29071 0.22986 0.0
C720 C 0.7384 0.29438 0.26124 0.0
C721 C 0.78776 0.212 0.27543 0.0
C722 C 0.81597 0.18135 0.27048 0.0
C723 C 0.79534 0.17626 0.25461 0.0
C724 C 0.78134 0.19137 0.25713 0.0
C725 C 0.80838 0.21712 0.29137 0.0
C726 C 0.82228 0.20186 0.28898 0.0
C727 C 0.77317 0.22826 0.27697 0.0
H728 H 0.72476 0.385 0.24605 0.0
H729 H 0.74983 0.35943 0.24965 0.0
H730 H 0.8092 0.4231 0.27449 0.0
H731 H 0.78418 0.44886 0.27105 0.0
H732 H 0.78991 0.16046 0.24033 0.0
H733 H 0.76555 0.18705 0.24462 0.0
H734 H 0.81394 0.23301 0.30553 0.0
H735 H 0.83821 0.20639 0.30132 0.0
Dy736 Dy 0.02229 0.56317 0.50689 0.0
Dy737 Dy 0.02232 0.52503 0.54221 0.0
C738 C 0.02891 0.51182 0.48762 0.0
O739 O 0.98624 0.53764 0.50119 0.0
O740 O 0.98664 0.52785 0.5379 0.0
O741 O 0.01022 0.57133 0.47377 0.0
O742 O 0.03206 0.60022 0.502 0.0
O743 O 0.0275 0.56107 0.56618 0.0
O744 O 0.00993 0.57793 0.53978 0.0
O745 O 0.05894 0.53843 0.53664 0.0
O746 O 0.05824 0.5746 0.52705 0.0
O747 O 0.03268 0.5156 0.57545 0.0
O748 O 0.01055 0.48793 0.54642 0.0
C749 C 0.97529 0.52944 0.51806 0.0
O750 O 0.036 0.53507 0.48684 0.0
O751 O 0.01796 0.50448 0.5049 0.0
C752 C 0.03489 0.60498 0.4627 0.0
C753 C 0.05628 0.61958 0.42428 0.0
C754 C 0.06488 0.6054 0.4381 0.0
C755 C 0.05426 0.59818 0.45718 0.0
C756 C 0.02714 0.62036 0.45008 0.0
C757 C 0.0378 0.62769 0.43098 0.0
C758 C 0.02152 0.59441 0.48013 0.0
C759 C 0.01802 0.57771 0.56168 0.0
C760 C 0.06959 0.56068 0.53472 0.0
C761 C 1.00243 0.48519 0.5849 0.0
C762 C 0.97193 0.47516 0.61809 0.0
C763 C 0.9647 0.48167 0.59695 0.0
C764 C 0.97984 0.48663 0.58051 0.0
C765 C 0.00941 0.47768 0.60545 0.0
C766 C 0.99422 0.47261 0.62195 0.0
C767 C 0.01909 0.49329 0.56894 0.0
H768 H 0.07875 0.59838 0.43322 0.0
H769 H 0.06038 0.58625 0.46682 0.0
H770 H 0.0122 0.62581 0.45432 0.0
H771 H 0.0309 0.63869 0.42075 0.0
H772 H 0.94761 0.48366 0.59352 0.0
H773 H 0.97416 0.49229 0.56467 0.0
H774 H 0.02683 0.47657 0.60913 0.0
H775 H 1.00034 0.46795 0.63828 0.0
Dy776 Dy 0.81456 0.79053 0.28437 0.0
Dy777 Dy 0.76285 0.79972 0.27676 0.0
C778 C 0.80938 0.84061 0.27543 0.0
O779 O 0.80667 0.79639 0.32201 0.0
O780 O 0.77745 0.81345 0.31539 0.0
O781 O 0.852 0.80428 0.29401 0.0
O782 O 0.83534 0.76648 0.27849 0.0
O783 O 0.75563 0.76563 0.29074 0.0
O784 O 0.78881 0.75505 0.28584 0.0
O785 O 0.76573 0.77977 0.24119 0.0
O786 O 0.80537 0.78876 0.24509 0.0
O787 O 0.72584 0.78764 0.26459 0.0
O788 O 0.74303 0.8248 0.28244 0.0
C789 C 0.79207 0.80755 0.3299 0.0
O790 O 0.82004 0.83031 0.28939 0.0
O791 O 0.78832 0.8292 0.26406 0.0
C792 C 0.87182 0.78464 0.26799 0.0
C793 C 0.90271 0.78339 0.23431 0.0
C794 C 0.88429 0.7931 0.23053 0.0
C795 C 0.86901 0.79367 0.24716 0.0
C796 C 0.89023 0.7752 0.272 0.0
C797 C 0.90552 0.77459 0.25538 0.0
C798 C 0.855 0.78379 0.28494 0.0
C799 C 0.7674 0.75012 0.29052 0.0
C800 C 0.7848 0.78092 0.2318 0.0
C801 C 0.70552 0.80618 0.29058 0.0
C802 C 0.67212 0.80352 0.32187 0.0
C803 C 0.69177 0.79609 0.32706 0.0
C804 C 0.70824 0.79733 0.31154 0.0
C805 C 0.68595 0.81351 0.28523 0.0
C806 C 0.66938 0.81213 0.30067 0.0
C807 C 0.72317 0.80804 0.27451 0.0
H808 H 0.88168 0.80038 0.21475 0.0
H809 H 0.85486 0.80097 0.24365 0.0
H810 H 0.89258 0.76793 0.28785 0.0
H811 H 0.91922 0.76668 0.25882 0.0
H812 H 0.69431 0.78904 0.34301 0.0
H813 H 0.72313 0.79138 0.31589 0.0
H814 H 0.68355 0.82043 0.26917 0.0
H815 H 0.65461 0.81823 0.29621 0.0
Dy816 Dy 0.79408 0.28386 0.76551 0.0
Dy817 Dy 0.7706 0.30612 0.8088 0.0
C818 C 0.81065 0.33966 0.78888 0.0
O819 O 0.81449 0.2779 0.79732 0.0
O820 O 0.80351 0.30194 0.82686 0.0
O821 O 0.81755 0.29041 0.73989 0.0
O822 O 0.79661 0.2538 0.73987 0.0
O823 O 0.76385 0.26721 0.80962 0.0
O824 O 0.76375 0.25348 0.77034 0.0
O825 O 0.74425 0.29955 0.77624 0.0
O826 O 0.76863 0.29961 0.74833 0.0
O827 O 0.74208 0.30475 0.82865 0.0
O828 O 0.77401 0.33478 0.83875 0.0
C829 C 0.81669 0.28866 0.81971 0.0
O830 O 0.81776 0.32087 0.78255 0.0
O831 O 0.78941 0.33668 0.79307 0.0
C832 C 0.80072 0.26591 0.70281 0.0
C833 C 0.7828 0.27365 0.6588 0.0
C834 C 0.80691 0.28155 0.66676 0.0
C835 C 0.81575 0.27756 0.68846 0.0
C836 C 0.77682 0.25643 0.69422 0.0
C837 C 0.76797 0.26006 0.6723 0.0
C838 C 0.80952 0.26816 0.72805 0.0
C839 C 0.7581 0.24954 0.79106 0.0
C840 C 0.74871 0.30094 0.75451 0.0
C841 C 0.75788 0.31724 0.86896 0.0
C842 C 0.76954 0.30816 0.91416 0.0
C843 C 0.77169 0.29304 0.89361 0.0
C844 C 0.76598 0.29757 0.8713 0.0
C845 C 0.75521 0.33221 0.88932 0.0
C846 C 0.76085 0.32757 0.91189 0.0
C847 C 0.75475 0.32293 0.84531 0.0
H848 H 0.81896 0.29241 0.6572 0.0
H849 H 0.8342 0.28525 0.69487 0.0
H850 H 0.76476 0.24749 0.70501 0.0
H851 H 0.7494 0.25327 0.66654 0.0
H852 H 0.7778 0.27762 0.89476 0.0
H853 H 0.76835 0.28592 0.85582 0.0
H854 H 0.74924 0.34765 0.88778 0.0
H855 H 0.75895 0.33938 0.92753 0.0
Dy856 Dy 0.76979 0.76229 0.76692 0.0
Dy857 Dy 0.80288 0.81729 0.78982 0.0
C858 C 0.78827 0.77872 0.82318 0.0
O859 O 0.74273 0.78136 0.77186 0.0
O860 O 0.76626 0.81781 0.79434 0.0
O861 O 0.74206 0.73002 0.76805 0.0
O862 O 0.76289 0.73004 0.73983 0.0
O863 O 0.79142 0.8205 0.75257 0.0
O864 O 0.77218 0.78049 0.73543 0.0
O865 O 0.82638 0.79944 0.77139 0.0
O866 O 0.80679 0.76058 0.77312 0.0
O867 O 0.83402 0.84713 0.79164 0.0
O868 O 0.81042 0.84982 0.81678 0.0
C869 C 0.74534 0.80258 0.78543 0.0
O870 O 0.77104 0.76623 0.80624 0.0
O871 O 0.80567 0.79603 0.81884 0.0
C872 C 0.75222 0.695 0.75573 0.0
C873 C 0.76347 0.6536 0.76436 0.0
C874 C 0.77615 0.67671 0.77776 0.0
C875 C 0.77055 0.69718 0.7735 0.0
C876 C 0.73919 0.67205 0.74257 0.0
C877 C 0.74477 0.65145 0.74685 0.0
C878 C 0.74756 0.71689 0.75051 0.0
C879 C 0.78095 0.80334 0.73387 0.0
C880 C 0.82569 0.77673 0.76965 0.0
C881 C 0.82766 0.88472 0.80242 0.0
C882 C 0.81995 0.92768 0.7935 0.0
C883 C 0.81424 0.90705 0.77521 0.0
C884 C 0.81799 0.88576 0.77966 0.0
C885 C 0.83454 0.90556 0.82039 0.0
C886 C 0.83075 0.92693 0.81597 0.0
C887 C 0.82828 0.8614 0.80799 0.0
H888 H 0.79096 0.67914 0.79101 0.0
H889 H 0.78086 0.71483 0.78376 0.0
H890 H 0.72498 0.67012 0.72877 0.0
H891 H 0.73462 0.63389 0.73632 0.0
H892 H 0.80553 0.90684 0.75784 0.0
H893 H 0.81239 0.86981 0.76556 0.0
H894 H 0.84198 0.90503 0.83808 0.0
H895 H 0.83547 0.94259 0.83035 0.0
Dy896 Dy 0.56401 0.56359 0.54348 0.0
Dy897 Dy 0.5151 0.53191 0.51182 0.0
C898 C 0.55806 0.55094 0.48743 0.0
O899 O 0.54713 0.59268 0.54004 0.0
O900 O 0.51728 0.57112 0.50968 0.0
O901 O 0.59889 0.5871 0.54492 0.0
O902 O 0.58834 0.57418 0.57627 0.0
O903 O 0.50505 0.5463 0.54603 0.0
O904 O 0.53992 0.55515 0.56999 0.0
O905 O 0.52704 0.50475 0.52952 0.0
O906 O 0.56566 0.52507 0.53494 0.0
O907 O 0.48312 0.50229 0.50564 0.0
O908 O 0.49187 0.52362 0.47868 0.0
C909 C 0.5303 0.592 0.5233 0.0
O910 O 0.56532 0.56849 0.50607 0.0
O911 O 0.54239 0.53076 0.48866 0.0
C912 C 0.62445 0.57186 0.56567 0.0
C913 C 0.65072 0.54172 0.54983 0.0
C914 C 0.6339 0.53427 0.5644 0.0
C915 C 0.62078 0.54913 0.57214 0.0
C916 C 0.64325 0.58055 0.55377 0.0
C917 C 0.65625 0.56558 0.54585 0.0
C918 C 0.60582 0.58332 0.56562 0.0
C919 C 0.51735 0.55106 0.56721 0.0
C920 C 0.54869 0.50506 0.53466 0.0
C921 C 0.45383 0.51522 0.48711 0.0
C922 C 0.42232 0.5417 0.493 0.0
C923 C 0.42915 0.53106 0.51144 0.0
C924 C 0.4447 0.5179 0.50852 0.0
C925 C 0.44529 0.52383 0.46792 0.0
C926 C 0.42968 0.53704 0.47085 0.0
C927 C 0.47536 0.5086 0.48656 0.0
H928 H 0.62938 0.51615 0.56811 0.0
H929 H 0.60646 0.54185 0.58136 0.0
H930 H 0.64655 0.59805 0.54871 0.0
H931 H 0.6697 0.57218 0.53538 0.0
H932 H 0.42388 0.53439 0.52875 0.0
H933 H 0.45087 0.51151 0.52371 0.0
H934 H 0.45202 0.52192 0.45123 0.0
H935 H 0.42428 0.54461 0.45618 0.0
Dy936 Dy 0.00852 0.53912 0.04193 0.0
Dy937 Dy 0.06029 0.54214 0.02637 0.0
C938 C 0.02003 0.54863 0.99005 0.0
O939 O 0.00448 0.50053 0.02479 0.0
O940 O 0.04284 0.50217 0.02529 0.0
O941 O 0.97112 0.53006 0.03406 0.0
O942 O 0.98901 0.54685 0.06986 0.0
O943 O 0.06334 0.54841 0.06565 0.0
O944 O 0.02733 0.52471 0.06856 0.0
O945 O 0.05964 0.58097 0.03052 0.0
O946 O 0.02988 0.57858 0.05279 0.0
O947 O 0.09769 0.55438 0.03582 0.0
O948 O 0.0817 0.53136 0.00164 0.0
C949 C 0.0206 0.48967 0.02236 0.0
O950 O 0.00734 0.55067 0.00694 0.0
O951 O 0.03909 0.54259 0.99304 0.0
C952 C 0.95736 0.55947 0.05573 0.0
C953 C 0.93412 0.59475 0.05429 0.0
C954 C 0.92216 0.56994 0.04581 0.0
C955 C 0.93367 0.55251 0.04655 0.0
C956 C 0.9693 0.58419 0.06443 0.0
C957 C 0.9578 0.60158 0.06377 0.0
C958 C 0.96961 0.54102 0.05516 0.0
C959 C 0.04944 0.53443 0.07703 0.0
C960 C 0.04723 0.59145 0.04367 0.0
C961 C 0.11517 0.52484 0.02022 0.0
C962 C 0.14175 0.49309 0.02557 0.0
C963 C 0.13744 0.50732 0.04563 0.0
C964 C 0.12422 0.52296 0.043 0.0
C965 C 0.11971 0.51082 0.00021 0.0
C966 C 0.13273 0.49506 0.00284 0.0
C967 C 0.10074 0.54089 0.01688 0.0
H968 H 0.90402 0.56399 0.03807 0.0
H969 H 0.92413 0.5336 0.03958 0.0
H970 H 0.98759 0.59016 0.0716 0.0
H971 H 0.96746 0.62042 0.07078 0.0
H972 H 0.144 0.50609 0.06338 0.0
H973 H 0.121 0.53343 0.05883 0.0
H974 H 0.11307 0.512 0.98245 0.0
H975 H 0.13602 0.48463 0.98703 0.0
H976 H 0.02477 0.21092 0.97483 0.0
H977 H 0.95678 0.19885 0.99697 0.0
H978 H 0.95974 0.16212 0.01007 0.0
H979 H 0.01955 0.14809 0.95378 0.0
H980 H 0.04896 0.15045 0.96509 0.0
H981 H 0.0423 0.17653 0.95746 0.0
H982 H 0.06037 0.20106 -0.00019 0.0
H983 H 0.06717 0.17508 0.00753 0.0
H984 H 0.05013 0.18938 0.02516 0.0
H985 H 0.96778 0.12426 0.01798 0.0
H986 H 0.98265 0.09047 0.02426 0.0
H987 H 0.04713 0.12635 0.00112 0.0
C988 C 0.01064 0.20077 0.98274 0.0
C989 C 0.99045 0.20839 0.98466 0.0
C990 C 0.9725 0.19404 0.99511 0.0
C991 C 0.97394 0.17283 0.00264 0.0
C992 C 0.99368 0.16572 0.0002 0.0
C993 C 0.01196 0.1794 0.9909 0.0
C994 C 0.03128 0.16738 0.99076 0.0
C995 C 0.03579 0.16019 0.96525 0.0
C996 C 0.05357 0.18423 0.00677 0.0
C997 C 0.02081 0.14485 0.00113 0.0
C998 C 0.99893 0.14427 0.00613 0.0
C999 C 0.98507 0.12481 0.01451 0.0
C1000 C 0.99367 0.10557 0.01801 0.0
C1001 C 0.01622 0.1057 0.0137 0.0
C1002 C 0.03002 0.12583 0.00516 0.0
H1003 H 0.142 0.77727 0.1527 0.0
H1004 H 0.14296 0.85164 0.17523 0.0
H1005 H 0.17767 0.85884 0.20495 0.0
H1006 H 0.15791 0.76595 0.20857 0.0
H1007 H 0.17646 0.74838 0.19914 0.0
H1008 H 0.1529 0.74946 0.17835 0.0
H1009 H 0.1816 0.76456 0.14967 0.0
H1010 H 0.20524 0.76329 0.17031 0.0
H1011 H 0.20645 0.7911 0.16038 0.0
H1012 H 0.20961 0.85653 0.23543 0.0
H1013 H 0.23847 0.84629 0.26149 0.0
H1014 H 0.2188 0.77409 0.21792 0.0
C1015 C 0.14975 0.79523 0.16358 0.0
C1016 C 0.13962 0.81392 0.16152 0.0
C1017 C 0.15038 0.83708 0.17622 0.0
C1018 C 0.17009 0.8413 0.19327 0.0
C1019 C 0.17926 0.82234 0.19521 0.0
C1020 C 0.16973 0.79988 0.18041 0.0
C1021 C 0.18279 0.78249 0.18636 0.0
C1022 C 0.16654 0.76026 0.19353 0.0
C1023 C 0.19473 0.77492 0.16544 0.0
C1024 C 0.2006 0.79837 0.2074 0.0
C1025 C 0.19824 0.8213 0.21218 0.0
C1026 C 0.2118 0.83875 0.23157 0.0
C1027 C 0.22812 0.8327 0.24639 0.0
C1028 C 0.23112 0.80942 0.2418 0.0
C1029 C 0.21722 0.79214 0.22181 0.0
H1030 H 0.52116 0.85644 0.47283 0.0
H1031 H 0.46168 0.8306 0.50835 0.0
H1032 H 0.46401 0.87257 0.52456 0.0
H1033 H 0.55227 0.90933 0.5216 0.0
H1034 H 0.56342 0.92894 0.5016 0.0
H1035 H 0.55798 0.8967 0.49304 0.0
H1036 H 0.5314 0.8959 0.4549 0.0
H1037 H 0.53665 0.92809 0.46342 0.0
H1038 H 0.50733 0.90777 0.45733 0.0
H1039 H 0.4699 0.91723 0.53434 0.0
H1040 H 0.48185 0.96182 0.54066 0.0
H1041 H 0.53962 0.96137 0.50223 0.0
C1042 C 0.50886 0.85958 0.48435 0.0
C1043 C 0.49116 0.83963 0.48912 0.0
C1044 C 0.47545 0.84503 0.50422 0.0
C1045 C 0.47656 0.86903 0.51357 0.0
C1046 C 0.49373 0.88807 0.50818 0.0
C1047 C 0.50994 0.88376 0.4943 0.0
C1048 C 0.52664 0.90795 0.49152 0.0
C1049 C 0.55156 0.9109 0.5026 0.0
C1050 C 0.52543 0.91004 0.46523 0.0
C1051 C 0.51698 0.9263 0.50563 0.0
C1052 C 0.49784 0.91424 0.51486 0.0
C1053 C 0.48506 0.92684 0.52746 0.0
C1054 C 0.49196 0.95231 0.53089 0.0
C1055 C 0.51179 0.96545 0.52218 0.0
C1056 C 0.52455 0.95207 0.50945 0.0
H1057 H 0.49429 0.31503 0.64565 0.0
H1058 H 0.52679 0.26534 0.67144 0.0
H1059 H 0.49523 0.25287 0.69504 0.0
H1060 H 0.47823 0.33562 0.69995 0.0
H1061 H 0.45091 0.3382 0.68755 0.0
H1062 H 0.47425 0.3411 0.67018 0.0
H1063 H 0.44761 0.30664 0.63665 0.0
H1064 H 0.42408 0.30378 0.65382 0.0
H1065 H 0.43305 0.27772 0.64354 0.0
H1066 H 0.46218 0.24821 0.71839 0.0
H1067 H 0.42978 0.25139 0.7398 0.0
H1068 H 0.41841 0.30456 0.6997 0.0
C1069 C 0.4944 0.30104 0.65576 0.0
C1070 C 0.5129 0.29093 0.65647 0.0
C1071 C 0.51275 0.2732 0.67047 0.0
C1072 C 0.49488 0.266 0.68395 0.0
C1073 C 0.47725 0.27677 0.68339 0.0
C1074 C 0.47678 0.29385 0.66959 0.0
C1075 C 0.45671 0.30383 0.67355 0.0
C1076 C 0.46556 0.33131 0.68339 0.0
C1077 C 0.43933 0.29762 0.65052 0.0
C1078 C 0.44629 0.29004 0.69204 0.0
C1079 C 0.45829 0.27435 0.69723 0.0
C1080 C 0.45246 0.26019 0.71423 0.0
C1081 C 0.43388 0.26205 0.72624 0.0
C1082 C 0.42124 0.27804 0.72137 0.0
C1083 C 0.42765 0.29219 0.70394 0.0
H1084 H 0.03304 0.83751 0.66316 0.0
H1085 H 0.00626 0.77278 0.60802 0.0
H1086 H 0.01392 0.7977 0.57728 0.0
H1087 H 0.00657 0.87256 0.63442 0.0
H1088 H 0.02978 0.90077 0.6438 0.0
H1089 H 0.0261 0.87794 0.66173 0.0
H1090 H 0.06843 0.87788 0.65996 0.0
H1091 H 0.07235 0.90097 0.64224 0.0
H1092 H 0.07804 0.873 0.63149 0.0
H1093 H 0.02061 0.82943 0.5526 0.0
H1094 H 0.02642 0.86598 0.53527 0.0
H1095 H 0.04703 0.91096 0.60611 0.0
C1096 C 0.0297 0.82862 0.64462 0.0
C1097 C 0.01965 0.80319 0.63787 0.0
C1098 C 0.01441 0.79218 0.61346 0.0
C1099 C 0.01865 0.8062 0.59592 0.0
C1100 C 0.0279 0.83129 0.60304 0.0
C1101 C 0.03348 0.84247 0.62679 0.0
C1102 C 0.04109 0.86988 0.62948 0.0
C1103 C 0.02492 0.88093 0.64316 0.0
C1104 C 0.06649 0.88109 0.6415 0.0
C1105 C 0.03845 0.87229 0.60359 0.0
C1106 C 0.03105 0.84978 0.58868 0.0
C1107 C 0.02653 0.84718 0.56409 0.0
C1108 C 0.02965 0.86809 0.55442 0.0
C1109 C 0.03703 0.89146 0.56925 0.0
C1110 C 0.04163 0.89345 0.59421 0.0
H1111 H 0.45959 0.80105 0.83218 0.0
H1112 H 0.49397 0.8531 0.79149 0.0
H1113 H 0.45593 0.85595 0.77539 0.0
H1114 H 0.40934 0.76977 0.78739 0.0
H1115 H 0.38906 0.76496 0.80826 0.0
H1116 H 0.41896 0.76728 0.81719 0.0
H1117 H 0.4222 0.80211 0.85234 0.0
H1118 H 0.39229 0.79984 0.84355 0.0
H1119 H 0.41469 0.82841 0.84664 0.0
H1120 H 0.41404 0.85315 0.76332 0.0
H1121 H 0.37179 0.84502 0.75589 0.0
H1122 H 0.36297 0.79409 0.80369 0.0
C1123 C 0.45917 0.81321 0.82003 0.0
C1124 C 0.4801 0.82701 0.81329 0.0
C1125 C 0.47846 0.8424 0.79707 0.0
C1126 C 0.45682 0.84413 0.78779 0.0
C1127 C 0.43663 0.83027 0.79469 0.0
C1128 C 0.43755 0.81506 0.81043 0.0
C1129 C 0.41308 0.80189 0.81458 0.0
C1130 C 0.40727 0.77434 0.80636 0.0
C1131 C 0.41041 0.80846 0.84084 0.0
C1132 C 0.39826 0.81209 0.79875 0.0
C1133 C 0.41233 0.82846 0.78752 0.0
C1134 C 0.40293 0.84036 0.77206 0.0
C1135 C 0.37871 0.83556 0.76795 0.0
C1136 C 0.3636 0.81886 0.77912 0.0
C1137 C 0.37376 0.80695 0.79477 0.0
H1138 H 0.49187 0.20119 0.11793 0.0
H1139 H 0.51168 0.18776 0.18751 0.0
H1140 H 0.51978 0.15076 0.16852 0.0
H1141 H 0.46533 0.13878 0.08731 0.0
H1142 H 0.47687 0.14343 0.06021 0.0
H1143 H 0.47137 0.16808 0.07917 0.0
H1144 H 0.51404 0.1944 0.08155 0.0
H1145 H 0.51966 0.16984 0.06258 0.0
H1146 H 0.5372 0.1831 0.09129 0.0
H1147 H 0.52423 0.11407 0.14175 0.0
H1148 H 0.52912 0.08335 0.10968 0.0
H1149 H 0.51035 0.12243 0.05721 0.0
C1150 C 0.49773 0.19032 0.12915 0.0
C1151 C 0.50083 0.19724 0.15429 0.0
C1152 C 0.50906 0.18282 0.16828 0.0
C1153 C 0.51365 0.16171 0.15762 0.0
C1154 C 0.51043 0.1554 0.13284 0.0
C1155 C 0.50303 0.1695 0.11876 0.0
C1156 C 0.50233 0.15942 0.09255 0.0
C1157 C 0.4775 0.15199 0.07902 0.0
C1158 C 0.51932 0.17778 0.08134 0.0
C1159 C 0.5103 0.13736 0.09407 0.0
C1160 C 0.51452 0.13518 0.11749 0.0
C1161 C 0.5212 0.11578 0.12339 0.0
C1162 C 0.52385 0.09833 0.10501 0.0
C1163 C 0.52032 0.10048 0.08089 0.0
C1164 C 0.51346 0.12037 0.07546 0.0
H1165 H 0.14416 0.32938 0.35863 0.0
H1166 H 0.09831 0.31469 0.29188 0.0
H1167 H 0.12963 0.30769 0.27009 0.0
H1168 H 0.19724 0.36162 0.33656 0.0
H1169 H 0.21574 0.34982 0.3543 0.0
H1170 H 0.18993 0.3542 0.36457 0.0
H1171 H 0.17578 0.30923 0.36841 0.0
H1172 H 0.20146 0.30469 0.35802 0.0
H1173 H 0.17316 0.28583 0.34295 0.0
H1174 H 0.16541 0.2982 0.25554 0.0
H1175 H 0.20314 0.29198 0.24945 0.0
H1176 H 0.22765 0.31638 0.32505 0.0
C1177 C 0.14075 0.32501 0.33939 0.0
C1178 C 0.11844 0.32266 0.3271 0.0
C1179 C 0.11503 0.31685 0.30188 0.0
C1180 C 0.1328 0.31268 0.2893 0.0
C1181 C 0.15436 0.31477 0.30197 0.0
C1182 C 0.15854 0.3213 0.32649 0.0
C1183 C 0.18338 0.32267 0.33582 0.0
C1184 C 0.1974 0.34862 0.34857 0.0
C1185 C 0.18344 0.30452 0.35228 0.0
C1186 C 0.19242 0.31546 0.31284 0.0
C1187 C 0.17528 0.31072 0.29352 0.0
C1188 C 0.17899 0.3023 0.27058 0.0
C1189 C 0.20056 0.29874 0.26726 0.0
C1190 C 0.21872 0.30398 0.2866 0.0
C1191 C 0.21444 0.31264 0.30973 0.0
H1192 H 0.01348 0.05274 0.20517 0.0
H1193 H 0.93912 0.03973 0.18993 0.0
H1194 H 0.94231 0.04016 0.14758 0.0
H1195 H 0.03019 0.0932 0.16521 0.0
H1196 H 0.05311 0.08159 0.15631 0.0
H1197 H 0.04506 0.08012 0.18542 0.0
H1198 H 0.03782 0.03371 0.17707 0.0
H1199 H 0.04604 0.03506 0.14802 0.0
H1200 H 0.01822 0.01508 0.15098 0.0
H1201 H 0.95374 0.04297 0.10712 0.0
H1202 H 0.97194 0.04505 0.07087 0.0
H1203 H 0.03893 0.05553 0.11223 0.0
C1204 C 0.99782 0.04989 0.19294 0.0
C1205 C 0.97603 0.04624 0.20093 0.0
C1206 C 0.95599 0.0425 0.18427 0.0
C1207 C 0.95765 0.04281 0.16019 0.0
C1208 C 0.97944 0.04675 0.153 0.0
C1209 C 0.99914 0.05 0.16884 0.0
C1210 C 0.02042 0.05352 0.15645 0.0
C1211 C 0.03824 0.0786 0.16645 0.0
C1212 C 0.03126 0.03313 0.15824 0.0
C1213 C 0.00962 0.0518 0.13116 0.0
C1214 C 0.98598 0.04803 0.12961 0.0
C1215 C 0.97222 0.04585 0.10812 0.0
C1216 C 0.98278 0.04713 0.08761 0.0
C1217 C 0.00693 0.05047 0.08861 0.0
C1218 C 0.02048 0.05305 0.11081 0.0
H1219 H 0.27545 0.68347 0.45521 0.0
H1220 H 0.23615 0.69342 0.51268 0.0
H1221 H 0.21316 0.71217 0.48824 0.0
H1222 H 0.28094 0.73731 0.43771 0.0
H1223 H 0.27765 0.72556 0.40627 0.0
H1224 H 0.28859 0.71043 0.42721 0.0
H1225 H 0.25573 0.67019 0.4087 0.0
H1226 H 0.24529 0.68549 0.38748 0.0
H1227 H 0.22592 0.67005 0.40571 0.0
H1228 H 0.1999 0.73634 0.46001 0.0
H1229 H 0.19528 0.76046 0.42928 0.0
H1230 H 0.24093 0.73079 0.38953 0.0
C1231 C 0.26169 0.68921 0.46244 0.0
C1232 C 0.25755 0.68728 0.48573 0.0
C1233 C 0.23942 0.69478 0.49474 0.0
C1234 C 0.22632 0.70538 0.481 0.0
C1235 C 0.23121 0.70754 0.45815 0.0
C1236 C 0.24816 0.69915 0.4488 0.0
C1237 C 0.25105 0.70464 0.42441 0.0
C1238 C 0.27602 0.72043 0.4239 0.0
C1239 C 0.24406 0.68118 0.40546 0.0
C1240 C 0.23391 0.71852 0.42188 0.0
C1241 C 0.22251 0.72001 0.44142 0.0
C1242 C 0.20811 0.73463 0.44427 0.0
C1243 C 0.20562 0.74828 0.42685 0.0
C1244 C 0.21726 0.74687 0.40685 0.0
C1245 C 0.23111 0.7314 0.40419 0.0
H1246 H 0.65066 0.07775 0.68578 0.0
H1247 H 0.64085 1.00068 0.67839 0.0
H1248 H 0.60915 0.99219 0.64504 0.0
H1249 H 0.59334 0.07458 0.67636 0.0
H1250 H 0.5965 0.09797 0.65906 0.0
H1251 H 0.62046 0.09861 0.68032 0.0
H1252 H 0.64686 0.09918 0.6476 0.0
H1253 H 0.62322 0.09944 0.62636 0.0
H1254 H 0.6372 0.07636 0.62069 0.0
H1255 H 0.57458 0.99187 0.61678 0.0
H1256 H 0.54514 1.00038 0.58956 0.0
H1257 H 0.57888 0.0775 0.61434 0.0
C1258 C 0.64237 0.05915 0.67661 0.0
C1259 C 0.64819 0.03991 0.68468 0.0
C1260 C 0.63684 0.01576 0.67238 0.0
C1261 C 0.61863 0.01072 0.65356 0.0
C1262 C 0.61238 0.03005 0.64701 0.0
C1263 C 0.62442 0.05383 0.65762 0.0
C1264 C 0.614 0.07129 0.64758 0.0
C1265 C 0.60558 0.0865 0.66699 0.0
C1266 C 0.63135 0.08752 0.63479 0.0
C1267 C 0.59383 0.0536 0.63019 0.0
C1268 C 0.593 0.02988 0.63024 0.0
C1269 C 0.57524 0.01038 0.61633 0.0
C1270 C 0.55842 0.01534 0.60123 0.0
C1271 C 0.55978 0.03956 0.60012 0.0
C1272 C 0.57748 0.05883 0.61502 0.0
H1273 H 0.33164 0.33931 0.96821 0.0
H1274 H 0.26539 0.35108 0.97665 0.0
H1275 H 0.253 0.33821 0.93331 0.0
H1276 H 0.33846 0.36206 0.91518 0.0
H1277 H 0.35135 0.34025 0.90159 0.0
H1278 H 0.35463 0.34843 0.9335 0.0
H1279 H 0.33714 0.30334 0.93586 0.0
H1280 H 0.33395 0.29498 0.90394 0.0
H1281 H 0.30914 0.28601 0.91895 0.0
H1282 H 0.24855 0.32688 0.88908 0.0
H1283 H 0.2515 0.31655 0.8468 0.0
H1284 H 0.3206 0.3115 0.86547 0.0
C1285 C 0.31433 0.33872 0.96104 0.0
C1286 C 0.29944 0.34612 0.97613 0.0
C1287 C 0.27712 0.34545 0.96573 0.0
C1288 C 0.26992 0.33817 0.94103 0.0
C1289 C 0.28515 0.33151 0.92672 0.0
C1290 C 0.30684 0.33153 0.93629 0.0
C1291 C 0.32011 0.32441 0.91665 0.0
C1292 C 0.34246 0.34502 0.91674 0.0
C1293 C 0.3254 0.30078 0.919 0.0
C1294 C 0.30258 0.32069 0.89454 0.0
C1295 C 0.28255 0.32487 0.90092 0.0
C1296 C 0.26409 0.32343 0.88391 0.0
C1297 C 0.26605 0.31763 0.8598 0.0
C1298 C 0.28633 0.3132 0.8525 0.0
C1299 C 0.3048 0.31459 0.87029 0.0
H1300 H 0.9739 0.06189 0.35615 0.0
H1301 H 1.00007 0.00952 0.31513 0.0
H1302 H 0.01597 1.00035 0.35254 0.0
H1303 H 0.02203 0.08505 0.40297 0.0
H1304 H 0.00445 0.08896 0.42578 0.0
H1305 H 0.99489 0.09081 0.3958 0.0
H1306 H 0.95619 0.05721 0.39514 0.0
H1307 H 0.96562 0.05528 0.42515 0.0
H1308 H 0.95691 0.02853 0.40194 0.0
H1309 H 0.02934 0.99744 0.39527 0.0
H1310 H 0.03932 1.00162 0.4388 0.0
H1311 H 1.00393 0.05597 0.45052 0.0
C1312 C 0.98277 0.04831 0.35493 0.0
C1313 C 0.98557 0.03627 0.33269 0.0
C1314 C 0.99767 0.01893 0.33199 0.0
C1315 C 0.00673 0.01359 0.35313 0.0
C1316 C 1.00359 0.0258 0.37479 0.0
C1317 C 0.99192 0.04285 0.37575 0.0
C1318 C 0.99115 0.05385 0.40111 0.0
C1319 C 1.00389 0.08129 0.40674 0.0
C1320 C 0.96597 0.04838 0.40612 0.0
C1321 C 1.00418 0.04036 0.41437 0.0
C1322 C 0.01124 0.02422 0.399 0.0
C1323 C 0.02383 0.01 0.40743 0.0
C1324 C 0.0294 0.01247 0.43219 0.0
C1325 C 0.02239 0.02906 0.44818 0.0
C1326 C 0.00954 0.04302 0.43893 0.0
H1327 H 0.29825 0.688 0.61062 0.0
H1328 H 0.32878 0.74585 0.5742 0.0
H1329 H 0.32868 0.77615 0.60929 0.0
H1330 H 0.26067 0.71497 0.63894 0.0
H1331 H 0.26469 0.70448 0.66628 0.0
H1332 H 0.26808 0.68739 0.63876 0.0
H1333 H 0.30958 0.68974 0.65681 0.0
H1334 H 0.30622 0.70666 0.68448 0.0
H1335 H 0.33042 0.7189 0.66965 0.0
H1336 H 0.32199 0.79988 0.64698 0.0
H1337 H 0.31326 0.8155 0.68636 0.0
H1338 H 0.28923 0.74208 0.69871 0.0
C1339 C 0.30513 0.70705 0.6101 0.0
C1340 C 0.31347 0.71461 0.58969 0.0
C1341 C 0.32243 0.73968 0.58973 0.0
C1342 C 0.32235 0.75701 0.60951 0.0
C1343 C 0.31359 0.74891 0.62918 0.0
C1344 C 0.30552 0.72453 0.62979 0.0
C1345 C 0.29704 0.72056 0.65307 0.0
C1346 C 0.27108 0.70599 0.64901 0.0
C1347 C 0.3117 0.70825 0.66681 0.0
C1348 C 0.30124 0.74651 0.66534 0.0
C1349 C 0.31061 0.7626 0.65121 0.0
C1350 C 0.31494 0.78749 0.65833 0.0
C1351 C 0.3098 0.79616 0.68062 0.0
C1352 C 0.30073 0.77998 0.69555 0.0
C1353 C 0.29643 0.75487 0.68775 0.0
H1354 H 0.63231 0.02188 0.82326 0.0
H1355 H 0.59746 0.04326 0.765 0.0
H1356 H 0.57439 0.05926 0.79236 0.0
H1357 H 0.5822 0.00435 0.85397 0.0
H1358 H 0.59938 0.0161 0.88305 0.0
H1359 H 0.6121 0.00491 0.85849 0.0
H1360 H 0.64482 0.04608 0.86628 0.0
H1361 H 0.63206 0.05749 0.89069 0.0
H1362 H 0.63728 0.07361 0.86668 0.0
H1363 H 0.55713 0.07552 0.82633 0.0
H1364 H 0.54503 0.08873 0.86453 0.0
H1365 H 0.59045 0.05592 0.90037 0.0
C1366 C 0.61975 0.02978 0.81621 0.0
C1367 C 0.61684 0.03148 0.79204 0.0
C1368 C 0.60003 0.04177 0.78348 0.0
C1369 C 0.58685 0.05096 0.79887 0.0
C1370 C 0.5906 0.04959 0.82272 0.0
C1371 C 0.60644 0.03905 0.83133 0.0
C1372 C 0.60748 0.04042 0.85786 0.0
C1373 C 0.59983 0.01493 0.86367 0.0
C1374 C 0.63186 0.05529 0.87115 0.0
C1375 C 0.58994 0.05361 0.86279 0.0
C1376 C 0.58041 0.05875 0.8423 0.0
C1377 C 0.56425 0.07137 0.84249 0.0
C1378 C 0.55744 0.07873 0.86425 0.0
C1379 C 0.56674 0.07334 0.88545 0.0
C1380 C 0.58323 0.06064 0.88458 0.0
H1381 H 0.28986 0.36637 0.12011 0.0
H1382 H 0.30908 0.30701 0.08189 0.0
H1383 H 0.3014 0.28519 0.11503 0.0
H1384 H 0.31828 0.36537 0.17672 0.0
H1385 H 0.29702 0.37322 0.19334 0.0
H1386 H 0.30132 0.383 0.16562 0.0
H1387 H 0.25766 0.36239 0.14943 0.0
H1388 H 0.25321 0.35261 0.17715 0.0
H1389 H 0.24468 0.33072 0.14958 0.0
H1390 H 0.29257 0.2702 0.15273 0.0
H1391 H 0.2863 0.26421 0.19312 0.0
H1392 H 0.27572 0.33468 0.20916 0.0
C1393 C 0.29189 0.3485 0.1185 0.0
C1394 C 0.29956 0.33811 0.09808 0.0
C1395 C 0.3029 0.31515 0.09711 0.0
C1396 C 0.29857 0.30263 0.11589 0.0
C1397 C 0.29132 0.31348 0.13587 0.0
C1398 C 0.28821 0.33601 0.13743 0.0
C1399 C 0.28222 0.34445 0.16175 0.0
C1400 C 0.30082 0.3679 0.17515 0.0
C1401 C 0.258 0.34773 0.15933 0.0
C1402 C 0.28249 0.32318 0.17364 0.0
C1403 C 0.28745 0.3054 0.15819 0.0
C1404 C 0.28867 0.28402 0.16493 0.0
C1405 C 0.28499 0.28077 0.18802 0.0
C1406 C 0.28043 0.2989 0.20456 0.0
C1407 C 0.2791 0.3204 0.19707 0.0
H1408 H 0.21991 0.94313 0.04028 0.0
H1409 H 0.22216 0.94428 0.96545 0.0
H1410 H 0.19649 0.97001 0.9665 0.0
H1411 H 0.15869 0.94524 0.04047 0.0
H1412 H 0.16634 0.96477 0.06944 0.0
H1413 H 0.18131 0.94291 0.06172 0.0
H1414 H 0.22056 0.9774 0.07242 0.0
H1415 H 0.20575 0.9994 0.07968 0.0
H1416 H 0.22508 0.00292 0.05781 0.0
H1417 H 0.17529 0.99984 0.97683 0.0
H1418 H 0.15731 0.0295 0.99505 0.0
H1419 H 0.17002 0.01015 0.06357 0.0
C1420 C 0.21429 0.94802 0.0239 0.0
C1421 C 0.22289 0.94158 0.00272 0.0
C1422 C 0.21566 0.9489 0.98182 0.0
C1423 C 0.2011 0.96354 0.98225 0.0
C1424 C 0.19387 0.97057 0.0037 0.0
C1425 C 0.19991 0.96278 0.02407 0.0
C1426 C 0.19154 0.97471 0.04528 0.0
C1427 C 0.17339 0.95578 0.05478 0.0
C1428 C 0.21195 0.98948 0.06494 0.0
C1429 C 0.18061 0.99104 0.0338 0.0
C1430 C 0.18192 0.98818 0.00977 0.0
C1431 C 0.17394 1.00207 0.99558 0.0
C1432 C 0.16405 0.01911 0.00618 0.0
C1433 C 0.1624 0.02229 0.03078 0.0
C1434 C 0.17083 0.008 0.04469 0.0
H1435 H 0.7069 0.66143 0.01641 0.0
H1436 H 0.72665 0.60782 0.96915 0.0
H1437 H 0.68808 0.57835 0.96702 0.0
H1438 H 0.67478 0.62091 0.04935 0.0
H1439 H 0.65243 0.63524 0.05227 0.0
H1440 H 0.68121 0.6528 0.0492 0.0
H1441 H 0.66441 0.66637 0.01264 0.0
H1442 H 0.63554 0.64895 0.01569 0.0
H1443 H 0.64632 0.64378 0.98791 0.0
H1444 H 0.64823 0.55388 0.97152 0.0
H1445 H 0.60904 0.53655 0.98126 0.0
H1446 H 0.61467 0.60592 0.02523 0.0
C1447 C 0.70301 0.6436 0.00539 0.0
C1448 C 0.71986 0.63699 0.99294 0.0
C1449 C 0.7141 0.61337 0.97886 0.0
C1450 C 0.6922 0.59646 0.97752 0.0
C1451 C 0.67613 0.60339 0.99027 0.0
C1452 C 0.68115 0.62643 0.00381 0.0
C1453 C 0.66085 0.62897 0.01617 0.0
C1454 C 0.66774 0.63482 0.04336 0.0
C1455 C 0.65121 0.64815 0.00758 0.0
C1456 C 0.64382 0.6037 0.00768 0.0
C1457 C 0.65299 0.58926 0.99273 0.0
C1458 C 0.64078 0.56505 0.98309 0.0
C1459 C 0.61854 0.55534 0.98879 0.0
C1460 C 0.60868 0.56982 0.00398 0.0
C1461 C 0.6216 0.59435 0.01347 0.0
H1462 H 0.69658 0.51893 0.30968 0.0
H1463 H 0.64682 0.49688 0.24476 0.0
H1464 H 0.66751 0.46883 0.22804 0.0
H1465 H 0.74757 0.5159 0.28158 0.0
H1466 H 0.75945 0.50483 0.30571 0.0
H1467 H 0.74186 0.5245 0.3113 0.0
H1468 H 0.71449 0.4925 0.33028 0.0
H1469 H 0.73185 0.47269 0.32462 0.0
H1470 H 0.70122 0.4621 0.31338 0.0
H1471 H 0.6916 0.44005 0.22051 0.0
H1472 H 0.71819 0.41517 0.22176 0.0
H1473 H 0.752 0.45724 0.29157 0.0
C1474 C 0.69014 0.50846 0.2918 0.0
C1475 C 0.67002 0.51 0.27854 0.0
C1476 C 0.66227 0.49606 0.25518 0.0
C1477 C 0.67388 0.48006 0.24559 0.0
C1478 C 0.69335 0.47856 0.25948 0.0
C1479 C 0.70156 0.49268 0.28197 0.0
C1480 C 0.72222 0.4872 0.29377 0.0
C1481 C 0.74407 0.50943 0.29835 0.0
C1482 C 0.71712 0.47808 0.31687 0.0
C1483 C 0.72407 0.46728 0.2747 0.0
C1484 C 0.70735 0.46253 0.25499 0.0
C1485 C 0.70494 0.44387 0.23571 0.0
C1486 C 0.72 0.42975 0.23664 0.0
C1487 C 0.73726 0.43443 0.25669 0.0
C1488 C 0.73932 0.45357 0.27581 0.0
H1489 H 0.85208 0.46634 0.55088 0.0
H1490 H 0.8203 0.48225 0.48732 0.0
H1491 H 0.8593 0.50443 0.47947 0.0
H1492 H 0.89886 0.52397 0.56856 0.0
H1493 H 0.91928 0.50965 0.57918 0.0
H1494 H 0.88883 0.49679 0.58031 0.0
H1495 H 0.88961 0.45588 0.55637 0.0
H1496 H 0.9199 0.46859 0.55454 0.0
H1497 H 0.89933 0.45483 0.52776 0.0
H1498 H 0.90235 0.52149 0.477 0.0
H1499 H 0.94529 0.53432 0.48159 0.0
H1500 H 0.9474 0.5082 0.54777 0.0
C1501 C 0.85329 0.47471 0.53544 0.0
C1502 C 0.83333 0.47257 0.51962 0.0
C1503 C 0.8355 0.48384 0.49968 0.0
C1504 C 0.85753 0.49639 0.49508 0.0
C1505 C 0.87696 0.49771 0.51084 0.0
C1506 C 0.87496 0.48745 0.5308 0.0
C1507 C 0.89836 0.49069 0.54466 0.0
C1508 C 0.90151 0.50621 0.56965 0.0
C1509 C 0.902 0.46604 0.54589 0.0
C1510 C 0.91394 0.50403 0.52917 0.0
C1511 C 0.90141 0.50792 0.50971 0.0
C1512 C 0.91232 0.51882 0.49234 0.0
C1513 C 0.93668 0.52594 0.49505 0.0
C1514 C 0.94971 0.52218 0.51502 0.0
C1515 C 0.93805 0.51129 0.53229 0.0
H1516 H 0.34563 0.09715 0.33822 0.0
H1517 H 0.34755 0.05785 0.26838 0.0
H1518 H 0.3136 0.06824 0.25194 0.0
H1519 H 0.28056 0.08474 0.33186 0.0
H1520 H 0.28389 0.11496 0.34746 0.0
H1521 H 0.305 0.10015 0.3549 0.0
H1522 H 0.33782 0.1364 0.34746 0.0
H1523 H 0.31688 0.15124 0.34003 0.0
H1524 H 0.33585 0.14563 0.31917 0.0
H1525 H 0.2841 0.08782 0.24181 0.0
H1526 H 0.26284 0.11719 0.23823 0.0
H1527 H 0.27946 0.14401 0.31453 0.0
C1528 C 0.33838 0.09008 0.31965 0.0
C1529 C 0.34904 0.07658 0.30459 0.0
C1530 C 0.33959 0.06823 0.28021 0.0
C1531 C 0.32019 0.07384 0.27076 0.0
C1532 C 0.31043 0.08778 0.28592 0.0
C1533 C 0.31918 0.0958 0.30986 0.0
C1534 C 0.30765 0.11332 0.32154 0.0
C1535 C 0.29342 0.10265 0.34003 0.0
C1536 C 0.32562 0.1381 0.33268 0.0
C1537 C 0.29199 0.11487 0.30017 0.0
C1538 C 0.2934 0.0995 0.27994 0.0
C1539 C 0.28237 0.0995 0.25761 0.0
C1540 C 0.27021 0.1162 0.25577 0.0
C1541 C 0.26938 0.13283 0.27613 0.0
C1542 C 0.27974 0.13148 0.29868 0.0
H1543 H 0.35764 0.1801 0.51653 0.0
H1544 H 0.31429 0.16332 0.57073 0.0
H1545 H 0.34013 0.14224 0.58688 0.0
H1546 H 0.36589 0.12422 0.50379 0.0
H1547 H 0.39562 0.13463 0.49881 0.0
H1548 H 0.37669 0.15251 0.49409 0.0
H1549 H 0.40543 0.18946 0.52354 0.0
H1550 H 0.42467 0.17177 0.52814 0.0
H1551 H 0.41477 0.18633 0.55318 0.0
H1552 H 0.36695 0.11843 0.59375 0.0
H1553 H 0.39365 0.094 0.59162 0.0
H1554 H 0.42012 0.1254 0.53278 0.0
C1555 C 0.35419 0.17282 0.53237 0.0
C1556 C 0.33422 0.17367 0.54268 0.0
C1557 C 0.32966 0.16309 0.56278 0.0
C1558 C 0.34424 0.15108 0.57207 0.0
C1559 C 0.36329 0.14969 0.56099 0.0
C1560 C 0.36846 0.1604 0.54169 0.0
C1561 C 0.38856 0.15398 0.53163 0.0
C1562 C 0.38124 0.14054 0.50554 0.0
C1563 C 0.40961 0.17674 0.53429 0.0
C1564 C 0.39329 0.13737 0.54776 0.0
C1565 C 0.37872 0.13547 0.56477 0.0
C1566 C 0.3788 0.12016 0.58084 0.0
C1567 C 0.39415 0.10639 0.57953 0.0
C1568 C 0.40928 0.10787 0.56222 0.0
C1569 C 0.40884 0.12377 0.54623 0.0
H1570 H 0.66149 0.63456 0.29776 0.0
H1571 H 0.71154 0.60888 0.336 0.0
H1572 H 0.743 0.64513 0.33274 0.0
H1573 H 0.69728 0.66053 0.25728 0.0
H1574 H 0.68714 0.68656 0.2583 0.0
H1575 H 0.66841 0.65857 0.26352 0.0
H1576 H 0.66307 0.68087 0.30415 0.0
H1577 H 0.68169 0.70897 0.29898 0.0
H1578 H 0.6883 0.69826 0.3256 0.0
H1579 H 0.76942 0.6828 0.32306 0.0
H1580 H 0.78837 0.7218 0.31171 0.0
H1581 H 0.721 0.72471 0.28254 0.0
C1582 C 0.67906 0.63664 0.30552 0.0
C1583 C 0.68407 0.61886 0.31708 0.0
C1584 C 0.70726 0.62233 0.32719 0.0
C1585 C 0.72528 0.6428 0.32532 0.0
C1586 C 0.71982 0.65988 0.31364 0.0
C1587 C 0.69723 0.65727 0.30427 0.0
C1588 C 0.69603 0.67871 0.29325 0.0
C1589 C 0.68666 0.6706 0.2665 0.0
C1590 C 0.68141 0.69252 0.30628 0.0
C1591 C 0.72148 0.69357 0.29761 0.0
C1592 C 0.73494 0.68224 0.30915 0.0
C1593 C 0.75904 0.69199 0.31425 0.0
C1594 C 0.76966 0.71406 0.30764 0.0
C1595 C 0.75615 0.72632 0.29641 0.0
C1596 C 0.73174 0.71587 0.29136 0.0
H1597 H 0.85489 0.48205 0.84012 0.0
H1598 H 0.91542 0.485 0.80532 0.0
H1599 H 0.90171 0.4405 0.79262 0.0
H1600 H 0.84951 0.42416 0.85963 0.0
H1601 H 0.81825 0.41447 0.85348 0.0
H1602 H 0.83417 0.44629 0.86206 0.0
H1603 H 0.8137 0.45397 0.82385 0.0
H1604 H 0.79793 0.42217 0.81503 0.0
H1605 H 0.81543 0.43741 0.79526 0.0
H1606 H 0.88058 0.39592 0.7821 0.0
H1607 H 0.85301 0.35435 0.77401 0.0
H1608 H 0.80543 0.38083 0.81396 0.0
C1609 C 0.8655 0.47322 0.83035 0.0
C1610 C 0.88627 0.48685 0.82384 0.0
C1611 C 0.89943 0.47481 0.81047 0.0
C1612 C 0.89183 0.44956 0.80324 0.0
C1613 C 0.87096 0.43663 0.8094 0.0
C1614 C 0.85796 0.44801 0.82267 0.0
C1615 C 0.83537 0.43006 0.82542 0.0
C1616 C 0.83427 0.42866 0.85171 0.0
C1617 C 0.81437 0.43628 0.81422 0.0
C1618 C 0.83761 0.40695 0.81142 0.0
C1619 C 0.85837 0.41106 0.80256 0.0
C1620 C 0.86427 0.39244 0.78899 0.0
C1621 C 0.84852 0.36894 0.78445 0.0
C1622 C 0.82706 0.36442 0.7932 0.0
C1623 C 0.82161 0.38374 0.80682 0.0
H1624 H 0.02433 0.86541 0.06402 0.0
H1625 H 0.09901 0.88311 0.08144 0.0
H1626 H 0.10373 0.9228 0.06952 0.0
H1627 H 0.02322 0.89505 0.01309 0.0
H1628 H 0.99928 0.90562 0.02049 0.0
H1629 H 1.00202 0.87821 0.02885 0.0
H1630 H 1.00102 0.89577 0.07271 0.0
H1631 H 0.99835 0.92326 0.06451 0.0
H1632 H 0.02163 0.92459 0.08707 0.0
H1633 H 0.0999 0.96182 0.05578 0.0
H1634 H 0.0883 0.99562 0.04364 0.0
H1635 H 0.01585 0.9536 0.03715 0.0
C1636 C 0.04179 0.87736 0.065 0.0
C1637 C 0.06136 0.87052 0.07343 0.0
C1638 C 0.08371 0.8874 0.07487 0.0
C1639 C 0.08653 0.91015 0.06813 0.0
C1640 C 0.06685 0.91627 0.06017 0.0
C1641 C 0.04488 0.90029 0.0587 0.0
C1642 C 0.02644 0.91156 0.05067 0.0
C1643 C 0.01188 0.89672 0.02686 0.0
C1644 C 0.01095 0.91393 0.06989 0.0
C1645 C 0.04133 0.93643 0.04779 0.0
C1646 C 0.06463 0.93873 0.05318 0.0
C1647 C 0.08167 0.96003 0.05166 0.0
C1648 C 0.07485 0.97931 0.04471 0.0
C1649 C 0.05109 0.97778 0.03943 0.0
C1650 C 0.03418 0.95573 0.041 0.0
H1651 H 0.93924 0.2745 0.87 0.0
H1652 H 0.91498 0.27061 0.93792 0.0
H1653 H 0.87787 0.27552 0.9212 0.0
H1654 H 0.9129 0.31808 0.85304 0.0
H1655 H 0.90516 0.3034 0.82213 0.0
H1656 H 0.92997 0.30052 0.83975 0.0
H1657 H 0.91279 0.25377 0.82865 0.0
H1658 H 0.88793 0.2565 0.81099 0.0
H1659 H 0.88395 0.23933 0.83434 0.0
H1660 H 0.8438 0.28304 0.89699 0.0
H1661 H 0.81459 0.28801 0.86687 0.0
H1662 H 0.85954 0.28309 0.81362 0.0
C1663 C 0.92616 0.27482 0.88141 0.0
C1664 C 0.93018 0.27241 0.90542 0.0
C1665 C 0.91239 0.27244 0.91955 0.0
C1666 C 0.89126 0.2753 0.91018 0.0
C1667 C 0.88788 0.27763 0.88644 0.0
C1668 C 0.90475 0.27702 0.87215 0.0
C1669 C 0.89645 0.27874 0.84692 0.0
C1670 C 0.91205 0.30154 0.84006 0.0
C1671 C 0.89521 0.25571 0.82918 0.0
C1672 C 0.87235 0.28068 0.84921 0.0
C1673 C 0.86785 0.28034 0.87223 0.0
C1674 C 0.84712 0.283 0.87888 0.0
C1675 C 0.83061 0.2859 0.86163 0.0
C1676 C 0.83457 0.2857 0.83776 0.0
C1677 C 0.85578 0.28295 0.83158 0.0
H1678 H 0.51547 0.22308 0.57647 0.0
H1679 H 0.58842 0.25878 0.57608 0.0
H1680 H 0.59412 0.21883 0.56347 0.0
H1681 H 0.52433 0.17382 0.60159 0.0
H1682 H 0.49843 0.15142 0.58482 0.0
H1683 H 0.49959 0.18276 0.59176 0.0
H1684 H 0.48906 0.18217 0.54705 0.0
H1685 H 0.48783 0.15079 0.54004 0.0
H1686 H 0.50651 0.17272 0.52623 0.0
H1687 H 0.59187 0.17412 0.55071 0.0
H1688 H 0.58264 0.12947 0.54219 0.0
H1689 H 0.51181 0.1222 0.55384 0.0
C1690 C 0.53257 0.22254 0.57328 0.0
C1691 C 0.55143 0.2444 0.57687 0.0
C1692 C 0.57363 0.24256 0.57324 0.0
C1693 C 0.57703 0.21984 0.56605 0.0
C1694 C 0.55817 0.19871 0.56289 0.0
C1695 C 0.53638 0.19987 0.56662 0.0
C1696 C 0.51936 0.17438 0.56353 0.0
C1697 C 0.50987 0.17037 0.58681 0.0
C1698 C 0.49952 0.16975 0.54299 0.0
C1699 C 0.53491 0.15872 0.55744 0.0
C1700 C 0.55717 0.17312 0.55685 0.0
C1701 C 0.57449 0.16278 0.55125 0.0
C1702 C 0.56905 0.13726 0.54634 0.0
C1703 C 0.54652 0.12199 0.54737 0.0
C1704 C 0.52928 0.13314 0.553 0.0
H1705 H 0.54496 0.77634 0.35868 0.0
H1706 H 0.5774 0.79996 0.43254 0.0
H1707 H 0.61613 0.80869 0.41967 0.0
H1708 H 0.58519 0.74687 0.33836 0.0
H1709 H 0.58457 0.75611 0.31003 0.0
H1710 H 0.55958 0.75233 0.32511 0.0
H1711 H 0.56042 0.79634 0.32339 0.0
H1712 H 0.5854 0.80025 0.30827 0.0
H1713 H 0.58662 0.82097 0.33541 0.0
H1714 H 0.65151 0.81372 0.39836 0.0
H1715 H 0.68029 0.81574 0.3707 0.0
H1716 H 0.62438 0.7888 0.31089 0.0
C1717 C 0.56017 0.78346 0.37222 0.0
C1718 C 0.55807 0.78745 0.39669 0.0
C1719 C 0.57851 0.79678 0.41372 0.0
C1720 C 0.60059 0.80177 0.40656 0.0
C1721 C 0.60198 0.79743 0.38229 0.0
C1722 C 0.58228 0.78858 0.3654 0.0
C1723 C 0.5884 0.78531 0.34045 0.0
C1724 C 0.57887 0.75857 0.32775 0.0
C1725 C 0.5797 0.8017 0.32604 0.0
C1726 C 0.61467 0.79359 0.34588 0.0
C1727 C 0.62219 0.80047 0.37011 0.0
C1728 C 0.64576 0.8084 0.37937 0.0
C1729 C 0.66199 0.80934 0.3635 0.0
C1730 C 0.65468 0.80244 0.33856 0.0
C1731 C 0.63062 0.79451 0.32979 0.0
H1732 H 0.01587 0.26911 0.42057 0.0
H1733 H 0.07531 0.2727 0.38372 0.0
H1734 H 0.08459 0.24236 0.40493 0.0
H1735 H 0.04203 0.26132 0.47724 0.0
H1736 H 0.01526 0.24083 0.48209 0.0
H1737 H 0.0146 0.264 0.46528 0.0
H1738 H 0.98845 0.23121 0.43005 0.0
H1739 H 0.98917 0.20794 0.44665 0.0
H1740 H 0.99816 0.20627 0.41771 0.0
H1741 H 0.08553 0.20912 0.42869 0.0
H1742 H 0.07922 0.17808 0.45378 0.0
H1743 H 0.0187 0.19644 0.47408 0.0
C1744 C 0.03108 0.26387 0.4171 0.0
C1745 C 0.04488 0.27345 0.4004 0.0
C1746 C 0.06453 0.26583 0.39648 0.0
C1747 C 0.06988 0.24851 0.40841 0.0
C1748 C 0.05551 0.23905 0.42431 0.0
C1749 C 0.03662 0.24669 0.42878 0.0
C1750 C 0.02337 0.23331 0.446 0.0
C1751 C 0.02385 0.25092 0.46902 0.0
C1752 C 0.99831 0.21882 0.4344 0.0
C1753 C 0.03754 0.21666 0.45041 0.0
C1754 C 0.05604 0.2202 0.43781 0.0
C1755 C 0.07115 0.20636 0.4387 0.0
C1756 C 0.06731 0.1886 0.45288 0.0
C1757 C 0.04849 0.18476 0.46604 0.0
C1758 C 0.03349 0.1991 0.46463 0.0
H1759 H 0.59812 0.24634 0.25626 0.0
H1760 H 0.59471 0.2984 0.21157 0.0
H1761 H 0.63736 0.31108 0.21435 0.0
H1762 H 0.6512 0.28395 0.29525 0.0
H1763 H 0.66238 0.25913 0.29812 0.0
H1764 H 0.63149 0.25385 0.29271 0.0
H1765 H 0.62794 0.22113 0.25549 0.0
H1766 H 0.65883 0.22634 0.26076 0.0
H1767 H 0.64517 0.22883 0.23251 0.0
H1768 H 0.68039 0.31808 0.22138 0.0
H1769 H 0.72079 0.31975 0.23265 0.0
H1770 H 0.69815 0.26379 0.27376 0.0
C1771 C 0.60631 0.26044 0.24706 0.0
C1772 C 0.59271 0.27132 0.23362 0.0
C1773 C 0.60442 0.28971 0.22196 0.0
C1774 C 0.62876 0.29706 0.22343 0.0
C1775 C 0.64154 0.28598 0.2367 0.0
C1776 C 0.63078 0.2681 0.2484 0.0
C1777 C 0.64884 0.25934 0.26158 0.0
C1778 C 0.64845 0.26437 0.28851 0.0
C1779 C 0.64496 0.2323 0.25201 0.0
C1780 C 0.67139 0.27503 0.25539 0.0
C1781 C 0.6666 0.2902 0.24098 0.0
C1782 C 0.68428 0.30633 0.23273 0.0
C1783 C 0.70737 0.30714 0.23936 0.0
C1784 C 0.71312 0.29204 0.25431 0.0
C1785 C 0.69462 0.27565 0.26234 0.0
H1786 H 0.50817 0.89267 0.89638 0.0
H1787 H 0.57933 0.8919 0.90823 0.0
H1788 H 0.58991 0.93131 0.93665 0.0
H1789 H 0.52263 0.9585 0.89894 0.0
H1790 H 0.49796 0.96057 0.91312 0.0
H1791 H 0.49652 0.93298 0.89329 0.0
H1792 H 0.48542 0.90886 0.9265 0.0
H1793 H 0.48695 0.93636 0.94646 0.0
H1794 H 0.50409 0.91774 0.95482 0.0
H1795 H 0.59122 0.96884 0.96761 0.0
H1796 H 0.58444 0.00289 0.99425 0.0
H1797 H 0.51327 0.98116 0.9592 0.0
C1798 C 0.52608 0.90092 0.90474 0.0
C1799 C 0.54294 0.88907 0.9001 0.0
C1800 C 0.56616 0.90062 0.91133 0.0
C1801 C 0.57226 0.92297 0.9276 0.0
C1802 C 0.55507 0.93392 0.93207 0.0
C1803 C 0.53253 0.92345 0.92052 0.0
C1804 C 0.51726 0.93884 0.92822 0.0
C1805 C 0.50805 0.94828 0.90714 0.0
C1806 C 0.49726 0.92459 0.93968 0.0
C1807 C 0.5345 0.95937 0.94642 0.0
C1808 C 0.55619 0.95611 0.94857 0.0
C1809 C 0.57442 0.97175 0.96562 0.0
C1810 C 0.57041 0.99105 0.98074 0.0
C1811 C 0.54848 0.99503 0.97853 0.0
C1812 C 0.5304 0.97902 0.96092 0.0
H1813 H 0.94421 0.78506 0.71356 0.0
H1814 H 0.95355 0.72962 0.7512 0.0
H1815 H 0.91605 0.72664 0.76605 0.0
H1816 H 0.92135 0.81534 0.76033 0.0
H1817 H 0.90154 0.82355 0.74042 0.0
H1818 H 0.92795 0.81981 0.73126 0.0
H1819 H 0.90421 0.78833 0.69404 0.0
H1820 H 0.87773 0.79201 0.70309 0.0
H1821 H 0.88132 0.76232 0.6976 0.0
H1822 H 0.87584 0.72917 0.77598 0.0
H1823 H 0.84033 0.74001 0.78352 0.0
H1824 H 0.85931 0.79702 0.74318 0.0
C1825 C 0.93822 0.77202 0.72467 0.0
C1826 C 0.95182 0.75718 0.73076 0.0
C1827 C 0.94351 0.74097 0.74598 0.0
C1828 C 0.92213 0.73917 0.75451 0.0
C1829 C 0.90923 0.75412 0.74824 0.0
C1830 C 0.91722 0.77052 0.73392 0.0
C1831 C 0.90098 0.78575 0.73112 0.0
C1832 C 0.91372 0.81271 0.74139 0.0
C1833 C 0.89044 0.78186 0.7049 0.0
C1834 C 0.88249 0.77533 0.74591 0.0
C1835 C 0.88732 0.75679 0.75532 0.0
C1836 C 0.87217 0.74385 0.76884 0.0
C1837 C 0.8519 0.7501 0.77302 0.0
C1838 C 0.84691 0.76957 0.76426 0.0
C1839 C 0.86261 0.78225 0.75048 0.0
H1840 H 0.1215 0.06101 0.87457 0.0
H1841 H 0.05635 0.05015 0.8298 0.0
H1842 H 0.03541 0.04289 0.86384 0.0
H1843 H 0.10137 0.01696 0.90908 0.0
H1844 H 0.11832 0.03486 0.93688 0.0
H1845 H 0.12853 0.03983 0.90926 0.0
H1846 H 0.13131 0.08518 0.92011 0.0
H1847 H 0.12144 0.08042 0.94793 0.0
H1848 H 0.10622 0.09334 0.9279 0.0
H1849 H 0.02119 0.03223 0.90118 0.0
H1850 H 0.01496 0.02665 0.94188 0.0
H1851 H 0.08943 0.04872 0.96405 0.0
C1852 C 0.10288 0.0574 0.87206 0.0
C1853 C 0.09049 0.05603 0.84955 0.0
C1854 C 0.06616 0.05146 0.84695 0.0
C1855 C 0.0541 0.04712 0.86612 0.0
C1856 C 0.06671 0.04799 0.88792 0.0
C1857 C 0.09062 0.05371 0.89123 0.0
C1858 C 0.09997 0.05425 0.91677 0.0
C1859 C 0.1128 0.03535 0.91806 0.0
C1860 C 0.11566 0.07982 0.9289 0.0
C1861 C 0.07754 0.04743 0.92713 0.0
C1862 C 0.05856 0.04348 0.91002 0.0
C1863 C 0.03591 0.03564 0.91484 0.0
C1864 C 0.03254 0.0323 0.93791 0.0
C1865 C 0.05171 0.03728 0.95599 0.0
C1866 C 0.0745 0.04491 0.95052 0.0
H1867 H 0.80186 0.34777 0.55734 0.0
H1868 H 0.74172 0.36963 0.57275 0.0
H1869 H 0.73125 0.33786 0.59677 0.0
H1870 H 0.77516 0.28125 0.55621 0.0
H1871 H 0.80224 0.2793 0.57005 0.0
H1872 H 0.80228 0.30044 0.55059 0.0
H1873 H 0.82821 0.33555 0.58405 0.0
H1874 H 0.82818 0.31465 0.60357 0.0
H1875 H 0.81859 0.34058 0.61251 0.0
H1876 H 0.73189 0.30946 0.62488 0.0
H1877 H 0.74311 0.28695 0.65394 0.0
H1878 H 0.80151 0.28167 0.61814 0.0
C1879 C 0.78614 0.3455 0.56527 0.0
C1880 C 0.77262 0.36117 0.56328 0.0
C1881 C 0.75223 0.35769 0.57395 0.0
C1882 C 0.74614 0.33967 0.58756 0.0
C1883 C 0.76036 0.32503 0.58982 0.0
C1884 C 0.77976 0.32755 0.57865 0.0
C1885 C 0.79355 0.31144 0.58574 0.0
C1886 C 0.79328 0.29194 0.56437 0.0
C1887 C 0.81859 0.32646 0.59715 0.0
C1888 C 0.77965 0.30043 0.60373 0.0
C1889 C 0.76036 0.30816 0.60559 0.0
C1890 C 0.74654 0.30272 0.62308 0.0
C1891 C 0.75304 0.28977 0.63951 0.0
C1892 C 0.77325 0.28244 0.63844 0.0
C1893 C 0.78604 0.28703 0.61961 0.0
H1894 H 0.44233 0.07613 0.38584 0.0
H1895 H 0.48663 0.05247 0.33895 0.0
H1896 H 0.50865 0.04404 0.37282 0.0
H1897 H 0.48726 0.10478 0.43699 0.0
H1898 H 0.46839 0.09502 0.45812 0.0
H1899 H 0.45655 0.10018 0.43028 0.0
H1900 H 0.42788 0.05649 0.42112 0.0
H1901 H 0.43973 0.05117 0.44886 0.0
H1902 H 0.43902 0.03123 0.42136 0.0
H1903 H 0.52504 0.0368 0.411 0.0
H1904 H 0.53585 0.03254 0.45198 0.0
H1905 H 0.48078 0.06044 0.47425 0.0
C1906 C 0.45669 0.06927 0.3827 0.0
C1907 C 0.46265 0.06484 0.35971 0.0
C1908 C 0.48169 0.05598 0.35639 0.0
C1909 C 0.49432 0.05109 0.37551 0.0
C1910 C 0.48773 0.05521 0.39783 0.0
C1911 C 0.46948 0.0642 0.40161 0.0
C1912 C 0.46586 0.06661 0.42739 0.0
C1913 C 0.46975 0.09323 0.43887 0.0
C1914 C 0.44169 0.05041 0.42981 0.0
C1915 C 0.48486 0.05742 0.43739 0.0
C1916 C 0.49725 0.05097 0.42001 0.0
C1917 C 0.51555 0.04186 0.42483 0.0
C1918 C 0.52151 0.03947 0.44817 0.0
C1919 C 0.50918 0.04616 0.46635 0.0
C1920 C 0.49054 0.05514 0.46077 0.0
H1921 H 0.83 0.76117 0.10503 0.0
H1922 H 0.75769 0.72836 0.07335 0.0
H1923 H 0.74584 0.73708 0.11272 0.0
H1924 H 0.82457 0.7375 0.15821 0.0
H1925 H 0.84464 0.76404 0.17758 0.0
H1926 H 0.84781 0.75708 0.14674 0.0
H1927 H 0.84604 0.7994 0.14143 0.0
H1928 H 0.84315 0.80659 0.17235 0.0
H1929 H 0.82183 0.80904 0.14969 0.0
H1930 H 0.74158 0.74812 0.15569 0.0
H1931 H 0.74518 0.76032 0.19918 0.0
H1932 H 0.82028 0.78497 0.20414 0.0
C1933 C 0.81165 0.75625 0.1063 0.0
C1934 C 0.79476 0.74429 0.08586 0.0
C1935 C 0.77097 0.73763 0.08856 0.0
C1936 C 0.76405 0.74251 0.11091 0.0
C1937 C 0.78108 0.75392 0.13069 0.0
C1938 C 0.80441 0.76071 0.12866 0.0
C1939 C 0.81915 0.77175 0.15303 0.0
C1940 C 0.83498 0.75669 0.15925 0.0
C1941 C 0.83338 0.79827 0.15419 0.0
C1942 C 0.80045 0.77001 0.16899 0.0
C1943 C 0.77863 0.75979 0.15566 0.0
C1944 C 0.7586 0.75619 0.16628 0.0
C1945 C 0.76085 0.76321 0.19111 0.0
C1946 C 0.78299 0.77366 0.20535 0.0
C1947 C 0.80305 0.77703 0.19394 0.0
H1948 H 0.08102 0.01338 0.69465 0.0
H1949 H 0.11608 0.08952 0.72451 0.0
H1950 H 0.10665 0.09971 0.68558 0.0
H1951 H 0.09944 0.01375 0.63701 0.0
H1952 H 0.07229 0.99275 0.62128 0.0
H1953 H 0.08197 0.99155 0.65146 0.0
H1954 H 0.04332 0.99617 0.66352 0.0
H1955 H 0.03359 0.99751 0.6334 0.0
H1956 H 0.03444 0.02163 0.65747 0.0
H1957 H 0.0928 0.1016 0.64328 0.0
H1958 H 0.07688 0.09484 0.60076 0.0
H1959 H 0.05115 0.01744 0.59883 0.0
C1960 C 0.0868 0.03221 0.69303 0.0
C1961 C 0.09929 0.05066 0.7127 0.0
C1962 C 0.10652 0.07506 0.70974 0.0
C1963 C 0.10121 0.08104 0.68769 0.0
C1964 C 0.08871 0.06242 0.66874 0.0
C1965 C 0.08171 0.03848 0.67117 0.0
C1966 C 0.06856 0.02188 0.64803 0.0
C1967 C 0.08133 0.00393 0.63891 0.0
C1968 C 0.04349 0.00852 0.65078 0.0
C1969 C 0.06921 0.04021 0.63222 0.0
C1970 C 0.08086 0.0635 0.64447 0.0
C1971 C 0.08366 0.08343 0.63351 0.0
C1972 C 0.07451 0.07941 0.60934 0.0
C1973 C 0.06272 0.05563 0.59637 0.0
C1974 C 0.06 0.03587 0.60815 0.0
H1975 H 0.77733 0.39965 0.44197 0.0
H1976 H 0.80279 0.35057 0.4776 0.0
H1977 H 0.79913 0.32367 0.43898 0.0
H1978 H 0.73667 0.35333 0.3932 0.0
H1979 H 0.74369 0.37176 0.37119 0.0
H1980 H 0.7455 0.3859 0.40178 0.0
H1981 H 0.78829 0.41079 0.40213 0.0
H1982 H 0.78664 0.3967 0.37161 0.0
H1983 H 0.80878 0.39521 0.39395 0.0
H1984 H 0.79496 0.30338 0.39749 0.0
H1985 H 0.79259 0.29127 0.35439 0.0
H1986 H 0.77169 0.35416 0.34407 0.0
C1987 C 0.78162 0.38296 0.44153 0.0
C1988 C 0.7901 0.37692 0.46264 0.0
C1989 C 0.7962 0.35536 0.46154 0.0
C1990 C 0.79408 0.33995 0.43974 0.0
C1991 C 0.78607 0.34651 0.41918 0.0
C1992 C 0.78005 0.36752 0.41974 0.0
C1993 C 0.77392 0.37117 0.39471 0.0
C1994 C 0.74842 0.37049 0.38994 0.0
C1995 C 0.7904 0.39487 0.39035 0.0
C1996 C 0.77782 0.34913 0.38014 0.0
C1997 C 0.78447 0.33506 0.39475 0.0
C1998 C 0.78965 0.31414 0.3858 0.0
C1999 C 0.78827 0.30745 0.36121 0.0
C2000 C 0.78197 0.32175 0.34573 0.0
C2001 C 0.77647 0.34279 0.35539 0.0
H2002 H 0.42565 0.0463 0.21951 0.0
H2003 H 0.41723 0.98141 0.2488 0.0
H2004 H 0.42094 0.95905 0.21019 0.0
H2005 H 0.39831 0.01461 0.15536 0.0
H2006 H 0.41973 0.0364 0.14395 0.0
H2007 H 0.40995 0.04549 0.17148 0.0
H2008 H 0.45255 0.0614 0.19283 0.0
H2009 H 0.46237 0.05237 0.16551 0.0
H2010 H 0.46995 0.04118 0.19151 0.0
H2011 H 0.43342 0.94622 0.17217 0.0
H2012 H 0.45462 0.94434 0.13785 0.0
H2013 H 0.45624 0.01778 0.13354 0.0
C2014 C 0.42361 0.02713 0.2174 0.0
C2015 C 0.42097 0.01547 0.23691 0.0
C2016 C 0.41918 0.9906 0.23393 0.0
C2017 C 0.42107 0.9777 0.21202 0.0
C2018 C 0.42473 0.98993 0.1933 0.0
C2019 C 0.42585 0.01409 0.19569 0.0
C2020 C 0.43377 0.02406 0.17426 0.0
C2021 C 0.41427 0.03051 0.16044 0.0
C2022 C 0.45597 0.04602 0.18147 0.0
C2023 C 0.43843 0.00228 0.16031 0.0
C2024 C 0.43244 0.98255 0.1712 0.0
C2025 C 0.43765 0.96132 0.16311 0.0
C2026 C 0.44985 0.96047 0.14376 0.0
C2027 C 0.45688 0.98083 0.13295 0.0
C2028 C 0.45045 1.00165 0.14095 0.0
H2029 H 0.82955 0.76565 0.95698 0.0
H2030 H 0.75654 0.73238 0.96002 0.0
H2031 H 0.74631 0.74076 0.92057 0.0
H2032 H 0.82167 0.81336 0.92446 0.0
H2033 H 0.84418 0.81122 0.90687 0.0
H2034 H 0.84593 0.8048 0.93642 0.0
H2035 H 0.84944 0.76268 0.91953 0.0
H2036 H 0.84748 0.76886 0.88993 0.0
H2037 H 0.82736 0.74222 0.89625 0.0
H2038 H 0.7438 0.74882 0.87953 0.0
H2039 H 0.74872 0.75837 0.84009 0.0
H2040 H 0.82332 0.78761 0.86213 0.0
C2041 C 0.81136 0.76072 0.94965 0.0
C2042 C 0.79384 0.74846 0.96194 0.0
C2043 C 0.77032 0.74185 0.95125 0.0
C2044 C 0.76431 0.74651 0.92874 0.0
C2045 C 0.78196 0.75792 0.91688 0.0
C2046 C 0.80501 0.76522 0.92699 0.0
C2047 C 0.82051 0.77618 0.90974 0.0
C2048 C 0.83387 0.80299 0.91999 0.0
C2049 C 0.83718 0.76161 0.9035 0.0
C2050 C 0.80257 0.7735 0.88825 0.0
C2051 C 0.78047 0.7629 0.89294 0.0
C2052 C 0.761 0.75737 0.87577 0.0
C2053 C 0.76405 0.76279 0.85327 0.0
C2054 C 0.78642 0.77383 0.84777 0.0
C2055 C 0.80597 0.77943 0.86572 0.0
H2056 H 0.84793 0.13448 0.01553 0.0
H2057 H 0.81594 0.10473 0.07264 0.0
H2058 H 0.83844 0.07578 0.07032 0.0
H2059 H 0.84513 0.07923 0.98112 0.0
H2060 H 0.87248 0.0898 0.97057 0.0
H2061 H 0.85656 0.11056 0.97881 0.0
H2062 H 0.89223 0.13886 0.00874 0.0
H2063 H 0.90843 0.11837 0.00031 0.0
H2064 H 0.90557 0.12673 0.03108 0.0
H2065 H 0.86212 0.04824 0.05986 0.0
H2066 H 0.88668 0.02499 0.04301 0.0
H2067 H 0.9007 0.07088 0.99072 0.0
C2068 C 0.8462 0.12235 0.02801 0.0
C2069 C 0.83041 0.12191 0.0444 0.0
C2070 C 0.82808 0.10537 0.06003 0.0
C2071 C 0.84076 0.08888 0.05884 0.0
C2072 C 0.85556 0.08915 0.04187 0.0
C2073 C 0.85848 0.10555 0.02683 0.0
C2074 C 0.87413 0.10086 0.00902 0.0
C2075 C 0.8613 0.09475 0.98337 0.0
C2076 C 0.89641 0.12249 0.01251 0.0
C2077 C 0.87919 0.07901 0.01614 0.0
C2078 C 0.86853 0.07269 0.03526 0.0
C2079 C 0.8706 0.05302 0.04489 0.0
C2080 C 0.88434 0.03971 0.03497 0.0
C2081 C 0.89559 0.046 0.01545 0.0
C2082 C 0.89262 0.06575 0.00581 0.0
H2083 H 0.38519 0.42205 0.05338 0.0
H2084 H 0.34343 0.45319 0.01036 0.0
H2085 H 0.37886 0.48169 0.0024 0.0
H2086 H 0.42899 0.4772 0.08004 0.0
H2087 H 0.45292 0.46495 0.07928 0.0
H2088 H 0.42435 0.44564 0.0808 0.0
H2089 H 0.42581 0.41621 0.04281 0.0
H2090 H 0.45451 0.4353 0.04132 0.0
H2091 H 0.43186 0.42771 0.01618 0.0
H2092 H 0.41805 0.50878 0.00121 0.0
H2093 H 0.45951 0.53084 0.00389 0.0
H2094 H 0.47712 0.48228 0.04663 0.0
C2095 C 0.38355 0.4346 0.04198 0.0
C2096 C 0.36144 0.43535 0.03255 0.0
C2097 C 0.36008 0.45221 0.01786 0.0
C2098 C 0.38014 0.46856 0.01322 0.0
C2099 C 0.40158 0.46782 0.02323 0.0
C2100 C 0.40354 0.45113 0.03703 0.0
C2101 C 0.42891 0.45466 0.04578 0.0
C2102 C 0.43409 0.46099 0.0731 0.0
C2103 C 0.43567 0.43213 0.03593 0.0
C2104 C 0.44073 0.47611 0.035 0.0
C2105 C 0.42453 0.48339 0.02214 0.0
C2106 C 0.43095 0.50315 0.01105 0.0
C2107 C 0.4546 0.51567 0.0128 0.0
C2108 C 0.47168 0.50835 0.02544 0.0
C2109 C 0.46454 0.48831 0.03677 0.0
H2110 H 0.38633 0.59926 0.81072 0.0
H2111 H 0.40819 0.59349 0.74106 0.0
H2112 H 0.3853 0.61968 0.72997 0.0
H2113 H 0.32774 0.59854 0.79104 0.0
H2114 H 0.32723 0.62006 0.81689 0.0
H2115 H 0.3448 0.60031 0.81903 0.0
H2116 H 0.3811 0.63762 0.83542 0.0
H2117 H 0.36367 0.65749 0.83326 0.0
H2118 H 0.38893 0.66128 0.81856 0.0
H2119 H 0.36085 0.64758 0.72694 0.0
H2120 H 0.33666 0.67476 0.73213 0.0
H2121 H 0.33042 0.6616 0.80354 0.0
C2122 C 0.38625 0.60335 0.79306 0.0
C2123 C 0.39911 0.59425 0.77678 0.0
C2124 C 0.3985 0.60017 0.75388 0.0
C2125 C 0.38554 0.61505 0.7474 0.0
C2126 C 0.37323 0.62382 0.76397 0.0
C2127 C 0.37343 0.61813 0.7863 0.0
C2128 C 0.35902 0.63016 0.80096 0.0
C2129 C 0.33848 0.61113 0.80735 0.0
C2130 C 0.37409 0.64767 0.82337 0.0
C2131 C 0.35083 0.64372 0.78347 0.0
C2132 C 0.35914 0.63977 0.7622 0.0
C2133 C 0.35411 0.65065 0.74346 0.0
C2134 C 0.34024 0.66596 0.74654 0.0
C2135 C 0.33154 0.67029 0.76822 0.0
C2136 C 0.33695 0.65889 0.78684 0.0
H2137 H 0.19562 0.65493 0.54747 0.0
H2138 H 0.22221 0.60282 0.57667 0.0
H2139 H 0.18219 0.57771 0.57742 0.0
H2140 H 0.14324 0.64687 0.57881 0.0
H2141 H 0.12572 0.64976 0.55305 0.0
H2142 H 0.1564 0.66581 0.55906 0.0
H2143 H 0.16073 0.646 0.51694 0.0
H2144 H 0.13023 0.62953 0.51094 0.0
H2145 H 0.15125 0.61342 0.50818 0.0
H2146 H 0.14002 0.55559 0.56952 0.0
H2147 H 0.0979 0.53884 0.55592 0.0
H2148 H 0.09853 0.605 0.53113 0.0
C2149 C 0.19303 0.63873 0.55489 0.0
C2150 C 0.21193 0.63085 0.5622 0.0
C2151 C 0.20789 0.60917 0.5711 0.0
C2152 C 0.18525 0.59482 0.57161 0.0
C2153 C 0.16692 0.60249 0.56322 0.0
C2154 C 0.17051 0.62407 0.5553 0.0
C2155 C 0.14782 0.62691 0.545 0.0
C2156 C 0.14301 0.64863 0.55987 0.0
C2157 C 0.14751 0.62908 0.51871 0.0
C2158 C 0.13105 0.60317 0.54761 0.0
C2159 C 0.14241 0.58949 0.55839 0.0
C2160 C 0.13084 0.56628 0.56144 0.0
C2161 C 0.10693 0.55687 0.55347 0.0
C2162 C 0.09489 0.57063 0.54249 0.0
C2163 C 0.10719 0.5941 0.53961 0.0
H2164 H 0.73411 0.00306 0.81563 0.0
H2165 H 0.73554 0.01352 0.74288 0.0
H2166 H 0.76941 0.99853 0.74114 0.0
H2167 H 0.79836 0.0171 0.83324 0.0
H2168 H 0.794 0.99366 0.85056 0.0
H2169 H 0.77298 0.00967 0.8477 0.0
H2170 H 0.74042 0.96882 0.83182 0.0
H2171 H 0.76125 0.9528 0.83472 0.0
H2172 H 0.74357 0.94836 0.8064 0.0
H2173 H 0.79915 0.97702 0.7453 0.0
H2174 H 0.82075 0.94901 0.75434 0.0
H2175 H 0.79899 0.95193 0.82392 0.0
C2176 C 0.74194 0.0029 0.79954 0.0
C2177 C 0.73224 0.00959 0.77944 0.0
C2178 C 0.7427 0.00855 0.75855 0.0
C2179 C 0.76206 1.00022 0.75744 0.0
C2180 C 0.77081 0.99316 0.77741 0.0
C2181 C 0.7611 0.9945 0.7981 0.0
C2182 C 0.77172 0.98297 0.81598 0.0
C2183 C 0.78506 1.00199 0.83818 0.0
C2184 C 0.75314 0.962 0.82259 0.0
C2185 C 0.78811 0.97388 0.8017 0.0
C2186 C 0.78778 0.98043 0.77972 0.0
C2187 C 0.79987 0.97215 0.76262 0.0
C2188 C 0.81199 0.95616 0.76786 0.0
C2189 C 0.81166 0.9484 0.78989 0.0
C2190 C 0.80016 0.95805 0.80721 0.0
H2191 H 0.75056 0.96247 0.56537 0.0
H2192 H 0.71902 0.89069 0.52156 0.0
H2193 H 0.68385 0.90192 0.50986 0.0
H2194 H 0.69805 0.97005 0.58578 0.0
H2195 H 0.70651 1.00188 0.58492 0.0
H2196 H 0.72836 0.98748 0.59057 0.0
H2197 H 0.74744 0.0023 0.55517 0.0
H2198 H 0.72557 0.01658 0.54931 0.0
H2199 H 0.73023 0.99472 0.52612 0.0
H2200 H 0.65249 0.92224 0.5019 0.0
H2201 H 0.62823 0.94927 0.49871 0.0
H2202 H 0.68105 0.00726 0.54803 0.0
C2203 C 0.73622 0.94894 0.55348 0.0
C2204 C 0.73758 0.92564 0.54443 0.0
C2205 C 0.71837 0.90861 0.52882 0.0
C2206 C 0.69834 0.91486 0.52206 0.0
C2207 C 0.69777 0.93817 0.5311 0.0
C2208 C 0.71623 0.95486 0.54658 0.0
C2209 C 0.71175 0.97891 0.55341 0.0
C2210 C 0.71113 0.98492 0.58026 0.0
C2211 C 0.72982 0.99932 0.54552 0.0
C2212 C 0.68798 0.97333 0.53915 0.0
C2213 C 0.68006 0.94974 0.52646 0.0
C2214 C 0.65853 0.9407 0.51186 0.0
C2215 C 0.64483 0.95617 0.51021 0.0
C2216 C 0.65274 0.98049 0.52299 0.0
C2217 C 0.6746 0.98895 0.53769 0.0
H2218 H 0.39406 0.47352 0.81427 0.0
H2219 H 0.38132 0.48478 0.74232 0.0
H2220 H 0.35183 0.44411 0.7312 0.0
H2221 H 0.39049 0.41099 0.79726 0.0
H2222 H 0.37724 0.40237 0.82248 0.0
H2223 H 0.39621 0.43272 0.82476 0.0
H2224 H 0.36366 0.44993 0.83787 0.0
H2225 H 0.34454 0.41961 0.83549 0.0
H2226 H 0.33575 0.4401 0.81926 0.0
H2227 H 0.32256 0.40234 0.7287 0.0
H2228 H 0.2998 0.36145 0.73363 0.0
H2229 H 0.33453 0.377 0.80632 0.0
C2230 C 0.38494 0.46749 0.7962 0.0
C2231 C 0.38971 0.48234 0.77919 0.0
C2232 C 0.37784 0.47364 0.75561 0.0
C2233 C 0.36102 0.45065 0.74919 0.0
C2234 C 0.35664 0.43648 0.76648 0.0
C2235 C 0.36858 0.44446 0.7894 0.0
C2236 C 0.36175 0.42533 0.80432 0.0
C2237 C 0.38267 0.41738 0.81269 0.0
C2238 C 0.35077 0.43428 0.82548 0.0
C2239 C 0.34398 0.40533 0.78631 0.0
C2240 C 0.34095 0.41217 0.76467 0.0
C2241 C 0.32494 0.39676 0.74552 0.0
C2242 C 0.31201 0.37366 0.7485 0.0
C2243 C 0.31553 0.3661 0.77029 0.0
C2244 C 0.33164 0.38225 0.78939 0.0
H2245 H 0.18014 0.62682 0.32311 0.0
H2246 H 0.19367 0.58633 0.2591 0.0
H2247 H 0.21684 0.62466 0.24936 0.0
H2248 H 0.17353 0.67682 0.29681 0.0
H2249 H 0.18703 0.69936 0.32335 0.0
H2250 H 0.17175 0.6688 0.32563 0.0
H2251 H 0.20842 0.66613 0.35032 0.0
H2252 H 0.22387 0.69667 0.34824 0.0
H2253 H 0.23542 0.67238 0.33849 0.0
H2254 H 0.24019 0.66669 0.24787 0.0
H2255 H 0.26012 0.71052 0.2529 0.0
H2256 H 0.22929 0.72415 0.31641 0.0
C2257 C 0.18808 0.62603 0.3071 0.0
C2258 C 0.18538 0.60366 0.29194 0.0
C2259 C 0.19561 0.60332 0.27093 0.0
C2260 C 0.2088 0.62495 0.26529 0.0
C2261 C 0.21119 0.64669 0.28066 0.0
C2262 C 0.20092 0.64746 0.30098 0.0
C2263 C 0.20577 0.6733 0.31416 0.0
C2264 C 0.18317 0.67996 0.31503 0.0
C2265 C 0.21917 0.67735 0.33928 0.0
C2266 C 0.22076 0.68692 0.29826 0.0
C2267 C 0.22376 0.67116 0.27914 0.0
C2268 C 0.23778 0.67924 0.26259 0.0
C2269 C 0.24908 0.70411 0.26566 0.0
C2270 C 0.24602 0.72059 0.28492 0.0
C2271 C 0.23155 0.71191 0.30131 0.0
H2272 H 0.46921 0.68723 0.47689 0.0
H2273 H 0.53791 0.73984 0.49091 0.0
H2274 H 0.55394 0.71 0.50622 0.0
H2275 H 0.47494 0.65767 0.52732 0.0
H2276 H 0.45971 0.62745 0.51096 0.0
H2277 H 0.45287 0.65303 0.50227 0.0
H2278 H 0.46087 0.64014 0.45985 0.0
H2279 H 0.46766 0.61439 0.46815 0.0
H2280 H 0.48843 0.63571 0.4556 0.0
H2281 H 0.56268 0.6745 0.52138 0.0
H2282 H 0.56434 0.63558 0.53093 0.0
H2283 H 0.49094 0.60314 0.50373 0.0
C2284 C 0.4876 0.69259 0.48345 0.0
C2285 C 0.50219 0.71639 0.48296 0.0
C2286 C 0.52625 0.72209 0.49117 0.0
C2287 C 0.53553 0.70514 0.49997 0.0
C2288 C 0.52078 0.68198 0.50015 0.0
C2289 C 0.49734 0.67551 0.49176 0.0
C2290 C 0.48564 0.64884 0.49265 0.0
C2291 C 0.46719 0.64662 0.50929 0.0
C2292 C 0.47502 0.63389 0.46757 0.0
C2293 C 0.5061 0.64136 0.5029 0.0
C2294 C 0.52611 0.66099 0.50745 0.0
C2295 C 0.5471 0.65906 0.51767 0.0
C2296 C 0.54784 0.63671 0.52319 0.0
C2297 C 0.52788 0.61589 0.5182 0.0
C2298 C 0.50666 0.61845 0.50777 0.0
H2299 H 0.62931 0.32193 0.70554 0.0
H2300 H 0.65218 0.3226 0.63661 0.0
H2301 H 0.68897 0.31687 0.65322 0.0
H2302 H 0.68515 0.35386 0.74153 0.0
H2303 H 0.67984 0.33591 0.76416 0.0
H2304 H 0.65591 0.34078 0.74689 0.0
H2305 H 0.6363 0.29438 0.73446 0.0
H2306 H 0.66021 0.28936 0.7516 0.0
H2307 H 0.65208 0.27572 0.72045 0.0
H2308 H 0.7234 0.3105 0.67798 0.0
H2309 H 0.75175 0.30368 0.70763 0.0
H2310 H 0.7058 0.30684 0.76031 0.0
C2311 C 0.64206 0.32108 0.69385 0.0
C2312 C 0.63774 0.32287 0.66965 0.0
C2313 C 0.655 0.32142 0.65515 0.0
C2314 C 0.67597 0.31813 0.66448 0.0
C2315 C 0.67949 0.31625 0.68837 0.0
C2316 C 0.66295 0.3177 0.70282 0.0
C2317 C 0.6706 0.31472 0.72776 0.0
C2318 C 0.67302 0.33769 0.74617 0.0
C2319 C 0.6538 0.29221 0.73392 0.0
C2320 C 0.69409 0.31128 0.72521 0.0
C2321 C 0.69895 0.31228 0.70238 0.0
C2322 C 0.71967 0.30959 0.69583 0.0
C2323 C 0.73573 0.30576 0.71292 0.0
C2324 C 0.73119 0.30469 0.73651 0.0
C2325 C 0.70995 0.3075 0.74254 0.0
H2326 H 0.01968 0.35156 0.97053 0.0
H2327 H 0.96193 0.32847 0.00911 0.0
H2328 H 0.96529 0.37086 0.02439 0.0
H2329 H 0.05287 0.40548 0.01756 0.0
H2330 H 0.06336 0.42409 0.99654 0.0
H2331 H 0.05734 0.3917 0.98887 0.0
H2332 H 0.02964 0.39016 0.95127 0.0
H2333 H 0.03543 0.4225 0.95894 0.0
H2334 H 0.00599 0.40259 0.95424 0.0
H2335 H 0.97174 0.41548 0.03284 0.0
H2336 H 0.9843 0.45999 0.03796 0.0
H2337 H 0.0402 0.45705 0.99742 0.0
C2338 C 0.00803 0.3554 0.98255 0.0
C2339 C 0.99043 0.33609 0.98839 0.0
C2340 C 0.97554 0.3424 0.0041 0.0
C2341 C 0.97725 0.36665 0.01294 0.0
C2342 C 0.99422 0.38504 0.00643 0.0
C2343 C 0.00972 0.37989 0.992 0.0
C2344 C 0.02637 0.40358 0.98809 0.0
C2345 C 0.05148 0.40637 0.99838 0.0
C2346 C 0.02422 0.40477 0.96155 0.0
C2347 C 0.01747 0.4226 0.00221 0.0
C2348 C 0.99873 0.41129 0.0124 0.0
C2349 C 0.98661 0.42454 0.02521 0.0
C2350 C 0.99383 0.44994 0.02793 0.0
C2351 C 0.01333 0.46234 0.01829 0.0
C2352 C 0.02538 0.44829 0.00529 0.0
H2353 H 0.02477 0.79591 0.18718 0.0
H2354 H 0.98763 0.78279 0.11581 0.0
H2355 H 0.95053 0.77522 0.13168 0.0
H2356 H 0.98003 0.75159 0.21061 0.0
H2357 H 0.98518 0.77133 0.23927 0.0
H2358 H 0.00851 0.77268 0.222 0.0
H2359 H 0.01528 0.81863 0.22451 0.0
H2360 H 0.99188 0.81739 0.24158 0.0
H2361 H 0.99151 0.82893 0.21446 0.0
H2362 H 0.91764 0.77211 0.1556 0.0
H2363 H 0.89151 0.77329 0.18554 0.0
H2364 H 0.95007 0.79044 0.24179 0.0
C2365 C 0.00877 0.79072 0.17483 0.0
C2366 C 0.00913 0.78964 0.15016 0.0
C2367 C 0.98784 0.78358 0.1347 0.0
C2368 C 0.96664 0.77923 0.14358 0.0
C2369 C 0.96693 0.78115 0.16804 0.0
C2370 C 0.98744 0.78666 0.18347 0.0
C2371 C 0.9831 0.7894 0.20913 0.0
C2372 C 0.98959 0.7701 0.22094 0.0
C2373 C 0.99622 0.81512 0.22324 0.0
C2374 C 0.95704 0.78493 0.20573 0.0
C2375 C 0.94804 0.78 0.18188 0.0
C2376 C 0.92452 0.77589 0.17432 0.0
C2377 C 0.90981 0.77684 0.19154 0.0
C2378 C 0.9186 0.78208 0.21618 0.0
C2379 C 0.94261 0.78605 0.22319 0.0
H2380 H 0.49245 0.306 0.12157 0.0
H2381 H 0.55746 0.32504 0.16946 0.0
H2382 H 0.57404 0.35898 0.14957 0.0
H2383 H 0.5178 0.32093 0.06881 0.0
H2384 H 0.49504 0.33266 0.05884 0.0
H2385 H 0.48899 0.30899 0.07584 0.0
H2386 H 0.47359 0.33554 0.10648 0.0
H2387 H 0.47974 0.35935 0.0897 0.0
H2388 H 0.49199 0.36552 0.12066 0.0
H2389 H 0.58255 0.3928 0.126 0.0
H2390 H 0.58295 0.42202 0.09951 0.0
H2391 H 0.51227 0.38068 0.06731 0.0
C2392 C 0.51031 0.31703 0.12773 0.0
C2393 C 0.52362 0.3127 0.14715 0.0
C2394 C 0.54688 0.3278 0.1546 0.0
C2395 C 0.55645 0.34721 0.14343 0.0
C2396 C 0.54262 0.35124 0.12472 0.0
C2397 C 0.52011 0.3364 0.1168 0.0
C2398 C 0.50861 0.34495 0.09683 0.0
C2399 C 0.50224 0.32574 0.07371 0.0
C2400 C 0.48723 0.35174 0.10385 0.0
C2401 C 0.52804 0.36714 0.09492 0.0
C2402 C 0.54753 0.37049 0.11114 0.0
C2403 C 0.56742 0.39023 0.11315 0.0
C2404 C 0.56741 0.40685 0.09813 0.0
C2405 C 0.54767 0.40369 0.08124 0.0
C2406 C 0.52778 0.38348 0.07973 0.0
H2407 H 0.95705 0.29106 0.32842 0.0
H2408 H 0.98973 0.3556 0.30187 0.0
H2409 H 0.95107 0.35958 0.28985 0.0
H2410 H 0.9078 0.26734 0.28055 0.0
H2411 H 0.88734 0.25508 0.2994 0.0
H2412 H 0.91753 0.25764 0.30673 0.0
H2413 H 0.9189 0.28283 0.34831 0.0
H2414 H 0.88871 0.28035 0.34109 0.0
H2415 H 0.91011 0.30979 0.35062 0.0
H2416 H 0.90888 0.35766 0.28221 0.0
H2417 H 0.86632 0.34827 0.27622 0.0
H2418 H 0.85954 0.28283 0.30434 0.0
C2419 C 0.95606 0.30608 0.32014 0.0
C2420 C 0.97663 0.32319 0.3163 0.0
C2421 C 0.97441 0.34232 0.30508 0.0
C2422 C 0.95246 0.34473 0.29821 0.0
C2423 C 0.9326 0.32763 0.30223 0.0
C2424 C 0.93414 0.30845 0.31264 0.0
C2425 C 0.90993 0.2921 0.31407 0.0
C2426 C 0.90539 0.26652 0.29931 0.0
C2427 C 0.90673 0.29122 0.34007 0.0
C2428 C 0.89455 0.30519 0.30306 0.0
C2429 C 0.90811 0.3258 0.29664 0.0
C2430 C 0.89815 0.34145 0.287 0.0
C2431 C 0.87385 0.33598 0.28374 0.0
C2432 C 0.85935 0.31476 0.28969 0.0
C2433 C 0.87 0.29907 0.29937 0.0
H2434 H 0.97953 0.69018 0.62266 0.0
H2435 H 0.02603 0.69508 0.68655 0.0
H2436 H 0.03554 0.65915 0.66703 0.0
H2437 H 0.95803 0.62452 0.60573 0.0
H2438 H 0.95748 0.62435 0.57439 0.0
H2439 H 0.9535 0.64962 0.59381 0.0
H2440 H 0.98768 0.679 0.57952 0.0
H2441 H 0.99177 0.65382 0.56007 0.0
H2442 H 0.01561 0.67401 0.58171 0.0
H2443 H 0.03995 0.62219 0.6401 0.0
H2444 H 0.04063 0.58936 0.6077 0.0
H2445 H 0.99261 0.60977 0.56078 0.0
C2446 C 0.99152 0.68357 0.6327 0.0
C2447 C 1.00187 0.69547 0.65633 0.0
C2448 C 0.01782 0.68637 0.66852 0.0
C2449 C 0.02329 0.66589 0.65756 0.0
C2450 C 0.01286 0.6547 0.63424 0.0
C2451 C 0.99742 0.66335 0.62191 0.0
C2452 C 0.98939 0.64874 0.59667 0.0
C2453 C 0.96303 0.63606 0.59241 0.0
C2454 C 0.99654 0.66486 0.57842 0.0
C2455 C 1.00271 0.63051 0.59668 0.0
C2456 C 0.01598 0.63409 0.61858 0.0
C2457 C 0.02963 0.61932 0.62288 0.0
C2458 C 0.02986 0.60063 0.60434 0.0
C2459 C 0.01674 0.59687 0.58156 0.0
C2460 C 1.00294 0.6121 0.57788 0.0
H2461 H 0.61044 0.78051 0.80237 0.0
H2462 H 0.62924 0.85558 0.83858 0.0
H2463 H 0.66995 0.8612 0.83168 0.0
H2464 H 0.66279 0.76913 0.82468 0.0
H2465 H 0.66372 0.74987 0.79734 0.0
H2466 H 0.63628 0.75204 0.80493 0.0
H2467 H 0.62734 0.76449 0.76488 0.0
H2468 H 0.65479 0.7624 0.75718 0.0
H2469 H 0.64771 0.79014 0.7572 0.0
H2470 H 0.70976 0.85803 0.82105 0.0
H2471 H 0.74346 0.84688 0.80818 0.0
H2472 H 0.69869 0.77379 0.77829 0.0
C2473 C 0.62302 0.79824 0.80888 0.0
C2474 C 0.61624 0.81765 0.82112 0.0
C2475 C 0.63363 0.84039 0.82919 0.0
C2476 C 0.65693 0.84372 0.82531 0.0
C2477 C 0.66291 0.82419 0.81322 0.0
C2478 C 0.64633 0.80187 0.8051 0.0
C2479 C 0.65711 0.78368 0.79269 0.0
C2480 C 0.65484 0.76242 0.80569 0.0
C2481 C 0.64608 0.77465 0.76643 0.0
C2482 C 0.68241 0.79911 0.79507 0.0
C2483 C 0.68542 0.82244 0.80699 0.0
C2484 C 0.70738 0.83981 0.81165 0.0
C2485 C 0.72657 0.83324 0.80419 0.0
C2486 C 0.72412 0.80941 0.79195 0.0
C2487 C 0.70146 0.79224 0.78731 0.0
H2488 H 0.5092 0.55819 0.70534 0.0
H2489 H 0.43415 0.53443 0.6871 0.0
H2490 H 0.43807 0.53344 0.64463 0.0
H2491 H 0.52159 0.59698 0.66333 0.0
H2492 H 0.54718 0.58922 0.65672 0.0
H2493 H 0.53837 0.58785 0.68552 0.0
H2494 H 0.53748 0.54294 0.68025 0.0
H2495 H 0.54645 0.54424 0.65151 0.0
H2496 H 0.52028 0.52145 0.65433 0.0
H2497 H 0.4506 0.53585 0.60392 0.0
H2498 H 0.47041 0.53932 0.56861 0.0
H2499 H 0.53715 0.56117 0.61407 0.0
C2500 C 0.49353 0.55271 0.69246 0.0
C2501 C 0.47134 0.54641 0.6996 0.0
C2502 C 0.45133 0.53928 0.68208 0.0
C2503 C 0.4534 0.53874 0.65792 0.0
C2504 C 0.47559 0.54531 0.65156 0.0
C2505 C 0.49528 0.55199 0.66836 0.0
C2506 C 0.51712 0.55799 0.657 0.0
C2507 C 0.53193 0.58459 0.66619 0.0
C2508 C 0.53115 0.54061 0.66101 0.0
C2509 C 0.5067 0.55368 0.63115 0.0
C2510 C 0.48273 0.54647 0.62832 0.0
C2511 C 0.46937 0.54145 0.60597 0.0
C2512 C 0.4808 0.54354 0.586 0.0
C2513 C 0.50538 0.55053 0.58848 0.0
C2514 C 0.51837 0.55582 0.61147 0.0
H2515 H 0.82967 0.23848 0.99095 0.0
H2516 H 0.77071 0.22859 0.02918 0.0
H2517 H 0.75932 0.25981 0.01162 0.0
H2518 H 0.84103 0.30535 0.99137 0.0
H2519 H 0.84778 0.30174 0.96149 0.0
H2520 H 0.8543 0.28265 0.98095 0.0
H2521 H 0.83032 0.24453 0.94959 0.0
H2522 H 0.82381 0.26347 0.93017 0.0
H2523 H 0.80052 0.2411 0.93868 0.0
H2524 H 0.7507 0.28675 0.98555 0.0
H2525 H 0.74416 0.30501 0.95079 0.0
H2526 H 0.80856 0.29775 0.92943 0.0
C2527 C 0.81481 0.24348 0.99617 0.0
C2528 C 0.80113 0.23126 0.01146 0.0
C2529 C 0.7814 0.23773 0.01742 0.0
C2530 C 0.77493 0.25562 0.00775 0.0
C2531 C 0.7884 0.26692 0.9922 0.0
C2532 C 0.80795 0.26112 0.98643 0.0
C2533 C 0.81745 0.27329 0.96672 0.0
C2534 C 0.84157 0.29187 0.97568 0.0
C2535 C 0.81803 0.25448 0.94502 0.0
C2536 C 0.79946 0.28571 0.96147 0.0
C2537 C 0.78321 0.2824 0.97678 0.0
C2538 C 0.76359 0.28999 0.97378 0.0
C2539 C 0.76003 0.30041 0.95407 0.0
C2540 C 0.77588 0.30276 0.93757 0.0
C2541 C 0.79626 0.29624 0.94193 0.0
H2542 H 0.14307 0.55687 0.19079 0.0
H2543 H 0.10454 0.48655 0.20331 0.0
H2544 H 0.07838 0.47908 0.16548 0.0
H2545 H 0.0972 0.57317 0.16947 0.0
H2546 H 0.11019 0.58771 0.14672 0.0
H2547 H 0.12829 0.5861 0.17258 0.0
H2548 H 0.15143 0.56468 0.14608 0.0
H2549 H 0.13381 0.56685 0.12004 0.0
H2550 H 0.13608 0.53781 0.12409 0.0
H2551 H 0.05245 0.48261 0.13 0.0
H2552 H 0.03284 0.49396 0.09595 0.0
H2553 H 0.08941 0.56117 0.1063 0.0
C2554 C 0.12964 0.53954 0.18514 0.0
C2555 C 0.12584 0.5223 0.19992 0.0
C2556 C 0.10794 0.49992 0.19211 0.0
C2557 C 0.09287 0.49558 0.17073 0.0
C2558 C 0.09631 0.51358 0.15719 0.0
C2559 C 0.11471 0.5348 0.16374 0.0
C2560 C 0.114 0.55176 0.14675 0.0
C2561 C 0.11231 0.57611 0.15966 0.0
C2562 C 0.13508 0.55548 0.13345 0.0
C2563 C 0.09181 0.53725 0.13025 0.0
C2564 C 0.0818 0.51527 0.13648 0.0
C2565 C 0.06037 0.49956 0.12466 0.0
C2566 C 0.04923 0.50626 0.10556 0.0
C2567 C 0.05967 0.52838 0.09853 0.0
C2568 C 0.08113 0.54403 0.11116 0.0
H2569 H 0.83477 0.84553 0.47232 0.0
H2570 H 0.76622 0.8523 0.4781 0.0
H2571 H 0.75474 0.8374 0.43493 0.0
H2572 H 0.84036 0.86605 0.41792 0.0
H2573 H 0.85502 0.84536 0.40564 0.0
H2574 H 0.85773 0.85462 0.43739 0.0
H2575 H 0.84296 0.80975 0.44146 0.0
H2576 H 0.84033 0.80032 0.4097 0.0
H2577 H 0.8156 0.79038 0.42458 0.0
H2578 H 0.75116 0.82493 0.39122 0.0
H2579 H 0.75501 0.81418 0.34931 0.0
H2580 H 0.82564 0.81426 0.36973 0.0
C2581 C 0.81719 0.84339 0.46458 0.0
C2582 C 0.80137 0.85003 0.47889 0.0
C2583 C 0.77869 0.84736 0.46779 0.0
C2584 C 0.77197 0.83887 0.44318 0.0
C2585 C 0.78804 0.83301 0.42961 0.0
C2586 C 0.81014 0.83495 0.43982 0.0
C2587 C 0.82419 0.8283 0.42072 0.0
C2588 C 0.84559 0.84987 0.42041 0.0
C2589 C 0.83118 0.80585 0.42433 0.0
C2590 C 0.80661 0.82268 0.39821 0.0
C2591 C 0.7859 0.82553 0.40396 0.0
C2592 C 0.76723 0.82244 0.38654 0.0
C2593 C 0.76968 0.81639 0.36263 0.0
C2594 C 0.79062 0.81326 0.35592 0.0
C2595 C 0.80931 0.81625 0.37413 0.0
H2596 H 0.479 0.56714 0.85381 0.0
H2597 H 0.48496 0.50086 0.81341 0.0
H2598 H 0.50032 0.49097 0.85068 0.0
H2599 H 0.53217 0.58167 0.89429 0.0
H2600 H 0.52074 0.59415 0.91929 0.0
H2601 H 0.50957 0.59535 0.88958 0.0
H2602 H 0.46788 0.57332 0.89628 0.0
H2603 H 0.47895 0.57208 0.92602 0.0
H2604 H 0.46201 0.5446 0.90561 0.0
H2605 H 0.5137 0.48788 0.89322 0.0
H2606 H 0.52688 0.49356 0.93645 0.0
H2607 H 0.51451 0.5633 0.94774 0.0
C2608 C 0.48344 0.55048 0.85281 0.0
C2609 C 0.48063 0.53463 0.83079 0.0
C2610 C 0.48698 0.51322 0.83014 0.0
C2611 C 0.49565 0.50745 0.8512 0.0
C2612 C 0.4982 0.5235 0.87267 0.0
C2613 C 0.49253 0.54474 0.87352 0.0
C2614 C 0.49762 0.55942 0.89861 0.0
C2615 C 0.51613 0.5841 0.90055 0.0
C2616 C 0.47528 0.56252 0.90712 0.0
C2617 C 0.5069 0.54308 0.91183 0.0
C2618 C 0.50689 0.52231 0.89669 0.0
C2619 C 0.51398 0.5042 0.90517 0.0
C2620 C 0.52138 0.50753 0.92973 0.0
C2621 C 0.52197 0.52896 0.94538 0.0
C2622 C 0.51462 0.54688 0.93618 0.0
H2623 H 0.79421 0.19286 0.11677 0.0
H2624 H 0.8602 0.24057 0.10647 0.0
H2625 H 0.8604 0.26932 0.14289 0.0
H2626 H 0.76925 0.23745 0.13525 0.0
H2627 H 0.75465 0.22292 0.15719 0.0
H2628 H 0.76077 0.20492 0.13179 0.0
H2629 H 0.78303 0.18558 0.15941 0.0
H2630 H 0.77664 0.20318 0.18496 0.0
H2631 H 0.80628 0.20486 0.18222 0.0
H2632 H 0.8514 0.29456 0.1785 0.0
H2633 H 0.83579 0.31229 0.21258 0.0
H2634 H 0.77589 0.24761 0.19888 0.0
C2635 C 0.80894 0.20913 0.12236 0.0
C2636 C 0.82717 0.21447 0.10874 0.0
C2637 C 0.8461 0.236 0.1167 0.0
C2638 C 0.84632 0.2525 0.1373 0.0
C2639 C 0.82762 0.24704 0.14981 0.0
C2640 C 0.80949 0.22566 0.14285 0.0
C2641 C 0.79115 0.2243 0.15892 0.0
C2642 C 0.76757 0.22229 0.14494 0.0
C2643 C 0.78917 0.20323 0.17216 0.0
C2644 C 0.80149 0.24854 0.17568 0.0
C2645 C 0.82254 0.26142 0.17023 0.0
C2646 C 0.83503 0.28455 0.18305 0.0
C2647 C 0.82594 0.29454 0.20224 0.0
C2648 C 0.80461 0.28136 0.20835 0.0
C2649 C 0.79224 0.25817 0.19469 0.0
H2650 H 0.1315 0.57871 0.33967 0.0
H2651 H 0.06973 0.55282 0.2867 0.0
H2652 H 0.05263 0.58066 0.30994 0.0
H2653 H 0.10593 0.57845 0.38748 0.0
H2654 H 0.12625 0.60558 0.40576 0.0
H2655 H 0.13554 0.58877 0.38204 0.0
H2656 H 0.1491 0.62744 0.36425 0.0
H2657 H 0.13947 0.64433 0.38798 0.0
H2658 H 0.12888 0.64346 0.35744 0.0
H2659 H 0.03898 0.60267 0.34253 0.0
H2660 H 0.02894 0.61393 0.382 0.0
H2661 H 0.10034 0.62828 0.41368 0.0
C2662 C 0.11453 0.57904 0.3328 0.0
C2663 C 0.10174 0.5633 0.3117 0.0
C2664 C 0.07976 0.56473 0.30297 0.0
C2665 C 0.07005 0.58068 0.3159 0.0
C2666 C 0.08288 0.59552 0.33713 0.0
C2667 C 0.10482 0.59503 0.34536 0.0
C2668 C 0.1137 0.60997 0.37019 0.0
C2669 C 0.12073 0.59477 0.38735 0.0
C2670 C 0.13399 0.63265 0.36994 0.0
C2671 C 0.0923 0.61664 0.37571 0.0
C2672 C 0.07506 0.60906 0.35605 0.0
C2673 C 0.0525 0.60943 0.35783 0.0
C2674 C 0.04696 0.616 0.38042 0.0
C2675 C 0.06391 0.62186 0.40092 0.0
C2676 C 0.08714 0.62392 0.39825 0.0
H2677 H 0.82935 0.86309 0.6254 0.0
H2678 H 0.76104 0.82799 0.58405 0.0
H2679 H 0.74775 0.8097 0.61811 0.0
H2680 H 0.83174 0.81608 0.65871 0.0
H2681 H 0.84578 0.83725 0.68599 0.0
H2682 H 0.85029 0.8459 0.65781 0.0
H2683 H 0.83655 0.88319 0.67062 0.0
H2684 H 0.83182 0.87455 0.69876 0.0
H2685 H 0.80848 0.87886 0.68001 0.0
H2686 H 0.74239 0.79417 0.65685 0.0
H2687 H 0.74437 0.78555 0.69755 0.0
H2688 H 0.81475 0.83451 0.71534 0.0
C2689 C 0.81171 0.85119 0.62338 0.0
C2690 C 0.79635 0.8465 0.60179 0.0
C2691 C 0.77318 0.83155 0.60022 0.0
C2692 C 0.76549 0.82111 0.61952 0.0
C2693 C 0.781 0.82626 0.64062 0.0
C2694 C 0.80356 0.84121 0.64275 0.0
C2695 C 0.81631 0.84515 0.66784 0.0
C2696 C 0.83727 0.83552 0.66756 0.0
C2697 C 0.82372 0.87203 0.68002 0.0
C2698 C 0.79751 0.82991 0.67946 0.0
C2699 C 0.77736 0.81888 0.66335 0.0
C2700 C 0.75799 0.80298 0.66963 0.0
C2701 C 0.75926 0.79819 0.69281 0.0
C2702 C 0.77952 0.80965 0.70979 0.0
C2703 C 0.79882 0.82588 0.70295 0.0
H2704 H 0.70499 0.43357 0.53211 0.0
H2705 H 0.71398 0.44704 0.46126 0.0
H2706 H 0.69066 0.47508 0.46592 0.0
H2707 H 0.64506 0.44157 0.53225 0.0
H2708 H 0.65253 0.45634 0.56313 0.0
H2709 H 0.6647 0.43293 0.55197 0.0
H2710 H 0.70597 0.46265 0.56805 0.0
H2711 H 0.69407 0.48631 0.57866 0.0
H2712 H 0.71496 0.49117 0.55839 0.0
H2713 H 0.67288 0.50683 0.48086 0.0
H2714 H 0.65875 0.53749 0.50364 0.0
H2715 H 0.66358 0.50493 0.56568 0.0
C2716 C 0.70121 0.44154 0.51713 0.0
C2717 C 0.71129 0.43807 0.49628 0.0
C2718 C 0.70634 0.44933 0.47734 0.0
C2719 C 0.69314 0.46533 0.47985 0.0
C2720 C 0.68486 0.46966 0.5013 0.0
C2721 C 0.6883 0.45773 0.51947 0.0
C2722 C 0.68008 0.46771 0.54175 0.0
C2723 C 0.65936 0.44849 0.54761 0.0
C2724 C 0.69996 0.47754 0.56294 0.0
C2725 C 0.67265 0.48796 0.53368 0.0
C2726 C 0.67513 0.48849 0.51019 0.0
C2727 C 0.67057 0.50639 0.49918 0.0
C2728 C 0.66294 0.52399 0.51243 0.0
C2729 C 0.66025 0.52382 0.53658 0.0
C2730 C 0.6652 0.50547 0.54722 0.0
H2731 H 0.20017 0.16464 0.50129 0.0
H2732 H 0.22838 0.10649 0.47723 0.0
H2733 H 0.19108 0.07643 0.47824 0.0
H2734 H 0.16701 0.13639 0.54139 0.0
H2735 H 0.14246 0.14683 0.53473 0.0
H2736 H 0.17095 0.16428 0.53073 0.0
H2737 H 0.1557 0.1627 0.48676 0.0
H2738 H 0.12709 0.14536 0.49069 0.0
H2739 H 0.14108 0.13377 0.46744 0.0
H2740 H 0.15263 0.05249 0.48597 0.0
H2741 H 0.11334 0.03606 0.49601 0.0
H2742 H 0.10834 0.1089 0.51246 0.0
C2743 C 0.19835 0.1456 0.49587 0.0
C2744 C 0.21731 0.138 0.48924 0.0
C2745 C 0.21421 0.11287 0.48236 0.0
C2746 C 0.19305 0.09556 0.4829 0.0
C2747 C 0.17493 0.10358 0.48999 0.0
C2748 C 0.17713 0.12796 0.49596 0.0
C2749 C 0.15485 0.13149 0.50329 0.0
C2750 C 0.15908 0.14558 0.52907 0.0
C2751 C 0.14404 0.14408 0.48601 0.0
C2752 C 0.14012 0.10533 0.50105 0.0
C2753 C 0.15214 0.08956 0.49346 0.0
C2754 C 0.14286 0.0646 0.49153 0.0
C2755 C 0.12062 0.05544 0.49739 0.0
C2756 C 0.10779 0.07118 0.50477 0.0
C2757 C 0.11765 0.09643 0.50646 0.0
H2758 H 0.18971 0.00538 0.81747 0.0
H2759 H 0.16878 0.01914 0.7482 0.0
H2760 H 0.19309 0.99584 0.73044 0.0
H2761 H 0.24886 0.00977 0.81059 0.0
H2762 H 0.24941 0.98573 0.82627 0.0
H2763 H 0.23091 0.00404 0.83343 0.0
H2764 H 0.19526 0.96534 0.82555 0.0
H2765 H 0.21362 0.94691 0.81834 0.0
H2766 H 0.1888 0.94465 0.79729 0.0
H2767 H 0.21955 0.97042 0.72036 0.0
H2768 H 0.24491 0.94422 0.71862 0.0
H2769 H 0.24796 0.94744 0.79464 0.0
C2770 C 0.19028 0.00369 0.79857 0.0
C2771 C 0.17736 0.01421 0.78425 0.0
C2772 C 0.17852 0.01128 0.75955 0.0
C2773 C 0.19231 0.99811 0.74932 0.0
C2774 C 0.20475 0.98796 0.76401 0.0
C2775 C 0.20379 0.99058 0.78809 0.0
C2776 C 0.21828 0.97745 0.79998 0.0
C2777 C 0.23804 0.99532 0.81867 0.0
C2778 C 0.20308 0.9574 0.81092 0.0
C2779 C 0.22753 0.96691 0.7788 0.0
C2780 C 0.21966 0.97324 0.75822 0.0
C2781 C 0.22587 0.96544 0.73639 0.0
C2782 C 0.24037 0.95068 0.73561 0.0
C2783 C 0.24842 0.9438 0.7565 0.0
C2784 C 0.24193 0.95219 0.77833 0.0
H2785 H 0.36495 0.94432 0.03325 0.0
H2786 H 0.33264 0.99521 0.0097 0.0
H2787 H 0.37097 0.02077 0.00373 0.0
H2788 H 0.41687 0.98629 0.06479 0.0
H2789 H 0.43452 0.96756 0.05551 0.0
H2790 H 0.40448 0.95376 0.05746 0.0
H2791 H 0.39819 0.93159 0.0134 0.0
H2792 H 0.42825 0.9459 0.01154 0.0
H2793 H 0.40575 0.94906 0.99073 0.0
H2794 H 0.41329 0.04146 0.00211 0.0
H2795 H 0.45598 0.05534 0.00442 0.0
H2796 H 0.45933 0.98941 0.02736 0.0
C2797 C 0.36573 0.96057 0.02645 0.0
C2798 C 0.34576 0.96763 0.02172 0.0
C2799 C 0.34775 0.98941 0.01337 0.0
C2800 C 0.36941 0.004 0.00987 0.0
C2801 C 0.38874 0.99637 0.01461 0.0
C2802 C 0.38703 0.97507 0.02256 0.0
C2803 C 0.41032 0.97089 0.02655 0.0
C2804 C 0.41693 0.96958 0.05264 0.0
C2805 C 0.41064 0.94801 0.00953 0.0
C2806 C 0.4256 0.99355 0.02026 0.0
C2807 C 0.41287 0.00798 0.01328 0.0
C2808 C 0.42342 0.03022 0.00734 0.0
C2809 C 0.44765 0.03794 0.00873 0.0
C2810 C 0.46095 0.02341 0.01598 0.0
C2811 C 0.44966 1.00086 0.02158 0.0
H2812 H 0.83946 0.59151 0.8343 0.0
H2813 H 0.84383 0.55146 0.76572 0.0
H2814 H 0.81203 0.56378 0.74706 0.0
H2815 H 0.77464 0.58245 0.82352 0.0
H2816 H 0.77891 0.61292 0.83908 0.0
H2817 H 0.79804 0.59643 0.84796 0.0
H2818 H 0.83345 0.63139 0.84287 0.0
H2819 H 0.81451 0.64784 0.83384 0.0
H2820 H 0.83444 0.641 0.81471 0.0
H2821 H 0.78525 0.58602 0.73479 0.0
H2822 H 0.76632 0.61713 0.72978 0.0
H2823 H 0.77889 0.64273 0.80626 0.0
C2824 C 0.83309 0.58455 0.81553 0.0
C2825 C 0.84397 0.57038 0.80149 0.0
C2826 C 0.83568 0.56227 0.77683 0.0
C2827 C 0.81753 0.56905 0.7661 0.0
C2828 C 0.80777 0.58386 0.78027 0.0
C2829 C 0.81515 0.59138 0.80451 0.0
C2830 C 0.80416 0.6099 0.81515 0.0
C2831 C 0.78797 0.59981 0.83245 0.0
C2832 C 0.82275 0.63394 0.82734 0.0
C2833 C 0.79051 0.61259 0.79293 0.0
C2834 C 0.79235 0.597 0.77308 0.0
C2835 C 0.78317 0.59789 0.75026 0.0
C2836 C 0.77236 0.61559 0.74759 0.0
C2837 C 0.77105 0.63233 0.76763 0.0
C2838 C 0.77961 0.63019 0.7906 0.0
H2839 H 0.82597 0.64571 0.04916 0.0
H2840 H 0.86971 0.70898 0.02783 0.0
H2841 H 0.9035 0.69422 0.03464 0.0
H2842 H 0.87029 0.63973 0.09486 0.0
H2843 H 0.85981 0.6071 0.08707 0.0
H2844 H 0.84001 0.62439 0.08364 0.0
H2845 H 0.82766 0.60304 0.03934 0.0
H2846 H 0.84761 0.58596 0.04251 0.0
H2847 H 0.84946 0.6043 0.02011 0.0
H2848 H 0.93146 0.67012 0.03946 0.0
H2849 H 0.95148 0.63961 0.0431 0.0
H2850 H 0.88939 0.59221 0.06156 0.0
C2851 C 0.84277 0.65685 0.04653 0.0
C2852 C 0.8452 0.67862 0.03811 0.0
C2853 C 0.86743 0.69236 0.03447 0.0
C2854 C 0.88673 0.68408 0.03825 0.0
C2855 C 0.88352 0.6621 0.04578 0.0
C2856 C 0.86212 0.64881 0.05012 0.0
C2857 C 0.86285 0.62498 0.05649 0.0
C2858 C 0.85796 0.624 0.08204 0.0
C2859 C 0.84589 0.6033 0.03854 0.0
C2860 C 0.88784 0.62659 0.05444 0.0
C2861 C 0.89955 0.64823 0.04847 0.0
C2862 C 0.92254 0.65331 0.04453 0.0
C2863 C 0.93382 0.63585 0.04674 0.0
C2864 C 0.92215 0.61347 0.05278 0.0
C2865 C 0.89885 0.60901 0.05679 0.0
H2866 H 0.1602 0.13551 0.80043 0.0
H2867 H 0.21175 0.11252 0.83966 0.0
H2868 H 0.24246 0.14867 0.83481 0.0
H2869 H 0.19418 0.15938 0.75838 0.0
H2870 H 0.1837 0.18509 0.75827 0.0
H2871 H 0.16553 0.1577 0.76521 0.0
H2872 H 0.1611 0.18188 0.80528 0.0
H2873 H 0.17907 0.2094 0.79835 0.0
H2874 H 0.1867 0.20039 0.82569 0.0
H2875 H 0.268 0.18542 0.82266 0.0
H2876 H 0.28592 0.2234 0.80898 0.0
H2877 H 0.21757 0.22421 0.78044 0.0
C2878 C 0.17792 0.13824 0.80821 0.0
C2879 C 0.1836 0.12119 0.8204 0.0
C2880 C 0.20697 0.12544 0.83042 0.0
C2881 C 0.22456 0.14584 0.82762 0.0
C2882 C 0.21846 0.16208 0.81515 0.0
C2883 C 0.19565 0.15882 0.80605 0.0
C2884 C 0.19375 0.17932 0.79385 0.0
C2885 C 0.1837 0.1698 0.76736 0.0
C2886 C 0.1793 0.19359 0.80656 0.0
C2887 C 0.21908 0.19434 0.79714 0.0
C2888 C 0.23308 0.18393 0.80923 0.0
C2889 C 0.25719 0.19392 0.81345 0.0
C2890 C 0.26723 0.21537 0.80548 0.0
C2891 C 0.25313 0.22675 0.79379 0.0
C2892 C 0.22876 0.216 0.78955 0.0
H2893 H 0.36822 0.98151 0.34876 0.0
H2894 H 0.39169 0.98822 0.2806 0.0
H2895 H 0.37343 0.94469 0.26591 0.0
H2896 H 0.37535 0.92206 0.35029 0.0
H2897 H 0.34948 0.91154 0.36335 0.0
H2898 H 0.36554 0.94336 0.36937 0.0
H2899 H 0.32835 0.95306 0.35441 0.0
H2900 H 0.31221 0.92127 0.34826 0.0
H2901 H 0.31283 0.93851 0.32502 0.0
H2902 H 0.35166 0.90128 0.25756 0.0
H2903 H 0.32761 0.85946 0.25623 0.0
H2904 H 0.31739 0.87976 0.32937 0.0
C2905 C 0.36971 0.97377 0.33085 0.0
C2906 C 0.38165 0.9884 0.31598 0.0
C2907 C 0.38295 0.97753 0.29253 0.0
C2908 C 0.37255 0.95273 0.28391 0.0
C2909 C 0.36081 0.93892 0.29889 0.0
C2910 C 0.35931 0.9489 0.32185 0.0
C2911 C 0.34497 0.92982 0.33384 0.0
C2912 C 0.35972 0.9265 0.3555 0.0
C2913 C 0.32331 0.93604 0.34078 0.0
C2914 C 0.33853 0.90775 0.31388 0.0
C2915 C 0.34796 0.9135 0.29395 0.0
C2916 C 0.34423 0.89644 0.27307 0.0
C2917 C 0.33048 0.87273 0.2725 0.0
C2918 C 0.32059 0.86628 0.29269 0.0
C2919 C 0.32474 0.88409 0.31366 0.0
H2920 H 0.52384 0.37202 0.56924 0.0
H2921 H 0.59826 0.38514 0.58156 0.0
H2922 H 0.6042 0.42443 0.56851 0.0
H2923 H 0.52131 0.39997 0.51724 0.0
H2924 H 0.49909 0.41277 0.52602 0.0
H2925 H 0.50079 0.38521 0.53485 0.0
H2926 H 0.50335 0.40491 0.57891 0.0
H2927 H 0.50171 0.43254 0.57023 0.0
H2928 H 0.5257 0.43313 0.59153 0.0
H2929 H 0.60175 0.46365 0.55417 0.0
H2930 H 0.5915 0.49819 0.542 0.0
H2931 H 0.51869 0.46082 0.54096 0.0
C2932 C 0.54146 0.38288 0.56888 0.0
C2933 C 0.5606 0.37486 0.57623 0.0
C2934 C 0.58324 0.39035 0.57589 0.0
C2935 C 0.58677 0.41287 0.56849 0.0
C2936 C 0.56753 0.4202 0.56162 0.0
C2937 C 0.54529 0.4056 0.56187 0.0
C2938 C 0.52753 0.41804 0.55469 0.0
C2939 C 0.51121 0.4031 0.53184 0.0
C2940 C 0.51376 0.42241 0.57505 0.0
C2941 C 0.54312 0.44196 0.55032 0.0
C2942 C 0.56616 0.44279 0.55426 0.0
C2943 C 0.58373 0.46303 0.55125 0.0
C2944 C 0.57772 0.48279 0.54439 0.0
C2945 C 0.55429 0.48281 0.54067 0.0
C2946 C 0.5368 0.46175 0.54358 0.0
H2947 H 0.44334 0.78989 0.3745 0.0
H2948 H 0.4128 0.75887 0.43165 0.0
H2949 H 0.37427 0.75944 0.41386 0.0
H2950 H 0.40788 0.82922 0.36797 0.0
H2951 H 0.40562 0.82412 0.33603 0.0
H2952 H 0.43079 0.82203 0.35371 0.0
H2953 H 0.42368 0.77861 0.32996 0.0
H2954 H 0.39845 0.78054 0.31225 0.0
H2955 H 0.39592 0.75604 0.32805 0.0
H2956 H 0.3387 0.76369 0.38955 0.0
H2957 H 0.30932 0.76984 0.36068 0.0
H2958 H 0.36252 0.79656 0.31809 0.0
C2959 C 0.4286 0.78338 0.38343 0.0
C2960 C 0.43129 0.7745 0.40472 0.0
C2961 C 0.41136 0.76586 0.41549 0.0
C2962 C 0.38935 0.76611 0.40546 0.0
C2963 C 0.38733 0.77486 0.38443 0.0
C2964 C 0.40645 0.78324 0.37349 0.0
C2965 C 0.39952 0.79107 0.35065 0.0
C2966 C 0.41167 0.81823 0.35219 0.0
C2967 C 0.4047 0.77565 0.32894 0.0
C2968 C 0.3735 0.78585 0.3504 0.0
C2969 C 0.36686 0.77666 0.37015 0.0
C2970 C 0.34379 0.77081 0.37404 0.0
C2971 C 0.32716 0.77443 0.35745 0.0
C2972 C 0.33338 0.78364 0.33689 0.0
C2973 C 0.357 0.78933 0.33344 0.0
H2974 H 0.02052 0.71899 0.07622 0.0
H2975 H 0.09342 0.75575 0.07689 0.0
H2976 H 0.09995 0.71598 0.06517 0.0
H2977 H 0.03083 0.67149 0.10308 0.0
H2978 H 0.00558 0.64787 0.08689 0.0
H2979 H 0.00524 0.6788 0.09279 0.0
H2980 H 0.99445 0.67752 0.04833 0.0
H2981 H 0.99407 0.64639 0.04148 0.0
H2982 H 0.01211 0.66858 0.02747 0.0
H2983 H 0.09804 0.67096 0.05213 0.0
H2984 H 0.08885 0.62625 0.04328 0.0
H2985 H 0.01803 0.61877 0.05488 0.0
C2986 C 0.03781 0.71872 0.07349 0.0
C2987 C 0.05638 0.74076 0.07697 0.0
C2988 C 0.07884 0.73933 0.07405 0.0
C2989 C 0.0827 0.71672 0.06736 0.0
C2990 C 0.06404 0.69538 0.06415 0.0
C2991 C 0.04208 0.69624 0.06747 0.0
C2992 C 0.02535 0.67072 0.06477 0.0
C2993 C 0.0162 0.66701 0.08827 0.0
C2994 C 0.0053 0.66551 0.0443 0.0
C2995 C 0.0411 0.6553 0.05888 0.0
C2996 C 0.06333 0.66982 0.05838 0.0
C2997 C 0.0807 0.65956 0.05271 0.0
C2998 C 0.07529 0.63402 0.04762 0.0
C2999 C 0.05276 0.61869 0.04856 0.0
C3000 C 0.03553 0.62976 0.0543 0.0
H3001 H 0.04937 0.24429 0.87048 0.0
H3002 H 0.06999 0.30807 0.92709 0.0
H3003 H 0.10675 0.32336 0.91141 0.0
H3004 H 0.10701 0.23758 0.86911 0.0
H3005 H 0.10225 0.22784 0.83724 0.0
H3006 H 0.07812 0.22155 0.85357 0.0
H3007 H 0.05705 0.24301 0.82723 0.0
H3008 H 0.08112 0.24944 0.81089 0.0
H3009 H 0.07149 0.27379 0.82489 0.0
H3010 H 0.14044 0.33269 0.88803 0.0
H3011 H 0.16888 0.33454 0.85999 0.0
H3012 H 0.12631 0.26441 0.81894 0.0
C3013 C 0.06168 0.26138 0.87977 0.0
C3014 C 0.05673 0.27497 0.90008 0.0
C3015 C 0.07337 0.29727 0.91158 0.0
C3016 C 0.09429 0.30612 0.90277 0.0
C3017 C 0.09845 0.2924 0.88252 0.0
C3018 C 0.08266 0.27041 0.87128 0.0
C3019 C 0.09106 0.25934 0.84959 0.0
C3020 C 0.09484 0.23515 0.85257 0.0
C3021 C 0.07417 0.25622 0.82681 0.0
C3022 C 0.11393 0.27868 0.85015 0.0
C3023 C 0.11788 0.29762 0.86928 0.0
C3024 C 0.13755 0.3179 0.87308 0.0
C3025 C 0.15354 0.31885 0.85696 0.0
C3026 C 0.14989 0.29963 0.83723 0.0
C3027 C 0.1298 0.27926 0.83398 0.0
H3028 H 0.51275 0.76737 0.91726 0.0
H3029 H 0.57564 0.77583 0.88532 0.0
H3030 H 0.58496 0.74555 0.90645 0.0
H3031 H 0.53635 0.75931 0.97483 0.0
H3032 H 0.50977 0.73721 0.97779 0.0
H3033 H 0.50886 0.76045 0.96115 0.0
H3034 H 0.48585 0.7275 0.92454 0.0
H3035 H 0.48679 0.70417 0.94101 0.0
H3036 H 0.49772 0.70396 0.91304 0.0
H3037 H 0.58619 0.71233 0.92975 0.0
H3038 H 0.5801 0.68077 0.95422 0.0
H3039 H 0.5162 0.6941 0.97038 0.0
C3040 C 0.52867 0.76316 0.91486 0.0
C3041 C 0.54348 0.77418 0.89957 0.0
C3042 C 0.56403 0.76785 0.89697 0.0
C3043 C 0.56945 0.75058 0.90888 0.0
C3044 C 0.55422 0.73979 0.92344 0.0
C3045 C 0.53433 0.74601 0.92658 0.0
C3046 C 0.52049 0.73143 0.94271 0.0
C3047 C 0.51878 0.7481 0.96547 0.0
C3048 C 0.49629 0.71584 0.92953 0.0
C3049 C 0.53557 0.71584 0.94804 0.0
C3050 C 0.55495 0.7209 0.93678 0.0
C3051 C 0.5711 0.70834 0.93869 0.0
C3052 C 0.5674 0.69029 0.95252 0.0
C3053 C 0.5477 0.68488 0.96435 0.0
C3054 C 0.53164 0.69796 0.96194 0.0
H3055 H 0.10233 0.73877 0.72012 0.0
H3056 H 0.0967 0.81154 0.73195 0.0
H3057 H 0.13935 0.82829 0.74252 0.0
H3058 H 0.14976 0.75046 0.76882 0.0
H3059 H 0.16383 0.73121 0.75273 0.0
H3060 H 0.13283 0.72473 0.74624 0.0
H3061 H 0.13601 0.72576 0.70198 0.0
H3062 H 0.16702 0.73229 0.70834 0.0
H3063 H 0.15506 0.75222 0.69422 0.0
H3064 H 0.18292 0.83749 0.75107 0.0
H3065 H 0.22371 0.83872 0.7579 0.0
H3066 H 0.20257 0.76004 0.74137 0.0
C3067 C 0.11001 0.75825 0.72501 0.0
C3068 C 0.09579 0.77377 0.72514 0.0
C3069 C 0.10687 0.79915 0.7317 0.0
C3070 C 0.13122 0.80887 0.73772 0.0
C3071 C 0.14462 0.79312 0.73731 0.0
C3072 C 0.13442 0.76832 0.73123 0.0
C3073 C 0.15297 0.75548 0.7323 0.0
C3074 C 0.14964 0.73952 0.75114 0.0
C3075 C 0.15275 0.74056 0.70775 0.0
C3076 C 0.1752 0.77692 0.7397 0.0
C3077 C 0.16984 0.79843 0.74247 0.0
C3078 C 0.18721 0.82072 0.749 0.0
C3079 C 0.21053 0.82118 0.75284 0.0
C3080 C 0.21683 0.79951 0.75027 0.0
C3081 C 0.19865 0.77701 0.74358 0.0
H3082 H 0.0183 0.37662 0.4254 0.0
H3083 H 0.06255 0.40509 0.37548 0.0
H3084 H 0.06684 0.447 0.39628 0.0
H3085 H 0.98765 0.41895 0.42875 0.0
H3086 H 0.98571 0.42059 0.45994 0.0
H3087 H 0.98782 0.39337 0.44223 0.0
H3088 H 0.0241 0.3956 0.47111 0.0
H3089 H 0.02193 0.42268 0.4891 0.0
H3090 H 0.04855 0.42289 0.47777 0.0
H3091 H 0.06344 0.48675 0.42218 0.0
H3092 H 0.05516 0.51841 0.45093 0.0
H3093 H 0.01309 0.46235 0.48285 0.0
C3094 C 0.02921 0.39158 0.4189 0.0
C3095 C 0.04014 0.38734 0.39869 0.0
C3096 C 0.0542 0.40768 0.39101 0.0
C3097 C 0.05657 0.4316 0.40266 0.0
C3098 C 0.04493 0.435 0.42213 0.0
C3099 C 0.03176 0.41536 0.43028 0.0
C3100 C 0.02048 0.42334 0.45111 0.0
C3101 C 0.99384 0.41348 0.44514 0.0
C3102 C 0.0293 0.41568 0.4736 0.0
C3103 C 0.02903 0.45061 0.45345 0.0
C3104 C 0.04312 0.45719 0.43666 0.0
C3105 C 0.05254 0.48161 0.43542 0.0
C3106 C 0.04765 0.49954 0.4518 0.0
C3107 C 0.03345 0.49309 0.46932 0.0
C3108 C 0.02407 0.46816 0.46986 0.0
H3109 H 0.4424 0.28459 0.21335 0.0
H3110 H 0.45047 0.22889 0.25128 0.0
H3111 H 0.41338 0.22713 0.26647 0.0
H3112 H 0.42038 0.31614 0.25997 0.0
H3113 H 0.40067 0.3245 0.24009 0.0
H3114 H 0.42677 0.32006 0.23071 0.0
H3115 H 0.40242 0.28841 0.19389 0.0
H3116 H 0.37624 0.29281 0.20311 0.0
H3117 H 0.37925 0.26287 0.19791 0.0
H3118 H 0.37419 0.23109 0.27712 0.0
H3119 H 0.33902 0.24241 0.28467 0.0
H3120 H 0.35785 0.2984 0.24309 0.0
C3121 C 0.43619 0.27173 0.22456 0.0
C3122 C 0.44937 0.25648 0.23068 0.0
C3123 C 0.44077 0.24052 0.24603 0.0
C3124 C 0.41963 0.23944 0.25478 0.0
C3125 C 0.40721 0.25481 0.24857 0.0
C3126 C 0.41535 0.27087 0.23398 0.0
C3127 C 0.39942 0.28646 0.23114 0.0
C3128 C 0.4126 0.31338 0.24107 0.0
C3129 C 0.3887 0.28239 0.20496 0.0
C3130 C 0.38096 0.27663 0.24624 0.0
C3131 C 0.38562 0.25814 0.25588 0.0
C3132 C 0.37062 0.2457 0.26978 0.0
C3133 C 0.35055 0.25228 0.27398 0.0
C3134 C 0.34552 0.27153 0.2648 0.0
C3135 C 0.36118 0.28385 0.25075 0.0
H3136 H 0.59896 0.52906 0.36011 0.0
H3137 H 0.59075 0.59824 0.35152 0.0
H3138 H 0.57885 0.60352 0.39145 0.0
H3139 H 0.54847 0.51054 0.38865 0.0
H3140 H 0.56139 0.49521 0.4081 0.0
H3141 H 0.57044 0.49752 0.3795 0.0
H3142 H 0.61313 0.51762 0.39982 0.0
H3143 H 0.60422 0.51535 0.42848 0.0
H3144 H 0.62035 0.54437 0.4229 0.0
H3145 H 0.56957 0.6019 0.43285 0.0
H3146 H 0.55973 0.592 0.47136 0.0
H3147 H 0.5701 0.52192 0.45152 0.0
C3148 C 0.59482 0.54541 0.36675 0.0
C3149 C 0.59603 0.56344 0.35294 0.0
C3150 C 0.59002 0.58431 0.36191 0.0
C3151 C 0.5833 0.58745 0.38455 0.0
C3152 C 0.58224 0.56929 0.3977 0.0
C3153 C 0.58751 0.54852 0.389 0.0
C3154 C 0.58386 0.53121 0.4062 0.0
C3155 C 0.56491 0.5072 0.39494 0.0
C3156 C 0.60675 0.52689 0.41486 0.0
C3157 C 0.57587 0.54559 0.42608 0.0
C3158 C 0.5754 0.56765 0.42092 0.0
C3159 C 0.56964 0.5846 0.43696 0.0
C3160 C 0.56417 0.57884 0.45879 0.0
C3161 C 0.56403 0.55616 0.46423 0.0
C3162 C 0.5698 0.53924 0.4476 0.0
H3163 H 0.26288 0.86379 0.07432 0.0
H3164 H 0.29438 0.82711 0.02227 0.0
H3165 H 0.28915 0.79327 0.04365 0.0
H3166 H 0.29212 0.85487 0.12115 0.0
H3167 H 0.26974 0.8502 0.13979 0.0
H3168 H 0.26857 0.86738 0.11693 0.0
H3169 H 0.22746 0.83862 0.09858 0.0
H3170 H 0.22836 0.82139 0.12168 0.0
H3171 H 0.22266 0.80643 0.09087 0.0
H3172 H 0.28945 0.76906 0.07474 0.0
H3173 H 0.29462 0.75597 0.11296 0.0
H3174 H 0.26439 0.80906 0.14588 0.0
C3175 C 0.26743 0.84796 0.06678 0.0
C3176 C 0.27866 0.84774 0.04652 0.0
C3177 C 0.28548 0.82736 0.03765 0.0
C3178 C 0.28249 0.80804 0.04963 0.0
C3179 C 0.27266 0.80941 0.07045 0.0
C3180 C 0.26495 0.82873 0.07885 0.0
C3181 C 0.25899 0.82808 0.10369 0.0
C3182 C 0.27322 0.85151 0.12141 0.0
C3183 C 0.23281 0.82334 0.1037 0.0
C3184 C 0.26617 0.80649 0.10856 0.0
C3185 C 0.27334 0.79553 0.08893 0.0
C3186 C 0.2833 0.77706 0.09004 0.0
C3187 C 0.2864 0.76992 0.11186 0.0
C3188 C 0.27979 0.78142 0.13232 0.0
C3189 C 0.26901 0.79947 0.13039 0.0
H3190 H 0.93544 0.56996 0.88649 0.0
H3191 H 0.9916 0.57542 0.84455 0.0
H3192 H 0.01708 0.57241 0.87893 0.0
H3193 H 0.97224 0.60373 0.94392 0.0
H3194 H 0.95489 0.58411 0.96079 0.0
H3195 H 0.94162 0.58942 0.93367 0.0
H3196 H 0.92617 0.54311 0.9172 0.0
H3197 H 0.93956 0.53768 0.94413 0.0
H3198 H 0.9463 0.52583 0.91581 0.0
H3199 H 0.03529 0.56494 0.91577 0.0
H3200 H 0.04615 0.55535 0.95438 0.0
H3201 H 0.97855 0.55467 0.97324 0.0
C3202 C 0.95322 0.57109 0.88473 0.0
C3203 C 0.96153 0.57295 0.86285 0.0
C3204 C 0.98484 0.57394 0.86114 0.0
C3205 C 0.99949 0.5723 0.88057 0.0
C3206 C 0.99062 0.56975 0.90165 0.0
C3207 C 0.96813 0.56935 0.90401 0.0
C3208 C 0.96267 0.56498 0.92833 0.0
C3209 C 0.95756 0.58687 0.94252 0.0
C3210 C 0.94248 0.5415 0.92623 0.0
C3211 C 0.98544 0.56246 0.93894 0.0
C3212 C 1.0013 0.56542 0.92323 0.0
C3213 C 0.02316 0.56287 0.9284 0.0
C3214 C 0.02909 0.55727 0.95035 0.0
C3215 C 0.01322 0.55428 0.96688 0.0
C3216 C 0.99113 0.55702 0.96106 0.0
H3217 H 0.3252 0.25955 0.60211 0.0
H3218 H 0.25311 0.22872 0.56917 0.0
H3219 H 0.24079 0.23781 0.60831 0.0
H3220 H 0.31816 0.23581 0.65484 0.0
H3221 H 0.33867 0.26198 0.67429 0.0
H3222 H 0.34193 0.25477 0.64351 0.0
H3223 H 0.3416 0.29758 0.63824 0.0
H3224 H 0.33849 0.30497 0.66906 0.0
H3225 H 0.31774 0.30804 0.6462 0.0
H3226 H 0.23624 0.24902 0.65163 0.0
H3227 H 0.23976 0.26123 0.69517 0.0
H3228 H 0.31487 0.28385 0.70048 0.0
C3229 C 0.3068 0.25511 0.60299 0.0
C3230 C 0.29014 0.24361 0.58228 0.0
C3231 C 0.26625 0.23765 0.58455 0.0
C3232 C 0.25908 0.24274 0.60679 0.0
C3233 C 0.27593 0.25369 0.62683 0.0
C3234 C 0.29932 0.25983 0.62513 0.0
C3235 C 0.31392 0.27052 0.64957 0.0
C3236 C 0.32906 0.25483 0.65592 0.0
C3237 C 0.32881 0.29684 0.65084 0.0
C3238 C 0.29511 0.26934 0.66529 0.0
C3239 C 0.27332 0.25968 0.65179 0.0
C3240 C 0.25324 0.25665 0.66232 0.0
C3241 C 0.25544 0.26367 0.68717 0.0
C3242 C 0.27757 0.27356 0.70153 0.0
C3243 C 0.29764 0.27636 0.69022 0.0
H3244 H 0.59918 0.51856 0.18907 0.0
H3245 H 0.59546 0.58745 0.22605 0.0
H3246 H 0.5812 0.59603 0.18778 0.0
H3247 H 0.61913 0.53978 0.13695 0.0
H3248 H 0.60248 0.51195 0.11687 0.0
H3249 H 0.61252 0.5115 0.14718 0.0
H3250 H 0.57027 0.49008 0.15259 0.0
H3251 H 0.56009 0.49076 0.1224 0.0
H3252 H 0.54805 0.50394 0.14651 0.0
H3253 H 0.5656 0.59618 0.14521 0.0
H3254 H 0.55289 0.58914 0.10179 0.0
H3255 H 0.56826 0.52089 0.09308 0.0
C3256 C 0.59547 0.53551 0.18916 0.0
C3257 C 0.59841 0.5523 0.21062 0.0
C3258 C 0.59341 0.57431 0.20986 0.0
C3259 C 0.58522 0.57932 0.18821 0.0
C3260 C 0.58228 0.56224 0.16741 0.0
C3261 C 0.58749 0.54088 0.16771 0.0
C3262 C 0.58306 0.52562 0.1429 0.0
C3263 C 0.60564 0.52202 0.13555 0.0
C3264 C 0.56425 0.50116 0.141 0.0
C3265 C 0.57449 0.54168 0.12862 0.0
C3266 C 0.57396 0.56264 0.14303 0.0
C3267 C 0.5661 0.5799 0.13375 0.0
C3268 C 0.55884 0.57572 0.10909 0.0
C3269 C 0.55972 0.55457 0.09398 0.0
C3270 C 0.56759 0.53738 0.10405 0.0
H3271 H 0.32423 0.8995 0.94143 0.0
H3272 H 0.2529 0.87232 0.95333 0.0
H3273 H 0.2413 0.85229 0.91084 0.0
H3274 H 0.30998 0.91101 0.88144 0.0
H3275 H 0.33394 0.90242 0.87092 0.0
H3276 H 0.33605 0.91577 0.90179 0.0
H3277 H 0.34571 0.87878 0.914 0.0
H3278 H 0.34341 0.86521 0.88322 0.0
H3279 H 0.326 0.84874 0.9023 0.0
H3280 H 0.23881 0.83099 0.86849 0.0
H3281 H 0.24456 0.8142 0.82811 0.0
H3282 H 0.3169 0.8582 0.8434 0.0
C3283 C 0.30611 0.88961 0.93499 0.0
C3284 C 0.28943 0.88727 0.95055 0.0
C3285 C 0.26587 0.87436 0.94157 0.0
C3286 C 0.25918 0.8629 0.91754 0.0
C3287 C 0.27619 0.86508 0.90275 0.0
C3288 C 0.29908 0.87858 0.91103 0.0
C3289 C 0.31407 0.87792 0.89164 0.0
C3290 C 0.3241 0.90329 0.88612 0.0
C3291 C 0.33343 0.86701 0.89819 0.0
C3292 C 0.29621 0.86125 0.87131 0.0
C3293 C 0.27448 0.85392 0.87808 0.0
C3294 C 0.25562 0.837 0.86284 0.0
C3295 C 0.25907 0.82745 0.84006 0.0
C3296 C 0.2811 0.83515 0.83273 0.0
C3297 C 0.29979 0.85239 0.84848 0.0
H3298 H 0.92125 0.53812 0.72089 0.0
H3299 H 0.92648 0.48052 0.75746 0.0
H3300 H 0.93184 0.45692 0.72029 0.0
H3301 H 0.89362 0.49786 0.66012 0.0
H3302 H 0.91055 0.51993 0.64518 0.0
H3303 H 0.90141 0.52972 0.67288 0.0
H3304 H 0.94419 0.55353 0.69087 0.0
H3305 H 0.9534 0.54384 0.66336 0.0
H3306 H 0.96564 0.53781 0.69059 0.0
H3307 H 0.94412 0.44338 0.68237 0.0
H3308 H 0.96265 0.44109 0.64614 0.0
H3309 H 0.94988 0.50738 0.634 0.0
C3310 C 0.92264 0.52015 0.72075 0.0
C3311 C 0.9234 0.51105 0.74188 0.0
C3312 C 0.92592 0.48779 0.74137 0.0
C3313 C 0.92876 0.47416 0.72031 0.0
C3314 C 0.92891 0.484 0.69991 0.0
C3315 C 0.92574 0.5064 0.69987 0.0
C3316 C 0.93004 0.51438 0.67659 0.0
C3317 C 0.90756 0.51553 0.66288 0.0
C3318 C 0.94947 0.53882 0.68061 0.0
C3319 C 0.93753 0.49375 0.66426 0.0
C3320 C 0.93619 0.4761 0.67773 0.0
C3321 C 0.9447 0.45672 0.67132 0.0
C3322 C 0.95533 0.45564 0.65086 0.0
C3323 C 0.95744 0.47391 0.63724 0.0
C3324 C 0.94785 0.49278 0.64371 0.0
H3325 H 0.27387 0.22346 0.43877 0.0
H3326 H 0.33229 0.2841 0.47693 0.0
H3327 H 0.3352 0.30158 0.44081 0.0
H3328 H 0.29607 0.21715 0.38426 0.0
H3329 H 0.26858 0.20968 0.36536 0.0
H3330 H 0.26955 0.20261 0.39462 0.0
H3331 H 0.24139 0.22698 0.40522 0.0
H3332 H 0.24012 0.2339 0.37587 0.0
H3333 H 0.24842 0.25807 0.40169 0.0
H3334 H 0.33369 0.31137 0.39982 0.0
H3335 H 0.32654 0.31387 0.35762 0.0
H3336 H 0.26907 0.24706 0.34507 0.0
C3337 C 0.28692 0.24071 0.43971 0.0
C3338 C 0.30274 0.25245 0.46099 0.0
C3339 C 0.31988 0.27473 0.46108 0.0
C3340 C 0.32172 0.28482 0.44055 0.0
C3341 C 0.30633 0.27251 0.4198 0.0
C3342 C 0.28911 0.25104 0.41922 0.0
C3343 C 0.27536 0.24111 0.39427 0.0
C3344 C 0.27752 0.21616 0.38403 0.0
C3345 C 0.2498 0.23995 0.39427 0.0
C3346 C 0.28766 0.26024 0.38093 0.0
C3347 C 0.30547 0.27817 0.39606 0.0
C3348 C 0.31968 0.2975 0.38788 0.0
C3349 C 0.3155 0.29871 0.36375 0.0
C3350 C 0.29721 0.28073 0.34777 0.0
C3351 C 0.28316 0.2612 0.35667 0.0
H3352 H 0.32949 0.59566 0.549 0.0
H3353 H 0.35546 0.65773 0.51634 0.0
H3354 H 0.38651 0.64175 0.50351 0.0
H3355 H 0.38684 0.58699 0.56721 0.0
H3356 H 0.37431 0.55448 0.56001 0.0
H3357 H 0.35703 0.57316 0.5704 0.0
H3358 H 0.32633 0.55277 0.53276 0.0
H3359 H 0.34373 0.5345 0.52195 0.0
H3360 H 0.335 0.55358 0.50379 0.0
H3361 H 0.41133 0.61655 0.48981 0.0
H3362 H 0.43026 0.58529 0.47895 0.0
H3363 H 0.38635 0.53875 0.51865 0.0
C3364 C 0.34223 0.60637 0.53996 0.0
C3365 C 0.34019 0.62801 0.53381 0.0
C3366 C 0.35679 0.64117 0.52135 0.0
C3367 C 0.37447 0.63223 0.51396 0.0
C3368 C 0.37524 0.61015 0.51921 0.0
C3369 C 0.35976 0.59754 0.53221 0.0
C3370 C 0.36289 0.57317 0.53353 0.0
C3371 C 0.37074 0.57188 0.55932 0.0
C3372 C 0.34067 0.55229 0.52233 0.0
C3373 C 0.38208 0.57375 0.51867 0.0
C3374 C 0.38914 0.59531 0.51077 0.0
C3375 C 0.4061 0.59967 0.49607 0.0
C3376 C 0.41649 0.58167 0.4897 0.0
C3377 C 0.40968 0.55954 0.49786 0.0
C3378 C 0.39209 0.55556 0.51234 0.0
H3379 H 0.88102 0.92047 0.54353 0.0
H3380 H 0.84487 0.97336 0.53649 0.0
H3381 H 0.88167 0.00365 0.53408 0.0
H3382 H 0.93405 0.96156 0.57847 0.0
H3383 H 0.95285 0.9475 0.56345 0.0
H3384 H 0.92373 0.92971 0.56524 0.0
H3385 H 0.91527 0.91638 0.51936 0.0
H3386 H 0.94441 0.934 0.51747 0.0
H3387 H 0.92002 0.93911 0.50121 0.0
H3388 H 0.92229 0.02902 0.53444 0.0
H3389 H 0.96396 0.04653 0.53243 0.0
H3390 H 0.9741 0.97697 0.53598 0.0
C3391 C 0.88091 0.93841 0.54144 0.0
C3392 C 0.86005 0.94455 0.54028 0.0
C3393 C 0.86058 0.96816 0.53731 0.0
C3394 C 0.88143 0.98559 0.53606 0.0
C3395 C 0.90169 0.97911 0.53741 0.0
C3396 C 0.90163 0.95601 0.53961 0.0
C3397 C 0.92586 0.9537 0.53956 0.0
C3398 C 0.93463 0.94777 0.56308 0.0
C3399 C 0.92642 0.93467 0.51812 0.0
C3400 C 0.93942 0.97912 0.53719 0.0
C3401 C 0.92514 0.99353 0.53634 0.0
C3402 C 0.93365 0.01788 0.53489 0.0
C3403 C 0.95737 0.02771 0.53389 0.0
C3404 C 0.97225 0.01313 0.53394 0.0
C3405 C 0.9631 0.98852 0.53571 0.0
H3406 H 0.89427 0.10347 0.31338 0.0
H3407 H 0.90496 0.08576 0.2401 0.0
H3408 H 0.88024 0.11002 0.22833 0.0
H3409 H 0.83462 0.10151 0.30098 0.0
H3410 H 0.83752 0.1267 0.32474 0.0
H3411 H 0.85574 0.10764 0.32723 0.0
H3412 H 0.89232 0.14532 0.33448 0.0
H3413 H 0.87422 0.16449 0.33195 0.0
H3414 H 0.89626 0.16491 0.31314 0.0
H3415 H 0.85398 0.13607 0.22459 0.0
H3416 H 0.82919 0.16275 0.22937 0.0
H3417 H 0.83644 0.16385 0.30519 0.0
C3418 C 0.89138 0.10455 0.29482 0.0
C3419 C 0.90154 0.09259 0.27766 0.0
C3420 C 0.8974 0.09473 0.2536 0.0
C3421 C 0.88335 0.10845 0.24673 0.0
C3422 C 0.87367 0.12003 0.26413 0.0
C3423 C 0.87757 0.11828 0.28769 0.0
C3424 C 0.86547 0.13277 0.30301 0.0
C3425 C 0.84725 0.11616 0.31467 0.0
C3426 C 0.88312 0.15308 0.32175 0.0
C3427 C 0.85411 0.14296 0.2844 0.0
C3428 C 0.85894 0.13532 0.26206 0.0
C3429 C 0.8501 0.14217 0.242 0.0
C3430 C 0.83596 0.15722 0.24487 0.0
C3431 C 0.83092 0.16539 0.26765 0.0
C3432 C 0.8402 0.15813 0.28761 0.0
H3433 H 0.70896 0.14696 0.03502 0.0
H3434 H 0.72786 0.1399 0.10751 0.0
H3435 H 0.68651 0.12066 0.10975 0.0
H3436 H 0.65254 0.15765 0.04288 0.0
H3437 H 0.63906 0.14008 0.01373 0.0
H3438 H 0.66965 0.15646 0.01915 0.0
H3439 H 0.67853 0.11667 0.0036 0.0
H3440 H 0.64806 0.10011 0.99849 0.0
H3441 H 0.668 0.09081 0.01717 0.0
H3442 H 0.64413 0.09808 0.10248 0.0
H3443 H 0.60318 0.07538 0.0871 0.0
H3444 H 0.61201 0.09674 0.019 0.0
C3445 C 0.7044 0.14199 0.05161 0.0
C3446 C 0.72162 0.14496 0.07113 0.0
C3447 C 0.71494 0.13784 0.09237 0.0
C3448 C 0.69151 0.12692 0.0938 0.0
C3449 C 0.67507 0.12342 0.0739 0.0
C3450 C 0.68117 0.13098 0.05329 0.0
C3451 C 0.66041 0.12344 0.03383 0.0
C3452 C 0.6551 0.14574 0.027 0.0
C3453 C 0.66397 0.10677 0.012 0.0
C3454 C 0.64179 0.10979 0.04648 0.0
C3455 C 0.65057 0.11021 0.06964 0.0
C3456 C 0.63698 0.0979 0.0845 0.0
C3457 C 0.61374 0.08493 0.0755 0.0
C3458 C 0.60434 0.08426 0.0518 0.0
C3459 C 0.61862 0.09697 0.0372 0.0
H3460 H 0.18936 0.48274 0.27566 0.0
H3461 H 0.21224 0.5259 0.34725 0.0
H3462 H 0.24451 0.50883 0.35192 0.0
H3463 H 0.20051 0.43005 0.2887 0.0
H3464 H 0.21033 0.4222 0.26088 0.0
H3465 H 0.18994 0.43909 0.26246 0.0
H3466 H 0.21767 0.47283 0.24569 0.0
H3467 H 0.2382 0.45604 0.24413 0.0
H3468 H 0.24716 0.48686 0.26047 0.0
H3469 H 0.27296 0.48563 0.34982 0.0
H3470 H 0.29474 0.45653 0.34151 0.0
H3471 H 0.254 0.42905 0.27109 0.0
C3472 C 0.20127 0.48878 0.29224 0.0
C3473 C 0.19823 0.50569 0.31106 0.0
C3474 C 0.21412 0.51294 0.33255 0.0
C3475 C 0.23261 0.50345 0.33537 0.0
C3476 C 0.23503 0.48677 0.31653 0.0
C3477 C 0.21981 0.47945 0.2954 0.0
C3478 C 0.22566 0.46037 0.27839 0.0
C3479 C 0.20541 0.43652 0.27226 0.0
C3480 C 0.23259 0.46959 0.25584 0.0
C3481 C 0.24626 0.4578 0.29347 0.0
C3482 C 0.25153 0.47336 0.31531 0.0
C3483 C 0.26922 0.47355 0.33266 0.0
C3484 C 0.2816 0.45706 0.32771 0.0
C3485 C 0.27616 0.44057 0.30561 0.0
C3486 C 0.25851 0.44134 0.28818 0.0
H3487 H 0.25232 0.45699 0.07247 0.0
H3488 H 0.22291 0.38774 0.02361 0.0
H3489 H 0.18772 0.39901 0.01244 0.0
H3490 H 0.19782 0.46155 0.09177 0.0
H3491 H 0.20607 0.49383 0.09332 0.0
H3492 H 0.22801 0.47945 0.09867 0.0
H3493 H 0.24892 0.49768 0.06572 0.0
H3494 H 0.22703 0.51202 0.0602 0.0
H3495 H 0.23305 0.49206 0.03622 0.0
H3496 H 0.15699 0.41937 0.00449 0.0
H3497 H 0.13281 0.44642 0.00136 0.0
H3498 H 0.18257 0.50218 0.05555 0.0
C3499 C 0.23837 0.44399 0.05966 0.0
C3500 C 0.24039 0.42142 0.04895 0.0
C3501 C 0.22174 0.40507 0.03215 0.0
C3502 C 0.20169 0.41134 0.02568 0.0
C3503 C 0.20049 0.43394 0.03629 0.0
C3504 C 0.21828 0.44992 0.05307 0.0
C3505 C 0.21319 0.47345 0.06119 0.0
C3506 C 0.21114 0.47728 0.08782 0.0
C3507 C 0.23164 0.49507 0.05548 0.0
C3508 C 0.18992 0.46845 0.04604 0.0
C3509 C 0.18283 0.44554 0.03185 0.0
C3510 C 0.16231 0.43726 0.01567 0.0
C3511 C 0.14877 0.45281 0.01391 0.0
C3512 C 0.15576 0.47641 0.02824 0.0
C3513 C 0.17655 0.48413 0.04463 0.0
H3514 H 0.90009 0.97304 0.31542 0.0
H3515 H 0.88704 0.98367 0.24329 0.0
H3516 H 0.85796 0.94273 0.23237 0.0
H3517 H 0.89695 0.91034 0.29886 0.0
H3518 H 0.8838 0.90198 0.32421 0.0
H3519 H 0.90271 0.93231 0.32619 0.0
H3520 H 0.87013 0.94954 0.33918 0.0
H3521 H 0.85108 0.91925 0.33709 0.0
H3522 H 0.84218 0.93952 0.32062 0.0
H3523 H 0.82874 0.90094 0.23028 0.0
H3524 H 0.8058 0.86032 0.23577 0.0
H3525 H 0.84088 0.87655 0.30838 0.0
C3526 C 0.89104 0.96678 0.29734 0.0
C3527 C 0.89556 0.98155 0.28023 0.0
C3528 C 0.88376 0.97259 0.25664 0.0
C3529 C 0.86717 0.94944 0.25034 0.0
C3530 C 0.86297 0.93539 0.26775 0.0
C3531 C 0.87491 0.94362 0.29066 0.0
C3532 C 0.86818 0.92468 0.3058 0.0
C3533 C 0.88916 0.91686 0.31425 0.0
C3534 C 0.85724 0.9338 0.32692 0.0
C3535 C 0.85041 0.90451 0.28794 0.0
C3536 C 0.84733 0.91109 0.26618 0.0
C3537 C 0.83119 0.89555 0.2472 0.0
C3538 C 0.81816 0.87261 0.25049 0.0
C3539 C 0.82171 0.86533 0.27243 0.0
C3540 C 0.83798 0.88158 0.29134 0.0
H3541 H 0.70321 0.10461 0.75744 0.0
H3542 H 0.69242 0.10841 0.83123 0.0
H3543 H 0.70776 0.15279 0.83845 0.0
H3544 H 0.75709 0.15276 0.76899 0.0
H3545 H 0.75142 0.16467 0.74289 0.0
H3546 H 0.73852 0.13297 0.74283 0.0
H3547 H 0.69767 0.13664 0.7312 0.0
H3548 H 0.71045 0.16838 0.73123 0.0
H3549 H 0.68831 0.15896 0.74938 0.0
H3550 H 0.72469 0.19607 0.83847 0.0
H3551 H 0.74365 0.23676 0.83166 0.0
H3552 H 0.74465 0.20634 0.75797 0.0
C3553 C 0.70395 0.11481 0.77506 0.0
C3554 C 0.69661 0.10294 0.79377 0.0
C3555 C 0.69803 0.11697 0.81662 0.0
C3556 C 0.70664 0.14225 0.82091 0.0
C3557 C 0.71384 0.15334 0.80222 0.0
C3558 C 0.7127 0.14021 0.77976 0.0
C3559 C 0.72242 0.15691 0.76315 0.0
C3560 C 0.74362 0.1515 0.75393 0.0
C3561 C 0.70359 0.15511 0.74252 0.0
C3562 C 0.72934 0.18138 0.77993 0.0
C3563 C 0.72402 0.17875 0.8023 0.0
C3564 C 0.72891 0.19843 0.82103 0.0
C3565 C 0.73974 0.22152 0.81693 0.0
C3566 C 0.7457 0.22484 0.79425 0.0
C3567 C 0.74026 0.20443 0.77547 0.0
loop_
_geom_bond_atom_site_label_1
_geom_bond_atom_site_label_2
_geom_bond_distance
_geom_bond_site_symmetry_2
_ccdc_geom_bond_type
Mg0 O1 2.028 . S
Mg0 O7 1.986 . S
Mg0 O9 2.114 . S
Mg0 O10 2.251 1_455 S
Mg0 O13 2.010 . S
O1 Mg0 2.028 . S
O1 C4 1.250 . S
O2 Mg3 2.028 1_455 S
O2 C4 1.248 . S
Mg3 O2 2.028 1_655 S
Mg3 O8 2.032 1_655 S
Mg3 O10 2.079 . S
C4 O1 1.250 . S
C4 O2 1.248 . S
C5 O6 1.264 . S
C5 O13 1.249 . S
O6 C5 1.264 . S
O7 Mg0 1.986 . S
O7 C11 1.246 . S
O8 Mg3 2.032 1_455 S
O8 C11 1.259 . S
O9 Mg0 2.114 . S
O9 C12 1.252 1_455 S
O10 Mg0 2.251 1_655 S
O10 Mg3 2.079 . S
O10 C12 1.273 . S
C11 O7 1.246 . S
C11 O8 1.259 . S
C12 O9 1.252 1_655 S
C12 O10 1.273 . S
O13 Mg0 2.010 . S
O13 C5 1.249 . S
Mg14 O15 2.028 . S
Mg14 O21 1.986 . S
Mg14 O23 2.114 . S
Mg14 O24 2.251 1_455 S
Mg14 O27 2.010 . S
O15 Mg14 2.028 . S
O15 C18 1.250 . S
O16 Mg17 2.028 . S
O16 C18 1.248 1_655 S
Mg17 O16 2.028 . S
Mg17 O22 2.032 1_655 S
Mg17 O24 2.079 . S
C18 O15 1.250 . S
C18 O16 1.248 1_455 S
C19 O20 1.264 . S
C19 O27 1.249 . S
O20 C19 1.264 . S
O21 Mg14 1.986 . S
O21 C25 1.246 . S
O22 Mg17 2.032 1_455 S
O22 C25 1.259 . S
O23 Mg14 2.114 . S
O23 C26 1.252 1_455 S
O24 Mg14 2.251 1_655 S
O24 Mg17 2.079 . S
O24 C26 1.273 . S
C25 O21 1.246 . S
C25 O22 1.259 . S
C26 O23 1.252 1_655 S
C26 O24 1.273 . S
O27 Mg14 2.010 . S
O27 C19 1.249 . S
Mg28 O29 2.028 . S
Mg28 O35 1.986 . S
Mg28 O37 2.114 . S
Mg28 O38 2.251 . S
Mg28 O41 2.010 . S
O29 Mg28 2.028 . S
O29 C32 1.250 . S
O30 Mg31 2.028 . S
O30 C32 1.248 . S
Mg31 O30 2.028 . S
Mg31 O36 2.032 . S
Mg31 O38 2.079 . S
C32 O29 1.250 . S
C32 O30 1.248 . S
C33 O34 1.264 . S
C33 O41 1.249 . S
O34 C33 1.264 . S
O35 Mg28 1.986 . S
O35 C39 1.246 . S
O36 Mg31 2.032 . S
O36 C39 1.259 . S
O37 Mg28 2.114 . S
O37 C40 1.252 . S
O38 Mg28 2.251 . S
O38 Mg31 2.079 . S
O38 C40 1.273 . S
C39 O35 1.246 . S
C39 O36 1.259 . S
C40 O37 1.252 . S
C40 O38 1.273 . S
O41 Mg28 2.010 . S
O41 C33 1.249 . S
Mg42 O43 2.028 . S
Mg42 O49 1.986 . S
Mg42 O51 2.114 . S
Mg42 O52 2.251 . S
Mg42 O55 2.010 . S
O43 Mg42 2.028 . S
O43 C46 1.250 . S
O44 Mg45 2.028 . S
O44 C46 1.248 . S
Mg45 O44 2.028 . S
Mg45 O50 2.032 . S
Mg45 O52 2.079 . S
C46 O43 1.250 . S
C46 O44 1.248 . S
C47 O48 1.264 . S
C47 O55 1.249 . S
O48 C47 1.264 . S
O49 Mg42 1.986 . S
O49 C53 1.246 . S
O50 Mg45 2.032 . S
O50 C53 1.259 . S
O51 Mg42 2.114 . S
O51 C54 1.252 . S
O52 Mg42 2.251 . S
O52 Mg45 2.079 . S
O52 C54 1.273 . S
C53 O49 1.246 . S
C53 O50 1.259 . S
C54 O51 1.252 . S
C54 O52 1.273 . S
O55 Mg42 2.010 . S
O55 C47 1.249 . S
Mg56 O57 2.028 . S
Mg56 O63 1.986 . S
Mg56 O65 2.114 . S
Mg56 O66 2.251 . S
Mg56 O69 2.010 . S
O57 Mg56 2.028 . S
O57 C60 1.250 . S
O58 Mg59 2.028 . S
O58 C60 1.248 . S
Mg59 O58 2.028 . S
Mg59 O64 2.032 . S
Mg59 O66 2.079 . S
C60 O57 1.250 . S
C60 O58 1.248 . S
C61 O62 1.264 . S
C61 O69 1.249 . S
O62 C61 1.264 . S
O63 Mg56 1.986 . S
O63 C67 1.246 . S
O64 Mg59 2.032 . S
O64 C67 1.259 . S
O65 Mg56 2.114 . S
O65 C68 1.252 . S
O66 Mg56 2.251 . S
O66 Mg59 2.079 . S
O66 C68 1.273 . S
C67 O63 1.246 . S
C67 O64 1.259 . S
C68 O65 1.252 . S
C68 O66 1.273 . S
O69 Mg56 2.010 . S
O69 C61 1.249 . S
Mg70 O71 2.028 . S
Mg70 O77 1.986 . S
Mg70 O79 2.114 . S
Mg70 O80 2.251 . S
Mg70 O83 2.010 . S
O71 Mg70 2.028 . S
O71 C74 1.250 . S
O72 Mg73 2.028 . S
O72 C74 1.248 . S
Mg73 O72 2.028 . S
Mg73 O78 2.032 . S
Mg73 O80 2.079 . S
C74 O71 1.250 . S
C74 O72 1.248 . S
C75 O76 1.264 . S
C75 O83 1.249 . S
O76 C75 1.264 . S
O77 Mg70 1.986 . S
O77 C81 1.246 . S
O78 Mg73 2.032 . S
O78 C81 1.259 . S
O79 Mg70 2.114 . S
O79 C82 1.252 . S
O80 Mg70 2.251 . S
O80 Mg73 2.079 . S
O80 C82 1.273 . S
C81 O77 1.246 . S
C81 O78 1.259 . S
C82 O79 1.252 . S
C82 O80 1.273 . S
O83 Mg70 2.010 . S
O83 C75 1.249 . S
Mg84 O85 2.028 . S
Mg84 O91 1.986 . S
Mg84 O93 2.114 . S
Mg84 O94 2.251 . S
Mg84 O97 2.010 . S
O85 Mg84 2.028 . S
O85 C88 1.250 . S
O86 Mg87 2.028 . S
O86 C88 1.248 . S
Mg87 O86 2.028 . S
Mg87 O92 2.032 . S
Mg87 O94 2.079 . S
C88 O85 1.250 . S
C88 O86 1.248 . S
C89 O90 1.264 . S
C89 O97 1.249 . S
O90 C89 1.264 . S
O91 Mg84 1.986 . S
O91 C95 1.246 . S
O92 Mg87 2.032 . S
O92 C95 1.259 . S
O93 Mg84 2.114 . S
O93 C96 1.252 . S
O94 Mg84 2.251 . S
O94 Mg87 2.079 . S
O94 C96 1.273 . S
C95 O91 1.246 . S
C95 O92 1.259 . S
C96 O93 1.252 . S
C96 O94 1.273 . S
O97 Mg84 2.010 . S
O97 C89 1.249 . S
Mg98 O99 2.028 1_655 S
Mg98 O105 1.986 1_655 S
Mg98 O107 2.114 . S
Mg98 O108 2.251 . S
Mg98 O111 2.010 1_655 S
O99 Mg98 2.028 1_455 S
O99 C102 1.250 . S
O100 Mg101 2.028 . S
O100 C102 1.248 1_655 S
Mg101 O100 2.028 . S
Mg101 O106 2.032 . S
Mg101 O108 2.079 . S
C102 O99 1.250 . S
C102 O100 1.248 1_455 S
C103 O104 1.264 . S
C103 O111 1.249 . S
O104 C103 1.264 . S
O105 Mg98 1.986 1_455 S
O105 C109 1.246 1_455 S
O106 Mg101 2.032 . S
O106 C109 1.259 . S
O107 Mg98 2.114 . S
O107 C110 1.252 . S
O108 Mg98 2.251 . S
O108 Mg101 2.079 . S
O108 C110 1.273 . S
C109 O105 1.246 1_655 S
C109 O106 1.259 . S
C110 O107 1.252 . S
C110 O108 1.273 . S
O111 Mg98 2.010 1_455 S
O111 C103 1.249 . S
Mg112 O113 2.028 1_545 S
Mg112 O119 1.986 . S
Mg112 O121 2.114 . S
Mg112 O122 2.251 . S
Mg112 O125 2.010 . S
O113 Mg112 2.028 1_565 S
O113 C116 1.250 . S
O114 Mg115 2.028 1_565 S
O114 C116 1.248 . S
Mg115 O114 2.028 1_545 S
Mg115 O120 2.032 . S
Mg115 O122 2.079 . S
C116 O113 1.250 . S
C116 O114 1.248 . S
C117 O118 1.264 . S
C117 O125 1.249 . S
O118 C117 1.264 . S
O119 Mg112 1.986 . S
O119 C123 1.246 . S
O120 Mg115 2.032 . S
O120 C123 1.259 . S
O121 Mg112 2.114 . S
O121 C124 1.252 . S
O122 Mg112 2.251 . S
O122 Mg115 2.079 . S
O122 C124 1.273 . S
C123 O119 1.246 . S
C123 O120 1.259 . S
C124 O121 1.252 . S
C124 O122 1.273 . S
O125 Mg112 2.010 . S
O125 C117 1.249 . S
Mg126 O127 2.028 . S
Mg126 O133 1.986 . S
Mg126 O135 2.114 . S
Mg126 O136 2.251 . S
Mg126 O139 2.010 . S
O127 Mg126 2.028 . S
O127 C130 1.250 . S
O128 Mg129 2.028 . S
O128 C130 1.248 . S
Mg129 O128 2.028 . S
Mg129 O134 2.032 . S
Mg129 O136 2.079 . S
C130 O127 1.250 . S
C130 O128 1.248 . S
C131 O132 1.264 . S
C131 O139 1.249 . S
O132 C131 1.264 . S
O133 Mg126 1.986 . S
O133 C137 1.246 . S
O134 Mg129 2.032 . S
O134 C137 1.259 . S
O135 Mg126 2.114 . S
O135 C138 1.252 . S
O136 Mg126 2.251 . S
O136 Mg129 2.079 . S
O136 C138 1.273 . S
C137 O133 1.246 . S
C137 O134 1.259 . S
C138 O135 1.252 . S
C138 O136 1.273 . S
O139 Mg126 2.010 . S
O139 C131 1.249 . S
Mg140 O141 2.028 . S
Mg140 O147 1.986 . S
Mg140 O149 2.114 . S
Mg140 O150 2.251 . S
Mg140 O153 2.010 . S
O141 Mg140 2.028 . S
O141 C144 1.250 . S
O142 Mg143 2.028 . S
O142 C144 1.248 . S
Mg143 O142 2.028 . S
Mg143 O148 2.032 . S
Mg143 O150 2.079 . S
C144 O141 1.250 . S
C144 O142 1.248 . S
C145 O146 1.264 . S
C145 O153 1.249 . S
O146 C145 1.264 . S
O147 Mg140 1.986 . S
O147 C151 1.246 . S
O148 Mg143 2.032 . S
O148 C151 1.259 . S
O149 Mg140 2.114 . S
O149 C152 1.252 . S
O150 Mg140 2.251 . S
O150 Mg143 2.079 . S
O150 C152 1.273 . S
C151 O147 1.246 . S
C151 O148 1.259 . S
C152 O149 1.252 . S
C152 O150 1.273 . S
O153 Mg140 2.010 . S
O153 C145 1.249 . S
Mg154 O155 2.028 1_554 S
Mg154 O161 1.986 . S
Mg154 O163 2.114 1_554 S
Mg154 O164 2.251 . S
Mg154 O167 2.010 . S
O155 Mg154 2.028 1_556 S
O155 C158 1.250 . S
O156 Mg157 2.028 1_556 S
O156 C158 1.248 . S
Mg157 O156 2.028 1_554 S
Mg157 O162 2.032 . S
Mg157 O164 2.079 . S
C158 O155 1.250 . S
C158 O156 1.248 . S
C159 O160 1.264 . S
C159 O167 1.249 . S
O160 C159 1.264 . S
O161 Mg154 1.986 . S
O161 C165 1.246 . S
O162 Mg157 2.032 . S
O162 C165 1.259 . S
O163 Mg154 2.114 1_556 S
O163 C166 1.252 1_556 S
O164 Mg154 2.251 . S
O164 Mg157 2.079 . S
O164 C166 1.273 . S
C165 O161 1.246 . S
C165 O162 1.259 . S
C166 O163 1.252 1_554 S
C166 O164 1.273 . S
O167 Mg154 2.010 . S
O167 C159 1.249 . S
Mg168 O169 2.028 . S
Mg168 O175 1.986 . S
Mg168 O177 2.114 . S
Mg168 O178 2.251 . S
Mg168 O181 2.010 . S
O169 Mg168 2.028 . S
O169 C172 1.250 1_554 S
O170 Mg171 2.028 . S
O170 C172 1.248 1_554 S
Mg171 O170 2.028 . S
Mg171 O176 2.032 . S
Mg171 O178 2.079 . S
C172 O169 1.250 1_556 S
C172 O170 1.248 1_556 S
C173 O174 1.264 . S
C173 O181 1.249 . S
O174 C173 1.264 . S
O175 Mg168 1.986 . S
O175 C179 1.246 . S
O176 Mg171 2.032 . S
O176 C179 1.259 . S
O177 Mg168 2.114 . S
O177 C180 1.252 . S
O178 Mg168 2.251 . S
O178 Mg171 2.079 . S
O178 C180 1.273 . S
C179 O175 1.246 . S
C179 O176 1.259 . S
C180 O177 1.252 . S
C180 O178 1.273 . S
O181 Mg168 2.010 . S
O181 C173 1.249 . S
Mg182 O183 2.028 . S
Mg182 O189 1.986 . S
Mg182 O191 2.114 . S
Mg182 O192 2.251 . S
Mg182 O195 2.010 . S
O183 Mg182 2.028 . S
O183 C186 1.250 . S
O184 Mg185 2.028 . S
O184 C186 1.248 . S
Mg185 O184 2.028 . S
Mg185 O190 2.032 . S
Mg185 O192 2.079 . S
C186 O183 1.250 . S
C186 O184 1.248 . S
C187 O188 1.264 . S
C187 O195 1.249 . S
O188 C187 1.264 . S
O189 Mg182 1.986 . S
O189 C193 1.246 . S
O190 Mg185 2.032 . S
O190 C193 1.259 . S
O191 Mg182 2.114 . S
O191 C194 1.252 . S
O192 Mg182 2.251 . S
O192 Mg185 2.079 . S
O192 C194 1.273 . S
C193 O189 1.246 . S
C193 O190 1.259 . S
C194 O191 1.252 . S
C194 O192 1.273 . S
O195 Mg182 2.010 . S
O195 C187 1.249 . S
Mg196 O197 2.028 . S
Mg196 O203 1.986 . S
Mg196 O205 2.114 . S
Mg196 O206 2.251 . S
Mg196 O209 2.010 . S
O197 Mg196 2.028 . S
O197 C200 1.250 . S
O198 Mg199 2.028 . S
O198 C200 1.248 . S
Mg199 O198 2.028 . S
Mg199 O204 2.032 . S
Mg199 O206 2.079 . S
C200 O197 1.250 . S
C200 O198 1.248 . S
C201 O202 1.264 . S
C201 O209 1.249 . S
O202 C201 1.264 . S
O203 Mg196 1.986 . S
O203 C207 1.246 . S
O204 Mg199 2.032 . S
O204 C207 1.259 . S
O205 Mg196 2.114 . S
O205 C208 1.252 . S
O206 Mg196 2.251 . S
O206 Mg199 2.079 . S
O206 C208 1.273 . S
C207 O203 1.246 . S
C207 O204 1.259 . S
C208 O205 1.252 . S
C208 O206 1.273 . S
O209 Mg196 2.010 . S
O209 C201 1.249 . S
Mg210 O211 2.028 . S
Mg210 O217 1.986 . S
Mg210 O219 2.114 . S
Mg210 O220 2.251 . S
Mg210 O223 2.010 . S
O211 Mg210 2.028 . S
O211 C214 1.250 . S
O212 Mg213 2.028 . S
O212 C214 1.248 . S
Mg213 O212 2.028 . S
Mg213 O218 2.032 . S
Mg213 O220 2.079 . S
C214 O211 1.250 . S
C214 O212 1.248 . S
C215 O216 1.264 . S
C215 O223 1.249 . S
O216 C215 1.264 . S
O217 Mg210 1.986 . S
O217 C221 1.246 . S
O218 Mg213 2.032 . S
O218 C221 1.259 . S
O219 Mg210 2.114 . S
O219 C222 1.252 . S
O220 Mg210 2.251 . S
O220 Mg213 2.079 . S
O220 C222 1.273 . S
C221 O217 1.246 . S
C221 O218 1.259 . S
C222 O219 1.252 . S
C222 O220 1.273 . S
O223 Mg210 2.010 . S
O223 C215 1.249 . S
Mg224 O225 2.028 . S
Mg224 O231 1.986 . S
Mg224 O233 2.114 . S
Mg224 O234 2.251 . S
Mg224 O237 2.010 . S
O225 Mg224 2.028 . S
O225 C228 1.250 1_545 S
O226 Mg227 2.028 . S
O226 C228 1.248 1_545 S
Mg227 O226 2.028 . S
Mg227 O232 2.032 . S
Mg227 O234 2.079 . S
C228 O225 1.250 1_565 S
C228 O226 1.248 1_565 S
C229 O230 1.264 . S
C229 O237 1.249 . S
O230 C229 1.264 . S
O231 Mg224 1.986 . S
O231 C235 1.246 . S
O232 Mg227 2.032 . S
O232 C235 1.259 . S
O233 Mg224 2.114 . S
O233 C236 1.252 . S
O234 Mg224 2.251 . S
O234 Mg227 2.079 . S
O234 C236 1.273 . S
C235 O231 1.246 . S
C235 O232 1.259 . S
C236 O233 1.252 . S
C236 O234 1.273 . S
O237 Mg224 2.010 . S
O237 C229 1.249 . S
Mg238 O239 2.028 . S
Mg238 O245 1.986 . S
Mg238 O247 2.114 . S
Mg238 O248 2.251 . S
Mg238 O251 2.010 . S
O239 Mg238 2.028 . S
O239 C242 1.250 . S
O240 Mg241 2.028 . S
O240 C242 1.248 . S
Mg241 O240 2.028 . S
Mg241 O246 2.032 . S
Mg241 O248 2.079 . S
C242 O239 1.250 . S
C242 O240 1.248 . S
C243 O244 1.264 . S
C243 O251 1.249 . S
O244 C243 1.264 . S
O245 Mg238 1.986 . S
O245 C249 1.246 . S
O246 Mg241 2.032 . S
O246 C249 1.259 . S
O247 Mg238 2.114 . S
O247 C250 1.252 . S
O248 Mg238 2.251 . S
O248 Mg241 2.079 . S
O248 C250 1.273 . S
C249 O245 1.246 . S
C249 O246 1.259 . S
C250 O247 1.252 . S
C250 O248 1.273 . S
O251 Mg238 2.010 . S
O251 C243 1.249 . S
Mg252 O253 2.028 . S
Mg252 O259 1.986 . S
Mg252 O261 2.114 . S
Mg252 O262 2.251 . S
Mg252 O265 2.010 . S
O253 Mg252 2.028 . S
O253 C256 1.250 . S
O254 Mg255 2.028 . S
O254 C256 1.248 . S
Mg255 O254 2.028 . S
Mg255 O260 2.032 . S
Mg255 O262 2.079 . S
C256 O253 1.250 . S
C256 O254 1.248 . S
C257 O258 1.264 . S
C257 O265 1.249 . S
O258 C257 1.264 . S
O259 Mg252 1.986 . S
O259 C263 1.246 . S
O260 Mg255 2.032 . S
O260 C263 1.259 . S
O261 Mg252 2.114 . S
O261 C264 1.252 . S
O262 Mg252 2.251 . S
O262 Mg255 2.079 . S
O262 C264 1.273 . S
C263 O259 1.246 . S
C263 O260 1.259 . S
C264 O261 1.252 . S
C264 O262 1.273 . S
O265 Mg252 2.010 . S
O265 C257 1.249 . S
Mg266 O267 2.028 . S
Mg266 O273 1.986 . S
Mg266 O275 2.114 . S
Mg266 O276 2.251 . S
Mg266 O279 2.010 . S
O267 Mg266 2.028 . S
O267 C270 1.250 . S
O268 Mg269 2.028 . S
O268 C270 1.248 . S
Mg269 O268 2.028 . S
Mg269 O274 2.032 . S
Mg269 O276 2.079 . S
C270 O267 1.250 . S
C270 O268 1.248 . S
C271 O272 1.264 . S
C271 O279 1.249 . S
O272 C271 1.264 . S
O273 Mg266 1.986 . S
O273 C277 1.246 . S
O274 Mg269 2.032 . S
O274 C277 1.259 . S
O275 Mg266 2.114 . S
O275 C278 1.252 . S
O276 Mg266 2.251 . S
O276 Mg269 2.079 . S
O276 C278 1.273 . S
C277 O273 1.246 . S
C277 O274 1.259 . S
C278 O275 1.252 . S
C278 O276 1.273 . S
O279 Mg266 2.010 . S
O279 C271 1.249 . S
Mg280 O281 2.028 . S
Mg280 O287 1.986 1_554 S
Mg280 O289 2.114 . S
Mg280 O290 2.251 . S
Mg280 O293 2.010 . S
O281 Mg280 2.028 . S
O281 C284 1.250 . S
O282 Mg283 2.028 . S
O282 C284 1.248 . S
Mg283 O282 2.028 . S
Mg283 O288 2.032 . S
Mg283 O290 2.079 . S
C284 O281 1.250 . S
C284 O282 1.248 . S
C285 O286 1.264 1_554 S
C285 O293 1.249 . S
O286 C285 1.264 1_556 S
O287 Mg280 1.986 1_556 S
O287 C291 1.246 . S
O288 Mg283 2.032 . S
O288 C291 1.259 1_554 S
O289 Mg280 2.114 . S
O289 C292 1.252 . S
O290 Mg280 2.251 . S
O290 Mg283 2.079 . S
O290 C292 1.273 . S
C291 O287 1.246 . S
C291 O288 1.259 1_556 S
C292 O289 1.252 . S
C292 O290 1.273 . S
O293 Mg280 2.010 . S
O293 C285 1.249 . S
Mg294 O295 2.028 . S
Mg294 O301 1.986 . S
Mg294 O303 2.114 . S
Mg294 O304 2.251 . S
Mg294 O307 2.010 . S
O295 Mg294 2.028 . S
O295 C298 1.250 . S
O296 Mg297 2.028 . S
O296 C298 1.248 . S
Mg297 O296 2.028 . S
Mg297 O302 2.032 . S
Mg297 O304 2.079 . S
C298 O295 1.250 . S
C298 O296 1.248 . S
C299 O300 1.264 . S
C299 O307 1.249 . S
O300 C299 1.264 . S
O301 Mg294 1.986 . S
O301 C305 1.246 . S
O302 Mg297 2.032 . S
O302 C305 1.259 . S
O303 Mg294 2.114 . S
O303 C306 1.252 . S
O304 Mg294 2.251 . S
O304 Mg297 2.079 . S
O304 C306 1.273 . S
C305 O301 1.246 . S
C305 O302 1.259 . S
C306 O303 1.252 . S
C306 O304 1.273 . S
O307 Mg294 2.010 . S
O307 C299 1.249 . S
Mg308 O309 2.028 . S
Mg308 O315 1.986 . S
Mg308 O317 2.114 . S
Mg308 O318 2.251 . S
Mg308 O321 2.010 . S
O309 Mg308 2.028 . S
O309 C312 1.250 . S
O310 Mg311 2.028 . S
O310 C312 1.248 . S
Mg311 O310 2.028 . S
Mg311 O316 2.032 . S
Mg311 O318 2.079 . S
C312 O309 1.250 . S
C312 O310 1.248 . S
C313 O314 1.264 . S
C313 O321 1.249 . S
O314 C313 1.264 . S
O315 Mg308 1.986 . S
O315 C319 1.246 . S
O316 Mg311 2.032 . S
O316 C319 1.259 . S
O317 Mg308 2.114 . S
O317 C320 1.252 . S
O318 Mg308 2.251 . S
O318 Mg311 2.079 . S
O318 C320 1.273 . S
C319 O315 1.246 . S
C319 O316 1.259 . S
C320 O317 1.252 . S
C320 O318 1.273 . S
O321 Mg308 2.010 . S
O321 C313 1.249 . S
Mg322 O323 2.028 . S
Mg322 O329 1.986 . S
Mg322 O331 2.114 . S
Mg322 O332 2.251 . S
Mg322 O335 2.010 . S
O323 Mg322 2.028 . S
O323 C326 1.250 . S
O324 Mg325 2.028 . S
O324 C326 1.248 . S
Mg325 O324 2.028 . S
Mg325 O330 2.032 . S
Mg325 O332 2.079 . S
C326 O323 1.250 . S
C326 O324 1.248 . S
C327 O328 1.264 . S
C327 O335 1.249 . S
O328 C327 1.264 . S
O329 Mg322 1.986 . S
O329 C333 1.246 . S
O330 Mg325 2.032 . S
O330 C333 1.259 . S
O331 Mg322 2.114 . S
O331 C334 1.252 . S
O332 Mg322 2.251 . S
O332 Mg325 2.079 . S
O332 C334 1.273 . S
C333 O329 1.246 . S
C333 O330 1.259 . S
C334 O331 1.252 . S
C334 O332 1.273 . S
O335 Mg322 2.010 . S
O335 C327 1.249 . S
Dy336 O339 2.307 . S
Dy336 O341 2.395 . S
Dy336 O342 2.379 . S
Dy336 O344 2.339 . S
Dy336 O346 2.298 . S
Dy336 O350 2.299 . S
Dy336 C358 2.738 . S
Dy337 O340 2.298 1_655 S
Dy337 O343 2.275 1_655 S
Dy337 O345 2.307 1_645 S
Dy337 O347 2.395 . S
Dy337 O348 2.379 1_554 S
Dy337 O351 2.339 1_654 S
Dy337 C367 2.738 . S
C338 O350 1.229 1_556 S
C338 O351 1.257 . S
O339 Dy336 2.307 . S
O339 C349 1.266 . S
O340 Dy337 2.298 1_455 S
O340 C349 1.236 . S
O341 Dy336 2.395 . S
O341 C358 1.255 . S
O342 Dy336 2.379 . S
O342 C358 1.249 . S
O343 Dy337 2.275 1_455 S
O343 C359 1.254 . S
O344 Dy336 2.339 . S
O344 C359 1.257 . S
O345 Dy337 2.307 1_465 S
O345 C360 1.266 . S
O346 Dy336 2.298 . S
O346 C360 1.236 1_545 S
O347 Dy337 2.395 . S
O347 C367 1.255 . S
O348 Dy337 2.379 1_556 S
O348 C367 1.249 1_556 S
C349 O339 1.266 . S
C349 O340 1.236 . S
O350 Dy336 2.299 . S
O350 C338 1.229 1_554 S
O351 Dy337 2.339 1_456 S
O351 C338 1.257 . S
C352 C355 1.344 . S
C352 C356 1.328 . S
C352 C358 1.516 . S
C353 C354 1.304 . S
C353 C357 1.323 . S
C354 C353 1.304 . S
C354 C355 1.371 . S
C354 H368 0.930 1_545 S
C355 C352 1.344 . S
C355 C354 1.371 . S
C355 H369 0.931 . S
C356 C352 1.328 . S
C356 C357 1.433 . S
C356 H370 0.931 . S
C357 C353 1.323 . S
C357 C356 1.433 . S
C357 H371 0.933 . S
C358 Dy336 2.738 . S
C358 O341 1.255 . S
C358 O342 1.249 . S
C358 C352 1.516 . S
C359 O343 1.254 . S
C359 O344 1.257 . S
C360 O345 1.266 . S
C360 O346 1.236 1_565 S
C361 C364 1.344 . S
C361 C365 1.328 1_554 S
C361 C367 1.516 . S
C362 C363 1.304 . S
C362 C366 1.323 1_554 S
C363 C362 1.304 . S
C363 C364 1.371 . S
C363 H372 0.930 . S
C364 C361 1.344 . S
C364 C363 1.371 . S
C364 H373 0.931 . S
C365 C361 1.328 1_556 S
C365 C366 1.433 . S
C365 H374 0.931 . S
C366 C362 1.323 1_556 S
C366 C365 1.433 . S
C366 H375 0.933 . S
C367 Dy337 2.738 . S
C367 O347 1.255 . S
C367 O348 1.249 1_554 S
C367 C361 1.516 . S
H368 C354 0.930 1_565 S
H369 C355 0.931 . S
H370 C356 0.931 . S
H371 C357 0.933 . S
H372 C363 0.930 . S
H373 C364 0.931 . S
H374 C365 0.931 . S
H375 C366 0.933 . S
Dy376 O379 2.307 . S
Dy376 O381 2.395 . S
Dy376 O382 2.379 . S
Dy376 O384 2.339 . S
Dy376 O386 2.298 . S
Dy376 O390 2.275 . S
Dy376 C398 2.738 . S
Dy377 O380 2.298 . S
Dy377 O383 2.275 . S
Dy377 O385 2.307 . S
Dy377 O387 2.395 . S
Dy377 O388 2.379 . S
Dy377 O391 2.339 . S
Dy377 C407 2.738 . S
C378 O390 1.254 . S
C378 O391 1.257 . S
O379 Dy376 2.307 . S
O379 C389 1.266 . S
O380 Dy377 2.298 . S
O380 C389 1.236 . S
O381 Dy376 2.395 . S
O381 C398 1.255 . S
O382 Dy376 2.379 . S
O382 C398 1.249 . S
O383 Dy377 2.275 . S
O383 C399 1.254 . S
O384 Dy376 2.339 . S
O384 C399 1.257 . S
O385 Dy377 2.307 . S
O385 C400 1.266 . S
O386 Dy376 2.298 . S
O386 C400 1.236 . S
O387 Dy377 2.395 . S
O387 C407 1.255 . S
O388 Dy377 2.379 . S
O388 C407 1.249 . S
C389 O379 1.266 . S
C389 O380 1.236 . S
O390 Dy376 2.275 . S
O390 C378 1.254 . S
O391 Dy377 2.339 . S
O391 C378 1.257 . S
C392 C395 1.344 . S
C392 C396 1.328 . S
C392 C398 1.516 . S
C393 C394 1.304 . S
C393 C397 1.323 . S
C394 C393 1.304 . S
C394 C395 1.371 . S
C394 H408 0.930 . S
C395 C392 1.344 . S
C395 C394 1.371 . S
C395 H409 0.931 . S
C396 C392 1.328 . S
C396 C397 1.433 . S
C396 H410 0.931 . S
C397 C393 1.323 . S
C397 C396 1.433 . S
C397 H411 0.933 . S
C398 Dy376 2.738 . S
C398 O381 1.255 . S
C398 O382 1.249 . S
C398 C392 1.516 . S
C399 O383 1.254 . S
C399 O384 1.257 . S
C400 O385 1.266 . S
C400 O386 1.236 . S
C401 C404 1.344 . S
C401 C405 1.328 . S
C401 C407 1.516 . S
C402 C403 1.304 . S
C402 C406 1.323 . S
C403 C402 1.304 . S
C403 C404 1.371 . S
C403 H412 0.930 . S
C404 C401 1.344 . S
C404 C403 1.371 . S
C404 H413 0.931 . S
C405 C401 1.328 . S
C405 C406 1.433 . S
C405 H414 0.931 . S
C406 C402 1.323 . S
C406 C405 1.433 . S
C406 H415 0.933 . S
C407 Dy377 2.738 . S
C407 O387 1.255 . S
C407 O388 1.249 . S
C407 C401 1.516 . S
H408 C394 0.930 . S
H409 C395 0.931 . S
H410 C396 0.931 . S
H411 C397 0.933 . S
H412 C403 0.930 . S
H413 C404 0.931 . S
H414 C405 0.931 . S
H415 C406 0.933 . S
Dy416 O419 2.307 . S
Dy416 O421 2.395 . S
Dy416 O422 2.379 . S
Dy416 O424 2.339 . S
Dy416 O426 2.298 . S
Dy416 O430 2.275 . S
Dy416 C438 2.738 . S
Dy417 O420 2.298 . S
Dy417 O423 2.275 . S
Dy417 O425 2.307 . S
Dy417 O427 2.395 . S
Dy417 O428 2.379 . S
Dy417 O431 2.339 . S
Dy417 C447 2.738 . S
C418 O430 1.254 . S
C418 O431 1.257 . S
O419 Dy416 2.307 . S
O419 C429 1.266 1_545 S
O420 Dy417 2.298 . S
O420 C429 1.236 1_545 S
O421 Dy416 2.395 . S
O421 C438 1.255 . S
O422 Dy416 2.379 . S
O422 C438 1.249 . S
O423 Dy417 2.275 . S
O423 C439 1.254 . S
O424 Dy416 2.339 . S
O424 C439 1.257 . S
O425 Dy417 2.307 . S
O425 C440 1.266 . S
O426 Dy416 2.298 . S
O426 C440 1.236 . S
O427 Dy417 2.395 . S
O427 C447 1.255 . S
O428 Dy417 2.379 . S
O428 C447 1.249 . S
C429 O419 1.266 1_565 S
C429 O420 1.236 1_565 S
O430 Dy416 2.275 . S
O430 C418 1.254 . S
O431 Dy417 2.339 . S
O431 C418 1.257 . S
C432 C435 1.344 . S
C432 C436 1.328 . S
C432 C438 1.516 . S
C433 C434 1.304 . S
C433 C437 1.323 . S
C434 C433 1.304 . S
C434 C435 1.371 . S
C434 H448 0.930 . S
C435 C432 1.344 . S
C435 C434 1.371 . S
C435 H449 0.931 . S
C436 C432 1.328 . S
C436 C437 1.433 . S
C436 H450 0.931 . S
C437 C433 1.323 . S
C437 C436 1.433 . S
C437 H451 0.933 . S
C438 Dy416 2.738 . S
C438 O421 1.255 . S
C438 O422 1.249 . S
C438 C432 1.516 . S
C439 O423 1.254 . S
C439 O424 1.257 . S
C440 O425 1.266 . S
C440 O426 1.236 . S
C441 C444 1.344 1_545 S
C441 C445 1.328 . S
C441 C447 1.516 . S
C442 C443 1.304 . S
C442 C446 1.323 . S
C443 C442 1.304 . S
C443 C444 1.371 . S
C443 H452 0.930 . S
C444 C441 1.344 1_565 S
C444 C443 1.371 . S
C444 H453 0.931 . S
C445 C441 1.328 . S
C445 C446 1.433 1_545 S
C445 H454 0.931 . S
C446 C442 1.323 . S
C446 C445 1.433 1_565 S
C446 H455 0.933 . S
C447 Dy417 2.738 . S
C447 O427 1.255 . S
C447 O428 1.249 . S
C447 C441 1.516 . S
H448 C434 0.930 . S
H449 C435 0.931 . S
H450 C436 0.931 . S
H451 C437 0.933 . S
H452 C443 0.930 . S
H453 C444 0.931 . S
H454 C445 0.931 . S
H455 C446 0.933 . S
Dy456 O459 2.307 . S
Dy456 O461 2.395 . S
Dy456 O462 2.379 . S
Dy456 O464 2.339 . S
Dy456 O466 2.298 . S
Dy456 O470 2.275 . S
Dy456 C478 2.738 . S
Dy457 O460 2.298 . S
Dy457 O463 2.275 . S
Dy457 O465 2.307 . S
Dy457 O467 2.395 . S
Dy457 O468 2.379 . S
Dy457 O471 2.339 . S
Dy457 C487 2.738 . S
C458 O470 1.254 . S
C458 O471 1.257 . S
O459 Dy456 2.307 . S
O459 C469 1.266 . S
O460 Dy457 2.298 . S
O460 C469 1.236 . S
O461 Dy456 2.395 . S
O461 C478 1.255 . S
O462 Dy456 2.379 . S
O462 C478 1.249 . S
O463 Dy457 2.275 . S
O463 C479 1.254 . S
O464 Dy456 2.339 . S
O464 C479 1.257 . S
O465 Dy457 2.307 . S
O465 C480 1.266 . S
O466 Dy456 2.298 . S
O466 C480 1.236 . S
O467 Dy457 2.395 . S
O467 C487 1.255 . S
O468 Dy457 2.379 . S
O468 C487 1.249 . S
C469 O459 1.266 . S
C469 O460 1.236 . S
O470 Dy456 2.275 . S
O470 C458 1.254 . S
O471 Dy457 2.339 . S
O471 C458 1.257 . S
C472 C475 1.344 . S
C472 C476 1.328 . S
C472 C478 1.516 . S
C473 C474 1.304 . S
C473 C477 1.323 . S
C474 C473 1.304 . S
C474 C475 1.371 . S
C474 H488 0.930 . S
C475 C472 1.344 . S
C475 C474 1.371 . S
C475 H489 0.931 . S
C476 C472 1.328 . S
C476 C477 1.433 . S
C476 H490 0.931 . S
C477 C473 1.323 . S
C477 C476 1.433 . S
C477 H491 0.933 . S
C478 Dy456 2.738 . S
C478 O461 1.255 . S
C478 O462 1.249 . S
C478 C472 1.516 . S
C479 O463 1.254 . S
C479 O464 1.257 . S
C480 O465 1.266 . S
C480 O466 1.236 . S
C481 C484 1.344 . S
C481 C485 1.328 . S
C481 C487 1.516 . S
C482 C483 1.304 . S
C482 C486 1.323 . S
C483 C482 1.304 . S
C483 C484 1.371 . S
C483 H492 0.930 . S
C484 C481 1.344 . S
C484 C483 1.371 . S
C484 H493 0.931 . S
C485 C481 1.328 . S
C485 C486 1.433 . S
C485 H494 0.931 . S
C486 C482 1.323 . S
C486 C485 1.433 . S
C486 H495 0.933 . S
C487 Dy457 2.738 . S
C487 O467 1.255 . S
C487 O468 1.249 . S
C487 C481 1.516 . S
H488 C474 0.930 . S
H489 C475 0.931 . S
H490 C476 0.931 . S
H491 C477 0.933 . S
H492 C483 0.930 . S
H493 C484 0.931 . S
H494 C485 0.931 . S
H495 C486 0.933 . S
Dy496 O499 2.307 . S
Dy496 O501 2.395 1_545 S
Dy496 O502 2.379 1_545 S
Dy496 O504 2.339 . S
Dy496 O506 2.298 . S
Dy496 O510 2.275 1_455 S
Dy496 C518 2.738 1_545 S
Dy497 O500 2.298 . S
Dy497 O503 2.275 . S
Dy497 O505 2.307 . S
Dy497 O507 2.395 . S
Dy497 O508 2.379 1_455 S
Dy497 O511 2.339 1_455 S
Dy497 C527 2.738 . S
C498 O510 1.254 . S
C498 O511 1.257 . S
O499 Dy496 2.307 . S
O499 C509 1.266 . S
O500 Dy497 2.298 . S
O500 C509 1.236 . S
O501 Dy496 2.395 1_565 S
O501 C518 1.255 . S
O502 Dy496 2.379 1_565 S
O502 C518 1.249 . S
O503 Dy497 2.275 . S
O503 C519 1.254 . S
O504 Dy496 2.339 . S
O504 C519 1.257 . S
O505 Dy497 2.307 . S
O505 C520 1.266 . S
O506 Dy496 2.298 . S
O506 C520 1.236 . S
O507 Dy497 2.395 . S
O507 C527 1.255 . S
O508 Dy497 2.379 1_655 S
O508 C527 1.249 1_655 S
C509 O499 1.266 . S
C509 O500 1.236 . S
O510 Dy496 2.275 1_655 S
O510 C498 1.254 . S
O511 Dy497 2.339 1_655 S
O511 C498 1.257 . S
C512 C515 1.344 . S
C512 C516 1.328 . S
C512 C518 1.516 . S
C513 C514 1.304 . S
C513 C517 1.323 . S
C514 C513 1.304 . S
C514 C515 1.371 . S
C514 H528 0.930 . S
C515 C512 1.344 . S
C515 C514 1.371 . S
C515 H529 0.931 . S
C516 C512 1.328 . S
C516 C517 1.433 . S
C516 H530 0.931 . S
C517 C513 1.323 . S
C517 C516 1.433 . S
C517 H531 0.933 . S
C518 Dy496 2.738 1_565 S
C518 O501 1.255 . S
C518 O502 1.249 . S
C518 C512 1.516 . S
C519 O503 1.254 . S
C519 O504 1.257 . S
C520 O505 1.266 . S
C520 O506 1.236 . S
C521 C524 1.344 . S
C521 C525 1.328 1_455 S
C521 C527 1.516 . S
C522 C523 1.304 . S
C522 C526 1.323 1_455 S
C523 C522 1.304 . S
C523 C524 1.371 . S
C523 H532 0.930 . S
C524 C521 1.344 . S
C524 C523 1.371 . S
C524 H533 0.931 . S
C525 C521 1.328 1_655 S
C525 C526 1.433 . S
C525 H534 0.931 . S
C526 C522 1.323 1_655 S
C526 C525 1.433 . S
C526 H535 0.933 . S
C527 Dy497 2.738 . S
C527 O507 1.255 . S
C527 O508 1.249 1_455 S
C527 C521 1.516 . S
H528 C514 0.930 . S
H529 C515 0.931 . S
H530 C516 0.931 . S
H531 C517 0.933 . S
H532 C523 0.930 . S
H533 C524 0.931 . S
H534 C525 0.931 . S
H535 C526 0.933 . S
Dy536 O539 2.307 . S
Dy536 O541 2.395 . S
Dy536 O542 2.379 . S
Dy536 O544 2.339 . S
Dy536 O546 2.298 . S
Dy536 O550 2.275 . S
Dy536 C558 2.738 . S
Dy537 O540 2.298 . S
Dy537 O543 2.275 . S
Dy537 O545 2.307 . S
Dy537 O547 2.395 . S
Dy537 O548 2.379 . S
Dy537 O551 2.339 . S
Dy537 C567 2.738 . S
C538 O550 1.254 . S
C538 O551 1.257 . S
O539 Dy536 2.307 . S
O539 C549 1.266 . S
O540 Dy537 2.298 . S
O540 C549 1.236 . S
O541 Dy536 2.395 . S
O541 C558 1.255 . S
O542 Dy536 2.379 . S
O542 C558 1.249 . S
O543 Dy537 2.275 . S
O543 C559 1.254 . S
O544 Dy536 2.339 . S
O544 C559 1.257 . S
O545 Dy537 2.307 . S
O545 C560 1.266 . S
O546 Dy536 2.298 . S
O546 C560 1.236 . S
O547 Dy537 2.395 . S
O547 C567 1.255 . S
O548 Dy537 2.379 . S
O548 C567 1.249 . S
C549 O539 1.266 . S
C549 O540 1.236 . S
O550 Dy536 2.275 . S
O550 C538 1.254 . S
O551 Dy537 2.339 . S
O551 C538 1.257 . S
C552 C555 1.344 . S
C552 C556 1.328 . S
C552 C558 1.516 . S
C553 C554 1.304 . S
C553 C557 1.323 . S
C554 C553 1.304 . S
C554 C555 1.371 . S
C554 H568 0.930 . S
C555 C552 1.344 . S
C555 C554 1.371 . S
C555 H569 0.931 . S
C556 C552 1.328 . S
C556 C557 1.433 . S
C556 H570 0.931 . S
C557 C553 1.323 . S
C557 C556 1.433 . S
C557 H571 0.933 . S
C558 Dy536 2.738 . S
C558 O541 1.255 . S
C558 O542 1.249 . S
C558 C552 1.516 . S
C559 O543 1.254 . S
C559 O544 1.257 . S
C560 O545 1.266 . S
C560 O546 1.236 . S
C561 C564 1.344 . S
C561 C565 1.328 . S
C561 C567 1.516 . S
C562 C563 1.304 . S
C562 C566 1.323 . S
C563 C562 1.304 . S
C563 C564 1.371 . S
C563 H572 0.930 . S
C564 C561 1.344 . S
C564 C563 1.371 . S
C564 H573 0.931 . S
C565 C561 1.328 . S
C565 C566 1.433 . S
C565 H574 0.931 . S
C566 C562 1.323 . S
C566 C565 1.433 . S
C566 H575 0.933 . S
C567 Dy537 2.738 . S
C567 O547 1.255 . S
C567 O548 1.249 . S
C567 C561 1.516 . S
H568 C554 0.930 . S
H569 C555 0.931 . S
H570 C556 0.931 . S
H571 C557 0.933 . S
H572 C563 0.930 . S
H573 C564 0.931 . S
H574 C565 0.931 . S
H575 C566 0.933 . S
Dy576 O579 2.307 1_556 S
Dy576 O581 2.395 . S
Dy576 O582 2.379 . S
Dy576 O584 2.339 1_556 S
Dy576 O586 2.298 1_556 S
Dy576 O590 2.275 1_556 S
Dy576 C598 2.738 . S
Dy577 O580 2.298 . S
Dy577 O583 2.275 . S
Dy577 O585 2.307 . S
Dy577 O587 2.395 . S
Dy577 O588 2.379 1_545 S
Dy577 O591 2.339 1_545 S
Dy577 C607 2.738 . S
C578 O590 1.254 1_565 S
C578 O591 1.257 . S
O579 Dy576 2.307 1_554 S
O579 C589 1.266 . S
O580 Dy577 2.298 . S
O580 C589 1.236 . S
O581 Dy576 2.395 . S
O581 C598 1.255 . S
O582 Dy576 2.379 . S
O582 C598 1.249 . S
O583 Dy577 2.275 . S
O583 C599 1.254 . S
O584 Dy576 2.339 1_554 S
O584 C599 1.257 . S
O585 Dy577 2.307 . S
O585 C600 1.266 . S
O586 Dy576 2.298 1_554 S
O586 C600 1.236 . S
O587 Dy577 2.395 . S
O587 C607 1.255 . S
O588 Dy577 2.379 1_565 S
O588 C607 1.249 1_565 S
C589 O579 1.266 . S
C589 O580 1.236 . S
O590 Dy576 2.275 1_554 S
O590 C578 1.254 1_545 S
O591 Dy577 2.339 1_565 S
O591 C578 1.257 . S
C592 C595 1.344 . S
C592 C596 1.328 . S
C592 C598 1.516 . S
C593 C594 1.304 . S
C593 C597 1.323 . S
C594 C593 1.304 . S
C594 C595 1.371 . S
C594 H608 0.930 . S
C595 C592 1.344 . S
C595 C594 1.371 . S
C595 H609 0.931 . S
C596 C592 1.328 . S
C596 C597 1.433 . S
C596 H610 0.931 . S
C597 C593 1.323 . S
C597 C596 1.433 . S
C597 H611 0.933 . S
C598 Dy576 2.738 . S
C598 O581 1.255 . S
C598 O582 1.249 . S
C598 C592 1.516 . S
C599 O583 1.254 . S
C599 O584 1.257 . S
C600 O585 1.266 . S
C600 O586 1.236 . S
C601 C604 1.344 . S
C601 C605 1.328 1_545 S
C601 C607 1.516 . S
C602 C603 1.304 1_565 S
C602 C606 1.323 . S
C603 C602 1.304 1_545 S
C603 C604 1.371 . S
C603 H612 0.930 . S
C604 C601 1.344 . S
C604 C603 1.371 . S
C604 H613 0.931 . S
C605 C601 1.328 1_565 S
C605 C606 1.433 . S
C605 H614 0.931 . S
C606 C602 1.323 . S
C606 C605 1.433 . S
C606 H615 0.933 . S
C607 Dy577 2.738 . S
C607 O587 1.255 . S
C607 O588 1.249 1_545 S
C607 C601 1.516 . S
H608 C594 0.930 . S
H609 C595 0.931 . S
H610 C596 0.931 . S
H611 C597 0.933 . S
H612 C603 0.930 . S
H613 C604 0.931 . S
H614 C605 0.931 . S
H615 C606 0.933 . S
Dy616 O619 2.307 . S
Dy616 O621 2.395 . S
Dy616 O622 2.379 . S
Dy616 O624 2.339 . S
Dy616 O626 2.298 . S
Dy616 O630 2.275 . S
Dy616 C638 2.738 . S
Dy617 O620 2.298 . S
Dy617 O623 2.275 . S
Dy617 O625 2.307 . S
Dy617 O627 2.395 . S
Dy617 O628 2.379 . S
Dy617 O631 2.339 . S
Dy617 C647 2.738 . S
C618 O630 1.254 . S
C618 O631 1.257 . S
O619 Dy616 2.307 . S
O619 C629 1.266 . S
O620 Dy617 2.298 . S
O620 C629 1.236 . S
O621 Dy616 2.395 . S
O621 C638 1.255 . S
O622 Dy616 2.379 . S
O622 C638 1.249 . S
O623 Dy617 2.275 . S
O623 C639 1.254 . S
O624 Dy616 2.339 . S
O624 C639 1.257 . S
O625 Dy617 2.307 . S
O625 C640 1.266 . S
O626 Dy616 2.298 . S
O626 C640 1.236 . S
O627 Dy617 2.395 . S
O627 C647 1.255 . S
O628 Dy617 2.379 . S
O628 C647 1.249 . S
C629 O619 1.266 . S
C629 O620 1.236 . S
O630 Dy616 2.275 . S
O630 C618 1.254 . S
O631 Dy617 2.339 . S
O631 C618 1.257 . S
C632 C635 1.344 . S
C632 C636 1.328 . S
C632 C638 1.516 . S
C633 C634 1.304 . S
C633 C637 1.323 . S
C634 C633 1.304 . S
C634 C635 1.371 . S
C634 H648 0.930 . S
C635 C632 1.344 . S
C635 C634 1.371 . S
C635 H649 0.931 . S
C636 C632 1.328 . S
C636 C637 1.433 . S
C636 H650 0.931 . S
C637 C633 1.323 . S
C637 C636 1.433 . S
C637 H651 0.933 . S
C638 Dy616 2.738 . S
C638 O621 1.255 . S
C638 O622 1.249 . S
C638 C632 1.516 . S
C639 O623 1.254 . S
C639 O624 1.257 . S
C640 O625 1.266 . S
C640 O626 1.236 . S
C641 C644 1.344 . S
C641 C645 1.328 . S
C641 C647 1.516 . S
C642 C643 1.304 . S
C642 C646 1.323 . S
C643 C642 1.304 . S
C643 C644 1.371 . S
C643 H652 0.930 . S
C644 C641 1.344 . S
C644 C643 1.371 . S
C644 H653 0.931 . S
C645 C641 1.328 . S
C645 C646 1.433 . S
C645 H654 0.931 . S
C646 C642 1.323 . S
C646 C645 1.433 . S
C646 H655 0.933 . S
C647 Dy617 2.738 . S
C647 O627 1.255 . S
C647 O628 1.249 . S
C647 C641 1.516 . S
H648 C634 0.930 . S
H649 C635 0.931 . S
H650 C636 0.931 . S
H651 C637 0.933 . S
H652 C643 0.930 . S
H653 C644 0.931 . S
H654 C645 0.931 . S
H655 C646 0.933 . S
Dy656 O659 2.307 1_554 S
Dy656 O661 2.395 . S
Dy656 O662 2.379 . S
Dy656 O664 2.339 . S
Dy656 O666 2.298 . S
Dy656 O670 2.275 . S
Dy656 C678 2.738 . S
Dy657 O660 2.298 1_554 S
Dy657 O663 2.275 . S
Dy657 O665 2.307 . S
Dy657 O667 2.395 . S
Dy657 O668 2.379 . S
Dy657 O671 2.339 . S
Dy657 C687 2.738 . S
C658 O670 1.254 . S
C658 O671 1.257 . S
O659 Dy656 2.307 1_556 S
O659 C669 1.266 . S
O660 Dy657 2.298 1_556 S
O660 C669 1.236 . S
O661 Dy656 2.395 . S
O661 C678 1.255 . S
O662 Dy656 2.379 . S
O662 C678 1.249 . S
O663 Dy657 2.275 . S
O663 C679 1.254 . S
O664 Dy656 2.339 . S
O664 C679 1.257 . S
O665 Dy657 2.307 . S
O665 C680 1.266 . S
O666 Dy656 2.298 . S
O666 C680 1.236 . S
O667 Dy657 2.395 . S
O667 C687 1.255 . S
O668 Dy657 2.379 . S
O668 C687 1.249 . S
C669 O659 1.266 . S
C669 O660 1.236 . S
O670 Dy656 2.275 . S
O670 C658 1.254 . S
O671 Dy657 2.339 . S
O671 C658 1.257 . S
C672 C675 1.344 . S
C672 C676 1.328 . S
C672 C678 1.516 . S
C673 C674 1.304 . S
C673 C677 1.323 . S
C674 C673 1.304 . S
C674 C675 1.371 . S
C674 H688 0.930 . S
C675 C672 1.344 . S
C675 C674 1.371 . S
C675 H689 0.931 . S
C676 C672 1.328 . S
C676 C677 1.433 . S
C676 H690 0.931 . S
C677 C673 1.323 . S
C677 C676 1.433 . S
C677 H691 0.933 . S
C678 Dy656 2.738 . S
C678 O661 1.255 . S
C678 O662 1.249 . S
C678 C672 1.516 . S
C679 O663 1.254 . S
C679 O664 1.257 . S
C680 O665 1.266 . S
C680 O666 1.236 . S
C681 C684 1.344 . S
C681 C685 1.328 . S
C681 C687 1.516 1_556 S
C682 C683 1.304 . S
C682 C686 1.323 . S
C683 C682 1.304 . S
C683 C684 1.371 . S
C683 H692 0.930 . S
C684 C681 1.344 . S
C684 C683 1.371 . S
C684 H693 0.931 . S
C685 C681 1.328 . S
C685 C686 1.433 . S
C685 H694 0.931 1_556 S
C686 C682 1.323 . S
C686 C685 1.433 . S
C686 H695 0.933 . S
C687 Dy657 2.738 . S
C687 O667 1.255 . S
C687 O668 1.249 . S
C687 C681 1.516 1_554 S
H688 C674 0.930 . S
H689 C675 0.931 . S
H690 C676 0.931 . S
H691 C677 0.933 . S
H692 C683 0.930 . S
H693 C684 0.931 . S
H694 C685 0.931 1_554 S
H695 C686 0.933 . S
Dy696 O699 2.307 . S
Dy696 O701 2.395 . S
Dy696 O702 2.379 . S
Dy696 O704 2.339 . S
Dy696 O706 2.298 . S
Dy696 O710 2.275 . S
Dy696 C718 2.738 . S
Dy697 O700 2.298 . S
Dy697 O703 2.275 . S
Dy697 O705 2.307 . S
Dy697 O707 2.395 . S
Dy697 O708 2.379 . S
Dy697 O711 2.339 . S
Dy697 C727 2.738 . S
C698 O710 1.254 . S
C698 O711 1.257 . S
O699 Dy696 2.307 . S
O699 C709 1.266 . S
O700 Dy697 2.298 . S
O700 C709 1.236 . S
O701 Dy696 2.395 . S
O701 C718 1.255 . S
O702 Dy696 2.379 . S
O702 C718 1.249 . S
O703 Dy697 2.275 . S
O703 C719 1.254 . S
O704 Dy696 2.339 . S
O704 C719 1.257 . S
O705 Dy697 2.307 . S
O705 C720 1.266 . S
O706 Dy696 2.298 . S
O706 C720 1.236 . S
O707 Dy697 2.395 . S
O707 C727 1.255 . S
O708 Dy697 2.379 . S
O708 C727 1.249 . S
C709 O699 1.266 . S
C709 O700 1.236 . S
O710 Dy696 2.275 . S
O710 C698 1.254 . S
O711 Dy697 2.339 . S
O711 C698 1.257 . S
C712 C715 1.344 . S
C712 C716 1.328 . S
C712 C718 1.516 . S
C713 C714 1.304 . S
C713 C717 1.323 . S
C714 C713 1.304 . S
C714 C715 1.371 . S
C714 H728 0.930 . S
C715 C712 1.344 . S
C715 C714 1.371 . S
C715 H729 0.931 . S
C716 C712 1.328 . S
C716 C717 1.433 . S
C716 H730 0.931 . S
C717 C713 1.323 . S
C717 C716 1.433 . S
C717 H731 0.933 . S
C718 Dy696 2.738 . S
C718 O701 1.255 . S
C718 O702 1.249 . S
C718 C712 1.516 . S
C719 O703 1.254 . S
C719 O704 1.257 . S
C720 O705 1.266 . S
C720 O706 1.236 . S
C721 C724 1.344 . S
C721 C725 1.328 . S
C721 C727 1.516 . S
C722 C723 1.304 . S
C722 C726 1.323 . S
C723 C722 1.304 . S
C723 C724 1.371 . S
C723 H732 0.930 . S
C724 C721 1.344 . S
C724 C723 1.371 . S
C724 H733 0.931 . S
C725 C721 1.328 . S
C725 C726 1.433 . S
C725 H734 0.931 . S
C726 C722 1.323 . S
C726 C725 1.433 . S
C726 H735 0.933 . S
C727 Dy697 2.738 . S
C727 O707 1.255 . S
C727 O708 1.249 . S
C727 C721 1.516 . S
H728 C714 0.930 . S
H729 C715 0.931 . S
H730 C716 0.931 . S
H731 C717 0.933 . S
H732 C723 0.930 . S
H733 C724 0.931 . S
H734 C725 0.931 . S
H735 C726 0.933 . S
Dy736 O739 2.307 1_455 S
Dy736 O741 2.395 . S
Dy736 O742 2.379 . S
Dy736 O744 2.339 . S
Dy736 O746 2.298 . S
Dy736 O750 2.275 . S
Dy736 C758 2.738 . S
Dy737 O740 2.298 1_455 S
Dy737 O743 2.275 . S
Dy737 O745 2.307 . S
Dy737 O747 2.395 . S
Dy737 O748 2.379 . S
Dy737 O751 2.339 . S
Dy737 C767 2.738 . S
C738 O750 1.254 . S
C738 O751 1.257 . S
O739 Dy736 2.307 1_655 S
O739 C749 1.266 . S
O740 Dy737 2.298 1_655 S
O740 C749 1.236 . S
O741 Dy736 2.395 . S
O741 C758 1.255 . S
O742 Dy736 2.379 . S
O742 C758 1.249 . S
O743 Dy737 2.275 . S
O743 C759 1.254 . S
O744 Dy736 2.339 . S
O744 C759 1.257 . S
O745 Dy737 2.307 . S
O745 C760 1.266 . S
O746 Dy736 2.298 . S
O746 C760 1.236 . S
O747 Dy737 2.395 . S
O747 C767 1.255 . S
O748 Dy737 2.379 . S
O748 C767 1.249 . S
C749 O739 1.266 . S
C749 O740 1.236 . S
O750 Dy736 2.275 . S
O750 C738 1.254 . S
O751 Dy737 2.339 . S
O751 C738 1.257 . S
C752 C755 1.344 . S
C752 C756 1.328 . S
C752 C758 1.516 . S
C753 C754 1.304 . S
C753 C757 1.323 . S
C754 C753 1.304 . S
C754 C755 1.371 . S
C754 H768 0.930 . S
C755 C752 1.344 . S
C755 C754 1.371 . S
C755 H769 0.931 . S
C756 C752 1.328 . S
C756 C757 1.433 . S
C756 H770 0.931 . S
C757 C753 1.323 . S
C757 C756 1.433 . S
C757 H771 0.933 . S
C758 Dy736 2.738 . S
C758 O741 1.255 . S
C758 O742 1.249 . S
C758 C752 1.516 . S
C759 O743 1.254 . S
C759 O744 1.257 . S
C760 O745 1.266 . S
C760 O746 1.236 . S
C761 C764 1.344 . S
C761 C765 1.328 . S
C761 C767 1.516 1_655 S
C762 C763 1.304 . S
C762 C766 1.323 . S
C763 C762 1.304 . S
C763 C764 1.371 . S
C763 H772 0.930 . S
C764 C761 1.344 . S
C764 C763 1.371 . S
C764 H773 0.931 . S
C765 C761 1.328 . S
C765 C766 1.433 . S
C765 H774 0.931 . S
C766 C762 1.323 . S
C766 C765 1.433 . S
C766 H775 0.933 . S
C767 Dy737 2.738 . S
C767 O747 1.255 . S
C767 O748 1.249 . S
C767 C761 1.516 1_455 S
H768 C754 0.930 . S
H769 C755 0.931 . S
H770 C756 0.931 . S
H771 C757 0.933 . S
H772 C763 0.930 . S
H773 C764 0.931 . S
H774 C765 0.931 . S
H775 C766 0.933 . S
Dy776 O779 2.307 . S
Dy776 O781 2.395 . S
Dy776 O782 2.379 . S
Dy776 O784 2.339 . S
Dy776 O786 2.298 . S
Dy776 O790 2.275 . S
Dy776 C798 2.738 . S
Dy777 O780 2.298 . S
Dy777 O783 2.275 . S
Dy777 O785 2.307 . S
Dy777 O787 2.395 . S
Dy777 O788 2.379 . S
Dy777 O791 2.339 . S
Dy777 C807 2.738 . S
C778 O790 1.254 . S
C778 O791 1.257 . S
O779 Dy776 2.307 . S
O779 C789 1.266 . S
O780 Dy777 2.298 . S
O780 C789 1.236 . S
O781 Dy776 2.395 . S
O781 C798 1.255 . S
O782 Dy776 2.379 . S
O782 C798 1.249 . S
O783 Dy777 2.275 . S
O783 C799 1.254 . S
O784 Dy776 2.339 . S
O784 C799 1.257 . S
O785 Dy777 2.307 . S
O785 C800 1.266 . S
O786 Dy776 2.298 . S
O786 C800 1.236 . S
O787 Dy777 2.395 . S
O787 C807 1.255 . S
O788 Dy777 2.379 . S
O788 C807 1.249 . S
C789 O779 1.266 . S
C789 O780 1.236 . S
O790 Dy776 2.275 . S
O790 C778 1.254 . S
O791 Dy777 2.339 . S
O791 C778 1.257 . S
C792 C795 1.344 . S
C792 C796 1.328 . S
C792 C798 1.516 . S
C793 C794 1.304 . S
C793 C797 1.323 . S
C794 C793 1.304 . S
C794 C795 1.371 . S
C794 H808 0.930 . S
C795 C792 1.344 . S
C795 C794 1.371 . S
C795 H809 0.931 . S
C796 C792 1.328 . S
C796 C797 1.433 . S
C796 H810 0.931 . S
C797 C793 1.323 . S
C797 C796 1.433 . S
C797 H811 0.933 . S
C798 Dy776 2.738 . S
C798 O781 1.255 . S
C798 O782 1.249 . S
C798 C792 1.516 . S
C799 O783 1.254 . S
C799 O784 1.257 . S
C800 O785 1.266 . S
C800 O786 1.236 . S
C801 C804 1.344 . S
C801 C805 1.328 . S
C801 C807 1.516 . S
C802 C803 1.304 . S
C802 C806 1.323 . S
C803 C802 1.304 . S
C803 C804 1.371 . S
C803 H812 0.930 . S
C804 C801 1.344 . S
C804 C803 1.371 . S
C804 H813 0.931 . S
C805 C801 1.328 . S
C805 C806 1.433 . S
C805 H814 0.931 . S
C806 C802 1.323 . S
C806 C805 1.433 . S
C806 H815 0.933 . S
C807 Dy777 2.738 . S
C807 O787 1.255 . S
C807 O788 1.249 . S
C807 C801 1.516 . S
H808 C794 0.930 . S
H809 C795 0.931 . S
H810 C796 0.931 . S
H811 C797 0.933 . S
H812 C803 0.930 . S
H813 C804 0.931 . S
H814 C805 0.931 . S
H815 C806 0.933 . S
Dy816 O819 2.307 . S
Dy816 O821 2.395 . S
Dy816 O822 2.379 . S
Dy816 O824 2.339 . S
Dy816 O826 2.298 . S
Dy816 O830 2.275 . S
Dy816 C838 2.738 . S
Dy817 O820 2.298 . S
Dy817 O823 2.275 . S
Dy817 O825 2.307 . S
Dy817 O827 2.395 . S
Dy817 O828 2.379 . S
Dy817 O831 2.339 . S
Dy817 C847 2.738 . S
C818 O830 1.254 . S
C818 O831 1.257 . S
O819 Dy816 2.307 . S
O819 C829 1.266 . S
O820 Dy817 2.298 . S
O820 C829 1.236 . S
O821 Dy816 2.395 . S
O821 C838 1.255 . S
O822 Dy816 2.379 . S
O822 C838 1.249 . S
O823 Dy817 2.275 . S
O823 C839 1.254 . S
O824 Dy816 2.339 . S
O824 C839 1.257 . S
O825 Dy817 2.307 . S
O825 C840 1.266 . S
O826 Dy816 2.298 . S
O826 C840 1.236 . S
O827 Dy817 2.395 . S
O827 C847 1.255 . S
O828 Dy817 2.379 . S
O828 C847 1.249 . S
C829 O819 1.266 . S
C829 O820 1.236 . S
O830 Dy816 2.275 . S
O830 C818 1.254 . S
O831 Dy817 2.339 . S
O831 C818 1.257 . S
C832 C835 1.344 . S
C832 C836 1.328 . S
C832 C838 1.516 . S
C833 C834 1.304 . S
C833 C837 1.323 . S
C834 C833 1.304 . S
C834 C835 1.371 . S
C834 H848 0.930 . S
C835 C832 1.344 . S
C835 C834 1.371 . S
C835 H849 0.931 . S
C836 C832 1.328 . S
C836 C837 1.433 . S
C836 H850 0.931 . S
C837 C833 1.323 . S
C837 C836 1.433 . S
C837 H851 0.933 . S
C838 Dy816 2.738 . S
C838 O821 1.255 . S
C838 O822 1.249 . S
C838 C832 1.516 . S
C839 O823 1.254 . S
C839 O824 1.257 . S
C840 O825 1.266 . S
C840 O826 1.236 . S
C841 C844 1.344 . S
C841 C845 1.328 . S
C841 C847 1.516 . S
C842 C843 1.304 . S
C842 C846 1.323 . S
C843 C842 1.304 . S
C843 C844 1.371 . S
C843 H852 0.930 . S
C844 C841 1.344 . S
C844 C843 1.371 . S
C844 H853 0.931 . S
C845 C841 1.328 . S
C845 C846 1.433 . S
C845 H854 0.931 . S
C846 C842 1.323 . S
C846 C845 1.433 . S
C846 H855 0.933 . S
C847 Dy817 2.738 . S
C847 O827 1.255 . S
C847 O828 1.249 . S
C847 C841 1.516 . S
H848 C834 0.930 . S
H849 C835 0.931 . S
H850 C836 0.931 . S
H851 C837 0.933 . S
H852 C843 0.930 . S
H853 C844 0.931 . S
H854 C845 0.931 . S
H855 C846 0.933 . S
Dy856 O859 2.307 . S
Dy856 O861 2.395 . S
Dy856 O862 2.379 . S
Dy856 O864 2.339 . S
Dy856 O866 2.298 . S
Dy856 O870 2.275 . S
Dy856 C878 2.738 . S
Dy857 O860 2.298 . S
Dy857 O863 2.275 . S
Dy857 O865 2.307 . S
Dy857 O867 2.395 . S
Dy857 O868 2.379 . S
Dy857 O871 2.339 . S
Dy857 C887 2.738 . S
C858 O870 1.254 . S
C858 O871 1.257 . S
O859 Dy856 2.307 . S
O859 C869 1.266 . S
O860 Dy857 2.298 . S
O860 C869 1.236 . S
O861 Dy856 2.395 . S
O861 C878 1.255 . S
O862 Dy856 2.379 . S
O862 C878 1.249 . S
O863 Dy857 2.275 . S
O863 C879 1.254 . S
O864 Dy856 2.339 . S
O864 C879 1.257 . S
O865 Dy857 2.307 . S
O865 C880 1.266 . S
O866 Dy856 2.298 . S
O866 C880 1.236 . S
O867 Dy857 2.395 . S
O867 C887 1.255 . S
O868 Dy857 2.379 . S
O868 C887 1.249 . S
C869 O859 1.266 . S
C869 O860 1.236 . S
O870 Dy856 2.275 . S
O870 C858 1.254 . S
O871 Dy857 2.339 . S
O871 C858 1.257 . S
C872 C875 1.344 . S
C872 C876 1.328 . S
C872 C878 1.516 . S
C873 C874 1.304 . S
C873 C877 1.323 . S
C874 C873 1.304 . S
C874 C875 1.371 . S
C874 H888 0.930 . S
C875 C872 1.344 . S
C875 C874 1.371 . S
C875 H889 0.931 . S
C876 C872 1.328 . S
C876 C877 1.433 . S
C876 H890 0.931 . S
C877 C873 1.323 . S
C877 C876 1.433 . S
C877 H891 0.933 . S
C878 Dy856 2.738 . S
C878 O861 1.255 . S
C878 O862 1.249 . S
C878 C872 1.516 . S
C879 O863 1.254 . S
C879 O864 1.257 . S
C880 O865 1.266 . S
C880 O866 1.236 . S
C881 C884 1.344 . S
C881 C885 1.328 . S
C881 C887 1.516 . S
C882 C883 1.304 . S
C882 C886 1.323 . S
C883 C882 1.304 . S
C883 C884 1.371 . S
C883 H892 0.930 . S
C884 C881 1.344 . S
C884 C883 1.371 . S
C884 H893 0.931 . S
C885 C881 1.328 . S
C885 C886 1.433 . S
C885 H894 0.931 . S
C886 C882 1.323 . S
C886 C885 1.433 . S
C886 H895 0.933 . S
C887 Dy857 2.738 . S
C887 O867 1.255 . S
C887 O868 1.249 . S
C887 C881 1.516 . S
H888 C874 0.930 . S
H889 C875 0.931 . S
H890 C876 0.931 . S
H891 C877 0.933 . S
H892 C883 0.930 . S
H893 C884 0.931 . S
H894 C885 0.931 . S
H895 C886 0.933 . S
Dy896 O899 2.307 . S
Dy896 O901 2.395 . S
Dy896 O902 2.379 . S
Dy896 O904 2.339 . S
Dy896 O906 2.298 . S
Dy896 O910 2.275 . S
Dy896 C918 2.738 . S
Dy897 O900 2.298 . S
Dy897 O903 2.275 . S
Dy897 O905 2.307 . S
Dy897 O907 2.395 . S
Dy897 O908 2.379 . S
Dy897 O911 2.339 . S
Dy897 C927 2.738 . S
C898 O910 1.254 . S
C898 O911 1.257 . S
O899 Dy896 2.307 . S
O899 C909 1.266 . S
O900 Dy897 2.298 . S
O900 C909 1.236 . S
O901 Dy896 2.395 . S
O901 C918 1.255 . S
O902 Dy896 2.379 . S
O902 C918 1.249 . S
O903 Dy897 2.275 . S
O903 C919 1.254 . S
O904 Dy896 2.339 . S
O904 C919 1.257 . S
O905 Dy897 2.307 . S
O905 C920 1.266 . S
O906 Dy896 2.298 . S
O906 C920 1.236 . S
O907 Dy897 2.395 . S
O907 C927 1.255 . S
O908 Dy897 2.379 . S
O908 C927 1.249 . S
C909 O899 1.266 . S
C909 O900 1.236 . S
O910 Dy896 2.275 . S
O910 C898 1.254 . S
O911 Dy897 2.339 . S
O911 C898 1.257 . S
C912 C915 1.344 . S
C912 C916 1.328 . S
C912 C918 1.516 . S
C913 C914 1.304 . S
C913 C917 1.323 . S
C914 C913 1.304 . S
C914 C915 1.371 . S
C914 H928 0.930 . S
C915 C912 1.344 . S
C915 C914 1.371 . S
C915 H929 0.931 . S
C916 C912 1.328 . S
C916 C917 1.433 . S
C916 H930 0.931 . S
C917 C913 1.323 . S
C917 C916 1.433 . S
C917 H931 0.933 . S
C918 Dy896 2.738 . S
C918 O901 1.255 . S
C918 O902 1.249 . S
C918 C912 1.516 . S
C919 O903 1.254 . S
C919 O904 1.257 . S
C920 O905 1.266 . S
C920 O906 1.236 . S
C921 C924 1.344 . S
C921 C925 1.328 . S
C921 C927 1.516 . S
C922 C923 1.304 . S
C922 C926 1.323 . S
C923 C922 1.304 . S
C923 C924 1.371 . S
C923 H932 0.930 . S
C924 C921 1.344 . S
C924 C923 1.371 . S
C924 H933 0.931 . S
C925 C921 1.328 . S
C925 C926 1.433 . S
C925 H934 0.931 . S
C926 C922 1.323 . S
C926 C925 1.433 . S
C926 H935 0.933 . S
C927 Dy897 2.738 . S
C927 O907 1.255 . S
C927 O908 1.249 . S
C927 C921 1.516 . S
H928 C914 0.930 . S
H929 C915 0.931 . S
H930 C916 0.931 . S
H931 C917 0.933 . S
H932 C923 0.930 . S
H933 C924 0.931 . S
H934 C925 0.931 . S
H935 C926 0.933 . S
Dy936 O939 2.307 1_655 S
Dy936 O941 2.395 . S
Dy936 O942 2.379 . S
Dy936 O944 2.339 1_655 S
Dy936 O946 2.298 1_655 S
Dy936 O950 2.275 1_655 S
Dy936 C958 2.738 . S
Dy937 O940 2.298 . S
Dy937 O943 2.275 . S
Dy937 O945 2.307 . S
Dy937 O947 2.395 . S
Dy937 O948 2.379 1_554 S
Dy937 O951 2.339 1_554 S
Dy937 C967 2.738 . S
C938 O950 1.254 1_556 S
C938 O951 1.257 . S
O939 Dy936 2.307 1_455 S
O939 C949 1.266 . S
O940 Dy937 2.298 . S
O940 C949 1.236 . S
O941 Dy936 2.395 . S
O941 C958 1.255 . S
O942 Dy936 2.379 . S
O942 C958 1.249 . S
O943 Dy937 2.275 . S
O943 C959 1.254 . S
O944 Dy936 2.339 1_455 S
O944 C959 1.257 . S
O945 Dy937 2.307 . S
O945 C960 1.266 . S
O946 Dy936 2.298 1_455 S
O946 C960 1.236 . S
O947 Dy937 2.395 . S
O947 C967 1.255 . S
O948 Dy937 2.379 1_556 S
O948 C967 1.249 1_556 S
C949 O939 1.266 . S
C949 O940 1.236 . S
O950 Dy936 2.275 1_455 S
O950 C938 1.254 1_554 S
O951 Dy937 2.339 1_556 S
O951 C938 1.257 . S
C952 C955 1.344 . S
C952 C956 1.328 . S
C952 C958 1.516 . S
C953 C954 1.304 . S
C953 C957 1.323 . S
C954 C953 1.304 . S
C954 C955 1.371 . S
C954 H968 0.930 . S
C955 C952 1.344 . S
C955 C954 1.371 . S
C955 H969 0.931 . S
C956 C952 1.328 . S
C956 C957 1.433 . S
C956 H970 0.931 . S
C957 C953 1.323 . S
C957 C956 1.433 . S
C957 H971 0.933 . S
C958 Dy936 2.738 . S
C958 O941 1.255 . S
C958 O942 1.249 . S
C958 C952 1.516 . S
C959 O943 1.254 . S
C959 O944 1.257 . S
C960 O945 1.266 . S
C960 O946 1.236 . S
C961 C964 1.344 . S
C961 C965 1.328 1_554 S
C961 C967 1.516 . S
C962 C963 1.304 1_556 S
C962 C966 1.323 . S
C963 C962 1.304 1_554 S
C963 C964 1.371 . S
C963 H972 0.930 . S
C964 C961 1.344 . S
C964 C963 1.371 . S
C964 H973 0.931 . S
C965 C961 1.328 1_556 S
C965 C966 1.433 . S
C965 H974 0.931 . S
C966 C962 1.323 . S
C966 C965 1.433 . S
C966 H975 0.933 . S
C967 Dy937 2.738 . S
C967 O947 1.255 . S
C967 O948 1.249 1_554 S
C967 C961 1.516 . S
H968 C954 0.930 . S
H969 C955 0.931 . S
H970 C956 0.931 . S
H971 C957 0.933 . S
H972 C963 0.930 . S
H973 C964 0.931 . S
H974 C965 0.931 . S
H975 C966 0.933 . S
H976 C988 0.930 . S
H977 C990 0.930 . S
H978 C991 0.930 . S
H979 C995 0.959 . S
H980 C995 0.959 . S
H981 C995 0.961 . S
H982 C996 0.960 . S
H983 C996 0.961 . S
H984 C996 0.959 . S
H985 C999 0.929 . S
H986 C1000 0.930 1_656 S
H987 C1002 0.930 . S
C988 H976 0.930 . S
C988 C989 1.399 1_454 S
C988 C993 1.399 . S
C989 C988 1.399 1_656 S
C989 C990 1.376 . S
C990 H977 0.930 . S
C990 C989 1.376 . S
C990 C991 1.388 . S
C991 H978 0.930 . S
C991 C990 1.388 . S
C991 C992 1.400 . S
C992 C991 1.400 . S
C992 C993 1.387 1_656 S
C992 C998 1.460 1_656 S
C993 C988 1.399 . S
C993 C992 1.387 1_454 S
C993 C994 1.516 . S
C994 C993 1.516 . S
C994 C995 1.502 . S
C994 C996 1.561 . S
C994 C997 1.526 . S
C995 H979 0.959 . S
C995 H980 0.959 . S
C995 H981 0.961 . S
C995 C994 1.502 . S
C996 H982 0.960 . S
C996 H983 0.961 . S
C996 H984 0.959 . S
C996 C994 1.561 . S
C997 C994 1.526 . S
C997 C998 1.396 . S
C997 C1002 1.390 . S
C998 C992 1.460 1_454 S
C998 C997 1.396 . S
C998 C999 1.399 1_454 S
C999 H985 0.929 . S
C999 C998 1.399 1_656 S
C999 C1000 1.382 1_656 S
C1000 H986 0.930 1_454 S
C1000 C999 1.382 1_454 S
C1000 C1001 1.393 . S
C1001 C1000 1.393 . S
C1001 C1002 1.387 . S
C1002 H987 0.930 . S
C1002 C997 1.390 . S
C1002 C1001 1.387 . S
H1003 C1015 0.930 . S
H1004 C1017 0.930 . S
H1005 C1018 0.930 . S
H1006 C1022 0.959 . S
H1007 C1022 0.959 . S
H1008 C1022 0.961 . S
H1009 C1023 0.960 . S
H1010 C1023 0.961 . S
H1011 C1023 0.959 . S
H1012 C1026 0.929 . S
H1013 C1027 0.931 . S
H1014 C1029 0.930 . S
C1015 H1003 0.930 . S
C1015 C1016 1.399 . S
C1015 C1020 1.399 . S
C1016 C1015 1.399 . S
C1016 C1017 1.376 . S
C1017 H1004 0.930 . S
C1017 C1016 1.376 . S
C1017 C1018 1.388 . S
C1018 H1005 0.930 . S
C1018 C1017 1.388 . S
C1018 C1019 1.390 . S
C1019 C1018 1.390 . S
C1019 C1020 1.394 . S
C1019 C1025 1.465 . S
C1020 C1015 1.399 . S
C1020 C1019 1.394 . S
C1020 C1021 1.516 . S
C1021 C1020 1.516 . S
C1021 C1022 1.502 . S
C1021 C1023 1.561 . S
C1021 C1024 1.526 . S
C1022 H1006 0.959 . S
C1022 H1007 0.959 . S
C1022 H1008 0.961 . S
C1022 C1021 1.502 . S
C1023 H1009 0.960 . S
C1023 H1010 0.961 . S
C1023 H1011 0.959 . S
C1023 C1021 1.561 . S
C1024 C1021 1.526 . S
C1024 C1025 1.396 . S
C1024 C1029 1.390 . S
C1025 C1019 1.465 . S
C1025 C1024 1.396 . S
C1025 C1026 1.399 . S
C1026 H1012 0.929 . S
C1026 C1025 1.399 . S
C1026 C1027 1.385 . S
C1027 H1013 0.931 . S
C1027 C1026 1.385 . S
C1027 C1028 1.389 . S
C1028 C1027 1.389 . S
C1028 C1029 1.387 . S
C1029 H1014 0.930 . S
C1029 C1024 1.390 . S
C1029 C1028 1.387 . S
H1030 C1042 0.930 . S
H1031 C1044 0.930 . S
H1032 C1045 0.930 . S
H1033 C1049 0.959 . S
H1034 C1049 0.959 . S
H1035 C1049 0.961 . S
H1036 C1050 0.960 . S
H1037 C1050 0.961 . S
H1038 C1050 0.959 . S
H1039 C1053 0.929 . S
H1040 C1054 0.931 . S
H1041 C1056 0.930 . S
C1042 H1030 0.930 . S
C1042 C1043 1.399 . S
C1042 C1047 1.399 . S
C1043 C1042 1.399 . S
C1043 C1044 1.376 . S
C1044 H1031 0.930 . S
C1044 C1043 1.376 . S
C1044 C1045 1.388 . S
C1045 H1032 0.930 . S
C1045 C1044 1.388 . S
C1045 C1046 1.390 . S
C1046 C1045 1.390 . S
C1046 C1047 1.394 . S
C1046 C1052 1.465 . S
C1047 C1042 1.399 . S
C1047 C1046 1.394 . S
C1047 C1048 1.516 . S
C1048 C1047 1.516 . S
C1048 C1049 1.502 . S
C1048 C1050 1.561 . S
C1048 C1051 1.526 . S
C1049 H1033 0.959 . S
C1049 H1034 0.959 . S
C1049 H1035 0.961 . S
C1049 C1048 1.502 . S
C1050 H1036 0.960 . S
C1050 H1037 0.961 . S
C1050 H1038 0.959 . S
C1050 C1048 1.561 . S
C1051 C1048 1.526 . S
C1051 C1052 1.396 . S
C1051 C1056 1.390 . S
C1052 C1046 1.465 . S
C1052 C1051 1.396 . S
C1052 C1053 1.399 . S
C1053 H1039 0.929 . S
C1053 C1052 1.399 . S
C1053 C1054 1.385 . S
C1054 H1040 0.931 . S
C1054 C1053 1.385 . S
C1054 C1055 1.389 . S
C1055 C1054 1.389 . S
C1055 C1056 1.387 . S
C1056 H1041 0.930 . S
C1056 C1051 1.390 . S
C1056 C1055 1.387 . S
H1057 C1069 0.930 . S
H1058 C1071 0.930 . S
H1059 C1072 0.930 . S
H1060 C1076 0.959 . S
H1061 C1076 0.959 . S
H1062 C1076 0.961 . S
H1063 C1077 0.960 . S
H1064 C1077 0.961 . S
H1065 C1077 0.959 . S
H1066 C1080 0.929 . S
H1067 C1081 0.931 . S
H1068 C1083 0.930 . S
C1069 H1057 0.930 . S
C1069 C1070 1.399 . S
C1069 C1074 1.399 . S
C1070 C1069 1.399 . S
C1070 C1071 1.376 . S
C1071 H1058 0.930 . S
C1071 C1070 1.376 . S
C1071 C1072 1.388 . S
C1072 H1059 0.930 . S
C1072 C1071 1.388 . S
C1072 C1073 1.390 . S
C1073 C1072 1.390 . S
C1073 C1074 1.394 . S
C1073 C1079 1.465 . S
C1074 C1069 1.399 . S
C1074 C1073 1.394 . S
C1074 C1075 1.516 . S
C1075 C1074 1.516 . S
C1075 C1076 1.502 . S
C1075 C1077 1.561 . S
C1075 C1078 1.526 . S
C1076 H1060 0.959 . S
C1076 H1061 0.959 . S
C1076 H1062 0.961 . S
C1076 C1075 1.502 . S
C1077 H1063 0.960 . S
C1077 H1064 0.961 . S
C1077 H1065 0.959 . S
C1077 C1075 1.561 . S
C1078 C1075 1.526 . S
C1078 C1079 1.396 . S
C1078 C1083 1.390 . S
C1079 C1073 1.465 . S
C1079 C1078 1.396 . S
C1079 C1080 1.399 . S
C1080 H1066 0.929 . S
C1080 C1079 1.399 . S
C1080 C1081 1.385 . S
C1081 H1067 0.931 . S
C1081 C1080 1.385 . S
C1081 C1082 1.389 . S
C1082 C1081 1.389 . S
C1082 C1083 1.387 . S
C1083 H1068 0.930 . S
C1083 C1078 1.390 . S
C1083 C1082 1.387 . S
H1084 C1096 0.930 . S
H1085 C1098 0.930 1_655 S
H1086 C1099 0.930 1_655 S
H1087 C1103 0.959 . S
H1088 C1103 0.959 . S
H1089 C1103 0.961 . S
H1090 C1104 0.960 . S
H1091 C1104 0.961 . S
H1092 C1104 0.959 . S
H1093 C1107 0.901 1_655 S
H1094 C1108 0.931 . S
H1095 C1110 0.930 . S
C1096 H1084 0.930 . S
C1096 C1097 1.399 . S
C1096 C1101 1.399 . S
C1097 C1096 1.399 . S
C1097 C1098 1.376 . S
C1098 H1085 0.930 1_455 S
C1098 C1097 1.376 . S
C1098 C1099 1.388 . S
C1099 H1086 0.930 1_455 S
C1099 C1098 1.388 . S
C1099 C1100 1.390 . S
C1100 C1099 1.390 . S
C1100 C1101 1.394 . S
C1100 C1106 1.465 . S
C1101 C1096 1.399 . S
C1101 C1100 1.394 . S
C1101 C1102 1.516 . S
C1102 C1101 1.516 . S
C1102 C1103 1.502 . S
C1102 C1104 1.561 . S
C1102 C1105 1.526 . S
C1103 H1087 0.959 . S
C1103 H1088 0.959 . S
C1103 H1089 0.961 . S
C1103 C1102 1.502 . S
C1104 H1090 0.960 . S
C1104 H1091 0.961 . S
C1104 H1092 0.959 . S
C1104 C1102 1.561 . S
C1105 C1102 1.526 . S
C1105 C1106 1.396 . S
C1105 C1110 1.390 . S
C1106 C1100 1.465 . S
C1106 C1105 1.396 . S
C1106 C1107 1.399 . S
C1107 H1093 0.901 1_455 S
C1107 C1106 1.399 . S
C1107 C1108 1.385 . S
C1108 H1094 0.931 . S
C1108 C1107 1.385 . S
C1108 C1109 1.389 . S
C1109 C1108 1.389 . S
C1109 C1110 1.387 . S
C1110 H1095 0.930 . S
C1110 C1105 1.390 . S
C1110 C1109 1.387 . S
H1111 C1123 0.930 . S
H1112 C1125 0.930 . S
H1113 C1126 0.930 . S
H1114 C1130 0.959 . S
H1115 C1130 0.959 . S
H1116 C1130 0.961 . S
H1117 C1131 0.960 . S
H1118 C1131 0.961 . S
H1119 C1131 0.959 . S
H1120 C1134 0.929 . S
H1121 C1135 0.931 . S
H1122 C1137 0.930 . S
C1123 H1111 0.930 . S
C1123 C1124 1.399 . S
C1123 C1128 1.399 . S
C1124 C1123 1.399 . S
C1124 C1125 1.376 . S
C1125 H1112 0.930 . S
C1125 C1124 1.376 . S
C1125 C1126 1.388 . S
C1126 H1113 0.930 . S
C1126 C1125 1.388 . S
C1126 C1127 1.390 . S
C1127 C1126 1.390 . S
C1127 C1128 1.394 . S
C1127 C1133 1.465 . S
C1128 C1123 1.399 . S
C1128 C1127 1.394 . S
C1128 C1129 1.516 . S
C1129 C1128 1.516 . S
C1129 C1130 1.502 . S
C1129 C1131 1.561 . S
C1129 C1132 1.526 . S
C1130 H1114 0.959 . S
C1130 H1115 0.959 . S
C1130 H1116 0.961 . S
C1130 C1129 1.502 . S
C1131 H1117 0.960 . S
C1131 H1118 0.961 . S
C1131 H1119 0.959 . S
C1131 C1129 1.561 . S
C1132 C1129 1.526 . S
C1132 C1133 1.396 . S
C1132 C1137 1.390 . S
C1133 C1127 1.465 . S
C1133 C1132 1.396 . S
C1133 C1134 1.399 . S
C1134 H1120 0.929 . S
C1134 C1133 1.399 . S
C1134 C1135 1.385 . S
C1135 H1121 0.931 . S
C1135 C1134 1.385 . S
C1135 C1136 1.389 . S
C1136 C1135 1.389 . S
C1136 C1137 1.387 . S
C1137 H1122 0.930 . S
C1137 C1132 1.390 . S
C1137 C1136 1.387 . S
H1138 C1150 0.930 . S
H1139 C1152 0.930 . S
H1140 C1153 0.930 . S
H1141 C1157 0.959 . S
H1142 C1157 0.959 . S
H1143 C1157 0.961 . S
H1144 C1158 0.960 . S
H1145 C1158 0.961 . S
H1146 C1158 0.959 . S
H1147 C1161 0.929 . S
H1148 C1162 0.931 . S
H1149 C1164 0.930 . S
C1150 H1138 0.930 . S
C1150 C1151 1.399 . S
C1150 C1155 1.399 . S
C1151 C1150 1.399 . S
C1151 C1152 1.376 . S
C1152 H1139 0.930 . S
C1152 C1151 1.376 . S
C1152 C1153 1.388 . S
C1153 H1140 0.930 . S
C1153 C1152 1.388 . S
C1153 C1154 1.390 . S
C1154 C1153 1.390 . S
C1154 C1155 1.394 . S
C1154 C1160 1.465 . S
C1155 C1150 1.399 . S
C1155 C1154 1.394 . S
C1155 C1156 1.516 . S
C1156 C1155 1.516 . S
C1156 C1157 1.502 . S
C1156 C1158 1.561 . S
C1156 C1159 1.526 . S
C1157 H1141 0.959 . S
C1157 H1142 0.959 . S
C1157 H1143 0.961 . S
C1157 C1156 1.502 . S
C1158 H1144 0.960 . S
C1158 H1145 0.961 . S
C1158 H1146 0.959 . S
C1158 C1156 1.561 . S
C1159 C1156 1.526 . S
C1159 C1160 1.396 . S
C1159 C1164 1.390 . S
C1160 C1154 1.465 . S
C1160 C1159 1.396 . S
C1160 C1161 1.399 . S
C1161 H1147 0.929 . S
C1161 C1160 1.399 . S
C1161 C1162 1.385 . S
C1162 H1148 0.931 . S
C1162 C1161 1.385 . S
C1162 C1163 1.389 . S
C1163 C1162 1.389 . S
C1163 C1164 1.387 . S
C1164 H1149 0.930 . S
C1164 C1159 1.390 . S
C1164 C1163 1.387 . S
H1165 C1177 0.930 . S
H1166 C1179 0.930 . S
H1167 C1180 0.930 . S
H1168 C1184 0.959 . S
H1169 C1184 0.959 . S
H1170 C1184 0.961 . S
H1171 C1185 0.960 . S
H1172 C1185 0.961 . S
H1173 C1185 0.959 . S
H1174 C1188 0.929 . S
H1175 C1189 0.931 . S
H1176 C1191 0.930 . S
C1177 H1165 0.930 . S
C1177 C1178 1.399 . S
C1177 C1182 1.399 . S
C1178 C1177 1.399 . S
C1178 C1179 1.376 . S
C1179 H1166 0.930 . S
C1179 C1178 1.376 . S
C1179 C1180 1.388 . S
C1180 H1167 0.930 . S
C1180 C1179 1.388 . S
C1180 C1181 1.390 . S
C1181 C1180 1.390 . S
C1181 C1182 1.394 . S
C1181 C1187 1.465 . S
C1182 C1177 1.399 . S
C1182 C1181 1.394 . S
C1182 C1183 1.516 . S
C1183 C1182 1.516 . S
C1183 C1184 1.502 . S
C1183 C1185 1.561 . S
C1183 C1186 1.526 . S
C1184 H1168 0.959 . S
C1184 H1169 0.959 . S
C1184 H1170 0.961 . S
C1184 C1183 1.502 . S
C1185 H1171 0.960 . S
C1185 H1172 0.961 . S
C1185 H1173 0.959 . S
C1185 C1183 1.561 . S
C1186 C1183 1.526 . S
C1186 C1187 1.396 . S
C1186 C1191 1.390 . S
C1187 C1181 1.465 . S
C1187 C1186 1.396 . S
C1187 C1188 1.399 . S
C1188 H1174 0.929 . S
C1188 C1187 1.399 . S
C1188 C1189 1.385 . S
C1189 H1175 0.931 . S
C1189 C1188 1.385 . S
C1189 C1190 1.389 . S
C1190 C1189 1.389 . S
C1190 C1191 1.387 . S
C1191 H1176 0.930 . S
C1191 C1186 1.390 . S
C1191 C1190 1.387 . S
H1192 C1204 0.930 . S
H1193 C1206 0.930 . S
H1194 C1207 0.930 . S
H1195 C1211 0.959 . S
H1196 C1211 0.959 1_565 S
H1197 C1211 0.961 1_565 S
H1198 C1212 0.960 . S
H1199 C1212 0.961 . S
H1200 C1212 0.959 . S
H1201 C1215 0.929 . S
H1202 C1216 0.931 . S
H1203 C1218 0.930 . S
C1204 H1192 0.930 . S
C1204 C1205 1.399 . S
C1204 C1209 1.399 . S
C1205 C1204 1.399 . S
C1205 C1206 1.376 . S
C1206 H1193 0.930 . S
C1206 C1205 1.376 . S
C1206 C1207 1.388 . S
C1207 H1194 0.930 . S
C1207 C1206 1.388 . S
C1207 C1208 1.390 . S
C1208 C1207 1.390 . S
C1208 C1209 1.394 . S
C1208 C1214 1.465 . S
C1209 C1204 1.399 . S
C1209 C1208 1.394 . S
C1209 C1210 1.516 . S
C1210 C1209 1.516 . S
C1210 C1211 1.502 1_655 S
C1210 C1212 1.561 1_545 S
C1210 C1213 1.527 1_655 S
C1211 H1195 0.959 . S
C1211 H1196 0.959 1_545 S
C1211 H1197 0.961 1_545 S
C1211 C1210 1.502 1_455 S
C1212 H1198 0.960 . S
C1212 H1199 0.961 . S
C1212 H1200 0.959 . S
C1212 C1210 1.561 1_565 S
C1213 C1210 1.527 1_455 S
C1213 C1214 1.372 1_455 S
C1213 C1218 1.409 . S
C1214 C1208 1.465 . S
C1214 C1213 1.372 1_655 S
C1214 C1215 1.399 . S
C1215 H1201 0.929 . S
C1215 C1214 1.399 . S
C1215 C1216 1.385 1_655 S
C1216 H1202 0.931 . S
C1216 C1215 1.385 1_455 S
C1216 C1217 1.389 . S
C1217 C1216 1.389 . S
C1217 C1218 1.387 . S
C1218 H1203 0.930 . S
C1218 C1213 1.409 . S
C1218 C1217 1.387 . S
H1219 C1231 0.930 . S
H1220 C1233 0.930 . S
H1221 C1234 0.930 . S
H1222 C1238 0.959 . S
H1223 C1238 0.959 . S
H1224 C1238 0.961 . S
H1225 C1239 0.960 . S
H1226 C1239 0.961 . S
H1227 C1239 0.959 . S
H1228 C1242 0.929 . S
H1229 C1243 0.931 . S
H1230 C1245 0.930 . S
C1231 H1219 0.930 . S
C1231 C1232 1.399 . S
C1231 C1236 1.399 . S
C1232 C1231 1.399 . S
C1232 C1233 1.376 . S
C1233 H1220 0.930 . S
C1233 C1232 1.376 . S
C1233 C1234 1.388 . S
C1234 H1221 0.930 . S
C1234 C1233 1.388 . S
C1234 C1235 1.390 . S
C1235 C1234 1.390 . S
C1235 C1236 1.394 . S
C1235 C1241 1.465 . S
C1236 C1231 1.399 . S
C1236 C1235 1.394 . S
C1236 C1237 1.516 . S
C1237 C1236 1.516 . S
C1237 C1238 1.502 . S
C1237 C1239 1.561 . S
C1237 C1240 1.526 . S
C1238 H1222 0.959 . S
C1238 H1223 0.959 . S
C1238 H1224 0.961 . S
C1238 C1237 1.502 . S
C1239 H1225 0.960 . S
C1239 H1226 0.961 . S
C1239 H1227 0.959 . S
C1239 C1237 1.561 . S
C1240 C1237 1.526 . S
C1240 C1241 1.396 . S
C1240 C1245 1.390 . S
C1241 C1235 1.465 . S
C1241 C1240 1.396 . S
C1241 C1242 1.399 . S
C1242 H1228 0.929 . S
C1242 C1241 1.399 . S
C1242 C1243 1.385 . S
C1243 H1229 0.931 . S
C1243 C1242 1.385 . S
C1243 C1244 1.389 . S
C1244 C1243 1.389 . S
C1244 C1245 1.387 . S
C1245 H1230 0.930 . S
C1245 C1240 1.390 . S
C1245 C1244 1.387 . S
H1246 C1258 0.930 . S
H1247 C1260 0.930 . S
H1248 C1261 0.930 . S
H1249 C1265 0.959 . S
H1250 C1265 0.959 . S
H1251 C1265 0.961 . S
H1252 C1266 0.960 . S
H1253 C1266 0.961 . S
H1254 C1266 0.959 . S
H1255 C1269 0.929 . S
H1256 C1270 0.931 . S
H1257 C1272 0.930 . S
C1258 H1246 0.930 . S
C1258 C1259 1.399 . S
C1258 C1263 1.399 . S
C1259 C1258 1.399 . S
C1259 C1260 1.376 . S
C1260 H1247 0.930 . S
C1260 C1259 1.376 . S
C1260 C1261 1.388 . S
C1261 H1248 0.930 . S
C1261 C1260 1.388 . S
C1261 C1262 1.390 . S
C1262 C1261 1.390 . S
C1262 C1263 1.394 . S
C1262 C1268 1.465 . S
C1263 C1258 1.399 . S
C1263 C1262 1.394 . S
C1263 C1264 1.516 . S
C1264 C1263 1.516 . S
C1264 C1265 1.502 . S
C1264 C1266 1.561 . S
C1264 C1267 1.526 . S
C1265 H1249 0.959 . S
C1265 H1250 0.959 . S
C1265 H1251 0.961 . S
C1265 C1264 1.502 . S
C1266 H1252 0.960 . S
C1266 H1253 0.961 . S
C1266 H1254 0.959 . S
C1266 C1264 1.561 . S
C1267 C1264 1.526 . S
C1267 C1268 1.396 . S
C1267 C1272 1.390 . S
C1268 C1262 1.465 . S
C1268 C1267 1.396 . S
C1268 C1269 1.399 . S
C1269 H1255 0.929 . S
C1269 C1268 1.399 . S
C1269 C1270 1.385 . S
C1270 H1256 0.931 . S
C1270 C1269 1.385 . S
C1270 C1271 1.389 . S
C1271 C1270 1.389 . S
C1271 C1272 1.387 . S
C1272 H1257 0.930 . S
C1272 C1267 1.390 . S
C1272 C1271 1.387 . S
H1273 C1285 0.930 . S
H1274 C1287 0.930 . S
H1275 C1288 0.930 . S
H1276 C1292 0.959 . S
H1277 C1292 0.959 . S
H1278 C1292 0.961 . S
H1279 C1293 0.960 . S
H1280 C1293 0.961 . S
H1281 C1293 0.959 . S
H1282 C1296 0.929 . S
H1283 C1297 0.931 . S
H1284 C1299 0.930 . S
C1285 H1273 0.930 . S
C1285 C1286 1.399 . S
C1285 C1290 1.399 . S
C1286 C1285 1.399 . S
C1286 C1287 1.376 . S
C1287 H1274 0.930 . S
C1287 C1286 1.376 . S
C1287 C1288 1.388 . S
C1288 H1275 0.930 . S
C1288 C1287 1.388 . S
C1288 C1289 1.390 . S
C1289 C1288 1.390 . S
C1289 C1290 1.394 . S
C1289 C1295 1.465 . S
C1290 C1285 1.399 . S
C1290 C1289 1.394 . S
C1290 C1291 1.516 . S
C1291 C1290 1.516 . S
C1291 C1292 1.502 . S
C1291 C1293 1.561 . S
C1291 C1294 1.526 . S
C1292 H1276 0.959 . S
C1292 H1277 0.959 . S
C1292 H1278 0.961 . S
C1292 C1291 1.502 . S
C1293 H1279 0.960 . S
C1293 H1280 0.961 . S
C1293 H1281 0.959 . S
C1293 C1291 1.561 . S
C1294 C1291 1.526 . S
C1294 C1295 1.396 . S
C1294 C1299 1.390 . S
C1295 C1289 1.465 . S
C1295 C1294 1.396 . S
C1295 C1296 1.399 . S
C1296 H1282 0.929 . S
C1296 C1295 1.399 . S
C1296 C1297 1.385 . S
C1297 H1283 0.931 . S
C1297 C1296 1.385 . S
C1297 C1298 1.389 . S
C1298 C1297 1.389 . S
C1298 C1299 1.387 . S
C1299 H1284 0.930 . S
C1299 C1294 1.390 . S
C1299 C1298 1.387 . S
H1300 C1312 0.930 . S
H1301 C1314 0.929 1_455 S
H1302 C1315 0.930 . S
H1303 C1319 0.959 1_545 S
H1304 C1319 0.959 . S
H1305 C1319 0.961 . S
H1306 C1320 0.960 . S
H1307 C1320 0.961 . S
H1308 C1320 0.959 1_455 S
H1309 C1323 0.929 . S
H1310 C1324 0.931 . S
H1311 C1326 0.930 . S
C1312 H1300 0.930 . S
C1312 C1313 1.399 . S
C1312 C1317 1.399 . S
C1313 C1312 1.399 . S
C1313 C1314 1.376 . S
C1314 H1301 0.929 1_655 S
C1314 C1313 1.376 . S
C1314 C1315 1.388 1_655 S
C1315 H1302 0.930 . S
C1315 C1314 1.388 1_455 S
C1315 C1316 1.390 1_455 S
C1316 C1315 1.390 1_655 S
C1316 C1317 1.394 . S
C1316 C1322 1.465 1_655 S
C1317 C1312 1.399 . S
C1317 C1316 1.394 . S
C1317 C1318 1.516 . S
C1318 C1317 1.516 . S
C1318 C1319 1.502 1_545 S
C1318 C1320 1.561 1_545 S
C1318 C1321 1.526 . S
C1319 H1303 0.959 1_565 S
C1319 H1304 0.959 . S
C1319 H1305 0.961 . S
C1319 C1318 1.502 1_565 S
C1320 H1306 0.960 . S
C1320 H1307 0.961 . S
C1320 H1308 0.959 1_655 S
C1320 C1318 1.561 1_565 S
C1321 C1318 1.526 . S
C1321 C1322 1.396 1_655 S
C1321 C1326 1.390 . S
C1322 C1316 1.465 1_455 S
C1322 C1321 1.396 1_455 S
C1322 C1323 1.399 . S
C1323 H1309 0.929 . S
C1323 C1322 1.399 . S
C1323 C1324 1.385 . S
C1324 H1310 0.931 . S
C1324 C1323 1.385 . S
C1324 C1325 1.389 . S
C1325 C1324 1.389 . S
C1325 C1326 1.387 1_455 S
C1326 H1311 0.930 . S
C1326 C1321 1.390 . S
C1326 C1325 1.387 1_655 S
H1327 C1339 0.930 . S
H1328 C1341 0.930 . S
H1329 C1342 0.930 . S
H1330 C1346 0.959 . S
H1331 C1346 0.959 . S
H1332 C1346 0.961 . S
H1333 C1347 0.960 . S
H1334 C1347 0.961 . S
H1335 C1347 0.959 . S
H1336 C1350 0.929 . S
H1337 C1351 0.931 . S
H1338 C1353 0.930 . S
C1339 H1327 0.930 . S
C1339 C1340 1.399 . S
C1339 C1344 1.399 . S
C1340 C1339 1.399 . S
C1340 C1341 1.376 . S
C1341 H1328 0.930 . S
C1341 C1340 1.376 . S
C1341 C1342 1.388 . S
C1342 H1329 0.930 . S
C1342 C1341 1.388 . S
C1342 C1343 1.390 . S
C1343 C1342 1.390 . S
C1343 C1344 1.394 . S
C1343 C1349 1.465 . S
C1344 C1339 1.399 . S
C1344 C1343 1.394 . S
C1344 C1345 1.516 . S
C1345 C1344 1.516 . S
C1345 C1346 1.502 . S
C1345 C1347 1.561 . S
C1345 C1348 1.526 . S
C1346 H1330 0.959 . S
C1346 H1331 0.959 . S
C1346 H1332 0.961 . S
C1346 C1345 1.502 . S
C1347 H1333 0.960 . S
C1347 H1334 0.961 . S
C1347 H1335 0.959 . S
C1347 C1345 1.561 . S
C1348 C1345 1.526 . S
C1348 C1349 1.396 . S
C1348 C1353 1.390 . S
C1349 C1343 1.465 . S
C1349 C1348 1.396 . S
C1349 C1350 1.399 . S
C1350 H1336 0.929 . S
C1350 C1349 1.399 . S
C1350 C1351 1.385 . S
C1351 H1337 0.931 . S
C1351 C1350 1.385 . S
C1351 C1352 1.389 . S
C1352 C1351 1.389 . S
C1352 C1353 1.387 . S
C1353 H1338 0.930 . S
C1353 C1348 1.390 . S
C1353 C1352 1.387 . S
H1354 C1366 0.930 . S
H1355 C1368 0.930 . S
H1356 C1369 0.930 . S
H1357 C1373 0.959 . S
H1358 C1373 0.959 . S
H1359 C1373 0.961 . S
H1360 C1374 0.960 . S
H1361 C1374 0.961 . S
H1362 C1374 0.959 . S
H1363 C1377 0.929 . S
H1364 C1378 0.931 . S
H1365 C1380 0.930 . S
C1366 H1354 0.930 . S
C1366 C1367 1.399 . S
C1366 C1371 1.399 . S
C1367 C1366 1.399 . S
C1367 C1368 1.376 . S
C1368 H1355 0.930 . S
C1368 C1367 1.376 . S
C1368 C1369 1.388 . S
C1369 H1356 0.930 . S
C1369 C1368 1.388 . S
C1369 C1370 1.390 . S
C1370 C1369 1.390 . S
C1370 C1371 1.394 . S
C1370 C1376 1.465 . S
C1371 C1366 1.399 . S
C1371 C1370 1.394 . S
C1371 C1372 1.516 . S
C1372 C1371 1.516 . S
C1372 C1373 1.502 . S
C1372 C1374 1.561 . S
C1372 C1375 1.526 . S
C1373 H1357 0.959 . S
C1373 H1358 0.959 . S
C1373 H1359 0.961 . S
C1373 C1372 1.502 . S
C1374 H1360 0.960 . S
C1374 H1361 0.961 . S
C1374 H1362 0.959 . S
C1374 C1372 1.561 . S
C1375 C1372 1.526 . S
C1375 C1376 1.396 . S
C1375 C1380 1.390 . S
C1376 C1370 1.465 . S
C1376 C1375 1.396 . S
C1376 C1377 1.399 . S
C1377 H1363 0.929 . S
C1377 C1376 1.399 . S
C1377 C1378 1.385 . S
C1378 H1364 0.931 . S
C1378 C1377 1.385 . S
C1378 C1379 1.389 . S
C1379 C1378 1.389 . S
C1379 C1380 1.387 . S
C1380 H1365 0.930 . S
C1380 C1375 1.390 . S
C1380 C1379 1.387 . S
H1381 C1393 0.930 . S
H1382 C1395 0.930 . S
H1383 C1396 0.930 . S
H1384 C1400 0.959 . S
H1385 C1400 0.959 . S
H1386 C1400 0.961 . S
H1387 C1401 0.960 . S
H1388 C1401 0.961 . S
H1389 C1401 0.959 . S
H1390 C1404 0.929 . S
H1391 C1405 0.931 . S
H1392 C1407 0.930 . S
C1393 H1381 0.930 . S
C1393 C1394 1.399 . S
C1393 C1398 1.399 . S
C1394 C1393 1.399 . S
C1394 C1395 1.376 . S
C1395 H1382 0.930 . S
C1395 C1394 1.376 . S
C1395 C1396 1.388 . S
C1396 H1383 0.930 . S
C1396 C1395 1.388 . S
C1396 C1397 1.390 . S
C1397 C1396 1.390 . S
C1397 C1398 1.394 . S
C1397 C1403 1.465 . S
C1398 C1393 1.399 . S
C1398 C1397 1.394 . S
C1398 C1399 1.516 . S
C1399 C1398 1.516 . S
C1399 C1400 1.502 . S
C1399 C1401 1.561 . S
C1399 C1402 1.526 . S
C1400 H1384 0.959 . S
C1400 H1385 0.959 . S
C1400 H1386 0.961 . S
C1400 C1399 1.502 . S
C1401 H1387 0.960 . S
C1401 H1388 0.961 . S
C1401 H1389 0.959 . S
C1401 C1399 1.561 . S
C1402 C1399 1.526 . S
C1402 C1403 1.396 . S
C1402 C1407 1.390 . S
C1403 C1397 1.465 . S
C1403 C1402 1.396 . S
C1403 C1404 1.399 . S
C1404 H1390 0.929 . S
C1404 C1403 1.399 . S
C1404 C1405 1.385 . S
C1405 H1391 0.931 . S
C1405 C1404 1.385 . S
C1405 C1406 1.389 . S
C1406 C1405 1.389 . S
C1406 C1407 1.387 . S
C1407 H1392 0.930 . S
C1407 C1402 1.390 . S
C1407 C1406 1.387 . S
H1408 C1420 0.930 . S
H1409 C1422 0.930 . S
H1410 C1423 0.915 1_546 S
H1411 C1427 0.959 . S
H1412 C1427 0.959 . S
H1413 C1427 0.961 . S
H1414 C1428 0.960 . S
H1415 C1428 0.961 . S
H1416 C1428 0.959 . S
H1417 C1431 0.929 . S
H1418 C1432 0.931 . S
H1419 C1434 0.930 . S
C1420 H1408 0.930 . S
C1420 C1421 1.399 1_554 S
C1420 C1425 1.399 . S
C1421 C1420 1.399 1_556 S
C1421 C1422 1.376 . S
C1422 H1409 0.930 . S
C1422 C1421 1.376 . S
C1422 C1423 1.388 1_556 S
C1423 H1410 0.915 1_564 S
C1423 C1422 1.388 1_554 S
C1423 C1424 1.390 . S
C1424 C1423 1.390 . S
C1424 C1425 1.394 . S
C1424 C1430 1.465 . S
C1425 C1420 1.399 . S
C1425 C1424 1.394 . S
C1425 C1426 1.516 . S
C1426 C1425 1.516 . S
C1426 C1427 1.502 . S
C1426 C1428 1.561 . S
C1426 C1429 1.526 . S
C1427 H1411 0.959 . S
C1427 H1412 0.959 . S
C1427 H1413 0.961 . S
C1427 C1426 1.502 . S
C1428 H1414 0.960 . S
C1428 H1415 0.961 . S
C1428 H1416 0.959 . S
C1428 C1426 1.561 . S
C1429 C1426 1.526 . S
C1429 C1430 1.396 . S
C1429 C1434 1.390 . S
C1430 C1424 1.465 . S
C1430 C1429 1.396 . S
C1430 C1431 1.399 1_565 S
C1431 H1417 0.929 . S
C1431 C1430 1.399 1_545 S
C1431 C1432 1.385 . S
C1432 H1418 0.931 . S
C1432 C1431 1.385 . S
C1432 C1433 1.389 . S
C1433 C1432 1.389 . S
C1433 C1434 1.387 1_545 S
C1434 H1419 0.930 . S
C1434 C1429 1.390 . S
C1434 C1433 1.387 1_565 S
H1435 C1447 0.930 1_556 S
H1436 C1449 0.930 . S
H1437 C1450 0.930 . S
H1438 C1454 0.972 . S
H1439 C1454 0.959 . S
H1440 C1454 0.961 . S
H1441 C1455 0.960 . S
H1442 C1455 0.961 . S
H1443 C1455 0.959 . S
H1444 C1458 0.929 . S
H1445 C1459 0.931 . S
H1446 C1461 0.930 1_556 S
C1447 H1435 0.930 1_554 S
C1447 C1448 1.399 . S
C1447 C1452 1.399 . S
C1448 C1447 1.399 . S
C1448 C1449 1.376 . S
C1449 H1436 0.930 . S
C1449 C1448 1.376 . S
C1449 C1450 1.388 . S
C1450 H1437 0.930 . S
C1450 C1449 1.388 . S
C1450 C1451 1.390 . S
C1451 C1450 1.390 . S
C1451 C1452 1.394 . S
C1451 C1457 1.465 . S
C1452 C1447 1.399 . S
C1452 C1451 1.394 . S
C1452 C1453 1.516 1_554 S
C1453 C1452 1.516 1_556 S
C1453 C1454 1.502 . S
C1453 C1455 1.561 . S
C1453 C1456 1.526 1_556 S
C1454 H1438 0.972 . S
C1454 H1439 0.959 . S
C1454 H1440 0.961 . S
C1454 C1453 1.502 . S
C1455 H1441 0.960 . S
C1455 H1442 0.961 . S
C1455 H1443 0.959 . S
C1455 C1453 1.561 . S
C1456 C1453 1.526 1_554 S
C1456 C1457 1.396 . S
C1456 C1461 1.390 . S
C1457 C1451 1.465 . S
C1457 C1456 1.396 . S
C1457 C1458 1.399 . S
C1458 H1444 0.929 . S
C1458 C1457 1.399 . S
C1458 C1459 1.385 . S
C1459 H1445 0.931 . S
C1459 C1458 1.385 . S
C1459 C1460 1.389 . S
C1460 C1459 1.389 . S
C1460 C1461 1.387 . S
C1461 H1446 0.930 1_554 S
C1461 C1456 1.390 . S
C1461 C1460 1.387 . S
H1462 C1474 0.930 . S
H1463 C1476 0.930 . S
H1464 C1477 0.930 . S
H1465 C1481 0.959 . S
H1466 C1481 0.959 . S
H1467 C1481 0.961 . S
H1468 C1482 0.960 . S
H1469 C1482 0.961 . S
H1470 C1482 0.959 . S
H1471 C1485 0.929 . S
H1472 C1486 0.931 . S
H1473 C1488 0.930 . S
C1474 H1462 0.930 . S
C1474 C1475 1.399 . S
C1474 C1479 1.399 . S
C1475 C1474 1.399 . S
C1475 C1476 1.376 . S
C1476 H1463 0.930 . S
C1476 C1475 1.376 . S
C1476 C1477 1.388 . S
C1477 H1464 0.930 . S
C1477 C1476 1.388 . S
C1477 C1478 1.390 . S
C1478 C1477 1.390 . S
C1478 C1479 1.394 . S
C1478 C1484 1.465 . S
C1479 C1474 1.399 . S
C1479 C1478 1.394 . S
C1479 C1480 1.516 . S
C1480 C1479 1.516 . S
C1480 C1481 1.502 . S
C1480 C1482 1.561 . S
C1480 C1483 1.526 . S
C1481 H1465 0.959 . S
C1481 H1466 0.959 . S
C1481 H1467 0.961 . S
C1481 C1480 1.502 . S
C1482 H1468 0.960 . S
C1482 H1469 0.961 . S
C1482 H1470 0.959 . S
C1482 C1480 1.561 . S
C1483 C1480 1.526 . S
C1483 C1484 1.396 . S
C1483 C1488 1.390 . S
C1484 C1478 1.465 . S
C1484 C1483 1.396 . S
C1484 C1485 1.399 . S
C1485 H1471 0.929 . S
C1485 C1484 1.399 . S
C1485 C1486 1.385 . S
C1486 H1472 0.931 . S
C1486 C1485 1.385 . S
C1486 C1487 1.389 . S
C1487 C1486 1.389 . S
C1487 C1488 1.387 . S
C1488 H1473 0.930 . S
C1488 C1483 1.390 . S
C1488 C1487 1.387 . S
H1489 C1501 0.930 . S
H1490 C1503 0.930 . S
H1491 C1504 0.930 . S
H1492 C1508 0.959 . S
H1493 C1508 0.959 . S
H1494 C1508 0.961 . S
H1495 C1509 0.960 . S
H1496 C1509 0.961 . S
H1497 C1509 0.959 . S
H1498 C1512 0.929 . S
H1499 C1513 0.931 . S
H1500 C1515 0.930 . S
C1501 H1489 0.930 . S
C1501 C1502 1.399 . S
C1501 C1506 1.399 . S
C1502 C1501 1.399 . S
C1502 C1503 1.376 . S
C1503 H1490 0.930 . S
C1503 C1502 1.376 . S
C1503 C1504 1.388 . S
C1504 H1491 0.930 . S
C1504 C1503 1.388 . S
C1504 C1505 1.390 . S
C1505 C1504 1.390 . S
C1505 C1506 1.394 . S
C1505 C1511 1.465 . S
C1506 C1501 1.399 . S
C1506 C1505 1.394 . S
C1506 C1507 1.516 . S
C1507 C1506 1.516 . S
C1507 C1508 1.502 . S
C1507 C1509 1.561 . S
C1507 C1510 1.526 . S
C1508 H1492 0.959 . S
C1508 H1493 0.959 . S
C1508 H1494 0.961 . S
C1508 C1507 1.502 . S
C1509 H1495 0.960 . S
C1509 H1496 0.961 . S
C1509 H1497 0.959 . S
C1509 C1507 1.561 . S
C1510 C1507 1.526 . S
C1510 C1511 1.396 . S
C1510 C1515 1.390 . S
C1511 C1505 1.465 . S
C1511 C1510 1.396 . S
C1511 C1512 1.399 . S
C1512 H1498 0.929 . S
C1512 C1511 1.399 . S
C1512 C1513 1.385 . S
C1513 H1499 0.931 . S
C1513 C1512 1.385 . S
C1513 C1514 1.389 . S
C1514 C1513 1.389 . S
C1514 C1515 1.387 . S
C1515 H1500 0.930 . S
C1515 C1510 1.390 . S
C1515 C1514 1.387 . S
H1516 C1528 0.930 . S
H1517 C1530 0.930 . S
H1518 C1531 0.930 . S
H1519 C1535 0.959 . S
H1520 C1535 0.959 . S
H1521 C1535 0.961 . S
H1522 C1536 0.960 . S
H1523 C1536 0.961 . S
H1524 C1536 0.959 . S
H1525 C1539 0.929 . S
H1526 C1540 0.931 . S
H1527 C1542 0.930 . S
C1528 H1516 0.930 . S
C1528 C1529 1.399 . S
C1528 C1533 1.399 . S
C1529 C1528 1.399 . S
C1529 C1530 1.376 . S
C1530 H1517 0.930 . S
C1530 C1529 1.376 . S
C1530 C1531 1.388 . S
C1531 H1518 0.930 . S
C1531 C1530 1.388 . S
C1531 C1532 1.390 . S
C1532 C1531 1.390 . S
C1532 C1533 1.394 . S
C1532 C1538 1.465 . S
C1533 C1528 1.399 . S
C1533 C1532 1.394 . S
C1533 C1534 1.516 . S
C1534 C1533 1.516 . S
C1534 C1535 1.502 . S
C1534 C1536 1.561 . S
C1534 C1537 1.526 . S
C1535 H1519 0.959 . S
C1535 H1520 0.959 . S
C1535 H1521 0.961 . S
C1535 C1534 1.502 . S
C1536 H1522 0.960 . S
C1536 H1523 0.961 . S
C1536 H1524 0.959 . S
C1536 C1534 1.561 . S
C1537 C1534 1.526 . S
C1537 C1538 1.396 . S
C1537 C1542 1.390 . S
C1538 C1532 1.465 . S
C1538 C1537 1.396 . S
C1538 C1539 1.399 . S
C1539 H1525 0.929 . S
C1539 C1538 1.399 . S
C1539 C1540 1.385 . S
C1540 H1526 0.931 . S
C1540 C1539 1.385 . S
C1540 C1541 1.389 . S
C1541 C1540 1.389 . S
C1541 C1542 1.387 . S
C1542 H1527 0.930 . S
C1542 C1537 1.390 . S
C1542 C1541 1.387 . S
H1543 C1555 0.930 . S
H1544 C1557 0.930 . S
H1545 C1558 0.930 . S
H1546 C1562 0.959 . S
H1547 C1562 0.959 . S
H1548 C1562 0.961 . S
H1549 C1563 0.960 . S
H1550 C1563 0.961 . S
H1551 C1563 0.959 . S
H1552 C1566 0.929 . S
H1553 C1567 0.931 . S
H1554 C1569 0.930 . S
C1555 H1543 0.930 . S
C1555 C1556 1.399 . S
C1555 C1560 1.399 . S
C1556 C1555 1.399 . S
C1556 C1557 1.376 . S
C1557 H1544 0.930 . S
C1557 C1556 1.376 . S
C1557 C1558 1.388 . S
C1558 H1545 0.930 . S
C1558 C1557 1.388 . S
C1558 C1559 1.390 . S
C1559 C1558 1.390 . S
C1559 C1560 1.394 . S
C1559 C1565 1.465 . S
C1560 C1555 1.399 . S
C1560 C1559 1.394 . S
C1560 C1561 1.516 . S
C1561 C1560 1.516 . S
C1561 C1562 1.502 . S
C1561 C1563 1.561 . S
C1561 C1564 1.526 . S
C1562 H1546 0.959 . S
C1562 H1547 0.959 . S
C1562 H1548 0.961 . S
C1562 C1561 1.502 . S
C1563 H1549 0.960 . S
C1563 H1550 0.961 . S
C1563 H1551 0.959 . S
C1563 C1561 1.561 . S
C1564 C1561 1.526 . S
C1564 C1565 1.396 . S
C1564 C1569 1.390 . S
C1565 C1559 1.465 . S
C1565 C1564 1.396 . S
C1565 C1566 1.399 . S
C1566 H1552 0.929 . S
C1566 C1565 1.399 . S
C1566 C1567 1.385 . S
C1567 H1553 0.931 . S
C1567 C1566 1.385 . S
C1567 C1568 1.389 . S
C1568 C1567 1.389 . S
C1568 C1569 1.387 . S
C1569 H1554 0.930 . S
C1569 C1564 1.390 . S
C1569 C1568 1.387 . S
H1570 C1582 0.930 . S
H1571 C1584 0.930 . S
H1572 C1585 0.930 . S
H1573 C1589 0.959 . S
H1574 C1589 0.959 . S
H1575 C1589 0.961 . S
H1576 C1590 0.960 . S
H1577 C1590 0.961 . S
H1578 C1590 0.959 . S
H1579 C1593 0.929 . S
H1580 C1594 0.931 . S
H1581 C1596 0.930 . S
C1582 H1570 0.930 . S
C1582 C1583 1.399 . S
C1582 C1587 1.399 . S
C1583 C1582 1.399 . S
C1583 C1584 1.376 . S
C1584 H1571 0.930 . S
C1584 C1583 1.376 . S
C1584 C1585 1.388 . S
C1585 H1572 0.930 . S
C1585 C1584 1.388 . S
C1585 C1586 1.390 . S
C1586 C1585 1.390 . S
C1586 C1587 1.394 . S
C1586 C1592 1.465 . S
C1587 C1582 1.399 . S
C1587 C1586 1.394 . S
C1587 C1588 1.516 . S
C1588 C1587 1.516 . S
C1588 C1589 1.502 . S
C1588 C1590 1.561 . S
C1588 C1591 1.526 . S
C1589 H1573 0.959 . S
C1589 H1574 0.959 . S
C1589 H1575 0.961 . S
C1589 C1588 1.502 . S
C1590 H1576 0.960 . S
C1590 H1577 0.961 . S
C1590 H1578 0.959 . S
C1590 C1588 1.561 . S
C1591 C1588 1.526 . S
C1591 C1592 1.396 . S
C1591 C1596 1.390 . S
C1592 C1586 1.465 . S
C1592 C1591 1.396 . S
C1592 C1593 1.399 . S
C1593 H1579 0.929 . S
C1593 C1592 1.399 . S
C1593 C1594 1.385 . S
C1594 H1580 0.931 . S
C1594 C1593 1.385 . S
C1594 C1595 1.389 . S
C1595 C1594 1.389 . S
C1595 C1596 1.387 . S
C1596 H1581 0.930 . S
C1596 C1591 1.390 . S
C1596 C1595 1.387 . S
H1597 C1609 0.930 . S
H1598 C1611 0.930 . S
H1599 C1612 0.930 . S
H1600 C1616 0.959 . S
H1601 C1616 0.959 . S
H1602 C1616 0.961 . S
H1603 C1617 0.960 . S
H1604 C1617 0.961 . S
H1605 C1617 0.959 . S
H1606 C1620 0.929 . S
H1607 C1621 0.931 . S
H1608 C1623 0.930 . S
C1609 H1597 0.930 . S
C1609 C1610 1.399 . S
C1609 C1614 1.399 . S
C1610 C1609 1.399 . S
C1610 C1611 1.376 . S
C1611 H1598 0.930 . S
C1611 C1610 1.376 . S
C1611 C1612 1.388 . S
C1612 H1599 0.930 . S
C1612 C1611 1.388 . S
C1612 C1613 1.390 . S
C1613 C1612 1.390 . S
C1613 C1614 1.394 . S
C1613 C1619 1.465 . S
C1614 C1609 1.399 . S
C1614 C1613 1.394 . S
C1614 C1615 1.516 . S
C1615 C1614 1.516 . S
C1615 C1616 1.502 . S
C1615 C1617 1.561 . S
C1615 C1618 1.526 . S
C1616 H1600 0.959 . S
C1616 H1601 0.959 . S
C1616 H1602 0.961 . S
C1616 C1615 1.502 . S
C1617 H1603 0.960 . S
C1617 H1604 0.961 . S
C1617 H1605 0.959 . S
C1617 C1615 1.561 . S
C1618 C1615 1.526 . S
C1618 C1619 1.396 . S
C1618 C1623 1.390 . S
C1619 C1613 1.465 . S
C1619 C1618 1.396 . S
C1619 C1620 1.399 . S
C1620 H1606 0.929 . S
C1620 C1619 1.399 . S
C1620 C1621 1.385 . S
C1621 H1607 0.931 . S
C1621 C1620 1.385 . S
C1621 C1622 1.389 . S
C1622 C1621 1.389 . S
C1622 C1623 1.387 . S
C1623 H1608 0.930 . S
C1623 C1618 1.390 . S
C1623 C1622 1.387 . S
H1624 C1636 0.930 . S
H1625 C1638 0.930 . S
H1626 C1639 0.930 . S
H1627 C1643 0.959 . S
H1628 C1643 0.959 . S
H1629 C1643 0.961 . S
H1630 C1644 0.961 . S
H1631 C1644 0.969 . S
H1632 C1644 0.960 . S
H1633 C1647 0.929 . S
H1634 C1648 0.931 . S
H1635 C1650 0.930 . S
C1636 H1624 0.930 . S
C1636 C1637 1.399 . S
C1636 C1641 1.399 . S
C1637 C1636 1.399 . S
C1637 C1638 1.376 . S
C1638 H1625 0.930 . S
C1638 C1637 1.376 . S
C1638 C1639 1.388 . S
C1639 H1626 0.930 . S
C1639 C1638 1.388 . S
C1639 C1640 1.390 . S
C1640 C1639 1.390 . S
C1640 C1641 1.394 . S
C1640 C1646 1.465 . S
C1641 C1636 1.399 . S
C1641 C1640 1.394 . S
C1641 C1642 1.516 . S
C1642 C1641 1.516 . S
C1642 C1643 1.502 . S
C1642 C1644 1.552 1_554 S
C1642 C1645 1.526 . S
C1643 H1627 0.959 . S
C1643 H1628 0.959 . S
C1643 H1629 0.961 . S
C1643 C1642 1.502 . S
C1644 H1630 0.961 . S
C1644 H1631 0.969 . S
C1644 H1632 0.960 . S
C1644 C1642 1.552 1_556 S
C1645 C1642 1.526 . S
C1645 C1646 1.396 . S
C1645 C1650 1.390 . S
C1646 C1640 1.465 . S
C1646 C1645 1.396 . S
C1646 C1647 1.399 . S
C1647 H1633 0.929 . S
C1647 C1646 1.399 . S
C1647 C1648 1.385 . S
C1648 H1634 0.931 . S
C1648 C1647 1.385 . S
C1648 C1649 1.389 . S
C1649 C1648 1.389 . S
C1649 C1650 1.387 . S
C1650 H1635 0.930 . S
C1650 C1645 1.390 . S
C1650 C1649 1.387 . S
H1651 C1663 0.930 . S
H1652 C1665 0.930 . S
H1653 C1666 0.930 . S
H1654 C1670 0.959 . S
H1655 C1670 0.959 . S
H1656 C1670 0.961 . S
H1657 C1671 0.960 . S
H1658 C1671 0.961 . S
H1659 C1671 0.959 . S
H1660 C1674 0.929 . S
H1661 C1675 0.931 . S
H1662 C1677 0.930 . S
C1663 H1651 0.930 . S
C1663 C1664 1.399 . S
C1663 C1668 1.399 . S
C1664 C1663 1.399 . S
C1664 C1665 1.376 . S
C1665 H1652 0.930 . S
C1665 C1664 1.376 . S
C1665 C1666 1.388 . S
C1666 H1653 0.930 . S
C1666 C1665 1.388 . S
C1666 C1667 1.390 . S
C1667 C1666 1.390 . S
C1667 C1668 1.394 . S
C1667 C1673 1.465 . S
C1668 C1663 1.399 . S
C1668 C1667 1.394 . S
C1668 C1669 1.516 . S
C1669 C1668 1.516 . S
C1669 C1670 1.502 . S
C1669 C1671 1.561 . S
C1669 C1672 1.526 . S
C1670 H1654 0.959 . S
C1670 H1655 0.959 . S
C1670 H1656 0.961 . S
C1670 C1669 1.502 . S
C1671 H1657 0.960 . S
C1671 H1658 0.961 . S
C1671 H1659 0.959 . S
C1671 C1669 1.561 . S
C1672 C1669 1.526 . S
C1672 C1673 1.396 . S
C1672 C1677 1.390 . S
C1673 C1667 1.465 . S
C1673 C1672 1.396 . S
C1673 C1674 1.399 . S
C1674 H1660 0.929 . S
C1674 C1673 1.399 . S
C1674 C1675 1.385 . S
C1675 H1661 0.931 . S
C1675 C1674 1.385 . S
C1675 C1676 1.389 . S
C1676 C1675 1.389 . S
C1676 C1677 1.387 . S
C1677 H1662 0.930 . S
C1677 C1672 1.390 . S
C1677 C1676 1.387 . S
H1678 C1690 0.930 . S
H1679 C1692 0.930 . S
H1680 C1693 0.930 . S
H1681 C1697 0.959 . S
H1682 C1697 0.959 . S
H1683 C1697 0.961 . S
H1684 C1698 0.960 . S
H1685 C1698 0.961 . S
H1686 C1698 0.959 . S
H1687 C1701 0.929 . S
H1688 C1702 0.931 . S
H1689 C1704 0.930 . S
C1690 H1678 0.930 . S
C1690 C1691 1.399 . S
C1690 C1695 1.399 . S
C1691 C1690 1.399 . S
C1691 C1692 1.376 . S
C1692 H1679 0.930 . S
C1692 C1691 1.376 . S
C1692 C1693 1.388 . S
C1693 H1680 0.930 . S
C1693 C1692 1.388 . S
C1693 C1694 1.390 . S
C1694 C1693 1.390 . S
C1694 C1695 1.394 . S
C1694 C1700 1.465 . S
C1695 C1690 1.399 . S
C1695 C1694 1.394 . S
C1695 C1696 1.516 . S
C1696 C1695 1.516 . S
C1696 C1697 1.502 . S
C1696 C1698 1.561 . S
C1696 C1699 1.526 . S
C1697 H1681 0.959 . S
C1697 H1682 0.959 . S
C1697 H1683 0.961 . S
C1697 C1696 1.502 . S
C1698 H1684 0.960 . S
C1698 H1685 0.961 . S
C1698 H1686 0.959 . S
C1698 C1696 1.561 . S
C1699 C1696 1.526 . S
C1699 C1700 1.396 . S
C1699 C1704 1.390 . S
C1700 C1694 1.465 . S
C1700 C1699 1.396 . S
C1700 C1701 1.399 . S
C1701 H1687 0.929 . S
C1701 C1700 1.399 . S
C1701 C1702 1.385 . S
C1702 H1688 0.931 . S
C1702 C1701 1.385 . S
C1702 C1703 1.389 . S
C1703 C1702 1.389 . S
C1703 C1704 1.387 . S
C1704 H1689 0.930 . S
C1704 C1699 1.390 . S
C1704 C1703 1.387 . S
H1705 C1717 0.930 . S
H1706 C1719 0.930 . S
H1707 C1720 0.930 . S
H1708 C1724 0.959 . S
H1709 C1724 0.959 . S
H1710 C1724 0.961 . S
H1711 C1725 0.960 . S
H1712 C1725 0.961 . S
H1713 C1725 0.959 . S
H1714 C1728 0.929 . S
H1715 C1729 0.931 . S
H1716 C1731 0.930 . S
C1717 H1705 0.930 . S
C1717 C1718 1.399 . S
C1717 C1722 1.399 . S
C1718 C1717 1.399 . S
C1718 C1719 1.376 . S
C1719 H1706 0.930 . S
C1719 C1718 1.376 . S
C1719 C1720 1.388 . S
C1720 H1707 0.930 . S
C1720 C1719 1.388 . S
C1720 C1721 1.390 . S
C1721 C1720 1.390 . S
C1721 C1722 1.394 . S
C1721 C1727 1.465 . S
C1722 C1717 1.399 . S
C1722 C1721 1.394 . S
C1722 C1723 1.516 . S
C1723 C1722 1.516 . S
C1723 C1724 1.502 . S
C1723 C1725 1.561 . S
C1723 C1726 1.526 . S
C1724 H1708 0.959 . S
C1724 H1709 0.959 . S
C1724 H1710 0.961 . S
C1724 C1723 1.502 . S
C1725 H1711 0.960 . S
C1725 H1712 0.961 . S
C1725 H1713 0.959 . S
C1725 C1723 1.561 . S
C1726 C1723 1.526 . S
C1726 C1727 1.396 . S
C1726 C1731 1.390 . S
C1727 C1721 1.465 . S
C1727 C1726 1.396 . S
C1727 C1728 1.399 . S
C1728 H1714 0.929 . S
C1728 C1727 1.399 . S
C1728 C1729 1.385 . S
C1729 H1715 0.931 . S
C1729 C1728 1.385 . S
C1729 C1730 1.389 . S
C1730 C1729 1.389 . S
C1730 C1731 1.387 . S
C1731 H1716 0.930 . S
C1731 C1726 1.390 . S
C1731 C1730 1.387 . S
H1732 C1744 0.930 1_655 S
H1733 C1746 0.930 . S
H1734 C1747 0.930 . S
H1735 C1751 0.959 . S
H1736 C1751 0.959 . S
H1737 C1751 0.961 . S
H1738 C1752 0.960 . S
H1739 C1752 0.961 . S
H1740 C1752 0.959 1_455 S
H1741 C1755 0.929 . S
H1742 C1756 0.931 . S
H1743 C1758 0.930 . S
C1744 H1732 0.930 1_455 S
C1744 C1745 1.399 . S
C1744 C1749 1.399 . S
C1745 C1744 1.399 . S
C1745 C1746 1.376 . S
C1746 H1733 0.930 . S
C1746 C1745 1.376 . S
C1746 C1747 1.388 . S
C1747 H1734 0.930 . S
C1747 C1746 1.388 . S
C1747 C1748 1.390 . S
C1748 C1747 1.390 . S
C1748 C1749 1.394 . S
C1748 C1754 1.465 . S
C1749 C1744 1.399 . S
C1749 C1748 1.394 . S
C1749 C1750 1.516 1_455 S
C1750 C1749 1.516 1_655 S
C1750 C1751 1.502 . S
C1750 C1752 1.561 . S
C1750 C1753 1.520 1_655 S
C1751 H1735 0.959 . S
C1751 H1736 0.959 . S
C1751 H1737 0.961 . S
C1751 C1750 1.502 . S
C1752 H1738 0.960 . S
C1752 H1739 0.961 . S
C1752 H1740 0.959 1_655 S
C1752 C1750 1.561 . S
C1753 C1750 1.520 1_455 S
C1753 C1754 1.406 . S
C1753 C1758 1.387 1_455 S
C1754 C1748 1.465 . S
C1754 C1753 1.406 . S
C1754 C1755 1.399 . S
C1755 H1741 0.929 . S
C1755 C1754 1.399 . S
C1755 C1756 1.385 . S
C1756 H1742 0.931 . S
C1756 C1755 1.385 . S
C1756 C1757 1.389 . S
C1757 C1756 1.389 . S
C1757 C1758 1.387 1_455 S
C1758 H1743 0.930 . S
C1758 C1753 1.387 1_655 S
C1758 C1757 1.387 1_655 S
H1759 C1771 0.930 . S
H1760 C1773 0.930 . S
H1761 C1774 0.930 . S
H1762 C1778 0.959 . S
H1763 C1778 0.959 . S
H1764 C1778 0.961 . S
H1765 C1779 0.960 . S
H1766 C1779 0.961 . S
H1767 C1779 0.959 . S
H1768 C1782 0.929 . S
H1769 C1783 0.931 . S
H1770 C1785 0.930 . S
C1771 H1759 0.930 . S
C1771 C1772 1.399 . S
C1771 C1776 1.399 . S
C1772 C1771 1.399 . S
C1772 C1773 1.376 . S
C1773 H1760 0.930 . S
C1773 C1772 1.376 . S
C1773 C1774 1.388 . S
C1774 H1761 0.930 . S
C1774 C1773 1.388 . S
C1774 C1775 1.390 . S
C1775 C1774 1.390 . S
C1775 C1776 1.394 . S
C1775 C1781 1.465 . S
C1776 C1771 1.399 . S
C1776 C1775 1.394 . S
C1776 C1777 1.516 . S
C1777 C1776 1.516 . S
C1777 C1778 1.502 . S
C1777 C1779 1.561 . S
C1777 C1780 1.526 . S
C1778 H1762 0.959 . S
C1778 H1763 0.959 . S
C1778 H1764 0.961 . S
C1778 C1777 1.502 . S
C1779 H1765 0.960 . S
C1779 H1766 0.961 . S
C1779 H1767 0.959 . S
C1779 C1777 1.561 . S
C1780 C1777 1.526 . S
C1780 C1781 1.396 . S
C1780 C1785 1.390 . S
C1781 C1775 1.465 . S
C1781 C1780 1.396 . S
C1781 C1782 1.399 . S
C1782 H1768 0.929 . S
C1782 C1781 1.399 . S
C1782 C1783 1.385 . S
C1783 H1769 0.931 . S
C1783 C1782 1.385 . S
C1783 C1784 1.389 . S
C1784 C1783 1.389 . S
C1784 C1785 1.387 . S
C1785 H1770 0.930 . S
C1785 C1780 1.390 . S
C1785 C1784 1.387 . S
H1786 C1798 0.930 . S
H1787 C1800 0.930 . S
H1788 C1801 0.930 . S
H1789 C1805 0.959 . S
H1790 C1805 0.959 . S
H1791 C1805 0.961 . S
H1792 C1806 0.960 . S
H1793 C1806 0.961 . S
H1794 C1806 0.959 . S
H1795 C1809 0.929 . S
H1796 C1810 0.931 . S
H1797 C1812 0.930 . S
C1798 H1786 0.930 . S
C1798 C1799 1.399 . S
C1798 C1803 1.399 . S
C1799 C1798 1.399 . S
C1799 C1800 1.376 . S
C1800 H1787 0.930 . S
C1800 C1799 1.376 . S
C1800 C1801 1.388 . S
C1801 H1788 0.930 . S
C1801 C1800 1.388 . S
C1801 C1802 1.390 . S
C1802 C1801 1.390 . S
C1802 C1803 1.394 . S
C1802 C1808 1.465 . S
C1803 C1798 1.399 . S
C1803 C1802 1.394 . S
C1803 C1804 1.516 . S
C1804 C1803 1.516 . S
C1804 C1805 1.502 . S
C1804 C1806 1.561 . S
C1804 C1807 1.526 . S
C1805 H1789 0.959 . S
C1805 H1790 0.959 . S
C1805 H1791 0.961 . S
C1805 C1804 1.502 . S
C1806 H1792 0.960 . S
C1806 H1793 0.961 . S
C1806 H1794 0.959 . S
C1806 C1804 1.561 . S
C1807 C1804 1.526 . S
C1807 C1808 1.396 . S
C1807 C1812 1.390 . S
C1808 C1802 1.465 . S
C1808 C1807 1.396 . S
C1808 C1809 1.399 . S
C1809 H1795 0.929 . S
C1809 C1808 1.399 . S
C1809 C1810 1.385 1_556 S
C1810 H1796 0.931 . S
C1810 C1809 1.385 1_554 S
C1810 C1811 1.389 1_554 S
C1811 C1810 1.389 1_556 S
C1811 C1812 1.387 . S
C1812 H1797 0.930 . S
C1812 C1807 1.390 . S
C1812 C1811 1.387 . S
H1813 C1825 0.930 . S
H1814 C1827 0.930 . S
H1815 C1828 0.930 . S
H1816 C1832 0.959 . S
H1817 C1832 0.959 . S
H1818 C1832 0.961 . S
H1819 C1833 0.960 . S
H1820 C1833 0.961 . S
H1821 C1833 0.959 . S
H1822 C1836 0.929 . S
H1823 C1837 0.931 . S
H1824 C1839 0.930 . S
C1825 H1813 0.930 . S
C1825 C1826 1.399 . S
C1825 C1830 1.399 . S
C1826 C1825 1.399 . S
C1826 C1827 1.376 . S
C1827 H1814 0.930 . S
C1827 C1826 1.376 . S
C1827 C1828 1.388 . S
C1828 H1815 0.930 . S
C1828 C1827 1.388 . S
C1828 C1829 1.390 . S
C1829 C1828 1.390 . S
C1829 C1830 1.394 . S
C1829 C1835 1.465 . S
C1830 C1825 1.399 . S
C1830 C1829 1.394 . S
C1830 C1831 1.516 . S
C1831 C1830 1.516 . S
C1831 C1832 1.502 . S
C1831 C1833 1.561 . S
C1831 C1834 1.526 . S
C1832 H1816 0.959 . S
C1832 H1817 0.959 . S
C1832 H1818 0.961 . S
C1832 C1831 1.502 . S
C1833 H1819 0.960 . S
C1833 H1820 0.961 . S
C1833 H1821 0.959 . S
C1833 C1831 1.561 . S
C1834 C1831 1.526 . S
C1834 C1835 1.396 . S
C1834 C1839 1.390 . S
C1835 C1829 1.465 . S
C1835 C1834 1.396 . S
C1835 C1836 1.399 . S
C1836 H1822 0.929 . S
C1836 C1835 1.399 . S
C1836 C1837 1.385 . S
C1837 H1823 0.931 . S
C1837 C1836 1.385 . S
C1837 C1838 1.389 . S
C1838 C1837 1.389 . S
C1838 C1839 1.387 . S
C1839 H1824 0.930 . S
C1839 C1834 1.390 . S
C1839 C1838 1.387 . S
H1840 C1852 0.930 . S
H1841 C1854 0.930 . S
H1842 C1855 0.930 1_565 S
H1843 C1859 0.959 . S
H1844 C1859 0.959 . S
H1845 C1859 0.961 . S
H1846 C1860 0.960 . S
H1847 C1860 0.961 . S
H1848 C1860 0.959 . S
H1849 C1863 0.929 1_565 S
H1850 C1864 0.931 1_565 S
H1851 C1866 0.930 . S
C1852 H1840 0.930 . S
C1852 C1853 1.399 . S
C1852 C1857 1.399 . S
C1853 C1852 1.399 . S
C1853 C1854 1.376 . S
C1854 H1841 0.930 . S
C1854 C1853 1.376 . S
C1854 C1855 1.388 . S
C1855 H1842 0.930 1_545 S
C1855 C1854 1.388 . S
C1855 C1856 1.390 . S
C1856 C1855 1.390 . S
C1856 C1857 1.394 . S
C1856 C1862 1.465 . S
C1857 C1852 1.399 . S
C1857 C1856 1.394 . S
C1857 C1858 1.516 . S
C1858 C1857 1.516 . S
C1858 C1859 1.502 . S
C1858 C1860 1.561 . S
C1858 C1861 1.526 . S
C1859 H1843 0.959 . S
C1859 H1844 0.959 . S
C1859 H1845 0.961 . S
C1859 C1858 1.502 . S
C1860 H1846 0.960 . S
C1860 H1847 0.961 . S
C1860 H1848 0.959 . S
C1860 C1858 1.561 . S
C1861 C1858 1.526 . S
C1861 C1862 1.396 . S
C1861 C1866 1.390 . S
C1862 C1856 1.465 . S
C1862 C1861 1.396 . S
C1862 C1863 1.399 . S
C1863 H1849 0.929 1_545 S
C1863 C1862 1.399 . S
C1863 C1864 1.385 . S
C1864 H1850 0.931 1_545 S
C1864 C1863 1.385 . S
C1864 C1865 1.389 . S
C1865 C1864 1.389 . S
C1865 C1866 1.387 . S
C1866 H1851 0.930 . S
C1866 C1861 1.390 . S
C1866 C1865 1.387 . S
H1867 C1879 0.930 . S
H1868 C1881 0.930 . S
H1869 C1882 0.930 . S
H1870 C1886 0.959 . S
H1871 C1886 0.959 . S
H1872 C1886 0.961 . S
H1873 C1887 0.960 . S
H1874 C1887 0.961 . S
H1875 C1887 0.959 . S
H1876 C1890 0.929 . S
H1877 C1891 0.931 . S
H1878 C1893 0.930 . S
C1879 H1867 0.930 . S
C1879 C1880 1.399 . S
C1879 C1884 1.399 . S
C1880 C1879 1.399 . S
C1880 C1881 1.376 . S
C1881 H1868 0.930 . S
C1881 C1880 1.376 . S
C1881 C1882 1.388 . S
C1882 H1869 0.930 . S
C1882 C1881 1.388 . S
C1882 C1883 1.390 . S
C1883 C1882 1.390 . S
C1883 C1884 1.394 . S
C1883 C1889 1.465 . S
C1884 C1879 1.399 . S
C1884 C1883 1.394 . S
C1884 C1885 1.516 . S
C1885 C1884 1.516 . S
C1885 C1886 1.502 . S
C1885 C1887 1.561 . S
C1885 C1888 1.526 . S
C1886 H1870 0.959 . S
C1886 H1871 0.959 . S
C1886 H1872 0.961 . S
C1886 C1885 1.502 . S
C1887 H1873 0.960 . S
C1887 H1874 0.961 . S
C1887 H1875 0.959 . S
C1887 C1885 1.561 . S
C1888 C1885 1.526 . S
C1888 C1889 1.396 . S
C1888 C1893 1.390 . S
C1889 C1883 1.465 . S
C1889 C1888 1.396 . S
C1889 C1890 1.399 . S
C1890 H1876 0.929 . S
C1890 C1889 1.399 . S
C1890 C1891 1.385 . S
C1891 H1877 0.931 . S
C1891 C1890 1.385 . S
C1891 C1892 1.389 . S
C1892 C1891 1.389 . S
C1892 C1893 1.387 . S
C1893 H1878 0.930 . S
C1893 C1888 1.390 . S
C1893 C1892 1.387 . S
H1894 C1906 0.930 . S
H1895 C1908 0.930 . S
H1896 C1909 0.930 . S
H1897 C1913 0.959 . S
H1898 C1913 0.959 . S
H1899 C1913 0.961 . S
H1900 C1914 0.960 . S
H1901 C1914 0.961 . S
H1902 C1914 0.959 . S
H1903 C1917 0.929 1_565 S
H1904 C1918 0.931 . S
H1905 C1920 0.930 . S
C1906 H1894 0.930 . S
C1906 C1907 1.399 . S
C1906 C1911 1.399 . S
C1907 C1906 1.399 . S
C1907 C1908 1.376 1_545 S
C1908 H1895 0.930 . S
C1908 C1907 1.376 1_565 S
C1908 C1909 1.388 . S
C1909 H1896 0.930 . S
C1909 C1908 1.388 . S
C1909 C1910 1.390 1_565 S
C1910 C1909 1.390 1_545 S
C1910 C1911 1.394 . S
C1910 C1916 1.465 . S
C1911 C1906 1.399 . S
C1911 C1910 1.394 . S
C1911 C1912 1.516 . S
C1912 C1911 1.516 . S
C1912 C1913 1.502 . S
C1912 C1914 1.561 . S
C1912 C1915 1.526 . S
C1913 H1897 0.959 . S
C1913 H1898 0.959 . S
C1913 H1899 0.961 . S
C1913 C1912 1.502 . S
C1914 H1900 0.960 . S
C1914 H1901 0.961 . S
C1914 H1902 0.959 . S
C1914 C1912 1.561 . S
C1915 C1912 1.526 . S
C1915 C1916 1.396 . S
C1915 C1920 1.390 . S
C1916 C1910 1.465 . S
C1916 C1915 1.396 . S
C1916 C1917 1.399 . S
C1917 H1903 0.929 1_545 S
C1917 C1916 1.399 . S
C1917 C1918 1.385 . S
C1918 H1904 0.931 . S
C1918 C1917 1.385 . S
C1918 C1919 1.389 . S
C1919 C1918 1.389 . S
C1919 C1920 1.387 . S
C1920 H1905 0.930 . S
C1920 C1915 1.390 . S
C1920 C1919 1.387 . S
H1921 C1933 0.930 . S
H1922 C1935 0.930 . S
H1923 C1936 0.930 . S
H1924 C1940 0.959 . S
H1925 C1940 0.959 . S
H1926 C1940 0.961 . S
H1927 C1941 0.960 . S
H1928 C1941 0.961 . S
H1929 C1941 0.959 . S
H1930 C1944 0.929 . S
H1931 C1945 0.931 . S
H1932 C1947 0.930 . S
C1933 H1921 0.930 . S
C1933 C1934 1.399 . S
C1933 C1938 1.399 . S
C1934 C1933 1.399 . S
C1934 C1935 1.376 . S
C1935 H1922 0.930 . S
C1935 C1934 1.376 . S
C1935 C1936 1.388 . S
C1936 H1923 0.930 . S
C1936 C1935 1.388 . S
C1936 C1937 1.390 . S
C1937 C1936 1.390 . S
C1937 C1938 1.394 . S
C1937 C1943 1.465 . S
C1938 C1933 1.399 . S
C1938 C1937 1.394 . S
C1938 C1939 1.516 . S
C1939 C1938 1.516 . S
C1939 C1940 1.502 . S
C1939 C1941 1.561 . S
C1939 C1942 1.526 . S
C1940 H1924 0.959 . S
C1940 H1925 0.959 . S
C1940 H1926 0.961 . S
C1940 C1939 1.502 . S
C1941 H1927 0.960 . S
C1941 H1928 0.961 . S
C1941 H1929 0.959 . S
C1941 C1939 1.561 . S
C1942 C1939 1.526 . S
C1942 C1943 1.396 . S
C1942 C1947 1.390 . S
C1943 C1937 1.465 . S
C1943 C1942 1.396 . S
C1943 C1944 1.399 . S
C1944 H1930 0.929 . S
C1944 C1943 1.399 . S
C1944 C1945 1.385 . S
C1945 H1931 0.931 . S
C1945 C1944 1.385 . S
C1945 C1946 1.389 . S
C1946 C1945 1.389 . S
C1946 C1947 1.387 . S
C1947 H1932 0.930 . S
C1947 C1942 1.390 . S
C1947 C1946 1.387 . S
H1948 C1960 0.930 . S
H1949 C1962 0.930 . S
H1950 C1963 0.930 . S
H1951 C1967 0.959 1_545 S
H1952 C1967 0.959 . S
H1953 C1967 0.961 . S
H1954 C1968 0.997 . S
H1955 C1968 0.981 . S
H1956 C1968 0.921 1_545 S
H1957 C1971 0.929 . S
H1958 C1972 0.931 . S
H1959 C1974 0.930 . S
C1960 H1948 0.930 . S
C1960 C1961 1.399 . S
C1960 C1965 1.399 . S
C1961 C1960 1.399 . S
C1961 C1962 1.376 . S
C1962 H1949 0.930 . S
C1962 C1961 1.376 . S
C1962 C1963 1.388 . S
C1963 H1950 0.930 . S
C1963 C1962 1.388 . S
C1963 C1964 1.390 . S
C1964 C1963 1.390 . S
C1964 C1965 1.394 . S
C1964 C1970 1.465 . S
C1965 C1960 1.399 . S
C1965 C1964 1.394 . S
C1965 C1966 1.516 . S
C1966 C1965 1.516 . S
C1966 C1967 1.502 1_545 S
C1966 C1968 1.545 1_545 S
C1966 C1969 1.526 . S
C1967 H1951 0.959 1_565 S
C1967 H1952 0.959 . S
C1967 H1953 0.961 . S
C1967 C1966 1.502 1_565 S
C1968 H1954 0.997 . S
C1968 H1955 0.981 . S
C1968 H1956 0.921 1_565 S
C1968 C1966 1.545 1_565 S
C1969 C1966 1.526 . S
C1969 C1970 1.396 . S
C1969 C1974 1.390 . S
C1970 C1964 1.465 . S
C1970 C1969 1.396 . S
C1970 C1971 1.399 . S
C1971 H1957 0.929 . S
C1971 C1970 1.399 . S
C1971 C1972 1.385 . S
C1972 H1958 0.931 . S
C1972 C1971 1.385 . S
C1972 C1973 1.389 . S
C1973 C1972 1.389 . S
C1973 C1974 1.387 . S
C1974 H1959 0.930 . S
C1974 C1969 1.390 . S
C1974 C1973 1.387 . S
H1975 C1987 0.930 . S
H1976 C1989 0.930 . S
H1977 C1990 0.930 . S
H1978 C1994 0.959 . S
H1979 C1994 0.959 . S
H1980 C1994 0.961 . S
H1981 C1995 0.960 . S
H1982 C1995 0.961 . S
H1983 C1995 0.959 . S
H1984 C1998 0.929 . S
H1985 C1999 0.931 . S
H1986 C2001 0.930 . S
C1987 H1975 0.930 . S
C1987 C1988 1.399 . S
C1987 C1992 1.399 . S
C1988 C1987 1.399 . S
C1988 C1989 1.376 . S
C1989 H1976 0.930 . S
C1989 C1988 1.376 . S
C1989 C1990 1.388 . S
C1990 H1977 0.930 . S
C1990 C1989 1.388 . S
C1990 C1991 1.390 . S
C1991 C1990 1.390 . S
C1991 C1992 1.394 . S
C1991 C1997 1.465 . S
C1992 C1987 1.399 . S
C1992 C1991 1.394 . S
C1992 C1993 1.516 . S
C1993 C1992 1.516 . S
C1993 C1994 1.502 . S
C1993 C1995 1.561 . S
C1993 C1996 1.526 . S
C1994 H1978 0.959 . S
C1994 H1979 0.959 . S
C1994 H1980 0.961 . S
C1994 C1993 1.502 . S
C1995 H1981 0.960 . S
C1995 H1982 0.961 . S
C1995 H1983 0.959 . S
C1995 C1993 1.561 . S
C1996 C1993 1.526 . S
C1996 C1997 1.396 . S
C1996 C2001 1.390 . S
C1997 C1991 1.465 . S
C1997 C1996 1.396 . S
C1997 C1998 1.399 . S
C1998 H1984 0.929 . S
C1998 C1997 1.399 . S
C1998 C1999 1.385 . S
C1999 H1985 0.931 . S
C1999 C1998 1.385 . S
C1999 C2000 1.389 . S
C2000 C1999 1.389 . S
C2000 C2001 1.387 . S
C2001 H1986 0.930 . S
C2001 C1996 1.390 . S
C2001 C2000 1.387 . S
H2002 C2014 0.930 . S
H2003 C2016 0.930 . S
H2004 C2017 0.930 . S
H2005 C2021 0.959 . S
H2006 C2021 0.959 . S
H2007 C2021 0.961 . S
H2008 C2022 0.960 . S
H2009 C2022 0.961 . S
H2010 C2022 0.959 . S
H2011 C2025 0.929 . S
H2012 C2026 0.931 . S
H2013 C2028 0.930 . S
C2014 H2002 0.930 . S
C2014 C2015 1.399 1_545 S
C2014 C2019 1.399 . S
C2015 C2014 1.399 1_565 S
C2015 C2016 1.376 . S
C2016 H2003 0.930 . S
C2016 C2015 1.376 . S
C2016 C2017 1.388 . S
C2017 H2004 0.930 . S
C2017 C2016 1.388 . S
C2017 C2018 1.390 . S
C2018 C2017 1.390 . S
C2018 C2019 1.394 1_565 S
C2018 C2024 1.465 . S
C2019 C2014 1.399 . S
C2019 C2018 1.394 1_545 S
C2019 C2020 1.516 . S
C2020 C2019 1.516 . S
C2020 C2021 1.502 . S
C2020 C2022 1.561 . S
C2020 C2023 1.515 1_545 S
C2021 H2005 0.959 . S
C2021 H2006 0.959 . S
C2021 H2007 0.961 . S
C2021 C2020 1.502 . S
C2022 H2008 0.960 . S
C2022 H2009 0.961 . S
C2022 H2010 0.959 . S
C2022 C2020 1.561 . S
C2023 C2020 1.515 1_565 S
C2023 C2024 1.410 . S
C2023 C2028 1.388 1_565 S
C2024 C2018 1.465 . S
C2024 C2023 1.410 . S
C2024 C2025 1.399 . S
C2025 H2011 0.929 . S
C2025 C2024 1.399 . S
C2025 C2026 1.385 . S
C2026 H2012 0.931 . S
C2026 C2025 1.385 . S
C2026 C2027 1.389 . S
C2027 C2026 1.389 . S
C2027 C2028 1.387 1_565 S
C2028 H2013 0.930 . S
C2028 C2023 1.388 1_545 S
C2028 C2027 1.387 1_545 S
H2029 C2041 0.930 . S
H2030 C2043 0.930 . S
H2031 C2044 0.930 . S
H2032 C2048 0.959 . S
H2033 C2048 0.959 . S
H2034 C2048 0.961 . S
H2035 C2049 0.960 . S
H2036 C2049 0.961 . S
H2037 C2049 0.959 . S
H2038 C2052 0.929 . S
H2039 C2053 0.931 . S
H2040 C2055 0.930 . S
C2041 H2029 0.930 . S
C2041 C2042 1.399 . S
C2041 C2046 1.399 . S
C2042 C2041 1.399 . S
C2042 C2043 1.376 . S
C2043 H2030 0.930 . S
C2043 C2042 1.376 . S
C2043 C2044 1.388 . S
C2044 H2031 0.930 . S
C2044 C2043 1.388 . S
C2044 C2045 1.390 . S
C2045 C2044 1.390 . S
C2045 C2046 1.394 . S
C2045 C2051 1.465 . S
C2046 C2041 1.399 . S
C2046 C2045 1.394 . S
C2046 C2047 1.516 . S
C2047 C2046 1.516 . S
C2047 C2048 1.502 . S
C2047 C2049 1.561 . S
C2047 C2050 1.526 . S
C2048 H2032 0.959 . S
C2048 H2033 0.959 . S
C2048 H2034 0.961 . S
C2048 C2047 1.502 . S
C2049 H2035 0.960 . S
C2049 H2036 0.961 . S
C2049 H2037 0.959 . S
C2049 C2047 1.561 . S
C2050 C2047 1.526 . S
C2050 C2051 1.396 . S
C2050 C2055 1.390 . S
C2051 C2045 1.465 . S
C2051 C2050 1.396 . S
C2051 C2052 1.399 . S
C2052 H2038 0.929 . S
C2052 C2051 1.399 . S
C2052 C2053 1.385 . S
C2053 H2039 0.931 . S
C2053 C2052 1.385 . S
C2053 C2054 1.389 . S
C2054 C2053 1.389 . S
C2054 C2055 1.387 . S
C2055 H2040 0.930 . S
C2055 C2050 1.390 . S
C2055 C2054 1.387 . S
H2056 C2068 0.930 . S
H2057 C2070 0.930 . S
H2058 C2071 0.930 . S
H2059 C2075 0.959 . S
H2060 C2075 0.959 . S
H2061 C2075 0.961 . S
H2062 C2076 0.960 . S
H2063 C2076 0.961 1_556 S
H2064 C2076 0.959 . S
H2065 C2079 0.929 . S
H2066 C2080 0.931 . S
H2067 C2082 0.930 . S
C2068 H2056 0.930 . S
C2068 C2069 1.399 . S
C2068 C2073 1.399 . S
C2069 C2068 1.399 . S
C2069 C2070 1.376 . S
C2070 H2057 0.930 . S
C2070 C2069 1.376 . S
C2070 C2071 1.388 . S
C2071 H2058 0.930 . S
C2071 C2070 1.388 . S
C2071 C2072 1.390 . S
C2072 C2071 1.390 . S
C2072 C2073 1.394 . S
C2072 C2078 1.465 . S
C2073 C2068 1.399 . S
C2073 C2072 1.394 . S
C2073 C2074 1.516 . S
C2074 C2073 1.516 . S
C2074 C2075 1.502 1_554 S
C2074 C2076 1.561 . S
C2074 C2077 1.526 . S
C2075 H2059 0.959 . S
C2075 H2060 0.959 . S
C2075 H2061 0.961 . S
C2075 C2074 1.502 1_556 S
C2076 H2062 0.960 . S
C2076 H2063 0.961 1_554 S
C2076 H2064 0.959 . S
C2076 C2074 1.561 . S
C2077 C2074 1.526 . S
C2077 C2078 1.396 . S
C2077 C2082 1.390 1_554 S
C2078 C2072 1.465 . S
C2078 C2077 1.396 . S
C2078 C2079 1.399 . S
C2079 H2065 0.929 . S
C2079 C2078 1.399 . S
C2079 C2080 1.385 . S
C2080 H2066 0.931 . S
C2080 C2079 1.385 . S
C2080 C2081 1.389 . S
C2081 C2080 1.389 . S
C2081 C2082 1.387 1_554 S
C2082 H2067 0.930 . S
C2082 C2077 1.390 1_556 S
C2082 C2081 1.387 1_556 S
H2083 C2095 0.930 . S
H2084 C2097 0.946 . S
H2085 C2098 0.930 1_556 S
H2086 C2102 0.959 . S
H2087 C2102 0.959 . S
H2088 C2102 0.961 . S
H2089 C2103 0.960 . S
H2090 C2103 0.961 . S
H2091 C2103 0.959 . S
H2092 C2106 0.929 1_556 S
H2093 C2107 0.931 1_556 S
H2094 C2109 0.930 . S
C2095 H2083 0.930 . S
C2095 C2096 1.399 . S
C2095 C2100 1.399 . S
C2096 C2095 1.399 . S
C2096 C2097 1.376 . S
C2097 H2084 0.946 . S
C2097 C2096 1.376 . S
C2097 C2098 1.388 . S
C2098 H2085 0.930 1_554 S
C2098 C2097 1.388 . S
C2098 C2099 1.390 . S
C2099 C2098 1.390 . S
C2099 C2100 1.394 . S
C2099 C2105 1.465 . S
C2100 C2095 1.399 . S
C2100 C2099 1.394 . S
C2100 C2101 1.516 . S
C2101 C2100 1.516 . S
C2101 C2102 1.502 . S
C2101 C2103 1.561 . S
C2101 C2104 1.526 . S
C2102 H2086 0.959 . S
C2102 H2087 0.959 . S
C2102 H2088 0.961 . S
C2102 C2101 1.502 . S
C2103 H2089 0.960 . S
C2103 H2090 0.961 . S
C2103 H2091 0.959 . S
C2103 C2101 1.561 . S
C2104 C2101 1.526 . S
C2104 C2105 1.396 . S
C2104 C2109 1.390 . S
C2105 C2099 1.465 . S
C2105 C2104 1.396 . S
C2105 C2106 1.399 . S
C2106 H2092 0.929 1_554 S
C2106 C2105 1.399 . S
C2106 C2107 1.385 . S
C2107 H2093 0.931 1_554 S
C2107 C2106 1.385 . S
C2107 C2108 1.389 . S
C2108 C2107 1.389 . S
C2108 C2109 1.387 . S
C2109 H2094 0.930 . S
C2109 C2104 1.390 . S
C2109 C2108 1.387 . S
H2110 C2122 0.930 . S
H2111 C2124 0.930 . S
H2112 C2125 0.930 . S
H2113 C2129 0.959 . S
H2114 C2129 0.959 . S
H2115 C2129 0.961 . S
H2116 C2130 0.960 . S
H2117 C2130 0.961 . S
H2118 C2130 0.959 . S
H2119 C2133 0.929 . S
H2120 C2134 0.931 . S
H2121 C2136 0.930 . S
C2122 H2110 0.930 . S
C2122 C2123 1.399 . S
C2122 C2127 1.399 . S
C2123 C2122 1.399 . S
C2123 C2124 1.376 . S
C2124 H2111 0.930 . S
C2124 C2123 1.376 . S
C2124 C2125 1.388 . S
C2125 H2112 0.930 . S
C2125 C2124 1.388 . S
C2125 C2126 1.390 . S
C2126 C2125 1.390 . S
C2126 C2127 1.394 . S
C2126 C2132 1.465 . S
C2127 C2122 1.399 . S
C2127 C2126 1.394 . S
C2127 C2128 1.516 . S
C2128 C2127 1.516 . S
C2128 C2129 1.502 . S
C2128 C2130 1.561 . S
C2128 C2131 1.526 . S
C2129 H2113 0.959 . S
C2129 H2114 0.959 . S
C2129 H2115 0.961 . S
C2129 C2128 1.502 . S
C2130 H2116 0.960 . S
C2130 H2117 0.961 . S
C2130 H2118 0.959 . S
C2130 C2128 1.561 . S
C2131 C2128 1.526 . S
C2131 C2132 1.396 . S
C2131 C2136 1.390 . S
C2132 C2126 1.465 . S
C2132 C2131 1.396 . S
C2132 C2133 1.399 . S
C2133 H2119 0.929 . S
C2133 C2132 1.399 . S
C2133 C2134 1.385 . S
C2134 H2120 0.931 . S
C2134 C2133 1.385 . S
C2134 C2135 1.389 . S
C2135 C2134 1.389 . S
C2135 C2136 1.387 . S
C2136 H2121 0.930 . S
C2136 C2131 1.390 . S
C2136 C2135 1.387 . S
H2137 C2149 0.930 . S
H2138 C2151 0.930 . S
H2139 C2152 0.930 . S
H2140 C2156 0.959 . S
H2141 C2156 0.959 . S
H2142 C2156 0.961 . S
H2143 C2157 0.960 . S
H2144 C2157 0.961 . S
H2145 C2157 0.959 . S
H2146 C2160 0.929 . S
H2147 C2161 0.931 . S
H2148 C2163 0.930 . S
C2149 H2137 0.930 . S
C2149 C2150 1.399 . S
C2149 C2154 1.399 . S
C2150 C2149 1.399 . S
C2150 C2151 1.376 . S
C2151 H2138 0.930 . S
C2151 C2150 1.376 . S
C2151 C2152 1.388 . S
C2152 H2139 0.930 . S
C2152 C2151 1.388 . S
C2152 C2153 1.390 . S
C2153 C2152 1.390 . S
C2153 C2154 1.394 . S
C2153 C2159 1.465 . S
C2154 C2149 1.399 . S
C2154 C2153 1.394 . S
C2154 C2155 1.516 . S
C2155 C2154 1.516 . S
C2155 C2156 1.502 . S
C2155 C2157 1.561 . S
C2155 C2158 1.526 . S
C2156 H2140 0.959 . S
C2156 H2141 0.959 . S
C2156 H2142 0.961 . S
C2156 C2155 1.502 . S
C2157 H2143 0.960 . S
C2157 H2144 0.961 . S
C2157 H2145 0.959 . S
C2157 C2155 1.561 . S
C2158 C2155 1.526 . S
C2158 C2159 1.396 . S
C2158 C2163 1.390 . S
C2159 C2153 1.465 . S
C2159 C2158 1.396 . S
C2159 C2160 1.399 . S
C2160 H2146 0.929 . S
C2160 C2159 1.399 . S
C2160 C2161 1.385 . S
C2161 H2147 0.931 . S
C2161 C2160 1.385 . S
C2161 C2162 1.389 . S
C2162 C2161 1.389 . S
C2162 C2163 1.387 . S
C2163 H2148 0.930 . S
C2163 C2158 1.390 . S
C2163 C2162 1.387 . S
H2164 C2176 0.930 . S
H2165 C2178 0.930 . S
H2166 C2179 0.932 1_565 S
H2167 C2183 0.959 . S
H2168 C2183 0.959 . S
H2169 C2183 0.961 . S
H2170 C2184 0.954 1_545 S
H2171 C2184 0.961 . S
H2172 C2184 0.959 . S
H2173 C2187 0.929 . S
H2174 C2188 0.931 . S
H2175 C2190 0.930 . S
C2176 H2164 0.930 . S
C2176 C2177 1.399 . S
C2176 C2181 1.399 . S
C2177 C2176 1.399 . S
C2177 C2178 1.376 . S
C2178 H2165 0.930 . S
C2178 C2177 1.376 . S
C2178 C2179 1.385 . S
C2179 H2166 0.932 1_545 S
C2179 C2178 1.385 . S
C2179 C2180 1.391 1_545 S
C2180 C2179 1.391 1_565 S
C2180 C2181 1.394 1_565 S
C2180 C2186 1.465 . S
C2181 C2176 1.399 . S
C2181 C2180 1.394 1_545 S
C2181 C2182 1.516 . S
C2182 C2181 1.516 . S
C2182 C2183 1.502 . S
C2182 C2184 1.561 1_545 S
C2182 C2185 1.526 1_545 S
C2183 H2167 0.959 . S
C2183 H2168 0.959 . S
C2183 H2169 0.961 . S
C2183 C2182 1.502 . S
C2184 H2170 0.954 1_565 S
C2184 H2171 0.961 . S
C2184 H2172 0.959 . S
C2184 C2182 1.561 1_565 S
C2185 C2182 1.526 1_565 S
C2185 C2186 1.396 . S
C2185 C2190 1.390 . S
C2186 C2180 1.465 . S
C2186 C2185 1.396 . S
C2186 C2187 1.399 . S
C2187 H2173 0.929 . S
C2187 C2186 1.399 . S
C2187 C2188 1.385 . S
C2188 H2174 0.931 . S
C2188 C2187 1.385 . S
C2188 C2189 1.389 . S
C2189 C2188 1.389 . S
C2189 C2190 1.387 . S
C2190 H2175 0.930 . S
C2190 C2185 1.390 . S
C2190 C2189 1.387 . S
H2191 C2203 0.930 . S
H2192 C2205 0.930 . S
H2193 C2206 0.930 . S
H2194 C2210 0.959 . S
H2195 C2210 0.959 . S
H2196 C2210 0.961 . S
H2197 C2211 0.960 . S
H2198 C2211 0.961 . S
H2199 C2211 0.959 . S
H2200 C2214 0.929 . S
H2201 C2215 0.931 1_545 S
H2202 C2217 0.930 . S
C2203 H2191 0.930 . S
C2203 C2204 1.399 . S
C2203 C2208 1.399 . S
C2204 C2203 1.399 . S
C2204 C2205 1.376 . S
C2205 H2192 0.930 . S
C2205 C2204 1.376 . S
C2205 C2206 1.388 . S
C2206 H2193 0.930 . S
C2206 C2205 1.388 . S
C2206 C2207 1.390 . S
C2207 C2206 1.390 . S
C2207 C2208 1.394 . S
C2207 C2213 1.465 . S
C2208 C2203 1.399 . S
C2208 C2207 1.394 . S
C2208 C2209 1.516 . S
C2209 C2208 1.516 . S
C2209 C2210 1.502 . S
C2209 C2211 1.561 . S
C2209 C2212 1.526 . S
C2210 H2194 0.959 . S
C2210 H2195 0.959 . S
C2210 H2196 0.961 . S
C2210 C2209 1.502 . S
C2211 H2197 0.960 . S
C2211 H2198 0.961 . S
C2211 H2199 0.959 . S
C2211 C2209 1.561 . S
C2212 C2209 1.526 . S
C2212 C2213 1.396 . S
C2212 C2217 1.390 . S
C2213 C2207 1.465 . S
C2213 C2212 1.396 . S
C2213 C2214 1.399 . S
C2214 H2200 0.929 . S
C2214 C2213 1.399 . S
C2214 C2215 1.385 . S
C2215 H2201 0.931 1_565 S
C2215 C2214 1.385 . S
C2215 C2216 1.389 . S
C2216 C2215 1.389 . S
C2216 C2217 1.387 . S
C2217 H2202 0.930 . S
C2217 C2212 1.390 . S
C2217 C2216 1.387 . S
H2218 C2230 0.930 . S
H2219 C2232 0.930 . S
H2220 C2233 0.930 . S
H2221 C2237 0.959 . S
H2222 C2237 0.959 . S
H2223 C2237 0.961 . S
H2224 C2238 0.960 . S
H2225 C2238 0.961 . S
H2226 C2238 0.959 . S
H2227 C2241 0.929 . S
H2228 C2242 0.931 . S
H2229 C2244 0.930 . S
C2230 H2218 0.930 . S
C2230 C2231 1.399 . S
C2230 C2235 1.399 . S
C2231 C2230 1.399 . S
C2231 C2232 1.376 . S
C2232 H2219 0.930 . S
C2232 C2231 1.376 . S
C2232 C2233 1.388 . S
C2233 H2220 0.930 . S
C2233 C2232 1.388 . S
C2233 C2234 1.390 . S
C2234 C2233 1.390 . S
C2234 C2235 1.394 . S
C2234 C2240 1.465 . S
C2235 C2230 1.399 . S
C2235 C2234 1.394 . S
C2235 C2236 1.516 . S
C2236 C2235 1.516 . S
C2236 C2237 1.502 . S
C2236 C2238 1.561 . S
C2236 C2239 1.526 . S
C2237 H2221 0.959 . S
C2237 H2222 0.959 . S
C2237 H2223 0.961 . S
C2237 C2236 1.502 . S
C2238 H2224 0.960 . S
C2238 H2225 0.961 . S
C2238 H2226 0.959 . S
C2238 C2236 1.561 . S
C2239 C2236 1.526 . S
C2239 C2240 1.396 . S
C2239 C2244 1.390 . S
C2240 C2234 1.465 . S
C2240 C2239 1.396 . S
C2240 C2241 1.399 . S
C2241 H2227 0.929 . S
C2241 C2240 1.399 . S
C2241 C2242 1.385 . S
C2242 H2228 0.931 . S
C2242 C2241 1.385 . S
C2242 C2243 1.389 . S
C2243 C2242 1.389 . S
C2243 C2244 1.387 . S
C2244 H2229 0.930 . S
C2244 C2239 1.390 . S
C2244 C2243 1.387 . S
H2245 C2257 0.930 . S
H2246 C2259 0.930 . S
H2247 C2260 0.930 . S
H2248 C2264 0.959 . S
H2249 C2264 0.959 . S
H2250 C2264 0.961 . S
H2251 C2265 0.960 . S
H2252 C2265 0.961 . S
H2253 C2265 0.959 . S
H2254 C2268 0.929 . S
H2255 C2269 0.931 . S
H2256 C2271 0.930 . S
C2257 H2245 0.930 . S
C2257 C2258 1.399 . S
C2257 C2262 1.399 . S
C2258 C2257 1.399 . S
C2258 C2259 1.376 . S
C2259 H2246 0.930 . S
C2259 C2258 1.376 . S
C2259 C2260 1.388 . S
C2260 H2247 0.930 . S
C2260 C2259 1.388 . S
C2260 C2261 1.390 . S
C2261 C2260 1.390 . S
C2261 C2262 1.394 . S
C2261 C2267 1.465 . S
C2262 C2257 1.399 . S
C2262 C2261 1.394 . S
C2262 C2263 1.516 . S
C2263 C2262 1.516 . S
C2263 C2264 1.502 . S
C2263 C2265 1.561 . S
C2263 C2266 1.526 . S
C2264 H2248 0.959 . S
C2264 H2249 0.959 . S
C2264 H2250 0.961 . S
C2264 C2263 1.502 . S
C2265 H2251 0.960 . S
C2265 H2252 0.961 . S
C2265 H2253 0.959 . S
C2265 C2263 1.561 . S
C2266 C2263 1.526 . S
C2266 C2267 1.396 . S
C2266 C2271 1.390 . S
C2267 C2261 1.465 . S
C2267 C2266 1.396 . S
C2267 C2268 1.399 . S
C2268 H2254 0.929 . S
C2268 C2267 1.399 . S
C2268 C2269 1.385 . S
C2269 H2255 0.931 . S
C2269 C2268 1.385 . S
C2269 C2270 1.389 . S
C2270 C2269 1.389 . S
C2270 C2271 1.387 . S
C2271 H2256 0.930 . S
C2271 C2266 1.390 . S
C2271 C2270 1.387 . S
H2272 C2284 0.930 . S
H2273 C2286 0.930 . S
H2274 C2287 0.930 . S
H2275 C2291 0.959 . S
H2276 C2291 0.959 . S
H2277 C2291 0.961 . S
H2278 C2292 0.960 . S
H2279 C2292 0.961 . S
H2280 C2292 0.959 . S
H2281 C2295 0.929 . S
H2282 C2296 0.931 . S
H2283 C2298 0.930 . S
C2284 H2272 0.930 . S
C2284 C2285 1.399 . S
C2284 C2289 1.399 . S
C2285 C2284 1.399 . S
C2285 C2286 1.376 . S
C2286 H2273 0.930 . S
C2286 C2285 1.376 . S
C2286 C2287 1.388 . S
C2287 H2274 0.930 . S
C2287 C2286 1.388 . S
C2287 C2288 1.390 . S
C2288 C2287 1.390 . S
C2288 C2289 1.394 . S
C2288 C2294 1.465 . S
C2289 C2284 1.399 . S
C2289 C2288 1.394 . S
C2289 C2290 1.516 . S
C2290 C2289 1.516 . S
C2290 C2291 1.502 . S
C2290 C2292 1.561 . S
C2290 C2293 1.526 . S
C2291 H2275 0.959 . S
C2291 H2276 0.959 . S
C2291 H2277 0.961 . S
C2291 C2290 1.502 . S
C2292 H2278 0.960 . S
C2292 H2279 0.961 . S
C2292 H2280 0.959 . S
C2292 C2290 1.561 . S
C2293 C2290 1.526 . S
C2293 C2294 1.396 . S
C2293 C2298 1.390 . S
C2294 C2288 1.465 . S
C2294 C2293 1.396 . S
C2294 C2295 1.399 . S
C2295 H2281 0.929 . S
C2295 C2294 1.399 . S
C2295 C2296 1.385 . S
C2296 H2282 0.931 . S
C2296 C2295 1.385 . S
C2296 C2297 1.389 . S
C2297 C2296 1.389 . S
C2297 C2298 1.387 . S
C2298 H2283 0.930 . S
C2298 C2293 1.390 . S
C2298 C2297 1.387 . S
H2299 C2311 0.930 . S
H2300 C2313 0.930 . S
H2301 C2314 0.930 . S
H2302 C2318 0.959 . S
H2303 C2318 0.959 . S
H2304 C2318 0.961 . S
H2305 C2319 0.960 . S
H2306 C2319 0.961 . S
H2307 C2319 0.959 . S
H2308 C2322 0.929 . S
H2309 C2323 0.931 . S
H2310 C2325 0.930 . S
C2311 H2299 0.930 . S
C2311 C2312 1.399 . S
C2311 C2316 1.399 . S
C2312 C2311 1.399 . S
C2312 C2313 1.376 . S
C2313 H2300 0.930 . S
C2313 C2312 1.376 . S
C2313 C2314 1.388 . S
C2314 H2301 0.930 . S
C2314 C2313 1.388 . S
C2314 C2315 1.390 . S
C2315 C2314 1.390 . S
C2315 C2316 1.394 . S
C2315 C2321 1.465 . S
C2316 C2311 1.399 . S
C2316 C2315 1.394 . S
C2316 C2317 1.516 . S
C2317 C2316 1.516 . S
C2317 C2318 1.502 . S
C2317 C2319 1.561 . S
C2317 C2320 1.526 . S
C2318 H2302 0.959 . S
C2318 H2303 0.959 . S
C2318 H2304 0.961 . S
C2318 C2317 1.502 . S
C2319 H2305 0.960 . S
C2319 H2306 0.961 . S
C2319 H2307 0.959 . S
C2319 C2317 1.561 . S
C2320 C2317 1.526 . S
C2320 C2321 1.396 . S
C2320 C2325 1.390 . S
C2321 C2315 1.465 . S
C2321 C2320 1.396 . S
C2321 C2322 1.399 . S
C2322 H2308 0.929 . S
C2322 C2321 1.399 . S
C2322 C2323 1.385 . S
C2323 H2309 0.931 . S
C2323 C2322 1.385 . S
C2323 C2324 1.389 . S
C2324 C2323 1.389 . S
C2324 C2325 1.387 . S
C2325 H2310 0.930 . S
C2325 C2320 1.390 . S
C2325 C2324 1.387 . S
H2326 C2338 0.930 . S
H2327 C2340 0.930 1_655 S
H2328 C2341 0.932 . S
H2329 C2345 0.959 . S
H2330 C2345 0.959 . S
H2331 C2345 0.961 . S
H2332 C2346 0.960 . S
H2333 C2346 0.961 . S
H2334 C2346 0.959 . S
H2335 C2349 0.929 . S
H2336 C2350 0.931 . S
H2337 C2352 0.907 1_556 S
C2338 H2326 0.930 . S
C2338 C2339 1.399 . S
C2338 C2343 1.399 . S
C2339 C2338 1.399 . S
C2339 C2340 1.376 1_556 S
C2340 H2327 0.930 1_455 S
C2340 C2339 1.376 1_554 S
C2340 C2341 1.388 . S
C2341 H2328 0.932 . S
C2341 C2340 1.388 . S
C2341 C2342 1.390 . S
C2342 C2341 1.390 . S
C2342 C2343 1.394 1_554 S
C2342 C2348 1.465 . S
C2343 C2338 1.399 . S
C2343 C2342 1.394 1_556 S
C2343 C2344 1.516 . S
C2344 C2343 1.516 . S
C2344 C2345 1.502 . S
C2344 C2346 1.561 1_455 S
C2344 C2347 1.531 . S
C2345 H2329 0.959 . S
C2345 H2330 0.959 . S
C2345 H2331 0.961 . S
C2345 C2344 1.502 . S
C2346 H2332 0.960 . S
C2346 H2333 0.961 . S
C2346 H2334 0.959 . S
C2346 C2344 1.561 1_655 S
C2347 C2344 1.531 . S
C2347 C2348 1.389 1_556 S
C2347 C2352 1.395 1_556 S
C2348 C2342 1.465 . S
C2348 C2347 1.389 1_554 S
C2348 C2349 1.399 . S
C2349 H2335 0.929 . S
C2349 C2348 1.399 . S
C2349 C2350 1.385 . S
C2350 H2336 0.931 . S
C2350 C2349 1.385 . S
C2350 C2351 1.389 . S
C2351 C2350 1.389 . S
C2351 C2352 1.406 . S
C2352 H2337 0.907 1_554 S
C2352 C2347 1.395 1_554 S
C2352 C2351 1.406 . S
H2353 C2365 0.930 . S
H2354 C2367 0.930 . S
H2355 C2368 0.930 . S
H2356 C2372 0.959 . S
H2357 C2372 0.959 . S
H2358 C2372 0.961 1_455 S
H2359 C2373 0.960 1_455 S
H2360 C2373 0.961 . S
H2361 C2373 0.959 . S
H2362 C2376 0.929 . S
H2363 C2377 0.931 . S
H2364 C2379 0.930 . S
C2365 H2353 0.930 . S
C2365 C2366 1.399 . S
C2365 C2370 1.399 1_455 S
C2366 C2365 1.399 . S
C2366 C2367 1.376 1_455 S
C2367 H2354 0.930 . S
C2367 C2366 1.376 1_655 S
C2367 C2368 1.388 . S
C2368 H2355 0.930 . S
C2368 C2367 1.388 . S
C2368 C2369 1.390 . S
C2369 C2368 1.390 . S
C2369 C2370 1.394 . S
C2369 C2375 1.465 . S
C2370 C2365 1.399 1_655 S
C2370 C2369 1.394 . S
C2370 C2371 1.516 . S
C2371 C2370 1.516 . S
C2371 C2372 1.502 . S
C2371 C2373 1.561 . S
C2371 C2374 1.526 . S
C2372 H2356 0.959 . S
C2372 H2357 0.959 . S
C2372 H2358 0.961 1_655 S
C2372 C2371 1.502 . S
C2373 H2359 0.960 1_655 S
C2373 H2360 0.961 . S
C2373 H2361 0.959 . S
C2373 C2371 1.561 . S
C2374 C2371 1.526 . S
C2374 C2375 1.396 . S
C2374 C2379 1.390 . S
C2375 C2369 1.465 . S
C2375 C2374 1.396 . S
C2375 C2376 1.399 . S
C2376 H2362 0.929 . S
C2376 C2375 1.399 . S
C2376 C2377 1.385 . S
C2377 H2363 0.931 . S
C2377 C2376 1.385 . S
C2377 C2378 1.389 . S
C2378 C2377 1.389 . S
C2378 C2379 1.387 . S
C2379 H2364 0.930 . S
C2379 C2374 1.390 . S
C2379 C2378 1.387 . S
H2380 C2392 0.930 . S
H2381 C2394 0.930 . S
H2382 C2395 0.930 . S
H2383 C2399 0.959 . S
H2384 C2399 0.959 . S
H2385 C2399 0.961 . S
H2386 C2400 0.960 . S
H2387 C2400 0.961 . S
H2388 C2400 0.959 . S
H2389 C2403 0.929 . S
H2390 C2404 0.931 . S
H2391 C2406 0.930 . S
C2392 H2380 0.930 . S
C2392 C2393 1.399 . S
C2392 C2397 1.399 . S
C2393 C2392 1.399 . S
C2393 C2394 1.376 . S
C2394 H2381 0.930 . S
C2394 C2393 1.376 . S
C2394 C2395 1.388 . S
C2395 H2382 0.930 . S
C2395 C2394 1.388 . S
C2395 C2396 1.390 . S
C2396 C2395 1.390 . S
C2396 C2397 1.394 . S
C2396 C2402 1.465 . S
C2397 C2392 1.399 . S
C2397 C2396 1.394 . S
C2397 C2398 1.516 . S
C2398 C2397 1.516 . S
C2398 C2399 1.502 . S
C2398 C2400 1.561 . S
C2398 C2401 1.526 . S
C2399 H2383 0.959 . S
C2399 H2384 0.959 . S
C2399 H2385 0.961 . S
C2399 C2398 1.502 . S
C2400 H2386 0.960 . S
C2400 H2387 0.961 . S
C2400 H2388 0.959 . S
C2400 C2398 1.561 . S
C2401 C2398 1.526 . S
C2401 C2402 1.396 . S
C2401 C2406 1.390 . S
C2402 C2396 1.465 . S
C2402 C2401 1.396 . S
C2402 C2403 1.399 . S
C2403 H2389 0.929 . S
C2403 C2402 1.399 . S
C2403 C2404 1.385 . S
C2404 H2390 0.931 . S
C2404 C2403 1.385 . S
C2404 C2405 1.389 . S
C2405 C2404 1.389 . S
C2405 C2406 1.387 . S
C2406 H2391 0.930 . S
C2406 C2401 1.390 . S
C2406 C2405 1.387 . S
H2407 C2419 0.930 . S
H2408 C2421 0.930 . S
H2409 C2422 0.930 . S
H2410 C2426 0.959 . S
H2411 C2426 0.959 . S
H2412 C2426 0.961 . S
H2413 C2427 0.960 . S
H2414 C2427 0.961 . S
H2415 C2427 0.959 . S
H2416 C2430 0.929 . S
H2417 C2431 0.931 . S
H2418 C2433 0.930 . S
C2419 H2407 0.930 . S
C2419 C2420 1.399 . S
C2419 C2424 1.399 . S
C2420 C2419 1.399 . S
C2420 C2421 1.376 . S
C2421 H2408 0.930 . S
C2421 C2420 1.376 . S
C2421 C2422 1.388 . S
C2422 H2409 0.930 . S
C2422 C2421 1.388 . S
C2422 C2423 1.390 . S
C2423 C2422 1.390 . S
C2423 C2424 1.394 . S
C2423 C2429 1.465 . S
C2424 C2419 1.399 . S
C2424 C2423 1.394 . S
C2424 C2425 1.516 . S
C2425 C2424 1.516 . S
C2425 C2426 1.502 . S
C2425 C2427 1.561 . S
C2425 C2428 1.526 . S
C2426 H2410 0.959 . S
C2426 H2411 0.959 . S
C2426 H2412 0.961 . S
C2426 C2425 1.502 . S
C2427 H2413 0.960 . S
C2427 H2414 0.961 . S
C2427 H2415 0.959 . S
C2427 C2425 1.561 . S
C2428 C2425 1.526 . S
C2428 C2429 1.396 . S
C2428 C2433 1.390 . S
C2429 C2423 1.465 . S
C2429 C2428 1.396 . S
C2429 C2430 1.399 . S
C2430 H2416 0.929 . S
C2430 C2429 1.399 . S
C2430 C2431 1.385 . S
C2431 H2417 0.931 . S
C2431 C2430 1.385 . S
C2431 C2432 1.389 . S
C2432 C2431 1.389 . S
C2432 C2433 1.387 . S
C2433 H2418 0.930 . S
C2433 C2428 1.390 . S
C2433 C2432 1.387 . S
H2434 C2446 0.930 1_655 S
H2435 C2448 0.930 . S
H2436 C2449 0.930 . S
H2437 C2453 0.959 . S
H2438 C2453 0.959 . S
H2439 C2453 0.961 . S
H2440 C2454 0.960 . S
H2441 C2454 0.961 . S
H2442 C2454 0.959 . S
H2443 C2457 0.929 . S
H2444 C2458 0.931 . S
H2445 C2460 0.930 1_655 S
C2446 H2434 0.930 1_455 S
C2446 C2447 1.399 . S
C2446 C2451 1.399 . S
C2447 C2446 1.399 . S
C2447 C2448 1.376 . S
C2448 H2435 0.930 . S
C2448 C2447 1.376 . S
C2448 C2449 1.388 . S
C2449 H2436 0.930 . S
C2449 C2448 1.388 . S
C2449 C2450 1.390 . S
C2450 C2449 1.390 . S
C2450 C2451 1.394 . S
C2450 C2456 1.465 . S
C2451 C2446 1.399 . S
C2451 C2450 1.394 . S
C2451 C2452 1.516 1_455 S
C2452 C2451 1.516 1_655 S
C2452 C2453 1.502 . S
C2452 C2454 1.561 . S
C2452 C2455 1.526 1_655 S
C2453 H2437 0.959 . S
C2453 H2438 0.959 . S
C2453 H2439 0.961 . S
C2453 C2452 1.502 . S
C2454 H2440 0.960 . S
C2454 H2441 0.961 . S
C2454 H2442 0.959 . S
C2454 C2452 1.561 . S
C2455 C2452 1.526 1_455 S
C2455 C2456 1.396 . S
C2455 C2460 1.390 . S
C2456 C2450 1.465 . S
C2456 C2455 1.396 . S
C2456 C2457 1.399 . S
C2457 H2443 0.929 . S
C2457 C2456 1.399 . S
C2457 C2458 1.385 . S
C2458 H2444 0.931 . S
C2458 C2457 1.385 . S
C2458 C2459 1.389 . S
C2459 C2458 1.389 . S
C2459 C2460 1.387 . S
C2460 H2445 0.930 1_455 S
C2460 C2455 1.390 . S
C2460 C2459 1.387 . S
H2461 C2473 0.930 . S
H2462 C2475 0.930 . S
H2463 C2476 0.930 . S
H2464 C2480 0.959 . S
H2465 C2480 0.959 . S
H2466 C2480 0.961 . S
H2467 C2481 0.960 . S
H2468 C2481 0.961 . S
H2469 C2481 0.959 . S
H2470 C2484 0.929 . S
H2471 C2485 0.931 . S
H2472 C2487 0.930 . S
C2473 H2461 0.930 . S
C2473 C2474 1.399 . S
C2473 C2478 1.399 . S
C2474 C2473 1.399 . S
C2474 C2475 1.376 . S
C2475 H2462 0.930 . S
C2475 C2474 1.376 . S
C2475 C2476 1.388 . S
C2476 H2463 0.930 . S
C2476 C2475 1.388 . S
C2476 C2477 1.390 . S
C2477 C2476 1.390 . S
C2477 C2478 1.394 . S
C2477 C2483 1.465 . S
C2478 C2473 1.399 . S
C2478 C2477 1.394 . S
C2478 C2479 1.516 . S
C2479 C2478 1.516 . S
C2479 C2480 1.502 . S
C2479 C2481 1.561 . S
C2479 C2482 1.526 . S
C2480 H2464 0.959 . S
C2480 H2465 0.959 . S
C2480 H2466 0.961 . S
C2480 C2479 1.502 . S
C2481 H2467 0.960 . S
C2481 H2468 0.961 . S
C2481 H2469 0.959 . S
C2481 C2479 1.561 . S
C2482 C2479 1.526 . S
C2482 C2483 1.396 . S
C2482 C2487 1.390 . S
C2483 C2477 1.465 . S
C2483 C2482 1.396 . S
C2483 C2484 1.399 . S
C2484 H2470 0.929 . S
C2484 C2483 1.399 . S
C2484 C2485 1.385 . S
C2485 H2471 0.931 . S
C2485 C2484 1.385 . S
C2485 C2486 1.389 . S
C2486 C2485 1.389 . S
C2486 C2487 1.387 . S
C2487 H2472 0.930 . S
C2487 C2482 1.390 . S
C2487 C2486 1.387 . S
H2488 C2500 0.930 . S
H2489 C2502 0.930 . S
H2490 C2503 0.930 . S
H2491 C2507 0.959 . S
H2492 C2507 0.959 . S
H2493 C2507 0.961 . S
H2494 C2508 0.960 . S
H2495 C2508 0.961 . S
H2496 C2508 0.959 . S
H2497 C2511 0.929 . S
H2498 C2512 0.931 . S
H2499 C2514 0.930 . S
C2500 H2488 0.930 . S
C2500 C2501 1.399 . S
C2500 C2505 1.399 . S
C2501 C2500 1.399 . S
C2501 C2502 1.376 . S
C2502 H2489 0.930 . S
C2502 C2501 1.376 . S
C2502 C2503 1.388 . S
C2503 H2490 0.930 . S
C2503 C2502 1.388 . S
C2503 C2504 1.390 . S
C2504 C2503 1.390 . S
C2504 C2505 1.394 . S
C2504 C2510 1.465 . S
C2505 C2500 1.399 . S
C2505 C2504 1.394 . S
C2505 C2506 1.516 . S
C2506 C2505 1.516 . S
C2506 C2507 1.502 . S
C2506 C2508 1.561 . S
C2506 C2509 1.526 . S
C2507 H2491 0.959 . S
C2507 H2492 0.959 . S
C2507 H2493 0.961 . S
C2507 C2506 1.502 . S
C2508 H2494 0.960 . S
C2508 H2495 0.961 . S
C2508 H2496 0.959 . S
C2508 C2506 1.561 . S
C2509 C2506 1.526 . S
C2509 C2510 1.396 . S
C2509 C2514 1.390 . S
C2510 C2504 1.465 . S
C2510 C2509 1.396 . S
C2510 C2511 1.399 . S
C2511 H2497 0.929 . S
C2511 C2510 1.399 . S
C2511 C2512 1.385 . S
C2512 H2498 0.931 . S
C2512 C2511 1.385 . S
C2512 C2513 1.389 . S
C2513 C2512 1.389 . S
C2513 C2514 1.387 . S
C2514 H2499 0.930 . S
C2514 C2509 1.390 . S
C2514 C2513 1.387 . S
H2515 C2527 0.930 . S
H2516 C2529 0.930 . S
H2517 C2530 0.930 . S
H2518 C2534 0.959 . S
H2519 C2534 0.959 . S
H2520 C2534 0.961 . S
H2521 C2535 0.960 1_554 S
H2522 C2535 0.961 . S
H2523 C2535 0.959 . S
H2524 C2538 0.929 . S
H2525 C2539 0.931 . S
H2526 C2541 0.930 . S
C2527 H2515 0.930 . S
C2527 C2528 1.399 . S
C2527 C2532 1.399 1_554 S
C2528 C2527 1.399 . S
C2528 C2529 1.376 1_554 S
C2529 H2516 0.930 . S
C2529 C2528 1.376 1_556 S
C2529 C2530 1.388 . S
C2530 H2517 0.930 . S
C2530 C2529 1.388 . S
C2530 C2531 1.390 . S
C2531 C2530 1.390 . S
C2531 C2532 1.394 . S
C2531 C2537 1.465 . S
C2532 C2527 1.399 1_556 S
C2532 C2531 1.394 . S
C2532 C2533 1.516 . S
C2533 C2532 1.516 . S
C2533 C2534 1.502 1_556 S
C2533 C2535 1.561 . S
C2533 C2536 1.526 . S
C2534 H2518 0.959 . S
C2534 H2519 0.959 . S
C2534 H2520 0.961 . S
C2534 C2533 1.502 1_554 S
C2535 H2521 0.960 1_556 S
C2535 H2522 0.961 . S
C2535 H2523 0.959 . S
C2535 C2533 1.561 . S
C2536 C2533 1.526 . S
C2536 C2537 1.396 . S
C2536 C2541 1.390 . S
C2537 C2531 1.465 . S
C2537 C2536 1.396 . S
C2537 C2538 1.399 . S
C2538 H2524 0.929 . S
C2538 C2537 1.399 . S
C2538 C2539 1.385 . S
C2539 H2525 0.931 . S
C2539 C2538 1.385 . S
C2539 C2540 1.389 . S
C2540 C2539 1.389 . S
C2540 C2541 1.387 . S
C2541 H2526 0.930 . S
C2541 C2536 1.390 . S
C2541 C2540 1.387 . S
H2542 C2554 0.930 . S
H2543 C2556 0.930 . S
H2544 C2557 0.930 . S
H2545 C2561 0.959 . S
H2546 C2561 0.959 . S
H2547 C2561 0.961 . S
H2548 C2562 0.960 . S
H2549 C2562 0.961 . S
H2550 C2562 0.959 . S
H2551 C2565 0.929 . S
H2552 C2566 0.931 . S
H2553 C2568 0.930 . S
C2554 H2542 0.930 . S
C2554 C2555 1.399 . S
C2554 C2559 1.399 . S
C2555 C2554 1.399 . S
C2555 C2556 1.376 . S
C2556 H2543 0.930 . S
C2556 C2555 1.376 . S
C2556 C2557 1.388 . S
C2557 H2544 0.930 . S
C2557 C2556 1.388 . S
C2557 C2558 1.390 . S
C2558 C2557 1.390 . S
C2558 C2559 1.394 . S
C2558 C2564 1.465 . S
C2559 C2554 1.399 . S
C2559 C2558 1.394 . S
C2559 C2560 1.516 . S
C2560 C2559 1.516 . S
C2560 C2561 1.502 . S
C2560 C2562 1.561 . S
C2560 C2563 1.526 . S
C2561 H2545 0.959 . S
C2561 H2546 0.959 . S
C2561 H2547 0.961 . S
C2561 C2560 1.502 . S
C2562 H2548 0.960 . S
C2562 H2549 0.961 . S
C2562 H2550 0.959 . S
C2562 C2560 1.561 . S
C2563 C2560 1.526 . S
C2563 C2564 1.396 . S
C2563 C2568 1.390 . S
C2564 C2558 1.465 . S
C2564 C2563 1.396 . S
C2564 C2565 1.399 . S
C2565 H2551 0.929 . S
C2565 C2564 1.399 . S
C2565 C2566 1.385 . S
C2566 H2552 0.931 . S
C2566 C2565 1.385 . S
C2566 C2567 1.389 . S
C2567 C2566 1.389 . S
C2567 C2568 1.387 . S
C2568 H2553 0.930 . S
C2568 C2563 1.390 . S
C2568 C2567 1.387 . S
H2569 C2581 0.930 . S
H2570 C2583 0.930 . S
H2571 C2584 0.930 . S
H2572 C2588 0.959 . S
H2573 C2588 0.959 . S
H2574 C2588 0.961 . S
H2575 C2589 0.960 . S
H2576 C2589 0.961 . S
H2577 C2589 0.959 . S
H2578 C2592 0.929 . S
H2579 C2593 0.931 . S
H2580 C2595 0.930 . S
C2581 H2569 0.930 . S
C2581 C2582 1.399 . S
C2581 C2586 1.399 . S
C2582 C2581 1.399 . S
C2582 C2583 1.376 . S
C2583 H2570 0.930 . S
C2583 C2582 1.376 . S
C2583 C2584 1.388 . S
C2584 H2571 0.930 . S
C2584 C2583 1.388 . S
C2584 C2585 1.390 . S
C2585 C2584 1.390 . S
C2585 C2586 1.394 . S
C2585 C2591 1.465 . S
C2586 C2581 1.399 . S
C2586 C2585 1.394 . S
C2586 C2587 1.516 . S
C2587 C2586 1.516 . S
C2587 C2588 1.502 . S
C2587 C2589 1.561 . S
C2587 C2590 1.526 . S
C2588 H2572 0.959 . S
C2588 H2573 0.959 . S
C2588 H2574 0.961 . S
C2588 C2587 1.502 . S
C2589 H2575 0.960 . S
C2589 H2576 0.961 . S
C2589 H2577 0.959 . S
C2589 C2587 1.561 . S
C2590 C2587 1.526 . S
C2590 C2591 1.396 . S
C2590 C2595 1.390 . S
C2591 C2585 1.465 . S
C2591 C2590 1.396 . S
C2591 C2592 1.399 . S
C2592 H2578 0.929 . S
C2592 C2591 1.399 . S
C2592 C2593 1.385 . S
C2593 H2579 0.931 . S
C2593 C2592 1.385 . S
C2593 C2594 1.389 . S
C2594 C2593 1.389 . S
C2594 C2595 1.387 . S
C2595 H2580 0.930 . S
C2595 C2590 1.390 . S
C2595 C2594 1.387 . S
H2596 C2608 0.930 . S
H2597 C2610 0.930 . S
H2598 C2611 0.930 . S
H2599 C2615 0.959 . S
H2600 C2615 0.959 . S
H2601 C2615 0.961 . S
H2602 C2616 0.960 . S
H2603 C2616 0.961 . S
H2604 C2616 0.959 . S
H2605 C2619 0.929 . S
H2606 C2620 0.931 . S
H2607 C2622 0.930 . S
C2608 H2596 0.930 . S
C2608 C2609 1.399 . S
C2608 C2613 1.399 . S
C2609 C2608 1.399 . S
C2609 C2610 1.376 . S
C2610 H2597 0.930 . S
C2610 C2609 1.376 . S
C2610 C2611 1.388 . S
C2611 H2598 0.930 . S
C2611 C2610 1.388 . S
C2611 C2612 1.390 . S
C2612 C2611 1.390 . S
C2612 C2613 1.394 . S
C2612 C2618 1.465 . S
C2613 C2608 1.399 . S
C2613 C2612 1.394 . S
C2613 C2614 1.516 . S
C2614 C2613 1.516 . S
C2614 C2615 1.502 . S
C2614 C2616 1.561 . S
C2614 C2617 1.526 . S
C2615 H2599 0.959 . S
C2615 H2600 0.959 . S
C2615 H2601 0.961 . S
C2615 C2614 1.502 . S
C2616 H2602 0.960 . S
C2616 H2603 0.961 . S
C2616 H2604 0.959 . S
C2616 C2614 1.561 . S
C2617 C2614 1.526 . S
C2617 C2618 1.396 . S
C2617 C2622 1.390 . S
C2618 C2612 1.465 . S
C2618 C2617 1.396 . S
C2618 C2619 1.399 . S
C2619 H2605 0.929 . S
C2619 C2618 1.399 . S
C2619 C2620 1.385 . S
C2620 H2606 0.931 . S
C2620 C2619 1.385 . S
C2620 C2621 1.389 . S
C2621 C2620 1.389 . S
C2621 C2622 1.387 . S
C2622 H2607 0.930 . S
C2622 C2617 1.390 . S
C2622 C2621 1.387 . S
H2623 C2635 0.930 . S
H2624 C2637 0.930 . S
H2625 C2638 0.930 . S
H2626 C2642 0.959 . S
H2627 C2642 0.959 . S
H2628 C2642 0.961 . S
H2629 C2643 0.960 . S
H2630 C2643 0.961 . S
H2631 C2643 0.959 . S
H2632 C2646 0.929 . S
H2633 C2647 0.931 . S
H2634 C2649 0.930 . S
C2635 H2623 0.930 . S
C2635 C2636 1.399 . S
C2635 C2640 1.399 . S
C2636 C2635 1.399 . S
C2636 C2637 1.376 . S
C2637 H2624 0.930 . S
C2637 C2636 1.376 . S
C2637 C2638 1.388 . S
C2638 H2625 0.930 . S
C2638 C2637 1.388 . S
C2638 C2639 1.390 . S
C2639 C2638 1.390 . S
C2639 C2640 1.394 . S
C2639 C2645 1.465 . S
C2640 C2635 1.399 . S
C2640 C2639 1.394 . S
C2640 C2641 1.516 . S
C2641 C2640 1.516 . S
C2641 C2642 1.502 . S
C2641 C2643 1.561 . S
C2641 C2644 1.526 . S
C2642 H2626 0.959 . S
C2642 H2627 0.959 . S
C2642 H2628 0.961 . S
C2642 C2641 1.502 . S
C2643 H2629 0.960 . S
C2643 H2630 0.961 . S
C2643 H2631 0.959 . S
C2643 C2641 1.561 . S
C2644 C2641 1.526 . S
C2644 C2645 1.396 . S
C2644 C2649 1.390 . S
C2645 C2639 1.465 . S
C2645 C2644 1.396 . S
C2645 C2646 1.399 . S
C2646 H2632 0.929 . S
C2646 C2645 1.399 . S
C2646 C2647 1.385 . S
C2647 H2633 0.931 . S
C2647 C2646 1.385 . S
C2647 C2648 1.389 . S
C2648 C2647 1.389 . S
C2648 C2649 1.387 . S
C2649 H2634 0.930 . S
C2649 C2644 1.390 . S
C2649 C2648 1.387 . S
H2650 C2662 0.930 . S
H2651 C2664 0.930 . S
H2652 C2665 0.930 . S
H2653 C2669 0.959 . S
H2654 C2669 0.959 . S
H2655 C2669 0.961 . S
H2656 C2670 0.960 . S
H2657 C2670 0.961 . S
H2658 C2670 0.959 . S
H2659 C2673 0.929 . S
H2660 C2674 0.931 . S
H2661 C2676 0.930 . S
C2662 H2650 0.930 . S
C2662 C2663 1.399 . S
C2662 C2667 1.399 . S
C2663 C2662 1.399 . S
C2663 C2664 1.376 . S
C2664 H2651 0.930 . S
C2664 C2663 1.376 . S
C2664 C2665 1.388 . S
C2665 H2652 0.930 . S
C2665 C2664 1.388 . S
C2665 C2666 1.390 . S
C2666 C2665 1.390 . S
C2666 C2667 1.394 . S
C2666 C2672 1.465 . S
C2667 C2662 1.399 . S
C2667 C2666 1.394 . S
C2667 C2668 1.516 . S
C2668 C2667 1.516 . S
C2668 C2669 1.502 . S
C2668 C2670 1.561 . S
C2668 C2671 1.526 . S
C2669 H2653 0.959 . S
C2669 H2654 0.959 . S
C2669 H2655 0.961 . S
C2669 C2668 1.502 . S
C2670 H2656 0.960 . S
C2670 H2657 0.961 . S
C2670 H2658 0.959 . S
C2670 C2668 1.561 . S
C2671 C2668 1.526 . S
C2671 C2672 1.396 . S
C2671 C2676 1.390 . S
C2672 C2666 1.465 . S
C2672 C2671 1.396 . S
C2672 C2673 1.399 . S
C2673 H2659 0.929 . S
C2673 C2672 1.399 . S
C2673 C2674 1.385 . S
C2674 H2660 0.931 . S
C2674 C2673 1.385 . S
C2674 C2675 1.389 . S
C2675 C2674 1.389 . S
C2675 C2676 1.387 . S
C2676 H2661 0.930 . S
C2676 C2671 1.390 . S
C2676 C2675 1.387 . S
H2677 C2689 0.930 . S
H2678 C2691 0.930 . S
H2679 C2692 0.930 . S
H2680 C2696 0.959 . S
H2681 C2696 0.959 . S
H2682 C2696 0.961 . S
H2683 C2697 0.960 . S
H2684 C2697 0.961 . S
H2685 C2697 0.959 . S
H2686 C2700 0.929 . S
H2687 C2701 0.931 . S
H2688 C2703 0.930 . S
C2689 H2677 0.930 . S
C2689 C2690 1.399 . S
C2689 C2694 1.399 . S
C2690 C2689 1.399 . S
C2690 C2691 1.376 . S
C2691 H2678 0.930 . S
C2691 C2690 1.376 . S
C2691 C2692 1.388 . S
C2692 H2679 0.930 . S
C2692 C2691 1.388 . S
C2692 C2693 1.390 . S
C2693 C2692 1.390 . S
C2693 C2694 1.394 . S
C2693 C2699 1.465 . S
C2694 C2689 1.399 . S
C2694 C2693 1.394 . S
C2694 C2695 1.516 . S
C2695 C2694 1.516 . S
C2695 C2696 1.502 . S
C2695 C2697 1.561 . S
C2695 C2698 1.526 . S
C2696 H2680 0.959 . S
C2696 H2681 0.959 . S
C2696 H2682 0.961 . S
C2696 C2695 1.502 . S
C2697 H2683 0.960 . S
C2697 H2684 0.961 . S
C2697 H2685 0.959 . S
C2697 C2695 1.561 . S
C2698 C2695 1.526 . S
C2698 C2699 1.396 . S
C2698 C2703 1.390 . S
C2699 C2693 1.465 . S
C2699 C2698 1.396 . S
C2699 C2700 1.399 . S
C2700 H2686 0.929 . S
C2700 C2699 1.399 . S
C2700 C2701 1.385 . S
C2701 H2687 0.931 . S
C2701 C2700 1.385 . S
C2701 C2702 1.389 . S
C2702 C2701 1.389 . S
C2702 C2703 1.387 . S
C2703 H2688 0.930 . S
C2703 C2698 1.390 . S
C2703 C2702 1.387 . S
H2704 C2716 0.930 . S
H2705 C2718 0.930 . S
H2706 C2719 0.930 . S
H2707 C2723 0.959 . S
H2708 C2723 0.959 . S
H2709 C2723 0.961 . S
H2710 C2724 0.960 . S
H2711 C2724 0.961 . S
H2712 C2724 0.959 . S
H2713 C2727 0.929 . S
H2714 C2728 0.931 . S
H2715 C2730 0.930 . S
C2716 H2704 0.930 . S
C2716 C2717 1.399 . S
C2716 C2721 1.399 . S
C2717 C2716 1.399 . S
C2717 C2718 1.376 . S
C2718 H2705 0.930 . S
C2718 C2717 1.376 . S
C2718 C2719 1.388 . S
C2719 H2706 0.930 . S
C2719 C2718 1.388 . S
C2719 C2720 1.390 . S
C2720 C2719 1.390 . S
C2720 C2721 1.394 . S
C2720 C2726 1.465 . S
C2721 C2716 1.399 . S
C2721 C2720 1.394 . S
C2721 C2722 1.516 . S
C2722 C2721 1.516 . S
C2722 C2723 1.502 . S
C2722 C2724 1.561 . S
C2722 C2725 1.526 . S
C2723 H2707 0.959 . S
C2723 H2708 0.959 . S
C2723 H2709 0.961 . S
C2723 C2722 1.502 . S
C2724 H2710 0.960 . S
C2724 H2711 0.961 . S
C2724 H2712 0.959 . S
C2724 C2722 1.561 . S
C2725 C2722 1.526 . S
C2725 C2726 1.396 . S
C2725 C2730 1.390 . S
C2726 C2720 1.465 . S
C2726 C2725 1.396 . S
C2726 C2727 1.399 . S
C2727 H2713 0.929 . S
C2727 C2726 1.399 . S
C2727 C2728 1.385 . S
C2728 H2714 0.931 . S
C2728 C2727 1.385 . S
C2728 C2729 1.389 . S
C2729 C2728 1.389 . S
C2729 C2730 1.387 . S
C2730 H2715 0.930 . S
C2730 C2725 1.390 . S
C2730 C2729 1.387 . S
H2731 C2743 0.930 . S
H2732 C2745 0.930 . S
H2733 C2746 0.930 . S
H2734 C2750 0.959 . S
H2735 C2750 0.959 . S
H2736 C2750 0.961 . S
H2737 C2751 0.960 . S
H2738 C2751 0.961 . S
H2739 C2751 0.959 . S
H2740 C2754 0.929 . S
H2741 C2755 0.931 . S
H2742 C2757 0.930 . S
C2743 H2731 0.930 . S
C2743 C2744 1.399 . S
C2743 C2748 1.399 . S
C2744 C2743 1.399 . S
C2744 C2745 1.376 . S
C2745 H2732 0.930 . S
C2745 C2744 1.376 . S
C2745 C2746 1.388 . S
C2746 H2733 0.930 . S
C2746 C2745 1.388 . S
C2746 C2747 1.390 . S
C2747 C2746 1.390 . S
C2747 C2748 1.394 . S
C2747 C2753 1.465 . S
C2748 C2743 1.399 . S
C2748 C2747 1.394 . S
C2748 C2749 1.516 . S
C2749 C2748 1.516 . S
C2749 C2750 1.502 . S
C2749 C2751 1.561 . S
C2749 C2752 1.526 . S
C2750 H2734 0.959 . S
C2750 H2735 0.959 . S
C2750 H2736 0.961 . S
C2750 C2749 1.502 . S
C2751 H2737 0.960 . S
C2751 H2738 0.961 . S
C2751 H2739 0.959 . S
C2751 C2749 1.561 . S
C2752 C2749 1.526 . S
C2752 C2753 1.396 . S
C2752 C2757 1.390 . S
C2753 C2747 1.465 . S
C2753 C2752 1.396 . S
C2753 C2754 1.399 . S
C2754 H2740 0.929 . S
C2754 C2753 1.399 . S
C2754 C2755 1.385 . S
C2755 H2741 0.931 . S
C2755 C2754 1.385 . S
C2755 C2756 1.389 . S
C2756 C2755 1.389 . S
C2756 C2757 1.387 . S
C2757 H2742 0.930 . S
C2757 C2752 1.390 . S
C2757 C2756 1.387 . S
H2758 C2770 0.930 1_545 S
H2759 C2772 0.930 . S
H2760 C2773 0.930 . S
H2761 C2777 0.959 . S
H2762 C2777 0.959 . S
H2763 C2777 0.961 1_545 S
H2764 C2778 0.960 . S
H2765 C2778 0.961 . S
H2766 C2778 0.959 . S
H2767 C2781 0.929 . S
H2768 C2782 0.931 . S
H2769 C2784 0.930 . S
C2770 H2758 0.930 1_565 S
C2770 C2771 1.384 1_565 S
C2770 C2775 1.399 . S
C2771 C2770 1.384 1_545 S
C2771 C2772 1.367 1_545 S
C2772 H2759 0.930 . S
C2772 C2771 1.367 1_565 S
C2772 C2773 1.388 . S
C2773 H2760 0.930 . S
C2773 C2772 1.388 . S
C2773 C2774 1.390 . S
C2774 C2773 1.390 . S
C2774 C2775 1.394 . S
C2774 C2780 1.465 . S
C2775 C2770 1.399 . S
C2775 C2774 1.394 . S
C2775 C2776 1.516 . S
C2776 C2775 1.516 . S
C2776 C2777 1.502 . S
C2776 C2778 1.561 . S
C2776 C2779 1.526 . S
C2777 H2761 0.959 . S
C2777 H2762 0.959 . S
C2777 H2763 0.961 1_565 S
C2777 C2776 1.502 . S
C2778 H2764 0.960 . S
C2778 H2765 0.961 . S
C2778 H2766 0.959 . S
C2778 C2776 1.561 . S
C2779 C2776 1.526 . S
C2779 C2780 1.396 . S
C2779 C2784 1.390 . S
C2780 C2774 1.465 . S
C2780 C2779 1.396 . S
C2780 C2781 1.399 . S
C2781 H2767 0.929 . S
C2781 C2780 1.399 . S
C2781 C2782 1.385 . S
C2782 H2768 0.931 . S
C2782 C2781 1.385 . S
C2782 C2783 1.389 . S
C2783 C2782 1.389 . S
C2783 C2784 1.387 . S
C2784 H2769 0.930 . S
C2784 C2779 1.390 . S
C2784 C2783 1.387 . S
H2785 C2797 0.930 . S
H2786 C2799 0.930 . S
H2787 C2800 0.930 . S
H2788 C2804 0.959 . S
H2789 C2804 0.959 . S
H2790 C2804 0.961 . S
H2791 C2805 0.960 1_565 S
H2792 C2805 0.961 . S
H2793 C2805 0.959 . S
H2794 C2808 0.929 . S
H2795 C2809 0.931 . S
H2796 C2811 0.930 1_556 S
C2797 H2785 0.930 . S
C2797 C2798 1.399 1_556 S
C2797 C2802 1.402 . S
C2798 C2797 1.399 1_554 S
C2798 C2799 1.376 . S
C2799 H2786 0.930 . S
C2799 C2798 1.376 . S
C2799 C2800 1.388 . S
C2800 H2787 0.930 . S
C2800 C2799 1.388 . S
C2800 C2801 1.390 . S
C2801 C2800 1.390 . S
C2801 C2802 1.379 1_554 S
C2801 C2807 1.472 . S
C2802 C2797 1.402 . S
C2802 C2801 1.379 1_556 S
C2802 C2803 1.527 . S
C2803 C2802 1.527 . S
C2803 C2804 1.502 . S
C2803 C2805 1.561 1_565 S
C2803 C2806 1.526 1_556 S
C2804 H2788 0.959 . S
C2804 H2789 0.959 . S
C2804 H2790 0.961 . S
C2804 C2803 1.502 . S
C2805 H2791 0.960 1_545 S
C2805 H2792 0.961 . S
C2805 H2793 0.959 . S
C2805 C2803 1.561 1_545 S
C2806 C2803 1.526 1_554 S
C2806 C2807 1.398 . S
C2806 C2811 1.390 1_565 S
C2807 C2801 1.472 . S
C2807 C2806 1.398 . S
C2807 C2808 1.393 1_565 S
C2808 H2794 0.929 . S
C2808 C2807 1.393 1_545 S
C2808 C2809 1.385 . S
C2809 H2795 0.931 . S
C2809 C2808 1.385 . S
C2809 C2810 1.389 . S
C2810 C2809 1.389 . S
C2810 C2811 1.387 . S
C2811 H2796 0.930 1_554 S
C2811 C2806 1.390 1_545 S
C2811 C2810 1.387 . S
H2812 C2824 0.930 . S
H2813 C2826 0.930 . S
H2814 C2827 0.930 . S
H2815 C2831 0.959 . S
H2816 C2831 0.959 . S
H2817 C2831 0.961 . S
H2818 C2832 0.960 . S
H2819 C2832 0.961 . S
H2820 C2832 0.959 . S
H2821 C2835 0.929 . S
H2822 C2836 0.931 . S
H2823 C2838 0.930 . S
C2824 H2812 0.930 . S
C2824 C2825 1.399 . S
C2824 C2829 1.399 . S
C2825 C2824 1.399 . S
C2825 C2826 1.376 . S
C2826 H2813 0.930 . S
C2826 C2825 1.376 . S
C2826 C2827 1.388 . S
C2827 H2814 0.930 . S
C2827 C2826 1.388 . S
C2827 C2828 1.390 . S
C2828 C2827 1.390 . S
C2828 C2829 1.394 . S
C2828 C2834 1.465 . S
C2829 C2824 1.399 . S
C2829 C2828 1.394 . S
C2829 C2830 1.516 . S
C2830 C2829 1.516 . S
C2830 C2831 1.502 . S
C2830 C2832 1.561 . S
C2830 C2833 1.526 . S
C2831 H2815 0.959 . S
C2831 H2816 0.959 . S
C2831 H2817 0.961 . S
C2831 C2830 1.502 . S
C2832 H2818 0.960 . S
C2832 H2819 0.961 . S
C2832 H2820 0.959 . S
C2832 C2830 1.561 . S
C2833 C2830 1.526 . S
C2833 C2834 1.396 . S
C2833 C2838 1.390 . S
C2834 C2828 1.465 . S
C2834 C2833 1.396 . S
C2834 C2835 1.399 . S
C2835 H2821 0.929 . S
C2835 C2834 1.399 . S
C2835 C2836 1.385 . S
C2836 H2822 0.931 . S
C2836 C2835 1.385 . S
C2836 C2837 1.389 . S
C2837 C2836 1.389 . S
C2837 C2838 1.387 . S
C2838 H2823 0.930 . S
C2838 C2833 1.390 . S
C2838 C2837 1.387 . S
H2839 C2851 0.930 . S
H2840 C2853 0.930 . S
H2841 C2854 0.930 . S
H2842 C2858 0.959 . S
H2843 C2858 0.959 . S
H2844 C2858 0.961 . S
H2845 C2859 0.960 . S
H2846 C2859 0.961 . S
H2847 C2859 0.959 . S
H2848 C2862 0.929 . S
H2849 C2863 0.931 . S
H2850 C2865 0.930 . S
C2851 H2839 0.930 . S
C2851 C2852 1.399 . S
C2851 C2856 1.399 . S
C2852 C2851 1.399 . S
C2852 C2853 1.376 . S
C2853 H2840 0.930 . S
C2853 C2852 1.376 . S
C2853 C2854 1.388 . S
C2854 H2841 0.930 . S
C2854 C2853 1.388 . S
C2854 C2855 1.390 . S
C2855 C2854 1.390 . S
C2855 C2856 1.394 . S
C2855 C2861 1.465 . S
C2856 C2851 1.399 . S
C2856 C2855 1.394 . S
C2856 C2857 1.516 . S
C2857 C2856 1.516 . S
C2857 C2858 1.502 . S
C2857 C2859 1.561 1_554 S
C2857 C2860 1.526 . S
C2858 H2842 0.959 . S
C2858 H2843 0.959 . S
C2858 H2844 0.961 . S
C2858 C2857 1.502 . S
C2859 H2845 0.960 . S
C2859 H2846 0.961 . S
C2859 H2847 0.959 . S
C2859 C2857 1.561 1_556 S
C2860 C2857 1.526 . S
C2860 C2861 1.396 . S
C2860 C2865 1.390 . S
C2861 C2855 1.465 . S
C2861 C2860 1.396 . S
C2861 C2862 1.399 . S
C2862 H2848 0.929 . S
C2862 C2861 1.399 . S
C2862 C2863 1.385 . S
C2863 H2849 0.931 . S
C2863 C2862 1.385 . S
C2863 C2864 1.389 . S
C2864 C2863 1.389 . S
C2864 C2865 1.387 . S
C2865 H2850 0.930 . S
C2865 C2860 1.390 . S
C2865 C2864 1.387 . S
H2866 C2878 0.930 . S
H2867 C2880 0.930 . S
H2868 C2881 0.930 . S
H2869 C2885 0.959 . S
H2870 C2885 0.959 . S
H2871 C2885 0.961 . S
H2872 C2886 0.960 . S
H2873 C2886 0.961 . S
H2874 C2886 0.959 . S
H2875 C2889 0.929 . S
H2876 C2890 0.931 . S
H2877 C2892 0.930 . S
C2878 H2866 0.930 . S
C2878 C2879 1.399 . S
C2878 C2883 1.399 . S
C2879 C2878 1.399 . S
C2879 C2880 1.376 . S
C2880 H2867 0.930 . S
C2880 C2879 1.376 . S
C2880 C2881 1.388 . S
C2881 H2868 0.930 . S
C2881 C2880 1.388 . S
C2881 C2882 1.390 . S
C2882 C2881 1.390 . S
C2882 C2883 1.394 . S
C2882 C2888 1.465 . S
C2883 C2878 1.399 . S
C2883 C2882 1.394 . S
C2883 C2884 1.516 . S
C2884 C2883 1.516 . S
C2884 C2885 1.502 . S
C2884 C2886 1.561 . S
C2884 C2887 1.526 . S
C2885 H2869 0.959 . S
C2885 H2870 0.959 . S
C2885 H2871 0.961 . S
C2885 C2884 1.502 . S
C2886 H2872 0.960 . S
C2886 H2873 0.961 . S
C2886 H2874 0.959 . S
C2886 C2884 1.561 . S
C2887 C2884 1.526 . S
C2887 C2888 1.396 . S
C2887 C2892 1.390 . S
C2888 C2882 1.465 . S
C2888 C2887 1.396 . S
C2888 C2889 1.399 . S
C2889 H2875 0.929 . S
C2889 C2888 1.399 . S
C2889 C2890 1.385 . S
C2890 H2876 0.931 . S
C2890 C2889 1.385 . S
C2890 C2891 1.389 . S
C2891 C2890 1.389 . S
C2891 C2892 1.387 . S
C2892 H2877 0.930 . S
C2892 C2887 1.390 . S
C2892 C2891 1.387 . S
H2893 C2905 0.930 . S
H2894 C2907 0.930 . S
H2895 C2908 0.930 . S
H2896 C2912 0.959 . S
H2897 C2912 0.959 . S
H2898 C2912 0.961 . S
H2899 C2913 0.960 . S
H2900 C2913 0.961 . S
H2901 C2913 0.959 . S
H2902 C2916 0.929 . S
H2903 C2917 0.931 . S
H2904 C2919 0.930 . S
C2905 H2893 0.930 . S
C2905 C2906 1.399 . S
C2905 C2910 1.399 . S
C2906 C2905 1.399 . S
C2906 C2907 1.376 . S
C2907 H2894 0.930 . S
C2907 C2906 1.376 . S
C2907 C2908 1.388 . S
C2908 H2895 0.930 . S
C2908 C2907 1.388 . S
C2908 C2909 1.390 . S
C2909 C2908 1.390 . S
C2909 C2910 1.394 . S
C2909 C2915 1.465 . S
C2910 C2905 1.399 . S
C2910 C2909 1.394 . S
C2910 C2911 1.516 . S
C2911 C2910 1.516 . S
C2911 C2912 1.502 . S
C2911 C2913 1.561 . S
C2911 C2914 1.526 . S
C2912 H2896 0.959 . S
C2912 H2897 0.959 . S
C2912 H2898 0.961 . S
C2912 C2911 1.502 . S
C2913 H2899 0.960 . S
C2913 H2900 0.961 . S
C2913 H2901 0.959 . S
C2913 C2911 1.561 . S
C2914 C2911 1.526 . S
C2914 C2915 1.396 . S
C2914 C2919 1.390 . S
C2915 C2909 1.465 . S
C2915 C2914 1.396 . S
C2915 C2916 1.399 . S
C2916 H2902 0.929 . S
C2916 C2915 1.399 . S
C2916 C2917 1.385 . S
C2917 H2903 0.931 . S
C2917 C2916 1.385 . S
C2917 C2918 1.389 . S
C2918 C2917 1.389 . S
C2918 C2919 1.387 . S
C2919 H2904 0.930 . S
C2919 C2914 1.390 . S
C2919 C2918 1.387 . S
H2920 C2932 0.930 . S
H2921 C2934 0.930 . S
H2922 C2935 0.930 . S
H2923 C2939 0.959 . S
H2924 C2939 0.959 . S
H2925 C2939 0.961 . S
H2926 C2940 0.960 . S
H2927 C2940 0.961 . S
H2928 C2940 0.959 . S
H2929 C2943 0.929 . S
H2930 C2944 0.931 . S
H2931 C2946 0.930 . S
C2932 H2920 0.930 . S
C2932 C2933 1.399 . S
C2932 C2937 1.399 . S
C2933 C2932 1.399 . S
C2933 C2934 1.376 . S
C2934 H2921 0.930 . S
C2934 C2933 1.376 . S
C2934 C2935 1.388 . S
C2935 H2922 0.930 . S
C2935 C2934 1.388 . S
C2935 C2936 1.390 . S
C2936 C2935 1.390 . S
C2936 C2937 1.394 . S
C2936 C2942 1.465 . S
C2937 C2932 1.399 . S
C2937 C2936 1.394 . S
C2937 C2938 1.516 . S
C2938 C2937 1.516 . S
C2938 C2939 1.502 . S
C2938 C2940 1.561 . S
C2938 C2941 1.526 . S
C2939 H2923 0.959 . S
C2939 H2924 0.959 . S
C2939 H2925 0.961 . S
C2939 C2938 1.502 . S
C2940 H2926 0.960 . S
C2940 H2927 0.961 . S
C2940 H2928 0.959 . S
C2940 C2938 1.561 . S
C2941 C2938 1.526 . S
C2941 C2942 1.396 . S
C2941 C2946 1.390 . S
C2942 C2936 1.465 . S
C2942 C2941 1.396 . S
C2942 C2943 1.399 . S
C2943 H2929 0.929 . S
C2943 C2942 1.399 . S
C2943 C2944 1.385 . S
C2944 H2930 0.931 . S
C2944 C2943 1.385 . S
C2944 C2945 1.389 . S
C2945 C2944 1.389 . S
C2945 C2946 1.387 . S
C2946 H2931 0.930 . S
C2946 C2941 1.390 . S
C2946 C2945 1.387 . S
H2947 C2959 0.930 . S
H2948 C2961 0.930 . S
H2949 C2962 0.930 . S
H2950 C2966 0.959 . S
H2951 C2966 0.959 . S
H2952 C2966 0.961 . S
H2953 C2967 0.960 . S
H2954 C2967 0.961 . S
H2955 C2967 0.959 . S
H2956 C2970 0.929 . S
H2957 C2971 0.931 . S
H2958 C2973 0.930 . S
C2959 H2947 0.930 . S
C2959 C2960 1.399 . S
C2959 C2964 1.399 . S
C2960 C2959 1.399 . S
C2960 C2961 1.376 . S
C2961 H2948 0.930 . S
C2961 C2960 1.376 . S
C2961 C2962 1.388 . S
C2962 H2949 0.930 . S
C2962 C2961 1.388 . S
C2962 C2963 1.390 . S
C2963 C2962 1.390 . S
C2963 C2964 1.394 . S
C2963 C2969 1.465 . S
C2964 C2959 1.399 . S
C2964 C2963 1.394 . S
C2964 C2965 1.516 . S
C2965 C2964 1.516 . S
C2965 C2966 1.502 . S
C2965 C2967 1.561 . S
C2965 C2968 1.526 . S
C2966 H2950 0.959 . S
C2966 H2951 0.959 . S
C2966 H2952 0.961 . S
C2966 C2965 1.502 . S
C2967 H2953 0.960 . S
C2967 H2954 0.961 . S
C2967 H2955 0.959 . S
C2967 C2965 1.561 . S
C2968 C2965 1.526 . S
C2968 C2969 1.396 . S
C2968 C2973 1.390 . S
C2969 C2963 1.465 . S
C2969 C2968 1.396 . S
C2969 C2970 1.399 . S
C2970 H2956 0.929 . S
C2970 C2969 1.399 . S
C2970 C2971 1.385 . S
C2971 H2957 0.931 . S
C2971 C2970 1.385 . S
C2971 C2972 1.389 . S
C2972 C2971 1.389 . S
C2972 C2973 1.387 . S
C2973 H2958 0.930 . S
C2973 C2968 1.390 . S
C2973 C2972 1.387 . S
H2974 C2986 0.930 . S
H2975 C2988 0.930 . S
H2976 C2989 0.930 . S
H2977 C2993 0.959 . S
H2978 C2993 0.959 . S
H2979 C2993 0.961 . S
H2980 C2994 0.960 . S
H2981 C2994 0.961 1_556 S
H2982 C2994 0.959 . S
H2983 C2997 0.929 . S
H2984 C2998 0.931 . S
H2985 C3000 0.930 . S
C2986 H2974 0.930 . S
C2986 C2987 1.399 . S
C2986 C2991 1.399 . S
C2987 C2986 1.399 . S
C2987 C2988 1.376 . S
C2988 H2975 0.930 . S
C2988 C2987 1.376 . S
C2988 C2989 1.388 . S
C2989 H2976 0.930 . S
C2989 C2988 1.388 . S
C2989 C2990 1.390 . S
C2990 C2989 1.390 . S
C2990 C2991 1.394 . S
C2990 C2996 1.465 . S
C2991 C2986 1.399 . S
C2991 C2990 1.394 . S
C2991 C2992 1.516 . S
C2992 C2991 1.516 . S
C2992 C2993 1.502 1_455 S
C2992 C2994 1.561 . S
C2992 C2995 1.526 . S
C2993 H2977 0.959 . S
C2993 H2978 0.959 . S
C2993 H2979 0.961 . S
C2993 C2992 1.502 1_655 S
C2994 H2980 0.960 . S
C2994 H2981 0.961 1_554 S
C2994 H2982 0.959 . S
C2994 C2992 1.561 . S
C2995 C2992 1.526 . S
C2995 C2996 1.396 . S
C2995 C3000 1.390 . S
C2996 C2990 1.465 . S
C2996 C2995 1.396 . S
C2996 C2997 1.399 . S
C2997 H2983 0.929 . S
C2997 C2996 1.399 . S
C2997 C2998 1.385 . S
C2998 H2984 0.931 . S
C2998 C2997 1.385 . S
C2998 C2999 1.389 . S
C2999 C2998 1.389 . S
C2999 C3000 1.387 . S
C3000 H2985 0.930 . S
C3000 C2995 1.390 . S
C3000 C2999 1.387 . S
H3001 C3013 0.930 . S
H3002 C3015 0.930 . S
H3003 C3016 0.930 . S
H3004 C3020 0.959 . S
H3005 C3020 0.959 . S
H3006 C3020 0.961 . S
H3007 C3021 0.960 . S
H3008 C3021 0.961 . S
H3009 C3021 0.959 . S
H3010 C3024 0.929 . S
H3011 C3025 0.931 . S
H3012 C3027 0.930 . S
C3013 H3001 0.930 . S
C3013 C3014 1.399 . S
C3013 C3018 1.399 . S
C3014 C3013 1.399 . S
C3014 C3015 1.376 . S
C3015 H3002 0.930 . S
C3015 C3014 1.376 . S
C3015 C3016 1.388 . S
C3016 H3003 0.930 . S
C3016 C3015 1.388 . S
C3016 C3017 1.390 . S
C3017 C3016 1.390 . S
C3017 C3018 1.394 . S
C3017 C3023 1.465 . S
C3018 C3013 1.399 . S
C3018 C3017 1.394 . S
C3018 C3019 1.516 . S
C3019 C3018 1.516 . S
C3019 C3020 1.502 . S
C3019 C3021 1.561 . S
C3019 C3022 1.526 . S
C3020 H3004 0.959 . S
C3020 H3005 0.959 . S
C3020 H3006 0.961 . S
C3020 C3019 1.502 . S
C3021 H3007 0.960 . S
C3021 H3008 0.961 . S
C3021 H3009 0.959 . S
C3021 C3019 1.561 . S
C3022 C3019 1.526 . S
C3022 C3023 1.396 . S
C3022 C3027 1.390 . S
C3023 C3017 1.465 . S
C3023 C3022 1.396 . S
C3023 C3024 1.399 . S
C3024 H3010 0.929 . S
C3024 C3023 1.399 . S
C3024 C3025 1.385 . S
C3025 H3011 0.931 . S
C3025 C3024 1.385 . S
C3025 C3026 1.389 . S
C3026 C3025 1.389 . S
C3026 C3027 1.387 . S
C3027 H3012 0.930 . S
C3027 C3022 1.390 . S
C3027 C3026 1.387 . S
H3028 C3040 0.930 . S
H3029 C3042 0.930 . S
H3030 C3043 0.930 . S
H3031 C3047 0.959 . S
H3032 C3047 0.959 . S
H3033 C3047 0.961 . S
H3034 C3048 0.960 . S
H3035 C3048 0.961 . S
H3036 C3048 0.959 . S
H3037 C3051 0.929 . S
H3038 C3052 0.931 . S
H3039 C3054 0.930 . S
C3040 H3028 0.930 . S
C3040 C3041 1.399 . S
C3040 C3045 1.399 . S
C3041 C3040 1.399 . S
C3041 C3042 1.376 . S
C3042 H3029 0.930 . S
C3042 C3041 1.376 . S
C3042 C3043 1.388 . S
C3043 H3030 0.930 . S
C3043 C3042 1.388 . S
C3043 C3044 1.390 . S
C3044 C3043 1.390 . S
C3044 C3045 1.394 . S
C3044 C3050 1.465 . S
C3045 C3040 1.399 . S
C3045 C3044 1.394 . S
C3045 C3046 1.516 . S
C3046 C3045 1.516 . S
C3046 C3047 1.502 . S
C3046 C3048 1.561 . S
C3046 C3049 1.526 . S
C3047 H3031 0.959 . S
C3047 H3032 0.959 . S
C3047 H3033 0.961 . S
C3047 C3046 1.502 . S
C3048 H3034 0.960 . S
C3048 H3035 0.961 . S
C3048 H3036 0.959 . S
C3048 C3046 1.561 . S
C3049 C3046 1.526 . S
C3049 C3050 1.396 . S
C3049 C3054 1.390 . S
C3050 C3044 1.465 . S
C3050 C3049 1.396 . S
C3050 C3051 1.399 . S
C3051 H3037 0.929 . S
C3051 C3050 1.399 . S
C3051 C3052 1.385 . S
C3052 H3038 0.931 . S
C3052 C3051 1.385 . S
C3052 C3053 1.389 . S
C3053 C3052 1.389 . S
C3053 C3054 1.387 . S
C3054 H3039 0.930 . S
C3054 C3049 1.390 . S
C3054 C3053 1.387 . S
H3055 C3067 0.930 . S
H3056 C3069 0.930 . S
H3057 C3070 0.930 . S
H3058 C3074 0.959 . S
H3059 C3074 0.959 . S
H3060 C3074 0.961 . S
H3061 C3075 0.960 . S
H3062 C3075 0.961 . S
H3063 C3075 0.959 . S
H3064 C3078 0.929 . S
H3065 C3079 0.931 . S
H3066 C3081 0.930 . S
C3067 H3055 0.930 . S
C3067 C3068 1.399 . S
C3067 C3072 1.399 . S
C3068 C3067 1.399 . S
C3068 C3069 1.376 . S
C3069 H3056 0.930 . S
C3069 C3068 1.376 . S
C3069 C3070 1.388 . S
C3070 H3057 0.930 . S
C3070 C3069 1.388 . S
C3070 C3071 1.390 . S
C3071 C3070 1.390 . S
C3071 C3072 1.394 . S
C3071 C3077 1.465 . S
C3072 C3067 1.399 . S
C3072 C3071 1.394 . S
C3072 C3073 1.516 . S
C3073 C3072 1.516 . S
C3073 C3074 1.502 . S
C3073 C3075 1.561 . S
C3073 C3076 1.526 . S
C3074 H3058 0.959 . S
C3074 H3059 0.959 . S
C3074 H3060 0.961 . S
C3074 C3073 1.502 . S
C3075 H3061 0.960 . S
C3075 H3062 0.961 . S
C3075 H3063 0.959 . S
C3075 C3073 1.561 . S
C3076 C3073 1.526 . S
C3076 C3077 1.396 . S
C3076 C3081 1.390 . S
C3077 C3071 1.465 . S
C3077 C3076 1.396 . S
C3077 C3078 1.399 . S
C3078 H3064 0.929 . S
C3078 C3077 1.399 . S
C3078 C3079 1.385 . S
C3079 H3065 0.931 . S
C3079 C3078 1.385 . S
C3079 C3080 1.389 . S
C3080 C3079 1.389 . S
C3080 C3081 1.387 . S
C3081 H3066 0.930 . S
C3081 C3076 1.390 . S
C3081 C3080 1.387 . S
H3082 C3094 0.930 . S
H3083 C3096 0.930 . S
H3084 C3097 0.930 . S
H3085 C3101 0.959 . S
H3086 C3101 0.959 . S
H3087 C3101 0.961 . S
H3088 C3102 0.960 . S
H3089 C3102 0.961 . S
H3090 C3102 0.959 . S
H3091 C3105 0.929 . S
H3092 C3106 0.931 . S
H3093 C3108 0.930 . S
C3094 H3082 0.930 . S
C3094 C3095 1.399 . S
C3094 C3099 1.399 . S
C3095 C3094 1.399 . S
C3095 C3096 1.376 . S
C3096 H3083 0.930 . S
C3096 C3095 1.376 . S
C3096 C3097 1.388 . S
C3097 H3084 0.930 . S
C3097 C3096 1.388 . S
C3097 C3098 1.390 . S
C3098 C3097 1.390 . S
C3098 C3099 1.394 . S
C3098 C3104 1.465 . S
C3099 C3094 1.399 . S
C3099 C3098 1.394 . S
C3099 C3100 1.516 . S
C3100 C3099 1.516 . S
C3100 C3101 1.502 . S
C3100 C3102 1.561 . S
C3100 C3103 1.526 . S
C3101 H3085 0.959 . S
C3101 H3086 0.959 . S
C3101 H3087 0.961 . S
C3101 C3100 1.502 . S
C3102 H3088 0.960 . S
C3102 H3089 0.961 . S
C3102 H3090 0.959 . S
C3102 C3100 1.561 . S
C3103 C3100 1.526 . S
C3103 C3104 1.396 . S
C3103 C3108 1.390 . S
C3104 C3098 1.465 . S
C3104 C3103 1.396 . S
C3104 C3105 1.399 . S
C3105 H3091 0.929 . S
C3105 C3104 1.399 . S
C3105 C3106 1.385 . S
C3106 H3092 0.931 . S
C3106 C3105 1.385 . S
C3106 C3107 1.389 . S
C3107 C3106 1.389 . S
C3107 C3108 1.387 . S
C3108 H3093 0.930 . S
C3108 C3103 1.390 . S
C3108 C3107 1.387 . S
H3109 C3121 0.930 . S
H3110 C3123 0.930 . S
H3111 C3124 0.930 . S
H3112 C3128 0.959 . S
H3113 C3128 0.959 . S
H3114 C3128 0.961 . S
H3115 C3129 0.960 . S
H3116 C3129 0.961 . S
H3117 C3129 0.959 . S
H3118 C3132 0.929 . S
H3119 C3133 0.931 . S
H3120 C3135 0.930 . S
C3121 H3109 0.930 . S
C3121 C3122 1.399 . S
C3121 C3126 1.399 . S
C3122 C3121 1.399 . S
C3122 C3123 1.376 . S
C3123 H3110 0.930 . S
C3123 C3122 1.376 . S
C3123 C3124 1.388 . S
C3124 H3111 0.930 . S
C3124 C3123 1.388 . S
C3124 C3125 1.390 . S
C3125 C3124 1.390 . S
C3125 C3126 1.394 . S
C3125 C3131 1.465 . S
C3126 C3121 1.399 . S
C3126 C3125 1.394 . S
C3126 C3127 1.516 . S
C3127 C3126 1.516 . S
C3127 C3128 1.502 . S
C3127 C3129 1.561 . S
C3127 C3130 1.526 . S
C3128 H3112 0.959 . S
C3128 H3113 0.959 . S
C3128 H3114 0.961 . S
C3128 C3127 1.502 . S
C3129 H3115 0.960 . S
C3129 H3116 0.961 . S
C3129 H3117 0.959 . S
C3129 C3127 1.561 . S
C3130 C3127 1.526 . S
C3130 C3131 1.396 . S
C3130 C3135 1.390 . S
C3131 C3125 1.465 . S
C3131 C3130 1.396 . S
C3131 C3132 1.399 . S
C3132 H3118 0.929 . S
C3132 C3131 1.399 . S
C3132 C3133 1.385 . S
C3133 H3119 0.931 . S
C3133 C3132 1.385 . S
C3133 C3134 1.389 . S
C3134 C3133 1.389 . S
C3134 C3135 1.387 . S
C3135 H3120 0.930 . S
C3135 C3130 1.390 . S
C3135 C3134 1.387 . S
H3136 C3148 0.930 . S
H3137 C3150 0.930 . S
H3138 C3151 0.930 . S
H3139 C3155 0.959 . S
H3140 C3155 0.959 . S
H3141 C3155 0.961 . S
H3142 C3156 0.960 . S
H3143 C3156 0.961 . S
H3144 C3156 0.959 . S
H3145 C3159 0.929 . S
H3146 C3160 0.931 . S
H3147 C3162 0.930 . S
C3148 H3136 0.930 . S
C3148 C3149 1.399 . S
C3148 C3153 1.399 . S
C3149 C3148 1.399 . S
C3149 C3150 1.376 . S
C3150 H3137 0.930 . S
C3150 C3149 1.376 . S
C3150 C3151 1.388 . S
C3151 H3138 0.930 . S
C3151 C3150 1.388 . S
C3151 C3152 1.390 . S
C3152 C3151 1.390 . S
C3152 C3153 1.394 . S
C3152 C3158 1.465 . S
C3153 C3148 1.399 . S
C3153 C3152 1.394 . S
C3153 C3154 1.516 . S
C3154 C3153 1.516 . S
C3154 C3155 1.502 . S
C3154 C3156 1.561 . S
C3154 C3157 1.526 . S
C3155 H3139 0.959 . S
C3155 H3140 0.959 . S
C3155 H3141 0.961 . S
C3155 C3154 1.502 . S
C3156 H3142 0.960 . S
C3156 H3143 0.961 . S
C3156 H3144 0.959 . S
C3156 C3154 1.561 . S
C3157 C3154 1.526 . S
C3157 C3158 1.396 . S
C3157 C3162 1.390 . S
C3158 C3152 1.465 . S
C3158 C3157 1.396 . S
C3158 C3159 1.399 . S
C3159 H3145 0.929 . S
C3159 C3158 1.399 . S
C3159 C3160 1.385 . S
C3160 H3146 0.931 . S
C3160 C3159 1.385 . S
C3160 C3161 1.389 . S
C3161 C3160 1.389 . S
C3161 C3162 1.387 . S
C3162 H3147 0.930 . S
C3162 C3157 1.390 . S
C3162 C3161 1.387 . S
H3163 C3175 0.930 . S
H3164 C3177 0.930 . S
H3165 C3178 0.930 . S
H3166 C3182 0.959 . S
H3167 C3182 0.959 . S
H3168 C3182 0.961 . S
H3169 C3183 0.960 . S
H3170 C3183 0.961 . S
H3171 C3183 0.959 . S
H3172 C3186 0.929 . S
H3173 C3187 0.931 . S
H3174 C3189 0.930 . S
C3175 H3163 0.930 . S
C3175 C3176 1.399 . S
C3175 C3180 1.399 . S
C3176 C3175 1.399 . S
C3176 C3177 1.376 . S
C3177 H3164 0.930 . S
C3177 C3176 1.376 . S
C3177 C3178 1.388 . S
C3178 H3165 0.930 . S
C3178 C3177 1.388 . S
C3178 C3179 1.390 . S
C3179 C3178 1.390 . S
C3179 C3180 1.394 . S
C3179 C3185 1.465 . S
C3180 C3175 1.399 . S
C3180 C3179 1.394 . S
C3180 C3181 1.516 . S
C3181 C3180 1.516 . S
C3181 C3182 1.502 . S
C3181 C3183 1.561 . S
C3181 C3184 1.526 . S
C3182 H3166 0.959 . S
C3182 H3167 0.959 . S
C3182 H3168 0.961 . S
C3182 C3181 1.502 . S
C3183 H3169 0.960 . S
C3183 H3170 0.961 . S
C3183 H3171 0.959 . S
C3183 C3181 1.561 . S
C3184 C3181 1.526 . S
C3184 C3185 1.396 . S
C3184 C3189 1.390 . S
C3185 C3179 1.465 . S
C3185 C3184 1.396 . S
C3185 C3186 1.399 . S
C3186 H3172 0.929 . S
C3186 C3185 1.399 . S
C3186 C3187 1.385 . S
C3187 H3173 0.931 . S
C3187 C3186 1.385 . S
C3187 C3188 1.389 . S
C3188 C3187 1.389 . S
C3188 C3189 1.387 . S
C3189 H3174 0.930 . S
C3189 C3184 1.390 . S
C3189 C3188 1.387 . S
H3190 C3202 0.930 . S
H3191 C3204 0.930 . S
H3192 C3205 0.930 . S
H3193 C3209 0.959 . S
H3194 C3209 0.959 . S
H3195 C3209 0.961 . S
H3196 C3210 0.960 . S
H3197 C3210 0.961 . S
H3198 C3210 0.959 . S
H3199 C3213 0.929 . S
H3200 C3214 0.931 . S
H3201 C3216 0.930 1_455 S
C3202 H3190 0.930 . S
C3202 C3203 1.399 . S
C3202 C3207 1.399 . S
C3203 C3202 1.399 . S
C3203 C3204 1.376 . S
C3204 H3191 0.930 . S
C3204 C3203 1.376 . S
C3204 C3205 1.388 . S
C3205 H3192 0.930 . S
C3205 C3204 1.388 . S
C3205 C3206 1.390 . S
C3206 C3205 1.390 . S
C3206 C3207 1.394 . S
C3206 C3212 1.465 . S
C3207 C3202 1.399 . S
C3207 C3206 1.394 . S
C3207 C3208 1.516 . S
C3208 C3207 1.516 . S
C3208 C3209 1.502 . S
C3208 C3210 1.561 . S
C3208 C3211 1.526 . S
C3209 H3193 0.959 . S
C3209 H3194 0.959 . S
C3209 H3195 0.961 . S
C3209 C3208 1.502 . S
C3210 H3196 0.960 . S
C3210 H3197 0.961 . S
C3210 H3198 0.959 . S
C3210 C3208 1.561 . S
C3211 C3208 1.526 . S
C3211 C3212 1.396 . S
C3211 C3216 1.390 . S
C3212 C3206 1.465 . S
C3212 C3211 1.396 . S
C3212 C3213 1.399 . S
C3213 H3199 0.929 . S
C3213 C3212 1.399 . S
C3213 C3214 1.385 . S
C3214 H3200 0.931 . S
C3214 C3213 1.385 . S
C3214 C3215 1.389 . S
C3215 C3214 1.389 . S
C3215 C3216 1.387 . S
C3216 H3201 0.930 1_655 S
C3216 C3211 1.390 . S
C3216 C3215 1.387 . S
H3217 C3229 0.930 . S
H3218 C3231 0.930 . S
H3219 C3232 0.930 . S
H3220 C3236 0.959 . S
H3221 C3236 0.959 . S
H3222 C3236 0.961 . S
H3223 C3237 0.960 . S
H3224 C3237 0.961 . S
H3225 C3237 0.959 . S
H3226 C3240 0.929 . S
H3227 C3241 0.931 . S
H3228 C3243 0.930 . S
C3229 H3217 0.930 . S
C3229 C3230 1.399 . S
C3229 C3234 1.399 . S
C3230 C3229 1.399 . S
C3230 C3231 1.376 . S
C3231 H3218 0.930 . S
C3231 C3230 1.376 . S
C3231 C3232 1.388 . S
C3232 H3219 0.930 . S
C3232 C3231 1.388 . S
C3232 C3233 1.390 . S
C3233 C3232 1.390 . S
C3233 C3234 1.394 . S
C3233 C3239 1.465 . S
C3234 C3229 1.399 . S
C3234 C3233 1.394 . S
C3234 C3235 1.516 . S
C3235 C3234 1.516 . S
C3235 C3236 1.502 . S
C3235 C3237 1.561 . S
C3235 C3238 1.526 . S
C3236 H3220 0.959 . S
C3236 H3221 0.959 . S
C3236 H3222 0.961 . S
C3236 C3235 1.502 . S
C3237 H3223 0.960 . S
C3237 H3224 0.961 . S
C3237 H3225 0.959 . S
C3237 C3235 1.561 . S
C3238 C3235 1.526 . S
C3238 C3239 1.396 . S
C3238 C3243 1.390 . S
C3239 C3233 1.465 . S
C3239 C3238 1.396 . S
C3239 C3240 1.399 . S
C3240 H3226 0.929 . S
C3240 C3239 1.399 . S
C3240 C3241 1.385 . S
C3241 H3227 0.931 . S
C3241 C3240 1.385 . S
C3241 C3242 1.389 . S
C3242 C3241 1.389 . S
C3242 C3243 1.387 . S
C3243 H3228 0.930 . S
C3243 C3238 1.390 . S
C3243 C3242 1.387 . S
H3244 C3256 0.930 . S
H3245 C3258 0.930 . S
H3246 C3259 0.930 . S
H3247 C3263 0.959 . S
H3248 C3263 0.959 . S
H3249 C3263 0.961 . S
H3250 C3264 0.960 . S
H3251 C3264 0.961 . S
H3252 C3264 0.959 . S
H3253 C3267 0.929 . S
H3254 C3268 0.931 . S
H3255 C3270 0.930 . S
C3256 H3244 0.930 . S
C3256 C3257 1.399 . S
C3256 C3261 1.399 . S
C3257 C3256 1.399 . S
C3257 C3258 1.376 . S
C3258 H3245 0.930 . S
C3258 C3257 1.376 . S
C3258 C3259 1.388 . S
C3259 H3246 0.930 . S
C3259 C3258 1.388 . S
C3259 C3260 1.390 . S
C3260 C3259 1.390 . S
C3260 C3261 1.394 . S
C3260 C3266 1.465 . S
C3261 C3256 1.399 . S
C3261 C3260 1.394 . S
C3261 C3262 1.516 . S
C3262 C3261 1.516 . S
C3262 C3263 1.502 . S
C3262 C3264 1.561 . S
C3262 C3265 1.526 . S
C3263 H3247 0.959 . S
C3263 H3248 0.959 . S
C3263 H3249 0.961 . S
C3263 C3262 1.502 . S
C3264 H3250 0.960 . S
C3264 H3251 0.961 . S
C3264 H3252 0.959 . S
C3264 C3262 1.561 . S
C3265 C3262 1.526 . S
C3265 C3266 1.396 . S
C3265 C3270 1.390 . S
C3266 C3260 1.465 . S
C3266 C3265 1.396 . S
C3266 C3267 1.399 . S
C3267 H3253 0.929 . S
C3267 C3266 1.399 . S
C3267 C3268 1.385 . S
C3268 H3254 0.931 . S
C3268 C3267 1.385 . S
C3268 C3269 1.389 . S
C3269 C3268 1.389 . S
C3269 C3270 1.387 . S
C3270 H3255 0.930 . S
C3270 C3265 1.390 . S
C3270 C3269 1.387 . S
H3271 C3283 0.930 . S
H3272 C3285 0.930 . S
H3273 C3286 0.930 . S
H3274 C3290 0.959 . S
H3275 C3290 0.959 . S
H3276 C3290 0.961 . S
H3277 C3291 0.960 . S
H3278 C3291 0.961 . S
H3279 C3291 0.959 . S
H3280 C3294 0.929 . S
H3281 C3295 0.931 . S
H3282 C3297 0.930 . S
C3283 H3271 0.930 . S
C3283 C3284 1.399 . S
C3283 C3288 1.399 . S
C3284 C3283 1.399 . S
C3284 C3285 1.376 . S
C3285 H3272 0.930 . S
C3285 C3284 1.376 . S
C3285 C3286 1.388 . S
C3286 H3273 0.930 . S
C3286 C3285 1.388 . S
C3286 C3287 1.390 . S
C3287 C3286 1.390 . S
C3287 C3288 1.394 . S
C3287 C3293 1.465 . S
C3288 C3283 1.399 . S
C3288 C3287 1.394 . S
C3288 C3289 1.516 . S
C3289 C3288 1.516 . S
C3289 C3290 1.502 . S
C3289 C3291 1.561 . S
C3289 C3292 1.526 . S
C3290 H3274 0.959 . S
C3290 H3275 0.959 . S
C3290 H3276 0.961 . S
C3290 C3289 1.502 . S
C3291 H3277 0.960 . S
C3291 H3278 0.961 . S
C3291 H3279 0.959 . S
C3291 C3289 1.561 . S
C3292 C3289 1.526 . S
C3292 C3293 1.396 . S
C3292 C3297 1.390 . S
C3293 C3287 1.465 . S
C3293 C3292 1.396 . S
C3293 C3294 1.399 . S
C3294 H3280 0.929 . S
C3294 C3293 1.399 . S
C3294 C3295 1.385 . S
C3295 H3281 0.931 . S
C3295 C3294 1.385 . S
C3295 C3296 1.389 . S
C3296 C3295 1.389 . S
C3296 C3297 1.387 . S
C3297 H3282 0.930 . S
C3297 C3292 1.390 . S
C3297 C3296 1.387 . S
H3298 C3310 0.930 . S
H3299 C3312 0.930 . S
H3300 C3313 0.930 . S
H3301 C3317 0.959 . S
H3302 C3317 0.959 . S
H3303 C3317 0.961 . S
H3304 C3318 0.960 . S
H3305 C3318 0.961 . S
H3306 C3318 0.959 . S
H3307 C3321 0.929 . S
H3308 C3322 0.931 . S
H3309 C3324 0.930 . S
C3310 H3298 0.930 . S
C3310 C3311 1.399 . S
C3310 C3315 1.399 . S
C3311 C3310 1.399 . S
C3311 C3312 1.376 . S
C3312 H3299 0.930 . S
C3312 C3311 1.376 . S
C3312 C3313 1.388 . S
C3313 H3300 0.930 . S
C3313 C3312 1.388 . S
C3313 C3314 1.390 . S
C3314 C3313 1.390 . S
C3314 C3315 1.394 . S
C3314 C3320 1.465 . S
C3315 C3310 1.399 . S
C3315 C3314 1.394 . S
C3315 C3316 1.516 . S
C3316 C3315 1.516 . S
C3316 C3317 1.502 . S
C3316 C3318 1.561 . S
C3316 C3319 1.526 . S
C3317 H3301 0.959 . S
C3317 H3302 0.959 . S
C3317 H3303 0.961 . S
C3317 C3316 1.502 . S
C3318 H3304 0.960 . S
C3318 H3305 0.961 . S
C3318 H3306 0.959 . S
C3318 C3316 1.561 . S
C3319 C3316 1.526 . S
C3319 C3320 1.396 . S
C3319 C3324 1.390 . S
C3320 C3314 1.465 . S
C3320 C3319 1.396 . S
C3320 C3321 1.399 . S
C3321 H3307 0.929 . S
C3321 C3320 1.399 . S
C3321 C3322 1.385 . S
C3322 H3308 0.931 . S
C3322 C3321 1.385 . S
C3322 C3323 1.389 . S
C3323 C3322 1.389 . S
C3323 C3324 1.387 . S
C3324 H3309 0.930 . S
C3324 C3319 1.390 . S
C3324 C3323 1.387 . S
H3325 C3337 0.930 . S
H3326 C3339 0.930 . S
H3327 C3340 0.930 . S
H3328 C3344 0.959 . S
H3329 C3344 0.959 . S
H3330 C3344 0.961 . S
H3331 C3345 0.960 . S
H3332 C3345 0.961 . S
H3333 C3345 0.959 . S
H3334 C3348 0.929 . S
H3335 C3349 0.931 . S
H3336 C3351 0.930 . S
C3337 H3325 0.930 . S
C3337 C3338 1.399 . S
C3337 C3342 1.399 . S
C3338 C3337 1.399 . S
C3338 C3339 1.376 . S
C3339 H3326 0.930 . S
C3339 C3338 1.376 . S
C3339 C3340 1.388 . S
C3340 H3327 0.930 . S
C3340 C3339 1.388 . S
C3340 C3341 1.390 . S
C3341 C3340 1.390 . S
C3341 C3342 1.394 . S
C3341 C3347 1.465 . S
C3342 C3337 1.399 . S
C3342 C3341 1.394 . S
C3342 C3343 1.516 . S
C3343 C3342 1.516 . S
C3343 C3344 1.502 . S
C3343 C3345 1.561 . S
C3343 C3346 1.526 . S
C3344 H3328 0.959 . S
C3344 H3329 0.959 . S
C3344 H3330 0.961 . S
C3344 C3343 1.502 . S
C3345 H3331 0.960 . S
C3345 H3332 0.961 . S
C3345 H3333 0.959 . S
C3345 C3343 1.561 . S
C3346 C3343 1.526 . S
C3346 C3347 1.396 . S
C3346 C3351 1.390 . S
C3347 C3341 1.465 . S
C3347 C3346 1.396 . S
C3347 C3348 1.399 . S
C3348 H3334 0.929 . S
C3348 C3347 1.399 . S
C3348 C3349 1.385 . S
C3349 H3335 0.931 . S
C3349 C3348 1.385 . S
C3349 C3350 1.389 . S
C3350 C3349 1.389 . S
C3350 C3351 1.387 . S
C3351 H3336 0.930 . S
C3351 C3346 1.390 . S
C3351 C3350 1.387 . S
H3352 C3364 0.930 . S
H3353 C3366 0.930 . S
H3354 C3367 0.930 . S
H3355 C3371 0.959 . S
H3356 C3371 0.959 . S
H3357 C3371 0.961 . S
H3358 C3372 0.960 . S
H3359 C3372 0.961 . S
H3360 C3372 0.959 . S
H3361 C3375 0.929 . S
H3362 C3376 0.931 . S
H3363 C3378 0.930 . S
C3364 H3352 0.930 . S
C3364 C3365 1.399 . S
C3364 C3369 1.399 . S
C3365 C3364 1.399 . S
C3365 C3366 1.376 . S
C3366 H3353 0.930 . S
C3366 C3365 1.376 . S
C3366 C3367 1.388 . S
C3367 H3354 0.930 . S
C3367 C3366 1.388 . S
C3367 C3368 1.390 . S
C3368 C3367 1.390 . S
C3368 C3369 1.394 . S
C3368 C3374 1.465 . S
C3369 C3364 1.399 . S
C3369 C3368 1.394 . S
C3369 C3370 1.516 . S
C3370 C3369 1.516 . S
C3370 C3371 1.502 . S
C3370 C3372 1.561 . S
C3370 C3373 1.526 . S
C3371 H3355 0.959 . S
C3371 H3356 0.959 . S
C3371 H3357 0.961 . S
C3371 C3370 1.502 . S
C3372 H3358 0.960 . S
C3372 H3359 0.961 . S
C3372 H3360 0.959 . S
C3372 C3370 1.561 . S
C3373 C3370 1.526 . S
C3373 C3374 1.396 . S
C3373 C3378 1.390 . S
C3374 C3368 1.465 . S
C3374 C3373 1.396 . S
C3374 C3375 1.399 . S
C3375 H3361 0.929 . S
C3375 C3374 1.399 . S
C3375 C3376 1.385 . S
C3376 H3362 0.931 . S
C3376 C3375 1.385 . S
C3376 C3377 1.389 . S
C3377 C3376 1.389 . S
C3377 C3378 1.387 . S
C3378 H3363 0.930 . S
C3378 C3373 1.390 . S
C3378 C3377 1.387 . S
H3379 C3391 0.930 . S
H3380 C3393 0.930 . S
H3381 C3394 0.930 . S
H3382 C3398 0.959 . S
H3383 C3398 0.959 . S
H3384 C3398 0.961 . S
H3385 C3399 0.960 . S
H3386 C3399 0.961 . S
H3387 C3399 0.959 . S
H3388 C3402 0.929 1_545 S
H3389 C3403 0.931 . S
H3390 C3405 0.930 . S
C3391 H3379 0.930 . S
C3391 C3392 1.399 . S
C3391 C3396 1.399 . S
C3392 C3391 1.399 . S
C3392 C3393 1.376 . S
C3393 H3380 0.930 . S
C3393 C3392 1.376 . S
C3393 C3394 1.388 . S
C3394 H3381 0.930 . S
C3394 C3393 1.388 . S
C3394 C3395 1.390 . S
C3395 C3394 1.390 . S
C3395 C3396 1.394 . S
C3395 C3401 1.465 . S
C3396 C3391 1.399 . S
C3396 C3395 1.394 . S
C3396 C3397 1.516 . S
C3397 C3396 1.516 . S
C3397 C3398 1.502 . S
C3397 C3399 1.561 . S
C3397 C3400 1.526 . S
C3398 H3382 0.959 . S
C3398 H3383 0.959 . S
C3398 H3384 0.961 . S
C3398 C3397 1.502 . S
C3399 H3385 0.960 . S
C3399 H3386 0.961 . S
C3399 H3387 0.959 . S
C3399 C3397 1.561 . S
C3400 C3397 1.526 . S
C3400 C3401 1.396 . S
C3400 C3405 1.390 . S
C3401 C3395 1.465 . S
C3401 C3400 1.396 . S
C3401 C3402 1.399 . S
C3402 H3388 0.929 1_565 S
C3402 C3401 1.399 . S
C3402 C3403 1.385 1_565 S
C3403 H3389 0.931 . S
C3403 C3402 1.385 1_545 S
C3403 C3404 1.389 . S
C3404 C3403 1.389 . S
C3404 C3405 1.387 1_545 S
C3405 H3390 0.930 . S
C3405 C3400 1.390 . S
C3405 C3404 1.387 1_565 S
H3406 C3418 0.930 . S
H3407 C3420 0.930 . S
H3408 C3421 0.930 . S
H3409 C3425 0.959 . S
H3410 C3425 0.959 . S
H3411 C3425 0.961 . S
H3412 C3426 0.960 . S
H3413 C3426 0.961 . S
H3414 C3426 0.959 . S
H3415 C3429 0.929 . S
H3416 C3430 0.931 . S
H3417 C3432 0.930 . S
C3418 H3406 0.930 . S
C3418 C3419 1.399 . S
C3418 C3423 1.399 . S
C3419 C3418 1.399 . S
C3419 C3420 1.376 . S
C3420 H3407 0.930 . S
C3420 C3419 1.376 . S
C3420 C3421 1.388 . S
C3421 H3408 0.930 . S
C3421 C3420 1.388 . S
C3421 C3422 1.390 . S
C3422 C3421 1.390 . S
C3422 C3423 1.394 . S
C3422 C3428 1.465 . S
C3423 C3418 1.399 . S
C3423 C3422 1.394 . S
C3423 C3424 1.516 . S
C3424 C3423 1.516 . S
C3424 C3425 1.502 . S
C3424 C3426 1.561 . S
C3424 C3427 1.526 . S
C3425 H3409 0.959 . S
C3425 H3410 0.959 . S
C3425 H3411 0.961 . S
C3425 C3424 1.502 . S
C3426 H3412 0.960 . S
C3426 H3413 0.961 . S
C3426 H3414 0.959 . S
C3426 C3424 1.561 . S
C3427 C3424 1.526 . S
C3427 C3428 1.396 . S
C3427 C3432 1.390 . S
C3428 C3422 1.465 . S
C3428 C3427 1.396 . S
C3428 C3429 1.399 . S
C3429 H3415 0.929 . S
C3429 C3428 1.399 . S
C3429 C3430 1.385 . S
C3430 H3416 0.931 . S
C3430 C3429 1.385 . S
C3430 C3431 1.389 . S
C3431 C3430 1.389 . S
C3431 C3432 1.387 . S
C3432 H3417 0.930 . S
C3432 C3427 1.390 . S
C3432 C3431 1.387 . S
H3433 C3445 0.930 . S
H3434 C3447 0.930 . S
H3435 C3448 0.930 . S
H3436 C3452 0.959 . S
H3437 C3452 0.959 . S
H3438 C3452 0.961 . S
H3439 C3453 0.960 . S
H3440 C3453 0.961 . S
H3441 C3453 0.959 . S
H3442 C3456 0.929 . S
H3443 C3457 0.931 . S
H3444 C3459 0.930 . S
C3445 H3433 0.930 . S
C3445 C3446 1.399 . S
C3445 C3450 1.399 . S
C3446 C3445 1.399 . S
C3446 C3447 1.376 . S
C3447 H3434 0.930 . S
C3447 C3446 1.376 . S
C3447 C3448 1.388 . S
C3448 H3435 0.930 . S
C3448 C3447 1.388 . S
C3448 C3449 1.390 . S
C3449 C3448 1.390 . S
C3449 C3450 1.394 . S
C3449 C3455 1.465 . S
C3450 C3445 1.399 . S
C3450 C3449 1.394 . S
C3450 C3451 1.516 . S
C3451 C3450 1.516 . S
C3451 C3452 1.502 . S
C3451 C3453 1.561 1_554 S
C3451 C3454 1.526 . S
C3452 H3436 0.959 . S
C3452 H3437 0.959 . S
C3452 H3438 0.961 . S
C3452 C3451 1.502 . S
C3453 H3439 0.960 . S
C3453 H3440 0.961 . S
C3453 H3441 0.959 . S
C3453 C3451 1.561 1_556 S
C3454 C3451 1.526 . S
C3454 C3455 1.396 . S
C3454 C3459 1.390 . S
C3455 C3449 1.465 . S
C3455 C3454 1.396 . S
C3455 C3456 1.399 . S
C3456 H3442 0.929 . S
C3456 C3455 1.399 . S
C3456 C3457 1.385 . S
C3457 H3443 0.931 . S
C3457 C3456 1.385 . S
C3457 C3458 1.389 . S
C3458 C3457 1.389 . S
C3458 C3459 1.387 . S
C3459 H3444 0.930 . S
C3459 C3454 1.390 . S
C3459 C3458 1.387 . S
H3460 C3472 0.930 . S
H3461 C3474 0.930 . S
H3462 C3475 0.930 . S
H3463 C3479 0.959 . S
H3464 C3479 0.959 . S
H3465 C3479 0.961 . S
H3466 C3480 0.960 . S
H3467 C3480 0.961 . S
H3468 C3480 0.959 . S
H3469 C3483 0.929 . S
H3470 C3484 0.931 . S
H3471 C3486 0.930 . S
C3472 H3460 0.930 . S
C3472 C3473 1.399 . S
C3472 C3477 1.399 . S
C3473 C3472 1.399 . S
C3473 C3474 1.376 . S
C3474 H3461 0.930 . S
C3474 C3473 1.376 . S
C3474 C3475 1.388 . S
C3475 H3462 0.930 . S
C3475 C3474 1.388 . S
C3475 C3476 1.390 . S
C3476 C3475 1.390 . S
C3476 C3477 1.394 . S
C3476 C3482 1.465 . S
C3477 C3472 1.399 . S
C3477 C3476 1.394 . S
C3477 C3478 1.516 . S
C3478 C3477 1.516 . S
C3478 C3479 1.502 . S
C3478 C3480 1.561 . S
C3478 C3481 1.526 . S
C3479 H3463 0.959 . S
C3479 H3464 0.959 . S
C3479 H3465 0.961 . S
C3479 C3478 1.502 . S
C3480 H3466 0.960 . S
C3480 H3467 0.961 . S
C3480 H3468 0.959 . S
C3480 C3478 1.561 . S
C3481 C3478 1.526 . S
C3481 C3482 1.396 . S
C3481 C3486 1.390 . S
C3482 C3476 1.465 . S
C3482 C3481 1.396 . S
C3482 C3483 1.399 . S
C3483 H3469 0.929 . S
C3483 C3482 1.399 . S
C3483 C3484 1.385 . S
C3484 H3470 0.931 . S
C3484 C3483 1.385 . S
C3484 C3485 1.389 . S
C3485 C3484 1.389 . S
C3485 C3486 1.387 . S
C3486 H3471 0.930 . S
C3486 C3481 1.390 . S
C3486 C3485 1.387 . S
H3487 C3499 0.930 . S
H3488 C3501 0.930 . S
H3489 C3502 0.930 . S
H3490 C3506 0.959 . S
H3491 C3506 0.959 . S
H3492 C3506 0.961 . S
H3493 C3507 0.960 . S
H3494 C3507 0.961 . S
H3495 C3507 0.959 . S
H3496 C3510 0.929 . S
H3497 C3511 0.931 . S
H3498 C3513 0.930 . S
C3499 H3487 0.930 . S
C3499 C3500 1.399 . S
C3499 C3504 1.399 . S
C3500 C3499 1.399 . S
C3500 C3501 1.376 1_554 S
C3501 H3488 0.930 . S
C3501 C3500 1.376 1_556 S
C3501 C3502 1.388 . S
C3502 H3489 0.930 . S
C3502 C3501 1.388 . S
C3502 C3503 1.367 1_556 S
C3503 C3502 1.367 1_554 S
C3503 C3504 1.438 . S
C3503 C3509 1.453 1_554 S
C3504 C3499 1.399 . S
C3504 C3503 1.438 . S
C3504 C3505 1.516 . S
C3505 C3504 1.516 . S
C3505 C3506 1.502 . S
C3505 C3507 1.561 . S
C3505 C3508 1.526 . S
C3506 H3490 0.959 . S
C3506 H3491 0.959 . S
C3506 H3492 0.961 . S
C3506 C3505 1.502 . S
C3507 H3493 0.960 . S
C3507 H3494 0.961 . S
C3507 H3495 0.959 . S
C3507 C3505 1.561 . S
C3508 C3505 1.526 . S
C3508 C3509 1.396 1_554 S
C3508 C3513 1.390 . S
C3509 C3503 1.453 1_556 S
C3509 C3508 1.396 1_556 S
C3509 C3510 1.399 . S
C3510 H3496 0.929 . S
C3510 C3509 1.399 . S
C3510 C3511 1.385 . S
C3511 H3497 0.931 . S
C3511 C3510 1.385 . S
C3511 C3512 1.389 . S
C3512 C3511 1.389 . S
C3512 C3513 1.387 1_556 S
C3513 H3498 0.930 . S
C3513 C3508 1.390 . S
C3513 C3512 1.387 1_554 S
H3514 C3526 0.930 . S
H3515 C3528 0.930 . S
H3516 C3529 0.930 . S
H3517 C3533 0.959 . S
H3518 C3533 0.959 . S
H3519 C3533 0.961 . S
H3520 C3534 0.960 . S
H3521 C3534 0.961 . S
H3522 C3534 0.959 . S
H3523 C3537 0.929 . S
H3524 C3538 0.931 . S
H3525 C3540 0.930 . S
C3526 H3514 0.930 . S
C3526 C3527 1.399 . S
C3526 C3531 1.399 . S
C3527 C3526 1.399 . S
C3527 C3528 1.376 . S
C3528 H3515 0.930 . S
C3528 C3527 1.376 . S
C3528 C3529 1.388 . S
C3529 H3516 0.930 . S
C3529 C3528 1.388 . S
C3529 C3530 1.390 . S
C3530 C3529 1.390 . S
C3530 C3531 1.394 . S
C3530 C3536 1.465 . S
C3531 C3526 1.399 . S
C3531 C3530 1.394 . S
C3531 C3532 1.516 . S
C3532 C3531 1.516 . S
C3532 C3533 1.502 . S
C3532 C3534 1.561 . S
C3532 C3535 1.526 . S
C3533 H3517 0.959 . S
C3533 H3518 0.959 . S
C3533 H3519 0.961 . S
C3533 C3532 1.502 . S
C3534 H3520 0.960 . S
C3534 H3521 0.961 . S
C3534 H3522 0.959 . S
C3534 C3532 1.561 . S
C3535 C3532 1.526 . S
C3535 C3536 1.396 . S
C3535 C3540 1.390 . S
C3536 C3530 1.465 . S
C3536 C3535 1.396 . S
C3536 C3537 1.399 . S
C3537 H3523 0.929 . S
C3537 C3536 1.399 . S
C3537 C3538 1.385 . S
C3538 H3524 0.931 . S
C3538 C3537 1.385 . S
C3538 C3539 1.389 . S
C3539 C3538 1.389 . S
C3539 C3540 1.387 . S
C3540 H3525 0.930 . S
C3540 C3535 1.390 . S
C3540 C3539 1.387 . S
H3541 C3553 0.930 . S
H3542 C3555 0.930 . S
H3543 C3556 0.930 . S
H3544 C3560 0.959 . S
H3545 C3560 0.959 . S
H3546 C3560 0.961 . S
H3547 C3561 0.960 . S
H3548 C3561 0.961 . S
H3549 C3561 0.959 . S
H3550 C3564 0.929 . S
H3551 C3565 0.931 . S
H3552 C3567 0.930 . S
C3553 H3541 0.930 . S
C3553 C3554 1.399 . S
C3553 C3558 1.399 . S
C3554 C3553 1.399 . S
C3554 C3555 1.376 . S
C3555 H3542 0.930 . S
C3555 C3554 1.376 . S
C3555 C3556 1.388 . S
C3556 H3543 0.930 . S
C3556 C3555 1.388 . S
C3556 C3557 1.390 . S
C3557 C3556 1.390 . S
C3557 C3558 1.394 . S
C3557 C3563 1.465 . S
C3558 C3553 1.399 . S
C3558 C3557 1.394 . S
C3558 C3559 1.516 . S
C3559 C3558 1.516 . S
C3559 C3560 1.502 . S
C3559 C3561 1.561 . S
C3559 C3562 1.526 . S
C3560 H3544 0.959 . S
C3560 H3545 0.959 . S
C3560 H3546 0.961 . S
C3560 C3559 1.502 . S
C3561 H3547 0.960 . S
C3561 H3548 0.961 . S
C3561 H3549 0.959 . S
C3561 C3559 1.561 . S
C3562 C3559 1.526 . S
C3562 C3563 1.396 . S
C3562 C3567 1.390 . S
C3563 C3557 1.465 . S
C3563 C3562 1.396 . S
C3563 C3564 1.399 . S
C3564 H3550 0.929 . S
C3564 C3563 1.399 . S
C3564 C3565 1.385 . S
C3565 H3551 0.931 . S
C3565 C3564 1.385 . S
C3565 C3566 1.389 . S
C3566 C3565 1.389 . S
C3566 C3567 1.387 . S
C3567 H3552 0.930 . S
C3567 C3562 1.390 . S
C3567 C3566 1.387 . S
C989 C109 2.125 . S
C1001 C349 2.090 . S
C1016 C61 1.750 . S
C1028 C400 2.021 . S
C1043 C74 1.557 . S
C1055 C429 1.624 . S
C1082 C473 1.473 . S
C1070 C96 1.478 . S
C1097 C25 1.248 . S
C1109 C513 1.229 . S
C1136 C549 1.605 . S
C1124 C40 1.573 . S
C1163 C599 1.897 . S
C1151 C46 1.892 . S
C1178 C5 1.837 . S
C1190 C629 2.302 . S
C1217 C359 1.849 . S
C1205 C229 1.525 . S
C1232 C249 0.540 . S
C1244 C402 0.646 . S
C1271 C439 1.124 . S
C1259 C271 0.873 . S
C1298 C469 1.516 . S
C1286 C172 1.508 . S
C1313 C236 1.408 . S
C1325 C509 1.399 . S
C1352 C559 1.037 . S
C1340 C242 1.018 . S
C1379 C593 0.681 . S
C1367 C278 0.748 . S
C1406 C639 1.934 . S
C1394 C179 1.978 . S
C1433 C353 1.065 . S
C1421 C159 0.801 1_556 S
C1448 C285 1.389 . S
C1460 C679 1.574 . S
C1487 C713 1.241 . S
C1475 C333 1.308 . S
C1514 C749 0.755 . S
C1502 C320 0.784 . S
C1529 C123 1.360 . S
C1541 C633 1.331 . S
C1556 C138 1.517 . S
C1568 C433 1.498 . S
C1583 C326 1.663 . S
C1595 C799 1.690 . S
C1622 C818 0.337 . S
C1610 C298 0.442 . S
C1649 C360 2.062 . S
C1637 C67 1.978 . S
C1676 C829 1.945 . S
C1664 C110 1.934 . S
C1691 C88 1.547 . S
C1703 C440 1.586 . S
C1718 C75 1.173 . S
C1730 C802 1.302 . S
C1757 C522 1.199 . S
C1745 C11 1.271 . S
C1772 C47 1.412 . S
C1784 C720 1.553 . S
C1811 C578 1.757 1_556 S
C1799 C32 1.642 . S
C1838 C880 2.298 . S
C1826 C26 2.316 . S
C1865 C338 1.912 . S
C1853 C152 1.921 . S
C1892 C833 0.603 . S
C1880 C319 0.580 . S
C1907 C124 1.087 . S
C1919 C418 1.051 . S
C1934 C284 1.529 . S
C1946 C800 1.519 . S
C1961 C145 1.246 . S
C1973 C520 1.330 . S
C2000 C698 0.863 . S
C1988 C312 0.828 . S
C2015 C117 0.782 1_565 S
C2027 C602 0.727 . S
C2042 C291 1.862 . S
C2054 C858 1.821 . S
C2069 C194 1.235 . S
C2081 C362 1.090 . S
C2096 C180 1.558 . S
C2108 C658 1.543 . S
C2123 C263 1.269 . S
C2135 C562 1.176 . S
C2150 C243 0.626 . S
C2162 C760 0.755 . S
C2189 C882 1.287 . S
C2177 C277 1.377 . S
C2204 C215 1.269 . S
C2216 C442 1.474 . S
C2243 C458 1.557 . S
C2231 C256 1.506 . S
C2270 C399 0.217 . S
C2258 C200 0.437 . S
C2285 C81 2.131 . S
C2297 C909 2.123 . S
C2324 C840 1.995 . S
C2312 C89 1.794 . S
C2339 C102 1.551 . S
C2351 C949 1.623 . S
C2366 C68 1.499 . S
C2378 C793 1.425 . S
C2393 C53 1.271 . S
C2405 C673 1.210 . S
C2432 C709 1.613 . S
C2420 C12 1.580 . S
C2459 C759 1.885 . S
C2447 C18 1.868 . S
C2486 C869 2.306 . S
C2474 C33 1.849 . S
C2513 C919 1.850 . S
C2501 C257 1.535 . S
C2528 C193 0.569 . S
C2540 C842 0.486 . S
C2567 C959 1.124 . S
C2555 C201 0.870 . S
C2594 C789 1.532 . S
C2582 C214 1.501 . S
C2621 C669 1.389 . S
C2609 C264 1.363 . S
C2636 C186 1.018 . S
C2648 C719 1.036 . S
C2675 C753 0.703 . S
C2663 C208 0.746 . S
C2690 C221 1.976 . S
C2702 C879 1.926 . S
C2729 C913 1.052 . S
C2717 C313 0.824 . S
C2744 C131 1.328 . S
C2756 C519 1.575 . S
C2783 C553 1.302 . S
C2771 C151 1.364 . S
C2810 C589 0.815 . S
C2798 C166 0.789 . S
C2837 C873 1.343 . S
C2825 C305 1.360 . S
C2852 C292 1.539 . S
C2864 C953 1.481 . S
C2891 C479 1.688 . S
C2879 C144 1.658 . S
C2918 C378 0.344 . S
C2906 C116 0.452 . S
C2933 C95 2.037 . S
C2945 C920 2.082 . S
C2972 C389 1.945 . S
C2960 C82 1.933 . S
C2987 C60 1.585 . S
C2999 C960 1.568 . S
C3014 C103 1.193 . S
C3026 C482 1.381 . S
C3041 C39 1.200 . S
C3053 C682 1.262 . S
C3080 C560 1.565 . S
C3068 C19 1.368 . S
C3095 C4 1.621 . S
C3107 C738 1.752 . S
C3122 C54 2.290 . S
C3134 C640 2.309 . S
C3161 C898 1.889 . S
C3149 C334 1.928 . S
C3176 C165 0.534 . S
C3188 C393 0.637 . S
C3215 C938 1.047 1_655 S
C3203 C306 1.088 . S
C3230 C130 1.527 . S
C3242 C480 1.518 . S
C3257 C327 1.217 . S
C3269 C680 1.340 . S
C3296 C538 0.872 . S
C3284 C158 0.857 . S
C3311 C299 0.732 . S
C3323 C762 0.729 . S
C3350 C618 1.822 . S
C3338 C137 1.860 . S
C3377 C922 1.197 . S
C3365 C250 1.145 . S
C3404 C498 1.530 . S
C3392 C222 1.551 . S
C3419 C235 1.254 . S
C3431 C722 1.185 . S
C3458 C600 0.734 . S
C3446 C187 0.761 . S
C3473 C207 1.286 . S
C3485 C642 1.339 . S
C3500 C173 1.376 . S
C3512 C962 1.490 . S
C3539 C778 1.557 . S
C3527 C228 1.503 . S
C3566 C839 0.386 . S
C3554 C270 0.258 . S
