# Generated by pormake.
# Topology gar, (4,6)-cn, num edge types: 1
# Building blocks:
#     Node 0, Type 0, BuildingBlock: TATPOV_clean_sbu_0, # of connection points: 4
#     Node 1, Type 0, BuildingBlock: TATPOV_clean_sbu_0, # of connection points: 4
#     Node 2, Type 0, BuildingBlock: TATPOV_clean_sbu_0, # of connection points: 4
#     Node 3, Type 0, BuildingBlock: TATPOV_clean_sbu_0, # of connection points: 4
#     Node 4, Type 0, BuildingBlock: TATPOV_clean_sbu_0, # of connection points: 4
#     Node 5, Type 0, BuildingBlock: TATPOV_clean_sbu_0, # of connection points: 4
#     Node 6, Type 0, BuildingBlock: TATPOV_clean_sbu_0, # of connection points: 4
#     Node 7, Type 0, BuildingBlock: TATPOV_clean_sbu_0, # of connection points: 4
#     Node 8, Type 0, BuildingBlock: TATPOV_clean_sbu_0, # of connection points: 4
#     Node 9, Type 0, BuildingBlock: TATPOV_clean_sbu_0, # of connection points: 4
#     Node 10, Type 0, BuildingBlock: TATPOV_clean_sbu_0, # of connection points: 4
#     Node 11, Type 0, BuildingBlock: TATPOV_clean_sbu_0, # of connection points: 4
#     Node 12, Type 0, BuildingBlock: TATPOV_clean_sbu_0, # of connection points: 4
#     Node 13, Type 0, BuildingBlock: TATPOV_clean_sbu_0, # of connection points: 4
#     Node 14, Type 0, BuildingBlock: TATPOV_clean_sbu_0, # of connection points: 4
#     Node 15, Type 0, BuildingBlock: TATPOV_clean_sbu_0, # of connection points: 4
#     Node 16, Type 0, BuildingBlock: TATPOV_clean_sbu_0, # of connection points: 4
#     Node 17, Type 0, BuildingBlock: TATPOV_clean_sbu_0, # of connection points: 4
#     Node 18, Type 0, BuildingBlock: TATPOV_clean_sbu_0, # of connection points: 4
#     Node 19, Type 0, BuildingBlock: TATPOV_clean_sbu_0, # of connection points: 4
#     Node 20, Type 0, BuildingBlock: TATPOV_clean_sbu_0, # of connection points: 4
#     Node 21, Type 0, BuildingBlock: TATPOV_clean_sbu_0, # of connection points: 4
#     Node 22, Type 0, BuildingBlock: TATPOV_clean_sbu_0, # of connection points: 4
#     Node 23, Type 0, BuildingBlock: TATPOV_clean_sbu_0, # of connection points: 4
#     Node 24, Type 1, BuildingBlock: BETDEL_clean_sbu_0, # of connection points: 6
#     Node 25, Type 1, BuildingBlock: BETDEL_clean_sbu_0, # of connection points: 6
#     Node 26, Type 1, BuildingBlock: BETDEL_clean_sbu_0, # of connection points: 6
#     Node 27, Type 1, BuildingBlock: BETDEL_clean_sbu_0, # of connection points: 6
#     Node 28, Type 1, BuildingBlock: BETDEL_clean_sbu_0, # of connection points: 6
#     Node 29, Type 1, BuildingBlock: BETDEL_clean_sbu_0, # of connection points: 6
#     Node 30, Type 1, BuildingBlock: BETDEL_clean_sbu_0, # of connection points: 6
#     Node 31, Type 1, BuildingBlock: BETDEL_clean_sbu_0, # of connection points: 6
#     Node 32, Type 1, BuildingBlock: BETDEL_clean_sbu_0, # of connection points: 6
#     Node 33, Type 1, BuildingBlock: BETDEL_clean_sbu_0, # of connection points: 6
#     Node 34, Type 1, BuildingBlock: BETDEL_clean_sbu_0, # of connection points: 6
#     Node 35, Type 1, BuildingBlock: BETDEL_clean_sbu_0, # of connection points: 6
#     Node 36, Type 1, BuildingBlock: BETDEL_clean_sbu_0, # of connection points: 6
#     Node 37, Type 1, BuildingBlock: BETDEL_clean_sbu_0, # of connection points: 6
#     Node 38, Type 1, BuildingBlock: BETDEL_clean_sbu_0, # of connection points: 6
#     Node 39, Type 1, BuildingBlock: BETDEL_clean_sbu_0, # of connection points: 6
#     Edge 40, Type (0, 1), BuildingBlock: OJICUG_clean_linker_0, # of connection points: 2
#     Edge 41, Type (0, 1), BuildingBlock: OJICUG_clean_linker_0, # of connection points: 2
#     Edge 42, Type (0, 1), BuildingBlock: OJICUG_clean_linker_0, # of connection points: 2
#     Edge 43, Type (0, 1), BuildingBlock: OJICUG_clean_linker_0, # of connection points: 2
#     Edge 44, Type (0, 1), BuildingBlock: OJICUG_clean_linker_0, # of connection points: 2
#     Edge 45, Type (0, 1), BuildingBlock: OJICUG_clean_linker_0, # of connection points: 2
#     Edge 46, Type (0, 1), BuildingBlock: OJICUG_clean_linker_0, # of connection points: 2
#     Edge 47, Type (0, 1), BuildingBlock: OJICUG_clean_linker_0, # of connection points: 2
#     Edge 48, Type (0, 1), BuildingBlock: OJICUG_clean_linker_0, # of connection points: 2
#     Edge 49, Type (0, 1), BuildingBlock: OJICUG_clean_linker_0, # of connection points: 2
#     Edge 50, Type (0, 1), BuildingBlock: OJICUG_clean_linker_0, # of connection points: 2
#     Edge 51, Type (0, 1), BuildingBlock: OJICUG_clean_linker_0, # of connection points: 2
#     Edge 52, Type (0, 1), BuildingBlock: OJICUG_clean_linker_0, # of connection points: 2
#     Edge 53, Type (0, 1), BuildingBlock: OJICUG_clean_linker_0, # of connection points: 2
#     Edge 54, Type (0, 1), BuildingBlock: OJICUG_clean_linker_0, # of connection points: 2
#     Edge 55, Type (0, 1), BuildingBlock: OJICUG_clean_linker_0, # of connection points: 2
#     Edge 56, Type (0, 1), BuildingBlock: OJICUG_clean_linker_0, # of connection points: 2
#     Edge 57, Type (0, 1), BuildingBlock: OJICUG_clean_linker_0, # of connection points: 2
#     Edge 58, Type (0, 1), BuildingBlock: OJICUG_clean_linker_0, # of connection points: 2
#     Edge 59, Type (0, 1), BuildingBlock: OJICUG_clean_linker_0, # of connection points: 2
#     Edge 60, Type (0, 1), BuildingBlock: OJICUG_clean_linker_0, # of connection points: 2
#     Edge 61, Type (0, 1), BuildingBlock: OJICUG_clean_linker_0, # of connection points: 2
#     Edge 62, Type (0, 1), BuildingBlock: OJICUG_clean_linker_0, # of connection points: 2
#     Edge 63, Type (0, 1), BuildingBlock: OJICUG_clean_linker_0, # of connection points: 2
#     Edge 64, Type (0, 1), BuildingBlock: OJICUG_clean_linker_0, # of connection points: 2
#     Edge 65, Type (0, 1), BuildingBlock: OJICUG_clean_linker_0, # of connection points: 2
#     Edge 66, Type (0, 1), BuildingBlock: OJICUG_clean_linker_0, # of connection points: 2
#     Edge 67, Type (0, 1), BuildingBlock: OJICUG_clean_linker_0, # of connection points: 2
#     Edge 68, Type (0, 1), BuildingBlock: OJICUG_clean_linker_0, # of connection points: 2
#     Edge 69, Type (0, 1), BuildingBlock: OJICUG_clean_linker_0, # of connection points: 2
#     Edge 70, Type (0, 1), BuildingBlock: OJICUG_clean_linker_0, # of connection points: 2
#     Edge 71, Type (0, 1), BuildingBlock: OJICUG_clean_linker_0, # of connection points: 2
#     Edge 72, Type (0, 1), BuildingBlock: OJICUG_clean_linker_0, # of connection points: 2
#     Edge 73, Type (0, 1), BuildingBlock: OJICUG_clean_linker_0, # of connection points: 2
#     Edge 74, Type (0, 1), BuildingBlock: OJICUG_clean_linker_0, # of connection points: 2
#     Edge 75, Type (0, 1), BuildingBlock: OJICUG_clean_linker_0, # of connection points: 2
#     Edge 76, Type (0, 1), BuildingBlock: OJICUG_clean_linker_0, # of connection points: 2
#     Edge 77, Type (0, 1), BuildingBlock: OJICUG_clean_linker_0, # of connection points: 2
#     Edge 78, Type (0, 1), BuildingBlock: OJICUG_clean_linker_0, # of connection points: 2
#     Edge 79, Type (0, 1), BuildingBlock: OJICUG_clean_linker_0, # of connection points: 2
#     Edge 80, Type (0, 1), BuildingBlock: OJICUG_clean_linker_0, # of connection points: 2
#     Edge 81, Type (0, 1), BuildingBlock: OJICUG_clean_linker_0, # of connection points: 2
#     Edge 82, Type (0, 1), BuildingBlock: OJICUG_clean_linker_0, # of connection points: 2
#     Edge 83, Type (0, 1), BuildingBlock: OJICUG_clean_linker_0, # of connection points: 2
#     Edge 84, Type (0, 1), BuildingBlock: OJICUG_clean_linker_0, # of connection points: 2
#     Edge 85, Type (0, 1), BuildingBlock: OJICUG_clean_linker_0, # of connection points: 2
#     Edge 86, Type (0, 1), BuildingBlock: OJICUG_clean_linker_0, # of connection points: 2
#     Edge 87, Type (0, 1), BuildingBlock: OJICUG_clean_linker_0, # of connection points: 2
#     Edge 88, Type (0, 1), BuildingBlock: OJICUG_clean_linker_0, # of connection points: 2
#     Edge 89, Type (0, 1), BuildingBlock: OJICUG_clean_linker_0, # of connection points: 2
#     Edge 90, Type (0, 1), BuildingBlock: OJICUG_clean_linker_0, # of connection points: 2
#     Edge 91, Type (0, 1), BuildingBlock: OJICUG_clean_linker_0, # of connection points: 2
#     Edge 92, Type (0, 1), BuildingBlock: OJICUG_clean_linker_0, # of connection points: 2
#     Edge 93, Type (0, 1), BuildingBlock: OJICUG_clean_linker_0, # of connection points: 2
#     Edge 94, Type (0, 1), BuildingBlock: OJICUG_clean_linker_0, # of connection points: 2
#     Edge 95, Type (0, 1), BuildingBlock: OJICUG_clean_linker_0, # of connection points: 2
#     Edge 96, Type (0, 1), BuildingBlock: OJICUG_clean_linker_0, # of connection points: 2
#     Edge 97, Type (0, 1), BuildingBlock: OJICUG_clean_linker_0, # of connection points: 2
#     Edge 98, Type (0, 1), BuildingBlock: OJICUG_clean_linker_0, # of connection points: 2
#     Edge 99, Type (0, 1), BuildingBlock: OJICUG_clean_linker_0, # of connection points: 2
#     Edge 100, Type (0, 1), BuildingBlock: OJICUG_clean_linker_0, # of connection points: 2
#     Edge 101, Type (0, 1), BuildingBlock: OJICUG_clean_linker_0, # of connection points: 2
#     Edge 102, Type (0, 1), BuildingBlock: OJICUG_clean_linker_0, # of connection points: 2
#     Edge 103, Type (0, 1), BuildingBlock: OJICUG_clean_linker_0, # of connection points: 2
#     Edge 104, Type (0, 1), BuildingBlock: OJICUG_clean_linker_0, # of connection points: 2
#     Edge 105, Type (0, 1), BuildingBlock: OJICUG_clean_linker_0, # of connection points: 2
#     Edge 106, Type (0, 1), BuildingBlock: OJICUG_clean_linker_0, # of connection points: 2
#     Edge 107, Type (0, 1), BuildingBlock: OJICUG_clean_linker_0, # of connection points: 2
#     Edge 108, Type (0, 1), BuildingBlock: OJICUG_clean_linker_0, # of connection points: 2
#     Edge 109, Type (0, 1), BuildingBlock: OJICUG_clean_linker_0, # of connection points: 2
#     Edge 110, Type (0, 1), BuildingBlock: OJICUG_clean_linker_0, # of connection points: 2
#     Edge 111, Type (0, 1), BuildingBlock: OJICUG_clean_linker_0, # of connection points: 2
#     Edge 112, Type (0, 1), BuildingBlock: OJICUG_clean_linker_0, # of connection points: 2
#     Edge 113, Type (0, 1), BuildingBlock: OJICUG_clean_linker_0, # of connection points: 2
#     Edge 114, Type (0, 1), BuildingBlock: OJICUG_clean_linker_0, # of connection points: 2
#     Edge 115, Type (0, 1), BuildingBlock: OJICUG_clean_linker_0, # of connection points: 2
#     Edge 116, Type (0, 1), BuildingBlock: OJICUG_clean_linker_0, # of connection points: 2
#     Edge 117, Type (0, 1), BuildingBlock: OJICUG_clean_linker_0, # of connection points: 2
#     Edge 118, Type (0, 1), BuildingBlock: OJICUG_clean_linker_0, # of connection points: 2
#     Edge 119, Type (0, 1), BuildingBlock: OJICUG_clean_linker_0, # of connection points: 2
#     Edge 120, Type (0, 1), BuildingBlock: OJICUG_clean_linker_0, # of connection points: 2
#     Edge 121, Type (0, 1), BuildingBlock: OJICUG_clean_linker_0, # of connection points: 2
#     Edge 122, Type (0, 1), BuildingBlock: OJICUG_clean_linker_0, # of connection points: 2
#     Edge 123, Type (0, 1), BuildingBlock: OJICUG_clean_linker_0, # of connection points: 2
#     Edge 124, Type (0, 1), BuildingBlock: OJICUG_clean_linker_0, # of connection points: 2
#     Edge 125, Type (0, 1), BuildingBlock: OJICUG_clean_linker_0, # of connection points: 2
#     Edge 126, Type (0, 1), BuildingBlock: OJICUG_clean_linker_0, # of connection points: 2
#     Edge 127, Type (0, 1), BuildingBlock: OJICUG_clean_linker_0, # of connection points: 2
#     Edge 128, Type (0, 1), BuildingBlock: OJICUG_clean_linker_0, # of connection points: 2
#     Edge 129, Type (0, 1), BuildingBlock: OJICUG_clean_linker_0, # of connection points: 2
#     Edge 130, Type (0, 1), BuildingBlock: OJICUG_clean_linker_0, # of connection points: 2
#     Edge 131, Type (0, 1), BuildingBlock: OJICUG_clean_linker_0, # of connection points: 2
#     Edge 132, Type (0, 1), BuildingBlock: OJICUG_clean_linker_0, # of connection points: 2
#     Edge 133, Type (0, 1), BuildingBlock: OJICUG_clean_linker_0, # of connection points: 2
#     Edge 134, Type (0, 1), BuildingBlock: OJICUG_clean_linker_0, # of connection points: 2
#     Edge 135, Type (0, 1), BuildingBlock: OJICUG_clean_linker_0, # of connection points: 2
# Relax obj value: 0.161
# Max RMSD: 0.286
# Mean RMSD: 0.172
data_MOF--net-gar--node1-TATPOV_clean_sbu_0--node2-BETDEL_clean_sbu_0--edge1-OJICUG_clean_linker_0
_symmetry_space_group_name_H-M    P1
_symmetry_Int_Tables_number       1
_symmetry_cell_setting            triclinic
loop_
_symmetry_equiv_pos_as_xyz
'x, y, z'
_cell_length_a     40.607773
_cell_length_b     38.491337
_cell_length_c     41.098249
_cell_angle_alpha  96.193335
_cell_angle_beta   92.536532
_cell_angle_gamma 102.08945
loop_
_atom_site_label
_atom_site_type_symbol
_atom_site_fract_x
_atom_site_fract_y
_atom_site_fract_z
_atom_type_partial_charge
Zn0 Zn 0.0171 0.25962 0.46045 0.0
Zn1 Zn 0.05562 0.26015 0.41164 0.0
O2 O 0.0713 0.30921 0.44015 0.0
O3 O 0.04836 0.30156 0.48701 0.0
O4 O 0.09003 0.25722 0.37721 0.0
O5 O 0.01665 0.20954 0.4684 0.0
O6 O 0.05522 0.21273 0.43221 0.0
C7 C 0.06727 0.32121 0.46957 0.0
C8 C 0.98415 0.26842 0.39861 0.0
O9 O 0.01114 0.26241 0.38653 0.0
O10 O 0.98123 0.26945 0.42925 0.0
C11 C 0.09487 0.27554 0.35318 0.0
O12 O 0.07706 0.29985 0.34952 0.0
C13 C 0.03784 0.19577 0.45291 0.0
Zn14 Zn 0.9769 0.67376 0.63923 0.0
Zn15 Zn 0.99479 0.73462 0.61224 0.0
O16 O 0.95687 0.74469 0.64286 0.0
O17 O 0.94555 0.69582 0.66727 0.0
O18 O 1.00768 0.77855 0.5883 0.0
O19 O 0.02616 0.67964 0.65522 0.0
O20 O 0.03919 0.73202 0.63652 0.0
C21 C 0.9409 0.7268 0.66393 0.0
C22 C 0.97116 0.66044 0.57058 0.0
O23 O 0.98468 0.69369 0.57445 0.0
O24 O 0.96096 0.64497 0.59504 0.0
C25 C 0.99664 0.77991 0.55904 0.0
O26 O 0.97438 0.75256 0.54383 0.0
C27 C 0.0479 0.70744 0.65117 0.0
Zn28 Zn 0.51827 0.79934 0.96424 0.0
Zn29 Zn 0.55553 0.79028 0.91744 0.0
O30 O 0.57377 0.84161 0.94239 0.0
O31 O 0.55247 0.83873 0.9904 0.0
O32 O 0.58947 0.78095 0.88313 0.0
O33 O 0.50992 0.75015 0.9763 0.0
O34 O 0.55037 0.74512 0.94327 0.0
C35 C 0.57146 0.85607 0.97149 0.0
C36 C 0.48656 0.80453 0.90167 0.0
O37 O 0.51172 0.79281 0.89089 0.0
O38 O 0.48473 0.81162 0.93227 0.0
C39 C 0.59652 0.79854 0.85883 0.0
O40 O 0.582 0.82543 0.85504 0.0
C41 C 0.53003 0.73229 0.96405 0.0
Zn42 Zn 0.48394 0.19614 0.13058 0.0
Zn43 Zn 0.5033 0.25957 0.10959 0.0
O44 O 0.46535 0.26651 0.14096 0.0
O45 O 0.45283 0.21483 0.16079 0.0
O46 O 0.51444 0.30643 0.08977 0.0
O47 O 0.53243 0.19994 0.14683 0.0
O48 O 0.5477 0.25461 0.13323 0.0
C49 C 0.44894 0.24654 0.16031 0.0
C50 C 0.47842 0.18938 0.06216 0.0
O51 O 0.49271 0.22233 0.06865 0.0
O52 O 0.46802 0.17143 0.08511 0.0
C53 C 0.49705 0.31158 0.06485 0.0
O54 O 0.47135 0.28622 0.05225 0.0
C55 C 0.55501 0.22797 0.14574 0.0
Zn56 Zn 0.12418 0.81048 0.11062 0.0
Zn57 Zn 0.06906 0.79913 0.14445 0.0
O58 O 0.06198 0.83841 0.11551 0.0
O59 O 0.10597 0.84527 0.08565 0.0
O60 O 0.02729 0.7936 0.1713 0.0
O61 O 0.1136 0.75787 0.09267 0.0
O62 O 0.06553 0.74967 0.11667 0.0
C63 C 0.07822 0.85309 0.09292 0.0
C64 C 0.14151 0.82362 0.17914 0.0
O65 O 0.10974 0.81167 0.1799 0.0
O66 O 0.15431 0.82794 0.15195 0.0
C67 C 0.01612 0.8206 0.18313 0.0
O68 O 0.03222 0.85281 0.17841 0.0
C69 C 0.08598 0.73759 0.09798 0.0
Zn70 Zn 0.44662 0.74112 0.39473 0.0
Zn71 Zn 0.50216 0.74823 0.36125 0.0
O72 O 0.50708 0.80007 0.38321 0.0
O73 O 0.45899 0.79504 0.40711 0.0
O74 O 0.54435 0.74681 0.3366 0.0
O75 O 0.46345 0.70898 0.42415 0.0
O76 O 0.50754 0.71282 0.3946 0.0
C77 C 0.48651 0.81423 0.40002 0.0
C78 C 0.43018 0.72401 0.32624 0.0
O79 O 0.46207 0.73495 0.32573 0.0
O80 O 0.41689 0.72104 0.35338 0.0
C81 C 0.54705 0.74564 0.30577 0.0
O82 O 0.52104 0.7478 0.28651 0.0
C83 C 0.49132 0.70065 0.41825 0.0
Zn84 Zn 0.62173 0.31274 0.61887 0.0
Zn85 Zn 0.56367 0.29832 0.64685 0.0
O86 O 0.55679 0.33689 0.61707 0.0
O87 O 0.60332 0.34472 0.59082 0.0
O88 O 0.51961 0.28846 0.66953 0.0
O89 O 0.61553 0.2604 0.60106 0.0
O90 O 0.56429 0.25068 0.61866 0.0
C91 C 0.5744 0.35113 0.59509 0.0
C92 C 0.63244 0.32605 0.68793 0.0
O93 O 0.60092 0.31173 0.68568 0.0
O94 O 0.6475 0.33242 0.66225 0.0
C95 C 0.50743 0.31401 0.68287 0.0
O96 O 0.52404 0.3471 0.68225 0.0
C97 C 0.58714 0.23963 0.60271 0.0
Zn98 Zn 0.92955 0.23469 0.88905 0.0
Zn99 Zn 0.98493 0.24369 0.85622 0.0
O100 O 0.98994 0.29415 0.88051 0.0
O101 O 0.94152 0.28858 0.90376 0.0
O102 O 0.02705 0.24471 0.83193 0.0
O103 O 0.94705 0.2019 0.91757 0.0
O104 O 0.99108 0.20693 0.8879 0.0
C105 C 0.96954 0.30781 0.8979 0.0
C106 C 0.91411 0.22004 0.81969 0.0
O107 O 0.94587 0.23201 0.81963 0.0
O108 O 0.90086 0.21526 0.84658 0.0
C109 C 0.03348 0.25697 0.80488 0.0
O110 O 0.01157 0.272 0.79036 0.0
C111 C 0.97509 0.19409 0.9114 0.0
Zn112 Zn 0.49373 0.02439 0.25041 0.0
Zn113 Zn 0.4433 0.05876 0.25854 0.0
O114 O 0.47114 0.0713 0.3034 0.0
O115 O 0.5139 0.04511 0.29474 0.0
O116 O 0.40376 0.08259 0.26429 0.0
O117 O 0.50871 0.0527 0.21425 0.0
O118 O 0.46747 0.08164 0.22031 0.0
C119 C 0.49914 0.0645 0.31318 0.0
C120 C 0.42944 0.97655 0.24381 0.0
O121 O 0.41948 0.00579 0.24861 0.0
O122 O 0.46065 0.97682 0.24359 0.0
C123 C 0.37865 0.07499 0.24316 0.0
O124 O 0.37915 0.05207 0.21716 0.0
C125 C 0.49373 0.07652 0.20631 0.0
Zn126 Zn 0.22001 0.18886 0.4734 0.0
Zn127 Zn 0.2749 0.1613 0.47803 0.0
O128 O 0.28339 0.19229 0.43887 0.0
O129 O 0.23997 0.21831 0.43878 0.0
O130 O 0.31649 0.13996 0.48298 0.0
O131 O 0.22675 0.20847 0.52096 0.0
O132 O 0.27384 0.1888 0.5242 0.0
C133 C 0.26744 0.21408 0.42726 0.0
C134 C 0.20411 0.11259 0.46379 0.0
O135 O 0.23577 0.11656 0.47012 0.0
O136 O 0.19101 0.13944 0.46201 0.0
C137 C 0.32236 0.11508 0.4625 0.0
O138 O 0.30148 0.10341 0.43641 0.0
C139 C 0.25249 0.20485 0.53765 0.0
Zn140 Zn 0.10951 0.04264 0.78699 0.0
Zn141 Zn 0.15165 0.00313 0.78391 0.0
O142 O 0.12423 0.99131 0.82566 0.0
O143 O 0.0886 0.02735 0.82626 0.0
O144 O 0.17954 0.96484 0.77746 0.0
O145 O 0.08554 0.02602 0.74395 0.0
O146 O 0.12635 0.99695 0.73764 0.0
C147 C 0.10008 0.00331 0.83854 0.0
C148 C 0.1775 0.08308 0.78891 0.0
O149 O 0.18522 0.05257 0.78892 0.0
O150 O 0.14694 0.08557 0.78893 0.0
C151 C 0.20777 0.96384 0.79172 0.0
O152 O 0.22225 0.99001 0.81434 0.0
C153 C 0.10108 0.00743 0.72565 0.0
Zn154 Zn 0.30985 0.86086 -0.00557 0.0
Zn155 Zn 0.26769 0.89808 -0.00876 0.0
O156 O 0.25874 0.86764 0.94549 0.0
O157 O 0.30496 0.8463 0.94669 0.0
O158 O 0.23499 0.93153 -0.00447 0.0
O159 O 0.285 0.82657 0.02126 0.0
O160 O 0.25468 0.86731 0.02935 0.0
C161 C 0.27819 0.84938 0.93147 0.0
C162 C 0.34312 0.93003 0.00803 0.0
O163 O 0.31447 0.93302 -0.00388 0.0
O164 O 0.34753 0.89998 0.01458 0.0
C165 C 0.23587 0.95962 0.98153 0.0
O166 O 0.25822 0.96778 0.95989 0.0
C167 C 0.2621 0.83809 0.03592 0.0
Zn168 Zn 0.31711 0.32814 0.01864 0.0
Zn169 Zn 0.27156 0.36905 0.01719 0.0
O170 O 0.26826 0.34219 0.96973 0.0
O171 O 0.30458 0.30713 0.97203 0.0
O172 O 0.23467 0.39766 0.01591 0.0
O173 O 0.29695 0.30466 0.05693 0.0
O174 O 0.2607 0.34004 0.05724 0.0
C175 C 0.28338 0.31931 0.95564 0.0
C176 C 0.34624 0.4042 0.0269 0.0
O177 O 0.31567 0.40749 0.02511 0.0
O178 O 0.35333 0.37358 0.02518 0.0
C179 C 0.23658 0.42476 0.00025 0.0
O180 O 0.26336 0.43484 0.98394 0.0
C181 C 0.2725 0.3156 0.0694 0.0
Zn182 Zn 0.78821 0.23504 0.00945 0.0
Zn183 Zn 0.81354 0.1783 0.01254 0.0
O184 O 0.8384 0.20365 0.97588 0.0
O185 O 0.8219 0.25476 0.97989 0.0
O186 O 0.83539 0.13607 0.01744 0.0
O187 O 0.79726 0.25332 0.05582 0.0
O188 O 0.82 0.20644 0.05925 0.0
C189 C 0.83998 0.23474 0.96712 0.0
C190 C 0.73954 0.16952 0.99028 0.0
O191 O 0.76406 0.15538 -0.00204 0.0
O192 O 0.74368 0.20324 -0.00763 0.0
C193 C 0.83238 0.10983 -0.00497 0.0
O194 O 0.81454 0.10993 0.96758 0.0
C195 C 0.81254 0.23515 0.07246 0.0
Zn196 Zn 0.07628 0.54022 0.23315 0.0
Zn197 Zn 0.12628 0.5037 0.22751 0.0
O198 O 0.09766 0.47943 0.26186 0.0
O199 O 0.05658 0.50879 0.26556 0.0
O200 O 0.1638 0.47728 0.22405 0.0
O201 O 0.06096 0.52288 0.18671 0.0
O202 O 0.10289 0.4947 0.18111 0.0
C203 C 0.0702 0.48401 0.27361 0.0
C204 C 0.14238 0.58468 0.24847 0.0
O205 O 0.15143 0.55514 0.24203 0.0
O206 O 0.11141 0.58575 0.24626 0.0
C207 C 0.18784 0.48285 0.24618 0.0
O208 O 0.18819 0.50658 0.27176 0.0
C209 C 0.07657 0.50334 0.16944 0.0
Zn210 Zn 0.80692 0.82153 0.51627 0.0
Zn211 Zn 0.77717 0.87537 0.52121 0.0
O212 O 0.77096 0.85178 0.47254 0.0
O213 O 0.786 0.80002 0.4718 0.0
O214 O 0.74473 0.90908 0.52244 0.0
O215 O 0.78969 0.80142 0.55676 0.0
O216 O 0.76409 0.84661 0.56135 0.0
C217 C 0.77459 0.82249 0.45687 0.0
C218 C 0.85136 0.89422 0.52177 0.0
O219 O 0.82494 0.90636 0.52691 0.0
O220 O 0.84951 0.8607 0.51699 0.0
C221 C 0.74678 0.93549 0.50589 0.0
O222 O 0.77216 0.943 0.48724 0.0
C223 C 0.77062 0.81859 0.57195 0.0
Zn224 Zn 0.92182 0.9682 0.19759 0.0
Zn225 Zn 0.90055 0.02333 0.22194 0.0
O226 O 0.92609 0.01257 0.2631 0.0
O227 O 0.93657 0.96081 0.24302 0.0
O228 O 0.87922 0.06583 0.23673 0.0
O229 O 0.95505 0.9953 0.17096 0.0
O230 O 0.93148 0.04097 0.18442 0.0
C231 C 0.93687 0.98429 0.26716 0.0
C232 C 0.85348 0.95044 0.1943 0.0
O233 O 0.85993 0.98063 0.21207 0.0
O234 O 0.87649 0.94029 0.17855 0.0
C235 C 0.85172 0.0693 0.22252 0.0
O236 O 0.8373 0.04519 0.19815 0.0
C237 C 0.95275 0.02709 0.16835 0.0
Zn238 Zn 0.26205 0.70765 0.50998 0.0
Zn239 Zn 0.30132 0.66422 0.51386 0.0
O240 O 0.32086 0.6952 0.47796 0.0
O241 O 0.29341 0.73873 0.4845 0.0
O242 O 0.33085 0.62798 0.51618 0.0
O243 O 0.26442 0.7202 0.55818 0.0
O244 O 0.3057 0.69139 0.56089 0.0
C245 C 0.31609 0.72542 0.47113 0.0
C246 C 0.22701 0.63813 0.48897 0.0
O247 O 0.25437 0.632 0.50101 0.0
O248 O 0.22421 0.66993 0.48695 0.0
C249 C 0.32998 0.60321 0.49273 0.0
O250 O 0.3102 0.60184 0.46623 0.0
C251 C 0.28776 0.71151 0.57472 0.0
Zn252 Zn 0.4247 0.47812 0.70981 0.0
Zn253 Zn 0.39874 0.53126 0.72082 0.0
O254 O 0.42422 0.53346 0.76606 0.0
O255 O 0.43462 0.47937 0.75802 0.0
O256 O 0.37277 0.57157 0.72369 0.0
O257 O 0.45943 0.49993 0.68184 0.0
O258 O 0.42954 0.54143 0.68157 0.0
C259 C 0.43411 0.50729 0.77709 0.0
C260 C 0.35782 0.45383 0.7011 0.0
O261 O 0.36074 0.48537 0.71574 0.0
O262 O 0.38315 0.44444 0.68918 0.0
C263 C 0.35839 0.58036 0.74927 0.0
O264 O 0.36104 0.56366 0.77519 0.0
C265 C 0.45353 0.52755 0.67089 0.0
Zn266 Zn 0.57267 0.02729 0.72911 0.0
Zn267 Zn 0.62559 0.99607 0.72464 0.0
O268 O 0.59858 0.97068 0.75953 0.0
O269 O 0.55357 0.99412 0.76019 0.0
O270 O 0.66571 0.97334 0.72197 0.0
O271 O 0.55886 0.01167 0.6823 0.0
O272 O 0.60301 0.98679 0.67755 0.0
C273 C 0.5699 0.9723 0.77018 0.0
C274 C 0.63608 0.07604 0.74795 0.0
O275 O 0.6475 0.04811 0.74048 0.0
O276 O 0.60462 0.07457 0.74502 0.0
C277 C 0.68857 0.98 0.74536 0.0
O278 O 0.68562 0.00194 0.77133 0.0
C279 C 0.5762 0.99398 0.66522 0.0
Zn280 Zn 0.73298 0.70535 0.98762 0.0
Zn281 Zn 0.77454 0.66153 0.98169 0.0
O282 O 0.78568 0.69253 0.94327 0.0
O283 O 0.74509 0.72263 0.94442 0.0
O284 O 0.80905 0.63099 0.98231 0.0
O285 O 0.75607 0.7318 0.03015 0.0
O286 O 0.78081 0.68607 0.02935 0.0
C287 C 0.77038 0.71444 0.93116 0.0
C288 C 0.70124 0.6293 0.9826 0.0
O289 O 0.73003 0.62437 0.97489 0.0
O290 O 0.6968 0.66069 0.99036 0.0
C291 C 0.82588 0.62337 0.95826 0.0
O292 O 0.82115 0.63592 0.93034 0.0
C293 C 0.77371 0.71388 0.04456 0.0
Zn294 Zn 0.97638 0.51889 0.75642 0.0
Zn295 Zn 0.92792 0.55494 0.75733 0.0
O296 O 0.95047 0.56826 0.8049 0.0
O297 O 0.9917 0.53883 0.80178 0.0
O298 O 0.88937 0.58064 0.75407 0.0
O299 O 0.99916 0.54464 0.72234 0.0
O300 O 0.95811 0.57399 0.72086 0.0
C301 C 0.97654 0.55984 0.81769 0.0
C302 C 0.91184 0.47263 0.74402 0.0
O303 O 0.9025 0.50231 0.74773 0.0
O304 O 0.94293 0.47219 0.74618 0.0
C305 C 0.86453 0.57652 0.77216 0.0
O306 O 0.86433 0.55645 0.79609 0.0
C307 C 0.9859 0.56797 0.71081 0.0
Zn308 Zn 0.79073 0.32524 0.50429 0.0
Zn309 Zn 0.75709 0.37614 0.49415 0.0
O310 O 0.74885 0.34325 0.4503 0.0
O311 O 0.78027 0.30403 0.45804 0.0
O312 O 0.73285 0.41638 0.48865 0.0
O313 O 0.75775 0.30656 0.5351 0.0
O314 O 0.73374 0.35254 0.53222 0.0
C315 C 0.76025 0.31587 0.43994 0.0
C316 C 0.83351 0.39387 0.51337 0.0
O317 O 0.80662 0.40237 0.50291 0.0
O318 O 0.83326 0.36206 0.51867 0.0
C319 C 0.73471 0.44149 0.51202 0.0
O320 O 0.75277 0.44093 0.53922 0.0
C321 C 0.73557 0.32358 0.54382 0.0
Zn322 Zn 0.64916 0.56723 0.30098 0.0
Zn323 Zn 0.67071 0.51315 0.28547 0.0
O324 O 0.64127 0.50245 0.32633 0.0
O325 O 0.61574 0.54768 0.3303 0.0
O326 O 0.6914 0.46907 0.2752 0.0
O327 O 0.634 0.57027 0.25504 0.0
O328 O 0.64324 0.51625 0.24262 0.0
C329 C 0.61958 0.51846 0.33937 0.0
C330 C 0.71634 0.58859 0.30596 0.0
O331 O 0.71144 0.55722 0.29032 0.0
O332 O 0.69234 0.59867 0.31996 0.0
C333 C 0.72047 0.46691 0.28681 0.0
O334 O 0.73829 0.49396 0.30673 0.0
C335 C 0.63246 0.54314 0.23431 0.0
Dy336 Dy 0.99006 0.01278 0.00262 0.0
C337 C 0.13566 0.04221 0.01253 0.0
C338 C 0.92334 0.01524 0.0047 0.0
Dy339 Dy 0.06885 0.04525 0.01403 0.0
O340 O 0.93776 0.00571 0.97855 0.0
O341 O 0.94491 0.02024 0.02995 0.0
O342 O 0.9997 0.97652 0.95807 0.0
O343 O 0.03209 0.02617 0.97315 0.0
C344 C 0.02822 0.99799 0.95363 0.0
C345 C 0.03125 0.06234 0.06249 0.0
O346 O 0.05472 0.08916 0.98829 0.0
O347 O 0.99717 0.07091 -0.00476 0.0
O348 O 0.11744 0.03737 0.0375 0.0
O349 O 0.118 0.05174 0.98929 0.0
O350 O 0.06093 0.0818 0.05841 0.0
O351 O 0.02669 0.03326 0.04392 0.0
O352 O 1.00379 0.96938 0.02853 0.0
O353 O 0.06018 0.98569 0.01688 0.0
C354 C 0.02329 0.09425 0.98653 0.0
C355 C 0.03473 0.96324 0.02788 0.0
Dy356 Dy 0.27923 0.77308 0.21509 0.0
C357 C 0.32494 0.77583 0.34929 0.0
C358 C 0.2526 0.78232 0.15585 0.0
Dy359 Dy 0.29804 0.78492 0.28997 0.0
O360 O 0.26886 0.75739 0.16086 0.0
O361 O 0.25139 0.80224 0.18308 0.0
O362 O 0.31149 0.73148 0.20929 0.0
O363 O 0.32401 0.77513 0.2462 0.0
C364 C 0.33133 0.74632 0.23501 0.0
C365 C 0.24517 0.81067 0.26974 0.0
O366 O 0.33605 0.8295 0.27425 0.0
O367 O 0.31046 0.82981 0.2225 0.0
O368 O 0.30999 0.8017 0.34398 0.0
O369 O 0.32455 0.75482 0.32236 0.0
O370 O 0.26436 0.82553 0.29589 0.0
O371 O 0.25341 0.78239 0.2588 0.0
O372 O 0.241 0.72889 0.23063 0.0
O373 O 0.26612 0.72827 0.28258 0.0
C374 C 0.3328 0.84485 0.24728 0.0
C375 C 0.24391 0.71345 0.25758 0.0
Dy376 Dy 0.5775 0.03169 0.48853 0.0
C377 C 0.43937 0.05392 0.48372 0.0
C378 C 0.63515 0.00701 0.49874 0.0
Dy379 Dy 0.50034 0.03439 0.49045 0.0
O380 O 0.63327 0.03447 0.48333 0.0
O381 O 0.6058 0.99359 0.50861 0.0
O382 O 0.5854 0.0699 0.45064 0.0
O383 O 0.53757 0.03737 0.45384 0.0
C384 C 0.55344 0.06375 0.44113 0.0
C385 C 0.52599 0.00387 0.5381 0.0
O386 O 0.49458 0.98085 0.46084 0.0
O387 O 0.55133 0.97712 0.46423 0.0
O388 O 0.45919 0.06032 0.51034 0.0
O389 O 0.45245 0.03599 0.46102 0.0
O390 O 0.494 0.99579 0.52853 0.0
O391 O 0.54052 0.03014 0.52476 0.0
O392 O 0.581 0.08105 0.52377 0.0
O393 O 0.52855 0.09109 0.50696 0.0
C394 C 0.51901 0.96321 0.45527 0.0
C395 C 0.55862 0.10178 0.52337 0.0
Dy396 Dy 0.23082 0.26697 0.74392 0.0
C397 C 0.37509 0.28581 0.73431 0.0
C398 C 0.16378 0.25471 0.75521 0.0
Dy399 Dy 0.30814 0.271 0.74672 0.0
O400 O 0.1785 0.27692 0.73602 0.0
O401 O 0.18554 0.23856 0.76764 0.0
O402 O 0.2375 0.31436 0.71598 0.0
O403 O 0.27584 0.30992 0.75073 0.0
C404 C 0.26794 0.32762 0.72862 0.0
C405 C 0.27032 0.2098 0.76115 0.0
O406 O 0.30451 0.29104 0.79922 0.0
O407 O 0.24564 0.27996 0.79807 0.0
O408 O 0.35651 0.25405 0.73488 0.0
O409 O 0.35726 0.30969 0.74134 0.0
O410 O 0.30104 0.2223 0.77377 0.0
O411 O 0.26307 0.22862 0.73976 0.0
O412 O 0.2349 0.23976 0.69397 0.0
O413 O 0.29251 0.26259 0.6926 0.0
C414 C 0.2759 0.28939 0.81407 0.0
C415 C 0.26262 0.24673 0.67772 0.0
Dy416 Dy 0.02565 0.96721 0.45007 0.0
C417 C 0.07686 0.0094 0.58714 0.0
C418 C 0.98462 0.95847 0.39459 0.0
Dy419 Dy 0.05056 0.99725 0.52411 0.0
O420 O 1.00823 0.94069 0.39894 0.0
O421 O 0.98239 0.97914 0.42118 0.0
O422 O 0.07678 0.97922 0.42833 0.0
O423 O 0.0723 0.99068 0.47778 0.0
C424 C 0.09309 0.99379 0.45605 0.0
C425 C 0.98303 0.98068 0.50926 0.0
O426 O 0.06262 0.04745 0.50081 0.0
O427 O 0.02243 0.02536 0.45741 0.0
O428 O 0.05264 0.02282 0.57564 0.0
O429 O 0.08829 0.99079 0.56365 0.0
O430 O 0.99783 0.0059 0.53191 0.0
O431 O 1.00492 0.96514 0.49776 0.0
O432 O 0.02224 0.91499 0.47131 0.0
O433 O 0.05015 0.93861 0.52258 0.0
C434 C 0.04327 0.05229 0.47568 0.0
C435 C 0.03563 0.91103 0.50061 0.0
Dy436 Dy 0.31512 0.78605 0.77546 0.0
C437 C 0.18622 0.72539 0.7007 0.0
C438 C 0.37278 0.81049 0.81538 0.0
Dy439 Dy 0.24404 0.75265 0.7395 0.0
O440 O 0.37154 0.80404 0.78369 0.0
O441 O 0.34234 0.80511 0.82517 0.0
O442 O 0.33883 0.77051 0.72918 0.0
O443 O 0.29143 0.78377 0.72644 0.0
C444 C 0.31314 0.77223 0.71006 0.0
C445 C 0.24531 0.76733 0.80456 0.0
O446 O 0.27156 0.70693 0.73396 0.0
O447 O 0.30991 0.72776 0.77904 0.0
O448 O 0.19426 0.71364 0.7278 0.0
O449 O 0.21059 0.75084 0.69406 0.0
O450 O 0.21947 0.76792 0.78514 0.0
O451 O 0.26724 0.75562 0.78852 0.0
O452 O 0.29147 0.83427 0.77905 0.0
O453 O 0.24465 0.81125 0.74205 0.0
C454 C 0.29505 0.70211 0.75568 0.0
C455 C 0.26377 0.83784 0.76229 0.0
Dy456 Dy 0.54524 0.06427 0.02455 0.0
C457 C 0.53966 0.9894 0.89594 0.0
C458 C 0.53822 0.10007 0.08368 0.0
Dy459 Dy 0.53423 0.03227 0.95132 0.0
O460 O 0.56308 0.08461 0.07683 0.0
O461 O 0.51752 0.0963 0.05795 0.0
O462 O 0.57594 0.0229 0.03483 0.0
O463 O 0.53742 0.01139 -0.00241 0.0
C464 C 0.56138 0.00026 0.00999 0.0
C465 C 0.5164 0.09502 0.96471 0.0
O466 O 0.48629 0.00435 0.97016 0.0
O467 O 0.48972 0.04026 0.02008 0.0
O468 O 0.51424 0.00435 0.90147 0.0
O469 O 0.56276 -0.00059 0.91982 0.0
O470 O 0.50223 0.0717 0.94014 0.0
O471 O 0.54071 0.08491 0.97775 0.0
O472 O 0.59049 0.09633 0.00529 0.0
O473 O 0.58995 0.05902 0.95663 0.0
C474 C 0.47258 0.016 -0.00325 0.0
C475 C 0.60539 0.08537 0.9793 0.0
Dy476 Dy 0.27943 0.31162 0.25752 0.0
C477 C 0.28132 0.16343 0.25198 0.0
C478 C 0.26658 0.37636 0.24767 0.0
Dy479 Dy 0.26655 0.22866 0.24627 0.0
O480 O 0.28599 0.37111 0.27198 0.0
O481 O 0.2551 0.34658 0.22893 0.0
O482 O 0.30901 0.31319 0.30567 0.0
O483 O 0.27099 0.26885 0.28828 0.0
C484 C 0.29503 0.28031 0.30974 0.0
C485 C 0.25342 0.26073 0.19355 0.0
O486 O 0.21811 0.23265 0.26914 0.0
O487 O 0.22394 0.29375 0.26611 0.0
O488 O 0.26613 0.17155 0.22619 0.0
O489 O 0.28629 0.19023 0.2749 0.0
O490 O 0.23733 0.22863 0.19787 0.0
O491 O 0.27665 0.27154 0.21586 0.0
O492 O 0.3279 0.30702 0.23496 0.0
O493 O 0.32271 0.24738 0.24312 0.0
C494 C 0.20608 0.26236 0.27255 0.0
C495 C 0.3406 0.27792 0.23512 0.0
Dy496 Dy 0.51203 0.50979 0.97186 0.0
C497 C 0.57657 0.5461 0.10394 0.0
C498 C 0.48288 0.50774 0.91061 0.0
Dy499 Dy 0.53669 0.53421 0.04775 0.0
O500 O 0.50501 0.53428 0.92589 0.0
O501 O 0.47674 0.48149 0.92857 0.0
O502 O 0.56505 0.50348 0.96156 0.0
O503 O 0.55712 0.53928 0.00018 0.0
C504 C 0.57934 0.52565 0.98689 0.0
C505 C 0.46901 0.50983 0.03937 0.0
O506 O 0.5407 0.58689 0.02845 0.0
O507 O 0.50167 0.56495 0.98378 0.0
O508 O 0.55315 0.56356 0.0978 0.0
O509 O 0.57893 0.52328 0.0789 0.0
O510 O 0.48466 0.52169 0.06799 0.0
O511 O 0.49062 0.51369 0.01851 0.0
O512 O 0.5045 0.4566 -0.00871 0.0
O513 O 0.54022 0.47666 0.03866 0.0
C514 C 0.52092 0.59189 0.00357 0.0
C515 C 0.52139 0.45054 0.01783 0.0
Dy516 Dy 0.81823 0.2825 0.27478 0.0
C517 C 0.68921 0.23371 0.2017 0.0
C518 C 0.87344 0.29311 0.31777 0.0
Dy519 Dy 0.74739 0.24841 0.24115 0.0
O520 O 0.87432 0.29886 0.28719 0.0
O521 O 0.84234 0.28328 0.32512 0.0
O522 O 0.83516 0.30278 0.22775 0.0
O523 O 0.79895 0.2547 0.22705 0.0
C524 C 0.81434 0.27681 0.20966 0.0
C525 C 0.75161 0.2559 0.3067 0.0
O526 O 0.77093 0.20042 0.23445 0.0
O527 O 0.81509 0.22276 0.2739 0.0
O528 O 0.69457 0.21728 0.22679 0.0
O529 O 0.71617 0.2573 0.1974 0.0
O530 O 0.72995 0.23036 0.28926 0.0
O531 O 0.76677 0.2767 0.28828 0.0
O532 O 0.7971 0.33217 0.27847 0.0
O533 O 0.74995 0.30815 0.24238 0.0
C534 C 0.79669 0.19584 0.25345 0.0
C535 C 0.77 0.33584 0.2608 0.0
Dy536 Dy 0.03886 0.52671 0.53036 0.0
C537 C 0.02794 0.46345 0.39622 0.0
C538 C 0.03304 0.56657 0.5875 0.0
Dy539 Dy 0.02462 0.49831 0.4566 0.0
O540 O 0.0142 0.56431 0.56078 0.0
O541 O 0.05506 0.54658 0.58318 0.0
O542 O 0.06912 0.48489 0.53889 0.0
O543 O 0.03048 0.47495 0.50138 0.0
C544 C 0.05486 0.46366 0.51295 0.0
C545 C 1.00806 0.56086 0.4747 0.0
O546 O 0.97804 0.46798 0.47575 0.0
O547 O 0.98383 0.49972 0.52809 0.0
O548 O 1.00396 0.4795 0.40481 0.0
O549 O 0.05025 0.46696 0.42056 0.0
O550 O 0.99176 0.53814 0.45075 0.0
O551 O 0.03324 0.55015 0.48525 0.0
O552 O 0.0869 0.5543 0.51246 0.0
O553 O 0.08006 0.52433 0.45931 0.0
C554 C 0.96581 0.47693 0.50409 0.0
C555 C 0.09865 0.54574 0.48387 0.0
Dy556 Dy 0.74359 0.75998 0.24591 0.0
C557 C 0.88785 0.79939 0.24299 0.0
C558 C 0.67636 0.73816 0.25555 0.0
Dy559 Dy 0.82057 0.78201 0.25443 0.0
O560 O 0.68846 0.75688 0.23267 0.0
O561 O 0.70099 0.7298 0.27207 0.0
O562 O 0.74266 0.80393 0.21434 0.0
O563 O 0.77998 0.81118 0.2531 0.0
C564 C 0.76963 0.82467 0.22909 0.0
C565 C 0.79391 0.71823 0.27264 0.0
O566 O 0.81025 0.8066 0.30388 0.0
O567 O 0.75421 0.77544 0.30023 0.0
O568 O 0.87067 0.76777 0.24637 0.0
O569 O 0.86847 0.82236 0.24707 0.0
O570 O 0.82009 0.73989 0.2881 0.0
O571 O 0.78407 0.73073 0.24769 0.0
O572 O 0.75613 0.7313 0.19971 0.0
O573 O 0.80734 0.77137 0.19987 0.0
C574 C 0.78123 0.79565 0.31727 0.0
C575 C 0.78243 0.74641 0.18437 0.0
Dy576 Dy 0.75815 0.27042 0.71951 0.0
C577 C 0.8229 0.27059 0.84482 0.0
C578 C 0.72367 0.28009 0.66453 0.0
Dy579 Dy 0.78613 0.28159 0.79193 0.0
O580 O 0.73769 0.25298 0.66742 0.0
O581 O 0.72934 0.30208 0.69133 0.0
O582 O 0.79024 0.22896 0.70867 0.0
O583 O 0.80629 0.27255 0.74481 0.0
C584 C 0.81304 0.24412 0.73205 0.0
C585 C 0.73099 0.30744 0.77966 0.0
O586 O 0.82132 0.3257 0.77237 0.0
O587 O 0.7894 0.32717 0.72437 0.0
O588 O 0.81046 0.29894 0.84291 0.0
O589 O 0.81392 0.24801 0.81867 0.0
O590 O 0.75331 0.32232 0.8036 0.0
O591 O 0.73822 0.27941 0.76669 0.0
O592 O 0.72237 0.22678 0.73862 0.0
O593 O 0.75423 0.22483 0.7866 0.0
C594 C 0.81456 0.34169 0.74669 0.0
C595 C 0.72906 0.21056 0.76413 0.0
Dy596 Dy 0.77937 0.81238 0.75962 0.0
C597 C 0.76588 0.66085 0.75259 0.0
C598 C 0.77187 0.8789 0.74914 0.0
Dy599 Dy 0.7569 0.72855 0.74723 0.0
O600 O 0.78879 0.8721 0.77458 0.0
O601 O 0.76024 0.84969 0.72967 0.0
O602 O 0.8078 0.80868 0.80769 0.0
O603 O 0.76562 0.76947 0.78862 0.0
C604 C 0.78912 0.77725 0.81078 0.0
C605 C 0.74785 0.76368 0.69565 0.0
O606 O 0.70959 0.73849 0.76955 0.0
O607 O 0.72362 0.80061 0.76984 0.0
O608 O 0.76015 0.67329 0.72517 0.0
O609 O 0.76389 0.6846 0.77692 0.0
O610 O 0.72865 0.73275 0.69947 0.0
O611 O 0.77151 0.77157 0.71779 0.0
O612 O 0.82584 0.80131 0.73668 0.0
O613 O 0.8138 0.74151 0.74571 0.0
C614 C 0.70213 0.77065 0.775 0.0
C615 C 0.83458 0.76993 0.7368 0.0
Dy616 Dy 0.4943 0.50948 0.4947 0.0
C617 C 0.63854 0.53103 0.50729 0.0
C618 C 0.42882 0.51625 0.49784 0.0
Dy619 Dy 0.57341 0.53868 0.51187 0.0
O620 O 0.44113 0.50229 0.47201 0.0
O621 O 0.45175 0.52403 0.52198 0.0
O622 O 0.50569 0.47977 0.447 0.0
O623 O 0.53841 0.52681 0.46907 0.0
C624 C 0.53505 0.50147 0.44639 0.0
C625 C 0.53299 0.54681 0.56033 0.0
O626 O 0.56307 0.58676 0.49042 0.0
O627 O 0.50455 0.56915 0.49235 0.0
O628 O 0.62744 0.54698 0.53287 0.0
O629 O 0.61455 0.52152 0.48423 0.0
O630 O 0.56264 0.56806 0.5599 0.0
O631 O 0.52939 0.52164 0.53747 0.0
O632 O 0.50402 0.46162 0.51677 0.0
O633 O 0.56269 0.47926 0.51609 0.0
C634 C 0.53216 0.59321 0.48782 0.0
C635 C 0.53487 0.45531 0.52042 0.0
Dy636 Dy 0.06818 0.52375 0.9879 0.0
C637 C 0.93482 0.55248 0.98072 0.0
C638 C 0.12537 0.49757 -0.0043 0.0
Dy639 Dy 0.99133 0.5274 -0.00674 0.0
O640 O 0.12283 0.52382 0.97883 0.0
O641 O 0.097 0.48633 0.00847 0.0
O642 O 0.07124 0.55774 0.94597 0.0
O643 O 0.02566 0.52447 0.95512 0.0
C644 C 0.03874 0.54875 0.93874 0.0
C645 C 0.01958 0.50135 0.04212 0.0
O646 O 0.98383 0.47383 0.96335 0.0
O647 O 0.03985 0.46771 0.96827 0.0
O648 O 0.93675 0.52869 0.00063 0.0
O649 O 0.96354 0.56244 0.96824 0.0
O650 O 0.98702 0.49361 0.03488 0.0
O651 O 0.03351 0.52568 0.02608 0.0
O652 O 0.07498 0.5762 0.02041 0.0
O653 O 0.01908 0.58276 0.01522 0.0
C654 C 1.0073 0.45458 0.95926 0.0
C655 C 0.05142 0.59538 0.02531 0.0
C656 C 0.02086 0.16198 0.92644 0.0
C657 C 0.9895 0.17092 0.9322 0.0
H658 H 0.05677 0.13111 0.93968 0.0
C659 C 0.97186 0.15766 0.95845 0.0
H660 H 0.0353 0.17206 0.90662 0.0
C661 C 0.98431 0.13476 0.97746 0.0
C662 C 0.0148 0.12442 0.97082 0.0
H663 H 0.94791 0.1643 0.96398 0.0
H664 H 0.96933 0.12411 -0.00326 0.0
C665 C 0.03344 0.13895 0.94564 0.0
C666 C 0.15819 0.80268 0.23166 0.0
C667 C 0.16459 0.82755 0.20888 0.0
H668 H 0.17952 0.77791 0.26935 0.0
C669 C 0.19604 0.85187 0.21152 0.0
H670 H 0.1344 0.78335 0.22999 0.0
C671 C 0.22149 0.84947 0.23481 0.0
C672 C 0.21609 0.82221 0.25524 0.0
H673 H 0.20169 0.87122 0.19417 0.0
H674 H 0.24634 0.86655 0.23457 0.0
C675 C 0.18395 0.79965 0.25428 0.0
C676 C 0.46922 0.86979 0.42419 0.0
C677 C 0.49459 0.85299 0.41206 0.0
H678 H 0.45686 0.91775 0.44689 0.0
C679 C 0.52768 0.87332 0.41264 0.0
H680 H 0.44338 0.85497 0.42391 0.0
C681 C 0.53544 0.90929 0.42609 0.0
C682 C 0.51019 0.92589 0.43885 0.0
H683 H 0.54778 0.86122 0.40347 0.0
H684 H 0.56136 0.92398 0.42678 0.0
C685 C 0.47689 0.90587 0.43724 0.0
C686 C 0.4594 0.3352 0.70945 0.0
C687 C 0.47434 0.30679 0.69779 0.0
H688 H 0.41635 0.35085 0.7302 0.0
C689 C 0.45693 0.27152 0.69984 0.0
H690 H 0.47206 0.36271 0.7083 0.0
C691 C 0.4251 0.26482 0.7126 0.0
C692 C 0.4099 0.29319 0.72349 0.0
H693 H 0.46769 0.24901 0.69121 0.0
H694 H 0.41209 0.23733 0.71332 0.0
C695 C 0.42749 0.32846 0.72207 0.0
C696 C 0.03499 0.83967 0.55712 0.0
C697 C 1.00874 0.812 0.54226 0.0
H698 H 0.06481 0.89201 0.55511 0.0
C699 C 0.99399 0.81554 0.51147 0.0
H700 H 0.04726 0.83766 0.58057 0.0
C701 C 1.00413 0.84687 0.49668 0.0
C702 C 0.0293 0.87525 0.51237 0.0
H703 H 0.97386 0.79457 0.49921 0.0
H704 H 0.99116 0.84945 0.47375 0.0
C705 C 0.04519 0.87082 0.54233 0.0
C706 C 0.42916 0.81707 0.892 0.0
C707 C 0.45874 0.80927 0.87915 0.0
H708 H 0.37888 0.8239 0.8818 0.0
C709 C 0.4609 0.8055 0.84498 0.0
H710 H 0.42666 0.8204 0.91822 0.0
C711 C 0.43353 0.80812 0.82413 0.0
C712 C 0.40348 0.8142 0.8371 0.0
H713 H 0.48342 0.79985 0.83434 0.0
H714 H 0.4354 0.80387 0.79785 0.0
C715 C 0.40178 0.81932 0.87119 0.0
C716 C 0.46041 0.13682 0.01904 0.0
C717 C 0.48202 0.17001 0.03001 0.0
H718 H 0.45396 0.08708 0.98784 0.0
C719 C 0.51165 0.18077 0.01396 0.0
H720 H 0.43754 0.12784 0.03117 0.0
C721 C 0.52156 0.15701 0.99025 0.0
C722 C 0.50129 0.12285 0.98123 0.0
H723 H 0.52898 0.20602 0.02209 0.0
H724 H 0.54614 0.16441 0.9806 0.0
C725 C 0.46977 0.11356 -0.00568 0.0
C726 C 0.13651 0.24062 0.33057 0.0
C727 C 0.12114 0.27016 0.33015 0.0
H728 H 0.17478 0.21444 0.31214 0.0
C729 C 0.13181 0.29506 0.30808 0.0
H730 H 0.12875 0.22077 0.34707 0.0
C731 C 0.15828 0.29148 0.28813 0.0
C732 C 0.17445 0.26263 0.28938 0.0
H733 H 0.12048 0.31803 0.30696 0.0
H734 H 0.16671 0.31192 0.27236 0.0
C735 C 0.1627 0.23678 0.31028 0.0
C736 C 0.00904 0.04425 0.14691 0.0
C737 C 0.97498 0.04673 0.146 0.0
H738 H 0.05405 0.04852 0.12099 0.0
C739 C 0.9616 0.06125 0.11982 0.0
H740 H 0.0198 0.03292 0.16681 0.0
C741 C 0.98123 0.06984 0.09338 0.0
C742 C 0.0144 0.06448 0.09326 0.0
H743 H 0.9353 0.06297 0.11843 0.0
H744 H 0.96986 0.07845 0.07218 0.0
C745 C 0.02866 0.05327 0.12083 0.0
C746 C 0.32994 0.77786 0.44036 0.0
C747 C 0.33139 0.74213 0.44329 0.0
H748 H 0.32685 0.81678 0.4076 0.0
C749 C 0.33938 0.72079 0.41617 0.0
H750 H 0.32445 0.79511 0.46111 0.0
C751 C 0.34078 0.73332 0.38548 0.0
C752 C 0.33424 0.76719 0.38186 0.0
H753 H 0.34086 0.69325 0.41781 0.0
H754 H 0.34374 0.71525 0.36424 0.0
C755 C 0.3312 0.79027 0.40976 0.0
C756 C 0.58808 0.00291 0.60827 0.0
C757 C 0.56663 0.98599 0.63018 0.0
H758 H 0.59132 0.02333 0.56213 0.0
C759 C 0.53301 0.96978 0.61973 0.0
H760 H 0.61384 0.01629 0.61624 0.0
C761 C 0.52026 0.97276 0.5883 0.0
C762 C 0.54082 0.99296 0.56754 0.0
H763 H 0.51603 0.95705 0.63666 0.0
H764 H 0.49377 0.96181 0.58133 0.0
C765 C 0.5751 0.0069 0.5773 0.0
C766 C 0.30609 0.29795 0.90349 0.0
C767 C 0.28 0.31028 0.91947 0.0
H768 H 0.32558 0.28255 0.85789 0.0
C769 C 0.25249 0.31598 0.90039 0.0
H770 H 0.32788 0.29366 0.91738 0.0
C771 C 0.25103 0.30912 0.86607 0.0
C772 C 0.27748 0.29738 0.85022 0.0
H773 H 0.23214 0.32567 0.91195 0.0
H774 H 0.22942 0.31347 0.85193 0.0
C775 C 0.30501 0.29195 0.86932 0.0
C776 C 0.96453 0.94874 0.30319 0.0
C777 C 0.94835 0.97734 0.30003 0.0
H778 H 0.98836 0.92003 0.33571 0.0
C779 C 0.94204 0.99784 0.3285 0.0
H780 H 0.96954 0.93218 0.28174 0.0
C781 C 0.95226 0.99031 0.35942 0.0
C782 C 0.96928 0.9624 0.36242 0.0
H783 H 0.92925 0.0197 0.32692 0.0
H784 H 0.94774 0.00709 0.38093 0.0
C785 C 0.97505 0.94148 0.33408 0.0
C786 C 0.27448 0.74892 0.62367 0.0
C787 C 0.2945 0.7263 0.60964 0.0
H788 H 0.26537 0.78178 0.66618 0.0
C789 C 0.32118 0.71921 0.62898 0.0
H790 H 0.2538 0.75515 0.60949 0.0
C791 C 0.32765 0.73453 0.6617 0.0
C792 C 0.30746 0.75702 0.67547 0.0
H793 H 0.33709 0.70199 0.61886 0.0
H794 H 0.34816 0.72851 0.67629 0.0
C795 C 0.28097 0.76416 0.65619 0.0
C796 C 0.58385 0.95735 0.82518 0.0
C797 C 0.5592 0.95672 0.79998 0.0
H798 H 0.59662 0.96881 0.87682 0.0
C799 C 0.52548 0.95446 0.8076 0.0
H800 H 0.60993 0.95845 0.81989 0.0
C801 C 0.51803 0.96119 0.84007 0.0
C802 C 0.54416 0.96924 0.86486 0.0
H803 H 0.50587 0.95298 0.78841 0.0
H804 H 0.49273 0.96403 0.84528 0.0
C805 C 0.57632 0.96379 0.85776 0.0
C806 C 0.24039 0.27077 0.10298 0.0
C807 C 0.2621 0.30403 0.10117 0.0
H808 H 0.21974 0.23116 0.13402 0.0
C809 C 0.27856 0.32391 0.13006 0.0
H810 H 0.22797 0.25469 0.08083 0.0
C811 C 0.27458 0.31024 0.16012 0.0
C812 C 0.25357 0.27657 0.16213 0.0
H813 H 0.296 0.34923 0.12913 0.0
H814 H 0.28918 0.32548 0.18159 0.0
C815 C 0.23582 0.25731 0.13334 0.0
C816 C 0.20541 0.00804 0.9697 0.0
C817 C 0.21253 0.98351 0.9906 0.0
H818 H 0.1754 0.04619 0.96034 0.0
C819 C 0.19687 0.98172 0.02039 0.0
H820 H 0.21717 0.01016 0.94664 0.0
C821 C 0.17378 0.00301 0.0286 0.0
C822 C 0.16533 0.02616 0.00697 0.0
H823 H 0.2021 0.96345 0.03723 0.0
H824 H 0.1613 -3e-05 0.0512 0.0
C825 C 0.18174 0.0289 0.97766 0.0
C826 C 0.66532 0.56879 0.96172 0.0
C827 C 0.67339 0.59879 0.98562 0.0
H828 H 0.62846 0.52116 0.94327 0.0
C829 C 0.65342 0.60072 0.01242 0.0
H830 H 0.68067 0.56669 0.941 0.0
C831 C 0.62457 0.57444 0.0143 0.0
C832 C 0.61448 0.54617 0.98892 0.0
H833 H 0.65961 0.62322 0.03154 0.0
H834 H 0.60891 0.57762 0.03463 0.0
C835 C 0.63572 0.54268 0.96318 0.0
C836 C 0.7652 0.4311 0.29313 0.0
C837 C 0.73402 0.4341 0.27858 0.0
H838 H 0.80115 0.39823 0.29884 0.0
C839 C 0.71586 0.40525 0.25654 0.0
H840 H 0.78 0.45278 0.31014 0.0
C841 C 0.72815 0.37396 0.24986 0.0
C842 C 0.75891 0.37057 0.26511 0.0
H843 H 0.69186 0.40662 0.24472 0.0
H844 H 0.71305 0.35209 0.23326 0.0
C845 C 0.77745 0.39977 0.28654 0.0
C846 C 0.89244 0.41788 0.53738 0.0
C847 C 0.86603 0.4195 0.51471 0.0
H848 H 0.94519 0.43605 0.5522 0.0
C849 C 0.8722 0.4426 0.49042 0.0
H850 H 0.88819 0.40014 0.55624 0.0
C851 C 0.9048 0.46199 0.48748 0.0
C852 C 0.9313 0.45943 0.50946 0.0
H853 H 0.85231 0.444 0.47247 0.0
H854 H 0.90948 0.47841 0.46765 0.0
C855 C 0.92486 0.43826 0.53508 0.0
C856 C 0.32649 0.09175 0.22037 0.0
C857 C 0.35015 0.0933 0.24686 0.0
H858 H 0.28549 0.11257 0.20132 0.0
C859 C 0.34727 0.11398 0.27649 0.0
H860 H 0.32787 0.07583 0.19727 0.0
C861 C 0.32266 0.13445 0.27893 0.0
C862 C 0.30065 0.13495 0.25171 0.0
H863 H 0.36475 0.11535 0.29751 0.0
H864 H 0.32221 0.15149 0.30161 0.0
C865 C 0.30203 0.11254 0.22273 0.0
C866 C 0.3719 0.10765 0.49809 0.0
C867 C 0.35201 0.0989 0.46824 0.0
H868 H 0.41481 0.09989 0.52653 0.0
C869 C 0.3606 0.07429 0.44395 0.0
H870 H 0.36595 0.12636 0.5174 0.0
C871 C 0.38867 0.05924 0.44918 0.0
C872 C 0.40859 0.06819 0.47892 0.0
H873 H 0.34585 0.06688 0.42068 0.0
H874 H 0.39493 0.04079 0.42981 0.0
C875 C 0.3998 0.09235 0.50341 0.0
C876 C 0.74965 0.62122 0.26577 0.0
C877 C 0.74442 0.61689 0.29878 0.0
H878 H 0.76845 0.65764 0.23153 0.0
C879 C 0.75883 0.64494 0.3233 0.0
H880 H 0.73803 0.60032 0.24638 0.0
C881 C 0.77679 0.67746 0.3148 0.0
C882 C 0.77931 0.68269 0.28167 0.0
H883 H 0.75441 0.64244 0.34884 0.0
H884 H 0.78665 0.69926 0.33398 0.0
C885 C 0.76644 0.65414 0.25723 0.0
C886 C 0.85208 0.43705 0.73341 0.0
C887 C 0.88665 0.43842 0.74025 0.0
H888 H 0.80167 0.40452 0.72932 0.0
C889 C 0.89704 0.40687 0.74591 0.0
H890 H 0.84338 0.46094 0.72882 0.0
C891 C 0.87335 0.37521 0.74673 0.0
C892 C 0.83884 0.37414 0.74121 0.0
H893 H 0.92342 0.40689 0.75117 0.0
H894 H 0.88201 0.35162 0.75245 0.0
C895 C 0.82828 0.4049 0.73353 0.0
C896 C 0.08411 0.89562 0.05069 0.0
C897 C 0.06513 0.87932 0.07487 0.0
H898 H 0.08908 0.9341 0.01661 0.0
C899 C 0.03415 0.88865 0.08147 0.0
H900 H 0.10792 0.88895 0.04467 0.0
C901 C 0.02308 0.91466 0.06496 0.0
C902 C 0.0429 0.93186 0.04174 0.0
H903 H 0.01881 0.87642 0.09981 0.0
H904 H 0.99976 0.92228 0.07133 0.0
C905 C 0.0732 0.92152 0.03443 0.0
C906 C 0.89902 0.2457 0.76937 0.0
C907 C 0.8916 0.21863 0.78995 0.0
H908 H 0.87916 0.27507 0.73462 0.0
C909 C 0.85968 0.19513 0.78563 0.0
H910 H 0.92318 0.26449 0.77237 0.0
C911 C 0.8348 0.20043 0.76299 0.0
C912 C 0.84124 0.22996 0.74518 0.0
H913 H 0.8532 0.17421 0.80135 0.0
H914 H 0.80961 0.18383 0.76205 0.0
C915 C 0.87385 0.25172 0.74767 0.0
C916 C 0.60642 0.18763 0.57333 0.0
C917 C 0.57992 0.20351 0.58391 0.0
H918 H 0.62051 0.14287 0.54609 0.0
C919 C 0.54648 0.18556 0.57453 0.0
H920 H 0.63248 0.20085 0.58012 0.0
C921 C 0.5397 0.15282 0.55445 0.0
C922 C 0.56617 0.13696 0.54382 0.0
H923 H 0.52553 0.1972 0.58204 0.0
H924 H 0.51362 0.13979 0.54752 0.0
C925 C 0.5996 0.15449 0.55379 0.0
C926 C 0.58587 0.74847 0.25964 0.0
C927 C 0.5792 0.74112 0.29178 0.0
H928 H 0.62195 0.75315 0.22286 0.0
C929 C 0.60371 0.72955 0.31061 0.0
H930 H 0.56747 0.75727 0.24444 0.0
C931 C 0.63455 0.72646 0.29799 0.0
C932 C 0.64177 0.73537 0.26644 0.0
H933 H 0.59924 0.72324 0.33532 0.0
H934 H 0.65327 0.71849 0.31347 0.0
C935 C 0.61697 0.74592 0.24721 0.0
C936 C 0.01037 0.13269 0.4566 0.0
C937 C 0.04019 0.15898 0.45737 0.0
H938 H 0.98825 0.07799 0.46106 0.0
C939 C 0.07144 0.14997 0.46362 0.0
H940 H 0.98601 0.13911 0.45175 0.0
C941 C 0.07265 0.1152 0.47005 0.0
C942 C 0.0427 0.08893 0.4691 0.0
H943 H 0.0947 0.16998 0.46443 0.0
H944 H 0.09689 0.10872 0.4754 0.0
C945 C 0.01165 0.09782 0.46185 0.0
C946 C 0.61713 0.25587 0.15225 0.0
C947 C 0.58983 0.22905 0.15886 0.0
H948 H 0.67035 0.2779 0.16012 0.0
C949 C 0.59606 0.20261 0.17799 0.0
H950 H 0.61321 0.27643 0.13738 0.0
C951 C 0.62862 0.20347 0.19092 0.0
C952 C 0.65575 0.23058 0.18479 0.0
H953 H 0.57563 0.18158 0.18361 0.0
H954 H 0.63244 0.18326 0.20625 0.0
C955 C 0.64986 0.25652 0.16499 0.0
C956 C 0.55704 0.91187 0.95891 0.0
C957 C 0.57713 0.89526 0.97801 0.0
H958 H 0.53385 0.95616 0.95593 0.0
C959 C 0.59405 0.91424 0.00728 0.0
H960 H 0.54249 0.89728 0.93706 0.0
C961 C 0.59066 0.94942 0.01719 0.0
C962 C 0.56888 0.96507 -0.00118 0.0
H963 H 0.60868 0.90141 0.02301 0.0
H964 H 0.6035 0.9635 0.04 0.0
C965 C 0.55212 0.94578 0.96973 0.0
C966 C 0.90613 0.77299 0.67964 0.0
C967 C 0.9166 0.74125 0.68483 0.0
H968 H 0.87211 0.80752 0.69244 0.0
C969 C 0.9027 0.72209 0.71007 0.0
H970 H 0.91645 0.78852 0.66057 0.0
C971 C 0.87779 0.73305 0.72834 0.0
C972 C 0.86589 0.76358 0.72207 0.0
H973 H 0.91038 0.69783 0.71525 0.0
H974 H 0.8669 0.71667 0.74666 0.0
C975 C 0.88097 0.78406 0.69812 0.0
C976 C 0.09607 0.02368 0.89602 0.0
C977 C 0.08869 0.99524 0.87079 0.0
H978 H 0.08101 0.04776 0.94006 0.0
C979 C 0.06306 0.96525 0.87418 0.0
H980 H 0.11485 0.04761 0.89339 0.0
C981 C 0.04412 0.96469 0.9021 0.0
C982 C 0.05022 0.99453 0.92625 0.0
H983 H 0.05618 0.94355 0.85438 0.0
H984 H 0.02362 0.94205 0.90384 0.0
C985 C 0.07669 0.02364 0.92298 0.0
C986 C 0.70877 0.27512 0.57451 0.0
C987 C 0.71619 0.31185 0.57125 0.0
H988 H 0.70499 0.23582 0.60792 0.0
C989 C 0.71504 0.33675 0.59842 0.0
H990 H 0.70896 0.25547 0.55358 0.0
C991 C 0.71297 0.3255 0.62953 0.0
C992 C 0.71178 0.2894 0.63323 0.0
H993 H 0.72052 0.36518 0.59633 0.0
H994 H 0.71649 0.34558 0.65073 0.0
C995 C 0.70671 0.2639 0.60553 0.0
C996 C 0.54863 0.08102 0.35348 0.0
C997 C 0.51352 0.07551 0.34703 0.0
H998 H 0.58908 0.08239 0.38908 0.0
C999 C 0.49251 0.07371 0.3732 0.0
H1000 H 0.56537 0.08288 0.33362 0.0
C1001 C 0.50614 0.07302 0.40487 0.0
C1002 C 0.54075 0.0745 0.41063 0.0
H1003 H 0.46538 0.06961 0.36884 0.0
H1004 H 0.48945 0.06935 0.42447 0.0
C1005 C 0.56221 0.08081 0.38517 0.0
C1006 C 0.77053 0.69415 0.10003 0.0
C1007 C 0.78049 0.72158 0.08026 0.0
H1008 H 0.76239 0.6808 0.14884 0.0
C1009 C 0.79271 0.75677 0.095 0.0
H1010 H 0.76051 0.66687 0.08903 0.0
C1011 C 0.7947 0.76449 0.12912 0.0
C1012 C 0.78312 0.73738 0.14879 0.0
H1013 H 0.80018 0.77831 0.08011 0.0
H1014 H 0.80395 0.79192 0.14002 0.0
C1015 C 0.77128 0.7021 0.13407 0.0
C1016 C 0.06774 0.01968 0.6778 0.0
C1017 C 0.09335 0.00398 0.68986 0.0
H1018 H 0.04348 0.03474 0.63619 0.0
C1019 C 0.11384 0.98975 0.66759 0.0
H1020 H 0.0515 0.03102 0.69416 0.0
C1021 C 0.10906 0.99189 0.63394 0.0
C1022 C 0.08406 0.00865 0.62233 0.0
H1023 H 0.13397 0.97778 0.67618 0.0
H1024 H 0.12496 0.98068 0.6171 0.0
C1025 C 0.06337 0.02225 0.64452 0.0
C1026 C 0.74568 0.31875 0.38113 0.0
C1027 C 0.75202 0.2986 0.40616 0.0
H1028 H 0.74083 0.3205 0.32938 0.0
C1029 C 0.75393 0.26258 0.39828 0.0
H1030 H 0.74417 0.34652 0.3866 0.0
C1031 C 0.75143 0.24751 0.3656 0.0
C1032 C 0.74765 0.26859 0.34067 0.0
H1033 H 0.75856 0.24646 0.41733 0.0
H1034 H 0.75445 0.22027 0.35982 0.0
C1035 C 0.74391 0.30393 0.34852 0.0
C1036 C 0.48368 0.10153 0.15422 0.0
C1037 C 0.50621 0.09592 0.17895 0.0
H1038 H 0.4767 0.10777 0.10343 0.0
C1039 C 0.54087 0.10194 0.1741 0.0
H1040 H 0.45686 0.09718 0.15755 0.0
C1041 C 0.55225 0.10831 0.14342 0.0
C1042 C 0.52903 0.10846 0.11726 0.0
H1043 H 0.5588 0.09848 0.19317 0.0
H1044 H 0.57864 0.10944 0.13942 0.0
C1045 C 0.49509 0.1077 0.12332 0.0
C1046 C 0.75409 0.71719 0.87329 0.0
C1047 C 0.77871 0.72714 0.8994 0.0
H1048 H 0.7384 0.72478 0.82505 0.0
C1049 C 0.80853 0.75222 0.89575 0.0
H1050 H 0.7308 0.69813 0.8757 0.0
C1051 C 0.81283 0.76823 0.86655 0.0
C1052 C 0.78752 0.75887 0.84072 0.0
H1053 H 0.82765 0.76057 0.9159 0.0
H1054 H 0.83538 0.78843 0.8645 0.0
C1055 C 0.75853 0.73258 0.84426 0.0
C1056 C 0.86709 0.07855 0.02917 0.0
C1057 C 0.85107 0.08105 -0.00126 0.0
H1058 H 0.90163 0.05456 0.05516 0.0
C1059 C 0.85486 0.05714 0.97144 0.0
H1060 H 0.86438 0.09622 0.05078 0.0
C1061 C 0.87629 0.03324 0.97396 0.0
C1062 C 0.89406 0.03251 0.0039 0.0
H1063 H 0.84269 0.05815 0.94767 0.0
H1064 H 0.88045 0.01686 0.95204 0.0
C1065 C 0.8882 0.05439 0.03176 0.0
C1066 C 0.38271 0.45959 0.05696 0.0
C1067 C 0.37406 0.43559 0.02824 0.0
H1068 H 0.42022 0.50238 0.08298 0.0
C1069 C 0.39471 0.43908 0.00179 0.0
H1070 H 0.36714 0.45704 0.07767 0.0
C1071 C 0.4245 0.46532 0.00447 0.0
C1072 C 0.43452 0.48772 0.03401 0.0
H1073 H 0.38837 0.42064 0.97946 0.0
H1074 H 0.44056 0.46663 0.98412 0.0
C1075 C 0.41297 0.48537 0.05993 0.0
C1076 C 0.33364 0.62694 0.78078 0.0
C1077 C 0.33973 0.6098 0.75039 0.0
H1078 H 0.31471 0.66948 0.80613 0.0
C1079 C 0.32831 0.6215 0.72147 0.0
H1080 H 0.34202 0.61865 0.80352 0.0
C1081 C 0.31179 0.65022 0.723 0.0
C1082 C 0.30706 0.6682 0.75348 0.0
H1083 H 0.33244 0.60871 0.69766 0.0
H1084 H 0.30415 0.65939 0.70041 0.0
C1085 C 0.31789 0.65603 0.78229 0.0
C1086 C 0.1711 0.61232 0.459 0.0
C1087 C 0.19688 0.60912 0.48173 0.0
H1088 H 0.11926 0.5933 0.44118 0.0
C1089 C 0.1914 0.5809 0.50116 0.0
H1090 H 0.17485 0.63388 0.44373 0.0
C1091 C 0.15954 0.55841 0.50019 0.0
C1092 C 0.13327 0.56317 0.47902 0.0
H1093 H 0.21082 0.57804 0.519 0.0
H1094 H 0.15492 0.53854 0.51718 0.0
C1095 C 0.13948 0.58914 0.4574 0.0
C1096 C 0.72015 0.93848 0.71619 0.0
C1097 C 0.71586 0.95991 0.74488 0.0
H1098 H 0.7425 0.89658 0.69502 0.0
C1099 C 0.73575 0.9593 0.77367 0.0
H1100 H 0.70569 0.93881 0.69347 0.0
C1101 C 0.75707 0.93509 0.7745 0.0
C1102 C 0.75875 0.91137 0.74652 0.0
H1103 H 0.73324 0.97581 0.79611 0.0
H1104 H 0.77009 0.93307 0.79757 0.0
C1105 C 0.74144 0.91447 0.71701 0.0
C1106 C 0.69069 0.94538 0.52331 0.0
C1107 C 0.71947 0.95587 0.50592 0.0
H1108 H 0.6417 0.95346 0.53467 0.0
C1109 C 0.7211 0.98497 0.48756 0.0
H1110 H 0.68855 0.9232 0.53778 0.0
C1111 C 0.69416 0.00249 0.48594 0.0
C1112 C 0.66505 0.99112 0.5025 0.0
H1113 H 0.74291 0.99382 0.47394 0.0
H1114 H 0.69576 0.02429 0.47106 0.0
C1115 C 0.66379 0.96273 0.52153 0.0
C1116 C 0.31272 0.40011 0.68172 0.0
C1117 C 0.32967 0.42537 0.70738 0.0
H1118 H 0.27872 0.34916 0.66871 0.0
C1119 C 0.32488 0.41909 0.74003 0.0
H1120 H 0.31683 0.40418 0.65642 0.0
C1121 C 0.30474 0.38709 0.74699 0.0
C1122 C 0.28823 0.36162 0.72138 0.0
H1123 H 0.33852 0.43787 0.76014 0.0
H1124 H 0.30234 0.38207 0.77232 0.0
C1125 C 0.29139 0.3687 0.68874 0.0
C1126 C 0.15936 0.65094 0.25152 0.0
C1127 C 0.16812 0.61825 0.25576 0.0
H1128 H 0.17704 0.70682 0.24874 0.0
C1129 C 0.20197 0.61788 0.26452 0.0
H1130 H 0.13356 0.65215 0.24482 0.0
C1131 C 0.22683 0.64954 0.26746 0.0
C1132 C 0.21809 0.68156 0.26101 0.0
H1133 H 0.20936 0.59303 0.26813 0.0
H1134 H 0.25297 0.64864 0.27289 0.0
C1135 C 0.18419 0.68221 0.25374 0.0
C1136 C 0.48599 0.66272 0.46424 0.0
C1137 C 0.50463 0.67652 0.43876 0.0
H1138 H 0.48075 0.6263 0.50032 0.0
C1139 C 0.53537 0.66628 0.43279 0.0
H1140 H 0.46246 0.6703 0.46988 0.0
C1141 C 0.54615 0.64117 0.45072 0.0
C1142 C 0.52624 0.62581 0.47473 0.0
H1143 H 0.55052 0.6767 0.41355 0.0
H1144 H 0.56886 0.63219 0.44437 0.0
C1145 C 0.49662 0.63765 0.48191 0.0
C1146 C 0.68427 0.35416 0.72462 0.0
C1147 C 0.65318 0.32924 0.71914 0.0
H1148 H 0.73352 0.36768 0.74998 0.0
C1149 C 0.64565 0.3026 0.74011 0.0
H1150 H 0.69079 0.37487 0.7087 0.0
C1151 C 0.67032 0.29817 0.76322 0.0
C1152 C 0.70247 0.32101 0.76653 0.0
H1153 H 0.62211 0.28282 0.73632 0.0
H1154 H 0.66528 0.27495 0.77646 0.0
C1155 C 0.70864 0.35029 0.74845 0.0
C1156 C 0.01264 0.36476 0.91421 0.0
C1157 C 0.9789 0.34584 0.91237 0.0
H1158 H 0.04809 0.41365 0.93069 0.0
C1159 C 0.95438 0.36326 0.92547 0.0
H1160 H 0.03216 0.35211 0.90445 0.0
C1161 C 0.96346 0.39874 0.94025 0.0
C1162 C 0.99733 0.41739 0.9427 0.0
H1163 H 0.92813 0.34945 0.92439 0.0
H1164 H 0.94401 0.41132 0.95026 0.0
C1165 C 0.02178 0.40001 0.92942 0.0
C1166 C 0.96945 0.84515 0.20948 0.0
C1167 C 0.9845 0.8159 0.20076 0.0
H1168 H 0.92709 0.86305 0.22981 0.0
C1169 C 0.96849 0.78196 0.20825 0.0
H1170 H 0.9811 0.87173 0.20417 0.0
C1171 C 0.93783 0.77717 0.2232 0.0
C1172 C 0.92222 0.80611 0.23087 0.0
H1173 H 0.97938 0.75889 0.20212 0.0
H1174 H 0.92586 0.75046 0.22794 0.0
C1175 C 0.93854 0.84028 0.22427 0.0
C1176 C 0.53217 0.37337 0.06428 0.0
C1177 C 0.50488 0.3461 0.0508 0.0
H1178 H 0.55915 0.42728 0.06409 0.0
C1179 C 0.48465 0.35251 0.02431 0.0
H1180 H 0.54844 0.36932 0.0845 0.0
C1181 C 0.49085 0.38591 0.01241 0.0
C1182 C 0.5174 0.41361 0.02679 0.0
H1183 H 0.46348 0.33201 0.01321 0.0
H1184 H 0.47409 0.39038 -0.00721 0.0
C1185 C 0.53834 0.40666 0.05246 0.0
C1186 C 0.96068 0.28245 0.34499 0.0
C1187 C 0.95631 0.27559 0.37761 0.0
H1188 H 0.93792 0.29434 0.30054 0.0
C1189 C 0.9251 0.27691 0.39075 0.0
H1190 H 0.98451 0.28203 0.33427 0.0
C1191 C 0.89865 0.28401 0.37156 0.0
C1192 C 0.90283 0.2903 0.33889 0.0
H1193 H 0.92086 0.27197 0.41584 0.0
H1194 H 0.87468 0.28393 0.38217 0.0
C1195 C 0.93418 0.28991 0.32582 0.0
C1196 C 0.95394 0.6049 0.53045 0.0
C1197 C 0.97558 0.6384 0.54008 0.0
H1198 H 0.94694 0.55414 0.50066 0.0
C1199 C 1.00553 0.64782 0.52412 0.0
H1200 H 0.93093 0.59687 0.54264 0.0
C1201 C 0.01523 0.62299 0.50129 0.0
C1202 C 0.99449 0.58896 0.49299 0.0
H1203 H 0.02296 0.67323 0.53135 0.0
H1204 H 0.03967 0.62978 0.49124 0.0
C1205 C 0.96308 0.58053 0.50653 0.0
C1206 C 0.63432 0.81337 0.81302 0.0
C1207 C 0.6215 0.78955 0.8354 0.0
H1208 H 0.66937 0.82596 0.77632 0.0
C1209 C 0.63329 0.75763 0.83539 0.0
H1210 H 0.62584 0.83815 0.81217 0.0
C1211 C 0.65792 0.75027 0.81423 0.0
C1212 C 0.67174 0.7749 0.79288 0.0
H1213 H 0.62387 0.73853 0.85211 0.0
H1214 H 0.66726 0.72608 0.81573 0.0
C1215 C 0.65924 0.80629 0.79229 0.0
C1216 C 0.46388 0.51177 0.61368 0.0
C1217 C 0.46986 0.53759 0.64116 0.0
H1218 H 0.47942 0.49427 0.56731 0.0
C1219 C 0.49536 0.56855 0.64131 0.0
H1220 H 0.44468 0.48743 0.61334 0.0
C1221 C 0.51556 0.57272 0.61445 0.0
C1222 C 0.51034 0.54586 0.58751 0.0
H1223 H 0.50076 0.5884 0.66271 0.0
H1224 H 0.5359 0.59611 0.61525 0.0
C1225 C 0.4839 0.51576 0.5873 0.0
C1226 C 0.8602 0.28025 0.93081 0.0
C1227 C 0.85387 0.24403 0.93615 0.0
H1228 H 0.85409 0.31733 0.8969 0.0
C1229 C 0.84724 0.21747 0.90913 0.0
H1230 H 0.86598 0.30122 0.95134 0.0
C1231 C 0.83987 0.22668 0.87818 0.0
C1232 C 0.84014 0.26246 0.8741 0.0
H1233 H 0.84258 0.18938 0.91253 0.0
H1234 H 0.83079 0.20545 0.8583 0.0
C1235 C 0.85282 0.28946 0.89987 0.0
C1236 C 0.08508 0.5064 0.1108 0.0
C1237 C 0.06469 0.49307 0.13511 0.0
H1238 H 0.08615 0.5206 0.06209 0.0
C1239 C 0.03052 0.47713 0.12719 0.0
H1240 H 0.11134 0.5194 0.11676 0.0
C1241 C 0.01623 0.47682 0.09567 0.0
C1242 C 0.03583 0.49344 0.07218 0.0
H1243 H 0.01445 0.46703 0.14596 0.0
H1244 H 0.9894 0.46616 0.09055 0.0
C1245 C 0.0706 0.50704 0.07957 0.0
C1246 C 0.78882 0.84466 0.40331 0.0
C1247 C 0.77212 0.8174 0.42075 0.0
H1248 H 0.80598 0.85883 0.35671 0.0
C1249 C 0.75809 0.78357 0.40382 0.0
H1250 H 0.80053 0.87076 0.41606 0.0
C1251 C 0.76069 0.77703 0.37006 0.0
C1252 C 0.77847 0.8038 0.35279 0.0
H1253 H 0.74565 0.76202 0.41684 0.0
H1254 H 0.7497 0.75059 0.3576 0.0
C1255 C 0.79243 0.83774 0.3696 0.0
C1256 C 0.44101 0.47584 0.82595 0.0
C1257 C 0.44437 0.50819 0.81206 0.0
H1258 H 0.45003 0.45041 0.86839 0.0
C1259 C 0.45863 0.54051 0.83148 0.0
H1260 H 0.42972 0.45051 0.81158 0.0
C1261 C 0.47074 0.54028 0.86383 0.0
C1262 C 0.46803 0.50783 0.87737 0.0
H1263 H 0.46146 0.56575 0.82138 0.0
H1264 H 0.48255 0.56549 0.87814 0.0
C1265 C 0.45245 0.4757 0.85844 0.0
C1266 C 0.81495 0.22029 0.12951 0.0
C1267 C 0.8187 0.24616 0.10774 0.0
H1268 H 0.80998 0.21001 0.17926 0.0
C1269 C 0.82393 0.28262 0.11994 0.0
H1270 H 0.81068 0.19207 0.12059 0.0
C1271 C 0.82398 0.29297 0.15351 0.0
C1272 C 0.8179 0.26687 0.17494 0.0
H1273 H 0.82696 0.30299 0.10341 0.0
H1274 H 0.82717 0.32107 0.1625 0.0
C1275 C 0.81413 0.23056 0.16292 0.0
C1276 C 0.02202 0.46254 0.30617 0.0
C1277 C 0.05603 0.4642 0.30004 0.0
H1278 H 0.98585 0.45987 0.34246 0.0
C1279 C 0.07752 0.4543 0.32332 0.0
H1280 H 1.00477 0.46916 0.28814 0.0
C1281 C 0.06661 0.4489 0.35445 0.0
C1282 C 0.0343 0.45344 0.36215 0.0
H1283 H 0.10373 0.45492 0.31891 0.0
H1284 H 0.08468 0.4454 0.37336 0.0
C1285 C 0.01115 0.45711 0.33717 0.0
C1286 C 0.77956 0.82528 0.6325 0.0
C1287 C 0.76001 0.80828 0.60405 0.0
H1288 H 0.79168 0.82391 0.68333 0.0
C1289 C 0.73447 0.77786 0.60619 0.0
H1290 H 0.79996 0.8482 0.63125 0.0
C1291 C 0.72902 0.7643 0.63638 0.0
C1292 C 0.74966 0.78043 0.66466 0.0
H1293 H 0.71958 0.7639 0.58433 0.0
H1294 H 0.70978 0.74029 0.63725 0.0
C1295 C 0.7747 0.81131 0.66236 0.0
C1296 C 0.69714 0.4715 0.48002 0.0
C1297 C 0.71442 0.46915 0.50979 0.0
H1298 H 0.66036 0.49406 0.45581 0.0
C1299 C 0.71035 0.49195 0.53784 0.0
H1300 H 0.70001 0.45472 0.45788 0.0
C1301 C 0.68753 0.51463 0.53665 0.0
C1302 C 0.6686 0.51504 0.50734 0.0
H1303 H 0.72348 0.491 0.56113 0.0
H1304 H 0.68327 0.53015 0.55905 0.0
C1305 C 0.67459 0.49429 0.4788 0.0
C1306 C 0.16731 0.06647 0.49118 0.0
C1307 C 0.18147 0.07733 0.46241 0.0
H1308 H 0.12813 0.03069 0.51183 0.0
C1309 C 0.16923 0.05762 0.43209 0.0
H1310 H 0.17619 0.08182 0.51476 0.0
C1311 C 0.14193 0.02837 0.43039 0.0
C1312 C 0.12619 0.01892 0.45895 0.0
H1313 H 0.17954 0.06602 0.40963 0.0
H1314 H 0.13181 0.01464 0.4065 0.0
C1315 C 0.13984 0.03739 0.48949 0.0
C1316 C 0.25295 0.92902 0.8008 0.0
C1317 C 0.22372 0.93289 0.78307 0.0
H1318 H 0.28871 0.89621 0.80817 0.0
C1319 C 0.20935 0.9064 0.75715 0.0
H1320 H 0.26474 0.94893 0.82089 0.0
C1321 C 0.2232 0.8764 0.7497 0.0
C1322 C 0.25183 0.8719 0.76798 0.0
H1323 H 0.18701 0.90854 0.74277 0.0
H1324 H 0.21089 0.85633 0.72994 0.0
C1325 C 0.26681 0.89884 0.79338 0.0
C1326 C 0.38049 0.9739 0.97905 0.0
C1327 C 0.37295 0.9589 0.00817 0.0
H1328 H 0.41895 0.00324 0.95236 0.0
C1329 C 0.39726 0.96611 0.03474 0.0
H1330 H 0.3622 0.96809 0.95811 0.0
C1331 C 0.42931 0.98684 0.03171 0.0
C1332 C 0.43766 -0.00072 0.00167 0.0
H1333 H 0.39193 0.95433 0.05723 0.0
H1334 H 0.44818 0.99112 0.05206 0.0
C1335 C 0.41291 0.99351 0.97563 0.0
C1336 C 0.82995 0.60469 0.7351 0.0
C1337 C 0.8361 0.59417 0.76611 0.0
H1338 H 0.80164 0.63275 0.70611 0.0
C1339 C 0.8154 0.60149 0.79135 0.0
H1340 H 0.84521 0.59904 0.71504 0.0
C1341 C 0.7906 0.62113 0.7863 0.0
C1342 C 0.78549 0.63297 0.75568 0.0
H1343 H 0.81944 0.59358 0.81547 0.0
H1344 H 0.77645 0.62842 0.80674 0.0
C1345 C 0.80465 0.62355 0.72984 0.0
C1346 C 0.87769 0.60334 0.94063 0.0
C1347 C 0.85214 0.60255 0.96261 0.0
H1348 H 0.92406 0.58814 0.92945 0.0
C1349 C 0.85279 0.58302 0.98961 0.0
H1350 H 0.87788 0.61809 0.91961 0.0
C1351 C 0.87902 0.5654 -0.00503 0.0
C1352 C 0.90525 0.56759 0.97373 0.0
H1353 H 0.83328 0.58175 0.00685 0.0
H1354 H 0.87938 0.55114 0.01626 0.0
C1355 C 0.90416 0.58628 0.94631 0.0
C1356 C 0.19221 0.13767 0.76157 0.0
C1357 C 0.20248 0.11499 0.78269 0.0
H1358 H 0.20595 0.18426 0.73731 0.0
C1359 C 0.23586 0.12313 0.79643 0.0
H1360 H 0.16681 0.13168 0.75005 0.0
C1361 C 0.25824 0.15432 0.78982 0.0
C1362 C 0.24761 0.17693 0.7687 0.0
H1363 H 0.24436 0.10587 0.8126 0.0
H1364 H 0.28376 0.16063 0.80101 0.0
C1365 C 0.21461 0.1679 0.75428 0.0
C1366 C 0.41492 0.91252 0.25297 0.0
C1367 C 0.40489 0.94211 0.24168 0.0
H1368 H 0.39956 0.85869 0.26402 0.0
C1369 C 0.37104 0.93892 0.23046 0.0
H1370 H 0.44078 0.91426 0.26193 0.0
C1371 C 0.34754 0.90668 0.23095 0.0
C1372 C 0.35747 0.87777 0.24364 0.0
H1373 H 0.36273 0.96139 0.22161 0.0
H1374 H 0.32146 0.90477 0.22261 0.0
C1375 C 0.39133 0.88082 0.25436 0.0
C1376 C 0.53052 0.38502 0.57857 0.0
C1377 C 0.5614 0.37468 0.57376 0.0
H1378 H 0.49725 0.41847 0.56471 0.0
C1379 C 0.58047 0.38736 0.54808 0.0
H1380 H 0.51507 0.37542 0.59792 0.0
C1381 C 0.57012 0.41139 0.52901 0.0
C1382 C 0.54039 0.42341 0.53499 0.0
H1383 H 0.60407 0.37955 0.54319 0.0
H1384 H 0.58629 0.42184 0.51044 0.0
C1385 C 0.52007 0.40923 0.55927 0.0
C1386 C 0.41642 0.74658 0.27383 0.0
C1387 C 0.40777 0.72171 0.29634 0.0
H1388 H 0.39817 0.77411 0.23652 0.0
C1389 C 0.37503 0.69996 0.29349 0.0
H1390 H 0.44129 0.764 0.27566 0.0
C1391 C 0.35067 0.70499 0.27026 0.0
C1392 C 0.35854 0.73243 0.25023 0.0
H1393 H 0.36764 0.68075 0.31067 0.0
H1394 H 0.32496 0.68985 0.27019 0.0
C1395 C 0.3918 0.75236 0.25139 0.0
C1396 C 0.04375 0.68093 0.07724 0.0
C1397 C 0.07732 0.70037 0.08106 0.0
H1398 H 0.00924 0.63293 0.05639 0.0
C1399 C 0.10252 0.68457 0.06706 0.0
H1400 H 0.02372 0.69231 0.08758 0.0
C1401 C 0.09431 0.65032 0.0494 0.0
C1402 C 0.06062 0.63128 0.04483 0.0
H1403 H 0.12869 0.69877 0.06961 0.0
H1404 H 0.11429 0.63906 0.03881 0.0
C1405 C 0.03546 0.64694 0.05913 0.0
C1406 C 0.07647 0.27321 0.76384 0.0
C1407 C 0.06578 0.25448 0.79035 0.0
H1408 H 0.11605 0.28786 0.7318 0.0
C1409 C 0.08665 0.23378 0.80349 0.0
H1410 H 0.06095 0.28928 0.75309 0.0
C1411 C 0.11793 0.23267 0.79107 0.0
C1412 C 0.12911 0.25244 0.76543 0.0
H1413 H 0.07906 0.21875 0.82374 0.0
H1414 H 0.13376 0.21716 0.80222 0.0
C1415 C 0.10796 0.27233 0.75159 0.0
C1416 C 0.55756 0.68505 0.98334 0.0
C1417 C 0.52835 0.69611 0.97328 0.0
H1418 H 0.57782 0.64338 0.00219 0.0
C1419 C 0.49666 0.67305 0.974 0.0
H1420 H 0.58219 0.70257 0.98323 0.0
C1421 C 0.49419 0.63917 0.98408 0.0
C1422 C 0.52326 0.62834 -0.00516 0.0
H1423 H 0.47379 0.68114 0.96638 0.0
H1424 H 0.46955 0.62154 0.98376 0.0
C1425 C 0.55498 0.65155 -0.00544 0.0
C1426 C 0.0928 0.68709 0.68338 0.0
C1427 C 0.08367 0.71067 0.66248 0.0
H1428 H 0.13266 0.67311 0.71172 0.0
C1429 C 0.10916 0.73699 0.65201 0.0
H1430 H 0.07382 0.66632 0.69167 0.0
C1431 C 0.14288 0.74034 0.66297 0.0
C1432 C 0.15174 0.71774 0.68491 0.0
H1433 H 0.10306 0.75525 0.63555 0.0
H1434 H 0.16183 0.76152 0.65521 0.0
C1435 C 0.1265 0.69077 0.69468 0.0
C1436 C 0.08753 0.37774 0.50822 0.0
C1437 C 0.07156 0.35999 0.47815 0.0
H1438 H 0.09589 0.42569 0.54249 0.0
C1439 C 0.0519 0.3773 0.45927 0.0
H1440 H 0.10189 0.36433 0.52365 0.0
C1441 C 0.04664 0.41082 0.47093 0.0
C1442 C 0.06248 0.42888 0.50082 0.0
H1443 H 0.03816 0.36357 0.4367 0.0
H1444 H 0.02889 0.42186 0.45711 0.0
C1445 C 0.08372 0.41249 0.51911 0.0
C1446 C 0.4108 0.28872 0.17681 0.0
C1447 C 0.42506 0.25943 0.1825 0.0
H1448 H 0.37266 0.31811 0.18951 0.0
C1449 C 0.41481 0.24051 0.20902 0.0
H1450 H 0.41836 0.30395 0.1567 0.0
C1451 C 0.38924 0.24881 0.22787 0.0
C1452 C 0.37305 0.2762 0.2207 0.0
H1453 H 0.42573 0.21827 0.21459 0.0
H1454 H 0.38095 0.23246 0.24707 0.0
C1455 C 0.38487 0.29702 0.19577 0.0
C1456 C 0.60738 0.53444 0.39586 0.0
C1457 C 0.60274 0.50807 0.36884 0.0
H1458 H 0.58895 0.55364 0.44017 0.0
C1459 C 0.57689 0.47727 0.36822 0.0
H1460 H 0.62673 0.55873 0.3966 0.0
C1461 C 0.55508 0.47392 0.39401 0.0
C1462 C 0.5589 0.50154 0.4202 0.0
H1463 H 0.57234 0.45706 0.3471 0.0
H1464 H 0.53461 0.45062 0.39283 0.0
C1465 C 0.58553 0.5315 0.42085 0.0
C1466 C 0.25182 0.78456 0.06548 0.0
C1467 C 0.24831 0.81985 0.0635 0.0
H1468 H 0.25554 0.7446 0.09691 0.0
C1469 C 0.23799 0.83916 0.09066 0.0
H1470 H 0.25902 0.76879 0.04459 0.0
C1471 C 0.23587 0.82515 0.12064 0.0
C1472 C 0.24407 0.79184 0.12349 0.0
H1473 H 0.2348 0.86628 0.08965 0.0
H1474 H 0.23088 0.84173 0.14209 0.0
C1475 C 0.2498 0.77065 0.09535 0.0
C1476 C 0.0205 0.58788 0.86134 0.0
C1477 C 0.9872 0.56906 0.85245 0.0
H1478 H 0.06312 0.59663 0.89635 0.0
C1479 C 0.96966 0.5478 0.87428 0.0
H1480 H 0.03475 0.60354 0.84422 0.0
C1481 C 0.98632 0.54233 0.903 0.0
C1482 C 0.02035 0.55923 0.91104 0.0
H1483 H 0.94444 0.53205 0.86733 0.0
H1484 H 0.97312 0.52285 0.91768 0.0
C1485 C 0.03689 0.58336 0.89074 0.0
C1486 C 0.28685 0.22156 0.59162 0.0
C1487 C 0.25587 0.21679 0.57332 0.0
H1488 H 0.31339 0.23521 0.63907 0.0
C1489 C 0.22727 0.22213 0.58966 0.0
H1490 H 0.30928 0.21758 0.57973 0.0
C1491 C 0.22944 0.23148 0.62357 0.0
C1492 C 0.26038 0.23637 0.64188 0.0
H1493 H 0.20293 0.2184 0.57633 0.0
H1494 H 0.20689 0.23517 0.6354 0.0
C1495 C 0.28916 0.23165 0.62556 0.0
C1496 C 0.62314 0.51849 0.17483 0.0
C1497 C 0.61883 0.54384 0.20059 0.0
H1498 H 0.6137 0.49993 0.12354 0.0
C1499 C 0.60214 0.5711 0.19379 0.0
H1500 H 0.63618 0.49743 0.17927 0.0
C1501 C 0.58937 0.57254 0.16207 0.0
C1502 C 0.5933 0.54697 0.13648 0.0
H1503 H 0.5985 0.59118 0.21309 0.0
H1504 H 0.57595 0.59332 0.1577 0.0
C1505 C 0.61061 0.52016 0.14294 0.0
C1506 C 0.28684 0.80238 0.8883 0.0
C1507 C 0.26894 0.82871 0.89882 0.0
H1508 H 0.29238 0.76147 0.85073 0.0
C1509 C 0.24197 0.83359 0.87852 0.0
H1510 H 0.30747 0.79746 0.9035 0.0
C1511 C 0.23361 0.81293 0.84796 0.0
C1512 C 0.25201 0.7871 0.83753 0.0
H1513 H 0.22763 0.85349 0.88606 0.0
H1514 H 0.21325 0.81766 0.83227 0.0
C1515 C 0.27825 0.78162 0.85812 0.0
C1516 C 0.0351 0.58495 0.67825 0.0
C1517 C 1.00059 0.58316 0.68219 0.0
H1518 H 0.07287 0.58135 0.64414 0.0
C1519 C 0.97937 0.58621 0.65531 0.0
H1520 H 0.05204 0.58329 0.69888 0.0
C1521 C 0.99131 0.58489 0.624 0.0
C1522 C 0.02451 0.58101 0.61964 0.0
H1523 H 0.9527 0.58495 0.6578 0.0
H1524 H 0.9735 0.58259 0.60307 0.0
C1525 C 0.047 0.58372 0.64702 0.0
C1526 C 0.3001 0.22078 0.37653 0.0
C1527 C 0.27953 0.23385 0.39943 0.0
H1528 H 0.32149 0.2257 0.32979 0.0
C1529 C 0.2678 0.26483 0.39405 0.0
H1530 H 0.30941 0.19693 0.3799 0.0
C1531 C 0.27497 0.28131 0.36576 0.0
C1532 C 0.29387 0.26712 0.3421 0.0
H1533 H 0.25206 0.27576 0.41126 0.0
H1534 H 0.26428 0.30412 0.36157 0.0
C1535 C 0.30694 0.23714 0.34788 0.0
C1536 C 0.36937 0.57516 0.52456 0.0
C1537 C 0.35196 0.57708 0.49474 0.0
H1538 H 0.40649 0.55329 0.54903 0.0
C1539 C 0.35674 0.55472 0.46667 0.0
H1540 H 0.36595 0.59161 0.54672 0.0
C1541 C 0.3801 0.53266 0.468 0.0
C1542 C 0.39881 0.53234 0.49747 0.0
H1543 H 0.34354 0.55538 0.44334 0.0
H1544 H 0.38471 0.5173 0.44564 0.0
C1545 C 0.3924 0.55291 0.52593 0.0
C1546 C 0.90589 0.90615 0.49586 0.0
C1547 C 0.88383 0.91844 0.51746 0.0
H1548 H 0.95372 0.91685 0.47532 0.0
C1549 C 0.89314 0.95337 0.53389 0.0
H1550 H 0.89909 0.87968 0.48221 0.0
C1551 C 0.92501 0.97476 0.53022 0.0
C1552 C 0.9475 0.96167 0.50953 0.0
H1553 H 0.87636 0.9636 0.55037 0.0
H1554 H 0.93244 0.00095 0.54428 0.0
C1555 C 0.93713 0.92762 0.49166 0.0
C1556 C 0.85188 0.12743 0.25751 0.0
C1557 C 0.83644 0.10054 0.23231 0.0
H1558 H 0.85133 0.17823 0.28429 0.0
C1559 C 0.80643 0.10415 0.2158 0.0
H1560 H 0.87491 0.12551 0.27086 0.0
C1561 C 0.7928 0.13434 0.22354 0.0
C1562 C 0.80878 0.1618 0.24804 0.0
H1563 H 0.79368 0.08392 0.19636 0.0
H1564 H 0.77018 0.13653 0.20966 0.0
C1565 C 0.83823 0.15766 0.26529 0.0
C1566 C 0.69971 0.10957 0.97681 0.0
C1567 C 0.70538 0.14717 0.98167 0.0
H1568 H 0.66271 0.05998 0.97125 0.0
C1569 C 0.67758 0.16361 0.98085 0.0
H1570 H 0.72067 0.09619 0.9771 0.0
C1571 C 0.64486 0.14302 0.97788 0.0
C1572 C 0.63925 0.10566 0.9749 0.0
H1573 H 0.68098 0.19247 0.9843 0.0
H1574 H 0.62386 0.15636 0.97932 0.0
C1575 C 0.66671 0.08887 0.97319 0.0
C1576 C 0.23523 0.46025 0.27198 0.0
C1577 C 0.21291 0.45998 0.24471 0.0
H1578 H 0.27048 0.43385 0.29422 0.0
C1579 C 0.21282 0.43551 0.21676 0.0
H1580 H 0.23607 0.47901 0.29379 0.0
C1581 C 0.23259 0.40999 0.21701 0.0
C1582 C 0.25283 0.40844 0.24516 0.0
H1583 H 0.19634 0.43495 0.19517 0.0
H1584 H 0.23061 0.39024 0.19572 0.0
C1585 C 0.25508 0.43459 0.2722 0.0
C1586 C 0.21028 0.47381 0.98196 0.0
C1587 C 0.20874 0.44445 -0.0 0.0
H1588 H 0.18521 0.51382 0.96654 0.0
C1589 C 0.18009 0.43384 0.01751 0.0
H1590 H 0.23199 0.48279 0.96825 0.0
C1591 C 0.15344 0.45169 0.01656 0.0
C1592 C 0.15476 0.48058 -0.00191 0.0
H1593 H 0.17803 0.41148 0.03175 0.0
H1594 H 0.13156 0.44252 0.03 0.0
C1595 C 0.18355 0.49169 0.98102 0.0
C1596 C 0.81836 0.91965 0.2344 0.0
C1597 C 0.82476 0.92273 0.20138 0.0
H1598 H 0.7968 0.88521 0.26913 0.0
C1599 C 0.80959 0.89468 0.17715 0.0
H1600 H 0.83032 0.94056 0.25365 0.0
C1601 C 0.78955 0.86339 0.18606 0.0
C1602 C 0.78585 0.8593 0.21932 0.0
H1603 H 0.81466 0.89625 0.15163 0.0
H1604 H 0.77888 0.84154 0.1672 0.0
C1605 C 0.79964 0.88787 0.24336 0.0
C1606 C 0.6943 0.11247 0.76515 0.0
C1607 C 0.65968 0.11069 0.75805 0.0
H1608 H 0.7439 0.14643 0.77374 0.0
C1609 C 0.64805 0.14258 0.75844 0.0
H1610 H 0.70393 0.08829 0.76537 0.0
C1611 C 0.67084 0.17546 0.76303 0.0
C1612 C 0.70554 0.1771 0.76798 0.0
H1613 H 0.62156 0.14218 0.75334 0.0
H1614 H 0.66149 0.19961 0.7611 0.0
C1615 C 0.71713 0.1456 0.77031 0.0
loop_
_geom_bond_atom_site_label_1
_geom_bond_atom_site_label_2
_geom_bond_distance
_geom_bond_site_symmetry_2
_ccdc_geom_bond_type
Zn0 O3 2.031 1_655 S
Zn0 O5 2.049 . S
Zn0 O10 2.067 . S
Zn1 O2 1.962 . S
Zn1 O4 1.986 . S
Zn1 O6 1.996 . S
Zn1 O9 1.943 . S
O2 Zn1 1.962 . S
O2 C7 1.254 . S
O3 Zn0 2.031 1_455 S
O3 C7 1.269 . S
O4 Zn1 1.986 . S
O4 C11 1.262 . S
O5 Zn0 2.049 . S
O5 C13 1.260 1_655 S
O6 Zn1 1.996 . S
O6 C13 1.257 . S
C7 O2 1.254 . S
C7 O3 1.269 . S
C8 O9 1.249 1_655 S
C8 O10 1.270 . S
O9 Zn1 1.943 . S
O9 C8 1.249 1_455 S
O10 Zn0 2.067 . S
O10 C8 1.270 . S
C11 O4 1.262 . S
C11 O12 1.232 . S
O12 C11 1.232 . S
C13 O5 1.260 1_455 S
C13 O6 1.257 . S
Zn14 O17 2.031 1_455 S
Zn14 O19 2.049 . S
Zn14 O24 2.067 . S
Zn15 O16 1.962 1_455 S
Zn15 O18 1.986 . S
Zn15 O20 1.996 . S
Zn15 O23 1.943 . S
O16 Zn15 1.962 1_655 S
O16 C21 1.254 . S
O17 Zn14 2.031 1_655 S
O17 C21 1.269 . S
O18 Zn15 1.986 . S
O18 C25 1.262 . S
O19 Zn14 2.049 . S
O19 C27 1.260 . S
O20 Zn15 1.996 . S
O20 C27 1.257 . S
C21 O16 1.254 . S
C21 O17 1.269 . S
C22 O23 1.249 . S
C22 O24 1.270 . S
O23 Zn15 1.943 . S
O23 C22 1.249 . S
O24 Zn14 2.067 . S
O24 C22 1.270 . S
C25 O18 1.262 . S
C25 O26 1.232 1_455 S
O26 C25 1.232 1_655 S
C27 O19 1.260 . S
C27 O20 1.257 . S
Zn28 O31 2.031 . S
Zn28 O33 2.049 . S
Zn28 O38 2.067 . S
Zn29 O30 1.962 . S
Zn29 O32 1.986 . S
Zn29 O34 1.996 . S
Zn29 O37 1.943 . S
O30 Zn29 1.962 . S
O30 C35 1.254 . S
O31 Zn28 2.031 . S
O31 C35 1.269 . S
O32 Zn29 1.986 . S
O32 C39 1.262 . S
O33 Zn28 2.049 . S
O33 C41 1.260 . S
O34 Zn29 1.996 . S
O34 C41 1.257 . S
C35 O30 1.254 . S
C35 O31 1.269 . S
C36 O37 1.249 . S
C36 O38 1.270 . S
O37 Zn29 1.943 . S
O37 C36 1.249 . S
O38 Zn28 2.067 . S
O38 C36 1.270 . S
C39 O32 1.262 . S
C39 O40 1.232 . S
O40 C39 1.232 . S
C41 O33 1.260 . S
C41 O34 1.257 . S
Zn42 O45 2.031 . S
Zn42 O47 2.049 . S
Zn42 O52 2.067 . S
Zn43 O44 1.962 . S
Zn43 O46 1.986 . S
Zn43 O48 1.996 . S
Zn43 O51 1.943 . S
O44 Zn43 1.962 . S
O44 C49 1.254 . S
O45 Zn42 2.031 . S
O45 C49 1.269 . S
O46 Zn43 1.986 . S
O46 C53 1.262 . S
O47 Zn42 2.049 . S
O47 C55 1.260 . S
O48 Zn43 1.996 . S
O48 C55 1.257 . S
C49 O44 1.254 . S
C49 O45 1.269 . S
C50 O51 1.249 . S
C50 O52 1.270 . S
O51 Zn43 1.943 . S
O51 C50 1.249 . S
O52 Zn42 2.067 . S
O52 C50 1.270 . S
C53 O46 1.262 . S
C53 O54 1.232 . S
O54 C53 1.232 . S
C55 O47 1.260 . S
C55 O48 1.257 . S
Zn56 O59 2.031 . S
Zn56 O61 2.049 . S
Zn56 O66 2.067 . S
Zn57 O58 1.962 . S
Zn57 O60 1.986 1_455 S
Zn57 O62 1.996 . S
Zn57 O65 1.943 . S
O58 Zn57 1.962 . S
O58 C63 1.254 . S
O59 Zn56 2.031 . S
O59 C63 1.269 . S
O60 Zn57 1.986 1_655 S
O60 C67 1.262 . S
O61 Zn56 2.049 . S
O61 C69 1.260 . S
O62 Zn57 1.996 . S
O62 C69 1.257 . S
C63 O58 1.254 . S
C63 O59 1.269 . S
C64 O65 1.249 . S
C64 O66 1.270 . S
O65 Zn57 1.943 . S
O65 C64 1.249 . S
O66 Zn56 2.067 . S
O66 C64 1.270 . S
C67 O60 1.262 . S
C67 O68 1.234 . S
O68 C67 1.234 . S
C69 O61 1.260 . S
C69 O62 1.257 . S
Zn70 O73 2.031 . S
Zn70 O75 2.049 . S
Zn70 O80 2.067 . S
Zn71 O72 1.962 . S
Zn71 O74 1.986 . S
Zn71 O76 1.996 . S
Zn71 O79 1.943 . S
O72 Zn71 1.962 . S
O72 C77 1.254 . S
O73 Zn70 2.031 . S
O73 C77 1.269 . S
O74 Zn71 1.986 . S
O74 C81 1.262 . S
O75 Zn70 2.049 . S
O75 C83 1.260 . S
O76 Zn71 1.996 . S
O76 C83 1.257 . S
C77 O72 1.254 . S
C77 O73 1.269 . S
C78 O79 1.249 . S
C78 O80 1.270 . S
O79 Zn71 1.943 . S
O79 C78 1.249 . S
O80 Zn70 2.067 . S
O80 C78 1.270 . S
C81 O74 1.262 . S
C81 O82 1.232 . S
O82 C81 1.232 . S
C83 O75 1.260 . S
C83 O76 1.257 . S
Zn84 O87 2.031 . S
Zn84 O89 2.049 . S
Zn84 O94 2.067 . S
Zn85 O86 1.962 . S
Zn85 O88 1.986 . S
Zn85 O90 1.996 . S
Zn85 O93 1.943 . S
O86 Zn85 1.962 . S
O86 C91 1.254 . S
O87 Zn84 2.031 . S
O87 C91 1.269 . S
O88 Zn85 1.986 . S
O88 C95 1.262 . S
O89 Zn84 2.049 . S
O89 C97 1.260 . S
O90 Zn85 1.996 . S
O90 C97 1.257 . S
C91 O86 1.254 . S
C91 O87 1.269 . S
C92 O93 1.249 . S
C92 O94 1.270 . S
O93 Zn85 1.943 . S
O93 C92 1.249 . S
O94 Zn84 2.067 . S
O94 C92 1.270 . S
C95 O88 1.262 . S
C95 O96 1.232 . S
O96 C95 1.232 . S
C97 O89 1.260 . S
C97 O90 1.257 . S
Zn98 O101 2.031 . S
Zn98 O103 2.049 . S
Zn98 O108 2.067 . S
Zn99 O100 1.962 . S
Zn99 O102 1.986 . S
Zn99 O104 2.002 . S
Zn99 O107 1.943 1_455 S
O100 Zn99 1.962 . S
O100 C105 1.256 . S
O101 Zn98 2.031 . S
O101 C105 1.267 1_655 S
O102 Zn99 1.986 . S
O102 C109 1.262 . S
O103 Zn98 2.049 . S
O103 C111 1.260 . S
O104 Zn99 2.002 . S
O104 C111 1.244 1_455 S
C105 O100 1.256 . S
C105 O101 1.267 1_455 S
C106 O107 1.249 . S
C106 O108 1.270 . S
O107 Zn99 1.943 1_655 S
O107 C106 1.249 . S
O108 Zn98 2.067 . S
O108 C106 1.270 . S
C109 O102 1.262 . S
C109 O110 1.232 . S
O110 C109 1.232 . S
C111 O103 1.260 . S
C111 O104 1.244 1_655 S
Zn112 O115 2.031 . S
Zn112 O117 2.049 . S
Zn112 O122 2.067 . S
Zn113 O114 1.962 . S
Zn113 O116 1.986 . S
Zn113 O118 1.996 . S
Zn113 O121 1.943 1_545 S
O114 Zn113 1.962 . S
O114 C119 1.254 . S
O115 Zn112 2.031 . S
O115 C119 1.269 1_565 S
O116 Zn113 1.986 . S
O116 C123 1.262 . S
O117 Zn112 2.049 . S
O117 C125 1.260 1_565 S
O118 Zn113 1.996 . S
O118 C125 1.257 . S
C119 O114 1.254 . S
C119 O115 1.269 1_545 S
C120 O121 1.249 . S
C120 O122 1.270 . S
O121 Zn113 1.943 1_565 S
O121 C120 1.249 . S
O122 Zn112 2.067 . S
O122 C120 1.270 . S
C123 O116 1.262 . S
C123 O124 1.232 . S
O124 C123 1.232 . S
C125 O117 1.260 1_545 S
C125 O118 1.257 . S
Zn126 O129 2.031 . S
Zn126 O131 2.049 . S
Zn126 O136 2.067 . S
Zn127 O128 1.962 . S
Zn127 O130 1.986 . S
Zn127 O132 1.996 . S
Zn127 O135 1.943 . S
O128 Zn127 1.962 . S
O128 C133 1.254 . S
O129 Zn126 2.031 . S
O129 C133 1.269 . S
O130 Zn127 1.986 . S
O130 C137 1.262 . S
O131 Zn126 2.049 . S
O131 C139 1.260 . S
O132 Zn127 1.996 . S
O132 C139 1.257 . S
C133 O128 1.254 . S
C133 O129 1.269 . S
C134 O135 1.249 . S
C134 O136 1.270 . S
O135 Zn127 1.943 . S
O135 C134 1.249 . S
O136 Zn126 2.067 . S
O136 C134 1.270 . S
C137 O130 1.262 . S
C137 O138 1.232 . S
O138 C137 1.232 . S
C139 O131 1.260 . S
C139 O132 1.257 . S
Zn140 O143 2.031 . S
Zn140 O145 2.049 . S
Zn140 O150 2.067 . S
Zn141 O142 1.962 . S
Zn141 O144 1.986 . S
Zn141 O146 1.996 . S
Zn141 O149 1.943 1_565 S
O142 Zn141 1.962 . S
O142 C147 1.254 1_565 S
O143 Zn140 2.031 . S
O143 C147 1.269 . S
O144 Zn141 1.986 . S
O144 C151 1.262 . S
O145 Zn140 2.049 . S
O145 C153 1.285 . S
O146 Zn141 1.996 . S
O146 C153 1.243 1_565 S
C147 O142 1.254 1_545 S
C147 O143 1.269 . S
C148 O149 1.249 . S
C148 O150 1.270 . S
O149 Zn141 1.943 1_545 S
O149 C148 1.249 . S
O150 Zn140 2.067 . S
O150 C148 1.270 . S
C151 O144 1.262 . S
C151 O152 1.232 . S
O152 C151 1.232 . S
C153 O145 1.285 . S
C153 O146 1.243 1_545 S
Zn154 O157 2.031 1_554 S
Zn154 O159 2.049 . S
Zn154 O164 2.067 . S
Zn155 O156 1.962 1_554 S
Zn155 O158 1.986 . S
Zn155 O160 1.996 . S
Zn155 O163 1.943 . S
O156 Zn155 1.962 1_556 S
O156 C161 1.254 . S
O157 Zn154 2.031 1_556 S
O157 C161 1.269 . S
O158 Zn155 1.986 . S
O158 C165 1.262 . S
O159 Zn154 2.049 . S
O159 C167 1.260 . S
O160 Zn155 1.996 . S
O160 C167 1.257 . S
C161 O156 1.254 . S
C161 O157 1.269 . S
C162 O163 1.249 . S
C162 O164 1.270 . S
O163 Zn155 1.943 . S
O163 C162 1.249 . S
O164 Zn154 2.067 . S
O164 C162 1.270 . S
C165 O158 1.262 . S
C165 O166 1.232 1_554 S
O166 C165 1.232 1_556 S
C167 O159 1.260 . S
C167 O160 1.257 . S
Zn168 O171 2.031 1_554 S
Zn168 O173 2.049 . S
Zn168 O178 2.067 . S
Zn169 O170 1.962 1_554 S
Zn169 O172 1.986 . S
Zn169 O174 1.996 . S
Zn169 O177 1.943 . S
O170 Zn169 1.962 1_556 S
O170 C175 1.254 . S
O171 Zn168 2.031 1_556 S
O171 C175 1.269 . S
O172 Zn169 1.986 . S
O172 C179 1.262 . S
O173 Zn168 2.049 . S
O173 C181 1.260 . S
O174 Zn169 1.996 . S
O174 C181 1.257 . S
C175 O170 1.254 . S
C175 O171 1.269 . S
C176 O177 1.249 . S
C176 O178 1.270 . S
O177 Zn169 1.943 . S
O177 C176 1.249 . S
O178 Zn168 2.067 . S
O178 C176 1.270 . S
C179 O172 1.262 . S
C179 O180 1.232 1_554 S
O180 C179 1.232 1_556 S
C181 O173 1.260 . S
C181 O174 1.257 . S
Zn182 O185 2.031 1_554 S
Zn182 O187 2.049 . S
Zn182 O192 2.067 . S
Zn183 O184 1.962 1_554 S
Zn183 O186 1.986 . S
Zn183 O188 1.996 . S
Zn183 O191 1.943 . S
O184 Zn183 1.962 1_556 S
O184 C189 1.254 . S
O185 Zn182 2.031 1_556 S
O185 C189 1.269 . S
O186 Zn183 1.986 . S
O186 C193 1.262 . S
O187 Zn182 2.049 . S
O187 C195 1.260 . S
O188 Zn183 1.996 . S
O188 C195 1.257 . S
C189 O184 1.254 . S
C189 O185 1.269 . S
C190 O191 1.249 . S
C190 O192 1.270 . S
O191 Zn183 1.943 . S
O191 C190 1.249 . S
O192 Zn182 2.067 . S
O192 C190 1.270 . S
C193 O186 1.262 . S
C193 O194 1.232 1_554 S
O194 C193 1.232 1_556 S
C195 O187 1.260 . S
C195 O188 1.257 . S
Zn196 O199 2.031 . S
Zn196 O201 2.049 . S
Zn196 O206 2.067 . S
Zn197 O198 1.962 . S
Zn197 O200 1.986 . S
Zn197 O202 1.996 . S
Zn197 O205 1.943 . S
O198 Zn197 1.962 . S
O198 C203 1.254 . S
O199 Zn196 2.031 . S
O199 C203 1.269 . S
O200 Zn197 1.986 . S
O200 C207 1.262 . S
O201 Zn196 2.049 . S
O201 C209 1.260 . S
O202 Zn197 1.996 . S
O202 C209 1.257 . S
C203 O198 1.254 . S
C203 O199 1.269 . S
C204 O205 1.249 . S
C204 O206 1.270 . S
O205 Zn197 1.943 . S
O205 C204 1.249 . S
O206 Zn196 2.067 . S
O206 C204 1.270 . S
C207 O200 1.262 . S
C207 O208 1.232 . S
O208 C207 1.232 . S
C209 O201 1.260 . S
C209 O202 1.257 . S
Zn210 O213 2.031 . S
Zn210 O215 2.049 . S
Zn210 O220 2.067 . S
Zn211 O212 1.962 . S
Zn211 O214 1.986 . S
Zn211 O216 1.996 . S
Zn211 O219 1.943 . S
O212 Zn211 1.962 . S
O212 C217 1.254 . S
O213 Zn210 2.031 . S
O213 C217 1.269 . S
O214 Zn211 1.986 . S
O214 C221 1.262 . S
O215 Zn210 2.049 . S
O215 C223 1.260 . S
O216 Zn211 1.996 . S
O216 C223 1.257 . S
C217 O212 1.254 . S
C217 O213 1.269 . S
C218 O219 1.249 . S
C218 O220 1.270 . S
O219 Zn211 1.943 . S
O219 C218 1.249 . S
O220 Zn210 2.067 . S
O220 C218 1.270 . S
C221 O214 1.262 . S
C221 O222 1.232 . S
O222 C221 1.232 . S
C223 O215 1.260 . S
C223 O216 1.257 . S
Zn224 O227 2.031 1_565 S
Zn224 O229 2.049 1_565 S
Zn224 O234 2.067 . S
Zn225 O226 1.962 . S
Zn225 O228 1.986 . S
Zn225 O230 1.996 . S
Zn225 O233 1.943 . S
O226 Zn225 1.962 . S
O226 C231 1.254 . S
O227 Zn224 2.031 1_545 S
O227 C231 1.269 . S
O228 Zn225 1.986 . S
O228 C235 1.262 . S
O229 Zn224 2.049 1_545 S
O229 C237 1.260 . S
O230 Zn225 1.996 . S
O230 C237 1.257 . S
C231 O226 1.254 . S
C231 O227 1.269 . S
C232 O233 1.249 1_565 S
C232 O234 1.270 . S
O233 Zn225 1.943 . S
O233 C232 1.249 1_545 S
O234 Zn224 2.067 . S
O234 C232 1.270 . S
C235 O228 1.262 . S
C235 O236 1.232 . S
O236 C235 1.232 . S
C237 O229 1.260 . S
C237 O230 1.257 . S
Zn238 O241 2.031 . S
Zn238 O243 2.049 . S
Zn238 O248 2.067 . S
Zn239 O240 1.962 . S
Zn239 O242 1.986 . S
Zn239 O244 1.996 . S
Zn239 O247 1.943 . S
O240 Zn239 1.962 . S
O240 C245 1.254 . S
O241 Zn238 2.031 . S
O241 C245 1.269 . S
O242 Zn239 1.986 . S
O242 C249 1.262 . S
O243 Zn238 2.049 . S
O243 C251 1.260 . S
O244 Zn239 1.996 . S
O244 C251 1.257 . S
C245 O240 1.254 . S
C245 O241 1.269 . S
C246 O247 1.249 . S
C246 O248 1.270 . S
O247 Zn239 1.943 . S
O247 C246 1.249 . S
O248 Zn238 2.067 . S
O248 C246 1.270 . S
C249 O242 1.262 . S
C249 O250 1.232 . S
O250 C249 1.232 . S
C251 O243 1.260 . S
C251 O244 1.257 . S
Zn252 O255 2.031 . S
Zn252 O257 2.049 . S
Zn252 O262 2.067 . S
Zn253 O254 1.962 . S
Zn253 O256 1.986 . S
Zn253 O258 1.996 . S
Zn253 O261 1.943 . S
O254 Zn253 1.962 . S
O254 C259 1.254 . S
O255 Zn252 2.031 . S
O255 C259 1.269 . S
O256 Zn253 1.986 . S
O256 C263 1.262 . S
O257 Zn252 2.049 . S
O257 C265 1.260 . S
O258 Zn253 1.996 . S
O258 C265 1.257 . S
C259 O254 1.254 . S
C259 O255 1.269 . S
C260 O261 1.249 . S
C260 O262 1.270 . S
O261 Zn253 1.943 . S
O261 C260 1.249 . S
O262 Zn252 2.067 . S
O262 C260 1.270 . S
C263 O256 1.262 . S
C263 O264 1.232 . S
O264 C263 1.232 . S
C265 O257 1.260 . S
C265 O258 1.257 . S
Zn266 O269 2.031 . S
Zn266 O271 2.049 . S
Zn266 O276 2.067 . S
Zn267 O268 1.962 . S
Zn267 O270 1.986 1_545 S
Zn267 O272 1.996 . S
Zn267 O275 1.943 . S
O268 Zn267 1.962 . S
O268 C273 1.254 . S
O269 Zn266 2.031 . S
O269 C273 1.269 . S
O270 Zn267 1.986 1_565 S
O270 C277 1.262 . S
O271 Zn266 2.049 . S
O271 C279 1.260 . S
O272 Zn267 1.996 . S
O272 C279 1.257 . S
C273 O268 1.254 . S
C273 O269 1.269 . S
C274 O275 1.249 . S
C274 O276 1.270 . S
O275 Zn267 1.943 . S
O275 C274 1.249 . S
O276 Zn266 2.067 . S
O276 C274 1.270 . S
C277 O270 1.262 . S
C277 O278 1.232 . S
O278 C277 1.232 . S
C279 O271 1.260 . S
C279 O272 1.257 . S
Zn280 O283 2.031 1_554 S
Zn280 O285 2.049 . S
Zn280 O290 2.067 . S
Zn281 O282 1.962 1_554 S
Zn281 O284 1.986 . S
Zn281 O286 1.996 . S
Zn281 O289 1.943 . S
O282 Zn281 1.962 1_556 S
O282 C287 1.254 . S
O283 Zn280 2.031 1_556 S
O283 C287 1.269 . S
O284 Zn281 1.986 . S
O284 C291 1.262 . S
O285 Zn280 2.049 . S
O285 C293 1.260 . S
O286 Zn281 1.996 . S
O286 C293 1.257 . S
C287 O282 1.254 . S
C287 O283 1.269 . S
C288 O289 1.249 . S
C288 O290 1.270 . S
O289 Zn281 1.943 . S
O289 C288 1.249 . S
O290 Zn280 2.067 . S
O290 C288 1.270 . S
C291 O284 1.262 . S
C291 O292 1.232 1_554 S
O292 C291 1.232 1_556 S
C293 O285 1.260 . S
C293 O286 1.257 . S
Zn294 O297 2.031 . S
Zn294 O299 2.049 . S
Zn294 O304 2.067 . S
Zn295 O296 1.962 . S
Zn295 O298 1.986 . S
Zn295 O300 1.996 . S
Zn295 O303 1.943 . S
O296 Zn295 1.962 . S
O296 C301 1.254 . S
O297 Zn294 2.031 . S
O297 C301 1.269 . S
O298 Zn295 1.986 . S
O298 C305 1.262 . S
O299 Zn294 2.049 . S
O299 C307 1.260 . S
O300 Zn295 1.996 . S
O300 C307 1.257 . S
C301 O296 1.254 . S
C301 O297 1.269 . S
C302 O303 1.249 . S
C302 O304 1.270 . S
O303 Zn295 1.943 . S
O303 C302 1.249 . S
O304 Zn294 2.067 . S
O304 C302 1.270 . S
C305 O298 1.262 . S
C305 O306 1.232 . S
O306 C305 1.232 . S
C307 O299 1.260 . S
C307 O300 1.257 . S
Zn308 O311 2.031 . S
Zn308 O313 2.049 . S
Zn308 O318 2.067 . S
Zn309 O310 1.962 . S
Zn309 O312 1.986 . S
Zn309 O314 1.996 . S
Zn309 O317 1.943 . S
O310 Zn309 1.962 . S
O310 C315 1.254 . S
O311 Zn308 2.031 . S
O311 C315 1.269 . S
O312 Zn309 1.986 . S
O312 C319 1.262 . S
O313 Zn308 2.049 . S
O313 C321 1.260 . S
O314 Zn309 1.996 . S
O314 C321 1.257 . S
C315 O310 1.254 . S
C315 O311 1.269 . S
C316 O317 1.249 . S
C316 O318 1.270 . S
O317 Zn309 1.943 . S
O317 C316 1.249 . S
O318 Zn308 2.067 . S
O318 C316 1.270 . S
C319 O312 1.262 . S
C319 O320 1.232 . S
O320 C319 1.232 . S
C321 O313 1.260 . S
C321 O314 1.257 . S
Zn322 O325 2.031 . S
Zn322 O327 2.049 . S
Zn322 O332 2.067 . S
Zn323 O324 1.962 . S
Zn323 O326 1.986 . S
Zn323 O328 1.996 . S
Zn323 O331 1.943 . S
O324 Zn323 1.962 . S
O324 C329 1.254 . S
O325 Zn322 2.031 . S
O325 C329 1.269 . S
O326 Zn323 1.986 . S
O326 C333 1.262 . S
O327 Zn322 2.049 . S
O327 C335 1.260 . S
O328 Zn323 1.996 . S
O328 C335 1.257 . S
C329 O324 1.254 . S
C329 O325 1.269 . S
C330 O331 1.249 . S
C330 O332 1.270 . S
O331 Zn323 1.943 . S
O331 C330 1.249 . S
O332 Zn322 2.067 . S
O332 C330 1.270 . S
C333 O326 1.262 . S
C333 O334 1.232 . S
O334 C333 1.232 . S
C335 O327 1.260 . S
C335 O328 1.257 . S
Dy336 O340 2.398 . S
Dy336 O341 2.491 1_556 S
Dy336 O342 2.401 1_545 S
Dy336 O343 2.664 1_655 S
Dy336 O347 2.326 1_655 S
Dy336 O351 2.310 1_656 S
Dy336 O352 2.351 1_546 S
C337 O348 1.185 . S
C337 O349 1.355 . S
C338 O340 1.185 . S
C338 O341 1.355 1_556 S
Dy339 O343 2.310 1_554 S
Dy339 O346 2.351 . S
Dy339 O348 2.398 . S
Dy339 O349 2.504 . S
Dy339 O350 2.403 . S
Dy339 O351 2.664 . S
Dy339 O353 2.326 1_545 S
O340 Dy336 2.398 . S
O340 C338 1.185 . S
O341 Dy336 2.491 1_554 S
O341 C338 1.355 1_554 S
O342 Dy336 2.401 1_565 S
O342 C344 1.257 1_665 S
O343 Dy336 2.664 1_455 S
O343 Dy339 2.310 1_556 S
O343 C344 1.268 . S
C344 O342 1.257 1_445 S
C344 O343 1.268 . S
C345 O350 1.254 . S
C345 O351 1.268 . S
O346 Dy339 2.351 . S
O346 C354 1.249 1_554 S
O347 Dy336 2.326 1_455 S
O347 C354 1.267 . S
O348 C337 1.185 . S
O348 Dy339 2.398 . S
O349 C337 1.355 . S
O349 Dy339 2.504 . S
O350 Dy339 2.403 . S
O350 C345 1.254 . S
O351 Dy336 2.310 1_454 S
O351 Dy339 2.664 . S
O351 C345 1.268 . S
O352 Dy336 2.351 1_564 S
O352 C355 1.249 1_655 S
O353 Dy339 2.326 1_565 S
O353 C355 1.267 . S
C354 O346 1.249 1_556 S
C354 O347 1.267 . S
C355 O352 1.249 1_455 S
C355 O353 1.267 . S
Dy356 O360 2.398 . S
Dy356 O361 2.491 . S
Dy356 O362 2.403 . S
Dy356 O363 2.664 . S
Dy356 O367 2.326 . S
Dy356 O371 2.310 . S
Dy356 O372 2.351 . S
C357 O368 1.185 . S
C357 O369 1.355 . S
C358 O360 1.185 . S
C358 O361 1.355 . S
Dy359 O363 2.310 . S
Dy359 O366 2.351 . S
Dy359 O368 2.398 . S
Dy359 O369 2.491 . S
Dy359 O370 2.403 . S
Dy359 O371 2.664 . S
Dy359 O373 2.326 . S
O360 Dy356 2.398 . S
O360 C358 1.185 . S
O361 Dy356 2.491 . S
O361 C358 1.355 . S
O362 Dy356 2.403 . S
O362 C364 1.254 . S
O363 Dy356 2.664 . S
O363 Dy359 2.310 . S
O363 C364 1.268 . S
C364 O362 1.254 . S
C364 O363 1.268 . S
C365 O370 1.254 . S
C365 O371 1.268 . S
O366 Dy359 2.351 . S
O366 C374 1.249 . S
O367 Dy356 2.326 . S
O367 C374 1.267 . S
O368 C357 1.185 . S
O368 Dy359 2.398 . S
O369 C357 1.355 . S
O369 Dy359 2.491 . S
O370 Dy359 2.403 . S
O370 C365 1.254 . S
O371 Dy356 2.310 . S
O371 Dy359 2.664 . S
O371 C365 1.268 . S
O372 Dy356 2.351 . S
O372 C375 1.249 . S
O373 Dy359 2.326 . S
O373 C375 1.267 . S
C374 O366 1.249 . S
C374 O367 1.267 . S
C375 O372 1.249 . S
C375 O373 1.267 . S
Dy376 O380 2.398 1_545 S
Dy376 O381 2.491 1_545 S
Dy376 O382 2.403 . S
Dy376 O383 2.664 . S
Dy376 O387 2.326 1_545 S
Dy376 O391 2.310 . S
Dy376 O392 2.351 . S
C377 O388 1.185 . S
C377 O389 1.355 . S
C378 O380 1.185 . S
C378 O381 1.355 . S
Dy379 O383 2.310 . S
Dy379 O386 2.351 1_545 S
Dy379 O388 2.398 . S
Dy379 O389 2.491 . S
Dy379 O390 2.403 . S
Dy379 O391 2.664 . S
Dy379 O393 2.326 . S
O380 Dy376 2.398 1_565 S
O380 C378 1.185 . S
O381 Dy376 2.491 1_565 S
O381 C378 1.355 . S
O382 Dy376 2.403 . S
O382 C384 1.254 . S
O383 Dy376 2.664 . S
O383 Dy379 2.310 . S
O383 C384 1.268 . S
C384 O382 1.254 . S
C384 O383 1.268 . S
C385 O390 1.254 . S
C385 O391 1.268 . S
O386 Dy379 2.351 1_565 S
O386 C394 1.249 . S
O387 Dy376 2.326 1_565 S
O387 C394 1.267 . S
O388 C377 1.185 . S
O388 Dy379 2.398 . S
O389 C377 1.355 . S
O389 Dy379 2.491 . S
O390 Dy379 2.403 . S
O390 C385 1.254 . S
O391 Dy376 2.310 . S
O391 Dy379 2.664 . S
O391 C385 1.268 . S
O392 Dy376 2.351 . S
O392 C395 1.249 . S
O393 Dy379 2.326 . S
O393 C395 1.267 . S
C394 O386 1.249 . S
C394 O387 1.267 . S
C395 O392 1.249 . S
C395 O393 1.267 . S
Dy396 O400 2.398 . S
Dy396 O401 2.491 . S
Dy396 O402 2.403 . S
Dy396 O403 2.664 . S
Dy396 O407 2.326 . S
Dy396 O411 2.310 . S
Dy396 O412 2.351 . S
C397 O408 1.185 . S
C397 O409 1.355 . S
C398 O400 1.185 . S
C398 O401 1.355 . S
Dy399 O403 2.310 . S
Dy399 O406 2.351 . S
Dy399 O408 2.398 . S
Dy399 O409 2.491 . S
Dy399 O410 2.403 . S
Dy399 O411 2.664 . S
Dy399 O413 2.326 . S
O400 Dy396 2.398 . S
O400 C398 1.185 . S
O401 Dy396 2.491 . S
O401 C398 1.355 . S
O402 Dy396 2.403 . S
O402 C404 1.254 . S
O403 Dy396 2.664 . S
O403 Dy399 2.310 . S
O403 C404 1.268 . S
C404 O402 1.254 . S
C404 O403 1.268 . S
C405 O410 1.254 . S
C405 O411 1.268 . S
O406 Dy399 2.351 . S
O406 C414 1.249 . S
O407 Dy396 2.326 . S
O407 C414 1.267 . S
O408 C397 1.185 . S
O408 Dy399 2.398 . S
O409 C397 1.355 . S
O409 Dy399 2.491 . S
O410 Dy399 2.403 . S
O410 C405 1.254 . S
O411 Dy396 2.310 . S
O411 Dy399 2.664 . S
O411 C405 1.268 . S
O412 Dy396 2.351 . S
O412 C415 1.249 . S
O413 Dy399 2.326 . S
O413 C415 1.267 . S
C414 O406 1.249 . S
C414 O407 1.267 . S
C415 O412 1.249 . S
C415 O413 1.267 . S
Dy416 O420 2.388 1_565 S
Dy416 O421 2.478 1_465 S
Dy416 O422 2.397 1_565 S
Dy416 O423 2.657 1_565 S
Dy416 O427 2.295 1_565 S
Dy416 O431 2.303 1_465 S
Dy416 O432 2.375 . S
C417 O428 1.185 . S
C417 O429 1.355 . S
C418 O420 1.185 1_655 S
C418 O421 1.355 . S
Dy419 O423 2.310 . S
Dy419 O426 2.351 . S
Dy419 O428 2.398 . S
Dy419 O429 2.491 . S
Dy419 O430 2.403 1_455 S
Dy419 O431 2.664 1_455 S
Dy419 O433 2.326 1_545 S
O420 Dy416 2.388 1_545 S
O420 C418 1.185 1_455 S
O421 Dy416 2.478 1_645 S
O421 C418 1.355 . S
O422 Dy416 2.397 1_545 S
O422 C424 1.254 . S
O423 Dy416 2.657 1_545 S
O423 Dy419 2.310 . S
O423 C424 1.268 . S
C424 O422 1.254 . S
C424 O423 1.268 . S
C425 O430 1.254 . S
C425 O431 1.268 . S
O426 Dy419 2.351 . S
O426 C434 1.249 . S
O427 Dy416 2.295 1_545 S
O427 C434 1.267 . S
O428 C417 1.185 . S
O428 Dy419 2.398 . S
O429 C417 1.355 . S
O429 Dy419 2.491 . S
O430 Dy419 2.403 1_655 S
O430 C425 1.254 . S
O431 Dy416 2.303 1_645 S
O431 Dy419 2.664 1_655 S
O431 C425 1.268 . S
O432 Dy416 2.375 . S
O432 C435 1.249 . S
O433 Dy419 2.326 1_565 S
O433 C435 1.267 . S
C434 O426 1.249 . S
C434 O427 1.267 . S
C435 O432 1.249 . S
C435 O433 1.267 . S
Dy436 O440 2.398 . S
Dy436 O441 2.491 . S
Dy436 O442 2.403 . S
Dy436 O443 2.664 . S
Dy436 O447 2.326 . S
Dy436 O451 2.310 . S
Dy436 O452 2.351 . S
C437 O448 1.185 . S
C437 O449 1.355 . S
C438 O440 1.185 . S
C438 O441 1.355 . S
Dy439 O443 2.310 . S
Dy439 O446 2.351 . S
Dy439 O448 2.398 . S
Dy439 O449 2.491 . S
Dy439 O450 2.403 . S
Dy439 O451 2.664 . S
Dy439 O453 2.326 . S
O440 Dy436 2.398 . S
O440 C438 1.185 . S
O441 Dy436 2.491 . S
O441 C438 1.355 . S
O442 Dy436 2.403 . S
O442 C444 1.254 . S
O443 Dy436 2.664 . S
O443 Dy439 2.310 . S
O443 C444 1.268 . S
C444 O442 1.254 . S
C444 O443 1.268 . S
C445 O450 1.254 . S
C445 O451 1.268 . S
O446 Dy439 2.351 . S
O446 C454 1.249 . S
O447 Dy436 2.326 . S
O447 C454 1.267 . S
O448 C437 1.185 . S
O448 Dy439 2.398 . S
O449 C437 1.355 . S
O449 Dy439 2.491 . S
O450 Dy439 2.403 . S
O450 C445 1.254 . S
O451 Dy436 2.310 . S
O451 Dy439 2.664 . S
O451 C445 1.268 . S
O452 Dy436 2.351 . S
O452 C455 1.249 . S
O453 Dy439 2.326 . S
O453 C455 1.267 . S
C454 O446 1.249 . S
C454 O447 1.267 . S
C455 O452 1.249 . S
C455 O453 1.267 . S
Dy456 O460 2.398 1_545 S
Dy456 O461 2.491 . S
Dy456 O462 2.403 1_545 S
Dy456 O463 2.664 1_544 S
Dy456 O467 2.326 1_545 S
Dy456 O471 2.310 . S
Dy456 O472 2.351 . S
C457 O468 1.185 . S
C457 O469 1.355 . S
C458 O460 1.172 1_545 S
C458 O461 1.372 . S
Dy459 O463 2.310 1_545 S
Dy459 O466 2.351 . S
Dy459 O468 2.398 . S
Dy459 O469 2.491 . S
Dy459 O470 2.403 . S
Dy459 O471 2.664 1_556 S
Dy459 O473 2.326 . S
O460 Dy456 2.398 1_565 S
O460 C458 1.172 1_565 S
O461 Dy456 2.491 . S
O461 C458 1.372 . S
O462 Dy456 2.403 1_565 S
O462 C464 1.254 1_554 S
O463 Dy456 2.664 1_566 S
O463 Dy459 2.310 1_565 S
O463 C464 1.268 . S
C464 O462 1.254 1_556 S
C464 O463 1.268 . S
C465 O470 1.254 1_554 S
C465 O471 1.268 . S
O466 Dy459 2.351 . S
O466 C474 1.260 1_556 S
O467 Dy456 2.326 1_565 S
O467 C474 1.255 1_565 S
O468 C457 1.185 . S
O468 Dy459 2.398 . S
O469 C457 1.355 . S
O469 Dy459 2.491 . S
O470 Dy459 2.403 . S
O470 C465 1.254 1_556 S
O471 Dy456 2.310 . S
O471 Dy459 2.664 1_554 S
O471 C465 1.268 . S
O472 Dy456 2.351 . S
O472 C475 1.249 . S
O473 Dy459 2.326 . S
O473 C475 1.267 1_556 S
C474 O466 1.260 1_554 S
C474 O467 1.255 1_545 S
C475 O472 1.249 . S
C475 O473 1.267 1_554 S
Dy476 O480 2.398 . S
Dy476 O481 2.491 . S
Dy476 O482 2.403 . S
Dy476 O483 2.664 . S
Dy476 O487 2.326 . S
Dy476 O491 2.310 . S
Dy476 O492 2.351 . S
C477 O488 1.185 . S
C477 O489 1.355 . S
C478 O480 1.185 . S
C478 O481 1.355 . S
Dy479 O483 2.310 . S
Dy479 O486 2.351 . S
Dy479 O488 2.398 . S
Dy479 O489 2.491 . S
Dy479 O490 2.403 . S
Dy479 O491 2.664 . S
Dy479 O493 2.326 . S
O480 Dy476 2.398 . S
O480 C478 1.185 . S
O481 Dy476 2.491 . S
O481 C478 1.355 . S
O482 Dy476 2.403 . S
O482 C484 1.254 . S
O483 Dy476 2.664 . S
O483 Dy479 2.310 . S
O483 C484 1.268 . S
C484 O482 1.254 . S
C484 O483 1.268 . S
C485 O490 1.254 . S
C485 O491 1.268 . S
O486 Dy479 2.351 . S
O486 C494 1.249 . S
O487 Dy476 2.326 . S
O487 C494 1.267 . S
O488 C477 1.185 . S
O488 Dy479 2.398 . S
O489 C477 1.355 . S
O489 Dy479 2.491 . S
O490 Dy479 2.403 . S
O490 C485 1.254 . S
O491 Dy476 2.310 . S
O491 Dy479 2.664 . S
O491 C485 1.268 . S
O492 Dy476 2.351 . S
O492 C495 1.249 . S
O493 Dy479 2.326 . S
O493 C495 1.267 . S
C494 O486 1.249 . S
C494 O487 1.267 . S
C495 O492 1.249 . S
C495 O493 1.267 . S
Dy496 O500 2.398 . S
Dy496 O501 2.491 . S
Dy496 O502 2.403 . S
Dy496 O503 2.664 1_556 S
Dy496 O507 2.326 . S
Dy496 O511 2.310 . S
Dy496 O512 2.351 . S
C497 O508 1.185 . S
C497 O509 1.355 . S
C498 O500 1.185 . S
C498 O501 1.355 . S
Dy499 O503 2.310 . S
Dy499 O506 2.351 . S
Dy499 O508 2.398 . S
Dy499 O509 2.491 . S
Dy499 O510 2.403 . S
Dy499 O511 2.664 1_554 S
Dy499 O513 2.326 . S
O500 Dy496 2.398 . S
O500 C498 1.185 . S
O501 Dy496 2.491 . S
O501 C498 1.355 . S
O502 Dy496 2.403 . S
O502 C504 1.254 . S
O503 Dy496 2.664 1_554 S
O503 Dy499 2.310 . S
O503 C504 1.268 1_554 S
C504 O502 1.254 . S
C504 O503 1.268 1_556 S
C505 O510 1.254 . S
C505 O511 1.268 1_554 S
O506 Dy499 2.351 . S
O506 C514 1.249 1_554 S
O507 Dy496 2.326 . S
O507 C514 1.267 . S
O508 C497 1.185 . S
O508 Dy499 2.398 . S
O509 C497 1.355 . S
O509 Dy499 2.491 . S
O510 Dy499 2.403 . S
O510 C505 1.254 . S
O511 Dy496 2.310 . S
O511 Dy499 2.664 1_556 S
O511 C505 1.268 1_556 S
O512 Dy496 2.351 . S
O512 C515 1.249 1_556 S
O513 Dy499 2.326 . S
O513 C515 1.267 . S
C514 O506 1.249 1_556 S
C514 O507 1.267 . S
C515 O512 1.249 1_554 S
C515 O513 1.267 . S
Dy516 O520 2.398 . S
Dy516 O521 2.491 . S
Dy516 O522 2.403 . S
Dy516 O523 2.664 . S
Dy516 O527 2.326 . S
Dy516 O531 2.310 . S
Dy516 O532 2.351 . S
C517 O528 1.185 . S
C517 O529 1.355 . S
C518 O520 1.185 . S
C518 O521 1.355 . S
Dy519 O523 2.310 . S
Dy519 O526 2.351 . S
Dy519 O528 2.398 . S
Dy519 O529 2.491 . S
Dy519 O530 2.403 . S
Dy519 O531 2.664 . S
Dy519 O533 2.326 . S
O520 Dy516 2.398 . S
O520 C518 1.185 . S
O521 Dy516 2.491 . S
O521 C518 1.355 . S
O522 Dy516 2.403 . S
O522 C524 1.254 . S
O523 Dy516 2.664 . S
O523 Dy519 2.310 . S
O523 C524 1.268 . S
C524 O522 1.254 . S
C524 O523 1.268 . S
C525 O530 1.254 . S
C525 O531 1.268 . S
O526 Dy519 2.351 . S
O526 C534 1.249 . S
O527 Dy516 2.326 . S
O527 C534 1.267 . S
O528 C517 1.185 . S
O528 Dy519 2.398 . S
O529 C517 1.355 . S
O529 Dy519 2.491 . S
O530 Dy519 2.403 . S
O530 C525 1.254 . S
O531 Dy516 2.310 . S
O531 Dy519 2.664 . S
O531 C525 1.268 . S
O532 Dy516 2.351 . S
O532 C535 1.249 . S
O533 Dy519 2.326 . S
O533 C535 1.267 . S
C534 O526 1.249 . S
C534 O527 1.267 . S
C535 O532 1.249 . S
C535 O533 1.267 . S
Dy536 O540 2.398 1_455 S
Dy536 O541 2.491 1_455 S
Dy536 O542 2.403 . S
Dy536 O543 2.664 . S
Dy536 O547 2.326 1_455 S
Dy536 O551 2.310 . S
Dy536 O552 2.351 . S
C537 O548 1.185 . S
C537 O549 1.355 . S
C538 O540 1.185 . S
C538 O541 1.355 . S
Dy539 O543 2.310 . S
Dy539 O546 2.351 1_455 S
Dy539 O548 2.398 . S
Dy539 O549 2.491 . S
Dy539 O550 2.403 . S
Dy539 O551 2.664 . S
Dy539 O553 2.326 . S
O540 Dy536 2.398 1_655 S
O540 C538 1.185 . S
O541 Dy536 2.491 1_655 S
O541 C538 1.355 . S
O542 Dy536 2.403 . S
O542 C544 1.254 . S
O543 Dy536 2.664 . S
O543 Dy539 2.310 . S
O543 C544 1.268 . S
C544 O542 1.254 . S
C544 O543 1.268 . S
C545 O550 1.254 . S
C545 O551 1.268 . S
O546 Dy539 2.351 1_655 S
O546 C554 1.249 . S
O547 Dy536 2.326 1_655 S
O547 C554 1.267 . S
O548 C537 1.185 . S
O548 Dy539 2.398 . S
O549 C537 1.355 . S
O549 Dy539 2.491 . S
O550 Dy539 2.403 . S
O550 C545 1.254 . S
O551 Dy536 2.310 . S
O551 Dy539 2.664 . S
O551 C545 1.268 . S
O552 Dy536 2.351 . S
O552 C555 1.249 . S
O553 Dy539 2.326 . S
O553 C555 1.267 . S
C554 O546 1.249 . S
C554 O547 1.267 . S
C555 O552 1.249 . S
C555 O553 1.267 . S
Dy556 O560 2.398 . S
Dy556 O561 2.491 . S
Dy556 O562 2.403 . S
Dy556 O563 2.664 . S
Dy556 O567 2.326 . S
Dy556 O571 2.310 . S
Dy556 O572 2.351 . S
C557 O568 1.185 . S
C557 O569 1.355 . S
C558 O560 1.185 . S
C558 O561 1.355 . S
Dy559 O563 2.310 . S
Dy559 O566 2.351 . S
Dy559 O568 2.398 . S
Dy559 O569 2.491 . S
Dy559 O570 2.403 . S
Dy559 O571 2.664 . S
Dy559 O573 2.326 . S
O560 Dy556 2.398 . S
O560 C558 1.185 . S
O561 Dy556 2.491 . S
O561 C558 1.355 . S
O562 Dy556 2.403 . S
O562 C564 1.254 . S
O563 Dy556 2.664 . S
O563 Dy559 2.310 . S
O563 C564 1.268 . S
C564 O562 1.254 . S
C564 O563 1.268 . S
C565 O570 1.254 . S
C565 O571 1.268 . S
O566 Dy559 2.351 . S
O566 C574 1.249 . S
O567 Dy556 2.326 . S
O567 C574 1.267 . S
O568 C557 1.185 . S
O568 Dy559 2.398 . S
O569 C557 1.355 . S
O569 Dy559 2.491 . S
O570 Dy559 2.403 . S
O570 C565 1.254 . S
O571 Dy556 2.310 . S
O571 Dy559 2.664 . S
O571 C565 1.268 . S
O572 Dy556 2.351 . S
O572 C575 1.249 . S
O573 Dy559 2.326 . S
O573 C575 1.267 . S
C574 O566 1.249 . S
C574 O567 1.267 . S
C575 O572 1.249 . S
C575 O573 1.267 . S
Dy576 O580 2.398 . S
Dy576 O581 2.491 . S
Dy576 O582 2.403 . S
Dy576 O583 2.664 . S
Dy576 O587 2.326 . S
Dy576 O591 2.310 . S
Dy576 O592 2.351 . S
C577 O588 1.185 . S
C577 O589 1.355 . S
C578 O580 1.185 . S
C578 O581 1.355 . S
Dy579 O583 2.310 . S
Dy579 O586 2.351 . S
Dy579 O588 2.398 . S
Dy579 O589 2.491 . S
Dy579 O590 2.403 . S
Dy579 O591 2.664 . S
Dy579 O593 2.326 . S
O580 Dy576 2.398 . S
O580 C578 1.185 . S
O581 Dy576 2.491 . S
O581 C578 1.355 . S
O582 Dy576 2.403 . S
O582 C584 1.254 . S
O583 Dy576 2.664 . S
O583 Dy579 2.310 . S
O583 C584 1.268 . S
C584 O582 1.254 . S
C584 O583 1.268 . S
C585 O590 1.254 . S
C585 O591 1.268 . S
O586 Dy579 2.351 . S
O586 C594 1.249 . S
O587 Dy576 2.326 . S
O587 C594 1.267 . S
O588 C577 1.185 . S
O588 Dy579 2.398 . S
O589 C577 1.355 . S
O589 Dy579 2.491 . S
O590 Dy579 2.403 . S
O590 C585 1.254 . S
O591 Dy576 2.310 . S
O591 Dy579 2.664 . S
O591 C585 1.268 . S
O592 Dy576 2.351 . S
O592 C595 1.249 . S
O593 Dy579 2.326 . S
O593 C595 1.267 . S
C594 O586 1.249 . S
C594 O587 1.267 . S
C595 O592 1.249 . S
C595 O593 1.267 . S
Dy596 O600 2.398 . S
Dy596 O601 2.491 . S
Dy596 O602 2.403 . S
Dy596 O603 2.664 . S
Dy596 O607 2.326 . S
Dy596 O611 2.310 . S
Dy596 O612 2.351 . S
C597 O608 1.185 . S
C597 O609 1.355 . S
C598 O600 1.185 . S
C598 O601 1.355 . S
Dy599 O603 2.310 . S
Dy599 O606 2.351 . S
Dy599 O608 2.398 . S
Dy599 O609 2.491 . S
Dy599 O610 2.403 . S
Dy599 O611 2.664 . S
Dy599 O613 2.326 . S
O600 Dy596 2.398 . S
O600 C598 1.185 . S
O601 Dy596 2.491 . S
O601 C598 1.355 . S
O602 Dy596 2.403 . S
O602 C604 1.254 . S
O603 Dy596 2.664 . S
O603 Dy599 2.310 . S
O603 C604 1.268 . S
C604 O602 1.254 . S
C604 O603 1.268 . S
C605 O610 1.254 . S
C605 O611 1.268 . S
O606 Dy599 2.351 . S
O606 C614 1.249 . S
O607 Dy596 2.326 . S
O607 C614 1.267 . S
O608 C597 1.185 . S
O608 Dy599 2.398 . S
O609 C597 1.355 . S
O609 Dy599 2.491 . S
O610 Dy599 2.403 . S
O610 C605 1.254 . S
O611 Dy596 2.310 . S
O611 Dy599 2.664 . S
O611 C605 1.268 . S
O612 Dy596 2.351 . S
O612 C615 1.249 . S
O613 Dy599 2.326 . S
O613 C615 1.267 . S
C614 O606 1.249 . S
C614 O607 1.267 . S
C615 O612 1.249 . S
C615 O613 1.267 . S
Dy616 O620 2.398 . S
Dy616 O621 2.491 . S
Dy616 O622 2.403 . S
Dy616 O623 2.664 . S
Dy616 O627 2.326 . S
Dy616 O631 2.310 . S
Dy616 O632 2.351 . S
C617 O628 1.185 . S
C617 O629 1.355 . S
C618 O620 1.185 . S
C618 O621 1.355 . S
Dy619 O623 2.310 . S
Dy619 O626 2.351 . S
Dy619 O628 2.398 . S
Dy619 O629 2.491 . S
Dy619 O630 2.403 . S
Dy619 O631 2.664 . S
Dy619 O633 2.326 . S
O620 Dy616 2.398 . S
O620 C618 1.185 . S
O621 Dy616 2.491 . S
O621 C618 1.355 . S
O622 Dy616 2.403 . S
O622 C624 1.254 . S
O623 Dy616 2.664 . S
O623 Dy619 2.310 . S
O623 C624 1.268 . S
C624 O622 1.254 . S
C624 O623 1.268 . S
C625 O630 1.254 . S
C625 O631 1.268 . S
O626 Dy619 2.351 . S
O626 C634 1.249 . S
O627 Dy616 2.326 . S
O627 C634 1.267 . S
O628 C617 1.185 . S
O628 Dy619 2.398 . S
O629 C617 1.355 . S
O629 Dy619 2.491 . S
O630 Dy619 2.403 . S
O630 C625 1.254 . S
O631 Dy616 2.310 . S
O631 Dy619 2.664 . S
O631 C625 1.268 . S
O632 Dy616 2.351 . S
O632 C635 1.249 . S
O633 Dy619 2.326 . S
O633 C635 1.267 . S
C634 O626 1.249 . S
C634 O627 1.267 . S
C635 O632 1.249 . S
C635 O633 1.267 . S
Dy636 O640 2.398 . S
Dy636 O641 2.491 1_556 S
Dy636 O642 2.403 . S
Dy636 O643 2.664 . S
Dy636 O647 2.326 . S
Dy636 O651 2.310 1_556 S
Dy636 O652 2.351 1_556 S
C637 O648 1.185 . S
C637 O649 1.355 . S
C638 O640 1.185 . S
C638 O641 1.355 1_556 S
Dy639 O643 2.310 1_654 S
Dy639 O646 2.351 . S
Dy639 O648 2.398 . S
Dy639 O649 2.491 . S
Dy639 O650 2.403 . S
Dy639 O651 2.664 1_655 S
Dy639 O653 2.326 1_655 S
O640 Dy636 2.398 . S
O640 C638 1.185 . S
O641 Dy636 2.491 1_554 S
O641 C638 1.355 1_554 S
O642 Dy636 2.403 . S
O642 C644 1.254 . S
O643 Dy636 2.664 . S
O643 Dy639 2.310 1_456 S
O643 C644 1.268 . S
C644 O642 1.254 . S
C644 O643 1.268 . S
C645 O650 1.254 1_455 S
C645 O651 1.268 . S
O646 Dy639 2.351 . S
O646 C654 1.249 1_654 S
O647 Dy636 2.326 . S
O647 C654 1.267 . S
O648 C637 1.185 . S
O648 Dy639 2.398 . S
O649 C637 1.355 . S
O649 Dy639 2.491 . S
O650 Dy639 2.403 . S
O650 C645 1.254 1_655 S
O651 Dy636 2.310 1_554 S
O651 Dy639 2.664 1_455 S
O651 C645 1.268 . S
O652 Dy636 2.351 1_554 S
O652 C655 1.249 . S
O653 Dy639 2.326 1_455 S
O653 C655 1.267 . S
C654 O646 1.249 1_456 S
C654 O647 1.267 . S
C655 O652 1.249 . S
C655 O653 1.267 . S
C656 C657 1.387 1_455 S
C656 H660 0.950 . S
C656 C665 1.390 . S
C657 C656 1.387 1_655 S
C657 C659 1.387 . S
H658 C665 0.950 . S
C659 C657 1.387 . S
C659 C661 1.390 . S
C659 H663 0.950 . S
H660 C656 0.950 . S
C661 C659 1.390 . S
C661 C662 1.387 1_655 S
C661 H664 0.950 1_556 S
C662 C661 1.387 1_455 S
C662 C665 1.387 . S
H663 C659 0.950 . S
H664 C661 0.950 1_554 S
C665 C656 1.390 . S
C665 H658 0.950 . S
C665 C662 1.387 . S
C666 C667 1.387 . S
C666 H670 0.950 . S
C666 C675 1.390 . S
C667 C666 1.387 . S
C667 C669 1.387 . S
H668 C675 0.950 . S
C669 C667 1.387 . S
C669 C671 1.390 . S
C669 H673 0.950 . S
H670 C666 0.950 . S
C671 C669 1.390 . S
C671 C672 1.387 . S
C671 H674 0.950 . S
C672 C671 1.387 . S
C672 C675 1.387 . S
H673 C669 0.950 . S
H674 C671 0.950 . S
C675 C666 1.390 . S
C675 H668 0.950 . S
C675 C672 1.387 . S
C676 C677 1.387 . S
C676 H680 0.950 . S
C676 C685 1.390 . S
C677 C676 1.387 . S
C677 C679 1.387 . S
H678 C685 0.950 . S
C679 C677 1.387 . S
C679 C681 1.390 . S
C679 H683 0.950 . S
H680 C676 0.950 . S
C681 C679 1.390 . S
C681 C682 1.387 . S
C681 H684 0.950 . S
C682 C681 1.387 . S
C682 C685 1.387 . S
H683 C679 0.950 . S
H684 C681 0.950 . S
C685 C676 1.390 . S
C685 H678 0.950 . S
C685 C682 1.387 . S
C686 C687 1.387 . S
C686 H690 0.950 . S
C686 C695 1.390 . S
C687 C686 1.387 . S
C687 C689 1.387 . S
H688 C695 0.950 . S
C689 C687 1.387 . S
C689 C691 1.390 . S
C689 H693 0.950 . S
H690 C686 0.950 . S
C691 C689 1.390 . S
C691 C692 1.387 . S
C691 H694 0.950 . S
C692 C691 1.387 . S
C692 C695 1.387 . S
H693 C689 0.950 . S
H694 C691 0.950 . S
C695 C686 1.390 . S
C695 H688 0.950 . S
C695 C692 1.387 . S
C696 C697 1.387 . S
C696 H700 0.950 . S
C696 C705 1.390 . S
C697 C696 1.387 . S
C697 C699 1.387 1_455 S
H698 C705 0.950 . S
C699 C697 1.387 1_655 S
C699 C701 1.390 1_655 S
C699 H703 0.950 . S
H700 C696 0.950 . S
C701 C699 1.390 1_455 S
C701 C702 1.387 . S
C701 H704 0.950 1_455 S
C702 C701 1.387 . S
C702 C705 1.387 . S
H703 C699 0.950 . S
H704 C701 0.950 1_655 S
C705 C696 1.390 . S
C705 H698 0.950 . S
C705 C702 1.387 . S
C706 C707 1.387 . S
C706 H710 0.950 . S
C706 C715 1.390 . S
C707 C706 1.387 . S
C707 C709 1.387 . S
H708 C715 0.950 . S
C709 C707 1.387 . S
C709 C711 1.390 . S
C709 H713 0.950 . S
H710 C706 0.950 . S
C711 C709 1.390 . S
C711 C712 1.387 . S
C711 H714 0.950 . S
C712 C711 1.387 . S
C712 C715 1.387 . S
H713 C709 0.950 . S
H714 C711 0.950 . S
C715 C706 1.390 . S
C715 H708 0.950 . S
C715 C712 1.387 . S
C716 C717 1.387 . S
C716 H720 0.950 . S
C716 C725 1.390 . S
C717 C716 1.387 . S
C717 C719 1.387 . S
H718 C725 0.968 . S
C719 C717 1.387 . S
C719 C721 1.390 . S
C719 H723 0.950 . S
H720 C716 0.950 . S
C721 C719 1.390 . S
C721 C722 1.387 . S
C721 H724 0.950 . S
C722 C721 1.387 . S
C722 C725 1.387 . S
H723 C719 0.950 . S
H724 C721 0.950 . S
C725 C716 1.390 . S
C725 H718 0.968 . S
C725 C722 1.387 . S
C726 C727 1.387 . S
C726 H730 0.950 . S
C726 C735 1.390 . S
C727 C726 1.387 . S
C727 C729 1.387 . S
H728 C735 0.950 . S
C729 C727 1.387 . S
C729 C731 1.390 . S
C729 H733 0.950 . S
H730 C726 0.950 . S
C731 C729 1.390 . S
C731 C732 1.387 . S
C731 H734 0.950 . S
C732 C731 1.387 . S
C732 C735 1.387 . S
H733 C729 0.950 . S
H734 C731 0.950 . S
C735 C726 1.390 . S
C735 H728 0.950 . S
C735 C732 1.387 . S
C736 C737 1.387 . S
C736 H740 0.950 1_545 S
C736 C745 1.390 . S
C737 C736 1.387 . S
C737 C739 1.387 . S
H738 C745 0.950 1_565 S
C739 C737 1.387 . S
C739 C741 1.390 . S
C739 H743 0.950 . S
H740 C736 0.950 1_565 S
C741 C739 1.390 . S
C741 C742 1.387 . S
C741 H744 0.950 . S
C742 C741 1.387 . S
C742 C745 1.387 . S
H743 C739 0.950 . S
H744 C741 0.950 . S
C745 C736 1.390 . S
C745 H738 0.950 1_545 S
C745 C742 1.387 . S
C746 C747 1.387 . S
C746 H750 0.950 . S
C746 C755 1.390 . S
C747 C746 1.387 . S
C747 C749 1.387 . S
H748 C755 0.950 . S
C749 C747 1.387 . S
C749 C751 1.390 . S
C749 H753 0.950 . S
H750 C746 0.950 . S
C751 C749 1.390 . S
C751 C752 1.387 . S
C751 H754 0.950 . S
C752 C751 1.387 . S
C752 C755 1.387 . S
H753 C749 0.950 . S
H754 C751 0.950 . S
C755 C746 1.390 . S
C755 H748 0.950 . S
C755 C752 1.387 . S
C756 C757 1.387 . S
C756 H760 0.950 . S
C756 C765 1.390 . S
C757 C756 1.387 . S
C757 C759 1.387 1_545 S
H758 C765 0.950 . S
C759 C757 1.387 1_565 S
C759 C761 1.390 . S
C759 H763 0.950 . S
H760 C756 0.950 . S
C761 C759 1.390 . S
C761 C762 1.387 1_565 S
C761 H764 0.950 . S
C762 C761 1.387 1_545 S
C762 C765 1.387 . S
H763 C759 0.950 . S
H764 C761 0.950 . S
C765 C756 1.390 . S
C765 H758 0.950 . S
C765 C762 1.387 . S
C766 C767 1.387 . S
C766 H770 0.950 . S
C766 C775 1.390 . S
C767 C766 1.387 . S
C767 C769 1.387 . S
H768 C775 0.950 . S
C769 C767 1.387 . S
C769 C771 1.390 . S
C769 H773 0.950 . S
H770 C766 0.950 . S
C771 C769 1.390 . S
C771 C772 1.387 . S
C771 H774 0.950 . S
C772 C771 1.387 . S
C772 C775 1.387 . S
H773 C769 0.950 . S
H774 C771 0.950 . S
C775 C766 1.390 . S
C775 H768 0.950 . S
C775 C772 1.387 . S
C776 C777 1.387 . S
C776 H780 0.950 1_545 S
C776 C785 1.395 . S
C777 C776 1.387 . S
C777 C779 1.387 . S
H778 C785 0.941 1_565 S
C779 C777 1.387 . S
C779 C781 1.390 . S
C779 H783 0.950 . S
H780 C776 0.950 1_565 S
C781 C779 1.390 . S
C781 C782 1.387 . S
C781 H784 0.950 . S
C782 C781 1.387 . S
C782 C785 1.392 . S
H783 C779 0.950 . S
H784 C781 0.950 . S
C785 C776 1.395 . S
C785 H778 0.941 1_545 S
C785 C782 1.392 . S
C786 C787 1.387 . S
C786 H790 0.950 . S
C786 C795 1.390 . S
C787 C786 1.387 . S
C787 C789 1.387 . S
H788 C795 0.950 . S
C789 C787 1.387 . S
C789 C791 1.390 . S
C789 H793 0.950 . S
H790 C786 0.950 . S
C791 C789 1.390 . S
C791 C792 1.387 . S
C791 H794 0.950 . S
C792 C791 1.387 . S
C792 C795 1.387 . S
H793 C789 0.950 . S
H794 C791 0.950 . S
C795 C786 1.390 . S
C795 H788 0.950 . S
C795 C792 1.387 . S
C796 C797 1.387 . S
C796 H800 0.950 1_545 S
C796 C805 1.390 . S
C797 C796 1.387 . S
C797 C799 1.387 . S
H798 C805 0.950 . S
C799 C797 1.387 . S
C799 C801 1.390 . S
C799 H803 0.950 . S
H800 C796 0.950 1_565 S
C801 C799 1.390 . S
C801 C802 1.387 . S
C801 H804 0.950 . S
C802 C801 1.387 . S
C802 C805 1.387 . S
H803 C799 0.950 . S
H804 C801 0.950 . S
C805 C796 1.390 . S
C805 H798 0.950 . S
C805 C802 1.387 . S
C806 C807 1.387 . S
C806 H810 0.950 . S
C806 C815 1.390 . S
C807 C806 1.387 . S
C807 C809 1.387 . S
H808 C815 0.950 . S
C809 C807 1.387 . S
C809 C811 1.390 . S
C809 H813 0.950 . S
H810 C806 0.950 . S
C811 C809 1.390 . S
C811 C812 1.387 . S
C811 H814 0.950 . S
C812 C811 1.387 . S
C812 C815 1.387 . S
H813 C809 0.950 . S
H814 C811 0.950 . S
C815 C806 1.390 . S
C815 H808 0.950 . S
C815 C812 1.387 . S
C816 C817 1.387 . S
C816 H820 0.943 1_564 S
C816 C825 1.390 1_565 S
C817 C816 1.387 . S
C817 C819 1.387 . S
H818 C825 0.950 . S
C819 C817 1.387 . S
C819 C821 1.390 . S
C819 H823 0.950 . S
H820 C816 0.943 1_546 S
C821 C819 1.390 . S
C821 C822 1.387 . S
C821 H824 0.950 . S
C822 C821 1.387 . S
C822 C825 1.387 1_565 S
H823 C819 0.950 . S
H824 C821 0.950 . S
C825 C816 1.390 1_545 S
C825 H818 0.950 . S
C825 C822 1.387 1_545 S
C826 C827 1.387 . S
C826 H830 0.950 . S
C826 C835 1.390 . S
C827 C826 1.387 . S
C827 C829 1.387 1_556 S
H828 C835 0.950 . S
C829 C827 1.387 1_554 S
C829 C831 1.390 . S
C829 H833 0.950 . S
H830 C826 0.950 . S
C831 C829 1.390 . S
C831 C832 1.387 1_554 S
C831 H834 0.950 . S
C832 C831 1.387 1_556 S
C832 C835 1.387 . S
H833 C829 0.950 . S
H834 C831 0.950 . S
C835 C826 1.390 . S
C835 H828 0.950 . S
C835 C832 1.387 . S
C836 C837 1.387 . S
C836 H840 0.950 . S
C836 C845 1.390 . S
C837 C836 1.387 . S
C837 C839 1.387 . S
H838 C845 0.950 . S
C839 C837 1.387 . S
C839 C841 1.390 . S
C839 H843 0.950 . S
H840 C836 0.950 . S
C841 C839 1.390 . S
C841 C842 1.387 . S
C841 H844 0.950 . S
C842 C841 1.387 . S
C842 C845 1.387 . S
H843 C839 0.950 . S
H844 C841 0.950 . S
C845 C836 1.390 . S
C845 H838 0.950 . S
C845 C842 1.387 . S
C846 C847 1.387 . S
C846 H850 0.950 . S
C846 C855 1.390 . S
C847 C846 1.387 . S
C847 C849 1.387 . S
H848 C855 0.950 . S
C849 C847 1.387 . S
C849 C851 1.390 . S
C849 H853 0.950 . S
H850 C846 0.950 . S
C851 C849 1.390 . S
C851 C852 1.387 . S
C851 H854 0.950 . S
C852 C851 1.387 . S
C852 C855 1.387 . S
H853 C849 0.950 . S
H854 C851 0.950 . S
C855 C846 1.390 . S
C855 H848 0.950 . S
C855 C852 1.387 . S
C856 C857 1.387 . S
C856 H860 0.950 . S
C856 C865 1.390 . S
C857 C856 1.387 . S
C857 C859 1.387 . S
H858 C865 0.950 . S
C859 C857 1.387 . S
C859 C861 1.390 . S
C859 H863 0.950 . S
H860 C856 0.950 . S
C861 C859 1.390 . S
C861 C862 1.387 . S
C861 H864 0.950 . S
C862 C861 1.387 . S
C862 C865 1.387 . S
H863 C859 0.950 . S
H864 C861 0.950 . S
C865 C856 1.390 . S
C865 H858 0.950 . S
C865 C862 1.387 . S
C866 C867 1.387 . S
C866 H870 0.950 . S
C866 C875 1.390 . S
C867 C866 1.387 . S
C867 C869 1.387 . S
H868 C875 0.950 . S
C869 C867 1.387 . S
C869 C871 1.390 . S
C869 H873 0.950 . S
H870 C866 0.950 . S
C871 C869 1.390 . S
C871 C872 1.387 . S
C871 H874 0.950 . S
C872 C871 1.387 . S
C872 C875 1.387 . S
H873 C869 0.950 . S
H874 C871 0.950 . S
C875 C866 1.390 . S
C875 H868 0.950 . S
C875 C872 1.387 . S
C876 C877 1.387 . S
C876 H880 0.950 . S
C876 C885 1.390 . S
C877 C876 1.387 . S
C877 C879 1.387 . S
H878 C885 0.950 . S
C879 C877 1.387 . S
C879 C881 1.390 . S
C879 H883 0.950 . S
H880 C876 0.950 . S
C881 C879 1.390 . S
C881 C882 1.387 . S
C881 H884 0.950 . S
C882 C881 1.387 . S
C882 C885 1.387 . S
H883 C879 0.950 . S
H884 C881 0.950 . S
C885 C876 1.390 . S
C885 H878 0.950 . S
C885 C882 1.387 . S
C886 C887 1.387 . S
C886 H890 0.950 . S
C886 C895 1.390 . S
C887 C886 1.387 . S
C887 C889 1.387 . S
H888 C895 0.950 . S
C889 C887 1.387 . S
C889 C891 1.390 . S
C889 H893 0.950 . S
H890 C886 0.950 . S
C891 C889 1.390 . S
C891 C892 1.387 . S
C891 H894 0.950 . S
C892 C891 1.387 . S
C892 C895 1.387 . S
H893 C889 0.950 . S
H894 C891 0.950 . S
C895 C886 1.390 . S
C895 H888 0.950 . S
C895 C892 1.387 . S
C896 C897 1.387 . S
C896 H900 0.950 . S
C896 C905 1.390 . S
C897 C896 1.387 . S
C897 C899 1.387 . S
H898 C905 0.950 1_556 S
C899 C897 1.387 . S
C899 C901 1.390 . S
C899 H903 0.950 . S
H900 C896 0.950 . S
C901 C899 1.390 . S
C901 C902 1.387 . S
C901 H904 0.950 . S
C902 C901 1.387 . S
C902 C905 1.387 . S
H903 C899 0.950 . S
H904 C901 0.950 . S
C905 C896 1.390 . S
C905 H898 0.950 1_554 S
C905 C902 1.387 . S
C906 C907 1.387 . S
C906 H910 0.950 . S
C906 C915 1.390 . S
C907 C906 1.387 . S
C907 C909 1.387 . S
H908 C915 0.950 . S
C909 C907 1.387 . S
C909 C911 1.390 . S
C909 H913 0.950 . S
H910 C906 0.950 . S
C911 C909 1.390 . S
C911 C912 1.387 . S
C911 H914 0.950 . S
C912 C911 1.387 . S
C912 C915 1.387 . S
H913 C909 0.950 . S
H914 C911 0.950 . S
C915 C906 1.390 . S
C915 H908 0.950 . S
C915 C912 1.387 . S
C916 C917 1.387 . S
C916 H920 0.950 . S
C916 C925 1.390 . S
C917 C916 1.387 . S
C917 C919 1.387 . S
H918 C925 0.950 . S
C919 C917 1.387 . S
C919 C921 1.390 . S
C919 H923 0.950 . S
H920 C916 0.950 . S
C921 C919 1.390 . S
C921 C922 1.387 . S
C921 H924 0.950 . S
C922 C921 1.387 . S
C922 C925 1.387 . S
H923 C919 0.950 . S
H924 C921 0.950 . S
C925 C916 1.390 . S
C925 H918 0.950 . S
C925 C922 1.387 . S
C926 C927 1.387 . S
C926 H930 0.950 . S
C926 C935 1.390 . S
C927 C926 1.387 . S
C927 C929 1.387 . S
H928 C935 0.950 . S
C929 C927 1.387 . S
C929 C931 1.390 . S
C929 H933 0.950 . S
H930 C926 0.950 . S
C931 C929 1.390 . S
C931 C932 1.387 . S
C931 H934 0.950 . S
C932 C931 1.387 . S
C932 C935 1.387 . S
H933 C929 0.950 . S
H934 C931 0.950 . S
C935 C926 1.390 . S
C935 H928 0.950 . S
C935 C932 1.387 . S
C936 C937 1.387 . S
C936 H940 0.950 1_455 S
C936 C945 1.390 1_455 S
C937 C936 1.387 . S
C937 C939 1.387 . S
H938 C945 0.950 . S
C939 C937 1.387 . S
C939 C941 1.390 . S
C939 H943 0.950 . S
H940 C936 0.950 1_655 S
C941 C939 1.390 . S
C941 C942 1.387 . S
C941 H944 0.950 . S
C942 C941 1.387 . S
C942 C945 1.387 1_455 S
H943 C939 0.950 . S
H944 C941 0.950 . S
C945 C936 1.390 1_655 S
C945 H938 0.950 . S
C945 C942 1.387 1_655 S
C946 C947 1.387 . S
C946 H950 0.950 . S
C946 C955 1.390 . S
C947 C946 1.387 . S
C947 C949 1.387 . S
H948 C955 0.950 . S
C949 C947 1.387 . S
C949 C951 1.390 . S
C949 H953 0.950 . S
H950 C946 0.950 . S
C951 C949 1.390 . S
C951 C952 1.387 . S
C951 H954 0.950 . S
C952 C951 1.387 . S
C952 C955 1.387 . S
H953 C949 0.950 . S
H954 C951 0.950 . S
C955 C946 1.390 . S
C955 H948 0.950 . S
C955 C952 1.387 . S
C956 C957 1.387 . S
C956 H960 0.950 . S
C956 C965 1.390 . S
C957 C956 1.387 . S
C957 C959 1.387 . S
H958 C965 0.950 . S
C959 C957 1.387 . S
C959 C961 1.390 . S
C959 H963 0.950 . S
H960 C956 0.950 . S
C961 C959 1.390 . S
C961 C962 1.387 . S
C961 H964 0.950 1_556 S
C962 C961 1.387 . S
C962 C965 1.387 . S
H963 C959 0.950 . S
H964 C961 0.950 1_554 S
C965 C956 1.390 . S
C965 H958 0.950 . S
C965 C962 1.387 . S
C966 C967 1.387 . S
C966 H970 0.950 . S
C966 C975 1.390 . S
C967 C966 1.387 . S
C967 C969 1.387 . S
H968 C975 0.950 . S
C969 C967 1.387 . S
C969 C971 1.390 . S
C969 H973 0.950 . S
H970 C966 0.950 . S
C971 C969 1.390 . S
C971 C972 1.387 . S
C971 H974 0.950 . S
C972 C971 1.387 . S
C972 C975 1.387 . S
H973 C969 0.950 . S
H974 C971 0.950 . S
C975 C966 1.390 . S
C975 H968 0.950 . S
C975 C972 1.387 . S
C976 C977 1.387 . S
C976 H980 0.950 . S
C976 C985 1.390 . S
C977 C976 1.387 . S
C977 C979 1.387 1_545 S
H978 C985 0.950 . S
C979 C977 1.387 1_565 S
C979 C981 1.390 . S
C979 H983 0.950 . S
H980 C976 0.950 . S
C981 C979 1.390 . S
C981 C982 1.387 1_565 S
C981 H984 0.950 . S
C982 C981 1.387 1_545 S
C982 C985 1.387 . S
H983 C979 0.950 . S
H984 C981 0.950 . S
C985 C976 1.390 . S
C985 H978 0.950 . S
C985 C982 1.387 . S
C986 C987 1.387 . S
C986 H990 0.950 . S
C986 C995 1.390 . S
C987 C986 1.387 . S
C987 C989 1.387 . S
H988 C995 0.950 . S
C989 C987 1.387 . S
C989 C991 1.390 . S
C989 H993 0.950 . S
H990 C986 0.950 . S
C991 C989 1.390 . S
C991 C992 1.387 . S
C991 H994 0.950 . S
C992 C991 1.387 . S
C992 C995 1.387 . S
H993 C989 0.950 . S
H994 C991 0.950 . S
C995 C986 1.390 . S
C995 H988 0.950 . S
C995 C992 1.387 . S
C996 C997 1.387 . S
C996 H1000 0.950 . S
C996 C1005 1.390 . S
C997 C996 1.387 . S
C997 C999 1.387 1_545 S
H998 C1005 0.950 . S
C999 C997 1.387 1_565 S
C999 C1001 1.390 . S
C999 H1003 0.950 . S
H1000 C996 0.950 . S
C1001 C999 1.390 . S
C1001 C1002 1.387 1_565 S
C1001 H1004 0.950 . S
C1002 C1001 1.387 1_545 S
C1002 C1005 1.387 . S
H1003 C999 0.950 . S
H1004 C1001 0.950 . S
C1005 C996 1.390 . S
C1005 H998 0.950 . S
C1005 C1002 1.387 . S
C1006 C1007 1.387 . S
C1006 H1010 0.950 . S
C1006 C1015 1.390 . S
C1007 C1006 1.387 . S
C1007 C1009 1.387 . S
H1008 C1015 0.950 . S
C1009 C1007 1.387 . S
C1009 C1011 1.390 . S
C1009 H1013 0.950 . S
H1010 C1006 0.950 . S
C1011 C1009 1.390 . S
C1011 C1012 1.387 . S
C1011 H1014 0.950 . S
C1012 C1011 1.387 . S
C1012 C1015 1.387 . S
H1013 C1009 0.950 . S
H1014 C1011 0.950 . S
C1015 C1006 1.390 . S
C1015 H1008 0.950 . S
C1015 C1012 1.387 . S
C1016 C1017 1.387 . S
C1016 H1020 0.950 . S
C1016 C1025 1.390 . S
C1017 C1016 1.387 . S
C1017 C1019 1.387 1_565 S
H1018 C1025 0.950 . S
C1019 C1017 1.387 1_545 S
C1019 C1021 1.390 . S
C1019 H1023 0.950 . S
H1020 C1016 0.950 . S
C1021 C1019 1.390 . S
C1021 C1022 1.387 . S
C1021 H1024 0.950 . S
C1022 C1021 1.387 . S
C1022 C1025 1.387 1_545 S
H1023 C1019 0.950 . S
H1024 C1021 0.950 . S
C1025 C1016 1.390 . S
C1025 H1018 0.950 . S
C1025 C1022 1.387 1_565 S
C1026 C1027 1.387 . S
C1026 H1030 0.950 . S
C1026 C1035 1.390 . S
C1027 C1026 1.387 . S
C1027 C1029 1.387 . S
H1028 C1035 0.950 . S
C1029 C1027 1.387 . S
C1029 C1031 1.390 . S
C1029 H1033 0.950 . S
H1030 C1026 0.950 . S
C1031 C1029 1.390 . S
C1031 C1032 1.387 . S
C1031 H1034 0.950 . S
C1032 C1031 1.387 . S
C1032 C1035 1.387 . S
H1033 C1029 0.950 . S
H1034 C1031 0.950 . S
C1035 C1026 1.390 . S
C1035 H1028 0.950 . S
C1035 C1032 1.387 . S
C1036 C1037 1.387 . S
C1036 H1040 0.950 . S
C1036 C1045 1.390 . S
C1037 C1036 1.387 . S
C1037 C1039 1.387 1_545 S
H1038 C1045 0.950 . S
C1039 C1037 1.387 1_565 S
C1039 C1041 1.390 . S
C1039 H1043 0.950 . S
H1040 C1036 0.950 . S
C1041 C1039 1.390 . S
C1041 C1042 1.387 . S
C1041 H1044 0.950 . S
C1042 C1041 1.387 . S
C1042 C1045 1.387 1_565 S
H1043 C1039 0.950 . S
H1044 C1041 0.950 . S
C1045 C1036 1.390 . S
C1045 H1038 0.950 . S
C1045 C1042 1.387 1_545 S
C1046 C1047 1.387 . S
C1046 H1050 0.950 . S
C1046 C1055 1.390 . S
C1047 C1046 1.387 . S
C1047 C1049 1.387 . S
H1048 C1055 0.950 . S
C1049 C1047 1.387 . S
C1049 C1051 1.390 . S
C1049 H1053 0.950 . S
H1050 C1046 0.950 . S
C1051 C1049 1.390 . S
C1051 C1052 1.387 . S
C1051 H1054 0.950 . S
C1052 C1051 1.387 . S
C1052 C1055 1.387 . S
H1053 C1049 0.950 . S
H1054 C1051 0.950 . S
C1055 C1046 1.390 . S
C1055 H1048 0.950 . S
C1055 C1052 1.387 . S
C1056 C1057 1.385 1_554 S
C1056 H1060 0.950 . S
C1056 C1065 1.390 . S
C1057 C1056 1.385 1_556 S
C1057 C1059 1.391 . S
H1058 C1065 0.950 . S
C1059 C1057 1.391 . S
C1059 C1061 1.390 . S
C1059 H1063 0.950 . S
H1060 C1056 0.950 . S
C1061 C1059 1.390 . S
C1061 C1062 1.387 . S
C1061 H1064 0.950 . S
C1062 C1061 1.387 . S
C1062 C1065 1.387 1_556 S
H1063 C1059 0.950 . S
H1064 C1061 0.950 . S
C1065 C1056 1.390 . S
C1065 H1058 0.950 . S
C1065 C1062 1.387 1_554 S
C1066 C1067 1.387 . S
C1066 H1070 0.950 . S
C1066 C1075 1.390 . S
C1067 C1066 1.387 . S
C1067 C1069 1.387 1_554 S
H1068 C1075 0.950 . S
C1069 C1067 1.387 1_556 S
C1069 C1071 1.390 . S
C1069 H1073 0.950 . S
H1070 C1066 0.950 . S
C1071 C1069 1.390 . S
C1071 C1072 1.387 1_556 S
C1071 H1074 0.950 . S
C1072 C1071 1.387 1_554 S
C1072 C1075 1.387 . S
H1073 C1069 0.950 . S
H1074 C1071 0.950 . S
C1075 C1066 1.390 . S
C1075 H1068 0.950 . S
C1075 C1072 1.387 . S
C1076 C1077 1.387 . S
C1076 H1080 0.950 . S
C1076 C1085 1.390 . S
C1077 C1076 1.387 . S
C1077 C1079 1.387 . S
H1078 C1085 0.950 . S
C1079 C1077 1.387 . S
C1079 C1081 1.390 . S
C1079 H1083 0.950 . S
H1080 C1076 0.950 . S
C1081 C1079 1.390 . S
C1081 C1082 1.387 . S
C1081 H1084 0.950 . S
C1082 C1081 1.387 . S
C1082 C1085 1.387 . S
H1083 C1079 0.950 . S
H1084 C1081 0.950 . S
C1085 C1076 1.390 . S
C1085 H1078 0.950 . S
C1085 C1082 1.387 . S
C1086 C1087 1.387 . S
C1086 H1090 0.950 . S
C1086 C1095 1.390 . S
C1087 C1086 1.387 . S
C1087 C1089 1.387 . S
H1088 C1095 0.950 . S
C1089 C1087 1.387 . S
C1089 C1091 1.390 . S
C1089 H1093 0.950 . S
H1090 C1086 0.950 . S
C1091 C1089 1.390 . S
C1091 C1092 1.387 . S
C1091 H1094 0.950 . S
C1092 C1091 1.387 . S
C1092 C1095 1.387 . S
H1093 C1089 0.950 . S
H1094 C1091 0.950 . S
C1095 C1086 1.390 . S
C1095 H1088 0.950 . S
C1095 C1092 1.387 . S
C1096 C1097 1.387 . S
C1096 H1100 0.950 . S
C1096 C1105 1.390 . S
C1097 C1096 1.387 . S
C1097 C1099 1.387 . S
H1098 C1105 0.950 . S
C1099 C1097 1.387 . S
C1099 C1101 1.390 . S
C1099 H1103 0.950 . S
H1100 C1096 0.950 . S
C1101 C1099 1.390 . S
C1101 C1102 1.387 . S
C1101 H1104 0.950 . S
C1102 C1101 1.387 . S
C1102 C1105 1.387 . S
H1103 C1099 0.950 . S
H1104 C1101 0.950 . S
C1105 C1096 1.390 . S
C1105 H1098 0.950 . S
C1105 C1102 1.387 . S
C1106 C1107 1.387 . S
C1106 H1110 0.950 . S
C1106 C1115 1.390 . S
C1107 C1106 1.387 . S
C1107 C1109 1.387 . S
H1108 C1115 0.950 . S
C1109 C1107 1.387 . S
C1109 C1111 1.390 . S
C1109 H1113 0.950 . S
H1110 C1106 0.950 . S
C1111 C1109 1.390 . S
C1111 C1112 1.387 . S
C1111 H1114 0.950 . S
C1112 C1111 1.387 . S
C1112 C1115 1.387 . S
H1113 C1109 0.950 . S
H1114 C1111 0.950 . S
C1115 C1106 1.390 . S
C1115 H1108 0.950 . S
C1115 C1112 1.387 . S
C1116 C1117 1.387 . S
C1116 H1120 0.950 . S
C1116 C1125 1.390 . S
C1117 C1116 1.387 . S
C1117 C1119 1.387 . S
H1118 C1125 0.950 . S
C1119 C1117 1.387 . S
C1119 C1121 1.390 . S
C1119 H1123 0.950 . S
H1120 C1116 0.950 . S
C1121 C1119 1.390 . S
C1121 C1122 1.387 . S
C1121 H1124 0.950 . S
C1122 C1121 1.387 . S
C1122 C1125 1.387 . S
H1123 C1119 0.950 . S
H1124 C1121 0.950 . S
C1125 C1116 1.390 . S
C1125 H1118 0.950 . S
C1125 C1122 1.387 . S
C1126 C1127 1.387 . S
C1126 H1130 0.950 . S
C1126 C1135 1.390 . S
C1127 C1126 1.387 . S
C1127 C1129 1.387 . S
H1128 C1135 0.950 . S
C1129 C1127 1.387 . S
C1129 C1131 1.390 . S
C1129 H1133 0.950 . S
H1130 C1126 0.950 . S
C1131 C1129 1.390 . S
C1131 C1132 1.387 . S
C1131 H1134 0.950 . S
C1132 C1131 1.387 . S
C1132 C1135 1.387 . S
H1133 C1129 0.950 . S
H1134 C1131 0.950 . S
C1135 C1126 1.390 . S
C1135 H1128 0.950 . S
C1135 C1132 1.387 . S
C1136 C1137 1.387 . S
C1136 H1140 0.950 . S
C1136 C1145 1.390 . S
C1137 C1136 1.387 . S
C1137 C1139 1.387 . S
H1138 C1145 0.950 . S
C1139 C1137 1.387 . S
C1139 C1141 1.390 . S
C1139 H1143 0.950 . S
H1140 C1136 0.950 . S
C1141 C1139 1.390 . S
C1141 C1142 1.387 . S
C1141 H1144 0.950 . S
C1142 C1141 1.387 . S
C1142 C1145 1.387 . S
H1143 C1139 0.950 . S
H1144 C1141 0.950 . S
C1145 C1136 1.390 . S
C1145 H1138 0.950 . S
C1145 C1142 1.387 . S
C1146 C1147 1.387 . S
C1146 H1150 0.950 . S
C1146 C1155 1.390 . S
C1147 C1146 1.387 . S
C1147 C1149 1.387 . S
H1148 C1155 0.950 . S
C1149 C1147 1.387 . S
C1149 C1151 1.390 . S
C1149 H1153 0.950 . S
H1150 C1146 0.950 . S
C1151 C1149 1.390 . S
C1151 C1152 1.387 . S
C1151 H1154 0.950 . S
C1152 C1151 1.387 . S
C1152 C1155 1.387 . S
H1153 C1149 0.950 . S
H1154 C1151 0.950 . S
C1155 C1146 1.390 . S
C1155 H1148 0.950 . S
C1155 C1152 1.387 . S
C1156 C1157 1.387 . S
C1156 H1160 0.950 . S
C1156 C1165 1.390 . S
C1157 C1156 1.387 . S
C1157 C1159 1.387 1_455 S
H1158 C1165 0.950 . S
C1159 C1157 1.387 1_655 S
C1159 C1161 1.390 . S
C1159 H1163 0.950 . S
H1160 C1156 0.950 . S
C1161 C1159 1.390 . S
C1161 C1162 1.387 1_655 S
C1161 H1164 0.950 . S
C1162 C1161 1.387 1_455 S
C1162 C1165 1.387 . S
H1163 C1159 0.950 . S
H1164 C1161 0.950 . S
C1165 C1156 1.390 . S
C1165 H1158 0.950 . S
C1165 C1162 1.387 . S
C1166 C1167 1.387 . S
C1166 H1170 0.950 . S
C1166 C1175 1.390 . S
C1167 C1166 1.387 . S
C1167 C1169 1.387 . S
H1168 C1175 0.950 . S
C1169 C1167 1.387 . S
C1169 C1171 1.390 . S
C1169 H1173 0.950 . S
H1170 C1166 0.950 . S
C1171 C1169 1.390 . S
C1171 C1172 1.387 . S
C1171 H1174 0.950 . S
C1172 C1171 1.387 . S
C1172 C1175 1.387 . S
H1173 C1169 0.950 . S
H1174 C1171 0.950 . S
C1175 C1166 1.390 . S
C1175 H1168 0.950 . S
C1175 C1172 1.387 . S
C1176 C1177 1.387 . S
C1176 H1180 0.950 . S
C1176 C1185 1.390 . S
C1177 C1176 1.387 . S
C1177 C1179 1.387 . S
H1178 C1185 0.950 . S
C1179 C1177 1.387 . S
C1179 C1181 1.390 . S
C1179 H1183 0.950 . S
H1180 C1176 0.950 . S
C1181 C1179 1.390 . S
C1181 C1182 1.387 . S
C1181 H1184 0.950 . S
C1182 C1181 1.387 . S
C1182 C1185 1.387 . S
H1183 C1179 0.950 . S
H1184 C1181 0.950 . S
C1185 C1176 1.390 . S
C1185 H1178 0.950 . S
C1185 C1182 1.387 . S
C1186 C1187 1.387 . S
C1186 H1190 0.950 . S
C1186 C1195 1.390 . S
C1187 C1186 1.387 . S
C1187 C1189 1.387 . S
H1188 C1195 0.950 . S
C1189 C1187 1.387 . S
C1189 C1191 1.390 . S
C1189 H1193 0.950 . S
H1190 C1186 0.950 . S
C1191 C1189 1.390 . S
C1191 C1192 1.387 . S
C1191 H1194 0.950 . S
C1192 C1191 1.387 . S
C1192 C1195 1.387 . S
H1193 C1189 0.950 . S
H1194 C1191 0.950 . S
C1195 C1186 1.390 . S
C1195 H1188 0.950 . S
C1195 C1192 1.387 . S
C1196 C1197 1.387 1_455 S
C1196 H1200 0.950 . S
C1196 C1205 1.390 . S
C1197 C1196 1.387 1_655 S
C1197 C1199 1.387 . S
H1198 C1205 0.950 . S
C1199 C1197 1.387 . S
C1199 C1201 1.390 . S
C1199 H1203 0.950 . S
H1200 C1196 0.950 . S
C1201 C1199 1.390 . S
C1201 C1202 1.387 1_655 S
C1201 H1204 0.950 . S
C1202 C1201 1.387 1_455 S
C1202 C1205 1.387 . S
H1203 C1199 0.950 . S
H1204 C1201 0.950 . S
C1205 C1196 1.390 . S
C1205 H1198 0.950 . S
C1205 C1202 1.387 . S
C1206 C1207 1.387 . S
C1206 H1210 0.950 . S
C1206 C1215 1.390 . S
C1207 C1206 1.387 . S
C1207 C1209 1.387 . S
H1208 C1215 0.950 . S
C1209 C1207 1.387 . S
C1209 C1211 1.390 . S
C1209 H1213 0.950 . S
H1210 C1206 0.950 . S
C1211 C1209 1.390 . S
C1211 C1212 1.387 . S
C1211 H1214 0.950 . S
C1212 C1211 1.387 . S
C1212 C1215 1.387 . S
H1213 C1209 0.950 . S
H1214 C1211 0.950 . S
C1215 C1206 1.390 . S
C1215 H1208 0.950 . S
C1215 C1212 1.387 . S
C1216 C1217 1.387 . S
C1216 H1220 0.950 . S
C1216 C1225 1.390 . S
C1217 C1216 1.387 . S
C1217 C1219 1.387 . S
H1218 C1225 0.950 . S
C1219 C1217 1.387 . S
C1219 C1221 1.390 . S
C1219 H1223 0.950 . S
H1220 C1216 0.950 . S
C1221 C1219 1.390 . S
C1221 C1222 1.387 . S
C1221 H1224 0.950 . S
C1222 C1221 1.387 . S
C1222 C1225 1.387 . S
H1223 C1219 0.950 . S
H1224 C1221 0.950 . S
C1225 C1216 1.390 . S
C1225 H1218 0.950 . S
C1225 C1222 1.387 . S
C1226 C1227 1.387 . S
C1226 H1230 0.950 . S
C1226 C1235 1.390 . S
C1227 C1226 1.387 . S
C1227 C1229 1.387 . S
H1228 C1235 0.950 . S
C1229 C1227 1.387 . S
C1229 C1231 1.390 . S
C1229 H1233 0.950 . S
H1230 C1226 0.950 . S
C1231 C1229 1.390 . S
C1231 C1232 1.387 . S
C1231 H1234 0.950 . S
C1232 C1231 1.387 . S
C1232 C1235 1.387 . S
H1233 C1229 0.950 . S
H1234 C1231 0.950 . S
C1235 C1226 1.390 . S
C1235 H1228 0.950 . S
C1235 C1232 1.387 . S
C1236 C1237 1.387 . S
C1236 H1240 0.950 . S
C1236 C1245 1.390 . S
C1237 C1236 1.387 . S
C1237 C1239 1.387 . S
H1238 C1245 0.950 . S
C1239 C1237 1.387 . S
C1239 C1241 1.390 . S
C1239 H1243 0.950 . S
H1240 C1236 0.950 . S
C1241 C1239 1.390 . S
C1241 C1242 1.387 . S
C1241 H1244 0.950 . S
C1242 C1241 1.387 . S
C1242 C1245 1.387 . S
H1243 C1239 0.950 . S
H1244 C1241 0.950 . S
C1245 C1236 1.390 . S
C1245 H1238 0.950 . S
C1245 C1242 1.387 . S
C1246 C1247 1.387 . S
C1246 H1250 0.950 . S
C1246 C1255 1.390 . S
C1247 C1246 1.387 . S
C1247 C1249 1.387 . S
H1248 C1255 0.950 . S
C1249 C1247 1.387 . S
C1249 C1251 1.390 . S
C1249 H1253 0.950 . S
H1250 C1246 0.950 . S
C1251 C1249 1.390 . S
C1251 C1252 1.387 . S
C1251 H1254 0.950 . S
C1252 C1251 1.387 . S
C1252 C1255 1.387 . S
H1253 C1249 0.950 . S
H1254 C1251 0.950 . S
C1255 C1246 1.390 . S
C1255 H1248 0.950 . S
C1255 C1252 1.387 . S
C1256 C1257 1.387 . S
C1256 H1260 0.950 . S
C1256 C1265 1.390 . S
C1257 C1256 1.387 . S
C1257 C1259 1.387 . S
H1258 C1265 0.950 . S
C1259 C1257 1.387 . S
C1259 C1261 1.390 . S
C1259 H1263 0.950 . S
H1260 C1256 0.950 . S
C1261 C1259 1.390 . S
C1261 C1262 1.387 . S
C1261 H1264 0.950 . S
C1262 C1261 1.387 . S
C1262 C1265 1.387 . S
H1263 C1259 0.950 . S
H1264 C1261 0.950 . S
C1265 C1256 1.390 . S
C1265 H1258 0.950 . S
C1265 C1262 1.387 . S
C1266 C1267 1.387 . S
C1266 H1270 0.950 . S
C1266 C1275 1.390 . S
C1267 C1266 1.387 . S
C1267 C1269 1.387 . S
H1268 C1275 0.950 . S
C1269 C1267 1.387 . S
C1269 C1271 1.390 . S
C1269 H1273 0.950 . S
H1270 C1266 0.950 . S
C1271 C1269 1.390 . S
C1271 C1272 1.387 . S
C1271 H1274 0.950 . S
C1272 C1271 1.387 . S
C1272 C1275 1.387 . S
H1273 C1269 0.950 . S
H1274 C1271 0.950 . S
C1275 C1266 1.390 . S
C1275 H1268 0.950 . S
C1275 C1272 1.387 . S
C1276 C1277 1.387 . S
C1276 H1280 0.950 . S
C1276 C1285 1.390 . S
C1277 C1276 1.387 . S
C1277 C1279 1.387 . S
H1278 C1285 0.950 . S
C1279 C1277 1.387 . S
C1279 C1281 1.390 . S
C1279 H1283 0.950 . S
H1280 C1276 0.950 . S
C1281 C1279 1.390 . S
C1281 C1282 1.387 . S
C1281 H1284 0.950 . S
C1282 C1281 1.387 . S
C1282 C1285 1.387 . S
H1283 C1279 0.950 . S
H1284 C1281 0.950 . S
C1285 C1276 1.390 . S
C1285 H1278 0.950 . S
C1285 C1282 1.387 . S
C1286 C1287 1.387 . S
C1286 H1290 0.950 . S
C1286 C1295 1.390 . S
C1287 C1286 1.387 . S
C1287 C1289 1.387 . S
H1288 C1295 0.950 . S
C1289 C1287 1.387 . S
C1289 C1291 1.390 . S
C1289 H1293 0.950 . S
H1290 C1286 0.950 . S
C1291 C1289 1.390 . S
C1291 C1292 1.387 . S
C1291 H1294 0.950 . S
C1292 C1291 1.387 . S
C1292 C1295 1.387 . S
H1293 C1289 0.950 . S
H1294 C1291 0.950 . S
C1295 C1286 1.390 . S
C1295 H1288 0.950 . S
C1295 C1292 1.387 . S
C1296 C1297 1.387 . S
C1296 H1300 0.950 . S
C1296 C1305 1.390 . S
C1297 C1296 1.387 . S
C1297 C1299 1.387 . S
H1298 C1305 0.950 . S
C1299 C1297 1.387 . S
C1299 C1301 1.390 . S
C1299 H1303 0.950 . S
H1300 C1296 0.950 . S
C1301 C1299 1.390 . S
C1301 C1302 1.387 . S
C1301 H1304 0.950 . S
C1302 C1301 1.387 . S
C1302 C1305 1.387 . S
H1303 C1299 0.950 . S
H1304 C1301 0.950 . S
C1305 C1296 1.390 . S
C1305 H1298 0.950 . S
C1305 C1302 1.387 . S
C1306 C1307 1.387 . S
C1306 H1310 0.950 . S
C1306 C1315 1.390 . S
C1307 C1306 1.387 . S
C1307 C1309 1.387 . S
H1308 C1315 0.950 . S
C1309 C1307 1.387 . S
C1309 C1311 1.390 . S
C1309 H1313 0.950 . S
H1310 C1306 0.950 . S
C1311 C1309 1.390 . S
C1311 C1312 1.387 . S
C1311 H1314 0.950 . S
C1312 C1311 1.387 . S
C1312 C1315 1.387 . S
H1313 C1309 0.950 . S
H1314 C1311 0.950 . S
C1315 C1306 1.390 . S
C1315 H1308 0.950 . S
C1315 C1312 1.387 . S
C1316 C1317 1.387 . S
C1316 H1320 0.950 . S
C1316 C1325 1.390 . S
C1317 C1316 1.387 . S
C1317 C1319 1.387 . S
H1318 C1325 0.950 . S
C1319 C1317 1.387 . S
C1319 C1321 1.390 . S
C1319 H1323 0.950 . S
H1320 C1316 0.950 . S
C1321 C1319 1.390 . S
C1321 C1322 1.387 . S
C1321 H1324 0.950 . S
C1322 C1321 1.387 . S
C1322 C1325 1.387 . S
H1323 C1319 0.950 . S
H1324 C1321 0.950 . S
C1325 C1316 1.390 . S
C1325 H1318 0.950 . S
C1325 C1322 1.387 . S
C1326 C1327 1.387 1_556 S
C1326 H1330 0.950 . S
C1326 C1335 1.390 . S
C1327 C1326 1.387 1_554 S
C1327 C1329 1.387 . S
H1328 C1335 0.950 . S
C1329 C1327 1.387 . S
C1329 C1331 1.390 1_565 S
C1329 H1333 0.950 . S
H1330 C1326 0.950 . S
C1331 C1329 1.390 1_545 S
C1331 C1332 1.387 1_545 S
C1331 H1334 0.950 . S
C1332 C1331 1.387 1_565 S
C1332 C1335 1.387 1_554 S
H1333 C1329 0.950 . S
H1334 C1331 0.950 . S
C1335 C1326 1.390 . S
C1335 H1328 0.950 . S
C1335 C1332 1.387 1_556 S
C1336 C1337 1.387 . S
C1336 H1340 0.950 . S
C1336 C1345 1.390 . S
C1337 C1336 1.387 . S
C1337 C1339 1.387 . S
H1338 C1345 0.950 . S
C1339 C1337 1.387 . S
C1339 C1341 1.390 . S
C1339 H1343 0.950 . S
H1340 C1336 0.950 . S
C1341 C1339 1.390 . S
C1341 C1342 1.387 . S
C1341 H1344 0.950 . S
C1342 C1341 1.387 . S
C1342 C1345 1.387 . S
H1343 C1339 0.950 . S
H1344 C1341 0.950 . S
C1345 C1336 1.390 . S
C1345 H1338 0.950 . S
C1345 C1342 1.387 . S
C1346 C1347 1.387 1_556 S
C1346 H1350 0.950 . S
C1346 C1355 1.390 1_556 S
C1347 C1346 1.387 1_554 S
C1347 C1349 1.387 . S
H1348 C1355 0.949 1_556 S
C1349 C1347 1.387 . S
C1349 C1351 1.390 . S
C1349 H1353 0.950 . S
H1350 C1346 0.950 . S
C1351 C1349 1.390 . S
C1351 C1352 1.387 . S
C1351 H1354 0.950 . S
C1352 C1351 1.387 . S
C1352 C1355 1.388 . S
H1353 C1349 0.950 . S
H1354 C1351 0.950 . S
C1355 C1346 1.390 1_554 S
C1355 H1348 0.949 1_554 S
C1355 C1352 1.388 . S
C1356 C1357 1.387 . S
C1356 H1360 0.950 . S
C1356 C1365 1.390 . S
C1357 C1356 1.387 . S
C1357 C1359 1.387 . S
H1358 C1365 0.950 . S
C1359 C1357 1.387 . S
C1359 C1361 1.390 . S
C1359 H1363 0.950 . S
H1360 C1356 0.950 . S
C1361 C1359 1.390 . S
C1361 C1362 1.387 . S
C1361 H1364 0.950 . S
C1362 C1361 1.387 . S
C1362 C1365 1.387 . S
H1363 C1359 0.950 . S
H1364 C1361 0.950 . S
C1365 C1356 1.390 . S
C1365 H1358 0.950 . S
C1365 C1362 1.387 . S
C1366 C1367 1.387 . S
C1366 H1370 0.950 . S
C1366 C1375 1.390 . S
C1367 C1366 1.387 . S
C1367 C1369 1.387 . S
H1368 C1375 0.950 . S
C1369 C1367 1.387 . S
C1369 C1371 1.390 . S
C1369 H1373 0.950 . S
H1370 C1366 0.950 . S
C1371 C1369 1.390 . S
C1371 C1372 1.387 . S
C1371 H1374 0.950 . S
C1372 C1371 1.387 . S
C1372 C1375 1.387 . S
H1373 C1369 0.950 . S
H1374 C1371 0.950 . S
C1375 C1366 1.390 . S
C1375 H1368 0.950 . S
C1375 C1372 1.387 . S
C1376 C1377 1.387 . S
C1376 H1380 0.950 . S
C1376 C1385 1.390 . S
C1377 C1376 1.387 . S
C1377 C1379 1.387 . S
H1378 C1385 0.950 . S
C1379 C1377 1.387 . S
C1379 C1381 1.390 . S
C1379 H1383 0.950 . S
H1380 C1376 0.950 . S
C1381 C1379 1.390 . S
C1381 C1382 1.387 . S
C1381 H1384 0.950 . S
C1382 C1381 1.387 . S
C1382 C1385 1.387 . S
H1383 C1379 0.950 . S
H1384 C1381 0.950 . S
C1385 C1376 1.390 . S
C1385 H1378 0.950 . S
C1385 C1382 1.387 . S
C1386 C1387 1.387 . S
C1386 H1390 0.950 . S
C1386 C1395 1.390 . S
C1387 C1386 1.387 . S
C1387 C1389 1.387 . S
H1388 C1395 0.950 . S
C1389 C1387 1.387 . S
C1389 C1391 1.390 . S
C1389 H1393 0.950 . S
H1390 C1386 0.950 . S
C1391 C1389 1.390 . S
C1391 C1392 1.387 . S
C1391 H1394 0.950 . S
C1392 C1391 1.387 . S
C1392 C1395 1.387 . S
H1393 C1389 0.950 . S
H1394 C1391 0.950 . S
C1395 C1386 1.390 . S
C1395 H1388 0.950 . S
C1395 C1392 1.387 . S
C1396 C1397 1.387 . S
C1396 H1400 0.950 . S
C1396 C1405 1.390 . S
C1397 C1396 1.387 . S
C1397 C1399 1.387 . S
H1398 C1405 0.950 . S
C1399 C1397 1.387 . S
C1399 C1401 1.390 . S
C1399 H1403 0.950 . S
H1400 C1396 0.950 . S
C1401 C1399 1.390 . S
C1401 C1402 1.387 . S
C1401 H1404 0.950 1_554 S
C1402 C1401 1.387 . S
C1402 C1405 1.387 . S
H1403 C1399 0.950 . S
H1404 C1401 0.950 1_556 S
C1405 C1396 1.390 . S
C1405 H1398 0.950 . S
C1405 C1402 1.387 . S
C1406 C1407 1.387 . S
C1406 H1410 0.950 . S
C1406 C1415 1.390 . S
C1407 C1406 1.387 . S
C1407 C1409 1.387 . S
H1408 C1415 0.950 . S
C1409 C1407 1.387 . S
C1409 C1411 1.390 . S
C1409 H1413 0.950 . S
H1410 C1406 0.950 . S
C1411 C1409 1.390 . S
C1411 C1412 1.387 . S
C1411 H1414 0.950 . S
C1412 C1411 1.387 . S
C1412 C1415 1.387 . S
H1413 C1409 0.950 . S
H1414 C1411 0.950 . S
C1415 C1406 1.390 . S
C1415 H1408 0.950 . S
C1415 C1412 1.387 . S
C1416 C1417 1.387 . S
C1416 H1420 0.950 . S
C1416 C1425 1.390 . S
C1417 C1416 1.387 . S
C1417 C1419 1.387 . S
H1418 C1425 0.950 . S
C1419 C1417 1.387 . S
C1419 C1421 1.390 . S
C1419 H1423 0.950 . S
H1420 C1416 0.950 . S
C1421 C1419 1.390 . S
C1421 C1422 1.387 . S
C1421 H1424 0.950 . S
C1422 C1421 1.387 . S
C1422 C1425 1.387 . S
H1423 C1419 0.950 . S
H1424 C1421 0.950 . S
C1425 C1416 1.390 . S
C1425 H1418 0.950 . S
C1425 C1422 1.387 . S
C1426 C1427 1.387 . S
C1426 H1430 0.950 . S
C1426 C1435 1.390 . S
C1427 C1426 1.387 . S
C1427 C1429 1.387 . S
H1428 C1435 0.950 . S
C1429 C1427 1.387 . S
C1429 C1431 1.390 . S
C1429 H1433 0.950 . S
H1430 C1426 0.950 . S
C1431 C1429 1.390 . S
C1431 C1432 1.387 . S
C1431 H1434 0.950 . S
C1432 C1431 1.387 . S
C1432 C1435 1.387 . S
H1433 C1429 0.950 . S
H1434 C1431 0.950 . S
C1435 C1426 1.390 . S
C1435 H1428 0.950 . S
C1435 C1432 1.387 . S
C1436 C1437 1.387 . S
C1436 H1440 0.950 . S
C1436 C1445 1.390 . S
C1437 C1436 1.387 . S
C1437 C1439 1.387 . S
H1438 C1445 0.950 . S
C1439 C1437 1.387 . S
C1439 C1441 1.390 1_455 S
C1439 H1443 0.950 1_455 S
H1440 C1436 0.950 . S
C1441 C1439 1.390 1_655 S
C1441 C1442 1.387 1_655 S
C1441 H1444 0.950 . S
C1442 C1441 1.387 1_455 S
C1442 C1445 1.387 . S
H1443 C1439 0.950 1_655 S
H1444 C1441 0.950 . S
C1445 C1436 1.390 . S
C1445 H1438 0.950 . S
C1445 C1442 1.387 . S
C1446 C1447 1.387 . S
C1446 H1450 0.950 . S
C1446 C1455 1.390 . S
C1447 C1446 1.387 . S
C1447 C1449 1.387 . S
H1448 C1455 0.950 . S
C1449 C1447 1.387 . S
C1449 C1451 1.390 . S
C1449 H1453 0.950 . S
H1450 C1446 0.950 . S
C1451 C1449 1.390 . S
C1451 C1452 1.387 . S
C1451 H1454 0.950 . S
C1452 C1451 1.387 . S
C1452 C1455 1.387 . S
H1453 C1449 0.950 . S
H1454 C1451 0.950 . S
C1455 C1446 1.390 . S
C1455 H1448 0.950 . S
C1455 C1452 1.387 . S
C1456 C1457 1.387 . S
C1456 H1460 0.950 . S
C1456 C1465 1.390 . S
C1457 C1456 1.387 . S
C1457 C1459 1.387 . S
H1458 C1465 0.950 . S
C1459 C1457 1.387 . S
C1459 C1461 1.390 . S
C1459 H1463 0.950 . S
H1460 C1456 0.950 . S
C1461 C1459 1.390 . S
C1461 C1462 1.387 . S
C1461 H1464 0.950 . S
C1462 C1461 1.387 . S
C1462 C1465 1.387 . S
H1463 C1459 0.950 . S
H1464 C1461 0.950 . S
C1465 C1456 1.390 . S
C1465 H1458 0.950 . S
C1465 C1462 1.387 . S
C1466 C1467 1.387 . S
C1466 H1470 0.950 . S
C1466 C1475 1.390 . S
C1467 C1466 1.387 . S
C1467 C1469 1.387 . S
H1468 C1475 0.950 . S
C1469 C1467 1.387 . S
C1469 C1471 1.390 . S
C1469 H1473 0.950 . S
H1470 C1466 0.950 . S
C1471 C1469 1.390 . S
C1471 C1472 1.387 . S
C1471 H1474 0.950 . S
C1472 C1471 1.387 . S
C1472 C1475 1.387 . S
H1473 C1469 0.950 . S
H1474 C1471 0.950 . S
C1475 C1466 1.390 . S
C1475 H1468 0.950 . S
C1475 C1472 1.387 . S
C1476 C1477 1.387 . S
C1476 H1480 0.950 . S
C1476 C1485 1.390 . S
C1477 C1476 1.387 . S
C1477 C1479 1.387 . S
H1478 C1485 0.950 . S
C1479 C1477 1.387 . S
C1479 C1481 1.390 . S
C1479 H1483 0.950 . S
H1480 C1476 0.950 . S
C1481 C1479 1.390 . S
C1481 C1482 1.387 . S
C1481 H1484 0.950 . S
C1482 C1481 1.387 . S
C1482 C1485 1.387 . S
H1483 C1479 0.950 . S
H1484 C1481 0.950 . S
C1485 C1476 1.390 . S
C1485 H1478 0.950 . S
C1485 C1482 1.387 . S
C1486 C1487 1.387 . S
C1486 H1490 0.950 . S
C1486 C1495 1.390 . S
C1487 C1486 1.387 . S
C1487 C1489 1.387 . S
H1488 C1495 0.950 . S
C1489 C1487 1.387 . S
C1489 C1491 1.390 . S
C1489 H1493 0.950 . S
H1490 C1486 0.950 . S
C1491 C1489 1.390 . S
C1491 C1492 1.387 . S
C1491 H1494 0.950 . S
C1492 C1491 1.387 . S
C1492 C1495 1.387 . S
H1493 C1489 0.950 . S
H1494 C1491 0.950 . S
C1495 C1486 1.390 . S
C1495 H1488 0.950 . S
C1495 C1492 1.387 . S
C1496 C1497 1.387 . S
C1496 H1500 0.950 . S
C1496 C1505 1.390 . S
C1497 C1496 1.387 . S
C1497 C1499 1.387 . S
H1498 C1505 0.950 . S
C1499 C1497 1.387 . S
C1499 C1501 1.390 . S
C1499 H1503 0.950 . S
H1500 C1496 0.950 . S
C1501 C1499 1.390 . S
C1501 C1502 1.387 . S
C1501 H1504 0.950 . S
C1502 C1501 1.387 . S
C1502 C1505 1.387 . S
H1503 C1499 0.950 . S
H1504 C1501 0.950 . S
C1505 C1496 1.390 . S
C1505 H1498 0.950 . S
C1505 C1502 1.387 . S
C1506 C1507 1.387 . S
C1506 H1510 0.950 . S
C1506 C1515 1.390 . S
C1507 C1506 1.387 . S
C1507 C1509 1.387 . S
H1508 C1515 0.950 . S
C1509 C1507 1.387 . S
C1509 C1511 1.390 . S
C1509 H1513 0.950 . S
H1510 C1506 0.950 . S
C1511 C1509 1.390 . S
C1511 C1512 1.387 . S
C1511 H1514 0.950 . S
C1512 C1511 1.387 . S
C1512 C1515 1.387 . S
H1513 C1509 0.950 . S
H1514 C1511 0.950 . S
C1515 C1506 1.390 . S
C1515 H1508 0.950 . S
C1515 C1512 1.387 . S
C1516 C1517 1.387 . S
C1516 H1520 0.950 . S
C1516 C1525 1.390 . S
C1517 C1516 1.387 . S
C1517 C1519 1.387 . S
H1518 C1525 0.950 1_455 S
C1519 C1517 1.387 . S
C1519 C1521 1.390 . S
C1519 H1523 0.950 . S
H1520 C1516 0.950 . S
C1521 C1519 1.390 . S
C1521 C1522 1.387 . S
C1521 H1524 0.950 . S
C1522 C1521 1.387 . S
C1522 C1525 1.387 . S
H1523 C1519 0.950 . S
H1524 C1521 0.950 . S
C1525 C1516 1.390 . S
C1525 H1518 0.950 1_655 S
C1525 C1522 1.387 . S
C1526 C1527 1.387 . S
C1526 H1530 0.950 . S
C1526 C1535 1.390 . S
C1527 C1526 1.387 . S
C1527 C1529 1.387 . S
H1528 C1535 0.950 . S
C1529 C1527 1.387 . S
C1529 C1531 1.390 . S
C1529 H1533 0.950 . S
H1530 C1526 0.950 . S
C1531 C1529 1.390 . S
C1531 C1532 1.387 . S
C1531 H1534 0.950 . S
C1532 C1531 1.387 . S
C1532 C1535 1.387 . S
H1533 C1529 0.950 . S
H1534 C1531 0.950 . S
C1535 C1526 1.390 . S
C1535 H1528 0.950 . S
C1535 C1532 1.387 . S
C1536 C1537 1.387 . S
C1536 H1540 0.950 . S
C1536 C1545 1.390 . S
C1537 C1536 1.387 . S
C1537 C1539 1.387 . S
H1538 C1545 0.950 . S
C1539 C1537 1.387 . S
C1539 C1541 1.390 . S
C1539 H1543 0.950 . S
H1540 C1536 0.950 . S
C1541 C1539 1.390 . S
C1541 C1542 1.387 . S
C1541 H1544 0.950 . S
C1542 C1541 1.387 . S
C1542 C1545 1.387 . S
H1543 C1539 0.950 . S
H1544 C1541 0.950 . S
C1545 C1536 1.390 . S
C1545 H1538 0.950 . S
C1545 C1542 1.387 . S
C1546 C1547 1.387 . S
C1546 H1550 0.950 . S
C1546 C1555 1.390 . S
C1547 C1546 1.387 . S
C1547 C1549 1.387 . S
H1548 C1555 0.950 . S
C1549 C1547 1.387 . S
C1549 C1551 1.390 . S
C1549 H1553 0.950 . S
H1550 C1546 0.950 . S
C1551 C1549 1.390 . S
C1551 C1552 1.387 . S
C1551 H1554 0.950 . S
C1552 C1551 1.387 . S
C1552 C1555 1.387 . S
H1553 C1549 0.950 . S
H1554 C1551 0.950 . S
C1555 C1546 1.390 . S
C1555 H1548 0.950 . S
C1555 C1552 1.387 . S
C1556 C1557 1.387 . S
C1556 H1560 0.950 . S
C1556 C1565 1.390 . S
C1557 C1556 1.387 . S
C1557 C1559 1.387 . S
H1558 C1565 0.950 . S
C1559 C1557 1.387 . S
C1559 C1561 1.390 . S
C1559 H1563 0.950 . S
H1560 C1556 0.950 . S
C1561 C1559 1.390 . S
C1561 C1562 1.387 . S
C1561 H1564 0.950 . S
C1562 C1561 1.387 . S
C1562 C1565 1.387 . S
H1563 C1559 0.950 . S
H1564 C1561 0.950 . S
C1565 C1556 1.390 . S
C1565 H1558 0.950 . S
C1565 C1562 1.387 . S
C1566 C1567 1.387 1_554 S
C1566 H1570 0.950 . S
C1566 C1575 1.390 . S
C1567 C1566 1.387 1_556 S
C1567 C1569 1.387 . S
H1568 C1575 0.950 . S
C1569 C1567 1.387 . S
C1569 C1571 1.390 . S
C1569 H1573 0.950 . S
H1570 C1566 0.950 . S
C1571 C1569 1.390 . S
C1571 C1572 1.367 1_556 S
C1571 H1574 0.950 . S
C1572 C1571 1.367 1_554 S
C1572 C1575 1.405 . S
H1573 C1569 0.950 . S
H1574 C1571 0.950 . S
C1575 C1566 1.390 . S
C1575 H1568 0.950 . S
C1575 C1572 1.405 . S
C1576 C1577 1.387 . S
C1576 H1580 0.950 . S
C1576 C1585 1.390 . S
C1577 C1576 1.387 . S
C1577 C1579 1.387 . S
H1578 C1585 0.950 . S
C1579 C1577 1.387 . S
C1579 C1581 1.390 . S
C1579 H1583 0.950 . S
H1580 C1576 0.950 . S
C1581 C1579 1.390 . S
C1581 C1582 1.387 . S
C1581 H1584 0.950 . S
C1582 C1581 1.387 . S
C1582 C1585 1.387 . S
H1583 C1579 0.950 . S
H1584 C1581 0.950 . S
C1585 C1576 1.390 . S
C1585 H1578 0.950 . S
C1585 C1582 1.387 . S
C1586 C1587 1.387 1_556 S
C1586 H1590 0.950 . S
C1586 C1595 1.390 . S
C1587 C1586 1.387 1_554 S
C1587 C1589 1.387 . S
H1588 C1595 0.950 . S
C1589 C1587 1.387 . S
C1589 C1591 1.390 . S
C1589 H1593 0.950 . S
H1590 C1586 0.950 . S
C1591 C1589 1.390 . S
C1591 C1592 1.387 1_554 S
C1591 H1594 0.950 . S
C1592 C1591 1.387 1_556 S
C1592 C1595 1.387 . S
H1593 C1589 0.950 . S
H1594 C1591 0.950 . S
C1595 C1586 1.390 . S
C1595 H1588 0.950 . S
C1595 C1592 1.387 . S
C1596 C1597 1.387 . S
C1596 H1600 0.950 . S
C1596 C1605 1.390 . S
C1597 C1596 1.387 . S
C1597 C1599 1.387 . S
H1598 C1605 0.950 . S
C1599 C1597 1.387 . S
C1599 C1601 1.390 . S
C1599 H1603 0.950 . S
H1600 C1596 0.950 . S
C1601 C1599 1.390 . S
C1601 C1602 1.387 . S
C1601 H1604 0.950 . S
C1602 C1601 1.387 . S
C1602 C1605 1.387 . S
H1603 C1599 0.950 . S
H1604 C1601 0.950 . S
C1605 C1596 1.390 . S
C1605 H1598 0.950 . S
C1605 C1602 1.387 . S
C1606 C1607 1.387 . S
C1606 H1610 0.950 . S
C1606 C1615 1.390 . S
C1607 C1606 1.387 . S
C1607 C1609 1.387 . S
H1608 C1615 0.950 . S
C1609 C1607 1.387 . S
C1609 C1611 1.390 . S
C1609 H1613 0.950 . S
H1610 C1606 0.950 . S
C1611 C1609 1.390 . S
C1611 C1612 1.387 . S
C1611 H1614 0.950 . S
C1612 C1611 1.387 . S
C1612 C1615 1.387 . S
H1613 C1609 0.950 . S
H1614 C1611 0.950 . S
C1615 C1606 1.390 . S
C1615 H1608 0.950 . S
C1615 C1612 1.387 . S
C657 C111 1.584 . S
C662 C354 1.579 . S
C667 C64 1.675 . S
C672 C365 1.733 . S
C677 C77 1.129 . S
C682 C394 1.100 . S
C692 C397 1.302 . S
C687 C95 1.315 . S
C697 C25 1.497 . S
C702 C435 1.429 . S
C712 C438 1.198 . S
C707 C36 1.208 . S
C722 C465 1.574 . S
C717 C50 1.503 . S
C727 C11 1.633 . S
C732 C494 1.545 . S
C742 C345 1.575 1_655 S
C737 C237 1.453 . S
C747 C245 1.048 . S
C752 C357 1.030 . S
C762 C385 1.464 . S
C757 C279 1.386 . S
C772 C414 1.242 . S
C767 C175 1.241 . S
C777 C231 1.055 . S
C782 C418 1.081 . S
C792 C444 1.521 . S
C787 C251 1.445 . S
C802 C457 0.933 . S
C797 C273 0.943 . S
C812 C485 1.612 . S
C807 C181 1.570 . S
C822 C337 1.467 1_565 S
C817 C165 1.515 . S
C827 C288 1.693 1_556 S
C832 C504 1.713 . S
C842 C535 1.535 . S
C837 C333 1.642 . S
C852 C554 1.039 . S
C847 C316 1.045 . S
C857 C123 1.398 . S
C862 C477 1.353 . S
C867 C137 1.496 . S
C872 C377 1.461 . S
C877 C330 1.530 . S
C882 C565 1.599 . S
C892 C594 1.024 . S
C887 C302 1.063 . S
C902 C355 1.681 . S
C897 C63 1.712 . S
C912 C584 1.711 . S
C907 C106 1.701 . S
C917 C97 1.126 . S
C922 C395 1.165 . S
C927 C81 1.349 . S
C932 C558 1.346 . S
C942 C434 1.526 . S
C937 C13 1.494 . S
C947 C55 1.033 . S
C952 C517 1.174 . S
C962 C464 1.512 . S
C957 C35 1.513 . S
C972 C615 1.691 . S
C967 C21 1.761 . S
C982 C344 1.646 . S
C977 C147 1.641 . S
C992 C578 1.021 . S
C987 C321 0.967 . S
C997 C119 1.507 . S
C1002 C384 1.492 . S
C1007 C293 1.287 . S
C1012 C575 1.364 . S
C1017 C153 1.055 1_565 S
C1022 C417 1.203 . S
C1032 C525 1.560 . S
C1027 C315 1.577 . S
C1037 C125 0.894 . S
C1042 C458 0.908 1_565 S
C1047 C287 1.714 . S
C1052 C604 1.684 . S
C1057 C193 1.517 1_556 S
C1062 C338 1.508 . S
C1067 C176 1.715 . S
C1072 C505 1.712 . S
C1077 C263 1.591 . S
C1082 C454 1.520 . S
C1087 C246 1.128 . S
C1092 C555 1.180 . S
C1102 C598 1.398 . S
C1097 C277 1.397 . S
C1107 C221 1.467 . S
C1112 C378 1.471 . S
C1122 C404 1.621 . S
C1117 C260 1.598 . S
C1132 C375 1.096 . S
C1127 C204 1.099 . S
C1137 C83 1.584 . S
C1142 C634 1.578 . S
C1152 C585 1.733 . S
C1147 C92 1.675 . S
C1157 C105 1.128 . S
C1162 C654 1.097 . S
C1167 C67 1.315 . S
C1172 C557 1.302 . S
C1177 C53 1.497 . S
C1182 C515 1.428 . S
C1192 C518 1.201 . S
C1187 C8 1.207 . S
C1202 C545 1.575 . S
C1197 C22 1.504 1_655 S
C1212 C614 1.542 . S
C1207 C39 1.633 . S
C1222 C625 1.575 . S
C1217 C265 1.453 . S
C1227 C189 1.048 . S
C1232 C577 1.031 . S
C1242 C645 1.464 . S
C1237 C209 1.386 . S
C1252 C574 1.242 . S
C1247 C217 1.243 . S
C1262 C498 1.081 . S
C1257 C259 1.056 . S
C1267 C195 1.448 . S
C1272 C524 1.522 . S
C1282 C537 0.930 . S
C1277 C203 0.944 . S
C1287 C223 1.567 . S
C1292 C605 1.614 . S
C1302 C617 1.469 . S
C1297 C319 1.516 . S
C1307 C134 1.694 . S
C1312 C424 1.711 . S
C1322 C455 1.535 . S
C1317 C151 1.646 . S
C1332 C474 1.042 1_565 S
C1327 C162 1.042 . S
C1342 C597 1.354 . S
C1337 C305 1.399 . S
C1347 C291 1.495 . S
C1352 C637 1.459 . S
C1362 C405 1.599 . S
C1357 C148 1.527 . S
C1372 C374 1.018 . S
C1367 C120 1.064 . S
C1377 C91 1.710 . S
C1382 C635 1.680 . S
C1392 C364 1.711 . S
C1387 C78 1.699 . S
C1397 C69 1.126 . S
C1402 C655 1.165 . S
C1407 C109 1.348 . S
C1412 C398 1.344 . S
C1417 C41 1.497 . S
C1422 C514 1.528 . S
C1432 C437 1.176 . S
C1427 C27 1.041 . S
C1437 C7 1.512 . S
C1442 C544 1.513 . S
C1447 C49 1.761 . S
C1452 C495 1.691 . S
C1462 C624 1.646 . S
C1457 C329 1.641 . S
C1467 C167 0.973 . S
C1472 C358 1.024 . S
C1482 C644 1.492 1_655 S
C1477 C301 1.507 . S
C1487 C139 1.287 . S
C1492 C415 1.364 . S
C1497 C335 1.052 . S
C1502 C497 1.204 . S
C1512 C445 1.560 . S
C1507 C161 1.577 . S
C1517 C307 0.897 . S
C1522 C538 0.911 . S
C1532 C484 1.685 . S
C1527 C133 1.714 . S
C1542 C618 1.509 . S
C1537 C249 1.518 . S
C1552 C425 1.713 1_565 S
C1547 C218 1.714 . S
C1557 C235 1.590 . S
C1562 C534 1.518 . S
C1572 C475 1.184 . S
C1567 C190 1.129 1_556 S
C1577 C207 1.399 . S
C1582 C478 1.400 . S
C1587 C179 1.467 . S
C1592 C638 1.472 . S
C1602 C564 1.619 . S
C1597 C232 1.596 . S
C1612 C595 1.092 . S
C1607 C274 1.102 . S
