# Generated by pormake.
# Topology rtl, (3,6)-cn, num edge types: 1
# Building blocks:
#     Node 0, Type 0, BuildingBlock: OLANEW_clean_sbu_2, # of connection points: 3
#     Node 1, Type 0, BuildingBlock: OLANEW_clean_sbu_2, # of connection points: 3
#     Node 2, Type 0, BuildingBlock: OLANEW_clean_sbu_2, # of connection points: 3
#     Node 3, Type 0, BuildingBlock: OLANEW_clean_sbu_2, # of connection points: 3
#     Node 4, Type 1, BuildingBlock: FUNLAD_clean_sbu_0, # of connection points: 6
#     Node 5, Type 1, BuildingBlock: FUNLAD_clean_sbu_0, # of connection points: 6
#     Edge 6, Type (0, 1), BuildingBlock: XIVTED_clean_linker_0, # of connection points: 2
#     Edge 7, Type (0, 1), BuildingBlock: XIVTED_clean_linker_0, # of connection points: 2
#     Edge 8, Type (0, 1), BuildingBlock: XIVTED_clean_linker_0, # of connection points: 2
#     Edge 9, Type (0, 1), BuildingBlock: XIVTED_clean_linker_0, # of connection points: 2
#     Edge 10, Type (0, 1), BuildingBlock: XIVTED_clean_linker_0, # of connection points: 2
#     Edge 11, Type (0, 1), BuildingBlock: XIVTED_clean_linker_0, # of connection points: 2
#     Edge 12, Type (0, 1), BuildingBlock: XIVTED_clean_linker_0, # of connection points: 2
#     Edge 13, Type (0, 1), BuildingBlock: XIVTED_clean_linker_0, # of connection points: 2
#     Edge 14, Type (0, 1), BuildingBlock: XIVTED_clean_linker_0, # of connection points: 2
#     Edge 15, Type (0, 1), BuildingBlock: XIVTED_clean_linker_0, # of connection points: 2
#     Edge 16, Type (0, 1), BuildingBlock: XIVTED_clean_linker_0, # of connection points: 2
#     Edge 17, Type (0, 1), BuildingBlock: XIVTED_clean_linker_0, # of connection points: 2
# Relax obj value: 0.014
# Max RMSD: 0.078
# Mean RMSD: 0.052
data_MOF--net-rtl--node1-OLANEW_clean_sbu_2--node2-FUNLAD_clean_sbu_0--edge1-XIVTED_clean_linker_0
_symmetry_space_group_name_H-M    P1
_symmetry_Int_Tables_number       1
_symmetry_cell_setting            triclinic
loop_
_symmetry_equiv_pos_as_xyz
'x, y, z'
_cell_length_a     43.582038
_cell_length_b     41.057892
_cell_length_c     22.659894
_cell_angle_alpha  86.968631
_cell_angle_beta   93.722771
_cell_angle_gamma 89.887771
loop_
_atom_site_label
_atom_site_type_symbol
_atom_site_fract_x
_atom_site_fract_y
_atom_site_fract_z
_atom_type_partial_charge
O0 O 0.12133 0.78142 0.96429 0.0
Cd1 Cd 0.14086 0.74823 0.05163 0.0
O2 O 0.14541 0.82446 -0.00246 0.0
Cd3 Cd 0.15166 0.80469 0.08867 0.0
O4 O 0.13414 0.8203 0.17079 0.0
C5 C 0.14092 0.84937 0.18298 0.0
O6 O 0.15943 0.8659 0.14913 0.0
C7 C 0.1297 0.81091 0.95652 0.0
C8 C 0.19329 0.71265 0.02965 0.0
O9 O 0.16652 0.69978 0.02524 0.0
O10 O 0.19528 0.74232 0.04436 0.0
O11 O 0.61929 0.75361 0.66743 0.0
Cd12 Cd 0.63094 0.79273 0.5869 0.0
O13 O 0.62613 0.71911 0.5995 0.0
Cd14 Cd 0.62109 0.67349 0.55494 0.0
O15 O 0.60876 0.64337 0.4809 0.0
C16 C 0.5859 0.65321 0.44693 0.0
O17 O 0.57109 0.67959 0.45962 0.0
C18 C 0.61867 0.72442 0.65144 0.0
C19 C 0.68923 0.82037 0.5922 0.0
O20 O 0.66618 0.83528 0.6109 0.0
O21 O 0.68493 0.7919 0.57267 0.0
O22 O 0.85722 0.19528 0.12824 0.0
Cd23 Cd 0.83559 0.21696 0.03153 0.0
O24 O 0.90077 0.22192 0.12329 0.0
Cd25 Cd 0.89076 0.23551 0.02993 0.0
O26 O 0.89947 0.21481 0.94601 0.0
C27 C 0.89112 0.18545 0.94005 0.0
O28 O 0.87586 0.17071 0.98182 0.0
C29 C 0.88334 0.20291 0.15179 0.0
C30 C 0.78859 0.26271 0.03767 0.0
O31 O 0.78301 0.23204 0.03968 0.0
O32 O 0.81652 0.27182 0.03351 0.0
O33 O 0.40465 0.25206 0.68765 0.0
Cd34 Cd 0.39173 0.20374 0.63327 0.0
O35 O 0.38935 0.28163 0.60809 0.0
Cd36 Cd 0.38702 0.32493 0.54795 0.0
O37 O 0.39467 0.35233 0.46525 0.0
C38 C 0.41383 0.33972 0.43304 0.0
O39 O 0.42741 0.31215 0.45181 0.0
C40 C 0.40113 0.27994 0.66096 0.0
C41 C 0.33023 0.18585 0.63413 0.0
O42 O 0.3501 0.17458 0.67429 0.0
O43 O 0.33939 0.20608 0.59404 0.0
C44 C 0.03128 0.97592 0.47312 0.0
N45 N 0.06643 0.05347 0.56889 0.0
C46 C 0.09369 0.03704 0.57317 0.0
C47 C 0.12129 0.05374 0.58156 0.0
C48 C 0.12095 0.08774 0.58529 0.0
C49 C 0.09258 0.10427 0.57913 0.0
C50 C 0.0654 0.08652 0.57119 0.0
Zn51 Zn 0.027 0.02673 0.56265 0.0
C52 C 0.97993 0.05487 0.47541 0.0
N53 N 0.94637 0.96788 0.55234 0.0
C54 C 0.947 0.93506 0.54672 0.0
C55 C 0.91944 0.98392 0.55763 0.0
C56 C 0.89188 0.96688 0.5592 0.0
C57 C 0.89166 0.9329 0.55404 0.0
C58 C 0.91977 0.91705 0.54706 0.0
Zn59 Zn 0.98595 0.99461 0.55687 0.0
O60 O 0.04515 0.99967 0.49657 0.0
C61 C 0.03287 0.96641 0.64413 0.0
O62 O 0.00473 0.96798 0.4891 0.0
H63 H 0.91934 0.01002 0.5618 0.0
H64 H 0.09405 0.01081 0.57089 0.0
H65 H 0.96866 0.92276 0.54258 0.0
O66 O 0.04632 0.99262 0.62858 0.0
O67 O 0.00623 0.96056 0.6211 0.0
H68 H 0.04347 0.09907 0.56786 0.0
O69 O 0.96824 0.02175 0.62517 0.0
O70 O 0.00846 0.05372 0.62822 0.0
O71 O 0.96608 0.02913 0.49232 0.0
O72 O 0.00698 0.06024 0.49704 0.0
C73 C 0.98237 0.046 0.64634 0.0
H74 H 0.14271 0.04014 0.5851 0.0
H75 H 0.09137 0.13048 0.58202 0.0
H76 H 0.87111 0.9803 0.56591 0.0
H77 H 0.92084 0.89102 0.54194 0.0
C78 C 0.47812 0.46679 0.89309 0.0
N79 N 0.56111 0.46282 -0.0032 0.0
C80 C 0.55777 0.43001 0.99365 0.0
C81 C 0.58333 0.40939 0.0003 0.0
C82 C 0.61282 0.42245 0.01102 0.0
C83 C 0.61567 0.45649 0.01366 0.0
C84 C 0.58938 0.47632 0.0063 0.0
Zn85 Zn 0.52187 0.49078 0.9889 0.0
C86 C 0.52538 0.54838 0.90521 0.0
N87 N 0.43766 0.54538 0.97321 0.0
C88 C 0.41012 0.5303 0.96414 0.0
C89 C 0.43915 0.57793 0.98153 0.0
C90 C 0.41228 0.5964 0.98286 0.0
C91 C 0.38341 0.58141 0.97479 0.0
C92 C 0.38267 0.54793 0.9643 0.0
Zn93 Zn 0.47745 0.51829 0.97954 0.0
O94 O 0.50469 0.46299 0.91897 0.0
C95 C 0.47421 0.46195 0.06545 0.0
O96 O 0.4607 0.48932 0.90849 0.0
H97 H 0.46125 0.58952 0.98861 0.0
H98 H 0.53514 0.41967 0.98625 0.0
H99 H 0.40939 0.50439 0.95779 0.0
O100 O 0.50162 0.45819 0.05092 0.0
O101 O 0.45807 0.48537 0.04124 0.0
H102 H 0.59152 0.50246 0.00882 0.0
O103 O 0.49488 0.54593 0.05121 0.0
O104 O 0.53841 0.51862 0.05935 0.0
O105 O 0.49771 0.5514 0.91897 0.0
O106 O 0.54148 0.52431 0.92741 0.0
C107 C 0.52133 0.5407 0.07711 0.0
H108 H 0.57994 0.38344 -0.00337 0.0
H109 H 0.63786 0.46767 0.02237 0.0
H110 H 0.41423 0.62195 0.99197 0.0
H111 H 0.36111 0.53531 0.95664 0.0
H112 H 0.30471 0.14064 0.70893 0.0
H113 H 0.1397 0.14496 0.53091 0.0
H114 H 0.2823 0.20541 0.55578 0.0
H115 H 0.16853 0.07095 0.66545 0.0
H116 H 0.18942 0.172 0.54718 0.0
H117 H 0.25242 0.11947 0.70139 0.0
C118 C 0.28873 0.15059 0.67392 0.0
C119 C 0.29797 0.17466 0.63263 0.0
C120 C 0.18478 0.14991 0.57325 0.0
C121 C 0.23803 0.15042 0.62364 0.0
C122 C 0.15639 0.13458 0.5642 0.0
C123 C 0.15014 0.10551 0.59648 0.0
C124 C 0.20692 0.13617 0.61521 0.0
C125 C 0.17262 0.093 0.63886 0.0
C126 C 0.25887 0.13842 0.66957 0.0
C127 C 0.27621 0.1867 0.58835 0.0
N128 N 0.20001 0.10835 0.64688 0.0
N129 N 0.24727 0.17434 0.58485 0.0
H130 H 0.25111 0.73561 0.01201 0.0
H131 H 0.32926 0.56015 0.01963 0.0
H132 H 0.19884 0.64656 0.02255 0.0
H133 H 0.3711 0.646 0.94136 0.0
H134 H 0.28265 0.59177 0.02951 0.0
H135 H 0.297 0.70364 0.99559 0.0
C136 C 0.24928 0.70934 0.01087 0.0
C137 C 0.2211 0.69371 0.0187 0.0
C138 C 0.30202 0.6036 0.00992 0.0
C139 C 0.27353 0.65703 0.00043 0.0
C140 C 0.32867 0.5855 0.00383 0.0
C141 C 0.35441 0.60026 0.97945 0.0
C142 C 0.30108 0.63688 0.9924 0.0
C143 C 0.35221 0.63355 0.96137 0.0
C144 C 0.27544 0.69115 0.00126 0.0
C145 C 0.22006 0.65962 0.01658 0.0
N146 N 0.32613 0.65075 0.96855 0.0
N147 N 0.24594 0.64239 0.0081 0.0
H148 H 0.70157 0.88538 0.59446 0.0
H149 H 0.88289 0.87044 0.60136 0.0
H150 H 0.74563 0.79178 0.58429 0.0
H151 H 0.83312 0.95279 0.51487 0.0
H152 H 0.83405 0.84201 0.61099 0.0
H153 H 0.75129 0.91192 0.58402 0.0
C154 C 0.72176 0.8704 0.59062 0.0
C155 C 0.71951 0.83634 0.59011 0.0
C156 C 0.83402 0.8663 0.58983 0.0
C157 C 0.77633 0.86653 0.57847 0.0
C158 C 0.86189 0.88253 0.58385 0.0
C159 C 0.86237 0.91435 0.55758 0.0
C160 C 0.80639 0.88217 0.5705 0.0
C161 C 0.8341 0.92875 0.53688 0.0
C162 C 0.75003 0.88557 0.58423 0.0
C163 C 0.74639 0.81813 0.58463 0.0
N164 N 0.80731 0.91271 0.54433 0.0
N165 N 0.7738 0.83345 0.57933 0.0
H166 H 0.72894 0.25144 0.06311 0.0
H167 H 0.67107 0.43284 0.97333 0.0
H168 H 0.79067 0.32885 0.01392 0.0
H169 H 0.61718 0.36178 0.06809 0.0
H170 H 0.71477 0.39501 0.98409 0.0
H171 H 0.68704 0.29117 0.06054 0.0
C172 C 0.73372 0.27682 0.05193 0.0
C173 C 0.76336 0.28682 0.03862 0.0
C174 C 0.69338 0.38782 0.00271 0.0
C175 C 0.71539 0.33246 0.03518 0.0
C176 C 0.66844 0.40947 -0.00315 0.0
C177 C 0.64019 0.40048 0.01936 0.0
C178 C 0.69004 0.35684 0.03089 0.0
C179 C 0.63818 0.3696 0.04874 0.0
C180 C 0.70978 0.29952 0.05061 0.0
C181 C 0.76819 0.32007 0.02458 0.0
N182 N 0.66265 0.34888 0.05328 0.0
N183 N 0.74439 0.34168 0.0228 0.0
H184 H 0.09285 0.82747 0.24705 0.0
H185 H 0.08467 0.99122 0.42213 0.0
H186 H 0.15417 0.90905 0.22521 0.0
H187 H 0.01391 0.9178 0.42575 0.0
H188 H 0.11193 0.95936 0.35453 0.0
H189 H 0.06563 0.85775 0.31829 0.0
C190 C 0.10077 0.85159 0.25762 0.0
C191 C 0.1258 0.86579 0.23 0.0
C192 C 0.0904 0.95018 0.36987 0.0
C193 C 0.09468 0.90054 0.31102 0.0
C194 C 0.07476 0.96841 0.40852 0.0
C195 C 0.04688 0.95722 0.4296 0.0
C196 C 0.07829 0.92032 0.35216 0.0
C197 C 0.03526 0.92743 0.41037 0.0
C198 C 0.08511 0.86892 0.29799 0.0
C199 C 0.13496 0.89716 0.24519 0.0
N200 N 0.05108 0.90992 0.37281 0.0
N201 N 0.1194 0.91345 0.28453 0.0
H202 H 0.63531 0.65978 0.66023 0.0
H203 H 0.50179 0.6085 0.87048 0.0
H204 H 0.57514 0.72913 0.73148 0.0
H205 H 0.58012 0.54624 0.85162 0.0
H206 H 0.52533 0.65118 0.80975 0.0
H207 H 0.61272 0.61611 0.72129 0.0
C208 C 0.6172 0.66575 0.68838 0.0
C209 C 0.60673 0.69799 0.69023 0.0
C210 C 0.53738 0.62818 0.81889 0.0
C211 C 0.58097 0.64837 0.76016 0.0
C212 C 0.52387 0.6037 0.85326 0.0
C213 C 0.53901 0.57371 0.86617 0.0
C214 C 0.5661 0.62261 0.79652 0.0
C215 C 0.56768 0.56902 0.84284 0.0
C216 C 0.60452 0.6409 0.72354 0.0
C217 C 0.58384 0.70457 0.72873 0.0
N218 N 0.58027 0.59318 0.80891 0.0
N219 N 0.57152 0.67994 0.76176 0.0
H220 H 0.93849 0.21229 0.21376 0.0
H221 H 0.92114 0.0524 0.42556 0.0
H222 H 0.85555 0.15507 0.2181 0.0
H223 H 0.00291 0.11165 0.42691 0.0
H224 H 0.89571 0.0917 0.35388 0.0
H225 H 0.96096 0.17845 0.29744 0.0
C226 C 0.9248 0.19292 0.23282 0.0
C227 C 0.89516 0.18635 0.2084 0.0
C228 C 0.91918 0.09619 0.36997 0.0
C229 C 0.92098 0.14719 0.30382 0.0
C230 C 0.93378 0.07367 0.41077 0.0
C231 C 0.96432 0.07859 0.43197 0.0
C232 C 0.93521 0.12384 0.34995 0.0
C233 C 0.97942 0.10675 0.41152 0.0
C234 C 0.93773 0.17351 0.2805 0.0
C235 C 0.87853 0.16097 0.23517 0.0
N236 N 0.96476 0.12823 0.37145 0.0
N237 N 0.89179 0.14212 0.281 0.0
H238 H 0.45065 0.28333 0.73899 0.0
H239 H 0.42179 0.46427 0.83012 0.0
H240 H 0.37821 0.34268 0.64991 0.0
H241 H 0.50939 0.41457 0.85783 0.0
H242 H 0.40313 0.42025 0.76772 0.0
H243 H 0.47 0.33096 0.78907 0.0
C244 C 0.43887 0.30649 0.72986 0.0
C245 C 0.41297 0.30917 0.6899 0.0
C246 C 0.42653 0.41933 0.78704 0.0
C247 C 0.43484 0.36386 0.74751 0.0
C248 C 0.43719 0.4444 0.82257 0.0
C249 C 0.46713 0.44303 0.84963 0.0
C250 C 0.44585 0.39264 0.7794 0.0
C251 C 0.48608 0.41667 0.83831 0.0
C252 C 0.45002 0.33372 0.7582 0.0
C253 C 0.39858 0.33977 0.67966 0.0
N254 N 0.47502 0.39244 0.80469 0.0
N255 N 0.40956 0.36598 0.70875 0.0
H256 H 0.61421 0.60106 0.40205 0.0
H257 H 0.4916 0.59087 0.12488 0.0
H258 H 0.53686 0.66677 0.36798 0.0
H259 H 0.57401 0.53179 0.14884 0.0
H260 H 0.50746 0.61846 0.21465 0.0
H261 H 0.59919 0.57441 0.31071 0.0
C262 C 0.59403 0.60983 0.37547 0.0
C263 C 0.57677 0.63619 0.3927 0.0
C264 C 0.52214 0.59955 0.20015 0.0
C265 C 0.5595 0.60585 0.28807 0.0
C266 C 0.51311 0.5838 0.14884 0.0
C267 C 0.53148 0.55894 0.12934 0.0
C268 C 0.54967 0.59028 0.23242 0.0
C269 C 0.55912 0.55082 0.1622 0.0
C270 C 0.58552 0.59467 0.32322 0.0
C271 C 0.55087 0.64656 0.35644 0.0
N272 N 0.5673 0.56636 0.21225 0.0
N273 N 0.54302 0.63135 0.3059 0.0
H274 H 0.93256 0.20412 0.85898 0.0
H275 H 0.92963 0.0336 0.7032 0.0
H276 H 0.87436 0.12394 0.91045 0.0
H277 H 0.00191 0.10461 0.68622 0.0
H278 H 0.90531 0.06858 0.77111 0.0
H279 H 0.95383 0.17047 0.78558 0.0
C280 C 0.92401 0.17957 0.85445 0.0
C281 C 0.90178 0.16676 0.89118 0.0
C282 C 0.92653 0.07643 0.75256 0.0
C283 C 0.92616 0.12808 0.80749 0.0
C284 C 0.94044 0.05648 0.71388 0.0
C285 C 0.96794 0.06612 0.68924 0.0
C286 C 0.94004 0.10638 0.76618 0.0
C287 C 0.98084 0.09609 0.70445 0.0
C288 C 0.9363 0.16031 0.81278 0.0
C289 C 0.8916 0.13475 0.88332 0.0
N290 N 0.96673 0.11518 0.74179 0.0
N291 N 0.90393 0.11647 0.84244 0.0
H292 H 0.45724 0.32166 0.3592 0.0
H293 H 0.42029 0.46892 0.11936 0.0
H294 H 0.38681 0.3941 0.37587 0.0
H295 H 0.50099 0.40752 0.12207 0.0
H296 H 0.40364 0.43741 0.20601 0.0
H297 H 0.46973 0.34888 0.26551 0.0
C298 C 0.44432 0.34325 0.34311 0.0
C299 C 0.42105 0.35573 0.37564 0.0
C300 C 0.42489 0.43073 0.18739 0.0
C301 C 0.4352 0.38696 0.26816 0.0
C302 C 0.43435 0.44859 0.13774 0.0
C303 C 0.46219 0.44097 0.11365 0.0
C304 C 0.44331 0.40495 0.21295 0.0
C305 C 0.47945 0.41439 0.13937 0.0
C306 C 0.45149 0.35879 0.28959 0.0
C307 C 0.40505 0.38375 0.35244 0.0
N308 N 0.46979 0.39743 0.18777 0.0
N309 N 0.41245 0.39845 0.30013 0.0
H310 H 0.08462 0.79614 0.87187 0.0
H311 H 0.08818 0.97318 0.70627 0.0
H312 H 0.14923 0.87137 0.9198 0.0
H313 H 0.01367 0.90526 0.67955 0.0
H314 H 0.11417 0.93349 0.77643 0.0
H315 H 0.06222 0.83286 0.79174 0.0
C316 C 0.0944 0.82017 0.86504 0.0
C317 C 0.11869 0.83078 0.90291 0.0
C318 C 0.09214 0.92724 0.75522 0.0
C319 C 0.09303 0.87293 0.81174 0.0
C320 C 0.07724 0.94993 0.71519 0.0
C321 C 0.04857 0.94264 0.68729 0.0
C322 C 0.07838 0.89692 0.76735 0.0
C323 C 0.03563 0.91201 0.70036 0.0
C324 C 0.08146 0.84119 0.81955 0.0
C325 C 0.13036 0.86223 0.89204 0.0
N326 N 0.05063 0.89027 0.73951 0.0
N327 N 0.11733 0.88221 0.84769 0.0
loop_
_geom_bond_atom_site_label_1
_geom_bond_atom_site_label_2
_geom_bond_distance
_geom_bond_site_symmetry_2
_ccdc_geom_bond_type
O0 Cd1 2.300 1_556 S
O0 C7 1.275 . S
Cd1 O0 2.300 1_554 S
Cd1 O9 2.381 . S
Cd1 O10 2.378 . S
O2 Cd3 2.385 . S
O2 C7 1.255 1_554 S
Cd3 O2 2.385 . S
Cd3 O4 2.317 . S
O4 Cd3 2.317 . S
O4 C5 1.232 . S
C5 O4 1.232 . S
C5 O6 1.218 . S
O6 C5 1.218 . S
C7 O0 1.275 . S
C7 O2 1.255 1_556 S
C8 O9 1.258 . S
C8 O10 1.256 . S
O9 Cd1 2.381 . S
O9 C8 1.258 . S
O10 Cd1 2.378 . S
O10 C8 1.256 . S
O11 Cd12 2.300 . S
O11 C18 1.275 . S
Cd12 O11 2.300 . S
Cd12 O20 2.381 . S
Cd12 O21 2.378 . S
O13 Cd14 2.385 . S
O13 C18 1.255 . S
Cd14 O13 2.385 . S
Cd14 O15 2.317 . S
O15 Cd14 2.317 . S
O15 C16 1.232 . S
C16 O15 1.232 . S
C16 O17 1.218 . S
O17 C16 1.218 . S
C18 O11 1.275 . S
C18 O13 1.255 . S
C19 O20 1.258 . S
C19 O21 1.256 . S
O20 Cd12 2.381 . S
O20 C19 1.258 . S
O21 Cd12 2.378 . S
O21 C19 1.256 . S
O22 Cd23 2.300 . S
O22 C29 1.275 . S
Cd23 O22 2.300 . S
Cd23 O31 2.381 . S
Cd23 O32 2.378 . S
O24 Cd25 2.385 . S
O24 C29 1.255 . S
Cd25 O24 2.385 . S
Cd25 O26 2.317 1_554 S
O26 Cd25 2.317 1_556 S
O26 C27 1.232 . S
C27 O26 1.232 . S
C27 O28 1.218 . S
O28 C27 1.218 . S
C29 O22 1.275 . S
C29 O24 1.255 . S
C30 O31 1.258 . S
C30 O32 1.256 . S
O31 Cd23 2.381 . S
O31 C30 1.258 . S
O32 Cd23 2.378 . S
O32 C30 1.256 . S
O33 Cd34 2.300 . S
O33 C40 1.275 . S
Cd34 O33 2.300 . S
Cd34 O42 2.381 . S
Cd34 O43 2.378 . S
O35 Cd36 2.385 . S
O35 C40 1.255 . S
Cd36 O35 2.385 . S
Cd36 O37 2.317 . S
O37 Cd36 2.317 . S
O37 C38 1.232 . S
C38 O37 1.232 . S
C38 O39 1.218 . S
O39 C38 1.218 . S
C40 O33 1.275 . S
C40 O35 1.255 . S
C41 O42 1.258 . S
C41 O43 1.256 . S
O42 Cd34 2.381 . S
O42 C41 1.258 . S
O43 Cd34 2.378 . S
O43 C41 1.256 . S
C44 O60 1.251 . S
C44 O62 1.254 . S
N45 C46 1.333 . S
N45 C50 1.307 . S
N45 Zn51 2.020 . S
C46 N45 1.333 . S
C46 C47 1.379 . S
C46 H64 0.952 . S
C47 C46 1.379 . S
C47 C48 1.390 . S
C47 H74 0.949 . S
C48 C47 1.390 . S
C48 C49 1.357 . S
C49 C48 1.357 . S
C49 C50 1.370 . S
C49 H75 0.950 . S
C50 N45 1.307 . S
C50 C49 1.370 . S
C50 H68 0.948 . S
Zn51 N45 2.020 . S
Zn51 O60 2.039 1_545 S
Zn51 O66 2.034 1_545 S
Zn51 O70 2.025 . S
Zn51 O72 2.023 . S
C52 O71 1.246 . S
C52 O72 1.252 1_655 S
N53 C54 1.307 . S
N53 C55 1.333 . S
N53 Zn59 2.020 . S
C54 N53 1.307 . S
C54 C58 1.370 . S
C54 H65 0.948 . S
C55 N53 1.333 . S
C55 C56 1.379 . S
C55 H63 0.952 . S
C56 C55 1.379 . S
C56 C57 1.390 . S
C56 H76 0.949 . S
C57 C56 1.390 . S
C57 C58 1.357 . S
C58 C54 1.370 . S
C58 C57 1.357 . S
C58 H77 0.950 . S
Zn59 N53 2.020 . S
Zn59 O62 2.025 1_655 S
Zn59 O67 2.024 1_655 S
Zn59 O69 2.039 1_565 S
Zn59 O71 2.034 1_565 S
O60 C44 1.251 . S
O60 Zn51 2.039 1_565 S
C61 O66 1.246 . S
C61 O67 1.249 . S
O62 C44 1.254 . S
O62 Zn59 2.025 1_455 S
H63 C55 0.952 . S
H64 C46 0.952 . S
H65 C54 0.948 . S
O66 Zn51 2.034 1_565 S
O66 C61 1.246 . S
O67 Zn59 2.024 1_455 S
O67 C61 1.249 . S
H68 C50 0.948 . S
O69 Zn59 2.039 1_545 S
O69 C73 1.251 . S
O70 Zn51 2.025 . S
O70 C73 1.254 1_455 S
O71 C52 1.246 . S
O71 Zn59 2.034 1_545 S
O72 Zn51 2.023 . S
O72 C52 1.252 1_455 S
C73 O69 1.251 . S
C73 O70 1.254 1_655 S
H74 C47 0.949 . S
H75 C49 0.950 . S
H76 C56 0.949 . S
H77 C58 0.950 . S
C78 O94 1.251 . S
C78 O96 1.254 . S
N79 C80 1.333 . S
N79 C84 1.307 . S
N79 Zn85 2.020 . S
C80 N79 1.333 . S
C80 C81 1.379 . S
C80 H98 0.952 1_554 S
C81 C80 1.379 . S
C81 C82 1.390 . S
C81 H108 0.949 1_554 S
C82 C81 1.390 . S
C82 C83 1.357 . S
C83 C82 1.357 . S
C83 C84 1.370 . S
C83 H109 0.950 . S
C84 N79 1.307 . S
C84 C83 1.370 . S
C84 H102 0.948 . S
Zn85 N79 2.020 . S
Zn85 O94 2.039 1_554 S
Zn85 O100 2.034 . S
Zn85 O104 2.025 . S
Zn85 O106 2.024 1_554 S
C86 O105 1.246 . S
C86 O106 1.249 . S
N87 C88 1.304 1_554 S
N87 C89 1.333 . S
N87 Zn93 2.020 . S
C88 N87 1.304 1_556 S
C88 C92 1.369 . S
C88 H99 0.952 . S
C89 N87 1.333 . S
C89 C90 1.379 . S
C89 H97 0.952 . S
C90 C89 1.379 . S
C90 C91 1.390 . S
C90 H110 0.949 . S
C91 C90 1.390 . S
C91 C92 1.357 1_554 S
C92 C88 1.369 . S
C92 C91 1.357 1_556 S
C92 H111 0.950 . S
Zn93 N87 2.020 . S
Zn93 O96 2.025 1_554 S
Zn93 O101 2.024 . S
Zn93 O103 2.039 . S
Zn93 O105 2.034 1_554 S
O94 C78 1.251 . S
O94 Zn85 2.039 1_556 S
C95 O100 1.246 . S
C95 O101 1.249 . S
O96 C78 1.254 . S
O96 Zn93 2.025 1_556 S
H97 C89 0.952 . S
H98 C80 0.952 1_556 S
H99 C88 0.952 . S
O100 Zn85 2.034 . S
O100 C95 1.246 . S
O101 Zn93 2.024 . S
O101 C95 1.249 . S
H102 C84 0.948 . S
O103 Zn93 2.039 . S
O103 C107 1.251 . S
O104 Zn85 2.025 . S
O104 C107 1.254 . S
O105 C86 1.246 . S
O105 Zn93 2.034 1_556 S
O106 Zn85 2.024 1_556 S
O106 C86 1.249 . S
C107 O103 1.251 . S
C107 O104 1.254 . S
H108 C81 0.949 1_556 S
H109 C83 0.950 . S
H110 C90 0.949 . S
H111 C92 0.950 . S
H112 C118 0.930 . S
H113 C122 0.930 . S
H114 C127 0.929 . S
H115 C125 0.929 . S
H116 C120 0.929 . S
H117 C126 0.929 . S
C118 H112 0.930 . S
C118 C119 1.367 . S
C118 C126 1.378 . S
C119 C118 1.367 . S
C119 C127 1.433 . S
C120 H116 0.929 . S
C120 C122 1.378 . S
C120 C124 1.350 . S
C121 C124 1.463 . S
C121 C126 1.350 . S
C121 N129 1.427 . S
C122 H113 0.930 . S
C122 C120 1.378 . S
C122 C123 1.367 . S
C123 C122 1.367 . S
C123 C125 1.433 . S
C124 C120 1.350 . S
C124 C121 1.463 . S
C124 N128 1.427 . S
C125 H115 0.929 . S
C125 C123 1.433 . S
C125 N128 1.384 . S
C126 H117 0.929 . S
C126 C118 1.378 . S
C126 C121 1.350 . S
C127 H114 0.929 . S
C127 C119 1.433 . S
C127 N129 1.384 . S
N128 C124 1.427 . S
N128 C125 1.384 . S
N129 C121 1.427 . S
N129 C127 1.384 . S
H130 C136 0.930 . S
H131 C140 0.930 . S
H132 C145 0.929 . S
H133 C143 0.929 . S
H134 C138 0.929 . S
H135 C144 0.929 . S
C136 H130 0.930 . S
C136 C137 1.367 1_556 S
C136 C144 1.378 . S
C137 C136 1.367 1_554 S
C137 C145 1.433 . S
C138 H134 0.929 . S
C138 C140 1.378 . S
C138 C142 1.350 . S
C139 C142 1.463 . S
C139 C144 1.350 1_554 S
C139 N147 1.427 . S
C140 H131 0.930 . S
C140 C138 1.378 . S
C140 C141 1.367 . S
C141 C140 1.367 . S
C141 C143 1.433 1_554 S
C142 C138 1.350 . S
C142 C139 1.463 . S
C142 N146 1.427 1_554 S
C143 H133 0.929 . S
C143 C141 1.433 1_556 S
C143 N146 1.384 . S
C144 H135 0.929 . S
C144 C136 1.378 . S
C144 C139 1.350 1_556 S
C145 H132 0.929 . S
C145 C137 1.433 . S
C145 N147 1.384 . S
N146 C142 1.427 1_556 S
N146 C143 1.384 . S
N147 C139 1.427 . S
N147 C145 1.384 . S
H148 C154 0.930 . S
H149 C158 0.930 . S
H150 C163 0.929 . S
H151 C161 0.929 . S
H152 C156 0.929 . S
H153 C162 0.929 . S
C154 H148 0.930 . S
C154 C155 1.367 . S
C154 C162 1.378 . S
C155 C154 1.367 . S
C155 C163 1.433 . S
C156 H152 0.929 . S
C156 C158 1.378 . S
C156 C160 1.350 . S
C157 C160 1.463 . S
C157 C162 1.350 . S
C157 N165 1.427 . S
C158 H149 0.930 . S
C158 C156 1.378 . S
C158 C159 1.367 . S
C159 C158 1.367 . S
C159 C161 1.433 . S
C160 C156 1.350 . S
C160 C157 1.463 . S
C160 N164 1.427 . S
C161 H151 0.929 . S
C161 C159 1.433 . S
C161 N164 1.384 . S
C162 H153 0.929 . S
C162 C154 1.378 . S
C162 C157 1.350 . S
C163 H150 0.929 . S
C163 C155 1.433 . S
C163 N165 1.384 . S
N164 C160 1.427 . S
N164 C161 1.384 . S
N165 C157 1.427 . S
N165 C163 1.384 . S
H166 C172 0.930 . S
H167 C176 0.930 . S
H168 C181 0.929 1_556 S
H169 C179 0.929 . S
H170 C174 0.929 . S
H171 C180 0.929 . S
C172 H166 0.930 . S
C172 C173 1.367 . S
C172 C180 1.378 . S
C173 C172 1.367 . S
C173 C181 1.433 . S
C174 H170 0.929 . S
C174 C176 1.378 . S
C174 C178 1.350 1_556 S
C175 C178 1.463 . S
C175 C180 1.350 . S
C175 N183 1.427 . S
C176 H167 0.930 . S
C176 C174 1.378 . S
C176 C177 1.367 1_556 S
C177 C176 1.367 1_554 S
C177 C179 1.433 . S
C178 C174 1.350 1_554 S
C178 C175 1.463 . S
C178 N182 1.427 . S
C179 H169 0.929 . S
C179 C177 1.433 . S
C179 N182 1.384 . S
C180 H171 0.929 . S
C180 C172 1.378 . S
C180 C175 1.350 . S
C181 H168 0.929 1_554 S
C181 C173 1.433 . S
C181 N183 1.384 . S
N182 C178 1.427 . S
N182 C179 1.384 . S
N183 C175 1.427 . S
N183 C181 1.384 . S
H184 C190 0.930 . S
H185 C194 0.930 . S
H186 C199 0.929 . S
H187 C197 0.929 . S
H188 C192 0.929 . S
H189 C198 0.929 . S
C190 H184 0.930 . S
C190 C191 1.367 . S
C190 C198 1.378 . S
C191 C190 1.367 . S
C191 C199 1.433 . S
C192 H188 0.929 . S
C192 C194 1.378 . S
C192 C196 1.350 . S
C193 C196 1.463 . S
C193 C198 1.350 . S
C193 N201 1.427 . S
C194 H185 0.930 . S
C194 C192 1.378 . S
C194 C195 1.367 . S
C195 C194 1.367 . S
C195 C197 1.433 . S
C196 C192 1.350 . S
C196 C193 1.463 . S
C196 N200 1.427 . S
C197 H187 0.929 . S
C197 C195 1.433 . S
C197 N200 1.384 . S
C198 H189 0.929 . S
C198 C190 1.378 . S
C198 C193 1.350 . S
C199 H186 0.929 . S
C199 C191 1.433 . S
C199 N201 1.384 . S
N200 C196 1.427 . S
N200 C197 1.384 . S
N201 C193 1.427 . S
N201 C199 1.384 . S
H202 C208 0.930 . S
H203 C212 0.930 . S
H204 C217 0.929 . S
H205 C215 0.929 . S
H206 C210 0.929 . S
H207 C216 0.929 . S
C208 H202 0.930 . S
C208 C209 1.367 . S
C208 C216 1.378 . S
C209 C208 1.367 . S
C209 C217 1.433 . S
C210 H206 0.929 . S
C210 C212 1.378 . S
C210 C214 1.350 . S
C211 C214 1.463 . S
C211 C216 1.350 . S
C211 N219 1.427 . S
C212 H203 0.930 . S
C212 C210 1.378 . S
C212 C213 1.367 . S
C213 C212 1.367 . S
C213 C215 1.433 . S
C214 C210 1.350 . S
C214 C211 1.463 . S
C214 N218 1.427 . S
C215 H205 0.929 . S
C215 C213 1.433 . S
C215 N218 1.384 . S
C216 H207 0.929 . S
C216 C208 1.378 . S
C216 C211 1.350 . S
C217 H204 0.929 . S
C217 C209 1.433 . S
C217 N219 1.384 . S
N218 C214 1.427 . S
N218 C215 1.384 . S
N219 C211 1.427 . S
N219 C217 1.384 . S
H220 C226 0.930 . S
H221 C230 0.930 . S
H222 C235 0.929 . S
H223 C233 0.929 . S
H224 C228 0.929 . S
H225 C234 0.929 . S
C226 H220 0.930 . S
C226 C227 1.367 . S
C226 C234 1.378 . S
C227 C226 1.367 . S
C227 C235 1.433 . S
C228 H224 0.929 . S
C228 C230 1.378 . S
C228 C232 1.350 . S
C229 C232 1.463 . S
C229 C234 1.350 . S
C229 N237 1.427 . S
C230 H221 0.930 . S
C230 C228 1.378 . S
C230 C231 1.367 . S
C231 C230 1.367 . S
C231 C233 1.433 . S
C232 C228 1.350 . S
C232 C229 1.463 . S
C232 N236 1.427 . S
C233 H223 0.929 . S
C233 C231 1.433 . S
C233 N236 1.384 . S
C234 H225 0.929 . S
C234 C226 1.378 . S
C234 C229 1.350 . S
C235 H222 0.929 . S
C235 C227 1.433 . S
C235 N237 1.384 . S
N236 C232 1.427 . S
N236 C233 1.384 . S
N237 C229 1.427 . S
N237 C235 1.384 . S
H238 C244 0.930 . S
H239 C248 0.930 . S
H240 C253 0.929 . S
H241 C251 0.929 . S
H242 C246 0.929 . S
H243 C252 0.929 . S
C244 H238 0.930 . S
C244 C245 1.367 . S
C244 C252 1.378 . S
C245 C244 1.367 . S
C245 C253 1.433 . S
C246 H242 0.929 . S
C246 C248 1.378 . S
C246 C250 1.350 . S
C247 C250 1.463 . S
C247 C252 1.350 . S
C247 N255 1.427 . S
C248 H239 0.930 . S
C248 C246 1.378 . S
C248 C249 1.367 . S
C249 C248 1.367 . S
C249 C251 1.433 . S
C250 C246 1.350 . S
C250 C247 1.463 . S
C250 N254 1.427 . S
C251 H241 0.929 . S
C251 C249 1.433 . S
C251 N254 1.384 . S
C252 H243 0.929 . S
C252 C244 1.378 . S
C252 C247 1.350 . S
C253 H240 0.929 . S
C253 C245 1.433 . S
C253 N255 1.384 . S
N254 C250 1.427 . S
N254 C251 1.384 . S
N255 C247 1.427 . S
N255 C253 1.384 . S
H256 C262 0.930 . S
H257 C266 0.930 . S
H258 C271 0.929 . S
H259 C269 0.929 . S
H260 C264 0.929 . S
H261 C270 0.929 . S
C262 H256 0.930 . S
C262 C263 1.367 . S
C262 C270 1.378 . S
C263 C262 1.367 . S
C263 C271 1.433 . S
C264 H260 0.929 . S
C264 C266 1.378 . S
C264 C268 1.350 . S
C265 C268 1.463 . S
C265 C270 1.350 . S
C265 N273 1.427 . S
C266 H257 0.930 . S
C266 C264 1.378 . S
C266 C267 1.367 . S
C267 C266 1.367 . S
C267 C269 1.433 . S
C268 C264 1.350 . S
C268 C265 1.463 . S
C268 N272 1.427 . S
C269 H259 0.929 . S
C269 C267 1.433 . S
C269 N272 1.384 . S
C270 H261 0.929 . S
C270 C262 1.378 . S
C270 C265 1.350 . S
C271 H258 0.929 . S
C271 C263 1.433 . S
C271 N273 1.384 . S
N272 C268 1.427 . S
N272 C269 1.384 . S
N273 C265 1.427 . S
N273 C271 1.384 . S
H274 C280 0.930 . S
H275 C284 0.930 . S
H276 C289 0.929 . S
H277 C287 0.929 . S
H278 C282 0.929 . S
H279 C288 0.929 . S
C280 H274 0.930 . S
C280 C281 1.367 . S
C280 C288 1.378 . S
C281 C280 1.367 . S
C281 C289 1.433 . S
C282 H278 0.929 . S
C282 C284 1.378 . S
C282 C286 1.350 . S
C283 C286 1.463 . S
C283 C288 1.350 . S
C283 N291 1.427 . S
C284 H275 0.930 . S
C284 C282 1.378 . S
C284 C285 1.367 . S
C285 C284 1.367 . S
C285 C287 1.433 . S
C286 C282 1.350 . S
C286 C283 1.463 . S
C286 N290 1.427 . S
C287 H277 0.929 . S
C287 C285 1.433 . S
C287 N290 1.384 . S
C288 H279 0.929 . S
C288 C280 1.378 . S
C288 C283 1.350 . S
C289 H276 0.929 . S
C289 C281 1.433 . S
C289 N291 1.384 . S
N290 C286 1.427 . S
N290 C287 1.384 . S
N291 C283 1.427 . S
N291 C289 1.384 . S
H292 C298 0.930 . S
H293 C302 0.930 . S
H294 C307 0.929 . S
H295 C305 0.929 . S
H296 C300 0.929 . S
H297 C306 0.929 . S
C298 H292 0.930 . S
C298 C299 1.367 . S
C298 C306 1.378 . S
C299 C298 1.367 . S
C299 C307 1.433 . S
C300 H296 0.929 . S
C300 C302 1.378 . S
C300 C304 1.350 . S
C301 C304 1.463 . S
C301 C306 1.350 . S
C301 N309 1.427 . S
C302 H293 0.930 . S
C302 C300 1.378 . S
C302 C303 1.367 . S
C303 C302 1.367 . S
C303 C305 1.433 . S
C304 C300 1.350 . S
C304 C301 1.463 . S
C304 N308 1.427 . S
C305 H295 0.929 . S
C305 C303 1.433 . S
C305 N308 1.384 . S
C306 H297 0.929 . S
C306 C298 1.378 . S
C306 C301 1.350 . S
C307 H294 0.929 . S
C307 C299 1.433 . S
C307 N309 1.384 . S
N308 C304 1.427 . S
N308 C305 1.384 . S
N309 C301 1.427 . S
N309 C307 1.384 . S
H310 C316 0.930 . S
H311 C320 0.930 . S
H312 C325 0.929 . S
H313 C323 0.929 . S
H314 C318 0.929 . S
H315 C324 0.929 . S
C316 H310 0.930 . S
C316 C317 1.367 . S
C316 C324 1.378 . S
C317 C316 1.367 . S
C317 C325 1.433 . S
C318 H314 0.929 . S
C318 C320 1.378 . S
C318 C322 1.350 . S
C319 C322 1.463 . S
C319 C324 1.350 . S
C319 N327 1.427 . S
C320 H311 0.930 . S
C320 C318 1.378 . S
C320 C321 1.367 . S
C321 C320 1.367 . S
C321 C323 1.433 . S
C322 C318 1.350 . S
C322 C319 1.463 . S
C322 N326 1.427 . S
C323 H313 0.929 . S
C323 C321 1.433 . S
C323 N326 1.384 . S
C324 H315 0.929 . S
C324 C316 1.378 . S
C324 C319 1.350 . S
C325 H312 0.929 . S
C325 C317 1.433 . S
C325 N327 1.384 . S
N326 C322 1.427 . S
N326 C323 1.384 . S
N327 C319 1.427 . S
N327 C325 1.384 . S
C123 C48 1.527 . S
C119 C41 1.512 . S
C137 C8 1.498 . S
C141 C91 1.512 . S
C155 C19 1.520 . S
C159 C57 1.537 . S
C173 C30 1.514 . S
C177 C82 1.513 . S
C195 C44 1.577 . S
C191 C5 1.351 . S
C213 C86 1.651 . S
C209 C18 1.602 . S
C227 C29 1.558 . S
C231 C52 1.577 . S
C245 C40 1.600 . S
C249 C78 1.658 . S
C267 C107 1.397 . S
C263 C16 1.151 . S
C285 C73 1.414 . S
C281 C27 1.257 . S
C303 C95 1.392 . S
C299 C38 1.178 . S
C317 C7 1.367 . S
C321 C61 1.406 . S
