# Generated by pormake.
# Topology gar, (4,6)-cn, num edge types: 1
# Building blocks:
#     Node 0, Type 0, BuildingBlock: QUQFOY_clean_sbu_1, # of connection points: 4
#     Node 1, Type 0, BuildingBlock: QUQFOY_clean_sbu_1, # of connection points: 4
#     Node 2, Type 0, BuildingBlock: QUQFOY_clean_sbu_1, # of connection points: 4
#     Node 3, Type 0, BuildingBlock: QUQFOY_clean_sbu_1, # of connection points: 4
#     Node 4, Type 0, BuildingBlock: QUQFOY_clean_sbu_1, # of connection points: 4
#     Node 5, Type 0, BuildingBlock: QUQFOY_clean_sbu_1, # of connection points: 4
#     Node 6, Type 0, BuildingBlock: QUQFOY_clean_sbu_1, # of connection points: 4
#     Node 7, Type 0, BuildingBlock: QUQFOY_clean_sbu_1, # of connection points: 4
#     Node 8, Type 0, BuildingBlock: QUQFOY_clean_sbu_1, # of connection points: 4
#     Node 9, Type 0, BuildingBlock: QUQFOY_clean_sbu_1, # of connection points: 4
#     Node 10, Type 0, BuildingBlock: QUQFOY_clean_sbu_1, # of connection points: 4
#     Node 11, Type 0, BuildingBlock: QUQFOY_clean_sbu_1, # of connection points: 4
#     Node 12, Type 0, BuildingBlock: QUQFOY_clean_sbu_1, # of connection points: 4
#     Node 13, Type 0, BuildingBlock: QUQFOY_clean_sbu_1, # of connection points: 4
#     Node 14, Type 0, BuildingBlock: QUQFOY_clean_sbu_1, # of connection points: 4
#     Node 15, Type 0, BuildingBlock: QUQFOY_clean_sbu_1, # of connection points: 4
#     Node 16, Type 0, BuildingBlock: QUQFOY_clean_sbu_1, # of connection points: 4
#     Node 17, Type 0, BuildingBlock: QUQFOY_clean_sbu_1, # of connection points: 4
#     Node 18, Type 0, BuildingBlock: QUQFOY_clean_sbu_1, # of connection points: 4
#     Node 19, Type 0, BuildingBlock: QUQFOY_clean_sbu_1, # of connection points: 4
#     Node 20, Type 0, BuildingBlock: QUQFOY_clean_sbu_1, # of connection points: 4
#     Node 21, Type 0, BuildingBlock: QUQFOY_clean_sbu_1, # of connection points: 4
#     Node 22, Type 0, BuildingBlock: QUQFOY_clean_sbu_1, # of connection points: 4
#     Node 23, Type 0, BuildingBlock: QUQFOY_clean_sbu_1, # of connection points: 4
#     Node 24, Type 1, BuildingBlock: KUMBOL_clean_sbu_1, # of connection points: 6
#     Node 25, Type 1, BuildingBlock: KUMBOL_clean_sbu_1, # of connection points: 6
#     Node 26, Type 1, BuildingBlock: KUMBOL_clean_sbu_1, # of connection points: 6
#     Node 27, Type 1, BuildingBlock: KUMBOL_clean_sbu_1, # of connection points: 6
#     Node 28, Type 1, BuildingBlock: KUMBOL_clean_sbu_1, # of connection points: 6
#     Node 29, Type 1, BuildingBlock: KUMBOL_clean_sbu_1, # of connection points: 6
#     Node 30, Type 1, BuildingBlock: KUMBOL_clean_sbu_1, # of connection points: 6
#     Node 31, Type 1, BuildingBlock: KUMBOL_clean_sbu_1, # of connection points: 6
#     Node 32, Type 1, BuildingBlock: KUMBOL_clean_sbu_1, # of connection points: 6
#     Node 33, Type 1, BuildingBlock: KUMBOL_clean_sbu_1, # of connection points: 6
#     Node 34, Type 1, BuildingBlock: KUMBOL_clean_sbu_1, # of connection points: 6
#     Node 35, Type 1, BuildingBlock: KUMBOL_clean_sbu_1, # of connection points: 6
#     Node 36, Type 1, BuildingBlock: KUMBOL_clean_sbu_1, # of connection points: 6
#     Node 37, Type 1, BuildingBlock: KUMBOL_clean_sbu_1, # of connection points: 6
#     Node 38, Type 1, BuildingBlock: KUMBOL_clean_sbu_1, # of connection points: 6
#     Node 39, Type 1, BuildingBlock: KUMBOL_clean_sbu_1, # of connection points: 6
#     Edge 40, Type (0, 1), BuildingBlock: KIFKEQ_clean_linker_1, # of connection points: 2
#     Edge 41, Type (0, 1), BuildingBlock: KIFKEQ_clean_linker_1, # of connection points: 2
#     Edge 42, Type (0, 1), BuildingBlock: KIFKEQ_clean_linker_1, # of connection points: 2
#     Edge 43, Type (0, 1), BuildingBlock: KIFKEQ_clean_linker_1, # of connection points: 2
#     Edge 44, Type (0, 1), BuildingBlock: KIFKEQ_clean_linker_1, # of connection points: 2
#     Edge 45, Type (0, 1), BuildingBlock: KIFKEQ_clean_linker_1, # of connection points: 2
#     Edge 46, Type (0, 1), BuildingBlock: KIFKEQ_clean_linker_1, # of connection points: 2
#     Edge 47, Type (0, 1), BuildingBlock: KIFKEQ_clean_linker_1, # of connection points: 2
#     Edge 48, Type (0, 1), BuildingBlock: KIFKEQ_clean_linker_1, # of connection points: 2
#     Edge 49, Type (0, 1), BuildingBlock: KIFKEQ_clean_linker_1, # of connection points: 2
#     Edge 50, Type (0, 1), BuildingBlock: KIFKEQ_clean_linker_1, # of connection points: 2
#     Edge 51, Type (0, 1), BuildingBlock: KIFKEQ_clean_linker_1, # of connection points: 2
#     Edge 52, Type (0, 1), BuildingBlock: KIFKEQ_clean_linker_1, # of connection points: 2
#     Edge 53, Type (0, 1), BuildingBlock: KIFKEQ_clean_linker_1, # of connection points: 2
#     Edge 54, Type (0, 1), BuildingBlock: KIFKEQ_clean_linker_1, # of connection points: 2
#     Edge 55, Type (0, 1), BuildingBlock: KIFKEQ_clean_linker_1, # of connection points: 2
#     Edge 56, Type (0, 1), BuildingBlock: KIFKEQ_clean_linker_1, # of connection points: 2
#     Edge 57, Type (0, 1), BuildingBlock: KIFKEQ_clean_linker_1, # of connection points: 2
#     Edge 58, Type (0, 1), BuildingBlock: KIFKEQ_clean_linker_1, # of connection points: 2
#     Edge 59, Type (0, 1), BuildingBlock: KIFKEQ_clean_linker_1, # of connection points: 2
#     Edge 60, Type (0, 1), BuildingBlock: KIFKEQ_clean_linker_1, # of connection points: 2
#     Edge 61, Type (0, 1), BuildingBlock: KIFKEQ_clean_linker_1, # of connection points: 2
#     Edge 62, Type (0, 1), BuildingBlock: KIFKEQ_clean_linker_1, # of connection points: 2
#     Edge 63, Type (0, 1), BuildingBlock: KIFKEQ_clean_linker_1, # of connection points: 2
#     Edge 64, Type (0, 1), BuildingBlock: KIFKEQ_clean_linker_1, # of connection points: 2
#     Edge 65, Type (0, 1), BuildingBlock: KIFKEQ_clean_linker_1, # of connection points: 2
#     Edge 66, Type (0, 1), BuildingBlock: KIFKEQ_clean_linker_1, # of connection points: 2
#     Edge 67, Type (0, 1), BuildingBlock: KIFKEQ_clean_linker_1, # of connection points: 2
#     Edge 68, Type (0, 1), BuildingBlock: KIFKEQ_clean_linker_1, # of connection points: 2
#     Edge 69, Type (0, 1), BuildingBlock: KIFKEQ_clean_linker_1, # of connection points: 2
#     Edge 70, Type (0, 1), BuildingBlock: KIFKEQ_clean_linker_1, # of connection points: 2
#     Edge 71, Type (0, 1), BuildingBlock: KIFKEQ_clean_linker_1, # of connection points: 2
#     Edge 72, Type (0, 1), BuildingBlock: KIFKEQ_clean_linker_1, # of connection points: 2
#     Edge 73, Type (0, 1), BuildingBlock: KIFKEQ_clean_linker_1, # of connection points: 2
#     Edge 74, Type (0, 1), BuildingBlock: KIFKEQ_clean_linker_1, # of connection points: 2
#     Edge 75, Type (0, 1), BuildingBlock: KIFKEQ_clean_linker_1, # of connection points: 2
#     Edge 76, Type (0, 1), BuildingBlock: KIFKEQ_clean_linker_1, # of connection points: 2
#     Edge 77, Type (0, 1), BuildingBlock: KIFKEQ_clean_linker_1, # of connection points: 2
#     Edge 78, Type (0, 1), BuildingBlock: KIFKEQ_clean_linker_1, # of connection points: 2
#     Edge 79, Type (0, 1), BuildingBlock: KIFKEQ_clean_linker_1, # of connection points: 2
#     Edge 80, Type (0, 1), BuildingBlock: KIFKEQ_clean_linker_1, # of connection points: 2
#     Edge 81, Type (0, 1), BuildingBlock: KIFKEQ_clean_linker_1, # of connection points: 2
#     Edge 82, Type (0, 1), BuildingBlock: KIFKEQ_clean_linker_1, # of connection points: 2
#     Edge 83, Type (0, 1), BuildingBlock: KIFKEQ_clean_linker_1, # of connection points: 2
#     Edge 84, Type (0, 1), BuildingBlock: KIFKEQ_clean_linker_1, # of connection points: 2
#     Edge 85, Type (0, 1), BuildingBlock: KIFKEQ_clean_linker_1, # of connection points: 2
#     Edge 86, Type (0, 1), BuildingBlock: KIFKEQ_clean_linker_1, # of connection points: 2
#     Edge 87, Type (0, 1), BuildingBlock: KIFKEQ_clean_linker_1, # of connection points: 2
#     Edge 88, Type (0, 1), BuildingBlock: KIFKEQ_clean_linker_1, # of connection points: 2
#     Edge 89, Type (0, 1), BuildingBlock: KIFKEQ_clean_linker_1, # of connection points: 2
#     Edge 90, Type (0, 1), BuildingBlock: KIFKEQ_clean_linker_1, # of connection points: 2
#     Edge 91, Type (0, 1), BuildingBlock: KIFKEQ_clean_linker_1, # of connection points: 2
#     Edge 92, Type (0, 1), BuildingBlock: KIFKEQ_clean_linker_1, # of connection points: 2
#     Edge 93, Type (0, 1), BuildingBlock: KIFKEQ_clean_linker_1, # of connection points: 2
#     Edge 94, Type (0, 1), BuildingBlock: KIFKEQ_clean_linker_1, # of connection points: 2
#     Edge 95, Type (0, 1), BuildingBlock: KIFKEQ_clean_linker_1, # of connection points: 2
#     Edge 96, Type (0, 1), BuildingBlock: KIFKEQ_clean_linker_1, # of connection points: 2
#     Edge 97, Type (0, 1), BuildingBlock: KIFKEQ_clean_linker_1, # of connection points: 2
#     Edge 98, Type (0, 1), BuildingBlock: KIFKEQ_clean_linker_1, # of connection points: 2
#     Edge 99, Type (0, 1), BuildingBlock: KIFKEQ_clean_linker_1, # of connection points: 2
#     Edge 100, Type (0, 1), BuildingBlock: KIFKEQ_clean_linker_1, # of connection points: 2
#     Edge 101, Type (0, 1), BuildingBlock: KIFKEQ_clean_linker_1, # of connection points: 2
#     Edge 102, Type (0, 1), BuildingBlock: KIFKEQ_clean_linker_1, # of connection points: 2
#     Edge 103, Type (0, 1), BuildingBlock: KIFKEQ_clean_linker_1, # of connection points: 2
#     Edge 104, Type (0, 1), BuildingBlock: KIFKEQ_clean_linker_1, # of connection points: 2
#     Edge 105, Type (0, 1), BuildingBlock: KIFKEQ_clean_linker_1, # of connection points: 2
#     Edge 106, Type (0, 1), BuildingBlock: KIFKEQ_clean_linker_1, # of connection points: 2
#     Edge 107, Type (0, 1), BuildingBlock: KIFKEQ_clean_linker_1, # of connection points: 2
#     Edge 108, Type (0, 1), BuildingBlock: KIFKEQ_clean_linker_1, # of connection points: 2
#     Edge 109, Type (0, 1), BuildingBlock: KIFKEQ_clean_linker_1, # of connection points: 2
#     Edge 110, Type (0, 1), BuildingBlock: KIFKEQ_clean_linker_1, # of connection points: 2
#     Edge 111, Type (0, 1), BuildingBlock: KIFKEQ_clean_linker_1, # of connection points: 2
#     Edge 112, Type (0, 1), BuildingBlock: KIFKEQ_clean_linker_1, # of connection points: 2
#     Edge 113, Type (0, 1), BuildingBlock: KIFKEQ_clean_linker_1, # of connection points: 2
#     Edge 114, Type (0, 1), BuildingBlock: KIFKEQ_clean_linker_1, # of connection points: 2
#     Edge 115, Type (0, 1), BuildingBlock: KIFKEQ_clean_linker_1, # of connection points: 2
#     Edge 116, Type (0, 1), BuildingBlock: KIFKEQ_clean_linker_1, # of connection points: 2
#     Edge 117, Type (0, 1), BuildingBlock: KIFKEQ_clean_linker_1, # of connection points: 2
#     Edge 118, Type (0, 1), BuildingBlock: KIFKEQ_clean_linker_1, # of connection points: 2
#     Edge 119, Type (0, 1), BuildingBlock: KIFKEQ_clean_linker_1, # of connection points: 2
#     Edge 120, Type (0, 1), BuildingBlock: KIFKEQ_clean_linker_1, # of connection points: 2
#     Edge 121, Type (0, 1), BuildingBlock: KIFKEQ_clean_linker_1, # of connection points: 2
#     Edge 122, Type (0, 1), BuildingBlock: KIFKEQ_clean_linker_1, # of connection points: 2
#     Edge 123, Type (0, 1), BuildingBlock: KIFKEQ_clean_linker_1, # of connection points: 2
#     Edge 124, Type (0, 1), BuildingBlock: KIFKEQ_clean_linker_1, # of connection points: 2
#     Edge 125, Type (0, 1), BuildingBlock: KIFKEQ_clean_linker_1, # of connection points: 2
#     Edge 126, Type (0, 1), BuildingBlock: KIFKEQ_clean_linker_1, # of connection points: 2
#     Edge 127, Type (0, 1), BuildingBlock: KIFKEQ_clean_linker_1, # of connection points: 2
#     Edge 128, Type (0, 1), BuildingBlock: KIFKEQ_clean_linker_1, # of connection points: 2
#     Edge 129, Type (0, 1), BuildingBlock: KIFKEQ_clean_linker_1, # of connection points: 2
#     Edge 130, Type (0, 1), BuildingBlock: KIFKEQ_clean_linker_1, # of connection points: 2
#     Edge 131, Type (0, 1), BuildingBlock: KIFKEQ_clean_linker_1, # of connection points: 2
#     Edge 132, Type (0, 1), BuildingBlock: KIFKEQ_clean_linker_1, # of connection points: 2
#     Edge 133, Type (0, 1), BuildingBlock: KIFKEQ_clean_linker_1, # of connection points: 2
#     Edge 134, Type (0, 1), BuildingBlock: KIFKEQ_clean_linker_1, # of connection points: 2
#     Edge 135, Type (0, 1), BuildingBlock: KIFKEQ_clean_linker_1, # of connection points: 2
# Relax obj value: 0.091
# Max RMSD: 0.190
# Mean RMSD: 0.142
data_MOF--net-gar--node1-QUQFOY_clean_sbu_1--node2-KUMBOL_clean_sbu_1--edge1-KIFKEQ_clean_linker_1
_symmetry_space_group_name_H-M    P1
_symmetry_Int_Tables_number       1
_symmetry_cell_setting            triclinic
loop_
_symmetry_equiv_pos_as_xyz
'x, y, z'
_cell_length_a     62.046938
_cell_length_b     61.981497
_cell_length_c     58.215787
_cell_angle_alpha  96.494205
_cell_angle_beta   96.48557
_cell_angle_gamma 103.35253
loop_
_atom_site_label
_atom_site_type_symbol
_atom_site_fract_x
_atom_site_fract_y
_atom_site_fract_z
_atom_type_partial_charge
O0 O 0.05721 0.28322 0.38307 0.0
Cd1 Cd 0.05818 0.30206 0.35519 0.0
Cd2 Cd 0.04231 0.33132 0.39929 0.0
O3 O 0.05065 0.30444 0.41379 0.0
O4 O 0.07527 0.28654 0.33167 0.0
O5 O 0.09107 0.31913 0.35218 0.0
C6 C 0.09329 0.30244 0.33791 0.0
C7 C 0.04669 0.36644 0.42405 0.0
C8 C 0.0548 0.28638 0.40463 0.0
C9 C 1.00946 0.31268 0.35203 0.0
O10 O 1.01457 0.32195 0.37333 0.0
O11 O 0.02429 0.30567 0.34114 0.0
O12 O 0.03242 0.34851 0.42664 0.0
O13 O 0.05885 0.36471 0.40768 0.0
O14 O 0.01535 0.72253 0.70337 0.0
Cd15 Cd 0.02019 0.75251 0.72738 0.0
Cd16 Cd 0.03677 0.77023 0.6899 0.0
O17 O 0.02194 0.73887 0.67217 0.0
O18 O 0.9958 0.75007 0.75061 0.0
O19 O 0.99441 0.76966 0.72204 0.0
C20 C 0.98494 0.76197 0.73917 0.0
C21 C 0.03256 0.80168 0.67308 0.0
C22 C 0.01657 0.72116 0.68144 0.0
C23 C 0.07306 0.76966 0.72884 0.0
O24 O 0.06781 0.77273 0.70795 0.0
O25 O 0.05709 0.7638 0.74123 0.0
O26 O 0.04345 0.78833 0.66413 0.0
O27 O 0.02358 0.7971 0.69145 0.0
O28 O 0.5978 0.81898 0.87834 0.0
Cd29 Cd 0.57413 0.81854 0.90097 0.0
Cd30 Cd 0.54835 0.8314 0.85892 0.0
O31 O 0.5786 0.82221 0.84504 0.0
O32 O 0.58464 0.80118 0.92544 0.0
O33 O 0.55243 0.7888 0.9021 0.0
C34 C 0.56675 0.78542 0.91836 0.0
C35 C 0.50815 0.82035 0.84105 0.0
C36 C 0.59673 0.81912 0.85638 0.0
C37 C 0.56045 0.86299 0.90839 0.0
O38 O 0.5529 0.85948 0.88643 0.0
O39 O 0.56921 0.84864 0.91749 0.0
O40 O 0.52307 0.83477 0.83319 0.0
O41 O 0.51599 0.81066 0.8575 0.0
O42 O 0.5188 0.21283 0.19899 0.0
Cd43 Cd 0.5231 0.24152 0.22525 0.0
Cd44 Cd 0.54187 0.26219 0.19081 0.0
O45 O 0.53033 0.23138 0.17069 0.0
O46 O 0.49662 0.23706 0.24567 0.0
O47 O 0.49961 0.26137 0.22126 0.0
C48 C 0.48809 0.25162 0.23607 0.0
C49 C 0.54052 0.29395 0.17278 0.0
C50 C 0.52302 0.21285 0.17791 0.0
C51 C 0.57575 0.25995 0.23164 0.0
O52 O 0.57155 0.26507 0.21143 0.0
O53 O 0.55902 0.25197 0.24226 0.0
O54 O 0.55302 0.28093 0.16707 0.0
O55 O 0.5281 0.28875 0.18864 0.0
O56 O 0.05793 0.76532 0.12291 0.0
Cd57 Cd 0.06228 0.79544 0.14317 0.0
Cd58 Cd 0.08231 0.81415 0.1075 0.0
O59 O 0.07233 0.77756 0.09243 0.0
O60 O 0.04518 0.78651 0.169 0.0
O61 O 0.03648 0.81007 0.146 0.0
C62 C 0.03225 0.79907 0.16317 0.0
C63 C 0.07301 0.84905 0.09539 0.0
C64 C 0.06373 0.76098 0.10303 0.0
C65 C 0.11199 0.81455 0.15335 0.0
O66 O 0.11143 0.81964 0.13263 0.0
O67 O 0.09401 0.80624 0.16104 0.0
O68 O 0.08666 0.83928 0.08556 0.0
O69 O 0.06343 0.83852 0.11098 0.0
O70 O 0.55038 0.77701 0.45409 0.0
Cd71 Cd 0.53048 0.77509 0.48084 0.0
Cd72 Cd 0.50236 0.7906 0.43568 0.0
O73 O 0.52924 0.78104 0.42201 0.0
O74 O 0.5449 0.75786 0.5052 0.0
O75 O 0.51413 0.74146 0.48171 0.0
C76 C 0.5299 0.73946 0.49726 0.0
C77 C 0.46751 0.78684 0.41051 0.0
C78 C 0.54753 0.77815 0.43221 0.0
C79 C 0.52027 0.82384 0.483 0.0
O80 O 0.51183 0.81867 0.46144 0.0
O81 O 0.52637 0.80888 0.49444 0.0
O82 O 0.48581 0.8005 0.40782 0.0
O83 O 0.46874 0.77486 0.42713 0.0
O84 O 0.57025 0.25961 0.62518 0.0
Cd85 Cd 0.57239 0.28858 0.64753 0.0
Cd86 Cd 0.59055 0.31081 0.61263 0.0
O87 O 0.58038 0.27547 0.59456 0.0
O88 O 0.55055 0.27834 0.66901 0.0
O89 O 0.54773 0.30489 0.64717 0.0
C90 C 0.5398 0.29243 0.66209 0.0
C91 C 0.58163 0.34617 0.60094 0.0
C92 C 0.57398 0.25759 0.60415 0.0
C93 C 0.62085 0.31002 0.65935 0.0
O94 O 0.61947 0.31458 0.63835 0.0
O95 O 0.60326 0.30133 0.66757 0.0
O96 O 0.59679 0.33756 0.5927 0.0
O97 O 0.57063 0.33449 0.61486 0.0
O98 O 1.01322 0.23469 0.956 0.0
Cd99 Cd 1.01457 0.25774 0.93243 0.0
Cd100 Cd 1.00248 0.2858 0.97413 0.0
O101 O 1.01081 0.25573 0.98867 0.0
O102 O 0.03195 0.2467 0.90827 0.0
O103 O 0.04476 0.27889 0.93154 0.0
C104 C 0.04799 0.26438 0.91535 0.0
C105 C 1.01188 0.32528 0.99339 0.0
C106 C 1.01334 0.23702 0.97804 0.0
C107 C 0.97134 0.27316 0.92409 0.0
O108 O 0.97557 0.28185 0.94569 0.0
O109 O 0.9848 0.26287 0.91533 0.0
O110 O 0.9954 0.31017 0.99795 0.0
O111 O 0.02441 0.31793 0.97964 0.0
O112 O 0.39472 0.02287 0.28585 0.0
Cd113 Cd 0.38116 0.02591 0.31634 0.0
Cd114 Cd 0.41721 0.02223 0.33216 0.0
O115 O 0.42815 0.03784 0.30528 0.0
O116 O 0.38554 0.05663 0.33271 0.0
O117 O 0.35483 0.03716 0.30886 0.0
C118 C 0.36577 0.05542 0.32207 0.0
C119 C 0.43191 0.0349 0.3694 0.0
C120 C 0.41522 0.0322 0.28603 0.0
C121 C 0.3808 0.98362 0.32859 0.0
O122 O 0.40099 0.98924 0.3252 0.0
O123 O 0.36988 0.99835 0.33106 0.0
O124 O 0.44262 0.02497 0.35557 0.0
O125 O 0.41278 0.0383 0.36178 0.0
O126 O 0.28911 0.18966 0.56522 0.0
Cd127 Cd 0.28753 0.16848 0.53461 0.0
Cd128 Cd 0.27147 0.20239 0.51762 0.0
O129 O 0.28222 0.21984 0.55231 0.0
O130 O 0.30439 0.14766 0.54714 0.0
O131 O 0.31479 0.16702 0.51889 0.0
C132 C 0.31848 0.15321 0.53298 0.0
C133 C 0.27841 0.21608 0.4813 0.0
C134 C 0.28699 0.20959 0.56939 0.0
C135 C 0.23951 0.15643 0.5173 0.0
O136 O 0.24218 0.17724 0.516 0.0
O137 O 0.25625 0.14835 0.52195 0.0
O138 O 0.26416 0.22212 0.49358 0.0
O139 O 0.28979 0.20317 0.49011 0.0
O140 O 0.13908 0.04513 0.76241 0.0
Cd141 Cd 0.16012 0.04665 0.79253 0.0
Cd142 Cd 0.12852 0.06508 0.81165 0.0
O143 O 0.11102 0.05568 0.77673 0.0
O144 O 0.18102 0.02942 0.78097 0.0
O145 O 0.16089 0.01978 0.80893 0.0
C146 C 0.1752 0.01588 0.79558 0.0
C147 C 0.11365 0.05784 0.84714 0.0
C148 C 0.12 0.04937 0.75919 0.0
C149 C 0.17482 0.09499 0.81074 0.0
O150 O 0.15494 0.09372 0.81508 0.0
O151 O 0.18079 0.07765 0.80305 0.0
O152 O 0.10835 0.07251 0.83497 0.0
O153 O 0.12647 0.04622 0.83859 0.0
O154 O 0.30264 0.9435 0.04359 0.0
Cd155 Cd 0.30077 0.95741 0.01294 0.0
Cd156 Cd 0.30107 0.91979 1.00057 0.0
O157 O 0.28145 0.91157 0.02537 0.0
O158 O 0.28614 0.98176 0.01668 0.0
O159 O 0.2711 0.94856 0.99436 0.0
C160 C 0.26925 0.96789 0.0036 0.0
C161 C 0.29693 0.90239 0.96386 0.0
C162 C 0.29012 0.92429 0.04432 0.0
C163 C 0.34177 0.95414 0.00546 0.0
O164 O 0.33361 0.93565 0.01215 0.0
O165 O 0.32894 0.96583 0.99826 0.0
O166 O 0.30386 0.89327 0.98121 0.0
O167 O 0.29019 0.92053 0.96764 0.0
O168 O 0.30937 0.39147 0.0964 0.0
Cd169 Cd 0.31038 0.41306 0.07165 0.0
Cd170 Cd 0.32123 0.37654 0.04516 0.0
O171 O 0.30977 0.36054 0.07352 0.0
O172 O 0.29595 0.43675 0.08402 0.0
O173 O 0.28143 0.41266 0.05184 0.0
C174 C 0.28007 0.42921 0.06675 0.0
C175 C 0.31323 0.35905 0.00543 0.0
C176 C 0.30775 0.37046 0.0934 0.0
C177 C 0.35628 0.42157 0.05833 0.0
O178 O 0.35186 0.40055 0.05158 0.0
O179 O 0.34122 0.43048 0.06528 0.0
O180 O 0.32731 0.35384 0.02053 0.0
O181 O 0.30237 0.37318 0.01305 0.0
O182 O 0.7721 0.14001 0.10536 0.0
Cd183 Cd 0.77342 0.12061 0.07593 0.0
Cd184 Cd 0.77382 0.15524 0.05976 0.0
O185 O 0.7926 0.16779 0.0912 0.0
O186 O 0.79031 0.09911 0.08306 0.0
O187 O 0.8014 0.12831 0.06372 0.0
C188 C 0.80515 0.11129 0.07288 0.0
C189 C 0.78164 0.16824 0.02634 0.0
C190 C 0.78517 0.15935 0.10843 0.0
C191 C 0.73257 0.12061 0.05349 0.0
O192 O 0.74058 0.14148 0.05911 0.0
O193 O 0.74525 0.10738 0.05407 0.0
O194 O 0.77381 0.17977 0.04175 0.0
O195 O 0.78653 0.14985 0.03065 0.0
O196 O 0.19475 0.5569 0.23141 0.0
Cd197 Cd 0.21469 0.55816 0.26175 0.0
Cd198 Cd 0.18026 0.55978 0.27682 0.0
O199 O 0.16713 0.53839 0.24724 0.0
O200 O 0.2357 0.54031 0.25715 0.0
O201 O 0.20664 0.53203 0.27737 0.0
C202 C 0.22338 0.52693 0.26869 0.0
C203 C 0.16391 0.5572 0.30974 0.0
C204 C 0.17501 0.54483 0.22937 0.0
C205 C 0.21457 0.6006 0.27955 0.0
O206 O 0.19386 0.59213 0.27342 0.0
O207 O 0.22794 0.58808 0.28105 0.0
O208 O 0.15451 0.56339 0.29159 0.0
O209 O 0.18228 0.55097 0.3087 0.0
O210 O 0.81235 0.89243 0.60131 0.0
Cd211 Cd 0.81302 0.91273 0.57545 0.0
Cd212 Cd 0.82429 0.87723 0.55041 0.0
O213 O 0.81356 0.8614 0.57916 0.0
O214 O 0.79814 0.93598 0.5872 0.0
O215 O 0.78404 0.91139 0.55537 0.0
C216 C 0.7823 0.92803 0.56995 0.0
C217 C 0.81356 0.86048 0.51075 0.0
C218 C 0.81105 0.87152 0.59872 0.0
C219 C 0.85846 0.92262 0.56119 0.0
O220 O 0.85485 0.90153 0.55531 0.0
O221 O 0.84311 0.93092 0.56829 0.0
O222 O 0.82859 0.85489 0.52437 0.0
O223 O 0.80341 0.87461 0.51985 0.0
O224 O 0.9412 0.02407 0.23445 0.0
Cd225 Cd 0.92028 0.02063 0.25935 0.0
Cd226 Cd 0.95642 1.00879 0.28478 0.0
O227 O 0.97114 0.01832 0.25479 0.0
O228 O 0.89682 0.03597 0.24911 0.0
O229 O 0.92127 0.04823 0.28151 0.0
C230 C 0.90479 0.05076 0.26729 0.0
C231 C 0.97395 0.02057 0.32407 0.0
C232 C 0.96157 0.02326 0.23611 0.0
C233 C 0.91117 0.97461 0.27328 0.0
O234 O 0.93178 0.97891 0.28176 0.0
O235 O 0.90312 0.98905 0.26379 0.0
O236 O 0.98067 1.00662 0.31012 0.0
O237 O 0.95828 0.02913 0.31537 0.0
O238 O 0.27387 0.63694 0.60021 0.0
Cd239 Cd 0.27314 0.61548 0.57108 0.0
Cd240 Cd 0.2751 0.65106 0.55419 0.0
O241 O 0.29627 0.6618 0.58445 0.0
O242 O 0.28956 0.59319 0.57718 0.0
O243 O 0.30047 0.622 0.55733 0.0
C244 C 0.30444 0.60517 0.56683 0.0
C245 C 0.28226 0.66876 0.5229 0.0
C246 C 0.28765 0.65584 0.6021 0.0
C247 C 0.23238 0.61846 0.55089 0.0
O248 O 0.24191 0.63913 0.55562 0.0
O249 O 0.24371 0.60395 0.55088 0.0
O250 O 0.27639 0.67884 0.54085 0.0
O251 O 0.28469 0.64863 0.52304 0.0
O252 O 0.44234 0.52615 0.73871 0.0
Cd253 Cd 0.41962 0.52349 0.76198 0.0
Cd254 Cd 0.45668 0.51268 0.79022 0.0
O255 O 0.47247 0.52329 0.76117 0.0
O256 O 0.39715 0.53921 0.74899 0.0
O257 O 0.41864 0.55124 0.78311 0.0
C258 C 0.40368 0.55421 0.76724 0.0
C259 C 0.47423 0.52226 0.82997 0.0
C260 C 0.46306 0.52661 0.74157 0.0
C261 C 0.41144 0.47732 0.77585 0.0
O262 O 0.43198 0.48244 0.78496 0.0
O263 O 0.40286 0.49156 0.76645 0.0
O264 O 0.48078 0.50897 0.81514 0.0
O265 O 0.45859 0.53127 0.82213 0.0
O266 O 0.69641 0.06157 0.72806 0.0
Cd267 Cd 0.71631 0.06126 0.75792 0.0
Cd268 Cd 0.68175 0.06102 0.77383 0.0
O269 O 0.66926 0.04128 0.74316 0.0
O270 O 0.73829 0.04447 0.75253 0.0
O271 O 0.70821 0.03338 0.77052 0.0
C272 C 0.7255 0.02943 0.76199 0.0
C273 C 0.66504 0.0551 0.80575 0.0
C274 C 0.67683 0.04903 0.72571 0.0
C275 C 0.71497 0.10251 0.77913 0.0
O276 O 0.69426 0.09411 0.77322 0.0
O277 O 0.72853 0.09014 0.77922 0.0
O278 O 0.65546 0.06215 0.78832 0.0
O279 O 0.68391 0.04995 0.80438 0.0
O280 O 0.78441 0.69583 0.07251 0.0
Cd281 Cd 0.78535 0.67558 0.04225 0.0
Cd282 Cd 0.76843 0.70711 0.02346 0.0
O283 O 0.77841 0.7255 0.05766 0.0
O284 O 0.7999 0.65413 0.0563 0.0
O285 O 0.81433 0.67376 0.02997 0.0
C286 C 0.81567 0.6592 0.04389 0.0
C287 C 0.77569 0.72055 0.98743 0.0
C288 C 0.78231 0.7158 0.0754 0.0
C289 C 0.73795 0.66088 0.02271 0.0
O290 O 0.73942 0.68148 0.02108 0.0
O291 O 0.75543 0.65424 0.02811 0.0
O292 O 0.76125 0.72658 0.99943 0.0
O293 O 0.78708 0.70775 0.99643 0.0
O294 O 0.89451 0.52983 0.79413 0.0
Cd295 Cd 0.87891 0.53098 0.82363 0.0
Cd296 Cd 0.91504 0.52904 0.84047 0.0
O297 O 0.92667 0.54649 0.81549 0.0
O298 O 0.85424 0.5443 0.81585 0.0
O299 O 0.88451 0.56087 0.842 0.0
C300 C 0.86609 0.56175 0.82979 0.0
C301 C 0.92993 0.53842 0.87812 0.0
C302 C 0.91489 0.54025 0.79564 0.0
C303 C 0.88018 0.48884 0.83366 0.0
O304 O 0.90022 0.49612 0.83041 0.0
O305 O 0.868 0.50233 0.83697 0.0
O306 O 0.94067 0.53004 0.86314 0.0
O307 O 0.91076 0.54225 0.87151 0.0
O308 O 0.81122 0.44042 0.54937 0.0
Cd309 Cd 0.8078 0.45411 0.51912 0.0
Cd310 Cd 0.80943 0.41733 0.50421 0.0
O311 O 0.7926 0.4075 0.53079 0.0
O312 O 0.79385 0.47903 0.52472 0.0
O313 O 0.77701 0.44626 0.50256 0.0
C314 C 0.77622 0.46581 0.51222 0.0
C315 C 0.79878 0.40271 0.46654 0.0
C316 C 0.80038 0.42046 0.54981 0.0
C317 C 0.8496 0.45251 0.50876 0.0
O318 O 0.84249 0.43267 0.51288 0.0
O319 O 0.83576 0.46414 0.50437 0.0
O320 O 0.80707 0.39153 0.48115 0.0
O321 O 0.79567 0.42211 0.47357 0.0
O322 O 0.64313 0.54385 0.26812 0.0
Cd323 Cd 0.66373 0.54644 0.29901 0.0
Cd324 Cd 0.63064 0.56293 0.31649 0.0
O325 O 0.61355 0.5517 0.28147 0.0
O326 O 0.68691 0.53221 0.2878 0.0
O327 O 0.66608 0.51883 0.31372 0.0
C328 C 0.68158 0.5172 0.30108 0.0
C329 C 0.6185 0.55393 0.3529 0.0
C330 C 0.62333 0.54625 0.26421 0.0
C331 C 0.67556 0.59517 0.31651 0.0
O332 O 0.65496 0.59292 0.31866 0.0
O333 O 0.68297 0.57808 0.31129 0.0
O334 O 0.60957 0.56649 0.34051 0.0
O335 O 0.63351 0.54541 0.34425 0.0
C336 C 0.99652 0.98444 0.00804 0.0
C337 C 0.97733 0.96338 0.03582 0.0
C338 C 0.99116 0.98316 0.03057 0.0
C339 C 0.9691 0.94485 0.0183 0.0
C340 C 0.98787 0.9659 0.99035 0.0
C341 C 0.97432 0.94612 0.99564 0.0
N342 N 1.00879 1.00421 1.00304 0.0
C343 C 1.0123 1.00652 0.98058 0.0
C344 C 0.99227 0.96802 0.96756 0.0
C345 C 1.00446 0.98843 0.96267 0.0
Gd346 Gd 0.07756 0.06243 0.06256 0.0
Gd347 Gd 0.01641 0.03431 0.0337 0.0
N348 N 0.9987 1.00158 0.04712 0.0
C349 C 0.97144 0.96306 0.05833 0.0
C350 C 0.9919 1.00173 0.06859 0.0
C351 C 0.97864 0.9824 0.07474 0.0
H352 H 0.99584 0.01695 0.08064 0.0
H353 H 0.97346 0.98262 0.09189 0.0
H354 H 0.09432 0.08223 0.01438 0.0
H355 H 0.01992 0.02251 0.97591 0.0
H356 H 0.11627 0.11744 0.0045 0.0
H357 H 0.96075 0.94822 0.06297 0.0
H358 H 0.95828 0.92961 0.02196 0.0
H359 H 0.07005 0.07342 0.11978 0.0
H360 H 0.98574 0.95421 0.95349 0.0
H361 H 1.00721 0.99047 0.94493 0.0
H362 H 0.13229 0.16791 0.07636 0.0
H363 H 0.9674 0.93182 0.98219 0.0
H364 H 0.10342 0.14168 0.14351 0.0
H365 H 0.08148 0.10522 0.15104 0.0
N366 N 0.0825 0.09201 0.09329 0.0
C367 C 0.09488 0.11196 0.08882 0.0
C368 C 0.07785 0.0895 0.11542 0.0
C369 C 0.09749 0.12796 0.12925 0.0
C370 C 0.08499 0.10745 0.13355 0.0
C371 C 0.10277 0.13039 0.10679 0.0
H372 H 0.1226 0.16465 0.11577 0.0
N373 N 0.09323 0.0958 0.04925 0.0
C374 C 0.10062 0.1138 0.0664 0.0
C375 C 0.1194 0.13539 0.0391 0.0
C376 C 0.11399 0.13408 0.06169 0.0
C377 C 0.0989 0.09684 0.02738 0.0
C378 C 0.11176 0.11671 0.02187 0.0
O379 O 0.03369 1.00832 0.04824 0.0
O380 O 0.07084 0.02433 0.0636 0.0
O381 O 0.11067 0.0608 0.05503 0.0
O382 O 0.10463 0.0672 0.09073 0.0
O383 O 0.02291 0.05394 0.07021 0.0
O384 O 0.05459 0.04603 0.08646 0.0
O385 O 0.057 0.0881 0.05194 0.0
O386 O 0.02726 0.06959 0.02367 0.0
O387 O 0.9875 0.04371 0.04513 0.0
O388 O 0.98623 0.02863 0.00925 0.0
O389 O 0.07406 0.04468 0.02537 0.0
O390 O 0.03983 0.04781 0.00873 0.0
C391 C 0.05349 1.00664 0.05795 0.0
C392 C 0.03458 0.04895 0.08816 0.0
C393 C 0.13364 0.04983 0.08482 0.0
C394 C 0.15815 0.02581 0.07602 0.0
C395 C 0.15403 0.03661 0.11623 0.0
C396 C 0.13925 0.04913 0.10879 0.0
C397 C 0.16343 0.02486 0.09988 0.0
C398 C 0.14335 0.03827 0.06852 0.0
C399 C 0.11904 0.06389 0.0771 0.0
C400 C 0.12179 0.15231 0.07963 0.0
C401 C 0.11623 0.15047 0.10208 0.0
H402 H 0.1297 0.15066 0.03485 0.0
C403 C 0.04057 0.08849 0.03523 0.0
C404 C 0.06022 0.04587 0.00696 0.0
C405 C 0.96346 0.0533 0.01611 0.0
C406 C 0.93594 0.07378 0.02351 0.0
C407 C 0.94909 0.07246 0.98596 0.0
C408 C 0.96312 0.05916 0.99342 0.0
C409 C 0.93537 0.07973 1.00098 0.0
C410 C 0.94998 0.0608 0.03104 0.0
C411 C 0.97593 0.03783 0.02428 0.0
H412 H 0.15838 0.03623 0.13469 0.0
H413 H 0.13241 0.05844 0.1218 0.0
H414 H 0.17519 0.01547 0.10582 0.0
H415 H 0.13964 0.03905 0.05001 0.0
H416 H 0.94847 0.07669 0.96841 0.0
H417 H 0.9733 0.05321 0.98142 0.0
H418 H 0.92386 0.0893 0.99487 0.0
H419 H 0.9497 0.05577 0.04831 0.0
C420 C 0.31471 0.75467 0.22312 0.0
C421 C 0.28091 0.73359 0.19791 0.0
C422 C 0.29258 0.75252 0.2141 0.0
C423 C 0.29176 0.71681 0.19128 0.0
C424 C 0.32583 0.7381 0.21622 0.0
C425 C 0.31418 0.71908 0.20039 0.0
N426 N 0.32531 0.77288 0.23889 0.0
C427 C 0.34722 0.77603 0.24796 0.0
C428 C 0.34829 0.7411 0.22559 0.0
C429 C 0.35908 0.76026 0.2414 0.0
Gd430 Gd 0.2707 0.79973 0.31396 0.0
Gd431 Gd 0.30374 0.79689 0.25172 0.0
N432 N 0.28247 0.76886 0.2213 0.0
C433 C 0.25867 0.73206 0.18887 0.0
C434 C 0.26099 0.76774 0.21181 0.0
C435 C 0.24878 0.74934 0.19566 0.0
H436 H 0.25296 0.78086 0.21634 0.0
H437 H 0.23168 0.7485 0.18847 0.0
H438 H 0.32121 0.81862 0.34868 0.0
H439 H 0.35554 0.79064 0.26041 0.0
H440 H 0.33975 0.84955 0.37963 0.0
H441 H 0.24911 0.71777 0.17645 0.0
H442 H 0.28299 0.70207 0.17904 0.0
H443 H 0.22005 0.80829 0.29762 0.0
H444 H 0.35744 0.72877 0.22073 0.0
H445 H 0.37646 0.76278 0.24871 0.0
H446 H 0.28423 0.89065 0.39091 0.0
H447 H 0.32237 0.70606 0.19506 0.0
H448 H 0.2136 0.8661 0.34128 0.0
H449 H 0.19785 0.83494 0.30897 0.0
N450 N 0.24837 0.82445 0.32293 0.0
C451 C 0.25718 0.8412 0.34111 0.0
C452 C 0.22731 0.82204 0.31148 0.0
C453 C 0.22348 0.85448 0.33636 0.0
C454 C 0.21457 0.83698 0.31803 0.0
C455 C 0.24505 0.85683 0.3481 0.0
H456 H 0.24581 0.88666 0.37185 0.0
N457 N 0.29047 0.82849 0.34427 0.0
C458 C 0.27878 0.84323 0.35221 0.0
C459 C 0.31105 0.86349 0.37998 0.0
C460 C 0.28887 0.86125 0.3701 0.0
C461 C 0.31197 0.8304 0.35427 0.0
C462 C 0.32261 0.84798 0.37205 0.0
O463 O 0.29323 0.76414 0.26416 0.0
O464 O 0.26632 0.77599 0.2807 0.0
O465 O 0.27254 0.7768 0.33924 0.0
O466 O 0.24047 0.784 0.32699 0.0
O467 O 0.27074 0.80802 0.2485 0.0
O468 O 0.24919 0.79634 0.27801 0.0
O469 O 0.28744 0.83435 0.30894 0.0
O470 O 0.29499 0.81131 0.28308 0.0
O471 O 0.30309 0.82203 0.22923 0.0
O472 O 0.33479 0.81981 0.24752 0.0
O473 O 0.30465 0.78966 0.31713 0.0
O474 O 0.32612 0.79933 0.28671 0.0
C475 C 0.27775 0.76098 0.27767 0.0
C476 C 0.25192 0.80484 0.2581 0.0
C477 C 0.23996 0.75877 0.3557 0.0
C478 C 0.24246 0.73781 0.38799 0.0
C479 C 0.20651 0.74284 0.37201 0.0
C480 C 0.21676 0.75515 0.35583 0.0
C481 C 0.21935 0.73431 0.38823 0.0
C482 C 0.2527 0.74973 0.37162 0.0
C483 C 0.25123 0.7736 0.34062 0.0
C484 C 0.27675 0.87672 0.37719 0.0
C485 C 0.25487 0.87447 0.36629 0.0
H486 H 0.31943 0.8772 0.39365 0.0
C487 C 0.2976 0.83192 0.2914 0.0
C488 C 0.32372 0.79302 0.30773 0.0
C489 C 0.33508 0.834 0.21129 0.0
C490 C 0.33229 0.84555 0.17276 0.0
C491 C 0.36775 0.84108 0.19137 0.0
C492 C 0.35787 0.83504 0.21083 0.0
C493 C 0.35507 0.84632 0.17241 0.0
C494 C 0.32241 0.83932 0.1922 0.0
C495 C 0.3248 0.82944 0.23226 0.0
H496 H 0.18869 0.74029 0.37227 0.0
H497 H 0.20663 0.76221 0.3438 0.0
H498 H 0.21138 0.72524 0.40111 0.0
H499 H 0.27069 0.75275 0.37202 0.0
H500 H 0.38537 0.84208 0.19116 0.0
H501 H 0.36813 0.83153 0.22559 0.0
H502 H 0.36323 0.85161 0.15778 0.0
H503 H 0.3049 0.83898 0.19255 0.0
C504 C 0.60084 0.08632 0.51735 0.0
C505 C 0.62938 0.1096 0.54811 0.0
C506 C 0.61196 0.09015 0.54024 0.0
C507 C 0.63547 0.12517 0.53284 0.0
C508 C 0.60744 0.10174 0.50187 0.0
C509 C 0.62461 0.12122 0.50979 0.0
N510 N 0.58417 0.06731 0.51002 0.0
C511 C 0.57458 0.06214 0.48714 0.0
C512 C 0.59694 0.09694 0.47868 0.0
C513 C 0.58062 0.07697 0.47126 0.0
Gd514 Gd 0.51779 0.03639 0.56564 0.0
Gd515 Gd 0.57759 0.04317 0.53814 0.0
N516 N 0.60562 0.07497 0.55488 0.0
C517 C 0.64023 0.11279 0.57113 0.0
C518 C 0.61698 0.07736 0.57681 0.0
C519 C 0.6341 0.0965 0.58548 0.0
H520 H 0.61332 0.0643 0.58736 0.0
H521 H 0.6428 0.09848 0.60308 0.0
H522 H 0.48245 0.01347 0.51704 0.0
H523 H 0.56281 0.04632 0.48064 0.0
H524 H 0.45289 0.9786 0.50295 0.0
H525 H 0.65359 0.12757 0.57784 0.0
H526 H 0.64875 0.14023 0.53861 0.0
H527 H 0.53547 0.03459 0.62325 0.0
H528 H 0.60168 0.10828 0.46624 0.0
H529 H 0.57294 0.0728 0.45317 0.0
H530 H 0.45068 0.93827 0.56868 0.0
H531 H 0.62979 0.13325 0.49812 0.0
H532 H 0.49998 0.97191 0.63924 0.0
H533 H 0.5279 1.00811 0.65114 0.0
N534 N 0.5137 0.01286 0.59453 0.0
C535 C 0.49743 0.99342 0.58786 0.0
C536 C 0.52411 0.01847 0.61714 0.0
C537 C 0.50363 0.98326 0.62655 0.0
C538 C 0.51949 1.00363 0.63331 0.0
C539 C 0.49217 0.97805 0.60373 0.0
H540 H 0.47119 0.94618 0.60855 0.0
N541 N 0.49081 1.00384 0.54995 0.0
C542 C 0.48555 0.98893 0.56518 0.0
C543 C 0.45698 0.96521 0.53533 0.0
C544 C 0.4686 0.96903 0.55808 0.0
C545 C 0.47909 1.00067 0.52813 0.0
C546 C 0.46215 0.98117 0.52036 0.0
O547 O 0.57115 0.07708 0.55405 0.0
O548 O 0.53614 0.07318 0.56665 0.0
O549 O 0.48715 0.0469 0.55505 0.0
O550 O 0.50069 0.04903 0.59216 0.0
O551 O 0.56669 0.02998 0.56997 0.0
O552 O 0.54831 0.05016 0.59108 0.0
O553 O 0.52631 1.00268 0.55163 0.0
O554 O 0.55502 1.00773 0.52839 0.0
O555 O 0.60509 0.02812 0.55066 0.0
O556 O 0.59725 0.03222 0.51383 0.0
O557 O 0.52682 0.04954 0.53316 0.0
O558 O 0.5469 0.03138 0.51184 0.0
C559 C 0.5554 0.08571 0.5626 0.0
C560 C 0.56624 0.04332 0.58864 0.0
C561 C 0.46705 0.06167 0.58463 0.0
C562 C 0.44006 0.08404 0.57864 0.0
C563 C 0.44795 0.07257 0.61654 0.0
C564 C 0.46318 0.06154 0.60795 0.0
C565 C 0.43658 0.08395 0.60205 0.0
C566 C 0.4551 0.07262 0.5698 0.0
C567 C 0.48533 0.05264 0.57693 0.0
C568 C 0.46366 0.95366 0.57384 0.0
C569 C 0.47538 0.95815 0.59656 0.0
H570 H 0.44378 0.95014 0.52928 0.0
C571 C 0.53892 0.99463 0.53731 0.0
C572 C 0.52824 0.03694 0.51431 0.0
C573 C 0.62694 0.01431 0.52168 0.0
C574 C 0.65595 0.99453 0.52911 0.0
C575 C 0.64381 0.99966 0.48952 0.0
C576 C 0.62872 0.01108 0.49768 0.0
C577 C 0.65732 0.99133 0.50513 0.0
C578 C 0.6408 1.00608 0.53751 0.0
C579 C 0.60954 0.02493 0.52927 0.0
H580 H 0.44521 0.07257 0.63458 0.0
H581 H 0.47226 0.05329 0.61972 0.0
H582 H 0.42498 0.09268 0.60907 0.0
H583 H 0.45818 0.07314 0.55188 0.0
H584 H 0.64497 0.99719 0.47104 0.0
H585 H 0.61824 0.01713 0.48502 0.0
H586 H 0.66905 0.98251 0.49854 0.0
H587 H 0.63968 1.00841 0.55604 0.0
C588 C 0.24521 0.30177 0.73579 0.0
C589 C 0.22152 0.26649 0.71515 0.0
C590 C 0.23651 0.27878 0.73479 0.0
C591 C 0.21565 0.27749 0.69647 0.0
C592 C 0.23939 0.31281 0.71703 0.0
C593 C 0.22458 0.30055 0.69739 0.0
N594 N 0.25976 0.31321 0.75486 0.0
C595 C 0.26872 0.3357 0.75657 0.0
C596 C 0.24874 0.33585 0.71851 0.0
C597 C 0.26342 0.34734 0.73838 0.0
Gd598 Gd 0.32393 0.27231 0.79039 0.0
Gd599 Gd 0.26717 0.29207 0.7842 0.0
N600 N 0.24302 0.2684 0.75283 0.0
C601 C 0.2128 0.24351 0.71491 0.0
C602 C 0.23367 0.2463 0.75321 0.0
C603 C 0.21871 0.23344 0.73414 0.0
H604 H 0.23709 0.23866 0.76837 0.0
H605 H 0.2115 0.21583 0.73445 0.0
H606 H 0.35684 0.32401 0.80709 0.0
H607 H 0.27964 0.34482 0.7721 0.0
H608 H 0.38532 0.34442 0.84014 0.0
H609 H 0.20117 0.2335 0.70018 0.0
H610 H 0.20419 0.2683 0.68122 0.0
H611 H 0.30889 0.21875 0.80076 0.0
H612 H 0.24468 0.34493 0.70444 0.0
H613 H 0.27057 0.36518 0.73976 0.0
H614 H 0.39105 0.28904 0.89032 0.0
H615 H 0.21992 0.30876 0.68281 0.0
H616 H 0.34446 0.21479 0.86675 0.0
H617 H 0.31689 0.19678 0.83187 0.0
N618 N 0.33009 0.24948 0.8187 0.0
C619 C 0.34579 0.25957 0.83739 0.0
C620 C 0.32009 0.22711 0.81635 0.0
C621 C 0.34061 0.22468 0.85336 0.0
C622 C 0.32496 0.21447 0.83376 0.0
C623 C 0.35143 0.24742 0.85526 0.0
H624 H 0.37229 0.24916 0.88822 0.0
N625 N 0.34999 0.29369 0.82156 0.0
C626 C 0.35628 0.2822 0.83867 0.0
C627 C 0.38309 0.31576 0.85834 0.0
C628 C 0.37279 0.29304 0.85772 0.0
C629 C 0.36058 0.31554 0.82158 0.0
C630 C 0.37707 0.327 0.8401 0.0
O631 O 0.28135 0.28358 0.75016 0.0
O632 O 0.29892 0.25619 0.75836 0.0
O633 O 0.3522 0.28187 0.77064 0.0
O634 O 0.34313 0.24867 0.78158 0.0
O635 O 0.26897 0.26203 0.80234 0.0
O636 O 0.29182 0.24533 0.78232 0.0
O637 O 0.31219 0.28357 0.82498 0.0
O638 O 0.29138 0.30879 0.81657 0.0
O639 O 0.23793 0.28083 0.80235 0.0
O640 O 0.24701 0.31478 0.7933 0.0
O641 O 0.32398 0.30443 0.77469 0.0
O642 O 0.29865 0.32008 0.79254 0.0
C643 C 0.29012 0.26693 0.74312 0.0
C644 C 0.27538 0.24415 0.79478 0.0
C645 C 0.37494 0.25518 0.76082 0.0
C646 C 0.40643 0.26151 0.7388 0.0
C647 C 0.39552 0.22658 0.7544 0.0
C648 C 0.37839 0.23394 0.76379 0.0
C649 C 0.40945 0.24024 0.74194 0.0
C650 C 0.38916 0.26909 0.74829 0.0
C651 C 0.3566 0.26231 0.77118 0.0
C652 C 0.37844 0.28096 0.87553 0.0
C653 C 0.36774 0.25825 0.87434 0.0
H654 H 0.39589 0.32468 0.87265 0.0
C655 C 0.30214 0.29936 0.83171 0.0
C656 C 0.31666 0.32189 0.78222 0.0
C657 C 0.21405 0.30648 0.81255 0.0
C658 C 0.18368 0.30097 0.83658 0.0
C659 C 0.19134 0.33349 0.81636 0.0
C660 C 0.20869 0.32636 0.80725 0.0
C661 C 0.17902 0.321 0.83097 0.0
C662 C 0.20122 0.29348 0.82716 0.0
C663 C 0.23329 0.30034 0.80275 0.0
H664 H 0.39802 0.21022 0.75682 0.0
H665 H 0.36785 0.22292 0.77345 0.0
H666 H 0.42273 0.23425 0.73477 0.0
H667 H 0.38683 0.28553 0.74588 0.0
H668 H 0.18744 0.34884 0.81209 0.0
H669 H 0.21795 0.33657 0.79597 0.0
H670 H 0.16555 0.32693 0.83781 0.0
H671 H 0.20499 0.27806 0.83141 0.0
C672 C 0.02935 0.09421 0.59473 0.0
C673 C 0.06446 0.11746 0.61619 0.0
C674 C 0.05244 0.10265 0.59633 0.0
C675 C 0.05318 0.12315 0.63468 0.0
C676 C 0.018 0.09995 0.61325 0.0
C677 C 0.03005 0.11434 0.63326 0.0
N678 N 0.01801 0.08046 0.57506 0.0
C679 C 0.99534 0.07237 0.5725 0.0
C680 C 0.99481 0.0912 0.61102 0.0
C681 C 0.98344 0.07743 0.59052 0.0
Gd682 Gd 0.05858 0.01596 0.53954 0.0
Gd683 Gd 0.03984 0.07337 0.54624 0.0
N684 N 0.0631 0.09639 0.57841 0.0
C685 C 0.08742 0.12646 0.61667 0.0
C686 C 0.08508 0.10615 0.57816 0.0
C687 C 0.09769 0.12102 0.59742 0.0
H688 H 0.0927 0.10322 0.56284 0.0
H689 H 0.11522 0.1286 0.59721 0.0
H690 H 1.00586 0.9848 0.52304 0.0
H691 H 0.98631 0.06246 0.5564 0.0
H692 H 0.98405 0.95804 0.48941 0.0
H693 H 0.09721 0.13808 0.63152 0.0
H694 H 0.06216 0.13448 0.65011 0.0
H695 H 0.1118 0.02898 0.5284 0.0
H696 H 0.9855 0.0952 0.62489 0.0
H697 H 0.96547 0.07092 0.58849 0.0
H698 H 0.03787 0.9507 0.43788 0.0
H699 H 0.0216 0.11896 0.64766 0.0
H700 H 0.11369 0.99303 0.46182 0.0
H701 H 0.13297 0.01971 0.49695 0.0
N702 N 0.08048 1.00887 0.51066 0.0
C703 C 0.06963 0.99377 0.49175 0.0
C704 C 0.10299 0.01796 0.51282 0.0
C705 C 0.1042 0.99732 0.47542 0.0
C706 C 0.11513 0.01246 0.49517 0.0
C707 C 0.08121 0.98768 0.47355 0.0
H708 H 0.0782 0.96727 0.44002 0.0
N709 N 0.03596 0.99087 0.50818 0.0
C710 C 0.04678 0.98442 0.49053 0.0
C711 C 1.01219 0.95948 0.47058 0.0
C712 C 0.03509 0.96874 0.47111 0.0
C713 C 1.01391 0.98113 0.50825 0.0
C714 C 1.00161 0.96557 0.48934 0.0
O715 O 0.04812 0.0586 0.57979 0.0
O716 O 0.07522 0.04066 0.5716 0.0
O717 O 0.04835 0.98772 0.55922 0.0
O718 O 0.08151 0.99598 0.54814 0.0
O719 O 0.07089 0.07182 0.52925 0.0
O720 O 0.08638 0.04731 0.54819 0.0
O721 O 0.04834 0.02924 0.5057 0.0
O722 O 0.02255 0.04967 0.51359 0.0
O723 O 0.05172 0.101 0.52661 0.0
O724 O 0.02097 0.09815 0.5414 0.0
O725 O 0.02713 0.01711 0.55566 0.0
O726 O 1.01097 0.04232 0.53818 0.0
C727 C 0.06462 0.04971 0.58677 0.0
C728 C 0.0882 0.0642 0.53633 0.0
C729 C 0.07454 0.96458 0.56952 0.0
C730 C 0.06766 0.93324 0.59178 0.0
C731 C 0.10336 0.94465 0.57784 0.0
C732 C 0.0961 0.96149 0.56773 0.0
C733 C 0.08926 0.93061 0.58982 0.0
C734 C 0.06021 0.95029 0.58164 0.0
C735 C 0.06777 0.983 0.55892 0.0
C736 C 0.04659 0.96271 0.45293 0.0
C737 C 0.06957 0.97215 0.45415 0.0
H738 H 1.00263 0.94736 0.456 0.0
C739 C 0.0318 0.03824 0.49876 0.0
C740 C 1.0094 0.02406 0.54824 0.0
C741 C 0.02509 0.12004 0.51036 0.0
C742 C 0.02773 0.15085 0.48687 0.0
C743 C 0.99206 0.12421 0.48628 0.0
C744 C 1.00214 0.11262 0.50172 0.0
C745 C 1.0047 0.14317 0.47894 0.0
C746 C 0.03795 0.13929 0.50277 0.0
C747 C 0.03481 0.10969 0.5295 0.0
H748 H 0.11996 0.94243 0.57633 0.0
H749 H 0.10749 0.97214 0.55851 0.0
H750 H 0.09513 0.91747 0.59745 0.0
H751 H 0.0435 0.95229 0.58309 0.0
H752 H 0.97428 0.11863 0.48017 0.0
H753 H 0.99178 0.09817 0.5074 0.0
H754 H 0.99644 0.15201 0.46709 0.0
H755 H 0.05561 0.14542 0.50948 0.0
C756 C 0.24559 0.73775 0.80982 0.0
C757 C 0.22028 0.71155 0.7786 0.0
C758 C 0.24042 0.72804 0.78643 0.0
C759 C 0.20548 0.70491 0.79448 0.0
C760 C 0.23071 0.73107 0.82576 0.0
C761 C 0.21067 0.71466 0.81797 0.0
N762 N 0.26507 0.75372 0.81696 0.0
C763 C 0.27108 0.76292 0.83987 0.0
C764 C 0.23647 0.74102 0.84915 0.0
C765 C 0.25679 0.75692 0.85624 0.0
Gd766 Gd 0.29432 0.81813 0.75924 0.0
Gd767 Gd 0.28808 0.76138 0.7882 0.0
N768 N 0.25474 0.73526 0.77123 0.0
C769 C 0.21554 0.70227 0.75499 0.0
C770 C 0.25056 0.72567 0.74843 0.0
C771 C 0.23082 0.70928 0.73988 0.0
H772 H 0.26253 0.73019 0.73691 0.0
H773 H 0.22754 0.70187 0.72168 0.0
H774 H 0.31989 0.85032 0.80962 0.0
H775 H 0.28718 0.77436 0.84576 0.0
H776 H 0.35497 0.87878 0.82435 0.0
H777 H 0.20025 0.68954 0.74831 0.0
H778 H 0.18993 0.69228 0.78877 0.0
H779 H 0.29459 0.80451 0.70144 0.0
H780 H 0.22548 0.73633 0.86192 0.0
H781 H 0.26161 0.76433 0.87438 0.0
H782 H 0.39244 0.88659 0.75698 0.0
H783 H 0.19906 0.70934 0.82999 0.0
H784 H 0.35578 0.84256 0.68423 0.0
H785 H 0.31948 0.81474 0.67229 0.0
N786 N 0.31722 0.82488 0.73008 0.0
C787 C 0.3368 0.84079 0.73691 0.0
C788 C 0.31081 0.81578 0.70715 0.0
C789 C 0.34513 0.83772 0.69726 0.0
C790 C 0.32471 0.82192 0.69046 0.0
C791 C 0.35136 0.84748 0.72066 0.0
H792 H 0.3828 0.86926 0.71586 0.0
N793 N 0.32774 0.84434 0.77549 0.0
C794 C 0.34216 0.85086 0.76016 0.0
C795 C 0.36704 0.87733 0.79108 0.0
C796 C 0.3623 0.86745 0.76765 0.0
C797 C 0.33191 0.8545 0.79807 0.0
C798 C 0.3517 0.8709 0.80632 0.0
O799 O 0.25455 0.77143 0.77876 0.0
O800 O 0.25887 0.79486 0.75032 0.0
O801 O 0.28185 0.84761 0.7702 0.0
O802 O 0.28247 0.83615 0.73321 0.0
O803 O 0.30201 0.76772 0.75517 0.0
O804 O 0.28173 0.78678 0.73441 0.0
O805 O 0.32789 0.80839 0.77086 0.0
O806 O 0.32246 0.78589 0.80011 0.0
O807 O 0.30087 0.73207 0.77588 0.0
O808 O 0.3 0.74249 0.813 0.0
O809 O 0.28085 0.81415 0.793 0.0
O810 O 0.29961 0.79294 0.81315 0.0
C811 C 0.24597 0.78198 0.76272 0.0
C812 C 0.29032 0.76968 0.73585 0.0
C813 C 0.26775 0.86843 0.74072 0.0
C814 C 0.24696 0.89667 0.74767 0.0
C815 C 0.25573 0.88714 0.70887 0.0
C816 C 0.26664 0.87166 0.71711 0.0
C817 C 0.24581 0.89954 0.72404 0.0
C818 C 0.25803 0.88121 0.75609 0.0
C819 C 0.27729 0.85039 0.74841 0.0
C820 C 0.37692 0.87384 0.75154 0.0
C821 C 0.37145 0.86394 0.72812 0.0
H822 H 0.38231 0.89015 0.79749 0.0
C823 C 0.3359 0.79897 0.78838 0.0
C824 C 0.29169 0.81064 0.81218 0.0
C825 C 0.31316 0.7094 0.80502 0.0
C826 C 0.33465 0.68115 0.80071 0.0
C827 C 0.31782 0.68677 0.83586 0.0
C828 C 0.30914 0.70341 0.82704 0.0
C829 C 0.33061 0.67581 0.82288 0.0
C830 C 0.3257 0.69789 0.79155 0.0
C831 C 0.30486 0.72833 0.79741 0.0
H832 H 0.2548 0.88939 0.69065 0.0
H833 H 0.27392 0.86197 0.70486 0.0
H834 H 0.23725 0.91144 0.71739 0.0
H835 H 0.25857 0.87879 0.77429 0.0
H836 H 0.31472 0.68243 0.85289 0.0
H837 H 0.29938 0.71176 0.83766 0.0
H838 H 0.33726 0.66292 0.83011 0.0
H839 H 0.32892 0.70223 0.77453 0.0
C840 C 0.57915 1.00737 0.1023 0.0
C841 C 0.59923 0.04085 0.12873 0.0
C842 C 0.58069 0.02927 0.11194 0.0
C843 C 0.61621 0.03026 0.13524 0.0
C844 C 0.59603 0.99656 0.10904 0.0
C845 C 0.61458 1.00814 0.12549 0.0
N846 N 0.56147 0.99685 0.08578 0.0
C847 C 0.55945 0.97545 0.07549 0.0
C848 C 0.59392 0.9745 0.09876 0.0
C849 C 0.5755 0.96388 0.08197 0.0
Gd850 Gd 0.53689 0.05428 0.01564 0.0
Gd851 Gd 0.53673 0.01797 0.0734 0.0
N852 N 0.5641 0.03919 0.10494 0.0
C853 C 0.60009 0.06267 0.13867 0.0
C854 C 0.56417 0.05985 0.11617 0.0
C855 C 0.58227 0.07204 0.13266 0.0
H856 H 0.55029 0.06717 0.11335 0.0
H857 H 0.5823 0.08858 0.14098 0.0
H858 H 0.522 1.00682 0.97514 0.0
H859 H 0.54551 0.96732 0.06209 0.0
H860 H 0.49114 0.98832 0.94436 0.0
H861 H 0.61407 0.07215 0.15149 0.0
H862 H 0.6306 0.03897 0.14796 0.0
H863 H 0.52798 0.1043 0.03269 0.0
H864 H 0.60649 0.96561 0.10353 0.0
H865 H 0.57381 0.94689 0.0738 0.0
H866 H 0.44497 0.04033 0.94008 0.0
H867 H 0.62778 1.00016 0.13074 0.0
H868 H 0.46861 0.11015 0.99139 0.0
H869 H 0.50051 0.12613 0.02288 0.0
N870 N 0.51175 0.07623 0.00716 0.0
C871 C 0.49462 0.0673 0.9895 0.0
C872 C 0.51404 0.09709 0.01907 0.0
C873 C 0.48064 0.1005 0.99561 0.0
C874 C 0.49858 0.10955 0.01345 0.0
C875 C 0.47844 0.07911 0.98343 0.0
H876 H 0.44789 0.07798 0.96074 0.0
N877 N 0.50869 0.03484 0.98456 0.0
C878 C 0.49294 0.04594 0.97798 0.0
C879 C 0.47419 0.01486 0.94809 0.0
C880 C 0.47508 0.03606 0.95986 0.0
C881 C 0.50862 0.01482 0.97197 0.0
C882 C 0.49122 1.00437 0.95394 0.0
O883 O 0.57038 0.02682 0.06241 0.0
O884 O 0.55811 0.05375 0.04861 0.0
O885 O 0.55925 0.05433 0.99006 0.0
O886 O 0.55424 0.08622 0.00629 0.0
O887 O 0.52737 0.05231 0.07882 0.0
O888 O 0.54233 0.07524 0.05205 0.0
O889 O 0.50292 0.04452 0.02556 0.0
O890 O 0.51866 0.02079 0.0401 0.0
O891 O 0.50941 0.01769 0.09323 0.0
O892 O 0.51729 0.98649 0.08142 0.0
O893 O 0.5465 0.01983 0.00953 0.0
O894 O 0.53477 0.9964 0.03757 0.0
C895 C 0.57391 0.04338 0.05056 0.0
C896 C 0.5324 0.07212 0.07104 0.0
C897 C 0.57879 0.08768 0.97662 0.0
C898 C 0.59998 0.08548 0.94462 0.0
C899 C 0.5962 0.12156 0.9619 0.0
C900 C 0.58333 0.11106 0.97756 0.0
C901 C 0.60447 0.10878 0.94533 0.0
C902 C 0.5873 0.07499 0.96018 0.0
C903 C 0.56357 0.07602 0.99101 0.0
C904 C 0.45884 0.04772 0.95387 0.0
C905 C 0.46053 0.06919 0.9656 0.0
H906 H 0.46075 1.00671 0.93408 0.0
C907 C 0.50133 0.02889 0.03836 0.0
C908 C 0.54288 1.00001 0.01755 0.0
C909 C 0.50262 0.98961 0.11725 0.0
C910 C 0.49043 0.99651 0.15499 0.0
C911 C 0.50554 0.96433 0.14575 0.0
C912 C 0.5086 0.97039 0.12375 0.0
C913 C 0.49662 0.97739 0.1614 0.0
C914 C 0.49322 1.00242 0.13289 0.0
C915 C 0.50541 0.99629 0.09415 0.0
H916 H 0.59946 0.13953 0.96236 0.0
H917 H 0.57656 0.1211 0.98997 0.0
H918 H 0.61405 0.11694 0.9329 0.0
H919 H 0.58358 0.05687 0.95893 0.0
H920 H 0.51004 0.94945 0.15067 0.0
H921 H 0.51557 0.96002 0.11188 0.0
H922 H 0.4942 0.9724 0.17836 0.0
H923 H 0.48821 0.01713 0.12799 0.0
C924 C 0.35175 0.33146 0.32158 0.0
C925 C 0.37309 0.35256 0.29525 0.0
C926 C 0.3533 0.33806 0.29958 0.0
C927 C 0.39161 0.35955 0.31291 0.0
C928 C 0.37021 0.33899 0.3395 0.0
C929 C 0.39021 0.35272 0.33493 0.0
N930 N 0.33181 0.31905 0.32589 0.0
C931 C 0.3291 0.31449 0.34797 0.0
C932 C 0.36777 0.33331 0.36181 0.0
C933 C 0.34709 0.32116 0.36608 0.0
Gd934 Gd 0.27571 0.25159 0.26429 0.0
Gd935 Gd 0.3024 0.31165 0.29461 0.0
N936 N 0.33504 0.33132 0.28282 0.0
C937 C 0.37334 0.36043 0.27363 0.0
C938 C 0.3347 0.3402 0.26248 0.0
C939 C 0.35393 0.35447 0.2573 0.0
H940 H 0.31927 0.33728 0.25081 0.0
H941 H 0.35355 0.3614 0.24105 0.0
H942 H 0.25641 0.23343 0.31219 0.0
H943 H 0.31296 0.30667 0.3522 0.0
H944 H 0.22106 0.21324 0.32308 0.0
H945 H 0.38812 0.37183 0.26977 0.0
H946 H 0.40694 0.3707 0.3099 0.0
H947 H 0.26452 0.25703 0.20687 0.0
H948 H 0.38153 0.33887 0.37604 0.0
H949 H 0.3448 0.31747 0.38351 0.0
H950 H 0.16929 0.19896 0.25238 0.0
H951 H 0.4045 0.35869 0.34853 0.0
H952 H 0.19558 0.22536 0.1841 0.0
H953 H 0.23235 0.24584 0.17581 0.0
N954 N 0.24589 0.24544 0.23361 0.0
C955 C 0.2258 0.23386 0.23849 0.0
C956 C 0.24837 0.24958 0.21134 0.0
C957 C 0.2095 0.23104 0.19816 0.0
C958 C 0.23021 0.24269 0.19343 0.0
C959 C 0.20712 0.22632 0.22081 0.0
H960 H 0.17238 0.20775 0.21262 0.0
N961 N 0.24238 0.23573 0.27787 0.0
C962 C 0.22407 0.2287 0.26109 0.0
C963 C 0.20248 0.21097 0.28898 0.0
C964 C 0.20361 0.21615 0.2663 0.0
C965 C 0.24157 0.22983 0.29967 0.0
C966 C 0.22157 0.21779 0.3057 0.0
O967 O 0.32949 0.29334 0.28452 0.0
O968 O 0.3125 0.26152 0.2581 0.0
O969 O 0.28182 0.22028 0.27339 0.0
O970 O 0.26942 0.22286 0.23777 0.0
O971 O 0.2853 0.30654 0.25683 0.0
O972 O 0.29193 0.27421 0.23995 0.0
O973 O 0.25011 0.27275 0.27256 0.0
O974 O 0.26732 0.29902 0.3043 0.0
O975 O 0.29142 0.33987 0.2833 0.0
O976 O 0.3072 0.34173 0.31907 0.0
O977 O 0.29321 0.25504 0.3019 0.0
O978 O 0.28767 0.28806 0.3187 0.0
C979 C 0.3308 0.2761 0.26941 0.0
C980 C 0.28991 0.29461 0.23877 0.0
C981 C 0.29149 0.19729 0.24278 0.0
C982 C 0.31225 0.16936 0.24866 0.0
C983 C 0.30644 0.18046 0.21035 0.0
C984 C 0.29457 0.19537 0.2191 0.0
C985 C 0.31506 0.16724 0.22502 0.0
C986 C 0.3007 0.18448 0.2575 0.0
C987 C 0.27668 0.21045 0.25176 0.0
C988 C 0.18505 0.20878 0.2487 0.0
C989 C 0.1868 0.21382 0.22605 0.0
H990 H 0.18709 0.2013 0.29362 0.0
C991 C 0.24884 0.28707 0.29086 0.0
C992 C 0.29084 0.2681 0.32044 0.0
C993 C 0.28224 0.36437 0.31227 0.0
C994 C 0.26245 0.3926 0.30542 0.0
C995 C 0.26369 0.37902 0.34278 0.0
C996 C 0.27647 0.36461 0.33496 0.0
C997 C 0.25672 0.39311 0.32804 0.0
C998 C 0.2751 0.37831 0.29758 0.0
C999 C 0.29754 0.35172 0.30401 0.0
H1000 H 0.30849 0.17877 0.19207 0.0
H1001 H 0.28738 0.20491 0.2072 0.0
H1002 H 0.32371 0.15526 0.21795 0.0
H1003 H 0.29787 0.18538 0.27562 0.0
H1004 H 0.2596 0.37961 0.36039 0.0
H1005 H 0.28217 0.35411 0.34676 0.0
H1006 H 0.24743 0.40479 0.33442 0.0
H1007 H 0.28002 0.37864 0.28027 0.0
C1008 C 0.53073 0.5902 0.09669 0.0
C1009 C 0.56592 0.61242 0.11877 0.0
C1010 C 0.55376 0.59824 0.09851 0.0
C1011 C 0.55462 0.61806 0.13728 0.0
C1012 C 0.51932 0.59589 0.11519 0.0
C1013 C 0.53139 0.60978 0.13551 0.0
N1014 N 0.51956 0.57639 0.07705 0.0
C1015 C 0.49692 0.5683 0.07438 0.0
C1016 C 0.49611 0.58725 0.11279 0.0
C1017 C 0.48486 0.57351 0.09222 0.0
Gd1018 Gd 0.56196 0.51008 0.0436 0.0
Gd1019 Gd 0.54138 0.56659 0.04923 0.0
N1020 N 0.56434 0.59162 0.08075 0.0
C1021 C 0.58908 0.62036 0.11988 0.0
C1022 C 0.58671 0.60024 0.08127 0.0
C1023 C 0.59947 0.61447 0.1009 0.0
H1024 H 0.59477 0.5966 0.06651 0.0
H1025 H 0.61729 0.62099 0.10131 0.0
H1026 H 0.50911 0.47906 0.02594 0.0
H1027 H 0.48812 0.55791 0.05843 0.0
H1028 H 0.48773 0.45273 0.99186 0.0
H1029 H 0.59902 0.63127 0.13513 0.0
H1030 H 0.5637 0.62878 0.15305 0.0
H1031 H 0.61537 0.52238 0.03359 0.0
H1032 H 0.48674 0.59115 0.12664 0.0
H1033 H 0.4669 0.5669 0.09012 0.0
H1034 H 0.54242 0.44563 0.94134 0.0
H1035 H 0.52293 0.61422 0.14996 0.0
H1036 H 0.61827 0.48717 0.96695 0.0
H1037 H 0.63715 0.51334 1.00258 0.0
N1038 N 0.58428 0.50261 0.01523 0.0
C1039 C 0.57363 0.48783 0.99603 0.0
C1040 C 0.60682 0.5116 0.0178 0.0
C1041 C 0.60856 0.49137 0.98037 0.0
C1042 C 0.61927 0.50621 1.00041 0.0
C1043 C 0.5855 0.4819 0.97801 0.0
H1044 H 0.58289 0.46193 0.94431 0.0
N1045 N 0.5397 0.4849 0.01191 0.0
C1046 C 0.55074 0.47862 0.99436 0.0
C1047 C 0.51625 0.45415 0.97364 0.0
C1048 C 0.53923 0.46327 0.97463 0.0
C1049 C 0.51751 0.47536 0.01143 0.0
C1050 C 0.5054 0.46009 0.99221 0.0
O1051 O 0.54996 0.5533 0.08372 0.0
O1052 O 0.57731 0.53576 0.07534 0.0
O1053 O 0.55235 0.48219 0.06381 0.0
O1054 O 0.58576 0.49141 0.0534 0.0
O1055 O 0.57194 0.56474 0.03201 0.0
O1056 O 0.58936 0.54197 0.05145 0.0
O1057 O 0.55246 0.52313 0.00944 0.0
O1058 O 0.52481 0.53984 0.0187 0.0
O1059 O 0.55331 0.59478 0.03041 0.0
O1060 O 0.51817 0.58378 0.03392 0.0
O1061 O 0.52966 0.50913 0.05927 0.0
O1062 O 0.51351 0.53509 0.04318 0.0
C1063 C 0.5663 0.54408 0.09062 0.0
C1064 C 0.59016 0.55902 0.03984 0.0
C1065 C 0.57986 0.46129 0.07635 0.0
C1066 C 0.57287 0.42903 0.09711 0.0
C1067 C 0.61072 0.44635 0.09133 0.0
C1068 C 0.60283 0.46193 0.07953 0.0
C1069 C 0.59584 0.42997 0.10009 0.0
C1070 C 0.56479 0.44472 0.08525 0.0
C1071 C 0.57228 0.47851 0.06447 0.0
C1072 C 0.55099 0.4574 0.95662 0.0
C1073 C 0.57405 0.46668 0.95831 0.0
H1074 H 0.50683 0.44226 0.9588 0.0
C1075 C 0.53517 0.53114 1.00304 0.0
C1076 C 0.51207 0.51694 0.05329 0.0
C1077 C 0.5301 0.62045 0.02399 0.0
C1078 C 0.53306 0.65263 1.00265 0.0
C1079 C 0.50875 0.6479 0.03259 0.0
C1080 C 0.51501 0.62838 0.03694 0.0
C1081 C 0.51752 0.65982 0.01545 0.0
C1082 C 0.53945 0.6329 0.00702 0.0
C1083 C 0.53325 0.59769 0.02536 0.0
H1084 H 0.62842 0.44697 0.09368 0.0
H1085 H 0.61482 0.4746 0.07304 0.0
H1086 H 0.60222 0.41785 0.10909 0.0
H1087 H 0.54703 0.44394 0.08292 0.0
H1088 H 0.49675 0.65362 0.0423 0.0
H1089 H 0.50745 0.6191 0.0499 0.0
H1090 H 0.51223 0.67482 0.0122 0.0
H1091 H 0.5509 0.62684 0.9967 0.0
C1092 C 0.74746 0.23239 0.31851 0.0
C1093 C 0.72466 0.20449 0.28693 0.0
C1094 C 0.74408 0.22172 0.29545 0.0
C1095 C 0.70862 0.19822 0.30168 0.0
C1096 C 0.73148 0.22582 0.3334 0.0
C1097 C 0.71203 0.20881 0.32483 0.0
N1098 N 0.7663 0.24909 0.32637 0.0
C1099 C 0.77065 0.25906 0.34909 0.0
C1100 C 0.73556 0.23645 0.35655 0.0
C1101 C 0.75529 0.25301 0.36445 0.0
Gd1102 Gd 0.79669 0.31457 0.2698 0.0
Gd1103 Gd 0.79093 0.25648 0.29906 0.0
N1104 N 0.75966 0.22836 0.28131 0.0
C1105 C 0.72206 0.1939 0.26387 0.0
C1106 C 0.75797 0.21709 0.25946 0.0
C1107 C 0.73895 0.20003 0.25018 0.0
H1108 H 0.77161 0.22061 0.24954 0.0
H1109 H 0.73753 0.19134 0.23265 0.0
H1110 H 0.81885 0.35129 0.31754 0.0
H1111 H 0.78614 0.27133 0.35572 0.0
H1112 H 0.8533 0.3814 0.33136 0.0
H1113 H 0.70738 0.18059 0.25668 0.0
H1114 H 0.69358 0.18506 0.29542 0.0
H1115 H 0.79869 0.29635 0.21262 0.0
H1116 H 0.72373 0.23179 0.36855 0.0
H1117 H 0.75878 0.26098 0.38245 0.0
H1118 H 0.89403 0.38292 0.26593 0.0
H1119 H 0.69956 0.20362 0.33603 0.0
H1120 H 0.86097 0.33224 0.196 0.0
H1121 H 0.82509 0.30375 0.18453 0.0
N1122 N 0.82014 0.31897 0.24087 0.0
C1123 C 0.83941 0.33544 0.24729 0.0
C1124 C 0.81466 0.30807 0.21846 0.0
C1125 C 0.84965 0.32872 0.20873 0.0
C1126 C 0.82945 0.31254 0.20221 0.0
C1127 C 0.85474 0.3406 0.23137 0.0
H1128 H 0.88642 0.36176 0.22634 0.0
N1129 N 0.82886 0.34233 0.28499 0.0
C1130 C 0.84377 0.34758 0.26979 0.0
C1131 C 0.86701 0.37687 0.29924 0.0
C1132 C 0.86344 0.36485 0.2767 0.0
C1133 C 0.83172 0.35452 0.30655 0.0
C1134 C 0.85098 0.37181 0.31415 0.0
O1135 O 0.75692 0.26521 0.28799 0.0
O1136 O 0.76071 0.29251 0.26312 0.0
O1137 O 0.78314 0.34335 0.28113 0.0
O1138 O 0.78514 0.33285 0.24416 0.0
O1139 O 0.80303 0.26582 0.26624 0.0
O1140 O 0.78254 0.28376 0.24497 0.0
O1141 O 0.83073 0.30616 0.2828 0.0
O1142 O 0.82608 0.27951 0.30838 0.0
O1143 O 0.80566 0.22881 0.28675 0.0
O1144 O 0.80249 0.23727 0.32378 0.0
O1145 O 0.78453 0.30654 0.30302 0.0
O1146 O 0.80334 0.28743 0.32495 0.0
C1147 C 0.74818 0.27717 0.27351 0.0
C1148 C 0.78943 0.26592 0.24765 0.0
C1149 C 0.76828 0.36359 0.25133 0.0
C1150 C 0.74792 0.39214 0.25869 0.0
C1151 C 0.7512 0.37839 0.21892 0.0
C1152 C 0.76361 0.3641 0.22718 0.0
C1153 C 0.74323 0.39226 0.23457 0.0
C1154 C 0.76064 0.37796 0.26715 0.0
C1155 C 0.7788 0.34629 0.25934 0.0
C1156 C 0.8788 0.36971 0.26091 0.0
C1157 C 0.87447 0.35763 0.23836 0.0
H1158 H 0.88189 0.39033 0.30515 0.0
C1159 C 0.83902 0.2945 0.29806 0.0
C1160 C 0.79753 0.3059 0.32189 0.0
C1161 C 0.82001 0.20712 0.31539 0.0
C1162 C 0.83939 0.17782 0.30715 0.0
C1163 C 0.83593 0.19067 0.34714 0.0
C1164 C 0.82427 0.20572 0.33938 0.0
C1165 C 0.84355 0.17685 0.33116 0.0
C1166 C 0.82745 0.19287 0.29914 0.0
C1167 C 0.80933 0.22466 0.30819 0.0
H1168 H 0.74754 0.37854 0.20032 0.0
H1169 H 0.7691 0.35308 0.21455 0.0
H1170 H 0.73351 0.40324 0.22789 0.0
H1171 H 0.76393 0.37767 0.28579 0.0
H1172 H 0.83925 0.18985 0.36564 0.0
H1173 H 0.8189 0.21655 0.35231 0.0
H1174 H 0.85271 0.16528 0.33752 0.0
H1175 H 0.82446 0.19379 0.2806 0.0
C1176 C 0.07953 0.51765 0.6106 0.0
C1177 C 0.09827 0.54989 0.63911 0.0
C1178 C 0.08003 0.53851 0.62202 0.0
C1179 C 0.11663 0.54046 0.64334 0.0
C1180 C 0.09718 0.50739 0.61575 0.0
C1181 C 0.11604 0.51917 0.63173 0.0
N1182 N 0.06133 0.50712 0.59485 0.0
C1183 C 0.05886 0.4856 0.58476 0.0
C1184 C 0.09513 0.48553 0.60489 0.0
C1185 C 0.07567 0.47444 0.58964 0.0
Gd1186 Gd 0.03644 0.5637 0.52209 0.0
Gd1187 Gd 0.03651 0.52864 0.58353 0.0
N1188 N 0.06198 0.547 0.6173 0.0
C1189 C 0.09711 0.56999 0.65191 0.0
C1190 C 0.05974 0.56521 0.6315 0.0
C1191 C 0.07747 0.57731 0.64857 0.0
H1192 H 0.04435 0.57051 0.62992 0.0
H1193 H 0.0759 0.5922 0.65923 0.0
H1194 H 0.01704 0.51291 0.48691 0.0
H1195 H 0.04398 0.47709 0.57286 0.0
H1196 H 0.98578 0.49446 0.45668 0.0
H1197 H 0.1108 0.57936 0.66513 0.0
H1198 H 0.13101 0.54914 0.65607 0.0
H1199 H 0.03155 0.61619 0.53411 0.0
H1200 H 0.10824 0.47696 0.60846 0.0
H1201 H 0.0737 0.45739 0.58147 0.0
H1202 H 0.94671 0.55113 0.44368 0.0
H1203 H 0.13 0.51178 0.63562 0.0
H1204 H 0.97426 0.62327 0.49009 0.0
H1205 H 1.00608 0.63925 0.52162 0.0
N1206 N 1.01459 0.58756 0.50954 0.0
C1207 C 0.9975 0.5786 0.49182 0.0
C1208 C 0.01785 0.60909 0.52013 0.0
C1209 C 0.98557 0.61316 0.49525 0.0
C1210 C 1.00348 0.62222 0.5131 0.0
C1211 C 0.98233 0.59109 0.48442 0.0
H1212 H 0.95223 0.59035 0.46116 0.0
N1213 N 1.00882 0.54458 0.49016 0.0
C1214 C 0.99456 0.55652 0.48174 0.0
C1215 C 0.97299 0.52378 0.45527 0.0
C1216 C 0.97612 0.54633 0.46431 0.0
C1217 C 1.00596 0.52263 0.48094 0.0
C1218 C 0.98806 0.51194 0.46355 0.0
O1219 O 0.06954 0.5385 0.5714 0.0
O1220 O 0.05808 0.56602 0.55613 0.0
O1221 O 0.06185 0.5616 0.49998 0.0
O1222 O 0.05765 0.59402 0.51414 0.0
O1223 O 0.03171 0.56464 0.58955 0.0
O1224 O 0.03376 0.58441 0.55672 0.0
O1225 O 1.00113 0.54896 0.52672 0.0
O1226 O 0.02251 0.53877 0.5524 0.0
O1227 O 1.00816 0.52861 0.60176 0.0
O1228 O 1.01441 0.49713 0.58785 0.0
O1229 O 0.04485 0.52898 0.51863 0.0
O1230 O 0.03396 0.50692 0.54816 0.0
C1231 C 0.07324 0.55485 0.55903 0.0
C1232 C 0.03112 0.58263 0.57898 0.0
C1233 C 0.07273 0.59166 0.47867 0.0
C1234 C 0.08767 0.5874 0.44229 0.0
C1235 C 0.07682 0.62152 0.45462 0.0
C1236 C 0.07054 0.61309 0.47475 0.0
C1237 C 0.0853 0.60869 0.43835 0.0
C1238 C 0.08152 0.57896 0.4624 0.0
C1239 C 0.06813 0.58326 0.50057 0.0
C1240 C 0.96102 0.55874 0.45692 0.0
C1241 C 0.96415 0.58107 0.46689 0.0
H1242 H 0.95895 0.51533 0.44202 0.0
C1243 C 1.00229 0.53841 0.54426 0.0
C1244 C 0.0409 0.50966 0.5275 0.0
C1245 C 0.99891 0.49874 0.62312 0.0
C1246 C 0.98779 0.50467 0.6614 0.0
C1247 C 0.99963 0.47105 0.64936 0.0
C1248 C 1.00299 0.47818 0.62784 0.0
C1249 C 0.99223 0.48434 0.66621 0.0
C1250 C 0.99091 0.51172 0.63988 0.0
C1251 C 1.00279 0.50693 0.60093 0.0
H1252 H 0.07534 0.6381 0.45174 0.0
H1253 H 0.06434 0.62348 0.48736 0.0
H1254 H 0.09037 0.61549 0.42289 0.0
H1255 H 0.08382 0.56263 0.46542 0.0
H1256 H 1.00275 0.45521 0.65296 0.0
H1257 H 1.00882 0.46766 0.61502 0.0
H1258 H 0.98956 0.47861 0.68281 0.0
H1259 H 0.98725 0.52743 0.63636 0.0
C1260 C 0.74033 0.80466 0.24127 0.0
C1261 C 0.71316 0.77096 0.22151 0.0
C1262 C 0.72952 0.78221 0.24055 0.0
C1263 C 0.70809 0.78244 0.20298 0.0
C1264 C 0.7347 0.81638 0.22297 0.0
C1265 C 0.7188 0.80508 0.20372 0.0
N1266 N 0.75538 0.81533 0.26033 0.0
C1267 C 0.76399 0.838 0.26288 0.0
C1268 C 0.74469 0.8393 0.22486 0.0
C1269 C 0.75918 0.85019 0.24503 0.0
Gd1270 Gd 0.82058 0.77646 0.29585 0.0
Gd1271 Gd 0.76084 0.79306 0.28959 0.0
N1272 N 0.73483 0.77139 0.25862 0.0
C1273 C 0.70227 0.74852 0.22176 0.0
C1274 C 0.72347 0.74993 0.25959 0.0
C1275 C 0.70736 0.73801 0.24096 0.0
H1276 H 0.727 0.74204 0.27469 0.0
H1277 H 0.69874 0.72081 0.24149 0.0
H1278 H 0.85197 0.82944 0.31084 0.0
H1279 H 0.77396 0.84707 0.27893 0.0
H1280 H 0.88053 0.85121 0.34315 0.0
H1281 H 0.68971 0.73928 0.20738 0.0
H1282 H 0.69565 0.77405 0.18814 0.0
H1283 H 0.80731 0.72358 0.30846 0.0
H1284 H 0.74074 0.84889 0.21122 0.0
H1285 H 0.76627 0.86809 0.24709 0.0
H1286 H 0.88828 0.79839 0.3958 0.0
H1287 H 0.71436 0.81383 0.18949 0.0
H1288 H 0.84386 0.72302 0.37499 0.0
H1289 H 0.8167 0.70316 0.34046 0.0
N1290 N 0.82729 0.75522 0.32547 0.0
C1291 C 0.84308 0.76628 0.34377 0.0
C1292 C 0.81832 0.73273 0.32384 0.0
C1293 C 0.83941 0.73222 0.36118 0.0
C1294 C 0.82398 0.72097 0.34178 0.0
C1295 C 0.84938 0.75507 0.36225 0.0
H1296 H 0.87052 0.75854 0.3954 0.0
N1297 N 0.84655 0.79951 0.32617 0.0
C1298 C 0.85319 0.7889 0.34397 0.0
C1299 C 0.87957 0.82333 0.36233 0.0
C1300 C 0.86977 0.80064 0.36266 0.0
C1301 C 0.85636 0.82147 0.32554 0.0
C1302 C 0.87286 0.83375 0.34367 0.0
O1303 O 0.76789 0.7704 0.25847 0.0
O1304 O 0.80584 0.78232 0.26039 0.0
O1305 O 0.85401 0.78429 0.28624 0.0
O1306 O 0.83339 0.74961 0.27912 0.0
O1307 O 0.76614 0.76406 0.30759 0.0
O1308 O 0.7894 0.74787 0.28747 0.0
O1309 O 0.80763 0.78712 0.32982 0.0
O1310 O 0.78565 0.81136 0.32095 0.0
O1311 O 0.73512 0.78277 0.31302 0.0
O1312 O 0.73753 0.81259 0.29591 0.0
O1313 O 0.81947 0.80756 0.27971 0.0
O1314 O 0.79215 0.82194 0.29535 0.0
C1315 C 0.78618 0.77218 0.24848 0.0
C1316 C 0.77147 0.74622 0.29794 0.0
C1317 C 0.87057 0.75669 0.26706 0.0
C1318 C 0.90194 0.7643 0.24496 0.0
C1319 C 0.88877 0.72728 0.25567 0.0
C1320 C 0.87239 0.73452 0.26674 0.0
C1321 C 0.90334 0.74201 0.24468 0.0
C1322 C 0.88569 0.77177 0.25644 0.0
C1323 C 0.85231 0.76358 0.27761 0.0
C1324 C 0.87576 0.78956 0.38121 0.0
C1325 C 0.86559 0.76687 0.38101 0.0
H1326 H 0.89229 0.83294 0.37639 0.0
C1327 C 0.79696 0.80251 0.33618 0.0
C1328 C 0.81072 0.82433 0.28583 0.0
C1329 C 0.7099 0.80803 0.32174 0.0
C1330 C 0.67812 0.8029 0.34391 0.0
C1331 C 0.6929 0.83892 0.33173 0.0
C1332 C 0.70893 0.83048 0.32138 0.0
C1333 C 0.67762 0.82528 0.34287 0.0
C1334 C 0.6943 0.79409 0.33318 0.0
C1335 C 0.72721 0.8001 0.30971 0.0
H1336 H 0.89006 0.71015 0.25544 0.0
H1337 H 0.86107 0.72275 0.27497 0.0
H1338 H 0.91584 0.73603 0.23597 0.0
H1339 H 0.88446 0.78895 0.25654 0.0
H1340 H 0.69234 0.85618 0.33116 0.0
H1341 H 0.7206 0.84172 0.31297 0.0
H1342 H 0.66534 0.83229 0.35089 0.0
H1343 H 0.69479 0.77681 0.33383 0.0
C1344 C 0.82704 0.25521 0.73131 0.0
C1345 C 0.79419 0.23626 0.7034 0.0
C1346 C 0.80563 0.25445 0.72061 0.0
C1347 C 0.80434 0.21874 0.69754 0.0
C1348 C 0.8374 0.2378 0.72526 0.0
C1349 C 0.82591 0.21955 0.70837 0.0
N1350 N 0.83692 0.27206 0.74908 0.0
C1351 C 0.85763 0.2732 0.76059 0.0
C1352 C 0.85868 0.23888 0.73699 0.0
C1353 C 0.86892 0.25678 0.75457 0.0
Gd1354 Gd 0.77763 0.29205 0.81914 0.0
Gd1355 Gd 0.8155 0.29671 0.76119 0.0
N1356 N 0.79571 0.27104 0.72776 0.0
C1357 C 0.77282 0.23613 0.6927 0.0
C1358 C 0.77579 0.27195 0.71565 0.0
C1359 C 0.76384 0.25433 0.69844 0.0
H1360 H 0.76894 0.28625 0.71856 0.0
H1361 H 0.74775 0.2549 0.6895 0.0
H1362 H 0.82567 0.30655 0.86003 0.0
H1363 H 0.86533 0.28666 0.77466 0.0
H1364 H 0.84535 0.33859 0.8888 0.0
H1365 H 0.76342 0.2224 0.67954 0.0
H1366 H 0.79565 0.20448 0.68464 0.0
H1367 H 0.72706 0.29996 0.80477 0.0
H1368 H 0.86723 0.22587 0.7328 0.0
H1369 H 0.88533 0.25769 0.7638 0.0
H1370 H 0.7936 0.38488 0.89413 0.0
H1371 H 0.83347 0.20585 0.70375 0.0
H1372 H 0.72209 0.35982 0.84607 0.0
H1373 H 0.70534 0.3274 0.81532 0.0
N1374 N 0.75534 0.31611 0.83006 0.0
C1375 C 0.76468 0.33349 0.84732 0.0
C1376 C 0.73432 0.31377 0.81859 0.0
C1377 C 0.73151 0.34757 0.84184 0.0
C1378 C 0.72201 0.32932 0.82445 0.0
C1379 C 0.75316 0.34994 0.85339 0.0
H1380 H 0.75526 0.38137 0.87508 0.0
N1381 N 0.79699 0.31927 0.85145 0.0
C1382 C 0.78628 0.33534 0.85807 0.0
C1383 C 0.81859 0.35527 0.88592 0.0
C1384 C 0.7969 0.35388 0.87523 0.0
C1385 C 0.81761 0.31992 0.86311 0.0
C1386 C 0.82883 0.33803 0.88009 0.0
O1387 O 0.80594 0.26112 0.76748 0.0
O1388 O 0.78656 0.27833 0.78698 0.0
O1389 O 0.77677 0.26461 0.83892 0.0
O1390 O 0.74571 0.27153 0.82466 0.0
O1391 O 0.7801 0.3041 0.7562 0.0
O1392 O 0.75694 0.28813 0.78275 0.0
O1393 O 0.78525 0.32604 0.80895 0.0
O1394 O 0.81343 0.31554 0.79531 0.0
O1395 O 0.816 0.32467 0.74216 0.0
O1396 O 0.84692 0.31569 0.75272 0.0
O1397 O 0.81272 0.28398 0.82483 0.0
O1398 O 0.83606 0.29846 0.79761 0.0
C1399 C 0.79134 0.25956 0.78129 0.0
C1400 C 0.76025 0.29804 0.76377 0.0
C1401 C 0.74787 0.25902 0.86149 0.0
C1402 C 0.7516 0.24456 0.89808 0.0
C1403 C 0.72799 0.27019 0.89259 0.0
C1404 C 0.73339 0.27143 0.87001 0.0
C1405 C 0.73717 0.25683 0.90672 0.0
C1406 C 0.75673 0.24552 0.87557 0.0
C1407 C 0.7552 0.26045 0.83865 0.0
C1408 C 0.7856 0.37046 0.88115 0.0
C1409 C 0.76375 0.36844 0.87034 0.0
H1410 H 0.82738 0.36931 0.89903 0.0
C1411 C 0.8019 0.33045 0.79732 0.0
C1412 C 0.83261 0.28917 0.81705 0.0
C1413 C 0.84299 0.33012 0.7169 0.0
C1414 C 0.83562 0.34299 0.67973 0.0
C1415 C 0.86516 0.32379 0.68615 0.0
C1416 C 0.8603 0.32159 0.70874 0.0
C1417 C 0.85277 0.33433 0.67159 0.0
C1418 C 0.83093 0.34109 0.70236 0.0
C1419 C 0.8372 0.32791 0.7404 0.0
H1420 H 0.71675 0.27962 0.89915 0.0
H1421 H 0.72642 0.28213 0.8594 0.0
H1422 H 0.73287 0.25585 0.92416 0.0
H1423 H 0.76792 0.23588 0.8691 0.0
H1424 H 0.87856 0.31734 0.67993 0.0
H1425 H 0.87003 0.31325 0.71972 0.0
H1426 H 0.85677 0.33609 0.65414 0.0
H1427 H 0.81776 0.34806 0.70853 0.0
C1428 C 0.84803 0.83877 0.82739 0.0
C1429 C 0.86776 0.85911 0.79959 0.0
C1430 C 0.84835 0.84491 0.80513 0.0
C1431 C 0.88689 0.86663 0.81648 0.0
C1432 C 0.8671 0.84672 0.84451 0.0
C1433 C 0.88655 0.8605 0.83888 0.0
N1434 N 0.82883 0.82578 0.83257 0.0
C1435 C 0.82747 0.8206 0.85463 0.0
C1436 C 0.8659 0.84106 0.86702 0.0
C1437 C 0.84597 0.82802 0.8721 0.0
Gd1438 Gd 0.7737 0.75808 0.77105 0.0
Gd1439 Gd 0.79812 0.81677 0.80272 0.0
N1440 N 0.82941 0.83785 0.78926 0.0
C1441 C 0.86713 0.866 0.7775 0.0
C1442 C 0.82825 0.84596 0.76847 0.0
C1443 C 0.84718 0.85961 0.76198 0.0
H1444 H 0.81259 0.84297 0.75729 0.0
H1445 H 0.84617 0.86574 0.7453 0.0
H1446 H 0.75486 0.73751 0.81823 0.0
H1447 H 0.81191 0.81164 0.85922 0.0
H1448 H 0.72009 0.71557 0.82857 0.0
H1449 H 0.88166 0.87695 0.77262 0.0
H1450 H 0.90191 0.87761 0.81254 0.0
H1451 H 0.76223 0.76428 0.71417 0.0
H1452 H 0.88013 0.84703 0.8807 0.0
H1453 H 0.8447 0.82404 0.88961 0.0
H1454 H 0.6686 0.70028 0.75755 0.0
H1455 H 0.90131 0.86682 0.85185 0.0
H1456 H 0.69432 0.72914 0.69005 0.0
H1457 H 0.73045 0.75193 0.6826 0.0
N1458 N 0.74396 0.75032 0.74013 0.0
C1459 C 0.72423 0.73767 0.74458 0.0
C1460 C 0.74632 0.75544 0.71817 0.0
C1461 C 0.70806 0.73511 0.70427 0.0
C1462 C 0.7284 0.74804 0.70001 0.0
C1463 C 0.70577 0.7297 0.7267 0.0
H1464 H 0.6715 0.70986 0.71801 0.0
N1465 N 0.74077 0.73959 0.78383 0.0
C1466 C 0.7226 0.73214 0.76698 0.0
C1467 C 0.7015 0.71305 0.79443 0.0
C1468 C 0.70246 0.71867 0.77189 0.0
C1469 C 0.74013 0.73334 0.80552 0.0
C1470 C 0.72045 0.72037 0.81128 0.0
O1471 O 0.82601 0.79824 0.7954 0.0
O1472 O 0.80972 0.77193 0.76351 0.0
O1473 O 0.78339 0.72836 0.77993 0.0
O1474 O 0.77188 0.73093 0.74338 0.0
O1475 O 0.78098 0.81327 0.76499 0.0
O1476 O 0.78943 0.78211 0.74804 0.0
O1477 O 0.74637 0.77762 0.77896 0.0
O1478 O 0.76351 0.80139 0.81212 0.0
O1479 O 0.78479 0.8446 0.79417 0.0
O1480 O 0.79936 0.84368 0.8303 0.0
O1481 O 0.79071 0.76016 0.80867 0.0
O1482 O 0.78432 0.79235 0.82609 0.0
C1483 C 0.82794 0.78393 0.77742 0.0
C1484 C 0.78539 0.80167 0.74658 0.0
C1485 C 0.78268 0.69709 0.75064 0.0
C1486 C 0.80121 0.6681 0.75887 0.0
C1487 C 0.78287 0.66741 0.71973 0.0
C1488 C 0.77657 0.68697 0.72722 0.0
C1489 C 0.79545 0.6581 0.73547 0.0
C1490 C 0.79455 0.68729 0.76648 0.0
C1491 C 0.77943 0.71921 0.75805 0.0
C1492 C 0.68411 0.7108 0.75411 0.0
C1493 C 0.68577 0.71626 0.73159 0.0
H1494 H 0.68636 0.70269 0.79886 0.0
C1495 C 0.74496 0.79103 0.79796 0.0
C1496 C 0.78834 0.77275 0.82753 0.0
C1497 C 0.78426 0.87517 0.82366 0.0
C1498 C 0.76711 0.90458 0.81389 0.0
C1499 C 0.77752 0.90146 0.85451 0.0
C1500 C 0.78554 0.88285 0.84755 0.0
C1501 C 0.76808 0.91223 0.8377 0.0
C1502 C 0.77547 0.88637 0.80694 0.0
C1503 C 0.78927 0.85401 0.81598 0.0
H1504 H 0.7784 0.65975 0.70165 0.0
H1505 H 0.7675 0.69446 0.71464 0.0
H1506 H 0.80071 0.64319 0.72946 0.0
H1507 H 0.79968 0.69515 0.78452 0.0
H1508 H 0.77827 0.90728 0.87288 0.0
H1509 H 0.79207 0.87412 0.86076 0.0
H1510 H 0.76169 0.92654 0.84321 0.0
H1511 H 0.77425 0.88043 0.78845 0.0
C1512 C 0.50031 0.48191 0.51491 0.0
C1513 C 0.48255 0.46069 0.54334 0.0
C1514 C 0.49621 0.48044 0.53778 0.0
C1515 C 0.47376 0.44221 0.52586 0.0
C1516 C 0.49077 0.46357 0.49718 0.0
C1517 C 0.47787 0.44363 0.50287 0.0
N1518 N 0.51191 0.50181 0.50965 0.0
C1519 C 0.51353 0.50465 0.48692 0.0
C1520 C 0.4935 0.46613 0.47404 0.0
C1521 C 0.50473 0.48683 0.46888 0.0
Gd1522 Gd 0.58325 0.55929 0.57128 0.0
Gd1523 Gd 0.52269 0.5314 0.54098 0.0
N1524 N 0.50461 0.4987 0.55438 0.0
C1525 C 0.47743 0.46036 0.56613 0.0
C1526 C 0.49836 0.4989 0.5761 0.0
C1527 C 0.48517 0.47967 0.58251 0.0
H1528 H 0.50265 0.51407 0.5882 0.0
H1529 H 0.48045 0.47996 0.59986 0.0
H1530 H 0.59737 0.58126 0.5228 0.0
H1531 H 0.52031 0.52092 0.48243 0.0
H1532 H 0.61766 0.61729 0.51337 0.0
H1533 H 0.46688 0.44558 0.57102 0.0
H1534 H 0.46325 0.42692 0.52983 0.0
H1535 H 0.57614 0.569 0.62863 0.0
H1536 H 0.48624 0.45251 0.45994 0.0
H1537 H 0.50598 0.4893 0.45092 0.0
H1538 H 0.6349 0.66595 0.58644 0.0
H1539 H 0.47042 0.42943 0.48945 0.0
H1540 H 0.60843 0.63731 0.65359 0.0
H1541 H 0.58728 0.60028 0.66053 0.0
N1542 N 0.58783 0.58843 0.60249 0.0
C1543 C 0.5995 0.60877 0.59829 0.0
C1544 C 0.58347 0.58534 0.62459 0.0
C1545 C 0.60253 0.62383 0.63909 0.0
C1546 C 0.59049 0.60299 0.64305 0.0
C1547 C 0.60731 0.62692 0.6166 0.0
H1548 H 0.62656 0.66136 0.62608 0.0
N1549 N 0.59739 0.5935 0.55839 0.0
C1550 C 0.60447 0.61133 0.57577 0.0
C1551 C 0.62157 0.63424 0.54851 0.0
C1552 C 0.61698 0.63212 0.57125 0.0
C1553 C 0.6021 0.59545 0.53628 0.0
C1554 C 0.61394 0.61588 0.53094 0.0
O1555 O 0.53966 0.5049 0.55497 0.0
O1556 O 0.57647 0.52113 0.57142 0.0
O1557 O 0.61711 0.55962 0.56481 0.0
O1558 O 0.60947 0.56308 0.60014 0.0
O1559 O 0.52881 0.55067 0.57768 0.0
O1560 O 0.55991 0.54226 0.59458 0.0
O1561 O 0.56043 0.58325 0.5628 0.0
O1562 O 0.53703 0.56541 0.52935 0.0
O1563 O 0.49663 0.54584 0.55344 0.0
O1564 O 0.49103 0.5258 0.51923 0.0
O1565 O 0.58188 0.54352 0.53338 0.0
O1566 O 0.54644 0.54215 0.51504 0.0
C1567 C 0.55938 0.50327 0.56508 0.0
C1568 C 0.54008 0.5458 0.59599 0.0
C1569 C 0.63941 0.54715 0.59404 0.0
C1570 C 0.66499 0.52456 0.58454 0.0
C1571 C 0.6599 0.53321 0.62481 0.0
C1572 C 0.6447 0.54548 0.61784 0.0
C1573 C 0.6701 0.52275 0.60819 0.0
C1574 C 0.64971 0.53665 0.57745 0.0
C1575 C 0.62463 0.5613 0.58696 0.0
C1576 C 0.62492 0.65002 0.58955 0.0
C1577 C 0.62014 0.64741 0.61213 0.0
H1578 H 0.63118 0.64992 0.5444 0.0
C1579 C 0.54774 0.58417 0.54316 0.0
C1580 C 0.56765 0.5423 0.51427 0.0
C1581 C 0.46865 0.55115 0.5248 0.0
C1582 C 0.44016 0.57086 0.53135 0.0
C1583 C 0.44773 0.56175 0.49195 0.0
C1584 C 0.46425 0.55169 0.50064 0.0
C1585 C 0.43561 0.57125 0.50724 0.0
C1586 C 0.45667 0.56089 0.54004 0.0
C1587 C 0.48281 0.53754 0.53419 0.0
H1588 H 0.66405 0.53212 0.64314 0.0
H1589 H 0.63736 0.55391 0.63108 0.0
H1590 H 0.68227 0.51368 0.61376 0.0
H1591 H 0.64634 0.53825 0.55911 0.0
H1592 H 0.44395 0.5617 0.47334 0.0
H1593 H 0.47299 0.54376 0.48842 0.0
H1594 H 0.42229 0.57833 0.50022 0.0
H1595 H 0.4596 0.56 0.55862 0.0
C1596 C 0.0976 0.58912 0.02686 0.0
C1597 C 0.12556 0.61238 0.05822 0.0
C1598 C 0.10865 0.59265 0.04984 0.0
C1599 C 0.13136 0.62844 0.04337 0.0
C1600 C 0.10384 0.60514 0.01189 0.0
C1601 C 0.12063 0.62479 0.02029 0.0
N1602 N 0.08098 0.57013 0.01913 0.0
C1603 C 0.07121 0.56551 0.9963 0.0
C1604 C 0.09318 0.60087 0.98876 0.0
C1605 C 0.07699 0.58089 0.9809 0.0
Gd1606 Gd 1.01372 0.53953 0.07519 0.0
Gd1607 Gd 0.07438 0.5457 0.04684 0.0
N1608 N 0.10243 0.57712 0.0642 0.0
C1609 C 0.13611 0.61542 0.08134 0.0
C1610 C 0.1137 0.57926 0.08612 0.0
C1611 C 0.13033 0.59866 0.09526 0.0
H1612 H 0.11048 0.56576 0.09621 0.0
H1613 H 0.13895 0.60048 0.11287 0.0
H1614 H 0.97637 0.51826 0.0277 0.0
H1615 H 0.05937 0.54979 0.98951 0.0
H1616 H 0.94574 0.48415 0.01401 0.0
H1617 H 0.14907 0.63042 0.08844 0.0
H1618 H 0.14426 0.64372 0.04954 0.0
H1619 H 0.0322 0.53671 0.13265 0.0
H1620 H 0.09762 0.61271 0.9767 0.0
H1621 H 0.06912 0.5772 0.96286 0.0
H1622 H 0.94488 0.44237 0.07857 0.0
H1623 H 0.1255 0.63729 0.00901 0.0
H1624 H 0.99609 0.47421 0.14824 0.0
H1625 H 0.0246 0.50999 0.16014 0.0
N1626 N 1.00989 0.51554 0.10382 0.0
C1627 C 0.99315 0.49643 0.09727 0.0
C1628 C 0.02059 0.52077 0.12636 0.0
C1629 C 0.99976 0.48566 0.13564 0.0
C1630 C 0.01596 0.50579 0.14239 0.0
C1631 C 0.9879 0.4809 0.11301 0.0
H1632 H 0.96648 0.44927 0.11785 0.0
N1633 N 0.98545 0.50782 0.06004 0.0
C1634 C 0.98052 0.49259 0.07501 0.0
C1635 C 0.95056 0.46999 0.0458 0.0
C1636 C 0.96298 0.47311 0.0681 0.0
C1637 C 0.97299 0.50534 0.03867 0.0
C1638 C 0.95551 0.48624 0.03109 0.0
O1639 O 0.06695 0.57982 0.06073 0.0
O1640 O 0.03368 0.57595 0.07711 0.0
O1641 O 0.98467 0.55279 0.06461 0.0
O1642 O 0.99676 0.55207 0.10156 0.0
O1643 O 0.06134 0.53314 0.07797 0.0
O1644 O 0.04417 0.55258 0.10089 0.0
O1645 O 0.0192 0.50576 0.05709 0.0
O1646 O 0.0538 0.5095 0.04325 0.0
O1647 O 0.10338 0.5326 0.05891 0.0
O1648 O 0.09206 0.53263 0.02164 0.0
O1649 O 0.02508 0.55194 0.04324 0.0
O1650 O 0.04378 0.53393 0.02036 0.0
C1651 C 0.05206 0.58847 0.07108 0.0
C1652 C 0.06214 0.54654 0.09695 0.0
C1653 C 0.96574 0.56853 0.09496 0.0
C1654 C 0.93641 0.58779 0.08787 0.0
C1655 C 0.95073 0.58496 0.12758 0.0
C1656 C 0.96542 0.57312 0.11916 0.0
C1657 C 0.93625 0.5923 0.112 0.0
C1658 C 0.95111 0.57589 0.07929 0.0
C1659 C 0.98271 0.55787 0.08659 0.0
C1660 C 0.95826 0.45746 0.08361 0.0
C1661 C 0.97062 0.46136 0.10598 0.0
H1662 H 0.93697 0.45523 0.03989 0.0
C1663 C 0.0344 0.49717 0.0472 0.0
C1664 C 0.02512 0.53889 0.02422 0.0
C1665 C 0.12344 0.51673 0.02934 0.0
C1666 C 0.15284 0.49713 0.0362 0.0
C1667 C 0.13909 0.50121 0.99668 0.0
C1668 C 0.1243 0.5128 0.00519 0.0
C1669 C 0.15321 0.49333 0.01205 0.0
C1670 C 0.13802 0.509 0.045 0.0
C1671 C 0.10607 0.52737 0.03716 0.0
H1672 H 0.95064 0.58853 0.1462 0.0
H1673 H 0.97674 0.56787 0.13167 0.0
H1674 H 0.92484 0.60147 0.11873 0.0
H1675 H 0.95126 0.57264 0.06062 0.0
H1676 H 0.13945 0.49815 0.97807 0.0
H1677 H 0.11328 0.51839 0.99267 0.0
H1678 H 0.16455 0.48422 0.00507 0.0
H1679 H 0.13749 0.51168 0.06364 0.0
H1680 H 0.04341 0.23352 0.01719 0.0
H1681 H 0.99088 0.19312 0.96484 0.0
H1682 H 0.05026 0.19944 0.03129 0.0
H1683 H 0.99761 0.1594 0.97805 0.0
H1684 H 1.00442 0.09651 0.00782 0.0
H1685 H 0.99746 0.131 0.99687 0.0
H1686 H 0.06173 0.16766 0.03492 0.0
H1687 H 0.06781 0.1328 0.04701 0.0
C1688 C 0.03282 0.21743 0.00899 0.0
C1689 C 0.01599 0.21663 0.9901 0.0
C1690 C 0.03701 0.19744 0.01688 0.0
C1691 C 0.02456 0.17549 0.00637 0.0
C1692 C 1.00767 0.17511 0.98758 0.0
C1693 C 1.00365 0.19492 0.97972 0.0
C1694 C 0.01721 0.11184 0.01399 0.0
C1695 C 0.03687 0.11104 0.02844 0.0
C1696 C 1.01328 0.13219 0.00739 0.0
C1697 C 0.02895 0.15332 0.01436 0.0
C1698 C 0.04874 0.15249 0.0289 0.0
C1699 C 0.05246 0.13204 0.03586 0.0
H1700 H 0.12078 0.77943 0.1723 0.0
H1701 H 0.15125 0.84791 0.16605 0.0
H1702 H 0.15425 0.77664 0.19576 0.0
H1703 H 0.18447 0.84637 0.19185 0.0
H1704 H 0.24859 0.83631 0.2296 0.0
H1705 H 0.21622 0.83872 0.20343 0.0
H1706 H 0.17663 0.78084 0.22798 0.0
H1707 H 0.20951 0.77806 0.25277 0.0
C1708 C 0.13474 0.79411 0.17636 0.0
C1709 C 0.13334 0.81392 0.1674 0.0
C1710 C 0.1541 0.79268 0.19029 0.0
C1711 C 0.17264 0.81138 0.19671 0.0
C1712 C 0.17112 0.83129 0.18745 0.0
C1713 C 0.15189 0.8324 0.17266 0.0
C1714 C 0.23288 0.82409 0.22917 0.0
C1715 C 0.2316 0.80709 0.24333 0.0
C1716 C 0.214 0.82554 0.21424 0.0
C1717 C 0.19309 0.81 0.21296 0.0
C1718 C 0.19205 0.79306 0.22754 0.0
C1719 C 0.21097 0.79161 0.24235 0.0
H1720 H 0.52528 0.85988 0.45943 0.0
H1721 H 0.52322 0.84495 0.52976 0.0
H1722 H 0.52872 0.899 0.47272 0.0
H1723 H 0.52705 0.88508 0.54352 0.0
H1724 H 0.51536 0.95838 0.55711 0.0
H1725 H 0.51142 0.91801 0.54593 0.0
H1726 H 0.55138 0.93267 0.49102 0.0
H1727 H 0.55477 0.97236 0.50173 0.0
C1728 C 0.52563 0.86486 0.47794 0.0
C1729 C 0.52385 0.84857 0.4933 0.0
C1730 C 0.52786 0.88778 0.48573 0.0
C1731 C 0.52837 0.89605 0.50946 0.0
C1732 C 0.52663 0.87983 0.52506 0.0
C1733 C 0.52461 0.85661 0.51719 0.0
C1734 C 0.52307 0.95302 0.54244 0.0
C1735 C 0.53523 0.96924 0.53032 0.0
C1736 C 0.52103 0.92961 0.53612 0.0
C1737 C 0.53089 0.9213 0.51726 0.0
C1738 C 0.54301 0.93767 0.5053 0.0
C1739 C 0.54513 0.96087 0.51165 0.0
H1740 H 0.52931 0.32658 0.68887 0.0
H1741 H 0.50233 0.25907 0.65362 0.0
H1742 H 0.49433 0.32522 0.70542 0.0
H1743 H 0.46754 0.25754 0.66976 0.0
H1744 H 0.40339 0.25921 0.69187 0.0
H1745 H 0.43436 0.27181 0.67016 0.0
H1746 H 0.47616 0.30493 0.73478 0.0
H1747 H 0.44488 0.2927 0.75621 0.0
C1748 C 0.51567 0.31167 0.68433 0.0
C1749 C 0.51826 0.29294 0.67001 0.0
C1750 C 0.49575 0.31082 0.69383 0.0
C1751 C 0.47805 0.29134 0.68878 0.0
C1752 C 0.48059 0.27296 0.67369 0.0
C1753 C 0.50055 0.27371 0.66458 0.0
C1754 C 0.41892 0.27005 0.70118 0.0
C1755 C 0.42186 0.27518 0.72557 0.0
C1756 C 0.43674 0.27702 0.68886 0.0
C1757 C 0.45787 0.289 0.70079 0.0
C1758 C 0.46011 0.29585 0.72502 0.0
C1759 C 0.44222 0.28892 0.73732 0.0
H1760 H 0.05518 0.84395 0.69104 0.0
H1761 H 1.00867 0.80503 0.63232 0.0
H1762 H 0.05845 0.8772 0.672 0.0
H1763 H 1.00978 0.83853 0.6139 0.0
H1764 H 0.0422 0.89256 0.57264 0.0
H1765 H 0.0296 0.86136 0.5933 0.0
H1766 H 0.04827 0.90632 0.65894 0.0
H1767 H 0.06261 0.93707 0.63775 0.0
C1768 C 0.04506 0.84283 0.6743 0.0
C1769 C 0.0316 0.82217 0.6631 0.0
C1770 C 0.04671 0.86196 0.66333 0.0
C1771 C 0.03444 0.86097 0.6411 0.0
C1772 C 0.02005 0.8402 0.6306 0.0
C1773 C 0.01906 0.82095 0.64126 0.0
C1774 C 0.04293 0.89574 0.59144 0.0
C1775 C 0.05323 0.91707 0.60365 0.0
C1776 C 0.03566 0.8778 0.60349 0.0
C1777 C 0.03825 0.88084 0.62814 0.0
C1778 C 0.04665 0.90287 0.64011 0.0
C1779 C 0.05441 0.92073 0.62799 0.0
H1780 H 0.4857 0.82037 0.79677 0.0
H1781 H 0.47279 0.81193 0.86656 0.0
H1782 H 0.44603 0.81593 0.78418 0.0
H1783 H 0.43319 0.80763 0.85461 0.0
H1784 H 0.35942 0.80348 0.83258 0.0
H1785 H 0.39908 0.80881 0.84484 0.0
H1786 H 0.41027 0.80838 0.77274 0.0
H1787 H 0.37047 0.80429 0.76113 0.0
C1788 C 0.47435 0.81754 0.80956 0.0
C1789 C 0.48296 0.8164 0.83278 0.0
C1790 C 0.45104 0.81489 0.80229 0.0
C1791 C 0.43492 0.81138 0.81795 0.0
C1792 C 0.4439 0.81031 0.84131 0.0
C1793 C 0.46713 0.81261 0.84842 0.0
C1794 C 0.37038 0.80462 0.81931 0.0
C1795 C 0.36122 0.80336 0.79574 0.0
C1796 C 0.3937 0.80759 0.82637 0.0
C1797 C 0.40937 0.8089 0.81018 0.0
C1798 C 0.3999 0.80772 0.78644 0.0
C1799 C 0.37658 0.80531 0.7795 0.0
H1800 H 0.51191 0.16868 0.18644 0.0
H1801 H 0.53286 0.20865 0.13319 0.0
H1802 H 0.51463 0.13523 0.16165 0.0
H1803 H 0.53444 0.17557 0.10802 0.0
H1804 H 0.55367 0.11644 0.07125 0.0
H1805 H 0.55141 0.14916 0.09694 0.0
H1806 H 0.50346 0.1071 0.13174 0.0
H1807 H 0.50684 0.07428 0.10663 0.0
C1808 C 0.51673 0.17033 0.16929 0.0
C1809 C 0.52203 0.19157 0.16201 0.0
C1810 C 0.51824 0.15097 0.15482 0.0
C1811 C 0.52495 0.15211 0.13241 0.0
C1812 C 0.52976 0.17345 0.12511 0.0
C1813 C 0.52847 0.1927 0.1396 0.0
C1814 C 0.54252 0.11414 0.08429 0.0
C1815 C 0.53029 0.09251 0.08654 0.0
C1816 C 0.54105 0.13314 0.09917 0.0
C1817 C 0.52696 0.13142 0.11674 0.0
C1818 C 0.51476 0.10964 0.11891 0.0
C1819 C 0.5165 0.09059 0.10421 0.0
H1820 H 0.10252 0.2721 0.30358 0.0
H1821 H 0.13622 0.32875 0.35497 0.0
H1822 H 0.13816 0.2682 0.29269 0.0
H1823 H 0.17206 0.32547 0.34414 0.0
H1824 H 0.23937 0.31477 0.32743 0.0
H1825 H 0.20378 0.31847 0.33836 0.0
H1826 H 0.16958 0.26857 0.27957 0.0
H1827 H 0.20539 0.26517 0.26901 0.0
C1828 C 0.11759 0.28396 0.31255 0.0
C1829 C 0.1159 0.30089 0.33018 0.0
C1830 C 0.13859 0.28179 0.30619 0.0
C1831 C 0.15934 0.29641 0.31712 0.0
C1832 C 0.15739 0.31342 0.33483 0.0
C1833 C 0.13636 0.31557 0.34112 0.0
C1834 C 0.22426 0.30448 0.31678 0.0
C1835 C 0.22594 0.28942 0.29728 0.0
C1836 C 0.20327 0.30667 0.32307 0.0
C1837 C 0.18244 0.29394 0.31025 0.0
C1838 C 0.18433 0.27886 0.29063 0.0
C1839 C 0.20537 0.27675 0.28434 0.0
H1840 H 0.99946 0.01108 0.2243 0.0
H1841 H 0.95099 0.04673 0.20149 0.0
H1842 H 0.01746 0.01778 0.19029 0.0
H1843 H 0.96837 0.05379 0.16768 0.0
H1844 H 0.99992 0.06478 0.10301 0.0
H1845 H 0.9836 0.0599 0.13804 0.0
H1846 H 0.03187 0.02261 0.15959 0.0
H1847 H 0.04792 0.0281 0.12439 0.0
C1848 C 0.99277 0.02059 0.21201 0.0
C1849 C 0.97373 0.02828 0.21578 0.0
C1850 C 1.0031 0.0245 0.19199 0.0
C1851 C 0.99492 0.0365 0.17494 0.0
C1852 C 0.9759 0.04444 0.17936 0.0
C1853 C 0.96557 0.04034 0.19919 0.0
C1854 C 1.00705 0.05564 0.11541 0.0
C1855 C 0.0253 0.04691 0.11074 0.0
C1856 C 0.99754 0.0526 0.13598 0.0
C1857 C 1.00575 0.04048 0.15285 0.0
C1858 C 0.02438 0.03203 0.14795 0.0
C1859 C 0.03394 0.03524 0.12742 0.0
H1860 H 0.30087 0.71228 0.52063 0.0
H1861 H 0.26637 0.64919 0.4788 0.0
H1862 H 0.2995 0.73101 0.48606 0.0
H1863 H 0.26295 0.66785 0.4447 0.0
H1864 H 0.25937 0.70129 0.38378 0.0
H1865 H 0.2773 0.68604 0.41556 0.0
H1866 H 0.27279 0.74269 0.4642 0.0
H1867 H 0.25628 0.75816 0.4321 0.0
C1868 C 0.29326 0.70248 0.50386 0.0
C1869 C 0.28403 0.6794 0.502 0.0
C1870 C 0.29223 0.71315 0.48413 0.0
C1871 C 0.28107 0.70102 0.46249 0.0
C1872 C 0.27232 0.67771 0.46078 0.0
C1873 C 0.27409 0.66696 0.48033 0.0
C1874 C 0.26284 0.71054 0.40128 0.0
C1875 C 0.25611 0.7304 0.40601 0.0
C1876 C 0.27291 0.70184 0.41948 0.0
C1877 C 0.27589 0.71275 0.4426 0.0
C1878 C 0.27082 0.73373 0.44673 0.0
C1879 C 0.26106 0.74251 0.42848 0.0
H1880 H 0.63332 0.04824 0.72465 0.0
H1881 H 0.68585 0.05008 0.68137 0.0
H1882 H 0.60728 0.0502 0.69097 0.0
H1883 H 0.65943 0.05184 0.64737 0.0
H1884 H 0.59415 0.01635 0.59557 0.0
H1885 H 0.62308 0.02071 0.62869 0.0
H1886 H 0.60337 0.07812 0.6609 0.0
H1887 H 0.57443 0.07408 0.62738 0.0
C1888 C 0.63913 0.04873 0.7078 0.0
C1889 C 0.66125 0.04841 0.70515 0.0
C1890 C 0.62442 0.05031 0.68879 0.0
C1891 C 0.63166 0.05123 0.66699 0.0
C1892 C 0.6538 0.05114 0.66428 0.0
C1893 C 0.66868 0.04994 0.68346 0.0
C1894 C 0.59605 0.02995 0.60966 0.0
C1895 C 0.58235 0.04503 0.6091 0.0
C1896 C 0.61266 0.03254 0.62836 0.0
C1897 C 0.6154 0.04994 0.64675 0.0
C1898 C 0.60143 0.06474 0.64654 0.0
C1899 C 0.58491 0.06231 0.62766 0.0
H1900 H 0.34429 0.34469 0.98242 0.0
H1901 H 0.27739 0.35386 0.97076 0.0
H1902 H 0.34212 0.33162 0.94122 0.0
H1903 H 0.27418 0.33894 0.92957 0.0
H1904 H 0.27864 0.32686 0.85209 0.0
H1905 H 0.28118 0.34153 0.89294 0.0
H1906 H 0.33065 0.30472 0.91056 0.0
H1907 H 0.32834 0.2907 0.86962 0.0
C1908 C 0.32885 0.34345 0.97104 0.0
C1909 C 0.31094 0.35014 0.98005 0.0
C1910 C 0.32747 0.3357 0.94718 0.0
C1911 C 0.30783 0.33369 0.93141 0.0
C1912 C 0.28982 0.3404 0.94061 0.0
C1913 C 0.2915 0.34879 0.96446 0.0
C1914 C 0.29029 0.32208 0.86466 0.0
C1915 C 0.30368 0.30788 0.8572 0.0
C1916 C 0.29158 0.33036 0.88841 0.0
C1917 C 0.30627 0.32468 0.90575 0.0
C1918 C 0.31947 0.3102 0.89817 0.0
C1919 C 0.31813 0.30193 0.8744 0.0
H1920 H 0.01604 0.02177 0.34497 0.0
H1921 H 0.95162 0.02867 0.3608 0.0
H1922 H 0.02998 0.02674 0.38639 0.0
H1923 H 0.96454 0.03152 0.40225 0.0
H1924 H 0.99606 0.05158 0.47785 0.0
H1925 H 0.98283 0.04881 0.43667 0.0
H1926 H 0.03343 0.01402 0.42026 0.0
H1927 H 0.04776 0.01881 0.46137 0.0
C1928 C 1.0048 0.02425 0.35742 0.0
C1929 C 0.98281 0.02506 0.34954 0.0
C1930 C 1.01268 0.02677 0.38141 0.0
C1931 C 0.99856 0.02936 0.39844 0.0
C1932 C 0.97642 0.03012 0.39028 0.0
C1933 C 0.96882 0.02836 0.36628 0.0
C1934 C 1.00448 0.04346 0.46543 0.0
C1935 C 0.02304 0.03538 0.47322 0.0
C1936 C 0.99666 0.04158 0.4415 0.0
C1937 C 1.00684 0.03118 0.42434 0.0
C1938 C 0.02518 0.02268 0.43234 0.0
C1939 C 0.03328 0.02502 0.45626 0.0
H1940 H 0.30615 0.70048 0.60561 0.0
H1941 H 0.27014 0.64962 0.64218 0.0
H1942 H 0.30366 0.72945 0.63643 0.0
H1943 H 0.26799 0.67888 0.67301 0.0
H1944 H 0.31086 0.73581 0.73242 0.0
H1945 H 0.30755 0.70796 0.69873 0.0
H1946 H 0.26678 0.74157 0.6577 0.0
H1947 H 0.26871 0.76906 0.69205 0.0
C1948 C 0.29793 0.69548 0.6203 0.0
C1949 C 0.28867 0.67282 0.62184 0.0
C1950 C 0.29616 0.71204 0.63754 0.0
C1951 C 0.28544 0.70602 0.6565 0.0
C1952 C 0.27615 0.68353 0.65816 0.0
C1953 C 0.27771 0.66695 0.64083 0.0
C1954 C 0.30117 0.73739 0.71631 0.0
C1955 C 0.29009 0.7546 0.71477 0.0
C1956 C 0.29924 0.72142 0.69718 0.0
C1957 C 0.28677 0.72286 0.67618 0.0
C1958 C 0.27633 0.7404 0.67409 0.0
C1959 C 0.27769 0.75612 0.69354 0.0
H1960 H 0.67259 0.03144 0.84146 0.0
H1961 H 0.63591 0.07846 0.8185 0.0
H1962 H 0.65449 0.03067 0.87694 0.0
H1963 H 0.61848 0.07797 0.8535 0.0
H1964 H 0.57582 0.06489 0.90352 0.0
H1965 H 0.59053 0.04937 0.86991 0.0
H1966 H 0.65514 0.06038 0.91208 0.0
H1967 H 0.64008 0.0754 0.94584 0.0
C1968 C 0.66057 0.04139 0.84395 0.0
C1969 C 0.655 0.05444 0.82711 0.0
C1970 C 0.65027 0.04089 0.86405 0.0
C1971 C 0.63449 0.05351 0.86726 0.0
C1972 C 0.62976 0.06722 0.85079 0.0
C1973 C 0.63984 0.06761 0.83085 0.0
C1974 C 0.59292 0.06325 0.90563 0.0
C1975 C 0.60728 0.07188 0.92657 0.0
C1976 C 0.60126 0.05431 0.88661 0.0
C1977 C 0.62403 0.05435 0.88849 0.0
C1978 C 0.63757 0.06037 0.91031 0.0
C1979 C 0.62914 0.06921 0.9294 0.0
H1980 H 0.28422 0.32681 0.09388 0.0
H1981 H 0.3231 0.38617 0.13932 0.0
H1982 H 0.27839 0.30734 0.1282 0.0
H1983 H 0.31802 0.36653 0.17322 0.0
H1984 H 0.32764 0.31025 0.2197 0.0
H1985 H 0.33107 0.32853 0.18459 0.0
H1986 H 0.25921 0.3154 0.1698 0.0
H1987 H 0.2559 0.29899 0.20632 0.0
C1988 C 0.29168 0.33562 0.11111 0.0
C1989 C 0.30428 0.35801 0.11379 0.0
C1990 C 0.28823 0.32453 0.13076 0.0
C1991 C 0.29787 0.33535 0.15344 0.0
C1992 C 0.31048 0.35768 0.15602 0.0
C1993 C 0.31337 0.36892 0.13656 0.0
C1994 C 0.31258 0.31152 0.20913 0.0
C1995 C 0.29156 0.30377 0.21617 0.0
C1996 C 0.31454 0.32187 0.18895 0.0
C1997 C 0.29543 0.32351 0.17443 0.0
C1998 C 0.27426 0.31453 0.18068 0.0
C1999 C 0.27236 0.30516 0.20158 0.0
H2000 H 0.24355 0.95 0.03285 0.0
H2001 H 0.24731 0.9942 0.98056 0.0
H2002 H 0.21167 0.9617 0.04512 0.0
H2003 H 0.21371 1.0049 0.99135 0.0
H2004 H 0.18569 0.04562 0.04772 0.0
H2005 H 0.20777 0.02798 0.02308 0.0
H2006 H 0.17488 0.96315 0.03973 0.0
H2007 H 0.15425 0.98139 0.06584 0.0
C2008 C 0.23663 0.96144 0.02323 0.0
C2009 C 0.24729 0.97112 0.0057 0.0
C2010 C 0.21825 0.96808 0.0301 0.0
C2011 C 0.20994 0.98417 0.01911 0.0
C2012 C 0.21988 0.99267 1.00032 0.0
C2013 C 0.23882 0.98645 0.99392 0.0
C2014 C 0.18319 0.02758 0.04582 0.0
C2015 C 0.16893 0.01474 0.05889 0.0
C2016 C 0.19553 0.01739 0.03147 0.0
C2017 C 0.19333 0.99414 0.02968 0.0
C2018 C 0.17743 0.98117 0.04126 0.0
C2019 C 0.16561 0.99147 0.05613 0.0
H2020 H 0.69786 0.67124 0.02537 0.0
H2021 H 0.72826 0.61514 0.01937 0.0
H2022 H 0.66257 0.64616 0.0297 0.0
H2023 H 0.69266 0.58988 0.023 0.0
H2024 H 0.63249 0.55715 0.05816 0.0
H2025 H 0.66811 0.58113 0.05249 0.0
H2026 H 0.63268 0.61675 0.00797 0.0
H2027 H 0.59731 0.59284 0.01342 0.0
C2028 C 0.69687 0.65347 0.02439 0.0
C2029 C 0.71583 0.64519 0.02182 0.0
C2030 C 0.67663 0.63907 0.02692 0.0
C2031 C 0.67478 0.616 0.02669 0.0
C2032 C 0.69361 0.60761 0.02359 0.0
C2033 C 0.71393 0.62205 0.02123 0.0
C2034 C 0.63233 0.56982 0.04682 0.0
C2035 C 0.61202 0.57278 0.03592 0.0
C2036 C 0.65275 0.58361 0.04362 0.0
C2037 C 0.65325 0.60084 0.02972 0.0
C2038 C 0.63292 0.60379 0.01894 0.0
C2039 C 0.6126 0.58993 0.02195 0.0
H2040 H 0.66909 0.47794 0.31925 0.0
H2041 H 0.7189 0.51419 0.2821 0.0
H2042 H 0.68644 0.44616 0.31608 0.0
H2043 H 0.73587 0.48269 0.27873 0.0
H2044 H 0.77195 0.43086 0.28464 0.0
H2045 H 0.75679 0.46125 0.30132 0.0
H2046 H 0.68984 0.41846 0.28324 0.0
H2047 H 0.70521 0.38814 0.26685 0.0
C2048 C 0.68388 0.47924 0.31073 0.0
C2049 C 0.69267 0.49855 0.30098 0.0
C2050 C 0.69375 0.46106 0.30886 0.0
C2051 C 0.71268 0.46206 0.29744 0.0
C2052 C 0.72164 0.48159 0.28815 0.0
C2053 C 0.71176 0.49958 0.28988 0.0
C2054 C 0.7541 0.4278 0.28517 0.0
C2055 C 0.73964 0.40742 0.27455 0.0
C2056 C 0.7454 0.44517 0.29445 0.0
C2057 C 0.7221 0.44233 0.29318 0.0
C2058 C 0.70784 0.42114 0.28453 0.0
C2059 C 0.71657 0.40381 0.27514 0.0
H2060 H 0.87083 0.49423 0.50147 0.0
H2061 H 0.88136 0.43607 0.53154 0.0
H2062 H 0.90852 0.51488 0.51861 0.0
H2063 H 0.91844 0.45707 0.54972 0.0
H2064 H 0.99128 0.49404 0.54269 0.0
H2065 H 0.95328 0.4717 0.53797 0.0
H2066 H 0.93042 0.53158 0.55582 0.0
H2067 H 0.96892 0.55406 0.55969 0.0
C2068 C 0.88126 0.48587 0.51162 0.0
C2069 C 0.87328 0.46361 0.51519 0.0
C2070 C 0.90259 0.4978 0.52187 0.0
C2071 C 0.91607 0.48771 0.53607 0.0
C2072 C 0.90832 0.46525 0.53897 0.0
C2073 C 0.88718 0.4532 0.52839 0.0
C2074 C 0.97831 0.50221 0.54694 0.0
C2075 C 0.98263 0.52551 0.55165 0.0
C2076 C 0.95647 0.48946 0.54409 0.0
C2077 C 0.93892 0.50005 0.54595 0.0
C2078 C 0.94371 0.52317 0.55372 0.0
C2079 C 0.96559 0.53595 0.55627 0.0
H2080 H 0.32228 0.05645 0.31784 0.0
H2081 H 0.38947 0.09832 0.32495 0.0
H2082 H 0.3073 0.08711 0.30579 0.0
H2083 H 0.37466 0.12866 0.31194 0.0
H2084 H 0.34063 0.18112 0.28952 0.0
H2085 H 0.35166 0.1558 0.31547 0.0
H2086 H 0.30998 0.09908 0.26775 0.0
H2087 H 0.2989 0.12438 0.24231 0.0
C2088 C 0.33374 0.07249 0.31753 0.0
C2089 C 0.35692 0.07518 0.32207 0.0
C2090 C 0.32523 0.08992 0.31051 0.0
C2091 C 0.33987 0.11 0.30749 0.0
C2092 C 0.363 0.1134 0.31431 0.0
C2093 C 0.37149 0.09606 0.32174 0.0
C2094 C 0.33393 0.1632 0.2848 0.0
C2095 C 0.31943 0.15442 0.26388 0.0
C2096 C 0.34009 0.14882 0.29958 0.0
C2097 C 0.33155 0.12557 0.29367 0.0
C2098 C 0.31654 0.11696 0.27296 0.0
C2099 C 0.31054 0.1313 0.25817 0.0
H2100 H 0.33579 0.13115 0.49876 0.0
H2101 H 0.34748 0.15807 0.57195 0.0
H2102 H 0.36938 0.11638 0.50413 0.0
H2103 H 0.38078 0.14384 0.57735 0.0
H2104 H 0.44516 0.12884 0.58362 0.0
H2105 H 0.41859 0.14852 0.56712 0.0
H2106 H 0.38014 0.0865 0.52555 0.0
H2107 H 0.4073 0.06706 0.54165 0.0
C2108 C 0.34582 0.13423 0.51582 0.0
C2109 C 0.3393 0.14572 0.53497 0.0
C2110 C 0.3649 0.12576 0.51892 0.0
C2111 C 0.37789 0.12923 0.54108 0.0
C2112 C 0.37146 0.14128 0.55996 0.0
C2113 C 0.35229 0.14925 0.55696 0.0
C2114 C 0.43144 0.11968 0.57032 0.0
C2115 C 0.42794 0.09652 0.56402 0.0
C2116 C 0.41619 0.13085 0.56099 0.0
C2117 C 0.397 0.11892 0.5455 0.0
C2118 C 0.39476 0.09613 0.53743 0.0
C2119 C 0.41022 0.08499 0.54664 0.0
H2120 H 0.72096 0.60629 0.31639 0.0
H2121 H 0.66375 0.63496 0.31637 0.0
H2122 H 0.74456 0.64257 0.3122 0.0
H2123 H 0.68709 0.67093 0.31135 0.0
H2124 H 0.73807 0.73745 0.32467 0.0
H2125 H 0.71594 0.70144 0.33061 0.0
H2126 H 0.75159 0.66808 0.28415 0.0
H2127 H 0.77419 0.70445 0.27843 0.0
C2128 C 0.71343 0.62037 0.31569 0.0
C2129 C 0.69045 0.61774 0.31691 0.0
C2130 C 0.72694 0.64113 0.31299 0.0
C2131 C 0.71777 0.65972 0.31132 0.0
C2132 C 0.69486 0.65712 0.31296 0.0
C2133 C 0.68142 0.63645 0.31585 0.0
C2134 C 0.74133 0.72249 0.31572 0.0
C2135 C 0.7581 0.7239 0.30121 0.0
C2136 C 0.72846 0.70175 0.31903 0.0
C2137 C 0.7319 0.68176 0.30788 0.0
C2138 C 0.74868 0.68311 0.29331 0.0
C2139 C 0.7616 0.70397 0.28995 0.0
H2140 H 0.88896 0.46109 0.79929 0.0
H2141 H 0.84732 0.46435 0.85368 0.0
H2142 H 0.86781 0.42299 0.78462 0.0
H2143 H 0.82687 0.4255 0.83991 0.0
H2144 H 0.78152 0.36459 0.79969 0.0
H2145 H 0.80067 0.40424 0.8063 0.0
H2146 H 0.86317 0.38703 0.79683 0.0
H2147 H 0.84409 0.34778 0.78977 0.0
C2148 C 0.87563 0.45331 0.80846 0.0
C2149 C 0.8697 0.46522 0.82765 0.0
C2150 C 0.86349 0.43167 0.8 0.0
C2151 C 0.84564 0.42156 0.811 0.0
C2152 C 0.84021 0.43326 0.83076 0.0
C2153 C 0.85203 0.45519 0.83887 0.0
C2154 C 0.7992 0.36945 0.79824 0.0
C2155 C 0.81149 0.35339 0.79447 0.0
C2156 C 0.81014 0.39199 0.80227 0.0
C2157 C 0.83338 0.39847 0.80255 0.0
C2158 C 0.8452 0.38242 0.79659 0.0
C2159 C 0.83427 0.35995 0.79245 0.0
H2160 H 0.04824 0.87654 0.11608 0.0
H2161 H 0.08952 0.87442 0.06169 0.0
H2162 H 0.04372 0.91324 0.10791 0.0
H2163 H 0.08452 0.91061 0.05284 0.0
H2164 H 0.08688 0.98493 0.04926 0.0
H2165 H 0.09112 0.94834 0.05788 0.0
H2166 H 0.0301 0.93866 0.08869 0.0
H2167 H 0.02613 0.97537 0.07987 0.0
C2168 C 0.05626 0.88369 0.10214 0.0
C2169 C 0.06927 0.87182 0.08963 0.0
C2170 C 0.05356 0.9051 0.09726 0.0
C2171 C 0.06368 0.91596 0.0795 0.0
C2172 C 0.07656 0.90384 0.06695 0.0
C2173 C 0.07933 0.88255 0.07192 0.0
C2174 C 0.07435 0.97506 0.05794 0.0
C2175 C 0.0561 0.9836 0.06365 0.0
C2176 C 0.07664 0.95358 0.06282 0.0
C2177 C 0.06101 0.93944 0.07414 0.0
C2178 C 0.04284 0.94831 0.08013 0.0
C2179 C 0.04036 0.96964 0.07482 0.0
H2180 H 0.94796 0.30614 0.92853 0.0
H2181 H 0.9478 0.24556 0.88416 0.0
H2182 H 0.91529 0.31021 0.90308 0.0
H2183 H 0.91506 0.24941 0.85882 0.0
H2184 H 0.8427 0.25082 0.82969 0.0
H2185 H 0.87559 0.24698 0.85505 0.0
H2186 H 0.90151 0.31879 0.86552 0.0
H2187 H 0.86868 0.32237 0.83982 0.0
C2188 C 0.9409 0.29354 0.91345 0.0
C2189 C 0.95072 0.27542 0.90869 0.0
C2190 C 0.92213 0.29598 0.8986 0.0
C2191 C 0.91208 0.28015 0.87859 0.0
C2192 C 0.92186 0.26193 0.87402 0.0
C2193 C 0.94088 0.25975 0.88859 0.0
C2194 C 0.85544 0.26577 0.83741 0.0
C2195 C 0.85293 0.28688 0.83262 0.0
C2196 C 0.8745 0.2636 0.85193 0.0
C2197 C 0.89162 0.28253 0.86269 0.0
C2198 C 0.88888 0.30371 0.85795 0.0
C2199 C 0.87004 0.30581 0.84299 0.0
H2200 H 0.60538 0.23347 0.61048 0.0
H2201 H 0.53906 0.22661 0.57503 0.0
H2202 H 0.60141 0.1933 0.60077 0.0
H2203 H 0.53502 0.18634 0.56435 0.0
H2204 H 0.52366 0.11048 0.56565 0.0
H2205 H 0.52848 0.15085 0.5735 0.0
H2206 H 0.6001 0.16032 0.57834 0.0
H2207 H 0.595 0.11978 0.5714 0.0
C2208 C 0.59017 0.2235 0.59974 0.0
C2209 C 0.57297 0.23389 0.5928 0.0
C2210 C 0.58775 0.20007 0.59417 0.0
C2211 C 0.56781 0.18559 0.58151 0.0
C2212 C 0.55067 0.19619 0.57429 0.0
C2213 C 0.55312 0.21968 0.57999 0.0
C2214 C 0.54052 0.12109 0.56844 0.0
C2215 C 0.55891 0.11126 0.56751 0.0
C2216 C 0.54335 0.14467 0.57276 0.0
C2217 C 0.56478 0.15987 0.57653 0.0
C2218 C 0.58319 0.14991 0.57578 0.0
C2219 C 0.5803 0.12628 0.57138 0.0
H2220 H 0.5897 0.77518 0.44878 0.0
H2221 H 0.54871 0.77895 0.38501 0.0
H2222 H 0.62119 0.77503 0.42774 0.0
H2223 H 0.58063 0.77992 0.36398 0.0
H2224 H 0.63809 0.77333 0.32633 0.0
H2225 H 0.6061 0.76335 0.34746 0.0
H2226 H 0.64809 0.79737 0.41177 0.0
H2227 H 0.67984 0.80599 0.39069 0.0
C2228 C 0.58733 0.77592 0.43019 0.0
C2229 C 0.5665 0.77707 0.4187 0.0
C2230 C 0.60561 0.77606 0.41805 0.0
C2231 C 0.60385 0.77761 0.39397 0.0
C2232 C 0.58283 0.77835 0.38237 0.0
C2233 C 0.56444 0.77802 0.39452 0.0
C2234 C 0.64058 0.77761 0.34516 0.0
C2235 C 0.66154 0.79004 0.35695 0.0
C2236 C 0.62211 0.77242 0.35729 0.0
C2237 C 0.62409 0.77986 0.38146 0.0
C2238 C 0.64559 0.79098 0.39334 0.0
C2239 C 0.664 0.79589 0.38127 0.0
H2240 H 0.07387 0.25092 0.39656 0.0
H2241 H 0.03708 0.2798 0.44514 0.0
H2242 H 0.07318 0.21975 0.41869 0.0
H2243 H 0.03524 0.24811 0.46659 0.0
H2244 H 0.04108 0.19394 0.50949 0.0
H2245 H 0.05178 0.22798 0.49153 0.0
H2246 H 0.05005 0.18716 0.42563 0.0
H2247 H 0.04029 0.15358 0.44404 0.0
C2248 C 0.06562 0.25063 0.41199 0.0
C2249 C 0.05558 0.26798 0.41902 0.0
C2250 C 0.06506 0.23258 0.42468 0.0
C2251 C 0.05406 0.23105 0.44458 0.0
C2252 C 0.04432 0.24867 0.45177 0.0
C2253 C 0.04523 0.26691 0.4393 0.0
C2254 C 0.04387 0.19242 0.4914 0.0
C2255 C 0.0401 0.17115 0.4782 0.0
C2256 C 0.04958 0.21192 0.4809 0.0
C2257 C 0.05142 0.21061 0.45683 0.0
C2258 C 0.04903 0.1892 0.44415 0.0
C2259 C 0.04343 0.1698 0.45469 0.0
H2260 H 0.61119 0.27354 0.20848 0.0
H2261 H 0.59815 0.25134 0.27425 0.0
H2262 H 0.65003 0.27572 0.21813 0.0
H2263 H 0.6386 0.25501 0.28502 0.0
H2264 H 0.71373 0.2514 0.29383 0.0
H2265 H 0.67321 0.24675 0.28533 0.0
H2266 H 0.68414 0.29212 0.23426 0.0
H2267 H 0.72381 0.29544 0.24177 0.0
C2268 C 0.61654 0.26945 0.22545 0.0
C2269 C 0.60067 0.26239 0.24049 0.0
C2270 C 0.63956 0.27101 0.23125 0.0
C2271 C 0.6487 0.26615 0.25284 0.0
C2272 C 0.6329 0.259 0.26814 0.0
C2273 C 0.6094 0.25705 0.26206 0.0
C2274 C 0.70746 0.26005 0.28044 0.0
C2275 C 0.72268 0.27361 0.26838 0.0
C2276 C 0.68387 0.2576 0.27568 0.0
C2277 C 0.67428 0.26872 0.2587 0.0
C2278 C 0.68978 0.28245 0.24695 0.0
C2279 C 0.71313 0.28467 0.25153 0.0
H2280 H 0.58498 0.88306 0.95122 0.0
H2281 H 0.53083 0.88984 0.90156 0.0
H2282 H 0.58086 0.91523 0.97719 0.0
H2283 H 0.52666 0.92215 0.92745 0.0
H2284 H 0.51044 0.96774 0.9882 0.0
H2285 H 0.51464 0.93553 0.96213 0.0
H2286 H 0.58589 0.95432 0.98541 0.0
H2287 H 0.58141 0.98654 0.01138 0.0
C2288 C 0.57221 0.89146 0.9457 0.0
C2289 C 0.55839 0.88365 0.92396 0.0
C2290 C 0.56989 0.91018 0.96068 0.0
C2291 C 0.55339 0.92181 0.9548 0.0
C2292 C 0.53948 0.91386 0.93305 0.0
C2293 C 0.54203 0.89531 0.91791 0.0
C2294 C 0.52701 0.965 0.98769 0.0
C2295 C 0.54559 0.97997 1.00181 0.0
C2296 C 0.52951 0.94648 0.97254 0.0
C2297 C 0.55069 0.94189 0.97118 0.0
C2298 C 0.56923 0.9568 0.98576 0.0
C2299 C 0.56672 0.97552 1.00067 0.0
H2300 H 0.968 0.76377 0.78184 0.0
H2301 H 0.94902 0.76888 0.7097 0.0
H2302 H 0.93182 0.7696 0.7908 0.0
H2303 H 0.9126 0.7741 0.7184 0.0
H2304 H 0.83955 0.76339 0.73698 0.0
H2305 H 0.87597 0.75869 0.72805 0.0
H2306 H 0.90693 0.79414 0.79605 0.0
H2307 H 0.87039 0.79906 0.80482 0.0
C2308 C 0.95619 0.76612 0.76774 0.0
C2309 C 0.96218 0.76594 0.74493 0.0
C2310 C 0.93514 0.76961 0.77295 0.0
C2311 C 0.91844 0.77249 0.75555 0.0
C2312 C 0.92437 0.77195 0.73263 0.0
C2313 C 0.94566 0.76906 0.72756 0.0
C2314 C 0.85403 0.7703 0.75017 0.0
C2315 C 0.85129 0.7816 0.77184 0.0
C2316 C 0.87531 0.76767 0.74492 0.0
C2317 C 0.89525 0.77583 0.76115 0.0
C2318 C 0.89248 0.78718 0.78285 0.0
C2319 C 0.87121 0.79017 0.78795 0.0
H2320 H 0.1192 0.02671 0.87653 0.0
H2321 H 0.09109 0.08374 0.87137 0.0
H2322 H 0.10665 0.02329 0.91464 0.0
H2323 H 0.07944 0.08105 0.90959 0.0
H2324 H 0.04142 0.06006 0.9683 0.0
H2325 H 0.05395 0.06189 0.93043 0.0
H2326 H 0.1108 0.03703 0.9546 0.0
H2327 H 0.09751 0.03431 0.99243 0.0
C2328 C 0.11036 0.03855 0.88349 0.0
C2329 C 0.10593 0.05532 0.87052 0.0
C2330 C 0.10329 0.03674 0.90558 0.0
C2331 C 0.0917 0.05174 0.91553 0.0
C2332 C 0.08769 0.0687 0.90259 0.0
C2333 C 0.09455 0.07036 0.88052 0.0
C2334 C 0.05647 0.05469 0.96554 0.0
C2335 C 0.06824 0.04677 0.98355 0.0
C2336 C 0.06392 0.05605 0.94372 0.0
C2337 C 0.08362 0.04976 0.93903 0.0
C2338 C 0.09543 0.04181 0.95712 0.0
C2339 C 0.08789 0.04038 0.97901 0.0
H2340 H 0.76782 0.38809 0.56232 0.0
H2341 H 0.83349 0.43182 0.58613 0.0
H2342 H 0.77 0.37084 0.59811 0.0
H2343 H 0.83631 0.41407 0.62089 0.0
H2344 H 0.83814 0.38734 0.68559 0.0
H2345 H 0.82332 0.40828 0.65714 0.0
H2346 H 0.79111 0.34598 0.61211 0.0
H2347 H 0.80556 0.32527 0.64099 0.0
C2348 C 0.78254 0.39413 0.57539 0.0
C2349 C 0.80035 0.41141 0.57186 0.0
C2350 C 0.78384 0.38428 0.59575 0.0
C2351 C 0.8032 0.39128 0.61246 0.0
C2352 C 0.82082 0.40882 0.60885 0.0
C2353 C 0.8193 0.41891 0.58885 0.0
C2354 C 0.82737 0.37826 0.66984 0.0
C2355 C 0.82333 0.35494 0.66489 0.0
C2356 C 0.81896 0.39015 0.65358 0.0
C2357 C 0.80657 0.37879 0.63214 0.0
C2358 C 0.80069 0.35523 0.62839 0.0
C2359 C 0.80912 0.34337 0.6447 0.0
H2360 H 0.41809 0.01332 0.40453 0.0
H2361 H 0.46766 0.068 0.38728 0.0
H2362 H 0.44142 0.01488 0.44186 0.0
H2363 H 0.49109 0.06959 0.42425 0.0
H2364 H 0.52026 0.07427 0.50012 0.0
H2365 H 0.49362 0.07653 0.46692 0.0
H2366 H 0.47849 1.00449 0.44826 0.0
H2367 H 0.50542 1.00239 0.48169 0.0
C2368 C 0.43352 0.0263 0.40935 0.0
C2369 C 0.44124 0.04082 0.39368 0.0
C2370 C 0.44696 0.02693 0.43032 0.0
C2371 C 0.46804 0.04215 0.43555 0.0
C2372 C 0.4748 0.05784 0.42058 0.0
C2373 C 0.46145 0.05708 0.39961 0.0
C2374 C 0.51115 0.059 0.48882 0.0
C2375 C 0.51425 0.03813 0.49325 0.0
C2376 C 0.49603 0.06027 0.46997 0.0
C2377 C 0.48379 0.04065 0.45554 0.0
C2378 C 0.48746 0.01977 0.45959 0.0
C2379 C 0.50295 0.01856 0.4783 0.0
H2380 H 0.80965 0.75454 0.10133 0.0
H2381 H 0.75419 0.6991 0.10476 0.0
H2382 H 0.81023 0.76814 0.14277 0.0
H2383 H 0.7546 0.71237 0.14593 0.0
H2384 H 0.74894 0.7512 0.21576 0.0
H2385 H 0.74728 0.73951 0.17401 0.0
H2386 H 0.81937 0.76032 0.18133 0.0
H2387 H 0.82083 0.7731 0.22271 0.0
C2388 C 0.79731 0.74553 0.11085 0.0
C2389 C 0.78163 0.72599 0.09969 0.0
C2390 C 0.79778 0.7531 0.13474 0.0
C2391 C 0.78241 0.74147 0.14806 0.0
C2392 C 0.76652 0.7221 0.13651 0.0
C2393 C 0.76629 0.71441 0.11283 0.0
C2394 C 0.76439 0.75373 0.20846 0.0
C2395 C 0.7849 0.76381 0.22284 0.0
C2396 C 0.76351 0.74668 0.18439 0.0
C2397 C 0.7832 0.74913 0.17385 0.0
C2398 C 0.80375 0.75866 0.18839 0.0
C2399 C 0.80458 0.76588 0.21236 0.0
H2400 H 0.14319 0.06141 0.72424 0.0
H2401 H 0.07547 0.03856 0.73803 0.0
H2402 H 0.1298 0.06277 0.68405 0.0
H2403 H 0.06166 0.03829 0.69672 0.0
H2404 H 0.04188 0.05653 0.62401 0.0
H2405 H 0.05419 0.05668 0.66544 0.0
H2406 H 0.1165 0.04366 0.64834 0.0
H2407 H 0.10451 0.04452 0.60752 0.0
C2408 C 0.12529 0.0563 0.71853 0.0
C2409 C 0.11043 0.04976 0.73449 0.0
C2410 C 0.11751 0.05686 0.69516 0.0
C2411 C 0.09448 0.0503 0.68644 0.0
C2412 C 0.0795 0.04378 0.7025 0.0
C2413 C 0.08737 0.04377 0.72627 0.0
C2414 C 0.05832 0.05398 0.62922 0.0
C2415 C 0.07218 0.05056 0.6123 0.0
C2416 C 0.06535 0.05378 0.65308 0.0
C2417 C 0.08652 0.05026 0.66082 0.0
C2418 C 0.10029 0.04691 0.64367 0.0
C2419 C 0.09329 0.04714 0.61994 0.0
H2420 H 0.76532 0.36804 0.44661 0.0
H2421 H 0.8233 0.416 0.43318 0.0
H2422 H 0.7642 0.34534 0.40936 0.0
H2423 H 0.82218 0.39343 0.39545 0.0
H2424 H 0.8322 0.32834 0.35457 0.0
H2425 H 0.83057 0.35598 0.38759 0.0
H2426 H 0.75899 0.34372 0.36735 0.0
H2427 H 0.76074 0.31618 0.33485 0.0
C2428 C 0.7772 0.37405 0.43508 0.0
C2429 C 0.79418 0.39357 0.44217 0.0
C2430 C 0.77666 0.36115 0.4139 0.0
C2431 C 0.79327 0.36765 0.39982 0.0
C2432 C 0.80939 0.38809 0.40627 0.0
C2433 C 0.80983 0.40108 0.42748 0.0
C2434 C 0.81623 0.33157 0.35757 0.0
C2435 C 0.79663 0.32065 0.34251 0.0
C2436 C 0.8153 0.34751 0.37601 0.0
C2437 C 0.79467 0.35209 0.3796 0.0
C2438 C 0.77506 0.34054 0.36476 0.0
C2439 C 0.77604 0.32489 0.34629 0.0
H2440 H 0.39752 1.00833 0.2434 0.0
H2441 H 0.4541 0.06015 0.27959 0.0
H2442 H 0.416 1.00674 0.20891 0.0
H2443 H 0.47226 0.05941 0.24461 0.0
H2444 H 0.50869 0.01663 0.19871 0.0
H2445 H 0.48973 0.03242 0.22825 0.0
H2446 H 0.43089 0.0228 0.17693 0.0
H2447 H 0.44997 1.0064 0.14753 0.0
C2448 C 0.41359 0.01992 0.24367 0.0
C2449 C 0.42453 0.03419 0.26413 0.0
C2450 C 0.42414 0.01917 0.22383 0.0
C2451 C 0.44567 0.03291 0.22405 0.0
C2452 C 0.45583 0.04838 0.24404 0.0
C2453 C 0.44544 0.04885 0.26401 0.0
C2454 C 0.49184 0.01827 0.19379 0.0
C2455 C 0.48048 1.00987 0.17125 0.0
C2456 C 0.48103 0.02757 0.21056 0.0
C2457 C 0.45864 0.0285 0.20501 0.0
C2458 C 0.448 0.02189 0.1818 0.0
C2459 C 0.45889 0.01263 0.16499 0.0
H2460 H 0.80786 0.71557 0.95917 0.0
H2461 H 0.7487 0.74063 0.96146 0.0
H2462 H 0.81138 0.72729 0.92065 0.0
H2463 H 0.75146 0.75128 0.9229 0.0
H2464 H 0.7727 0.79017 0.86553 0.0
H2465 H 0.77073 0.77755 0.90312 0.0
H2466 H 0.7983 0.72225 0.87998 0.0
H2467 H 0.8012 0.73575 0.8421 0.0
C2468 C 0.79556 0.72352 0.95147 0.0
C2469 C 0.77819 0.72746 0.96376 0.0
C2470 C 0.79745 0.73009 0.92919 0.0
C2471 C 0.7819 0.7406 0.9184 0.0
C2472 C 0.76426 0.74394 0.9306 0.0
C2473 C 0.76255 0.73766 0.95286 0.0
C2474 C 0.77859 0.77539 0.86835 0.0
C2475 C 0.78733 0.76415 0.85061 0.0
C2476 C 0.77715 0.7679 0.89006 0.0
C2477 C 0.7841 0.7486 0.89495 0.0
C2478 C 0.79292 0.73727 0.87719 0.0
C2479 C 0.79447 0.74492 0.85532 0.0
H2480 H 0.84271 0.12341 0.10405 0.0
H2481 H 0.81292 0.08634 0.03621 0.0
H2482 H 0.87792 0.11253 0.09949 0.0
H2483 H 0.84767 0.07551 0.03149 0.0
H2484 H 0.90085 0.04362 0.03274 0.0
H2485 H 0.8705 0.05146 0.05294 0.0
H2486 H 0.90535 0.12157 0.06806 0.0
H2487 H 0.93592 0.11354 0.04793 0.0
C2488 C 0.84384 0.11272 0.08839 0.0
C2489 C 0.82564 0.10514 0.07056 0.0
C2490 C 0.86368 0.10655 0.08584 0.0
C2491 C 0.86494 0.09269 0.06556 0.0
C2492 C 0.84662 0.08555 0.04764 0.0
C2493 C 0.82699 0.09181 0.05015 0.0
C2494 C 0.90212 0.06056 0.04091 0.0
C2495 C 0.91983 0.07828 0.03828 0.0
C2496 C 0.88507 0.06495 0.0526 0.0
C2497 C 0.88573 0.08709 0.0615 0.0
C2498 C 0.9047 0.10441 0.06115 0.0
C2499 C 0.9218 0.09998 0.04937 0.0
H2500 H 0.39458 0.4078 0.05333 0.0
H2501 H 0.36995 0.46744 0.06318 0.0
H2502 H 0.43209 0.43087 0.05285 0.0
H2503 H 0.40753 0.49053 0.063 0.0
H2504 H 0.47154 0.52259 0.03462 0.0
H2505 H 0.43441 0.49994 0.03651 0.0
H2506 H 0.4635 0.45714 0.07747 0.0
H2507 H 0.50089 0.47996 0.07564 0.0
C2508 C 0.39715 0.42584 0.05541 0.0
C2509 C 0.37918 0.43572 0.05823 0.0
C2510 C 0.41874 0.4391 0.05534 0.0
C2511 C 0.42292 0.46261 0.05791 0.0
C2512 C 0.40493 0.47249 0.06074 0.0
C2513 C 0.38337 0.45923 0.06098 0.0
C2514 C 0.47013 0.50863 0.04444 0.0
C2515 C 0.48934 0.50341 0.05534 0.0
C2516 C 0.44872 0.49556 0.04547 0.0
C2517 C 0.44584 0.47674 0.05725 0.0
C2518 C 0.46505 0.47142 0.06809 0.0
C2519 C 0.48651 0.4846 0.06718 0.0
H2520 H 0.40822 0.58517 0.80598 0.0
H2521 H 0.37953 0.5695 0.73317 0.0
H2522 H 0.39398 0.61863 0.80942 0.0
H2523 H 0.36602 0.60354 0.73628 0.0
H2524 H 0.32007 0.64858 0.76313 0.0
H2525 H 0.33853 0.61892 0.75224 0.0
H2526 H 0.3979 0.65501 0.7997 0.0
H2527 H 0.37892 0.68405 0.81105 0.0
C2528 C 0.39904 0.58899 0.79064 0.0
C2529 C 0.3949 0.57457 0.76937 0.0
C2530 C 0.39106 0.60837 0.7925 0.0
C2531 C 0.37898 0.61405 0.77305 0.0
C2532 C 0.37504 0.59968 0.75169 0.0
C2533 C 0.38281 0.58013 0.74991 0.0
C2534 C 0.33736 0.65049 0.77047 0.0
C2535 C 0.3481 0.66847 0.78791 0.0
C2536 C 0.34797 0.63344 0.76438 0.0
C2537 C 0.36953 0.63416 0.77562 0.0
C2538 C 0.38105 0.65348 0.79124 0.0
C2539 C 0.37037 0.67035 0.79744 0.0
H2540 H 0.21512 0.5947 0.58256 0.0
H2541 H 0.19819 0.62785 0.52418 0.0
H2542 H 0.17568 0.58195 0.58617 0.0
H2543 H 0.15835 0.61383 0.52662 0.0
H2544 H 0.08982 0.59715 0.55047 0.0
H2545 H 0.12889 0.61529 0.55026 0.0
H2546 H 0.14682 0.55343 0.56156 0.0
H2547 H 0.10785 0.53543 0.56216 0.0
C2548 C 0.20272 0.59889 0.57033 0.0
C2549 C 0.20902 0.61138 0.55258 0.0
C2550 C 0.18035 0.59171 0.57239 0.0
C2551 C 0.16417 0.59646 0.55625 0.0
C2552 C 0.17064 0.60999 0.53921 0.0
C2553 C 0.19318 0.61771 0.53757 0.0
C2554 C 0.10209 0.58735 0.55242 0.0
C2555 C 0.09601 0.56488 0.55604 0.0
C2556 C 0.12438 0.59777 0.55248 0.0
C2557 C 0.14068 0.58575 0.55611 0.0
C2558 C 0.13449 0.56313 0.55919 0.0
C2559 C 0.11226 0.55276 0.55923 0.0
H2560 H 0.69508 0.9898 0.75205 0.0
H2561 H 0.76567 0.02067 0.77132 0.0
H2562 H 0.70239 0.95277 0.75229 0.0
H2563 H 0.77302 0.98412 0.77324 0.0
H2564 H 0.78723 0.92281 0.77939 0.0
H2565 H 0.77382 0.948 0.75515 0.0
H2566 H 0.7119 0.9357 0.78482 0.0
H2567 H 0.7251 0.91001 0.8081 0.0
C2568 C 0.71214 0.98848 0.75634 0.0
C2569 C 0.72991 1.00763 0.76195 0.0
C2570 C 0.71634 0.96744 0.75627 0.0
C2571 C 0.73825 0.96553 0.76261 0.0
C2572 C 0.75604 0.98492 0.76753 0.0
C2573 C 0.75188 1.00585 0.76692 0.0
C2574 C 0.77048 0.92505 0.77998 0.0
C2575 C 0.7574 0.9156 0.79611 0.0
C2576 C 0.7628 0.93931 0.76615 0.0
C2577 C 0.74223 0.94438 0.76879 0.0
C2578 C 0.72795 0.93232 0.78255 0.0
C2579 C 0.73559 0.91799 0.79625 0.0
H2580 H 0.74217 0.91045 0.54184 0.0
H2581 H 0.77806 0.96727 0.59273 0.0
H2582 H 0.70993 0.92667 0.53802 0.0
H2583 H 0.74568 0.98308 0.58966 0.0
H2584 H 0.69698 0.01731 0.54999 0.0
H2585 H 0.72718 1.00072 0.56328 0.0
H2586 H 0.68 0.93599 0.55554 0.0
H2587 H 0.65003 0.95279 0.54111 0.0
C2588 C 0.74311 0.92635 0.55228 0.0
C2589 C 0.76265 0.93764 0.56747 0.0
C2590 C 0.72452 0.93551 0.55039 0.0
C2591 C 0.72511 0.95617 0.56366 0.0
C2592 C 0.74465 0.96726 0.57903 0.0
C2593 C 0.7632 0.95814 0.58087 0.0
C2594 C 0.69305 0.99973 0.55206 0.0
C2595 C 0.67139 0.98626 0.54475 0.0
C2596 C 0.71032 0.99013 0.5596 0.0
C2597 C 0.70613 0.96688 0.56007 0.0
C2598 C 0.68391 0.95383 0.55481 0.0
C2599 C 0.66668 0.96344 0.54699 0.0
H2600 H 0.37485 0.45349 0.7448 0.0
H2601 H 0.41614 0.44953 0.80826 0.0
H2602 H 0.35194 0.41575 0.7458 0.0
H2603 H 0.39306 0.41203 0.80946 0.0
H2604 H 0.33041 0.35712 0.81704 0.0
H2605 H 0.3535 0.39457 0.81535 0.0
H2606 H 0.3559 0.37546 0.74219 0.0
H2607 H 0.33329 0.3377 0.74419 0.0
C2608 C 0.37898 0.4446 0.759 0.0
C2609 C 0.39735 0.45449 0.77643 0.0
C2610 C 0.36594 0.42293 0.75949 0.0
C2611 C 0.37066 0.41087 0.77771 0.0
C2612 C 0.3889 0.4209 0.79526 0.0
C2613 C 0.4022 0.44234 0.79449 0.0
C2614 C 0.33583 0.36101 0.8006 0.0
C2615 C 0.3301 0.34462 0.78073 0.0
C2616 C 0.34917 0.38237 0.79965 0.0
C2617 C 0.35654 0.38803 0.77863 0.0
C2618 C 0.35042 0.37167 0.75862 0.0
C2619 C 0.33759 0.35007 0.75976 0.0
H2620 H 0.25464 0.62417 0.30285 0.0
H2621 H 0.19384 0.63068 0.26289 0.0
H2622 H 0.27003 0.66436 0.30626 0.0
H2623 H 0.20961 0.67076 0.26547 0.0
H2624 H 0.2373 0.74406 0.29073 0.0
H2625 H 0.22139 0.70498 0.2941 0.0
H2626 H 0.28285 0.68875 0.2784 0.0
H2627 H 0.29903 0.72779 0.27599 0.0
C2628 C 0.24461 0.63428 0.29492 0.0
C2629 C 0.22315 0.62463 0.28276 0.0
C2630 C 0.25339 0.65713 0.29678 0.0
C2631 C 0.2409 0.67042 0.28618 0.0
C2632 C 0.2193 0.66079 0.2742 0.0
C2633 C 0.21037 0.63796 0.27264 0.0
C2634 C 0.24754 0.73219 0.28863 0.0
C2635 C 0.26929 0.73866 0.28307 0.0
C2636 C 0.23839 0.70991 0.29029 0.0
C2637 C 0.25096 0.69409 0.28645 0.0
C2638 C 0.27299 0.70079 0.28176 0.0
C2639 C 0.28217 0.72302 0.28025 0.0
H2640 H 0.53826 0.72733 0.5415 0.0
H2641 H 0.52645 0.69946 0.46895 0.0
H2642 H 0.54199 0.69151 0.55237 0.0
H2643 H 0.53132 0.66385 0.47915 0.0
H2644 H 0.5367 0.59586 0.49937 0.0
H2645 H 0.53243 0.63145 0.48863 0.0
H2646 H 0.54925 0.66078 0.56141 0.0
H2647 H 0.55356 0.62499 0.57162 0.0
C2648 C 0.53656 0.71351 0.52773 0.0
C2649 C 0.53176 0.7167 0.50425 0.0
C2650 C 0.53886 0.69245 0.53396 0.0
C2651 C 0.5372 0.6734 0.51702 0.0
C2652 C 0.53262 0.67701 0.49341 0.0
C2653 C 0.52973 0.69789 0.48728 0.0
C2654 C 0.53938 0.6099 0.51315 0.0
C2655 C 0.54535 0.60695 0.53652 0.0
C2656 C 0.53699 0.63091 0.50694 0.0
C2657 C 0.54018 0.65036 0.52379 0.0
C2658 C 0.5463 0.64715 0.54727 0.0
C2659 C 0.54895 0.62617 0.55338 0.0
H2660 H 0.63836 0.33349 0.70292 0.0
H2661 H 0.65235 0.28799 0.64834 0.0
H2662 H 0.67202 0.33113 0.72809 0.0
H2663 H 0.68574 0.28515 0.67347 0.0
H2664 H 0.72896 0.2655 0.73397 0.0
H2665 H 0.69637 0.26956 0.70833 0.0
H2666 H 0.71293 0.34032 0.73428 0.0
H2667 H 0.74572 0.3361 0.75962 0.0
C2668 C 0.6489 0.32331 0.69615 0.0
C2669 C 0.64297 0.31139 0.6734 0.0
C2670 C 0.66821 0.32187 0.71061 0.0
C2671 C 0.68182 0.30788 0.70301 0.0
C2672 C 0.67579 0.29602 0.68014 0.0
C2673 C 0.65679 0.29789 0.66552 0.0
C2674 C 0.72562 0.28191 0.73412 0.0
C2675 C 0.74004 0.30051 0.74866 0.0
C2676 C 0.70698 0.28431 0.71931 0.0
C2677 C 0.70187 0.30534 0.71893 0.0
C2678 C 0.71612 0.32385 0.73399 0.0
C2679 C 0.73502 0.32149 0.74847 0.0
H2680 H 0.05104 0.35941 1.00272 0.0
H2681 H 0.9802 0.34843 0.0036 0.0
H2682 H 0.05606 0.39909 0.01527 0.0
H2683 H 0.9847 0.38806 0.01635 0.0
H2684 H 0.99419 0.46403 0.03394 0.0
H2685 H 0.98867 0.42412 0.02134 0.0
H2686 H 0.06048 0.43252 0.03275 0.0
H2687 H 0.06545 0.47211 0.04415 0.0
C2688 C 0.03642 0.36547 0.0057 0.0
C2689 C 0.01523 0.35021 1.00224 0.0
C2690 C 0.03923 0.38872 0.0132 0.0
C2691 C 0.02092 0.39818 0.01741 0.0
C2692 C 0.99964 0.3826 0.01365 0.0
C2693 C 0.99693 0.35933 0.0064 0.0
C2694 C 1.00876 0.45728 0.03386 0.0
C2695 C 0.03028 0.47182 0.04023 0.0
C2696 C 1.00568 0.43391 0.02649 0.0
C2697 C 0.024 0.4237 0.02548 0.0
C2698 C 0.0455 0.43856 0.03238 0.0
C2699 C 0.0485 0.46184 0.03927 0.0
H2700 H 0.99416 0.81171 0.14799 0.0
H2701 H 0.0267 0.78822 0.20631 0.0
H2702 H 0.96115 0.8103 0.16792 0.0
H2703 H 0.99405 0.78681 0.22605 0.0
H2704 H 0.93992 0.79525 0.26478 0.0
H2705 H 0.97174 0.80987 0.24484 0.0
H2706 H 0.93197 0.77952 0.17833 0.0
H2707 H 0.90023 0.76521 0.1984 0.0
C2708 C 0.99439 0.80664 0.16521 0.0
C2709 C 1.01299 0.80014 0.17565 0.0
C2710 C 0.97551 0.80576 0.17656 0.0
C2711 C 0.97509 0.79874 0.1987 0.0
C2712 C 0.99399 0.7928 0.20927 0.0
C2713 C 1.01264 0.79339 0.19784 0.0
C2714 C 0.93779 0.79258 0.24586 0.0
C2715 C 0.9178 0.77912 0.23304 0.0
C2716 C 0.95602 0.8007 0.23444 0.0
C2717 C 0.95451 0.79542 0.21005 0.0
C2718 C 0.9337 0.78391 0.19711 0.0
C2719 C 0.91552 0.77572 0.20855 0.0
H2720 H 0.51666 0.32582 0.18039 0.0
H2721 H 0.56587 0.3081 0.13985 0.0
H2722 H 0.51794 0.35913 0.1608 0.0
H2723 H 0.56718 0.34098 0.12072 0.0
H2724 H 0.55437 0.38754 0.07417 0.0
H2725 H 0.54149 0.35414 0.09232 0.0
H2726 H 0.54705 0.39573 0.15853 0.0
H2727 H 0.55976 0.42921 0.14008 0.0
C2728 C 0.52761 0.32894 0.16727 0.0
C2729 C 0.54091 0.31416 0.16143 0.0
C2730 C 0.52835 0.34797 0.15612 0.0
C2731 C 0.54224 0.3523 0.13885 0.0
C2732 C 0.55577 0.3377 0.13341 0.0
C2733 C 0.55512 0.3189 0.14453 0.0
C2734 C 0.5518 0.38951 0.09232 0.0
C2735 C 0.55791 0.41073 0.10581 0.0
C2736 C 0.5447 0.37046 0.10278 0.0
C2737 C 0.54375 0.37237 0.12693 0.0
C2738 C 0.54764 0.39379 0.1399 0.0
C2739 C 0.55481 0.41291 0.12938 0.0
H2740 H 0.98866 0.31016 0.30521 0.0
H2741 H 0.9734 0.30731 0.37535 0.0
H2742 H 0.94861 0.30654 0.29136 0.0
H2743 H 0.93442 0.30417 0.362 0.0
H2744 H 0.86145 0.27842 0.33322 0.0
H2745 H 0.901 0.28166 0.34363 0.0
H2746 H 0.91552 0.32198 0.28893 0.0
H2747 H 0.87514 0.31808 0.27792 0.0
C2748 C 0.97692 0.30858 0.31771 0.0
C2749 C 0.98482 0.30902 0.34157 0.0
C2750 C 0.95377 0.30672 0.30978 0.0
C2751 C 0.93751 0.30484 0.32532 0.0
C2752 C 0.94566 0.30509 0.34903 0.0
C2753 C 0.9685 0.30714 0.35686 0.0
C2754 C 0.87284 0.28811 0.32325 0.0
C2755 C 0.86441 0.29809 0.30468 0.0
C2756 C 0.896 0.29015 0.32945 0.0
C2757 C 0.9123 0.30236 0.31751 0.0
C2758 C 0.90395 0.3123 0.29873 0.0
C2759 C 0.88055 0.31028 0.2925 0.0
H2760 H 0.02544 0.68271 0.69536 0.0
H2761 H 1.00606 0.71074 0.63402 0.0
H2762 H 0.02904 0.64951 0.67045 0.0
H2763 H 1.00986 0.67786 0.60918 0.0
H2764 H 0.99965 0.60618 0.57122 0.0
H2765 H 0.99449 0.63875 0.596 0.0
H2766 H 0.05308 0.63843 0.64361 0.0
H2767 H 0.05822 0.6062 0.6185 0.0
C2768 C 0.02142 0.68157 0.6766 0.0
C2769 C 0.01511 0.69931 0.66678 0.0
C2770 C 0.02385 0.66268 0.66224 0.0
C2771 C 0.01979 0.66087 0.63767 0.0
C2772 C 1.01287 0.67838 0.62794 0.0
C2773 C 1.01068 0.69731 0.64225 0.0
C2774 C 1.01134 0.61309 0.58705 0.0
C2775 C 0.02873 0.60301 0.59352 0.0
C2776 C 1.00847 0.63182 0.60125 0.0
C2777 C 0.02306 0.64107 0.62223 0.0
C2778 C 0.041 0.63138 0.62813 0.0
C2779 C 0.04386 0.61272 0.61386 0.0
H2780 H 0.60488 0.81198 0.80867 0.0
H2781 H 0.63715 0.81652 0.87914 0.0
H2782 H 0.63885 0.80491 0.79401 0.0
H2783 H 0.66992 0.80894 0.86498 0.0
H2784 H 0.73659 0.81138 0.83966 0.0
H2785 H 0.70241 0.81833 0.85153 0.0
H2786 H 0.66586 0.78489 0.78465 0.0
H2787 H 0.70091 0.7783 0.77255 0.0
C2788 C 0.61904 0.8116 0.82119 0.0
C2789 C 0.61754 0.81517 0.84541 0.0
C2790 C 0.63882 0.80731 0.8127 0.0
C2791 C 0.65824 0.80643 0.82794 0.0
C2792 C 0.65637 0.80988 0.85204 0.0
C2793 C 0.6369 0.81413 0.86039 0.0
C2794 C 0.72139 0.80537 0.82725 0.0
C2795 C 0.72228 0.79416 0.80491 0.0
C2796 C 0.7012 0.80924 0.83427 0.0
C2797 C 0.68025 0.80218 0.81949 0.0
C2798 C 0.68109 0.79094 0.79697 0.0
C2799 C 0.70148 0.78694 0.78993 0.0
H2800 H 0.44594 0.5286 0.69673 0.0
H2801 H 0.50872 0.53368 0.73987 0.0
H2802 H 0.46508 0.53403 0.66313 0.0
H2803 H 0.52832 0.54018 0.70608 0.0
H2804 H 0.55378 0.52833 0.63504 0.0
H2805 H 0.53636 0.52468 0.67043 0.0
H2806 H 0.48741 0.5586 0.64377 0.0
H2807 H 0.50441 0.5615 0.60824 0.0
C2808 C 0.46396 0.53112 0.69919 0.0
C2809 C 0.47569 0.53063 0.72126 0.0
C2810 C 0.47508 0.53448 0.67974 0.0
C2811 C 0.49848 0.53778 0.68152 0.0
C2812 C 0.5103 0.53744 0.70368 0.0
C2813 C 0.49907 0.53384 0.72322 0.0
C2814 C 0.53938 0.53515 0.63682 0.0
C2815 C 0.53054 0.54515 0.61861 0.0
C2816 C 0.52937 0.53314 0.65727 0.0
C2817 C 0.51017 0.54112 0.66025 0.0
C2818 C 0.50177 0.55169 0.6422 0.0
C2819 C 0.5117 0.55358 0.62175 0.0
H2820 H 0.81632 0.18062 1.0019 0.0
H2821 H 0.74463 0.16823 0.99891 0.0
H2822 H 0.81364 0.19464 0.96392 0.0
H2823 H 0.74177 0.18145 0.96128 0.0
H2824 H 0.73737 0.1998 0.89313 0.0
H2825 H 0.74993 0.17492 0.91859 0.0
H2826 H 0.7995 0.2315 0.95833 0.0
H2827 H 0.78681 0.2563 0.93277 0.0
C2828 C 0.80007 0.1804 0.99273 0.0
C2829 C 0.78068 0.17381 1.00293 0.0
C2830 C 0.79851 0.18821 0.97118 0.0
C2831 C 0.77751 0.18878 0.95977 0.0
C2832 C 0.75808 0.1807 0.96953 0.0
C2833 C 0.75971 0.17346 0.9911 0.0
C2834 C 0.75119 0.20668 0.90711 0.0
C2835 C 0.7607 0.22976 0.91189 0.0
C2836 C 0.75857 0.19253 0.92131 0.0
C2837 C 0.77554 0.20146 0.9403 0.0
C2838 C 0.7865 0.22431 0.94362 0.0
C2839 C 0.77899 0.2385 0.92946 0.0
H2840 H 0.1384 0.55997 0.2309 0.0
H2841 H 0.17803 0.53336 0.18377 0.0
H2842 H 0.11218 0.56324 0.198 0.0
H2843 H 0.15175 0.53682 0.1504 0.0
H2844 H 0.08327 0.51426 0.10506 0.0
H2845 H 0.11279 0.51614 0.13684 0.0
H2846 H 0.10809 0.58256 0.16422 0.0
H2847 H 0.07766 0.58021 0.13267 0.0
C2848 C 0.1412 0.55457 0.21334 0.0
C2849 C 0.15944 0.54561 0.20943 0.0
C2850 C 0.12656 0.55689 0.19463 0.0
C2851 C 0.13001 0.55012 0.17187 0.0
C2852 C 0.14876 0.54187 0.16796 0.0
C2853 C 0.1636 0.53976 0.1868 0.0
C2854 C 0.08858 0.52922 0.11792 0.0
C2855 C 0.07861 0.5472 0.11668 0.0
C2856 C 0.10558 0.53041 0.13584 0.0
C2857 C 0.11287 0.54967 0.15249 0.0
C2858 C 0.10262 0.56756 0.15143 0.0
C2859 C 0.08528 0.56621 0.13366 0.0
H2860 H 0.84516 0.86388 0.48222 0.0
H2861 H 0.77423 0.84012 0.48147 0.0
H2862 H 0.84095 0.85232 0.44075 0.0
H2863 H 0.76967 0.8259 0.44005 0.0
H2864 H 0.76332 0.80828 0.36119 0.0
H2865 H 0.76632 0.82315 0.40221 0.0
H2866 H 0.83812 0.83039 0.40913 0.0
H2867 H 0.83448 0.8176 0.3682 0.0
C2868 C 0.82859 0.85565 0.47305 0.0
C2869 C 0.81009 0.85273 0.48515 0.0
C2870 C 0.82603 0.84857 0.44895 0.0
C2871 C 0.80491 0.83728 0.43604 0.0
C2872 C 0.78631 0.83454 0.44851 0.0
C2873 C 0.78883 0.84254 0.47257 0.0
C2874 C 0.77971 0.81331 0.37167 0.0
C2875 C 0.79874 0.81124 0.36148 0.0
C2876 C 0.78155 0.82171 0.39555 0.0
C2877 C 0.80256 0.82833 0.41012 0.0
C2878 C 0.82149 0.82615 0.39942 0.0
C2879 C 0.81953 0.81804 0.37563 0.0
H2880 H 0.45086 0.51974 0.867 0.0
H2881 H 0.51795 0.53134 0.85021 0.0
H2882 H 0.46481 0.52042 0.90771 0.0
H2883 H 0.53265 0.53456 0.89123 0.0
H2884 H 0.55623 0.52436 0.96461 0.0
H2885 H 0.54188 0.52249 0.92375 0.0
H2886 H 0.47953 0.53344 0.94355 0.0
H2887 H 0.49369 0.53386 0.98394 0.0
C2888 C 0.46877 0.52309 0.87224 0.0
C2889 C 0.48328 0.52554 0.85535 0.0
C2890 C 0.47702 0.52365 0.8959 0.0
C2891 C 0.50025 0.52752 0.90375 0.0
C2892 C 0.5147 0.5308 0.88659 0.0
C2893 C 0.50632 0.52933 0.86281 0.0
C2894 C 0.53934 0.52607 0.96009 0.0
C2895 C 0.52621 0.5293 0.9777 0.0
C2896 C 0.53102 0.52535 0.9364 0.0
C2897 C 0.50924 0.52798 0.92937 0.0
C2898 C 0.49616 0.53099 0.94733 0.0
C2899 C 0.50444 0.53153 0.97092 0.0
H2900 H 0.81791 0.19696 0.12362 0.0
H2901 H 0.7593 0.15346 0.14264 0.0
H2902 H 0.81918 0.22416 0.15772 0.0
H2903 H 0.76078 0.18069 0.17675 0.0
H2904 H 0.75542 0.24917 0.21279 0.0
H2905 H 0.75537 0.22188 0.17883 0.0
H2906 H 0.82458 0.22392 0.2024 0.0
H2907 H 0.8246 0.25092 0.23616 0.0
C2908 C 0.80561 0.19312 0.13533 0.0
C2909 C 0.78848 0.17338 0.13069 0.0
C2910 C 0.80632 0.20858 0.15463 0.0
C2911 C 0.78987 0.20431 0.16921 0.0
C2912 C 0.77335 0.18417 0.16525 0.0
C2913 C 0.77274 0.16861 0.14606 0.0
C2914 C 0.77057 0.24384 0.21035 0.0
C2915 C 0.78991 0.25154 0.22675 0.0
C2916 C 0.7705 0.2283 0.1913 0.0
C2917 C 0.78994 0.221 0.18858 0.0
C2918 C 0.8095 0.22949 0.2045 0.0
C2919 C 0.80946 0.2447 0.22367 0.0
H2920 H 0.13758 0.58409 0.3217 0.0
H2921 H 0.1691 0.53411 0.34662 0.0
H2922 H 0.11898 0.58538 0.35595 0.0
H2923 H 0.14976 0.53514 0.3813 0.0
H2924 H 0.12804 0.57735 0.44857 0.0
H2925 H 0.14775 0.56498 0.41721 0.0
H2926 H 0.08786 0.55554 0.36761 0.0
H2927 H 0.06866 0.56866 0.39866 0.0
C2928 C 0.14029 0.57316 0.33444 0.0
C2929 C 0.15412 0.55845 0.3313 0.0
C2930 C 0.12962 0.57386 0.35398 0.0
C2931 C 0.13231 0.55967 0.37061 0.0
C2932 C 0.14717 0.54585 0.36832 0.0
C2933 C 0.15813 0.54527 0.34864 0.0
C2934 C 0.11906 0.57195 0.43102 0.0
C2935 C 0.09722 0.5744 0.42553 0.0
C2936 C 0.13021 0.56478 0.41324 0.0
C2937 C 0.11936 0.55994 0.39012 0.0
C2938 C 0.09659 0.55966 0.38535 0.0
C2939 C 0.08564 0.56713 0.40295 0.0
H2940 H 0.83996 0.87511 0.63833 0.0
H2941 H 0.77277 0.84213 0.60586 0.0
H2942 H 0.83304 0.85819 0.67367 0.0
H2943 H 0.76553 0.8253 0.64145 0.0
H2944 H 0.75655 0.82058 0.72061 0.0
H2945 H 0.76197 0.83631 0.68404 0.0
H2946 H 0.82641 0.82069 0.6866 0.0
H2947 H 0.8206 0.80446 0.72247 0.0
C2948 C 0.82379 0.86393 0.63868 0.0
C2949 C 0.80713 0.85944 0.61913 0.0
C2950 C 0.81977 0.85426 0.65895 0.0
C2951 C 0.79875 0.8402 0.66049 0.0
C2952 C 0.78191 0.83601 0.64096 0.0
C2953 C 0.78611 0.84541 0.62046 0.0
C2954 C 0.77183 0.82055 0.71327 0.0
C2955 C 0.78819 0.81138 0.72445 0.0
C2956 C 0.77491 0.82942 0.69226 0.0
C2957 C 0.79472 0.82992 0.68233 0.0
C2958 C 0.81104 0.82078 0.69372 0.0
C2959 C 0.80766 0.81135 0.71423 0.0
H2960 H 0.74147 0.44233 0.52913 0.0
H2961 H 0.76431 0.50229 0.4987 0.0
H2962 H 0.71041 0.45604 0.54124 0.0
H2963 H 0.73188 0.51545 0.50873 0.0
H2964 H 0.70151 0.54679 0.56881 0.0
H2965 H 0.72454 0.53103 0.54385 0.0
H2966 H 0.67702 0.46628 0.53541 0.0
H2967 H 0.65493 0.48218 0.56186 0.0
C2968 C 0.739 0.45796 0.52395 0.0
C2969 C 0.75487 0.47133 0.51294 0.0
C2970 C 0.72115 0.46583 0.53078 0.0
C2971 C 0.71865 0.48697 0.52609 0.0
C2972 C 0.73361 0.49935 0.51309 0.0
C2973 C 0.75194 0.49179 0.50704 0.0
C2974 C 0.6961 0.52923 0.56139 0.0
C2975 C 0.67702 0.5154 0.56737 0.0
C2976 C 0.70902 0.52022 0.5468 0.0
C2977 C 0.70274 0.49727 0.53771 0.0
C2978 C 0.6826 0.48387 0.54253 0.0
C2979 C 0.66993 0.49287 0.55752 0.0
H2980 H 0.20926 0.16682 0.54344 0.0
H2981 H 0.21949 0.11445 0.49356 0.0
H2982 H 0.17302 0.1431 0.54797 0.0
H2983 H 0.1826 0.09087 0.4974 0.0
H2984 H 0.10258 0.07287 0.49514 0.0
H2985 H 0.13983 0.09407 0.48937 0.0
H2986 H 0.16104 0.10431 0.56385 0.0
H2987 H 0.12427 0.08216 0.5694 0.0
C2988 C 0.20347 0.15038 0.53308 0.0
C2989 C 0.2169 0.14253 0.51788 0.0
C2990 C 0.18289 0.13676 0.53585 0.0
C2991 C 0.17506 0.1152 0.52302 0.0
C2992 C 0.18827 0.10748 0.50741 0.0
C2993 C 0.20926 0.12091 0.50518 0.0
C2994 C 0.11533 0.0796 0.51017 0.0
C2995 C 0.11066 0.07624 0.53269 0.0
C2996 C 0.13658 0.09156 0.50689 0.0
C2997 C 0.15318 0.10093 0.52618 0.0
C2998 C 0.14849 0.09733 0.5487 0.0
C2999 C 0.12755 0.08468 0.55187 0.0
H3000 H 0.15855 0.97759 0.76625 0.0
H3001 H 0.21103 1.00954 0.82302 0.0
H3002 H 0.17542 0.94607 0.76031 0.0
H3003 H 0.22776 0.97747 0.81801 0.0
H3004 H 0.26694 0.93621 0.77438 0.0
H3005 H 0.24824 0.96333 0.79136 0.0
H3006 H 0.18456 0.91439 0.7724 0.0
H3007 H 0.2035 0.88788 0.75431 0.0
C3008 C 0.17336 0.97738 0.77794 0.0
C3009 C 0.1834 0.99559 0.79526 0.0
C3010 C 0.18302 0.95927 0.77471 0.0
C3011 C 0.20296 0.95905 0.78878 0.0
C3012 C 0.21252 0.97711 0.80674 0.0
C3013 C 0.20287 0.99534 0.80983 0.0
C3014 C 0.24903 0.93121 0.77451 0.0
C3015 C 0.23653 0.91022 0.76313 0.0
C3016 C 0.23825 0.94666 0.78429 0.0
C3017 C 0.21476 0.94124 0.78293 0.0
C3018 C 0.20257 0.91936 0.77324 0.0
C3019 C 0.21337 0.90406 0.76317 0.0
H3020 H 0.36846 0.95029 0.0434 0.0
H3021 H 0.36784 0.97998 0.97964 0.0
H3022 H 0.40846 0.96736 0.05362 0.0
H3023 H 0.4082 0.99676 0.98975 0.0
H3024 H 0.48225 0.99549 0.0044 0.0
H3025 H 0.44252 0.97659 0.99634 0.0
H3026 H 0.43216 0.01097 0.0615 0.0
H3027 H 0.47202 0.03082 0.06896 0.0
C3028 C 0.37706 0.96025 0.03149 0.0
C3029 C 0.36555 0.96375 0.01065 0.0
C3030 C 0.39969 0.97008 0.03744 0.0
C3031 C 0.41093 0.98305 0.02233 0.0
C3032 C 0.39951 0.98657 1.00143 0.0
C3033 C 0.37669 0.9771 0.9957 0.0
C3034 C 0.47145 0.99858 0.01712 0.0
C3035 C 0.4796 0.01428 0.03723 0.0
C3036 C 0.44894 0.988 0.01247 0.0
C3037 C 0.43473 0.99274 0.02826 0.0
C3038 C 0.44317 1.00734 0.04921 0.0
C3039 C 0.4657 0.01843 0.05355 0.0
H3040 H 0.87342 0.58009 0.79201 0.0
H3041 H 0.8504 0.59084 0.85857 0.0
H3042 H 0.86274 0.61287 0.78079 0.0
H3043 H 0.83996 0.62473 0.84769 0.0
H3044 H 0.78812 0.64754 0.79514 0.0
H3045 H 0.80971 0.62824 0.81964 0.0
H3046 H 0.86745 0.65208 0.78565 0.0
H3047 H 0.84516 0.67004 0.7602 0.0
C3048 C 0.86653 0.59004 0.80444 0.0
C3049 C 0.86238 0.58324 0.8259 0.0
C3050 C 0.86072 0.609 0.79823 0.0
C3051 C 0.85066 0.62152 0.81346 0.0
C3052 C 0.84768 0.61532 0.83566 0.0
C3053 C 0.85359 0.59612 0.8419 0.0
C3054 C 0.8055 0.64865 0.7932 0.0
C3055 C 0.81496 0.65919 0.77542 0.0
C3056 C 0.81798 0.63806 0.80745 0.0
C3057 C 0.84013 0.63831 0.8042 0.0
C3058 C 0.85022 0.65116 0.78808 0.0
C3059 C 0.83756 0.66125 0.77347 0.0
H3060 H 0.82417 0.63305 0.0761 0.0
H3061 H 0.84984 0.66133 0.01711 0.0
H3062 H 0.8541 0.61425 0.08018 0.0
H3063 H 0.88017 0.64189 0.02116 0.0
H3064 H 0.94349 0.62593 0.06803 0.0
H3065 H 0.91408 0.64284 0.05186 0.0
H3066 H 0.86419 0.58273 0.05699 0.0
H3067 H 0.89348 0.56629 0.07353 0.0
C3068 C 0.83611 0.6351 0.06381 0.0
C3069 C 0.83449 0.64845 0.04608 0.0
C3070 C 0.85319 0.62416 0.06607 0.0
C3071 C 0.86904 0.62613 0.05056 0.0
C3072 C 0.86793 0.63994 0.03314 0.0
C3073 C 0.85066 0.65102 0.03086 0.0
C3074 C 0.92625 0.61619 0.06482 0.0
C3075 C 0.92042 0.59504 0.07202 0.0
C3076 C 0.9095 0.62577 0.05559 0.0
C3077 C 0.88691 0.61421 0.05369 0.0
C3078 C 0.88148 0.59209 0.05866 0.0
C3079 C 0.89814 0.58263 0.06794 0.0
H3080 H 0.1932 0.12954 0.84636 0.0
H3081 H 0.18959 0.10945 0.77245 0.0
H3082 H 0.21914 0.16512 0.84359 0.0
H3083 H 0.21354 0.14543 0.76887 0.0
H3084 H 0.27156 0.20341 0.76914 0.0
H3085 H 0.2484 0.16743 0.77412 0.0
H3086 H 0.22457 0.1996 0.83276 0.0
H3087 H 0.24901 0.23517 0.82854 0.0
C3088 C 0.1978 0.13298 0.8295 0.0
C3089 C 0.18971 0.11689 0.80967 0.0
C3090 C 0.2125 0.15344 0.82775 0.0
C3091 C 0.21878 0.15841 0.80596 0.0
C3092 C 0.20995 0.14223 0.7861 0.0
C3093 C 0.19594 0.12162 0.78804 0.0
C3094 C 0.26169 0.20263 0.78337 0.0
C3095 C 0.26219 0.22205 0.79854 0.0
C3096 C 0.24802 0.182 0.78605 0.0
C3097 C 0.23422 0.18031 0.80379 0.0
C3098 C 0.23505 0.19988 0.8191 0.0
C3099 C 0.24892 0.22044 0.81655 0.0
H3100 H 0.38785 0.94594 0.34438 0.0
H3101 H 0.34722 0.9709 0.29364 0.0
H3102 H 0.36908 0.90758 0.3268 0.0
H3103 H 0.33026 0.93314 0.27436 0.0
H3104 H 0.28246 0.86438 0.27429 0.0
H3105 H 0.30443 0.9026 0.27963 0.0
H3106 H 0.36486 0.87992 0.29533 0.0
H3107 H 0.34216 0.84194 0.29234 0.0
C3108 C 0.37488 0.94301 0.32944 0.0
C3109 C 0.36838 0.96086 0.32054 0.0
C3110 C 0.36455 0.92124 0.31896 0.0
C3111 C 0.34841 0.91732 0.29886 0.0
C3112 C 0.34232 0.93549 0.28996 0.0
C3113 C 0.3519 0.95707 0.30103 0.0
C3114 C 0.30055 0.86765 0.27779 0.0
C3115 C 0.31082 0.85068 0.28292 0.0
C3116 C 0.31325 0.88953 0.28087 0.0
C3117 C 0.33638 0.89436 0.28867 0.0
C3118 C 0.34696 0.87673 0.29014 0.0
C3119 C 0.3341 0.85491 0.28778 0.0
H3120 H 0.60956 0.38038 0.58327 0.0
H3121 H 0.54485 0.36466 0.60597 0.0
H3122 H 0.60425 0.41682 0.57518 0.0
H3123 H 0.53932 0.40116 0.59776 0.0
H3124 H 0.52724 0.46283 0.56357 0.0
H3125 H 0.53191 0.42627 0.5718 0.0
H3126 H 0.60323 0.45375 0.58803 0.0
H3127 H 0.5984 0.49023 0.57953 0.0
C3128 C 0.59404 0.38453 0.58649 0.0
C3129 C 0.57772 0.36892 0.59534 0.0
C3130 C 0.591 0.40586 0.58198 0.0
C3131 C 0.57126 0.41283 0.58569 0.0
C3132 C 0.55477 0.39703 0.5943 0.0
C3133 C 0.558 0.3758 0.5992 0.0
C3134 C 0.54398 0.46123 0.56873 0.0
C3135 C 0.56233 0.48013 0.57047 0.0
C3136 C 0.54673 0.43994 0.57376 0.0
C3137 C 0.56808 0.43615 0.58064 0.0
C3138 C 0.58643 0.45515 0.58249 0.0
C3139 C 0.58363 0.47649 0.57768 0.0
H3140 H 0.42604 0.78523 0.42352 0.0
H3141 H 0.46017 0.78578 0.36314 0.0
H3142 H 0.39172 0.78645 0.39929 0.0
H3143 H 0.42561 0.7849 0.33832 0.0
H3144 H 0.36769 0.80561 0.30029 0.0
H3145 H 0.40111 0.80312 0.32439 0.0
H3146 H 0.36058 0.77218 0.37326 0.0
H3147 H 0.32714 0.77554 0.3493 0.0
C3148 C 0.42604 0.78512 0.4049 0.0
C3149 C 0.44592 0.78552 0.39533 0.0
C3150 C 0.40619 0.78567 0.39079 0.0
C3151 C 0.40533 0.78597 0.36642 0.0
C3152 C 0.42525 0.78549 0.3569 0.0
C3153 C 0.44522 0.7857 0.37114 0.0
C3154 C 0.36578 0.79804 0.31603 0.0
C3155 C 0.3444 0.79063 0.3225 0.0
C3156 C 0.38521 0.79648 0.33005 0.0
C3157 C 0.38416 0.78727 0.35116 0.0
C3158 C 0.36264 0.77972 0.35753 0.0
C3159 C 0.34319 0.78146 0.34354 0.0
H3160 H 0.08539 0.73891 0.07034 0.0
H3161 H 0.03702 0.72534 0.11765 0.0
H3162 H 0.08334 0.69868 0.06242 0.0
H3163 H 0.03579 0.68651 0.11131 0.0
H3164 H 0.02733 0.6125 0.09515 0.0
H3165 H 0.02921 0.65173 0.10028 0.0
H3166 H 0.08602 0.66352 0.06245 0.0
H3167 H 0.08282 0.62334 0.0562 0.0
C3168 C 0.07402 0.72745 0.07882 0.0
C3169 C 0.06116 0.73601 0.09447 0.0
C3170 C 0.07301 0.70398 0.07457 0.0
C3171 C 0.05924 0.68792 0.08592 0.0
C3172 C 0.04641 0.69693 0.10137 0.0
C3173 C 0.04721 0.71999 0.10528 0.0
C3174 C 0.04035 0.62331 0.08786 0.0
C3175 C 0.05502 0.61398 0.07535 0.0
C3176 C 0.04168 0.64658 0.09102 0.0
C3177 C 0.05804 0.66233 0.08215 0.0
C3178 C 0.07295 0.6529 0.06974 0.0
C3179 C 0.07136 0.62939 0.06633 0.0
H3180 H 0.06326 0.23292 0.88937 0.0
H3181 H 0.08183 0.30261 0.91965 0.0
H3182 H 0.0987 0.23749 0.87393 0.0
H3183 H 0.1168 0.30759 0.90331 0.0
H3184 H 0.18371 0.31249 0.88294 0.0
H3185 H 0.15237 0.30122 0.90441 0.0
H3186 H 0.11785 0.25238 0.84493 0.0
H3187 H 0.14975 0.26323 0.82409 0.0
C3188 C 0.07485 0.24931 0.89257 0.0
C3189 C 0.06958 0.26744 0.90566 0.0
C3190 C 0.09524 0.25197 0.88363 0.0
C3191 C 0.1109 0.27292 0.88725 0.0
C3192 C 0.10558 0.29103 0.90048 0.0
C3193 C 0.08532 0.28827 0.90969 0.0
C3194 C 0.16981 0.29864 0.87494 0.0
C3195 C 0.16923 0.28861 0.85192 0.0
C3196 C 0.15156 0.29248 0.88703 0.0
C3197 C 0.13205 0.27633 0.87626 0.0
C3198 C 0.13242 0.26488 0.85396 0.0
C3199 C 0.15081 0.27096 0.84196 0.0
H3200 H 0.52708 0.75639 0.92166 0.0
H3201 H 0.59853 0.76565 0.93673 0.0
H3202 H 0.52129 0.72166 0.93845 0.0
H3203 H 0.59298 0.73008 0.95211 0.0
H3204 H 0.57372 0.68197 0.00622 0.0
H3205 H 0.58331 0.71256 0.98341 0.0
H3206 H 0.52161 0.68465 0.93604 0.0
H3207 H 0.51171 0.65495 0.95993 0.0
C3208 C 0.54156 0.75078 0.92827 0.0
C3209 C 0.56322 0.76389 0.92808 0.0
C3210 C 0.5383 0.73063 0.9377 0.0
C3211 C 0.55664 0.72266 0.94669 0.0
C3212 C 0.57836 0.73564 0.94588 0.0
C3213 C 0.58159 0.75608 0.93697 0.0
C3214 C 0.56259 0.68213 0.99053 0.0
C3215 C 0.54196 0.66625 0.98488 0.0
C3216 C 0.56801 0.69973 0.97736 0.0
C3217 C 0.55295 0.70174 0.95809 0.0
C3218 C 0.5333 0.68437 0.95121 0.0
C3219 C 0.52776 0.66703 0.96462 0.0
H3220 H 0.10808 0.78969 0.70783 0.0
H3221 H 0.09633 0.75519 0.76711 0.0
H3222 H 0.14702 0.79119 0.71497 0.0
H3223 H 0.13659 0.75769 0.77552 0.0
H3224 H 0.21151 0.75677 0.7833 0.0
H3225 H 0.17137 0.75336 0.77632 0.0
H3226 H 0.18219 0.8001 0.72647 0.0
H3227 H 0.22161 0.80201 0.73248 0.0
C3228 C 0.11382 0.78263 0.72288 0.0
C3229 C 0.09824 0.77242 0.73684 0.0
C3230 C 0.13693 0.78367 0.72726 0.0
C3231 C 0.14646 0.77486 0.74623 0.0
C3232 C 0.13087 0.76479 0.76057 0.0
C3233 C 0.10737 0.76355 0.75595 0.0
C3234 C 0.2053 0.76596 0.77046 0.0
C3235 C 0.22049 0.77942 0.7583 0.0
C3236 C 0.1818 0.76426 0.76656 0.0
C3237 C 0.1721 0.77628 0.75055 0.0
C3238 C 0.18762 0.78987 0.73861 0.0
C3239 C 0.21094 0.79123 0.74223 0.0
H3240 H 0.04293 0.40644 0.41038 0.0
H3241 H 0.05411 0.37543 0.4717 0.0
H3242 H 0.04229 0.44095 0.43498 0.0
H3243 H 0.05514 0.41026 0.49655 0.0
H3244 H 0.02962 0.46545 0.53492 0.0
H3245 H 0.03312 0.43235 0.51081 0.0
H3246 H 0.0603 0.47329 0.46055 0.0
H3247 H 0.05707 0.50662 0.48509 0.0
C3248 C 0.04575 0.40721 0.4292 0.0
C3249 C 0.0485 0.38818 0.43908 0.0
C3250 C 0.04549 0.4271 0.44343 0.0
C3251 C 0.04849 0.42875 0.46807 0.0
C3252 C 0.05209 0.40977 0.4778 0.0
C3253 C 0.05174 0.38974 0.46355 0.0
C3254 C 0.03685 0.46763 0.51906 0.0
C3255 C 0.04339 0.4891 0.51246 0.0
C3256 C 0.03882 0.4484 0.50499 0.0
C3257 C 0.04714 0.44972 0.48347 0.0
C3258 C 0.05361 0.47122 0.47677 0.0
C3259 C 0.05187 0.49053 0.49103 0.0
H3260 H 0.44552 0.23078 0.2129 0.0
H3261 H 0.47826 0.28225 0.26996 0.0
H3262 H 0.40933 0.23691 0.21978 0.0
H3263 H 0.44212 0.28829 0.27775 0.0
H3264 H 0.37394 0.30245 0.28742 0.0
H3265 H 0.41022 0.29771 0.27926 0.0
H3266 H 0.37735 0.23731 0.23171 0.0
H3267 H 0.34131 0.24286 0.23941 0.0
C3268 C 0.44504 0.24347 0.2271 0.0
C3269 C 0.46533 0.2559 0.24076 0.0
C3270 C 0.42383 0.24705 0.23135 0.0
C3271 C 0.42146 0.26324 0.2497 0.0
C3272 C 0.44207 0.27572 0.26329 0.0
C3273 C 0.4633 0.27218 0.25891 0.0
C3274 C 0.37434 0.2882 0.27506 0.0
C3275 C 0.35397 0.27318 0.26422 0.0
C3276 C 0.39565 0.28522 0.27035 0.0
C3277 C 0.39806 0.26686 0.2546 0.0
C3278 C 0.37745 0.25192 0.24376 0.0
C3279 C 0.35619 0.25503 0.24834 0.0
H3280 H 0.64488 0.56657 0.39577 0.0
H3281 H 0.5777 0.5333 0.36368 0.0
H3282 H 0.63364 0.56351 0.43461 0.0
H3283 H 0.56655 0.52901 0.4022 0.0
H3284 H 0.54576 0.5485 0.47254 0.0
H3285 H 0.55823 0.5493 0.43476 0.0
H3286 H 0.62254 0.54168 0.46445 0.0
H3287 H 0.60949 0.54001 0.5026 0.0
C3288 C 0.62777 0.55818 0.39702 0.0
C3289 C 0.61217 0.5502 0.37656 0.0
C3290 C 0.62128 0.55634 0.41938 0.0
C3291 C 0.59899 0.54615 0.42201 0.0
C3292 C 0.58369 0.53753 0.4013 0.0
C3293 C 0.59009 0.53978 0.37905 0.0
C3294 C 0.56227 0.54609 0.47109 0.0
C3295 C 0.57608 0.5431 0.49084 0.0
C3296 C 0.56962 0.5468 0.44914 0.0
C3297 C 0.5914 0.54514 0.44593 0.0
C3298 C 0.60561 0.54292 0.46586 0.0
C3299 C 0.59805 0.54181 0.48787 0.0
H3300 H 0.32847 0.9186 0.06498 0.0
H3301 H 0.25769 0.90534 0.06905 0.0
H3302 H 0.33335 0.89571 0.09562 0.0
H3303 H 0.26271 0.88275 0.10067 0.0
H3304 H 0.30439 0.87369 0.17619 0.0
H3305 H 0.28917 0.89128 0.14466 0.0
H3306 H 0.31591 0.85144 0.09483 0.0
H3307 H 0.3309 0.83361 0.12617 0.0
C3308 C 0.31409 0.91123 0.073 0.0
C3309 C 0.29279 0.91383 0.0652 0.0
C3310 C 0.31681 0.89795 0.0902 0.0
C3311 C 0.29831 0.88734 0.10006 0.0
C3312 C 0.27709 0.89072 0.09303 0.0
C3313 C 0.27426 0.90364 0.07524 0.0
C3314 C 0.30639 0.86818 0.1584 0.0
C3315 C 0.31932 0.85276 0.15356 0.0
C3316 C 0.29763 0.87819 0.14045 0.0
C3317 C 0.3018 0.87286 0.11762 0.0
C3318 C 0.31283 0.85592 0.11249 0.0
C3319 C 0.32152 0.8459 0.13035 0.0
H3320 H 0.91644 0.51263 0.91033 0.0
H3321 H 0.96508 0.57106 0.89894 0.0
H3322 H 0.93815 0.51298 0.94835 0.0
H3323 H 0.98684 0.57156 0.93669 0.0
H3324 H 1.01199 0.57493 0.01255 0.0
H3325 H 0.98514 0.57627 0.97921 0.0
H3326 H 0.97646 0.50533 0.95749 0.0
H3327 H 1.00353 0.50406 0.99119 0.0
C3328 C 0.93135 0.526 0.91652 0.0
C3329 C 0.93917 0.54212 0.90243 0.0
C3330 C 0.94383 0.52602 0.93791 0.0
C3331 C 0.96406 0.54224 0.94518 0.0
C3332 C 0.97111 0.55907 0.93149 0.0
C3333 C 0.95876 0.55889 0.91008 0.0
C3334 C 1.00413 0.55962 1.00071 0.0
C3335 C 1.00943 0.53935 0.00412 0.0
C3336 C 0.9889 0.56041 0.98174 0.0
C3337 C 0.97874 0.54089 0.9661 0.0
C3338 C 0.98396 0.5205 0.96962 0.0
C3339 C 0.99951 0.5198 0.98852 0.0
H3340 H 0.28769 0.25312 0.58885 0.0
H3341 H 0.28877 0.18797 0.60759 0.0
H3342 H 0.28874 0.2674 0.63009 0.0
H3343 H 0.28833 0.20145 0.64789 0.0
H3344 H 0.30577 0.23248 0.72303 0.0
H3345 H 0.3062 0.2203 0.68223 0.0
H3346 H 0.27213 0.2706 0.66324 0.0
H3347 H 0.27313 0.28374 0.70457 0.0
C3348 C 0.28812 0.24182 0.60168 0.0
C3349 C 0.28836 0.2194 0.5946 0.0
C3350 C 0.28847 0.24993 0.62549 0.0
C3351 C 0.28875 0.23582 0.643 0.0
C3352 C 0.2888 0.21335 0.63561 0.0
C3353 C 0.28885 0.20544 0.61208 0.0
C3354 C 0.29836 0.24106 0.71024 0.0
C3355 C 0.28931 0.25914 0.71746 0.0
C3356 C 0.29838 0.23384 0.68647 0.0
C3357 C 0.28901 0.24413 0.66871 0.0
C3358 C 0.27983 0.26222 0.67598 0.0
C3359 C 0.28011 0.26966 0.6999 0.0
H3360 H 0.64183 0.53624 0.22524 0.0
H3361 H 0.58218 0.55269 0.24561 0.0
H3362 H 0.62865 0.53677 0.18496 0.0
H3363 H 0.56784 0.55168 0.20449 0.0
H3364 H 0.55323 0.56537 0.1294 0.0
H3365 H 0.5665 0.56618 0.17054 0.0
H3366 H 0.60797 0.52171 0.1511 0.0
H3367 H 0.59617 0.5227 0.11036 0.0
C3368 C 0.62555 0.53958 0.22112 0.0
C3369 C 0.61313 0.54436 0.23906 0.0
C3370 C 0.61774 0.53967 0.19757 0.0
C3371 C 0.59683 0.54408 0.19063 0.0
C3372 C 0.58415 0.5485 0.20863 0.0
C3373 C 0.59223 0.54878 0.23242 0.0
C3374 C 0.5655 0.55612 0.13392 0.0
C3375 C 0.57382 0.54434 0.11623 0.0
C3376 C 0.57296 0.55626 0.15778 0.0
C3377 C 0.58862 0.54409 0.16493 0.0
C3378 C 0.59651 0.53194 0.14702 0.0
C3379 C 0.58948 0.53229 0.12327 0.0
H3380 H 0.33028 0.88551 0.95024 0.0
H3381 H 0.26755 0.89946 0.92482 0.0
H3382 H 0.33242 0.86788 0.91149 0.0
H3383 H 0.26819 0.87973 0.8865 0.0
H3384 H 0.27555 0.84782 0.81729 0.0
H3385 H 0.28121 0.87498 0.85203 0.0
H3386 H 0.31615 0.83411 0.89034 0.0
H3387 H 0.31328 0.80894 0.85493 0.0
C3388 C 0.3168 0.88446 0.93625 0.0
C3389 C 0.29837 0.89302 0.94031 0.0
C3390 C 0.31793 0.87429 0.91412 0.0
C3391 C 0.30011 0.87163 0.89603 0.0
C3392 C 0.28229 0.88148 0.89993 0.0
C3393 C 0.28166 0.89249 0.92191 0.0
C3394 C 0.28456 0.84479 0.83316 0.0
C3395 C 0.29358 0.82605 0.83358 0.0
C3396 C 0.28772 0.86031 0.85312 0.0
C3397 C 0.29899 0.85675 0.87411 0.0
C3398 C 0.30784 0.83782 0.87444 0.0
C3399 C 0.3056 0.82291 0.85424 0.0
H3400 H 0.95188 0.52621 0.7915 0.0
H3401 H 0.9027 0.55324 0.75379 0.0
H3402 H 0.97059 0.52362 0.7575 0.0
H3403 H 0.92248 0.55221 0.71956 0.0
H3404 H 0.94613 0.51131 0.65824 0.0
H3405 H 0.92886 0.52573 0.69032 0.0
H3406 H 0.99327 0.54416 0.73431 0.0
H3407 H 1.00989 0.52809 0.7026 0.0
C3408 C 0.94555 0.53225 0.77597 0.0
C3409 C 0.92623 0.54029 0.77512 0.0
C3410 C 0.95637 0.53101 0.75653 0.0
C3411 C 0.94846 0.53837 0.73597 0.0
C3412 C 0.92903 0.54652 0.73518 0.0
C3413 C 0.91778 0.54719 0.75464 0.0
C3414 C 0.95649 0.5188 0.67475 0.0
C3415 C 0.97898 0.51803 0.67856 0.0
C3416 C 0.94673 0.52726 0.69303 0.0
C3417 C 0.95956 0.53537 0.71511 0.0
C3418 C 0.98277 0.53717 0.71776 0.0
C3419 C 0.99234 0.52814 0.69971 0.0
H3420 H 0.31332 0.21667 0.45529 0.0
H3421 H 0.2483 0.23064 0.45278 0.0
H3422 H 0.31673 0.22872 0.417 0.0
H3423 H 0.25077 0.24114 0.41412 0.0
H3424 H 0.26671 0.27937 0.3542 0.0
H3425 H 0.26425 0.26694 0.392 0.0
H3426 H 0.30872 0.22436 0.37712 0.0
H3427 H 0.3116 0.23769 0.33929 0.0
C3428 C 0.29966 0.22219 0.44651 0.0
C3429 C 0.2807 0.22302 0.45751 0.0
C3430 C 0.30148 0.22896 0.42426 0.0
C3431 C 0.28419 0.23638 0.41195 0.0
C3432 C 0.26496 0.23646 0.42287 0.0
C3433 C 0.26339 0.23019 0.44523 0.0
C3434 C 0.27612 0.26746 0.35905 0.0
C3435 C 0.28945 0.25967 0.34361 0.0
C3436 C 0.27448 0.25997 0.38083 0.0
C3437 C 0.28612 0.2443 0.38822 0.0
C3438 C 0.29955 0.23652 0.37262 0.0
C3439 C 0.30109 0.244 0.35066 0.0
H3440 H 0.31473 0.56534 0.55865 0.0
H3441 H 0.34315 0.63632 0.57877 0.0
H3442 H 0.35214 0.55914 0.55993 0.0
H3443 H 0.38069 0.6302 0.58212 0.0
H3444 H 0.43234 0.61194 0.53619 0.0
H3445 H 0.40188 0.62227 0.55354 0.0
H3446 H 0.38702 0.55891 0.58048 0.0
H3447 H 0.41707 0.54826 0.56184 0.0
C3448 C 0.32914 0.57947 0.56378 0.0
C3449 C 0.32652 0.60124 0.56807 0.0
C3450 C 0.35052 0.57598 0.56501 0.0
C3451 C 0.36941 0.59423 0.57125 0.0
C3452 C 0.36649 0.61589 0.57691 0.0
C3453 C 0.34514 0.61942 0.57486 0.0
C3454 C 0.42281 0.60054 0.54629 0.0
C3455 C 0.42629 0.57917 0.54713 0.0
C3456 C 0.40556 0.6065 0.55655 0.0
C3457 C 0.39164 0.59107 0.56781 0.0
C3458 C 0.39713 0.57082 0.57131 0.0
C3459 C 0.41434 0.56479 0.56082 0.0
H3460 H 0.89841 0.91153 0.55792 0.0
H3461 H 0.86846 0.96793 0.56059 0.0
H3462 H 0.93447 0.93632 0.55493 0.0
H3463 H 0.90453 0.99279 0.55792 0.0
H3464 H 0.96775 0.02681 0.52864 0.0
H3465 H 0.93141 1.00249 0.53169 0.0
H3466 H 0.96407 0.96554 0.57715 0.0
H3467 H 1.00023 0.98959 0.57393 0.0
C3468 C 0.89952 0.92923 0.55787 0.0
C3469 C 0.88052 0.9377 0.55953 0.0
C3470 C 0.92026 0.94352 0.55633 0.0
C3471 C 0.92253 0.96666 0.5562 0.0
C3472 C 0.90345 0.97508 0.55772 0.0
C3473 C 0.88276 0.96082 0.55946 0.0
C3474 C 0.96716 0.01368 0.53951 0.0
C3475 C 0.98699 1.01032 0.55113 0.0
C3476 C 0.94628 0.99969 0.54127 0.0
C3477 C 0.9447 0.98192 0.55462 0.0
C3478 C 0.96456 0.97877 0.56641 0.0
C3479 C 0.98536 0.99275 0.5647 0.0
H3480 H 0.92236 0.09212 0.25727 0.0
H3481 H 0.86654 0.05312 0.28437 0.0
H3482 H 0.90553 0.12418 0.25956 0.0
H3483 H 0.85009 0.08531 0.28801 0.0
H3484 H 0.8159 0.13875 0.28106 0.0
H3485 H 0.83183 0.10797 0.26715 0.0
H3486 H 0.89836 0.15158 0.28667 0.0
H3487 H 0.88216 0.18226 0.29955 0.0
C3488 C 0.90662 0.09066 0.26407 0.0
C3489 C 0.89572 0.07047 0.27088 0.0
C3490 C 0.89693 0.10893 0.26536 0.0
C3491 C 0.87628 0.10734 0.27373 0.0
C3492 C 0.86565 0.08702 0.28084 0.0
C3493 C 0.87519 0.06869 0.27918 0.0
C3494 C 0.83385 0.14188 0.28125 0.0
C3495 C 0.8479 0.16269 0.29127 0.0
C3496 C 0.84304 0.1242 0.27376 0.0
C3497 C 0.86643 0.12706 0.27649 0.0
C3498 C 0.88031 0.14865 0.28431 0.0
C3499 C 0.87108 0.16631 0.29163 0.0
H3500 H 0.71565 0.09335 0.08243 0.0
H3501 H 0.69785 0.129 0.02657 0.0
H3502 H 0.67651 0.07777 0.0844 0.0
H3503 H 0.65835 0.11144 0.0264 0.0
H3504 H 0.5881 0.0851 0.03928 0.0
H3505 H 0.62641 0.10678 0.043 0.0
H3506 H 0.64933 0.04966 0.06314 0.0
H3507 H 0.61108 0.02875 0.06096 0.0
C3508 C 0.7031 0.09737 0.07024 0.0
C3509 C 0.70919 0.11154 0.0538 0.0
C3510 C 0.68076 0.08842 0.07124 0.0
C3511 C 0.6643 0.09268 0.05499 0.0
C3512 C 0.67058 0.10779 0.03917 0.0
C3513 C 0.69305 0.11755 0.03891 0.0
C3514 C 0.6014 0.07718 0.04425 0.0
C3515 C 0.59678 0.05522 0.04955 0.0
C3516 C 0.62335 0.08961 0.04642 0.0
C3517 C 0.64097 0.08004 0.05346 0.0
C3518 C 0.6362 0.05783 0.05824 0.0
C3519 C 0.61428 0.0456 0.05651 0.0
H3520 H 0.24995 0.51716 0.30325 0.0
H3521 H 0.20666 0.48969 0.2381 0.0
H3522 H 0.26086 0.48183 0.3042 0.0
H3523 H 0.21773 0.45416 0.2387 0.0
H3524 H 0.22213 0.39267 0.28266 0.0
H3525 H 0.21259 0.4246 0.26649 0.0
H3526 H 0.28251 0.46008 0.2793 0.0
H3527 H 0.29188 0.4282 0.29557 0.0
C3528 C 0.24285 0.50338 0.28925 0.0
C3529 C 0.22773 0.50554 0.27063 0.0
C3530 C 0.24926 0.48347 0.28951 0.0
C3531 C 0.24061 0.46579 0.27105 0.0
C3532 C 0.22482 0.46783 0.25279 0.0
C3533 C 0.21843 0.48783 0.25255 0.0
C3534 C 0.23535 0.40714 0.28133 0.0
C3535 C 0.25745 0.40875 0.29086 0.0
C3536 C 0.23003 0.42515 0.2719 0.0
C3537 C 0.24685 0.44473 0.27238 0.0
C3538 C 0.26935 0.44511 0.2792 0.0
C3539 C 0.27466 0.42709 0.28852 0.0
H3540 H 0.23853 0.41072 0.0758 0.0
H3541 H 0.27827 0.46963 0.05431 0.0
H3542 H 0.20691 0.42796 0.07611 0.0
H3543 H 0.24637 0.48649 0.05282 0.0
H3544 H 0.19251 0.51991 0.06177 0.0
H3545 H 0.22348 0.50342 0.07341 0.0
H3546 H 0.17936 0.43721 0.05252 0.0
H3547 H 0.14853 0.45396 0.04228 0.0
C3548 C 0.24025 0.42726 0.07075 0.0
C3549 C 0.26058 0.43887 0.06485 0.0
C3550 C 0.22217 0.43719 0.07089 0.0
C3551 C 0.22394 0.45879 0.06465 0.0
C3552 C 0.24441 0.47016 0.05842 0.0
C3553 C 0.26262 0.46041 0.05884 0.0
C3554 C 0.18935 0.50187 0.06087 0.0
C3555 C 0.16827 0.48813 0.05126 0.0
C3556 C 0.20717 0.49234 0.06697 0.0
C3557 C 0.20425 0.4689 0.06319 0.0
C3558 C 0.18247 0.45527 0.05575 0.0
C3559 C 0.16467 0.46483 0.04994 0.0
H3560 H 0.90286 0.95635 0.31265 0.0
H3561 H 0.8855 0.94415 0.23772 0.0
H3562 H 0.87734 0.92042 0.31557 0.0
H3563 H 0.86018 0.90812 0.2404 0.0
H3564 H 0.83781 0.83507 0.25319 0.0
H3565 H 0.86191 0.87146 0.25039 0.0
H3566 H 0.83738 0.90106 0.30975 0.0
H3567 H 0.81331 0.86436 0.31265 0.0
C3568 C 0.89366 0.94582 0.29682 0.0
C3569 C 0.89619 0.95278 0.27495 0.0
C3570 C 0.87891 0.92539 0.29847 0.0
C3571 C 0.86672 0.91134 0.27821 0.0
C3572 C 0.86942 0.91841 0.25633 0.0
C3573 C 0.88382 0.93904 0.25475 0.0
C3574 C 0.83741 0.8494 0.26552 0.0
C3575 C 0.82353 0.84694 0.28301 0.0
C3576 C 0.85116 0.87028 0.26386 0.0
C3577 C 0.85156 0.88923 0.27979 0.0
C3578 C 0.83756 0.88678 0.29726 0.0
C3579 C 0.82358 0.86586 0.29876 0.0
H3580 H 0.70381 0.1361 0.80526 0.0
H3581 H 0.7441 0.12102 0.75267 0.0
H3582 H 0.72127 0.17622 0.8074 0.0
H3583 H 0.76056 0.16077 0.75371 0.0
H3584 H 0.80876 0.22438 0.786 0.0
H3585 H 0.7875 0.18594 0.78479 0.0
H3586 H 0.72641 0.20833 0.78496 0.0
H3587 H 0.74778 0.2467 0.78611 0.0
C3588 C 0.71624 0.14158 0.79411 0.0
C3589 C 0.72359 0.12608 0.77959 0.0
C3590 C 0.72599 0.16427 0.79512 0.0
C3591 C 0.74265 0.17121 0.78124 0.0
C3592 C 0.74836 0.15559 0.76521 0.0
C3593 C 0.73907 0.13305 0.76464 0.0
C3594 C 0.79092 0.22106 0.78666 0.0
C3595 C 0.77985 0.2383 0.78698 0.0
C3596 C 0.77874 0.19919 0.78556 0.0
C3597 C 0.7554 0.19443 0.78455 0.0
C3598 C 0.74446 0.21179 0.78599 0.0
C3599 C 0.75669 0.23371 0.78707 0.0
loop_
_geom_bond_atom_site_label_1
_geom_bond_atom_site_label_2
_geom_bond_distance
_geom_bond_site_symmetry_2
_ccdc_geom_bond_type
O0 Cd1 2.223 . S
O0 C8 1.315 . S
Cd1 O0 2.223 . S
Cd1 O4 2.297 . S
Cd1 O5 2.439 . S
Cd1 O11 2.240 . S
Cd2 O3 2.240 . S
Cd2 O10 2.223 1_455 S
Cd2 O12 2.297 . S
Cd2 O13 2.439 . S
O3 Cd2 2.240 . S
O3 C8 1.279 . S
O4 Cd1 2.297 . S
O4 C6 1.247 . S
O5 Cd1 2.439 . S
O5 C6 1.208 . S
C6 O4 1.247 . S
C6 O5 1.208 . S
C7 O12 1.247 . S
C7 O13 1.208 . S
C8 O0 1.315 . S
C8 O3 1.279 . S
C9 O10 1.315 . S
C9 O11 1.279 1_655 S
O10 Cd2 2.223 1_655 S
O10 C9 1.315 . S
O11 Cd1 2.240 . S
O11 C9 1.279 1_455 S
O12 Cd2 2.297 . S
O12 C7 1.247 . S
O13 Cd2 2.439 . S
O13 C7 1.208 . S
O14 Cd15 2.223 . S
O14 C22 1.315 . S
Cd15 O14 2.223 . S
Cd15 O18 2.297 1_455 S
Cd15 O19 2.439 1_455 S
Cd15 O25 2.240 . S
Cd16 O17 2.240 . S
Cd16 O24 2.223 . S
Cd16 O26 2.297 . S
Cd16 O27 2.439 . S
O17 Cd16 2.240 . S
O17 C22 1.279 . S
O18 Cd15 2.297 1_655 S
O18 C20 1.247 . S
O19 Cd15 2.439 1_655 S
O19 C20 1.208 . S
C20 O18 1.247 . S
C20 O19 1.208 . S
C21 O26 1.247 . S
C21 O27 1.208 . S
C22 O14 1.315 . S
C22 O17 1.279 . S
C23 O24 1.315 . S
C23 O25 1.279 . S
O24 Cd16 2.223 . S
O24 C23 1.315 . S
O25 Cd15 2.240 . S
O25 C23 1.279 . S
O26 Cd16 2.297 . S
O26 C21 1.247 . S
O27 Cd16 2.439 . S
O27 C21 1.208 . S
O28 Cd29 2.223 . S
O28 C36 1.315 . S
Cd29 O28 2.223 . S
Cd29 O32 2.297 . S
Cd29 O33 2.439 . S
Cd29 O39 2.240 . S
Cd30 O31 2.240 . S
Cd30 O38 2.223 . S
Cd30 O40 2.297 . S
Cd30 O41 2.439 . S
O31 Cd30 2.240 . S
O31 C36 1.279 . S
O32 Cd29 2.297 . S
O32 C34 1.247 . S
O33 Cd29 2.439 . S
O33 C34 1.208 . S
C34 O32 1.247 . S
C34 O33 1.208 . S
C35 O40 1.247 . S
C35 O41 1.208 . S
C36 O28 1.315 . S
C36 O31 1.279 . S
C37 O38 1.315 . S
C37 O39 1.279 . S
O38 Cd30 2.223 . S
O38 C37 1.315 . S
O39 Cd29 2.240 . S
O39 C37 1.279 . S
O40 Cd30 2.297 . S
O40 C35 1.247 . S
O41 Cd30 2.439 . S
O41 C35 1.208 . S
O42 Cd43 2.223 . S
O42 C50 1.315 . S
Cd43 O42 2.223 . S
Cd43 O46 2.297 . S
Cd43 O47 2.439 . S
Cd43 O53 2.240 . S
Cd44 O45 2.240 . S
Cd44 O52 2.223 . S
Cd44 O54 2.297 . S
Cd44 O55 2.439 . S
O45 Cd44 2.240 . S
O45 C50 1.279 . S
O46 Cd43 2.297 . S
O46 C48 1.247 . S
O47 Cd43 2.439 . S
O47 C48 1.208 . S
C48 O46 1.247 . S
C48 O47 1.208 . S
C49 O54 1.247 . S
C49 O55 1.208 . S
C50 O42 1.315 . S
C50 O45 1.279 . S
C51 O52 1.315 . S
C51 O53 1.279 . S
O52 Cd44 2.223 . S
O52 C51 1.315 . S
O53 Cd43 2.240 . S
O53 C51 1.279 . S
O54 Cd44 2.297 . S
O54 C49 1.247 . S
O55 Cd44 2.439 . S
O55 C49 1.208 . S
O56 Cd57 2.223 . S
O56 C64 1.315 . S
Cd57 O56 2.223 . S
Cd57 O60 2.297 . S
Cd57 O61 2.439 . S
Cd57 O67 2.240 . S
Cd58 O59 2.240 . S
Cd58 O66 2.223 . S
Cd58 O68 2.297 . S
Cd58 O69 2.439 . S
O59 Cd58 2.240 . S
O59 C64 1.279 . S
O60 Cd57 2.297 . S
O60 C62 1.247 . S
O61 Cd57 2.439 . S
O61 C62 1.208 . S
C62 O60 1.247 . S
C62 O61 1.208 . S
C63 O68 1.247 . S
C63 O69 1.208 . S
C64 O56 1.315 . S
C64 O59 1.279 . S
C65 O66 1.315 . S
C65 O67 1.279 . S
O66 Cd58 2.223 . S
O66 C65 1.315 . S
O67 Cd57 2.240 . S
O67 C65 1.279 . S
O68 Cd58 2.297 . S
O68 C63 1.247 . S
O69 Cd58 2.439 . S
O69 C63 1.208 . S
O70 Cd71 2.223 . S
O70 C78 1.315 . S
Cd71 O70 2.223 . S
Cd71 O74 2.297 . S
Cd71 O75 2.439 . S
Cd71 O81 2.240 . S
Cd72 O73 2.240 . S
Cd72 O80 2.223 . S
Cd72 O82 2.297 . S
Cd72 O83 2.439 . S
O73 Cd72 2.240 . S
O73 C78 1.279 . S
O74 Cd71 2.297 . S
O74 C76 1.247 . S
O75 Cd71 2.439 . S
O75 C76 1.208 . S
C76 O74 1.247 . S
C76 O75 1.208 . S
C77 O82 1.247 . S
C77 O83 1.208 . S
C78 O70 1.315 . S
C78 O73 1.279 . S
C79 O80 1.315 . S
C79 O81 1.279 . S
O80 Cd72 2.223 . S
O80 C79 1.315 . S
O81 Cd71 2.240 . S
O81 C79 1.279 . S
O82 Cd72 2.297 . S
O82 C77 1.247 . S
O83 Cd72 2.439 . S
O83 C77 1.208 . S
O84 Cd85 2.223 . S
O84 C92 1.315 . S
Cd85 O84 2.223 . S
Cd85 O88 2.297 . S
Cd85 O89 2.439 . S
Cd85 O95 2.240 . S
Cd86 O87 2.240 . S
Cd86 O94 2.223 . S
Cd86 O96 2.297 . S
Cd86 O97 2.439 . S
O87 Cd86 2.240 . S
O87 C92 1.279 . S
O88 Cd85 2.297 . S
O88 C90 1.247 . S
O89 Cd85 2.439 . S
O89 C90 1.208 . S
C90 O88 1.247 . S
C90 O89 1.208 . S
C91 O96 1.247 . S
C91 O97 1.208 . S
C92 O84 1.315 . S
C92 O87 1.279 . S
C93 O94 1.315 . S
C93 O95 1.279 . S
O94 Cd86 2.223 . S
O94 C93 1.315 . S
O95 Cd85 2.240 . S
O95 C93 1.279 . S
O96 Cd86 2.297 . S
O96 C91 1.247 . S
O97 Cd86 2.439 . S
O97 C91 1.208 . S
O98 Cd99 2.223 1_655 S
O98 C106 1.315 . S
Cd99 O98 2.223 1_455 S
Cd99 O102 2.297 . S
Cd99 O103 2.439 . S
Cd99 O109 2.240 1_455 S
Cd100 O101 2.240 1_655 S
Cd100 O108 2.223 . S
Cd100 O110 2.297 . S
Cd100 O111 2.439 1_655 S
O101 Cd100 2.240 1_455 S
O101 C106 1.279 1_455 S
O102 Cd99 2.297 . S
O102 C104 1.247 . S
O103 Cd99 2.439 . S
O103 C104 1.208 . S
C104 O102 1.247 . S
C104 O103 1.208 . S
C105 O110 1.227 1_455 S
C105 O111 1.229 . S
C106 O98 1.315 . S
C106 O101 1.279 1_655 S
C107 O108 1.315 . S
C107 O109 1.279 . S
O108 Cd100 2.223 . S
O108 C107 1.315 . S
O109 Cd99 2.240 1_655 S
O109 C107 1.279 . S
O110 Cd100 2.297 . S
O110 C105 1.227 1_655 S
O111 Cd100 2.439 1_455 S
O111 C105 1.229 . S
O112 Cd113 2.223 . S
O112 C120 1.315 . S
Cd113 O112 2.223 . S
Cd113 O116 2.297 . S
Cd113 O117 2.439 . S
Cd113 O123 2.240 1_545 S
Cd114 O115 2.240 . S
Cd114 O122 2.223 1_545 S
Cd114 O124 2.297 1_545 S
Cd114 O125 2.439 . S
O115 Cd114 2.240 . S
O115 C120 1.279 . S
O116 Cd113 2.297 . S
O116 C118 1.247 . S
O117 Cd113 2.439 . S
O117 C118 1.208 . S
C118 O116 1.247 . S
C118 O117 1.208 . S
C119 O124 1.247 1_545 S
C119 O125 1.208 . S
C120 O112 1.315 . S
C120 O115 1.279 . S
C121 O122 1.315 . S
C121 O123 1.279 . S
O122 Cd114 2.223 1_565 S
O122 C121 1.315 . S
O123 Cd113 2.240 1_565 S
O123 C121 1.279 . S
O124 Cd114 2.297 1_565 S
O124 C119 1.247 1_565 S
O125 Cd114 2.439 . S
O125 C119 1.208 . S
O126 Cd127 2.223 . S
O126 C134 1.315 . S
Cd127 O126 2.223 . S
Cd127 O130 2.297 . S
Cd127 O131 2.439 . S
Cd127 O137 2.240 . S
Cd128 O129 2.240 . S
Cd128 O136 2.223 . S
Cd128 O138 2.297 . S
Cd128 O139 2.439 . S
O129 Cd128 2.240 . S
O129 C134 1.279 . S
O130 Cd127 2.297 . S
O130 C132 1.247 . S
O131 Cd127 2.439 . S
O131 C132 1.208 . S
C132 O130 1.247 . S
C132 O131 1.208 . S
C133 O138 1.247 . S
C133 O139 1.208 . S
C134 O126 1.315 . S
C134 O129 1.279 . S
C135 O136 1.315 . S
C135 O137 1.279 . S
O136 Cd128 2.223 . S
O136 C135 1.315 . S
O137 Cd127 2.240 . S
O137 C135 1.279 . S
O138 Cd128 2.297 . S
O138 C133 1.247 . S
O139 Cd128 2.439 . S
O139 C133 1.208 . S
O140 Cd141 2.223 . S
O140 C148 1.315 . S
Cd141 O140 2.223 . S
Cd141 O144 2.297 . S
Cd141 O145 2.439 . S
Cd141 O151 2.240 . S
Cd142 O143 2.240 . S
Cd142 O150 2.223 . S
Cd142 O152 2.297 . S
Cd142 O153 2.439 . S
O143 Cd142 2.240 . S
O143 C148 1.279 . S
O144 Cd141 2.297 . S
O144 C146 1.247 1_545 S
O145 Cd141 2.439 . S
O145 C146 1.208 1_545 S
C146 O144 1.247 1_565 S
C146 O145 1.208 1_565 S
C147 O152 1.247 . S
C147 O153 1.208 . S
C148 O140 1.315 . S
C148 O143 1.279 . S
C149 O150 1.315 . S
C149 O151 1.279 . S
O150 Cd142 2.223 . S
O150 C149 1.315 . S
O151 Cd141 2.240 . S
O151 C149 1.279 . S
O152 Cd142 2.297 . S
O152 C147 1.247 . S
O153 Cd142 2.439 . S
O153 C147 1.208 . S
O154 Cd155 2.223 . S
O154 C162 1.315 . S
Cd155 O154 2.223 . S
Cd155 O158 2.297 . S
Cd155 O159 2.439 1_554 S
Cd155 O165 2.240 1_554 S
Cd156 O157 2.240 1_556 S
Cd156 O164 2.223 1_556 S
Cd156 O166 2.297 . S
Cd156 O167 2.439 . S
O157 Cd156 2.240 1_554 S
O157 C162 1.279 . S
O158 Cd155 2.297 . S
O158 C160 1.247 . S
O159 Cd155 2.439 1_556 S
O159 C160 1.208 1_556 S
C160 O158 1.247 . S
C160 O159 1.208 1_554 S
C161 O166 1.247 . S
C161 O167 1.208 . S
C162 O154 1.315 . S
C162 O157 1.279 . S
C163 O164 1.315 . S
C163 O165 1.279 1_554 S
O164 Cd156 2.223 1_554 S
O164 C163 1.315 . S
O165 Cd155 2.240 1_556 S
O165 C163 1.279 1_556 S
O166 Cd156 2.297 . S
O166 C161 1.247 . S
O167 Cd156 2.439 . S
O167 C161 1.208 . S
O168 Cd169 2.223 . S
O168 C176 1.315 . S
Cd169 O168 2.223 . S
Cd169 O172 2.297 . S
Cd169 O173 2.439 . S
Cd169 O179 2.240 . S
Cd170 O171 2.240 . S
Cd170 O178 2.223 . S
Cd170 O180 2.297 . S
Cd170 O181 2.439 . S
O171 Cd170 2.240 . S
O171 C176 1.279 . S
O172 Cd169 2.297 . S
O172 C174 1.247 . S
O173 Cd169 2.439 . S
O173 C174 1.208 . S
C174 O172 1.247 . S
C174 O173 1.208 . S
C175 O180 1.247 1_556 S
C175 O181 1.208 1_556 S
C176 O168 1.315 . S
C176 O171 1.279 . S
C177 O178 1.315 . S
C177 O179 1.279 . S
O178 Cd170 2.223 . S
O178 C177 1.315 . S
O179 Cd169 2.240 . S
O179 C177 1.279 . S
O180 Cd170 2.297 . S
O180 C175 1.247 1_554 S
O181 Cd170 2.439 . S
O181 C175 1.208 1_554 S
O182 Cd183 2.223 . S
O182 C190 1.315 . S
Cd183 O182 2.223 . S
Cd183 O186 2.297 . S
Cd183 O187 2.439 . S
Cd183 O193 2.240 . S
Cd184 O185 2.240 . S
Cd184 O192 2.223 . S
Cd184 O194 2.297 . S
Cd184 O195 2.439 . S
O185 Cd184 2.240 . S
O185 C190 1.279 . S
O186 Cd183 2.297 . S
O186 C188 1.247 . S
O187 Cd183 2.439 . S
O187 C188 1.208 . S
C188 O186 1.247 . S
C188 O187 1.208 . S
C189 O194 1.247 . S
C189 O195 1.208 . S
C190 O182 1.315 . S
C190 O185 1.279 . S
C191 O192 1.315 . S
C191 O193 1.279 . S
O192 Cd184 2.223 . S
O192 C191 1.315 . S
O193 Cd183 2.240 . S
O193 C191 1.279 . S
O194 Cd184 2.297 . S
O194 C189 1.247 . S
O195 Cd184 2.439 . S
O195 C189 1.208 . S
O196 Cd197 2.223 . S
O196 C204 1.315 . S
Cd197 O196 2.223 . S
Cd197 O200 2.297 . S
Cd197 O201 2.439 . S
Cd197 O207 2.240 . S
Cd198 O199 2.240 . S
Cd198 O206 2.223 . S
Cd198 O208 2.297 . S
Cd198 O209 2.439 . S
O199 Cd198 2.240 . S
O199 C204 1.279 . S
O200 Cd197 2.297 . S
O200 C202 1.247 . S
O201 Cd197 2.439 . S
O201 C202 1.208 . S
C202 O200 1.247 . S
C202 O201 1.208 . S
C203 O208 1.247 . S
C203 O209 1.208 . S
C204 O196 1.315 . S
C204 O199 1.279 . S
C205 O206 1.315 . S
C205 O207 1.279 . S
O206 Cd198 2.223 . S
O206 C205 1.315 . S
O207 Cd197 2.240 . S
O207 C205 1.279 . S
O208 Cd198 2.297 . S
O208 C203 1.247 . S
O209 Cd198 2.439 . S
O209 C203 1.208 . S
O210 Cd211 2.223 . S
O210 C218 1.315 . S
Cd211 O210 2.223 . S
Cd211 O214 2.297 . S
Cd211 O215 2.439 . S
Cd211 O221 2.240 . S
Cd212 O213 2.240 . S
Cd212 O220 2.223 . S
Cd212 O222 2.297 . S
Cd212 O223 2.439 . S
O213 Cd212 2.240 . S
O213 C218 1.279 . S
O214 Cd211 2.297 . S
O214 C216 1.247 . S
O215 Cd211 2.439 . S
O215 C216 1.208 . S
C216 O214 1.247 . S
C216 O215 1.208 . S
C217 O222 1.247 . S
C217 O223 1.208 . S
C218 O210 1.315 . S
C218 O213 1.279 . S
C219 O220 1.315 . S
C219 O221 1.279 . S
O220 Cd212 2.223 . S
O220 C219 1.315 . S
O221 Cd211 2.240 . S
O221 C219 1.279 . S
O222 Cd212 2.297 . S
O222 C217 1.247 . S
O223 Cd212 2.439 . S
O223 C217 1.208 . S
O224 Cd225 2.223 . S
O224 C232 1.315 . S
Cd225 O224 2.223 . S
Cd225 O228 2.297 . S
Cd225 O229 2.439 . S
Cd225 O235 2.240 1_545 S
Cd226 O227 2.240 . S
Cd226 O234 2.223 1_545 S
Cd226 O236 2.297 1_545 S
Cd226 O237 2.439 . S
O227 Cd226 2.240 . S
O227 C232 1.279 . S
O228 Cd225 2.297 . S
O228 C230 1.247 . S
O229 Cd225 2.439 . S
O229 C230 1.208 . S
C230 O228 1.247 . S
C230 O229 1.208 . S
C231 O236 1.247 1_545 S
C231 O237 1.208 . S
C232 O224 1.315 . S
C232 O227 1.279 . S
C233 O234 1.315 . S
C233 O235 1.279 . S
O234 Cd226 2.223 1_565 S
O234 C233 1.315 . S
O235 Cd225 2.240 1_565 S
O235 C233 1.279 . S
O236 Cd226 2.297 1_565 S
O236 C231 1.247 1_565 S
O237 Cd226 2.439 . S
O237 C231 1.208 . S
O238 Cd239 2.223 . S
O238 C246 1.315 . S
Cd239 O238 2.223 . S
Cd239 O242 2.297 . S
Cd239 O243 2.439 . S
Cd239 O249 2.240 . S
Cd240 O241 2.240 . S
Cd240 O248 2.223 . S
Cd240 O250 2.297 . S
Cd240 O251 2.439 . S
O241 Cd240 2.240 . S
O241 C246 1.279 . S
O242 Cd239 2.297 . S
O242 C244 1.247 . S
O243 Cd239 2.439 . S
O243 C244 1.208 . S
C244 O242 1.247 . S
C244 O243 1.208 . S
C245 O250 1.247 . S
C245 O251 1.208 . S
C246 O238 1.315 . S
C246 O241 1.279 . S
C247 O248 1.315 . S
C247 O249 1.279 . S
O248 Cd240 2.223 . S
O248 C247 1.315 . S
O249 Cd239 2.240 . S
O249 C247 1.279 . S
O250 Cd240 2.297 . S
O250 C245 1.247 . S
O251 Cd240 2.439 . S
O251 C245 1.208 . S
O252 Cd253 2.223 . S
O252 C260 1.315 . S
Cd253 O252 2.223 . S
Cd253 O256 2.297 . S
Cd253 O257 2.439 . S
Cd253 O263 2.240 . S
Cd254 O255 2.240 . S
Cd254 O262 2.223 . S
Cd254 O264 2.297 . S
Cd254 O265 2.439 . S
O255 Cd254 2.240 . S
O255 C260 1.279 . S
O256 Cd253 2.297 . S
O256 C258 1.247 . S
O257 Cd253 2.439 . S
O257 C258 1.208 . S
C258 O256 1.247 . S
C258 O257 1.208 . S
C259 O264 1.247 . S
C259 O265 1.208 . S
C260 O252 1.315 . S
C260 O255 1.279 . S
C261 O262 1.315 . S
C261 O263 1.279 . S
O262 Cd254 2.223 . S
O262 C261 1.315 . S
O263 Cd253 2.240 . S
O263 C261 1.279 . S
O264 Cd254 2.297 . S
O264 C259 1.247 . S
O265 Cd254 2.439 . S
O265 C259 1.208 . S
O266 Cd267 2.223 . S
O266 C274 1.315 . S
Cd267 O266 2.223 . S
Cd267 O270 2.297 . S
Cd267 O271 2.439 . S
Cd267 O277 2.240 . S
Cd268 O269 2.240 . S
Cd268 O276 2.223 . S
Cd268 O278 2.297 . S
Cd268 O279 2.439 . S
O269 Cd268 2.240 . S
O269 C274 1.279 . S
O270 Cd267 2.297 . S
O270 C272 1.247 . S
O271 Cd267 2.439 . S
O271 C272 1.208 . S
C272 O270 1.247 . S
C272 O271 1.208 . S
C273 O278 1.247 . S
C273 O279 1.208 . S
C274 O266 1.315 . S
C274 O269 1.279 . S
C275 O276 1.315 . S
C275 O277 1.279 . S
O276 Cd268 2.223 . S
O276 C275 1.315 . S
O277 Cd267 2.240 . S
O277 C275 1.279 . S
O278 Cd268 2.297 . S
O278 C273 1.247 . S
O279 Cd268 2.439 . S
O279 C273 1.208 . S
O280 Cd281 2.223 . S
O280 C288 1.315 . S
Cd281 O280 2.223 . S
Cd281 O284 2.297 . S
Cd281 O285 2.439 . S
Cd281 O291 2.240 . S
Cd282 O283 2.240 . S
Cd282 O290 2.223 . S
Cd282 O292 2.297 1_554 S
Cd282 O293 2.439 1_554 S
O283 Cd282 2.240 . S
O283 C288 1.279 . S
O284 Cd281 2.297 . S
O284 C286 1.247 . S
O285 Cd281 2.439 . S
O285 C286 1.208 . S
C286 O284 1.247 . S
C286 O285 1.208 . S
C287 O292 1.247 . S
C287 O293 1.208 . S
C288 O280 1.315 . S
C288 O283 1.279 . S
C289 O290 1.315 . S
C289 O291 1.279 . S
O290 Cd282 2.223 . S
O290 C289 1.315 . S
O291 Cd281 2.240 . S
O291 C289 1.279 . S
O292 Cd282 2.297 1_556 S
O292 C287 1.247 . S
O293 Cd282 2.439 1_556 S
O293 C287 1.208 . S
O294 Cd295 2.223 . S
O294 C302 1.315 . S
Cd295 O294 2.223 . S
Cd295 O298 2.297 . S
Cd295 O299 2.439 . S
Cd295 O305 2.240 . S
Cd296 O297 2.240 . S
Cd296 O304 2.223 . S
Cd296 O306 2.297 . S
Cd296 O307 2.439 . S
O297 Cd296 2.240 . S
O297 C302 1.279 . S
O298 Cd295 2.297 . S
O298 C300 1.247 . S
O299 Cd295 2.439 . S
O299 C300 1.208 . S
C300 O298 1.247 . S
C300 O299 1.208 . S
C301 O306 1.247 . S
C301 O307 1.208 . S
C302 O294 1.315 . S
C302 O297 1.279 . S
C303 O304 1.315 . S
C303 O305 1.279 . S
O304 Cd296 2.223 . S
O304 C303 1.315 . S
O305 Cd295 2.240 . S
O305 C303 1.279 . S
O306 Cd296 2.297 . S
O306 C301 1.247 . S
O307 Cd296 2.439 . S
O307 C301 1.208 . S
O308 Cd309 2.223 . S
O308 C316 1.315 . S
Cd309 O308 2.223 . S
Cd309 O312 2.297 . S
Cd309 O313 2.439 . S
Cd309 O319 2.240 . S
Cd310 O311 2.240 . S
Cd310 O318 2.223 . S
Cd310 O320 2.297 . S
Cd310 O321 2.439 . S
O311 Cd310 2.240 . S
O311 C316 1.279 . S
O312 Cd309 2.297 . S
O312 C314 1.247 . S
O313 Cd309 2.439 . S
O313 C314 1.208 . S
C314 O312 1.247 . S
C314 O313 1.208 . S
C315 O320 1.247 . S
C315 O321 1.208 . S
C316 O308 1.315 . S
C316 O311 1.279 . S
C317 O318 1.315 . S
C317 O319 1.279 . S
O318 Cd310 2.223 . S
O318 C317 1.315 . S
O319 Cd309 2.240 . S
O319 C317 1.279 . S
O320 Cd310 2.297 . S
O320 C315 1.247 . S
O321 Cd310 2.439 . S
O321 C315 1.208 . S
O322 Cd323 2.223 . S
O322 C330 1.315 . S
Cd323 O322 2.223 . S
Cd323 O326 2.297 . S
Cd323 O327 2.439 . S
Cd323 O333 2.240 . S
Cd324 O325 2.240 . S
Cd324 O332 2.223 . S
Cd324 O334 2.297 . S
Cd324 O335 2.439 . S
O325 Cd324 2.240 . S
O325 C330 1.279 . S
O326 Cd323 2.297 . S
O326 C328 1.247 . S
O327 Cd323 2.439 . S
O327 C328 1.208 . S
C328 O326 1.247 . S
C328 O327 1.208 . S
C329 O334 1.247 . S
C329 O335 1.208 . S
C330 O322 1.315 . S
C330 O325 1.279 . S
C331 O332 1.315 . S
C331 O333 1.279 . S
O332 Cd324 2.223 . S
O332 C331 1.315 . S
O333 Cd323 2.240 . S
O333 C331 1.279 . S
O334 Cd324 2.297 . S
O334 C329 1.247 . S
O335 Cd324 2.439 . S
O335 C329 1.208 . S
C336 C338 1.422 . S
C336 C340 1.415 1_554 S
C336 N342 1.369 1_554 S
C337 C338 1.421 . S
C337 C339 1.417 . S
C337 C349 1.422 . S
C338 C336 1.422 . S
C338 C337 1.421 . S
C338 N348 1.359 . S
C339 C337 1.417 . S
C339 C341 1.329 1_554 S
C339 H358 0.930 . S
C340 C336 1.415 1_556 S
C340 C341 1.437 . S
C340 C344 1.413 . S
C341 C339 1.329 1_556 S
C341 C340 1.437 . S
C341 H363 0.929 . S
N342 C336 1.369 1_556 S
N342 C343 1.338 . S
N342 Gd347 2.622 1_566 S
C343 N342 1.338 . S
C343 C345 1.378 . S
C343 H355 0.929 1_565 S
C344 C340 1.413 . S
C344 C345 1.348 . S
C344 H360 0.931 . S
C345 C343 1.378 . S
C345 C344 1.348 . S
C345 H361 0.930 . S
Gd346 N366 2.622 . S
Gd346 N373 2.570 . S
Gd346 O380 2.353 . S
Gd346 O381 2.468 . S
Gd346 O382 2.427 . S
Gd346 O384 2.388 . S
Gd346 O385 2.386 . S
Gd346 O389 2.307 . S
Gd346 C399 2.805 . S
Gd347 N342 2.622 1_544 S
Gd347 N348 2.570 1_545 S
Gd347 O379 2.386 1_645 S
Gd347 O383 2.307 1_655 S
Gd347 O386 2.353 1_655 S
Gd347 O387 2.468 . S
Gd347 O388 2.427 . S
Gd347 O390 2.425 1_655 S
Gd347 C411 2.805 . S
N348 C338 1.359 . S
N348 Gd347 2.570 1_565 S
N348 C350 1.343 . S
C349 C337 1.422 . S
C349 C351 1.321 . S
C349 H357 0.931 . S
C350 N348 1.343 . S
C350 C351 1.390 . S
C350 H352 0.931 1_565 S
C351 C349 1.321 . S
C351 C350 1.390 . S
C351 H353 0.930 . S
H352 C350 0.931 1_545 S
H353 C351 0.930 . S
H354 C377 0.931 . S
H355 C343 0.929 1_545 S
H356 C378 0.930 . S
H357 C349 0.931 . S
H358 C339 0.930 . S
H359 C368 0.929 . S
H360 C344 0.931 . S
H361 C345 0.930 . S
H362 C400 0.930 . S
H363 C341 0.929 . S
H364 C369 0.931 . S
H365 C370 0.930 . S
N366 Gd346 2.622 . S
N366 C367 1.369 . S
N366 C368 1.338 . S
C367 N366 1.369 . S
C367 C371 1.415 . S
C367 C374 1.422 . S
C368 H359 0.929 . S
C368 N366 1.338 . S
C368 C370 1.378 . S
C369 H364 0.931 . S
C369 C370 1.348 . S
C369 C371 1.413 . S
C370 H365 0.930 . S
C370 C368 1.378 . S
C370 C369 1.348 . S
C371 C367 1.415 . S
C371 C369 1.413 . S
C371 C401 1.437 . S
H372 C401 0.929 . S
N373 Gd346 2.570 . S
N373 C374 1.359 . S
N373 C377 1.343 . S
C374 C367 1.422 . S
C374 N373 1.359 . S
C374 C376 1.421 . S
C375 C376 1.422 . S
C375 C378 1.321 . S
C375 H402 0.931 . S
C376 C374 1.421 . S
C376 C375 1.422 . S
C376 C400 1.417 . S
C377 H354 0.931 . S
C377 N373 1.343 . S
C377 C378 1.390 . S
C378 H356 0.930 . S
C378 C375 1.321 . S
C378 C377 1.390 . S
O379 Gd347 2.386 1_465 S
O379 C391 1.265 . S
O380 Gd346 2.353 . S
O380 C391 1.242 1_545 S
O381 Gd346 2.468 . S
O381 C399 1.263 . S
O382 Gd346 2.427 . S
O382 C399 1.252 . S
O383 Gd347 2.307 1_455 S
O383 C392 1.261 . S
O384 Gd346 2.388 . S
O384 C392 1.252 . S
O385 Gd346 2.386 . S
O385 C403 1.265 . S
O386 Gd347 2.353 1_455 S
O386 C403 1.242 . S
O387 Gd347 2.468 . S
O387 C411 1.263 . S
O388 Gd347 2.427 . S
O388 C411 1.252 . S
O389 Gd346 2.307 . S
O389 C404 1.261 . S
O390 Gd347 2.425 1_455 S
O390 C404 1.256 . S
C391 O379 1.265 . S
C391 O380 1.242 1_565 S
C392 O383 1.261 . S
C392 O384 1.252 . S
C393 C396 1.394 . S
C393 C398 1.370 . S
C393 C399 1.500 . S
C394 C397 1.383 . S
C394 C398 1.395 . S
C395 C396 1.396 . S
C395 C397 1.365 . S
C395 H412 0.929 . S
C396 C393 1.394 . S
C396 C395 1.396 . S
C396 H413 0.930 . S
C397 C394 1.383 . S
C397 C395 1.365 . S
C397 H414 0.931 . S
C398 C393 1.370 . S
C398 C394 1.395 . S
C398 H415 0.930 . S
C399 Gd346 2.805 . S
C399 O381 1.263 . S
C399 O382 1.252 . S
C399 C393 1.500 . S
C400 H362 0.930 . S
C400 C376 1.417 . S
C400 C401 1.329 . S
C401 C371 1.437 . S
C401 H372 0.929 . S
C401 C400 1.329 . S
H402 C375 0.931 . S
C403 O385 1.265 . S
C403 O386 1.242 . S
C404 O389 1.261 . S
C404 O390 1.256 . S
C405 C408 1.394 1_554 S
C405 C410 1.370 . S
C405 C411 1.500 . S
C406 C409 1.383 . S
C406 C410 1.395 . S
C407 C408 1.396 . S
C407 C409 1.365 1_556 S
C407 H416 0.929 . S
C408 C405 1.394 1_556 S
C408 C407 1.396 . S
C408 H417 0.930 . S
C409 C406 1.383 . S
C409 C407 1.365 1_554 S
C409 H418 0.931 . S
C410 C405 1.370 . S
C410 C406 1.395 . S
C410 H419 0.930 . S
C411 Gd347 2.805 . S
C411 O387 1.263 . S
C411 O388 1.252 . S
C411 C405 1.500 . S
H412 C395 0.929 . S
H413 C396 0.930 . S
H414 C397 0.931 . S
H415 C398 0.930 . S
H416 C407 0.929 . S
H417 C408 0.930 . S
H418 C409 0.931 . S
H419 C410 0.930 . S
C420 C422 1.422 . S
C420 C424 1.415 . S
C420 N426 1.369 . S
C421 C422 1.421 . S
C421 C423 1.417 . S
C421 C433 1.422 . S
C422 C420 1.422 . S
C422 C421 1.421 . S
C422 N432 1.359 . S
C423 C421 1.417 . S
C423 C425 1.329 . S
C423 H442 0.930 . S
C424 C420 1.415 . S
C424 C425 1.437 . S
C424 C428 1.413 . S
C425 C423 1.329 . S
C425 C424 1.437 . S
C425 H447 0.929 . S
N426 C420 1.369 . S
N426 C427 1.338 . S
N426 Gd431 2.622 . S
C427 N426 1.338 . S
C427 C429 1.378 . S
C427 H439 0.929 . S
C428 C424 1.413 . S
C428 C429 1.348 . S
C428 H444 0.931 . S
C429 C427 1.378 . S
C429 C428 1.348 . S
C429 H445 0.930 . S
Gd430 N450 2.622 . S
Gd430 N457 2.570 . S
Gd430 O464 2.353 . S
Gd430 O465 2.468 . S
Gd430 O466 2.427 . S
Gd430 O468 2.388 . S
Gd430 O469 2.386 . S
Gd430 O473 2.307 . S
Gd430 C483 2.805 . S
Gd431 N426 2.622 . S
Gd431 N432 2.570 . S
Gd431 O463 2.386 . S
Gd431 O467 2.307 . S
Gd431 O470 2.353 . S
Gd431 O471 2.468 . S
Gd431 O472 2.427 . S
Gd431 O474 2.388 . S
Gd431 C495 2.805 . S
N432 C422 1.359 . S
N432 Gd431 2.570 . S
N432 C434 1.343 . S
C433 C421 1.422 . S
C433 C435 1.321 . S
C433 H441 0.931 . S
C434 N432 1.343 . S
C434 C435 1.390 . S
C434 H436 0.931 . S
C435 C433 1.321 . S
C435 C434 1.390 . S
C435 H437 0.930 . S
H436 C434 0.931 . S
H437 C435 0.930 . S
H438 C461 0.931 . S
H439 C427 0.929 . S
H440 C462 0.930 . S
H441 C433 0.931 . S
H442 C423 0.930 . S
H443 C452 0.929 . S
H444 C428 0.931 . S
H445 C429 0.930 . S
H446 C484 0.930 . S
H447 C425 0.929 . S
H448 C453 0.931 . S
H449 C454 0.930 . S
N450 Gd430 2.622 . S
N450 C451 1.369 . S
N450 C452 1.338 . S
C451 N450 1.369 . S
C451 C455 1.415 . S
C451 C458 1.422 . S
C452 H443 0.929 . S
C452 N450 1.338 . S
C452 C454 1.378 . S
C453 H448 0.931 . S
C453 C454 1.348 . S
C453 C455 1.413 . S
C454 H449 0.930 . S
C454 C452 1.378 . S
C454 C453 1.348 . S
C455 C451 1.415 . S
C455 C453 1.413 . S
C455 C485 1.437 . S
H456 C485 0.929 . S
N457 Gd430 2.570 . S
N457 C458 1.359 . S
N457 C461 1.343 . S
C458 C451 1.422 . S
C458 N457 1.359 . S
C458 C460 1.421 . S
C459 C460 1.422 . S
C459 C462 1.321 . S
C459 H486 0.931 . S
C460 C458 1.421 . S
C460 C459 1.422 . S
C460 C484 1.417 . S
C461 H438 0.931 . S
C461 N457 1.343 . S
C461 C462 1.390 . S
C462 H440 0.930 . S
C462 C459 1.321 . S
C462 C461 1.390 . S
O463 Gd431 2.386 . S
O463 C475 1.265 . S
O464 Gd430 2.353 . S
O464 C475 1.242 . S
O465 Gd430 2.468 . S
O465 C483 1.263 . S
O466 Gd430 2.427 . S
O466 C483 1.252 . S
O467 Gd431 2.307 . S
O467 C476 1.261 . S
O468 Gd430 2.388 . S
O468 C476 1.252 . S
O469 Gd430 2.386 . S
O469 C487 1.265 . S
O470 Gd431 2.353 . S
O470 C487 1.242 . S
O471 Gd431 2.468 . S
O471 C495 1.263 . S
O472 Gd431 2.427 . S
O472 C495 1.252 . S
O473 Gd430 2.307 . S
O473 C488 1.261 . S
O474 Gd431 2.388 . S
O474 C488 1.252 . S
C475 O463 1.265 . S
C475 O464 1.242 . S
C476 O467 1.261 . S
C476 O468 1.252 . S
C477 C480 1.394 . S
C477 C482 1.370 . S
C477 C483 1.500 . S
C478 C481 1.383 . S
C478 C482 1.395 . S
C479 C480 1.396 . S
C479 C481 1.365 . S
C479 H496 0.929 . S
C480 C477 1.394 . S
C480 C479 1.396 . S
C480 H497 0.930 . S
C481 C478 1.383 . S
C481 C479 1.365 . S
C481 H498 0.931 . S
C482 C477 1.370 . S
C482 C478 1.395 . S
C482 H499 0.930 . S
C483 Gd430 2.805 . S
C483 O465 1.263 . S
C483 O466 1.252 . S
C483 C477 1.500 . S
C484 H446 0.930 . S
C484 C460 1.417 . S
C484 C485 1.329 . S
C485 C455 1.437 . S
C485 H456 0.929 . S
C485 C484 1.329 . S
H486 C459 0.931 . S
C487 O469 1.265 . S
C487 O470 1.242 . S
C488 O473 1.261 . S
C488 O474 1.252 . S
C489 C492 1.394 . S
C489 C494 1.370 . S
C489 C495 1.500 . S
C490 C493 1.383 . S
C490 C494 1.395 . S
C491 C492 1.396 . S
C491 C493 1.365 . S
C491 H500 0.929 . S
C492 C489 1.394 . S
C492 C491 1.396 . S
C492 H501 0.930 . S
C493 C490 1.383 . S
C493 C491 1.365 . S
C493 H502 0.931 . S
C494 C489 1.370 . S
C494 C490 1.395 . S
C494 H503 0.930 . S
C495 Gd431 2.805 . S
C495 O471 1.263 . S
C495 O472 1.252 . S
C495 C489 1.500 . S
H496 C479 0.929 . S
H497 C480 0.930 . S
H498 C481 0.931 . S
H499 C482 0.930 . S
H500 C491 0.929 . S
H501 C492 0.930 . S
H502 C493 0.931 . S
H503 C494 0.930 . S
C504 C506 1.422 . S
C504 C508 1.415 . S
C504 N510 1.369 . S
C505 C506 1.421 . S
C505 C507 1.417 . S
C505 C517 1.422 . S
C506 C504 1.422 . S
C506 C505 1.421 . S
C506 N516 1.359 . S
C507 C505 1.417 . S
C507 C509 1.329 . S
C507 H526 0.930 . S
C508 C504 1.415 . S
C508 C509 1.437 . S
C508 C512 1.413 . S
C509 C507 1.329 . S
C509 C508 1.437 . S
C509 H531 0.929 . S
N510 C504 1.369 . S
N510 C511 1.338 . S
N510 Gd515 2.622 . S
C511 N510 1.338 . S
C511 C513 1.378 . S
C511 H523 0.929 . S
C512 C508 1.413 . S
C512 C513 1.348 . S
C512 H528 0.931 . S
C513 C511 1.378 . S
C513 C512 1.348 . S
C513 H529 0.930 . S
Gd514 N534 2.596 1_545 S
Gd514 N541 2.570 1_545 S
Gd514 O548 2.353 . S
Gd514 O549 2.468 . S
Gd514 O550 2.427 . S
Gd514 O552 2.388 . S
Gd514 O553 2.386 1_545 S
Gd514 O557 2.307 . S
Gd514 C567 2.805 . S
Gd515 N510 2.622 . S
Gd515 N516 2.570 . S
Gd515 O547 2.386 . S
Gd515 O551 2.307 . S
Gd515 O554 2.353 1_545 S
Gd515 O555 2.468 . S
Gd515 O556 2.427 . S
Gd515 O558 2.388 . S
Gd515 C579 2.805 . S
N516 C506 1.359 . S
N516 Gd515 2.570 . S
N516 C518 1.343 . S
C517 C505 1.422 . S
C517 C519 1.321 . S
C517 H525 0.931 . S
C518 N516 1.343 . S
C518 C519 1.390 . S
C518 H520 0.931 . S
C519 C517 1.321 . S
C519 C518 1.390 . S
C519 H521 0.930 . S
H520 C518 0.931 . S
H521 C519 0.930 . S
H522 C545 0.931 . S
H523 C511 0.929 . S
H524 C546 0.930 . S
H525 C517 0.931 . S
H526 C507 0.930 . S
H527 C536 0.929 . S
H528 C512 0.931 . S
H529 C513 0.930 . S
H530 C568 0.930 . S
H531 C509 0.929 . S
H532 C537 0.931 . S
H533 C538 0.930 . S
N534 Gd514 2.596 1_565 S
N534 C535 1.397 . S
N534 C536 1.341 1_565 S
C535 N534 1.397 . S
C535 C539 1.415 . S
C535 C542 1.422 . S
C536 H527 0.929 . S
C536 N534 1.341 1_545 S
C536 C538 1.378 1_545 S
C537 H532 0.931 . S
C537 C538 1.348 . S
C537 C539 1.413 . S
C538 H533 0.930 . S
C538 C536 1.378 1_565 S
C538 C537 1.348 . S
C539 C535 1.415 . S
C539 C537 1.413 . S
C539 C569 1.437 . S
H540 C569 0.929 . S
N541 Gd514 2.570 1_565 S
N541 C542 1.359 . S
N541 C545 1.343 . S
C542 C535 1.422 . S
C542 N541 1.359 . S
C542 C544 1.421 . S
C543 C544 1.422 . S
C543 C546 1.321 . S
C543 H570 0.931 . S
C544 C542 1.421 . S
C544 C543 1.422 . S
C544 C568 1.417 . S
C545 H522 0.931 . S
C545 N541 1.343 . S
C545 C546 1.390 . S
C546 H524 0.930 . S
C546 C543 1.321 . S
C546 C545 1.390 . S
O547 Gd515 2.386 . S
O547 C559 1.265 . S
O548 Gd514 2.353 . S
O548 C559 1.242 . S
O549 Gd514 2.468 . S
O549 C567 1.263 . S
O550 Gd514 2.427 . S
O550 C567 1.252 . S
O551 Gd515 2.307 . S
O551 C560 1.261 . S
O552 Gd514 2.388 . S
O552 C560 1.252 . S
O553 Gd514 2.386 1_565 S
O553 C571 1.265 . S
O554 Gd515 2.353 1_565 S
O554 C571 1.242 . S
O555 Gd515 2.468 . S
O555 C579 1.263 . S
O556 Gd515 2.427 . S
O556 C579 1.252 . S
O557 Gd514 2.307 . S
O557 C572 1.261 . S
O558 Gd515 2.388 . S
O558 C572 1.252 . S
C559 O547 1.265 . S
C559 O548 1.242 . S
C560 O551 1.261 . S
C560 O552 1.252 . S
C561 C564 1.394 . S
C561 C566 1.370 . S
C561 C567 1.500 . S
C562 C565 1.383 . S
C562 C566 1.395 . S
C563 C564 1.396 . S
C563 C565 1.365 . S
C563 H580 0.929 . S
C564 C561 1.394 . S
C564 C563 1.396 . S
C564 H581 0.930 . S
C565 C562 1.383 . S
C565 C563 1.365 . S
C565 H582 0.931 . S
C566 C561 1.370 . S
C566 C562 1.395 . S
C566 H583 0.930 . S
C567 Gd514 2.805 . S
C567 O549 1.263 . S
C567 O550 1.252 . S
C567 C561 1.500 . S
C568 H530 0.930 . S
C568 C544 1.417 . S
C568 C569 1.329 . S
C569 C539 1.437 . S
C569 H540 0.929 . S
C569 C568 1.329 . S
H570 C543 0.931 . S
C571 O553 1.265 . S
C571 O554 1.242 . S
C572 O557 1.261 . S
C572 O558 1.252 . S
C573 C576 1.394 1_545 S
C573 C578 1.373 1_545 S
C573 C579 1.496 . S
C574 C577 1.383 . S
C574 C578 1.395 . S
C575 C576 1.396 . S
C575 C577 1.365 . S
C575 H584 0.929 . S
C576 C573 1.394 1_565 S
C576 C575 1.396 . S
C576 H585 0.930 . S
C577 C574 1.383 . S
C577 C575 1.365 . S
C577 H586 0.931 . S
C578 C573 1.373 1_565 S
C578 C574 1.395 . S
C578 H587 0.930 . S
C579 Gd515 2.805 . S
C579 O555 1.263 . S
C579 O556 1.252 . S
C579 C573 1.496 . S
H580 C563 0.929 . S
H581 C564 0.930 . S
H582 C565 0.931 . S
H583 C566 0.930 . S
H584 C575 0.929 . S
H585 C576 0.930 . S
H586 C577 0.931 . S
H587 C578 0.930 . S
C588 C590 1.422 . S
C588 C592 1.415 . S
C588 N594 1.369 . S
C589 C590 1.421 . S
C589 C591 1.417 . S
C589 C601 1.422 . S
C590 C588 1.422 . S
C590 C589 1.421 . S
C590 N600 1.359 . S
C591 C589 1.417 . S
C591 C593 1.329 . S
C591 H610 0.930 . S
C592 C588 1.415 . S
C592 C593 1.437 . S
C592 C596 1.413 . S
C593 C591 1.329 . S
C593 C592 1.437 . S
C593 H615 0.929 . S
N594 C588 1.369 . S
N594 C595 1.338 . S
N594 Gd599 2.622 . S
C595 N594 1.338 . S
C595 C597 1.378 . S
C595 H607 0.929 . S
C596 C592 1.413 . S
C596 C597 1.348 . S
C596 H612 0.931 . S
C597 C595 1.378 . S
C597 C596 1.348 . S
C597 H613 0.930 . S
Gd598 N618 2.622 . S
Gd598 N625 2.570 . S
Gd598 O632 2.353 . S
Gd598 O633 2.468 . S
Gd598 O634 2.427 . S
Gd598 O636 2.388 . S
Gd598 O637 2.386 . S
Gd598 O641 2.307 . S
Gd598 C651 2.805 . S
Gd599 N594 2.622 . S
Gd599 N600 2.570 . S
Gd599 O631 2.386 . S
Gd599 O635 2.307 . S
Gd599 O638 2.353 . S
Gd599 O639 2.468 . S
Gd599 O640 2.427 . S
Gd599 O642 2.388 . S
Gd599 C663 2.805 . S
N600 C590 1.359 . S
N600 Gd599 2.570 . S
N600 C602 1.343 . S
C601 C589 1.422 . S
C601 C603 1.321 . S
C601 H609 0.931 . S
C602 N600 1.343 . S
C602 C603 1.390 . S
C602 H604 0.931 . S
C603 C601 1.321 . S
C603 C602 1.390 . S
C603 H605 0.930 . S
H604 C602 0.931 . S
H605 C603 0.930 . S
H606 C629 0.931 . S
H607 C595 0.929 . S
H608 C630 0.930 . S
H609 C601 0.931 . S
H610 C591 0.930 . S
H611 C620 0.929 . S
H612 C596 0.931 . S
H613 C597 0.930 . S
H614 C652 0.930 . S
H615 C593 0.929 . S
H616 C621 0.931 . S
H617 C622 0.930 . S
N618 Gd598 2.622 . S
N618 C619 1.369 . S
N618 C620 1.338 . S
C619 N618 1.369 . S
C619 C623 1.415 . S
C619 C626 1.422 . S
C620 H611 0.929 . S
C620 N618 1.338 . S
C620 C622 1.378 . S
C621 H616 0.931 . S
C621 C622 1.348 . S
C621 C623 1.413 . S
C622 H617 0.930 . S
C622 C620 1.378 . S
C622 C621 1.348 . S
C623 C619 1.415 . S
C623 C621 1.413 . S
C623 C653 1.437 . S
H624 C653 0.929 . S
N625 Gd598 2.570 . S
N625 C626 1.359 . S
N625 C629 1.343 . S
C626 C619 1.422 . S
C626 N625 1.359 . S
C626 C628 1.421 . S
C627 C628 1.422 . S
C627 C630 1.321 . S
C627 H654 0.931 . S
C628 C626 1.421 . S
C628 C627 1.422 . S
C628 C652 1.417 . S
C629 H606 0.931 . S
C629 N625 1.343 . S
C629 C630 1.390 . S
C630 H608 0.930 . S
C630 C627 1.321 . S
C630 C629 1.390 . S
O631 Gd599 2.386 . S
O631 C643 1.265 . S
O632 Gd598 2.353 . S
O632 C643 1.242 . S
O633 Gd598 2.468 . S
O633 C651 1.263 . S
O634 Gd598 2.427 . S
O634 C651 1.252 . S
O635 Gd599 2.307 . S
O635 C644 1.261 . S
O636 Gd598 2.388 . S
O636 C644 1.252 . S
O637 Gd598 2.386 . S
O637 C655 1.265 . S
O638 Gd599 2.353 . S
O638 C655 1.242 . S
O639 Gd599 2.468 . S
O639 C663 1.263 . S
O640 Gd599 2.427 . S
O640 C663 1.252 . S
O641 Gd598 2.307 . S
O641 C656 1.261 . S
O642 Gd599 2.388 . S
O642 C656 1.252 . S
C643 O631 1.265 . S
C643 O632 1.242 . S
C644 O635 1.261 . S
C644 O636 1.252 . S
C645 C648 1.394 . S
C645 C650 1.370 . S
C645 C651 1.500 . S
C646 C649 1.383 . S
C646 C650 1.395 . S
C647 C648 1.396 . S
C647 C649 1.365 . S
C647 H664 0.929 . S
C648 C645 1.394 . S
C648 C647 1.396 . S
C648 H665 0.930 . S
C649 C646 1.383 . S
C649 C647 1.365 . S
C649 H666 0.931 . S
C650 C645 1.370 . S
C650 C646 1.395 . S
C650 H667 0.930 . S
C651 Gd598 2.805 . S
C651 O633 1.263 . S
C651 O634 1.252 . S
C651 C645 1.500 . S
C652 H614 0.930 . S
C652 C628 1.417 . S
C652 C653 1.329 . S
C653 C623 1.437 . S
C653 H624 0.929 . S
C653 C652 1.329 . S
H654 C627 0.931 . S
C655 O637 1.265 . S
C655 O638 1.242 . S
C656 O641 1.261 . S
C656 O642 1.252 . S
C657 C660 1.394 . S
C657 C662 1.370 . S
C657 C663 1.500 . S
C658 C661 1.383 . S
C658 C662 1.395 . S
C659 C660 1.396 . S
C659 C661 1.365 . S
C659 H668 0.929 . S
C660 C657 1.394 . S
C660 C659 1.396 . S
C660 H669 0.930 . S
C661 C658 1.383 . S
C661 C659 1.365 . S
C661 H670 0.931 . S
C662 C657 1.370 . S
C662 C658 1.395 . S
C662 H671 0.930 . S
C663 Gd599 2.805 . S
C663 O639 1.263 . S
C663 O640 1.252 . S
C663 C657 1.500 . S
H664 C647 0.929 . S
H665 C648 0.930 . S
H666 C649 0.931 . S
H667 C650 0.930 . S
H668 C659 0.929 . S
H669 C660 0.930 . S
H670 C661 0.931 . S
H671 C662 0.930 . S
C672 C674 1.422 . S
C672 C676 1.415 . S
C672 N678 1.369 . S
C673 C674 1.421 . S
C673 C675 1.417 . S
C673 C685 1.422 . S
C674 C672 1.422 . S
C674 C673 1.421 . S
C674 N684 1.359 . S
C675 C673 1.417 . S
C675 C677 1.329 . S
C675 H694 0.930 . S
C676 C672 1.415 . S
C676 C677 1.437 . S
C676 C680 1.413 1_455 S
C677 C675 1.329 . S
C677 C676 1.437 . S
C677 H699 0.929 . S
N678 C672 1.369 . S
N678 C679 1.338 1_455 S
N678 Gd683 2.622 . S
C679 N678 1.338 1_655 S
C679 C681 1.378 . S
C679 H691 0.929 . S
C680 C676 1.413 1_655 S
C680 C681 1.348 . S
C680 H696 0.931 . S
C681 C679 1.378 . S
C681 C680 1.348 . S
C681 H697 0.930 . S
Gd682 N702 2.622 1_545 S
Gd682 N709 2.570 1_545 S
Gd682 O716 2.353 . S
Gd682 O717 2.468 1_545 S
Gd682 O718 2.427 1_545 S
Gd682 O720 2.388 . S
Gd682 O721 2.386 . S
Gd682 O725 2.307 . S
Gd682 C735 2.805 1_545 S
Gd683 N678 2.622 . S
Gd683 N684 2.570 . S
Gd683 O715 2.386 . S
Gd683 O719 2.307 . S
Gd683 O722 2.353 . S
Gd683 O723 2.468 . S
Gd683 O724 2.427 . S
Gd683 O726 2.388 1_455 S
Gd683 C747 2.805 . S
N684 C674 1.359 . S
N684 Gd683 2.570 . S
N684 C686 1.343 . S
C685 C673 1.422 . S
C685 C687 1.321 . S
C685 H693 0.931 . S
C686 N684 1.343 . S
C686 C687 1.390 . S
C686 H688 0.931 . S
C687 C685 1.321 . S
C687 C686 1.390 . S
C687 H689 0.930 . S
H688 C686 0.931 . S
H689 C687 0.930 . S
H690 C713 0.931 1_655 S
H691 C679 0.929 . S
H692 C714 0.930 . S
H693 C685 0.931 . S
H694 C675 0.930 . S
H695 C704 0.929 1_545 S
H696 C680 0.931 . S
H697 C681 0.930 . S
H698 C736 0.930 . S
H699 C677 0.929 . S
H700 C705 0.931 . S
H701 C706 0.926 1_545 S
N702 Gd682 2.622 1_565 S
N702 C703 1.369 . S
N702 C704 1.338 . S
C703 N702 1.369 . S
C703 C707 1.415 . S
C703 C710 1.422 . S
C704 H695 0.929 1_565 S
C704 N702 1.338 . S
C704 C706 1.378 . S
C705 H700 0.931 . S
C705 C706 1.348 . S
C705 C707 1.413 . S
C706 H701 0.926 1_565 S
C706 C704 1.378 . S
C706 C705 1.348 . S
C707 C703 1.415 . S
C707 C705 1.413 . S
C707 C737 1.437 . S
H708 C737 0.929 . S
N709 Gd682 2.570 1_565 S
N709 C710 1.359 . S
N709 C713 1.343 . S
C710 C703 1.422 . S
C710 N709 1.359 . S
C710 C712 1.421 . S
C711 C712 1.393 1_655 S
C711 C714 1.341 . S
C711 H738 0.942 . S
C712 C710 1.421 . S
C712 C711 1.393 1_455 S
C712 C736 1.417 . S
C713 H690 0.931 1_455 S
C713 N709 1.343 . S
C713 C714 1.390 1_455 S
C714 H692 0.930 . S
C714 C711 1.341 . S
C714 C713 1.390 1_655 S
O715 Gd683 2.386 . S
O715 C727 1.265 . S
O716 Gd682 2.353 . S
O716 C727 1.242 . S
O717 Gd682 2.468 1_565 S
O717 C735 1.263 . S
O718 Gd682 2.427 1_565 S
O718 C735 1.252 . S
O719 Gd683 2.307 . S
O719 C728 1.261 . S
O720 Gd682 2.388 . S
O720 C728 1.252 . S
O721 Gd682 2.386 . S
O721 C739 1.265 . S
O722 Gd683 2.353 . S
O722 C739 1.242 . S
O723 Gd683 2.468 . S
O723 C747 1.263 . S
O724 Gd683 2.427 . S
O724 C747 1.252 . S
O725 Gd682 2.307 . S
O725 C740 1.261 1_455 S
O726 Gd683 2.388 1_655 S
O726 C740 1.252 . S
C727 O715 1.265 . S
C727 O716 1.242 . S
C728 O719 1.261 . S
C728 O720 1.252 . S
C729 C732 1.394 . S
C729 C734 1.370 . S
C729 C735 1.500 . S
C730 C733 1.383 . S
C730 C734 1.395 . S
C731 C732 1.396 . S
C731 C733 1.365 . S
C731 H748 0.929 . S
C732 C729 1.394 . S
C732 C731 1.396 . S
C732 H749 0.930 . S
C733 C730 1.383 . S
C733 C731 1.365 . S
C733 H750 0.931 . S
C734 C729 1.370 . S
C734 C730 1.395 . S
C734 H751 0.930 . S
C735 Gd682 2.805 1_565 S
C735 O717 1.263 . S
C735 O718 1.252 . S
C735 C729 1.500 . S
C736 H698 0.930 . S
C736 C712 1.417 . S
C736 C737 1.329 . S
C737 C707 1.437 . S
C737 H708 0.929 . S
C737 C736 1.329 . S
H738 C711 0.942 . S
C739 O721 1.265 . S
C739 O722 1.242 . S
C740 O725 1.261 1_655 S
C740 O726 1.252 . S
C741 C744 1.394 1_455 S
C741 C746 1.370 . S
C741 C747 1.500 . S
C742 C745 1.383 . S
C742 C746 1.395 . S
C743 C744 1.396 . S
C743 C745 1.365 1_655 S
C743 H752 0.929 . S
C744 C741 1.394 1_655 S
C744 C743 1.396 . S
C744 H753 0.930 . S
C745 C742 1.383 . S
C745 C743 1.365 1_455 S
C745 H754 0.931 . S
C746 C741 1.370 . S
C746 C742 1.395 . S
C746 H755 0.930 . S
C747 Gd683 2.805 . S
C747 O723 1.263 . S
C747 O724 1.252 . S
C747 C741 1.500 . S
H748 C731 0.929 . S
H749 C732 0.930 . S
H750 C733 0.931 . S
H751 C734 0.930 . S
H752 C743 0.929 . S
H753 C744 0.930 . S
H754 C745 0.931 . S
H755 C746 0.930 . S
C756 C758 1.422 . S
C756 C760 1.415 . S
C756 N762 1.369 . S
C757 C758 1.421 . S
C757 C759 1.417 . S
C757 C769 1.422 . S
C758 C756 1.422 . S
C758 C757 1.421 . S
C758 N768 1.359 . S
C759 C757 1.417 . S
C759 C761 1.329 . S
C759 H778 0.930 . S
C760 C756 1.415 . S
C760 C761 1.437 . S
C760 C764 1.413 . S
C761 C759 1.329 . S
C761 C760 1.437 . S
C761 H783 0.929 . S
N762 C756 1.369 . S
N762 C763 1.338 . S
N762 Gd767 2.622 . S
C763 N762 1.338 . S
C763 C765 1.378 . S
C763 H775 0.929 . S
C764 C760 1.413 . S
C764 C765 1.348 . S
C764 H780 0.931 . S
C765 C763 1.378 . S
C765 C764 1.348 . S
C765 H781 0.930 . S
Gd766 N786 2.622 . S
Gd766 N793 2.570 . S
Gd766 O800 2.353 . S
Gd766 O801 2.468 . S
Gd766 O802 2.427 . S
Gd766 O804 2.388 . S
Gd766 O805 2.386 . S
Gd766 O809 2.307 . S
Gd766 C819 2.805 . S
Gd767 N762 2.622 . S
Gd767 N768 2.570 . S
Gd767 O799 2.386 . S
Gd767 O803 2.307 . S
Gd767 O806 2.353 . S
Gd767 O807 2.468 . S
Gd767 O808 2.427 . S
Gd767 O810 2.388 . S
Gd767 C831 2.805 . S
N768 C758 1.359 . S
N768 Gd767 2.570 . S
N768 C770 1.343 . S
C769 C757 1.422 . S
C769 C771 1.321 . S
C769 H777 0.931 . S
C770 N768 1.343 . S
C770 C771 1.390 . S
C770 H772 0.931 . S
C771 C769 1.321 . S
C771 C770 1.390 . S
C771 H773 0.930 . S
H772 C770 0.931 . S
H773 C771 0.930 . S
H774 C797 0.931 . S
H775 C763 0.929 . S
H776 C798 0.930 . S
H777 C769 0.931 . S
H778 C759 0.930 . S
H779 C788 0.929 . S
H780 C764 0.931 . S
H781 C765 0.930 . S
H782 C820 0.930 . S
H783 C761 0.929 . S
H784 C789 0.931 . S
H785 C790 0.930 . S
N786 Gd766 2.622 . S
N786 C787 1.369 . S
N786 C788 1.338 . S
C787 N786 1.369 . S
C787 C791 1.415 . S
C787 C794 1.422 . S
C788 H779 0.929 . S
C788 N786 1.338 . S
C788 C790 1.378 . S
C789 H784 0.931 . S
C789 C790 1.348 . S
C789 C791 1.413 . S
C790 H785 0.930 . S
C790 C788 1.378 . S
C790 C789 1.348 . S
C791 C787 1.415 . S
C791 C789 1.413 . S
C791 C821 1.437 . S
H792 C821 0.929 . S
N793 Gd766 2.570 . S
N793 C794 1.359 . S
N793 C797 1.343 . S
C794 C787 1.422 . S
C794 N793 1.359 . S
C794 C796 1.421 . S
C795 C796 1.422 . S
C795 C798 1.321 . S
C795 H822 0.931 . S
C796 C794 1.421 . S
C796 C795 1.422 . S
C796 C820 1.417 . S
C797 H774 0.931 . S
C797 N793 1.343 . S
C797 C798 1.390 . S
C798 H776 0.930 . S
C798 C795 1.321 . S
C798 C797 1.390 . S
O799 Gd767 2.386 . S
O799 C811 1.265 . S
O800 Gd766 2.353 . S
O800 C811 1.242 . S
O801 Gd766 2.468 . S
O801 C819 1.263 . S
O802 Gd766 2.427 . S
O802 C819 1.252 . S
O803 Gd767 2.307 . S
O803 C812 1.261 . S
O804 Gd766 2.388 . S
O804 C812 1.252 . S
O805 Gd766 2.386 . S
O805 C823 1.265 . S
O806 Gd767 2.353 . S
O806 C823 1.242 . S
O807 Gd767 2.468 . S
O807 C831 1.263 . S
O808 Gd767 2.427 . S
O808 C831 1.252 . S
O809 Gd766 2.307 . S
O809 C824 1.261 . S
O810 Gd767 2.388 . S
O810 C824 1.252 . S
C811 O799 1.265 . S
C811 O800 1.242 . S
C812 O803 1.261 . S
C812 O804 1.252 . S
C813 C816 1.394 . S
C813 C818 1.370 . S
C813 C819 1.500 . S
C814 C817 1.383 . S
C814 C818 1.395 . S
C815 C816 1.396 . S
C815 C817 1.365 . S
C815 H832 0.929 . S
C816 C813 1.394 . S
C816 C815 1.396 . S
C816 H833 0.930 . S
C817 C814 1.383 . S
C817 C815 1.365 . S
C817 H834 0.931 . S
C818 C813 1.370 . S
C818 C814 1.395 . S
C818 H835 0.930 . S
C819 Gd766 2.805 . S
C819 O801 1.263 . S
C819 O802 1.252 . S
C819 C813 1.500 . S
C820 H782 0.930 . S
C820 C796 1.417 . S
C820 C821 1.329 . S
C821 C791 1.437 . S
C821 H792 0.929 . S
C821 C820 1.329 . S
H822 C795 0.931 . S
C823 O805 1.265 . S
C823 O806 1.242 . S
C824 O809 1.261 . S
C824 O810 1.252 . S
C825 C828 1.394 . S
C825 C830 1.370 . S
C825 C831 1.500 . S
C826 C829 1.383 . S
C826 C830 1.395 . S
C827 C828 1.396 . S
C827 C829 1.365 . S
C827 H836 0.929 . S
C828 C825 1.394 . S
C828 C827 1.396 . S
C828 H837 0.930 . S
C829 C826 1.383 . S
C829 C827 1.365 . S
C829 H838 0.931 . S
C830 C825 1.370 . S
C830 C826 1.395 . S
C830 H839 0.930 . S
C831 Gd767 2.805 . S
C831 O807 1.263 . S
C831 O808 1.252 . S
C831 C825 1.500 . S
H832 C815 0.929 . S
H833 C816 0.930 . S
H834 C817 0.931 . S
H835 C818 0.930 . S
H836 C827 0.929 . S
H837 C828 0.930 . S
H838 C829 0.931 . S
H839 C830 0.930 . S
C840 C842 1.422 . S
C840 C844 1.415 1_545 S
C840 N846 1.369 1_545 S
C841 C842 1.421 . S
C841 C843 1.417 . S
C841 C853 1.422 . S
C842 C840 1.422 . S
C842 C841 1.421 . S
C842 N852 1.359 . S
C843 C841 1.417 . S
C843 C845 1.329 . S
C843 H862 0.930 . S
C844 C840 1.415 1_565 S
C844 C845 1.437 1_565 S
C844 C848 1.413 . S
C845 C843 1.329 . S
C845 C844 1.437 1_545 S
C845 H867 0.929 1_545 S
N846 C840 1.369 1_565 S
N846 C847 1.338 . S
N846 Gd851 2.622 1_565 S
C847 N846 1.338 . S
C847 C849 1.378 . S
C847 H859 0.929 . S
C848 C844 1.413 . S
C848 C849 1.348 . S
C848 H864 0.931 . S
C849 C847 1.378 . S
C849 C848 1.348 . S
C849 H865 0.930 . S
Gd850 N870 2.622 1_554 S
Gd850 N877 2.570 1_554 S
Gd850 O884 2.353 . S
Gd850 O885 2.468 1_554 S
Gd850 O886 2.427 1_554 S
Gd850 O888 2.388 . S
Gd850 O889 2.386 . S
Gd850 O893 2.307 . S
Gd850 C903 2.805 1_554 S
Gd851 N846 2.622 1_545 S
Gd851 N852 2.570 . S
Gd851 O883 2.386 . S
Gd851 O887 2.307 . S
Gd851 O890 2.353 . S
Gd851 O891 2.468 . S
Gd851 O892 2.427 1_545 S
Gd851 O894 2.388 1_545 S
Gd851 C915 2.805 . S
N852 C842 1.359 . S
N852 Gd851 2.570 . S
N852 C854 1.343 . S
C853 C841 1.422 . S
C853 C855 1.321 . S
C853 H861 0.931 . S
C854 N852 1.343 . S
C854 C855 1.390 . S
C854 H856 0.931 . S
C855 C853 1.321 . S
C855 C854 1.390 . S
C855 H857 0.930 . S
H856 C854 0.931 . S
H857 C855 0.930 . S
H858 C881 0.917 1_565 S
H859 C847 0.929 . S
H860 C882 0.930 . S
H861 C853 0.931 . S
H862 C843 0.930 . S
H863 C872 0.929 . S
H864 C848 0.931 . S
H865 C849 0.930 . S
H866 C904 0.930 . S
H867 C845 0.929 1_565 S
H868 C873 0.931 . S
H869 C874 0.930 . S
N870 Gd850 2.622 1_556 S
N870 C871 1.369 . S
N870 C872 1.338 1_556 S
C871 N870 1.369 . S
C871 C875 1.415 . S
C871 C878 1.422 . S
C872 H863 0.929 . S
C872 N870 1.338 1_554 S
C872 C874 1.378 . S
C873 H868 0.931 . S
C873 C874 1.348 1_556 S
C873 C875 1.413 . S
C874 H869 0.930 . S
C874 C872 1.378 . S
C874 C873 1.348 1_554 S
C875 C871 1.415 . S
C875 C873 1.413 . S
C875 C905 1.437 . S
H876 C905 0.929 . S
N877 Gd850 2.570 1_556 S
N877 C878 1.359 . S
N877 C881 1.343 . S
C878 C871 1.422 . S
C878 N877 1.359 . S
C878 C880 1.421 . S
C879 C880 1.422 . S
C879 C882 1.321 1_545 S
C879 H906 0.931 1_545 S
C880 C878 1.421 . S
C880 C879 1.422 . S
C880 C904 1.417 . S
C881 H858 0.917 1_545 S
C881 N877 1.343 . S
C881 C882 1.390 1_545 S
C882 H860 0.930 . S
C882 C879 1.321 1_565 S
C882 C881 1.390 1_565 S
O883 Gd851 2.386 . S
O883 C895 1.265 . S
O884 Gd850 2.353 . S
O884 C895 1.242 . S
O885 Gd850 2.468 1_556 S
O885 C903 1.263 . S
O886 Gd850 2.427 1_556 S
O886 C903 1.252 . S
O887 Gd851 2.307 . S
O887 C896 1.261 . S
O888 Gd850 2.388 . S
O888 C896 1.252 . S
O889 Gd850 2.386 . S
O889 C907 1.265 . S
O890 Gd851 2.353 . S
O890 C907 1.242 . S
O891 Gd851 2.468 . S
O891 C915 1.263 . S
O892 Gd851 2.427 1_565 S
O892 C915 1.252 1_565 S
O893 Gd850 2.307 . S
O893 C908 1.261 1_545 S
O894 Gd851 2.388 1_565 S
O894 C908 1.252 . S
C895 O883 1.265 . S
C895 O884 1.242 . S
C896 O887 1.261 . S
C896 O888 1.252 . S
C897 C900 1.394 . S
C897 C902 1.370 . S
C897 C903 1.500 . S
C898 C901 1.383 . S
C898 C902 1.395 . S
C899 C900 1.396 . S
C899 C901 1.365 . S
C899 H916 0.929 . S
C900 C897 1.394 . S
C900 C899 1.396 . S
C900 H917 0.930 . S
C901 C898 1.383 . S
C901 C899 1.365 . S
C901 H918 0.931 . S
C902 C897 1.370 . S
C902 C898 1.395 . S
C902 H919 0.930 . S
C903 Gd850 2.805 1_556 S
C903 O885 1.263 . S
C903 O886 1.252 . S
C903 C897 1.500 . S
C904 H866 0.930 . S
C904 C880 1.417 . S
C904 C905 1.329 . S
C905 C875 1.437 . S
C905 H876 0.929 . S
C905 C904 1.329 . S
H906 C879 0.931 1_565 S
C907 O889 1.265 . S
C907 O890 1.242 . S
C908 O893 1.261 1_565 S
C908 O894 1.252 . S
C909 C912 1.394 . S
C909 C914 1.370 1_565 S
C909 C915 1.500 1_565 S
C910 C913 1.383 1_545 S
C910 C914 1.395 . S
C911 C912 1.396 . S
C911 C913 1.365 . S
C911 H920 0.929 . S
C912 C909 1.394 . S
C912 C911 1.396 . S
C912 H921 0.930 . S
C913 C910 1.383 1_565 S
C913 C911 1.365 . S
C913 H922 0.931 . S
C914 C909 1.370 1_545 S
C914 C910 1.395 . S
C914 H923 0.930 . S
C915 Gd851 2.805 . S
C915 O891 1.263 . S
C915 O892 1.252 1_545 S
C915 C909 1.500 1_545 S
H916 C899 0.929 . S
H917 C900 0.930 . S
H918 C901 0.931 . S
H919 C902 0.930 . S
H920 C911 0.929 . S
H921 C912 0.930 . S
H922 C913 0.931 . S
H923 C914 0.930 . S
C924 C926 1.422 . S
C924 C928 1.415 . S
C924 N930 1.369 . S
C925 C926 1.421 . S
C925 C927 1.417 . S
C925 C937 1.422 . S
C926 C924 1.422 . S
C926 C925 1.421 . S
C926 N936 1.359 . S
C927 C925 1.417 . S
C927 C929 1.329 . S
C927 H946 0.930 . S
C928 C924 1.415 . S
C928 C929 1.437 . S
C928 C932 1.413 . S
C929 C927 1.329 . S
C929 C928 1.437 . S
C929 H951 0.929 . S
N930 C924 1.369 . S
N930 C931 1.338 . S
N930 Gd935 2.622 . S
C931 N930 1.338 . S
C931 C933 1.378 . S
C931 H943 0.929 . S
C932 C928 1.413 . S
C932 C933 1.348 . S
C932 H948 0.931 . S
C933 C931 1.378 . S
C933 C932 1.348 . S
C933 H949 0.930 . S
Gd934 N954 2.622 . S
Gd934 N961 2.570 . S
Gd934 O968 2.353 . S
Gd934 O969 2.468 . S
Gd934 O970 2.427 . S
Gd934 O972 2.388 . S
Gd934 O973 2.386 . S
Gd934 O977 2.307 . S
Gd934 C987 2.805 . S
Gd935 N930 2.622 . S
Gd935 N936 2.570 . S
Gd935 O967 2.386 . S
Gd935 O971 2.307 . S
Gd935 O974 2.353 . S
Gd935 O975 2.468 . S
Gd935 O976 2.427 . S
Gd935 O978 2.388 . S
Gd935 C999 2.805 . S
N936 C926 1.359 . S
N936 Gd935 2.570 . S
N936 C938 1.343 . S
C937 C925 1.422 . S
C937 C939 1.321 . S
C937 H945 0.931 . S
C938 N936 1.343 . S
C938 C939 1.390 . S
C938 H940 0.931 . S
C939 C937 1.321 . S
C939 C938 1.390 . S
C939 H941 0.930 . S
H940 C938 0.931 . S
H941 C939 0.930 . S
H942 C965 0.931 . S
H943 C931 0.929 . S
H944 C966 0.930 . S
H945 C937 0.931 . S
H946 C927 0.930 . S
H947 C956 0.929 . S
H948 C932 0.931 . S
H949 C933 0.930 . S
H950 C988 0.930 . S
H951 C929 0.929 . S
H952 C957 0.931 . S
H953 C958 0.930 . S
N954 Gd934 2.622 . S
N954 C955 1.369 . S
N954 C956 1.338 . S
C955 N954 1.369 . S
C955 C959 1.415 . S
C955 C962 1.422 . S
C956 H947 0.929 . S
C956 N954 1.338 . S
C956 C958 1.378 . S
C957 H952 0.931 . S
C957 C958 1.348 . S
C957 C959 1.413 . S
C958 H953 0.930 . S
C958 C956 1.378 . S
C958 C957 1.348 . S
C959 C955 1.415 . S
C959 C957 1.413 . S
C959 C989 1.437 . S
H960 C989 0.929 . S
N961 Gd934 2.570 . S
N961 C962 1.359 . S
N961 C965 1.343 . S
C962 C955 1.422 . S
C962 N961 1.359 . S
C962 C964 1.421 . S
C963 C964 1.422 . S
C963 C966 1.321 . S
C963 H990 0.931 . S
C964 C962 1.421 . S
C964 C963 1.422 . S
C964 C988 1.417 . S
C965 H942 0.931 . S
C965 N961 1.343 . S
C965 C966 1.390 . S
C966 H944 0.930 . S
C966 C963 1.321 . S
C966 C965 1.390 . S
O967 Gd935 2.386 . S
O967 C979 1.265 . S
O968 Gd934 2.353 . S
O968 C979 1.242 . S
O969 Gd934 2.468 . S
O969 C987 1.263 . S
O970 Gd934 2.427 . S
O970 C987 1.252 . S
O971 Gd935 2.307 . S
O971 C980 1.261 . S
O972 Gd934 2.388 . S
O972 C980 1.252 . S
O973 Gd934 2.386 . S
O973 C991 1.265 . S
O974 Gd935 2.353 . S
O974 C991 1.242 . S
O975 Gd935 2.468 . S
O975 C999 1.263 . S
O976 Gd935 2.427 . S
O976 C999 1.252 . S
O977 Gd934 2.307 . S
O977 C992 1.261 . S
O978 Gd935 2.388 . S
O978 C992 1.252 . S
C979 O967 1.265 . S
C979 O968 1.242 . S
C980 O971 1.261 . S
C980 O972 1.252 . S
C981 C984 1.394 . S
C981 C986 1.370 . S
C981 C987 1.500 . S
C982 C985 1.383 . S
C982 C986 1.395 . S
C983 C984 1.396 . S
C983 C985 1.365 . S
C983 H1000 0.929 . S
C984 C981 1.394 . S
C984 C983 1.396 . S
C984 H1001 0.930 . S
C985 C982 1.383 . S
C985 C983 1.365 . S
C985 H1002 0.931 . S
C986 C981 1.370 . S
C986 C982 1.395 . S
C986 H1003 0.930 . S
C987 Gd934 2.805 . S
C987 O969 1.263 . S
C987 O970 1.252 . S
C987 C981 1.500 . S
C988 H950 0.930 . S
C988 C964 1.417 . S
C988 C989 1.329 . S
C989 C959 1.437 . S
C989 H960 0.929 . S
C989 C988 1.329 . S
H990 C963 0.931 . S
C991 O973 1.265 . S
C991 O974 1.242 . S
C992 O977 1.261 . S
C992 O978 1.252 . S
C993 C996 1.394 . S
C993 C998 1.370 . S
C993 C999 1.500 . S
C994 C997 1.383 . S
C994 C998 1.395 . S
C995 C996 1.396 . S
C995 C997 1.365 . S
C995 H1004 0.929 . S
C996 C993 1.394 . S
C996 C995 1.396 . S
C996 H1005 0.930 . S
C997 C994 1.383 . S
C997 C995 1.365 . S
C997 H1006 0.931 . S
C998 C993 1.370 . S
C998 C994 1.395 . S
C998 H1007 0.930 . S
C999 Gd935 2.805 . S
C999 O975 1.263 . S
C999 O976 1.252 . S
C999 C993 1.500 . S
H1000 C983 0.929 . S
H1001 C984 0.930 . S
H1002 C985 0.931 . S
H1003 C986 0.930 . S
H1004 C995 0.929 . S
H1005 C996 0.930 . S
H1006 C997 0.931 . S
H1007 C998 0.930 . S
C1008 C1010 1.422 . S
C1008 C1012 1.415 . S
C1008 N1014 1.369 . S
C1009 C1010 1.421 . S
C1009 C1011 1.417 . S
C1009 C1021 1.422 . S
C1010 C1008 1.422 . S
C1010 C1009 1.421 . S
C1010 N1020 1.359 . S
C1011 C1009 1.417 . S
C1011 C1013 1.329 . S
C1011 H1030 0.930 . S
C1012 C1008 1.415 . S
C1012 C1013 1.437 . S
C1012 C1016 1.413 . S
C1013 C1011 1.329 . S
C1013 C1012 1.437 . S
C1013 H1035 0.929 . S
N1014 C1008 1.369 . S
N1014 C1015 1.338 . S
N1014 Gd1019 2.622 . S
C1015 N1014 1.338 . S
C1015 C1017 1.378 . S
C1015 H1027 0.929 . S
C1016 C1012 1.413 . S
C1016 C1017 1.348 . S
C1016 H1032 0.931 . S
C1017 C1015 1.378 . S
C1017 C1016 1.348 . S
C1017 H1033 0.930 . S
Gd1018 N1038 2.622 . S
Gd1018 N1045 2.570 . S
Gd1018 O1052 2.353 . S
Gd1018 O1053 2.468 . S
Gd1018 O1054 2.427 . S
Gd1018 O1056 2.388 . S
Gd1018 O1057 2.386 . S
Gd1018 O1061 2.307 . S
Gd1018 C1071 2.805 . S
Gd1019 N1014 2.622 . S
Gd1019 N1020 2.570 . S
Gd1019 O1051 2.386 . S
Gd1019 O1055 2.307 . S
Gd1019 O1058 2.353 . S
Gd1019 O1059 2.468 . S
Gd1019 O1060 2.427 . S
Gd1019 O1062 2.388 . S
Gd1019 C1083 2.805 . S
N1020 C1010 1.359 . S
N1020 Gd1019 2.570 . S
N1020 C1022 1.343 . S
C1021 C1009 1.422 . S
C1021 C1023 1.321 . S
C1021 H1029 0.931 . S
C1022 N1020 1.343 . S
C1022 C1023 1.390 . S
C1022 H1024 0.931 . S
C1023 C1021 1.321 . S
C1023 C1022 1.390 . S
C1023 H1025 0.930 . S
H1024 C1022 0.931 . S
H1025 C1023 0.930 . S
H1026 C1049 0.931 . S
H1027 C1015 0.929 . S
H1028 C1050 0.930 . S
H1029 C1021 0.931 . S
H1030 C1011 0.930 . S
H1031 C1040 0.929 . S
H1032 C1016 0.931 . S
H1033 C1017 0.930 . S
H1034 C1072 0.930 . S
H1035 C1013 0.929 . S
H1036 C1041 0.931 . S
H1037 C1042 0.930 . S
N1038 Gd1018 2.622 . S
N1038 C1039 1.369 1_554 S
N1038 C1040 1.338 . S
C1039 N1038 1.369 1_556 S
C1039 C1043 1.415 . S
C1039 C1046 1.422 . S
C1040 H1031 0.929 . S
C1040 N1038 1.338 . S
C1040 C1042 1.378 1_554 S
C1041 H1036 0.931 . S
C1041 C1042 1.348 . S
C1041 C1043 1.413 . S
C1042 H1037 0.930 . S
C1042 C1040 1.378 1_556 S
C1042 C1041 1.348 . S
C1043 C1039 1.415 . S
C1043 C1041 1.413 . S
C1043 C1073 1.437 . S
H1044 C1073 0.929 . S
N1045 Gd1018 2.570 . S
N1045 C1046 1.359 1_554 S
N1045 C1049 1.343 . S
C1046 C1039 1.422 . S
C1046 N1045 1.359 1_556 S
C1046 C1048 1.421 . S
C1047 C1048 1.422 . S
C1047 C1050 1.321 . S
C1047 H1074 0.931 . S
C1048 C1046 1.421 . S
C1048 C1047 1.422 . S
C1048 C1072 1.417 . S
C1049 H1026 0.931 . S
C1049 N1045 1.343 . S
C1049 C1050 1.390 1_554 S
C1050 H1028 0.930 . S
C1050 C1047 1.321 . S
C1050 C1049 1.390 1_556 S
O1051 Gd1019 2.386 . S
O1051 C1063 1.265 . S
O1052 Gd1018 2.353 . S
O1052 C1063 1.242 . S
O1053 Gd1018 2.468 . S
O1053 C1071 1.263 . S
O1054 Gd1018 2.427 . S
O1054 C1071 1.252 . S
O1055 Gd1019 2.307 . S
O1055 C1064 1.261 . S
O1056 Gd1018 2.388 . S
O1056 C1064 1.252 . S
O1057 Gd1018 2.386 . S
O1057 C1075 1.265 1_554 S
O1058 Gd1019 2.353 . S
O1058 C1075 1.242 1_554 S
O1059 Gd1019 2.468 . S
O1059 C1083 1.263 . S
O1060 Gd1019 2.427 . S
O1060 C1083 1.252 . S
O1061 Gd1018 2.307 . S
O1061 C1076 1.261 . S
O1062 Gd1019 2.388 . S
O1062 C1076 1.252 . S
C1063 O1051 1.265 . S
C1063 O1052 1.242 . S
C1064 O1055 1.261 . S
C1064 O1056 1.252 . S
C1065 C1068 1.394 . S
C1065 C1070 1.370 . S
C1065 C1071 1.500 . S
C1066 C1069 1.383 . S
C1066 C1070 1.395 . S
C1067 C1068 1.396 . S
C1067 C1069 1.365 . S
C1067 H1084 0.929 . S
C1068 C1065 1.394 . S
C1068 C1067 1.396 . S
C1068 H1085 0.930 . S
C1069 C1066 1.383 . S
C1069 C1067 1.365 . S
C1069 H1086 0.931 . S
C1070 C1065 1.370 . S
C1070 C1066 1.395 . S
C1070 H1087 0.930 . S
C1071 Gd1018 2.805 . S
C1071 O1053 1.263 . S
C1071 O1054 1.252 . S
C1071 C1065 1.500 . S
C1072 H1034 0.930 . S
C1072 C1048 1.417 . S
C1072 C1073 1.329 . S
C1073 C1043 1.437 . S
C1073 H1044 0.929 . S
C1073 C1072 1.329 . S
H1074 C1047 0.931 . S
C1075 O1057 1.265 1_556 S
C1075 O1058 1.242 1_556 S
C1076 O1061 1.261 . S
C1076 O1062 1.252 . S
C1077 C1080 1.394 . S
C1077 C1082 1.370 . S
C1077 C1083 1.500 . S
C1078 C1081 1.383 . S
C1078 C1082 1.395 1_556 S
C1079 C1080 1.423 . S
C1079 C1081 1.340 1_554 S
C1079 H1088 0.932 1_554 S
C1080 C1077 1.394 . S
C1080 C1079 1.423 . S
C1080 H1089 0.930 . S
C1081 C1078 1.383 . S
C1081 C1079 1.340 1_556 S
C1081 H1090 0.931 . S
C1082 C1077 1.370 . S
C1082 C1078 1.395 1_554 S
C1082 H1091 0.930 . S
C1083 Gd1019 2.805 . S
C1083 O1059 1.263 . S
C1083 O1060 1.252 . S
C1083 C1077 1.500 . S
H1084 C1067 0.929 . S
H1085 C1068 0.930 . S
H1086 C1069 0.931 . S
H1087 C1070 0.930 . S
H1088 C1079 0.932 1_556 S
H1089 C1080 0.930 . S
H1090 C1081 0.931 . S
H1091 C1082 0.930 . S
C1092 C1094 1.422 . S
C1092 C1096 1.415 . S
C1092 N1098 1.369 . S
C1093 C1094 1.421 . S
C1093 C1095 1.417 . S
C1093 C1105 1.422 . S
C1094 C1092 1.422 . S
C1094 C1093 1.421 . S
C1094 N1104 1.359 . S
C1095 C1093 1.417 . S
C1095 C1097 1.329 . S
C1095 H1114 0.930 . S
C1096 C1092 1.415 . S
C1096 C1097 1.437 . S
C1096 C1100 1.413 . S
C1097 C1095 1.329 . S
C1097 C1096 1.437 . S
C1097 H1119 0.929 . S
N1098 C1092 1.369 . S
N1098 C1099 1.338 . S
N1098 Gd1103 2.622 . S
C1099 N1098 1.338 . S
C1099 C1101 1.378 . S
C1099 H1111 0.929 . S
C1100 C1096 1.413 . S
C1100 C1101 1.348 . S
C1100 H1116 0.931 . S
C1101 C1099 1.378 . S
C1101 C1100 1.348 . S
C1101 H1117 0.930 . S
Gd1102 N1122 2.622 . S
Gd1102 N1129 2.570 . S
Gd1102 O1136 2.353 . S
Gd1102 O1137 2.468 . S
Gd1102 O1138 2.427 . S
Gd1102 O1140 2.388 . S
Gd1102 O1141 2.386 . S
Gd1102 O1145 2.307 . S
Gd1102 C1155 2.805 . S
Gd1103 N1098 2.622 . S
Gd1103 N1104 2.570 . S
Gd1103 O1135 2.386 . S
Gd1103 O1139 2.307 . S
Gd1103 O1142 2.353 . S
Gd1103 O1143 2.468 . S
Gd1103 O1144 2.427 . S
Gd1103 O1146 2.388 . S
Gd1103 C1167 2.805 . S
N1104 C1094 1.359 . S
N1104 Gd1103 2.570 . S
N1104 C1106 1.343 . S
C1105 C1093 1.422 . S
C1105 C1107 1.321 . S
C1105 H1113 0.931 . S
C1106 N1104 1.343 . S
C1106 C1107 1.390 . S
C1106 H1108 0.931 . S
C1107 C1105 1.321 . S
C1107 C1106 1.390 . S
C1107 H1109 0.930 . S
H1108 C1106 0.931 . S
H1109 C1107 0.930 . S
H1110 C1133 0.931 . S
H1111 C1099 0.929 . S
H1112 C1134 0.930 . S
H1113 C1105 0.931 . S
H1114 C1095 0.930 . S
H1115 C1124 0.929 . S
H1116 C1100 0.931 . S
H1117 C1101 0.930 . S
H1118 C1156 0.930 . S
H1119 C1097 0.929 . S
H1120 C1125 0.931 . S
H1121 C1126 0.930 . S
N1122 Gd1102 2.622 . S
N1122 C1123 1.369 . S
N1122 C1124 1.338 . S
C1123 N1122 1.369 . S
C1123 C1127 1.415 . S
C1123 C1130 1.422 . S
C1124 H1115 0.929 . S
C1124 N1122 1.338 . S
C1124 C1126 1.378 . S
C1125 H1120 0.931 . S
C1125 C1126 1.348 . S
C1125 C1127 1.413 . S
C1126 H1121 0.930 . S
C1126 C1124 1.378 . S
C1126 C1125 1.348 . S
C1127 C1123 1.415 . S
C1127 C1125 1.413 . S
C1127 C1157 1.437 . S
H1128 C1157 0.929 . S
N1129 Gd1102 2.570 . S
N1129 C1130 1.359 . S
N1129 C1133 1.343 . S
C1130 C1123 1.422 . S
C1130 N1129 1.359 . S
C1130 C1132 1.421 . S
C1131 C1132 1.422 . S
C1131 C1134 1.321 . S
C1131 H1158 0.931 . S
C1132 C1130 1.421 . S
C1132 C1131 1.422 . S
C1132 C1156 1.417 . S
C1133 H1110 0.931 . S
C1133 N1129 1.343 . S
C1133 C1134 1.390 . S
C1134 H1112 0.930 . S
C1134 C1131 1.321 . S
C1134 C1133 1.390 . S
O1135 Gd1103 2.386 . S
O1135 C1147 1.265 . S
O1136 Gd1102 2.353 . S
O1136 C1147 1.242 . S
O1137 Gd1102 2.468 . S
O1137 C1155 1.263 . S
O1138 Gd1102 2.427 . S
O1138 C1155 1.252 . S
O1139 Gd1103 2.307 . S
O1139 C1148 1.261 . S
O1140 Gd1102 2.388 . S
O1140 C1148 1.252 . S
O1141 Gd1102 2.386 . S
O1141 C1159 1.265 . S
O1142 Gd1103 2.353 . S
O1142 C1159 1.242 . S
O1143 Gd1103 2.468 . S
O1143 C1167 1.263 . S
O1144 Gd1103 2.427 . S
O1144 C1167 1.252 . S
O1145 Gd1102 2.307 . S
O1145 C1160 1.261 . S
O1146 Gd1103 2.388 . S
O1146 C1160 1.252 . S
C1147 O1135 1.265 . S
C1147 O1136 1.242 . S
C1148 O1139 1.261 . S
C1148 O1140 1.252 . S
C1149 C1152 1.394 . S
C1149 C1154 1.370 . S
C1149 C1155 1.500 . S
C1150 C1153 1.383 . S
C1150 C1154 1.395 . S
C1151 C1152 1.396 . S
C1151 C1153 1.365 . S
C1151 H1168 0.929 . S
C1152 C1149 1.394 . S
C1152 C1151 1.396 . S
C1152 H1169 0.930 . S
C1153 C1150 1.383 . S
C1153 C1151 1.365 . S
C1153 H1170 0.931 . S
C1154 C1149 1.370 . S
C1154 C1150 1.395 . S
C1154 H1171 0.930 . S
C1155 Gd1102 2.805 . S
C1155 O1137 1.263 . S
C1155 O1138 1.252 . S
C1155 C1149 1.500 . S
C1156 H1118 0.930 . S
C1156 C1132 1.417 . S
C1156 C1157 1.329 . S
C1157 C1127 1.437 . S
C1157 H1128 0.929 . S
C1157 C1156 1.329 . S
H1158 C1131 0.931 . S
C1159 O1141 1.265 . S
C1159 O1142 1.242 . S
C1160 O1145 1.261 . S
C1160 O1146 1.252 . S
C1161 C1164 1.394 . S
C1161 C1166 1.370 . S
C1161 C1167 1.500 . S
C1162 C1165 1.383 . S
C1162 C1166 1.395 . S
C1163 C1164 1.396 . S
C1163 C1165 1.365 . S
C1163 H1172 0.929 . S
C1164 C1161 1.394 . S
C1164 C1163 1.396 . S
C1164 H1173 0.930 . S
C1165 C1162 1.383 . S
C1165 C1163 1.365 . S
C1165 H1174 0.931 . S
C1166 C1161 1.370 . S
C1166 C1162 1.395 . S
C1166 H1175 0.930 . S
C1167 Gd1103 2.805 . S
C1167 O1143 1.263 . S
C1167 O1144 1.252 . S
C1167 C1161 1.500 . S
H1168 C1151 0.929 . S
H1169 C1152 0.930 . S
H1170 C1153 0.931 . S
H1171 C1154 0.930 . S
H1172 C1163 0.929 . S
H1173 C1164 0.930 . S
H1174 C1165 0.931 . S
H1175 C1166 0.930 . S
C1176 C1178 1.422 . S
C1176 C1180 1.415 . S
C1176 N1182 1.369 . S
C1177 C1178 1.421 . S
C1177 C1179 1.417 . S
C1177 C1189 1.422 . S
C1178 C1176 1.422 . S
C1178 C1177 1.421 . S
C1178 N1188 1.359 . S
C1179 C1177 1.417 . S
C1179 C1181 1.329 . S
C1179 H1198 0.930 . S
C1180 C1176 1.415 . S
C1180 C1181 1.437 . S
C1180 C1184 1.413 . S
C1181 C1179 1.329 . S
C1181 C1180 1.437 . S
C1181 H1203 0.929 . S
N1182 C1176 1.369 . S
N1182 C1183 1.338 . S
N1182 Gd1187 2.622 . S
C1183 N1182 1.338 . S
C1183 C1185 1.378 . S
C1183 H1195 0.929 . S
C1184 C1180 1.413 . S
C1184 C1185 1.348 . S
C1184 H1200 0.931 . S
C1185 C1183 1.378 . S
C1185 C1184 1.348 . S
C1185 H1201 0.930 . S
Gd1186 N1206 2.622 1_455 S
Gd1186 N1213 2.570 1_455 S
Gd1186 O1220 2.353 . S
Gd1186 O1221 2.468 . S
Gd1186 O1222 2.427 . S
Gd1186 O1224 2.388 . S
Gd1186 O1225 2.386 1_455 S
Gd1186 O1229 2.307 . S
Gd1186 C1239 2.805 . S
Gd1187 N1182 2.622 . S
Gd1187 N1188 2.570 . S
Gd1187 O1219 2.386 . S
Gd1187 O1223 2.307 . S
Gd1187 O1226 2.353 1_455 S
Gd1187 O1227 2.468 . S
Gd1187 O1228 2.427 . S
Gd1187 O1230 2.388 . S
Gd1187 C1251 2.805 . S
N1188 C1178 1.359 . S
N1188 Gd1187 2.570 . S
N1188 C1190 1.343 . S
C1189 C1177 1.422 . S
C1189 C1191 1.321 . S
C1189 H1197 0.931 . S
C1190 N1188 1.343 . S
C1190 C1191 1.390 . S
C1190 H1192 0.931 . S
C1191 C1189 1.321 . S
C1191 C1190 1.390 . S
C1191 H1193 0.930 . S
H1192 C1190 0.931 . S
H1193 C1191 0.930 . S
H1194 C1217 0.964 . S
H1195 C1183 0.929 . S
H1196 C1218 0.930 . S
H1197 C1189 0.931 . S
H1198 C1179 0.930 . S
H1199 C1208 0.929 1_455 S
H1200 C1184 0.931 . S
H1201 C1185 0.930 . S
H1202 C1240 0.930 . S
H1203 C1181 0.929 . S
H1204 C1209 0.931 . S
H1205 C1210 0.930 . S
N1206 Gd1186 2.622 1_655 S
N1206 C1207 1.369 . S
N1206 C1208 1.338 . S
C1207 N1206 1.369 . S
C1207 C1211 1.415 . S
C1207 C1214 1.422 . S
C1208 H1199 0.929 1_655 S
C1208 N1206 1.338 . S
C1208 C1210 1.378 . S
C1209 H1204 0.931 . S
C1209 C1210 1.348 . S
C1209 C1211 1.413 . S
C1210 H1205 0.930 . S
C1210 C1208 1.378 . S
C1210 C1209 1.348 . S
C1211 C1207 1.415 . S
C1211 C1209 1.413 . S
C1211 C1241 1.437 . S
H1212 C1241 0.929 . S
N1213 Gd1186 2.570 1_655 S
N1213 C1214 1.359 . S
N1213 C1217 1.343 . S
C1214 C1207 1.422 . S
C1214 N1213 1.359 . S
C1214 C1216 1.421 . S
C1215 C1216 1.422 . S
C1215 C1218 1.321 . S
C1215 H1242 0.931 . S
C1216 C1214 1.421 . S
C1216 C1215 1.422 . S
C1216 C1240 1.417 . S
C1217 H1194 0.964 . S
C1217 N1213 1.343 . S
C1217 C1218 1.390 . S
C1218 H1196 0.930 . S
C1218 C1215 1.321 . S
C1218 C1217 1.390 . S
O1219 Gd1187 2.386 . S
O1219 C1231 1.265 . S
O1220 Gd1186 2.353 . S
O1220 C1231 1.242 . S
O1221 Gd1186 2.468 . S
O1221 C1239 1.263 . S
O1222 Gd1186 2.427 . S
O1222 C1239 1.252 . S
O1223 Gd1187 2.307 . S
O1223 C1232 1.261 . S
O1224 Gd1186 2.388 . S
O1224 C1232 1.252 . S
O1225 Gd1186 2.386 1_655 S
O1225 C1243 1.265 . S
O1226 Gd1187 2.353 1_655 S
O1226 C1243 1.242 . S
O1227 Gd1187 2.468 . S
O1227 C1251 1.263 . S
O1228 Gd1187 2.427 . S
O1228 C1251 1.252 . S
O1229 Gd1186 2.307 . S
O1229 C1244 1.261 . S
O1230 Gd1187 2.388 . S
O1230 C1244 1.252 . S
C1231 O1219 1.265 . S
C1231 O1220 1.242 . S
C1232 O1223 1.261 . S
C1232 O1224 1.252 . S
C1233 C1236 1.394 . S
C1233 C1238 1.370 . S
C1233 C1239 1.500 . S
C1234 C1237 1.383 . S
C1234 C1238 1.395 . S
C1235 C1236 1.396 . S
C1235 C1237 1.365 . S
C1235 H1252 0.929 . S
C1236 C1233 1.394 . S
C1236 C1235 1.396 . S
C1236 H1253 0.930 . S
C1237 C1234 1.383 . S
C1237 C1235 1.365 . S
C1237 H1254 0.931 . S
C1238 C1233 1.370 . S
C1238 C1234 1.395 . S
C1238 H1255 0.930 . S
C1239 Gd1186 2.805 . S
C1239 O1221 1.263 . S
C1239 O1222 1.252 . S
C1239 C1233 1.500 . S
C1240 H1202 0.930 . S
C1240 C1216 1.417 . S
C1240 C1241 1.329 . S
C1241 C1211 1.437 . S
C1241 H1212 0.929 . S
C1241 C1240 1.329 . S
H1242 C1215 0.931 . S
C1243 O1225 1.265 . S
C1243 O1226 1.242 . S
C1244 O1229 1.261 . S
C1244 O1230 1.252 . S
C1245 C1248 1.394 . S
C1245 C1250 1.370 . S
C1245 C1251 1.500 1_655 S
C1246 C1249 1.383 . S
C1246 C1250 1.395 . S
C1247 C1248 1.396 . S
C1247 C1249 1.365 . S
C1247 H1256 0.929 . S
C1248 C1245 1.394 . S
C1248 C1247 1.396 . S
C1248 H1257 0.930 . S
C1249 C1246 1.383 . S
C1249 C1247 1.365 . S
C1249 H1258 0.931 . S
C1250 C1245 1.370 . S
C1250 C1246 1.395 . S
C1250 H1259 0.930 . S
C1251 Gd1187 2.805 . S
C1251 O1227 1.263 . S
C1251 O1228 1.252 . S
C1251 C1245 1.500 1_455 S
H1252 C1235 0.929 . S
H1253 C1236 0.930 . S
H1254 C1237 0.931 . S
H1255 C1238 0.930 . S
H1256 C1247 0.929 . S
H1257 C1248 0.930 . S
H1258 C1249 0.931 . S
H1259 C1250 0.930 . S
C1260 C1262 1.422 . S
C1260 C1264 1.415 . S
C1260 N1266 1.369 . S
C1261 C1262 1.421 . S
C1261 C1263 1.417 . S
C1261 C1273 1.422 . S
C1262 C1260 1.422 . S
C1262 C1261 1.421 . S
C1262 N1272 1.359 . S
C1263 C1261 1.417 . S
C1263 C1265 1.329 . S
C1263 H1282 0.930 . S
C1264 C1260 1.415 . S
C1264 C1265 1.437 . S
C1264 C1268 1.413 . S
C1265 C1263 1.329 . S
C1265 C1264 1.437 . S
C1265 H1287 0.929 . S
N1266 C1260 1.369 . S
N1266 C1267 1.338 . S
N1266 Gd1271 2.622 . S
C1267 N1266 1.338 . S
C1267 C1269 1.378 . S
C1267 H1279 0.929 . S
C1268 C1264 1.413 . S
C1268 C1269 1.348 . S
C1268 H1284 0.931 . S
C1269 C1267 1.378 . S
C1269 C1268 1.348 . S
C1269 H1285 0.930 . S
Gd1270 N1290 2.622 . S
Gd1270 N1297 2.570 . S
Gd1270 O1304 2.353 . S
Gd1270 O1305 2.468 . S
Gd1270 O1306 2.427 . S
Gd1270 O1308 2.388 . S
Gd1270 O1309 2.386 . S
Gd1270 O1313 2.307 . S
Gd1270 C1323 2.805 . S
Gd1271 N1266 2.622 . S
Gd1271 N1272 2.570 . S
Gd1271 O1303 2.386 . S
Gd1271 O1307 2.307 . S
Gd1271 O1310 2.353 . S
Gd1271 O1311 2.468 . S
Gd1271 O1312 2.427 . S
Gd1271 O1314 2.388 . S
Gd1271 C1335 2.805 . S
N1272 C1262 1.359 . S
N1272 Gd1271 2.570 . S
N1272 C1274 1.343 . S
C1273 C1261 1.422 . S
C1273 C1275 1.321 . S
C1273 H1281 0.931 . S
C1274 N1272 1.343 . S
C1274 C1275 1.390 . S
C1274 H1276 0.931 . S
C1275 C1273 1.321 . S
C1275 C1274 1.390 . S
C1275 H1277 0.930 . S
H1276 C1274 0.931 . S
H1277 C1275 0.930 . S
H1278 C1301 0.931 . S
H1279 C1267 0.929 . S
H1280 C1302 0.930 . S
H1281 C1273 0.931 . S
H1282 C1263 0.930 . S
H1283 C1292 0.929 . S
H1284 C1268 0.931 . S
H1285 C1269 0.930 . S
H1286 C1324 0.930 . S
H1287 C1265 0.929 . S
H1288 C1293 0.931 . S
H1289 C1294 0.930 . S
N1290 Gd1270 2.622 . S
N1290 C1291 1.369 . S
N1290 C1292 1.338 . S
C1291 N1290 1.369 . S
C1291 C1295 1.415 . S
C1291 C1298 1.422 . S
C1292 H1283 0.929 . S
C1292 N1290 1.338 . S
C1292 C1294 1.378 . S
C1293 H1288 0.931 . S
C1293 C1294 1.348 . S
C1293 C1295 1.413 . S
C1294 H1289 0.930 . S
C1294 C1292 1.378 . S
C1294 C1293 1.348 . S
C1295 C1291 1.415 . S
C1295 C1293 1.413 . S
C1295 C1325 1.437 . S
H1296 C1325 0.929 . S
N1297 Gd1270 2.570 . S
N1297 C1298 1.359 . S
N1297 C1301 1.343 . S
C1298 C1291 1.422 . S
C1298 N1297 1.359 . S
C1298 C1300 1.421 . S
C1299 C1300 1.422 . S
C1299 C1302 1.321 . S
C1299 H1326 0.931 . S
C1300 C1298 1.421 . S
C1300 C1299 1.422 . S
C1300 C1324 1.417 . S
C1301 H1278 0.931 . S
C1301 N1297 1.343 . S
C1301 C1302 1.390 . S
C1302 H1280 0.930 . S
C1302 C1299 1.321 . S
C1302 C1301 1.390 . S
O1303 Gd1271 2.386 . S
O1303 C1315 1.265 . S
O1304 Gd1270 2.353 . S
O1304 C1315 1.242 . S
O1305 Gd1270 2.468 . S
O1305 C1323 1.263 . S
O1306 Gd1270 2.427 . S
O1306 C1323 1.252 . S
O1307 Gd1271 2.307 . S
O1307 C1316 1.261 . S
O1308 Gd1270 2.388 . S
O1308 C1316 1.252 . S
O1309 Gd1270 2.386 . S
O1309 C1327 1.265 . S
O1310 Gd1271 2.353 . S
O1310 C1327 1.242 . S
O1311 Gd1271 2.468 . S
O1311 C1335 1.263 . S
O1312 Gd1271 2.427 . S
O1312 C1335 1.252 . S
O1313 Gd1270 2.307 . S
O1313 C1328 1.261 . S
O1314 Gd1271 2.388 . S
O1314 C1328 1.252 . S
C1315 O1303 1.265 . S
C1315 O1304 1.242 . S
C1316 O1307 1.261 . S
C1316 O1308 1.252 . S
C1317 C1320 1.394 . S
C1317 C1322 1.370 . S
C1317 C1323 1.500 . S
C1318 C1321 1.383 . S
C1318 C1322 1.395 . S
C1319 C1320 1.396 . S
C1319 C1321 1.365 . S
C1319 H1336 0.929 . S
C1320 C1317 1.394 . S
C1320 C1319 1.396 . S
C1320 H1337 0.930 . S
C1321 C1318 1.383 . S
C1321 C1319 1.365 . S
C1321 H1338 0.931 . S
C1322 C1317 1.370 . S
C1322 C1318 1.395 . S
C1322 H1339 0.930 . S
C1323 Gd1270 2.805 . S
C1323 O1305 1.263 . S
C1323 O1306 1.252 . S
C1323 C1317 1.500 . S
C1324 H1286 0.930 . S
C1324 C1300 1.417 . S
C1324 C1325 1.329 . S
C1325 C1295 1.437 . S
C1325 H1296 0.929 . S
C1325 C1324 1.329 . S
H1326 C1299 0.931 . S
C1327 O1309 1.265 . S
C1327 O1310 1.242 . S
C1328 O1313 1.261 . S
C1328 O1314 1.252 . S
C1329 C1332 1.394 . S
C1329 C1334 1.370 . S
C1329 C1335 1.500 . S
C1330 C1333 1.383 . S
C1330 C1334 1.395 . S
C1331 C1332 1.396 . S
C1331 C1333 1.365 . S
C1331 H1340 0.929 . S
C1332 C1329 1.394 . S
C1332 C1331 1.396 . S
C1332 H1341 0.930 . S
C1333 C1330 1.383 . S
C1333 C1331 1.365 . S
C1333 H1342 0.931 . S
C1334 C1329 1.370 . S
C1334 C1330 1.395 . S
C1334 H1343 0.930 . S
C1335 Gd1271 2.805 . S
C1335 O1311 1.263 . S
C1335 O1312 1.252 . S
C1335 C1329 1.500 . S
H1336 C1319 0.929 . S
H1337 C1320 0.930 . S
H1338 C1321 0.931 . S
H1339 C1322 0.930 . S
H1340 C1331 0.929 . S
H1341 C1332 0.930 . S
H1342 C1333 0.931 . S
H1343 C1334 0.930 . S
C1344 C1346 1.422 . S
C1344 C1348 1.415 . S
C1344 N1350 1.369 . S
C1345 C1346 1.421 . S
C1345 C1347 1.417 . S
C1345 C1357 1.422 . S
C1346 C1344 1.422 . S
C1346 C1345 1.421 . S
C1346 N1356 1.359 . S
C1347 C1345 1.417 . S
C1347 C1349 1.329 . S
C1347 H1366 0.930 . S
C1348 C1344 1.415 . S
C1348 C1349 1.437 . S
C1348 C1352 1.413 . S
C1349 C1347 1.329 . S
C1349 C1348 1.437 . S
C1349 H1371 0.929 . S
N1350 C1344 1.369 . S
N1350 C1351 1.338 . S
N1350 Gd1355 2.622 . S
C1351 N1350 1.338 . S
C1351 C1353 1.378 . S
C1351 H1363 0.929 . S
C1352 C1348 1.413 . S
C1352 C1353 1.348 . S
C1352 H1368 0.931 . S
C1353 C1351 1.378 . S
C1353 C1352 1.348 . S
C1353 H1369 0.930 . S
Gd1354 N1374 2.622 . S
Gd1354 N1381 2.570 . S
Gd1354 O1388 2.353 . S
Gd1354 O1389 2.468 . S
Gd1354 O1390 2.427 . S
Gd1354 O1392 2.388 . S
Gd1354 O1393 2.386 . S
Gd1354 O1397 2.307 . S
Gd1354 C1407 2.805 . S
Gd1355 N1350 2.622 . S
Gd1355 N1356 2.570 . S
Gd1355 O1387 2.386 . S
Gd1355 O1391 2.307 . S
Gd1355 O1394 2.353 . S
Gd1355 O1395 2.468 . S
Gd1355 O1396 2.427 . S
Gd1355 O1398 2.388 . S
Gd1355 C1419 2.805 . S
N1356 C1346 1.359 . S
N1356 Gd1355 2.570 . S
N1356 C1358 1.343 . S
C1357 C1345 1.422 . S
C1357 C1359 1.321 . S
C1357 H1365 0.931 . S
C1358 N1356 1.343 . S
C1358 C1359 1.390 . S
C1358 H1360 0.931 . S
C1359 C1357 1.321 . S
C1359 C1358 1.390 . S
C1359 H1361 0.930 . S
H1360 C1358 0.931 . S
H1361 C1359 0.930 . S
H1362 C1385 0.931 . S
H1363 C1351 0.929 . S
H1364 C1386 0.930 . S
H1365 C1357 0.931 . S
H1366 C1347 0.930 . S
H1367 C1376 0.929 . S
H1368 C1352 0.931 . S
H1369 C1353 0.930 . S
H1370 C1408 0.930 . S
H1371 C1349 0.929 . S
H1372 C1377 0.931 . S
H1373 C1378 0.930 . S
N1374 Gd1354 2.622 . S
N1374 C1375 1.369 . S
N1374 C1376 1.338 . S
C1375 N1374 1.369 . S
C1375 C1379 1.415 . S
C1375 C1382 1.422 . S
C1376 H1367 0.929 . S
C1376 N1374 1.338 . S
C1376 C1378 1.378 . S
C1377 H1372 0.931 . S
C1377 C1378 1.348 . S
C1377 C1379 1.413 . S
C1378 H1373 0.930 . S
C1378 C1376 1.378 . S
C1378 C1377 1.348 . S
C1379 C1375 1.415 . S
C1379 C1377 1.413 . S
C1379 C1409 1.437 . S
H1380 C1409 0.929 . S
N1381 Gd1354 2.570 . S
N1381 C1382 1.359 . S
N1381 C1385 1.343 . S
C1382 C1375 1.422 . S
C1382 N1381 1.359 . S
C1382 C1384 1.421 . S
C1383 C1384 1.422 . S
C1383 C1386 1.321 . S
C1383 H1410 0.931 . S
C1384 C1382 1.421 . S
C1384 C1383 1.422 . S
C1384 C1408 1.417 . S
C1385 H1362 0.931 . S
C1385 N1381 1.343 . S
C1385 C1386 1.390 . S
C1386 H1364 0.930 . S
C1386 C1383 1.321 . S
C1386 C1385 1.390 . S
O1387 Gd1355 2.386 . S
O1387 C1399 1.265 . S
O1388 Gd1354 2.353 . S
O1388 C1399 1.242 . S
O1389 Gd1354 2.468 . S
O1389 C1407 1.263 . S
O1390 Gd1354 2.427 . S
O1390 C1407 1.252 . S
O1391 Gd1355 2.307 . S
O1391 C1400 1.261 . S
O1392 Gd1354 2.388 . S
O1392 C1400 1.252 . S
O1393 Gd1354 2.386 . S
O1393 C1411 1.265 . S
O1394 Gd1355 2.353 . S
O1394 C1411 1.242 . S
O1395 Gd1355 2.468 . S
O1395 C1419 1.263 . S
O1396 Gd1355 2.427 . S
O1396 C1419 1.252 . S
O1397 Gd1354 2.307 . S
O1397 C1412 1.261 . S
O1398 Gd1355 2.388 . S
O1398 C1412 1.252 . S
C1399 O1387 1.265 . S
C1399 O1388 1.242 . S
C1400 O1391 1.261 . S
C1400 O1392 1.252 . S
C1401 C1404 1.394 . S
C1401 C1406 1.370 . S
C1401 C1407 1.500 . S
C1402 C1405 1.383 . S
C1402 C1406 1.395 . S
C1403 C1404 1.396 . S
C1403 C1405 1.365 . S
C1403 H1420 0.929 . S
C1404 C1401 1.394 . S
C1404 C1403 1.396 . S
C1404 H1421 0.930 . S
C1405 C1402 1.383 . S
C1405 C1403 1.365 . S
C1405 H1422 0.931 . S
C1406 C1401 1.370 . S
C1406 C1402 1.395 . S
C1406 H1423 0.930 . S
C1407 Gd1354 2.805 . S
C1407 O1389 1.263 . S
C1407 O1390 1.252 . S
C1407 C1401 1.500 . S
C1408 H1370 0.930 . S
C1408 C1384 1.417 . S
C1408 C1409 1.329 . S
C1409 C1379 1.437 . S
C1409 H1380 0.929 . S
C1409 C1408 1.329 . S
H1410 C1383 0.931 . S
C1411 O1393 1.265 . S
C1411 O1394 1.242 . S
C1412 O1397 1.261 . S
C1412 O1398 1.252 . S
C1413 C1416 1.394 . S
C1413 C1418 1.370 . S
C1413 C1419 1.500 . S
C1414 C1417 1.383 . S
C1414 C1418 1.395 . S
C1415 C1416 1.396 . S
C1415 C1417 1.365 . S
C1415 H1424 0.929 . S
C1416 C1413 1.394 . S
C1416 C1415 1.396 . S
C1416 H1425 0.930 . S
C1417 C1414 1.383 . S
C1417 C1415 1.365 . S
C1417 H1426 0.931 . S
C1418 C1413 1.370 . S
C1418 C1414 1.395 . S
C1418 H1427 0.930 . S
C1419 Gd1355 2.805 . S
C1419 O1395 1.263 . S
C1419 O1396 1.252 . S
C1419 C1413 1.500 . S
H1420 C1403 0.929 . S
H1421 C1404 0.930 . S
H1422 C1405 0.931 . S
H1423 C1406 0.930 . S
H1424 C1415 0.929 . S
H1425 C1416 0.930 . S
H1426 C1417 0.931 . S
H1427 C1418 0.930 . S
C1428 C1430 1.422 . S
C1428 C1432 1.415 . S
C1428 N1434 1.369 . S
C1429 C1430 1.421 . S
C1429 C1431 1.417 . S
C1429 C1441 1.422 . S
C1430 C1428 1.422 . S
C1430 C1429 1.421 . S
C1430 N1440 1.359 . S
C1431 C1429 1.417 . S
C1431 C1433 1.329 . S
C1431 H1450 0.930 . S
C1432 C1428 1.415 . S
C1432 C1433 1.437 . S
C1432 C1436 1.413 . S
C1433 C1431 1.329 . S
C1433 C1432 1.437 . S
C1433 H1455 0.929 . S
N1434 C1428 1.369 . S
N1434 C1435 1.338 . S
N1434 Gd1439 2.622 . S
C1435 N1434 1.338 . S
C1435 C1437 1.378 . S
C1435 H1447 0.929 . S
C1436 C1432 1.413 . S
C1436 C1437 1.348 . S
C1436 H1452 0.931 . S
C1437 C1435 1.378 . S
C1437 C1436 1.348 . S
C1437 H1453 0.930 . S
Gd1438 N1458 2.622 . S
Gd1438 N1465 2.570 . S
Gd1438 O1472 2.353 . S
Gd1438 O1473 2.468 . S
Gd1438 O1474 2.427 . S
Gd1438 O1476 2.388 . S
Gd1438 O1477 2.386 . S
Gd1438 O1481 2.307 . S
Gd1438 C1491 2.805 . S
Gd1439 N1434 2.622 . S
Gd1439 N1440 2.570 . S
Gd1439 O1471 2.386 . S
Gd1439 O1475 2.307 . S
Gd1439 O1478 2.353 . S
Gd1439 O1479 2.468 . S
Gd1439 O1480 2.427 . S
Gd1439 O1482 2.388 . S
Gd1439 C1503 2.805 . S
N1440 C1430 1.359 . S
N1440 Gd1439 2.570 . S
N1440 C1442 1.343 . S
C1441 C1429 1.422 . S
C1441 C1443 1.321 . S
C1441 H1449 0.931 . S
C1442 N1440 1.343 . S
C1442 C1443 1.390 . S
C1442 H1444 0.931 . S
C1443 C1441 1.321 . S
C1443 C1442 1.390 . S
C1443 H1445 0.930 . S
H1444 C1442 0.931 . S
H1445 C1443 0.930 . S
H1446 C1469 0.931 . S
H1447 C1435 0.929 . S
H1448 C1470 0.930 . S
H1449 C1441 0.931 . S
H1450 C1431 0.930 . S
H1451 C1460 0.929 . S
H1452 C1436 0.931 . S
H1453 C1437 0.930 . S
H1454 C1492 0.930 . S
H1455 C1433 0.929 . S
H1456 C1461 0.931 . S
H1457 C1462 0.930 . S
N1458 Gd1438 2.622 . S
N1458 C1459 1.369 . S
N1458 C1460 1.338 . S
C1459 N1458 1.369 . S
C1459 C1463 1.415 . S
C1459 C1466 1.422 . S
C1460 H1451 0.929 . S
C1460 N1458 1.338 . S
C1460 C1462 1.378 . S
C1461 H1456 0.931 . S
C1461 C1462 1.348 . S
C1461 C1463 1.413 . S
C1462 H1457 0.930 . S
C1462 C1460 1.378 . S
C1462 C1461 1.348 . S
C1463 C1459 1.415 . S
C1463 C1461 1.413 . S
C1463 C1493 1.437 . S
H1464 C1493 0.929 . S
N1465 Gd1438 2.570 . S
N1465 C1466 1.359 . S
N1465 C1469 1.343 . S
C1466 C1459 1.422 . S
C1466 N1465 1.359 . S
C1466 C1468 1.421 . S
C1467 C1468 1.422 . S
C1467 C1470 1.321 . S
C1467 H1494 0.931 . S
C1468 C1466 1.421 . S
C1468 C1467 1.422 . S
C1468 C1492 1.417 . S
C1469 H1446 0.931 . S
C1469 N1465 1.343 . S
C1469 C1470 1.390 . S
C1470 H1448 0.930 . S
C1470 C1467 1.321 . S
C1470 C1469 1.390 . S
O1471 Gd1439 2.386 . S
O1471 C1483 1.265 . S
O1472 Gd1438 2.353 . S
O1472 C1483 1.242 . S
O1473 Gd1438 2.468 . S
O1473 C1491 1.263 . S
O1474 Gd1438 2.427 . S
O1474 C1491 1.252 . S
O1475 Gd1439 2.307 . S
O1475 C1484 1.261 . S
O1476 Gd1438 2.388 . S
O1476 C1484 1.252 . S
O1477 Gd1438 2.386 . S
O1477 C1495 1.265 . S
O1478 Gd1439 2.353 . S
O1478 C1495 1.242 . S
O1479 Gd1439 2.468 . S
O1479 C1503 1.263 . S
O1480 Gd1439 2.427 . S
O1480 C1503 1.252 . S
O1481 Gd1438 2.307 . S
O1481 C1496 1.261 . S
O1482 Gd1439 2.388 . S
O1482 C1496 1.252 . S
C1483 O1471 1.265 . S
C1483 O1472 1.242 . S
C1484 O1475 1.261 . S
C1484 O1476 1.252 . S
C1485 C1488 1.394 . S
C1485 C1490 1.370 . S
C1485 C1491 1.500 . S
C1486 C1489 1.383 . S
C1486 C1490 1.395 . S
C1487 C1488 1.396 . S
C1487 C1489 1.365 . S
C1487 H1504 0.929 . S
C1488 C1485 1.394 . S
C1488 C1487 1.396 . S
C1488 H1505 0.930 . S
C1489 C1486 1.383 . S
C1489 C1487 1.365 . S
C1489 H1506 0.931 . S
C1490 C1485 1.370 . S
C1490 C1486 1.395 . S
C1490 H1507 0.930 . S
C1491 Gd1438 2.805 . S
C1491 O1473 1.263 . S
C1491 O1474 1.252 . S
C1491 C1485 1.500 . S
C1492 H1454 0.930 . S
C1492 C1468 1.417 . S
C1492 C1493 1.329 . S
C1493 C1463 1.437 . S
C1493 H1464 0.929 . S
C1493 C1492 1.329 . S
H1494 C1467 0.931 . S
C1495 O1477 1.265 . S
C1495 O1478 1.242 . S
C1496 O1481 1.261 . S
C1496 O1482 1.252 . S
C1497 C1500 1.394 . S
C1497 C1502 1.370 . S
C1497 C1503 1.500 . S
C1498 C1501 1.383 . S
C1498 C1502 1.395 . S
C1499 C1500 1.396 . S
C1499 C1501 1.365 . S
C1499 H1508 0.929 . S
C1500 C1497 1.394 . S
C1500 C1499 1.396 . S
C1500 H1509 0.930 . S
C1501 C1498 1.383 . S
C1501 C1499 1.365 . S
C1501 H1510 0.931 . S
C1502 C1497 1.370 . S
C1502 C1498 1.395 . S
C1502 H1511 0.930 . S
C1503 Gd1439 2.805 . S
C1503 O1479 1.263 . S
C1503 O1480 1.252 . S
C1503 C1497 1.500 . S
H1504 C1487 0.929 . S
H1505 C1488 0.930 . S
H1506 C1489 0.931 . S
H1507 C1490 0.930 . S
H1508 C1499 0.929 . S
H1509 C1500 0.930 . S
H1510 C1501 0.931 . S
H1511 C1502 0.930 . S
C1512 C1514 1.422 . S
C1512 C1516 1.415 . S
C1512 N1518 1.369 . S
C1513 C1514 1.421 . S
C1513 C1515 1.417 . S
C1513 C1525 1.422 . S
C1514 C1512 1.422 . S
C1514 C1513 1.421 . S
C1514 N1524 1.359 . S
C1515 C1513 1.417 . S
C1515 C1517 1.329 . S
C1515 H1534 0.930 . S
C1516 C1512 1.415 . S
C1516 C1517 1.437 . S
C1516 C1520 1.413 . S
C1517 C1515 1.329 . S
C1517 C1516 1.437 . S
C1517 H1539 0.929 . S
N1518 C1512 1.369 . S
N1518 C1519 1.338 . S
N1518 Gd1523 2.622 . S
C1519 N1518 1.338 . S
C1519 C1521 1.378 . S
C1519 H1531 0.929 . S
C1520 C1516 1.413 . S
C1520 C1521 1.348 . S
C1520 H1536 0.931 . S
C1521 C1519 1.378 . S
C1521 C1520 1.348 . S
C1521 H1537 0.930 . S
Gd1522 N1542 2.622 . S
Gd1522 N1549 2.570 . S
Gd1522 O1556 2.353 . S
Gd1522 O1557 2.468 . S
Gd1522 O1558 2.427 . S
Gd1522 O1560 2.388 . S
Gd1522 O1561 2.386 . S
Gd1522 O1565 2.307 . S
Gd1522 C1575 2.805 . S
Gd1523 N1518 2.622 . S
Gd1523 N1524 2.570 . S
Gd1523 O1555 2.386 . S
Gd1523 O1559 2.307 . S
Gd1523 O1562 2.353 . S
Gd1523 O1563 2.468 . S
Gd1523 O1564 2.427 . S
Gd1523 O1566 2.388 . S
Gd1523 C1587 2.805 . S
N1524 C1514 1.359 . S
N1524 Gd1523 2.570 . S
N1524 C1526 1.343 . S
C1525 C1513 1.422 . S
C1525 C1527 1.321 . S
C1525 H1533 0.931 . S
C1526 N1524 1.343 . S
C1526 C1527 1.390 . S
C1526 H1528 0.931 . S
C1527 C1525 1.321 . S
C1527 C1526 1.390 . S
C1527 H1529 0.930 . S
H1528 C1526 0.931 . S
H1529 C1527 0.930 . S
H1530 C1553 0.931 . S
H1531 C1519 0.929 . S
H1532 C1554 0.930 . S
H1533 C1525 0.931 . S
H1534 C1515 0.930 . S
H1535 C1544 0.929 . S
H1536 C1520 0.931 . S
H1537 C1521 0.930 . S
H1538 C1576 0.930 . S
H1539 C1517 0.929 . S
H1540 C1545 0.931 . S
H1541 C1546 0.930 . S
N1542 Gd1522 2.622 . S
N1542 C1543 1.369 . S
N1542 C1544 1.338 . S
C1543 N1542 1.369 . S
C1543 C1547 1.415 . S
C1543 C1550 1.422 . S
C1544 H1535 0.929 . S
C1544 N1542 1.338 . S
C1544 C1546 1.378 . S
C1545 H1540 0.931 . S
C1545 C1546 1.348 . S
C1545 C1547 1.413 . S
C1546 H1541 0.930 . S
C1546 C1544 1.378 . S
C1546 C1545 1.348 . S
C1547 C1543 1.415 . S
C1547 C1545 1.413 . S
C1547 C1577 1.437 . S
H1548 C1577 0.929 . S
N1549 Gd1522 2.570 . S
N1549 C1550 1.359 . S
N1549 C1553 1.343 . S
C1550 C1543 1.422 . S
C1550 N1549 1.359 . S
C1550 C1552 1.421 . S
C1551 C1552 1.422 . S
C1551 C1554 1.321 . S
C1551 H1578 0.931 . S
C1552 C1550 1.421 . S
C1552 C1551 1.422 . S
C1552 C1576 1.417 . S
C1553 H1530 0.931 . S
C1553 N1549 1.343 . S
C1553 C1554 1.390 . S
C1554 H1532 0.930 . S
C1554 C1551 1.321 . S
C1554 C1553 1.390 . S
O1555 Gd1523 2.386 . S
O1555 C1567 1.265 . S
O1556 Gd1522 2.353 . S
O1556 C1567 1.242 . S
O1557 Gd1522 2.468 . S
O1557 C1575 1.263 . S
O1558 Gd1522 2.427 . S
O1558 C1575 1.252 . S
O1559 Gd1523 2.307 . S
O1559 C1568 1.261 . S
O1560 Gd1522 2.388 . S
O1560 C1568 1.252 . S
O1561 Gd1522 2.386 . S
O1561 C1579 1.265 . S
O1562 Gd1523 2.353 . S
O1562 C1579 1.242 . S
O1563 Gd1523 2.468 . S
O1563 C1587 1.263 . S
O1564 Gd1523 2.427 . S
O1564 C1587 1.252 . S
O1565 Gd1522 2.307 . S
O1565 C1580 1.261 . S
O1566 Gd1523 2.388 . S
O1566 C1580 1.252 . S
C1567 O1555 1.265 . S
C1567 O1556 1.242 . S
C1568 O1559 1.261 . S
C1568 O1560 1.252 . S
C1569 C1572 1.394 . S
C1569 C1574 1.370 . S
C1569 C1575 1.500 . S
C1570 C1573 1.383 . S
C1570 C1574 1.395 . S
C1571 C1572 1.396 . S
C1571 C1573 1.365 . S
C1571 H1588 0.929 . S
C1572 C1569 1.394 . S
C1572 C1571 1.396 . S
C1572 H1589 0.930 . S
C1573 C1570 1.383 . S
C1573 C1571 1.365 . S
C1573 H1590 0.931 . S
C1574 C1569 1.370 . S
C1574 C1570 1.395 . S
C1574 H1591 0.930 . S
C1575 Gd1522 2.805 . S
C1575 O1557 1.263 . S
C1575 O1558 1.252 . S
C1575 C1569 1.500 . S
C1576 H1538 0.930 . S
C1576 C1552 1.417 . S
C1576 C1577 1.329 . S
C1577 C1547 1.437 . S
C1577 H1548 0.929 . S
C1577 C1576 1.329 . S
H1578 C1551 0.931 . S
C1579 O1561 1.265 . S
C1579 O1562 1.242 . S
C1580 O1565 1.261 . S
C1580 O1566 1.252 . S
C1581 C1584 1.394 . S
C1581 C1586 1.370 . S
C1581 C1587 1.500 . S
C1582 C1585 1.383 . S
C1582 C1586 1.395 . S
C1583 C1584 1.396 . S
C1583 C1585 1.365 . S
C1583 H1592 0.929 . S
C1584 C1581 1.394 . S
C1584 C1583 1.396 . S
C1584 H1593 0.930 . S
C1585 C1582 1.383 . S
C1585 C1583 1.365 . S
C1585 H1594 0.931 . S
C1586 C1581 1.370 . S
C1586 C1582 1.395 . S
C1586 H1595 0.930 . S
C1587 Gd1523 2.805 . S
C1587 O1563 1.263 . S
C1587 O1564 1.252 . S
C1587 C1581 1.500 . S
H1588 C1571 0.929 . S
H1589 C1572 0.930 . S
H1590 C1573 0.931 . S
H1591 C1574 0.930 . S
H1592 C1583 0.929 . S
H1593 C1584 0.930 . S
H1594 C1585 0.931 . S
H1595 C1586 0.930 . S
C1596 C1598 1.422 . S
C1596 C1600 1.415 . S
C1596 N1602 1.369 . S
C1597 C1598 1.421 . S
C1597 C1599 1.417 . S
C1597 C1609 1.422 . S
C1598 C1596 1.422 . S
C1598 C1597 1.421 . S
C1598 N1608 1.359 . S
C1599 C1597 1.417 . S
C1599 C1601 1.329 . S
C1599 H1618 0.930 . S
C1600 C1596 1.415 . S
C1600 C1601 1.437 . S
C1600 C1604 1.413 1_554 S
C1601 C1599 1.329 . S
C1601 C1600 1.437 . S
C1601 H1623 0.929 . S
N1602 C1596 1.369 . S
N1602 C1603 1.338 1_554 S
N1602 Gd1607 2.622 . S
C1603 N1602 1.338 1_556 S
C1603 C1605 1.378 . S
C1603 H1615 0.929 . S
C1604 C1600 1.413 1_556 S
C1604 C1605 1.348 . S
C1604 H1620 0.931 . S
C1605 C1603 1.378 . S
C1605 C1604 1.348 . S
C1605 H1621 0.930 . S
Gd1606 N1626 2.620 1_455 S
Gd1606 N1633 2.566 1_455 S
Gd1606 O1640 2.355 . S
Gd1606 O1641 2.463 1_455 S
Gd1606 O1642 2.423 1_455 S
Gd1606 O1644 2.392 . S
Gd1606 O1645 2.389 . S
Gd1606 O1649 2.308 . S
Gd1606 C1659 2.800 1_455 S
Gd1607 N1602 2.622 . S
Gd1607 N1608 2.570 . S
Gd1607 O1639 2.386 . S
Gd1607 O1643 2.307 . S
Gd1607 O1646 2.353 . S
Gd1607 O1647 2.468 . S
Gd1607 O1648 2.427 . S
Gd1607 O1650 2.388 . S
Gd1607 C1671 2.805 . S
N1608 C1598 1.359 . S
N1608 Gd1607 2.570 . S
N1608 C1610 1.343 . S
C1609 C1597 1.422 . S
C1609 C1611 1.321 . S
C1609 H1617 0.931 . S
C1610 N1608 1.343 . S
C1610 C1611 1.390 . S
C1610 H1612 0.931 . S
C1611 C1609 1.321 . S
C1611 C1610 1.390 . S
C1611 H1613 0.930 . S
H1612 C1610 0.931 . S
H1613 C1611 0.930 . S
H1614 C1637 0.931 . S
H1615 C1603 0.929 . S
H1616 C1638 0.930 . S
H1617 C1609 0.931 . S
H1618 C1599 0.930 . S
H1619 C1628 0.929 1_455 S
H1620 C1604 0.931 . S
H1621 C1605 0.930 . S
H1622 C1660 0.930 . S
H1623 C1601 0.929 . S
H1624 C1629 0.931 . S
H1625 C1630 0.947 . S
N1626 Gd1606 2.620 1_655 S
N1626 C1627 1.369 . S
N1626 C1628 1.338 . S
C1627 N1626 1.369 . S
C1627 C1631 1.415 . S
C1627 C1634 1.422 . S
C1628 H1619 0.929 1_655 S
C1628 N1626 1.338 . S
C1628 C1630 1.378 . S
C1629 H1624 0.931 . S
C1629 C1630 1.348 . S
C1629 C1631 1.413 . S
C1630 H1625 0.947 . S
C1630 C1628 1.378 . S
C1630 C1629 1.348 . S
C1631 C1627 1.415 . S
C1631 C1629 1.413 . S
C1631 C1661 1.437 . S
H1632 C1661 0.929 . S
N1633 Gd1606 2.566 1_655 S
N1633 C1634 1.359 . S
N1633 C1637 1.343 . S
C1634 C1627 1.422 . S
C1634 N1633 1.359 . S
C1634 C1636 1.421 . S
C1635 C1636 1.422 . S
C1635 C1638 1.321 . S
C1635 H1662 0.931 . S
C1636 C1634 1.421 . S
C1636 C1635 1.422 . S
C1636 C1660 1.417 . S
C1637 H1614 0.931 . S
C1637 N1633 1.343 . S
C1637 C1638 1.390 . S
C1638 H1616 0.930 . S
C1638 C1635 1.321 . S
C1638 C1637 1.390 . S
O1639 Gd1607 2.386 . S
O1639 C1651 1.265 . S
O1640 Gd1606 2.355 . S
O1640 C1651 1.242 . S
O1641 Gd1606 2.463 1_655 S
O1641 C1659 1.263 . S
O1642 Gd1606 2.423 1_655 S
O1642 C1659 1.252 . S
O1643 Gd1607 2.307 . S
O1643 C1652 1.261 . S
O1644 Gd1606 2.392 . S
O1644 C1652 1.252 . S
O1645 Gd1606 2.389 . S
O1645 C1663 1.265 . S
O1646 Gd1607 2.353 . S
O1646 C1663 1.242 . S
O1647 Gd1607 2.468 . S
O1647 C1671 1.263 . S
O1648 Gd1607 2.427 . S
O1648 C1671 1.252 . S
O1649 Gd1606 2.308 . S
O1649 C1664 1.261 . S
O1650 Gd1607 2.388 . S
O1650 C1664 1.252 . S
C1651 O1639 1.265 . S
C1651 O1640 1.242 . S
C1652 O1643 1.261 . S
C1652 O1644 1.252 . S
C1653 C1656 1.394 . S
C1653 C1658 1.370 . S
C1653 C1659 1.500 . S
C1654 C1657 1.383 . S
C1654 C1658 1.395 . S
C1655 C1656 1.396 . S
C1655 C1657 1.365 . S
C1655 H1672 0.929 . S
C1656 C1653 1.394 . S
C1656 C1655 1.396 . S
C1656 H1673 0.930 . S
C1657 C1654 1.383 . S
C1657 C1655 1.365 . S
C1657 H1674 0.931 . S
C1658 C1653 1.370 . S
C1658 C1654 1.395 . S
C1658 H1675 0.930 . S
C1659 Gd1606 2.800 1_655 S
C1659 O1641 1.263 . S
C1659 O1642 1.252 . S
C1659 C1653 1.500 . S
C1660 H1622 0.930 . S
C1660 C1636 1.417 . S
C1660 C1661 1.329 . S
C1661 C1631 1.437 . S
C1661 H1632 0.929 . S
C1661 C1660 1.329 . S
H1662 C1635 0.931 . S
C1663 O1645 1.265 . S
C1663 O1646 1.242 . S
C1664 O1649 1.261 . S
C1664 O1650 1.252 . S
C1665 C1668 1.394 . S
C1665 C1670 1.370 . S
C1665 C1671 1.500 . S
C1666 C1669 1.383 . S
C1666 C1670 1.395 . S
C1667 C1668 1.396 . S
C1667 C1669 1.365 . S
C1667 H1676 0.929 1_554 S
C1668 C1665 1.394 . S
C1668 C1667 1.396 . S
C1668 H1677 0.930 1_554 S
C1669 C1666 1.383 . S
C1669 C1667 1.365 . S
C1669 H1678 0.931 . S
C1670 C1665 1.370 . S
C1670 C1666 1.395 . S
C1670 H1679 0.930 . S
C1671 Gd1607 2.805 . S
C1671 O1647 1.263 . S
C1671 O1648 1.252 . S
C1671 C1665 1.500 . S
H1672 C1655 0.929 . S
H1673 C1656 0.930 . S
H1674 C1657 0.931 . S
H1675 C1658 0.930 . S
H1676 C1667 0.929 1_556 S
H1677 C1668 0.930 1_556 S
H1678 C1669 0.931 . S
H1679 C1670 0.930 . S
H1680 C1688 0.950 . S
H1681 C1693 0.950 . S
H1682 C1690 0.950 . S
H1683 C1692 0.950 . S
H1684 C1694 0.950 1_655 S
H1685 C1696 0.950 1_556 S
H1686 C1698 0.950 . S
H1687 C1699 0.950 . S
C1688 H1680 0.950 . S
C1688 C1689 1.386 1_455 S
C1688 C1690 1.391 1_556 S
C1689 C1688 1.386 1_655 S
C1689 C1693 1.393 . S
C1690 H1682 0.950 . S
C1690 C1688 1.391 1_554 S
C1690 C1691 1.400 1_554 S
C1691 C1690 1.400 1_556 S
C1691 C1692 1.398 1_455 S
C1691 C1697 1.491 1_556 S
C1692 H1683 0.950 . S
C1692 C1691 1.398 1_655 S
C1692 C1693 1.391 . S
C1693 H1681 0.950 . S
C1693 C1689 1.393 . S
C1693 C1692 1.391 . S
C1694 H1684 0.950 1_455 S
C1694 C1695 1.386 . S
C1694 C1696 1.391 1_455 S
C1695 C1694 1.386 . S
C1695 C1699 1.393 . S
C1696 H1685 0.950 1_554 S
C1696 C1694 1.391 1_655 S
C1696 C1697 1.400 1_655 S
C1697 C1691 1.491 1_554 S
C1697 C1696 1.400 1_455 S
C1697 C1698 1.398 . S
C1698 H1686 0.950 . S
C1698 C1697 1.398 . S
C1698 C1699 1.391 . S
C1699 H1687 0.950 . S
C1699 C1695 1.393 . S
C1699 C1698 1.391 . S
H1700 C1708 0.950 . S
H1701 C1713 0.950 . S
H1702 C1710 0.950 . S
H1703 C1712 0.950 . S
H1704 C1714 0.950 . S
H1705 C1716 0.950 . S
H1706 C1718 0.950 . S
H1707 C1719 0.950 . S
C1708 H1700 0.950 . S
C1708 C1709 1.386 . S
C1708 C1710 1.391 . S
C1709 C1708 1.386 . S
C1709 C1713 1.393 . S
C1710 H1702 0.950 . S
C1710 C1708 1.391 . S
C1710 C1711 1.400 . S
C1711 C1710 1.400 . S
C1711 C1712 1.398 . S
C1711 C1717 1.491 . S
C1712 H1703 0.950 . S
C1712 C1711 1.398 . S
C1712 C1713 1.391 . S
C1713 H1701 0.950 . S
C1713 C1709 1.393 . S
C1713 C1712 1.391 . S
C1714 H1704 0.950 . S
C1714 C1715 1.386 . S
C1714 C1716 1.391 . S
C1715 C1714 1.386 . S
C1715 C1719 1.393 . S
C1716 H1705 0.950 . S
C1716 C1714 1.391 . S
C1716 C1717 1.400 . S
C1717 C1711 1.491 . S
C1717 C1716 1.400 . S
C1717 C1718 1.398 . S
C1718 H1706 0.950 . S
C1718 C1717 1.398 . S
C1718 C1719 1.391 . S
C1719 H1707 0.950 . S
C1719 C1715 1.393 . S
C1719 C1718 1.391 . S
H1720 C1728 0.950 . S
H1721 C1733 0.950 . S
H1722 C1730 0.950 . S
H1723 C1732 0.950 . S
H1724 C1734 0.950 . S
H1725 C1736 0.950 . S
H1726 C1738 0.950 . S
H1727 C1739 0.950 . S
C1728 H1720 0.950 . S
C1728 C1729 1.386 . S
C1728 C1730 1.391 . S
C1729 C1728 1.386 . S
C1729 C1733 1.393 . S
C1730 H1722 0.950 . S
C1730 C1728 1.391 . S
C1730 C1731 1.400 . S
C1731 C1730 1.400 . S
C1731 C1732 1.398 . S
C1731 C1737 1.491 . S
C1732 H1723 0.950 . S
C1732 C1731 1.398 . S
C1732 C1733 1.391 . S
C1733 H1721 0.950 . S
C1733 C1729 1.393 . S
C1733 C1732 1.391 . S
C1734 H1724 0.950 . S
C1734 C1735 1.386 . S
C1734 C1736 1.391 . S
C1735 C1734 1.386 . S
C1735 C1739 1.393 . S
C1736 H1725 0.950 . S
C1736 C1734 1.391 . S
C1736 C1737 1.400 . S
C1737 C1731 1.491 . S
C1737 C1736 1.400 . S
C1737 C1738 1.398 . S
C1738 H1726 0.950 . S
C1738 C1737 1.398 . S
C1738 C1739 1.391 . S
C1739 H1727 0.950 . S
C1739 C1735 1.393 . S
C1739 C1738 1.391 . S
H1740 C1748 0.950 . S
H1741 C1753 0.950 . S
H1742 C1750 0.950 . S
H1743 C1752 0.950 . S
H1744 C1754 0.950 . S
H1745 C1756 0.950 . S
H1746 C1758 0.950 . S
H1747 C1759 0.950 . S
C1748 H1740 0.950 . S
C1748 C1749 1.386 . S
C1748 C1750 1.391 . S
C1749 C1748 1.386 . S
C1749 C1753 1.393 . S
C1750 H1742 0.950 . S
C1750 C1748 1.391 . S
C1750 C1751 1.400 . S
C1751 C1750 1.400 . S
C1751 C1752 1.398 . S
C1751 C1757 1.491 . S
C1752 H1743 0.950 . S
C1752 C1751 1.398 . S
C1752 C1753 1.391 . S
C1753 H1741 0.950 . S
C1753 C1749 1.393 . S
C1753 C1752 1.391 . S
C1754 H1744 0.950 . S
C1754 C1755 1.386 . S
C1754 C1756 1.391 . S
C1755 C1754 1.386 . S
C1755 C1759 1.393 . S
C1756 H1745 0.950 . S
C1756 C1754 1.391 . S
C1756 C1757 1.400 . S
C1757 C1751 1.491 . S
C1757 C1756 1.400 . S
C1757 C1758 1.398 . S
C1758 H1746 0.950 . S
C1758 C1757 1.398 . S
C1758 C1759 1.391 . S
C1759 H1747 0.950 . S
C1759 C1755 1.393 . S
C1759 C1758 1.391 . S
H1760 C1768 0.950 . S
H1761 C1773 0.950 . S
H1762 C1770 0.950 . S
H1763 C1772 0.950 . S
H1764 C1774 0.950 . S
H1765 C1776 0.950 . S
H1766 C1778 0.950 . S
H1767 C1779 0.950 . S
C1768 H1760 0.950 . S
C1768 C1769 1.386 . S
C1768 C1770 1.391 . S
C1769 C1768 1.386 . S
C1769 C1773 1.393 . S
C1770 H1762 0.950 . S
C1770 C1768 1.391 . S
C1770 C1771 1.400 . S
C1771 C1770 1.400 . S
C1771 C1772 1.398 . S
C1771 C1777 1.491 . S
C1772 H1763 0.950 . S
C1772 C1771 1.398 . S
C1772 C1773 1.391 . S
C1773 H1761 0.950 . S
C1773 C1769 1.393 . S
C1773 C1772 1.391 . S
C1774 H1764 0.950 . S
C1774 C1775 1.386 . S
C1774 C1776 1.391 . S
C1775 C1774 1.386 . S
C1775 C1779 1.393 . S
C1776 H1765 0.950 . S
C1776 C1774 1.391 . S
C1776 C1777 1.400 . S
C1777 C1771 1.491 . S
C1777 C1776 1.400 . S
C1777 C1778 1.398 . S
C1778 H1766 0.950 . S
C1778 C1777 1.398 . S
C1778 C1779 1.391 . S
C1779 H1767 0.950 . S
C1779 C1775 1.393 . S
C1779 C1778 1.391 . S
H1780 C1788 0.950 . S
H1781 C1793 0.950 . S
H1782 C1790 0.950 . S
H1783 C1792 0.950 . S
H1784 C1794 0.950 . S
H1785 C1796 0.950 . S
H1786 C1798 0.950 . S
H1787 C1799 0.950 . S
C1788 H1780 0.950 . S
C1788 C1789 1.386 . S
C1788 C1790 1.391 . S
C1789 C1788 1.386 . S
C1789 C1793 1.393 . S
C1790 H1782 0.950 . S
C1790 C1788 1.391 . S
C1790 C1791 1.400 . S
C1791 C1790 1.400 . S
C1791 C1792 1.398 . S
C1791 C1797 1.491 . S
C1792 H1783 0.950 . S
C1792 C1791 1.398 . S
C1792 C1793 1.391 . S
C1793 H1781 0.950 . S
C1793 C1789 1.393 . S
C1793 C1792 1.391 . S
C1794 H1784 0.950 . S
C1794 C1795 1.386 . S
C1794 C1796 1.391 . S
C1795 C1794 1.386 . S
C1795 C1799 1.393 . S
C1796 H1785 0.950 . S
C1796 C1794 1.391 . S
C1796 C1797 1.400 . S
C1797 C1791 1.491 . S
C1797 C1796 1.400 . S
C1797 C1798 1.398 . S
C1798 H1786 0.950 . S
C1798 C1797 1.398 . S
C1798 C1799 1.391 . S
C1799 H1787 0.950 . S
C1799 C1795 1.393 . S
C1799 C1798 1.391 . S
H1800 C1808 0.950 . S
H1801 C1813 0.950 . S
H1802 C1810 0.950 . S
H1803 C1812 0.950 . S
H1804 C1814 0.950 . S
H1805 C1816 0.950 . S
H1806 C1818 0.950 . S
H1807 C1819 0.950 . S
C1808 H1800 0.950 . S
C1808 C1809 1.386 . S
C1808 C1810 1.391 . S
C1809 C1808 1.386 . S
C1809 C1813 1.393 . S
C1810 H1802 0.950 . S
C1810 C1808 1.391 . S
C1810 C1811 1.400 . S
C1811 C1810 1.400 . S
C1811 C1812 1.398 . S
C1811 C1817 1.491 . S
C1812 H1803 0.950 . S
C1812 C1811 1.398 . S
C1812 C1813 1.391 . S
C1813 H1801 0.950 . S
C1813 C1809 1.393 . S
C1813 C1812 1.391 . S
C1814 H1804 0.950 . S
C1814 C1815 1.386 . S
C1814 C1816 1.391 . S
C1815 C1814 1.386 . S
C1815 C1819 1.393 . S
C1816 H1805 0.950 . S
C1816 C1814 1.391 . S
C1816 C1817 1.400 . S
C1817 C1811 1.491 . S
C1817 C1816 1.400 . S
C1817 C1818 1.398 . S
C1818 H1806 0.950 . S
C1818 C1817 1.398 . S
C1818 C1819 1.391 . S
C1819 H1807 0.950 . S
C1819 C1815 1.393 . S
C1819 C1818 1.391 . S
H1820 C1828 0.950 . S
H1821 C1833 0.950 . S
H1822 C1830 0.950 . S
H1823 C1832 0.950 . S
H1824 C1834 0.950 . S
H1825 C1836 0.950 . S
H1826 C1838 0.950 . S
H1827 C1839 0.950 . S
C1828 H1820 0.950 . S
C1828 C1829 1.386 . S
C1828 C1830 1.391 . S
C1829 C1828 1.386 . S
C1829 C1833 1.393 . S
C1830 H1822 0.950 . S
C1830 C1828 1.391 . S
C1830 C1831 1.400 . S
C1831 C1830 1.400 . S
C1831 C1832 1.398 . S
C1831 C1837 1.491 . S
C1832 H1823 0.950 . S
C1832 C1831 1.398 . S
C1832 C1833 1.391 . S
C1833 H1821 0.950 . S
C1833 C1829 1.393 . S
C1833 C1832 1.391 . S
C1834 H1824 0.950 . S
C1834 C1835 1.386 . S
C1834 C1836 1.391 . S
C1835 C1834 1.386 . S
C1835 C1839 1.393 . S
C1836 H1825 0.950 . S
C1836 C1834 1.391 . S
C1836 C1837 1.400 . S
C1837 C1831 1.491 . S
C1837 C1836 1.400 . S
C1837 C1838 1.398 . S
C1838 H1826 0.950 . S
C1838 C1837 1.398 . S
C1838 C1839 1.391 . S
C1839 H1827 0.950 . S
C1839 C1835 1.393 . S
C1839 C1838 1.391 . S
H1840 C1848 0.950 1_565 S
H1841 C1853 0.950 . S
H1842 C1850 0.947 1_565 S
H1843 C1852 0.950 . S
H1844 C1854 0.950 . S
H1845 C1856 0.950 . S
H1846 C1858 0.950 1_455 S
H1847 C1859 0.950 . S
C1848 H1840 0.950 1_545 S
C1848 C1849 1.386 . S
C1848 C1850 1.391 . S
C1849 C1848 1.386 . S
C1849 C1853 1.393 . S
C1850 H1842 0.947 1_545 S
C1850 C1848 1.391 . S
C1850 C1851 1.400 . S
C1851 C1850 1.400 . S
C1851 C1852 1.398 . S
C1851 C1857 1.491 . S
C1852 H1843 0.950 . S
C1852 C1851 1.398 . S
C1852 C1853 1.391 . S
C1853 H1841 0.950 . S
C1853 C1849 1.393 . S
C1853 C1852 1.391 . S
C1854 H1844 0.950 . S
C1854 C1855 1.386 1_655 S
C1854 C1856 1.391 . S
C1855 C1854 1.386 1_455 S
C1855 C1859 1.393 . S
C1856 H1845 0.950 . S
C1856 C1854 1.391 . S
C1856 C1857 1.400 . S
C1857 C1851 1.491 . S
C1857 C1856 1.400 . S
C1857 C1858 1.398 . S
C1858 H1846 0.950 1_655 S
C1858 C1857 1.398 . S
C1858 C1859 1.391 1_655 S
C1859 H1847 0.950 . S
C1859 C1855 1.393 . S
C1859 C1858 1.391 1_455 S
H1860 C1868 0.950 . S
H1861 C1873 0.950 . S
H1862 C1870 0.950 . S
H1863 C1872 0.950 . S
H1864 C1874 0.950 . S
H1865 C1876 0.950 . S
H1866 C1878 0.950 . S
H1867 C1879 0.950 . S
C1868 H1860 0.950 . S
C1868 C1869 1.386 . S
C1868 C1870 1.391 . S
C1869 C1868 1.386 . S
C1869 C1873 1.393 . S
C1870 H1862 0.950 . S
C1870 C1868 1.391 . S
C1870 C1871 1.400 . S
C1871 C1870 1.400 . S
C1871 C1872 1.398 . S
C1871 C1877 1.491 . S
C1872 H1863 0.950 . S
C1872 C1871 1.398 . S
C1872 C1873 1.391 . S
C1873 H1861 0.950 . S
C1873 C1869 1.393 . S
C1873 C1872 1.391 . S
C1874 H1864 0.950 . S
C1874 C1875 1.386 . S
C1874 C1876 1.391 . S
C1875 C1874 1.386 . S
C1875 C1879 1.393 . S
C1876 H1865 0.950 . S
C1876 C1874 1.391 . S
C1876 C1877 1.400 . S
C1877 C1871 1.491 . S
C1877 C1876 1.400 . S
C1877 C1878 1.398 . S
C1878 H1866 0.950 . S
C1878 C1877 1.398 . S
C1878 C1879 1.391 . S
C1879 H1867 0.950 . S
C1879 C1875 1.393 . S
C1879 C1878 1.391 . S
H1880 C1888 0.950 . S
H1881 C1893 0.950 . S
H1882 C1890 0.950 . S
H1883 C1892 0.950 . S
H1884 C1894 0.950 . S
H1885 C1896 0.950 . S
H1886 C1898 0.950 . S
H1887 C1899 0.950 . S
C1888 H1880 0.950 . S
C1888 C1889 1.386 . S
C1888 C1890 1.391 . S
C1889 C1888 1.386 . S
C1889 C1893 1.393 . S
C1890 H1882 0.950 . S
C1890 C1888 1.391 . S
C1890 C1891 1.400 . S
C1891 C1890 1.400 . S
C1891 C1892 1.398 . S
C1891 C1897 1.491 . S
C1892 H1883 0.950 . S
C1892 C1891 1.398 . S
C1892 C1893 1.391 . S
C1893 H1881 0.950 . S
C1893 C1889 1.393 . S
C1893 C1892 1.391 . S
C1894 H1884 0.950 . S
C1894 C1895 1.386 . S
C1894 C1896 1.391 . S
C1895 C1894 1.386 . S
C1895 C1899 1.393 . S
C1896 H1885 0.950 . S
C1896 C1894 1.391 . S
C1896 C1897 1.400 . S
C1897 C1891 1.491 . S
C1897 C1896 1.400 . S
C1897 C1898 1.398 . S
C1898 H1886 0.950 . S
C1898 C1897 1.398 . S
C1898 C1899 1.391 . S
C1899 H1887 0.950 . S
C1899 C1895 1.393 . S
C1899 C1898 1.391 . S
H1900 C1908 0.950 . S
H1901 C1913 0.950 . S
H1902 C1910 0.950 . S
H1903 C1912 0.950 . S
H1904 C1914 0.950 . S
H1905 C1916 0.950 . S
H1906 C1918 0.950 . S
H1907 C1919 0.950 . S
C1908 H1900 0.950 . S
C1908 C1909 1.386 . S
C1908 C1910 1.391 . S
C1909 C1908 1.386 . S
C1909 C1913 1.393 . S
C1910 H1902 0.950 . S
C1910 C1908 1.391 . S
C1910 C1911 1.400 . S
C1911 C1910 1.400 . S
C1911 C1912 1.398 . S
C1911 C1917 1.491 . S
C1912 H1903 0.950 . S
C1912 C1911 1.398 . S
C1912 C1913 1.391 . S
C1913 H1901 0.950 . S
C1913 C1909 1.393 . S
C1913 C1912 1.391 . S
C1914 H1904 0.950 . S
C1914 C1915 1.386 . S
C1914 C1916 1.391 . S
C1915 C1914 1.386 . S
C1915 C1919 1.393 . S
C1916 H1905 0.950 . S
C1916 C1914 1.391 . S
C1916 C1917 1.400 . S
C1917 C1911 1.491 . S
C1917 C1916 1.400 . S
C1917 C1918 1.398 . S
C1918 H1906 0.950 . S
C1918 C1917 1.398 . S
C1918 C1919 1.391 . S
C1919 H1907 0.950 . S
C1919 C1915 1.393 . S
C1919 C1918 1.391 . S
H1920 C1928 0.950 . S
H1921 C1933 0.950 . S
H1922 C1930 0.950 1_455 S
H1923 C1932 0.950 . S
H1924 C1934 0.950 . S
H1925 C1936 0.950 . S
H1926 C1938 0.950 . S
H1927 C1939 0.950 . S
C1928 H1920 0.950 . S
C1928 C1929 1.386 . S
C1928 C1930 1.391 . S
C1929 C1928 1.386 . S
C1929 C1933 1.393 . S
C1930 H1922 0.950 1_655 S
C1930 C1928 1.391 . S
C1930 C1931 1.400 . S
C1931 C1930 1.400 . S
C1931 C1932 1.398 . S
C1931 C1937 1.491 . S
C1932 H1923 0.950 . S
C1932 C1931 1.398 . S
C1932 C1933 1.391 . S
C1933 H1921 0.950 . S
C1933 C1929 1.393 . S
C1933 C1932 1.391 . S
C1934 H1924 0.950 . S
C1934 C1935 1.386 1_655 S
C1934 C1936 1.391 . S
C1935 C1934 1.386 1_455 S
C1935 C1939 1.393 . S
C1936 H1925 0.950 . S
C1936 C1934 1.391 . S
C1936 C1937 1.400 . S
C1937 C1931 1.491 . S
C1937 C1936 1.400 . S
C1937 C1938 1.398 1_655 S
C1938 H1926 0.950 . S
C1938 C1937 1.398 1_455 S
C1938 C1939 1.391 . S
C1939 H1927 0.950 . S
C1939 C1935 1.393 . S
C1939 C1938 1.391 . S
H1940 C1948 0.950 . S
H1941 C1953 0.950 . S
H1942 C1950 0.950 . S
H1943 C1952 0.950 . S
H1944 C1954 0.950 . S
H1945 C1956 0.950 . S
H1946 C1958 0.950 . S
H1947 C1959 0.950 . S
C1948 H1940 0.950 . S
C1948 C1949 1.386 . S
C1948 C1950 1.391 . S
C1949 C1948 1.386 . S
C1949 C1953 1.393 . S
C1950 H1942 0.950 . S
C1950 C1948 1.391 . S
C1950 C1951 1.400 . S
C1951 C1950 1.400 . S
C1951 C1952 1.398 . S
C1951 C1957 1.491 . S
C1952 H1943 0.950 . S
C1952 C1951 1.398 . S
C1952 C1953 1.391 . S
C1953 H1941 0.950 . S
C1953 C1949 1.393 . S
C1953 C1952 1.391 . S
C1954 H1944 0.950 . S
C1954 C1955 1.386 . S
C1954 C1956 1.391 . S
C1955 C1954 1.386 . S
C1955 C1959 1.393 . S
C1956 H1945 0.950 . S
C1956 C1954 1.391 . S
C1956 C1957 1.400 . S
C1957 C1951 1.491 . S
C1957 C1956 1.400 . S
C1957 C1958 1.398 . S
C1958 H1946 0.950 . S
C1958 C1957 1.398 . S
C1958 C1959 1.391 . S
C1959 H1947 0.950 . S
C1959 C1955 1.393 . S
C1959 C1958 1.391 . S
H1960 C1968 0.950 . S
H1961 C1973 0.950 . S
H1962 C1970 0.950 . S
H1963 C1972 0.950 . S
H1964 C1974 0.950 . S
H1965 C1976 0.950 . S
H1966 C1978 0.950 . S
H1967 C1979 0.950 . S
C1968 H1960 0.950 . S
C1968 C1969 1.386 . S
C1968 C1970 1.391 . S
C1969 C1968 1.386 . S
C1969 C1973 1.393 . S
C1970 H1962 0.950 . S
C1970 C1968 1.391 . S
C1970 C1971 1.400 . S
C1971 C1970 1.400 . S
C1971 C1972 1.398 . S
C1971 C1977 1.491 . S
C1972 H1963 0.950 . S
C1972 C1971 1.398 . S
C1972 C1973 1.391 . S
C1973 H1961 0.950 . S
C1973 C1969 1.393 . S
C1973 C1972 1.391 . S
C1974 H1964 0.950 . S
C1974 C1975 1.386 . S
C1974 C1976 1.391 . S
C1975 C1974 1.386 . S
C1975 C1979 1.393 . S
C1976 H1965 0.950 . S
C1976 C1974 1.391 . S
C1976 C1977 1.400 . S
C1977 C1971 1.491 . S
C1977 C1976 1.400 . S
C1977 C1978 1.398 . S
C1978 H1966 0.950 . S
C1978 C1977 1.398 . S
C1978 C1979 1.391 . S
C1979 H1967 0.950 . S
C1979 C1975 1.393 . S
C1979 C1978 1.391 . S
H1980 C1988 0.950 . S
H1981 C1993 0.950 . S
H1982 C1990 0.950 . S
H1983 C1992 0.950 . S
H1984 C1994 0.950 . S
H1985 C1996 0.950 . S
H1986 C1998 0.950 . S
H1987 C1999 0.950 . S
C1988 H1980 0.950 . S
C1988 C1989 1.386 . S
C1988 C1990 1.391 . S
C1989 C1988 1.386 . S
C1989 C1993 1.393 . S
C1990 H1982 0.950 . S
C1990 C1988 1.391 . S
C1990 C1991 1.400 . S
C1991 C1990 1.400 . S
C1991 C1992 1.398 . S
C1991 C1997 1.491 . S
C1992 H1983 0.950 . S
C1992 C1991 1.398 . S
C1992 C1993 1.391 . S
C1993 H1981 0.950 . S
C1993 C1989 1.393 . S
C1993 C1992 1.391 . S
C1994 H1984 0.950 . S
C1994 C1995 1.386 . S
C1994 C1996 1.391 . S
C1995 C1994 1.386 . S
C1995 C1999 1.393 . S
C1996 H1985 0.950 . S
C1996 C1994 1.391 . S
C1996 C1997 1.400 . S
C1997 C1991 1.491 . S
C1997 C1996 1.400 . S
C1997 C1998 1.398 . S
C1998 H1986 0.950 . S
C1998 C1997 1.398 . S
C1998 C1999 1.391 . S
C1999 H1987 0.950 . S
C1999 C1995 1.393 . S
C1999 C1998 1.391 . S
H2000 C2008 0.950 . S
H2001 C2013 0.929 1_556 S
H2002 C2010 0.950 . S
H2003 C2012 0.950 . S
H2004 C2014 0.950 . S
H2005 C2016 0.950 . S
H2006 C2018 0.950 . S
H2007 C2019 0.950 . S
C2008 H2000 0.950 . S
C2008 C2009 1.386 . S
C2008 C2010 1.391 . S
C2009 C2008 1.386 . S
C2009 C2013 1.405 . S
C2010 H2002 0.950 . S
C2010 C2008 1.391 . S
C2010 C2011 1.400 . S
C2011 C2010 1.400 . S
C2011 C2012 1.398 . S
C2011 C2017 1.491 . S
C2012 H2003 0.950 . S
C2012 C2011 1.398 . S
C2012 C2013 1.400 . S
C2013 H2001 0.929 1_554 S
C2013 C2009 1.405 . S
C2013 C2012 1.400 . S
C2014 H2004 0.950 . S
C2014 C2015 1.386 . S
C2014 C2016 1.391 . S
C2015 C2014 1.386 . S
C2015 C2019 1.393 1_545 S
C2016 H2005 0.950 . S
C2016 C2014 1.391 . S
C2016 C2017 1.400 1_545 S
C2017 C2011 1.491 . S
C2017 C2016 1.400 1_565 S
C2017 C2018 1.398 . S
C2018 H2006 0.950 . S
C2018 C2017 1.398 . S
C2018 C2019 1.391 . S
C2019 H2007 0.950 . S
C2019 C2015 1.393 1_565 S
C2019 C2018 1.391 . S
H2020 C2028 0.950 . S
H2021 C2033 0.950 . S
H2022 C2030 0.950 . S
H2023 C2032 0.950 . S
H2024 C2034 0.950 . S
H2025 C2036 0.950 . S
H2026 C2038 0.950 . S
H2027 C2039 0.950 . S
C2028 H2020 0.950 . S
C2028 C2029 1.386 . S
C2028 C2030 1.391 . S
C2029 C2028 1.386 . S
C2029 C2033 1.393 . S
C2030 H2022 0.950 . S
C2030 C2028 1.391 . S
C2030 C2031 1.400 . S
C2031 C2030 1.400 . S
C2031 C2032 1.398 . S
C2031 C2037 1.491 . S
C2032 H2023 0.950 . S
C2032 C2031 1.398 . S
C2032 C2033 1.391 . S
C2033 H2021 0.950 . S
C2033 C2029 1.393 . S
C2033 C2032 1.391 . S
C2034 H2024 0.950 . S
C2034 C2035 1.386 . S
C2034 C2036 1.391 . S
C2035 C2034 1.386 . S
C2035 C2039 1.393 . S
C2036 H2025 0.950 . S
C2036 C2034 1.391 . S
C2036 C2037 1.400 . S
C2037 C2031 1.491 . S
C2037 C2036 1.400 . S
C2037 C2038 1.398 . S
C2038 H2026 0.950 . S
C2038 C2037 1.398 . S
C2038 C2039 1.391 . S
C2039 H2027 0.950 . S
C2039 C2035 1.393 . S
C2039 C2038 1.391 . S
H2040 C2048 0.950 . S
H2041 C2053 0.950 . S
H2042 C2050 0.950 . S
H2043 C2052 0.950 . S
H2044 C2054 0.950 . S
H2045 C2056 0.950 . S
H2046 C2058 0.950 . S
H2047 C2059 0.950 . S
C2048 H2040 0.950 . S
C2048 C2049 1.386 . S
C2048 C2050 1.391 . S
C2049 C2048 1.386 . S
C2049 C2053 1.393 . S
C2050 H2042 0.950 . S
C2050 C2048 1.391 . S
C2050 C2051 1.400 . S
C2051 C2050 1.400 . S
C2051 C2052 1.398 . S
C2051 C2057 1.491 . S
C2052 H2043 0.950 . S
C2052 C2051 1.398 . S
C2052 C2053 1.391 . S
C2053 H2041 0.950 . S
C2053 C2049 1.393 . S
C2053 C2052 1.391 . S
C2054 H2044 0.950 . S
C2054 C2055 1.386 . S
C2054 C2056 1.391 . S
C2055 C2054 1.386 . S
C2055 C2059 1.393 . S
C2056 H2045 0.950 . S
C2056 C2054 1.391 . S
C2056 C2057 1.400 . S
C2057 C2051 1.491 . S
C2057 C2056 1.400 . S
C2057 C2058 1.398 . S
C2058 H2046 0.950 . S
C2058 C2057 1.398 . S
C2058 C2059 1.391 . S
C2059 H2047 0.950 . S
C2059 C2055 1.393 . S
C2059 C2058 1.391 . S
H2060 C2068 0.950 . S
H2061 C2073 0.950 . S
H2062 C2070 0.950 . S
H2063 C2072 0.950 . S
H2064 C2074 0.950 . S
H2065 C2076 0.950 . S
H2066 C2078 0.950 . S
H2067 C2079 0.950 . S
C2068 H2060 0.950 . S
C2068 C2069 1.386 . S
C2068 C2070 1.391 . S
C2069 C2068 1.386 . S
C2069 C2073 1.393 . S
C2070 H2062 0.950 . S
C2070 C2068 1.391 . S
C2070 C2071 1.400 . S
C2071 C2070 1.400 . S
C2071 C2072 1.398 . S
C2071 C2077 1.491 . S
C2072 H2063 0.950 . S
C2072 C2071 1.398 . S
C2072 C2073 1.391 . S
C2073 H2061 0.950 . S
C2073 C2069 1.393 . S
C2073 C2072 1.391 . S
C2074 H2064 0.950 . S
C2074 C2075 1.386 . S
C2074 C2076 1.391 . S
C2075 C2074 1.386 . S
C2075 C2079 1.393 . S
C2076 H2065 0.950 . S
C2076 C2074 1.391 . S
C2076 C2077 1.400 . S
C2077 C2071 1.491 . S
C2077 C2076 1.400 . S
C2077 C2078 1.398 . S
C2078 H2066 0.950 . S
C2078 C2077 1.398 . S
C2078 C2079 1.391 . S
C2079 H2067 0.950 . S
C2079 C2075 1.393 . S
C2079 C2078 1.391 . S
H2080 C2088 0.950 . S
H2081 C2093 0.950 . S
H2082 C2090 0.950 . S
H2083 C2092 0.950 . S
H2084 C2094 0.950 . S
H2085 C2096 0.950 . S
H2086 C2098 0.950 . S
H2087 C2099 0.950 . S
C2088 H2080 0.950 . S
C2088 C2089 1.386 . S
C2088 C2090 1.391 . S
C2089 C2088 1.386 . S
C2089 C2093 1.393 . S
C2090 H2082 0.950 . S
C2090 C2088 1.391 . S
C2090 C2091 1.400 . S
C2091 C2090 1.400 . S
C2091 C2092 1.398 . S
C2091 C2097 1.491 . S
C2092 H2083 0.950 . S
C2092 C2091 1.398 . S
C2092 C2093 1.391 . S
C2093 H2081 0.950 . S
C2093 C2089 1.393 . S
C2093 C2092 1.391 . S
C2094 H2084 0.950 . S
C2094 C2095 1.386 . S
C2094 C2096 1.391 . S
C2095 C2094 1.386 . S
C2095 C2099 1.393 . S
C2096 H2085 0.950 . S
C2096 C2094 1.391 . S
C2096 C2097 1.400 . S
C2097 C2091 1.491 . S
C2097 C2096 1.400 . S
C2097 C2098 1.398 . S
C2098 H2086 0.950 . S
C2098 C2097 1.398 . S
C2098 C2099 1.391 . S
C2099 H2087 0.950 . S
C2099 C2095 1.393 . S
C2099 C2098 1.391 . S
H2100 C2108 0.950 . S
H2101 C2113 0.950 . S
H2102 C2110 0.950 . S
H2103 C2112 0.950 . S
H2104 C2114 0.950 . S
H2105 C2116 0.950 . S
H2106 C2118 0.950 . S
H2107 C2119 0.950 . S
C2108 H2100 0.950 . S
C2108 C2109 1.386 . S
C2108 C2110 1.391 . S
C2109 C2108 1.386 . S
C2109 C2113 1.393 . S
C2110 H2102 0.950 . S
C2110 C2108 1.391 . S
C2110 C2111 1.400 . S
C2111 C2110 1.400 . S
C2111 C2112 1.398 . S
C2111 C2117 1.491 . S
C2112 H2103 0.950 . S
C2112 C2111 1.398 . S
C2112 C2113 1.391 . S
C2113 H2101 0.950 . S
C2113 C2109 1.393 . S
C2113 C2112 1.391 . S
C2114 H2104 0.950 . S
C2114 C2115 1.386 . S
C2114 C2116 1.391 . S
C2115 C2114 1.386 . S
C2115 C2119 1.393 . S
C2116 H2105 0.950 . S
C2116 C2114 1.391 . S
C2116 C2117 1.400 . S
C2117 C2111 1.491 . S
C2117 C2116 1.400 . S
C2117 C2118 1.398 . S
C2118 H2106 0.950 . S
C2118 C2117 1.398 . S
C2118 C2119 1.391 . S
C2119 H2107 0.950 . S
C2119 C2115 1.393 . S
C2119 C2118 1.391 . S
H2120 C2128 0.950 . S
H2121 C2133 0.950 . S
H2122 C2130 0.950 . S
H2123 C2132 0.950 . S
H2124 C2134 0.950 . S
H2125 C2136 0.950 . S
H2126 C2138 0.950 . S
H2127 C2139 0.950 . S
C2128 H2120 0.950 . S
C2128 C2129 1.386 . S
C2128 C2130 1.391 . S
C2129 C2128 1.386 . S
C2129 C2133 1.393 . S
C2130 H2122 0.950 . S
C2130 C2128 1.391 . S
C2130 C2131 1.400 . S
C2131 C2130 1.400 . S
C2131 C2132 1.398 . S
C2131 C2137 1.491 . S
C2132 H2123 0.950 . S
C2132 C2131 1.398 . S
C2132 C2133 1.391 . S
C2133 H2121 0.950 . S
C2133 C2129 1.393 . S
C2133 C2132 1.391 . S
C2134 H2124 0.950 . S
C2134 C2135 1.386 . S
C2134 C2136 1.391 . S
C2135 C2134 1.386 . S
C2135 C2139 1.393 . S
C2136 H2125 0.950 . S
C2136 C2134 1.391 . S
C2136 C2137 1.400 . S
C2137 C2131 1.491 . S
C2137 C2136 1.400 . S
C2137 C2138 1.398 . S
C2138 H2126 0.950 . S
C2138 C2137 1.398 . S
C2138 C2139 1.391 . S
C2139 H2127 0.950 . S
C2139 C2135 1.393 . S
C2139 C2138 1.391 . S
H2140 C2148 0.950 . S
H2141 C2153 0.950 . S
H2142 C2150 0.950 . S
H2143 C2152 0.950 . S
H2144 C2154 0.950 . S
H2145 C2156 0.950 . S
H2146 C2158 0.950 . S
H2147 C2159 0.950 . S
C2148 H2140 0.950 . S
C2148 C2149 1.386 . S
C2148 C2150 1.391 . S
C2149 C2148 1.386 . S
C2149 C2153 1.393 . S
C2150 H2142 0.950 . S
C2150 C2148 1.391 . S
C2150 C2151 1.400 . S
C2151 C2150 1.400 . S
C2151 C2152 1.398 . S
C2151 C2157 1.491 . S
C2152 H2143 0.950 . S
C2152 C2151 1.398 . S
C2152 C2153 1.391 . S
C2153 H2141 0.950 . S
C2153 C2149 1.393 . S
C2153 C2152 1.391 . S
C2154 H2144 0.950 . S
C2154 C2155 1.386 . S
C2154 C2156 1.391 . S
C2155 C2154 1.386 . S
C2155 C2159 1.393 . S
C2156 H2145 0.950 . S
C2156 C2154 1.391 . S
C2156 C2157 1.400 . S
C2157 C2151 1.491 . S
C2157 C2156 1.400 . S
C2157 C2158 1.398 . S
C2158 H2146 0.950 . S
C2158 C2157 1.398 . S
C2158 C2159 1.391 . S
C2159 H2147 0.950 . S
C2159 C2155 1.393 . S
C2159 C2158 1.391 . S
H2160 C2168 0.950 . S
H2161 C2173 0.950 . S
H2162 C2170 0.950 . S
H2163 C2172 0.950 . S
H2164 C2174 0.950 . S
H2165 C2176 0.950 . S
H2166 C2178 0.950 . S
H2167 C2179 0.950 . S
C2168 H2160 0.950 . S
C2168 C2169 1.386 . S
C2168 C2170 1.391 . S
C2169 C2168 1.386 . S
C2169 C2173 1.393 . S
C2170 H2162 0.950 . S
C2170 C2168 1.391 . S
C2170 C2171 1.400 . S
C2171 C2170 1.400 . S
C2171 C2172 1.398 . S
C2171 C2177 1.491 . S
C2172 H2163 0.950 . S
C2172 C2171 1.398 . S
C2172 C2173 1.391 . S
C2173 H2161 0.950 . S
C2173 C2169 1.393 . S
C2173 C2172 1.391 . S
C2174 H2164 0.950 . S
C2174 C2175 1.386 . S
C2174 C2176 1.391 . S
C2175 C2174 1.386 . S
C2175 C2179 1.393 . S
C2176 H2165 0.950 . S
C2176 C2174 1.391 . S
C2176 C2177 1.400 . S
C2177 C2171 1.491 . S
C2177 C2176 1.400 . S
C2177 C2178 1.398 . S
C2178 H2166 0.950 . S
C2178 C2177 1.398 . S
C2178 C2179 1.391 . S
C2179 H2167 0.950 . S
C2179 C2175 1.393 . S
C2179 C2178 1.391 . S
H2180 C2188 0.950 . S
H2181 C2193 0.950 . S
H2182 C2190 0.950 . S
H2183 C2192 0.950 . S
H2184 C2194 0.950 . S
H2185 C2196 0.950 . S
H2186 C2198 0.950 . S
H2187 C2199 0.950 . S
C2188 H2180 0.950 . S
C2188 C2189 1.386 . S
C2188 C2190 1.391 . S
C2189 C2188 1.386 . S
C2189 C2193 1.393 . S
C2190 H2182 0.950 . S
C2190 C2188 1.391 . S
C2190 C2191 1.400 . S
C2191 C2190 1.400 . S
C2191 C2192 1.398 . S
C2191 C2197 1.491 . S
C2192 H2183 0.950 . S
C2192 C2191 1.398 . S
C2192 C2193 1.391 . S
C2193 H2181 0.950 . S
C2193 C2189 1.393 . S
C2193 C2192 1.391 . S
C2194 H2184 0.950 . S
C2194 C2195 1.386 . S
C2194 C2196 1.391 . S
C2195 C2194 1.386 . S
C2195 C2199 1.393 . S
C2196 H2185 0.950 . S
C2196 C2194 1.391 . S
C2196 C2197 1.400 . S
C2197 C2191 1.491 . S
C2197 C2196 1.400 . S
C2197 C2198 1.398 . S
C2198 H2186 0.950 . S
C2198 C2197 1.398 . S
C2198 C2199 1.391 . S
C2199 H2187 0.950 . S
C2199 C2195 1.393 . S
C2199 C2198 1.391 . S
H2200 C2208 0.950 . S
H2201 C2213 0.950 . S
H2202 C2210 0.950 . S
H2203 C2212 0.950 . S
H2204 C2214 0.950 . S
H2205 C2216 0.950 . S
H2206 C2218 0.950 . S
H2207 C2219 0.950 . S
C2208 H2200 0.950 . S
C2208 C2209 1.386 . S
C2208 C2210 1.391 . S
C2209 C2208 1.386 . S
C2209 C2213 1.393 . S
C2210 H2202 0.950 . S
C2210 C2208 1.391 . S
C2210 C2211 1.400 . S
C2211 C2210 1.400 . S
C2211 C2212 1.398 . S
C2211 C2217 1.491 . S
C2212 H2203 0.950 . S
C2212 C2211 1.398 . S
C2212 C2213 1.391 . S
C2213 H2201 0.950 . S
C2213 C2209 1.393 . S
C2213 C2212 1.391 . S
C2214 H2204 0.950 . S
C2214 C2215 1.386 . S
C2214 C2216 1.391 . S
C2215 C2214 1.386 . S
C2215 C2219 1.393 . S
C2216 H2205 0.950 . S
C2216 C2214 1.391 . S
C2216 C2217 1.400 . S
C2217 C2211 1.491 . S
C2217 C2216 1.400 . S
C2217 C2218 1.398 . S
C2218 H2206 0.950 . S
C2218 C2217 1.398 . S
C2218 C2219 1.391 . S
C2219 H2207 0.950 . S
C2219 C2215 1.393 . S
C2219 C2218 1.391 . S
H2220 C2228 0.950 . S
H2221 C2233 0.950 . S
H2222 C2230 0.950 . S
H2223 C2232 0.950 . S
H2224 C2234 0.950 . S
H2225 C2236 0.950 . S
H2226 C2238 0.950 . S
H2227 C2239 0.950 . S
C2228 H2220 0.950 . S
C2228 C2229 1.386 . S
C2228 C2230 1.391 . S
C2229 C2228 1.386 . S
C2229 C2233 1.393 . S
C2230 H2222 0.950 . S
C2230 C2228 1.391 . S
C2230 C2231 1.400 . S
C2231 C2230 1.400 . S
C2231 C2232 1.398 . S
C2231 C2237 1.491 . S
C2232 H2223 0.950 . S
C2232 C2231 1.398 . S
C2232 C2233 1.391 . S
C2233 H2221 0.950 . S
C2233 C2229 1.393 . S
C2233 C2232 1.391 . S
C2234 H2224 0.950 . S
C2234 C2235 1.386 . S
C2234 C2236 1.391 . S
C2235 C2234 1.386 . S
C2235 C2239 1.393 . S
C2236 H2225 0.950 . S
C2236 C2234 1.391 . S
C2236 C2237 1.400 . S
C2237 C2231 1.491 . S
C2237 C2236 1.400 . S
C2237 C2238 1.398 . S
C2238 H2226 0.950 . S
C2238 C2237 1.398 . S
C2238 C2239 1.391 . S
C2239 H2227 0.950 . S
C2239 C2235 1.393 . S
C2239 C2238 1.391 . S
H2240 C2248 0.950 . S
H2241 C2253 0.950 . S
H2242 C2250 0.950 . S
H2243 C2252 0.950 . S
H2244 C2254 0.950 . S
H2245 C2256 0.950 . S
H2246 C2258 0.950 . S
H2247 C2259 0.950 . S
C2248 H2240 0.950 . S
C2248 C2249 1.386 . S
C2248 C2250 1.391 . S
C2249 C2248 1.386 . S
C2249 C2253 1.393 . S
C2250 H2242 0.950 . S
C2250 C2248 1.391 . S
C2250 C2251 1.400 . S
C2251 C2250 1.400 . S
C2251 C2252 1.398 . S
C2251 C2257 1.491 . S
C2252 H2243 0.950 . S
C2252 C2251 1.398 . S
C2252 C2253 1.391 . S
C2253 H2241 0.950 . S
C2253 C2249 1.393 . S
C2253 C2252 1.391 . S
C2254 H2244 0.950 . S
C2254 C2255 1.386 . S
C2254 C2256 1.391 . S
C2255 C2254 1.386 . S
C2255 C2259 1.393 . S
C2256 H2245 0.950 . S
C2256 C2254 1.391 . S
C2256 C2257 1.400 . S
C2257 C2251 1.491 . S
C2257 C2256 1.400 . S
C2257 C2258 1.398 . S
C2258 H2246 0.950 . S
C2258 C2257 1.398 . S
C2258 C2259 1.391 . S
C2259 H2247 0.950 . S
C2259 C2255 1.393 . S
C2259 C2258 1.391 . S
H2260 C2268 0.950 . S
H2261 C2273 0.950 . S
H2262 C2270 0.950 . S
H2263 C2272 0.950 . S
H2264 C2274 0.950 . S
H2265 C2276 0.950 . S
H2266 C2278 0.950 . S
H2267 C2279 0.950 . S
C2268 H2260 0.950 . S
C2268 C2269 1.386 . S
C2268 C2270 1.391 . S
C2269 C2268 1.386 . S
C2269 C2273 1.393 . S
C2270 H2262 0.950 . S
C2270 C2268 1.391 . S
C2270 C2271 1.400 . S
C2271 C2270 1.400 . S
C2271 C2272 1.398 . S
C2271 C2277 1.491 . S
C2272 H2263 0.950 . S
C2272 C2271 1.398 . S
C2272 C2273 1.391 . S
C2273 H2261 0.950 . S
C2273 C2269 1.393 . S
C2273 C2272 1.391 . S
C2274 H2264 0.950 . S
C2274 C2275 1.386 . S
C2274 C2276 1.391 . S
C2275 C2274 1.386 . S
C2275 C2279 1.393 . S
C2276 H2265 0.950 . S
C2276 C2274 1.391 . S
C2276 C2277 1.400 . S
C2277 C2271 1.491 . S
C2277 C2276 1.400 . S
C2277 C2278 1.398 . S
C2278 H2266 0.950 . S
C2278 C2277 1.398 . S
C2278 C2279 1.391 . S
C2279 H2267 0.950 . S
C2279 C2275 1.393 . S
C2279 C2278 1.391 . S
H2280 C2288 0.950 . S
H2281 C2293 0.950 . S
H2282 C2290 0.950 . S
H2283 C2292 0.950 . S
H2284 C2294 0.950 . S
H2285 C2296 0.950 . S
H2286 C2298 0.950 . S
H2287 C2299 0.950 1_554 S
C2288 H2280 0.950 . S
C2288 C2289 1.386 . S
C2288 C2290 1.391 . S
C2289 C2288 1.386 . S
C2289 C2293 1.393 . S
C2290 H2282 0.950 . S
C2290 C2288 1.391 . S
C2290 C2291 1.400 . S
C2291 C2290 1.400 . S
C2291 C2292 1.398 . S
C2291 C2297 1.491 . S
C2292 H2283 0.950 . S
C2292 C2291 1.398 . S
C2292 C2293 1.391 . S
C2293 H2281 0.950 . S
C2293 C2289 1.393 . S
C2293 C2292 1.391 . S
C2294 H2284 0.950 . S
C2294 C2295 1.386 . S
C2294 C2296 1.391 . S
C2295 C2294 1.386 . S
C2295 C2299 1.393 . S
C2296 H2285 0.950 . S
C2296 C2294 1.391 . S
C2296 C2297 1.400 . S
C2297 C2291 1.491 . S
C2297 C2296 1.400 . S
C2297 C2298 1.398 . S
C2298 H2286 0.950 . S
C2298 C2297 1.398 . S
C2298 C2299 1.391 . S
C2299 H2287 0.950 1_556 S
C2299 C2295 1.393 . S
C2299 C2298 1.391 . S
H2300 C2308 0.950 . S
H2301 C2313 0.950 . S
H2302 C2310 0.950 . S
H2303 C2312 0.950 . S
H2304 C2314 0.950 . S
H2305 C2316 0.950 . S
H2306 C2318 0.950 . S
H2307 C2319 0.950 . S
C2308 H2300 0.950 . S
C2308 C2309 1.386 . S
C2308 C2310 1.391 . S
C2309 C2308 1.386 . S
C2309 C2313 1.393 . S
C2310 H2302 0.950 . S
C2310 C2308 1.391 . S
C2310 C2311 1.400 . S
C2311 C2310 1.400 . S
C2311 C2312 1.398 . S
C2311 C2317 1.491 . S
C2312 H2303 0.950 . S
C2312 C2311 1.398 . S
C2312 C2313 1.391 . S
C2313 H2301 0.950 . S
C2313 C2309 1.393 . S
C2313 C2312 1.391 . S
C2314 H2304 0.950 . S
C2314 C2315 1.386 . S
C2314 C2316 1.391 . S
C2315 C2314 1.386 . S
C2315 C2319 1.393 . S
C2316 H2305 0.950 . S
C2316 C2314 1.391 . S
C2316 C2317 1.400 . S
C2317 C2311 1.491 . S
C2317 C2316 1.400 . S
C2317 C2318 1.398 . S
C2318 H2306 0.950 . S
C2318 C2317 1.398 . S
C2318 C2319 1.391 . S
C2319 H2307 0.950 . S
C2319 C2315 1.393 . S
C2319 C2318 1.391 . S
H2320 C2328 0.950 . S
H2321 C2333 0.950 . S
H2322 C2330 0.950 . S
H2323 C2332 0.950 . S
H2324 C2334 0.950 . S
H2325 C2336 0.950 . S
H2326 C2338 0.950 . S
H2327 C2339 0.950 . S
C2328 H2320 0.950 . S
C2328 C2329 1.386 . S
C2328 C2330 1.391 . S
C2329 C2328 1.386 . S
C2329 C2333 1.393 . S
C2330 H2322 0.950 . S
C2330 C2328 1.391 . S
C2330 C2331 1.400 . S
C2331 C2330 1.400 . S
C2331 C2332 1.398 . S
C2331 C2337 1.491 . S
C2332 H2323 0.950 . S
C2332 C2331 1.398 . S
C2332 C2333 1.391 . S
C2333 H2321 0.950 . S
C2333 C2329 1.393 . S
C2333 C2332 1.391 . S
C2334 H2324 0.950 . S
C2334 C2335 1.386 . S
C2334 C2336 1.391 . S
C2335 C2334 1.386 . S
C2335 C2339 1.393 . S
C2336 H2325 0.950 . S
C2336 C2334 1.391 . S
C2336 C2337 1.400 . S
C2337 C2331 1.491 . S
C2337 C2336 1.400 . S
C2337 C2338 1.398 . S
C2338 H2326 0.950 . S
C2338 C2337 1.398 . S
C2338 C2339 1.391 . S
C2339 H2327 0.950 . S
C2339 C2335 1.393 . S
C2339 C2338 1.391 . S
H2340 C2348 0.950 . S
H2341 C2353 0.950 . S
H2342 C2350 0.950 . S
H2343 C2352 0.950 . S
H2344 C2354 0.950 . S
H2345 C2356 0.950 . S
H2346 C2358 0.950 . S
H2347 C2359 0.950 . S
C2348 H2340 0.950 . S
C2348 C2349 1.386 . S
C2348 C2350 1.391 . S
C2349 C2348 1.386 . S
C2349 C2353 1.393 . S
C2350 H2342 0.950 . S
C2350 C2348 1.391 . S
C2350 C2351 1.400 . S
C2351 C2350 1.400 . S
C2351 C2352 1.398 . S
C2351 C2357 1.491 . S
C2352 H2343 0.950 . S
C2352 C2351 1.398 . S
C2352 C2353 1.391 . S
C2353 H2341 0.950 . S
C2353 C2349 1.393 . S
C2353 C2352 1.391 . S
C2354 H2344 0.950 . S
C2354 C2355 1.386 . S
C2354 C2356 1.391 . S
C2355 C2354 1.386 . S
C2355 C2359 1.393 . S
C2356 H2345 0.950 . S
C2356 C2354 1.391 . S
C2356 C2357 1.400 . S
C2357 C2351 1.491 . S
C2357 C2356 1.400 . S
C2357 C2358 1.398 . S
C2358 H2346 0.950 . S
C2358 C2357 1.398 . S
C2358 C2359 1.391 . S
C2359 H2347 0.950 . S
C2359 C2355 1.393 . S
C2359 C2358 1.391 . S
H2360 C2368 0.950 . S
H2361 C2373 0.950 . S
H2362 C2370 0.950 1_565 S
H2363 C2372 0.950 . S
H2364 C2374 0.950 . S
H2365 C2376 0.950 . S
H2366 C2378 0.950 1_565 S
H2367 C2379 0.950 . S
C2368 H2360 0.950 . S
C2368 C2369 1.386 1_565 S
C2368 C2370 1.391 1_565 S
C2369 C2368 1.386 1_545 S
C2369 C2373 1.393 . S
C2370 H2362 0.950 1_545 S
C2370 C2368 1.391 1_545 S
C2370 C2371 1.400 . S
C2371 C2370 1.400 . S
C2371 C2372 1.398 . S
C2371 C2377 1.491 . S
C2372 H2363 0.950 . S
C2372 C2371 1.398 . S
C2372 C2373 1.391 . S
C2373 H2361 0.950 . S
C2373 C2369 1.393 . S
C2373 C2372 1.391 . S
C2374 H2364 0.950 . S
C2374 C2375 1.386 . S
C2374 C2376 1.391 . S
C2375 C2374 1.386 . S
C2375 C2379 1.393 . S
C2376 H2365 0.950 . S
C2376 C2374 1.391 . S
C2376 C2377 1.400 . S
C2377 C2371 1.491 . S
C2377 C2376 1.400 . S
C2377 C2378 1.398 . S
C2378 H2366 0.950 1_545 S
C2378 C2377 1.398 . S
C2378 C2379 1.391 . S
C2379 H2367 0.950 . S
C2379 C2375 1.393 . S
C2379 C2378 1.391 . S
H2380 C2388 0.950 . S
H2381 C2393 0.950 . S
H2382 C2390 0.950 . S
H2383 C2392 0.950 . S
H2384 C2394 0.950 . S
H2385 C2396 0.950 . S
H2386 C2398 0.950 . S
H2387 C2399 0.950 . S
C2388 H2380 0.950 . S
C2388 C2389 1.386 . S
C2388 C2390 1.391 . S
C2389 C2388 1.386 . S
C2389 C2393 1.393 . S
C2390 H2382 0.950 . S
C2390 C2388 1.391 . S
C2390 C2391 1.400 . S
C2391 C2390 1.400 . S
C2391 C2392 1.398 . S
C2391 C2397 1.491 . S
C2392 H2383 0.950 . S
C2392 C2391 1.398 . S
C2392 C2393 1.391 . S
C2393 H2381 0.950 . S
C2393 C2389 1.393 . S
C2393 C2392 1.391 . S
C2394 H2384 0.950 . S
C2394 C2395 1.386 . S
C2394 C2396 1.391 . S
C2395 C2394 1.386 . S
C2395 C2399 1.393 . S
C2396 H2385 0.950 . S
C2396 C2394 1.391 . S
C2396 C2397 1.400 . S
C2397 C2391 1.491 . S
C2397 C2396 1.400 . S
C2397 C2398 1.398 . S
C2398 H2386 0.950 . S
C2398 C2397 1.398 . S
C2398 C2399 1.391 . S
C2399 H2387 0.950 . S
C2399 C2395 1.393 . S
C2399 C2398 1.391 . S
H2400 C2408 0.950 . S
H2401 C2413 0.950 . S
H2402 C2410 0.950 . S
H2403 C2412 0.950 . S
H2404 C2414 0.950 . S
H2405 C2416 0.950 . S
H2406 C2418 0.950 . S
H2407 C2419 0.950 . S
C2408 H2400 0.950 . S
C2408 C2409 1.386 . S
C2408 C2410 1.391 . S
C2409 C2408 1.386 . S
C2409 C2413 1.393 . S
C2410 H2402 0.950 . S
C2410 C2408 1.391 . S
C2410 C2411 1.400 . S
C2411 C2410 1.400 . S
C2411 C2412 1.398 . S
C2411 C2417 1.491 . S
C2412 H2403 0.950 . S
C2412 C2411 1.398 . S
C2412 C2413 1.391 . S
C2413 H2401 0.950 . S
C2413 C2409 1.393 . S
C2413 C2412 1.391 . S
C2414 H2404 0.950 . S
C2414 C2415 1.386 . S
C2414 C2416 1.391 . S
C2415 C2414 1.386 . S
C2415 C2419 1.393 . S
C2416 H2405 0.950 . S
C2416 C2414 1.391 . S
C2416 C2417 1.400 . S
C2417 C2411 1.491 . S
C2417 C2416 1.400 . S
C2417 C2418 1.398 . S
C2418 H2406 0.950 . S
C2418 C2417 1.398 . S
C2418 C2419 1.391 . S
C2419 H2407 0.950 . S
C2419 C2415 1.393 . S
C2419 C2418 1.391 . S
H2420 C2428 0.950 . S
H2421 C2433 0.950 . S
H2422 C2430 0.950 . S
H2423 C2432 0.950 . S
H2424 C2434 0.950 . S
H2425 C2436 0.950 . S
H2426 C2438 0.950 . S
H2427 C2439 0.950 . S
C2428 H2420 0.950 . S
C2428 C2429 1.386 . S
C2428 C2430 1.391 . S
C2429 C2428 1.386 . S
C2429 C2433 1.393 . S
C2430 H2422 0.950 . S
C2430 C2428 1.391 . S
C2430 C2431 1.400 . S
C2431 C2430 1.400 . S
C2431 C2432 1.398 . S
C2431 C2437 1.491 . S
C2432 H2423 0.950 . S
C2432 C2431 1.398 . S
C2432 C2433 1.391 . S
C2433 H2421 0.950 . S
C2433 C2429 1.393 . S
C2433 C2432 1.391 . S
C2434 H2424 0.950 . S
C2434 C2435 1.386 . S
C2434 C2436 1.391 . S
C2435 C2434 1.386 . S
C2435 C2439 1.393 . S
C2436 H2425 0.950 . S
C2436 C2434 1.391 . S
C2436 C2437 1.400 . S
C2437 C2431 1.491 . S
C2437 C2436 1.400 . S
C2437 C2438 1.398 . S
C2438 H2426 0.950 . S
C2438 C2437 1.398 . S
C2438 C2439 1.391 . S
C2439 H2427 0.950 . S
C2439 C2435 1.393 . S
C2439 C2438 1.391 . S
H2440 C2448 0.950 . S
H2441 C2453 0.950 . S
H2442 C2450 0.950 . S
H2443 C2452 0.950 . S
H2444 C2454 0.950 . S
H2445 C2456 0.950 . S
H2446 C2458 0.950 . S
H2447 C2459 0.950 . S
C2448 H2440 0.950 . S
C2448 C2449 1.386 1_565 S
C2448 C2450 1.391 . S
C2449 C2448 1.386 1_545 S
C2449 C2453 1.393 . S
C2450 H2442 0.950 . S
C2450 C2448 1.391 . S
C2450 C2451 1.400 1_565 S
C2451 C2450 1.400 1_545 S
C2451 C2452 1.398 . S
C2451 C2457 1.491 . S
C2452 H2443 0.950 . S
C2452 C2451 1.398 . S
C2452 C2453 1.391 . S
C2453 H2441 0.950 . S
C2453 C2449 1.393 . S
C2453 C2452 1.391 . S
C2454 H2444 0.950 . S
C2454 C2455 1.386 . S
C2454 C2456 1.391 . S
C2455 C2454 1.386 . S
C2455 C2459 1.392 1_545 S
C2456 H2445 0.950 . S
C2456 C2454 1.391 . S
C2456 C2457 1.400 . S
C2457 C2451 1.491 . S
C2457 C2456 1.400 . S
C2457 C2458 1.398 1_545 S
C2458 H2446 0.950 . S
C2458 C2457 1.398 1_565 S
C2458 C2459 1.391 . S
C2459 H2447 0.950 . S
C2459 C2455 1.392 1_565 S
C2459 C2458 1.391 . S
H2460 C2468 0.950 . S
H2461 C2473 0.950 . S
H2462 C2470 0.950 . S
H2463 C2472 0.950 . S
H2464 C2474 0.950 . S
H2465 C2476 0.950 . S
H2466 C2478 0.950 . S
H2467 C2479 0.950 . S
C2468 H2460 0.950 . S
C2468 C2469 1.386 . S
C2468 C2470 1.391 . S
C2469 C2468 1.386 . S
C2469 C2473 1.393 . S
C2470 H2462 0.950 . S
C2470 C2468 1.391 . S
C2470 C2471 1.400 . S
C2471 C2470 1.400 . S
C2471 C2472 1.398 . S
C2471 C2477 1.491 . S
C2472 H2463 0.950 . S
C2472 C2471 1.398 . S
C2472 C2473 1.391 . S
C2473 H2461 0.950 . S
C2473 C2469 1.393 . S
C2473 C2472 1.391 . S
C2474 H2464 0.950 . S
C2474 C2475 1.386 . S
C2474 C2476 1.391 . S
C2475 C2474 1.386 . S
C2475 C2479 1.393 . S
C2476 H2465 0.950 . S
C2476 C2474 1.391 . S
C2476 C2477 1.400 . S
C2477 C2471 1.491 . S
C2477 C2476 1.400 . S
C2477 C2478 1.398 . S
C2478 H2466 0.950 . S
C2478 C2477 1.398 . S
C2478 C2479 1.391 . S
C2479 H2467 0.950 . S
C2479 C2475 1.393 . S
C2479 C2478 1.391 . S
H2480 C2488 0.950 . S
H2481 C2493 0.950 . S
H2482 C2490 0.950 . S
H2483 C2492 0.950 . S
H2484 C2494 0.950 . S
H2485 C2496 0.950 . S
H2486 C2498 0.950 . S
H2487 C2499 0.950 . S
C2488 H2480 0.950 . S
C2488 C2489 1.386 . S
C2488 C2490 1.391 . S
C2489 C2488 1.386 . S
C2489 C2493 1.393 . S
C2490 H2482 0.950 . S
C2490 C2488 1.391 . S
C2490 C2491 1.400 . S
C2491 C2490 1.400 . S
C2491 C2492 1.398 . S
C2491 C2497 1.491 . S
C2492 H2483 0.950 . S
C2492 C2491 1.398 . S
C2492 C2493 1.391 . S
C2493 H2481 0.950 . S
C2493 C2489 1.393 . S
C2493 C2492 1.391 . S
C2494 H2484 0.950 . S
C2494 C2495 1.386 . S
C2494 C2496 1.391 . S
C2495 C2494 1.386 . S
C2495 C2499 1.393 . S
C2496 H2485 0.950 . S
C2496 C2494 1.391 . S
C2496 C2497 1.400 . S
C2497 C2491 1.491 . S
C2497 C2496 1.400 . S
C2497 C2498 1.398 . S
C2498 H2486 0.950 . S
C2498 C2497 1.398 . S
C2498 C2499 1.391 . S
C2499 H2487 0.950 . S
C2499 C2495 1.393 . S
C2499 C2498 1.391 . S
H2500 C2508 0.950 . S
H2501 C2513 0.950 . S
H2502 C2510 0.950 . S
H2503 C2512 0.950 . S
H2504 C2514 0.950 . S
H2505 C2516 0.950 . S
H2506 C2518 0.950 . S
H2507 C2519 0.950 . S
C2508 H2500 0.950 . S
C2508 C2509 1.386 . S
C2508 C2510 1.391 . S
C2509 C2508 1.386 . S
C2509 C2513 1.393 . S
C2510 H2502 0.950 . S
C2510 C2508 1.391 . S
C2510 C2511 1.400 . S
C2511 C2510 1.400 . S
C2511 C2512 1.398 . S
C2511 C2517 1.491 . S
C2512 H2503 0.950 . S
C2512 C2511 1.398 . S
C2512 C2513 1.391 . S
C2513 H2501 0.950 . S
C2513 C2509 1.393 . S
C2513 C2512 1.391 . S
C2514 H2504 0.950 . S
C2514 C2515 1.386 . S
C2514 C2516 1.391 . S
C2515 C2514 1.386 . S
C2515 C2519 1.393 . S
C2516 H2505 0.950 . S
C2516 C2514 1.391 . S
C2516 C2517 1.400 . S
C2517 C2511 1.491 . S
C2517 C2516 1.400 . S
C2517 C2518 1.398 . S
C2518 H2506 0.950 . S
C2518 C2517 1.398 . S
C2518 C2519 1.391 . S
C2519 H2507 0.950 . S
C2519 C2515 1.393 . S
C2519 C2518 1.391 . S
H2520 C2528 0.950 . S
H2521 C2533 0.950 . S
H2522 C2530 0.950 . S
H2523 C2532 0.950 . S
H2524 C2534 0.950 . S
H2525 C2536 0.950 . S
H2526 C2538 0.950 . S
H2527 C2539 0.950 . S
C2528 H2520 0.950 . S
C2528 C2529 1.386 . S
C2528 C2530 1.391 . S
C2529 C2528 1.386 . S
C2529 C2533 1.393 . S
C2530 H2522 0.950 . S
C2530 C2528 1.391 . S
C2530 C2531 1.400 . S
C2531 C2530 1.400 . S
C2531 C2532 1.398 . S
C2531 C2537 1.491 . S
C2532 H2523 0.950 . S
C2532 C2531 1.398 . S
C2532 C2533 1.391 . S
C2533 H2521 0.950 . S
C2533 C2529 1.393 . S
C2533 C2532 1.391 . S
C2534 H2524 0.950 . S
C2534 C2535 1.386 . S
C2534 C2536 1.391 . S
C2535 C2534 1.386 . S
C2535 C2539 1.393 . S
C2536 H2525 0.950 . S
C2536 C2534 1.391 . S
C2536 C2537 1.400 . S
C2537 C2531 1.491 . S
C2537 C2536 1.400 . S
C2537 C2538 1.398 . S
C2538 H2526 0.950 . S
C2538 C2537 1.398 . S
C2538 C2539 1.391 . S
C2539 H2527 0.950 . S
C2539 C2535 1.393 . S
C2539 C2538 1.391 . S
H2540 C2548 0.950 . S
H2541 C2553 0.950 . S
H2542 C2550 0.950 . S
H2543 C2552 0.950 . S
H2544 C2554 0.950 . S
H2545 C2556 0.950 . S
H2546 C2558 0.950 . S
H2547 C2559 0.950 . S
C2548 H2540 0.950 . S
C2548 C2549 1.386 . S
C2548 C2550 1.391 . S
C2549 C2548 1.386 . S
C2549 C2553 1.393 . S
C2550 H2542 0.950 . S
C2550 C2548 1.391 . S
C2550 C2551 1.400 . S
C2551 C2550 1.400 . S
C2551 C2552 1.398 . S
C2551 C2557 1.491 . S
C2552 H2543 0.950 . S
C2552 C2551 1.398 . S
C2552 C2553 1.391 . S
C2553 H2541 0.950 . S
C2553 C2549 1.393 . S
C2553 C2552 1.391 . S
C2554 H2544 0.950 . S
C2554 C2555 1.386 . S
C2554 C2556 1.391 . S
C2555 C2554 1.386 . S
C2555 C2559 1.393 . S
C2556 H2545 0.950 . S
C2556 C2554 1.391 . S
C2556 C2557 1.400 . S
C2557 C2551 1.491 . S
C2557 C2556 1.400 . S
C2557 C2558 1.398 . S
C2558 H2546 0.950 . S
C2558 C2557 1.398 . S
C2558 C2559 1.391 . S
C2559 H2547 0.950 . S
C2559 C2555 1.393 . S
C2559 C2558 1.391 . S
H2560 C2568 0.950 . S
H2561 C2573 0.950 1_545 S
H2562 C2570 0.950 . S
H2563 C2572 0.950 . S
H2564 C2574 0.950 . S
H2565 C2576 0.950 . S
H2566 C2578 0.950 . S
H2567 C2579 0.950 . S
C2568 H2560 0.950 . S
C2568 C2569 1.386 . S
C2568 C2570 1.391 . S
C2569 C2568 1.386 . S
C2569 C2573 1.393 . S
C2570 H2562 0.950 . S
C2570 C2568 1.391 . S
C2570 C2571 1.400 . S
C2571 C2570 1.400 . S
C2571 C2572 1.398 . S
C2571 C2577 1.491 . S
C2572 H2563 0.950 . S
C2572 C2571 1.398 . S
C2572 C2573 1.391 . S
C2573 H2561 0.950 1_565 S
C2573 C2569 1.393 . S
C2573 C2572 1.391 . S
C2574 H2564 0.950 . S
C2574 C2575 1.386 . S
C2574 C2576 1.391 . S
C2575 C2574 1.386 . S
C2575 C2579 1.393 . S
C2576 H2565 0.950 . S
C2576 C2574 1.391 . S
C2576 C2577 1.400 . S
C2577 C2571 1.491 . S
C2577 C2576 1.400 . S
C2577 C2578 1.398 . S
C2578 H2566 0.950 . S
C2578 C2577 1.398 . S
C2578 C2579 1.391 . S
C2579 H2567 0.950 . S
C2579 C2575 1.393 . S
C2579 C2578 1.391 . S
H2580 C2588 0.950 . S
H2581 C2593 0.950 . S
H2582 C2590 0.950 . S
H2583 C2592 0.950 . S
H2584 C2594 0.950 1_545 S
H2585 C2596 0.950 . S
H2586 C2598 0.950 . S
H2587 C2599 0.950 . S
C2588 H2580 0.950 . S
C2588 C2589 1.386 . S
C2588 C2590 1.391 . S
C2589 C2588 1.386 . S
C2589 C2593 1.393 . S
C2590 H2582 0.950 . S
C2590 C2588 1.391 . S
C2590 C2591 1.400 . S
C2591 C2590 1.400 . S
C2591 C2592 1.398 . S
C2591 C2597 1.491 . S
C2592 H2583 0.950 . S
C2592 C2591 1.398 . S
C2592 C2593 1.391 . S
C2593 H2581 0.950 . S
C2593 C2589 1.393 . S
C2593 C2592 1.391 . S
C2594 H2584 0.950 1_565 S
C2594 C2595 1.386 . S
C2594 C2596 1.391 . S
C2595 C2594 1.386 . S
C2595 C2599 1.393 . S
C2596 H2585 0.950 . S
C2596 C2594 1.391 . S
C2596 C2597 1.400 . S
C2597 C2591 1.491 . S
C2597 C2596 1.400 . S
C2597 C2598 1.398 . S
C2598 H2586 0.950 . S
C2598 C2597 1.398 . S
C2598 C2599 1.391 . S
C2599 H2587 0.950 . S
C2599 C2595 1.393 . S
C2599 C2598 1.391 . S
H2600 C2608 0.950 . S
H2601 C2613 0.950 . S
H2602 C2610 0.950 . S
H2603 C2612 0.950 . S
H2604 C2614 0.950 . S
H2605 C2616 0.950 . S
H2606 C2618 0.950 . S
H2607 C2619 0.950 . S
C2608 H2600 0.950 . S
C2608 C2609 1.386 . S
C2608 C2610 1.391 . S
C2609 C2608 1.386 . S
C2609 C2613 1.393 . S
C2610 H2602 0.950 . S
C2610 C2608 1.391 . S
C2610 C2611 1.400 . S
C2611 C2610 1.400 . S
C2611 C2612 1.398 . S
C2611 C2617 1.491 . S
C2612 H2603 0.950 . S
C2612 C2611 1.398 . S
C2612 C2613 1.391 . S
C2613 H2601 0.950 . S
C2613 C2609 1.393 . S
C2613 C2612 1.391 . S
C2614 H2604 0.950 . S
C2614 C2615 1.386 . S
C2614 C2616 1.391 . S
C2615 C2614 1.386 . S
C2615 C2619 1.393 . S
C2616 H2605 0.950 . S
C2616 C2614 1.391 . S
C2616 C2617 1.400 . S
C2617 C2611 1.491 . S
C2617 C2616 1.400 . S
C2617 C2618 1.398 . S
C2618 H2606 0.950 . S
C2618 C2617 1.398 . S
C2618 C2619 1.391 . S
C2619 H2607 0.950 . S
C2619 C2615 1.393 . S
C2619 C2618 1.391 . S
H2620 C2628 0.950 . S
H2621 C2633 0.950 . S
H2622 C2630 0.950 . S
H2623 C2632 0.950 . S
H2624 C2634 0.950 . S
H2625 C2636 0.950 . S
H2626 C2638 0.950 . S
H2627 C2639 0.950 . S
C2628 H2620 0.950 . S
C2628 C2629 1.386 . S
C2628 C2630 1.391 . S
C2629 C2628 1.386 . S
C2629 C2633 1.393 . S
C2630 H2622 0.950 . S
C2630 C2628 1.391 . S
C2630 C2631 1.400 . S
C2631 C2630 1.400 . S
C2631 C2632 1.398 . S
C2631 C2637 1.491 . S
C2632 H2623 0.950 . S
C2632 C2631 1.398 . S
C2632 C2633 1.391 . S
C2633 H2621 0.950 . S
C2633 C2629 1.393 . S
C2633 C2632 1.391 . S
C2634 H2624 0.950 . S
C2634 C2635 1.386 . S
C2634 C2636 1.391 . S
C2635 C2634 1.386 . S
C2635 C2639 1.393 . S
C2636 H2625 0.950 . S
C2636 C2634 1.391 . S
C2636 C2637 1.400 . S
C2637 C2631 1.491 . S
C2637 C2636 1.400 . S
C2637 C2638 1.398 . S
C2638 H2626 0.950 . S
C2638 C2637 1.398 . S
C2638 C2639 1.391 . S
C2639 H2627 0.950 . S
C2639 C2635 1.393 . S
C2639 C2638 1.391 . S
H2640 C2648 0.950 . S
H2641 C2653 0.950 . S
H2642 C2650 0.950 . S
H2643 C2652 0.950 . S
H2644 C2654 0.950 . S
H2645 C2656 0.950 . S
H2646 C2658 0.950 . S
H2647 C2659 0.950 . S
C2648 H2640 0.950 . S
C2648 C2649 1.386 . S
C2648 C2650 1.391 . S
C2649 C2648 1.386 . S
C2649 C2653 1.393 . S
C2650 H2642 0.950 . S
C2650 C2648 1.391 . S
C2650 C2651 1.400 . S
C2651 C2650 1.400 . S
C2651 C2652 1.398 . S
C2651 C2657 1.491 . S
C2652 H2643 0.950 . S
C2652 C2651 1.398 . S
C2652 C2653 1.391 . S
C2653 H2641 0.950 . S
C2653 C2649 1.393 . S
C2653 C2652 1.391 . S
C2654 H2644 0.950 . S
C2654 C2655 1.386 . S
C2654 C2656 1.391 . S
C2655 C2654 1.386 . S
C2655 C2659 1.393 . S
C2656 H2645 0.950 . S
C2656 C2654 1.391 . S
C2656 C2657 1.400 . S
C2657 C2651 1.491 . S
C2657 C2656 1.400 . S
C2657 C2658 1.398 . S
C2658 H2646 0.950 . S
C2658 C2657 1.398 . S
C2658 C2659 1.391 . S
C2659 H2647 0.950 . S
C2659 C2655 1.393 . S
C2659 C2658 1.391 . S
H2660 C2668 0.950 . S
H2661 C2673 0.950 . S
H2662 C2670 0.950 . S
H2663 C2672 0.950 . S
H2664 C2674 0.950 . S
H2665 C2676 0.950 . S
H2666 C2678 0.950 . S
H2667 C2679 0.950 . S
C2668 H2660 0.950 . S
C2668 C2669 1.386 . S
C2668 C2670 1.391 . S
C2669 C2668 1.386 . S
C2669 C2673 1.393 . S
C2670 H2662 0.950 . S
C2670 C2668 1.391 . S
C2670 C2671 1.400 . S
C2671 C2670 1.400 . S
C2671 C2672 1.398 . S
C2671 C2677 1.491 . S
C2672 H2663 0.950 . S
C2672 C2671 1.398 . S
C2672 C2673 1.391 . S
C2673 H2661 0.950 . S
C2673 C2669 1.393 . S
C2673 C2672 1.391 . S
C2674 H2664 0.950 . S
C2674 C2675 1.386 . S
C2674 C2676 1.391 . S
C2675 C2674 1.386 . S
C2675 C2679 1.393 . S
C2676 H2665 0.950 . S
C2676 C2674 1.391 . S
C2676 C2677 1.400 . S
C2677 C2671 1.491 . S
C2677 C2676 1.400 . S
C2677 C2678 1.398 . S
C2678 H2666 0.950 . S
C2678 C2677 1.398 . S
C2678 C2679 1.391 . S
C2679 H2667 0.950 . S
C2679 C2675 1.393 . S
C2679 C2678 1.391 . S
H2680 C2688 0.950 . S
H2681 C2693 0.950 . S
H2682 C2690 0.950 . S
H2683 C2692 0.950 . S
H2684 C2694 0.950 . S
H2685 C2696 0.950 . S
H2686 C2698 0.950 . S
H2687 C2699 0.950 . S
C2688 H2680 0.950 . S
C2688 C2689 1.386 1_554 S
C2688 C2690 1.391 . S
C2689 C2688 1.386 1_556 S
C2689 C2693 1.393 1_455 S
C2690 H2682 0.950 . S
C2690 C2688 1.391 . S
C2690 C2691 1.400 . S
C2691 C2690 1.400 . S
C2691 C2692 1.398 1_454 S
C2691 C2697 1.491 . S
C2692 H2683 0.950 . S
C2692 C2691 1.398 1_656 S
C2692 C2693 1.391 . S
C2693 H2681 0.950 . S
C2693 C2689 1.393 1_655 S
C2693 C2692 1.391 . S
C2694 H2684 0.950 . S
C2694 C2695 1.386 1_655 S
C2694 C2696 1.391 . S
C2695 C2694 1.386 1_455 S
C2695 C2699 1.393 . S
C2696 H2685 0.950 . S
C2696 C2694 1.391 . S
C2696 C2697 1.400 1_655 S
C2697 C2691 1.491 . S
C2697 C2696 1.400 1_455 S
C2697 C2698 1.398 . S
C2698 H2686 0.950 . S
C2698 C2697 1.398 . S
C2698 C2699 1.391 . S
C2699 H2687 0.950 . S
C2699 C2695 1.393 . S
C2699 C2698 1.391 . S
H2700 C2708 0.950 . S
H2701 C2713 0.950 1_455 S
H2702 C2710 0.950 . S
H2703 C2712 0.950 . S
H2704 C2714 0.950 . S
H2705 C2716 0.950 . S
H2706 C2718 0.950 . S
H2707 C2719 0.950 . S
C2708 H2700 0.950 . S
C2708 C2709 1.386 . S
C2708 C2710 1.391 . S
C2709 C2708 1.386 . S
C2709 C2713 1.393 . S
C2710 H2702 0.950 . S
C2710 C2708 1.391 . S
C2710 C2711 1.400 . S
C2711 C2710 1.400 . S
C2711 C2712 1.398 . S
C2711 C2717 1.491 . S
C2712 H2703 0.950 . S
C2712 C2711 1.398 . S
C2712 C2713 1.391 . S
C2713 H2701 0.950 1_655 S
C2713 C2709 1.393 . S
C2713 C2712 1.391 . S
C2714 H2704 0.950 . S
C2714 C2715 1.386 . S
C2714 C2716 1.391 . S
C2715 C2714 1.386 . S
C2715 C2719 1.393 . S
C2716 H2705 0.950 . S
C2716 C2714 1.391 . S
C2716 C2717 1.400 . S
C2717 C2711 1.491 . S
C2717 C2716 1.400 . S
C2717 C2718 1.398 . S
C2718 H2706 0.950 . S
C2718 C2717 1.398 . S
C2718 C2719 1.391 . S
C2719 H2707 0.950 . S
C2719 C2715 1.393 . S
C2719 C2718 1.391 . S
H2720 C2728 0.950 . S
H2721 C2733 0.950 . S
H2722 C2730 0.950 . S
H2723 C2732 0.950 . S
H2724 C2734 0.950 . S
H2725 C2736 0.950 . S
H2726 C2738 0.950 . S
H2727 C2739 0.950 . S
C2728 H2720 0.950 . S
C2728 C2729 1.386 . S
C2728 C2730 1.391 . S
C2729 C2728 1.386 . S
C2729 C2733 1.393 . S
C2730 H2722 0.950 . S
C2730 C2728 1.391 . S
C2730 C2731 1.400 . S
C2731 C2730 1.400 . S
C2731 C2732 1.398 . S
C2731 C2737 1.491 . S
C2732 H2723 0.950 . S
C2732 C2731 1.398 . S
C2732 C2733 1.391 . S
C2733 H2721 0.950 . S
C2733 C2729 1.393 . S
C2733 C2732 1.391 . S
C2734 H2724 0.950 . S
C2734 C2735 1.386 . S
C2734 C2736 1.391 . S
C2735 C2734 1.386 . S
C2735 C2739 1.393 . S
C2736 H2725 0.950 . S
C2736 C2734 1.391 . S
C2736 C2737 1.400 . S
C2737 C2731 1.491 . S
C2737 C2736 1.400 . S
C2737 C2738 1.398 . S
C2738 H2726 0.950 . S
C2738 C2737 1.398 . S
C2738 C2739 1.391 . S
C2739 H2727 0.950 . S
C2739 C2735 1.393 . S
C2739 C2738 1.391 . S
H2740 C2748 0.950 . S
H2741 C2753 0.950 . S
H2742 C2750 0.950 . S
H2743 C2752 0.950 . S
H2744 C2754 0.950 . S
H2745 C2756 0.950 . S
H2746 C2758 0.950 . S
H2747 C2759 0.950 . S
C2748 H2740 0.950 . S
C2748 C2749 1.386 . S
C2748 C2750 1.391 . S
C2749 C2748 1.386 . S
C2749 C2753 1.393 . S
C2750 H2742 0.950 . S
C2750 C2748 1.391 . S
C2750 C2751 1.400 . S
C2751 C2750 1.400 . S
C2751 C2752 1.398 . S
C2751 C2757 1.491 . S
C2752 H2743 0.950 . S
C2752 C2751 1.398 . S
C2752 C2753 1.391 . S
C2753 H2741 0.950 . S
C2753 C2749 1.393 . S
C2753 C2752 1.391 . S
C2754 H2744 0.950 . S
C2754 C2755 1.386 . S
C2754 C2756 1.391 . S
C2755 C2754 1.386 . S
C2755 C2759 1.393 . S
C2756 H2745 0.950 . S
C2756 C2754 1.391 . S
C2756 C2757 1.400 . S
C2757 C2751 1.491 . S
C2757 C2756 1.400 . S
C2757 C2758 1.398 . S
C2758 H2746 0.950 . S
C2758 C2757 1.398 . S
C2758 C2759 1.391 . S
C2759 H2747 0.950 . S
C2759 C2755 1.393 . S
C2759 C2758 1.391 . S
H2760 C2768 0.950 . S
H2761 C2773 0.950 . S
H2762 C2770 0.950 . S
H2763 C2772 0.950 1_655 S
H2764 C2774 0.950 1_655 S
H2765 C2776 0.950 1_655 S
H2766 C2778 0.950 . S
H2767 C2779 0.950 . S
C2768 H2760 0.950 . S
C2768 C2769 1.386 . S
C2768 C2770 1.391 . S
C2769 C2768 1.386 . S
C2769 C2773 1.393 1_455 S
C2770 H2762 0.950 . S
C2770 C2768 1.391 . S
C2770 C2771 1.400 . S
C2771 C2770 1.400 . S
C2771 C2772 1.399 . S
C2771 C2777 1.491 . S
C2772 H2763 0.950 1_455 S
C2772 C2771 1.399 . S
C2772 C2773 1.390 1_455 S
C2773 H2761 0.950 . S
C2773 C2769 1.393 1_655 S
C2773 C2772 1.390 1_655 S
C2774 H2764 0.950 1_455 S
C2774 C2775 1.386 . S
C2774 C2776 1.391 . S
C2775 C2774 1.386 . S
C2775 C2779 1.393 . S
C2776 H2765 0.950 1_455 S
C2776 C2774 1.391 . S
C2776 C2777 1.400 . S
C2777 C2771 1.491 . S
C2777 C2776 1.400 . S
C2777 C2778 1.398 . S
C2778 H2766 0.950 . S
C2778 C2777 1.398 . S
C2778 C2779 1.391 . S
C2779 H2767 0.950 . S
C2779 C2775 1.393 . S
C2779 C2778 1.391 . S
H2780 C2788 0.950 . S
H2781 C2793 0.950 . S
H2782 C2790 0.950 . S
H2783 C2792 0.950 . S
H2784 C2794 0.950 . S
H2785 C2796 0.950 . S
H2786 C2798 0.950 . S
H2787 C2799 0.950 . S
C2788 H2780 0.950 . S
C2788 C2789 1.386 . S
C2788 C2790 1.391 . S
C2789 C2788 1.386 . S
C2789 C2793 1.393 . S
C2790 H2782 0.950 . S
C2790 C2788 1.391 . S
C2790 C2791 1.400 . S
C2791 C2790 1.400 . S
C2791 C2792 1.398 . S
C2791 C2797 1.491 . S
C2792 H2783 0.950 . S
C2792 C2791 1.398 . S
C2792 C2793 1.391 . S
C2793 H2781 0.950 . S
C2793 C2789 1.393 . S
C2793 C2792 1.391 . S
C2794 H2784 0.950 . S
C2794 C2795 1.386 . S
C2794 C2796 1.391 . S
C2795 C2794 1.386 . S
C2795 C2799 1.393 . S
C2796 H2785 0.950 . S
C2796 C2794 1.391 . S
C2796 C2797 1.400 . S
C2797 C2791 1.491 . S
C2797 C2796 1.400 . S
C2797 C2798 1.398 . S
C2798 H2786 0.950 . S
C2798 C2797 1.398 . S
C2798 C2799 1.391 . S
C2799 H2787 0.950 . S
C2799 C2795 1.393 . S
C2799 C2798 1.391 . S
H2800 C2808 0.950 . S
H2801 C2813 0.950 . S
H2802 C2810 0.950 . S
H2803 C2812 0.950 . S
H2804 C2814 0.950 . S
H2805 C2816 0.950 . S
H2806 C2818 0.950 . S
H2807 C2819 0.950 . S
C2808 H2800 0.950 . S
C2808 C2809 1.386 . S
C2808 C2810 1.391 . S
C2809 C2808 1.386 . S
C2809 C2813 1.393 . S
C2810 H2802 0.950 . S
C2810 C2808 1.391 . S
C2810 C2811 1.400 . S
C2811 C2810 1.400 . S
C2811 C2812 1.398 . S
C2811 C2817 1.491 . S
C2812 H2803 0.950 . S
C2812 C2811 1.398 . S
C2812 C2813 1.391 . S
C2813 H2801 0.950 . S
C2813 C2809 1.393 . S
C2813 C2812 1.391 . S
C2814 H2804 0.950 . S
C2814 C2815 1.386 . S
C2814 C2816 1.391 . S
C2815 C2814 1.386 . S
C2815 C2819 1.393 . S
C2816 H2805 0.950 . S
C2816 C2814 1.391 . S
C2816 C2817 1.400 . S
C2817 C2811 1.491 . S
C2817 C2816 1.400 . S
C2817 C2818 1.398 . S
C2818 H2806 0.950 . S
C2818 C2817 1.398 . S
C2818 C2819 1.391 . S
C2819 H2807 0.950 . S
C2819 C2815 1.393 . S
C2819 C2818 1.391 . S
H2820 C2828 0.950 1_554 S
H2821 C2833 0.950 . S
H2822 C2830 0.950 . S
H2823 C2832 0.950 . S
H2824 C2834 0.950 . S
H2825 C2836 0.950 . S
H2826 C2838 0.950 . S
H2827 C2839 0.950 . S
C2828 H2820 0.950 1_556 S
C2828 C2829 1.386 . S
C2828 C2830 1.391 . S
C2829 C2828 1.386 . S
C2829 C2833 1.393 . S
C2830 H2822 0.950 . S
C2830 C2828 1.391 . S
C2830 C2831 1.400 . S
C2831 C2830 1.400 . S
C2831 C2832 1.398 . S
C2831 C2837 1.491 . S
C2832 H2823 0.950 . S
C2832 C2831 1.398 . S
C2832 C2833 1.391 . S
C2833 H2821 0.950 . S
C2833 C2829 1.393 . S
C2833 C2832 1.391 . S
C2834 H2824 0.950 . S
C2834 C2835 1.386 . S
C2834 C2836 1.391 . S
C2835 C2834 1.386 . S
C2835 C2839 1.393 . S
C2836 H2825 0.950 . S
C2836 C2834 1.391 . S
C2836 C2837 1.400 . S
C2837 C2831 1.491 . S
C2837 C2836 1.400 . S
C2837 C2838 1.398 . S
C2838 H2826 0.950 . S
C2838 C2837 1.398 . S
C2838 C2839 1.391 . S
C2839 H2827 0.950 . S
C2839 C2835 1.393 . S
C2839 C2838 1.391 . S
H2840 C2848 0.950 . S
H2841 C2853 0.950 . S
H2842 C2850 0.950 . S
H2843 C2852 0.950 . S
H2844 C2854 0.950 . S
H2845 C2856 0.950 . S
H2846 C2858 0.950 . S
H2847 C2859 0.950 . S
C2848 H2840 0.950 . S
C2848 C2849 1.386 . S
C2848 C2850 1.391 . S
C2849 C2848 1.386 . S
C2849 C2853 1.393 . S
C2850 H2842 0.950 . S
C2850 C2848 1.391 . S
C2850 C2851 1.400 . S
C2851 C2850 1.400 . S
C2851 C2852 1.398 . S
C2851 C2857 1.491 . S
C2852 H2843 0.950 . S
C2852 C2851 1.398 . S
C2852 C2853 1.391 . S
C2853 H2841 0.950 . S
C2853 C2849 1.393 . S
C2853 C2852 1.391 . S
C2854 H2844 0.950 . S
C2854 C2855 1.386 . S
C2854 C2856 1.391 . S
C2855 C2854 1.386 . S
C2855 C2859 1.393 . S
C2856 H2845 0.950 . S
C2856 C2854 1.391 . S
C2856 C2857 1.400 . S
C2857 C2851 1.491 . S
C2857 C2856 1.400 . S
C2857 C2858 1.398 . S
C2858 H2846 0.950 . S
C2858 C2857 1.398 . S
C2858 C2859 1.391 . S
C2859 H2847 0.950 . S
C2859 C2855 1.393 . S
C2859 C2858 1.391 . S
H2860 C2868 0.950 . S
H2861 C2873 0.950 . S
H2862 C2870 0.950 . S
H2863 C2872 0.950 . S
H2864 C2874 0.950 . S
H2865 C2876 0.950 . S
H2866 C2878 0.950 . S
H2867 C2879 0.950 . S
C2868 H2860 0.950 . S
C2868 C2869 1.386 . S
C2868 C2870 1.391 . S
C2869 C2868 1.386 . S
C2869 C2873 1.393 . S
C2870 H2862 0.950 . S
C2870 C2868 1.391 . S
C2870 C2871 1.400 . S
C2871 C2870 1.400 . S
C2871 C2872 1.398 . S
C2871 C2877 1.491 . S
C2872 H2863 0.950 . S
C2872 C2871 1.398 . S
C2872 C2873 1.391 . S
C2873 H2861 0.950 . S
C2873 C2869 1.393 . S
C2873 C2872 1.391 . S
C2874 H2864 0.950 . S
C2874 C2875 1.386 . S
C2874 C2876 1.391 . S
C2875 C2874 1.386 . S
C2875 C2879 1.393 . S
C2876 H2865 0.950 . S
C2876 C2874 1.391 . S
C2876 C2877 1.400 . S
C2877 C2871 1.491 . S
C2877 C2876 1.400 . S
C2877 C2878 1.398 . S
C2878 H2866 0.950 . S
C2878 C2877 1.398 . S
C2878 C2879 1.391 . S
C2879 H2867 0.950 . S
C2879 C2875 1.393 . S
C2879 C2878 1.391 . S
H2880 C2888 0.950 . S
H2881 C2893 0.950 . S
H2882 C2890 0.950 . S
H2883 C2892 0.950 . S
H2884 C2894 0.950 . S
H2885 C2896 0.950 . S
H2886 C2898 0.950 . S
H2887 C2899 0.950 . S
C2888 H2880 0.950 . S
C2888 C2889 1.386 . S
C2888 C2890 1.391 . S
C2889 C2888 1.386 . S
C2889 C2893 1.393 . S
C2890 H2882 0.950 . S
C2890 C2888 1.391 . S
C2890 C2891 1.400 . S
C2891 C2890 1.400 . S
C2891 C2892 1.398 . S
C2891 C2897 1.491 . S
C2892 H2883 0.950 . S
C2892 C2891 1.398 . S
C2892 C2893 1.391 . S
C2893 H2881 0.950 . S
C2893 C2889 1.393 . S
C2893 C2892 1.391 . S
C2894 H2884 0.950 . S
C2894 C2895 1.386 . S
C2894 C2896 1.391 . S
C2895 C2894 1.386 . S
C2895 C2899 1.393 . S
C2896 H2885 0.950 . S
C2896 C2894 1.391 . S
C2896 C2897 1.400 . S
C2897 C2891 1.491 . S
C2897 C2896 1.400 . S
C2897 C2898 1.398 . S
C2898 H2886 0.950 . S
C2898 C2897 1.398 . S
C2898 C2899 1.391 . S
C2899 H2887 0.950 . S
C2899 C2895 1.393 . S
C2899 C2898 1.391 . S
H2900 C2908 0.950 . S
H2901 C2913 0.950 . S
H2902 C2910 0.950 . S
H2903 C2912 0.950 . S
H2904 C2914 0.950 . S
H2905 C2916 0.950 . S
H2906 C2918 0.950 . S
H2907 C2919 0.950 . S
C2908 H2900 0.950 . S
C2908 C2909 1.386 . S
C2908 C2910 1.391 . S
C2909 C2908 1.386 . S
C2909 C2913 1.393 . S
C2910 H2902 0.950 . S
C2910 C2908 1.391 . S
C2910 C2911 1.400 . S
C2911 C2910 1.400 . S
C2911 C2912 1.398 . S
C2911 C2917 1.491 . S
C2912 H2903 0.950 . S
C2912 C2911 1.398 . S
C2912 C2913 1.391 . S
C2913 H2901 0.950 . S
C2913 C2909 1.393 . S
C2913 C2912 1.391 . S
C2914 H2904 0.950 . S
C2914 C2915 1.386 . S
C2914 C2916 1.391 . S
C2915 C2914 1.386 . S
C2915 C2919 1.393 . S
C2916 H2905 0.950 . S
C2916 C2914 1.391 . S
C2916 C2917 1.400 . S
C2917 C2911 1.491 . S
C2917 C2916 1.400 . S
C2917 C2918 1.398 . S
C2918 H2906 0.950 . S
C2918 C2917 1.398 . S
C2918 C2919 1.391 . S
C2919 H2907 0.950 . S
C2919 C2915 1.393 . S
C2919 C2918 1.391 . S
H2920 C2928 0.950 . S
H2921 C2933 0.950 . S
H2922 C2930 0.950 . S
H2923 C2932 0.950 . S
H2924 C2934 0.950 . S
H2925 C2936 0.950 . S
H2926 C2938 0.950 . S
H2927 C2939 0.950 . S
C2928 H2920 0.950 . S
C2928 C2929 1.386 . S
C2928 C2930 1.391 . S
C2929 C2928 1.386 . S
C2929 C2933 1.393 . S
C2930 H2922 0.950 . S
C2930 C2928 1.391 . S
C2930 C2931 1.400 . S
C2931 C2930 1.400 . S
C2931 C2932 1.398 . S
C2931 C2937 1.491 . S
C2932 H2923 0.950 . S
C2932 C2931 1.398 . S
C2932 C2933 1.391 . S
C2933 H2921 0.950 . S
C2933 C2929 1.393 . S
C2933 C2932 1.391 . S
C2934 H2924 0.950 . S
C2934 C2935 1.386 . S
C2934 C2936 1.391 . S
C2935 C2934 1.386 . S
C2935 C2939 1.393 . S
C2936 H2925 0.950 . S
C2936 C2934 1.391 . S
C2936 C2937 1.400 . S
C2937 C2931 1.491 . S
C2937 C2936 1.400 . S
C2937 C2938 1.398 . S
C2938 H2926 0.950 . S
C2938 C2937 1.398 . S
C2938 C2939 1.391 . S
C2939 H2927 0.950 . S
C2939 C2935 1.393 . S
C2939 C2938 1.391 . S
H2940 C2948 0.950 . S
H2941 C2953 0.950 . S
H2942 C2950 0.950 . S
H2943 C2952 0.950 . S
H2944 C2954 0.950 . S
H2945 C2956 0.950 . S
H2946 C2958 0.950 . S
H2947 C2959 0.950 . S
C2948 H2940 0.950 . S
C2948 C2949 1.386 . S
C2948 C2950 1.391 . S
C2949 C2948 1.386 . S
C2949 C2953 1.393 . S
C2950 H2942 0.950 . S
C2950 C2948 1.391 . S
C2950 C2951 1.400 . S
C2951 C2950 1.400 . S
C2951 C2952 1.398 . S
C2951 C2957 1.491 . S
C2952 H2943 0.950 . S
C2952 C2951 1.398 . S
C2952 C2953 1.391 . S
C2953 H2941 0.950 . S
C2953 C2949 1.393 . S
C2953 C2952 1.391 . S
C2954 H2944 0.950 . S
C2954 C2955 1.386 . S
C2954 C2956 1.391 . S
C2955 C2954 1.386 . S
C2955 C2959 1.393 . S
C2956 H2945 0.950 . S
C2956 C2954 1.391 . S
C2956 C2957 1.400 . S
C2957 C2951 1.491 . S
C2957 C2956 1.400 . S
C2957 C2958 1.398 . S
C2958 H2946 0.950 . S
C2958 C2957 1.398 . S
C2958 C2959 1.391 . S
C2959 H2947 0.950 . S
C2959 C2955 1.393 . S
C2959 C2958 1.391 . S
H2960 C2968 0.950 . S
H2961 C2973 0.950 . S
H2962 C2970 0.950 . S
H2963 C2972 0.950 . S
H2964 C2974 0.950 . S
H2965 C2976 0.950 . S
H2966 C2978 0.950 . S
H2967 C2979 0.950 . S
C2968 H2960 0.950 . S
C2968 C2969 1.386 . S
C2968 C2970 1.391 . S
C2969 C2968 1.386 . S
C2969 C2973 1.393 . S
C2970 H2962 0.950 . S
C2970 C2968 1.391 . S
C2970 C2971 1.400 . S
C2971 C2970 1.400 . S
C2971 C2972 1.398 . S
C2971 C2977 1.491 . S
C2972 H2963 0.950 . S
C2972 C2971 1.398 . S
C2972 C2973 1.391 . S
C2973 H2961 0.950 . S
C2973 C2969 1.393 . S
C2973 C2972 1.391 . S
C2974 H2964 0.950 . S
C2974 C2975 1.386 . S
C2974 C2976 1.391 . S
C2975 C2974 1.386 . S
C2975 C2979 1.393 . S
C2976 H2965 0.950 . S
C2976 C2974 1.391 . S
C2976 C2977 1.400 . S
C2977 C2971 1.491 . S
C2977 C2976 1.400 . S
C2977 C2978 1.398 . S
C2978 H2966 0.950 . S
C2978 C2977 1.398 . S
C2978 C2979 1.391 . S
C2979 H2967 0.950 . S
C2979 C2975 1.393 . S
C2979 C2978 1.391 . S
H2980 C2988 0.950 . S
H2981 C2993 0.950 . S
H2982 C2990 0.950 . S
H2983 C2992 0.950 . S
H2984 C2994 0.950 . S
H2985 C2996 0.950 . S
H2986 C2998 0.950 . S
H2987 C2999 0.950 . S
C2988 H2980 0.950 . S
C2988 C2989 1.386 . S
C2988 C2990 1.391 . S
C2989 C2988 1.386 . S
C2989 C2993 1.393 . S
C2990 H2982 0.950 . S
C2990 C2988 1.391 . S
C2990 C2991 1.400 . S
C2991 C2990 1.400 . S
C2991 C2992 1.398 . S
C2991 C2997 1.491 . S
C2992 H2983 0.950 . S
C2992 C2991 1.398 . S
C2992 C2993 1.391 . S
C2993 H2981 0.950 . S
C2993 C2989 1.393 . S
C2993 C2992 1.391 . S
C2994 H2984 0.950 . S
C2994 C2995 1.386 . S
C2994 C2996 1.391 . S
C2995 C2994 1.386 . S
C2995 C2999 1.393 . S
C2996 H2985 0.950 . S
C2996 C2994 1.391 . S
C2996 C2997 1.400 . S
C2997 C2991 1.491 . S
C2997 C2996 1.400 . S
C2997 C2998 1.398 . S
C2998 H2986 0.950 . S
C2998 C2997 1.398 . S
C2998 C2999 1.391 . S
C2999 H2987 0.950 . S
C2999 C2995 1.393 . S
C2999 C2998 1.391 . S
H3000 C3008 0.950 . S
H3001 C3013 0.950 . S
H3002 C3010 0.950 . S
H3003 C3012 0.950 . S
H3004 C3014 0.950 . S
H3005 C3016 0.950 . S
H3006 C3018 0.950 . S
H3007 C3019 0.950 . S
C3008 H3000 0.950 . S
C3008 C3009 1.386 . S
C3008 C3010 1.391 . S
C3009 C3008 1.386 . S
C3009 C3013 1.393 . S
C3010 H3002 0.950 . S
C3010 C3008 1.391 . S
C3010 C3011 1.400 . S
C3011 C3010 1.400 . S
C3011 C3012 1.398 . S
C3011 C3017 1.491 . S
C3012 H3003 0.950 . S
C3012 C3011 1.398 . S
C3012 C3013 1.391 . S
C3013 H3001 0.950 . S
C3013 C3009 1.393 . S
C3013 C3012 1.391 . S
C3014 H3004 0.950 . S
C3014 C3015 1.386 . S
C3014 C3016 1.391 . S
C3015 C3014 1.386 . S
C3015 C3019 1.393 . S
C3016 H3005 0.950 . S
C3016 C3014 1.391 . S
C3016 C3017 1.400 . S
C3017 C3011 1.491 . S
C3017 C3016 1.400 . S
C3017 C3018 1.398 . S
C3018 H3006 0.950 . S
C3018 C3017 1.398 . S
C3018 C3019 1.391 . S
C3019 H3007 0.950 . S
C3019 C3015 1.393 . S
C3019 C3018 1.391 . S
H3020 C3028 0.950 . S
H3021 C3033 0.950 . S
H3022 C3030 0.950 . S
H3023 C3032 0.950 . S
H3024 C3034 0.941 1_556 S
H3025 C3036 0.950 1_556 S
H3026 C3038 0.950 . S
H3027 C3039 0.950 . S
C3028 H3020 0.950 . S
C3028 C3029 1.386 . S
C3028 C3030 1.391 . S
C3029 C3028 1.386 . S
C3029 C3033 1.393 1_554 S
C3030 H3022 0.950 . S
C3030 C3028 1.391 . S
C3030 C3031 1.400 . S
C3031 C3030 1.400 . S
C3031 C3032 1.398 1_554 S
C3031 C3037 1.491 . S
C3032 H3023 0.950 . S
C3032 C3031 1.398 1_556 S
C3032 C3033 1.391 . S
C3033 H3021 0.950 . S
C3033 C3029 1.393 1_556 S
C3033 C3032 1.391 . S
C3034 H3024 0.941 1_554 S
C3034 C3035 1.386 . S
C3034 C3036 1.391 1_545 S
C3035 C3034 1.386 . S
C3035 C3039 1.393 . S
C3036 H3025 0.950 1_554 S
C3036 C3034 1.391 1_565 S
C3036 C3037 1.400 . S
C3037 C3031 1.491 . S
C3037 C3036 1.400 . S
C3037 C3038 1.398 . S
C3038 H3026 0.950 . S
C3038 C3037 1.398 . S
C3038 C3039 1.391 1_565 S
C3039 H3027 0.950 . S
C3039 C3035 1.393 . S
C3039 C3038 1.391 1_545 S
H3040 C3048 0.950 . S
H3041 C3053 0.950 . S
H3042 C3050 0.950 . S
H3043 C3052 0.950 . S
H3044 C3054 0.950 . S
H3045 C3056 0.950 . S
H3046 C3058 0.950 . S
H3047 C3059 0.950 . S
C3048 H3040 0.950 . S
C3048 C3049 1.386 . S
C3048 C3050 1.391 . S
C3049 C3048 1.386 . S
C3049 C3053 1.393 . S
C3050 H3042 0.950 . S
C3050 C3048 1.391 . S
C3050 C3051 1.400 . S
C3051 C3050 1.400 . S
C3051 C3052 1.398 . S
C3051 C3057 1.491 . S
C3052 H3043 0.950 . S
C3052 C3051 1.398 . S
C3052 C3053 1.391 . S
C3053 H3041 0.950 . S
C3053 C3049 1.393 . S
C3053 C3052 1.391 . S
C3054 H3044 0.950 . S
C3054 C3055 1.386 . S
C3054 C3056 1.391 . S
C3055 C3054 1.386 . S
C3055 C3059 1.393 . S
C3056 H3045 0.950 . S
C3056 C3054 1.391 . S
C3056 C3057 1.400 . S
C3057 C3051 1.491 . S
C3057 C3056 1.400 . S
C3057 C3058 1.398 . S
C3058 H3046 0.950 . S
C3058 C3057 1.398 . S
C3058 C3059 1.391 . S
C3059 H3047 0.950 . S
C3059 C3055 1.393 . S
C3059 C3058 1.391 . S
H3060 C3068 0.950 . S
H3061 C3073 0.950 . S
H3062 C3070 0.950 . S
H3063 C3072 0.950 . S
H3064 C3074 0.950 . S
H3065 C3076 0.950 . S
H3066 C3078 0.950 . S
H3067 C3079 0.950 . S
C3068 H3060 0.950 . S
C3068 C3069 1.386 . S
C3068 C3070 1.391 . S
C3069 C3068 1.386 . S
C3069 C3073 1.393 . S
C3070 H3062 0.950 . S
C3070 C3068 1.391 . S
C3070 C3071 1.400 . S
C3071 C3070 1.400 . S
C3071 C3072 1.398 . S
C3071 C3077 1.491 . S
C3072 H3063 0.950 . S
C3072 C3071 1.398 . S
C3072 C3073 1.391 . S
C3073 H3061 0.950 . S
C3073 C3069 1.393 . S
C3073 C3072 1.391 . S
C3074 H3064 0.950 . S
C3074 C3075 1.386 . S
C3074 C3076 1.391 . S
C3075 C3074 1.386 . S
C3075 C3079 1.393 . S
C3076 H3065 0.950 . S
C3076 C3074 1.391 . S
C3076 C3077 1.400 . S
C3077 C3071 1.491 . S
C3077 C3076 1.400 . S
C3077 C3078 1.398 . S
C3078 H3066 0.950 . S
C3078 C3077 1.398 . S
C3078 C3079 1.391 . S
C3079 H3067 0.950 . S
C3079 C3075 1.393 . S
C3079 C3078 1.391 . S
H3080 C3088 0.950 . S
H3081 C3093 0.950 . S
H3082 C3090 0.950 . S
H3083 C3092 0.950 . S
H3084 C3094 0.950 . S
H3085 C3096 0.950 . S
H3086 C3098 0.950 . S
H3087 C3099 0.950 . S
C3088 H3080 0.950 . S
C3088 C3089 1.386 . S
C3088 C3090 1.391 . S
C3089 C3088 1.386 . S
C3089 C3093 1.393 . S
C3090 H3082 0.950 . S
C3090 C3088 1.391 . S
C3090 C3091 1.400 . S
C3091 C3090 1.400 . S
C3091 C3092 1.398 . S
C3091 C3097 1.491 . S
C3092 H3083 0.950 . S
C3092 C3091 1.398 . S
C3092 C3093 1.391 . S
C3093 H3081 0.950 . S
C3093 C3089 1.393 . S
C3093 C3092 1.391 . S
C3094 H3084 0.950 . S
C3094 C3095 1.386 . S
C3094 C3096 1.391 . S
C3095 C3094 1.386 . S
C3095 C3099 1.393 . S
C3096 H3085 0.950 . S
C3096 C3094 1.391 . S
C3096 C3097 1.400 . S
C3097 C3091 1.491 . S
C3097 C3096 1.400 . S
C3097 C3098 1.398 . S
C3098 H3086 0.950 . S
C3098 C3097 1.398 . S
C3098 C3099 1.391 . S
C3099 H3087 0.950 . S
C3099 C3095 1.393 . S
C3099 C3098 1.391 . S
H3100 C3108 0.950 . S
H3101 C3113 0.950 . S
H3102 C3110 0.950 . S
H3103 C3112 0.950 . S
H3104 C3114 0.950 . S
H3105 C3116 0.950 . S
H3106 C3118 0.950 . S
H3107 C3119 0.950 . S
C3108 H3100 0.950 . S
C3108 C3109 1.386 . S
C3108 C3110 1.391 . S
C3109 C3108 1.386 . S
C3109 C3113 1.393 . S
C3110 H3102 0.950 . S
C3110 C3108 1.391 . S
C3110 C3111 1.400 . S
C3111 C3110 1.400 . S
C3111 C3112 1.398 . S
C3111 C3117 1.491 . S
C3112 H3103 0.950 . S
C3112 C3111 1.398 . S
C3112 C3113 1.391 . S
C3113 H3101 0.950 . S
C3113 C3109 1.393 . S
C3113 C3112 1.391 . S
C3114 H3104 0.950 . S
C3114 C3115 1.386 . S
C3114 C3116 1.391 . S
C3115 C3114 1.386 . S
C3115 C3119 1.393 . S
C3116 H3105 0.950 . S
C3116 C3114 1.391 . S
C3116 C3117 1.400 . S
C3117 C3111 1.491 . S
C3117 C3116 1.400 . S
C3117 C3118 1.398 . S
C3118 H3106 0.950 . S
C3118 C3117 1.398 . S
C3118 C3119 1.391 . S
C3119 H3107 0.950 . S
C3119 C3115 1.393 . S
C3119 C3118 1.391 . S
H3120 C3128 0.950 . S
H3121 C3133 0.950 . S
H3122 C3130 0.950 . S
H3123 C3132 0.950 . S
H3124 C3134 0.950 . S
H3125 C3136 0.950 . S
H3126 C3138 0.950 . S
H3127 C3139 0.950 . S
C3128 H3120 0.950 . S
C3128 C3129 1.386 . S
C3128 C3130 1.391 . S
C3129 C3128 1.386 . S
C3129 C3133 1.393 . S
C3130 H3122 0.950 . S
C3130 C3128 1.391 . S
C3130 C3131 1.400 . S
C3131 C3130 1.400 . S
C3131 C3132 1.398 . S
C3131 C3137 1.491 . S
C3132 H3123 0.950 . S
C3132 C3131 1.398 . S
C3132 C3133 1.391 . S
C3133 H3121 0.950 . S
C3133 C3129 1.393 . S
C3133 C3132 1.391 . S
C3134 H3124 0.950 . S
C3134 C3135 1.386 . S
C3134 C3136 1.391 . S
C3135 C3134 1.386 . S
C3135 C3139 1.393 . S
C3136 H3125 0.950 . S
C3136 C3134 1.391 . S
C3136 C3137 1.400 . S
C3137 C3131 1.491 . S
C3137 C3136 1.400 . S
C3137 C3138 1.398 . S
C3138 H3126 0.950 . S
C3138 C3137 1.398 . S
C3138 C3139 1.391 . S
C3139 H3127 0.950 . S
C3139 C3135 1.393 . S
C3139 C3138 1.391 . S
H3140 C3148 0.950 . S
H3141 C3153 0.950 . S
H3142 C3150 0.950 . S
H3143 C3152 0.950 . S
H3144 C3154 0.950 . S
H3145 C3156 0.950 . S
H3146 C3158 0.950 . S
H3147 C3159 0.950 . S
C3148 H3140 0.950 . S
C3148 C3149 1.386 . S
C3148 C3150 1.391 . S
C3149 C3148 1.386 . S
C3149 C3153 1.393 . S
C3150 H3142 0.950 . S
C3150 C3148 1.391 . S
C3150 C3151 1.400 . S
C3151 C3150 1.400 . S
C3151 C3152 1.398 . S
C3151 C3157 1.491 . S
C3152 H3143 0.950 . S
C3152 C3151 1.398 . S
C3152 C3153 1.391 . S
C3153 H3141 0.950 . S
C3153 C3149 1.393 . S
C3153 C3152 1.391 . S
C3154 H3144 0.950 . S
C3154 C3155 1.386 . S
C3154 C3156 1.391 . S
C3155 C3154 1.386 . S
C3155 C3159 1.393 . S
C3156 H3145 0.950 . S
C3156 C3154 1.391 . S
C3156 C3157 1.400 . S
C3157 C3151 1.491 . S
C3157 C3156 1.400 . S
C3157 C3158 1.398 . S
C3158 H3146 0.950 . S
C3158 C3157 1.398 . S
C3158 C3159 1.391 . S
C3159 H3147 0.950 . S
C3159 C3155 1.393 . S
C3159 C3158 1.391 . S
H3160 C3168 0.950 . S
H3161 C3173 0.950 . S
H3162 C3170 0.950 . S
H3163 C3172 0.950 . S
H3164 C3174 0.950 . S
H3165 C3176 0.950 . S
H3166 C3178 0.950 . S
H3167 C3179 0.950 . S
C3168 H3160 0.950 . S
C3168 C3169 1.386 . S
C3168 C3170 1.391 . S
C3169 C3168 1.386 . S
C3169 C3173 1.393 . S
C3170 H3162 0.950 . S
C3170 C3168 1.391 . S
C3170 C3171 1.400 . S
C3171 C3170 1.400 . S
C3171 C3172 1.398 . S
C3171 C3177 1.491 . S
C3172 H3163 0.950 . S
C3172 C3171 1.398 . S
C3172 C3173 1.391 . S
C3173 H3161 0.950 . S
C3173 C3169 1.393 . S
C3173 C3172 1.391 . S
C3174 H3164 0.950 . S
C3174 C3175 1.386 . S
C3174 C3176 1.391 . S
C3175 C3174 1.386 . S
C3175 C3179 1.393 . S
C3176 H3165 0.950 . S
C3176 C3174 1.391 . S
C3176 C3177 1.400 . S
C3177 C3171 1.491 . S
C3177 C3176 1.400 . S
C3177 C3178 1.398 . S
C3178 H3166 0.950 . S
C3178 C3177 1.398 . S
C3178 C3179 1.391 . S
C3179 H3167 0.950 . S
C3179 C3175 1.393 . S
C3179 C3178 1.391 . S
H3180 C3188 0.950 . S
H3181 C3193 0.950 . S
H3182 C3190 0.950 . S
H3183 C3192 0.950 . S
H3184 C3194 0.950 . S
H3185 C3196 0.950 . S
H3186 C3198 0.950 . S
H3187 C3199 0.950 . S
C3188 H3180 0.950 . S
C3188 C3189 1.386 . S
C3188 C3190 1.391 . S
C3189 C3188 1.386 . S
C3189 C3193 1.393 . S
C3190 H3182 0.950 . S
C3190 C3188 1.391 . S
C3190 C3191 1.400 . S
C3191 C3190 1.400 . S
C3191 C3192 1.398 . S
C3191 C3197 1.491 . S
C3192 H3183 0.950 . S
C3192 C3191 1.398 . S
C3192 C3193 1.391 . S
C3193 H3181 0.950 . S
C3193 C3189 1.393 . S
C3193 C3192 1.391 . S
C3194 H3184 0.950 . S
C3194 C3195 1.386 . S
C3194 C3196 1.391 . S
C3195 C3194 1.386 . S
C3195 C3199 1.393 . S
C3196 H3185 0.950 . S
C3196 C3194 1.391 . S
C3196 C3197 1.400 . S
C3197 C3191 1.491 . S
C3197 C3196 1.400 . S
C3197 C3198 1.398 . S
C3198 H3186 0.950 . S
C3198 C3197 1.398 . S
C3198 C3199 1.391 . S
C3199 H3187 0.950 . S
C3199 C3195 1.393 . S
C3199 C3198 1.391 . S
H3200 C3208 0.950 . S
H3201 C3213 0.950 . S
H3202 C3210 0.950 . S
H3203 C3212 0.950 . S
H3204 C3214 0.950 . S
H3205 C3216 0.950 . S
H3206 C3218 0.950 . S
H3207 C3219 0.950 . S
C3208 H3200 0.950 . S
C3208 C3209 1.386 . S
C3208 C3210 1.391 . S
C3209 C3208 1.386 . S
C3209 C3213 1.393 . S
C3210 H3202 0.950 . S
C3210 C3208 1.391 . S
C3210 C3211 1.400 . S
C3211 C3210 1.400 . S
C3211 C3212 1.398 . S
C3211 C3217 1.491 . S
C3212 H3203 0.950 . S
C3212 C3211 1.398 . S
C3212 C3213 1.391 . S
C3213 H3201 0.950 . S
C3213 C3209 1.393 . S
C3213 C3212 1.391 . S
C3214 H3204 0.950 . S
C3214 C3215 1.386 . S
C3214 C3216 1.391 . S
C3215 C3214 1.386 . S
C3215 C3219 1.393 . S
C3216 H3205 0.950 . S
C3216 C3214 1.391 . S
C3216 C3217 1.400 . S
C3217 C3211 1.491 . S
C3217 C3216 1.400 . S
C3217 C3218 1.398 . S
C3218 H3206 0.950 . S
C3218 C3217 1.398 . S
C3218 C3219 1.391 . S
C3219 H3207 0.950 . S
C3219 C3215 1.393 . S
C3219 C3218 1.391 . S
H3220 C3228 0.950 . S
H3221 C3233 0.950 . S
H3222 C3230 0.950 . S
H3223 C3232 0.950 . S
H3224 C3234 0.950 . S
H3225 C3236 0.950 . S
H3226 C3238 0.950 . S
H3227 C3239 0.950 . S
C3228 H3220 0.950 . S
C3228 C3229 1.386 . S
C3228 C3230 1.391 . S
C3229 C3228 1.386 . S
C3229 C3233 1.393 . S
C3230 H3222 0.950 . S
C3230 C3228 1.391 . S
C3230 C3231 1.400 . S
C3231 C3230 1.400 . S
C3231 C3232 1.398 . S
C3231 C3237 1.491 . S
C3232 H3223 0.950 . S
C3232 C3231 1.398 . S
C3232 C3233 1.391 . S
C3233 H3221 0.950 . S
C3233 C3229 1.393 . S
C3233 C3232 1.391 . S
C3234 H3224 0.950 . S
C3234 C3235 1.386 . S
C3234 C3236 1.391 . S
C3235 C3234 1.386 . S
C3235 C3239 1.393 . S
C3236 H3225 0.950 . S
C3236 C3234 1.391 . S
C3236 C3237 1.400 . S
C3237 C3231 1.491 . S
C3237 C3236 1.400 . S
C3237 C3238 1.398 . S
C3238 H3226 0.950 . S
C3238 C3237 1.398 . S
C3238 C3239 1.391 . S
C3239 H3227 0.950 . S
C3239 C3235 1.393 . S
C3239 C3238 1.391 . S
H3240 C3248 0.950 . S
H3241 C3253 0.950 . S
H3242 C3250 0.950 . S
H3243 C3252 0.950 . S
H3244 C3254 0.950 . S
H3245 C3256 0.950 . S
H3246 C3258 0.950 . S
H3247 C3259 0.950 . S
C3248 H3240 0.950 . S
C3248 C3249 1.386 . S
C3248 C3250 1.391 . S
C3249 C3248 1.386 . S
C3249 C3253 1.393 . S
C3250 H3242 0.950 . S
C3250 C3248 1.391 . S
C3250 C3251 1.400 . S
C3251 C3250 1.400 . S
C3251 C3252 1.398 . S
C3251 C3257 1.491 . S
C3252 H3243 0.950 . S
C3252 C3251 1.398 . S
C3252 C3253 1.391 . S
C3253 H3241 0.950 . S
C3253 C3249 1.393 . S
C3253 C3252 1.391 . S
C3254 H3244 0.950 . S
C3254 C3255 1.386 . S
C3254 C3256 1.391 . S
C3255 C3254 1.386 . S
C3255 C3259 1.393 . S
C3256 H3245 0.950 . S
C3256 C3254 1.391 . S
C3256 C3257 1.400 . S
C3257 C3251 1.491 . S
C3257 C3256 1.400 . S
C3257 C3258 1.398 . S
C3258 H3246 0.950 . S
C3258 C3257 1.398 . S
C3258 C3259 1.391 . S
C3259 H3247 0.950 . S
C3259 C3255 1.393 . S
C3259 C3258 1.391 . S
H3260 C3268 0.950 . S
H3261 C3273 0.950 . S
H3262 C3270 0.950 . S
H3263 C3272 0.950 . S
H3264 C3274 0.950 . S
H3265 C3276 0.950 . S
H3266 C3278 0.950 . S
H3267 C3279 0.950 . S
C3268 H3260 0.950 . S
C3268 C3269 1.386 . S
C3268 C3270 1.391 . S
C3269 C3268 1.386 . S
C3269 C3273 1.393 . S
C3270 H3262 0.950 . S
C3270 C3268 1.391 . S
C3270 C3271 1.400 . S
C3271 C3270 1.400 . S
C3271 C3272 1.398 . S
C3271 C3277 1.491 . S
C3272 H3263 0.950 . S
C3272 C3271 1.398 . S
C3272 C3273 1.391 . S
C3273 H3261 0.950 . S
C3273 C3269 1.393 . S
C3273 C3272 1.391 . S
C3274 H3264 0.950 . S
C3274 C3275 1.386 . S
C3274 C3276 1.391 . S
C3275 C3274 1.386 . S
C3275 C3279 1.393 . S
C3276 H3265 0.950 . S
C3276 C3274 1.391 . S
C3276 C3277 1.400 . S
C3277 C3271 1.491 . S
C3277 C3276 1.400 . S
C3277 C3278 1.398 . S
C3278 H3266 0.950 . S
C3278 C3277 1.398 . S
C3278 C3279 1.391 . S
C3279 H3267 0.950 . S
C3279 C3275 1.393 . S
C3279 C3278 1.391 . S
H3280 C3288 0.950 . S
H3281 C3293 0.950 . S
H3282 C3290 0.950 . S
H3283 C3292 0.950 . S
H3284 C3294 0.950 . S
H3285 C3296 0.950 . S
H3286 C3298 0.950 . S
H3287 C3299 0.950 . S
C3288 H3280 0.950 . S
C3288 C3289 1.386 . S
C3288 C3290 1.391 . S
C3289 C3288 1.386 . S
C3289 C3293 1.393 . S
C3290 H3282 0.950 . S
C3290 C3288 1.391 . S
C3290 C3291 1.400 . S
C3291 C3290 1.400 . S
C3291 C3292 1.398 . S
C3291 C3297 1.491 . S
C3292 H3283 0.950 . S
C3292 C3291 1.398 . S
C3292 C3293 1.391 . S
C3293 H3281 0.950 . S
C3293 C3289 1.393 . S
C3293 C3292 1.391 . S
C3294 H3284 0.950 . S
C3294 C3295 1.386 . S
C3294 C3296 1.391 . S
C3295 C3294 1.386 . S
C3295 C3299 1.393 . S
C3296 H3285 0.950 . S
C3296 C3294 1.391 . S
C3296 C3297 1.400 . S
C3297 C3291 1.491 . S
C3297 C3296 1.400 . S
C3297 C3298 1.398 . S
C3298 H3286 0.950 . S
C3298 C3297 1.398 . S
C3298 C3299 1.391 . S
C3299 H3287 0.950 . S
C3299 C3295 1.393 . S
C3299 C3298 1.391 . S
H3300 C3308 0.950 . S
H3301 C3313 0.950 . S
H3302 C3310 0.950 . S
H3303 C3312 0.950 . S
H3304 C3314 0.950 . S
H3305 C3316 0.950 . S
H3306 C3318 0.950 . S
H3307 C3319 0.950 . S
C3308 H3300 0.950 . S
C3308 C3309 1.386 . S
C3308 C3310 1.391 . S
C3309 C3308 1.386 . S
C3309 C3313 1.393 . S
C3310 H3302 0.950 . S
C3310 C3308 1.391 . S
C3310 C3311 1.400 . S
C3311 C3310 1.400 . S
C3311 C3312 1.398 . S
C3311 C3317 1.491 . S
C3312 H3303 0.950 . S
C3312 C3311 1.398 . S
C3312 C3313 1.391 . S
C3313 H3301 0.950 . S
C3313 C3309 1.393 . S
C3313 C3312 1.391 . S
C3314 H3304 0.950 . S
C3314 C3315 1.386 . S
C3314 C3316 1.391 . S
C3315 C3314 1.386 . S
C3315 C3319 1.393 . S
C3316 H3305 0.950 . S
C3316 C3314 1.391 . S
C3316 C3317 1.400 . S
C3317 C3311 1.491 . S
C3317 C3316 1.400 . S
C3317 C3318 1.398 . S
C3318 H3306 0.950 . S
C3318 C3317 1.398 . S
C3318 C3319 1.391 . S
C3319 H3307 0.950 . S
C3319 C3315 1.393 . S
C3319 C3318 1.391 . S
H3320 C3328 0.950 . S
H3321 C3333 0.950 . S
H3322 C3330 0.950 . S
H3323 C3332 0.950 . S
H3324 C3334 0.950 1_455 S
H3325 C3336 0.950 . S
H3326 C3338 0.950 . S
H3327 C3339 0.942 1_554 S
C3328 H3320 0.950 . S
C3328 C3329 1.386 . S
C3328 C3330 1.391 . S
C3329 C3328 1.386 . S
C3329 C3333 1.393 . S
C3330 H3322 0.950 . S
C3330 C3328 1.391 . S
C3330 C3331 1.400 . S
C3331 C3330 1.400 . S
C3331 C3332 1.398 . S
C3331 C3337 1.491 . S
C3332 H3323 0.950 . S
C3332 C3331 1.398 . S
C3332 C3333 1.391 . S
C3333 H3321 0.950 . S
C3333 C3329 1.393 . S
C3333 C3332 1.391 . S
C3334 H3324 0.950 1_655 S
C3334 C3335 1.386 1_556 S
C3334 C3336 1.391 . S
C3335 C3334 1.386 1_554 S
C3335 C3339 1.393 1_554 S
C3336 H3325 0.950 . S
C3336 C3334 1.391 . S
C3336 C3337 1.400 . S
C3337 C3331 1.491 . S
C3337 C3336 1.400 . S
C3337 C3338 1.398 . S
C3338 H3326 0.950 . S
C3338 C3337 1.398 . S
C3338 C3339 1.398 . S
C3339 H3327 0.942 1_556 S
C3339 C3335 1.393 1_556 S
C3339 C3338 1.398 . S
H3340 C3348 0.950 . S
H3341 C3353 0.950 . S
H3342 C3350 0.950 . S
H3343 C3352 0.950 . S
H3344 C3354 0.950 . S
H3345 C3356 0.950 . S
H3346 C3358 0.950 . S
H3347 C3359 0.950 . S
C3348 H3340 0.950 . S
C3348 C3349 1.386 . S
C3348 C3350 1.391 . S
C3349 C3348 1.386 . S
C3349 C3353 1.393 . S
C3350 H3342 0.950 . S
C3350 C3348 1.391 . S
C3350 C3351 1.400 . S
C3351 C3350 1.400 . S
C3351 C3352 1.398 . S
C3351 C3357 1.491 . S
C3352 H3343 0.950 . S
C3352 C3351 1.398 . S
C3352 C3353 1.391 . S
C3353 H3341 0.950 . S
C3353 C3349 1.393 . S
C3353 C3352 1.391 . S
C3354 H3344 0.950 . S
C3354 C3355 1.386 . S
C3354 C3356 1.391 . S
C3355 C3354 1.386 . S
C3355 C3359 1.393 . S
C3356 H3345 0.950 . S
C3356 C3354 1.391 . S
C3356 C3357 1.400 . S
C3357 C3351 1.491 . S
C3357 C3356 1.400 . S
C3357 C3358 1.398 . S
C3358 H3346 0.950 . S
C3358 C3357 1.398 . S
C3358 C3359 1.391 . S
C3359 H3347 0.950 . S
C3359 C3355 1.393 . S
C3359 C3358 1.391 . S
H3360 C3368 0.950 . S
H3361 C3373 0.950 . S
H3362 C3370 0.950 . S
H3363 C3372 0.950 . S
H3364 C3374 0.950 . S
H3365 C3376 0.950 . S
H3366 C3378 0.950 . S
H3367 C3379 0.950 . S
C3368 H3360 0.950 . S
C3368 C3369 1.386 . S
C3368 C3370 1.391 . S
C3369 C3368 1.386 . S
C3369 C3373 1.393 . S
C3370 H3362 0.950 . S
C3370 C3368 1.391 . S
C3370 C3371 1.400 . S
C3371 C3370 1.400 . S
C3371 C3372 1.398 . S
C3371 C3377 1.491 . S
C3372 H3363 0.950 . S
C3372 C3371 1.398 . S
C3372 C3373 1.391 . S
C3373 H3361 0.950 . S
C3373 C3369 1.393 . S
C3373 C3372 1.391 . S
C3374 H3364 0.950 . S
C3374 C3375 1.386 . S
C3374 C3376 1.391 . S
C3375 C3374 1.386 . S
C3375 C3379 1.393 . S
C3376 H3365 0.950 . S
C3376 C3374 1.391 . S
C3376 C3377 1.400 . S
C3377 C3371 1.491 . S
C3377 C3376 1.400 . S
C3377 C3378 1.398 . S
C3378 H3366 0.950 . S
C3378 C3377 1.398 . S
C3378 C3379 1.391 . S
C3379 H3367 0.950 . S
C3379 C3375 1.393 . S
C3379 C3378 1.391 . S
H3380 C3388 0.950 . S
H3381 C3393 0.950 . S
H3382 C3390 0.950 . S
H3383 C3392 0.950 . S
H3384 C3394 0.950 . S
H3385 C3396 0.950 . S
H3386 C3398 0.950 . S
H3387 C3399 0.950 . S
C3388 H3380 0.950 . S
C3388 C3389 1.386 . S
C3388 C3390 1.391 . S
C3389 C3388 1.386 . S
C3389 C3393 1.393 . S
C3390 H3382 0.950 . S
C3390 C3388 1.391 . S
C3390 C3391 1.400 . S
C3391 C3390 1.400 . S
C3391 C3392 1.398 . S
C3391 C3397 1.491 . S
C3392 H3383 0.950 . S
C3392 C3391 1.398 . S
C3392 C3393 1.391 . S
C3393 H3381 0.950 . S
C3393 C3389 1.393 . S
C3393 C3392 1.391 . S
C3394 H3384 0.950 . S
C3394 C3395 1.386 . S
C3394 C3396 1.391 . S
C3395 C3394 1.386 . S
C3395 C3399 1.393 . S
C3396 H3385 0.950 . S
C3396 C3394 1.391 . S
C3396 C3397 1.400 . S
C3397 C3391 1.491 . S
C3397 C3396 1.400 . S
C3397 C3398 1.398 . S
C3398 H3386 0.950 . S
C3398 C3397 1.398 . S
C3398 C3399 1.391 . S
C3399 H3387 0.950 . S
C3399 C3395 1.393 . S
C3399 C3398 1.391 . S
H3400 C3408 0.950 . S
H3401 C3413 0.950 . S
H3402 C3410 0.950 . S
H3403 C3412 0.950 . S
H3404 C3414 0.950 . S
H3405 C3416 0.950 . S
H3406 C3418 0.950 . S
H3407 C3419 0.950 . S
C3408 H3400 0.950 . S
C3408 C3409 1.386 . S
C3408 C3410 1.391 . S
C3409 C3408 1.386 . S
C3409 C3413 1.393 . S
C3410 H3402 0.950 . S
C3410 C3408 1.391 . S
C3410 C3411 1.400 . S
C3411 C3410 1.400 . S
C3411 C3412 1.398 . S
C3411 C3417 1.491 . S
C3412 H3403 0.950 . S
C3412 C3411 1.398 . S
C3412 C3413 1.391 . S
C3413 H3401 0.950 . S
C3413 C3409 1.393 . S
C3413 C3412 1.391 . S
C3414 H3404 0.950 . S
C3414 C3415 1.386 . S
C3414 C3416 1.391 . S
C3415 C3414 1.386 . S
C3415 C3419 1.393 . S
C3416 H3405 0.950 . S
C3416 C3414 1.391 . S
C3416 C3417 1.400 . S
C3417 C3411 1.491 . S
C3417 C3416 1.400 . S
C3417 C3418 1.398 . S
C3418 H3406 0.950 . S
C3418 C3417 1.398 . S
C3418 C3419 1.391 . S
C3419 H3407 0.950 . S
C3419 C3415 1.393 . S
C3419 C3418 1.391 . S
H3420 C3428 0.950 . S
H3421 C3433 0.950 . S
H3422 C3430 0.950 . S
H3423 C3432 0.950 . S
H3424 C3434 0.950 . S
H3425 C3436 0.950 . S
H3426 C3438 0.950 . S
H3427 C3439 0.950 . S
C3428 H3420 0.950 . S
C3428 C3429 1.386 . S
C3428 C3430 1.391 . S
C3429 C3428 1.386 . S
C3429 C3433 1.393 . S
C3430 H3422 0.950 . S
C3430 C3428 1.391 . S
C3430 C3431 1.400 . S
C3431 C3430 1.400 . S
C3431 C3432 1.398 . S
C3431 C3437 1.491 . S
C3432 H3423 0.950 . S
C3432 C3431 1.398 . S
C3432 C3433 1.391 . S
C3433 H3421 0.950 . S
C3433 C3429 1.393 . S
C3433 C3432 1.391 . S
C3434 H3424 0.950 . S
C3434 C3435 1.386 . S
C3434 C3436 1.391 . S
C3435 C3434 1.386 . S
C3435 C3439 1.393 . S
C3436 H3425 0.950 . S
C3436 C3434 1.391 . S
C3436 C3437 1.400 . S
C3437 C3431 1.491 . S
C3437 C3436 1.400 . S
C3437 C3438 1.398 . S
C3438 H3426 0.950 . S
C3438 C3437 1.398 . S
C3438 C3439 1.391 . S
C3439 H3427 0.950 . S
C3439 C3435 1.393 . S
C3439 C3438 1.391 . S
H3440 C3448 0.950 . S
H3441 C3453 0.950 . S
H3442 C3450 0.950 . S
H3443 C3452 0.950 . S
H3444 C3454 0.950 . S
H3445 C3456 0.950 . S
H3446 C3458 0.950 . S
H3447 C3459 0.950 . S
C3448 H3440 0.950 . S
C3448 C3449 1.386 . S
C3448 C3450 1.391 . S
C3449 C3448 1.386 . S
C3449 C3453 1.393 . S
C3450 H3442 0.950 . S
C3450 C3448 1.391 . S
C3450 C3451 1.400 . S
C3451 C3450 1.400 . S
C3451 C3452 1.398 . S
C3451 C3457 1.491 . S
C3452 H3443 0.950 . S
C3452 C3451 1.398 . S
C3452 C3453 1.391 . S
C3453 H3441 0.950 . S
C3453 C3449 1.393 . S
C3453 C3452 1.391 . S
C3454 H3444 0.950 . S
C3454 C3455 1.386 . S
C3454 C3456 1.391 . S
C3455 C3454 1.386 . S
C3455 C3459 1.393 . S
C3456 H3445 0.950 . S
C3456 C3454 1.391 . S
C3456 C3457 1.400 . S
C3457 C3451 1.491 . S
C3457 C3456 1.400 . S
C3457 C3458 1.398 . S
C3458 H3446 0.950 . S
C3458 C3457 1.398 . S
C3458 C3459 1.391 . S
C3459 H3447 0.950 . S
C3459 C3455 1.393 . S
C3459 C3458 1.391 . S
H3460 C3468 0.950 . S
H3461 C3473 0.950 . S
H3462 C3470 0.950 . S
H3463 C3472 0.950 . S
H3464 C3474 0.950 1_545 S
H3465 C3476 0.950 . S
H3466 C3478 0.950 . S
H3467 C3479 0.950 . S
C3468 H3460 0.950 . S
C3468 C3469 1.386 . S
C3468 C3470 1.391 . S
C3469 C3468 1.386 . S
C3469 C3473 1.393 . S
C3470 H3462 0.950 . S
C3470 C3468 1.391 . S
C3470 C3471 1.400 . S
C3471 C3470 1.400 . S
C3471 C3472 1.398 . S
C3471 C3477 1.491 . S
C3472 H3463 0.950 . S
C3472 C3471 1.398 . S
C3472 C3473 1.391 . S
C3473 H3461 0.950 . S
C3473 C3469 1.393 . S
C3473 C3472 1.391 . S
C3474 H3464 0.950 1_565 S
C3474 C3475 1.386 . S
C3474 C3476 1.391 . S
C3475 C3474 1.386 . S
C3475 C3479 1.393 . S
C3476 H3465 0.950 . S
C3476 C3474 1.391 . S
C3476 C3477 1.400 . S
C3477 C3471 1.491 . S
C3477 C3476 1.400 . S
C3477 C3478 1.398 . S
C3478 H3466 0.950 . S
C3478 C3477 1.398 . S
C3478 C3479 1.391 . S
C3479 H3467 0.950 . S
C3479 C3475 1.393 . S
C3479 C3478 1.391 . S
H3480 C3488 0.950 . S
H3481 C3493 0.950 . S
H3482 C3490 0.950 . S
H3483 C3492 0.950 . S
H3484 C3494 0.950 . S
H3485 C3496 0.950 . S
H3486 C3498 0.950 . S
H3487 C3499 0.950 . S
C3488 H3480 0.950 . S
C3488 C3489 1.386 . S
C3488 C3490 1.391 . S
C3489 C3488 1.386 . S
C3489 C3493 1.393 . S
C3490 H3482 0.950 . S
C3490 C3488 1.391 . S
C3490 C3491 1.400 . S
C3491 C3490 1.400 . S
C3491 C3492 1.398 . S
C3491 C3497 1.491 . S
C3492 H3483 0.950 . S
C3492 C3491 1.398 . S
C3492 C3493 1.391 . S
C3493 H3481 0.950 . S
C3493 C3489 1.393 . S
C3493 C3492 1.391 . S
C3494 H3484 0.950 . S
C3494 C3495 1.386 . S
C3494 C3496 1.391 . S
C3495 C3494 1.386 . S
C3495 C3499 1.393 . S
C3496 H3485 0.950 . S
C3496 C3494 1.391 . S
C3496 C3497 1.400 . S
C3497 C3491 1.491 . S
C3497 C3496 1.400 . S
C3497 C3498 1.398 . S
C3498 H3486 0.950 . S
C3498 C3497 1.398 . S
C3498 C3499 1.391 . S
C3499 H3487 0.950 . S
C3499 C3495 1.393 . S
C3499 C3498 1.391 . S
H3500 C3508 0.950 . S
H3501 C3513 0.950 . S
H3502 C3510 0.950 . S
H3503 C3512 0.950 . S
H3504 C3514 0.950 . S
H3505 C3516 0.950 . S
H3506 C3518 0.950 . S
H3507 C3519 0.950 . S
C3508 H3500 0.950 . S
C3508 C3509 1.386 . S
C3508 C3510 1.391 . S
C3509 C3508 1.386 . S
C3509 C3513 1.393 . S
C3510 H3502 0.950 . S
C3510 C3508 1.391 . S
C3510 C3511 1.400 . S
C3511 C3510 1.400 . S
C3511 C3512 1.398 . S
C3511 C3517 1.491 . S
C3512 H3503 0.950 . S
C3512 C3511 1.398 . S
C3512 C3513 1.391 . S
C3513 H3501 0.950 . S
C3513 C3509 1.393 . S
C3513 C3512 1.391 . S
C3514 H3504 0.950 . S
C3514 C3515 1.386 . S
C3514 C3516 1.391 . S
C3515 C3514 1.386 . S
C3515 C3519 1.393 . S
C3516 H3505 0.950 . S
C3516 C3514 1.391 . S
C3516 C3517 1.400 . S
C3517 C3511 1.491 . S
C3517 C3516 1.400 . S
C3517 C3518 1.398 . S
C3518 H3506 0.950 . S
C3518 C3517 1.398 . S
C3518 C3519 1.391 . S
C3519 H3507 0.950 . S
C3519 C3515 1.393 . S
C3519 C3518 1.391 . S
H3520 C3528 0.950 . S
H3521 C3533 0.950 . S
H3522 C3530 0.950 . S
H3523 C3532 0.950 . S
H3524 C3534 0.950 . S
H3525 C3536 0.950 . S
H3526 C3538 0.950 . S
H3527 C3539 0.950 . S
C3528 H3520 0.950 . S
C3528 C3529 1.386 . S
C3528 C3530 1.391 . S
C3529 C3528 1.386 . S
C3529 C3533 1.393 . S
C3530 H3522 0.950 . S
C3530 C3528 1.391 . S
C3530 C3531 1.400 . S
C3531 C3530 1.400 . S
C3531 C3532 1.398 . S
C3531 C3537 1.491 . S
C3532 H3523 0.950 . S
C3532 C3531 1.398 . S
C3532 C3533 1.391 . S
C3533 H3521 0.950 . S
C3533 C3529 1.393 . S
C3533 C3532 1.391 . S
C3534 H3524 0.950 . S
C3534 C3535 1.386 . S
C3534 C3536 1.391 . S
C3535 C3534 1.386 . S
C3535 C3539 1.393 . S
C3536 H3525 0.950 . S
C3536 C3534 1.391 . S
C3536 C3537 1.400 . S
C3537 C3531 1.491 . S
C3537 C3536 1.400 . S
C3537 C3538 1.398 . S
C3538 H3526 0.950 . S
C3538 C3537 1.398 . S
C3538 C3539 1.391 . S
C3539 H3527 0.950 . S
C3539 C3535 1.393 . S
C3539 C3538 1.391 . S
H3540 C3548 0.950 . S
H3541 C3553 0.950 . S
H3542 C3550 0.950 . S
H3543 C3552 0.950 . S
H3544 C3554 0.950 . S
H3545 C3556 0.950 . S
H3546 C3558 0.950 . S
H3547 C3559 0.950 . S
C3548 H3540 0.950 . S
C3548 C3549 1.386 . S
C3548 C3550 1.391 . S
C3549 C3548 1.386 . S
C3549 C3553 1.393 . S
C3550 H3542 0.950 . S
C3550 C3548 1.391 . S
C3550 C3551 1.400 . S
C3551 C3550 1.400 . S
C3551 C3552 1.398 . S
C3551 C3557 1.491 . S
C3552 H3543 0.950 . S
C3552 C3551 1.398 . S
C3552 C3553 1.391 . S
C3553 H3541 0.950 . S
C3553 C3549 1.393 . S
C3553 C3552 1.391 . S
C3554 H3544 0.950 . S
C3554 C3555 1.386 . S
C3554 C3556 1.391 . S
C3555 C3554 1.386 . S
C3555 C3559 1.393 . S
C3556 H3545 0.950 . S
C3556 C3554 1.391 . S
C3556 C3557 1.400 . S
C3557 C3551 1.491 . S
C3557 C3556 1.400 . S
C3557 C3558 1.398 . S
C3558 H3546 0.950 . S
C3558 C3557 1.398 . S
C3558 C3559 1.391 . S
C3559 H3547 0.950 . S
C3559 C3555 1.393 . S
C3559 C3558 1.391 . S
H3560 C3568 0.950 . S
H3561 C3573 0.950 . S
H3562 C3570 0.950 . S
H3563 C3572 0.950 . S
H3564 C3574 0.950 . S
H3565 C3576 0.950 . S
H3566 C3578 0.950 . S
H3567 C3579 0.950 . S
C3568 H3560 0.950 . S
C3568 C3569 1.386 . S
C3568 C3570 1.391 . S
C3569 C3568 1.386 . S
C3569 C3573 1.393 . S
C3570 H3562 0.950 . S
C3570 C3568 1.391 . S
C3570 C3571 1.400 . S
C3571 C3570 1.400 . S
C3571 C3572 1.398 . S
C3571 C3577 1.491 . S
C3572 H3563 0.950 . S
C3572 C3571 1.398 . S
C3572 C3573 1.391 . S
C3573 H3561 0.950 . S
C3573 C3569 1.393 . S
C3573 C3572 1.391 . S
C3574 H3564 0.950 . S
C3574 C3575 1.386 . S
C3574 C3576 1.391 . S
C3575 C3574 1.386 . S
C3575 C3579 1.393 . S
C3576 H3565 0.950 . S
C3576 C3574 1.391 . S
C3576 C3577 1.400 . S
C3577 C3571 1.491 . S
C3577 C3576 1.400 . S
C3577 C3578 1.398 . S
C3578 H3566 0.950 . S
C3578 C3577 1.398 . S
C3578 C3579 1.391 . S
C3579 H3567 0.950 . S
C3579 C3575 1.393 . S
C3579 C3578 1.391 . S
H3580 C3588 0.950 . S
H3581 C3593 0.950 . S
H3582 C3590 0.950 . S
H3583 C3592 0.950 . S
H3584 C3594 0.950 . S
H3585 C3596 0.950 . S
H3586 C3598 0.950 . S
H3587 C3599 0.950 . S
C3588 H3580 0.950 . S
C3588 C3589 1.386 . S
C3588 C3590 1.391 . S
C3589 C3588 1.386 . S
C3589 C3593 1.393 . S
C3590 H3582 0.950 . S
C3590 C3588 1.391 . S
C3590 C3591 1.400 . S
C3591 C3590 1.400 . S
C3591 C3592 1.398 . S
C3591 C3597 1.491 . S
C3592 H3583 0.950 . S
C3592 C3591 1.398 . S
C3592 C3593 1.391 . S
C3593 H3581 0.950 . S
C3593 C3589 1.393 . S
C3593 C3592 1.391 . S
C3594 H3584 0.950 . S
C3594 C3595 1.386 . S
C3594 C3596 1.391 . S
C3595 C3594 1.386 . S
C3595 C3599 1.393 . S
C3596 H3585 0.950 . S
C3596 C3594 1.391 . S
C3596 C3597 1.400 . S
C3597 C3591 1.491 . S
C3597 C3596 1.400 . S
C3597 C3598 1.398 . S
C3598 H3586 0.950 . S
C3598 C3597 1.398 . S
C3598 C3599 1.391 . S
C3599 H3587 0.950 . S
C3599 C3595 1.393 . S
C3599 C3598 1.391 . S
C1689 C106 2.410 . S
C1695 C403 2.457 . S
C1709 C65 1.855 . S
C1715 C476 1.836 . S
C1729 C79 2.117 . S
C1735 C571 2.150 . S
C1755 C646 1.186 . S
C1749 C90 1.266 . S
C1769 C21 1.282 . S
C1775 C730 1.253 . S
C1795 C823 1.786 . S
C1789 C35 1.769 . S
C1815 C896 1.903 . S
C1809 C50 1.924 . S
C1829 C6 2.019 . S
C1835 C991 2.072 . S
C1855 C392 1.893 . S
C1849 C232 1.918 . S
C1869 C245 0.920 . S
C1875 C478 0.871 . S
C1895 C560 1.208 . S
C1889 C274 1.219 . S
C1915 C655 1.626 . S
C1909 C175 1.581 . S
C1929 C231 1.446 . S
C1935 C739 1.473 . S
C1955 C812 1.134 . S
C1949 C246 1.139 . S
C1975 C898 0.846 . S
C1969 C273 0.838 . S
C1995 C980 1.819 . S
C1989 C176 1.843 . S
C2015 C394 1.048 . S
C2009 C160 1.004 . S
C2029 C289 1.670 . S
C2035 C1064 1.647 . S
C2055 C1150 1.369 . S
C2049 C328 1.355 . S
C2075 C1243 0.980 . S
C2069 C317 0.982 . S
C2089 C118 1.015 . S
C2095 C982 1.013 . S
C2109 C132 1.374 . S
C2115 C562 1.348 . S
C2129 C331 1.747 . S
C2135 C1316 1.730 . S
C2155 C1411 1.049 . S
C2149 C303 1.035 . S
C2175 C391 2.085 . S
C2169 C63 2.078 . S
C2195 C1412 2.294 . S
C2189 C107 2.248 . S
C2209 C92 1.984 . S
C2215 C559 2.041 . S
C2229 C78 1.819 . S
C2235 C1330 1.652 . S
C2255 C742 1.657 . S
C2249 C8 1.821 . S
C2269 C51 1.994 . S
C2275 C1147 2.043 . S
C2295 C908 2.292 1_556 S
C2289 C37 2.250 . S
C2315 C1483 2.078 . S
C2309 C20 2.070 . S
C2335 C404 1.729 1_556 S
C2329 C147 1.740 . S
C2355 C1414 1.077 . S
C2349 C316 1.135 . S
C2369 C119 1.130 . S
C2375 C572 1.203 . S
C2389 C288 1.801 . S
C2395 C1315 1.809 . S
C2409 C148 1.792 . S
C2415 C727 1.813 . S
C2435 C1160 1.191 . S
C2429 C315 1.167 . S
C2449 C120 1.122 . S
C2455 C910 1.038 . S
C2469 C287 1.740 . S
C2475 C1496 1.728 . S
C2489 C188 0.902 . S
C2495 C406 0.879 . S
C2509 C177 1.983 . S
C2515 C1076 2.003 . S
C2529 C258 1.466 . S
C2535 C826 1.396 . S
C2549 C247 1.021 . S
C2555 C1231 1.028 . S
C2575 C1498 0.871 . S
C2569 C272 0.913 1_565 S
C2589 C216 1.255 . S
C2595 C574 1.206 . S
C2615 C656 1.994 . S
C2609 C261 1.989 . S
C2635 C475 1.028 . S
C2629 C205 1.032 . S
C2649 C76 2.026 . S
C2655 C1579 2.075 . S
C2675 C1400 1.911 . S
C2669 C93 1.923 . S
C2689 C105 1.768 . S
C2695 C1663 1.785 . S
C2709 C62 1.290 1_655 S
C2715 C1318 1.256 . S
C2729 C49 1.259 . S
C2735 C1066 1.219 . S
C2755 C1159 2.154 . S
C2749 C9 2.128 . S
C2775 C1232 1.832 . S
C2769 C22 1.856 . S
C2795 C1495 2.460 . S
C2789 C36 2.410 . S
C2815 C1568 1.801 . S
C2809 C260 1.829 . S
C2829 C189 0.853 1_556 S
C2835 C1402 0.811 . S
C2855 C1652 1.129 . S
C2849 C204 1.140 . S
C2875 C1327 1.470 . S
C2869 C217 1.434 . S
C2895 C1075 1.623 . S
C2889 C259 1.581 . S
C2909 C190 1.213 . S
C2915 C1148 1.203 . S
C2935 C1234 0.873 . S
C2929 C203 0.905 . S
C2949 C218 1.911 . S
C2955 C1484 1.884 . S
C2975 C1570 1.044 . S
C2969 C314 0.987 . S
C2989 C135 1.745 . S
C2995 C728 1.719 . S
C3015 C814 1.349 . S
C3009 C146 1.310 . S
C3035 C907 1.050 . S
C3029 C163 1.035 . S
C3055 C1486 1.044 . S
C3049 C300 1.006 . S
C3069 C286 1.321 . S
C3075 C1654 1.324 . S
C3095 C644 1.655 . S
C3089 C149 1.671 . S
C3115 C487 0.978 . S
C3109 C121 0.978 . S
C3129 C91 2.060 . S
C3135 C1567 2.072 . S
C3155 C488 1.921 . S
C3149 C77 1.808 . S
C3169 C64 1.971 . S
C3175 C1651 2.025 . S
C3189 C104 1.459 . S
C3195 C658 1.409 . S
C3209 C34 1.482 . S
C3215 C1078 1.400 . S
C3235 C811 2.031 . S
C3229 C23 1.980 . S
C3249 C7 1.806 . S
C3255 C1244 1.920 . S
C3269 C48 2.064 . S
C3275 C979 2.075 . S
C3295 C1580 1.715 . S
C3289 C329 1.715 . S
C3309 C162 1.161 . S
C3315 C490 1.086 . S
C3335 C1664 1.195 1_655 S
C3329 C301 1.127 . S
C3349 C134 1.812 . S
C3355 C643 1.827 . S
C3369 C330 1.813 . S
C3375 C1063 1.832 . S
C3395 C824 1.180 . S
C3389 C161 1.145 . S
C3409 C302 1.167 . S
C3415 C1246 1.106 . S
C3435 C992 1.705 . S
C3429 C133 1.726 . S
C3455 C1582 1.059 . S
C3449 C244 1.070 . S
C3475 C740 1.960 1_565 S
C3469 C219 1.928 . S
C3489 C230 1.248 . S
C3495 C1162 1.207 . S
C3515 C895 0.997 . S
C3509 C191 0.989 . S
C3529 C202 1.079 . S
C3535 C994 1.052 . S
C3549 C174 1.448 . S
C3555 C1666 1.383 . S
C3575 C1328 1.957 . S
C3569 C233 1.939 . S
C3595 C1399 1.003 . S
C3589 C275 0.993 . S
