# Generated by pormake.
# Topology pth, (4,4)-cn, num edge types: 1
# Building blocks:
#     Node 0, Type 0, BuildingBlock: UXUYUI_clean_sbu_0, # of connection points: 4
#     Node 1, Type 0, BuildingBlock: UXUYUI_clean_sbu_0, # of connection points: 4
#     Node 2, Type 0, BuildingBlock: UXUYUI_clean_sbu_0, # of connection points: 4
#     Node 3, Type 1, BuildingBlock: MUDLON_clean_sbu_0, # of connection points: 4
#     Node 4, Type 1, BuildingBlock: MUDLON_clean_sbu_0, # of connection points: 4
#     Node 5, Type 1, BuildingBlock: MUDLON_clean_sbu_0, # of connection points: 4
#     Edge 6, Type (0, 1), BuildingBlock: TEMPAE_clean_linker_10, # of connection points: 2
#     Edge 7, Type (0, 1), BuildingBlock: TEMPAE_clean_linker_10, # of connection points: 2
#     Edge 8, Type (0, 1), BuildingBlock: TEMPAE_clean_linker_10, # of connection points: 2
#     Edge 9, Type (0, 1), BuildingBlock: TEMPAE_clean_linker_10, # of connection points: 2
#     Edge 10, Type (0, 1), BuildingBlock: TEMPAE_clean_linker_10, # of connection points: 2
#     Edge 11, Type (0, 1), BuildingBlock: TEMPAE_clean_linker_10, # of connection points: 2
#     Edge 12, Type (0, 1), BuildingBlock: TEMPAE_clean_linker_10, # of connection points: 2
#     Edge 13, Type (0, 1), BuildingBlock: TEMPAE_clean_linker_10, # of connection points: 2
#     Edge 14, Type (0, 1), BuildingBlock: TEMPAE_clean_linker_10, # of connection points: 2
#     Edge 15, Type (0, 1), BuildingBlock: TEMPAE_clean_linker_10, # of connection points: 2
#     Edge 16, Type (0, 1), BuildingBlock: TEMPAE_clean_linker_10, # of connection points: 2
#     Edge 17, Type (0, 1), BuildingBlock: TEMPAE_clean_linker_10, # of connection points: 2
# Relax obj value: 0.110
# Max RMSD: 0.229
# Mean RMSD: 0.139
data_MOF--net-pth--node1-UXUYUI_clean_sbu_0--node2-MUDLON_clean_sbu_0--edge1-TEMPAE_clean_linker_10
_symmetry_space_group_name_H-M    P1
_symmetry_Int_Tables_number       1
_symmetry_cell_setting            triclinic
loop_
_symmetry_equiv_pos_as_xyz
'x, y, z'
_cell_length_a     28.090797
_cell_length_b     28.046108
_cell_length_c     74.166341
_cell_angle_alpha  90.072439
_cell_angle_beta   89.905014
_cell_angle_gamma 120.11341
loop_
_atom_site_label
_atom_site_type_symbol
_atom_site_fract_x
_atom_site_fract_y
_atom_site_fract_z
_atom_type_partial_charge
Li0 Li 0.06276 0.04943 0.09452 0.0
Li1 Li 0.99721 0.05075 0.11637 0.0
Li2 Li 0.02387 0.97669 0.11785 0.0
Li3 Li 0.96144 0.9759 0.09427 0.0
C4 C 0.12485 0.09157 0.12541 0.0
N5 N 0.23487 0.15934 0.13361 0.0
C6 C 0.1443 0.14604 0.13081 0.0
C7 C 0.16122 0.07133 0.12453 0.0
C8 C 0.2001 0.17974 0.13479 0.0
C9 C 0.21671 0.10626 0.12864 0.0
C10 C 0.98091 0.09461 0.08624 0.0
C11 C 0.91056 0.11989 0.08517 0.0
N12 N 0.94899 0.17172 0.08002 0.0
C13 C 0.01957 0.14793 0.08072 0.0
C14 C 0.92585 0.08029 0.08828 0.0
C15 C 1.00268 0.18639 0.07773 0.0
C16 C 0.13847 0.07205 0.06569 0.0
N17 N 0.12587 0.09477 0.07981 0.0
C18 C 0.20028 0.18429 0.07221 0.0
C19 C 0.15585 0.14976 0.08324 0.0
C20 C 0.21418 0.16205 0.0575 0.0
C21 C 0.183 0.10501 0.05441 0.0
H22 H 0.11331 0.02848 0.06295 0.0
H23 H 0.14443 0.16714 0.09428 0.0
C24 C 0.94125 0.07699 0.14327 0.0
N25 N 0.98122 0.09853 0.13042 0.0
C26 C 0.9308 0.11164 0.15408 0.0
C27 C 1.00295 0.19 0.13831 0.0
C28 C 0.01173 0.15387 0.12774 0.0
C29 C 0.96231 0.16904 0.1518 0.0
H30 H 0.91817 0.03294 0.14538 0.0
H31 H 0.04358 0.17011 0.11757 0.0
C32 C 0.04589 0.93182 0.08768 0.0
N33 N 0.08219 0.85848 0.08062 0.0
C34 C 0.00879 0.87812 0.08205 0.0
C35 C 0.10164 0.94847 0.08938 0.0
C36 C 0.02787 0.84157 0.07864 0.0
C37 C 0.11915 0.91074 0.08585 0.0
C38 C 0.89639 0.93047 0.12376 0.0
C39 C 0.88331 0.87798 0.12967 0.0
C40 C 0.85422 0.94226 0.12084 0.0
C41 C 0.82818 0.83779 0.13219 0.0
C42 C 0.79959 0.90098 0.1235 0.0
N43 N 0.78779 0.84999 0.12905 0.0
C44 C 0.06879 0.95577 0.14903 0.0
C45 C 0.01837 0.87751 0.13042 0.0
C46 C 0.07899 0.92442 0.16142 0.0
N47 N 0.03908 0.93207 0.13385 0.0
C48 C 0.02711 0.84452 0.14252 0.0
C49 C 0.05757 0.86787 0.15833 0.0
H50 H 0.08377 0.99889 0.15171 0.0
H51 H 0.99367 0.85913 0.11855 0.0
C52 C 0.88913 0.95301 0.06473 0.0
N53 N 0.90042 0.9296 0.07891 0.0
C54 C 0.84669 0.92046 0.05274 0.0
C55 C 0.8283 0.84013 0.07007 0.0
C56 C 0.87084 0.87427 0.08179 0.0
C57 C 0.816 0.86311 0.05522 0.0
H58 H 0.91385 0.99689 0.06247 0.0
H59 H 0.88101 0.85635 0.09295 0.0
O60 O 0.07037 0.05809 0.12129 0.0
O61 O 0.99681 0.05656 0.08947 0.0
O62 O 0.02781 0.96807 0.09117 0.0
O63 O 0.95018 0.97024 0.12108 0.0
H64 H 0.11675 0.16229 0.13182 0.0
H65 H 0.14668 0.02892 0.12094 0.0
H66 H 0.21574 0.22209 0.13884 0.0
H67 H 0.24529 0.0911 0.12796 0.0
H68 H 0.8681 0.10936 0.08679 0.0
H69 H 0.06219 0.15964 0.07884 0.0
H70 H 0.89519 0.03896 0.09213 0.0
H71 H 0.03227 0.2279 0.07358 0.0
H72 H 0.22335 0.22804 0.0751 0.0
H73 H 0.19184 0.08637 0.04305 0.0
H74 H 0.89957 0.0938 0.16448 0.0
H75 H 0.0279 0.23395 0.13601 0.0
H76 H 0.96567 0.86463 0.08041 0.0
H77 H 0.13124 0.99025 0.09316 0.0
H78 H 0.99949 0.79978 0.07441 0.0
H79 H 0.16217 0.9231 0.08717 0.0
H80 H 0.9153 0.86822 0.13222 0.0
H81 H 0.86353 0.98291 0.11667 0.0
H82 H 0.8175 0.79689 0.13665 0.0
H83 H 0.76658 0.90952 0.1212 0.0
H84 H 0.10186 0.94387 0.17359 0.0
H85 H 0.00985 0.80107 0.13962 0.0
H86 H 0.83921 0.93979 0.0413 0.0
H87 H 0.80553 0.79613 0.07253 0.0
Li88 Li 0.99217 0.95832 0.42927 0.0
Li89 Li 0.05417 0.02146 0.45361 0.0
Li90 Li 0.95623 0.99328 0.45131 0.0
Li91 Li 0.01691 0.05559 0.42905 0.0
C92 C 0.98235 0.89527 0.45645 0.0
N93 N 0.97006 0.79121 0.45602 0.0
C94 C 0.02798 0.88869 0.45903 0.0
C95 C 0.93042 0.84899 0.45376 0.0
C96 C 0.02091 0.8357 0.45875 0.0
C97 C 0.92508 0.79671 0.45355 0.0
C98 C 0.10097 0.05427 0.41352 0.0
C99 C 0.17705 0.13962 0.40264 0.0
N100 N 0.16642 0.11914 0.38556 0.0
C101 C 0.09078 0.03402 0.39587 0.0
C102 C 0.14445 0.10744 0.41696 0.0
C103 C 0.12439 0.06747 0.38192 0.0
C104 C 0.93247 0.86965 0.40469 0.0
N105 N 0.98025 0.89824 0.41406 0.0
C106 C 0.01575 0.84487 0.40066 0.0
C107 C 0.02155 0.88665 0.41229 0.0
C108 C 0.96703 0.81485 0.39066 0.0
C109 C 0.92485 0.82741 0.39292 0.0
H110 H 0.90063 0.88024 0.40609 0.0
H111 H 0.05932 0.9104 0.41979 0.0
C112 C 0.10069 0.0234 0.48723 0.0
N113 N 0.11328 0.03633 0.46955 0.0
C114 C 0.14139 0.03018 0.49946 0.0
C115 C 0.20746 0.06361 0.47509 0.0
C116 C 0.1654 0.05613 0.46331 0.0
C117 C 0.1956 0.0501 0.49343 0.0
H118 H 0.05869 0.0067 0.49176 0.0
H119 H 0.17411 0.06488 0.44912 0.0
C120 C 0.89203 0.9799 0.42331 0.0
N121 N 0.7855 0.96001 0.42059 0.0
C122 C 0.88225 0.0219 0.41782 0.0
C123 C 0.84763 0.92771 0.42732 0.0
C124 C 0.82808 0.01101 0.41654 0.0
C125 C 0.79408 0.91852 0.4259 0.0
C126 C 0.99916 0.09287 0.46614 0.0
C127 C 0.97713 0.12353 0.45881 0.0
C128 C 0.99749 0.08489 0.48477 0.0
C129 C 0.95349 0.14551 0.47028 0.0
C130 C 0.9733 0.10735 0.49578 0.0
N131 N 0.95199 0.13695 0.48837 0.0
C132 C 0.88368 0.93789 0.48025 0.0
C133 C 0.86379 1.00043 0.46532 0.0
C134 C 0.84213 0.9257 0.49289 0.0
N135 N 0.89403 0.97499 0.46687 0.0
C136 C 0.82195 0.98955 0.47767 0.0
C137 C 0.81104 0.95221 0.49183 0.0
H138 H 0.90867 0.91873 0.48142 0.0
H139 H 0.87282 0.03018 0.45476 0.0
C140 C 0.01783 0.10136 0.39557 0.0
N141 N 0.03487 0.11535 0.41289 0.0
C142 C 0.02907 0.14206 0.38276 0.0
C143 C 0.07558 0.21118 0.4058 0.0
C144 C 0.06387 0.169 0.41817 0.0
C145 C 0.05792 0.19784 0.38783 0.0
H146 H 0.99508 0.05834 0.39174 0.0
H147 H 0.07764 0.17898 0.43198 0.0
O148 O 0.98859 0.94684 0.45619 0.0
O149 O 0.06748 0.02283 0.42727 0.0
O150 O 0.94476 0.98969 0.42455 0.0
O151 O 0.0218 0.07039 0.4551 0.0
H152 H 0.06852 0.92411 0.46101 0.0
H153 H 0.89472 0.85347 0.45173 0.0
H154 H 0.0559 0.82996 0.46063 0.0
H155 H 0.88519 0.76053 0.45139 0.0
H156 H 0.2106 0.18099 0.40508 0.0
H157 H 0.05692 0.99319 0.39295 0.0
H158 H 0.15226 0.12407 0.43051 0.0
H159 H 0.11688 0.05244 0.36819 0.0
H160 H 0.0491 0.83618 0.39951 0.0
H161 H 0.88693 0.80583 0.38531 0.0
H162 H 0.1304 0.01953 0.51348 0.0
H163 H 0.24839 0.0781 0.46978 0.0
H164 H 0.91607 0.06261 0.41476 0.0
H165 H 0.85446 0.89485 0.43168 0.0
H166 H 0.81991 0.04318 0.41239 0.0
H167 H 0.75935 0.87844 0.42907 0.0
H168 H 0.97733 0.12947 0.4444 0.0
H169 H 0.01414 0.06111 0.49066 0.0
H170 H 0.93597 0.16902 0.46479 0.0
H171 H 0.97136 0.10116 0.51022 0.0
H172 H 0.83572 0.89723 0.50373 0.0
H173 H 0.79873 0.01061 0.47623 0.0
H174 H 0.01403 0.12988 0.36913 0.0
H175 H 0.09824 0.25371 0.41022 0.0
Li176 Li 0.0425 0.98731 0.76325 0.0
Li177 Li 0.04352 0.0499 0.78677 0.0
Li178 Li 0.97162 0.94844 0.78637 0.0
Li179 Li 0.96845 0.01292 0.7641 0.0
C180 C 0.09364 0.97177 0.79071 0.0
N181 N 0.17691 0.94667 0.79197 0.0
C182 C 0.14746 0.01283 0.7947 0.0
C183 C 0.08201 0.91784 0.78759 0.0
C184 C 0.18903 0.99934 0.79523 0.0
C185 C 0.12472 0.90601 0.78821 0.0
C186 C 0.07722 0.11568 0.75584 0.0
C187 C 0.0808 0.20305 0.75294 0.0
N188 N 0.13367 0.22631 0.74703 0.0
C189 C 0.13136 0.14027 0.74954 0.0
C190 C 0.05151 0.14714 0.7574 0.0
C191 C 0.1593 0.19633 0.74523 0.0
C192 C 0.06068 0.93178 0.73464 0.0
N193 N 0.08674 0.97247 0.74707 0.0
C194 C 0.17447 0.99417 0.73507 0.0
C195 C 0.14256 1.00357 0.74749 0.0
C196 C 0.14867 0.95277 0.72191 0.0
C197 C 0.09091 0.92113 0.72192 0.0
H198 H 0.01626 0.90833 0.73432 0.0
H199 H 0.16236 0.03622 0.75732 0.0
C200 C 0.06405 0.11087 0.81872 0.0
N201 N 0.08717 0.11016 0.80267 0.0
C202 C 0.09385 0.15218 0.83137 0.0
C203 C 0.1714 0.19092 0.81096 0.0
C204 C 0.13987 0.14903 0.79862 0.0
C205 C 0.14843 0.19275 0.82763 0.0
H206 H 0.02265 0.07868 0.82186 0.0
H207 H 0.15793 0.14687 0.786 0.0
C208 C 0.91929 0.88739 0.75697 0.0
N209 N 0.8329 0.78144 0.75175 0.0
C210 C 0.86769 0.87859 0.75176 0.0
C211 C 0.92712 0.84236 0.75934 0.0
C212 C 0.8245 0.82469 0.74922 0.0
C213 C 0.88287 0.7891 0.7567 0.0
C214 C 0.92856 0.03115 0.79724 0.0
C215 C 0.87669 0.99326 0.80406 0.0
C216 C 0.94564 0.08732 0.79724 0.0
C217 C 0.84238 0.01218 0.81053 0.0
C218 C 0.91014 0.1046 0.80383 0.0
N219 N 0.85965 0.06699 0.81026 0.0
C220 C 0.95607 0.87867 0.81576 0.0
C221 C 0.8739 0.85379 0.79975 0.0
C222 C 0.92719 0.83639 0.82822 0.0
N223 N 0.92919 0.88668 0.8019 0.0
C224 C 0.84354 0.81048 0.81173 0.0
C225 C 0.87015 0.80176 0.82629 0.0
H226 H 0.99989 0.90585 0.81735 0.0
H227 H 0.85304 0.86188 0.78901 0.0
C228 C 0.9407 0.04362 0.73169 0.0
N229 N 0.92302 0.02898 0.74895 0.0
C230 C 0.90888 0.05296 0.71927 0.0
C231 C 0.84161 0.03309 0.7427 0.0
C232 C 0.87449 0.02364 0.75462 0.0
C233 C 0.8584 0.04735 0.72471 0.0
H234 H 0.97924 0.04715 0.72749 0.0
H235 H 0.86032 0.01055 0.7682 0.0
O236 O 0.05253 0.98431 0.78991 0.0
O237 O 0.04931 0.06084 0.76011 0.0
O238 O 0.96201 0.93985 0.75956 0.0
O239 O 0.96265 0.01326 0.79087 0.0
H240 H 0.15709 0.05473 0.79722 0.0
H241 H 0.04047 0.88553 0.78466 0.0
H242 H 0.23094 0.03075 0.79819 0.0
H243 H 0.11638 0.8645 0.78572 0.0
H244 H 0.06144 0.22792 0.75413 0.0
H245 H 0.15172 0.11641 0.7481 0.0
H246 H 0.00928 0.12855 0.76185 0.0
H247 H 0.20135 0.21599 0.74046 0.0
H248 H 0.21886 0.01929 0.73572 0.0
H249 H 0.06911 0.88953 0.71186 0.0
H250 H 0.0749 0.15133 0.84419 0.0
H251 H 0.21338 0.22135 0.80755 0.0
H252 H 0.86095 0.91294 0.74978 0.0
H253 H 0.96688 0.84848 0.76323 0.0
H254 H 0.78428 0.81725 0.74527 0.0
H255 H 0.88826 0.75386 0.75859 0.0
H256 H 0.86295 0.9497 0.80427 0.0
H257 H 0.98606 0.11733 0.79238 0.0
H258 H 0.80201 0.98329 0.81576 0.0
H259 H 0.92281 0.14794 0.80388 0.0
H260 H 0.94913 0.831 0.83929 0.0
H261 H 0.79943 0.7853 0.81 0.0
H262 H 0.92337 0.06399 0.70553 0.0
H263 H 0.80247 0.02728 0.74735 0.0
Mg264 Mg 0.0053 0.50748 0.27125 0.0
C265 C 0.01363 0.42782 0.29368 0.0
O266 O 0.96171 0.40576 0.28898 0.0
C267 C 0.05746 0.62419 0.25751 0.0
O268 O 0.03767 0.62951 0.27296 0.0
C269 C 0.95553 0.44569 0.23618 0.0
O270 O 0.97817 0.49608 0.22978 0.0
O271 O 0.95581 0.43883 0.25313 0.0
O272 O 0.04766 0.47559 0.28766 0.0
O273 O 0.96056 0.53198 0.2898 0.0
C274 C 0.97507 0.53898 0.3063 0.0
O275 O 0.01148 0.52572 0.31161 0.0
O276 O 0.05502 0.57858 0.25398 0.0
Mg277 Mg 0.49699 0.98518 0.60728 0.0
C278 C 0.47027 0.02271 0.57288 0.0
O279 O 0.48404 0.98724 0.56684 0.0
C280 C 0.55979 1.00296 0.64067 0.0
O281 O 0.51539 0.95449 0.64272 0.0
C282 C 0.37938 0.93699 0.6209 0.0
O283 O 0.37394 0.95714 0.60557 0.0
O284 O 0.42432 0.93794 0.62412 0.0
O285 O 0.47619 0.03454 0.58961 0.0
O286 O 0.52182 0.93837 0.58986 0.0
C287 C 0.56597 0.93753 0.59292 0.0
O288 O 0.59203 0.95793 0.60817 0.0
O289 O 0.56436 0.03018 0.62639 0.0
Mg290 Mg 0.50165 0.50563 0.94067 0.0
C291 C 0.38391 0.43474 0.92855 0.0
O292 O 0.38254 0.40851 0.94338 0.0
C293 C 0.56653 0.61991 0.9566 0.0
O294 O 0.58833 0.62941 0.9404 0.0
C295 C 0.49626 0.43618 0.97265 0.0
O296 O 0.52649 0.48527 0.97982 0.0
O297 O 0.48572 0.4326 0.95587 0.0
O298 O 0.42692 0.4806 0.9251 0.0
O299 O 0.56513 0.5355 0.92003 0.0
C300 C 0.61244 0.53996 0.91993 0.0
O301 O 0.62765 0.52065 0.93351 0.0
O302 O 0.52561 0.57253 0.96006 0.0
C303 C 1.00052 0.253 0.17137 0.0
C304 C 0.9546 0.207 0.1639 0.0
C305 C 0.99439 0.28898 0.18304 0.0
C306 C 0.94099 0.2791 0.18727 0.0
C307 C 0.89439 0.2329 0.1797 0.0
C308 C 0.90174 0.19719 0.16818 0.0
C309 C 0.04519 0.3374 0.19096 0.0
C310 C 0.83687 0.22134 0.18372 0.0
C311 C 0.93436 0.34893 0.23035 0.0
C312 C 0.94118 0.39887 0.22373 0.0
C313 C 0.93136 0.30821 0.21858 0.0
C314 C 0.93459 0.31732 0.19972 0.0
C315 C 0.93745 0.36587 0.19294 0.0
C316 C 0.94099 0.40618 0.20502 0.0
C317 C 0.92847 0.25712 0.22638 0.0
C318 C 0.94006 0.37679 0.17293 0.0
H319 H 0.04142 0.26034 0.16834 0.0
H320 H 0.86612 0.16192 0.16232 0.0
H321 H 0.04702 0.37648 0.18707 0.0
H322 H 0.04336 0.33501 0.2059 0.0
H323 H 0.0837 0.33907 0.18641 0.0
H324 H 0.80499 0.18399 0.17664 0.0
H325 H 0.82888 0.21563 0.19844 0.0
H326 H 0.83265 0.25708 0.17963 0.0
H327 H 0.93442 0.34278 0.24477 0.0
H328 H 0.9458 0.44441 0.19977 0.0
H329 H 0.96805 0.25835 0.22394 0.0
H330 H 0.89572 0.21963 0.21966 0.0
H331 H 0.9204 0.25346 0.24113 0.0
H332 H 0.98038 0.38496 0.16758 0.0
H333 H 0.93516 0.4128 0.16979 0.0
H334 H 0.90762 0.34014 0.16576 0.0
C335 C 0.76665 0.98805 0.51299 0.0
C336 C 0.7695 0.94313 0.50592 0.0
C337 C 0.72947 0.98089 0.52681 0.0
C338 C 0.69411 0.92747 0.53379 0.0
C339 C 0.69608 0.88177 0.52654 0.0
C340 C 0.73386 0.89015 0.51272 0.0
C341 C 0.72894 0.03082 0.53423 0.0
C342 C 0.65885 0.82418 0.53355 0.0
C343 C 0.64462 0.92823 0.58136 0.0
C344 C 0.59369 0.92469 0.5782 0.0
C345 C 0.67645 0.92623 0.56709 0.0
C346 C 0.65688 0.92037 0.54918 0.0
C347 C 0.60394 0.91311 0.54599 0.0
C348 C 0.57294 0.91534 0.56054 0.0
C349 C 0.73253 0.9338 0.5711 0.0
C350 C 0.58138 0.90628 0.52712 0.0
H351 H 0.79461 0.02921 0.50804 0.0
H352 H 0.73542 0.85518 0.50719 0.0
H353 H 0.68689 0.0249 0.53332 0.0
H354 H 0.74052 0.03618 0.5487 0.0
H355 H 0.7578 0.06924 0.52693 0.0
H356 H 0.66371 0.79275 0.52593 0.0
H357 H 0.66799 0.82187 0.54796 0.0
H358 H 0.61524 0.81374 0.53274 0.0
H359 H 0.66089 0.93504 0.59495 0.0
H360 H 0.53357 0.91235 0.55794 0.0
H361 H 0.76483 0.97422 0.56579 0.0
H362 H 0.7377 0.90146 0.56428 0.0
H363 H 0.73944 0.9324 0.58579 0.0
H364 H 0.60503 0.94566 0.51966 0.0
H365 H 0.53724 0.89444 0.52708 0.0
H366 H 0.58608 0.87454 0.51968 0.0
C367 C 0.79891 0.70519 0.83464 0.0
C368 C 0.83789 0.75884 0.83996 0.0
C369 C 0.7652 0.66549 0.84741 0.0
C370 C 0.76983 0.6802 0.86587 0.0
C371 C 0.81031 0.7339 0.87134 0.0
C372 C 0.84414 0.77242 0.85833 0.0
C373 C 0.72327 0.60842 0.84106 0.0
C374 C 0.81594 0.75162 0.89083 0.0
C375 C 0.6412 0.60768 0.89471 0.0
C376 C 0.65191 0.57302 0.90549 0.0
C377 C 0.67908 0.64229 0.88174 0.0
C378 C 0.72868 0.64168 0.87916 0.0
C379 C 0.73926 0.60576 0.88963 0.0
C380 C 0.70095 0.5722 0.90283 0.0
C381 C 0.6665 0.68057 0.87109 0.0
C382 C 0.79123 0.60323 0.88701 0.0
H383 H 0.79443 0.69447 0.82045 0.0
H384 H 0.87394 0.81402 0.86245 0.0
H385 H 0.72551 0.57675 0.84938 0.0
H386 H 0.68127 0.60222 0.84268 0.0
H387 H 0.72925 0.6016 0.82668 0.0
H388 H 0.85197 0.79339 0.89305 0.0
H389 H 0.77824 0.75191 0.89514 0.0
H390 H 0.82013 0.72196 0.8996 0.0
H391 H 0.60365 0.609 0.89673 0.0
H392 H 0.70942 0.54541 0.91106 0.0
H393 H 0.66659 0.67256 0.85645 0.0
H394 H 0.69889 0.72399 0.87353 0.0
H395 H 0.62599 0.67592 0.87471 0.0
H396 H 0.79559 0.59498 0.87264 0.0
H397 H 0.79181 0.57081 0.89544 0.0
H398 H 0.82755 0.64357 0.89051 0.0
C399 C 0.01909 0.78247 0.1772 0.0
C400 C 0.06442 0.83294 0.17197 0.0
C401 C 0.02382 0.7503 0.19078 0.0
C402 C 0.07529 0.7687 0.19927 0.0
C403 C 0.12161 0.81891 0.19373 0.0
C404 C 0.11553 0.85064 0.18023 0.0
C405 C 0.97323 0.69734 0.19641 0.0
C406 C 0.17731 0.83954 0.20227 0.0
C407 C 0.06523 0.712 0.24644 0.0
C408 C 0.07146 0.66611 0.24316 0.0
C409 C 0.06878 0.74712 0.23239 0.0
C410 C 0.07943 0.73657 0.2146 0.0
C411 C 0.08926 0.69244 0.21136 0.0
C412 C 0.08494 0.65758 0.22567 0.0
C413 C 0.0579 0.7936 0.23644 0.0
C414 C 0.10155 0.68033 0.19264 0.0
H415 H 0.97935 0.76891 0.17103 0.0
H416 H 0.15082 0.88936 0.17611 0.0
H417 H 0.98099 0.66237 0.19532 0.0
H418 H 0.96351 0.70022 0.21074 0.0
H419 H 0.93669 0.68797 0.18809 0.0
H420 H 0.20991 0.87741 0.19562 0.0
H421 H 0.17557 0.8487 0.21673 0.0
H422 H 0.18902 0.80723 0.2016 0.0
H423 H 0.05504 0.7192 0.25989 0.0
H424 H 0.09004 0.6224 0.22299 0.0
H425 H 0.01898 0.7852 0.22986 0.0
H426 H 0.09128 0.83295 0.23086 0.0
H427 H 0.05441 0.79892 0.25114 0.0
H428 H 0.06417 0.66469 0.18415 0.0
H429 H 0.11477 0.64906 0.19272 0.0
H430 H 0.13425 0.71853 0.18621 0.0
C431 C 0.22638 0.01165 0.5184 0.0
C432 C 0.23879 0.05405 0.50599 0.0
C433 C 0.26706 0.01298 0.5297 0.0
C434 C 0.32168 0.05785 0.52861 0.0
C435 C 0.33425 0.10155 0.51647 0.0
C436 C 0.29271 0.09905 0.50526 0.0
C437 C 0.25192 0.96532 0.54237 0.0
C438 C 0.39184 0.15028 0.51502 0.0
C439 C 0.41386 0.0684 0.56783 0.0
C440 C 0.43923 0.04 0.56095 0.0
C441 C 0.37748 0.07709 0.55717 0.0
C442 C 0.366 0.05659 0.53928 0.0
C443 C 0.3937 0.03047 0.532 0.0
C444 C 0.43008 0.02275 0.54288 0.0
C445 C 0.34928 0.10575 0.56534 0.0
C446 C 0.38265 0.00788 0.51301 0.0
H447 H 0.18508 0.97636 0.5189 0.0
H448 H 0.30247 0.13232 0.49588 0.0
H449 H 0.27436 0.94371 0.53846 0.0
H450 H 0.2644 0.98061 0.55635 0.0
H451 H 0.20708 0.93504 0.54228 0.0
H452 H 0.394 0.18282 0.50596 0.0
H453 H 0.40721 0.16846 0.52854 0.0
H454 H 0.41998 0.13653 0.50975 0.0
H455 H 0.4207 0.08197 0.58175 0.0
H456 H 0.44968 1.00106 0.53736 0.0
H457 H 0.30503 0.07546 0.56744 0.0
H458 H 0.35174 0.13793 0.55607 0.0
H459 H 0.36753 0.12515 0.57852 0.0
H460 H 0.33949 0.97356 0.51197 0.0
H461 H 0.41043 0.99225 0.50895 0.0
H462 H 0.38767 0.04014 0.50331 0.0
C463 C 0.15937 0.26138 0.85143 0.0
C464 C 0.18183 0.23477 0.84147 0.0
C465 C 0.18929 0.29833 0.86538 0.0
C466 C 0.24272 0.30845 0.86959 0.0
C467 C 0.26606 0.28266 0.8593 0.0
C468 C 0.23544 0.24635 0.84533 0.0
C469 C 0.16328 0.32555 0.87587 0.0
C470 C 0.32273 0.29195 0.86343 0.0
C471 C 0.34565 0.43062 0.89761 0.0
C472 C 0.34177 0.40563 0.91436 0.0
C473 C 0.31168 0.40019 0.88311 0.0
C474 C 0.27329 0.34337 0.88538 0.0
C475 C 0.26715 0.31874 0.90252 0.0
C476 C 0.30118 0.35021 0.9168 0.0
C477 C 0.31882 0.42819 0.86514 0.0
C478 C 0.22681 0.25827 0.90552 0.0
H479 H 0.11817 0.25305 0.84837 0.0
H480 H 0.2528 0.22547 0.83783 0.0
H481 H 0.15645 0.31091 0.89003 0.0
H482 H 0.19126 0.37087 0.87618 0.0
H483 H 0.12321 0.31661 0.87005 0.0
H484 H 0.33579 0.27051 0.85373 0.0
H485 H 0.3534 0.33665 0.86315 0.0
H486 H 0.32323 0.27684 0.87721 0.0
H487 H 0.37666 0.47346 0.8956 0.0
H488 H 0.29764 0.33045 0.92968 0.0
H489 H 0.27829 0.41854 0.85959 0.0
H490 H 0.33775 0.41253 0.85539 0.0
H491 H 0.34546 0.47367 0.86613 0.0
H492 H 0.18517 0.24781 0.90088 0.0
H493 H 0.22423 0.24632 0.91992 0.0
H494 H 0.23955 0.23315 0.89748 0.0
C495 C 0.8111 0.02577 0.69477 0.0
C496 C 0.82163 0.05264 0.71147 0.0
C497 C 0.77203 0.02521 0.68286 0.0
C498 C 0.7431 0.05265 0.6877 0.0
C499 C 0.75567 0.08232 0.70413 0.0
C500 C 0.79448 0.08159 0.71589 0.0
C501 C 0.75946 0.99252 0.66559 0.0
C502 C 0.7264 0.11281 0.70964 0.0
C503 C 0.65775 0.06686 0.65039 0.0
C504 C 0.60582 0.02063 0.65365 0.0
C505 C 0.70264 0.07934 0.66177 0.0
C506 C 0.69538 0.0445 0.67661 0.0
C507 C 0.64256 0.99912 0.68031 0.0
C508 C 0.59854 0.98798 0.66888 0.0
C509 C 0.75819 0.12857 0.65755 0.0
C510 C 0.6329 0.96076 0.69595 0.0
H511 H 0.83158 1.0029 0.69135 0.0
H512 H 0.80302 0.10302 0.7287 0.0
H513 H 0.7172 0.95636 0.66627 0.0
H514 H 0.76084 0.01793 0.65394 0.0
H515 H 0.78873 0.97751 0.66307 0.0
H516 H 0.74584 0.13965 0.72156 0.0
H517 H 0.72607 0.13854 0.69834 0.0
H518 H 0.68293 0.08275 0.71301 0.0
H519 H 0.66373 0.09237 0.63868 0.0
H520 H 0.55854 0.95239 0.67163 0.0
H521 H 0.78669 0.11438 0.65303 0.0
H522 H 0.77624 0.15397 0.66983 0.0
H523 H 0.75579 0.15488 0.64682 0.0
H524 H 0.65739 0.94005 0.694 0.0
H525 H 0.5889 0.9286 0.6974 0.0
H526 H 0.6468 0.98442 0.70872 0.0
C527 C 0.77155 0.7792 0.03555 0.0
C528 C 0.77346 0.82728 0.04187 0.0
C529 C 0.7339 0.74647 0.02219 0.0
C530 C 0.69684 0.76189 0.01502 0.0
C531 C 0.69756 0.80961 0.02167 0.0
C532 C 0.73608 0.84192 0.03494 0.0
C533 C 0.73491 0.69622 0.01536 0.0
C534 C 0.6583 0.82703 0.01453 0.0
C535 C 0.64571 0.70832 0.96782 0.0
C536 C 0.59543 0.6602 0.97132 0.0
C537 C 0.67808 0.74289 0.98188 0.0
C538 C 0.65958 0.72944 0.99992 0.0
C539 C 0.60746 0.68266 1.00348 0.0
C540 C 0.57609 0.64844 0.98915 0.0
C541 C 0.73345 0.79227 0.97747 0.0
C542 C 0.58594 0.66734 0.0225 0.0
H543 H 0.80077 0.76803 0.04067 0.0
H544 H 0.73697 0.87872 0.03991 0.0
H545 H 0.69351 0.65912 0.01667 0.0
H546 H 0.74586 0.70134 1.00083 0.0
H547 H 0.76496 0.68883 0.02277 0.0
H548 H 0.66172 0.86313 0.0219 0.0
H549 H 0.66679 0.83784 1.00004 0.0
H550 H 0.61529 0.79242 0.01557 0.0
H551 H 0.66105 0.71794 0.95411 0.0
H552 H 0.53723 0.61149 0.99201 0.0
H553 H 0.76659 0.78617 0.9831 0.0
H554 H 0.73741 0.82998 0.98377 0.0
H555 H 0.74018 0.79921 0.96272 0.0
H556 H 0.61128 0.65391 0.03003 0.0
H557 H 0.54238 0.63347 0.02286 0.0
H558 H 0.58922 0.70362 0.02967 0.0
C559 C 1.0051 0.7809 0.36647 0.0
C560 C 0.96097 0.77166 0.37765 0.0
C561 C 1.00086 0.74025 0.35446 0.0
C562 C 0.95123 0.68893 0.35357 0.0
C563 C 0.90605 0.6797 0.36452 0.0
C564 C 0.91144 0.72119 0.37643 0.0
C565 C 0.04999 0.75191 0.34297 0.0
C566 C 0.85253 0.62553 0.36398 0.0
C567 C 0.93832 0.60282 0.3122 0.0
C568 C 0.95937 0.5702 0.31876 0.0
C569 C 0.93271 0.63988 0.32359 0.0
C570 C 0.94833 0.64415 0.34195 0.0
C571 C 0.96627 0.60878 0.34885 0.0
C572 C 0.9716 0.57235 0.33718 0.0
C573 C 0.91315 0.67668 0.31574 0.0
C574 C 0.98296 0.61165 0.36834 0.0
H575 H 0.04312 0.82015 0.36707 0.0
H576 H 0.87726 0.7136 0.38511 0.0
H577 H 0.0645 0.72292 0.34654 0.0
H578 H 0.0382 0.74529 0.32852 0.0
H579 H 0.08473 0.79471 0.3447 0.0
H580 H 0.8201 0.62624 0.37238 0.0
H581 H 0.83742 0.61519 0.34991 0.0
H582 H 0.85924 0.59205 0.36892 0.0
H583 H 0.92886 0.60149 0.29798 0.0
H584 H 0.98743 0.54693 0.3424 0.0
H585 H 0.94805 0.71968 0.31514 0.0
H586 H 0.88102 0.67668 0.32445 0.0
H587 H 0.89631 0.66377 0.30192 0.0
H588 H 0.02093 0.65163 0.37092 0.0
H589 H 0.99096 0.57788 0.37198 0.0
H590 H 0.95044 0.60951 0.37738 0.0
C591 C 0.227 0.98966 0.69983 0.0
C592 C 0.18151 0.94424 0.70778 0.0
C593 C 0.25708 0.98267 0.68598 0.0
C594 C 0.24121 0.92893 0.67978 0.0
C595 C 0.19575 0.88281 0.68785 0.0
C596 C 0.16653 0.89099 0.70177 0.0
C597 C 0.30538 0.033 0.67777 0.0
C598 C 0.17759 0.8249 0.68162 0.0
C599 C 0.29042 0.92586 0.63231 0.0
C600 C 0.33901 0.92475 0.63565 0.0
C601 C 0.25655 0.92422 0.64653 0.0
C602 C 0.27172 0.92166 0.66455 0.0
C603 C 0.31891 0.91718 0.66795 0.0
C604 C 0.35188 0.91857 0.65346 0.0
C605 C 0.20618 0.92835 0.6423 0.0
C606 C 0.3365 0.91433 0.68696 0.0
H607 H 0.23842 0.03098 0.70413 0.0
H608 H 0.13191 0.85558 0.70797 0.0
H609 H 0.343 0.02962 0.67865 0.0
H610 H 0.29746 0.03576 0.66326 0.0
H611 H 0.31352 0.07176 0.68452 0.0
H612 H 0.1422 0.79336 0.68955 0.0
H613 H 0.1656 0.8203 0.6672 0.0
H614 H 0.21217 0.81663 0.68273 0.0
H615 H 0.27989 0.93025 0.61859 0.0
H616 H 0.38928 0.91761 0.65621 0.0
H617 H 0.21272 0.96886 0.64691 0.0
H618 H 0.1698 0.896 0.64961 0.0
H619 H 0.19688 0.92424 0.62764 0.0
H620 H 0.35058 0.95442 0.6938 0.0
H621 H 0.37054 0.905 0.68728 0.0
H622 H 0.30131 0.88241 0.69482 0.0
C623 C 0.29857 0.18486 0.03927 0.0
C624 C 0.25932 0.1986 0.04501 0.0
C625 C 0.34128 0.21941 0.02744 0.0
C626 C 0.34428 0.26839 0.02102 0.0
C627 C 0.30444 0.28213 0.02668 0.0
C628 C 0.26271 0.24726 0.03866 0.0
C629 C 0.38336 0.20375 0.0219 0.0
C630 C 0.30566 0.3336 0.02 0.0
C631 C 0.47421 0.39216 1.00318 0.0
C632 C 0.46395 0.38788 0.98457 0.0
C633 C 0.43735 0.35153 0.01515 0.0
C634 C 0.38879 0.30575 1.00837 0.0
C635 C 0.38014 0.29929 0.98951 0.0
C636 C 0.41803 0.34021 0.97783 0.0
C637 C 0.44864 0.35953 0.03515 0.0
C638 C 0.32886 0.25122 0.9817 0.0
H639 H 0.29631 0.14746 0.04425 0.0
H640 H 0.23201 0.25764 0.04284 0.0
H641 H 0.38341 0.19961 1.00702 0.0
H642 H 0.42512 0.23678 0.02586 0.0
H643 H 0.37537 0.1644 0.02812 0.0
H644 H 0.2712 0.33793 0.0255 0.0
H645 H 0.34504 0.37055 0.02389 0.0
H646 H 0.30333 0.33298 1.00506 0.0
H647 H 0.50981 0.42856 1.00852 0.0
H648 H 0.40976 0.3363 0.96347 0.0
H649 H 0.44191 0.3208 0.04148 0.0
H650 H 0.41965 0.3704 0.04158 0.0
H651 H 0.49132 0.39285 0.03808 0.0
H652 H 0.32166 0.21186 0.98763 0.0
H653 H 0.33121 0.2488 0.9668 0.0
H654 H 0.2927 0.25551 0.9851 0.0
C655 C 0.05436 0.28235 0.3792 0.0
C656 C 0.06653 0.24115 0.37455 0.0
C657 C 0.05431 0.31848 0.3661 0.0
C658 C 0.06701 0.31343 0.34795 0.0
C659 C 0.08306 0.27443 0.34346 0.0
C660 C 0.08241 0.23861 0.35679 0.0
C661 C 0.03675 0.35932 0.37147 0.0
C662 C 0.09751 0.26808 0.32433 0.0
C663 C 0.9902 0.34538 0.31246 0.0
C664 C 0.02974 0.39847 0.30677 0.0
C665 C 1.00225 0.31736 0.32565 0.0
C666 C 0.05541 0.34278 0.3334 0.0
C667 C 0.09611 0.39588 0.32747 0.0
C668 C 0.08277 0.42323 0.31421 0.0
C669 C 0.95756 0.26077 0.33153 0.0
C670 C 0.15332 0.42406 0.33535 0.0
H671 H 0.04179 0.28437 0.39287 0.0
H672 H 0.09279 0.20743 0.3532 0.0
H673 H 0.06526 0.40059 0.36577 0.0
H674 H 0.99521 0.34583 0.36594 0.0
H675 H 0.03519 0.3631 0.38635 0.0
H676 H 0.1168 0.24191 0.32354 0.0
H677 H 0.05961 0.24877 0.316 0.0
H678 H 0.12604 0.30892 0.31834 0.0
H679 H 0.94916 0.32566 0.30676 0.0
H680 H 0.11354 0.46424 0.3099 0.0
H681 H 0.94907 0.26118 0.34613 0.0
H682 H 0.97128 0.23032 0.32949 0.0
H683 H 0.91855 0.24654 0.324 0.0
H684 H 0.15141 0.43184 0.34992 0.0
H685 H 0.18111 0.46393 0.32861 0.0
H686 H 0.17141 0.39696 0.33414 0.0
loop_
_geom_bond_atom_site_label_1
_geom_bond_atom_site_label_2
_geom_bond_distance
_geom_bond_site_symmetry_2
_ccdc_geom_bond_type
Li0 N17 1.990 . S
Li0 O60 1.956 . S
Li0 O61 1.970 1_455 S
Li0 O62 1.961 1_545 S
Li1 N25 1.990 . S
Li1 O60 1.970 1_655 S
Li1 O61 1.956 . S
Li1 O63 1.961 1_545 S
Li2 N47 1.990 . S
Li2 O60 1.961 1_565 S
Li2 O62 1.956 . S
Li2 O63 1.970 1_455 S
Li3 N53 1.990 . S
Li3 O61 1.961 1_565 S
Li3 O62 1.970 1_655 S
Li3 O63 1.956 . S
C4 C6 1.348 . S
C4 C7 1.356 . S
C4 O60 1.325 . S
N5 C8 1.314 . S
N5 C9 1.279 . S
C6 C4 1.348 . S
C6 C8 1.353 . S
C6 H64 0.929 . S
C7 C4 1.356 . S
C7 C9 1.358 . S
C7 H65 0.930 . S
C8 N5 1.314 . S
C8 C6 1.353 . S
C8 H66 0.930 . S
C9 N5 1.279 . S
C9 C7 1.358 . S
C9 H67 0.930 . S
C10 C13 1.348 1_655 S
C10 C14 1.356 . S
C10 O61 1.325 . S
C11 N12 1.279 . S
C11 C14 1.358 . S
C11 H68 0.930 . S
N12 C11 1.279 . S
N12 C15 1.314 . S
C13 C10 1.348 1_455 S
C13 C15 1.353 1_455 S
C13 H69 0.929 . S
C14 C10 1.356 . S
C14 C11 1.358 . S
C14 H70 0.930 . S
C15 N12 1.314 . S
C15 C13 1.353 1_655 S
C15 H71 0.930 1_655 S
C16 N17 1.314 . S
C16 C21 1.353 . S
C16 H22 0.930 . S
N17 Li0 1.990 . S
N17 C16 1.314 . S
N17 C19 1.279 . S
C18 C19 1.358 . S
C18 C20 1.356 . S
C18 H72 0.930 . S
C19 N17 1.279 . S
C19 C18 1.358 . S
C19 H23 0.930 . S
C20 C18 1.356 . S
C20 C21 1.348 . S
C21 C16 1.353 . S
C21 C20 1.348 . S
C21 H73 0.929 . S
H22 C16 0.930 . S
H23 C19 0.930 . S
C24 N25 1.314 . S
C24 C26 1.353 . S
C24 H30 0.930 . S
N25 Li1 1.990 . S
N25 C24 1.314 . S
N25 C28 1.279 . S
C26 C24 1.353 . S
C26 C29 1.348 . S
C26 H74 0.929 . S
C27 C28 1.358 . S
C27 C29 1.356 . S
C27 H75 0.930 . S
C28 N25 1.279 . S
C28 C27 1.358 . S
C28 H31 0.930 . S
C29 C26 1.348 . S
C29 C27 1.356 . S
H30 C24 0.930 . S
H31 C28 0.930 . S
C32 C34 1.348 1_455 S
C32 C35 1.356 . S
C32 O62 1.325 . S
N33 C36 1.314 . S
N33 C37 1.279 . S
C34 C32 1.348 1_655 S
C34 C36 1.353 1_655 S
C34 H76 0.929 . S
C35 C32 1.356 . S
C35 C37 1.358 . S
C35 H77 0.930 . S
C36 N33 1.314 . S
C36 C34 1.353 1_455 S
C36 H78 0.930 1_455 S
C37 N33 1.279 . S
C37 C35 1.358 . S
C37 H79 0.930 . S
C38 C39 1.348 . S
C38 C40 1.356 . S
C38 O63 1.325 . S
C39 C38 1.348 . S
C39 C41 1.353 . S
C39 H80 0.929 . S
C40 C38 1.356 . S
C40 C42 1.358 . S
C40 H81 0.930 . S
C41 C39 1.353 . S
C41 N43 1.314 . S
C41 H82 0.930 . S
C42 C40 1.358 . S
C42 N43 1.279 . S
C42 H83 0.930 . S
N43 C41 1.314 . S
N43 C42 1.279 . S
C44 C46 1.353 . S
C44 N47 1.314 . S
C44 H50 0.930 . S
C45 N47 1.279 . S
C45 C48 1.358 . S
C45 H51 0.930 . S
C46 C44 1.353 . S
C46 C49 1.348 . S
C46 H84 0.929 . S
N47 Li2 1.990 . S
N47 C44 1.314 . S
N47 C45 1.279 . S
C48 C45 1.358 . S
C48 C49 1.356 . S
C48 H85 0.930 . S
C49 C46 1.348 . S
C49 C48 1.356 . S
H50 C44 0.930 . S
H51 C45 0.930 . S
C52 N53 1.314 . S
C52 C54 1.353 . S
C52 H58 0.930 . S
N53 Li3 1.990 . S
N53 C52 1.314 . S
N53 C56 1.279 . S
C54 C52 1.353 . S
C54 C57 1.348 . S
C54 H86 0.929 . S
C55 C56 1.358 . S
C55 C57 1.356 . S
C55 H87 0.930 . S
C56 N53 1.279 . S
C56 C55 1.358 . S
C56 H59 0.930 . S
C57 C54 1.348 . S
C57 C55 1.356 . S
H58 C52 0.930 . S
H59 C56 0.930 . S
O60 Li0 1.956 . S
O60 Li1 1.970 1_455 S
O60 Li2 1.961 1_545 S
O60 C4 1.325 . S
O61 Li0 1.970 1_655 S
O61 Li1 1.956 . S
O61 Li3 1.961 1_545 S
O61 C10 1.325 . S
O62 Li0 1.961 1_565 S
O62 Li2 1.956 . S
O62 Li3 1.970 1_455 S
O62 C32 1.325 . S
O63 Li1 1.961 1_565 S
O63 Li2 1.970 1_655 S
O63 Li3 1.956 . S
O63 C38 1.325 . S
H64 C6 0.929 . S
H65 C7 0.930 . S
H66 C8 0.930 . S
H67 C9 0.930 . S
H68 C11 0.930 . S
H69 C13 0.929 . S
H70 C14 0.930 . S
H71 C15 0.930 1_455 S
H72 C18 0.930 . S
H73 C21 0.929 . S
H74 C26 0.929 . S
H75 C27 0.930 . S
H76 C34 0.929 . S
H77 C35 0.930 . S
H78 C36 0.930 1_655 S
H79 C37 0.930 . S
H80 C39 0.929 . S
H81 C40 0.930 . S
H82 C41 0.930 . S
H83 C42 0.930 . S
H84 C46 0.929 . S
H85 C48 0.930 . S
H86 C54 0.929 . S
H87 C55 0.930 . S
Li88 N105 1.990 . S
Li88 O148 1.956 . S
Li88 O149 1.970 1_665 S
Li88 O150 1.961 . S
Li89 N113 1.990 . S
Li89 O148 1.970 1_445 S
Li89 O149 1.956 . S
Li89 O151 1.961 . S
Li90 N135 1.990 . S
Li90 O148 1.961 . S
Li90 O150 1.956 . S
Li90 O151 1.970 1_665 S
Li91 N141 1.990 . S
Li91 O149 1.961 . S
Li91 O150 1.970 1_445 S
Li91 O151 1.956 . S
C92 C94 1.348 1_655 S
C92 C95 1.356 . S
C92 O148 1.325 . S
N93 C96 1.314 . S
N93 C97 1.279 . S
C94 C92 1.348 1_455 S
C94 C96 1.353 1_455 S
C94 H152 0.929 . S
C95 C92 1.356 . S
C95 C97 1.358 . S
C95 H153 0.930 . S
C96 N93 1.314 . S
C96 C94 1.353 1_655 S
C96 H154 0.930 1_655 S
C97 N93 1.279 . S
C97 C95 1.358 . S
C97 H155 0.930 . S
C98 C101 1.348 1_545 S
C98 C102 1.356 . S
C98 O149 1.325 . S
C99 N100 1.279 . S
C99 C102 1.358 . S
C99 H156 0.930 . S
N100 C99 1.279 . S
N100 C103 1.314 . S
C101 C98 1.348 1_565 S
C101 C103 1.353 1_565 S
C101 H157 0.929 . S
C102 C98 1.356 . S
C102 C99 1.358 . S
C102 H158 0.930 . S
C103 N100 1.314 . S
C103 C101 1.353 1_545 S
C103 H159 0.930 1_545 S
C104 N105 1.314 . S
C104 C109 1.353 . S
C104 H110 0.930 . S
N105 Li88 1.990 . S
N105 C104 1.314 . S
N105 C107 1.279 . S
C106 C107 1.358 . S
C106 C108 1.356 . S
C106 H160 0.930 . S
C107 N105 1.279 . S
C107 C106 1.358 . S
C107 H111 0.930 . S
C108 C106 1.356 . S
C108 C109 1.348 . S
C109 C104 1.353 . S
C109 C108 1.348 . S
C109 H161 0.929 . S
H110 C104 0.930 . S
H111 C107 0.930 . S
C112 N113 1.314 . S
C112 C114 1.353 . S
C112 H118 0.930 . S
N113 Li89 1.990 . S
N113 C112 1.314 . S
N113 C116 1.279 . S
C114 C112 1.353 . S
C114 C117 1.348 . S
C114 H162 0.929 . S
C115 C116 1.358 . S
C115 C117 1.356 . S
C115 H163 0.930 . S
C116 N113 1.279 . S
C116 C115 1.358 . S
C116 H119 0.930 . S
C117 C114 1.348 . S
C117 C115 1.356 . S
H118 C112 0.930 . S
H119 C116 0.930 . S
C120 C122 1.348 1_565 S
C120 C123 1.356 . S
C120 O150 1.325 . S
N121 C124 1.314 . S
N121 C125 1.279 . S
C122 C120 1.348 1_545 S
C122 C124 1.353 1_545 S
C122 H164 0.929 . S
C123 C120 1.356 . S
C123 C125 1.358 . S
C123 H165 0.930 . S
C124 N121 1.314 . S
C124 C122 1.353 1_565 S
C124 H166 0.930 1_565 S
C125 N121 1.279 . S
C125 C123 1.358 . S
C125 H167 0.930 . S
C126 C127 1.348 1_455 S
C126 C128 1.356 . S
C126 O151 1.325 . S
C127 C126 1.348 1_655 S
C127 C129 1.353 1_655 S
C127 H168 0.929 . S
C128 C126 1.356 . S
C128 C130 1.358 . S
C128 H169 0.930 . S
C129 C127 1.353 1_455 S
C129 N131 1.314 . S
C129 H170 0.930 1_455 S
C130 C128 1.358 . S
C130 N131 1.279 . S
C130 H171 0.930 . S
N131 C129 1.314 . S
N131 C130 1.279 . S
C132 C134 1.353 . S
C132 N135 1.314 . S
C132 H138 0.930 . S
C133 N135 1.279 . S
C133 C136 1.358 . S
C133 H139 0.930 . S
C134 C132 1.353 . S
C134 C137 1.348 . S
C134 H172 0.929 . S
N135 Li90 1.990 . S
N135 C132 1.314 . S
N135 C133 1.279 . S
C136 C133 1.358 . S
C136 C137 1.356 . S
C136 H173 0.930 . S
C137 C134 1.348 . S
C137 C136 1.356 . S
H138 C132 0.930 . S
H139 C133 0.930 . S
C140 N141 1.314 . S
C140 C142 1.353 . S
C140 H146 0.930 . S
N141 Li91 1.990 . S
N141 C140 1.314 . S
N141 C144 1.279 . S
C142 C140 1.353 . S
C142 C145 1.348 . S
C142 H174 0.929 . S
C143 C144 1.358 . S
C143 C145 1.356 . S
C143 H175 0.930 . S
C144 N141 1.279 . S
C144 C143 1.358 . S
C144 H147 0.930 . S
C145 C142 1.348 . S
C145 C143 1.356 . S
H146 C140 0.930 . S
H147 C144 0.930 . S
O148 Li88 1.956 . S
O148 Li89 1.970 1_665 S
O148 Li90 1.961 . S
O148 C92 1.325 . S
O149 Li88 1.970 1_445 S
O149 Li89 1.956 . S
O149 Li91 1.961 . S
O149 C98 1.325 . S
O150 Li88 1.961 . S
O150 Li90 1.956 . S
O150 Li91 1.970 1_665 S
O150 C120 1.325 . S
O151 Li89 1.961 . S
O151 Li90 1.970 1_445 S
O151 Li91 1.956 . S
O151 C126 1.325 . S
H152 C94 0.929 . S
H153 C95 0.930 . S
H154 C96 0.930 1_455 S
H155 C97 0.930 . S
H156 C99 0.930 . S
H157 C101 0.929 . S
H158 C102 0.930 . S
H159 C103 0.930 1_565 S
H160 C106 0.930 . S
H161 C109 0.929 . S
H162 C114 0.929 . S
H163 C115 0.930 . S
H164 C122 0.929 . S
H165 C123 0.930 . S
H166 C124 0.930 1_545 S
H167 C125 0.930 . S
H168 C127 0.929 . S
H169 C128 0.930 . S
H170 C129 0.930 1_655 S
H171 C130 0.930 . S
H172 C134 0.929 . S
H173 C136 0.930 . S
H174 C142 0.929 . S
H175 C143 0.930 . S
Li176 N193 1.990 . S
Li176 O236 1.956 . S
Li176 O237 1.970 1_565 S
Li176 O238 1.961 1_455 S
Li177 N201 1.990 . S
Li177 O236 1.970 1_545 S
Li177 O237 1.956 . S
Li177 O239 1.961 1_455 S
Li178 N223 1.990 . S
Li178 O236 1.961 1_655 S
Li178 O238 1.956 . S
Li178 O239 1.970 1_565 S
Li179 N229 1.990 . S
Li179 O237 1.961 1_655 S
Li179 O238 1.970 1_545 S
Li179 O239 1.956 . S
C180 C182 1.348 1_565 S
C180 C183 1.356 . S
C180 O236 1.325 . S
N181 C184 1.314 . S
N181 C185 1.279 . S
C182 C180 1.348 1_545 S
C182 C184 1.353 1_545 S
C182 H240 0.929 . S
C183 C180 1.356 . S
C183 C185 1.358 . S
C183 H241 0.930 . S
C184 N181 1.314 . S
C184 C182 1.353 1_565 S
C184 H242 0.930 1_565 S
C185 N181 1.279 . S
C185 C183 1.358 . S
C185 H243 0.930 . S
C186 C189 1.348 . S
C186 C190 1.356 . S
C186 O237 1.325 . S
C187 N188 1.279 . S
C187 C190 1.358 . S
C187 H244 0.930 . S
N188 C187 1.279 . S
N188 C191 1.314 . S
C189 C186 1.348 . S
C189 C191 1.353 . S
C189 H245 0.929 . S
C190 C186 1.356 . S
C190 C187 1.358 . S
C190 H246 0.930 . S
C191 N188 1.314 . S
C191 C189 1.353 . S
C191 H247 0.930 . S
C192 N193 1.314 . S
C192 C197 1.353 . S
C192 H198 0.930 . S
N193 Li176 1.990 . S
N193 C192 1.314 . S
N193 C195 1.279 . S
C194 C195 1.358 . S
C194 C196 1.356 . S
C194 H248 0.930 . S
C195 N193 1.279 . S
C195 C194 1.358 . S
C195 H199 0.930 . S
C196 C194 1.356 . S
C196 C197 1.348 . S
C197 C192 1.353 . S
C197 C196 1.348 . S
C197 H249 0.929 . S
H198 C192 0.930 . S
H199 C195 0.930 . S
C200 N201 1.314 . S
C200 C202 1.353 . S
C200 H206 0.930 . S
N201 Li177 1.990 . S
N201 C200 1.314 . S
N201 C204 1.279 . S
C202 C200 1.353 . S
C202 C205 1.348 . S
C202 H250 0.929 . S
C203 C204 1.358 . S
C203 C205 1.356 . S
C203 H251 0.930 . S
C204 N201 1.279 . S
C204 C203 1.358 . S
C204 H207 0.930 . S
C205 C202 1.348 . S
C205 C203 1.356 . S
H206 C200 0.930 . S
H207 C204 0.930 . S
C208 C210 1.348 . S
C208 C211 1.356 . S
C208 O238 1.325 . S
N209 C212 1.314 . S
N209 C213 1.279 . S
C210 C208 1.348 . S
C210 C212 1.353 . S
C210 H252 0.929 . S
C211 C208 1.356 . S
C211 C213 1.358 . S
C211 H253 0.930 . S
C212 N209 1.314 . S
C212 C210 1.353 . S
C212 H254 0.930 . S
C213 N209 1.279 . S
C213 C211 1.358 . S
C213 H255 0.930 . S
C214 C215 1.348 1_545 S
C214 C216 1.356 . S
C214 O239 1.325 . S
C215 C214 1.348 1_565 S
C215 C217 1.353 1_565 S
C215 H256 0.929 . S
C216 C214 1.356 . S
C216 C218 1.358 . S
C216 H257 0.930 . S
C217 C215 1.353 1_545 S
C217 N219 1.314 . S
C217 H258 0.930 1_545 S
C218 C216 1.358 . S
C218 N219 1.279 . S
C218 H259 0.930 . S
N219 C217 1.314 . S
N219 C218 1.279 . S
C220 C222 1.353 . S
C220 N223 1.314 . S
C220 H226 0.930 . S
C221 N223 1.279 . S
C221 C224 1.358 . S
C221 H227 0.930 . S
C222 C220 1.353 . S
C222 C225 1.348 . S
C222 H260 0.929 . S
N223 Li178 1.990 . S
N223 C220 1.314 . S
N223 C221 1.279 . S
C224 C221 1.358 . S
C224 C225 1.356 . S
C224 H261 0.930 . S
C225 C222 1.348 . S
C225 C224 1.356 . S
H226 C220 0.930 . S
H227 C221 0.930 . S
C228 N229 1.314 . S
C228 C230 1.353 . S
C228 H234 0.930 . S
N229 Li179 1.990 . S
N229 C228 1.314 . S
N229 C232 1.279 . S
C230 C228 1.353 . S
C230 C233 1.348 . S
C230 H262 0.929 . S
C231 C232 1.358 . S
C231 C233 1.356 . S
C231 H263 0.930 . S
C232 N229 1.279 . S
C232 C231 1.358 . S
C232 H235 0.930 . S
C233 C230 1.348 . S
C233 C231 1.356 . S
H234 C228 0.930 . S
H235 C232 0.930 . S
O236 Li176 1.956 . S
O236 Li177 1.970 1_565 S
O236 Li178 1.961 1_455 S
O236 C180 1.325 . S
O237 Li176 1.970 1_545 S
O237 Li177 1.956 . S
O237 Li179 1.961 1_455 S
O237 C186 1.325 . S
O238 Li176 1.961 1_655 S
O238 Li178 1.956 . S
O238 Li179 1.970 1_565 S
O238 C208 1.325 . S
O239 Li177 1.961 1_655 S
O239 Li178 1.970 1_545 S
O239 Li179 1.956 . S
O239 C214 1.325 . S
H240 C182 0.929 . S
H241 C183 0.930 . S
H242 C184 0.930 1_545 S
H243 C185 0.930 . S
H244 C187 0.930 . S
H245 C189 0.929 . S
H246 C190 0.930 . S
H247 C191 0.930 . S
H248 C194 0.930 . S
H249 C197 0.929 . S
H250 C202 0.929 . S
H251 C203 0.930 . S
H252 C210 0.929 . S
H253 C211 0.930 . S
H254 C212 0.930 . S
H255 C213 0.930 . S
H256 C215 0.929 . S
H257 C216 0.930 . S
H258 C217 0.930 1_565 S
H259 C218 0.930 . S
H260 C222 0.929 . S
H261 C224 0.930 . S
H262 C230 0.929 . S
H263 C231 0.930 . S
Mg264 O271 2.141 . S
Mg264 O272 2.048 . S
Mg264 O273 2.048 . S
Mg264 O276 2.141 . S
C265 O266 1.313 . S
C265 O272 1.195 1_655 S
O266 C265 1.313 . S
C267 O268 1.245 . S
C267 O276 1.289 1_655 S
O268 C267 1.245 . S
C269 O270 1.245 . S
C269 O271 1.289 1_655 S
O270 C269 1.245 . S
O271 Mg264 2.141 . S
O271 C269 1.289 1_455 S
O272 Mg264 2.048 . S
O272 C265 1.195 1_455 S
O273 Mg264 2.048 . S
O273 C274 1.195 1_455 S
C274 O273 1.195 1_655 S
C274 O275 1.313 . S
O275 C274 1.313 . S
O276 Mg264 2.141 . S
O276 C267 1.289 1_455 S
Mg277 O284 2.141 . S
Mg277 O285 2.048 . S
Mg277 O286 2.048 . S
Mg277 O289 2.141 . S
C278 O279 1.313 . S
C278 O285 1.195 1_565 S
O279 C278 1.313 . S
C280 O281 1.245 . S
C280 O289 1.289 1_565 S
O281 C280 1.245 . S
C282 O283 1.245 . S
C282 O284 1.289 1_565 S
O283 C282 1.245 . S
O284 Mg277 2.141 . S
O284 C282 1.289 1_545 S
O285 Mg277 2.048 . S
O285 C278 1.195 1_545 S
O286 Mg277 2.048 . S
O286 C287 1.195 1_545 S
C287 O286 1.195 1_565 S
C287 O288 1.313 . S
O288 C287 1.313 . S
O289 Mg277 2.141 . S
O289 C280 1.289 1_545 S
Mg290 O297 2.141 . S
Mg290 O298 2.048 . S
Mg290 O299 2.048 . S
Mg290 O302 2.141 . S
C291 O292 1.313 . S
C291 O298 1.195 . S
O292 C291 1.313 . S
C293 O294 1.245 . S
C293 O302 1.289 . S
O294 C293 1.245 . S
C295 O296 1.245 . S
C295 O297 1.289 . S
O296 C295 1.245 . S
O297 Mg290 2.141 . S
O297 C295 1.289 . S
O298 Mg290 2.048 . S
O298 C291 1.195 . S
O299 Mg290 2.048 . S
O299 C300 1.195 . S
C300 O299 1.195 . S
C300 O301 1.313 . S
O301 C300 1.313 . S
O302 Mg290 2.141 . S
O302 C293 1.289 . S
C303 C304 1.391 . S
C303 C305 1.394 1_655 S
C303 H319 0.931 1_655 S
C304 C303 1.391 . S
C304 C308 1.376 . S
C305 C303 1.394 1_455 S
C305 C306 1.367 1_455 S
C305 C309 1.532 . S
C306 C305 1.367 1_655 S
C306 C307 1.410 . S
C306 C314 1.503 . S
C307 C306 1.410 . S
C307 C308 1.392 . S
C307 C310 1.511 . S
C308 C304 1.376 . S
C308 C307 1.392 . S
C308 H320 0.929 . S
C309 C305 1.532 . S
C309 H321 0.960 . S
C309 H322 0.962 . S
C309 H323 0.960 . S
C310 C307 1.511 . S
C310 H324 0.961 . S
C310 H325 0.961 . S
C310 H326 0.961 . S
C311 C312 1.370 1_455 S
C311 C313 1.363 1_455 S
C311 H327 0.931 . S
C312 C311 1.370 1_655 S
C312 C316 1.408 . S
C313 C311 1.363 1_655 S
C313 C314 1.370 . S
C313 C317 1.524 1_655 S
C314 C306 1.503 . S
C314 C313 1.370 . S
C314 C315 1.403 . S
C315 C314 1.403 . S
C315 C316 1.404 . S
C315 C318 1.539 . S
C316 C312 1.408 . S
C316 C315 1.404 . S
C316 H328 0.930 . S
C317 C313 1.524 1_455 S
C317 H329 0.956 . S
C317 H330 0.961 1_455 S
C317 H331 0.961 . S
C318 C315 1.539 . S
C318 H332 0.958 . S
C318 H333 0.961 . S
C318 H334 0.960 . S
H319 C303 0.931 1_455 S
H320 C308 0.929 . S
H321 C309 0.960 . S
H322 C309 0.962 . S
H323 C309 0.960 . S
H324 C310 0.961 . S
H325 C310 0.961 . S
H326 C310 0.961 . S
H327 C311 0.931 . S
H328 C316 0.930 . S
H329 C317 0.956 . S
H330 C317 0.961 1_655 S
H331 C317 0.961 . S
H332 C318 0.958 . S
H333 C318 0.961 . S
H334 C318 0.960 . S
C335 C336 1.391 . S
C335 C337 1.394 . S
C335 H351 0.931 . S
C336 C335 1.391 . S
C336 C340 1.376 . S
C337 C335 1.394 . S
C337 C338 1.369 . S
C337 C341 1.531 1_565 S
C338 C337 1.369 . S
C338 C339 1.410 . S
C338 C346 1.503 . S
C339 C338 1.410 . S
C339 C340 1.392 . S
C339 C342 1.511 . S
C340 C336 1.376 . S
C340 C339 1.392 . S
C340 H352 0.929 . S
C341 C337 1.531 1_545 S
C341 H353 0.960 . S
C341 H354 0.962 1_545 S
C341 H355 0.960 . S
C342 C339 1.511 . S
C342 H356 0.961 . S
C342 H357 0.961 . S
C342 H358 0.961 . S
C343 C344 1.370 . S
C343 C345 1.363 . S
C343 H359 0.931 . S
C344 C343 1.370 . S
C344 C348 1.408 1_565 S
C345 C343 1.363 . S
C345 C346 1.370 . S
C345 C349 1.524 . S
C346 C338 1.503 . S
C346 C345 1.370 . S
C346 C347 1.403 1_565 S
C347 C346 1.403 1_545 S
C347 C348 1.404 . S
C347 C350 1.539 . S
C348 C344 1.408 1_545 S
C348 C347 1.404 . S
C348 H360 0.930 . S
C349 C345 1.524 . S
C349 H361 0.956 . S
C349 H362 0.961 . S
C349 H363 0.961 . S
C350 C347 1.539 . S
C350 H364 0.958 . S
C350 H365 0.961 . S
C350 H366 0.960 . S
H351 C335 0.931 . S
H352 C340 0.929 . S
H353 C341 0.960 . S
H354 C341 0.962 1_565 S
H355 C341 0.960 . S
H356 C342 0.961 . S
H357 C342 0.961 . S
H358 C342 0.961 . S
H359 C343 0.931 . S
H360 C348 0.930 . S
H361 C349 0.956 . S
H362 C349 0.961 . S
H363 C349 0.961 . S
H364 C350 0.958 . S
H365 C350 0.961 . S
H366 C350 0.960 . S
C367 C368 1.391 . S
C367 C369 1.394 . S
C367 H383 0.931 . S
C368 C367 1.391 . S
C368 C372 1.376 . S
C369 C367 1.394 . S
C369 C370 1.369 . S
C369 C373 1.531 . S
C370 C369 1.369 . S
C370 C371 1.410 . S
C370 C378 1.503 . S
C371 C370 1.410 . S
C371 C372 1.392 . S
C371 C374 1.511 . S
C372 C368 1.376 . S
C372 C371 1.392 . S
C372 H384 0.929 . S
C373 C369 1.531 . S
C373 H385 0.960 . S
C373 H386 0.962 . S
C373 H387 0.960 . S
C374 C371 1.511 . S
C374 H388 0.961 . S
C374 H389 0.961 . S
C374 H390 0.961 . S
C375 C376 1.370 . S
C375 C377 1.363 . S
C375 H391 0.931 . S
C376 C375 1.370 . S
C376 C380 1.408 . S
C377 C375 1.363 . S
C377 C378 1.370 . S
C377 C381 1.524 . S
C378 C370 1.503 . S
C378 C377 1.370 . S
C378 C379 1.403 . S
C379 C378 1.403 . S
C379 C380 1.404 . S
C379 C382 1.539 . S
C380 C376 1.408 . S
C380 C379 1.404 . S
C380 H392 0.930 . S
C381 C377 1.524 . S
C381 H393 0.956 . S
C381 H394 0.961 . S
C381 H395 0.961 . S
C382 C379 1.539 . S
C382 H396 0.958 . S
C382 H397 0.961 . S
C382 H398 0.960 . S
H383 C367 0.931 . S
H384 C372 0.929 . S
H385 C373 0.960 . S
H386 C373 0.962 . S
H387 C373 0.960 . S
H388 C374 0.961 . S
H389 C374 0.961 . S
H390 C374 0.961 . S
H391 C375 0.931 . S
H392 C380 0.930 . S
H393 C381 0.956 . S
H394 C381 0.961 . S
H395 C381 0.961 . S
H396 C382 0.958 . S
H397 C382 0.961 . S
H398 C382 0.960 . S
C399 C400 1.391 . S
C399 C401 1.394 . S
C399 H415 0.931 1_455 S
C400 C399 1.391 . S
C400 C404 1.376 . S
C401 C399 1.394 . S
C401 C402 1.369 . S
C401 C405 1.531 1_455 S
C402 C401 1.369 . S
C402 C403 1.410 . S
C402 C410 1.503 . S
C403 C402 1.410 . S
C403 C404 1.392 . S
C403 C406 1.511 . S
C404 C400 1.376 . S
C404 C403 1.392 . S
C404 H416 0.929 . S
C405 C401 1.531 1_655 S
C405 H417 0.960 . S
C405 H418 0.962 . S
C405 H419 0.960 . S
C406 C403 1.511 . S
C406 H420 0.961 . S
C406 H421 0.961 . S
C406 H422 0.961 . S
C407 C408 1.370 1_655 S
C407 C409 1.363 . S
C407 H423 0.931 . S
C408 C407 1.370 1_455 S
C408 C412 1.408 . S
C409 C407 1.363 . S
C409 C410 1.370 1_655 S
C409 C413 1.524 . S
C410 C402 1.503 . S
C410 C409 1.370 1_455 S
C410 C411 1.403 . S
C411 C410 1.403 . S
C411 C412 1.404 . S
C411 C414 1.539 . S
C412 C408 1.408 . S
C412 C411 1.404 . S
C412 H424 0.930 . S
C413 C409 1.524 . S
C413 H425 0.956 . S
C413 H426 0.961 1_655 S
C413 H427 0.961 . S
C414 C411 1.539 . S
C414 H428 0.958 . S
C414 H429 0.961 . S
C414 H430 0.960 . S
H415 C399 0.931 1_655 S
H416 C404 0.929 . S
H417 C405 0.960 . S
H418 C405 0.962 . S
H419 C405 0.960 . S
H420 C406 0.961 . S
H421 C406 0.961 . S
H422 C406 0.961 . S
H423 C407 0.931 . S
H424 C412 0.930 . S
H425 C413 0.956 . S
H426 C413 0.961 1_455 S
H427 C413 0.961 . S
H428 C414 0.958 . S
H429 C414 0.961 . S
H430 C414 0.960 . S
C431 C432 1.391 . S
C431 C433 1.394 . S
C431 H447 0.931 1_545 S
C432 C431 1.391 . S
C432 C436 1.376 . S
C433 C431 1.394 . S
C433 C434 1.369 . S
C433 C437 1.531 1_545 S
C434 C433 1.369 . S
C434 C435 1.410 . S
C434 C442 1.503 . S
C435 C434 1.410 . S
C435 C436 1.392 . S
C435 C438 1.511 . S
C436 C432 1.376 . S
C436 C435 1.392 . S
C436 H448 0.929 . S
C437 C433 1.531 1_565 S
C437 H449 0.960 . S
C437 H450 0.962 . S
C437 H451 0.960 . S
C438 C435 1.511 . S
C438 H452 0.961 . S
C438 H453 0.961 . S
C438 H454 0.961 . S
C439 C440 1.370 . S
C439 C441 1.363 . S
C439 H455 0.931 . S
C440 C439 1.370 . S
C440 C444 1.408 1_545 S
C441 C439 1.363 . S
C441 C442 1.370 . S
C441 C445 1.524 . S
C442 C434 1.503 . S
C442 C441 1.370 . S
C442 C443 1.403 1_545 S
C443 C442 1.403 1_565 S
C443 C444 1.404 . S
C443 C446 1.539 . S
C444 C440 1.408 1_565 S
C444 C443 1.404 . S
C444 H456 0.930 . S
C445 C441 1.524 . S
C445 H457 0.956 . S
C445 H458 0.961 . S
C445 H459 0.961 . S
C446 C443 1.539 . S
C446 H460 0.958 . S
C446 H461 0.961 . S
C446 H462 0.960 . S
H447 C431 0.931 1_565 S
H448 C436 0.929 . S
H449 C437 0.960 . S
H450 C437 0.962 . S
H451 C437 0.960 . S
H452 C438 0.961 . S
H453 C438 0.961 . S
H454 C438 0.961 . S
H455 C439 0.931 . S
H456 C444 0.930 . S
H457 C445 0.956 . S
H458 C445 0.961 . S
H459 C445 0.961 . S
H460 C446 0.958 . S
H461 C446 0.961 . S
H462 C446 0.960 . S
C463 C464 1.391 . S
C463 C465 1.394 . S
C463 H479 0.931 . S
C464 C463 1.391 . S
C464 C468 1.376 . S
C465 C463 1.394 . S
C465 C466 1.369 . S
C465 C469 1.531 . S
C466 C465 1.369 . S
C466 C467 1.410 . S
C466 C474 1.503 . S
C467 C466 1.410 . S
C467 C468 1.392 . S
C467 C470 1.511 . S
C468 C464 1.376 . S
C468 C467 1.392 . S
C468 H480 0.929 . S
C469 C465 1.531 . S
C469 H481 0.960 . S
C469 H482 0.962 . S
C469 H483 0.960 . S
C470 C467 1.511 . S
C470 H484 0.961 . S
C470 H485 0.961 . S
C470 H486 0.961 . S
C471 C472 1.370 . S
C471 C473 1.363 . S
C471 H487 0.931 . S
C472 C471 1.370 . S
C472 C476 1.408 . S
C473 C471 1.363 . S
C473 C474 1.370 . S
C473 C477 1.524 . S
C474 C466 1.503 . S
C474 C473 1.370 . S
C474 C475 1.403 . S
C475 C474 1.403 . S
C475 C476 1.404 . S
C475 C478 1.539 . S
C476 C472 1.408 . S
C476 C475 1.404 . S
C476 H488 0.930 . S
C477 C473 1.524 . S
C477 H489 0.956 . S
C477 H490 0.961 . S
C477 H491 0.961 . S
C478 C475 1.539 . S
C478 H492 0.958 . S
C478 H493 0.961 . S
C478 H494 0.960 . S
H479 C463 0.931 . S
H480 C468 0.929 . S
H481 C469 0.960 . S
H482 C469 0.962 . S
H483 C469 0.960 . S
H484 C470 0.961 . S
H485 C470 0.961 . S
H486 C470 0.961 . S
H487 C471 0.931 . S
H488 C476 0.930 . S
H489 C477 0.956 . S
H490 C477 0.961 . S
H491 C477 0.961 . S
H492 C478 0.958 . S
H493 C478 0.961 . S
H494 C478 0.960 . S
C495 C496 1.391 . S
C495 C497 1.394 . S
C495 H511 0.931 . S
C496 C495 1.391 . S
C496 C500 1.376 . S
C497 C495 1.394 . S
C497 C498 1.369 . S
C497 C501 1.531 1_545 S
C498 C497 1.369 . S
C498 C499 1.410 . S
C498 C506 1.503 . S
C499 C498 1.410 . S
C499 C500 1.392 . S
C499 C502 1.511 . S
C500 C496 1.376 . S
C500 C499 1.392 . S
C500 H512 0.929 . S
C501 C497 1.531 1_565 S
C501 H513 0.960 . S
C501 H514 0.962 . S
C501 H515 0.960 . S
C502 C499 1.511 . S
C502 H516 0.961 . S
C502 H517 0.961 . S
C502 H518 0.961 . S
C503 C504 1.370 . S
C503 C505 1.363 . S
C503 H519 0.931 . S
C504 C503 1.370 . S
C504 C508 1.408 1_545 S
C505 C503 1.363 . S
C505 C506 1.370 . S
C505 C509 1.524 . S
C506 C498 1.503 . S
C506 C505 1.370 . S
C506 C507 1.403 1_545 S
C507 C506 1.403 1_565 S
C507 C508 1.404 . S
C507 C510 1.539 . S
C508 C504 1.408 1_565 S
C508 C507 1.404 . S
C508 H520 0.930 . S
C509 C505 1.524 . S
C509 H521 0.956 . S
C509 H522 0.961 . S
C509 H523 0.961 . S
C510 C507 1.539 . S
C510 H524 0.958 . S
C510 H525 0.961 . S
C510 H526 0.960 . S
H511 C495 0.931 . S
H512 C500 0.929 . S
H513 C501 0.960 . S
H514 C501 0.962 . S
H515 C501 0.960 . S
H516 C502 0.961 . S
H517 C502 0.961 . S
H518 C502 0.961 . S
H519 C503 0.931 . S
H520 C508 0.930 . S
H521 C509 0.956 . S
H522 C509 0.961 . S
H523 C509 0.961 . S
H524 C510 0.958 . S
H525 C510 0.961 . S
H526 C510 0.960 . S
C527 C528 1.391 . S
C527 C529 1.394 . S
C527 H543 0.931 . S
C528 C527 1.391 . S
C528 C532 1.376 . S
C529 C527 1.394 . S
C529 C530 1.369 . S
C529 C533 1.531 . S
C530 C529 1.369 . S
C530 C531 1.410 . S
C530 C538 1.503 1_554 S
C531 C530 1.410 . S
C531 C532 1.392 . S
C531 C534 1.511 1_554 S
C532 C528 1.376 . S
C532 C531 1.392 . S
C532 H544 0.929 . S
C533 C529 1.531 . S
C533 H545 0.960 . S
C533 H546 0.962 . S
C533 H547 0.960 . S
C534 C531 1.511 1_556 S
C534 H548 0.961 . S
C534 H549 0.961 . S
C534 H550 0.961 . S
C535 C536 1.370 . S
C535 C537 1.363 . S
C535 H551 0.931 . S
C536 C535 1.370 . S
C536 C540 1.408 . S
C537 C535 1.363 . S
C537 C538 1.370 . S
C537 C541 1.524 . S
C538 C530 1.503 1_556 S
C538 C537 1.370 . S
C538 C539 1.403 . S
C539 C538 1.403 . S
C539 C540 1.404 . S
C539 C542 1.539 1_556 S
C540 C536 1.408 . S
C540 C539 1.404 . S
C540 H552 0.930 . S
C541 C537 1.524 . S
C541 H553 0.956 . S
C541 H554 0.961 . S
C541 H555 0.961 . S
C542 C539 1.539 1_554 S
C542 H556 0.958 . S
C542 H557 0.961 . S
C542 H558 0.960 . S
H543 C527 0.931 . S
H544 C532 0.929 . S
H545 C533 0.960 . S
H546 C533 0.962 . S
H547 C533 0.960 . S
H548 C534 0.961 . S
H549 C534 0.961 . S
H550 C534 0.961 . S
H551 C535 0.931 . S
H552 C540 0.930 . S
H553 C541 0.956 . S
H554 C541 0.961 . S
H555 C541 0.961 . S
H556 C542 0.958 . S
H557 C542 0.961 . S
H558 C542 0.960 . S
C559 C560 1.391 . S
C559 C561 1.394 1_655 S
C559 H575 0.931 1_655 S
C560 C559 1.391 . S
C560 C564 1.376 . S
C561 C559 1.394 1_455 S
C561 C562 1.369 1_455 S
C561 C565 1.531 . S
C562 C561 1.369 1_655 S
C562 C563 1.410 . S
C562 C570 1.503 . S
C563 C562 1.410 . S
C563 C564 1.392 . S
C563 C566 1.511 . S
C564 C560 1.376 . S
C564 C563 1.392 . S
C564 H576 0.929 . S
C565 C561 1.531 . S
C565 H577 0.960 . S
C565 H578 0.962 . S
C565 H579 0.960 . S
C566 C563 1.511 . S
C566 H580 0.961 . S
C566 H581 0.961 . S
C566 H582 0.961 . S
C567 C568 1.370 . S
C567 C569 1.363 . S
C567 H583 0.931 . S
C568 C567 1.370 . S
C568 C572 1.408 . S
C569 C567 1.363 . S
C569 C570 1.370 . S
C569 C573 1.524 . S
C570 C562 1.503 . S
C570 C569 1.370 . S
C570 C571 1.403 . S
C571 C570 1.403 . S
C571 C572 1.404 . S
C571 C574 1.539 . S
C572 C568 1.408 . S
C572 C571 1.404 . S
C572 H584 0.924 1_655 S
C573 C569 1.524 . S
C573 H585 0.956 . S
C573 H586 0.961 . S
C573 H587 0.961 . S
C574 C571 1.539 . S
C574 H588 0.958 1_655 S
C574 H589 0.961 . S
C574 H590 0.960 . S
H575 C559 0.931 1_455 S
H576 C564 0.929 . S
H577 C565 0.960 . S
H578 C565 0.962 . S
H579 C565 0.960 . S
H580 C566 0.961 . S
H581 C566 0.961 . S
H582 C566 0.961 . S
H583 C567 0.931 . S
H584 C572 0.924 1_455 S
H585 C573 0.956 . S
H586 C573 0.961 . S
H587 C573 0.961 . S
H588 C574 0.958 1_455 S
H589 C574 0.961 . S
H590 C574 0.960 . S
C591 C592 1.391 . S
C591 C593 1.394 1_565 S
C591 H607 0.931 1_565 S
C592 C591 1.391 . S
C592 C596 1.376 . S
C593 C591 1.394 1_545 S
C593 C594 1.369 1_545 S
C593 C597 1.531 . S
C594 C593 1.369 1_565 S
C594 C595 1.410 . S
C594 C602 1.503 . S
C595 C594 1.410 . S
C595 C596 1.392 . S
C595 C598 1.511 . S
C596 C592 1.376 . S
C596 C595 1.392 . S
C596 H608 0.929 . S
C597 C593 1.531 . S
C597 H609 0.960 . S
C597 H610 0.962 . S
C597 H611 0.960 . S
C598 C595 1.511 . S
C598 H612 0.961 . S
C598 H613 0.961 . S
C598 H614 0.961 . S
C599 C600 1.370 . S
C599 C601 1.363 . S
C599 H615 0.931 . S
C600 C599 1.370 . S
C600 C604 1.408 . S
C601 C599 1.363 . S
C601 C602 1.370 . S
C601 C605 1.524 . S
C602 C594 1.503 . S
C602 C601 1.370 . S
C602 C603 1.403 . S
C603 C602 1.403 . S
C603 C604 1.404 . S
C603 C606 1.539 . S
C604 C600 1.408 . S
C604 C603 1.404 . S
C604 H616 0.930 . S
C605 C601 1.524 . S
C605 H617 0.956 1_565 S
C605 H618 0.961 . S
C605 H619 0.961 . S
C606 C603 1.539 . S
C606 H620 0.958 1_565 S
C606 H621 0.961 . S
C606 H622 0.960 . S
H607 C591 0.931 1_545 S
H608 C596 0.929 . S
H609 C597 0.960 . S
H610 C597 0.962 . S
H611 C597 0.960 . S
H612 C598 0.961 . S
H613 C598 0.961 . S
H614 C598 0.961 . S
H615 C599 0.931 . S
H616 C604 0.930 . S
H617 C605 0.956 1_545 S
H618 C605 0.961 . S
H619 C605 0.961 . S
H620 C606 0.958 1_545 S
H621 C606 0.961 . S
H622 C606 0.960 . S
C623 C624 1.391 . S
C623 C625 1.394 . S
C623 H639 0.931 . S
C624 C623 1.391 . S
C624 C628 1.376 . S
C625 C623 1.394 . S
C625 C626 1.369 . S
C625 C629 1.531 1_554 S
C626 C625 1.369 . S
C626 C627 1.410 . S
C626 C634 1.503 1_554 S
C627 C626 1.410 . S
C627 C628 1.392 . S
C627 C630 1.511 . S
C628 C624 1.376 . S
C628 C627 1.392 . S
C628 H640 0.929 . S
C629 C625 1.531 1_556 S
C629 H641 0.960 . S
C629 H642 0.962 . S
C629 H643 0.960 . S
C630 C627 1.511 . S
C630 H644 0.961 . S
C630 H645 0.961 . S
C630 H646 0.961 . S
C631 C632 1.370 . S
C631 C633 1.363 . S
C631 H647 0.931 . S
C632 C631 1.370 . S
C632 C636 1.408 . S
C633 C631 1.363 . S
C633 C634 1.370 . S
C633 C637 1.524 1_556 S
C634 C626 1.503 1_556 S
C634 C633 1.370 . S
C634 C635 1.403 . S
C635 C634 1.403 . S
C635 C636 1.404 . S
C635 C638 1.539 . S
C636 C632 1.408 . S
C636 C635 1.404 . S
C636 H648 0.930 . S
C637 C633 1.524 1_554 S
C637 H649 0.956 . S
C637 H650 0.961 . S
C637 H651 0.961 . S
C638 C635 1.539 . S
C638 H652 0.958 . S
C638 H653 0.961 . S
C638 H654 0.960 . S
H639 C623 0.931 . S
H640 C628 0.929 . S
H641 C629 0.960 . S
H642 C629 0.962 . S
H643 C629 0.960 . S
H644 C630 0.961 . S
H645 C630 0.961 . S
H646 C630 0.961 . S
H647 C631 0.931 . S
H648 C636 0.930 . S
H649 C637 0.956 . S
H650 C637 0.961 . S
H651 C637 0.961 . S
H652 C638 0.958 . S
H653 C638 0.961 . S
H654 C638 0.960 . S
C655 C656 1.391 . S
C655 C657 1.394 . S
C655 H671 0.931 . S
C656 C655 1.391 . S
C656 C660 1.376 . S
C657 C655 1.394 . S
C657 C658 1.369 . S
C657 C661 1.531 1_455 S
C658 C657 1.369 . S
C658 C659 1.410 . S
C658 C666 1.503 . S
C659 C658 1.410 . S
C659 C660 1.392 . S
C659 C662 1.511 . S
C660 C656 1.376 . S
C660 C659 1.392 . S
C660 H672 0.929 . S
C661 C657 1.531 1_655 S
C661 H673 0.960 . S
C661 H674 0.962 . S
C661 H675 0.960 . S
C662 C659 1.511 . S
C662 H676 0.961 . S
C662 H677 0.961 . S
C662 H678 0.961 . S
C663 C664 1.370 1_655 S
C663 C665 1.363 . S
C663 H679 0.931 . S
C664 C663 1.370 1_455 S
C664 C668 1.408 . S
C665 C663 1.363 . S
C665 C666 1.370 1_655 S
C665 C669 1.524 . S
C666 C658 1.503 . S
C666 C665 1.370 1_455 S
C666 C667 1.403 . S
C667 C666 1.403 . S
C667 C668 1.404 . S
C667 C670 1.539 . S
C668 C664 1.408 . S
C668 C667 1.404 . S
C668 H680 0.930 . S
C669 C665 1.524 . S
C669 H681 0.956 . S
C669 H682 0.961 . S
C669 H683 0.961 . S
C670 C667 1.539 . S
C670 H684 0.958 . S
C670 H685 0.961 . S
C670 H686 0.960 . S
H671 C655 0.931 . S
H672 C660 0.929 . S
H673 C661 0.960 . S
H674 C661 0.962 . S
H675 C661 0.960 . S
H676 C662 0.961 . S
H677 C662 0.961 . S
H678 C662 0.961 . S
H679 C663 0.931 . S
H680 C668 0.930 . S
H681 C669 0.956 . S
H682 C669 0.961 . S
H683 C669 0.961 . S
H684 C670 0.958 . S
H685 C670 0.961 . S
H686 C670 0.960 . S
C312 C269 1.382 . S
C304 C29 1.404 . S
C336 C137 1.445 . S
C344 C287 1.476 . S
C368 C225 1.482 . S
C376 C300 1.466 . S
C400 C49 1.410 . S
C408 C267 1.421 1_455 S
C440 C278 1.490 1_545 S
C432 C117 1.447 . S
C464 C205 1.444 . S
C472 C291 1.493 . S
C504 C280 1.412 1_545 S
C496 C233 1.374 . S
C528 C57 1.411 . S
C536 C293 1.420 . S
C568 C274 1.464 . S
C560 C108 1.468 . S
C600 C282 1.381 . S
C592 C196 1.393 . S
C632 C295 1.396 . S
C624 C20 1.369 . S
C656 C145 1.481 . S
C664 C265 1.487 1_455 S
