# Generated by pormake.
# Topology ocu, (6,8)-cn, num edge types: 1
# Building blocks:
#     Node 0, Type 0, BuildingBlock: KUMBUR_clean_sbu_0, # of connection points: 6
#     Node 1, Type 0, BuildingBlock: KUMBUR_clean_sbu_0, # of connection points: 6
#     Node 2, Type 0, BuildingBlock: KUMBUR_clean_sbu_0, # of connection points: 6
#     Node 3, Type 0, BuildingBlock: KUMBUR_clean_sbu_0, # of connection points: 6
#     Node 4, Type 0, BuildingBlock: KUMBUR_clean_sbu_0, # of connection points: 6
#     Node 5, Type 0, BuildingBlock: KUMBUR_clean_sbu_0, # of connection points: 6
#     Node 6, Type 0, BuildingBlock: KUMBUR_clean_sbu_0, # of connection points: 6
#     Node 7, Type 0, BuildingBlock: KUMBUR_clean_sbu_0, # of connection points: 6
#     Node 8, Type 1, BuildingBlock: GIZVER_clean_sbu_0, # of connection points: 8
#     Node 9, Type 1, BuildingBlock: GIZVER_clean_sbu_0, # of connection points: 8
#     Node 10, Type 1, BuildingBlock: GIZVER_clean_sbu_0, # of connection points: 8
#     Node 11, Type 1, BuildingBlock: GIZVER_clean_sbu_0, # of connection points: 8
#     Node 12, Type 1, BuildingBlock: GIZVER_clean_sbu_0, # of connection points: 8
#     Node 13, Type 1, BuildingBlock: GIZVER_clean_sbu_0, # of connection points: 8
#     Edge 14, Type (0, 1), BuildingBlock: UVAHIK_clean_linker_0, # of connection points: 2
#     Edge 15, Type (0, 1), BuildingBlock: UVAHIK_clean_linker_0, # of connection points: 2
#     Edge 16, Type (0, 1), BuildingBlock: UVAHIK_clean_linker_0, # of connection points: 2
#     Edge 17, Type (0, 1), BuildingBlock: UVAHIK_clean_linker_0, # of connection points: 2
#     Edge 18, Type (0, 1), BuildingBlock: UVAHIK_clean_linker_0, # of connection points: 2
#     Edge 19, Type (0, 1), BuildingBlock: UVAHIK_clean_linker_0, # of connection points: 2
#     Edge 20, Type (0, 1), BuildingBlock: UVAHIK_clean_linker_0, # of connection points: 2
#     Edge 21, Type (0, 1), BuildingBlock: UVAHIK_clean_linker_0, # of connection points: 2
#     Edge 22, Type (0, 1), BuildingBlock: UVAHIK_clean_linker_0, # of connection points: 2
#     Edge 23, Type (0, 1), BuildingBlock: UVAHIK_clean_linker_0, # of connection points: 2
#     Edge 24, Type (0, 1), BuildingBlock: UVAHIK_clean_linker_0, # of connection points: 2
#     Edge 25, Type (0, 1), BuildingBlock: UVAHIK_clean_linker_0, # of connection points: 2
#     Edge 26, Type (0, 1), BuildingBlock: UVAHIK_clean_linker_0, # of connection points: 2
#     Edge 27, Type (0, 1), BuildingBlock: UVAHIK_clean_linker_0, # of connection points: 2
#     Edge 28, Type (0, 1), BuildingBlock: UVAHIK_clean_linker_0, # of connection points: 2
#     Edge 29, Type (0, 1), BuildingBlock: UVAHIK_clean_linker_0, # of connection points: 2
#     Edge 30, Type (0, 1), BuildingBlock: UVAHIK_clean_linker_0, # of connection points: 2
#     Edge 31, Type (0, 1), BuildingBlock: UVAHIK_clean_linker_0, # of connection points: 2
#     Edge 32, Type (0, 1), BuildingBlock: UVAHIK_clean_linker_0, # of connection points: 2
#     Edge 33, Type (0, 1), BuildingBlock: UVAHIK_clean_linker_0, # of connection points: 2
#     Edge 34, Type (0, 1), BuildingBlock: UVAHIK_clean_linker_0, # of connection points: 2
#     Edge 35, Type (0, 1), BuildingBlock: UVAHIK_clean_linker_0, # of connection points: 2
#     Edge 36, Type (0, 1), BuildingBlock: UVAHIK_clean_linker_0, # of connection points: 2
#     Edge 37, Type (0, 1), BuildingBlock: UVAHIK_clean_linker_0, # of connection points: 2
#     Edge 38, Type (0, 1), BuildingBlock: UVAHIK_clean_linker_0, # of connection points: 2
#     Edge 39, Type (0, 1), BuildingBlock: UVAHIK_clean_linker_0, # of connection points: 2
#     Edge 40, Type (0, 1), BuildingBlock: UVAHIK_clean_linker_0, # of connection points: 2
#     Edge 41, Type (0, 1), BuildingBlock: UVAHIK_clean_linker_0, # of connection points: 2
#     Edge 42, Type (0, 1), BuildingBlock: UVAHIK_clean_linker_0, # of connection points: 2
#     Edge 43, Type (0, 1), BuildingBlock: UVAHIK_clean_linker_0, # of connection points: 2
#     Edge 44, Type (0, 1), BuildingBlock: UVAHIK_clean_linker_0, # of connection points: 2
#     Edge 45, Type (0, 1), BuildingBlock: UVAHIK_clean_linker_0, # of connection points: 2
#     Edge 46, Type (0, 1), BuildingBlock: UVAHIK_clean_linker_0, # of connection points: 2
#     Edge 47, Type (0, 1), BuildingBlock: UVAHIK_clean_linker_0, # of connection points: 2
#     Edge 48, Type (0, 1), BuildingBlock: UVAHIK_clean_linker_0, # of connection points: 2
#     Edge 49, Type (0, 1), BuildingBlock: UVAHIK_clean_linker_0, # of connection points: 2
#     Edge 50, Type (0, 1), BuildingBlock: UVAHIK_clean_linker_0, # of connection points: 2
#     Edge 51, Type (0, 1), BuildingBlock: UVAHIK_clean_linker_0, # of connection points: 2
#     Edge 52, Type (0, 1), BuildingBlock: UVAHIK_clean_linker_0, # of connection points: 2
#     Edge 53, Type (0, 1), BuildingBlock: UVAHIK_clean_linker_0, # of connection points: 2
#     Edge 54, Type (0, 1), BuildingBlock: UVAHIK_clean_linker_0, # of connection points: 2
#     Edge 55, Type (0, 1), BuildingBlock: UVAHIK_clean_linker_0, # of connection points: 2
#     Edge 56, Type (0, 1), BuildingBlock: UVAHIK_clean_linker_0, # of connection points: 2
#     Edge 57, Type (0, 1), BuildingBlock: UVAHIK_clean_linker_0, # of connection points: 2
#     Edge 58, Type (0, 1), BuildingBlock: UVAHIK_clean_linker_0, # of connection points: 2
#     Edge 59, Type (0, 1), BuildingBlock: UVAHIK_clean_linker_0, # of connection points: 2
#     Edge 60, Type (0, 1), BuildingBlock: UVAHIK_clean_linker_0, # of connection points: 2
#     Edge 61, Type (0, 1), BuildingBlock: UVAHIK_clean_linker_0, # of connection points: 2
# Relax obj value: 0.163
# Max RMSD: 0.304
# Mean RMSD: 0.215
data_MOF--net-ocu--node1-KUMBUR_clean_sbu_0--node2-GIZVER_clean_sbu_0--edge1-UVAHIK_clean_linker_0
_symmetry_space_group_name_H-M    P1
_symmetry_Int_Tables_number       1
_symmetry_cell_setting            triclinic
loop_
_symmetry_equiv_pos_as_xyz
'x, y, z'
_cell_length_a     53.425323
_cell_length_b     55.652392
_cell_length_c     43.243763
_cell_angle_alpha  80.100272
_cell_angle_beta   99.53248
_cell_angle_gamma 108.88269
loop_
_atom_site_label
_atom_site_type_symbol
_atom_site_fract_x
_atom_site_fract_y
_atom_site_fract_z
_atom_type_partial_charge
Tb0 Tb 0.26315 0.24023 0.21509 0.0
C1 C 0.32695 0.2862 0.33145 0.0
C2 C 0.32997 0.24941 0.36903 0.0
C3 C 0.36552 0.28976 0.37109 0.0
C4 C 0.31652 0.26074 0.34265 0.0
C5 C 0.35127 0.30123 0.34591 0.0
C6 C 0.35487 0.26387 0.38264 0.0
C7 C 0.34425 0.33816 0.31154 0.0
N8 N 0.31238 0.29658 0.30741 0.0
C9 C 0.32015 0.32246 0.29814 0.0
C10 C 0.36007 0.32745 0.33527 0.0
Tb11 Tb 0.27363 0.26921 0.2861 0.0
N12 N 0.2922 0.24766 0.32919 0.0
C13 C 0.27931 0.2236 0.34269 0.0
C14 C 0.31755 0.22424 0.38161 0.0
C15 C 0.29192 0.21145 0.3687 0.0
H16 H 0.30816 0.33091 0.27963 0.0
H17 H 0.28188 0.19215 0.37867 0.0
H18 H 0.36567 0.25542 0.40269 0.0
H19 H 0.35063 0.35849 0.30355 0.0
H20 H 0.25958 0.21324 0.33311 0.0
H21 H 0.2476 0.31433 0.12182 0.0
H22 H 0.32723 0.2148 0.4018 0.0
H23 H 0.23447 0.17732 0.21954 0.0
H24 H 0.27257 0.29517 0.1665 0.0
H25 H 0.19325 0.14728 0.197 0.0
H26 H 0.38437 0.3009 0.38235 0.0
H27 H 0.20241 0.28932 0.10092 0.0
H28 H 0.16627 0.24697 0.10153 0.0
H29 H 0.37866 0.33966 0.34573 0.0
H30 H 0.15147 0.2011 0.12193 0.0
N31 N 0.24179 0.25967 0.17228 0.0
C32 C 0.25303 0.28384 0.15787 0.0
C33 C 0.21332 0.28078 0.12075 0.0
C34 C 0.20272 0.25539 0.13392 0.0
C35 C 0.23884 0.29488 0.13237 0.0
C36 C 0.21776 0.24527 0.15976 0.0
H37 H 0.16169 0.16357 0.15716 0.0
N38 N 0.22591 0.21066 0.19402 0.0
C39 C 0.19747 0.16764 0.18961 0.0
C40 C 0.20955 0.21968 0.17093 0.0
C41 C 0.22086 0.1848 0.20236 0.0
C42 C 0.17967 0.17691 0.16721 0.0
C43 C 0.1859 0.2032 0.15706 0.0
O44 O 0.28063 0.21399 0.20455 0.0
O45 O 0.28459 0.2431 0.26276 0.0
O46 O 0.31123 0.28254 0.26579 0.0
O47 O 0.29451 0.27743 0.21345 0.0
O48 O 0.27066 0.20793 0.24835 0.0
O49 O 0.28767 0.25136 0.17835 0.0
O50 O 0.26092 0.29804 0.29867 0.0
O51 O 0.25196 0.26655 0.23847 0.0
O52 O 0.22591 0.22378 0.23565 0.0
O53 O 0.23981 0.23379 0.28738 0.0
O54 O 0.2669 0.30183 0.25308 0.0
O55 O 0.24798 0.25938 0.32146 0.0
C56 C 0.28419 0.21991 0.27148 0.0
C57 C 0.28703 0.21754 0.15106 0.0
C58 C 0.30068 0.19418 0.11683 0.0
C59 C 0.30457 0.20486 0.14535 0.0
C60 C 0.27867 0.19595 0.09465 0.0
C61 C 0.26543 0.21908 0.12831 0.0
C62 C 0.26124 0.20826 0.10041 0.0
C63 C 0.31338 0.28822 0.23524 0.0
C64 C 0.29132 0.22906 0.18067 0.0
C65 C 0.16987 0.21338 0.1327 0.0
C66 C 0.17829 0.23949 0.12113 0.0
C67 C 0.25284 0.28998 0.23007 0.0
C68 C 0.2523 0.29257 0.35176 0.0
C69 C 0.23581 0.3059 0.35854 0.0
C70 C 0.2398 0.31495 0.38818 0.0
C71 C 0.26089 0.31083 0.41048 0.0
C72 C 0.27287 0.28852 0.3747 0.0
C73 C 0.2772 0.29772 0.40374 0.0
C74 C 0.22247 0.22107 0.2657 0.0
C75 C 0.24779 0.28282 0.3209 0.0
H76 H 0.32142 0.20377 0.16273 0.0
H77 H 0.27477 0.18763 0.07281 0.0
H78 H 0.25181 0.22875 0.13199 0.0
H79 H 0.24443 0.20948 0.08309 0.0
H80 H 0.21966 0.30876 0.34103 0.0
H81 H 0.26497 0.31794 0.43316 0.0
H82 H 0.28552 0.27814 0.37034 0.0
H83 H 0.29326 0.29462 0.42118 0.0
Tb84 Tb 0.79173 0.25334 0.25195 0.0
C85 C 0.69105 0.25545 0.28262 0.0
C86 C 0.65261 0.24186 0.24397 0.0
C87 C 0.64809 0.22965 0.29985 0.0
C88 C 0.68003 0.25435 0.25149 0.0
C89 C 0.67489 0.24364 0.30718 0.0
C90 C 0.63695 0.22876 0.26828 0.0
C91 C 0.71193 0.26229 0.3444 0.0
N92 N 0.71716 0.26908 0.28882 0.0
C93 C 0.72718 0.27368 0.31942 0.0
C94 C 0.68588 0.24675 0.33836 0.0
Tb95 Tb 0.74036 0.28436 0.2448 0.0
N96 N 0.69563 0.26736 0.2286 0.0
C97 C 0.68418 0.27151 0.1981 0.0
C98 C 0.64147 0.2439 0.21237 0.0
C99 C 0.65721 0.25932 0.18943 0.0
H100 H 0.74701 0.2856 0.32583 0.0
H101 H 0.6486 0.26185 0.16507 0.0
H102 H 0.61599 0.2187 0.26295 0.0
H103 H 0.72041 0.2655 0.36842 0.0
H104 H 0.69629 0.28341 0.1802 0.0
H105 H 0.88827 0.28335 0.32141 0.0
H106 H 0.62052 0.23458 0.20566 0.0
H107 H 0.77688 0.24991 0.17235 0.0
H108 H 0.83987 0.26241 0.31253 0.0
H109 H 0.79969 0.26412 0.12571 0.0
H110 H 0.63558 0.22016 0.31843 0.0
H111 H 0.91379 0.30281 0.27584 0.0
H112 H 0.91433 0.31083 0.2171 0.0
H113 H 0.67418 0.23791 0.35783 0.0
H114 H 0.89027 0.30502 0.16396 0.0
N115 N 0.83733 0.27126 0.26234 0.0
C116 C 0.85067 0.27123 0.29239 0.0
C117 C 0.89245 0.29386 0.27183 0.0
C118 C 0.8792 0.29225 0.2412 0.0
C119 C 0.87815 0.28293 0.29757 0.0
C120 C 0.85135 0.2804 0.23724 0.0
H121 H 0.84775 0.28753 0.1298 0.0
N122 N 0.81122 0.26486 0.20511 0.0
C123 C 0.81074 0.26791 0.14862 0.0
C124 C 0.83789 0.27692 0.2076 0.0
C125 C 0.79778 0.25971 0.17584 0.0
C126 C 0.83782 0.28112 0.15099 0.0
C127 C 0.85183 0.28554 0.18071 0.0
O128 O 0.78033 0.21561 0.24049 0.0
O129 O 0.75363 0.25152 0.26488 0.0
O130 O 0.76998 0.2976 0.28427 0.0
O131 O 0.80693 0.28461 0.28108 0.0
O132 O 0.78023 0.24105 0.29986 0.0
O133 O 0.81022 0.22746 0.27911 0.0
O134 O 0.75946 0.32359 0.24829 0.0
O135 O 0.77799 0.28561 0.23218 0.0
O136 O 0.75849 0.23501 0.21847 0.0
O137 O 0.72642 0.25652 0.21089 0.0
O138 O 0.75301 0.29836 0.19726 0.0
O139 O 0.71768 0.31005 0.23365 0.0
C140 C 0.75614 0.24197 0.29341 0.0
C141 C 0.77985 0.18646 0.28793 0.0
C142 C 0.78062 0.16082 0.33994 0.0
C143 C 0.79337 0.18047 0.31744 0.0
C144 C 0.75352 0.14747 0.3326 0.0
C145 C 0.75283 0.17286 0.28107 0.0
C146 C 0.73978 0.15357 0.3034 0.0
C147 C 0.79493 0.29774 0.29288 0.0
C148 C 0.79407 0.2081 0.26588 0.0
C149 C 0.87934 0.2981 0.18434 0.0
C150 C 0.89301 0.30148 0.21456 0.0
C151 C 0.77667 0.29614 0.20406 0.0
C152 C 0.74135 0.35108 0.21054 0.0
C153 C 0.73263 0.34634 0.17902 0.0
C154 C 0.73445 0.36666 0.15418 0.0
C155 C 0.74584 0.39193 0.16181 0.0
C156 C 0.75293 0.37629 0.21729 0.0
C157 C 0.75525 0.39659 0.19299 0.0
C158 C 0.73568 0.23867 0.20497 0.0
C159 C 0.73828 0.33006 0.23679 0.0
H160 H 0.81393 0.19165 0.32301 0.0
H161 H 0.743 0.13201 0.34905 0.0
H162 H 0.74166 0.17733 0.25877 0.0
H163 H 0.71892 0.14325 0.29803 0.0
H164 H 0.72426 0.3268 0.17407 0.0
H165 H 0.74689 0.40834 0.14401 0.0
H166 H 0.75993 0.38027 0.24142 0.0
H167 H 0.76389 0.41608 0.1984 0.0
Tb168 Tb 0.75618 0.75283 0.28621 0.0
C169 C 0.81435 0.82102 0.17653 0.0
C170 C 0.77865 0.82553 0.13587 0.0
C171 C 0.82128 0.85898 0.13763 0.0
C172 C 0.78853 0.8117 0.16294 0.0
C173 C 0.83135 0.84441 0.16355 0.0
C174 C 0.79492 0.84957 0.12383 0.0
C175 C 0.86751 0.83576 0.20045 0.0
N176 N 0.82333 0.80616 0.20121 0.0
C177 C 0.84981 0.81274 0.21255 0.0
C178 C 0.85815 0.8519 0.17621 0.0
Tb179 Tb 0.79299 0.76874 0.21946 0.0
N180 N 0.77375 0.78819 0.17492 0.0
C181 C 0.74952 0.77653 0.15921 0.0
C182 C 0.75313 0.81436 0.12105 0.0
C183 C 0.73869 0.78957 0.13249 0.0
H184 H 0.85738 0.80056 0.23137 0.0
H185 H 0.71918 0.78048 0.12077 0.0
H186 H 0.78761 0.86061 0.10325 0.0
H187 H 0.88834 0.84108 0.20994 0.0
H188 H 0.73795 0.75742 0.16756 0.0
H189 H 0.83131 0.74229 0.38386 0.0
H190 H 0.74476 0.82437 0.10026 0.0
H191 H 0.69196 0.72066 0.27667 0.0
H192 H 0.81131 0.76521 0.33789 0.0
H193 H 0.66194 0.67932 0.29789 0.0
H194 H 0.83393 0.87714 0.12749 0.0
H195 H 0.80725 0.69763 0.40349 0.0
H196 H 0.76523 0.6604 0.40031 0.0
H197 H 0.8719 0.86969 0.16685 0.0
H198 H 0.71876 0.64316 0.37687 0.0
N199 N 0.77639 0.73361 0.33018 0.0
C200 C 0.80041 0.74576 0.34593 0.0
C201 C 0.79835 0.70758 0.38309 0.0
C202 C 0.77294 0.6959 0.36838 0.0
C203 C 0.81192 0.7328 0.37216 0.0
C204 C 0.76236 0.70969 0.34183 0.0
H205 H 0.67979 0.65038 0.33911 0.0
N206 N 0.72674 0.71496 0.30486 0.0
C207 C 0.68293 0.68481 0.30662 0.0
C208 C 0.73648 0.69999 0.32871 0.0
C209 C 0.70004 0.70827 0.29468 0.0
C210 C 0.69309 0.66848 0.32979 0.0
C211 C 0.72009 0.67623 0.34163 0.0
O212 O 0.72547 0.7659 0.29545 0.0
O213 O 0.76142 0.77541 0.23977 0.0
O214 O 0.80321 0.8042 0.2405 0.0
O215 O 0.79205 0.78601 0.29098 0.0
O216 O 0.72358 0.75874 0.25042 0.0
O217 O 0.76345 0.77484 0.32358 0.0
O218 O 0.82357 0.7552 0.2109 0.0
O219 O 0.78759 0.74601 0.26581 0.0
O220 O 0.74441 0.7178 0.26387 0.0
O221 O 0.75681 0.73626 0.21386 0.0
O222 O 0.82548 0.76338 0.25576 0.0
O223 O 0.78556 0.74603 0.18276 0.0
C224 C 0.73725 0.77375 0.22901 0.0
C225 C 0.72636 0.77277 0.34823 0.0
C226 C 0.70703 0.78918 0.38476 0.0
C227 C 0.71937 0.79283 0.35705 0.0
C228 C 0.70166 0.76497 0.40313 0.0
C229 C 0.72099 0.74904 0.36723 0.0
C230 C 0.70864 0.74518 0.39443 0.0
C231 C 0.80325 0.80579 0.27069 0.0
C232 C 0.73958 0.77699 0.31949 0.0
C233 C 0.73092 0.66162 0.36683 0.0
C234 C 0.75736 0.67144 0.38017 0.0
C235 C 0.81176 0.74802 0.27685 0.0
C236 C 0.82257 0.74701 0.15867 0.0
C237 C 0.82921 0.72645 0.15061 0.0
C238 C 0.84111 0.72925 0.12279 0.0
C239 C 0.84659 0.7531 0.10365 0.0
C240 C 0.82813 0.77042 0.13899 0.0
C241 C 0.84016 0.77344 0.11174 0.0
C242 C 0.74458 0.71665 0.2336 0.0
C243 C 0.80937 0.74364 0.18723 0.0
H244 H 0.7239 0.81129 0.34257 0.0
H245 H 0.69168 0.76114 0.4241 0.0
H246 H 0.72636 0.7335 0.36112 0.0
H247 H 0.70441 0.72671 0.40884 0.0
H248 H 0.82466 0.70823 0.16562 0.0
H249 H 0.85615 0.75617 0.08248 0.0
H250 H 0.82309 0.78633 0.14457 0.0
H251 H 0.84449 0.79164 0.09675 0.0
Tb252 Tb 0.28938 0.73707 0.25979 0.0
C253 C 0.2602 0.82075 0.17443 0.0
C254 C 0.30217 0.85459 0.17547 0.0
C255 C 0.27049 0.85204 0.12795 0.0
C256 C 0.28454 0.83239 0.19013 0.0
C257 C 0.25239 0.831 0.14354 0.0
C258 C 0.29535 0.86389 0.14395 0.0
C259 C 0.2079 0.80248 0.14837 0.0
N260 N 0.24296 0.80131 0.19091 0.0
C261 C 0.21651 0.79355 0.17923 0.0
C262 C 0.22608 0.82092 0.13015 0.0
Tb263 Tb 0.25868 0.78752 0.24145 0.0
N264 N 0.29019 0.8229 0.22058 0.0
C265 C 0.31266 0.83574 0.23833 0.0
C266 C 0.32569 0.86717 0.19322 0.0
C267 C 0.33076 0.85789 0.22494 0.0
H268 H 0.2022 0.77998 0.19367 0.0
H269 H 0.34867 0.86771 0.2391 0.0
H270 H 0.30875 0.88072 0.13213 0.0
H271 H 0.18717 0.79548 0.1389 0.0
H272 H 0.31683 0.82911 0.26289 0.0
H273 H 0.26221 0.65195 0.20232 0.0
H274 H 0.33976 0.88428 0.18287 0.0
H275 H 0.29143 0.74295 0.33596 0.0
H276 H 0.28412 0.69766 0.2085 0.0
H277 H 0.27538 0.71578 0.38385 0.0
H278 H 0.26501 0.86001 0.10409 0.0
H279 H 0.23711 0.62293 0.24449 0.0
H280 H 0.22455 0.6163 0.29959 0.0
H281 H 0.21928 0.82823 0.10649 0.0
H282 H 0.22919 0.63355 0.34968 0.0
N283 N 0.26908 0.69508 0.25194 0.0
C284 C 0.27248 0.68525 0.22651 0.0
C285 C 0.24621 0.64306 0.24693 0.0
C286 C 0.24553 0.65264 0.27455 0.0
C287 C 0.26034 0.65936 0.2231 0.0
C288 C 0.25775 0.679 0.27652 0.0
H289 H 0.24919 0.67031 0.38169 0.0
N290 N 0.27409 0.7138 0.30585 0.0
C291 C 0.27092 0.7079 0.36165 0.0
C292 C 0.26065 0.68862 0.30462 0.0
C293 C 0.27985 0.72342 0.33412 0.0
C294 C 0.25617 0.68226 0.36036 0.0
C295 C 0.25102 0.67224 0.33166 0.0
O296 O 0.32102 0.7286 0.29104 0.0
O297 O 0.29317 0.77615 0.238 0.0
O298 O 0.2439 0.76233 0.20358 0.0
O299 O 0.25505 0.72471 0.22445 0.0
O300 O 0.30045 0.75174 0.21233 0.0
O301 O 0.32057 0.73102 0.241 0.0
O302 O 0.22466 0.79599 0.24943 0.0
O303 O 0.25937 0.75187 0.2706 0.0
O304 O 0.31253 0.76794 0.28844 0.0
O305 O 0.28235 0.79023 0.28769 0.0
O306 O 0.22262 0.75684 0.252 0.0
O307 O 0.26352 0.81751 0.26794 0.0
C308 C 0.30043 0.77488 0.21203 0.0
C309 C 0.33512 0.69778 0.27207 0.0
C310 C 0.3484 0.66602 0.25089 0.0
C311 C 0.347 0.69117 0.24916 0.0
C312 C 0.33815 0.64778 0.27613 0.0
C313 C 0.32525 0.67906 0.29707 0.0
C314 C 0.32678 0.65431 0.29899 0.0
C315 C 0.24226 0.73803 0.203 0.0
C316 C 0.33128 0.72346 0.26856 0.0
C317 C 0.23716 0.64632 0.32932 0.0
C318 C 0.2344 0.63652 0.30077 0.0
C319 C 0.2343 0.7414 0.26913 0.0
C320 C 0.23157 0.83956 0.25442 0.0
C321 C 0.2275 0.85287 0.27717 0.0
C322 C 0.22202 0.87645 0.26794 0.0
C323 C 0.22041 0.88623 0.23567 0.0
C324 C 0.22988 0.8499 0.22249 0.0
C325 C 0.22431 0.87303 0.2132 0.0
C326 C 0.30471 0.78495 0.29914 0.0
C327 C 0.23836 0.81542 0.26429 0.0
H328 H 0.35441 0.70534 0.22959 0.0
H329 H 0.33921 0.62843 0.27845 0.0
H330 H 0.31594 0.68334 0.31499 0.0
H331 H 0.31898 0.64005 0.31827 0.0
H332 H 0.22898 0.84511 0.30194 0.0
H333 H 0.2157 0.90398 0.22765 0.0
H334 H 0.23281 0.84023 0.2046 0.0
H335 H 0.22296 0.88074 0.18844 0.0
Tb336 Tb 0.29953 0.73869 0.74882 0.0
C337 C 0.22354 0.76936 0.80738 0.0
C338 C 0.18712 0.73044 0.81516 0.0
C339 C 0.19985 0.76072 0.85347 0.0
C340 C 0.20803 0.74623 0.79786 0.0
C341 C 0.21887 0.77743 0.83451 0.0
C342 C 0.18395 0.73721 0.84377 0.0
C343 C 0.24835 0.81939 0.81887 0.0
N344 N 0.2411 0.78517 0.78795 0.0
C345 C 0.25192 0.81056 0.79203 0.0
C346 C 0.23227 0.80257 0.84067 0.0
Tb347 Tb 0.24855 0.76775 0.74698 0.0
N348 N 0.2115 0.74067 0.76979 0.0
C349 C 0.19229 0.72125 0.75592 0.0
C350 C 0.16914 0.70912 0.80235 0.0
C351 C 0.17131 0.70496 0.77219 0.0
H352 H 0.2645 0.8237 0.77546 0.0
H353 H 0.15673 0.68923 0.76134 0.0
H354 H 0.1684 0.72502 0.85772 0.0
H355 H 0.25797 0.83918 0.82268 0.0
H356 H 0.19244 0.71794 0.73222 0.0
H357 H 0.37717 0.74076 0.84806 0.0
H358 H 0.15282 0.6965 0.81485 0.0
H359 H 0.30721 0.74962 0.67073 0.0
H360 H 0.33191 0.72618 0.82086 0.0
H361 H 0.34198 0.77433 0.63776 0.0
H362 H 0.19633 0.76636 0.87473 0.0
H363 H 0.41303 0.77226 0.81975 0.0
H364 H 0.42797 0.79773 0.76873 0.0
H365 H 0.22927 0.80951 0.86127 0.0
H366 H 0.41822 0.80721 0.71115 0.0
N367 N 0.34142 0.74918 0.77695 0.0
C368 C 0.3473 0.73933 0.80767 0.0
C369 C 0.39312 0.76575 0.80747 0.0
C370 C 0.38762 0.77413 0.77543 0.0
C371 C 0.37299 0.74787 0.82346 0.0
C372 C 0.36134 0.76512 0.76054 0.0
H373 H 0.38652 0.79777 0.66204 0.0
N374 N 0.33065 0.75995 0.71451 0.0
C375 C 0.34603 0.77383 0.66319 0.0
C376 C 0.35577 0.77066 0.72823 0.0
C377 C 0.32605 0.76005 0.68234 0.0
C378 C 0.37114 0.78702 0.67696 0.0
C379 C 0.3765 0.785 0.70986 0.0
O380 O 0.27774 0.70008 0.74479 0.0
O381 O 0.26095 0.73421 0.76281 0.0
O382 O 0.27766 0.77863 0.78868 0.0
O383 O 0.31434 0.76561 0.78404 0.0
O384 O 0.28694 0.72087 0.79553 0.0
O385 O 0.31874 0.71386 0.73836 0.0
O386 O 0.22144 0.78905 0.73146 0.0
O387 O 0.28457 0.77012 0.72786 0.0
O388 O 0.27483 0.73969 0.70329 0.0
O389 O 0.23548 0.73401 0.72176 0.0
O390 O 0.28116 0.80336 0.73884 0.0
O391 O 0.23784 0.7762 0.69825 0.0
C392 C 0.26344 0.72347 0.79083 0.0
C393 C 0.30182 0.67094 0.75983 0.0
C394 C 0.31401 0.6496 0.8115 0.0
C395 C 0.30956 0.67118 0.7923 0.0
C396 C 0.30963 0.62721 0.79773 0.0
C397 C 0.29754 0.64858 0.74637 0.0
C398 C 0.3013 0.62673 0.76536 0.0
C399 C 0.30233 0.7777 0.79763 0.0
C400 C 0.29794 0.69389 0.74009 0.0
C401 C 0.40223 0.79568 0.72484 0.0
C402 C 0.40778 0.79027 0.75761 0.0
C403 C 0.29633 0.79378 0.72805 0.0
C404 C 0.23136 0.81599 0.68344 0.0
C405 C 0.22441 0.81806 0.6506 0.0
C406 C 0.23276 0.84177 0.63175 0.0
C407 C 0.24855 0.86339 0.64629 0.0
C408 C 0.2469 0.83781 0.69754 0.0
C409 C 0.25553 0.86136 0.67897 0.0
C410 C 0.2487 0.73032 0.70071 0.0
C411 C 0.22413 0.79052 0.7019 0.0
H412 H 0.31214 0.68823 0.80259 0.0
H413 H 0.31323 0.6103 0.81174 0.0
H414 H 0.29133 0.64805 0.72128 0.0
H415 H 0.2981 0.60949 0.7549 0.0
H416 H 0.21268 0.80111 0.63972 0.0
H417 H 0.25486 0.88206 0.63256 0.0
H418 H 0.25261 0.83668 0.72276 0.0
H419 H 0.26752 0.87812 0.68996 0.0
Tb420 Tb 0.26065 0.24992 0.78749 0.0
C421 C 0.31768 0.31944 0.67941 0.0
C422 C 0.2824 0.32362 0.63796 0.0
C423 C 0.32408 0.35823 0.64193 0.0
C424 C 0.29225 0.30963 0.66488 0.0
C425 C 0.33413 0.34366 0.66788 0.0
C426 C 0.29823 0.3482 0.62698 0.0
C427 C 0.36971 0.33641 0.707 0.0
N428 N 0.32667 0.30467 0.7042 0.0
C429 C 0.35265 0.31244 0.71745 0.0
C430 C 0.36034 0.35222 0.6823 0.0
Tb431 Tb 0.29696 0.26614 0.72044 0.0
N432 N 0.27779 0.28571 0.67602 0.0
C433 C 0.25394 0.27389 0.65967 0.0
C434 C 0.2573 0.31216 0.62235 0.0
C435 C 0.2432 0.28704 0.63299 0.0
H436 H 0.36008 0.30047 0.73671 0.0
H437 H 0.224 0.27777 0.62071 0.0
H438 H 0.29093 0.35936 0.60651 0.0
H439 H 0.39006 0.34268 0.71802 0.0
H440 H 0.24261 0.25453 0.66741 0.0
H441 H 0.3341 0.23278 0.8841 0.0
H442 H 0.24896 0.32227 0.60163 0.0
H443 H 0.19529 0.22213 0.77834 0.0
H444 H 0.31622 0.25774 0.83872 0.0
H445 H 0.16287 0.18252 0.79935 0.0
H446 H 0.33631 0.37697 0.63282 0.0
H447 H 0.30685 0.18931 0.90369 0.0
H448 H 0.26259 0.15489 0.90071 0.0
H449 H 0.37362 0.37073 0.67417 0.0
H450 H 0.21564 0.14114 0.87758 0.0
N451 N 0.27914 0.22851 0.83101 0.0
C452 C 0.30386 0.23886 0.84659 0.0
C453 C 0.29883 0.20017 0.88348 0.0
C454 C 0.27288 0.19039 0.86898 0.0
C455 C 0.31422 0.22472 0.87257 0.0
C456 C 0.2635 0.20532 0.84266 0.0
H457 H 0.17806 0.15163 0.84021 0.0
N458 N 0.229 0.21362 0.80611 0.0
C459 C 0.18382 0.1864 0.80795 0.0
C460 C 0.23736 0.19757 0.82973 0.0
C461 C 0.20238 0.2089 0.79607 0.0
C462 C 0.19247 0.16897 0.83092 0.0
C463 C 0.21949 0.1747 0.8426 0.0
O464 O 0.23265 0.26694 0.79556 0.0
O465 O 0.266 0.27293 0.74126 0.0
O466 O 0.30627 0.30083 0.74311 0.0
O467 O 0.29865 0.28031 0.79335 0.0
O468 O 0.22819 0.25674 0.75201 0.0
O469 O 0.26952 0.27159 0.82557 0.0
O470 O 0.32879 0.25621 0.70824 0.0
O471 O 0.29115 0.24216 0.76601 0.0
O472 O 0.2462 0.21543 0.76387 0.0
O473 O 0.26058 0.23377 0.7145 0.0
O474 O 0.32913 0.25888 0.75577 0.0
O475 O 0.28905 0.24222 0.68511 0.0
C476 C 0.2419 0.27151 0.73053 0.0
C477 C 0.23259 0.27284 0.84822 0.0
C478 C 0.20805 0.28863 0.87918 0.0
C479 C 0.22266 0.29224 0.85348 0.0
C480 C 0.2039 0.2655 0.89967 0.0
C481 C 0.22828 0.25005 0.86914 0.0
C482 C 0.21405 0.24646 0.89472 0.0
C483 C 0.30882 0.30106 0.77398 0.0
C484 C 0.24684 0.2764 0.82051 0.0
C485 C 0.22897 0.15894 0.86758 0.0
C486 C 0.25569 0.16677 0.88074 0.0
C487 C 0.31523 0.24308 0.77641 0.0
C488 C 0.32409 0.24536 0.65624 0.0
C489 C 0.33336 0.22605 0.64928 0.0
C490 C 0.34151 0.22749 0.61935 0.0
C491 C 0.34052 0.24873 0.59679 0.0
C492 C 0.32351 0.26637 0.63335 0.0
C493 C 0.33173 0.26803 0.60385 0.0
C494 C 0.24649 0.21464 0.73347 0.0
C495 C 0.31369 0.24253 0.6867 0.0
H496 H 0.2258 0.30983 0.83725 0.0
H497 H 0.19295 0.26221 0.91974 0.0
H498 H 0.23588 0.23504 0.86571 0.0
H499 H 0.2108 0.2288 0.91074 0.0
H500 H 0.33363 0.20966 0.66683 0.0
H501 H 0.34691 0.25062 0.57376 0.0
H502 H 0.31643 0.28133 0.63813 0.0
H503 H 0.33117 0.2843 0.58628 0.0
Tb504 Tb 0.79191 0.23562 0.76981 0.0
C505 C 0.74942 0.31095 0.66807 0.0
C506 C 0.78696 0.34857 0.65938 0.0
C507 C 0.75128 0.33698 0.61674 0.0
C508 C 0.77377 0.32652 0.67884 0.0
C509 C 0.73727 0.31644 0.63729 0.0
C510 C 0.77614 0.35311 0.62783 0.0
C511 C 0.69688 0.28417 0.65162 0.0
N512 N 0.73628 0.29221 0.68921 0.0
C513 C 0.70976 0.27989 0.68204 0.0
C514 C 0.71088 0.30217 0.62889 0.0
Tb515 Tb 0.75881 0.28493 0.73822 0.0
N516 N 0.78296 0.32167 0.70964 0.0
C517 C 0.80392 0.3398 0.72327 0.0
C518 C 0.80959 0.36615 0.67278 0.0
C519 C 0.8177 0.36203 0.70507 0.0
H520 H 0.69869 0.26608 0.6995 0.0
H521 H 0.83471 0.37587 0.71597 0.0
H522 H 0.78618 0.36968 0.61234 0.0
H523 H 0.67613 0.27369 0.64581 0.0
H524 H 0.81079 0.33703 0.74805 0.0
H525 H 0.71972 0.14217 0.79121 0.0
H526 H 0.82028 0.38337 0.65874 0.0
H527 H 0.8496 0.26104 0.81169 0.0
H528 H 0.74197 0.18185 0.75926 0.0
H529 H 0.87171 0.25416 0.86567 0.0
H530 H 0.74249 0.34133 0.59284 0.0
H531 H 0.73466 0.13482 0.84829 0.0
H532 H 0.76763 0.14976 0.89495 0.0
H533 H 0.70078 0.30575 0.60548 0.0
H534 H 0.80929 0.18047 0.91542 0.0
N535 N 0.769 0.19809 0.79789 0.0
C536 C 0.74883 0.17935 0.78413 0.0
C537 C 0.74445 0.15255 0.83442 0.0
C538 C 0.76613 0.17098 0.84802 0.0
C539 C 0.73606 0.15658 0.80219 0.0
C540 C 0.77828 0.19364 0.8288 0.0
H541 H 0.84871 0.21912 0.90438 0.0
N542 N 0.81391 0.23064 0.81971 0.0
C543 C 0.85193 0.24183 0.85888 0.0
C544 C 0.80164 0.21064 0.84019 0.0
C545 C 0.83931 0.24561 0.82821 0.0
C546 C 0.83883 0.22213 0.88071 0.0
C547 C 0.8136 0.20587 0.87128 0.0
O548 O 0.82762 0.23131 0.76045 0.0
O549 O 0.7914 0.26994 0.73728 0.0
O550 O 0.75055 0.25929 0.70159 0.0
O551 O 0.76021 0.22308 0.73127 0.0
O552 O 0.82775 0.2665 0.75773 0.0
O553 O 0.78962 0.20635 0.74354 0.0
O554 O 0.72477 0.2909 0.7502 0.0
O555 O 0.7588 0.24984 0.76833 0.0
O556 O 0.79342 0.25787 0.80784 0.0
O557 O 0.7912 0.29583 0.7767 0.0
O558 O 0.72261 0.25524 0.75239 0.0
O559 O 0.76394 0.31395 0.76623 0.0
C560 C 0.81623 0.28066 0.73795 0.0
C561 C 0.82523 0.18893 0.75591 0.0
C562 C 0.84328 0.1575 0.74233 0.0
C563 C 0.83463 0.17937 0.7336 0.0
C564 C 0.84246 0.14543 0.77368 0.0
C565 C 0.82488 0.17675 0.7871 0.0
C566 C 0.8334 0.1551 0.79589 0.0
C567 C 0.74971 0.23477 0.70544 0.0
C568 C 0.81532 0.21119 0.74615 0.0
C569 C 0.80061 0.18434 0.89133 0.0
C570 C 0.77689 0.16687 0.87968 0.0
C571 C 0.73415 0.23996 0.76999 0.0
C572 C 0.73001 0.33344 0.75746 0.0
C573 C 0.7243 0.344 0.78178 0.0
C574 C 0.71641 0.3664 0.77503 0.0
C575 C 0.71437 0.37795 0.74344 0.0
C576 C 0.72795 0.34537 0.72626 0.0
C577 C 0.72016 0.3675 0.71935 0.0
C578 C 0.79718 0.28292 0.80419 0.0
C579 C 0.73857 0.31029 0.76512 0.0
H580 H 0.83485 0.1887 0.70944 0.0
H581 H 0.84925 0.12875 0.78114 0.0
H582 H 0.81805 0.18392 0.80465 0.0
H583 H 0.83303 0.14581 0.82003 0.0
H584 H 0.72629 0.3349 0.80594 0.0
H585 H 0.70786 0.39485 0.7372 0.0
H586 H 0.73232 0.33758 0.70728 0.0
H587 H 0.71846 0.37655 0.69517 0.0
Tb588 Tb 0.76163 0.73354 0.71626 0.0
C589 C 0.83623 0.79173 0.81981 0.0
C590 C 0.84395 0.75834 0.86036 0.0
C591 C 0.87794 0.79971 0.85464 0.0
C592 C 0.82784 0.76704 0.8345 0.0
C593 C 0.86104 0.80866 0.8302 0.0
C594 C 0.8694 0.77454 0.86969 0.0
C595 C 0.84923 0.84255 0.79404 0.0
N596 N 0.8191 0.79966 0.79674 0.0
C597 C 0.82483 0.82499 0.78459 0.0
C598 C 0.86762 0.83427 0.8166 0.0
Tb599 Tb 0.77972 0.76951 0.78222 0.0
N600 N 0.80285 0.75239 0.8253 0.0
C601 C 0.7919 0.72957 0.843 0.0
C602 C 0.83349 0.73415 0.87697 0.0
C603 C 0.80715 0.71993 0.86862 0.0
H604 H 0.81092 0.83166 0.76697 0.0
H605 H 0.79857 0.70148 0.88184 0.0
H606 H 0.8822 0.76811 0.88927 0.0
H607 H 0.85387 0.86243 0.78383 0.0
H608 H 0.77167 0.71816 0.83698 0.0
H609 H 0.74083 0.80031 0.61617 0.0
H610 H 0.84521 0.72671 0.89692 0.0
H611 H 0.7309 0.67122 0.73309 0.0
H612 H 0.76848 0.78437 0.66086 0.0
H613 H 0.68788 0.64013 0.71753 0.0
H614 H 0.89721 0.81232 0.86276 0.0
H615 H 0.69425 0.77446 0.60203 0.0
H616 H 0.65774 0.73285 0.61073 0.0
H617 H 0.88646 0.84792 0.82396 0.0
H618 H 0.64339 0.68889 0.63815 0.0
N619 N 0.73784 0.7499 0.67321 0.0
C620 C 0.7483 0.77269 0.6552 0.0
C621 C 0.70632 0.76733 0.62187 0.0
C622 C 0.69632 0.74321 0.63887 0.0
C623 C 0.73261 0.7819 0.62968 0.0
C624 C 0.71287 0.73492 0.66455 0.0
H625 H 0.65477 0.65391 0.67751 0.0
N626 N 0.72229 0.70286 0.70282 0.0
C627 C 0.69232 0.65988 0.70684 0.0
C628 C 0.70481 0.71037 0.6798 0.0
C629 C 0.71678 0.67767 0.71558 0.0
C630 C 0.67365 0.66774 0.68432 0.0
C631 C 0.67995 0.69318 0.67009 0.0
O632 O 0.77685 0.70515 0.70734 0.0
O633 O 0.78729 0.74004 0.76111 0.0
O634 O 0.81466 0.78143 0.75668 0.0
O635 O 0.79341 0.76977 0.70759 0.0
O636 O 0.77033 0.70326 0.752 0.0
O637 O 0.78213 0.74035 0.67631 0.0
O638 O 0.76619 0.79876 0.79211 0.0
O639 O 0.75447 0.7632 0.73733 0.0
O640 O 0.7265 0.72247 0.74108 0.0
O641 O 0.74733 0.73344 0.79056 0.0
O642 O 0.77067 0.79989 0.74667 0.0
O643 O 0.75769 0.76227 0.82079 0.0
C644 C 0.78636 0.71702 0.77226 0.0
C645 C 0.77958 0.70344 0.65395 0.0
C646 C 0.79304 0.68002 0.61953 0.0
C647 C 0.79917 0.69497 0.64479 0.0
C648 C 0.76679 0.67367 0.60405 0.0
C649 C 0.75393 0.69727 0.63748 0.0
C650 C 0.74759 0.68242 0.6128 0.0
C651 C 0.8141 0.78282 0.72574 0.0
C652 C 0.78583 0.71795 0.6813 0.0
C653 C 0.66269 0.70171 0.64575 0.0
C654 C 0.67087 0.72673 0.63018 0.0
C655 C 0.75503 0.78612 0.72619 0.0
C656 C 0.76217 0.79842 0.84574 0.0
C657 C 0.74472 0.81059 0.85277 0.0
C658 C 0.75038 0.82266 0.88044 0.0
C659 C 0.774 0.8227 0.90049 0.0
C660 C 0.78545 0.79868 0.86632 0.0
C661 C 0.79135 0.81084 0.89342 0.0
C662 C 0.72667 0.7208 0.77196 0.0
C663 C 0.75583 0.78537 0.81713 0.0
H664 H 0.81911 0.70023 0.65724 0.0
H665 H 0.76078 0.66158 0.58536 0.0
H666 H 0.73872 0.70374 0.6438 0.0
H667 H 0.72758 0.67746 0.60052 0.0
H668 H 0.72656 0.8102 0.83708 0.0
H669 H 0.77922 0.83212 0.92162 0.0
H670 H 0.79902 0.78939 0.86158 0.0
H671 H 0.80943 0.811 0.90909 0.0
Co672 Co 0.05795 0.99121 0.44738 0.0
Co673 Co 0.04599 0.96319 0.49795 0.0
Co674 Co 0.02461 1.00837 0.49919 0.0
O675 O 0.05437 0.99782 0.48915 0.0
H676 H 0.07133 1.00615 0.50052 0.0
O677 O 0.995 0.0185 0.51004 0.0
Co678 Co 1.00056 0.0481 0.53026 0.0
Co679 Co 0.97922 0.03471 0.47494 0.0
H680 H 0.98159 1.00388 0.51908 0.0
O681 O 0.07385 0.95136 0.51453 0.0
O682 O 0.05469 0.95433 0.46353 0.0
O683 O 1.01282 0.94559 0.51542 0.0
O684 O 1.01659 0.98066 0.53616 0.0
O685 O 0.05083 0.03147 0.52761 0.0
O686 O 1.00277 0.07419 0.55048 0.0
O687 O 0.97044 0.03638 0.5491 0.0
O688 O 0.03371 0.06355 0.51402 0.0
O689 O 0.0336 0.0357 0.46221 0.0
O690 O 0.9974 0.04571 0.43785 0.0
O691 O 0.98139 0.06319 0.49244 0.0
O692 O 0.94429 0.03357 0.47371 0.0
C693 C 0.08893 0.99294 0.42353 0.0
C694 C 0.99884 0.97903 0.44523 0.0
C695 C 1.00673 0.95652 0.53531 0.0
C696 C 0.07172 0.94704 0.48544 0.0
C697 C 0.97994 0.05899 0.55856 0.0
C698 C 0.05272 0.05492 0.52736 0.0
C699 C 1.02144 0.04637 0.43871 0.0
C700 C 0.95558 0.05492 0.48568 0.0
O701 O 0.06438 0.98633 0.41048 0.0
O702 O 0.09412 0.99946 0.45212 0.0
O703 O 0.99723 0.98595 0.47109 0.0
O704 O 1.02101 0.98168 0.43607 0.0
Co705 Co 0.55586 0.96072 0.99596 0.0
Co706 Co 0.56128 0.97453 0.04963 0.0
Co707 Co 0.52393 1.00624 0.99877 0.0
O708 O 0.55643 0.9926 0.00957 0.0
H709 H 0.57267 1.00609 0.00539 0.0
O710 O 0.49139 0.01998 0.98804 0.0
Co711 Co 0.49211 0.05168 0.00261 0.0
Co712 Co 0.48703 0.03897 0.94849 0.0
H713 H 0.47506 1.00646 0.99185 0.0
O714 O 0.59463 0.97305 0.07077 0.0
O715 O 0.56633 0.94442 0.04054 0.0
O716 O 0.53074 0.9659 0.07184 0.0
O717 O 0.50474 0.98393 0.03539 0.0
O718 O 0.54319 0.03402 0.02558 0.0
O719 O 0.49075 0.07867 0.0181 0.0
O720 O 0.45741 0.04242 0.01076 0.0
O721 O 0.52882 0.06539 0.99745 0.0
O722 O 0.54324 0.02859 0.96211 0.0
O723 O 0.51769 0.0477 0.9264 0.0
O724 O 0.48177 0.06869 0.95852 0.0
O725 O 0.454 0.04085 0.92684 0.0
C726 C 0.58211 0.94713 0.97923 0.0
C727 C 0.50151 0.95445 0.98126 0.0
C728 C 0.50859 0.9701 0.06168 0.0
C729 C 0.58817 0.95099 0.06044 0.0
C730 C 0.46608 0.06511 0.02031 0.0
C731 C 0.54624 0.05783 0.01692 0.0
C732 C 0.53958 0.04287 0.93614 0.0
C733 C 0.46028 0.06254 0.93802 0.0
O734 O 0.55746 0.93345 0.98136 0.0
O735 O 0.59052 0.97004 0.98811 0.0
O736 O 0.50465 0.97825 0.97209 0.0
O737 O 0.51901 0.94702 0.00083 0.0
Co738 Co 0.05225 0.45974 0.99901 0.0
Co739 Co 0.05732 0.47303 0.05248 0.0
Co740 Co 1.02294 0.50729 0.00053 0.0
O741 O 0.05442 0.49219 0.01265 0.0
H742 H 0.07118 0.50511 0.00905 0.0
O743 O 0.99109 0.52199 0.98884 0.0
Co744 Co 0.99263 0.55433 0.00219 0.0
Co745 Co 0.98769 0.54061 0.94904 0.0
H746 H 0.97446 0.5089 0.99257 0.0
O747 O 0.09004 0.471 0.07486 0.0
O748 O 0.06247 0.44295 0.04339 0.0
O749 O 0.02587 0.46484 0.07338 0.0
O750 O 1.00287 0.48638 0.03734 0.0
O751 O 0.04317 0.5358 0.02633 0.0
O752 O 0.9923 0.5822 0.01632 0.0
O753 O 0.95809 0.54627 0.01073 0.0
O754 O 0.02905 0.56672 0.99648 0.0
O755 O 0.04312 0.52839 0.96354 0.0
O756 O 1.0191 0.54948 0.92846 0.0
O757 O 0.9822 0.57056 0.95769 0.0
O758 O 0.95477 0.54193 0.92681 0.0
C759 C 0.07705 0.44481 0.98151 0.0
C760 C 0.99823 0.45511 0.98539 0.0
C761 C 1.0049 0.47127 0.06306 0.0
C762 C 0.08385 0.44917 0.06404 0.0
C763 C 0.96747 0.56945 0.01883 0.0
C764 C 0.04597 0.55957 0.01722 0.0
C765 C 0.0405 0.54368 0.93806 0.0
C766 C 0.96074 0.56387 0.9373 0.0
O767 O 0.05227 0.43202 0.9843 0.0
O768 O 0.08669 0.46772 0.9904 0.0
O769 O 1.00267 0.47884 0.97477 0.0
O770 O 1.01558 0.44726 0.00467 0.0
Co771 Co 0.55586 0.48281 0.96286 0.0
Co772 Co 0.54303 0.45777 0.01484 0.0
Co773 Co 0.52271 0.50546 0.00971 0.0
O774 O 0.55172 0.49209 0.00275 0.0
H775 H 0.56875 0.50073 0.01362 0.0
O776 O 0.49436 0.51886 0.01816 0.0
Co777 Co 0.50206 0.54888 0.03908 0.0
Co778 Co 0.48175 0.53719 0.98265 0.0
H779 H 0.4796 0.50517 0.02623 0.0
O780 O 0.57101 0.44586 0.03145 0.0
O781 O 0.54987 0.44608 0.98151 0.0
O782 O 0.51108 0.44195 0.03486 0.0
O783 O 0.51205 0.47942 0.04749 0.0
O784 O 0.54968 0.52782 0.03823 0.0
O785 O 0.50615 0.57537 0.05973 0.0
O786 O 0.47102 0.53985 0.05657 0.0
O787 O 0.53605 0.56207 0.02438 0.0
O788 O 0.5345 0.53155 0.97224 0.0
O789 O 0.50169 0.54673 0.94717 0.0
O790 O 0.48608 0.56605 0.00079 0.0
O791 O 0.44789 0.53979 0.97912 0.0
C792 C 0.58662 0.48024 0.94186 0.0
C793 C 0.49709 0.47445 0.95689 0.0
C794 C 0.50438 0.45494 0.05168 0.0
C795 C 0.5674 0.43942 0.00314 0.0
C796 C 0.48238 0.5621 0.06681 0.0
C797 C 0.55395 0.55177 0.0371 0.0
C798 C 0.5247 0.54437 0.94871 0.0
C799 C 0.46048 0.56029 0.99249 0.0
O800 O 0.56241 0.47526 0.92772 0.0
O801 O 0.59192 0.48855 0.96949 0.0
O802 O 0.49464 0.48338 0.98103 0.0
O803 O 0.51959 0.47518 0.95045 0.0
Co804 Co 0.07584 0.47565 0.5307 0.0
Co805 Co 0.05344 0.47475 0.47315 0.0
Co806 Co 0.02649 0.50887 0.50189 0.0
O807 O 0.04026 0.47745 0.5088 0.0
H808 H 0.02638 0.46179 0.51423 0.0
O809 O 1.01257 0.54012 0.49574 0.0
Co810 Co 0.977 0.54185 0.47383 0.0
Co811 Co 0.99882 0.54177 0.53197 0.0
H812 H 0.02645 0.55589 0.4907 0.0
O813 O 0.05221 0.44367 0.46365 0.0
O814 O 0.08653 0.47127 0.49015 0.0
O815 O 0.05927 0.50343 0.44115 0.0
O816 O 0.05029 0.52969 0.46825 0.0
O817 O 0.99768 0.49325 0.46931 0.0
O818 O 0.9458 0.54601 0.45278 0.0
O819 O 0.98363 0.57744 0.46196 0.0
O820 O 0.96433 0.50505 0.48108 0.0
O821 O 1.00245 0.48783 0.5349 0.0
O822 O 0.99305 0.51247 0.56388 0.0
O823 O 0.96564 0.54516 0.51453 0.0
O824 O 0.99909 0.57228 0.54266 0.0
C825 C 0.09437 0.44721 0.55516 0.0
C826 C 0.08028 0.5284 0.53289 0.0
C827 C 0.06002 0.52568 0.44514 0.0
C828 C 0.07706 0.45073 0.47566 0.0
C829 C 0.95851 0.57042 0.44968 0.0
C830 C 0.9729 0.48941 0.47048 0.0
C831 C 0.99241 0.49064 0.5584 0.0
C832 C 0.97439 0.56506 0.53015 0.0
O833 O 0.10711 0.47159 0.55153 0.0
O834 O 0.06911 0.44013 0.5434 0.0
O835 O 0.0555 0.52459 0.53434 0.0
O836 O 0.08865 0.51239 0.52272 0.0
Co837 Co 0.57402 0.97444 0.53473 0.0
Co838 Co 0.55731 0.97785 0.47552 0.0
Co839 Co 0.52641 0.00951 0.50241 0.0
O840 O 0.54057 0.97849 0.50904 0.0
H841 H 0.52616 0.96267 0.51168 0.0
O842 O 0.51172 0.04015 0.49595 0.0
Co843 Co 0.47609 0.0414 0.47365 0.0
Co844 Co 0.49714 0.04052 0.53166 0.0
H845 H 0.52541 0.05617 0.49158 0.0
O846 O 0.55538 0.94746 0.46411 0.0
O847 O 0.58865 0.97208 0.49556 0.0
O848 O 0.56572 1.00771 0.44568 0.0
O849 O 0.55159 0.03181 0.47064 0.0
O850 O 0.49893 0.99445 0.46828 0.0
O851 O 0.44485 0.04507 0.45237 0.0
O852 O 0.48209 0.07699 0.46213 0.0
O853 O 0.46409 1.00414 0.4797 0.0
O854 O 0.50129 0.98723 0.53388 0.0
O855 O 0.49244 0.01142 0.5639 0.0
O856 O 0.46422 0.0446 0.51461 0.0
O857 O 0.49887 0.07065 0.54308 0.0
C858 C 0.58947 0.94397 0.55895 0.0
C859 C 0.57901 0.02799 0.53865 0.0
C860 C 0.56429 0.0293 0.44929 0.0
C861 C 0.57934 0.95258 0.47911 0.0
C862 C 0.45707 0.06958 0.44954 0.0
C863 C 0.47383 0.98949 0.46863 0.0
C864 C 0.49172 0.9897 0.55796 0.0
C865 C 0.47398 0.06414 0.53107 0.0
O866 O 0.60312 0.96801 0.55919 0.0
O867 O 0.56536 0.93858 0.54349 0.0
O868 O 0.55394 0.02477 0.53667 0.0
O869 O 0.58834 0.01147 0.53112 0.0
C870 C 0.19396 0.17605 0.27442 0.0
C871 C 0.19835 0.20202 0.27619 0.0
C872 C 0.17198 0.1576 0.28653 0.0
C873 C 0.10591 0.14584 0.3087 0.0
H874 H 0.12438 0.09601 0.3752 0.0
C875 C 0.03372 0.08467 0.39819 0.0
C876 C 0.03675 0.06107 0.41269 0.0
C877 C 0.05107 0.10016 0.37674 0.0
C878 C 0.11858 0.10926 0.35617 0.0
H879 H 0.18361 0.2295 0.29127 0.0
H880 H 0.14455 0.19709 0.31204 0.0
H881 H 0.15879 0.12627 0.34564 0.0
H882 H 0.05858 0.0341 0.41458 0.0
H883 H 0.08771 0.06017 0.37579 0.0
H884 H 0.0656 0.12867 0.31876 0.0
C885 C 0.15803 0.19106 0.3012 0.0
C886 C 0.13844 0.12673 0.33941 0.0
C887 C 0.18031 0.20948 0.28956 0.0
C888 C 0.05614 0.05241 0.40395 0.0
C889 C 0.07298 0.06752 0.38194 0.0
C890 C 0.08585 0.12798 0.32506 0.0
C891 C 0.15397 0.16496 0.30022 0.0
C892 C 0.13234 0.14537 0.3159 0.0
C893 C 0.07136 0.09203 0.36891 0.0
C894 C 0.09201 0.10968 0.34937 0.0
H895 H 0.20806 0.16994 0.26489 0.0
H896 H 0.16928 0.13755 0.28574 0.0
H897 H 0.10081 0.16004 0.29048 0.0
H898 H 1.01894 0.09177 0.40474 0.0
H899 H 0.04931 0.11897 0.36756 0.0
C900 C 0.78409 0.14455 0.3985 0.0
C901 C 0.79609 0.15404 0.37035 0.0
C902 C 0.79884 0.13726 0.42642 0.0
C903 C 0.86582 0.14458 0.46703 0.0
H904 H 0.84853 0.07074 0.47916 0.0
C905 C 0.94527 0.09574 0.48347 0.0
C906 C 0.93878 0.06927 0.49231 0.0
C907 C 0.92678 0.10847 0.48431 0.0
C908 C 0.85356 0.09134 0.4774 0.0
H909 H 0.83324 0.16296 0.35005 0.0
H910 H 0.85879 0.15179 0.39869 0.0
H911 H 0.81573 0.09046 0.45102 0.0
H912 H 0.91002 0.03581 0.51327 0.0
H913 H 0.87844 0.05819 0.51688 0.0
H914 H 0.904 0.14568 0.49236 0.0
C915 C 0.83808 0.15019 0.39913 0.0
C916 C 0.83455 0.10262 0.46111 0.0
C917 C 0.82331 0.15668 0.3712 0.0
C918 C 0.91498 0.05618 0.50539 0.0
C919 C 0.8969 0.06903 0.50733 0.0
C920 C 0.88467 0.13331 0.48404 0.0
C921 C 0.82595 0.14012 0.42682 0.0
C922 C 0.8412 0.12926 0.454 0.0
C923 C 0.90174 0.095 0.49486 0.0
C924 C 0.8795 0.10658 0.48731 0.0
H925 H 0.76331 0.14255 0.39898 0.0
H926 H 0.78906 0.12912 0.44752 0.0
H927 H 0.87126 0.16524 0.46186 0.0
H928 H 0.96371 0.10621 0.47361 0.0
H929 H 0.93146 0.12839 0.47431 0.0
C930 C 0.83832 0.84862 0.2698 0.0
C931 C 0.81672 0.83035 0.28327 0.0
C932 C 0.85306 0.87007 0.28476 0.0
C933 C 0.86857 0.88785 0.36522 0.0
H934 H 0.91064 0.95236 0.32398 0.0
C935 C 0.9755 0.96335 0.39426 0.0
C936 C 0.9742 0.96737 0.42509 0.0
C937 C 0.95245 0.95162 0.37539 0.0
C938 C 0.89884 0.93448 0.33576 0.0
H939 H 0.79139 0.82198 0.3206 0.0
H940 H 0.81633 0.85958 0.34595 0.0
H941 H 0.8758 0.92279 0.29244 0.0
H942 H 0.94756 0.96316 0.45987 0.0
H943 H 0.9072 0.94225 0.42686 0.0
H944 H 0.89201 0.89912 0.40832 0.0
C945 C 0.82287 0.85678 0.32481 0.0
C946 C 0.87901 0.91753 0.31775 0.0
C947 C 0.80857 0.83515 0.31025 0.0
C948 C 0.94924 0.96014 0.43631 0.0
C949 C 0.92616 0.94822 0.41745 0.0
C950 C 0.88818 0.90483 0.38319 0.0
C951 C 0.84599 0.87388 0.31308 0.0
C952 C 0.86417 0.89371 0.3322 0.0
C953 C 0.92764 0.94355 0.38699 0.0
C954 C 0.90401 0.92795 0.36853 0.0
H955 H 0.84466 0.84579 0.24867 0.0
H956 H 0.87079 0.88284 0.27503 0.0
H957 H 0.85793 0.86949 0.37715 0.0
H958 H 0.99439 0.96894 0.38478 0.0
H959 H 0.95422 0.94793 0.35217 0.0
C960 C 0.20029 0.87856 0.31456 0.0
C961 C 0.21728 0.89094 0.29121 0.0
C962 C 0.19251 0.89287 0.33283 0.0
C963 C 0.18101 0.95486 0.32449 0.0
H964 H 0.16956 0.93783 0.41291 0.0
C965 C 0.10198 0.97801 0.37915 0.0
C966 C 0.1097 0.98949 0.40721 0.0
C967 C 0.11986 0.97011 0.36634 0.0
C968 C 0.17304 0.94301 0.38832 0.0
H969 H 0.24139 0.92791 0.27086 0.0
H970 H 0.22767 0.95273 0.30239 0.0
H971 H 0.19267 0.91452 0.3902 0.0
H972 H 0.14322 1.00398 0.44193 0.0
H973 H 0.17436 0.989 0.42004 0.0
H974 H 0.16025 0.98237 0.32215 0.0
C975 C 0.21995 0.93203 0.30621 0.0
C976 C 0.18601 0.92954 0.37528 0.0
C977 C 0.22776 0.91779 0.28811 0.0
C978 C 0.13643 0.9946 0.42078 0.0
C979 C 0.15424 0.98606 0.40832 0.0
C980 C 0.16774 0.96796 0.33735 0.0
C981 C 0.20157 0.91981 0.32803 0.0
C982 C 0.18987 0.93517 0.34309 0.0
C983 C 0.14585 0.97325 0.38136 0.0
C984 C 0.16333 0.96197 0.36924 0.0
H985 H 0.1918 0.85792 0.31748 0.0
H986 H 0.17823 0.88289 0.34939 0.0
H987 H 0.18334 0.95945 0.29954 0.0
H988 H 0.0817 0.97401 0.36769 0.0
H989 H 0.11295 0.96041 0.34543 0.0
C990 C 0.19635 0.83289 0.58685 0.0
C991 C 0.22323 0.84456 0.5975 0.0
C992 C 0.18562 0.84029 0.55643 0.0
C993 C 0.19502 0.90102 0.51212 0.0
H994 H 0.13057 0.86632 0.46179 0.0
C995 C 0.11755 0.95132 0.47767 0.0
C996 C 0.09097 0.93629 0.47716 0.0
C997 C 0.13712 0.94089 0.47406 0.0
C998 C 0.14836 0.87644 0.47583 0.0
H999 H 0.26081 0.87013 0.58315 0.0
H1000 H 0.24185 0.88356 0.53017 0.0
H1001 H 0.16038 0.84247 0.48972 0.0
H1002 H 0.06353 0.89842 0.47336 0.0
H1003 H 0.09792 0.87893 0.47193 0.0
H1004 H 0.18248 0.93388 0.50258 0.0
C1005 C 0.22908 0.86885 0.54545 0.0
C1006 C 0.16569 0.86275 0.49135 0.0
C1007 C 0.23985 0.86141 0.57588 0.0
C1008 C 0.08403 0.91045 0.47317 0.0
C1009 C 0.10394 0.89942 0.47196 0.0
C1010 C 0.17747 0.91443 0.49757 0.0
C1011 C 0.20153 0.85962 0.53624 0.0
C1012 C 0.18843 0.87467 0.51106 0.0
C1013 C 0.13109 0.91435 0.47361 0.0
C1014 C 0.15294 0.90202 0.48076 0.0
H1015 H 0.18299 0.8198 0.60286 0.0
H1016 H 0.16429 0.83294 0.55015 0.0
H1017 H 0.2123 0.91082 0.52725 0.0
H1018 H 0.12338 0.9711 0.48189 0.0
H1019 H 0.15719 0.9537 0.47358 0.0
C1020 C 0.23611 0.18714 0.69074 0.0
C1021 C 0.22908 0.1923 0.71825 0.0
C1022 C 0.21794 0.16966 0.67219 0.0
C1023 C 0.15526 0.11739 0.66811 0.0
H1024 H 0.14809 0.14681 0.58012 0.0
C1025 C 0.09208 0.05937 0.5686 0.0
C1026 C 0.07464 0.07064 0.5478 0.0
C1027 C 0.11119 0.07343 0.59017 0.0
C1028 C 0.14981 0.13841 0.60461 0.0
H1029 H 0.19837 0.18128 0.7494 0.0
H1030 H 0.1663 0.15058 0.71679 0.0
H1031 H 0.18126 0.17125 0.61817 0.0
H1032 H 0.06409 0.10574 0.53267 0.0
H1033 H 0.09788 0.13044 0.57013 0.0
H1034 H 0.12361 0.08454 0.65436 0.0
C1035 C 0.18594 0.16033 0.70961 0.0
C1036 C 0.16892 0.15225 0.62631 0.0
C1037 C 0.20428 0.17792 0.72829 0.0
C1038 C 0.07724 0.09652 0.54837 0.0
C1039 C 0.09656 0.11065 0.56977 0.0
C1040 C 0.13625 0.1034 0.64626 0.0
C1041 C 0.19233 0.15689 0.68076 0.0
C1042 C 0.1719 0.14184 0.65821 0.0
C1043 C 0.11343 0.09911 0.59112 0.0
C1044 C 0.1334 0.11383 0.61434 0.0
H1045 H 0.25536 0.19729 0.68279 0.0
H1046 H 0.22361 0.16681 0.65048 0.0
H1047 H 0.15719 0.109 0.69257 0.0
H1048 H 0.09063 0.03947 0.56878 0.0
H1049 H 0.12425 0.06423 0.60609 0.0
C1050 C 0.84528 0.1209 0.71721 0.0
C1051 C 0.85352 0.14731 0.71914 0.0
C1052 C 0.85635 0.11096 0.69717 0.0
C1053 C 0.89738 0.12921 0.63003 0.0
H1054 H 0.91345 0.06585 0.66336 0.0
C1055 C 0.97134 0.09441 0.57954 0.0
C1056 C 0.96398 0.06831 0.57593 0.0
C1057 C 0.95586 0.10359 0.5948 0.0
C1058 C 0.90878 0.08338 0.65354 0.0
H1059 H 0.87945 0.18411 0.70117 0.0
H1060 H 0.89928 0.16679 0.66665 0.0
H1061 H 0.8901 0.08293 0.69373 0.0
H1062 H 0.93434 0.03144 0.58511 0.0
H1063 H 0.9075 0.04745 0.61235 0.0
H1064 H 0.91691 0.12989 0.59023 0.0
C1065 C 0.88385 0.15372 0.68011 0.0
C1066 C 0.89532 0.09318 0.6709 0.0
C1067 C 0.87256 0.16368 0.69996 0.0
C1068 C 0.9407 0.0516 0.58781 0.0
C1069 C 0.92534 0.06076 0.60339 0.0
C1070 C 0.91106 0.11949 0.61278 0.0
C1071 C 0.87617 0.12717 0.6788 0.0
C1072 C 0.88955 0.1163 0.65949 0.0
C1073 C 0.93278 0.08686 0.60706 0.0
C1074 C 0.91706 0.09655 0.62447 0.0
H1075 H 0.83032 0.10786 0.73137 0.0
H1076 H 0.84945 0.0905 0.69626 0.0
H1077 H 0.8929 0.14681 0.62022 0.0
H1078 H 0.989 0.10787 0.57036 0.0
H1079 H 0.96223 0.12376 0.59751 0.0
C1080 C 0.83436 0.80505 0.67659 0.0
C1081 C 0.83627 0.80151 0.70976 0.0
C1082 C 0.85392 0.82391 0.6609 0.0
C1083 C 0.92329 0.86615 0.67084 0.0
H1084 H 0.89937 0.90054 0.591 0.0
C1085 C 0.98891 0.94938 0.58732 0.0
C1086 C 0.98851 0.9409 0.55835 0.0
C1087 C 0.97135 0.93447 0.60887 0.0
C1088 C 0.90623 0.8912 0.61339 0.0
H1089 H 0.86145 0.81379 0.75244 0.0
H1090 H 0.89519 0.84771 0.72492 0.0
H1091 H 0.86664 0.87087 0.62377 0.0
H1092 H 0.96927 0.91054 0.52898 0.0
H1093 H 0.93808 0.88496 0.56628 0.0
H1094 H 0.96304 0.88699 0.66008 0.0
C1095 C 0.87842 0.83582 0.7111 0.0
C1096 C 0.88759 0.87405 0.63203 0.0
C1097 C 0.8589 0.81661 0.7269 0.0
C1098 C 0.97016 0.91744 0.55121 0.0
C1099 C 0.95229 0.90288 0.57241 0.0
C1100 C 0.94199 0.88371 0.65233 0.0
C1101 C 0.87586 0.83996 0.67786 0.0
C1102 C 0.89587 0.86064 0.66045 0.0
C1103 C 0.95281 0.91127 0.60134 0.0
C1104 C 0.9335 0.89574 0.62311 0.0
H1105 H 0.81758 0.79347 0.66248 0.0
H1106 H 0.85175 0.82587 0.63532 0.0
H1107 H 0.93036 0.85611 0.69251 0.0
H1108 H 1.00289 0.96739 0.5934 0.0
H1109 H 0.97192 0.94122 0.63111 0.0
C1110 C 0.32723 0.18621 0.0789 0.0
C1111 C 0.31934 0.18143 0.10942 0.0
C1112 C 0.34307 0.17314 0.07072 0.0
C1113 C 0.36351 0.1142 0.09285 0.0
H1114 H 0.41875 0.15105 0.03915 0.0
C1115 C 0.42097 0.06407 0.03319 0.0
C1116 C 0.44843 0.07644 0.03251 0.0
C1117 C 0.40484 0.07591 0.04376 0.0
C1118 C 0.40353 0.14041 0.0543 0.0
H1119 H 0.32241 0.15923 0.15543 0.0
H1120 H 0.35042 0.13643 0.14121 0.0
H1121 H 0.39279 0.17388 0.05645 0.0
H1122 H 0.48038 0.11085 0.04317 0.0
H1123 H 0.45265 0.13106 0.06147 0.0
H1124 H 0.37462 0.08071 0.09083 0.0
C1125 C 0.34402 0.15021 0.1235 0.0
C1126 C 0.38841 0.15352 0.06401 0.0
C1127 C 0.32823 0.16349 0.13178 0.0
C1128 C 0.45932 0.10069 0.04307 0.0
C1129 C 0.44333 0.11245 0.05347 0.0
C1130 C 0.37861 0.101 0.08297 0.0
C1131 C 0.35157 0.15479 0.09277 0.0
C1132 C 0.36815 0.14065 0.08339 0.0
C1133 C 0.41581 0.10043 0.05369 0.0
C1134 C 0.39892 0.11397 0.06364 0.0
H1135 H 0.32099 0.20006 0.06113 0.0
H1136 H 0.34821 0.17708 0.04677 0.0
H1137 H 0.34791 0.10359 0.1075 0.0
H1138 H 0.41188 0.04543 0.02519 0.0
H1139 H 0.38369 0.06613 0.04344 0.0
C1140 C 0.7977 0.32356 0.15711 0.0
C1141 C 0.79962 0.31518 0.1897 0.0
C1142 C 0.8193 0.34199 0.14375 0.0
C1143 C 0.89226 0.36933 0.15813 0.0
H1144 H 0.88243 0.42586 0.09641 0.0
C1145 C 0.98308 0.44776 0.11133 0.0
C1146 C 0.98078 0.45808 0.07936 0.0
C1147 C 0.96053 0.43234 0.12556 0.0
C1148 C 0.88559 0.41002 0.11326 0.0
H1149 H 0.82482 0.32107 0.23419 0.0
H1150 H 0.86262 0.3526 0.21096 0.0
H1151 H 0.84394 0.39449 0.11868 0.0
H1152 H 0.95282 0.46056 0.03735 0.0
H1153 H 0.91371 0.43306 0.06167 0.0
H1154 H 0.93357 0.38401 0.15218 0.0
C1155 C 0.84472 0.34456 0.19553 0.0
C1156 C 0.86345 0.39205 0.12609 0.0
C1157 C 0.82308 0.3264 0.20885 0.0
C1158 C 0.95527 0.45322 0.06217 0.0
C1159 C 0.93276 0.43739 0.07623 0.0
C1160 C 0.91429 0.38699 0.14496 0.0
C1161 C 0.84318 0.3525 0.1628 0.0
C1162 C 0.86655 0.37152 0.14874 0.0
C1163 C 0.93508 0.42631 0.10802 0.0
C1164 C 0.91139 0.40772 0.12239 0.0
H1165 H 0.7796 0.31561 0.14194 0.0
H1166 H 0.81747 0.3477 0.11845 0.0
H1167 H 0.89535 0.35367 0.17535 0.0
H1168 H 1.00243 0.45125 0.12527 0.0
H1169 H 0.96321 0.42487 0.15028 0.0
C1170 C 0.69799 0.78467 0.19568 0.0
C1171 C 0.72542 0.79273 0.20666 0.0
C1172 C 0.68474 0.80172 0.17797 0.0
C1173 C 0.69173 0.87296 0.15455 0.0
H1174 H 0.62539 0.84606 0.10223 0.0
C1175 C 0.62314 0.93799 0.10171 0.0
C1176 C 0.60437 0.93269 0.07466 0.0
C1177 C 0.63827 0.92144 0.11589 0.0
C1178 C 0.64396 0.85434 0.11634 0.0
H1179 H 0.76015 0.82619 0.20736 0.0
H1180 H 0.73757 0.85586 0.17534 0.0
H1181 H 0.6511 0.81789 0.12781 0.0
H1182 H 0.58772 0.90503 0.0414 0.0
H1183 H 0.61448 0.87667 0.06518 0.0
H1184 H 0.68521 0.90965 0.14188 0.0
C1185 C 0.72591 0.8361 0.18079 0.0
C1186 C 0.65882 0.83776 0.1318 0.0
C1187 C 0.73921 0.81888 0.19892 0.0
C1188 C 0.60166 0.90999 0.06223 0.0
C1189 C 0.61714 0.89347 0.07626 0.0
C1190 C 0.677 0.88961 0.13881 0.0
C1191 C 0.69816 0.828 0.17006 0.0
C1192 C 0.68296 0.84647 0.15176 0.0
C1193 C 0.63587 0.8987 0.10362 0.0
C1194 C 0.65247 0.88075 0.11955 0.0
H1195 H 0.68639 0.76488 0.20145 0.0
H1196 H 0.66352 0.79412 0.17142 0.0
H1197 H 0.70987 0.88103 0.16949 0.0
H1198 H 0.62599 0.95501 0.11249 0.0
H1199 H 0.65159 0.92652 0.13708 0.0
C1200 C 0.23123 0.70663 0.16432 0.0
C1201 C 0.22394 0.72414 0.17793 0.0
C1202 C 0.21279 0.69061 0.14405 0.0
C1203 C 0.13951 0.66463 0.1229 0.0
H1204 H 0.16079 0.63749 0.05809 0.0
C1205 C 0.06524 0.60384 0.0322 0.0
C1206 C 0.06777 0.57937 0.03278 0.0
C1207 C 0.08495 0.62232 0.04816 0.0
C1208 C 0.15468 0.64491 0.07621 0.0
H1209 H 0.19188 0.73937 0.17991 0.0
H1210 H 0.16018 0.71297 0.14268 0.0
H1211 H 0.19382 0.6701 0.08717 0.0
H1212 H 0.09339 0.5554 0.04965 0.0
H1213 H 0.12844 0.58828 0.07692 0.0
H1214 H 0.10013 0.63997 0.11088 0.0
C1215 C 0.17987 0.71075 0.14858 0.0
C1216 C 0.17357 0.6635 0.09302 0.0
C1217 C 0.19825 0.7264 0.16941 0.0
C1218 C 0.09085 0.57404 0.04894 0.0
C1219 C 0.1109 0.59281 0.06437 0.0
C1220 C 0.12058 0.64649 0.10561 0.0
C1221 C 0.18665 0.6921 0.13629 0.0
C1222 C 0.16631 0.67347 0.11686 0.0
C1223 C 0.10787 0.61695 0.06445 0.0
C1224 C 0.12805 0.63632 0.08235 0.0
H1225 H 0.25113 0.70505 0.16963 0.0
H1226 H 0.21891 0.6765 0.13541 0.0
H1227 H 0.13312 0.67125 0.14148 0.0
H1228 H 0.04772 0.60859 0.02001 0.0
H1229 H 0.08228 0.64086 0.04781 0.0
C1230 C 0.32035 0.81947 0.81896 0.0
C1231 C 0.31855 0.79349 0.82208 0.0
C1232 C 0.33778 0.83533 0.84014 0.0
C1233 C 0.39972 0.84052 0.89402 0.0
H1234 H 0.38264 0.89563 0.92129 0.0
C1235 C 0.4749 0.90872 0.9762 0.0
C1236 C 0.47796 0.93498 0.96756 0.0
C1237 C 0.4537 0.89034 0.96179 0.0
C1238 C 0.38775 0.88042 0.91372 0.0
H1239 H 0.33257 0.76335 0.85033 0.0
H1240 H 0.3633 0.79104 0.88746 0.0
H1241 H 0.34842 0.86512 0.89048 0.0
H1242 H 0.46053 0.96241 0.93771 0.0
H1243 H 0.42371 0.93034 0.91237 0.0
H1244 H 0.43913 0.85601 0.91675 0.0
C1245 C 0.3515 0.79929 0.8684 0.0
C1246 C 0.36815 0.86293 0.89609 0.0
C1247 C 0.334 0.78343 0.84716 0.0
C1248 C 0.45884 0.94237 0.94488 0.0
C1249 C 0.43761 0.92396 0.93048 0.0
C1250 C 0.41929 0.85797 0.91166 0.0
C1251 C 0.35387 0.82553 0.86487 0.0
C1252 C 0.374 0.84295 0.8857 0.0
C1253 C 0.43502 0.89775 0.93844 0.0
C1254 C 0.41364 0.87831 0.92142 0.0
H1255 H 0.30926 0.82783 0.79924 0.0
H1256 H 0.33944 0.85551 0.83633 0.0
H1257 H 0.40505 0.82563 0.88597 0.0
H1258 H 0.48912 0.9023 0.99376 0.0
H1259 H 0.45204 0.8703 0.96882 0.0
C1260 C 0.16989 0.30128 0.89075 0.0
C1261 C 0.19653 0.30843 0.88467 0.0
C1262 C 0.15915 0.31924 0.8978 0.0
C1263 C 0.17684 0.3799 0.93089 0.0
H1264 H 0.1049 0.37826 0.89515 0.0
C1265 C 0.1205 0.44497 0.96456 0.0
C1266 C 0.09358 0.43253 0.96886 0.0
C1267 C 0.13518 0.43269 0.95205 0.0
C1268 C 0.12496 0.37891 0.90557 0.0
H1269 H 0.23277 0.34021 0.88101 0.0
H1270 H 0.21399 0.37175 0.89377 0.0
H1271 H 0.12637 0.35166 0.87698 0.0
H1272 H 0.06135 0.39711 0.96395 0.0
H1273 H 0.08661 0.37605 0.94286 0.0
H1274 H 0.175 0.40664 0.96024 0.0
C1275 C 0.20145 0.35215 0.89297 0.0
C1276 C 0.13729 0.36366 0.89505 0.0
C1277 C 0.21213 0.33416 0.88542 0.0
C1278 C 0.08191 0.40754 0.96075 0.0
C1279 C 0.09642 0.39541 0.94834 0.0
C1280 C 0.16438 0.39512 0.94161 0.0
C1281 C 0.1748 0.34486 0.8993 0.0
C1282 C 0.16314 0.36346 0.90807 0.0
C1283 C 0.12317 0.40781 0.94346 0.0
C1284 C 0.13798 0.39429 0.92966 0.0
H1285 H 0.1573 0.28165 0.89019 0.0
H1286 H 0.13865 0.31287 0.90284 0.0
H1287 H 0.19675 0.38014 0.94149 0.0
H1288 H 0.13016 0.46417 0.97065 0.0
H1289 H 0.15575 0.44284 0.94863 0.0
C1290 C 0.69671 0.19997 0.77163 0.0
C1291 C 0.71925 0.21603 0.7876 0.0
C1292 C 0.67944 0.17924 0.78824 0.0
C1293 C 0.67189 0.13563 0.86232 0.0
H1294 H 0.5972 0.13087 0.84084 0.0
C1295 C 0.58828 0.0659 0.9345 0.0
C1296 C 0.56256 0.05704 0.91843 0.0
C1297 C 0.60898 0.08338 0.91862 0.0
C1298 C 0.61787 0.13145 0.84679 0.0
H1299 H 0.74088 0.224 0.83349 0.0
H1300 H 0.71062 0.18717 0.86292 0.0
H1301 H 0.63045 0.16497 0.81367 0.0
H1302 H 0.53884 0.05796 0.87276 0.0
H1303 H 0.57503 0.08721 0.84474 0.0
H1304 H 0.65922 0.10175 0.89514 0.0
C1305 C 0.70677 0.19033 0.83739 0.0
C1306 C 0.63697 0.1512 0.8313 0.0
C1307 C 0.72412 0.21124 0.82065 0.0
C1308 C 0.55839 0.06466 0.88582 0.0
C1309 C 0.57913 0.08169 0.86986 0.0
C1310 C 0.65266 0.11554 0.87762 0.0
C1311 C 0.68404 0.17434 0.82132 0.0
C1312 C 0.66417 0.15348 0.83874 0.0
C1313 C 0.60447 0.0921 0.88623 0.0
C1314 C 0.62532 0.1131 0.86993 0.0
H1315 H 0.69225 0.20373 0.74621 0.0
H1316 H 0.66218 0.16721 0.77521 0.0
H1317 H 0.69273 0.13692 0.86848 0.0
H1318 H 0.59202 0.06056 0.95974 0.0
H1319 H 0.62808 0.091 0.93216 0.0
C1320 C 0.79679 0.6809 0.80993 0.0
C1321 C 0.80618 0.7061 0.79476 0.0
C1322 C 0.81418 0.66776 0.82737 0.0
C1323 C 0.88634 0.67406 0.8621 0.0
H1324 H 0.86084 0.60054 0.86225 0.0
C1325 C 0.94747 0.60519 0.93424 0.0
C1326 C 0.94441 0.58195 0.92281 0.0
C1327 C 0.9317 0.62139 0.91993 0.0
C1328 C 0.86881 0.62104 0.86241 0.0
H1329 H 0.84222 0.7371 0.78649 0.0
H1330 H 0.87289 0.71411 0.81659 0.0
H1331 H 0.83332 0.62632 0.83514 0.0
H1332 H 0.92207 0.55844 0.88633 0.0
H1333 H 0.89585 0.58624 0.86145 0.0
H1334 H 0.92244 0.66849 0.8886 0.0
C1335 C 0.85169 0.70453 0.81555 0.0
C1336 C 0.85247 0.6361 0.84707 0.0
C1337 C 0.83402 0.71792 0.79819 0.0
C1338 C 0.92516 0.57584 0.89641 0.0
C1339 C 0.9097 0.59198 0.88206 0.0
C1340 C 0.90288 0.65888 0.87744 0.0
C1341 C 0.84216 0.67882 0.82997 0.0
C1342 C 0.86062 0.66301 0.84655 0.0
C1343 C 0.91227 0.6151 0.89348 0.0
C1344 C 0.89455 0.63192 0.87785 0.0
H1345 H 0.77558 0.67101 0.80792 0.0
H1346 H 0.80539 0.64859 0.83864 0.0
H1347 H 0.89375 0.69453 0.86279 0.0
H1348 H 0.9619 0.61081 0.95447 0.0
H1349 H 0.93454 0.6387 0.93003 0.0
C1350 C 0.20651 0.29032 0.2003 0.0
C1351 C 0.23416 0.30215 0.20714 0.0
C1352 C 0.18953 0.30444 0.18287 0.0
C1353 C 0.1893 0.37396 0.15664 0.0
H1354 H 0.12158 0.3436 0.10893 0.0
C1355 C 0.11813 0.43581 0.10589 0.0
C1356 C 0.09973 0.43063 0.07855 0.0
C1357 C 0.13319 0.41928 0.12025 0.0
C1358 C 0.14053 0.35269 0.12183 0.0
H1359 H 0.26517 0.33818 0.19992 0.0
H1360 H 0.23671 0.36193 0.16897 0.0
H1361 H 0.14953 0.31687 0.13463 0.0
H1362 H 0.08339 0.40298 0.0452 0.0
H1363 H 0.11009 0.37448 0.06958 0.0
H1364 H 0.18116 0.40975 0.14322 0.0
C1365 C 0.22741 0.34211 0.17767 0.0
C1366 C 0.15664 0.33706 0.13713 0.0
C1367 C 0.2441 0.32823 0.19525 0.0
C1368 C 0.09714 0.40789 0.06619 0.0
C1369 C 0.11255 0.39132 0.08048 0.0
C1370 C 0.17341 0.38949 0.14126 0.0
C1371 C 0.19953 0.33094 0.17168 0.0
C1372 C 0.18155 0.34731 0.15495 0.0
C1373 C 0.13113 0.39667 0.1079 0.0
C1374 C 0.14845 0.37938 0.1236 0.0
H1375 H 0.19784 0.27044 0.2094 0.0
H1376 H 0.16838 0.29467 0.17921 0.0
H1377 H 0.20774 0.38317 0.17034 0.0
H1378 H 0.12083 0.45277 0.11672 0.0
H1379 H 0.1463 0.42433 0.1416 0.0
C1380 C 0.23793 0.70439 0.83739 0.0
C1381 C 0.24149 0.70396 0.80612 0.0
C1382 C 0.21745 0.6852 0.85193 0.0
C1383 C 0.15361 0.63474 0.83144 0.0
H1384 H 0.15973 0.61253 0.92159 0.0
C1385 C 0.08964 0.55561 0.93236 0.0
C1386 C 0.0641 0.55773 0.92081 0.0
C1387 C 0.11212 0.57148 0.91805 0.0
C1388 C 0.15774 0.61819 0.8963 0.0
H1389 H 0.22825 0.68224 0.76635 0.0
H1390 H 0.19328 0.64841 0.79173 0.0
H1391 H 0.19777 0.64351 0.89812 0.0
H1392 H 0.04243 0.578 0.88442 0.0
H1393 H 0.08113 0.6056 0.86027 0.0
H1394 H 0.11399 0.60896 0.82929 0.0
C1395 C 0.20522 0.66402 0.8048 0.0
C1396 C 0.17951 0.63634 0.88286 0.0
C1397 C 0.22533 0.68338 0.79019 0.0
C1398 C 0.06164 0.57558 0.89404 0.0
C1399 C 0.08401 0.59146 0.87995 0.0
C1400 C 0.13201 0.61646 0.84478 0.0
C1401 C 0.20058 0.66484 0.83568 0.0
C1402 C 0.17771 0.64502 0.85023 0.0
C1403 C 0.10967 0.58992 0.89188 0.0
C1404 C 0.13356 0.60809 0.87747 0.0
H1405 H 0.25057 0.71986 0.85031 0.0
H1406 H 0.21448 0.68671 0.87559 0.0
H1407 H 0.15112 0.64113 0.80634 0.0
H1408 H 0.09239 0.54217 0.95296 0.0
H1409 H 0.13145 0.56939 0.92768 0.0
C1410 C 0.31199 0.19746 0.80608 0.0
C1411 C 0.32671 0.22322 0.79733 0.0
C1412 C 0.3248 0.17956 0.8234 0.0
C1413 C 0.38732 0.16343 0.83329 0.0
H1414 H 0.3744 0.12853 0.91743 0.0
C1415 C 0.43103 0.0798 0.89284 0.0
C1416 C 0.44466 0.08125 0.92375 0.0
C1417 C 0.41633 0.09673 0.87872 0.0
C1418 C 0.37832 0.13808 0.89392 0.0
H1419 H 0.36681 0.24952 0.79975 0.0
H1420 H 0.38875 0.21855 0.82811 0.0
H1421 H 0.34828 0.15714 0.89049 0.0
H1422 H 0.45255 0.1022 0.96389 0.0
H1423 H 0.42589 0.131 0.93979 0.0
H1424 H 0.41676 0.14403 0.83614 0.0
C1425 C 0.36729 0.21223 0.8225 0.0
C1426 C 0.36311 0.15439 0.87832 0.0
C1427 C 0.35455 0.2301 0.80615 0.0
C1428 C 0.44255 0.10028 0.94014 0.0
C1429 C 0.42707 0.11682 0.92627 0.0
C1430 C 0.40191 0.14662 0.84844 0.0
C1431 C 0.35282 0.18659 0.83146 0.0
C1432 C 0.36748 0.16755 0.84775 0.0
C1433 C 0.41383 0.11552 0.89509 0.0
C1434 C 0.39795 0.13372 0.8792 0.0
H1435 H 0.29072 0.19101 0.79911 0.0
H1436 H 0.31285 0.15999 0.82957 0.0
H1437 H 0.3915 0.1732 0.80993 0.0
H1438 H 0.43199 0.06562 0.87914 0.0
H1439 H 0.40652 0.09484 0.85486 0.0
C1440 C 0.81869 0.32494 0.82517 0.0
C1441 C 0.81155 0.29805 0.83045 0.0
C1442 C 0.83458 0.33971 0.84823 0.0
C1443 C 0.88696 0.33844 0.91295 0.0
H1444 H 0.87717 0.40179 0.92646 0.0
C1445 C 0.96736 0.41013 0.98689 0.0
C1446 C 0.97321 0.43604 0.97394 0.0
C1447 C 0.9447 0.39181 0.97477 0.0
C1448 C 0.88028 0.38424 0.92285 0.0
H1449 H 0.81329 0.26567 0.86572 0.0
H1450 H 0.84227 0.29163 0.90579 0.0
H1451 H 0.84187 0.37176 0.89622 0.0
H1452 H 0.95925 0.46309 0.93872 0.0
H1453 H 0.92009 0.43114 0.91716 0.0
H1454 H 0.92579 0.35134 0.93829 0.0
C1455 C 0.83576 0.30115 0.88336 0.0
C1456 C 0.86 0.36698 0.90567 0.0
C1457 C 0.81938 0.28629 0.86032 0.0
C1458 C 0.9554 0.44331 0.94924 0.0
C1459 C 0.93279 0.42496 0.93702 0.0
C1460 C 0.90733 0.35578 0.92999 0.0
C1461 C 0.84386 0.32804 0.87729 0.0
C1462 C 0.86339 0.3442 0.89985 0.0
C1463 C 0.92734 0.39891 0.94933 0.0
C1464 C 0.90451 0.3792 0.93448 0.0
H1465 H 0.81267 0.33485 0.80286 0.0
H1466 H 0.84055 0.36036 0.84272 0.0
H1467 H 0.89028 0.32119 0.90855 0.0
H1468 H 0.98048 0.40387 0.00619 0.0
H1469 H 0.9409 0.37201 0.98519 0.0
C1470 C 0.72647 0.8316 0.92051 0.0
C1471 C 0.73187 0.83499 0.88902 0.0
C1472 C 0.7104 0.84412 0.92934 0.0
C1473 C 0.68477 0.8998 0.90532 0.0
H1474 H 0.63464 0.86326 0.96543 0.0
C1475 C 0.62705 0.94933 0.96493 0.0
C1476 C 0.60012 0.9358 0.96783 0.0
C1477 C 0.64354 0.93783 0.95457 0.0
C1478 C 0.64843 0.87377 0.94851 0.0
H1479 H 0.72422 0.85413 0.84203 0.0
H1480 H 0.69584 0.87592 0.85742 0.0
H1481 H 0.66131 0.84127 0.94779 0.0
H1482 H 0.56949 0.89955 0.96175 0.0
H1483 H 0.5979 0.87985 0.94382 0.0
H1484 H 0.6715 0.93227 0.90589 0.0
C1485 C 0.70435 0.86369 0.87534 0.0
C1486 C 0.66394 0.86119 0.93859 0.0
C1487 C 0.72036 0.85098 0.86644 0.0
C1488 C 0.59012 0.91064 0.95997 0.0
C1489 C 0.60651 0.89919 0.94982 0.0
C1490 C 0.66929 0.91247 0.91541 0.0
C1491 C 0.69922 0.86048 0.90697 0.0
C1492 C 0.68234 0.87398 0.91686 0.0
C1493 C 0.63348 0.91249 0.94714 0.0
C1494 C 0.65081 0.89956 0.93703 0.0
H1495 H 0.73475 0.81923 0.93848 0.0
H1496 H 0.70713 0.84131 0.95394 0.0
H1497 H 0.69891 0.91034 0.88881 0.0
H1498 H 0.63543 0.96872 0.97081 0.0
H1499 H 0.66428 0.94858 0.95297 0.0
C1500 C 0.84344 0.70364 0.0813 0.0
C1501 C 0.84802 0.70777 0.11324 0.0
C1502 C 0.85244 0.6856 0.07131 0.0
C1503 C 0.87875 0.63001 0.09807 0.0
H1504 H 0.9132 0.65447 0.02156 0.0
C1505 C 0.92493 0.56913 0.03831 0.0
C1506 C 0.9505 0.58239 0.02944 0.0
C1507 C 0.90985 0.58221 0.04864 0.0
C1508 C 0.90363 0.64727 0.04295 0.0
H1509 H 0.86467 0.69506 0.15996 0.0
H1510 H 0.88055 0.66349 0.14248 0.0
H1511 H 0.89171 0.68079 0.0401 0.0
H1512 H 0.97997 0.61994 0.02424 0.0
H1513 H 0.95393 0.64233 0.04172 0.0
H1514 H 0.89148 0.59664 0.10106 0.0
C1515 C 0.86981 0.67422 0.12516 0.0
C1516 C 0.89105 0.6623 0.05347 0.0
C1517 C 0.86072 0.69235 0.13521 0.0
C1518 C 0.96042 0.60894 0.03091 0.0
C1519 C 0.94538 0.62192 0.04078 0.0
C1520 C 0.89126 0.61481 0.08735 0.0
C1521 C 0.86636 0.67106 0.09292 0.0
C1522 C 0.87863 0.65407 0.08134 0.0
C1523 C 0.91988 0.60885 0.04975 0.0
C1524 C 0.90423 0.62347 0.05989 0.0
H1525 H 0.83318 0.71471 0.0638 0.0
H1526 H 0.84879 0.6833 0.04644 0.0
H1527 H 0.86922 0.62294 0.11948 0.0
H1528 H 0.91668 0.54869 0.0375 0.0
H1529 H 0.89021 0.57158 0.05528 0.0
C1530 C 0.34519 0.80696 0.21298 0.0
C1531 C 0.32066 0.79565 0.19589 0.0
C1532 C 0.36496 0.8263 0.19797 0.0
C1533 C 0.37475 0.87628 0.13013 0.0
H1534 H 0.44828 0.87622 0.14748 0.0
C1535 C 0.45963 0.9483 0.06259 0.0
C1536 C 0.48547 0.95532 0.07889 0.0
C1537 C 0.43861 0.93024 0.07725 0.0
C1538 C 0.42794 0.87685 0.14277 0.0
H1539 H 0.29806 0.7938 0.14955 0.0
H1540 H 0.33259 0.82835 0.12306 0.0
H1541 H 0.41378 0.84085 0.17122 0.0
H1542 H 0.50906 0.95043 0.12402 0.0
H1543 H 0.4723 0.91983 0.14995 0.0
H1544 H 0.38896 0.91251 0.10205 0.0
C1545 C 0.33631 0.82258 0.14819 0.0
C1546 C 0.40814 0.85644 0.15624 0.0
C1547 C 0.31664 0.8029 0.16322 0.0
C1548 C 0.48944 0.94522 0.11074 0.0
C1549 C 0.46839 0.92746 0.12549 0.0
C1550 C 0.39464 0.89689 0.11684 0.0
C1551 C 0.36059 0.83461 0.16552 0.0
C1552 C 0.38135 0.85594 0.15014 0.0
C1553 C 0.44291 0.91902 0.10862 0.0
C1554 C 0.42154 0.89749 0.12309 0.0
H1555 H 0.34892 0.80102 0.23808 0.0
H1556 H 0.38343 0.8352 0.21194 0.0
H1557 H 0.35428 0.87651 0.1253 0.0
H1558 H 0.45596 0.95555 0.03791 0.0
H1559 H 0.41934 0.92414 0.06342 0.0
C1560 C 0.72211 0.19665 0.18389 0.0
C1561 C 0.71931 0.2211 0.18218 0.0
C1562 C 0.70576 0.17942 0.16359 0.0
C1563 C 0.66131 0.17467 0.08841 0.0
H1564 H 0.62894 0.10535 0.12663 0.0
C1565 C 0.57075 0.10308 0.02654 0.0
C1566 C 0.56926 0.07703 0.03172 0.0
C1567 C 0.59128 0.12092 0.04257 0.0
C1568 C 0.63814 0.12449 0.11543 0.0
H1569 H 0.69845 0.24726 0.15624 0.0
H1570 H 0.6694 0.217 0.12126 0.0
H1571 H 0.66065 0.13614 0.15892 0.0
H1572 H 0.58896 0.04953 0.0566 0.0
H1573 H 0.62498 0.08074 0.08422 0.0
H1574 H 0.63856 0.16301 0.04493 0.0
C1575 C 0.68417 0.21111 0.13847 0.0
C1576 C 0.65629 0.14215 0.13397 0.0
C1577 C 0.7005 0.22831 0.15888 0.0
C1578 C 0.58934 0.0694 0.05234 0.0
C1579 C 0.60993 0.08726 0.06828 0.0
C1580 C 0.64319 0.15695 0.0698 0.0
C1581 C 0.68638 0.18634 0.14093 0.0
C1582 C 0.66793 0.16747 0.12073 0.0
C1583 C 0.61085 0.11315 0.06404 0.0
C1584 C 0.63126 0.13169 0.08317 0.0
H1585 H 0.73659 0.19055 0.20132 0.0
H1586 H 0.70822 0.16062 0.1657 0.0
H1587 H 0.67022 0.19397 0.07748 0.0
H1588 H 0.55561 0.10963 0.0108 0.0
H1589 H 0.59124 0.14066 0.03898 0.0
C1590 C 0.70501 0.69714 0.81997 0.0
C1591 C 0.7037 0.70244 0.78689 0.0
C1592 C 0.68424 0.67857 0.83421 0.0
C1593 C 0.61322 0.64058 0.81964 0.0
H1594 H 0.6324 0.59912 0.89582 0.0
C1595 C 0.56362 0.55111 0.91967 0.0
C1596 C 0.54181 0.55857 0.92387 0.0
C1597 C 0.58161 0.56612 0.89875 0.0
C1598 C 0.62658 0.61014 0.87427 0.0
H1599 H 0.67865 0.69349 0.74294 0.0
H1600 H 0.6429 0.66024 0.76771 0.0
H1601 H 0.66715 0.63013 0.8676 0.0
H1602 H 0.52109 0.58702 0.90855 0.0
H1603 H 0.55294 0.61371 0.87295 0.0
H1604 H 0.57257 0.62003 0.82595 0.0
C1605 C 0.65996 0.67053 0.78268 0.0
C1606 C 0.64659 0.62832 0.85836 0.0
C1607 C 0.68066 0.68937 0.76843 0.0
C1608 C 0.53769 0.58074 0.90573 0.0
C1609 C 0.55592 0.59598 0.88517 0.0
C1610 C 0.59314 0.62216 0.8354 0.0
C1611 C 0.66167 0.66467 0.81577 0.0
C1612 C 0.64019 0.64415 0.83123 0.0
C1613 C 0.57845 0.58918 0.88196 0.0
C1614 C 0.59958 0.60701 0.86324 0.0
H1615 H 0.72222 0.70708 0.83503 0.0
H1616 H 0.68592 0.67513 0.85978 0.0
H1617 H 0.60754 0.65249 0.79888 0.0
H1618 H 0.56707 0.53388 0.933 0.0
H1619 H 0.59833 0.55991 0.89629 0.0
C1620 C 0.34422 0.67338 0.85449 0.0
C1621 C 0.32464 0.65112 0.84531 0.0
C1622 C 0.35632 0.67413 0.8856 0.0
C1623 C 0.35779 0.63417 0.96494 0.0
H1624 H 0.43303 0.65459 0.95615 0.0
C1625 C 0.41773 0.56827 0.99503 0.0
C1626 C 0.44564 0.57708 0.99788 0.0
C1627 C 0.40329 0.58514 0.99465 0.0
C1628 C 0.41231 0.64946 0.95993 0.0
H1629 H 0.30106 0.61283 0.86221 0.0
H1630 H 0.32342 0.61333 0.91588 0.0
H1631 H 0.40392 0.67185 0.91687 0.0
H1632 H 0.48047 0.6095 0.00706 0.0
H1633 H 0.45512 0.63928 0.00574 0.0
H1634 H 0.36624 0.60969 0.00656 0.0
C1635 C 0.32891 0.63063 0.89939 0.0
C1636 C 0.3954 0.6594 0.9371 0.0
C1637 C 0.31644 0.63009 0.86837 0.0
C1638 C 0.45891 0.60238 0.00397 0.0
C1639 C 0.44442 0.61936 0.00347 0.0
C1640 C 0.37478 0.62414 0.9878 0.0
C1641 C 0.34971 0.65234 0.9081 0.0
C1642 C 0.36767 0.65014 0.93791 0.0
C1643 C 0.41649 0.61124 0.99684 0.0
C1644 C 0.40178 0.62993 0.98379 0.0
H1645 H 0.35136 0.68979 0.83727 0.0
H1646 H 0.372 0.69127 0.89151 0.0
H1647 H 0.33662 0.62745 0.96687 0.0
H1648 H 0.40695 0.54866 0.99122 0.0
H1649 H 0.38184 0.57811 0.98942 0.0
C1650 C 0.333 0.3484 0.76935 0.0
C1651 C 0.3239 0.32474 0.7881 0.0
C1652 C 0.34698 0.37054 0.78355 0.0
C1653 C 0.36369 0.39552 0.86194 0.0
H1654 H 0.42965 0.43662 0.82911 0.0
C1655 C 0.44825 0.46485 0.93609 0.0
C1656 C 0.47348 0.46234 0.93531 0.0
C1657 C 0.42664 0.45384 0.91436 0.0
C1658 C 0.41121 0.42541 0.83853 0.0
H1659 H 0.32219 0.30592 0.83646 0.0
H1660 H 0.34675 0.34387 0.86076 0.0
H1661 H 0.39694 0.40588 0.79765 0.0
H1662 H 0.49562 0.44594 0.91139 0.0
H1663 H 0.45839 0.42659 0.87466 0.0
H1664 H 0.37902 0.41352 0.90396 0.0
C1665 C 0.34266 0.34571 0.83523 0.0
C1666 C 0.39229 0.408 0.82028 0.0
C1667 C 0.32878 0.32376 0.82116 0.0
C1668 C 0.47659 0.44855 0.9126 0.0
C1669 C 0.4552 0.43762 0.89115 0.0
C1670 C 0.38277 0.41273 0.88035 0.0
C1671 C 0.35201 0.36939 0.81672 0.0
C1672 C 0.36888 0.39195 0.83244 0.0
C1673 C 0.43 0.44021 0.89154 0.0
C1674 C 0.40731 0.42691 0.86946 0.0
H1675 H 0.32929 0.34983 0.74381 0.0
H1676 H 0.35388 0.38852 0.7686 0.0
H1677 H 0.34548 0.38394 0.87162 0.0
H1678 H 0.44527 0.47548 0.9532 0.0
H1679 H 0.40741 0.4561 0.9153 0.0
C1680 C 0.69517 0.3616 0.82462 0.0
C1681 C 0.70965 0.3775 0.80047 0.0
C1682 C 0.68666 0.37212 0.84663 0.0
C1683 C 0.65358 0.39804 0.87147 0.0
H1684 H 0.6916 0.46454 0.8988 0.0
C1685 C 0.59811 0.46118 0.9002 0.0
C1686 C 0.60626 0.47255 0.9283 0.0
C1687 C 0.61392 0.44942 0.88966 0.0
C1688 C 0.6809 0.4458 0.89175 0.0
H1689 H 0.72803 0.41707 0.782 0.0
H1690 H 0.71251 0.43531 0.81954 0.0
H1691 H 0.71452 0.44327 0.87288 0.0
H1692 H 0.63843 0.48189 0.96626 0.0
H1693 H 0.66653 0.46139 0.94732 0.0
H1694 H 0.61991 0.40072 0.88983 0.0
C1695 C 0.70789 0.4147 0.82177 0.0
C1696 C 0.6939 0.43371 0.87661 0.0
C1697 C 0.71646 0.4042 0.79986 0.0
C1698 C 0.63155 0.47326 0.94456 0.0
C1699 C 0.64757 0.46148 0.9338 0.0
C1700 C 0.64065 0.4101 0.88651 0.0
C1701 C 0.69236 0.39881 0.84504 0.0
C1702 C 0.68015 0.41001 0.86542 0.0
C1703 C 0.63847 0.44878 0.90672 0.0
C1704 C 0.65385 0.43449 0.89582 0.0
H1705 H 0.68947 0.34096 0.82582 0.0
H1706 H 0.67508 0.35927 0.86449 0.0
H1707 H 0.64221 0.37993 0.86311 0.0
H1708 H 0.57893 0.46042 0.88675 0.0
H1709 H 0.60667 0.44043 0.86823 0.0
C1710 C 0.70107 0.34002 0.11474 0.0
C1711 C 0.72274 0.36184 0.12096 0.0
C1712 C 0.68709 0.33803 0.08448 0.0
C1713 C 0.68041 0.37933 0.00528 0.0
H1714 H 0.60648 0.35284 0.0207 0.0
C1715 C 0.6121 0.4341 0.0084 0.0
C1716 C 0.58541 0.4269 0.99511 0.0
C1717 C 0.62905 0.42086 0.0042 0.0
C1718 C 0.62688 0.35973 0.0152 0.0
H1719 H 0.74912 0.39649 0.09816 0.0
H1720 H 0.72319 0.39485 0.04741 0.0
H1721 H 0.63858 0.33546 0.05407 0.0
H1722 H 0.55567 0.40124 0.96549 0.0
H1723 H 0.58516 0.37629 0.96039 0.0
H1724 H 0.66832 0.40647 0.96929 0.0
C1725 C 0.71689 0.37875 0.06529 0.0
C1726 C 0.6457 0.3498 0.03464 0.0
C1727 C 0.73159 0.38015 0.09515 0.0
C1728 C 0.57622 0.407 0.97604 0.0
C1729 C 0.59305 0.39298 0.97283 0.0
C1730 C 0.66161 0.38989 0.98656 0.0
C1731 C 0.69335 0.3584 0.05988 0.0
C1732 C 0.67316 0.36109 0.0319 0.0
C1733 C 0.61944 0.39955 0.98752 0.0
C1734 C 0.63512 0.38145 0.99322 0.0
H1735 H 0.69352 0.32502 0.13339 0.0
H1736 H 0.67022 0.32116 0.08123 0.0
H1737 H 0.70096 0.38742 0.00069 0.0
H1738 H 0.61974 0.44967 0.02276 0.0
H1739 H 0.64918 0.42602 0.01621 0.0
C1740 C 0.74001 0.68657 0.19556 0.0
C1741 C 0.72975 0.69298 0.21979 0.0
C1742 C 0.72435 0.66731 0.17773 0.0
C1743 C 0.67897 0.64642 0.12856 0.0
H1744 H 0.62995 0.58126 0.15835 0.0
C1745 C 0.58386 0.59342 0.05392 0.0
C1746 C 0.57816 0.56683 0.05513 0.0
C1747 C 0.60529 0.60714 0.0735 0.0
C1748 C 0.64376 0.5993 0.14975 0.0
H1749 H 0.69585 0.68302 0.24588 0.0
H1750 H 0.66828 0.64917 0.21476 0.0
H1751 H 0.66276 0.6065 0.19641 0.0
H1752 H 0.59103 0.53391 0.07694 0.0
H1753 H 0.62826 0.55796 0.1113 0.0
H1754 H 0.65957 0.63962 0.08206 0.0
C1755 C 0.68853 0.65905 0.20968 0.0
C1756 C 0.66234 0.61374 0.17148 0.0
C1757 C 0.7043 0.6784 0.22758 0.0
C1758 C 0.59483 0.55439 0.0755 0.0
C1759 C 0.61605 0.56806 0.0953 0.0
C1760 C 0.66025 0.63214 0.10693 0.0
C1761 C 0.69811 0.65409 0.18381 0.0
C1762 C 0.67993 0.63753 0.16106 0.0
C1763 C 0.6212 0.59446 0.09478 0.0
C1764 C 0.64231 0.60862 0.11737 0.0
H1765 H 0.75986 0.69708 0.18958 0.0
H1766 H 0.73238 0.66347 0.15832 0.0
H1767 H 0.69207 0.66488 0.11994 0.0
H1768 H 0.57142 0.60355 0.03843 0.0
H1769 H 0.60882 0.62751 0.07283 0.0
C1770 C 0.34808 0.63464 0.21515 0.0
C1771 C 0.36046 0.65831 0.22683 0.0
C1772 C 0.3605 0.62589 0.19525 0.0
C1773 C 0.42732 0.6331 0.1751 0.0
H1774 H 0.38781 0.59463 0.10645 0.0
C1775 C 0.48035 0.59771 0.09403 0.0
C1776 C 0.46796 0.5733 0.08434 0.0
C1777 C 0.46687 0.60888 0.10969 0.0
C1778 C 0.39913 0.60506 0.12577 0.0
H1779 H 0.39532 0.69174 0.22569 0.0
H1780 H 0.41704 0.67657 0.1907 0.0
H1781 H 0.36499 0.61344 0.13563 0.0
H1782 H 0.43131 0.54173 0.08317 0.0
H1783 H 0.40789 0.56098 0.11108 0.0
H1784 H 0.46134 0.62443 0.16571 0.0
C1785 C 0.39776 0.66462 0.19729 0.0
C1786 C 0.38603 0.61595 0.14247 0.0
C1787 C 0.3852 0.67347 0.21708 0.0
C1788 C 0.44157 0.56044 0.09053 0.0
C1789 C 0.42804 0.57163 0.10628 0.0
C1790 C 0.44039 0.62215 0.15851 0.0
C1791 C 0.38576 0.64051 0.1865 0.0
C1792 C 0.39992 0.63003 0.16748 0.0
C1793 C 0.44055 0.596 0.11622 0.0
C1794 C 0.42649 0.60788 0.13365 0.0
H1795 H 0.32887 0.6226 0.22188 0.0
H1796 H 0.35067 0.6072 0.18765 0.0
H1797 H 0.43861 0.64339 0.19455 0.0
H1798 H 0.50053 0.60839 0.08936 0.0
H1799 H 0.47706 0.62783 0.11633 0.0
C1800 C 0.36037 0.31675 0.24506 0.0
C1801 C 0.33661 0.30907 0.22467 0.0
C1802 C 0.3821 0.33677 0.23452 0.0
C1803 C 0.39943 0.39206 0.17309 0.0
H1804 H 0.46503 0.376 0.17432 0.0
C1805 C 0.4832 0.41489 0.08621 0.0
C1806 C 0.48918 0.44155 0.0785 0.0
C1807 C 0.46884 0.40228 0.11151 0.0
C1808 C 0.44693 0.38086 0.17408 0.0
H1809 H 0.31695 0.31657 0.17758 0.0
H1810 H 0.35444 0.35119 0.15945 0.0
H1811 H 0.43067 0.34755 0.2062 0.0
H1812 H 0.48523 0.47597 0.09177 0.0
H1813 H 0.45998 0.4538 0.13586 0.0
H1814 H 0.41473 0.42436 0.13946 0.0
C1815 C 0.35631 0.34198 0.18356 0.0
C1816 C 0.42744 0.36476 0.19256 0.0
C1817 C 0.33489 0.32189 0.19387 0.0
C1818 C 0.48085 0.45538 0.09698 0.0
C1819 C 0.46642 0.44272 0.12225 0.0
C1820 C 0.4189 0.40818 0.15473 0.0
C1821 C 0.38011 0.34959 0.20369 0.0
C1822 C 0.40307 0.36964 0.19104 0.0
C1823 C 0.4601 0.41603 0.12961 0.0
C1824 C 0.44232 0.4021 0.15399 0.0
H1825 H 0.36228 0.30709 0.26891 0.0
H1826 H 0.40037 0.34224 0.25037 0.0
H1827 H 0.38085 0.39631 0.17181 0.0
H1828 H 0.48939 0.40367 0.07255 0.0
H1829 H 0.46383 0.38162 0.11623 0.0
C1830 C 0.8337 0.6642 0.63125 0.0
C1831 C 0.81343 0.67059 0.60936 0.0
C1832 C 0.8517 0.65409 0.62169 0.0
C1833 C 0.85751 0.61592 0.5645 0.0
H1834 H 0.93385 0.64663 0.58056 0.0
C1835 C 0.93092 0.57586 0.51918 0.0
C1836 C 0.95588 0.57802 0.53705 0.0
C1837 C 0.91382 0.58815 0.52651 0.0
C1838 C 0.91263 0.63736 0.57634 0.0
H1839 H 0.79756 0.67234 0.5596 0.0
H1840 H 0.82795 0.65357 0.54366 0.0
H1841 H 0.90401 0.66549 0.59767 0.0
H1842 H 0.98196 0.59425 0.57726 0.0
H1843 H 0.95199 0.61413 0.59105 0.0
H1844 H 0.86574 0.58711 0.54452 0.0
C1845 C 0.82975 0.65637 0.56821 0.0
C1846 C 0.89553 0.64839 0.58603 0.0
C1847 C 0.81218 0.66698 0.57754 0.0
C1848 C 0.96309 0.59244 0.56261 0.0
C1849 C 0.94582 0.60413 0.57039 0.0
C1850 C 0.87458 0.60449 0.55546 0.0
C1851 C 0.8496 0.64967 0.59017 0.0
C1852 C 0.8678 0.63783 0.58018 0.0
C1853 C 0.92091 0.60238 0.55243 0.0
C1854 C 0.90249 0.61498 0.56124 0.0
H1855 H 0.83531 0.66631 0.65598 0.0
H1856 H 0.86681 0.64902 0.63915 0.0
H1857 H 0.83618 0.60728 0.55984 0.0
H1858 H 0.92466 0.56485 0.49942 0.0
H1859 H 0.89511 0.58655 0.51162 0.0
C1860 C 0.34149 0.82553 0.72762 0.0
C1861 C 0.31897 0.80987 0.7112 0.0
C1862 C 0.36169 0.84325 0.71123 0.0
C1863 C 0.37429 0.8777 0.63005 0.0
H1864 H 0.44776 0.8967 0.66844 0.0
C1865 C 0.46196 0.94425 0.5629 0.0
C1866 C 0.47607 0.96653 0.57699 0.0
C1867 C 0.4443 0.9236 0.57948 0.0
C1868 C 0.4273 0.89151 0.65747 0.0
H1869 H 0.29872 0.80144 0.66498 0.0
H1870 H 0.33427 0.83134 0.6362 0.0
H1871 H 0.41389 0.86315 0.69629 0.0
H1872 H 0.4836 0.98411 0.61997 0.0
H1873 H 0.45351 0.94754 0.64934 0.0
H1874 H 0.38813 0.90557 0.5908 0.0
C1875 C 0.33667 0.83028 0.66168 0.0
C1876 C 0.40777 0.87243 0.67351 0.0
C1877 C 0.31644 0.81273 0.67813 0.0
C1878 C 0.47304 0.96721 0.6085 0.0
C1879 C 0.45589 0.94629 0.62533 0.0
C1880 C 0.39392 0.8963 0.61377 0.0
C1881 C 0.35963 0.84594 0.67793 0.0
C1882 C 0.38084 0.86543 0.66024 0.0
C1883 C 0.4409 0.92453 0.61074 0.0
C1884 C 0.42055 0.90361 0.62744 0.0
H1885 H 0.34332 0.82426 0.75314 0.0
H1886 H 0.37853 0.8553 0.72474 0.0
H1887 H 0.35386 0.87347 0.61914 0.0
H1888 H 0.46364 0.94322 0.53856 0.0
H1889 H 0.433 0.90701 0.56773 0.0
C1890 C 0.20326 0.28155 0.69489 0.0
C1891 C 0.23023 0.29022 0.70765 0.0
C1892 C 0.18983 0.29838 0.67697 0.0
C1893 C 0.19286 0.36843 0.65987 0.0
H1894 H 0.13443 0.34405 0.59548 0.0
C1895 C 0.13673 0.43772 0.5831 0.0
C1896 C 0.1094 0.42849 0.57175 0.0
C1897 C 0.15147 0.42115 0.59855 0.0
C1898 C 0.1504 0.35133 0.61363 0.0
H1899 H 0.26394 0.32438 0.71138 0.0
H1900 H 0.24084 0.35386 0.67961 0.0
H1901 H 0.16034 0.3161 0.62247 0.0
H1902 H 0.07665 0.39354 0.56811 0.0
H1903 H 0.10206 0.36465 0.59524 0.0
H1904 H 0.18286 0.40362 0.65112 0.0
C1905 C 0.22985 0.33373 0.68356 0.0
C1906 C 0.16553 0.33507 0.62934 0.0
C1907 C 0.2434 0.31669 0.70155 0.0
C1908 C 0.09751 0.40168 0.5764 0.0
C1909 C 0.11234 0.38498 0.59194 0.0
C1910 C 0.17772 0.38469 0.64416 0.0
C1911 C 0.20258 0.32498 0.67108 0.0
C1912 C 0.18709 0.34312 0.65302 0.0
C1913 C 0.13973 0.39433 0.60356 0.0
C1914 C 0.15602 0.37657 0.62065 0.0
H1915 H 0.19215 0.26146 0.69939 0.0
H1916 H 0.16896 0.29042 0.66871 0.0
H1917 H 0.20878 0.37566 0.67808 0.0
H1918 H 0.14705 0.45807 0.58 0.0
H1919 H 0.1724 0.4296 0.60616 0.0
C1920 C 0.74422 0.19925 0.67416 0.0
C1921 C 0.73451 0.21818 0.681 0.0
C1922 C 0.7284 0.18079 0.65494 0.0
C1923 C 0.65773 0.14824 0.63083 0.0
H1924 H 0.68507 0.12167 0.5708 0.0
C1925 C 0.58836 0.07128 0.55562 0.0
C1926 C 0.59776 0.05135 0.55131 0.0
C1927 C 0.60554 0.09284 0.56875 0.0
C1928 C 0.67717 0.1287 0.5877 0.0
H1929 H 0.70037 0.23212 0.67322 0.0
H1930 H 0.67308 0.20069 0.63893 0.0
H1931 H 0.7143 0.15763 0.59771 0.0
H1932 H 0.63293 0.03889 0.5569 0.0
H1933 H 0.66284 0.07633 0.58035 0.0
H1934 H 0.62084 0.11914 0.62147 0.0
C1935 C 0.69299 0.20011 0.64838 0.0
C1936 C 0.69392 0.14937 0.60307 0.0
C1937 C 0.70888 0.21859 0.66753 0.0
C1938 C 0.62498 0.05384 0.55985 0.0
C1939 C 0.64218 0.07542 0.57317 0.0
C1940 C 0.64105 0.12757 0.61559 0.0
C1941 C 0.70234 0.18065 0.64236 0.0
C1942 C 0.68441 0.15937 0.62487 0.0
C1943 C 0.63262 0.09508 0.57812 0.0
C1944 C 0.65051 0.11746 0.59384 0.0
H1945 H 0.76384 0.19829 0.6844 0.0
H1946 H 0.73618 0.16597 0.6511 0.0
H1947 H 0.64987 0.15507 0.64797 0.0
H1948 H 0.5676 0.07023 0.54897 0.0
H1949 H 0.59754 0.1078 0.57155 0.0
C1950 C 0.80936 0.33917 0.31469 0.0
C1951 C 0.81051 0.31414 0.31685 0.0
C1952 C 0.82509 0.3553 0.33653 0.0
C1953 C 0.88585 0.36307 0.39397 0.0
H1954 H 0.86349 0.41745 0.41474 0.0
C1955 C 0.96095 0.45313 0.43865 0.0
C1956 C 0.95359 0.46616 0.45896 0.0
C1957 C 0.94248 0.43191 0.42633 0.0
C1958 C 0.86995 0.40212 0.40976 0.0
H1959 H 0.82734 0.28557 0.34443 0.0
H1960 H 0.8544 0.31343 0.38323 0.0
H1961 H 0.83193 0.3848 0.38509 0.0
H1962 H 0.92152 0.46647 0.4836 0.0
H1963 H 0.88936 0.42885 0.46279 0.0
H1964 H 0.92362 0.37996 0.4194 0.0
C1965 C 0.84222 0.32105 0.36403 0.0
C1966 C 0.85194 0.3836 0.39224 0.0
C1967 C 0.82681 0.30509 0.34181 0.0
C1968 C 0.92762 0.45701 0.4676 0.0
C1969 C 0.9092 0.43551 0.4556 0.0
C1970 C 0.90371 0.38134 0.41192 0.0
C1971 C 0.84188 0.34651 0.36138 0.0
C1972 C 0.8599 0.36428 0.38332 0.0
C1973 C 0.9163 0.42293 0.43441 0.0
C1974 C 0.89625 0.40154 0.41921 0.0
H1975 H 0.79694 0.34656 0.29552 0.0
H1976 H 0.82463 0.37488 0.3333 0.0
H1977 H 0.89281 0.34861 0.38745 0.0
H1978 H 0.9808 0.45976 0.43146 0.0
H1979 H 0.94857 0.42309 0.40961 0.0
C1980 C 0.70136 0.81281 0.42677 0.0
C1981 C 0.69922 0.81007 0.39455 0.0
C1982 C 0.69175 0.83064 0.43637 0.0
C1983 C 0.64308 0.86671 0.40838 0.0
H1984 H 0.67417 0.90008 0.4835 0.0
C1985 C 0.58326 0.91242 0.46504 0.0
C1986 C 0.59593 0.93654 0.47536 0.0
C1987 C 0.59796 0.89825 0.45694 0.0
C1988 C 0.66534 0.8911 0.46232 0.0
H1989 H 0.68615 0.82504 0.34715 0.0
H1990 H 0.6701 0.8566 0.36376 0.0
H1991 H 0.69703 0.87485 0.46442 0.0
H1992 H 0.63431 0.96401 0.48701 0.0
H1993 H 0.66026 0.93922 0.47243 0.0
H1994 H 0.61166 0.88314 0.40589 0.0
C1995 C 0.6787 0.84449 0.38174 0.0
C1996 C 0.67832 0.87638 0.45151 0.0
C1997 C 0.68824 0.82655 0.37213 0.0
C1998 C 0.62394 0.94553 0.47906 0.0
C1999 C 0.63878 0.9313 0.47068 0.0
C2000 C 0.6302 0.88139 0.41911 0.0
C2001 C 0.67981 0.84645 0.41406 0.0
C2002 C 0.6672 0.86371 0.42455 0.0
C2003 C 0.62586 0.90779 0.45861 0.0
C2004 C 0.64086 0.89346 0.44653 0.0
H2005 H 0.71015 0.80085 0.44477 0.0
H2006 H 0.69288 0.83135 0.46145 0.0
H2007 H 0.63363 0.85712 0.3878 0.0
H2008 H 0.56175 0.9046 0.4625 0.0
H2009 H 0.5873 0.87989 0.44882 0.0
C2010 C 0.2025 0.69743 0.27133 0.0
C2011 C 0.21916 0.71784 0.28717 0.0
C2012 C 0.18482 0.6766 0.28754 0.0
C2013 C 0.15702 0.62903 0.329 0.0
H2014 H 0.12608 0.64076 0.39785 0.0
C2015 C 0.09595 0.54469 0.40987 0.0
C2016 C 0.0758 0.54768 0.42465 0.0
C2017 C 0.11246 0.56547 0.39239 0.0
C2018 C 0.13408 0.63706 0.37836 0.0
H2019 H 0.22896 0.73383 0.33133 0.0
H2020 H 0.19946 0.69698 0.36036 0.0
H2021 H 0.15598 0.67655 0.36862 0.0
H2022 H 0.05683 0.57487 0.43206 0.0
H2023 H 0.08464 0.61102 0.39995 0.0
H2024 H 0.1338 0.58987 0.33729 0.0
C2025 C 0.19976 0.69674 0.33546 0.0
C2026 C 0.15183 0.65766 0.3619 0.0
C2027 C 0.21719 0.71764 0.3191 0.0
C2028 C 0.0722 0.57196 0.42097 0.0
C2029 C 0.08839 0.59275 0.40277 0.0
C2030 C 0.1388 0.60855 0.34494 0.0
C2031 C 0.18314 0.67592 0.31991 0.0
C2032 C 0.16381 0.65395 0.33716 0.0
C2033 C 0.10899 0.58987 0.38846 0.0
C2034 C 0.12727 0.61213 0.37019 0.0
H2035 H 0.20281 0.69781 0.24626 0.0
H2036 H 0.17193 0.66145 0.27434 0.0
H2037 H 0.16598 0.62515 0.31048 0.0
H2038 H 0.09964 0.52636 0.41266 0.0
H2039 H 0.12842 0.56236 0.3827 0.0
C2040 C 0.33068 0.22213 0.30257 0.0
C2041 C 0.30366 0.20864 0.29428 0.0
C2042 C 0.34856 0.20947 0.32102 0.0
C2043 C 0.34949 0.14654 0.37302 0.0
H2044 H 0.42358 0.16649 0.35893 0.0
C2045 C 0.41416 0.07831 0.42265 0.0
C2046 C 0.44164 0.08799 0.43297 0.0
C2047 C 0.39894 0.09444 0.40734 0.0
C2048 C 0.40303 0.16065 0.36358 0.0
H2049 H 0.27502 0.17087 0.29863 0.0
H2050 H 0.30535 0.14919 0.32993 0.0
H2051 H 0.39485 0.19171 0.33044 0.0
H2052 H 0.47422 0.12328 0.43452 0.0
H2053 H 0.44776 0.1515 0.40767 0.0
H2054 H 0.35739 0.11552 0.40588 0.0
C2055 C 0.31304 0.16964 0.32325 0.0
C2056 C 0.38635 0.1753 0.34707 0.0
C2057 C 0.29541 0.18218 0.30493 0.0
C2058 C 0.45325 0.1148 0.42708 0.0
C2059 C 0.43794 0.13108 0.41141 0.0
C2060 C 0.36604 0.13193 0.38934 0.0
C2061 C 0.34014 0.18281 0.33176 0.0
C2062 C 0.359 0.16837 0.35101 0.0
C2063 C 0.41031 0.12126 0.40132 0.0
C2064 C 0.39314 0.13832 0.38475 0.0
H2065 H 0.33816 0.24236 0.29428 0.0
H2066 H 0.36903 0.22069 0.32687 0.0
H2067 H 0.32901 0.14057 0.37794 0.0
H2068 H 0.4041 0.05793 0.42643 0.0
H2069 H 0.37808 0.0856 0.39975 0.0
C2070 C 0.74377 0.82084 0.68619 0.0
C2071 C 0.73479 0.7965 0.70386 0.0
C2072 C 0.72587 0.83344 0.6686 0.0
C2073 C 0.66177 0.84371 0.66842 0.0
H2074 H 0.66538 0.87089 0.57989 0.0
C2075 C 0.61873 0.9273 0.60448 0.0
C2076 C 0.60218 0.92363 0.57553 0.0
C2077 C 0.63241 0.90968 0.61941 0.0
C2078 C 0.66394 0.86341 0.60458 0.0
H2079 H 0.6992 0.76688 0.71731 0.0
H2080 H 0.66781 0.7894 0.68757 0.0
H2081 H 0.69346 0.84417 0.60631 0.0
H2082 H 0.58799 0.89822 0.53945 0.0
H2083 H 0.61283 0.8681 0.56471 0.0
H2084 H 0.6334 0.86414 0.6672 0.0
C2085 C 0.68897 0.79834 0.6866 0.0
C2086 C 0.68017 0.84805 0.61982 0.0
C2087 C 0.70699 0.78525 0.70348 0.0
C2088 C 0.60011 0.90166 0.56188 0.0
C2089 C 0.61458 0.88442 0.57634 0.0
C2090 C 0.64616 0.85972 0.65344 0.0
C2091 C 0.69813 0.82278 0.66895 0.0
C2092 C 0.6794 0.83785 0.65206 0.0
C2093 C 0.63096 0.88805 0.6055 0.0
C2094 C 0.64691 0.86992 0.6212 0.0
H2095 H 0.76495 0.8304 0.68628 0.0
H2096 H 0.73389 0.85216 0.65564 0.0
H2097 H 0.66066 0.83655 0.69324 0.0
H2098 H 0.62116 0.944 0.61573 0.0
H2099 H 0.64483 0.91343 0.6416 0.0
C2100 C 0.73865 0.21444 0.34182 0.0
C2101 C 0.73467 0.22196 0.30916 0.0
C2102 C 0.71925 0.19447 0.35677 0.0
C2103 C 0.64803 0.15884 0.35002 0.0
H2104 H 0.67 0.10481 0.40545 0.0
C2105 C 0.57998 0.07716 0.4323 0.0
C2106 C 0.58064 0.05236 0.43047 0.0
C2107 C 0.59752 0.09873 0.41671 0.0
C2108 C 0.66357 0.11979 0.39009 0.0
H2109 H 0.70814 0.21332 0.26613 0.0
H2110 H 0.67373 0.17895 0.29246 0.0
H2111 H 0.70334 0.14075 0.37992 0.0
H2112 H 0.60005 0.03102 0.41 0.0
H2113 H 0.63054 0.06838 0.38359 0.0
H2114 H 0.6082 0.13778 0.3604 0.0
C2115 C 0.69164 0.18887 0.30657 0.0
C2116 C 0.68267 0.14042 0.37563 0.0
C2117 C 0.71126 0.20859 0.29154 0.0
C2118 C 0.59882 0.04971 0.41208 0.0
C2119 C 0.6165 0.07116 0.39702 0.0
C2120 C 0.62894 0.13837 0.36496 0.0
C2121 C 0.69545 0.18158 0.33936 0.0
C2122 C 0.67509 0.16006 0.35524 0.0
C2123 C 0.61634 0.09591 0.39948 0.0
C2124 C 0.6365 0.11849 0.38488 0.0
H2125 H 0.75683 0.22404 0.35578 0.0
H2126 H 0.72279 0.18918 0.38204 0.0
H2127 H 0.64167 0.1738 0.33452 0.0
H2128 H 0.5663 0.07995 0.44626 0.0
H2129 H 0.59699 0.11764 0.419 0.0
C2130 C 0.85068 0.73737 0.31136 0.0
C2131 C 0.82366 0.7289 0.29868 0.0
C2132 C 0.86405 0.72034 0.32887 0.0
C2133 C 0.86075 0.65019 0.34516 0.0
H2134 H 0.9189 0.67389 0.41012 0.0
C2135 C 0.91633 0.58015 0.42139 0.0
C2136 C 0.94358 0.58926 0.43315 0.0
C2137 C 0.90172 0.59686 0.40603 0.0
C2138 C 0.90302 0.6668 0.39181 0.0
H2139 H 0.78984 0.69488 0.29458 0.0
H2140 H 0.81288 0.66504 0.32556 0.0
H2141 H 0.89326 0.70211 0.38328 0.0
H2142 H 0.97632 0.62413 0.43758 0.0
H2143 H 0.95115 0.65323 0.41058 0.0
H2144 H 0.87057 0.61491 0.35358 0.0
C2145 C 0.82394 0.68517 0.32189 0.0
C2146 C 0.88804 0.68322 0.37619 0.0
C2147 C 0.81044 0.7024 0.30432 0.0
C2148 C 0.95552 0.61607 0.42898 0.0
C2149 C 0.94082 0.6329 0.41351 0.0
C2150 C 0.87575 0.63376 0.36078 0.0
C2151 C 0.85121 0.69373 0.33442 0.0
C2152 C 0.86657 0.67542 0.35231 0.0
C2153 C 0.9135 0.6237 0.40149 0.0
C2154 C 0.89735 0.64162 0.3845 0.0
H2155 H 0.86182 0.75747 0.30725 0.0
H2156 H 0.88493 0.72817 0.33719 0.0
H2157 H 0.84489 0.64315 0.3268 0.0
H2158 H 0.90599 0.5598 0.42413 0.0
H2159 H 0.88084 0.5885 0.39811 0.0
C2160 C 0.34965 0.80498 0.32815 0.0
C2161 C 0.32189 0.80008 0.32401 0.0
C2162 C 0.36593 0.82297 0.34786 0.0
C2163 C 0.36476 0.88031 0.3788 0.0
H2164 H 0.42895 0.87438 0.43195 0.0
C2165 C 0.42805 0.95906 0.45561 0.0
C2166 C 0.45583 0.96585 0.45599 0.0
C2167 C 0.41134 0.93718 0.44258 0.0
C2168 C 0.41117 0.87641 0.41703 0.0
H2169 H 0.28929 0.80869 0.33907 0.0
H2170 H 0.31745 0.83944 0.37364 0.0
H2171 H 0.40087 0.83862 0.40392 0.0
H2172 H 0.48776 0.95446 0.44353 0.0
H2173 H 0.45873 0.91684 0.4205 0.0
H2174 H 0.37516 0.91816 0.39127 0.0
C2175 C 0.32681 0.83006 0.3611 0.0
C2176 C 0.39509 0.8559 0.40098 0.0
C2177 C 0.31065 0.81228 0.3414 0.0
C2178 C 0.46647 0.94993 0.44363 0.0
C2179 C 0.4498 0.92815 0.4306 0.0
C2180 C 0.38082 0.90078 0.39474 0.0
C2181 C 0.35467 0.83625 0.36383 0.0
C2182 C 0.3717 0.85763 0.38163 0.0
C2183 C 0.42201 0.92158 0.42962 0.0
C2184 C 0.40429 0.89918 0.41397 0.0
H2185 H 0.35887 0.79599 0.31489 0.0
H2186 H 0.38734 0.82736 0.34938 0.0
H2187 H 0.34717 0.88253 0.36358 0.0
H2188 H 0.41917 0.97074 0.46512 0.0
H2189 H 0.39003 0.93249 0.44264 0.0
C2190 C 0.21464 0.32387 0.42706 0.0
C2191 C 0.22228 0.32858 0.3964 0.0
C2192 C 0.19974 0.33765 0.43576 0.0
C2193 C 0.15519 0.37728 0.40308 0.0
H2194 H 0.17133 0.39815 0.4871 0.0
C2195 C 0.08395 0.41507 0.45316 0.0
C2196 C 0.09475 0.43641 0.46991 0.0
C2197 C 0.10029 0.40256 0.44501 0.0
C2198 C 0.16668 0.39267 0.46347 0.0
H2199 H 0.2197 0.35141 0.35072 0.0
H2200 H 0.19351 0.37542 0.36583 0.0
H2201 H 0.19825 0.37568 0.47044 0.0
H2202 H 0.13138 0.46061 0.49233 0.0
H2203 H 0.1601 0.43863 0.47803 0.0
H2204 H 0.12382 0.39446 0.39595 0.0
C2205 C 0.199 0.3609 0.38314 0.0
C2206 C 0.18194 0.3795 0.454 0.0
C2207 C 0.21398 0.34708 0.37442 0.0
C2208 C 0.12238 0.44433 0.4793 0.0
C2209 C 0.13883 0.43167 0.47117 0.0
C2210 C 0.13991 0.39035 0.41257 0.0
C2211 C 0.1919 0.35655 0.41407 0.0
C2212 C 0.17627 0.37143 0.42375 0.0
C2213 C 0.128 0.4109 0.45337 0.0
C2214 C 0.14525 0.39802 0.443 0.0
H2215 H 0.22015 0.3094 0.44446 0.0
H2216 H 0.19413 0.33329 0.45952 0.0
H2217 H 0.15007 0.37127 0.37972 0.0
H2218 H 0.06276 0.40815 0.44575 0.0
H2219 H 0.09112 0.38627 0.43202 0.0
C2220 C 0.34264 0.19775 0.58201 0.0
C2221 C 0.35133 0.20727 0.61136 0.0
C2222 C 0.35348 0.18041 0.57324 0.0
C2223 C 0.41486 0.16224 0.58726 0.0
H2224 H 0.37318 0.10153 0.5484 0.0
C2225 C 0.46528 0.09099 0.56619 0.0
C2226 C 0.45684 0.07808 0.53927 0.0
C2227 C 0.45076 0.10534 0.57421 0.0
C2228 C 0.38519 0.1186 0.55877 0.0
H2229 H 0.37787 0.2055 0.65476 0.0
H2230 H 0.39706 0.1755 0.63933 0.0
H2231 H 0.35071 0.12864 0.56445 0.0
H2232 H 0.42567 0.06958 0.50017 0.0
H2233 H 0.40059 0.09572 0.51344 0.0
H2234 H 0.44931 0.15309 0.58084 0.0
C2235 C 0.38179 0.18145 0.6231 0.0
C2236 C 0.37226 0.13407 0.56815 0.0
C2237 C 0.37065 0.19848 0.63207 0.0
C2238 C 0.43288 0.07944 0.5209 0.0
C2239 C 0.41843 0.09434 0.52869 0.0
C2240 C 0.42775 0.14708 0.57753 0.0
C2241 C 0.37359 0.17244 0.5934 0.0
C2242 C 0.38696 0.1559 0.58293 0.0
C2243 C 0.42743 0.10783 0.5553 0.0
C2244 C 0.41318 0.12473 0.56362 0.0
H2245 H 0.32763 0.20396 0.5656 0.0
H2246 H 0.34677 0.17395 0.55018 0.0
H2247 H 0.42685 0.17924 0.59784 0.0
H2248 H 0.48328 0.08998 0.58141 0.0
H2249 H 0.45798 0.11448 0.59551 0.0
C2250 C 0.85446 0.31975 0.7309 0.0
C2251 C 0.83135 0.30259 0.71733 0.0
C2252 C 0.87068 0.33963 0.71197 0.0
C2253 C 0.89606 0.35838 0.63759 0.0
H2254 H 0.90738 0.42828 0.65156 0.0
C2255 C 0.96272 0.44522 0.56296 0.0
C2256 C 0.97618 0.46761 0.57704 0.0
C2257 C 0.94461 0.42459 0.57896 0.0
C2258 C 0.90493 0.40892 0.64764 0.0
H2259 H 0.80812 0.29124 0.67333 0.0
H2260 H 0.83715 0.32602 0.63974 0.0
H2261 H 0.87624 0.39316 0.68082 0.0
H2262 H 0.98203 0.4855 0.61943 0.0
H2263 H 0.95181 0.44913 0.6481 0.0
H2264 H 0.92571 0.37371 0.60577 0.0
C2265 C 0.84206 0.32445 0.66518 0.0
C2266 C 0.88677 0.38883 0.66418 0.0
C2267 C 0.82538 0.30483 0.68428 0.0
C2268 C 0.97188 0.46855 0.60791 0.0
C2269 C 0.95422 0.44773 0.62418 0.0
C2270 C 0.91469 0.37844 0.62147 0.0
C2271 C 0.86468 0.34217 0.67897 0.0
C2272 C 0.88227 0.3634 0.65942 0.0
C2273 C 0.93982 0.42561 0.60972 0.0
C2274 C 0.91959 0.40406 0.62642 0.0
H2275 H 0.85981 0.31793 0.7563 0.0
H2276 H 0.88816 0.35287 0.72309 0.0
H2277 H 0.89311 0.33885 0.63382 0.0
H2278 H 0.96527 0.44404 0.53898 0.0
H2279 H 0.93376 0.40823 0.56666 0.0
C2280 C 0.20684 0.70963 0.66762 0.0
C2281 C 0.23436 0.71416 0.67578 0.0
C2282 C 0.19271 0.6925 0.64616 0.0
C2283 C 0.19529 0.63567 0.61697 0.0
H2284 H 0.13547 0.64577 0.55778 0.0
C2285 C 0.12732 0.55655 0.54359 0.0
C2286 C 0.09983 0.55211 0.54331 0.0
C2287 C 0.14574 0.57844 0.55473 0.0
C2288 C 0.15208 0.64266 0.57426 0.0
H2289 H 0.26896 0.70522 0.66697 0.0
H2290 H 0.24422 0.67528 0.62928 0.0
H2291 H 0.16457 0.68096 0.58595 0.0
H2292 H 0.07016 0.56765 0.55368 0.0
H2293 H 0.10224 0.60551 0.57346 0.0
H2294 H 0.18237 0.59716 0.60608 0.0
C2295 C 0.23355 0.6848 0.63974 0.0
C2296 C 0.16875 0.6628 0.59034 0.0
C2297 C 0.24772 0.70205 0.66113 0.0
C2298 C 0.09118 0.57038 0.55365 0.0
C2299 C 0.10958 0.59224 0.56475 0.0
C2300 C 0.17861 0.61552 0.60091 0.0
C2301 C 0.20581 0.67954 0.63243 0.0
C2302 C 0.19018 0.65934 0.61239 0.0
C2303 C 0.13706 0.59638 0.56574 0.0
C2304 C 0.15648 0.61862 0.57991 0.0
H2305 H 0.19611 0.71904 0.6781 0.0
H2306 H 0.17133 0.68872 0.64124 0.0
H2307 H 0.21144 0.6323 0.63409 0.0
H2308 H 0.13469 0.54296 0.5356 0.0
H2309 H 0.16679 0.58124 0.55488 0.0
loop_
_geom_bond_atom_site_label_1
_geom_bond_atom_site_label_2
_geom_bond_distance
_geom_bond_site_symmetry_2
_ccdc_geom_bond_type
Tb0 N31 2.660 . S
Tb0 N38 2.600 . S
Tb0 O44 2.546 . S
Tb0 O45 2.610 . S
Tb0 O47 2.320 . S
Tb0 O48 2.552 . S
Tb0 O49 2.413 . S
Tb0 O51 2.362 . S
Tb0 O52 2.421 . S
Tb0 C64 2.833 . S
C1 C4 1.432 . S
C1 C5 1.414 . S
C1 N8 1.359 . S
C2 C4 1.417 . S
C2 C6 1.432 . S
C2 C14 1.410 . S
C3 C5 1.444 . S
C3 C6 1.317 . S
C3 H26 0.929 . S
C4 C1 1.432 . S
C4 C2 1.417 . S
C4 N12 1.360 . S
C5 C1 1.414 . S
C5 C3 1.444 . S
C5 C10 1.385 . S
C6 C2 1.432 . S
C6 C3 1.317 . S
C6 H18 0.930 . S
C7 C9 1.392 . S
C7 C10 1.370 . S
C7 H19 0.931 . S
N8 C1 1.359 . S
N8 C9 1.327 . S
N8 Tb11 2.600 . S
C9 C7 1.392 . S
C9 N8 1.327 . S
C9 H16 0.930 . S
C10 C5 1.385 . S
C10 C7 1.370 . S
C10 H29 0.930 . S
Tb11 N8 2.600 . S
Tb11 N12 2.660 . S
Tb11 O45 2.362 . S
Tb11 O46 2.421 . S
Tb11 O50 2.546 . S
Tb11 O51 2.610 . S
Tb11 O53 2.320 . S
Tb11 O54 2.552 . S
Tb11 O55 2.413 . S
Tb11 C75 2.833 . S
N12 C4 1.360 . S
N12 Tb11 2.660 . S
N12 C13 1.305 . S
C13 N12 1.305 . S
C13 C15 1.407 . S
C13 H20 0.930 . S
C14 C2 1.410 . S
C14 C15 1.345 . S
C14 H22 0.930 . S
C15 C13 1.407 . S
C15 C14 1.345 . S
C15 H17 0.930 . S
H16 C9 0.930 . S
H17 C15 0.930 . S
H18 C6 0.930 . S
H19 C7 0.931 . S
H20 C13 0.930 . S
H21 C35 0.930 . S
H22 C14 0.930 . S
H23 C41 0.930 . S
H24 C32 0.930 . S
H25 C39 0.931 . S
H26 C3 0.929 . S
H27 C33 0.930 . S
H28 C66 0.930 . S
H29 C10 0.930 . S
H30 C65 0.929 . S
N31 Tb0 2.660 . S
N31 C32 1.305 . S
N31 C36 1.360 . S
C32 H24 0.930 . S
C32 N31 1.305 . S
C32 C35 1.407 . S
C33 H27 0.930 . S
C33 C34 1.410 . S
C33 C35 1.345 . S
C34 C33 1.410 . S
C34 C36 1.417 . S
C34 C66 1.432 . S
C35 H21 0.930 . S
C35 C32 1.407 . S
C35 C33 1.345 . S
C36 N31 1.360 . S
C36 C34 1.417 . S
C36 C40 1.432 . S
H37 C42 0.930 . S
N38 Tb0 2.600 . S
N38 C40 1.359 . S
N38 C41 1.327 . S
C39 H25 0.931 . S
C39 C41 1.392 . S
C39 C42 1.370 . S
C40 C36 1.432 . S
C40 N38 1.359 . S
C40 C43 1.414 . S
C41 H23 0.930 . S
C41 N38 1.327 . S
C41 C39 1.392 . S
C42 H37 0.930 . S
C42 C39 1.370 . S
C42 C43 1.385 . S
C43 C40 1.414 . S
C43 C42 1.385 . S
C43 C65 1.444 . S
O44 Tb0 2.546 . S
O44 C64 1.251 . S
O45 Tb0 2.610 . S
O45 Tb11 2.362 . S
O45 C56 1.283 . S
O46 Tb11 2.421 . S
O46 C63 1.262 . S
O47 Tb0 2.320 . S
O47 C63 1.260 . S
O48 Tb0 2.552 . S
O48 C56 1.243 . S
O49 Tb0 2.413 . S
O49 C64 1.256 . S
O50 Tb11 2.546 . S
O50 C75 1.251 . S
O51 Tb0 2.362 . S
O51 Tb11 2.610 . S
O51 C67 1.283 . S
O52 Tb0 2.421 . S
O52 C74 1.262 . S
O53 Tb11 2.320 . S
O53 C74 1.260 . S
O54 Tb11 2.552 . S
O54 C67 1.243 . S
O55 Tb11 2.413 . S
O55 C75 1.256 . S
C56 O45 1.283 . S
C56 O48 1.243 . S
C57 C59 1.382 . S
C57 C61 1.393 . S
C57 C64 1.500 . S
C58 C59 1.400 . S
C58 C60 1.384 . S
C59 C57 1.382 . S
C59 C58 1.400 . S
C59 H76 0.930 . S
C60 C58 1.384 . S
C60 C62 1.392 . S
C60 H77 0.931 . S
C61 C57 1.393 . S
C61 C62 1.401 . S
C61 H78 0.930 . S
C62 C60 1.392 . S
C62 C61 1.401 . S
C62 H79 0.930 . S
C63 O46 1.262 . S
C63 O47 1.260 . S
C64 Tb0 2.833 . S
C64 O44 1.251 . S
C64 O49 1.256 . S
C64 C57 1.500 . S
C65 H30 0.929 . S
C65 C43 1.444 . S
C65 C66 1.317 . S
C66 H28 0.930 . S
C66 C34 1.432 . S
C66 C65 1.317 . S
C67 O51 1.283 . S
C67 O54 1.243 . S
C68 C69 1.382 . S
C68 C72 1.393 . S
C68 C75 1.500 . S
C69 C68 1.382 . S
C69 C70 1.400 . S
C69 H80 0.930 . S
C70 C69 1.400 . S
C70 C71 1.384 . S
C71 C70 1.384 . S
C71 C73 1.392 . S
C71 H81 0.931 . S
C72 C68 1.393 . S
C72 C73 1.401 . S
C72 H82 0.930 . S
C73 C71 1.392 . S
C73 C72 1.401 . S
C73 H83 0.930 . S
C74 O52 1.262 . S
C74 O53 1.260 . S
C75 Tb11 2.833 . S
C75 O50 1.251 . S
C75 O55 1.256 . S
C75 C68 1.500 . S
H76 C59 0.930 . S
H77 C60 0.931 . S
H78 C61 0.930 . S
H79 C62 0.930 . S
H80 C69 0.930 . S
H81 C71 0.931 . S
H82 C72 0.930 . S
H83 C73 0.930 . S
Tb84 N115 2.660 . S
Tb84 N122 2.600 . S
Tb84 O128 2.546 . S
Tb84 O129 2.610 . S
Tb84 O131 2.320 . S
Tb84 O132 2.552 . S
Tb84 O133 2.413 . S
Tb84 O135 2.362 . S
Tb84 O136 2.421 . S
Tb84 C148 2.833 . S
C85 C88 1.432 . S
C85 C89 1.414 . S
C85 N92 1.359 . S
C86 C88 1.417 . S
C86 C90 1.432 . S
C86 C98 1.410 . S
C87 C89 1.444 . S
C87 C90 1.317 . S
C87 H110 0.929 . S
C88 C85 1.432 . S
C88 C86 1.417 . S
C88 N96 1.360 . S
C89 C85 1.414 . S
C89 C87 1.444 . S
C89 C94 1.385 . S
C90 C86 1.432 . S
C90 C87 1.317 . S
C90 H102 0.930 . S
C91 C93 1.392 . S
C91 C94 1.370 . S
C91 H103 0.931 . S
N92 C85 1.359 . S
N92 C93 1.327 . S
N92 Tb95 2.600 . S
C93 C91 1.392 . S
C93 N92 1.327 . S
C93 H100 0.930 . S
C94 C89 1.385 . S
C94 C91 1.370 . S
C94 H113 0.930 . S
Tb95 N92 2.600 . S
Tb95 N96 2.660 . S
Tb95 O129 2.362 . S
Tb95 O130 2.421 . S
Tb95 O134 2.546 . S
Tb95 O135 2.610 . S
Tb95 O137 2.320 . S
Tb95 O138 2.552 . S
Tb95 O139 2.413 . S
Tb95 C159 2.833 . S
N96 C88 1.360 . S
N96 Tb95 2.660 . S
N96 C97 1.305 . S
C97 N96 1.305 . S
C97 C99 1.407 . S
C97 H104 0.930 . S
C98 C86 1.410 . S
C98 C99 1.345 . S
C98 H106 0.930 . S
C99 C97 1.407 . S
C99 C98 1.345 . S
C99 H101 0.930 . S
H100 C93 0.930 . S
H101 C99 0.930 . S
H102 C90 0.930 . S
H103 C91 0.931 . S
H104 C97 0.930 . S
H105 C119 0.930 . S
H106 C98 0.930 . S
H107 C125 0.930 . S
H108 C116 0.930 . S
H109 C123 0.931 . S
H110 C87 0.929 . S
H111 C117 0.930 . S
H112 C150 0.930 . S
H113 C94 0.930 . S
H114 C149 0.929 . S
N115 Tb84 2.660 . S
N115 C116 1.305 . S
N115 C120 1.360 . S
C116 H108 0.930 . S
C116 N115 1.305 . S
C116 C119 1.407 . S
C117 H111 0.930 . S
C117 C118 1.410 . S
C117 C119 1.345 . S
C118 C117 1.410 . S
C118 C120 1.417 . S
C118 C150 1.432 . S
C119 H105 0.930 . S
C119 C116 1.407 . S
C119 C117 1.345 . S
C120 N115 1.360 . S
C120 C118 1.417 . S
C120 C124 1.432 . S
H121 C126 0.930 . S
N122 Tb84 2.600 . S
N122 C124 1.359 . S
N122 C125 1.327 . S
C123 H109 0.931 . S
C123 C125 1.392 . S
C123 C126 1.370 . S
C124 C120 1.432 . S
C124 N122 1.359 . S
C124 C127 1.414 . S
C125 H107 0.930 . S
C125 N122 1.327 . S
C125 C123 1.392 . S
C126 H121 0.930 . S
C126 C123 1.370 . S
C126 C127 1.385 . S
C127 C124 1.414 . S
C127 C126 1.385 . S
C127 C149 1.444 . S
O128 Tb84 2.546 . S
O128 C148 1.251 . S
O129 Tb84 2.610 . S
O129 Tb95 2.362 . S
O129 C140 1.283 . S
O130 Tb95 2.421 . S
O130 C147 1.262 . S
O131 Tb84 2.320 . S
O131 C147 1.260 . S
O132 Tb84 2.552 . S
O132 C140 1.243 . S
O133 Tb84 2.413 . S
O133 C148 1.256 . S
O134 Tb95 2.546 . S
O134 C159 1.251 . S
O135 Tb84 2.362 . S
O135 Tb95 2.610 . S
O135 C151 1.283 . S
O136 Tb84 2.421 . S
O136 C158 1.262 . S
O137 Tb95 2.320 . S
O137 C158 1.260 . S
O138 Tb95 2.552 . S
O138 C151 1.243 . S
O139 Tb95 2.413 . S
O139 C159 1.256 . S
C140 O129 1.283 . S
C140 O132 1.243 . S
C141 C143 1.382 . S
C141 C145 1.393 . S
C141 C148 1.500 . S
C142 C143 1.400 . S
C142 C144 1.384 . S
C143 C141 1.382 . S
C143 C142 1.400 . S
C143 H160 0.930 . S
C144 C142 1.384 . S
C144 C146 1.392 . S
C144 H161 0.931 . S
C145 C141 1.393 . S
C145 C146 1.401 . S
C145 H162 0.930 . S
C146 C144 1.392 . S
C146 C145 1.401 . S
C146 H163 0.930 . S
C147 O130 1.262 . S
C147 O131 1.260 . S
C148 Tb84 2.833 . S
C148 O128 1.251 . S
C148 O133 1.256 . S
C148 C141 1.500 . S
C149 H114 0.929 . S
C149 C127 1.444 . S
C149 C150 1.317 . S
C150 H112 0.930 . S
C150 C118 1.432 . S
C150 C149 1.317 . S
C151 O135 1.283 . S
C151 O138 1.243 . S
C152 C153 1.382 . S
C152 C156 1.393 . S
C152 C159 1.500 . S
C153 C152 1.382 . S
C153 C154 1.400 . S
C153 H164 0.930 . S
C154 C153 1.400 . S
C154 C155 1.384 . S
C155 C154 1.384 . S
C155 C157 1.392 . S
C155 H165 0.931 . S
C156 C152 1.393 . S
C156 C157 1.401 . S
C156 H166 0.930 . S
C157 C155 1.392 . S
C157 C156 1.401 . S
C157 H167 0.930 . S
C158 O136 1.262 . S
C158 O137 1.260 . S
C159 Tb95 2.833 . S
C159 O134 1.251 . S
C159 O139 1.256 . S
C159 C152 1.500 . S
H160 C143 0.930 . S
H161 C144 0.931 . S
H162 C145 0.930 . S
H163 C146 0.930 . S
H164 C153 0.930 . S
H165 C155 0.931 . S
H166 C156 0.930 . S
H167 C157 0.930 . S
Tb168 N199 2.660 . S
Tb168 N206 2.600 . S
Tb168 O212 2.546 . S
Tb168 O213 2.610 . S
Tb168 O215 2.320 . S
Tb168 O216 2.552 . S
Tb168 O217 2.413 . S
Tb168 O219 2.362 . S
Tb168 O220 2.421 . S
Tb168 C232 2.833 . S
C169 C172 1.432 . S
C169 C173 1.414 . S
C169 N176 1.359 . S
C170 C172 1.417 . S
C170 C174 1.432 . S
C170 C182 1.410 . S
C171 C173 1.444 . S
C171 C174 1.317 . S
C171 H194 0.929 . S
C172 C169 1.432 . S
C172 C170 1.417 . S
C172 N180 1.360 . S
C173 C169 1.414 . S
C173 C171 1.444 . S
C173 C178 1.385 . S
C174 C170 1.432 . S
C174 C171 1.317 . S
C174 H186 0.930 . S
C175 C177 1.392 . S
C175 C178 1.370 . S
C175 H187 0.931 . S
N176 C169 1.359 . S
N176 C177 1.327 . S
N176 Tb179 2.600 . S
C177 C175 1.392 . S
C177 N176 1.327 . S
C177 H184 0.930 . S
C178 C173 1.385 . S
C178 C175 1.370 . S
C178 H197 0.930 . S
Tb179 N176 2.600 . S
Tb179 N180 2.660 . S
Tb179 O213 2.362 . S
Tb179 O214 2.421 . S
Tb179 O218 2.546 . S
Tb179 O219 2.610 . S
Tb179 O221 2.320 . S
Tb179 O222 2.552 . S
Tb179 O223 2.413 . S
Tb179 C243 2.833 . S
N180 C172 1.360 . S
N180 Tb179 2.660 . S
N180 C181 1.305 . S
C181 N180 1.305 . S
C181 C183 1.407 . S
C181 H188 0.930 . S
C182 C170 1.410 . S
C182 C183 1.345 . S
C182 H190 0.930 . S
C183 C181 1.407 . S
C183 C182 1.345 . S
C183 H185 0.930 . S
H184 C177 0.930 . S
H185 C183 0.930 . S
H186 C174 0.930 . S
H187 C175 0.931 . S
H188 C181 0.930 . S
H189 C203 0.930 . S
H190 C182 0.930 . S
H191 C209 0.930 . S
H192 C200 0.930 . S
H193 C207 0.931 . S
H194 C171 0.929 . S
H195 C201 0.930 . S
H196 C234 0.930 . S
H197 C178 0.930 . S
H198 C233 0.929 . S
N199 Tb168 2.660 . S
N199 C200 1.305 . S
N199 C204 1.360 . S
C200 H192 0.930 . S
C200 N199 1.305 . S
C200 C203 1.407 . S
C201 H195 0.930 . S
C201 C202 1.410 . S
C201 C203 1.345 . S
C202 C201 1.410 . S
C202 C204 1.417 . S
C202 C234 1.432 . S
C203 H189 0.930 . S
C203 C200 1.407 . S
C203 C201 1.345 . S
C204 N199 1.360 . S
C204 C202 1.417 . S
C204 C208 1.432 . S
H205 C210 0.930 . S
N206 Tb168 2.600 . S
N206 C208 1.359 . S
N206 C209 1.327 . S
C207 H193 0.931 . S
C207 C209 1.392 . S
C207 C210 1.370 . S
C208 C204 1.432 . S
C208 N206 1.359 . S
C208 C211 1.414 . S
C209 H191 0.930 . S
C209 N206 1.327 . S
C209 C207 1.392 . S
C210 H205 0.930 . S
C210 C207 1.370 . S
C210 C211 1.385 . S
C211 C208 1.414 . S
C211 C210 1.385 . S
C211 C233 1.444 . S
O212 Tb168 2.546 . S
O212 C232 1.251 . S
O213 Tb168 2.610 . S
O213 Tb179 2.362 . S
O213 C224 1.283 . S
O214 Tb179 2.421 . S
O214 C231 1.262 . S
O215 Tb168 2.320 . S
O215 C231 1.260 . S
O216 Tb168 2.552 . S
O216 C224 1.243 . S
O217 Tb168 2.413 . S
O217 C232 1.256 . S
O218 Tb179 2.546 . S
O218 C243 1.251 . S
O219 Tb168 2.362 . S
O219 Tb179 2.610 . S
O219 C235 1.283 . S
O220 Tb168 2.421 . S
O220 C242 1.262 . S
O221 Tb179 2.320 . S
O221 C242 1.260 . S
O222 Tb179 2.552 . S
O222 C235 1.243 . S
O223 Tb179 2.413 . S
O223 C243 1.256 . S
C224 O213 1.283 . S
C224 O216 1.243 . S
C225 C227 1.382 . S
C225 C229 1.393 . S
C225 C232 1.500 . S
C226 C227 1.400 . S
C226 C228 1.384 . S
C227 C225 1.382 . S
C227 C226 1.400 . S
C227 H244 0.930 . S
C228 C226 1.384 . S
C228 C230 1.392 . S
C228 H245 0.931 . S
C229 C225 1.393 . S
C229 C230 1.401 . S
C229 H246 0.930 . S
C230 C228 1.392 . S
C230 C229 1.401 . S
C230 H247 0.930 . S
C231 O214 1.262 . S
C231 O215 1.260 . S
C232 Tb168 2.833 . S
C232 O212 1.251 . S
C232 O217 1.256 . S
C232 C225 1.500 . S
C233 H198 0.929 . S
C233 C211 1.444 . S
C233 C234 1.317 . S
C234 H196 0.930 . S
C234 C202 1.432 . S
C234 C233 1.317 . S
C235 O219 1.283 . S
C235 O222 1.243 . S
C236 C237 1.382 . S
C236 C240 1.393 . S
C236 C243 1.500 . S
C237 C236 1.382 . S
C237 C238 1.400 . S
C237 H248 0.930 . S
C238 C237 1.400 . S
C238 C239 1.384 . S
C239 C238 1.384 . S
C239 C241 1.392 . S
C239 H249 0.931 . S
C240 C236 1.393 . S
C240 C241 1.401 . S
C240 H250 0.930 . S
C241 C239 1.392 . S
C241 C240 1.401 . S
C241 H251 0.930 . S
C242 O220 1.262 . S
C242 O221 1.260 . S
C243 Tb179 2.833 . S
C243 O218 1.251 . S
C243 O223 1.256 . S
C243 C236 1.500 . S
H244 C227 0.930 . S
H245 C228 0.931 . S
H246 C229 0.930 . S
H247 C230 0.930 . S
H248 C237 0.930 . S
H249 C239 0.931 . S
H250 C240 0.930 . S
H251 C241 0.930 . S
Tb252 N283 2.660 . S
Tb252 N290 2.600 . S
Tb252 O296 2.546 . S
Tb252 O297 2.610 . S
Tb252 O299 2.320 . S
Tb252 O300 2.552 . S
Tb252 O301 2.413 . S
Tb252 O303 2.362 . S
Tb252 O304 2.421 . S
Tb252 C316 2.833 . S
C253 C256 1.432 . S
C253 C257 1.414 . S
C253 N260 1.359 . S
C254 C256 1.417 . S
C254 C258 1.432 . S
C254 C266 1.410 . S
C255 C257 1.444 . S
C255 C258 1.317 . S
C255 H278 0.929 . S
C256 C253 1.432 . S
C256 C254 1.417 . S
C256 N264 1.360 . S
C257 C253 1.414 . S
C257 C255 1.444 . S
C257 C262 1.385 . S
C258 C254 1.432 . S
C258 C255 1.317 . S
C258 H270 0.930 . S
C259 C261 1.392 . S
C259 C262 1.370 . S
C259 H271 0.931 . S
N260 C253 1.359 . S
N260 C261 1.327 . S
N260 Tb263 2.600 . S
C261 C259 1.392 . S
C261 N260 1.327 . S
C261 H268 0.930 . S
C262 C257 1.385 . S
C262 C259 1.370 . S
C262 H281 0.930 . S
Tb263 N260 2.600 . S
Tb263 N264 2.660 . S
Tb263 O297 2.362 . S
Tb263 O298 2.421 . S
Tb263 O302 2.546 . S
Tb263 O303 2.610 . S
Tb263 O305 2.320 . S
Tb263 O306 2.552 . S
Tb263 O307 2.413 . S
Tb263 C327 2.833 . S
N264 C256 1.360 . S
N264 Tb263 2.660 . S
N264 C265 1.305 . S
C265 N264 1.305 . S
C265 C267 1.407 . S
C265 H272 0.930 . S
C266 C254 1.410 . S
C266 C267 1.345 . S
C266 H274 0.930 . S
C267 C265 1.407 . S
C267 C266 1.345 . S
C267 H269 0.930 . S
H268 C261 0.930 . S
H269 C267 0.930 . S
H270 C258 0.930 . S
H271 C259 0.931 . S
H272 C265 0.930 . S
H273 C287 0.930 . S
H274 C266 0.930 . S
H275 C293 0.930 . S
H276 C284 0.930 . S
H277 C291 0.931 . S
H278 C255 0.929 . S
H279 C285 0.930 . S
H280 C318 0.930 . S
H281 C262 0.930 . S
H282 C317 0.929 . S
N283 Tb252 2.660 . S
N283 C284 1.305 . S
N283 C288 1.360 . S
C284 H276 0.930 . S
C284 N283 1.305 . S
C284 C287 1.407 . S
C285 H279 0.930 . S
C285 C286 1.410 . S
C285 C287 1.345 . S
C286 C285 1.410 . S
C286 C288 1.417 . S
C286 C318 1.432 . S
C287 H273 0.930 . S
C287 C284 1.407 . S
C287 C285 1.345 . S
C288 N283 1.360 . S
C288 C286 1.417 . S
C288 C292 1.432 . S
H289 C294 0.930 . S
N290 Tb252 2.600 . S
N290 C292 1.359 . S
N290 C293 1.327 . S
C291 H277 0.931 . S
C291 C293 1.392 . S
C291 C294 1.370 . S
C292 C288 1.432 . S
C292 N290 1.359 . S
C292 C295 1.414 . S
C293 H275 0.930 . S
C293 N290 1.327 . S
C293 C291 1.392 . S
C294 H289 0.930 . S
C294 C291 1.370 . S
C294 C295 1.385 . S
C295 C292 1.414 . S
C295 C294 1.385 . S
C295 C317 1.444 . S
O296 Tb252 2.546 . S
O296 C316 1.251 . S
O297 Tb252 2.610 . S
O297 Tb263 2.362 . S
O297 C308 1.283 . S
O298 Tb263 2.421 . S
O298 C315 1.262 . S
O299 Tb252 2.320 . S
O299 C315 1.260 . S
O300 Tb252 2.552 . S
O300 C308 1.243 . S
O301 Tb252 2.413 . S
O301 C316 1.256 . S
O302 Tb263 2.546 . S
O302 C327 1.251 . S
O303 Tb252 2.362 . S
O303 Tb263 2.610 . S
O303 C319 1.283 . S
O304 Tb252 2.421 . S
O304 C326 1.262 . S
O305 Tb263 2.320 . S
O305 C326 1.260 . S
O306 Tb263 2.552 . S
O306 C319 1.243 . S
O307 Tb263 2.413 . S
O307 C327 1.256 . S
C308 O297 1.283 . S
C308 O300 1.243 . S
C309 C311 1.382 . S
C309 C313 1.393 . S
C309 C316 1.500 . S
C310 C311 1.400 . S
C310 C312 1.384 . S
C311 C309 1.382 . S
C311 C310 1.400 . S
C311 H328 0.930 . S
C312 C310 1.384 . S
C312 C314 1.392 . S
C312 H329 0.931 . S
C313 C309 1.393 . S
C313 C314 1.401 . S
C313 H330 0.930 . S
C314 C312 1.392 . S
C314 C313 1.401 . S
C314 H331 0.930 . S
C315 O298 1.262 . S
C315 O299 1.260 . S
C316 Tb252 2.833 . S
C316 O296 1.251 . S
C316 O301 1.256 . S
C316 C309 1.500 . S
C317 H282 0.929 . S
C317 C295 1.444 . S
C317 C318 1.317 . S
C318 H280 0.930 . S
C318 C286 1.432 . S
C318 C317 1.317 . S
C319 O303 1.283 . S
C319 O306 1.243 . S
C320 C321 1.382 . S
C320 C324 1.393 . S
C320 C327 1.500 . S
C321 C320 1.382 . S
C321 C322 1.400 . S
C321 H332 0.930 . S
C322 C321 1.400 . S
C322 C323 1.384 . S
C323 C322 1.384 . S
C323 C325 1.392 . S
C323 H333 0.931 . S
C324 C320 1.393 . S
C324 C325 1.401 . S
C324 H334 0.930 . S
C325 C323 1.392 . S
C325 C324 1.401 . S
C325 H335 0.930 . S
C326 O304 1.262 . S
C326 O305 1.260 . S
C327 Tb263 2.833 . S
C327 O302 1.251 . S
C327 O307 1.256 . S
C327 C320 1.500 . S
H328 C311 0.930 . S
H329 C312 0.931 . S
H330 C313 0.930 . S
H331 C314 0.930 . S
H332 C321 0.930 . S
H333 C323 0.931 . S
H334 C324 0.930 . S
H335 C325 0.930 . S
Tb336 N367 2.660 . S
Tb336 N374 2.600 . S
Tb336 O380 2.546 . S
Tb336 O381 2.610 . S
Tb336 O383 2.320 . S
Tb336 O384 2.552 . S
Tb336 O385 2.413 . S
Tb336 O387 2.362 . S
Tb336 O388 2.421 . S
Tb336 C400 2.833 . S
C337 C340 1.432 . S
C337 C341 1.414 . S
C337 N344 1.359 . S
C338 C340 1.417 . S
C338 C342 1.432 . S
C338 C350 1.410 . S
C339 C341 1.444 . S
C339 C342 1.317 . S
C339 H362 0.929 . S
C340 C337 1.432 . S
C340 C338 1.417 . S
C340 N348 1.360 . S
C341 C337 1.414 . S
C341 C339 1.444 . S
C341 C346 1.385 . S
C342 C338 1.432 . S
C342 C339 1.317 . S
C342 H354 0.930 . S
C343 C345 1.392 . S
C343 C346 1.370 . S
C343 H355 0.931 . S
N344 C337 1.359 . S
N344 C345 1.327 . S
N344 Tb347 2.600 . S
C345 C343 1.392 . S
C345 N344 1.327 . S
C345 H352 0.930 . S
C346 C341 1.385 . S
C346 C343 1.370 . S
C346 H365 0.930 . S
Tb347 N344 2.600 . S
Tb347 N348 2.660 . S
Tb347 O381 2.362 . S
Tb347 O382 2.421 . S
Tb347 O386 2.546 . S
Tb347 O387 2.610 . S
Tb347 O389 2.320 . S
Tb347 O390 2.552 . S
Tb347 O391 2.413 . S
Tb347 C411 2.833 . S
N348 C340 1.360 . S
N348 Tb347 2.660 . S
N348 C349 1.305 . S
C349 N348 1.305 . S
C349 C351 1.407 . S
C349 H356 0.930 . S
C350 C338 1.410 . S
C350 C351 1.345 . S
C350 H358 0.930 . S
C351 C349 1.407 . S
C351 C350 1.345 . S
C351 H353 0.930 . S
H352 C345 0.930 . S
H353 C351 0.930 . S
H354 C342 0.930 . S
H355 C343 0.931 . S
H356 C349 0.930 . S
H357 C371 0.930 . S
H358 C350 0.930 . S
H359 C377 0.930 . S
H360 C368 0.930 . S
H361 C375 0.931 . S
H362 C339 0.929 . S
H363 C369 0.930 . S
H364 C402 0.930 . S
H365 C346 0.930 . S
H366 C401 0.929 . S
N367 Tb336 2.660 . S
N367 C368 1.305 . S
N367 C372 1.360 . S
C368 H360 0.930 . S
C368 N367 1.305 . S
C368 C371 1.407 . S
C369 H363 0.930 . S
C369 C370 1.410 . S
C369 C371 1.345 . S
C370 C369 1.410 . S
C370 C372 1.417 . S
C370 C402 1.432 . S
C371 H357 0.930 . S
C371 C368 1.407 . S
C371 C369 1.345 . S
C372 N367 1.360 . S
C372 C370 1.417 . S
C372 C376 1.432 . S
H373 C378 0.930 . S
N374 Tb336 2.600 . S
N374 C376 1.359 . S
N374 C377 1.327 . S
C375 H361 0.931 . S
C375 C377 1.392 . S
C375 C378 1.370 . S
C376 C372 1.432 . S
C376 N374 1.359 . S
C376 C379 1.414 . S
C377 H359 0.930 . S
C377 N374 1.327 . S
C377 C375 1.392 . S
C378 H373 0.930 . S
C378 C375 1.370 . S
C378 C379 1.385 . S
C379 C376 1.414 . S
C379 C378 1.385 . S
C379 C401 1.444 . S
O380 Tb336 2.546 . S
O380 C400 1.251 . S
O381 Tb336 2.610 . S
O381 Tb347 2.362 . S
O381 C392 1.283 . S
O382 Tb347 2.421 . S
O382 C399 1.262 . S
O383 Tb336 2.320 . S
O383 C399 1.260 . S
O384 Tb336 2.552 . S
O384 C392 1.243 . S
O385 Tb336 2.413 . S
O385 C400 1.256 . S
O386 Tb347 2.546 . S
O386 C411 1.251 . S
O387 Tb336 2.362 . S
O387 Tb347 2.610 . S
O387 C403 1.283 . S
O388 Tb336 2.421 . S
O388 C410 1.262 . S
O389 Tb347 2.320 . S
O389 C410 1.260 . S
O390 Tb347 2.552 . S
O390 C403 1.243 . S
O391 Tb347 2.413 . S
O391 C411 1.256 . S
C392 O381 1.283 . S
C392 O384 1.243 . S
C393 C395 1.382 . S
C393 C397 1.393 . S
C393 C400 1.500 . S
C394 C395 1.400 . S
C394 C396 1.384 . S
C395 C393 1.382 . S
C395 C394 1.400 . S
C395 H412 0.930 . S
C396 C394 1.384 . S
C396 C398 1.392 . S
C396 H413 0.931 . S
C397 C393 1.393 . S
C397 C398 1.401 . S
C397 H414 0.930 . S
C398 C396 1.392 . S
C398 C397 1.401 . S
C398 H415 0.930 . S
C399 O382 1.262 . S
C399 O383 1.260 . S
C400 Tb336 2.833 . S
C400 O380 1.251 . S
C400 O385 1.256 . S
C400 C393 1.500 . S
C401 H366 0.929 . S
C401 C379 1.444 . S
C401 C402 1.317 . S
C402 H364 0.930 . S
C402 C370 1.432 . S
C402 C401 1.317 . S
C403 O387 1.283 . S
C403 O390 1.243 . S
C404 C405 1.382 . S
C404 C408 1.393 . S
C404 C411 1.500 . S
C405 C404 1.382 . S
C405 C406 1.400 . S
C405 H416 0.930 . S
C406 C405 1.400 . S
C406 C407 1.384 . S
C407 C406 1.384 . S
C407 C409 1.392 . S
C407 H417 0.931 . S
C408 C404 1.393 . S
C408 C409 1.401 . S
C408 H418 0.930 . S
C409 C407 1.392 . S
C409 C408 1.401 . S
C409 H419 0.930 . S
C410 O388 1.262 . S
C410 O389 1.260 . S
C411 Tb347 2.833 . S
C411 O386 1.251 . S
C411 O391 1.256 . S
C411 C404 1.500 . S
H412 C395 0.930 . S
H413 C396 0.931 . S
H414 C397 0.930 . S
H415 C398 0.930 . S
H416 C405 0.930 . S
H417 C407 0.931 . S
H418 C408 0.930 . S
H419 C409 0.930 . S
Tb420 N451 2.660 . S
Tb420 N458 2.600 . S
Tb420 O464 2.546 . S
Tb420 O465 2.610 . S
Tb420 O467 2.320 . S
Tb420 O468 2.552 . S
Tb420 O469 2.413 . S
Tb420 O471 2.362 . S
Tb420 O472 2.421 . S
Tb420 C484 2.833 . S
C421 C424 1.432 . S
C421 C425 1.414 . S
C421 N428 1.359 . S
C422 C424 1.417 . S
C422 C426 1.432 . S
C422 C434 1.410 . S
C423 C425 1.444 . S
C423 C426 1.317 . S
C423 H446 0.929 . S
C424 C421 1.432 . S
C424 C422 1.417 . S
C424 N432 1.360 . S
C425 C421 1.414 . S
C425 C423 1.444 . S
C425 C430 1.385 . S
C426 C422 1.432 . S
C426 C423 1.317 . S
C426 H438 0.930 . S
C427 C429 1.392 . S
C427 C430 1.370 . S
C427 H439 0.931 . S
N428 C421 1.359 . S
N428 C429 1.327 . S
N428 Tb431 2.600 . S
C429 C427 1.392 . S
C429 N428 1.327 . S
C429 H436 0.930 . S
C430 C425 1.385 . S
C430 C427 1.370 . S
C430 H449 0.930 . S
Tb431 N428 2.600 . S
Tb431 N432 2.660 . S
Tb431 O465 2.362 . S
Tb431 O466 2.421 . S
Tb431 O470 2.546 . S
Tb431 O471 2.610 . S
Tb431 O473 2.320 . S
Tb431 O474 2.552 . S
Tb431 O475 2.413 . S
Tb431 C495 2.833 . S
N432 C424 1.360 . S
N432 Tb431 2.660 . S
N432 C433 1.305 . S
C433 N432 1.305 . S
C433 C435 1.407 . S
C433 H440 0.930 . S
C434 C422 1.410 . S
C434 C435 1.345 . S
C434 H442 0.930 . S
C435 C433 1.407 . S
C435 C434 1.345 . S
C435 H437 0.930 . S
H436 C429 0.930 . S
H437 C435 0.930 . S
H438 C426 0.930 . S
H439 C427 0.931 . S
H440 C433 0.930 . S
H441 C455 0.930 . S
H442 C434 0.930 . S
H443 C461 0.930 . S
H444 C452 0.930 . S
H445 C459 0.931 . S
H446 C423 0.929 . S
H447 C453 0.930 . S
H448 C486 0.930 . S
H449 C430 0.930 . S
H450 C485 0.929 . S
N451 Tb420 2.660 . S
N451 C452 1.305 . S
N451 C456 1.360 . S
C452 H444 0.930 . S
C452 N451 1.305 . S
C452 C455 1.407 . S
C453 H447 0.930 . S
C453 C454 1.410 . S
C453 C455 1.345 . S
C454 C453 1.410 . S
C454 C456 1.417 . S
C454 C486 1.432 . S
C455 H441 0.930 . S
C455 C452 1.407 . S
C455 C453 1.345 . S
C456 N451 1.360 . S
C456 C454 1.417 . S
C456 C460 1.432 . S
H457 C462 0.930 . S
N458 Tb420 2.600 . S
N458 C460 1.359 . S
N458 C461 1.327 . S
C459 H445 0.931 . S
C459 C461 1.392 . S
C459 C462 1.370 . S
C460 C456 1.432 . S
C460 N458 1.359 . S
C460 C463 1.414 . S
C461 H443 0.930 . S
C461 N458 1.327 . S
C461 C459 1.392 . S
C462 H457 0.930 . S
C462 C459 1.370 . S
C462 C463 1.385 . S
C463 C460 1.414 . S
C463 C462 1.385 . S
C463 C485 1.444 . S
O464 Tb420 2.546 . S
O464 C484 1.251 . S
O465 Tb420 2.610 . S
O465 Tb431 2.362 . S
O465 C476 1.283 . S
O466 Tb431 2.421 . S
O466 C483 1.262 . S
O467 Tb420 2.320 . S
O467 C483 1.260 . S
O468 Tb420 2.552 . S
O468 C476 1.243 . S
O469 Tb420 2.413 . S
O469 C484 1.256 . S
O470 Tb431 2.546 . S
O470 C495 1.251 . S
O471 Tb420 2.362 . S
O471 Tb431 2.610 . S
O471 C487 1.283 . S
O472 Tb420 2.421 . S
O472 C494 1.262 . S
O473 Tb431 2.320 . S
O473 C494 1.260 . S
O474 Tb431 2.552 . S
O474 C487 1.243 . S
O475 Tb431 2.413 . S
O475 C495 1.256 . S
C476 O465 1.283 . S
C476 O468 1.243 . S
C477 C479 1.382 . S
C477 C481 1.393 . S
C477 C484 1.500 . S
C478 C479 1.400 . S
C478 C480 1.384 . S
C479 C477 1.382 . S
C479 C478 1.400 . S
C479 H496 0.930 . S
C480 C478 1.384 . S
C480 C482 1.392 . S
C480 H497 0.931 . S
C481 C477 1.393 . S
C481 C482 1.401 . S
C481 H498 0.930 . S
C482 C480 1.392 . S
C482 C481 1.401 . S
C482 H499 0.930 . S
C483 O466 1.262 . S
C483 O467 1.260 . S
C484 Tb420 2.833 . S
C484 O464 1.251 . S
C484 O469 1.256 . S
C484 C477 1.500 . S
C485 H450 0.929 . S
C485 C463 1.444 . S
C485 C486 1.317 . S
C486 H448 0.930 . S
C486 C454 1.432 . S
C486 C485 1.317 . S
C487 O471 1.283 . S
C487 O474 1.243 . S
C488 C489 1.382 . S
C488 C492 1.393 . S
C488 C495 1.500 . S
C489 C488 1.382 . S
C489 C490 1.400 . S
C489 H500 0.930 . S
C490 C489 1.400 . S
C490 C491 1.384 . S
C491 C490 1.384 . S
C491 C493 1.392 . S
C491 H501 0.931 . S
C492 C488 1.393 . S
C492 C493 1.401 . S
C492 H502 0.930 . S
C493 C491 1.392 . S
C493 C492 1.401 . S
C493 H503 0.930 . S
C494 O472 1.262 . S
C494 O473 1.260 . S
C495 Tb431 2.833 . S
C495 O470 1.251 . S
C495 O475 1.256 . S
C495 C488 1.500 . S
H496 C479 0.930 . S
H497 C480 0.931 . S
H498 C481 0.930 . S
H499 C482 0.930 . S
H500 C489 0.930 . S
H501 C491 0.931 . S
H502 C492 0.930 . S
H503 C493 0.930 . S
Tb504 N535 2.660 . S
Tb504 N542 2.600 . S
Tb504 O548 2.546 . S
Tb504 O549 2.610 . S
Tb504 O551 2.320 . S
Tb504 O552 2.552 . S
Tb504 O553 2.413 . S
Tb504 O555 2.362 . S
Tb504 O556 2.421 . S
Tb504 C568 2.833 . S
C505 C508 1.432 . S
C505 C509 1.414 . S
C505 N512 1.359 . S
C506 C508 1.417 . S
C506 C510 1.432 . S
C506 C518 1.410 . S
C507 C509 1.444 . S
C507 C510 1.317 . S
C507 H530 0.929 . S
C508 C505 1.432 . S
C508 C506 1.417 . S
C508 N516 1.360 . S
C509 C505 1.414 . S
C509 C507 1.444 . S
C509 C514 1.385 . S
C510 C506 1.432 . S
C510 C507 1.317 . S
C510 H522 0.930 . S
C511 C513 1.392 . S
C511 C514 1.370 . S
C511 H523 0.931 . S
N512 C505 1.359 . S
N512 C513 1.327 . S
N512 Tb515 2.600 . S
C513 C511 1.392 . S
C513 N512 1.327 . S
C513 H520 0.930 . S
C514 C509 1.385 . S
C514 C511 1.370 . S
C514 H533 0.930 . S
Tb515 N512 2.600 . S
Tb515 N516 2.660 . S
Tb515 O549 2.362 . S
Tb515 O550 2.421 . S
Tb515 O554 2.546 . S
Tb515 O555 2.610 . S
Tb515 O557 2.320 . S
Tb515 O558 2.552 . S
Tb515 O559 2.413 . S
Tb515 C579 2.833 . S
N516 C508 1.360 . S
N516 Tb515 2.660 . S
N516 C517 1.305 . S
C517 N516 1.305 . S
C517 C519 1.407 . S
C517 H524 0.930 . S
C518 C506 1.410 . S
C518 C519 1.345 . S
C518 H526 0.930 . S
C519 C517 1.407 . S
C519 C518 1.345 . S
C519 H521 0.930 . S
H520 C513 0.930 . S
H521 C519 0.930 . S
H522 C510 0.930 . S
H523 C511 0.931 . S
H524 C517 0.930 . S
H525 C539 0.930 . S
H526 C518 0.930 . S
H527 C545 0.930 . S
H528 C536 0.930 . S
H529 C543 0.931 . S
H530 C507 0.929 . S
H531 C537 0.930 . S
H532 C570 0.930 . S
H533 C514 0.930 . S
H534 C569 0.929 . S
N535 Tb504 2.660 . S
N535 C536 1.305 . S
N535 C540 1.360 . S
C536 H528 0.930 . S
C536 N535 1.305 . S
C536 C539 1.407 . S
C537 H531 0.930 . S
C537 C538 1.410 . S
C537 C539 1.345 . S
C538 C537 1.410 . S
C538 C540 1.417 . S
C538 C570 1.432 . S
C539 H525 0.930 . S
C539 C536 1.407 . S
C539 C537 1.345 . S
C540 N535 1.360 . S
C540 C538 1.417 . S
C540 C544 1.432 . S
H541 C546 0.930 . S
N542 Tb504 2.600 . S
N542 C544 1.359 . S
N542 C545 1.327 . S
C543 H529 0.931 . S
C543 C545 1.392 . S
C543 C546 1.370 . S
C544 C540 1.432 . S
C544 N542 1.359 . S
C544 C547 1.414 . S
C545 H527 0.930 . S
C545 N542 1.327 . S
C545 C543 1.392 . S
C546 H541 0.930 . S
C546 C543 1.370 . S
C546 C547 1.385 . S
C547 C544 1.414 . S
C547 C546 1.385 . S
C547 C569 1.444 . S
O548 Tb504 2.546 . S
O548 C568 1.251 . S
O549 Tb504 2.610 . S
O549 Tb515 2.362 . S
O549 C560 1.283 . S
O550 Tb515 2.421 . S
O550 C567 1.262 . S
O551 Tb504 2.320 . S
O551 C567 1.260 . S
O552 Tb504 2.552 . S
O552 C560 1.243 . S
O553 Tb504 2.413 . S
O553 C568 1.256 . S
O554 Tb515 2.546 . S
O554 C579 1.251 . S
O555 Tb504 2.362 . S
O555 Tb515 2.610 . S
O555 C571 1.283 . S
O556 Tb504 2.421 . S
O556 C578 1.262 . S
O557 Tb515 2.320 . S
O557 C578 1.260 . S
O558 Tb515 2.552 . S
O558 C571 1.243 . S
O559 Tb515 2.413 . S
O559 C579 1.256 . S
C560 O549 1.283 . S
C560 O552 1.243 . S
C561 C563 1.382 . S
C561 C565 1.393 . S
C561 C568 1.500 . S
C562 C563 1.400 . S
C562 C564 1.384 . S
C563 C561 1.382 . S
C563 C562 1.400 . S
C563 H580 0.930 . S
C564 C562 1.384 . S
C564 C566 1.392 . S
C564 H581 0.931 . S
C565 C561 1.393 . S
C565 C566 1.401 . S
C565 H582 0.930 . S
C566 C564 1.392 . S
C566 C565 1.401 . S
C566 H583 0.930 . S
C567 O550 1.262 . S
C567 O551 1.260 . S
C568 Tb504 2.833 . S
C568 O548 1.251 . S
C568 O553 1.256 . S
C568 C561 1.500 . S
C569 H534 0.929 . S
C569 C547 1.444 . S
C569 C570 1.317 . S
C570 H532 0.930 . S
C570 C538 1.432 . S
C570 C569 1.317 . S
C571 O555 1.283 . S
C571 O558 1.243 . S
C572 C573 1.382 . S
C572 C576 1.393 . S
C572 C579 1.500 . S
C573 C572 1.382 . S
C573 C574 1.400 . S
C573 H584 0.930 . S
C574 C573 1.400 . S
C574 C575 1.384 . S
C575 C574 1.384 . S
C575 C577 1.392 . S
C575 H585 0.931 . S
C576 C572 1.393 . S
C576 C577 1.401 . S
C576 H586 0.930 . S
C577 C575 1.392 . S
C577 C576 1.401 . S
C577 H587 0.930 . S
C578 O556 1.262 . S
C578 O557 1.260 . S
C579 Tb515 2.833 . S
C579 O554 1.251 . S
C579 O559 1.256 . S
C579 C572 1.500 . S
H580 C563 0.930 . S
H581 C564 0.931 . S
H582 C565 0.930 . S
H583 C566 0.930 . S
H584 C573 0.930 . S
H585 C575 0.931 . S
H586 C576 0.930 . S
H587 C577 0.930 . S
Tb588 N619 2.660 . S
Tb588 N626 2.600 . S
Tb588 O632 2.546 . S
Tb588 O633 2.610 . S
Tb588 O635 2.320 . S
Tb588 O636 2.552 . S
Tb588 O637 2.413 . S
Tb588 O639 2.362 . S
Tb588 O640 2.421 . S
Tb588 C652 2.833 . S
C589 C592 1.432 . S
C589 C593 1.414 . S
C589 N596 1.359 . S
C590 C592 1.417 . S
C590 C594 1.432 . S
C590 C602 1.410 . S
C591 C593 1.444 . S
C591 C594 1.317 . S
C591 H614 0.929 . S
C592 C589 1.432 . S
C592 C590 1.417 . S
C592 N600 1.360 . S
C593 C589 1.414 . S
C593 C591 1.444 . S
C593 C598 1.385 . S
C594 C590 1.432 . S
C594 C591 1.317 . S
C594 H606 0.930 . S
C595 C597 1.392 . S
C595 C598 1.370 . S
C595 H607 0.931 . S
N596 C589 1.359 . S
N596 C597 1.327 . S
N596 Tb599 2.600 . S
C597 C595 1.392 . S
C597 N596 1.327 . S
C597 H604 0.930 . S
C598 C593 1.385 . S
C598 C595 1.370 . S
C598 H617 0.930 . S
Tb599 N596 2.600 . S
Tb599 N600 2.660 . S
Tb599 O633 2.362 . S
Tb599 O634 2.421 . S
Tb599 O638 2.546 . S
Tb599 O639 2.610 . S
Tb599 O641 2.320 . S
Tb599 O642 2.552 . S
Tb599 O643 2.413 . S
Tb599 C663 2.833 . S
N600 C592 1.360 . S
N600 Tb599 2.660 . S
N600 C601 1.305 . S
C601 N600 1.305 . S
C601 C603 1.407 . S
C601 H608 0.930 . S
C602 C590 1.410 . S
C602 C603 1.345 . S
C602 H610 0.930 . S
C603 C601 1.407 . S
C603 C602 1.345 . S
C603 H605 0.930 . S
H604 C597 0.930 . S
H605 C603 0.930 . S
H606 C594 0.930 . S
H607 C595 0.931 . S
H608 C601 0.930 . S
H609 C623 0.930 . S
H610 C602 0.930 . S
H611 C629 0.930 . S
H612 C620 0.930 . S
H613 C627 0.931 . S
H614 C591 0.929 . S
H615 C621 0.930 . S
H616 C654 0.930 . S
H617 C598 0.930 . S
H618 C653 0.929 . S
N619 Tb588 2.660 . S
N619 C620 1.305 . S
N619 C624 1.360 . S
C620 H612 0.930 . S
C620 N619 1.305 . S
C620 C623 1.407 . S
C621 H615 0.930 . S
C621 C622 1.410 . S
C621 C623 1.345 . S
C622 C621 1.410 . S
C622 C624 1.417 . S
C622 C654 1.432 . S
C623 H609 0.930 . S
C623 C620 1.407 . S
C623 C621 1.345 . S
C624 N619 1.360 . S
C624 C622 1.417 . S
C624 C628 1.432 . S
H625 C630 0.930 . S
N626 Tb588 2.600 . S
N626 C628 1.359 . S
N626 C629 1.327 . S
C627 H613 0.931 . S
C627 C629 1.392 . S
C627 C630 1.370 . S
C628 C624 1.432 . S
C628 N626 1.359 . S
C628 C631 1.414 . S
C629 H611 0.930 . S
C629 N626 1.327 . S
C629 C627 1.392 . S
C630 H625 0.930 . S
C630 C627 1.370 . S
C630 C631 1.385 . S
C631 C628 1.414 . S
C631 C630 1.385 . S
C631 C653 1.444 . S
O632 Tb588 2.546 . S
O632 C652 1.251 . S
O633 Tb588 2.610 . S
O633 Tb599 2.362 . S
O633 C644 1.283 . S
O634 Tb599 2.421 . S
O634 C651 1.262 . S
O635 Tb588 2.320 . S
O635 C651 1.260 . S
O636 Tb588 2.552 . S
O636 C644 1.243 . S
O637 Tb588 2.413 . S
O637 C652 1.256 . S
O638 Tb599 2.546 . S
O638 C663 1.251 . S
O639 Tb588 2.362 . S
O639 Tb599 2.610 . S
O639 C655 1.283 . S
O640 Tb588 2.421 . S
O640 C662 1.262 . S
O641 Tb599 2.320 . S
O641 C662 1.260 . S
O642 Tb599 2.552 . S
O642 C655 1.243 . S
O643 Tb599 2.413 . S
O643 C663 1.256 . S
C644 O633 1.283 . S
C644 O636 1.243 . S
C645 C647 1.382 . S
C645 C649 1.393 . S
C645 C652 1.500 . S
C646 C647 1.400 . S
C646 C648 1.384 . S
C647 C645 1.382 . S
C647 C646 1.400 . S
C647 H664 0.930 . S
C648 C646 1.384 . S
C648 C650 1.392 . S
C648 H665 0.931 . S
C649 C645 1.393 . S
C649 C650 1.401 . S
C649 H666 0.930 . S
C650 C648 1.392 . S
C650 C649 1.401 . S
C650 H667 0.930 . S
C651 O634 1.262 . S
C651 O635 1.260 . S
C652 Tb588 2.833 . S
C652 O632 1.251 . S
C652 O637 1.256 . S
C652 C645 1.500 . S
C653 H618 0.929 . S
C653 C631 1.444 . S
C653 C654 1.317 . S
C654 H616 0.930 . S
C654 C622 1.432 . S
C654 C653 1.317 . S
C655 O639 1.283 . S
C655 O642 1.243 . S
C656 C657 1.382 . S
C656 C660 1.393 . S
C656 C663 1.500 . S
C657 C656 1.382 . S
C657 C658 1.400 . S
C657 H668 0.930 . S
C658 C657 1.400 . S
C658 C659 1.384 . S
C659 C658 1.384 . S
C659 C661 1.392 . S
C659 H669 0.931 . S
C660 C656 1.393 . S
C660 C661 1.401 . S
C660 H670 0.930 . S
C661 C659 1.392 . S
C661 C660 1.401 . S
C661 H671 0.930 . S
C662 O640 1.262 . S
C662 O641 1.260 . S
C663 Tb599 2.833 . S
C663 O638 1.251 . S
C663 O643 1.256 . S
C663 C656 1.500 . S
H664 C647 0.930 . S
H665 C648 0.931 . S
H666 C649 0.930 . S
H667 C650 0.930 . S
H668 C657 0.930 . S
H669 C659 0.931 . S
H670 C660 0.930 . S
H671 C661 0.930 . S
Co672 O675 2.042 . S
Co672 O682 2.264 . S
Co672 O701 2.286 . S
Co672 O702 2.069 . S
Co672 O704 2.015 1_455 S
Co673 O675 2.122 . S
Co673 O681 2.073 . S
Co673 O682 2.327 . S
Co673 O683 1.976 1_455 S
Co674 O675 2.080 1_545 S
Co674 O677 2.093 1_455 S
Co674 O684 2.109 1_445 S
Co674 O685 2.148 . S
Co674 O689 2.113 . S
Co674 O703 2.139 1_445 S
O675 Co672 2.042 . S
O675 Co673 2.122 . S
O675 Co674 2.080 1_565 S
O675 H676 0.980 . S
H676 O675 0.980 . S
O677 Co674 2.093 1_655 S
O677 Co678 2.042 . S
O677 Co679 2.122 . S
O677 H680 0.980 . S
Co678 O677 2.042 . S
Co678 O686 2.286 . S
Co678 O687 2.069 . S
Co678 O688 2.015 1_655 S
Co678 O691 2.264 . S
Co679 O677 2.122 . S
Co679 O690 1.976 1_655 S
Co679 O691 2.327 . S
Co679 O692 2.073 . S
H680 O677 0.980 . S
O681 Co673 2.073 . S
O681 C696 1.245 . S
O682 Co672 2.264 . S
O682 Co673 2.327 . S
O682 C696 1.257 . S
O683 Co673 1.976 1_655 S
O683 C695 1.251 . S
O684 Co674 2.109 1_665 S
O684 C695 1.274 . S
O685 Co674 2.148 . S
O685 C698 1.246 . S
O686 Co678 2.286 . S
O686 C697 1.259 . S
O687 Co678 2.069 . S
O687 C697 1.289 . S
O688 Co678 2.015 1_455 S
O688 C698 1.257 . S
O689 Co674 2.113 . S
O689 C699 1.274 . S
O690 Co679 1.976 1_455 S
O690 C699 1.251 . S
O691 Co678 2.264 . S
O691 Co679 2.327 . S
O691 C700 1.257 . S
O692 Co679 2.073 . S
O692 C700 1.245 . S
C693 O701 1.259 . S
C693 O702 1.289 . S
C694 O703 1.246 . S
C694 O704 1.257 . S
C695 O683 1.251 . S
C695 O684 1.274 . S
C696 O681 1.245 . S
C696 O682 1.257 . S
C697 O686 1.259 . S
C697 O687 1.289 . S
C698 O685 1.246 . S
C698 O688 1.257 . S
C699 O689 1.274 . S
C699 O690 1.251 . S
C700 O691 1.257 . S
C700 O692 1.245 . S
O701 Co672 2.286 . S
O701 C693 1.259 . S
O702 Co672 2.069 . S
O702 C693 1.289 . S
O703 Co674 2.139 1_665 S
O703 C694 1.246 . S
O704 Co672 2.015 1_655 S
O704 C694 1.257 . S
Co705 O708 2.042 1_556 S
Co705 O715 2.264 1_556 S
Co705 O734 2.286 . S
Co705 O735 2.069 . S
Co705 O737 2.015 . S
Co706 O708 2.122 . S
Co706 O714 2.073 . S
Co706 O715 2.327 . S
Co706 O716 1.976 . S
Co707 O708 2.080 1_545 S
Co707 O710 2.094 1_554 S
Co707 O717 2.110 1_545 S
Co707 O718 2.148 . S
Co707 O722 2.113 1_554 S
Co707 O736 2.139 1_544 S
O708 Co705 2.042 1_554 S
O708 Co706 2.122 . S
O708 Co707 2.080 1_565 S
O708 H709 0.980 . S
H709 O708 0.980 . S
O710 Co707 2.094 1_556 S
O710 Co711 2.042 1_556 S
O710 Co712 2.122 . S
O710 H713 0.980 . S
Co711 O710 2.042 1_554 S
Co711 O719 2.286 . S
Co711 O720 2.069 . S
Co711 O721 2.015 . S
Co711 O724 2.264 1_554 S
Co712 O710 2.122 . S
Co712 O723 1.976 . S
Co712 O724 2.327 . S
Co712 O725 2.073 . S
H713 O710 0.980 . S
O714 Co706 2.073 . S
O714 C729 1.245 . S
O715 Co705 2.264 1_554 S
O715 Co706 2.327 . S
O715 C729 1.257 . S
O716 Co706 1.976 . S
O716 C728 1.251 . S
O717 Co707 2.110 1_565 S
O717 C728 1.274 . S
O718 Co707 2.148 . S
O718 C731 1.246 . S
O719 Co711 2.286 . S
O719 C730 1.259 . S
O720 Co711 2.069 . S
O720 C730 1.289 . S
O721 Co711 2.015 . S
O721 C731 1.257 . S
O722 Co707 2.113 1_556 S
O722 C732 1.274 . S
O723 Co712 1.976 . S
O723 C732 1.251 . S
O724 Co711 2.264 1_556 S
O724 Co712 2.327 . S
O724 C733 1.257 . S
O725 Co712 2.073 . S
O725 C733 1.245 . S
C726 O734 1.259 . S
C726 O735 1.289 . S
C727 O736 1.246 . S
C727 O737 1.257 . S
C728 O716 1.251 . S
C728 O717 1.274 . S
C729 O714 1.245 . S
C729 O715 1.257 . S
C730 O719 1.259 . S
C730 O720 1.289 . S
C731 O718 1.246 . S
C731 O721 1.257 . S
C732 O722 1.274 . S
C732 O723 1.251 . S
C733 O724 1.257 . S
C733 O725 1.245 . S
O734 Co705 2.286 . S
O734 C726 1.259 . S
O735 Co705 2.069 . S
O735 C726 1.289 . S
O736 Co707 2.139 1_566 S
O736 C727 1.246 . S
O737 Co705 2.015 . S
O737 C727 1.257 . S
Co738 O741 2.042 1_556 S
Co738 O748 2.264 1_556 S
Co738 O767 2.286 . S
Co738 O768 2.069 . S
Co738 O770 2.015 1_455 S
Co739 O741 2.122 . S
Co739 O747 2.073 . S
Co739 O748 2.327 . S
Co739 O749 1.976 1_455 S
Co740 O741 2.087 . S
Co740 O743 2.087 1_454 S
Co740 O750 2.111 1_455 S
Co740 O751 2.144 . S
Co740 O755 2.111 1_554 S
Co740 O769 2.143 1_454 S
O741 Co738 2.042 1_554 S
O741 Co739 2.122 . S
O741 Co740 2.087 . S
O741 H742 0.980 . S
H742 O741 0.980 . S
O743 Co740 2.087 1_656 S
O743 Co744 2.042 1_556 S
O743 Co745 2.122 . S
O743 H746 0.980 . S
Co744 O743 2.042 1_554 S
Co744 O752 2.286 . S
Co744 O753 2.069 . S
Co744 O754 2.015 1_655 S
Co744 O757 2.264 1_554 S
Co745 O743 2.122 . S
Co745 O756 1.976 1_655 S
Co745 O757 2.327 . S
Co745 O758 2.073 . S
H746 O743 0.980 . S
O747 Co739 2.073 . S
O747 C762 1.245 . S
O748 Co738 2.264 1_554 S
O748 Co739 2.327 . S
O748 C762 1.257 . S
O749 Co739 1.976 1_655 S
O749 C761 1.251 . S
O750 Co740 2.111 1_655 S
O750 C761 1.274 . S
O751 Co740 2.144 . S
O751 C764 1.246 . S
O752 Co744 2.286 . S
O752 C763 1.259 . S
O753 Co744 2.069 . S
O753 C763 1.289 . S
O754 Co744 2.015 1_455 S
O754 C764 1.257 . S
O755 Co740 2.111 1_556 S
O755 C765 1.274 . S
O756 Co745 1.976 1_455 S
O756 C765 1.251 . S
O757 Co744 2.264 1_556 S
O757 Co745 2.327 . S
O757 C766 1.257 . S
O758 Co745 2.073 . S
O758 C766 1.245 . S
C759 O767 1.259 . S
C759 O768 1.289 . S
C760 O769 1.246 . S
C760 O770 1.257 . S
C761 O749 1.251 . S
C761 O750 1.274 . S
C762 O747 1.245 . S
C762 O748 1.257 . S
C763 O752 1.259 . S
C763 O753 1.289 . S
C764 O751 1.246 . S
C764 O754 1.257 . S
C765 O755 1.274 . S
C765 O756 1.251 . S
C766 O757 1.257 . S
C766 O758 1.245 . S
O767 Co738 2.286 . S
O767 C759 1.259 . S
O768 Co738 2.069 . S
O768 C759 1.289 . S
O769 Co740 2.143 1_656 S
O769 C760 1.246 . S
O770 Co738 2.015 1_655 S
O770 C760 1.257 . S
Co771 O774 2.042 1_556 S
Co771 O781 2.264 1_556 S
Co771 O800 2.286 . S
Co771 O801 2.069 . S
Co771 O803 2.015 . S
Co772 O774 2.122 . S
Co772 O780 2.073 . S
Co772 O781 2.327 . S
Co772 O782 1.976 . S
Co773 O774 2.087 . S
Co773 O776 2.087 1_554 S
Co773 O783 2.111 . S
Co773 O784 2.143 . S
Co773 O788 2.111 1_554 S
Co773 O802 2.143 1_554 S
O774 Co771 2.042 1_554 S
O774 Co772 2.122 . S
O774 Co773 2.087 . S
O774 H775 0.980 . S
H775 O774 0.980 . S
O776 Co773 2.087 1_556 S
O776 Co777 2.042 1_556 S
O776 Co778 2.122 . S
O776 H779 0.980 . S
Co777 O776 2.042 1_554 S
Co777 O785 2.286 . S
Co777 O786 2.069 . S
Co777 O787 2.015 . S
Co777 O790 2.264 1_554 S
Co778 O776 2.122 . S
Co778 O789 1.976 . S
Co778 O790 2.327 . S
Co778 O791 2.073 . S
H779 O776 0.980 . S
O780 Co772 2.073 . S
O780 C795 1.245 . S
O781 Co771 2.264 1_554 S
O781 Co772 2.327 . S
O781 C795 1.257 . S
O782 Co772 1.976 . S
O782 C794 1.251 . S
O783 Co773 2.111 . S
O783 C794 1.274 . S
O784 Co773 2.143 . S
O784 C797 1.246 . S
O785 Co777 2.286 . S
O785 C796 1.259 . S
O786 Co777 2.069 . S
O786 C796 1.289 . S
O787 Co777 2.015 . S
O787 C797 1.257 . S
O788 Co773 2.111 1_556 S
O788 C798 1.274 . S
O789 Co778 1.976 . S
O789 C798 1.251 . S
O790 Co777 2.264 1_556 S
O790 Co778 2.327 . S
O790 C799 1.257 . S
O791 Co778 2.073 . S
O791 C799 1.245 . S
C792 O800 1.259 . S
C792 O801 1.289 . S
C793 O802 1.246 . S
C793 O803 1.257 . S
C794 O782 1.251 . S
C794 O783 1.274 . S
C795 O780 1.245 . S
C795 O781 1.257 . S
C796 O785 1.259 . S
C796 O786 1.289 . S
C797 O784 1.246 . S
C797 O787 1.257 . S
C798 O788 1.274 . S
C798 O789 1.251 . S
C799 O790 1.257 . S
C799 O791 1.245 . S
O800 Co771 2.286 . S
O800 C792 1.259 . S
O801 Co771 2.069 . S
O801 C792 1.289 . S
O802 Co773 2.143 1_556 S
O802 C793 1.246 . S
O803 Co771 2.015 . S
O803 C793 1.257 . S
Co804 O807 2.042 . S
Co804 O814 2.264 . S
Co804 O833 2.286 . S
Co804 O834 2.069 . S
Co804 O836 2.015 . S
Co805 O807 2.122 . S
Co805 O813 2.073 . S
Co805 O814 2.327 . S
Co805 O815 1.976 . S
Co806 O807 2.087 . S
Co806 O809 2.087 1_455 S
Co806 O816 2.111 . S
Co806 O817 2.143 1_455 S
Co806 O821 2.111 1_455 S
Co806 O835 2.144 . S
O807 Co804 2.042 . S
O807 Co805 2.122 . S
O807 Co806 2.087 . S
O807 H808 0.980 . S
H808 O807 0.980 . S
O809 Co806 2.087 1_655 S
O809 Co810 2.042 . S
O809 Co811 2.122 . S
O809 H812 0.980 . S
Co810 O809 2.042 . S
Co810 O818 2.286 . S
Co810 O819 2.069 . S
Co810 O820 2.015 . S
Co810 O823 2.264 . S
Co811 O809 2.122 . S
Co811 O822 1.976 . S
Co811 O823 2.327 . S
Co811 O824 2.073 . S
H812 O809 0.980 . S
O813 Co805 2.073 . S
O813 C828 1.245 . S
O814 Co804 2.264 . S
O814 Co805 2.327 . S
O814 C828 1.257 . S
O815 Co805 1.976 . S
O815 C827 1.251 . S
O816 Co806 2.111 . S
O816 C827 1.274 . S
O817 Co806 2.143 1_655 S
O817 C830 1.246 . S
O818 Co810 2.286 . S
O818 C829 1.259 . S
O819 Co810 2.069 . S
O819 C829 1.289 . S
O820 Co810 2.015 . S
O820 C830 1.257 . S
O821 Co806 2.111 1_655 S
O821 C831 1.274 . S
O822 Co811 1.976 . S
O822 C831 1.251 . S
O823 Co810 2.264 . S
O823 Co811 2.327 . S
O823 C832 1.257 . S
O824 Co811 2.073 . S
O824 C832 1.245 . S
C825 O833 1.259 . S
C825 O834 1.289 . S
C826 O835 1.246 . S
C826 O836 1.257 . S
C827 O815 1.251 . S
C827 O816 1.274 . S
C828 O813 1.245 . S
C828 O814 1.257 . S
C829 O818 1.259 . S
C829 O819 1.289 . S
C830 O817 1.246 . S
C830 O820 1.257 . S
C831 O821 1.274 . S
C831 O822 1.251 . S
C832 O823 1.257 . S
C832 O824 1.245 . S
O833 Co804 2.286 . S
O833 C825 1.259 . S
O834 Co804 2.069 . S
O834 C825 1.289 . S
O835 Co806 2.144 . S
O835 C826 1.246 . S
O836 Co804 2.015 . S
O836 C826 1.257 . S
Co837 O840 2.042 . S
Co837 O847 2.264 . S
Co837 O866 2.286 . S
Co837 O867 2.069 . S
Co837 O869 2.015 1_565 S
Co838 O840 2.122 . S
Co838 O846 2.073 . S
Co838 O847 2.327 . S
Co838 O848 1.976 1_565 S
Co839 O840 2.080 1_545 S
Co839 O842 2.094 . S
Co839 O849 2.115 . S
Co839 O850 2.141 1_545 S
Co839 O854 2.107 1_545 S
Co839 O868 2.146 . S
O840 Co837 2.042 . S
O840 Co838 2.122 . S
O840 Co839 2.080 1_565 S
O840 H841 0.980 . S
H841 O840 0.980 . S
O842 Co839 2.094 . S
O842 Co843 2.042 . S
O842 Co844 2.122 . S
O842 H845 0.980 . S
Co843 O842 2.042 . S
Co843 O851 2.286 . S
Co843 O852 2.069 . S
Co843 O853 2.015 1_545 S
Co843 O856 2.264 . S
Co844 O842 2.122 . S
Co844 O855 1.976 1_545 S
Co844 O856 2.327 . S
Co844 O857 2.073 . S
H845 O842 0.980 . S
O846 Co838 2.073 . S
O846 C861 1.245 . S
O847 Co837 2.264 . S
O847 Co838 2.327 . S
O847 C861 1.257 . S
O848 Co838 1.976 1_545 S
O848 C860 1.251 . S
O849 Co839 2.115 . S
O849 C860 1.274 . S
O850 Co839 2.141 1_565 S
O850 C863 1.246 . S
O851 Co843 2.286 . S
O851 C862 1.259 . S
O852 Co843 2.069 . S
O852 C862 1.289 . S
O853 Co843 2.015 1_565 S
O853 C863 1.257 . S
O854 Co839 2.107 1_565 S
O854 C864 1.274 . S
O855 Co844 1.976 1_565 S
O855 C864 1.251 . S
O856 Co843 2.264 . S
O856 Co844 2.327 . S
O856 C865 1.257 . S
O857 Co844 2.073 . S
O857 C865 1.245 . S
C858 O866 1.259 . S
C858 O867 1.289 . S
C859 O868 1.246 . S
C859 O869 1.257 . S
C860 O848 1.251 . S
C860 O849 1.274 . S
C861 O846 1.245 . S
C861 O847 1.257 . S
C862 O851 1.259 . S
C862 O852 1.289 . S
C863 O850 1.246 . S
C863 O853 1.257 . S
C864 O854 1.274 . S
C864 O855 1.251 . S
C865 O856 1.257 . S
C865 O857 1.245 . S
O866 Co837 2.286 . S
O866 C858 1.259 . S
O867 Co837 2.069 . S
O867 C858 1.289 . S
O868 Co839 2.146 . S
O868 C859 1.246 . S
O869 Co837 2.015 1_545 S
O869 C859 1.257 . S
C870 C871 1.349 . S
C870 C872 1.327 . S
C870 H895 0.950 . S
C871 C870 1.349 . S
C871 C887 1.349 . S
C872 C870 1.327 . S
C872 C891 1.429 . S
C872 H896 0.950 . S
C873 C890 1.574 . S
C873 C892 1.368 . S
C873 H897 0.949 . S
H874 C878 0.949 . S
C875 C876 1.349 . S
C875 C877 1.327 . S
C875 H898 0.950 . S
C876 C875 1.349 . S
C876 C888 1.349 . S
C877 C875 1.327 . S
C877 C893 1.429 . S
C877 H899 0.950 . S
C878 H874 0.949 . S
C878 C886 1.574 . S
C878 C894 1.368 . S
H879 C887 0.950 . S
H880 C885 0.950 . S
H881 C886 0.949 . S
H882 C888 0.950 . S
H883 C889 0.950 . S
H884 C890 0.949 . S
C885 H880 0.950 . S
C885 C887 1.327 . S
C885 C891 1.429 . S
C886 C878 1.574 . S
C886 H881 0.949 . S
C886 C892 1.368 . S
C887 C871 1.349 . S
C887 H879 0.950 . S
C887 C885 1.327 . S
C888 C876 1.349 . S
C888 H882 0.950 . S
C888 C889 1.327 . S
C889 H883 0.950 . S
C889 C888 1.327 . S
C889 C893 1.429 . S
C890 C873 1.574 . S
C890 H884 0.949 . S
C890 C894 1.368 . S
C891 C872 1.429 . S
C891 C885 1.429 . S
C891 C892 1.523 . S
C892 C873 1.368 . S
C892 C886 1.368 . S
C892 C891 1.523 . S
C893 C877 1.429 . S
C893 C889 1.429 . S
C893 C894 1.523 . S
C894 C878 1.368 . S
C894 C890 1.368 . S
C894 C893 1.523 . S
H895 C870 0.950 . S
H896 C872 0.950 . S
H897 C873 0.949 . S
H898 C875 0.950 . S
H899 C877 0.950 . S
C900 C901 1.349 . S
C900 C902 1.327 . S
C900 H925 0.950 . S
C901 C900 1.349 . S
C901 C917 1.349 . S
C902 C900 1.327 . S
C902 C921 1.429 . S
C902 H926 0.950 . S
C903 C920 1.574 . S
C903 C922 1.368 . S
C903 H927 0.949 . S
H904 C908 0.949 . S
C905 C906 1.349 . S
C905 C907 1.327 . S
C905 H928 0.950 . S
C906 C905 1.349 . S
C906 C918 1.349 . S
C907 C905 1.327 . S
C907 C923 1.429 . S
C907 H929 0.950 . S
C908 H904 0.949 . S
C908 C916 1.574 . S
C908 C924 1.368 . S
H909 C917 0.950 . S
H910 C915 0.950 . S
H911 C916 0.949 . S
H912 C918 0.950 . S
H913 C919 0.950 . S
H914 C920 0.949 . S
C915 H910 0.950 . S
C915 C917 1.327 . S
C915 C921 1.429 . S
C916 C908 1.574 . S
C916 H911 0.949 . S
C916 C922 1.368 . S
C917 C901 1.349 . S
C917 H909 0.950 . S
C917 C915 1.327 . S
C918 C906 1.349 . S
C918 H912 0.950 . S
C918 C919 1.327 . S
C919 H913 0.950 . S
C919 C918 1.327 . S
C919 C923 1.429 . S
C920 C903 1.574 . S
C920 H914 0.949 . S
C920 C924 1.368 . S
C921 C902 1.429 . S
C921 C915 1.429 . S
C921 C922 1.523 . S
C922 C903 1.368 . S
C922 C916 1.368 . S
C922 C921 1.523 . S
C923 C907 1.429 . S
C923 C919 1.429 . S
C923 C924 1.523 . S
C924 C908 1.368 . S
C924 C920 1.368 . S
C924 C923 1.523 . S
H925 C900 0.950 . S
H926 C902 0.950 . S
H927 C903 0.949 . S
H928 C905 0.950 . S
H929 C907 0.950 . S
C930 C931 1.349 . S
C930 C932 1.327 . S
C930 H955 0.950 . S
C931 C930 1.349 . S
C931 C947 1.349 . S
C932 C930 1.327 . S
C932 C951 1.429 . S
C932 H956 0.950 . S
C933 C950 1.574 . S
C933 C952 1.368 . S
C933 H957 0.949 . S
H934 C938 0.949 . S
C935 C936 1.349 . S
C935 C937 1.327 . S
C935 H958 0.950 . S
C936 C935 1.349 . S
C936 C948 1.349 . S
C937 C935 1.327 . S
C937 C953 1.429 . S
C937 H959 0.950 . S
C938 H934 0.949 . S
C938 C946 1.574 . S
C938 C954 1.368 . S
H939 C947 0.950 . S
H940 C945 0.950 . S
H941 C946 0.949 . S
H942 C948 0.950 . S
H943 C949 0.950 . S
H944 C950 0.949 . S
C945 H940 0.950 . S
C945 C947 1.327 . S
C945 C951 1.429 . S
C946 C938 1.574 . S
C946 H941 0.949 . S
C946 C952 1.368 . S
C947 C931 1.349 . S
C947 H939 0.950 . S
C947 C945 1.327 . S
C948 C936 1.349 . S
C948 H942 0.950 . S
C948 C949 1.327 . S
C949 H943 0.950 . S
C949 C948 1.327 . S
C949 C953 1.429 . S
C950 C933 1.574 . S
C950 H944 0.949 . S
C950 C954 1.368 . S
C951 C932 1.429 . S
C951 C945 1.429 . S
C951 C952 1.523 . S
C952 C933 1.368 . S
C952 C946 1.368 . S
C952 C951 1.523 . S
C953 C937 1.429 . S
C953 C949 1.429 . S
C953 C954 1.523 . S
C954 C938 1.368 . S
C954 C950 1.368 . S
C954 C953 1.523 . S
H955 C930 0.950 . S
H956 C932 0.950 . S
H957 C933 0.949 . S
H958 C935 0.950 . S
H959 C937 0.950 . S
C960 C961 1.349 . S
C960 C962 1.327 . S
C960 H985 0.950 . S
C961 C960 1.349 . S
C961 C977 1.349 . S
C962 C960 1.327 . S
C962 C981 1.429 . S
C962 H986 0.950 . S
C963 C980 1.574 . S
C963 C982 1.368 . S
C963 H987 0.949 . S
H964 C968 0.949 . S
C965 C966 1.349 . S
C965 C967 1.327 . S
C965 H988 0.950 . S
C966 C965 1.349 . S
C966 C978 1.349 . S
C967 C965 1.327 . S
C967 C983 1.429 . S
C967 H989 0.950 . S
C968 H964 0.949 . S
C968 C976 1.574 . S
C968 C984 1.368 . S
H969 C977 0.950 . S
H970 C975 0.950 . S
H971 C976 0.949 . S
H972 C978 0.950 . S
H973 C979 0.950 . S
H974 C980 0.949 . S
C975 H970 0.950 . S
C975 C977 1.327 . S
C975 C981 1.429 . S
C976 C968 1.574 . S
C976 H971 0.949 . S
C976 C982 1.368 . S
C977 C961 1.349 . S
C977 H969 0.950 . S
C977 C975 1.327 . S
C978 C966 1.349 . S
C978 H972 0.950 . S
C978 C979 1.327 . S
C979 H973 0.950 . S
C979 C978 1.327 . S
C979 C983 1.429 . S
C980 C963 1.574 . S
C980 H974 0.949 . S
C980 C984 1.368 . S
C981 C962 1.429 . S
C981 C975 1.429 . S
C981 C982 1.523 . S
C982 C963 1.368 . S
C982 C976 1.368 . S
C982 C981 1.523 . S
C983 C967 1.429 . S
C983 C979 1.429 . S
C983 C984 1.523 . S
C984 C968 1.368 . S
C984 C980 1.368 . S
C984 C983 1.523 . S
H985 C960 0.950 . S
H986 C962 0.950 . S
H987 C963 0.949 . S
H988 C965 0.950 . S
H989 C967 0.950 . S
C990 C991 1.349 . S
C990 C992 1.327 . S
C990 H1015 0.950 . S
C991 C990 1.349 . S
C991 C1007 1.349 . S
C992 C990 1.327 . S
C992 C1011 1.429 . S
C992 H1016 0.950 . S
C993 C1010 1.574 . S
C993 C1012 1.368 . S
C993 H1017 0.949 . S
H994 C998 0.949 . S
C995 C996 1.349 . S
C995 C997 1.327 . S
C995 H1018 0.950 . S
C996 C995 1.349 . S
C996 C1008 1.349 . S
C997 C995 1.327 . S
C997 C1013 1.429 . S
C997 H1019 0.950 . S
C998 H994 0.949 . S
C998 C1006 1.574 . S
C998 C1014 1.368 . S
H999 C1007 0.950 . S
H1000 C1005 0.950 . S
H1001 C1006 0.949 . S
H1002 C1008 0.950 . S
H1003 C1009 0.950 . S
H1004 C1010 0.949 . S
C1005 H1000 0.950 . S
C1005 C1007 1.327 . S
C1005 C1011 1.429 . S
C1006 C998 1.574 . S
C1006 H1001 0.949 . S
C1006 C1012 1.368 . S
C1007 C991 1.349 . S
C1007 H999 0.950 . S
C1007 C1005 1.327 . S
C1008 C996 1.349 . S
C1008 H1002 0.950 . S
C1008 C1009 1.327 . S
C1009 H1003 0.950 . S
C1009 C1008 1.327 . S
C1009 C1013 1.429 . S
C1010 C993 1.574 . S
C1010 H1004 0.949 . S
C1010 C1014 1.368 . S
C1011 C992 1.429 . S
C1011 C1005 1.429 . S
C1011 C1012 1.523 . S
C1012 C993 1.368 . S
C1012 C1006 1.368 . S
C1012 C1011 1.523 . S
C1013 C997 1.429 . S
C1013 C1009 1.429 . S
C1013 C1014 1.523 . S
C1014 C998 1.368 . S
C1014 C1010 1.368 . S
C1014 C1013 1.523 . S
H1015 C990 0.950 . S
H1016 C992 0.950 . S
H1017 C993 0.949 . S
H1018 C995 0.950 . S
H1019 C997 0.950 . S
C1020 C1021 1.349 . S
C1020 C1022 1.327 . S
C1020 H1045 0.950 . S
C1021 C1020 1.349 . S
C1021 C1037 1.349 . S
C1022 C1020 1.327 . S
C1022 C1041 1.429 . S
C1022 H1046 0.950 . S
C1023 C1040 1.574 . S
C1023 C1042 1.368 . S
C1023 H1047 0.949 . S
H1024 C1028 0.949 . S
C1025 C1026 1.349 . S
C1025 C1027 1.327 . S
C1025 H1048 0.950 . S
C1026 C1025 1.349 . S
C1026 C1038 1.349 . S
C1027 C1025 1.327 . S
C1027 C1043 1.429 . S
C1027 H1049 0.950 . S
C1028 H1024 0.949 . S
C1028 C1036 1.574 . S
C1028 C1044 1.368 . S
H1029 C1037 0.950 . S
H1030 C1035 0.950 . S
H1031 C1036 0.949 . S
H1032 C1038 0.950 . S
H1033 C1039 0.950 . S
H1034 C1040 0.949 . S
C1035 H1030 0.950 . S
C1035 C1037 1.327 . S
C1035 C1041 1.429 . S
C1036 C1028 1.574 . S
C1036 H1031 0.949 . S
C1036 C1042 1.368 . S
C1037 C1021 1.349 . S
C1037 H1029 0.950 . S
C1037 C1035 1.327 . S
C1038 C1026 1.349 . S
C1038 H1032 0.950 . S
C1038 C1039 1.327 . S
C1039 H1033 0.950 . S
C1039 C1038 1.327 . S
C1039 C1043 1.429 . S
C1040 C1023 1.574 . S
C1040 H1034 0.949 . S
C1040 C1044 1.368 . S
C1041 C1022 1.429 . S
C1041 C1035 1.429 . S
C1041 C1042 1.523 . S
C1042 C1023 1.368 . S
C1042 C1036 1.368 . S
C1042 C1041 1.523 . S
C1043 C1027 1.429 . S
C1043 C1039 1.429 . S
C1043 C1044 1.523 . S
C1044 C1028 1.368 . S
C1044 C1040 1.368 . S
C1044 C1043 1.523 . S
H1045 C1020 0.950 . S
H1046 C1022 0.950 . S
H1047 C1023 0.949 . S
H1048 C1025 0.950 . S
H1049 C1027 0.950 . S
C1050 C1051 1.349 . S
C1050 C1052 1.327 . S
C1050 H1075 0.950 . S
C1051 C1050 1.349 . S
C1051 C1067 1.349 . S
C1052 C1050 1.327 . S
C1052 C1071 1.429 . S
C1052 H1076 0.950 . S
C1053 C1070 1.574 . S
C1053 C1072 1.368 . S
C1053 H1077 0.949 . S
H1054 C1058 0.949 . S
C1055 C1056 1.349 . S
C1055 C1057 1.327 . S
C1055 H1078 0.950 . S
C1056 C1055 1.349 . S
C1056 C1068 1.349 . S
C1057 C1055 1.327 . S
C1057 C1073 1.429 . S
C1057 H1079 0.950 . S
C1058 H1054 0.949 . S
C1058 C1066 1.574 . S
C1058 C1074 1.368 . S
H1059 C1067 0.950 . S
H1060 C1065 0.950 . S
H1061 C1066 0.949 . S
H1062 C1068 0.950 . S
H1063 C1069 0.950 . S
H1064 C1070 0.949 . S
C1065 H1060 0.950 . S
C1065 C1067 1.327 . S
C1065 C1071 1.429 . S
C1066 C1058 1.574 . S
C1066 H1061 0.949 . S
C1066 C1072 1.368 . S
C1067 C1051 1.349 . S
C1067 H1059 0.950 . S
C1067 C1065 1.327 . S
C1068 C1056 1.349 . S
C1068 H1062 0.950 . S
C1068 C1069 1.327 . S
C1069 H1063 0.950 . S
C1069 C1068 1.327 . S
C1069 C1073 1.429 . S
C1070 C1053 1.574 . S
C1070 H1064 0.949 . S
C1070 C1074 1.368 . S
C1071 C1052 1.429 . S
C1071 C1065 1.429 . S
C1071 C1072 1.523 . S
C1072 C1053 1.368 . S
C1072 C1066 1.368 . S
C1072 C1071 1.523 . S
C1073 C1057 1.429 . S
C1073 C1069 1.429 . S
C1073 C1074 1.523 . S
C1074 C1058 1.368 . S
C1074 C1070 1.368 . S
C1074 C1073 1.523 . S
H1075 C1050 0.950 . S
H1076 C1052 0.950 . S
H1077 C1053 0.949 . S
H1078 C1055 0.950 . S
H1079 C1057 0.950 . S
C1080 C1081 1.349 . S
C1080 C1082 1.327 . S
C1080 H1105 0.950 . S
C1081 C1080 1.349 . S
C1081 C1097 1.349 . S
C1082 C1080 1.327 . S
C1082 C1101 1.429 . S
C1082 H1106 0.950 . S
C1083 C1100 1.574 . S
C1083 C1102 1.368 . S
C1083 H1107 0.949 . S
H1084 C1088 0.949 . S
C1085 C1086 1.349 . S
C1085 C1087 1.327 . S
C1085 H1108 0.950 . S
C1086 C1085 1.349 . S
C1086 C1098 1.349 . S
C1087 C1085 1.327 . S
C1087 C1103 1.429 . S
C1087 H1109 0.950 . S
C1088 H1084 0.949 . S
C1088 C1096 1.574 . S
C1088 C1104 1.368 . S
H1089 C1097 0.950 . S
H1090 C1095 0.950 . S
H1091 C1096 0.949 . S
H1092 C1098 0.950 . S
H1093 C1099 0.950 . S
H1094 C1100 0.949 . S
C1095 H1090 0.950 . S
C1095 C1097 1.327 . S
C1095 C1101 1.429 . S
C1096 C1088 1.574 . S
C1096 H1091 0.949 . S
C1096 C1102 1.368 . S
C1097 C1081 1.349 . S
C1097 H1089 0.950 . S
C1097 C1095 1.327 . S
C1098 C1086 1.349 . S
C1098 H1092 0.950 . S
C1098 C1099 1.327 . S
C1099 H1093 0.950 . S
C1099 C1098 1.327 . S
C1099 C1103 1.429 . S
C1100 C1083 1.574 . S
C1100 H1094 0.949 . S
C1100 C1104 1.368 . S
C1101 C1082 1.429 . S
C1101 C1095 1.429 . S
C1101 C1102 1.523 . S
C1102 C1083 1.368 . S
C1102 C1096 1.368 . S
C1102 C1101 1.523 . S
C1103 C1087 1.429 . S
C1103 C1099 1.429 . S
C1103 C1104 1.523 . S
C1104 C1088 1.368 . S
C1104 C1100 1.368 . S
C1104 C1103 1.523 . S
H1105 C1080 0.950 . S
H1106 C1082 0.950 . S
H1107 C1083 0.949 . S
H1108 C1085 0.950 . S
H1109 C1087 0.950 . S
C1110 C1111 1.349 . S
C1110 C1112 1.327 . S
C1110 H1135 0.950 . S
C1111 C1110 1.349 . S
C1111 C1127 1.349 . S
C1112 C1110 1.327 . S
C1112 C1131 1.429 . S
C1112 H1136 0.950 . S
C1113 C1130 1.574 . S
C1113 C1132 1.368 . S
C1113 H1137 0.949 . S
H1114 C1118 0.949 . S
C1115 C1116 1.349 . S
C1115 C1117 1.327 . S
C1115 H1138 0.950 . S
C1116 C1115 1.349 . S
C1116 C1128 1.349 . S
C1117 C1115 1.327 . S
C1117 C1133 1.429 . S
C1117 H1139 0.950 . S
C1118 H1114 0.949 . S
C1118 C1126 1.574 . S
C1118 C1134 1.368 . S
H1119 C1127 0.950 . S
H1120 C1125 0.950 . S
H1121 C1126 0.949 . S
H1122 C1128 0.950 . S
H1123 C1129 0.950 . S
H1124 C1130 0.949 . S
C1125 H1120 0.950 . S
C1125 C1127 1.327 . S
C1125 C1131 1.429 . S
C1126 C1118 1.574 . S
C1126 H1121 0.949 . S
C1126 C1132 1.368 . S
C1127 C1111 1.349 . S
C1127 H1119 0.950 . S
C1127 C1125 1.327 . S
C1128 C1116 1.349 . S
C1128 H1122 0.950 . S
C1128 C1129 1.327 . S
C1129 H1123 0.950 . S
C1129 C1128 1.327 . S
C1129 C1133 1.429 . S
C1130 C1113 1.574 . S
C1130 H1124 0.949 . S
C1130 C1134 1.368 . S
C1131 C1112 1.429 . S
C1131 C1125 1.429 . S
C1131 C1132 1.523 . S
C1132 C1113 1.368 . S
C1132 C1126 1.368 . S
C1132 C1131 1.523 . S
C1133 C1117 1.429 . S
C1133 C1129 1.429 . S
C1133 C1134 1.523 . S
C1134 C1118 1.368 . S
C1134 C1130 1.368 . S
C1134 C1133 1.523 . S
H1135 C1110 0.950 . S
H1136 C1112 0.950 . S
H1137 C1113 0.949 . S
H1138 C1115 0.950 . S
H1139 C1117 0.950 . S
C1140 C1141 1.349 . S
C1140 C1142 1.327 . S
C1140 H1165 0.950 . S
C1141 C1140 1.349 . S
C1141 C1157 1.349 . S
C1142 C1140 1.327 . S
C1142 C1161 1.429 . S
C1142 H1166 0.950 . S
C1143 C1160 1.574 . S
C1143 C1162 1.368 . S
C1143 H1167 0.949 . S
H1144 C1148 0.949 . S
C1145 C1146 1.349 . S
C1145 C1147 1.327 . S
C1145 H1168 0.950 . S
C1146 C1145 1.349 . S
C1146 C1158 1.349 . S
C1147 C1145 1.327 . S
C1147 C1163 1.429 . S
C1147 H1169 0.950 . S
C1148 H1144 0.949 . S
C1148 C1156 1.574 . S
C1148 C1164 1.368 . S
H1149 C1157 0.950 . S
H1150 C1155 0.950 . S
H1151 C1156 0.949 . S
H1152 C1158 0.950 . S
H1153 C1159 0.950 . S
H1154 C1160 0.949 . S
C1155 H1150 0.950 . S
C1155 C1157 1.327 . S
C1155 C1161 1.429 . S
C1156 C1148 1.574 . S
C1156 H1151 0.949 . S
C1156 C1162 1.368 . S
C1157 C1141 1.349 . S
C1157 H1149 0.950 . S
C1157 C1155 1.327 . S
C1158 C1146 1.349 . S
C1158 H1152 0.950 . S
C1158 C1159 1.327 . S
C1159 H1153 0.950 . S
C1159 C1158 1.327 . S
C1159 C1163 1.429 . S
C1160 C1143 1.574 . S
C1160 H1154 0.949 . S
C1160 C1164 1.368 . S
C1161 C1142 1.429 . S
C1161 C1155 1.429 . S
C1161 C1162 1.523 . S
C1162 C1143 1.368 . S
C1162 C1156 1.368 . S
C1162 C1161 1.523 . S
C1163 C1147 1.429 . S
C1163 C1159 1.429 . S
C1163 C1164 1.523 . S
C1164 C1148 1.368 . S
C1164 C1160 1.368 . S
C1164 C1163 1.523 . S
H1165 C1140 0.950 . S
H1166 C1142 0.950 . S
H1167 C1143 0.949 . S
H1168 C1145 0.950 . S
H1169 C1147 0.950 . S
C1170 C1171 1.349 . S
C1170 C1172 1.327 . S
C1170 H1195 0.950 . S
C1171 C1170 1.349 . S
C1171 C1187 1.349 . S
C1172 C1170 1.327 . S
C1172 C1191 1.429 . S
C1172 H1196 0.950 . S
C1173 C1190 1.574 . S
C1173 C1192 1.368 . S
C1173 H1197 0.949 . S
H1174 C1178 0.949 . S
C1175 C1176 1.349 . S
C1175 C1177 1.327 . S
C1175 H1198 0.950 . S
C1176 C1175 1.349 . S
C1176 C1188 1.349 . S
C1177 C1175 1.327 . S
C1177 C1193 1.429 . S
C1177 H1199 0.950 . S
C1178 H1174 0.949 . S
C1178 C1186 1.574 . S
C1178 C1194 1.368 . S
H1179 C1187 0.950 . S
H1180 C1185 0.950 . S
H1181 C1186 0.949 . S
H1182 C1188 0.950 . S
H1183 C1189 0.950 . S
H1184 C1190 0.949 . S
C1185 H1180 0.950 . S
C1185 C1187 1.327 . S
C1185 C1191 1.429 . S
C1186 C1178 1.574 . S
C1186 H1181 0.949 . S
C1186 C1192 1.368 . S
C1187 C1171 1.349 . S
C1187 H1179 0.950 . S
C1187 C1185 1.327 . S
C1188 C1176 1.349 . S
C1188 H1182 0.950 . S
C1188 C1189 1.327 . S
C1189 H1183 0.950 . S
C1189 C1188 1.327 . S
C1189 C1193 1.429 . S
C1190 C1173 1.574 . S
C1190 H1184 0.949 . S
C1190 C1194 1.368 . S
C1191 C1172 1.429 . S
C1191 C1185 1.429 . S
C1191 C1192 1.523 . S
C1192 C1173 1.368 . S
C1192 C1186 1.368 . S
C1192 C1191 1.523 . S
C1193 C1177 1.429 . S
C1193 C1189 1.429 . S
C1193 C1194 1.523 . S
C1194 C1178 1.368 . S
C1194 C1190 1.368 . S
C1194 C1193 1.523 . S
H1195 C1170 0.950 . S
H1196 C1172 0.950 . S
H1197 C1173 0.949 . S
H1198 C1175 0.950 . S
H1199 C1177 0.950 . S
C1200 C1201 1.349 . S
C1200 C1202 1.327 . S
C1200 H1225 0.950 . S
C1201 C1200 1.349 . S
C1201 C1217 1.349 . S
C1202 C1200 1.327 . S
C1202 C1221 1.429 . S
C1202 H1226 0.950 . S
C1203 C1220 1.574 . S
C1203 C1222 1.368 . S
C1203 H1227 0.949 . S
H1204 C1208 0.949 . S
C1205 C1206 1.349 . S
C1205 C1207 1.327 . S
C1205 H1228 0.950 . S
C1206 C1205 1.349 . S
C1206 C1218 1.349 . S
C1207 C1205 1.327 . S
C1207 C1223 1.429 . S
C1207 H1229 0.950 . S
C1208 H1204 0.949 . S
C1208 C1216 1.574 . S
C1208 C1224 1.368 . S
H1209 C1217 0.950 . S
H1210 C1215 0.950 . S
H1211 C1216 0.949 . S
H1212 C1218 0.950 . S
H1213 C1219 0.950 . S
H1214 C1220 0.949 . S
C1215 H1210 0.950 . S
C1215 C1217 1.327 . S
C1215 C1221 1.429 . S
C1216 C1208 1.574 . S
C1216 H1211 0.949 . S
C1216 C1222 1.368 . S
C1217 C1201 1.349 . S
C1217 H1209 0.950 . S
C1217 C1215 1.327 . S
C1218 C1206 1.349 . S
C1218 H1212 0.950 . S
C1218 C1219 1.327 . S
C1219 H1213 0.950 . S
C1219 C1218 1.327 . S
C1219 C1223 1.429 . S
C1220 C1203 1.574 . S
C1220 H1214 0.949 . S
C1220 C1224 1.368 . S
C1221 C1202 1.429 . S
C1221 C1215 1.429 . S
C1221 C1222 1.523 . S
C1222 C1203 1.368 . S
C1222 C1216 1.368 . S
C1222 C1221 1.523 . S
C1223 C1207 1.429 . S
C1223 C1219 1.429 . S
C1223 C1224 1.523 . S
C1224 C1208 1.368 . S
C1224 C1220 1.368 . S
C1224 C1223 1.523 . S
H1225 C1200 0.950 . S
H1226 C1202 0.950 . S
H1227 C1203 0.949 . S
H1228 C1205 0.950 . S
H1229 C1207 0.950 . S
C1230 C1231 1.349 . S
C1230 C1232 1.327 . S
C1230 H1255 0.950 . S
C1231 C1230 1.349 . S
C1231 C1247 1.349 . S
C1232 C1230 1.327 . S
C1232 C1251 1.429 . S
C1232 H1256 0.950 . S
C1233 C1250 1.574 . S
C1233 C1252 1.368 . S
C1233 H1257 0.949 . S
H1234 C1238 0.949 . S
C1235 C1236 1.349 . S
C1235 C1237 1.327 . S
C1235 H1258 0.950 . S
C1236 C1235 1.349 . S
C1236 C1248 1.349 . S
C1237 C1235 1.327 . S
C1237 C1253 1.429 . S
C1237 H1259 0.950 . S
C1238 H1234 0.949 . S
C1238 C1246 1.574 . S
C1238 C1254 1.368 . S
H1239 C1247 0.950 . S
H1240 C1245 0.950 . S
H1241 C1246 0.949 . S
H1242 C1248 0.950 . S
H1243 C1249 0.950 . S
H1244 C1250 0.949 . S
C1245 H1240 0.950 . S
C1245 C1247 1.327 . S
C1245 C1251 1.429 . S
C1246 C1238 1.574 . S
C1246 H1241 0.949 . S
C1246 C1252 1.368 . S
C1247 C1231 1.349 . S
C1247 H1239 0.950 . S
C1247 C1245 1.327 . S
C1248 C1236 1.349 . S
C1248 H1242 0.950 . S
C1248 C1249 1.327 . S
C1249 H1243 0.950 . S
C1249 C1248 1.327 . S
C1249 C1253 1.429 . S
C1250 C1233 1.574 . S
C1250 H1244 0.949 . S
C1250 C1254 1.368 . S
C1251 C1232 1.429 . S
C1251 C1245 1.429 . S
C1251 C1252 1.523 . S
C1252 C1233 1.368 . S
C1252 C1246 1.368 . S
C1252 C1251 1.523 . S
C1253 C1237 1.429 . S
C1253 C1249 1.429 . S
C1253 C1254 1.523 . S
C1254 C1238 1.368 . S
C1254 C1250 1.368 . S
C1254 C1253 1.523 . S
H1255 C1230 0.950 . S
H1256 C1232 0.950 . S
H1257 C1233 0.949 . S
H1258 C1235 0.950 . S
H1259 C1237 0.950 . S
C1260 C1261 1.349 . S
C1260 C1262 1.327 . S
C1260 H1285 0.950 . S
C1261 C1260 1.349 . S
C1261 C1277 1.349 . S
C1262 C1260 1.327 . S
C1262 C1281 1.429 . S
C1262 H1286 0.950 . S
C1263 C1280 1.574 . S
C1263 C1282 1.368 . S
C1263 H1287 0.949 . S
H1264 C1268 0.949 . S
C1265 C1266 1.349 . S
C1265 C1267 1.327 . S
C1265 H1288 0.950 . S
C1266 C1265 1.349 . S
C1266 C1278 1.349 . S
C1267 C1265 1.327 . S
C1267 C1283 1.429 . S
C1267 H1289 0.950 . S
C1268 H1264 0.949 . S
C1268 C1276 1.574 . S
C1268 C1284 1.368 . S
H1269 C1277 0.950 . S
H1270 C1275 0.950 . S
H1271 C1276 0.949 . S
H1272 C1278 0.950 . S
H1273 C1279 0.950 . S
H1274 C1280 0.949 . S
C1275 H1270 0.950 . S
C1275 C1277 1.327 . S
C1275 C1281 1.429 . S
C1276 C1268 1.574 . S
C1276 H1271 0.949 . S
C1276 C1282 1.368 . S
C1277 C1261 1.349 . S
C1277 H1269 0.950 . S
C1277 C1275 1.327 . S
C1278 C1266 1.349 . S
C1278 H1272 0.950 . S
C1278 C1279 1.327 . S
C1279 H1273 0.950 . S
C1279 C1278 1.327 . S
C1279 C1283 1.429 . S
C1280 C1263 1.574 . S
C1280 H1274 0.949 . S
C1280 C1284 1.368 . S
C1281 C1262 1.429 . S
C1281 C1275 1.429 . S
C1281 C1282 1.523 . S
C1282 C1263 1.368 . S
C1282 C1276 1.368 . S
C1282 C1281 1.523 . S
C1283 C1267 1.429 . S
C1283 C1279 1.429 . S
C1283 C1284 1.523 . S
C1284 C1268 1.368 . S
C1284 C1280 1.368 . S
C1284 C1283 1.523 . S
H1285 C1260 0.950 . S
H1286 C1262 0.950 . S
H1287 C1263 0.949 . S
H1288 C1265 0.950 . S
H1289 C1267 0.950 . S
C1290 C1291 1.349 . S
C1290 C1292 1.327 . S
C1290 H1315 0.950 . S
C1291 C1290 1.349 . S
C1291 C1307 1.349 . S
C1292 C1290 1.327 . S
C1292 C1311 1.429 . S
C1292 H1316 0.950 . S
C1293 C1310 1.574 . S
C1293 C1312 1.368 . S
C1293 H1317 0.949 . S
H1294 C1298 0.949 . S
C1295 C1296 1.349 . S
C1295 C1297 1.327 . S
C1295 H1318 0.950 . S
C1296 C1295 1.349 . S
C1296 C1308 1.349 . S
C1297 C1295 1.327 . S
C1297 C1313 1.429 . S
C1297 H1319 0.950 . S
C1298 H1294 0.949 . S
C1298 C1306 1.574 . S
C1298 C1314 1.368 . S
H1299 C1307 0.950 . S
H1300 C1305 0.950 . S
H1301 C1306 0.949 . S
H1302 C1308 0.950 . S
H1303 C1309 0.950 . S
H1304 C1310 0.949 . S
C1305 H1300 0.950 . S
C1305 C1307 1.327 . S
C1305 C1311 1.429 . S
C1306 C1298 1.574 . S
C1306 H1301 0.949 . S
C1306 C1312 1.368 . S
C1307 C1291 1.349 . S
C1307 H1299 0.950 . S
C1307 C1305 1.327 . S
C1308 C1296 1.349 . S
C1308 H1302 0.950 . S
C1308 C1309 1.327 . S
C1309 H1303 0.950 . S
C1309 C1308 1.327 . S
C1309 C1313 1.429 . S
C1310 C1293 1.574 . S
C1310 H1304 0.949 . S
C1310 C1314 1.368 . S
C1311 C1292 1.429 . S
C1311 C1305 1.429 . S
C1311 C1312 1.523 . S
C1312 C1293 1.368 . S
C1312 C1306 1.368 . S
C1312 C1311 1.523 . S
C1313 C1297 1.429 . S
C1313 C1309 1.429 . S
C1313 C1314 1.523 . S
C1314 C1298 1.368 . S
C1314 C1310 1.368 . S
C1314 C1313 1.523 . S
H1315 C1290 0.950 . S
H1316 C1292 0.950 . S
H1317 C1293 0.949 . S
H1318 C1295 0.950 . S
H1319 C1297 0.950 . S
C1320 C1321 1.349 . S
C1320 C1322 1.327 . S
C1320 H1345 0.950 . S
C1321 C1320 1.349 . S
C1321 C1337 1.349 . S
C1322 C1320 1.327 . S
C1322 C1341 1.429 . S
C1322 H1346 0.950 . S
C1323 C1340 1.574 . S
C1323 C1342 1.368 . S
C1323 H1347 0.949 . S
H1324 C1328 0.949 . S
C1325 C1326 1.349 . S
C1325 C1327 1.327 . S
C1325 H1348 0.950 . S
C1326 C1325 1.349 . S
C1326 C1338 1.349 . S
C1327 C1325 1.327 . S
C1327 C1343 1.429 . S
C1327 H1349 0.950 . S
C1328 H1324 0.949 . S
C1328 C1336 1.574 . S
C1328 C1344 1.368 . S
H1329 C1337 0.950 . S
H1330 C1335 0.950 . S
H1331 C1336 0.949 . S
H1332 C1338 0.950 . S
H1333 C1339 0.950 . S
H1334 C1340 0.949 . S
C1335 H1330 0.950 . S
C1335 C1337 1.327 . S
C1335 C1341 1.429 . S
C1336 C1328 1.574 . S
C1336 H1331 0.949 . S
C1336 C1342 1.368 . S
C1337 C1321 1.349 . S
C1337 H1329 0.950 . S
C1337 C1335 1.327 . S
C1338 C1326 1.349 . S
C1338 H1332 0.950 . S
C1338 C1339 1.327 . S
C1339 H1333 0.950 . S
C1339 C1338 1.327 . S
C1339 C1343 1.429 . S
C1340 C1323 1.574 . S
C1340 H1334 0.949 . S
C1340 C1344 1.368 . S
C1341 C1322 1.429 . S
C1341 C1335 1.429 . S
C1341 C1342 1.523 . S
C1342 C1323 1.368 . S
C1342 C1336 1.368 . S
C1342 C1341 1.523 . S
C1343 C1327 1.429 . S
C1343 C1339 1.429 . S
C1343 C1344 1.523 . S
C1344 C1328 1.368 . S
C1344 C1340 1.368 . S
C1344 C1343 1.523 . S
H1345 C1320 0.950 . S
H1346 C1322 0.950 . S
H1347 C1323 0.949 . S
H1348 C1325 0.950 . S
H1349 C1327 0.950 . S
C1350 C1351 1.349 . S
C1350 C1352 1.327 . S
C1350 H1375 0.950 . S
C1351 C1350 1.349 . S
C1351 C1367 1.349 . S
C1352 C1350 1.327 . S
C1352 C1371 1.429 . S
C1352 H1376 0.950 . S
C1353 C1370 1.574 . S
C1353 C1372 1.368 . S
C1353 H1377 0.949 . S
H1354 C1358 0.949 . S
C1355 C1356 1.349 . S
C1355 C1357 1.327 . S
C1355 H1378 0.950 . S
C1356 C1355 1.349 . S
C1356 C1368 1.349 . S
C1357 C1355 1.327 . S
C1357 C1373 1.429 . S
C1357 H1379 0.950 . S
C1358 H1354 0.949 . S
C1358 C1366 1.574 . S
C1358 C1374 1.368 . S
H1359 C1367 0.950 . S
H1360 C1365 0.950 . S
H1361 C1366 0.949 . S
H1362 C1368 0.950 . S
H1363 C1369 0.950 . S
H1364 C1370 0.949 . S
C1365 H1360 0.950 . S
C1365 C1367 1.327 . S
C1365 C1371 1.429 . S
C1366 C1358 1.574 . S
C1366 H1361 0.949 . S
C1366 C1372 1.368 . S
C1367 C1351 1.349 . S
C1367 H1359 0.950 . S
C1367 C1365 1.327 . S
C1368 C1356 1.349 . S
C1368 H1362 0.950 . S
C1368 C1369 1.327 . S
C1369 H1363 0.950 . S
C1369 C1368 1.327 . S
C1369 C1373 1.429 . S
C1370 C1353 1.574 . S
C1370 H1364 0.949 . S
C1370 C1374 1.368 . S
C1371 C1352 1.429 . S
C1371 C1365 1.429 . S
C1371 C1372 1.523 . S
C1372 C1353 1.368 . S
C1372 C1366 1.368 . S
C1372 C1371 1.523 . S
C1373 C1357 1.429 . S
C1373 C1369 1.429 . S
C1373 C1374 1.523 . S
C1374 C1358 1.368 . S
C1374 C1370 1.368 . S
C1374 C1373 1.523 . S
H1375 C1350 0.950 . S
H1376 C1352 0.950 . S
H1377 C1353 0.949 . S
H1378 C1355 0.950 . S
H1379 C1357 0.950 . S
C1380 C1381 1.349 . S
C1380 C1382 1.327 . S
C1380 H1405 0.950 . S
C1381 C1380 1.349 . S
C1381 C1397 1.349 . S
C1382 C1380 1.327 . S
C1382 C1401 1.429 . S
C1382 H1406 0.950 . S
C1383 C1400 1.574 . S
C1383 C1402 1.368 . S
C1383 H1407 0.949 . S
H1384 C1388 0.949 . S
C1385 C1386 1.349 . S
C1385 C1387 1.327 . S
C1385 H1408 0.950 . S
C1386 C1385 1.349 . S
C1386 C1398 1.349 . S
C1387 C1385 1.327 . S
C1387 C1403 1.429 . S
C1387 H1409 0.950 . S
C1388 H1384 0.949 . S
C1388 C1396 1.574 . S
C1388 C1404 1.368 . S
H1389 C1397 0.950 . S
H1390 C1395 0.950 . S
H1391 C1396 0.949 . S
H1392 C1398 0.950 . S
H1393 C1399 0.950 . S
H1394 C1400 0.949 . S
C1395 H1390 0.950 . S
C1395 C1397 1.327 . S
C1395 C1401 1.429 . S
C1396 C1388 1.574 . S
C1396 H1391 0.949 . S
C1396 C1402 1.368 . S
C1397 C1381 1.349 . S
C1397 H1389 0.950 . S
C1397 C1395 1.327 . S
C1398 C1386 1.349 . S
C1398 H1392 0.950 . S
C1398 C1399 1.327 . S
C1399 H1393 0.950 . S
C1399 C1398 1.327 . S
C1399 C1403 1.429 . S
C1400 C1383 1.574 . S
C1400 H1394 0.949 . S
C1400 C1404 1.368 . S
C1401 C1382 1.429 . S
C1401 C1395 1.429 . S
C1401 C1402 1.523 . S
C1402 C1383 1.368 . S
C1402 C1396 1.368 . S
C1402 C1401 1.523 . S
C1403 C1387 1.429 . S
C1403 C1399 1.429 . S
C1403 C1404 1.523 . S
C1404 C1388 1.368 . S
C1404 C1400 1.368 . S
C1404 C1403 1.523 . S
H1405 C1380 0.950 . S
H1406 C1382 0.950 . S
H1407 C1383 0.949 . S
H1408 C1385 0.950 . S
H1409 C1387 0.950 . S
C1410 C1411 1.349 . S
C1410 C1412 1.327 . S
C1410 H1435 0.950 . S
C1411 C1410 1.349 . S
C1411 C1427 1.349 . S
C1412 C1410 1.327 . S
C1412 C1431 1.429 . S
C1412 H1436 0.950 . S
C1413 C1430 1.574 . S
C1413 C1432 1.368 . S
C1413 H1437 0.949 . S
H1414 C1418 0.949 . S
C1415 C1416 1.349 . S
C1415 C1417 1.327 . S
C1415 H1438 0.950 . S
C1416 C1415 1.349 . S
C1416 C1428 1.349 . S
C1417 C1415 1.327 . S
C1417 C1433 1.429 . S
C1417 H1439 0.950 . S
C1418 H1414 0.949 . S
C1418 C1426 1.574 . S
C1418 C1434 1.368 . S
H1419 C1427 0.950 . S
H1420 C1425 0.950 . S
H1421 C1426 0.949 . S
H1422 C1428 0.950 . S
H1423 C1429 0.950 . S
H1424 C1430 0.949 . S
C1425 H1420 0.950 . S
C1425 C1427 1.327 . S
C1425 C1431 1.429 . S
C1426 C1418 1.574 . S
C1426 H1421 0.949 . S
C1426 C1432 1.368 . S
C1427 C1411 1.349 . S
C1427 H1419 0.950 . S
C1427 C1425 1.327 . S
C1428 C1416 1.349 . S
C1428 H1422 0.950 . S
C1428 C1429 1.327 . S
C1429 H1423 0.950 . S
C1429 C1428 1.327 . S
C1429 C1433 1.429 . S
C1430 C1413 1.574 . S
C1430 H1424 0.949 . S
C1430 C1434 1.368 . S
C1431 C1412 1.429 . S
C1431 C1425 1.429 . S
C1431 C1432 1.523 . S
C1432 C1413 1.368 . S
C1432 C1426 1.368 . S
C1432 C1431 1.523 . S
C1433 C1417 1.429 . S
C1433 C1429 1.429 . S
C1433 C1434 1.523 . S
C1434 C1418 1.368 . S
C1434 C1430 1.368 . S
C1434 C1433 1.523 . S
H1435 C1410 0.950 . S
H1436 C1412 0.950 . S
H1437 C1413 0.949 . S
H1438 C1415 0.950 . S
H1439 C1417 0.950 . S
C1440 C1441 1.349 . S
C1440 C1442 1.327 . S
C1440 H1465 0.950 . S
C1441 C1440 1.349 . S
C1441 C1457 1.349 . S
C1442 C1440 1.327 . S
C1442 C1461 1.429 . S
C1442 H1466 0.950 . S
C1443 C1460 1.574 . S
C1443 C1462 1.368 . S
C1443 H1467 0.949 . S
H1444 C1448 0.949 . S
C1445 C1446 1.349 . S
C1445 C1447 1.327 . S
C1445 H1468 0.950 . S
C1446 C1445 1.349 . S
C1446 C1458 1.349 . S
C1447 C1445 1.327 . S
C1447 C1463 1.429 . S
C1447 H1469 0.950 . S
C1448 H1444 0.949 . S
C1448 C1456 1.574 . S
C1448 C1464 1.368 . S
H1449 C1457 0.950 . S
H1450 C1455 0.950 . S
H1451 C1456 0.949 . S
H1452 C1458 0.950 . S
H1453 C1459 0.950 . S
H1454 C1460 0.949 . S
C1455 H1450 0.950 . S
C1455 C1457 1.327 . S
C1455 C1461 1.429 . S
C1456 C1448 1.574 . S
C1456 H1451 0.949 . S
C1456 C1462 1.368 . S
C1457 C1441 1.349 . S
C1457 H1449 0.950 . S
C1457 C1455 1.327 . S
C1458 C1446 1.349 . S
C1458 H1452 0.950 . S
C1458 C1459 1.327 . S
C1459 H1453 0.950 . S
C1459 C1458 1.327 . S
C1459 C1463 1.429 . S
C1460 C1443 1.574 . S
C1460 H1454 0.949 . S
C1460 C1464 1.368 . S
C1461 C1442 1.429 . S
C1461 C1455 1.429 . S
C1461 C1462 1.523 . S
C1462 C1443 1.368 . S
C1462 C1456 1.368 . S
C1462 C1461 1.523 . S
C1463 C1447 1.429 . S
C1463 C1459 1.429 . S
C1463 C1464 1.523 . S
C1464 C1448 1.368 . S
C1464 C1460 1.368 . S
C1464 C1463 1.523 . S
H1465 C1440 0.950 . S
H1466 C1442 0.950 . S
H1467 C1443 0.949 . S
H1468 C1445 0.950 . S
H1469 C1447 0.950 . S
C1470 C1471 1.349 . S
C1470 C1472 1.327 . S
C1470 H1495 0.950 . S
C1471 C1470 1.349 . S
C1471 C1487 1.349 . S
C1472 C1470 1.327 . S
C1472 C1491 1.429 . S
C1472 H1496 0.950 . S
C1473 C1490 1.574 . S
C1473 C1492 1.368 . S
C1473 H1497 0.949 . S
H1474 C1478 0.949 . S
C1475 C1476 1.349 . S
C1475 C1477 1.327 . S
C1475 H1498 0.950 . S
C1476 C1475 1.349 . S
C1476 C1488 1.349 . S
C1477 C1475 1.327 . S
C1477 C1493 1.429 . S
C1477 H1499 0.950 . S
C1478 H1474 0.949 . S
C1478 C1486 1.574 . S
C1478 C1494 1.368 . S
H1479 C1487 0.950 . S
H1480 C1485 0.950 . S
H1481 C1486 0.949 . S
H1482 C1488 0.950 . S
H1483 C1489 0.950 . S
H1484 C1490 0.949 . S
C1485 H1480 0.950 . S
C1485 C1487 1.327 . S
C1485 C1491 1.429 . S
C1486 C1478 1.574 . S
C1486 H1481 0.949 . S
C1486 C1492 1.368 . S
C1487 C1471 1.349 . S
C1487 H1479 0.950 . S
C1487 C1485 1.327 . S
C1488 C1476 1.349 . S
C1488 H1482 0.950 . S
C1488 C1489 1.327 . S
C1489 H1483 0.950 . S
C1489 C1488 1.327 . S
C1489 C1493 1.429 . S
C1490 C1473 1.574 . S
C1490 H1484 0.949 . S
C1490 C1494 1.368 . S
C1491 C1472 1.429 . S
C1491 C1485 1.429 . S
C1491 C1492 1.523 . S
C1492 C1473 1.368 . S
C1492 C1486 1.368 . S
C1492 C1491 1.523 . S
C1493 C1477 1.429 . S
C1493 C1489 1.429 . S
C1493 C1494 1.523 . S
C1494 C1478 1.368 . S
C1494 C1490 1.368 . S
C1494 C1493 1.523 . S
H1495 C1470 0.950 . S
H1496 C1472 0.950 . S
H1497 C1473 0.949 . S
H1498 C1475 0.950 . S
H1499 C1477 0.950 . S
C1500 C1501 1.349 . S
C1500 C1502 1.327 . S
C1500 H1525 0.950 . S
C1501 C1500 1.349 . S
C1501 C1517 1.349 . S
C1502 C1500 1.327 . S
C1502 C1521 1.429 . S
C1502 H1526 0.950 . S
C1503 C1520 1.574 . S
C1503 C1522 1.368 . S
C1503 H1527 0.949 . S
H1504 C1508 0.949 . S
C1505 C1506 1.349 . S
C1505 C1507 1.327 . S
C1505 H1528 0.950 . S
C1506 C1505 1.349 . S
C1506 C1518 1.349 . S
C1507 C1505 1.327 . S
C1507 C1523 1.429 . S
C1507 H1529 0.950 . S
C1508 H1504 0.949 . S
C1508 C1516 1.574 . S
C1508 C1524 1.368 . S
H1509 C1517 0.950 . S
H1510 C1515 0.950 . S
H1511 C1516 0.949 . S
H1512 C1518 0.950 . S
H1513 C1519 0.950 . S
H1514 C1520 0.949 . S
C1515 H1510 0.950 . S
C1515 C1517 1.327 . S
C1515 C1521 1.429 . S
C1516 C1508 1.574 . S
C1516 H1511 0.949 . S
C1516 C1522 1.368 . S
C1517 C1501 1.349 . S
C1517 H1509 0.950 . S
C1517 C1515 1.327 . S
C1518 C1506 1.349 . S
C1518 H1512 0.950 . S
C1518 C1519 1.327 . S
C1519 H1513 0.950 . S
C1519 C1518 1.327 . S
C1519 C1523 1.429 . S
C1520 C1503 1.574 . S
C1520 H1514 0.949 . S
C1520 C1524 1.368 . S
C1521 C1502 1.429 . S
C1521 C1515 1.429 . S
C1521 C1522 1.523 . S
C1522 C1503 1.368 . S
C1522 C1516 1.368 . S
C1522 C1521 1.523 . S
C1523 C1507 1.429 . S
C1523 C1519 1.429 . S
C1523 C1524 1.523 . S
C1524 C1508 1.368 . S
C1524 C1520 1.368 . S
C1524 C1523 1.523 . S
H1525 C1500 0.950 . S
H1526 C1502 0.950 . S
H1527 C1503 0.949 . S
H1528 C1505 0.950 . S
H1529 C1507 0.950 . S
C1530 C1531 1.349 . S
C1530 C1532 1.327 . S
C1530 H1555 0.950 . S
C1531 C1530 1.349 . S
C1531 C1547 1.349 . S
C1532 C1530 1.327 . S
C1532 C1551 1.429 . S
C1532 H1556 0.950 . S
C1533 C1550 1.574 . S
C1533 C1552 1.368 . S
C1533 H1557 0.949 . S
H1534 C1538 0.949 . S
C1535 C1536 1.349 . S
C1535 C1537 1.327 . S
C1535 H1558 0.950 . S
C1536 C1535 1.349 . S
C1536 C1548 1.349 . S
C1537 C1535 1.327 . S
C1537 C1553 1.429 . S
C1537 H1559 0.950 . S
C1538 H1534 0.949 . S
C1538 C1546 1.574 . S
C1538 C1554 1.368 . S
H1539 C1547 0.950 . S
H1540 C1545 0.950 . S
H1541 C1546 0.949 . S
H1542 C1548 0.950 . S
H1543 C1549 0.950 . S
H1544 C1550 0.949 . S
C1545 H1540 0.950 . S
C1545 C1547 1.327 . S
C1545 C1551 1.429 . S
C1546 C1538 1.574 . S
C1546 H1541 0.949 . S
C1546 C1552 1.368 . S
C1547 C1531 1.349 . S
C1547 H1539 0.950 . S
C1547 C1545 1.327 . S
C1548 C1536 1.349 . S
C1548 H1542 0.950 . S
C1548 C1549 1.327 . S
C1549 H1543 0.950 . S
C1549 C1548 1.327 . S
C1549 C1553 1.429 . S
C1550 C1533 1.574 . S
C1550 H1544 0.949 . S
C1550 C1554 1.368 . S
C1551 C1532 1.429 . S
C1551 C1545 1.429 . S
C1551 C1552 1.523 . S
C1552 C1533 1.368 . S
C1552 C1546 1.368 . S
C1552 C1551 1.523 . S
C1553 C1537 1.429 . S
C1553 C1549 1.429 . S
C1553 C1554 1.523 . S
C1554 C1538 1.368 . S
C1554 C1550 1.368 . S
C1554 C1553 1.523 . S
H1555 C1530 0.950 . S
H1556 C1532 0.950 . S
H1557 C1533 0.949 . S
H1558 C1535 0.950 . S
H1559 C1537 0.950 . S
C1560 C1561 1.349 . S
C1560 C1562 1.327 . S
C1560 H1585 0.950 . S
C1561 C1560 1.349 . S
C1561 C1577 1.349 . S
C1562 C1560 1.327 . S
C1562 C1581 1.429 . S
C1562 H1586 0.950 . S
C1563 C1580 1.574 . S
C1563 C1582 1.368 . S
C1563 H1587 0.949 . S
H1564 C1568 0.949 . S
C1565 C1566 1.349 . S
C1565 C1567 1.327 . S
C1565 H1588 0.950 . S
C1566 C1565 1.349 . S
C1566 C1578 1.349 . S
C1567 C1565 1.327 . S
C1567 C1583 1.429 . S
C1567 H1589 0.950 . S
C1568 H1564 0.949 . S
C1568 C1576 1.574 . S
C1568 C1584 1.368 . S
H1569 C1577 0.950 . S
H1570 C1575 0.950 . S
H1571 C1576 0.949 . S
H1572 C1578 0.950 . S
H1573 C1579 0.950 . S
H1574 C1580 0.949 . S
C1575 H1570 0.950 . S
C1575 C1577 1.327 . S
C1575 C1581 1.429 . S
C1576 C1568 1.574 . S
C1576 H1571 0.949 . S
C1576 C1582 1.368 . S
C1577 C1561 1.349 . S
C1577 H1569 0.950 . S
C1577 C1575 1.327 . S
C1578 C1566 1.349 . S
C1578 H1572 0.950 . S
C1578 C1579 1.327 . S
C1579 H1573 0.950 . S
C1579 C1578 1.327 . S
C1579 C1583 1.429 . S
C1580 C1563 1.574 . S
C1580 H1574 0.949 . S
C1580 C1584 1.368 . S
C1581 C1562 1.429 . S
C1581 C1575 1.429 . S
C1581 C1582 1.523 . S
C1582 C1563 1.368 . S
C1582 C1576 1.368 . S
C1582 C1581 1.523 . S
C1583 C1567 1.429 . S
C1583 C1579 1.429 . S
C1583 C1584 1.523 . S
C1584 C1568 1.368 . S
C1584 C1580 1.368 . S
C1584 C1583 1.523 . S
H1585 C1560 0.950 . S
H1586 C1562 0.950 . S
H1587 C1563 0.949 . S
H1588 C1565 0.950 . S
H1589 C1567 0.950 . S
C1590 C1591 1.349 . S
C1590 C1592 1.327 . S
C1590 H1615 0.950 . S
C1591 C1590 1.349 . S
C1591 C1607 1.349 . S
C1592 C1590 1.327 . S
C1592 C1611 1.429 . S
C1592 H1616 0.950 . S
C1593 C1610 1.574 . S
C1593 C1612 1.368 . S
C1593 H1617 0.949 . S
H1594 C1598 0.949 . S
C1595 C1596 1.349 . S
C1595 C1597 1.327 . S
C1595 H1618 0.950 . S
C1596 C1595 1.349 . S
C1596 C1608 1.349 . S
C1597 C1595 1.327 . S
C1597 C1613 1.429 . S
C1597 H1619 0.950 . S
C1598 H1594 0.949 . S
C1598 C1606 1.574 . S
C1598 C1614 1.368 . S
H1599 C1607 0.950 . S
H1600 C1605 0.950 . S
H1601 C1606 0.949 . S
H1602 C1608 0.950 . S
H1603 C1609 0.950 . S
H1604 C1610 0.949 . S
C1605 H1600 0.950 . S
C1605 C1607 1.327 . S
C1605 C1611 1.429 . S
C1606 C1598 1.574 . S
C1606 H1601 0.949 . S
C1606 C1612 1.368 . S
C1607 C1591 1.349 . S
C1607 H1599 0.950 . S
C1607 C1605 1.327 . S
C1608 C1596 1.349 . S
C1608 H1602 0.950 . S
C1608 C1609 1.327 . S
C1609 H1603 0.950 . S
C1609 C1608 1.327 . S
C1609 C1613 1.429 . S
C1610 C1593 1.574 . S
C1610 H1604 0.949 . S
C1610 C1614 1.368 . S
C1611 C1592 1.429 . S
C1611 C1605 1.429 . S
C1611 C1612 1.523 . S
C1612 C1593 1.368 . S
C1612 C1606 1.368 . S
C1612 C1611 1.523 . S
C1613 C1597 1.429 . S
C1613 C1609 1.429 . S
C1613 C1614 1.523 . S
C1614 C1598 1.368 . S
C1614 C1610 1.368 . S
C1614 C1613 1.523 . S
H1615 C1590 0.950 . S
H1616 C1592 0.950 . S
H1617 C1593 0.949 . S
H1618 C1595 0.950 . S
H1619 C1597 0.950 . S
C1620 C1621 1.349 . S
C1620 C1622 1.327 . S
C1620 H1645 0.950 . S
C1621 C1620 1.349 . S
C1621 C1637 1.349 . S
C1622 C1620 1.327 . S
C1622 C1641 1.429 . S
C1622 H1646 0.950 . S
C1623 C1640 1.574 . S
C1623 C1642 1.368 . S
C1623 H1647 0.949 . S
H1624 C1628 0.949 . S
C1625 C1626 1.349 . S
C1625 C1627 1.327 . S
C1625 H1648 0.950 1_556 S
C1626 C1625 1.349 . S
C1626 C1638 1.349 . S
C1627 C1625 1.327 . S
C1627 C1643 1.429 . S
C1627 H1649 0.950 . S
C1628 H1624 0.949 . S
C1628 C1636 1.574 . S
C1628 C1644 1.368 . S
H1629 C1637 0.950 . S
H1630 C1635 0.950 . S
H1631 C1636 0.949 . S
H1632 C1638 0.950 . S
H1633 C1639 0.950 . S
H1634 C1640 0.949 . S
C1635 H1630 0.950 . S
C1635 C1637 1.327 . S
C1635 C1641 1.429 . S
C1636 C1628 1.574 . S
C1636 H1631 0.949 . S
C1636 C1642 1.368 . S
C1637 C1621 1.349 . S
C1637 H1629 0.950 . S
C1637 C1635 1.327 . S
C1638 C1626 1.349 . S
C1638 H1632 0.950 . S
C1638 C1639 1.327 . S
C1639 H1633 0.950 . S
C1639 C1638 1.327 . S
C1639 C1643 1.429 . S
C1640 C1623 1.574 . S
C1640 H1634 0.949 . S
C1640 C1644 1.368 . S
C1641 C1622 1.429 . S
C1641 C1635 1.429 . S
C1641 C1642 1.523 . S
C1642 C1623 1.368 . S
C1642 C1636 1.368 . S
C1642 C1641 1.523 . S
C1643 C1627 1.429 . S
C1643 C1639 1.429 . S
C1643 C1644 1.523 . S
C1644 C1628 1.368 . S
C1644 C1640 1.368 . S
C1644 C1643 1.523 . S
H1645 C1620 0.950 . S
H1646 C1622 0.950 . S
H1647 C1623 0.949 . S
H1648 C1625 0.950 1_554 S
H1649 C1627 0.950 . S
C1650 C1651 1.349 . S
C1650 C1652 1.327 . S
C1650 H1675 0.950 . S
C1651 C1650 1.349 . S
C1651 C1667 1.349 . S
C1652 C1650 1.327 . S
C1652 C1671 1.429 . S
C1652 H1676 0.950 . S
C1653 C1670 1.574 . S
C1653 C1672 1.368 . S
C1653 H1677 0.949 . S
H1654 C1658 0.949 . S
C1655 C1656 1.349 . S
C1655 C1657 1.327 . S
C1655 H1678 0.950 . S
C1656 C1655 1.349 . S
C1656 C1668 1.349 . S
C1657 C1655 1.327 . S
C1657 C1673 1.429 . S
C1657 H1679 0.950 . S
C1658 H1654 0.949 . S
C1658 C1666 1.574 . S
C1658 C1674 1.368 . S
H1659 C1667 0.950 . S
H1660 C1665 0.950 . S
H1661 C1666 0.949 . S
H1662 C1668 0.950 . S
H1663 C1669 0.950 . S
H1664 C1670 0.949 . S
C1665 H1660 0.950 . S
C1665 C1667 1.327 . S
C1665 C1671 1.429 . S
C1666 C1658 1.574 . S
C1666 H1661 0.949 . S
C1666 C1672 1.368 . S
C1667 C1651 1.349 . S
C1667 H1659 0.950 . S
C1667 C1665 1.327 . S
C1668 C1656 1.349 . S
C1668 H1662 0.950 . S
C1668 C1669 1.327 . S
C1669 H1663 0.950 . S
C1669 C1668 1.327 . S
C1669 C1673 1.429 . S
C1670 C1653 1.574 . S
C1670 H1664 0.949 . S
C1670 C1674 1.368 . S
C1671 C1652 1.429 . S
C1671 C1665 1.429 . S
C1671 C1672 1.523 . S
C1672 C1653 1.368 . S
C1672 C1666 1.368 . S
C1672 C1671 1.523 . S
C1673 C1657 1.429 . S
C1673 C1669 1.429 . S
C1673 C1674 1.523 . S
C1674 C1658 1.368 . S
C1674 C1670 1.368 . S
C1674 C1673 1.523 . S
H1675 C1650 0.950 . S
H1676 C1652 0.950 . S
H1677 C1653 0.949 . S
H1678 C1655 0.950 . S
H1679 C1657 0.950 . S
C1680 C1681 1.349 . S
C1680 C1682 1.327 . S
C1680 H1705 0.950 . S
C1681 C1680 1.349 . S
C1681 C1697 1.349 . S
C1682 C1680 1.327 . S
C1682 C1701 1.429 . S
C1682 H1706 0.950 . S
C1683 C1700 1.574 . S
C1683 C1702 1.368 . S
C1683 H1707 0.949 . S
H1684 C1688 0.949 . S
C1685 C1686 1.349 . S
C1685 C1687 1.327 . S
C1685 H1708 0.950 . S
C1686 C1685 1.349 . S
C1686 C1698 1.349 . S
C1687 C1685 1.327 . S
C1687 C1703 1.429 . S
C1687 H1709 0.950 . S
C1688 H1684 0.949 . S
C1688 C1696 1.574 . S
C1688 C1704 1.368 . S
H1689 C1697 0.950 . S
H1690 C1695 0.950 . S
H1691 C1696 0.949 . S
H1692 C1698 0.950 . S
H1693 C1699 0.950 . S
H1694 C1700 0.949 . S
C1695 H1690 0.950 . S
C1695 C1697 1.327 . S
C1695 C1701 1.429 . S
C1696 C1688 1.574 . S
C1696 H1691 0.949 . S
C1696 C1702 1.368 . S
C1697 C1681 1.349 . S
C1697 H1689 0.950 . S
C1697 C1695 1.327 . S
C1698 C1686 1.349 . S
C1698 H1692 0.950 . S
C1698 C1699 1.327 . S
C1699 H1693 0.950 . S
C1699 C1698 1.327 . S
C1699 C1703 1.429 . S
C1700 C1683 1.574 . S
C1700 H1694 0.949 . S
C1700 C1704 1.368 . S
C1701 C1682 1.429 . S
C1701 C1695 1.429 . S
C1701 C1702 1.523 . S
C1702 C1683 1.368 . S
C1702 C1696 1.368 . S
C1702 C1701 1.523 . S
C1703 C1687 1.429 . S
C1703 C1699 1.429 . S
C1703 C1704 1.523 . S
C1704 C1688 1.368 . S
C1704 C1700 1.368 . S
C1704 C1703 1.523 . S
H1705 C1680 0.950 . S
H1706 C1682 0.950 . S
H1707 C1683 0.949 . S
H1708 C1685 0.950 . S
H1709 C1687 0.950 . S
C1710 C1711 1.349 . S
C1710 C1712 1.327 . S
C1710 H1735 0.950 . S
C1711 C1710 1.349 . S
C1711 C1727 1.349 . S
C1712 C1710 1.327 . S
C1712 C1731 1.429 . S
C1712 H1736 0.950 . S
C1713 C1730 1.574 . S
C1713 C1732 1.368 . S
C1713 H1737 0.949 . S
H1714 C1718 0.949 . S
C1715 C1716 1.349 . S
C1715 C1717 1.327 . S
C1715 H1738 0.950 . S
C1716 C1715 1.349 . S
C1716 C1728 1.349 . S
C1717 C1715 1.327 . S
C1717 C1733 1.429 . S
C1717 H1739 0.950 . S
C1718 H1714 0.949 . S
C1718 C1726 1.574 . S
C1718 C1734 1.368 . S
H1719 C1727 0.950 . S
H1720 C1725 0.950 . S
H1721 C1726 0.949 . S
H1722 C1728 0.950 . S
H1723 C1729 0.950 . S
H1724 C1730 0.949 . S
C1725 H1720 0.950 . S
C1725 C1727 1.327 . S
C1725 C1731 1.429 . S
C1726 C1718 1.574 . S
C1726 H1721 0.949 . S
C1726 C1732 1.368 . S
C1727 C1711 1.349 . S
C1727 H1719 0.950 . S
C1727 C1725 1.327 . S
C1728 C1716 1.349 . S
C1728 H1722 0.950 . S
C1728 C1729 1.327 . S
C1729 H1723 0.950 . S
C1729 C1728 1.327 . S
C1729 C1733 1.429 . S
C1730 C1713 1.574 . S
C1730 H1724 0.949 . S
C1730 C1734 1.368 . S
C1731 C1712 1.429 . S
C1731 C1725 1.429 . S
C1731 C1732 1.523 . S
C1732 C1713 1.368 . S
C1732 C1726 1.368 . S
C1732 C1731 1.523 . S
C1733 C1717 1.429 . S
C1733 C1729 1.429 . S
C1733 C1734 1.523 . S
C1734 C1718 1.368 . S
C1734 C1730 1.368 . S
C1734 C1733 1.523 . S
H1735 C1710 0.950 . S
H1736 C1712 0.950 . S
H1737 C1713 0.949 . S
H1738 C1715 0.950 . S
H1739 C1717 0.950 . S
C1740 C1741 1.349 . S
C1740 C1742 1.327 . S
C1740 H1765 0.950 . S
C1741 C1740 1.349 . S
C1741 C1757 1.349 . S
C1742 C1740 1.327 . S
C1742 C1761 1.429 . S
C1742 H1766 0.950 . S
C1743 C1760 1.574 . S
C1743 C1762 1.368 . S
C1743 H1767 0.949 . S
H1744 C1748 0.949 . S
C1745 C1746 1.349 . S
C1745 C1747 1.327 . S
C1745 H1768 0.950 . S
C1746 C1745 1.349 . S
C1746 C1758 1.349 . S
C1747 C1745 1.327 . S
C1747 C1763 1.429 . S
C1747 H1769 0.950 . S
C1748 H1744 0.949 . S
C1748 C1756 1.574 . S
C1748 C1764 1.368 . S
H1749 C1757 0.950 . S
H1750 C1755 0.950 . S
H1751 C1756 0.949 . S
H1752 C1758 0.950 . S
H1753 C1759 0.950 . S
H1754 C1760 0.949 . S
C1755 H1750 0.950 . S
C1755 C1757 1.327 . S
C1755 C1761 1.429 . S
C1756 C1748 1.574 . S
C1756 H1751 0.949 . S
C1756 C1762 1.368 . S
C1757 C1741 1.349 . S
C1757 H1749 0.950 . S
C1757 C1755 1.327 . S
C1758 C1746 1.349 . S
C1758 H1752 0.950 . S
C1758 C1759 1.327 . S
C1759 H1753 0.950 . S
C1759 C1758 1.327 . S
C1759 C1763 1.429 . S
C1760 C1743 1.574 . S
C1760 H1754 0.949 . S
C1760 C1764 1.368 . S
C1761 C1742 1.429 . S
C1761 C1755 1.429 . S
C1761 C1762 1.523 . S
C1762 C1743 1.368 . S
C1762 C1756 1.368 . S
C1762 C1761 1.523 . S
C1763 C1747 1.429 . S
C1763 C1759 1.429 . S
C1763 C1764 1.523 . S
C1764 C1748 1.368 . S
C1764 C1760 1.368 . S
C1764 C1763 1.523 . S
H1765 C1740 0.950 . S
H1766 C1742 0.950 . S
H1767 C1743 0.949 . S
H1768 C1745 0.950 . S
H1769 C1747 0.950 . S
C1770 C1771 1.349 . S
C1770 C1772 1.327 . S
C1770 H1795 0.950 . S
C1771 C1770 1.349 . S
C1771 C1787 1.349 . S
C1772 C1770 1.327 . S
C1772 C1791 1.429 . S
C1772 H1796 0.950 . S
C1773 C1790 1.574 . S
C1773 C1792 1.368 . S
C1773 H1797 0.949 . S
H1774 C1778 0.949 . S
C1775 C1776 1.349 . S
C1775 C1777 1.327 . S
C1775 H1798 0.950 . S
C1776 C1775 1.349 . S
C1776 C1788 1.349 . S
C1777 C1775 1.327 . S
C1777 C1793 1.429 . S
C1777 H1799 0.950 . S
C1778 H1774 0.949 . S
C1778 C1786 1.574 . S
C1778 C1794 1.368 . S
H1779 C1787 0.950 . S
H1780 C1785 0.950 . S
H1781 C1786 0.949 . S
H1782 C1788 0.950 . S
H1783 C1789 0.950 . S
H1784 C1790 0.949 . S
C1785 H1780 0.950 . S
C1785 C1787 1.327 . S
C1785 C1791 1.429 . S
C1786 C1778 1.574 . S
C1786 H1781 0.949 . S
C1786 C1792 1.368 . S
C1787 C1771 1.349 . S
C1787 H1779 0.950 . S
C1787 C1785 1.327 . S
C1788 C1776 1.349 . S
C1788 H1782 0.950 . S
C1788 C1789 1.327 . S
C1789 H1783 0.950 . S
C1789 C1788 1.327 . S
C1789 C1793 1.429 . S
C1790 C1773 1.574 . S
C1790 H1784 0.949 . S
C1790 C1794 1.368 . S
C1791 C1772 1.429 . S
C1791 C1785 1.429 . S
C1791 C1792 1.523 . S
C1792 C1773 1.368 . S
C1792 C1786 1.368 . S
C1792 C1791 1.523 . S
C1793 C1777 1.429 . S
C1793 C1789 1.429 . S
C1793 C1794 1.523 . S
C1794 C1778 1.368 . S
C1794 C1790 1.368 . S
C1794 C1793 1.523 . S
H1795 C1770 0.950 . S
H1796 C1772 0.950 . S
H1797 C1773 0.949 . S
H1798 C1775 0.950 . S
H1799 C1777 0.950 . S
C1800 C1801 1.349 . S
C1800 C1802 1.327 . S
C1800 H1825 0.950 . S
C1801 C1800 1.349 . S
C1801 C1817 1.349 . S
C1802 C1800 1.327 . S
C1802 C1821 1.429 . S
C1802 H1826 0.950 . S
C1803 C1820 1.574 . S
C1803 C1822 1.368 . S
C1803 H1827 0.949 . S
H1804 C1808 0.949 . S
C1805 C1806 1.349 . S
C1805 C1807 1.327 . S
C1805 H1828 0.950 . S
C1806 C1805 1.349 . S
C1806 C1818 1.349 . S
C1807 C1805 1.327 . S
C1807 C1823 1.429 . S
C1807 H1829 0.950 . S
C1808 H1804 0.949 . S
C1808 C1816 1.574 . S
C1808 C1824 1.368 . S
H1809 C1817 0.950 . S
H1810 C1815 0.950 . S
H1811 C1816 0.949 . S
H1812 C1818 0.950 . S
H1813 C1819 0.950 . S
H1814 C1820 0.949 . S
C1815 H1810 0.950 . S
C1815 C1817 1.327 . S
C1815 C1821 1.429 . S
C1816 C1808 1.574 . S
C1816 H1811 0.949 . S
C1816 C1822 1.368 . S
C1817 C1801 1.349 . S
C1817 H1809 0.950 . S
C1817 C1815 1.327 . S
C1818 C1806 1.349 . S
C1818 H1812 0.950 . S
C1818 C1819 1.327 . S
C1819 H1813 0.950 . S
C1819 C1818 1.327 . S
C1819 C1823 1.429 . S
C1820 C1803 1.574 . S
C1820 H1814 0.949 . S
C1820 C1824 1.368 . S
C1821 C1802 1.429 . S
C1821 C1815 1.429 . S
C1821 C1822 1.523 . S
C1822 C1803 1.368 . S
C1822 C1816 1.368 . S
C1822 C1821 1.523 . S
C1823 C1807 1.429 . S
C1823 C1819 1.429 . S
C1823 C1824 1.523 . S
C1824 C1808 1.368 . S
C1824 C1820 1.368 . S
C1824 C1823 1.523 . S
H1825 C1800 0.950 . S
H1826 C1802 0.950 . S
H1827 C1803 0.949 . S
H1828 C1805 0.950 . S
H1829 C1807 0.950 . S
C1830 C1831 1.349 . S
C1830 C1832 1.327 . S
C1830 H1855 0.950 . S
C1831 C1830 1.349 . S
C1831 C1847 1.349 . S
C1832 C1830 1.327 . S
C1832 C1851 1.429 . S
C1832 H1856 0.950 . S
C1833 C1850 1.574 . S
C1833 C1852 1.368 . S
C1833 H1857 0.949 . S
H1834 C1838 0.949 . S
C1835 C1836 1.349 . S
C1835 C1837 1.327 . S
C1835 H1858 0.950 . S
C1836 C1835 1.349 . S
C1836 C1848 1.349 . S
C1837 C1835 1.327 . S
C1837 C1853 1.429 . S
C1837 H1859 0.950 . S
C1838 H1834 0.949 . S
C1838 C1846 1.574 . S
C1838 C1854 1.368 . S
H1839 C1847 0.950 . S
H1840 C1845 0.950 . S
H1841 C1846 0.949 . S
H1842 C1848 0.950 . S
H1843 C1849 0.950 . S
H1844 C1850 0.949 . S
C1845 H1840 0.950 . S
C1845 C1847 1.327 . S
C1845 C1851 1.429 . S
C1846 C1838 1.574 . S
C1846 H1841 0.949 . S
C1846 C1852 1.368 . S
C1847 C1831 1.349 . S
C1847 H1839 0.950 . S
C1847 C1845 1.327 . S
C1848 C1836 1.349 . S
C1848 H1842 0.950 . S
C1848 C1849 1.327 . S
C1849 H1843 0.950 . S
C1849 C1848 1.327 . S
C1849 C1853 1.429 . S
C1850 C1833 1.574 . S
C1850 H1844 0.949 . S
C1850 C1854 1.368 . S
C1851 C1832 1.429 . S
C1851 C1845 1.429 . S
C1851 C1852 1.523 . S
C1852 C1833 1.368 . S
C1852 C1846 1.368 . S
C1852 C1851 1.523 . S
C1853 C1837 1.429 . S
C1853 C1849 1.429 . S
C1853 C1854 1.523 . S
C1854 C1838 1.368 . S
C1854 C1850 1.368 . S
C1854 C1853 1.523 . S
H1855 C1830 0.950 . S
H1856 C1832 0.950 . S
H1857 C1833 0.949 . S
H1858 C1835 0.950 . S
H1859 C1837 0.950 . S
C1860 C1861 1.349 . S
C1860 C1862 1.327 . S
C1860 H1885 0.950 . S
C1861 C1860 1.349 . S
C1861 C1877 1.349 . S
C1862 C1860 1.327 . S
C1862 C1881 1.429 . S
C1862 H1886 0.950 . S
C1863 C1880 1.574 . S
C1863 C1882 1.368 . S
C1863 H1887 0.949 . S
H1864 C1868 0.949 . S
C1865 C1866 1.349 . S
C1865 C1867 1.327 . S
C1865 H1888 0.950 . S
C1866 C1865 1.349 . S
C1866 C1878 1.349 . S
C1867 C1865 1.327 . S
C1867 C1883 1.429 . S
C1867 H1889 0.950 . S
C1868 H1864 0.949 . S
C1868 C1876 1.574 . S
C1868 C1884 1.368 . S
H1869 C1877 0.950 . S
H1870 C1875 0.950 . S
H1871 C1876 0.949 . S
H1872 C1878 0.950 . S
H1873 C1879 0.950 . S
H1874 C1880 0.949 . S
C1875 H1870 0.950 . S
C1875 C1877 1.327 . S
C1875 C1881 1.429 . S
C1876 C1868 1.574 . S
C1876 H1871 0.949 . S
C1876 C1882 1.368 . S
C1877 C1861 1.349 . S
C1877 H1869 0.950 . S
C1877 C1875 1.327 . S
C1878 C1866 1.349 . S
C1878 H1872 0.950 . S
C1878 C1879 1.327 . S
C1879 H1873 0.950 . S
C1879 C1878 1.327 . S
C1879 C1883 1.429 . S
C1880 C1863 1.574 . S
C1880 H1874 0.949 . S
C1880 C1884 1.368 . S
C1881 C1862 1.429 . S
C1881 C1875 1.429 . S
C1881 C1882 1.523 . S
C1882 C1863 1.368 . S
C1882 C1876 1.368 . S
C1882 C1881 1.523 . S
C1883 C1867 1.429 . S
C1883 C1879 1.429 . S
C1883 C1884 1.523 . S
C1884 C1868 1.368 . S
C1884 C1880 1.368 . S
C1884 C1883 1.523 . S
H1885 C1860 0.950 . S
H1886 C1862 0.950 . S
H1887 C1863 0.949 . S
H1888 C1865 0.950 . S
H1889 C1867 0.950 . S
C1890 C1891 1.349 . S
C1890 C1892 1.327 . S
C1890 H1915 0.950 . S
C1891 C1890 1.349 . S
C1891 C1907 1.349 . S
C1892 C1890 1.327 . S
C1892 C1911 1.429 . S
C1892 H1916 0.950 . S
C1893 C1910 1.574 . S
C1893 C1912 1.368 . S
C1893 H1917 0.949 . S
H1894 C1898 0.949 . S
C1895 C1896 1.349 . S
C1895 C1897 1.327 . S
C1895 H1918 0.950 . S
C1896 C1895 1.349 . S
C1896 C1908 1.349 . S
C1897 C1895 1.327 . S
C1897 C1913 1.429 . S
C1897 H1919 0.950 . S
C1898 H1894 0.949 . S
C1898 C1906 1.574 . S
C1898 C1914 1.368 . S
H1899 C1907 0.950 . S
H1900 C1905 0.950 . S
H1901 C1906 0.949 . S
H1902 C1908 0.950 . S
H1903 C1909 0.950 . S
H1904 C1910 0.949 . S
C1905 H1900 0.950 . S
C1905 C1907 1.327 . S
C1905 C1911 1.429 . S
C1906 C1898 1.574 . S
C1906 H1901 0.949 . S
C1906 C1912 1.368 . S
C1907 C1891 1.349 . S
C1907 H1899 0.950 . S
C1907 C1905 1.327 . S
C1908 C1896 1.349 . S
C1908 H1902 0.950 . S
C1908 C1909 1.327 . S
C1909 H1903 0.950 . S
C1909 C1908 1.327 . S
C1909 C1913 1.429 . S
C1910 C1893 1.574 . S
C1910 H1904 0.949 . S
C1910 C1914 1.368 . S
C1911 C1892 1.429 . S
C1911 C1905 1.429 . S
C1911 C1912 1.523 . S
C1912 C1893 1.368 . S
C1912 C1906 1.368 . S
C1912 C1911 1.523 . S
C1913 C1897 1.429 . S
C1913 C1909 1.429 . S
C1913 C1914 1.523 . S
C1914 C1898 1.368 . S
C1914 C1910 1.368 . S
C1914 C1913 1.523 . S
H1915 C1890 0.950 . S
H1916 C1892 0.950 . S
H1917 C1893 0.949 . S
H1918 C1895 0.950 . S
H1919 C1897 0.950 . S
C1920 C1921 1.349 . S
C1920 C1922 1.327 . S
C1920 H1945 0.950 . S
C1921 C1920 1.349 . S
C1921 C1937 1.349 . S
C1922 C1920 1.327 . S
C1922 C1941 1.429 . S
C1922 H1946 0.950 . S
C1923 C1940 1.574 . S
C1923 C1942 1.368 . S
C1923 H1947 0.949 . S
H1924 C1928 0.949 . S
C1925 C1926 1.349 . S
C1925 C1927 1.327 . S
C1925 H1948 0.950 . S
C1926 C1925 1.349 . S
C1926 C1938 1.349 . S
C1927 C1925 1.327 . S
C1927 C1943 1.429 . S
C1927 H1949 0.950 . S
C1928 H1924 0.949 . S
C1928 C1936 1.574 . S
C1928 C1944 1.368 . S
H1929 C1937 0.950 . S
H1930 C1935 0.950 . S
H1931 C1936 0.949 . S
H1932 C1938 0.950 . S
H1933 C1939 0.950 . S
H1934 C1940 0.949 . S
C1935 H1930 0.950 . S
C1935 C1937 1.327 . S
C1935 C1941 1.429 . S
C1936 C1928 1.574 . S
C1936 H1931 0.949 . S
C1936 C1942 1.368 . S
C1937 C1921 1.349 . S
C1937 H1929 0.950 . S
C1937 C1935 1.327 . S
C1938 C1926 1.349 . S
C1938 H1932 0.950 . S
C1938 C1939 1.327 . S
C1939 H1933 0.950 . S
C1939 C1938 1.327 . S
C1939 C1943 1.429 . S
C1940 C1923 1.574 . S
C1940 H1934 0.949 . S
C1940 C1944 1.368 . S
C1941 C1922 1.429 . S
C1941 C1935 1.429 . S
C1941 C1942 1.523 . S
C1942 C1923 1.368 . S
C1942 C1936 1.368 . S
C1942 C1941 1.523 . S
C1943 C1927 1.429 . S
C1943 C1939 1.429 . S
C1943 C1944 1.523 . S
C1944 C1928 1.368 . S
C1944 C1940 1.368 . S
C1944 C1943 1.523 . S
H1945 C1920 0.950 . S
H1946 C1922 0.950 . S
H1947 C1923 0.949 . S
H1948 C1925 0.950 . S
H1949 C1927 0.950 . S
C1950 C1951 1.349 . S
C1950 C1952 1.327 . S
C1950 H1975 0.950 . S
C1951 C1950 1.349 . S
C1951 C1967 1.349 . S
C1952 C1950 1.327 . S
C1952 C1971 1.429 . S
C1952 H1976 0.950 . S
C1953 C1970 1.574 . S
C1953 C1972 1.368 . S
C1953 H1977 0.949 . S
H1954 C1958 0.949 . S
C1955 C1956 1.349 . S
C1955 C1957 1.327 . S
C1955 H1978 0.950 . S
C1956 C1955 1.349 . S
C1956 C1968 1.349 . S
C1957 C1955 1.327 . S
C1957 C1973 1.429 . S
C1957 H1979 0.950 . S
C1958 H1954 0.949 . S
C1958 C1966 1.574 . S
C1958 C1974 1.368 . S
H1959 C1967 0.950 . S
H1960 C1965 0.950 . S
H1961 C1966 0.949 . S
H1962 C1968 0.950 . S
H1963 C1969 0.950 . S
H1964 C1970 0.949 . S
C1965 H1960 0.950 . S
C1965 C1967 1.327 . S
C1965 C1971 1.429 . S
C1966 C1958 1.574 . S
C1966 H1961 0.949 . S
C1966 C1972 1.368 . S
C1967 C1951 1.349 . S
C1967 H1959 0.950 . S
C1967 C1965 1.327 . S
C1968 C1956 1.349 . S
C1968 H1962 0.950 . S
C1968 C1969 1.327 . S
C1969 H1963 0.950 . S
C1969 C1968 1.327 . S
C1969 C1973 1.429 . S
C1970 C1953 1.574 . S
C1970 H1964 0.949 . S
C1970 C1974 1.368 . S
C1971 C1952 1.429 . S
C1971 C1965 1.429 . S
C1971 C1972 1.523 . S
C1972 C1953 1.368 . S
C1972 C1966 1.368 . S
C1972 C1971 1.523 . S
C1973 C1957 1.429 . S
C1973 C1969 1.429 . S
C1973 C1974 1.523 . S
C1974 C1958 1.368 . S
C1974 C1970 1.368 . S
C1974 C1973 1.523 . S
H1975 C1950 0.950 . S
H1976 C1952 0.950 . S
H1977 C1953 0.949 . S
H1978 C1955 0.950 . S
H1979 C1957 0.950 . S
C1980 C1981 1.349 . S
C1980 C1982 1.327 . S
C1980 H2005 0.950 . S
C1981 C1980 1.349 . S
C1981 C1997 1.349 . S
C1982 C1980 1.327 . S
C1982 C2001 1.429 . S
C1982 H2006 0.950 . S
C1983 C2000 1.574 . S
C1983 C2002 1.368 . S
C1983 H2007 0.949 . S
H1984 C1988 0.949 . S
C1985 C1986 1.349 . S
C1985 C1987 1.327 . S
C1985 H2008 0.950 . S
C1986 C1985 1.349 . S
C1986 C1998 1.349 . S
C1987 C1985 1.327 . S
C1987 C2003 1.429 . S
C1987 H2009 0.950 . S
C1988 H1984 0.949 . S
C1988 C1996 1.574 . S
C1988 C2004 1.368 . S
H1989 C1997 0.950 . S
H1990 C1995 0.950 . S
H1991 C1996 0.949 . S
H1992 C1998 0.950 . S
H1993 C1999 0.950 . S
H1994 C2000 0.949 . S
C1995 H1990 0.950 . S
C1995 C1997 1.327 . S
C1995 C2001 1.429 . S
C1996 C1988 1.574 . S
C1996 H1991 0.949 . S
C1996 C2002 1.368 . S
C1997 C1981 1.349 . S
C1997 H1989 0.950 . S
C1997 C1995 1.327 . S
C1998 C1986 1.349 . S
C1998 H1992 0.950 . S
C1998 C1999 1.327 . S
C1999 H1993 0.950 . S
C1999 C1998 1.327 . S
C1999 C2003 1.429 . S
C2000 C1983 1.574 . S
C2000 H1994 0.949 . S
C2000 C2004 1.368 . S
C2001 C1982 1.429 . S
C2001 C1995 1.429 . S
C2001 C2002 1.523 . S
C2002 C1983 1.368 . S
C2002 C1996 1.368 . S
C2002 C2001 1.523 . S
C2003 C1987 1.429 . S
C2003 C1999 1.429 . S
C2003 C2004 1.523 . S
C2004 C1988 1.368 . S
C2004 C2000 1.368 . S
C2004 C2003 1.523 . S
H2005 C1980 0.950 . S
H2006 C1982 0.950 . S
H2007 C1983 0.949 . S
H2008 C1985 0.950 . S
H2009 C1987 0.950 . S
C2010 C2011 1.349 . S
C2010 C2012 1.327 . S
C2010 H2035 0.950 . S
C2011 C2010 1.349 . S
C2011 C2027 1.349 . S
C2012 C2010 1.327 . S
C2012 C2031 1.429 . S
C2012 H2036 0.950 . S
C2013 C2030 1.574 . S
C2013 C2032 1.368 . S
C2013 H2037 0.949 . S
H2014 C2018 0.949 . S
C2015 C2016 1.349 . S
C2015 C2017 1.327 . S
C2015 H2038 0.950 . S
C2016 C2015 1.349 . S
C2016 C2028 1.349 . S
C2017 C2015 1.327 . S
C2017 C2033 1.429 . S
C2017 H2039 0.950 . S
C2018 H2014 0.949 . S
C2018 C2026 1.574 . S
C2018 C2034 1.368 . S
H2019 C2027 0.950 . S
H2020 C2025 0.950 . S
H2021 C2026 0.949 . S
H2022 C2028 0.950 . S
H2023 C2029 0.950 . S
H2024 C2030 0.949 . S
C2025 H2020 0.950 . S
C2025 C2027 1.327 . S
C2025 C2031 1.429 . S
C2026 C2018 1.574 . S
C2026 H2021 0.949 . S
C2026 C2032 1.368 . S
C2027 C2011 1.349 . S
C2027 H2019 0.950 . S
C2027 C2025 1.327 . S
C2028 C2016 1.349 . S
C2028 H2022 0.950 . S
C2028 C2029 1.327 . S
C2029 H2023 0.950 . S
C2029 C2028 1.327 . S
C2029 C2033 1.429 . S
C2030 C2013 1.574 . S
C2030 H2024 0.949 . S
C2030 C2034 1.368 . S
C2031 C2012 1.429 . S
C2031 C2025 1.429 . S
C2031 C2032 1.523 . S
C2032 C2013 1.368 . S
C2032 C2026 1.368 . S
C2032 C2031 1.523 . S
C2033 C2017 1.429 . S
C2033 C2029 1.429 . S
C2033 C2034 1.523 . S
C2034 C2018 1.368 . S
C2034 C2030 1.368 . S
C2034 C2033 1.523 . S
H2035 C2010 0.950 . S
H2036 C2012 0.950 . S
H2037 C2013 0.949 . S
H2038 C2015 0.950 . S
H2039 C2017 0.950 . S
C2040 C2041 1.349 . S
C2040 C2042 1.327 . S
C2040 H2065 0.950 . S
C2041 C2040 1.349 . S
C2041 C2057 1.349 . S
C2042 C2040 1.327 . S
C2042 C2061 1.429 . S
C2042 H2066 0.950 . S
C2043 C2060 1.574 . S
C2043 C2062 1.368 . S
C2043 H2067 0.949 . S
H2044 C2048 0.949 . S
C2045 C2046 1.349 . S
C2045 C2047 1.327 . S
C2045 H2068 0.950 . S
C2046 C2045 1.349 . S
C2046 C2058 1.349 . S
C2047 C2045 1.327 . S
C2047 C2063 1.429 . S
C2047 H2069 0.950 . S
C2048 H2044 0.949 . S
C2048 C2056 1.574 . S
C2048 C2064 1.368 . S
H2049 C2057 0.950 . S
H2050 C2055 0.950 . S
H2051 C2056 0.949 . S
H2052 C2058 0.950 . S
H2053 C2059 0.950 . S
H2054 C2060 0.949 . S
C2055 H2050 0.950 . S
C2055 C2057 1.327 . S
C2055 C2061 1.429 . S
C2056 C2048 1.574 . S
C2056 H2051 0.949 . S
C2056 C2062 1.368 . S
C2057 C2041 1.349 . S
C2057 H2049 0.950 . S
C2057 C2055 1.327 . S
C2058 C2046 1.349 . S
C2058 H2052 0.950 . S
C2058 C2059 1.327 . S
C2059 H2053 0.950 . S
C2059 C2058 1.327 . S
C2059 C2063 1.429 . S
C2060 C2043 1.574 . S
C2060 H2054 0.949 . S
C2060 C2064 1.368 . S
C2061 C2042 1.429 . S
C2061 C2055 1.429 . S
C2061 C2062 1.523 . S
C2062 C2043 1.368 . S
C2062 C2056 1.368 . S
C2062 C2061 1.523 . S
C2063 C2047 1.429 . S
C2063 C2059 1.429 . S
C2063 C2064 1.523 . S
C2064 C2048 1.368 . S
C2064 C2060 1.368 . S
C2064 C2063 1.523 . S
H2065 C2040 0.950 . S
H2066 C2042 0.950 . S
H2067 C2043 0.949 . S
H2068 C2045 0.950 . S
H2069 C2047 0.950 . S
C2070 C2071 1.349 . S
C2070 C2072 1.327 . S
C2070 H2095 0.950 . S
C2071 C2070 1.349 . S
C2071 C2087 1.349 . S
C2072 C2070 1.327 . S
C2072 C2091 1.429 . S
C2072 H2096 0.950 . S
C2073 C2090 1.574 . S
C2073 C2092 1.368 . S
C2073 H2097 0.949 . S
H2074 C2078 0.949 . S
C2075 C2076 1.349 . S
C2075 C2077 1.327 . S
C2075 H2098 0.950 . S
C2076 C2075 1.349 . S
C2076 C2088 1.349 . S
C2077 C2075 1.327 . S
C2077 C2093 1.429 . S
C2077 H2099 0.950 . S
C2078 H2074 0.949 . S
C2078 C2086 1.574 . S
C2078 C2094 1.368 . S
H2079 C2087 0.950 . S
H2080 C2085 0.950 . S
H2081 C2086 0.949 . S
H2082 C2088 0.950 . S
H2083 C2089 0.950 . S
H2084 C2090 0.949 . S
C2085 H2080 0.950 . S
C2085 C2087 1.327 . S
C2085 C2091 1.429 . S
C2086 C2078 1.574 . S
C2086 H2081 0.949 . S
C2086 C2092 1.368 . S
C2087 C2071 1.349 . S
C2087 H2079 0.950 . S
C2087 C2085 1.327 . S
C2088 C2076 1.349 . S
C2088 H2082 0.950 . S
C2088 C2089 1.327 . S
C2089 H2083 0.950 . S
C2089 C2088 1.327 . S
C2089 C2093 1.429 . S
C2090 C2073 1.574 . S
C2090 H2084 0.949 . S
C2090 C2094 1.368 . S
C2091 C2072 1.429 . S
C2091 C2085 1.429 . S
C2091 C2092 1.523 . S
C2092 C2073 1.368 . S
C2092 C2086 1.368 . S
C2092 C2091 1.523 . S
C2093 C2077 1.429 . S
C2093 C2089 1.429 . S
C2093 C2094 1.523 . S
C2094 C2078 1.368 . S
C2094 C2090 1.368 . S
C2094 C2093 1.523 . S
H2095 C2070 0.950 . S
H2096 C2072 0.950 . S
H2097 C2073 0.949 . S
H2098 C2075 0.950 . S
H2099 C2077 0.950 . S
C2100 C2101 1.349 . S
C2100 C2102 1.327 . S
C2100 H2125 0.950 . S
C2101 C2100 1.349 . S
C2101 C2117 1.349 . S
C2102 C2100 1.327 . S
C2102 C2121 1.429 . S
C2102 H2126 0.950 . S
C2103 C2120 1.574 . S
C2103 C2122 1.368 . S
C2103 H2127 0.949 . S
H2104 C2108 0.949 . S
C2105 C2106 1.349 . S
C2105 C2107 1.327 . S
C2105 H2128 0.950 . S
C2106 C2105 1.349 . S
C2106 C2118 1.349 . S
C2107 C2105 1.327 . S
C2107 C2123 1.429 . S
C2107 H2129 0.950 . S
C2108 H2104 0.949 . S
C2108 C2116 1.574 . S
C2108 C2124 1.368 . S
H2109 C2117 0.950 . S
H2110 C2115 0.950 . S
H2111 C2116 0.949 . S
H2112 C2118 0.950 . S
H2113 C2119 0.950 . S
H2114 C2120 0.949 . S
C2115 H2110 0.950 . S
C2115 C2117 1.327 . S
C2115 C2121 1.429 . S
C2116 C2108 1.574 . S
C2116 H2111 0.949 . S
C2116 C2122 1.368 . S
C2117 C2101 1.349 . S
C2117 H2109 0.950 . S
C2117 C2115 1.327 . S
C2118 C2106 1.349 . S
C2118 H2112 0.950 . S
C2118 C2119 1.327 . S
C2119 H2113 0.950 . S
C2119 C2118 1.327 . S
C2119 C2123 1.429 . S
C2120 C2103 1.574 . S
C2120 H2114 0.949 . S
C2120 C2124 1.368 . S
C2121 C2102 1.429 . S
C2121 C2115 1.429 . S
C2121 C2122 1.523 . S
C2122 C2103 1.368 . S
C2122 C2116 1.368 . S
C2122 C2121 1.523 . S
C2123 C2107 1.429 . S
C2123 C2119 1.429 . S
C2123 C2124 1.523 . S
C2124 C2108 1.368 . S
C2124 C2120 1.368 . S
C2124 C2123 1.523 . S
H2125 C2100 0.950 . S
H2126 C2102 0.950 . S
H2127 C2103 0.949 . S
H2128 C2105 0.950 . S
H2129 C2107 0.950 . S
C2130 C2131 1.349 . S
C2130 C2132 1.327 . S
C2130 H2155 0.950 . S
C2131 C2130 1.349 . S
C2131 C2147 1.349 . S
C2132 C2130 1.327 . S
C2132 C2151 1.429 . S
C2132 H2156 0.950 . S
C2133 C2150 1.574 . S
C2133 C2152 1.368 . S
C2133 H2157 0.949 . S
H2134 C2138 0.949 . S
C2135 C2136 1.349 . S
C2135 C2137 1.327 . S
C2135 H2158 0.950 . S
C2136 C2135 1.349 . S
C2136 C2148 1.349 . S
C2137 C2135 1.327 . S
C2137 C2153 1.429 . S
C2137 H2159 0.950 . S
C2138 H2134 0.949 . S
C2138 C2146 1.574 . S
C2138 C2154 1.368 . S
H2139 C2147 0.950 . S
H2140 C2145 0.950 . S
H2141 C2146 0.949 . S
H2142 C2148 0.950 . S
H2143 C2149 0.950 . S
H2144 C2150 0.949 . S
C2145 H2140 0.950 . S
C2145 C2147 1.327 . S
C2145 C2151 1.429 . S
C2146 C2138 1.574 . S
C2146 H2141 0.949 . S
C2146 C2152 1.368 . S
C2147 C2131 1.349 . S
C2147 H2139 0.950 . S
C2147 C2145 1.327 . S
C2148 C2136 1.349 . S
C2148 H2142 0.950 . S
C2148 C2149 1.327 . S
C2149 H2143 0.950 . S
C2149 C2148 1.327 . S
C2149 C2153 1.429 . S
C2150 C2133 1.574 . S
C2150 H2144 0.949 . S
C2150 C2154 1.368 . S
C2151 C2132 1.429 . S
C2151 C2145 1.429 . S
C2151 C2152 1.523 . S
C2152 C2133 1.368 . S
C2152 C2146 1.368 . S
C2152 C2151 1.523 . S
C2153 C2137 1.429 . S
C2153 C2149 1.429 . S
C2153 C2154 1.523 . S
C2154 C2138 1.368 . S
C2154 C2150 1.368 . S
C2154 C2153 1.523 . S
H2155 C2130 0.950 . S
H2156 C2132 0.950 . S
H2157 C2133 0.949 . S
H2158 C2135 0.950 . S
H2159 C2137 0.950 . S
C2160 C2161 1.349 . S
C2160 C2162 1.327 . S
C2160 H2185 0.950 . S
C2161 C2160 1.349 . S
C2161 C2177 1.349 . S
C2162 C2160 1.327 . S
C2162 C2181 1.429 . S
C2162 H2186 0.950 . S
C2163 C2180 1.574 . S
C2163 C2182 1.368 . S
C2163 H2187 0.949 . S
H2164 C2168 0.949 . S
C2165 C2166 1.349 . S
C2165 C2167 1.327 . S
C2165 H2188 0.950 . S
C2166 C2165 1.349 . S
C2166 C2178 1.349 . S
C2167 C2165 1.327 . S
C2167 C2183 1.429 . S
C2167 H2189 0.950 . S
C2168 H2164 0.949 . S
C2168 C2176 1.574 . S
C2168 C2184 1.368 . S
H2169 C2177 0.950 . S
H2170 C2175 0.950 . S
H2171 C2176 0.949 . S
H2172 C2178 0.950 . S
H2173 C2179 0.950 . S
H2174 C2180 0.949 . S
C2175 H2170 0.950 . S
C2175 C2177 1.327 . S
C2175 C2181 1.429 . S
C2176 C2168 1.574 . S
C2176 H2171 0.949 . S
C2176 C2182 1.368 . S
C2177 C2161 1.349 . S
C2177 H2169 0.950 . S
C2177 C2175 1.327 . S
C2178 C2166 1.349 . S
C2178 H2172 0.950 . S
C2178 C2179 1.327 . S
C2179 H2173 0.950 . S
C2179 C2178 1.327 . S
C2179 C2183 1.429 . S
C2180 C2163 1.574 . S
C2180 H2174 0.949 . S
C2180 C2184 1.368 . S
C2181 C2162 1.429 . S
C2181 C2175 1.429 . S
C2181 C2182 1.523 . S
C2182 C2163 1.368 . S
C2182 C2176 1.368 . S
C2182 C2181 1.523 . S
C2183 C2167 1.429 . S
C2183 C2179 1.429 . S
C2183 C2184 1.523 . S
C2184 C2168 1.368 . S
C2184 C2180 1.368 . S
C2184 C2183 1.523 . S
H2185 C2160 0.950 . S
H2186 C2162 0.950 . S
H2187 C2163 0.949 . S
H2188 C2165 0.950 . S
H2189 C2167 0.950 . S
C2190 C2191 1.349 . S
C2190 C2192 1.327 . S
C2190 H2215 0.950 . S
C2191 C2190 1.349 . S
C2191 C2207 1.349 . S
C2192 C2190 1.327 . S
C2192 C2211 1.429 . S
C2192 H2216 0.950 . S
C2193 C2210 1.574 . S
C2193 C2212 1.368 . S
C2193 H2217 0.949 . S
H2194 C2198 0.949 . S
C2195 C2196 1.349 . S
C2195 C2197 1.327 . S
C2195 H2218 0.950 . S
C2196 C2195 1.349 . S
C2196 C2208 1.349 . S
C2197 C2195 1.327 . S
C2197 C2213 1.429 . S
C2197 H2219 0.950 . S
C2198 H2194 0.949 . S
C2198 C2206 1.574 . S
C2198 C2214 1.368 . S
H2199 C2207 0.950 . S
H2200 C2205 0.950 . S
H2201 C2206 0.949 . S
H2202 C2208 0.950 . S
H2203 C2209 0.950 . S
H2204 C2210 0.949 . S
C2205 H2200 0.950 . S
C2205 C2207 1.327 . S
C2205 C2211 1.429 . S
C2206 C2198 1.574 . S
C2206 H2201 0.949 . S
C2206 C2212 1.368 . S
C2207 C2191 1.349 . S
C2207 H2199 0.950 . S
C2207 C2205 1.327 . S
C2208 C2196 1.349 . S
C2208 H2202 0.950 . S
C2208 C2209 1.327 . S
C2209 H2203 0.950 . S
C2209 C2208 1.327 . S
C2209 C2213 1.429 . S
C2210 C2193 1.574 . S
C2210 H2204 0.949 . S
C2210 C2214 1.368 . S
C2211 C2192 1.429 . S
C2211 C2205 1.429 . S
C2211 C2212 1.523 . S
C2212 C2193 1.368 . S
C2212 C2206 1.368 . S
C2212 C2211 1.523 . S
C2213 C2197 1.429 . S
C2213 C2209 1.429 . S
C2213 C2214 1.523 . S
C2214 C2198 1.368 . S
C2214 C2210 1.368 . S
C2214 C2213 1.523 . S
H2215 C2190 0.950 . S
H2216 C2192 0.950 . S
H2217 C2193 0.949 . S
H2218 C2195 0.950 . S
H2219 C2197 0.950 . S
C2220 C2221 1.349 . S
C2220 C2222 1.327 . S
C2220 H2245 0.950 . S
C2221 C2220 1.349 . S
C2221 C2237 1.349 . S
C2222 C2220 1.327 . S
C2222 C2241 1.429 . S
C2222 H2246 0.950 . S
C2223 C2240 1.574 . S
C2223 C2242 1.368 . S
C2223 H2247 0.949 . S
H2224 C2228 0.949 . S
C2225 C2226 1.349 . S
C2225 C2227 1.327 . S
C2225 H2248 0.950 . S
C2226 C2225 1.349 . S
C2226 C2238 1.349 . S
C2227 C2225 1.327 . S
C2227 C2243 1.429 . S
C2227 H2249 0.950 . S
C2228 H2224 0.949 . S
C2228 C2236 1.574 . S
C2228 C2244 1.368 . S
H2229 C2237 0.950 . S
H2230 C2235 0.950 . S
H2231 C2236 0.949 . S
H2232 C2238 0.950 . S
H2233 C2239 0.950 . S
H2234 C2240 0.949 . S
C2235 H2230 0.950 . S
C2235 C2237 1.327 . S
C2235 C2241 1.429 . S
C2236 C2228 1.574 . S
C2236 H2231 0.949 . S
C2236 C2242 1.368 . S
C2237 C2221 1.349 . S
C2237 H2229 0.950 . S
C2237 C2235 1.327 . S
C2238 C2226 1.349 . S
C2238 H2232 0.950 . S
C2238 C2239 1.327 . S
C2239 H2233 0.950 . S
C2239 C2238 1.327 . S
C2239 C2243 1.429 . S
C2240 C2223 1.574 . S
C2240 H2234 0.949 . S
C2240 C2244 1.368 . S
C2241 C2222 1.429 . S
C2241 C2235 1.429 . S
C2241 C2242 1.523 . S
C2242 C2223 1.368 . S
C2242 C2236 1.368 . S
C2242 C2241 1.523 . S
C2243 C2227 1.429 . S
C2243 C2239 1.429 . S
C2243 C2244 1.523 . S
C2244 C2228 1.368 . S
C2244 C2240 1.368 . S
C2244 C2243 1.523 . S
H2245 C2220 0.950 . S
H2246 C2222 0.950 . S
H2247 C2223 0.949 . S
H2248 C2225 0.950 . S
H2249 C2227 0.950 . S
C2250 C2251 1.349 . S
C2250 C2252 1.327 . S
C2250 H2275 0.950 . S
C2251 C2250 1.349 . S
C2251 C2267 1.349 . S
C2252 C2250 1.327 . S
C2252 C2271 1.429 . S
C2252 H2276 0.950 . S
C2253 C2270 1.574 . S
C2253 C2272 1.368 . S
C2253 H2277 0.949 . S
H2254 C2258 0.949 . S
C2255 C2256 1.349 . S
C2255 C2257 1.327 . S
C2255 H2278 0.950 . S
C2256 C2255 1.349 . S
C2256 C2268 1.349 . S
C2257 C2255 1.327 . S
C2257 C2273 1.429 . S
C2257 H2279 0.950 . S
C2258 H2254 0.949 . S
C2258 C2266 1.574 . S
C2258 C2274 1.368 . S
H2259 C2267 0.950 . S
H2260 C2265 0.950 . S
H2261 C2266 0.949 . S
H2262 C2268 0.950 . S
H2263 C2269 0.950 . S
H2264 C2270 0.949 . S
C2265 H2260 0.950 . S
C2265 C2267 1.327 . S
C2265 C2271 1.429 . S
C2266 C2258 1.574 . S
C2266 H2261 0.949 . S
C2266 C2272 1.368 . S
C2267 C2251 1.349 . S
C2267 H2259 0.950 . S
C2267 C2265 1.327 . S
C2268 C2256 1.349 . S
C2268 H2262 0.950 . S
C2268 C2269 1.327 . S
C2269 H2263 0.950 . S
C2269 C2268 1.327 . S
C2269 C2273 1.429 . S
C2270 C2253 1.574 . S
C2270 H2264 0.949 . S
C2270 C2274 1.368 . S
C2271 C2252 1.429 . S
C2271 C2265 1.429 . S
C2271 C2272 1.523 . S
C2272 C2253 1.368 . S
C2272 C2266 1.368 . S
C2272 C2271 1.523 . S
C2273 C2257 1.429 . S
C2273 C2269 1.429 . S
C2273 C2274 1.523 . S
C2274 C2258 1.368 . S
C2274 C2270 1.368 . S
C2274 C2273 1.523 . S
H2275 C2250 0.950 . S
H2276 C2252 0.950 . S
H2277 C2253 0.949 . S
H2278 C2255 0.950 . S
H2279 C2257 0.950 . S
C2280 C2281 1.349 . S
C2280 C2282 1.327 . S
C2280 H2305 0.950 . S
C2281 C2280 1.349 . S
C2281 C2297 1.349 . S
C2282 C2280 1.327 . S
C2282 C2301 1.429 . S
C2282 H2306 0.950 . S
C2283 C2300 1.574 . S
C2283 C2302 1.368 . S
C2283 H2307 0.949 . S
H2284 C2288 0.949 . S
C2285 C2286 1.349 . S
C2285 C2287 1.327 . S
C2285 H2308 0.950 . S
C2286 C2285 1.349 . S
C2286 C2298 1.349 . S
C2287 C2285 1.327 . S
C2287 C2303 1.429 . S
C2287 H2309 0.950 . S
C2288 H2284 0.949 . S
C2288 C2296 1.574 . S
C2288 C2304 1.368 . S
H2289 C2297 0.950 . S
H2290 C2295 0.950 . S
H2291 C2296 0.949 . S
H2292 C2298 0.950 . S
H2293 C2299 0.950 . S
H2294 C2300 0.949 . S
C2295 H2290 0.950 . S
C2295 C2297 1.327 . S
C2295 C2301 1.429 . S
C2296 C2288 1.574 . S
C2296 H2291 0.949 . S
C2296 C2302 1.368 . S
C2297 C2281 1.349 . S
C2297 H2289 0.950 . S
C2297 C2295 1.327 . S
C2298 C2286 1.349 . S
C2298 H2292 0.950 . S
C2298 C2299 1.327 . S
C2299 H2293 0.950 . S
C2299 C2298 1.327 . S
C2299 C2303 1.429 . S
C2300 C2283 1.574 . S
C2300 H2294 0.949 . S
C2300 C2304 1.368 . S
C2301 C2282 1.429 . S
C2301 C2295 1.429 . S
C2301 C2302 1.523 . S
C2302 C2283 1.368 . S
C2302 C2296 1.368 . S
C2302 C2301 1.523 . S
C2303 C2287 1.429 . S
C2303 C2299 1.429 . S
C2303 C2304 1.523 . S
C2304 C2288 1.368 . S
C2304 C2300 1.368 . S
C2304 C2303 1.523 . S
H2305 C2280 0.950 . S
H2306 C2282 0.950 . S
H2307 C2283 0.949 . S
H2308 C2285 0.950 . S
H2309 C2287 0.950 . S
C876 C699 1.175 . S
C871 C74 1.197 . S
C906 C700 0.455 . S
C901 C142 0.723 . S
C936 C694 1.110 . S
C931 C231 1.082 . S
C961 C322 1.166 . S
C966 C693 1.265 . S
C991 C406 0.723 . S
C996 C696 0.455 . S
C1026 C698 1.110 . S
C1021 C494 1.082 . S
C1051 C562 1.166 . S
C1056 C697 1.265 . S
C1081 C651 1.197 . S
C1086 C695 1.175 . S
C1116 C730 1.691 . S
C1111 C58 1.545 . S
C1141 C151 1.539 . S
C1146 C761 1.514 . S
C1176 C729 2.521 . S
C1171 C224 2.430 . S
C1206 C764 1.075 . S
C1201 C315 1.043 . S
C1231 C399 1.371 . S
C1236 C727 1.410 . S
C1266 C759 1.650 . S
C1261 C478 1.513 . S
C1291 C571 1.145 . S
C1296 C732 1.174 . S
C1321 C644 2.475 . S
C1326 C766 2.535 . S
C1351 C67 2.475 . S
C1356 C762 2.534 . S
C1381 C392 1.539 . S
C1386 C765 1.515 . S
C1416 C733 2.521 . S
C1411 C487 2.431 . S
C1446 C760 1.075 . S
C1441 C578 1.045 . S
C1471 C658 1.545 . S
C1476 C726 1.691 . S
C1501 C238 1.513 . S
C1506 C763 1.650 . S
C1536 C728 1.174 . S
C1531 C308 1.144 . S
C1561 C158 1.371 . S
C1566 C731 1.409 . S
C1591 C662 1.142 . S
C1596 C798 1.114 . S
C1621 C394 0.930 . S
C1626 C799 0.501 . S
C1656 C793 1.277 . S
C1651 C483 1.251 . S
C1686 C792 1.725 . S
C1681 C574 1.535 . S
C1711 C154 0.930 . S
C1716 C795 0.503 . S
C1746 C797 1.277 . S
C1741 C242 1.250 . S
C1771 C310 1.535 . S
C1776 C796 1.724 . S
C1801 C63 1.142 . S
C1806 C794 1.113 . S
C1831 C646 1.613 . S
C1836 C832 1.718 . S
C1866 C864 1.101 . S
C1861 C403 1.109 . S
C1891 C476 2.322 . S
C1896 C825 2.455 . S
C1921 C567 1.382 . S
C1926 C859 1.445 . S
C1956 C830 1.152 . S
C1951 C147 1.074 . S
C1981 C226 1.704 . S
C1986 C861 1.776 . S
C2016 C827 1.433 . S
C2011 C319 1.458 . S
C2046 C862 2.463 . S
C2041 C56 2.271 . S
C2076 C858 2.463 . S
C2071 C655 2.271 . S
C2101 C140 1.109 . S
C2106 C860 1.101 . S
C2131 C235 2.322 . S
C2136 C829 2.455 . S
C2166 C863 1.445 . S
C2161 C326 1.382 . S
C2191 C70 1.613 . S
C2196 C828 1.718 . S
C2221 C490 1.704 . S
C2226 C865 1.776 . S
C2256 C831 1.433 . S
C2251 C560 1.458 . S
C2286 C826 1.152 . S
C2281 C410 1.074 . S
