# Generated by pormake.
# Topology gar, (4,6)-cn, num edge types: 1
# Building blocks:
#     Node 0, Type 0, BuildingBlock: TATPOV_clean_sbu_0, # of connection points: 4
#     Node 1, Type 0, BuildingBlock: TATPOV_clean_sbu_0, # of connection points: 4
#     Node 2, Type 0, BuildingBlock: TATPOV_clean_sbu_0, # of connection points: 4
#     Node 3, Type 0, BuildingBlock: TATPOV_clean_sbu_0, # of connection points: 4
#     Node 4, Type 0, BuildingBlock: TATPOV_clean_sbu_0, # of connection points: 4
#     Node 5, Type 0, BuildingBlock: TATPOV_clean_sbu_0, # of connection points: 4
#     Node 6, Type 0, BuildingBlock: TATPOV_clean_sbu_0, # of connection points: 4
#     Node 7, Type 0, BuildingBlock: TATPOV_clean_sbu_0, # of connection points: 4
#     Node 8, Type 0, BuildingBlock: TATPOV_clean_sbu_0, # of connection points: 4
#     Node 9, Type 0, BuildingBlock: TATPOV_clean_sbu_0, # of connection points: 4
#     Node 10, Type 0, BuildingBlock: TATPOV_clean_sbu_0, # of connection points: 4
#     Node 11, Type 0, BuildingBlock: TATPOV_clean_sbu_0, # of connection points: 4
#     Node 12, Type 0, BuildingBlock: TATPOV_clean_sbu_0, # of connection points: 4
#     Node 13, Type 0, BuildingBlock: TATPOV_clean_sbu_0, # of connection points: 4
#     Node 14, Type 0, BuildingBlock: TATPOV_clean_sbu_0, # of connection points: 4
#     Node 15, Type 0, BuildingBlock: TATPOV_clean_sbu_0, # of connection points: 4
#     Node 16, Type 0, BuildingBlock: TATPOV_clean_sbu_0, # of connection points: 4
#     Node 17, Type 0, BuildingBlock: TATPOV_clean_sbu_0, # of connection points: 4
#     Node 18, Type 0, BuildingBlock: TATPOV_clean_sbu_0, # of connection points: 4
#     Node 19, Type 0, BuildingBlock: TATPOV_clean_sbu_0, # of connection points: 4
#     Node 20, Type 0, BuildingBlock: TATPOV_clean_sbu_0, # of connection points: 4
#     Node 21, Type 0, BuildingBlock: TATPOV_clean_sbu_0, # of connection points: 4
#     Node 22, Type 0, BuildingBlock: TATPOV_clean_sbu_0, # of connection points: 4
#     Node 23, Type 0, BuildingBlock: TATPOV_clean_sbu_0, # of connection points: 4
#     Node 24, Type 1, BuildingBlock: BETDEL_clean_sbu_0, # of connection points: 6
#     Node 25, Type 1, BuildingBlock: BETDEL_clean_sbu_0, # of connection points: 6
#     Node 26, Type 1, BuildingBlock: BETDEL_clean_sbu_0, # of connection points: 6
#     Node 27, Type 1, BuildingBlock: BETDEL_clean_sbu_0, # of connection points: 6
#     Node 28, Type 1, BuildingBlock: BETDEL_clean_sbu_0, # of connection points: 6
#     Node 29, Type 1, BuildingBlock: BETDEL_clean_sbu_0, # of connection points: 6
#     Node 30, Type 1, BuildingBlock: BETDEL_clean_sbu_0, # of connection points: 6
#     Node 31, Type 1, BuildingBlock: BETDEL_clean_sbu_0, # of connection points: 6
#     Node 32, Type 1, BuildingBlock: BETDEL_clean_sbu_0, # of connection points: 6
#     Node 33, Type 1, BuildingBlock: BETDEL_clean_sbu_0, # of connection points: 6
#     Node 34, Type 1, BuildingBlock: BETDEL_clean_sbu_0, # of connection points: 6
#     Node 35, Type 1, BuildingBlock: BETDEL_clean_sbu_0, # of connection points: 6
#     Node 36, Type 1, BuildingBlock: BETDEL_clean_sbu_0, # of connection points: 6
#     Node 37, Type 1, BuildingBlock: BETDEL_clean_sbu_0, # of connection points: 6
#     Node 38, Type 1, BuildingBlock: BETDEL_clean_sbu_0, # of connection points: 6
#     Node 39, Type 1, BuildingBlock: BETDEL_clean_sbu_0, # of connection points: 6
#     Edge 40, Type (0, 1), BuildingBlock: XIVTED_clean_linker_0, # of connection points: 2
#     Edge 41, Type (0, 1), BuildingBlock: XIVTED_clean_linker_0, # of connection points: 2
#     Edge 42, Type (0, 1), BuildingBlock: XIVTED_clean_linker_0, # of connection points: 2
#     Edge 43, Type (0, 1), BuildingBlock: XIVTED_clean_linker_0, # of connection points: 2
#     Edge 44, Type (0, 1), BuildingBlock: XIVTED_clean_linker_0, # of connection points: 2
#     Edge 45, Type (0, 1), BuildingBlock: XIVTED_clean_linker_0, # of connection points: 2
#     Edge 46, Type (0, 1), BuildingBlock: XIVTED_clean_linker_0, # of connection points: 2
#     Edge 47, Type (0, 1), BuildingBlock: XIVTED_clean_linker_0, # of connection points: 2
#     Edge 48, Type (0, 1), BuildingBlock: XIVTED_clean_linker_0, # of connection points: 2
#     Edge 49, Type (0, 1), BuildingBlock: XIVTED_clean_linker_0, # of connection points: 2
#     Edge 50, Type (0, 1), BuildingBlock: XIVTED_clean_linker_0, # of connection points: 2
#     Edge 51, Type (0, 1), BuildingBlock: XIVTED_clean_linker_0, # of connection points: 2
#     Edge 52, Type (0, 1), BuildingBlock: XIVTED_clean_linker_0, # of connection points: 2
#     Edge 53, Type (0, 1), BuildingBlock: XIVTED_clean_linker_0, # of connection points: 2
#     Edge 54, Type (0, 1), BuildingBlock: XIVTED_clean_linker_0, # of connection points: 2
#     Edge 55, Type (0, 1), BuildingBlock: XIVTED_clean_linker_0, # of connection points: 2
#     Edge 56, Type (0, 1), BuildingBlock: XIVTED_clean_linker_0, # of connection points: 2
#     Edge 57, Type (0, 1), BuildingBlock: XIVTED_clean_linker_0, # of connection points: 2
#     Edge 58, Type (0, 1), BuildingBlock: XIVTED_clean_linker_0, # of connection points: 2
#     Edge 59, Type (0, 1), BuildingBlock: XIVTED_clean_linker_0, # of connection points: 2
#     Edge 60, Type (0, 1), BuildingBlock: XIVTED_clean_linker_0, # of connection points: 2
#     Edge 61, Type (0, 1), BuildingBlock: XIVTED_clean_linker_0, # of connection points: 2
#     Edge 62, Type (0, 1), BuildingBlock: XIVTED_clean_linker_0, # of connection points: 2
#     Edge 63, Type (0, 1), BuildingBlock: XIVTED_clean_linker_0, # of connection points: 2
#     Edge 64, Type (0, 1), BuildingBlock: XIVTED_clean_linker_0, # of connection points: 2
#     Edge 65, Type (0, 1), BuildingBlock: XIVTED_clean_linker_0, # of connection points: 2
#     Edge 66, Type (0, 1), BuildingBlock: XIVTED_clean_linker_0, # of connection points: 2
#     Edge 67, Type (0, 1), BuildingBlock: XIVTED_clean_linker_0, # of connection points: 2
#     Edge 68, Type (0, 1), BuildingBlock: XIVTED_clean_linker_0, # of connection points: 2
#     Edge 69, Type (0, 1), BuildingBlock: XIVTED_clean_linker_0, # of connection points: 2
#     Edge 70, Type (0, 1), BuildingBlock: XIVTED_clean_linker_0, # of connection points: 2
#     Edge 71, Type (0, 1), BuildingBlock: XIVTED_clean_linker_0, # of connection points: 2
#     Edge 72, Type (0, 1), BuildingBlock: XIVTED_clean_linker_0, # of connection points: 2
#     Edge 73, Type (0, 1), BuildingBlock: XIVTED_clean_linker_0, # of connection points: 2
#     Edge 74, Type (0, 1), BuildingBlock: XIVTED_clean_linker_0, # of connection points: 2
#     Edge 75, Type (0, 1), BuildingBlock: XIVTED_clean_linker_0, # of connection points: 2
#     Edge 76, Type (0, 1), BuildingBlock: XIVTED_clean_linker_0, # of connection points: 2
#     Edge 77, Type (0, 1), BuildingBlock: XIVTED_clean_linker_0, # of connection points: 2
#     Edge 78, Type (0, 1), BuildingBlock: XIVTED_clean_linker_0, # of connection points: 2
#     Edge 79, Type (0, 1), BuildingBlock: XIVTED_clean_linker_0, # of connection points: 2
#     Edge 80, Type (0, 1), BuildingBlock: XIVTED_clean_linker_0, # of connection points: 2
#     Edge 81, Type (0, 1), BuildingBlock: XIVTED_clean_linker_0, # of connection points: 2
#     Edge 82, Type (0, 1), BuildingBlock: XIVTED_clean_linker_0, # of connection points: 2
#     Edge 83, Type (0, 1), BuildingBlock: XIVTED_clean_linker_0, # of connection points: 2
#     Edge 84, Type (0, 1), BuildingBlock: XIVTED_clean_linker_0, # of connection points: 2
#     Edge 85, Type (0, 1), BuildingBlock: XIVTED_clean_linker_0, # of connection points: 2
#     Edge 86, Type (0, 1), BuildingBlock: XIVTED_clean_linker_0, # of connection points: 2
#     Edge 87, Type (0, 1), BuildingBlock: XIVTED_clean_linker_0, # of connection points: 2
#     Edge 88, Type (0, 1), BuildingBlock: XIVTED_clean_linker_0, # of connection points: 2
#     Edge 89, Type (0, 1), BuildingBlock: XIVTED_clean_linker_0, # of connection points: 2
#     Edge 90, Type (0, 1), BuildingBlock: XIVTED_clean_linker_0, # of connection points: 2
#     Edge 91, Type (0, 1), BuildingBlock: XIVTED_clean_linker_0, # of connection points: 2
#     Edge 92, Type (0, 1), BuildingBlock: XIVTED_clean_linker_0, # of connection points: 2
#     Edge 93, Type (0, 1), BuildingBlock: XIVTED_clean_linker_0, # of connection points: 2
#     Edge 94, Type (0, 1), BuildingBlock: XIVTED_clean_linker_0, # of connection points: 2
#     Edge 95, Type (0, 1), BuildingBlock: XIVTED_clean_linker_0, # of connection points: 2
#     Edge 96, Type (0, 1), BuildingBlock: XIVTED_clean_linker_0, # of connection points: 2
#     Edge 97, Type (0, 1), BuildingBlock: XIVTED_clean_linker_0, # of connection points: 2
#     Edge 98, Type (0, 1), BuildingBlock: XIVTED_clean_linker_0, # of connection points: 2
#     Edge 99, Type (0, 1), BuildingBlock: XIVTED_clean_linker_0, # of connection points: 2
#     Edge 100, Type (0, 1), BuildingBlock: XIVTED_clean_linker_0, # of connection points: 2
#     Edge 101, Type (0, 1), BuildingBlock: XIVTED_clean_linker_0, # of connection points: 2
#     Edge 102, Type (0, 1), BuildingBlock: XIVTED_clean_linker_0, # of connection points: 2
#     Edge 103, Type (0, 1), BuildingBlock: XIVTED_clean_linker_0, # of connection points: 2
#     Edge 104, Type (0, 1), BuildingBlock: XIVTED_clean_linker_0, # of connection points: 2
#     Edge 105, Type (0, 1), BuildingBlock: XIVTED_clean_linker_0, # of connection points: 2
#     Edge 106, Type (0, 1), BuildingBlock: XIVTED_clean_linker_0, # of connection points: 2
#     Edge 107, Type (0, 1), BuildingBlock: XIVTED_clean_linker_0, # of connection points: 2
#     Edge 108, Type (0, 1), BuildingBlock: XIVTED_clean_linker_0, # of connection points: 2
#     Edge 109, Type (0, 1), BuildingBlock: XIVTED_clean_linker_0, # of connection points: 2
#     Edge 110, Type (0, 1), BuildingBlock: XIVTED_clean_linker_0, # of connection points: 2
#     Edge 111, Type (0, 1), BuildingBlock: XIVTED_clean_linker_0, # of connection points: 2
#     Edge 112, Type (0, 1), BuildingBlock: XIVTED_clean_linker_0, # of connection points: 2
#     Edge 113, Type (0, 1), BuildingBlock: XIVTED_clean_linker_0, # of connection points: 2
#     Edge 114, Type (0, 1), BuildingBlock: XIVTED_clean_linker_0, # of connection points: 2
#     Edge 115, Type (0, 1), BuildingBlock: XIVTED_clean_linker_0, # of connection points: 2
#     Edge 116, Type (0, 1), BuildingBlock: XIVTED_clean_linker_0, # of connection points: 2
#     Edge 117, Type (0, 1), BuildingBlock: XIVTED_clean_linker_0, # of connection points: 2
#     Edge 118, Type (0, 1), BuildingBlock: XIVTED_clean_linker_0, # of connection points: 2
#     Edge 119, Type (0, 1), BuildingBlock: XIVTED_clean_linker_0, # of connection points: 2
#     Edge 120, Type (0, 1), BuildingBlock: XIVTED_clean_linker_0, # of connection points: 2
#     Edge 121, Type (0, 1), BuildingBlock: XIVTED_clean_linker_0, # of connection points: 2
#     Edge 122, Type (0, 1), BuildingBlock: XIVTED_clean_linker_0, # of connection points: 2
#     Edge 123, Type (0, 1), BuildingBlock: XIVTED_clean_linker_0, # of connection points: 2
#     Edge 124, Type (0, 1), BuildingBlock: XIVTED_clean_linker_0, # of connection points: 2
#     Edge 125, Type (0, 1), BuildingBlock: XIVTED_clean_linker_0, # of connection points: 2
#     Edge 126, Type (0, 1), BuildingBlock: XIVTED_clean_linker_0, # of connection points: 2
#     Edge 127, Type (0, 1), BuildingBlock: XIVTED_clean_linker_0, # of connection points: 2
#     Edge 128, Type (0, 1), BuildingBlock: XIVTED_clean_linker_0, # of connection points: 2
#     Edge 129, Type (0, 1), BuildingBlock: XIVTED_clean_linker_0, # of connection points: 2
#     Edge 130, Type (0, 1), BuildingBlock: XIVTED_clean_linker_0, # of connection points: 2
#     Edge 131, Type (0, 1), BuildingBlock: XIVTED_clean_linker_0, # of connection points: 2
#     Edge 132, Type (0, 1), BuildingBlock: XIVTED_clean_linker_0, # of connection points: 2
#     Edge 133, Type (0, 1), BuildingBlock: XIVTED_clean_linker_0, # of connection points: 2
#     Edge 134, Type (0, 1), BuildingBlock: XIVTED_clean_linker_0, # of connection points: 2
#     Edge 135, Type (0, 1), BuildingBlock: XIVTED_clean_linker_0, # of connection points: 2
# Relax obj value: 0.151
# Max RMSD: 0.270
# Mean RMSD: 0.169
data_MOF--net-gar--node1-TATPOV_clean_sbu_0--node2-BETDEL_clean_sbu_0--edge1-XIVTED_clean_linker_0
_symmetry_space_group_name_H-M    P1
_symmetry_Int_Tables_number       1
_symmetry_cell_setting            triclinic
loop_
_symmetry_equiv_pos_as_xyz
'x, y, z'
_cell_length_a     55.505186
_cell_length_b     53.042489
_cell_length_c     54.928979
_cell_angle_alpha  95.756789
_cell_angle_beta   93.007155
_cell_angle_gamma 102.76767
loop_
_atom_site_label
_atom_site_type_symbol
_atom_site_fract_x
_atom_site_fract_y
_atom_site_fract_z
_atom_type_partial_charge
Zn0 Zn 0.00243 0.27935 0.45995 0.0
Zn1 Zn 0.03271 0.27707 0.42397 0.0
O2 O 0.04782 0.31263 0.44437 0.0
O3 O 0.02539 0.31201 0.47635 0.0
O4 O 0.05714 0.27295 0.39855 0.0
O5 O 0.00531 0.24495 0.4702 0.0
O6 O 0.0305 0.2433 0.44075 0.0
C7 C 0.04312 0.32329 0.46492 0.0
C8 C 0.98019 0.28196 0.41119 0.0
O9 O 0.00106 0.27921 0.40413 0.0
O10 O 0.97626 0.28237 0.43376 0.0
C11 C 0.0639 0.28905 0.3832 0.0
O12 O 0.05481 0.30994 0.38352 0.0
C13 C 0.01929 0.23321 0.45835 0.0
Zn14 Zn 0.97558 0.70714 0.65708 0.0
Zn15 Zn 0.9866 0.75142 0.6363 0.0
O16 O 0.95874 0.75678 0.65903 0.0
O17 O 0.95147 0.72104 0.67727 0.0
O18 O 0.99381 0.78385 0.61872 0.0
O19 O 0.01147 0.71361 0.6696 0.0
O20 O 0.02029 0.75087 0.65384 0.0
C21 C 0.94716 0.74305 0.67442 0.0
C22 C 0.96875 0.69762 0.6054 0.0
O23 O 0.97741 0.72214 0.60764 0.0
O24 O 0.96454 0.68596 0.62427 0.0
C25 C 0.98021 0.78587 0.59993 0.0
O26 O 0.96084 0.76696 0.59246 0.0
C27 C 0.0271 0.73389 0.6658 0.0
Zn28 Zn 0.50408 0.77315 0.9629 0.0
Zn29 Zn 0.53326 0.77107 0.92614 0.0
O30 O 0.54751 0.80721 0.94596 0.0
O31 O 0.52617 0.8066 0.97868 0.0
O32 O 0.55712 0.76812 0.89981 0.0
O33 O 0.50825 0.73931 0.97343 0.0
O34 O 0.53222 0.7373 0.94295 0.0
C35 C 0.54301 0.8182 0.96644 0.0
C36 C 0.48011 0.77448 0.91467 0.0
O37 O 0.50092 0.7722 0.90709 0.0
O38 O 0.4768 0.77498 0.93737 0.0
C39 C 0.56313 0.78532 0.88529 0.0
O40 O 0.55371 0.80603 0.88742 0.0
C41 C 0.52181 0.72746 0.9611 0.0
Zn42 Zn 0.47444 0.19647 0.15556 0.0
Zn43 Zn 0.4856 0.24006 0.13276 0.0
O44 O 0.45821 0.24667 0.15532 0.0
O45 O 0.45078 0.21206 0.17521 0.0
O46 O 0.49346 0.27233 0.11497 0.0
O47 O 0.51044 0.20275 0.16769 0.0
O48 O 0.51922 0.23889 0.15008 0.0
C49 C 0.44664 0.2339 0.17131 0.0
C50 C 0.46604 0.18585 0.10354 0.0
O51 O 0.47483 0.2103 0.1048 0.0
O52 O 0.46283 0.17492 0.12296 0.0
C53 C 0.48006 0.27502 0.0963 0.0
O54 O 0.46044 0.25653 0.08849 0.0
C55 C 0.52611 0.2225 0.16277 0.0
Zn56 Zn 0.09614 0.81387 0.12522 0.0
Zn57 Zn 0.05889 0.80434 0.154 0.0
O58 O 0.05243 0.83432 0.13459 0.0
O59 O 0.08475 0.84329 0.11282 0.0
O60 O 0.02977 0.79857 0.17545 0.0
O61 O 0.08347 0.77843 0.10652 0.0
O62 O 0.05389 0.76941 0.13177 0.0
C63 C 0.06438 0.84767 0.11919 0.0
C64 C 0.11365 0.81842 0.17538 0.0
O65 O 0.09049 0.81215 0.17838 0.0
O66 O 0.121 0.82054 0.15412 0.0
C67 C 0.02231 0.81763 0.186 0.0
O68 O 0.03441 0.84145 0.1838 0.0
C69 C 0.06499 0.76282 0.11325 0.0
Zn70 Zn 0.45234 0.72775 0.3744 0.0
Zn71 Zn 0.49484 0.73756 0.35339 0.0
O72 O 0.49458 0.77445 0.36873 0.0
O73 O 0.45748 0.76662 0.3828 0.0
O74 O 0.527 0.74001 0.33708 0.0
O75 O 0.4652 0.70732 0.39863 0.0
O76 O 0.4995 0.7134 0.37956 0.0
C77 C 0.47733 0.78253 0.3793 0.0
C78 C 0.44445 0.71409 0.3235 0.0
O79 O 0.46751 0.72478 0.32504 0.0
O80 O 0.4333 0.71054 0.3428 0.0
C81 C 0.52999 0.74241 0.31455 0.0
O82 O 0.51136 0.74518 0.30009 0.0
C83 C 0.48684 0.70386 0.3965 0.0
Zn84 Zn 0.56146 0.2897 0.60809 0.0
Zn85 Zn 0.5258 0.28483 0.63847 0.0
O86 O 0.51992 0.31365 0.61732 0.0
O87 O 0.55131 0.31896 0.59399 0.0
O88 O 0.49817 0.28234 0.6614 0.0
O89 O 0.54726 0.25402 0.59156 0.0
O90 O 0.51939 0.24802 0.61893 0.0
C91 C 0.53162 0.32493 0.60058 0.0
C92 C 0.58036 0.29576 0.65807 0.0
O93 O 0.55758 0.29312 0.6621 0.0
O94 O 0.58685 0.29493 0.63632 0.0
C95 C 0.49306 0.30297 0.67156 0.0
O96 O 0.50618 0.32568 0.66721 0.0
C97 C 0.52935 0.23956 0.60032 0.0
Zn98 Zn 0.95044 0.25702 0.89285 0.0
Zn99 Zn 0.98437 0.25475 0.86152 0.0
O100 O 0.9956 0.29239 0.87868 0.0
O101 O 0.97056 0.29134 0.90865 0.0
O102 O 0.01172 0.25032 0.83983 0.0
O103 O 0.95404 0.22504 0.90702 0.0
O104 O 0.98555 0.2261 0.88422 0.0
C105 C 0.98863 0.30319 0.89802 0.0
C106 C 0.93127 0.25205 0.84257 0.0
O107 O 0.95303 0.24987 0.83792 0.0
O108 O 0.92589 0.25577 0.86456 0.0
C109 C 0.01823 0.26308 0.82195 0.0
O110 O 0.00644 0.28087 0.81625 0.0
C111 C 0.97238 0.21616 0.90069 0.0
Zn112 Zn 0.45228 0.05316 0.2416 0.0
Zn113 Zn 0.40987 0.06879 0.2442 0.0
O114 O 0.42482 0.07608 0.28031 0.0
O115 O 0.4606 0.0648 0.27729 0.0
O116 O 0.37831 0.08151 0.24444 0.0
O117 O 0.46452 0.07849 0.21801 0.0
O118 O 0.42873 0.08989 0.21842 0.0
C119 C 0.44542 0.07368 0.29011 0.0
C120 C 0.40863 0.01159 0.22845 0.0
O121 O 0.39746 0.02984 0.23318 0.0
O122 O 0.43211 0.01647 0.23027 0.0
C123 C 0.36324 0.07856 0.26113 0.0
O124 O 0.36823 0.06684 0.28011 0.0
C125 C 0.45024 0.09214 0.21058 0.0
Zn126 Zn 0.23903 0.18493 0.47822 0.0
Zn127 Zn 0.26948 0.15447 0.48503 0.0
O128 O 0.28131 0.17297 0.45463 0.0
O129 O 0.25747 0.20085 0.45152 0.0
O130 O 0.29342 0.13126 0.48897 0.0
O131 O 0.24674 0.20198 0.51236 0.0
O132 O 0.27313 0.1774 0.51866 0.0
C133 C 0.27518 0.19137 0.44433 0.0
C134 C 0.21385 0.13141 0.47475 0.0
O135 O 0.23561 0.1284 0.4799 0.0
O136 O 0.2105 0.15379 0.47179 0.0
C137 C 0.29603 0.11567 0.47066 0.0
O138 O 0.28303 0.11516 0.44985 0.0
C139 C 0.26218 0.19508 0.52651 0.0
Zn140 Zn 0.1074 0.02425 0.80238 0.0
Zn141 Zn 0.14221 -0.00086 0.79451 0.0
O142 O 0.12667 0.9855 0.8261 0.0
O143 O 0.09736 0.00716 0.83161 0.0
O144 O 0.16563 0.9757 0.78596 0.0
O145 O 0.08862 0.01101 0.77036 0.0
O146 O 0.11981 0.9931 0.76207 0.0
C147 C 0.10887 0.99061 0.83805 0.0
C148 C 0.1558 0.05822 0.8021 0.0
O149 O 0.16317 0.03703 0.79901 0.0
O150 O 0.13312 0.05763 0.80448 0.0
C151 C 0.18775 0.97807 0.79484 0.0
O152 O 0.19762 0.99762 0.81159 0.0
C153 C 0.09942 -0.00141 0.75531 0.0
Zn154 Zn 0.26922 0.8652 0.01696 0.0
Zn155 Zn 0.23833 0.89277 0.0106 0.0
O156 O 0.2351 0.87302 0.97589 0.0
O157 O 0.26915 0.8585 0.98048 0.0
O158 O 0.21575 0.91759 0.01024 0.0
O159 O 0.24607 0.84016 0.03437 0.0
O160 O 0.22389 0.86974 0.03706 0.0
C161 C 0.25128 0.86186 0.96689 0.0
C162 C 0.29315 0.91595 0.0287 0.0
O163 O 0.27281 0.91769 0.01786 0.0
O164 O 0.29559 0.89427 0.03488 0.0
C165 C 0.21666 0.93509 0.99589 0.0
O166 O 0.23245 0.93685 0.97881 0.0
C167 C 0.22794 0.84821 0.04253 0.0
Zn168 Zn 0.26273 0.33968 0.02527 0.0
Zn169 Zn 0.24304 0.38095 0.02617 0.0
O170 O 0.23593 0.36267 0.99041 0.0
O171 O 0.24896 0.3264 0.99113 0.0
O172 O 0.22489 0.41007 0.02614 0.0
O173 O 0.24427 0.32615 0.05306 0.0
O174 O 0.22932 0.36142 0.05547 0.0
C175 C 0.239 0.34132 0.97955 0.0
C176 C 0.29858 0.38976 0.03256 0.0
O177 O 0.27953 0.39941 0.032 0.0
O178 O 0.29617 0.36528 0.03042 0.0
C179 C 0.22663 0.42492 0.0092 0.0
O180 O 0.2409 0.42151 0.99139 0.0
C181 C 0.23107 0.34001 0.06335 0.0
Zn182 Zn 0.75824 0.20346 0.99223 0.0
Zn183 Zn 0.78594 0.16913 -0.0016 0.0
O184 O 0.80386 0.19063 0.97233 0.0
O185 O 0.78277 0.2212 0.9709 0.0
O186 O 0.80615 0.14243 0.00317 0.0
O187 O 0.7633 0.21609 0.02802 0.0
O188 O 0.78814 0.18945 0.03279 0.0
C189 C 0.80072 0.21162 0.96456 0.0
C190 C 0.73081 0.15136 0.97985 0.0
O191 O 0.7511 0.14653 0.98781 0.0
O192 O 0.72918 0.1746 0.97847 0.0
C193 C 0.8072 0.12509 0.98575 0.0
O194 O 0.79519 0.12497 0.96446 0.0
C195 C 0.77786 0.20726 0.04156 0.0
Zn196 Zn 0.09634 0.54993 0.2505 0.0
Zn197 Zn 0.1228 0.51401 0.24365 0.0
O198 O 0.09823 0.49874 0.26769 0.0
O199 O 0.07309 0.52558 0.2691 0.0
O200 O 0.14543 0.48944 0.2411 0.0
O201 O 0.09102 0.54709 0.21365 0.0
O202 O 0.10729 0.51271 0.20888 0.0
C203 C 0.07872 0.505 0.27494 0.0
C204 C 0.14644 0.57066 0.26567 0.0
O205 O 0.14753 0.54826 0.25574 0.0
O206 O 0.12564 0.57634 0.26792 0.0
C207 C 0.15952 0.48937 0.26008 0.0
O208 O 0.15788 0.50446 0.28013 0.0
C209 C 0.09616 0.52864 0.19995 0.0
Zn210 Zn 0.77536 0.85159 0.51967 0.0
Zn211 Zn 0.74956 0.88476 0.52038 0.0
O212 O 0.74401 0.86391 0.48553 0.0
O213 O 0.75664 0.82831 0.49091 0.0
O214 O 0.72507 0.9079 0.51977 0.0
O215 O 0.77033 0.84353 0.55369 0.0
O216 O 0.74134 0.86576 0.55172 0.0
C217 C 0.74674 0.84148 0.47712 0.0
C218 C 0.80375 0.90339 0.51723 0.0
O219 O 0.78393 0.90989 0.52329 0.0
O220 O 0.80419 0.8796 0.51308 0.0
C221 C 0.72466 0.92387 0.50403 0.0
O222 O 0.74091 0.92579 0.48736 0.0
C223 C 0.75264 0.85136 0.56307 0.0
Zn224 Zn 0.92368 0.00854 0.22327 0.0
Zn225 Zn 0.89228 0.0364 0.23645 0.0
O226 O 0.91258 0.0356 0.26936 0.0
O227 O 0.93879 0.01209 0.25723 0.0
O228 O 0.86908 0.06022 0.24459 0.0
O229 O 0.93959 0.03236 0.20038 0.0
O230 O 0.91073 0.054 0.20812 0.0
C231 C 0.93031 0.02466 0.27422 0.0
C232 C 0.87351 0.97907 0.21668 0.0
O233 O 0.86911 0.00038 0.22618 0.0
O234 O 0.89542 0.97792 0.2122 0.0
C235 C 0.8769 0.08157 0.25834 0.0
O236 O 0.89982 0.08726 0.26816 0.0
C237 C 0.92941 0.0508 0.19662 0.0
Zn238 Zn 0.26438 0.71946 0.49238 0.0
Zn239 Zn 0.29302 0.6867 0.50064 0.0
O240 O 0.31079 0.70743 0.47445 0.0
O241 O 0.29028 0.73833 0.47225 0.0
O242 O 0.31398 0.66104 0.50642 0.0
O243 O 0.26596 0.72998 0.52883 0.0
O244 O 0.29453 0.70767 0.53444 0.0
C245 C 0.30812 0.72833 0.46622 0.0
C246 C 0.23862 0.66697 0.48001 0.0
O247 O 0.25861 0.66318 0.48991 0.0
O248 O 0.23681 0.68979 0.47679 0.0
C249 C 0.31568 0.6436 0.48937 0.0
O250 O 0.30361 0.64259 0.46793 0.0
C251 C 0.28157 0.72313 0.54287 0.0
Zn252 Zn 0.42279 0.5107 0.73022 0.0
Zn253 Zn 0.39048 0.5382 0.73943 0.0
O254 O 0.40866 0.53823 0.77398 0.0
O255 O 0.4373 0.51688 0.76436 0.0
O256 O 0.36651 0.56199 0.74479 0.0
O257 O 0.4395 0.53219 0.70624 0.0
O258 O 0.41122 0.55509 0.7119 0.0
C259 C 0.4271 0.52889 0.78032 0.0
C260 C 0.37321 0.48013 0.72186 0.0
O261 O 0.36783 0.50181 0.72865 0.0
O262 O 0.39562 0.479 0.72024 0.0
C263 C 0.37199 0.5823 0.76025 0.0
O264 O 0.39316 0.58735 0.77367 0.0
C265 C 0.43015 0.55087 0.70136 0.0
Zn266 Zn 0.57598 0.0309 0.73856 0.0
Zn267 Zn 0.60622 -0.00128 0.73416 0.0
O268 O 0.58267 0.98289 0.7589 0.0
O269 O 0.55427 0.00598 0.75788 0.0
O270 O 0.63163 0.97715 0.7337 0.0
O271 O 0.57088 0.02601 0.70168 0.0
O272 O 0.59034 0.99389 0.69894 0.0
C273 C 0.56209 0.98718 0.76526 0.0
C274 C 0.62498 0.05681 0.75409 0.0
O275 O 0.62836 0.03492 0.74508 0.0
O276 O 0.60321 0.06016 0.75556 0.0
C277 C 0.64488 0.97865 0.75362 0.0
O278 O 0.64058 0.99312 0.77304 0.0
C279 C 0.57754 0.00781 0.689 0.0
Zn280 Zn 0.73105 0.66846 0.98904 0.0
Zn281 Zn 0.76645 0.64433 0.98852 0.0
O282 O 0.76937 0.66233 0.95644 0.0
O283 O 0.73447 0.67554 0.95432 0.0
O284 O 0.79438 0.62559 0.98878 0.0
O285 O 0.74816 0.69455 0.01672 0.0
O286 O 0.77435 0.66938 0.02081 0.0
C287 C 0.75412 0.67257 0.94495 0.0
C288 C 0.71362 0.61543 0.99516 0.0
O289 O 0.73546 0.61432 0.98981 0.0
O290 O 0.70733 0.63699 -0.0027 0.0
C291 C 0.80071 0.61445 0.96934 0.0
O292 O 0.78895 0.61532 0.94816 0.0
C293 C 0.7659 0.68889 0.02876 0.0
Zn294 Zn 0.93043 0.52375 0.74161 0.0
Zn295 Zn 0.90424 0.5581 0.74998 0.0
O296 O 0.92395 0.56201 0.78359 0.0
O297 O 0.93917 0.52701 0.7779 0.0
O298 O 0.88 0.58109 0.75433 0.0
O299 O 0.95202 0.54742 0.72148 0.0
O300 O 0.92585 0.57316 0.7229 0.0
C301 C 0.93588 0.5463 0.79179 0.0
C302 C 0.88102 0.49998 0.73129 0.0
O303 O 0.87987 0.52228 0.74151 0.0
O304 O 0.90175 0.49555 0.7262 0.0
C305 C 0.86388 0.57964 0.73659 0.0
O306 O 0.86486 0.5647 0.71625 0.0
C307 C 0.94533 0.56723 0.71507 0.0
Zn308 Zn 0.78066 0.35579 0.52066 0.0
Zn309 Zn 0.75224 0.38845 0.5098 0.0
O310 O 0.75175 0.3671 0.4764 0.0
O311 O 0.77675 0.34159 0.48514 0.0
O312 O 0.7309 0.41391 0.50434 0.0
O313 O 0.75541 0.33838 0.54151 0.0
O314 O 0.73316 0.36706 0.53501 0.0
C315 C 0.7628 0.34914 0.46984 0.0
C316 C 0.80695 0.40844 0.52986 0.0
O317 O 0.78669 0.41192 0.52032 0.0
O318 O 0.80891 0.38585 0.53381 0.0
C319 C 0.72989 0.43098 0.52203 0.0
O320 O 0.74341 0.43189 0.5426 0.0
C321 C 0.7363 0.34715 0.54481 0.0
Zn322 Zn 0.62349 0.54024 0.3079 0.0
Zn323 Zn 0.64824 0.50398 0.2958 0.0
O324 O 0.62969 0.49153 0.32611 0.0
O325 O 0.60635 0.51988 0.33272 0.0
O326 O 0.66658 0.47569 0.2862 0.0
O327 O 0.60773 0.53549 0.27369 0.0
O328 O 0.62602 0.50329 0.2645 0.0
C329 C 0.61297 0.49957 0.33768 0.0
C330 C 0.675 0.56153 0.3103 0.0
O331 O 0.67505 0.53844 0.30122 0.0
O332 O 0.65513 0.5671 0.3169 0.0
C333 C 0.68963 0.47768 0.29113 0.0
O334 O 0.70293 0.49913 0.30356 0.0
C335 C 0.61158 0.51762 0.25838 0.0
Dy336 Dy 0.98106 0.01784 0.00531 0.0
C337 C 0.08824 0.03731 0.01622 0.0
C338 C 0.93185 0.01848 0.00273 0.0
Dy339 Dy 0.03895 0.03718 0.01524 0.0
O340 O 0.94406 0.01289 0.98417 0.0
O341 O 0.94631 0.02248 0.02274 0.0
O342 O 0.98678 0.98792 0.97515 0.0
O343 O 0.01268 0.02366 0.98355 0.0
C344 C 0.0083 0.00182 0.97087 0.0
C345 C 0.01215 0.0534 0.04992 0.0
O346 O 0.03229 0.0696 0.99511 0.0
O347 O 0.9897 0.06008 -0.00086 0.0
O348 O 0.07511 0.03597 0.03514 0.0
O349 O 0.07462 0.03966 -0.00296 0.0
O350 O 0.03404 0.06672 0.04598 0.0
O351 O 0.00739 0.03158 0.0371 0.0
O352 O 0.98782 0.98611 0.02649 0.0
O353 O 0.02984 0.99442 0.01966 0.0
C354 C 0.01034 0.07551 0.99324 0.0
C355 C 0.00955 0.97958 0.02701 0.0
Dy356 Dy 0.27489 0.77498 0.22211 0.0
C357 C 0.33588 0.78824 0.31286 0.0
C358 C 0.24002 0.77633 0.18595 0.0
Dy359 Dy 0.30563 0.78838 0.27221 0.0
O360 O 0.25683 0.76275 0.18393 0.0
O361 O 0.24252 0.78936 0.20756 0.0
O362 O 0.29754 0.74641 0.20963 0.0
O363 O 0.31347 0.77963 0.23438 0.0
C364 C 0.31689 0.7586 0.22398 0.0
C365 C 0.26196 0.80219 0.26966 0.0
O366 O 0.32608 0.82009 0.25246 0.0
O367 O 0.2952 0.81707 0.22128 0.0
O368 O 0.32323 0.8057 0.30962 0.0
O369 O 0.33216 0.771 0.29371 0.0
O370 O 0.28121 0.81628 0.28292 0.0
O371 O 0.26691 0.78179 0.25994 0.0
O372 O 0.25813 0.7397 0.23937 0.0
O373 O 0.28675 0.74626 0.27338 0.0
C374 C 0.31614 0.82977 0.23409 0.0
C375 C 0.26799 0.73158 0.25877 0.0
Dy376 Dy 0.53712 0.02081 0.48178 0.0
C377 C 0.43206 0.02039 0.47856 0.0
C378 C 0.58277 0.01118 0.49167 0.0
Dy379 Dy 0.47921 0.01294 0.48231 0.0
O380 O 0.57765 0.02547 0.47502 0.0
O381 O 0.56315 0.00274 0.50296 0.0
O382 O 0.53844 0.04853 0.45348 0.0
O383 O 0.50641 0.01864 0.45497 0.0
C384 C 0.51538 0.03897 0.44533 0.0
C385 C 0.50296 0.99782 0.51998 0.0
O386 O 0.47948 0.9754 0.46045 0.0
O387 O 0.52228 0.97914 0.46535 0.0
O388 O 0.44447 0.01909 0.49891 0.0
O389 O 0.44517 0.01685 0.46015 0.0
O390 O 0.48019 0.98644 0.51225 0.0
O391 O 0.51017 0.01712 0.50868 0.0
O392 O 0.53491 0.05675 0.50585 0.0
O393 O 0.49429 0.05601 0.4921 0.0
C394 C 0.49946 0.96583 0.45762 0.0
C395 C 0.51584 0.06801 0.50406 0.0
Dy396 Dy 0.22912 0.26693 0.74935 0.0
C397 C 0.33601 0.28877 0.75493 0.0
C398 C 0.1789 0.25487 0.75235 0.0
Dy399 Dy 0.28608 0.27479 0.75936 0.0
O400 O 0.19081 0.27253 0.7399 0.0
O401 O 0.19439 0.24331 0.76265 0.0
O402 O 0.23524 0.30217 0.72871 0.0
O403 O 0.26038 0.30009 0.75786 0.0
C404 C 0.25627 0.31309 0.74082 0.0
C405 C 0.25938 0.22929 0.76938 0.0
O406 O 0.27781 0.29354 0.79549 0.0
O407 O 0.23527 0.27576 0.79026 0.0
O408 O 0.32475 0.2683 0.76439 0.0
O409 O 0.32007 0.30196 0.74859 0.0
O410 O 0.2806 0.24072 0.78104 0.0
O411 O 0.25478 0.24138 0.75165 0.0
O412 O 0.23683 0.24728 0.71384 0.0
O413 O 0.2795 0.26408 0.71839 0.0
C414 C 0.25555 0.28798 0.80416 0.0
C415 C 0.25891 0.25188 0.70488 0.0
Dy416 Dy 0.00953 0.9924 0.48459 0.0
C417 C 0.04832 0.02089 0.58434 0.0
C418 C 0.98392 0.98612 0.4399 0.0
Dy419 Dy 0.0255 0.01302 0.53833 0.0
O420 O 0.00473 0.97926 0.44404 0.0
O421 O 0.97673 0.99537 0.46032 0.0
O422 O 0.04772 0.98636 0.47841 0.0
O423 O 0.04311 0.01637 0.5041 0.0
C424 C 0.05873 0.00465 0.49553 0.0
C425 C 0.9767 0.00211 0.52653 0.0
O426 O 0.03111 0.05158 0.52407 0.0
O427 O 0.00953 0.03528 0.48632 0.0
O428 O 0.02695 0.02573 0.5786 0.0
O429 O 0.05772 0.01269 0.56475 0.0
O430 O 0.98754 0.02022 0.54377 0.0
O431 O 0.99191 0.98948 0.51865 0.0
O432 O 0.00368 0.95397 0.49988 0.0
O433 O 0.0273 0.97088 0.53638 0.0
C434 C 0.02041 0.05509 0.50291 0.0
C435 C 0.0154 0.9508 0.52068 0.0
Dy436 Dy 0.30221 0.79176 0.77108 0.0
C437 C 0.2051 0.7496 0.72117 0.0
C438 C 0.34353 0.80421 0.80298 0.0
Dy439 Dy 0.24926 0.76455 0.74875 0.0
O440 O 0.34367 0.80354 0.77927 0.0
O441 O 0.32088 0.79896 0.80914 0.0
O442 O 0.31373 0.80194 0.73407 0.0
O443 O 0.2864 0.76798 0.73695 0.0
C444 C 0.29726 0.78262 0.72227 0.0
C445 C 0.25393 0.77625 0.79773 0.0
O446 O 0.2665 0.72984 0.74808 0.0
O447 O 0.29846 0.74982 0.77726 0.0
O448 O 0.2108 0.73958 0.74071 0.0
O449 O 0.22389 0.76724 0.71619 0.0
O450 O 0.23732 0.75679 0.78656 0.0
O451 O 0.26495 0.78903 0.78204 0.0
O452 O 0.28703 0.82738 0.76984 0.0
O453 O 0.25174 0.80714 0.7443 0.0
C454 C 0.28493 0.72865 0.76406 0.0
C455 C 0.26692 0.82844 0.75606 0.0
Dy456 Dy 0.51565 0.04243 0.0181 0.0
C457 C 0.50511 0.98429 0.92186 0.0
C458 C 0.50945 0.07218 0.0595 0.0
Dy459 Dy 0.50508 0.01513 0.96448 0.0
O460 O 0.51936 0.08145 0.04041 0.0
O461 O 0.50427 0.04693 0.05636 0.0
O462 O 0.53798 0.01396 0.02843 0.0
O463 O 0.5087 0.00268 0.00066 0.0
C464 C 0.52676 0.99601 0.01102 0.0
C465 C 0.4946 0.06208 0.97224 0.0
O466 O 0.47037 0.99659 0.98053 0.0
O467 O 0.4742 0.0295 0.01261 0.0
O468 O 0.48988 -0.00066 0.92597 0.0
O469 O 0.52058 0.9864 0.9409 0.0
O470 O 0.48225 0.04396 0.95569 0.0
O471 O 0.51238 0.05458 0.98183 0.0
O472 O 0.55309 0.05688 0.00568 0.0
O473 O 0.54617 0.0332 0.96658 0.0
C474 C 0.4609 0.00892 -0.0015 0.0
C475 C 0.56086 0.04897 0.98442 0.0
Dy476 Dy 0.25539 0.30114 0.26275 0.0
C477 C 0.24369 0.18949 0.25312 0.0
C478 C 0.25356 0.35166 0.25987 0.0
Dy479 Dy 0.24106 0.24047 0.25423 0.0
O480 O 0.2599 0.34257 0.27975 0.0
O481 O 0.24877 0.33329 0.24171 0.0
O482 O 0.28254 0.30002 0.29432 0.0
O483 O 0.25047 0.26991 0.28572 0.0
C484 C 0.2706 0.27713 0.29889 0.0
C485 C 0.22675 0.26507 0.21787 0.0
O486 O 0.20815 0.24625 0.27384 0.0
O487 O 0.21504 0.29079 0.27081 0.0
O488 O 0.24204 0.20169 0.23398 0.0
O489 O 0.24287 0.20492 0.27277 0.0
O490 O 0.21418 0.24254 0.22266 0.0
O491 O 0.24673 0.27175 0.23125 0.0
O492 O 0.28883 0.29496 0.24432 0.0
O493 O 0.28228 0.25133 0.25079 0.0
C494 C 0.20111 0.26866 0.27654 0.0
C495 C 0.29643 0.27295 0.2444 0.0
Dy496 Dy 0.50456 0.48509 0.98591 0.0
C497 C 0.54402 0.5141 0.08566 0.0
C498 C 0.47839 0.47983 0.94161 0.0
Dy499 Dy 0.52048 0.50497 0.03995 0.0
O500 O 0.49991 0.47426 0.94503 0.0
O501 O 0.47073 0.487 0.96256 0.0
O502 O 0.54251 0.4785 0.97942 0.0
O503 O 0.53821 0.50826 0.00587 0.0
C504 C 0.55345 0.496 -0.00275 0.0
C505 C 0.47137 0.49285 0.02837 0.0
O506 O 0.52695 0.54358 0.02559 0.0
O507 O 0.505 0.52806 0.98797 0.0
O508 O 0.52389 0.52135 0.07957 0.0
O509 O 0.55156 0.5023 0.06669 0.0
O510 O 0.48207 0.5108 0.04582 0.0
O511 O 0.48709 0.48122 0.02006 0.0
O512 O 0.49945 0.4463 0.0005 0.0
O513 O 0.5221 0.46272 0.03774 0.0
C514 C 0.51635 0.54759 0.00459 0.0
C515 C 0.51078 0.44284 0.02145 0.0
Dy516 Dy 0.80084 0.28925 0.26672 0.0
C517 C 0.70357 0.24027 0.22148 0.0
C518 C 0.84354 0.30578 0.29645 0.0
Dy519 Dy 0.74822 0.25825 0.24776 0.0
O520 O 0.84248 0.3002 0.27277 0.0
O521 O 0.8213 0.30325 0.30362 0.0
O522 O 0.80838 0.29906 0.22861 0.0
O523 O 0.78469 0.26339 0.23395 0.0
C524 C 0.79324 0.27789 0.21817 0.0
C525 C 0.75577 0.27079 0.29636 0.0
O526 O 0.76747 0.22525 0.24738 0.0
O527 O 0.80016 0.24814 0.27454 0.0
O528 O 0.70963 0.2331 0.24245 0.0
O529 O 0.72224 0.25665 0.21445 0.0
O530 O 0.74013 0.24987 0.2864 0.0
O531 O 0.76431 0.28422 0.27999 0.0
O532 O 0.78375 0.32335 0.26471 0.0
O533 O 0.7468 0.30011 0.24342 0.0
C534 C 0.78711 0.22595 0.26252 0.0
C535 C 0.76201 0.32247 0.25296 0.0
Dy536 Dy 0.02804 0.54943 0.526 0.0
C537 C 0.01567 0.49416 0.42846 0.0
C538 C 0.02468 0.58044 0.56772 0.0
Dy539 Dy 0.01644 0.5236 0.47208 0.0
O540 O 0.03963 0.56472 0.56555 0.0
O541 O 0.01178 0.57924 0.5471 0.0
O542 O 0.05056 0.52053 0.53491 0.0
O543 O 0.02108 0.51008 0.50757 0.0
C544 C 0.0393 0.50312 0.51715 0.0
C545 C 0.00522 0.56986 0.4816 0.0
O546 O 0.98215 0.50369 0.4881 0.0
O547 O 0.9874 0.53054 0.52516 0.0
O548 O 0.00074 0.50935 0.43342 0.0
O549 O 0.03128 0.49537 0.4472 0.0
O550 O 0.99269 0.5519 0.46505 0.0
O551 O 0.0237 0.56283 0.49037 0.0
O552 O 0.0632 0.56792 0.51089 0.0
O553 O 0.05736 0.54204 0.4731 0.0
C554 C 0.97362 0.51236 0.50868 0.0
C555 C 0.07146 0.55947 0.4901 0.0
Dy556 Dy 0.74616 0.75986 0.25219 0.0
C557 C 0.8559 0.78313 0.25481 0.0
C558 C 0.69716 0.73982 0.25655 0.0
Dy559 Dy 0.80615 0.77152 0.26029 0.0
O560 O 0.70596 0.75248 0.23863 0.0
O561 O 0.71524 0.73729 0.27146 0.0
O562 O 0.74464 0.80049 0.24241 0.0
O563 O 0.77758 0.79076 0.25122 0.0
C564 C 0.76859 0.80877 0.24455 0.0
C565 C 0.78033 0.72774 0.27501 0.0
O566 O 0.79708 0.79248 0.29509 0.0
O567 O 0.75492 0.77165 0.29235 0.0
O568 O 0.84181 0.75986 0.25321 0.0
O569 O 0.84287 0.80035 0.26001 0.0
O570 O 0.80157 0.74061 0.28573 0.0
O571 O 0.77488 0.73772 0.25615 0.0
O572 O 0.75494 0.74265 0.21613 0.0
O573 O 0.79759 0.76163 0.2194 0.0
C574 C 0.77525 0.7863 0.30464 0.0
C575 C 0.7767 0.74877 0.20659 0.0
Dy576 Dy 0.7444 0.27152 0.72553 0.0
C577 C 0.79872 0.28448 0.81916 0.0
C578 C 0.71346 0.27149 0.68559 0.0
Dy579 Dy 0.76696 0.2854 0.78011 0.0
O580 O 0.7309 0.25862 0.68605 0.0
O581 O 0.71305 0.28431 0.7069 0.0
O582 O 0.77765 0.25553 0.71526 0.0
O583 O 0.78061 0.28565 0.74392 0.0
C584 C 0.79187 0.27023 0.73325 0.0
C585 C 0.71946 0.28664 0.77224 0.0
O586 O 0.77914 0.32446 0.76716 0.0
O587 O 0.7563 0.31548 0.7291 0.0
O588 O 0.78167 0.29791 0.81944 0.0
O589 O 0.7982 0.27164 0.7977 0.0
O590 O 0.73361 0.30142 0.79027 0.0
O591 O 0.73085 0.27128 0.76171 0.0
O592 O 0.73229 0.23251 0.73821 0.0
O593 O 0.7544 0.24138 0.77667 0.0
C594 C 0.7705 0.33199 0.74675 0.0
C595 C 0.74062 0.22495 0.75869 0.0
Dy596 Dy 0.75492 0.80455 0.76891 0.0
C597 C 0.74502 0.6937 0.7531 0.0
C598 C 0.7523 0.85485 0.76643 0.0
Dy599 Dy 0.74057 0.74404 0.75443 0.0
O600 O 0.758 0.84558 0.78649 0.0
O601 O 0.7487 0.83681 0.74801 0.0
O602 O 0.77672 0.79908 0.80325 0.0
O603 O 0.7456 0.7706 0.7877 0.0
C604 C 0.76336 0.77559 0.80389 0.0
C605 C 0.73284 0.77323 0.7192 0.0
O606 O 0.70555 0.74798 0.77105 0.0
O607 O 0.71346 0.79326 0.77277 0.0
O608 O 0.73806 0.70421 0.73432 0.0
O609 O 0.74831 0.71039 0.77258 0.0
O610 O 0.71917 0.74998 0.7201 0.0
O611 O 0.75047 0.77802 0.73555 0.0
O612 O 0.79074 0.80046 0.75423 0.0
O613 O 0.78224 0.7553 0.75349 0.0
C614 C 0.69856 0.77034 0.77522 0.0
C615 C 0.79764 0.77801 0.75158 0.0
Dy616 Dy 0.48801 0.5276 0.51001 0.0
C617 C 0.59049 0.52144 0.51873 0.0
C618 C 0.44207 0.53832 0.50884 0.0
Dy619 Dy 0.54519 0.53321 0.52173 0.0
O620 O 0.45041 0.52545 0.49104 0.0
O621 O 0.45857 0.54467 0.52732 0.0
O622 O 0.49003 0.50161 0.47523 0.0
O623 O 0.52055 0.53134 0.48948 0.0
C624 C 0.51325 0.51225 0.47333 0.0
C625 C 0.52047 0.54872 0.55865 0.0
O626 O 0.54656 0.56984 0.50448 0.0
O627 O 0.50516 0.57016 0.50923 0.0
O628 O 0.5852 0.53776 0.53584 0.0
O629 O 0.57123 0.51194 0.50356 0.0
O630 O 0.54397 0.55845 0.55711 0.0
O631 O 0.51279 0.52981 0.54236 0.0
O632 O 0.48574 0.49049 0.52649 0.0
O633 O 0.52776 0.49096 0.52418 0.0
C634 C 0.52793 0.58178 0.50452 0.0
C635 C 0.50464 0.47898 0.52752 0.0
Dy636 Dy 0.0562 0.54234 0.99052 0.0
C637 C 0.95113 0.54111 0.98405 0.0
C638 C 0.10254 0.53395 -0.00078 0.0
Dy639 Dy 0.99819 0.53478 0.99233 0.0
O640 O 0.09438 0.54093 0.97887 0.0
O641 O 0.08565 0.53239 0.01481 0.0
O642 O 0.05424 0.565 0.95777 0.0
O643 O 0.02438 0.53534 0.96467 0.0
C644 C 0.03125 0.55305 0.95137 0.0
C645 C 0.02246 0.5228 0.03102 0.0
O646 O 0.99935 0.49646 0.97201 0.0
O647 O 0.04124 0.49899 0.98236 0.0
O648 O 0.9589 0.53093 0.00269 0.0
O649 O 0.96896 0.54744 0.96987 0.0
O650 O 0.99937 0.51153 0.02445 0.0
O651 O 0.0298 0.54095 0.01826 0.0
O652 O 0.05569 0.58044 0.01126 0.0
O653 O 0.01328 0.57803 0.00375 0.0
C654 C 0.01883 0.48578 0.97328 0.0
C655 C 0.03609 0.59092 0.01225 0.0
H656 H 0.01351 0.19542 0.89661 0.0
H657 H 0.97362 0.10122 -0.0005 0.0
H658 H 0.94693 0.19016 0.93501 0.0
H659 H 0.04069 0.10336 0.96257 0.0
H660 H 0.96557 0.13625 0.97745 0.0
H661 H 0.02516 0.16307 0.92104 0.0
C662 C 0.00129 0.18738 0.91003 0.0
C663 C 0.9792 0.19549 0.91376 0.0
C664 C 0.98217 0.12927 0.9742 0.0
C665 C 0.99251 0.15891 0.94182 0.0
C666 C 0.9868 0.10927 0.98686 0.0
C667 C 0.00774 0.09925 0.98267 0.0
C668 C 0.99845 0.13926 0.95699 0.0
C669 C 0.02433 0.1106 0.96631 0.0
C670 C 0.00802 0.16907 0.92404 0.0
C671 C 0.96413 0.18455 0.93147 0.0
N672 N 0.01919 0.12991 0.9538 0.0
N673 N 0.97109 0.16689 0.9448 0.0
H674 H 0.11117 0.79261 0.21633 0.0
H675 H 0.25445 0.84985 0.26068 0.0
H676 H 0.15933 0.851 0.18096 0.0
H677 H 0.21637 0.77038 0.26456 0.0
H678 H 0.21567 0.85836 0.24299 0.0
H679 H 0.14603 0.79255 0.24589 0.0
C680 C 0.12886 0.8059 0.21522 0.0
C681 C 0.13251 0.82166 0.19611 0.0
C682 C 0.21575 0.83926 0.24831 0.0
C683 C 0.17211 0.82184 0.22974 0.0
C684 C 0.23773 0.8345 0.25852 0.0
C685 C 0.2384 0.80943 0.26399 0.0
C686 C 0.19439 0.81893 0.24414 0.0
C687 C 0.21646 0.78997 0.26049 0.0
C688 C 0.14872 0.80575 0.23194 0.0
C689 C 0.15585 0.83838 0.19532 0.0
N690 N 0.19533 0.79508 0.25071 0.0
N691 N 0.17482 0.83795 0.21181 0.0
H692 H 0.44155 0.80687 0.39484 0.0
H693 H 0.53588 0.94135 0.44333 0.0
H694 H 0.51984 0.82144 0.38468 0.0
H695 H 0.4563 0.92992 0.44232 0.0
H696 H 0.53061 0.89749 0.42236 0.0
H697 H 0.44682 0.85189 0.41245 0.0
C698 C 0.45988 0.81958 0.39622 0.0
C699 C 0.48034 0.81031 0.38839 0.0
C700 C 0.51431 0.90463 0.42664 0.0
C701 C 0.4865 0.862 0.40873 0.0
C702 C 0.51728 0.92966 0.43871 0.0
C703 C 0.49648 0.93936 0.4447 0.0
C704 C 0.49038 0.88907 0.42064 0.0
C705 C 0.47287 0.9233 0.43811 0.0
C706 C 0.46285 0.84533 0.40626 0.0
C707 C 0.50357 0.82776 0.39049 0.0
N708 N 0.47048 0.89892 0.42654 0.0
N709 N 0.50606 0.85276 0.40065 0.0
H710 H 0.46586 0.26012 0.68971 0.0
H711 H 0.36233 0.33163 0.73673 0.0
H712 H 0.47197 0.34258 0.68886 0.0
H713 H 0.36773 0.25615 0.75608 0.0
H714 H 0.40258 0.33626 0.71927 0.0
H715 H 0.42972 0.25807 0.71375 0.0
C716 C 0.45968 0.27781 0.69465 0.0
C717 C 0.4719 0.30153 0.68714 0.0
C718 C 0.39513 0.31883 0.72762 0.0
C719 C 0.43046 0.29929 0.71454 0.0
C720 C 0.3722 0.31621 0.73762 0.0
C721 C 0.36174 0.29346 0.74779 0.0
C722 C 0.40746 0.29835 0.72744 0.0
C723 C 0.3752 0.27402 0.74843 0.0
C724 C 0.4391 0.27665 0.70847 0.0
C725 C 0.46312 0.32385 0.69421 0.0
N726 N 0.39724 0.27676 0.73809 0.0
N727 N 0.44281 0.32214 0.7073 0.0
H728 H 0.95524 0.79605 0.55895 0.0
H729 H 0.04428 0.93648 0.55599 0.0
H730 H 0.01918 0.82836 0.60975 0.0
H731 H 0.9809 0.9055 0.5042 0.0
H732 H 0.03696 0.89542 0.5736 0.0
H733 H 0.96546 0.83449 0.537 0.0
C734 C 0.97145 0.8112 0.5655 0.0
C735 C 0.9863 0.80899 0.58635 0.0
C736 C 0.02473 0.89742 0.55826 0.0
C737 C 0.99815 0.85305 0.56117 0.0
C738 C 0.02893 0.92091 0.54812 0.0
C739 C 0.01306 0.92455 0.52866 0.0
C740 C 0.00437 0.87731 0.54908 0.0
C741 C 0.99361 0.90355 0.51915 0.0
C742 C 0.97729 0.83312 0.55289 0.0
C743 C 0.00712 0.82921 0.59387 0.0
N744 N 0.98965 0.88089 0.52962 0.0
N745 N 0.01236 0.85037 0.58135 0.0
H746 H 0.48151 0.77909 0.8653 0.0
H747 H 0.34496 0.80531 0.85256 0.0
H748 H 0.43385 0.78025 0.92488 0.0
H749 H 0.39086 0.80339 0.79174 0.0
H750 H 0.37878 0.79902 0.87978 0.0
H751 H 0.44947 0.78941 0.83817 0.0
C752 C 0.46427 0.78132 0.87265 0.0
C753 C 0.46036 0.77871 0.89742 0.0
C754 C 0.38161 0.80019 0.86053 0.0
C755 C 0.42379 0.79085 0.86656 0.0
C756 C 0.36234 0.80395 0.84502 0.0
C757 C 0.36516 0.8048 0.81991 0.0
C758 C 0.40383 0.79707 0.85082 0.0
C759 C 0.38801 0.80288 0.81105 0.0
C760 C 0.44605 0.78737 0.85718 0.0
C761 C 0.43772 0.782 0.90594 0.0
N762 N 0.40644 0.79887 0.82647 0.0
N763 N 0.42036 0.78791 0.89056 0.0
H764 H 0.43999 0.13541 0.09238 0.0
H765 H 0.44678 0.06137 0.98216 0.0
H766 H 0.48517 0.19908 0.06058 0.0
H767 H 0.5207 0.10997 0.99061 0.0
H768 H 0.4333 0.09338 0.01076 0.0
H769 H 0.44125 0.1067 0.05496 0.0
C770 C 0.44963 0.1435 0.07729 0.0
C771 C 0.4626 0.16964 0.07962 0.0
C772 C 0.45234 0.09717 0.00594 0.0
C773 C 0.4641 0.13698 0.03693 0.0
C774 C 0.45993 0.07916 0.98948 0.0
C775 C 0.48485 0.08321 0.98429 0.0
C776 C 0.46979 0.11939 0.01671 0.0
C777 C 0.50133 0.10629 0.99434 0.0
C778 C 0.45017 0.12715 0.05589 0.0
C779 C 0.47491 0.17907 0.05956 0.0
N780 N 0.49352 0.12356 0.01017 0.0
N781 N 0.47587 0.16257 0.03926 0.0
H782 H 0.0844 0.2466 0.37585 0.0
H783 H 0.17771 0.30912 0.28058 0.0
H784 H 0.08519 0.32102 0.35012 0.0
H785 H 0.17208 0.23144 0.3005 0.0
H786 H 0.14271 0.31301 0.30459 0.0
H787 H 0.11553 0.24007 0.34747 0.0
C788 C 0.09106 0.26156 0.36419 0.0
C789 C 0.08222 0.28448 0.3655 0.0
C790 C 0.14897 0.29501 0.30356 0.0
C791 C 0.11796 0.2771 0.3329 0.0
C792 C 0.16899 0.29275 0.28981 0.0
C793 C 0.17802 0.26994 0.28859 0.0
C794 C 0.13792 0.27443 0.31643 0.0
C795 C 0.16581 0.24939 0.30088 0.0
C796 C 0.10881 0.25777 0.34793 0.0
C797 C 0.09148 0.30309 0.34983 0.0
N798 N 0.14655 0.25221 0.31446 0.0
N799 N 0.10892 0.29905 0.33431 0.0
H800 H 0.97496 0.08116 0.19309 0.0
H801 H 0.96936 0.02413 0.06309 0.0
H802 H 0.9034 0.05188 0.15382 0.0
H803 H 0.02127 0.09784 0.08251 0.0
H804 H 0.945 0.03453 0.09663 0.0
H805 H 0.99296 0.09058 0.15429 0.0
C806 C 0.96288 0.07789 0.17638 0.0
C807 C 0.93773 0.06585 0.17646 0.0
C808 C 0.96135 0.04877 0.09318 0.0
C809 C 0.95826 0.07523 0.13223 0.0
C810 C 0.9752 0.0429 0.07393 0.0
C811 C 0.99698 0.06043 0.06961 0.0
C812 C 0.96993 0.07183 0.10899 0.0
C813 C 0.00446 0.08387 0.08518 0.0
C814 C 0.97314 0.08313 0.15428 0.0
C815 C 0.92285 0.06139 0.1544 0.0
N816 N 0.99122 0.08869 0.10462 0.0
N817 N 0.9335 0.06528 0.13296 0.0
H818 H 0.33513 0.70497 0.43418 0.0
H819 H 0.34462 0.82236 0.35446 0.0
H820 H 0.31824 0.77889 0.45726 0.0
H821 H 0.35092 0.7455 0.32599 0.0
H822 H 0.35003 0.81115 0.3961 0.0
H823 H 0.35476 0.7236 0.39901 0.0
C824 C 0.3361 0.72527 0.43217 0.0
C825 C 0.32449 0.74026 0.44819 0.0
C826 C 0.3508 0.79688 0.38078 0.0
C827 C 0.34683 0.76159 0.40828 0.0
C828 C 0.34782 0.80334 0.35701 0.0
C829 C 0.34662 0.78455 0.33691 0.0
C830 C 0.35209 0.77132 0.38434 0.0
C831 C 0.35124 0.76035 0.34112 0.0
C832 C 0.34726 0.73587 0.41211 0.0
C833 C 0.32642 0.76648 0.44493 0.0
N834 N 0.35312 0.75414 0.36445 0.0
N835 N 0.33701 0.7762 0.42516 0.0
H836 H 0.57995 0.04452 0.65829 0.0
H837 H 0.49015 0.96003 0.55125 0.0
H838 H 0.55832 0.96156 0.66023 0.0
H839 H 0.54617 0.02796 0.54077 0.0
H840 H 0.51155 0.95912 0.59167 0.0
H841 H 0.56411 0.0386 0.61542 0.0
C842 C 0.57205 0.025 0.64949 0.0
C843 C 0.57046 0.00349 0.66257 0.0
C844 C 0.51926 0.97383 0.58015 0.0
C845 C 0.55178 0.99653 0.61376 0.0
C846 C 0.50707 0.97441 0.55725 0.0
C847 C 0.51633 0.99419 0.54277 0.0
C848 C 0.54045 0.99339 0.58844 0.0
C849 C 0.5383 0.01238 0.55128 0.0
C850 C 0.56307 0.02159 0.62506 0.0
C851 C 0.56 0.97855 0.65049 0.0
N852 N 0.54939 0.01172 0.57361 0.0
N853 N 0.55061 0.97571 0.62669 0.0
H854 H 0.24953 0.37505 0.94519 0.0
H855 H 0.22127 0.26361 0.83234 0.0
H856 H 0.22111 0.2941 0.95337 0.0
H857 H 0.28158 0.33109 0.83422 0.0
H858 H 0.21334 0.27818 0.8741 0.0
H859 H 0.25271 0.36294 0.90124 0.0
C860 C 0.24322 0.35486 0.93755 0.0
C861 C 0.23496 0.33548 0.95274 0.0
C862 C 0.2283 0.28979 0.86538 0.0
C863 C 0.23879 0.32164 0.90303 0.0
C864 C 0.23289 0.28151 0.84161 0.0
C865 C 0.25223 0.29613 0.82995 0.0
C866 C 0.24286 0.31311 0.87748 0.0
C867 C 0.2667 0.31915 0.84275 0.0
C868 C 0.2454 0.34797 0.91266 0.0
C869 C 0.22751 0.30956 0.94216 0.0
N870 N 0.26162 0.32708 0.8659 0.0
N871 N 0.22962 0.30337 0.91793 0.0
H872 H 0.9739 0.01392 0.28927 0.0
H873 H 0.94294 0.00456 0.42894 0.0
H874 H 0.90759 0.03196 0.31698 0.0
H875 H 0.00191 0.976 0.3957 0.0
H876 H 0.93007 0.01645 0.38909 0.0
H877 H 0.98595 0.00377 0.32963 0.0
C878 C 0.96198 0.01607 0.30399 0.0
C879 C 0.93958 0.0236 0.2997 0.0
C880 C 0.94568 0.00738 0.39049 0.0
C881 C 0.95314 0.01152 0.34607 0.0
C882 C 0.95292 0.00042 0.41314 0.0
C883 C 0.9735 0.98927 0.41552 0.0
C884 C 0.95928 0.00331 0.3702 0.0
C885 C 0.9859 0.98448 0.39462 0.0
C886 C 0.96881 0.01007 0.32702 0.0
C887 C 0.92503 0.02626 0.31952 0.0
N888 N 0.9787 0.9917 0.37287 0.0
N889 N 0.93197 0.01999 0.34188 0.0
H890 H 0.24541 0.73399 0.5708 0.0
H891 H 0.3306 0.80007 0.68939 0.0
H892 H 0.32324 0.73389 0.57452 0.0
H893 H 0.25967 0.74843 0.69479 0.0
H894 H 0.32739 0.78581 0.64505 0.0
H895 H 0.24942 0.74941 0.61473 0.0
C896 C 0.26336 0.73738 0.58087 0.0
C897 C 0.28404 0.73262 0.56918 0.0
C898 C 0.31256 0.77779 0.65606 0.0
C899 C 0.28875 0.75067 0.61896 0.0
C900 C 0.31427 0.78597 0.68118 0.0
C901 C 0.29527 0.77545 0.69559 0.0
C902 C 0.29141 0.75961 0.64538 0.0
C903 C 0.27459 0.75711 0.68423 0.0
C904 C 0.26558 0.74605 0.60583 0.0
C905 C 0.30686 0.73718 0.58301 0.0
N906 N 0.27307 0.74992 0.65968 0.0
N907 N 0.30871 0.74625 0.60725 0.0
H908 H 0.51295 0.97983 0.77208 0.0
H909 H 0.54044 0.95809 0.90884 0.0
H910 H 0.58018 0.96095 0.7998 0.0
H911 H 0.47474 0.97939 0.88038 0.0
H912 H 0.54925 0.94494 0.86689 0.0
H913 H 0.49299 0.96519 0.80822 0.0
C914 C 0.52335 0.9721 0.78561 0.0
C915 C 0.54844 0.97234 0.78343 0.0
C916 C 0.53259 0.9519 0.86983 0.0
C917 C 0.52597 0.95616 0.82507 0.0
C918 C 0.52757 0.95941 0.89375 0.0
C919 C 0.50729 0.97057 0.89783 0.0
C920 C 0.51727 0.95585 0.85005 0.0
C921 C 0.49093 0.97146 0.87785 0.0
C922 C 0.51196 0.96371 0.80623 0.0
C923 C 0.56091 0.96153 0.80108 0.0
N924 N 0.49655 0.96472 0.85473 0.0
N925 N 0.54974 0.95452 0.82157 0.0
H926 H 0.23385 0.37005 0.10705 0.0
H927 H 0.18662 0.25116 0.18396 0.0
H928 H 0.20569 0.29203 0.07152 0.0
H929 H 0.25536 0.30816 0.20241 0.0
H930 H 0.18025 0.27207 0.14677 0.0
H931 H 0.22699 0.35369 0.14706 0.0
C932 C 0.2253 0.3497 0.10766 0.0
C933 C 0.22041 0.33226 0.08615 0.0
C934 C 0.19634 0.28026 0.15943 0.0
C935 C 0.21251 0.31364 0.13139 0.0
C936 C 0.20004 0.26838 0.18051 0.0
C937 C 0.22135 0.27826 0.19649 0.0
C938 C 0.2138 0.30243 0.15477 0.0
C939 C 0.2383 0.30042 0.19106 0.0
C940 C 0.22161 0.34038 0.1304 0.0
C941 C 0.20976 0.30598 0.08783 0.0
N942 N 0.23413 0.31182 0.17071 0.0
N943 N 0.20631 0.29736 0.11014 0.0
H944 H 0.20671 0.96936 0.96449 0.0
H945 H 0.11522 0.02351 0.05344 0.0
H946 H 0.19034 0.94379 0.03521 0.0
H947 H 0.11498 0.03279 0.97631 0.0
H948 H 0.1498 0.00212 0.04938 0.0
H949 H 0.17923 -0.00047 0.97063 0.0
C950 C 0.19744 0.97016 0.98133 0.0
C951 C 0.20062 0.95384 -0.00075 0.0
C952 C 0.14242 0.00916 0.03341 0.0
C953 C 0.16955 0.98847 0.00651 0.0
C954 C 0.12282 0.02156 0.03577 0.0
C955 C 0.11218 0.02974 0.01515 0.0
C956 C 0.15141 0.00496 0.01026 0.0
C957 C 0.12268 0.02668 0.99265 0.0
C958 C 0.1818 0.98738 0.98481 0.0
C959 C 0.18823 0.95577 0.02076 0.0
N960 N 0.14159 0.01427 0.99073 0.0
N961 N 0.17326 0.97273 0.02377 0.0
H962 H 0.68504 0.61136 0.03319 0.0
H963 H 0.58977 0.4851 0.96848 0.0
H964 H 0.70043 0.56732 0.96791 0.0
H965 H 0.57821 0.53133 0.03415 0.0
H966 H 0.63326 0.50926 0.97159 0.0
H967 H 0.6495 0.57655 0.03792 0.0
C968 C 0.68104 0.59404 0.02003 0.0
C969 C 0.69537 0.5922 0.0 0.0
C970 C 0.6213 0.51372 0.98556 0.0
C971 C 0.65421 0.55248 0.00478 0.0
C972 C 0.59654 0.49993 0.98382 0.0
C973 C 0.58039 0.50655 0.00091 0.0
C974 C 0.62977 0.53411 0.00456 0.0
C975 C 0.59 0.52581 0.02045 0.0
C976 C 0.66072 0.57416 0.02268 0.0
C977 C 0.68967 0.56936 0.98356 0.0
N978 N 0.61395 0.53906 0.02158 0.0
N979 N 0.66911 0.5505 0.98601 0.0
H980 H 0.73817 0.47514 0.29914 0.0
H981 H 0.71669 0.32857 0.23512 0.0
H982 H 0.66787 0.43068 0.26465 0.0
H983 H 0.78582 0.37169 0.27322 0.0
H984 H 0.69974 0.36722 0.24203 0.0
H985 H 0.75688 0.43876 0.28663 0.0
C986 C 0.72665 0.45776 0.28889 0.0
C987 C 0.70134 0.45595 0.28309 0.0
C988 C 0.71869 0.36829 0.24869 0.0
C989 C 0.72274 0.41414 0.26861 0.0
C990 C 0.72846 0.34623 0.24465 0.0
C991 C 0.75272 0.34672 0.25375 0.0
C992 C 0.73323 0.39108 0.26196 0.0
C993 C 0.767 0.37026 0.26595 0.0
C994 C 0.73738 0.43698 0.28171 0.0
C995 C 0.68742 0.43294 0.26965 0.0
N996 N 0.75699 0.39139 0.26985 0.0
N997 N 0.69827 0.41293 0.26296 0.0
H998 H 0.84832 0.41445 0.56116 0.0
H999 H 0.93374 0.4945 0.47573 0.0
H1000 H 0.8171 0.44985 0.50349 0.0
H1001 H 0.95556 0.50398 0.55325 0.0
H1002 H 0.89139 0.47428 0.48436 0.0
H1003 H 0.88852 0.44429 0.55858 0.0
C1004 C 0.84982 0.42887 0.54835 0.0
C1005 C 0.82945 0.42965 0.53242 0.0
C1006 C 0.90543 0.48102 0.49947 0.0
C1007 C 0.87527 0.46303 0.5289 0.0
C1008 C 0.92957 0.49229 0.49456 0.0
C1009 C 0.94807 0.50069 0.51381 0.0
C1010 C 0.89999 0.47751 0.52373 0.0
C1011 C 0.94172 0.49769 0.53792 0.0
C1012 C 0.87269 0.44583 0.54689 0.0
C1013 C 0.83233 0.44865 0.51612 0.0
N1014 N 0.91823 0.48588 0.54221 0.0
N1015 N 0.85501 0.46421 0.51436 0.0
H1016 H 0.33196 0.0855 0.29706 0.0
H1017 H 0.25457 0.15973 0.21366 0.0
H1018 H 0.34327 0.09565 0.22117 0.0
H1019 H 0.25486 0.16553 0.29257 0.0
H1020 H 0.27933 0.12698 0.21476 0.0
H1021 H 0.29683 0.10638 0.29432 0.0
C1022 C 0.32691 0.09187 0.27977 0.0
C1023 C 0.34078 0.08916 0.25941 0.0
C1024 C 0.27362 0.13508 0.23181 0.0
C1025 C 0.30057 0.11281 0.25611 0.0
C1026 C 0.25933 0.15361 0.23117 0.0
C1027 C 0.25294 0.16551 0.25308 0.0
C1028 C 0.2816 0.12847 0.25453 0.0
C1029 C 0.25957 0.1569 0.27527 0.0
C1030 C 0.30688 0.10378 0.27823 0.0
C1031 C 0.33333 0.09766 0.23744 0.0
N1032 N 0.27386 0.13914 0.27548 0.0
N1033 N 0.31384 0.10921 0.23642 0.0
H1034 H 0.32253 0.10797 0.51174 0.0
H1035 H 0.40489 0.02597 0.43733 0.0
H1036 H 0.31039 0.08504 0.43362 0.0
H1037 H 0.40689 0.03611 0.51636 0.0
H1038 H 0.36957 0.0466 0.43546 0.0
H1039 H 0.35317 0.08133 0.51384 0.0
C1040 C 0.32624 0.09728 0.49504 0.0
C1041 C 0.31396 0.09887 0.47245 0.0
C1042 C 0.37754 0.04404 0.45322 0.0
C1043 C 0.34908 0.06836 0.47471 0.0
C1044 C 0.39763 0.03221 0.45427 0.0
C1045 C 0.40879 0.02942 0.47703 0.0
C1046 C 0.36876 0.0534 0.4751 0.0
C1047 C 0.39879 0.03791 0.49843 0.0
C1048 C 0.34369 0.08199 0.49626 0.0
C1049 C 0.31945 0.08446 0.45142 0.0
N1050 N 0.37949 0.04977 0.49696 0.0
N1051 N 0.33672 0.06998 0.45304 0.0
H1052 H 0.70742 0.5666 0.27468 0.0
H1053 H 0.77919 0.7117 0.32051 0.0
H1054 H 0.69033 0.606 0.34193 0.0
H1055 H 0.7508 0.68738 0.24523 0.0
H1056 H 0.75724 0.66925 0.33155 0.0
H1057 H 0.73573 0.60712 0.26696 0.0
C1058 C 0.71028 0.58352 0.28822 0.0
C1059 C 0.69655 0.58309 0.30894 0.0
C1060 C 0.75599 0.67328 0.31264 0.0
C1061 C 0.72863 0.62911 0.30021 0.0
C1062 C 0.76839 0.69736 0.30635 0.0
C1063 C 0.7666 0.70288 0.28199 0.0
C1064 C 0.74246 0.65449 0.29425 0.0
C1065 C 0.75242 0.68382 0.26425 0.0
C1066 C 0.72613 0.60662 0.28364 0.0
C1067 C 0.70059 0.60565 0.32572 0.0
N1068 N 0.74104 0.66028 0.27069 0.0
N1069 N 0.71627 0.62786 0.32096 0.0
H1070 H 0.8718 0.45596 0.69864 0.0
H1071 H 0.78307 0.37502 0.78037 0.0
H1072 H 0.8404 0.49436 0.75791 0.0
H1073 H 0.77999 0.35045 0.70276 0.0
H1074 H 0.80455 0.41885 0.77307 0.0
H1075 H 0.83882 0.41686 0.69941 0.0
C1076 C 0.8577 0.45629 0.7115 0.0
C1077 C 0.8589 0.47829 0.72837 0.0
C1078 C 0.79873 0.40398 0.7576 0.0
C1079 C 0.82164 0.43362 0.72972 0.0
C1080 C 0.78661 0.379 0.76176 0.0
C1081 C 0.77993 0.35916 0.74215 0.0
C1082 C 0.80484 0.40888 0.73378 0.0
C1083 C 0.78483 0.36527 0.71836 0.0
C1084 C 0.83888 0.43405 0.71188 0.0
C1085 C 0.84014 0.47777 0.74461 0.0
N1086 N 0.79751 0.38951 0.71488 0.0
N1087 N 0.82257 0.45554 0.74528 0.0
H1088 H 0.01897 0.86065 0.12358 0.0
H1089 H 0.04241 0.95062 0.01492 0.0
H1090 H 0.08621 0.87828 0.08616 0.0
H1091 H 0.98408 0.95509 0.06298 0.0
H1092 H 0.05342 0.91694 0.03706 0.0
H1093 H 0.00187 0.89017 0.09925 0.0
C1094 C 0.03017 0.87079 0.11045 0.0
C1095 C 0.05403 0.8669 0.10686 0.0
C1096 C 0.03808 0.92509 0.04277 0.0
C1097 C 0.0345 0.89996 0.07887 0.0
C1098 C 0.0317 0.94423 0.03002 0.0
C1099 C 0.01254 0.95584 0.03737 0.0
C1100 C 0.02539 0.91757 0.06326 0.0
C1101 C 0.99903 0.94657 0.05682 0.0
C1102 C 0.02036 0.88748 0.09654 0.0
C1103 C 0.0677 0.88048 0.08957 0.0
N1104 N 0.00594 0.9281 0.06941 0.0
N1105 N 0.0577 0.8962 0.07623 0.0
H1106 H 0.92718 0.23108 0.79387 0.0
H1107 H 0.82641 0.30819 0.7593 0.0
H1108 H 0.89307 0.27571 0.84628 0.0
H1109 H 0.81348 0.22807 0.72785 0.0
H1110 H 0.86348 0.30324 0.78231 0.0
H1111 H 0.89572 0.23521 0.76172 0.0
C1112 C 0.91317 0.24167 0.79858 0.0
C1113 C 0.91264 0.25301 0.82274 0.0
C1114 C 0.85281 0.2869 0.76996 0.0
C1115 C 0.87771 0.25836 0.78641 0.0
C1116 C 0.83174 0.28969 0.75683 0.0
C1117 C 0.81674 0.26833 0.74212 0.0
C1118 C 0.85902 0.26263 0.7683 0.0
C1119 C 0.82459 0.24488 0.73925 0.0
C1120 C 0.89535 0.24395 0.78034 0.0
C1121 C 0.89414 0.26652 0.82798 0.0
N1122 N 0.84517 0.24244 0.75266 0.0
N1123 N 0.87764 0.26904 0.80993 0.0
H1124 H 0.53166 0.19494 0.61995 0.0
H1125 H 0.49019 0.10415 0.49323 0.0
H1126 H 0.51013 0.22418 0.55373 0.0
H1127 H 0.54375 0.08948 0.54668 0.0
H1128 H 0.48955 0.14479 0.51831 0.0
H1129 H 0.5272 0.15178 0.59663 0.0
C1130 C 0.52521 0.19196 0.60069 0.0
C1131 C 0.52093 0.21278 0.58865 0.0
C1132 C 0.50148 0.13269 0.52448 0.0
C1133 C 0.51626 0.16419 0.56204 0.0
C1134 C 0.50193 0.1096 0.51018 0.0
C1135 C 0.51725 0.09364 0.51782 0.0
C1136 C 0.51605 0.13958 0.5468 0.0
C1137 C 0.53198 0.10148 0.53999 0.0
C1138 C 0.52303 0.16758 0.58737 0.0
C1139 C 0.5133 0.20837 0.56359 0.0
N1140 N 0.53089 0.12388 0.55385 0.0
N1141 N 0.5112 0.18452 0.55105 0.0
H1142 H 0.54441 0.7497 0.26818 0.0
H1143 H 0.67733 0.71847 0.29613 0.0
H1144 H 0.56992 0.73018 0.33795 0.0
H1145 H 0.65772 0.75029 0.23062 0.0
H1146 H 0.63566 0.7169 0.30918 0.0
H1147 H 0.58381 0.74541 0.25204 0.0
C1148 C 0.55827 0.74453 0.28011 0.0
C1149 C 0.55387 0.74045 0.30451 0.0
C1150 C 0.64035 0.72401 0.29183 0.0
C1151 C 0.59888 0.73523 0.28607 0.0
C1152 C 0.66409 0.72473 0.28429 0.0
C1153 C 0.67097 0.73464 0.26233 0.0
C1154 C 0.62335 0.73329 0.27731 0.0
C1155 C 0.65313 0.74254 0.24772 0.0
C1156 C 0.58074 0.74204 0.27086 0.0
C1157 C 0.5725 0.73369 0.31908 0.0
N1158 N 0.63016 0.74189 0.25555 0.0
N1159 N 0.59413 0.7313 0.30964 0.0
H1160 H 0.03321 0.19434 0.42954 0.0
H1161 H 0.02864 0.1 0.53443 0.0
H1162 H 0.01155 0.21382 0.50211 0.0
H1163 H 0.01573 0.07109 0.45746 0.0
H1164 H 0.03045 0.14411 0.52374 0.0
H1165 H 0.03506 0.15099 0.4405 0.0
C1166 C 0.02907 0.18958 0.44781 0.0
C1167 C 0.02207 0.2076 0.4649 0.0
C1168 C 0.02726 0.12806 0.50924 0.0
C1169 C 0.02438 0.1584 0.47754 0.0
C1170 C 0.02629 0.10294 0.5153 0.0
C1171 C 0.02186 0.08185 0.49682 0.0
C1172 C 0.02424 0.13215 0.48451 0.0
C1173 C 0.01894 0.08677 0.47231 0.0
C1174 C 0.03 0.16486 0.45399 0.0
C1175 C 0.01682 0.20042 0.48831 0.0
N1176 N 0.02029 0.11145 0.46684 0.0
N1177 N 0.01816 0.17641 0.49397 0.0
H1178 H 0.5665 0.25838 0.15102 0.0
H1179 H 0.66337 0.20569 0.23384 0.0
H1180 H 0.54614 0.19304 0.19265 0.0
H1181 H 0.68568 0.26281 0.18392 0.0
H1182 H 0.62021 0.20083 0.21873 0.0
H1183 H 0.61018 0.26116 0.16331 0.0
C1184 C 0.57117 0.24472 0.16283 0.0
C1185 C 0.55258 0.2255 0.17087 0.0
C1186 C 0.63452 0.21427 0.21088 0.0
C1187 C 0.60249 0.22846 0.18485 0.0
C1188 C 0.65916 0.21695 0.21944 0.0
C1189 C 0.67804 0.23465 0.21009 0.0
C1190 C 0.62868 0.22962 0.19301 0.0
C1191 C 0.67162 0.24887 0.19154 0.0
C1192 C 0.59612 0.24621 0.16971 0.0
C1193 C 0.55978 0.20821 0.18602 0.0
N1194 N 0.64743 0.24622 0.18374 0.0
N1195 N 0.5841 0.21015 0.19253 0.0
H1196 H 0.5543 0.84435 0.01252 0.0
H1197 H 0.50533 0.95795 0.97452 0.0
H1198 H 0.55132 0.85594 0.93592 0.0
H1199 H 0.56381 0.97722 0.03275 0.0
H1200 H 0.51809 0.91755 0.96232 0.0
H1201 H 0.55622 0.89087 0.0233 0.0
C1202 C 0.55497 0.85688 -0.00196 0.0
C1203 C 0.55263 0.84636 0.9733 0.0
C1204 C 0.52833 0.93083 0.97755 0.0
C1205 C 0.55367 0.89891 0.98546 0.0
C1206 C 0.52109 0.95385 0.9845 0.0
C1207 C 0.53392 0.9712 0.00427 0.0
C1208 C 0.54786 0.92457 0.99111 0.0
C1209 C 0.55359 0.96441 0.01725 0.0
C1210 C 0.55595 0.88331 0.0042 0.0
C1211 C 0.55326 0.86332 0.9552 0.0
N1212 N 0.55977 0.94133 0.01068 0.0
N1213 N 0.55292 0.88865 0.96161 0.0
H1214 H 0.92518 0.72144 0.71283 0.0
H1215 H 0.82913 0.8134 0.7277 0.0
H1216 H 0.92583 0.78492 0.66924 0.0
H1217 H 0.82308 0.74068 0.75838 0.0
H1218 H 0.86832 0.80815 0.71119 0.0
H1219 H 0.89178 0.73332 0.73469 0.0
C1220 C 0.91836 0.73799 0.70786 0.0
C1221 C 0.92817 0.75198 0.68887 0.0
C1222 C 0.85848 0.79354 0.72176 0.0
C1223 C 0.88952 0.76571 0.71403 0.0
C1224 C 0.83625 0.79659 0.73132 0.0
C1225 C 0.82277 0.77735 0.74429 0.0
C1226 C 0.86731 0.77124 0.72549 0.0
C1227 C 0.83271 0.75588 0.74829 0.0
C1228 C 0.89921 0.74478 0.72043 0.0
C1229 C 0.91871 0.77349 0.68362 0.0
N1230 N 0.85426 0.75339 0.73887 0.0
N1231 N 0.89971 0.77959 0.69601 0.0
H1232 H 0.13104 0.00581 0.88368 0.0
H1233 H 0.00548 0.95352 0.94563 0.0
H1234 H 0.06904 0.952 0.84312 0.0
H1235 H 0.04976 0.03209 0.95654 0.0
H1236 H 0.03489 0.94187 0.91661 0.0
H1237 H 0.10862 0.00225 0.92091 0.0
C1238 C 0.1133 0.9921 0.88296 0.0
C1239 C 0.10183 0.97908 0.86049 0.0
C1240 C 0.03834 0.96145 0.92595 0.0
C1241 C 0.07587 0.97561 0.90248 0.0
C1242 C 0.02157 0.96815 0.94227 0.0
C1243 C 0.02553 0.9937 0.95381 0.0
C1244 C 0.0593 0.98036 0.92172 0.0
C1245 C 0.04651 0.01198 0.94876 0.0
C1246 C 0.10036 0.99038 0.90406 0.0
C1247 C 0.07848 0.96215 0.86026 0.0
N1248 N 0.06264 0.00495 0.93319 0.0
N1249 N 0.06597 0.96125 0.8809 0.0
H1250 H 0.71787 0.29542 0.54136 0.0
H1251 H 0.68958 0.31037 0.67948 0.0
H1252 H 0.71308 0.36763 0.58222 0.0
H1253 H 0.70885 0.24378 0.64051 0.0
H1254 H 0.68024 0.32559 0.64022 0.0
H1255 H 0.69633 0.27159 0.57254 0.0
C1256 C 0.7117 0.30618 0.55672 0.0
C1257 C 0.71776 0.33341 0.55977 0.0
C1258 C 0.68578 0.30725 0.64025 0.0
C1259 C 0.69395 0.30648 0.59581 0.0
C1260 C 0.69107 0.29853 0.66261 0.0
C1261 C 0.70072 0.27625 0.66303 0.0
C1262 C 0.69036 0.29358 0.61839 0.0
C1263 C 0.70203 0.26142 0.64085 0.0
C1264 C 0.6994 0.29261 0.57448 0.0
C1265 C 0.70902 0.34657 0.57957 0.0
N1266 N 0.69742 0.27064 0.61936 0.0
N1267 N 0.69814 0.33296 0.59735 0.0
H1268 H 0.4156 0.0566 0.32582 0.0
H1269 H 0.53126 0.0842 0.42556 0.0
H1270 H 0.48885 0.09959 0.31444 0.0
H1271 H 0.46995 0.01746 0.42135 0.0
H1272 H 0.51066 0.09992 0.39156 0.0
H1273 H 0.43005 0.05302 0.36818 0.0
C1274 C 0.43443 0.06613 0.33258 0.0
C1275 C 0.45117 0.07829 0.31679 0.0
C1276 C 0.50155 0.08206 0.39839 0.0
C1277 C 0.46775 0.0741 0.36465 0.0
C1278 C 0.51331 0.07304 0.41767 0.0
C1279 C 0.50227 0.04948 0.42615 0.0
C1280 C 0.47856 0.06745 0.38763 0.0
C1281 C 0.47893 0.03584 0.41547 0.0
C1282 C 0.44272 0.06384 0.35656 0.0
C1283 C 0.47548 0.08998 0.32615 0.0
N1284 N 0.46788 0.04495 0.39661 0.0
N1285 N 0.48313 0.08739 0.34943 0.0
H1286 H 0.80014 0.67979 0.06308 0.0
H1287 H 0.73955 0.74384 0.17108 0.0
H1288 H 0.74904 0.72896 0.05143 0.0
H1289 H 0.81565 0.7381 0.18191 0.0
H1290 H 0.74096 0.73305 0.12702 0.0
H1291 H 0.80582 0.69714 0.10673 0.0
C1292 C 0.79052 0.69455 0.06954 0.0
C1293 C 0.77378 0.70261 0.05364 0.0
C1294 C 0.75739 0.73426 0.13904 0.0
C1295 C 0.77979 0.7219 0.10328 0.0
C1296 C 0.75652 0.74017 0.16416 0.0
C1297 C 0.77749 0.74176 0.18008 0.0
C1298 C 0.7792 0.72935 0.12979 0.0
C1299 C 0.79911 0.73709 0.17014 0.0
C1300 C 0.79374 0.70436 0.0944 0.0
C1301 C 0.76185 0.72185 0.06301 0.0
N1302 N 0.79936 0.73076 0.14553 0.0
N1303 N 0.76473 0.73045 0.08728 0.0
H1304 H 0.12441 0.9879 0.71506 0.0
H1305 H 0.02719 0.03219 0.62622 0.0
H1306 H 0.05425 0.00202 0.73609 0.0
H1307 H 0.0892 0.00402 0.59939 0.0
H1308 H 0.03848 0.02272 0.6672 0.0
H1309 H 0.11236 0.99272 0.67251 0.0
C1310 C 0.10626 0.99139 0.71065 0.0
C1311 C 0.09043 0.99491 0.72918 0.0
C1312 C 0.0497 0.01864 0.65241 0.0
C1313 C 0.07687 0.00104 0.68087 0.0
C1314 C 0.04341 0.02432 0.62908 0.0
C1315 C 0.05734 0.01891 0.60952 0.0
C1316 C 0.07014 0.00753 0.65624 0.0
C1317 C 0.07808 0.00856 0.61412 0.0
C1318 C 0.09951 0.99439 0.68642 0.0
C1319 C 0.06718 -0.0005 0.72246 0.0
N1320 N 0.08388 0.00314 0.63708 0.0
N1321 N 0.06126 0.00276 0.69893 0.0
H1322 H 0.76579 0.29982 0.45406 0.0
H1323 H 0.77117 0.32152 0.31484 0.0
H1324 H 0.75249 0.37001 0.42799 0.0
H1325 H 0.74204 0.24513 0.33601 0.0
H1326 H 0.77078 0.34027 0.35721 0.0
H1327 H 0.76276 0.27977 0.41158 0.0
C1328 C 0.76217 0.31097 0.43936 0.0
C1329 C 0.75949 0.33663 0.44441 0.0
C1330 C 0.76442 0.31942 0.35255 0.0
C1331 C 0.75637 0.31398 0.39607 0.0
C1332 C 0.76482 0.30867 0.32848 0.0
C1333 C 0.7566 0.28174 0.32206 0.0
C1334 C 0.75626 0.30306 0.37037 0.0
C1335 C 0.74847 0.26599 0.34034 0.0
C1336 C 0.76032 0.29947 0.41522 0.0
C1337 C 0.75462 0.35017 0.42479 0.0
N1338 N 0.74868 0.27689 0.36386 0.0
N1339 N 0.75354 0.33877 0.40136 0.0
H1340 H 0.4964 0.11873 0.20237 0.0
H1341 H 0.53098 0.12006 0.085 0.0
H1342 H 0.42076 0.09838 0.17137 0.0
H1343 H 0.4649 0.05844 0.0771 0.0
H1344 H 0.51491 0.14057 0.12123 0.0
H1345 H 0.51025 0.12797 0.16213 0.0
C1346 C 0.48265 0.11727 0.18724 0.0
C1347 C 0.45748 0.10712 0.18993 0.0
C1348 C 0.50387 0.12278 0.11124 0.0
C1349 C 0.47316 0.11706 0.14385 0.0
C1350 C 0.51301 0.11113 0.09074 0.0
C1351 C 0.49959 0.0871 0.07894 0.0
C1352 C 0.48107 0.11036 0.11931 0.0
C1353 C 0.47617 0.07649 0.08643 0.0
C1354 C 0.49055 0.1227 0.16426 0.0
C1355 C 0.44037 0.10579 0.16991 0.0
N1356 N 0.46773 0.08808 0.10625 0.0
N1357 N 0.4486 0.10968 0.14742 0.0
H1358 H 0.72156 0.66576 0.90549 0.0
H1359 H 0.80149 0.7795 0.83952 0.0
H1360 H 0.79732 0.70181 0.93082 0.0
H1361 H 0.7297 0.7326 0.81177 0.0
H1362 H 0.80248 0.75045 0.87177 0.0
H1363 H 0.72648 0.68814 0.86897 0.0
C1364 C 0.73942 0.67813 0.90305 0.0
C1365 C 0.75904 0.68205 0.92107 0.0
C1366 C 0.78671 0.74642 0.85837 0.0
C1367 C 0.76472 0.70858 0.87964 0.0
C1368 C 0.7861 0.76303 0.84011 0.0
C1369 C 0.76551 0.75839 0.82298 0.0
C1370 C 0.7665 0.7253 0.85941 0.0
C1371 C 0.74604 0.73683 0.82445 0.0
C1372 C 0.74224 0.69103 0.88224 0.0
C1373 C 0.78182 0.69825 0.91714 0.0
N1374 N 0.747 0.72123 0.84233 0.0
N1375 N 0.78395 0.71138 0.89697 0.0
H1376 H 0.83108 0.11705 0.02825 0.0
H1377 H 0.90215 0.01788 0.96126 0.0
H1378 H 0.81751 0.08875 0.95117 0.0
H1379 H 0.90857 0.0391 0.0396 0.0
H1380 H 0.86832 0.04041 0.95755 0.0
H1381 H 0.85729 0.08621 0.03315 0.0
C1382 C 0.83353 0.10429 0.01236 0.0
C1383 C 0.82223 0.10567 0.98921 0.0
C1384 C 0.87684 0.03978 0.9756 0.0
C1385 C 0.8523 0.07025 0.9947 0.0
C1386 C 0.89604 0.02678 0.97773 0.0
C1387 C 0.90822 0.02678 0.00074 0.0
C1388 C 0.86997 0.05307 -0.00337 0.0
C1389 C 0.89969 0.03871 0.02149 0.0
C1390 C 0.84844 0.08659 0.01519 0.0
C1391 C 0.82595 0.08848 0.96934 0.0
N1392 N 0.88132 0.05168 0.01891 0.0
N1393 N 0.84082 0.07165 0.97249 0.0
H1394 H 0.31293 0.44297 0.04407 0.0
H1395 H 0.44803 0.44874 -0.00036 0.0
H1396 H 0.34119 0.37528 0.02179 0.0
H1397 H 0.43421 0.50917 0.0521 0.0
H1398 H 0.40521 0.42498 0.00043 0.0
H1399 H 0.35447 0.47051 0.04152 0.0
C1400 C 0.32784 0.43391 0.0388 0.0
C1401 C 0.32361 0.40678 0.0332 0.0
C1402 C 0.41149 0.44352 0.01167 0.0
C1403 C 0.37063 0.43805 0.02969 0.0
C1404 C 0.43587 0.45716 0.01112 0.0
C1405 C 0.44469 0.48075 0.0261 0.0
C1406 C 0.39573 0.45362 0.02712 0.0
C1407 C 0.42809 0.4909 0.04044 0.0
C1408 C 0.35144 0.44961 0.03732 0.0
C1409 C 0.34356 0.39605 0.02641 0.0
N1410 N 0.4043 0.47716 0.04072 0.0
N1411 N 0.36611 0.41173 0.02466 0.0
H1412 H 0.33081 0.58316 0.73024 0.0
H1413 H 0.31472 0.71758 0.8005 0.0
H1414 H 0.37592 0.62427 0.79458 0.0
H1415 H 0.27412 0.68363 0.7315 0.0
H1416 H 0.33298 0.68 0.80097 0.0
H1417 H 0.30615 0.61637 0.73253 0.0
C1418 C 0.33541 0.59901 0.74496 0.0
C1419 C 0.35561 0.60099 0.76216 0.0
C1420 C 0.31996 0.68057 0.78576 0.0
C1421 C 0.32742 0.63898 0.76488 0.0
C1422 C 0.30943 0.70207 0.78549 0.0
C1423 C 0.293 0.70395 0.76579 0.0
C1424 C 0.31423 0.66063 0.76612 0.0
C1425 C 0.28671 0.68303 0.74704 0.0
C1426 C 0.32134 0.61798 0.74621 0.0
C1427 C 0.36067 0.62197 0.7808 0.0
N1428 N 0.29754 0.66233 0.74753 0.0
N1429 N 0.34677 0.6401 0.7816 0.0
H1430 H 0.19815 0.66306 0.44801 0.0
H1431 H 0.11099 0.57196 0.52361 0.0
H1432 H 0.22805 0.62259 0.50239 0.0
H1433 H 0.09065 0.57196 0.44675 0.0
H1434 H 0.15369 0.59287 0.51707 0.0
H1435 H 0.15824 0.63172 0.44698 0.0
C1436 C 0.19644 0.64728 0.45936 0.0
C1437 C 0.21633 0.64551 0.47548 0.0
C1438 C 0.13995 0.58799 0.50158 0.0
C1439 C 0.17079 0.61022 0.47478 0.0
C1440 C 0.11561 0.5763 0.50533 0.0
C1441 C 0.09738 0.57048 0.4857 0.0
C1442 C 0.14593 0.59458 0.47819 0.0
C1443 C 0.10427 0.57621 0.46232 0.0
C1444 C 0.17373 0.62943 0.45871 0.0
C1445 C 0.21318 0.62468 0.48974 0.0
N1446 N 0.128 0.58847 0.45925 0.0
N1447 N 0.19063 0.60817 0.48949 0.0
H1448 H 0.66252 0.95184 0.71603 0.0
H1449 H 0.74547 0.88951 0.80446 0.0
H1450 H 0.67288 0.9732 0.79445 0.0
H1451 H 0.74074 0.8755 0.72545 0.0
H1452 H 0.72319 0.92429 0.80128 0.0
H1453 H 0.69444 0.92701 0.71905 0.0
C1454 C 0.67155 0.95136 0.73389 0.0
C1455 C 0.66482 0.96435 0.75505 0.0
C1456 C 0.72744 0.91393 0.78464 0.0
C1457 C 0.70144 0.93596 0.75869 0.0
C1458 C 0.74029 0.89423 0.78647 0.0
C1459 C 0.74462 0.87952 0.76518 0.0
C1460 C 0.71882 0.91867 0.76137 0.0
C1461 C 0.7375 0.88627 0.74231 0.0
C1462 C 0.6899 0.93728 0.7356 0.0
C1463 C 0.67736 0.9633 0.77768 0.0
N1464 N 0.72463 0.9051 0.74101 0.0
N1465 N 0.69491 0.94911 0.77894 0.0
H1466 H 0.68891 0.92521 0.53634 0.0
H1467 H 0.62333 0.01943 0.46443 0.0
H1468 H 0.71669 0.9581 0.47175 0.0
H1469 H 0.5951 0.98321 0.52719 0.0
H1470 H 0.65978 0.00059 0.46875 0.0
H1471 H 0.65641 0.94948 0.5351 0.0
C1472 C 0.68825 0.9376 0.52192 0.0
C1473 C 0.7055 0.93945 0.50403 0.0
C1474 C 0.6457 0.99696 0.48169 0.0
C1475 C 0.66816 0.96738 0.50246 0.0
C1476 C 0.62498 0.0078 0.47928 0.0
C1477 C 0.60618 0.00274 0.49541 0.0
C1478 C 0.64755 0.98102 0.50037 0.0
C1479 C 0.60914 0.98748 0.51429 0.0
C1480 C 0.66965 0.9515 0.52122 0.0
C1481 C 0.70373 0.95597 0.48587 0.0
N1482 N 0.62932 0.97707 0.51616 0.0
N1483 N 0.68533 0.9692 0.48548 0.0
H1484 H 0.32223 0.4729 0.71767 0.0
H1485 H 0.29951 0.33831 0.76638 0.0
H1486 H 0.38075 0.43123 0.72142 0.0
H1487 H 0.2485 0.3456 0.70687 0.0
H1488 H 0.3271 0.3788 0.75813 0.0
H1489 H 0.29182 0.43172 0.72015 0.0
C1490 C 0.32864 0.45514 0.71865 0.0
C1491 C 0.35407 0.45553 0.71945 0.0
C1492 C 0.30986 0.37144 0.7469 0.0
C1493 C 0.31976 0.40913 0.72296 0.0
C1494 C 0.29422 0.34834 0.75146 0.0
C1495 C 0.27212 0.33827 0.73679 0.0
C1496 C 0.30292 0.38504 0.72812 0.0
C1497 C 0.26562 0.35261 0.71834 0.0
C1498 C 0.31134 0.43179 0.72004 0.0
C1499 C 0.36139 0.43195 0.72075 0.0
N1500 N 0.28096 0.37551 0.71454 0.0
N1501 N 0.34437 0.40984 0.72296 0.0
H1502 H 0.19181 0.5713 0.24864 0.0
H1503 H 0.2517 0.71831 0.30273 0.0
H1504 H 0.15322 0.61646 0.29582 0.0
H1505 H 0.25765 0.68659 0.2285 0.0
H1506 H 0.22618 0.67585 0.3102 0.0
H1507 H 0.22712 0.60872 0.25191 0.0
C1508 C 0.19099 0.58885 0.26018 0.0
C1509 C 0.16939 0.59101 0.27161 0.0
C1510 C 0.2336 0.67816 0.2925 0.0
C1511 C 0.20972 0.63349 0.27559 0.0
C1512 C 0.24812 0.70219 0.28828 0.0
C1513 C 0.25641 0.7057 0.26494 0.0
C1514 C 0.22809 0.65764 0.2734 0.0
C1515 C 0.25128 0.6845 0.24665 0.0
C1516 C 0.2111 0.61014 0.26196 0.0
C1517 C 0.16939 0.61418 0.28639 0.0
N1518 N 0.23737 0.66129 0.25125 0.0
N1519 N 0.18921 0.6347 0.28779 0.0
H1520 H 0.5292 0.68502 0.39443 0.0
H1521 H 0.50445 0.61993 0.51822 0.0
H1522 H 0.46937 0.69147 0.44012 0.0
H1523 H 0.55651 0.60015 0.46819 0.0
H1524 H 0.49934 0.65509 0.49454 0.0
H1525 H 0.54583 0.6612 0.42495 0.0
C1526 C 0.51963 0.68153 0.41088 0.0
C1527 C 0.49765 0.68986 0.41457 0.0
C1528 C 0.51224 0.6434 0.48892 0.0
C1529 C 0.51675 0.66322 0.44956 0.0
C1530 C 0.51529 0.62348 0.50255 0.0
C1531 C 0.53065 0.60702 0.49489 0.0
C1532 C 0.52429 0.64656 0.46721 0.0
C1533 C 0.54443 0.61247 0.47461 0.0
C1534 C 0.52918 0.66806 0.42829 0.0
C1535 C 0.48613 0.68505 0.43629 0.0
N1536 N 0.54052 0.63151 0.46107 0.0
N1537 N 0.49576 0.672 0.45287 0.0
H1538 H 0.61958 0.27388 0.6551 0.0
H1539 H 0.69801 0.32903 0.77545 0.0
H1540 H 0.5836 0.3176 0.70644 0.0
H1541 H 0.68478 0.24777 0.74775 0.0
H1542 H 0.66037 0.33203 0.75073 0.0
H1543 H 0.6497 0.27134 0.68795 0.0
C1544 C 0.61822 0.28327 0.67327 0.0
C1545 C 0.59911 0.296 0.67811 0.0
C1546 C 0.66546 0.31346 0.75077 0.0
C1547 C 0.63395 0.29358 0.71563 0.0
C1548 C 0.68678 0.31173 0.76481 0.0
C1549 C 0.69455 0.28822 0.76319 0.0
C1550 C 0.65243 0.2916 0.73511 0.0
C1551 C 0.67959 0.26635 0.74912 0.0
C1552 C 0.63534 0.28168 0.69199 0.0
C1553 C 0.5981 0.30757 0.7021 0.0
N1554 N 0.65954 0.26869 0.73522 0.0
N1555 N 0.61559 0.30639 0.72011 0.0
H1556 H 0.99665 0.34528 0.87246 0.0
H1557 H 0.04304 0.45018 0.98859 0.0
H1558 H 0.0044 0.32243 0.94507 0.0
H1559 H 0.98977 0.46069 0.93265 0.0
H1560 H 0.04015 0.40584 0.96888 0.0
H1561 H 0.00641 0.39118 0.89037 0.0
C1562 C 0.00118 0.35004 0.89205 0.0
C1563 C 0.99984 0.33033 0.90742 0.0
C1564 C 0.02919 0.41796 0.96096 0.0
C1565 C 0.01087 0.38211 0.92776 0.0
C1566 C 0.03075 0.4431 0.97217 0.0
C1567 C 0.01636 0.45882 0.96233 0.0
C1568 C 0.01372 0.40891 0.93943 0.0
C1569 C 0.00084 0.44893 0.94097 0.0
C1570 C 0.00642 0.37604 0.90223 0.0
C1571 C 0.00533 0.33725 0.93272 0.0
N1572 N 4e-05 0.42457 0.93007 0.0
N1573 N 0.01065 0.36265 0.94217 0.0
H1574 H 0.99939 0.85407 0.20744 0.0
H1575 H 0.88393 0.74816 0.24356 0.0
H1576 H 0.99262 0.77109 0.19457 0.0
H1577 H 0.88701 0.83054 0.25126 0.0
H1578 H 0.92558 0.75671 0.2293 0.0
H1579 H 0.96022 0.84631 0.22694 0.0
C1580 C 0.98977 0.8342 0.20883 0.0
C1581 C 0.99932 0.81319 0.19921 0.0
C1582 C 0.91728 0.77298 0.23424 0.0
C1583 C 0.95434 0.80419 0.22156 0.0
C1584 C 0.8935 0.76811 0.24247 0.0
C1585 C 0.882 0.78868 0.24854 0.0
C1586 C 0.92972 0.79864 0.23198 0.0
C1587 C 0.89525 0.81413 0.24677 0.0
C1588 C 0.96736 0.82981 0.21996 0.0
C1589 C 0.98598 0.7879 0.20161 0.0
N1590 N 0.91837 0.8184 0.23851 0.0
N1591 N 0.96418 0.78413 0.21245 0.0
H1592 H 0.51887 0.31738 0.10777 0.0
H1593 H 0.47818 0.39718 0.00222 0.0
H1594 H 0.45556 0.28685 0.05577 0.0
H1595 H 0.53816 0.42817 0.05787 0.0
H1596 H 0.47192 0.35508 0.01872 0.0
H1597 H 0.52822 0.35674 0.08721 0.0
C1598 C 0.50695 0.3189 0.092 0.0
C1599 C 0.4863 0.29879 0.08361 0.0
C1600 C 0.48658 0.37106 0.02715 0.0
C1601 C 0.49694 0.34394 0.05986 0.0
C1602 C 0.49026 0.39505 0.01764 0.0
C1603 C 0.50861 0.41631 0.02875 0.0
C1604 C 0.50142 0.36833 0.04786 0.0
C1605 C 0.52362 0.41243 0.04881 0.0
C1606 C 0.51231 0.34141 0.08022 0.0
C1607 C 0.4716 0.30189 0.06297 0.0
N1608 N 0.51961 0.38903 0.05775 0.0
N1609 N 0.47715 0.32406 0.05187 0.0
H1610 H 0.98165 0.2835 0.36132 0.0
H1611 H 0.84732 0.31499 0.34622 0.0
H1612 H 0.93493 0.29121 0.42079 0.0
H1613 H 0.88976 0.30089 0.28479 0.0
H1614 H 0.88165 0.31106 0.37412 0.0
H1615 H 0.95003 0.29311 0.33313 0.0
C1616 C 0.96474 0.28709 0.36845 0.0
C1617 C 0.96092 0.28641 0.39347 0.0
C1618 C 0.88362 0.30906 0.35455 0.0
C1619 C 0.92486 0.29773 0.36139 0.0
C1620 C 0.86408 0.3115 0.33864 0.0
C1621 C 0.86573 0.30815 0.31321 0.0
C1622 C 0.90494 0.30309 0.34497 0.0
C1623 C 0.8878 0.3036 0.30432 0.0
C1624 C 0.94675 0.29269 0.35236 0.0
C1625 C 0.9387 0.29139 0.40167 0.0
N1626 N 0.90651 0.30096 0.32019 0.0
N1627 N 0.92158 0.29684 0.3857 0.0
H1628 H 0.99355 0.71173 0.56553 0.0
H1629 H 0.95757 0.57005 0.49099 0.0
H1630 H 0.94198 0.64801 0.59087 0.0
H1631 H 0.03183 0.61787 0.49963 0.0
H1632 H 0.94367 0.60401 0.51679 0.0
H1633 H 0.99891 0.68255 0.52978 0.0
C1634 C 0.9828 0.69183 0.56322 0.0
C1635 C 0.96753 0.68215 0.58133 0.0
C1636 C 0.96286 0.60721 0.5125 0.0
C1637 C 0.97348 0.64898 0.54054 0.0
C1638 C 0.97074 0.58803 0.49776 0.0
C1639 C 0.99581 0.5914 0.49333 0.0
C1640 C 0.98013 0.63 0.52218 0.0
C1641 C 0.01234 0.61471 0.50274 0.0
C1642 C 0.986 0.67522 0.54293 0.0
C1643 C 0.95413 0.65615 0.57745 0.0
N1644 N 0.0042 0.6332 0.51678 0.0
N1645 N 0.95755 0.64035 0.55751 0.0
H1646 H 0.58322 0.82027 0.85418 0.0
H1647 H 0.66761 0.73 0.79367 0.0
H1648 H 0.58341 0.74337 0.87338 0.0
H1649 H 0.6759 0.81111 0.78367 0.0
H1650 H 0.63257 0.73256 0.81822 0.0
H1651 H 0.6134 0.81538 0.82421 0.0
C1652 C 0.58952 0.80231 0.85205 0.0
C1653 C 0.58085 0.78227 0.86648 0.0
C1654 C 0.64192 0.74973 0.81045 0.0
C1655 C 0.61539 0.7765 0.83203 0.0
C1656 C 0.66185 0.74824 0.79625 0.0
C1657 C 0.67491 0.77042 0.78666 0.0
C1658 C 0.63488 0.77353 0.81507 0.0
C1659 C 0.66655 0.79353 0.79079 0.0
C1660 C 0.60677 0.79953 0.83491 0.0
C1661 C 0.58967 0.75941 0.8628 0.0
N1662 N 0.64721 0.79452 0.80479 0.0
N1663 N 0.60647 0.75718 0.846 0.0
H1664 H 0.47662 0.57993 0.70033 0.0
H1665 H 0.47288 0.526 0.56559 0.0
H1666 H 0.40728 0.55197 0.65678 0.0
H1667 H 0.53387 0.58845 0.59627 0.0
H1668 H 0.44812 0.53758 0.59837 0.0
H1669 H 0.4977 0.58776 0.66286 0.0
C1670 C 0.46571 0.57661 0.68288 0.0
C1671 C 0.44025 0.5654 0.68147 0.0
C1672 C 0.46673 0.54916 0.5977 0.0
C1673 C 0.46426 0.57292 0.63866 0.0
C1674 C 0.48089 0.54255 0.57897 0.0
C1675 C 0.50534 0.5565 0.57806 0.0
C1676 C 0.47737 0.56928 0.61626 0.0
C1677 C 0.51506 0.57721 0.59635 0.0
C1678 C 0.47774 0.58087 0.66151 0.0
C1679 C 0.42692 0.56086 0.65852 0.0
N1680 N 0.50116 0.58272 0.61502 0.0
N1681 N 0.43921 0.56393 0.63787 0.0
H1682 H 0.81834 0.18976 0.9238 0.0
H1683 H 0.80567 0.31245 0.86434 0.0
H1684 H 0.81823 0.26331 0.96494 0.0
H1685 H 0.82399 0.2464 0.82343 0.0
H1686 H 0.8208 0.29874 0.90218 0.0
H1687 H 0.83139 0.2127 0.88841 0.0
C1688 C 0.82204 0.21082 0.92565 0.0
C1689 C 0.81661 0.22471 0.9469 0.0
C1690 C 0.82207 0.28746 0.88493 0.0
C1691 C 0.83088 0.25092 0.90672 0.0
C1692 C 0.81337 0.29533 0.86335 0.0
C1693 C 0.81298 0.28011 0.84098 0.0
C1694 C 0.82965 0.26377 0.8841 0.0
C1695 C 0.82352 0.25835 0.84051 0.0
C1696 C 0.82934 0.22394 0.90544 0.0
C1697 C 0.82166 0.25192 0.94853 0.0
N1698 N 0.8308 0.25036 0.86187 0.0
N1699 N 0.82797 0.26411 0.9285 0.0
H1700 H 0.09615 0.56756 0.17183 0.0
H1701 H 0.01188 0.48383 0.06082 0.0
H1702 H 0.07956 0.48385 0.16853 0.0
H1703 H 0.06386 0.5557 0.05313 0.0
H1704 H 0.03329 0.48277 0.10105 0.0
H1705 H 0.08099 0.56364 0.12883 0.0
C1706 C 0.08943 0.54834 0.16191 0.0
C1707 C 0.08901 0.52599 0.17357 0.0
C1708 C 0.04014 0.49847 0.09024 0.0
C1709 C 0.0713 0.52134 0.12464 0.0
C1710 C 0.02792 0.49915 0.06747 0.0
C1711 C 0.03608 0.51995 0.05384 0.0
C1712 C 0.06018 0.51902 0.09937 0.0
C1713 C 0.05696 0.53932 0.06308 0.0
C1714 C 0.08091 0.5461 0.13741 0.0
C1715 C 0.08023 0.5015 0.15999 0.0
N1716 N 0.06808 0.53857 0.08542 0.0
N1717 N 0.07128 0.49977 0.13619 0.0
H1718 H 0.735 0.79213 0.45383 0.0
H1719 H 0.79519 0.83386 0.33145 0.0
H1720 H 0.75542 0.87252 0.44034 0.0
H1721 H 0.74818 0.75824 0.33604 0.0
H1722 H 0.78485 0.84822 0.37298 0.0
H1723 H 0.74198 0.77897 0.41135 0.0
C1724 C 0.74035 0.80697 0.4417 0.0
C1725 C 0.74446 0.8334 0.45049 0.0
C1726 C 0.77689 0.82849 0.3648 0.0
C1727 C 0.75353 0.81859 0.40224 0.0
C1728 C 0.78305 0.82025 0.34136 0.0
C1729 C 0.77253 0.79489 0.33047 0.0
C1730 C 0.76049 0.81104 0.37735 0.0
C1731 C 0.7566 0.77802 0.34381 0.0
C1732 C 0.74455 0.79949 0.41754 0.0
C1733 C 0.75172 0.8519 0.43414 0.0
N1734 N 0.75113 0.78636 0.36654 0.0
N1735 N 0.75646 0.84417 0.41084 0.0
H1736 H 0.47317 0.5285 0.79851 0.0
H1737 H 0.43561 0.49587 0.932 0.0
H1738 H 0.39953 0.52722 0.82068 0.0
H1739 H 0.49821 0.47642 0.89752 0.0
H1740 H 0.42292 0.51161 0.89386 0.0
H1741 H 0.48462 0.51642 0.83831 0.0
C1742 C 0.45953 0.52617 0.81201 0.0
C1743 C 0.43531 0.52864 0.80625 0.0
C1744 C 0.43928 0.50366 0.89463 0.0
C1745 C 0.44814 0.5141 0.85175 0.0
C1746 C 0.44642 0.4945 0.91626 0.0
C1747 C 0.46796 0.48479 0.91782 0.0
C1748 C 0.45403 0.5034 0.87467 0.0
C1749 C 0.48144 0.48365 0.89706 0.0
C1750 C 0.466 0.51898 0.83464 0.0
C1751 C 0.41843 0.52557 0.82447 0.0
N1752 N 0.47437 0.49307 0.87644 0.0
N1753 N 0.42508 0.51812 0.84642 0.0
H1754 H 0.79104 0.18338 0.08048 0.0
H1755 H 0.80461 0.30657 0.17998 0.0
H1756 H 0.77578 0.25564 0.06156 0.0
H1757 H 0.7793 0.22785 0.19708 0.0
H1758 H 0.80296 0.28976 0.13637 0.0
H1759 H 0.79627 0.20127 0.12395 0.0
C1760 C 0.78904 0.20305 0.08547 0.0
C1761 C 0.78276 0.21801 0.06755 0.0
C1762 C 0.79781 0.27627 0.14977 0.0
C1763 C 0.78898 0.23853 0.11678 0.0
C1764 C 0.79874 0.2858 0.17452 0.0
C1765 C 0.79195 0.26854 0.19196 0.0
C1766 C 0.79059 0.24933 0.14272 0.0
C1767 C 0.78451 0.2418 0.18411 0.0
C1768 C 0.79189 0.21316 0.11017 0.0
C1769 C 0.78034 0.24339 0.07491 0.0
N1770 N 0.78419 0.23296 0.16003 0.0
N1771 N 0.78353 0.25292 0.099 0.0
H1772 H 0.09244 0.47156 0.30502 0.0
H1773 H 0.98458 0.49052 0.38766 0.0
H1774 H 0.03079 0.50403 0.28381 0.0
H1775 H 0.05123 0.4692 0.41351 0.0
H1776 H 0.9938 0.47956 0.34546 0.0
H1777 H 0.07041 0.45529 0.33978 0.0
C1778 C 0.07401 0.47468 0.30732 0.0
C1779 C 0.0637 0.48987 0.29208 0.0
C1780 C 0.00616 0.47672 0.36035 0.0
C1781 C 0.03858 0.47148 0.33161 0.0
C1782 C 0.00088 0.48297 0.38441 0.0
C1783 C 0.01763 0.48152 0.40389 0.0
C1784 C 0.02853 0.46946 0.35589 0.0
C1785 C 0.03819 0.47115 0.39884 0.0
C1786 C 0.06147 0.46543 0.32716 0.0
C1787 C 0.03969 0.49307 0.29562 0.0
N1788 N 0.04343 0.4661 0.37523 0.0
N1789 N 0.02811 0.48437 0.31529 0.0
H1790 H 0.70674 0.83451 0.58052 0.0
H1791 H 0.76826 0.81446 0.70997 0.0
H1792 H 0.78516 0.8525 0.60136 0.0
H1793 H 0.69724 0.76686 0.68071 0.0
H1794 H 0.7702 0.83779 0.67402 0.0
H1795 H 0.69896 0.81817 0.62068 0.0
C1796 C 0.7222 0.83545 0.59372 0.0
C1797 C 0.74661 0.84467 0.58774 0.0
C1798 C 0.75405 0.82241 0.6755 0.0
C1799 C 0.73796 0.8265 0.63322 0.0
C1800 C 0.75284 0.80915 0.69612 0.0
C1801 C 0.73256 0.78864 0.69829 0.0
C1802 C 0.73493 0.81509 0.65669 0.0
C1803 C 0.71326 0.78249 0.6796 0.0
C1804 C 0.71779 0.82601 0.61644 0.0
C1805 C 0.76608 0.84534 0.60524 0.0
N1806 N 0.71497 0.79558 0.65938 0.0
N1807 N 0.76134 0.8364 0.62713 0.0
H1808 H 0.72249 0.46872 0.55683 0.0
H1809 H 0.60386 0.49167 0.48111 0.0
H1810 H 0.69703 0.43231 0.48338 0.0
H1811 H 0.62981 0.53071 0.5535 0.0
H1812 H 0.64011 0.47279 0.48045 0.0
H1813 H 0.69099 0.49434 0.55489 0.0
C1814 C 0.71041 0.46624 0.54021 0.0
C1815 C 0.71229 0.44815 0.5203 0.0
C1816 C 0.63807 0.48564 0.49643 0.0
C1817 C 0.67611 0.47741 0.51802 0.0
C1818 C 0.61737 0.49645 0.49681 0.0
C1819 C 0.61381 0.51261 0.51748 0.0
C1820 C 0.6553 0.49082 0.51697 0.0
C1821 C 0.63191 0.51829 0.53724 0.0
C1822 C 0.69242 0.4809 0.53913 0.0
C1823 C 0.69619 0.44589 0.49923 0.0
N1824 N 0.65181 0.50718 0.53661 0.0
N1825 N 0.67869 0.46019 0.49872 0.0
H1826 H 0.16621 0.13523 0.47838 0.0
H1827 H 0.0947 0.99152 0.46727 0.0
H1828 H 0.21166 0.07872 0.47382 0.0
H1829 H 0.08233 0.04865 0.52406 0.0
H1830 H 0.13512 0.02031 0.46206 0.0
H1831 H 0.13096 0.10113 0.48546 0.0
C1832 C 0.16875 0.11557 0.47849 0.0
C1833 C 0.192 0.10986 0.47563 0.0
C1834 C 0.12365 0.02611 0.47596 0.0
C1835 C 0.15155 0.07078 0.48374 0.0
C1836 C 0.10071 0.00978 0.47899 0.0
C1837 C 0.08503 0.018 0.49581 0.0
C1838 C 0.13038 0.05078 0.48953 0.0
C1839 C 0.09366 0.04176 0.51059 0.0
C1840 C 0.14865 0.09621 0.48277 0.0
C1841 C 0.19406 0.08393 0.47606 0.0
N1842 N 0.11551 0.05759 0.50671 0.0
N1843 N 0.17396 0.06516 0.47999 0.0
H1844 H 0.2343 0.97465 0.81186 0.0
H1845 H 0.22734 0.83894 0.73023 0.0
H1846 H 0.17338 0.93647 0.75934 0.0
H1847 H 0.28711 0.87449 0.78495 0.0
H1848 H 0.20996 0.87721 0.73733 0.0
H1849 H 0.25612 0.94061 0.79941 0.0
C1850 C 0.22555 0.95921 0.79763 0.0
C1851 C 0.20185 0.95836 0.78678 0.0
C1852 C 0.22702 0.87678 0.74762 0.0
C1853 C 0.22679 0.91933 0.7724 0.0
C1854 C 0.23705 0.85493 0.7435 0.0
C1855 C 0.25866 0.8533 0.75715 0.0
C1856 C 0.23857 0.89722 0.76561 0.0
C1857 C 0.27039 0.87477 0.77402 0.0
C1858 C 0.23804 0.93978 0.79052 0.0
C1859 C 0.19152 0.93789 0.76837 0.0
N1860 N 0.26007 0.8957 0.77795 0.0
N1861 N 0.20398 0.91919 0.76186 0.0
H1862 H 0.33384 0.92781 0.06157 0.0
H1863 H 0.42181 0.98397 0.96623 0.0
H1864 H 0.3036 0.95075 0.9955 0.0
H1865 H 0.44129 0.01197 0.04279 0.0
H1866 H 0.37894 0.96716 0.97596 0.0
H1867 H 0.37432 0.95544 0.05552 0.0
C1868 C 0.3356 0.93918 0.04617 0.0
C1869 C 0.31544 0.93705 0.02899 0.0
C1870 C 0.39263 0.97723 0.99053 0.0
C1871 C 0.36157 0.96759 0.02153 0.0
C1872 C 0.41703 0.98656 0.98504 0.0
C1873 C 0.435 -0.00082 0.00377 0.0
C1874 C 0.38646 0.97993 0.01496 0.0
C1875 C 0.42789 0.00231 0.02784 0.0
C1876 C 0.35863 0.95483 0.04271 0.0
C1877 C 0.31867 0.952 0.00923 0.0
N1878 N 0.4042 0.99231 0.03287 0.0
N1879 N 0.34151 0.96616 0.00566 0.0
H1880 H 0.82891 0.58369 0.70107 0.0
H1881 H 0.76484 0.67315 0.79062 0.0
H1882 H 0.85239 0.6069 0.77777 0.0
H1883 H 0.7503 0.66239 0.7119 0.0
H1884 H 0.79128 0.64197 0.78707 0.0
H1885 H 0.79544 0.60662 0.70549 0.0
C1886 C 0.82703 0.59358 0.71886 0.0
C1887 C 0.84363 0.59356 0.73904 0.0
C1888 C 0.78203 0.64611 0.77059 0.0
C1889 C 0.80517 0.6196 0.74426 0.0
C1890 C 0.76675 0.66373 0.77261 0.0
C1891 C 0.75556 0.67047 0.75149 0.0
C1892 C 0.78617 0.6352 0.74725 0.0
C1893 C 0.75867 0.65774 0.72863 0.0
C1894 C 0.80787 0.60661 0.72136 0.0
C1895 C 0.84018 0.60659 0.76166 0.0
N1896 N 0.77395 0.64091 0.72708 0.0
N1897 N 0.82137 0.61912 0.76364 0.0
H1898 H 0.82493 0.59678 0.93133 0.0
H1899 H 0.91581 0.53927 0.01704 0.0
H1900 H 0.82336 0.60119 0.01012 0.0
H1901 H 0.93139 0.5581 0.94406 0.0
H1902 H 0.87742 0.55469 0.01291 0.0
H1903 H 0.85985 0.57568 0.93398 0.0
C1904 C 0.83184 0.59321 0.94917 0.0
C1905 C 0.82132 0.60094 0.97056 0.0
C1906 C 0.88917 0.55527 -0.00225 0.0
C1907 C 0.86111 0.57663 0.97366 0.0
C1908 C 0.91096 0.54635 5e-05 0.0
C1909 C 0.92676 0.54758 0.9809 0.0
C1910 C 0.88308 0.56521 0.97606 0.0
C1911 C 0.91972 0.55696 0.95928 0.0
C1912 C 0.85179 0.58121 0.95066 0.0
C1913 C 0.83102 0.59576 0.99318 0.0
N1914 N 0.8984 0.56548 0.95745 0.0
N1915 N 0.85036 0.58393 0.99414 0.0
H1916 H 0.20704 0.07142 0.80558 0.0
H1917 H 0.21389 0.20352 0.74821 0.0
H1918 H 0.14258 0.10272 0.79262 0.0
H1919 H 0.27184 0.19696 0.80105 0.0
H1920 H 0.18929 0.16174 0.75756 0.0
H1921 H 0.23341 0.11342 0.79799 0.0
C1922 C 0.19848 0.08709 0.80134 0.0
C1923 C 0.1726 0.08359 0.79983 0.0
C1924 C 0.2074 0.16953 0.7671 0.0
C1925 C 0.20236 0.13093 0.79053 0.0
C1926 C 0.22136 0.19333 0.76184 0.0
C1927 C 0.24467 0.20383 0.77421 0.0
C1928 C 0.21712 0.15587 0.78437 0.0
C1929 C 0.2538 0.18957 0.7913 0.0
C1930 C 0.21347 0.11094 0.79703 0.0
C1931 C 0.16243 0.10452 0.79416 0.0
N1932 N 0.24004 0.16616 0.79583 0.0
N1933 N 0.17729 0.12713 0.78944 0.0
H1934 H 0.35806 0.99345 0.22186 0.0
H1935 H 0.3658 0.84925 0.23905 0.0
H1936 H 0.42651 0.96745 0.2227 0.0
H1937 H 0.29732 0.86765 0.21433 0.0
H1938 H 0.38812 0.89268 0.2324 0.0
H1939 H 0.33505 0.94797 0.21803 0.0
C1940 C 0.36825 0.97821 0.22093 0.0
C1941 C 0.39429 0.98432 0.22291 0.0
C1942 C 0.36825 0.88722 0.22813 0.0
C1943 C 0.36808 0.93236 0.21876 0.0
C1944 C 0.35549 0.86245 0.23203 0.0
C1945 C 0.32968 0.85499 0.2274 0.0
C1946 C 0.3551 0.90495 0.22001 0.0
C1947 C 0.31725 0.87272 0.21808 0.0
C1948 C 0.35509 0.95226 0.2187 0.0
C1949 C 0.40648 0.96375 0.22146 0.0
N1950 N 0.33006 0.89712 0.21505 0.0
N1951 N 0.39329 0.93875 0.2198 0.0
H1952 H 0.54156 0.33752 0.55516 0.0
H1953 H 0.47483 0.45647 0.56149 0.0
H1954 H 0.49943 0.35529 0.61586 0.0
H1955 H 0.52679 0.44167 0.50923 0.0
H1956 H 0.47603 0.41493 0.57748 0.0
H1957 H 0.52858 0.37076 0.53406 0.0
C1958 C 0.52956 0.34852 0.5641 0.0
C1959 C 0.52201 0.34406 0.58754 0.0
C1960 C 0.48679 0.42063 0.56223 0.0
C1961 C 0.50711 0.38253 0.5634 0.0
C1962 C 0.48596 0.44414 0.55303 0.0
C1963 C 0.50094 0.45241 0.53425 0.0
C1964 C 0.50248 0.40547 0.55228 0.0
C1965 C 0.51521 0.43604 0.52395 0.0
C1966 C 0.52204 0.36747 0.55196 0.0
C1967 C 0.5059 0.35841 0.59791 0.0
N1968 N 0.51575 0.41347 0.5332 0.0
N1969 N 0.49923 0.37739 0.58589 0.0
H1970 H 0.3986 0.68254 0.31033 0.0
H1971 H 0.3637 0.78578 0.23762 0.0
H1972 H 0.45561 0.74031 0.2838 0.0
H1973 H 0.31852 0.70766 0.22527 0.0
H1974 H 0.39808 0.7688 0.25373 0.0
H1975 H 0.36931 0.68885 0.2779 0.0
C1976 C 0.40515 0.69593 0.29719 0.0
C1977 C 0.42944 0.71126 0.29999 0.0
C1978 C 0.38086 0.75527 0.24696 0.0
C1979 C 0.39595 0.71903 0.26344 0.0
C1980 C 0.36124 0.76497 0.23793 0.0
C1981 C 0.33841 0.74802 0.23022 0.0
C1982 C 0.37729 0.72856 0.24904 0.0
C1983 C 0.33599 0.72125 0.23099 0.0
C1984 C 0.38843 0.69952 0.27871 0.0
C1985 C 0.437 0.72824 0.28242 0.0
N1986 N 0.35508 0.71233 0.24085 0.0
N1987 N 0.4201 0.73227 0.26531 0.0
H1988 H 0.0549 0.75309 0.06407 0.0
H1989 H 0.06587 0.60913 0.05384 0.0
H1990 H 0.05621 0.71486 0.1296 0.0
H1991 H 0.01253 0.63003 0.00429 0.0
H1992 H 0.06925 0.65042 0.0796 0.0
H1993 H 0.04497 0.71042 0.03927 0.0
C1994 C 0.05281 0.73562 0.07318 0.0
C1995 C 0.05626 0.73726 0.0988 0.0
C1996 C 0.05682 0.6459 0.06309 0.0
C1997 C 0.04578 0.68889 0.07071 0.0
C1998 C 0.05509 0.62258 0.04825 0.0
C1999 C 0.03908 0.61641 0.02682 0.0
C2000 C 0.04296 0.66342 0.05607 0.0
C2001 C 0.02516 0.63423 0.02064 0.0
C2002 C 0.04711 0.71142 0.05908 0.0
C2003 C 0.05348 0.71423 0.10987 0.0
N2004 N 0.02769 0.65723 0.03505 0.0
N2005 N 0.04887 0.69088 0.09568 0.0
H2006 H 0.04585 0.22716 0.82869 0.0
H2007 H 0.14584 0.28169 0.73584 0.0
H2008 H 0.03972 0.2889 0.78481 0.0
H2009 H 0.15282 0.22198 0.7818 0.0
H2010 H 0.10462 0.28114 0.74991 0.0
H2011 H 0.08276 0.22185 0.80842 0.0
C2012 C 0.05218 0.23955 0.8147 0.0
C2013 C 0.03974 0.25869 0.80861 0.0
C2014 C 0.11503 0.26795 0.75673 0.0
C2015 C 0.08216 0.25268 0.78529 0.0
C2016 C 0.13851 0.26818 0.74862 0.0
C2017 C 0.15275 0.25195 0.7578 0.0
C2018 C 0.10579 0.25143 0.7742 0.0
C2019 C 0.14244 0.23486 0.77434 0.0
C2020 C 0.07328 0.23647 0.8031 0.0
C2021 C 0.04877 0.274 0.7902 0.0
N2022 N 0.11967 0.2352 0.78217 0.0
N2023 N 0.06952 0.27078 0.77931 0.0
H2024 H 0.53302 0.68748 0.93137 0.0
H2025 H 0.52732 0.59259 0.03618 0.0
H2026 H 0.51641 0.7089 0.00544 0.0
H2027 H 0.51121 0.56404 0.95932 0.0
H2028 H 0.53128 0.63708 0.02573 0.0
H2029 H 0.53337 0.64362 0.94201 0.0
C2030 C 0.52977 0.68306 0.94991 0.0
C2031 C 0.52453 0.70177 0.96751 0.0
C2032 C 0.52691 0.62104 0.01118 0.0
C2033 C 0.52503 0.65195 0.97976 0.0
C2034 C 0.52468 0.59568 0.01712 0.0
C2035 C 0.51876 0.57457 -0.00138 0.0
C2036 C 0.52363 0.62536 0.98655 0.0
C2037 C 0.51556 0.57972 0.9742 0.0
C2038 C 0.5298 0.65804 0.95591 0.0
C2039 C 0.52031 0.69499 0.99125 0.0
N2040 N 0.51813 0.60462 0.96885 0.0
N2041 N 0.5207 0.67066 -0.00331 0.0
H2042 H 0.04656 0.70324 0.69469 0.0
H2043 H 0.18799 0.77631 0.68646 0.0
H2044 H 0.06787 0.77032 0.65546 0.0
H2045 H 0.16445 0.71376 0.73052 0.0
H2046 H 0.14457 0.77265 0.67219 0.0
H2047 H 0.09 0.70572 0.70607 0.0
C2048 C 0.06037 0.71862 0.68854 0.0
C2049 C 0.05348 0.73665 0.6741 0.0
C2050 C 0.14895 0.7596 0.68483 0.0
C2051 C 0.10357 0.73944 0.68699 0.0
C2052 C 0.1737 0.76155 0.69281 0.0
C2053 C 0.17972 0.7453 0.70968 0.0
C2054 C 0.13019 0.74124 0.69378 0.0
C2055 C 0.16057 0.72666 0.71751 0.0
C2056 C 0.08525 0.71997 0.69502 0.0
C2057 C 0.07231 0.7561 0.66671 0.0
N2058 N 0.13668 0.72521 0.70958 0.0
N2059 N 0.09652 0.75695 0.67319 0.0
H2060 H 0.05592 0.34612 0.51193 0.0
H2061 H 0.07579 0.48305 0.53823 0.0
H2062 H 0.05361 0.36302 0.4368 0.0
H2063 H 0.0169 0.46578 0.48044 0.0
H2064 H 0.08517 0.44041 0.52608 0.0
H2065 H 0.06181 0.39272 0.52562 0.0
C2066 C 0.05759 0.35978 0.49837 0.0
C2067 C 0.05438 0.35084 0.47323 0.0
C2068 C 0.07044 0.44628 0.51597 0.0
C2069 C 0.06018 0.40366 0.48867 0.0
C2070 C 0.06505 0.47045 0.52286 0.0
C2071 C 0.04569 0.47797 0.51013 0.0
C2072 C 0.05667 0.43 0.49594 0.0
C2073 C 0.03228 0.46096 0.49041 0.0
C2074 C 0.06091 0.38628 0.50618 0.0
C2075 C 0.05626 0.3692 0.45635 0.0
N2076 N 0.03815 0.43785 0.48379 0.0
N2077 N 0.05823 0.39471 0.46437 0.0
H2078 H 0.42486 0.21525 0.21109 0.0
H2079 H 0.32635 0.3051 0.21621 0.0
H2080 H 0.4249 0.27464 0.16277 0.0
H2081 H 0.32296 0.23746 0.25467 0.0
H2082 H 0.36562 0.299 0.20048 0.0
H2083 H 0.39099 0.22817 0.23139 0.0
C2084 C 0.41781 0.23114 0.20478 0.0
C2085 C 0.42758 0.24365 0.18495 0.0
C2086 C 0.35631 0.28568 0.21253 0.0
C2087 C 0.38839 0.25854 0.20821 0.0
C2088 C 0.33399 0.2892 0.22159 0.0
C2089 C 0.32125 0.27162 0.23659 0.0
C2090 C 0.36595 0.26459 0.21876 0.0
C2091 C 0.33194 0.25133 0.24292 0.0
C2092 C 0.3984 0.23853 0.21643 0.0
C2093 C 0.41783 0.26436 0.17789 0.0
N2094 N 0.35354 0.24835 0.23393 0.0
N2095 N 0.39857 0.27103 0.18938 0.0
H2096 H 0.56678 0.46937 0.33731 0.0
H2097 H 0.56028 0.53642 0.46633 0.0
H2098 H 0.63269 0.50403 0.38437 0.0
H2099 H 0.50224 0.46985 0.43804 0.0
H2100 H 0.58705 0.52322 0.4363 0.0
H2101 H 0.54279 0.4653 0.3735 0.0
C2102 C 0.57636 0.47488 0.35541 0.0
C2103 C 0.60168 0.48684 0.35806 0.0
C2104 C 0.56862 0.51119 0.43685 0.0
C2105 C 0.57434 0.48361 0.39916 0.0
C2106 C 0.55326 0.51878 0.45394 0.0
C2107 C 0.52913 0.50399 0.45488 0.0
C2108 C 0.55951 0.48918 0.4198 0.0
C2109 C 0.52079 0.48171 0.43794 0.0
C2110 C 0.56266 0.47281 0.37601 0.0
C2111 C 0.61323 0.49443 0.38172 0.0
N2112 N 0.53587 0.47515 0.42076 0.0
N2113 N 0.59934 0.49332 0.40139 0.0
H2114 H 0.21419 0.79584 0.04122 0.0
H2115 H 0.21228 0.81281 0.18462 0.0
H2116 H 0.20945 0.86701 0.08406 0.0
H2117 H 0.23074 0.74862 0.14077 0.0
H2118 H 0.19426 0.82574 0.14747 0.0
H2119 H 0.20217 0.77201 0.07601 0.0
C2120 C 0.20995 0.80631 0.05783 0.0
C2121 C 0.21347 0.83344 0.06017 0.0
C2122 C 0.20165 0.80843 0.14609 0.0
C2123 C 0.20061 0.80656 0.10022 0.0
C2124 C 0.21193 0.80105 0.16724 0.0
C2125 C 0.22369 0.78017 0.16544 0.0
C2126 C 0.20328 0.79476 0.12319 0.0
C2127 C 0.22242 0.76528 0.14273 0.0
C2128 C 0.20312 0.79273 0.07769 0.0
C2129 C 0.20729 0.8461 0.08178 0.0
N2130 N 0.21283 0.77316 0.12238 0.0
N2131 N 0.20187 0.83263 0.10135 0.0
H2132 H 0.93536 0.509 0.82162 0.0
H2133 H 0.03944 0.59139 0.92005 0.0
H2134 H 0.96079 0.59159 0.81943 0.0
H2135 H 0.98851 0.52051 0.9326 0.0
H2136 H 0.01352 0.59266 0.88236 0.0
H2137 H 0.9572 0.51324 0.86188 0.0
C2138 C 0.94537 0.52813 0.82986 0.0
C2139 C 0.94628 0.54998 0.81737 0.0
C2140 C 0.00801 0.5771 0.89367 0.0
C2141 C 0.97189 0.555 0.86325 0.0
C2142 C 0.0228 0.5763 0.91499 0.0
C2143 C 0.01612 0.55579 0.92936 0.0
C2144 C 0.98679 0.55705 0.88678 0.0
C2145 C 0.9944 0.53672 0.92214 0.0
C2146 C 0.95784 0.53058 0.85284 0.0
C2147 C 0.95954 0.57435 0.82874 0.0
N2148 N 0.98068 0.53773 0.90135 0.0
N2149 N 0.97224 0.57621 0.85103 0.0
H2150 H 0.2372 0.22862 0.54853 0.0
H2151 H 0.29955 0.2414 0.68332 0.0
H2152 H 0.2932 0.18614 0.5642 0.0
H2153 H 0.22282 0.24255 0.6674 0.0
H2154 H 0.30254 0.2283 0.63959 0.0
H2155 H 0.23763 0.24242 0.59204 0.0
C2156 C 0.24983 0.22236 0.56106 0.0
C2157 C 0.26505 0.20592 0.55264 0.0
C2158 C 0.28509 0.23134 0.64581 0.0
C2159 C 0.2655 0.22184 0.60268 0.0
C2160 C 0.28335 0.23888 0.67064 0.0
C2161 C 0.26087 0.24305 0.67892 0.0
C2162 C 0.26438 0.22863 0.62922 0.0
C2163 C 0.24045 0.23941 0.66181 0.0
C2164 C 0.24989 0.23016 0.58595 0.0
C2165 C 0.28107 0.19868 0.56991 0.0
N2166 N 0.24276 0.23265 0.63772 0.0
N2167 N 0.28088 0.20669 0.59424 0.0
H2168 H 0.62212 0.48847 0.21783 0.0
H2169 H 0.52982 0.53801 0.12679 0.0
H2170 H 0.57609 0.54089 0.24106 0.0
H2171 H 0.58215 0.49377 0.10178 0.0
H2172 H 0.54556 0.53774 0.16909 0.0
H2173 H 0.60598 0.48774 0.17536 0.0
C2174 C 0.60847 0.49962 0.21404 0.0
C2175 C 0.60051 0.51485 0.23299 0.0
C2176 C 0.55371 0.52818 0.15438 0.0
C2177 C 0.58218 0.51427 0.18458 0.0
C2178 C 0.54478 0.52842 0.13026 0.0
C2179 C 0.55478 0.51594 0.11092 0.0
C2180 C 0.57267 0.51523 0.15913 0.0
C2181 C 0.57404 0.5037 0.11629 0.0
C2182 C 0.59939 0.49932 0.1898 0.0
C2183 C 0.58286 0.52898 0.22703 0.0
N2184 N 0.58233 0.50354 0.13996 0.0
N2185 N 0.57435 0.52839 0.20335 0.0
H2186 H 0.28914 0.86738 0.93783 0.0
H2187 H 0.22072 0.75977 0.83141 0.0
H2188 H 0.21082 0.83419 0.93724 0.0
H2189 H 0.28415 0.82023 0.82078 0.0
H2190 H 0.21809 0.78259 0.87217 0.0
H2191 H 0.289 0.84655 0.89619 0.0
C2192 C 0.27183 0.85593 0.92869 0.0
C2193 C 0.24994 0.8525 0.94073 0.0
C2194 C 0.23256 0.79071 0.86081 0.0
C2195 C 0.24973 0.82806 0.89348 0.0
C2196 C 0.23423 0.77761 0.83777 0.0
C2197 C 0.25292 0.78796 0.82295 0.0
C2198 C 0.24994 0.81397 0.86898 0.0
C2199 C 0.26977 0.8113 0.8318 0.0
C2200 C 0.27175 0.84402 0.905 0.0
C2201 C 0.22798 0.83742 0.92829 0.0
N2202 N 0.26796 0.82343 0.85429 0.0
N2203 N 0.22846 0.82535 0.9053 0.0
H2204 H 0.92948 0.5936 0.679 0.0
H2205 H 0.05043 0.5858 0.6122 0.0
H2206 H 0.99478 0.57503 0.71177 0.0
H2207 H 0.98548 0.60235 0.57661 0.0
H2208 H 0.03485 0.59537 0.65198 0.0
H2209 H 0.95346 0.60961 0.64509 0.0
C2210 C 0.949 0.59354 0.67935 0.0
C2211 C 0.96007 0.58237 0.69773 0.0
C2212 C 0.02416 0.59743 0.63552 0.0
C2213 C 0.98745 0.60042 0.6593 0.0
C2214 C 0.03313 0.59202 0.61283 0.0
C2215 C 0.01887 0.59263 0.59124 0.0
C2216 C 0.0005 0.60283 0.63651 0.0
C2217 C 0.99678 0.60119 0.59296 0.0
C2218 C 0.96266 0.6026 0.66001 0.0
C2219 C 0.98541 0.58288 0.69753 0.0
N2220 N 0.9879 0.60532 0.61525 0.0
N2221 N 0.99813 0.59134 0.67843 0.0
H2222 H 0.27273 0.164 0.39958 0.0
H2223 H 0.31263 0.29022 0.33035 0.0
H2224 H 0.30127 0.23992 0.43939 0.0
H2225 H 0.24458 0.23202 0.31286 0.0
H2226 H 0.32259 0.2666 0.36461 0.0
H2227 H 0.27833 0.18339 0.36087 0.0
C2228 C 0.28129 0.18452 0.4001 0.0
C2229 C 0.28662 0.2005 0.42247 0.0
C2230 C 0.30585 0.25878 0.35272 0.0
C2231 C 0.29283 0.22261 0.37876 0.0
C2232 C 0.30009 0.27222 0.33337 0.0
C2233 C 0.27792 0.26275 0.31855 0.0
C2234 C 0.28957 0.23553 0.35674 0.0
C2235 C 0.26221 0.23949 0.32328 0.0
C2236 C 0.28424 0.19557 0.37812 0.0
C2237 C 0.29707 0.22708 0.42236 0.0
N2238 N 0.26835 0.22663 0.34193 0.0
N2239 N 0.29962 0.23744 0.40075 0.0
H2240 H 0.34177 0.63916 0.53183 0.0
H2241 H 0.40928 0.53374 0.46877 0.0
H2242 H 0.32593 0.606 0.45609 0.0
H2243 H 0.42416 0.5669 0.54448 0.0
H2244 H 0.37574 0.55668 0.46465 0.0
H2245 H 0.36942 0.60996 0.53761 0.0
C2246 C 0.34403 0.62567 0.51642 0.0
C2247 C 0.33163 0.62518 0.49339 0.0
C2248 C 0.38615 0.55871 0.48224 0.0
C2249 C 0.36336 0.59164 0.49988 0.0
C2250 C 0.4052 0.54552 0.48461 0.0
C2251 C 0.41953 0.54859 0.50694 0.0
C2252 C 0.38154 0.57511 0.50235 0.0
C2253 C 0.41359 0.56412 0.52689 0.0
C2254 C 0.35981 0.60895 0.51975 0.0
C2255 C 0.33519 0.60716 0.47414 0.0
N2256 N 0.39518 0.57697 0.52407 0.0
N2257 N 0.35084 0.59122 0.47778 0.0
H2258 H 0.83731 0.89907 0.48435 0.0
H2259 H 0.93994 0.0198 0.5496 0.0
H2260 H 0.82173 0.95172 0.54337 0.0
H2261 H 0.95231 0.96333 0.49225 0.0
H2262 H 0.89528 0.00013 0.54377 0.0
H2263 H 0.87771 0.92765 0.48264 0.0
C2264 C 0.84242 0.91686 0.49687 0.0
C2265 C 0.82644 0.92289 0.51432 0.0
C2266 C 0.90778 0.99234 0.53225 0.0
C2267 C 0.873 0.95562 0.51281 0.0
C2268 C 0.9332 0.00353 0.53556 0.0
C2269 C 0.94974 0.99294 0.52154 0.0
C2270 C 0.89907 0.97055 0.51476 0.0
C2271 C 0.94019 0.97198 0.50355 0.0
C2272 C 0.86551 0.93322 0.49589 0.0
C2273 C 0.8337 0.94638 0.52978 0.0
N2274 N 0.91553 0.96138 0.50082 0.0
N2275 N 0.85676 0.96177 0.52898 0.0
H2276 H 0.88653 0.12667 0.28955 0.0
H2277 H 0.77183 0.17785 0.23525 0.0
H2278 H 0.83163 0.08047 0.23469 0.0
H2279 H 0.82463 0.21989 0.29398 0.0
H2280 H 0.79149 0.14078 0.23618 0.0
H2281 H 0.86235 0.15984 0.29277 0.0
C2282 C 0.86929 0.1234 0.27827 0.0
C2283 C 0.86121 0.10077 0.26172 0.0
C2284 C 0.79859 0.15806 0.249 0.0
C2285 C 0.83335 0.13895 0.26519 0.0
C2286 C 0.78733 0.17921 0.24853 0.0
C2287 C 0.79668 0.20215 0.26443 0.0
C2288 C 0.81936 0.1599 0.26545 0.0
C2289 C 0.81686 0.20275 0.28121 0.0
C2290 C 0.85544 0.14239 0.28012 0.0
C2291 C 0.83861 0.09762 0.24767 0.0
N2292 N 0.82757 0.18209 0.28114 0.0
N2293 N 0.82557 0.1166 0.24957 0.0
H2294 H 0.71959 0.10623 0.00101 0.0
H2295 H 0.58046 0.06205 0.94154 0.0
H2296 H 0.69046 0.14923 0.94842 0.0
H2297 H 0.60057 0.05836 0.01782 0.0
H2298 H 0.62396 0.08234 0.93624 0.0
H2299 H 0.67882 0.07615 -0.00105 0.0
C2300 C 0.70481 0.10892 0.98855 0.0
C2301 C 0.70822 0.13036 0.97506 0.0
C2302 C 0.61878 0.07671 0.954 0.0
C2303 C 0.66195 0.09609 0.97252 0.0
C2304 C 0.59411 0.06516 0.95703 0.0
C2305 C 0.58704 0.05891 0.98021 0.0
C2306 C 0.63641 0.08127 0.97415 0.0
C2307 C 0.60531 0.06329 -0.00026 0.0
C2308 C 0.6816 0.09189 0.98753 0.0
C2309 C 0.68844 0.13307 0.95931 0.0
N2310 N 0.62922 0.07421 -0.00373 0.0
N2311 N 0.66604 0.11618 0.95855 0.0
H2312 H 0.19018 0.48238 0.29824 0.0
H2313 H 0.23895 0.37159 0.21945 0.0
H2314 H 0.16993 0.45829 0.22106 0.0
H2315 H 0.25251 0.38856 0.29807 0.0
H2316 H 0.22003 0.40891 0.21872 0.0
H2317 H 0.21856 0.45311 0.29758 0.0
C2318 C 0.19178 0.47103 0.28112 0.0
C2319 C 0.17745 0.47255 0.25972 0.0
C2320 C 0.22743 0.40473 0.23611 0.0
C2321 C 0.20999 0.43916 0.25884 0.0
C2322 C 0.23835 0.38352 0.23652 0.0
C2323 C 0.24702 0.37692 0.25889 0.0
C2324 C 0.22502 0.41931 0.25828 0.0
C2325 C 0.24591 0.393 0.28046 0.0
C2326 C 0.20803 0.45436 0.28077 0.0
C2327 C 0.18042 0.45754 0.23805 0.0
N2328 N 0.23476 0.41331 0.27967 0.0
N2329 N 0.19626 0.44137 0.2382 0.0
H2330 H 0.22162 0.45611 0.97317 0.0
H2331 H 0.11991 0.51755 0.04056 0.0
H2332 H 0.19764 0.43934 0.0445 0.0
H2333 H 0.13601 0.52693 0.96561 0.0
H2334 H 0.15314 0.49445 0.0444 0.0
H2335 H 0.19483 0.48702 0.97203 0.0
C2336 C 0.21087 0.45904 0.98867 0.0
C2337 C 0.21173 0.44491 0.00888 0.0
C2338 C 0.14963 0.50177 0.02717 0.0
C2339 C 0.18108 0.48034 0.00769 0.0
C2340 C 0.13074 0.51509 0.02501 0.0
C2341 C 0.12514 0.524 0.00268 0.0
C2342 C 0.16301 0.49721 0.00681 0.0
C2343 C 0.13974 0.52031 0.98313 0.0
C2344 C 0.19556 0.47669 0.98798 0.0
C2345 C 0.19744 0.44961 0.02845 0.0
N2346 N 0.15788 0.50696 0.98557 0.0
N2347 N 0.18265 0.46681 0.02731 0.0
H2348 H 0.82599 0.97132 0.23135 0.0
H2349 H 0.81559 0.81983 0.23072 0.0
H2350 H 0.87726 0.93076 0.19742 0.0
H2351 H 0.75277 0.85371 0.24214 0.0
H2352 H 0.83877 0.86122 0.2195 0.0
H2353 H 0.79824 0.92923 0.23517 0.0
C2354 C 0.8312 0.95364 0.22425 0.0
C2355 C 0.85418 0.95459 0.21439 0.0
C2356 C 0.8199 0.85966 0.22439 0.0
C2357 C 0.82281 0.90656 0.21914 0.0
C2358 C 0.80684 0.83615 0.23112 0.0
C2359 C 0.78253 0.83366 0.2378 0.0
C2360 C 0.80862 0.88093 0.2246 0.0
C2361 C 0.77162 0.85506 0.23726 0.0
C2362 C 0.81539 0.92964 0.22654 0.0
C2363 C 0.85991 0.93104 0.20547 0.0
N2364 N 0.78485 0.87799 0.23101 0.0
N2365 N 0.84454 0.90802 0.20841 0.0
H2366 H 0.62711 0.10115 0.78502 0.0
H2367 H 0.73677 0.18216 0.72608 0.0
H2368 H 0.67143 0.06289 0.73812 0.0
H2369 H 0.72168 0.20643 0.79988 0.0
H2370 H 0.71311 0.13813 0.72986 0.0
H2371 H 0.66108 0.14006 0.79113 0.0
C2372 C 0.64411 0.10083 0.77629 0.0
C2373 C 0.64638 0.07893 0.7608 0.0
C2374 C 0.71547 0.15292 0.74544 0.0
C2375 C 0.68498 0.12331 0.76743 0.0
C2376 C 0.72889 0.17797 0.74326 0.0
C2377 C 0.73105 0.19774 0.7627 0.0
C2378 C 0.70344 0.14794 0.76688 0.0
C2379 C 0.72048 0.19154 0.78457 0.0
C2380 C 0.6635 0.12294 0.77991 0.0
C2381 C 0.66887 0.07943 0.7501 0.0
N2382 N 0.70654 0.16723 0.7859 0.0
N2383 N 0.68713 0.10151 0.75318 0.0
loop_
_geom_bond_atom_site_label_1
_geom_bond_atom_site_label_2
_geom_bond_distance
_geom_bond_site_symmetry_2
_ccdc_geom_bond_type
Zn0 O3 2.035 . S
Zn0 O5 2.049 . S
Zn0 O10 2.067 . S
Zn1 O2 1.962 . S
Zn1 O4 1.986 . S
Zn1 O6 1.996 . S
Zn1 O9 1.943 . S
O2 Zn1 1.962 . S
O2 C7 1.254 . S
O3 Zn0 2.035 . S
O3 C7 1.250 1_655 S
O4 Zn1 1.986 . S
O4 C11 1.262 . S
O5 Zn0 2.049 . S
O5 C13 1.260 1_655 S
O6 Zn1 1.996 . S
O6 C13 1.257 . S
C7 O2 1.254 . S
C7 O3 1.250 1_455 S
C8 O9 1.249 1_655 S
C8 O10 1.270 . S
O9 Zn1 1.943 . S
O9 C8 1.249 1_455 S
O10 Zn0 2.067 . S
O10 C8 1.270 . S
C11 O4 1.262 . S
C11 O12 1.232 . S
O12 C11 1.232 . S
C13 O5 1.260 1_455 S
C13 O6 1.257 . S
Zn14 O17 2.031 1_455 S
Zn14 O19 2.049 . S
Zn14 O24 2.067 . S
Zn15 O16 1.962 1_455 S
Zn15 O18 1.986 . S
Zn15 O20 1.996 . S
Zn15 O23 1.943 . S
O16 Zn15 1.962 1_655 S
O16 C21 1.254 . S
O17 Zn14 2.031 1_655 S
O17 C21 1.269 . S
O18 Zn15 1.986 . S
O18 C25 1.262 . S
O19 Zn14 2.049 . S
O19 C27 1.260 . S
O20 Zn15 1.996 . S
O20 C27 1.257 . S
C21 O16 1.254 . S
C21 O17 1.269 . S
C22 O23 1.249 . S
C22 O24 1.270 . S
O23 Zn15 1.943 . S
O23 C22 1.249 . S
O24 Zn14 2.067 . S
O24 C22 1.270 . S
C25 O18 1.262 . S
C25 O26 1.232 1_455 S
O26 C25 1.232 1_655 S
C27 O19 1.260 . S
C27 O20 1.257 . S
Zn28 O31 2.031 . S
Zn28 O33 2.049 . S
Zn28 O38 2.067 . S
Zn29 O30 1.962 . S
Zn29 O32 1.986 . S
Zn29 O34 1.996 . S
Zn29 O37 1.943 . S
O30 Zn29 1.962 . S
O30 C35 1.254 . S
O31 Zn28 2.031 . S
O31 C35 1.269 . S
O32 Zn29 1.986 . S
O32 C39 1.262 . S
O33 Zn28 2.049 . S
O33 C41 1.260 . S
O34 Zn29 1.996 . S
O34 C41 1.257 . S
C35 O30 1.254 . S
C35 O31 1.269 . S
C36 O37 1.249 . S
C36 O38 1.270 . S
O37 Zn29 1.943 . S
O37 C36 1.249 . S
O38 Zn28 2.067 . S
O38 C36 1.270 . S
C39 O32 1.262 . S
C39 O40 1.232 . S
O40 C39 1.232 . S
C41 O33 1.260 . S
C41 O34 1.257 . S
Zn42 O45 2.031 . S
Zn42 O47 2.049 . S
Zn42 O52 2.067 . S
Zn43 O44 1.962 . S
Zn43 O46 1.986 . S
Zn43 O48 1.996 . S
Zn43 O51 1.943 . S
O44 Zn43 1.962 . S
O44 C49 1.254 . S
O45 Zn42 2.031 . S
O45 C49 1.269 . S
O46 Zn43 1.986 . S
O46 C53 1.262 . S
O47 Zn42 2.049 . S
O47 C55 1.260 . S
O48 Zn43 1.996 . S
O48 C55 1.257 . S
C49 O44 1.254 . S
C49 O45 1.269 . S
C50 O51 1.249 . S
C50 O52 1.270 . S
O51 Zn43 1.943 . S
O51 C50 1.249 . S
O52 Zn42 2.067 . S
O52 C50 1.270 . S
C53 O46 1.262 . S
C53 O54 1.232 . S
O54 C53 1.232 . S
C55 O47 1.260 . S
C55 O48 1.257 . S
Zn56 O59 2.031 . S
Zn56 O61 2.049 . S
Zn56 O66 2.067 . S
Zn57 O58 1.962 . S
Zn57 O60 1.986 1_455 S
Zn57 O62 1.996 . S
Zn57 O65 1.943 . S
O58 Zn57 1.962 . S
O58 C63 1.254 . S
O59 Zn56 2.031 . S
O59 C63 1.269 . S
O60 Zn57 1.986 1_655 S
O60 C67 1.262 . S
O61 Zn56 2.049 . S
O61 C69 1.260 . S
O62 Zn57 1.996 . S
O62 C69 1.257 . S
C63 O58 1.254 . S
C63 O59 1.269 . S
C64 O65 1.249 . S
C64 O66 1.270 . S
O65 Zn57 1.943 . S
O65 C64 1.249 . S
O66 Zn56 2.067 . S
O66 C64 1.270 . S
C67 O60 1.262 . S
C67 O68 1.232 . S
O68 C67 1.232 . S
C69 O61 1.260 . S
C69 O62 1.257 . S
Zn70 O73 2.031 . S
Zn70 O75 2.049 . S
Zn70 O80 2.067 . S
Zn71 O72 1.962 . S
Zn71 O74 1.986 . S
Zn71 O76 1.996 . S
Zn71 O79 1.943 . S
O72 Zn71 1.962 . S
O72 C77 1.254 . S
O73 Zn70 2.031 . S
O73 C77 1.269 . S
O74 Zn71 1.986 . S
O74 C81 1.262 . S
O75 Zn70 2.049 . S
O75 C83 1.260 . S
O76 Zn71 1.996 . S
O76 C83 1.257 . S
C77 O72 1.254 . S
C77 O73 1.269 . S
C78 O79 1.249 . S
C78 O80 1.270 . S
O79 Zn71 1.943 . S
O79 C78 1.249 . S
O80 Zn70 2.067 . S
O80 C78 1.270 . S
C81 O74 1.262 . S
C81 O82 1.232 . S
O82 C81 1.232 . S
C83 O75 1.260 . S
C83 O76 1.257 . S
Zn84 O87 2.031 . S
Zn84 O89 2.049 . S
Zn84 O94 2.067 . S
Zn85 O86 1.962 . S
Zn85 O88 1.986 . S
Zn85 O90 1.996 . S
Zn85 O93 1.943 . S
O86 Zn85 1.962 . S
O86 C91 1.254 . S
O87 Zn84 2.031 . S
O87 C91 1.269 . S
O88 Zn85 1.986 . S
O88 C95 1.262 . S
O89 Zn84 2.049 . S
O89 C97 1.260 . S
O90 Zn85 1.996 . S
O90 C97 1.257 . S
C91 O86 1.254 . S
C91 O87 1.269 . S
C92 O93 1.249 . S
C92 O94 1.270 . S
O93 Zn85 1.943 . S
O93 C92 1.249 . S
O94 Zn84 2.067 . S
O94 C92 1.270 . S
C95 O88 1.262 . S
C95 O96 1.232 . S
O96 C95 1.232 . S
C97 O89 1.260 . S
C97 O90 1.257 . S
Zn98 O101 2.031 . S
Zn98 O103 2.049 . S
Zn98 O108 2.067 . S
Zn99 O100 1.962 . S
Zn99 O102 1.986 . S
Zn99 O104 1.996 . S
Zn99 O107 1.943 1_455 S
O100 Zn99 1.962 . S
O100 C105 1.289 . S
O101 Zn98 2.031 . S
O101 C105 1.237 1_655 S
O102 Zn99 1.986 . S
O102 C109 1.262 . S
O103 Zn98 2.049 . S
O103 C111 1.260 . S
O104 Zn99 1.996 . S
O104 C111 1.257 1_455 S
C105 O100 1.289 . S
C105 O101 1.237 1_455 S
C106 O107 1.249 . S
C106 O108 1.270 . S
O107 Zn99 1.943 1_655 S
O107 C106 1.249 . S
O108 Zn98 2.067 . S
O108 C106 1.270 . S
C109 O102 1.262 . S
C109 O110 1.232 . S
O110 C109 1.232 . S
C111 O103 1.260 . S
C111 O104 1.257 1_655 S
Zn112 O115 2.026 1_565 S
Zn112 O117 2.049 . S
Zn112 O122 2.067 . S
Zn113 O114 1.962 . S
Zn113 O116 1.986 . S
Zn113 O118 1.996 . S
Zn113 O121 1.943 . S
O114 Zn113 1.962 . S
O114 C119 1.254 . S
O115 Zn112 2.026 1_545 S
O115 C119 1.289 . S
O116 Zn113 1.986 . S
O116 C123 1.262 . S
O117 Zn112 2.049 . S
O117 C125 1.260 1_565 S
O118 Zn113 1.996 . S
O118 C125 1.257 . S
C119 O114 1.254 . S
C119 O115 1.289 . S
C120 O121 1.249 1_565 S
C120 O122 1.270 . S
O121 Zn113 1.943 . S
O121 C120 1.249 1_545 S
O122 Zn112 2.067 . S
O122 C120 1.270 . S
C123 O116 1.262 . S
C123 O124 1.232 . S
O124 C123 1.232 . S
C125 O117 1.260 1_545 S
C125 O118 1.257 . S
Zn126 O129 2.031 . S
Zn126 O131 2.049 . S
Zn126 O136 2.067 . S
Zn127 O128 1.962 . S
Zn127 O130 1.986 . S
Zn127 O132 1.996 . S
Zn127 O135 1.943 . S
O128 Zn127 1.962 . S
O128 C133 1.254 . S
O129 Zn126 2.031 . S
O129 C133 1.269 . S
O130 Zn127 1.986 . S
O130 C137 1.262 . S
O131 Zn126 2.049 . S
O131 C139 1.260 . S
O132 Zn127 1.996 . S
O132 C139 1.257 . S
C133 O128 1.254 . S
C133 O129 1.269 . S
C134 O135 1.249 . S
C134 O136 1.270 . S
O135 Zn127 1.943 . S
O135 C134 1.249 . S
O136 Zn126 2.067 . S
O136 C134 1.270 . S
C137 O130 1.262 . S
C137 O138 1.232 . S
O138 C137 1.232 . S
C139 O131 1.260 . S
C139 O132 1.257 . S
Zn140 O143 2.031 . S
Zn140 O145 2.049 . S
Zn140 O150 2.067 . S
Zn141 O142 1.962 . S
Zn141 O144 1.986 . S
Zn141 O146 1.996 . S
Zn141 O149 1.943 1_565 S
O142 Zn141 1.962 . S
O142 C147 1.254 1_565 S
O143 Zn140 2.031 . S
O143 C147 1.269 . S
O144 Zn141 1.986 . S
O144 C151 1.262 . S
O145 Zn140 2.049 . S
O145 C153 1.260 . S
O146 Zn141 1.996 . S
O146 C153 1.257 1_565 S
C147 O142 1.254 1_545 S
C147 O143 1.269 . S
C148 O149 1.249 . S
C148 O150 1.270 . S
O149 Zn141 1.943 1_545 S
O149 C148 1.249 . S
O150 Zn140 2.067 . S
O150 C148 1.270 . S
C151 O144 1.262 . S
C151 O152 1.232 . S
O152 C151 1.232 . S
C153 O145 1.260 . S
C153 O146 1.257 1_545 S
Zn154 O157 2.031 1_554 S
Zn154 O159 2.049 . S
Zn154 O164 2.067 . S
Zn155 O156 1.962 1_554 S
Zn155 O158 1.986 . S
Zn155 O160 1.996 . S
Zn155 O163 1.943 . S
O156 Zn155 1.962 1_556 S
O156 C161 1.254 . S
O157 Zn154 2.031 1_556 S
O157 C161 1.269 . S
O158 Zn155 1.986 . S
O158 C165 1.262 . S
O159 Zn154 2.049 . S
O159 C167 1.260 . S
O160 Zn155 1.996 . S
O160 C167 1.257 . S
C161 O156 1.254 . S
C161 O157 1.269 . S
C162 O163 1.249 . S
C162 O164 1.270 . S
O163 Zn155 1.943 . S
O163 C162 1.249 . S
O164 Zn154 2.067 . S
O164 C162 1.270 . S
C165 O158 1.262 . S
C165 O166 1.269 . S
O166 C165 1.269 . S
C167 O159 1.260 . S
C167 O160 1.257 . S
Zn168 O171 2.031 1_554 S
Zn168 O173 2.049 . S
Zn168 O178 2.067 . S
Zn169 O170 1.962 1_554 S
Zn169 O172 1.986 . S
Zn169 O174 1.996 . S
Zn169 O177 1.943 . S
O170 Zn169 1.962 1_556 S
O170 C175 1.254 . S
O171 Zn168 2.031 1_556 S
O171 C175 1.269 . S
O172 Zn169 1.986 . S
O172 C179 1.262 . S
O173 Zn168 2.049 . S
O173 C181 1.260 . S
O174 Zn169 1.996 . S
O174 C181 1.257 . S
C175 O170 1.254 . S
C175 O171 1.269 . S
C176 O177 1.249 . S
C176 O178 1.270 . S
O177 Zn169 1.943 . S
O177 C176 1.249 . S
O178 Zn168 2.067 . S
O178 C176 1.270 . S
C179 O172 1.262 . S
C179 O180 1.232 1_554 S
O180 C179 1.232 1_556 S
C181 O173 1.260 . S
C181 O174 1.257 . S
Zn182 O185 2.031 1_554 S
Zn182 O187 2.049 . S
Zn182 O192 2.067 . S
Zn183 O184 1.962 1_554 S
Zn183 O186 1.986 . S
Zn183 O188 1.996 . S
Zn183 O191 1.945 1_554 S
O184 Zn183 1.962 1_556 S
O184 C189 1.254 . S
O185 Zn182 2.031 1_556 S
O185 C189 1.269 . S
O186 Zn183 1.986 . S
O186 C193 1.249 1_554 S
O187 Zn182 2.049 . S
O187 C195 1.260 . S
O188 Zn183 1.996 . S
O188 C195 1.257 . S
C189 O184 1.254 . S
C189 O185 1.269 . S
C190 O191 1.244 1_554 S
C190 O192 1.281 . S
O191 Zn183 1.945 1_556 S
O191 C190 1.244 1_556 S
O192 Zn182 2.067 . S
O192 C190 1.281 . S
C193 O186 1.249 1_556 S
C193 O194 1.249 . S
O194 C193 1.249 . S
C195 O187 1.260 . S
C195 O188 1.257 . S
Zn196 O199 2.031 . S
Zn196 O201 2.049 . S
Zn196 O206 2.067 . S
Zn197 O198 1.962 . S
Zn197 O200 1.986 . S
Zn197 O202 1.996 . S
Zn197 O205 1.943 . S
O198 Zn197 1.962 . S
O198 C203 1.254 . S
O199 Zn196 2.031 . S
O199 C203 1.269 . S
O200 Zn197 1.986 . S
O200 C207 1.262 . S
O201 Zn196 2.049 . S
O201 C209 1.260 . S
O202 Zn197 1.996 . S
O202 C209 1.257 . S
C203 O198 1.254 . S
C203 O199 1.269 . S
C204 O205 1.249 . S
C204 O206 1.270 . S
O205 Zn197 1.943 . S
O205 C204 1.249 . S
O206 Zn196 2.067 . S
O206 C204 1.270 . S
C207 O200 1.262 . S
C207 O208 1.232 . S
O208 C207 1.232 . S
C209 O201 1.260 . S
C209 O202 1.257 . S
Zn210 O213 2.031 . S
Zn210 O215 2.049 . S
Zn210 O220 2.067 . S
Zn211 O212 1.962 . S
Zn211 O214 1.986 . S
Zn211 O216 1.996 . S
Zn211 O219 1.943 . S
O212 Zn211 1.962 . S
O212 C217 1.254 . S
O213 Zn210 2.031 . S
O213 C217 1.269 . S
O214 Zn211 1.986 . S
O214 C221 1.262 . S
O215 Zn210 2.049 . S
O215 C223 1.260 . S
O216 Zn211 1.996 . S
O216 C223 1.257 . S
C217 O212 1.254 . S
C217 O213 1.269 . S
C218 O219 1.249 . S
C218 O220 1.270 . S
O219 Zn211 1.943 . S
O219 C218 1.249 . S
O220 Zn210 2.067 . S
O220 C218 1.270 . S
C221 O214 1.262 . S
C221 O222 1.232 . S
O222 C221 1.232 . S
C223 O215 1.260 . S
C223 O216 1.257 . S
Zn224 O227 2.031 . S
Zn224 O229 2.049 . S
Zn224 O234 2.067 1_545 S
Zn225 O226 1.962 . S
Zn225 O228 1.986 . S
Zn225 O230 1.996 . S
Zn225 O233 1.943 . S
O226 Zn225 1.962 . S
O226 C231 1.254 . S
O227 Zn224 2.031 . S
O227 C231 1.269 . S
O228 Zn225 1.986 . S
O228 C235 1.262 . S
O229 Zn224 2.049 . S
O229 C237 1.260 . S
O230 Zn225 1.996 . S
O230 C237 1.257 . S
C231 O226 1.254 . S
C231 O227 1.269 . S
C232 O233 1.249 . S
C232 O234 1.270 1_545 S
O233 Zn225 1.943 . S
O233 C232 1.249 . S
O234 Zn224 2.067 1_565 S
O234 C232 1.270 1_565 S
C235 O228 1.262 . S
C235 O236 1.232 . S
O236 C235 1.232 . S
C237 O229 1.260 . S
C237 O230 1.257 . S
Zn238 O241 2.031 . S
Zn238 O243 2.049 . S
Zn238 O248 2.067 . S
Zn239 O240 1.962 . S
Zn239 O242 1.986 . S
Zn239 O244 1.996 . S
Zn239 O247 1.943 . S
O240 Zn239 1.962 . S
O240 C245 1.254 . S
O241 Zn238 2.031 . S
O241 C245 1.269 . S
O242 Zn239 1.986 . S
O242 C249 1.262 . S
O243 Zn238 2.049 . S
O243 C251 1.260 . S
O244 Zn239 1.996 . S
O244 C251 1.257 . S
C245 O240 1.254 . S
C245 O241 1.269 . S
C246 O247 1.249 . S
C246 O248 1.270 . S
O247 Zn239 1.943 . S
O247 C246 1.249 . S
O248 Zn238 2.067 . S
O248 C246 1.270 . S
C249 O242 1.262 . S
C249 O250 1.232 . S
O250 C249 1.232 . S
C251 O243 1.260 . S
C251 O244 1.257 . S
Zn252 O255 2.031 . S
Zn252 O257 2.049 . S
Zn252 O262 2.067 . S
Zn253 O254 1.962 . S
Zn253 O256 1.986 . S
Zn253 O258 1.996 . S
Zn253 O261 1.943 . S
O254 Zn253 1.962 . S
O254 C259 1.254 . S
O255 Zn252 2.031 . S
O255 C259 1.269 . S
O256 Zn253 1.986 . S
O256 C263 1.262 . S
O257 Zn252 2.049 . S
O257 C265 1.260 . S
O258 Zn253 1.996 . S
O258 C265 1.257 . S
C259 O254 1.254 . S
C259 O255 1.269 . S
C260 O261 1.249 . S
C260 O262 1.270 . S
O261 Zn253 1.943 . S
O261 C260 1.249 . S
O262 Zn252 2.067 . S
O262 C260 1.270 . S
C263 O256 1.262 . S
C263 O264 1.232 . S
O264 C263 1.232 . S
C265 O257 1.260 . S
C265 O258 1.257 . S
Zn266 O269 2.031 . S
Zn266 O271 2.049 . S
Zn266 O276 2.067 . S
Zn267 O268 1.962 . S
Zn267 O270 1.986 1_545 S
Zn267 O272 1.996 . S
Zn267 O275 1.943 . S
O268 Zn267 1.962 . S
O268 C273 1.254 . S
O269 Zn266 2.031 . S
O269 C273 1.269 . S
O270 Zn267 1.986 1_565 S
O270 C277 1.262 . S
O271 Zn266 2.049 . S
O271 C279 1.260 . S
O272 Zn267 1.996 . S
O272 C279 1.257 . S
C273 O268 1.254 . S
C273 O269 1.269 . S
C274 O275 1.249 . S
C274 O276 1.270 . S
O275 Zn267 1.943 . S
O275 C274 1.249 . S
O276 Zn266 2.067 . S
O276 C274 1.270 . S
C277 O270 1.262 . S
C277 O278 1.232 . S
O278 C277 1.232 . S
C279 O271 1.260 . S
C279 O272 1.257 . S
Zn280 O283 2.031 1_554 S
Zn280 O285 2.049 . S
Zn280 O290 2.067 . S
Zn281 O282 1.962 1_554 S
Zn281 O284 1.986 . S
Zn281 O286 1.996 . S
Zn281 O289 1.943 . S
O282 Zn281 1.962 1_556 S
O282 C287 1.254 . S
O283 Zn280 2.031 1_556 S
O283 C287 1.269 . S
O284 Zn281 1.986 . S
O284 C291 1.262 . S
O285 Zn280 2.049 . S
O285 C293 1.260 . S
O286 Zn281 1.996 . S
O286 C293 1.257 . S
C287 O282 1.254 . S
C287 O283 1.269 . S
C288 O289 1.249 . S
C288 O290 1.270 . S
O289 Zn281 1.943 . S
O289 C288 1.249 . S
O290 Zn280 2.067 . S
O290 C288 1.270 . S
C291 O284 1.262 . S
C291 O292 1.232 1_554 S
O292 C291 1.232 1_556 S
C293 O285 1.260 . S
C293 O286 1.257 . S
Zn294 O297 2.031 . S
Zn294 O299 2.049 . S
Zn294 O304 2.067 . S
Zn295 O296 1.962 . S
Zn295 O298 1.986 . S
Zn295 O300 1.996 . S
Zn295 O303 1.943 . S
O296 Zn295 1.962 . S
O296 C301 1.254 . S
O297 Zn294 2.031 . S
O297 C301 1.269 . S
O298 Zn295 1.986 . S
O298 C305 1.262 . S
O299 Zn294 2.049 . S
O299 C307 1.260 . S
O300 Zn295 1.996 . S
O300 C307 1.257 . S
C301 O296 1.254 . S
C301 O297 1.269 . S
C302 O303 1.249 . S
C302 O304 1.270 . S
O303 Zn295 1.943 . S
O303 C302 1.249 . S
O304 Zn294 2.067 . S
O304 C302 1.270 . S
C305 O298 1.262 . S
C305 O306 1.232 . S
O306 C305 1.232 . S
C307 O299 1.260 . S
C307 O300 1.257 . S
Zn308 O311 2.031 . S
Zn308 O313 2.049 . S
Zn308 O318 2.067 . S
Zn309 O310 1.962 . S
Zn309 O312 1.986 . S
Zn309 O314 1.996 . S
Zn309 O317 1.943 . S
O310 Zn309 1.962 . S
O310 C315 1.254 . S
O311 Zn308 2.031 . S
O311 C315 1.269 . S
O312 Zn309 1.986 . S
O312 C319 1.262 . S
O313 Zn308 2.049 . S
O313 C321 1.260 . S
O314 Zn309 1.996 . S
O314 C321 1.257 . S
C315 O310 1.254 . S
C315 O311 1.269 . S
C316 O317 1.249 . S
C316 O318 1.270 . S
O317 Zn309 1.943 . S
O317 C316 1.249 . S
O318 Zn308 2.067 . S
O318 C316 1.270 . S
C319 O312 1.262 . S
C319 O320 1.232 . S
O320 C319 1.232 . S
C321 O313 1.260 . S
C321 O314 1.257 . S
Zn322 O325 2.031 . S
Zn322 O327 2.049 . S
Zn322 O332 2.067 . S
Zn323 O324 1.962 . S
Zn323 O326 1.986 . S
Zn323 O328 1.996 . S
Zn323 O331 1.943 . S
O324 Zn323 1.962 . S
O324 C329 1.254 . S
O325 Zn322 2.031 . S
O325 C329 1.269 . S
O326 Zn323 1.986 . S
O326 C333 1.262 . S
O327 Zn322 2.049 . S
O327 C335 1.260 . S
O328 Zn323 1.996 . S
O328 C335 1.257 . S
C329 O324 1.254 . S
C329 O325 1.269 . S
C330 O331 1.249 . S
C330 O332 1.270 . S
O331 Zn323 1.943 . S
O331 C330 1.249 . S
O332 Zn322 2.067 . S
O332 C330 1.270 . S
C333 O326 1.262 . S
C333 O334 1.232 . S
O334 C333 1.232 . S
C335 O327 1.260 . S
C335 O328 1.257 . S
Dy336 O340 2.398 . S
Dy336 O341 2.491 1_556 S
Dy336 O342 2.403 . S
Dy336 O343 2.664 1_655 S
Dy336 O347 2.326 1_655 S
Dy336 O351 2.310 1_656 S
Dy336 O352 2.351 1_546 S
C337 O348 1.185 . S
C337 O349 1.355 . S
C338 O340 1.185 . S
C338 O341 1.355 1_556 S
Dy339 O343 2.310 1_554 S
Dy339 O346 2.351 . S
Dy339 O348 2.398 . S
Dy339 O349 2.491 . S
Dy339 O350 2.403 . S
Dy339 O351 2.664 . S
Dy339 O353 2.326 1_545 S
O340 Dy336 2.398 . S
O340 C338 1.185 . S
O341 Dy336 2.491 1_554 S
O341 C338 1.355 1_554 S
O342 Dy336 2.403 . S
O342 C344 1.254 1_655 S
O343 Dy336 2.664 1_455 S
O343 Dy339 2.310 1_556 S
O343 C344 1.268 . S
C344 O342 1.254 1_455 S
C344 O343 1.268 . S
C345 O350 1.254 . S
C345 O351 1.268 . S
O346 Dy339 2.351 . S
O346 C354 1.249 . S
O347 Dy336 2.326 1_455 S
O347 C354 1.267 1_556 S
O348 C337 1.185 . S
O348 Dy339 2.398 . S
O349 C337 1.355 . S
O349 Dy339 2.491 . S
O350 Dy339 2.403 . S
O350 C345 1.254 . S
O351 Dy336 2.310 1_454 S
O351 Dy339 2.664 . S
O351 C345 1.268 . S
O352 Dy336 2.351 1_564 S
O352 C355 1.249 1_655 S
O353 Dy339 2.326 1_565 S
O353 C355 1.267 . S
C354 O346 1.249 . S
C354 O347 1.267 1_554 S
C355 O352 1.249 1_455 S
C355 O353 1.267 . S
Dy356 O360 2.398 . S
Dy356 O361 2.491 . S
Dy356 O362 2.403 . S
Dy356 O363 2.664 . S
Dy356 O367 2.326 . S
Dy356 O371 2.310 . S
Dy356 O372 2.351 . S
C357 O368 1.185 . S
C357 O369 1.355 . S
C358 O360 1.185 . S
C358 O361 1.355 . S
Dy359 O363 2.310 . S
Dy359 O366 2.351 . S
Dy359 O368 2.398 . S
Dy359 O369 2.491 . S
Dy359 O370 2.403 . S
Dy359 O371 2.664 . S
Dy359 O373 2.326 . S
O360 Dy356 2.398 . S
O360 C358 1.185 . S
O361 Dy356 2.491 . S
O361 C358 1.355 . S
O362 Dy356 2.403 . S
O362 C364 1.254 . S
O363 Dy356 2.664 . S
O363 Dy359 2.310 . S
O363 C364 1.268 . S
C364 O362 1.254 . S
C364 O363 1.268 . S
C365 O370 1.254 . S
C365 O371 1.268 . S
O366 Dy359 2.351 . S
O366 C374 1.249 . S
O367 Dy356 2.326 . S
O367 C374 1.267 . S
O368 C357 1.185 . S
O368 Dy359 2.398 . S
O369 C357 1.355 . S
O369 Dy359 2.491 . S
O370 Dy359 2.403 . S
O370 C365 1.254 . S
O371 Dy356 2.310 . S
O371 Dy359 2.664 . S
O371 C365 1.268 . S
O372 Dy356 2.351 . S
O372 C375 1.249 . S
O373 Dy359 2.326 . S
O373 C375 1.267 . S
C374 O366 1.249 . S
C374 O367 1.267 . S
C375 O372 1.249 . S
C375 O373 1.267 . S
Dy376 O380 2.398 . S
Dy376 O381 2.491 1_545 S
Dy376 O382 2.403 . S
Dy376 O383 2.664 . S
Dy376 O387 2.326 1_545 S
Dy376 O391 2.310 . S
Dy376 O392 2.351 . S
C377 O388 1.185 . S
C377 O389 1.355 . S
C378 O380 1.185 1_565 S
C378 O381 1.355 . S
Dy379 O383 2.310 . S
Dy379 O386 2.351 1_545 S
Dy379 O388 2.398 . S
Dy379 O389 2.491 . S
Dy379 O390 2.403 . S
Dy379 O391 2.664 . S
Dy379 O393 2.326 . S
O380 Dy376 2.398 . S
O380 C378 1.185 1_545 S
O381 Dy376 2.491 1_565 S
O381 C378 1.355 . S
O382 Dy376 2.403 . S
O382 C384 1.254 . S
O383 Dy376 2.664 . S
O383 Dy379 2.310 . S
O383 C384 1.268 . S
C384 O382 1.254 . S
C384 O383 1.268 . S
C385 O390 1.254 . S
C385 O391 1.268 . S
O386 Dy379 2.351 1_565 S
O386 C394 1.249 . S
O387 Dy376 2.326 1_565 S
O387 C394 1.267 . S
O388 C377 1.185 . S
O388 Dy379 2.398 . S
O389 C377 1.355 . S
O389 Dy379 2.491 . S
O390 Dy379 2.403 . S
O390 C385 1.254 . S
O391 Dy376 2.310 . S
O391 Dy379 2.664 . S
O391 C385 1.268 . S
O392 Dy376 2.351 . S
O392 C395 1.249 . S
O393 Dy379 2.326 . S
O393 C395 1.267 . S
C394 O386 1.249 . S
C394 O387 1.267 . S
C395 O392 1.249 . S
C395 O393 1.267 . S
Dy396 O400 2.398 . S
Dy396 O401 2.491 . S
Dy396 O402 2.403 . S
Dy396 O403 2.664 . S
Dy396 O407 2.326 . S
Dy396 O411 2.310 . S
Dy396 O412 2.351 . S
C397 O408 1.185 . S
C397 O409 1.355 . S
C398 O400 1.185 . S
C398 O401 1.355 . S
Dy399 O403 2.310 . S
Dy399 O406 2.351 . S
Dy399 O408 2.398 . S
Dy399 O409 2.491 . S
Dy399 O410 2.403 . S
Dy399 O411 2.664 . S
Dy399 O413 2.326 . S
O400 Dy396 2.398 . S
O400 C398 1.185 . S
O401 Dy396 2.491 . S
O401 C398 1.355 . S
O402 Dy396 2.403 . S
O402 C404 1.254 . S
O403 Dy396 2.664 . S
O403 Dy399 2.310 . S
O403 C404 1.268 . S
C404 O402 1.254 . S
C404 O403 1.268 . S
C405 O410 1.254 . S
C405 O411 1.268 . S
O406 Dy399 2.351 . S
O406 C414 1.249 . S
O407 Dy396 2.326 . S
O407 C414 1.267 . S
O408 C397 1.185 . S
O408 Dy399 2.398 . S
O409 C397 1.355 . S
O409 Dy399 2.491 . S
O410 Dy399 2.403 . S
O410 C405 1.254 . S
O411 Dy396 2.310 . S
O411 Dy399 2.664 . S
O411 C405 1.268 . S
O412 Dy396 2.351 . S
O412 C415 1.249 . S
O413 Dy399 2.326 . S
O413 C415 1.267 . S
C414 O406 1.249 . S
C414 O407 1.267 . S
C415 O412 1.249 . S
C415 O413 1.267 . S
Dy416 O420 2.398 . S
Dy416 O421 2.491 1_455 S
Dy416 O422 2.403 . S
Dy416 O423 2.664 . S
Dy416 O427 2.326 . S
Dy416 O431 2.310 1_455 S
Dy416 O432 2.351 1_545 S
C417 O428 1.185 . S
C417 O429 1.355 . S
C418 O420 1.185 1_655 S
C418 O421 1.355 . S
Dy419 O423 2.310 . S
Dy419 O426 2.351 . S
Dy419 O428 2.398 . S
Dy419 O429 2.491 . S
Dy419 O430 2.403 1_455 S
Dy419 O431 2.664 1_455 S
Dy419 O433 2.326 1_545 S
O420 Dy416 2.398 . S
O420 C418 1.185 1_455 S
O421 Dy416 2.491 1_655 S
O421 C418 1.355 . S
O422 Dy416 2.403 . S
O422 C424 1.254 . S
O423 Dy416 2.664 . S
O423 Dy419 2.310 . S
O423 C424 1.268 . S
C424 O422 1.254 . S
C424 O423 1.268 . S
C425 O430 1.254 . S
C425 O431 1.268 . S
O426 Dy419 2.351 . S
O426 C434 1.249 . S
O427 Dy416 2.326 . S
O427 C434 1.267 . S
O428 C417 1.185 . S
O428 Dy419 2.398 . S
O429 C417 1.355 . S
O429 Dy419 2.491 . S
O430 Dy419 2.403 1_655 S
O430 C425 1.254 . S
O431 Dy416 2.310 1_655 S
O431 Dy419 2.664 1_655 S
O431 C425 1.268 . S
O432 Dy416 2.351 1_565 S
O432 C435 1.249 . S
O433 Dy419 2.326 1_565 S
O433 C435 1.267 . S
C434 O426 1.249 . S
C434 O427 1.267 . S
C435 O432 1.249 . S
C435 O433 1.267 . S
Dy436 O440 2.398 . S
Dy436 O441 2.491 . S
Dy436 O442 2.403 . S
Dy436 O443 2.664 . S
Dy436 O447 2.326 . S
Dy436 O451 2.310 . S
Dy436 O452 2.351 . S
C437 O448 1.185 . S
C437 O449 1.355 . S
C438 O440 1.185 . S
C438 O441 1.355 . S
Dy439 O443 2.310 . S
Dy439 O446 2.351 . S
Dy439 O448 2.398 . S
Dy439 O449 2.491 . S
Dy439 O450 2.403 . S
Dy439 O451 2.664 . S
Dy439 O453 2.326 . S
O440 Dy436 2.398 . S
O440 C438 1.185 . S
O441 Dy436 2.491 . S
O441 C438 1.355 . S
O442 Dy436 2.403 . S
O442 C444 1.254 . S
O443 Dy436 2.664 . S
O443 Dy439 2.310 . S
O443 C444 1.268 . S
C444 O442 1.254 . S
C444 O443 1.268 . S
C445 O450 1.254 . S
C445 O451 1.268 . S
O446 Dy439 2.351 . S
O446 C454 1.249 . S
O447 Dy436 2.326 . S
O447 C454 1.267 . S
O448 C437 1.185 . S
O448 Dy439 2.398 . S
O449 C437 1.355 . S
O449 Dy439 2.491 . S
O450 Dy439 2.403 . S
O450 C445 1.254 . S
O451 Dy436 2.310 . S
O451 Dy439 2.664 . S
O451 C445 1.268 . S
O452 Dy436 2.351 . S
O452 C455 1.249 . S
O453 Dy439 2.326 . S
O453 C455 1.267 . S
C454 O446 1.249 . S
C454 O447 1.267 . S
C455 O452 1.249 . S
C455 O453 1.267 . S
Dy456 O460 2.398 1_545 S
Dy456 O461 2.491 . S
Dy456 O462 2.403 1_545 S
Dy456 O463 2.664 1_554 S
Dy456 O467 2.326 . S
Dy456 O471 2.310 . S
Dy456 O472 2.351 . S
C457 O468 1.185 . S
C457 O469 1.355 . S
C458 O460 1.185 1_545 S
C458 O461 1.355 . S
Dy459 O463 2.310 . S
Dy459 O466 2.351 . S
Dy459 O468 2.398 . S
Dy459 O469 2.491 . S
Dy459 O470 2.403 . S
Dy459 O471 2.664 1_556 S
Dy459 O473 2.326 . S
O460 Dy456 2.398 1_565 S
O460 C458 1.185 1_565 S
O461 Dy456 2.491 . S
O461 C458 1.355 . S
O462 Dy456 2.403 1_565 S
O462 C464 1.254 1_554 S
O463 Dy456 2.664 1_556 S
O463 Dy459 2.310 . S
O463 C464 1.268 1_545 S
C464 O462 1.254 1_556 S
C464 O463 1.268 1_565 S
C465 O470 1.254 1_554 S
C465 O471 1.268 . S
O466 Dy459 2.351 . S
O466 C474 1.249 1_556 S
O467 Dy456 2.326 . S
O467 C474 1.267 . S
O468 C457 1.185 . S
O468 Dy459 2.398 . S
O469 C457 1.355 . S
O469 Dy459 2.491 . S
O470 Dy459 2.403 . S
O470 C465 1.254 1_556 S
O471 Dy456 2.310 . S
O471 Dy459 2.664 1_554 S
O471 C465 1.268 . S
O472 Dy456 2.351 . S
O472 C475 1.249 . S
O473 Dy459 2.326 . S
O473 C475 1.267 1_556 S
C474 O466 1.249 1_554 S
C474 O467 1.267 . S
C475 O472 1.249 . S
C475 O473 1.267 1_554 S
Dy476 O480 2.398 . S
Dy476 O481 2.491 . S
Dy476 O482 2.403 . S
Dy476 O483 2.664 . S
Dy476 O487 2.326 . S
Dy476 O491 2.310 . S
Dy476 O492 2.351 . S
C477 O488 1.185 . S
C477 O489 1.355 . S
C478 O480 1.185 . S
C478 O481 1.355 . S
Dy479 O483 2.310 . S
Dy479 O486 2.351 . S
Dy479 O488 2.398 . S
Dy479 O489 2.491 . S
Dy479 O490 2.403 . S
Dy479 O491 2.664 . S
Dy479 O493 2.326 . S
O480 Dy476 2.398 . S
O480 C478 1.185 . S
O481 Dy476 2.491 . S
O481 C478 1.355 . S
O482 Dy476 2.403 . S
O482 C484 1.254 . S
O483 Dy476 2.664 . S
O483 Dy479 2.310 . S
O483 C484 1.268 . S
C484 O482 1.254 . S
C484 O483 1.268 . S
C485 O490 1.254 . S
C485 O491 1.268 . S
O486 Dy479 2.351 . S
O486 C494 1.249 . S
O487 Dy476 2.326 . S
O487 C494 1.267 . S
O488 C477 1.185 . S
O488 Dy479 2.398 . S
O489 C477 1.355 . S
O489 Dy479 2.491 . S
O490 Dy479 2.403 . S
O490 C485 1.254 . S
O491 Dy476 2.310 . S
O491 Dy479 2.664 . S
O491 C485 1.268 . S
O492 Dy476 2.351 . S
O492 C495 1.249 . S
O493 Dy479 2.326 . S
O493 C495 1.267 . S
C494 O486 1.249 . S
C494 O487 1.267 . S
C495 O492 1.249 . S
C495 O493 1.267 . S
Dy496 O500 2.398 . S
Dy496 O501 2.491 . S
Dy496 O502 2.403 . S
Dy496 O503 2.664 1_556 S
Dy496 O507 2.326 . S
Dy496 O511 2.289 1_556 S
Dy496 O512 2.351 . S
C497 O508 1.185 . S
C497 O509 1.355 . S
C498 O500 1.185 . S
C498 O501 1.355 . S
Dy499 O503 2.310 . S
Dy499 O506 2.351 . S
Dy499 O508 2.398 . S
Dy499 O509 2.491 . S
Dy499 O510 2.403 . S
Dy499 O511 2.684 . S
Dy499 O513 2.326 . S
O500 Dy496 2.398 . S
O500 C498 1.185 . S
O501 Dy496 2.491 . S
O501 C498 1.355 . S
O502 Dy496 2.403 . S
O502 C504 1.254 . S
O503 Dy496 2.664 1_554 S
O503 Dy499 2.310 . S
O503 C504 1.268 1_554 S
C504 O502 1.254 . S
C504 O503 1.268 1_556 S
C505 O510 1.254 . S
C505 O511 1.287 . S
O506 Dy499 2.351 . S
O506 C514 1.249 1_554 S
O507 Dy496 2.326 . S
O507 C514 1.267 . S
O508 C497 1.185 . S
O508 Dy499 2.398 . S
O509 C497 1.355 . S
O509 Dy499 2.491 . S
O510 Dy499 2.403 . S
O510 C505 1.254 . S
O511 Dy496 2.289 1_554 S
O511 Dy499 2.684 . S
O511 C505 1.287 . S
O512 Dy496 2.351 . S
O512 C515 1.249 1_556 S
O513 Dy499 2.326 . S
O513 C515 1.267 . S
C514 O506 1.249 1_556 S
C514 O507 1.267 . S
C515 O512 1.249 1_554 S
C515 O513 1.267 . S
Dy516 O520 2.398 . S
Dy516 O521 2.491 . S
Dy516 O522 2.403 . S
Dy516 O523 2.664 . S
Dy516 O527 2.326 . S
Dy516 O531 2.310 . S
Dy516 O532 2.351 . S
C517 O528 1.185 . S
C517 O529 1.355 . S
C518 O520 1.185 . S
C518 O521 1.355 . S
Dy519 O523 2.310 . S
Dy519 O526 2.351 . S
Dy519 O528 2.398 . S
Dy519 O529 2.491 . S
Dy519 O530 2.403 . S
Dy519 O531 2.664 . S
Dy519 O533 2.326 . S
O520 Dy516 2.398 . S
O520 C518 1.185 . S
O521 Dy516 2.491 . S
O521 C518 1.355 . S
O522 Dy516 2.403 . S
O522 C524 1.254 . S
O523 Dy516 2.664 . S
O523 Dy519 2.310 . S
O523 C524 1.268 . S
C524 O522 1.254 . S
C524 O523 1.268 . S
C525 O530 1.254 . S
C525 O531 1.268 . S
O526 Dy519 2.351 . S
O526 C534 1.249 . S
O527 Dy516 2.326 . S
O527 C534 1.267 . S
O528 C517 1.185 . S
O528 Dy519 2.398 . S
O529 C517 1.355 . S
O529 Dy519 2.491 . S
O530 Dy519 2.403 . S
O530 C525 1.254 . S
O531 Dy516 2.310 . S
O531 Dy519 2.664 . S
O531 C525 1.268 . S
O532 Dy516 2.351 . S
O532 C535 1.249 . S
O533 Dy519 2.326 . S
O533 C535 1.267 . S
C534 O526 1.249 . S
C534 O527 1.267 . S
C535 O532 1.249 . S
C535 O533 1.267 . S
Dy536 O540 2.398 1_455 S
Dy536 O541 2.491 1_455 S
Dy536 O542 2.403 . S
Dy536 O543 2.664 . S
Dy536 O547 2.326 1_455 S
Dy536 O551 2.310 . S
Dy536 O552 2.351 . S
C537 O548 1.185 . S
C537 O549 1.355 . S
C538 O540 1.185 . S
C538 O541 1.355 . S
Dy539 O543 2.310 . S
Dy539 O546 2.351 1_455 S
Dy539 O548 2.398 . S
Dy539 O549 2.491 . S
Dy539 O550 2.403 . S
Dy539 O551 2.664 . S
Dy539 O553 2.326 . S
O540 Dy536 2.398 1_655 S
O540 C538 1.185 . S
O541 Dy536 2.491 1_655 S
O541 C538 1.355 . S
O542 Dy536 2.403 . S
O542 C544 1.254 . S
O543 Dy536 2.664 . S
O543 Dy539 2.310 . S
O543 C544 1.268 . S
C544 O542 1.254 . S
C544 O543 1.268 . S
C545 O550 1.254 . S
C545 O551 1.268 . S
O546 Dy539 2.351 1_655 S
O546 C554 1.249 . S
O547 Dy536 2.326 1_655 S
O547 C554 1.267 . S
O548 C537 1.185 . S
O548 Dy539 2.398 . S
O549 C537 1.355 . S
O549 Dy539 2.491 . S
O550 Dy539 2.403 . S
O550 C545 1.254 . S
O551 Dy536 2.310 . S
O551 Dy539 2.664 . S
O551 C545 1.268 . S
O552 Dy536 2.351 . S
O552 C555 1.249 . S
O553 Dy539 2.326 . S
O553 C555 1.267 . S
C554 O546 1.249 . S
C554 O547 1.267 . S
C555 O552 1.249 . S
C555 O553 1.267 . S
Dy556 O560 2.398 . S
Dy556 O561 2.491 . S
Dy556 O562 2.403 . S
Dy556 O563 2.664 . S
Dy556 O567 2.326 . S
Dy556 O571 2.310 . S
Dy556 O572 2.351 . S
C557 O568 1.185 . S
C557 O569 1.355 . S
C558 O560 1.185 . S
C558 O561 1.355 . S
Dy559 O563 2.310 . S
Dy559 O566 2.351 . S
Dy559 O568 2.398 . S
Dy559 O569 2.491 . S
Dy559 O570 2.403 . S
Dy559 O571 2.664 . S
Dy559 O573 2.326 . S
O560 Dy556 2.398 . S
O560 C558 1.185 . S
O561 Dy556 2.491 . S
O561 C558 1.355 . S
O562 Dy556 2.403 . S
O562 C564 1.254 . S
O563 Dy556 2.664 . S
O563 Dy559 2.310 . S
O563 C564 1.268 . S
C564 O562 1.254 . S
C564 O563 1.268 . S
C565 O570 1.254 . S
C565 O571 1.268 . S
O566 Dy559 2.351 . S
O566 C574 1.249 . S
O567 Dy556 2.326 . S
O567 C574 1.267 . S
O568 C557 1.185 . S
O568 Dy559 2.398 . S
O569 C557 1.355 . S
O569 Dy559 2.491 . S
O570 Dy559 2.403 . S
O570 C565 1.254 . S
O571 Dy556 2.310 . S
O571 Dy559 2.664 . S
O571 C565 1.268 . S
O572 Dy556 2.351 . S
O572 C575 1.249 . S
O573 Dy559 2.326 . S
O573 C575 1.267 . S
C574 O566 1.249 . S
C574 O567 1.267 . S
C575 O572 1.249 . S
C575 O573 1.267 . S
Dy576 O580 2.398 . S
Dy576 O581 2.491 . S
Dy576 O582 2.403 . S
Dy576 O583 2.664 . S
Dy576 O587 2.326 . S
Dy576 O591 2.310 . S
Dy576 O592 2.351 . S
C577 O588 1.185 . S
C577 O589 1.355 . S
C578 O580 1.185 . S
C578 O581 1.355 . S
Dy579 O583 2.310 . S
Dy579 O586 2.351 . S
Dy579 O588 2.398 . S
Dy579 O589 2.491 . S
Dy579 O590 2.403 . S
Dy579 O591 2.664 . S
Dy579 O593 2.326 . S
O580 Dy576 2.398 . S
O580 C578 1.185 . S
O581 Dy576 2.491 . S
O581 C578 1.355 . S
O582 Dy576 2.403 . S
O582 C584 1.254 . S
O583 Dy576 2.664 . S
O583 Dy579 2.310 . S
O583 C584 1.268 . S
C584 O582 1.254 . S
C584 O583 1.268 . S
C585 O590 1.254 . S
C585 O591 1.268 . S
O586 Dy579 2.351 . S
O586 C594 1.249 . S
O587 Dy576 2.326 . S
O587 C594 1.267 . S
O588 C577 1.185 . S
O588 Dy579 2.398 . S
O589 C577 1.355 . S
O589 Dy579 2.491 . S
O590 Dy579 2.403 . S
O590 C585 1.254 . S
O591 Dy576 2.310 . S
O591 Dy579 2.664 . S
O591 C585 1.268 . S
O592 Dy576 2.351 . S
O592 C595 1.249 . S
O593 Dy579 2.326 . S
O593 C595 1.267 . S
C594 O586 1.249 . S
C594 O587 1.267 . S
C595 O592 1.249 . S
C595 O593 1.267 . S
Dy596 O600 2.398 . S
Dy596 O601 2.491 . S
Dy596 O602 2.403 . S
Dy596 O603 2.664 . S
Dy596 O607 2.326 . S
Dy596 O611 2.310 . S
Dy596 O612 2.351 . S
C597 O608 1.185 . S
C597 O609 1.355 . S
C598 O600 1.185 . S
C598 O601 1.355 . S
Dy599 O603 2.310 . S
Dy599 O606 2.351 . S
Dy599 O608 2.398 . S
Dy599 O609 2.491 . S
Dy599 O610 2.403 . S
Dy599 O611 2.664 . S
Dy599 O613 2.326 . S
O600 Dy596 2.398 . S
O600 C598 1.185 . S
O601 Dy596 2.491 . S
O601 C598 1.355 . S
O602 Dy596 2.403 . S
O602 C604 1.254 . S
O603 Dy596 2.664 . S
O603 Dy599 2.310 . S
O603 C604 1.268 . S
C604 O602 1.254 . S
C604 O603 1.268 . S
C605 O610 1.254 . S
C605 O611 1.268 . S
O606 Dy599 2.351 . S
O606 C614 1.249 . S
O607 Dy596 2.326 . S
O607 C614 1.267 . S
O608 C597 1.185 . S
O608 Dy599 2.398 . S
O609 C597 1.355 . S
O609 Dy599 2.491 . S
O610 Dy599 2.403 . S
O610 C605 1.254 . S
O611 Dy596 2.310 . S
O611 Dy599 2.664 . S
O611 C605 1.268 . S
O612 Dy596 2.351 . S
O612 C615 1.249 . S
O613 Dy599 2.326 . S
O613 C615 1.267 . S
C614 O606 1.249 . S
C614 O607 1.267 . S
C615 O612 1.249 . S
C615 O613 1.267 . S
Dy616 O620 2.398 . S
Dy616 O621 2.491 . S
Dy616 O622 2.403 . S
Dy616 O623 2.664 . S
Dy616 O627 2.326 . S
Dy616 O631 2.310 . S
Dy616 O632 2.351 . S
C617 O628 1.185 . S
C617 O629 1.355 . S
C618 O620 1.185 . S
C618 O621 1.355 . S
Dy619 O623 2.310 . S
Dy619 O626 2.351 . S
Dy619 O628 2.398 . S
Dy619 O629 2.491 . S
Dy619 O630 2.403 . S
Dy619 O631 2.664 . S
Dy619 O633 2.326 . S
O620 Dy616 2.398 . S
O620 C618 1.185 . S
O621 Dy616 2.491 . S
O621 C618 1.355 . S
O622 Dy616 2.403 . S
O622 C624 1.254 . S
O623 Dy616 2.664 . S
O623 Dy619 2.310 . S
O623 C624 1.268 . S
C624 O622 1.254 . S
C624 O623 1.268 . S
C625 O630 1.254 . S
C625 O631 1.268 . S
O626 Dy619 2.351 . S
O626 C634 1.249 . S
O627 Dy616 2.326 . S
O627 C634 1.267 . S
O628 C617 1.185 . S
O628 Dy619 2.398 . S
O629 C617 1.355 . S
O629 Dy619 2.491 . S
O630 Dy619 2.403 . S
O630 C625 1.254 . S
O631 Dy616 2.310 . S
O631 Dy619 2.664 . S
O631 C625 1.268 . S
O632 Dy616 2.351 . S
O632 C635 1.249 . S
O633 Dy619 2.326 . S
O633 C635 1.267 . S
C634 O626 1.249 . S
C634 O627 1.267 . S
C635 O632 1.249 . S
C635 O633 1.267 . S
Dy636 O640 2.398 1_554 S
Dy636 O641 2.491 . S
Dy636 O642 2.403 1_554 S
Dy636 O643 2.664 1_454 S
Dy636 O647 2.326 1_554 S
Dy636 O651 2.310 . S
Dy636 O652 2.351 . S
C637 O648 1.185 . S
C637 O649 1.355 . S
C638 O640 1.185 . S
C638 O641 1.355 1_556 S
Dy639 O643 2.310 1_554 S
Dy639 O646 2.351 . S
Dy639 O648 2.398 . S
Dy639 O649 2.491 . S
Dy639 O650 2.403 . S
Dy639 O651 2.664 1_655 S
Dy639 O653 2.326 . S
O640 Dy636 2.398 1_556 S
O640 C638 1.185 . S
O641 Dy636 2.491 . S
O641 C638 1.355 1_554 S
O642 Dy636 2.403 1_556 S
O642 C644 1.254 . S
O643 Dy636 2.664 1_656 S
O643 Dy639 2.310 1_556 S
O643 C644 1.268 1_655 S
C644 O642 1.254 . S
C644 O643 1.268 1_455 S
C645 O650 1.254 1_455 S
C645 O651 1.268 . S
O646 Dy639 2.351 . S
O646 C654 1.249 1_654 S
O647 Dy636 2.326 1_556 S
O647 C654 1.267 . S
O648 C637 1.185 . S
O648 Dy639 2.398 . S
O649 C637 1.355 . S
O649 Dy639 2.491 . S
O650 Dy639 2.403 . S
O650 C645 1.254 1_655 S
O651 Dy636 2.310 . S
O651 Dy639 2.664 1_455 S
O651 C645 1.268 . S
O652 Dy636 2.351 . S
O652 C655 1.249 . S
O653 Dy639 2.326 . S
O653 C655 1.267 1_655 S
C654 O646 1.249 1_456 S
C654 O647 1.267 . S
C655 O652 1.249 . S
C655 O653 1.267 1_455 S
H656 C662 0.930 . S
H657 C666 0.930 . S
H658 C671 0.929 . S
H659 C669 0.929 . S
H660 C664 0.929 1_554 S
H661 C670 0.929 . S
C662 H656 0.930 . S
C662 C663 1.367 . S
C662 C670 1.378 . S
C663 C662 1.367 . S
C663 C671 1.433 1_655 S
C664 H660 0.929 1_556 S
C664 C666 1.378 1_556 S
C664 C668 1.350 . S
C665 C668 1.463 . S
C665 C670 1.350 1_455 S
C665 N673 1.427 . S
C666 H657 0.930 . S
C666 C664 1.378 1_554 S
C666 C667 1.367 1_554 S
C667 C666 1.367 1_556 S
C667 C669 1.433 . S
C668 C664 1.350 . S
C668 C665 1.463 . S
C668 N672 1.427 . S
C669 H659 0.929 . S
C669 C667 1.433 . S
C669 N672 1.384 . S
C670 H661 0.929 . S
C670 C662 1.378 . S
C670 C665 1.350 1_655 S
C671 H658 0.929 . S
C671 C663 1.433 1_455 S
C671 N673 1.384 . S
N672 C668 1.427 . S
N672 C669 1.384 . S
N673 C665 1.427 . S
N673 C671 1.384 . S
H674 C680 0.930 . S
H675 C684 0.930 . S
H676 C689 0.929 . S
H677 C687 0.929 . S
H678 C682 0.929 . S
H679 C688 0.929 . S
C680 H674 0.930 . S
C680 C681 1.367 . S
C680 C688 1.378 . S
C681 C680 1.367 . S
C681 C689 1.433 . S
C682 H678 0.929 . S
C682 C684 1.378 . S
C682 C686 1.350 . S
C683 C686 1.463 . S
C683 C688 1.350 . S
C683 N691 1.427 . S
C684 H675 0.930 . S
C684 C682 1.378 . S
C684 C685 1.367 . S
C685 C684 1.367 . S
C685 C687 1.433 . S
C686 C682 1.350 . S
C686 C683 1.463 . S
C686 N690 1.427 . S
C687 H677 0.929 . S
C687 C685 1.433 . S
C687 N690 1.384 . S
C688 H679 0.929 . S
C688 C680 1.378 . S
C688 C683 1.350 . S
C689 H676 0.929 . S
C689 C681 1.433 . S
C689 N691 1.384 . S
N690 C686 1.427 . S
N690 C687 1.384 . S
N691 C683 1.427 . S
N691 C689 1.384 . S
H692 C698 0.930 . S
H693 C702 0.930 . S
H694 C707 0.929 . S
H695 C705 0.929 . S
H696 C700 0.929 . S
H697 C706 0.929 . S
C698 H692 0.930 . S
C698 C699 1.367 . S
C698 C706 1.378 . S
C699 C698 1.367 . S
C699 C707 1.433 . S
C700 H696 0.929 . S
C700 C702 1.378 . S
C700 C704 1.350 . S
C701 C704 1.463 . S
C701 C706 1.350 . S
C701 N709 1.427 . S
C702 H693 0.930 . S
C702 C700 1.378 . S
C702 C703 1.367 . S
C703 C702 1.367 . S
C703 C705 1.433 . S
C704 C700 1.350 . S
C704 C701 1.463 . S
C704 N708 1.427 . S
C705 H695 0.929 . S
C705 C703 1.433 . S
C705 N708 1.384 . S
C706 H697 0.929 . S
C706 C698 1.378 . S
C706 C701 1.350 . S
C707 H694 0.929 . S
C707 C699 1.433 . S
C707 N709 1.384 . S
N708 C704 1.427 . S
N708 C705 1.384 . S
N709 C701 1.427 . S
N709 C707 1.384 . S
H710 C716 0.930 . S
H711 C720 0.930 . S
H712 C725 0.929 . S
H713 C723 0.929 . S
H714 C718 0.929 . S
H715 C724 0.929 . S
C716 H710 0.930 . S
C716 C717 1.367 . S
C716 C724 1.378 . S
C717 C716 1.367 . S
C717 C725 1.433 . S
C718 H714 0.929 . S
C718 C720 1.378 . S
C718 C722 1.350 . S
C719 C722 1.463 . S
C719 C724 1.350 . S
C719 N727 1.427 . S
C720 H711 0.930 . S
C720 C718 1.378 . S
C720 C721 1.367 . S
C721 C720 1.367 . S
C721 C723 1.433 . S
C722 C718 1.350 . S
C722 C719 1.463 . S
C722 N726 1.427 . S
C723 H713 0.929 . S
C723 C721 1.433 . S
C723 N726 1.384 . S
C724 H715 0.929 . S
C724 C716 1.378 . S
C724 C719 1.350 . S
C725 H712 0.929 . S
C725 C717 1.433 . S
C725 N727 1.384 . S
N726 C722 1.427 . S
N726 C723 1.384 . S
N727 C719 1.427 . S
N727 C725 1.384 . S
H728 C734 0.930 . S
H729 C738 0.930 . S
H730 C743 0.929 . S
H731 C741 0.929 1_655 S
H732 C736 0.929 . S
H733 C742 0.929 1_655 S
C734 H728 0.930 . S
C734 C735 1.367 1_655 S
C734 C742 1.378 1_655 S
C735 C734 1.367 1_455 S
C735 C743 1.433 . S
C736 H732 0.929 . S
C736 C738 1.378 . S
C736 C740 1.350 . S
C737 C740 1.463 . S
C737 C742 1.350 . S
C737 N745 1.427 . S
C738 H729 0.930 . S
C738 C736 1.378 . S
C738 C739 1.367 . S
C739 C738 1.367 . S
C739 C741 1.433 . S
C740 C736 1.350 . S
C740 C737 1.463 . S
C740 N744 1.427 . S
C741 H731 0.929 1_455 S
C741 C739 1.433 . S
C741 N744 1.384 . S
C742 H733 0.929 1_455 S
C742 C734 1.378 1_455 S
C742 C737 1.350 . S
C743 H730 0.929 . S
C743 C735 1.433 . S
C743 N745 1.384 . S
N744 C740 1.427 . S
N744 C741 1.384 . S
N745 C737 1.427 . S
N745 C743 1.384 . S
H746 C752 0.930 . S
H747 C756 0.930 . S
H748 C761 0.929 . S
H749 C759 0.929 . S
H750 C754 0.929 . S
H751 C760 0.929 . S
C752 H746 0.930 . S
C752 C753 1.367 . S
C752 C760 1.378 . S
C753 C752 1.367 . S
C753 C761 1.433 . S
C754 H750 0.929 . S
C754 C756 1.378 . S
C754 C758 1.350 . S
C755 C758 1.463 . S
C755 C760 1.350 . S
C755 N763 1.427 . S
C756 H747 0.930 . S
C756 C754 1.378 . S
C756 C757 1.367 . S
C757 C756 1.367 . S
C757 C759 1.433 . S
C758 C754 1.350 . S
C758 C755 1.463 . S
C758 N762 1.427 . S
C759 H749 0.929 . S
C759 C757 1.433 . S
C759 N762 1.384 . S
C760 H751 0.929 . S
C760 C752 1.378 . S
C760 C755 1.350 . S
C761 H748 0.929 . S
C761 C753 1.433 . S
C761 N763 1.384 . S
N762 C758 1.427 . S
N762 C759 1.384 . S
N763 C755 1.427 . S
N763 C761 1.384 . S
H764 C770 0.930 . S
H765 C774 0.948 . S
H766 C779 0.929 . S
H767 C777 0.929 . S
H768 C772 0.929 . S
H769 C778 0.929 . S
C770 H764 0.930 . S
C770 C771 1.367 . S
C770 C778 1.378 . S
C771 C770 1.367 . S
C771 C779 1.433 . S
C772 H768 0.929 . S
C772 C774 1.378 . S
C772 C776 1.350 . S
C773 C776 1.463 . S
C773 C778 1.350 . S
C773 N781 1.427 . S
C774 H765 0.948 . S
C774 C772 1.378 . S
C774 C775 1.367 . S
C775 C774 1.367 . S
C775 C777 1.433 . S
C776 C772 1.350 . S
C776 C773 1.463 . S
C776 N780 1.427 . S
C777 H767 0.929 . S
C777 C775 1.433 . S
C777 N780 1.384 . S
C778 H769 0.929 . S
C778 C770 1.378 . S
C778 C773 1.350 . S
C779 H766 0.929 . S
C779 C771 1.433 . S
C779 N781 1.384 . S
N780 C776 1.427 . S
N780 C777 1.384 . S
N781 C773 1.427 . S
N781 C779 1.384 . S
H782 C788 0.930 . S
H783 C792 0.930 . S
H784 C797 0.929 . S
H785 C795 0.929 . S
H786 C790 0.929 . S
H787 C796 0.929 . S
C788 H782 0.930 . S
C788 C789 1.367 . S
C788 C796 1.378 . S
C789 C788 1.367 . S
C789 C797 1.433 . S
C790 H786 0.929 . S
C790 C792 1.378 . S
C790 C794 1.350 . S
C791 C794 1.463 . S
C791 C796 1.350 . S
C791 N799 1.427 . S
C792 H783 0.930 . S
C792 C790 1.378 . S
C792 C793 1.367 . S
C793 C792 1.367 . S
C793 C795 1.433 . S
C794 C790 1.350 . S
C794 C791 1.463 . S
C794 N798 1.427 . S
C795 H785 0.929 . S
C795 C793 1.433 . S
C795 N798 1.384 . S
C796 H787 0.929 . S
C796 C788 1.378 . S
C796 C791 1.350 . S
C797 H784 0.929 . S
C797 C789 1.433 . S
C797 N799 1.384 . S
N798 C794 1.427 . S
N798 C795 1.384 . S
N799 C791 1.427 . S
N799 C797 1.384 . S
H800 C806 0.930 . S
H801 C810 0.930 . S
H802 C815 0.929 . S
H803 C813 0.929 . S
H804 C808 0.929 . S
H805 C814 0.929 . S
C806 H800 0.930 . S
C806 C807 1.367 . S
C806 C814 1.378 . S
C807 C806 1.367 . S
C807 C815 1.433 . S
C808 H804 0.929 . S
C808 C810 1.378 . S
C808 C812 1.350 . S
C809 C812 1.463 . S
C809 C814 1.350 . S
C809 N817 1.427 . S
C810 H801 0.930 . S
C810 C808 1.378 . S
C810 C811 1.367 . S
C811 C810 1.367 . S
C811 C813 1.433 1_655 S
C812 C808 1.350 . S
C812 C809 1.463 . S
C812 N816 1.427 . S
C813 H803 0.929 . S
C813 C811 1.433 1_455 S
C813 N816 1.384 1_455 S
C814 H805 0.929 . S
C814 C806 1.378 . S
C814 C809 1.350 . S
C815 H802 0.929 . S
C815 C807 1.433 . S
C815 N817 1.384 . S
N816 C812 1.427 . S
N816 C813 1.384 1_655 S
N817 C809 1.427 . S
N817 C815 1.384 . S
H818 C824 0.930 . S
H819 C828 0.930 . S
H820 C833 0.929 . S
H821 C831 0.929 . S
H822 C826 0.929 . S
H823 C832 0.929 . S
C824 H818 0.930 . S
C824 C825 1.367 . S
C824 C832 1.378 . S
C825 C824 1.367 . S
C825 C833 1.433 . S
C826 H822 0.929 . S
C826 C828 1.378 . S
C826 C830 1.350 . S
C827 C830 1.463 . S
C827 C832 1.350 . S
C827 N835 1.427 . S
C828 H819 0.930 . S
C828 C826 1.378 . S
C828 C829 1.367 . S
C829 C828 1.367 . S
C829 C831 1.433 . S
C830 C826 1.350 . S
C830 C827 1.463 . S
C830 N834 1.427 . S
C831 H821 0.929 . S
C831 C829 1.433 . S
C831 N834 1.384 . S
C832 H823 0.929 . S
C832 C824 1.378 . S
C832 C827 1.350 . S
C833 H820 0.929 . S
C833 C825 1.433 . S
C833 N835 1.384 . S
N834 C830 1.427 . S
N834 C831 1.384 . S
N835 C827 1.427 . S
N835 C833 1.384 . S
H836 C842 0.930 . S
H837 C846 0.930 . S
H838 C851 0.929 . S
H839 C849 0.929 . S
H840 C844 0.929 . S
H841 C850 0.929 . S
C842 H836 0.930 . S
C842 C843 1.367 . S
C842 C850 1.378 . S
C843 C842 1.367 . S
C843 C851 1.433 1_545 S
C844 H840 0.929 . S
C844 C846 1.378 . S
C844 C848 1.350 1_565 S
C845 C848 1.463 . S
C845 C850 1.350 . S
C845 N853 1.427 1_545 S
C846 H837 0.930 . S
C846 C844 1.378 . S
C846 C847 1.367 1_565 S
C847 C846 1.367 1_545 S
C847 C849 1.433 . S
C848 C844 1.350 1_545 S
C848 C845 1.463 . S
C848 N852 1.427 . S
C849 H839 0.929 . S
C849 C847 1.433 . S
C849 N852 1.384 . S
C850 H841 0.929 . S
C850 C842 1.378 . S
C850 C845 1.350 . S
C851 H838 0.929 . S
C851 C843 1.433 1_565 S
C851 N853 1.384 . S
N852 C848 1.427 . S
N852 C849 1.384 . S
N853 C845 1.427 1_565 S
N853 C851 1.384 . S
H854 C860 0.930 . S
H855 C864 0.930 . S
H856 C869 0.929 . S
H857 C867 0.929 . S
H858 C862 0.929 . S
H859 C868 0.929 . S
C860 H854 0.930 . S
C860 C861 1.367 . S
C860 C868 1.378 . S
C861 C860 1.367 . S
C861 C869 1.433 . S
C862 H858 0.929 . S
C862 C864 1.378 . S
C862 C866 1.350 . S
C863 C866 1.463 . S
C863 C868 1.350 . S
C863 N871 1.427 . S
C864 H855 0.930 . S
C864 C862 1.378 . S
C864 C865 1.367 . S
C865 C864 1.367 . S
C865 C867 1.433 . S
C866 C862 1.350 . S
C866 C863 1.463 . S
C866 N870 1.427 . S
C867 H857 0.929 . S
C867 C865 1.433 . S
C867 N870 1.384 . S
C868 H859 0.929 . S
C868 C860 1.378 . S
C868 C863 1.350 . S
C869 H856 0.929 . S
C869 C861 1.433 . S
C869 N871 1.384 . S
N870 C866 1.427 . S
N870 C867 1.384 . S
N871 C863 1.427 . S
N871 C869 1.384 . S
H872 C878 0.930 . S
H873 C882 0.930 . S
H874 C887 0.929 . S
H875 C885 0.929 1_455 S
H876 C880 0.929 . S
H877 C886 0.929 . S
C878 H872 0.930 . S
C878 C879 1.367 . S
C878 C886 1.378 . S
C879 C878 1.367 . S
C879 C887 1.433 . S
C880 H876 0.929 . S
C880 C882 1.378 . S
C880 C884 1.350 . S
C881 C884 1.463 . S
C881 C886 1.350 . S
C881 N889 1.427 . S
C882 H873 0.930 . S
C882 C880 1.378 . S
C882 C883 1.367 . S
C883 C882 1.367 . S
C883 C885 1.433 . S
C884 C880 1.350 . S
C884 C881 1.463 . S
C884 N888 1.427 . S
C885 H875 0.929 1_655 S
C885 C883 1.433 . S
C885 N888 1.384 . S
C886 H877 0.929 . S
C886 C878 1.378 . S
C886 C881 1.350 . S
C887 H874 0.929 . S
C887 C879 1.433 . S
C887 N889 1.384 . S
N888 C884 1.427 . S
N888 C885 1.384 . S
N889 C881 1.427 . S
N889 C887 1.384 . S
H890 C896 0.930 . S
H891 C900 0.930 . S
H892 C905 0.929 . S
H893 C903 0.929 . S
H894 C898 0.929 . S
H895 C904 0.929 . S
C896 H890 0.930 . S
C896 C897 1.367 . S
C896 C904 1.378 . S
C897 C896 1.367 . S
C897 C905 1.433 . S
C898 H894 0.929 . S
C898 C900 1.378 . S
C898 C902 1.350 . S
C899 C902 1.463 . S
C899 C904 1.350 . S
C899 N907 1.427 . S
C900 H891 0.930 . S
C900 C898 1.378 . S
C900 C901 1.367 . S
C901 C900 1.367 . S
C901 C903 1.433 . S
C902 C898 1.350 . S
C902 C899 1.463 . S
C902 N906 1.427 . S
C903 H893 0.929 . S
C903 C901 1.433 . S
C903 N906 1.384 . S
C904 H895 0.929 . S
C904 C896 1.378 . S
C904 C899 1.350 . S
C905 H892 0.929 . S
C905 C897 1.433 . S
C905 N907 1.384 . S
N906 C902 1.427 . S
N906 C903 1.384 . S
N907 C899 1.427 . S
N907 C905 1.384 . S
H908 C914 0.930 . S
H909 C918 0.930 . S
H910 C923 0.929 1_565 S
H911 C921 0.929 . S
H912 C916 0.929 . S
H913 C922 0.929 . S
C914 H908 0.930 . S
C914 C915 1.367 . S
C914 C922 1.378 . S
C915 C914 1.367 . S
C915 C923 1.433 . S
C916 H912 0.929 . S
C916 C918 1.378 . S
C916 C920 1.350 . S
C917 C920 1.463 . S
C917 C922 1.350 . S
C917 N925 1.427 . S
C918 H909 0.930 . S
C918 C916 1.378 . S
C918 C919 1.367 . S
C919 C918 1.367 . S
C919 C921 1.433 . S
C920 C916 1.350 . S
C920 C917 1.463 . S
C920 N924 1.427 . S
C921 H911 0.929 . S
C921 C919 1.433 . S
C921 N924 1.384 . S
C922 H913 0.929 . S
C922 C914 1.378 . S
C922 C917 1.350 . S
C923 H910 0.929 1_545 S
C923 C915 1.433 . S
C923 N925 1.384 . S
N924 C920 1.427 . S
N924 C921 1.384 . S
N925 C917 1.427 . S
N925 C923 1.384 . S
H926 C932 0.930 . S
H927 C936 0.930 . S
H928 C941 0.929 . S
H929 C939 0.929 . S
H930 C934 0.929 . S
H931 C940 0.929 . S
C932 H926 0.930 . S
C932 C933 1.367 . S
C932 C940 1.378 . S
C933 C932 1.367 . S
C933 C941 1.433 . S
C934 H930 0.929 . S
C934 C936 1.378 . S
C934 C938 1.350 . S
C935 C938 1.463 . S
C935 C940 1.350 . S
C935 N943 1.427 . S
C936 H927 0.930 . S
C936 C934 1.378 . S
C936 C937 1.367 . S
C937 C936 1.367 . S
C937 C939 1.433 . S
C938 C934 1.350 . S
C938 C935 1.463 . S
C938 N942 1.427 . S
C939 H929 0.929 . S
C939 C937 1.433 . S
C939 N942 1.384 . S
C940 H931 0.929 . S
C940 C932 1.378 . S
C940 C935 1.350 . S
C941 H928 0.929 . S
C941 C933 1.433 . S
C941 N943 1.384 . S
N942 C938 1.427 . S
N942 C939 1.384 . S
N943 C935 1.427 . S
N943 C941 1.384 . S
H944 C950 0.930 1_556 S
H945 C954 0.930 1_545 S
H946 C959 0.929 . S
H947 C957 0.953 . S
H948 C952 0.929 . S
H949 C958 0.929 1_556 S
C950 H944 0.930 1_554 S
C950 C951 1.367 . S
C950 C958 1.378 . S
C951 C950 1.367 . S
C951 C959 1.433 . S
C952 H948 0.929 . S
C952 C954 1.378 . S
C952 C956 1.350 . S
C953 C956 1.463 . S
C953 C958 1.350 . S
C953 N961 1.427 . S
C954 H945 0.930 1_565 S
C954 C952 1.378 . S
C954 C955 1.367 . S
C955 C954 1.367 . S
C955 C957 1.433 . S
C956 C952 1.350 . S
C956 C953 1.463 . S
C956 N960 1.427 . S
C957 H947 0.953 . S
C957 C955 1.433 . S
C957 N960 1.384 . S
C958 H949 0.929 1_554 S
C958 C950 1.378 . S
C958 C953 1.350 . S
C959 H946 0.929 . S
C959 C951 1.433 . S
C959 N961 1.384 . S
N960 C956 1.427 . S
N960 C957 1.384 . S
N961 C953 1.427 . S
N961 C959 1.384 . S
H962 C968 0.930 . S
H963 C972 0.930 . S
H964 C977 0.929 . S
H965 C975 0.929 . S
H966 C970 0.929 . S
H967 C976 0.929 . S
C968 H962 0.930 . S
C968 C969 1.367 . S
C968 C976 1.378 . S
C969 C968 1.367 . S
C969 C977 1.433 1_554 S
C970 H966 0.929 . S
C970 C972 1.378 . S
C970 C974 1.353 . S
C971 C974 1.463 1_554 S
C971 C976 1.350 . S
C971 N979 1.427 1_554 S
C972 H963 0.930 . S
C972 C970 1.378 . S
C972 C973 1.364 . S
C973 C972 1.364 . S
C973 C975 1.436 1_556 S
C974 C970 1.353 . S
C974 C971 1.463 1_556 S
C974 N978 1.424 1_556 S
C975 H965 0.929 . S
C975 C973 1.436 1_554 S
C975 N978 1.384 . S
C976 H967 0.929 . S
C976 C968 1.378 . S
C976 C971 1.350 . S
C977 H964 0.929 . S
C977 C969 1.433 1_556 S
C977 N979 1.384 . S
N978 C974 1.424 1_554 S
N978 C975 1.384 . S
N979 C971 1.427 1_556 S
N979 C977 1.384 . S
H980 C986 0.930 . S
H981 C990 0.930 . S
H982 C995 0.929 . S
H983 C993 0.929 . S
H984 C988 0.929 . S
H985 C994 0.929 . S
C986 H980 0.930 . S
C986 C987 1.367 . S
C986 C994 1.378 . S
C987 C986 1.367 . S
C987 C995 1.433 . S
C988 H984 0.929 . S
C988 C990 1.378 . S
C988 C992 1.350 . S
C989 C992 1.463 . S
C989 C994 1.350 . S
C989 N997 1.427 . S
C990 H981 0.930 . S
C990 C988 1.378 . S
C990 C991 1.367 . S
C991 C990 1.367 . S
C991 C993 1.433 . S
C992 C988 1.350 . S
C992 C989 1.463 . S
C992 N996 1.427 . S
C993 H983 0.929 . S
C993 C991 1.433 . S
C993 N996 1.384 . S
C994 H985 0.929 . S
C994 C986 1.378 . S
C994 C989 1.350 . S
C995 H982 0.929 . S
C995 C987 1.433 . S
C995 N997 1.384 . S
N996 C992 1.427 . S
N996 C993 1.384 . S
N997 C989 1.427 . S
N997 C995 1.384 . S
H998 C1004 0.930 . S
H999 C1008 0.930 . S
H1000 C1013 0.929 . S
H1001 C1011 0.929 . S
H1002 C1006 0.929 . S
H1003 C1012 0.929 . S
C1004 H998 0.930 . S
C1004 C1005 1.367 . S
C1004 C1012 1.378 . S
C1005 C1004 1.367 . S
C1005 C1013 1.433 . S
C1006 H1002 0.929 . S
C1006 C1008 1.378 . S
C1006 C1010 1.350 . S
C1007 C1010 1.463 . S
C1007 C1012 1.350 . S
C1007 N1015 1.427 . S
C1008 H999 0.930 . S
C1008 C1006 1.378 . S
C1008 C1009 1.367 . S
C1009 C1008 1.367 . S
C1009 C1011 1.433 . S
C1010 C1006 1.350 . S
C1010 C1007 1.463 . S
C1010 N1014 1.427 . S
C1011 H1001 0.929 . S
C1011 C1009 1.433 . S
C1011 N1014 1.384 . S
C1012 H1003 0.929 . S
C1012 C1004 1.378 . S
C1012 C1007 1.350 . S
C1013 H1000 0.929 . S
C1013 C1005 1.433 . S
C1013 N1015 1.384 . S
N1014 C1010 1.427 . S
N1014 C1011 1.384 . S
N1015 C1007 1.427 . S
N1015 C1013 1.384 . S
H1016 C1022 0.930 . S
H1017 C1026 0.930 . S
H1018 C1031 0.929 . S
H1019 C1029 0.929 . S
H1020 C1024 0.929 . S
H1021 C1030 0.929 . S
C1022 H1016 0.930 . S
C1022 C1023 1.367 . S
C1022 C1030 1.378 . S
C1023 C1022 1.367 . S
C1023 C1031 1.433 . S
C1024 H1020 0.929 . S
C1024 C1026 1.378 . S
C1024 C1028 1.350 . S
C1025 C1028 1.463 . S
C1025 C1030 1.350 . S
C1025 N1033 1.427 . S
C1026 H1017 0.930 . S
C1026 C1024 1.378 . S
C1026 C1027 1.367 . S
C1027 C1026 1.367 . S
C1027 C1029 1.433 . S
C1028 C1024 1.350 . S
C1028 C1025 1.463 . S
C1028 N1032 1.427 . S
C1029 H1019 0.929 . S
C1029 C1027 1.433 . S
C1029 N1032 1.384 . S
C1030 H1021 0.929 . S
C1030 C1022 1.378 . S
C1030 C1025 1.350 . S
C1031 H1018 0.929 . S
C1031 C1023 1.433 . S
C1031 N1033 1.384 . S
N1032 C1028 1.427 . S
N1032 C1029 1.384 . S
N1033 C1025 1.427 . S
N1033 C1031 1.384 . S
H1034 C1040 0.930 . S
H1035 C1044 0.930 . S
H1036 C1049 0.929 . S
H1037 C1047 0.929 . S
H1038 C1042 0.929 . S
H1039 C1048 0.929 . S
C1040 H1034 0.930 . S
C1040 C1041 1.367 . S
C1040 C1048 1.378 . S
C1041 C1040 1.367 . S
C1041 C1049 1.433 . S
C1042 H1038 0.929 . S
C1042 C1044 1.378 . S
C1042 C1046 1.350 . S
C1043 C1046 1.463 . S
C1043 C1048 1.350 . S
C1043 N1051 1.427 . S
C1044 H1035 0.930 . S
C1044 C1042 1.378 . S
C1044 C1045 1.367 . S
C1045 C1044 1.367 . S
C1045 C1047 1.433 . S
C1046 C1042 1.350 . S
C1046 C1043 1.463 . S
C1046 N1050 1.427 . S
C1047 H1037 0.929 . S
C1047 C1045 1.433 . S
C1047 N1050 1.384 . S
C1048 H1039 0.929 . S
C1048 C1040 1.378 . S
C1048 C1043 1.350 . S
C1049 H1036 0.929 . S
C1049 C1041 1.433 . S
C1049 N1051 1.384 . S
N1050 C1046 1.427 . S
N1050 C1047 1.384 . S
N1051 C1043 1.427 . S
N1051 C1049 1.384 . S
H1052 C1058 0.930 . S
H1053 C1062 0.930 . S
H1054 C1067 0.929 . S
H1055 C1065 0.929 . S
H1056 C1060 0.929 . S
H1057 C1066 0.929 . S
C1058 H1052 0.930 . S
C1058 C1059 1.367 . S
C1058 C1066 1.378 . S
C1059 C1058 1.367 . S
C1059 C1067 1.433 . S
C1060 H1056 0.929 . S
C1060 C1062 1.378 . S
C1060 C1064 1.350 . S
C1061 C1064 1.463 . S
C1061 C1066 1.350 . S
C1061 N1069 1.427 . S
C1062 H1053 0.930 . S
C1062 C1060 1.378 . S
C1062 C1063 1.367 . S
C1063 C1062 1.367 . S
C1063 C1065 1.433 . S
C1064 C1060 1.350 . S
C1064 C1061 1.463 . S
C1064 N1068 1.427 . S
C1065 H1055 0.929 . S
C1065 C1063 1.433 . S
C1065 N1068 1.384 . S
C1066 H1057 0.929 . S
C1066 C1058 1.378 . S
C1066 C1061 1.350 . S
C1067 H1054 0.929 . S
C1067 C1059 1.433 . S
C1067 N1069 1.384 . S
N1068 C1064 1.427 . S
N1068 C1065 1.384 . S
N1069 C1061 1.427 . S
N1069 C1067 1.384 . S
H1070 C1076 0.930 . S
H1071 C1080 0.930 . S
H1072 C1085 0.929 . S
H1073 C1083 0.929 . S
H1074 C1078 0.929 . S
H1075 C1084 0.929 . S
C1076 H1070 0.930 . S
C1076 C1077 1.367 . S
C1076 C1084 1.378 . S
C1077 C1076 1.367 . S
C1077 C1085 1.433 . S
C1078 H1074 0.929 . S
C1078 C1080 1.378 . S
C1078 C1082 1.350 . S
C1079 C1082 1.463 . S
C1079 C1084 1.350 . S
C1079 N1087 1.427 . S
C1080 H1071 0.930 . S
C1080 C1078 1.378 . S
C1080 C1081 1.367 . S
C1081 C1080 1.367 . S
C1081 C1083 1.433 . S
C1082 C1078 1.350 . S
C1082 C1079 1.463 . S
C1082 N1086 1.427 . S
C1083 H1073 0.929 . S
C1083 C1081 1.433 . S
C1083 N1086 1.384 . S
C1084 H1075 0.929 . S
C1084 C1076 1.378 . S
C1084 C1079 1.350 . S
C1085 H1072 0.929 . S
C1085 C1077 1.433 . S
C1085 N1087 1.384 . S
N1086 C1082 1.427 . S
N1086 C1083 1.384 . S
N1087 C1079 1.427 . S
N1087 C1085 1.384 . S
H1088 C1094 0.930 . S
H1089 C1098 0.930 . S
H1090 C1103 0.929 . S
H1091 C1101 0.929 1_655 S
H1092 C1096 0.929 . S
H1093 C1102 0.929 . S
C1094 H1088 0.930 . S
C1094 C1095 1.367 . S
C1094 C1102 1.378 . S
C1095 C1094 1.367 . S
C1095 C1103 1.433 . S
C1096 H1092 0.929 . S
C1096 C1098 1.378 . S
C1096 C1100 1.350 . S
C1097 C1100 1.463 . S
C1097 C1102 1.350 . S
C1097 N1105 1.427 . S
C1098 H1089 0.930 . S
C1098 C1096 1.378 . S
C1098 C1099 1.367 . S
C1099 C1098 1.367 . S
C1099 C1101 1.433 . S
C1100 C1096 1.350 . S
C1100 C1097 1.463 . S
C1100 N1104 1.427 . S
C1101 H1091 0.929 1_455 S
C1101 C1099 1.433 . S
C1101 N1104 1.384 . S
C1102 H1093 0.929 . S
C1102 C1094 1.378 . S
C1102 C1097 1.350 . S
C1103 H1090 0.929 . S
C1103 C1095 1.433 . S
C1103 N1105 1.384 . S
N1104 C1100 1.427 . S
N1104 C1101 1.384 . S
N1105 C1097 1.427 . S
N1105 C1103 1.384 . S
H1106 C1112 0.930 . S
H1107 C1116 0.930 . S
H1108 C1121 0.929 . S
H1109 C1119 0.929 . S
H1110 C1114 0.929 . S
H1111 C1120 0.929 . S
C1112 H1106 0.930 . S
C1112 C1113 1.367 . S
C1112 C1120 1.378 . S
C1113 C1112 1.367 . S
C1113 C1121 1.433 . S
C1114 H1110 0.929 . S
C1114 C1116 1.378 . S
C1114 C1118 1.350 . S
C1115 C1118 1.463 . S
C1115 C1120 1.350 . S
C1115 N1123 1.427 . S
C1116 H1107 0.930 . S
C1116 C1114 1.378 . S
C1116 C1117 1.367 . S
C1117 C1116 1.367 . S
C1117 C1119 1.433 . S
C1118 C1114 1.350 . S
C1118 C1115 1.463 . S
C1118 N1122 1.427 . S
C1119 H1109 0.929 . S
C1119 C1117 1.433 . S
C1119 N1122 1.384 . S
C1120 H1111 0.929 . S
C1120 C1112 1.378 . S
C1120 C1115 1.350 . S
C1121 H1108 0.929 . S
C1121 C1113 1.433 . S
C1121 N1123 1.384 . S
N1122 C1118 1.427 . S
N1122 C1119 1.384 . S
N1123 C1115 1.427 . S
N1123 C1121 1.384 . S
H1124 C1130 0.930 . S
H1125 C1134 0.930 . S
H1126 C1139 0.929 . S
H1127 C1137 0.929 . S
H1128 C1132 0.929 . S
H1129 C1138 0.929 . S
C1130 H1124 0.930 . S
C1130 C1131 1.367 . S
C1130 C1138 1.378 . S
C1131 C1130 1.367 . S
C1131 C1139 1.433 . S
C1132 H1128 0.929 . S
C1132 C1134 1.378 . S
C1132 C1136 1.350 . S
C1133 C1136 1.463 . S
C1133 C1138 1.350 . S
C1133 N1141 1.427 . S
C1134 H1125 0.930 . S
C1134 C1132 1.378 . S
C1134 C1135 1.367 . S
C1135 C1134 1.367 . S
C1135 C1137 1.433 . S
C1136 C1132 1.350 . S
C1136 C1133 1.463 . S
C1136 N1140 1.427 . S
C1137 H1127 0.929 . S
C1137 C1135 1.433 . S
C1137 N1140 1.384 . S
C1138 H1129 0.929 . S
C1138 C1130 1.378 . S
C1138 C1133 1.350 . S
C1139 H1126 0.929 . S
C1139 C1131 1.433 . S
C1139 N1141 1.384 . S
N1140 C1136 1.427 . S
N1140 C1137 1.384 . S
N1141 C1133 1.427 . S
N1141 C1139 1.384 . S
H1142 C1148 0.930 . S
H1143 C1152 0.930 . S
H1144 C1157 0.929 . S
H1145 C1155 0.929 . S
H1146 C1150 0.929 . S
H1147 C1156 0.929 . S
C1148 H1142 0.930 . S
C1148 C1149 1.367 . S
C1148 C1156 1.378 . S
C1149 C1148 1.367 . S
C1149 C1157 1.433 . S
C1150 H1146 0.929 . S
C1150 C1152 1.378 . S
C1150 C1154 1.350 . S
C1151 C1154 1.463 . S
C1151 C1156 1.350 . S
C1151 N1159 1.427 . S
C1152 H1143 0.930 . S
C1152 C1150 1.378 . S
C1152 C1153 1.367 . S
C1153 C1152 1.367 . S
C1153 C1155 1.433 . S
C1154 C1150 1.350 . S
C1154 C1151 1.463 . S
C1154 N1158 1.427 . S
C1155 H1145 0.929 . S
C1155 C1153 1.433 . S
C1155 N1158 1.384 . S
C1156 H1147 0.929 . S
C1156 C1148 1.378 . S
C1156 C1151 1.350 . S
C1157 H1144 0.929 . S
C1157 C1149 1.433 . S
C1157 N1159 1.384 . S
N1158 C1154 1.427 . S
N1158 C1155 1.384 . S
N1159 C1151 1.427 . S
N1159 C1157 1.384 . S
H1160 C1166 0.930 . S
H1161 C1170 0.930 . S
H1162 C1175 0.929 . S
H1163 C1173 0.929 . S
H1164 C1168 0.929 . S
H1165 C1174 0.929 . S
C1166 H1160 0.930 . S
C1166 C1167 1.367 1_655 S
C1166 C1174 1.378 . S
C1167 C1166 1.367 1_455 S
C1167 C1175 1.433 . S
C1168 H1164 0.929 . S
C1168 C1170 1.378 . S
C1168 C1172 1.350 . S
C1169 C1172 1.463 . S
C1169 C1174 1.350 1_455 S
C1169 N1177 1.427 . S
C1170 H1161 0.930 . S
C1170 C1168 1.378 . S
C1170 C1171 1.367 . S
C1171 C1170 1.367 . S
C1171 C1173 1.433 1_455 S
C1172 C1168 1.350 . S
C1172 C1169 1.463 . S
C1172 N1176 1.427 1_455 S
C1173 H1163 0.929 . S
C1173 C1171 1.433 1_655 S
C1173 N1176 1.384 . S
C1174 H1165 0.929 . S
C1174 C1166 1.378 . S
C1174 C1169 1.350 1_655 S
C1175 H1162 0.929 . S
C1175 C1167 1.433 . S
C1175 N1177 1.384 . S
N1176 C1172 1.427 1_655 S
N1176 C1173 1.384 . S
N1177 C1169 1.427 . S
N1177 C1175 1.384 . S
H1178 C1184 0.930 . S
H1179 C1188 0.930 . S
H1180 C1193 0.929 . S
H1181 C1191 0.929 . S
H1182 C1186 0.929 . S
H1183 C1192 0.929 . S
C1184 H1178 0.930 . S
C1184 C1185 1.367 . S
C1184 C1192 1.378 . S
C1185 C1184 1.367 . S
C1185 C1193 1.433 . S
C1186 H1182 0.929 . S
C1186 C1188 1.378 . S
C1186 C1190 1.350 . S
C1187 C1190 1.463 . S
C1187 C1192 1.350 . S
C1187 N1195 1.427 . S
C1188 H1179 0.930 . S
C1188 C1186 1.378 . S
C1188 C1189 1.367 . S
C1189 C1188 1.367 . S
C1189 C1191 1.433 . S
C1190 C1186 1.350 . S
C1190 C1187 1.463 . S
C1190 N1194 1.427 . S
C1191 H1181 0.929 . S
C1191 C1189 1.433 . S
C1191 N1194 1.384 . S
C1192 H1183 0.929 . S
C1192 C1184 1.378 . S
C1192 C1187 1.350 . S
C1193 H1180 0.929 . S
C1193 C1185 1.433 . S
C1193 N1195 1.384 . S
N1194 C1190 1.427 . S
N1194 C1191 1.384 . S
N1195 C1187 1.427 . S
N1195 C1193 1.384 . S
H1196 C1202 0.930 . S
H1197 C1206 0.930 . S
H1198 C1211 0.929 . S
H1199 C1209 0.929 1_554 S
H1200 C1204 0.929 . S
H1201 C1210 0.929 . S
C1202 H1196 0.930 . S
C1202 C1203 1.367 . S
C1202 C1210 1.378 . S
C1203 C1202 1.367 . S
C1203 C1211 1.433 . S
C1204 H1200 0.929 . S
C1204 C1206 1.378 . S
C1204 C1208 1.350 . S
C1205 C1208 1.463 . S
C1205 C1210 1.350 . S
C1205 N1213 1.427 . S
C1206 H1197 0.930 . S
C1206 C1204 1.378 . S
C1206 C1207 1.367 . S
C1207 C1206 1.367 . S
C1207 C1209 1.433 . S
C1208 C1204 1.350 . S
C1208 C1205 1.463 . S
C1208 N1212 1.427 . S
C1209 H1199 0.929 1_556 S
C1209 C1207 1.433 . S
C1209 N1212 1.384 . S
C1210 H1201 0.929 . S
C1210 C1202 1.378 . S
C1210 C1205 1.350 . S
C1211 H1198 0.929 . S
C1211 C1203 1.433 . S
C1211 N1213 1.384 . S
N1212 C1208 1.427 . S
N1212 C1209 1.384 . S
N1213 C1205 1.427 . S
N1213 C1211 1.384 . S
H1214 C1220 0.930 . S
H1215 C1224 0.930 . S
H1216 C1229 0.929 . S
H1217 C1227 0.929 . S
H1218 C1222 0.929 . S
H1219 C1228 0.929 . S
C1220 H1214 0.930 . S
C1220 C1221 1.367 . S
C1220 C1228 1.378 . S
C1221 C1220 1.367 . S
C1221 C1229 1.433 . S
C1222 H1218 0.929 . S
C1222 C1224 1.378 . S
C1222 C1226 1.350 . S
C1223 C1226 1.463 . S
C1223 C1228 1.350 . S
C1223 N1231 1.427 . S
C1224 H1215 0.930 . S
C1224 C1222 1.378 . S
C1224 C1225 1.367 . S
C1225 C1224 1.367 . S
C1225 C1227 1.433 . S
C1226 C1222 1.350 . S
C1226 C1223 1.463 . S
C1226 N1230 1.427 . S
C1227 H1217 0.929 . S
C1227 C1225 1.433 . S
C1227 N1230 1.384 . S
C1228 H1219 0.929 . S
C1228 C1220 1.378 . S
C1228 C1223 1.350 . S
C1229 H1216 0.929 . S
C1229 C1221 1.433 . S
C1229 N1231 1.384 . S
N1230 C1226 1.427 . S
N1230 C1227 1.384 . S
N1231 C1223 1.427 . S
N1231 C1229 1.384 . S
H1232 C1238 0.930 . S
H1233 C1242 0.930 . S
H1234 C1247 0.929 . S
H1235 C1245 0.929 . S
H1236 C1240 0.929 . S
H1237 C1246 0.929 . S
C1238 H1232 0.930 . S
C1238 C1239 1.367 . S
C1238 C1246 1.378 . S
C1239 C1238 1.367 . S
C1239 C1247 1.433 1_545 S
C1240 H1236 0.929 . S
C1240 C1242 1.378 . S
C1240 C1244 1.350 1_565 S
C1241 C1244 1.463 . S
C1241 C1246 1.350 . S
C1241 N1249 1.427 1_545 S
C1242 H1233 0.930 . S
C1242 C1240 1.378 . S
C1242 C1243 1.367 1_565 S
C1243 C1242 1.367 1_545 S
C1243 C1245 1.433 . S
C1244 C1240 1.350 1_545 S
C1244 C1241 1.463 . S
C1244 N1248 1.427 . S
C1245 H1235 0.929 . S
C1245 C1243 1.433 . S
C1245 N1248 1.384 . S
C1246 H1237 0.929 . S
C1246 C1238 1.378 . S
C1246 C1241 1.350 . S
C1247 H1234 0.929 . S
C1247 C1239 1.433 1_565 S
C1247 N1249 1.384 . S
N1248 C1244 1.427 . S
N1248 C1245 1.384 . S
N1249 C1241 1.427 1_565 S
N1249 C1247 1.384 . S
H1250 C1256 0.930 . S
H1251 C1260 0.930 . S
H1252 C1265 0.929 . S
H1253 C1263 0.929 . S
H1254 C1258 0.929 . S
H1255 C1264 0.929 . S
C1256 H1250 0.930 . S
C1256 C1257 1.367 . S
C1256 C1264 1.378 . S
C1257 C1256 1.367 . S
C1257 C1265 1.433 . S
C1258 H1254 0.929 . S
C1258 C1260 1.378 . S
C1258 C1262 1.350 . S
C1259 C1262 1.463 . S
C1259 C1264 1.350 . S
C1259 N1267 1.427 . S
C1260 H1251 0.930 . S
C1260 C1258 1.378 . S
C1260 C1261 1.367 . S
C1261 C1260 1.367 . S
C1261 C1263 1.433 . S
C1262 C1258 1.350 . S
C1262 C1259 1.463 . S
C1262 N1266 1.427 . S
C1263 H1253 0.929 . S
C1263 C1261 1.433 . S
C1263 N1266 1.384 . S
C1264 H1255 0.929 . S
C1264 C1256 1.378 . S
C1264 C1259 1.350 . S
C1265 H1252 0.929 . S
C1265 C1257 1.433 . S
C1265 N1267 1.384 . S
N1266 C1262 1.427 . S
N1266 C1263 1.384 . S
N1267 C1259 1.427 . S
N1267 C1265 1.384 . S
H1268 C1274 0.930 1_565 S
H1269 C1278 0.930 . S
H1270 C1283 0.929 . S
H1271 C1281 0.929 1_565 S
H1272 C1276 0.929 . S
H1273 C1282 0.929 1_565 S
C1274 H1268 0.930 1_545 S
C1274 C1275 1.367 . S
C1274 C1282 1.378 . S
C1275 C1274 1.367 . S
C1275 C1283 1.433 . S
C1276 H1272 0.929 . S
C1276 C1278 1.378 . S
C1276 C1280 1.350 . S
C1277 C1280 1.463 . S
C1277 C1282 1.350 . S
C1277 N1285 1.427 . S
C1278 H1269 0.930 . S
C1278 C1276 1.378 . S
C1278 C1279 1.367 . S
C1279 C1278 1.367 . S
C1279 C1281 1.433 . S
C1280 C1276 1.350 . S
C1280 C1277 1.463 . S
C1280 N1284 1.427 . S
C1281 H1271 0.929 1_545 S
C1281 C1279 1.433 . S
C1281 N1284 1.384 . S
C1282 H1273 0.929 1_545 S
C1282 C1274 1.378 . S
C1282 C1277 1.350 . S
C1283 H1270 0.929 . S
C1283 C1275 1.433 . S
C1283 N1285 1.384 . S
N1284 C1280 1.427 . S
N1284 C1281 1.384 . S
N1285 C1277 1.427 . S
N1285 C1283 1.384 . S
H1286 C1292 0.930 . S
H1287 C1296 0.930 . S
H1288 C1301 0.929 . S
H1289 C1299 0.929 . S
H1290 C1294 0.929 . S
H1291 C1300 0.929 . S
C1292 H1286 0.930 . S
C1292 C1293 1.367 . S
C1292 C1300 1.378 . S
C1293 C1292 1.367 . S
C1293 C1301 1.433 . S
C1294 H1290 0.929 . S
C1294 C1296 1.378 . S
C1294 C1298 1.350 . S
C1295 C1298 1.463 . S
C1295 C1300 1.350 . S
C1295 N1303 1.427 . S
C1296 H1287 0.930 . S
C1296 C1294 1.378 . S
C1296 C1297 1.367 . S
C1297 C1296 1.367 . S
C1297 C1299 1.433 . S
C1298 C1294 1.350 . S
C1298 C1295 1.463 . S
C1298 N1302 1.427 . S
C1299 H1289 0.929 . S
C1299 C1297 1.433 . S
C1299 N1302 1.384 . S
C1300 H1291 0.929 . S
C1300 C1292 1.378 . S
C1300 C1295 1.350 . S
C1301 H1288 0.929 . S
C1301 C1293 1.433 . S
C1301 N1303 1.384 . S
N1302 C1298 1.427 . S
N1302 C1299 1.384 . S
N1303 C1295 1.427 . S
N1303 C1301 1.384 . S
H1304 C1310 0.924 . S
H1305 C1314 0.930 . S
H1306 C1319 0.929 . S
H1307 C1317 0.929 . S
H1308 C1312 0.929 . S
H1309 C1318 0.929 . S
C1310 H1304 0.924 . S
C1310 C1311 1.361 1_545 S
C1310 C1318 1.391 . S
C1311 C1310 1.361 1_565 S
C1311 C1319 1.433 . S
C1312 H1308 0.929 . S
C1312 C1314 1.378 . S
C1312 C1316 1.350 . S
C1313 C1316 1.463 . S
C1313 C1318 1.350 . S
C1313 N1321 1.422 1_545 S
C1314 H1305 0.930 . S
C1314 C1312 1.378 . S
C1314 C1315 1.367 . S
C1315 C1314 1.367 . S
C1315 C1317 1.433 . S
C1316 C1312 1.350 . S
C1316 C1313 1.463 . S
C1316 N1320 1.427 . S
C1317 H1307 0.929 . S
C1317 C1315 1.433 . S
C1317 N1320 1.384 . S
C1318 H1309 0.929 . S
C1318 C1310 1.391 . S
C1318 C1313 1.350 . S
C1319 H1306 0.929 . S
C1319 C1311 1.433 . S
C1319 N1321 1.399 . S
N1320 C1316 1.427 . S
N1320 C1317 1.384 . S
N1321 C1313 1.422 1_565 S
N1321 C1319 1.399 . S
H1322 C1328 0.930 . S
H1323 C1332 0.930 . S
H1324 C1337 0.929 . S
H1325 C1335 0.929 . S
H1326 C1330 0.929 . S
H1327 C1336 0.929 . S
C1328 H1322 0.930 . S
C1328 C1329 1.367 . S
C1328 C1336 1.378 . S
C1329 C1328 1.367 . S
C1329 C1337 1.433 . S
C1330 H1326 0.929 . S
C1330 C1332 1.378 . S
C1330 C1334 1.350 . S
C1331 C1334 1.463 . S
C1331 C1336 1.350 . S
C1331 N1339 1.427 . S
C1332 H1323 0.930 . S
C1332 C1330 1.378 . S
C1332 C1333 1.367 . S
C1333 C1332 1.367 . S
C1333 C1335 1.433 . S
C1334 C1330 1.350 . S
C1334 C1331 1.463 . S
C1334 N1338 1.427 . S
C1335 H1325 0.929 . S
C1335 C1333 1.433 . S
C1335 N1338 1.384 . S
C1336 H1327 0.929 . S
C1336 C1328 1.378 . S
C1336 C1331 1.350 . S
C1337 H1324 0.929 . S
C1337 C1329 1.433 . S
C1337 N1339 1.384 . S
N1338 C1334 1.427 . S
N1338 C1335 1.384 . S
N1339 C1331 1.427 . S
N1339 C1337 1.384 . S
H1340 C1346 0.921 1_565 S
H1341 C1350 0.930 . S
H1342 C1355 0.929 . S
H1343 C1353 0.929 . S
H1344 C1348 0.929 . S
H1345 C1354 0.929 . S
C1346 H1340 0.921 1_545 S
C1346 C1347 1.378 . S
C1346 C1354 1.376 1_545 S
C1347 C1346 1.378 . S
C1347 C1355 1.433 . S
C1348 H1344 0.929 . S
C1348 C1350 1.378 . S
C1348 C1352 1.350 . S
C1349 C1352 1.463 . S
C1349 C1354 1.350 1_545 S
C1349 N1357 1.427 . S
C1350 H1341 0.930 . S
C1350 C1348 1.378 . S
C1350 C1351 1.367 . S
C1351 C1350 1.367 . S
C1351 C1353 1.433 1_545 S
C1352 C1348 1.350 . S
C1352 C1349 1.463 . S
C1352 N1356 1.427 1_545 S
C1353 H1343 0.929 . S
C1353 C1351 1.433 1_565 S
C1353 N1356 1.384 . S
C1354 H1345 0.929 . S
C1354 C1346 1.376 1_565 S
C1354 C1349 1.350 1_565 S
C1355 H1342 0.929 . S
C1355 C1347 1.433 . S
C1355 N1357 1.384 . S
N1356 C1352 1.427 1_565 S
N1356 C1353 1.384 . S
N1357 C1349 1.427 . S
N1357 C1355 1.384 . S
H1358 C1364 0.930 . S
H1359 C1368 0.930 . S
H1360 C1373 0.929 . S
H1361 C1371 0.929 . S
H1362 C1366 0.929 . S
H1363 C1372 0.929 . S
C1364 H1358 0.930 . S
C1364 C1365 1.367 . S
C1364 C1372 1.378 . S
C1365 C1364 1.367 . S
C1365 C1373 1.433 . S
C1366 H1362 0.929 . S
C1366 C1368 1.378 . S
C1366 C1370 1.350 . S
C1367 C1370 1.463 . S
C1367 C1372 1.350 . S
C1367 N1375 1.427 . S
C1368 H1359 0.930 . S
C1368 C1366 1.378 . S
C1368 C1369 1.367 . S
C1369 C1368 1.367 . S
C1369 C1371 1.433 . S
C1370 C1366 1.350 . S
C1370 C1367 1.463 . S
C1370 N1374 1.427 . S
C1371 H1361 0.929 . S
C1371 C1369 1.433 . S
C1371 N1374 1.384 . S
C1372 H1363 0.929 . S
C1372 C1364 1.378 . S
C1372 C1367 1.350 . S
C1373 H1360 0.929 . S
C1373 C1365 1.433 . S
C1373 N1375 1.384 . S
N1374 C1370 1.427 . S
N1374 C1371 1.384 . S
N1375 C1367 1.427 . S
N1375 C1373 1.384 . S
H1376 C1382 0.930 . S
H1377 C1386 0.930 . S
H1378 C1391 0.929 . S
H1379 C1389 0.908 1_554 S
H1380 C1384 0.929 . S
H1381 C1390 0.929 . S
C1382 H1376 0.930 . S
C1382 C1383 1.374 . S
C1382 C1390 1.378 . S
C1383 C1382 1.374 . S
C1383 C1391 1.425 1_554 S
C1384 H1380 0.929 . S
C1384 C1386 1.378 . S
C1384 C1388 1.350 . S
C1385 C1388 1.463 . S
C1385 C1390 1.350 1_556 S
C1385 N1393 1.427 . S
C1386 H1377 0.930 . S
C1386 C1384 1.378 . S
C1386 C1387 1.367 . S
C1387 C1386 1.367 . S
C1387 C1389 1.461 . S
C1388 C1384 1.350 . S
C1388 C1385 1.463 . S
C1388 N1392 1.427 1_556 S
C1389 H1379 0.908 1_556 S
C1389 C1387 1.461 . S
C1389 N1392 1.379 1_556 S
C1390 H1381 0.929 . S
C1390 C1382 1.378 . S
C1390 C1385 1.350 1_554 S
C1391 H1378 0.929 . S
C1391 C1383 1.425 1_556 S
C1391 N1393 1.384 . S
N1392 C1388 1.427 1_554 S
N1392 C1389 1.379 1_554 S
N1393 C1385 1.427 . S
N1393 C1391 1.384 . S
H1394 C1400 0.922 1_556 S
H1395 C1404 0.930 . S
H1396 C1409 0.929 . S
H1397 C1407 0.953 . S
H1398 C1402 0.929 . S
H1399 C1408 0.926 1_556 S
C1400 H1394 0.922 1_554 S
C1400 C1401 1.378 . S
C1400 C1408 1.376 . S
C1401 C1400 1.378 . S
C1401 C1409 1.433 . S
C1402 H1398 0.929 . S
C1402 C1404 1.378 . S
C1402 C1406 1.350 . S
C1403 C1406 1.463 . S
C1403 C1408 1.352 . S
C1403 N1411 1.427 . S
C1404 H1395 0.930 . S
C1404 C1402 1.378 . S
C1404 C1405 1.367 . S
C1405 C1404 1.367 . S
C1405 C1407 1.415 1_554 S
C1406 C1402 1.350 . S
C1406 C1403 1.463 . S
C1406 N1410 1.417 1_554 S
C1407 H1397 0.953 . S
C1407 C1405 1.415 1_556 S
C1407 N1410 1.381 . S
C1408 H1399 0.926 1_554 S
C1408 C1400 1.376 . S
C1408 C1403 1.352 . S
C1409 H1396 0.929 . S
C1409 C1401 1.433 . S
C1409 N1411 1.384 . S
N1410 C1406 1.417 1_556 S
N1410 C1407 1.381 . S
N1411 C1403 1.427 . S
N1411 C1409 1.384 . S
H1412 C1418 0.930 . S
H1413 C1422 0.930 . S
H1414 C1427 0.929 . S
H1415 C1425 0.929 . S
H1416 C1420 0.929 . S
H1417 C1426 0.929 . S
C1418 H1412 0.930 . S
C1418 C1419 1.367 . S
C1418 C1426 1.378 . S
C1419 C1418 1.367 . S
C1419 C1427 1.433 . S
C1420 H1416 0.929 . S
C1420 C1422 1.378 . S
C1420 C1424 1.350 . S
C1421 C1424 1.463 . S
C1421 C1426 1.350 . S
C1421 N1429 1.427 . S
C1422 H1413 0.930 . S
C1422 C1420 1.378 . S
C1422 C1423 1.367 . S
C1423 C1422 1.367 . S
C1423 C1425 1.433 . S
C1424 C1420 1.350 . S
C1424 C1421 1.463 . S
C1424 N1428 1.427 . S
C1425 H1415 0.929 . S
C1425 C1423 1.433 . S
C1425 N1428 1.384 . S
C1426 H1417 0.929 . S
C1426 C1418 1.378 . S
C1426 C1421 1.350 . S
C1427 H1414 0.929 . S
C1427 C1419 1.433 . S
C1427 N1429 1.384 . S
N1428 C1424 1.427 . S
N1428 C1425 1.384 . S
N1429 C1421 1.427 . S
N1429 C1427 1.384 . S
H1430 C1436 0.930 . S
H1431 C1440 0.930 . S
H1432 C1445 0.929 . S
H1433 C1443 0.929 . S
H1434 C1438 0.929 . S
H1435 C1444 0.929 . S
C1436 H1430 0.930 . S
C1436 C1437 1.367 . S
C1436 C1444 1.378 . S
C1437 C1436 1.367 . S
C1437 C1445 1.433 . S
C1438 H1434 0.929 . S
C1438 C1440 1.378 . S
C1438 C1442 1.350 . S
C1439 C1442 1.463 . S
C1439 C1444 1.350 . S
C1439 N1447 1.427 . S
C1440 H1431 0.930 . S
C1440 C1438 1.378 . S
C1440 C1441 1.367 . S
C1441 C1440 1.367 . S
C1441 C1443 1.433 . S
C1442 C1438 1.350 . S
C1442 C1439 1.463 . S
C1442 N1446 1.427 . S
C1443 H1433 0.929 . S
C1443 C1441 1.433 . S
C1443 N1446 1.384 . S
C1444 H1435 0.929 . S
C1444 C1436 1.378 . S
C1444 C1439 1.350 . S
C1445 H1432 0.929 . S
C1445 C1437 1.433 . S
C1445 N1447 1.384 . S
N1446 C1442 1.427 . S
N1446 C1443 1.384 . S
N1447 C1439 1.427 . S
N1447 C1445 1.384 . S
H1448 C1454 0.930 . S
H1449 C1458 0.930 . S
H1450 C1463 0.929 . S
H1451 C1461 0.929 . S
H1452 C1456 0.929 . S
H1453 C1462 0.929 . S
C1454 H1448 0.930 . S
C1454 C1455 1.367 . S
C1454 C1462 1.378 . S
C1455 C1454 1.367 . S
C1455 C1463 1.433 . S
C1456 H1452 0.929 . S
C1456 C1458 1.378 . S
C1456 C1460 1.350 . S
C1457 C1460 1.463 . S
C1457 C1462 1.350 . S
C1457 N1465 1.427 . S
C1458 H1449 0.930 . S
C1458 C1456 1.378 . S
C1458 C1459 1.367 . S
C1459 C1458 1.367 . S
C1459 C1461 1.433 . S
C1460 C1456 1.350 . S
C1460 C1457 1.463 . S
C1460 N1464 1.427 . S
C1461 H1451 0.929 . S
C1461 C1459 1.433 . S
C1461 N1464 1.384 . S
C1462 H1453 0.929 . S
C1462 C1454 1.378 . S
C1462 C1457 1.350 . S
C1463 H1450 0.929 . S
C1463 C1455 1.433 . S
C1463 N1465 1.384 . S
N1464 C1460 1.427 . S
N1464 C1461 1.384 . S
N1465 C1457 1.427 . S
N1465 C1463 1.384 . S
H1466 C1472 0.930 . S
H1467 C1476 0.930 . S
H1468 C1481 0.929 . S
H1469 C1479 0.929 1_545 S
H1470 C1474 0.929 . S
H1471 C1480 0.929 . S
C1472 H1466 0.930 . S
C1472 C1473 1.367 . S
C1472 C1480 1.378 . S
C1473 C1472 1.367 . S
C1473 C1481 1.433 . S
C1474 H1470 0.929 . S
C1474 C1476 1.378 . S
C1474 C1478 1.350 . S
C1475 C1478 1.463 . S
C1475 C1480 1.350 . S
C1475 N1483 1.427 . S
C1476 H1467 0.930 . S
C1476 C1474 1.378 . S
C1476 C1477 1.367 . S
C1477 C1476 1.367 . S
C1477 C1479 1.433 . S
C1478 C1474 1.350 . S
C1478 C1475 1.463 . S
C1478 N1482 1.427 . S
C1479 H1469 0.929 1_565 S
C1479 C1477 1.433 . S
C1479 N1482 1.384 . S
C1480 H1471 0.929 . S
C1480 C1472 1.378 . S
C1480 C1475 1.350 . S
C1481 H1468 0.929 . S
C1481 C1473 1.433 . S
C1481 N1483 1.384 . S
N1482 C1478 1.427 . S
N1482 C1479 1.384 . S
N1483 C1475 1.427 . S
N1483 C1481 1.384 . S
H1484 C1490 0.930 . S
H1485 C1494 0.930 . S
H1486 C1499 0.929 . S
H1487 C1497 0.929 . S
H1488 C1492 0.929 . S
H1489 C1498 0.929 . S
C1490 H1484 0.930 . S
C1490 C1491 1.367 . S
C1490 C1498 1.378 . S
C1491 C1490 1.367 . S
C1491 C1499 1.433 . S
C1492 H1488 0.929 . S
C1492 C1494 1.378 . S
C1492 C1496 1.350 . S
C1493 C1496 1.463 . S
C1493 C1498 1.350 . S
C1493 N1501 1.427 . S
C1494 H1485 0.930 . S
C1494 C1492 1.378 . S
C1494 C1495 1.367 . S
C1495 C1494 1.367 . S
C1495 C1497 1.433 . S
C1496 C1492 1.350 . S
C1496 C1493 1.463 . S
C1496 N1500 1.427 . S
C1497 H1487 0.929 . S
C1497 C1495 1.433 . S
C1497 N1500 1.384 . S
C1498 H1489 0.929 . S
C1498 C1490 1.378 . S
C1498 C1493 1.350 . S
C1499 H1486 0.929 . S
C1499 C1491 1.433 . S
C1499 N1501 1.384 . S
N1500 C1496 1.427 . S
N1500 C1497 1.384 . S
N1501 C1493 1.427 . S
N1501 C1499 1.384 . S
H1502 C1508 0.930 . S
H1503 C1512 0.930 . S
H1504 C1517 0.929 . S
H1505 C1515 0.929 . S
H1506 C1510 0.929 . S
H1507 C1516 0.929 . S
C1508 H1502 0.930 . S
C1508 C1509 1.367 . S
C1508 C1516 1.378 . S
C1509 C1508 1.367 . S
C1509 C1517 1.433 . S
C1510 H1506 0.929 . S
C1510 C1512 1.378 . S
C1510 C1514 1.350 . S
C1511 C1514 1.463 . S
C1511 C1516 1.350 . S
C1511 N1519 1.427 . S
C1512 H1503 0.930 . S
C1512 C1510 1.378 . S
C1512 C1513 1.367 . S
C1513 C1512 1.367 . S
C1513 C1515 1.433 . S
C1514 C1510 1.350 . S
C1514 C1511 1.463 . S
C1514 N1518 1.427 . S
C1515 H1505 0.929 . S
C1515 C1513 1.433 . S
C1515 N1518 1.384 . S
C1516 H1507 0.929 . S
C1516 C1508 1.378 . S
C1516 C1511 1.350 . S
C1517 H1504 0.929 . S
C1517 C1509 1.433 . S
C1517 N1519 1.384 . S
N1518 C1514 1.427 . S
N1518 C1515 1.384 . S
N1519 C1511 1.427 . S
N1519 C1517 1.384 . S
H1520 C1526 0.930 . S
H1521 C1530 0.930 . S
H1522 C1535 0.929 . S
H1523 C1533 0.929 . S
H1524 C1528 0.929 . S
H1525 C1534 0.929 . S
C1526 H1520 0.930 . S
C1526 C1527 1.367 . S
C1526 C1534 1.378 . S
C1527 C1526 1.367 . S
C1527 C1535 1.433 . S
C1528 H1524 0.929 . S
C1528 C1530 1.378 . S
C1528 C1532 1.350 . S
C1529 C1532 1.463 . S
C1529 C1534 1.350 . S
C1529 N1537 1.427 . S
C1530 H1521 0.930 . S
C1530 C1528 1.378 . S
C1530 C1531 1.367 . S
C1531 C1530 1.367 . S
C1531 C1533 1.433 . S
C1532 C1528 1.350 . S
C1532 C1529 1.463 . S
C1532 N1536 1.427 . S
C1533 H1523 0.929 . S
C1533 C1531 1.433 . S
C1533 N1536 1.384 . S
C1534 H1525 0.929 . S
C1534 C1526 1.378 . S
C1534 C1529 1.350 . S
C1535 H1522 0.929 . S
C1535 C1527 1.433 . S
C1535 N1537 1.384 . S
N1536 C1532 1.427 . S
N1536 C1533 1.384 . S
N1537 C1529 1.427 . S
N1537 C1535 1.384 . S
H1538 C1544 0.930 . S
H1539 C1548 0.930 . S
H1540 C1553 0.929 . S
H1541 C1551 0.929 . S
H1542 C1546 0.929 . S
H1543 C1552 0.929 . S
C1544 H1538 0.930 . S
C1544 C1545 1.367 . S
C1544 C1552 1.378 . S
C1545 C1544 1.367 . S
C1545 C1553 1.433 . S
C1546 H1542 0.929 . S
C1546 C1548 1.378 . S
C1546 C1550 1.350 . S
C1547 C1550 1.463 . S
C1547 C1552 1.350 . S
C1547 N1555 1.427 . S
C1548 H1539 0.930 . S
C1548 C1546 1.378 . S
C1548 C1549 1.367 . S
C1549 C1548 1.367 . S
C1549 C1551 1.433 . S
C1550 C1546 1.350 . S
C1550 C1547 1.463 . S
C1550 N1554 1.427 . S
C1551 H1541 0.929 . S
C1551 C1549 1.433 . S
C1551 N1554 1.384 . S
C1552 H1543 0.929 . S
C1552 C1544 1.378 . S
C1552 C1547 1.350 . S
C1553 H1540 0.929 . S
C1553 C1545 1.433 . S
C1553 N1555 1.384 . S
N1554 C1550 1.427 . S
N1554 C1551 1.384 . S
N1555 C1547 1.427 . S
N1555 C1553 1.384 . S
H1556 C1562 0.930 . S
H1557 C1566 0.930 . S
H1558 C1571 0.929 . S
H1559 C1569 0.929 . S
H1560 C1564 0.929 1_554 S
H1561 C1570 0.929 . S
C1562 H1556 0.930 . S
C1562 C1563 1.367 1_655 S
C1562 C1570 1.378 . S
C1563 C1562 1.367 1_455 S
C1563 C1571 1.433 . S
C1564 H1560 0.929 1_556 S
C1564 C1566 1.378 1_556 S
C1564 C1568 1.350 . S
C1565 C1568 1.463 . S
C1565 C1570 1.350 1_455 S
C1565 N1573 1.427 . S
C1566 H1557 0.930 . S
C1566 C1564 1.378 1_554 S
C1566 C1567 1.367 1_554 S
C1567 C1566 1.367 1_556 S
C1567 C1569 1.433 1_455 S
C1568 C1564 1.350 . S
C1568 C1565 1.463 . S
C1568 N1572 1.427 1_455 S
C1569 H1559 0.929 . S
C1569 C1567 1.433 1_655 S
C1569 N1572 1.384 . S
C1570 H1561 0.929 . S
C1570 C1562 1.378 . S
C1570 C1565 1.350 1_655 S
C1571 H1558 0.929 . S
C1571 C1563 1.433 . S
C1571 N1573 1.384 . S
N1572 C1568 1.427 1_655 S
N1572 C1569 1.384 . S
N1573 C1565 1.427 . S
N1573 C1571 1.384 . S
H1574 C1580 0.930 . S
H1575 C1584 0.930 . S
H1576 C1589 0.929 . S
H1577 C1587 0.929 . S
H1578 C1582 0.929 . S
H1579 C1588 0.929 . S
C1580 H1574 0.930 . S
C1580 C1581 1.367 . S
C1580 C1588 1.378 . S
C1581 C1580 1.367 . S
C1581 C1589 1.433 . S
C1582 H1578 0.929 . S
C1582 C1584 1.378 . S
C1582 C1586 1.350 . S
C1583 C1586 1.463 . S
C1583 C1588 1.350 . S
C1583 N1591 1.427 . S
C1584 H1575 0.930 . S
C1584 C1582 1.378 . S
C1584 C1585 1.367 . S
C1585 C1584 1.367 . S
C1585 C1587 1.433 . S
C1586 C1582 1.350 . S
C1586 C1583 1.463 . S
C1586 N1590 1.427 . S
C1587 H1577 0.929 . S
C1587 C1585 1.433 . S
C1587 N1590 1.384 . S
C1588 H1579 0.929 . S
C1588 C1580 1.378 . S
C1588 C1583 1.350 . S
C1589 H1576 0.929 . S
C1589 C1581 1.433 . S
C1589 N1591 1.384 . S
N1590 C1586 1.427 . S
N1590 C1587 1.384 . S
N1591 C1583 1.427 . S
N1591 C1589 1.384 . S
H1592 C1598 0.930 . S
H1593 C1602 0.930 . S
H1594 C1607 0.929 . S
H1595 C1605 0.929 . S
H1596 C1600 0.929 . S
H1597 C1606 0.929 . S
C1598 H1592 0.930 . S
C1598 C1599 1.367 . S
C1598 C1606 1.378 . S
C1599 C1598 1.367 . S
C1599 C1607 1.433 . S
C1600 H1596 0.929 . S
C1600 C1602 1.378 . S
C1600 C1604 1.350 . S
C1601 C1604 1.463 . S
C1601 C1606 1.350 . S
C1601 N1609 1.427 . S
C1602 H1593 0.930 . S
C1602 C1600 1.378 . S
C1602 C1603 1.367 . S
C1603 C1602 1.367 . S
C1603 C1605 1.433 . S
C1604 C1600 1.350 . S
C1604 C1601 1.463 . S
C1604 N1608 1.427 . S
C1605 H1595 0.929 . S
C1605 C1603 1.433 . S
C1605 N1608 1.384 . S
C1606 H1597 0.929 . S
C1606 C1598 1.378 . S
C1606 C1601 1.350 . S
C1607 H1594 0.929 . S
C1607 C1599 1.433 . S
C1607 N1609 1.384 . S
N1608 C1604 1.427 . S
N1608 C1605 1.384 . S
N1609 C1601 1.427 . S
N1609 C1607 1.384 . S
H1610 C1616 0.930 . S
H1611 C1620 0.930 . S
H1612 C1625 0.929 . S
H1613 C1623 0.929 . S
H1614 C1618 0.929 . S
H1615 C1624 0.929 . S
C1616 H1610 0.930 . S
C1616 C1617 1.367 . S
C1616 C1624 1.378 . S
C1617 C1616 1.367 . S
C1617 C1625 1.433 . S
C1618 H1614 0.929 . S
C1618 C1620 1.378 . S
C1618 C1622 1.350 . S
C1619 C1622 1.463 . S
C1619 C1624 1.350 . S
C1619 N1627 1.427 . S
C1620 H1611 0.930 . S
C1620 C1618 1.378 . S
C1620 C1621 1.367 . S
C1621 C1620 1.367 . S
C1621 C1623 1.433 . S
C1622 C1618 1.350 . S
C1622 C1619 1.463 . S
C1622 N1626 1.427 . S
C1623 H1613 0.929 . S
C1623 C1621 1.433 . S
C1623 N1626 1.384 . S
C1624 H1615 0.929 . S
C1624 C1616 1.378 . S
C1624 C1619 1.350 . S
C1625 H1612 0.929 . S
C1625 C1617 1.433 . S
C1625 N1627 1.384 . S
N1626 C1622 1.427 . S
N1626 C1623 1.384 . S
N1627 C1619 1.427 . S
N1627 C1625 1.384 . S
H1628 C1634 0.930 . S
H1629 C1638 0.930 . S
H1630 C1643 0.929 . S
H1631 C1641 0.929 . S
H1632 C1636 0.929 . S
H1633 C1642 0.929 . S
C1634 H1628 0.930 . S
C1634 C1635 1.367 . S
C1634 C1642 1.378 . S
C1635 C1634 1.367 . S
C1635 C1643 1.433 1_655 S
C1636 H1632 0.929 . S
C1636 C1638 1.378 . S
C1636 C1640 1.350 . S
C1637 C1640 1.465 . S
C1637 C1642 1.346 1_455 S
C1637 N1645 1.430 . S
C1638 H1629 0.930 . S
C1638 C1636 1.378 . S
C1638 C1639 1.367 . S
C1639 C1638 1.367 . S
C1639 C1641 1.433 1_455 S
C1640 C1636 1.350 . S
C1640 C1637 1.465 . S
C1640 N1644 1.427 1_455 S
C1641 H1631 0.929 . S
C1641 C1639 1.433 1_655 S
C1641 N1644 1.384 . S
C1642 H1633 0.929 . S
C1642 C1634 1.378 . S
C1642 C1637 1.346 1_655 S
C1643 H1630 0.929 . S
C1643 C1635 1.433 1_455 S
C1643 N1645 1.384 . S
N1644 C1640 1.427 1_655 S
N1644 C1641 1.384 . S
N1645 C1637 1.430 . S
N1645 C1643 1.384 . S
H1646 C1652 0.930 . S
H1647 C1656 0.930 . S
H1648 C1661 0.929 . S
H1649 C1659 0.929 . S
H1650 C1654 0.929 . S
H1651 C1660 0.929 . S
C1652 H1646 0.930 . S
C1652 C1653 1.367 . S
C1652 C1660 1.378 . S
C1653 C1652 1.367 . S
C1653 C1661 1.433 . S
C1654 H1650 0.929 . S
C1654 C1656 1.378 . S
C1654 C1658 1.350 . S
C1655 C1658 1.463 . S
C1655 C1660 1.350 . S
C1655 N1663 1.427 . S
C1656 H1647 0.930 . S
C1656 C1654 1.378 . S
C1656 C1657 1.367 . S
C1657 C1656 1.367 . S
C1657 C1659 1.433 . S
C1658 C1654 1.350 . S
C1658 C1655 1.463 . S
C1658 N1662 1.427 . S
C1659 H1649 0.929 . S
C1659 C1657 1.433 . S
C1659 N1662 1.384 . S
C1660 H1651 0.929 . S
C1660 C1652 1.378 . S
C1660 C1655 1.350 . S
C1661 H1648 0.929 . S
C1661 C1653 1.433 . S
C1661 N1663 1.384 . S
N1662 C1658 1.427 . S
N1662 C1659 1.384 . S
N1663 C1655 1.427 . S
N1663 C1661 1.384 . S
H1664 C1670 0.930 . S
H1665 C1674 0.930 . S
H1666 C1679 0.929 . S
H1667 C1677 0.929 . S
H1668 C1672 0.929 . S
H1669 C1678 0.929 . S
C1670 H1664 0.930 . S
C1670 C1671 1.367 . S
C1670 C1678 1.378 . S
C1671 C1670 1.367 . S
C1671 C1679 1.433 . S
C1672 H1668 0.929 . S
C1672 C1674 1.378 . S
C1672 C1676 1.350 . S
C1673 C1676 1.463 . S
C1673 C1678 1.350 . S
C1673 N1681 1.427 . S
C1674 H1665 0.930 . S
C1674 C1672 1.378 . S
C1674 C1675 1.367 . S
C1675 C1674 1.367 . S
C1675 C1677 1.433 . S
C1676 C1672 1.350 . S
C1676 C1673 1.463 . S
C1676 N1680 1.427 . S
C1677 H1667 0.929 . S
C1677 C1675 1.433 . S
C1677 N1680 1.384 . S
C1678 H1669 0.929 . S
C1678 C1670 1.378 . S
C1678 C1673 1.350 . S
C1679 H1666 0.929 . S
C1679 C1671 1.433 . S
C1679 N1681 1.384 . S
N1680 C1676 1.427 . S
N1680 C1677 1.384 . S
N1681 C1673 1.427 . S
N1681 C1679 1.384 . S
H1682 C1688 0.930 . S
H1683 C1692 0.930 . S
H1684 C1697 0.929 . S
H1685 C1695 0.929 . S
H1686 C1690 0.929 . S
H1687 C1696 0.929 . S
C1688 H1682 0.930 . S
C1688 C1689 1.367 . S
C1688 C1696 1.378 . S
C1689 C1688 1.367 . S
C1689 C1697 1.433 . S
C1690 H1686 0.929 . S
C1690 C1692 1.378 . S
C1690 C1694 1.350 . S
C1691 C1694 1.463 . S
C1691 C1696 1.350 . S
C1691 N1699 1.427 . S
C1692 H1683 0.930 . S
C1692 C1690 1.378 . S
C1692 C1693 1.367 . S
C1693 C1692 1.367 . S
C1693 C1695 1.433 . S
C1694 C1690 1.350 . S
C1694 C1691 1.463 . S
C1694 N1698 1.427 . S
C1695 H1685 0.929 . S
C1695 C1693 1.433 . S
C1695 N1698 1.384 . S
C1696 H1687 0.929 . S
C1696 C1688 1.378 . S
C1696 C1691 1.350 . S
C1697 H1684 0.929 . S
C1697 C1689 1.433 . S
C1697 N1699 1.384 . S
N1698 C1694 1.427 . S
N1698 C1695 1.384 . S
N1699 C1691 1.427 . S
N1699 C1697 1.384 . S
H1700 C1706 0.930 . S
H1701 C1710 0.930 . S
H1702 C1715 0.929 . S
H1703 C1713 0.929 . S
H1704 C1708 0.929 . S
H1705 C1714 0.929 . S
C1706 H1700 0.930 . S
C1706 C1707 1.367 . S
C1706 C1714 1.378 . S
C1707 C1706 1.367 . S
C1707 C1715 1.433 . S
C1708 H1704 0.929 . S
C1708 C1710 1.378 . S
C1708 C1712 1.350 . S
C1709 C1712 1.463 . S
C1709 C1714 1.350 . S
C1709 N1717 1.427 . S
C1710 H1701 0.930 . S
C1710 C1708 1.378 . S
C1710 C1711 1.367 . S
C1711 C1710 1.367 . S
C1711 C1713 1.433 . S
C1712 C1708 1.350 . S
C1712 C1709 1.463 . S
C1712 N1716 1.427 . S
C1713 H1703 0.929 . S
C1713 C1711 1.433 . S
C1713 N1716 1.384 . S
C1714 H1705 0.929 . S
C1714 C1706 1.378 . S
C1714 C1709 1.350 . S
C1715 H1702 0.929 . S
C1715 C1707 1.433 . S
C1715 N1717 1.384 . S
N1716 C1712 1.427 . S
N1716 C1713 1.384 . S
N1717 C1709 1.427 . S
N1717 C1715 1.384 . S
H1718 C1724 0.930 . S
H1719 C1728 0.930 . S
H1720 C1733 0.929 . S
H1721 C1731 0.929 . S
H1722 C1726 0.929 . S
H1723 C1732 0.929 . S
C1724 H1718 0.930 . S
C1724 C1725 1.367 . S
C1724 C1732 1.378 . S
C1725 C1724 1.367 . S
C1725 C1733 1.433 . S
C1726 H1722 0.929 . S
C1726 C1728 1.378 . S
C1726 C1730 1.350 . S
C1727 C1730 1.463 . S
C1727 C1732 1.350 . S
C1727 N1735 1.427 . S
C1728 H1719 0.930 . S
C1728 C1726 1.378 . S
C1728 C1729 1.367 . S
C1729 C1728 1.367 . S
C1729 C1731 1.433 . S
C1730 C1726 1.350 . S
C1730 C1727 1.463 . S
C1730 N1734 1.427 . S
C1731 H1721 0.929 . S
C1731 C1729 1.433 . S
C1731 N1734 1.384 . S
C1732 H1723 0.929 . S
C1732 C1724 1.378 . S
C1732 C1727 1.350 . S
C1733 H1720 0.929 . S
C1733 C1725 1.433 . S
C1733 N1735 1.384 . S
N1734 C1730 1.427 . S
N1734 C1731 1.384 . S
N1735 C1727 1.427 . S
N1735 C1733 1.384 . S
H1736 C1742 0.930 . S
H1737 C1746 0.930 . S
H1738 C1751 0.929 . S
H1739 C1749 0.929 . S
H1740 C1744 0.929 . S
H1741 C1750 0.929 . S
C1742 H1736 0.930 . S
C1742 C1743 1.367 . S
C1742 C1750 1.378 . S
C1743 C1742 1.367 . S
C1743 C1751 1.433 . S
C1744 H1740 0.929 . S
C1744 C1746 1.378 . S
C1744 C1748 1.350 . S
C1745 C1748 1.463 . S
C1745 C1750 1.350 . S
C1745 N1753 1.427 . S
C1746 H1737 0.930 . S
C1746 C1744 1.378 . S
C1746 C1747 1.367 . S
C1747 C1746 1.367 . S
C1747 C1749 1.433 . S
C1748 C1744 1.350 . S
C1748 C1745 1.463 . S
C1748 N1752 1.427 . S
C1749 H1739 0.929 . S
C1749 C1747 1.433 . S
C1749 N1752 1.384 . S
C1750 H1741 0.929 . S
C1750 C1742 1.378 . S
C1750 C1745 1.350 . S
C1751 H1738 0.929 . S
C1751 C1743 1.433 . S
C1751 N1753 1.384 . S
N1752 C1748 1.427 . S
N1752 C1749 1.384 . S
N1753 C1745 1.427 . S
N1753 C1751 1.384 . S
H1754 C1760 0.930 . S
H1755 C1764 0.930 . S
H1756 C1769 0.929 . S
H1757 C1767 0.929 . S
H1758 C1762 0.929 . S
H1759 C1768 0.929 . S
C1760 H1754 0.930 . S
C1760 C1761 1.367 . S
C1760 C1768 1.378 . S
C1761 C1760 1.367 . S
C1761 C1769 1.433 . S
C1762 H1758 0.929 . S
C1762 C1764 1.378 . S
C1762 C1766 1.350 . S
C1763 C1766 1.463 . S
C1763 C1768 1.350 . S
C1763 N1771 1.427 . S
C1764 H1755 0.930 . S
C1764 C1762 1.378 . S
C1764 C1765 1.367 . S
C1765 C1764 1.367 . S
C1765 C1767 1.433 . S
C1766 C1762 1.350 . S
C1766 C1763 1.463 . S
C1766 N1770 1.427 . S
C1767 H1757 0.929 . S
C1767 C1765 1.433 . S
C1767 N1770 1.384 . S
C1768 H1759 0.929 . S
C1768 C1760 1.378 . S
C1768 C1763 1.350 . S
C1769 H1756 0.929 . S
C1769 C1761 1.433 . S
C1769 N1771 1.384 . S
N1770 C1766 1.427 . S
N1770 C1767 1.384 . S
N1771 C1763 1.427 . S
N1771 C1769 1.384 . S
H1772 C1778 0.930 . S
H1773 C1782 0.930 . S
H1774 C1787 0.929 . S
H1775 C1785 0.929 . S
H1776 C1780 0.929 . S
H1777 C1786 0.929 . S
C1778 H1772 0.930 . S
C1778 C1779 1.367 . S
C1778 C1786 1.378 . S
C1779 C1778 1.367 . S
C1779 C1787 1.433 . S
C1780 H1776 0.929 . S
C1780 C1782 1.378 . S
C1780 C1784 1.350 . S
C1781 C1784 1.463 . S
C1781 C1786 1.350 . S
C1781 N1789 1.427 . S
C1782 H1773 0.930 . S
C1782 C1780 1.378 . S
C1782 C1783 1.367 . S
C1783 C1782 1.367 . S
C1783 C1785 1.433 . S
C1784 C1780 1.350 . S
C1784 C1781 1.463 . S
C1784 N1788 1.427 . S
C1785 H1775 0.929 . S
C1785 C1783 1.433 . S
C1785 N1788 1.384 . S
C1786 H1777 0.929 . S
C1786 C1778 1.378 . S
C1786 C1781 1.350 . S
C1787 H1774 0.929 . S
C1787 C1779 1.433 . S
C1787 N1789 1.384 . S
N1788 C1784 1.427 . S
N1788 C1785 1.384 . S
N1789 C1781 1.427 . S
N1789 C1787 1.384 . S
H1790 C1796 0.930 . S
H1791 C1800 0.930 . S
H1792 C1805 0.929 . S
H1793 C1803 0.929 . S
H1794 C1798 0.929 . S
H1795 C1804 0.929 . S
C1796 H1790 0.930 . S
C1796 C1797 1.367 . S
C1796 C1804 1.378 . S
C1797 C1796 1.367 . S
C1797 C1805 1.433 . S
C1798 H1794 0.929 . S
C1798 C1800 1.378 . S
C1798 C1802 1.350 . S
C1799 C1802 1.463 . S
C1799 C1804 1.350 . S
C1799 N1807 1.427 . S
C1800 H1791 0.930 . S
C1800 C1798 1.378 . S
C1800 C1801 1.367 . S
C1801 C1800 1.367 . S
C1801 C1803 1.433 . S
C1802 C1798 1.350 . S
C1802 C1799 1.463 . S
C1802 N1806 1.427 . S
C1803 H1793 0.929 . S
C1803 C1801 1.433 . S
C1803 N1806 1.384 . S
C1804 H1795 0.929 . S
C1804 C1796 1.378 . S
C1804 C1799 1.350 . S
C1805 H1792 0.929 . S
C1805 C1797 1.433 . S
C1805 N1807 1.384 . S
N1806 C1802 1.427 . S
N1806 C1803 1.384 . S
N1807 C1799 1.427 . S
N1807 C1805 1.384 . S
H1808 C1814 0.930 . S
H1809 C1818 0.930 . S
H1810 C1823 0.929 . S
H1811 C1821 0.929 . S
H1812 C1816 0.929 . S
H1813 C1822 0.929 . S
C1814 H1808 0.930 . S
C1814 C1815 1.367 . S
C1814 C1822 1.378 . S
C1815 C1814 1.367 . S
C1815 C1823 1.433 . S
C1816 H1812 0.929 . S
C1816 C1818 1.378 . S
C1816 C1820 1.350 . S
C1817 C1820 1.463 . S
C1817 C1822 1.350 . S
C1817 N1825 1.427 . S
C1818 H1809 0.930 . S
C1818 C1816 1.378 . S
C1818 C1819 1.367 . S
C1819 C1818 1.367 . S
C1819 C1821 1.433 . S
C1820 C1816 1.350 . S
C1820 C1817 1.463 . S
C1820 N1824 1.427 . S
C1821 H1811 0.929 . S
C1821 C1819 1.433 . S
C1821 N1824 1.384 . S
C1822 H1813 0.929 . S
C1822 C1814 1.378 . S
C1822 C1817 1.350 . S
C1823 H1810 0.929 . S
C1823 C1815 1.433 . S
C1823 N1825 1.384 . S
N1824 C1820 1.427 . S
N1824 C1821 1.384 . S
N1825 C1817 1.427 . S
N1825 C1823 1.384 . S
H1826 C1832 0.930 . S
H1827 C1836 0.930 . S
H1828 C1841 0.929 . S
H1829 C1839 0.929 . S
H1830 C1834 0.929 . S
H1831 C1840 0.929 . S
C1832 H1826 0.930 . S
C1832 C1833 1.367 . S
C1832 C1840 1.378 . S
C1833 C1832 1.367 . S
C1833 C1841 1.433 . S
C1834 H1830 0.929 . S
C1834 C1836 1.378 . S
C1834 C1838 1.350 . S
C1835 C1838 1.463 . S
C1835 C1840 1.350 . S
C1835 N1843 1.427 . S
C1836 H1827 0.930 . S
C1836 C1834 1.378 . S
C1836 C1837 1.367 . S
C1837 C1836 1.367 . S
C1837 C1839 1.433 . S
C1838 C1834 1.350 . S
C1838 C1835 1.463 . S
C1838 N1842 1.427 . S
C1839 H1829 0.929 . S
C1839 C1837 1.433 . S
C1839 N1842 1.384 . S
C1840 H1831 0.929 . S
C1840 C1832 1.378 . S
C1840 C1835 1.350 . S
C1841 H1828 0.929 . S
C1841 C1833 1.433 . S
C1841 N1843 1.384 . S
N1842 C1838 1.427 . S
N1842 C1839 1.384 . S
N1843 C1835 1.427 . S
N1843 C1841 1.384 . S
H1844 C1850 0.930 . S
H1845 C1854 0.930 . S
H1846 C1859 0.929 . S
H1847 C1857 0.929 . S
H1848 C1852 0.929 . S
H1849 C1858 0.929 . S
C1850 H1844 0.930 . S
C1850 C1851 1.367 . S
C1850 C1858 1.378 . S
C1851 C1850 1.367 . S
C1851 C1859 1.433 . S
C1852 H1848 0.929 . S
C1852 C1854 1.378 . S
C1852 C1856 1.350 . S
C1853 C1856 1.463 . S
C1853 C1858 1.350 . S
C1853 N1861 1.427 . S
C1854 H1845 0.930 . S
C1854 C1852 1.378 . S
C1854 C1855 1.367 . S
C1855 C1854 1.367 . S
C1855 C1857 1.433 . S
C1856 C1852 1.350 . S
C1856 C1853 1.463 . S
C1856 N1860 1.427 . S
C1857 H1847 0.929 . S
C1857 C1855 1.433 . S
C1857 N1860 1.384 . S
C1858 H1849 0.929 . S
C1858 C1850 1.378 . S
C1858 C1853 1.350 . S
C1859 H1846 0.929 . S
C1859 C1851 1.433 . S
C1859 N1861 1.384 . S
N1860 C1856 1.427 . S
N1860 C1857 1.384 . S
N1861 C1853 1.427 . S
N1861 C1859 1.384 . S
H1862 C1868 0.930 . S
H1863 C1872 0.930 . S
H1864 C1877 0.921 1_556 S
H1865 C1875 0.929 . S
H1866 C1870 0.929 . S
H1867 C1876 0.929 . S
C1868 H1862 0.930 . S
C1868 C1869 1.367 . S
C1868 C1876 1.378 . S
C1869 C1868 1.367 . S
C1869 C1877 1.444 . S
C1870 H1866 0.929 . S
C1870 C1872 1.378 1_565 S
C1870 C1874 1.350 1_556 S
C1871 C1874 1.463 . S
C1871 C1876 1.350 . S
C1871 N1879 1.427 1_554 S
C1872 H1863 0.930 . S
C1872 C1870 1.378 1_545 S
C1872 C1873 1.367 1_556 S
C1873 C1872 1.367 1_554 S
C1873 C1875 1.433 1_545 S
C1874 C1870 1.350 1_554 S
C1874 C1871 1.463 . S
C1874 N1878 1.427 . S
C1875 H1865 0.929 . S
C1875 C1873 1.433 1_565 S
C1875 N1878 1.384 . S
C1876 H1867 0.929 . S
C1876 C1868 1.378 . S
C1876 C1871 1.350 . S
C1877 H1864 0.921 1_554 S
C1877 C1869 1.444 . S
C1877 N1879 1.381 1_554 S
N1878 C1874 1.427 . S
N1878 C1875 1.384 . S
N1879 C1871 1.427 1_556 S
N1879 C1877 1.381 1_556 S
H1880 C1886 0.930 . S
H1881 C1890 0.930 . S
H1882 C1895 0.929 . S
H1883 C1893 0.929 . S
H1884 C1888 0.929 . S
H1885 C1894 0.929 . S
C1886 H1880 0.930 . S
C1886 C1887 1.367 . S
C1886 C1894 1.378 . S
C1887 C1886 1.367 . S
C1887 C1895 1.433 . S
C1888 H1884 0.929 . S
C1888 C1890 1.378 . S
C1888 C1892 1.350 . S
C1889 C1892 1.463 . S
C1889 C1894 1.350 . S
C1889 N1897 1.427 . S
C1890 H1881 0.930 . S
C1890 C1888 1.378 . S
C1890 C1891 1.367 . S
C1891 C1890 1.367 . S
C1891 C1893 1.433 . S
C1892 C1888 1.350 . S
C1892 C1889 1.463 . S
C1892 N1896 1.427 . S
C1893 H1883 0.929 . S
C1893 C1891 1.433 . S
C1893 N1896 1.384 . S
C1894 H1885 0.929 . S
C1894 C1886 1.378 . S
C1894 C1889 1.350 . S
C1895 H1882 0.929 . S
C1895 C1887 1.433 . S
C1895 N1897 1.384 . S
N1896 C1892 1.427 . S
N1896 C1893 1.384 . S
N1897 C1889 1.427 . S
N1897 C1895 1.384 . S
H1898 C1904 0.930 . S
H1899 C1908 0.930 . S
H1900 C1913 0.929 . S
H1901 C1911 0.929 1_556 S
H1902 C1906 0.929 . S
H1903 C1912 0.929 . S
C1904 H1898 0.930 . S
C1904 C1905 1.367 1_556 S
C1904 C1912 1.378 . S
C1905 C1904 1.367 1_554 S
C1905 C1913 1.433 . S
C1906 H1902 0.929 . S
C1906 C1908 1.378 . S
C1906 C1910 1.350 . S
C1907 C1910 1.463 . S
C1907 C1912 1.350 1_554 S
C1907 N1915 1.427 . S
C1908 H1899 0.930 . S
C1908 C1906 1.378 . S
C1908 C1909 1.367 . S
C1909 C1908 1.367 . S
C1909 C1911 1.433 . S
C1910 C1906 1.350 . S
C1910 C1907 1.463 . S
C1910 N1914 1.427 . S
C1911 H1901 0.929 1_554 S
C1911 C1909 1.433 . S
C1911 N1914 1.384 . S
C1912 H1903 0.929 . S
C1912 C1904 1.378 . S
C1912 C1907 1.350 1_556 S
C1913 H1900 0.929 . S
C1913 C1905 1.433 . S
C1913 N1915 1.384 . S
N1914 C1910 1.427 . S
N1914 C1911 1.384 . S
N1915 C1907 1.427 . S
N1915 C1913 1.384 . S
H1916 C1922 0.930 . S
H1917 C1926 0.930 . S
H1918 C1931 0.929 . S
H1919 C1929 0.929 . S
H1920 C1924 0.929 . S
H1921 C1930 0.929 . S
C1922 H1916 0.930 . S
C1922 C1923 1.367 . S
C1922 C1930 1.378 . S
C1923 C1922 1.367 . S
C1923 C1931 1.433 . S
C1924 H1920 0.929 . S
C1924 C1926 1.378 . S
C1924 C1928 1.350 . S
C1925 C1928 1.463 . S
C1925 C1930 1.350 . S
C1925 N1933 1.427 . S
C1926 H1917 0.930 . S
C1926 C1924 1.378 . S
C1926 C1927 1.367 . S
C1927 C1926 1.367 . S
C1927 C1929 1.433 . S
C1928 C1924 1.350 . S
C1928 C1925 1.463 . S
C1928 N1932 1.427 . S
C1929 H1919 0.929 . S
C1929 C1927 1.433 . S
C1929 N1932 1.384 . S
C1930 H1921 0.929 . S
C1930 C1922 1.378 . S
C1930 C1925 1.350 . S
C1931 H1918 0.929 . S
C1931 C1923 1.433 . S
C1931 N1933 1.384 . S
N1932 C1928 1.427 . S
N1932 C1929 1.384 . S
N1933 C1925 1.427 . S
N1933 C1931 1.384 . S
H1934 C1940 0.930 . S
H1935 C1944 0.930 . S
H1936 C1949 0.929 . S
H1937 C1947 0.929 . S
H1938 C1942 0.929 . S
H1939 C1948 0.929 . S
C1940 H1934 0.930 . S
C1940 C1941 1.367 . S
C1940 C1948 1.378 . S
C1941 C1940 1.367 . S
C1941 C1949 1.433 . S
C1942 H1938 0.929 . S
C1942 C1944 1.378 . S
C1942 C1946 1.350 . S
C1943 C1946 1.463 . S
C1943 C1948 1.350 . S
C1943 N1951 1.427 . S
C1944 H1935 0.930 . S
C1944 C1942 1.378 . S
C1944 C1945 1.367 . S
C1945 C1944 1.367 . S
C1945 C1947 1.433 . S
C1946 C1942 1.350 . S
C1946 C1943 1.463 . S
C1946 N1950 1.427 . S
C1947 H1937 0.929 . S
C1947 C1945 1.433 . S
C1947 N1950 1.384 . S
C1948 H1939 0.929 . S
C1948 C1940 1.378 . S
C1948 C1943 1.350 . S
C1949 H1936 0.929 . S
C1949 C1941 1.433 . S
C1949 N1951 1.384 . S
N1950 C1946 1.427 . S
N1950 C1947 1.384 . S
N1951 C1943 1.427 . S
N1951 C1949 1.384 . S
H1952 C1958 0.930 . S
H1953 C1962 0.930 . S
H1954 C1967 0.929 . S
H1955 C1965 0.929 . S
H1956 C1960 0.929 . S
H1957 C1966 0.929 . S
C1958 H1952 0.930 . S
C1958 C1959 1.367 . S
C1958 C1966 1.378 . S
C1959 C1958 1.367 . S
C1959 C1967 1.433 . S
C1960 H1956 0.929 . S
C1960 C1962 1.378 . S
C1960 C1964 1.350 . S
C1961 C1964 1.463 . S
C1961 C1966 1.350 . S
C1961 N1969 1.427 . S
C1962 H1953 0.930 . S
C1962 C1960 1.378 . S
C1962 C1963 1.367 . S
C1963 C1962 1.367 . S
C1963 C1965 1.433 . S
C1964 C1960 1.350 . S
C1964 C1961 1.463 . S
C1964 N1968 1.427 . S
C1965 H1955 0.929 . S
C1965 C1963 1.433 . S
C1965 N1968 1.384 . S
C1966 H1957 0.929 . S
C1966 C1958 1.378 . S
C1966 C1961 1.350 . S
C1967 H1954 0.929 . S
C1967 C1959 1.433 . S
C1967 N1969 1.384 . S
N1968 C1964 1.427 . S
N1968 C1965 1.384 . S
N1969 C1961 1.427 . S
N1969 C1967 1.384 . S
H1970 C1976 0.930 . S
H1971 C1980 0.930 . S
H1972 C1985 0.929 . S
H1973 C1983 0.929 . S
H1974 C1978 0.929 . S
H1975 C1984 0.929 . S
C1976 H1970 0.930 . S
C1976 C1977 1.367 . S
C1976 C1984 1.378 . S
C1977 C1976 1.367 . S
C1977 C1985 1.433 . S
C1978 H1974 0.929 . S
C1978 C1980 1.378 . S
C1978 C1982 1.350 . S
C1979 C1982 1.463 . S
C1979 C1984 1.350 . S
C1979 N1987 1.427 . S
C1980 H1971 0.930 . S
C1980 C1978 1.378 . S
C1980 C1981 1.367 . S
C1981 C1980 1.367 . S
C1981 C1983 1.433 . S
C1982 C1978 1.350 . S
C1982 C1979 1.463 . S
C1982 N1986 1.427 . S
C1983 H1973 0.929 . S
C1983 C1981 1.433 . S
C1983 N1986 1.384 . S
C1984 H1975 0.929 . S
C1984 C1976 1.378 . S
C1984 C1979 1.350 . S
C1985 H1972 0.929 . S
C1985 C1977 1.433 . S
C1985 N1987 1.384 . S
N1986 C1982 1.427 . S
N1986 C1983 1.384 . S
N1987 C1979 1.427 . S
N1987 C1985 1.384 . S
H1988 C1994 0.959 . S
H1989 C1998 0.930 . S
H1990 C2003 0.929 . S
H1991 C2001 0.929 . S
H1992 C1996 0.929 . S
H1993 C2002 0.929 . S
C1994 H1988 0.959 . S
C1994 C1995 1.345 1_655 S
C1994 C2002 1.372 . S
C1995 C1994 1.345 1_455 S
C1995 C2003 1.433 . S
C1996 H1992 0.929 . S
C1996 C1998 1.378 . S
C1996 C2000 1.350 . S
C1997 C2000 1.463 . S
C1997 C2002 1.350 1_455 S
C1997 N2005 1.427 . S
C1998 H1989 0.930 . S
C1998 C1996 1.378 . S
C1998 C1999 1.367 . S
C1999 C1998 1.367 . S
C1999 C2001 1.433 1_455 S
C2000 C1996 1.350 . S
C2000 C1997 1.463 . S
C2000 N2004 1.427 1_455 S
C2001 H1991 0.929 . S
C2001 C1999 1.433 1_655 S
C2001 N2004 1.384 . S
C2002 H1993 0.929 . S
C2002 C1994 1.372 . S
C2002 C1997 1.350 1_655 S
C2003 H1990 0.929 . S
C2003 C1995 1.433 . S
C2003 N2005 1.384 . S
N2004 C2000 1.427 1_655 S
N2004 C2001 1.384 . S
N2005 C1997 1.427 . S
N2005 C2003 1.384 . S
H2006 C2012 0.930 . S
H2007 C2016 0.930 . S
H2008 C2021 0.929 . S
H2009 C2019 0.929 . S
H2010 C2014 0.929 . S
H2011 C2020 0.929 . S
C2012 H2006 0.930 . S
C2012 C2013 1.367 . S
C2012 C2020 1.378 . S
C2013 C2012 1.367 . S
C2013 C2021 1.433 . S
C2014 H2010 0.929 . S
C2014 C2016 1.378 . S
C2014 C2018 1.350 . S
C2015 C2018 1.463 . S
C2015 C2020 1.350 . S
C2015 N2023 1.427 . S
C2016 H2007 0.930 . S
C2016 C2014 1.378 . S
C2016 C2017 1.367 . S
C2017 C2016 1.367 . S
C2017 C2019 1.433 . S
C2018 C2014 1.350 . S
C2018 C2015 1.463 . S
C2018 N2022 1.427 . S
C2019 H2009 0.929 . S
C2019 C2017 1.433 . S
C2019 N2022 1.384 . S
C2020 H2011 0.929 . S
C2020 C2012 1.378 . S
C2020 C2015 1.350 . S
C2021 H2008 0.929 . S
C2021 C2013 1.433 . S
C2021 N2023 1.384 . S
N2022 C2018 1.427 . S
N2022 C2019 1.384 . S
N2023 C2015 1.427 . S
N2023 C2021 1.384 . S
H2024 C2030 0.930 . S
H2025 C2034 0.930 1_554 S
H2026 C2039 0.929 . S
H2027 C2037 0.929 . S
H2028 C2032 0.929 . S
H2029 C2038 0.929 . S
C2030 H2024 0.930 . S
C2030 C2031 1.367 . S
C2030 C2038 1.378 . S
C2031 C2030 1.367 . S
C2031 C2039 1.433 . S
C2032 H2028 0.929 . S
C2032 C2034 1.378 . S
C2032 C2036 1.350 . S
C2033 C2036 1.463 . S
C2033 C2038 1.350 . S
C2033 N2041 1.427 . S
C2034 H2025 0.930 1_556 S
C2034 C2032 1.378 . S
C2034 C2035 1.367 . S
C2035 C2034 1.367 . S
C2035 C2037 1.433 . S
C2036 C2032 1.350 . S
C2036 C2033 1.463 . S
C2036 N2040 1.427 . S
C2037 H2027 0.929 . S
C2037 C2035 1.433 . S
C2037 N2040 1.384 . S
C2038 H2029 0.929 . S
C2038 C2030 1.378 . S
C2038 C2033 1.350 . S
C2039 H2026 0.929 . S
C2039 C2031 1.433 . S
C2039 N2041 1.384 . S
N2040 C2036 1.427 . S
N2040 C2037 1.384 . S
N2041 C2033 1.427 . S
N2041 C2039 1.384 . S
H2042 C2048 0.930 . S
H2043 C2052 0.930 . S
H2044 C2057 0.929 . S
H2045 C2055 0.929 . S
H2046 C2050 0.929 . S
H2047 C2056 0.929 . S
C2048 H2042 0.930 . S
C2048 C2049 1.367 . S
C2048 C2056 1.378 . S
C2049 C2048 1.367 . S
C2049 C2057 1.433 . S
C2050 H2046 0.929 . S
C2050 C2052 1.378 . S
C2050 C2054 1.350 . S
C2051 C2054 1.463 . S
C2051 C2056 1.350 . S
C2051 N2059 1.427 . S
C2052 H2043 0.930 . S
C2052 C2050 1.378 . S
C2052 C2053 1.367 . S
C2053 C2052 1.367 . S
C2053 C2055 1.433 . S
C2054 C2050 1.350 . S
C2054 C2051 1.463 . S
C2054 N2058 1.427 . S
C2055 H2045 0.929 . S
C2055 C2053 1.433 . S
C2055 N2058 1.384 . S
C2056 H2047 0.929 . S
C2056 C2048 1.378 . S
C2056 C2051 1.350 . S
C2057 H2044 0.929 . S
C2057 C2049 1.433 . S
C2057 N2059 1.384 . S
N2058 C2054 1.427 . S
N2058 C2055 1.384 . S
N2059 C2051 1.427 . S
N2059 C2057 1.384 . S
H2060 C2066 0.901 1_655 S
H2061 C2070 0.930 . S
H2062 C2075 0.929 . S
H2063 C2073 0.929 . S
H2064 C2068 0.929 . S
H2065 C2074 0.951 . S
C2066 H2060 0.901 1_455 S
C2066 C2067 1.410 . S
C2066 C2074 1.359 1_455 S
C2067 C2066 1.410 . S
C2067 C2075 1.433 . S
C2068 H2064 0.929 . S
C2068 C2070 1.378 . S
C2068 C2072 1.350 . S
C2069 C2072 1.463 . S
C2069 C2074 1.334 1_455 S
C2069 N2077 1.427 . S
C2070 H2061 0.930 . S
C2070 C2068 1.378 . S
C2070 C2071 1.367 . S
C2071 C2070 1.367 . S
C2071 C2073 1.433 1_455 S
C2072 C2068 1.350 . S
C2072 C2069 1.463 . S
C2072 N2076 1.427 1_455 S
C2073 H2063 0.929 . S
C2073 C2071 1.433 1_655 S
C2073 N2076 1.384 . S
C2074 H2065 0.951 . S
C2074 C2066 1.359 1_655 S
C2074 C2069 1.334 1_655 S
C2075 H2062 0.929 . S
C2075 C2067 1.433 . S
C2075 N2077 1.384 . S
N2076 C2072 1.427 1_655 S
N2076 C2073 1.384 . S
N2077 C2069 1.427 . S
N2077 C2075 1.384 . S
H2078 C2084 0.930 . S
H2079 C2088 0.930 . S
H2080 C2093 0.929 . S
H2081 C2091 0.929 . S
H2082 C2086 0.929 . S
H2083 C2092 0.929 . S
C2084 H2078 0.930 . S
C2084 C2085 1.367 . S
C2084 C2092 1.378 . S
C2085 C2084 1.367 . S
C2085 C2093 1.433 . S
C2086 H2082 0.929 . S
C2086 C2088 1.378 . S
C2086 C2090 1.350 . S
C2087 C2090 1.463 . S
C2087 C2092 1.350 . S
C2087 N2095 1.427 . S
C2088 H2079 0.930 . S
C2088 C2086 1.378 . S
C2088 C2089 1.367 . S
C2089 C2088 1.367 . S
C2089 C2091 1.433 . S
C2090 C2086 1.350 . S
C2090 C2087 1.463 . S
C2090 N2094 1.427 . S
C2091 H2081 0.929 . S
C2091 C2089 1.433 . S
C2091 N2094 1.384 . S
C2092 H2083 0.929 . S
C2092 C2084 1.378 . S
C2092 C2087 1.350 . S
C2093 H2080 0.929 . S
C2093 C2085 1.433 . S
C2093 N2095 1.384 . S
N2094 C2090 1.427 . S
N2094 C2091 1.384 . S
N2095 C2087 1.427 . S
N2095 C2093 1.384 . S
H2096 C2102 0.930 . S
H2097 C2106 0.930 . S
H2098 C2111 0.929 . S
H2099 C2109 0.929 . S
H2100 C2104 0.929 . S
H2101 C2110 0.929 . S
C2102 H2096 0.930 . S
C2102 C2103 1.367 . S
C2102 C2110 1.378 . S
C2103 C2102 1.367 . S
C2103 C2111 1.433 . S
C2104 H2100 0.929 . S
C2104 C2106 1.378 . S
C2104 C2108 1.350 . S
C2105 C2108 1.463 . S
C2105 C2110 1.350 . S
C2105 N2113 1.427 . S
C2106 H2097 0.930 . S
C2106 C2104 1.378 . S
C2106 C2107 1.367 . S
C2107 C2106 1.367 . S
C2107 C2109 1.433 . S
C2108 C2104 1.350 . S
C2108 C2105 1.463 . S
C2108 N2112 1.427 . S
C2109 H2099 0.929 . S
C2109 C2107 1.433 . S
C2109 N2112 1.384 . S
C2110 H2101 0.929 . S
C2110 C2102 1.378 . S
C2110 C2105 1.350 . S
C2111 H2098 0.929 . S
C2111 C2103 1.433 . S
C2111 N2113 1.384 . S
N2112 C2108 1.427 . S
N2112 C2109 1.384 . S
N2113 C2105 1.427 . S
N2113 C2111 1.384 . S
H2114 C2120 0.930 . S
H2115 C2124 0.930 . S
H2116 C2129 0.929 . S
H2117 C2127 0.929 . S
H2118 C2122 0.929 . S
H2119 C2128 0.929 . S
C2120 H2114 0.930 . S
C2120 C2121 1.367 . S
C2120 C2128 1.378 . S
C2121 C2120 1.367 . S
C2121 C2129 1.433 . S
C2122 H2118 0.929 . S
C2122 C2124 1.378 . S
C2122 C2126 1.350 . S
C2123 C2126 1.463 . S
C2123 C2128 1.350 . S
C2123 N2131 1.427 . S
C2124 H2115 0.930 . S
C2124 C2122 1.378 . S
C2124 C2125 1.367 . S
C2125 C2124 1.367 . S
C2125 C2127 1.433 . S
C2126 C2122 1.350 . S
C2126 C2123 1.463 . S
C2126 N2130 1.427 . S
C2127 H2117 0.929 . S
C2127 C2125 1.433 . S
C2127 N2130 1.384 . S
C2128 H2119 0.929 . S
C2128 C2120 1.378 . S
C2128 C2123 1.350 . S
C2129 H2116 0.929 . S
C2129 C2121 1.433 . S
C2129 N2131 1.384 . S
N2130 C2126 1.427 . S
N2130 C2127 1.384 . S
N2131 C2123 1.427 . S
N2131 C2129 1.384 . S
H2132 C2138 0.930 . S
H2133 C2142 0.930 . S
H2134 C2147 0.929 . S
H2135 C2145 0.922 1_455 S
H2136 C2140 0.929 . S
H2137 C2146 0.929 . S
C2138 H2132 0.930 . S
C2138 C2139 1.367 . S
C2138 C2146 1.378 . S
C2139 C2138 1.367 . S
C2139 C2147 1.433 . S
C2140 H2136 0.929 . S
C2140 C2142 1.378 . S
C2140 C2144 1.350 . S
C2141 C2144 1.463 . S
C2141 C2146 1.350 . S
C2141 N2149 1.427 . S
C2142 H2133 0.930 . S
C2142 C2140 1.378 . S
C2142 C2143 1.367 . S
C2143 C2142 1.367 . S
C2143 C2145 1.433 . S
C2144 C2140 1.350 . S
C2144 C2141 1.463 . S
C2144 N2148 1.427 . S
C2145 H2135 0.922 1_655 S
C2145 C2143 1.433 . S
C2145 N2148 1.384 . S
C2146 H2137 0.929 . S
C2146 C2138 1.378 . S
C2146 C2141 1.350 . S
C2147 H2134 0.929 . S
C2147 C2139 1.433 . S
C2147 N2149 1.384 . S
N2148 C2144 1.427 . S
N2148 C2145 1.384 . S
N2149 C2141 1.427 . S
N2149 C2147 1.384 . S
H2150 C2156 0.930 . S
H2151 C2160 0.930 . S
H2152 C2165 0.929 . S
H2153 C2163 0.929 . S
H2154 C2158 0.929 . S
H2155 C2164 0.929 . S
C2156 H2150 0.930 . S
C2156 C2157 1.367 . S
C2156 C2164 1.378 . S
C2157 C2156 1.367 . S
C2157 C2165 1.433 . S
C2158 H2154 0.929 . S
C2158 C2160 1.378 . S
C2158 C2162 1.350 . S
C2159 C2162 1.463 . S
C2159 C2164 1.350 . S
C2159 N2167 1.427 . S
C2160 H2151 0.930 . S
C2160 C2158 1.378 . S
C2160 C2161 1.367 . S
C2161 C2160 1.367 . S
C2161 C2163 1.433 . S
C2162 C2158 1.350 . S
C2162 C2159 1.463 . S
C2162 N2166 1.427 . S
C2163 H2153 0.929 . S
C2163 C2161 1.433 . S
C2163 N2166 1.384 . S
C2164 H2155 0.929 . S
C2164 C2156 1.378 . S
C2164 C2159 1.350 . S
C2165 H2152 0.929 . S
C2165 C2157 1.433 . S
C2165 N2167 1.384 . S
N2166 C2162 1.427 . S
N2166 C2163 1.384 . S
N2167 C2159 1.427 . S
N2167 C2165 1.384 . S
H2168 C2174 0.930 . S
H2169 C2178 0.930 . S
H2170 C2183 0.929 . S
H2171 C2181 0.929 . S
H2172 C2176 0.929 . S
H2173 C2182 0.929 . S
C2174 H2168 0.930 . S
C2174 C2175 1.367 . S
C2174 C2182 1.378 . S
C2175 C2174 1.367 . S
C2175 C2183 1.433 . S
C2176 H2172 0.929 . S
C2176 C2178 1.378 . S
C2176 C2180 1.350 . S
C2177 C2180 1.463 . S
C2177 C2182 1.350 . S
C2177 N2185 1.427 . S
C2178 H2169 0.930 . S
C2178 C2176 1.378 . S
C2178 C2179 1.367 . S
C2179 C2178 1.367 . S
C2179 C2181 1.433 . S
C2180 C2176 1.350 . S
C2180 C2177 1.463 . S
C2180 N2184 1.427 . S
C2181 H2171 0.929 . S
C2181 C2179 1.433 . S
C2181 N2184 1.384 . S
C2182 H2173 0.929 . S
C2182 C2174 1.378 . S
C2182 C2177 1.350 . S
C2183 H2170 0.929 . S
C2183 C2175 1.433 . S
C2183 N2185 1.384 . S
N2184 C2180 1.427 . S
N2184 C2181 1.384 . S
N2185 C2177 1.427 . S
N2185 C2183 1.384 . S
H2186 C2192 0.930 . S
H2187 C2196 0.930 . S
H2188 C2201 0.929 . S
H2189 C2199 0.929 . S
H2190 C2194 0.929 . S
H2191 C2200 0.929 . S
C2192 H2186 0.930 . S
C2192 C2193 1.367 . S
C2192 C2200 1.378 . S
C2193 C2192 1.367 . S
C2193 C2201 1.433 . S
C2194 H2190 0.929 . S
C2194 C2196 1.378 . S
C2194 C2198 1.350 . S
C2195 C2198 1.463 . S
C2195 C2200 1.350 . S
C2195 N2203 1.427 . S
C2196 H2187 0.930 . S
C2196 C2194 1.378 . S
C2196 C2197 1.367 . S
C2197 C2196 1.367 . S
C2197 C2199 1.433 . S
C2198 C2194 1.350 . S
C2198 C2195 1.463 . S
C2198 N2202 1.427 . S
C2199 H2189 0.929 . S
C2199 C2197 1.433 . S
C2199 N2202 1.384 . S
C2200 H2191 0.929 . S
C2200 C2192 1.378 . S
C2200 C2195 1.350 . S
C2201 H2188 0.929 . S
C2201 C2193 1.433 . S
C2201 N2203 1.384 . S
N2202 C2198 1.427 . S
N2202 C2199 1.384 . S
N2203 C2195 1.427 . S
N2203 C2201 1.384 . S
H2204 C2210 0.930 . S
H2205 C2214 0.930 . S
H2206 C2219 0.929 . S
H2207 C2217 0.929 . S
H2208 C2212 0.929 . S
H2209 C2218 0.929 . S
C2210 H2204 0.930 . S
C2210 C2211 1.367 . S
C2210 C2218 1.378 . S
C2211 C2210 1.367 . S
C2211 C2219 1.433 . S
C2212 H2208 0.929 . S
C2212 C2214 1.378 . S
C2212 C2216 1.350 . S
C2213 C2216 1.463 . S
C2213 C2218 1.350 . S
C2213 N2221 1.427 . S
C2214 H2205 0.930 . S
C2214 C2212 1.378 . S
C2214 C2215 1.367 . S
C2215 C2214 1.367 . S
C2215 C2217 1.433 . S
C2216 C2212 1.350 . S
C2216 C2213 1.463 . S
C2216 N2220 1.427 . S
C2217 H2207 0.929 . S
C2217 C2215 1.433 . S
C2217 N2220 1.384 . S
C2218 H2209 0.929 . S
C2218 C2210 1.378 . S
C2218 C2213 1.350 . S
C2219 H2206 0.929 . S
C2219 C2211 1.433 . S
C2219 N2221 1.384 . S
N2220 C2216 1.427 . S
N2220 C2217 1.384 . S
N2221 C2213 1.427 . S
N2221 C2219 1.384 . S
H2222 C2228 0.930 . S
H2223 C2232 0.930 . S
H2224 C2237 0.929 . S
H2225 C2235 0.929 . S
H2226 C2230 0.929 . S
H2227 C2236 0.929 . S
C2228 H2222 0.930 . S
C2228 C2229 1.367 . S
C2228 C2236 1.378 . S
C2229 C2228 1.367 . S
C2229 C2237 1.433 . S
C2230 H2226 0.929 . S
C2230 C2232 1.378 . S
C2230 C2234 1.350 . S
C2231 C2234 1.463 . S
C2231 C2236 1.350 . S
C2231 N2239 1.427 . S
C2232 H2223 0.930 . S
C2232 C2230 1.378 . S
C2232 C2233 1.367 . S
C2233 C2232 1.367 . S
C2233 C2235 1.433 . S
C2234 C2230 1.350 . S
C2234 C2231 1.463 . S
C2234 N2238 1.427 . S
C2235 H2225 0.929 . S
C2235 C2233 1.433 . S
C2235 N2238 1.384 . S
C2236 H2227 0.929 . S
C2236 C2228 1.378 . S
C2236 C2231 1.350 . S
C2237 H2224 0.929 . S
C2237 C2229 1.433 . S
C2237 N2239 1.384 . S
N2238 C2234 1.427 . S
N2238 C2235 1.384 . S
N2239 C2231 1.427 . S
N2239 C2237 1.384 . S
H2240 C2246 0.930 . S
H2241 C2250 0.930 . S
H2242 C2255 0.929 . S
H2243 C2253 0.929 . S
H2244 C2248 0.929 . S
H2245 C2254 0.929 . S
C2246 H2240 0.930 . S
C2246 C2247 1.367 . S
C2246 C2254 1.378 . S
C2247 C2246 1.367 . S
C2247 C2255 1.433 . S
C2248 H2244 0.929 . S
C2248 C2250 1.378 . S
C2248 C2252 1.350 . S
C2249 C2252 1.463 . S
C2249 C2254 1.350 . S
C2249 N2257 1.427 . S
C2250 H2241 0.930 . S
C2250 C2248 1.378 . S
C2250 C2251 1.367 . S
C2251 C2250 1.367 . S
C2251 C2253 1.433 . S
C2252 C2248 1.350 . S
C2252 C2249 1.463 . S
C2252 N2256 1.427 . S
C2253 H2243 0.929 . S
C2253 C2251 1.433 . S
C2253 N2256 1.384 . S
C2254 H2245 0.929 . S
C2254 C2246 1.378 . S
C2254 C2249 1.350 . S
C2255 H2242 0.929 . S
C2255 C2247 1.433 . S
C2255 N2257 1.384 . S
N2256 C2252 1.427 . S
N2256 C2253 1.384 . S
N2257 C2249 1.427 . S
N2257 C2255 1.384 . S
H2258 C2264 0.930 . S
H2259 C2268 0.930 . S
H2260 C2273 0.929 . S
H2261 C2271 0.929 . S
H2262 C2266 0.929 . S
H2263 C2272 0.929 . S
C2264 H2258 0.930 . S
C2264 C2265 1.367 . S
C2264 C2272 1.378 . S
C2265 C2264 1.367 . S
C2265 C2273 1.433 . S
C2266 H2262 0.929 . S
C2266 C2268 1.378 . S
C2266 C2270 1.350 . S
C2267 C2270 1.463 . S
C2267 C2272 1.350 . S
C2267 N2275 1.427 . S
C2268 H2259 0.930 . S
C2268 C2266 1.378 . S
C2268 C2269 1.367 . S
C2269 C2268 1.367 . S
C2269 C2271 1.433 . S
C2270 C2266 1.350 . S
C2270 C2267 1.463 . S
C2270 N2274 1.427 . S
C2271 H2261 0.929 . S
C2271 C2269 1.433 . S
C2271 N2274 1.384 . S
C2272 H2263 0.929 . S
C2272 C2264 1.378 . S
C2272 C2267 1.350 . S
C2273 H2260 0.929 . S
C2273 C2265 1.433 . S
C2273 N2275 1.384 . S
N2274 C2270 1.427 . S
N2274 C2271 1.384 . S
N2275 C2267 1.427 . S
N2275 C2273 1.384 . S
H2276 C2282 0.930 . S
H2277 C2286 0.930 . S
H2278 C2291 0.929 . S
H2279 C2289 0.929 . S
H2280 C2284 0.929 . S
H2281 C2290 0.929 . S
C2282 H2276 0.930 . S
C2282 C2283 1.367 . S
C2282 C2290 1.378 . S
C2283 C2282 1.367 . S
C2283 C2291 1.433 . S
C2284 H2280 0.929 . S
C2284 C2286 1.378 . S
C2284 C2288 1.350 . S
C2285 C2288 1.463 . S
C2285 C2290 1.350 . S
C2285 N2293 1.427 . S
C2286 H2277 0.930 . S
C2286 C2284 1.378 . S
C2286 C2287 1.367 . S
C2287 C2286 1.367 . S
C2287 C2289 1.433 . S
C2288 C2284 1.350 . S
C2288 C2285 1.463 . S
C2288 N2292 1.427 . S
C2289 H2279 0.929 . S
C2289 C2287 1.433 . S
C2289 N2292 1.384 . S
C2290 H2281 0.929 . S
C2290 C2282 1.378 . S
C2290 C2285 1.350 . S
C2291 H2278 0.929 . S
C2291 C2283 1.433 . S
C2291 N2293 1.384 . S
N2292 C2288 1.427 . S
N2292 C2289 1.384 . S
N2293 C2285 1.427 . S
N2293 C2291 1.384 . S
H2294 C2300 0.930 . S
H2295 C2304 0.930 . S
H2296 C2309 0.929 . S
H2297 C2307 0.929 . S
H2298 C2302 0.929 . S
H2299 C2308 0.929 . S
C2300 H2294 0.930 . S
C2300 C2301 1.367 1_554 S
C2300 C2308 1.378 . S
C2301 C2300 1.367 1_556 S
C2301 C2309 1.433 . S
C2302 H2298 0.929 . S
C2302 C2304 1.378 . S
C2302 C2306 1.350 . S
C2303 C2306 1.463 . S
C2303 C2308 1.350 1_556 S
C2303 N2311 1.427 . S
C2304 H2295 0.930 . S
C2304 C2302 1.378 . S
C2304 C2305 1.327 1_556 S
C2305 C2304 1.327 1_554 S
C2305 C2307 1.468 . S
C2306 C2302 1.350 . S
C2306 C2303 1.463 . S
C2306 N2310 1.427 1_556 S
C2307 H2297 0.929 . S
C2307 C2305 1.468 . S
C2307 N2310 1.384 . S
C2308 H2299 0.929 . S
C2308 C2300 1.378 . S
C2308 C2303 1.350 1_554 S
C2309 H2296 0.929 . S
C2309 C2301 1.433 . S
C2309 N2311 1.384 . S
N2310 C2306 1.427 1_554 S
N2310 C2307 1.384 . S
N2311 C2303 1.427 . S
N2311 C2309 1.384 . S
H2312 C2318 0.930 . S
H2313 C2322 0.930 . S
H2314 C2327 0.929 . S
H2315 C2325 0.929 . S
H2316 C2320 0.929 . S
H2317 C2326 0.929 . S
C2318 H2312 0.930 . S
C2318 C2319 1.367 . S
C2318 C2326 1.378 . S
C2319 C2318 1.367 . S
C2319 C2327 1.433 . S
C2320 H2316 0.929 . S
C2320 C2322 1.378 . S
C2320 C2324 1.350 . S
C2321 C2324 1.463 . S
C2321 C2326 1.350 . S
C2321 N2329 1.427 . S
C2322 H2313 0.930 . S
C2322 C2320 1.378 . S
C2322 C2323 1.367 . S
C2323 C2322 1.367 . S
C2323 C2325 1.433 . S
C2324 C2320 1.350 . S
C2324 C2321 1.463 . S
C2324 N2328 1.427 . S
C2325 H2315 0.929 . S
C2325 C2323 1.433 . S
C2325 N2328 1.384 . S
C2326 H2317 0.929 . S
C2326 C2318 1.378 . S
C2326 C2321 1.350 . S
C2327 H2314 0.929 . S
C2327 C2319 1.433 . S
C2327 N2329 1.384 . S
N2328 C2324 1.427 . S
N2328 C2325 1.384 . S
N2329 C2321 1.427 . S
N2329 C2327 1.384 . S
H2330 C2336 0.930 . S
H2331 C2340 0.930 . S
H2332 C2345 0.929 . S
H2333 C2343 0.929 . S
H2334 C2338 0.929 . S
H2335 C2344 0.929 . S
C2336 H2330 0.930 . S
C2336 C2337 1.367 1_556 S
C2336 C2344 1.378 . S
C2337 C2336 1.367 1_554 S
C2337 C2345 1.433 . S
C2338 H2334 0.929 . S
C2338 C2340 1.378 . S
C2338 C2342 1.348 . S
C2339 C2342 1.462 . S
C2339 C2344 1.350 1_554 S
C2339 N2347 1.427 . S
C2340 H2331 0.930 . S
C2340 C2338 1.378 . S
C2340 C2341 1.367 1_554 S
C2341 C2340 1.367 1_556 S
C2341 C2343 1.433 . S
C2342 C2338 1.348 . S
C2342 C2339 1.462 . S
C2342 N2346 1.430 1_554 S
C2343 H2333 0.929 . S
C2343 C2341 1.433 . S
C2343 N2346 1.384 . S
C2344 H2335 0.929 . S
C2344 C2336 1.378 . S
C2344 C2339 1.350 1_556 S
C2345 H2332 0.929 . S
C2345 C2337 1.433 . S
C2345 N2347 1.384 . S
N2346 C2342 1.430 1_556 S
N2346 C2343 1.384 . S
N2347 C2339 1.427 . S
N2347 C2345 1.384 . S
H2348 C2354 0.930 . S
H2349 C2358 0.930 . S
H2350 C2363 0.929 . S
H2351 C2361 0.929 . S
H2352 C2356 0.929 . S
H2353 C2362 0.929 . S
C2354 H2348 0.930 . S
C2354 C2355 1.367 . S
C2354 C2362 1.378 . S
C2355 C2354 1.367 . S
C2355 C2363 1.433 . S
C2356 H2352 0.929 . S
C2356 C2358 1.378 . S
C2356 C2360 1.350 . S
C2357 C2360 1.463 . S
C2357 C2362 1.350 . S
C2357 N2365 1.427 . S
C2358 H2349 0.930 . S
C2358 C2356 1.378 . S
C2358 C2359 1.367 . S
C2359 C2358 1.367 . S
C2359 C2361 1.433 . S
C2360 C2356 1.350 . S
C2360 C2357 1.463 . S
C2360 N2364 1.427 . S
C2361 H2351 0.929 . S
C2361 C2359 1.433 . S
C2361 N2364 1.384 . S
C2362 H2353 0.929 . S
C2362 C2354 1.378 . S
C2362 C2357 1.350 . S
C2363 H2350 0.929 . S
C2363 C2355 1.433 . S
C2363 N2365 1.384 . S
N2364 C2360 1.427 . S
N2364 C2361 1.384 . S
N2365 C2357 1.427 . S
N2365 C2363 1.384 . S
H2366 C2372 0.930 . S
H2367 C2376 0.930 . S
H2368 C2381 0.929 . S
H2369 C2379 0.929 . S
H2370 C2374 0.929 . S
H2371 C2380 0.929 . S
C2372 H2366 0.930 . S
C2372 C2373 1.367 . S
C2372 C2380 1.378 . S
C2373 C2372 1.367 . S
C2373 C2381 1.433 . S
C2374 H2370 0.929 . S
C2374 C2376 1.378 . S
C2374 C2378 1.350 . S
C2375 C2378 1.463 . S
C2375 C2380 1.350 . S
C2375 N2383 1.427 . S
C2376 H2367 0.930 . S
C2376 C2374 1.378 . S
C2376 C2377 1.367 . S
C2377 C2376 1.367 . S
C2377 C2379 1.433 . S
C2378 C2374 1.350 . S
C2378 C2375 1.463 . S
C2378 N2382 1.427 . S
C2379 H2369 0.929 . S
C2379 C2377 1.433 . S
C2379 N2382 1.384 . S
C2380 H2371 0.929 . S
C2380 C2372 1.378 . S
C2380 C2375 1.350 . S
C2381 H2368 0.929 . S
C2381 C2373 1.433 . S
C2381 N2383 1.384 . S
N2382 C2378 1.427 . S
N2382 C2379 1.384 . S
N2383 C2375 1.427 . S
N2383 C2381 1.384 . S
C663 C111 1.470 . S
C667 C354 1.479 1_556 S
C681 C64 1.595 . S
C685 C365 1.651 . S
C699 C77 0.923 . S
C703 C394 0.910 . S
C721 C397 1.261 . S
C717 C95 1.269 . S
C735 C25 1.417 . S
C739 C435 1.379 . S
C757 C438 0.970 . S
C753 C36 0.973 . S
C775 C465 1.480 . S
C771 C50 1.422 . S
C789 C11 1.550 . S
C793 C494 1.491 . S
C811 C345 1.481 1_655 S
C807 C237 1.385 . S
C825 C245 0.831 . S
C829 C357 0.830 . S
C847 C385 1.474 . S
C843 C279 1.389 . S
C865 C414 1.048 . S
C861 C175 1.049 . S
C879 C231 0.869 . S
C883 C418 0.884 . S
C901 C444 1.513 . S
C897 C251 1.439 . S
C919 C457 0.749 . S
C915 C273 0.747 . S
C937 C485 1.532 . S
C933 C181 1.482 . S
C955 C337 1.410 1_565 S
C951 C165 1.424 . S
C969 C288 1.687 . S
C973 C504 1.717 . S
C991 C535 1.461 . S
C987 C333 1.523 . S
C1009 C554 0.895 . S
C1005 C316 0.901 . S
C1023 C123 1.253 . S
C1027 C477 1.237 . S
C1041 C137 1.379 . S
C1045 C377 1.357 . S
C1059 C330 1.529 . S
C1063 C565 1.588 . S
C1081 C594 0.892 . S
C1077 C302 0.885 . S
C1099 C355 1.595 . S
C1095 C63 1.631 . S
C1117 C584 1.660 . S
C1113 C106 1.640 . S
C1131 C97 0.985 . S
C1135 C395 1.011 . S
C1149 C81 1.321 . S
C1153 C558 1.319 . S
C1171 C434 1.494 . S
C1167 C13 1.467 . S
C1185 C55 0.911 . S
C1189 C517 0.976 . S
C1207 C464 1.449 . S
C1203 C35 1.449 . S
C1225 C615 1.671 . S
C1221 C21 1.727 . S
C1243 C344 1.582 . S
C1239 C147 1.583 . S
C1261 C578 0.829 . S
C1257 C321 0.826 . S
C1275 C119 1.530 . S
C1279 C384 1.522 . S
C1293 C293 1.139 . S
C1297 C575 1.186 . S
C1311 C153 0.963 1_565 S
C1315 C417 1.036 . S
C1333 C525 1.569 . S
C1329 C315 1.591 . S
C1347 C125 0.741 . S
C1351 C458 0.739 . S
C1365 C287 1.652 . S
C1369 C604 1.629 . S
C1383 C193 1.473 1_554 S
C1387 C338 1.469 . S
C1401 C176 1.729 . S
C1405 C505 1.733 . S
C1419 C263 1.495 . S
C1423 C454 1.448 . S
C1437 C246 1.036 . S
C1441 C555 1.054 . S
C1459 C598 1.325 . S
C1455 C277 1.328 . S
C1473 C221 1.393 . S
C1477 C378 1.394 . S
C1495 C404 1.632 . S
C1491 C260 1.603 . S
C1513 C375 0.989 . S
C1509 C204 0.982 . S
C1527 C83 1.472 . S
C1531 C634 1.478 . S
C1549 C585 1.652 . S
C1545 C92 1.593 . S
C1563 C105 0.923 . S
C1567 C654 0.923 . S
C1581 C67 1.262 . S
C1585 C557 1.261 . S
C1599 C53 1.419 . S
C1603 C515 1.371 . S
C1621 C518 0.971 . S
C1617 C8 0.974 . S
C1639 C545 1.481 . S
C1635 C22 1.426 1_655 S
C1657 C614 1.495 . S
C1653 C39 1.548 . S
C1675 C625 1.481 . S
C1671 C265 1.389 . S
C1689 C189 0.832 . S
C1693 C577 0.826 . S
C1711 C645 1.476 . S
C1707 C209 1.386 . S
C1729 C574 1.035 . S
C1725 C217 1.049 . S
C1747 C498 0.883 . S
C1743 C259 0.870 . S
C1761 C195 1.456 . S
C1765 C524 1.521 . S
C1783 C537 0.765 . S
C1779 C203 0.761 . S
C1797 C223 1.478 . S
C1801 C605 1.536 . S
C1819 C617 1.406 . S
C1815 C319 1.427 . S
C1833 C134 1.687 . S
C1837 C424 1.717 . S
C1855 C455 1.449 . S
C1851 C151 1.528 . S
C1873 C474 0.903 . S
C1869 C162 0.892 . S
C1891 C597 1.233 . S
C1887 C305 1.253 . S
C1905 C291 1.378 . S
C1909 C637 1.364 . S
C1927 C405 1.585 . S
C1923 C148 1.531 . S
C1945 C374 0.872 . S
C1941 C120 0.900 . S
C1959 C91 1.630 . S
C1963 C635 1.594 . S
C1981 C364 1.658 . S
C1977 C78 1.638 . S
C1995 C69 0.983 . S
C1999 C655 0.999 . S
C2013 C109 1.326 . S
C2017 C398 1.324 . S
C2031 C41 1.473 . S
C2035 C514 1.499 . S
C2053 C437 0.970 . S
C2049 C27 0.919 . S
C2067 C7 1.446 . S
C2071 C544 1.443 . S
C2085 C49 1.726 . S
C2089 C495 1.669 . S
C2107 C624 1.578 . S
C2103 C329 1.587 . S
C2121 C167 0.801 . S
C2125 C358 0.832 . S
C2143 C644 1.522 1_655 S
C2139 C301 1.530 . S
C2157 C139 1.117 . S
C2161 C415 1.181 . S
C2175 C335 0.961 . S
C2179 C497 1.039 . S
C2197 C445 1.571 . S
C2193 C161 1.593 . S
C2211 C307 0.761 . S
C2215 C538 0.759 . S
C2233 C484 1.629 . S
C2229 C133 1.652 . S
C2251 C618 1.463 . S
C2247 C249 1.468 . S
C2269 C425 1.732 1_565 S
C2265 C218 1.727 . S
C2283 C235 1.486 . S
C2287 C534 1.431 . S
C2305 C475 1.074 . S
C2301 C190 1.011 1_556 S
C2319 C207 1.318 . S
C2323 C478 1.314 . S
C2337 C179 1.384 . S
C2341 C638 1.384 . S
C2359 C564 1.629 . S
C2355 C232 1.605 1_565 S
C2377 C595 0.992 . S
C2373 C274 0.990 . S
