# Generated by pormake.
# Topology zzz, (3,6)-cn, num edge types: 1
# Building blocks:
#     Node 0, Type 0, BuildingBlock: WUSLED_clean_sbu_0, # of connection points: 3
#     Node 1, Type 0, BuildingBlock: WUSLED_clean_sbu_0, # of connection points: 3
#     Node 2, Type 0, BuildingBlock: WUSLED_clean_sbu_0, # of connection points: 3
#     Node 3, Type 0, BuildingBlock: WUSLED_clean_sbu_0, # of connection points: 3
#     Node 4, Type 0, BuildingBlock: WUSLED_clean_sbu_0, # of connection points: 3
#     Node 5, Type 0, BuildingBlock: WUSLED_clean_sbu_0, # of connection points: 3
#     Node 6, Type 0, BuildingBlock: WUSLED_clean_sbu_0, # of connection points: 3
#     Node 7, Type 0, BuildingBlock: WUSLED_clean_sbu_0, # of connection points: 3
#     Node 8, Type 1, BuildingBlock: BETFAJ_clean_sbu_0, # of connection points: 6
#     Node 9, Type 1, BuildingBlock: BETFAJ_clean_sbu_0, # of connection points: 6
#     Node 10, Type 1, BuildingBlock: BETFAJ_clean_sbu_0, # of connection points: 6
#     Node 11, Type 1, BuildingBlock: BETFAJ_clean_sbu_0, # of connection points: 6
#     Edge 12, Type (0, 1), BuildingBlock: OJICUG_clean_linker_0, # of connection points: 2
#     Edge 13, Type (0, 1), BuildingBlock: OJICUG_clean_linker_0, # of connection points: 2
#     Edge 14, Type (0, 1), BuildingBlock: OJICUG_clean_linker_0, # of connection points: 2
#     Edge 15, Type (0, 1), BuildingBlock: OJICUG_clean_linker_0, # of connection points: 2
#     Edge 16, Type (0, 1), BuildingBlock: OJICUG_clean_linker_0, # of connection points: 2
#     Edge 17, Type (0, 1), BuildingBlock: OJICUG_clean_linker_0, # of connection points: 2
#     Edge 18, Type (0, 1), BuildingBlock: OJICUG_clean_linker_0, # of connection points: 2
#     Edge 19, Type (0, 1), BuildingBlock: OJICUG_clean_linker_0, # of connection points: 2
#     Edge 20, Type (0, 1), BuildingBlock: OJICUG_clean_linker_0, # of connection points: 2
#     Edge 21, Type (0, 1), BuildingBlock: OJICUG_clean_linker_0, # of connection points: 2
#     Edge 22, Type (0, 1), BuildingBlock: OJICUG_clean_linker_0, # of connection points: 2
#     Edge 23, Type (0, 1), BuildingBlock: OJICUG_clean_linker_0, # of connection points: 2
#     Edge 24, Type (0, 1), BuildingBlock: OJICUG_clean_linker_0, # of connection points: 2
#     Edge 25, Type (0, 1), BuildingBlock: OJICUG_clean_linker_0, # of connection points: 2
#     Edge 26, Type (0, 1), BuildingBlock: OJICUG_clean_linker_0, # of connection points: 2
#     Edge 27, Type (0, 1), BuildingBlock: OJICUG_clean_linker_0, # of connection points: 2
#     Edge 28, Type (0, 1), BuildingBlock: OJICUG_clean_linker_0, # of connection points: 2
#     Edge 29, Type (0, 1), BuildingBlock: OJICUG_clean_linker_0, # of connection points: 2
#     Edge 30, Type (0, 1), BuildingBlock: OJICUG_clean_linker_0, # of connection points: 2
#     Edge 31, Type (0, 1), BuildingBlock: OJICUG_clean_linker_0, # of connection points: 2
#     Edge 32, Type (0, 1), BuildingBlock: OJICUG_clean_linker_0, # of connection points: 2
#     Edge 33, Type (0, 1), BuildingBlock: OJICUG_clean_linker_0, # of connection points: 2
#     Edge 34, Type (0, 1), BuildingBlock: OJICUG_clean_linker_0, # of connection points: 2
#     Edge 35, Type (0, 1), BuildingBlock: OJICUG_clean_linker_0, # of connection points: 2
# Relax obj value: 0.462
# Max RMSD: 0.262
# Mean RMSD: 0.250
data_MOF--net-zzz--node1-WUSLED_clean_sbu_0--node2-BETFAJ_clean_sbu_0--edge1-OJICUG_clean_linker_0
_symmetry_space_group_name_H-M    P1
_symmetry_Int_Tables_number       1
_symmetry_cell_setting            triclinic
loop_
_symmetry_equiv_pos_as_xyz
'x, y, z'
_cell_length_a     49.85589
_cell_length_b     50.087696
_cell_length_c     15.357612
_cell_angle_alpha  89.811599
_cell_angle_beta   90.003556
_cell_angle_gamma 90.046892
loop_
_atom_site_label
_atom_site_type_symbol
_atom_site_fract_x
_atom_site_fract_y
_atom_site_fract_z
_atom_type_partial_charge
C0 C 0.80105 0.54347 0.54173 0.0
C1 C 0.8102 0.51906 0.57679 0.0
C2 C 0.85531 0.5375 0.59969 0.0
C3 C 0.83695 0.51609 0.60491 0.0
C4 C 0.84586 0.56199 0.56607 0.0
C5 C 0.81926 0.56488 0.53764 0.0
U6 U 0.74128 0.53065 0.38483 0.0
O7 O 0.71365 0.56016 0.32782 0.0
O8 O 0.69748 0.52704 0.40487 0.0
C9 C 0.69203 0.54709 0.35216 0.0
C10 C 0.77269 0.54754 0.51181 0.0
C11 C 0.67236 0.54173 0.28161 0.0
C12 C 0.6274 0.54678 0.22018 0.0
C13 C 0.64571 0.5506 0.28876 0.0
C14 C 0.66207 0.52492 0.13657 0.0
C15 C 0.63532 0.53392 0.14282 0.0
C16 C 0.6803 0.52873 0.205 0.0
C17 C 0.79082 0.48527 0.2802 0.0
C18 C 0.82837 0.46701 0.20063 0.0
C19 C 0.8348 0.48353 0.34752 0.0
C20 C 0.80759 0.48972 0.35202 0.0
C21 C 0.84559 0.47278 0.27084 0.0
C22 C 0.80114 0.47332 0.20526 0.0
C23 C 0.76365 0.49617 0.28013 0.0
O24 O 0.76963 0.56033 0.43757 0.0
O25 O 0.75571 0.52756 0.52071 0.0
O26 O 0.76268 0.52188 0.26338 0.0
O27 O 0.74867 0.48902 0.34669 0.0
H28 H 0.79678 0.50211 0.58178 0.0
H29 H 0.84332 0.49683 0.62951 0.0
H30 H 0.85894 0.57922 0.56258 0.0
H31 H 0.81285 0.5841 0.51264 0.0
H32 H 0.60698 0.55371 0.22807 0.0
H33 H 0.6391 0.56069 0.34722 0.0
H34 H 0.66917 0.51532 0.07786 0.0
H35 H 0.70076 0.52184 0.1976 0.0
H36 H 0.8362 0.45913 0.14017 0.0
H37 H 0.84755 0.48806 0.40266 0.0
H38 H 0.79979 0.49909 0.41003 0.0
H39 H 0.78845 0.47004 0.149 0.0
C40 C 0.02572 0.79687 0.54637 0.0
C41 C 0.03658 0.8165 0.49072 0.0
C42 C 0.0268 0.85186 0.59654 0.0
C43 C 0.03699 0.84357 0.51523 0.0
C44 C 1.01596 0.8321 0.65197 0.0
C45 C 1.01539 0.80508 0.62714 0.0
U46 U 1.01653 0.73866 0.38339 0.0
O47 O 0.99907 0.69818 0.39402 0.0
O48 O 0.04191 0.70302 0.36629 0.0
C49 C 1.02155 0.68639 0.37068 0.0
C50 C 0.02585 0.76783 0.52328 0.0
C51 C 1.02021 0.6661 0.29973 0.0
C52 C 0.04125 0.62883 0.22351 0.0
C53 C 0.04098 0.64731 0.29197 0.0
C54 C 0.99936 0.64673 0.17003 0.0
C55 C 1.02064 0.62843 0.16074 0.0
C56 C 0.99921 0.66543 0.23839 0.0
C57 C 1.00323 0.79585 0.23544 0.0
C58 C 1.02034 0.83436 0.15827 0.0
C59 C 1.00268 0.83945 0.30439 0.0
C60 C 0.99665 0.81223 0.30654 0.0
C61 C 1.01575 0.85039 0.23178 0.0
C62 C 1.01412 0.80726 0.16013 0.0
C63 C 1.00423 0.76681 0.24589 0.0
O64 O 1.00247 0.75672 0.50678 0.0
O65 O 0.04473 0.75982 0.46961 0.0
O66 O 0.98593 0.7562 0.29714 0.0
O67 O 0.02853 0.75781 0.26089 0.0
H68 H 0.04487 0.81094 0.42819 0.0
H69 H 0.04575 0.85797 0.47077 0.0
H70 H 1.00758 0.83753 0.71449 0.0
H71 H 1.00697 0.79048 0.67162 0.0
H72 H 0.05784 0.61497 0.21922 0.0
H73 H 0.05736 0.64723 0.33831 0.0
H74 H 0.98328 0.64725 0.12265 0.0
H75 H 0.98291 0.67966 0.2422 0.0
H76 H 0.02987 0.84258 0.10068 0.0
H77 H 0.9988 0.8515 0.36147 0.0
H78 H 0.98852 0.80371 0.36588 0.0
H79 H 1.01947 0.7949 0.10502 0.0
C80 C 0.75078 1.00933 0.55325 0.0
C81 C 0.74282 0.02888 0.61372 0.0
C82 C 0.69565 1.01515 0.60223 0.0
C83 C 0.71569 0.03178 0.63774 0.0
C84 C 0.70375 0.99559 0.54184 0.0
C85 C 0.73076 0.99273 0.51783 0.0
U86 U 0.81106 1.0155 0.39585 0.0
O87 O 0.84134 0.98527 0.36314 0.0
O88 O 0.85435 0.02409 0.41294 0.0
C89 C 0.86162 1.00164 0.37547 0.0
C90 C 0.77983 1.00538 0.53077 0.0
C91 C 0.88084 1.00388 0.30146 0.0
C92 C 0.92674 1.00808 0.24677 0.0
C93 C 0.90843 1.00747 0.31658 0.0
C94 C 0.89012 1.00198 0.14552 0.0
C95 C 0.91787 1.00488 0.1602 0.0
C96 C 0.87189 1.00159 0.21499 0.0
C97 C 0.75996 0.05066 0.25854 0.0
C98 C 0.72527 0.07021 0.16902 0.0
C99 C 0.7156 0.05792 0.31877 0.0
C100 C 0.74198 0.04914 0.32865 0.0
C101 C 0.70694 0.06837 0.23857 0.0
C102 C 0.75161 0.06141 0.17904 0.0
C103 C 0.78726 0.04057 0.26795 0.0
O104 O 0.7851 0.98794 0.46928 0.0
O105 O 0.79509 0.02679 0.52535 0.0
O106 O 0.78919 1.01442 0.27171 0.0
O107 O 0.80163 0.05283 0.32733 0.0
H108 H 0.75763 0.04189 0.64299 0.0
H109 H 0.71043 0.04726 0.68369 0.0
H110 H 0.68926 0.98195 0.51402 0.0
H111 H 0.73591 0.9772 0.47192 0.0
H112 H 0.9479 1.01037 0.26083 0.0
H113 H 0.91589 1.00942 0.38252 0.0
H114 H 0.88239 1.00009 0.07993 0.0
H115 H 0.85073 0.99917 0.20098 0.0
H116 H 0.71902 0.07762 0.10585 0.0
H117 H 0.70196 0.05631 0.37344 0.0
H118 H 0.74829 0.0409 0.3906 0.0
H119 H 0.76531 0.06257 0.12437 0.0
C120 C 0.53716 0.74745 0.56455 0.0
C121 C 0.51341 0.73774 0.60334 0.0
C122 C 0.53232 0.69261 0.61641 0.0
C123 C 0.51102 0.71075 0.62881 0.0
C124 C 0.55612 0.70252 0.57859 0.0
C125 C 0.55851 0.72939 0.5534 0.0
U126 U 0.52992 0.80517 0.39759 0.0
O127 O 0.55961 0.83589 0.36167 0.0
O128 O 0.51994 0.8481 0.40798 0.0
C129 C 0.54268 0.85574 0.37192 0.0
C130 C 0.54027 0.77622 0.5378 0.0
C131 C 0.54151 0.87562 0.29881 0.0
C132 C 0.51701 0.90598 0.20173 0.0
C133 C 0.51728 0.8873 0.27059 0.0
C134 C 0.56515 0.90226 0.18914 0.0
C135 C 0.54095 0.91351 0.15911 0.0
C136 C 0.56541 0.88372 0.25781 0.0
C137 C 0.49891 0.75005 0.27171 0.0
C138 C 0.4817 0.71163 0.19497 0.0
C139 C 0.49742 0.70688 0.34376 0.0
C140 C 0.50338 0.73406 0.34545 0.0
C141 C 0.48675 0.69535 0.26816 0.0
C142 C 0.4878 0.73883 0.19675 0.0
C143 C 0.50687 0.77813 0.27311 0.0
O144 O 0.55797 0.78117 0.47635 0.0
O145 O 0.51836 0.79065 0.52881 0.0
O146 O 0.53292 0.78199 0.27684 0.0
O147 O 0.49337 0.79289 0.32845 0.0
H148 H 0.49656 0.75097 0.61386 0.0
H149 H 0.49229 0.70402 0.65703 0.0
H150 H 0.57324 0.68956 0.56936 0.0
H151 H 0.57729 0.73604 0.52526 0.0
H152 H 0.49793 0.91404 0.18067 0.0
H153 H 0.49846 0.88191 0.30117 0.0
H154 H 0.58409 0.90789 0.15987 0.0
H155 H 0.5845 0.87564 0.27886 0.0
H156 H 0.47394 0.70315 0.13526 0.0
H157 H 0.50144 0.69485 0.40107 0.0
H158 H 0.51192 0.74258 0.40374 0.0
H159 H 0.48437 0.75095 0.13926 0.0
C160 C 0.25127 0.51039 0.92652 0.0
C161 C 0.23075 0.51529 0.98714 0.0
C162 C 0.19668 0.51492 0.87146 0.0
C163 C 0.20388 0.51762 0.96004 0.0
C164 C 0.21748 0.51051 0.8109 0.0
C165 C 0.24434 0.50828 0.83812 0.0
U166 U 0.30907 0.51816 0.0921 0.0
O167 O 0.35243 0.52639 0.07792 0.0
O168 O 0.33902 0.48843 0.13372 0.0
C169 C 0.35946 0.50441 0.11916 0.0
C170 C 0.27965 0.50628 0.95443 0.0
C171 C 0.37815 0.50767 0.19384 0.0
C172 C 0.42118 0.49821 0.26377 0.0
C173 C 0.40419 0.49702 0.19067 0.0
C174 C 0.38656 0.52142 0.34357 0.0
C175 C 0.41245 0.50999 0.3421 0.0
C176 C 0.36965 0.52019 0.27064 0.0
C177 C 0.25577 0.55349 0.22111 0.0
C178 C 0.21389 0.55176 0.30041 0.0
C179 C 0.21532 0.57235 0.15731 0.0
C180 C 0.24273 0.56677 0.15214 0.0
C181 C 0.20068 0.56434 0.23077 0.0
C182 C 0.24125 0.54649 0.29575 0.0
C183 C 0.28364 0.54438 0.21341 0.0
O184 O 0.29491 0.52768 0.95891 0.0
O185 O 0.28331 0.48998 0.02062 0.0
O186 O 0.29837 0.55625 0.15369 0.0
O187 O 0.28647 0.5183 0.21475 0.0
H188 H 0.23544 0.51696 0.05575 0.0
H189 H 0.18874 0.52152 1.00889 0.0
H190 H 0.21297 0.50801 0.74245 0.0
H191 H 0.25972 0.5044 0.78996 0.0
H192 H 0.44082 0.48909 0.25964 0.0
H193 H 0.41123 0.48725 0.13214 0.0
H194 H 0.3792 0.53126 0.40147 0.0
H195 H 0.3497 0.52866 0.27471 0.0
H196 H 0.20294 0.54577 0.35823 0.0
H197 H 0.2054 0.58207 0.10304 0.0
H198 H 0.25346 0.57208 0.09325 0.0
H199 H 0.25092 0.5362 0.3494 0.0
C200 C 0.03935 0.24541 0.93429 0.0
C201 C 0.03969 0.22458 0.99592 0.0
C202 C 0.0343 0.19092 0.88108 0.0
C203 C 0.03713 0.19779 0.96981 0.0
C204 C 0.03335 0.21195 0.81982 0.0
C205 C 0.03587 0.23877 0.84611 0.0
U206 U 0.03564 0.3027 0.10159 0.0
O207 O 0.0259 0.34575 0.09124 0.0
O208 O 0.06581 0.33319 0.13431 0.0
C209 C 0.04878 0.35311 0.1266 0.0
C210 C 0.04378 0.27385 0.96025 0.0
C211 C 0.04706 0.3717 0.20239 0.0
C212 C 0.03688 0.41594 0.26164 0.0
C213 C 0.0387 0.39827 0.19059 0.0
C214 C 0.05248 0.38093 0.35753 0.0
C215 C 0.04359 0.4075 0.34667 0.0
C216 C 0.05398 0.3633 0.28687 0.0
C217 C 1.00474 0.24855 0.23748 0.0
C218 C 1.00554 0.2072 0.31904 0.0
C219 C 0.98714 0.20792 0.17279 0.0
C220 C 0.99268 0.2352 0.16712 0.0
C221 C 0.99397 0.19368 0.24831 0.0
C222 C 1.01082 0.23445 0.31368 0.0
C223 C 1.01339 0.2764 0.2296 0.0
O224 O 1.02227 0.28861 0.97196 0.0
O225 O 0.06214 0.27796 1.02022 0.0
O226 O 0.03947 0.27954 0.22265 0.0
O227 O 0.9996 0.29127 0.17498 0.0
H228 H 0.04232 0.22899 0.06439 0.0
H229 H 0.03742 0.18243 1.01955 0.0
H230 H 0.03146 0.20771 0.75102 0.0
H231 H 0.03561 0.25436 0.79705 0.0
H232 H 0.02971 0.43603 0.24994 0.0
H233 H 0.03346 0.40532 0.12615 0.0
H234 H 0.0585 0.37359 0.42094 0.0
H235 H 0.06063 0.34302 0.29859 0.0
H236 H 1.01058 0.19663 0.3785 0.0
H237 H 0.97826 0.19781 0.11756 0.0
H238 H 0.98819 0.24566 0.10701 0.0
H239 H 1.02025 0.2444 0.36827 0.0
C240 C 0.29896 0.03184 0.92059 0.0
C241 C 0.31915 0.02946 0.98399 0.0
C242 C 0.35399 0.02666 0.87129 0.0
C243 C 0.3462 0.02673 0.95979 0.0
C244 C 0.33355 0.0286 0.80802 0.0
C245 C 0.30645 0.03112 0.83242 0.0
U246 U 0.24044 0.02747 0.0843 0.0
O247 O 0.19706 1.01852 0.07221 0.0
O248 O 0.21028 0.05804 0.115 0.0
C249 C 0.19004 0.04132 0.10795 0.0
C250 C 0.27036 0.03631 0.94522 0.0
C251 C 0.17186 0.03965 0.18506 0.0
C252 C 0.12828 0.02866 0.2496 0.0
C253 C 0.14524 0.03071 0.17642 0.0
C254 C 0.16406 0.04521 0.34086 0.0
C255 C 0.13753 0.03566 0.33334 0.0
C256 C 0.18097 0.04693 0.26829 0.0
C257 C 0.2927 0.99514 0.22758 0.0
C258 C 0.33221 0.99477 0.31878 0.0
C259 C 0.33482 0.97808 0.1709 0.0
C260 C 0.30759 0.98365 0.15954 0.0
C261 C 0.34741 0.98419 0.25004 0.0
C262 C 0.30505 1.00018 0.3076 0.0
C263 C 0.26512 1.00428 0.21419 0.0
O264 O 0.25525 1.01494 0.95474 0.0
O265 O 0.2662 0.05413 1.00642 0.0
O266 O 0.26258 0.03031 0.20752 0.0
O267 O 0.25096 0.99102 0.15646 0.0
H268 H 0.31404 0.03013 0.05245 0.0
H269 H 0.36103 0.02476 1.01089 0.0
H270 H 0.33848 0.02896 0.73939 0.0
H271 H 0.29134 0.03307 0.78211 0.0
H272 H 0.10813 1.02107 0.24069 0.0
H273 H 0.13762 0.02512 0.11302 0.0
H274 H 0.17192 0.0515 0.40321 0.0
H275 H 0.20131 0.05398 0.27768 0.0
H276 H 0.34146 0.99922 0.38093 0.0
H277 H 0.34622 0.96996 0.1171 0.0
H278 H 0.29843 0.97982 0.09683 0.0
H279 H 0.29386 1.00904 0.36064 0.0
C280 C 0.51976 0.29491 0.9121 0.0
C281 C 0.5032 0.31393 0.95274 0.0
C282 C 0.52148 0.35006 0.86173 0.0
C283 C 0.50403 0.34097 0.92797 0.0
C284 C 0.53808 0.33094 0.82128 0.0
C285 C 0.53721 0.30383 0.84611 0.0
U286 U 0.5198 0.23885 0.08426 0.0
O287 O 0.53801 0.19861 0.08904 0.0
O288 O 0.49441 0.20301 0.09759 0.0
C289 C 0.51499 0.18676 0.10595 0.0
C290 C 0.51862 0.26589 0.93642 0.0
C291 C 0.51431 0.16755 0.18127 0.0
C292 C 0.53669 0.13518 0.27694 0.0
C293 C 0.5375 0.15359 0.20748 0.0
C294 C 0.48935 0.14363 0.2947 0.0
C295 C 0.51262 0.13003 0.32233 0.0
C296 C 0.49017 0.16199 0.2254 0.0
C297 C 0.52923 0.29864 0.22203 0.0
C298 C 0.52458 0.34074 0.29703 0.0
C299 C 0.54177 0.33992 0.14926 0.0
C300 C 0.53902 0.31223 0.14841 0.0
C301 C 0.53465 0.35442 0.22371 0.0
C302 C 0.52186 0.31301 0.29609 0.0
C303 C 0.52572 0.26965 0.21948 0.0
O304 O 0.54068 0.25527 0.96833 0.0
O305 O 0.49698 0.2578 0.97787 0.0
O306 O 0.50207 0.26177 0.19179 0.0
O307 O 0.54576 0.25661 0.18388 0.0
H308 H 0.48949 0.30794 1.00392 0.0
H309 H 0.49058 0.35469 0.96028 0.0
H310 H 0.55209 0.33693 0.77102 0.0
H311 H 0.55024 0.28975 0.81346 0.0
H312 H 0.55513 0.12536 0.29598 0.0
H313 H 0.55639 0.15696 0.1744 0.0
H314 H 0.47026 0.13991 0.32607 0.0
H315 H 0.47171 0.17178 0.2063 0.0
H316 H 0.51936 0.35143 0.35584 0.0
H317 H 0.54942 0.34998 0.09184 0.0
H318 H 0.5446 0.3014 0.09028 0.0
H319 H 0.51412 0.3028 0.35312 0.0
Sm320 Sm 0.04871 1.01593 0.81015 0.0
Sm321 Sm 1.00442 0.02371 0.6911 0.0
C322 C 0.0755 1.00528 0.95502 0.0
C323 C 0.06728 0.9925 0.03632 0.0
C324 C 0.04013 0.98655 0.04904 0.0
C325 C 0.03242 0.96853 0.11343 0.0
C326 C 0.0519 0.95597 0.16557 0.0
C327 C 0.07878 0.96449 0.15932 0.0
C328 C 0.08648 0.98243 0.09411 0.0
C329 C 0.07406 0.02521 0.65228 0.0
C330 C 0.02795 0.96478 0.70027 0.0
C331 C 0.96785 0.03452 0.57043 0.0
C332 C 0.96688 0.04991 0.489 0.0
C333 C 0.98724 0.04759 0.42625 0.0
C334 C 0.98907 0.06614 0.35863 0.0
C335 C 0.97088 0.08752 0.35382 0.0
C336 C 0.94893 0.08805 0.41134 0.0
C337 C 0.94695 0.06933 0.47838 0.0
C338 C 0.98751 1.00635 0.85458 0.0
C339 C 0.03088 0.07767 0.78029 0.0
O340 O 0.06462 0.02848 0.9388 0.0
O341 O 0.07525 0.98947 0.88747 0.0
O342 O 0.04876 0.02486 0.66105 0.0
O343 O 0.08597 1.02159 0.72594 0.0
O344 O 0.03509 0.97237 0.77923 0.0
O345 O 1.01992 0.98299 0.64437 0.0
O346 O 0.98262 1.01304 0.5703 0.0
O347 O 0.97065 0.04847 0.64157 0.0
O348 O 1.00492 0.02399 0.83943 0.0
O349 O 0.97905 0.99665 0.78181 0.0
O350 O 1.0155 0.0685 0.71658 0.0
O351 O 0.0449 0.06108 0.82875 0.0
H352 H 0.0252 0.99399 1.00412 0.0
H353 H 1.01159 0.96238 0.11551 0.0
H354 H 0.09417 0.9555 0.19963 0.0
H355 H 0.10755 0.98683 0.08482 0.0
H356 H 1.00272 0.03253 0.43232 0.0
H357 H 1.00589 0.06494 0.31416 0.0
H358 H 0.93463 0.10431 0.40983 0.0
H359 H 0.93093 0.07121 0.52567 0.0
Sm360 Sm 0.52854 0.04318 0.79474 0.0
Sm361 Sm 0.52215 0.99952 0.68619 0.0
C362 C 0.54117 0.07939 0.91385 0.0
C363 C 0.55988 0.0798 0.9869 0.0
C364 C 0.57222 0.05603 1.01349 0.0
C365 C 0.59233 0.05657 0.07627 0.0
C366 C 0.6005 0.08092 0.1131 0.0
C367 C 0.58701 0.10453 0.08965 0.0
C368 C 0.56675 0.10395 0.02677 0.0
C369 C 0.51212 0.06042 0.62996 0.0
C370 C 0.58181 1.02085 0.69825 0.0
C371 C 0.51017 0.96223 0.56981 0.0
C372 C 0.4943 0.96142 0.48953 0.0
C373 C 0.49458 0.983 0.43099 0.0
C374 C 0.47525 0.98474 0.36566 0.0
C375 C 0.45504 0.96525 0.35927 0.0
C376 C 0.45653 0.94238 0.41244 0.0
C377 C 0.47608 0.94049 0.47712 0.0
C378 C 0.53874 0.98274 0.85119 0.0
C379 C 0.46822 0.0234 0.77746 0.0
O380 O 0.52123 0.06274 0.92179 0.0
O381 O 0.55215 0.07855 0.83682 0.0
O382 O 0.52941 0.04256 0.64464 0.0
O383 O 0.50262 0.06908 0.70289 0.0
O384 O 0.57306 0.02967 0.77409 0.0
O385 O 0.56423 1.01184 0.64196 0.0
O386 O 0.53212 0.97634 0.5676 0.0
O387 O 0.4965 0.96597 0.6411 0.0
O388 O 0.5211 1.00019 0.83587 0.0
O389 O 0.54858 0.97429 0.77861 0.0
O390 O 0.47743 1.01282 0.70458 0.0
O391 O 0.48532 0.03359 0.83304 0.0
H392 H 0.56708 0.03721 0.98303 0.0
H393 H 0.60261 0.03811 0.09167 0.0
H394 H 0.59285 0.12352 0.11738 0.0
H395 H 0.55719 0.12243 1.00705 0.0
H396 H 0.50858 0.99937 0.43902 0.0
H397 H 0.47489 1.00234 0.32447 0.0
H398 H 0.4412 0.92707 0.40958 0.0
H399 H 0.47571 0.92364 0.52154 0.0
Sm400 Sm 0.50437 0.52559 0.81344 0.0
Sm401 Sm 0.54586 0.51647 0.67138 0.0
C402 C 0.48114 0.52937 0.96786 0.0
C403 C 0.48318 0.54585 0.04588 0.0
C404 C 0.50653 0.56054 0.0621 0.0
C405 C 0.50651 0.5804 0.12538 0.0
C406 C 0.48299 0.586 0.17252 0.0
C407 C 0.46036 0.56961 0.16128 0.0
C408 C 0.46047 0.54963 0.09809 0.0
C409 C 0.47629 0.51324 0.66128 0.0
C410 C 0.52645 0.57898 0.71262 0.0
C411 C 0.57283 0.51543 0.52255 0.0
C412 C 0.57088 0.49969 0.44181 0.0
C413 C 0.54851 0.50208 0.38647 0.0
C414 C 0.54367 0.48291 0.32272 0.0
C415 C 0.56118 0.46117 0.31314 0.0
C416 C 0.58519 0.46071 0.36121 0.0
C417 C 0.59 0.47987 0.42496 0.0
C418 C 0.5676 0.51953 0.83659 0.0
C419 C 0.52292 0.46408 0.76709 0.0
O420 O 0.50128 0.51332 0.95201 0.0
O421 O 0.47247 0.54183 0.89831 0.0
O422 O 0.50136 0.51461 0.66999 0.0
O423 O 0.46513 0.51801 0.73556 0.0
O424 O 0.51183 0.57021 0.7789 0.0
O425 O 0.54058 0.56233 0.66426 0.0
O426 O 0.55319 0.53197 0.53818 0.0
O427 O 0.58039 0.50239 0.59228 0.0
O428 O 0.54917 0.53459 0.8076 0.0
O429 O 0.57575 0.50337 0.77651 0.0
O430 O 0.5307 0.47296 0.68977 0.0
O431 O 0.51595 0.48109 0.82856 0.0
H432 H 0.52416 0.55787 0.02202 0.0
H433 H 0.52417 0.59285 0.13178 0.0
H434 H 0.44207 0.57337 0.19732 0.0
H435 H 0.4423 0.5383 0.08633 0.0
H436 H 0.53381 0.51771 0.3958 0.0
H437 H 0.52529 0.48404 0.28521 0.0
H438 H 0.59911 0.44423 0.35544 0.0
H439 H 0.60771 0.47798 0.46545 0.0
Sm440 Sm 1.02003 0.50321 0.80665 0.0
Sm441 Sm 0.03193 0.54508 0.67707 0.0
C442 C 1.01344 0.47836 0.95736 0.0
C443 C 0.99552 0.47904 0.03243 0.0
C444 C 0.97934 0.50136 0.04805 0.0
C445 C 0.95879 0.49985 0.10947 0.0
C446 C 0.95408 0.47593 0.15543 0.0
C447 C 0.9716 0.45429 0.14371 0.0
C448 C 0.99212 0.45584 0.08223 0.0
C449 C 0.03212 0.47524 0.65545 0.0
C450 C 0.96807 0.52802 0.70709 0.0
C451 C 0.03493 0.57676 0.53823 0.0
C452 C 0.05296 0.58054 0.463 0.0
C453 C 0.05143 0.56356 0.39042 0.0
C454 C 0.07138 0.56423 0.32683 0.0
C455 C 0.09313 0.58189 0.33474 0.0
C456 C 0.09305 0.60077 0.40224 0.0
C457 C 0.07306 0.60016 0.46567 0.0
C458 C 0.02932 0.5642 0.84523 0.0
C459 C 0.08323 0.51872 0.76769 0.0
O460 O 0.02971 0.49866 0.94704 0.0
O461 O 1.00228 0.47053 0.88474 0.0
O462 O 0.03218 0.50048 0.66131 0.0
O463 O 0.02583 0.46461 0.72929 0.0
O464 O 0.97577 0.51178 0.77021 0.0
O465 O 0.98577 0.54254 0.66403 0.0
O466 O 1.02113 0.55461 0.54049 0.0
O467 O 0.04443 0.58322 0.6146 0.0
O468 O 1.0127 0.54792 0.81198 0.0
O469 O 0.04767 0.57066 0.78941 0.0
O470 O 0.07514 0.52895 0.69272 0.0
O471 O 0.06543 0.51093 0.82608 0.0
H472 H 0.98161 0.51935 1.00936 0.0
H473 H 0.9454 0.51674 0.11617 0.0
H474 H 0.96854 0.43571 0.17867 0.0
H475 H 1.00436 0.43843 0.06998 0.0
H476 H 0.03568 0.54874 0.38502 0.0
H477 H 0.0707 0.54982 0.27442 0.0
H478 H 0.10954 0.61464 0.41022 0.0
H479 H 0.07428 0.614 0.51958 0.0
C480 C 0.13216 0.02495 0.49301 0.0
C481 C 0.12031 0.0324 0.41337 0.0
H482 H 0.12712 1.01719 0.62876 0.0
C483 C 0.0923 0.03687 0.41235 0.0
H484 H 0.15336 1.02047 0.49693 0.0
C485 C 0.0769 0.03445 0.48918 0.0
C486 C 0.08919 0.02767 0.56874 0.0
H487 H 0.08233 0.04272 0.35266 0.0
H488 H 0.05552 0.03821 0.48653 0.0
C489 C 0.11695 0.02284 0.56914 0.0
C490 C 0.49516 0.11661 0.47135 0.0
C491 C 0.51177 0.11118 0.39924 0.0
H492 H 0.48206 0.10496 0.5989 0.0
C493 C 0.52768 0.08788 0.40246 0.0
H494 H 0.48288 0.13441 0.47269 0.0
C495 C 0.52728 0.07091 0.47589 0.0
C496 C 0.51103 0.07679 0.5483 0.0
H497 H 0.54045 0.08266 0.34812 0.0
H498 H 0.54005 0.05342 0.4765 0.0
C499 C 0.49477 0.0997 0.5444 0.0
C500 C 0.45777 0.51248 0.41943 0.0
C501 C 0.42959 0.50961 0.42295 0.0
H502 H 0.49474 0.51573 0.49168 0.0
C503 C 0.41763 0.50639 0.50542 0.0
H504 H 0.46783 0.51516 0.35753 0.0
C505 C 0.43303 0.50692 0.58164 0.0
C506 C 0.46098 0.51041 0.57835 0.0
H507 H 0.39621 0.50336 0.51149 0.0
H508 H 0.42289 0.50481 0.64369 0.0
C509 C 0.47327 0.51283 0.49628 0.0
C510 C 0.03305 0.41507 0.50569 0.0
C511 C 0.04066 0.42571 0.4244 0.0
H512 H 0.0248 0.42202 0.64008 0.0
C513 C 0.04535 0.45355 0.41935 0.0
H514 H 0.02846 0.39405 0.51286 0.0
C515 C 0.04275 0.46999 0.49359 0.0
C516 C 0.03552 0.45895 0.57468 0.0
H517 H 0.05139 0.46265 0.3584 0.0
H518 H 0.0465 0.49122 0.4876 0.0
C519 C 0.03073 0.4313 0.57922 0.0
C520 C 0.95914 1.0219 0.08006 0.0
C521 C 0.93718 1.00421 0.0851 0.0
H522 H 0.99221 0.03657 1.00358 0.0
C523 C 0.93324 0.9862 1.01599 0.0
H524 H 0.96282 0.03611 0.13169 0.0
C525 C 0.95011 0.98641 0.94296 0.0
C526 C 0.97144 1.00467 0.93647 0.0
H527 H 0.91695 0.9719 1.01807 0.0
H528 H 0.94611 0.97251 0.89064 0.0
C529 C 0.97598 0.02221 1.00647 0.0
C530 C 0.52333 0.95438 0.0776 0.0
C531 C 0.54083 0.93227 0.08212 0.0
H532 H 0.50917 0.98791 1.0024 0.0
C533 C 0.55826 0.92794 1.01131 0.0
H534 H 0.50983 0.95866 0.13098 0.0
C535 C 0.55799 0.94479 0.9382 0.0
C536 C 0.54025 0.96656 0.93303 0.0
H537 H 0.57178 0.91104 1.01112 0.0
H538 H 0.57142 0.9404 0.8847 0.0
C539 C 0.52311 0.97134 1.00414 0.0
C540 C 0.61696 0.50622 1.01945 0.0
C541 C 0.6161 0.52987 0.06854 0.0
H542 H 0.60228 0.48454 0.90951 0.0
C543 C 0.59748 0.54973 0.04367 0.0
H544 H 0.63048 0.4902 0.03726 0.0
C545 C 0.58101 0.54636 0.96984 0.0
C546 C 0.58271 0.52301 0.91958 0.0
H547 H 0.59628 0.5683 0.07936 0.0
H548 H 0.56768 0.56236 0.95046 0.0
C549 C 0.6006 0.5029 0.94623 0.0
C550 C 0.99992 0.59665 0.0497 0.0
C551 C 1.02248 0.61029 0.08309 0.0
H552 H 0.98428 0.57078 0.94957 0.0
C553 C 0.04714 0.60714 0.03985 0.0
H554 H 0.98064 0.59841 0.08161 0.0
C555 C 0.04911 0.5916 0.96454 0.0
C556 C 0.02661 0.57836 0.93017 0.0
H557 H 0.06491 0.61743 0.0626 0.0
H558 H 0.06839 0.59026 0.93225 0.0
C559 C 1.00201 0.58065 0.97447 0.0
C560 C 0.96343 0.15417 0.24144 0.0
C561 C 0.98916 0.16475 0.25497 0.0
H562 H 0.93738 0.1206 0.26049 0.0
C563 C 1.00974 0.14806 0.28491 0.0
H564 H 0.9473 0.16675 0.21785 0.0
C565 C 1.00417 0.12186 0.30906 0.0
C566 C 0.97784 0.1119 0.30397 0.0
H567 H 0.02983 0.15577 0.29455 0.0
H568 H 1.02009 0.11027 0.33868 0.0
C569 C 0.95777 0.12787 0.26602 0.0
C570 C 0.38855 0.9556 0.24516 0.0
C571 C 0.37647 0.98038 0.26159 0.0
H572 H 0.42361 0.93135 0.26187 0.0
C573 C 0.39184 1.00115 0.29674 0.0
H574 H 0.37702 0.93936 0.21757 0.0
C575 C 0.41823 0.99667 0.32181 0.0
C576 C 0.42983 0.97128 0.31227 0.0
H577 H 0.383 1.02056 0.30869 0.0
H578 H 0.4288 1.01265 0.35457 0.0
C579 C 0.41509 0.95103 0.27067 0.0
C580 C 0.56405 0.39434 0.20205 0.0
C581 C 0.53926 0.38351 0.22778 0.0
H582 H 0.59036 0.42813 0.20712 0.0
C583 C 0.52007 0.40017 0.26626 0.0
H584 H 0.57919 0.38192 0.17194 0.0
C585 C 0.52644 0.42651 0.28633 0.0
C586 C 0.55219 0.43663 0.26849 0.0
H587 H 0.50063 0.3924 0.28521 0.0
H588 H 0.51192 0.43817 0.32233 0.0
C589 C 0.57049 0.42072 0.2224 0.0
C590 C 0.15482 0.5469 0.25584 0.0
C591 C 0.17155 0.56857 0.23608 0.0
H592 H 0.11654 0.53421 0.30139 0.0
C593 C 0.16079 0.59442 0.23269 0.0
H594 H 0.16276 0.52677 0.25788 0.0
C595 C 0.13417 0.59878 0.25741 0.0
C596 C 0.11808 0.57728 0.28504 0.0
H597 H 0.17345 0.61137 0.21719 0.0
H598 H 0.12668 0.61906 0.26009 0.0
C599 C 0.12828 0.55119 0.2798 0.0
C600 C 0.05297 0.88234 0.20644 0.0
C601 C 0.02653 0.87779 0.23385 0.0
H602 H 0.08191 0.91076 0.16477 0.0
C603 C 1.01038 0.89955 0.25718 0.0
H604 H 0.06606 0.8658 0.1905 0.0
C605 C 1.01966 0.92561 0.24398 0.0
C606 C 0.04518 0.93012 0.20744 0.0
H607 H 0.99005 0.89644 0.27996 0.0
H608 H 1.00623 0.94214 0.2567 0.0
C609 C 0.06222 0.90821 0.19337 0.0
C610 C 0.6581 0.05788 0.25264 0.0
C611 C 0.67844 0.07527 0.22421 0.0
H612 H 0.61685 0.04654 0.24145 0.0
C613 C 0.67158 0.09748 0.17284 0.0
H614 H 0.66276 0.04061 0.29247 0.0
C615 C 0.64539 0.10071 0.14302 0.0
C616 C 0.6256 0.08181 0.16428 0.0
H617 H 0.68679 0.11151 0.15154 0.0
H618 H 0.64124 0.1168 0.0977 0.0
C619 C 0.63186 0.06116 0.223 0.0
C620 C 0.4602 0.65571 0.22065 0.0
C621 C 0.48291 0.66616 0.26236 0.0
H622 H 0.44227 0.62175 0.1607 0.0
C623 C 0.50338 0.64872 0.28943 0.0
H624 H 0.44395 0.66868 0.20049 0.0
C625 C 0.50233 0.62172 0.26741 0.0
C626 C 0.48076 0.6118 0.21836 0.0
H627 H 0.52112 0.65625 0.32192 0.0
H628 H 0.51917 0.609 0.28374 0.0
C629 C 0.4591 0.62875 0.199 0.0
C630 C 0.88606 0.44896 0.2148 0.0
C631 C 0.87494 0.47073 0.25924 0.0
H632 H 0.9201 0.43351 0.14755 0.0
C633 C 0.89154 0.4923 0.2822 0.0
H634 H 0.87377 0.43196 0.1973 0.0
C635 C 0.91817 0.49313 0.25433 0.0
C636 C 0.92861 0.47238 0.20338 0.0
H637 H 0.88349 0.50943 0.31622 0.0
H638 H 0.93012 0.51066 0.26843 0.0
C639 C 0.91268 0.44975 0.18719 0.0
C640 C 1.01725 0.15334 0.78275 0.0
C641 C 0.0334 0.16202 0.85286 0.0
H642 H 1.0036 0.12029 0.70464 0.0
C643 C 0.04908 0.14271 0.89595 0.0
H644 H 1.00471 0.16742 0.74797 0.0
C645 C 0.04844 0.11579 0.87106 0.0
C646 C 0.03208 0.10695 0.80197 0.0
H647 H 0.06224 0.14839 0.94884 0.0
H648 H 0.06083 0.10182 0.90692 0.0
C649 C 1.01654 0.1262 0.75783 0.0
C650 C 0.40284 0.03822 0.89716 0.0
C651 C 0.38324 0.02558 0.84566 0.0
H652 H 0.44426 0.04753 0.91637 0.0
C653 C 0.39197 1.01238 0.76954 0.0
H654 H 0.39719 0.04914 0.95503 0.0
C655 C 0.41937 1.01173 0.7464 0.0
C656 C 0.43884 0.02422 0.79875 0.0
H657 H 0.37771 1.00216 0.72824 0.0
H658 H 0.4253 1.00123 0.68796 0.0
C659 C 0.43005 0.03749 0.87432 0.0
C660 C 0.5271 0.38755 0.74928 0.0
C661 C 0.52237 0.37926 0.83608 0.0
H662 H 0.53095 0.42039 0.65893 0.0
C663 C 0.51826 0.39932 0.89876 0.0
H664 H 0.53013 0.37292 0.69854 0.0
C665 C 0.51837 0.42645 0.8757 0.0
C666 C 0.52285 0.43478 0.78909 0.0
H667 H 0.51522 0.39415 0.96657 0.0
H668 H 0.51511 0.44098 0.92668 0.0
C669 C 0.5274 0.41488 0.7262 0.0
C670 C 0.14738 0.50502 0.89645 0.0
C671 C 0.16767 0.51582 0.84308 0.0
H672 H 0.10558 0.49721 0.91474 0.0
C673 C 0.15985 0.52708 0.76248 0.0
H674 H 0.15235 0.49566 0.95799 0.0
C675 C 0.13266 0.52776 0.73688 0.0
C676 C 0.11247 0.51716 0.79103 0.0
H677 H 0.17468 0.53585 0.71956 0.0
H678 H 0.12747 0.53689 0.67514 0.0
C679 C 0.12036 0.5057 0.87099 0.0
C680 C 0.0329 0.88837 0.7101 0.0
C681 C 0.02743 0.88086 0.62334 0.0
H682 H 0.03763 0.92029 0.80227 0.0
C683 C 1.02245 0.90139 0.56248 0.0
H684 H 0.03719 0.87332 0.7589 0.0
C685 C 1.0227 0.92838 0.58753 0.0
C686 C 0.02812 0.93587 0.67421 0.0
H687 H 1.01786 0.89661 0.49537 0.0
H688 H 1.01855 0.94342 0.53853 0.0
C689 C 0.03334 0.91543 0.73504 0.0
C690 C 0.65861 0.02459 0.71306 0.0
C691 C 0.6665 1.01788 0.62749 0.0
H692 H 0.62601 0.03082 0.80291 0.0
C693 C 0.64609 1.01315 0.56597 0.0
H694 H 0.67356 0.02819 0.76279 0.0
C695 C 0.61893 1.01434 0.58933 0.0
C696 C 0.61103 1.02055 0.67495 0.0
H697 H 0.65103 1.00861 0.499 0.0
H698 H 0.60406 1.01036 0.53963 0.0
C699 C 0.63126 0.02596 0.73639 0.0
C700 C 0.54199 0.64367 0.58985 0.0
C701 C 0.52996 0.66351 0.64153 0.0
H702 H 0.55038 0.60225 0.57115 0.0
C703 C 0.51619 0.65513 0.71728 0.0
H704 H 0.55223 0.64897 0.53007 0.0
C705 C 0.51492 0.62788 0.74095 0.0
C706 C 0.52738 0.60819 0.68958 0.0
H707 H 0.50678 0.66968 0.75935 0.0
H708 H 0.50434 0.62228 0.79983 0.0
C709 C 0.54079 0.61662 0.61347 0.0
C710 C 0.89157 0.5186 0.70013 0.0
C711 C 0.88418 0.53453 0.62795 0.0
H712 H 0.92345 0.5041 0.78231 0.0
C713 C 0.90477 0.54797 0.58282 0.0
H714 H 0.87643 0.50807 0.73732 0.0
C715 C 0.93162 0.54592 0.60921 0.0
C716 C 0.93906 0.53019 0.68153 0.0
H717 H 0.90027 0.55995 0.52587 0.0
H718 H 0.94664 0.55662 0.57193 0.0
C719 C 0.91861 0.51645 0.72649 0.0
loop_
_geom_bond_atom_site_label_1
_geom_bond_atom_site_label_2
_geom_bond_distance
_geom_bond_site_symmetry_2
_ccdc_geom_bond_type
C0 C1 1.264 . S
C0 C5 1.479 . S
C0 C10 1.465 . S
C1 C0 1.264 . S
C1 C3 1.339 . S
C1 H28 0.931 . S
C2 C3 1.395 . S
C2 C4 1.320 . S
C3 C1 1.339 . S
C3 C2 1.395 . S
C3 H29 0.929 . S
C4 C2 1.320 . S
C4 C5 1.405 . S
C4 H30 0.930 . S
C5 C0 1.479 . S
C5 C4 1.405 . S
C5 H31 0.931 . S
U6 O7 2.454 . S
U6 O8 2.458 . S
U6 C9 2.984 . S
U6 C10 2.847 . S
U6 C23 2.882 . S
U6 O24 2.441 . S
U6 O25 2.420 . S
U6 O26 2.455 . S
U6 O27 2.449 . S
O7 U6 2.454 . S
O7 C9 1.353 . S
O8 U6 2.458 . S
O8 C9 1.286 . S
C9 U6 2.984 . S
C9 O7 1.353 . S
C9 O8 1.286 . S
C9 C11 1.363 . S
C10 C0 1.465 . S
C10 U6 2.847 . S
C10 O24 1.249 . S
C10 O25 1.202 . S
C11 C9 1.363 . S
C11 C13 1.408 . S
C11 C16 1.342 . S
C12 C13 1.310 . S
C12 C15 1.461 . S
C12 H32 0.932 . S
C13 C11 1.408 . S
C13 C12 1.310 . S
C13 H33 0.930 . S
C14 C15 1.474 . S
C14 C16 1.285 . S
C14 H34 0.929 . S
C15 C12 1.461 . S
C15 C14 1.474 . S
C16 C11 1.342 . S
C16 C14 1.285 . S
C16 H35 0.930 . S
C17 C20 1.424 . S
C17 C22 1.245 . S
C17 C23 1.428 . S
C18 C21 1.260 . S
C18 C22 1.477 . S
C18 H36 0.932 . S
C19 C20 1.384 . S
C19 C21 1.479 . S
C19 H37 0.929 . S
C20 C17 1.424 . S
C20 C19 1.384 . S
C20 H38 0.928 . S
C21 C18 1.260 . S
C21 C19 1.479 . S
C22 C17 1.245 . S
C22 C18 1.477 . S
C22 H39 0.932 . S
C23 U6 2.882 . S
C23 C17 1.428 . S
C23 O26 1.301 . S
C23 O27 1.282 . S
O24 U6 2.441 . S
O24 C10 1.249 . S
O25 U6 2.420 . S
O25 C10 1.202 . S
O26 U6 2.455 . S
O26 C23 1.301 . S
O27 U6 2.449 . S
O27 C23 1.282 . S
H28 C1 0.931 . S
H29 C3 0.929 . S
H30 C4 0.930 . S
H31 C5 0.931 . S
H32 C12 0.932 . S
H33 C13 0.930 . S
H34 C14 0.929 . S
H35 C16 0.930 . S
H36 C18 0.932 . S
H37 C19 0.929 . S
H38 C20 0.928 . S
H39 C22 0.932 . S
C40 C41 1.264 . S
C40 C45 1.479 . S
C40 C50 1.465 . S
C41 C40 1.264 . S
C41 C43 1.339 . S
C41 H68 0.931 . S
C42 C43 1.395 . S
C42 C44 1.320 . S
C43 C41 1.339 . S
C43 C42 1.395 . S
C43 H69 0.929 . S
C44 C42 1.320 . S
C44 C45 1.405 . S
C44 H70 0.921 1_455 S
C45 C40 1.479 . S
C45 C44 1.405 . S
C45 H71 0.931 . S
U46 O47 2.454 . S
U46 O48 2.458 . S
U46 C49 2.984 . S
U46 C50 2.847 . S
U46 C63 2.882 . S
U46 O64 2.441 . S
U46 O65 2.420 . S
U46 O66 2.455 . S
U46 O67 2.449 . S
O47 U46 2.454 . S
O47 C49 1.353 . S
O48 U46 2.458 . S
O48 C49 1.286 . S
C49 U46 2.984 . S
C49 O47 1.353 . S
C49 O48 1.286 . S
C49 C51 1.363 . S
C50 C40 1.465 . S
C50 U46 2.847 . S
C50 O64 1.249 . S
C50 O65 1.202 . S
C51 C49 1.363 . S
C51 C53 1.408 . S
C51 C56 1.342 . S
C52 C53 1.310 . S
C52 C55 1.461 . S
C52 H72 0.932 . S
C53 C51 1.408 . S
C53 C52 1.310 . S
C53 H73 0.930 . S
C54 C55 1.474 1_655 S
C54 C56 1.285 1_655 S
C54 H74 0.930 . S
C55 C52 1.461 . S
C55 C54 1.474 1_455 S
C56 C51 1.342 . S
C56 C54 1.285 1_455 S
C56 H75 0.933 . S
C57 C60 1.424 . S
C57 C62 1.245 . S
C57 C63 1.428 . S
C58 C61 1.260 . S
C58 C62 1.477 . S
C58 H76 0.932 . S
C59 C60 1.384 . S
C59 C61 1.479 . S
C59 H77 0.929 . S
C60 C57 1.424 . S
C60 C59 1.384 . S
C60 H78 0.928 . S
C61 C58 1.260 . S
C61 C59 1.479 . S
C62 C57 1.245 . S
C62 C58 1.477 . S
C62 H79 0.932 . S
C63 U46 2.882 . S
C63 C57 1.428 . S
C63 O66 1.301 . S
C63 O67 1.282 . S
O64 U46 2.441 . S
O64 C50 1.249 . S
O65 U46 2.420 . S
O65 C50 1.202 . S
O66 U46 2.455 . S
O66 C63 1.301 . S
O67 U46 2.449 . S
O67 C63 1.282 . S
H68 C41 0.931 . S
H69 C43 0.929 . S
H70 C44 0.921 1_655 S
H71 C45 0.931 . S
H72 C52 0.932 . S
H73 C53 0.930 . S
H74 C54 0.930 . S
H75 C56 0.933 . S
H76 C58 0.932 . S
H77 C59 0.929 . S
H78 C60 0.928 . S
H79 C62 0.932 . S
C80 C81 1.264 . S
C80 C85 1.479 . S
C80 C90 1.465 . S
C81 C80 1.264 . S
C81 C83 1.339 . S
C81 H108 0.931 . S
C82 C83 1.395 . S
C82 C84 1.320 . S
C83 C81 1.339 . S
C83 C82 1.395 . S
C83 H109 0.929 . S
C84 C82 1.320 . S
C84 C85 1.405 . S
C84 H110 0.921 1_545 S
C85 C80 1.479 . S
C85 C84 1.405 . S
C85 H111 0.931 . S
U86 O87 2.454 . S
U86 O88 2.458 . S
U86 C89 2.984 . S
U86 C90 2.847 . S
U86 C103 2.882 . S
U86 O104 2.441 . S
U86 O105 2.420 . S
U86 O106 2.455 . S
U86 O107 2.449 . S
O87 U86 2.454 . S
O87 C89 1.353 . S
O88 U86 2.458 . S
O88 C89 1.286 . S
C89 U86 2.984 . S
C89 O87 1.353 . S
C89 O88 1.286 . S
C89 C91 1.363 . S
C90 C80 1.465 . S
C90 U86 2.847 . S
C90 O104 1.249 . S
C90 O105 1.202 . S
C91 C89 1.363 . S
C91 C93 1.408 . S
C91 C96 1.342 . S
C92 C93 1.310 . S
C92 C95 1.461 . S
C92 H112 0.932 . S
C93 C91 1.408 . S
C93 C92 1.310 . S
C93 H113 0.930 . S
C94 C95 1.474 1_565 S
C94 C96 1.285 1_565 S
C94 H114 0.931 . S
C95 C92 1.461 . S
C95 C94 1.474 1_545 S
C96 C91 1.342 . S
C96 C94 1.285 1_545 S
C96 H115 0.933 . S
C97 C100 1.424 . S
C97 C102 1.245 . S
C97 C103 1.428 . S
C98 C101 1.260 . S
C98 C102 1.477 . S
C98 H116 0.932 . S
C99 C100 1.384 . S
C99 C101 1.479 . S
C99 H117 0.929 . S
C100 C97 1.424 . S
C100 C99 1.384 . S
C100 H118 0.928 . S
C101 C98 1.260 . S
C101 C99 1.479 . S
C102 C97 1.245 . S
C102 C98 1.477 . S
C102 H119 0.932 . S
C103 U86 2.882 . S
C103 C97 1.428 . S
C103 O106 1.301 . S
C103 O107 1.282 . S
O104 U86 2.441 . S
O104 C90 1.249 . S
O105 U86 2.420 . S
O105 C90 1.202 . S
O106 U86 2.455 . S
O106 C103 1.301 . S
O107 U86 2.449 . S
O107 C103 1.282 . S
H108 C81 0.931 . S
H109 C83 0.929 . S
H110 C84 0.921 1_565 S
H111 C85 0.931 . S
H112 C92 0.932 . S
H113 C93 0.930 . S
H114 C94 0.931 . S
H115 C96 0.933 . S
H116 C98 0.932 . S
H117 C99 0.929 . S
H118 C100 0.928 . S
H119 C102 0.932 . S
C120 C121 1.264 . S
C120 C125 1.479 . S
C120 C130 1.465 . S
C121 C120 1.264 . S
C121 C123 1.339 . S
C121 H148 0.931 . S
C122 C123 1.395 . S
C122 C124 1.320 . S
C123 C121 1.339 . S
C123 C122 1.395 . S
C123 H149 0.929 . S
C124 C122 1.320 . S
C124 C125 1.405 . S
C124 H150 0.930 . S
C125 C120 1.479 . S
C125 C124 1.405 . S
C125 H151 0.931 . S
U126 O127 2.454 . S
U126 O128 2.458 . S
U126 C129 2.984 . S
U126 C130 2.847 . S
U126 C143 2.882 . S
U126 O144 2.441 . S
U126 O145 2.420 . S
U126 O146 2.455 . S
U126 O147 2.449 . S
O127 U126 2.454 . S
O127 C129 1.353 . S
O128 U126 2.458 . S
O128 C129 1.286 . S
C129 U126 2.984 . S
C129 O127 1.353 . S
C129 O128 1.286 . S
C129 C131 1.363 . S
C130 C120 1.465 . S
C130 U126 2.847 . S
C130 O144 1.249 . S
C130 O145 1.202 . S
C131 C129 1.363 . S
C131 C133 1.408 . S
C131 C136 1.342 . S
C132 C133 1.310 . S
C132 C135 1.461 . S
C132 H152 0.932 . S
C133 C131 1.408 . S
C133 C132 1.310 . S
C133 H153 0.930 . S
C134 C135 1.474 . S
C134 C136 1.285 . S
C134 H154 0.929 . S
C135 C132 1.461 . S
C135 C134 1.474 . S
C136 C131 1.342 . S
C136 C134 1.285 . S
C136 H155 0.930 . S
C137 C140 1.424 . S
C137 C142 1.245 . S
C137 C143 1.428 . S
C138 C141 1.260 . S
C138 C142 1.477 . S
C138 H156 0.932 . S
C139 C140 1.384 . S
C139 C141 1.479 . S
C139 H157 0.929 . S
C140 C137 1.424 . S
C140 C139 1.384 . S
C140 H158 0.928 . S
C141 C138 1.260 . S
C141 C139 1.479 . S
C142 C137 1.245 . S
C142 C138 1.477 . S
C142 H159 0.932 . S
C143 U126 2.882 . S
C143 C137 1.428 . S
C143 O146 1.301 . S
C143 O147 1.282 . S
O144 U126 2.441 . S
O144 C130 1.249 . S
O145 U126 2.420 . S
O145 C130 1.202 . S
O146 U126 2.455 . S
O146 C143 1.301 . S
O147 U126 2.449 . S
O147 C143 1.282 . S
H148 C121 0.931 . S
H149 C123 0.929 . S
H150 C124 0.930 . S
H151 C125 0.931 . S
H152 C132 0.932 . S
H153 C133 0.930 . S
H154 C134 0.929 . S
H155 C136 0.930 . S
H156 C138 0.932 . S
H157 C139 0.929 . S
H158 C140 0.928 . S
H159 C142 0.932 . S
C160 C161 1.264 . S
C160 C165 1.479 . S
C160 C170 1.465 . S
C161 C160 1.264 . S
C161 C163 1.339 . S
C161 H188 0.931 . S
C162 C163 1.395 . S
C162 C164 1.320 . S
C163 C161 1.339 . S
C163 C162 1.395 . S
C163 H189 0.929 . S
C164 C162 1.320 . S
C164 C165 1.405 . S
C164 H190 0.930 . S
C165 C160 1.479 . S
C165 C164 1.405 . S
C165 H191 0.931 . S
U166 O167 2.454 . S
U166 O168 2.458 . S
U166 C169 2.984 . S
U166 C170 2.847 1_554 S
U166 C183 2.882 . S
U166 O184 2.441 1_554 S
U166 O185 2.420 1_554 S
U166 O186 2.455 . S
U166 O187 2.449 . S
O167 U166 2.454 . S
O167 C169 1.353 . S
O168 U166 2.458 . S
O168 C169 1.286 . S
C169 U166 2.984 . S
C169 O167 1.353 . S
C169 O168 1.286 . S
C169 C171 1.363 . S
C170 C160 1.465 . S
C170 U166 2.847 1_556 S
C170 O184 1.249 . S
C170 O185 1.202 . S
C171 C169 1.363 . S
C171 C173 1.408 . S
C171 C176 1.342 . S
C172 C173 1.310 . S
C172 C175 1.461 . S
C172 H192 0.932 . S
C173 C171 1.408 . S
C173 C172 1.310 . S
C173 H193 0.930 1_554 S
C174 C175 1.474 . S
C174 C176 1.285 . S
C174 H194 0.929 . S
C175 C172 1.461 . S
C175 C174 1.474 . S
C176 C171 1.342 . S
C176 C174 1.285 . S
C176 H195 0.930 . S
C177 C180 1.424 . S
C177 C182 1.245 . S
C177 C183 1.428 . S
C178 C181 1.260 . S
C178 C182 1.477 . S
C178 H196 0.932 . S
C179 C180 1.384 . S
C179 C181 1.479 . S
C179 H197 0.929 . S
C180 C177 1.424 . S
C180 C179 1.384 . S
C180 H198 0.928 . S
C181 C178 1.260 . S
C181 C179 1.479 . S
C182 C177 1.245 . S
C182 C178 1.477 . S
C182 H199 0.932 . S
C183 U166 2.882 . S
C183 C177 1.428 . S
C183 O186 1.301 . S
C183 O187 1.282 . S
O184 U166 2.441 1_556 S
O184 C170 1.249 . S
O185 U166 2.420 1_556 S
O185 C170 1.202 . S
O186 U166 2.455 . S
O186 C183 1.301 . S
O187 U166 2.449 . S
O187 C183 1.282 . S
H188 C161 0.931 . S
H189 C163 0.929 . S
H190 C164 0.930 . S
H191 C165 0.931 . S
H192 C172 0.932 . S
H193 C173 0.930 1_556 S
H194 C174 0.929 . S
H195 C176 0.930 . S
H196 C178 0.932 . S
H197 C179 0.929 . S
H198 C180 0.928 . S
H199 C182 0.932 . S
C200 C201 1.264 . S
C200 C205 1.479 . S
C200 C210 1.465 . S
C201 C200 1.264 . S
C201 C203 1.339 . S
C201 H228 0.931 . S
C202 C203 1.395 . S
C202 C204 1.320 . S
C203 C201 1.339 . S
C203 C202 1.395 . S
C203 H229 0.929 . S
C204 C202 1.320 . S
C204 C205 1.405 . S
C204 H230 0.923 1_455 S
C205 C200 1.479 . S
C205 C204 1.405 . S
C205 H231 0.931 . S
U206 O207 2.454 . S
U206 O208 2.458 . S
U206 C209 2.984 . S
U206 C210 2.847 1_554 S
U206 C223 2.882 . S
U206 O224 2.441 1_554 S
U206 O225 2.420 1_554 S
U206 O226 2.455 . S
U206 O227 2.449 . S
O207 U206 2.454 . S
O207 C209 1.353 . S
O208 U206 2.458 . S
O208 C209 1.286 . S
C209 U206 2.984 . S
C209 O207 1.353 . S
C209 O208 1.286 . S
C209 C211 1.363 . S
C210 C200 1.465 . S
C210 U206 2.847 1_556 S
C210 O224 1.249 . S
C210 O225 1.202 . S
C211 C209 1.363 . S
C211 C213 1.408 . S
C211 C216 1.342 . S
C212 C213 1.310 . S
C212 C215 1.462 . S
C212 H232 0.932 . S
C213 C211 1.408 . S
C213 C212 1.310 . S
C213 H233 0.930 1_554 S
C214 C215 1.474 1_655 S
C214 C216 1.286 1_655 S
C214 H234 0.929 . S
C215 C212 1.462 . S
C215 C214 1.474 1_455 S
C216 C211 1.342 . S
C216 C214 1.286 1_455 S
C216 H235 0.930 . S
C217 C220 1.424 . S
C217 C222 1.245 . S
C217 C223 1.428 . S
C218 C221 1.260 . S
C218 C222 1.477 . S
C218 H236 0.932 . S
C219 C220 1.384 . S
C219 C221 1.479 . S
C219 H237 0.929 . S
C220 C217 1.424 . S
C220 C219 1.384 . S
C220 H238 0.928 . S
C221 C218 1.260 . S
C221 C219 1.479 . S
C222 C217 1.245 . S
C222 C218 1.477 . S
C222 H239 0.932 . S
C223 U206 2.882 . S
C223 C217 1.428 . S
C223 O226 1.301 . S
C223 O227 1.282 . S
O224 U206 2.441 1_556 S
O224 C210 1.249 . S
O225 U206 2.420 1_556 S
O225 C210 1.202 . S
O226 U206 2.455 . S
O226 C223 1.301 . S
O227 U206 2.449 . S
O227 C223 1.282 . S
H228 C201 0.931 . S
H229 C203 0.929 . S
H230 C204 0.923 1_655 S
H231 C205 0.931 . S
H232 C212 0.932 . S
H233 C213 0.930 1_556 S
H234 C214 0.929 . S
H235 C216 0.930 . S
H236 C218 0.932 . S
H237 C219 0.929 . S
H238 C220 0.928 . S
H239 C222 0.932 . S
C240 C241 1.264 . S
C240 C245 1.479 . S
C240 C250 1.465 . S
C241 C240 1.264 . S
C241 C243 1.339 . S
C241 H268 0.931 . S
C242 C243 1.395 . S
C242 C244 1.320 . S
C243 C241 1.339 . S
C243 C242 1.395 . S
C243 H269 0.929 . S
C244 C242 1.320 . S
C244 C245 1.405 . S
C244 H270 0.923 1_545 S
C245 C240 1.479 . S
C245 C244 1.405 . S
C245 H271 0.931 . S
U246 O247 2.454 . S
U246 O248 2.458 . S
U246 C249 2.984 . S
U246 C250 2.847 1_554 S
U246 C263 2.882 . S
U246 O264 2.441 1_554 S
U246 O265 2.420 1_554 S
U246 O266 2.455 . S
U246 O267 2.449 . S
O247 U246 2.454 . S
O247 C249 1.353 . S
O248 U246 2.458 . S
O248 C249 1.286 . S
C249 U246 2.984 . S
C249 O247 1.353 . S
C249 O248 1.286 . S
C249 C251 1.363 . S
C250 C240 1.465 . S
C250 U246 2.847 1_556 S
C250 O264 1.249 . S
C250 O265 1.202 . S
C251 C249 1.363 . S
C251 C253 1.408 . S
C251 C256 1.342 . S
C252 C253 1.310 . S
C252 C255 1.462 . S
C252 H272 0.932 . S
C253 C251 1.408 . S
C253 C252 1.310 . S
C253 H273 0.930 1_554 S
C254 C255 1.474 1_565 S
C254 C256 1.286 1_565 S
C254 H274 0.929 . S
C255 C252 1.462 . S
C255 C254 1.474 1_545 S
C256 C251 1.342 . S
C256 C254 1.286 1_545 S
C256 H275 0.930 . S
C257 C260 1.424 . S
C257 C262 1.245 . S
C257 C263 1.428 . S
C258 C261 1.260 . S
C258 C262 1.477 . S
C258 H276 0.932 . S
C259 C260 1.384 . S
C259 C261 1.479 . S
C259 H277 0.929 . S
C260 C257 1.424 . S
C260 C259 1.384 . S
C260 H278 0.928 . S
C261 C258 1.260 . S
C261 C259 1.479 . S
C262 C257 1.245 . S
C262 C258 1.477 . S
C262 H279 0.932 . S
C263 U246 2.882 . S
C263 C257 1.428 . S
C263 O266 1.301 . S
C263 O267 1.282 . S
O264 U246 2.441 1_556 S
O264 C250 1.249 . S
O265 U246 2.420 1_556 S
O265 C250 1.202 . S
O266 U246 2.455 . S
O266 C263 1.301 . S
O267 U246 2.449 . S
O267 C263 1.282 . S
H268 C241 0.931 . S
H269 C243 0.929 . S
H270 C244 0.923 1_565 S
H271 C245 0.931 . S
H272 C252 0.932 . S
H273 C253 0.930 1_556 S
H274 C254 0.929 . S
H275 C256 0.930 . S
H276 C258 0.932 . S
H277 C259 0.929 . S
H278 C260 0.928 . S
H279 C262 0.932 . S
C280 C281 1.264 . S
C280 C285 1.479 . S
C280 C290 1.465 . S
C281 C280 1.264 . S
C281 C283 1.339 . S
C281 H308 0.931 . S
C282 C283 1.395 . S
C282 C284 1.320 . S
C283 C281 1.339 . S
C283 C282 1.395 . S
C283 H309 0.929 . S
C284 C282 1.320 . S
C284 C285 1.405 . S
C284 H310 0.930 . S
C285 C280 1.479 . S
C285 C284 1.405 . S
C285 H311 0.931 . S
U286 O287 2.454 . S
U286 O288 2.458 . S
U286 C289 2.984 . S
U286 C290 2.847 1_554 S
U286 C303 2.882 . S
U286 O304 2.441 1_554 S
U286 O305 2.420 1_554 S
U286 O306 2.455 . S
U286 O307 2.449 . S
O287 U286 2.454 . S
O287 C289 1.353 . S
O288 U286 2.458 . S
O288 C289 1.286 . S
C289 U286 2.984 . S
C289 O287 1.353 . S
C289 O288 1.286 . S
C289 C291 1.363 . S
C290 C280 1.465 . S
C290 U286 2.847 1_556 S
C290 O304 1.249 . S
C290 O305 1.202 . S
C291 C289 1.363 . S
C291 C293 1.408 . S
C291 C296 1.342 . S
C292 C293 1.310 . S
C292 C295 1.461 . S
C292 H312 0.932 . S
C293 C291 1.408 . S
C293 C292 1.310 . S
C293 H313 0.930 1_554 S
C294 C295 1.474 . S
C294 C296 1.285 . S
C294 H314 0.929 . S
C295 C292 1.461 . S
C295 C294 1.474 . S
C296 C291 1.342 . S
C296 C294 1.285 . S
C296 H315 0.930 . S
C297 C300 1.424 . S
C297 C302 1.245 . S
C297 C303 1.428 . S
C298 C301 1.260 . S
C298 C302 1.477 . S
C298 H316 0.932 . S
C299 C300 1.384 . S
C299 C301 1.479 . S
C299 H317 0.929 . S
C300 C297 1.424 . S
C300 C299 1.384 . S
C300 H318 0.928 . S
C301 C298 1.260 . S
C301 C299 1.479 . S
C302 C297 1.245 . S
C302 C298 1.477 . S
C302 H319 0.932 . S
C303 U286 2.882 . S
C303 C297 1.428 . S
C303 O306 1.301 . S
C303 O307 1.282 . S
O304 U286 2.441 1_556 S
O304 C290 1.249 . S
O305 U286 2.420 1_556 S
O305 C290 1.202 . S
O306 U286 2.455 . S
O306 C303 1.301 . S
O307 U286 2.449 . S
O307 C303 1.282 . S
H308 C281 0.931 . S
H309 C283 0.929 . S
H310 C284 0.930 . S
H311 C285 0.931 . S
H312 C292 0.932 . S
H313 C293 0.930 1_556 S
H314 C294 0.929 . S
H315 C296 0.930 . S
H316 C298 0.932 . S
H317 C299 0.929 . S
H318 C300 0.928 . S
H319 C302 0.932 . S
Sm320 C322 2.846 . S
Sm320 O340 2.543 . S
Sm320 O341 2.450 . S
Sm320 O342 2.681 1_565 S
Sm320 O343 2.464 . S
Sm320 O344 2.396 . S
Sm320 O348 2.386 1_455 S
Sm320 O351 2.408 1_565 S
Sm321 C331 2.846 . S
Sm321 O342 2.386 1_655 S
Sm321 O345 2.408 1_545 S
Sm321 O346 2.543 . S
Sm321 O347 2.450 . S
Sm321 O348 2.681 1_545 S
Sm321 O349 2.464 . S
Sm321 O350 2.396 . S
C322 Sm320 2.846 . S
C322 C323 1.506 . S
C322 O340 1.261 . S
C322 O341 1.242 . S
C323 C322 1.506 . S
C323 C324 1.358 . S
C323 C328 1.382 . S
C324 C323 1.358 . S
C324 C325 1.385 1_556 S
C324 H352 0.930 1_455 S
C325 C324 1.385 1_554 S
C325 C326 1.395 . S
C325 H353 0.962 . S
C326 C325 1.395 . S
C326 C327 1.335 1_554 S
C327 C326 1.335 1_556 S
C327 C328 1.398 . S
C327 H354 0.930 . S
C328 C323 1.382 . S
C328 C327 1.398 . S
C328 H355 0.929 . S
C329 O342 1.271 1_565 S
C329 O343 1.251 . S
C330 O344 1.252 1_655 S
C330 O345 1.272 . S
C331 Sm321 2.846 . S
C331 C332 1.506 . S
C331 O346 1.261 . S
C331 O347 1.242 . S
C332 C331 1.506 . S
C332 C333 1.358 . S
C332 C337 1.382 . S
C333 C332 1.358 . S
C333 C334 1.385 . S
C333 H356 0.930 1_655 S
C334 C333 1.385 . S
C334 C335 1.395 . S
C334 H357 0.953 . S
C335 C334 1.395 . S
C335 C336 1.335 . S
C336 C335 1.335 . S
C336 C337 1.398 . S
C336 H358 0.930 . S
C337 C332 1.382 . S
C337 C336 1.398 . S
C337 H359 0.929 . S
C338 O348 1.271 1_545 S
C338 O349 1.251 . S
C339 O350 1.252 1_455 S
C339 O351 1.272 . S
O340 Sm320 2.543 . S
O340 C322 1.261 . S
O341 Sm320 2.450 . S
O341 C322 1.242 . S
O342 Sm320 2.681 1_545 S
O342 Sm321 2.386 1_455 S
O342 C329 1.271 1_545 S
O343 Sm320 2.464 . S
O343 C329 1.251 . S
O344 Sm320 2.396 . S
O344 C330 1.252 1_455 S
O345 Sm321 2.408 1_565 S
O345 C330 1.272 . S
O346 Sm321 2.543 . S
O346 C331 1.261 . S
O347 Sm321 2.450 . S
O347 C331 1.242 . S
O348 Sm320 2.386 1_655 S
O348 Sm321 2.681 1_565 S
O348 C338 1.271 1_565 S
O349 Sm321 2.464 . S
O349 C338 1.251 . S
O350 Sm321 2.396 . S
O350 C339 1.252 1_655 S
O351 Sm320 2.408 1_545 S
O351 C339 1.272 . S
H352 C324 0.930 1_655 S
H353 C325 0.962 . S
H354 C327 0.930 . S
H355 C328 0.929 . S
H356 C333 0.930 1_455 S
H357 C334 0.953 . S
H358 C336 0.930 . S
H359 C337 0.929 . S
Sm360 C362 2.846 . S
Sm360 O380 2.543 . S
Sm360 O381 2.450 . S
Sm360 O382 2.681 . S
Sm360 O383 2.464 . S
Sm360 O384 2.396 . S
Sm360 O388 2.386 1_545 S
Sm360 O391 2.408 . S
Sm361 C371 2.846 . S
Sm361 O382 2.386 1_565 S
Sm361 O385 2.408 . S
Sm361 O386 2.543 . S
Sm361 O387 2.450 . S
Sm361 O388 2.681 . S
Sm361 O389 2.464 . S
Sm361 O390 2.396 . S
C362 Sm360 2.846 . S
C362 C363 1.506 . S
C362 O380 1.261 . S
C362 O381 1.242 . S
C363 C362 1.506 . S
C363 C364 1.358 . S
C363 C368 1.382 . S
C364 C363 1.358 . S
C364 C365 1.385 1_556 S
C364 H392 0.930 1_545 S
C365 C364 1.385 1_554 S
C365 C366 1.395 . S
C365 H393 0.929 1_545 S
C366 C365 1.395 . S
C366 C367 1.335 1_554 S
C367 C366 1.335 1_556 S
C367 C368 1.398 . S
C367 H394 0.930 . S
C368 C363 1.382 . S
C368 C367 1.398 . S
C368 H395 0.929 . S
C369 O382 1.271 . S
C369 O383 1.251 . S
C370 O384 1.252 1_565 S
C370 O385 1.272 . S
C371 Sm361 2.846 . S
C371 C372 1.506 . S
C371 O386 1.261 . S
C371 O387 1.242 . S
C372 C371 1.506 . S
C372 C373 1.358 . S
C372 C377 1.382 . S
C373 C372 1.358 . S
C373 C374 1.385 . S
C373 H396 0.930 1_565 S
C374 C373 1.385 . S
C374 C375 1.395 . S
C374 H397 0.921 1_565 S
C375 C374 1.395 . S
C375 C376 1.335 . S
C376 C375 1.335 . S
C376 C377 1.398 . S
C376 H398 0.930 . S
C377 C372 1.382 . S
C377 C376 1.398 . S
C377 H399 0.929 . S
C378 O388 1.271 . S
C378 O389 1.251 . S
C379 O390 1.252 1_545 S
C379 O391 1.272 . S
O380 Sm360 2.543 . S
O380 C362 1.261 . S
O381 Sm360 2.450 . S
O381 C362 1.242 . S
O382 Sm360 2.681 . S
O382 Sm361 2.386 1_545 S
O382 C369 1.271 . S
O383 Sm360 2.464 . S
O383 C369 1.251 . S
O384 Sm360 2.396 . S
O384 C370 1.252 1_545 S
O385 Sm361 2.408 . S
O385 C370 1.272 . S
O386 Sm361 2.543 . S
O386 C371 1.261 . S
O387 Sm361 2.450 . S
O387 C371 1.242 . S
O388 Sm360 2.386 1_565 S
O388 Sm361 2.681 . S
O388 C378 1.271 . S
O389 Sm361 2.464 . S
O389 C378 1.251 . S
O390 Sm361 2.396 . S
O390 C379 1.252 1_565 S
O391 Sm360 2.408 . S
O391 C379 1.272 . S
H392 C364 0.930 1_565 S
H393 C365 0.929 1_565 S
H394 C367 0.930 . S
H395 C368 0.929 . S
H396 C373 0.930 1_545 S
H397 C374 0.921 1_545 S
H398 C376 0.930 . S
H399 C377 0.929 . S
Sm400 C402 2.846 . S
Sm400 O420 2.543 . S
Sm400 O421 2.450 . S
Sm400 O422 2.681 . S
Sm400 O423 2.464 . S
Sm400 O424 2.396 . S
Sm400 O428 2.386 . S
Sm400 O431 2.408 . S
Sm401 C411 2.846 . S
Sm401 O422 2.386 . S
Sm401 O425 2.408 . S
Sm401 O426 2.543 . S
Sm401 O427 2.450 . S
Sm401 O428 2.681 . S
Sm401 O429 2.464 . S
Sm401 O430 2.396 . S
C402 Sm400 2.846 . S
C402 C403 1.506 . S
C402 O420 1.261 . S
C402 O421 1.242 . S
C403 C402 1.506 . S
C403 C404 1.358 . S
C403 C408 1.382 . S
C404 C403 1.358 . S
C404 C405 1.385 1_556 S
C404 H432 0.930 . S
C405 C404 1.385 1_554 S
C405 C406 1.395 . S
C405 H433 0.929 . S
C406 C405 1.395 . S
C406 C407 1.335 1_554 S
C407 C406 1.335 1_556 S
C407 C408 1.398 . S
C407 H434 0.930 . S
C408 C403 1.382 . S
C408 C407 1.398 . S
C408 H435 0.929 . S
C409 O422 1.271 . S
C409 O423 1.251 . S
C410 O424 1.252 . S
C410 O425 1.272 . S
C411 Sm401 2.846 . S
C411 C412 1.506 . S
C411 O426 1.261 . S
C411 O427 1.242 . S
C412 C411 1.506 . S
C412 C413 1.358 . S
C412 C417 1.382 . S
C413 C412 1.358 . S
C413 C414 1.385 . S
C413 H436 0.930 . S
C414 C413 1.385 . S
C414 C415 1.395 . S
C414 H437 0.929 . S
C415 C414 1.395 . S
C415 C416 1.335 . S
C416 C415 1.335 . S
C416 C417 1.398 . S
C416 H438 0.930 . S
C417 C412 1.382 . S
C417 C416 1.398 . S
C417 H439 0.929 . S
C418 O428 1.271 . S
C418 O429 1.251 . S
C419 O430 1.252 . S
C419 O431 1.272 . S
O420 Sm400 2.543 . S
O420 C402 1.261 . S
O421 Sm400 2.450 . S
O421 C402 1.242 . S
O422 Sm400 2.681 . S
O422 Sm401 2.386 . S
O422 C409 1.271 . S
O423 Sm400 2.464 . S
O423 C409 1.251 . S
O424 Sm400 2.396 . S
O424 C410 1.252 . S
O425 Sm401 2.408 . S
O425 C410 1.272 . S
O426 Sm401 2.543 . S
O426 C411 1.261 . S
O427 Sm401 2.450 . S
O427 C411 1.242 . S
O428 Sm400 2.386 . S
O428 Sm401 2.681 . S
O428 C418 1.271 . S
O429 Sm401 2.464 . S
O429 C418 1.251 . S
O430 Sm401 2.396 . S
O430 C419 1.252 . S
O431 Sm400 2.408 . S
O431 C419 1.272 . S
H432 C404 0.930 . S
H433 C405 0.929 . S
H434 C407 0.930 . S
H435 C408 0.929 . S
H436 C413 0.930 . S
H437 C414 0.929 . S
H438 C416 0.930 . S
H439 C417 0.929 . S
Sm440 C442 2.846 . S
Sm440 O460 2.543 . S
Sm440 O461 2.450 . S
Sm440 O462 2.681 1_655 S
Sm440 O463 2.464 . S
Sm440 O464 2.396 . S
Sm440 O468 2.386 . S
Sm440 O471 2.408 1_655 S
Sm441 C451 2.846 . S
Sm441 O462 2.386 . S
Sm441 O465 2.408 1_455 S
Sm441 O466 2.543 . S
Sm441 O467 2.450 . S
Sm441 O468 2.681 1_455 S
Sm441 O469 2.464 . S
Sm441 O470 2.396 . S
C442 Sm440 2.846 . S
C442 C443 1.506 . S
C442 O460 1.261 . S
C442 O461 1.242 . S
C443 C442 1.506 . S
C443 C444 1.358 . S
C443 C448 1.382 . S
C444 C443 1.358 . S
C444 C445 1.385 1_556 S
C444 H472 0.930 . S
C445 C444 1.385 1_554 S
C445 C446 1.395 . S
C445 H473 0.929 . S
C446 C445 1.395 . S
C446 C447 1.335 1_554 S
C447 C446 1.335 1_556 S
C447 C448 1.398 . S
C447 H474 0.930 . S
C448 C443 1.382 . S
C448 C447 1.398 . S
C448 H475 0.929 . S
C449 O462 1.264 1_655 S
C449 O463 1.264 . S
C450 O464 1.252 . S
C450 O465 1.272 . S
C451 Sm441 2.846 . S
C451 C452 1.506 . S
C451 O466 1.261 . S
C451 O467 1.242 . S
C452 C451 1.506 . S
C452 C453 1.358 . S
C452 C457 1.382 . S
C453 C452 1.358 . S
C453 C454 1.385 . S
C453 H476 0.930 . S
C454 C453 1.385 . S
C454 C455 1.395 . S
C454 H477 0.929 . S
C455 C454 1.395 . S
C455 C456 1.335 . S
C456 C455 1.335 . S
C456 C457 1.398 . S
C456 H478 0.930 . S
C457 C452 1.382 . S
C457 C456 1.398 . S
C457 H479 0.929 . S
C458 O468 1.261 1_455 S
C458 O469 1.269 . S
C459 O470 1.252 . S
C459 O471 1.272 . S
O460 Sm440 2.543 . S
O460 C442 1.261 . S
O461 Sm440 2.450 . S
O461 C442 1.242 . S
O462 Sm440 2.681 1_455 S
O462 Sm441 2.386 . S
O462 C449 1.264 1_455 S
O463 Sm440 2.464 . S
O463 C449 1.264 . S
O464 Sm440 2.396 . S
O464 C450 1.252 . S
O465 Sm441 2.408 1_655 S
O465 C450 1.272 . S
O466 Sm441 2.543 . S
O466 C451 1.261 . S
O467 Sm441 2.450 . S
O467 C451 1.242 . S
O468 Sm440 2.386 . S
O468 Sm441 2.681 1_655 S
O468 C458 1.261 1_655 S
O469 Sm441 2.464 . S
O469 C458 1.269 . S
O470 Sm441 2.396 . S
O470 C459 1.252 . S
O471 Sm440 2.408 1_455 S
O471 C459 1.272 . S
H472 C444 0.930 . S
H473 C445 0.929 . S
H474 C447 0.930 . S
H475 C448 0.929 . S
H476 C453 0.930 . S
H477 C454 0.929 . S
H478 C456 0.930 . S
H479 C457 0.929 . S
C480 C481 1.371 1_565 S
C480 H484 0.950 . S
C480 C489 1.390 . S
C481 C480 1.371 1_545 S
C481 C483 1.404 . S
H482 C489 0.950 . S
C483 C481 1.404 . S
C483 C485 1.390 . S
C483 H487 0.950 . S
H484 C480 0.950 . S
C485 C483 1.390 . S
C485 C486 1.424 . S
C485 H488 0.950 . S
C486 C485 1.424 . S
C486 C489 1.351 1_545 S
H487 C483 0.950 . S
H488 C485 0.950 . S
C489 C480 1.390 . S
C489 H482 0.950 . S
C489 C486 1.351 1_565 S
C490 C491 1.387 . S
C490 H494 0.950 . S
C490 C499 1.390 . S
C491 C490 1.387 . S
C491 C493 1.387 . S
H492 C499 0.950 . S
C493 C491 1.387 . S
C493 C495 1.390 . S
C493 H497 0.950 . S
H494 C490 0.950 . S
C495 C493 1.390 . S
C495 C496 1.387 . S
C495 H498 0.950 . S
C496 C495 1.387 . S
C496 C499 1.387 . S
H497 C493 0.950 . S
H498 C495 0.950 . S
C499 C490 1.390 . S
C499 H492 0.950 . S
C499 C496 1.387 . S
C500 C501 1.387 . S
C500 H504 0.950 . S
C500 C509 1.390 . S
C501 C500 1.387 . S
C501 C503 1.387 . S
H502 C509 0.950 . S
C503 C501 1.387 . S
C503 C505 1.390 . S
C503 H507 0.950 . S
H504 C500 0.950 . S
C505 C503 1.390 . S
C505 C506 1.387 . S
C505 H508 0.950 . S
C506 C505 1.387 . S
C506 C509 1.387 . S
H507 C503 0.950 . S
H508 C505 0.950 . S
C509 C500 1.390 . S
C509 H502 0.950 . S
C509 C506 1.387 . S
C510 C511 1.364 1_655 S
C510 H514 0.950 . S
C510 C519 1.390 . S
C511 C510 1.364 1_455 S
C511 C513 1.412 . S
H512 C519 0.950 . S
C513 C511 1.412 . S
C513 C515 1.390 . S
C513 H517 0.950 . S
H514 C510 0.950 . S
C515 C513 1.390 . S
C515 C516 1.387 . S
C515 H518 0.950 . S
C516 C515 1.387 . S
C516 C519 1.387 1_455 S
H517 C513 0.950 . S
H518 C515 0.950 . S
C519 C510 1.390 . S
C519 H512 0.950 . S
C519 C516 1.387 1_655 S
C520 C521 1.380 1_545 S
C520 H524 0.950 . S
C520 C529 1.390 . S
C521 C520 1.380 1_565 S
C521 C523 1.395 . S
H522 C529 0.950 1_556 S
C523 C521 1.395 . S
C523 C525 1.390 . S
C523 H527 0.950 . S
H524 C520 0.950 . S
C525 C523 1.390 . S
C525 C526 1.415 1_554 S
C525 H528 0.950 1_554 S
C526 C525 1.415 1_556 S
C526 C529 1.360 1_566 S
H527 C523 0.950 . S
H528 C525 0.950 1_556 S
C529 C520 1.390 . S
C529 H522 0.950 1_554 S
C529 C526 1.360 1_544 S
C530 C531 1.387 . S
C530 H534 0.950 . S
C530 C539 1.390 . S
C531 C530 1.387 . S
C531 C533 1.387 . S
H532 C539 0.950 . S
C533 C531 1.387 . S
C533 C535 1.390 . S
C533 H537 0.950 . S
H534 C530 0.950 . S
C535 C533 1.390 . S
C535 C536 1.387 1_554 S
C535 H538 0.950 1_554 S
C536 C535 1.387 1_556 S
C536 C539 1.387 1_556 S
H537 C533 0.950 . S
H538 C535 0.950 1_556 S
C539 C530 1.390 . S
C539 H532 0.950 . S
C539 C536 1.387 1_554 S
C540 C541 1.387 . S
C540 H544 0.950 . S
C540 C549 1.390 . S
C541 C540 1.387 . S
C541 C543 1.387 . S
H542 C549 0.950 1_556 S
C543 C541 1.387 . S
C543 C545 1.390 . S
C543 H547 0.950 . S
H544 C540 0.950 . S
C545 C543 1.390 . S
C545 C546 1.387 1_554 S
C545 H548 0.950 . S
C546 C545 1.387 1_556 S
C546 C549 1.387 1_556 S
H547 C543 0.950 . S
H548 C545 0.950 . S
C549 C540 1.390 . S
C549 H542 0.950 1_554 S
C549 C546 1.387 1_554 S
C550 C551 1.407 . S
C550 H554 0.950 . S
C550 C559 1.390 . S
C551 C550 1.407 . S
C551 C553 1.369 1_655 S
H552 C559 0.950 1_556 S
C553 C551 1.369 1_455 S
C553 C555 1.390 . S
C553 H557 0.950 . S
H554 C550 0.950 . S
C555 C553 1.390 . S
C555 C556 1.387 1_454 S
C555 H558 0.950 1_554 S
C556 C555 1.387 1_656 S
C556 C559 1.387 1_556 S
H557 C553 0.950 . S
H558 C555 0.950 1_556 S
C559 C550 1.390 . S
C559 H552 0.950 1_554 S
C559 C556 1.387 1_554 S
C560 C561 1.387 . S
C560 H564 0.950 1_655 S
C560 C569 1.390 . S
C561 C560 1.387 . S
C561 C563 1.387 . S
H562 C569 0.950 . S
C563 C561 1.387 . S
C563 C565 1.390 . S
C563 H567 0.950 . S
H564 C560 0.950 1_455 S
C565 C563 1.390 . S
C565 C566 1.387 . S
C565 H568 0.950 . S
C566 C565 1.387 . S
C566 C569 1.387 . S
H567 C563 0.950 . S
H568 C565 0.950 . S
C569 C560 1.390 . S
C569 H562 0.950 . S
C569 C566 1.387 . S
C570 C571 1.387 . S
C570 H574 0.950 . S
C570 C579 1.390 . S
C571 C570 1.387 . S
C571 C573 1.387 . S
H572 C579 0.950 . S
C573 C571 1.387 . S
C573 C575 1.390 . S
C573 H577 0.950 1_565 S
H574 C570 0.950 . S
C575 C573 1.390 . S
C575 C576 1.387 . S
C575 H578 0.950 . S
C576 C575 1.387 . S
C576 C579 1.387 . S
H577 C573 0.950 1_545 S
H578 C575 0.950 . S
C579 C570 1.390 . S
C579 H572 0.950 . S
C579 C576 1.387 . S
C580 C581 1.387 . S
C580 H584 0.950 . S
C580 C589 1.390 . S
C581 C580 1.387 . S
C581 C583 1.387 . S
H582 C589 0.950 . S
C583 C581 1.387 . S
C583 C585 1.390 . S
C583 H587 0.950 . S
H584 C580 0.950 . S
C585 C583 1.390 . S
C585 C586 1.387 . S
C585 H588 0.950 . S
C586 C585 1.387 . S
C586 C589 1.387 . S
H587 C583 0.950 . S
H588 C585 0.950 . S
C589 C580 1.390 . S
C589 H582 0.950 . S
C589 C586 1.387 . S
C590 C591 1.387 . S
C590 H594 0.950 . S
C590 C599 1.390 . S
C591 C590 1.387 . S
C591 C593 1.387 . S
H592 C599 0.950 . S
C593 C591 1.387 . S
C593 C595 1.390 . S
C593 H597 0.950 . S
H594 C590 0.950 . S
C595 C593 1.390 . S
C595 C596 1.387 . S
C595 H598 0.950 . S
C596 C595 1.387 . S
C596 C599 1.387 . S
H597 C593 0.950 . S
H598 C595 0.950 . S
C599 C590 1.390 . S
C599 H592 0.950 . S
C599 C596 1.387 . S
C600 C601 1.387 1_556 S
C600 H604 0.950 . S
C600 C609 1.390 . S
C601 C600 1.387 1_554 S
C601 C603 1.387 . S
H602 C609 0.950 . S
C603 C601 1.387 . S
C603 C605 1.390 . S
C603 H607 0.938 1_455 S
H604 C600 0.950 . S
C605 C603 1.390 . S
C605 C606 1.387 . S
C605 H608 0.950 . S
C606 C605 1.387 . S
C606 C609 1.387 1_554 S
H607 C603 0.938 1_655 S
H608 C605 0.950 . S
C609 C600 1.390 . S
C609 H602 0.950 . S
C609 C606 1.387 1_556 S
C610 C611 1.387 . S
C610 H614 0.950 1_545 S
C610 C619 1.390 . S
C611 C610 1.387 . S
C611 C613 1.387 1_554 S
H612 C619 0.950 . S
C613 C611 1.387 1_556 S
C613 C615 1.390 . S
C613 H617 0.950 . S
H614 C610 0.950 1_565 S
C615 C613 1.390 . S
C615 C616 1.387 1_556 S
C615 H618 0.950 . S
C616 C615 1.387 1_554 S
C616 C619 1.387 . S
H617 C613 0.950 . S
H618 C615 0.950 . S
C619 C610 1.390 . S
C619 H612 0.950 . S
C619 C616 1.387 . S
C620 C621 1.387 1_556 S
C620 H624 0.950 . S
C620 C629 1.390 . S
C621 C620 1.387 1_554 S
C621 C623 1.387 . S
H622 C629 0.950 . S
C623 C621 1.387 . S
C623 C625 1.390 . S
C623 H627 0.950 . S
H624 C620 0.950 . S
C625 C623 1.390 . S
C625 C626 1.387 . S
C625 H628 0.950 . S
C626 C625 1.387 . S
C626 C629 1.387 1_554 S
H627 C623 0.950 . S
H628 C625 0.950 . S
C629 C620 1.390 . S
C629 H622 0.950 . S
C629 C626 1.387 1_556 S
C630 C631 1.387 1_556 S
C630 H634 0.950 . S
C630 C639 1.390 . S
C631 C630 1.387 1_554 S
C631 C633 1.387 . S
H632 C639 0.950 . S
C633 C631 1.387 . S
C633 C635 1.390 . S
C633 H637 0.950 . S
H634 C630 0.950 . S
C635 C633 1.390 . S
C635 C636 1.387 . S
C635 H638 0.950 . S
C636 C635 1.387 . S
C636 C639 1.387 1_554 S
H637 C633 0.950 . S
H638 C635 0.950 . S
C639 C630 1.390 . S
C639 H632 0.950 . S
C639 C636 1.387 1_556 S
C640 C641 1.387 1_655 S
C640 H644 0.950 . S
C640 C649 1.390 . S
C641 C640 1.387 1_455 S
C641 C643 1.387 . S
H642 C649 0.950 . S
C643 C641 1.387 . S
C643 C645 1.390 . S
C643 H647 0.950 . S
H644 C640 0.950 . S
C645 C643 1.390 . S
C645 C646 1.387 . S
C645 H648 0.950 . S
C646 C645 1.387 . S
C646 C649 1.387 1_455 S
H647 C643 0.950 . S
H648 C645 0.950 . S
C649 C640 1.390 . S
C649 H642 0.950 . S
C649 C646 1.387 1_655 S
C650 C651 1.387 . S
C650 H654 0.950 . S
C650 C659 1.390 . S
C651 C650 1.387 . S
C651 C653 1.387 1_545 S
H652 C659 0.950 . S
C653 C651 1.387 1_565 S
C653 C655 1.390 . S
C653 H657 0.950 . S
H654 C650 0.950 . S
C655 C653 1.390 . S
C655 C656 1.387 1_565 S
C655 H658 0.950 . S
C656 C655 1.387 1_545 S
C656 C659 1.387 . S
H657 C653 0.950 . S
H658 C655 0.950 . S
C659 C650 1.390 . S
C659 H652 0.950 . S
C659 C656 1.387 . S
C660 C661 1.387 . S
C660 H664 0.950 . S
C660 C669 1.390 . S
C661 C660 1.387 . S
C661 C663 1.387 . S
H662 C669 0.950 . S
C663 C661 1.387 . S
C663 C665 1.390 . S
C663 H667 0.950 . S
H664 C660 0.950 . S
C665 C663 1.390 . S
C665 C666 1.387 . S
C665 H668 0.950 . S
C666 C665 1.387 . S
C666 C669 1.387 . S
H667 C663 0.950 . S
H668 C665 0.950 . S
C669 C660 1.390 . S
C669 H662 0.950 . S
C669 C666 1.387 . S
C670 C671 1.387 . S
C670 H674 0.950 . S
C670 C679 1.390 . S
C671 C670 1.387 . S
C671 C673 1.387 . S
H672 C679 0.950 . S
C673 C671 1.387 . S
C673 C675 1.390 . S
C673 H677 0.950 . S
H674 C670 0.950 . S
C675 C673 1.390 . S
C675 C676 1.387 . S
C675 H678 0.950 . S
C676 C675 1.387 . S
C676 C679 1.387 . S
H677 C673 0.950 . S
H678 C675 0.950 . S
C679 C670 1.390 . S
C679 H672 0.950 . S
C679 C676 1.387 . S
C680 C681 1.387 . S
C680 H684 0.950 . S
C680 C689 1.390 . S
C681 C680 1.387 . S
C681 C683 1.387 1_655 S
H682 C689 0.950 . S
C683 C681 1.387 1_455 S
C683 C685 1.393 . S
C683 H687 0.950 . S
H684 C680 0.950 . S
C685 C683 1.393 . S
C685 C686 1.377 1_455 S
C685 H688 0.959 . S
C686 C685 1.377 1_655 S
C686 C689 1.387 . S
H687 C683 0.950 . S
H688 C685 0.959 . S
C689 C680 1.390 . S
C689 H682 0.950 . S
C689 C686 1.387 . S
C690 C691 1.387 1_545 S
C690 H694 0.950 . S
C690 C699 1.390 . S
C691 C690 1.387 1_565 S
C691 C693 1.387 . S
H692 C699 0.950 . S
C693 C691 1.387 . S
C693 C695 1.390 . S
C693 H697 0.950 . S
H694 C690 0.950 . S
C695 C693 1.390 . S
C695 C696 1.387 . S
C695 H698 0.950 . S
C696 C695 1.387 . S
C696 C699 1.387 1_565 S
H697 C693 0.950 . S
H698 C695 0.950 . S
C699 C690 1.390 . S
C699 H692 0.950 . S
C699 C696 1.387 1_545 S
C700 C701 1.387 . S
C700 H704 0.950 . S
C700 C709 1.390 . S
C701 C700 1.387 . S
C701 C703 1.387 . S
H702 C709 0.950 . S
C703 C701 1.387 . S
C703 C705 1.390 . S
C703 H707 0.950 . S
H704 C700 0.950 . S
C705 C703 1.390 . S
C705 C706 1.387 . S
C705 H708 0.950 . S
C706 C705 1.387 . S
C706 C709 1.387 . S
H707 C703 0.950 . S
H708 C705 0.950 . S
C709 C700 1.390 . S
C709 H702 0.950 . S
C709 C706 1.387 . S
C710 C711 1.387 . S
C710 H714 0.950 . S
C710 C719 1.390 . S
C711 C710 1.387 . S
C711 C713 1.387 . S
H712 C719 0.950 . S
C713 C711 1.387 . S
C713 C715 1.390 . S
C713 H717 0.950 . S
H714 C710 0.950 . S
C715 C713 1.390 . S
C715 C716 1.387 . S
C715 H718 0.950 . S
C716 C715 1.387 . S
C716 C719 1.387 . S
H717 C713 0.950 . S
H718 C715 0.950 . S
C719 C710 1.390 . S
C719 H712 0.950 . S
C719 C716 1.387 . S
C481 C255 2.634 . S
C486 C329 2.978 1_545 S
C496 C369 2.993 . S
C491 C295 2.648 . S
C506 C409 2.997 . S
C501 C175 2.655 . S
C516 C449 2.982 1_455 S
C511 C215 2.638 . S
C526 C338 2.978 1_565 S
C521 C95 2.633 1_565 S
C531 C135 2.651 . S
C536 C378 2.995 . S
C541 C15 2.653 . S
C546 C418 2.994 . S
C551 C55 2.636 1_655 S
C556 C458 2.980 1_655 S
C566 C335 0.808 . S
C561 C221 0.825 1_655 S
C576 C375 0.807 . S
C571 C261 0.826 1_565 S
C586 C415 0.781 . S
C581 C301 0.792 . S
C591 C181 0.797 . S
C596 C455 0.786 . S
C601 C61 0.789 . S
C606 C326 0.812 . S
C616 C366 0.815 . S
C611 C101 0.796 . S
C626 C406 0.779 . S
C621 C141 0.770 . S
C631 C21 0.772 . S
C636 C446 0.785 . S
C641 C202 3.617 . S
C646 C339 4.090 . S
C651 C242 3.596 . S
C656 C379 4.074 . S
C666 C419 4.070 . S
C661 C282 3.585 . S
C676 C459 4.091 . S
C671 C162 3.605 . S
C681 C42 3.643 1_655 S
C686 C330 4.099 . S
C696 C370 4.075 . S
C691 C82 3.621 1_565 S
C706 C410 4.069 . S
C701 C122 3.621 . S
C711 C2 3.645 . S
C716 C450 4.095 . S
