# Generated by pormake.
# Topology ocu, (6,8)-cn, num edge types: 1
# Building blocks:
#     Node 0, Type 0, BuildingBlock: KUMJIN_clean_sbu_0, # of connection points: 6
#     Node 1, Type 0, BuildingBlock: KUMJIN_clean_sbu_0, # of connection points: 6
#     Node 2, Type 0, BuildingBlock: KUMJIN_clean_sbu_0, # of connection points: 6
#     Node 3, Type 0, BuildingBlock: KUMJIN_clean_sbu_0, # of connection points: 6
#     Node 4, Type 0, BuildingBlock: KUMJIN_clean_sbu_0, # of connection points: 6
#     Node 5, Type 0, BuildingBlock: KUMJIN_clean_sbu_0, # of connection points: 6
#     Node 6, Type 0, BuildingBlock: KUMJIN_clean_sbu_0, # of connection points: 6
#     Node 7, Type 0, BuildingBlock: KUMJIN_clean_sbu_0, # of connection points: 6
#     Node 8, Type 1, BuildingBlock: GIZVER_clean_sbu_0, # of connection points: 8
#     Node 9, Type 1, BuildingBlock: GIZVER_clean_sbu_0, # of connection points: 8
#     Node 10, Type 1, BuildingBlock: GIZVER_clean_sbu_0, # of connection points: 8
#     Node 11, Type 1, BuildingBlock: GIZVER_clean_sbu_0, # of connection points: 8
#     Node 12, Type 1, BuildingBlock: GIZVER_clean_sbu_0, # of connection points: 8
#     Node 13, Type 1, BuildingBlock: GIZVER_clean_sbu_0, # of connection points: 8
#     Edge 14, Type (0, 1), BuildingBlock: KIFKEQ_clean_linker_1, # of connection points: 2
#     Edge 15, Type (0, 1), BuildingBlock: KIFKEQ_clean_linker_1, # of connection points: 2
#     Edge 16, Type (0, 1), BuildingBlock: KIFKEQ_clean_linker_1, # of connection points: 2
#     Edge 17, Type (0, 1), BuildingBlock: KIFKEQ_clean_linker_1, # of connection points: 2
#     Edge 18, Type (0, 1), BuildingBlock: KIFKEQ_clean_linker_1, # of connection points: 2
#     Edge 19, Type (0, 1), BuildingBlock: KIFKEQ_clean_linker_1, # of connection points: 2
#     Edge 20, Type (0, 1), BuildingBlock: KIFKEQ_clean_linker_1, # of connection points: 2
#     Edge 21, Type (0, 1), BuildingBlock: KIFKEQ_clean_linker_1, # of connection points: 2
#     Edge 22, Type (0, 1), BuildingBlock: KIFKEQ_clean_linker_1, # of connection points: 2
#     Edge 23, Type (0, 1), BuildingBlock: KIFKEQ_clean_linker_1, # of connection points: 2
#     Edge 24, Type (0, 1), BuildingBlock: KIFKEQ_clean_linker_1, # of connection points: 2
#     Edge 25, Type (0, 1), BuildingBlock: KIFKEQ_clean_linker_1, # of connection points: 2
#     Edge 26, Type (0, 1), BuildingBlock: KIFKEQ_clean_linker_1, # of connection points: 2
#     Edge 27, Type (0, 1), BuildingBlock: KIFKEQ_clean_linker_1, # of connection points: 2
#     Edge 28, Type (0, 1), BuildingBlock: KIFKEQ_clean_linker_1, # of connection points: 2
#     Edge 29, Type (0, 1), BuildingBlock: KIFKEQ_clean_linker_1, # of connection points: 2
#     Edge 30, Type (0, 1), BuildingBlock: KIFKEQ_clean_linker_1, # of connection points: 2
#     Edge 31, Type (0, 1), BuildingBlock: KIFKEQ_clean_linker_1, # of connection points: 2
#     Edge 32, Type (0, 1), BuildingBlock: KIFKEQ_clean_linker_1, # of connection points: 2
#     Edge 33, Type (0, 1), BuildingBlock: KIFKEQ_clean_linker_1, # of connection points: 2
#     Edge 34, Type (0, 1), BuildingBlock: KIFKEQ_clean_linker_1, # of connection points: 2
#     Edge 35, Type (0, 1), BuildingBlock: KIFKEQ_clean_linker_1, # of connection points: 2
#     Edge 36, Type (0, 1), BuildingBlock: KIFKEQ_clean_linker_1, # of connection points: 2
#     Edge 37, Type (0, 1), BuildingBlock: KIFKEQ_clean_linker_1, # of connection points: 2
#     Edge 38, Type (0, 1), BuildingBlock: KIFKEQ_clean_linker_1, # of connection points: 2
#     Edge 39, Type (0, 1), BuildingBlock: KIFKEQ_clean_linker_1, # of connection points: 2
#     Edge 40, Type (0, 1), BuildingBlock: KIFKEQ_clean_linker_1, # of connection points: 2
#     Edge 41, Type (0, 1), BuildingBlock: KIFKEQ_clean_linker_1, # of connection points: 2
#     Edge 42, Type (0, 1), BuildingBlock: KIFKEQ_clean_linker_1, # of connection points: 2
#     Edge 43, Type (0, 1), BuildingBlock: KIFKEQ_clean_linker_1, # of connection points: 2
#     Edge 44, Type (0, 1), BuildingBlock: KIFKEQ_clean_linker_1, # of connection points: 2
#     Edge 45, Type (0, 1), BuildingBlock: KIFKEQ_clean_linker_1, # of connection points: 2
#     Edge 46, Type (0, 1), BuildingBlock: KIFKEQ_clean_linker_1, # of connection points: 2
#     Edge 47, Type (0, 1), BuildingBlock: KIFKEQ_clean_linker_1, # of connection points: 2
#     Edge 48, Type (0, 1), BuildingBlock: KIFKEQ_clean_linker_1, # of connection points: 2
#     Edge 49, Type (0, 1), BuildingBlock: KIFKEQ_clean_linker_1, # of connection points: 2
#     Edge 50, Type (0, 1), BuildingBlock: KIFKEQ_clean_linker_1, # of connection points: 2
#     Edge 51, Type (0, 1), BuildingBlock: KIFKEQ_clean_linker_1, # of connection points: 2
#     Edge 52, Type (0, 1), BuildingBlock: KIFKEQ_clean_linker_1, # of connection points: 2
#     Edge 53, Type (0, 1), BuildingBlock: KIFKEQ_clean_linker_1, # of connection points: 2
#     Edge 54, Type (0, 1), BuildingBlock: KIFKEQ_clean_linker_1, # of connection points: 2
#     Edge 55, Type (0, 1), BuildingBlock: KIFKEQ_clean_linker_1, # of connection points: 2
#     Edge 56, Type (0, 1), BuildingBlock: KIFKEQ_clean_linker_1, # of connection points: 2
#     Edge 57, Type (0, 1), BuildingBlock: KIFKEQ_clean_linker_1, # of connection points: 2
#     Edge 58, Type (0, 1), BuildingBlock: KIFKEQ_clean_linker_1, # of connection points: 2
#     Edge 59, Type (0, 1), BuildingBlock: KIFKEQ_clean_linker_1, # of connection points: 2
#     Edge 60, Type (0, 1), BuildingBlock: KIFKEQ_clean_linker_1, # of connection points: 2
#     Edge 61, Type (0, 1), BuildingBlock: KIFKEQ_clean_linker_1, # of connection points: 2
# Relax obj value: 0.166
# Max RMSD: 0.298
# Mean RMSD: 0.214
data_MOF--net-ocu--node1-KUMJIN_clean_sbu_0--node2-GIZVER_clean_sbu_0--edge1-KIFKEQ_clean_linker_1
_symmetry_space_group_name_H-M    P1
_symmetry_Int_Tables_number       1
_symmetry_cell_setting            triclinic
loop_
_symmetry_equiv_pos_as_xyz
'x, y, z'
_cell_length_a     43.717459
_cell_length_b     45.503641
_cell_length_c     35.395177
_cell_angle_alpha  78.369123
_cell_angle_beta   100.79227
_cell_angle_gamma 112.21661
loop_
_atom_site_label
_atom_site_type_symbol
_atom_site_fract_x
_atom_site_fract_y
_atom_site_fract_z
_atom_type_partial_charge
Eu0 Eu 0.26687 0.23964 0.21423 0.0
C1 C 0.35121 0.28458 0.35245 0.0
C2 C 0.33765 0.2351 0.39756 0.0
C3 C 0.39437 0.2731 0.40085 0.0
C4 C 0.32812 0.2555 0.3657 0.0
C5 C 0.38442 0.2941 0.37073 0.0
C6 C 0.371 0.24366 0.4143 0.0
C7 C 0.39455 0.34614 0.33203 0.0
N8 N 0.34073 0.30459 0.32374 0.0
C9 C 0.36138 0.33578 0.31524 0.0
C10 C 0.40634 0.32499 0.35933 0.0
Eu11 Eu 0.28457 0.28406 0.29364 0.0
N12 N 0.29604 0.24778 0.34876 0.0
C13 C 0.27195 0.22106 0.36454 0.0
C14 C 0.31329 0.20697 0.41222 0.0
C15 C 0.28023 0.20021 0.39599 0.0
H16 H 0.35238 0.3529 0.29523 0.0
H17 H 0.261 0.17891 0.40775 0.0
H18 H 0.3788 0.22805 0.43833 0.0
H19 H 0.41087 0.37057 0.32422 0.0
H20 H 0.24611 0.21527 0.35348 0.0
H21 H 0.28083 0.34469 0.10194 0.0
H22 H 0.31961 0.19074 0.4366 0.0
H23 H 0.20855 0.16591 0.21061 0.0
H24 H 0.29928 0.31079 0.15742 0.0
H25 H 0.15208 0.14064 0.17752 0.0
H26 H 0.41983 0.27986 0.41482 0.0
H27 H 0.22263 0.32609 0.0706 0.0
H28 H 0.16666 0.28227 0.06594 0.0
H29 H 0.43198 0.33316 0.37265 0.0
H30 H 0.1313 0.22673 0.08699 0.0
N31 N 0.25182 0.27348 0.15925 0.0
C32 C 0.2738 0.30226 0.14457 0.0
C33 C 0.23058 0.31107 0.09526 0.0
C34 C 0.20872 0.28075 0.10882 0.0
C35 C 0.26344 0.32162 0.11281 0.0
C36 C 0.2203 0.26214 0.1411 0.0
H37 H 0.12584 0.17358 0.12805 0.0
N38 N 0.21326 0.21306 0.18215 0.0
C39 C 0.16517 0.16616 0.17067 0.0
C40 C 0.20031 0.23103 0.15313 0.0
C41 C 0.19708 0.18058 0.18941 0.0
C42 C 0.15044 0.18485 0.14285 0.0
C43 C 0.16835 0.21752 0.13298 0.0
O44 O 0.27226 0.19718 0.20038 0.0
O45 O 0.2999 0.24777 0.27225 0.0
O46 O 0.32165 0.31459 0.25179 0.0
O47 O 0.3185 0.27735 0.2139 0.0
O48 O 0.27306 0.20069 0.26276 0.0
O49 O 0.29671 0.24346 0.16879 0.0
O50 O 0.29237 0.32542 0.32206 0.0
O51 O 0.2517 0.27616 0.23558 0.0
O52 O 0.22384 0.21288 0.24908 0.0
O53 O 0.23327 0.24547 0.29606 0.0
O54 O 0.27631 0.32305 0.24624 0.0
O55 O 0.2473 0.28453 0.32694 0.0
C56 C 0.29572 0.21821 0.28622 0.0
C57 C 0.28363 0.19789 0.13733 0.0
C58 C 0.2983 0.1686 0.09661 0.0
C59 C 0.3056 0.18436 0.12952 0.0
C60 C 0.26882 0.16693 0.07156 0.0
C61 C 0.25462 0.19617 0.11163 0.0
C62 C 0.24732 0.18077 0.07895 0.0
C63 C 0.33333 0.30533 0.22645 0.0
C64 C 0.29085 0.21279 0.17295 0.0
C65 C 0.15596 0.23657 0.10243 0.0
C66 C 0.17611 0.26816 0.09039 0.0
C67 C 0.25455 0.30554 0.22202 0.0
C68 C 0.26573 0.31583 0.37823 0.0
C69 C 0.24818 0.33318 0.38787 0.0
C70 C 0.24802 0.33547 0.42708 0.0
C71 C 0.26599 0.32033 0.45632 0.0
C72 C 0.28355 0.30114 0.40796 0.0
C73 C 0.28368 0.30345 0.44675 0.0
C74 C 0.2153 0.22004 0.27883 0.0
C75 C 0.26456 0.31261 0.33721 0.0
H76 H 0.32801 0.18557 0.14942 0.0
H77 H 0.26262 0.1553 0.04587 0.0
H78 H 0.23757 0.20658 0.11689 0.0
H79 H 0.22483 0.1795 0.05926 0.0
H80 H 0.23413 0.34429 0.36493 0.0
H81 H 0.26668 0.32183 0.48666 0.0
H82 H 0.29725 0.28782 0.40122 0.0
H83 H 0.29752 0.29204 0.46953 0.0
Eu84 Eu 0.7963 0.24719 0.25645 0.0
C85 C 0.68498 0.26796 0.29575 0.0
C86 C 0.632 0.24466 0.25754 0.0
C87 C 0.6347 0.23998 0.32749 0.0
C88 C 0.66679 0.26107 0.2603 0.0
C89 C 0.66891 0.25806 0.32971 0.0
C90 C 0.61625 0.23334 0.29143 0.0
C91 C 0.72099 0.28629 0.36532 0.0
N92 N 0.71812 0.28517 0.29691 0.0
C93 C 0.73584 0.29549 0.33104 0.0
C94 C 0.68753 0.26701 0.36484 0.0
Eu95 Eu 0.74197 0.29449 0.23763 0.0
N96 N 0.68273 0.27208 0.22817 0.0
C97 C 0.66477 0.27102 0.19208 0.0
C98 C 0.61391 0.24102 0.22069 0.0
C99 C 0.63031 0.25493 0.18776 0.0
H100 H 0.7616 0.31056 0.33301 0.0
H101 H 0.61644 0.25332 0.15904 0.0
H102 H 0.58968 0.22021 0.28994 0.0
H103 H 0.73548 0.29406 0.39219 0.0
H104 H 0.67728 0.28211 0.16647 0.0
H105 H 0.89919 0.25414 0.37274 0.0
H106 H 0.58719 0.22859 0.21733 0.0
H107 H 0.79857 0.25173 0.1571 0.0
H108 H 0.84039 0.24037 0.34397 0.0
H109 H 0.84001 0.27157 0.11238 0.0
H110 H 0.62213 0.23175 0.35334 0.0
H111 H 0.94403 0.27982 0.3304 0.0
H112 H 0.96062 0.29922 0.26324 0.0
H113 H 0.67615 0.25983 0.39151 0.0
H114 H 0.9444 0.30421 0.1926 0.0
N115 N 0.85185 0.25768 0.28595 0.0
C116 C 0.85979 0.25091 0.32518 0.0
C117 C 0.91825 0.2735 0.31761 0.0
C118 C 0.90991 0.2789 0.27731 0.0
C119 C 0.89304 0.25891 0.34159 0.0
C120 C 0.87594 0.27014 0.26202 0.0
H121 H 0.89977 0.2935 0.1364 0.0
N122 N 0.83364 0.2622 0.2083 0.0
C123 C 0.84786 0.27208 0.14319 0.0
C124 C 0.86664 0.27254 0.22216 0.0
C125 C 0.8242 0.26061 0.16932 0.0
C126 C 0.88154 0.28452 0.15682 0.0
C127 C 0.89138 0.28428 0.19671 0.0
O128 O 0.75981 0.19861 0.25446 0.0
O129 O 0.7493 0.2495 0.2694 0.0
O130 O 0.7869 0.31696 0.27978 0.0
O131 O 0.82232 0.28752 0.29333 0.0
O132 O 0.78098 0.23844 0.31658 0.0
O133 O 0.81133 0.20526 0.27393 0.0
O134 O 0.76065 0.34513 0.24541 0.0
O135 O 0.78955 0.29245 0.22672 0.0
O136 O 0.76166 0.23509 0.2009 0.0
O137 O 0.71896 0.2543 0.20035 0.0
O138 O 0.76208 0.30771 0.17874 0.0
O139 O 0.72209 0.32849 0.19879 0.0
C140 C 0.75182 0.24047 0.30577 0.0
C141 C 0.77062 0.16246 0.30798 0.0
C142 C 0.78412 0.14243 0.37623 0.0
C143 C 0.79236 0.16497 0.34271 0.0
C144 C 0.75195 0.11877 0.37521 0.0
C145 C 0.73879 0.13874 0.30768 0.0
C146 C 0.72936 0.11738 0.34136 0.0
C147 C 0.81426 0.31185 0.29758 0.0
C148 C 0.7808 0.18504 0.27243 0.0
C149 C 0.92519 0.29474 0.2118 0.0
C150 C 0.93443 0.29194 0.252 0.0
C151 C 0.79035 0.30412 0.19132 0.0
C152 C 0.76701 0.37577 0.18259 0.0
C153 C 0.75386 0.37735 0.14326 0.0
C154 C 0.77455 0.39193 0.11356 0.0
C155 C 0.80882 0.40732 0.12401 0.0
C156 C 0.80138 0.39133 0.19239 0.0
C157 C 0.82199 0.40729 0.16321 0.0
C158 C 0.73159 0.23619 0.18796 0.0
C159 C 0.74561 0.35327 0.21179 0.0
H160 H 0.81612 0.18432 0.34324 0.0
H161 H 0.74439 0.10052 0.39988 0.0
H162 H 0.72124 0.13676 0.28143 0.0
H163 H 0.70477 0.09908 0.34094 0.0
H164 H 0.72721 0.36637 0.1359 0.0
H165 H 0.82552 0.41898 0.10206 0.0
H166 H 0.81252 0.3903 0.22243 0.0
H167 H 0.84847 0.41886 0.171 0.0
Eu168 Eu 0.75447 0.75187 0.29128 0.0
C169 C 0.83703 0.84639 0.16264 0.0
C170 C 0.79502 0.85873 0.11405 0.0
C171 C 0.85134 0.89763 0.12025 0.0
C172 C 0.80454 0.8379 0.14524 0.0
C173 C 0.86107 0.87596 0.14965 0.0
C174 C 0.81833 0.88901 0.10247 0.0
C175 C 0.90312 0.85886 0.19225 0.0
N176 N 0.84567 0.82458 0.19029 0.0
C177 C 0.87839 0.82976 0.20388 0.0
C178 C 0.89437 0.88231 0.16546 0.0
Eu179 Eu 0.80243 0.77644 0.2105 0.0
N180 N 0.78295 0.80821 0.15661 0.0
C181 C 0.75237 0.79676 0.13561 0.0
C182 C 0.76284 0.84791 0.09433 0.0
C183 C 0.74164 0.81656 0.1047 0.0
H184 H 0.88547 0.81172 0.22445 0.0
H185 H 0.717 0.8076 0.08895 0.0
H186 H 0.81139 0.90547 0.07887 0.0
H187 H 0.92891 0.86314 0.20387 0.0
H188 H 0.73567 0.77258 0.14305 0.0
H189 H 0.8421 0.72777 0.41476 0.0
H190 H 0.75455 0.86315 0.07022 0.0
H191 H 0.67318 0.71016 0.27147 0.0
H192 H 0.82207 0.76008 0.35844 0.0
H193 H 0.63185 0.65744 0.29296 0.0
H194 H 0.86935 0.9206 0.11017 0.0
H195 H 0.80639 0.67199 0.43592 0.0
H196 H 0.75101 0.62751 0.42826 0.0
H197 H 0.91359 0.90472 0.15625 0.0
H198 H 0.6937 0.60846 0.39537 0.0
N199 N 0.77572 0.72273 0.3464 0.0
C200 C 0.80611 0.73579 0.36705 0.0
C201 C 0.79745 0.68606 0.41097 0.0
C202 C 0.76552 0.67348 0.39121 0.0
C203 C 0.81763 0.71754 0.39917 0.0
C204 C 0.75514 0.69276 0.35879 0.0
H205 H 0.64892 0.61964 0.34537 0.0
N206 N 0.71331 0.70204 0.31085 0.0
C207 C 0.6574 0.66403 0.3065 0.0
C208 C 0.72289 0.68211 0.3405 0.0
C209 C 0.68085 0.69389 0.29446 0.0
C210 C 0.66715 0.64272 0.33601 0.0
C211 C 0.70013 0.65179 0.35377 0.0
O212 O 0.7159 0.76358 0.31033 0.0
O213 O 0.76322 0.78672 0.23483 0.0
O214 O 0.82447 0.81827 0.24426 0.0
O215 O 0.8036 0.79231 0.3029 0.0
O216 O 0.71458 0.76266 0.24517 0.0
O217 O 0.76669 0.78166 0.33716 0.0
O218 O 0.83567 0.7542 0.19866 0.0
O219 O 0.79375 0.74194 0.26733 0.0
O220 O 0.73741 0.70909 0.25845 0.0
O221 O 0.75135 0.73901 0.19932 0.0
O222 O 0.84231 0.76648 0.25718 0.0
O223 O 0.79196 0.75317 0.15878 0.0
C224 C 0.73305 0.7845 0.22139 0.0
C225 C 0.72475 0.77656 0.37443 0.0
C226 C 0.70544 0.79825 0.41998 0.0
C227 C 0.71598 0.80093 0.38354 0.0
C228 C 0.70423 0.77063 0.44711 0.0
C229 C 0.72327 0.74943 0.40203 0.0
C230 C 0.71313 0.74657 0.43817 0.0
C231 C 0.82346 0.81696 0.28162 0.0
C232 C 0.73633 0.7804 0.33648 0.0
C233 C 0.71075 0.63192 0.38493 0.0
C234 C 0.74339 0.64275 0.40362 0.0
C235 C 0.82397 0.74479 0.28125 0.0
C236 C 0.8373 0.75118 0.13322 0.0
C237 C 0.84277 0.72551 0.12242 0.0
C238 C 0.86087 0.73061 0.09103 0.0
C239 C 0.87346 0.76202 0.07104 0.0
C240 C 0.84987 0.78203 0.11253 0.0
C241 C 0.86788 0.78735 0.08165 0.0
C242 C 0.73625 0.71161 0.22041 0.0
C243 C 0.81846 0.74551 0.16608 0.0
H244 H 0.71775 0.82211 0.36227 0.0
H245 H 0.69572 0.76718 0.47505 0.0
H246 H 0.73006 0.73054 0.39571 0.0
H247 H 0.71196 0.72548 0.45933 0.0
H248 H 0.83263 0.70163 0.13824 0.0
H249 H 0.8882 0.76727 0.04748 0.0
H250 H 0.84582 0.80197 0.12026 0.0
H251 H 0.87774 0.8113 0.06597 0.0
Eu252 Eu 0.30148 0.73862 0.25655 0.0
C253 C 0.28519 0.85191 0.17257 0.0
C254 C 0.31639 0.89938 0.20334 0.0
C255 C 0.31417 0.90237 0.13373 0.0
C256 C 0.29679 0.86637 0.20583 0.0
C257 C 0.2934 0.87 0.13603 0.0
C258 C 0.32564 0.91704 0.16732 0.0
C259 C 0.25924 0.82316 0.1062 0.0
N260 N 0.26569 0.82033 0.17574 0.0
C261 C 0.25189 0.80617 0.14291 0.0
C262 C 0.28038 0.8551 0.10274 0.0
Eu263 Eu 0.25556 0.79305 0.23997 0.0
N264 N 0.28769 0.84869 0.24033 0.0
C265 C 0.29341 0.86376 0.27216 0.0
C266 C 0.32528 0.91395 0.23692 0.0
C267 C 0.31309 0.89619 0.27131 0.0
H268 H 0.23487 0.78189 0.14416 0.0
H269 H 0.31844 0.90756 0.29707 0.0
H270 H 0.34102 0.94224 0.16501 0.0
H271 H 0.24846 0.81155 0.08053 0.0
H272 H 0.28282 0.85086 0.29856 0.0
H273 H 0.21908 0.61565 0.2373 0.0
H274 H 0.34031 0.93918 0.2362 0.0
H275 H 0.35224 0.7597 0.34201 0.0
H276 H 0.25728 0.66986 0.21768 0.0
H277 H 0.35094 0.74337 0.41165 0.0
H278 H 0.32107 0.91642 0.10601 0.0
H279 H 0.21029 0.59688 0.30632 0.0
H280 H 0.22593 0.60728 0.37529 0.0
H281 H 0.28612 0.86816 0.07424 0.0
H282 H 0.26144 0.64248 0.4228 0.0
N283 N 0.26707 0.68408 0.27393 0.0
C284 C 0.25239 0.66305 0.2475 0.0
C285 C 0.22657 0.62119 0.29764 0.0
C286 C 0.24429 0.6416 0.32519 0.0
C287 C 0.23128 0.63176 0.25869 0.0
C288 C 0.26512 0.67317 0.31235 0.0
H289 H 0.30802 0.69314 0.43668 0.0
N290 N 0.30658 0.72236 0.3258 0.0
C291 C 0.33167 0.72933 0.39163 0.0
C292 C 0.28511 0.69302 0.33904 0.0
C293 C 0.3315 0.73914 0.35159 0.0
C294 C 0.30757 0.70091 0.40563 0.0
C295 C 0.28469 0.68175 0.3793 0.0
O296 O 0.35108 0.7356 0.27444 0.0
O297 O 0.30311 0.78851 0.23126 0.0
O298 O 0.22571 0.7514 0.20542 0.0
O299 O 0.26099 0.72346 0.20633 0.0
O300 O 0.31661 0.76436 0.1975 0.0
O301 O 0.32095 0.71482 0.2242 0.0
O302 O 0.20813 0.7962 0.20979 0.0
O303 O 0.25339 0.74267 0.26406 0.0
O304 O 0.3317 0.78425 0.28524 0.0
O305 O 0.29156 0.80311 0.29436 0.0
O306 O 0.23985 0.76651 0.29841 0.0
O307 O 0.22525 0.80927 0.26743 0.0
C308 C 0.31408 0.79124 0.19957 0.0
C309 C 0.35732 0.68938 0.26003 0.0
C310 C 0.37828 0.65092 0.24416 0.0
C311 C 0.37042 0.6791 0.23379 0.0
C312 C 0.37295 0.6334 0.28147 0.0
C313 C 0.35193 0.67127 0.29684 0.0
C314 C 0.35985 0.64351 0.30745 0.0
C315 C 0.23327 0.72948 0.19319 0.0
C316 C 0.34825 0.71829 0.24786 0.0
C317 C 0.26244 0.65122 0.39206 0.0
C318 C 0.2423 0.63115 0.36504 0.0
C319 C 0.24247 0.7397 0.2959 0.0
C320 C 0.19771 0.84029 0.22434 0.0
C321 C 0.18602 0.85197 0.25044 0.0
C322 C 0.18174 0.8819 0.24074 0.0
C323 C 0.18935 0.89997 0.20426 0.0
C324 C 0.20523 0.85884 0.18815 0.0
C325 C 0.201 0.88846 0.17826 0.0
C326 C 0.32156 0.80159 0.30285 0.0
C327 C 0.20396 0.80984 0.23656 0.0
H328 H 0.37385 0.69278 0.20507 0.0
H329 H 0.37926 0.612 0.29084 0.0
H330 H 0.34155 0.6785 0.31732 0.0
H331 H 0.35581 0.62974 0.33599 0.0
H332 H 0.181 0.83797 0.27872 0.0
H333 H 0.18587 0.92283 0.19554 0.0
H334 H 0.21464 0.85065 0.16763 0.0
H335 H 0.20681 0.90261 0.1503 0.0
Eu336 Eu 0.31607 0.73307 0.76874 0.0
C337 C 0.1869 0.74437 0.78105 0.0
C338 C 0.14514 0.73303 0.72487 0.0
C339 C 0.12824 0.71714 0.78968 0.0
C340 C 0.17872 0.74526 0.74116 0.0
C341 C 0.16151 0.73087 0.80563 0.0
C342 C 0.12007 0.71826 0.74938 0.0
C343 C 0.20327 0.74714 0.85988 0.0
N344 N 0.21939 0.75761 0.79572 0.0
C345 C 0.22765 0.75993 0.83458 0.0
C346 C 0.17015 0.73208 0.84548 0.0
Eu347 Eu 0.25858 0.77665 0.74967 0.0
N348 N 0.2034 0.75954 0.71811 0.0
C349 C 0.19606 0.76502 0.6786 0.0
C350 C 0.13763 0.73681 0.68436 0.0
C351 C 0.16318 0.75337 0.66114 0.0
H352 H 0.25288 0.77105 0.84704 0.0
H353 H 0.15759 0.75702 0.62982 0.0
H354 H 0.09419 0.70834 0.73742 0.0
H355 H 0.21015 0.74861 0.89064 0.0
H356 H 0.2158 0.77743 0.6605 0.0
H357 H 0.4305 0.82164 0.71563 0.0
H358 H 0.11215 0.72777 0.67078 0.0
H359 H 0.28445 0.65393 0.76151 0.0
H360 H 0.38551 0.79901 0.75683 0.0
H361 H 0.28777 0.61713 0.72163 0.0
H362 H 0.10855 0.70627 0.80821 0.0
H363 H 0.43431 0.79042 0.66816 0.0
H364 H 0.4126 0.7386 0.64042 0.0
H365 H 0.15139 0.72195 0.86527 0.0
H366 H 0.37369 0.68274 0.64216 0.0
N367 N 0.36264 0.75529 0.73264 0.0
C368 C 0.38644 0.78485 0.73644 0.0
C369 C 0.41429 0.78027 0.68625 0.0
C370 C 0.39107 0.7493 0.68406 0.0
C371 C 0.41228 0.79789 0.71307 0.0
C372 C 0.36544 0.73729 0.70823 0.0
H373 H 0.32738 0.63709 0.67277 0.0
N374 N 0.32104 0.69513 0.73477 0.0
C375 C 0.3036 0.64215 0.71769 0.0
C376 C 0.3439 0.70607 0.70935 0.0
C377 C 0.30178 0.66326 0.74024 0.0
C378 C 0.32593 0.6535 0.6901 0.0
C379 C 0.34688 0.6857 0.68612 0.0
O380 O 0.31729 0.69901 0.8218 0.0
O381 O 0.2714 0.73716 0.78798 0.0
O382 O 0.29272 0.78787 0.8061 0.0
O383 O 0.3377 0.78212 0.78837 0.0
O384 O 0.26959 0.69148 0.78499 0.0
O385 O 0.36037 0.74111 0.81202 0.0
O386 O 0.28918 0.82654 0.75565 0.0
O387 O 0.30694 0.77717 0.73756 0.0
O388 O 0.28222 0.71713 0.71383 0.0
O389 O 0.23831 0.73477 0.71417 0.0
O390 O 0.27711 0.78947 0.69021 0.0
O391 O 0.23791 0.81499 0.73183 0.0
C392 C 0.25343 0.70758 0.79246 0.0
C393 C 0.34488 0.72594 0.87531 0.0
C394 C 0.36809 0.72946 0.94303 0.0
C395 C 0.36928 0.72328 0.906 0.0
C396 C 0.34297 0.73964 0.94867 0.0
C397 C 0.31953 0.73566 0.88152 0.0
C398 C 0.31896 0.74307 0.91775 0.0
C399 C 0.32499 0.79329 0.81073 0.0
C400 C 0.34539 0.71759 0.83737 0.0
C401 C 0.37121 0.6979 0.6605 0.0
C402 C 0.39331 0.72969 0.6595 0.0
C403 C 0.3059 0.78675 0.70137 0.0
C404 C 0.27735 0.86257 0.70332 0.0
C405 C 0.26159 0.85756 0.66563 0.0
C406 C 0.27031 0.88181 0.63373 0.0
C407 C 0.29755 0.91023 0.63993 0.0
C408 C 0.30427 0.89101 0.70883 0.0
C409 C 0.31464 0.91447 0.67712 0.0
C410 C 0.25157 0.71709 0.7017 0.0
C411 C 0.26669 0.83773 0.73678 0.0
H412 H 0.38806 0.71454 0.9016 0.0
H413 H 0.34139 0.74395 0.97713 0.0
H414 H 0.29997 0.73723 0.85854 0.0
H415 H 0.29929 0.75056 0.92213 0.0
H416 H 0.24188 0.83495 0.66139 0.0
H417 H 0.30492 0.92989 0.61661 0.0
H418 H 0.31729 0.895 0.73761 0.0
H419 H 0.33538 0.93646 0.68154 0.0
Eu420 Eu 0.26416 0.25381 0.78976 0.0
C421 C 0.31187 0.33222 0.64805 0.0
C422 C 0.26023 0.32104 0.60453 0.0
C423 C 0.30197 0.37456 0.59868 0.0
C424 C 0.2808 0.31098 0.63622 0.0
C425 C 0.32314 0.36403 0.62857 0.0
C426 C 0.27059 0.35308 0.58661 0.0
C427 C 0.37709 0.37159 0.66563 0.0
N428 N 0.33206 0.32121 0.67649 0.0
C429 C 0.36496 0.33984 0.68368 0.0
C430 C 0.35589 0.38397 0.63852 0.0
Eu431 Eu 0.30838 0.26773 0.70866 0.0
N432 N 0.27138 0.2801 0.65417 0.0
C433 C 0.24309 0.25761 0.63913 0.0
C434 C 0.23018 0.29845 0.59111 0.0
C435 C 0.22191 0.26648 0.60804 0.0
H436 H 0.38207 0.33029 0.70359 0.0
H437 H 0.1993 0.24853 0.59694 0.0
H438 H 0.25489 0.36125 0.56267 0.0
H439 H 0.40289 0.38636 0.67235 0.0
H440 H 0.23654 0.23262 0.65016 0.0
H441 H 0.37367 0.27882 0.90022 0.0
H442 H 0.21375 0.30524 0.56693 0.0
H443 H 0.19211 0.1894 0.7975 0.0
H444 H 0.33428 0.2921 0.84738 0.0
H445 H 0.17364 0.13363 0.8301 0.0
H446 H 0.31008 0.39898 0.58378 0.0
H447 H 0.36244 0.22257 0.93109 0.0
H448 H 0.32354 0.16541 0.93674 0.0
H449 H 0.36544 0.4085 0.62424 0.0
H450 H 0.26911 0.12567 0.91719 0.0
N451 N 0.30198 0.24371 0.84448 0.0
C452 C 0.32941 0.26735 0.85883 0.0
C453 C 0.3452 0.22824 0.90711 0.0
C454 C 0.3158 0.20444 0.89448 0.0
C455 C 0.35168 0.25995 0.88968 0.0
C456 C 0.29419 0.2131 0.86301 0.0
H457 H 0.21295 0.11369 0.87791 0.0
N458 N 0.24259 0.20059 0.82367 0.0
C459 C 0.19921 0.14926 0.83614 0.0
C460 C 0.26369 0.19077 0.85197 0.0
C461 C 0.21 0.18088 0.81734 0.0
C462 C 0.22144 0.13811 0.86308 0.0
C463 C 0.25385 0.15915 0.87214 0.0
O464 O 0.22344 0.24893 0.82137 0.0
O465 O 0.27139 0.28375 0.72991 0.0
O466 O 0.34192 0.30325 0.74858 0.0
O467 O 0.30399 0.30335 0.78618 0.0
O468 O 0.22285 0.25983 0.74311 0.0
O469 O 0.26547 0.29304 0.8178 0.0
O470 O 0.34573 0.27349 0.67123 0.0
O471 O 0.30089 0.2376 0.76836 0.0
O472 O 0.23086 0.21721 0.75113 0.0
O473 O 0.26669 0.21961 0.70891 0.0
O474 O 0.3495 0.26091 0.75552 0.0
O475 O 0.30906 0.22705 0.68522 0.0
C476 C 0.24069 0.28035 0.71749 0.0
C477 C 0.23558 0.28107 0.8714 0.0
C478 C 0.22059 0.30762 0.91536 0.0
C479 C 0.22275 0.30368 0.87743 0.0
C480 C 0.23195 0.28851 0.94708 0.0
C481 C 0.24688 0.26257 0.90348 0.0
C482 C 0.24506 0.26635 0.9411 0.0
C483 C 0.3332 0.31602 0.77309 0.0
C484 C 0.23718 0.27749 0.8314 0.0
C485 C 0.27608 0.14994 0.9018 0.0
C486 C 0.30702 0.17257 0.91298 0.0
C487 C 0.33143 0.24053 0.7811 0.0
C488 C 0.33003 0.23696 0.62541 0.0
C489 C 0.34459 0.21633 0.61756 0.0
C490 C 0.33958 0.20798 0.57994 0.0
C491 C 0.31977 0.22068 0.55033 0.0
C492 C 0.31078 0.24966 0.59522 0.0
C493 C 0.30567 0.24148 0.55795 0.0
C494 C 0.23845 0.20595 0.72413 0.0
C495 C 0.33387 0.24368 0.66554 0.0
H496 H 0.21469 0.3183 0.85241 0.0
H497 H 0.23014 0.29014 0.97663 0.0
H498 H 0.25697 0.2452 0.89942 0.0
H499 H 0.2536 0.25183 0.9658 0.0
H500 H 0.35933 0.20633 0.6409 0.0
H501 H 0.31567 0.21497 0.5211 0.0
H502 H 0.29958 0.26573 0.60046 0.0
H503 H 0.29066 0.2513 0.53486 0.0
Eu504 Eu 0.80555 0.22897 0.75827 0.0
C505 C 0.77685 0.32812 0.65631 0.0
C506 C 0.8175 0.37976 0.6697 0.0
C507 C 0.79961 0.36957 0.60301 0.0
C508 C 0.7967 0.34825 0.68283 0.0
C509 C 0.77746 0.33906 0.61599 0.0
C510 C 0.81955 0.38991 0.62982 0.0
C511 C 0.73089 0.29112 0.60387 0.0
N512 N 0.75542 0.29878 0.66972 0.0
C513 C 0.73083 0.28164 0.64393 0.0
C514 C 0.75489 0.31957 0.58978 0.0
Eu515 Eu 0.75971 0.28343 0.73909 0.0
N516 N 0.79468 0.33767 0.72132 0.0
C517 C 0.80932 0.35898 0.74745 0.0
C518 C 0.83513 0.40044 0.69697 0.0
C519 C 0.83041 0.3902 0.73595 0.0
H520 H 0.71008 0.26108 0.65349 0.0
H521 H 0.84255 0.40652 0.75711 0.0
H522 H 0.83588 0.41375 0.61937 0.0
H523 H 0.71186 0.27682 0.58389 0.0
H524 H 0.80434 0.35253 0.77724 0.0
H525 H 0.74495 0.11409 0.70167 0.0
H526 H 0.85138 0.42472 0.68806 0.0
H527 H 0.82439 0.24047 0.85401 0.0
H528 H 0.78014 0.17092 0.7003 0.0
H529 H 0.81005 0.21089 0.91742 0.0
H530 H 0.80074 0.37806 0.57223 0.0
H531 H 0.72203 0.08257 0.76205 0.0
H532 H 0.71994 0.0797 0.83287 0.0
H533 H 0.7546 0.32709 0.55869 0.0
H534 H 0.73863 0.10573 0.89171 0.0
N535 N 0.77393 0.17322 0.75794 0.0
C536 C 0.76907 0.15804 0.72642 0.0
C537 C 0.73685 0.10785 0.76135 0.0
C538 C 0.74491 0.12255 0.79474 0.0
C539 C 0.74963 0.12554 0.72723 0.0
C540 C 0.76424 0.15562 0.79227 0.0
H541 H 0.77271 0.15417 0.92354 0.0
N542 N 0.79436 0.20186 0.82232 0.0
C543 C 0.79976 0.19919 0.89176 0.0
C544 C 0.77508 0.17021 0.82544 0.0
C545 C 0.80753 0.21613 0.85515 0.0
C546 C 0.7788 0.16718 0.89512 0.0
C547 C 0.76642 0.15218 0.86187 0.0
O548 O 0.85276 0.22662 0.79012 0.0
O549 O 0.80825 0.27943 0.7332 0.0
O550 O 0.72959 0.23719 0.71146 0.0
O551 O 0.77005 0.21831 0.70352 0.0
O552 O 0.82234 0.25502 0.70008 0.0
O553 O 0.83686 0.21245 0.73289 0.0
O554 O 0.71105 0.28822 0.71883 0.0
O555 O 0.75775 0.23371 0.76564 0.0
O556 O 0.83455 0.27067 0.79283 0.0
O557 O 0.79911 0.29876 0.79011 0.0
O558 O 0.74314 0.2582 0.79775 0.0
O559 O 0.7398 0.30733 0.77066 0.0
C560 C 0.81974 0.28199 0.70186 0.0
C561 C 0.86412 0.18229 0.77808 0.0
C562 C 0.88087 0.14035 0.76415 0.0
C563 C 0.87627 0.17006 0.75307 0.0
C564 C 0.87308 0.123 0.8009 0.0
C565 C 0.85644 0.16451 0.8146 0.0
C566 C 0.86096 0.13506 0.82585 0.0
C567 C 0.73991 0.21948 0.69466 0.0
C568 C 0.85767 0.21251 0.76437 0.0
C569 C 0.74588 0.11974 0.86409 0.0
C570 C 0.73514 0.10495 0.83059 0.0
C571 C 0.74621 0.23132 0.79684 0.0
C572 C 0.70624 0.33513 0.73333 0.0
C573 C 0.69396 0.34624 0.75949 0.0
C574 C 0.68804 0.37542 0.74943 0.0
C575 C 0.69463 0.39323 0.71254 0.0
C576 C 0.71282 0.35344 0.69686 0.0
C577 C 0.70694 0.38229 0.68657 0.0
C578 C 0.82661 0.29264 0.80432 0.0
C579 C 0.71353 0.30527 0.74556 0.0
H580 H 0.88141 0.18347 0.72454 0.0
H581 H 0.87675 0.1003 0.81061 0.0
H582 H 0.8467 0.17314 0.83433 0.0
H583 H 0.85501 0.12149 0.85404 0.0
H584 H 0.68964 0.33237 0.78797 0.0
H585 H 0.68987 0.41546 0.70347 0.0
H586 H 0.72261 0.34557 0.67641 0.0
H587 H 0.71194 0.39625 0.65833 0.0
Eu588 Eu 0.77385 0.73621 0.71 0.0
C589 C 0.85953 0.79065 0.85074 0.0
C590 C 0.8537 0.74138 0.89526 0.0
C591 C 0.9052 0.78713 0.90053 0.0
C592 C 0.84082 0.75917 0.86317 0.0
C593 C 0.89147 0.80535 0.87027 0.0
C594 C 0.88634 0.75518 0.913 0.0
C595 C 0.8918 0.85606 0.83287 0.0
N596 N 0.84522 0.80782 0.82216 0.0
C597 C 0.85994 0.84049 0.8148 0.0
C598 C 0.90794 0.8383 0.86018 0.0
Eu599 Eu 0.79177 0.77943 0.79125 0.0
N600 N 0.80916 0.7467 0.84582 0.0
C601 C 0.78828 0.71749 0.86116 0.0
C602 C 0.83299 0.71069 0.90948 0.0
C603 C 0.79996 0.69895 0.89279 0.0
H604 H 0.84742 0.85439 0.79384 0.0
H605 H 0.78347 0.67553 0.90414 0.0
H606 H 0.89676 0.74172 0.93732 0.0
H607 H 0.90378 0.88176 0.82587 0.0
H608 H 0.76274 0.70786 0.84876 0.0
H609 H 0.79678 0.84415 0.60033 0.0
H610 H 0.84195 0.69628 0.93401 0.0
H611 H 0.70836 0.66626 0.7052 0.0
H612 H 0.81153 0.80769 0.65477 0.0
H613 H 0.65091 0.64682 0.67289 0.0
H614 H 0.92986 0.7979 0.91549 0.0
H615 H 0.73888 0.83045 0.56827 0.0
H616 H 0.68062 0.79098 0.56275 0.0
H617 H 0.93248 0.85046 0.87449 0.0
H618 H 0.64061 0.73758 0.58327 0.0
N619 N 0.76227 0.77297 0.65564 0.0
C620 C 0.78607 0.8009 0.64185 0.0
C621 C 0.74518 0.8141 0.59251 0.0
C622 C 0.72121 0.78492 0.60535 0.0
C623 C 0.77785 0.82189 0.61051 0.0
C624 C 0.73068 0.76444 0.63715 0.0
H625 H 0.62937 0.68366 0.62396 0.0
N626 N 0.71872 0.71468 0.67765 0.0
C627 C 0.66654 0.67169 0.66619 0.0
C628 C 0.70813 0.73454 0.64882 0.0
C629 C 0.69907 0.68298 0.68475 0.0
C630 C 0.65449 0.69254 0.63863 0.0
C631 C 0.67559 0.72413 0.62882 0.0
O632 O 0.77073 0.69358 0.68752 0.0
O633 O 0.80633 0.74334 0.76841 0.0
O634 O 0.83557 0.80582 0.75736 0.0
O635 O 0.8256 0.77426 0.70905 0.0
O636 O 0.78182 0.69672 0.75666 0.0
O637 O 0.80839 0.73888 0.67069 0.0
O638 O 0.78404 0.82095 0.80448 0.0
O639 O 0.75863 0.77149 0.7333 0.0
O640 O 0.73426 0.70629 0.7489 0.0
O641 O 0.74166 0.73938 0.79454 0.0
O642 O 0.78458 0.81845 0.74338 0.0
O643 O 0.76297 0.77477 0.83809 0.0
C644 C 0.80321 0.71387 0.78141 0.0
C645 C 0.79021 0.7006 0.62704 0.0
C646 C 0.80578 0.67697 0.58028 0.0
C647 C 0.81055 0.6861 0.61751 0.0
C648 C 0.78031 0.68314 0.55276 0.0
C649 C 0.76525 0.70661 0.59899 0.0
C650 C 0.76044 0.69796 0.56204 0.0
C651 C 0.84397 0.79908 0.72719 0.0
C652 C 0.79506 0.70868 0.66661 0.0
C653 C 0.66559 0.74505 0.59859 0.0
C654 C 0.68838 0.77539 0.58684 0.0
C655 C 0.76223 0.80094 0.7197 0.0
C656 C 0.77556 0.8207 0.86864 0.0
C657 C 0.75433 0.83485 0.87696 0.0
C658 C 0.76245 0.85087 0.9099 0.0
C659 C 0.79244 0.85241 0.93402 0.0
C660 C 0.80482 0.82218 0.89366 0.0
C661 C 0.81321 0.83802 0.92605 0.0
C662 C 0.72511 0.71319 0.77839 0.0
C663 C 0.76721 0.80513 0.83335 0.0
H664 H 0.8302 0.68218 0.63921 0.0
H665 H 0.77524 0.67605 0.52416 0.0
H666 H 0.74942 0.71778 0.60571 0.0
H667 H 0.74097 0.70249 0.54057 0.0
H668 H 0.7314 0.83303 0.85789 0.0
H669 H 0.80025 0.86511 0.95893 0.0
H670 H 0.82127 0.81123 0.8881 0.0
H671 H 0.83607 0.83935 0.94499 0.0
Co672 Co 0.05893 0.96561 0.46158 0.0
Co673 Co 0.08158 0.97101 0.53273 0.0
Co674 Co 0.03116 1.00944 0.50456 0.0
O675 O 0.06807 0.99818 0.49335 0.0
H676 H 0.08706 0.01703 0.48656 0.0
O677 O 0.99424 0.02066 0.51574 0.0
Co678 Co 1.00345 0.05396 0.54624 0.0
Co679 Co 0.98007 0.04679 0.47565 0.0
H680 H 0.97549 1.00185 0.52316 0.0
O681 O 0.12512 0.9748 0.53808 0.0
O682 O 0.08117 0.9419 0.50343 0.0
O683 O 0.05369 0.94982 0.5734 0.0
O684 O 1.01602 0.9727 0.54784 0.0
O685 O 0.06364 0.03621 0.54303 0.0
O686 O 1.00933 0.0827 0.57638 0.0
O687 O 0.96588 0.03663 0.56996 0.0
O688 O 0.04433 0.07571 0.52634 0.0
O689 O 0.04629 0.04617 0.46129 0.0
O690 O 1.00734 0.06714 0.43428 0.0
O691 O 0.98092 0.07699 0.50361 0.0
O692 O 0.93656 0.04298 0.47068 0.0
C693 C 0.08194 0.95766 0.42113 0.0
C694 C 0.99498 0.95385 0.46507 0.0
C695 C 1.02591 0.95275 0.57311 0.0
C696 C 0.11297 0.95274 0.51547 0.0
C697 C 0.9807 0.0627 0.58615 0.0
C698 C 0.06709 0.06518 0.54375 0.0
C699 C 0.03565 0.06515 0.4352 0.0
C700 C 0.94907 0.06606 0.49183 0.0
O701 O 0.05318 0.9376 0.43043 0.0
O702 O 0.09668 0.98341 0.43796 0.0
O703 O 0.99857 0.98277 0.46615 0.0
O704 O 1.018 0.94331 0.48127 0.0
Co705 Co 0.57208 0.95801 0.99748 0.0
Co706 Co 0.57281 0.96758 0.06481 0.0
Co707 Co 0.53125 0.01178 1.00075 0.0
O708 O 0.57064 0.99477 0.01738 0.0
H709 H 0.59163 0.01244 0.01586 0.0
O710 O 0.49186 0.02881 0.98415 0.0
Co711 Co 0.49077 0.0657 0.0041 0.0
Co712 Co 0.48965 0.05599 0.93676 0.0
H713 H 0.47086 1.01119 0.98579 0.0
O714 O 0.61329 0.96499 0.09445 0.0
O715 O 0.58079 0.93266 0.05159 0.0
O716 O 0.53171 0.95376 0.08721 0.0
O717 O 0.50415 0.98163 0.04387 0.0
O718 O 0.55493 0.04563 0.03557 0.0
O719 O 0.48673 0.09627 0.02519 0.0
O720 O 0.44628 0.05112 0.00819 0.0
O721 O 0.53781 0.08546 0.00387 0.0
O722 O 0.55837 0.04195 0.95753 0.0
O723 O 0.53058 0.06956 0.91409 0.0
O724 O 0.48206 0.09105 0.95015 0.0
O725 O 0.44922 0.05887 0.9073 0.0
C726 C 0.60758 0.9461 0.97912 0.0
C727 C 0.50317 0.94795 0.97459 0.0
C728 C 0.50582 0.96109 0.07449 0.0
C729 C 0.60662 0.93943 0.0788 0.0
C730 C 0.45555 0.07779 0.02292 0.0
C731 C 0.55931 0.07556 0.02679 0.0
C732 C 0.55653 0.06233 0.92675 0.0
C733 C 0.4562 0.08447 0.92301 0.0
O734 O 0.57642 0.92757 0.9765 0.0
O735 O 0.61663 0.97276 0.99381 0.0
O736 O 0.50748 0.97788 0.96604 0.0
O737 O 0.52491 0.93806 0.9971 0.0
Co738 Co 0.0646 0.45246 0.99941 0.0
Co739 Co 0.06839 0.46438 0.0659 0.0
Co740 Co 1.02782 0.50945 0.0023 0.0
O741 O 0.06682 0.49146 0.01798 0.0
H742 H 0.08815 0.50844 0.01528 0.0
O743 O 0.98883 0.52733 0.98721 0.0
Co744 Co 0.99191 0.56754 0.00352 0.0
Co745 Co 0.98537 0.55172 0.93784 0.0
H746 H 0.96769 0.51052 0.99151 0.0
O747 O 0.10875 0.4618 0.09525 0.0
O748 O 0.0753 0.42848 0.05389 0.0
O749 O 1.02704 0.45008 0.0878 0.0
O750 O 1.00014 0.47885 0.0453 0.0
O751 O 0.05213 0.54328 0.03708 0.0
O752 O 0.9926 0.60184 0.02032 0.0
O753 O 0.94834 0.55696 0.01114 0.0
O754 O 0.03834 0.58334 1.00006 0.0
O755 O 0.05515 0.54002 0.95884 0.0
O756 O 1.02504 0.56403 0.91372 0.0
O757 O 0.98094 0.58941 0.94796 0.0
O758 O 0.94456 0.55443 0.91022 0.0
C759 C 0.09611 0.43616 0.97958 0.0
C760 C 0.99878 0.44579 0.97612 0.0
C761 C 1.00115 0.45739 0.07521 0.0
C762 C 0.10158 0.43572 0.08047 0.0
C763 C 0.96093 0.58595 0.02067 0.0
C764 C 0.05729 0.57337 0.02735 0.0
C765 C 0.0521 0.55903 0.92694 0.0
C766 C 0.95357 0.58167 0.92304 0.0
O767 O 0.06455 0.41971 0.97981 0.0
O768 O 0.10837 0.46409 0.99204 0.0
O769 O 1.00353 0.47583 0.96729 0.0
O770 O 1.01814 0.43566 0.0026 0.0
Co771 Co 0.5595 0.46053 0.96388 0.0
Co772 Co 0.57723 0.46243 0.03644 0.0
Co773 Co 0.53312 0.5068 0.00468 0.0
O774 O 0.56888 0.49241 0.99666 0.0
H775 H 0.58934 0.51024 0.99212 0.0
O776 O 0.49767 0.52204 0.01241 0.0
Co777 Co 0.50978 0.55691 0.04165 0.0
Co778 Co 0.48544 0.5484 0.96912 0.0
H779 H 0.47806 0.50447 0.02024 0.0
O780 O 0.61997 0.4645 0.04731 0.0
O781 O 0.57865 0.43471 0.00657 0.0
O782 O 0.54623 0.44257 0.07387 0.0
O783 O 0.51318 0.47017 0.04622 0.0
O784 O 0.56553 0.53065 0.04622 0.0
O785 O 0.51698 0.58749 0.07046 0.0
O786 O 0.47016 0.54514 0.05989 0.0
O787 O 0.55242 0.5735 0.02649 0.0
O788 O 0.55275 0.54364 0.96303 0.0
O789 O 0.51401 0.56263 0.92874 0.0
O790 O 0.49642 0.58275 0.99548 0.0
O791 O 0.44637 0.55857 0.96434 0.0
C792 C 0.5833 0.45139 0.92499 0.0
C793 C 0.49632 0.45279 0.96218 0.0
C794 C 0.51979 0.44847 0.07182 0.0
C795 C 0.60987 0.44504 0.02146 0.0
C796 C 0.48624 0.57085 0.07648 0.0
C797 C 0.57227 0.56037 0.04613 0.0
C798 C 0.54282 0.56081 0.93359 0.0
C799 C 0.46606 0.58105 0.98426 0.0
O800 O 0.55346 0.43265 0.9322 0.0
O801 O 0.59848 0.47662 0.94272 0.0
O802 O 0.50106 0.48202 0.96376 0.0
O803 O 0.5174 0.44051 0.9809 0.0
Co804 Co 0.09499 0.47322 0.54427 0.0
Co805 Co 0.07366 0.47729 0.47029 0.0
Co806 Co 0.0331 0.51276 0.50162 0.0
O807 O 0.05232 0.4759 0.5117 0.0
H808 H 0.03465 0.45526 0.51509 0.0
O809 O 1.01342 0.54949 0.49182 0.0
Co810 Co 0.97114 0.55267 0.45765 0.0
Co811 Co 0.98878 0.54545 0.53157 0.0
H812 H 1.03107 0.57023 0.49022 0.0
O813 O 0.0758 0.44062 0.45841 0.0
O814 O 0.11414 0.47538 0.49622 0.0
O815 O 0.08249 0.51496 0.43252 0.0
O816 O 0.06536 0.54304 0.46331 0.0
O817 O 0.99975 0.4924 0.45865 0.0
O818 O 0.93417 0.55848 0.4262 0.0
O819 O 0.97888 0.59782 0.44755 0.0
O820 O 0.95566 0.50642 0.46047 0.0
O821 O 1.00092 0.48184 0.53964 0.0
O822 O 0.97574 0.50591 0.5657 0.0
O823 O 0.95013 0.55041 0.50438 0.0
O824 O 0.98806 0.58088 0.54712 0.0
C825 C 0.1172 0.43691 0.57325 0.0
C826 C 0.09823 0.53835 0.54993 0.0
C827 C 0.08092 0.54129 0.43687 0.0
C828 C 0.10538 0.45078 0.4775 0.0
C829 C 0.94894 0.58907 0.42768 0.0
C830 C 0.96835 0.48726 0.45288 0.0
C831 C 0.98146 0.48126 0.56301 0.0
C832 C 0.959 0.57299 0.52645 0.0
O833 O 0.13244 0.46752 0.57429 0.0
O834 O 0.08691 0.42818 0.55434 0.0
O835 O 0.06682 0.53341 0.54444 0.0
O836 O 0.11061 0.51933 0.54141 0.0
Co837 Co 0.59124 0.9693 0.54396 0.0
Co838 Co 0.57768 0.98112 0.47083 0.0
Co839 Co 0.53006 1.0097 0.49996 0.0
O840 O 0.55023 0.97362 0.50813 0.0
H841 H 0.53283 0.95286 0.50694 0.0
O842 O 0.50977 0.04548 0.49228 0.0
Co843 Co 0.4676 0.04866 0.45853 0.0
Co844 Co 0.485 0.03888 0.53218 0.0
H845 H 0.52709 0.06642 0.49195 0.0
O846 O 0.57447 0.94745 0.44955 0.0
O847 O 0.61298 0.97029 0.49793 0.0
O848 O 0.59446 0.02284 0.44331 0.0
O849 O 0.56337 0.04371 0.4645 0.0
O850 O 0.49854 0.99194 0.45459 0.0
O851 O 0.43065 0.05437 0.42751 0.0
O852 O 0.47488 0.09387 0.44931 0.0
O853 O 0.4528 1.00219 0.45953 0.0
O854 O 0.49663 0.9759 0.53504 0.0
O855 O 0.47437 0.99904 0.56656 0.0
O856 O 0.44674 0.04569 0.50635 0.0
O857 O 0.4864 0.0732 0.55076 0.0
C858 C 0.61262 0.93262 0.57455 0.0
C859 C 0.59332 0.03395 0.55078 0.0
C860 C 0.58658 0.0465 0.44491 0.0
C861 C 0.60146 0.94916 0.47336 0.0
C862 C 0.44509 0.08497 0.42915 0.0
C863 C 0.46684 0.9849 0.44984 0.0
C864 C 0.47863 0.97443 0.56067 0.0
C865 C 0.45725 0.06724 0.53031 0.0
O866 O 0.6272 0.96314 0.57638 0.0
O867 O 0.58297 0.9239 0.55401 0.0
O868 O 0.56167 0.02749 0.5454 0.0
O869 O 0.60704 0.01596 0.54207 0.0
H870 H 0.17966 0.23241 0.32545 0.0
H871 H 0.18216 0.15682 0.27057 0.0
H872 H 0.13291 0.19419 0.35842 0.0
H873 H 0.13519 0.11874 0.30329 0.0
H874 H 0.09005 0.05831 0.41629 0.0
H875 H 0.12998 0.09558 0.37353 0.0
H876 H 0.07267 0.15798 0.34666 0.0
H877 H 0.03247 0.12059 0.38961 0.0
C878 C 0.16995 0.20776 0.31996 0.0
C879 C 0.18467 0.19769 0.29534 0.0
C880 C 0.14302 0.18592 0.33867 0.0
C881 C 0.13046 0.15347 0.33349 0.0
C882 C 0.14451 0.14358 0.308 0.0
C883 C 0.17123 0.16548 0.28898 0.0
C884 C 0.08574 0.07982 0.40104 0.0
C885 C 0.05815 0.08656 0.40655 0.0
C886 C 0.10852 0.10106 0.37631 0.0
C887 C 0.10446 0.12971 0.3568 0.0
C888 C 0.07651 0.13616 0.36155 0.0
C889 C 0.05343 0.11468 0.38597 0.0
H890 H 0.77668 0.11827 0.45412 0.0
H891 H 0.85213 0.16415 0.37571 0.0
H892 H 0.81855 0.10544 0.50376 0.0
H893 H 0.89312 0.15415 0.42573 0.0
H894 H 0.96509 0.12824 0.50251 0.0
H895 H 0.92544 0.1559 0.49447 0.0
H896 H 0.84397 0.0652 0.49155 0.0
H897 H 0.88333 0.03783 0.4991 0.0
C898 C 0.80201 0.12645 0.4475 0.0
C899 C 0.8103 0.1416 0.40999 0.0
C900 C 0.82609 0.11965 0.47635 0.0
C901 C 0.85905 0.12885 0.46861 0.0
C902 C 0.86807 0.14724 0.43293 0.0
C903 C 0.84406 0.15302 0.40386 0.0
C904 C 0.93876 0.11418 0.5017 0.0
C905 C 0.92701 0.08121 0.49964 0.0
C906 C 0.91612 0.12995 0.49746 0.0
C907 C 0.88168 0.11274 0.49152 0.0
C908 C 0.87033 0.07912 0.49593 0.0
C909 C 0.89286 0.06349 0.49957 0.0
H910 H 0.81128 0.84427 0.33565 0.0
H911 H 0.8899 0.84629 0.27638 0.0
H912 H 0.85235 0.88015 0.37882 0.0
H913 H 0.93097 0.88218 0.31937 0.0
H914 H 0.98865 0.89769 0.44249 0.0
H915 H 0.94707 0.86899 0.39384 0.0
H916 H 0.89812 0.93785 0.37794 0.0
H917 H 0.94028 0.9673 0.42636 0.0
C918 C 0.83729 0.85297 0.33136 0.0
C919 C 0.8475 0.84277 0.30254 0.0
C920 C 0.8607 0.87352 0.35591 0.0
C921 C 0.89474 0.88368 0.35247 0.0
C922 C 0.90482 0.87451 0.32263 0.0
C923 C 0.88133 0.85434 0.2977 0.0
C924 C 0.9691 0.90684 0.42872 0.0
C925 C 0.96796 0.93497 0.4381 0.0
C926 C 0.94545 0.89049 0.40065 0.0
C927 C 0.91979 0.90155 0.38183 0.0
C928 C 0.91785 0.92902 0.39198 0.0
C929 C 0.9419 0.94576 0.41968 0.0
H930 H 0.20144 0.94369 0.25637 0.0
H931 H 0.13318 0.84764 0.2879 0.0
H932 H 0.17844 0.96369 0.29926 0.0
H933 H 0.11149 0.8673 0.33204 0.0
H934 H 0.05174 0.91547 0.36967 0.0
H935 H 0.07714 0.8985 0.32683 0.0
H936 H 0.17394 0.96351 0.36721 0.0
H937 H 0.14809 0.98119 0.40986 0.0
C938 C 0.18159 0.92681 0.27248 0.0
C939 C 0.16902 0.89405 0.26838 0.0
C940 C 0.16871 0.93825 0.29746 0.0
C941 C 0.14292 0.91718 0.31892 0.0
C942 C 0.13093 0.88434 0.31547 0.0
C943 C 0.14371 0.87295 0.29048 0.0
C944 C 0.07845 0.92632 0.36936 0.0
C945 C 0.09792 0.94966 0.39322 0.0
C946 C 0.09307 0.91638 0.34495 0.0
C947 C 0.12767 0.92926 0.34391 0.0
C948 C 0.14718 0.95322 0.36712 0.0
C949 C 0.13242 0.96337 0.39153 0.0
H950 H 0.28618 0.90965 0.5592 0.0
H951 H 0.20289 0.84837 0.6217 0.0
H952 H 0.24707 0.9207 0.50441 0.0
H953 H 0.16503 0.85779 0.56713 0.0
H954 H 0.09746 0.89278 0.49671 0.0
H955 H 0.13722 0.86583 0.50089 0.0
H956 H 0.21846 0.95535 0.51532 0.0
H957 H 0.17905 0.98184 0.51112 0.0
C958 C 0.25978 0.89774 0.56107 0.0
C959 C 0.24805 0.87946 0.59602 0.0
C960 C 0.23739 0.90362 0.5293 0.0
C961 C 0.20299 0.89094 0.53188 0.0
C962 C 0.19134 0.86818 0.56401 0.0
C963 C 0.21352 0.86283 0.59589 0.0
C964 C 0.12385 0.9068 0.49933 0.0
C965 C 0.13541 0.93887 0.50571 0.0
C966 C 0.14659 0.89147 0.50137 0.0
C967 C 0.18094 0.90818 0.50983 0.0
C968 C 0.19222 0.94156 0.50925 0.0
C969 C 0.1696 0.95671 0.5076 0.0
H970 H 0.17089 0.18578 0.72253 0.0
H971 H 0.24816 0.16629 0.6831 0.0
H972 H 0.12889 0.14878 0.68144 0.0
H973 H 0.20629 0.12974 0.6418 0.0
H974 H 0.11719 0.04875 0.59103 0.0
H975 H 0.15756 0.07849 0.64028 0.0
H976 H 0.11597 0.15364 0.60907 0.0
H977 H 0.07575 0.12417 0.56007 0.0
C978 C 0.17885 0.17303 0.70588 0.0
C979 C 0.21281 0.17908 0.70585 0.0
C980 C 0.15485 0.15214 0.68203 0.0
C981 C 0.16439 0.13674 0.65804 0.0
C982 C 0.19818 0.14117 0.66004 0.0
C983 C 0.22215 0.1622 0.68361 0.0
C984 C 0.11676 0.07168 0.59458 0.0
C985 C 0.09315 0.08401 0.57168 0.0
C986 C 0.13983 0.08865 0.62282 0.0
C987 C 0.13958 0.11814 0.62887 0.0
C988 C 0.11628 0.13063 0.60566 0.0
C989 C 0.09344 0.11385 0.57729 0.0
H990 H 0.92983 0.17398 0.71746 0.0
H991 H 0.8618 0.07811 0.75047 0.0
H992 H 0.95174 0.15372 0.67422 0.0
H993 H 0.88505 0.05752 0.70848 0.0
H994 H 0.91474 0.03921 0.59793 0.0
H995 H 0.88917 0.05714 0.6406 0.0
H996 H 0.98612 0.12252 0.67994 0.0
H997 H 1.01124 0.10533 0.63701 0.0
C998 C 0.91944 0.14857 0.71543 0.0
C999 C 0.89406 0.12771 0.73757 0.0
C1000 C 0.93233 0.13685 0.69097 0.0
C1001 C 0.92042 0.1039 0.68814 0.0
C1002 C 0.89469 0.08304 0.70981 0.0
C1003 C 0.88167 0.09481 0.73426 0.0
C1004 C 0.9305 0.05717 0.61603 0.0
C1005 C 0.96495 0.07096 0.614 0.0
C1006 C 0.91591 0.06744 0.64046 0.0
C1007 C 0.93555 0.09157 0.66337 0.0
C1008 C 0.97011 0.10449 0.66205 0.0
C1009 C 0.98456 0.09445 0.63758 0.0
H1010 H 0.87805 0.86201 0.73646 0.0
H1011 H 0.87959 0.78639 0.68089 0.0
H1012 H 0.92565 0.89973 0.70451 0.0
H1013 H 0.92691 0.82423 0.64863 0.0
H1014 H 1.02779 0.89654 0.61787 0.0
H1015 H 0.98717 0.85945 0.66049 0.0
H1016 H 0.93182 0.92357 0.63489 0.0
H1017 H 0.97221 0.96058 0.59252 0.0
C1018 C 0.88891 0.85325 0.71809 0.0
C1019 C 0.87502 0.82116 0.71131 0.0
C1020 C 0.91599 0.87496 0.69948 0.0
C1021 C 0.92994 0.86497 0.67396 0.0
C1022 C 0.91691 0.83259 0.6684 0.0
C1023 C 0.88964 0.81097 0.6867 0.0
C1024 C 1.00718 0.90289 0.62172 0.0
C1025 C 1.00315 0.93143 0.60159 0.0
C1026 C 0.98385 0.88158 0.64596 0.0
C1027 C 0.9563 0.88858 0.65097 0.0
C1028 C 0.95295 0.91764 0.63193 0.0
C1029 C 0.976 0.93873 0.6074 0.0
H1030 H 0.28233 0.10885 0.077 0.0
H1031 H 0.36588 0.19543 0.09607 0.0
H1032 H 0.31918 0.08538 0.06097 0.0
H1033 H 0.40271 0.17285 0.07829 0.0
H1034 H 0.46782 0.11674 0.07715 0.0
H1035 H 0.42995 0.13688 0.09669 0.0
H1036 H 0.35075 0.08476 0.01537 0.0
H1037 H 0.38867 0.0632 0.99752 0.0
C1038 C 0.30863 0.12296 0.07752 0.0
C1039 C 0.32117 0.15398 0.08799 0.0
C1040 C 0.32984 0.10958 0.06802 0.0
C1041 C 0.36423 0.12701 0.06815 0.0
C1042 C 0.37664 0.15816 0.0786 0.0
C1043 C 0.35549 0.1713 0.08871 0.0
C1044 C 0.44222 0.10936 0.06366 0.0
C1045 C 0.43126 0.08826 0.03586 0.0
C1046 C 0.42043 0.12122 0.07459 0.0
C1047 C 0.38705 0.11295 0.05747 0.0
C1048 C 0.37601 0.09147 0.02982 0.0
C1049 C 0.39778 0.07909 0.0194 0.0
H1050 H 0.85231 0.33206 0.22975 0.0
H1051 H 0.79824 0.32733 0.11474 0.0
H1052 H 0.9021 0.37034 0.20273 0.0
H1053 H 0.84845 0.36532 0.08717 0.0
H1054 H 0.93663 0.45695 0.05285 0.0
H1055 H 0.88593 0.42056 0.08066 0.0
H1056 H 0.94443 0.37496 0.16651 0.0
H1057 H 0.99471 0.41158 0.13977 0.0
C1058 C 0.85118 0.33884 0.19855 0.0
C1059 C 0.82137 0.32608 0.17438 0.0
C1060 C 0.87986 0.3609 0.18291 0.0
C1061 C 0.8797 0.37112 0.14253 0.0
C1062 C 0.84971 0.3584 0.11837 0.0
C1063 C 0.82092 0.33636 0.13411 0.0
C1064 C 0.93875 0.4395 0.07803 0.0
C1065 C 0.97012 0.43759 0.09399 0.0
C1066 C 0.90953 0.41828 0.09376 0.0
C1067 C 0.91077 0.39451 0.12595 0.0
C1068 C 0.94221 0.39307 0.14219 0.0
C1069 C 0.97127 0.41419 0.12659 0.0
H1070 H 0.76117 0.85241 0.20078 0.0
H1071 H 0.67061 0.77222 0.18228 0.0
H1072 H 0.73279 0.88917 0.1645 0.0
H1073 H 0.64231 0.80828 0.14671 0.0
H1074 H 0.59796 0.87806 0.06289 0.0
H1075 H 0.6298 0.84302 0.09259 0.0
H1076 H 0.69418 0.9148 0.16336 0.0
H1077 H 0.66264 0.94956 0.13359 0.0
C1078 C 0.7354 0.84239 0.18859 0.0
C1079 C 0.7187 0.80875 0.19462 0.0
C1080 C 0.71868 0.86369 0.16787 0.0
C1081 C 0.68446 0.85248 0.15196 0.0
C1082 C 0.66838 0.81875 0.15741 0.0
C1083 C 0.68488 0.7977 0.17827 0.0
C1084 C 0.61893 0.88656 0.08468 0.0
C1085 C 0.62697 0.91719 0.09543 0.0
C1086 C 0.63743 0.86613 0.10221 0.0
C1087 C 0.66525 0.87524 0.13129 0.0
C1088 C 0.67358 0.90621 0.14122 0.0
C1089 C 0.65499 0.92642 0.12398 0.0
H1090 H 0.24237 0.68913 0.15191 0.0
H1091 H 0.16755 0.7229 0.17194 0.0
H1092 H 0.20058 0.65183 0.11136 0.0
H1093 H 0.12584 0.68586 0.13071 0.0
H1094 H 0.06817 0.63717 0.02378 0.0
H1095 H 0.11103 0.67579 0.06192 0.0
H1096 H 0.15042 0.60228 0.11998 0.0
H1097 H 0.10754 0.56349 0.08172 0.0
C1098 C 0.21699 0.68853 0.14788 0.0
C1099 C 0.20829 0.70871 0.16586 0.0
C1100 C 0.19302 0.66712 0.12455 0.0
C1101 C 0.1598 0.66563 0.11805 0.0
C1102 C 0.15126 0.68651 0.13496 0.0
C1103 C 0.1752 0.70775 0.15864 0.0
C1104 C 0.08603 0.62918 0.04453 0.0
C1105 C 0.08431 0.5971 0.04966 0.0
C1106 C 0.11048 0.65134 0.06659 0.0
C1107 C 0.1341 0.64214 0.09409 0.0
C1108 C 0.13276 0.61022 0.09881 0.0
C1109 C 0.10807 0.58794 0.077 0.0
H1110 H 0.38973 0.80023 0.83544 0.0
H1111 H 0.31322 0.83415 0.84953 0.0
H1112 H 0.42947 0.8361 0.87844 0.0
H1113 H 0.35357 0.87055 0.89314 0.0
H1114 H 0.45111 0.95857 0.92394 0.0
H1115 H 0.4054 0.91987 0.88824 0.0
H1116 H 0.44199 0.84453 0.94662 0.0
H1117 H 0.48774 0.883 0.98188 0.0
C1118 C 0.38126 0.81525 0.84788 0.0
C1119 C 0.34823 0.81438 0.83878 0.0
C1120 C 0.40411 0.83573 0.87287 0.0
C1121 C 0.39477 0.85622 0.88936 0.0
C1122 C 0.36162 0.85521 0.8807 0.0
C1123 C 0.33848 0.83428 0.85589 0.0
C1124 C 0.44927 0.9337 0.92942 0.0
C1125 C 0.4735 0.92409 0.95546 0.0
C1126 C 0.4229 0.91147 0.90912 0.0
C1127 C 0.4202 0.87915 0.91426 0.0
C1128 C 0.44362 0.86934 0.94148 0.0
C1129 C 0.46985 0.89146 0.96182 0.0
H1130 H 0.23804 0.34423 0.97495 0.0
H1131 H 0.16878 0.32354 0.87091 0.0
H1132 H 0.21027 0.37779 0.98839 0.0
H1133 H 0.14256 0.35858 0.88307 0.0
H1134 H 0.07459 0.38353 0.94333 0.0
H1135 H 0.10658 0.3558 0.92681 0.0
H1136 H 0.19766 0.42701 0.9701 0.0
H1137 H 0.16499 0.45475 0.98788 0.0
C1138 C 0.21707 0.34691 0.95473 0.0
C1139 C 0.20559 0.33065 0.92195 0.0
C1140 C 0.20142 0.36666 0.9622 0.0
C1141 C 0.1739 0.37084 0.93704 0.0
C1142 C 0.16327 0.35558 0.90355 0.0
C1143 C 0.17872 0.33571 0.89624 0.0
C1144 C 0.10146 0.3936 0.94922 0.0
C1145 C 0.11714 0.42154 0.96694 0.0
C1146 C 0.11994 0.3777 0.93936 0.0
C1147 C 0.15486 0.38914 0.94672 0.0
C1148 C 0.17078 0.41734 0.96415 0.0
C1149 C 0.15212 0.43344 0.97405 0.0
H1150 H 0.73432 0.21892 0.87185 0.0
H1151 H 0.70423 0.17723 0.76571 0.0
H1152 H 0.69116 0.17329 0.9031 0.0
H1153 H 0.66066 0.13161 0.79674 0.0
H1154 H 0.55889 0.09073 0.851 0.0
H1155 H 0.60752 0.1271 0.81994 0.0
H1156 H 0.67134 0.11314 0.92545 0.0
H1157 H 0.62247 0.07634 0.95666 0.0
C1158 C 0.71881 0.19964 0.85545 0.0
C1159 C 0.723 0.2014 0.81657 0.0
C1160 C 0.69417 0.17343 0.87337 0.0
C1161 C 0.67239 0.14872 0.85249 0.0
C1162 C 0.67691 0.15027 0.81364 0.0
C1163 C 0.70197 0.17629 0.7959 0.0
C1164 C 0.58331 0.09492 0.86745 0.0
C1165 C 0.58667 0.08059 0.90642 0.0
C1166 C 0.61126 0.11569 0.84952 0.0
C1167 C 0.64338 0.1232 0.8702 0.0
C1168 C 0.64693 0.10803 0.90877 0.0
C1169 C 0.61894 0.08675 0.92656 0.0
H1170 H 0.87345 0.74009 0.80503 0.0
H1171 H 0.78865 0.65288 0.8186 0.0
H1172 H 0.91023 0.71088 0.84095 0.0
H1173 H 0.82443 0.62416 0.85415 0.0
H1174 H 0.8937 0.56785 0.87591 0.0
H1175 H 0.86102 0.60097 0.84581 0.0
H1176 H 0.93305 0.6807 0.89937 0.0
H1177 H 0.9667 0.64694 0.92945 0.0
C1178 C 0.86238 0.71492 0.81619 0.0
C1179 C 0.82745 0.69928 0.80865 0.0
C1180 C 0.88367 0.69787 0.8369 0.0
C1181 C 0.87111 0.66432 0.85048 0.0
C1182 C 0.83609 0.6494 0.84381 0.0
C1183 C 0.81513 0.66624 0.82343 0.0
C1184 C 0.90295 0.59237 0.88176 0.0
C1185 C 0.9334 0.60396 0.90592 0.0
C1186 C 0.88367 0.61172 0.86436 0.0
C1187 C 0.89339 0.64418 0.86978 0.0
C1188 C 0.92409 0.65613 0.8938 0.0
C1189 C 0.94352 0.63647 0.91156 0.0
H1190 H 0.26822 0.36678 0.18567 0.0
H1191 H 0.18434 0.27859 0.19755 0.0
H1192 H 0.23187 0.39507 0.15046 0.0
H1193 H 0.1471 0.30731 0.16146 0.0
H1194 H 0.09146 0.37184 0.07039 0.0
H1195 H 0.12549 0.33845 0.10085 0.0
H1196 H 0.19328 0.41641 0.1605 0.0
H1197 H 0.15992 0.44906 0.13063 0.0
C1198 C 0.24186 0.35307 0.18048 0.0
C1199 C 0.22998 0.31988 0.1948 0.0
C1200 C 0.22058 0.36966 0.16024 0.0
C1201 C 0.18567 0.35431 0.15293 0.0
C1202 C 0.17356 0.32064 0.16599 0.0
C1203 C 0.19514 0.30388 0.18679 0.0
C1204 C 0.11368 0.38197 0.0899 0.0
C1205 C 0.12233 0.41383 0.09742 0.0
C1206 C 0.13336 0.36254 0.1078 0.0
C1207 C 0.16301 0.37412 0.13362 0.0
C1208 C 0.17141 0.40598 0.14069 0.0
C1209 C 0.15176 0.42504 0.12336 0.0
H1210 H 0.19214 0.67505 0.75838 0.0
H1211 H 0.24619 0.69885 0.86942 0.0
H1212 H 0.14401 0.6382 0.79018 0.0
H1213 H 0.19805 0.66236 0.90169 0.0
H1214 H 0.05284 0.59625 0.85569 0.0
H1215 H 0.10023 0.6339 0.82425 0.0
H1216 H 0.16684 0.60593 0.91827 0.0
H1217 H 0.11896 0.56854 0.95066 0.0
C1218 C 0.19328 0.67318 0.78954 0.0
C1219 C 0.22241 0.69108 0.81112 0.0
C1220 C 0.16574 0.65185 0.80796 0.0
C1221 C 0.16683 0.64707 0.84877 0.0
C1222 C 0.19617 0.66502 0.87034 0.0
C1223 C 0.22364 0.6865 0.85178 0.0
C1224 C 0.07752 0.59776 0.86975 0.0
C1225 C 0.08177 0.57901 0.90593 0.0
C1226 C 0.10488 0.61946 0.85145 0.0
C1227 C 0.13766 0.62327 0.86851 0.0
C1228 C 0.14206 0.60412 0.90436 0.0
C1229 C 0.11452 0.58227 0.92278 0.0
H1230 H 0.30355 0.17292 0.80063 0.0
H1231 H 0.39355 0.25304 0.8217 0.0
H1232 H 0.33155 0.13601 0.83695 0.0
H1233 H 0.42168 0.21671 0.85728 0.0
H1234 H 0.46521 0.14557 0.93997 0.0
H1235 H 0.43388 0.18115 0.9106 0.0
H1236 H 0.36984 0.11061 0.83801 0.0
H1237 H 0.40078 0.07532 0.8675 0.0
C1238 C 0.32912 0.18288 0.81352 0.0
C1239 C 0.34572 0.21653 0.80835 0.0
C1240 C 0.34565 0.16148 0.83419 0.0
C1241 C 0.37967 0.17258 0.85072 0.0
C1242 C 0.39573 0.20634 0.84605 0.0
C1243 C 0.37936 0.22753 0.82525 0.0
C1244 C 0.44441 0.13747 0.91785 0.0
C1245 C 0.43624 0.10702 0.90652 0.0
C1246 C 0.42622 0.15821 0.90052 0.0
C1247 C 0.39864 0.14959 0.87107 0.0
C1248 C 0.39023 0.11882 0.8605 0.0
C1249 C 0.40848 0.09829 0.87757 0.0
H1250 H 0.81621 0.33286 0.84459 0.0
H1251 H 0.89188 0.29871 0.8281 0.0
H1252 H 0.85681 0.36923 0.88708 0.0
H1253 H 0.93242 0.33498 0.87097 0.0
H1254 H 0.94918 0.45638 0.92128 0.0
H1255 H 0.90706 0.41832 0.88157 0.0
H1256 H 0.94547 0.34409 0.93954 0.0
H1257 H 0.98768 0.38203 0.97899 0.0
C1258 C 0.84153 0.33318 0.84982 0.0
C1259 C 0.85084 0.31314 0.83236 0.0
C1260 C 0.86482 0.35407 0.87423 0.0
C1261 C 0.89793 0.35521 0.88222 0.0
C1262 C 0.90705 0.33454 0.86565 0.0
C1263 C 0.8838 0.31378 0.841 0.0
C1264 C 0.94857 0.43192 0.9257 0.0
C1265 C 0.97194 0.42237 0.95331 0.0
C1266 C 0.92431 0.41005 0.90305 0.0
C1267 C 0.92297 0.37817 0.90728 0.0
C1268 C 0.94607 0.36855 0.9352 0.0
C1269 C 0.97014 0.39031 0.95802 0.0
H1270 H 0.72271 0.8803 0.85927 0.0
H1271 H 0.75123 0.85636 0.98202 0.0
H1272 H 0.68682 0.90509 0.87486 0.0
H1273 H 0.71653 0.88246 0.99717 0.0
H1274 H 0.67415 0.96029 0.00608 0.0
H1275 H 0.71251 0.93852 0.9889 0.0
H1276 H 0.63419 0.88598 0.90754 0.0
H1277 H 0.596 0.90722 0.92499 0.0
C1278 C 0.72135 0.88009 0.88954 0.0
C1279 C 0.74017 0.86613 0.91923 0.0
C1280 C 0.7009 0.89459 0.89845 0.0
C1281 C 0.69899 0.89599 0.93726 0.0
C1282 C 0.71787 0.88231 0.96696 0.0
C1283 C 0.73791 0.86737 0.95812 0.0
C1284 C 0.66533 0.94441 0.9842 0.0
C1285 C 0.63208 0.93559 0.9668 0.0
C1286 C 0.68718 0.93174 0.97458 0.0
C1287 C 0.67641 0.91052 0.94679 0.0
C1288 C 0.6434 0.90245 0.92876 0.0
C1289 C 0.62147 0.91456 0.9389 0.0
H1290 H 0.86294 0.72102 0.0174 0.0
H1291 H 0.87408 0.67923 0.13788 0.0
H1292 H 0.88177 0.68251 0.99895 0.0
H1293 H 0.89174 0.63982 0.11882 0.0
H1294 H 0.90382 0.56147 0.05755 0.0
H1295 H 0.8736 0.59251 0.07402 0.0
H1296 H 0.94104 0.67936 0.01675 0.0
H1297 H 0.9714 0.64904 0.00167 0.0
C1298 C 0.86914 0.70354 0.04003 0.0
C1299 C 0.86762 0.70389 0.07936 0.0
C1300 C 0.87965 0.68124 0.0293 0.0
C1301 C 0.88842 0.65824 0.05745 0.0
C1302 C 0.88489 0.65709 0.09645 0.0
C1303 C 0.87474 0.67974 0.10733 0.0
C1304 C 0.91187 0.58713 0.04831 0.0
C1305 C 0.94004 0.60282 0.02844 0.0
C1306 C 0.89473 0.60488 0.05785 0.0
C1307 C 0.90492 0.63837 0.04655 0.0
C1308 C 0.93238 0.65362 0.02559 0.0
C1309 C 0.94986 0.63619 0.01709 0.0
H1310 H 0.32629 0.80505 0.12452 0.0
H1311 H 0.3564 0.84427 0.23239 0.0
H1312 H 0.37008 0.8509 0.09455 0.0
H1313 H 0.40049 0.89009 0.20264 0.0
H1314 H 0.50266 0.93117 0.14962 0.0
H1315 H 0.45353 0.89455 0.17957 0.0
H1316 H 0.39082 0.91122 0.07412 0.0
H1317 H 0.44018 0.94822 0.04403 0.0
C1318 C 0.34194 0.82382 0.14158 0.0
C1319 C 0.33762 0.82129 0.18059 0.0
C1320 C 0.36693 0.85016 0.1244 0.0
C1321 C 0.38886 0.87421 0.14616 0.0
C1322 C 0.38415 0.87193 0.18509 0.0
C1323 C 0.35879 0.84579 0.2021 0.0
C1324 C 0.47838 0.92752 0.13297 0.0
C1325 C 0.47547 0.94266 0.09433 0.0
C1326 C 0.45015 0.9066 0.15025 0.0
C1327 C 0.4182 0.8998 0.12923 0.0
C1328 C 0.4151 0.91577 0.09103 0.0
C1329 C 0.44337 0.93717 0.0739 0.0
H1330 H 0.67617 0.24043 0.1394 0.0
H1331 H 0.73869 0.18304 0.17089 0.0
H1332 H 0.63755 0.20201 0.0988 0.0
H1333 H 0.70068 0.14502 0.12834 0.0
H1334 H 0.60199 0.06464 0.09092 0.0
H1335 H 0.64638 0.10437 0.12625 0.0
H1336 H 0.62824 0.18032 0.04081 0.0
H1337 H 0.58319 0.14069 0.0064 0.0
C1338 C 0.68182 0.21971 0.13764 0.0
C1339 C 0.71028 0.2147 0.15922 0.0
C1340 C 0.65982 0.19775 0.11369 0.0
C1341 C 0.66576 0.17015 0.11025 0.0
C1342 C 0.69494 0.16569 0.1307 0.0
C1343 C 0.71694 0.18771 0.15483 0.0
C1344 C 0.60767 0.08981 0.0795 0.0
C1345 C 0.58867 0.09944 0.0461 0.0
C1346 C 0.63331 0.11266 0.09967 0.0
C1347 C 0.64079 0.14571 0.08673 0.0
C1348 C 0.62275 0.15518 0.05226 0.0
C1349 C 0.59695 0.13239 0.03235 0.0
H1350 H 0.68618 0.7255 0.82027 0.0
H1351 H 0.697 0.64844 0.77632 0.0
H1352 H 0.63971 0.68706 0.85341 0.0
H1353 H 0.65035 0.60985 0.80978 0.0
H1354 H 0.53918 0.61257 0.88039 0.0
H1355 H 0.5808 0.64821 0.83836 0.0
H1356 H 0.64221 0.59046 0.88172 0.0
H1357 H 0.60073 0.55479 0.92392 0.0
C1358 C 0.67844 0.70036 0.8174 0.0
C1359 C 0.69525 0.69 0.79566 0.0
C1360 C 0.65169 0.67839 0.8362 0.0
C1361 C 0.64142 0.64548 0.83416 0.0
C1362 C 0.65785 0.63509 0.81193 0.0
C1363 C 0.68437 0.65719 0.79258 0.0
C1364 C 0.56136 0.60723 0.88069 0.0
C1365 C 0.56672 0.58095 0.90576 0.0
C1366 C 0.58524 0.62773 0.85673 0.0
C1367 C 0.61476 0.62215 0.85688 0.0
C1368 C 0.61957 0.59521 0.8808 0.0
C1369 C 0.59591 0.57494 0.90516 0.0
H1370 H 0.34828 0.68648 0.00677 0.0
H1371 H 0.43553 0.74806 0.95239 0.0
H1372 H 0.37748 0.65031 0.03936 0.0
H1373 H 0.4645 0.71188 0.98397 0.0
H1374 H 0.50399 0.63579 0.01472 0.0
H1375 H 0.48546 0.6753 0.03097 0.0
H1376 H 0.38349 0.61794 0.99542 0.0
H1377 H 0.40194 0.5778 0.98074 0.0
C1378 C 0.37436 0.69327 0.00366 0.0
C1379 C 0.38947 0.71926 0.97613 0.0
C1380 C 0.39096 0.67241 0.02201 0.0
C1381 C 0.4226 0.67748 0.01268 0.0
C1382 C 0.43991 0.70695 0.99135 0.0
C1383 C 0.42335 0.72778 0.97311 0.0
C1384 C 0.47753 0.63132 0.01107 0.0
C1385 C 0.45436 0.60401 0.99568 0.0
C1386 C 0.46698 0.65388 0.02068 0.0
C1387 C 0.4331 0.64987 0.01443 0.0
C1388 C 0.40979 0.62158 1.00123 0.0
C1389 C 0.42035 0.59887 0.99192 0.0
H1390 H 0.32188 0.35813 0.80867 0.0
H1391 H 0.40101 0.33489 0.77971 0.0
H1392 H 0.36206 0.39486 0.85115 0.0
H1393 H 0.44126 0.37195 0.822 0.0
H1394 H 0.45111 0.47318 0.90911 0.0
H1395 H 0.41307 0.44522 0.85675 0.0
H1396 H 0.44776 0.36567 0.89482 0.0
H1397 H 0.48528 0.39308 0.9468 0.0
C1398 C 0.34798 0.36148 0.81062 0.0
C1399 C 0.35826 0.34336 0.79118 0.0
C1400 C 0.37099 0.38262 0.83485 0.0
C1401 C 0.40468 0.38589 0.84032 0.0
C1402 C 0.41531 0.36951 0.81872 0.0
C1403 C 0.39233 0.34854 0.79422 0.0
C1404 C 0.45046 0.44966 0.90637 0.0
C1405 C 0.47137 0.43547 0.93209 0.0
C1406 C 0.42878 0.43374 0.87635 0.0
C1407 C 0.42792 0.40354 0.8713 0.0
C1408 C 0.44846 0.38926 0.89736 0.0
C1409 C 0.46975 0.40491 0.92744 0.0
H1410 H 0.70506 0.43729 0.76349 0.0
H1411 H 0.64074 0.3401 0.79808 0.0
H1412 H 0.68094 0.45657 0.80587 0.0
H1413 H 0.61781 0.35919 0.84168 0.0
H1414 H 0.55473 0.40611 0.87682 0.0
H1415 H 0.58136 0.38851 0.83603 0.0
H1416 H 0.67664 0.4574 0.87344 0.0
H1417 H 0.6496 0.47565 0.91403 0.0
C1418 C 0.68585 0.41999 0.78018 0.0
C1419 C 0.6747 0.38711 0.77702 0.0
C1420 C 0.67232 0.43104 0.80489 0.0
C1421 C 0.64725 0.40951 0.82708 0.0
C1422 C 0.63669 0.37657 0.82459 0.0
C1423 C 0.65017 0.36553 0.79989 0.0
C1424 C 0.58137 0.41768 0.87633 0.0
C1425 C 0.60001 0.44238 0.89867 0.0
C1426 C 0.59671 0.40735 0.85311 0.0
C1427 C 0.63124 0.42126 0.85164 0.0
C1428 C 0.64995 0.44632 0.8736 0.0
C1429 C 0.63448 0.4568 0.89686 0.0
H1430 H 0.72171 0.34489 0.08017 0.0
H1431 H 0.79325 0.43962 0.05118 0.0
H1432 H 0.68221 0.3562 0.02765 0.0
H1433 H 0.75549 0.44918 0.99467 0.0
H1434 H 0.67379 0.48246 0.01681 0.0
H1435 H 0.71829 0.46699 0.00859 0.0
H1436 H 0.64736 0.3746 0.98211 0.0
H1437 H 0.6022 0.39068 0.99183 0.0
C1438 C 0.72947 0.36782 0.06165 0.0
C1439 C 0.75916 0.39262 0.07227 0.0
C1440 C 0.70691 0.37416 0.03063 0.0
C1441 C 0.71433 0.40516 0.00929 0.0
C1442 C 0.7478 0.42613 0.01294 0.0
C1443 C 0.76978 0.42051 0.04526 0.0
C1444 C 0.66764 0.45891 0.00886 0.0
C1445 C 0.63495 0.43698 0.00743 0.0
C1446 C 0.69331 0.45003 0.00322 0.0
C1447 C 0.68703 0.41859 0.99667 0.0
C1448 C 0.6535 0.39841 0.9891 0.0
C1449 C 0.62757 0.40751 0.99471 0.0
H1450 H 0.73742 0.70777 0.14538 0.0
H1451 H 0.68891 0.65333 0.24631 0.0
H1452 H 0.70117 0.6674 0.10655 0.0
H1453 H 0.65099 0.61267 0.20595 0.0
H1454 H 0.6061 0.53831 0.11292 0.0
H1455 H 0.64799 0.57112 0.1594 0.0
H1456 H 0.64015 0.6569 0.08639 0.0
H1457 H 0.59925 0.6248 0.04055 0.0
C1458 C 0.71911 0.68714 0.15957 0.0
C1459 C 0.7156 0.6844 0.19896 0.0
C1460 C 0.69824 0.66389 0.13706 0.0
C1461 C 0.67286 0.63727 0.15299 0.0
C1462 C 0.67038 0.63312 0.19296 0.0
C1463 C 0.69179 0.65653 0.21591 0.0
C1464 C 0.61377 0.5642 0.10675 0.0
C1465 C 0.59958 0.57903 0.07299 0.0
C1466 C 0.63736 0.58286 0.13349 0.0
C1467 C 0.64733 0.61649 0.12637 0.0
C1468 C 0.63324 0.63105 0.09245 0.0
C1469 C 0.60975 0.61262 0.06617 0.0
H1470 H 0.36403 0.58914 0.23203 0.0
H1471 H 0.42375 0.68716 0.19328 0.0
H1472 H 0.38913 0.57041 0.19043 0.0
H1473 H 0.44771 0.66846 0.15014 0.0
H1474 H 0.4202 0.54724 0.08735 0.0
H1475 H 0.39249 0.56756 0.12435 0.0
H1476 H 0.48627 0.64149 0.15479 0.0
H1477 H 0.51368 0.62168 0.1172 0.0
C1478 C 0.38245 0.60676 0.21455 0.0
C1479 C 0.39206 0.63971 0.21647 0.0
C1480 C 0.39655 0.596 0.19021 0.0
C1481 C 0.42062 0.61785 0.16693 0.0
C1482 C 0.42963 0.65086 0.16806 0.0
C1483 C 0.41556 0.66164 0.1925 0.0
C1484 C 0.43491 0.56774 0.10208 0.0
C1485 C 0.46926 0.58256 0.09965 0.0
C1486 C 0.41902 0.57941 0.12336 0.0
C1487 C 0.4371 0.60616 0.14276 0.0
C1488 C 0.47139 0.62113 0.13989 0.0
C1489 C 0.48723 0.60952 0.1186 0.0
H1490 H 0.37329 0.28978 0.18978 0.0
H1491 H 0.36223 0.37066 0.22448 0.0
H1492 H 0.4206 0.32578 0.15677 0.0
H1493 H 0.41028 0.40686 0.19174 0.0
H1494 H 0.52046 0.3958 0.12527 0.0
H1495 H 0.47836 0.36282 0.16787 0.0
H1496 H 0.42122 0.42446 0.12291 0.0
H1497 H 0.46336 0.45769 0.08072 0.0
C1498 C 0.38119 0.31526 0.19075 0.0
C1499 C 0.36391 0.32737 0.20967 0.0
C1500 C 0.40853 0.33588 0.17207 0.0
C1501 C 0.4192 0.36917 0.17163 0.0
C1502 C 0.40246 0.38131 0.19136 0.0
C1503 C 0.37514 0.36058 0.21036 0.0
C1504 C 0.49907 0.4025 0.12465 0.0
C1505 C 0.4952 0.42925 0.09925 0.0
C1506 C 0.47491 0.38353 0.149 0.0
C1507 C 0.44642 0.39098 0.14865 0.0
C1508 C 0.44305 0.41828 0.12417 0.0
C1509 C 0.4671 0.43715 0.0997 0.0
H1510 H 0.83267 0.63481 0.6283 0.0
H1511 H 0.82682 0.68173 0.50943 0.0
H1512 H 0.86837 0.60991 0.61292 0.0
H1513 H 0.86129 0.65527 0.4939 0.0
H1514 H 0.8987 0.57108 0.48271 0.0
H1515 H 0.86059 0.59615 0.49323 0.0
H1516 H 0.92766 0.63345 0.59248 0.0
H1517 H 0.9658 0.60955 0.58167 0.0
C1518 C 0.839 0.64004 0.59894 0.0
C1519 C 0.82689 0.66076 0.57036 0.0
C1520 C 0.85927 0.62544 0.59006 0.0
C1521 C 0.86767 0.63063 0.55221 0.0
C1522 C 0.85498 0.65055 0.52325 0.0
C1523 C 0.8351 0.66565 0.53226 0.0
C1524 C 0.90541 0.58487 0.50652 0.0
C1525 C 0.93545 0.58828 0.53122 0.0
C1526 C 0.8836 0.59923 0.51252 0.0
C1527 C 0.89103 0.61653 0.54392 0.0
C1528 C 0.92105 0.61998 0.56833 0.0
C1529 C 0.943 0.60632 0.56192 0.0
H1530 H 0.3309 0.78429 0.63679 0.0
H1531 H 0.34539 0.84431 0.72306 0.0
H1532 H 0.37614 0.82625 0.60413 0.0
H1533 H 0.38821 0.88714 0.68946 0.0
H1534 H 0.47746 0.95796 0.6388 0.0
H1535 H 0.43998 0.91033 0.67379 0.0
H1536 H 0.39476 0.87396 0.56493 0.0
H1537 H 0.43459 0.92072 0.53079 0.0
C1538 C 0.34386 0.80653 0.64874 0.0
C1539 C 0.33502 0.81078 0.68287 0.0
C1540 C 0.36965 0.83093 0.62977 0.0
C1541 C 0.38663 0.86072 0.64375 0.0
C1542 C 0.37711 0.86466 0.6779 0.0
C1543 C 0.35207 0.84005 0.69724 0.0
C1544 C 0.46002 0.93931 0.62257 0.0
C1545 C 0.45927 0.94299 0.58211 0.0
C1546 C 0.43788 0.91203 0.64256 0.0
C1547 C 0.41315 0.88796 0.62258 0.0
C1548 C 0.41328 0.89134 0.58196 0.0
C1549 C 0.43622 0.91829 0.56212 0.0
H1550 H 0.26873 0.34767 0.69528 0.0
H1551 H 0.17744 0.26753 0.68066 0.0
H1552 H 0.24048 0.3842 0.65897 0.0
H1553 H 0.14876 0.30342 0.64622 0.0
H1554 H 0.101 0.37181 0.56712 0.0
H1555 H 0.13179 0.33606 0.59671 0.0
H1556 H 0.2063 0.41269 0.65372 0.0
H1557 H 0.17612 0.4483 0.62298 0.0
C1558 C 0.24274 0.33763 0.6839 0.0
C1559 C 0.22593 0.30408 0.69065 0.0
C1560 C 0.22601 0.35884 0.66331 0.0
C1561 C 0.19144 0.34767 0.64894 0.0
C1562 C 0.1751 0.31397 0.65552 0.0
C1563 C 0.19179 0.29296 0.67579 0.0
C1564 C 0.12387 0.38109 0.58609 0.0
C1565 C 0.13537 0.41341 0.59243 0.0
C1566 C 0.14188 0.36029 0.60354 0.0
C1567 C 0.17232 0.37054 0.62862 0.0
C1568 C 0.18367 0.40303 0.63463 0.0
C1569 C 0.16586 0.42378 0.61697 0.0
H1570 H 0.67247 0.18785 0.69533 0.0
H1571 H 0.7546 0.19911 0.63575 0.0
H1572 H 0.63666 0.14384 0.65928 0.0
H1573 H 0.71899 0.15597 0.59916 0.0
H1574 H 0.66019 0.0528 0.57759 0.0
H1575 H 0.69401 0.09917 0.61002 0.0
H1576 H 0.6086 0.12778 0.59771 0.0
H1577 H 0.5746 0.08101 0.56626 0.0
C1578 C 0.68264 0.18141 0.67389 0.0
C1579 C 0.71639 0.19675 0.66861 0.0
C1580 C 0.66217 0.15613 0.65323 0.0
C1581 C 0.67499 0.14586 0.62662 0.0
C1582 C 0.70837 0.16249 0.62007 0.0
C1583 C 0.72875 0.18749 0.64081 0.0
C1584 C 0.64861 0.069 0.58166 0.0
C1585 C 0.61456 0.06293 0.56932 0.0
C1586 C 0.66808 0.09579 0.60013 0.0
C1587 C 0.65414 0.11744 0.60655 0.0
C1588 C 0.62016 0.1115 0.59386 0.0
C1589 C 0.60067 0.08466 0.57556 0.0
H1590 H 0.86868 0.30849 0.35 0.0
H1591 H 0.81231 0.37036 0.30142 0.0
H1592 H 0.90573 0.34869 0.39051 0.0
H1593 H 0.84935 0.41039 0.3409 0.0
H1594 H 0.90016 0.46463 0.44108 0.0
H1595 H 0.86338 0.42049 0.40669 0.0
H1596 H 0.94843 0.40182 0.38673 0.0
H1597 H 0.98532 0.44551 0.42208 0.0
C1598 C 0.86423 0.3306 0.34775 0.0
C1599 C 0.83733 0.33593 0.32245 0.0
C1600 C 0.88552 0.35373 0.37093 0.0
C1601 C 0.88041 0.38275 0.36928 0.0
C1602 C 0.85368 0.38808 0.34372 0.0
C1603 C 0.83245 0.36504 0.32078 0.0
C1604 C 0.9111 0.45106 0.42957 0.0
C1605 C 0.94581 0.45898 0.43403 0.0
C1606 C 0.88996 0.42578 0.40964 0.0
C1607 C 0.90291 0.40779 0.39342 0.0
C1608 C 0.93754 0.41498 0.39901 0.0
C1609 C 0.95873 0.44022 0.41913 0.0
H1610 H 0.71363 0.81952 0.49062 0.0
H1611 H 0.67197 0.83407 0.3706 0.0
H1612 H 0.69076 0.85644 0.50628 0.0
H1613 H 0.65083 0.87193 0.38589 0.0
H1614 H 0.57846 0.90023 0.43065 0.0
H1615 H 0.60599 0.86621 0.42005 0.0
H1616 H 0.69203 0.91312 0.49744 0.0
H1617 H 0.66377 0.94776 0.50872 0.0
C1618 C 0.69982 0.83066 0.46745 0.0
C1619 C 0.69445 0.8233 0.42926 0.0
C1620 C 0.68706 0.8522 0.47644 0.0
C1621 C 0.66854 0.86697 0.44751 0.0
C1622 C 0.66441 0.86061 0.40916 0.0
C1623 C 0.677 0.83909 0.40021 0.0
C1624 C 0.6033 0.90365 0.44556 0.0
C1625 C 0.61902 0.92738 0.47008 0.0
C1626 C 0.61924 0.88406 0.43919 0.0
C1627 C 0.65164 0.88731 0.457 0.0
C1628 C 0.66713 0.91008 0.48296 0.0
C1629 C 0.651 0.93 0.48938 0.0
H1630 H 0.19711 0.68789 0.2632 0.0
H1631 H 0.23413 0.72508 0.37212 0.0
H1632 H 0.15566 0.64099 0.29526 0.0
H1633 H 0.19326 0.67804 0.40459 0.0
H1634 H 0.11251 0.54559 0.375 0.0
H1635 H 0.15091 0.59297 0.34091 0.0
H1636 H 0.13432 0.6524 0.41005 0.0
H1637 H 0.09625 0.60459 0.44514 0.0
C1638 C 0.19672 0.68571 0.29416 0.0
C1639 C 0.21944 0.70966 0.31544 0.0
C1640 C 0.17289 0.6589 0.31259 0.0
C1641 C 0.17095 0.65557 0.35267 0.0
C1642 C 0.19358 0.67986 0.37368 0.0
C1643 C 0.21729 0.70665 0.35522 0.0
C1644 C 0.11668 0.56874 0.38284 0.0
C1645 C 0.1011 0.57107 0.41304 0.0
C1646 C 0.13872 0.59605 0.36302 0.0
C1647 C 0.14596 0.62667 0.37264 0.0
C1648 C 0.12976 0.62919 0.40214 0.0
C1649 C 0.10759 0.60177 0.42203 0.0
H1650 H 0.36658 0.243 0.30336 0.0
H1651 H 0.28122 0.1584 0.32761 0.0
H1652 H 0.4035 0.21374 0.33832 0.0
H1653 H 0.31722 0.12959 0.36242 0.0
H1654 H 0.38348 0.07018 0.38558 0.0
H1655 H 0.35104 0.10337 0.35469 0.0
H1656 H 0.42892 0.18618 0.39588 0.0
H1657 H 0.46216 0.15226 0.42693 0.0
C1658 C 0.35547 0.21842 0.31669 0.0
C1659 C 0.32031 0.20354 0.31251 0.0
C1660 C 0.37685 0.20132 0.33686 0.0
C1661 C 0.36413 0.16841 0.35328 0.0
C1662 C 0.32895 0.15426 0.34981 0.0
C1663 C 0.30787 0.17117 0.32991 0.0
C1664 C 0.39415 0.09545 0.38835 0.0
C1665 C 0.42612 0.10785 0.4093 0.0
C1666 C 0.375 0.11486 0.37056 0.0
C1667 C 0.38635 0.14817 0.37245 0.0
C1668 C 0.41865 0.16093 0.39304 0.0
C1669 C 0.43798 0.14125 0.41116 0.0
H1670 H 0.69171 0.77491 0.69969 0.0
H1671 H 0.77646 0.86123 0.68013 0.0
H1672 H 0.65451 0.8037 0.66404 0.0
H1673 H 0.74025 0.88951 0.64462 0.0
H1674 H 0.59681 0.86582 0.57422 0.0
H1675 H 0.63018 0.83208 0.60574 0.0
H1676 H 0.70489 0.91392 0.65278 0.0
H1677 H 0.67245 0.94693 0.62143 0.0
C1678 C 0.70264 0.79979 0.68727 0.0
C1679 C 0.73768 0.81532 0.69299 0.0
C1680 C 0.68111 0.81658 0.6667 0.0
C1681 C 0.6936 0.84978 0.65144 0.0
C1682 C 0.7287 0.86458 0.65635 0.0
C1683 C 0.7499 0.84799 0.67667 0.0
C1684 C 0.62031 0.87662 0.5914 0.0
C1685 C 0.63135 0.90971 0.59473 0.0
C1686 C 0.63969 0.85707 0.60977 0.0
C1687 C 0.67118 0.86969 0.63207 0.0
C1688 C 0.68163 0.90263 0.63551 0.0
C1689 C 0.66247 0.92191 0.61744 0.0
H1690 H 0.75234 0.22208 0.38363 0.0
H1691 H 0.68841 0.20507 0.27559 0.0
H1692 H 0.71028 0.17811 0.41851 0.0
H1693 H 0.64569 0.16158 0.31079 0.0
H1694 H 0.56904 0.09749 0.40195 0.0
H1695 H 0.60633 0.14774 0.36817 0.0
H1696 H 0.69004 0.11744 0.41381 0.0
H1697 H 0.65327 0.0677 0.44626 0.0
C1698 C 0.72891 0.2095 0.36745 0.0
C1699 C 0.72357 0.21756 0.32691 0.0
C1700 C 0.70482 0.18424 0.38743 0.0
C1701 C 0.67452 0.16634 0.36751 0.0
C1702 C 0.66854 0.17513 0.3271 0.0
C1703 C 0.69298 0.20014 0.30695 0.0
C1704 C 0.59544 0.10182 0.40492 0.0
C1705 C 0.60812 0.07851 0.42671 0.0
C1706 C 0.61674 0.13043 0.38543 0.0
C1707 C 0.65122 0.13664 0.38837 0.0
C1708 C 0.66376 0.11364 0.4111 0.0
C1709 C 0.64257 0.08501 0.42961 0.0
H1710 H 0.79541 0.67736 0.30642 0.0
H1711 H 0.88772 0.75718 0.31567 0.0
H1712 H 0.82406 0.64103 0.34292 0.0
H1713 H 0.9165 0.72158 0.35029 0.0
H1714 H 0.96557 0.65492 0.43079 0.0
H1715 H 0.9344 0.69022 0.4006 0.0
H1716 H 0.85807 0.61169 0.34872 0.0
H1717 H 0.88877 0.57656 0.37991 0.0
C1718 C 0.82169 0.68741 0.31652 0.0
C1719 C 0.83872 0.72084 0.30797 0.0
C1720 C 0.83863 0.6663 0.3373 0.0
C1721 C 0.87351 0.67744 0.35035 0.0
C1722 C 0.88997 0.71102 0.3421 0.0
C1723 C 0.87316 0.73187 0.32165 0.0
C1724 C 0.94222 0.64509 0.41283 0.0
C1725 C 0.93046 0.61237 0.40805 0.0
C1726 C 0.92397 0.66564 0.395 0.0
C1727 C 0.89289 0.65477 0.37112 0.0
C1728 C 0.88122 0.62188 0.36674 0.0
C1729 C 0.89935 0.6014 0.38469 0.0
H1730 H 0.30702 0.81981 0.36349 0.0
H1731 H 0.38888 0.8337 0.30193 0.0
H1732 H 0.34249 0.86224 0.40119 0.0
H1733 H 0.42454 0.87705 0.3391 0.0
H1734 H 0.48631 0.93874 0.43329 0.0
H1735 H 0.45274 0.89217 0.40126 0.0
H1736 H 0.3665 0.91923 0.39075 0.0
H1737 H 0.39989 0.96539 0.42371 0.0
C1738 C 0.33279 0.83184 0.35828 0.0
C1739 C 0.34512 0.82358 0.32958 0.0
C1740 C 0.35307 0.85642 0.37964 0.0
C1741 C 0.38628 0.87362 0.3728 0.0
C1742 C 0.39913 0.86428 0.34534 0.0
C1743 C 0.37877 0.83939 0.32405 0.0
C1744 C 0.46015 0.93478 0.42426 0.0
C1745 C 0.44588 0.956 0.43111 0.0
C1746 C 0.44091 0.90807 0.40565 0.0
C1747 C 0.40684 0.90179 0.3933 0.0
C1748 C 0.39253 0.92291 0.40039 0.0
C1749 C 0.41174 0.94956 0.41915 0.0
H1750 H 0.20781 0.31652 0.48494 0.0
H1751 H 0.24515 0.39456 0.39386 0.0
H1752 H 0.17606 0.345 0.50228 0.0
H1753 H 0.21338 0.42311 0.4114 0.0
H1754 H 0.17358 0.4761 0.47966 0.0
H1755 H 0.2102 0.44894 0.47035 0.0
H1756 H 0.12603 0.36047 0.46561 0.0
H1757 H 0.08957 0.3876 0.47387 0.0
C1758 C 0.20945 0.33986 0.46878 0.0
C1759 C 0.22891 0.35315 0.4378 0.0
C1760 C 0.19116 0.35612 0.47867 0.0
C1761 C 0.19224 0.38634 0.45827 0.0
C1762 C 0.21225 0.39999 0.42788 0.0
C1763 C 0.23014 0.38348 0.41755 0.0
C1764 C 0.16307 0.45077 0.4771 0.0
C1765 C 0.12867 0.43405 0.47717 0.0
C1766 C 0.18395 0.43529 0.47153 0.0
C1767 C 0.17096 0.40259 0.467 0.0
C1768 C 0.13684 0.38561 0.46908 0.0
C1769 C 0.11593 0.40121 0.47366 0.0
H1770 H 0.40412 0.21161 0.59967 0.0
H1771 H 0.31083 0.15626 0.53996 0.0
H1772 H 0.43051 0.17745 0.58531 0.0
H1773 H 0.33672 0.12073 0.52702 0.0
H1774 H 0.40216 0.07737 0.48375 0.0
H1775 H 0.37353 0.11191 0.49332 0.0
H1776 H 0.43413 0.12759 0.60404 0.0
H1777 H 0.46393 0.09575 0.59298 0.0
C1778 C 0.38912 0.19175 0.58396 0.0
C1779 C 0.35532 0.18648 0.57137 0.0
C1780 C 0.40418 0.17192 0.57578 0.0
C1781 C 0.38577 0.14567 0.55548 0.0
C1782 C 0.35194 0.14069 0.54241 0.0
C1783 C 0.33698 0.16097 0.55005 0.0
C1784 C 0.40957 0.08861 0.50978 0.0
C1785 C 0.4362 0.08461 0.53683 0.0
C1786 C 0.39289 0.10819 0.51559 0.0
C1787 C 0.40193 0.12347 0.54914 0.0
C1788 C 0.4272 0.11762 0.57707 0.0
C1789 C 0.44421 0.0989 0.57083 0.0
H1790 H 0.82722 0.29598 0.62546 0.0
H1791 H 0.86584 0.33419 0.7336 0.0
H1792 H 0.86761 0.34274 0.59198 0.0
H1793 H 0.90647 0.3813 0.70019 0.0
H1794 H 0.99584 0.446 0.63224 0.0
H1795 H 0.95693 0.39778 0.66663 0.0
H1796 H 0.87892 0.40006 0.57229 0.0
H1797 H 0.91784 0.44773 0.53823 0.0
C1798 C 0.84421 0.31464 0.64196 0.0
C1799 C 0.84272 0.3119 0.68185 0.0
C1800 C 0.86738 0.34147 0.62281 0.0
C1801 C 0.89035 0.36601 0.64324 0.0
C1802 C 0.88937 0.36284 0.68351 0.0
C1803 C 0.86582 0.33609 0.7026 0.0
C1804 C 0.97052 0.43573 0.61875 0.0
C1805 C 0.95994 0.45017 0.58234 0.0
C1806 C 0.94809 0.40838 0.63856 0.0
C1807 C 0.91467 0.39489 0.62228 0.0
C1808 C 0.90447 0.40936 0.58555 0.0
C1809 C 0.92675 0.43668 0.56598 0.0
H1810 H 0.18359 0.69493 0.68782 0.0
H1811 H 0.26998 0.68648 0.6553 0.0
H1812 H 0.14751 0.65358 0.64936 0.0
H1813 H 0.2338 0.64573 0.61534 0.0
H1814 H 0.16153 0.54778 0.58629 0.0
H1815 H 0.19852 0.59226 0.61983 0.0
H1816 H 0.12508 0.63815 0.5884 0.0
H1817 H 0.08743 0.59272 0.55634 0.0
C1818 C 0.19497 0.68474 0.67178 0.0
C1819 C 0.2298 0.69409 0.67484 0.0
C1820 C 0.17413 0.66093 0.64946 0.0
C1821 C 0.18747 0.64594 0.62907 0.0
C1822 C 0.22242 0.65608 0.63117 0.0
C1823 C 0.24327 0.67968 0.65393 0.0
C1824 C 0.15328 0.56741 0.58637 0.0
C1825 C 0.12134 0.56649 0.56875 0.0
C1826 C 0.17469 0.59318 0.60546 0.0
C1827 C 0.16504 0.6191 0.60707 0.0
C1828 C 0.13332 0.61847 0.5886 0.0
C1829 C 0.11169 0.59243 0.56996 0.0
loop_
_geom_bond_atom_site_label_1
_geom_bond_atom_site_label_2
_geom_bond_distance
_geom_bond_site_symmetry_2
_ccdc_geom_bond_type
Eu0 N31 2.657 . S
Eu0 N38 2.609 . S
Eu0 O44 2.558 . S
Eu0 O45 2.612 . S
Eu0 O47 2.339 . S
Eu0 O48 2.563 . S
Eu0 O49 2.419 . S
Eu0 O51 2.380 . S
Eu0 O52 2.432 . S
Eu0 C64 2.848 . S
C1 C4 1.429 . S
C1 C5 1.411 . S
C1 N8 1.377 . S
C2 C4 1.420 . S
C2 C6 1.423 . S
C2 C14 1.392 . S
C3 C5 1.420 . S
C3 C6 1.351 . S
C3 H26 0.931 . S
C4 C1 1.429 . S
C4 C2 1.420 . S
C4 N12 1.362 . S
C5 C1 1.411 . S
C5 C3 1.420 . S
C5 C10 1.395 . S
C6 C2 1.423 . S
C6 C3 1.351 . S
C6 H18 0.930 . S
C7 C9 1.400 . S
C7 C10 1.386 . S
C7 H19 0.930 . S
N8 C1 1.377 . S
N8 C9 1.321 . S
N8 Eu11 2.609 . S
C9 C7 1.400 . S
C9 N8 1.321 . S
C9 H16 0.930 . S
C10 C5 1.395 . S
C10 C7 1.386 . S
C10 H29 0.930 . S
Eu11 N8 2.609 . S
Eu11 N12 2.657 . S
Eu11 O45 2.380 . S
Eu11 O46 2.432 . S
Eu11 O50 2.558 . S
Eu11 O51 2.612 . S
Eu11 O53 2.339 . S
Eu11 O54 2.563 . S
Eu11 O55 2.419 . S
Eu11 C75 2.848 . S
N12 C4 1.362 . S
N12 Eu11 2.657 . S
N12 C13 1.334 . S
C13 N12 1.334 . S
C13 C15 1.413 . S
C13 H20 0.929 . S
C14 C2 1.392 . S
C14 C15 1.367 . S
C14 H22 0.930 . S
C15 C13 1.413 . S
C15 C14 1.367 . S
C15 H17 0.930 . S
H16 C9 0.930 . S
H17 C15 0.930 . S
H18 C6 0.930 . S
H19 C7 0.930 . S
H20 C13 0.929 . S
H21 C35 0.930 . S
H22 C14 0.930 . S
H23 C41 0.930 . S
H24 C32 0.929 . S
H25 C39 0.930 . S
H26 C3 0.931 . S
H27 C33 0.930 . S
H28 C66 0.930 . S
H29 C10 0.930 . S
H30 C65 0.931 . S
N31 Eu0 2.657 . S
N31 C32 1.334 . S
N31 C36 1.362 . S
C32 H24 0.929 . S
C32 N31 1.334 . S
C32 C35 1.413 . S
C33 H27 0.930 . S
C33 C34 1.392 . S
C33 C35 1.367 . S
C34 C33 1.392 . S
C34 C36 1.420 . S
C34 C66 1.423 . S
C35 H21 0.930 . S
C35 C32 1.413 . S
C35 C33 1.367 . S
C36 N31 1.362 . S
C36 C34 1.420 . S
C36 C40 1.429 . S
H37 C42 0.930 . S
N38 Eu0 2.609 . S
N38 C40 1.377 . S
N38 C41 1.321 . S
C39 H25 0.930 . S
C39 C41 1.400 . S
C39 C42 1.386 . S
C40 C36 1.429 . S
C40 N38 1.377 . S
C40 C43 1.411 . S
C41 H23 0.930 . S
C41 N38 1.321 . S
C41 C39 1.400 . S
C42 H37 0.930 . S
C42 C39 1.386 . S
C42 C43 1.395 . S
C43 C40 1.411 . S
C43 C42 1.395 . S
C43 C65 1.420 . S
O44 Eu0 2.558 . S
O44 C64 1.257 . S
O45 Eu0 2.612 . S
O45 Eu11 2.380 . S
O45 C56 1.276 . S
O46 Eu11 2.432 . S
O46 C63 1.264 . S
O47 Eu0 2.339 . S
O47 C63 1.254 . S
O48 Eu0 2.563 . S
O48 C56 1.235 . S
O49 Eu0 2.419 . S
O49 C64 1.249 . S
O50 Eu11 2.558 . S
O50 C75 1.257 . S
O51 Eu0 2.380 . S
O51 Eu11 2.612 . S
O51 C67 1.276 . S
O52 Eu0 2.432 . S
O52 C74 1.264 . S
O53 Eu11 2.339 . S
O53 C74 1.254 . S
O54 Eu11 2.563 . S
O54 C67 1.235 . S
O55 Eu11 2.419 . S
O55 C75 1.249 . S
C56 O45 1.276 . S
C56 O48 1.235 . S
C57 C59 1.393 . S
C57 C61 1.395 . S
C57 C64 1.492 . S
C58 C59 1.392 . S
C58 C60 1.386 . S
C59 C57 1.393 . S
C59 C58 1.392 . S
C59 H76 0.930 . S
C60 C58 1.386 . S
C60 C62 1.395 . S
C60 H77 0.930 . S
C61 C57 1.395 . S
C61 C62 1.379 . S
C61 H78 0.930 . S
C62 C60 1.395 . S
C62 C61 1.379 . S
C62 H79 0.930 . S
C63 O46 1.264 . S
C63 O47 1.254 . S
C64 Eu0 2.848 . S
C64 O44 1.257 . S
C64 O49 1.249 . S
C64 C57 1.492 . S
C65 H30 0.931 . S
C65 C43 1.420 . S
C65 C66 1.351 . S
C66 H28 0.930 . S
C66 C34 1.423 . S
C66 C65 1.351 . S
C67 O51 1.276 . S
C67 O54 1.235 . S
C68 C69 1.393 . S
C68 C72 1.395 . S
C68 C75 1.492 . S
C69 C68 1.393 . S
C69 C70 1.392 . S
C69 H80 0.930 . S
C70 C69 1.392 . S
C70 C71 1.386 . S
C71 C70 1.386 . S
C71 C73 1.395 . S
C71 H81 0.930 . S
C72 C68 1.395 . S
C72 C73 1.379 . S
C72 H82 0.930 . S
C73 C71 1.395 . S
C73 C72 1.379 . S
C73 H83 0.930 . S
C74 O52 1.264 . S
C74 O53 1.254 . S
C75 Eu11 2.848 . S
C75 O50 1.257 . S
C75 O55 1.249 . S
C75 C68 1.492 . S
H76 C59 0.930 . S
H77 C60 0.930 . S
H78 C61 0.930 . S
H79 C62 0.930 . S
H80 C69 0.930 . S
H81 C71 0.930 . S
H82 C72 0.930 . S
H83 C73 0.930 . S
Eu84 N115 2.657 . S
Eu84 N122 2.609 . S
Eu84 O128 2.558 . S
Eu84 O129 2.612 . S
Eu84 O131 2.339 . S
Eu84 O132 2.563 . S
Eu84 O133 2.419 . S
Eu84 O135 2.380 . S
Eu84 O136 2.432 . S
Eu84 C148 2.848 . S
C85 C88 1.429 . S
C85 C89 1.411 . S
C85 N92 1.377 . S
C86 C88 1.420 . S
C86 C90 1.423 . S
C86 C98 1.392 . S
C87 C89 1.420 . S
C87 C90 1.351 . S
C87 H110 0.931 . S
C88 C85 1.429 . S
C88 C86 1.420 . S
C88 N96 1.362 . S
C89 C85 1.411 . S
C89 C87 1.420 . S
C89 C94 1.395 . S
C90 C86 1.423 . S
C90 C87 1.351 . S
C90 H102 0.930 . S
C91 C93 1.400 . S
C91 C94 1.386 . S
C91 H103 0.930 . S
N92 C85 1.377 . S
N92 C93 1.321 . S
N92 Eu95 2.609 . S
C93 C91 1.400 . S
C93 N92 1.321 . S
C93 H100 0.930 . S
C94 C89 1.395 . S
C94 C91 1.386 . S
C94 H113 0.930 . S
Eu95 N92 2.609 . S
Eu95 N96 2.657 . S
Eu95 O129 2.380 . S
Eu95 O130 2.432 . S
Eu95 O134 2.558 . S
Eu95 O135 2.612 . S
Eu95 O137 2.339 . S
Eu95 O138 2.563 . S
Eu95 O139 2.419 . S
Eu95 C159 2.848 . S
N96 C88 1.362 . S
N96 Eu95 2.657 . S
N96 C97 1.334 . S
C97 N96 1.334 . S
C97 C99 1.413 . S
C97 H104 0.929 . S
C98 C86 1.392 . S
C98 C99 1.367 . S
C98 H106 0.930 . S
C99 C97 1.413 . S
C99 C98 1.367 . S
C99 H101 0.930 . S
H100 C93 0.930 . S
H101 C99 0.930 . S
H102 C90 0.930 . S
H103 C91 0.930 . S
H104 C97 0.929 . S
H105 C119 0.930 . S
H106 C98 0.930 . S
H107 C125 0.930 . S
H108 C116 0.929 . S
H109 C123 0.930 . S
H110 C87 0.931 . S
H111 C117 0.930 . S
H112 C150 0.930 . S
H113 C94 0.930 . S
H114 C149 0.931 . S
N115 Eu84 2.657 . S
N115 C116 1.334 . S
N115 C120 1.362 . S
C116 H108 0.929 . S
C116 N115 1.334 . S
C116 C119 1.413 . S
C117 H111 0.930 . S
C117 C118 1.392 . S
C117 C119 1.367 . S
C118 C117 1.392 . S
C118 C120 1.420 . S
C118 C150 1.423 . S
C119 H105 0.930 . S
C119 C116 1.413 . S
C119 C117 1.367 . S
C120 N115 1.362 . S
C120 C118 1.420 . S
C120 C124 1.429 . S
H121 C126 0.930 . S
N122 Eu84 2.609 . S
N122 C124 1.377 . S
N122 C125 1.321 . S
C123 H109 0.930 . S
C123 C125 1.400 . S
C123 C126 1.386 . S
C124 C120 1.429 . S
C124 N122 1.377 . S
C124 C127 1.411 . S
C125 H107 0.930 . S
C125 N122 1.321 . S
C125 C123 1.400 . S
C126 H121 0.930 . S
C126 C123 1.386 . S
C126 C127 1.395 . S
C127 C124 1.411 . S
C127 C126 1.395 . S
C127 C149 1.420 . S
O128 Eu84 2.558 . S
O128 C148 1.257 . S
O129 Eu84 2.612 . S
O129 Eu95 2.380 . S
O129 C140 1.276 . S
O130 Eu95 2.432 . S
O130 C147 1.264 . S
O131 Eu84 2.339 . S
O131 C147 1.254 . S
O132 Eu84 2.563 . S
O132 C140 1.235 . S
O133 Eu84 2.419 . S
O133 C148 1.249 . S
O134 Eu95 2.558 . S
O134 C159 1.257 . S
O135 Eu84 2.380 . S
O135 Eu95 2.612 . S
O135 C151 1.276 . S
O136 Eu84 2.432 . S
O136 C158 1.264 . S
O137 Eu95 2.339 . S
O137 C158 1.254 . S
O138 Eu95 2.563 . S
O138 C151 1.235 . S
O139 Eu95 2.419 . S
O139 C159 1.249 . S
C140 O129 1.276 . S
C140 O132 1.235 . S
C141 C143 1.393 . S
C141 C145 1.395 . S
C141 C148 1.492 . S
C142 C143 1.392 . S
C142 C144 1.386 . S
C143 C141 1.393 . S
C143 C142 1.392 . S
C143 H160 0.930 . S
C144 C142 1.386 . S
C144 C146 1.395 . S
C144 H161 0.930 . S
C145 C141 1.395 . S
C145 C146 1.379 . S
C145 H162 0.930 . S
C146 C144 1.395 . S
C146 C145 1.379 . S
C146 H163 0.930 . S
C147 O130 1.264 . S
C147 O131 1.254 . S
C148 Eu84 2.848 . S
C148 O128 1.257 . S
C148 O133 1.249 . S
C148 C141 1.492 . S
C149 H114 0.931 . S
C149 C127 1.420 . S
C149 C150 1.351 . S
C150 H112 0.930 . S
C150 C118 1.423 . S
C150 C149 1.351 . S
C151 O135 1.276 . S
C151 O138 1.235 . S
C152 C153 1.393 . S
C152 C156 1.395 . S
C152 C159 1.492 . S
C153 C152 1.393 . S
C153 C154 1.392 . S
C153 H164 0.930 . S
C154 C153 1.392 . S
C154 C155 1.386 . S
C155 C154 1.386 . S
C155 C157 1.395 . S
C155 H165 0.930 . S
C156 C152 1.395 . S
C156 C157 1.379 . S
C156 H166 0.930 . S
C157 C155 1.395 . S
C157 C156 1.379 . S
C157 H167 0.930 . S
C158 O136 1.264 . S
C158 O137 1.254 . S
C159 Eu95 2.848 . S
C159 O134 1.257 . S
C159 O139 1.249 . S
C159 C152 1.492 . S
H160 C143 0.930 . S
H161 C144 0.930 . S
H162 C145 0.930 . S
H163 C146 0.930 . S
H164 C153 0.930 . S
H165 C155 0.930 . S
H166 C156 0.930 . S
H167 C157 0.930 . S
Eu168 N199 2.657 . S
Eu168 N206 2.609 . S
Eu168 O212 2.558 . S
Eu168 O213 2.612 . S
Eu168 O215 2.339 . S
Eu168 O216 2.563 . S
Eu168 O217 2.419 . S
Eu168 O219 2.380 . S
Eu168 O220 2.432 . S
Eu168 C232 2.848 . S
C169 C172 1.429 . S
C169 C173 1.411 . S
C169 N176 1.377 . S
C170 C172 1.420 . S
C170 C174 1.423 . S
C170 C182 1.392 . S
C171 C173 1.420 . S
C171 C174 1.351 . S
C171 H194 0.931 . S
C172 C169 1.429 . S
C172 C170 1.420 . S
C172 N180 1.362 . S
C173 C169 1.411 . S
C173 C171 1.420 . S
C173 C178 1.395 . S
C174 C170 1.423 . S
C174 C171 1.351 . S
C174 H186 0.930 . S
C175 C177 1.400 . S
C175 C178 1.386 . S
C175 H187 0.930 . S
N176 C169 1.377 . S
N176 C177 1.321 . S
N176 Eu179 2.609 . S
C177 C175 1.400 . S
C177 N176 1.321 . S
C177 H184 0.930 . S
C178 C173 1.395 . S
C178 C175 1.386 . S
C178 H197 0.930 . S
Eu179 N176 2.609 . S
Eu179 N180 2.657 . S
Eu179 O213 2.380 . S
Eu179 O214 2.432 . S
Eu179 O218 2.558 . S
Eu179 O219 2.612 . S
Eu179 O221 2.339 . S
Eu179 O222 2.563 . S
Eu179 O223 2.419 . S
Eu179 C243 2.848 . S
N180 C172 1.362 . S
N180 Eu179 2.657 . S
N180 C181 1.334 . S
C181 N180 1.334 . S
C181 C183 1.413 . S
C181 H188 0.929 . S
C182 C170 1.392 . S
C182 C183 1.367 . S
C182 H190 0.930 . S
C183 C181 1.413 . S
C183 C182 1.367 . S
C183 H185 0.930 . S
H184 C177 0.930 . S
H185 C183 0.930 . S
H186 C174 0.930 . S
H187 C175 0.930 . S
H188 C181 0.929 . S
H189 C203 0.930 . S
H190 C182 0.930 . S
H191 C209 0.930 . S
H192 C200 0.929 . S
H193 C207 0.930 . S
H194 C171 0.931 . S
H195 C201 0.930 . S
H196 C234 0.930 . S
H197 C178 0.930 . S
H198 C233 0.931 . S
N199 Eu168 2.657 . S
N199 C200 1.334 . S
N199 C204 1.362 . S
C200 H192 0.929 . S
C200 N199 1.334 . S
C200 C203 1.413 . S
C201 H195 0.930 . S
C201 C202 1.392 . S
C201 C203 1.367 . S
C202 C201 1.392 . S
C202 C204 1.420 . S
C202 C234 1.423 . S
C203 H189 0.930 . S
C203 C200 1.413 . S
C203 C201 1.367 . S
C204 N199 1.362 . S
C204 C202 1.420 . S
C204 C208 1.429 . S
H205 C210 0.930 . S
N206 Eu168 2.609 . S
N206 C208 1.377 . S
N206 C209 1.321 . S
C207 H193 0.930 . S
C207 C209 1.400 . S
C207 C210 1.386 . S
C208 C204 1.429 . S
C208 N206 1.377 . S
C208 C211 1.411 . S
C209 H191 0.930 . S
C209 N206 1.321 . S
C209 C207 1.400 . S
C210 H205 0.930 . S
C210 C207 1.386 . S
C210 C211 1.395 . S
C211 C208 1.411 . S
C211 C210 1.395 . S
C211 C233 1.420 . S
O212 Eu168 2.558 . S
O212 C232 1.257 . S
O213 Eu168 2.612 . S
O213 Eu179 2.380 . S
O213 C224 1.276 . S
O214 Eu179 2.432 . S
O214 C231 1.264 . S
O215 Eu168 2.339 . S
O215 C231 1.254 . S
O216 Eu168 2.563 . S
O216 C224 1.235 . S
O217 Eu168 2.419 . S
O217 C232 1.249 . S
O218 Eu179 2.558 . S
O218 C243 1.257 . S
O219 Eu168 2.380 . S
O219 Eu179 2.612 . S
O219 C235 1.276 . S
O220 Eu168 2.432 . S
O220 C242 1.264 . S
O221 Eu179 2.339 . S
O221 C242 1.254 . S
O222 Eu179 2.563 . S
O222 C235 1.235 . S
O223 Eu179 2.419 . S
O223 C243 1.249 . S
C224 O213 1.276 . S
C224 O216 1.235 . S
C225 C227 1.393 . S
C225 C229 1.395 . S
C225 C232 1.492 . S
C226 C227 1.392 . S
C226 C228 1.386 . S
C227 C225 1.393 . S
C227 C226 1.392 . S
C227 H244 0.930 . S
C228 C226 1.386 . S
C228 C230 1.395 . S
C228 H245 0.930 . S
C229 C225 1.395 . S
C229 C230 1.379 . S
C229 H246 0.930 . S
C230 C228 1.395 . S
C230 C229 1.379 . S
C230 H247 0.930 . S
C231 O214 1.264 . S
C231 O215 1.254 . S
C232 Eu168 2.848 . S
C232 O212 1.257 . S
C232 O217 1.249 . S
C232 C225 1.492 . S
C233 H198 0.931 . S
C233 C211 1.420 . S
C233 C234 1.351 . S
C234 H196 0.930 . S
C234 C202 1.423 . S
C234 C233 1.351 . S
C235 O219 1.276 . S
C235 O222 1.235 . S
C236 C237 1.393 . S
C236 C240 1.395 . S
C236 C243 1.492 . S
C237 C236 1.393 . S
C237 C238 1.392 . S
C237 H248 0.930 . S
C238 C237 1.392 . S
C238 C239 1.386 . S
C239 C238 1.386 . S
C239 C241 1.395 . S
C239 H249 0.930 . S
C240 C236 1.395 . S
C240 C241 1.379 . S
C240 H250 0.930 . S
C241 C239 1.395 . S
C241 C240 1.379 . S
C241 H251 0.930 . S
C242 O220 1.264 . S
C242 O221 1.254 . S
C243 Eu179 2.848 . S
C243 O218 1.257 . S
C243 O223 1.249 . S
C243 C236 1.492 . S
H244 C227 0.930 . S
H245 C228 0.930 . S
H246 C229 0.930 . S
H247 C230 0.930 . S
H248 C237 0.930 . S
H249 C239 0.930 . S
H250 C240 0.930 . S
H251 C241 0.930 . S
Eu252 N283 2.657 . S
Eu252 N290 2.609 . S
Eu252 O296 2.558 . S
Eu252 O297 2.612 . S
Eu252 O299 2.339 . S
Eu252 O300 2.563 . S
Eu252 O301 2.419 . S
Eu252 O303 2.380 . S
Eu252 O304 2.432 . S
Eu252 C316 2.848 . S
C253 C256 1.429 . S
C253 C257 1.411 . S
C253 N260 1.377 . S
C254 C256 1.420 . S
C254 C258 1.423 . S
C254 C266 1.392 . S
C255 C257 1.420 . S
C255 C258 1.351 . S
C255 H278 0.931 . S
C256 C253 1.429 . S
C256 C254 1.420 . S
C256 N264 1.362 . S
C257 C253 1.411 . S
C257 C255 1.420 . S
C257 C262 1.395 . S
C258 C254 1.423 . S
C258 C255 1.351 . S
C258 H270 0.930 . S
C259 C261 1.400 . S
C259 C262 1.386 . S
C259 H271 0.930 . S
N260 C253 1.377 . S
N260 C261 1.321 . S
N260 Eu263 2.609 . S
C261 C259 1.400 . S
C261 N260 1.321 . S
C261 H268 0.930 . S
C262 C257 1.395 . S
C262 C259 1.386 . S
C262 H281 0.930 . S
Eu263 N260 2.609 . S
Eu263 N264 2.657 . S
Eu263 O297 2.380 . S
Eu263 O298 2.432 . S
Eu263 O302 2.558 . S
Eu263 O303 2.612 . S
Eu263 O305 2.339 . S
Eu263 O306 2.563 . S
Eu263 O307 2.419 . S
Eu263 C327 2.848 . S
N264 C256 1.362 . S
N264 Eu263 2.657 . S
N264 C265 1.334 . S
C265 N264 1.334 . S
C265 C267 1.413 . S
C265 H272 0.929 . S
C266 C254 1.392 . S
C266 C267 1.367 . S
C266 H274 0.930 . S
C267 C265 1.413 . S
C267 C266 1.367 . S
C267 H269 0.930 . S
H268 C261 0.930 . S
H269 C267 0.930 . S
H270 C258 0.930 . S
H271 C259 0.930 . S
H272 C265 0.929 . S
H273 C287 0.930 . S
H274 C266 0.930 . S
H275 C293 0.930 . S
H276 C284 0.929 . S
H277 C291 0.930 . S
H278 C255 0.931 . S
H279 C285 0.930 . S
H280 C318 0.930 . S
H281 C262 0.930 . S
H282 C317 0.931 . S
N283 Eu252 2.657 . S
N283 C284 1.334 . S
N283 C288 1.362 . S
C284 H276 0.929 . S
C284 N283 1.334 . S
C284 C287 1.413 . S
C285 H279 0.930 . S
C285 C286 1.392 . S
C285 C287 1.367 . S
C286 C285 1.392 . S
C286 C288 1.420 . S
C286 C318 1.423 . S
C287 H273 0.930 . S
C287 C284 1.413 . S
C287 C285 1.367 . S
C288 N283 1.362 . S
C288 C286 1.420 . S
C288 C292 1.429 . S
H289 C294 0.930 . S
N290 Eu252 2.609 . S
N290 C292 1.377 . S
N290 C293 1.321 . S
C291 H277 0.930 . S
C291 C293 1.400 . S
C291 C294 1.386 . S
C292 C288 1.429 . S
C292 N290 1.377 . S
C292 C295 1.411 . S
C293 H275 0.930 . S
C293 N290 1.321 . S
C293 C291 1.400 . S
C294 H289 0.930 . S
C294 C291 1.386 . S
C294 C295 1.395 . S
C295 C292 1.411 . S
C295 C294 1.395 . S
C295 C317 1.420 . S
O296 Eu252 2.558 . S
O296 C316 1.257 . S
O297 Eu252 2.612 . S
O297 Eu263 2.380 . S
O297 C308 1.276 . S
O298 Eu263 2.432 . S
O298 C315 1.264 . S
O299 Eu252 2.339 . S
O299 C315 1.254 . S
O300 Eu252 2.563 . S
O300 C308 1.235 . S
O301 Eu252 2.419 . S
O301 C316 1.249 . S
O302 Eu263 2.558 . S
O302 C327 1.257 . S
O303 Eu252 2.380 . S
O303 Eu263 2.612 . S
O303 C319 1.276 . S
O304 Eu252 2.432 . S
O304 C326 1.264 . S
O305 Eu263 2.339 . S
O305 C326 1.254 . S
O306 Eu263 2.563 . S
O306 C319 1.235 . S
O307 Eu263 2.419 . S
O307 C327 1.249 . S
C308 O297 1.276 . S
C308 O300 1.235 . S
C309 C311 1.393 . S
C309 C313 1.395 . S
C309 C316 1.492 . S
C310 C311 1.392 . S
C310 C312 1.386 . S
C311 C309 1.393 . S
C311 C310 1.392 . S
C311 H328 0.930 . S
C312 C310 1.386 . S
C312 C314 1.395 . S
C312 H329 0.930 . S
C313 C309 1.395 . S
C313 C314 1.379 . S
C313 H330 0.930 . S
C314 C312 1.395 . S
C314 C313 1.379 . S
C314 H331 0.930 . S
C315 O298 1.264 . S
C315 O299 1.254 . S
C316 Eu252 2.848 . S
C316 O296 1.257 . S
C316 O301 1.249 . S
C316 C309 1.492 . S
C317 H282 0.931 . S
C317 C295 1.420 . S
C317 C318 1.351 . S
C318 H280 0.930 . S
C318 C286 1.423 . S
C318 C317 1.351 . S
C319 O303 1.276 . S
C319 O306 1.235 . S
C320 C321 1.393 . S
C320 C324 1.395 . S
C320 C327 1.492 . S
C321 C320 1.393 . S
C321 C322 1.392 . S
C321 H332 0.930 . S
C322 C321 1.392 . S
C322 C323 1.386 . S
C323 C322 1.386 . S
C323 C325 1.395 . S
C323 H333 0.930 . S
C324 C320 1.395 . S
C324 C325 1.379 . S
C324 H334 0.930 . S
C325 C323 1.395 . S
C325 C324 1.379 . S
C325 H335 0.930 . S
C326 O304 1.264 . S
C326 O305 1.254 . S
C327 Eu263 2.848 . S
C327 O302 1.257 . S
C327 O307 1.249 . S
C327 C320 1.492 . S
H328 C311 0.930 . S
H329 C312 0.930 . S
H330 C313 0.930 . S
H331 C314 0.930 . S
H332 C321 0.930 . S
H333 C323 0.930 . S
H334 C324 0.930 . S
H335 C325 0.930 . S
Eu336 N367 2.657 . S
Eu336 N374 2.609 . S
Eu336 O380 2.558 . S
Eu336 O381 2.612 . S
Eu336 O383 2.339 . S
Eu336 O384 2.563 . S
Eu336 O385 2.419 . S
Eu336 O387 2.380 . S
Eu336 O388 2.432 . S
Eu336 C400 2.848 . S
C337 C340 1.429 . S
C337 C341 1.411 . S
C337 N344 1.377 . S
C338 C340 1.420 . S
C338 C342 1.423 . S
C338 C350 1.392 . S
C339 C341 1.420 . S
C339 C342 1.351 . S
C339 H362 0.931 . S
C340 C337 1.429 . S
C340 C338 1.420 . S
C340 N348 1.362 . S
C341 C337 1.411 . S
C341 C339 1.420 . S
C341 C346 1.395 . S
C342 C338 1.423 . S
C342 C339 1.351 . S
C342 H354 0.930 . S
C343 C345 1.400 . S
C343 C346 1.386 . S
C343 H355 0.930 . S
N344 C337 1.377 . S
N344 C345 1.321 . S
N344 Eu347 2.609 . S
C345 C343 1.400 . S
C345 N344 1.321 . S
C345 H352 0.930 . S
C346 C341 1.395 . S
C346 C343 1.386 . S
C346 H365 0.930 . S
Eu347 N344 2.609 . S
Eu347 N348 2.657 . S
Eu347 O381 2.380 . S
Eu347 O382 2.432 . S
Eu347 O386 2.558 . S
Eu347 O387 2.612 . S
Eu347 O389 2.339 . S
Eu347 O390 2.563 . S
Eu347 O391 2.419 . S
Eu347 C411 2.848 . S
N348 C340 1.362 . S
N348 Eu347 2.657 . S
N348 C349 1.334 . S
C349 N348 1.334 . S
C349 C351 1.413 . S
C349 H356 0.929 . S
C350 C338 1.392 . S
C350 C351 1.367 . S
C350 H358 0.930 . S
C351 C349 1.413 . S
C351 C350 1.367 . S
C351 H353 0.930 . S
H352 C345 0.930 . S
H353 C351 0.930 . S
H354 C342 0.930 . S
H355 C343 0.930 . S
H356 C349 0.929 . S
H357 C371 0.930 . S
H358 C350 0.930 . S
H359 C377 0.930 . S
H360 C368 0.929 . S
H361 C375 0.930 . S
H362 C339 0.931 . S
H363 C369 0.930 . S
H364 C402 0.930 . S
H365 C346 0.930 . S
H366 C401 0.931 . S
N367 Eu336 2.657 . S
N367 C368 1.334 . S
N367 C372 1.362 . S
C368 H360 0.929 . S
C368 N367 1.334 . S
C368 C371 1.413 . S
C369 H363 0.930 . S
C369 C370 1.392 . S
C369 C371 1.367 . S
C370 C369 1.392 . S
C370 C372 1.420 . S
C370 C402 1.423 . S
C371 H357 0.930 . S
C371 C368 1.413 . S
C371 C369 1.367 . S
C372 N367 1.362 . S
C372 C370 1.420 . S
C372 C376 1.429 . S
H373 C378 0.930 . S
N374 Eu336 2.609 . S
N374 C376 1.377 . S
N374 C377 1.321 . S
C375 H361 0.930 . S
C375 C377 1.400 . S
C375 C378 1.386 . S
C376 C372 1.429 . S
C376 N374 1.377 . S
C376 C379 1.411 . S
C377 H359 0.930 . S
C377 N374 1.321 . S
C377 C375 1.400 . S
C378 H373 0.930 . S
C378 C375 1.386 . S
C378 C379 1.395 . S
C379 C376 1.411 . S
C379 C378 1.395 . S
C379 C401 1.420 . S
O380 Eu336 2.558 . S
O380 C400 1.257 . S
O381 Eu336 2.612 . S
O381 Eu347 2.380 . S
O381 C392 1.276 . S
O382 Eu347 2.432 . S
O382 C399 1.264 . S
O383 Eu336 2.339 . S
O383 C399 1.254 . S
O384 Eu336 2.563 . S
O384 C392 1.235 . S
O385 Eu336 2.419 . S
O385 C400 1.249 . S
O386 Eu347 2.558 . S
O386 C411 1.257 . S
O387 Eu336 2.380 . S
O387 Eu347 2.612 . S
O387 C403 1.276 . S
O388 Eu336 2.432 . S
O388 C410 1.264 . S
O389 Eu347 2.339 . S
O389 C410 1.254 . S
O390 Eu347 2.563 . S
O390 C403 1.235 . S
O391 Eu347 2.419 . S
O391 C411 1.249 . S
C392 O381 1.276 . S
C392 O384 1.235 . S
C393 C395 1.393 . S
C393 C397 1.395 . S
C393 C400 1.492 . S
C394 C395 1.392 . S
C394 C396 1.386 . S
C395 C393 1.393 . S
C395 C394 1.392 . S
C395 H412 0.930 . S
C396 C394 1.386 . S
C396 C398 1.395 . S
C396 H413 0.930 . S
C397 C393 1.395 . S
C397 C398 1.379 . S
C397 H414 0.930 . S
C398 C396 1.395 . S
C398 C397 1.379 . S
C398 H415 0.930 . S
C399 O382 1.264 . S
C399 O383 1.254 . S
C400 Eu336 2.848 . S
C400 O380 1.257 . S
C400 O385 1.249 . S
C400 C393 1.492 . S
C401 H366 0.931 . S
C401 C379 1.420 . S
C401 C402 1.351 . S
C402 H364 0.930 . S
C402 C370 1.423 . S
C402 C401 1.351 . S
C403 O387 1.276 . S
C403 O390 1.235 . S
C404 C405 1.393 . S
C404 C408 1.395 . S
C404 C411 1.492 . S
C405 C404 1.393 . S
C405 C406 1.392 . S
C405 H416 0.930 . S
C406 C405 1.392 . S
C406 C407 1.386 . S
C407 C406 1.386 . S
C407 C409 1.395 . S
C407 H417 0.930 . S
C408 C404 1.395 . S
C408 C409 1.379 . S
C408 H418 0.930 . S
C409 C407 1.395 . S
C409 C408 1.379 . S
C409 H419 0.930 . S
C410 O388 1.264 . S
C410 O389 1.254 . S
C411 Eu347 2.848 . S
C411 O386 1.257 . S
C411 O391 1.249 . S
C411 C404 1.492 . S
H412 C395 0.930 . S
H413 C396 0.930 . S
H414 C397 0.930 . S
H415 C398 0.930 . S
H416 C405 0.930 . S
H417 C407 0.930 . S
H418 C408 0.930 . S
H419 C409 0.930 . S
Eu420 N451 2.657 . S
Eu420 N458 2.609 . S
Eu420 O464 2.558 . S
Eu420 O465 2.612 . S
Eu420 O467 2.339 . S
Eu420 O468 2.563 . S
Eu420 O469 2.419 . S
Eu420 O471 2.380 . S
Eu420 O472 2.432 . S
Eu420 C484 2.848 . S
C421 C424 1.429 . S
C421 C425 1.411 . S
C421 N428 1.377 . S
C422 C424 1.420 . S
C422 C426 1.423 . S
C422 C434 1.392 . S
C423 C425 1.420 . S
C423 C426 1.351 . S
C423 H446 0.931 . S
C424 C421 1.429 . S
C424 C422 1.420 . S
C424 N432 1.362 . S
C425 C421 1.411 . S
C425 C423 1.420 . S
C425 C430 1.395 . S
C426 C422 1.423 . S
C426 C423 1.351 . S
C426 H438 0.930 . S
C427 C429 1.400 . S
C427 C430 1.386 . S
C427 H439 0.930 . S
N428 C421 1.377 . S
N428 C429 1.321 . S
N428 Eu431 2.609 . S
C429 C427 1.400 . S
C429 N428 1.321 . S
C429 H436 0.930 . S
C430 C425 1.395 . S
C430 C427 1.386 . S
C430 H449 0.930 . S
Eu431 N428 2.609 . S
Eu431 N432 2.657 . S
Eu431 O465 2.380 . S
Eu431 O466 2.432 . S
Eu431 O470 2.558 . S
Eu431 O471 2.612 . S
Eu431 O473 2.339 . S
Eu431 O474 2.563 . S
Eu431 O475 2.419 . S
Eu431 C495 2.848 . S
N432 C424 1.362 . S
N432 Eu431 2.657 . S
N432 C433 1.334 . S
C433 N432 1.334 . S
C433 C435 1.413 . S
C433 H440 0.929 . S
C434 C422 1.392 . S
C434 C435 1.367 . S
C434 H442 0.930 . S
C435 C433 1.413 . S
C435 C434 1.367 . S
C435 H437 0.930 . S
H436 C429 0.930 . S
H437 C435 0.930 . S
H438 C426 0.930 . S
H439 C427 0.930 . S
H440 C433 0.929 . S
H441 C455 0.930 . S
H442 C434 0.930 . S
H443 C461 0.930 . S
H444 C452 0.929 . S
H445 C459 0.930 . S
H446 C423 0.931 . S
H447 C453 0.930 . S
H448 C486 0.930 . S
H449 C430 0.930 . S
H450 C485 0.931 . S
N451 Eu420 2.657 . S
N451 C452 1.334 . S
N451 C456 1.362 . S
C452 H444 0.929 . S
C452 N451 1.334 . S
C452 C455 1.413 . S
C453 H447 0.930 . S
C453 C454 1.392 . S
C453 C455 1.367 . S
C454 C453 1.392 . S
C454 C456 1.420 . S
C454 C486 1.423 . S
C455 H441 0.930 . S
C455 C452 1.413 . S
C455 C453 1.367 . S
C456 N451 1.362 . S
C456 C454 1.420 . S
C456 C460 1.429 . S
H457 C462 0.930 . S
N458 Eu420 2.609 . S
N458 C460 1.377 . S
N458 C461 1.321 . S
C459 H445 0.930 . S
C459 C461 1.400 . S
C459 C462 1.386 . S
C460 C456 1.429 . S
C460 N458 1.377 . S
C460 C463 1.411 . S
C461 H443 0.930 . S
C461 N458 1.321 . S
C461 C459 1.400 . S
C462 H457 0.930 . S
C462 C459 1.386 . S
C462 C463 1.395 . S
C463 C460 1.411 . S
C463 C462 1.395 . S
C463 C485 1.420 . S
O464 Eu420 2.558 . S
O464 C484 1.257 . S
O465 Eu420 2.612 . S
O465 Eu431 2.380 . S
O465 C476 1.276 . S
O466 Eu431 2.432 . S
O466 C483 1.264 . S
O467 Eu420 2.339 . S
O467 C483 1.254 . S
O468 Eu420 2.563 . S
O468 C476 1.235 . S
O469 Eu420 2.419 . S
O469 C484 1.249 . S
O470 Eu431 2.558 . S
O470 C495 1.257 . S
O471 Eu420 2.380 . S
O471 Eu431 2.612 . S
O471 C487 1.276 . S
O472 Eu420 2.432 . S
O472 C494 1.264 . S
O473 Eu431 2.339 . S
O473 C494 1.254 . S
O474 Eu431 2.563 . S
O474 C487 1.235 . S
O475 Eu431 2.419 . S
O475 C495 1.249 . S
C476 O465 1.276 . S
C476 O468 1.235 . S
C477 C479 1.393 . S
C477 C481 1.395 . S
C477 C484 1.492 . S
C478 C479 1.392 . S
C478 C480 1.386 . S
C479 C477 1.393 . S
C479 C478 1.392 . S
C479 H496 0.930 . S
C480 C478 1.386 . S
C480 C482 1.395 . S
C480 H497 0.930 . S
C481 C477 1.395 . S
C481 C482 1.379 . S
C481 H498 0.930 . S
C482 C480 1.395 . S
C482 C481 1.379 . S
C482 H499 0.930 . S
C483 O466 1.264 . S
C483 O467 1.254 . S
C484 Eu420 2.848 . S
C484 O464 1.257 . S
C484 O469 1.249 . S
C484 C477 1.492 . S
C485 H450 0.931 . S
C485 C463 1.420 . S
C485 C486 1.351 . S
C486 H448 0.930 . S
C486 C454 1.423 . S
C486 C485 1.351 . S
C487 O471 1.276 . S
C487 O474 1.235 . S
C488 C489 1.393 . S
C488 C492 1.395 . S
C488 C495 1.492 . S
C489 C488 1.393 . S
C489 C490 1.392 . S
C489 H500 0.930 . S
C490 C489 1.392 . S
C490 C491 1.386 . S
C491 C490 1.386 . S
C491 C493 1.395 . S
C491 H501 0.930 . S
C492 C488 1.395 . S
C492 C493 1.379 . S
C492 H502 0.930 . S
C493 C491 1.395 . S
C493 C492 1.379 . S
C493 H503 0.930 . S
C494 O472 1.264 . S
C494 O473 1.254 . S
C495 Eu431 2.848 . S
C495 O470 1.257 . S
C495 O475 1.249 . S
C495 C488 1.492 . S
H496 C479 0.930 . S
H497 C480 0.930 . S
H498 C481 0.930 . S
H499 C482 0.930 . S
H500 C489 0.930 . S
H501 C491 0.930 . S
H502 C492 0.930 . S
H503 C493 0.930 . S
Eu504 N535 2.657 . S
Eu504 N542 2.609 . S
Eu504 O548 2.558 . S
Eu504 O549 2.612 . S
Eu504 O551 2.339 . S
Eu504 O552 2.563 . S
Eu504 O553 2.419 . S
Eu504 O555 2.380 . S
Eu504 O556 2.432 . S
Eu504 C568 2.848 . S
C505 C508 1.429 . S
C505 C509 1.411 . S
C505 N512 1.377 . S
C506 C508 1.420 . S
C506 C510 1.423 . S
C506 C518 1.392 . S
C507 C509 1.420 . S
C507 C510 1.351 . S
C507 H530 0.931 . S
C508 C505 1.429 . S
C508 C506 1.420 . S
C508 N516 1.362 . S
C509 C505 1.411 . S
C509 C507 1.420 . S
C509 C514 1.395 . S
C510 C506 1.423 . S
C510 C507 1.351 . S
C510 H522 0.930 . S
C511 C513 1.400 . S
C511 C514 1.386 . S
C511 H523 0.930 . S
N512 C505 1.377 . S
N512 C513 1.321 . S
N512 Eu515 2.609 . S
C513 C511 1.400 . S
C513 N512 1.321 . S
C513 H520 0.930 . S
C514 C509 1.395 . S
C514 C511 1.386 . S
C514 H533 0.930 . S
Eu515 N512 2.609 . S
Eu515 N516 2.657 . S
Eu515 O549 2.380 . S
Eu515 O550 2.432 . S
Eu515 O554 2.558 . S
Eu515 O555 2.612 . S
Eu515 O557 2.339 . S
Eu515 O558 2.563 . S
Eu515 O559 2.419 . S
Eu515 C579 2.848 . S
N516 C508 1.362 . S
N516 Eu515 2.657 . S
N516 C517 1.334 . S
C517 N516 1.334 . S
C517 C519 1.413 . S
C517 H524 0.929 . S
C518 C506 1.392 . S
C518 C519 1.367 . S
C518 H526 0.930 . S
C519 C517 1.413 . S
C519 C518 1.367 . S
C519 H521 0.930 . S
H520 C513 0.930 . S
H521 C519 0.930 . S
H522 C510 0.930 . S
H523 C511 0.930 . S
H524 C517 0.929 . S
H525 C539 0.930 . S
H526 C518 0.930 . S
H527 C545 0.930 . S
H528 C536 0.929 . S
H529 C543 0.930 . S
H530 C507 0.931 . S
H531 C537 0.930 . S
H532 C570 0.930 . S
H533 C514 0.930 . S
H534 C569 0.931 . S
N535 Eu504 2.657 . S
N535 C536 1.334 . S
N535 C540 1.362 . S
C536 H528 0.929 . S
C536 N535 1.334 . S
C536 C539 1.413 . S
C537 H531 0.930 . S
C537 C538 1.392 . S
C537 C539 1.367 . S
C538 C537 1.392 . S
C538 C540 1.420 . S
C538 C570 1.423 . S
C539 H525 0.930 . S
C539 C536 1.413 . S
C539 C537 1.367 . S
C540 N535 1.362 . S
C540 C538 1.420 . S
C540 C544 1.429 . S
H541 C546 0.930 . S
N542 Eu504 2.609 . S
N542 C544 1.377 . S
N542 C545 1.321 . S
C543 H529 0.930 . S
C543 C545 1.400 . S
C543 C546 1.386 . S
C544 C540 1.429 . S
C544 N542 1.377 . S
C544 C547 1.411 . S
C545 H527 0.930 . S
C545 N542 1.321 . S
C545 C543 1.400 . S
C546 H541 0.930 . S
C546 C543 1.386 . S
C546 C547 1.395 . S
C547 C544 1.411 . S
C547 C546 1.395 . S
C547 C569 1.420 . S
O548 Eu504 2.558 . S
O548 C568 1.257 . S
O549 Eu504 2.612 . S
O549 Eu515 2.380 . S
O549 C560 1.276 . S
O550 Eu515 2.432 . S
O550 C567 1.264 . S
O551 Eu504 2.339 . S
O551 C567 1.254 . S
O552 Eu504 2.563 . S
O552 C560 1.235 . S
O553 Eu504 2.419 . S
O553 C568 1.249 . S
O554 Eu515 2.558 . S
O554 C579 1.257 . S
O555 Eu504 2.380 . S
O555 Eu515 2.612 . S
O555 C571 1.276 . S
O556 Eu504 2.432 . S
O556 C578 1.264 . S
O557 Eu515 2.339 . S
O557 C578 1.254 . S
O558 Eu515 2.563 . S
O558 C571 1.235 . S
O559 Eu515 2.419 . S
O559 C579 1.249 . S
C560 O549 1.276 . S
C560 O552 1.235 . S
C561 C563 1.393 . S
C561 C565 1.395 . S
C561 C568 1.492 . S
C562 C563 1.392 . S
C562 C564 1.386 . S
C563 C561 1.393 . S
C563 C562 1.392 . S
C563 H580 0.930 . S
C564 C562 1.386 . S
C564 C566 1.395 . S
C564 H581 0.930 . S
C565 C561 1.395 . S
C565 C566 1.379 . S
C565 H582 0.930 . S
C566 C564 1.395 . S
C566 C565 1.379 . S
C566 H583 0.930 . S
C567 O550 1.264 . S
C567 O551 1.254 . S
C568 Eu504 2.848 . S
C568 O548 1.257 . S
C568 O553 1.249 . S
C568 C561 1.492 . S
C569 H534 0.931 . S
C569 C547 1.420 . S
C569 C570 1.351 . S
C570 H532 0.930 . S
C570 C538 1.423 . S
C570 C569 1.351 . S
C571 O555 1.276 . S
C571 O558 1.235 . S
C572 C573 1.393 . S
C572 C576 1.395 . S
C572 C579 1.492 . S
C573 C572 1.393 . S
C573 C574 1.392 . S
C573 H584 0.930 . S
C574 C573 1.392 . S
C574 C575 1.386 . S
C575 C574 1.386 . S
C575 C577 1.395 . S
C575 H585 0.930 . S
C576 C572 1.395 . S
C576 C577 1.379 . S
C576 H586 0.930 . S
C577 C575 1.395 . S
C577 C576 1.379 . S
C577 H587 0.930 . S
C578 O556 1.264 . S
C578 O557 1.254 . S
C579 Eu515 2.848 . S
C579 O554 1.257 . S
C579 O559 1.249 . S
C579 C572 1.492 . S
H580 C563 0.930 . S
H581 C564 0.930 . S
H582 C565 0.930 . S
H583 C566 0.930 . S
H584 C573 0.930 . S
H585 C575 0.930 . S
H586 C576 0.930 . S
H587 C577 0.930 . S
Eu588 N619 2.657 . S
Eu588 N626 2.609 . S
Eu588 O632 2.558 . S
Eu588 O633 2.612 . S
Eu588 O635 2.339 . S
Eu588 O636 2.563 . S
Eu588 O637 2.419 . S
Eu588 O639 2.380 . S
Eu588 O640 2.432 . S
Eu588 C652 2.848 . S
C589 C592 1.429 . S
C589 C593 1.411 . S
C589 N596 1.377 . S
C590 C592 1.420 . S
C590 C594 1.423 . S
C590 C602 1.392 . S
C591 C593 1.420 . S
C591 C594 1.351 . S
C591 H614 0.931 . S
C592 C589 1.429 . S
C592 C590 1.420 . S
C592 N600 1.362 . S
C593 C589 1.411 . S
C593 C591 1.420 . S
C593 C598 1.395 . S
C594 C590 1.423 . S
C594 C591 1.351 . S
C594 H606 0.930 . S
C595 C597 1.400 . S
C595 C598 1.386 . S
C595 H607 0.930 . S
N596 C589 1.377 . S
N596 C597 1.321 . S
N596 Eu599 2.609 . S
C597 C595 1.400 . S
C597 N596 1.321 . S
C597 H604 0.930 . S
C598 C593 1.395 . S
C598 C595 1.386 . S
C598 H617 0.930 . S
Eu599 N596 2.609 . S
Eu599 N600 2.657 . S
Eu599 O633 2.380 . S
Eu599 O634 2.432 . S
Eu599 O638 2.558 . S
Eu599 O639 2.612 . S
Eu599 O641 2.339 . S
Eu599 O642 2.563 . S
Eu599 O643 2.419 . S
Eu599 C663 2.848 . S
N600 C592 1.362 . S
N600 Eu599 2.657 . S
N600 C601 1.334 . S
C601 N600 1.334 . S
C601 C603 1.413 . S
C601 H608 0.929 . S
C602 C590 1.392 . S
C602 C603 1.367 . S
C602 H610 0.930 . S
C603 C601 1.413 . S
C603 C602 1.367 . S
C603 H605 0.930 . S
H604 C597 0.930 . S
H605 C603 0.930 . S
H606 C594 0.930 . S
H607 C595 0.930 . S
H608 C601 0.929 . S
H609 C623 0.930 . S
H610 C602 0.930 . S
H611 C629 0.930 . S
H612 C620 0.929 . S
H613 C627 0.930 . S
H614 C591 0.931 . S
H615 C621 0.930 . S
H616 C654 0.930 . S
H617 C598 0.930 . S
H618 C653 0.931 . S
N619 Eu588 2.657 . S
N619 C620 1.334 . S
N619 C624 1.362 . S
C620 H612 0.929 . S
C620 N619 1.334 . S
C620 C623 1.413 . S
C621 H615 0.930 . S
C621 C622 1.392 . S
C621 C623 1.367 . S
C622 C621 1.392 . S
C622 C624 1.420 . S
C622 C654 1.423 . S
C623 H609 0.930 . S
C623 C620 1.413 . S
C623 C621 1.367 . S
C624 N619 1.362 . S
C624 C622 1.420 . S
C624 C628 1.429 . S
H625 C630 0.930 . S
N626 Eu588 2.609 . S
N626 C628 1.377 . S
N626 C629 1.321 . S
C627 H613 0.930 . S
C627 C629 1.400 . S
C627 C630 1.386 . S
C628 C624 1.429 . S
C628 N626 1.377 . S
C628 C631 1.411 . S
C629 H611 0.930 . S
C629 N626 1.321 . S
C629 C627 1.400 . S
C630 H625 0.930 . S
C630 C627 1.386 . S
C630 C631 1.395 . S
C631 C628 1.411 . S
C631 C630 1.395 . S
C631 C653 1.420 . S
O632 Eu588 2.558 . S
O632 C652 1.257 . S
O633 Eu588 2.612 . S
O633 Eu599 2.380 . S
O633 C644 1.276 . S
O634 Eu599 2.432 . S
O634 C651 1.264 . S
O635 Eu588 2.339 . S
O635 C651 1.254 . S
O636 Eu588 2.563 . S
O636 C644 1.235 . S
O637 Eu588 2.419 . S
O637 C652 1.249 . S
O638 Eu599 2.558 . S
O638 C663 1.257 . S
O639 Eu588 2.380 . S
O639 Eu599 2.612 . S
O639 C655 1.276 . S
O640 Eu588 2.432 . S
O640 C662 1.264 . S
O641 Eu599 2.339 . S
O641 C662 1.254 . S
O642 Eu599 2.563 . S
O642 C655 1.235 . S
O643 Eu599 2.419 . S
O643 C663 1.249 . S
C644 O633 1.276 . S
C644 O636 1.235 . S
C645 C647 1.393 . S
C645 C649 1.395 . S
C645 C652 1.492 . S
C646 C647 1.392 . S
C646 C648 1.386 . S
C647 C645 1.393 . S
C647 C646 1.392 . S
C647 H664 0.930 . S
C648 C646 1.386 . S
C648 C650 1.395 . S
C648 H665 0.930 . S
C649 C645 1.395 . S
C649 C650 1.379 . S
C649 H666 0.930 . S
C650 C648 1.395 . S
C650 C649 1.379 . S
C650 H667 0.930 . S
C651 O634 1.264 . S
C651 O635 1.254 . S
C652 Eu588 2.848 . S
C652 O632 1.257 . S
C652 O637 1.249 . S
C652 C645 1.492 . S
C653 H618 0.931 . S
C653 C631 1.420 . S
C653 C654 1.351 . S
C654 H616 0.930 . S
C654 C622 1.423 . S
C654 C653 1.351 . S
C655 O639 1.276 . S
C655 O642 1.235 . S
C656 C657 1.393 . S
C656 C660 1.395 . S
C656 C663 1.492 . S
C657 C656 1.393 . S
C657 C658 1.392 . S
C657 H668 0.930 . S
C658 C657 1.392 . S
C658 C659 1.386 . S
C659 C658 1.386 . S
C659 C661 1.395 . S
C659 H669 0.930 . S
C660 C656 1.395 . S
C660 C661 1.379 . S
C660 H670 0.930 . S
C661 C659 1.395 . S
C661 C660 1.379 . S
C661 H671 0.930 . S
C662 O640 1.264 . S
C662 O641 1.254 . S
C663 Eu599 2.848 . S
C663 O638 1.257 . S
C663 O643 1.249 . S
C663 C656 1.492 . S
H664 C647 0.930 . S
H665 C648 0.930 . S
H666 C649 0.930 . S
H667 C650 0.930 . S
H668 C657 0.930 . S
H669 C659 0.930 . S
H670 C660 0.930 . S
H671 C661 0.930 . S
Co672 O675 2.042 . S
Co672 O682 2.264 . S
Co672 O701 2.286 . S
Co672 O702 2.069 . S
Co672 O704 2.015 1_455 S
Co673 O675 2.122 . S
Co673 O681 2.073 . S
Co673 O682 2.327 . S
Co673 O683 1.976 1_455 S
Co674 O675 2.088 1_545 S
Co674 O677 2.086 1_455 S
Co674 O684 2.107 1_445 S
Co674 O685 2.148 . S
Co674 O689 2.116 . S
Co674 O703 2.139 1_445 S
O675 Co672 2.042 . S
O675 Co673 2.122 . S
O675 Co674 2.088 1_565 S
O675 H676 0.980 . S
H676 O675 0.980 . S
O677 Co674 2.086 1_655 S
O677 Co678 2.042 . S
O677 Co679 2.122 . S
O677 H680 0.980 . S
Co678 O677 2.042 . S
Co678 O686 2.286 . S
Co678 O687 2.069 . S
Co678 O688 2.015 1_655 S
Co678 O691 2.264 . S
Co679 O677 2.122 . S
Co679 O690 1.976 1_655 S
Co679 O691 2.327 . S
Co679 O692 2.073 . S
H680 O677 0.980 . S
O681 Co673 2.073 . S
O681 C696 1.245 . S
O682 Co672 2.264 . S
O682 Co673 2.327 . S
O682 C696 1.257 . S
O683 Co673 1.976 1_655 S
O683 C695 1.251 . S
O684 Co674 2.107 1_665 S
O684 C695 1.274 . S
O685 Co674 2.148 . S
O685 C698 1.246 . S
O686 Co678 2.286 . S
O686 C697 1.259 . S
O687 Co678 2.069 . S
O687 C697 1.289 . S
O688 Co678 2.015 1_455 S
O688 C698 1.257 . S
O689 Co674 2.116 . S
O689 C699 1.274 . S
O690 Co679 1.976 1_455 S
O690 C699 1.251 . S
O691 Co678 2.264 . S
O691 Co679 2.327 . S
O691 C700 1.257 . S
O692 Co679 2.073 . S
O692 C700 1.245 . S
C693 O701 1.259 . S
C693 O702 1.289 . S
C694 O703 1.246 . S
C694 O704 1.257 . S
C695 O683 1.251 . S
C695 O684 1.274 . S
C696 O681 1.245 . S
C696 O682 1.257 . S
C697 O686 1.259 . S
C697 O687 1.289 . S
C698 O685 1.246 . S
C698 O688 1.257 . S
C699 O689 1.274 . S
C699 O690 1.251 . S
C700 O691 1.257 . S
C700 O692 1.245 . S
O701 Co672 2.286 . S
O701 C693 1.259 . S
O702 Co672 2.069 . S
O702 C693 1.289 . S
O703 Co674 2.139 1_665 S
O703 C694 1.246 . S
O704 Co672 2.015 1_655 S
O704 C694 1.257 . S
Co705 O708 2.042 1_556 S
Co705 O715 2.264 1_556 S
Co705 O734 2.286 . S
Co705 O735 2.069 . S
Co705 O737 2.015 . S
Co706 O708 2.122 . S
Co706 O714 2.073 . S
Co706 O715 2.327 . S
Co706 O716 1.976 . S
Co707 O708 2.083 1_545 S
Co707 O710 2.091 1_554 S
Co707 O717 2.110 1_545 S
Co707 O718 2.146 . S
Co707 O722 2.112 1_554 S
Co707 O736 2.141 1_544 S
O708 Co705 2.042 1_554 S
O708 Co706 2.122 . S
O708 Co707 2.083 1_565 S
O708 H709 0.980 . S
H709 O708 0.980 . S
O710 Co707 2.091 1_556 S
O710 Co711 2.042 1_556 S
O710 Co712 2.122 . S
O710 H713 0.980 . S
Co711 O710 2.042 1_554 S
Co711 O719 2.286 . S
Co711 O720 2.069 . S
Co711 O721 2.015 . S
Co711 O724 2.264 1_554 S
Co712 O710 2.122 . S
Co712 O723 1.976 . S
Co712 O724 2.327 . S
Co712 O725 2.073 . S
H713 O710 0.980 . S
O714 Co706 2.073 . S
O714 C729 1.245 . S
O715 Co705 2.264 1_554 S
O715 Co706 2.327 . S
O715 C729 1.257 . S
O716 Co706 1.976 . S
O716 C728 1.251 . S
O717 Co707 2.110 1_565 S
O717 C728 1.274 . S
O718 Co707 2.146 . S
O718 C731 1.246 . S
O719 Co711 2.286 . S
O719 C730 1.259 . S
O720 Co711 2.069 . S
O720 C730 1.289 . S
O721 Co711 2.015 . S
O721 C731 1.257 . S
O722 Co707 2.112 1_556 S
O722 C732 1.274 . S
O723 Co712 1.976 . S
O723 C732 1.251 . S
O724 Co711 2.264 1_556 S
O724 Co712 2.327 . S
O724 C733 1.257 . S
O725 Co712 2.073 . S
O725 C733 1.245 . S
C726 O734 1.259 . S
C726 O735 1.289 . S
C727 O736 1.246 . S
C727 O737 1.257 . S
C728 O716 1.251 . S
C728 O717 1.274 . S
C729 O714 1.245 . S
C729 O715 1.257 . S
C730 O719 1.259 . S
C730 O720 1.289 . S
C731 O718 1.246 . S
C731 O721 1.257 . S
C732 O722 1.274 . S
C732 O723 1.251 . S
C733 O724 1.257 . S
C733 O725 1.245 . S
O734 Co705 2.286 . S
O734 C726 1.259 . S
O735 Co705 2.069 . S
O735 C726 1.289 . S
O736 Co707 2.141 1_566 S
O736 C727 1.246 . S
O737 Co705 2.015 . S
O737 C727 1.257 . S
Co738 O741 2.042 1_556 S
Co738 O748 2.264 1_556 S
Co738 O767 2.286 . S
Co738 O768 2.069 . S
Co738 O770 2.015 1_455 S
Co739 O741 2.122 . S
Co739 O747 2.073 . S
Co739 O748 2.327 . S
Co739 O749 1.976 1_455 S
Co740 O741 2.092 . S
Co740 O743 2.082 1_454 S
Co740 O750 2.108 1_455 S
Co740 O751 2.145 . S
Co740 O755 2.115 1_554 S
Co740 O769 2.142 1_454 S
O741 Co738 2.042 1_554 S
O741 Co739 2.122 . S
O741 Co740 2.092 . S
O741 H742 0.980 . S
H742 O741 0.980 . S
O743 Co740 2.082 1_656 S
O743 Co744 2.042 1_556 S
O743 Co745 2.122 . S
O743 H746 0.980 . S
Co744 O743 2.042 1_554 S
Co744 O752 2.286 . S
Co744 O753 2.069 . S
Co744 O754 2.015 1_655 S
Co744 O757 2.264 1_554 S
Co745 O743 2.122 . S
Co745 O756 1.976 1_655 S
Co745 O757 2.327 . S
Co745 O758 2.073 . S
H746 O743 0.980 . S
O747 Co739 2.073 . S
O747 C762 1.245 . S
O748 Co738 2.264 1_554 S
O748 Co739 2.327 . S
O748 C762 1.257 . S
O749 Co739 1.976 1_655 S
O749 C761 1.251 . S
O750 Co740 2.108 1_655 S
O750 C761 1.274 . S
O751 Co740 2.145 . S
O751 C764 1.246 . S
O752 Co744 2.286 . S
O752 C763 1.259 . S
O753 Co744 2.069 . S
O753 C763 1.289 . S
O754 Co744 2.015 1_455 S
O754 C764 1.257 . S
O755 Co740 2.115 1_556 S
O755 C765 1.274 . S
O756 Co745 1.976 1_455 S
O756 C765 1.251 . S
O757 Co744 2.264 1_556 S
O757 Co745 2.327 . S
O757 C766 1.257 . S
O758 Co745 2.073 . S
O758 C766 1.245 . S
C759 O767 1.259 . S
C759 O768 1.289 . S
C760 O769 1.246 . S
C760 O770 1.257 . S
C761 O749 1.251 . S
C761 O750 1.274 . S
C762 O747 1.245 . S
C762 O748 1.257 . S
C763 O752 1.259 . S
C763 O753 1.289 . S
C764 O751 1.246 . S
C764 O754 1.257 . S
C765 O755 1.274 . S
C765 O756 1.251 . S
C766 O757 1.257 . S
C766 O758 1.245 . S
O767 Co738 2.286 . S
O767 C759 1.259 . S
O768 Co738 2.069 . S
O768 C759 1.289 . S
O769 Co740 2.142 1_656 S
O769 C760 1.246 . S
O770 Co738 2.015 1_655 S
O770 C760 1.257 . S
Co771 O774 2.042 1_556 S
Co771 O781 2.264 1_556 S
Co771 O800 2.286 . S
Co771 O801 2.069 . S
Co771 O803 2.015 . S
Co772 O774 2.122 . S
Co772 O780 2.073 . S
Co772 O781 2.327 . S
Co772 O782 1.976 . S
Co773 O774 2.087 . S
Co773 O776 2.087 1_554 S
Co773 O783 2.111 . S
Co773 O784 2.143 . S
Co773 O788 2.111 1_554 S
Co773 O802 2.143 1_554 S
O774 Co771 2.042 1_554 S
O774 Co772 2.122 . S
O774 Co773 2.087 . S
O774 H775 0.980 . S
H775 O774 0.980 . S
O776 Co773 2.087 1_556 S
O776 Co777 2.042 1_556 S
O776 Co778 2.122 . S
O776 H779 0.980 . S
Co777 O776 2.042 1_554 S
Co777 O785 2.286 . S
Co777 O786 2.069 . S
Co777 O787 2.015 . S
Co777 O790 2.264 1_554 S
Co778 O776 2.122 . S
Co778 O789 1.976 . S
Co778 O790 2.327 . S
Co778 O791 2.073 . S
H779 O776 0.980 . S
O780 Co772 2.073 . S
O780 C795 1.245 . S
O781 Co771 2.264 1_554 S
O781 Co772 2.327 . S
O781 C795 1.257 . S
O782 Co772 1.976 . S
O782 C794 1.251 . S
O783 Co773 2.111 . S
O783 C794 1.274 . S
O784 Co773 2.143 . S
O784 C797 1.246 . S
O785 Co777 2.286 . S
O785 C796 1.259 . S
O786 Co777 2.069 . S
O786 C796 1.289 . S
O787 Co777 2.015 . S
O787 C797 1.257 . S
O788 Co773 2.111 1_556 S
O788 C798 1.274 . S
O789 Co778 1.976 . S
O789 C798 1.251 . S
O790 Co777 2.264 1_556 S
O790 Co778 2.327 . S
O790 C799 1.257 . S
O791 Co778 2.073 . S
O791 C799 1.245 . S
C792 O800 1.259 . S
C792 O801 1.289 . S
C793 O802 1.246 . S
C793 O803 1.257 . S
C794 O782 1.251 . S
C794 O783 1.274 . S
C795 O780 1.245 . S
C795 O781 1.257 . S
C796 O785 1.259 . S
C796 O786 1.289 . S
C797 O784 1.246 . S
C797 O787 1.257 . S
C798 O788 1.274 . S
C798 O789 1.251 . S
C799 O790 1.257 . S
C799 O791 1.245 . S
O800 Co771 2.286 . S
O800 C792 1.259 . S
O801 Co771 2.069 . S
O801 C792 1.289 . S
O802 Co773 2.143 1_556 S
O802 C793 1.246 . S
O803 Co771 2.015 . S
O803 C793 1.257 . S
Co804 O807 2.042 . S
Co804 O814 2.264 . S
Co804 O833 2.286 . S
Co804 O834 2.069 . S
Co804 O836 2.015 . S
Co805 O807 2.122 . S
Co805 O813 2.073 . S
Co805 O814 2.327 . S
Co805 O815 1.976 . S
Co806 O807 2.093 . S
Co806 O809 2.081 1_455 S
Co806 O816 2.113 . S
Co806 O817 2.141 1_455 S
Co806 O821 2.110 1_455 S
Co806 O835 2.146 . S
O807 Co804 2.042 . S
O807 Co805 2.122 . S
O807 Co806 2.093 . S
O807 H808 0.980 . S
H808 O807 0.980 . S
O809 Co806 2.081 1_655 S
O809 Co810 2.042 . S
O809 Co811 2.122 . S
O809 H812 0.980 . S
Co810 O809 2.042 . S
Co810 O818 2.286 . S
Co810 O819 2.069 . S
Co810 O820 2.015 . S
Co810 O823 2.264 . S
Co811 O809 2.122 . S
Co811 O822 1.976 . S
Co811 O823 2.327 . S
Co811 O824 2.073 . S
H812 O809 0.980 . S
O813 Co805 2.073 . S
O813 C828 1.245 . S
O814 Co804 2.264 . S
O814 Co805 2.327 . S
O814 C828 1.257 . S
O815 Co805 1.976 . S
O815 C827 1.251 . S
O816 Co806 2.113 . S
O816 C827 1.274 . S
O817 Co806 2.141 1_655 S
O817 C830 1.246 . S
O818 Co810 2.286 . S
O818 C829 1.259 . S
O819 Co810 2.069 . S
O819 C829 1.289 . S
O820 Co810 2.015 . S
O820 C830 1.257 . S
O821 Co806 2.110 1_655 S
O821 C831 1.274 . S
O822 Co811 1.976 . S
O822 C831 1.251 . S
O823 Co810 2.264 . S
O823 Co811 2.327 . S
O823 C832 1.257 . S
O824 Co811 2.073 . S
O824 C832 1.245 . S
C825 O833 1.259 . S
C825 O834 1.289 . S
C826 O835 1.246 . S
C826 O836 1.257 . S
C827 O815 1.251 . S
C827 O816 1.274 . S
C828 O813 1.245 . S
C828 O814 1.257 . S
C829 O818 1.259 . S
C829 O819 1.289 . S
C830 O817 1.246 . S
C830 O820 1.257 . S
C831 O821 1.274 . S
C831 O822 1.251 . S
C832 O823 1.257 . S
C832 O824 1.245 . S
O833 Co804 2.286 . S
O833 C825 1.259 . S
O834 Co804 2.069 . S
O834 C825 1.289 . S
O835 Co806 2.146 . S
O835 C826 1.246 . S
O836 Co804 2.015 . S
O836 C826 1.257 . S
Co837 O840 2.042 . S
Co837 O847 2.264 . S
Co837 O866 2.286 . S
Co837 O867 2.069 . S
Co837 O869 2.015 1_565 S
Co838 O840 2.122 . S
Co838 O846 2.073 . S
Co838 O847 2.327 . S
Co838 O848 1.976 1_565 S
Co839 O840 2.083 1_545 S
Co839 O842 2.091 . S
Co839 O849 2.114 . S
Co839 O850 2.142 1_545 S
Co839 O854 2.109 1_545 S
Co839 O868 2.145 . S
O840 Co837 2.042 . S
O840 Co838 2.122 . S
O840 Co839 2.083 1_565 S
O840 H841 0.980 . S
H841 O840 0.980 . S
O842 Co839 2.091 . S
O842 Co843 2.042 . S
O842 Co844 2.122 . S
O842 H845 0.980 . S
Co843 O842 2.042 . S
Co843 O851 2.286 . S
Co843 O852 2.069 . S
Co843 O853 2.015 1_545 S
Co843 O856 2.264 . S
Co844 O842 2.122 . S
Co844 O855 1.976 1_545 S
Co844 O856 2.327 . S
Co844 O857 2.073 . S
H845 O842 0.980 . S
O846 Co838 2.073 . S
O846 C861 1.245 . S
O847 Co837 2.264 . S
O847 Co838 2.327 . S
O847 C861 1.257 . S
O848 Co838 1.976 1_545 S
O848 C860 1.251 . S
O849 Co839 2.114 . S
O849 C860 1.274 . S
O850 Co839 2.142 1_565 S
O850 C863 1.246 . S
O851 Co843 2.286 . S
O851 C862 1.259 . S
O852 Co843 2.069 . S
O852 C862 1.289 . S
O853 Co843 2.015 1_565 S
O853 C863 1.257 . S
O854 Co839 2.109 1_565 S
O854 C864 1.274 . S
O855 Co844 1.976 1_565 S
O855 C864 1.251 . S
O856 Co843 2.264 . S
O856 Co844 2.327 . S
O856 C865 1.257 . S
O857 Co844 2.073 . S
O857 C865 1.245 . S
C858 O866 1.259 . S
C858 O867 1.289 . S
C859 O868 1.246 . S
C859 O869 1.257 . S
C860 O848 1.251 . S
C860 O849 1.274 . S
C861 O846 1.245 . S
C861 O847 1.257 . S
C862 O851 1.259 . S
C862 O852 1.289 . S
C863 O850 1.246 . S
C863 O853 1.257 . S
C864 O854 1.274 . S
C864 O855 1.251 . S
C865 O856 1.257 . S
C865 O857 1.245 . S
O866 Co837 2.286 . S
O866 C858 1.259 . S
O867 Co837 2.069 . S
O867 C858 1.289 . S
O868 Co839 2.145 . S
O868 C859 1.246 . S
O869 Co837 2.015 1_545 S
O869 C859 1.257 . S
H870 C878 0.950 . S
H871 C883 0.950 . S
H872 C880 0.950 . S
H873 C882 0.950 . S
H874 C884 0.950 . S
H875 C886 0.950 . S
H876 C888 0.950 . S
H877 C889 0.950 . S
C878 H870 0.950 . S
C878 C879 1.386 . S
C878 C880 1.391 . S
C879 C878 1.386 . S
C879 C883 1.393 . S
C880 H872 0.950 . S
C880 C878 1.391 . S
C880 C881 1.400 . S
C881 C880 1.400 . S
C881 C882 1.398 . S
C881 C887 1.491 . S
C882 H873 0.950 . S
C882 C881 1.398 . S
C882 C883 1.391 . S
C883 H871 0.950 . S
C883 C879 1.393 . S
C883 C882 1.391 . S
C884 H874 0.950 . S
C884 C885 1.386 . S
C884 C886 1.391 . S
C885 C884 1.386 . S
C885 C889 1.393 . S
C886 H875 0.950 . S
C886 C884 1.391 . S
C886 C887 1.400 . S
C887 C881 1.491 . S
C887 C886 1.400 . S
C887 C888 1.398 . S
C888 H876 0.950 . S
C888 C887 1.398 . S
C888 C889 1.391 . S
C889 H877 0.950 . S
C889 C885 1.393 . S
C889 C888 1.391 . S
H890 C898 0.950 . S
H891 C903 0.950 . S
H892 C900 0.950 . S
H893 C902 0.950 . S
H894 C904 0.950 . S
H895 C906 0.950 . S
H896 C908 0.950 . S
H897 C909 0.950 . S
C898 H890 0.950 . S
C898 C899 1.386 . S
C898 C900 1.391 . S
C899 C898 1.386 . S
C899 C903 1.393 . S
C900 H892 0.950 . S
C900 C898 1.391 . S
C900 C901 1.400 . S
C901 C900 1.400 . S
C901 C902 1.398 . S
C901 C907 1.491 . S
C902 H893 0.950 . S
C902 C901 1.398 . S
C902 C903 1.391 . S
C903 H891 0.950 . S
C903 C899 1.393 . S
C903 C902 1.391 . S
C904 H894 0.950 . S
C904 C905 1.386 . S
C904 C906 1.391 . S
C905 C904 1.386 . S
C905 C909 1.393 . S
C906 H895 0.950 . S
C906 C904 1.391 . S
C906 C907 1.400 . S
C907 C901 1.491 . S
C907 C906 1.400 . S
C907 C908 1.398 . S
C908 H896 0.950 . S
C908 C907 1.398 . S
C908 C909 1.391 . S
C909 H897 0.950 . S
C909 C905 1.393 . S
C909 C908 1.391 . S
H910 C918 0.950 . S
H911 C923 0.950 . S
H912 C920 0.950 . S
H913 C922 0.950 . S
H914 C924 0.950 . S
H915 C926 0.950 . S
H916 C928 0.950 . S
H917 C929 0.950 . S
C918 H910 0.950 . S
C918 C919 1.386 . S
C918 C920 1.391 . S
C919 C918 1.386 . S
C919 C923 1.393 . S
C920 H912 0.950 . S
C920 C918 1.391 . S
C920 C921 1.400 . S
C921 C920 1.400 . S
C921 C922 1.398 . S
C921 C927 1.491 . S
C922 H913 0.950 . S
C922 C921 1.398 . S
C922 C923 1.391 . S
C923 H911 0.950 . S
C923 C919 1.393 . S
C923 C922 1.391 . S
C924 H914 0.950 . S
C924 C925 1.386 . S
C924 C926 1.391 . S
C925 C924 1.386 . S
C925 C929 1.393 . S
C926 H915 0.950 . S
C926 C924 1.391 . S
C926 C927 1.400 . S
C927 C921 1.491 . S
C927 C926 1.400 . S
C927 C928 1.398 . S
C928 H916 0.950 . S
C928 C927 1.398 . S
C928 C929 1.391 . S
C929 H917 0.950 . S
C929 C925 1.393 . S
C929 C928 1.391 . S
H930 C938 0.950 . S
H931 C943 0.950 . S
H932 C940 0.950 . S
H933 C942 0.950 . S
H934 C944 0.950 . S
H935 C946 0.950 . S
H936 C948 0.950 . S
H937 C949 0.950 . S
C938 H930 0.950 . S
C938 C939 1.386 . S
C938 C940 1.391 . S
C939 C938 1.386 . S
C939 C943 1.393 . S
C940 H932 0.950 . S
C940 C938 1.391 . S
C940 C941 1.400 . S
C941 C940 1.400 . S
C941 C942 1.398 . S
C941 C947 1.491 . S
C942 H933 0.950 . S
C942 C941 1.398 . S
C942 C943 1.391 . S
C943 H931 0.950 . S
C943 C939 1.393 . S
C943 C942 1.391 . S
C944 H934 0.950 . S
C944 C945 1.386 . S
C944 C946 1.391 . S
C945 C944 1.386 . S
C945 C949 1.393 . S
C946 H935 0.950 . S
C946 C944 1.391 . S
C946 C947 1.400 . S
C947 C941 1.491 . S
C947 C946 1.400 . S
C947 C948 1.398 . S
C948 H936 0.950 . S
C948 C947 1.398 . S
C948 C949 1.391 . S
C949 H937 0.950 . S
C949 C945 1.393 . S
C949 C948 1.391 . S
H950 C958 0.950 . S
H951 C963 0.950 . S
H952 C960 0.950 . S
H953 C962 0.950 . S
H954 C964 0.950 . S
H955 C966 0.950 . S
H956 C968 0.950 . S
H957 C969 0.950 . S
C958 H950 0.950 . S
C958 C959 1.386 . S
C958 C960 1.391 . S
C959 C958 1.386 . S
C959 C963 1.393 . S
C960 H952 0.950 . S
C960 C958 1.391 . S
C960 C961 1.400 . S
C961 C960 1.400 . S
C961 C962 1.398 . S
C961 C967 1.491 . S
C962 H953 0.950 . S
C962 C961 1.398 . S
C962 C963 1.391 . S
C963 H951 0.950 . S
C963 C959 1.393 . S
C963 C962 1.391 . S
C964 H954 0.950 . S
C964 C965 1.386 . S
C964 C966 1.391 . S
C965 C964 1.386 . S
C965 C969 1.393 . S
C966 H955 0.950 . S
C966 C964 1.391 . S
C966 C967 1.400 . S
C967 C961 1.491 . S
C967 C966 1.400 . S
C967 C968 1.398 . S
C968 H956 0.950 . S
C968 C967 1.398 . S
C968 C969 1.391 . S
C969 H957 0.950 . S
C969 C965 1.393 . S
C969 C968 1.391 . S
H970 C978 0.950 . S
H971 C983 0.950 . S
H972 C980 0.950 . S
H973 C982 0.950 . S
H974 C984 0.950 . S
H975 C986 0.950 . S
H976 C988 0.950 . S
H977 C989 0.950 . S
C978 H970 0.950 . S
C978 C979 1.386 . S
C978 C980 1.391 . S
C979 C978 1.386 . S
C979 C983 1.393 . S
C980 H972 0.950 . S
C980 C978 1.391 . S
C980 C981 1.400 . S
C981 C980 1.400 . S
C981 C982 1.398 . S
C981 C987 1.491 . S
C982 H973 0.950 . S
C982 C981 1.398 . S
C982 C983 1.391 . S
C983 H971 0.950 . S
C983 C979 1.393 . S
C983 C982 1.391 . S
C984 H974 0.950 . S
C984 C985 1.386 . S
C984 C986 1.391 . S
C985 C984 1.386 . S
C985 C989 1.393 . S
C986 H975 0.950 . S
C986 C984 1.391 . S
C986 C987 1.400 . S
C987 C981 1.491 . S
C987 C986 1.400 . S
C987 C988 1.398 . S
C988 H976 0.950 . S
C988 C987 1.398 . S
C988 C989 1.391 . S
C989 H977 0.950 . S
C989 C985 1.393 . S
C989 C988 1.391 . S
H990 C998 0.950 . S
H991 C1003 0.950 . S
H992 C1000 0.950 . S
H993 C1002 0.950 . S
H994 C1004 0.950 . S
H995 C1006 0.950 . S
H996 C1008 0.950 . S
H997 C1009 0.950 . S
C998 H990 0.950 . S
C998 C999 1.386 . S
C998 C1000 1.391 . S
C999 C998 1.386 . S
C999 C1003 1.393 . S
C1000 H992 0.950 . S
C1000 C998 1.391 . S
C1000 C1001 1.400 . S
C1001 C1000 1.400 . S
C1001 C1002 1.398 . S
C1001 C1007 1.491 . S
C1002 H993 0.950 . S
C1002 C1001 1.398 . S
C1002 C1003 1.391 . S
C1003 H991 0.950 . S
C1003 C999 1.393 . S
C1003 C1002 1.391 . S
C1004 H994 0.950 . S
C1004 C1005 1.386 . S
C1004 C1006 1.391 . S
C1005 C1004 1.386 . S
C1005 C1009 1.393 . S
C1006 H995 0.950 . S
C1006 C1004 1.391 . S
C1006 C1007 1.400 . S
C1007 C1001 1.491 . S
C1007 C1006 1.400 . S
C1007 C1008 1.398 . S
C1008 H996 0.950 . S
C1008 C1007 1.398 . S
C1008 C1009 1.391 . S
C1009 H997 0.950 . S
C1009 C1005 1.393 . S
C1009 C1008 1.391 . S
H1010 C1018 0.950 . S
H1011 C1023 0.950 . S
H1012 C1020 0.950 . S
H1013 C1022 0.950 . S
H1014 C1024 0.950 . S
H1015 C1026 0.950 . S
H1016 C1028 0.950 . S
H1017 C1029 0.950 . S
C1018 H1010 0.950 . S
C1018 C1019 1.386 . S
C1018 C1020 1.391 . S
C1019 C1018 1.386 . S
C1019 C1023 1.393 . S
C1020 H1012 0.950 . S
C1020 C1018 1.391 . S
C1020 C1021 1.400 . S
C1021 C1020 1.400 . S
C1021 C1022 1.398 . S
C1021 C1027 1.491 . S
C1022 H1013 0.950 . S
C1022 C1021 1.398 . S
C1022 C1023 1.391 . S
C1023 H1011 0.950 . S
C1023 C1019 1.393 . S
C1023 C1022 1.391 . S
C1024 H1014 0.950 . S
C1024 C1025 1.386 . S
C1024 C1026 1.391 . S
C1025 C1024 1.386 . S
C1025 C1029 1.393 . S
C1026 H1015 0.950 . S
C1026 C1024 1.391 . S
C1026 C1027 1.400 . S
C1027 C1021 1.491 . S
C1027 C1026 1.400 . S
C1027 C1028 1.398 . S
C1028 H1016 0.950 . S
C1028 C1027 1.398 . S
C1028 C1029 1.391 . S
C1029 H1017 0.950 . S
C1029 C1025 1.393 . S
C1029 C1028 1.391 . S
H1030 C1038 0.950 . S
H1031 C1043 0.950 . S
H1032 C1040 0.950 . S
H1033 C1042 0.950 . S
H1034 C1044 0.950 . S
H1035 C1046 0.950 . S
H1036 C1048 0.950 . S
H1037 C1049 0.950 . S
C1038 H1030 0.950 . S
C1038 C1039 1.386 . S
C1038 C1040 1.391 . S
C1039 C1038 1.386 . S
C1039 C1043 1.393 . S
C1040 H1032 0.950 . S
C1040 C1038 1.391 . S
C1040 C1041 1.400 . S
C1041 C1040 1.400 . S
C1041 C1042 1.398 . S
C1041 C1047 1.491 . S
C1042 H1033 0.950 . S
C1042 C1041 1.398 . S
C1042 C1043 1.391 . S
C1043 H1031 0.950 . S
C1043 C1039 1.393 . S
C1043 C1042 1.391 . S
C1044 H1034 0.950 . S
C1044 C1045 1.386 . S
C1044 C1046 1.391 . S
C1045 C1044 1.386 . S
C1045 C1049 1.393 . S
C1046 H1035 0.950 . S
C1046 C1044 1.391 . S
C1046 C1047 1.400 . S
C1047 C1041 1.491 . S
C1047 C1046 1.400 . S
C1047 C1048 1.398 . S
C1048 H1036 0.950 . S
C1048 C1047 1.398 . S
C1048 C1049 1.391 . S
C1049 H1037 0.950 . S
C1049 C1045 1.393 . S
C1049 C1048 1.391 . S
H1050 C1058 0.950 . S
H1051 C1063 0.950 . S
H1052 C1060 0.950 . S
H1053 C1062 0.950 . S
H1054 C1064 0.950 . S
H1055 C1066 0.950 . S
H1056 C1068 0.950 . S
H1057 C1069 0.950 . S
C1058 H1050 0.950 . S
C1058 C1059 1.386 . S
C1058 C1060 1.391 . S
C1059 C1058 1.386 . S
C1059 C1063 1.393 . S
C1060 H1052 0.950 . S
C1060 C1058 1.391 . S
C1060 C1061 1.400 . S
C1061 C1060 1.400 . S
C1061 C1062 1.398 . S
C1061 C1067 1.491 . S
C1062 H1053 0.950 . S
C1062 C1061 1.398 . S
C1062 C1063 1.391 . S
C1063 H1051 0.950 . S
C1063 C1059 1.393 . S
C1063 C1062 1.391 . S
C1064 H1054 0.950 . S
C1064 C1065 1.386 . S
C1064 C1066 1.391 . S
C1065 C1064 1.386 . S
C1065 C1069 1.393 . S
C1066 H1055 0.950 . S
C1066 C1064 1.391 . S
C1066 C1067 1.400 . S
C1067 C1061 1.491 . S
C1067 C1066 1.400 . S
C1067 C1068 1.398 . S
C1068 H1056 0.950 . S
C1068 C1067 1.398 . S
C1068 C1069 1.391 . S
C1069 H1057 0.950 . S
C1069 C1065 1.393 . S
C1069 C1068 1.391 . S
H1070 C1078 0.950 . S
H1071 C1083 0.950 . S
H1072 C1080 0.950 . S
H1073 C1082 0.950 . S
H1074 C1084 0.950 . S
H1075 C1086 0.950 . S
H1076 C1088 0.950 . S
H1077 C1089 0.950 . S
C1078 H1070 0.950 . S
C1078 C1079 1.386 . S
C1078 C1080 1.391 . S
C1079 C1078 1.386 . S
C1079 C1083 1.393 . S
C1080 H1072 0.950 . S
C1080 C1078 1.391 . S
C1080 C1081 1.400 . S
C1081 C1080 1.400 . S
C1081 C1082 1.398 . S
C1081 C1087 1.491 . S
C1082 H1073 0.950 . S
C1082 C1081 1.398 . S
C1082 C1083 1.391 . S
C1083 H1071 0.950 . S
C1083 C1079 1.393 . S
C1083 C1082 1.391 . S
C1084 H1074 0.950 . S
C1084 C1085 1.386 . S
C1084 C1086 1.391 . S
C1085 C1084 1.386 . S
C1085 C1089 1.393 . S
C1086 H1075 0.950 . S
C1086 C1084 1.391 . S
C1086 C1087 1.400 . S
C1087 C1081 1.491 . S
C1087 C1086 1.400 . S
C1087 C1088 1.398 . S
C1088 H1076 0.950 . S
C1088 C1087 1.398 . S
C1088 C1089 1.391 . S
C1089 H1077 0.950 . S
C1089 C1085 1.393 . S
C1089 C1088 1.391 . S
H1090 C1098 0.950 . S
H1091 C1103 0.950 . S
H1092 C1100 0.950 . S
H1093 C1102 0.950 . S
H1094 C1104 0.950 . S
H1095 C1106 0.950 . S
H1096 C1108 0.950 . S
H1097 C1109 0.950 . S
C1098 H1090 0.950 . S
C1098 C1099 1.386 . S
C1098 C1100 1.391 . S
C1099 C1098 1.386 . S
C1099 C1103 1.393 . S
C1100 H1092 0.950 . S
C1100 C1098 1.391 . S
C1100 C1101 1.400 . S
C1101 C1100 1.400 . S
C1101 C1102 1.398 . S
C1101 C1107 1.491 . S
C1102 H1093 0.950 . S
C1102 C1101 1.398 . S
C1102 C1103 1.391 . S
C1103 H1091 0.950 . S
C1103 C1099 1.393 . S
C1103 C1102 1.391 . S
C1104 H1094 0.950 . S
C1104 C1105 1.386 . S
C1104 C1106 1.391 . S
C1105 C1104 1.386 . S
C1105 C1109 1.393 . S
C1106 H1095 0.950 . S
C1106 C1104 1.391 . S
C1106 C1107 1.400 . S
C1107 C1101 1.491 . S
C1107 C1106 1.400 . S
C1107 C1108 1.398 . S
C1108 H1096 0.950 . S
C1108 C1107 1.398 . S
C1108 C1109 1.391 . S
C1109 H1097 0.950 . S
C1109 C1105 1.393 . S
C1109 C1108 1.391 . S
H1110 C1118 0.950 . S
H1111 C1123 0.950 . S
H1112 C1120 0.950 . S
H1113 C1122 0.950 . S
H1114 C1124 0.950 . S
H1115 C1126 0.950 . S
H1116 C1128 0.950 . S
H1117 C1129 0.950 . S
C1118 H1110 0.950 . S
C1118 C1119 1.386 . S
C1118 C1120 1.391 . S
C1119 C1118 1.386 . S
C1119 C1123 1.393 . S
C1120 H1112 0.950 . S
C1120 C1118 1.391 . S
C1120 C1121 1.400 . S
C1121 C1120 1.400 . S
C1121 C1122 1.398 . S
C1121 C1127 1.491 . S
C1122 H1113 0.950 . S
C1122 C1121 1.398 . S
C1122 C1123 1.391 . S
C1123 H1111 0.950 . S
C1123 C1119 1.393 . S
C1123 C1122 1.391 . S
C1124 H1114 0.950 . S
C1124 C1125 1.386 . S
C1124 C1126 1.391 . S
C1125 C1124 1.386 . S
C1125 C1129 1.393 . S
C1126 H1115 0.950 . S
C1126 C1124 1.391 . S
C1126 C1127 1.400 . S
C1127 C1121 1.491 . S
C1127 C1126 1.400 . S
C1127 C1128 1.398 . S
C1128 H1116 0.950 . S
C1128 C1127 1.398 . S
C1128 C1129 1.391 . S
C1129 H1117 0.950 . S
C1129 C1125 1.393 . S
C1129 C1128 1.391 . S
H1130 C1138 0.950 . S
H1131 C1143 0.950 . S
H1132 C1140 0.950 . S
H1133 C1142 0.950 . S
H1134 C1144 0.950 . S
H1135 C1146 0.950 . S
H1136 C1148 0.950 . S
H1137 C1149 0.950 . S
C1138 H1130 0.950 . S
C1138 C1139 1.386 . S
C1138 C1140 1.391 . S
C1139 C1138 1.386 . S
C1139 C1143 1.393 . S
C1140 H1132 0.950 . S
C1140 C1138 1.391 . S
C1140 C1141 1.400 . S
C1141 C1140 1.400 . S
C1141 C1142 1.398 . S
C1141 C1147 1.491 . S
C1142 H1133 0.950 . S
C1142 C1141 1.398 . S
C1142 C1143 1.391 . S
C1143 H1131 0.950 . S
C1143 C1139 1.393 . S
C1143 C1142 1.391 . S
C1144 H1134 0.950 . S
C1144 C1145 1.386 . S
C1144 C1146 1.391 . S
C1145 C1144 1.386 . S
C1145 C1149 1.393 . S
C1146 H1135 0.950 . S
C1146 C1144 1.391 . S
C1146 C1147 1.400 . S
C1147 C1141 1.491 . S
C1147 C1146 1.400 . S
C1147 C1148 1.398 . S
C1148 H1136 0.950 . S
C1148 C1147 1.398 . S
C1148 C1149 1.391 . S
C1149 H1137 0.950 . S
C1149 C1145 1.393 . S
C1149 C1148 1.391 . S
H1150 C1158 0.950 . S
H1151 C1163 0.950 . S
H1152 C1160 0.950 . S
H1153 C1162 0.950 . S
H1154 C1164 0.950 . S
H1155 C1166 0.950 . S
H1156 C1168 0.950 . S
H1157 C1169 0.950 . S
C1158 H1150 0.950 . S
C1158 C1159 1.386 . S
C1158 C1160 1.391 . S
C1159 C1158 1.386 . S
C1159 C1163 1.393 . S
C1160 H1152 0.950 . S
C1160 C1158 1.391 . S
C1160 C1161 1.400 . S
C1161 C1160 1.400 . S
C1161 C1162 1.398 . S
C1161 C1167 1.491 . S
C1162 H1153 0.950 . S
C1162 C1161 1.398 . S
C1162 C1163 1.391 . S
C1163 H1151 0.950 . S
C1163 C1159 1.393 . S
C1163 C1162 1.391 . S
C1164 H1154 0.950 . S
C1164 C1165 1.386 . S
C1164 C1166 1.391 . S
C1165 C1164 1.386 . S
C1165 C1169 1.393 . S
C1166 H1155 0.950 . S
C1166 C1164 1.391 . S
C1166 C1167 1.400 . S
C1167 C1161 1.491 . S
C1167 C1166 1.400 . S
C1167 C1168 1.398 . S
C1168 H1156 0.950 . S
C1168 C1167 1.398 . S
C1168 C1169 1.391 . S
C1169 H1157 0.950 . S
C1169 C1165 1.393 . S
C1169 C1168 1.391 . S
H1170 C1178 0.950 . S
H1171 C1183 0.950 . S
H1172 C1180 0.950 . S
H1173 C1182 0.950 . S
H1174 C1184 0.950 . S
H1175 C1186 0.950 . S
H1176 C1188 0.950 . S
H1177 C1189 0.950 . S
C1178 H1170 0.950 . S
C1178 C1179 1.386 . S
C1178 C1180 1.391 . S
C1179 C1178 1.386 . S
C1179 C1183 1.393 . S
C1180 H1172 0.950 . S
C1180 C1178 1.391 . S
C1180 C1181 1.400 . S
C1181 C1180 1.400 . S
C1181 C1182 1.398 . S
C1181 C1187 1.491 . S
C1182 H1173 0.950 . S
C1182 C1181 1.398 . S
C1182 C1183 1.391 . S
C1183 H1171 0.950 . S
C1183 C1179 1.393 . S
C1183 C1182 1.391 . S
C1184 H1174 0.950 . S
C1184 C1185 1.386 . S
C1184 C1186 1.391 . S
C1185 C1184 1.386 . S
C1185 C1189 1.393 . S
C1186 H1175 0.950 . S
C1186 C1184 1.391 . S
C1186 C1187 1.400 . S
C1187 C1181 1.491 . S
C1187 C1186 1.400 . S
C1187 C1188 1.398 . S
C1188 H1176 0.950 . S
C1188 C1187 1.398 . S
C1188 C1189 1.391 . S
C1189 H1177 0.950 . S
C1189 C1185 1.393 . S
C1189 C1188 1.391 . S
H1190 C1198 0.950 . S
H1191 C1203 0.950 . S
H1192 C1200 0.950 . S
H1193 C1202 0.950 . S
H1194 C1204 0.950 . S
H1195 C1206 0.950 . S
H1196 C1208 0.950 . S
H1197 C1209 0.950 . S
C1198 H1190 0.950 . S
C1198 C1199 1.386 . S
C1198 C1200 1.391 . S
C1199 C1198 1.386 . S
C1199 C1203 1.393 . S
C1200 H1192 0.950 . S
C1200 C1198 1.391 . S
C1200 C1201 1.400 . S
C1201 C1200 1.400 . S
C1201 C1202 1.398 . S
C1201 C1207 1.491 . S
C1202 H1193 0.950 . S
C1202 C1201 1.398 . S
C1202 C1203 1.391 . S
C1203 H1191 0.950 . S
C1203 C1199 1.393 . S
C1203 C1202 1.391 . S
C1204 H1194 0.950 . S
C1204 C1205 1.386 . S
C1204 C1206 1.391 . S
C1205 C1204 1.386 . S
C1205 C1209 1.393 . S
C1206 H1195 0.950 . S
C1206 C1204 1.391 . S
C1206 C1207 1.400 . S
C1207 C1201 1.491 . S
C1207 C1206 1.400 . S
C1207 C1208 1.398 . S
C1208 H1196 0.950 . S
C1208 C1207 1.398 . S
C1208 C1209 1.391 . S
C1209 H1197 0.950 . S
C1209 C1205 1.393 . S
C1209 C1208 1.391 . S
H1210 C1218 0.950 . S
H1211 C1223 0.950 . S
H1212 C1220 0.950 . S
H1213 C1222 0.950 . S
H1214 C1224 0.950 . S
H1215 C1226 0.950 . S
H1216 C1228 0.950 . S
H1217 C1229 0.950 . S
C1218 H1210 0.950 . S
C1218 C1219 1.386 . S
C1218 C1220 1.391 . S
C1219 C1218 1.386 . S
C1219 C1223 1.393 . S
C1220 H1212 0.950 . S
C1220 C1218 1.391 . S
C1220 C1221 1.400 . S
C1221 C1220 1.400 . S
C1221 C1222 1.398 . S
C1221 C1227 1.491 . S
C1222 H1213 0.950 . S
C1222 C1221 1.398 . S
C1222 C1223 1.391 . S
C1223 H1211 0.950 . S
C1223 C1219 1.393 . S
C1223 C1222 1.391 . S
C1224 H1214 0.950 . S
C1224 C1225 1.386 . S
C1224 C1226 1.391 . S
C1225 C1224 1.386 . S
C1225 C1229 1.393 . S
C1226 H1215 0.950 . S
C1226 C1224 1.391 . S
C1226 C1227 1.400 . S
C1227 C1221 1.491 . S
C1227 C1226 1.400 . S
C1227 C1228 1.398 . S
C1228 H1216 0.950 . S
C1228 C1227 1.398 . S
C1228 C1229 1.391 . S
C1229 H1217 0.950 . S
C1229 C1225 1.393 . S
C1229 C1228 1.391 . S
H1230 C1238 0.950 . S
H1231 C1243 0.950 . S
H1232 C1240 0.950 . S
H1233 C1242 0.950 . S
H1234 C1244 0.950 . S
H1235 C1246 0.950 . S
H1236 C1248 0.950 . S
H1237 C1249 0.950 . S
C1238 H1230 0.950 . S
C1238 C1239 1.386 . S
C1238 C1240 1.391 . S
C1239 C1238 1.386 . S
C1239 C1243 1.393 . S
C1240 H1232 0.950 . S
C1240 C1238 1.391 . S
C1240 C1241 1.400 . S
C1241 C1240 1.400 . S
C1241 C1242 1.398 . S
C1241 C1247 1.491 . S
C1242 H1233 0.950 . S
C1242 C1241 1.398 . S
C1242 C1243 1.391 . S
C1243 H1231 0.950 . S
C1243 C1239 1.393 . S
C1243 C1242 1.391 . S
C1244 H1234 0.950 . S
C1244 C1245 1.386 . S
C1244 C1246 1.391 . S
C1245 C1244 1.386 . S
C1245 C1249 1.393 . S
C1246 H1235 0.950 . S
C1246 C1244 1.391 . S
C1246 C1247 1.400 . S
C1247 C1241 1.491 . S
C1247 C1246 1.400 . S
C1247 C1248 1.398 . S
C1248 H1236 0.950 . S
C1248 C1247 1.398 . S
C1248 C1249 1.391 . S
C1249 H1237 0.950 . S
C1249 C1245 1.393 . S
C1249 C1248 1.391 . S
H1250 C1258 0.950 . S
H1251 C1263 0.950 . S
H1252 C1260 0.950 . S
H1253 C1262 0.950 . S
H1254 C1264 0.950 . S
H1255 C1266 0.950 . S
H1256 C1268 0.950 . S
H1257 C1269 0.950 . S
C1258 H1250 0.950 . S
C1258 C1259 1.386 . S
C1258 C1260 1.391 . S
C1259 C1258 1.386 . S
C1259 C1263 1.393 . S
C1260 H1252 0.950 . S
C1260 C1258 1.391 . S
C1260 C1261 1.400 . S
C1261 C1260 1.400 . S
C1261 C1262 1.398 . S
C1261 C1267 1.491 . S
C1262 H1253 0.950 . S
C1262 C1261 1.398 . S
C1262 C1263 1.391 . S
C1263 H1251 0.950 . S
C1263 C1259 1.393 . S
C1263 C1262 1.391 . S
C1264 H1254 0.950 . S
C1264 C1265 1.386 . S
C1264 C1266 1.391 . S
C1265 C1264 1.386 . S
C1265 C1269 1.393 . S
C1266 H1255 0.950 . S
C1266 C1264 1.391 . S
C1266 C1267 1.400 . S
C1267 C1261 1.491 . S
C1267 C1266 1.400 . S
C1267 C1268 1.398 . S
C1268 H1256 0.950 . S
C1268 C1267 1.398 . S
C1268 C1269 1.391 . S
C1269 H1257 0.950 . S
C1269 C1265 1.393 . S
C1269 C1268 1.391 . S
H1270 C1278 0.950 . S
H1271 C1283 0.950 . S
H1272 C1280 0.950 . S
H1273 C1282 0.950 . S
H1274 C1284 0.950 . S
H1275 C1286 0.950 . S
H1276 C1288 0.950 . S
H1277 C1289 0.950 . S
C1278 H1270 0.950 . S
C1278 C1279 1.386 . S
C1278 C1280 1.391 . S
C1279 C1278 1.386 . S
C1279 C1283 1.393 . S
C1280 H1272 0.950 . S
C1280 C1278 1.391 . S
C1280 C1281 1.400 . S
C1281 C1280 1.400 . S
C1281 C1282 1.398 . S
C1281 C1287 1.491 . S
C1282 H1273 0.950 . S
C1282 C1281 1.398 . S
C1282 C1283 1.391 . S
C1283 H1271 0.950 . S
C1283 C1279 1.393 . S
C1283 C1282 1.391 . S
C1284 H1274 0.950 . S
C1284 C1285 1.386 . S
C1284 C1286 1.391 . S
C1285 C1284 1.386 . S
C1285 C1289 1.393 . S
C1286 H1275 0.950 . S
C1286 C1284 1.391 . S
C1286 C1287 1.400 . S
C1287 C1281 1.491 . S
C1287 C1286 1.400 . S
C1287 C1288 1.398 . S
C1288 H1276 0.950 . S
C1288 C1287 1.398 . S
C1288 C1289 1.391 . S
C1289 H1277 0.950 . S
C1289 C1285 1.393 . S
C1289 C1288 1.391 . S
H1290 C1298 0.950 . S
H1291 C1303 0.950 . S
H1292 C1300 0.950 . S
H1293 C1302 0.950 . S
H1294 C1304 0.950 . S
H1295 C1306 0.950 . S
H1296 C1308 0.950 . S
H1297 C1309 0.950 . S
C1298 H1290 0.950 . S
C1298 C1299 1.386 . S
C1298 C1300 1.391 . S
C1299 C1298 1.386 . S
C1299 C1303 1.393 . S
C1300 H1292 0.950 . S
C1300 C1298 1.391 . S
C1300 C1301 1.400 . S
C1301 C1300 1.400 . S
C1301 C1302 1.398 . S
C1301 C1307 1.491 . S
C1302 H1293 0.950 . S
C1302 C1301 1.398 . S
C1302 C1303 1.391 . S
C1303 H1291 0.950 . S
C1303 C1299 1.393 . S
C1303 C1302 1.391 . S
C1304 H1294 0.950 . S
C1304 C1305 1.386 . S
C1304 C1306 1.391 . S
C1305 C1304 1.386 . S
C1305 C1309 1.393 . S
C1306 H1295 0.950 . S
C1306 C1304 1.391 . S
C1306 C1307 1.400 . S
C1307 C1301 1.491 . S
C1307 C1306 1.400 . S
C1307 C1308 1.398 . S
C1308 H1296 0.950 . S
C1308 C1307 1.398 . S
C1308 C1309 1.391 . S
C1309 H1297 0.950 . S
C1309 C1305 1.393 . S
C1309 C1308 1.391 . S
H1310 C1318 0.950 . S
H1311 C1323 0.950 . S
H1312 C1320 0.950 . S
H1313 C1322 0.950 . S
H1314 C1324 0.950 . S
H1315 C1326 0.950 . S
H1316 C1328 0.950 . S
H1317 C1329 0.950 . S
C1318 H1310 0.950 . S
C1318 C1319 1.386 . S
C1318 C1320 1.391 . S
C1319 C1318 1.386 . S
C1319 C1323 1.393 . S
C1320 H1312 0.950 . S
C1320 C1318 1.391 . S
C1320 C1321 1.400 . S
C1321 C1320 1.400 . S
C1321 C1322 1.398 . S
C1321 C1327 1.491 . S
C1322 H1313 0.950 . S
C1322 C1321 1.398 . S
C1322 C1323 1.391 . S
C1323 H1311 0.950 . S
C1323 C1319 1.393 . S
C1323 C1322 1.391 . S
C1324 H1314 0.950 . S
C1324 C1325 1.386 . S
C1324 C1326 1.391 . S
C1325 C1324 1.386 . S
C1325 C1329 1.393 . S
C1326 H1315 0.950 . S
C1326 C1324 1.391 . S
C1326 C1327 1.400 . S
C1327 C1321 1.491 . S
C1327 C1326 1.400 . S
C1327 C1328 1.398 . S
C1328 H1316 0.950 . S
C1328 C1327 1.398 . S
C1328 C1329 1.391 . S
C1329 H1317 0.950 . S
C1329 C1325 1.393 . S
C1329 C1328 1.391 . S
H1330 C1338 0.950 . S
H1331 C1343 0.950 . S
H1332 C1340 0.950 . S
H1333 C1342 0.950 . S
H1334 C1344 0.950 . S
H1335 C1346 0.950 . S
H1336 C1348 0.950 . S
H1337 C1349 0.950 . S
C1338 H1330 0.950 . S
C1338 C1339 1.386 . S
C1338 C1340 1.391 . S
C1339 C1338 1.386 . S
C1339 C1343 1.393 . S
C1340 H1332 0.950 . S
C1340 C1338 1.391 . S
C1340 C1341 1.400 . S
C1341 C1340 1.400 . S
C1341 C1342 1.398 . S
C1341 C1347 1.491 . S
C1342 H1333 0.950 . S
C1342 C1341 1.398 . S
C1342 C1343 1.391 . S
C1343 H1331 0.950 . S
C1343 C1339 1.393 . S
C1343 C1342 1.391 . S
C1344 H1334 0.950 . S
C1344 C1345 1.386 . S
C1344 C1346 1.391 . S
C1345 C1344 1.386 . S
C1345 C1349 1.393 . S
C1346 H1335 0.950 . S
C1346 C1344 1.391 . S
C1346 C1347 1.400 . S
C1347 C1341 1.491 . S
C1347 C1346 1.400 . S
C1347 C1348 1.398 . S
C1348 H1336 0.950 . S
C1348 C1347 1.398 . S
C1348 C1349 1.391 . S
C1349 H1337 0.950 . S
C1349 C1345 1.393 . S
C1349 C1348 1.391 . S
H1350 C1358 0.950 . S
H1351 C1363 0.950 . S
H1352 C1360 0.950 . S
H1353 C1362 0.950 . S
H1354 C1364 0.950 . S
H1355 C1366 0.950 . S
H1356 C1368 0.950 . S
H1357 C1369 0.950 . S
C1358 H1350 0.950 . S
C1358 C1359 1.386 . S
C1358 C1360 1.391 . S
C1359 C1358 1.386 . S
C1359 C1363 1.393 . S
C1360 H1352 0.950 . S
C1360 C1358 1.391 . S
C1360 C1361 1.400 . S
C1361 C1360 1.400 . S
C1361 C1362 1.398 . S
C1361 C1367 1.491 . S
C1362 H1353 0.950 . S
C1362 C1361 1.398 . S
C1362 C1363 1.391 . S
C1363 H1351 0.950 . S
C1363 C1359 1.393 . S
C1363 C1362 1.391 . S
C1364 H1354 0.950 . S
C1364 C1365 1.386 . S
C1364 C1366 1.391 . S
C1365 C1364 1.386 . S
C1365 C1369 1.393 . S
C1366 H1355 0.950 . S
C1366 C1364 1.391 . S
C1366 C1367 1.400 . S
C1367 C1361 1.491 . S
C1367 C1366 1.400 . S
C1367 C1368 1.398 . S
C1368 H1356 0.950 . S
C1368 C1367 1.398 . S
C1368 C1369 1.391 . S
C1369 H1357 0.950 . S
C1369 C1365 1.393 . S
C1369 C1368 1.391 . S
H1370 C1378 0.950 . S
H1371 C1383 0.950 . S
H1372 C1380 0.950 . S
H1373 C1382 0.950 . S
H1374 C1384 0.950 . S
H1375 C1386 0.950 . S
H1376 C1388 0.950 . S
H1377 C1389 0.950 . S
C1378 H1370 0.950 . S
C1378 C1379 1.386 . S
C1378 C1380 1.391 . S
C1379 C1378 1.386 . S
C1379 C1383 1.393 . S
C1380 H1372 0.950 . S
C1380 C1378 1.391 . S
C1380 C1381 1.400 . S
C1381 C1380 1.400 . S
C1381 C1382 1.398 . S
C1381 C1387 1.491 . S
C1382 H1373 0.950 . S
C1382 C1381 1.398 . S
C1382 C1383 1.391 . S
C1383 H1371 0.950 . S
C1383 C1379 1.393 . S
C1383 C1382 1.391 . S
C1384 H1374 0.950 . S
C1384 C1385 1.386 . S
C1384 C1386 1.391 . S
C1385 C1384 1.386 . S
C1385 C1389 1.393 . S
C1386 H1375 0.950 . S
C1386 C1384 1.391 . S
C1386 C1387 1.400 . S
C1387 C1381 1.491 . S
C1387 C1386 1.400 . S
C1387 C1388 1.398 . S
C1388 H1376 0.950 . S
C1388 C1387 1.398 . S
C1388 C1389 1.391 . S
C1389 H1377 0.950 . S
C1389 C1385 1.393 . S
C1389 C1388 1.391 . S
H1390 C1398 0.950 . S
H1391 C1403 0.950 . S
H1392 C1400 0.950 . S
H1393 C1402 0.950 . S
H1394 C1404 0.950 . S
H1395 C1406 0.950 . S
H1396 C1408 0.950 . S
H1397 C1409 0.950 . S
C1398 H1390 0.950 . S
C1398 C1399 1.386 . S
C1398 C1400 1.391 . S
C1399 C1398 1.386 . S
C1399 C1403 1.393 . S
C1400 H1392 0.950 . S
C1400 C1398 1.391 . S
C1400 C1401 1.400 . S
C1401 C1400 1.400 . S
C1401 C1402 1.398 . S
C1401 C1407 1.491 . S
C1402 H1393 0.950 . S
C1402 C1401 1.398 . S
C1402 C1403 1.391 . S
C1403 H1391 0.950 . S
C1403 C1399 1.393 . S
C1403 C1402 1.391 . S
C1404 H1394 0.950 . S
C1404 C1405 1.386 . S
C1404 C1406 1.391 . S
C1405 C1404 1.386 . S
C1405 C1409 1.393 . S
C1406 H1395 0.950 . S
C1406 C1404 1.391 . S
C1406 C1407 1.400 . S
C1407 C1401 1.491 . S
C1407 C1406 1.400 . S
C1407 C1408 1.398 . S
C1408 H1396 0.950 . S
C1408 C1407 1.398 . S
C1408 C1409 1.391 . S
C1409 H1397 0.950 . S
C1409 C1405 1.393 . S
C1409 C1408 1.391 . S
H1410 C1418 0.950 . S
H1411 C1423 0.950 . S
H1412 C1420 0.950 . S
H1413 C1422 0.950 . S
H1414 C1424 0.950 . S
H1415 C1426 0.950 . S
H1416 C1428 0.950 . S
H1417 C1429 0.950 . S
C1418 H1410 0.950 . S
C1418 C1419 1.386 . S
C1418 C1420 1.391 . S
C1419 C1418 1.386 . S
C1419 C1423 1.393 . S
C1420 H1412 0.950 . S
C1420 C1418 1.391 . S
C1420 C1421 1.400 . S
C1421 C1420 1.400 . S
C1421 C1422 1.398 . S
C1421 C1427 1.491 . S
C1422 H1413 0.950 . S
C1422 C1421 1.398 . S
C1422 C1423 1.391 . S
C1423 H1411 0.950 . S
C1423 C1419 1.393 . S
C1423 C1422 1.391 . S
C1424 H1414 0.950 . S
C1424 C1425 1.386 . S
C1424 C1426 1.391 . S
C1425 C1424 1.386 . S
C1425 C1429 1.393 . S
C1426 H1415 0.950 . S
C1426 C1424 1.391 . S
C1426 C1427 1.400 . S
C1427 C1421 1.491 . S
C1427 C1426 1.400 . S
C1427 C1428 1.398 . S
C1428 H1416 0.950 . S
C1428 C1427 1.398 . S
C1428 C1429 1.391 . S
C1429 H1417 0.950 . S
C1429 C1425 1.393 . S
C1429 C1428 1.391 . S
H1430 C1438 0.950 . S
H1431 C1443 0.950 . S
H1432 C1440 0.950 . S
H1433 C1442 0.950 . S
H1434 C1444 0.950 . S
H1435 C1446 0.950 . S
H1436 C1448 0.950 . S
H1437 C1449 0.950 . S
C1438 H1430 0.950 . S
C1438 C1439 1.386 . S
C1438 C1440 1.391 . S
C1439 C1438 1.386 . S
C1439 C1443 1.393 . S
C1440 H1432 0.950 . S
C1440 C1438 1.391 . S
C1440 C1441 1.400 . S
C1441 C1440 1.400 . S
C1441 C1442 1.398 . S
C1441 C1447 1.491 . S
C1442 H1433 0.950 . S
C1442 C1441 1.398 . S
C1442 C1443 1.391 . S
C1443 H1431 0.950 . S
C1443 C1439 1.393 . S
C1443 C1442 1.391 . S
C1444 H1434 0.950 . S
C1444 C1445 1.386 . S
C1444 C1446 1.391 . S
C1445 C1444 1.386 . S
C1445 C1449 1.393 . S
C1446 H1435 0.950 . S
C1446 C1444 1.391 . S
C1446 C1447 1.400 . S
C1447 C1441 1.491 . S
C1447 C1446 1.400 . S
C1447 C1448 1.398 . S
C1448 H1436 0.950 . S
C1448 C1447 1.398 . S
C1448 C1449 1.391 . S
C1449 H1437 0.950 . S
C1449 C1445 1.393 . S
C1449 C1448 1.391 . S
H1450 C1458 0.950 . S
H1451 C1463 0.950 . S
H1452 C1460 0.950 . S
H1453 C1462 0.950 . S
H1454 C1464 0.950 . S
H1455 C1466 0.950 . S
H1456 C1468 0.950 . S
H1457 C1469 0.950 . S
C1458 H1450 0.950 . S
C1458 C1459 1.386 . S
C1458 C1460 1.391 . S
C1459 C1458 1.386 . S
C1459 C1463 1.393 . S
C1460 H1452 0.950 . S
C1460 C1458 1.391 . S
C1460 C1461 1.400 . S
C1461 C1460 1.400 . S
C1461 C1462 1.398 . S
C1461 C1467 1.491 . S
C1462 H1453 0.950 . S
C1462 C1461 1.398 . S
C1462 C1463 1.391 . S
C1463 H1451 0.950 . S
C1463 C1459 1.393 . S
C1463 C1462 1.391 . S
C1464 H1454 0.950 . S
C1464 C1465 1.386 . S
C1464 C1466 1.391 . S
C1465 C1464 1.386 . S
C1465 C1469 1.393 . S
C1466 H1455 0.950 . S
C1466 C1464 1.391 . S
C1466 C1467 1.400 . S
C1467 C1461 1.491 . S
C1467 C1466 1.400 . S
C1467 C1468 1.398 . S
C1468 H1456 0.950 . S
C1468 C1467 1.398 . S
C1468 C1469 1.391 . S
C1469 H1457 0.950 . S
C1469 C1465 1.393 . S
C1469 C1468 1.391 . S
H1470 C1478 0.950 . S
H1471 C1483 0.950 . S
H1472 C1480 0.950 . S
H1473 C1482 0.950 . S
H1474 C1484 0.933 1_556 S
H1475 C1486 0.950 . S
H1476 C1488 0.950 . S
H1477 C1489 0.950 . S
C1478 H1470 0.950 . S
C1478 C1479 1.386 . S
C1478 C1480 1.391 . S
C1479 C1478 1.386 . S
C1479 C1483 1.393 . S
C1480 H1472 0.950 . S
C1480 C1478 1.391 . S
C1480 C1481 1.400 . S
C1481 C1480 1.400 . S
C1481 C1482 1.398 . S
C1481 C1487 1.491 . S
C1482 H1473 0.950 . S
C1482 C1481 1.398 . S
C1482 C1483 1.391 . S
C1483 H1471 0.950 . S
C1483 C1479 1.393 . S
C1483 C1482 1.391 . S
C1484 H1474 0.933 1_554 S
C1484 C1485 1.386 . S
C1484 C1486 1.391 . S
C1485 C1484 1.386 . S
C1485 C1489 1.393 . S
C1486 H1475 0.950 . S
C1486 C1484 1.391 . S
C1486 C1487 1.400 . S
C1487 C1481 1.491 . S
C1487 C1486 1.400 . S
C1487 C1488 1.398 . S
C1488 H1476 0.950 . S
C1488 C1487 1.398 . S
C1488 C1489 1.391 . S
C1489 H1477 0.950 . S
C1489 C1485 1.393 . S
C1489 C1488 1.391 . S
H1490 C1498 0.950 . S
H1491 C1503 0.950 . S
H1492 C1500 0.950 . S
H1493 C1502 0.950 . S
H1494 C1504 0.950 . S
H1495 C1506 0.950 . S
H1496 C1508 0.950 . S
H1497 C1509 0.950 . S
C1498 H1490 0.950 . S
C1498 C1499 1.386 . S
C1498 C1500 1.391 . S
C1499 C1498 1.386 . S
C1499 C1503 1.393 . S
C1500 H1492 0.950 . S
C1500 C1498 1.391 . S
C1500 C1501 1.400 . S
C1501 C1500 1.400 . S
C1501 C1502 1.398 . S
C1501 C1507 1.491 . S
C1502 H1493 0.950 . S
C1502 C1501 1.398 . S
C1502 C1503 1.391 . S
C1503 H1491 0.950 . S
C1503 C1499 1.393 . S
C1503 C1502 1.391 . S
C1504 H1494 0.950 . S
C1504 C1505 1.386 . S
C1504 C1506 1.391 . S
C1505 C1504 1.386 . S
C1505 C1509 1.393 . S
C1506 H1495 0.950 . S
C1506 C1504 1.391 . S
C1506 C1507 1.400 . S
C1507 C1501 1.491 . S
C1507 C1506 1.400 . S
C1507 C1508 1.398 . S
C1508 H1496 0.950 . S
C1508 C1507 1.398 . S
C1508 C1509 1.391 . S
C1509 H1497 0.950 . S
C1509 C1505 1.393 . S
C1509 C1508 1.391 . S
H1510 C1518 0.950 . S
H1511 C1523 0.950 . S
H1512 C1520 0.950 . S
H1513 C1522 0.950 . S
H1514 C1524 0.950 . S
H1515 C1526 0.950 . S
H1516 C1528 0.950 . S
H1517 C1529 0.950 . S
C1518 H1510 0.950 . S
C1518 C1519 1.386 . S
C1518 C1520 1.391 . S
C1519 C1518 1.386 . S
C1519 C1523 1.393 . S
C1520 H1512 0.950 . S
C1520 C1518 1.391 . S
C1520 C1521 1.400 . S
C1521 C1520 1.400 . S
C1521 C1522 1.398 . S
C1521 C1527 1.491 . S
C1522 H1513 0.950 . S
C1522 C1521 1.398 . S
C1522 C1523 1.391 . S
C1523 H1511 0.950 . S
C1523 C1519 1.393 . S
C1523 C1522 1.391 . S
C1524 H1514 0.950 . S
C1524 C1525 1.386 . S
C1524 C1526 1.391 . S
C1525 C1524 1.386 . S
C1525 C1529 1.393 . S
C1526 H1515 0.950 . S
C1526 C1524 1.391 . S
C1526 C1527 1.400 . S
C1527 C1521 1.491 . S
C1527 C1526 1.400 . S
C1527 C1528 1.398 . S
C1528 H1516 0.950 . S
C1528 C1527 1.398 . S
C1528 C1529 1.391 . S
C1529 H1517 0.950 . S
C1529 C1525 1.393 . S
C1529 C1528 1.391 . S
H1530 C1538 0.950 . S
H1531 C1543 0.950 . S
H1532 C1540 0.950 . S
H1533 C1542 0.950 . S
H1534 C1544 0.950 . S
H1535 C1546 0.950 . S
H1536 C1548 0.950 . S
H1537 C1549 0.950 . S
C1538 H1530 0.950 . S
C1538 C1539 1.386 . S
C1538 C1540 1.391 . S
C1539 C1538 1.386 . S
C1539 C1543 1.393 . S
C1540 H1532 0.950 . S
C1540 C1538 1.391 . S
C1540 C1541 1.400 . S
C1541 C1540 1.400 . S
C1541 C1542 1.398 . S
C1541 C1547 1.491 . S
C1542 H1533 0.950 . S
C1542 C1541 1.398 . S
C1542 C1543 1.391 . S
C1543 H1531 0.950 . S
C1543 C1539 1.393 . S
C1543 C1542 1.391 . S
C1544 H1534 0.950 . S
C1544 C1545 1.386 . S
C1544 C1546 1.391 . S
C1545 C1544 1.386 . S
C1545 C1549 1.393 . S
C1546 H1535 0.950 . S
C1546 C1544 1.391 . S
C1546 C1547 1.400 . S
C1547 C1541 1.491 . S
C1547 C1546 1.400 . S
C1547 C1548 1.398 . S
C1548 H1536 0.950 . S
C1548 C1547 1.398 . S
C1548 C1549 1.391 . S
C1549 H1537 0.950 . S
C1549 C1545 1.393 . S
C1549 C1548 1.391 . S
H1550 C1558 0.950 . S
H1551 C1563 0.950 . S
H1552 C1560 0.950 . S
H1553 C1562 0.950 . S
H1554 C1564 0.950 . S
H1555 C1566 0.950 . S
H1556 C1568 0.950 . S
H1557 C1569 0.950 . S
C1558 H1550 0.950 . S
C1558 C1559 1.386 . S
C1558 C1560 1.391 . S
C1559 C1558 1.386 . S
C1559 C1563 1.393 . S
C1560 H1552 0.950 . S
C1560 C1558 1.391 . S
C1560 C1561 1.400 . S
C1561 C1560 1.400 . S
C1561 C1562 1.398 . S
C1561 C1567 1.491 . S
C1562 H1553 0.950 . S
C1562 C1561 1.398 . S
C1562 C1563 1.391 . S
C1563 H1551 0.950 . S
C1563 C1559 1.393 . S
C1563 C1562 1.391 . S
C1564 H1554 0.950 . S
C1564 C1565 1.386 . S
C1564 C1566 1.391 . S
C1565 C1564 1.386 . S
C1565 C1569 1.393 . S
C1566 H1555 0.950 . S
C1566 C1564 1.391 . S
C1566 C1567 1.400 . S
C1567 C1561 1.491 . S
C1567 C1566 1.400 . S
C1567 C1568 1.398 . S
C1568 H1556 0.950 . S
C1568 C1567 1.398 . S
C1568 C1569 1.391 . S
C1569 H1557 0.950 . S
C1569 C1565 1.393 . S
C1569 C1568 1.391 . S
H1570 C1578 0.950 . S
H1571 C1583 0.950 . S
H1572 C1580 0.950 . S
H1573 C1582 0.950 . S
H1574 C1584 0.950 . S
H1575 C1586 0.950 . S
H1576 C1588 0.950 . S
H1577 C1589 0.950 . S
C1578 H1570 0.950 . S
C1578 C1579 1.386 . S
C1578 C1580 1.391 . S
C1579 C1578 1.386 . S
C1579 C1583 1.393 . S
C1580 H1572 0.950 . S
C1580 C1578 1.391 . S
C1580 C1581 1.400 . S
C1581 C1580 1.400 . S
C1581 C1582 1.398 . S
C1581 C1587 1.491 . S
C1582 H1573 0.950 . S
C1582 C1581 1.398 . S
C1582 C1583 1.391 . S
C1583 H1571 0.950 . S
C1583 C1579 1.393 . S
C1583 C1582 1.391 . S
C1584 H1574 0.950 . S
C1584 C1585 1.386 . S
C1584 C1586 1.391 . S
C1585 C1584 1.386 . S
C1585 C1589 1.393 . S
C1586 H1575 0.950 . S
C1586 C1584 1.391 . S
C1586 C1587 1.400 . S
C1587 C1581 1.491 . S
C1587 C1586 1.400 . S
C1587 C1588 1.398 . S
C1588 H1576 0.950 . S
C1588 C1587 1.398 . S
C1588 C1589 1.391 . S
C1589 H1577 0.950 . S
C1589 C1585 1.393 . S
C1589 C1588 1.391 . S
H1590 C1598 0.950 . S
H1591 C1603 0.950 . S
H1592 C1600 0.950 . S
H1593 C1602 0.950 . S
H1594 C1604 0.950 . S
H1595 C1606 0.950 . S
H1596 C1608 0.950 . S
H1597 C1609 0.950 . S
C1598 H1590 0.950 . S
C1598 C1599 1.386 . S
C1598 C1600 1.391 . S
C1599 C1598 1.386 . S
C1599 C1603 1.393 . S
C1600 H1592 0.950 . S
C1600 C1598 1.391 . S
C1600 C1601 1.400 . S
C1601 C1600 1.400 . S
C1601 C1602 1.398 . S
C1601 C1607 1.491 . S
C1602 H1593 0.950 . S
C1602 C1601 1.398 . S
C1602 C1603 1.391 . S
C1603 H1591 0.950 . S
C1603 C1599 1.393 . S
C1603 C1602 1.391 . S
C1604 H1594 0.950 . S
C1604 C1605 1.386 . S
C1604 C1606 1.391 . S
C1605 C1604 1.386 . S
C1605 C1609 1.393 . S
C1606 H1595 0.950 . S
C1606 C1604 1.391 . S
C1606 C1607 1.400 . S
C1607 C1601 1.491 . S
C1607 C1606 1.400 . S
C1607 C1608 1.398 . S
C1608 H1596 0.950 . S
C1608 C1607 1.398 . S
C1608 C1609 1.391 . S
C1609 H1597 0.950 . S
C1609 C1605 1.393 . S
C1609 C1608 1.391 . S
H1610 C1618 0.950 . S
H1611 C1623 0.950 . S
H1612 C1620 0.950 . S
H1613 C1622 0.950 . S
H1614 C1624 0.950 . S
H1615 C1626 0.950 . S
H1616 C1628 0.950 . S
H1617 C1629 0.950 . S
C1618 H1610 0.950 . S
C1618 C1619 1.386 . S
C1618 C1620 1.391 . S
C1619 C1618 1.386 . S
C1619 C1623 1.393 . S
C1620 H1612 0.950 . S
C1620 C1618 1.391 . S
C1620 C1621 1.400 . S
C1621 C1620 1.400 . S
C1621 C1622 1.398 . S
C1621 C1627 1.491 . S
C1622 H1613 0.950 . S
C1622 C1621 1.398 . S
C1622 C1623 1.391 . S
C1623 H1611 0.950 . S
C1623 C1619 1.393 . S
C1623 C1622 1.391 . S
C1624 H1614 0.950 . S
C1624 C1625 1.386 . S
C1624 C1626 1.391 . S
C1625 C1624 1.386 . S
C1625 C1629 1.393 . S
C1626 H1615 0.950 . S
C1626 C1624 1.391 . S
C1626 C1627 1.400 . S
C1627 C1621 1.491 . S
C1627 C1626 1.400 . S
C1627 C1628 1.398 . S
C1628 H1616 0.950 . S
C1628 C1627 1.398 . S
C1628 C1629 1.391 . S
C1629 H1617 0.950 . S
C1629 C1625 1.393 . S
C1629 C1628 1.391 . S
H1630 C1638 0.950 . S
H1631 C1643 0.950 . S
H1632 C1640 0.950 . S
H1633 C1642 0.950 . S
H1634 C1644 0.950 . S
H1635 C1646 0.950 . S
H1636 C1648 0.950 . S
H1637 C1649 0.950 . S
C1638 H1630 0.950 . S
C1638 C1639 1.386 . S
C1638 C1640 1.391 . S
C1639 C1638 1.386 . S
C1639 C1643 1.393 . S
C1640 H1632 0.950 . S
C1640 C1638 1.391 . S
C1640 C1641 1.400 . S
C1641 C1640 1.400 . S
C1641 C1642 1.398 . S
C1641 C1647 1.491 . S
C1642 H1633 0.950 . S
C1642 C1641 1.398 . S
C1642 C1643 1.391 . S
C1643 H1631 0.950 . S
C1643 C1639 1.393 . S
C1643 C1642 1.391 . S
C1644 H1634 0.950 . S
C1644 C1645 1.386 . S
C1644 C1646 1.391 . S
C1645 C1644 1.386 . S
C1645 C1649 1.393 . S
C1646 H1635 0.950 . S
C1646 C1644 1.391 . S
C1646 C1647 1.400 . S
C1647 C1641 1.491 . S
C1647 C1646 1.400 . S
C1647 C1648 1.398 . S
C1648 H1636 0.950 . S
C1648 C1647 1.398 . S
C1648 C1649 1.391 . S
C1649 H1637 0.950 . S
C1649 C1645 1.393 . S
C1649 C1648 1.391 . S
H1650 C1658 0.950 . S
H1651 C1663 0.950 . S
H1652 C1660 0.950 . S
H1653 C1662 0.950 . S
H1654 C1664 0.950 . S
H1655 C1666 0.950 . S
H1656 C1668 0.950 . S
H1657 C1669 0.950 . S
C1658 H1650 0.950 . S
C1658 C1659 1.386 . S
C1658 C1660 1.391 . S
C1659 C1658 1.386 . S
C1659 C1663 1.393 . S
C1660 H1652 0.950 . S
C1660 C1658 1.391 . S
C1660 C1661 1.400 . S
C1661 C1660 1.400 . S
C1661 C1662 1.398 . S
C1661 C1667 1.491 . S
C1662 H1653 0.950 . S
C1662 C1661 1.398 . S
C1662 C1663 1.391 . S
C1663 H1651 0.950 . S
C1663 C1659 1.393 . S
C1663 C1662 1.391 . S
C1664 H1654 0.950 . S
C1664 C1665 1.386 . S
C1664 C1666 1.391 . S
C1665 C1664 1.386 . S
C1665 C1669 1.393 . S
C1666 H1655 0.950 . S
C1666 C1664 1.391 . S
C1666 C1667 1.400 . S
C1667 C1661 1.491 . S
C1667 C1666 1.400 . S
C1667 C1668 1.398 . S
C1668 H1656 0.950 . S
C1668 C1667 1.398 . S
C1668 C1669 1.391 . S
C1669 H1657 0.950 . S
C1669 C1665 1.393 . S
C1669 C1668 1.391 . S
H1670 C1678 0.950 . S
H1671 C1683 0.950 . S
H1672 C1680 0.950 . S
H1673 C1682 0.950 . S
H1674 C1684 0.950 . S
H1675 C1686 0.950 . S
H1676 C1688 0.950 . S
H1677 C1689 0.950 . S
C1678 H1670 0.950 . S
C1678 C1679 1.386 . S
C1678 C1680 1.391 . S
C1679 C1678 1.386 . S
C1679 C1683 1.393 . S
C1680 H1672 0.950 . S
C1680 C1678 1.391 . S
C1680 C1681 1.400 . S
C1681 C1680 1.400 . S
C1681 C1682 1.398 . S
C1681 C1687 1.491 . S
C1682 H1673 0.950 . S
C1682 C1681 1.398 . S
C1682 C1683 1.391 . S
C1683 H1671 0.950 . S
C1683 C1679 1.393 . S
C1683 C1682 1.391 . S
C1684 H1674 0.950 . S
C1684 C1685 1.386 . S
C1684 C1686 1.391 . S
C1685 C1684 1.386 . S
C1685 C1689 1.393 . S
C1686 H1675 0.950 . S
C1686 C1684 1.391 . S
C1686 C1687 1.400 . S
C1687 C1681 1.491 . S
C1687 C1686 1.400 . S
C1687 C1688 1.398 . S
C1688 H1676 0.950 . S
C1688 C1687 1.398 . S
C1688 C1689 1.391 . S
C1689 H1677 0.950 . S
C1689 C1685 1.393 . S
C1689 C1688 1.391 . S
H1690 C1698 0.950 . S
H1691 C1703 0.950 . S
H1692 C1700 0.950 . S
H1693 C1702 0.950 . S
H1694 C1704 0.950 . S
H1695 C1706 0.950 . S
H1696 C1708 0.950 . S
H1697 C1709 0.950 . S
C1698 H1690 0.950 . S
C1698 C1699 1.386 . S
C1698 C1700 1.391 . S
C1699 C1698 1.386 . S
C1699 C1703 1.393 . S
C1700 H1692 0.950 . S
C1700 C1698 1.391 . S
C1700 C1701 1.400 . S
C1701 C1700 1.400 . S
C1701 C1702 1.398 . S
C1701 C1707 1.491 . S
C1702 H1693 0.950 . S
C1702 C1701 1.398 . S
C1702 C1703 1.391 . S
C1703 H1691 0.950 . S
C1703 C1699 1.393 . S
C1703 C1702 1.391 . S
C1704 H1694 0.950 . S
C1704 C1705 1.386 . S
C1704 C1706 1.391 . S
C1705 C1704 1.386 . S
C1705 C1709 1.393 . S
C1706 H1695 0.950 . S
C1706 C1704 1.391 . S
C1706 C1707 1.400 . S
C1707 C1701 1.491 . S
C1707 C1706 1.400 . S
C1707 C1708 1.398 . S
C1708 H1696 0.950 . S
C1708 C1707 1.398 . S
C1708 C1709 1.391 . S
C1709 H1697 0.950 . S
C1709 C1705 1.393 . S
C1709 C1708 1.391 . S
H1710 C1718 0.950 . S
H1711 C1723 0.950 . S
H1712 C1720 0.950 . S
H1713 C1722 0.950 . S
H1714 C1724 0.950 . S
H1715 C1726 0.950 . S
H1716 C1728 0.950 . S
H1717 C1729 0.950 . S
C1718 H1710 0.950 . S
C1718 C1719 1.386 . S
C1718 C1720 1.391 . S
C1719 C1718 1.386 . S
C1719 C1723 1.393 . S
C1720 H1712 0.950 . S
C1720 C1718 1.391 . S
C1720 C1721 1.400 . S
C1721 C1720 1.400 . S
C1721 C1722 1.398 . S
C1721 C1727 1.491 . S
C1722 H1713 0.950 . S
C1722 C1721 1.398 . S
C1722 C1723 1.391 . S
C1723 H1711 0.950 . S
C1723 C1719 1.393 . S
C1723 C1722 1.391 . S
C1724 H1714 0.950 . S
C1724 C1725 1.386 . S
C1724 C1726 1.391 . S
C1725 C1724 1.386 . S
C1725 C1729 1.393 . S
C1726 H1715 0.950 . S
C1726 C1724 1.391 . S
C1726 C1727 1.400 . S
C1727 C1721 1.491 . S
C1727 C1726 1.400 . S
C1727 C1728 1.398 . S
C1728 H1716 0.950 . S
C1728 C1727 1.398 . S
C1728 C1729 1.391 . S
C1729 H1717 0.950 . S
C1729 C1725 1.393 . S
C1729 C1728 1.391 . S
H1730 C1738 0.950 . S
H1731 C1743 0.950 . S
H1732 C1740 0.950 . S
H1733 C1742 0.950 . S
H1734 C1744 0.950 . S
H1735 C1746 0.950 . S
H1736 C1748 0.950 . S
H1737 C1749 0.950 . S
C1738 H1730 0.950 . S
C1738 C1739 1.386 . S
C1738 C1740 1.391 . S
C1739 C1738 1.386 . S
C1739 C1743 1.393 . S
C1740 H1732 0.950 . S
C1740 C1738 1.391 . S
C1740 C1741 1.400 . S
C1741 C1740 1.400 . S
C1741 C1742 1.398 . S
C1741 C1747 1.491 . S
C1742 H1733 0.950 . S
C1742 C1741 1.398 . S
C1742 C1743 1.391 . S
C1743 H1731 0.950 . S
C1743 C1739 1.393 . S
C1743 C1742 1.391 . S
C1744 H1734 0.950 . S
C1744 C1745 1.386 . S
C1744 C1746 1.391 . S
C1745 C1744 1.386 . S
C1745 C1749 1.393 . S
C1746 H1735 0.950 . S
C1746 C1744 1.391 . S
C1746 C1747 1.400 . S
C1747 C1741 1.491 . S
C1747 C1746 1.400 . S
C1747 C1748 1.398 . S
C1748 H1736 0.950 . S
C1748 C1747 1.398 . S
C1748 C1749 1.391 . S
C1749 H1737 0.950 . S
C1749 C1745 1.393 . S
C1749 C1748 1.391 . S
H1750 C1758 0.950 . S
H1751 C1763 0.950 . S
H1752 C1760 0.950 . S
H1753 C1762 0.950 . S
H1754 C1764 0.950 . S
H1755 C1766 0.950 . S
H1756 C1768 0.950 . S
H1757 C1769 0.950 . S
C1758 H1750 0.950 . S
C1758 C1759 1.386 . S
C1758 C1760 1.391 . S
C1759 C1758 1.386 . S
C1759 C1763 1.393 . S
C1760 H1752 0.950 . S
C1760 C1758 1.391 . S
C1760 C1761 1.400 . S
C1761 C1760 1.400 . S
C1761 C1762 1.398 . S
C1761 C1767 1.491 . S
C1762 H1753 0.950 . S
C1762 C1761 1.398 . S
C1762 C1763 1.391 . S
C1763 H1751 0.950 . S
C1763 C1759 1.393 . S
C1763 C1762 1.391 . S
C1764 H1754 0.950 . S
C1764 C1765 1.386 . S
C1764 C1766 1.391 . S
C1765 C1764 1.386 . S
C1765 C1769 1.393 . S
C1766 H1755 0.950 . S
C1766 C1764 1.391 . S
C1766 C1767 1.400 . S
C1767 C1761 1.491 . S
C1767 C1766 1.400 . S
C1767 C1768 1.398 . S
C1768 H1756 0.950 . S
C1768 C1767 1.398 . S
C1768 C1769 1.391 . S
C1769 H1757 0.950 . S
C1769 C1765 1.393 . S
C1769 C1768 1.391 . S
H1770 C1778 0.950 . S
H1771 C1783 0.950 . S
H1772 C1780 0.950 . S
H1773 C1782 0.950 . S
H1774 C1784 0.950 . S
H1775 C1786 0.950 . S
H1776 C1788 0.950 . S
H1777 C1789 0.950 . S
C1778 H1770 0.950 . S
C1778 C1779 1.386 . S
C1778 C1780 1.391 . S
C1779 C1778 1.386 . S
C1779 C1783 1.393 . S
C1780 H1772 0.950 . S
C1780 C1778 1.391 . S
C1780 C1781 1.400 . S
C1781 C1780 1.400 . S
C1781 C1782 1.398 . S
C1781 C1787 1.491 . S
C1782 H1773 0.950 . S
C1782 C1781 1.398 . S
C1782 C1783 1.391 . S
C1783 H1771 0.950 . S
C1783 C1779 1.393 . S
C1783 C1782 1.391 . S
C1784 H1774 0.950 . S
C1784 C1785 1.386 . S
C1784 C1786 1.391 . S
C1785 C1784 1.386 . S
C1785 C1789 1.393 . S
C1786 H1775 0.950 . S
C1786 C1784 1.391 . S
C1786 C1787 1.400 . S
C1787 C1781 1.491 . S
C1787 C1786 1.400 . S
C1787 C1788 1.398 . S
C1788 H1776 0.950 . S
C1788 C1787 1.398 . S
C1788 C1789 1.391 . S
C1789 H1777 0.950 . S
C1789 C1785 1.393 . S
C1789 C1788 1.391 . S
H1790 C1798 0.950 . S
H1791 C1803 0.950 . S
H1792 C1800 0.950 . S
H1793 C1802 0.950 . S
H1794 C1804 0.950 . S
H1795 C1806 0.950 . S
H1796 C1808 0.950 . S
H1797 C1809 0.950 . S
C1798 H1790 0.950 . S
C1798 C1799 1.386 . S
C1798 C1800 1.391 . S
C1799 C1798 1.386 . S
C1799 C1803 1.393 . S
C1800 H1792 0.950 . S
C1800 C1798 1.391 . S
C1800 C1801 1.400 . S
C1801 C1800 1.400 . S
C1801 C1802 1.398 . S
C1801 C1807 1.491 . S
C1802 H1793 0.950 . S
C1802 C1801 1.398 . S
C1802 C1803 1.391 . S
C1803 H1791 0.950 . S
C1803 C1799 1.393 . S
C1803 C1802 1.391 . S
C1804 H1794 0.950 . S
C1804 C1805 1.386 . S
C1804 C1806 1.391 . S
C1805 C1804 1.386 . S
C1805 C1809 1.393 . S
C1806 H1795 0.950 . S
C1806 C1804 1.391 . S
C1806 C1807 1.400 . S
C1807 C1801 1.491 . S
C1807 C1806 1.400 . S
C1807 C1808 1.398 . S
C1808 H1796 0.950 . S
C1808 C1807 1.398 . S
C1808 C1809 1.391 . S
C1809 H1797 0.950 . S
C1809 C1805 1.393 . S
C1809 C1808 1.391 . S
H1810 C1818 0.950 . S
H1811 C1823 0.950 . S
H1812 C1820 0.950 . S
H1813 C1822 0.950 . S
H1814 C1824 0.950 . S
H1815 C1826 0.950 . S
H1816 C1828 0.950 . S
H1817 C1829 0.950 . S
C1818 H1810 0.950 . S
C1818 C1819 1.386 . S
C1818 C1820 1.391 . S
C1819 C1818 1.386 . S
C1819 C1823 1.393 . S
C1820 H1812 0.950 . S
C1820 C1818 1.391 . S
C1820 C1821 1.400 . S
C1821 C1820 1.400 . S
C1821 C1822 1.398 . S
C1821 C1827 1.491 . S
C1822 H1813 0.950 . S
C1822 C1821 1.398 . S
C1822 C1823 1.391 . S
C1823 H1811 0.950 . S
C1823 C1819 1.393 . S
C1823 C1822 1.391 . S
C1824 H1814 0.950 . S
C1824 C1825 1.386 . S
C1824 C1826 1.391 . S
C1825 C1824 1.386 . S
C1825 C1829 1.393 . S
C1826 H1815 0.950 . S
C1826 C1824 1.391 . S
C1826 C1827 1.400 . S
C1827 C1821 1.491 . S
C1827 C1826 1.400 . S
C1827 C1828 1.398 . S
C1828 H1816 0.950 . S
C1828 C1827 1.398 . S
C1828 C1829 1.391 . S
C1829 H1817 0.950 . S
C1829 C1825 1.393 . S
C1829 C1828 1.391 . S
C885 C699 1.300 . S
C879 C74 1.332 . S
C905 C700 0.453 . S
C899 C142 0.734 . S
C925 C694 1.238 . S
C919 C231 1.191 . S
C939 C322 1.104 . S
C945 C693 1.208 . S
C959 C406 0.786 . S
C965 C696 0.401 . S
C985 C698 1.232 . S
C979 C494 1.201 . S
C999 C562 1.101 . S
C1005 C697 1.211 . S
C1019 C651 1.331 . S
C1025 C695 1.296 . S
C1045 C730 1.588 . S
C1039 C58 1.459 . S
C1059 C151 1.662 . S
C1065 C761 1.612 . S
C1085 C729 2.548 . S
C1079 C224 2.455 . S
C1105 C764 1.216 . S
C1099 C315 1.147 . S
C1119 C399 1.456 . S
C1125 C727 1.511 . S
C1145 C759 1.546 . S
C1139 C478 1.446 . S
C1159 C571 1.259 . S
C1165 C732 1.311 . S
C1179 C644 2.474 . S
C1185 C766 2.543 . S
C1199 C67 2.494 . S
C1205 C762 2.543 . S
C1219 C392 1.658 . S
C1225 C765 1.606 . S
C1245 C733 2.554 . S
C1239 C487 2.433 . S
C1265 C760 1.220 . S
C1259 C578 1.171 . S
C1279 C658 1.470 . S
C1285 C726 1.590 . S
C1299 C238 1.428 . S
C1305 C763 1.552 . S
C1325 C728 1.319 . S
C1319 C308 1.257 . S
C1339 C158 1.484 . S
C1345 C731 1.499 . S
C1359 C662 1.275 . S
C1365 C798 1.244 . S
C1379 C394 0.893 . S
C1385 C799 0.427 . S
C1405 C793 1.414 . S
C1399 C483 1.358 . S
C1425 C792 1.558 . S
C1419 C574 1.369 . S
C1439 C154 0.887 . S
C1445 C795 0.412 . S
C1465 C797 1.402 . S
C1459 C242 1.392 . S
C1479 C310 1.400 . S
C1485 C796 1.545 . S
C1499 C63 1.250 . S
C1505 C794 1.199 . S
C1519 C646 1.516 . S
C1525 C832 1.630 . S
C1545 C864 1.239 . S
C1539 C403 1.227 . S
C1559 C476 2.329 . S
C1565 C825 2.464 . S
C1579 C567 1.508 . S
C1585 C859 1.554 . S
C1605 C830 1.325 . S
C1599 C147 1.206 . S
C1619 C226 1.640 . S
C1625 C861 1.696 . S
C1645 C827 1.530 . S
C1639 C319 1.554 . S
C1665 C862 2.495 . S
C1659 C56 2.283 . S
C1685 C858 2.497 . S
C1679 C655 2.271 . S
C1699 C140 1.243 . S
C1705 C860 1.222 . S
C1719 C235 2.327 . S
C1725 C829 2.468 . S
C1745 C863 1.552 . S
C1739 C326 1.506 . S
C1759 C70 1.509 . S
C1765 C828 1.614 . S
C1779 C490 1.638 . S
C1785 C865 1.674 . S
C1805 C831 1.527 . S
C1799 C560 1.558 . S
C1825 C826 1.318 . S
C1819 C410 1.231 . S
