# Generated by pormake.
# Topology gar, (4,6)-cn, num edge types: 1
# Building blocks:
#     Node 0, Type 0, BuildingBlock: KUFVIS_clean_sbu_0, # of connection points: 4
#     Node 1, Type 0, BuildingBlock: KUFVIS_clean_sbu_0, # of connection points: 4
#     Node 2, Type 0, BuildingBlock: KUFVIS_clean_sbu_0, # of connection points: 4
#     Node 3, Type 0, BuildingBlock: KUFVIS_clean_sbu_0, # of connection points: 4
#     Node 4, Type 0, BuildingBlock: KUFVIS_clean_sbu_0, # of connection points: 4
#     Node 5, Type 0, BuildingBlock: KUFVIS_clean_sbu_0, # of connection points: 4
#     Node 6, Type 0, BuildingBlock: KUFVIS_clean_sbu_0, # of connection points: 4
#     Node 7, Type 0, BuildingBlock: KUFVIS_clean_sbu_0, # of connection points: 4
#     Node 8, Type 0, BuildingBlock: KUFVIS_clean_sbu_0, # of connection points: 4
#     Node 9, Type 0, BuildingBlock: KUFVIS_clean_sbu_0, # of connection points: 4
#     Node 10, Type 0, BuildingBlock: KUFVIS_clean_sbu_0, # of connection points: 4
#     Node 11, Type 0, BuildingBlock: KUFVIS_clean_sbu_0, # of connection points: 4
#     Node 12, Type 0, BuildingBlock: KUFVIS_clean_sbu_0, # of connection points: 4
#     Node 13, Type 0, BuildingBlock: KUFVIS_clean_sbu_0, # of connection points: 4
#     Node 14, Type 0, BuildingBlock: KUFVIS_clean_sbu_0, # of connection points: 4
#     Node 15, Type 0, BuildingBlock: KUFVIS_clean_sbu_0, # of connection points: 4
#     Node 16, Type 0, BuildingBlock: KUFVIS_clean_sbu_0, # of connection points: 4
#     Node 17, Type 0, BuildingBlock: KUFVIS_clean_sbu_0, # of connection points: 4
#     Node 18, Type 0, BuildingBlock: KUFVIS_clean_sbu_0, # of connection points: 4
#     Node 19, Type 0, BuildingBlock: KUFVIS_clean_sbu_0, # of connection points: 4
#     Node 20, Type 0, BuildingBlock: KUFVIS_clean_sbu_0, # of connection points: 4
#     Node 21, Type 0, BuildingBlock: KUFVIS_clean_sbu_0, # of connection points: 4
#     Node 22, Type 0, BuildingBlock: KUFVIS_clean_sbu_0, # of connection points: 4
#     Node 23, Type 0, BuildingBlock: KUFVIS_clean_sbu_0, # of connection points: 4
#     Node 24, Type 1, BuildingBlock: PAMTUU_clean_sbu_0, # of connection points: 6
#     Node 25, Type 1, BuildingBlock: PAMTUU_clean_sbu_0, # of connection points: 6
#     Node 26, Type 1, BuildingBlock: PAMTUU_clean_sbu_0, # of connection points: 6
#     Node 27, Type 1, BuildingBlock: PAMTUU_clean_sbu_0, # of connection points: 6
#     Node 28, Type 1, BuildingBlock: PAMTUU_clean_sbu_0, # of connection points: 6
#     Node 29, Type 1, BuildingBlock: PAMTUU_clean_sbu_0, # of connection points: 6
#     Node 30, Type 1, BuildingBlock: PAMTUU_clean_sbu_0, # of connection points: 6
#     Node 31, Type 1, BuildingBlock: PAMTUU_clean_sbu_0, # of connection points: 6
#     Node 32, Type 1, BuildingBlock: PAMTUU_clean_sbu_0, # of connection points: 6
#     Node 33, Type 1, BuildingBlock: PAMTUU_clean_sbu_0, # of connection points: 6
#     Node 34, Type 1, BuildingBlock: PAMTUU_clean_sbu_0, # of connection points: 6
#     Node 35, Type 1, BuildingBlock: PAMTUU_clean_sbu_0, # of connection points: 6
#     Node 36, Type 1, BuildingBlock: PAMTUU_clean_sbu_0, # of connection points: 6
#     Node 37, Type 1, BuildingBlock: PAMTUU_clean_sbu_0, # of connection points: 6
#     Node 38, Type 1, BuildingBlock: PAMTUU_clean_sbu_0, # of connection points: 6
#     Node 39, Type 1, BuildingBlock: PAMTUU_clean_sbu_0, # of connection points: 6
#     Edge 40, Type (0, 1), BuildingBlock: ZUJKAS_clean_linker_0, # of connection points: 2
#     Edge 41, Type (0, 1), BuildingBlock: ZUJKAS_clean_linker_0, # of connection points: 2
#     Edge 42, Type (0, 1), BuildingBlock: ZUJKAS_clean_linker_0, # of connection points: 2
#     Edge 43, Type (0, 1), BuildingBlock: ZUJKAS_clean_linker_0, # of connection points: 2
#     Edge 44, Type (0, 1), BuildingBlock: ZUJKAS_clean_linker_0, # of connection points: 2
#     Edge 45, Type (0, 1), BuildingBlock: ZUJKAS_clean_linker_0, # of connection points: 2
#     Edge 46, Type (0, 1), BuildingBlock: ZUJKAS_clean_linker_0, # of connection points: 2
#     Edge 47, Type (0, 1), BuildingBlock: ZUJKAS_clean_linker_0, # of connection points: 2
#     Edge 48, Type (0, 1), BuildingBlock: ZUJKAS_clean_linker_0, # of connection points: 2
#     Edge 49, Type (0, 1), BuildingBlock: ZUJKAS_clean_linker_0, # of connection points: 2
#     Edge 50, Type (0, 1), BuildingBlock: ZUJKAS_clean_linker_0, # of connection points: 2
#     Edge 51, Type (0, 1), BuildingBlock: ZUJKAS_clean_linker_0, # of connection points: 2
#     Edge 52, Type (0, 1), BuildingBlock: ZUJKAS_clean_linker_0, # of connection points: 2
#     Edge 53, Type (0, 1), BuildingBlock: ZUJKAS_clean_linker_0, # of connection points: 2
#     Edge 54, Type (0, 1), BuildingBlock: ZUJKAS_clean_linker_0, # of connection points: 2
#     Edge 55, Type (0, 1), BuildingBlock: ZUJKAS_clean_linker_0, # of connection points: 2
#     Edge 56, Type (0, 1), BuildingBlock: ZUJKAS_clean_linker_0, # of connection points: 2
#     Edge 57, Type (0, 1), BuildingBlock: ZUJKAS_clean_linker_0, # of connection points: 2
#     Edge 58, Type (0, 1), BuildingBlock: ZUJKAS_clean_linker_0, # of connection points: 2
#     Edge 59, Type (0, 1), BuildingBlock: ZUJKAS_clean_linker_0, # of connection points: 2
#     Edge 60, Type (0, 1), BuildingBlock: ZUJKAS_clean_linker_0, # of connection points: 2
#     Edge 61, Type (0, 1), BuildingBlock: ZUJKAS_clean_linker_0, # of connection points: 2
#     Edge 62, Type (0, 1), BuildingBlock: ZUJKAS_clean_linker_0, # of connection points: 2
#     Edge 63, Type (0, 1), BuildingBlock: ZUJKAS_clean_linker_0, # of connection points: 2
#     Edge 64, Type (0, 1), BuildingBlock: ZUJKAS_clean_linker_0, # of connection points: 2
#     Edge 65, Type (0, 1), BuildingBlock: ZUJKAS_clean_linker_0, # of connection points: 2
#     Edge 66, Type (0, 1), BuildingBlock: ZUJKAS_clean_linker_0, # of connection points: 2
#     Edge 67, Type (0, 1), BuildingBlock: ZUJKAS_clean_linker_0, # of connection points: 2
#     Edge 68, Type (0, 1), BuildingBlock: ZUJKAS_clean_linker_0, # of connection points: 2
#     Edge 69, Type (0, 1), BuildingBlock: ZUJKAS_clean_linker_0, # of connection points: 2
#     Edge 70, Type (0, 1), BuildingBlock: ZUJKAS_clean_linker_0, # of connection points: 2
#     Edge 71, Type (0, 1), BuildingBlock: ZUJKAS_clean_linker_0, # of connection points: 2
#     Edge 72, Type (0, 1), BuildingBlock: ZUJKAS_clean_linker_0, # of connection points: 2
#     Edge 73, Type (0, 1), BuildingBlock: ZUJKAS_clean_linker_0, # of connection points: 2
#     Edge 74, Type (0, 1), BuildingBlock: ZUJKAS_clean_linker_0, # of connection points: 2
#     Edge 75, Type (0, 1), BuildingBlock: ZUJKAS_clean_linker_0, # of connection points: 2
#     Edge 76, Type (0, 1), BuildingBlock: ZUJKAS_clean_linker_0, # of connection points: 2
#     Edge 77, Type (0, 1), BuildingBlock: ZUJKAS_clean_linker_0, # of connection points: 2
#     Edge 78, Type (0, 1), BuildingBlock: ZUJKAS_clean_linker_0, # of connection points: 2
#     Edge 79, Type (0, 1), BuildingBlock: ZUJKAS_clean_linker_0, # of connection points: 2
#     Edge 80, Type (0, 1), BuildingBlock: ZUJKAS_clean_linker_0, # of connection points: 2
#     Edge 81, Type (0, 1), BuildingBlock: ZUJKAS_clean_linker_0, # of connection points: 2
#     Edge 82, Type (0, 1), BuildingBlock: ZUJKAS_clean_linker_0, # of connection points: 2
#     Edge 83, Type (0, 1), BuildingBlock: ZUJKAS_clean_linker_0, # of connection points: 2
#     Edge 84, Type (0, 1), BuildingBlock: ZUJKAS_clean_linker_0, # of connection points: 2
#     Edge 85, Type (0, 1), BuildingBlock: ZUJKAS_clean_linker_0, # of connection points: 2
#     Edge 86, Type (0, 1), BuildingBlock: ZUJKAS_clean_linker_0, # of connection points: 2
#     Edge 87, Type (0, 1), BuildingBlock: ZUJKAS_clean_linker_0, # of connection points: 2
#     Edge 88, Type (0, 1), BuildingBlock: ZUJKAS_clean_linker_0, # of connection points: 2
#     Edge 89, Type (0, 1), BuildingBlock: ZUJKAS_clean_linker_0, # of connection points: 2
#     Edge 90, Type (0, 1), BuildingBlock: ZUJKAS_clean_linker_0, # of connection points: 2
#     Edge 91, Type (0, 1), BuildingBlock: ZUJKAS_clean_linker_0, # of connection points: 2
#     Edge 92, Type (0, 1), BuildingBlock: ZUJKAS_clean_linker_0, # of connection points: 2
#     Edge 93, Type (0, 1), BuildingBlock: ZUJKAS_clean_linker_0, # of connection points: 2
#     Edge 94, Type (0, 1), BuildingBlock: ZUJKAS_clean_linker_0, # of connection points: 2
#     Edge 95, Type (0, 1), BuildingBlock: ZUJKAS_clean_linker_0, # of connection points: 2
#     Edge 96, Type (0, 1), BuildingBlock: ZUJKAS_clean_linker_0, # of connection points: 2
#     Edge 97, Type (0, 1), BuildingBlock: ZUJKAS_clean_linker_0, # of connection points: 2
#     Edge 98, Type (0, 1), BuildingBlock: ZUJKAS_clean_linker_0, # of connection points: 2
#     Edge 99, Type (0, 1), BuildingBlock: ZUJKAS_clean_linker_0, # of connection points: 2
#     Edge 100, Type (0, 1), BuildingBlock: ZUJKAS_clean_linker_0, # of connection points: 2
#     Edge 101, Type (0, 1), BuildingBlock: ZUJKAS_clean_linker_0, # of connection points: 2
#     Edge 102, Type (0, 1), BuildingBlock: ZUJKAS_clean_linker_0, # of connection points: 2
#     Edge 103, Type (0, 1), BuildingBlock: ZUJKAS_clean_linker_0, # of connection points: 2
#     Edge 104, Type (0, 1), BuildingBlock: ZUJKAS_clean_linker_0, # of connection points: 2
#     Edge 105, Type (0, 1), BuildingBlock: ZUJKAS_clean_linker_0, # of connection points: 2
#     Edge 106, Type (0, 1), BuildingBlock: ZUJKAS_clean_linker_0, # of connection points: 2
#     Edge 107, Type (0, 1), BuildingBlock: ZUJKAS_clean_linker_0, # of connection points: 2
#     Edge 108, Type (0, 1), BuildingBlock: ZUJKAS_clean_linker_0, # of connection points: 2
#     Edge 109, Type (0, 1), BuildingBlock: ZUJKAS_clean_linker_0, # of connection points: 2
#     Edge 110, Type (0, 1), BuildingBlock: ZUJKAS_clean_linker_0, # of connection points: 2
#     Edge 111, Type (0, 1), BuildingBlock: ZUJKAS_clean_linker_0, # of connection points: 2
#     Edge 112, Type (0, 1), BuildingBlock: ZUJKAS_clean_linker_0, # of connection points: 2
#     Edge 113, Type (0, 1), BuildingBlock: ZUJKAS_clean_linker_0, # of connection points: 2
#     Edge 114, Type (0, 1), BuildingBlock: ZUJKAS_clean_linker_0, # of connection points: 2
#     Edge 115, Type (0, 1), BuildingBlock: ZUJKAS_clean_linker_0, # of connection points: 2
#     Edge 116, Type (0, 1), BuildingBlock: ZUJKAS_clean_linker_0, # of connection points: 2
#     Edge 117, Type (0, 1), BuildingBlock: ZUJKAS_clean_linker_0, # of connection points: 2
#     Edge 118, Type (0, 1), BuildingBlock: ZUJKAS_clean_linker_0, # of connection points: 2
#     Edge 119, Type (0, 1), BuildingBlock: ZUJKAS_clean_linker_0, # of connection points: 2
#     Edge 120, Type (0, 1), BuildingBlock: ZUJKAS_clean_linker_0, # of connection points: 2
#     Edge 121, Type (0, 1), BuildingBlock: ZUJKAS_clean_linker_0, # of connection points: 2
#     Edge 122, Type (0, 1), BuildingBlock: ZUJKAS_clean_linker_0, # of connection points: 2
#     Edge 123, Type (0, 1), BuildingBlock: ZUJKAS_clean_linker_0, # of connection points: 2
#     Edge 124, Type (0, 1), BuildingBlock: ZUJKAS_clean_linker_0, # of connection points: 2
#     Edge 125, Type (0, 1), BuildingBlock: ZUJKAS_clean_linker_0, # of connection points: 2
#     Edge 126, Type (0, 1), BuildingBlock: ZUJKAS_clean_linker_0, # of connection points: 2
#     Edge 127, Type (0, 1), BuildingBlock: ZUJKAS_clean_linker_0, # of connection points: 2
#     Edge 128, Type (0, 1), BuildingBlock: ZUJKAS_clean_linker_0, # of connection points: 2
#     Edge 129, Type (0, 1), BuildingBlock: ZUJKAS_clean_linker_0, # of connection points: 2
#     Edge 130, Type (0, 1), BuildingBlock: ZUJKAS_clean_linker_0, # of connection points: 2
#     Edge 131, Type (0, 1), BuildingBlock: ZUJKAS_clean_linker_0, # of connection points: 2
#     Edge 132, Type (0, 1), BuildingBlock: ZUJKAS_clean_linker_0, # of connection points: 2
#     Edge 133, Type (0, 1), BuildingBlock: ZUJKAS_clean_linker_0, # of connection points: 2
#     Edge 134, Type (0, 1), BuildingBlock: ZUJKAS_clean_linker_0, # of connection points: 2
#     Edge 135, Type (0, 1), BuildingBlock: ZUJKAS_clean_linker_0, # of connection points: 2
# Relax obj value: 0.144
# Max RMSD: 0.305
# Mean RMSD: 0.152
data_MOF--net-gar--node1-KUFVIS_clean_sbu_0--node2-PAMTUU_clean_sbu_0--edge1-ZUJKAS_clean_linker_0
_symmetry_space_group_name_H-M    P1
_symmetry_Int_Tables_number       1
_symmetry_cell_setting            triclinic
loop_
_symmetry_equiv_pos_as_xyz
'x, y, z'
_cell_length_a     75.221768
_cell_length_b     71.464403
_cell_length_c     76.412718
_cell_angle_alpha  93.346002
_cell_angle_beta   93.343081
_cell_angle_gamma 106.22651
loop_
_atom_site_label
_atom_site_type_symbol
_atom_site_fract_x
_atom_site_fract_y
_atom_site_fract_z
_atom_type_partial_charge
Mn0 Mn 0.04429 0.26715 0.39334 0.0
Mn1 Mn 0.04633 0.29812 0.36057 0.0
C2 C 0.01541 0.2698 0.37775 0.0
C3 C 0.04429 0.23596 0.40704 0.0
C4 C 0.05122 0.3132 0.3996 0.0
O5 O 0.07227 0.27198 0.38507 0.0
O6 O 0.07082 0.29177 0.3636 0.0
C7 C 0.04948 0.27109 0.33074 0.0
N8 N 0.04076 0.28354 0.33818 0.0
C9 C 0.01983 0.27961 0.31232 0.0
C10 C 0.0287 0.26691 0.30431 0.0
C11 C 0.04353 0.26257 0.3136 0.0
C12 C 0.02636 0.28766 0.32942 0.0
H13 H 0.06089 0.26769 0.3378 0.0
C14 C 0.07975 0.28189 0.37224 0.0
O15 O 0.04929 0.25311 0.41532 0.0
O16 O 0.03963 0.23662 0.39044 0.0
N17 N 0.02434 0.30573 0.35519 0.0
C18 C 0.01654 0.3173 0.36515 0.0
C19 C 1.00118 0.32253 0.35796 0.0
C20 C 0.99415 0.31605 0.34056 0.0
C21 C 1.00253 0.30436 0.3305 0.0
C22 C 0.01782 0.29962 0.33835 0.0
H23 H 0.0219 0.32244 0.3785 0.0
O24 O 0.01594 0.26339 0.39329 0.0
O25 O 0.03187 0.27435 0.37153 0.0
O26 O 0.04909 0.29616 0.40541 0.0
O27 O 0.05168 0.31537 0.38309 0.0
C28 C 0.99603 0.29683 0.31313 0.0
C29 C 1.00462 0.28439 0.30407 0.0
H30 H 0.02414 0.26029 0.2911 0.0
H31 H 0.05039 0.25269 0.30755 0.0
H32 H 0.99477 0.33154 0.36582 0.0
H33 H 0.9822 0.31999 0.33511 0.0
H34 H 0.98425 0.30027 0.3067 0.0
H35 H 0.99931 0.27844 0.29082 0.0
Mn36 Mn 0.04426 0.78102 0.66253 0.0
Mn37 Mn 0.05411 0.81757 0.69496 0.0
C38 C 0.07567 0.79267 0.6771 0.0
C39 C 0.03776 0.74678 0.64974 0.0
C40 C 0.04782 0.82571 0.65624 0.0
O41 O 0.01722 0.77925 0.6724 0.0
O42 O 0.02639 0.80422 0.69345 0.0
C43 C 0.04523 0.7949 0.72607 0.0
N44 N 0.05771 0.80786 0.71725 0.0
C45 C 0.08155 0.81197 0.74071 0.0
C46 C 0.06893 0.79876 0.7501 0.0
C47 C 0.0507 0.79018 0.74273 0.0
C48 C 0.07525 0.8163 0.72426 0.0
H49 H 0.03122 0.78822 0.72045 0.0
C50 C 0.01339 0.79021 0.68517 0.0
O51 O 0.03446 0.76071 0.64117 0.0
O52 O 0.04305 0.75212 0.6662 0.0
N53 N 0.07998 0.8313 0.69805 0.0
C54 C 0.09083 0.84244 0.68667 0.0
C55 C 0.10972 0.85129 0.69165 0.0
C56 C 0.11725 0.84861 0.70825 0.0
C57 C 0.10582 0.83705 0.71971 0.0
C58 C 0.08708 0.82865 0.71406 0.0
H59 H 0.08516 0.8444 0.67383 0.0
O60 O 0.07234 0.78532 0.66092 0.0
O61 O 0.06052 0.79447 0.68389 0.0
O62 O 0.04514 0.80773 0.65034 0.0
O63 O 0.051 0.83053 0.67275 0.0
C64 C 0.11239 0.83313 0.73634 0.0
C65 C 0.10026 0.82064 0.74686 0.0
H66 H 0.07314 0.79494 0.76289 0.0
H67 H 0.04089 0.77991 0.74986 0.0
H68 H 0.11848 0.86008 0.68267 0.0
H69 H 0.13187 0.85532 0.71198 0.0
H70 H 0.12682 0.83941 0.74106 0.0
H71 H 0.10553 0.81753 0.75953 0.0
Mn72 Mn 0.54418 0.77059 0.89345 0.0
Mn73 Mn 0.54758 0.80223 0.86109 0.0
C74 C 0.51565 0.7739 0.87753 0.0
C75 C 0.54382 0.73912 0.90712 0.0
C76 C 0.55208 0.81686 0.90017 0.0
O77 O 0.57223 0.77493 0.88538 0.0
O78 O 0.57179 0.79512 0.86402 0.0
C79 C 0.55038 0.7757 0.83074 0.0
N80 N 0.54194 0.78826 0.83844 0.0
C81 C 0.52172 0.78601 0.81234 0.0
C82 C 0.53031 0.77322 0.80407 0.0
C83 C 0.54464 0.76797 0.81334 0.0
C84 C 0.52806 0.7933 0.82968 0.0
H85 H 0.56142 0.77163 0.83778 0.0
C86 C 0.58017 0.78476 0.87269 0.0
O87 O 0.54895 0.75627 0.91538 0.0
O88 O 0.53911 0.73991 0.89055 0.0
N89 N 0.52598 0.81056 0.85588 0.0
C90 C 0.51809 0.8217 0.86623 0.0
C91 C 0.50298 0.82747 0.8592 0.0
C92 C 0.49628 0.82194 0.84157 0.0
C93 C 0.5047 0.81059 0.83115 0.0
C94 C 0.51972 0.80526 0.83887 0.0
H95 H 0.52318 0.82607 0.87977 0.0
O96 O 0.51586 0.76724 0.893 0.0
O97 O 0.53228 0.77834 0.87157 0.0
O98 O 0.54905 0.79962 0.90578 0.0
O99 O 0.5533 0.81926 0.88377 0.0
C100 C 0.49841 0.80385 0.81356 0.0
C101 C 0.50689 0.79154 0.80417 0.0
H102 H 0.52589 0.76718 0.79067 0.0
H103 H 0.55128 0.75801 0.80708 0.0
H104 H 0.4965 0.83616 0.86735 0.0
H105 H 0.48452 0.82629 0.83623 0.0
H106 H 0.48681 0.80772 0.80725 0.0
H107 H 0.50173 0.78618 0.79076 0.0
Mn108 Mn 0.54512 0.28356 0.16513 0.0
Mn109 Mn 0.51094 0.27264 0.13188 0.0
C110 C 0.53451 0.25075 0.1499 0.0
C111 C 0.57789 0.29004 0.17817 0.0
C112 C 0.50203 0.27951 0.17032 0.0
O113 O 0.54705 0.31185 0.15505 0.0
O114 O 0.52365 0.30165 0.13363 0.0
C115 C 0.5333 0.2822 0.10129 0.0
N116 N 0.5207 0.26902 0.10981 0.0
C117 C 0.51736 0.24404 0.08633 0.0
C118 C 0.53021 0.25739 0.07726 0.0
C119 C 0.53823 0.27653 0.08478 0.0
C120 C 0.51281 0.25059 0.10264 0.0
H121 H 0.53957 0.29691 0.10703 0.0
C122 C 0.53688 0.31545 0.14185 0.0
O123 O 0.5644 0.29272 0.18685 0.0
O124 O 0.57293 0.28538 0.16158 0.0
N125 N 0.49814 0.24534 0.12861 0.0
C126 C 0.48749 0.23375 0.13984 0.0
C127 C 0.47923 0.21388 0.13472 0.0
C128 C 0.48204 0.2061 0.11815 0.0
C129 C 0.49314 0.21828 0.10686 0.0
C130 C 0.50091 0.23802 0.11262 0.0
H131 H 0.48547 0.23958 0.15269 0.0
O132 O 0.54097 0.25378 0.16623 0.0
O133 O 0.53285 0.26675 0.14346 0.0
O134 O 0.51912 0.28298 0.17671 0.0
O135 O 0.49803 0.27549 0.15377 0.0
C136 C 0.49723 0.21149 0.09032 0.0
C137 C 0.5093 0.22437 0.08005 0.0
H138 H 0.5342 0.25302 0.0646 0.0
H139 H 0.54823 0.28689 0.0779 0.0
H140 H 0.47081 0.20453 0.14358 0.0
H141 H 0.4758 0.19072 0.11432 0.0
H142 H 0.49141 0.1963 0.08552 0.0
H143 H 0.5126 0.21888 0.0675 0.0
Mn144 Mn 0.0849 0.79535 0.13445 0.0
Mn145 Mn 0.05137 0.77917 0.1012 0.0
C146 C 0.07648 0.76292 0.12338 0.0
C147 C 0.11548 0.80689 0.14675 0.0
C148 C 0.04303 0.7857 0.1387 0.0
O149 O 0.08387 0.82106 0.12443 0.0
O150 O 0.06039 0.80812 0.10369 0.0
C151 C 0.07424 0.79247 0.07166 0.0
N152 N 0.06243 0.77787 0.07949 0.0
C153 C 0.06104 0.75481 0.05488 0.0
C154 C 0.07314 0.76961 0.0465 0.0
C155 C 0.07979 0.78851 0.05496 0.0
C156 C 0.05593 0.75965 0.07148 0.0
H157 H 0.07931 0.80703 0.07808 0.0
C158 C 0.07228 0.82278 0.11211 0.0
O159 O 0.10162 0.80889 0.15526 0.0
O160 O 0.11174 0.79985 0.13046 0.0
N161 N 0.04125 0.75149 0.09707 0.0
C162 C 0.03048 0.73868 0.10735 0.0
C163 C 0.02302 0.71903 0.101 0.0
C164 C 0.02656 0.71282 0.0841 0.0
C165 C 0.03762 0.72629 0.07375 0.0
C166 C 0.04457 0.74571 0.08073 0.0
H167 H 0.02764 0.74342 0.1203 0.0
O168 O 0.08372 0.768 0.13935 0.0
O169 O 0.07397 0.7769 0.1142 0.0
O170 O 0.05987 0.79266 0.14479 0.0
O171 O 0.03831 0.77958 0.12265 0.0
C172 C 0.04232 0.72114 0.05692 0.0
C173 C 0.05405 0.73539 0.0475 0.0
H174 H 0.07749 0.76661 0.03363 0.0
H175 H 0.08915 0.80001 0.04859 0.0
H176 H 0.01454 0.7087 0.10909 0.0
H177 H 0.02085 0.69763 0.07927 0.0
H178 H 0.03719 0.70622 0.05121 0.0
H179 H 0.05774 0.73122 0.03466 0.0
Mn180 Mn 0.50536 0.75977 0.42697 0.0
Mn181 Mn 0.50655 0.78767 0.39248 0.0
C182 C 0.47756 0.76036 0.41208 0.0
C183 C 0.50798 0.73084 0.43853 0.0
C184 C 0.51368 0.80412 0.43068 0.0
O185 O 0.5323 0.76622 0.42049 0.0
O186 O 0.5297 0.77997 0.39498 0.0
C187 C 0.50667 0.75927 0.36271 0.0
N188 N 0.49919 0.77261 0.37047 0.0
C189 C 0.4785 0.77088 0.34483 0.0
C190 C 0.48607 0.75721 0.33649 0.0
C191 C 0.50015 0.7513 0.34551 0.0
C192 C 0.48554 0.77826 0.36198 0.0
H193 H 0.51755 0.75482 0.36958 0.0
C194 C 0.53872 0.77308 0.40638 0.0
O195 O 0.51198 0.74726 0.44811 0.0
O196 O 0.50218 0.73103 0.42221 0.0
N197 N 0.48501 0.79631 0.38818 0.0
C198 C 0.47841 0.80862 0.39853 0.0
C199 C 0.46414 0.81578 0.39158 0.0
C200 C 0.4569 0.81029 0.37408 0.0
C201 C 0.46375 0.79741 0.36377 0.0
C202 C 0.47814 0.79097 0.37132 0.0
H203 H 0.48412 0.81315 0.41188 0.0
O204 O 0.47778 0.7545 0.42786 0.0
O205 O 0.49351 0.76526 0.40528 0.0
O206 O 0.50959 0.78787 0.43774 0.0
O207 O 0.5142 0.80525 0.41412 0.0
C208 C 0.45675 0.79058 0.34636 0.0
C209 C 0.46406 0.77725 0.33692 0.0
H210 H 0.48107 0.75105 0.32323 0.0
H211 H 0.50602 0.74071 0.33919 0.0
H212 H 0.45882 0.8256 0.39966 0.0
H213 H 0.44592 0.81588 0.36875 0.0
H214 H 0.44555 0.79527 0.3402 0.0
H215 H 0.45838 0.77185 0.32364 0.0
Mn216 Mn 0.58499 0.29428 0.63315 0.0
Mn217 Mn 0.55198 0.27991 0.59928 0.0
C218 C 0.57555 0.26189 0.62169 0.0
C219 C 0.61563 0.3052 0.64527 0.0
C220 C 0.54358 0.28778 0.63679 0.0
O221 O 0.58457 0.32039 0.62336 0.0
O222 O 0.56357 0.30848 0.60018 0.0
C223 C 0.57594 0.28832 0.5697 0.0
N224 N 0.56271 0.27558 0.57795 0.0
C225 C 0.55936 0.25023 0.55484 0.0
C226 C 0.57278 0.26316 0.54595 0.0
C227 C 0.58117 0.28226 0.55346 0.0
C228 C 0.55467 0.25713 0.57093 0.0
H229 H 0.58248 0.30295 0.5755 0.0
C230 C 0.57512 0.32263 0.60954 0.0
O231 O 0.60195 0.30742 0.65394 0.0
O232 O 0.61169 0.29815 0.629 0.0
N233 N 0.53962 0.25252 0.59673 0.0
C234 C 0.52796 0.24151 0.60762 0.0
C235 C 0.5187 0.2219 0.60226 0.0
C236 C 0.52144 0.21389 0.58575 0.0
C237 C 0.5337 0.22544 0.5749 0.0
C238 C 0.54233 0.24495 0.58083 0.0
H239 H 0.52565 0.24766 0.62023 0.0
O240 O 0.58307 0.26652 0.63762 0.0
O241 O 0.57362 0.27631 0.61286 0.0
O242 O 0.56021 0.29198 0.64351 0.0
O243 O 0.5391 0.28348 0.62041 0.0
C244 C 0.53785 0.21829 0.55853 0.0
C245 C 0.55074 0.23066 0.54853 0.0
H246 H 0.57691 0.25852 0.53346 0.0
H247 H 0.59165 0.29227 0.54676 0.0
H248 H 0.50938 0.21301 0.61078 0.0
H249 H 0.51416 0.19881 0.5816 0.0
H250 H 0.53143 0.20323 0.55363 0.0
H251 H 0.55406 0.22492 0.5361 0.0
Mn252 Mn 1.00615 0.26047 0.92622 0.0
Mn253 Mn 1.00956 0.29014 0.89285 0.0
C254 C 0.97946 0.26181 0.90993 0.0
C255 C 1.00762 0.23103 0.93751 0.0
C256 C 0.01369 0.30486 0.9313 0.0
O257 O 0.03357 0.26695 0.92132 0.0
O258 O 0.03311 0.28377 0.89732 0.0
C259 C 0.0138 0.26347 0.86335 0.0
N260 N 1.0045 0.27544 0.87059 0.0
C261 C 0.98668 0.27451 0.84325 0.0
C262 C 0.99598 0.26209 0.83548 0.0
C263 C 1.00946 0.25637 0.84563 0.0
C264 C 0.99103 0.28043 0.86114 0.0
H265 H 0.02462 0.25961 0.87098 0.0
C266 C 0.04132 0.27584 0.90853 0.0
O267 O 1.01077 0.24713 0.94743 0.0
O268 O 1.00338 0.23188 0.92089 0.0
N269 N 0.98791 0.298 0.88681 0.0
C270 C 0.98103 0.31099 0.896 0.0
C271 C 0.9672 0.31794 0.88785 0.0
C272 C 0.96122 0.31221 0.8701 0.0
C273 C 0.9691 0.29953 0.86069 0.0
C274 C 0.98232 0.29248 0.8697 0.0
H275 H 0.98602 0.31601 0.90947 0.0
O276 O 0.97845 0.25516 0.92541 0.0
O277 O 0.9959 0.26692 0.90417 0.0
O278 O 1.00981 0.28823 0.93771 0.0
O279 O 0.01477 0.30688 0.91491 0.0
C280 C 0.96491 0.29426 0.84256 0.0
C281 C 0.97366 0.28171 0.83384 0.0
H282 H 0.99301 0.25702 0.8217 0.0
H283 H 0.01679 0.24689 0.83971 0.0
H284 H 0.96143 0.328 0.89513 0.0
H285 H 0.95083 0.31794 0.86374 0.0
H286 H 0.95488 0.29966 0.8352 0.0
H287 H 0.97021 0.27762 0.81992 0.0
Mn288 Mn 0.43879 0.04436 0.30168 0.0
Mn289 Mn 0.40482 0.03051 0.32904 0.0
C290 C 0.42668 0.01211 0.30567 0.0
C291 C 0.44835 0.05229 0.27451 0.0
C292 C 0.44513 0.04838 0.34119 0.0
O293 O 0.42977 0.06812 0.30513 0.0
O294 O 0.40554 0.05655 0.32132 0.0
C295 C 0.37233 0.02641 0.30384 0.0
N296 N 0.38177 0.0185 0.3157 0.0
C297 C 0.35793 0.98776 0.31221 0.0
C298 C 0.34789 0.9956 0.30005 0.0
C299 C 0.35516 0.01499 0.2958 0.0
C300 C 0.37498 0.99982 0.31977 0.0
H301 H 0.37787 0.04131 0.30055 0.0
C302 C 0.41573 0.06989 0.31285 0.0
O303 O 0.45935 0.05885 0.28861 0.0
O304 O 0.43152 0.04176 0.27626 0.0
N305 N 0.40257 1.00527 0.33725 0.0
C306 C 0.41442 0.99966 0.34857 0.0
C307 C 0.40937 0.98056 0.35395 0.0
C308 C 0.39215 0.96753 0.34778 0.0
C309 C 0.38018 0.97365 0.33614 0.0
C310 C 0.38593 0.99286 0.33129 0.0
H311 H 0.42762 0.00966 0.35346 0.0
O312 O 0.44293 0.01813 0.29967 0.0
O313 O 0.41796 0.0251 0.30885 0.0
O314 O 0.45134 0.04939 0.3261 0.0
O315 O 0.428 0.04227 0.34396 0.0
C316 C 0.36282 0.9614 0.32908 0.0
C317 C 0.35177 0.9684 0.31701 0.0
H318 H 0.33465 0.98683 0.29381 0.0
H319 H 0.34753 0.02112 0.28637 0.0
H320 H 0.41871 0.97592 0.3629 0.0
H321 H 0.38829 0.95283 0.35202 0.0
H322 H 0.3579 0.94652 0.33271 0.0
H323 H 0.3386 0.95875 0.31144 0.0
Mn324 Mn 0.29345 0.19694 0.52426 0.0
Mn325 Mn 0.28371 0.1582 0.49392 0.0
C326 C 0.26287 0.17882 0.51613 0.0
C327 C 0.29802 0.2088 0.55472 0.0
C328 C 0.29621 0.20021 0.48394 0.0
O329 O 0.31813 0.18988 0.52435 0.0
O330 O 0.3095 0.1637 0.50437 0.0
C331 C 0.2857 0.12673 0.51677 0.0
N332 N 0.27591 0.13426 0.50491 0.0
C333 C 0.24948 0.10588 0.50414 0.0
C334 C 0.2593 0.09779 0.5163 0.0
C335 C 0.27748 0.10827 0.52265 0.0
C336 C 0.25847 0.12422 0.49859 0.0
H337 H 0.29967 0.13474 0.52168 0.0
C338 C 0.32141 0.17559 0.51545 0.0
O339 O 0.30373 0.22031 0.54236 0.0
O340 O 0.29074 0.19061 0.54945 0.0
N341 N 0.25892 0.15146 0.48322 0.0
C342 C 0.25091 0.162 0.47261 0.0
C343 C 0.2324 0.15402 0.46583 0.0
C344 C 0.22236 0.1353 0.46998 0.0
C345 C 0.23092 0.12473 0.48088 0.0
C346 C 0.24943 0.13338 0.48718 0.0
H347 H 0.25856 0.17643 0.46946 0.0
O348 O 0.26664 0.19684 0.52252 0.0
O349 O 0.27712 0.17234 0.514 0.0
O350 O 0.29758 0.20874 0.49952 0.0
O351 O 0.29129 0.18168 0.48099 0.0
C352 C 0.22169 0.10612 0.48606 0.0
C353 C 0.23098 0.09667 0.49764 0.0
H354 H 0.25295 0.08362 0.52098 0.0
H355 H 0.28512 0.10214 0.53207 0.0
H356 H 0.22586 0.16231 0.45748 0.0
H357 H 0.20803 0.12926 0.46484 0.0
H358 H 0.20736 0.09907 0.4814 0.0
H359 H 0.22367 0.08248 0.50171 0.0
Mn360 Mn 0.16381 0.03383 0.81492 0.0
Mn361 Mn 0.19938 0.04804 0.84611 0.0
C362 C 0.17593 0.06627 0.82413 0.0
C363 C 0.15237 0.02617 0.78601 0.0
C364 C 0.15984 0.02834 0.85346 0.0
O365 O 0.1738 0.01042 0.81545 0.0
O366 O 0.19936 0.02274 0.83416 0.0
C367 C 0.23108 0.05487 0.82384 0.0
N368 N 0.22167 0.06159 0.83629 0.0
C369 C 0.24448 0.09304 0.83949 0.0
C370 C 0.2545 0.08641 0.8268 0.0
C371 C 0.24773 0.06727 0.81889 0.0
C372 C 0.22798 0.08003 0.84387 0.0
H373 H 0.22588 0.04019 0.8177 0.0
C374 C 0.18886 0.00931 0.82329 0.0
O375 O 0.1424 0.01932 0.79874 0.0
O376 O 0.16931 0.03689 0.79009 0.0
N377 N 0.20079 0.07262 0.85831 0.0
C378 C 0.18868 0.07723 0.8692 0.0
C379 C 0.19294 0.09614 0.87756 0.0
C380 C 0.20967 0.11003 0.87478 0.0
C381 C 0.22195 0.1049 0.86358 0.0
C382 C 0.21693 0.08586 0.85556 0.0
H383 H 0.17583 0.0666 0.87145 0.0
O384 O 0.15923 0.06002 0.81653 0.0
O385 O 0.18492 0.05337 0.82593 0.0
O386 O 0.15269 0.02787 0.83795 0.0
O387 O 0.1772 0.03473 0.85781 0.0
C388 C 0.23886 0.118 0.8599 0.0
C389 C 0.25006 0.11213 0.84775 0.0
H390 H 0.26733 0.09595 0.82292 0.0
H391 H 0.25533 0.06209 0.80901 0.0
H392 H 0.18337 0.1 0.88615 0.0
H393 H 0.2129 0.12462 0.88122 0.0
H394 H 0.2432 0.13276 0.86607 0.0
H395 H 0.26281 0.1225 0.8447 0.0
Mn396 Mn 0.30201 0.9115 0.00612 0.0
Mn397 Mn 0.31046 0.94687 0.97826 0.0
C398 C 0.33189 0.92838 1.00169 0.0
C399 C 0.29775 0.90156 0.03398 0.0
C400 C 0.2958 0.90379 0.96677 0.0
O401 O 0.27779 0.9183 1.00371 0.0
O402 O 0.28611 0.94456 0.98763 0.0
C403 C 0.3138 0.98188 1.00233 0.0
N404 N 0.32139 0.97185 0.99062 0.0
C405 C 0.34944 0.99844 0.99178 0.0
C406 C 0.34191 0.0091 1.00379 0.0
C407 C 0.32406 1.00072 0.00918 0.0
C408 C 0.33869 0.97963 0.98562 0.0
H409 H 0.3 0.97557 0.00634 0.0
C410 C 0.27464 0.93293 0.99665 0.0
O411 O 0.29169 0.88933 0.02025 0.0
O412 O 0.30519 0.91978 0.03143 0.0
N413 N 0.33411 0.95016 0.96898 0.0
C414 C 0.33972 0.93755 0.95804 0.0
C415 C 0.35762 0.9433 0.95212 0.0
C416 C 0.36947 0.962 0.95738 0.0
C417 C 0.36336 0.97474 0.96859 0.0
C418 C 0.34544 0.96812 0.9742 0.0
H419 H 0.33064 0.92321 0.95385 0.0
O420 O 0.3284 0.91095 0.00715 0.0
O421 O 0.31767 0.93468 0.99837 0.0
O422 O 0.29696 0.89757 0.98187 0.0
O423 O 0.29972 0.92189 0.9641 0.0
C424 C 0.37432 0.99374 0.9744 0.0
C425 C 0.36727 1.00567 0.9858 0.0
H426 H 0.34976 0.02366 0.00905 0.0
H427 H 0.31818 0.00883 0.01851 0.0
H428 H 0.36223 0.93338 0.94346 0.0
H429 H 0.38325 0.96642 0.95273 0.0
H430 H 0.3882 0.99931 0.9702 0.0
H431 H 0.37585 0.02025 0.99021 0.0
Mn432 Mn 0.29488 0.36265 0.03404 0.0
Mn433 Mn 0.30548 0.40082 0.00833 0.0
C434 C 0.32591 0.37916 0.03039 0.0
C435 C 0.28901 0.35155 0.0628 0.0
C436 C 0.29093 0.35838 0.99329 0.0
O437 O 0.27053 0.37061 0.03158 0.0
O438 O 0.28115 0.39791 0.01744 0.0
C439 C 0.30891 0.43333 0.03539 0.0
N440 N 0.31602 0.42504 0.02202 0.0
C441 C 0.34262 0.45323 0.02266 0.0
C442 C 0.33547 0.4622 0.03629 0.0
C443 C 0.31861 0.45215 0.04277 0.0
C444 C 0.33241 0.43441 0.01595 0.0
H445 H 0.29599 0.4256 0.04042 0.0
C446 C 0.26866 0.38632 0.0254 0.0
O447 O 0.28342 0.33992 0.0486 0.0
O448 O 0.29736 0.3695 0.06024 0.0
N449 N 0.32893 0.40562 0.99853 0.0
C450 C 0.33431 0.3945 0.98594 0.0
C451 C 0.3507 0.40248 0.97783 0.0
C452 C 0.36131 0.42181 0.98268 0.0
C453 C 0.3558 0.43277 0.99602 0.0
C454 C 0.33913 0.4242 1.00334 0.0
H455 H 0.32596 0.37983 0.98182 0.0
O456 O 0.32148 0.36159 0.03555 0.0
O457 O 0.31218 0.38641 0.02742 0.0
O458 O 0.29063 0.35017 0.00789 0.0
O459 O 0.29515 0.37689 0.99269 0.0
C460 C 0.36612 0.4519 1.00224 0.0
C461 C 0.35962 0.46206 0.01568 0.0
H462 H 0.3429 0.47672 0.042 0.0
H463 H 0.31308 0.45891 0.05339 0.0
H464 H 0.35501 0.39386 0.96769 0.0
H465 H 0.37386 0.42799 0.97625 0.0
H466 H 0.37917 0.45884 0.99692 0.0
H467 H 0.36781 0.47663 0.02058 0.0
Mn468 Mn 0.79082 0.15314 0.05035 0.0
Mn469 Mn 0.77159 0.11236 0.0238 0.0
C470 C 0.75918 0.14008 0.04696 0.0
C471 C 0.80289 0.1677 0.07783 0.0
C472 C 0.78861 0.15212 0.01075 0.0
O473 O 0.81233 0.14196 0.04666 0.0
O474 O 0.7968 0.11269 0.03252 0.0
C475 C 0.7685 0.08215 0.04923 0.0
N476 N 0.76037 0.09088 0.037 0.0
C477 C 0.73074 0.06721 0.03838 0.0
C478 C 0.73882 0.05783 0.05086 0.0
C479 C 0.75775 0.06544 0.05642 0.0
C480 C 0.74207 0.08399 0.03191 0.0
H481 H 0.78305 0.08792 0.05345 0.0
C482 C 0.81141 0.12481 0.04025 0.0
O483 O 0.80719 0.17691 0.06381 0.0
O484 O 0.79246 0.14978 0.07574 0.0
N485 N 0.74686 0.11053 0.0148 0.0
C486 C 0.74103 0.12182 1.00326 0.0
C487 C 0.72224 0.11676 0.99704 0.0
C488 C 0.70971 0.1 1.00252 0.0
C489 C 0.71608 0.0885 0.01425 0.0
C490 C 0.73491 0.09438 0.02015 0.0
H491 H 0.75062 0.13455 0.99879 0.0
O492 O 0.76622 0.15828 0.05264 0.0
O493 O 0.77085 0.1304 0.0435 0.0
O494 O 0.7917 0.16187 0.02562 0.0
O495 O 0.78222 0.13354 0.00881 0.0
C496 C 0.70449 0.07138 0.02025 0.0
C497 C 0.71187 0.06062 0.03215 0.0
H498 H 0.73059 0.04485 0.05634 0.0
H499 H 0.76406 0.05835 0.06614 0.0
H500 H 0.71745 0.12568 0.98794 0.0
H501 H 0.69524 0.09608 0.99763 0.0
H502 H 0.68987 0.06639 0.01585 0.0
H503 H 0.70282 0.0475 0.03671 0.0
Mn504 Mn 0.15216 0.5217 0.24549 0.0
Mn505 Mn 0.18587 0.53053 0.27804 0.0
C506 C 0.16964 0.55312 0.25341 0.0
C507 C 0.14227 0.51315 0.21651 0.0
C508 C 0.14489 0.51808 0.28322 0.0
O509 O 0.15617 0.49528 0.24868 0.0
O510 O 0.18301 0.50451 0.26616 0.0
C511 C 0.21922 0.5323 0.25887 0.0
N512 N 0.20995 0.54096 0.27007 0.0
C513 C 0.23644 0.56914 0.27607 0.0
C514 C 0.24632 0.56053 0.26463 0.0
C515 C 0.23761 0.54209 0.25589 0.0
C516 C 0.21807 0.55884 0.2783 0.0
H517 H 0.21264 0.51802 0.25234 0.0
C518 C 0.17044 0.492 0.25616 0.0
O519 O 0.1307 0.50986 0.22869 0.0
O520 O 0.15976 0.5211 0.22122 0.0
N521 N 0.18968 0.55578 0.29005 0.0
C522 C 0.17784 0.56261 0.29972 0.0
C523 C 0.18403 0.58137 0.30848 0.0
C524 C 0.20239 0.59279 0.30741 0.0
C525 C 0.21435 0.58541 0.29746 0.0
C526 C 0.20732 0.56673 0.28882 0.0
H527 H 0.16378 0.55383 0.30079 0.0
O528 O 0.1536 0.54998 0.24469 0.0
O529 O 0.1748 0.53787 0.25686 0.0
O530 O 0.13917 0.52041 0.26782 0.0
O531 O 0.16185 0.52008 0.28809 0.0
C532 C 0.23297 0.59584 0.29578 0.0
C533 C 0.24408 0.58758 0.28528 0.0
H534 H 0.26055 0.56798 0.26238 0.0
H535 H 0.24513 0.53536 0.247 0.0
H536 H 0.17471 0.58695 0.31614 0.0
H537 H 0.20716 0.60721 0.31426 0.0
H538 H 0.23886 0.61026 0.30243 0.0
H539 H 0.25837 0.59576 0.28404 0.0
Mn540 Mn 0.79467 0.86385 0.53581 0.0
Mn541 Mn 0.80141 0.89946 0.50712 0.0
C542 C 0.82462 0.88208 0.5309 0.0
C543 C 0.7901 0.85378 0.565 0.0
C544 C 0.79131 0.85642 0.49497 0.0
O545 O 0.76931 0.86925 0.5333 0.0
O546 O 0.77599 0.89327 0.51474 0.0
C547 C 0.79874 0.93194 0.53176 0.0
N548 N 0.80822 0.92456 0.51978 0.0
C549 C 0.83208 0.95519 0.52079 0.0
C550 C 0.82256 0.96316 0.53309 0.0
C551 C 0.80585 0.95145 0.53865 0.0
C552 C 0.82435 0.93564 0.51445 0.0
H553 H 0.78584 0.92301 0.53597 0.0
C554 C 0.76495 0.88204 0.52425 0.0
O555 O 0.78511 0.84149 0.55118 0.0
O556 O 0.79724 0.87185 0.56185 0.0
N557 N 0.82547 0.90733 0.49847 0.0
C558 C 0.83334 0.89712 0.48718 0.0
C559 C 0.85002 0.90673 0.48021 0.0
C560 C 0.85834 0.92673 0.48485 0.0
C561 C 0.85015 0.93683 0.4967 0.0
C562 C 0.83336 0.92657 0.50297 0.0
H563 H 0.82681 0.88185 0.48333 0.0
O564 O 0.82165 0.86502 0.53705 0.0
O565 O 0.81001 0.88801 0.52768 0.0
O566 O 0.7907 0.84978 0.51029 0.0
O567 O 0.79482 0.87454 0.49259 0.0
C568 C 0.858 0.95665 0.50259 0.0
C569 C 0.84903 0.96579 0.51472 0.0
H570 H 0.82799 0.97821 0.53841 0.0
H571 H 0.79844 0.95749 0.54816 0.0
H572 H 0.85637 0.8988 0.47118 0.0
H573 H 0.87116 0.93414 0.47937 0.0
H574 H 0.87105 0.96492 0.49803 0.0
H575 H 0.85533 0.98096 0.51935 0.0
Mn576 Mn 0.92718 0.023 0.23445 0.0
Mn577 Mn 0.89455 1.00615 0.26263 0.0
C578 C 0.91554 0.99005 0.23617 0.0
C579 C 0.93581 0.0332 0.20752 0.0
C580 C 0.93524 0.02285 0.27389 0.0
O581 O 0.91829 0.04656 0.24026 0.0
O582 O 0.89632 0.03347 0.25832 0.0
C583 C 0.86168 0.00646 0.23959 0.0
N584 N 0.87076 0.99674 0.25003 0.0
C585 C 0.84487 0.96771 0.24647 0.0
C586 C 0.83517 0.97744 0.23577 0.0
C587 C 0.84365 0.99687 0.23225 0.0
C588 C 0.8628 0.97802 0.25338 0.0
H589 H 0.86816 0.02142 0.23694 0.0
C590 C 0.90569 0.0477 0.25029 0.0
O591 O 0.94717 0.03877 0.22152 0.0
O592 O 0.91911 0.02237 0.20931 0.0
N593 N 0.89112 0.97982 0.26833 0.0
C594 C 0.90271 0.97237 0.2783 0.0
C595 C 0.89636 0.95313 0.28312 0.0
C596 C 0.87819 0.94176 0.27763 0.0
C597 C 0.86655 0.94974 0.26735 0.0
C598 C 0.87351 0.96913 0.26328 0.0
H599 H 0.9166 0.98113 0.28271 0.0
O600 O 0.93157 0.99715 0.23006 0.0
O601 O 0.90661 1.00246 0.24104 0.0
O602 O 0.94077 0.0264 0.25871 0.0
O603 O 0.91834 0.01527 0.27685 0.0
C604 C 0.84838 0.93917 0.26087 0.0
C605 C 0.83757 0.94813 0.25035 0.0
H606 H 0.82126 0.97008 0.23007 0.0
H607 H 0.83627 1.00444 0.22394 0.0
H608 H 0.90543 0.94706 0.29107 0.0
H609 H 0.87338 0.92687 0.28128 0.0
H610 H 0.84267 0.92409 0.26371 0.0
H611 H 0.82372 0.93979 0.24523 0.0
Mn612 Mn 0.29521 0.65424 0.5513 0.0
Mn613 Mn 0.27643 0.61512 0.52272 0.0
C614 C 0.26363 0.6419 0.54673 0.0
C615 C 0.30639 0.66694 0.57948 0.0
C616 C 0.29444 0.65574 0.51203 0.0
O617 O 0.31664 0.64297 0.54739 0.0
O618 O 0.30104 0.61444 0.53214 0.0
C619 C 0.27145 0.5831 0.54645 0.0
N620 N 0.26416 0.59282 0.53447 0.0
C621 C 0.23441 0.56872 0.53294 0.0
C622 C 0.24161 0.55833 0.54516 0.0
C623 C 0.26016 0.56567 0.55209 0.0
C624 C 0.24617 0.58625 0.52819 0.0
H625 H 0.28577 0.58857 0.55158 0.0
C626 C 0.31558 0.62596 0.54049 0.0
O627 O 0.31122 0.67708 0.56607 0.0
O628 O 0.29602 0.64908 0.57634 0.0
N629 N 0.25223 0.61419 0.51282 0.0
C630 C 0.24729 0.6262 0.50145 0.0
C631 C 0.22894 0.62141 0.49396 0.0
C632 C 0.21598 0.60412 0.49789 0.0
C633 C 0.22148 0.59182 0.50937 0.0
C634 C 0.23986 0.59753 0.51669 0.0
H635 H 0.25725 0.63928 0.49805 0.0
O636 O 0.27078 0.65967 0.55354 0.0
O637 O 0.27515 0.6321 0.54306 0.0
O638 O 0.29688 0.66468 0.52723 0.0
O639 O 0.28823 0.63722 0.50916 0.0
C640 C 0.2095 0.574 0.51364 0.0
C641 C 0.21606 0.56233 0.52522 0.0
H642 H 0.233 0.54476 0.54937 0.0
H643 H 0.2658 0.55778 0.5616 0.0
H644 H 0.22485 0.63092 0.48501 0.0
H645 H 0.20189 0.60038 0.49196 0.0
H646 H 0.19525 0.56909 0.50806 0.0
H647 H 0.20679 0.54857 0.52829 0.0
Mn648 Mn 0.42717 0.5268 0.7346 0.0
Mn649 Mn 0.39572 0.514 0.76455 0.0
C650 C 0.41276 0.49454 0.73731 0.0
C651 C 0.43537 0.53615 0.70738 0.0
C652 C 0.4369 0.52741 0.77378 0.0
O653 O 0.42086 0.55195 0.74054 0.0
O654 O 0.39913 0.54147 0.75966 0.0
C655 C 0.36245 0.51631 0.74324 0.0
N656 N 0.37135 0.50587 0.75302 0.0
C657 C 0.34399 0.47846 0.75138 0.0
C658 C 0.33446 0.48892 0.74132 0.0
C659 C 0.34378 0.50787 0.73712 0.0
C660 C 0.36267 0.48747 0.75678 0.0
H661 H 0.36951 0.531 0.74025 0.0
C662 C 0.4091 0.55468 0.75095 0.0
O663 O 0.44735 0.54064 0.72096 0.0
O664 O 0.41837 0.52648 0.7096 0.0
N665 N 0.39105 0.48763 0.77062 0.0
C666 C 0.40241 0.47939 0.78004 0.0
C667 C 0.39539 0.46024 0.78494 0.0
C668 C 0.37667 0.44999 0.7805 0.0
C669 C 0.36519 0.45894 0.77108 0.0
C670 C 0.37306 0.47787 0.76622 0.0
H671 H 0.41671 0.48737 0.7838 0.0
O672 O 0.42853 0.49958 0.73028 0.0
O673 O 0.40582 0.5085 0.74238 0.0
O674 O 0.44174 0.52945 0.75821 0.0
O675 O 0.42013 0.52186 0.77773 0.0
C676 C 0.3462 0.44991 0.76648 0.0
C677 C 0.33565 0.45954 0.75642 0.0
H678 H 0.31999 0.48255 0.73677 0.0
H679 H 0.33652 0.51604 0.72936 0.0
H680 H 0.40433 0.45347 0.79228 0.0
H681 H 0.37125 0.43529 0.78444 0.0
H682 H 0.33965 0.43541 0.77036 0.0
H683 H 0.32114 0.45227 0.75265 0.0
Mn684 Mn 0.65169 0.0215 0.75076 0.0
Mn685 Mn 0.68461 0.03172 0.78439 0.0
C686 C 0.66895 0.0529 0.75853 0.0
C687 C 0.6401 0.01447 0.72209 0.0
C688 C 0.64439 0.02277 0.78946 0.0
O689 O 0.65615 0.99529 0.75279 0.0
O690 O 0.67608 1.00343 0.77709 0.0
C691 C 0.7139 0.02136 0.76509 0.0
N692 N 0.70813 0.03457 0.77513 0.0
C693 C 0.73849 0.05764 0.7771 0.0
C694 C 0.74479 0.04427 0.7668 0.0
C695 C 0.73241 0.0261 0.76069 0.0
C696 C 0.71984 0.0522 0.78085 0.0
H697 H 0.7045 0.00729 0.76055 0.0
C698 C 0.66588 0.99099 0.76525 0.0
O699 O 0.62956 0.0101 0.73493 0.0
O700 O 0.65785 0.02204 0.72589 0.0
N701 N 0.69422 0.05862 0.79277 0.0
C702 C 0.68568 0.0702 0.80179 0.0
C703 C 0.69601 0.08908 0.80845 0.0
C704 C 0.71508 0.09566 0.80612 0.0
C705 C 0.72358 0.0834 0.79692 0.0
C706 C 0.71252 0.06487 0.79035 0.0
H707 H 0.67109 0.06506 0.80384 0.0
O708 O 0.65236 0.04945 0.75091 0.0
O709 O 0.67477 0.03794 0.76186 0.0
O710 O 0.63906 0.01854 0.77335 0.0
O711 O 0.66129 0.0294 0.79533 0.0
C712 C 0.7426 0.08884 0.79396 0.0
C713 C 0.74999 0.07609 0.78384 0.0
H714 H 0.75909 0.04782 0.7635 0.0
H715 H 0.73717 0.0157 0.75275 0.0
H716 H 0.68934 0.09846 0.81552 0.0
H717 H 0.72303 0.11019 0.81138 0.0
H718 H 0.75162 0.10291 0.79921 0.0
H719 H 0.76454 0.08062 0.78135 0.0
Mn720 Mn 0.79257 0.69827 0.02575 0.0
Mn721 Mn 0.78411 0.66145 0.99348 0.0
C722 C 0.76235 0.67963 0.01695 0.0
C723 C 0.79708 0.70926 0.0563 0.0
C724 C 0.7952 0.70411 0.98583 0.0
O725 O 0.81761 0.69221 0.0254 0.0
O726 O 0.80999 0.66755 1.00386 0.0
C727 C 0.78757 0.62908 0.01463 0.0
N728 N 0.77732 0.63671 1.00329 0.0
C729 C 0.75193 0.60723 1.00122 0.0
C730 C 0.76223 0.59903 0.01282 0.0
C731 C 0.78012 0.61002 0.01956 0.0
C732 C 0.76015 0.6262 0.99661 0.0
H733 H 0.80132 0.63746 0.01984 0.0
C734 C 0.82147 0.67892 0.0156 0.0
O735 O 0.80226 0.7212 0.04415 0.0
O736 O 0.79019 0.69106 0.05076 0.0
N737 N 0.75929 0.65411 0.98281 0.0
C738 C 0.75067 0.66474 0.97291 0.0
C739 C 0.73232 0.65623 0.96587 0.0
C740 C 0.72307 0.63689 0.96903 0.0
C741 C 0.73225 0.62625 0.97924 0.0
C742 C 0.75056 0.63546 0.98583 0.0
H743 H 0.75771 0.67962 0.97049 0.0
O744 O 0.76559 0.69728 0.02413 0.0
O745 O 0.7769 0.67378 0.01444 0.0
O746 O 0.79654 0.71141 1.0018 0.0
O747 O 0.79069 0.68582 0.98158 0.0
C748 C 0.7238 0.60701 0.98344 0.0
C749 C 0.73365 0.59748 0.99439 0.0
H750 H 0.75648 0.58438 0.01678 0.0
H751 H 0.78813 0.60381 0.02857 0.0
H752 H 0.72531 0.66456 0.95805 0.0
H753 H 0.70886 0.63043 0.96369 0.0
H754 H 0.70965 0.59951 0.97852 0.0
H755 H 0.72693 0.58279 0.99773 0.0
Mn756 Mn 0.94023 0.54817 0.80519 0.0
Mn757 Mn 0.90576 0.53735 0.83225 0.0
C758 C 0.92592 0.51623 0.80919 0.0
C759 C 0.9508 0.55611 0.77829 0.0
C760 C 0.94632 0.55277 0.8446 0.0
O761 O 0.9332 0.57315 0.80857 0.0
O762 O 0.90751 0.56313 0.82325 0.0
C763 C 0.87342 0.53322 0.80685 0.0
N764 N 0.88243 0.52559 0.81928 0.0
C765 C 0.8576 0.49563 0.81722 0.0
C766 C 0.84799 0.50319 0.80445 0.0
C767 C 0.85597 0.52204 0.7992 0.0
C768 C 0.87495 0.50742 0.82433 0.0
H769 H 0.87953 0.5477 0.80278 0.0
C770 C 0.91887 0.57585 0.81509 0.0
O771 O 0.96167 0.56133 0.79261 0.0
O772 O 0.93355 0.54654 0.77965 0.0
N773 N 0.90261 0.51253 0.84163 0.0
C774 C 0.91416 0.507 0.85334 0.0
C775 C 0.90829 0.48856 0.85996 0.0
C776 C 0.8906 0.47606 0.85454 0.0
C777 C 0.87907 0.48193 0.84224 0.0
C778 C 0.88557 0.50058 0.83629 0.0
H779 H 0.92769 0.51662 0.85776 0.0
O780 O 0.94225 0.52106 0.80318 0.0
O781 O 0.91832 0.5302 0.81224 0.0
O782 O 0.95251 0.55223 0.8296 0.0
O783 O 0.92909 0.54885 0.84709 0.0
C784 C 0.86143 0.46997 0.83559 0.0
C785 C 0.85077 0.47675 0.82297 0.0
H786 H 0.83455 0.49461 0.7985 0.0
H787 H 0.84867 0.52794 0.78929 0.0
H788 H 0.91732 0.48405 0.86934 0.0
H789 H 0.88607 0.46191 0.85983 0.0
H790 H 0.85604 0.45543 0.83991 0.0
H791 H 0.83737 0.46731 0.81773 0.0
Mn792 Mn 0.80257 0.41266 0.50716 0.0
Mn793 Mn 0.80954 0.4471 0.47804 0.0
C794 C 0.8321 0.43018 0.5023 0.0
C795 C 0.79873 0.4031 0.53529 0.0
C796 C 0.79679 0.40367 0.46778 0.0
O797 O 0.77775 0.41845 0.50449 0.0
O798 O 0.78512 0.4439 0.4874 0.0
C799 C 0.81138 0.48258 0.50094 0.0
N800 N 0.81929 0.47284 0.48929 0.0
C801 C 0.84612 0.50069 0.48914 0.0
C802 C 0.83828 0.51102 0.50116 0.0
C803 C 0.82086 0.50191 0.50712 0.0
C804 C 0.83604 0.48147 0.48347 0.0
H805 H 0.79799 0.47562 0.50552 0.0
C806 C 0.77399 0.43244 0.49679 0.0
O807 O 0.79296 0.39065 0.52167 0.0
O808 O 0.80559 0.42137 0.53249 0.0
N809 N 0.83312 0.45136 0.46849 0.0
C810 C 0.83939 0.43883 0.45807 0.0
C811 C 0.85675 0.44551 0.45122 0.0
C812 C 0.86743 0.46498 0.45513 0.0
C813 C 0.86085 0.47751 0.46617 0.0
C814 C 0.84336 0.47008 0.47245 0.0
H815 H 0.83118 0.42389 0.45489 0.0
O816 O 0.82925 0.41308 0.50838 0.0
O817 O 0.81758 0.436 0.49876 0.0
O818 O 0.79798 0.39795 0.4831 0.0
O819 O 0.79992 0.42157 0.46471 0.0
C820 C 0.87104 0.49698 0.47136 0.0
C821 C 0.86374 0.50852 0.48293 0.0
H822 H 0.84559 0.52589 0.50603 0.0
H823 H 0.81476 0.50978 0.51645 0.0
H824 H 0.86184 0.4357 0.44288 0.0
H825 H 0.88079 0.47009 0.44975 0.0
H826 H 0.88465 0.50312 0.46676 0.0
H827 H 0.87188 0.52333 0.48712 0.0
Mn828 Mn 0.6669 0.53541 0.313 0.0
Mn829 Mn 0.70175 0.54716 0.34497 0.0
C830 C 0.67919 0.56721 0.32385 0.0
C831 C 0.65624 0.52976 0.2839 0.0
C832 C 0.66182 0.52795 0.35111 0.0
O833 O 0.67639 0.51177 0.31227 0.0
O834 O 0.70089 0.5218 0.33246 0.0
C835 C 0.73389 0.55323 0.32333 0.0
N836 N 0.72452 0.56021 0.33565 0.0
C837 C 0.74787 0.5913 0.3391 0.0
C838 C 0.75783 0.58442 0.32651 0.0
C839 C 0.75079 0.56531 0.31858 0.0
C840 C 0.73117 0.57856 0.3434 0.0
H841 H 0.72849 0.53857 0.31717 0.0
C842 C 0.69058 0.50934 0.32068 0.0
O843 O 0.64581 0.522 0.29604 0.0
O844 O 0.6731 0.54026 0.28863 0.0
N845 N 0.70394 0.57162 0.35777 0.0
C846 C 0.69196 0.57646 0.36868 0.0
C847 C 0.69657 0.59535 0.37716 0.0
C848 C 0.71346 0.609 0.3744 0.0
C849 C 0.72558 0.60364 0.36317 0.0
C850 C 0.72028 0.5846 0.35512 0.0
H851 H 0.67894 0.56605 0.37082 0.0
O852 O 0.66259 0.56157 0.31599 0.0
O853 O 0.68802 0.55406 0.32502 0.0
O854 O 0.65513 0.52795 0.3355 0.0
O855 O 0.67905 0.53426 0.35603 0.0
C856 C 0.74258 0.61654 0.35941 0.0
C857 C 0.75368 0.61042 0.34732 0.0
H858 H 0.77081 0.59373 0.32272 0.0
H859 H 0.75837 0.55992 0.30879 0.0
H860 H 0.6871 0.59939 0.38576 0.0
H861 H 0.7169 0.62359 0.38087 0.0
H862 H 0.74712 0.63131 0.36557 0.0
H863 H 0.76655 0.6206 0.34428 0.0
Tb864 Tb 0.06711 0.04428 0.03559 0.0
Tb865 Tb 0.02166 0.01558 0.02197 0.0
C866 C 0.03897 0.04439 0.05877 0.0
C867 C 0.11628 0.05156 0.03625 0.0
C868 C 0.14279 0.03113 0.0334 0.0
C869 C 0.14725 0.04918 0.04344 0.0
C870 C 0.13397 0.05937 0.04488 0.0
C871 C 0.112 0.03368 0.02613 0.0
C872 C 0.1251 0.02354 0.02469 0.0
C873 C 0.10145 0.06051 0.03922 0.0
O874 O 0.06237 0.0157 0.04654 0.0
O875 O 0.03589 0.99496 0.03086 0.0
O876 O 0.03585 0.0156 0.9989 0.0
O877 O 0.06516 0.02273 0.01343 0.0
O878 O 0.99776 1.00425 0.03507 0.0
O879 O 0.99733 1.00032 0.00665 0.0
O880 O 0.02226 0.04455 0.01438 0.0
O881 O 0.05308 0.06286 0.02199 0.0
O882 O 0.05617 0.05413 0.05897 0.0
O883 O 0.03238 0.03341 0.04472 0.0
C884 C 0.05072 0.99816 0.04199 0.0
O885 O 0.091 0.06124 0.02518 0.0
O886 O 0.09163 0.0538 0.05217 0.0
C887 C 0.05358 0.01724 0.9992 0.0
C888 C 0.9727 0.00893 0.0184 0.0
C889 C 0.94588 0.02843 0.01213 0.0
C890 C 0.94169 0.00825 0.00762 0.0
C891 C 0.95514 0.99853 0.01069 0.0
C892 C 0.97679 0.02902 0.0231 0.0
C893 C 0.96348 0.03871 0.01999 0.0
C894 C 0.98746 0.99951 0.02024 0.0
C895 C 0.03609 0.06078 0.01496 0.0
H896 H 0.16088 0.0553 0.05023 0.0
H897 H 0.13734 0.07303 0.05299 0.0
H898 H 0.09833 0.02723 0.01974 0.0
H899 H 0.12115 0.00946 0.01719 0.0
H900 H 0.92813 1.0001 1.0016 0.0
H901 H 0.95194 0.98305 0.00686 0.0
H902 H 0.99032 0.03728 0.0291 0.0
H903 H 0.96688 0.05418 0.02399 0.0
Tb904 Tb 0.28435 0.77987 0.29119 0.0
Tb905 Tb 0.31183 0.78182 0.25914 0.0
C906 C 0.27154 0.78596 0.2529 0.0
C907 C 0.25976 0.76425 0.32949 0.0
C908 C 0.25566 0.74029 0.35753 0.0
C909 C 0.24372 0.75207 0.35481 0.0
C910 C 0.24582 0.76406 0.34085 0.0
C911 C 0.27116 0.75194 0.33171 0.0
C912 C 0.26924 0.74016 0.34569 0.0
C913 C 0.26293 0.77754 0.31553 0.0
O914 O 0.27791 0.75074 0.27858 0.0
O915 O 0.30444 0.7516 0.26463 0.0
O916 O 0.32873 0.7824 0.28345 0.0
O917 O 0.30634 0.76865 0.30185 0.0
O918 O 0.31789 0.77189 0.23448 0.0
O919 O 0.33739 0.7961 0.24993 0.0
O920 O 0.30884 0.81064 0.26513 0.0
O921 O 0.30554 0.80744 0.29427 0.0
O922 O 0.2722 0.79176 0.2696 0.0
O923 O 0.28409 0.77824 0.24676 0.0
C924 C 0.28892 0.74211 0.27082 0.0
O925 O 0.27956 0.78965 0.31637 0.0
O926 O 0.25764 0.76924 0.29974 0.0
C927 C 0.32374 0.77405 0.29799 0.0
C928 C 0.33447 0.79804 0.21976 0.0
C929 C 0.33688 0.8214 0.19141 0.0
C930 C 0.35037 0.81161 0.1948 0.0
C931 C 0.34917 0.79998 0.20898 0.0
C932 C 0.32106 0.80787 0.21649 0.0
C933 C 0.32222 0.81943 0.20238 0.0
C934 C 0.33318 0.78614 0.23468 0.0
C935 C 0.31087 0.81824 0.28132 0.0
H936 H 0.23302 0.75227 0.36364 0.0
H937 H 0.23683 0.7734 0.33912 0.0
H938 H 0.2819 0.75182 0.32291 0.0
H939 H 0.27891 0.73158 0.34758 0.0
H940 H 0.36183 0.81299 0.18655 0.0
H941 H 0.35967 0.79253 0.21151 0.0
H942 H 0.30963 0.80648 0.22481 0.0
H943 H 0.31141 0.82648 0.19984 0.0
Tb944 Tb 0.52508 0.03218 0.52699 0.0
Tb945 Tb 0.56974 0.03464 0.52461 0.0
C946 C 0.54892 0.01997 0.55604 0.0
C947 C 0.48152 0.04797 0.53023 0.0
C948 C 0.45925 0.07402 0.53184 0.0
C949 C 0.46395 0.06566 0.54703 0.0
C950 C 0.47487 0.05274 0.5462 0.0
C951 C 0.47713 0.05659 0.51509 0.0
C952 C 0.46612 0.06944 0.51589 0.0
C953 C 0.49187 0.03309 0.52933 0.0
O954 O 0.54036 0.06286 0.5292 0.0
O955 O 0.56855 0.06059 0.54065 0.0
O956 O 0.56296 0.05156 0.50429 0.0
O957 O 0.5322 0.03414 0.49997 0.0
O958 O 0.59575 0.03835 0.53808 0.0
O959 O 0.59197 0.03324 0.5097 0.0
O960 O 0.55368 0.00712 0.5105 0.0
O961 O 0.52481 1.00185 0.52167 0.0
O962 O 0.53785 0.03086 0.55299 0.0
O963 O 0.55801 0.01481 0.54354 0.0
C964 C 0.55645 0.0706 0.53817 0.0
O965 O 0.49888 0.03017 0.51458 0.0
O966 O 0.50327 0.03302 0.5428 0.0
C967 C 0.54736 0.04559 0.49452 0.0
C968 C 0.61358 0.01973 0.52426 0.0
C969 C 0.63514 0.99308 0.52499 0.0
C970 C 0.63282 1.00234 0.50964 0.0
C971 C 0.6222 0.01554 0.5093 0.0
C972 C 0.61567 0.0103 0.53957 0.0
C973 C 0.62635 0.99713 0.53993 0.0
C974 C 0.60312 0.03443 0.52374 0.0
C975 C 0.5371 0.99568 0.51315 0.0
H976 H 0.45915 0.06904 0.55959 0.0
H977 H 0.47792 0.04624 0.55807 0.0
H978 H 0.48185 0.05312 0.50251 0.0
H979 H 0.46258 0.07534 0.50387 0.0
H980 H 0.63959 0.99976 0.49798 0.0
H981 H 0.62092 0.0227 0.49737 0.0
H982 H 0.60917 0.01315 0.55133 0.0
H983 H 0.62767 0.99005 0.5519 0.0
Tb984 Tb 0.31671 0.27866 0.77874 0.0
Tb985 Tb 0.26796 0.2775 0.77249 0.0
C986 C 0.28883 0.24541 0.78298 0.0
C987 C 0.36582 0.28604 0.76763 0.0
C988 C 0.39408 0.28177 0.74637 0.0
C989 C 0.38853 0.26919 0.75977 0.0
C990 C 0.37454 0.27132 0.77031 0.0
C991 C 0.37138 0.29858 0.7542 0.0
C992 C 0.38531 0.29643 0.74369 0.0
C993 C 0.35165 0.28903 0.77923 0.0
O994 O 0.30675 0.27036 0.75061 0.0
O995 O 0.27468 0.26756 0.74654 0.0
O996 O 0.28236 0.30427 0.76214 0.0
O997 O 0.30681 0.30445 0.78082 0.0
O998 O 0.24271 0.25562 0.77308 0.0
O999 O 0.24369 0.28587 0.76877 0.0
O1000 O 0.27674 0.28666 0.80049 0.0
O1001 O 0.3075 0.28441 0.80515 0.0
O1002 O 0.30645 0.24769 0.78422 0.0
O1003 O 0.28598 0.26111 0.7778 0.0
C1004 C 0.29077 0.2666 0.74062 0.0
O1005 O 0.34106 0.29923 0.77322 0.0
O1006 O 0.34223 0.27403 0.78705 0.0
C1007 C 0.29996 0.31144 0.76734 0.0
C1008 C 0.21988 0.26885 0.78557 0.0
C1009 C 0.19418 0.27025 0.81079 0.0
C1010 C 0.19855 0.28463 0.79871 0.0
C1011 C 0.21119 0.28389 0.78623 0.0
C1012 C 0.2155 0.25442 0.79761 0.0
C1013 C 0.20278 0.25512 0.81011 0.0
C1014 C 0.23334 0.2686 0.77224 0.0
C1015 C 0.29192 0.28738 0.8108 0.0
H1016 H 0.39498 0.25768 0.76207 0.0
H1017 H 0.37068 0.26157 0.78066 0.0
H1018 H 0.36517 0.31028 0.75193 0.0
H1019 H 0.38952 0.3066 0.73371 0.0
H1020 H 0.19193 0.29628 0.79868 0.0
H1021 H 0.21412 0.29511 0.777 0.0
H1022 H 0.22186 0.24258 0.7974 0.0
H1023 H 0.19978 0.24389 0.81932 0.0
Tb1024 Tb 0.04249 0.04082 0.54561 0.0
Tb1025 Tb 0.04769 0.01604 0.51128 0.0
C1026 C 1.00934 0.01096 0.5263 0.0
C1027 C 0.04842 0.05773 0.59139 0.0
C1028 C 0.06563 0.05454 0.62411 0.0
C1029 C 0.05124 0.06354 0.62308 0.0
C1030 C 0.04267 0.06515 0.60673 0.0
C1031 C 0.06276 0.04876 0.59243 0.0
C1032 C 0.07132 0.0472 0.60864 0.0
C1033 C 0.03913 0.05829 0.57423 0.0
O1034 O 0.04302 0.01175 0.55507 0.0
O1035 O 0.05579 0.99898 0.53239 0.0
O1036 O 0.07436 0.03741 0.51664 0.0
O1037 O 0.07244 0.04596 0.54562 0.0
O1038 O 0.03365 0.99387 0.49226 0.0
O1039 O 0.06282 0.00802 0.49116 0.0
O1040 O 0.04057 0.04185 0.50032 0.0
O1041 O 0.04329 0.06212 0.52536 0.0
O1042 O 0.01498 0.02935 0.5321 0.0
O1043 O 0.02145 1.00216 0.52146 0.0
C1044 C 0.04999 0.9979 0.54851 0.0
O1045 O 0.05013 0.06641 0.56255 0.0
O1046 O 0.0277 0.04167 0.56795 0.0
C1047 C 0.08199 0.04642 0.53175 0.0
C1048 C 0.04384 1.00187 0.4646 0.0
C1049 C 0.03701 0.01304 0.43082 0.0
C1050 C 0.05326 0.00771 0.43511 0.0
C1051 C 0.05667 1.00219 0.45195 0.0
C1052 C 0.02757 0.00714 0.4602 0.0
C1053 C 0.02416 0.01255 0.44348 0.0
C1054 C 0.04769 0.99701 0.48258 0.0
C1055 C 0.0416 0.0594 0.50797 0.0
H1056 H 0.04666 0.06933 0.63487 0.0
H1057 H 0.0315 0.07198 0.60607 0.0
H1058 H 0.06717 0.04269 0.58068 0.0
H1059 H 0.08211 0.03983 0.60909 0.0
H1060 H 0.06337 0.00802 0.42552 0.0
H1061 H 0.06936 0.99835 0.45515 0.0
H1062 H 0.01741 0.0072 0.46968 0.0
H1063 H 1.01132 0.01615 0.4404 0.0
Tb1064 Tb 0.30431 0.80189 0.77 0.0
Tb1065 Tb 0.28567 0.75896 0.78164 0.0
C1066 C 0.30325 0.76499 0.74628 0.0
C1067 C 0.30582 0.85089 0.76387 0.0
C1068 C 0.28264 0.87534 0.76573 0.0
C1069 C 0.29768 0.87961 0.75508 0.0
C1070 C 0.30917 0.86728 0.75405 0.0
C1071 C 0.29105 0.84696 0.77476 0.0
C1072 C 0.27958 0.85907 0.77571 0.0
C1073 C 0.31597 0.83638 0.76163 0.0
O1074 O 0.27383 0.79866 0.76602 0.0
O1075 O 0.26271 0.76536 0.76509 0.0
O1076 O 0.2759 0.77684 0.80005 0.0
O1077 O 0.29818 0.80551 0.79704 0.0
O1078 O 0.26986 0.73027 0.77382 0.0
O1079 O 0.28095 0.73858 0.80077 0.0
O1080 O 0.31453 0.76757 0.79513 0.0
O1081 O 0.32917 0.79233 0.77872 0.0
O1082 O 0.30148 0.78261 0.74656 0.0
O1083 O 0.3025 0.75576 0.76051 0.0
C1084 C 0.25995 0.78251 0.76208 0.0
O1085 O 0.32155 0.83048 0.77622 0.0
O1086 O 0.30761 0.82174 0.75041 0.0
C1087 C 0.28489 0.79478 0.8055 0.0
C1088 C 0.28409 0.70969 0.78751 0.0
C1089 C 0.30348 0.68242 0.78071 0.0
C1090 C 0.28569 0.67633 0.78682 0.0
C1091 C 0.27588 0.68999 0.79005 0.0
C1092 C 0.30221 0.71573 0.7822 0.0
C1093 C 0.31179 0.70217 0.77867 0.0
C1094 C 0.27381 0.72413 0.7889 0.0
C1095 C 0.3302 0.77973 0.79062 0.0
H1096 H 0.30025 0.89219 0.74734 0.0
H1097 H 0.32037 0.87029 0.74539 0.0
H1098 H 0.28812 0.83426 0.78231 0.0
H1099 H 0.26833 0.85571 0.7843 0.0
H1100 H 0.27925 0.66104 0.7885 0.0
H1101 H 0.26188 0.68519 0.79414 0.0
H1102 H 0.30884 0.7309 0.78038 0.0
H1103 H 0.32562 0.70707 0.77416 0.0
Tb1104 Tb 0.53501 0.02002 0.04093 0.0
Tb1105 Tb 0.55012 0.04757 0.01112 0.0
C1106 C 0.57669 0.03755 0.03837 0.0
C1107 C 0.52234 1.00612 0.08416 0.0
C1108 C 0.52569 0.02008 0.1196 0.0
C1109 C 0.53218 1.00409 0.1146 0.0
C1110 C 0.53053 0.99717 0.09695 0.0
C1111 C 0.51584 0.02208 0.08921 0.0
C1112 C 0.51741 0.0289 0.10675 0.0
C1113 C 0.52226 1.00007 0.06552 0.0
O1114 O 0.53196 0.0492 0.05086 0.0
O1115 O 0.55255 0.06889 0.03414 0.0
O1116 O 0.52159 0.0461 0.01478 0.0
O1117 O 0.51529 0.01444 0.01839 0.0
O1118 O 0.57014 0.07031 1.00115 0.0
O1119 O 0.54316 0.0571 0.98711 0.0
O1120 O 0.54689 0.01747 0.99803 0.0
O1121 O 0.54228 0.99909 0.022 0.0
O1122 O 0.56348 0.03531 0.04904 0.0
O1123 O 0.57322 0.03834 0.02154 0.0
C1124 C 0.54192 0.06702 0.04753 0.0
O1125 O 0.51208 0.00703 0.05466 0.0
O1126 O 0.53863 1.00124 0.06003 0.0
C1127 C 0.50959 0.02903 0.01371 0.0
C1128 C 0.56818 0.06552 0.97033 0.0
C1129 C 0.57503 0.04913 0.9384 0.0
C1130 C 0.56391 0.06193 0.93865 0.0
C1131 C 0.56056 0.07017 0.95459 0.0
C1132 C 0.58045 0.05391 0.97 0.0
C1133 C 0.584 0.04587 0.95403 0.0
C1134 C 0.55985 0.06881 0.98646 0.0
C1135 C 0.54513 1.00043 0.0051 0.0
H1136 H 0.53858 0.99704 0.1243 0.0
H1137 H 0.53587 0.98503 0.09324 0.0
H1138 H 0.50965 0.02946 0.07962 0.0
H1139 H 0.51182 0.04091 0.11028 0.0
H1140 H 0.55708 0.06473 0.92661 0.0
H1141 H 0.55087 0.07891 0.95472 0.0
H1142 H 0.58619 0.04987 0.98207 0.0
H1143 H 0.5926 0.03598 0.95401 0.0
Tb1144 Tb 0.28505 0.26038 0.26879 0.0
Tb1145 Tb 0.30291 0.30426 0.28273 0.0
C1146 C 0.28469 0.29318 0.24346 0.0
C1147 C 0.28477 0.2116 0.25696 0.0
C1148 C 0.30806 0.1874 0.25584 0.0
C1149 C 0.28962 0.18042 0.24851 0.0
C1150 C 0.27799 0.19261 0.24898 0.0
C1151 C 0.30313 0.21845 0.26432 0.0
C1152 C 0.31468 0.20646 0.26377 0.0
C1153 C 0.27344 0.22502 0.25752 0.0
O1154 O 0.31343 0.26767 0.25861 0.0
O1155 O 0.3282 0.29538 0.27595 0.0
O1156 O 0.30229 0.28883 0.30644 0.0
O1157 O 0.29965 0.2583 0.29418 0.0
O1158 O 0.31731 0.33292 0.27777 0.0
O1159 O 0.3092 0.32613 0.30362 0.0
O1160 O 0.2723 0.29982 0.28594 0.0
O1161 O 0.26228 0.26647 0.28355 0.0
O1162 O 0.27513 0.27623 0.2484 0.0
O1163 O 0.29729 0.30525 0.25447 0.0
C1164 C 0.32899 0.28151 0.26389 0.0
O1165 O 0.27124 0.23141 0.2733 0.0
O1166 O 0.2785 0.23925 0.24738 0.0
C1167 C 0.30205 0.27067 0.30815 0.0
C1168 C 0.30254 0.35289 0.29245 0.0
C1169 C 0.27567 0.37282 0.29436 0.0
C1170 C 0.2919 0.37895 0.30573 0.0
C1171 C 0.30529 0.36882 0.30489 0.0
C1172 C 0.28661 0.34737 0.2807 0.0
C1173 C 0.2733 0.35726 0.28164 0.0
C1174 C 0.31432 0.33988 0.29305 0.0
C1175 C 0.25929 0.28336 0.28837 0.0
H1176 H 0.2843 0.16565 0.24247 0.0
H1177 H 0.26383 0.18726 0.24321 0.0
H1178 H 0.30852 0.23307 0.27064 0.0
H1179 H 0.32867 0.21199 0.26996 0.0
H1180 H 0.2939 0.39109 0.31552 0.0
H1181 H 0.31739 0.37297 0.31422 0.0
H1182 H 0.28411 0.33495 0.27113 0.0
H1183 H 0.26103 0.3526 0.27251 0.0
Tb1184 Tb 0.5423 0.54168 0.04437 0.0
Tb1185 Tb 0.54613 0.51702 0.00939 0.0
C1186 C 0.5089 0.51068 0.0264 0.0
C1187 C 0.54841 0.55856 0.0903 0.0
C1188 C 0.56342 0.55291 0.12326 0.0
C1189 C 0.549 0.56184 0.12203 0.0
C1190 C 0.54147 0.5646 0.10556 0.0
C1191 C 0.56307 0.55005 0.09153 0.0
C1192 C 0.57058 0.54734 0.10787 0.0
C1193 C 0.53962 0.55953 0.073 0.0
O1194 O 0.54361 0.51296 0.0541 0.0
O1195 O 0.55311 0.49863 0.03003 0.0
O1196 O 0.5726 0.53892 0.01414 0.0
O1197 O 0.57197 0.54521 0.04369 0.0
O1198 O 0.53101 0.49905 0.98798 0.0
O1199 O 0.56097 0.50581 0.99089 0.0
O1200 O 0.53898 0.54326 0.99936 0.0
O1201 O 0.54371 0.56358 0.02452 0.0
O1202 O 0.51434 0.52921 0.03188 0.0
O1203 O 0.52096 0.50231 0.0207 0.0
C1204 C 0.54893 0.49826 0.04673 0.0
O1205 O 0.551 0.56714 0.06143 0.0
O1206 O 0.52766 0.54325 0.06668 0.0
C1207 C 0.58097 0.54664 0.02941 0.0
C1208 C 0.54642 0.50435 0.96249 0.0
C1209 C 0.54255 0.51322 0.92747 0.0
C1210 C 0.5499 0.49782 0.93163 0.0
C1211 C 0.55181 0.49339 0.94909 0.0
C1212 C 0.53988 0.52024 0.9584 0.0
C1213 C 0.53792 0.52463 0.94107 0.0
C1214 C 0.54595 0.49834 0.98046 0.0
C1215 C 0.54107 0.56097 0.00716 0.0
H1216 H 0.54321 0.56615 0.13374 0.0
H1217 H 0.53002 0.57101 0.10473 0.0
H1218 H 0.56848 0.54516 0.07982 0.0
H1219 H 0.58193 0.54076 0.10847 0.0
H1220 H 0.55365 0.48887 0.92136 0.0
H1221 H 0.55686 0.48106 0.95206 0.0
H1222 H 0.53536 0.52868 0.96848 0.0
H1223 H 0.53182 0.5363 0.93831 0.0
Tb1224 Tb 0.80672 0.3007 0.27077 0.0
Tb1225 Tb 0.78755 0.25747 0.28081 0.0
C1226 C 0.80455 0.26575 0.24479 0.0
C1227 C 0.81191 0.35187 0.26761 0.0
C1228 C 0.79131 0.37856 0.2731 0.0
C1229 C 0.79793 0.37599 0.25658 0.0
C1230 C 0.80818 0.36268 0.25385 0.0
C1231 C 0.80579 0.35497 0.28428 0.0
C1232 C 0.79557 0.36815 0.28698 0.0
C1233 C 0.81979 0.33558 0.26407 0.0
O1234 O 0.77761 0.29346 0.25822 0.0
O1235 O 0.76289 0.26788 0.27377 0.0
O1236 O 0.78943 0.27538 0.30474 0.0
O1237 O 0.79109 0.30432 0.29296 0.0
O1238 O 0.77026 0.22918 0.27334 0.0
O1239 O 0.78395 0.23644 0.29936 0.0
O1240 O 0.8181 0.26054 0.28494 0.0
O1241 O 0.82911 0.29383 0.2874 0.0
O1242 O 0.8156 0.28232 0.25176 0.0
O1243 O 0.79063 0.25589 0.25295 0.0
C1244 C 0.76195 0.28114 0.26253 0.0
O1245 O 0.8253 0.32827 0.27791 0.0
O1246 O 0.81011 0.32196 0.25239 0.0
C1247 C 0.78861 0.29335 0.30621 0.0
C1248 C 0.78594 0.20806 0.28459 0.0
C1249 C 0.81127 0.18606 0.28267 0.0
C1250 C 0.79842 0.18291 0.29559 0.0
C1251 C 0.78583 0.19399 0.2966 0.0
C1252 C 0.79841 0.21071 0.27136 0.0
C1253 C 0.81088 0.19973 0.27035 0.0
C1254 C 0.77576 0.22244 0.28749 0.0
C1255 C 0.83183 0.27661 0.28983 0.0
H1256 H 0.79491 0.38398 0.24571 0.0
H1257 H 0.81261 0.36031 0.24087 0.0
H1258 H 0.80823 0.34667 0.29512 0.0
H1259 H 0.79033 0.36954 0.29976 0.0
H1260 H 0.79855 0.17242 0.30524 0.0
H1261 H 0.77659 0.19215 0.30712 0.0
H1262 H 0.79903 0.22181 0.26216 0.0
H1263 H 0.82041 0.20213 0.26006 0.0
Tb1264 Tb 0.04484 0.51444 0.54717 0.0
Tb1265 Tb 0.04856 0.53967 0.51304 0.0
C1266 C 0.0828 0.53121 0.53205 0.0
C1267 C 0.03233 0.49706 0.58971 0.0
C1268 C 0.01909 0.5059 0.62163 0.0
C1269 C 0.03276 0.49597 0.62127 0.0
C1270 C 0.03934 0.49154 0.60533 0.0
C1271 C 0.01839 0.50662 0.59001 0.0
C1272 C 0.01173 0.51091 0.60587 0.0
C1273 C 0.04088 0.49476 0.57344 0.0
O1274 O 0.04967 0.54532 0.55883 0.0
O1275 O 0.04634 0.5614 0.53409 0.0
O1276 O 0.01979 0.52525 0.51546 0.0
O1277 O 0.02032 0.52391 0.54501 0.0
O1278 O 0.06371 0.561 0.49765 0.0
O1279 O 0.03469 0.54664 0.4909 0.0
O1280 O 0.05185 0.51124 0.50233 0.0
O1281 O 0.03894 0.49229 0.52412 0.0
O1282 O 0.07231 0.51688 0.53974 0.0
O1283 O 0.07638 0.54393 0.52412 0.0
C1284 C 0.04815 0.56133 0.55142 0.0
O1285 O 0.02951 0.49023 0.55924 0.0
O1286 O 0.05587 0.50878 0.5714 0.0
C1287 C 0.01197 0.52574 0.53016 0.0
C1288 C 0.05359 0.55299 0.46791 0.0
C1289 C 0.05676 0.53911 0.43362 0.0
C1290 C 0.04555 0.55154 0.43668 0.0
C1291 C 0.04398 0.55844 0.45378 0.0
C1292 C 0.06503 0.54084 0.4649 0.0
C1293 C 0.06672 0.53408 0.44785 0.0
C1294 C 0.04988 0.55798 0.48578 0.0
C1295 C 0.04541 0.49373 0.5083 0.0
H1296 H 0.03855 0.49196 0.63332 0.0
H1297 H 0.05026 0.48437 0.60524 0.0
H1298 H 0.01308 0.51132 0.57808 0.0
H1299 H 1.0014 0.51887 0.60589 0.0
H1300 H 0.03769 0.55555 0.42593 0.0
H1301 H 0.03485 0.56754 0.45603 0.0
H1302 H 0.07236 0.53626 0.47572 0.0
H1303 H 0.07581 0.52489 0.44582 0.0
Tb1304 Tb 0.81681 0.78147 0.28003 0.0
Tb1305 Tb 0.76774 0.77977 0.27355 0.0
C1306 C 0.7892 0.74807 0.28473 0.0
C1307 C 0.86614 0.79108 0.26914 0.0
C1308 C 0.8946 0.78931 0.24718 0.0
C1309 C 0.88737 0.77402 0.25784 0.0
C1310 C 0.87331 0.77491 0.26873 0.0
C1311 C 0.87331 0.80632 0.25841 0.0
C1312 C 0.88732 0.8054 0.2475 0.0
C1313 C 0.8518 0.79256 0.28115 0.0
O1314 O 0.80704 0.77228 0.25204 0.0
O1315 O 0.77498 0.76969 0.24782 0.0
O1316 O 0.78114 0.80627 0.2622 0.0
O1317 O 0.8058 0.80648 0.28043 0.0
O1318 O 0.74301 0.75736 0.27472 0.0
O1319 O 0.74293 0.78701 0.26916 0.0
O1320 O 0.77695 0.79061 0.3012 0.0
O1321 O 0.80707 0.78673 0.30627 0.0
O1322 O 0.80687 0.75073 0.28605 0.0
O1323 O 0.78592 0.76351 0.27928 0.0
C1324 C 0.79107 0.76847 0.24203 0.0
O1325 O 0.84119 0.80328 0.27643 0.0
O1326 O 0.84236 0.77655 0.28753 0.0
C1327 C 0.79895 0.81259 0.26644 0.0
C1328 C 0.71915 0.76985 0.28548 0.0
C1329 C 0.69291 0.77296 0.30949 0.0
C1330 C 0.69047 0.77706 0.29189 0.0
C1331 C 0.70345 0.77548 0.28002 0.0
C1332 C 0.72178 0.76585 0.30308 0.0
C1333 C 0.7087 0.76732 0.31498 0.0
C1334 C 0.73305 0.76965 0.2728 0.0
C1335 C 0.79184 0.79075 0.31174 0.0
H1336 H 0.89287 0.76154 0.25808 0.0
H1337 H 0.86822 0.76303 0.27698 0.0
H1338 H 0.86818 0.81906 0.25851 0.0
H1339 H 0.89242 0.8173 0.23928 0.0
H1340 H 0.67864 0.7818 0.28732 0.0
H1341 H 0.70138 0.77896 0.26658 0.0
H1342 H 0.73396 0.76181 0.30769 0.0
H1343 H 0.71089 0.76393 0.32843 0.0
Tb1344 Tb 0.78708 0.28465 0.79136 0.0
Tb1345 Tb 0.81172 0.28138 0.75799 0.0
C1346 C 0.77234 0.28834 0.75324 0.0
C1347 C 0.76445 0.27273 0.83131 0.0
C1348 C 0.7602 0.249 0.85956 0.0
C1349 C 0.75202 0.26446 0.85922 0.0
C1350 C 0.75421 0.27632 0.84516 0.0
C1351 C 0.77199 0.25687 0.83125 0.0
C1352 C 0.76996 0.24515 0.8453 0.0
C1353 C 0.76824 0.28591 0.81728 0.0
O1354 O 0.77716 0.25507 0.77961 0.0
O1355 O 0.80267 0.25203 0.76576 0.0
O1356 O 0.82967 0.28382 0.78199 0.0
O1357 O 0.80779 0.27113 0.80106 0.0
O1358 O 0.81473 0.26932 0.73302 0.0
O1359 O 0.83733 0.2915 0.7473 0.0
O1360 O 0.8109 0.31125 0.76169 0.0
O1361 O 0.80927 0.31138 0.79134 0.0
O1362 O 0.7745 0.29586 0.76959 0.0
O1363 O 0.7836 0.27882 0.74715 0.0
C1364 C 0.78678 0.24445 0.77228 0.0
O1365 O 0.78562 0.29582 0.81704 0.0
O1366 O 0.76103 0.27813 0.80172 0.0
C1367 C 0.82502 0.27589 0.79677 0.0
C1368 C 0.83316 0.2933 0.71719 0.0
C1369 C 0.83714 0.31647 0.6886 0.0
C1370 C 0.84604 0.30163 0.68945 0.0
C1371 C 0.8441 0.29013 0.70376 0.0
C1372 C 0.82421 0.30802 0.71632 0.0
C1373 C 0.82622 0.31956 0.70215 0.0
C1374 C 0.83113 0.28155 0.73227 0.0
C1375 C 0.81405 0.32048 0.77728 0.0
H1376 H 0.74425 0.2676 0.86996 0.0
H1377 H 0.74827 0.28849 0.84528 0.0
H1378 H 0.77991 0.25391 0.82057 0.0
H1379 H 0.77671 0.23361 0.84528 0.0
H1380 H 0.85451 0.29901 0.67912 0.0
H1381 H 0.85108 0.27879 0.70434 0.0
H1382 H 0.81559 0.31052 0.72658 0.0
H1383 H 0.81891 0.33063 0.70161 0.0
Tb1384 Tb 0.78555 0.76047 0.76959 0.0
Tb1385 Tb 0.80469 0.80395 0.78556 0.0
C1386 C 0.78672 0.79534 0.74564 0.0
C1387 C 0.78119 0.70927 0.7589 0.0
C1388 C 0.80296 0.68351 0.76166 0.0
C1389 C 0.79501 0.68591 0.74518 0.0
C1390 C 0.7841 0.69871 0.74382 0.0
C1391 C 0.78855 0.70622 0.77545 0.0
C1392 C 0.79929 0.69339 0.77681 0.0
C1393 C 0.7732 0.72553 0.75703 0.0
O1394 O 0.81564 0.76554 0.76369 0.0
O1395 O 0.82924 0.79723 0.77457 0.0
O1396 O 0.81226 0.7872 0.80618 0.0
O1397 O 0.79291 0.75688 0.79714 0.0
O1398 O 0.82154 0.83249 0.78353 0.0
O1399 O 0.80767 0.82472 0.80695 0.0
O1400 O 0.77475 0.79867 0.79203 0.0
O1401 O 0.76102 0.76727 0.78062 0.0
O1402 O 0.77843 0.77723 0.74868 0.0
O1403 O 0.79753 0.80753 0.75795 0.0
C1404 C 0.83048 0.78117 0.76576 0.0
O1405 O 0.76776 0.73233 0.77127 0.0
O1406 O 0.78289 0.73952 0.74843 0.0
C1407 C 0.80384 0.76917 0.80936 0.0
C1408 C 0.80556 0.853 0.79507 0.0
C1409 C 0.78339 0.87779 0.78976 0.0
C1410 C 0.79854 0.88335 0.80248 0.0
C1411 C 0.80972 0.87092 0.80509 0.0
C1412 C 0.7902 0.84744 0.78267 0.0
C1413 C 0.77925 0.85974 0.77999 0.0
C1414 C 0.81594 0.83896 0.79783 0.0
C1415 C 0.75986 0.78315 0.78978 0.0
H1416 H 0.79771 0.67838 0.73335 0.0
H1417 H 0.77872 0.70112 0.73094 0.0
H1418 H 0.78684 0.71447 0.78728 0.0
H1419 H 0.80559 0.69207 0.78963 0.0
H1420 H 0.8017 0.89722 0.81023 0.0
H1421 H 0.82136 0.87514 0.81493 0.0
H1422 H 0.78647 0.8334 0.77518 0.0
H1423 H 0.76731 0.85497 0.77047 0.0
Tb1424 Tb 0.56658 0.54218 0.53484 0.0
Tb1425 Tb 0.52482 0.51655 0.5202 0.0
C1426 C 0.53428 0.53818 0.5579 0.0
C1427 C 0.61618 0.55187 0.54186 0.0
C1428 C 0.6438 0.5328 0.53814 0.0
C1429 C 0.64108 0.54049 0.55478 0.0
C1430 C 0.62737 0.55002 0.55661 0.0
C1431 C 0.6192 0.5445 0.52517 0.0
C1432 C 0.63293 0.53512 0.52333 0.0
C1433 C 0.59997 0.55914 0.54419 0.0
O1434 O 0.56053 0.51442 0.5469 0.0
O1435 O 0.53943 0.49499 0.52578 0.0
O1436 O 0.54136 0.52082 0.49807 0.0
O1437 O 0.56897 0.52265 0.51299 0.0
O1438 O 0.49971 0.49604 0.52452 0.0
O1439 O 0.50382 0.50869 0.49962 0.0
O1440 O 0.52472 0.54708 0.52042 0.0
O1441 O 0.55579 0.5607 0.51809 0.0
O1442 O 0.5487 0.55098 0.55268 0.0
O1443 O 0.52545 0.52215 0.54829 0.0
C1444 C 0.55129 0.49706 0.53957 0.0
O1445 O 0.59149 0.5624 0.52982 0.0
O1446 O 0.58831 0.54975 0.55484 0.0
C1447 C 0.55824 0.51939 0.49839 0.0
C1448 C 0.47629 0.50745 0.51188 0.0
C1449 C 0.45012 0.52839 0.51232 0.0
C1450 C 0.44699 0.51157 0.50077 0.0
C1451 C 0.46019 0.50119 0.50045 0.0
C1452 C 0.47896 0.52378 0.52389 0.0
C1453 C 0.46597 0.53417 0.52411 0.0
C1454 C 0.49175 0.49925 0.50985 0.0
C1455 C 0.53858 0.56154 0.51627 0.0
H1456 H 0.64938 0.53887 0.56636 0.0
H1457 H 0.62509 0.55537 0.5696 0.0
H1458 H 0.61056 0.54532 0.51356 0.0
H1459 H 0.63453 0.529 0.51041 0.0
H1460 H 0.43476 0.50695 0.49162 0.0
H1461 H 0.45817 0.48878 0.49095 0.0
H1462 H 0.49143 0.52893 0.53271 0.0
H1463 H 0.46844 0.54691 0.53333 0.0
Tb1464 Tb 0.01959 0.52943 0.03184 0.0
Tb1465 Tb 0.06885 0.53281 0.03161 0.0
C1466 C 0.03964 0.52259 0.06059 0.0
C1467 C 0.97689 0.54649 0.02731 0.0
C1468 C 0.95549 0.57327 0.02885 0.0
C1469 C 0.961 0.56589 0.04425 0.0
C1470 C 0.97152 0.55263 0.04349 0.0
C1471 C 0.97173 0.55417 0.01193 0.0
C1472 C 0.96117 0.56746 0.0127 0.0
C1473 C 0.9867 0.53119 0.02633 0.0
O1474 O 0.03588 0.55831 0.04376 0.0
O1475 O 0.06787 0.56185 0.04124 0.0
O1476 O 0.06094 0.53659 0.00507 0.0
O1477 O 0.03659 0.54799 0.01362 0.0
O1478 O 0.08637 0.52389 0.04942 0.0
O1479 O 0.0968 0.53859 0.02626 0.0
O1480 O 0.05425 0.5034 0.02104 0.0
O1481 O 0.02223 0.50107 0.0209 0.0
O1482 O 0.02252 0.52232 0.05939 0.0
O1483 O 0.04549 0.52416 0.04521 0.0
C1484 C 0.05377 0.56846 0.04569 0.0
O1485 O 0.998 0.53164 0.01393 0.0
O1486 O 0.99354 0.52705 0.04118 0.0
C1487 C 0.04673 0.54339 1.00142 0.0
C1488 C 0.11042 0.51426 0.03592 0.0
C1489 C 0.13137 0.48753 0.0304 0.0
C1490 C 0.13381 0.50388 0.02044 0.0
C1491 C 0.12351 0.51714 0.02323 0.0
C1492 C 0.10779 0.49777 0.04571 0.0
C1493 C 0.11815 0.48457 0.04298 0.0
C1494 C 0.10035 0.52895 0.03953 0.0
C1495 C 0.03639 0.49381 0.01803 0.0
H1496 H 0.9571 0.57028 0.05694 0.0
H1497 H 0.97517 0.54697 0.05561 0.0
H1498 H 0.9755 0.54958 0.99926 0.0
H1499 H 0.95697 0.57268 1.00055 0.0
H1500 H 0.14373 0.50648 0.0105 0.0
H1501 H 0.12594 0.52978 0.01556 0.0
H1502 H 0.09798 0.4952 0.05574 0.0
H1503 H 0.11613 0.47234 0.0511 0.0
H1504 H 1.01118 0.22431 0.97211 0.0
H1505 H 0.0151 0.19499 0.98467 0.0
H1506 H 0.01264 0.16731 0.93254 0.0
H1507 H 1.00795 0.19649 0.91984 0.0
H1508 H 0.99391 0.14185 0.95302 0.0
H1509 H 0.06173 0.17939 0.98868 0.0
H1510 H 0.04405 0.19012 0.99525 0.0
H1511 H 0.05064 0.19118 0.97294 0.0
C1512 C 1.01144 0.21199 0.96328 0.0
C1513 C 1.00937 0.21281 0.94495 0.0
C1514 C 0.01386 0.19525 0.97051 0.0
C1515 C 0.0147 0.17906 0.9596 0.0
C1516 C 0.01221 0.17965 0.94127 0.0
H1517 H 0.0608 0.08965 0.99988 0.0
H1518 H 0.055 0.11736 0.98576 0.0
C1519 C 1.00954 0.19635 0.93401 0.0
C1520 C 0.01804 0.16152 0.96736 0.0
H1521 H 0.04683 0.14737 0.99673 0.0
C1522 C 1.00557 0.14303 0.96248 0.0
C1523 C 0.03343 0.16292 0.97948 0.0
C1524 C 0.04832 0.18194 0.98424 0.0
C1525 C 1.00787 0.12602 0.96954 0.0
C1526 C 0.02271 0.12757 0.98239 0.0
C1527 C 0.0353 0.14606 0.98708 0.0
C1528 C 0.02589 0.11026 0.99077 0.0
C1529 C 0.99462 0.10658 0.9627 0.0
C1530 C 0.01157 0.09694 0.9985 0.0
C1531 C 0.01477 0.08072 0.00618 0.0
C1532 C 0.03253 0.07787 0.00687 0.0
C1533 C 0.04697 0.09148 0.99962 0.0
C1534 C 0.04365 0.10737 0.99154 0.0
H1535 H 0.98835 0.10726 0.94931 0.0
H1536 H 1.00167 0.09485 0.96221 0.0
H1537 H 0.98312 0.10259 0.97148 0.0
H1538 H 0.99793 0.09913 0.99877 0.0
H1539 H 1.00344 0.07063 0.01188 0.0
H1540 H 0.12577 0.81731 0.18161 0.0
H1541 H 0.15387 0.81532 0.19804 0.0
H1542 H 0.17478 0.79879 0.14992 0.0
H1543 H 0.1464 0.8003 0.13336 0.0
H1544 H 0.17708 0.77446 0.1753 0.0
H1545 H 0.20603 0.85089 0.20342 0.0
H1546 H 0.1824 0.84056 0.20822 0.0
H1547 H 0.18787 0.84402 0.18578 0.0
C1548 C 0.13651 0.81371 0.17442 0.0
C1549 C 0.13388 0.80915 0.15612 0.0
C1550 C 0.15263 0.81261 0.18387 0.0
C1551 C 0.16661 0.8072 0.17521 0.0
C1552 C 0.16425 0.80313 0.15687 0.0
H1553 H 0.26766 0.78076 0.21678 0.0
H1554 H 0.24273 0.78569 0.1971 0.0
C1555 C 0.14807 0.80414 0.14741 0.0
C1556 C 0.183 0.80448 0.18547 0.0
H1557 H 0.2183 0.82711 0.21638 0.0
C1558 C 0.18624 0.78604 0.18413 0.0
C1559 C 0.1949 0.81954 0.19707 0.0
C1560 C 0.19275 0.83992 0.1986 0.0
C1561 C 0.20065 0.78208 0.19446 0.0
C1562 C 0.21236 0.79708 0.20626 0.0
C1563 C 0.2093 0.8156 0.20738 0.0
C1564 C 0.22748 0.79382 0.21802 0.0
C1565 C 0.20275 0.76168 0.19311 0.0
C1566 C 0.22748 0.79723 0.23628 0.0
C1567 C 0.24177 0.79465 0.24753 0.0
C1568 C 0.25645 0.78862 0.24077 0.0
C1569 C 0.25649 0.78526 0.22244 0.0
C1570 C 0.24219 0.78796 0.21117 0.0
H1571 H 0.18996 0.75084 0.18696 0.0
H1572 H 0.2143 0.76136 0.18481 0.0
H1573 H 0.20607 0.75715 0.20627 0.0
H1574 H 0.21633 0.80184 0.24188 0.0
H1575 H 0.24124 0.79733 0.26156 0.0
H1576 H 0.52246 0.84103 0.41979 0.0
H1577 H 0.52593 0.8716 0.43701 0.0
H1578 H 0.51565 0.84085 0.48395 0.0
H1579 H 0.51167 0.80969 0.46659 0.0
H1580 H 0.49651 0.86851 0.48149 0.0
H1581 H 0.57 0.90151 0.46973 0.0
H1582 H 0.55602 0.8932 0.44945 0.0
H1583 H 0.55854 0.8758 0.46487 0.0
C1584 C 0.52107 0.84061 0.4338 0.0
C1585 C 0.51694 0.82277 0.44178 0.0
C1586 C 0.52314 0.85822 0.44366 0.0
C1587 C 0.52142 0.85861 0.46183 0.0
C1588 C 0.51719 0.8409 0.46994 0.0
H1589 H 0.5598 0.97314 0.51909 0.0
H1590 H 0.55483 0.93884 0.50928 0.0
C1591 C 0.51502 0.82312 0.46002 0.0
C1592 C 0.52377 0.87763 0.47204 0.0
H1593 H 0.55316 0.92377 0.47887 0.0
C1594 C 0.50899 0.88055 0.48118 0.0
C1595 C 0.54016 0.89325 0.4719 0.0
C1596 C 0.55715 0.89073 0.46362 0.0
C1597 C 0.50993 0.89889 0.48963 0.0
C1598 C 0.52586 0.9149 0.48843 0.0
C1599 C 0.54082 0.91169 0.47972 0.0
C1600 C 0.52763 0.93511 0.49605 0.0
C1601 C 0.49391 0.90072 0.4999 0.0
C1602 C 0.51391 0.94457 0.49223 0.0
C1603 C 0.51655 0.96412 0.49835 0.0
C1604 C 0.53324 0.9747 0.50779 0.0
C1605 C 0.54687 0.96529 0.51168 0.0
C1606 C 0.54401 0.94567 0.50607 0.0
H1607 H 0.48639 0.88646 0.50466 0.0
H1608 H 0.49864 0.9116 0.5114 0.0
H1609 H 0.48389 0.90541 0.4912 0.0
H1610 H 0.50142 0.93708 0.48406 0.0
H1611 H 0.50592 0.97119 0.49509 0.0
H1612 H 0.54549 0.28689 0.67262 0.0
H1613 H 0.52016 0.28398 0.69185 0.0
H1614 H 0.48272 0.28486 0.64714 0.0
H1615 H 0.50774 0.2871 0.62774 0.0
H1616 H 0.49926 0.30759 0.69893 0.0
H1617 H 0.45384 0.2369 0.66843 0.0
H1618 H 0.47768 0.24643 0.66342 0.0
H1619 H 0.45973 0.25502 0.65285 0.0
C1620 C 0.53186 0.28646 0.66686 0.0
C1621 C 0.52859 0.28708 0.64862 0.0
C1622 C 0.5174 0.28475 0.67788 0.0
C1623 C 0.49947 0.28372 0.67086 0.0
C1624 C 0.49631 0.28498 0.65275 0.0
H1625 H 0.39558 0.28457 0.71096 0.0
H1626 H 0.42169 0.28438 0.69341 0.0
C1627 C 0.51068 0.28643 0.6417 0.0
C1628 C 0.48416 0.28184 0.68255 0.0
H1629 H 0.44 0.25471 0.68827 0.0
C1630 C 0.48638 0.29591 0.69672 0.0
C1631 C 0.46739 0.26653 0.67967 0.0
C1632 C 0.46457 0.25026 0.66537 0.0
C1633 C 0.47204 0.29547 0.70775 0.0
C1634 C 0.45514 0.28046 0.70457 0.0
C1635 C 0.45299 0.26622 0.69059 0.0
C1636 C 0.43924 0.27973 0.7152 0.0
C1637 C 0.47486 0.31139 0.72238 0.0
C1638 C 0.4404 0.27677 0.73316 0.0
C1639 C 0.42556 0.277 0.74325 0.0
C1640 C 0.40931 0.28011 0.73549 0.0
C1641 C 0.40803 0.28246 0.71736 0.0
C1642 C 0.42286 0.28223 0.7073 0.0
H1643 H 0.48714 0.32394 0.72084 0.0
H1644 H 0.46241 0.3168 0.7229 0.0
H1645 H 0.47706 0.3054 0.73514 0.0
H1646 H 0.45286 0.2745 0.7394 0.0
H1647 H 0.42701 0.27527 0.7572 0.0
H1648 H 0.0615 0.83333 0.62273 0.0
H1649 H 0.06252 0.86158 0.60535 0.0
H1650 H 0.03228 0.88366 0.64379 0.0
H1651 H 0.03277 0.8566 0.66165 0.0
H1652 H 0.04431 0.87769 0.58702 0.0
H1653 H 0.0647 0.93452 0.64202 0.0
H1654 H 0.06408 0.90962 0.64514 0.0
H1655 H 0.04312 0.9173 0.64549 0.0
C1656 C 0.05512 0.84423 0.62759 0.0
C1657 C 0.04713 0.8422 0.64399 0.0
C1658 C 0.05571 0.86074 0.6175 0.0
C1659 C 0.04813 0.8761 0.62304 0.0
C1660 C 0.03938 0.87338 0.63906 0.0
H1661 H 0.03376 0.98659 0.57981 0.0
H1662 H 0.03335 0.9581 0.59638 0.0
C1663 C 0.0393 0.8573 0.64935 0.0
C1664 C 0.04897 0.89431 0.61209 0.0
H1665 H 0.05428 0.9443 0.61523 0.0
C1666 C 0.04668 0.89219 0.59343 0.0
C1667 C 0.05204 0.91395 0.61962 0.0
C1668 C 0.05632 0.91904 0.63913 0.0
C1669 C 0.04681 0.9081 0.58265 0.0
C1670 C 0.04962 0.92764 0.59023 0.0
C1671 C 0.05196 0.92979 0.60885 0.0
C1672 C 0.05 0.9458 0.57942 0.0
C1673 C 0.04321 0.90335 0.56307 0.0
C1674 C 0.05969 0.94974 0.56398 0.0
C1675 C 0.05971 0.96624 0.55417 0.0
C1676 C 0.05045 0.9802 0.55936 0.0
C1677 C 0.04117 0.97659 0.57502 0.0
C1678 C 0.04095 0.95997 0.5847 0.0
H1679 H 0.03547 0.88774 0.55979 0.0
H1680 H 0.03514 0.91249 0.55704 0.0
H1681 H 0.05668 0.90602 0.55706 0.0
H1682 H 0.06761 0.94018 0.55945 0.0
H1683 H 0.06724 0.96812 0.54244 0.0
H1684 H 0.48582 0.78495 0.89055 0.0
H1685 H 0.45592 0.78502 0.87599 0.0
H1686 H 0.47258 0.76508 0.827 0.0
H1687 H 0.50146 0.76303 0.84211 0.0
H1688 H 0.4402 0.80085 0.85625 0.0
H1689 H 0.4248 0.73144 0.81502 0.0
H1690 H 0.44402 0.73832 0.83147 0.0
H1691 H 0.44622 0.74794 0.81004 0.0
C1692 C 0.48316 0.78042 0.87665 0.0
C1693 C 0.49705 0.77471 0.86767 0.0
C1694 C 0.4657 0.78055 0.86807 0.0
C1695 C 0.46068 0.77476 0.84988 0.0
C1696 C 0.47467 0.76897 0.84097 0.0
H1697 H 0.36653 0.80286 0.78593 0.0
H1698 H 0.39669 0.80192 0.79975 0.0
C1699 C 0.49196 0.76842 0.84967 0.0
C1700 C 0.44136 0.77515 0.84067 0.0
H1701 H 0.4057 0.75172 0.80886 0.0
C1702 C 0.4329 0.78985 0.84597 0.0
C1703 C 0.43063 0.76109 0.82701 0.0
C1704 C 0.43677 0.74371 0.82066 0.0
C1705 C 0.41527 0.79099 0.83836 0.0
C1706 C 0.40498 0.77732 0.82452 0.0
C1707 C 0.41317 0.76255 0.81923 0.0
C1708 C 0.38579 0.77799 0.81577 0.0
C1709 C 0.40741 0.80679 0.84554 0.0
C1710 C 0.36869 0.76493 0.81959 0.0
C1711 C 0.3511 0.76554 0.81166 0.0
C1712 C 0.34944 0.77913 0.79922 0.0
C1713 C 0.36661 0.7921 0.79531 0.0
C1714 C 0.38419 0.79158 0.80336 0.0
H1715 H 0.41624 0.81576 0.85689 0.0
H1716 H 0.40605 0.8165 0.83503 0.0
H1717 H 0.39329 0.80012 0.84975 0.0
H1718 H 0.36886 0.75416 0.82894 0.0
H1719 H 0.33866 0.75517 0.81534 0.0
H1720 H 0.52303 0.21216 0.15892 0.0
H1721 H 0.52382 0.1818 0.14242 0.0
H1722 H 0.54633 0.21476 0.0995 0.0
H1723 H 0.54622 0.24518 0.11632 0.0
H1724 H 0.51853 0.17893 0.08678 0.0
H1725 H 0.56902 0.16178 0.13426 0.0
H1726 H 0.54909 0.166 0.14384 0.0
H1727 H 0.56522 0.18564 0.13441 0.0
C1728 C 0.52806 0.21307 0.14592 0.0
C1729 C 0.53385 0.23156 0.13894 0.0
C1730 C 0.52862 0.19546 0.13637 0.0
C1731 C 0.53516 0.1953 0.11933 0.0
C1732 C 0.54102 0.21381 0.11238 0.0
H1733 H 0.56204 0.10609 0.04569 0.0
H1734 H 0.56012 0.13575 0.06252 0.0
C1735 C 0.54072 0.23145 0.12205 0.0
C1736 C 0.5362 0.17619 0.10908 0.0
H1737 H 0.5553 0.13741 0.11122 0.0
C1738 C 0.52663 0.17 0.09227 0.0
C1739 C 0.54675 0.16394 0.11564 0.0
C1740 C 0.55827 0.16966 0.13294 0.0
C1741 C 0.52703 0.15237 0.08246 0.0
C1742 C 0.53743 0.14007 0.08911 0.0
C1743 C 0.54711 0.14631 0.10582 0.0
C1744 C 0.53865 0.12118 0.07871 0.0
C1745 C 0.51604 0.1467 0.06491 0.0
C1746 C 0.52735 0.10231 0.08173 0.0
C1747 C 0.52842 0.08499 0.07194 0.0
C1748 C 0.54088 0.08558 0.05859 0.0
C1749 C 0.5522 0.10451 0.05567 0.0
C1750 C 0.55111 0.12177 0.06543 0.0
H1751 H 0.50804 0.1571 0.06159 0.0
H1752 H 0.52559 0.14613 0.05448 0.0
H1753 H 0.50626 0.13184 0.06499 0.0
H1754 H 0.51749 0.10092 0.09168 0.0
H1755 H 0.51929 0.07106 0.07481 0.0
H1756 H 0.10232 0.25582 0.37668 0.0
H1757 H 0.13162 0.25586 0.36346 0.0
H1758 H 0.13098 0.30802 0.33847 0.0
H1759 H 0.10206 0.30797 0.35138 0.0
H1760 H 0.14259 0.2531 0.32905 0.0
H1761 H 0.18432 0.32583 0.35764 0.0
H1762 H 0.1621 0.31365 0.36533 0.0
H1763 H 0.1633 0.32633 0.34555 0.0
C1764 C 0.10847 0.26755 0.36863 0.0
C1765 C 0.09923 0.28207 0.3657 0.0
C1766 C 0.12548 0.26751 0.3608 0.0
C1767 C 0.13456 0.28219 0.34983 0.0
C1768 C 0.12528 0.29663 0.347 0.0
H1769 H 0.24202 0.31365 0.29437 0.0
H1770 H 0.21298 0.3128 0.30805 0.0
C1771 C 0.10828 0.29651 0.35454 0.0
C1772 C 0.15308 0.28232 0.34109 0.0
H1773 H 0.19759 0.31117 0.33528 0.0
C1774 C 0.15458 0.26586 0.33063 0.0
C1775 C 0.16931 0.29879 0.34237 0.0
C1776 C 0.16984 0.31711 0.35344 0.0
C1777 C 0.17077 0.26554 0.32148 0.0
C1778 C 0.18726 0.2819 0.32304 0.0
C1779 C 0.18568 0.29834 0.33358 0.0
C1780 C 0.20585 0.28239 0.31402 0.0
C1781 C 0.16931 0.24765 0.3094 0.0
C1782 C 0.21305 0.26598 0.3124 0.0
C1783 C 0.22969 0.26636 0.30399 0.0
C1784 C 0.24088 0.28337 0.29706 0.0
C1785 C 0.23419 0.30004 0.29916 0.0
C1786 C 0.21724 0.29953 0.30726 0.0
H1787 H 0.15464 0.24023 0.30462 0.0
H1788 H 0.1774 0.25134 0.29777 0.0
H1789 H 0.1745 0.23705 0.31675 0.0
H1790 H 0.20603 0.25262 0.31799 0.0
H1791 H 0.23402 0.25313 0.30328 0.0
H1792 H 0.92143 0.01201 0.17671 0.0
H1793 H 0.9369 0.01312 0.14934 0.0
H1794 H 0.98067 0.06317 0.17181 0.0
H1795 H 0.96569 0.0617 0.1994 0.0
H1796 H 0.94901 0.0399 0.12541 0.0
H1797 H 1.00803 0.02288 0.1612 0.0
H1798 H 0.98639 0.02141 0.17083 0.0
H1799 H 1.00381 0.04459 0.1708 0.0
C1800 C 0.93413 0.02351 0.17564 0.0
C1801 C 0.94256 0.03665 0.19013 0.0
C1802 C 0.94294 0.02407 0.16007 0.0
C1803 C 0.9601 0.03788 0.15888 0.0
C1804 C 0.96766 0.05208 0.17278 0.0
H1805 H 0.03962 0.07308 0.08408 0.0
H1806 H 0.01856 0.07025 0.10792 0.0
C1807 C 0.95905 0.05133 0.18843 0.0
C1808 C 0.97079 0.03675 0.14364 0.0
H1809 H 0.0133 0.03423 0.13258 0.0
C1810 C 0.963 0.0385 0.1269 0.0
C1811 C 0.98881 0.03433 0.14569 0.0
C1812 C 0.99716 0.03046 0.16308 0.0
C1813 C 0.97333 0.03905 0.11222 0.0
C1814 C 0.99176 0.03813 0.11463 0.0
C1815 C 0.99924 0.03544 0.13112 0.0
C1816 C 1.00367 0.04004 0.10017 0.0
C1817 C 0.96482 0.04105 0.09432 0.0
C1818 C 1.00214 0.02384 0.08849 0.0
C1819 C 0.01408 0.02541 0.07521 0.0
C1820 C 0.02759 0.04318 0.07351 0.0
C1821 C 0.0293 0.05932 0.08535 0.0
C1822 C 0.01728 0.05774 0.09872 0.0
H1823 H 0.95051 0.04245 0.09482 0.0
H1824 H 0.97358 0.05406 0.08853 0.0
H1825 H 0.96432 0.02803 0.08542 0.0
H1826 H 0.99189 0.01002 0.08979 0.0
H1827 H 0.01296 0.0126 0.06644 0.0
H1828 H 0.30008 0.64455 0.47867 0.0
H1829 H 0.29472 0.66041 0.45222 0.0
H1830 H 0.28489 0.70775 0.48426 0.0
H1831 H 0.29085 0.69238 0.51072 0.0
H1832 H 0.26108 0.66557 0.44429 0.0
H1833 H 0.31535 0.73689 0.44776 0.0
H1834 H 0.31729 0.71745 0.46114 0.0
H1835 H 0.30312 0.73293 0.46728 0.0
C1836 C 0.29743 0.65868 0.48006 0.0
C1837 C 0.29588 0.66727 0.49669 0.0
C1838 C 0.29431 0.66765 0.46499 0.0
C1839 C 0.2895 0.68522 0.46637 0.0
C1840 C 0.28901 0.69441 0.48297 0.0
H1841 H 0.25086 0.75269 0.39088 0.0
H1842 H 0.25594 0.73761 0.41782 0.0
C1843 C 0.29241 0.68559 0.49807 0.0
C1844 C 0.28273 0.6926 0.45054 0.0
H1845 H 0.28945 0.73256 0.42695 0.0
C1846 C 0.26735 0.68018 0.44039 0.0
C1847 C 0.29082 0.71172 0.44576 0.0
C1848 C 0.30766 0.72546 0.45597 0.0
C1849 C 0.25972 0.68642 0.4255 0.0
C1850 C 0.26789 0.70548 0.42063 0.0
C1851 C 0.28318 0.71797 0.43087 0.0
C1852 C 0.26153 0.71257 0.40446 0.0
C1853 C 0.24287 0.67268 0.4153 0.0
C1854 C 0.2624 0.70304 0.38813 0.0
C1855 C 0.25909 0.71136 0.37271 0.0
C1856 C 0.25531 0.72956 0.37346 0.0
C1857 C 0.25352 0.73855 0.38986 0.0
C1858 C 0.25658 0.73008 0.40526 0.0
H1859 H 0.235 0.66148 0.42363 0.0
H1860 H 0.2334 0.68072 0.40985 0.0
H1861 H 0.24743 0.66491 0.4042 0.0
H1862 H 0.26654 0.68969 0.38728 0.0
H1863 H 0.26031 0.70398 0.36024 0.0
H1864 H 0.60345 1.00429 0.71236 0.0
H1865 H 0.58873 1.00516 0.68352 0.0
H1866 H 0.64235 0.0225 0.66233 0.0
H1867 H 0.65751 0.02232 0.6917 0.0
H1868 H 0.61805 0.04448 0.65223 0.0
H1869 H 0.58368 0.96491 0.64237 0.0
H1870 H 0.57928 0.97523 0.66307 0.0
H1871 H 0.60262 0.97538 0.65884 0.0
C1872 C 0.61219 0.00804 0.70158 0.0
C1873 C 0.63163 0.01299 0.70417 0.0
C1874 C 0.60373 0.00853 0.68513 0.0
C1875 C 0.6145 0.01352 0.6709 0.0
C1876 C 0.63392 0.01846 0.67329 0.0
H1877 H 0.56667 0.99378 0.56536 0.0
H1878 H 0.58277 0.99323 0.59362 0.0
C1879 C 0.64249 0.0182 0.68993 0.0
C1880 C 0.60508 0.01371 0.65366 0.0
H1881 H 0.57101 0.98519 0.62461 0.0
C1882 C 0.60794 0.03152 0.64597 0.0
C1883 C 0.59206 0.99669 0.64566 0.0
C1884 C 0.58936 0.97694 0.65283 0.0
C1885 C 0.59764 0.03282 0.63048 0.0
C1886 C 0.58388 0.01597 0.62303 0.0
C1887 C 0.58134 0.99814 0.63061 0.0
C1888 C 0.57302 0.0159 0.60648 0.0
C1889 C 0.60178 0.05204 0.62214 0.0
C1890 C 0.56162 0.02832 0.60465 0.0
C1891 C 0.55248 0.02883 0.58834 0.0
C1892 C 0.5546 0.01675 0.57393 0.0
C1893 C 0.56494 1.00337 0.57624 0.0
C1894 C 0.57418 1.00306 0.59235 0.0
H1895 H 0.61561 0.06192 0.62705 0.0
H1896 H 0.60136 0.04973 0.6076 0.0
H1897 H 0.59114 0.05949 0.62539 0.0
H1898 H 0.5602 0.03791 0.61566 0.0
H1899 H 0.54459 0.03929 0.58683 0.0
H1900 H 0.29303 0.32052 0.98428 0.0
H1901 H 0.29178 0.3049 0.95441 0.0
H1902 H 0.28161 0.35549 0.93241 0.0
H1903 H 0.282 0.37052 0.9617 0.0
H1904 H 0.26141 0.32565 0.91392 0.0
H1905 H 0.33168 0.31542 0.92119 0.0
H1906 H 0.31622 0.30262 0.93637 0.0
H1907 H 0.32306 0.32893 0.9377 0.0
C1908 C 0.29017 0.32812 0.97307 0.0
C1909 C 0.28768 0.34689 0.97563 0.0
C1910 C 0.28978 0.31931 0.95589 0.0
C1911 C 0.28705 0.32911 0.94084 0.0
C1912 C 0.28385 0.34747 0.94354 0.0
H1913 H 0.31989 0.31011 0.83433 0.0
H1914 H 0.31813 0.31924 0.86551 0.0
C1915 C 0.28411 0.35613 0.9605 0.0
C1916 C 0.28746 0.32077 0.92223 0.0
H1917 H 0.31422 0.30344 0.89413 0.0
C1918 C 0.27299 0.32076 0.90967 0.0
C1919 C 0.30265 0.31468 0.91629 0.0
C1920 C 0.31938 0.31557 0.92852 0.0
C1921 C 0.27334 0.31526 0.89165 0.0
C1922 C 0.28824 0.30853 0.88576 0.0
C1923 C 0.30265 0.30835 0.89836 0.0
C1924 C 0.28944 0.30235 0.86663 0.0
C1925 C 0.25808 0.31774 0.87909 0.0
C1926 C 0.27415 0.28944 0.85653 0.0
C1927 C 0.27498 0.28476 0.8385 0.0
C1928 C 0.29138 0.29214 0.8301 0.0
C1929 C 0.30701 0.3042 0.84032 0.0
C1930 C 0.306 0.30939 0.85826 0.0
H1931 H 0.25174 0.32892 0.88451 0.0
H1932 H 0.26329 0.32219 0.86623 0.0
H1933 H 0.24692 0.30372 0.87693 0.0
H1934 H 0.26144 0.2829 0.86254 0.0
H1935 H 0.26279 0.2751 0.83115 0.0
H1936 H 0.97081 0.02093 0.27372 0.0
H1937 H 0.99235 0.02267 0.29947 0.0
H1938 H 0.95267 0.03578 0.33324 0.0
H1939 H 0.93082 0.03332 0.30767 0.0
H1940 H 1.00858 0.05077 0.32711 0.0
H1941 H 0.95933 0.98523 0.35039 0.0
H1942 H 0.95656 0.99316 0.32866 0.0
H1943 H 0.94946 1.00504 0.34731 0.0
C1944 C 0.96683 0.02445 0.28664 0.0
C1945 C 0.94913 0.02669 0.28886 0.0
C1946 C 0.97911 0.02544 0.30127 0.0
C1947 C 0.97383 0.0289 0.31816 0.0
C1948 C 0.95671 0.03259 0.32027 0.0
H1949 H 0.02385 0.04336 0.42228 0.0
H1950 H 1.01132 0.0485 0.39327 0.0
C1951 C 0.94431 0.03123 0.30571 0.0
C1952 C 0.98558 0.02725 0.33367 0.0
H1953 H 0.98538 1.00179 0.37002 0.0
C1954 C 1.0036 0.04002 0.33646 0.0
C1955 C 0.97901 0.01296 0.34563 0.0
C1956 C 0.9601 0.99819 0.34279 0.0
C1957 C 0.01506 0.03925 0.35136 0.0
C1958 C 1.00822 0.02542 0.3635 0.0
C1959 C 0.99042 0.01237 0.36053 0.0
C1960 C 0.01889 0.02467 0.37991 0.0
C1961 C 0.03432 0.05318 0.35421 0.0
C1962 C 0.02749 0.00979 0.38168 0.0
C1963 C 0.03454 0.00672 0.3982 0.0
C1964 C 0.03282 0.01841 0.41307 0.0
C1965 C 0.02514 0.03403 0.41101 0.0
C1966 C 0.01814 0.03709 0.39451 0.0
H1967 H 0.03808 0.06215 0.34287 0.0
H1968 H 0.03523 0.06307 0.36618 0.0
H1969 H 0.04461 0.04487 0.35644 0.0
H1970 H 0.02792 1.0 0.37043 0.0
H1971 H 0.04027 0.9945 0.39948 0.0
H1972 H 0.29582 0.6497 0.6095 0.0
H1973 H 0.29648 0.66616 0.63855 0.0
H1974 H 0.32514 0.72123 0.61932 0.0
H1975 H 0.32441 0.70497 0.59011 0.0
H1976 H 0.32698 0.69074 0.66151 0.0
H1977 H 0.2764 0.72908 0.63771 0.0
H1978 H 0.2801 0.70823 0.62555 0.0
H1979 H 0.29643 0.73195 0.62527 0.0
C1980 C 0.30258 0.66526 0.61151 0.0
C1981 C 0.30998 0.6761 0.59753 0.0
C1982 C 0.30287 0.67461 0.62808 0.0
C1983 C 0.31054 0.69488 0.63085 0.0
C1984 C 0.31889 0.70559 0.61723 0.0
H1985 H 0.31504 0.781 0.71597 0.0
H1986 H 0.31698 0.76341 0.68798 0.0
C1987 C 0.3186 0.69626 0.60064 0.0
C1988 C 0.30923 0.70494 0.64782 0.0
H1989 H 0.2898 0.73798 0.66687 0.0
C1990 C 0.31887 0.70107 0.66276 0.0
C1991 C 0.29844 0.71819 0.64925 0.0
C1992 C 0.2871 0.72203 0.63364 0.0
C1993 C 0.31851 0.71067 0.67918 0.0
C1994 C 0.30791 0.72414 0.68059 0.0
C1995 C 0.29804 0.72776 0.66565 0.0
C1996 C 0.30688 0.73465 0.69748 0.0
C1997 C 0.32984 0.70662 0.6947 0.0
C1998 C 0.30038 0.72425 0.7119 0.0
C1999 C 0.29967 0.73421 0.72791 0.0
C2000 C 0.30497 0.75474 0.72958 0.0
C2001 C 0.31102 0.76517 0.71501 0.0
C2002 C 0.31207 0.75516 0.69907 0.0
H2003 H 0.34113 0.70058 0.69046 0.0
H2004 H 0.33611 0.72009 0.70349 0.0
H2005 H 0.32069 0.69565 0.70237 0.0
H2006 H 0.29573 0.70843 0.71076 0.0
H2007 H 0.29456 0.72582 0.73886 0.0
H2008 H 0.61361 0.992 0.78725 0.0
H2009 H 0.59042 0.9841 0.80902 0.0
H2010 H 0.62011 0.03659 0.84094 0.0
H2011 H 0.64355 0.04432 0.81952 0.0
H2012 H 0.60605 0.98631 0.85122 0.0
H2013 H 0.55823 0.02886 0.83023 0.0
H2014 H 0.57052 0.01771 0.81496 0.0
H2015 H 0.5824 0.04022 0.82756 0.0
C2016 C 0.615 1.00191 0.79886 0.0
C2017 C 0.6302 0.01874 0.80191 0.0
C2018 C 0.60183 0.99737 0.81115 0.0
C2019 C 0.6037 0.00988 0.82628 0.0
C2020 C 0.61861 0.02692 0.82914 0.0
H2021 H 0.60582 0.04539 0.92363 0.0
H2022 H 0.60698 0.02723 0.89586 0.0
C2023 C 0.63194 0.03126 0.81705 0.0
C2024 C 0.59103 1.00492 0.84003 0.0
H2025 H 0.56234 0.02576 0.86143 0.0
C2026 C 0.59582 0.99415 0.85331 0.0
C2027 C 0.57758 0.01492 0.84236 0.0
C2028 C 0.57171 0.02597 0.82796 0.0
C2029 C 0.58931 0.99543 0.86993 0.0
C2030 C 0.5781 0.00796 0.87306 0.0
C2031 C 0.57117 0.01635 0.85901 0.0
C2032 C 0.57704 0.01618 0.89083 0.0
C2033 C 0.59587 0.98487 0.88436 0.0
C2034 C 0.55988 0.01634 0.89684 0.0
C2035 C 0.55925 0.02709 0.91244 0.0
C2036 C 0.5758 0.03773 0.92211 0.0
C2037 C 0.59295 0.03717 0.91633 0.0
C2038 C 0.59358 0.0266 0.90066 0.0
H2039 H 0.59739 0.97065 0.87901 0.0
H2040 H 0.60974 0.9938 0.89014 0.0
H2041 H 0.58615 0.98224 0.89493 0.0
H2042 H 0.54705 0.00862 0.88923 0.0
H2043 H 0.54587 0.02718 0.91692 0.0
H2044 H 0.26992 0.31534 0.07328 0.0
H2045 H 0.26716 0.30484 0.10334 0.0
H2046 H 0.30153 0.36172 0.12386 0.0
H2047 H 0.30376 0.37239 0.0941 0.0
H2048 H 0.29099 0.30047 0.12841 0.0
H2049 H 0.26095 0.35718 0.15536 0.0
H2050 H 0.26321 0.35349 0.13215 0.0
H2051 H 0.28274 0.3678 0.14655 0.0
C2052 C 0.27672 0.32568 0.08421 0.0
C2053 C 0.28687 0.34484 0.08111 0.0
C2054 C 0.27518 0.31964 0.10149 0.0
C2055 C 0.28374 0.33254 0.11622 0.0
C2056 C 0.29418 0.35154 0.11303 0.0
H2057 H 0.30097 0.328 0.22976 0.0
H2058 H 0.29994 0.3363 0.19925 0.0
C2059 C 0.29557 0.35762 0.09584 0.0
C2060 C 0.28224 0.32608 0.13477 0.0
H2061 H 0.27265 0.33931 0.17636 0.0
C2062 C 0.28678 0.3089 0.13881 0.0
C2063 C 0.27676 0.3369 0.14863 0.0
C2064 C 0.27045 0.35475 0.14543 0.0
C2065 C 0.2866 0.30271 0.15611 0.0
C2066 C 0.28144 0.31373 0.17 0.0
C2067 C 0.27668 0.33076 0.16592 0.0
C2068 C 0.2815 0.30835 0.18889 0.0
C2069 C 0.29264 0.28474 0.15942 0.0
C2070 C 0.27115 0.28993 0.19372 0.0
C2071 C 0.27169 0.28509 0.21139 0.0
C2072 C 0.2825 0.29857 0.22481 0.0
C2073 C 0.29245 0.31714 0.21996 0.0
C2074 C 0.29189 0.32195 0.20237 0.0
H2075 H 0.30082 0.28107 0.14876 0.0
H2076 H 0.30115 0.28673 0.17212 0.0
H2077 H 0.28016 0.27214 0.15997 0.0
H2078 H 0.26259 0.27923 0.18383 0.0
H2079 H 0.26385 0.27065 0.21446 0.0
H2080 H 0.26094 0.96009 0.98166 0.0
H2081 H 0.23676 0.97335 0.9923 0.0
H2082 H 0.22654 0.93181 0.0319 0.0
H2083 H 0.25077 0.91824 0.02138 0.0
H2084 H 0.19395 0.93847 0.01316 0.0
H2085 H 0.24686 1.00612 0.04106 0.0
H2086 H 0.24942 0.99941 0.01852 0.0
H2087 H 0.25247 0.98366 0.03527 0.0
C2088 C 0.25338 0.95352 0.99245 0.0
C2089 C 0.25787 0.93828 1.00082 0.0
C2090 C 0.23968 0.96118 0.99853 0.0
C2091 C 0.23039 0.95375 0.01306 0.0
C2092 C 0.23387 0.93773 0.02076 0.0
H2093 H 0.16523 0.02439 0.06017 0.0
H2094 H 0.1859 1.00332 0.05847 0.0
C2095 C 0.2476 0.92999 0.01467 0.0
C2096 C 0.21755 0.96338 0.0205 0.0
H2097 H 0.21556 0.00787 0.03707 0.0
C2098 C 0.19859 0.95351 0.01874 0.0
C2099 C 0.22391 0.98282 0.02803 0.0
C2100 C 0.2443 0.99359 0.03101 0.0
C2101 C 0.18557 0.9632 0.0232 0.0
C2102 C 0.19188 0.98314 0.0293 0.0
C2103 C 0.21089 0.99257 0.03226 0.0
C2104 C 0.17913 0.99514 0.03066 0.0
C2105 C 0.1652 0.95225 0.02079 0.0
C2106 C 0.16918 0.99781 0.01542 0.0
C2107 C 0.15774 0.00998 0.01626 0.0
C2108 C 0.15613 0.01963 0.03237 0.0
C2109 C 0.16643 0.01724 0.04758 0.0
C2110 C 0.17798 1.00509 0.04669 0.0
H2111 H 0.16296 0.93628 0.02151 0.0
H2112 H 0.15732 0.95753 0.03088 0.0
H2113 H 0.15952 0.95458 0.00762 0.0
H2114 H 0.17045 0.99066 1.00284 0.0
H2115 H 0.15015 0.01186 0.00431 0.0
H2116 H 0.72849 0.68504 0.00832 0.0
H2117 H 0.69788 0.66254 0.012 0.0
H2118 H 0.72431 0.62001 0.03012 0.0
H2119 H 0.7546 0.64342 0.02865 0.0
H2120 H 0.67911 0.63001 0.99821 0.0
H2121 H 0.69186 0.61764 0.06787 0.0
H2122 H 0.7083 0.63564 0.05693 0.0
H2123 H 0.70816 0.61027 0.05494 0.0
C2124 C 0.72764 0.67089 0.01315 0.0
C2125 C 0.74384 0.66562 0.01752 0.0
C2126 C 0.71018 0.65799 0.01521 0.0
C2127 C 0.70863 0.63957 0.02167 0.0
C2128 C 0.72494 0.63428 0.02571 0.0
H2129 H 0.6058 0.54547 0.00513 0.0
H2130 H 0.63687 0.56754 1.00394 0.0
C2131 C 0.74231 0.64745 0.02431 0.0
C2132 C 0.69004 0.62588 0.02394 0.0
H2133 H 0.66536 0.59496 0.05216 0.0
C2134 C 0.67611 0.62255 0.01012 0.0
C2135 C 0.68583 0.61625 0.03957 0.0
C2136 C 0.69929 0.62032 0.05571 0.0
C2137 C 0.65832 0.60983 0.01136 0.0
C2138 C 0.65454 0.59925 0.02648 0.0
C2139 C 0.66832 0.60277 0.04043 0.0
C2140 C 0.63631 0.58466 0.02813 0.0
C2141 C 0.64363 0.60834 0.9966 0.0
C2142 C 0.62607 0.58602 0.04274 0.0
C2143 C 0.60839 0.57303 0.04369 0.0
C2144 C 0.60062 0.55852 0.02998 0.0
C2145 C 0.61128 0.55664 0.01581 0.0
C2146 C 0.629 0.5694 0.01501 0.0
H2147 H 0.64675 0.62172 0.98928 0.0
H2148 H 0.64325 0.59582 0.98715 0.0
H2149 H 0.62968 0.60607 1.0016 0.0
H2150 H 0.63149 0.59753 0.05314 0.0
H2151 H 0.60053 0.57488 0.05477 0.0
H2152 H 0.7176 0.49663 0.33722 0.0
H2153 H 0.72959 0.47001 0.32677 0.0
H2154 H 0.68852 0.4558 0.2826 0.0
H2155 H 0.67636 0.48248 0.2928 0.0
H2156 H 0.71 0.42773 0.31699 0.0
H2157 H 0.74151 0.47113 0.26246 0.0
H2158 H 0.73432 0.48231 0.28156 0.0
H2159 H 0.71723 0.46783 0.26512 0.0
C2160 C 0.71094 0.48772 0.3254 0.0
C2161 C 0.6962 0.4918 0.31571 0.0
C2162 C 0.71776 0.47251 0.31952 0.0
C2163 C 0.70997 0.46128 0.30389 0.0
C2164 C 0.69468 0.46456 0.29464 0.0
H2165 H 0.76257 0.38143 0.25094 0.0
H2166 H 0.74041 0.4 0.2569 0.0
C2167 C 0.68778 0.47975 0.30053 0.0
C2168 C 0.71891 0.44716 0.29669 0.0
H2169 H 0.74875 0.44173 0.26626 0.0
C2170 C 0.71824 0.43055 0.30573 0.0
C2171 C 0.72956 0.4511 0.28202 0.0
C2172 C 0.73087 0.46909 0.27221 0.0
C2173 C 0.72858 0.41794 0.30075 0.0
C2174 C 0.73996 0.42241 0.28664 0.0
C2175 C 0.73993 0.4385 0.27708 0.0
C2176 C 0.75337 0.4117 0.28274 0.0
C2177 C 0.72763 0.40022 0.31085 0.0
C2178 C 0.76818 0.41292 0.29511 0.0
C2179 C 0.78096 0.4027 0.29167 0.0
C2180 C 0.77903 0.3911 0.27581 0.0
C2181 C 0.76447 0.39044 0.26318 0.0
C2182 C 0.75173 0.40081 0.26661 0.0
H2183 H 0.71471 0.39597 0.31783 0.0
H2184 H 0.72828 0.38761 0.30197 0.0
H2185 H 0.73964 0.40362 0.32083 0.0
H2186 H 0.7698 0.42172 0.30745 0.0
H2187 H 0.79224 0.40371 0.3015 0.0
H2188 H 0.83862 0.46616 0.51789 0.0
H2189 H 0.86775 0.49173 0.52148 0.0
H2190 H 0.89617 0.45007 0.50367 0.0
H2191 H 0.86615 0.42525 0.49717 0.0
H2192 H 0.89546 0.49997 0.53942 0.0
H2193 H 0.91826 0.48952 0.4733 0.0
H2194 H 0.89661 0.47436 0.47951 0.0
H2195 H 0.9178 0.46804 0.48438 0.0
C2196 C 0.85102 0.4628 0.51389 0.0
C2197 C 0.85017 0.44446 0.5058 0.0
C2198 C 0.86776 0.47727 0.51638 0.0
C2199 C 0.88416 0.4732 0.51198 0.0
C2200 C 0.88357 0.45399 0.50598 0.0
H2201 H 0.98713 0.51382 0.5542 0.0
H2202 H 0.95433 0.51101 0.55069 0.0
C2203 C 0.86655 0.43975 0.50251 0.0
C2204 C 0.90177 0.48902 0.51416 0.0
H2205 H 0.94255 0.50653 0.49583 0.0
C2206 C 0.9055 0.5017 0.52958 0.0
C2207 C 0.91482 0.49189 0.50124 0.0
C2208 C 0.91151 0.48032 0.48363 0.0
C2209 C 0.9224 0.51614 0.53295 0.0
C2210 C 0.93619 0.51717 0.52108 0.0
C2211 C 0.93196 0.50571 0.50504 0.0
C2212 C 0.95591 0.52585 0.52655 0.0
C2213 C 0.9256 0.52956 0.54952 0.0
C2214 C 0.96783 0.53574 0.51452 0.0
C2215 C 0.98649 0.53644 0.51607 0.0
C2216 C 0.99332 0.52776 0.52994 0.0
C2217 C 0.98197 0.52029 0.54323 0.0
C2218 C 0.96326 0.51911 0.54144 0.0
H2219 H 0.91286 0.53393 0.552 0.0
H2220 H 0.92865 0.52168 0.5609 0.0
H2221 H 0.9373 0.54295 0.5488 0.0
H2222 H 0.96237 0.54107 0.503 0.0
H2223 H 0.9953 0.54284 0.50599 0.0
H2224 H 0.38485 0.07776 0.32445 0.0
H2225 H 0.37074 0.10211 0.31388 0.0
H2226 H 0.41799 0.12547 0.28424 0.0
H2227 H 0.43226 0.10095 0.29448 0.0
H2228 H 0.38237 0.14381 0.31323 0.0
H2229 H 0.37305 0.10322 0.24718 0.0
H2230 H 0.37955 0.09327 0.26693 0.0
H2231 H 0.39638 0.11201 0.25722 0.0
C2232 C 0.39249 0.08833 0.31601 0.0
C2233 C 0.40947 0.08718 0.30997 0.0
C2234 C 0.38442 0.10222 0.31004 0.0
C2235 C 0.39327 0.11512 0.29807 0.0
C2236 C 0.41096 0.11528 0.29328 0.0
H2237 H 0.344 0.19608 0.24793 0.0
H2238 H 0.36628 0.17844 0.25661 0.0
C2239 C 0.41905 0.10132 0.29919 0.0
C2240 C 0.38294 0.12677 0.28921 0.0
H2241 H 0.35961 0.12906 0.25018 0.0
C2242 C 0.37759 0.14085 0.29941 0.0
C2243 C 0.37665 0.12245 0.27123 0.0
C2244 C 0.38155 0.10683 0.25996 0.0
C2245 C 0.36568 0.15062 0.29206 0.0
C2246 C 0.35913 0.146 0.27422 0.0
C2247 C 0.36485 0.13236 0.26388 0.0
C2248 C 0.34559 0.15469 0.2664 0.0
C2249 C 0.35973 0.16542 0.30342 0.0
C2250 C 0.32672 0.14646 0.26851 0.0
C2251 C 0.31402 0.15645 0.26365 0.0
C2252 C 0.32025 0.17468 0.25671 0.0
C2253 C 0.339 0.18207 0.25338 0.0
C2254 C 0.35167 0.1721 0.25829 0.0
H2255 H 0.36695 0.16806 0.31682 0.0
H2256 H 0.36261 0.17949 0.29717 0.0
H2257 H 0.34453 0.16018 0.30461 0.0
H2258 H 0.32203 0.13292 0.27479 0.0
H2259 H 0.29966 0.15063 0.26649 0.0
H2260 H 0.33908 0.15959 0.49153 0.0
H2261 H 0.36458 0.1454 0.49716 0.0
H2262 H 0.36929 0.16592 0.55189 0.0
H2263 H 0.34363 0.18048 0.54628 0.0
H2264 H 0.40451 0.16873 0.53616 0.0
H2265 H 0.35402 0.0952 0.52396 0.0
H2266 H 0.35339 0.11096 0.50662 0.0
H2267 H 0.34695 0.11711 0.52804 0.0
C2268 C 0.34577 0.16146 0.50472 0.0
C2269 C 0.3393 0.17106 0.5185 0.0
C2270 C 0.36028 0.15325 0.50792 0.0
C2271 C 0.36851 0.15424 0.52499 0.0
C2272 C 0.36299 0.16492 0.53863 0.0
H2273 H 0.4288 0.07043 0.55087 0.0
H2274 H 0.40791 0.09111 0.55135 0.0
C2275 C 0.34845 0.17333 0.5354 0.0
C2276 C 0.38194 0.14295 0.52852 0.0
H2277 H 0.38598 0.09653 0.52485 0.0
C2278 C 0.40048 0.15293 0.53388 0.0
C2279 C 0.37655 0.12232 0.52578 0.0
C2280 C 0.35661 0.11072 0.52094 0.0
C2281 C 0.41396 0.14282 0.53595 0.0
C2282 C 0.40874 0.12227 0.53226 0.0
C2283 C 0.39004 0.11229 0.52751 0.0
C2284 C 0.42237 0.11073 0.53295 0.0
C2285 C 0.4336 0.15425 0.54215 0.0
C2286 C 0.43745 0.11482 0.5224 0.0
C2287 C 0.44961 0.10316 0.52227 0.0
C2288 C 0.4468 0.08698 0.53252 0.0
C2289 C 0.43165 0.08295 0.54307 0.0
C2290 C 0.41958 0.09469 0.54326 0.0
H2291 H 0.43408 0.1683 0.54947 0.0
H2292 H 0.44025 0.14573 0.55076 0.0
H2293 H 0.44184 0.15769 0.53058 0.0
H2294 H 0.43964 0.1268 0.51398 0.0
H2295 H 0.46118 0.10682 0.5141 0.0
H2296 H 0.66826 0.59721 0.33898 0.0
H2297 H 0.68408 0.63239 0.3383 0.0
H2298 H 0.72746 0.61829 0.31036 0.0
H2299 H 0.71161 0.58354 0.31065 0.0
H2300 H 0.73845 0.64913 0.3413 0.0
H2301 H 0.68749 0.65872 0.28899 0.0
H2302 H 0.67935 0.64676 0.30834 0.0
H2303 H 0.69019 0.63489 0.29261 0.0
C2304 C 0.68132 0.6018 0.33297 0.0
C2305 C 0.68917 0.58794 0.32539 0.0
C2306 C 0.69027 0.62172 0.33258 0.0
C2307 C 0.70691 0.62771 0.32439 0.0
C2308 C 0.71472 0.61381 0.31691 0.0
H2309 H 0.78975 0.71049 0.28282 0.0
H2310 H 0.76788 0.68301 0.29498 0.0
C2311 C 0.70577 0.59405 0.3172 0.0
C2312 C 0.71592 0.64836 0.32236 0.0
H2313 H 0.71575 0.68349 0.29412 0.0
C2314 C 0.73331 0.65692 0.33136 0.0
C2315 C 0.70908 0.65828 0.30927 0.0
C2316 C 0.69052 0.64929 0.29914 0.0
C2317 C 0.74463 0.67477 0.32686 0.0
C2318 C 0.73835 0.68401 0.31294 0.0
C2319 C 0.72042 0.67618 0.30477 0.0
C2320 C 0.75101 0.70049 0.30539 0.0
C2321 C 0.76359 0.68315 0.3364 0.0
C2322 C 0.7484 0.71913 0.30706 0.0
C2323 C 0.76084 0.73471 0.30012 0.0
C2324 C 0.77569 0.73165 0.29124 0.0
C2325 C 0.77823 0.713 0.28953 0.0
C2326 C 0.76585 0.69743 0.29647 0.0
H2327 H 0.76446 0.6771 0.34939 0.0
H2328 H 0.77414 0.6794 0.32839 0.0
H2329 H 0.7671 0.69933 0.33836 0.0
H2330 H 0.73704 0.72165 0.31403 0.0
H2331 H 0.75929 0.74924 0.30223 0.0
H2332 H 0.89199 0.50095 0.79259 0.0
H2333 H 0.87485 0.46639 0.78746 0.0
H2334 H 0.92012 0.4509 0.81453 0.0
H2335 H 0.93677 0.48572 0.82064 0.0
H2336 H 0.88577 0.4387 0.76874 0.0
H2337 H 0.87602 0.41917 0.83761 0.0
H2338 H 0.88488 0.44397 0.83195 0.0
H2339 H 0.89984 0.42838 0.83272 0.0
C2340 C 0.89789 0.49014 0.79802 0.0
C2341 C 0.91518 0.49576 0.80769 0.0
C2342 C 0.88829 0.47047 0.79483 0.0
C2343 C 0.89615 0.45618 0.80083 0.0
C2344 C 0.91365 0.46178 0.8102 0.0
H2345 H 0.84738 0.33102 0.79511 0.0
H2346 H 0.86948 0.36363 0.79864 0.0
C2347 C 0.92313 0.48153 0.81364 0.0
C2348 C 0.88612 0.43545 0.79662 0.0
H2349 H 0.8649 0.39378 0.81528 0.0
C2350 C 0.88124 0.42879 0.77888 0.0
C2351 C 0.88057 0.42259 0.80989 0.0
C2352 C 0.88548 0.42886 0.82914 0.0
C2353 C 0.87061 0.40957 0.77404 0.0
C2354 C 0.86434 0.39701 0.78739 0.0
C2355 C 0.86968 0.40353 0.80508 0.0
C2356 C 0.85184 0.37716 0.78353 0.0
C2357 C 0.8664 0.40294 0.75475 0.0
C2358 C 0.83471 0.37404 0.77376 0.0
C2359 C 0.82235 0.35535 0.77137 0.0
C2360 C 0.82678 0.33994 0.77932 0.0
C2361 C 0.84378 0.34299 0.7891 0.0
C2362 C 0.85635 0.36147 0.79103 0.0
H2363 H 0.87716 0.4116 0.74674 0.0
H2364 H 0.86551 0.38723 0.75226 0.0
H2365 H 0.85291 0.40515 0.75019 0.0
H2366 H 0.83072 0.38608 0.76835 0.0
H2367 H 0.80918 0.35302 0.76379 0.0
H2368 H 0.0982 0.85878 0.12067 0.0
H2369 H 0.09681 0.89063 0.11086 0.0
H2370 H 0.04422 0.86271 0.08192 0.0
H2371 H 0.04533 0.83131 0.09152 0.0
H2372 H 0.0929 0.9011 0.07449 0.0
H2373 H 0.03409 0.90754 0.11256 0.0
H2374 H 0.04784 0.89126 0.11783 0.0
H2375 H 0.02992 0.88443 0.10009 0.0
C2376 C 0.0863 0.85949 0.11232 0.0
C2377 C 0.0719 0.84242 0.10693 0.0
C2378 C 0.08556 0.87766 0.10669 0.0
C2379 C 0.0703 0.87904 0.09584 0.0
C2380 C 0.05599 0.86206 0.09049 0.0
H2381 H 0.0281 0.96052 0.0404 0.0
H2382 H 0.03428 0.93257 0.05384 0.0
C2383 C 0.05675 0.84404 0.09597 0.0
C2384 C 0.06915 0.89799 0.08962 0.0
H2385 H 0.04125 0.92837 0.08911 0.0
C2386 C 0.08181 0.90729 0.07789 0.0
C2387 C 0.05456 0.9059 0.09395 0.0
C2388 C 0.04091 0.89688 0.10692 0.0
C2389 C 0.07982 0.92388 0.06982 0.0
C2390 C 0.06497 0.93153 0.07388 0.0
C2391 C 0.05259 0.92247 0.08595 0.0
C2392 C 0.06165 0.94858 0.0654 0.0
C2393 C 0.09312 0.93254 0.05646 0.0
C2394 C 0.07494 0.96694 0.06751 0.0
C2395 C 0.07146 0.983 0.05982 0.0
C2396 C 0.05458 0.98105 0.04991 0.0
C2397 C 0.0413 0.9626 0.04784 0.0
C2398 C 0.04478 0.94658 0.05557 0.0
H2399 H 0.10078 0.92225 0.05169 0.0
H2400 H 0.08567 0.93665 0.04499 0.0
H2401 H 0.10346 0.94595 0.06259 0.0
H2402 H 0.08791 0.96893 0.0753 0.0
H2403 H 0.08201 0.99696 0.0617 0.0
H2404 H 0.96477 0.2364 0.88161 0.0
H2405 H 0.93576 0.23317 0.86393 0.0
H2406 H 0.9282 0.28271 0.89472 0.0
H2407 H 0.9551 0.2831 0.91434 0.0
H2408 H 0.89783 0.2631 0.88684 0.0
H2409 H 0.92957 0.25918 0.82365 0.0
H2410 H 0.92587 0.23654 0.83373 0.0
H2411 H 0.94225 0.25826 0.84399 0.0
C2412 C 0.95673 0.24646 0.88456 0.0
C2413 C 0.96246 0.26056 0.89882 0.0
C2414 C 0.94027 0.24486 0.87426 0.0
C2415 C 0.93008 0.25844 0.87707 0.0
C2416 C 0.93568 0.27212 0.89184 0.0
H2417 H 0.8623 0.29334 0.79804 0.0
H2418 H 0.88651 0.28796 0.81814 0.0
C2419 C 0.95127 0.27262 0.90297 0.0
C2420 C 0.91356 0.25852 0.86505 0.0
H2421 H 0.89747 0.25677 0.82194 0.0
C2422 C 0.89804 0.262 0.87265 0.0
C2423 C 0.91316 0.25648 0.84635 0.0
C2424 C 0.92867 0.25256 0.83649 0.0
C2425 C 0.88291 0.26456 0.86238 0.0
C2426 C 0.88275 0.26277 0.84385 0.0
C2427 C 0.89772 0.2584 0.83617 0.0
C2428 C 0.8677 0.26615 0.83204 0.0
C2429 C 0.8676 0.26989 0.87161 0.0
C2430 C 0.84903 0.25562 0.83302 0.0
C2431 C 0.83509 0.25894 0.82172 0.0
C2432 C 0.83964 0.27249 0.80891 0.0
C2433 C 0.85836 0.28275 0.80773 0.0
C2434 C 0.87221 0.27968 0.81922 0.0
H2435 H 0.87231 0.27611 0.88532 0.0
H2436 H 0.86244 0.28067 0.86449 0.0
H2437 H 0.85588 0.25652 0.87221 0.0
H2438 H 0.84521 0.24466 0.84239 0.0
H2439 H 0.8208 0.25066 0.82281 0.0
H2440 H 0.58544 0.25253 0.58946 0.0
H2441 H 0.5819 0.21998 0.57544 0.0
H2442 H 0.56237 0.19468 0.62319 0.0
H2443 H 0.56356 0.22716 0.63622 0.0
H2444 H 0.59713 0.19435 0.58017 0.0
H2445 H 0.52379 0.15962 0.59164 0.0
H2446 H 0.53481 0.18496 0.59824 0.0
H2447 H 0.5376 0.16636 0.61215 0.0
C2448 C 0.57947 0.23989 0.59657 0.0
C2449 C 0.57348 0.24217 0.61338 0.0
C2450 C 0.57787 0.22128 0.58873 0.0
C2451 C 0.57118 0.20457 0.59795 0.0
C2452 C 0.56659 0.20707 0.61536 0.0
H2453 H 0.58558 0.091 0.56162 0.0
H2454 H 0.59028 0.1237 0.5762 0.0
C2455 C 0.56746 0.22566 0.6229 0.0
C2456 C 0.56974 0.18477 0.58947 0.0
H2457 H 0.54102 0.13823 0.58161 0.0
C2458 C 0.58474 0.18217 0.5804 0.0
C2459 C 0.55365 0.16866 0.58969 0.0
C2460 C 0.53651 0.17011 0.59831 0.0
C2461 C 0.58403 0.1642 0.57144 0.0
C2462 C 0.56814 0.14812 0.57204 0.0
C2463 C 0.55325 0.15057 0.58123 0.0
C2464 C 0.56616 0.12877 0.56263 0.0
C2465 C 0.60007 0.16281 0.561 0.0
C2466 C 0.55098 0.12067 0.55032 0.0
C2467 C 0.54817 0.10201 0.54213 0.0
C2468 C 0.56048 0.09094 0.54607 0.0
C2469 C 0.57591 0.09918 0.55819 0.0
C2470 C 0.57867 0.11791 0.56648 0.0
H2471 H 0.60872 0.17746 0.55805 0.0
H2472 H 0.60904 0.15583 0.56875 0.0
H2473 H 0.59508 0.15377 0.54842 0.0
H2474 H 0.54113 0.12875 0.54716 0.0
H2475 H 0.53615 0.09619 0.53286 0.0
H2476 H 0.54565 0.75 0.38029 0.0
H2477 H 0.57544 0.75292 0.36791 0.0
H2478 H 0.60271 0.79742 0.40896 0.0
H2479 H 0.5726 0.7946 0.42139 0.0
H2480 H 0.59833 0.79456 0.35895 0.0
H2481 H 0.63425 0.75467 0.40293 0.0
H2482 H 0.60918 0.74791 0.39997 0.0
H2483 H 0.62158 0.77056 0.41193 0.0
C2484 C 0.55806 0.76007 0.38689 0.0
C2485 C 0.55702 0.77196 0.40181 0.0
C2486 C 0.57501 0.76175 0.37981 0.0
C2487 C 0.59115 0.77536 0.38757 0.0
C2488 C 0.59034 0.78672 0.40296 0.0
H2489 H 0.69895 0.78856 0.34373 0.0
H2490 H 0.67556 0.79176 0.36384 0.0
C2491 C 0.57327 0.78502 0.41008 0.0
C2492 C 0.60833 0.7786 0.37844 0.0
H2493 H 0.64799 0.76461 0.37681 0.0
C2494 C 0.60937 0.78829 0.36295 0.0
C2495 C 0.62268 0.7706 0.38388 0.0
C2496 C 0.62204 0.76031 0.40059 0.0
C2497 C 0.62415 0.78956 0.35234 0.0
C2498 C 0.63789 0.78032 0.3571 0.0
C2499 C 0.63734 0.77151 0.3731 0.0
C2500 C 0.65212 0.77848 0.34506 0.0
C2501 C 0.62477 0.80066 0.33608 0.0
C2502 C 0.64665 0.76958 0.32799 0.0
C2503 C 0.6599 0.76775 0.31652 0.0
C2504 C 0.67892 0.77456 0.32195 0.0
C2505 C 0.68439 0.78307 0.3392 0.0
C2506 C 0.67108 0.785 0.35067 0.0
H2507 H 0.61764 0.81226 0.33765 0.0
H2508 H 0.63928 0.80751 0.33295 0.0
H2509 H 0.61745 0.79043 0.32476 0.0
H2510 H 0.63208 0.76388 0.32356 0.0
H2511 H 0.65523 0.76076 0.30345 0.0
H2512 H 0.04294 0.23007 0.44271 0.0
H2513 H 0.04195 0.20073 0.45833 0.0
H2514 H 0.04357 0.16882 0.40926 0.0
H2515 H 0.04404 0.19813 0.3935 0.0
H2516 H 0.01666 0.16225 0.45665 0.0
H2517 H 0.08525 0.15579 0.43955 0.0
H2518 H 0.07845 0.17789 0.4372 0.0
H2519 H 0.06989 0.15746 0.42114 0.0
C2520 C 0.04308 0.21688 0.43507 0.0
C2521 C 0.04362 0.21707 0.41653 0.0
C2522 C 0.04247 0.19981 0.44418 0.0
C2523 C 0.04289 0.18192 0.43541 0.0
C2524 C 0.04348 0.18207 0.41684 0.0
H2525 H 0.04568 0.06394 0.4718 0.0
H2526 H 0.04588 0.09229 0.45482 0.0
C2527 C 0.04365 0.19907 0.40765 0.0
C2528 C 0.04255 0.16347 0.44561 0.0
H2529 H 0.06704 0.13013 0.45459 0.0
C2530 C 0.02781 0.1554 0.45612 0.0
C2531 C 0.0568 0.1538 0.44538 0.0
C2532 C 0.07361 0.16168 0.43537 0.0
C2533 C 0.02675 0.13842 0.46569 0.0
C2534 C 0.04111 0.12884 0.46563 0.0
C2535 C 0.05584 0.13689 0.45505 0.0
C2536 C 0.04108 0.11082 0.4764 0.0
C2537 C 1.00968 0.13048 0.47535 0.0
C2538 C 0.03859 0.11086 0.49468 0.0
C2539 C 0.03863 0.09448 0.50457 0.0
C2540 C 0.04103 0.07687 0.49685 0.0
C2541 C 0.04357 0.0768 0.47857 0.0
C2542 C 0.04378 0.09333 0.4687 0.0
H2543 H 0.99769 0.13501 0.46979 0.0
H2544 H 1.00571 0.11426 0.47483 0.0
H2545 H 0.01254 0.13629 0.48933 0.0
H2546 H 0.03689 0.12383 0.50157 0.0
H2547 H 0.03678 0.09571 0.51849 0.0
H2548 H 0.58592 0.27388 0.20896 0.0
H2549 H 0.6159 0.27226 0.22263 0.0
H2550 H 0.64419 0.30484 0.18193 0.0
H2551 H 0.61407 0.30562 0.16773 0.0
H2552 H 0.64624 0.25659 0.2066 0.0
H2553 H 0.67261 0.33466 0.23087 0.0
H2554 H 0.64815 0.32271 0.22574 0.0
H2555 H 0.66313 0.32945 0.20833 0.0
C2556 C 0.59846 0.28082 0.20284 0.0
C2557 C 0.59704 0.29003 0.18705 0.0
C2558 C 0.61586 0.27981 0.21076 0.0
C2559 C 0.633 0.28854 0.20372 0.0
C2560 C 0.63163 0.29797 0.18805 0.0
H2561 H 0.75363 0.30786 0.24018 0.0
H2562 H 0.72363 0.30915 0.22658 0.0
C2563 C 0.61414 0.29842 0.17979 0.0
C2564 C 0.65194 0.28752 0.2125 0.0
H2565 H 0.69314 0.31547 0.23475 0.0
C2566 C 0.65638 0.26956 0.21278 0.0
C2567 C 0.66582 0.30414 0.22071 0.0
C2568 C 0.66231 0.32388 0.2216 0.0
C2569 C 0.67377 0.26787 0.22035 0.0
C2570 C 0.68763 0.28447 0.22885 0.0
C2571 C 0.6831 0.30246 0.22854 0.0
C2572 C 0.70669 0.28362 0.23775 0.0
C2573 C 0.67727 0.24813 0.21838 0.0
C2574 C 0.7083 0.26918 0.2493 0.0
C2575 C 0.7258 0.26842 0.25723 0.0
C2576 C 0.74284 0.28215 0.25425 0.0
C2577 C 0.74122 0.29681 0.243 0.0
C2578 C 0.72373 0.29759 0.2351 0.0
H2579 H 0.66882 0.23902 0.2069 0.0
H2580 H 0.69213 0.24951 0.2167 0.0
H2581 H 0.67325 0.2403 0.2303 0.0
H2582 H 0.6959 0.25842 0.2525 0.0
H2583 H 0.7259 0.25688 0.26577 0.0
H2584 H 0.53235 0.82107 0.92975 0.0
H2585 H 0.53115 0.85115 0.94651 0.0
H2586 H 0.57325 0.88503 0.91607 0.0
H2587 H 0.57337 0.85532 0.89863 0.0
H2588 H 0.5491 0.87833 0.96807 0.0
H2589 H 0.54428 0.92077 0.91099 0.0
H2590 H 0.54304 0.89526 0.90827 0.0
H2591 H 0.56526 0.91363 0.9118 0.0
C2592 C 0.54146 0.8349 0.92661 0.0
C2593 C 0.55302 0.8352 0.91255 0.0
C2594 C 0.54071 0.85245 0.9363 0.0
C2595 C 0.5516 0.87136 0.93263 0.0
C2596 C 0.56378 0.87141 0.9191 0.0
H2597 H 0.56546 0.99598 0.97597 0.0
H2598 H 0.56723 0.96582 0.95973 0.0
C2599 C 0.56415 0.854 0.90915 0.0
C2600 C 0.55046 0.89057 0.94299 0.0
H2601 H 0.54995 0.93851 0.93879 0.0
C2602 C 0.54917 0.89134 0.96144 0.0
C2603 C 0.55059 0.90832 0.93508 0.0
C2604 C 0.55068 0.90944 0.91544 0.0
C2605 C 0.54855 0.90856 0.97181 0.0
C2606 C 0.54865 0.92631 0.9639 0.0
C2607 C 0.54992 0.92553 0.94544 0.0
C2608 C 0.5475 0.94555 0.97424 0.0
C2609 C 0.54857 0.90743 0.99145 0.0
C2610 C 0.53562 0.9455 0.98804 0.0
C2611 C 0.53508 0.96296 0.9978 0.0
C2612 C 0.54572 0.98178 0.99394 0.0
C2613 C 0.55697 0.98208 0.97964 0.0
C2614 C 0.55795 0.9645 0.97019 0.0
H2615 H 0.55506 0.89615 0.99585 0.0
H2616 H 0.55619 0.92162 0.99862 0.0
H2617 H 0.53402 0.90313 0.99516 0.0
H2618 H 0.52637 0.93187 0.99133 0.0
H2619 H 0.5259 0.96167 0.00835 0.0
H2620 H 0.98099 0.75688 0.68414 0.0
H2621 H 0.95092 0.75433 0.6969 0.0
H2622 H 0.96982 0.81532 0.71452 0.0
H2623 H 0.99946 0.81786 0.7021 0.0
H2624 H 0.93863 0.75937 0.73049 0.0
H2625 H 0.92022 0.81543 0.69264 0.0
H2626 H 0.93894 0.8055 0.68716 0.0
H2627 H 0.94254 0.82459 0.70458 0.0
C2628 C 0.97878 0.76991 0.69048 0.0
C2629 C 0.99336 0.78772 0.69154 0.0
C2630 C 0.96129 0.7684 0.69805 0.0
C2631 C 0.95708 0.78467 0.70682 0.0
C2632 C 0.97167 0.80235 0.70775 0.0
H2633 H 0.86226 0.81219 0.7615 0.0
H2634 H 0.89111 0.81234 0.74789 0.0
C2635 C 0.98909 0.80378 0.70051 0.0
C2636 C 0.93803 0.78343 0.71509 0.0
H2637 H 0.90241 0.80562 0.71694 0.0
C2638 C 0.93077 0.76947 0.72725 0.0
C2639 C 0.92697 0.79639 0.71155 0.0
C2640 C 0.93241 0.8112 0.69816 0.0
C2641 C 0.91397 0.76853 0.73589 0.0
C2642 C 0.90292 0.78153 0.73236 0.0
C2643 C 0.91017 0.79542 0.72014 0.0
C2644 C 0.8843 0.78117 0.74117 0.0
C2645 C 0.90871 0.75393 0.74948 0.0
C2646 C 0.86956 0.7638 0.74233 0.0
C2647 C 0.8526 0.76371 0.75019 0.0
C2648 C 0.84916 0.78098 0.75758 0.0
C2649 C 0.86384 0.79835 0.75636 0.0
C2650 C 0.88068 0.79846 0.74833 0.0
H2651 H 0.92093 0.74968 0.75487 0.0
H2652 H 0.90244 0.75984 0.76055 0.0
H2653 H 0.89844 0.74052 0.74327 0.0
H2654 H 0.87088 0.75003 0.73677 0.0
H2655 H 0.84205 0.74988 0.7504 0.0
H2656 H 0.12283 0.02469 0.85159 0.0
H2657 H 0.10248 0.01899 0.87553 0.0
H2658 H 0.14755 0.013 0.91029 0.0
H2659 H 0.16831 0.01937 0.88654 0.0
H2660 H 0.09136 0.9892 0.8964 0.0
H2661 H 0.13257 0.05705 0.93526 0.0
H2662 H 0.13629 0.05159 0.91266 0.0
H2663 H 0.14615 0.04076 0.93005 0.0
C2664 C 0.1284 0.02197 0.86428 0.0
C2665 C 0.1472 0.02266 0.8673 0.0
C2666 C 0.11675 0.01872 0.8779 0.0
C2667 C 0.12371 0.016 0.89463 0.0
C2668 C 0.14216 0.01558 0.89748 0.0
H2669 H 0.08359 1.00371 0.99602 0.0
H2670 H 0.09882 1.00066 0.96911 0.0
C2671 C 0.15393 0.01912 0.88393 0.0
C2672 C 0.11185 0.01439 0.90928 0.0
H2673 H 0.10919 0.03534 0.94978 0.0
C2674 C 0.09517 0.99927 0.90809 0.0
C2675 C 0.11682 0.0279 0.92422 0.0
C2676 C 0.13383 0.04536 0.92557 0.0
C2677 C 0.08355 0.99687 0.9219 0.0
C2678 C 0.08899 0.00985 0.93709 0.0
C2679 C 0.1054 0.02523 0.9381 0.0
C2680 C 0.07798 0.00799 0.9523 0.0
C2681 C 0.06577 0.9804 0.92035 0.0
C2682 C 0.06111 0.01266 0.95141 0.0
C2683 C 0.05246 0.01451 0.96673 0.0
C2684 C 0.06084 0.01197 0.98298 0.0
C2685 C 0.07715 1.00615 0.98365 0.0
C2686 C 0.08572 1.00422 0.96835 0.0
H2687 H 0.06517 0.96973 0.909 0.0
H2688 H 0.06424 0.9726 0.93257 0.0
H2689 H 0.05381 0.98651 0.91852 0.0
H2690 H 0.05522 0.01594 0.93908 0.0
H2691 H 0.03988 0.01908 0.96598 0.0
H2692 H 0.78963 0.36553 0.54424 0.0
H2693 H 0.79837 0.35409 0.57207 0.0
H2694 H 0.82108 0.41369 0.59376 0.0
H2695 H 0.81249 0.4254 0.56591 0.0
H2696 H 0.83946 0.36915 0.58716 0.0
H2697 H 0.78603 0.38088 0.63083 0.0
H2698 H 0.78136 0.37676 0.60723 0.0
H2699 H 0.79644 0.39963 0.61671 0.0
C2700 C 0.79607 0.37623 0.55505 0.0
C2701 C 0.8004 0.39636 0.55293 0.0
C2702 C 0.80112 0.36966 0.57085 0.0
C2703 C 0.81035 0.38312 0.58476 0.0
C2704 C 0.81386 0.40319 0.58307 0.0
H2705 H 0.84353 0.35586 0.6886 0.0
H2706 H 0.84053 0.3744 0.66321 0.0
C2707 C 0.80889 0.4098 0.56722 0.0
C2708 C 0.81743 0.37607 0.60057 0.0
H2709 H 0.80831 0.3669 0.64278 0.0
C2710 C 0.83279 0.36875 0.5994 0.0
C2711 C 0.80874 0.37589 0.61641 0.0
C2712 C 0.79217 0.38364 0.61802 0.0
C2713 C 0.83954 0.3608 0.61377 0.0
C2714 C 0.83034 0.35982 0.62943 0.0
C2715 C 0.81532 0.36773 0.63072 0.0
C2716 C 0.83507 0.3494 0.64422 0.0
C2717 C 0.85637 0.35349 0.61205 0.0
C2718 C 0.8333 0.32934 0.64179 0.0
C2719 C 0.83503 0.31877 0.65621 0.0
C2720 C 0.83829 0.32811 0.67324 0.0
C2721 C 0.84085 0.34835 0.67557 0.0
C2722 C 0.83921 0.35893 0.66114 0.0
H2723 H 0.86515 0.36099 0.6019 0.0
H2724 H 0.86494 0.35571 0.62473 0.0
H2725 H 0.85176 0.33762 0.60793 0.0
H2726 H 0.82964 0.32167 0.62886 0.0
H2727 H 0.83276 0.30313 0.65413 0.0
H2728 H 0.4723 0.0314 0.34585 0.0
H2729 H 0.49491 0.03658 0.37121 0.0
H2730 H 0.47193 0.08036 0.39452 0.0
H2731 H 0.4484 0.07412 0.36956 0.0
H2732 H 0.52164 0.06662 0.38486 0.0
H2733 H 0.46847 0.04457 0.4329 0.0
H2734 H 0.46266 0.04164 0.40952 0.0
H2735 H 0.46613 0.06504 0.42146 0.0
C2736 C 0.47214 0.04208 0.35647 0.0
C2737 C 0.45875 0.0523 0.35611 0.0
C2738 C 0.48504 0.0451 0.37083 0.0
C2739 C 0.48486 0.05865 0.38478 0.0
C2740 C 0.4719 0.06947 0.38405 0.0
H2741 H 0.54764 0.08141 0.48547 0.0
H2742 H 0.53719 0.08899 0.45636 0.0
C2743 C 0.45859 0.066 0.36989 0.0
C2744 C 0.49784 0.06078 0.40033 0.0
H2745 H 0.4996 0.05643 0.44444 0.0
C2746 C 0.51687 0.06455 0.39792 0.0
C2747 C 0.49143 0.05767 0.41724 0.0
C2748 C 0.47105 0.05179 0.42044 0.0
C2749 C 0.52966 0.06507 0.41209 0.0
C2750 C 0.52322 0.06234 0.4289 0.0
C2751 C 0.50435 0.059 0.43141 0.0
C2752 C 0.53518 0.0604 0.44396 0.0
C2753 C 0.54982 0.06795 0.40906 0.0
C2754 C 0.53786 0.04204 0.44616 0.0
C2755 C 0.54338 0.03762 0.46269 0.0
C2756 C 0.54652 0.05169 0.4769 0.0
C2757 C 0.54549 0.0706 0.47441 0.0
C2758 C 0.53965 0.07492 0.45791 0.0
H2759 H 0.553 0.07228 0.39561 0.0
H2760 H 0.55875 0.07928 0.41886 0.0
H2761 H 0.55337 0.05408 0.41092 0.0
H2762 H 0.53402 0.03061 0.43551 0.0
H2763 H 0.54397 0.0229 0.46464 0.0
H2764 H 0.78532 0.68684 0.0836 0.0
H2765 H 0.78419 0.69734 0.11442 0.0
H2766 H 0.80901 0.75718 0.10367 0.0
H2767 H 0.80977 0.74674 0.07259 0.0
H2768 H 0.80977 0.71451 0.13998 0.0
H2769 H 0.76548 0.76349 0.12885 0.0
H2770 H 0.76928 0.74706 0.11158 0.0
H2771 H 0.78643 0.77007 0.11769 0.0
C2772 C 0.79058 0.70227 0.08772 0.0
C2773 C 0.7976 0.71591 0.07543 0.0
C2774 C 0.78991 0.70829 0.10547 0.0
C2775 C 0.79617 0.72817 0.11158 0.0
C2776 C 0.80359 0.74181 0.0994 0.0
H2777 H 0.8215 0.76846 0.22367 0.0
H2778 H 0.82257 0.75909 0.19264 0.0
C2779 C 0.80421 0.73579 0.08157 0.0
C2780 C 0.79513 0.73436 0.13067 0.0
H2781 H 0.77868 0.76446 0.15804 0.0
C2782 C 0.80294 0.72544 0.14385 0.0
C2783 C 0.78594 0.74836 0.13603 0.0
C2784 C 0.77613 0.75767 0.12282 0.0
C2785 C 0.80211 0.73026 0.16194 0.0
C2786 C 0.79356 0.74481 0.16731 0.0
C2787 C 0.78545 0.75349 0.15414 0.0
C2788 C 0.79284 0.75107 0.18643 0.0
C2789 C 0.81002 0.71926 0.17514 0.0
C2790 C 0.77583 0.75048 0.19354 0.0
C2791 C 0.77516 0.75607 0.21145 0.0
C2792 C 0.79151 0.76247 0.22284 0.0
C2793 C 0.80853 0.76335 0.21557 0.0
C2794 C 0.80917 0.75786 0.19769 0.0
H2795 H 0.81074 0.70494 0.16922 0.0
H2796 H 0.82435 0.72797 0.1798 0.0
H2797 H 0.80157 0.71664 0.18667 0.0
H2798 H 0.76298 0.74545 0.18525 0.0
H2799 H 0.76178 0.75524 0.21638 0.0
H2800 H 0.16923 0.04007 0.75688 0.0
H2801 H 0.15376 0.04205 0.72825 0.0
H2802 H 0.10119 0.01014 0.74585 0.0
H2803 H 0.11644 0.00796 0.77447 0.0
H2804 H 0.12431 0.00842 0.70332 0.0
H2805 H 0.1015 0.06958 0.73433 0.0
H2806 H 0.12169 0.06316 0.74302 0.0
H2807 H 0.09889 0.04779 0.74585 0.0
C2808 C 0.15446 0.03306 0.75451 0.0
C2809 C 0.14398 0.02402 0.76791 0.0
C2810 C 0.1457 0.0342 0.7382 0.0
C2811 C 0.12644 0.02636 0.7352 0.0
C2812 C 0.11611 0.01626 0.74811 0.0
H2813 H 0.04849 0.04223 0.65358 0.0
H2814 H 0.06303 0.03504 0.68094 0.0
C2815 C 0.12485 0.01504 0.76439 0.0
C2816 C 0.11688 0.03044 0.71928 0.0
H2817 H 0.09206 0.06032 0.70443 0.0
C2818 C 0.11722 0.01971 0.70347 0.0
C2819 C 0.1077 0.04518 0.71979 0.0
C2820 C 0.10741 0.05723 0.73661 0.0
C2821 C 0.10841 0.02335 0.68793 0.0
C2822 C 0.09946 0.03831 0.68838 0.0
C2823 C 0.09898 0.04889 0.70426 0.0
C2824 C 0.09087 0.04349 0.67235 0.0
C2825 C 0.10855 0.01107 0.67122 0.0
C2826 C 0.10191 0.05117 0.6589 0.0
C2827 C 0.09373 0.05539 0.64341 0.0
C2828 C 0.07439 0.05205 0.64121 0.0
C2829 C 0.06344 0.04507 0.65502 0.0
C2830 C 0.07167 0.04084 0.67054 0.0
H2831 H 0.11192 0.99729 0.67394 0.0
H2832 H 0.09489 0.00739 0.66349 0.0
H2833 H 0.11924 0.01946 0.66302 0.0
H2834 H 0.11683 0.05371 0.66033 0.0
H2835 H 0.10249 0.06108 0.63305 0.0
H2836 H 0.79006 0.40966 0.43349 0.0
H2837 H 0.7874 0.38677 0.40798 0.0
H2838 H 0.79311 0.34222 0.44182 0.0
H2839 H 0.79564 0.36501 0.46765 0.0
H2840 H 0.81615 0.36857 0.40079 0.0
H2841 H 0.74722 0.31509 0.40675 0.0
H2842 H 0.75376 0.33928 0.41794 0.0
H2843 H 0.76371 0.32094 0.42571 0.0
C2844 C 0.79049 0.39493 0.43559 0.0
C2845 C 0.79307 0.38914 0.45259 0.0
C2846 C 0.78899 0.38191 0.421 0.0
C2847 C 0.78999 0.36291 0.42314 0.0
C2848 C 0.79207 0.35681 0.44003 0.0
H2849 H 0.78817 0.27647 0.33732 0.0
H2850 H 0.78861 0.29207 0.36667 0.0
C2851 C 0.79353 0.36985 0.45472 0.0
C2852 C 0.78993 0.35006 0.40747 0.0
H2853 H 0.76298 0.31057 0.38183 0.0
C2854 C 0.80462 0.35578 0.39668 0.0
C2855 C 0.77495 0.33332 0.40241 0.0
C2856 C 0.75892 0.32674 0.41371 0.0
C2857 C 0.8044 0.34555 0.38051 0.0
C2858 C 0.78892 0.32947 0.37499 0.0
C2859 C 0.77467 0.32312 0.38615 0.0
C2860 C 0.78706 0.3196 0.35735 0.0
C2861 C 0.82061 0.35211 0.36938 0.0
C2862 C 0.78539 0.32984 0.34254 0.0
C2863 C 0.78512 0.32103 0.32576 0.0
C2864 C 0.78645 0.30185 0.32364 0.0
C2865 C 0.78718 0.29131 0.33853 0.0
C2866 C 0.78746 0.30016 0.3553 0.0
H2867 H 0.83322 0.36123 0.37733 0.0
H2868 H 0.82391 0.33936 0.36278 0.0
H2869 H 0.81698 0.36102 0.35907 0.0
H2870 H 0.7847 0.34479 0.344 0.0
H2871 H 0.78429 0.3294 0.31453 0.0
H2872 H 0.47636 0.08182 0.26454 0.0
H2873 H 0.49222 0.08165 0.23746 0.0
H2874 H 0.45382 0.02557 0.21987 0.0
H2875 H 0.43734 0.02633 0.24623 0.0
H2876 H 0.51016 0.05675 0.22911 0.0
H2877 H 0.45598 0.05088 0.17536 0.0
H2878 H 0.45262 0.05711 0.19791 0.0
H2879 H 0.44847 0.03189 0.18983 0.0
C2880 C 0.47099 0.06985 0.25454 0.0
C2881 C 0.45561 0.05419 0.25724 0.0
C2882 C 0.48005 0.06971 0.23918 0.0
C2883 C 0.47401 0.05374 0.22658 0.0
C2884 C 0.45831 0.03836 0.22911 0.0
H2885 H 0.51651 0.99742 0.14693 0.0
H2886 H 0.50861 0.00817 0.17563 0.0
C2887 C 0.44895 0.03876 0.24421 0.0
C2888 C 0.48528 0.05201 0.21182 0.0
H2889 H 0.4822 0.03962 0.16783 0.0
C2890 C 0.50413 0.05339 0.21565 0.0
C2891 C 0.47736 0.0476 0.1943 0.0
C2892 C 0.45753 0.04699 0.18912 0.0
C2893 C 0.5151 0.04972 0.20245 0.0
C2894 C 0.50686 0.04437 0.18525 0.0
C2895 C 0.48827 0.04359 0.18124 0.0
C2896 C 0.51694 0.03886 0.17102 0.0
C2897 C 0.53521 0.05108 0.20687 0.0
C2898 C 0.52496 0.05279 0.15954 0.0
C2899 C 0.52961 0.04674 0.14324 0.0
C2900 C 0.52593 0.0267 0.13823 0.0
C2901 C 0.51955 0.01294 0.15049 0.0
C2902 C 0.51502 0.01903 0.16684 0.0
H2903 H 0.53973 0.0562 0.22086 0.0
H2904 H 0.53745 0.0365 0.20416 0.0
H2905 H 0.54403 0.06129 0.19834 0.0
H2906 H 0.52634 0.06814 0.16266 0.0
H2907 H 0.53482 0.05763 0.13408 0.0
H2908 H 0.82655 0.71474 0.96834 0.0
H2909 H 0.82971 0.72812 0.93945 0.0
H2910 H 0.77354 0.73214 0.93888 0.0
H2911 H 0.77069 0.71933 0.96801 0.0
H2912 H 0.81209 0.71269 0.90925 0.0
H2913 H 0.79756 0.7838 0.92122 0.0
H2914 H 0.80203 0.76971 0.93893 0.0
H2915 H 0.77927 0.76389 0.92754 0.0
C2916 C 0.81518 0.71931 0.96237 0.0
C2917 C 0.79865 0.71676 0.97083 0.0
C2918 C 0.81688 0.72671 0.94568 0.0
C2919 C 0.80199 0.73154 0.93682 0.0
C2920 C 0.78552 0.72922 0.94544 0.0
H2921 H 0.78699 0.73367 0.82197 0.0
H2922 H 0.78694 0.7248 0.85238 0.0
C2923 C 0.78389 0.72195 0.96221 0.0
C2924 C 0.80329 0.73758 0.91819 0.0
H2925 H 0.79663 0.77212 0.89114 0.0
C2926 C 0.80879 0.72577 0.90539 0.0
C2927 C 0.79925 0.75476 0.91288 0.0
C2928 C 0.79439 0.76888 0.9259 0.0
C2929 C 0.81002 0.73038 0.88768 0.0
C2930 C 0.80524 0.74711 0.88222 0.0
C2931 C 0.80011 0.75915 0.89507 0.0
C2932 C 0.80559 0.75241 0.86336 0.0
C2933 C 0.81687 0.71742 0.87505 0.0
C2934 C 0.81581 0.77106 0.85906 0.0
C2935 C 0.81579 0.77625 0.84155 0.0
C2936 C 0.80548 0.76296 0.82774 0.0
C2937 C 0.79535 0.74426 0.83207 0.0
C2938 C 0.79534 0.73911 0.84958 0.0
H2939 H 0.82521 0.70917 0.88207 0.0
H2940 H 0.80477 0.70664 0.86777 0.0
H2941 H 0.82549 0.72606 0.86538 0.0
H2942 H 0.8238 0.78171 0.8693 0.0
H2943 H 0.82362 0.79086 0.83892 0.0
H2944 H 0.84615 0.14629 0.03428 0.0
H2945 H 0.87194 0.1329 0.02756 0.0
H2946 H 0.83969 0.07593 0.04034 0.0
H2947 H 0.81392 0.089 0.04659 0.0
H2948 H 0.89208 0.11 0.046 0.0
H2949 H 0.84794 0.06935 0.98754 0.0
H2950 H 0.84265 0.0892 0.99987 0.0
H2951 H 0.8369 0.06513 0.00772 0.0
C2952 C 0.84488 0.13106 0.03612 0.0
C2953 C 0.82816 0.11851 0.04067 0.0
C2954 C 0.85947 0.12347 0.03221 0.0
C2955 C 0.85726 0.10343 0.03301 0.0
C2956 C 0.84128 0.09136 0.03927 0.0
H2957 H 0.91016 0.01648 0.02058 0.0
H2958 H 0.88869 0.03649 0.02234 0.0
C2959 C 0.82669 0.09884 0.04291 0.0
C2960 C 0.87087 0.09456 0.02604 0.0
H2961 H 0.87464 0.05904 0.99602 0.0
C2962 C 0.88851 0.09913 0.03488 0.0
C2963 C 0.86593 0.08054 0.01144 0.0
C2964 C 0.84737 0.07589 1.00098 0.0
C2965 C 0.90112 0.08903 0.03012 0.0
C2966 C 0.8958 0.07433 0.01609 0.0
C2967 C 0.87848 0.07039 0.00675 0.0
C2968 C 0.90736 0.06159 0.0121 0.0
C2969 C 0.91962 0.0934 0.04063 0.0
C2970 C 0.92436 0.06901 0.00497 0.0
C2971 C 0.93654 0.05762 1.00382 0.0
C2972 C 0.93173 0.03878 0.00985 0.0
C2973 C 0.91408 0.03091 0.01576 0.0
C2974 C 0.90191 0.04231 0.01686 0.0
H2975 H 0.92051 0.10346 0.0525 0.0
H2976 H 0.92213 0.07966 0.0448 0.0
H2977 H 0.93086 0.10031 0.03229 0.0
H2978 H 0.9285 0.08384 1.00103 0.0
H2979 H 0.95002 0.06381 0.99896 0.0
H2980 H 0.33924 0.41564 0.04614 0.0
H2981 H 0.37041 0.43772 0.04603 0.0
H2982 H 0.38876 0.39056 0.02256 0.0
H2983 H 0.35667 0.36936 0.0203 0.0
H2984 H 0.40117 0.44187 0.05965 0.0
H2985 H 0.40874 0.42722 0.98904 0.0
H2986 H 0.3889 0.41332 0.99917 0.0
H2987 H 0.41017 0.40668 1.00083 0.0
C2988 C 0.34981 0.41031 0.04024 0.0
C2989 C 0.34535 0.39141 0.03191 0.0
C2990 C 0.36778 0.42279 0.04056 0.0
C2991 C 0.382 0.41626 0.03344 0.0
C2992 C 0.37793 0.39647 0.0271 0.0
H2993 H 0.49725 0.47116 0.02253 0.0
H2994 H 0.46662 0.44965 0.02559 0.0
C2995 C 0.35966 0.38425 0.026 0.0
C2996 C 0.40083 0.43033 0.03283 0.0
H2997 H 0.4356 0.44756 0.006 0.0
C2998 C 0.40854 0.44316 0.0478 0.0
C2999 C 0.41084 0.43206 0.01751 0.0
C3000 C 0.40412 0.41917 1.00074 0.0
C3001 C 0.42576 0.45743 0.04792 0.0
C3002 C 0.4355 0.45913 0.03259 0.0
C3003 C 0.42796 0.44636 0.01769 0.0
C3004 C 0.45427 0.47289 0.03193 0.0
C3005 C 0.43361 0.47017 0.06458 0.0
C3006 C 0.45763 0.49327 0.03458 0.0
C3007 C 0.47542 0.50584 0.03296 0.0
C3008 C 0.48994 0.49813 0.02841 0.0
C3009 C 0.48641 0.47771 0.02587 0.0
C3010 C 0.46886 0.4653 0.02766 0.0
H3011 H 0.42646 0.46417 0.07622 0.0
H3012 H 0.44869 0.47182 0.06701 0.0
H3013 H 0.43179 0.48492 0.06324 0.0
H3014 H 0.44647 0.49947 0.03758 0.0
H3015 H 0.47774 0.52149 0.035 0.0
H3016 H 0.40516 0.57748 0.72468 0.0
H3017 H 0.39156 0.60493 0.72708 0.0
H3018 H 0.39127 0.60121 0.78325 0.0
H3019 H 0.40463 0.57386 0.7809 0.0
H3020 H 0.35628 0.59581 0.74116 0.0
H3021 H 0.40581 0.66046 0.77788 0.0
H3022 H 0.41321 0.64176 0.76588 0.0
H3023 H 0.40493 0.63783 0.78735 0.0
C3024 C 0.40288 0.58314 0.73756 0.0
C3025 C 0.40576 0.57375 0.75262 0.0
C3026 C 0.39514 0.5987 0.73891 0.0
C3027 C 0.3907 0.60508 0.75535 0.0
C3028 C 0.39502 0.59669 0.77053 0.0
H3029 H 0.31638 0.65959 0.80227 0.0
H3030 H 0.33767 0.64025 0.7948 0.0
C3031 C 0.40247 0.58103 0.76917 0.0
C3032 C 0.3783 0.61753 0.75648 0.0
H3033 H 0.37335 0.65826 0.77858 0.0
C3034 C 0.36006 0.6097 0.74898 0.0
C3035 C 0.38337 0.63537 0.76697 0.0
C3036 C 0.40296 0.64445 0.77487 0.0
C3037 C 0.34644 0.61896 0.75235 0.0
C3038 C 0.35139 0.63647 0.76328 0.0
C3039 C 0.36973 0.64465 0.77033 0.0
C3040 C 0.33768 0.64665 0.76745 0.0
C3041 C 0.32672 0.60961 0.74485 0.0
C3042 C 0.33071 0.65621 0.7544 0.0
C3043 C 0.31871 0.66712 0.75862 0.0
C3044 C 0.31356 0.66844 0.77589 0.0
C3045 C 0.32005 0.65837 0.78884 0.0
C3046 C 0.33222 0.64756 0.78464 0.0
H3047 H 0.32461 0.59437 0.73926 0.0
H3048 H 0.31686 0.6095 0.75514 0.0
H3049 H 0.3233 0.61827 0.73423 0.0
H3050 H 0.33502 0.6557 0.74114 0.0
H3051 H 0.31388 0.67503 0.74856 0.0
H3052 H 0.23159 0.6441 0.53 0.0
H3053 H 0.20065 0.62249 0.53333 0.0
H3054 H 0.22318 0.5968 0.57613 0.0
H3055 H 0.25428 0.61677 0.57122 0.0
H3056 H 0.20384 0.56982 0.55704 0.0
H3057 H 0.16141 0.62028 0.56439 0.0
H3058 H 0.17286 0.62576 0.5447 0.0
H3059 H 0.18641 0.62911 0.5656 0.0
C3060 C 0.22971 0.63389 0.54014 0.0
C3061 C 0.24492 0.63153 0.55011 0.0
C3062 C 0.21208 0.62185 0.54233 0.0
C3063 C 0.20953 0.6083 0.55528 0.0
C3064 C 0.22481 0.6071 0.56607 0.0
H3065 H 0.10246 0.52345 0.56008 0.0
H3066 H 0.1357 0.53806 0.56736 0.0
C3067 C 0.24247 0.61845 0.5633 0.0
C3068 C 0.19148 0.59369 0.55588 0.0
H3069 H 0.14521 0.58807 0.54918 0.0
C3070 C 0.19104 0.57385 0.55542 0.0
C3071 C 0.17471 0.59889 0.55481 0.0
C3072 C 0.17395 0.61971 0.55764 0.0
C3073 C 0.17437 0.55912 0.55163 0.0
C3074 C 0.15802 0.56458 0.54856 0.0
C3075 C 0.15813 0.58419 0.55087 0.0
C3076 C 0.14049 0.55049 0.54233 0.0
C3077 C 0.17438 0.53801 0.54982 0.0
C3078 C 0.13272 0.55206 0.52557 0.0
C3079 C 0.11379 0.54423 0.52156 0.0
C3080 C 0.10273 0.53459 0.53424 0.0
C3081 C 0.11089 0.53092 0.55017 0.0
C3082 C 0.1298 0.53909 0.5543 0.0
H3083 H 0.18833 0.53619 0.55324 0.0
H3084 H 0.16444 0.52937 0.55852 0.0
H3085 H 0.16973 0.53191 0.53608 0.0
H3086 H 0.14098 0.56092 0.51627 0.0
H3087 H 0.10765 0.5469 0.5091 0.0
H3088 H 0.6692 0.97139 0.79368 0.0
H3089 H 0.68372 0.94497 0.79453 0.0
H3090 H 0.68157 0.94004 0.73784 0.0
H3091 H 0.66717 0.96679 0.7369 0.0
H3092 H 0.68051 0.90626 0.77841 0.0
H3093 H 0.73692 0.96712 0.75629 0.0
H3094 H 0.7157 0.97078 0.7636 0.0
H3095 H 0.7158 0.95896 0.74222 0.0
C3096 C 0.67108 0.96407 0.78139 0.0
C3097 C 0.66754 0.97121 0.76525 0.0
C3098 C 0.67926 0.94897 0.78189 0.0
C3099 C 0.68393 0.94103 0.76625 0.0
C3100 C 0.67806 0.94626 0.74998 0.0
H3101 H 0.77328 0.88876 0.75847 0.0
H3102 H 0.74818 0.90346 0.75227 0.0
C3103 C 0.66981 0.96141 0.74947 0.0
C3104 C 0.69838 0.93108 0.76743 0.0
H3105 H 0.74489 0.93947 0.76463 0.0
C3106 C 0.69454 0.91326 0.77515 0.0
C3107 C 0.71667 0.94074 0.7635 0.0
C3108 C 0.72166 0.96052 0.75607 0.0
C3109 C 0.70871 0.90472 0.77911 0.0
C3110 C 0.727 0.91457 0.77547 0.0
C3111 C 0.73076 0.93216 0.76742 0.0
C3112 C 0.74255 0.90673 0.77956 0.0
C3113 C 0.70405 0.88533 0.78718 0.0
C3114 C 0.74796 0.90461 0.79702 0.0
C3115 C 0.76229 0.89625 0.80059 0.0
C3116 C 0.77121 0.89014 0.78669 0.0
C3117 C 0.76643 0.89337 0.76933 0.0
C3118 C 0.75213 0.9016 0.76578 0.0
H3119 H 0.68894 0.87769 0.78533 0.0
H3120 H 0.7118 0.87567 0.78138 0.0
H3121 H 0.70807 0.88784 0.80151 0.0
H3122 H 0.74086 0.909 0.80777 0.0
H3123 H 0.76575 0.89368 0.81403 0.0
H3124 H 0.74043 0.88346 0.49753 0.0
H3125 H 0.71573 0.89963 0.49889 0.0
H3126 H 0.72587 0.9084 0.5553 0.0
H3127 H 0.75045 0.89186 0.554 0.0
H3128 H 0.6821 0.89339 0.52335 0.0
H3129 H 0.73758 0.96442 0.53108 0.0
H3130 H 0.74135 0.94242 0.52115 0.0
H3131 H 0.74011 0.94523 0.54447 0.0
C3132 C 0.73681 0.8881 0.51026 0.0
C3133 C 0.74698 0.88607 0.5257 0.0
C3134 C 0.72286 0.89745 0.51101 0.0
C3135 C 0.71913 0.90524 0.52717 0.0
C3136 C 0.72857 0.90236 0.54273 0.0
H3137 H 0.65994 0.99028 0.55166 0.0
H3138 H 0.67956 0.96819 0.55241 0.0
C3139 C 0.74239 0.89273 0.54201 0.0
C3140 C 0.7066 0.91785 0.52751 0.0
H3141 H 0.7067 0.9657 0.53071 0.0
C3142 C 0.6874 0.90919 0.52504 0.0
C3143 C 0.71369 0.93842 0.52954 0.0
C3144 C 0.73431 0.94832 0.53163 0.0
C3145 C 0.67498 0.92066 0.52484 0.0
C3146 C 0.68206 0.94128 0.5268 0.0
C3147 C 0.70132 0.94989 0.52926 0.0
C3148 C 0.66977 0.95425 0.52637 0.0
C3149 C 0.65441 0.91057 0.52284 0.0
C3150 C 0.65792 0.95387 0.5114 0.0
C3151 C 0.64656 0.96634 0.51099 0.0
C3152 C 0.64697 0.97956 0.5255 0.0
C3153 C 0.65902 0.98003 0.5404 0.0
C3154 C 0.67034 0.96752 0.54081 0.0
H3155 H 0.65127 0.89514 0.52626 0.0
H3156 H 0.64676 0.91832 0.53128 0.0
H3157 H 0.64917 0.91051 0.50895 0.0
H3158 H 0.65756 0.94404 0.49997 0.0
H3159 H 0.63738 0.96555 0.49935 0.0
H3160 H 0.42193 0.46314 0.74888 0.0
H3161 H 0.40236 0.42927 0.74612 0.0
H3162 H 0.35993 0.44665 0.71605 0.0
H3163 H 0.37887 0.48068 0.72031 0.0
H3164 H 0.3445 0.42635 0.73788 0.0
H3165 H 0.3893 0.38539 0.7104 0.0
H3166 H 0.40164 0.39942 0.72975 0.0
H3167 H 0.39554 0.41173 0.7113 0.0
C3168 C 0.40842 0.45954 0.74168 0.0
C3169 C 0.40153 0.47425 0.7352 0.0
C3170 C 0.39739 0.4402 0.73977 0.0
C3171 C 0.37981 0.43526 0.73047 0.0
C3172 C 0.37344 0.45004 0.72323 0.0
H3173 H 0.29213 0.32578 0.73657 0.0
H3174 H 0.31149 0.35408 0.72334 0.0
C3175 C 0.38415 0.46943 0.72573 0.0
C3176 C 0.36709 0.41531 0.7305 0.0
H3177 H 0.36586 0.36716 0.72909 0.0
C3178 C 0.34923 0.4135 0.73591 0.0
C3179 C 0.3728 0.39829 0.72701 0.0
C3180 C 0.3908 0.39885 0.71908 0.0
C3181 C 0.33774 0.39552 0.73983 0.0
C3182 C 0.34408 0.37883 0.73768 0.0
C3183 C 0.36127 0.3802 0.73094 0.0
C3184 C 0.33367 0.36033 0.74405 0.0
C3185 C 0.31943 0.39469 0.74734 0.0
C3186 C 0.34003 0.35458 0.75985 0.0
C3187 C 0.32901 0.33864 0.76749 0.0
C3188 C 0.31151 0.32831 0.75937 0.0
C3189 C 0.30544 0.33376 0.74324 0.0
C3190 C 0.3165 0.3497 0.73559 0.0
H3191 H 0.31729 0.40938 0.74952 0.0
H3192 H 0.30787 0.38557 0.73817 0.0
H3193 H 0.31867 0.38781 0.76004 0.0
H3194 H 0.35323 0.36284 0.76656 0.0
H3195 H 0.33406 0.33469 0.77991 0.0
H3196 H 0.16804 0.58802 0.26837 0.0
H3197 H 0.19182 0.61957 0.26803 0.0
H3198 H 0.22479 0.59165 0.23695 0.0
H3199 H 0.2015 0.56021 0.23795 0.0
H3200 H 0.24543 0.61425 0.2626 0.0
H3201 H 0.2031 0.65516 0.22892 0.0
H3202 H 0.19264 0.64518 0.24808 0.0
H3203 H 0.19518 0.629 0.23001 0.0
C3204 C 0.1804 0.58882 0.2615 0.0
C3205 C 0.18333 0.57199 0.25344 0.0
C3206 C 0.19381 0.60673 0.26113 0.0
C3207 C 0.20982 0.6079 0.25213 0.0
C3208 C 0.21248 0.59101 0.24385 0.0
H3209 H 0.29182 0.71971 0.24187 0.0
H3210 H 0.27559 0.6848 0.23551 0.0
C3211 C 0.19928 0.57315 0.24449 0.0
C3212 C 0.22435 0.62654 0.2522 0.0
H3213 H 0.23153 0.6745 0.2449 0.0
C3214 C 0.24237 0.62739 0.25884 0.0
C3215 C 0.22052 0.64348 0.24634 0.0
C3216 C 0.20184 0.64312 0.23775 0.0
C3217 C 0.25628 0.64512 0.26125 0.0
C3218 C 0.25207 0.66213 0.25642 0.0
C3219 C 0.2345 0.6612 0.24864 0.0
C3220 C 0.2649 0.6814 0.26115 0.0
C3221 C 0.27515 0.64581 0.26955 0.0
C3222 C 0.26443 0.69044 0.27778 0.0
C3223 C 0.2733 0.71022 0.2813 0.0
C3224 C 0.28286 0.72094 0.26826 0.0
C3225 C 0.28455 0.71153 0.25208 0.0
C3226 C 0.27536 0.69175 0.24844 0.0
H3227 H 0.2769 0.63097 0.27056 0.0
H3228 H 0.28619 0.65443 0.26181 0.0
H3229 H 0.277 0.65327 0.28297 0.0
H3230 H 0.25626 0.68247 0.28762 0.0
H3231 H 0.27202 0.71732 0.29391 0.0
H3232 H 0.53718 0.72802 0.4597 0.0
H3233 H 0.54208 0.69879 0.47185 0.0
H3234 H 0.48865 0.66464 0.44764 0.0
H3235 H 0.48468 0.69361 0.43412 0.0
H3236 H 0.52749 0.67734 0.49405 0.0
H3237 H 0.51514 0.62782 0.43348 0.0
H3238 H 0.51667 0.65335 0.4328 0.0
H3239 H 0.49516 0.63596 0.43719 0.0
C3240 C 0.52664 0.71416 0.45678 0.0
C3241 C 0.51066 0.713 0.44584 0.0
C3242 C 0.52939 0.69742 0.46378 0.0
C3243 C 0.51596 0.67915 0.46044 0.0
C3244 C 0.49968 0.67818 0.44987 0.0
H3245 H 0.50489 0.56703 0.50596 0.0
H3246 H 0.49916 0.59552 0.4928 0.0
C3247 C 0.49727 0.69482 0.44229 0.0
C3248 C 0.51878 0.6615 0.46865 0.0
H3249 H 0.51583 0.61299 0.46055 0.0
C3250 C 0.52507 0.66337 0.48657 0.0
C3251 C 0.51571 0.64306 0.45909 0.0
C3252 C 0.5105 0.63999 0.43955 0.0
C3253 C 0.52822 0.64754 0.49511 0.0
C3254 C 0.5247 0.62914 0.48565 0.0
C3255 C 0.5183 0.62709 0.46784 0.0
C3256 C 0.52814 0.61198 0.49389 0.0
C3257 C 0.5352 0.65058 0.51426 0.0
C3258 C 0.54633 0.61174 0.4988 0.0
C3259 C 0.54967 0.59547 0.50623 0.0
C3260 C 0.53486 0.57907 0.50898 0.0
C3261 C 0.51661 0.57941 0.50413 0.0
C3262 C 0.51331 0.59566 0.49655 0.0
H3263 H 0.53379 0.66445 0.52056 0.0
H3264 H 0.52758 0.63823 0.52159 0.0
H3265 H 0.55012 0.65115 0.5154 0.0
H3266 H 0.558 0.62407 0.49669 0.0
H3267 H 0.56391 0.59576 0.50974 0.0
H3268 H 0.62895 0.32313 0.67785 0.0
H3269 H 0.65703 0.32178 0.69493 0.0
H3270 H 0.67108 0.28904 0.65126 0.0
H3271 H 0.64343 0.29099 0.63391 0.0
H3272 H 0.66431 0.28977 0.70523 0.0
H3273 H 0.72059 0.32706 0.66485 0.0
H3274 H 0.69706 0.32832 0.66108 0.0
H3275 H 0.70344 0.30716 0.65284 0.0
C3276 C 0.6383 0.31612 0.67171 0.0
C3277 C 0.63407 0.30735 0.65445 0.0
C3278 C 0.65429 0.31525 0.68153 0.0
C3279 C 0.66633 0.30549 0.67435 0.0
C3280 C 0.66234 0.29712 0.65696 0.0
H3281 H 0.76189 0.27312 0.71917 0.0
H3282 H 0.73593 0.27672 0.7001 0.0
C3283 C 0.64647 0.29821 0.64705 0.0
C3284 C 0.68218 0.30285 0.68554 0.0
H3285 H 0.72912 0.30977 0.68808 0.0
C3286 C 0.6785 0.29428 0.70151 0.0
C3287 C 0.70068 0.30852 0.68063 0.0
C3288 C 0.70573 0.31844 0.66399 0.0
C3289 C 0.69272 0.29112 0.71263 0.0
C3290 C 0.71123 0.29696 0.70781 0.0
C3291 C 0.71492 0.30532 0.69176 0.0
C3292 C 0.72698 0.29484 0.71938 0.0
C3293 C 0.68771 0.28116 0.72928 0.0
C3294 C 0.73073 0.30406 0.73646 0.0
C3295 C 0.74547 0.30197 0.74741 0.0
C3296 C 0.75692 0.29077 0.74145 0.0
C3297 C 0.75334 0.28182 0.72421 0.0
C3298 C 0.73852 0.28386 0.71328 0.0
H3299 H 0.67282 0.27265 0.72851 0.0
H3300 H 0.6963 0.27116 0.73205 0.0
H3301 H 0.69021 0.2924 0.74049 0.0
H3302 H 0.72231 0.313 0.74131 0.0
H3303 H 0.74789 0.30918 0.76055 0.0
H3304 H 0.02433 0.34239 0.92212 0.0
H3305 H 0.02745 0.37226 0.94028 0.0
H3306 H 0.01237 0.33905 0.98517 0.0
H3307 H 1.00885 0.30857 0.96684 0.0
H3308 H 0.99403 0.3682 0.98115 0.0
H3309 H 0.06964 0.39867 0.97718 0.0
H3310 H 0.05757 0.39135 0.95584 0.0
H3311 H 0.05764 0.37325 0.97127 0.0
C3312 C 0.02176 0.34126 0.93587 0.0
C3313 C 0.01644 0.32296 0.94301 0.0
C3314 C 0.02364 0.35846 0.94627 0.0
C3315 C 0.02046 0.35792 0.96413 0.0
C3316 C 0.01503 0.33976 0.97141 0.0
H3317 H 0.05606 0.46897 0.02699 0.0
H3318 H 0.05077 0.43498 0.0162 0.0
C3319 C 0.01312 0.32239 0.96094 0.0
C3320 C 0.02256 0.37651 0.97484 0.0
H3321 H 0.05306 0.42157 0.98518 0.0
C3322 C 1.00699 0.37981 0.98231 0.0
C3323 C 0.03953 0.39154 0.97654 0.0
C3324 C 0.0571 0.38848 0.96994 0.0
C3325 C 1.00779 0.39805 0.99084 0.0
C3326 C 0.02446 0.41351 0.99148 0.0
C3327 C 0.04017 0.40988 0.98455 0.0
C3328 C 0.02622 0.43358 0.99929 0.0
C3329 C 0.9908 0.40043 0.99917 0.0
C3330 C 0.01406 0.4442 0.9936 0.0
C3331 C 0.01687 0.46366 1.00007 0.0
C3332 C 0.03223 0.47295 0.01191 0.0
C3333 C 0.04423 0.46225 0.0177 0.0
C3334 C 0.04119 0.44279 0.01156 0.0
H3335 H 0.98184 0.38617 1.0027 0.0
H3336 H 0.9946 0.41064 0.01119 0.0
H3337 H 0.98249 0.40634 0.98962 0.0
H3338 H 1.00273 0.43767 0.98376 0.0
H3339 H 1.00749 0.47163 0.99533 0.0
H3340 H 0.04628 0.80132 0.17282 0.0
H3341 H 0.02113 0.80097 0.19188 0.0
H3342 H 0.981 0.76807 0.15076 0.0
H3343 H 1.00587 0.76822 0.13162 0.0
H3344 H 0.97543 0.80511 0.16763 0.0
H3345 H 0.98622 0.75135 0.2141 0.0
H3346 H 1.00634 0.76976 0.20832 0.0
H3347 H 0.99337 0.75124 0.19193 0.0
C3348 C 0.03213 0.79385 0.16787 0.0
C3349 C 0.0281 0.78486 0.15065 0.0
C3350 C 0.01782 0.79365 0.17879 0.0
C3351 C 0.99932 0.78441 0.17268 0.0
C3352 C 0.99524 0.77524 0.15565 0.0
H3353 H 0.89899 0.75779 0.22761 0.0
H3354 H 0.92449 0.75681 0.20944 0.0
C3355 C 1.00949 0.77539 0.14474 0.0
C3356 C 0.98407 0.78505 0.18373 0.0
H3357 H 0.96291 0.76657 0.21979 0.0
C3358 C 0.97267 0.79673 0.17906 0.0
C3359 C 0.98051 0.77392 0.19846 0.0
C3360 C 0.99214 0.76073 0.20356 0.0
C3361 C 0.95775 0.79771 0.18888 0.0
C3362 C 0.95435 0.78683 0.20382 0.0
C3363 C 0.96566 0.77497 0.20837 0.0
C3364 C 0.93905 0.7875 0.21485 0.0
C3365 C 0.9456 0.81011 0.18303 0.0
C3366 C 0.93899 0.80504 0.22404 0.0
C3367 C 0.92453 0.80563 0.2345 0.0
C3368 C 0.90991 0.78866 0.236 0.0
C3369 C 0.91013 0.77107 0.22687 0.0
C3370 C 0.92462 0.77049 0.21643 0.0
H3371 H 0.94725 0.81358 0.16913 0.0
H3372 H 0.93075 0.80265 0.18448 0.0
H3373 H 0.94953 0.8241 0.19138 0.0
H3374 H 0.95023 0.81822 0.22325 0.0
H3375 H 0.92498 0.81932 0.24163 0.0
H3376 H 0.56721 0.35096 0.14631 0.0
H3377 H 0.57047 0.3818 0.13186 0.0
H3378 H 0.51638 0.35745 0.10488 0.0
H3379 H 0.51298 0.32736 0.11916 0.0
H3380 H 0.57198 0.39386 0.09843 0.0
H3381 H 0.5085 0.40779 0.12122 0.0
H3382 H 0.51777 0.3893 0.13001 0.0
H3383 H 0.50343 0.38418 0.10957 0.0
C3384 C 0.55583 0.35217 0.13754 0.0
C3385 C 0.53966 0.33598 0.13445 0.0
C3386 C 0.55776 0.37006 0.12902 0.0
C3387 C 0.54356 0.37291 0.11714 0.0
C3388 C 0.52758 0.35669 0.11411 0.0
H3389 H 0.55792 0.46369 0.03659 0.0
H3390 H 0.55709 0.43494 0.0529 0.0
C3391 C 0.5257 0.33899 0.12244 0.0
C3392 C 0.5452 0.3922 0.1077 0.0
H3393 H 0.52147 0.4259 0.09749 0.0
C3394 C 0.56085 0.40075 0.09839 0.0
C3395 C 0.53113 0.4022 0.10736 0.0
C3396 C 0.51436 0.39555 0.11772 0.0
C3397 C 0.56252 0.41787 0.0888 0.0
C3398 C 0.54806 0.42736 0.08782 0.0
C3399 C 0.53268 0.41911 0.09757 0.0
C3400 C 0.54871 0.44574 0.07725 0.0
C3401 C 0.58028 0.42592 0.08018 0.0
C3402 C 0.54376 0.46218 0.08453 0.0
C3403 C 0.54412 0.47894 0.07495 0.0
C3404 C 0.54931 0.48034 0.05738 0.0
C3405 C 0.55407 0.46384 0.05002 0.0
C3406 C 0.55373 0.4471 0.05961 0.0
H3407 H 0.59196 0.42155 0.08664 0.0
H3408 H 0.5784 0.41996 0.06624 0.0
H3409 H 0.58417 0.44212 0.08058 0.0
H3410 H 0.53967 0.46222 0.09788 0.0
H3411 H 0.54015 0.49087 0.08143 0.0
H3412 H 0.98704 0.28339 0.39064 0.0
H3413 H 0.95719 0.28415 0.3762 0.0
H3414 H 0.97007 0.25745 0.32852 0.0
H3415 H 0.99986 0.25638 0.34315 0.0
H3416 H 0.95372 0.28717 0.32031 0.0
H3417 H 0.90882 0.24121 0.3653 0.0
H3418 H 0.92587 0.26203 0.37629 0.0
H3419 H 0.93322 0.24303 0.36498 0.0
C3420 C 0.98366 0.27766 0.37705 0.0
C3421 C 0.99676 0.2705 0.36815 0.0
C3422 C 0.96623 0.27799 0.36867 0.0
C3423 C 0.96058 0.27085 0.3509 0.0
C3424 C 0.97351 0.26329 0.34208 0.0
H3425 H 0.84303 0.24427 0.30062 0.0
H3426 H 0.873 0.24299 0.31455 0.0
C3427 C 0.99091 0.26284 0.35053 0.0
C3428 C 0.94154 0.27125 0.34169 0.0
H3429 H 0.89387 0.25674 0.34494 0.0
C3430 C 0.94073 0.28047 0.32585 0.0
C3431 C 0.92394 0.26246 0.34824 0.0
C3432 C 0.92286 0.25145 0.36453 0.0
C3433 C 0.92365 0.28148 0.31698 0.0
C3434 C 0.90605 0.27308 0.32375 0.0
C3435 C 0.90685 0.26348 0.33938 0.0
C3436 C 0.88698 0.27394 0.31488 0.0
C3437 C 0.92474 0.29128 0.29999 0.0
C3438 C 0.88367 0.29167 0.31018 0.0
C3439 C 0.86621 0.29244 0.30219 0.0
C3440 C 0.85087 0.27553 0.29831 0.0
C3441 C 0.85411 0.25778 0.30308 0.0
C3442 C 0.87155 0.25704 0.31124 0.0
H3443 H 0.93779 0.29153 0.29378 0.0
H3444 H 0.91278 0.28379 0.29049 0.0
H3445 H 0.92458 0.30664 0.30273 0.0
H3446 H 0.89457 0.30524 0.31296 0.0
H3447 H 0.86477 0.30656 0.29907 0.0
H3448 H 0.06127 0.72361 0.65651 0.0
H3449 H 0.06319 0.69359 0.64048 0.0
H3450 H 0.01483 0.69303 0.60708 0.0
H3451 H 0.01429 0.7241 0.62192 0.0
H3452 H 0.05001 0.65953 0.63451 0.0
H3453 H 0.03757 0.67952 0.56748 0.0
H3454 H 0.04049 0.6969 0.58613 0.0
H3455 H 0.01804 0.67965 0.57967 0.0
C3456 C 0.05106 0.71719 0.64565 0.0
C3457 C 0.03766 0.72682 0.6407 0.0
C3458 C 0.05213 0.69968 0.6363 0.0
C3459 C 0.03959 0.69042 0.62164 0.0
C3460 C 0.0256 0.69966 0.61735 0.0
H3461 H 0.03779 0.56568 0.58588 0.0
H3462 H 0.03503 0.595 0.60248 0.0
C3463 C 0.025 0.71758 0.62626 0.0
C3464 C 0.04103 0.6713 0.61139 0.0
H3465 H 0.03481 0.64611 0.57035 0.0
C3466 C 0.04683 0.65696 0.62042 0.0
C3467 C 0.03738 0.66701 0.59274 0.0
C3468 C 0.03324 0.68168 0.58094 0.0
C3469 C 0.04894 0.63936 0.61186 0.0
C3470 C 0.04415 0.63454 0.5934 0.0
C3471 C 0.03841 0.64889 0.58438 0.0
C3472 C 0.04556 0.61549 0.58304 0.0
C3473 C 0.05725 0.62669 0.62292 0.0
C3474 C 0.05147 0.61575 0.56572 0.0
C3475 C 0.05236 0.59853 0.55583 0.0
C3476 C 0.04776 0.57993 0.56269 0.0
C3477 C 0.04191 0.5795 0.57999 0.0
C3478 C 0.04052 0.59669 0.58974 0.0
H3479 H 0.06605 0.63534 0.63443 0.0
H3480 H 0.04591 0.61533 0.62806 0.0
H3481 H 0.06593 0.61952 0.61522 0.0
H3482 H 0.05557 0.62945 0.55964 0.0
H3483 H 0.05685 0.5999 0.54263 0.0
H3484 H 0.59869 0.75478 0.87228 0.0
H3485 H 0.62775 0.75395 0.85899 0.0
H3486 H 0.63552 0.81273 0.84457 0.0
H3487 H 0.60644 0.81339 0.85722 0.0
H3488 H 0.6393 0.76202 0.8205 0.0
H3489 H 0.68815 0.81389 0.86994 0.0
H3490 H 0.66523 0.80009 0.87503 0.0
H3491 H 0.66794 0.82058 0.86193 0.0
C3492 C 0.60661 0.76773 0.86656 0.0
C3493 C 0.59965 0.7843 0.86646 0.0
C3494 C 0.62348 0.76719 0.85867 0.0
C3495 C 0.63472 0.78334 0.85051 0.0
C3496 C 0.62786 0.79992 0.85065 0.0
H3497 H 0.74884 0.81403 0.80686 0.0
H3498 H 0.71984 0.8137 0.82032 0.0
C3499 C 0.61088 0.80029 0.85812 0.0
C3500 C 0.65311 0.78297 0.84171 0.0
H3501 H 0.70096 0.80363 0.8451 0.0
C3502 C 0.65274 0.77108 0.82609 0.0
C3503 C 0.67121 0.79488 0.84817 0.0
C3504 C 0.6734 0.80806 0.86473 0.0
C3505 C 0.66906 0.77104 0.81699 0.0
C3506 C 0.68738 0.78258 0.8237 0.0
C3507 C 0.68763 0.79449 0.83939 0.0
C3508 C 0.70602 0.78275 0.8148 0.0
C3509 C 0.666 0.75914 0.79957 0.0
C3510 C 0.7095 0.76569 0.80685 0.0
C3511 C 0.7263 0.76598 0.79867 0.0
C3512 C 0.74123 0.78326 0.79816 0.0
C3513 C 0.73809 0.80027 0.80649 0.0
C3514 C 0.72112 0.80003 0.81447 0.0
H3515 H 0.65184 0.75727 0.79332 0.0
H3516 H 0.6762 0.76608 0.79027 0.0
H3517 H 0.66728 0.74434 0.80172 0.0
H3518 H 0.69931 0.75169 0.80719 0.0
H3519 H 0.72768 0.75228 0.79295 0.0
H3520 H 0.46089 0.56828 0.69887 0.0
H3521 H 0.477 0.57169 0.6719 0.0
H3522 H 0.44146 0.51548 0.65065 0.0
H3523 H 0.42472 0.51249 0.67736 0.0
H3524 H 0.49596 0.54584 0.6638 0.0
H3525 H 0.44545 0.54654 0.6079 0.0
H3526 H 0.44093 0.55095 0.63051 0.0
H3527 H 0.43814 0.52644 0.62136 0.0
C3528 C 0.4561 0.55705 0.68813 0.0
C3529 C 0.44166 0.54019 0.68998 0.0
C3530 C 0.4653 0.55896 0.67282 0.0
C3531 C 0.46035 0.54386 0.65936 0.0
C3532 C 0.44517 0.52747 0.66076 0.0
H3533 H 0.52103 0.50993 0.57933 0.0
H3534 H 0.50521 0.51286 0.60591 0.0
C3535 C 0.43567 0.52576 0.67598 0.0
C3536 C 0.47274 0.54417 0.64519 0.0
H3537 H 0.47465 0.54263 0.60075 0.0
C3538 C 0.49136 0.54539 0.65002 0.0
C3539 C 0.46653 0.54322 0.62729 0.0
C3540 C 0.44669 0.54186 0.62142 0.0
C3541 C 0.50401 0.54576 0.63731 0.0
C3542 C 0.4978 0.54496 0.61951 0.0
C3543 C 0.47924 0.54359 0.61459 0.0
C3544 C 0.51004 0.5441 0.60559 0.0
C3545 C 0.52383 0.54672 0.64283 0.0
C3546 C 0.51832 0.56092 0.59718 0.0
C3547 C 0.5275 0.55934 0.58207 0.0
C3548 C 0.52798 0.54087 0.57525 0.0
C3549 C 0.52054 0.52428 0.58432 0.0
C3550 C 0.51163 0.5259 0.59946 0.0
H3551 H 0.52673 0.54854 0.65735 0.0
H3552 H 0.52676 0.53308 0.63782 0.0
H3553 H 0.53344 0.55909 0.63695 0.0
H3554 H 0.51701 0.57503 0.6019 0.0
H3555 H 0.53315 0.57224 0.57516 0.0
H3556 H 0.78655 0.13718 0.97674 0.0
H3557 H 0.78361 0.15405 0.95036 0.0
H3558 H 0.79051 0.20777 0.98232 0.0
H3559 H 0.7939 0.19125 0.00873 0.0
H3560 H 0.75505 0.1703 0.94491 0.0
H3561 H 0.82284 0.22619 0.94262 0.0
H3562 H 0.81993 0.2056 0.9559 0.0
H3563 H 0.81302 0.22666 0.96343 0.0
C3564 C 0.78793 0.15271 0.97814 0.0
C3565 C 0.79034 0.16287 0.99482 0.0
C3566 C 0.78622 0.16228 0.96307 0.0
C3567 C 0.78696 0.18211 0.96447 0.0
C3568 C 0.7903 0.19254 0.98099 0.0
H3569 H 0.76465 0.26338 0.89388 0.0
H3570 H 0.76891 0.24612 0.91969 0.0
C3571 C 0.79214 0.18303 0.99608 0.0
C3572 C 0.78208 0.1913 0.94892 0.0
H3573 H 0.79754 0.22985 0.92423 0.0
C3574 C 0.76438 0.18322 0.94025 0.0
C3575 C 0.79426 0.20822 0.94311 0.0
C3576 C 0.81364 0.21709 0.95165 0.0
C3577 C 0.75835 0.19188 0.92601 0.0
C3578 C 0.77051 0.20885 0.92023 0.0
C3579 C 0.78825 0.21688 0.92885 0.0
C3580 C 0.76537 0.21836 0.90499 0.0
C3581 C 0.73892 0.18308 0.91756 0.0
C3582 C 0.76154 0.20823 0.88832 0.0
C3583 C 0.75872 0.21792 0.87359 0.0
C3584 C 0.76007 0.23797 0.87531 0.0
C3585 C 0.76324 0.24787 0.89214 0.0
C3586 C 0.76587 0.23811 0.90688 0.0
H3587 H 0.72981 0.17377 0.92653 0.0
H3588 H 0.73255 0.19461 0.91361 0.0
H3589 H 0.73947 0.17373 0.90561 0.0
H3590 H 0.76142 0.19304 0.88661 0.0
H3591 H 0.75609 0.20988 0.8608 0.0
H3592 H 0.10858 0.49066 0.20282 0.0
H3593 H 0.09425 0.49211 0.17367 0.0
H3594 H 0.14555 0.53107 0.15966 0.0
H3595 H 0.16016 0.5295 0.1888 0.0
H3596 H 0.09446 0.53175 0.16567 0.0
H3597 H 0.12374 0.49247 0.11463 0.0
H3598 H 0.1233 0.48621 0.13722 0.0
H3599 H 0.13945 0.50825 0.13156 0.0
C3600 C 0.11697 0.49903 0.19334 0.0
C3601 C 0.13535 0.51016 0.19802 0.0
C3602 C 0.10881 0.4998 0.17675 0.0
C3603 C 0.11893 0.51169 0.16473 0.0
C3604 C 0.1377 0.52163 0.16882 0.0
H3605 H 0.0744 0.54672 0.0688 0.0
H3606 H 0.09499 0.5462 0.09459 0.0
C3607 C 0.14597 0.52074 0.18542 0.0
C3608 C 0.10892 0.51618 0.14934 0.0
H3609 H 0.10154 0.50798 0.10488 0.0
C3610 C 0.09603 0.52664 0.15235 0.0
C3611 C 0.11138 0.50971 0.13213 0.0
C3612 C 0.12515 0.49845 0.12855 0.0
C3613 C 0.08494 0.53026 0.13845 0.0
C3614 C 0.08682 0.52306 0.12134 0.0
C3615 C 0.10023 0.51331 0.11819 0.0
C3616 C 0.0742 0.5245 0.10662 0.0
C3617 C 0.07113 0.54148 0.1421 0.0
C3618 C 0.05578 0.51268 0.10527 0.0
C3619 C 0.04417 0.51273 0.09045 0.0
C3620 C 0.05104 0.52442 0.07693 0.0
C3621 C 0.06914 0.53702 0.07879 0.0
C3622 C 0.0808 0.53689 0.09352 0.0
H3623 H 0.07393 0.54923 0.15545 0.0
H3624 H 0.0714 0.55231 0.1322 0.0
H3625 H 0.05695 0.53116 0.14115 0.0
H3626 H 0.05063 0.50303 0.11541 0.0
H3627 H 0.03013 0.50305 0.08921 0.0
H3628 H 0.76208 0.84609 0.47019 0.0
H3629 H 0.76171 0.83225 0.43998 0.0
H3630 H 0.81678 0.82678 0.45132 0.0
H3631 H 0.81671 0.83982 0.48172 0.0
H3632 H 0.7822 0.84726 0.41546 0.0
H3633 H 0.79536 0.77587 0.42398 0.0
H3634 H 0.78941 0.78995 0.44191 0.0
H3635 H 0.81291 0.79576 0.43554 0.0
C3636 C 0.77373 0.84105 0.46644 0.0
C3637 C 0.78909 0.84328 0.4786 0.0
C3638 C 0.77366 0.83339 0.44904 0.0
C3639 C 0.7891 0.82806 0.44312 0.0
C3640 C 0.80437 0.83002 0.45543 0.0
H3641 H 0.82001 0.79654 0.3382 0.0
H3642 H 0.81935 0.80548 0.36956 0.0
C3643 C 0.80432 0.83743 0.47293 0.0
C3644 C 0.7897 0.82207 0.42389 0.0
H3645 H 0.79836 0.7873 0.39533 0.0
C3646 C 0.78558 0.83403 0.41115 0.0
C3647 C 0.79429 0.80492 0.41793 0.0
C3648 C 0.79807 0.79079 0.43055 0.0
C3649 C 0.7861 0.82953 0.39296 0.0
C3650 C 0.79059 0.81236 0.38701 0.0
C3651 C 0.79488 0.80046 0.39971 0.0
C3652 C 0.79084 0.80653 0.36775 0.0
C3653 C 0.78227 0.8436 0.38028 0.0
C3654 C 0.77499 0.80374 0.35605 0.0
C3655 C 0.77533 0.79868 0.33802 0.0
C3656 C 0.79152 0.79607 0.33107 0.0
C3657 C 0.80728 0.79848 0.34288 0.0
C3658 C 0.80692 0.80358 0.36093 0.0
H3659 H 0.7844 0.85841 0.38688 0.0
H3660 H 0.79134 0.84481 0.3692 0.0
H3661 H 0.7676 0.83822 0.37482 0.0
H3662 H 0.76221 0.80537 0.36087 0.0
H3663 H 0.7628 0.79673 0.32954 0.0
H3664 H 0.46683 0.51365 0.77378 0.0
H3665 H 0.48861 0.51415 0.79901 0.0
H3666 H 0.46183 0.54896 0.83035 0.0
H3667 H 0.4393 0.5474 0.80542 0.0
H3668 H 0.51345 0.54163 0.82033 0.0
H3669 H 0.45532 0.5018 0.85782 0.0
H3670 H 0.45215 0.50552 0.83486 0.0
H3671 H 0.45323 0.52487 0.85143 0.0
C3672 C 0.46581 0.52158 0.78603 0.0
C3673 C 0.45142 0.53027 0.78794 0.0
C3674 C 0.4782 0.52188 0.80037 0.0
C3675 C 0.47646 0.53119 0.81659 0.0
C3676 C 0.46296 0.5412 0.81806 0.0
H3677 H 0.54707 0.54784 0.91244 0.0
H3678 H 0.53279 0.55255 0.88408 0.0
C3679 C 0.45023 0.54041 0.80388 0.0
C3680 C 0.48792 0.52917 0.83221 0.0
H3681 H 0.48516 0.51189 0.87287 0.0
C3682 C 0.50731 0.53515 0.83185 0.0
C3683 C 0.47974 0.52039 0.84702 0.0
C3684 C 0.45898 0.5126 0.84778 0.0
C3685 C 0.5188 0.53272 0.84608 0.0
C3686 C 0.51061 0.52436 0.86096 0.0
C3687 C 0.49127 0.51835 0.86133 0.0
C3688 C 0.52174 0.52163 0.87646 0.0
C3689 C 0.53955 0.53865 0.84505 0.0
C3690 C 0.52034 0.5027 0.88127 0.0
C3691 C 0.52826 0.49995 0.89747 0.0
C3692 C 0.5376 0.51614 0.90909 0.0
C3693 C 0.53985 0.53512 0.90376 0.0
C3694 C 0.53186 0.53784 0.88756 0.0
H3695 H 0.54351 0.54208 0.83158 0.0
H3696 H 0.54594 0.55181 0.85416 0.0
H3697 H 0.54537 0.52679 0.84922 0.0
H3698 H 0.51237 0.49007 0.87281 0.0
H3699 H 0.52604 0.48518 0.90133 0.0
H3700 H 0.78318 0.15912 0.10612 0.0
H3701 H 0.78766 0.17816 0.13429 0.0
H3702 H 0.83739 0.21785 0.11783 0.0
H3703 H 0.83219 0.19941 0.08897 0.0
H3704 H 0.81329 0.18631 0.15972 0.0
H3705 H 0.81052 0.25594 0.13247 0.0
H3706 H 0.80519 0.23322 0.11902 0.0
H3707 H 0.82898 0.24697 0.12498 0.0
C3708 C 0.79517 0.17182 0.10855 0.0
C3709 C 0.80734 0.17789 0.09543 0.0
C3710 C 0.79769 0.18272 0.12463 0.0
C3711 C 0.81265 0.19967 0.12804 0.0
C3712 C 0.82541 0.20519 0.11526 0.0
H3713 H 0.83564 0.27547 0.2264 0.0
H3714 H 0.83964 0.26064 0.19757 0.0
C3715 C 0.82258 0.19456 0.09891 0.0
C3716 C 0.81453 0.21141 0.14497 0.0
H3717 H 0.81565 0.25653 0.16328 0.0
C3718 C 0.81394 0.2017 0.16047 0.0
C3719 C 0.81528 0.23148 0.14593 0.0
C3720 C 0.81485 0.24249 0.12972 0.0
C3721 C 0.81359 0.21135 0.17683 0.0
C3722 C 0.81412 0.23128 0.17771 0.0
C3723 C 0.81543 0.24126 0.16241 0.0
C3724 C 0.81162 0.24136 0.19427 0.0
C3725 C 0.81213 0.20005 0.19302 0.0
C3726 C 0.79445 0.23564 0.20151 0.0
C3727 C 0.79219 0.24385 0.21785 0.0
C3728 C 0.80704 0.2581 0.22713 0.0
C3729 C 0.82404 0.26445 0.21952 0.0
C3730 C 0.82633 0.25606 0.20313 0.0
H3731 H 0.8162 0.18636 0.19077 0.0
H3732 H 0.82098 0.20906 0.20433 0.0
H3733 H 0.79752 0.19602 0.19659 0.0
H3734 H 0.78289 0.22453 0.19464 0.0
H3735 H 0.77882 0.23891 0.22324 0.0
H3736 H 0.11606 0.53323 0.28621 0.0
H3737 H 0.0958 0.53004 0.31034 0.0
H3738 H 0.12251 0.49009 0.33335 0.0
H3739 H 0.14362 0.49422 0.30972 0.0
H3740 H 0.07121 0.50135 0.3241 0.0
H3741 H 0.13266 0.53309 0.37168 0.0
H3742 H 0.13437 0.53213 0.34826 0.0
H3743 H 0.13304 0.51072 0.36002 0.0
C3744 C 0.11744 0.52363 0.29636 0.0
C3745 C 0.13145 0.51419 0.29644 0.0
C3746 C 0.10586 0.52176 0.31004 0.0
C3747 C 0.108 0.51017 0.32374 0.0
C3748 C 0.12108 0.49954 0.32311 0.0
H3749 H 0.05716 0.50231 0.42255 0.0
H3750 H 0.06592 0.4919 0.39406 0.0
C3751 C 0.13303 0.50185 0.30967 0.0
C3752 C 0.09765 0.51068 0.33933 0.0
H3753 H 0.1035 0.52429 0.38321 0.0
C3754 C 0.07822 0.50619 0.33707 0.0
C3755 C 0.10698 0.51734 0.35613 0.0
C3756 C 0.12791 0.52379 0.35918 0.0
C3757 C 0.06786 0.50848 0.35123 0.0
C3758 C 0.07724 0.51503 0.36788 0.0
C3759 C 0.09653 0.51902 0.37029 0.0
C3760 C 0.06769 0.51942 0.38295 0.0
C3761 C 0.04711 0.50443 0.3484 0.0
C3762 C 0.06562 0.5382 0.38572 0.0
C3763 C 0.06105 0.54434 0.40202 0.0
C3764 C 0.05855 0.53171 0.41565 0.0
C3765 C 0.05938 0.51243 0.41234 0.0
C3766 C 0.0641 0.50637 0.39608 0.0
H3767 H 0.04173 0.49789 0.33491 0.0
H3768 H 0.0402 0.49439 0.3581 0.0
H3769 H 0.04339 0.51831 0.35061 0.0
H3770 H 0.06874 0.54848 0.37567 0.0
H3771 H 0.06064 0.55932 0.40427 0.0
H3772 H 0.80361 0.87602 0.59606 0.0
H3773 H 0.80218 0.86587 0.62611 0.0
H3774 H 0.77096 0.80751 0.60628 0.0
H3775 H 0.77296 0.81747 0.57613 0.0
H3776 H 0.77558 0.85316 0.64665 0.0
H3777 H 0.80875 0.79374 0.63708 0.0
H3778 H 0.80818 0.81066 0.62061 0.0
H3779 H 0.78828 0.79007 0.62256 0.0
C3780 C 0.79647 0.86098 0.59804 0.0
C3781 C 0.78851 0.84757 0.58349 0.0
C3782 C 0.79565 0.85516 0.61535 0.0
C3783 C 0.78681 0.83572 0.61877 0.0
C3784 C 0.77842 0.82242 0.60424 0.0
H3785 H 0.76798 0.77376 0.71554 0.0
H3786 H 0.76745 0.78377 0.68543 0.0
C3787 C 0.77941 0.8282 0.58689 0.0
C3788 C 0.78617 0.82962 0.63745 0.0
H3789 H 0.79519 0.79579 0.66415 0.0
C3790 C 0.77998 0.84065 0.65041 0.0
C3791 C 0.79187 0.8133 0.64271 0.0
C3792 C 0.79982 0.80138 0.63006 0.0
C3793 C 0.779 0.83569 0.66808 0.0
C3794 C 0.78462 0.81932 0.6733 0.0
C3795 C 0.79076 0.80827 0.66035 0.0
C3796 C 0.78437 0.81351 0.69204 0.0
C3797 C 0.77148 0.84783 0.6809 0.0
C3798 C 0.79405 0.82673 0.70612 0.0
C3799 C 0.79427 0.82106 0.72348 0.0
C3800 C 0.78493 0.8019 0.72737 0.0
C3801 C 0.77519 0.78869 0.71326 0.0
C3802 C 0.77497 0.79439 0.6959 0.0
H3803 H 0.76272 0.85577 0.67404 0.0
H3804 H 0.7631 0.83864 0.6904 0.0
H3805 H 0.78325 0.85888 0.68837 0.0
H3806 H 0.80185 0.84141 0.70368 0.0
H3807 H 0.80214 0.83165 0.73381 0.0
H3808 H 0.7501 0.41872 0.52186 0.0
H3809 H 0.72422 0.43101 0.53013 0.0
H3810 H 0.73393 0.46992 0.48838 0.0
H3811 H 0.75929 0.45757 0.47974 0.0
H3812 H 0.72889 0.47032 0.54078 0.0
H3813 H 0.67804 0.44613 0.48281 0.0
H3814 H 0.69663 0.4352 0.48723 0.0
H3815 H 0.70101 0.4579 0.47693 0.0
C3816 C 0.74636 0.42948 0.51414 0.0
C3817 C 0.75669 0.43716 0.50014 0.0
C3818 C 0.73168 0.43652 0.51894 0.0
C3819 C 0.72714 0.45111 0.50968 0.0
C3820 C 0.73702 0.45831 0.49539 0.0
H3821 H 0.66869 0.53557 0.51336 0.0
H3822 H 0.68855 0.51429 0.50816 0.0
C3823 C 0.75158 0.4513 0.49056 0.0
C3824 C 0.71329 0.46032 0.51579 0.0
H3825 H 0.67529 0.47353 0.50124 0.0
C3826 C 0.71691 0.47073 0.53236 0.0
C3827 C 0.69786 0.46081 0.50462 0.0
C3828 C 0.69305 0.44925 0.48697 0.0
C3829 C 0.70596 0.48262 0.53767 0.0
C3830 C 0.69099 0.48373 0.52616 0.0
C3831 C 0.68692 0.47265 0.50993 0.0
C3832 C 0.67993 0.49713 0.5302 0.0
C3833 C 0.71102 0.49461 0.5551 0.0
C3834 C 0.66877 0.49449 0.54441 0.0
C3835 C 0.65749 0.50663 0.54744 0.0
C3836 C 0.65716 0.52139 0.53616 0.0
C3837 C 0.66865 0.5242 0.52215 0.0
C3838 C 0.67995 0.51212 0.51919 0.0
H3839 H 0.72511 0.49505 0.56071 0.0
H3840 H 0.71048 0.50982 0.55369 0.0
H3841 H 0.70088 0.48808 0.56459 0.0
H3842 H 0.66841 0.48272 0.55282 0.0
H3843 H 0.64849 0.50399 0.55814 0.0
H3844 H 0.22917 0.18404 0.50623 0.0
H3845 H 0.19837 0.1623 0.51067 0.0
H3846 H 0.22427 0.12145 0.53317 0.0
H3847 H 0.25472 0.1441 0.53058 0.0
H3848 H 0.17984 0.12852 0.49859 0.0
H3849 H 0.19104 0.12299 0.56988 0.0
H3850 H 0.20768 0.13984 0.55809 0.0
H3851 H 0.20779 0.11462 0.55844 0.0
C3852 C 0.22815 0.17043 0.51219 0.0
C3853 C 0.24424 0.16535 0.51746 0.0
C3854 C 0.21059 0.15798 0.5147 0.0
C3855 C 0.20886 0.14027 0.52258 0.0
C3856 C 0.22505 0.13522 0.52763 0.0
H3857 H 0.10802 0.04389 0.50911 0.0
H3858 H 0.13875 0.06656 0.50766 0.0
C3859 C 0.24251 0.14793 0.52566 0.0
C3860 C 0.1902 0.12694 0.5252 0.0
H3861 H 0.16512 0.09861 0.55488 0.0
C3862 C 0.17661 0.1222 0.51099 0.0
C3863 C 0.18569 0.11883 0.54145 0.0
C3864 C 0.19878 0.12453 0.55785 0.0
C3865 C 0.15889 0.1094 0.51245 0.0
C3866 C 0.15487 0.10025 0.52829 0.0
C3867 C 0.16827 0.1053 0.54263 0.0
C3868 C 0.13683 0.08548 0.53023 0.0
C3869 C 0.14456 0.10624 0.49709 0.0
C3870 C 0.12594 0.08774 0.54412 0.0
C3871 C 0.10845 0.07444 0.54525 0.0
C3872 C 0.10153 0.0587 0.53245 0.0
C3873 C 0.11285 0.05598 0.51908 0.0
C3874 C 0.13037 0.06907 0.51811 0.0
H3875 H 0.14759 0.11884 0.48878 0.0
H3876 H 0.14476 0.0931 0.48872 0.0
H3877 H 0.13038 0.10405 0.50155 0.0
H3878 H 0.13071 0.10015 0.55376 0.0
H3879 H 0.10006 0.07698 0.55569 0.0
H3880 H 0.16887 0.97426 0.80638 0.0
H3881 H 0.18094 0.94738 0.79629 0.0
H3882 H 0.23582 0.98006 0.81815 0.0
H3883 H 0.22387 0.00637 0.82891 0.0
H3884 H 0.20585 0.94832 0.77313 0.0
H3885 H 0.23261 0.92831 0.83602 0.0
H3886 H 0.21725 0.94368 0.83512 0.0
H3887 H 0.24192 0.95397 0.83403 0.0
C3888 C 0.18343 0.9755 0.80932 0.0
C3889 C 0.19541 0.99234 0.81852 0.0
C3890 C 0.19027 0.96019 0.80354 0.0
C3891 C 0.20915 0.96164 0.80681 0.0
C3892 C 0.22107 0.97839 0.81603 0.0
H3893 H 0.29274 0.91489 0.77137 0.0
H3894 H 0.27245 0.93506 0.77925 0.0
C3895 C 0.21423 0.99349 0.82207 0.0
C3896 C 0.21689 0.94643 0.79948 0.0
H3897 H 0.24676 0.92007 0.81002 0.0
C3898 C 0.21449 0.9418 0.78121 0.0
C3899 C 0.228 0.93789 0.81012 0.0
C3900 C 0.22991 0.94108 0.82993 0.0
C3901 C 0.22385 0.92965 0.77321 0.0
C3902 C 0.23593 0.92233 0.78376 0.0
C3903 C 0.23767 0.92616 0.80204 0.0
C3904 C 0.24732 0.91095 0.77614 0.0
C3905 C 0.22142 0.92522 0.75353 0.0
C3906 C 0.23957 0.89101 0.7714 0.0
C3907 C 0.25103 0.87955 0.76686 0.0
C3908 C 0.27033 0.88797 0.76714 0.0
C3909 C 0.27789 0.90818 0.77091 0.0
C3910 C 0.26639 0.91962 0.77548 0.0
H3911 H 0.21208 0.9328 0.74709 0.0
H3912 H 0.23514 0.92967 0.74793 0.0
H3913 H 0.21553 0.90923 0.75041 0.0
H3914 H 0.22483 0.88421 0.77199 0.0
H3915 H 0.24494 0.86397 0.76385 0.0
H3916 H 0.3362 0.95575 0.02813 0.0
H3917 H 0.36538 0.97748 0.04195 0.0
H3918 H 0.39538 0.95449 1.00356 0.0
H3919 H 0.3662 0.9316 0.99067 0.0
H3920 H 0.41146 0.95737 0.03667 0.0
H3921 H 0.39436 0.02682 0.02443 0.0
H3922 H 0.38309 0.0128 0.04153 0.0
H3923 H 0.37766 1.00336 0.01913 0.0
C3924 C 0.34911 0.95551 0.02265 0.0
C3925 C 0.34926 0.94246 0.00823 0.0
C3926 C 0.36567 0.96786 0.03055 0.0
C3927 C 0.38244 0.96775 0.02365 0.0
C3928 C 0.3825 0.95472 0.0091 0.0
H3929 H 0.48136 1.00389 0.99428 0.0
H3930 H 0.44965 0.99264 1.00303 0.0
C3931 C 0.36597 0.94185 1.00161 0.0
C3932 C 0.40016 0.98119 0.03115 0.0
H3933 H 0.42584 0.02837 0.0289 0.0
C3934 C 0.41454 0.97299 0.03551 0.0
C3935 C 0.40404 1.00172 0.03069 0.0
C3936 C 0.38903 0.01179 0.02867 0.0
C3937 C 0.43296 0.98433 0.03643 0.0
C3938 C 0.43681 1.00402 0.03246 0.0
C3939 C 0.42256 0.01297 0.03117 0.0
C3940 C 0.45449 0.01368 0.02565 0.0
C3941 C 0.44816 0.97472 0.03984 0.0
C3942 C 0.46684 0.03025 0.03465 0.0
C3943 C 0.48474 0.03708 0.02927 0.0
C3944 C 0.49013 0.02719 0.01502 0.0
C3945 C 0.47722 0.01176 0.00515 0.0
C3946 C 0.45934 1.0052 0.0103 0.0
H3947 H 0.44378 0.9628 0.04875 0.0
H3948 H 0.45112 0.96812 0.02722 0.0
H3949 H 0.46113 0.98545 0.04574 0.0
H3950 H 0.46307 0.037 0.04639 0.0
H3951 H 0.4948 0.04881 0.0372 0.0
H3952 H 0.93312 0.60106 0.79065 0.0
H3953 H 0.91997 0.62597 0.77944 0.0
H3954 H 0.87959 0.61483 0.81822 0.0
H3955 H 0.89258 0.58996 0.8296 0.0
H3956 H 0.88185 0.61378 0.76628 0.0
H3957 H 0.89667 0.67504 0.8179 0.0
H3958 H 0.91068 0.65826 0.81619 0.0
H3959 H 0.88906 0.65143 0.82637 0.0
C3960 C 0.92183 0.60434 0.79719 0.0
C3961 C 0.91376 0.5935 0.81094 0.0
C3962 C 0.91437 0.61853 0.79073 0.0
C3963 C 0.89903 0.6222 0.79816 0.0
C3964 C 0.8917 0.61234 0.81259 0.0
H3965 H 0.80478 0.65721 0.78536 0.0
H3966 H 0.83068 0.64358 0.79141 0.0
C3967 C 0.89905 0.59808 0.81899 0.0
C3968 C 0.88879 0.63401 0.78938 0.0
H3969 H 0.86933 0.67073 0.79808 0.0
C3970 C 0.87948 0.62662 0.7729 0.0
C3971 C 0.88587 0.65062 0.79821 0.0
C3972 C 0.89624 0.65943 0.81559 0.0
C3973 C 0.86603 0.63458 0.76564 0.0
C3974 C 0.86215 0.65027 0.77514 0.0
C3975 C 0.87241 0.65855 0.79098 0.0
C3976 C 0.84604 0.65681 0.77004 0.0
C3977 C 0.85511 0.62539 0.74859 0.0
C3978 C 0.84617 0.66819 0.75575 0.0
C3979 C 0.83143 0.67597 0.75227 0.0
C3980 C 0.81658 0.67241 0.76313 0.0
C3981 C 0.81616 0.66019 0.7769 0.0
C3982 C 0.83086 0.65247 0.78036 0.0
H3983 H 0.85912 0.61241 0.74344 0.0
H3984 H 0.84002 0.6209 0.7505 0.0
H3985 H 0.85746 0.63628 0.73857 0.0
H3986 H 0.85796 0.67167 0.7478 0.0
H3987 H 0.83214 0.68562 0.74175 0.0
H3988 H 0.84201 0.68081 0.04688 0.0
H3989 H 0.86738 0.66579 0.05195 0.0
H3990 H 0.8659 0.65133 0.9962 0.0
H3991 H 0.84066 0.66603 0.9911 0.0
H3992 H 0.86076 0.61919 0.01747 0.0
H3993 H 0.92319 0.68039 0.04099 0.0
H3994 H 0.90184 0.67935 0.05092 0.0
H3995 H 0.90368 0.68423 0.02824 0.0
C3996 C 0.84759 0.67505 0.0357 0.0
C3997 C 0.83944 0.67463 0.0186 0.0
C3998 C 0.862 0.66641 0.03861 0.0
C3999 C 0.86849 0.6575 0.02442 0.0
C4000 C 0.86108 0.65814 0.0073 0.0
H4001 H 0.95737 0.6056 0.01059 0.0
H4002 H 0.93625 0.62619 0.01094 0.0
C4003 C 0.84671 0.6666 0.00441 0.0
C4004 C 0.88155 0.64569 0.02726 0.0
H4005 H 0.92671 0.64857 0.0393 0.0
C4006 C 0.87516 0.62557 0.02235 0.0
C4007 C 0.90029 0.65413 0.03356 0.0
C4008 C 0.90781 0.67573 0.03867 0.0
C4009 C 0.88709 0.61367 0.02327 0.0
C4010 C 0.90588 0.6221 0.02949 0.0
C4011 C 0.91226 0.64219 0.0346 0.0
C4012 C 0.9192 0.61032 0.03012 0.0
C4013 C 0.87961 0.59228 0.01708 0.0
C4014 C 0.91671 0.59479 0.04097 0.0
C4015 C 0.92859 0.58288 0.04066 0.0
C4016 C 0.9433 0.58641 0.0296 0.0
C4017 C 0.94602 0.60232 0.01906 0.0
C4018 C 0.93409 0.6142 0.01936 0.0
H4019 H 0.86614 0.58913 0.00909 0.0
H4020 H 0.88963 0.58743 0.00913 0.0
H4021 H 0.87735 0.58349 0.02868 0.0
H4022 H 0.9054 0.5917 0.0495 0.0
H4023 H 0.92596 0.57064 0.0488 0.0
H4024 H 0.16574 0.09701 0.83895 0.0
H4025 H 0.18206 0.13199 0.83762 0.0
H4026 H 0.22367 0.11625 0.80812 0.0
H4027 H 0.20749 0.08174 0.80933 0.0
H4028 H 0.23731 0.14569 0.83753 0.0
H4029 H 0.18406 0.16067 0.79085 0.0
H4030 H 0.177 0.14949 0.81081 0.0
H4031 H 0.18484 0.13603 0.79385 0.0
C4032 C 0.17847 0.10122 0.83237 0.0
C4033 C 0.18579 0.08698 0.82469 0.0
C4034 C 0.18768 0.12102 0.83157 0.0
C4035 C 0.204 0.12651 0.8228 0.0
C4036 C 0.21116 0.1122 0.81507 0.0
H4037 H 0.28802 0.20744 0.78006 0.0
H4038 H 0.26556 0.18022 0.79193 0.0
C4039 C 0.20202 0.09258 0.81586 0.0
C4040 C 0.21373 0.14706 0.82092 0.0
H4041 H 0.21336 0.18391 0.79468 0.0
C4042 C 0.23192 0.15429 0.82858 0.0
C4043 C 0.20657 0.15815 0.80915 0.0
C4044 C 0.18707 0.15079 0.80058 0.0
C4045 C 0.24364 0.17179 0.82392 0.0
C4046 C 0.23698 0.18208 0.81108 0.0
C4047 C 0.21835 0.17573 0.8044 0.0
C4048 C 0.2497 0.19831 0.80324 0.0
C4049 C 0.26332 0.17863 0.83215 0.0
C4050 C 0.24774 0.21719 0.80535 0.0
C4051 C 0.2604 0.23261 0.79842 0.0
C4052 C 0.27496 0.22917 0.78929 0.0
C4053 C 0.27679 0.21026 0.78705 0.0
C4054 C 0.26408 0.19483 0.79383 0.0
H4055 H 0.26453 0.17263 0.84512 0.0
H4056 H 0.27254 0.17343 0.82343 0.0
H4057 H 0.26832 0.19484 0.83391 0.0
H4058 H 0.23677 0.22002 0.81271 0.0
H4059 H 0.2592 0.24727 0.80078 0.0
H4060 H 0.43792 0.98268 0.31915 0.0
H4061 H 0.42119 0.94756 0.3151 0.0
H4062 H 0.37768 0.96067 0.28303 0.0
H4063 H 0.39431 0.99547 0.28698 0.0
H4064 H 0.38299 0.93167 0.32439 0.0
H4065 H 0.39191 0.91642 0.25399 0.0
H4066 H 0.4072 0.9369 0.26745 0.0
H4067 H 0.38491 0.93815 0.25864 0.0
C4068 C 0.4248 0.97787 0.31124 0.0
C4069 C 0.41696 0.99143 0.30376 0.0
C4070 C 0.41538 0.95801 0.30889 0.0
C4071 C 0.39845 0.95175 0.29859 0.0
C4072 C 0.39092 0.96534 0.29076 0.0
H4073 H 0.31041 0.85011 0.264 0.0
H4074 H 0.33216 0.88291 0.26967 0.0
C4075 C 0.40023 0.98511 0.29322 0.0
C4076 C 0.38771 0.93119 0.29694 0.0
H4077 H 0.36748 0.8935 0.26652 0.0
C4078 C 0.37956 0.92323 0.31181 0.0
C4079 C 0.3836 0.92038 0.28047 0.0
C4080 C 0.39249 0.92831 0.26423 0.0
C4081 C 0.36616 0.9051 0.31043 0.0
C4082 C 0.36175 0.89432 0.29386 0.0
C4083 C 0.37072 0.90193 0.27915 0.0
C4084 C 0.34788 0.87511 0.29137 0.0
C4085 C 0.35628 0.89828 0.32654 0.0
C4086 C 0.34952 0.86008 0.30176 0.0
C4087 C 0.33675 0.84174 0.29898 0.0
C4088 C 0.3227 0.83805 0.2853 0.0
C4089 C 0.32114 0.8529 0.27471 0.0
C4090 C 0.33355 0.87147 0.27789 0.0
H4091 H 0.35685 0.91074 0.33617 0.0
H4092 H 0.34149 0.89015 0.32306 0.0
H4093 H 0.36322 0.8885 0.33317 0.0
H4094 H 0.3609 0.86236 0.31174 0.0
H4095 H 0.33839 0.8302 0.30697 0.0
H4096 H 0.58153 0.35753 0.62974 0.0
H4097 H 0.57832 0.3886 0.6195 0.0
H4098 H 0.56891 0.36309 0.56603 0.0
H4099 H 0.57157 0.33227 0.57607 0.0
H4100 H 0.59631 0.41407 0.59492 0.0
H4101 H 0.52238 0.38004 0.57216 0.0
H4102 H 0.5353 0.36823 0.58623 0.0
H4103 H 0.5376 0.36746 0.5629 0.0
C4104 C 0.5791 0.35872 0.6158 0.0
C4105 C 0.57666 0.34241 0.60373 0.0
C4106 C 0.57716 0.3764 0.60997 0.0
C4107 C 0.57285 0.37796 0.59204 0.0
C4108 C 0.57167 0.36207 0.57996 0.0
H4109 H 0.54594 0.46024 0.52384 0.0
H4110 H 0.55169 0.43194 0.5373 0.0
C4111 C 0.57337 0.34448 0.58573 0.0
C4112 C 0.56906 0.39585 0.58574 0.0
H4113 H 0.53647 0.41141 0.56242 0.0
C4114 C 0.58318 0.41359 0.58796 0.0
C4115 C 0.55192 0.39515 0.57663 0.0
C4116 C 0.53587 0.37674 0.57447 0.0
C4117 C 0.58091 0.43049 0.58069 0.0
C4118 C 0.56384 0.42971 0.5713 0.0
C4119 C 0.5496 0.41202 0.56946 0.0
C4120 C 0.56043 0.44696 0.56316 0.0
C4121 C 0.59713 0.44874 0.58258 0.0
C4122 C 0.56307 0.46472 0.57323 0.0
C4123 C 0.56018 0.48096 0.56547 0.0
C4124 C 0.55405 0.47964 0.54759 0.0
C4125 C 0.55072 0.46169 0.53763 0.0
C4126 C 0.554 0.44553 0.54533 0.0
H4127 H 0.61052 0.44527 0.58507 0.0
H4128 H 0.59788 0.45697 0.57063 0.0
H4129 H 0.59553 0.45833 0.59397 0.0
H4130 H 0.56727 0.46606 0.58714 0.0
H4131 H 0.56251 0.4945 0.57358 0.0
H4132 H 0.46702 0.74611 0.37823 0.0
H4133 H 0.43972 0.74786 0.36044 0.0
H4134 H 0.41793 0.76725 0.40708 0.0
H4135 H 0.44699 0.76886 0.42405 0.0
H4136 H 0.40795 0.73313 0.35567 0.0
H4137 H 0.40793 0.80723 0.38152 0.0
H4138 H 0.42514 0.79639 0.38984 0.0
H4139 H 0.4025 0.79028 0.39809 0.0
C4140 C 0.45677 0.75172 0.38441 0.0
C4141 C 0.45981 0.75906 0.40205 0.0
C4142 C 0.44082 0.75222 0.37436 0.0
C4143 C 0.42688 0.75887 0.38202 0.0
C4144 C 0.42891 0.76361 0.40034 0.0
H4145 H 0.32023 0.76252 0.33153 0.0
H4146 H 0.3446 0.75797 0.35216 0.0
C4147 C 0.4454 0.76417 0.41017 0.0
C4148 C 0.41042 0.76046 0.3707 0.0
H4149 H 0.38231 0.78972 0.36192 0.0
C4150 C 0.40268 0.74574 0.35705 0.0
C4151 C 0.40288 0.77664 0.37242 0.0
C4152 C 0.41017 0.79356 0.38615 0.0
C4153 C 0.38829 0.74697 0.34501 0.0
C4154 C 0.381 0.76305 0.34682 0.0
C4155 C 0.38808 0.77743 0.36063 0.0
C4156 C 0.36623 0.76542 0.33422 0.0
C4157 C 0.38092 0.73111 0.33035 0.0
C4158 C 0.37042 0.7712 0.31736 0.0
C4159 C 0.35661 0.77395 0.30559 0.0
C4160 C 0.3383 0.77087 0.31043 0.0
C4161 C 0.33415 0.76495 0.32734 0.0
C4162 C 0.34804 0.76237 0.33916 0.0
H4163 H 0.38627 0.71828 0.33208 0.0
H4164 H 0.36551 0.7262 0.32956 0.0
H4165 H 0.38515 0.73702 0.31763 0.0
H4166 H 0.38444 0.77374 0.31339 0.0
H4167 H 0.36031 0.77849 0.29269 0.0
H4168 H 0.08488 0.7527 0.09067 0.0
H4169 H 0.08115 0.71981 0.07734 0.0
H4170 H 0.06668 0.69644 0.12714 0.0
H4171 H 0.06755 0.72902 0.13946 0.0
H4172 H 0.09614 0.69435 0.08002 0.0
H4173 H 0.02587 0.65977 0.10014 0.0
H4174 H 0.03677 0.68545 0.10485 0.0
H4175 H 0.04174 0.66812 0.1192 0.0
C4176 C 0.07992 0.74035 0.09841 0.0
C4177 C 0.075 0.74313 0.11557 0.0
C4178 C 0.07826 0.72155 0.09097 0.0
C4179 C 0.07273 0.70524 0.10093 0.0
C4180 C 0.06972 0.70841 0.11873 0.0
H4181 H 0.08604 0.59156 0.06336 0.0
H4182 H 0.09174 0.62502 0.07657 0.0
C4183 C 0.07047 0.7271 0.12587 0.0
C4184 C 0.07059 0.68515 0.09277 0.0
H4185 H 0.04242 0.6382 0.08931 0.0
C4186 C 0.08422 0.68218 0.08192 0.0
C4187 C 0.05506 0.66903 0.09506 0.0
C4188 C 0.03898 0.67083 0.1053 0.0
C4189 C 0.08267 0.66384 0.07325 0.0
C4190 C 0.06756 0.6477 0.07617 0.0
C4191 C 0.05408 0.65055 0.08713 0.0
C4192 C 0.06482 0.62781 0.06752 0.0
C4193 C 0.09694 0.66218 0.06063 0.0
C4194 C 0.04771 0.61805 0.05835 0.0
C4195 C 0.04428 0.59888 0.05121 0.0
C4196 C 0.05796 0.58901 0.0529 0.0
C4197 C 0.07528 0.59885 0.06174 0.0
C4198 C 0.0786 0.61803 0.06918 0.0
H4199 H 0.10392 0.67657 0.0558 0.0
H4200 H 0.10774 0.65682 0.06749 0.0
H4201 H 0.09054 0.65178 0.04911 0.0
H4202 H 0.03686 0.62524 0.05685 0.0
H4203 H 0.03086 0.59179 0.04433 0.0
H4204 H 0.06847 0.30674 0.89994 0.0
H4205 H 0.09725 0.30573 0.88702 0.0
H4206 H 0.08515 0.24433 0.89491 0.0
H4207 H 0.05638 0.24534 0.9082 0.0
H4208 H 0.12933 0.28522 0.90052 0.0
H4209 H 0.08506 0.25763 0.83811 0.0
H4210 H 0.07853 0.27271 0.85492 0.0
H4211 H 0.07708 0.24777 0.85838 0.0
C4212 C 0.07232 0.2932 0.89949 0.0
C4213 C 0.0604 0.27614 0.90518 0.0
C4214 C 0.08868 0.29264 0.89209 0.0
C4215 C 0.09317 0.27496 0.89003 0.0
C4216 C 0.08186 0.25812 0.89657 0.0
H4217 H 0.16646 0.23975 0.82044 0.0
H4218 H 0.1429 0.24097 0.84087 0.0
C4219 C 0.06557 0.25873 0.90424 0.0
C4220 C 0.10843 0.27374 0.87921 0.0
H4221 H 0.11705 0.26176 0.83734 0.0
C4222 C 0.12674 0.28001 0.88674 0.0
C4223 C 0.10484 0.26717 0.86122 0.0
C4224 C 0.08535 0.26098 0.85253 0.0
C4225 C 0.14167 0.27955 0.87669 0.0
C4226 C 0.13809 0.27291 0.85866 0.0
C4227 C 0.11973 0.26673 0.85118 0.0
C4228 C 0.15312 0.27221 0.84721 0.0
C4229 C 0.1611 0.28588 0.88549 0.0
C4230 C 0.16661 0.2894 0.84398 0.0
C4231 C 0.18015 0.28873 0.83239 0.0
C4232 C 0.18036 0.27087 0.82374 0.0
C4233 C 0.16686 0.25367 0.8271 0.0
C4234 C 0.15333 0.25436 0.83868 0.0
H4235 H 0.16107 0.28581 0.90002 0.0
H4236 H 0.16937 0.27622 0.88072 0.0
H4237 H 0.16808 0.301 0.8823 0.0
H4238 H 0.16646 0.30338 0.85016 0.0
H4239 H 0.19043 0.30221 0.83017 0.0
H4240 H 0.53576 0.69941 0.89373 0.0
H4241 H 0.53494 0.67003 0.90954 0.0
H4242 H 0.55013 0.70583 0.9583 0.0
H4243 H 0.55078 0.7349 0.94267 0.0
H4244 H 0.55825 0.65528 0.92846 0.0
H4245 H 0.50905 0.66582 0.97607 0.0
H4246 H 0.51367 0.68031 0.95744 0.0
H4247 H 0.52924 0.68648 0.97711 0.0
C4248 C 0.53885 0.70115 0.90784 0.0
C4249 C 0.54324 0.72016 0.9166 0.0
C4250 C 0.53841 0.68405 0.91706 0.0
C4251 C 0.54202 0.68483 0.93563 0.0
C4252 C 0.54663 0.70389 0.94426 0.0
H4253 H 0.54541 0.60021 0.01841 0.0
H4254 H 0.54578 0.62838 1.00142 0.0
C4255 C 0.54719 0.72091 0.93508 0.0
C4256 C 0.54134 0.66617 0.94583 0.0
H4257 H 0.52456 0.642 0.98221 0.0
C4258 C 0.5507 0.65249 0.94014 0.0
C4259 C 0.53171 0.66165 0.96136 0.0
C4260 C 0.52019 0.6742 0.96829 0.0
C4261 C 0.55119 0.6356 0.94937 0.0
C4262 C 0.54157 0.63108 0.96494 0.0
C4263 C 0.53213 0.64473 0.97054 0.0
C4264 C 0.54126 0.61283 0.97563 0.0
C4265 C 0.56289 0.62321 0.94252 0.0
C4266 C 0.53826 0.59359 0.96762 0.0
C4267 C 0.53811 0.57712 0.97755 0.0
C4268 C 0.5407 0.57868 0.99619 0.0
C4269 C 0.54335 0.59781 0.00422 0.0
C4270 C 0.54354 0.61427 0.9943 0.0
H4271 H 0.57396 0.63166 0.93469 0.0
H4272 H 0.56955 0.6173 0.9534 0.0
H4273 H 0.55395 0.61083 0.93373 0.0
H4274 H 0.53571 0.59104 0.95349 0.0
H4275 H 0.53588 0.56302 0.97045 0.0
H4276 H 0.08396 0.78312 0.71154 0.0
H4277 H 0.11395 0.78322 0.7263 0.0
H4278 H 0.14062 0.80098 0.67924 0.0
H4279 H 0.11106 0.80251 0.66526 0.0
H4280 H 0.13761 0.7655 0.72622 0.0
H4281 H 0.18092 0.83605 0.70806 0.0
H4282 H 0.15605 0.82905 0.70402 0.0
H4283 H 0.17027 0.82102 0.6886 0.0
C4284 C 0.09632 0.78804 0.70457 0.0
C4285 C 0.09464 0.79398 0.68728 0.0
C4286 C 0.11378 0.78766 0.713 0.0
C4287 C 0.13068 0.79273 0.70455 0.0
C4288 C 0.12874 0.79792 0.687 0.0
H4289 H 0.22876 0.75275 0.74726 0.0
H4290 H 0.19911 0.75485 0.73383 0.0
C4291 C 0.11139 0.79861 0.67873 0.0
C4292 C 0.14973 0.79168 0.71358 0.0
H4293 H 0.19728 0.81406 0.71787 0.0
C4294 C 0.15052 0.77634 0.72431 0.0
C4295 C 0.16733 0.80569 0.71204 0.0
C4296 C 0.16861 0.82398 0.70274 0.0
C4297 C 0.16747 0.77443 0.73281 0.0
C4298 C 0.1852 0.78775 0.73035 0.0
C4299 C 0.18435 0.80333 0.71992 0.0
C4300 C 0.2044 0.78623 0.73862 0.0
C4301 C 0.16578 0.75835 0.74504 0.0
C4302 C 0.21889 0.80298 0.74547 0.0
C4303 C 0.23646 0.80179 0.7529 0.0
C4304 C 0.24077 0.78375 0.75406 0.0
C4305 C 0.22642 0.76702 0.74709 0.0
C4306 C 0.20896 0.76824 0.73944 0.0
H4307 H 0.15193 0.75431 0.75044 0.0
H4308 H 0.16728 0.74512 0.73763 0.0
H4309 H 0.17654 0.76269 0.75624 0.0
H4310 H 0.21664 0.81728 0.74529 0.0
H4311 H 0.24675 0.81523 0.75787 0.0
H4312 H 0.044 0.31653 0.43541 0.0
H4313 H 0.04316 0.34569 0.45379 0.0
H4314 H 0.05858 0.38114 0.41047 0.0
H4315 H 0.05957 0.35223 0.39221 0.0
H4316 H 0.07655 0.40194 0.43924 0.0
H4317 H 1.00421 0.37346 0.45661 0.0
H4318 H 0.01866 0.35853 0.46319 0.0
H4319 H 0.01388 0.36089 0.44018 0.0
C4320 C 0.04736 0.33049 0.42972 0.0
C4321 C 0.05196 0.33145 0.41199 0.0
C4322 C 0.04663 0.34742 0.44033 0.0
C4323 C 0.05043 0.36626 0.43382 0.0
C4324 C 0.05543 0.36723 0.41626 0.0
H4325 H 0.0561 0.48962 0.47407 0.0
H4326 H 0.05701 0.46014 0.45651 0.0
C4327 C 0.05603 0.35037 0.40565 0.0
C4328 C 0.04945 0.38484 0.44501 0.0
H4329 H 0.02155 0.40383 0.47112 0.0
C4330 C 0.0644 0.40218 0.44611 0.0
C4331 C 0.03382 0.38596 0.45434 0.0
C4332 C 0.01665 0.36881 0.45344 0.0
C4333 C 0.0644 0.41976 0.45618 0.0
C4334 C 0.0487 0.42097 0.4654 0.0
C4335 C 0.03375 0.40359 0.46432 0.0
C4336 C 0.04758 0.43975 0.47623 0.0
C4337 C 0.08179 0.43669 0.45728 0.0
C4338 C 0.04112 0.4391 0.49333 0.0
C4339 C 0.04028 0.45623 0.50345 0.0
C4340 C 0.04574 0.47508 0.49706 0.0
C4341 C 0.05187 0.47573 0.47984 0.0
C4342 C 0.05261 0.45857 0.4697 0.0
H4343 H 0.09421 0.43166 0.45491 0.0
H4344 H 0.08045 0.44665 0.447 0.0
H4345 H 0.0842 0.44503 0.47034 0.0
H4346 H 0.03693 0.42521 0.49911 0.0
H4347 H 0.03542 0.45465 0.51649 0.0
H4348 H 0.50065 0.29767 0.2046 0.0
H4349 H 0.47324 0.29846 0.22079 0.0
H4350 H 0.43729 0.26256 0.17853 0.0
H4351 H 0.46425 0.26201 0.16237 0.0
H4352 H 0.44087 0.31192 0.21367 0.0
H4353 H 0.41536 0.23246 0.21952 0.0
H4354 H 0.43853 0.24399 0.21355 0.0
H4355 H 0.41909 0.23886 0.19738 0.0
C4356 C 0.48698 0.28975 0.1987 0.0
C4357 C 0.48537 0.27964 0.18181 0.0
C4358 C 0.47099 0.29029 0.20809 0.0
C4359 C 0.45242 0.28034 0.20142 0.0
C4360 C 0.45093 0.27019 0.18466 0.0
H4361 H 0.33577 0.25643 0.23696 0.0
H4362 H 0.36438 0.25693 0.22292 0.0
C4363 C 0.46676 0.26997 0.17519 0.0
C4364 C 0.43478 0.28066 0.21149 0.0
H4365 H 0.39492 0.2509 0.22703 0.0
C4366 C 0.431 0.29846 0.21665 0.0
C4367 C 0.42107 0.26344 0.2156 0.0
C4368 C 0.4237 0.24358 0.2114 0.0
C4369 C 0.41446 0.29949 0.2249 0.0
C4370 C 0.40076 0.28223 0.22923 0.0
C4371 C 0.40471 0.26444 0.22413 0.0
C4372 C 0.38243 0.28212 0.2385 0.0
C4373 C 0.41158 0.31941 0.228 0.0
C4374 C 0.38171 0.29571 0.2527 0.0
C4375 C 0.36488 0.29555 0.26079 0.0
C4376 C 0.34759 0.28153 0.25556 0.0
C4377 C 0.34836 0.26764 0.24171 0.0
C4378 C 0.36513 0.26792 0.23352 0.0
H4379 H 0.41922 0.32976 0.21886 0.0
H4380 H 0.39666 0.31873 0.22626 0.0
H4381 H 0.41705 0.32544 0.24158 0.0
H4382 H 0.39432 0.30652 0.25791 0.0
H4383 H 0.36552 0.30655 0.27135 0.0
H4384 H 0.62635 0.52988 0.35046 0.0
H4385 H 0.60592 0.52394 0.37443 0.0
H4386 H 0.64713 0.50583 0.40543 0.0
H4387 H 0.66801 0.51251 0.38175 0.0
H4388 H 0.59059 0.49255 0.39282 0.0
H4389 H 0.64081 0.55181 0.43536 0.0
H4390 H 0.6431 0.54777 0.41219 0.0
H4391 H 0.65072 0.53305 0.42769 0.0
C4392 C 0.63094 0.52437 0.3623 0.0
C4393 C 0.64877 0.52185 0.36446 0.0
C4394 C 0.61928 0.52099 0.37592 0.0
C4395 C 0.62529 0.51486 0.39168 0.0
C4396 C 0.64256 0.51103 0.39342 0.0
H4397 H 0.58727 0.50447 0.4944 0.0
H4398 H 0.60136 0.50003 0.46704 0.0
C4399 C 0.65439 0.51478 0.37995 0.0
C4400 C 0.61405 0.51377 0.40675 0.0
H4401 H 0.6154 0.53228 0.44894 0.0
C4402 C 0.59594 0.50117 0.40513 0.0
C4403 C 0.62108 0.52547 0.42254 0.0
C4404 C 0.63991 0.54044 0.42452 0.0
C4405 C 0.58479 0.49941 0.4193 0.0
C4406 C 0.59215 0.51054 0.43527 0.0
C4407 C 0.61008 0.52346 0.43671 0.0
C4408 C 0.58155 0.50962 0.45077 0.0
C4409 C 0.56542 0.48558 0.41714 0.0
C4410 C 0.56564 0.51613 0.45039 0.0
C4411 C 0.5575 0.51848 0.46592 0.0
C4412 C 0.56548 0.51475 0.48194 0.0
C4413 C 0.58101 0.50758 0.48218 0.0
C4414 C 0.58895 0.50493 0.46662 0.0
H4415 H 0.56367 0.47464 0.40576 0.0
H4416 H 0.56199 0.47778 0.42919 0.0
H4417 H 0.55532 0.49407 0.41479 0.0
H4418 H 0.56011 0.52032 0.4383 0.0
H4419 H 0.54555 0.52415 0.46548 0.0
H4420 H 0.31145 0.92359 0.06463 0.0
H4421 H 0.31936 0.91166 0.09251 0.0
H4422 H 0.29597 0.85218 0.07063 0.0
H4423 H 0.28773 0.86391 0.04277 0.0
H4424 H 0.28707 0.85934 0.10503 0.0
H4425 H 0.36281 0.88721 0.09744 0.0
H4426 H 0.35027 0.90519 0.09628 0.0
H4427 H 0.34543 0.88528 0.07958 0.0
C4428 C 0.30764 0.90797 0.06587 0.0
C4429 C 0.29907 0.89464 0.05154 0.0
C4430 C 0.31235 0.90123 0.08171 0.0
C4431 C 0.30862 0.88112 0.08333 0.0
C4432 C 0.29907 0.86778 0.06944 0.0
H4433 H 0.34388 0.81138 0.15809 0.0
H4434 H 0.33936 0.82778 0.13164 0.0
C4435 C 0.2943 0.8745 0.05361 0.0
C4436 C 0.31505 0.87391 0.09937 0.0
H4437 H 0.35405 0.87328 0.12418 0.0
C4438 C 0.30169 0.86238 0.10925 0.0
C4439 C 0.33417 0.8778 0.10456 0.0
C4440 C 0.34904 0.8894 0.09385 0.0
C4441 C 0.30698 0.85476 0.12446 0.0
C4442 C 0.32604 0.85901 0.12985 0.0
C4443 C 0.33945 0.87034 0.11993 0.0
C4444 C 0.33207 0.85136 0.14574 0.0
C4445 C 0.29224 0.84209 0.13465 0.0
C4446 C 0.33007 0.85978 0.16222 0.0
C4447 C 0.33275 0.85059 0.17728 0.0
C4448 C 0.33732 0.83283 0.17596 0.0
C4449 C 0.34048 0.82512 0.15947 0.0
C4450 C 0.33786 0.83439 0.1444 0.0
H4451 H 0.27825 0.83833 0.12753 0.0
H4452 H 0.2957 0.82835 0.13733 0.0
H4453 H 0.29174 0.84993 0.1475 0.0
H4454 H 0.32564 0.87295 0.16332 0.0
H4455 H 0.33055 0.85697 0.1899 0.0
H4456 H 0.97961 0.54535 0.84529 0.0
H4457 H 1.00037 0.54584 0.87097 0.0
H4458 H 0.96454 0.56747 0.90387 0.0
H4459 H 0.94304 0.56614 0.87816 0.0
H4460 H 0.02 0.57369 0.8946 0.0
H4461 H 0.96687 0.51884 0.92654 0.0
H4462 H 0.9633 0.5246 0.90418 0.0
H4463 H 0.95977 0.54018 0.92224 0.0
C4464 C 0.97622 0.55045 0.85796 0.0
C4465 C 0.95971 0.55564 0.85984 0.0
C4466 C 0.98808 0.55067 0.87258 0.0
C4467 C 0.98372 0.55631 0.88924 0.0
C4468 C 0.96778 0.56257 0.89109 0.0
H4469 H 0.03185 0.57213 0.99236 0.0
H4470 H 0.01998 0.57642 0.96298 0.0
C4471 C 0.95564 0.56195 0.87646 0.0
C4472 C 0.99563 0.55499 0.90468 0.0
H4473 H 0.99499 0.5347 0.9439 0.0
C4474 C 0.0146 0.56507 0.90534 0.0
C4475 C 0.98849 0.54332 0.91839 0.0
C4476 C 0.96854 0.53095 0.91774 0.0
C4477 C 0.02655 0.56439 0.91983 0.0
C4478 C 0.01917 0.5536 0.93383 0.0
C4479 C 1.00039 0.54306 0.93299 0.0
C4480 C 0.03022 0.55413 0.95021 0.0
C4481 C 0.04684 0.57543 0.92041 0.0
C4482 C 0.04036 0.54061 0.95234 0.0
C4483 C 0.04722 0.53813 0.96912 0.0
C4484 C 0.04364 0.54899 0.98372 0.0
C4485 C 0.03462 0.56348 0.98128 0.0
C4486 C 0.02795 0.56603 0.96457 0.0
H4487 H 0.05047 0.58292 0.90823 0.0
H4488 H 0.05047 0.58647 0.93185 0.0
H4489 H 0.05537 0.56517 0.92224 0.0
H4490 H 0.04194 0.5312 0.94124 0.0
H4491 H 0.05405 0.52679 0.97079 0.0
H4492 H 0.27695 0.18991 0.57971 0.0
H4493 H 0.27562 0.20083 0.6103 0.0
H4494 H 0.31866 0.25388 0.60415 0.0
H4495 H 0.31915 0.24341 0.57302 0.0
H4496 H 0.29692 0.20691 0.63771 0.0
H4497 H 0.2856 0.27886 0.62775 0.0
H4498 H 0.28491 0.26138 0.60958 0.0
H4499 H 0.30684 0.27699 0.61939 0.0
C4500 C 0.28611 0.20399 0.58479 0.0
C4501 C 0.29812 0.21578 0.57372 0.0
C4502 C 0.28534 0.21027 0.60244 0.0
C4503 C 0.29674 0.22848 0.60986 0.0
C4504 C 0.30914 0.2401 0.5989 0.0
H4505 H 0.32132 0.26917 0.72168 0.0
H4506 H 0.32234 0.26015 0.69043 0.0
C4507 C 0.30961 0.23399 0.58103 0.0
C4508 C 0.29579 0.23476 0.62904 0.0
H4509 H 0.29231 0.27262 0.65734 0.0
C4510 C 0.29582 0.22129 0.64183 0.0
C4511 C 0.29417 0.25347 0.63487 0.0
C4512 C 0.29268 0.26842 0.62216 0.0
C4513 C 0.29455 0.22599 0.65987 0.0
C4514 C 0.29343 0.24476 0.66563 0.0
C4515 C 0.2933 0.25825 0.653 0.0
C4516 C 0.29258 0.25055 0.68475 0.0
C4517 C 0.2943 0.21082 0.67281 0.0
C4518 C 0.27548 0.24825 0.69217 0.0
C4519 C 0.2748 0.25344 0.71019 0.0
C4520 C 0.29123 0.26099 0.72132 0.0
C4521 C 0.30832 0.26329 0.71374 0.0
C4522 C 0.30897 0.25819 0.69576 0.0
H4523 H 0.29496 0.19672 0.66634 0.0
H4524 H 0.30626 0.2163 0.68278 0.0
H4525 H 0.28143 0.2082 0.67985 0.0
H4526 H 0.26261 0.24234 0.68403 0.0
H4527 H 0.26136 0.25137 0.71539 0.0
H4528 H 0.66692 0.55677 0.26043 0.0
H4529 H 0.65012 0.55867 0.23263 0.0
H4530 H 0.61138 0.50251 0.23867 0.0
H4531 H 0.62756 0.50111 0.26711 0.0
H4532 H 0.6418 0.53776 0.20245 0.0
H4533 H 0.57669 0.53544 0.23415 0.0
H4534 H 0.59831 0.53757 0.24669 0.0
H4535 H 0.58439 0.51414 0.23688 0.0
C4536 C 0.65499 0.5447 0.25568 0.0
C4537 C 0.64836 0.52888 0.26585 0.0
C4538 C 0.64538 0.54583 0.23986 0.0
C4539 C 0.62923 0.53098 0.23391 0.0
C4540 C 0.62344 0.51442 0.2434 0.0
H4541 H 0.57116 0.51955 0.13187 0.0
H4542 H 0.5866 0.51406 0.15931 0.0
C4543 C 0.63278 0.51353 0.25948 0.0
C4544 C 0.61823 0.53332 0.21807 0.0
H4545 H 0.57523 0.53533 0.20304 0.0
C4546 C 0.62725 0.53722 0.20259 0.0
C4547 C 0.59931 0.53292 0.21844 0.0
C4548 C 0.58915 0.52999 0.23497 0.0
C4549 C 0.61782 0.54062 0.18736 0.0
C4550 C 0.59886 0.53965 0.18764 0.0
C4551 C 0.58979 0.53586 0.20305 0.0
C4552 C 0.58829 0.54247 0.17186 0.0
C4553 C 0.62815 0.54551 0.17113 0.0
C4554 C 0.58388 0.56011 0.17026 0.0
C4555 C 0.57524 0.56339 0.15457 0.0
C4556 C 0.57094 0.549 0.14043 0.0
C4557 C 0.57469 0.53102 0.14246 0.0
C4558 C 0.58337 0.52781 0.15808 0.0
H4559 H 0.64339 0.54848 0.17387 0.0
H4560 H 0.62324 0.53308 0.16097 0.0
H4561 H 0.62529 0.55852 0.16561 0.0
H4562 H 0.58766 0.5715 0.18092 0.0
H4563 H 0.57254 0.57738 0.15328 0.0
H4564 H 0.29165 0.91088 0.9323 0.0
H4565 H 0.28654 0.88734 0.90683 0.0
H4566 H 0.28401 0.84079 0.94089 0.0
H4567 H 0.28894 0.86413 0.9666 0.0
H4568 H 0.31247 0.86331 0.90231 0.0
H4569 H 0.23829 0.82001 0.90312 0.0
H4570 H 0.24699 0.84437 0.91389 0.0
H4571 H 0.2532 0.82438 0.92316 0.0
C4572 C 0.28972 0.89561 0.93444 0.0
C4573 C 0.2908 0.88938 0.95147 0.0
C4574 C 0.28679 0.88222 0.91989 0.0
C4575 C 0.2848 0.86246 0.92215 0.0
C4576 C 0.28527 0.85601 0.93904 0.0
H4577 H 0.27439 0.77489 0.8342 0.0
H4578 H 0.27386 0.7893 0.86404 0.0
C4579 C 0.28817 0.86939 0.95365 0.0
C4580 C 0.284 0.84912 0.90667 0.0
H4581 H 0.25436 0.81335 0.87907 0.0
C4582 C 0.29984 0.85224 0.89728 0.0
C4583 C 0.2676 0.83449 0.90054 0.0
C4584 C 0.25046 0.83053 0.91061 0.0
C4585 C 0.29947 0.84164 0.8813 0.0
C4586 C 0.28264 0.82805 0.87444 0.0
C4587 C 0.26711 0.82405 0.88435 0.0
C4588 C 0.28071 0.81903 0.85645 0.0
C4589 C 0.31702 0.84535 0.8718 0.0
C4590 C 0.28389 0.83102 0.84243 0.0
C4591 C 0.28447 0.82295 0.82559 0.0
C4592 C 0.28137 0.80274 0.82253 0.0
C4593 C 0.27676 0.79055 0.83633 0.0
C4594 C 0.27652 0.79871 0.8533 0.0
H4595 H 0.32958 0.85101 0.8811 0.0
H4596 H 0.31795 0.83183 0.86444 0.0
H4597 H 0.31709 0.85655 0.86232 0.0
H4598 H 0.28662 0.84672 0.84464 0.0
H4599 H 0.28782 0.83255 0.81506 0.0
H4600 H 0.98645 0.57398 0.77194 0.0
H4601 H 1.00048 0.57197 0.74417 0.0
H4602 H 0.9466 0.54227 0.71831 0.0
H4603 H 0.93238 0.54414 0.74603 0.0
H4604 H 0.99498 0.53262 0.72898 0.0
H4605 H 0.97344 0.58047 0.68236 0.0
H4606 H 0.97425 0.58498 0.70598 0.0
H4607 H 0.95527 0.56637 0.69454 0.0
C4608 C 0.9775 0.56754 0.76024 0.0
C4609 C 0.95838 0.55895 0.76112 0.0
C4610 C 0.98554 0.56649 0.74443 0.0
C4611 C 0.9745 0.55709 0.72934 0.0
C4612 C 0.95522 0.54987 0.72986 0.0
H4613 H 0.98389 0.50224 0.63039 0.0
H4614 H 0.9745 0.51573 0.65734 0.0
C4615 C 0.94716 0.55084 0.74569 0.0
C4616 C 0.9833 0.5516 0.71407 0.0
H4617 H 0.98525 0.55537 0.67003 0.0
C4618 C 0.99317 0.5378 0.71611 0.0
C4619 C 0.98062 0.55833 0.69744 0.0
C4620 C 0.97044 0.57349 0.69489 0.0
C4621 C 0.99985 0.52986 0.70165 0.0
C4622 C 0.99683 0.53627 0.68492 0.0
C4623 C 0.98744 0.55052 0.68296 0.0
C4624 C 1.0026 0.52774 0.66911 0.0
C4625 C 1.00932 0.51408 0.70427 0.0
C4626 C 0.02144 0.53001 0.66708 0.0
C4627 C 0.0268 0.52222 0.65183 0.0
C4628 C 0.01334 0.51231 0.63841 0.0
C4629 C 0.99446 0.5099 0.64058 0.0
C4630 C 0.98912 0.51759 0.65586 0.0
H4631 H 1.00678 0.50781 0.71717 0.0
H4632 H 1.00445 0.50207 0.69369 0.0
H4633 H 0.02452 0.52038 0.7038 0.0
H4634 H 0.03198 0.53811 0.67712 0.0
H4635 H 0.04146 0.52454 0.65026 0.0
H4636 H 0.30964 0.18874 0.45426 0.0
H4637 H 0.31148 0.2026 0.42591 0.0
H4638 H 0.29263 0.25016 0.44737 0.0
H4639 H 0.29086 0.2362 0.47625 0.0
H4640 H 0.28304 0.20743 0.40503 0.0
H4641 H 0.33542 0.27947 0.42021 0.0
H4642 H 0.33217 0.26024 0.43505 0.0
H4643 H 0.31603 0.27457 0.43361 0.0
C4644 C 0.30613 0.20235 0.45316 0.0
C4645 C 0.30013 0.21131 0.46776 0.0
C4646 C 0.30714 0.21025 0.43677 0.0
C4647 C 0.30225 0.22752 0.43421 0.0
C4648 C 0.2968 0.23699 0.44888 0.0
H4649 H 0.29876 0.29041 0.33908 0.0
H4650 H 0.29845 0.27978 0.36879 0.0
C4651 C 0.29582 0.22902 0.46549 0.0
C4652 C 0.30205 0.23459 0.41595 0.0
H4653 H 0.32135 0.27261 0.39126 0.0
C4654 C 0.29143 0.22172 0.40207 0.0
C4655 C 0.31285 0.25324 0.41184 0.0
C4656 C 0.3249 0.26768 0.42589 0.0
C4657 C 0.29116 0.22692 0.38449 0.0
C4658 C 0.30236 0.2454 0.38024 0.0
C4659 C 0.31283 0.25837 0.3942 0.0
C4660 C 0.30298 0.25182 0.36164 0.0
C4661 C 0.2783 0.21262 0.3708 0.0
C4662 C 0.30593 0.23998 0.34725 0.0
C4663 C 0.30579 0.24594 0.32993 0.0
C4664 C 0.30322 0.2642 0.32652 0.0
C4665 C 0.30089 0.27627 0.34101 0.0
C4666 C 0.30071 0.27018 0.35818 0.0
H4667 H 0.26665 0.20252 0.37684 0.0
H4668 H 0.27238 0.22027 0.36076 0.0
H4669 H 0.28615 0.2036 0.36416 0.0
H4670 H 0.30841 0.22605 0.34934 0.0
H4671 H 0.30774 0.23626 0.31924 0.0
H4672 H 0.35175 0.64762 0.54075 0.0
H4673 H 0.37814 0.63455 0.53569 0.0
H4674 H 0.34235 0.57584 0.53689 0.0
H4675 H 0.31613 0.58857 0.54169 0.0
H4676 H 0.39277 0.60522 0.55436 0.0
H4677 H 0.36164 0.58095 0.48621 0.0
H4678 H 0.35529 0.59926 0.4998 0.0
H4679 H 0.34587 0.57375 0.50298 0.0
C4680 C 0.34972 0.63198 0.54037 0.0
C4681 C 0.332 0.61902 0.54131 0.0
C4682 C 0.36467 0.62459 0.53743 0.0
C4683 C 0.36182 0.60434 0.53555 0.0
C4684 C 0.34452 0.59152 0.538 0.0
H4685 H 0.41271 0.51591 0.51368 0.0
H4686 H 0.39196 0.5366 0.51775 0.0
C4687 C 0.32965 0.59881 0.54077 0.0
C4688 C 0.37636 0.59621 0.52973 0.0
H4689 H 0.38532 0.5671 0.49657 0.0
C4690 C 0.39146 0.59719 0.54163 0.0
C4691 C 0.37429 0.58581 0.51309 0.0
C4692 C 0.35847 0.58499 0.4997 0.0
C4693 C 0.40424 0.58701 0.53761 0.0
C4694 C 0.40173 0.57596 0.52124 0.0
C4695 C 0.38701 0.57562 0.50909 0.0
C4696 C 0.41368 0.56374 0.51692 0.0
C4697 C 0.41977 0.58736 0.55116 0.0
C4698 C 0.43236 0.57238 0.51447 0.0
C4699 C 0.44411 0.5607 0.51213 0.0
C4700 C 0.43719 0.5403 0.51216 0.0
C4701 C 0.41823 0.53162 0.51357 0.0
C4702 C 0.40648 0.54335 0.51596 0.0
H4703 H 0.41783 0.59395 0.56419 0.0
H4704 H 0.42078 0.57233 0.55271 0.0
H4705 H 0.43313 0.59613 0.54671 0.0
H4706 H 0.43791 0.58814 0.51486 0.0
H4707 H 0.45869 0.5676 0.51077 0.0
H4708 H 0.837 0.92018 0.54319 0.0
H4709 H 0.86794 0.94259 0.54183 0.0
H4710 H 0.88731 0.89434 0.5225 0.0
H4711 H 0.85559 0.87262 0.52151 0.0
H4712 H 0.89863 0.94772 0.55646 0.0
H4713 H 0.90783 0.92842 0.48718 0.0
H4714 H 0.88741 0.91575 0.49725 0.0
H4715 H 0.90827 0.90844 0.50012 0.0
C4716 C 0.84773 0.91464 0.53787 0.0
C4717 C 0.84368 0.89512 0.53113 0.0
C4718 C 0.86555 0.92733 0.53747 0.0
C4719 C 0.88001 0.9205 0.53123 0.0
C4720 C 0.8763 0.90039 0.52631 0.0
H4721 H 0.99644 0.97142 0.52265 0.0
H4722 H 0.96505 0.951 0.5247 0.0
C4723 C 0.85823 0.88789 0.52594 0.0
C4724 C 0.89886 0.93443 0.5304 0.0
H4725 H 0.93482 0.94874 0.50423 0.0
C4726 C 0.90638 0.94803 0.54491 0.0
C4727 C 0.90932 0.93486 0.51546 0.0
C4728 C 0.90266 0.92118 0.49912 0.0
C4729 C 0.92394 0.9617 0.545 0.0
C4730 C 0.93425 0.96202 0.5301 0.0
C4731 C 0.92681 0.94857 0.51561 0.0
C4732 C 0.95339 0.97508 0.52959 0.0
C4733 C 0.93153 0.97524 0.56128 0.0
C4734 C 0.95739 0.99557 0.53166 0.0
C4735 C 0.97558 0.00747 0.53067 0.0
C4736 C 0.98993 0.99901 0.52731 0.0
C4737 C 0.98576 0.97851 0.52513 0.0
C4738 C 0.96776 0.96673 0.52633 0.0
H4739 H 0.92395 0.97006 0.57293 0.0
H4740 H 0.94651 0.97671 0.56429 0.0
H4741 H 0.93004 0.98994 0.55904 0.0
H4742 H 0.94643 1.00237 0.53381 0.0
H4743 H 0.97837 0.0232 0.53235 0.0
H4744 H 0.8903 0.05937 0.27842 0.0
H4745 H 0.88098 0.08908 0.28281 0.0
H4746 H 0.90288 0.10837 0.23391 0.0
H4747 H 0.91225 0.07826 0.22923 0.0
H4748 H 0.90149 0.13 0.28342 0.0
H4749 H 0.8459 0.10291 0.22873 0.0
H4750 H 0.85805 0.08705 0.23833 0.0
H4751 H 0.86953 0.10495 0.2241 0.0
C4752 C 0.89324 0.06994 0.26861 0.0
C4753 C 0.90168 0.06643 0.25333 0.0
C4754 C 0.8881 0.08696 0.27124 0.0
C4755 C 0.89125 0.10069 0.25864 0.0
C4756 C 0.90039 0.09775 0.2437 0.0
H4757 H 0.848 0.20068 0.27815 0.0
H4758 H 0.86994 0.18196 0.27217 0.0
C4759 C 0.90567 0.08065 0.24107 0.0
C4760 C 0.88306 0.11687 0.26063 0.0
H4761 H 0.84445 0.12961 0.24718 0.0
C4762 C 0.88926 0.13032 0.27532 0.0
C4763 C 0.867 0.11678 0.25007 0.0
C4764 C 0.85957 0.10213 0.23446 0.0
C4765 C 0.87917 0.1432 0.2803 0.0
C4766 C 0.86272 0.14254 0.27013 0.0
C4767 C 0.85708 0.12982 0.25492 0.0
C4768 C 0.8504 0.15402 0.27553 0.0
C4769 C 0.88553 0.1566 0.29685 0.0
C4770 C 0.83233 0.14432 0.27949 0.0
C4771 C 0.81973 0.15487 0.28264 0.0
C4772 C 0.82512 0.17519 0.28178 0.0
C4773 C 0.84351 0.18494 0.27862 0.0
C4774 C 0.85607 0.17437 0.27539 0.0
H4775 H 0.89666 0.15278 0.30483 0.0
H4776 H 0.89105 0.17186 0.29328 0.0
H4777 H 0.87372 0.15605 0.30506 0.0
H4778 H 0.82785 0.12854 0.2796 0.0
H4779 H 0.80559 0.14707 0.28492 0.0
H4780 H 0.7261 0.14294 0.0329 0.0
H4781 H 0.69531 0.12319 0.03958 0.0
H4782 H 0.72084 0.0957 0.07889 0.0
H4783 H 0.75143 0.11417 0.07108 0.0
H4784 H 0.69698 0.06965 0.06118 0.0
H4785 H 0.66344 0.12671 0.07783 0.0
H4786 H 0.67182 0.13032 0.05649 0.0
H4787 H 0.68805 0.13243 0.07537 0.0
C4788 C 0.72493 0.13273 0.04299 0.0
C4789 C 0.74076 0.12967 0.05136 0.0
C4790 C 0.70746 0.1217 0.04703 0.0
C4791 C 0.7058 0.10835 0.0601 0.0
C4792 C 0.7218 0.10597 0.06886 0.0
H4793 H 0.59024 0.04812 0.07239 0.0
H4794 H 0.62292 0.06173 0.08286 0.0
C4795 C 0.73918 0.11645 0.0644 0.0
C4796 C 0.68749 0.09546 0.06332 0.0
H4797 H 0.64248 0.09503 0.06625 0.0
C4798 C 0.6851 0.07522 0.06228 0.0
C4799 C 0.67216 0.10273 0.066 0.0
C4800 C 0.6741 0.12426 0.0692 0.0
C4801 C 0.66743 0.06202 0.06163 0.0
C4802 C 0.65199 0.06938 0.06245 0.0
C4803 C 0.65448 0.08952 0.0654 0.0
C4804 C 0.63315 0.05695 0.05761 0.0
C4805 C 0.66533 0.0404 0.05917 0.0
C4806 C 0.62841 0.04932 0.04012 0.0
C4807 C 0.60987 0.04177 0.03406 0.0
C4808 C 0.59595 0.04182 0.04547 0.0
C4809 C 0.60077 0.048 0.06334 0.0
C4810 C 0.61935 0.05571 0.06935 0.0
H4811 H 0.67811 0.03693 0.06418 0.0
H4812 H 0.65337 0.0319 0.06595 0.0
H4813 H 0.66283 0.03567 0.04493 0.0
H4814 H 0.63897 0.0505 0.03086 0.0
H4815 H 0.60646 0.03689 0.02027 0.0
H4816 H 0.14859 0.45887 0.26734 0.0
H4817 H 0.15895 0.42995 0.27298 0.0
H4818 H 0.20831 0.45373 0.2462 0.0
H4819 H 0.19812 0.48258 0.24076 0.0
H4820 H 0.19095 0.40872 0.24468 0.0
H4821 H 0.20762 0.45182 0.30989 0.0
H4822 H 0.18433 0.44607 0.29972 0.0
H4823 H 0.20296 0.46272 0.29007 0.0
C4824 C 0.16113 0.4573 0.2619 0.0
C4825 C 0.17274 0.47265 0.25375 0.0
C4826 C 0.167 0.44092 0.26512 0.0
C4827 C 0.18435 0.44003 0.26007 0.0
C4828 C 0.19481 0.4543 0.25005 0.0
H4829 H 0.27954 0.41155 0.29327 0.0
H4830 H 0.25431 0.42638 0.28737 0.0
C4831 C 0.18906 0.4707 0.247 0.0
C4832 C 0.19368 0.42723 0.26846 0.0
H4833 H 0.22086 0.42619 0.30541 0.0
C4834 C 0.19711 0.41206 0.2581 0.0
C4835 C 0.20196 0.43228 0.28581 0.0
C4836 C 0.19918 0.44915 0.29709 0.0
C4837 C 0.20929 0.40206 0.26453 0.0
C4838 C 0.2179 0.40744 0.28174 0.0
C4839 C 0.21395 0.42214 0.2923 0.0
C4840 C 0.2325 0.39931 0.28828 0.0
C4841 C 0.21371 0.38666 0.25259 0.0
C4842 C 0.22823 0.3796 0.29156 0.0
C4843 C 0.24249 0.37122 0.29499 0.0
C4844 C 0.26106 0.38257 0.29515 0.0
C4845 C 0.26527 0.40267 0.29329 0.0
C4846 C 0.25096 0.41105 0.28984 0.0
H4847 H 0.20784 0.38629 0.23885 0.0
H4848 H 0.22898 0.3893 0.25255 0.0
H4849 H 0.20783 0.37208 0.25753 0.0
H4850 H 0.21395 0.37055 0.29062 0.0
H4851 H 0.23907 0.35567 0.29655 0.0
H4852 H 0.2663 0.42329 0.02537 0.0
H4853 H 0.23902 0.43465 0.02554 0.0
H4854 H 0.20484 0.37583 0.02978 0.0
H4855 H 0.23274 0.36402 0.02988 0.0
H4856 H 0.20893 0.4221 1.00001 0.0
H4857 H 0.18798 0.40966 0.06813 0.0
H4858 H 0.21098 0.41029 0.06209 0.0
H4859 H 0.19167 0.38953 0.05498 0.0
C4860 C 0.2531 0.41261 0.02655 0.0
C4861 C 0.25173 0.39263 0.02753 0.0
C4862 C 0.23747 0.41922 0.0266 0.0
C4863 C 0.21995 0.40611 0.0276 0.0
C4864 C 0.21835 0.38619 0.02913 0.0
H4865 H 0.12087 0.44761 0.03113 0.0
H4866 H 0.14059 0.42567 0.02906 0.0
C4867 C 0.23423 0.37947 0.0292 0.0
C4868 C 0.20366 0.41381 0.0263 0.0
H4869 H 0.1721 0.42694 0.05096 0.0
C4870 C 0.20063 0.42287 0.01104 0.0
C4871 C 0.19296 0.41482 0.04071 0.0
C4872 C 0.19601 0.40567 0.05749 0.0
C4873 C 0.18765 0.43357 0.01005 0.0
C4874 C 0.17761 0.43542 0.02479 0.0
C4875 C 0.17992 0.42553 0.03972 0.0
C4876 C 0.16554 0.44855 0.02541 0.0
C4877 C 0.18507 0.4431 0.99335 0.0
C4878 C 0.17313 0.46868 0.02418 0.0
C4879 C 0.16198 0.48128 0.02551 0.0
C4880 C 0.14301 0.47398 0.02817 0.0
C4881 C 0.13546 0.45375 0.02929 0.0
C4882 C 0.14666 0.44117 0.02802 0.0
H4883 H 0.18936 0.43563 0.98187 0.0
H4884 H 0.17039 0.44303 0.99067 0.0
H4885 H 0.19385 0.45851 0.99474 0.0
H4886 H 0.18779 0.47472 0.02258 0.0
H4887 H 0.16835 0.4968 0.02495 0.0
H4888 H 0.88018 0.97203 0.22413 0.0
H4889 H 0.86433 0.93735 0.22324 0.0
H4890 H 0.91687 0.92578 0.23589 0.0
H4891 H 0.93198 0.96102 0.23989 0.0
H4892 H 0.86241 0.90688 0.20733 0.0
H4893 H 0.89396 0.89793 0.27323 0.0
H4894 H 0.90053 0.92098 0.26382 0.0
H4895 H 0.90943 0.90151 0.25598 0.0
C4896 C 0.88806 0.96205 0.2276 0.0
C4897 C 0.90672 0.96903 0.23381 0.0
C4898 C 0.87919 0.94214 0.22653 0.0
C4899 C 0.88919 0.92877 0.23048 0.0
C4900 C 0.90855 0.93574 0.23406 0.0
H4901 H 0.8259 0.80849 0.24625 0.0
H4902 H 0.84905 0.83467 0.23388 0.0
C4903 C 0.91721 0.95582 0.23616 0.0
C4904 C 0.87877 0.90803 0.2318 0.0
H4905 H 0.86875 0.87284 0.26101 0.0
C4906 C 0.86396 0.89947 0.21907 0.0
C4907 C 0.88108 0.8978 0.24681 0.0
C4908 C 0.89701 0.90503 0.26076 0.0
C4909 C 0.85034 0.88232 0.22187 0.0
C4910 C 0.85197 0.87324 0.23744 0.0
C4911 C 0.8676 0.8804 0.24927 0.0
C4912 C 0.83684 0.85728 0.24257 0.0
C4913 C 0.83379 0.87447 0.20873 0.0
C4914 C 0.82238 0.86159 0.25127 0.0
C4915 C 0.80933 0.84676 0.25849 0.0
C4916 C 0.81086 0.82769 0.25708 0.0
C4917 C 0.82481 0.82327 0.24769 0.0
C4918 C 0.83787 0.83807 0.24053 0.0
H4919 H 0.83565 0.88183 0.19628 0.0
H4920 H 0.83126 0.8585 0.20576 0.0
H4921 H 0.82125 0.87672 0.21448 0.0
H4922 H 0.82165 0.87651 0.25304 0.0
H4923 H 0.7986 0.85028 0.26577 0.0
H4924 H 0.66329 0.08802 0.76752 0.0
H4925 H 0.68597 0.12034 0.76696 0.0
H4926 H 0.72608 0.09283 0.74772 0.0
H4927 H 0.70347 0.06077 0.74789 0.0
H4928 H 0.73613 0.12038 0.78069 0.0
H4929 H 0.70897 0.14921 0.72195 0.0
H4930 H 0.69254 0.13774 0.73709 0.0
H4931 H 0.70409 0.12331 0.72457 0.0
C4932 C 0.67694 0.08904 0.76311 0.0
C4933 C 0.68204 0.07217 0.75832 0.0
C4934 C 0.68973 0.10733 0.7627 0.0
C4935 C 0.70749 0.1087 0.75723 0.0
C4936 C 0.71236 0.09187 0.75193 0.0
H4937 H 0.79193 0.21852 0.74699 0.0
H4938 H 0.77516 0.1836 0.74262 0.0
C4939 C 0.69959 0.07368 0.75225 0.0
C4940 C 0.72156 0.12759 0.75828 0.0
H4941 H 0.73379 0.17112 0.73993 0.0
C4942 C 0.73587 0.13133 0.77165 0.0
C4943 C 0.72094 0.1417 0.74634 0.0
C4944 C 0.7059 0.13787 0.73157 0.0
C4945 C 0.74948 0.14924 0.77381 0.0
C4946 C 0.74842 0.16369 0.76238 0.0
C4947 C 0.73448 0.15978 0.74856 0.0
C4948 C 0.76017 0.18371 0.76593 0.0
C4949 C 0.76456 0.15279 0.78854 0.0
C4950 C 0.7573 0.19484 0.7806 0.0
C4951 C 0.76661 0.21459 0.78303 0.0
C4952 C 0.77893 0.22333 0.77082 0.0
C4953 C 0.7825 0.21196 0.75658 0.0
C4954 C 0.77297 0.19217 0.75404 0.0
H4955 H 0.76647 0.13885 0.79285 0.0
H4956 H 0.77799 0.16191 0.78449 0.0
H4957 H 0.76068 0.16069 0.79997 0.0
H4958 H 0.7473 0.1884 0.78977 0.0
H4959 H 0.76382 0.22313 0.79419 0.0
loop_
_geom_bond_atom_site_label_1
_geom_bond_atom_site_label_2
_geom_bond_distance
_geom_bond_site_symmetry_2
_ccdc_geom_bond_type
Mn0 O5 2.095 . S
Mn0 O15 2.162 . S
Mn0 O16 2.297 . S
Mn0 O24 2.385 1_455 S
Mn0 O25 2.209 . S
Mn0 O26 2.094 . S
Mn1 O6 2.121 . S
Mn1 N8 2.257 . S
Mn1 N17 2.282 . S
Mn1 O25 2.215 . S
Mn1 O27 2.117 . S
C2 O24 1.237 . S
C2 O25 1.266 1_655 S
C3 O15 1.281 . S
C3 O16 1.236 . S
C4 O26 1.240 . S
C4 O27 1.264 . S
O5 Mn0 2.095 . S
O5 C14 1.250 . S
O6 Mn1 2.121 . S
O6 C14 1.258 . S
C7 N8 1.326 . S
C7 C11 1.460 . S
C7 H13 0.929 . S
N8 Mn1 2.257 . S
N8 C7 1.326 . S
N8 C12 1.362 . S
C9 C10 1.261 1_655 S
C9 C12 1.432 1_655 S
C9 C29 1.444 . S
C10 C9 1.261 1_455 S
C10 C11 1.477 . S
C10 H30 0.931 . S
C11 C7 1.460 . S
C11 C10 1.477 . S
C11 H31 0.930 . S
C12 N8 1.362 . S
C12 C9 1.432 1_455 S
C12 C22 1.476 1_455 S
H13 C7 0.929 . S
C14 O5 1.250 . S
C14 O6 1.258 . S
O15 Mn0 2.162 . S
O15 C3 1.281 . S
O16 Mn0 2.297 . S
O16 C3 1.236 . S
N17 Mn1 2.282 . S
N17 C18 1.328 1_455 S
N17 C22 1.318 1_455 S
C18 N17 1.328 1_655 S
C18 C19 1.457 . S
C18 H23 0.929 1_655 S
C19 C18 1.457 . S
C19 C20 1.291 . S
C19 H32 0.931 . S
C20 C19 1.291 . S
C20 C21 1.373 . S
C20 H33 0.929 . S
C21 C20 1.373 . S
C21 C22 1.396 . S
C21 C28 1.403 . S
C22 C12 1.476 1_655 S
C22 N17 1.318 1_655 S
C22 C21 1.396 . S
H23 C18 0.929 1_455 S
O24 Mn0 2.385 1_655 S
O24 C2 1.237 . S
O25 Mn0 2.209 . S
O25 Mn1 2.215 . S
O25 C2 1.266 1_455 S
O26 Mn0 2.094 . S
O26 C4 1.240 . S
O27 Mn1 2.117 . S
O27 C4 1.264 . S
C28 C21 1.403 . S
C28 C29 1.399 . S
C28 H34 0.929 . S
C29 C9 1.444 . S
C29 C28 1.399 . S
C29 H35 0.930 . S
H30 C10 0.931 . S
H31 C11 0.930 . S
H32 C19 0.931 . S
H33 C20 0.929 . S
H34 C28 0.929 . S
H35 C29 0.930 . S
Mn36 O41 2.095 . S
Mn36 O51 2.162 . S
Mn36 O52 2.297 . S
Mn36 O60 2.385 . S
Mn36 O61 2.209 . S
Mn36 O62 2.094 . S
Mn37 O42 2.121 . S
Mn37 N44 2.257 . S
Mn37 N53 2.282 . S
Mn37 O61 2.215 . S
Mn37 O63 2.117 . S
C38 O60 1.234 . S
C38 O61 1.283 . S
C39 O51 1.281 . S
C39 O52 1.236 . S
C40 O62 1.240 . S
C40 O63 1.264 . S
O41 Mn36 2.095 . S
O41 C50 1.250 . S
O42 Mn37 2.121 . S
O42 C50 1.258 . S
C43 N44 1.326 . S
C43 C47 1.460 . S
C43 H49 0.929 . S
N44 Mn37 2.257 . S
N44 C43 1.326 . S
N44 C48 1.362 . S
C45 C46 1.258 . S
C45 C48 1.431 . S
C45 C65 1.449 . S
C46 C45 1.258 . S
C46 C47 1.477 . S
C46 H66 0.931 . S
C47 C43 1.460 . S
C47 C46 1.477 . S
C47 H67 0.930 . S
C48 N44 1.362 . S
C48 C45 1.431 . S
C48 C58 1.476 . S
H49 C43 0.929 . S
C50 O41 1.250 . S
C50 O42 1.258 . S
O51 Mn36 2.162 . S
O51 C39 1.281 . S
O52 Mn36 2.297 . S
O52 C39 1.236 . S
N53 Mn37 2.282 . S
N53 C54 1.328 . S
N53 C58 1.318 . S
C54 N53 1.328 . S
C54 C55 1.457 . S
C54 H59 0.929 . S
C55 C54 1.457 . S
C55 C56 1.291 . S
C55 H68 0.931 . S
C56 C55 1.291 . S
C56 C57 1.373 . S
C56 H69 0.929 . S
C57 C56 1.373 . S
C57 C58 1.396 . S
C57 C64 1.403 . S
C58 C48 1.476 . S
C58 N53 1.318 . S
C58 C57 1.396 . S
H59 C54 0.929 . S
O60 Mn36 2.385 . S
O60 C38 1.234 . S
O61 Mn36 2.209 . S
O61 Mn37 2.215 . S
O61 C38 1.283 . S
O62 Mn36 2.094 . S
O62 C40 1.240 . S
O63 Mn37 2.117 . S
O63 C40 1.264 . S
C64 C57 1.403 . S
C64 C65 1.399 . S
C64 H70 0.929 . S
C65 C45 1.449 . S
C65 C64 1.399 . S
C65 H71 0.930 . S
H66 C46 0.931 . S
H67 C47 0.930 . S
H68 C55 0.931 . S
H69 C56 0.929 . S
H70 C64 0.929 . S
H71 C65 0.930 . S
Mn72 O77 2.095 . S
Mn72 O87 2.162 . S
Mn72 O88 2.297 . S
Mn72 O96 2.385 . S
Mn72 O97 2.209 . S
Mn72 O98 2.094 . S
Mn73 O78 2.121 . S
Mn73 N80 2.257 . S
Mn73 N89 2.282 . S
Mn73 O97 2.215 . S
Mn73 O99 2.117 . S
C74 O96 1.234 . S
C74 O97 1.283 . S
C75 O87 1.281 . S
C75 O88 1.236 . S
C76 O98 1.240 . S
C76 O99 1.264 . S
O77 Mn72 2.095 . S
O77 C86 1.250 . S
O78 Mn73 2.121 . S
O78 C86 1.258 . S
C79 N80 1.326 . S
C79 C83 1.460 . S
C79 H85 0.929 . S
N80 Mn73 2.257 . S
N80 C79 1.326 . S
N80 C84 1.362 . S
C81 C82 1.258 . S
C81 C84 1.431 . S
C81 C101 1.449 . S
C82 C81 1.258 . S
C82 C83 1.477 . S
C82 H102 0.931 . S
C83 C79 1.460 . S
C83 C82 1.477 . S
C83 H103 0.930 . S
C84 N80 1.362 . S
C84 C81 1.431 . S
C84 C94 1.476 . S
H85 C79 0.929 . S
C86 O77 1.250 . S
C86 O78 1.258 . S
O87 Mn72 2.162 . S
O87 C75 1.281 . S
O88 Mn72 2.297 . S
O88 C75 1.236 . S
N89 Mn73 2.282 . S
N89 C90 1.328 . S
N89 C94 1.318 . S
C90 N89 1.328 . S
C90 C91 1.457 . S
C90 H95 0.929 . S
C91 C90 1.457 . S
C91 C92 1.291 . S
C91 H104 0.931 . S
C92 C91 1.291 . S
C92 C93 1.373 . S
C92 H105 0.929 . S
C93 C92 1.373 . S
C93 C94 1.396 . S
C93 C100 1.403 . S
C94 C84 1.476 . S
C94 N89 1.318 . S
C94 C93 1.396 . S
H95 C90 0.929 . S
O96 Mn72 2.385 . S
O96 C74 1.234 . S
O97 Mn72 2.209 . S
O97 Mn73 2.215 . S
O97 C74 1.283 . S
O98 Mn72 2.094 . S
O98 C76 1.240 . S
O99 Mn73 2.117 . S
O99 C76 1.264 . S
C100 C93 1.403 . S
C100 C101 1.399 . S
C100 H106 0.929 . S
C101 C81 1.449 . S
C101 C100 1.399 . S
C101 H107 0.930 . S
H102 C82 0.931 . S
H103 C83 0.930 . S
H104 C91 0.931 . S
H105 C92 0.929 . S
H106 C100 0.929 . S
H107 C101 0.930 . S
Mn108 O113 2.095 . S
Mn108 O123 2.162 . S
Mn108 O124 2.297 . S
Mn108 O132 2.385 . S
Mn108 O133 2.209 . S
Mn108 O134 2.094 . S
Mn109 O114 2.121 . S
Mn109 N116 2.257 . S
Mn109 N125 2.282 . S
Mn109 O133 2.215 . S
Mn109 O135 2.117 . S
C110 O132 1.234 . S
C110 O133 1.283 . S
C111 O123 1.281 . S
C111 O124 1.236 . S
C112 O134 1.240 . S
C112 O135 1.264 . S
O113 Mn108 2.095 . S
O113 C122 1.250 . S
O114 Mn109 2.121 . S
O114 C122 1.258 . S
C115 N116 1.326 . S
C115 C119 1.460 . S
C115 H121 0.929 . S
N116 Mn109 2.257 . S
N116 C115 1.326 . S
N116 C120 1.362 . S
C117 C118 1.258 . S
C117 C120 1.431 . S
C117 C137 1.449 . S
C118 C117 1.258 . S
C118 C119 1.477 . S
C118 H138 0.931 . S
C119 C115 1.460 . S
C119 C118 1.477 . S
C119 H139 0.930 . S
C120 N116 1.362 . S
C120 C117 1.431 . S
C120 C130 1.476 . S
H121 C115 0.929 . S
C122 O113 1.250 . S
C122 O114 1.258 . S
O123 Mn108 2.162 . S
O123 C111 1.281 . S
O124 Mn108 2.297 . S
O124 C111 1.236 . S
N125 Mn109 2.282 . S
N125 C126 1.328 . S
N125 C130 1.318 . S
C126 N125 1.328 . S
C126 C127 1.457 . S
C126 H131 0.929 . S
C127 C126 1.457 . S
C127 C128 1.291 . S
C127 H140 0.931 . S
C128 C127 1.291 . S
C128 C129 1.373 . S
C128 H141 0.929 . S
C129 C128 1.373 . S
C129 C130 1.396 . S
C129 C136 1.403 . S
C130 C120 1.476 . S
C130 N125 1.318 . S
C130 C129 1.396 . S
H131 C126 0.929 . S
O132 Mn108 2.385 . S
O132 C110 1.234 . S
O133 Mn108 2.209 . S
O133 Mn109 2.215 . S
O133 C110 1.283 . S
O134 Mn108 2.094 . S
O134 C112 1.240 . S
O135 Mn109 2.117 . S
O135 C112 1.264 . S
C136 C129 1.403 . S
C136 C137 1.399 . S
C136 H142 0.929 . S
C137 C117 1.449 . S
C137 C136 1.399 . S
C137 H143 0.930 . S
H138 C118 0.931 . S
H139 C119 0.930 . S
H140 C127 0.931 . S
H141 C128 0.929 . S
H142 C136 0.929 . S
H143 C137 0.930 . S
Mn144 O149 2.095 . S
Mn144 O159 2.162 . S
Mn144 O160 2.297 . S
Mn144 O168 2.385 . S
Mn144 O169 2.209 . S
Mn144 O170 2.094 . S
Mn145 O150 2.121 . S
Mn145 N152 2.257 . S
Mn145 N161 2.282 . S
Mn145 O169 2.215 . S
Mn145 O171 2.117 . S
C146 O168 1.234 . S
C146 O169 1.283 . S
C147 O159 1.281 . S
C147 O160 1.236 . S
C148 O170 1.240 . S
C148 O171 1.264 . S
O149 Mn144 2.095 . S
O149 C158 1.250 . S
O150 Mn145 2.121 . S
O150 C158 1.258 . S
C151 N152 1.326 . S
C151 C155 1.460 . S
C151 H157 0.929 . S
N152 Mn145 2.257 . S
N152 C151 1.326 . S
N152 C156 1.362 . S
C153 C154 1.258 . S
C153 C156 1.431 . S
C153 C173 1.449 . S
C154 C153 1.258 . S
C154 C155 1.477 . S
C154 H174 0.931 . S
C155 C151 1.460 . S
C155 C154 1.477 . S
C155 H175 0.930 . S
C156 N152 1.362 . S
C156 C153 1.431 . S
C156 C166 1.476 . S
H157 C151 0.929 . S
C158 O149 1.250 . S
C158 O150 1.258 . S
O159 Mn144 2.162 . S
O159 C147 1.281 . S
O160 Mn144 2.297 . S
O160 C147 1.236 . S
N161 Mn145 2.282 . S
N161 C162 1.328 . S
N161 C166 1.318 . S
C162 N161 1.328 . S
C162 C163 1.457 . S
C162 H167 0.929 . S
C163 C162 1.457 . S
C163 C164 1.291 . S
C163 H176 0.922 1_455 S
C164 C163 1.291 . S
C164 C165 1.373 . S
C164 H177 0.929 1_455 S
C165 C164 1.373 . S
C165 C166 1.396 . S
C165 C172 1.403 . S
C166 C156 1.476 . S
C166 N161 1.318 . S
C166 C165 1.396 . S
H167 C162 0.929 . S
O168 Mn144 2.385 . S
O168 C146 1.234 . S
O169 Mn144 2.209 . S
O169 Mn145 2.215 . S
O169 C146 1.283 . S
O170 Mn144 2.094 . S
O170 C148 1.240 . S
O171 Mn145 2.117 . S
O171 C148 1.264 . S
C172 C165 1.403 . S
C172 C173 1.399 . S
C172 H178 0.929 . S
C173 C153 1.449 . S
C173 C172 1.399 . S
C173 H179 0.930 . S
H174 C154 0.931 . S
H175 C155 0.930 . S
H176 C163 0.922 1_655 S
H177 C164 0.929 1_655 S
H178 C172 0.929 . S
H179 C173 0.930 . S
Mn180 O185 2.095 . S
Mn180 O195 2.162 . S
Mn180 O196 2.297 . S
Mn180 O204 2.385 . S
Mn180 O205 2.209 . S
Mn180 O206 2.094 . S
Mn181 O186 2.121 . S
Mn181 N188 2.257 . S
Mn181 N197 2.282 . S
Mn181 O205 2.215 . S
Mn181 O207 2.117 . S
C182 O204 1.234 . S
C182 O205 1.283 . S
C183 O195 1.281 . S
C183 O196 1.236 . S
C184 O206 1.240 . S
C184 O207 1.264 . S
O185 Mn180 2.095 . S
O185 C194 1.250 . S
O186 Mn181 2.121 . S
O186 C194 1.258 . S
C187 N188 1.326 . S
C187 C191 1.460 . S
C187 H193 0.929 . S
N188 Mn181 2.257 . S
N188 C187 1.326 . S
N188 C192 1.362 . S
C189 C190 1.258 . S
C189 C192 1.431 . S
C189 C209 1.449 . S
C190 C189 1.258 . S
C190 C191 1.477 . S
C190 H210 0.931 . S
C191 C187 1.460 . S
C191 C190 1.477 . S
C191 H211 0.930 . S
C192 N188 1.362 . S
C192 C189 1.431 . S
C192 C202 1.476 . S
H193 C187 0.929 . S
C194 O185 1.250 . S
C194 O186 1.258 . S
O195 Mn180 2.162 . S
O195 C183 1.281 . S
O196 Mn180 2.297 . S
O196 C183 1.236 . S
N197 Mn181 2.282 . S
N197 C198 1.328 . S
N197 C202 1.318 . S
C198 N197 1.328 . S
C198 C199 1.457 . S
C198 H203 0.929 . S
C199 C198 1.457 . S
C199 C200 1.291 . S
C199 H212 0.931 . S
C200 C199 1.291 . S
C200 C201 1.373 . S
C200 H213 0.929 . S
C201 C200 1.373 . S
C201 C202 1.396 . S
C201 C208 1.403 . S
C202 C192 1.476 . S
C202 N197 1.318 . S
C202 C201 1.396 . S
H203 C198 0.929 . S
O204 Mn180 2.385 . S
O204 C182 1.234 . S
O205 Mn180 2.209 . S
O205 Mn181 2.215 . S
O205 C182 1.283 . S
O206 Mn180 2.094 . S
O206 C184 1.240 . S
O207 Mn181 2.117 . S
O207 C184 1.264 . S
C208 C201 1.403 . S
C208 C209 1.399 . S
C208 H214 0.929 . S
C209 C189 1.449 . S
C209 C208 1.399 . S
C209 H215 0.930 . S
H210 C190 0.931 . S
H211 C191 0.930 . S
H212 C199 0.931 . S
H213 C200 0.929 . S
H214 C208 0.929 . S
H215 C209 0.930 . S
Mn216 O221 2.095 . S
Mn216 O231 2.162 . S
Mn216 O232 2.297 . S
Mn216 O240 2.385 . S
Mn216 O241 2.209 . S
Mn216 O242 2.094 . S
Mn217 O222 2.121 . S
Mn217 N224 2.257 . S
Mn217 N233 2.282 . S
Mn217 O241 2.215 . S
Mn217 O243 2.117 . S
C218 O240 1.234 . S
C218 O241 1.283 . S
C219 O231 1.281 . S
C219 O232 1.236 . S
C220 O242 1.240 . S
C220 O243 1.264 . S
O221 Mn216 2.095 . S
O221 C230 1.250 . S
O222 Mn217 2.121 . S
O222 C230 1.258 . S
C223 N224 1.326 . S
C223 C227 1.460 . S
C223 H229 0.929 . S
N224 Mn217 2.257 . S
N224 C223 1.326 . S
N224 C228 1.362 . S
C225 C226 1.258 . S
C225 C228 1.431 . S
C225 C245 1.449 . S
C226 C225 1.258 . S
C226 C227 1.477 . S
C226 H246 0.931 . S
C227 C223 1.460 . S
C227 C226 1.477 . S
C227 H247 0.930 . S
C228 N224 1.362 . S
C228 C225 1.431 . S
C228 C238 1.476 . S
H229 C223 0.929 . S
C230 O221 1.250 . S
C230 O222 1.258 . S
O231 Mn216 2.162 . S
O231 C219 1.281 . S
O232 Mn216 2.297 . S
O232 C219 1.236 . S
N233 Mn217 2.282 . S
N233 C234 1.328 . S
N233 C238 1.318 . S
C234 N233 1.328 . S
C234 C235 1.457 . S
C234 H239 0.929 . S
C235 C234 1.457 . S
C235 C236 1.291 . S
C235 H248 0.931 . S
C236 C235 1.291 . S
C236 C237 1.373 . S
C236 H249 0.929 . S
C237 C236 1.373 . S
C237 C238 1.396 . S
C237 C244 1.403 . S
C238 C228 1.476 . S
C238 N233 1.318 . S
C238 C237 1.396 . S
H239 C234 0.929 . S
O240 Mn216 2.385 . S
O240 C218 1.234 . S
O241 Mn216 2.209 . S
O241 Mn217 2.215 . S
O241 C218 1.283 . S
O242 Mn216 2.094 . S
O242 C220 1.240 . S
O243 Mn217 2.117 . S
O243 C220 1.264 . S
C244 C237 1.403 . S
C244 C245 1.399 . S
C244 H250 0.929 . S
C245 C225 1.449 . S
C245 C244 1.399 . S
C245 H251 0.930 . S
H246 C226 0.931 . S
H247 C227 0.930 . S
H248 C235 0.931 . S
H249 C236 0.929 . S
H250 C244 0.929 . S
H251 C245 0.930 . S
Mn252 O257 2.042 1_655 S
Mn252 O267 2.154 . S
Mn252 O268 2.289 . S
Mn252 O276 2.443 . S
Mn252 O277 2.236 . S
Mn252 O278 2.103 1_655 S
Mn253 O258 2.121 . S
Mn253 N260 2.257 1_455 S
Mn253 N269 2.282 1_455 S
Mn253 O277 2.215 1_455 S
Mn253 O279 2.117 . S
C254 O276 1.234 . S
C254 O277 1.283 . S
C255 O267 1.281 . S
C255 O268 1.236 . S
C256 O278 1.240 . S
C256 O279 1.264 . S
O257 Mn252 2.042 1_455 S
O257 C266 1.250 . S
O258 Mn253 2.121 . S
O258 C266 1.258 . S
C259 N260 1.310 1_455 S
C259 C263 1.454 1_455 S
C259 H265 0.952 . S
N260 Mn253 2.257 1_655 S
N260 C259 1.310 1_655 S
N260 C264 1.362 . S
C261 C262 1.258 . S
C261 C264 1.431 . S
C261 C281 1.449 . S
C262 C261 1.258 . S
C262 C263 1.477 . S
C262 H282 0.931 . S
C263 C259 1.454 1_655 S
C263 C262 1.477 . S
C263 H283 0.941 . S
C264 N260 1.362 . S
C264 C261 1.431 . S
C264 C274 1.476 . S
H265 C259 0.952 . S
C266 O257 1.250 . S
C266 O258 1.258 . S
O267 Mn252 2.154 . S
O267 C255 1.281 . S
O268 Mn252 2.289 . S
O268 C255 1.236 . S
N269 Mn253 2.282 1_655 S
N269 C270 1.328 . S
N269 C274 1.318 . S
C270 N269 1.328 . S
C270 C271 1.457 . S
C270 H275 0.929 . S
C271 C270 1.457 . S
C271 C272 1.291 . S
C271 H284 0.931 . S
C272 C271 1.291 . S
C272 C273 1.373 . S
C272 H285 0.929 . S
C273 C272 1.373 . S
C273 C274 1.396 . S
C273 C280 1.403 . S
C274 C264 1.476 . S
C274 N269 1.318 . S
C274 C273 1.396 . S
H275 C270 0.929 . S
O276 Mn252 2.443 . S
O276 C254 1.234 . S
O277 Mn252 2.236 . S
O277 Mn253 2.215 1_655 S
O277 C254 1.283 . S
O278 Mn252 2.103 1_455 S
O278 C256 1.240 . S
O279 Mn253 2.117 . S
O279 C256 1.264 . S
C280 C273 1.403 . S
C280 C281 1.399 . S
C280 H286 0.929 . S
C281 C261 1.449 . S
C281 C280 1.399 . S
C281 H287 0.930 . S
H282 C262 0.931 . S
H283 C263 0.941 . S
H284 C271 0.931 . S
H285 C272 0.929 . S
H286 C280 0.929 . S
H287 C281 0.930 . S
Mn288 O293 2.095 . S
Mn288 O303 2.162 . S
Mn288 O304 2.297 . S
Mn288 O312 2.385 1_545 S
Mn288 O313 2.209 . S
Mn288 O314 2.094 . S
Mn289 O294 2.121 . S
Mn289 N296 2.257 . S
Mn289 N305 2.282 1_545 S
Mn289 O313 2.215 . S
Mn289 O315 2.117 . S
C290 O312 1.234 . S
C290 O313 1.283 1_565 S
C291 O303 1.281 . S
C291 O304 1.236 . S
C292 O314 1.240 . S
C292 O315 1.264 . S
O293 Mn288 2.095 . S
O293 C302 1.250 . S
O294 Mn289 2.121 . S
O294 C302 1.258 . S
C295 N296 1.326 . S
C295 C299 1.460 . S
C295 H301 0.929 . S
N296 Mn289 2.257 . S
N296 C295 1.326 . S
N296 C300 1.362 1_545 S
C297 C298 1.258 . S
C297 C300 1.431 . S
C297 C317 1.449 . S
C298 C297 1.258 . S
C298 C299 1.477 1_565 S
C298 H318 0.931 . S
C299 C295 1.460 . S
C299 C298 1.477 1_545 S
C299 H319 0.930 . S
C300 N296 1.362 1_565 S
C300 C297 1.431 . S
C300 C310 1.476 . S
H301 C295 0.929 . S
C302 O293 1.250 . S
C302 O294 1.258 . S
O303 Mn288 2.162 . S
O303 C291 1.281 . S
O304 Mn288 2.297 . S
O304 C291 1.236 . S
N305 Mn289 2.282 1_565 S
N305 C306 1.328 . S
N305 C310 1.318 . S
C306 N305 1.328 . S
C306 C307 1.457 . S
C306 H311 0.929 . S
C307 C306 1.457 . S
C307 C308 1.291 . S
C307 H320 0.931 . S
C308 C307 1.291 . S
C308 C309 1.373 . S
C308 H321 0.929 . S
C309 C308 1.373 . S
C309 C310 1.396 . S
C309 C316 1.403 . S
C310 C300 1.476 . S
C310 N305 1.318 . S
C310 C309 1.396 . S
H311 C306 0.929 . S
O312 Mn288 2.385 1_565 S
O312 C290 1.234 . S
O313 Mn288 2.209 . S
O313 Mn289 2.215 . S
O313 C290 1.283 1_545 S
O314 Mn288 2.094 . S
O314 C292 1.240 . S
O315 Mn289 2.117 . S
O315 C292 1.264 . S
C316 C309 1.403 . S
C316 C317 1.399 . S
C316 H322 0.929 . S
C317 C297 1.449 . S
C317 C316 1.399 . S
C317 H323 0.930 . S
H318 C298 0.931 . S
H319 C299 0.930 . S
H320 C307 0.931 . S
H321 C308 0.929 . S
H322 C316 0.929 . S
H323 C317 0.930 . S
Mn324 O329 2.095 . S
Mn324 O339 2.162 . S
Mn324 O340 2.297 . S
Mn324 O348 2.385 . S
Mn324 O349 2.209 . S
Mn324 O350 2.094 . S
Mn325 O330 2.121 . S
Mn325 N332 2.257 . S
Mn325 N341 2.282 . S
Mn325 O349 2.215 . S
Mn325 O351 2.117 . S
C326 O348 1.234 . S
C326 O349 1.283 . S
C327 O339 1.281 . S
C327 O340 1.236 . S
C328 O350 1.240 . S
C328 O351 1.264 . S
O329 Mn324 2.095 . S
O329 C338 1.250 . S
O330 Mn325 2.121 . S
O330 C338 1.258 . S
C331 N332 1.326 . S
C331 C335 1.460 . S
C331 H337 0.929 . S
N332 Mn325 2.257 . S
N332 C331 1.326 . S
N332 C336 1.362 . S
C333 C334 1.258 . S
C333 C336 1.431 . S
C333 C353 1.449 . S
C334 C333 1.258 . S
C334 C335 1.477 . S
C334 H354 0.931 . S
C335 C331 1.460 . S
C335 C334 1.477 . S
C335 H355 0.930 . S
C336 N332 1.362 . S
C336 C333 1.431 . S
C336 C346 1.476 . S
H337 C331 0.929 . S
C338 O329 1.250 . S
C338 O330 1.258 . S
O339 Mn324 2.162 . S
O339 C327 1.281 . S
O340 Mn324 2.297 . S
O340 C327 1.236 . S
N341 Mn325 2.282 . S
N341 C342 1.328 . S
N341 C346 1.318 . S
C342 N341 1.328 . S
C342 C343 1.457 . S
C342 H347 0.929 . S
C343 C342 1.457 . S
C343 C344 1.291 . S
C343 H356 0.931 . S
C344 C343 1.291 . S
C344 C345 1.373 . S
C344 H357 0.929 . S
C345 C344 1.373 . S
C345 C346 1.396 . S
C345 C352 1.403 . S
C346 C336 1.476 . S
C346 N341 1.318 . S
C346 C345 1.396 . S
H347 C342 0.929 . S
O348 Mn324 2.385 . S
O348 C326 1.234 . S
O349 Mn324 2.209 . S
O349 Mn325 2.215 . S
O349 C326 1.283 . S
O350 Mn324 2.094 . S
O350 C328 1.240 . S
O351 Mn325 2.117 . S
O351 C328 1.264 . S
C352 C345 1.403 . S
C352 C353 1.399 . S
C352 H358 0.929 . S
C353 C333 1.449 . S
C353 C352 1.399 . S
C353 H359 0.930 . S
H354 C334 0.931 . S
H355 C335 0.930 . S
H356 C343 0.931 . S
H357 C344 0.929 . S
H358 C352 0.929 . S
H359 C353 0.930 . S
Mn360 O365 2.095 . S
Mn360 O375 2.162 . S
Mn360 O376 2.297 . S
Mn360 O384 2.385 . S
Mn360 O385 2.209 . S
Mn360 O386 2.094 . S
Mn361 O366 2.121 . S
Mn361 N368 2.257 . S
Mn361 N377 2.282 . S
Mn361 O385 2.215 . S
Mn361 O387 2.117 . S
C362 O384 1.234 . S
C362 O385 1.283 . S
C363 O375 1.281 . S
C363 O376 1.236 . S
C364 O386 1.240 . S
C364 O387 1.264 . S
O365 Mn360 2.095 . S
O365 C374 1.250 . S
O366 Mn361 2.121 . S
O366 C374 1.258 . S
C367 N368 1.326 . S
C367 C371 1.460 . S
C367 H373 0.929 . S
N368 Mn361 2.257 . S
N368 C367 1.326 . S
N368 C372 1.362 . S
C369 C370 1.258 . S
C369 C372 1.431 . S
C369 C389 1.449 . S
C370 C369 1.258 . S
C370 C371 1.477 . S
C370 H390 0.931 . S
C371 C367 1.460 . S
C371 C370 1.477 . S
C371 H391 0.930 . S
C372 N368 1.362 . S
C372 C369 1.431 . S
C372 C382 1.476 . S
H373 C367 0.929 . S
C374 O365 1.250 . S
C374 O366 1.258 . S
O375 Mn360 2.162 . S
O375 C363 1.281 . S
O376 Mn360 2.297 . S
O376 C363 1.236 . S
N377 Mn361 2.282 . S
N377 C378 1.328 . S
N377 C382 1.318 . S
C378 N377 1.328 . S
C378 C379 1.457 . S
C378 H383 0.929 . S
C379 C378 1.457 . S
C379 C380 1.291 . S
C379 H392 0.931 . S
C380 C379 1.291 . S
C380 C381 1.373 . S
C380 H393 0.929 . S
C381 C380 1.373 . S
C381 C382 1.396 . S
C381 C388 1.403 . S
C382 C372 1.476 . S
C382 N377 1.318 . S
C382 C381 1.396 . S
H383 C378 0.929 . S
O384 Mn360 2.385 . S
O384 C362 1.234 . S
O385 Mn360 2.209 . S
O385 Mn361 2.215 . S
O385 C362 1.283 . S
O386 Mn360 2.094 . S
O386 C364 1.240 . S
O387 Mn361 2.117 . S
O387 C364 1.264 . S
C388 C381 1.403 . S
C388 C389 1.399 . S
C388 H394 0.929 . S
C389 C369 1.449 . S
C389 C388 1.399 . S
C389 H395 0.930 . S
H390 C370 0.931 . S
H391 C371 0.930 . S
H392 C379 0.931 . S
H393 C380 0.929 . S
H394 C388 0.929 . S
H395 C389 0.930 . S
Mn396 O401 2.095 1_554 S
Mn396 O411 2.162 . S
Mn396 O412 2.297 . S
Mn396 O420 2.385 . S
Mn396 O421 2.197 1_554 S
Mn396 O422 2.094 1_554 S
Mn397 O402 2.121 . S
Mn397 N404 2.257 . S
Mn397 N413 2.282 . S
Mn397 O421 2.268 . S
Mn397 O423 2.117 . S
C398 O420 1.234 . S
C398 O421 1.275 1_554 S
C399 O411 1.281 . S
C399 O412 1.236 . S
C400 O422 1.240 . S
C400 O423 1.264 . S
O401 Mn396 2.095 1_556 S
O401 C410 1.250 . S
O402 Mn397 2.121 . S
O402 C410 1.258 . S
C403 N404 1.326 . S
C403 C407 1.460 1_565 S
C403 H409 0.929 . S
N404 Mn397 2.257 . S
N404 C403 1.326 . S
N404 C408 1.362 . S
C405 C406 1.258 . S
C405 C408 1.431 1_545 S
C405 C425 1.449 . S
C406 C405 1.258 . S
C406 C407 1.477 . S
C406 H426 0.931 . S
C407 C403 1.460 1_545 S
C407 C406 1.477 . S
C407 H427 0.930 . S
C408 N404 1.362 . S
C408 C405 1.431 1_565 S
C408 C418 1.476 . S
H409 C403 0.929 . S
C410 O401 1.250 . S
C410 O402 1.258 . S
O411 Mn396 2.162 . S
O411 C399 1.281 . S
O412 Mn396 2.297 . S
O412 C399 1.236 . S
N413 Mn397 2.282 . S
N413 C414 1.328 . S
N413 C418 1.318 . S
C414 N413 1.328 . S
C414 C415 1.457 . S
C414 H419 0.929 . S
C415 C414 1.457 . S
C415 C416 1.291 . S
C415 H428 0.931 . S
C416 C415 1.291 . S
C416 C417 1.373 . S
C416 H429 0.929 . S
C417 C416 1.373 . S
C417 C418 1.396 . S
C417 C424 1.403 . S
C418 C408 1.476 . S
C418 N413 1.318 . S
C418 C417 1.396 . S
H419 C414 0.929 . S
O420 Mn396 2.385 . S
O420 C398 1.234 . S
O421 Mn396 2.197 1_556 S
O421 Mn397 2.268 . S
O421 C398 1.275 1_556 S
O422 Mn396 2.094 1_556 S
O422 C400 1.240 . S
O423 Mn397 2.117 . S
O423 C400 1.264 . S
C424 C417 1.403 . S
C424 C425 1.399 1_565 S
C424 H430 0.929 1_565 S
C425 C405 1.449 . S
C425 C424 1.399 1_545 S
C425 H431 0.930 . S
H426 C406 0.931 . S
H427 C407 0.930 . S
H428 C415 0.931 . S
H429 C416 0.929 . S
H430 C424 0.929 1_545 S
H431 C425 0.930 . S
Mn432 O437 2.095 . S
Mn432 O447 2.162 . S
Mn432 O448 2.297 . S
Mn432 O456 2.385 . S
Mn432 O457 2.209 . S
Mn432 O458 2.147 . S
Mn433 O438 2.121 1_556 S
Mn433 N440 2.257 1_556 S
Mn433 N449 2.282 . S
Mn433 O457 2.215 1_556 S
Mn433 O459 2.117 . S
C434 O456 1.234 . S
C434 O457 1.283 . S
C435 O447 1.281 . S
C435 O448 1.236 . S
C436 O458 1.182 1_556 S
C436 O459 1.264 . S
O437 Mn432 2.095 . S
O437 C446 1.250 . S
O438 Mn433 2.121 1_554 S
O438 C446 1.258 . S
C439 N440 1.326 . S
C439 C443 1.460 . S
C439 H445 0.929 . S
N440 Mn433 2.257 1_554 S
N440 C439 1.326 . S
N440 C444 1.362 1_554 S
C441 C442 1.258 1_556 S
C441 C444 1.431 . S
C441 C461 1.449 . S
C442 C441 1.258 1_554 S
C442 C443 1.477 . S
C442 H462 0.931 . S
C443 C439 1.460 . S
C443 C442 1.477 . S
C443 H463 0.930 . S
C444 N440 1.362 1_556 S
C444 C441 1.431 . S
C444 C454 1.476 . S
H445 C439 0.929 . S
C446 O437 1.250 . S
C446 O438 1.258 . S
O447 Mn432 2.162 . S
O447 C435 1.281 . S
O448 Mn432 2.297 . S
O448 C435 1.236 . S
N449 Mn433 2.282 . S
N449 C450 1.328 . S
N449 C454 1.318 . S
C450 N449 1.328 . S
C450 C451 1.457 . S
C450 H455 0.929 . S
C451 C450 1.457 . S
C451 C452 1.291 . S
C451 H464 0.931 . S
C452 C451 1.291 . S
C452 C453 1.373 . S
C452 H465 0.929 . S
C453 C452 1.373 . S
C453 C454 1.396 . S
C453 C460 1.403 . S
C454 C444 1.476 . S
C454 N449 1.318 . S
C454 C453 1.396 . S
H455 C450 0.929 . S
O456 Mn432 2.385 . S
O456 C434 1.234 . S
O457 Mn432 2.209 . S
O457 Mn433 2.215 1_554 S
O457 C434 1.283 . S
O458 Mn432 2.147 . S
O458 C436 1.182 1_554 S
O459 Mn433 2.117 . S
O459 C436 1.264 . S
C460 C453 1.403 . S
C460 C461 1.399 . S
C460 H466 0.929 . S
C461 C441 1.449 . S
C461 C460 1.399 . S
C461 H467 0.930 . S
H462 C442 0.931 . S
H463 C443 0.930 . S
H464 C451 0.931 . S
H465 C452 0.929 . S
H466 C460 0.929 . S
H467 C461 0.930 . S
Mn468 O473 2.095 . S
Mn468 O483 2.162 . S
Mn468 O484 2.297 . S
Mn468 O492 2.385 . S
Mn468 O493 2.209 . S
Mn468 O494 2.094 . S
Mn469 O474 2.121 . S
Mn469 N476 2.257 . S
Mn469 N485 2.282 . S
Mn469 O493 2.215 . S
Mn469 O495 2.117 . S
C470 O492 1.234 . S
C470 O493 1.283 . S
C471 O483 1.281 . S
C471 O484 1.236 . S
C472 O494 1.240 . S
C472 O495 1.264 . S
O473 Mn468 2.095 . S
O473 C482 1.250 . S
O474 Mn469 2.121 . S
O474 C482 1.258 . S
C475 N476 1.326 . S
C475 C479 1.460 . S
C475 H481 0.929 . S
N476 Mn469 2.257 . S
N476 C475 1.326 . S
N476 C480 1.362 . S
C477 C478 1.258 . S
C477 C480 1.431 . S
C477 C497 1.449 . S
C478 C477 1.258 . S
C478 C479 1.477 . S
C478 H498 0.931 . S
C479 C475 1.460 . S
C479 C478 1.477 . S
C479 H499 0.930 . S
C480 N476 1.362 . S
C480 C477 1.431 . S
C480 C490 1.476 . S
H481 C475 0.929 . S
C482 O473 1.250 . S
C482 O474 1.258 . S
O483 Mn468 2.162 . S
O483 C471 1.281 . S
O484 Mn468 2.297 . S
O484 C471 1.236 . S
N485 Mn469 2.282 . S
N485 C486 1.328 1_554 S
N485 C490 1.318 . S
C486 N485 1.328 1_556 S
C486 C487 1.457 . S
C486 H491 0.929 . S
C487 C486 1.457 . S
C487 C488 1.291 . S
C487 H500 0.931 . S
C488 C487 1.291 . S
C488 C489 1.373 . S
C488 H501 0.929 . S
C489 C488 1.373 . S
C489 C490 1.396 1_556 S
C489 C496 1.403 . S
C490 C480 1.476 . S
C490 N485 1.318 . S
C490 C489 1.396 1_554 S
H491 C486 0.929 . S
O492 Mn468 2.385 . S
O492 C470 1.234 . S
O493 Mn468 2.209 . S
O493 Mn469 2.215 . S
O493 C470 1.283 . S
O494 Mn468 2.094 . S
O494 C472 1.240 . S
O495 Mn469 2.117 . S
O495 C472 1.264 . S
C496 C489 1.403 . S
C496 C497 1.399 1_556 S
C496 H502 0.929 . S
C497 C477 1.449 . S
C497 C496 1.399 1_554 S
C497 H503 0.930 . S
H498 C478 0.931 . S
H499 C479 0.930 . S
H500 C487 0.931 . S
H501 C488 0.929 . S
H502 C496 0.929 . S
H503 C497 0.930 . S
Mn504 O509 2.095 . S
Mn504 O519 2.162 . S
Mn504 O520 2.297 . S
Mn504 O528 2.385 . S
Mn504 O529 2.209 . S
Mn504 O530 2.094 . S
Mn505 O510 2.121 . S
Mn505 N512 2.257 . S
Mn505 N521 2.282 . S
Mn505 O529 2.215 . S
Mn505 O531 2.117 . S
C506 O528 1.234 . S
C506 O529 1.283 . S
C507 O519 1.281 . S
C507 O520 1.236 . S
C508 O530 1.240 . S
C508 O531 1.264 . S
O509 Mn504 2.095 . S
O509 C518 1.250 . S
O510 Mn505 2.121 . S
O510 C518 1.258 . S
C511 N512 1.326 . S
C511 C515 1.460 . S
C511 H517 0.929 . S
N512 Mn505 2.257 . S
N512 C511 1.326 . S
N512 C516 1.362 . S
C513 C514 1.258 . S
C513 C516 1.431 . S
C513 C533 1.449 . S
C514 C513 1.258 . S
C514 C515 1.477 . S
C514 H534 0.931 . S
C515 C511 1.460 . S
C515 C514 1.477 . S
C515 H535 0.930 . S
C516 N512 1.362 . S
C516 C513 1.431 . S
C516 C526 1.476 . S
H517 C511 0.929 . S
C518 O509 1.250 . S
C518 O510 1.258 . S
O519 Mn504 2.162 . S
O519 C507 1.281 . S
O520 Mn504 2.297 . S
O520 C507 1.236 . S
N521 Mn505 2.282 . S
N521 C522 1.328 . S
N521 C526 1.318 . S
C522 N521 1.328 . S
C522 C523 1.457 . S
C522 H527 0.929 . S
C523 C522 1.457 . S
C523 C524 1.291 . S
C523 H536 0.931 . S
C524 C523 1.291 . S
C524 C525 1.373 . S
C524 H537 0.929 . S
C525 C524 1.373 . S
C525 C526 1.396 . S
C525 C532 1.403 . S
C526 C516 1.476 . S
C526 N521 1.318 . S
C526 C525 1.396 . S
H527 C522 0.929 . S
O528 Mn504 2.385 . S
O528 C506 1.234 . S
O529 Mn504 2.209 . S
O529 Mn505 2.215 . S
O529 C506 1.283 . S
O530 Mn504 2.094 . S
O530 C508 1.240 . S
O531 Mn505 2.117 . S
O531 C508 1.264 . S
C532 C525 1.403 . S
C532 C533 1.399 . S
C532 H538 0.929 . S
C533 C513 1.449 . S
C533 C532 1.399 . S
C533 H539 0.930 . S
H534 C514 0.931 . S
H535 C515 0.930 . S
H536 C523 0.931 . S
H537 C524 0.929 . S
H538 C532 0.929 . S
H539 C533 0.930 . S
Mn540 O545 2.095 . S
Mn540 O555 2.162 . S
Mn540 O556 2.297 . S
Mn540 O564 2.385 . S
Mn540 O565 2.209 . S
Mn540 O566 2.094 . S
Mn541 O546 2.121 . S
Mn541 N548 2.257 . S
Mn541 N557 2.282 . S
Mn541 O565 2.215 . S
Mn541 O567 2.117 . S
C542 O564 1.234 . S
C542 O565 1.283 . S
C543 O555 1.281 . S
C543 O556 1.236 . S
C544 O566 1.240 . S
C544 O567 1.264 . S
O545 Mn540 2.095 . S
O545 C554 1.250 . S
O546 Mn541 2.121 . S
O546 C554 1.258 . S
C547 N548 1.326 . S
C547 C551 1.460 . S
C547 H553 0.929 . S
N548 Mn541 2.257 . S
N548 C547 1.326 . S
N548 C552 1.362 . S
C549 C550 1.258 . S
C549 C552 1.431 . S
C549 C569 1.449 . S
C550 C549 1.258 . S
C550 C551 1.477 . S
C550 H570 0.931 . S
C551 C547 1.460 . S
C551 C550 1.477 . S
C551 H571 0.930 . S
C552 N548 1.362 . S
C552 C549 1.431 . S
C552 C562 1.476 . S
H553 C547 0.929 . S
C554 O545 1.250 . S
C554 O546 1.258 . S
O555 Mn540 2.162 . S
O555 C543 1.281 . S
O556 Mn540 2.297 . S
O556 C543 1.236 . S
N557 Mn541 2.282 . S
N557 C558 1.328 . S
N557 C562 1.318 . S
C558 N557 1.328 . S
C558 C559 1.457 . S
C558 H563 0.929 . S
C559 C558 1.457 . S
C559 C560 1.291 . S
C559 H572 0.931 . S
C560 C559 1.291 . S
C560 C561 1.373 . S
C560 H573 0.929 . S
C561 C560 1.373 . S
C561 C562 1.396 . S
C561 C568 1.403 . S
C562 C552 1.476 . S
C562 N557 1.318 . S
C562 C561 1.396 . S
H563 C558 0.929 . S
O564 Mn540 2.385 . S
O564 C542 1.234 . S
O565 Mn540 2.209 . S
O565 Mn541 2.215 . S
O565 C542 1.283 . S
O566 Mn540 2.094 . S
O566 C544 1.240 . S
O567 Mn541 2.117 . S
O567 C544 1.264 . S
C568 C561 1.403 . S
C568 C569 1.399 . S
C568 H574 0.929 . S
C569 C549 1.449 . S
C569 C568 1.399 . S
C569 H575 0.930 . S
H570 C550 0.931 . S
H571 C551 0.930 . S
H572 C559 0.931 . S
H573 C560 0.929 . S
H574 C568 0.929 . S
H575 C569 0.930 . S
Mn576 O581 2.095 . S
Mn576 O591 2.162 . S
Mn576 O592 2.297 . S
Mn576 O600 2.385 1_545 S
Mn576 O601 2.209 1_545 S
Mn576 O602 2.094 . S
Mn577 O582 2.121 . S
Mn577 N584 2.257 1_545 S
Mn577 N593 2.282 1_545 S
Mn577 O601 2.215 1_545 S
Mn577 O603 2.117 . S
C578 O600 1.234 . S
C578 O601 1.283 . S
C579 O591 1.281 . S
C579 O592 1.236 . S
C580 O602 1.240 . S
C580 O603 1.264 . S
O581 Mn576 2.095 . S
O581 C590 1.250 . S
O582 Mn577 2.121 . S
O582 C590 1.258 . S
C583 N584 1.326 . S
C583 C587 1.460 . S
C583 H589 0.929 1_565 S
N584 Mn577 2.257 1_565 S
N584 C583 1.326 . S
N584 C588 1.362 . S
C585 C586 1.258 . S
C585 C588 1.431 . S
C585 C605 1.449 . S
C586 C585 1.258 . S
C586 C587 1.477 . S
C586 H606 0.931 . S
C587 C583 1.460 . S
C587 C586 1.477 . S
C587 H607 0.930 . S
C588 N584 1.362 . S
C588 C585 1.431 . S
C588 C598 1.476 . S
H589 C583 0.929 1_545 S
C590 O581 1.250 . S
C590 O582 1.258 . S
O591 Mn576 2.162 . S
O591 C579 1.281 . S
O592 Mn576 2.297 . S
O592 C579 1.236 . S
N593 Mn577 2.282 1_565 S
N593 C594 1.328 . S
N593 C598 1.318 . S
C594 N593 1.328 . S
C594 C595 1.457 . S
C594 H599 0.929 . S
C595 C594 1.457 . S
C595 C596 1.291 . S
C595 H608 0.931 . S
C596 C595 1.291 . S
C596 C597 1.373 . S
C596 H609 0.929 . S
C597 C596 1.373 . S
C597 C598 1.396 . S
C597 C604 1.403 . S
C598 C588 1.476 . S
C598 N593 1.318 . S
C598 C597 1.396 . S
H599 C594 0.929 . S
O600 Mn576 2.385 1_565 S
O600 C578 1.234 . S
O601 Mn576 2.209 1_565 S
O601 Mn577 2.215 1_565 S
O601 C578 1.283 . S
O602 Mn576 2.094 . S
O602 C580 1.240 . S
O603 Mn577 2.117 . S
O603 C580 1.264 . S
C604 C597 1.403 . S
C604 C605 1.399 . S
C604 H610 0.929 . S
C605 C585 1.449 . S
C605 C604 1.399 . S
C605 H611 0.930 . S
H606 C586 0.931 . S
H607 C587 0.930 . S
H608 C595 0.931 . S
H609 C596 0.929 . S
H610 C604 0.929 . S
H611 C605 0.930 . S
Mn612 O617 2.095 . S
Mn612 O627 2.162 . S
Mn612 O628 2.297 . S
Mn612 O636 2.385 . S
Mn612 O637 2.209 . S
Mn612 O638 2.094 . S
Mn613 O618 2.121 . S
Mn613 N620 2.257 . S
Mn613 N629 2.282 . S
Mn613 O637 2.215 . S
Mn613 O639 2.117 . S
C614 O636 1.234 . S
C614 O637 1.283 . S
C615 O627 1.281 . S
C615 O628 1.236 . S
C616 O638 1.240 . S
C616 O639 1.264 . S
O617 Mn612 2.095 . S
O617 C626 1.250 . S
O618 Mn613 2.121 . S
O618 C626 1.258 . S
C619 N620 1.326 . S
C619 C623 1.460 . S
C619 H625 0.929 . S
N620 Mn613 2.257 . S
N620 C619 1.326 . S
N620 C624 1.362 . S
C621 C622 1.258 . S
C621 C624 1.431 . S
C621 C641 1.449 . S
C622 C621 1.258 . S
C622 C623 1.477 . S
C622 H642 0.931 . S
C623 C619 1.460 . S
C623 C622 1.477 . S
C623 H643 0.930 . S
C624 N620 1.362 . S
C624 C621 1.431 . S
C624 C634 1.476 . S
H625 C619 0.929 . S
C626 O617 1.250 . S
C626 O618 1.258 . S
O627 Mn612 2.162 . S
O627 C615 1.281 . S
O628 Mn612 2.297 . S
O628 C615 1.236 . S
N629 Mn613 2.282 . S
N629 C630 1.328 . S
N629 C634 1.318 . S
C630 N629 1.328 . S
C630 C631 1.457 . S
C630 H635 0.929 . S
C631 C630 1.457 . S
C631 C632 1.291 . S
C631 H644 0.931 . S
C632 C631 1.291 . S
C632 C633 1.373 . S
C632 H645 0.929 . S
C633 C632 1.373 . S
C633 C634 1.396 . S
C633 C640 1.403 . S
C634 C624 1.476 . S
C634 N629 1.318 . S
C634 C633 1.396 . S
H635 C630 0.929 . S
O636 Mn612 2.385 . S
O636 C614 1.234 . S
O637 Mn612 2.209 . S
O637 Mn613 2.215 . S
O637 C614 1.283 . S
O638 Mn612 2.094 . S
O638 C616 1.240 . S
O639 Mn613 2.117 . S
O639 C616 1.264 . S
C640 C633 1.403 . S
C640 C641 1.399 . S
C640 H646 0.929 . S
C641 C621 1.449 . S
C641 C640 1.399 . S
C641 H647 0.930 . S
H642 C622 0.931 . S
H643 C623 0.930 . S
H644 C631 0.931 . S
H645 C632 0.929 . S
H646 C640 0.929 . S
H647 C641 0.930 . S
Mn648 O653 2.095 . S
Mn648 O663 2.162 . S
Mn648 O664 2.297 . S
Mn648 O672 2.385 . S
Mn648 O673 2.209 . S
Mn648 O674 2.094 . S
Mn649 O654 2.121 . S
Mn649 N656 2.257 . S
Mn649 N665 2.282 . S
Mn649 O673 2.215 . S
Mn649 O675 2.117 . S
C650 O672 1.234 . S
C650 O673 1.283 . S
C651 O663 1.281 . S
C651 O664 1.236 . S
C652 O674 1.240 . S
C652 O675 1.264 . S
O653 Mn648 2.095 . S
O653 C662 1.250 . S
O654 Mn649 2.121 . S
O654 C662 1.258 . S
C655 N656 1.326 . S
C655 C659 1.460 . S
C655 H661 0.929 . S
N656 Mn649 2.257 . S
N656 C655 1.326 . S
N656 C660 1.362 . S
C657 C658 1.258 . S
C657 C660 1.431 . S
C657 C677 1.449 . S
C658 C657 1.258 . S
C658 C659 1.477 . S
C658 H678 0.931 . S
C659 C655 1.460 . S
C659 C658 1.477 . S
C659 H679 0.930 . S
C660 N656 1.362 . S
C660 C657 1.431 . S
C660 C670 1.476 . S
H661 C655 0.929 . S
C662 O653 1.250 . S
C662 O654 1.258 . S
O663 Mn648 2.162 . S
O663 C651 1.281 . S
O664 Mn648 2.297 . S
O664 C651 1.236 . S
N665 Mn649 2.282 . S
N665 C666 1.328 . S
N665 C670 1.318 . S
C666 N665 1.328 . S
C666 C667 1.457 . S
C666 H671 0.929 . S
C667 C666 1.457 . S
C667 C668 1.291 . S
C667 H680 0.931 . S
C668 C667 1.291 . S
C668 C669 1.373 . S
C668 H681 0.929 . S
C669 C668 1.373 . S
C669 C670 1.396 . S
C669 C676 1.403 . S
C670 C660 1.476 . S
C670 N665 1.318 . S
C670 C669 1.396 . S
H671 C666 0.929 . S
O672 Mn648 2.385 . S
O672 C650 1.234 . S
O673 Mn648 2.209 . S
O673 Mn649 2.215 . S
O673 C650 1.283 . S
O674 Mn648 2.094 . S
O674 C652 1.240 . S
O675 Mn649 2.117 . S
O675 C652 1.264 . S
C676 C669 1.403 . S
C676 C677 1.399 . S
C676 H682 0.929 . S
C677 C657 1.449 . S
C677 C676 1.399 . S
C677 H683 0.930 . S
H678 C658 0.931 . S
H679 C659 0.930 . S
H680 C667 0.931 . S
H681 C668 0.929 . S
H682 C676 0.929 . S
H683 C677 0.930 . S
Mn684 O689 2.095 1_545 S
Mn684 O699 2.162 . S
Mn684 O700 2.297 . S
Mn684 O708 2.385 . S
Mn684 O709 2.209 . S
Mn684 O710 2.094 . S
Mn685 O690 2.121 . S
Mn685 N692 2.257 . S
Mn685 N701 2.282 . S
Mn685 O709 2.215 . S
Mn685 O711 2.117 . S
C686 O708 1.234 . S
C686 O709 1.283 . S
C687 O699 1.281 . S
C687 O700 1.236 . S
C688 O710 1.240 . S
C688 O711 1.264 . S
O689 Mn684 2.095 1_565 S
O689 C698 1.250 . S
O690 Mn685 2.121 . S
O690 C698 1.258 1_545 S
C691 N692 1.326 . S
C691 C695 1.460 . S
C691 H697 0.929 . S
N692 Mn685 2.257 . S
N692 C691 1.326 . S
N692 C696 1.362 . S
C693 C694 1.258 . S
C693 C696 1.431 . S
C693 C713 1.449 . S
C694 C693 1.258 . S
C694 C695 1.477 . S
C694 H714 0.931 . S
C695 C691 1.460 . S
C695 C694 1.477 . S
C695 H715 0.930 . S
C696 N692 1.362 . S
C696 C693 1.431 . S
C696 C706 1.476 . S
H697 C691 0.929 . S
C698 O689 1.250 . S
C698 O690 1.258 1_565 S
O699 Mn684 2.162 . S
O699 C687 1.281 . S
O700 Mn684 2.297 . S
O700 C687 1.236 . S
N701 Mn685 2.282 . S
N701 C702 1.328 . S
N701 C706 1.318 . S
C702 N701 1.328 . S
C702 C703 1.457 . S
C702 H707 0.929 . S
C703 C702 1.457 . S
C703 C704 1.291 . S
C703 H716 0.931 . S
C704 C703 1.291 . S
C704 C705 1.373 . S
C704 H717 0.929 . S
C705 C704 1.373 . S
C705 C706 1.396 . S
C705 C712 1.403 . S
C706 C696 1.476 . S
C706 N701 1.318 . S
C706 C705 1.396 . S
H707 C702 0.929 . S
O708 Mn684 2.385 . S
O708 C686 1.234 . S
O709 Mn684 2.209 . S
O709 Mn685 2.215 . S
O709 C686 1.283 . S
O710 Mn684 2.094 . S
O710 C688 1.240 . S
O711 Mn685 2.117 . S
O711 C688 1.264 . S
C712 C705 1.403 . S
C712 C713 1.399 . S
C712 H718 0.929 . S
C713 C693 1.449 . S
C713 C712 1.399 . S
C713 H719 0.930 . S
H714 C694 0.931 . S
H715 C695 0.930 . S
H716 C703 0.931 . S
H717 C704 0.929 . S
H718 C712 0.929 . S
H719 C713 0.930 . S
Mn720 O725 2.095 . S
Mn720 O735 2.162 . S
Mn720 O736 2.297 . S
Mn720 O744 2.385 . S
Mn720 O745 2.209 . S
Mn720 O746 2.094 . S
Mn721 O726 2.121 1_556 S
Mn721 N728 2.257 . S
Mn721 N737 2.282 . S
Mn721 O745 2.215 1_556 S
Mn721 O747 2.117 . S
C722 O744 1.234 . S
C722 O745 1.283 . S
C723 O735 1.281 . S
C723 O736 1.236 . S
C724 O746 1.240 1_556 S
C724 O747 1.264 . S
O725 Mn720 2.095 . S
O725 C734 1.250 . S
O726 Mn721 2.121 1_554 S
O726 C734 1.258 . S
C727 N728 1.326 1_554 S
C727 C731 1.460 . S
C727 H733 0.929 . S
N728 Mn721 2.257 . S
N728 C727 1.326 1_556 S
N728 C732 1.362 . S
C729 C730 1.258 . S
C729 C732 1.431 . S
C729 C749 1.449 . S
C730 C729 1.258 . S
C730 C731 1.477 1_556 S
C730 H750 0.931 . S
C731 C727 1.460 . S
C731 C730 1.477 1_554 S
C731 H751 0.930 . S
C732 N728 1.362 . S
C732 C729 1.431 . S
C732 C742 1.476 . S
H733 C727 0.929 . S
C734 O725 1.250 . S
C734 O726 1.258 . S
O735 Mn720 2.162 . S
O735 C723 1.281 . S
O736 Mn720 2.297 . S
O736 C723 1.236 . S
N737 Mn721 2.282 . S
N737 C738 1.328 . S
N737 C742 1.318 . S
C738 N737 1.328 . S
C738 C739 1.457 . S
C738 H743 0.929 . S
C739 C738 1.457 . S
C739 C740 1.291 . S
C739 H752 0.931 . S
C740 C739 1.291 . S
C740 C741 1.373 . S
C740 H753 0.929 . S
C741 C740 1.373 . S
C741 C742 1.396 . S
C741 C748 1.403 . S
C742 C732 1.476 . S
C742 N737 1.318 . S
C742 C741 1.396 . S
H743 C738 0.929 . S
O744 Mn720 2.385 . S
O744 C722 1.234 . S
O745 Mn720 2.209 . S
O745 Mn721 2.215 1_554 S
O745 C722 1.283 . S
O746 Mn720 2.094 . S
O746 C724 1.240 1_554 S
O747 Mn721 2.117 . S
O747 C724 1.264 . S
C748 C741 1.403 . S
C748 C749 1.399 . S
C748 H754 0.929 . S
C749 C729 1.449 . S
C749 C748 1.399 . S
C749 H755 0.930 . S
H750 C730 0.931 . S
H751 C731 0.930 . S
H752 C739 0.931 . S
H753 C740 0.929 . S
H754 C748 0.929 . S
H755 C749 0.930 . S
Mn756 O761 2.095 . S
Mn756 O771 2.162 . S
Mn756 O772 2.297 . S
Mn756 O780 2.385 . S
Mn756 O781 2.209 . S
Mn756 O782 2.094 . S
Mn757 O762 2.121 . S
Mn757 N764 2.257 . S
Mn757 N773 2.282 . S
Mn757 O781 2.215 . S
Mn757 O783 2.117 . S
C758 O780 1.234 . S
C758 O781 1.283 . S
C759 O771 1.281 . S
C759 O772 1.236 . S
C760 O782 1.240 . S
C760 O783 1.264 . S
O761 Mn756 2.095 . S
O761 C770 1.250 . S
O762 Mn757 2.121 . S
O762 C770 1.258 . S
C763 N764 1.326 . S
C763 C767 1.460 . S
C763 H769 0.929 . S
N764 Mn757 2.257 . S
N764 C763 1.326 . S
N764 C768 1.362 . S
C765 C766 1.258 . S
C765 C768 1.431 . S
C765 C785 1.449 . S
C766 C765 1.258 . S
C766 C767 1.477 . S
C766 H786 0.931 . S
C767 C763 1.460 . S
C767 C766 1.477 . S
C767 H787 0.930 . S
C768 N764 1.362 . S
C768 C765 1.431 . S
C768 C778 1.476 . S
H769 C763 0.929 . S
C770 O761 1.250 . S
C770 O762 1.258 . S
O771 Mn756 2.162 . S
O771 C759 1.281 . S
O772 Mn756 2.297 . S
O772 C759 1.236 . S
N773 Mn757 2.282 . S
N773 C774 1.328 . S
N773 C778 1.318 . S
C774 N773 1.328 . S
C774 C775 1.457 . S
C774 H779 0.929 . S
C775 C774 1.457 . S
C775 C776 1.291 . S
C775 H788 0.931 . S
C776 C775 1.291 . S
C776 C777 1.373 . S
C776 H789 0.929 . S
C777 C776 1.373 . S
C777 C778 1.396 . S
C777 C784 1.403 . S
C778 C768 1.476 . S
C778 N773 1.318 . S
C778 C777 1.396 . S
H779 C774 0.929 . S
O780 Mn756 2.385 . S
O780 C758 1.234 . S
O781 Mn756 2.209 . S
O781 Mn757 2.215 . S
O781 C758 1.283 . S
O782 Mn756 2.094 . S
O782 C760 1.240 . S
O783 Mn757 2.117 . S
O783 C760 1.264 . S
C784 C777 1.403 . S
C784 C785 1.399 . S
C784 H790 0.929 . S
C785 C765 1.449 . S
C785 C784 1.399 . S
C785 H791 0.930 . S
H786 C766 0.931 . S
H787 C767 0.930 . S
H788 C775 0.931 . S
H789 C776 0.929 . S
H790 C784 0.929 . S
H791 C785 0.930 . S
Mn792 O797 2.095 . S
Mn792 O807 2.162 . S
Mn792 O808 2.297 . S
Mn792 O816 2.385 . S
Mn792 O817 2.209 . S
Mn792 O818 2.094 . S
Mn793 O798 2.121 . S
Mn793 N800 2.257 . S
Mn793 N809 2.282 . S
Mn793 O817 2.215 . S
Mn793 O819 2.117 . S
C794 O816 1.234 . S
C794 O817 1.283 . S
C795 O807 1.281 . S
C795 O808 1.236 . S
C796 O818 1.240 . S
C796 O819 1.264 . S
O797 Mn792 2.095 . S
O797 C806 1.250 . S
O798 Mn793 2.121 . S
O798 C806 1.258 . S
C799 N800 1.326 . S
C799 C803 1.460 . S
C799 H805 0.929 . S
N800 Mn793 2.257 . S
N800 C799 1.326 . S
N800 C804 1.362 . S
C801 C802 1.258 . S
C801 C804 1.431 . S
C801 C821 1.449 . S
C802 C801 1.258 . S
C802 C803 1.477 . S
C802 H822 0.931 . S
C803 C799 1.460 . S
C803 C802 1.477 . S
C803 H823 0.930 . S
C804 N800 1.362 . S
C804 C801 1.431 . S
C804 C814 1.476 . S
H805 C799 0.929 . S
C806 O797 1.250 . S
C806 O798 1.258 . S
O807 Mn792 2.162 . S
O807 C795 1.281 . S
O808 Mn792 2.297 . S
O808 C795 1.236 . S
N809 Mn793 2.282 . S
N809 C810 1.328 . S
N809 C814 1.318 . S
C810 N809 1.328 . S
C810 C811 1.457 . S
C810 H815 0.929 . S
C811 C810 1.457 . S
C811 C812 1.291 . S
C811 H824 0.931 . S
C812 C811 1.291 . S
C812 C813 1.373 . S
C812 H825 0.929 . S
C813 C812 1.373 . S
C813 C814 1.396 . S
C813 C820 1.403 . S
C814 C804 1.476 . S
C814 N809 1.318 . S
C814 C813 1.396 . S
H815 C810 0.929 . S
O816 Mn792 2.385 . S
O816 C794 1.234 . S
O817 Mn792 2.209 . S
O817 Mn793 2.215 . S
O817 C794 1.283 . S
O818 Mn792 2.094 . S
O818 C796 1.240 . S
O819 Mn793 2.117 . S
O819 C796 1.264 . S
C820 C813 1.403 . S
C820 C821 1.399 . S
C820 H826 0.929 . S
C821 C801 1.449 . S
C821 C820 1.399 . S
C821 H827 0.930 . S
H822 C802 0.931 . S
H823 C803 0.930 . S
H824 C811 0.931 . S
H825 C812 0.929 . S
H826 C820 0.929 . S
H827 C821 0.930 . S
Mn828 O833 2.095 . S
Mn828 O843 2.162 . S
Mn828 O844 2.297 . S
Mn828 O852 2.385 . S
Mn828 O853 2.209 . S
Mn828 O854 2.094 . S
Mn829 O834 2.121 . S
Mn829 N836 2.257 . S
Mn829 N845 2.282 . S
Mn829 O853 2.215 . S
Mn829 O855 2.117 . S
C830 O852 1.234 . S
C830 O853 1.283 . S
C831 O843 1.281 . S
C831 O844 1.236 . S
C832 O854 1.240 . S
C832 O855 1.264 . S
O833 Mn828 2.095 . S
O833 C842 1.250 . S
O834 Mn829 2.121 . S
O834 C842 1.258 . S
C835 N836 1.326 . S
C835 C839 1.460 . S
C835 H841 0.929 . S
N836 Mn829 2.257 . S
N836 C835 1.326 . S
N836 C840 1.362 . S
C837 C838 1.258 . S
C837 C840 1.431 . S
C837 C857 1.449 . S
C838 C837 1.258 . S
C838 C839 1.477 . S
C838 H858 0.931 . S
C839 C835 1.460 . S
C839 C838 1.477 . S
C839 H859 0.930 . S
C840 N836 1.362 . S
C840 C837 1.431 . S
C840 C850 1.476 . S
H841 C835 0.929 . S
C842 O833 1.250 . S
C842 O834 1.258 . S
O843 Mn828 2.162 . S
O843 C831 1.281 . S
O844 Mn828 2.297 . S
O844 C831 1.236 . S
N845 Mn829 2.282 . S
N845 C846 1.328 . S
N845 C850 1.318 . S
C846 N845 1.328 . S
C846 C847 1.457 . S
C846 H851 0.929 . S
C847 C846 1.457 . S
C847 C848 1.291 . S
C847 H860 0.931 . S
C848 C847 1.291 . S
C848 C849 1.373 . S
C848 H861 0.929 . S
C849 C848 1.373 . S
C849 C850 1.396 . S
C849 C856 1.403 . S
C850 C840 1.476 . S
C850 N845 1.318 . S
C850 C849 1.396 . S
H851 C846 0.929 . S
O852 Mn828 2.385 . S
O852 C830 1.234 . S
O853 Mn828 2.209 . S
O853 Mn829 2.215 . S
O853 C830 1.283 . S
O854 Mn828 2.094 . S
O854 C832 1.240 . S
O855 Mn829 2.117 . S
O855 C832 1.264 . S
C856 C849 1.403 . S
C856 C857 1.399 . S
C856 H862 0.929 . S
C857 C837 1.449 . S
C857 C856 1.399 . S
C857 H863 0.930 . S
H858 C838 0.931 . S
H859 C839 0.930 . S
H860 C847 0.931 . S
H861 C848 0.929 . S
H862 C856 0.929 . S
H863 C857 0.930 . S
Tb864 C873 2.764 . S
Tb864 O874 2.325 1_545 S
Tb864 O877 2.303 . S
Tb864 O881 2.322 . S
Tb864 O882 2.349 . S
Tb864 O885 2.415 . S
Tb864 O886 2.399 . S
Tb865 O875 2.322 1_545 S
Tb865 O876 2.349 1_554 S
Tb865 O878 2.415 1_455 S
Tb865 O879 2.399 1_454 S
Tb865 O880 2.325 . S
Tb865 O883 2.303 . S
Tb865 C894 2.764 1_455 S
C866 O882 1.261 . S
C866 O883 1.257 . S
C867 C870 1.358 . S
C867 C871 1.334 1_545 S
C867 C873 1.504 . S
C868 C869 1.373 . S
C868 C872 1.308 1_545 S
C869 C868 1.373 . S
C869 C870 1.429 . S
C869 H896 0.932 . S
C870 C867 1.358 . S
C870 C869 1.429 . S
C870 H897 0.930 . S
C871 C867 1.334 1_565 S
C871 C872 1.393 . S
C871 H898 0.932 . S
C872 C868 1.308 1_565 S
C872 C871 1.393 . S
C872 H899 0.929 . S
C873 Tb864 2.764 . S
C873 C867 1.504 . S
C873 O885 1.239 . S
C873 O886 1.263 . S
O874 Tb864 2.325 1_565 S
O874 C884 1.236 . S
O875 Tb865 2.322 1_565 S
O875 C884 1.257 . S
O876 Tb865 2.349 1_556 S
O876 C887 1.261 . S
O877 Tb864 2.303 . S
O877 C887 1.257 1_554 S
O878 Tb865 2.415 1_655 S
O878 C894 1.239 . S
O879 Tb865 2.399 1_656 S
O879 C894 1.263 1_556 S
O880 Tb865 2.325 . S
O880 C895 1.236 . S
O881 Tb864 2.322 . S
O881 C895 1.257 . S
O882 Tb864 2.349 . S
O882 C866 1.261 . S
O883 Tb865 2.303 . S
O883 C866 1.257 . S
C884 O874 1.236 . S
C884 O875 1.257 . S
O885 Tb864 2.415 . S
O885 C873 1.239 . S
O886 Tb864 2.399 . S
O886 C873 1.263 . S
C887 O876 1.261 . S
C887 O877 1.257 1_556 S
C888 C891 1.358 1_554 S
C888 C892 1.332 . S
C888 C894 1.504 . S
C889 C890 1.373 . S
C889 C893 1.308 1_556 S
C890 C889 1.373 . S
C890 C891 1.429 . S
C890 H900 0.932 . S
C891 C888 1.358 1_556 S
C891 C890 1.429 . S
C891 H901 0.930 . S
C892 C888 1.332 . S
C892 C893 1.394 . S
C892 H902 0.932 . S
C893 C889 1.308 1_554 S
C893 C892 1.394 . S
C893 H903 0.929 . S
C894 Tb865 2.764 1_655 S
C894 O878 1.239 . S
C894 O879 1.263 1_554 S
C894 C888 1.504 . S
C895 O880 1.236 . S
C895 O881 1.257 . S
H896 C869 0.932 . S
H897 C870 0.930 . S
H898 C871 0.932 . S
H899 C872 0.929 . S
H900 C890 0.932 . S
H901 C891 0.930 . S
H902 C892 0.932 . S
H903 C893 0.929 . S
Tb904 C913 2.764 . S
Tb904 O914 2.325 . S
Tb904 O917 2.303 . S
Tb904 O921 2.322 . S
Tb904 O922 2.349 . S
Tb904 O925 2.415 . S
Tb904 O926 2.399 . S
Tb905 O915 2.322 . S
Tb905 O916 2.349 . S
Tb905 O918 2.415 . S
Tb905 O919 2.399 . S
Tb905 O920 2.325 . S
Tb905 O923 2.303 . S
Tb905 C934 2.764 . S
C906 O922 1.261 . S
C906 O923 1.257 . S
C907 C910 1.358 . S
C907 C911 1.332 . S
C907 C913 1.504 . S
C908 C909 1.373 . S
C908 C912 1.308 . S
C909 C908 1.373 . S
C909 C910 1.429 . S
C909 H936 0.932 . S
C910 C907 1.358 . S
C910 C909 1.429 . S
C910 H937 0.930 . S
C911 C907 1.332 . S
C911 C912 1.394 . S
C911 H938 0.932 . S
C912 C908 1.308 . S
C912 C911 1.394 . S
C912 H939 0.929 . S
C913 Tb904 2.764 . S
C913 C907 1.504 . S
C913 O925 1.239 . S
C913 O926 1.263 . S
O914 Tb904 2.325 . S
O914 C924 1.236 . S
O915 Tb905 2.322 . S
O915 C924 1.257 . S
O916 Tb905 2.349 . S
O916 C927 1.261 . S
O917 Tb904 2.303 . S
O917 C927 1.257 . S
O918 Tb905 2.415 . S
O918 C934 1.239 . S
O919 Tb905 2.399 . S
O919 C934 1.263 . S
O920 Tb905 2.325 . S
O920 C935 1.236 . S
O921 Tb904 2.322 . S
O921 C935 1.257 . S
O922 Tb904 2.349 . S
O922 C906 1.261 . S
O923 Tb905 2.303 . S
O923 C906 1.257 . S
C924 O914 1.236 . S
C924 O915 1.257 . S
O925 Tb904 2.415 . S
O925 C913 1.239 . S
O926 Tb904 2.399 . S
O926 C913 1.263 . S
C927 O916 1.261 . S
C927 O917 1.257 . S
C928 C931 1.358 . S
C928 C932 1.332 . S
C928 C934 1.504 . S
C929 C930 1.373 . S
C929 C933 1.308 . S
C930 C929 1.373 . S
C930 C931 1.429 . S
C930 H940 0.932 . S
C931 C928 1.358 . S
C931 C930 1.429 . S
C931 H941 0.930 . S
C932 C928 1.332 . S
C932 C933 1.394 . S
C932 H942 0.932 . S
C933 C929 1.308 . S
C933 C932 1.394 . S
C933 H943 0.929 . S
C934 Tb905 2.764 . S
C934 O918 1.239 . S
C934 O919 1.263 . S
C934 C928 1.504 . S
C935 O920 1.236 . S
C935 O921 1.257 . S
H936 C909 0.932 . S
H937 C910 0.930 . S
H938 C911 0.932 . S
H939 C912 0.929 . S
H940 C930 0.932 . S
H941 C931 0.930 . S
H942 C932 0.932 . S
H943 C933 0.929 . S
Tb944 C953 2.764 . S
Tb944 O954 2.325 . S
Tb944 O957 2.303 . S
Tb944 O961 2.322 1_545 S
Tb944 O962 2.349 . S
Tb944 O965 2.415 . S
Tb944 O966 2.399 . S
Tb945 O955 2.322 . S
Tb945 O956 2.349 . S
Tb945 O958 2.415 . S
Tb945 O959 2.399 . S
Tb945 O960 2.325 . S
Tb945 O963 2.303 . S
Tb945 C974 2.764 . S
C946 O962 1.261 . S
C946 O963 1.257 . S
C947 C950 1.358 . S
C947 C951 1.332 . S
C947 C953 1.504 . S
C948 C949 1.373 . S
C948 C952 1.308 . S
C949 C948 1.373 . S
C949 C950 1.429 . S
C949 H976 0.932 . S
C950 C947 1.358 . S
C950 C949 1.429 . S
C950 H977 0.930 . S
C951 C947 1.332 . S
C951 C952 1.394 . S
C951 H978 0.932 . S
C952 C948 1.308 . S
C952 C951 1.394 . S
C952 H979 0.929 . S
C953 Tb944 2.764 . S
C953 C947 1.504 . S
C953 O965 1.239 . S
C953 O966 1.263 . S
O954 Tb944 2.325 . S
O954 C964 1.236 . S
O955 Tb945 2.322 . S
O955 C964 1.257 . S
O956 Tb945 2.349 . S
O956 C967 1.261 . S
O957 Tb944 2.303 . S
O957 C967 1.257 . S
O958 Tb945 2.415 . S
O958 C974 1.239 . S
O959 Tb945 2.399 . S
O959 C974 1.263 . S
O960 Tb945 2.325 . S
O960 C975 1.236 1_545 S
O961 Tb944 2.322 1_565 S
O961 C975 1.257 . S
O962 Tb944 2.349 . S
O962 C946 1.261 . S
O963 Tb945 2.303 . S
O963 C946 1.257 . S
C964 O954 1.236 . S
C964 O955 1.257 . S
O965 Tb944 2.415 . S
O965 C953 1.239 . S
O966 Tb944 2.399 . S
O966 C953 1.263 . S
C967 O956 1.261 . S
C967 O957 1.257 . S
C968 C971 1.358 . S
C968 C972 1.332 1_545 S
C968 C974 1.504 . S
C969 C970 1.373 . S
C969 C973 1.308 . S
C970 C969 1.373 . S
C970 C971 1.429 1_565 S
C970 H980 0.935 . S
C971 C968 1.358 . S
C971 C970 1.429 1_545 S
C971 H981 0.930 . S
C972 C968 1.332 1_565 S
C972 C973 1.394 . S
C972 H982 0.932 . S
C973 C969 1.308 . S
C973 C972 1.394 . S
C973 H983 0.929 . S
C974 Tb945 2.764 . S
C974 O958 1.239 . S
C974 O959 1.263 . S
C974 C968 1.504 . S
C975 O960 1.236 1_565 S
C975 O961 1.257 . S
H976 C949 0.932 . S
H977 C950 0.930 . S
H978 C951 0.932 . S
H979 C952 0.929 . S
H980 C970 0.935 . S
H981 C971 0.930 . S
H982 C972 0.932 . S
H983 C973 0.929 . S
Tb984 C993 2.764 . S
Tb984 O994 2.325 . S
Tb984 O997 2.303 . S
Tb984 O1001 2.322 . S
Tb984 O1002 2.349 . S
Tb984 O1005 2.415 . S
Tb984 O1006 2.399 . S
Tb985 O995 2.322 . S
Tb985 O996 2.349 . S
Tb985 O998 2.415 . S
Tb985 O999 2.399 . S
Tb985 O1000 2.325 . S
Tb985 O1003 2.303 . S
Tb985 C1014 2.764 . S
C986 O1002 1.261 . S
C986 O1003 1.257 . S
C987 C990 1.358 . S
C987 C991 1.332 . S
C987 C993 1.504 . S
C988 C989 1.373 . S
C988 C992 1.308 . S
C989 C988 1.373 . S
C989 C990 1.429 . S
C989 H1016 0.932 . S
C990 C987 1.358 . S
C990 C989 1.429 . S
C990 H1017 0.930 . S
C991 C987 1.332 . S
C991 C992 1.394 . S
C991 H1018 0.932 . S
C992 C988 1.308 . S
C992 C991 1.394 . S
C992 H1019 0.929 . S
C993 Tb984 2.764 . S
C993 C987 1.504 . S
C993 O1005 1.239 . S
C993 O1006 1.263 . S
O994 Tb984 2.325 . S
O994 C1004 1.236 . S
O995 Tb985 2.322 . S
O995 C1004 1.257 . S
O996 Tb985 2.349 . S
O996 C1007 1.261 . S
O997 Tb984 2.303 . S
O997 C1007 1.257 . S
O998 Tb985 2.415 . S
O998 C1014 1.239 . S
O999 Tb985 2.399 . S
O999 C1014 1.263 . S
O1000 Tb985 2.325 . S
O1000 C1015 1.236 . S
O1001 Tb984 2.322 . S
O1001 C1015 1.257 . S
O1002 Tb984 2.349 . S
O1002 C986 1.261 . S
O1003 Tb985 2.303 . S
O1003 C986 1.257 . S
C1004 O994 1.236 . S
C1004 O995 1.257 . S
O1005 Tb984 2.415 . S
O1005 C993 1.239 . S
O1006 Tb984 2.399 . S
O1006 C993 1.263 . S
C1007 O996 1.261 . S
C1007 O997 1.257 . S
C1008 C1011 1.358 . S
C1008 C1012 1.332 . S
C1008 C1014 1.504 . S
C1009 C1010 1.373 . S
C1009 C1013 1.308 . S
C1010 C1009 1.373 . S
C1010 C1011 1.429 . S
C1010 H1020 0.932 . S
C1011 C1008 1.358 . S
C1011 C1010 1.429 . S
C1011 H1021 0.930 . S
C1012 C1008 1.332 . S
C1012 C1013 1.394 . S
C1012 H1022 0.932 . S
C1013 C1009 1.308 . S
C1013 C1012 1.394 . S
C1013 H1023 0.929 . S
C1014 Tb985 2.764 . S
C1014 O998 1.239 . S
C1014 O999 1.263 . S
C1014 C1008 1.504 . S
C1015 O1000 1.236 . S
C1015 O1001 1.257 . S
H1016 C989 0.932 . S
H1017 C990 0.930 . S
H1018 C991 0.932 . S
H1019 C992 0.929 . S
H1020 C1010 0.932 . S
H1021 C1011 0.930 . S
H1022 C1012 0.932 . S
H1023 C1013 0.929 . S
Tb1024 C1033 2.764 . S
Tb1024 O1034 2.325 . S
Tb1024 O1037 2.303 . S
Tb1024 O1041 2.322 . S
Tb1024 O1042 2.409 . S
Tb1024 O1045 2.415 . S
Tb1024 O1046 2.399 . S
Tb1025 O1035 2.322 1_545 S
Tb1025 O1036 2.349 . S
Tb1025 O1038 2.415 . S
Tb1025 O1039 2.399 . S
Tb1025 O1040 2.325 . S
Tb1025 O1043 2.303 . S
Tb1025 C1054 2.764 . S
C1026 O1042 1.265 1_655 S
C1026 O1043 1.257 1_655 S
C1027 C1030 1.358 . S
C1027 C1031 1.332 . S
C1027 C1033 1.504 . S
C1028 C1029 1.373 . S
C1028 C1032 1.308 . S
C1029 C1028 1.373 . S
C1029 C1030 1.429 . S
C1029 H1056 0.932 . S
C1030 C1027 1.358 . S
C1030 C1029 1.429 . S
C1030 H1057 0.930 . S
C1031 C1027 1.332 . S
C1031 C1032 1.394 . S
C1031 H1058 0.932 . S
C1032 C1028 1.308 . S
C1032 C1031 1.394 . S
C1032 H1059 0.929 . S
C1033 Tb1024 2.764 . S
C1033 C1027 1.504 . S
C1033 O1045 1.239 . S
C1033 O1046 1.263 . S
O1034 Tb1024 2.325 . S
O1034 C1044 1.236 1_545 S
O1035 Tb1025 2.322 1_565 S
O1035 C1044 1.257 . S
O1036 Tb1025 2.349 . S
O1036 C1047 1.261 . S
O1037 Tb1024 2.303 . S
O1037 C1047 1.257 . S
O1038 Tb1025 2.415 . S
O1038 C1054 1.239 . S
O1039 Tb1025 2.399 . S
O1039 C1054 1.263 . S
O1040 Tb1025 2.325 . S
O1040 C1055 1.236 . S
O1041 Tb1024 2.322 . S
O1041 C1055 1.257 . S
O1042 Tb1024 2.409 . S
O1042 C1026 1.265 1_455 S
O1043 Tb1025 2.303 . S
O1043 C1026 1.257 1_455 S
C1044 O1034 1.236 1_565 S
C1044 O1035 1.257 . S
O1045 Tb1024 2.415 . S
O1045 C1033 1.239 . S
O1046 Tb1024 2.399 . S
O1046 C1033 1.263 . S
C1047 O1036 1.261 . S
C1047 O1037 1.257 . S
C1048 C1051 1.358 . S
C1048 C1052 1.332 1_455 S
C1048 C1054 1.504 . S
C1049 C1050 1.373 . S
C1049 C1053 1.308 1_455 S
C1050 C1049 1.373 . S
C1050 C1051 1.429 . S
C1050 H1060 0.932 . S
C1051 C1048 1.358 . S
C1051 C1050 1.429 . S
C1051 H1061 0.930 . S
C1052 C1048 1.332 1_655 S
C1052 C1053 1.394 . S
C1052 H1062 0.932 . S
C1053 C1049 1.308 1_655 S
C1053 C1052 1.394 . S
C1053 H1063 0.929 . S
C1054 Tb1025 2.764 . S
C1054 O1038 1.239 . S
C1054 O1039 1.263 . S
C1054 C1048 1.504 . S
C1055 O1040 1.236 . S
C1055 O1041 1.257 . S
H1056 C1029 0.932 . S
H1057 C1030 0.930 . S
H1058 C1031 0.932 . S
H1059 C1032 0.929 . S
H1060 C1050 0.932 . S
H1061 C1051 0.930 . S
H1062 C1052 0.932 . S
H1063 C1053 0.929 . S
Tb1064 C1073 2.764 . S
Tb1064 O1074 2.325 . S
Tb1064 O1077 2.303 . S
Tb1064 O1081 2.322 . S
Tb1064 O1082 2.349 . S
Tb1064 O1085 2.415 . S
Tb1064 O1086 2.399 . S
Tb1065 O1075 2.322 . S
Tb1065 O1076 2.349 . S
Tb1065 O1078 2.415 . S
Tb1065 O1079 2.399 . S
Tb1065 O1080 2.325 . S
Tb1065 O1083 2.303 . S
Tb1065 C1094 2.764 . S
C1066 O1082 1.261 . S
C1066 O1083 1.257 . S
C1067 C1070 1.358 . S
C1067 C1071 1.332 . S
C1067 C1073 1.504 . S
C1068 C1069 1.373 . S
C1068 C1072 1.308 . S
C1069 C1068 1.373 . S
C1069 C1070 1.429 . S
C1069 H1096 0.932 . S
C1070 C1067 1.358 . S
C1070 C1069 1.429 . S
C1070 H1097 0.930 . S
C1071 C1067 1.332 . S
C1071 C1072 1.394 . S
C1071 H1098 0.932 . S
C1072 C1068 1.308 . S
C1072 C1071 1.394 . S
C1072 H1099 0.929 . S
C1073 Tb1064 2.764 . S
C1073 C1067 1.504 . S
C1073 O1085 1.239 . S
C1073 O1086 1.263 . S
O1074 Tb1064 2.325 . S
O1074 C1084 1.236 . S
O1075 Tb1065 2.322 . S
O1075 C1084 1.257 . S
O1076 Tb1065 2.349 . S
O1076 C1087 1.261 . S
O1077 Tb1064 2.303 . S
O1077 C1087 1.257 . S
O1078 Tb1065 2.415 . S
O1078 C1094 1.239 . S
O1079 Tb1065 2.399 . S
O1079 C1094 1.263 . S
O1080 Tb1065 2.325 . S
O1080 C1095 1.236 . S
O1081 Tb1064 2.322 . S
O1081 C1095 1.257 . S
O1082 Tb1064 2.349 . S
O1082 C1066 1.261 . S
O1083 Tb1065 2.303 . S
O1083 C1066 1.257 . S
C1084 O1074 1.236 . S
C1084 O1075 1.257 . S
O1085 Tb1064 2.415 . S
O1085 C1073 1.239 . S
O1086 Tb1064 2.399 . S
O1086 C1073 1.263 . S
C1087 O1076 1.261 . S
C1087 O1077 1.257 . S
C1088 C1091 1.358 . S
C1088 C1092 1.332 . S
C1088 C1094 1.504 . S
C1089 C1090 1.373 . S
C1089 C1093 1.308 . S
C1090 C1089 1.373 . S
C1090 C1091 1.429 . S
C1090 H1100 0.932 . S
C1091 C1088 1.358 . S
C1091 C1090 1.429 . S
C1091 H1101 0.930 . S
C1092 C1088 1.332 . S
C1092 C1093 1.394 . S
C1092 H1102 0.932 . S
C1093 C1089 1.308 . S
C1093 C1092 1.394 . S
C1093 H1103 0.929 . S
C1094 Tb1065 2.764 . S
C1094 O1078 1.239 . S
C1094 O1079 1.263 . S
C1094 C1088 1.504 . S
C1095 O1080 1.236 . S
C1095 O1081 1.257 . S
H1096 C1069 0.932 . S
H1097 C1070 0.930 . S
H1098 C1071 0.932 . S
H1099 C1072 0.929 . S
H1100 C1090 0.932 . S
H1101 C1091 0.930 . S
H1102 C1092 0.932 . S
H1103 C1093 0.929 . S
Tb1104 C1113 2.764 . S
Tb1104 O1114 2.325 . S
Tb1104 O1117 2.303 . S
Tb1104 O1121 2.322 1_545 S
Tb1104 O1122 2.349 . S
Tb1104 O1125 2.415 . S
Tb1104 O1126 2.399 . S
Tb1105 O1115 2.356 . S
Tb1105 O1116 2.349 . S
Tb1105 O1118 2.383 1_554 S
Tb1105 O1119 2.355 1_554 S
Tb1105 O1120 2.325 1_554 S
Tb1105 O1123 2.334 . S
Tb1105 C1134 2.721 1_554 S
C1106 O1122 1.261 . S
C1106 O1123 1.257 . S
C1107 C1110 1.358 . S
C1107 C1111 1.332 . S
C1107 C1113 1.504 . S
C1108 C1109 1.373 . S
C1108 C1112 1.308 . S
C1109 C1108 1.373 . S
C1109 C1110 1.429 . S
C1109 H1136 0.932 . S
C1110 C1107 1.358 . S
C1110 C1109 1.429 . S
C1110 H1137 0.930 . S
C1111 C1107 1.332 . S
C1111 C1112 1.394 . S
C1111 H1138 0.932 . S
C1112 C1108 1.308 . S
C1112 C1111 1.394 . S
C1112 H1139 0.929 . S
C1113 Tb1104 2.764 . S
C1113 C1107 1.504 . S
C1113 O1125 1.239 . S
C1113 O1126 1.263 . S
O1114 Tb1104 2.325 . S
O1114 C1124 1.236 . S
O1115 Tb1105 2.356 . S
O1115 C1124 1.257 . S
O1116 Tb1105 2.349 . S
O1116 C1127 1.306 . S
O1117 Tb1104 2.303 . S
O1117 C1127 1.257 . S
O1118 Tb1105 2.383 1_556 S
O1118 C1134 1.239 . S
O1119 Tb1105 2.355 1_556 S
O1119 C1134 1.263 . S
O1120 Tb1105 2.325 1_556 S
O1120 C1135 1.236 1_546 S
O1121 Tb1104 2.322 1_565 S
O1121 C1135 1.257 . S
O1122 Tb1104 2.349 . S
O1122 C1106 1.261 . S
O1123 Tb1105 2.334 . S
O1123 C1106 1.257 . S
C1124 O1114 1.236 . S
C1124 O1115 1.257 . S
O1125 Tb1104 2.415 . S
O1125 C1113 1.239 . S
O1126 Tb1104 2.399 . S
O1126 C1113 1.263 . S
C1127 O1116 1.306 . S
C1127 O1117 1.257 . S
C1128 C1131 1.358 . S
C1128 C1132 1.332 . S
C1128 C1134 1.504 . S
C1129 C1130 1.373 . S
C1129 C1133 1.308 . S
C1130 C1129 1.373 . S
C1130 C1131 1.429 . S
C1130 H1140 0.932 . S
C1131 C1128 1.358 . S
C1131 C1130 1.429 . S
C1131 H1141 0.930 . S
C1132 C1128 1.332 . S
C1132 C1133 1.394 . S
C1132 H1142 0.932 . S
C1133 C1129 1.308 . S
C1133 C1132 1.394 . S
C1133 H1143 0.929 . S
C1134 Tb1105 2.721 1_556 S
C1134 O1118 1.239 . S
C1134 O1119 1.263 . S
C1134 C1128 1.504 . S
C1135 O1120 1.236 1_564 S
C1135 O1121 1.257 . S
H1136 C1109 0.932 . S
H1137 C1110 0.930 . S
H1138 C1111 0.932 . S
H1139 C1112 0.929 . S
H1140 C1130 0.932 . S
H1141 C1131 0.930 . S
H1142 C1132 0.932 . S
H1143 C1133 0.929 . S
Tb1144 C1153 2.764 . S
Tb1144 O1154 2.325 . S
Tb1144 O1157 2.303 . S
Tb1144 O1161 2.322 . S
Tb1144 O1162 2.349 . S
Tb1144 O1165 2.415 . S
Tb1144 O1166 2.399 . S
Tb1145 O1155 2.322 . S
Tb1145 O1156 2.349 . S
Tb1145 O1158 2.415 . S
Tb1145 O1159 2.399 . S
Tb1145 O1160 2.325 . S
Tb1145 O1163 2.303 . S
Tb1145 C1174 2.764 . S
C1146 O1162 1.261 . S
C1146 O1163 1.257 . S
C1147 C1150 1.358 . S
C1147 C1151 1.332 . S
C1147 C1153 1.504 . S
C1148 C1149 1.373 . S
C1148 C1152 1.308 . S
C1149 C1148 1.373 . S
C1149 C1150 1.429 . S
C1149 H1176 0.932 . S
C1150 C1147 1.358 . S
C1150 C1149 1.429 . S
C1150 H1177 0.930 . S
C1151 C1147 1.332 . S
C1151 C1152 1.394 . S
C1151 H1178 0.932 . S
C1152 C1148 1.308 . S
C1152 C1151 1.394 . S
C1152 H1179 0.929 . S
C1153 Tb1144 2.764 . S
C1153 C1147 1.504 . S
C1153 O1165 1.239 . S
C1153 O1166 1.263 . S
O1154 Tb1144 2.325 . S
O1154 C1164 1.236 . S
O1155 Tb1145 2.322 . S
O1155 C1164 1.257 . S
O1156 Tb1145 2.349 . S
O1156 C1167 1.261 . S
O1157 Tb1144 2.303 . S
O1157 C1167 1.257 . S
O1158 Tb1145 2.415 . S
O1158 C1174 1.239 . S
O1159 Tb1145 2.399 . S
O1159 C1174 1.263 . S
O1160 Tb1145 2.325 . S
O1160 C1175 1.236 . S
O1161 Tb1144 2.322 . S
O1161 C1175 1.257 . S
O1162 Tb1144 2.349 . S
O1162 C1146 1.261 . S
O1163 Tb1145 2.303 . S
O1163 C1146 1.257 . S
C1164 O1154 1.236 . S
C1164 O1155 1.257 . S
O1165 Tb1144 2.415 . S
O1165 C1153 1.239 . S
O1166 Tb1144 2.399 . S
O1166 C1153 1.263 . S
C1167 O1156 1.261 . S
C1167 O1157 1.257 . S
C1168 C1171 1.358 . S
C1168 C1172 1.332 . S
C1168 C1174 1.504 . S
C1169 C1170 1.373 . S
C1169 C1173 1.308 . S
C1170 C1169 1.373 . S
C1170 C1171 1.429 . S
C1170 H1180 0.932 . S
C1171 C1168 1.358 . S
C1171 C1170 1.429 . S
C1171 H1181 0.930 . S
C1172 C1168 1.332 . S
C1172 C1173 1.394 . S
C1172 H1182 0.932 . S
C1173 C1169 1.308 . S
C1173 C1172 1.394 . S
C1173 H1183 0.929 . S
C1174 Tb1145 2.764 . S
C1174 O1158 1.239 . S
C1174 O1159 1.263 . S
C1174 C1168 1.504 . S
C1175 O1160 1.236 . S
C1175 O1161 1.257 . S
H1176 C1149 0.932 . S
H1177 C1150 0.930 . S
H1178 C1151 0.932 . S
H1179 C1152 0.929 . S
H1180 C1170 0.932 . S
H1181 C1171 0.930 . S
H1182 C1172 0.932 . S
H1183 C1173 0.929 . S
Tb1184 C1193 2.764 . S
Tb1184 O1194 2.325 . S
Tb1184 O1197 2.303 . S
Tb1184 O1201 2.322 . S
Tb1184 O1202 2.349 . S
Tb1184 O1205 2.415 . S
Tb1184 O1206 2.399 . S
Tb1185 O1195 2.312 1_556 S
Tb1185 O1196 2.349 1_556 S
Tb1185 O1198 2.424 . S
Tb1185 O1199 2.412 . S
Tb1185 O1200 2.321 . S
Tb1185 O1203 2.294 1_556 S
Tb1185 C1214 2.777 . S
C1186 O1202 1.261 . S
C1186 O1203 1.257 . S
C1187 C1190 1.358 . S
C1187 C1191 1.332 . S
C1187 C1193 1.504 . S
C1188 C1189 1.373 . S
C1188 C1192 1.308 . S
C1189 C1188 1.373 . S
C1189 C1190 1.429 . S
C1189 H1216 0.932 . S
C1190 C1187 1.358 . S
C1190 C1189 1.429 . S
C1190 H1217 0.930 . S
C1191 C1187 1.332 . S
C1191 C1192 1.394 . S
C1191 H1218 0.932 . S
C1192 C1188 1.308 . S
C1192 C1191 1.394 . S
C1192 H1219 0.929 . S
C1193 Tb1184 2.764 . S
C1193 C1187 1.504 . S
C1193 O1205 1.239 . S
C1193 O1206 1.263 . S
O1194 Tb1184 2.325 . S
O1194 C1204 1.236 . S
O1195 Tb1185 2.312 1_554 S
O1195 C1204 1.257 . S
O1196 Tb1185 2.349 1_554 S
O1196 C1207 1.261 . S
O1197 Tb1184 2.303 . S
O1197 C1207 1.257 . S
O1198 Tb1185 2.424 . S
O1198 C1214 1.239 . S
O1199 Tb1185 2.412 . S
O1199 C1214 1.263 . S
O1200 Tb1185 2.321 . S
O1200 C1215 1.201 1_556 S
O1201 Tb1184 2.322 . S
O1201 C1215 1.257 . S
O1202 Tb1184 2.349 . S
O1202 C1186 1.261 . S
O1203 Tb1185 2.294 1_554 S
O1203 C1186 1.257 . S
C1204 O1194 1.236 . S
C1204 O1195 1.257 . S
O1205 Tb1184 2.415 . S
O1205 C1193 1.239 . S
O1206 Tb1184 2.399 . S
O1206 C1193 1.263 . S
C1207 O1196 1.261 . S
C1207 O1197 1.257 . S
C1208 C1211 1.358 . S
C1208 C1212 1.332 . S
C1208 C1214 1.504 . S
C1209 C1210 1.373 . S
C1209 C1213 1.308 . S
C1210 C1209 1.373 . S
C1210 C1211 1.429 . S
C1210 H1220 0.932 . S
C1211 C1208 1.358 . S
C1211 C1210 1.429 . S
C1211 H1221 0.930 . S
C1212 C1208 1.332 . S
C1212 C1213 1.394 . S
C1212 H1222 0.932 . S
C1213 C1209 1.308 . S
C1213 C1212 1.394 . S
C1213 H1223 0.929 . S
C1214 Tb1185 2.777 . S
C1214 O1198 1.239 . S
C1214 O1199 1.263 . S
C1214 C1208 1.504 . S
C1215 O1200 1.201 1_554 S
C1215 O1201 1.257 . S
H1216 C1189 0.932 . S
H1217 C1190 0.930 . S
H1218 C1191 0.932 . S
H1219 C1192 0.929 . S
H1220 C1210 0.932 . S
H1221 C1211 0.930 . S
H1222 C1212 0.932 . S
H1223 C1213 0.929 . S
Tb1224 C1233 2.764 . S
Tb1224 O1234 2.325 . S
Tb1224 O1237 2.303 . S
Tb1224 O1241 2.322 . S
Tb1224 O1242 2.349 . S
Tb1224 O1245 2.415 . S
Tb1224 O1246 2.399 . S
Tb1225 O1235 2.322 . S
Tb1225 O1236 2.349 . S
Tb1225 O1238 2.415 . S
Tb1225 O1239 2.399 . S
Tb1225 O1240 2.325 . S
Tb1225 O1243 2.303 . S
Tb1225 C1254 2.764 . S
C1226 O1242 1.261 . S
C1226 O1243 1.257 . S
C1227 C1230 1.358 . S
C1227 C1231 1.332 . S
C1227 C1233 1.504 . S
C1228 C1229 1.373 . S
C1228 C1232 1.308 . S
C1229 C1228 1.373 . S
C1229 C1230 1.429 . S
C1229 H1256 0.932 . S
C1230 C1227 1.358 . S
C1230 C1229 1.429 . S
C1230 H1257 0.930 . S
C1231 C1227 1.332 . S
C1231 C1232 1.394 . S
C1231 H1258 0.932 . S
C1232 C1228 1.308 . S
C1232 C1231 1.394 . S
C1232 H1259 0.929 . S
C1233 Tb1224 2.764 . S
C1233 C1227 1.504 . S
C1233 O1245 1.239 . S
C1233 O1246 1.263 . S
O1234 Tb1224 2.325 . S
O1234 C1244 1.236 . S
O1235 Tb1225 2.322 . S
O1235 C1244 1.257 . S
O1236 Tb1225 2.349 . S
O1236 C1247 1.261 . S
O1237 Tb1224 2.303 . S
O1237 C1247 1.257 . S
O1238 Tb1225 2.415 . S
O1238 C1254 1.239 . S
O1239 Tb1225 2.399 . S
O1239 C1254 1.263 . S
O1240 Tb1225 2.325 . S
O1240 C1255 1.236 . S
O1241 Tb1224 2.322 . S
O1241 C1255 1.257 . S
O1242 Tb1224 2.349 . S
O1242 C1226 1.261 . S
O1243 Tb1225 2.303 . S
O1243 C1226 1.257 . S
C1244 O1234 1.236 . S
C1244 O1235 1.257 . S
O1245 Tb1224 2.415 . S
O1245 C1233 1.239 . S
O1246 Tb1224 2.399 . S
O1246 C1233 1.263 . S
C1247 O1236 1.261 . S
C1247 O1237 1.257 . S
C1248 C1251 1.358 . S
C1248 C1252 1.332 . S
C1248 C1254 1.504 . S
C1249 C1250 1.373 . S
C1249 C1253 1.308 . S
C1250 C1249 1.373 . S
C1250 C1251 1.429 . S
C1250 H1260 0.932 . S
C1251 C1248 1.358 . S
C1251 C1250 1.429 . S
C1251 H1261 0.930 . S
C1252 C1248 1.332 . S
C1252 C1253 1.394 . S
C1252 H1262 0.932 . S
C1253 C1249 1.308 . S
C1253 C1252 1.394 . S
C1253 H1263 0.929 . S
C1254 Tb1225 2.764 . S
C1254 O1238 1.239 . S
C1254 O1239 1.263 . S
C1254 C1248 1.504 . S
C1255 O1240 1.236 . S
C1255 O1241 1.257 . S
H1256 C1229 0.932 . S
H1257 C1230 0.930 . S
H1258 C1231 0.932 . S
H1259 C1232 0.929 . S
H1260 C1250 0.932 . S
H1261 C1251 0.930 . S
H1262 C1252 0.932 . S
H1263 C1253 0.929 . S
Tb1264 C1273 2.764 . S
Tb1264 O1274 2.325 . S
Tb1264 O1277 2.303 . S
Tb1264 O1281 2.322 . S
Tb1264 O1282 2.349 . S
Tb1264 O1285 2.415 . S
Tb1264 O1286 2.399 . S
Tb1265 O1275 2.322 . S
Tb1265 O1276 2.349 . S
Tb1265 O1278 2.415 . S
Tb1265 O1279 2.399 . S
Tb1265 O1280 2.325 . S
Tb1265 O1283 2.303 . S
Tb1265 C1294 2.764 . S
C1266 O1282 1.261 . S
C1266 O1283 1.257 . S
C1267 C1270 1.358 . S
C1267 C1271 1.332 . S
C1267 C1273 1.504 . S
C1268 C1269 1.373 . S
C1268 C1272 1.271 1_455 S
C1269 C1268 1.373 . S
C1269 C1270 1.429 . S
C1269 H1296 0.932 . S
C1270 C1267 1.358 . S
C1270 C1269 1.429 . S
C1270 H1297 0.930 . S
C1271 C1267 1.332 . S
C1271 C1272 1.372 1_455 S
C1271 H1298 0.932 1_455 S
C1272 C1268 1.271 1_655 S
C1272 C1271 1.372 1_655 S
C1272 H1299 0.992 . S
C1273 Tb1264 2.764 . S
C1273 C1267 1.504 . S
C1273 O1285 1.239 . S
C1273 O1286 1.263 . S
O1274 Tb1264 2.325 . S
O1274 C1284 1.236 . S
O1275 Tb1265 2.322 . S
O1275 C1284 1.257 . S
O1276 Tb1265 2.349 . S
O1276 C1287 1.261 . S
O1277 Tb1264 2.303 . S
O1277 C1287 1.257 . S
O1278 Tb1265 2.415 . S
O1278 C1294 1.239 . S
O1279 Tb1265 2.399 . S
O1279 C1294 1.263 . S
O1280 Tb1265 2.325 . S
O1280 C1295 1.236 . S
O1281 Tb1264 2.322 . S
O1281 C1295 1.257 . S
O1282 Tb1264 2.349 . S
O1282 C1266 1.261 . S
O1283 Tb1265 2.303 . S
O1283 C1266 1.257 . S
C1284 O1274 1.236 . S
C1284 O1275 1.257 . S
O1285 Tb1264 2.415 . S
O1285 C1273 1.239 . S
O1286 Tb1264 2.399 . S
O1286 C1273 1.263 . S
C1287 O1276 1.261 . S
C1287 O1277 1.257 . S
C1288 C1291 1.358 . S
C1288 C1292 1.332 . S
C1288 C1294 1.504 . S
C1289 C1290 1.373 . S
C1289 C1293 1.308 . S
C1290 C1289 1.373 . S
C1290 C1291 1.429 . S
C1290 H1300 0.932 . S
C1291 C1288 1.358 . S
C1291 C1290 1.429 . S
C1291 H1301 0.930 . S
C1292 C1288 1.332 . S
C1292 C1293 1.394 . S
C1292 H1302 0.932 . S
C1293 C1289 1.308 . S
C1293 C1292 1.394 . S
C1293 H1303 0.929 . S
C1294 Tb1265 2.764 . S
C1294 O1278 1.239 . S
C1294 O1279 1.263 . S
C1294 C1288 1.504 . S
C1295 O1280 1.236 . S
C1295 O1281 1.257 . S
H1296 C1269 0.932 . S
H1297 C1270 0.930 . S
H1298 C1271 0.932 1_655 S
H1299 C1272 0.992 . S
H1300 C1290 0.932 . S
H1301 C1291 0.930 . S
H1302 C1292 0.932 . S
H1303 C1293 0.929 . S
Tb1304 C1313 2.764 . S
Tb1304 O1314 2.325 . S
Tb1304 O1317 2.303 . S
Tb1304 O1321 2.322 . S
Tb1304 O1322 2.349 . S
Tb1304 O1325 2.415 . S
Tb1304 O1326 2.399 . S
Tb1305 O1315 2.322 . S
Tb1305 O1316 2.349 . S
Tb1305 O1318 2.415 . S
Tb1305 O1319 2.399 . S
Tb1305 O1320 2.325 . S
Tb1305 O1323 2.303 . S
Tb1305 C1334 2.764 . S
C1306 O1322 1.261 . S
C1306 O1323 1.257 . S
C1307 C1310 1.358 . S
C1307 C1311 1.332 . S
C1307 C1313 1.504 . S
C1308 C1309 1.373 . S
C1308 C1312 1.308 . S
C1309 C1308 1.373 . S
C1309 C1310 1.429 . S
C1309 H1336 0.932 . S
C1310 C1307 1.358 . S
C1310 C1309 1.429 . S
C1310 H1337 0.930 . S
C1311 C1307 1.332 . S
C1311 C1312 1.394 . S
C1311 H1338 0.932 . S
C1312 C1308 1.308 . S
C1312 C1311 1.394 . S
C1312 H1339 0.929 . S
C1313 Tb1304 2.764 . S
C1313 C1307 1.504 . S
C1313 O1325 1.239 . S
C1313 O1326 1.263 . S
O1314 Tb1304 2.325 . S
O1314 C1324 1.236 . S
O1315 Tb1305 2.322 . S
O1315 C1324 1.257 . S
O1316 Tb1305 2.349 . S
O1316 C1327 1.261 . S
O1317 Tb1304 2.303 . S
O1317 C1327 1.257 . S
O1318 Tb1305 2.415 . S
O1318 C1334 1.239 . S
O1319 Tb1305 2.399 . S
O1319 C1334 1.263 . S
O1320 Tb1305 2.325 . S
O1320 C1335 1.236 . S
O1321 Tb1304 2.322 . S
O1321 C1335 1.257 . S
O1322 Tb1304 2.349 . S
O1322 C1306 1.261 . S
O1323 Tb1305 2.303 . S
O1323 C1306 1.257 . S
C1324 O1314 1.236 . S
C1324 O1315 1.257 . S
O1325 Tb1304 2.415 . S
O1325 C1313 1.239 . S
O1326 Tb1304 2.399 . S
O1326 C1313 1.263 . S
C1327 O1316 1.261 . S
C1327 O1317 1.257 . S
C1328 C1331 1.358 . S
C1328 C1332 1.332 . S
C1328 C1334 1.504 . S
C1329 C1330 1.373 . S
C1329 C1333 1.308 . S
C1330 C1329 1.373 . S
C1330 C1331 1.429 . S
C1330 H1340 0.932 . S
C1331 C1328 1.358 . S
C1331 C1330 1.429 . S
C1331 H1341 0.930 . S
C1332 C1328 1.332 . S
C1332 C1333 1.394 . S
C1332 H1342 0.932 . S
C1333 C1329 1.308 . S
C1333 C1332 1.394 . S
C1333 H1343 0.929 . S
C1334 Tb1305 2.764 . S
C1334 O1318 1.239 . S
C1334 O1319 1.263 . S
C1334 C1328 1.504 . S
C1335 O1320 1.236 . S
C1335 O1321 1.257 . S
H1336 C1309 0.932 . S
H1337 C1310 0.930 . S
H1338 C1311 0.932 . S
H1339 C1312 0.929 . S
H1340 C1330 0.932 . S
H1341 C1331 0.930 . S
H1342 C1332 0.932 . S
H1343 C1333 0.929 . S
Tb1344 C1353 2.764 . S
Tb1344 O1354 2.325 . S
Tb1344 O1357 2.303 . S
Tb1344 O1361 2.322 . S
Tb1344 O1362 2.349 . S
Tb1344 O1365 2.415 . S
Tb1344 O1366 2.399 . S
Tb1345 O1355 2.322 . S
Tb1345 O1356 2.349 . S
Tb1345 O1358 2.415 . S
Tb1345 O1359 2.399 . S
Tb1345 O1360 2.325 . S
Tb1345 O1363 2.303 . S
Tb1345 C1374 2.764 . S
C1346 O1362 1.261 . S
C1346 O1363 1.257 . S
C1347 C1350 1.358 . S
C1347 C1351 1.332 . S
C1347 C1353 1.504 . S
C1348 C1349 1.373 . S
C1348 C1352 1.308 . S
C1349 C1348 1.373 . S
C1349 C1350 1.429 . S
C1349 H1376 0.932 . S
C1350 C1347 1.358 . S
C1350 C1349 1.429 . S
C1350 H1377 0.930 . S
C1351 C1347 1.332 . S
C1351 C1352 1.394 . S
C1351 H1378 0.932 . S
C1352 C1348 1.308 . S
C1352 C1351 1.394 . S
C1352 H1379 0.929 . S
C1353 Tb1344 2.764 . S
C1353 C1347 1.504 . S
C1353 O1365 1.239 . S
C1353 O1366 1.263 . S
O1354 Tb1344 2.325 . S
O1354 C1364 1.236 . S
O1355 Tb1345 2.322 . S
O1355 C1364 1.257 . S
O1356 Tb1345 2.349 . S
O1356 C1367 1.261 . S
O1357 Tb1344 2.303 . S
O1357 C1367 1.257 . S
O1358 Tb1345 2.415 . S
O1358 C1374 1.239 . S
O1359 Tb1345 2.399 . S
O1359 C1374 1.263 . S
O1360 Tb1345 2.325 . S
O1360 C1375 1.236 . S
O1361 Tb1344 2.322 . S
O1361 C1375 1.257 . S
O1362 Tb1344 2.349 . S
O1362 C1346 1.261 . S
O1363 Tb1345 2.303 . S
O1363 C1346 1.257 . S
C1364 O1354 1.236 . S
C1364 O1355 1.257 . S
O1365 Tb1344 2.415 . S
O1365 C1353 1.239 . S
O1366 Tb1344 2.399 . S
O1366 C1353 1.263 . S
C1367 O1356 1.261 . S
C1367 O1357 1.257 . S
C1368 C1371 1.358 . S
C1368 C1372 1.332 . S
C1368 C1374 1.504 . S
C1369 C1370 1.373 . S
C1369 C1373 1.308 . S
C1370 C1369 1.373 . S
C1370 C1371 1.429 . S
C1370 H1380 0.932 . S
C1371 C1368 1.358 . S
C1371 C1370 1.429 . S
C1371 H1381 0.930 . S
C1372 C1368 1.332 . S
C1372 C1373 1.394 . S
C1372 H1382 0.932 . S
C1373 C1369 1.308 . S
C1373 C1372 1.394 . S
C1373 H1383 0.929 . S
C1374 Tb1345 2.764 . S
C1374 O1358 1.239 . S
C1374 O1359 1.263 . S
C1374 C1368 1.504 . S
C1375 O1360 1.236 . S
C1375 O1361 1.257 . S
H1376 C1349 0.932 . S
H1377 C1350 0.930 . S
H1378 C1351 0.932 . S
H1379 C1352 0.929 . S
H1380 C1370 0.932 . S
H1381 C1371 0.930 . S
H1382 C1372 0.932 . S
H1383 C1373 0.929 . S
Tb1384 C1393 2.764 . S
Tb1384 O1394 2.325 . S
Tb1384 O1397 2.303 . S
Tb1384 O1401 2.322 . S
Tb1384 O1402 2.349 . S
Tb1384 O1405 2.415 . S
Tb1384 O1406 2.399 . S
Tb1385 O1395 2.322 . S
Tb1385 O1396 2.349 . S
Tb1385 O1398 2.415 . S
Tb1385 O1399 2.399 . S
Tb1385 O1400 2.325 . S
Tb1385 O1403 2.303 . S
Tb1385 C1414 2.764 . S
C1386 O1402 1.261 . S
C1386 O1403 1.257 . S
C1387 C1390 1.358 . S
C1387 C1391 1.332 . S
C1387 C1393 1.504 . S
C1388 C1389 1.373 . S
C1388 C1392 1.308 . S
C1389 C1388 1.373 . S
C1389 C1390 1.429 . S
C1389 H1416 0.932 . S
C1390 C1387 1.358 . S
C1390 C1389 1.429 . S
C1390 H1417 0.930 . S
C1391 C1387 1.332 . S
C1391 C1392 1.394 . S
C1391 H1418 0.932 . S
C1392 C1388 1.308 . S
C1392 C1391 1.394 . S
C1392 H1419 0.929 . S
C1393 Tb1384 2.764 . S
C1393 C1387 1.504 . S
C1393 O1405 1.239 . S
C1393 O1406 1.263 . S
O1394 Tb1384 2.325 . S
O1394 C1404 1.236 . S
O1395 Tb1385 2.322 . S
O1395 C1404 1.257 . S
O1396 Tb1385 2.349 . S
O1396 C1407 1.261 . S
O1397 Tb1384 2.303 . S
O1397 C1407 1.257 . S
O1398 Tb1385 2.415 . S
O1398 C1414 1.239 . S
O1399 Tb1385 2.399 . S
O1399 C1414 1.263 . S
O1400 Tb1385 2.325 . S
O1400 C1415 1.236 . S
O1401 Tb1384 2.322 . S
O1401 C1415 1.257 . S
O1402 Tb1384 2.349 . S
O1402 C1386 1.261 . S
O1403 Tb1385 2.303 . S
O1403 C1386 1.257 . S
C1404 O1394 1.236 . S
C1404 O1395 1.257 . S
O1405 Tb1384 2.415 . S
O1405 C1393 1.239 . S
O1406 Tb1384 2.399 . S
O1406 C1393 1.263 . S
C1407 O1396 1.261 . S
C1407 O1397 1.257 . S
C1408 C1411 1.358 . S
C1408 C1412 1.332 . S
C1408 C1414 1.504 . S
C1409 C1410 1.373 . S
C1409 C1413 1.308 . S
C1410 C1409 1.373 . S
C1410 C1411 1.429 . S
C1410 H1420 0.932 . S
C1411 C1408 1.358 . S
C1411 C1410 1.429 . S
C1411 H1421 0.930 . S
C1412 C1408 1.332 . S
C1412 C1413 1.394 . S
C1412 H1422 0.932 . S
C1413 C1409 1.308 . S
C1413 C1412 1.394 . S
C1413 H1423 0.929 . S
C1414 Tb1385 2.764 . S
C1414 O1398 1.239 . S
C1414 O1399 1.263 . S
C1414 C1408 1.504 . S
C1415 O1400 1.236 . S
C1415 O1401 1.257 . S
H1416 C1389 0.932 . S
H1417 C1390 0.930 . S
H1418 C1391 0.932 . S
H1419 C1392 0.929 . S
H1420 C1410 0.932 . S
H1421 C1411 0.930 . S
H1422 C1412 0.932 . S
H1423 C1413 0.929 . S
Tb1424 C1433 2.764 . S
Tb1424 O1434 2.325 . S
Tb1424 O1437 2.303 . S
Tb1424 O1441 2.322 . S
Tb1424 O1442 2.349 . S
Tb1424 O1445 2.415 . S
Tb1424 O1446 2.399 . S
Tb1425 O1435 2.322 . S
Tb1425 O1436 2.349 . S
Tb1425 O1438 2.415 . S
Tb1425 O1439 2.399 . S
Tb1425 O1440 2.325 . S
Tb1425 O1443 2.303 . S
Tb1425 C1454 2.764 . S
C1426 O1442 1.261 . S
C1426 O1443 1.257 . S
C1427 C1430 1.358 . S
C1427 C1431 1.332 . S
C1427 C1433 1.504 . S
C1428 C1429 1.373 . S
C1428 C1432 1.308 . S
C1429 C1428 1.373 . S
C1429 C1430 1.429 . S
C1429 H1456 0.932 . S
C1430 C1427 1.358 . S
C1430 C1429 1.429 . S
C1430 H1457 0.930 . S
C1431 C1427 1.332 . S
C1431 C1432 1.394 . S
C1431 H1458 0.932 . S
C1432 C1428 1.308 . S
C1432 C1431 1.394 . S
C1432 H1459 0.929 . S
C1433 Tb1424 2.764 . S
C1433 C1427 1.504 . S
C1433 O1445 1.239 . S
C1433 O1446 1.263 . S
O1434 Tb1424 2.325 . S
O1434 C1444 1.236 . S
O1435 Tb1425 2.322 . S
O1435 C1444 1.257 . S
O1436 Tb1425 2.349 . S
O1436 C1447 1.261 . S
O1437 Tb1424 2.303 . S
O1437 C1447 1.257 . S
O1438 Tb1425 2.415 . S
O1438 C1454 1.239 . S
O1439 Tb1425 2.399 . S
O1439 C1454 1.263 . S
O1440 Tb1425 2.325 . S
O1440 C1455 1.236 . S
O1441 Tb1424 2.322 . S
O1441 C1455 1.257 . S
O1442 Tb1424 2.349 . S
O1442 C1426 1.261 . S
O1443 Tb1425 2.303 . S
O1443 C1426 1.257 . S
C1444 O1434 1.236 . S
C1444 O1435 1.257 . S
O1445 Tb1424 2.415 . S
O1445 C1433 1.239 . S
O1446 Tb1424 2.399 . S
O1446 C1433 1.263 . S
C1447 O1436 1.261 . S
C1447 O1437 1.257 . S
C1448 C1451 1.358 . S
C1448 C1452 1.332 . S
C1448 C1454 1.504 . S
C1449 C1450 1.373 . S
C1449 C1453 1.308 . S
C1450 C1449 1.373 . S
C1450 C1451 1.429 . S
C1450 H1460 0.932 . S
C1451 C1448 1.358 . S
C1451 C1450 1.429 . S
C1451 H1461 0.930 . S
C1452 C1448 1.332 . S
C1452 C1453 1.394 . S
C1452 H1462 0.932 . S
C1453 C1449 1.308 . S
C1453 C1452 1.394 . S
C1453 H1463 0.929 . S
C1454 Tb1425 2.764 . S
C1454 O1438 1.239 . S
C1454 O1439 1.263 . S
C1454 C1448 1.504 . S
C1455 O1440 1.236 . S
C1455 O1441 1.257 . S
H1456 C1429 0.932 . S
H1457 C1430 0.930 . S
H1458 C1431 0.932 . S
H1459 C1432 0.929 . S
H1460 C1450 0.932 . S
H1461 C1451 0.930 . S
H1462 C1452 0.932 . S
H1463 C1453 0.929 . S
Tb1464 C1473 2.764 1_455 S
Tb1464 O1474 2.325 . S
Tb1464 O1477 2.303 . S
Tb1464 O1481 2.322 . S
Tb1464 O1482 2.349 . S
Tb1464 O1485 2.415 1_455 S
Tb1464 O1486 2.399 1_455 S
Tb1465 O1475 2.322 . S
Tb1465 O1476 2.349 1_554 S
Tb1465 O1478 2.415 . S
Tb1465 O1479 2.399 1_554 S
Tb1465 O1480 2.325 . S
Tb1465 O1483 2.303 . S
Tb1465 C1494 2.764 . S
C1466 O1482 1.261 . S
C1466 O1483 1.257 . S
C1467 C1470 1.358 . S
C1467 C1471 1.332 . S
C1467 C1473 1.504 . S
C1468 C1469 1.373 . S
C1468 C1472 1.308 . S
C1469 C1468 1.373 . S
C1469 C1470 1.429 . S
C1469 H1496 0.932 . S
C1470 C1467 1.358 . S
C1470 C1469 1.429 . S
C1470 H1497 0.930 . S
C1471 C1467 1.332 . S
C1471 C1472 1.394 . S
C1471 H1498 0.932 . S
C1472 C1468 1.308 . S
C1472 C1471 1.394 . S
C1472 H1499 0.929 . S
C1473 Tb1464 2.764 1_655 S
C1473 C1467 1.504 . S
C1473 O1485 1.239 . S
C1473 O1486 1.263 . S
O1474 Tb1464 2.325 . S
O1474 C1484 1.236 . S
O1475 Tb1465 2.322 . S
O1475 C1484 1.257 . S
O1476 Tb1465 2.349 1_556 S
O1476 C1487 1.261 . S
O1477 Tb1464 2.303 . S
O1477 C1487 1.257 1_554 S
O1478 Tb1465 2.415 . S
O1478 C1494 1.239 . S
O1479 Tb1465 2.399 1_556 S
O1479 C1494 1.263 1_556 S
O1480 Tb1465 2.325 . S
O1480 C1495 1.236 . S
O1481 Tb1464 2.322 . S
O1481 C1495 1.257 . S
O1482 Tb1464 2.349 . S
O1482 C1466 1.261 . S
O1483 Tb1465 2.303 . S
O1483 C1466 1.257 . S
C1484 O1474 1.236 . S
C1484 O1475 1.257 . S
O1485 Tb1464 2.415 1_655 S
O1485 C1473 1.239 . S
O1486 Tb1464 2.399 1_655 S
O1486 C1473 1.263 . S
C1487 O1476 1.261 . S
C1487 O1477 1.257 1_556 S
C1488 C1491 1.358 1_554 S
C1488 C1492 1.332 . S
C1488 C1494 1.504 . S
C1489 C1490 1.373 1_554 S
C1489 C1493 1.308 . S
C1490 C1489 1.373 1_556 S
C1490 C1491 1.429 . S
C1490 H1500 0.932 . S
C1491 C1488 1.358 1_556 S
C1491 C1490 1.429 . S
C1491 H1501 0.930 . S
C1492 C1488 1.332 . S
C1492 C1493 1.394 . S
C1492 H1502 0.932 . S
C1493 C1489 1.308 . S
C1493 C1492 1.394 . S
C1493 H1503 0.929 . S
C1494 Tb1465 2.764 . S
C1494 O1478 1.239 . S
C1494 O1479 1.263 1_554 S
C1494 C1488 1.504 . S
C1495 O1480 1.236 . S
C1495 O1481 1.257 . S
H1496 C1469 0.932 . S
H1497 C1470 0.930 . S
H1498 C1471 0.932 . S
H1499 C1472 0.929 . S
H1500 C1490 0.932 . S
H1501 C1491 0.930 . S
H1502 C1492 0.932 . S
H1503 C1493 0.929 . S
H1504 C1512 0.929 . S
H1505 C1514 0.930 . S
H1506 C1516 0.930 . S
H1507 C1519 0.929 . S
H1508 C1522 0.930 . S
H1509 C1524 0.960 . S
H1510 C1524 0.960 . S
H1511 C1524 0.960 . S
C1512 H1504 0.929 . S
C1512 C1513 1.377 . S
C1512 C1514 1.384 . S
C1513 C1512 1.377 . S
C1513 C1519 1.390 1_655 S
C1514 H1505 0.930 . S
C1514 C1512 1.384 . S
C1514 C1515 1.372 1_655 S
C1515 C1514 1.372 1_455 S
C1515 C1516 1.400 . S
C1515 C1520 1.490 . S
C1516 H1506 0.930 . S
C1516 C1515 1.400 . S
C1516 C1519 1.386 . S
H1517 C1533 0.930 . S
H1518 C1534 0.931 . S
C1519 H1507 0.929 . S
C1519 C1513 1.390 1_455 S
C1519 C1516 1.386 . S
C1520 C1515 1.490 . S
C1520 C1522 1.395 1_455 S
C1520 C1523 1.403 . S
H1521 C1527 0.930 . S
C1522 H1508 0.930 . S
C1522 C1520 1.395 1_655 S
C1522 C1525 1.403 . S
C1523 C1520 1.403 . S
C1523 C1524 1.524 . S
C1523 C1527 1.400 . S
C1524 H1509 0.960 . S
C1524 H1510 0.960 . S
C1524 H1511 0.960 . S
C1524 C1523 1.524 . S
C1525 C1522 1.403 . S
C1525 C1526 1.392 1_655 S
C1525 C1529 1.495 . S
C1526 C1525 1.392 1_455 S
C1526 C1527 1.385 . S
C1526 C1528 1.478 . S
C1527 H1521 0.930 . S
C1527 C1523 1.400 . S
C1527 C1526 1.385 . S
C1528 C1526 1.478 . S
C1528 C1530 1.381 1_556 S
C1528 C1534 1.383 . S
C1529 C1525 1.495 . S
C1529 H1535 0.959 . S
C1529 H1536 0.961 . S
C1529 H1537 0.960 . S
C1530 C1528 1.381 1_554 S
C1530 C1531 1.394 . S
C1530 H1538 0.930 1_455 S
C1531 C1530 1.394 . S
C1531 C1532 1.383 . S
C1531 H1539 0.929 . S
C1532 C1531 1.383 . S
C1532 C1533 1.377 1_554 S
C1533 H1517 0.930 . S
C1533 C1532 1.377 1_556 S
C1533 C1534 1.379 . S
C1534 H1518 0.931 . S
C1534 C1528 1.383 . S
C1534 C1533 1.379 . S
H1535 C1529 0.959 . S
H1536 C1529 0.961 . S
H1537 C1529 0.960 . S
H1538 C1530 0.930 1_655 S
H1539 C1531 0.929 . S
H1540 C1548 0.929 . S
H1541 C1550 0.930 . S
H1542 C1552 0.930 . S
H1543 C1555 0.929 . S
H1544 C1558 0.930 . S
H1545 C1560 0.960 . S
H1546 C1560 0.960 . S
H1547 C1560 0.960 . S
C1548 H1540 0.929 . S
C1548 C1549 1.377 . S
C1548 C1550 1.384 . S
C1549 C1548 1.377 . S
C1549 C1555 1.390 . S
C1550 H1541 0.930 . S
C1550 C1548 1.384 . S
C1550 C1551 1.372 . S
C1551 C1550 1.372 . S
C1551 C1552 1.400 . S
C1551 C1556 1.490 . S
C1552 H1542 0.930 . S
C1552 C1551 1.400 . S
C1552 C1555 1.386 . S
H1553 C1569 0.930 . S
H1554 C1570 0.931 . S
C1555 H1543 0.929 . S
C1555 C1549 1.390 . S
C1555 C1552 1.386 . S
C1556 C1551 1.490 . S
C1556 C1558 1.395 . S
C1556 C1559 1.403 . S
H1557 C1563 0.930 . S
C1558 H1544 0.930 . S
C1558 C1556 1.395 . S
C1558 C1561 1.403 . S
C1559 C1556 1.403 . S
C1559 C1560 1.524 . S
C1559 C1563 1.400 . S
C1560 H1545 0.960 . S
C1560 H1546 0.960 . S
C1560 H1547 0.960 . S
C1560 C1559 1.524 . S
C1561 C1558 1.403 . S
C1561 C1562 1.392 . S
C1561 C1565 1.495 . S
C1562 C1561 1.392 . S
C1562 C1563 1.385 . S
C1562 C1564 1.478 . S
C1563 H1557 0.930 . S
C1563 C1559 1.400 . S
C1563 C1562 1.385 . S
C1564 C1562 1.478 . S
C1564 C1566 1.381 . S
C1564 C1570 1.383 . S
C1565 C1561 1.495 . S
C1565 H1571 0.959 . S
C1565 H1572 0.961 . S
C1565 H1573 0.960 . S
C1566 C1564 1.381 . S
C1566 C1567 1.394 . S
C1566 H1574 0.930 . S
C1567 C1566 1.394 . S
C1567 C1568 1.383 . S
C1567 H1575 0.929 . S
C1568 C1567 1.383 . S
C1568 C1569 1.377 . S
C1569 H1553 0.930 . S
C1569 C1568 1.377 . S
C1569 C1570 1.379 . S
C1570 H1554 0.931 . S
C1570 C1564 1.383 . S
C1570 C1569 1.379 . S
H1571 C1565 0.959 . S
H1572 C1565 0.961 . S
H1573 C1565 0.960 . S
H1574 C1566 0.930 . S
H1575 C1567 0.929 . S
H1576 C1584 0.929 . S
H1577 C1586 0.930 . S
H1578 C1588 0.930 . S
H1579 C1591 0.929 . S
H1580 C1594 0.930 . S
H1581 C1596 0.960 . S
H1582 C1596 0.960 . S
H1583 C1596 0.960 . S
C1584 H1576 0.929 . S
C1584 C1585 1.377 . S
C1584 C1586 1.384 . S
C1585 C1584 1.377 . S
C1585 C1591 1.390 . S
C1586 H1577 0.930 . S
C1586 C1584 1.384 . S
C1586 C1587 1.372 . S
C1587 C1586 1.372 . S
C1587 C1588 1.400 . S
C1587 C1592 1.490 . S
C1588 H1578 0.930 . S
C1588 C1587 1.400 . S
C1588 C1591 1.386 . S
H1589 C1605 0.930 . S
H1590 C1606 0.931 . S
C1591 H1579 0.929 . S
C1591 C1585 1.390 . S
C1591 C1588 1.386 . S
C1592 C1587 1.490 . S
C1592 C1594 1.395 . S
C1592 C1595 1.403 . S
H1593 C1599 0.930 . S
C1594 H1580 0.930 . S
C1594 C1592 1.395 . S
C1594 C1597 1.403 . S
C1595 C1592 1.403 . S
C1595 C1596 1.524 . S
C1595 C1599 1.400 . S
C1596 H1581 0.960 . S
C1596 H1582 0.960 . S
C1596 H1583 0.960 . S
C1596 C1595 1.524 . S
C1597 C1594 1.403 . S
C1597 C1598 1.392 . S
C1597 C1601 1.495 . S
C1598 C1597 1.392 . S
C1598 C1599 1.385 . S
C1598 C1600 1.478 . S
C1599 H1593 0.930 . S
C1599 C1595 1.400 . S
C1599 C1598 1.385 . S
C1600 C1598 1.478 . S
C1600 C1602 1.381 . S
C1600 C1606 1.383 . S
C1601 C1597 1.495 . S
C1601 H1607 0.959 . S
C1601 H1608 0.961 . S
C1601 H1609 0.960 . S
C1602 C1600 1.381 . S
C1602 C1603 1.394 . S
C1602 H1610 0.930 . S
C1603 C1602 1.394 . S
C1603 C1604 1.383 . S
C1603 H1611 0.929 . S
C1604 C1603 1.383 . S
C1604 C1605 1.377 . S
C1605 H1589 0.930 . S
C1605 C1604 1.377 . S
C1605 C1606 1.379 . S
C1606 H1590 0.931 . S
C1606 C1600 1.383 . S
C1606 C1605 1.379 . S
H1607 C1601 0.959 . S
H1608 C1601 0.961 . S
H1609 C1601 0.960 . S
H1610 C1602 0.930 . S
H1611 C1603 0.929 . S
H1612 C1620 0.929 . S
H1613 C1622 0.930 . S
H1614 C1624 0.930 . S
H1615 C1627 0.929 . S
H1616 C1630 0.930 . S
H1617 C1632 0.960 . S
H1618 C1632 0.960 . S
H1619 C1632 0.960 . S
C1620 H1612 0.929 . S
C1620 C1621 1.377 . S
C1620 C1622 1.384 . S
C1621 C1620 1.377 . S
C1621 C1627 1.390 . S
C1622 H1613 0.930 . S
C1622 C1620 1.384 . S
C1622 C1623 1.372 . S
C1623 C1622 1.372 . S
C1623 C1624 1.400 . S
C1623 C1628 1.490 . S
C1624 H1614 0.930 . S
C1624 C1623 1.400 . S
C1624 C1627 1.386 . S
H1625 C1641 0.930 . S
H1626 C1642 0.931 . S
C1627 H1615 0.929 . S
C1627 C1621 1.390 . S
C1627 C1624 1.386 . S
C1628 C1623 1.490 . S
C1628 C1630 1.395 . S
C1628 C1631 1.403 . S
H1629 C1635 0.930 . S
C1630 H1616 0.930 . S
C1630 C1628 1.395 . S
C1630 C1633 1.403 . S
C1631 C1628 1.403 . S
C1631 C1632 1.524 . S
C1631 C1635 1.400 . S
C1632 H1617 0.960 . S
C1632 H1618 0.960 . S
C1632 H1619 0.960 . S
C1632 C1631 1.524 . S
C1633 C1630 1.403 . S
C1633 C1634 1.392 . S
C1633 C1637 1.495 . S
C1634 C1633 1.392 . S
C1634 C1635 1.385 . S
C1634 C1636 1.478 . S
C1635 H1629 0.930 . S
C1635 C1631 1.400 . S
C1635 C1634 1.385 . S
C1636 C1634 1.478 . S
C1636 C1638 1.381 . S
C1636 C1642 1.383 . S
C1637 C1633 1.495 . S
C1637 H1643 0.959 . S
C1637 H1644 0.961 . S
C1637 H1645 0.960 . S
C1638 C1636 1.381 . S
C1638 C1639 1.394 . S
C1638 H1646 0.930 . S
C1639 C1638 1.394 . S
C1639 C1640 1.383 . S
C1639 H1647 0.929 . S
C1640 C1639 1.383 . S
C1640 C1641 1.377 . S
C1641 H1625 0.930 . S
C1641 C1640 1.377 . S
C1641 C1642 1.379 . S
C1642 H1626 0.931 . S
C1642 C1636 1.383 . S
C1642 C1641 1.379 . S
H1643 C1637 0.959 . S
H1644 C1637 0.961 . S
H1645 C1637 0.960 . S
H1646 C1638 0.930 . S
H1647 C1639 0.929 . S
H1648 C1656 0.929 . S
H1649 C1658 0.930 . S
H1650 C1660 0.930 . S
H1651 C1663 0.929 . S
H1652 C1666 0.930 . S
H1653 C1668 0.960 . S
H1654 C1668 0.960 . S
H1655 C1668 0.960 . S
C1656 H1648 0.929 . S
C1656 C1657 1.377 . S
C1656 C1658 1.384 . S
C1657 C1656 1.377 . S
C1657 C1663 1.390 . S
C1658 H1649 0.930 . S
C1658 C1656 1.384 . S
C1658 C1659 1.372 . S
C1659 C1658 1.372 . S
C1659 C1660 1.400 . S
C1659 C1664 1.490 . S
C1660 H1650 0.930 . S
C1660 C1659 1.400 . S
C1660 C1663 1.386 . S
H1661 C1677 0.930 . S
H1662 C1678 0.931 . S
C1663 H1651 0.929 . S
C1663 C1657 1.390 . S
C1663 C1660 1.386 . S
C1664 C1659 1.490 . S
C1664 C1666 1.395 . S
C1664 C1667 1.403 . S
H1665 C1671 0.930 . S
C1666 H1652 0.930 . S
C1666 C1664 1.395 . S
C1666 C1669 1.403 . S
C1667 C1664 1.403 . S
C1667 C1668 1.524 . S
C1667 C1671 1.400 . S
C1668 H1653 0.960 . S
C1668 H1654 0.960 . S
C1668 H1655 0.960 . S
C1668 C1667 1.524 . S
C1669 C1666 1.403 . S
C1669 C1670 1.392 . S
C1669 C1673 1.495 . S
C1670 C1669 1.392 . S
C1670 C1671 1.385 . S
C1670 C1672 1.478 . S
C1671 H1665 0.930 . S
C1671 C1667 1.400 . S
C1671 C1670 1.385 . S
C1672 C1670 1.478 . S
C1672 C1674 1.381 . S
C1672 C1678 1.383 . S
C1673 C1669 1.495 . S
C1673 H1679 0.959 . S
C1673 H1680 0.961 . S
C1673 H1681 0.960 . S
C1674 C1672 1.381 . S
C1674 C1675 1.394 . S
C1674 H1682 0.930 . S
C1675 C1674 1.394 . S
C1675 C1676 1.383 . S
C1675 H1683 0.929 . S
C1676 C1675 1.383 . S
C1676 C1677 1.377 . S
C1677 H1661 0.930 . S
C1677 C1676 1.377 . S
C1677 C1678 1.379 . S
C1678 H1662 0.931 . S
C1678 C1672 1.383 . S
C1678 C1677 1.379 . S
H1679 C1673 0.959 . S
H1680 C1673 0.961 . S
H1681 C1673 0.960 . S
H1682 C1674 0.930 . S
H1683 C1675 0.929 . S
H1684 C1692 0.929 . S
H1685 C1694 0.930 . S
H1686 C1696 0.930 . S
H1687 C1699 0.929 . S
H1688 C1702 0.930 . S
H1689 C1704 0.960 . S
H1690 C1704 0.960 . S
H1691 C1704 0.960 . S
C1692 H1684 0.929 . S
C1692 C1693 1.377 . S
C1692 C1694 1.384 . S
C1693 C1692 1.377 . S
C1693 C1699 1.390 . S
C1694 H1685 0.930 . S
C1694 C1692 1.384 . S
C1694 C1695 1.372 . S
C1695 C1694 1.372 . S
C1695 C1696 1.400 . S
C1695 C1700 1.490 . S
C1696 H1686 0.930 . S
C1696 C1695 1.400 . S
C1696 C1699 1.386 . S
H1697 C1713 0.930 . S
H1698 C1714 0.931 . S
C1699 H1687 0.929 . S
C1699 C1693 1.390 . S
C1699 C1696 1.386 . S
C1700 C1695 1.490 . S
C1700 C1702 1.395 . S
C1700 C1703 1.403 . S
H1701 C1707 0.930 . S
C1702 H1688 0.930 . S
C1702 C1700 1.395 . S
C1702 C1705 1.403 . S
C1703 C1700 1.403 . S
C1703 C1704 1.524 . S
C1703 C1707 1.400 . S
C1704 H1689 0.960 . S
C1704 H1690 0.960 . S
C1704 H1691 0.960 . S
C1704 C1703 1.524 . S
C1705 C1702 1.403 . S
C1705 C1706 1.392 . S
C1705 C1709 1.495 . S
C1706 C1705 1.392 . S
C1706 C1707 1.385 . S
C1706 C1708 1.478 . S
C1707 H1701 0.930 . S
C1707 C1703 1.400 . S
C1707 C1706 1.385 . S
C1708 C1706 1.478 . S
C1708 C1710 1.381 . S
C1708 C1714 1.383 . S
C1709 C1705 1.495 . S
C1709 H1715 0.959 . S
C1709 H1716 0.961 . S
C1709 H1717 0.960 . S
C1710 C1708 1.381 . S
C1710 C1711 1.394 . S
C1710 H1718 0.930 . S
C1711 C1710 1.394 . S
C1711 C1712 1.383 . S
C1711 H1719 0.929 . S
C1712 C1711 1.383 . S
C1712 C1713 1.377 . S
C1713 H1697 0.930 . S
C1713 C1712 1.377 . S
C1713 C1714 1.379 . S
C1714 H1698 0.931 . S
C1714 C1708 1.383 . S
C1714 C1713 1.379 . S
H1715 C1709 0.959 . S
H1716 C1709 0.961 . S
H1717 C1709 0.960 . S
H1718 C1710 0.930 . S
H1719 C1711 0.929 . S
H1720 C1728 0.929 . S
H1721 C1730 0.930 . S
H1722 C1732 0.930 . S
H1723 C1735 0.929 . S
H1724 C1738 0.930 . S
H1725 C1740 0.960 . S
H1726 C1740 0.960 . S
H1727 C1740 0.960 . S
C1728 H1720 0.929 . S
C1728 C1729 1.377 . S
C1728 C1730 1.384 . S
C1729 C1728 1.377 . S
C1729 C1735 1.390 . S
C1730 H1721 0.930 . S
C1730 C1728 1.384 . S
C1730 C1731 1.372 . S
C1731 C1730 1.372 . S
C1731 C1732 1.400 . S
C1731 C1736 1.490 . S
C1732 H1722 0.930 . S
C1732 C1731 1.400 . S
C1732 C1735 1.386 . S
H1733 C1749 0.930 . S
H1734 C1750 0.931 . S
C1735 H1723 0.929 . S
C1735 C1729 1.390 . S
C1735 C1732 1.386 . S
C1736 C1731 1.490 . S
C1736 C1738 1.395 . S
C1736 C1739 1.403 . S
H1737 C1743 0.930 . S
C1738 H1724 0.930 . S
C1738 C1736 1.395 . S
C1738 C1741 1.403 . S
C1739 C1736 1.403 . S
C1739 C1740 1.524 . S
C1739 C1743 1.400 . S
C1740 H1725 0.960 . S
C1740 H1726 0.960 . S
C1740 H1727 0.960 . S
C1740 C1739 1.524 . S
C1741 C1738 1.403 . S
C1741 C1742 1.392 . S
C1741 C1745 1.495 . S
C1742 C1741 1.392 . S
C1742 C1743 1.385 . S
C1742 C1744 1.478 . S
C1743 H1737 0.930 . S
C1743 C1739 1.400 . S
C1743 C1742 1.385 . S
C1744 C1742 1.478 . S
C1744 C1746 1.381 . S
C1744 C1750 1.383 . S
C1745 C1741 1.495 . S
C1745 H1751 0.959 . S
C1745 H1752 0.961 . S
C1745 H1753 0.960 . S
C1746 C1744 1.381 . S
C1746 C1747 1.394 . S
C1746 H1754 0.930 . S
C1747 C1746 1.394 . S
C1747 C1748 1.383 . S
C1747 H1755 0.929 . S
C1748 C1747 1.383 . S
C1748 C1749 1.377 . S
C1749 H1733 0.930 . S
C1749 C1748 1.377 . S
C1749 C1750 1.379 . S
C1750 H1734 0.931 . S
C1750 C1744 1.383 . S
C1750 C1749 1.379 . S
H1751 C1745 0.959 . S
H1752 C1745 0.961 . S
H1753 C1745 0.960 . S
H1754 C1746 0.930 . S
H1755 C1747 0.929 . S
H1756 C1764 0.929 . S
H1757 C1766 0.930 . S
H1758 C1768 0.930 . S
H1759 C1771 0.929 . S
H1760 C1774 0.930 . S
H1761 C1776 0.960 . S
H1762 C1776 0.960 . S
H1763 C1776 0.960 . S
C1764 H1756 0.929 . S
C1764 C1765 1.377 . S
C1764 C1766 1.384 . S
C1765 C1764 1.377 . S
C1765 C1771 1.390 . S
C1766 H1757 0.930 . S
C1766 C1764 1.384 . S
C1766 C1767 1.372 . S
C1767 C1766 1.372 . S
C1767 C1768 1.400 . S
C1767 C1772 1.490 . S
C1768 H1758 0.930 . S
C1768 C1767 1.400 . S
C1768 C1771 1.386 . S
H1769 C1785 0.930 . S
H1770 C1786 0.931 . S
C1771 H1759 0.929 . S
C1771 C1765 1.390 . S
C1771 C1768 1.386 . S
C1772 C1767 1.490 . S
C1772 C1774 1.395 . S
C1772 C1775 1.403 . S
H1773 C1779 0.930 . S
C1774 H1760 0.930 . S
C1774 C1772 1.395 . S
C1774 C1777 1.403 . S
C1775 C1772 1.403 . S
C1775 C1776 1.524 . S
C1775 C1779 1.400 . S
C1776 H1761 0.960 . S
C1776 H1762 0.960 . S
C1776 H1763 0.960 . S
C1776 C1775 1.524 . S
C1777 C1774 1.403 . S
C1777 C1778 1.392 . S
C1777 C1781 1.495 . S
C1778 C1777 1.392 . S
C1778 C1779 1.385 . S
C1778 C1780 1.478 . S
C1779 H1773 0.930 . S
C1779 C1775 1.400 . S
C1779 C1778 1.385 . S
C1780 C1778 1.478 . S
C1780 C1782 1.381 . S
C1780 C1786 1.383 . S
C1781 C1777 1.495 . S
C1781 H1787 0.959 . S
C1781 H1788 0.961 . S
C1781 H1789 0.960 . S
C1782 C1780 1.381 . S
C1782 C1783 1.394 . S
C1782 H1790 0.930 . S
C1783 C1782 1.394 . S
C1783 C1784 1.383 . S
C1783 H1791 0.929 . S
C1784 C1783 1.383 . S
C1784 C1785 1.377 . S
C1785 H1769 0.930 . S
C1785 C1784 1.377 . S
C1785 C1786 1.379 . S
C1786 H1770 0.931 . S
C1786 C1780 1.383 . S
C1786 C1785 1.379 . S
H1787 C1781 0.959 . S
H1788 C1781 0.961 . S
H1789 C1781 0.960 . S
H1790 C1782 0.930 . S
H1791 C1783 0.929 . S
H1792 C1800 0.929 . S
H1793 C1802 0.930 . S
H1794 C1804 0.930 . S
H1795 C1807 0.929 . S
H1796 C1810 0.930 . S
H1797 C1812 0.960 1_455 S
H1798 C1812 0.960 . S
H1799 C1812 0.960 . S
C1800 H1792 0.929 . S
C1800 C1801 1.377 1_565 S
C1800 C1802 1.384 . S
C1801 C1800 1.377 1_545 S
C1801 C1807 1.390 . S
C1802 H1793 0.930 . S
C1802 C1800 1.384 . S
C1802 C1803 1.372 1_565 S
C1803 C1802 1.372 1_545 S
C1803 C1804 1.400 . S
C1803 C1808 1.490 . S
C1804 H1794 0.930 . S
C1804 C1803 1.400 . S
C1804 C1807 1.386 . S
H1805 C1821 0.930 . S
H1806 C1822 0.931 . S
C1807 H1795 0.929 . S
C1807 C1801 1.390 . S
C1807 C1804 1.386 . S
C1808 C1803 1.490 . S
C1808 C1810 1.395 . S
C1808 C1811 1.403 . S
H1809 C1815 0.930 1_455 S
C1810 H1796 0.930 . S
C1810 C1808 1.395 . S
C1810 C1813 1.403 . S
C1811 C1808 1.403 . S
C1811 C1812 1.524 . S
C1811 C1815 1.400 . S
C1812 H1797 0.960 1_655 S
C1812 H1798 0.960 . S
C1812 H1799 0.960 . S
C1812 C1811 1.524 . S
C1813 C1810 1.403 . S
C1813 C1814 1.392 . S
C1813 C1817 1.495 . S
C1814 C1813 1.392 . S
C1814 C1815 1.385 . S
C1814 C1816 1.478 . S
C1815 H1809 0.930 1_655 S
C1815 C1811 1.400 . S
C1815 C1814 1.385 . S
C1816 C1814 1.478 . S
C1816 C1818 1.381 . S
C1816 C1822 1.383 1_655 S
C1817 C1813 1.495 . S
C1817 H1823 0.959 . S
C1817 H1824 0.961 . S
C1817 H1825 0.960 . S
C1818 C1816 1.381 . S
C1818 C1819 1.394 1_655 S
C1818 H1826 0.930 1_545 S
C1819 C1818 1.394 1_455 S
C1819 C1820 1.383 . S
C1819 H1827 0.929 1_545 S
C1820 C1819 1.383 . S
C1820 C1821 1.377 . S
C1821 H1805 0.930 . S
C1821 C1820 1.377 . S
C1821 C1822 1.379 . S
C1822 H1806 0.931 . S
C1822 C1816 1.383 1_455 S
C1822 C1821 1.379 . S
H1823 C1817 0.959 . S
H1824 C1817 0.961 . S
H1825 C1817 0.960 . S
H1826 C1818 0.930 1_565 S
H1827 C1819 0.929 1_565 S
H1828 C1836 0.929 . S
H1829 C1838 0.930 . S
H1830 C1840 0.930 . S
H1831 C1843 0.929 . S
H1832 C1846 0.930 . S
H1833 C1848 0.960 . S
H1834 C1848 0.960 . S
H1835 C1848 0.960 . S
C1836 H1828 0.929 . S
C1836 C1837 1.377 . S
C1836 C1838 1.384 . S
C1837 C1836 1.377 . S
C1837 C1843 1.390 . S
C1838 H1829 0.930 . S
C1838 C1836 1.384 . S
C1838 C1839 1.372 . S
C1839 C1838 1.372 . S
C1839 C1840 1.400 . S
C1839 C1844 1.490 . S
C1840 H1830 0.930 . S
C1840 C1839 1.400 . S
C1840 C1843 1.386 . S
H1841 C1857 0.930 . S
H1842 C1858 0.931 . S
C1843 H1831 0.929 . S
C1843 C1837 1.390 . S
C1843 C1840 1.386 . S
C1844 C1839 1.490 . S
C1844 C1846 1.395 . S
C1844 C1847 1.403 . S
H1845 C1851 0.930 . S
C1846 H1832 0.930 . S
C1846 C1844 1.395 . S
C1846 C1849 1.403 . S
C1847 C1844 1.403 . S
C1847 C1848 1.524 . S
C1847 C1851 1.400 . S
C1848 H1833 0.960 . S
C1848 H1834 0.960 . S
C1848 H1835 0.960 . S
C1848 C1847 1.524 . S
C1849 C1846 1.403 . S
C1849 C1850 1.392 . S
C1849 C1853 1.495 . S
C1850 C1849 1.392 . S
C1850 C1851 1.385 . S
C1850 C1852 1.478 . S
C1851 H1845 0.930 . S
C1851 C1847 1.400 . S
C1851 C1850 1.385 . S
C1852 C1850 1.478 . S
C1852 C1854 1.381 . S
C1852 C1858 1.383 . S
C1853 C1849 1.495 . S
C1853 H1859 0.959 . S
C1853 H1860 0.961 . S
C1853 H1861 0.960 . S
C1854 C1852 1.381 . S
C1854 C1855 1.394 . S
C1854 H1862 0.930 . S
C1855 C1854 1.394 . S
C1855 C1856 1.383 . S
C1855 H1863 0.929 . S
C1856 C1855 1.383 . S
C1856 C1857 1.377 . S
C1857 H1841 0.930 . S
C1857 C1856 1.377 . S
C1857 C1858 1.379 . S
C1858 H1842 0.931 . S
C1858 C1852 1.383 . S
C1858 C1857 1.379 . S
H1859 C1853 0.959 . S
H1860 C1853 0.961 . S
H1861 C1853 0.960 . S
H1862 C1854 0.930 . S
H1863 C1855 0.929 . S
H1864 C1872 0.929 . S
H1865 C1874 0.930 . S
H1866 C1876 0.930 . S
H1867 C1879 0.929 . S
H1868 C1882 0.930 . S
H1869 C1884 0.960 . S
H1870 C1884 0.960 . S
H1871 C1884 0.960 . S
C1872 H1864 0.929 . S
C1872 C1873 1.377 . S
C1872 C1874 1.384 . S
C1873 C1872 1.377 . S
C1873 C1879 1.390 . S
C1874 H1865 0.930 . S
C1874 C1872 1.384 . S
C1874 C1875 1.372 . S
C1875 C1874 1.372 . S
C1875 C1876 1.400 . S
C1875 C1880 1.490 . S
C1876 H1866 0.930 . S
C1876 C1875 1.400 . S
C1876 C1879 1.386 . S
H1877 C1893 0.930 . S
H1878 C1894 0.931 . S
C1879 H1867 0.929 . S
C1879 C1873 1.390 . S
C1879 C1876 1.386 . S
C1880 C1875 1.490 . S
C1880 C1882 1.395 . S
C1880 C1883 1.403 . S
H1881 C1887 0.930 1_565 S
C1882 H1868 0.930 . S
C1882 C1880 1.395 . S
C1882 C1885 1.403 . S
C1883 C1880 1.403 . S
C1883 C1884 1.524 1_545 S
C1883 C1887 1.400 . S
C1884 H1869 0.960 . S
C1884 H1870 0.960 . S
C1884 H1871 0.960 . S
C1884 C1883 1.524 1_565 S
C1885 C1882 1.403 . S
C1885 C1886 1.392 . S
C1885 C1889 1.495 . S
C1886 C1885 1.392 . S
C1886 C1887 1.385 . S
C1886 C1888 1.478 . S
C1887 H1881 0.930 1_545 S
C1887 C1883 1.400 . S
C1887 C1886 1.385 . S
C1888 C1886 1.478 . S
C1888 C1890 1.381 . S
C1888 C1894 1.383 . S
C1889 C1885 1.495 . S
C1889 H1895 0.959 . S
C1889 H1896 0.961 . S
C1889 H1897 0.960 . S
C1890 C1888 1.381 . S
C1890 C1891 1.394 . S
C1890 H1898 0.930 . S
C1891 C1890 1.394 . S
C1891 C1892 1.383 . S
C1891 H1899 0.929 . S
C1892 C1891 1.383 . S
C1892 C1893 1.377 . S
C1893 H1877 0.930 . S
C1893 C1892 1.377 . S
C1893 C1894 1.379 . S
C1894 H1878 0.931 . S
C1894 C1888 1.383 . S
C1894 C1893 1.379 . S
H1895 C1889 0.959 . S
H1896 C1889 0.961 . S
H1897 C1889 0.960 . S
H1898 C1890 0.930 . S
H1899 C1891 0.929 . S
H1900 C1908 0.929 . S
H1901 C1910 0.930 . S
H1902 C1912 0.930 . S
H1903 C1915 0.929 . S
H1904 C1918 0.930 . S
H1905 C1920 0.960 . S
H1906 C1920 0.960 . S
H1907 C1920 0.960 . S
C1908 H1900 0.929 . S
C1908 C1909 1.377 . S
C1908 C1910 1.384 . S
C1909 C1908 1.377 . S
C1909 C1915 1.390 . S
C1910 H1901 0.930 . S
C1910 C1908 1.384 . S
C1910 C1911 1.372 . S
C1911 C1910 1.372 . S
C1911 C1912 1.400 . S
C1911 C1916 1.490 . S
C1912 H1902 0.930 . S
C1912 C1911 1.400 . S
C1912 C1915 1.386 . S
H1913 C1929 0.930 . S
H1914 C1930 0.931 . S
C1915 H1903 0.929 . S
C1915 C1909 1.390 . S
C1915 C1912 1.386 . S
C1916 C1911 1.490 . S
C1916 C1918 1.395 . S
C1916 C1919 1.403 . S
H1917 C1923 0.930 . S
C1918 H1904 0.930 . S
C1918 C1916 1.395 . S
C1918 C1921 1.403 . S
C1919 C1916 1.403 . S
C1919 C1920 1.524 . S
C1919 C1923 1.400 . S
C1920 H1905 0.960 . S
C1920 H1906 0.960 . S
C1920 H1907 0.960 . S
C1920 C1919 1.524 . S
C1921 C1918 1.403 . S
C1921 C1922 1.392 . S
C1921 C1925 1.495 . S
C1922 C1921 1.392 . S
C1922 C1923 1.385 . S
C1922 C1924 1.478 . S
C1923 H1917 0.930 . S
C1923 C1919 1.400 . S
C1923 C1922 1.385 . S
C1924 C1922 1.478 . S
C1924 C1926 1.381 . S
C1924 C1930 1.383 . S
C1925 C1921 1.495 . S
C1925 H1931 0.959 . S
C1925 H1932 0.961 . S
C1925 H1933 0.960 . S
C1926 C1924 1.381 . S
C1926 C1927 1.394 . S
C1926 H1934 0.930 . S
C1927 C1926 1.394 . S
C1927 C1928 1.383 . S
C1927 H1935 0.929 . S
C1928 C1927 1.383 . S
C1928 C1929 1.377 . S
C1929 H1913 0.930 . S
C1929 C1928 1.377 . S
C1929 C1930 1.379 . S
C1930 H1914 0.931 . S
C1930 C1924 1.383 . S
C1930 C1929 1.379 . S
H1931 C1925 0.959 . S
H1932 C1925 0.961 . S
H1933 C1925 0.960 . S
H1934 C1926 0.930 . S
H1935 C1927 0.929 . S
H1936 C1944 0.929 . S
H1937 C1946 0.930 . S
H1938 C1948 0.930 . S
H1939 C1951 0.929 . S
H1940 C1954 0.930 . S
H1941 C1956 0.960 . S
H1942 C1956 0.960 . S
H1943 C1956 0.982 . S
C1944 H1936 0.929 . S
C1944 C1945 1.377 . S
C1944 C1946 1.384 . S
C1945 C1944 1.377 . S
C1945 C1951 1.390 . S
C1946 H1937 0.930 . S
C1946 C1944 1.384 . S
C1946 C1947 1.372 . S
C1947 C1946 1.372 . S
C1947 C1948 1.400 . S
C1947 C1952 1.490 . S
C1948 H1938 0.930 . S
C1948 C1947 1.400 . S
C1948 C1951 1.386 . S
H1949 C1965 0.930 . S
H1950 C1966 0.931 . S
C1951 H1939 0.929 . S
C1951 C1945 1.390 . S
C1951 C1948 1.386 . S
C1952 C1947 1.490 . S
C1952 C1954 1.395 . S
C1952 C1955 1.403 . S
H1953 C1959 0.930 1_565 S
C1954 H1940 0.930 . S
C1954 C1952 1.395 . S
C1954 C1957 1.403 . S
C1955 C1952 1.403 . S
C1955 C1956 1.524 1_545 S
C1955 C1959 1.400 . S
C1956 H1941 0.960 . S
C1956 H1942 0.960 . S
C1956 H1943 0.982 . S
C1956 C1955 1.524 1_565 S
C1957 C1954 1.403 . S
C1957 C1958 1.392 . S
C1957 C1961 1.495 1_655 S
C1958 C1957 1.392 . S
C1958 C1959 1.385 . S
C1958 C1960 1.478 . S
C1959 H1953 0.930 1_545 S
C1959 C1955 1.400 . S
C1959 C1958 1.385 . S
C1960 C1958 1.478 . S
C1960 C1962 1.381 1_655 S
C1960 C1966 1.383 . S
C1961 C1957 1.495 1_455 S
C1961 H1967 0.959 . S
C1961 H1968 0.961 . S
C1961 H1969 0.960 . S
C1962 C1960 1.381 1_455 S
C1962 C1963 1.394 . S
C1962 H1970 0.927 . S
C1963 C1962 1.394 . S
C1963 C1964 1.383 . S
C1963 H1971 0.929 1_545 S
C1964 C1963 1.383 . S
C1964 C1965 1.377 1_455 S
C1965 H1949 0.930 . S
C1965 C1964 1.377 1_655 S
C1965 C1966 1.379 . S
C1966 H1950 0.931 . S
C1966 C1960 1.383 . S
C1966 C1965 1.379 . S
H1967 C1961 0.959 . S
H1968 C1961 0.961 . S
H1969 C1961 0.960 . S
H1970 C1962 0.927 . S
H1971 C1963 0.929 1_565 S
H1972 C1980 0.929 . S
H1973 C1982 0.930 . S
H1974 C1984 0.930 . S
H1975 C1987 0.929 . S
H1976 C1990 0.930 . S
H1977 C1992 0.960 . S
H1978 C1992 0.960 . S
H1979 C1992 0.960 . S
C1980 H1972 0.929 . S
C1980 C1981 1.377 . S
C1980 C1982 1.384 . S
C1981 C1980 1.377 . S
C1981 C1987 1.390 . S
C1982 H1973 0.930 . S
C1982 C1980 1.384 . S
C1982 C1983 1.372 . S
C1983 C1982 1.372 . S
C1983 C1984 1.400 . S
C1983 C1988 1.490 . S
C1984 H1974 0.930 . S
C1984 C1983 1.400 . S
C1984 C1987 1.386 . S
H1985 C2001 0.930 . S
H1986 C2002 0.931 . S
C1987 H1975 0.929 . S
C1987 C1981 1.390 . S
C1987 C1984 1.386 . S
C1988 C1983 1.490 . S
C1988 C1990 1.395 . S
C1988 C1991 1.403 . S
H1989 C1995 0.930 . S
C1990 H1976 0.930 . S
C1990 C1988 1.395 . S
C1990 C1993 1.403 . S
C1991 C1988 1.403 . S
C1991 C1992 1.524 . S
C1991 C1995 1.400 . S
C1992 H1977 0.960 . S
C1992 H1978 0.960 . S
C1992 H1979 0.960 . S
C1992 C1991 1.524 . S
C1993 C1990 1.403 . S
C1993 C1994 1.392 . S
C1993 C1997 1.495 . S
C1994 C1993 1.392 . S
C1994 C1995 1.385 . S
C1994 C1996 1.478 . S
C1995 H1989 0.930 . S
C1995 C1991 1.400 . S
C1995 C1994 1.385 . S
C1996 C1994 1.478 . S
C1996 C1998 1.381 . S
C1996 C2002 1.383 . S
C1997 C1993 1.495 . S
C1997 H2003 0.959 . S
C1997 H2004 0.961 . S
C1997 H2005 0.960 . S
C1998 C1996 1.381 . S
C1998 C1999 1.394 . S
C1998 H2006 0.930 . S
C1999 C1998 1.394 . S
C1999 C2000 1.383 . S
C1999 H2007 0.929 . S
C2000 C1999 1.383 . S
C2000 C2001 1.377 . S
C2001 H1985 0.930 . S
C2001 C2000 1.377 . S
C2001 C2002 1.379 . S
C2002 H1986 0.931 . S
C2002 C1996 1.383 . S
C2002 C2001 1.379 . S
H2003 C1997 0.959 . S
H2004 C1997 0.961 . S
H2005 C1997 0.960 . S
H2006 C1998 0.930 . S
H2007 C1999 0.929 . S
H2008 C2016 0.929 1_565 S
H2009 C2018 0.930 1_565 S
H2010 C2020 0.930 . S
H2011 C2023 0.929 . S
H2012 C2026 0.930 . S
H2013 C2028 0.960 . S
H2014 C2028 0.960 . S
H2015 C2028 0.960 . S
C2016 H2008 0.929 1_545 S
C2016 C2017 1.377 . S
C2016 C2018 1.384 . S
C2017 C2016 1.377 . S
C2017 C2023 1.390 . S
C2018 H2009 0.930 1_545 S
C2018 C2016 1.384 . S
C2018 C2019 1.372 . S
C2019 C2018 1.372 . S
C2019 C2020 1.400 . S
C2019 C2024 1.490 . S
C2020 H2010 0.930 . S
C2020 C2019 1.400 . S
C2020 C2023 1.386 . S
H2021 C2037 0.930 . S
H2022 C2038 0.931 . S
C2023 H2011 0.929 . S
C2023 C2017 1.390 . S
C2023 C2020 1.386 . S
C2024 C2019 1.490 . S
C2024 C2026 1.395 . S
C2024 C2027 1.403 . S
H2025 C2031 0.930 . S
C2026 H2012 0.930 . S
C2026 C2024 1.395 . S
C2026 C2029 1.403 . S
C2027 C2024 1.403 . S
C2027 C2028 1.524 . S
C2027 C2031 1.400 . S
C2028 H2013 0.960 . S
C2028 H2014 0.960 . S
C2028 H2015 0.960 . S
C2028 C2027 1.524 . S
C2029 C2026 1.403 . S
C2029 C2030 1.392 . S
C2029 C2033 1.477 1_545 S
C2030 C2029 1.392 . S
C2030 C2031 1.385 . S
C2030 C2032 1.478 . S
C2031 H2025 0.930 . S
C2031 C2027 1.400 . S
C2031 C2030 1.385 . S
C2032 C2030 1.478 . S
C2032 C2034 1.381 . S
C2032 C2038 1.383 . S
C2033 C2029 1.477 1_565 S
C2033 H2039 0.977 . S
C2033 H2040 0.951 1_565 S
C2033 H2041 0.971 . S
C2034 C2032 1.381 . S
C2034 C2035 1.394 . S
C2034 H2042 0.930 1_545 S
C2035 C2034 1.394 . S
C2035 C2036 1.383 . S
C2035 H2043 0.953 . S
C2036 C2035 1.383 . S
C2036 C2037 1.377 . S
C2037 H2021 0.930 . S
C2037 C2036 1.377 . S
C2037 C2038 1.379 . S
C2038 H2022 0.931 . S
C2038 C2032 1.383 . S
C2038 C2037 1.379 . S
H2039 C2033 0.977 . S
H2040 C2033 0.951 1_545 S
H2041 C2033 0.971 . S
H2042 C2034 0.930 1_565 S
H2043 C2035 0.953 . S
H2044 C2052 0.929 . S
H2045 C2054 0.930 . S
H2046 C2056 0.930 . S
H2047 C2059 0.929 . S
H2048 C2062 0.930 . S
H2049 C2064 0.960 . S
H2050 C2064 0.960 . S
H2051 C2064 0.960 . S
C2052 H2044 0.929 . S
C2052 C2053 1.377 . S
C2052 C2054 1.384 . S
C2053 C2052 1.377 . S
C2053 C2059 1.390 . S
C2054 H2045 0.930 . S
C2054 C2052 1.384 . S
C2054 C2055 1.372 . S
C2055 C2054 1.372 . S
C2055 C2056 1.400 . S
C2055 C2060 1.490 . S
C2056 H2046 0.930 . S
C2056 C2055 1.400 . S
C2056 C2059 1.386 . S
H2057 C2073 0.930 . S
H2058 C2074 0.931 . S
C2059 H2047 0.929 . S
C2059 C2053 1.390 . S
C2059 C2056 1.386 . S
C2060 C2055 1.490 . S
C2060 C2062 1.395 . S
C2060 C2063 1.403 . S
H2061 C2067 0.930 . S
C2062 H2048 0.930 . S
C2062 C2060 1.395 . S
C2062 C2065 1.403 . S
C2063 C2060 1.403 . S
C2063 C2064 1.524 . S
C2063 C2067 1.400 . S
C2064 H2049 0.960 . S
C2064 H2050 0.960 . S
C2064 H2051 0.960 . S
C2064 C2063 1.524 . S
C2065 C2062 1.403 . S
C2065 C2066 1.392 . S
C2065 C2069 1.495 . S
C2066 C2065 1.392 . S
C2066 C2067 1.385 . S
C2066 C2068 1.478 . S
C2067 H2061 0.930 . S
C2067 C2063 1.400 . S
C2067 C2066 1.385 . S
C2068 C2066 1.478 . S
C2068 C2070 1.381 . S
C2068 C2074 1.383 . S
C2069 C2065 1.495 . S
C2069 H2075 0.959 . S
C2069 H2076 0.961 . S
C2069 H2077 0.960 . S
C2070 C2068 1.381 . S
C2070 C2071 1.394 . S
C2070 H2078 0.930 . S
C2071 C2070 1.394 . S
C2071 C2072 1.383 . S
C2071 H2079 0.929 . S
C2072 C2071 1.383 . S
C2072 C2073 1.377 . S
C2073 H2057 0.930 . S
C2073 C2072 1.377 . S
C2073 C2074 1.379 . S
C2074 H2058 0.931 . S
C2074 C2068 1.383 . S
C2074 C2073 1.379 . S
H2075 C2069 0.959 . S
H2076 C2069 0.961 . S
H2077 C2069 0.960 . S
H2078 C2070 0.930 . S
H2079 C2071 0.929 . S
H2080 C2088 0.929 . S
H2081 C2090 0.930 . S
H2082 C2092 0.930 . S
H2083 C2095 0.929 . S
H2084 C2098 0.930 . S
H2085 C2100 0.960 1_545 S
H2086 C2100 0.960 . S
H2087 C2100 0.960 . S
C2088 H2080 0.929 . S
C2088 C2089 1.377 1_556 S
C2088 C2090 1.384 . S
C2089 C2088 1.377 1_554 S
C2089 C2095 1.390 . S
C2090 H2081 0.930 . S
C2090 C2088 1.384 . S
C2090 C2091 1.372 1_556 S
C2091 C2090 1.372 1_554 S
C2091 C2092 1.400 . S
C2091 C2096 1.490 . S
C2092 H2082 0.930 . S
C2092 C2091 1.400 . S
C2092 C2095 1.386 . S
H2093 C2109 0.930 . S
H2094 C2110 0.931 . S
C2095 H2083 0.929 . S
C2095 C2089 1.390 . S
C2095 C2092 1.386 . S
C2096 C2091 1.490 . S
C2096 C2098 1.395 . S
C2096 C2099 1.403 . S
H2097 C2103 0.930 . S
C2098 H2084 0.930 . S
C2098 C2096 1.395 . S
C2098 C2101 1.403 . S
C2099 C2096 1.403 . S
C2099 C2100 1.524 . S
C2099 C2103 1.400 . S
C2100 H2085 0.960 1_565 S
C2100 H2086 0.960 . S
C2100 H2087 0.960 . S
C2100 C2099 1.524 . S
C2101 C2098 1.403 . S
C2101 C2102 1.392 . S
C2101 C2105 1.495 . S
C2102 C2101 1.392 . S
C2102 C2103 1.385 . S
C2102 C2104 1.478 . S
C2103 H2097 0.930 . S
C2103 C2099 1.400 . S
C2103 C2102 1.385 . S
C2104 C2102 1.478 . S
C2104 C2106 1.381 . S
C2104 C2110 1.383 . S
C2105 C2101 1.495 . S
C2105 H2111 0.959 . S
C2105 H2112 0.961 . S
C2105 H2113 0.960 . S
C2106 C2104 1.381 . S
C2106 C2107 1.394 . S
C2106 H2114 0.930 . S
C2107 C2106 1.394 . S
C2107 C2108 1.383 . S
C2107 H2115 0.929 . S
C2108 C2107 1.383 . S
C2108 C2109 1.377 . S
C2109 H2093 0.930 . S
C2109 C2108 1.377 . S
C2109 C2110 1.379 . S
C2110 H2094 0.931 . S
C2110 C2104 1.383 . S
C2110 C2109 1.379 . S
H2111 C2105 0.959 . S
H2112 C2105 0.961 . S
H2113 C2105 0.960 . S
H2114 C2106 0.930 . S
H2115 C2107 0.929 . S
H2116 C2124 0.929 . S
H2117 C2126 0.930 . S
H2118 C2128 0.930 . S
H2119 C2131 0.929 . S
H2120 C2134 0.930 . S
H2121 C2136 0.960 . S
H2122 C2136 0.960 . S
H2123 C2136 0.960 . S
C2124 H2116 0.929 . S
C2124 C2125 1.377 . S
C2124 C2126 1.384 . S
C2125 C2124 1.377 . S
C2125 C2131 1.390 . S
C2126 H2117 0.930 . S
C2126 C2124 1.384 . S
C2126 C2127 1.372 . S
C2127 C2126 1.372 . S
C2127 C2128 1.400 . S
C2127 C2132 1.490 . S
C2128 H2118 0.930 . S
C2128 C2127 1.400 . S
C2128 C2131 1.386 . S
H2129 C2145 0.922 1_556 S
H2130 C2146 0.901 1_556 S
C2131 H2119 0.929 . S
C2131 C2125 1.390 . S
C2131 C2128 1.386 . S
C2132 C2127 1.490 . S
C2132 C2134 1.395 . S
C2132 C2135 1.403 . S
H2133 C2139 0.930 . S
C2134 H2120 0.930 . S
C2134 C2132 1.395 . S
C2134 C2137 1.403 . S
C2135 C2132 1.403 . S
C2135 C2136 1.524 . S
C2135 C2139 1.400 . S
C2136 H2121 0.960 . S
C2136 H2122 0.960 . S
C2136 H2123 0.960 . S
C2136 C2135 1.524 . S
C2137 C2134 1.403 . S
C2137 C2138 1.392 . S
C2137 C2141 1.495 . S
C2138 C2137 1.392 . S
C2138 C2139 1.385 . S
C2138 C2140 1.478 . S
C2139 H2133 0.930 . S
C2139 C2135 1.400 . S
C2139 C2138 1.385 . S
C2140 C2138 1.478 . S
C2140 C2142 1.381 . S
C2140 C2146 1.383 . S
C2141 C2137 1.495 . S
C2141 H2147 0.959 . S
C2141 H2148 0.961 . S
C2141 H2149 0.960 . S
C2142 C2140 1.381 . S
C2142 C2143 1.394 . S
C2142 H2150 0.930 . S
C2143 C2142 1.394 . S
C2143 C2144 1.383 . S
C2143 H2151 0.929 . S
C2144 C2143 1.383 . S
C2144 C2145 1.377 . S
C2145 H2129 0.922 1_554 S
C2145 C2144 1.377 . S
C2145 C2146 1.379 . S
C2146 H2130 0.901 1_554 S
C2146 C2140 1.383 . S
C2146 C2145 1.379 . S
H2147 C2141 0.959 . S
H2148 C2141 0.961 . S
H2149 C2141 0.960 . S
H2150 C2142 0.930 . S
H2151 C2143 0.929 . S
H2152 C2160 0.929 . S
H2153 C2162 0.930 . S
H2154 C2164 0.930 . S
H2155 C2167 0.929 . S
H2156 C2170 0.930 . S
H2157 C2172 0.960 . S
H2158 C2172 0.960 . S
H2159 C2172 0.960 . S
C2160 H2152 0.929 . S
C2160 C2161 1.377 . S
C2160 C2162 1.384 . S
C2161 C2160 1.377 . S
C2161 C2167 1.390 . S
C2162 H2153 0.930 . S
C2162 C2160 1.384 . S
C2162 C2163 1.372 . S
C2163 C2162 1.372 . S
C2163 C2164 1.400 . S
C2163 C2168 1.490 . S
C2164 H2154 0.930 . S
C2164 C2163 1.400 . S
C2164 C2167 1.386 . S
H2165 C2181 0.930 . S
H2166 C2182 0.931 . S
C2167 H2155 0.929 . S
C2167 C2161 1.390 . S
C2167 C2164 1.386 . S
C2168 C2163 1.490 . S
C2168 C2170 1.395 . S
C2168 C2171 1.403 . S
H2169 C2175 0.930 . S
C2170 H2156 0.930 . S
C2170 C2168 1.395 . S
C2170 C2173 1.403 . S
C2171 C2168 1.403 . S
C2171 C2172 1.524 . S
C2171 C2175 1.400 . S
C2172 H2157 0.960 . S
C2172 H2158 0.960 . S
C2172 H2159 0.960 . S
C2172 C2171 1.524 . S
C2173 C2170 1.403 . S
C2173 C2174 1.392 . S
C2173 C2177 1.495 . S
C2174 C2173 1.392 . S
C2174 C2175 1.385 . S
C2174 C2176 1.478 . S
C2175 H2169 0.930 . S
C2175 C2171 1.400 . S
C2175 C2174 1.385 . S
C2176 C2174 1.478 . S
C2176 C2178 1.381 . S
C2176 C2182 1.383 . S
C2177 C2173 1.495 . S
C2177 H2183 0.959 . S
C2177 H2184 0.961 . S
C2177 H2185 0.960 . S
C2178 C2176 1.381 . S
C2178 C2179 1.394 . S
C2178 H2186 0.930 . S
C2179 C2178 1.394 . S
C2179 C2180 1.383 . S
C2179 H2187 0.929 . S
C2180 C2179 1.383 . S
C2180 C2181 1.377 . S
C2181 H2165 0.930 . S
C2181 C2180 1.377 . S
C2181 C2182 1.379 . S
C2182 H2166 0.931 . S
C2182 C2176 1.383 . S
C2182 C2181 1.379 . S
H2183 C2177 0.959 . S
H2184 C2177 0.961 . S
H2185 C2177 0.960 . S
H2186 C2178 0.930 . S
H2187 C2179 0.929 . S
H2188 C2196 0.929 . S
H2189 C2198 0.930 . S
H2190 C2200 0.930 . S
H2191 C2203 0.929 . S
H2192 C2206 0.930 . S
H2193 C2208 0.960 . S
H2194 C2208 0.960 . S
H2195 C2208 0.960 . S
C2196 H2188 0.929 . S
C2196 C2197 1.377 . S
C2196 C2198 1.384 . S
C2197 C2196 1.377 . S
C2197 C2203 1.390 . S
C2198 H2189 0.930 . S
C2198 C2196 1.384 . S
C2198 C2199 1.372 . S
C2199 C2198 1.372 . S
C2199 C2200 1.400 . S
C2199 C2204 1.490 . S
C2200 H2190 0.930 . S
C2200 C2199 1.400 . S
C2200 C2203 1.386 . S
H2201 C2217 0.930 . S
H2202 C2218 0.931 . S
C2203 H2191 0.929 . S
C2203 C2197 1.390 . S
C2203 C2200 1.386 . S
C2204 C2199 1.490 . S
C2204 C2206 1.395 . S
C2204 C2207 1.403 . S
H2205 C2211 0.930 . S
C2206 H2192 0.930 . S
C2206 C2204 1.395 . S
C2206 C2209 1.403 . S
C2207 C2204 1.403 . S
C2207 C2208 1.524 . S
C2207 C2211 1.400 . S
C2208 H2193 0.960 . S
C2208 H2194 0.960 . S
C2208 H2195 0.960 . S
C2208 C2207 1.524 . S
C2209 C2206 1.403 . S
C2209 C2210 1.392 . S
C2209 C2213 1.495 . S
C2210 C2209 1.392 . S
C2210 C2211 1.385 . S
C2210 C2212 1.478 . S
C2211 H2205 0.930 . S
C2211 C2207 1.400 . S
C2211 C2210 1.385 . S
C2212 C2210 1.478 . S
C2212 C2214 1.381 . S
C2212 C2218 1.383 . S
C2213 C2209 1.495 . S
C2213 H2219 0.959 . S
C2213 H2220 0.961 . S
C2213 H2221 0.960 . S
C2214 C2212 1.381 . S
C2214 C2215 1.394 . S
C2214 H2222 0.930 . S
C2215 C2214 1.394 . S
C2215 C2216 1.383 . S
C2215 H2223 0.929 . S
C2216 C2215 1.383 . S
C2216 C2217 1.377 . S
C2217 H2201 0.930 . S
C2217 C2216 1.377 . S
C2217 C2218 1.379 . S
C2218 H2202 0.931 . S
C2218 C2212 1.383 . S
C2218 C2217 1.379 . S
H2219 C2213 0.959 . S
H2220 C2213 0.961 . S
H2221 C2213 0.960 . S
H2222 C2214 0.930 . S
H2223 C2215 0.929 . S
H2224 C2232 0.929 . S
H2225 C2234 0.930 . S
H2226 C2236 0.930 . S
H2227 C2239 0.929 . S
H2228 C2242 0.930 . S
H2229 C2244 0.960 . S
H2230 C2244 0.960 . S
H2231 C2244 0.960 . S
C2232 H2224 0.929 . S
C2232 C2233 1.377 . S
C2232 C2234 1.384 . S
C2233 C2232 1.377 . S
C2233 C2239 1.390 . S
C2234 H2225 0.930 . S
C2234 C2232 1.384 . S
C2234 C2235 1.372 . S
C2235 C2234 1.372 . S
C2235 C2236 1.400 . S
C2235 C2240 1.490 . S
C2236 H2226 0.930 . S
C2236 C2235 1.400 . S
C2236 C2239 1.386 . S
H2237 C2253 0.930 . S
H2238 C2254 0.931 . S
C2239 H2227 0.929 . S
C2239 C2233 1.390 . S
C2239 C2236 1.386 . S
C2240 C2235 1.490 . S
C2240 C2242 1.395 . S
C2240 C2243 1.403 . S
H2241 C2247 0.930 . S
C2242 H2228 0.930 . S
C2242 C2240 1.395 . S
C2242 C2245 1.403 . S
C2243 C2240 1.403 . S
C2243 C2244 1.524 . S
C2243 C2247 1.400 . S
C2244 H2229 0.960 . S
C2244 H2230 0.960 . S
C2244 H2231 0.960 . S
C2244 C2243 1.524 . S
C2245 C2242 1.403 . S
C2245 C2246 1.392 . S
C2245 C2249 1.495 . S
C2246 C2245 1.392 . S
C2246 C2247 1.385 . S
C2246 C2248 1.478 . S
C2247 H2241 0.930 . S
C2247 C2243 1.400 . S
C2247 C2246 1.385 . S
C2248 C2246 1.478 . S
C2248 C2250 1.381 . S
C2248 C2254 1.383 . S
C2249 C2245 1.495 . S
C2249 H2255 0.959 . S
C2249 H2256 0.961 . S
C2249 H2257 0.960 . S
C2250 C2248 1.381 . S
C2250 C2251 1.394 . S
C2250 H2258 0.930 . S
C2251 C2250 1.394 . S
C2251 C2252 1.383 . S
C2251 H2259 0.929 . S
C2252 C2251 1.383 . S
C2252 C2253 1.377 . S
C2253 H2237 0.930 . S
C2253 C2252 1.377 . S
C2253 C2254 1.379 . S
C2254 H2238 0.931 . S
C2254 C2248 1.383 . S
C2254 C2253 1.379 . S
H2255 C2249 0.959 . S
H2256 C2249 0.961 . S
H2257 C2249 0.960 . S
H2258 C2250 0.930 . S
H2259 C2251 0.929 . S
H2260 C2268 0.929 . S
H2261 C2270 0.930 . S
H2262 C2272 0.930 . S
H2263 C2275 0.929 . S
H2264 C2278 0.930 . S
H2265 C2280 0.960 . S
H2266 C2280 0.960 . S
H2267 C2280 0.960 . S
C2268 H2260 0.929 . S
C2268 C2269 1.377 . S
C2268 C2270 1.384 . S
C2269 C2268 1.377 . S
C2269 C2275 1.390 . S
C2270 H2261 0.930 . S
C2270 C2268 1.384 . S
C2270 C2271 1.372 . S
C2271 C2270 1.372 . S
C2271 C2272 1.400 . S
C2271 C2276 1.490 . S
C2272 H2262 0.930 . S
C2272 C2271 1.400 . S
C2272 C2275 1.386 . S
H2273 C2289 0.930 . S
H2274 C2290 0.931 . S
C2275 H2263 0.929 . S
C2275 C2269 1.390 . S
C2275 C2272 1.386 . S
C2276 C2271 1.490 . S
C2276 C2278 1.395 . S
C2276 C2279 1.403 . S
H2277 C2283 0.930 . S
C2278 H2264 0.930 . S
C2278 C2276 1.395 . S
C2278 C2281 1.403 . S
C2279 C2276 1.403 . S
C2279 C2280 1.524 . S
C2279 C2283 1.400 . S
C2280 H2265 0.960 . S
C2280 H2266 0.960 . S
C2280 H2267 0.960 . S
C2280 C2279 1.524 . S
C2281 C2278 1.403 . S
C2281 C2282 1.392 . S
C2281 C2285 1.495 . S
C2282 C2281 1.392 . S
C2282 C2283 1.385 . S
C2282 C2284 1.478 . S
C2283 H2277 0.930 . S
C2283 C2279 1.400 . S
C2283 C2282 1.385 . S
C2284 C2282 1.478 . S
C2284 C2286 1.381 . S
C2284 C2290 1.383 . S
C2285 C2281 1.495 . S
C2285 H2291 0.959 . S
C2285 H2292 0.961 . S
C2285 H2293 0.960 . S
C2286 C2284 1.381 . S
C2286 C2287 1.394 . S
C2286 H2294 0.930 . S
C2287 C2286 1.394 . S
C2287 C2288 1.383 . S
C2287 H2295 0.929 . S
C2288 C2287 1.383 . S
C2288 C2289 1.377 . S
C2289 H2273 0.930 . S
C2289 C2288 1.377 . S
C2289 C2290 1.379 . S
C2290 H2274 0.931 . S
C2290 C2284 1.383 . S
C2290 C2289 1.379 . S
H2291 C2285 0.959 . S
H2292 C2285 0.961 . S
H2293 C2285 0.960 . S
H2294 C2286 0.930 . S
H2295 C2287 0.929 . S
H2296 C2304 0.929 . S
H2297 C2306 0.930 . S
H2298 C2308 0.930 . S
H2299 C2311 0.929 . S
H2300 C2314 0.930 . S
H2301 C2316 0.960 . S
H2302 C2316 0.960 . S
H2303 C2316 0.960 . S
C2304 H2296 0.929 . S
C2304 C2305 1.377 . S
C2304 C2306 1.384 . S
C2305 C2304 1.377 . S
C2305 C2311 1.390 . S
C2306 H2297 0.930 . S
C2306 C2304 1.384 . S
C2306 C2307 1.372 . S
C2307 C2306 1.372 . S
C2307 C2308 1.400 . S
C2307 C2312 1.490 . S
C2308 H2298 0.930 . S
C2308 C2307 1.400 . S
C2308 C2311 1.386 . S
H2309 C2325 0.930 . S
H2310 C2326 0.931 . S
C2311 H2299 0.929 . S
C2311 C2305 1.390 . S
C2311 C2308 1.386 . S
C2312 C2307 1.490 . S
C2312 C2314 1.395 . S
C2312 C2315 1.403 . S
H2313 C2319 0.930 . S
C2314 H2300 0.930 . S
C2314 C2312 1.395 . S
C2314 C2317 1.403 . S
C2315 C2312 1.403 . S
C2315 C2316 1.524 . S
C2315 C2319 1.400 . S
C2316 H2301 0.960 . S
C2316 H2302 0.960 . S
C2316 H2303 0.960 . S
C2316 C2315 1.524 . S
C2317 C2314 1.403 . S
C2317 C2318 1.392 . S
C2317 C2321 1.495 . S
C2318 C2317 1.392 . S
C2318 C2319 1.385 . S
C2318 C2320 1.478 . S
C2319 H2313 0.930 . S
C2319 C2315 1.400 . S
C2319 C2318 1.385 . S
C2320 C2318 1.478 . S
C2320 C2322 1.381 . S
C2320 C2326 1.383 . S
C2321 C2317 1.495 . S
C2321 H2327 0.959 . S
C2321 H2328 0.961 . S
C2321 H2329 0.960 . S
C2322 C2320 1.381 . S
C2322 C2323 1.394 . S
C2322 H2330 0.930 . S
C2323 C2322 1.394 . S
C2323 C2324 1.383 . S
C2323 H2331 0.929 . S
C2324 C2323 1.383 . S
C2324 C2325 1.377 . S
C2325 H2309 0.930 . S
C2325 C2324 1.377 . S
C2325 C2326 1.379 . S
C2326 H2310 0.931 . S
C2326 C2320 1.383 . S
C2326 C2325 1.379 . S
H2327 C2321 0.959 . S
H2328 C2321 0.961 . S
H2329 C2321 0.960 . S
H2330 C2322 0.930 . S
H2331 C2323 0.929 . S
H2332 C2340 0.929 . S
H2333 C2342 0.930 . S
H2334 C2344 0.930 . S
H2335 C2347 0.929 . S
H2336 C2350 0.930 . S
H2337 C2352 0.960 . S
H2338 C2352 0.960 . S
H2339 C2352 0.960 . S
C2340 H2332 0.929 . S
C2340 C2341 1.377 . S
C2340 C2342 1.384 . S
C2341 C2340 1.377 . S
C2341 C2347 1.390 . S
C2342 H2333 0.930 . S
C2342 C2340 1.384 . S
C2342 C2343 1.372 . S
C2343 C2342 1.372 . S
C2343 C2344 1.400 . S
C2343 C2348 1.490 . S
C2344 H2334 0.930 . S
C2344 C2343 1.400 . S
C2344 C2347 1.386 . S
H2345 C2361 0.930 . S
H2346 C2362 0.931 . S
C2347 H2335 0.929 . S
C2347 C2341 1.390 . S
C2347 C2344 1.386 . S
C2348 C2343 1.490 . S
C2348 C2350 1.395 . S
C2348 C2351 1.403 . S
H2349 C2355 0.930 . S
C2350 H2336 0.930 . S
C2350 C2348 1.395 . S
C2350 C2353 1.403 . S
C2351 C2348 1.403 . S
C2351 C2352 1.524 . S
C2351 C2355 1.400 . S
C2352 H2337 0.960 . S
C2352 H2338 0.960 . S
C2352 H2339 0.960 . S
C2352 C2351 1.524 . S
C2353 C2350 1.403 . S
C2353 C2354 1.392 . S
C2353 C2357 1.495 . S
C2354 C2353 1.392 . S
C2354 C2355 1.385 . S
C2354 C2356 1.478 . S
C2355 H2349 0.930 . S
C2355 C2351 1.400 . S
C2355 C2354 1.385 . S
C2356 C2354 1.478 . S
C2356 C2358 1.381 . S
C2356 C2362 1.383 . S
C2357 C2353 1.495 . S
C2357 H2363 0.959 . S
C2357 H2364 0.961 . S
C2357 H2365 0.960 . S
C2358 C2356 1.381 . S
C2358 C2359 1.394 . S
C2358 H2366 0.930 . S
C2359 C2358 1.394 . S
C2359 C2360 1.383 . S
C2359 H2367 0.929 . S
C2360 C2359 1.383 . S
C2360 C2361 1.377 . S
C2361 H2345 0.930 . S
C2361 C2360 1.377 . S
C2361 C2362 1.379 . S
C2362 H2346 0.931 . S
C2362 C2356 1.383 . S
C2362 C2361 1.379 . S
H2363 C2357 0.959 . S
H2364 C2357 0.961 . S
H2365 C2357 0.960 . S
H2366 C2358 0.930 . S
H2367 C2359 0.929 . S
H2368 C2376 0.929 . S
H2369 C2378 0.930 . S
H2370 C2380 0.930 . S
H2371 C2383 0.929 . S
H2372 C2386 0.930 . S
H2373 C2388 0.960 . S
H2374 C2388 0.960 . S
H2375 C2388 0.960 . S
C2376 H2368 0.929 . S
C2376 C2377 1.377 . S
C2376 C2378 1.384 . S
C2377 C2376 1.377 . S
C2377 C2383 1.390 . S
C2378 H2369 0.930 . S
C2378 C2376 1.384 . S
C2378 C2379 1.372 . S
C2379 C2378 1.372 . S
C2379 C2380 1.400 . S
C2379 C2384 1.490 . S
C2380 H2370 0.930 . S
C2380 C2379 1.400 . S
C2380 C2383 1.386 . S
H2381 C2397 0.930 . S
H2382 C2398 0.931 . S
C2383 H2371 0.929 . S
C2383 C2377 1.390 . S
C2383 C2380 1.386 . S
C2384 C2379 1.490 . S
C2384 C2386 1.395 . S
C2384 C2387 1.403 . S
H2385 C2391 0.930 . S
C2386 H2372 0.930 . S
C2386 C2384 1.395 . S
C2386 C2389 1.403 . S
C2387 C2384 1.403 . S
C2387 C2388 1.524 . S
C2387 C2391 1.400 . S
C2388 H2373 0.960 . S
C2388 H2374 0.960 . S
C2388 H2375 0.960 . S
C2388 C2387 1.524 . S
C2389 C2386 1.403 . S
C2389 C2390 1.392 . S
C2389 C2393 1.495 . S
C2390 C2389 1.392 . S
C2390 C2391 1.385 . S
C2390 C2392 1.478 . S
C2391 H2385 0.930 . S
C2391 C2387 1.400 . S
C2391 C2390 1.385 . S
C2392 C2390 1.478 . S
C2392 C2394 1.381 . S
C2392 C2398 1.383 . S
C2393 C2389 1.495 . S
C2393 H2399 0.959 . S
C2393 H2400 0.961 . S
C2393 H2401 0.960 . S
C2394 C2392 1.381 . S
C2394 C2395 1.394 . S
C2394 H2402 0.930 . S
C2395 C2394 1.394 . S
C2395 C2396 1.383 . S
C2395 H2403 0.929 . S
C2396 C2395 1.383 . S
C2396 C2397 1.377 . S
C2397 H2381 0.930 . S
C2397 C2396 1.377 . S
C2397 C2398 1.379 . S
C2398 H2382 0.931 . S
C2398 C2392 1.383 . S
C2398 C2397 1.379 . S
H2399 C2393 0.959 . S
H2400 C2393 0.961 . S
H2401 C2393 0.960 . S
H2402 C2394 0.930 . S
H2403 C2395 0.929 . S
H2404 C2412 0.929 . S
H2405 C2414 0.930 . S
H2406 C2416 0.930 . S
H2407 C2419 0.929 . S
H2408 C2422 0.930 . S
H2409 C2424 0.960 . S
H2410 C2424 0.960 . S
H2411 C2424 0.960 . S
C2412 H2404 0.929 . S
C2412 C2413 1.377 . S
C2412 C2414 1.384 . S
C2413 C2412 1.377 . S
C2413 C2419 1.390 . S
C2414 H2405 0.930 . S
C2414 C2412 1.384 . S
C2414 C2415 1.372 . S
C2415 C2414 1.372 . S
C2415 C2416 1.400 . S
C2415 C2420 1.490 . S
C2416 H2406 0.930 . S
C2416 C2415 1.400 . S
C2416 C2419 1.386 . S
H2417 C2433 0.930 . S
H2418 C2434 0.931 . S
C2419 H2407 0.929 . S
C2419 C2413 1.390 . S
C2419 C2416 1.386 . S
C2420 C2415 1.490 . S
C2420 C2422 1.395 . S
C2420 C2423 1.403 . S
H2421 C2427 0.930 . S
C2422 H2408 0.930 . S
C2422 C2420 1.395 . S
C2422 C2425 1.403 . S
C2423 C2420 1.403 . S
C2423 C2424 1.524 . S
C2423 C2427 1.400 . S
C2424 H2409 0.960 . S
C2424 H2410 0.960 . S
C2424 H2411 0.960 . S
C2424 C2423 1.524 . S
C2425 C2422 1.403 . S
C2425 C2426 1.392 . S
C2425 C2429 1.495 . S
C2426 C2425 1.392 . S
C2426 C2427 1.385 . S
C2426 C2428 1.478 . S
C2427 H2421 0.930 . S
C2427 C2423 1.400 . S
C2427 C2426 1.385 . S
C2428 C2426 1.478 . S
C2428 C2430 1.381 . S
C2428 C2434 1.383 . S
C2429 C2425 1.495 . S
C2429 H2435 0.959 . S
C2429 H2436 0.961 . S
C2429 H2437 0.960 . S
C2430 C2428 1.381 . S
C2430 C2431 1.394 . S
C2430 H2438 0.930 . S
C2431 C2430 1.394 . S
C2431 C2432 1.383 . S
C2431 H2439 0.929 . S
C2432 C2431 1.383 . S
C2432 C2433 1.377 . S
C2433 H2417 0.930 . S
C2433 C2432 1.377 . S
C2433 C2434 1.379 . S
C2434 H2418 0.931 . S
C2434 C2428 1.383 . S
C2434 C2433 1.379 . S
H2435 C2429 0.959 . S
H2436 C2429 0.961 . S
H2437 C2429 0.960 . S
H2438 C2430 0.930 . S
H2439 C2431 0.929 . S
H2440 C2448 0.929 . S
H2441 C2450 0.930 . S
H2442 C2452 0.930 . S
H2443 C2455 0.929 . S
H2444 C2458 0.930 . S
H2445 C2460 0.960 . S
H2446 C2460 0.960 . S
H2447 C2460 0.960 . S
C2448 H2440 0.929 . S
C2448 C2449 1.377 . S
C2448 C2450 1.384 . S
C2449 C2448 1.377 . S
C2449 C2455 1.390 . S
C2450 H2441 0.930 . S
C2450 C2448 1.384 . S
C2450 C2451 1.372 . S
C2451 C2450 1.372 . S
C2451 C2452 1.400 . S
C2451 C2456 1.490 . S
C2452 H2442 0.930 . S
C2452 C2451 1.400 . S
C2452 C2455 1.386 . S
H2453 C2469 0.930 . S
H2454 C2470 0.931 . S
C2455 H2443 0.929 . S
C2455 C2449 1.390 . S
C2455 C2452 1.386 . S
C2456 C2451 1.490 . S
C2456 C2458 1.395 . S
C2456 C2459 1.403 . S
H2457 C2463 0.930 . S
C2458 H2444 0.930 . S
C2458 C2456 1.395 . S
C2458 C2461 1.403 . S
C2459 C2456 1.403 . S
C2459 C2460 1.524 . S
C2459 C2463 1.400 . S
C2460 H2445 0.960 . S
C2460 H2446 0.960 . S
C2460 H2447 0.960 . S
C2460 C2459 1.524 . S
C2461 C2458 1.403 . S
C2461 C2462 1.392 . S
C2461 C2465 1.495 . S
C2462 C2461 1.392 . S
C2462 C2463 1.385 . S
C2462 C2464 1.478 . S
C2463 H2457 0.930 . S
C2463 C2459 1.400 . S
C2463 C2462 1.385 . S
C2464 C2462 1.478 . S
C2464 C2466 1.381 . S
C2464 C2470 1.383 . S
C2465 C2461 1.495 . S
C2465 H2471 0.959 . S
C2465 H2472 0.961 . S
C2465 H2473 0.960 . S
C2466 C2464 1.381 . S
C2466 C2467 1.394 . S
C2466 H2474 0.930 . S
C2467 C2466 1.394 . S
C2467 C2468 1.383 . S
C2467 H2475 0.929 . S
C2468 C2467 1.383 . S
C2468 C2469 1.377 . S
C2469 H2453 0.930 . S
C2469 C2468 1.377 . S
C2469 C2470 1.379 . S
C2470 H2454 0.931 . S
C2470 C2464 1.383 . S
C2470 C2469 1.379 . S
H2471 C2465 0.959 . S
H2472 C2465 0.961 . S
H2473 C2465 0.960 . S
H2474 C2466 0.930 . S
H2475 C2467 0.929 . S
H2476 C2484 0.929 . S
H2477 C2486 0.930 . S
H2478 C2488 0.930 . S
H2479 C2491 0.929 . S
H2480 C2494 0.930 . S
H2481 C2496 0.960 . S
H2482 C2496 0.960 . S
H2483 C2496 0.960 . S
C2484 H2476 0.929 . S
C2484 C2485 1.377 . S
C2484 C2486 1.384 . S
C2485 C2484 1.377 . S
C2485 C2491 1.390 . S
C2486 H2477 0.930 . S
C2486 C2484 1.384 . S
C2486 C2487 1.372 . S
C2487 C2486 1.372 . S
C2487 C2488 1.400 . S
C2487 C2492 1.490 . S
C2488 H2478 0.930 . S
C2488 C2487 1.400 . S
C2488 C2491 1.386 . S
H2489 C2505 0.930 . S
H2490 C2506 0.931 . S
C2491 H2479 0.929 . S
C2491 C2485 1.390 . S
C2491 C2488 1.386 . S
C2492 C2487 1.490 . S
C2492 C2494 1.395 . S
C2492 C2495 1.403 . S
H2493 C2499 0.930 . S
C2494 H2480 0.930 . S
C2494 C2492 1.395 . S
C2494 C2497 1.403 . S
C2495 C2492 1.403 . S
C2495 C2496 1.524 . S
C2495 C2499 1.400 . S
C2496 H2481 0.960 . S
C2496 H2482 0.960 . S
C2496 H2483 0.960 . S
C2496 C2495 1.524 . S
C2497 C2494 1.403 . S
C2497 C2498 1.392 . S
C2497 C2501 1.495 . S
C2498 C2497 1.392 . S
C2498 C2499 1.385 . S
C2498 C2500 1.478 . S
C2499 H2493 0.930 . S
C2499 C2495 1.400 . S
C2499 C2498 1.385 . S
C2500 C2498 1.478 . S
C2500 C2502 1.381 . S
C2500 C2506 1.383 . S
C2501 C2497 1.495 . S
C2501 H2507 0.959 . S
C2501 H2508 0.961 . S
C2501 H2509 0.960 . S
C2502 C2500 1.381 . S
C2502 C2503 1.394 . S
C2502 H2510 0.930 . S
C2503 C2502 1.394 . S
C2503 C2504 1.383 . S
C2503 H2511 0.929 . S
C2504 C2503 1.383 . S
C2504 C2505 1.377 . S
C2505 H2489 0.930 . S
C2505 C2504 1.377 . S
C2505 C2506 1.379 . S
C2506 H2490 0.931 . S
C2506 C2500 1.383 . S
C2506 C2505 1.379 . S
H2507 C2501 0.959 . S
H2508 C2501 0.961 . S
H2509 C2501 0.960 . S
H2510 C2502 0.930 . S
H2511 C2503 0.929 . S
H2512 C2520 0.929 . S
H2513 C2522 0.930 . S
H2514 C2524 0.930 . S
H2515 C2527 0.929 . S
H2516 C2530 0.930 1_655 S
H2517 C2532 0.960 . S
H2518 C2532 0.960 . S
H2519 C2532 0.960 . S
C2520 H2512 0.929 . S
C2520 C2521 1.377 . S
C2520 C2522 1.384 . S
C2521 C2520 1.377 . S
C2521 C2527 1.390 . S
C2522 H2513 0.930 . S
C2522 C2520 1.384 . S
C2522 C2523 1.372 . S
C2523 C2522 1.372 . S
C2523 C2524 1.400 . S
C2523 C2528 1.490 . S
C2524 H2514 0.930 . S
C2524 C2523 1.400 . S
C2524 C2527 1.386 . S
H2525 C2541 0.930 . S
H2526 C2542 0.931 . S
C2527 H2515 0.929 . S
C2527 C2521 1.390 . S
C2527 C2524 1.386 . S
C2528 C2523 1.490 . S
C2528 C2530 1.395 . S
C2528 C2531 1.403 . S
H2529 C2535 0.930 . S
C2530 H2516 0.930 1_455 S
C2530 C2528 1.395 . S
C2530 C2533 1.403 . S
C2531 C2528 1.403 . S
C2531 C2532 1.524 . S
C2531 C2535 1.400 . S
C2532 H2517 0.960 . S
C2532 H2518 0.960 . S
C2532 H2519 0.960 . S
C2532 C2531 1.524 . S
C2533 C2530 1.403 . S
C2533 C2534 1.392 . S
C2533 C2537 1.495 1_455 S
C2534 C2533 1.392 . S
C2534 C2535 1.385 . S
C2534 C2536 1.478 . S
C2535 H2529 0.930 . S
C2535 C2531 1.400 . S
C2535 C2534 1.385 . S
C2536 C2534 1.478 . S
C2536 C2538 1.381 . S
C2536 C2542 1.383 . S
C2537 C2533 1.495 1_655 S
C2537 H2543 0.959 . S
C2537 H2544 0.961 . S
C2537 H2545 0.960 . S
C2538 C2536 1.381 . S
C2538 C2539 1.394 . S
C2538 H2546 0.966 . S
C2539 C2538 1.394 . S
C2539 C2540 1.383 . S
C2539 H2547 0.929 . S
C2540 C2539 1.383 . S
C2540 C2541 1.377 . S
C2541 H2525 0.930 . S
C2541 C2540 1.377 . S
C2541 C2542 1.379 . S
C2542 H2526 0.931 . S
C2542 C2536 1.383 . S
C2542 C2541 1.379 . S
H2543 C2537 0.959 . S
H2544 C2537 0.961 . S
H2545 C2537 0.960 . S
H2546 C2538 0.966 . S
H2547 C2539 0.929 . S
H2548 C2556 0.929 . S
H2549 C2558 0.930 . S
H2550 C2560 0.930 . S
H2551 C2563 0.929 . S
H2552 C2566 0.930 . S
H2553 C2568 0.960 . S
H2554 C2568 0.960 . S
H2555 C2568 0.960 . S
C2556 H2548 0.929 . S
C2556 C2557 1.377 . S
C2556 C2558 1.384 . S
C2557 C2556 1.377 . S
C2557 C2563 1.390 . S
C2558 H2549 0.930 . S
C2558 C2556 1.384 . S
C2558 C2559 1.372 . S
C2559 C2558 1.372 . S
C2559 C2560 1.400 . S
C2559 C2564 1.490 . S
C2560 H2550 0.930 . S
C2560 C2559 1.400 . S
C2560 C2563 1.386 . S
H2561 C2577 0.930 . S
H2562 C2578 0.931 . S
C2563 H2551 0.929 . S
C2563 C2557 1.390 . S
C2563 C2560 1.386 . S
C2564 C2559 1.490 . S
C2564 C2566 1.395 . S
C2564 C2567 1.403 . S
H2565 C2571 0.930 . S
C2566 H2552 0.930 . S
C2566 C2564 1.395 . S
C2566 C2569 1.403 . S
C2567 C2564 1.403 . S
C2567 C2568 1.524 . S
C2567 C2571 1.400 . S
C2568 H2553 0.960 . S
C2568 H2554 0.960 . S
C2568 H2555 0.960 . S
C2568 C2567 1.524 . S
C2569 C2566 1.403 . S
C2569 C2570 1.392 . S
C2569 C2573 1.495 . S
C2570 C2569 1.392 . S
C2570 C2571 1.385 . S
C2570 C2572 1.478 . S
C2571 H2565 0.930 . S
C2571 C2567 1.400 . S
C2571 C2570 1.385 . S
C2572 C2570 1.478 . S
C2572 C2574 1.381 . S
C2572 C2578 1.383 . S
C2573 C2569 1.495 . S
C2573 H2579 0.959 . S
C2573 H2580 0.961 . S
C2573 H2581 0.960 . S
C2574 C2572 1.381 . S
C2574 C2575 1.394 . S
C2574 H2582 0.930 . S
C2575 C2574 1.394 . S
C2575 C2576 1.383 . S
C2575 H2583 0.929 . S
C2576 C2575 1.383 . S
C2576 C2577 1.377 . S
C2577 H2561 0.930 . S
C2577 C2576 1.377 . S
C2577 C2578 1.379 . S
C2578 H2562 0.931 . S
C2578 C2572 1.383 . S
C2578 C2577 1.379 . S
H2579 C2573 0.959 . S
H2580 C2573 0.961 . S
H2581 C2573 0.960 . S
H2582 C2574 0.930 . S
H2583 C2575 0.929 . S
H2584 C2592 0.929 . S
H2585 C2594 0.930 . S
H2586 C2596 0.930 . S
H2587 C2599 0.929 . S
H2588 C2602 0.930 . S
H2589 C2604 0.960 . S
H2590 C2604 0.960 . S
H2591 C2604 0.960 . S
C2592 H2584 0.929 . S
C2592 C2593 1.377 . S
C2592 C2594 1.384 . S
C2593 C2592 1.377 . S
C2593 C2599 1.390 . S
C2594 H2585 0.930 . S
C2594 C2592 1.384 . S
C2594 C2595 1.372 . S
C2595 C2594 1.372 . S
C2595 C2596 1.400 . S
C2595 C2600 1.490 . S
C2596 H2586 0.930 . S
C2596 C2595 1.400 . S
C2596 C2599 1.386 . S
H2597 C2613 0.930 . S
H2598 C2614 0.931 . S
C2599 H2587 0.929 . S
C2599 C2593 1.390 . S
C2599 C2596 1.386 . S
C2600 C2595 1.490 . S
C2600 C2602 1.395 . S
C2600 C2603 1.403 . S
H2601 C2607 0.930 . S
C2602 H2588 0.930 . S
C2602 C2600 1.395 . S
C2602 C2605 1.403 . S
C2603 C2600 1.403 . S
C2603 C2604 1.524 . S
C2603 C2607 1.400 . S
C2604 H2589 0.960 . S
C2604 H2590 0.960 . S
C2604 H2591 0.960 . S
C2604 C2603 1.524 . S
C2605 C2602 1.403 . S
C2605 C2606 1.392 . S
C2605 C2609 1.495 . S
C2606 C2605 1.392 . S
C2606 C2607 1.385 . S
C2606 C2608 1.478 . S
C2607 H2601 0.930 . S
C2607 C2603 1.400 . S
C2607 C2606 1.385 . S
C2608 C2606 1.478 . S
C2608 C2610 1.381 . S
C2608 C2614 1.383 . S
C2609 C2605 1.495 . S
C2609 H2615 0.959 . S
C2609 H2616 0.961 . S
C2609 H2617 0.960 . S
C2610 C2608 1.381 . S
C2610 C2611 1.394 . S
C2610 H2618 0.930 . S
C2611 C2610 1.394 . S
C2611 C2612 1.383 . S
C2611 H2619 0.929 . S
C2612 C2611 1.383 . S
C2612 C2613 1.377 . S
C2613 H2597 0.930 . S
C2613 C2612 1.377 . S
C2613 C2614 1.379 . S
C2614 H2598 0.931 . S
C2614 C2608 1.383 . S
C2614 C2613 1.379 . S
H2615 C2609 0.959 . S
H2616 C2609 0.961 . S
H2617 C2609 0.960 . S
H2618 C2610 0.930 . S
H2619 C2611 0.929 . S
H2620 C2628 0.929 . S
H2621 C2630 0.930 . S
H2622 C2632 0.930 . S
H2623 C2635 0.929 . S
H2624 C2638 0.930 . S
H2625 C2640 0.960 . S
H2626 C2640 0.960 . S
H2627 C2640 0.960 . S
C2628 H2620 0.929 . S
C2628 C2629 1.377 . S
C2628 C2630 1.384 . S
C2629 C2628 1.377 . S
C2629 C2635 1.390 . S
C2630 H2621 0.930 . S
C2630 C2628 1.384 . S
C2630 C2631 1.372 . S
C2631 C2630 1.372 . S
C2631 C2632 1.400 . S
C2631 C2636 1.490 . S
C2632 H2622 0.930 . S
C2632 C2631 1.400 . S
C2632 C2635 1.386 . S
H2633 C2649 0.930 . S
H2634 C2650 0.931 . S
C2635 H2623 0.929 . S
C2635 C2629 1.390 . S
C2635 C2632 1.386 . S
C2636 C2631 1.490 . S
C2636 C2638 1.395 . S
C2636 C2639 1.403 . S
H2637 C2643 0.930 . S
C2638 H2624 0.930 . S
C2638 C2636 1.395 . S
C2638 C2641 1.403 . S
C2639 C2636 1.403 . S
C2639 C2640 1.524 . S
C2639 C2643 1.400 . S
C2640 H2625 0.960 . S
C2640 H2626 0.960 . S
C2640 H2627 0.960 . S
C2640 C2639 1.524 . S
C2641 C2638 1.403 . S
C2641 C2642 1.392 . S
C2641 C2645 1.495 . S
C2642 C2641 1.392 . S
C2642 C2643 1.385 . S
C2642 C2644 1.478 . S
C2643 H2637 0.930 . S
C2643 C2639 1.400 . S
C2643 C2642 1.385 . S
C2644 C2642 1.478 . S
C2644 C2646 1.381 . S
C2644 C2650 1.383 . S
C2645 C2641 1.495 . S
C2645 H2651 0.959 . S
C2645 H2652 0.961 . S
C2645 H2653 0.960 . S
C2646 C2644 1.381 . S
C2646 C2647 1.394 . S
C2646 H2654 0.930 . S
C2647 C2646 1.394 . S
C2647 C2648 1.383 . S
C2647 H2655 0.929 . S
C2648 C2647 1.383 . S
C2648 C2649 1.377 . S
C2649 H2633 0.930 . S
C2649 C2648 1.377 . S
C2649 C2650 1.379 . S
C2650 H2634 0.931 . S
C2650 C2644 1.383 . S
C2650 C2649 1.379 . S
H2651 C2645 0.959 . S
H2652 C2645 0.961 . S
H2653 C2645 0.960 . S
H2654 C2646 0.930 . S
H2655 C2647 0.929 . S
H2656 C2664 0.929 . S
H2657 C2666 0.930 . S
H2658 C2668 0.930 . S
H2659 C2671 0.929 . S
H2660 C2674 0.930 . S
H2661 C2676 0.960 . S
H2662 C2676 0.960 . S
H2663 C2676 0.960 . S
C2664 H2656 0.929 . S
C2664 C2665 1.377 . S
C2664 C2666 1.384 . S
C2665 C2664 1.377 . S
C2665 C2671 1.390 . S
C2666 H2657 0.930 . S
C2666 C2664 1.384 . S
C2666 C2667 1.372 . S
C2667 C2666 1.372 . S
C2667 C2668 1.400 . S
C2667 C2672 1.490 . S
C2668 H2658 0.930 . S
C2668 C2667 1.400 . S
C2668 C2671 1.386 . S
H2669 C2685 0.930 1_565 S
H2670 C2686 0.905 1_565 S
C2671 H2659 0.929 . S
C2671 C2665 1.390 . S
C2671 C2668 1.386 . S
C2672 C2667 1.490 . S
C2672 C2674 1.395 . S
C2672 C2675 1.403 . S
H2673 C2679 0.930 . S
C2674 H2660 0.930 . S
C2674 C2672 1.395 . S
C2674 C2677 1.403 . S
C2675 C2672 1.403 . S
C2675 C2676 1.524 . S
C2675 C2679 1.400 . S
C2676 H2661 0.960 . S
C2676 H2662 0.960 . S
C2676 H2663 0.960 . S
C2676 C2675 1.524 . S
C2677 C2674 1.403 . S
C2677 C2678 1.392 . S
C2677 C2681 1.495 1_545 S
C2678 C2677 1.392 . S
C2678 C2679 1.385 . S
C2678 C2680 1.478 . S
C2679 H2673 0.930 . S
C2679 C2675 1.400 . S
C2679 C2678 1.385 . S
C2680 C2678 1.478 . S
C2680 C2682 1.381 . S
C2680 C2686 1.383 . S
C2681 C2677 1.495 1_565 S
C2681 H2687 0.959 . S
C2681 H2688 0.961 . S
C2681 H2689 0.960 . S
C2682 C2680 1.381 . S
C2682 C2683 1.394 . S
C2682 H2690 0.930 . S
C2683 C2682 1.394 . S
C2683 C2684 1.383 . S
C2683 H2691 0.929 . S
C2684 C2683 1.383 . S
C2684 C2685 1.377 . S
C2685 H2669 0.930 1_545 S
C2685 C2684 1.377 . S
C2685 C2686 1.379 . S
C2686 H2670 0.905 1_545 S
C2686 C2680 1.383 . S
C2686 C2685 1.379 . S
H2687 C2681 0.959 . S
H2688 C2681 0.961 . S
H2689 C2681 0.960 . S
H2690 C2682 0.930 . S
H2691 C2683 0.929 . S
H2692 C2700 0.929 . S
H2693 C2702 0.930 . S
H2694 C2704 0.930 . S
H2695 C2707 0.929 . S
H2696 C2710 0.930 . S
H2697 C2712 0.960 . S
H2698 C2712 0.960 . S
H2699 C2712 0.960 . S
C2700 H2692 0.929 . S
C2700 C2701 1.377 . S
C2700 C2702 1.384 . S
C2701 C2700 1.377 . S
C2701 C2707 1.390 . S
C2702 H2693 0.930 . S
C2702 C2700 1.384 . S
C2702 C2703 1.372 . S
C2703 C2702 1.372 . S
C2703 C2704 1.400 . S
C2703 C2708 1.490 . S
C2704 H2694 0.930 . S
C2704 C2703 1.400 . S
C2704 C2707 1.386 . S
H2705 C2721 0.930 . S
H2706 C2722 0.931 . S
C2707 H2695 0.929 . S
C2707 C2701 1.390 . S
C2707 C2704 1.386 . S
C2708 C2703 1.490 . S
C2708 C2710 1.395 . S
C2708 C2711 1.403 . S
H2709 C2715 0.930 . S
C2710 H2696 0.930 . S
C2710 C2708 1.395 . S
C2710 C2713 1.403 . S
C2711 C2708 1.403 . S
C2711 C2712 1.524 . S
C2711 C2715 1.400 . S
C2712 H2697 0.960 . S
C2712 H2698 0.960 . S
C2712 H2699 0.960 . S
C2712 C2711 1.524 . S
C2713 C2710 1.403 . S
C2713 C2714 1.392 . S
C2713 C2717 1.495 . S
C2714 C2713 1.392 . S
C2714 C2715 1.385 . S
C2714 C2716 1.478 . S
C2715 H2709 0.930 . S
C2715 C2711 1.400 . S
C2715 C2714 1.385 . S
C2716 C2714 1.478 . S
C2716 C2718 1.381 . S
C2716 C2722 1.383 . S
C2717 C2713 1.495 . S
C2717 H2723 0.959 . S
C2717 H2724 0.961 . S
C2717 H2725 0.960 . S
C2718 C2716 1.381 . S
C2718 C2719 1.394 . S
C2718 H2726 0.930 . S
C2719 C2718 1.394 . S
C2719 C2720 1.383 . S
C2719 H2727 0.929 . S
C2720 C2719 1.383 . S
C2720 C2721 1.377 . S
C2721 H2705 0.930 . S
C2721 C2720 1.377 . S
C2721 C2722 1.379 . S
C2722 H2706 0.931 . S
C2722 C2716 1.383 . S
C2722 C2721 1.379 . S
H2723 C2717 0.959 . S
H2724 C2717 0.961 . S
H2725 C2717 0.960 . S
H2726 C2718 0.930 . S
H2727 C2719 0.929 . S
H2728 C2736 0.929 . S
H2729 C2738 0.930 . S
H2730 C2740 0.930 . S
H2731 C2743 0.929 . S
H2732 C2746 0.930 . S
H2733 C2748 0.960 . S
H2734 C2748 0.960 . S
H2735 C2748 0.960 . S
C2736 H2728 0.929 . S
C2736 C2737 1.377 . S
C2736 C2738 1.384 . S
C2737 C2736 1.377 . S
C2737 C2743 1.390 . S
C2738 H2729 0.930 . S
C2738 C2736 1.384 . S
C2738 C2739 1.372 . S
C2739 C2738 1.372 . S
C2739 C2740 1.400 . S
C2739 C2744 1.490 . S
C2740 H2730 0.930 . S
C2740 C2739 1.400 . S
C2740 C2743 1.386 . S
H2741 C2757 0.930 . S
H2742 C2758 0.931 . S
C2743 H2731 0.929 . S
C2743 C2737 1.390 . S
C2743 C2740 1.386 . S
C2744 C2739 1.490 . S
C2744 C2746 1.395 . S
C2744 C2747 1.403 . S
H2745 C2751 0.930 . S
C2746 H2732 0.930 . S
C2746 C2744 1.395 . S
C2746 C2749 1.403 . S
C2747 C2744 1.403 . S
C2747 C2748 1.524 . S
C2747 C2751 1.400 . S
C2748 H2733 0.960 . S
C2748 H2734 0.960 . S
C2748 H2735 0.960 . S
C2748 C2747 1.524 . S
C2749 C2746 1.403 . S
C2749 C2750 1.392 . S
C2749 C2753 1.495 . S
C2750 C2749 1.392 . S
C2750 C2751 1.385 . S
C2750 C2752 1.478 . S
C2751 H2745 0.930 . S
C2751 C2747 1.400 . S
C2751 C2750 1.385 . S
C2752 C2750 1.478 . S
C2752 C2754 1.381 . S
C2752 C2758 1.383 . S
C2753 C2749 1.495 . S
C2753 H2759 0.959 . S
C2753 H2760 0.961 . S
C2753 H2761 0.960 . S
C2754 C2752 1.381 . S
C2754 C2755 1.394 . S
C2754 H2762 0.930 . S
C2755 C2754 1.394 . S
C2755 C2756 1.383 . S
C2755 H2763 0.929 . S
C2756 C2755 1.383 . S
C2756 C2757 1.377 . S
C2757 H2741 0.930 . S
C2757 C2756 1.377 . S
C2757 C2758 1.379 . S
C2758 H2742 0.931 . S
C2758 C2752 1.383 . S
C2758 C2757 1.379 . S
H2759 C2753 0.959 . S
H2760 C2753 0.961 . S
H2761 C2753 0.960 . S
H2762 C2754 0.930 . S
H2763 C2755 0.929 . S
H2764 C2772 0.929 . S
H2765 C2774 0.930 . S
H2766 C2776 0.930 . S
H2767 C2779 0.929 . S
H2768 C2782 0.930 . S
H2769 C2784 0.960 . S
H2770 C2784 0.960 . S
H2771 C2784 0.960 . S
C2772 H2764 0.929 . S
C2772 C2773 1.377 . S
C2772 C2774 1.384 . S
C2773 C2772 1.377 . S
C2773 C2779 1.390 . S
C2774 H2765 0.930 . S
C2774 C2772 1.384 . S
C2774 C2775 1.372 . S
C2775 C2774 1.372 . S
C2775 C2776 1.400 . S
C2775 C2780 1.490 . S
C2776 H2766 0.930 . S
C2776 C2775 1.400 . S
C2776 C2779 1.386 . S
H2777 C2793 0.930 . S
H2778 C2794 0.931 . S
C2779 H2767 0.929 . S
C2779 C2773 1.390 . S
C2779 C2776 1.386 . S
C2780 C2775 1.490 . S
C2780 C2782 1.395 . S
C2780 C2783 1.403 . S
H2781 C2787 0.930 . S
C2782 H2768 0.930 . S
C2782 C2780 1.395 . S
C2782 C2785 1.403 . S
C2783 C2780 1.403 . S
C2783 C2784 1.524 . S
C2783 C2787 1.400 . S
C2784 H2769 0.960 . S
C2784 H2770 0.960 . S
C2784 H2771 0.960 . S
C2784 C2783 1.524 . S
C2785 C2782 1.403 . S
C2785 C2786 1.392 . S
C2785 C2789 1.495 . S
C2786 C2785 1.392 . S
C2786 C2787 1.385 . S
C2786 C2788 1.478 . S
C2787 H2781 0.930 . S
C2787 C2783 1.400 . S
C2787 C2786 1.385 . S
C2788 C2786 1.478 . S
C2788 C2790 1.381 . S
C2788 C2794 1.383 . S
C2789 C2785 1.495 . S
C2789 H2795 0.959 . S
C2789 H2796 0.961 . S
C2789 H2797 0.960 . S
C2790 C2788 1.381 . S
C2790 C2791 1.394 . S
C2790 H2798 0.930 . S
C2791 C2790 1.394 . S
C2791 C2792 1.383 . S
C2791 H2799 0.929 . S
C2792 C2791 1.383 . S
C2792 C2793 1.377 . S
C2793 H2777 0.930 . S
C2793 C2792 1.377 . S
C2793 C2794 1.379 . S
C2794 H2778 0.931 . S
C2794 C2788 1.383 . S
C2794 C2793 1.379 . S
H2795 C2789 0.959 . S
H2796 C2789 0.961 . S
H2797 C2789 0.960 . S
H2798 C2790 0.930 . S
H2799 C2791 0.929 . S
H2800 C2808 0.929 . S
H2801 C2810 0.930 . S
H2802 C2812 0.930 . S
H2803 C2815 0.929 . S
H2804 C2818 0.930 . S
H2805 C2820 0.960 . S
H2806 C2820 0.960 . S
H2807 C2820 0.960 . S
C2808 H2800 0.929 . S
C2808 C2809 1.377 . S
C2808 C2810 1.384 . S
C2809 C2808 1.377 . S
C2809 C2815 1.390 . S
C2810 H2801 0.930 . S
C2810 C2808 1.384 . S
C2810 C2811 1.372 . S
C2811 C2810 1.372 . S
C2811 C2812 1.400 . S
C2811 C2816 1.490 . S
C2812 H2802 0.930 . S
C2812 C2811 1.400 . S
C2812 C2815 1.386 . S
H2813 C2829 0.930 . S
H2814 C2830 0.931 . S
C2815 H2803 0.929 . S
C2815 C2809 1.390 . S
C2815 C2812 1.386 . S
C2816 C2811 1.490 . S
C2816 C2818 1.395 . S
C2816 C2819 1.403 . S
H2817 C2823 0.930 . S
C2818 H2804 0.930 . S
C2818 C2816 1.395 . S
C2818 C2821 1.403 . S
C2819 C2816 1.403 . S
C2819 C2820 1.524 . S
C2819 C2823 1.400 . S
C2820 H2805 0.960 . S
C2820 H2806 0.960 . S
C2820 H2807 0.960 . S
C2820 C2819 1.524 . S
C2821 C2818 1.403 . S
C2821 C2822 1.392 . S
C2821 C2825 1.495 . S
C2822 C2821 1.392 . S
C2822 C2823 1.385 . S
C2822 C2824 1.478 . S
C2823 H2817 0.930 . S
C2823 C2819 1.400 . S
C2823 C2822 1.385 . S
C2824 C2822 1.478 . S
C2824 C2826 1.381 . S
C2824 C2830 1.383 . S
C2825 C2821 1.495 . S
C2825 H2831 0.959 1_545 S
C2825 H2832 0.961 1_545 S
C2825 H2833 0.960 . S
C2826 C2824 1.381 . S
C2826 C2827 1.394 . S
C2826 H2834 0.930 . S
C2827 C2826 1.394 . S
C2827 C2828 1.383 . S
C2827 H2835 0.929 . S
C2828 C2827 1.383 . S
C2828 C2829 1.377 . S
C2829 H2813 0.930 . S
C2829 C2828 1.377 . S
C2829 C2830 1.379 . S
C2830 H2814 0.931 . S
C2830 C2824 1.383 . S
C2830 C2829 1.379 . S
H2831 C2825 0.959 1_565 S
H2832 C2825 0.961 1_565 S
H2833 C2825 0.960 . S
H2834 C2826 0.930 . S
H2835 C2827 0.929 . S
H2836 C2844 0.929 . S
H2837 C2846 0.930 . S
H2838 C2848 0.930 . S
H2839 C2851 0.929 . S
H2840 C2854 0.930 . S
H2841 C2856 0.960 . S
H2842 C2856 0.960 . S
H2843 C2856 0.960 . S
C2844 H2836 0.929 . S
C2844 C2845 1.377 . S
C2844 C2846 1.384 . S
C2845 C2844 1.377 . S
C2845 C2851 1.390 . S
C2846 H2837 0.930 . S
C2846 C2844 1.384 . S
C2846 C2847 1.372 . S
C2847 C2846 1.372 . S
C2847 C2848 1.400 . S
C2847 C2852 1.490 . S
C2848 H2838 0.930 . S
C2848 C2847 1.400 . S
C2848 C2851 1.386 . S
H2849 C2865 0.930 . S
H2850 C2866 0.931 . S
C2851 H2839 0.929 . S
C2851 C2845 1.390 . S
C2851 C2848 1.386 . S
C2852 C2847 1.490 . S
C2852 C2854 1.395 . S
C2852 C2855 1.403 . S
H2853 C2859 0.930 . S
C2854 H2840 0.930 . S
C2854 C2852 1.395 . S
C2854 C2857 1.403 . S
C2855 C2852 1.403 . S
C2855 C2856 1.524 . S
C2855 C2859 1.400 . S
C2856 H2841 0.960 . S
C2856 H2842 0.960 . S
C2856 H2843 0.960 . S
C2856 C2855 1.524 . S
C2857 C2854 1.403 . S
C2857 C2858 1.392 . S
C2857 C2861 1.495 . S
C2858 C2857 1.392 . S
C2858 C2859 1.385 . S
C2858 C2860 1.478 . S
C2859 H2853 0.930 . S
C2859 C2855 1.400 . S
C2859 C2858 1.385 . S
C2860 C2858 1.478 . S
C2860 C2862 1.381 . S
C2860 C2866 1.383 . S
C2861 C2857 1.495 . S
C2861 H2867 0.959 . S
C2861 H2868 0.961 . S
C2861 H2869 0.960 . S
C2862 C2860 1.381 . S
C2862 C2863 1.394 . S
C2862 H2870 0.930 . S
C2863 C2862 1.394 . S
C2863 C2864 1.383 . S
C2863 H2871 0.929 . S
C2864 C2863 1.383 . S
C2864 C2865 1.377 . S
C2865 H2849 0.930 . S
C2865 C2864 1.377 . S
C2865 C2866 1.379 . S
C2866 H2850 0.931 . S
C2866 C2860 1.383 . S
C2866 C2865 1.379 . S
H2867 C2861 0.959 . S
H2868 C2861 0.961 . S
H2869 C2861 0.960 . S
H2870 C2862 0.930 . S
H2871 C2863 0.929 . S
H2872 C2880 0.929 . S
H2873 C2882 0.930 . S
H2874 C2884 0.930 . S
H2875 C2887 0.929 . S
H2876 C2890 0.930 . S
H2877 C2892 0.960 . S
H2878 C2892 0.960 . S
H2879 C2892 0.960 . S
C2880 H2872 0.929 . S
C2880 C2881 1.377 . S
C2880 C2882 1.384 . S
C2881 C2880 1.377 . S
C2881 C2887 1.390 . S
C2882 H2873 0.930 . S
C2882 C2880 1.384 . S
C2882 C2883 1.372 . S
C2883 C2882 1.372 . S
C2883 C2884 1.400 . S
C2883 C2888 1.490 . S
C2884 H2874 0.930 . S
C2884 C2883 1.400 . S
C2884 C2887 1.386 . S
H2885 C2901 0.930 1_565 S
H2886 C2902 0.949 . S
C2887 H2875 0.929 . S
C2887 C2881 1.390 . S
C2887 C2884 1.386 . S
C2888 C2883 1.490 . S
C2888 C2890 1.395 . S
C2888 C2891 1.403 . S
H2889 C2895 0.930 . S
C2890 H2876 0.930 . S
C2890 C2888 1.395 . S
C2890 C2893 1.403 . S
C2891 C2888 1.403 . S
C2891 C2892 1.524 . S
C2891 C2895 1.400 . S
C2892 H2877 0.960 . S
C2892 H2878 0.960 . S
C2892 H2879 0.960 . S
C2892 C2891 1.524 . S
C2893 C2890 1.403 . S
C2893 C2894 1.392 . S
C2893 C2897 1.495 . S
C2894 C2893 1.392 . S
C2894 C2895 1.385 . S
C2894 C2896 1.478 . S
C2895 H2889 0.930 . S
C2895 C2891 1.400 . S
C2895 C2894 1.385 . S
C2896 C2894 1.478 . S
C2896 C2898 1.381 . S
C2896 C2902 1.383 . S
C2897 C2893 1.495 . S
C2897 H2903 0.959 . S
C2897 H2904 0.961 . S
C2897 H2905 0.960 . S
C2898 C2896 1.381 . S
C2898 C2899 1.394 . S
C2898 H2906 0.930 . S
C2899 C2898 1.394 . S
C2899 C2900 1.383 . S
C2899 H2907 0.929 . S
C2900 C2899 1.383 . S
C2900 C2901 1.377 . S
C2901 H2885 0.930 1_545 S
C2901 C2900 1.377 . S
C2901 C2902 1.379 . S
C2902 H2886 0.949 . S
C2902 C2896 1.383 . S
C2902 C2901 1.379 . S
H2903 C2897 0.959 . S
H2904 C2897 0.961 . S
H2905 C2897 0.960 . S
H2906 C2898 0.930 . S
H2907 C2899 0.929 . S
H2908 C2916 0.929 . S
H2909 C2918 0.930 . S
H2910 C2920 0.930 . S
H2911 C2923 0.929 . S
H2912 C2926 0.930 . S
H2913 C2928 0.960 . S
H2914 C2928 0.960 . S
H2915 C2928 0.960 . S
C2916 H2908 0.929 . S
C2916 C2917 1.377 . S
C2916 C2918 1.384 . S
C2917 C2916 1.377 . S
C2917 C2923 1.390 . S
C2918 H2909 0.930 . S
C2918 C2916 1.384 . S
C2918 C2919 1.372 . S
C2919 C2918 1.372 . S
C2919 C2920 1.400 . S
C2919 C2924 1.490 . S
C2920 H2910 0.930 . S
C2920 C2919 1.400 . S
C2920 C2923 1.386 . S
H2921 C2937 0.930 . S
H2922 C2938 0.931 . S
C2923 H2911 0.929 . S
C2923 C2917 1.390 . S
C2923 C2920 1.386 . S
C2924 C2919 1.490 . S
C2924 C2926 1.395 . S
C2924 C2927 1.403 . S
H2925 C2931 0.930 . S
C2926 H2912 0.930 . S
C2926 C2924 1.395 . S
C2926 C2929 1.403 . S
C2927 C2924 1.403 . S
C2927 C2928 1.524 . S
C2927 C2931 1.400 . S
C2928 H2913 0.960 . S
C2928 H2914 0.960 . S
C2928 H2915 0.960 . S
C2928 C2927 1.524 . S
C2929 C2926 1.403 . S
C2929 C2930 1.392 . S
C2929 C2933 1.495 . S
C2930 C2929 1.392 . S
C2930 C2931 1.385 . S
C2930 C2932 1.478 . S
C2931 H2925 0.930 . S
C2931 C2927 1.400 . S
C2931 C2930 1.385 . S
C2932 C2930 1.478 . S
C2932 C2934 1.381 . S
C2932 C2938 1.383 . S
C2933 C2929 1.495 . S
C2933 H2939 0.959 . S
C2933 H2940 0.961 . S
C2933 H2941 0.960 . S
C2934 C2932 1.381 . S
C2934 C2935 1.394 . S
C2934 H2942 0.930 . S
C2935 C2934 1.394 . S
C2935 C2936 1.383 . S
C2935 H2943 0.929 . S
C2936 C2935 1.383 . S
C2936 C2937 1.377 . S
C2937 H2921 0.930 . S
C2937 C2936 1.377 . S
C2937 C2938 1.379 . S
C2938 H2922 0.931 . S
C2938 C2932 1.383 . S
C2938 C2937 1.379 . S
H2939 C2933 0.959 . S
H2940 C2933 0.961 . S
H2941 C2933 0.960 . S
H2942 C2934 0.930 . S
H2943 C2935 0.929 . S
H2944 C2952 0.929 . S
H2945 C2954 0.930 . S
H2946 C2956 0.930 . S
H2947 C2959 0.929 . S
H2948 C2962 0.930 . S
H2949 C2964 0.960 1_556 S
H2950 C2964 0.960 1_556 S
H2951 C2964 0.960 . S
C2952 H2944 0.929 . S
C2952 C2953 1.377 . S
C2952 C2954 1.384 . S
C2953 C2952 1.377 . S
C2953 C2959 1.390 . S
C2954 H2945 0.930 . S
C2954 C2952 1.384 . S
C2954 C2955 1.372 . S
C2955 C2954 1.372 . S
C2955 C2956 1.400 . S
C2955 C2960 1.490 . S
C2956 H2946 0.930 . S
C2956 C2955 1.400 . S
C2956 C2959 1.386 . S
H2957 C2973 0.930 . S
H2958 C2974 0.931 . S
C2959 H2947 0.929 . S
C2959 C2953 1.390 . S
C2959 C2956 1.386 . S
C2960 C2955 1.490 . S
C2960 C2962 1.395 . S
C2960 C2963 1.403 . S
H2961 C2967 0.930 . S
C2962 H2948 0.930 . S
C2962 C2960 1.395 . S
C2962 C2965 1.403 . S
C2963 C2960 1.403 . S
C2963 C2964 1.524 . S
C2963 C2967 1.400 . S
C2964 H2949 0.960 1_554 S
C2964 H2950 0.960 1_554 S
C2964 H2951 0.960 . S
C2964 C2963 1.524 . S
C2965 C2962 1.403 . S
C2965 C2966 1.392 . S
C2965 C2969 1.495 . S
C2966 C2965 1.392 . S
C2966 C2967 1.385 . S
C2966 C2968 1.478 . S
C2967 H2961 0.930 . S
C2967 C2963 1.400 . S
C2967 C2966 1.385 . S
C2968 C2966 1.478 . S
C2968 C2970 1.376 1_554 S
C2968 C2974 1.383 . S
C2969 C2965 1.495 . S
C2969 H2975 0.959 . S
C2969 H2976 0.961 . S
C2969 H2977 0.960 . S
C2970 C2968 1.376 1_556 S
C2970 C2971 1.397 . S
C2970 H2978 0.932 . S
C2971 C2970 1.397 . S
C2971 C2972 1.383 . S
C2971 H2979 0.929 . S
C2972 C2971 1.383 . S
C2972 C2973 1.377 1_556 S
C2973 H2957 0.930 . S
C2973 C2972 1.377 1_554 S
C2973 C2974 1.379 . S
C2974 H2958 0.931 . S
C2974 C2968 1.383 . S
C2974 C2973 1.379 . S
H2975 C2969 0.959 . S
H2976 C2969 0.961 . S
H2977 C2969 0.960 . S
H2978 C2970 0.932 . S
H2979 C2971 0.929 . S
H2980 C2988 0.929 . S
H2981 C2990 0.930 . S
H2982 C2992 0.930 . S
H2983 C2995 0.929 . S
H2984 C2998 0.930 . S
H2985 C3000 0.960 . S
H2986 C3000 0.960 . S
H2987 C3000 0.960 . S
C2988 H2980 0.929 . S
C2988 C2989 1.377 . S
C2988 C2990 1.384 . S
C2989 C2988 1.377 . S
C2989 C2995 1.390 . S
C2990 H2981 0.930 . S
C2990 C2988 1.384 . S
C2990 C2991 1.372 . S
C2991 C2990 1.372 . S
C2991 C2992 1.400 . S
C2991 C2996 1.490 . S
C2992 H2982 0.930 . S
C2992 C2991 1.400 . S
C2992 C2995 1.386 . S
H2993 C3009 0.930 . S
H2994 C3010 0.931 . S
C2995 H2983 0.929 . S
C2995 C2989 1.390 . S
C2995 C2992 1.386 . S
C2996 C2991 1.490 . S
C2996 C2998 1.395 . S
C2996 C2999 1.403 . S
H2997 C3003 0.930 . S
C2998 H2984 0.930 . S
C2998 C2996 1.395 . S
C2998 C3001 1.403 . S
C2999 C2996 1.403 . S
C2999 C3000 1.524 1_554 S
C2999 C3003 1.400 . S
C3000 H2985 0.960 . S
C3000 H2986 0.960 . S
C3000 H2987 0.960 . S
C3000 C2999 1.524 1_556 S
C3001 C2998 1.403 . S
C3001 C3002 1.392 . S
C3001 C3005 1.495 . S
C3002 C3001 1.392 . S
C3002 C3003 1.385 . S
C3002 C3004 1.478 . S
C3003 H2997 0.930 . S
C3003 C2999 1.400 . S
C3003 C3002 1.385 . S
C3004 C3002 1.478 . S
C3004 C3006 1.381 . S
C3004 C3010 1.383 . S
C3005 C3001 1.495 . S
C3005 H3011 0.959 . S
C3005 H3012 0.961 . S
C3005 H3013 0.960 . S
C3006 C3004 1.381 . S
C3006 C3007 1.394 . S
C3006 H3014 0.930 . S
C3007 C3006 1.394 . S
C3007 C3008 1.383 . S
C3007 H3015 0.929 . S
C3008 C3007 1.383 . S
C3008 C3009 1.377 . S
C3009 H2993 0.930 . S
C3009 C3008 1.377 . S
C3009 C3010 1.379 . S
C3010 H2994 0.931 . S
C3010 C3004 1.383 . S
C3010 C3009 1.379 . S
H3011 C3005 0.959 . S
H3012 C3005 0.961 . S
H3013 C3005 0.960 . S
H3014 C3006 0.930 . S
H3015 C3007 0.929 . S
H3016 C3024 0.929 . S
H3017 C3026 0.930 . S
H3018 C3028 0.930 . S
H3019 C3031 0.929 . S
H3020 C3034 0.930 . S
H3021 C3036 0.960 . S
H3022 C3036 0.960 . S
H3023 C3036 0.960 . S
C3024 H3016 0.929 . S
C3024 C3025 1.377 . S
C3024 C3026 1.384 . S
C3025 C3024 1.377 . S
C3025 C3031 1.390 . S
C3026 H3017 0.930 . S
C3026 C3024 1.384 . S
C3026 C3027 1.372 . S
C3027 C3026 1.372 . S
C3027 C3028 1.400 . S
C3027 C3032 1.490 . S
C3028 H3018 0.930 . S
C3028 C3027 1.400 . S
C3028 C3031 1.386 . S
H3029 C3045 0.930 . S
H3030 C3046 0.931 . S
C3031 H3019 0.929 . S
C3031 C3025 1.390 . S
C3031 C3028 1.386 . S
C3032 C3027 1.490 . S
C3032 C3034 1.395 . S
C3032 C3035 1.403 . S
H3033 C3039 0.930 . S
C3034 H3020 0.930 . S
C3034 C3032 1.395 . S
C3034 C3037 1.403 . S
C3035 C3032 1.403 . S
C3035 C3036 1.524 . S
C3035 C3039 1.400 . S
C3036 H3021 0.960 . S
C3036 H3022 0.960 . S
C3036 H3023 0.960 . S
C3036 C3035 1.524 . S
C3037 C3034 1.403 . S
C3037 C3038 1.392 . S
C3037 C3041 1.495 . S
C3038 C3037 1.392 . S
C3038 C3039 1.385 . S
C3038 C3040 1.478 . S
C3039 H3033 0.930 . S
C3039 C3035 1.400 . S
C3039 C3038 1.385 . S
C3040 C3038 1.478 . S
C3040 C3042 1.381 . S
C3040 C3046 1.383 . S
C3041 C3037 1.495 . S
C3041 H3047 0.959 . S
C3041 H3048 0.961 . S
C3041 H3049 0.960 . S
C3042 C3040 1.381 . S
C3042 C3043 1.394 . S
C3042 H3050 0.930 . S
C3043 C3042 1.394 . S
C3043 C3044 1.383 . S
C3043 H3051 0.929 . S
C3044 C3043 1.383 . S
C3044 C3045 1.377 . S
C3045 H3029 0.930 . S
C3045 C3044 1.377 . S
C3045 C3046 1.379 . S
C3046 H3030 0.931 . S
C3046 C3040 1.383 . S
C3046 C3045 1.379 . S
H3047 C3041 0.959 . S
H3048 C3041 0.961 . S
H3049 C3041 0.960 . S
H3050 C3042 0.930 . S
H3051 C3043 0.929 . S
H3052 C3060 0.929 . S
H3053 C3062 0.930 . S
H3054 C3064 0.930 . S
H3055 C3067 0.929 . S
H3056 C3070 0.930 . S
H3057 C3072 0.960 . S
H3058 C3072 0.960 . S
H3059 C3072 0.960 . S
C3060 H3052 0.929 . S
C3060 C3061 1.377 . S
C3060 C3062 1.384 . S
C3061 C3060 1.377 . S
C3061 C3067 1.390 . S
C3062 H3053 0.930 . S
C3062 C3060 1.384 . S
C3062 C3063 1.372 . S
C3063 C3062 1.372 . S
C3063 C3064 1.400 . S
C3063 C3068 1.490 . S
C3064 H3054 0.930 . S
C3064 C3063 1.400 . S
C3064 C3067 1.386 . S
H3065 C3081 0.930 . S
H3066 C3082 0.931 . S
C3067 H3055 0.929 . S
C3067 C3061 1.390 . S
C3067 C3064 1.386 . S
C3068 C3063 1.490 . S
C3068 C3070 1.395 . S
C3068 C3071 1.403 . S
H3069 C3075 0.930 . S
C3070 H3056 0.930 . S
C3070 C3068 1.395 . S
C3070 C3073 1.403 . S
C3071 C3068 1.403 . S
C3071 C3072 1.524 . S
C3071 C3075 1.400 . S
C3072 H3057 0.960 . S
C3072 H3058 0.960 . S
C3072 H3059 0.960 . S
C3072 C3071 1.524 . S
C3073 C3070 1.403 . S
C3073 C3074 1.392 . S
C3073 C3077 1.495 . S
C3074 C3073 1.392 . S
C3074 C3075 1.385 . S
C3074 C3076 1.478 . S
C3075 H3069 0.930 . S
C3075 C3071 1.400 . S
C3075 C3074 1.385 . S
C3076 C3074 1.478 . S
C3076 C3078 1.381 . S
C3076 C3082 1.383 . S
C3077 C3073 1.495 . S
C3077 H3083 0.959 . S
C3077 H3084 0.961 . S
C3077 H3085 0.960 . S
C3078 C3076 1.381 . S
C3078 C3079 1.394 . S
C3078 H3086 0.930 . S
C3079 C3078 1.394 . S
C3079 C3080 1.383 . S
C3079 H3087 0.929 . S
C3080 C3079 1.383 . S
C3080 C3081 1.377 . S
C3081 H3065 0.930 . S
C3081 C3080 1.377 . S
C3081 C3082 1.379 . S
C3082 H3066 0.931 . S
C3082 C3076 1.383 . S
C3082 C3081 1.379 . S
H3083 C3077 0.959 . S
H3084 C3077 0.961 . S
H3085 C3077 0.960 . S
H3086 C3078 0.930 . S
H3087 C3079 0.929 . S
H3088 C3096 0.929 . S
H3089 C3098 0.930 . S
H3090 C3100 0.930 . S
H3091 C3103 0.929 . S
H3092 C3106 0.930 . S
H3093 C3108 0.960 . S
H3094 C3108 0.960 . S
H3095 C3108 0.960 . S
C3096 H3088 0.929 . S
C3096 C3097 1.377 . S
C3096 C3098 1.384 . S
C3097 C3096 1.377 . S
C3097 C3103 1.390 . S
C3098 H3089 0.930 . S
C3098 C3096 1.384 . S
C3098 C3099 1.372 . S
C3099 C3098 1.372 . S
C3099 C3100 1.400 . S
C3099 C3104 1.490 . S
C3100 H3090 0.930 . S
C3100 C3099 1.400 . S
C3100 C3103 1.386 . S
H3101 C3117 0.930 . S
H3102 C3118 0.931 . S
C3103 H3091 0.929 . S
C3103 C3097 1.390 . S
C3103 C3100 1.386 . S
C3104 C3099 1.490 . S
C3104 C3106 1.395 . S
C3104 C3107 1.403 . S
H3105 C3111 0.930 . S
C3106 H3092 0.930 . S
C3106 C3104 1.395 . S
C3106 C3109 1.403 . S
C3107 C3104 1.403 . S
C3107 C3108 1.524 . S
C3107 C3111 1.400 . S
C3108 H3093 0.960 . S
C3108 H3094 0.960 . S
C3108 H3095 0.960 . S
C3108 C3107 1.524 . S
C3109 C3106 1.403 . S
C3109 C3110 1.392 . S
C3109 C3113 1.495 . S
C3110 C3109 1.392 . S
C3110 C3111 1.385 . S
C3110 C3112 1.478 . S
C3111 H3105 0.930 . S
C3111 C3107 1.400 . S
C3111 C3110 1.385 . S
C3112 C3110 1.478 . S
C3112 C3114 1.381 . S
C3112 C3118 1.383 . S
C3113 C3109 1.495 . S
C3113 H3119 0.959 . S
C3113 H3120 0.961 . S
C3113 H3121 0.960 . S
C3114 C3112 1.381 . S
C3114 C3115 1.394 . S
C3114 H3122 0.930 . S
C3115 C3114 1.394 . S
C3115 C3116 1.383 . S
C3115 H3123 0.929 . S
C3116 C3115 1.383 . S
C3116 C3117 1.377 . S
C3117 H3101 0.930 . S
C3117 C3116 1.377 . S
C3117 C3118 1.379 . S
C3118 H3102 0.931 . S
C3118 C3112 1.383 . S
C3118 C3117 1.379 . S
H3119 C3113 0.959 . S
H3120 C3113 0.961 . S
H3121 C3113 0.960 . S
H3122 C3114 0.930 . S
H3123 C3115 0.929 . S
H3124 C3132 0.929 . S
H3125 C3134 0.930 . S
H3126 C3136 0.930 . S
H3127 C3139 0.929 . S
H3128 C3142 0.930 . S
H3129 C3144 0.960 . S
H3130 C3144 0.960 . S
H3131 C3144 0.960 . S
C3132 H3124 0.929 . S
C3132 C3133 1.377 . S
C3132 C3134 1.384 . S
C3133 C3132 1.377 . S
C3133 C3139 1.390 . S
C3134 H3125 0.930 . S
C3134 C3132 1.384 . S
C3134 C3135 1.372 . S
C3135 C3134 1.372 . S
C3135 C3136 1.400 . S
C3135 C3140 1.490 . S
C3136 H3126 0.930 . S
C3136 C3135 1.400 . S
C3136 C3139 1.386 . S
H3137 C3153 0.930 . S
H3138 C3154 0.931 . S
C3139 H3127 0.929 . S
C3139 C3133 1.390 . S
C3139 C3136 1.386 . S
C3140 C3135 1.490 . S
C3140 C3142 1.395 . S
C3140 C3143 1.403 . S
H3141 C3147 0.930 . S
C3142 H3128 0.930 . S
C3142 C3140 1.395 . S
C3142 C3145 1.403 . S
C3143 C3140 1.403 . S
C3143 C3144 1.524 . S
C3143 C3147 1.400 . S
C3144 H3129 0.960 . S
C3144 H3130 0.960 . S
C3144 H3131 0.960 . S
C3144 C3143 1.524 . S
C3145 C3142 1.403 . S
C3145 C3146 1.392 . S
C3145 C3149 1.495 . S
C3146 C3145 1.392 . S
C3146 C3147 1.385 . S
C3146 C3148 1.478 . S
C3147 H3141 0.930 . S
C3147 C3143 1.400 . S
C3147 C3146 1.385 . S
C3148 C3146 1.478 . S
C3148 C3150 1.381 . S
C3148 C3154 1.383 . S
C3149 C3145 1.495 . S
C3149 H3155 0.959 . S
C3149 H3156 0.961 . S
C3149 H3157 0.960 . S
C3150 C3148 1.381 . S
C3150 C3151 1.394 . S
C3150 H3158 0.930 . S
C3151 C3150 1.394 . S
C3151 C3152 1.383 . S
C3151 H3159 0.929 . S
C3152 C3151 1.383 . S
C3152 C3153 1.377 . S
C3153 H3137 0.930 . S
C3153 C3152 1.377 . S
C3153 C3154 1.379 . S
C3154 H3138 0.931 . S
C3154 C3148 1.383 . S
C3154 C3153 1.379 . S
H3155 C3149 0.959 . S
H3156 C3149 0.961 . S
H3157 C3149 0.960 . S
H3158 C3150 0.930 . S
H3159 C3151 0.929 . S
H3160 C3168 0.929 . S
H3161 C3170 0.930 . S
H3162 C3172 0.930 . S
H3163 C3175 0.929 . S
H3164 C3178 0.930 . S
H3165 C3180 0.960 . S
H3166 C3180 0.960 . S
H3167 C3180 0.960 . S
C3168 H3160 0.929 . S
C3168 C3169 1.377 . S
C3168 C3170 1.384 . S
C3169 C3168 1.377 . S
C3169 C3175 1.390 . S
C3170 H3161 0.930 . S
C3170 C3168 1.384 . S
C3170 C3171 1.372 . S
C3171 C3170 1.372 . S
C3171 C3172 1.400 . S
C3171 C3176 1.490 . S
C3172 H3162 0.930 . S
C3172 C3171 1.400 . S
C3172 C3175 1.386 . S
H3173 C3189 0.930 . S
H3174 C3190 0.931 . S
C3175 H3163 0.929 . S
C3175 C3169 1.390 . S
C3175 C3172 1.386 . S
C3176 C3171 1.490 . S
C3176 C3178 1.395 . S
C3176 C3179 1.403 . S
H3177 C3183 0.930 . S
C3178 H3164 0.930 . S
C3178 C3176 1.395 . S
C3178 C3181 1.403 . S
C3179 C3176 1.403 . S
C3179 C3180 1.524 . S
C3179 C3183 1.400 . S
C3180 H3165 0.960 . S
C3180 H3166 0.960 . S
C3180 H3167 0.960 . S
C3180 C3179 1.524 . S
C3181 C3178 1.403 . S
C3181 C3182 1.392 . S
C3181 C3185 1.495 . S
C3182 C3181 1.392 . S
C3182 C3183 1.385 . S
C3182 C3184 1.478 . S
C3183 H3177 0.930 . S
C3183 C3179 1.400 . S
C3183 C3182 1.385 . S
C3184 C3182 1.478 . S
C3184 C3186 1.381 . S
C3184 C3190 1.383 . S
C3185 C3181 1.495 . S
C3185 H3191 0.959 . S
C3185 H3192 0.961 . S
C3185 H3193 0.960 . S
C3186 C3184 1.381 . S
C3186 C3187 1.394 . S
C3186 H3194 0.930 . S
C3187 C3186 1.394 . S
C3187 C3188 1.383 . S
C3187 H3195 0.929 . S
C3188 C3187 1.383 . S
C3188 C3189 1.377 . S
C3189 H3173 0.930 . S
C3189 C3188 1.377 . S
C3189 C3190 1.379 . S
C3190 H3174 0.931 . S
C3190 C3184 1.383 . S
C3190 C3189 1.379 . S
H3191 C3185 0.959 . S
H3192 C3185 0.961 . S
H3193 C3185 0.960 . S
H3194 C3186 0.930 . S
H3195 C3187 0.929 . S
H3196 C3204 0.929 . S
H3197 C3206 0.930 . S
H3198 C3208 0.930 . S
H3199 C3211 0.929 . S
H3200 C3214 0.930 . S
H3201 C3216 0.960 . S
H3202 C3216 0.960 . S
H3203 C3216 0.960 . S
C3204 H3196 0.929 . S
C3204 C3205 1.377 . S
C3204 C3206 1.384 . S
C3205 C3204 1.377 . S
C3205 C3211 1.390 . S
C3206 H3197 0.930 . S
C3206 C3204 1.384 . S
C3206 C3207 1.372 . S
C3207 C3206 1.372 . S
C3207 C3208 1.400 . S
C3207 C3212 1.490 . S
C3208 H3198 0.930 . S
C3208 C3207 1.400 . S
C3208 C3211 1.386 . S
H3209 C3225 0.930 . S
H3210 C3226 0.931 . S
C3211 H3199 0.929 . S
C3211 C3205 1.390 . S
C3211 C3208 1.386 . S
C3212 C3207 1.490 . S
C3212 C3214 1.395 . S
C3212 C3215 1.403 . S
H3213 C3219 0.930 . S
C3214 H3200 0.930 . S
C3214 C3212 1.395 . S
C3214 C3217 1.403 . S
C3215 C3212 1.403 . S
C3215 C3216 1.524 . S
C3215 C3219 1.400 . S
C3216 H3201 0.960 . S
C3216 H3202 0.960 . S
C3216 H3203 0.960 . S
C3216 C3215 1.524 . S
C3217 C3214 1.403 . S
C3217 C3218 1.392 . S
C3217 C3221 1.495 . S
C3218 C3217 1.392 . S
C3218 C3219 1.385 . S
C3218 C3220 1.478 . S
C3219 H3213 0.930 . S
C3219 C3215 1.400 . S
C3219 C3218 1.385 . S
C3220 C3218 1.478 . S
C3220 C3222 1.381 . S
C3220 C3226 1.383 . S
C3221 C3217 1.495 . S
C3221 H3227 0.959 . S
C3221 H3228 0.961 . S
C3221 H3229 0.960 . S
C3222 C3220 1.381 . S
C3222 C3223 1.394 . S
C3222 H3230 0.930 . S
C3223 C3222 1.394 . S
C3223 C3224 1.383 . S
C3223 H3231 0.929 . S
C3224 C3223 1.383 . S
C3224 C3225 1.377 . S
C3225 H3209 0.930 . S
C3225 C3224 1.377 . S
C3225 C3226 1.379 . S
C3226 H3210 0.931 . S
C3226 C3220 1.383 . S
C3226 C3225 1.379 . S
H3227 C3221 0.959 . S
H3228 C3221 0.961 . S
H3229 C3221 0.960 . S
H3230 C3222 0.930 . S
H3231 C3223 0.929 . S
H3232 C3240 0.929 . S
H3233 C3242 0.930 . S
H3234 C3244 0.930 . S
H3235 C3247 0.929 . S
H3236 C3250 0.930 . S
H3237 C3252 0.960 . S
H3238 C3252 0.960 . S
H3239 C3252 0.960 . S
C3240 H3232 0.929 . S
C3240 C3241 1.377 . S
C3240 C3242 1.384 . S
C3241 C3240 1.377 . S
C3241 C3247 1.390 . S
C3242 H3233 0.930 . S
C3242 C3240 1.384 . S
C3242 C3243 1.372 . S
C3243 C3242 1.372 . S
C3243 C3244 1.400 . S
C3243 C3248 1.490 . S
C3244 H3234 0.930 . S
C3244 C3243 1.400 . S
C3244 C3247 1.386 . S
H3245 C3261 0.930 . S
H3246 C3262 0.931 . S
C3247 H3235 0.929 . S
C3247 C3241 1.390 . S
C3247 C3244 1.386 . S
C3248 C3243 1.490 . S
C3248 C3250 1.395 . S
C3248 C3251 1.403 . S
H3249 C3255 0.930 . S
C3250 H3236 0.930 . S
C3250 C3248 1.395 . S
C3250 C3253 1.403 . S
C3251 C3248 1.403 . S
C3251 C3252 1.524 . S
C3251 C3255 1.400 . S
C3252 H3237 0.960 . S
C3252 H3238 0.960 . S
C3252 H3239 0.960 . S
C3252 C3251 1.524 . S
C3253 C3250 1.403 . S
C3253 C3254 1.392 . S
C3253 C3257 1.495 . S
C3254 C3253 1.392 . S
C3254 C3255 1.385 . S
C3254 C3256 1.478 . S
C3255 H3249 0.930 . S
C3255 C3251 1.400 . S
C3255 C3254 1.385 . S
C3256 C3254 1.478 . S
C3256 C3258 1.381 . S
C3256 C3262 1.383 . S
C3257 C3253 1.495 . S
C3257 H3263 0.959 . S
C3257 H3264 0.961 . S
C3257 H3265 0.960 . S
C3258 C3256 1.381 . S
C3258 C3259 1.394 . S
C3258 H3266 0.930 . S
C3259 C3258 1.394 . S
C3259 C3260 1.383 . S
C3259 H3267 0.929 . S
C3260 C3259 1.383 . S
C3260 C3261 1.377 . S
C3261 H3245 0.930 . S
C3261 C3260 1.377 . S
C3261 C3262 1.379 . S
C3262 H3246 0.931 . S
C3262 C3256 1.383 . S
C3262 C3261 1.379 . S
H3263 C3257 0.959 . S
H3264 C3257 0.961 . S
H3265 C3257 0.960 . S
H3266 C3258 0.930 . S
H3267 C3259 0.929 . S
H3268 C3276 0.929 . S
H3269 C3278 0.930 . S
H3270 C3280 0.930 . S
H3271 C3283 0.929 . S
H3272 C3286 0.930 . S
H3273 C3288 0.960 . S
H3274 C3288 0.960 . S
H3275 C3288 0.960 . S
C3276 H3268 0.929 . S
C3276 C3277 1.377 . S
C3276 C3278 1.384 . S
C3277 C3276 1.377 . S
C3277 C3283 1.390 . S
C3278 H3269 0.930 . S
C3278 C3276 1.384 . S
C3278 C3279 1.372 . S
C3279 C3278 1.372 . S
C3279 C3280 1.400 . S
C3279 C3284 1.490 . S
C3280 H3270 0.930 . S
C3280 C3279 1.400 . S
C3280 C3283 1.386 . S
H3281 C3297 0.930 . S
H3282 C3298 0.931 . S
C3283 H3271 0.929 . S
C3283 C3277 1.390 . S
C3283 C3280 1.386 . S
C3284 C3279 1.490 . S
C3284 C3286 1.395 . S
C3284 C3287 1.403 . S
H3285 C3291 0.930 . S
C3286 H3272 0.930 . S
C3286 C3284 1.395 . S
C3286 C3289 1.403 . S
C3287 C3284 1.403 . S
C3287 C3288 1.524 . S
C3287 C3291 1.400 . S
C3288 H3273 0.960 . S
C3288 H3274 0.960 . S
C3288 H3275 0.960 . S
C3288 C3287 1.524 . S
C3289 C3286 1.403 . S
C3289 C3290 1.392 . S
C3289 C3293 1.495 . S
C3290 C3289 1.392 . S
C3290 C3291 1.385 . S
C3290 C3292 1.478 . S
C3291 H3285 0.930 . S
C3291 C3287 1.400 . S
C3291 C3290 1.385 . S
C3292 C3290 1.478 . S
C3292 C3294 1.381 . S
C3292 C3298 1.383 . S
C3293 C3289 1.495 . S
C3293 H3299 0.959 . S
C3293 H3300 0.961 . S
C3293 H3301 0.960 . S
C3294 C3292 1.381 . S
C3294 C3295 1.394 . S
C3294 H3302 0.930 . S
C3295 C3294 1.394 . S
C3295 C3296 1.383 . S
C3295 H3303 0.929 . S
C3296 C3295 1.383 . S
C3296 C3297 1.377 . S
C3297 H3281 0.930 . S
C3297 C3296 1.377 . S
C3297 C3298 1.379 . S
C3298 H3282 0.931 . S
C3298 C3292 1.383 . S
C3298 C3297 1.379 . S
H3299 C3293 0.959 . S
H3300 C3293 0.961 . S
H3301 C3293 0.960 . S
H3302 C3294 0.930 . S
H3303 C3295 0.929 . S
H3304 C3312 0.903 1_655 S
H3305 C3314 0.930 1_655 S
H3306 C3316 0.930 . S
H3307 C3319 0.929 . S
H3308 C3322 0.964 . S
H3309 C3324 0.960 . S
H3310 C3324 0.960 . S
H3311 C3324 0.960 . S
C3312 H3304 0.903 1_455 S
C3312 C3313 1.419 . S
C3312 C3314 1.372 . S
C3313 C3312 1.419 . S
C3313 C3319 1.390 . S
C3314 H3305 0.930 1_455 S
C3314 C3312 1.372 . S
C3314 C3315 1.372 . S
C3315 C3314 1.372 . S
C3315 C3316 1.400 . S
C3315 C3320 1.490 . S
C3316 H3306 0.930 . S
C3316 C3315 1.400 . S
C3316 C3319 1.386 . S
H3317 C3333 0.930 . S
H3318 C3334 0.931 . S
C3319 H3307 0.929 . S
C3319 C3313 1.390 . S
C3319 C3316 1.386 . S
C3320 C3315 1.490 . S
C3320 C3322 1.349 1_455 S
C3320 C3323 1.403 . S
H3321 C3327 0.930 . S
C3322 H3308 0.964 . S
C3322 C3320 1.349 1_655 S
C3322 C3325 1.419 . S
C3323 C3320 1.403 . S
C3323 C3324 1.524 . S
C3323 C3327 1.400 . S
C3324 H3309 0.960 . S
C3324 H3310 0.960 . S
C3324 H3311 0.960 . S
C3324 C3323 1.524 . S
C3325 C3322 1.419 . S
C3325 C3326 1.397 1_655 S
C3325 C3329 1.488 . S
C3326 C3325 1.397 1_455 S
C3326 C3327 1.385 . S
C3326 C3328 1.478 . S
C3327 H3321 0.930 . S
C3327 C3323 1.400 . S
C3327 C3326 1.385 . S
C3328 C3326 1.478 . S
C3328 C3330 1.381 . S
C3328 C3334 1.383 1_556 S
C3329 C3325 1.488 . S
C3329 H3335 0.959 . S
C3329 H3336 0.971 . S
C3329 H3337 0.960 . S
C3330 C3328 1.381 . S
C3330 C3331 1.394 . S
C3330 H3338 0.930 . S
C3331 C3330 1.394 . S
C3331 C3332 1.383 1_556 S
C3331 H3339 0.929 . S
C3332 C3331 1.383 1_554 S
C3332 C3333 1.377 . S
C3333 H3317 0.930 . S
C3333 C3332 1.377 . S
C3333 C3334 1.379 . S
C3334 H3318 0.931 . S
C3334 C3328 1.383 1_554 S
C3334 C3333 1.379 . S
H3335 C3329 0.959 . S
H3336 C3329 0.971 . S
H3337 C3329 0.960 . S
H3338 C3330 0.930 . S
H3339 C3331 0.929 . S
H3340 C3348 0.929 . S
H3341 C3350 0.930 . S
H3342 C3352 0.930 . S
H3343 C3355 0.929 . S
H3344 C3358 0.930 . S
H3345 C3360 0.960 . S
H3346 C3360 0.960 . S
H3347 C3360 0.960 . S
C3348 H3340 0.929 . S
C3348 C3349 1.377 . S
C3348 C3350 1.384 . S
C3349 C3348 1.377 . S
C3349 C3355 1.390 . S
C3350 H3341 0.930 . S
C3350 C3348 1.384 . S
C3350 C3351 1.372 1_455 S
C3351 C3350 1.372 1_655 S
C3351 C3352 1.400 . S
C3351 C3356 1.490 . S
C3352 H3342 0.930 . S
C3352 C3351 1.400 . S
C3352 C3355 1.386 1_655 S
H3353 C3369 0.930 . S
H3354 C3370 0.931 . S
C3355 H3343 0.929 . S
C3355 C3349 1.390 . S
C3355 C3352 1.386 1_455 S
C3356 C3351 1.490 . S
C3356 C3358 1.395 . S
C3356 C3359 1.403 . S
H3357 C3363 0.930 . S
C3358 H3344 0.930 . S
C3358 C3356 1.395 . S
C3358 C3361 1.403 . S
C3359 C3356 1.403 . S
C3359 C3360 1.524 . S
C3359 C3363 1.400 . S
C3360 H3345 0.960 . S
C3360 H3346 0.960 . S
C3360 H3347 0.960 . S
C3360 C3359 1.524 . S
C3361 C3358 1.403 . S
C3361 C3362 1.392 . S
C3361 C3365 1.495 . S
C3362 C3361 1.392 . S
C3362 C3363 1.385 . S
C3362 C3364 1.478 . S
C3363 H3357 0.930 . S
C3363 C3359 1.400 . S
C3363 C3362 1.385 . S
C3364 C3362 1.478 . S
C3364 C3366 1.381 . S
C3364 C3370 1.383 . S
C3365 C3361 1.495 . S
C3365 H3371 0.959 . S
C3365 H3372 0.961 . S
C3365 H3373 0.960 . S
C3366 C3364 1.381 . S
C3366 C3367 1.394 . S
C3366 H3374 0.930 . S
C3367 C3366 1.394 . S
C3367 C3368 1.383 . S
C3367 H3375 0.929 . S
C3368 C3367 1.383 . S
C3368 C3369 1.377 . S
C3369 H3353 0.930 . S
C3369 C3368 1.377 . S
C3369 C3370 1.379 . S
C3370 H3354 0.931 . S
C3370 C3364 1.383 . S
C3370 C3369 1.379 . S
H3371 C3365 0.959 . S
H3372 C3365 0.961 . S
H3373 C3365 0.960 . S
H3374 C3366 0.930 . S
H3375 C3367 0.929 . S
H3376 C3384 0.929 . S
H3377 C3386 0.930 . S
H3378 C3388 0.930 . S
H3379 C3391 0.929 . S
H3380 C3394 0.930 . S
H3381 C3396 0.960 . S
H3382 C3396 0.960 . S
H3383 C3396 0.960 . S
C3384 H3376 0.929 . S
C3384 C3385 1.377 . S
C3384 C3386 1.384 . S
C3385 C3384 1.377 . S
C3385 C3391 1.390 . S
C3386 H3377 0.930 . S
C3386 C3384 1.384 . S
C3386 C3387 1.372 . S
C3387 C3386 1.372 . S
C3387 C3388 1.400 . S
C3387 C3392 1.490 . S
C3388 H3378 0.930 . S
C3388 C3387 1.400 . S
C3388 C3391 1.386 . S
H3389 C3405 0.930 . S
H3390 C3406 0.931 . S
C3391 H3379 0.929 . S
C3391 C3385 1.390 . S
C3391 C3388 1.386 . S
C3392 C3387 1.490 . S
C3392 C3394 1.395 . S
C3392 C3395 1.403 . S
H3393 C3399 0.930 . S
C3394 H3380 0.930 . S
C3394 C3392 1.395 . S
C3394 C3397 1.403 . S
C3395 C3392 1.403 . S
C3395 C3396 1.524 . S
C3395 C3399 1.400 . S
C3396 H3381 0.960 . S
C3396 H3382 0.960 . S
C3396 H3383 0.960 . S
C3396 C3395 1.524 . S
C3397 C3394 1.403 . S
C3397 C3398 1.392 . S
C3397 C3401 1.495 . S
C3398 C3397 1.392 . S
C3398 C3399 1.385 . S
C3398 C3400 1.478 . S
C3399 H3393 0.930 . S
C3399 C3395 1.400 . S
C3399 C3398 1.385 . S
C3400 C3398 1.478 . S
C3400 C3402 1.381 . S
C3400 C3406 1.383 . S
C3401 C3397 1.495 . S
C3401 H3407 0.959 . S
C3401 H3408 0.961 . S
C3401 H3409 0.960 . S
C3402 C3400 1.381 . S
C3402 C3403 1.394 . S
C3402 H3410 0.930 . S
C3403 C3402 1.394 . S
C3403 C3404 1.383 . S
C3403 H3411 0.929 . S
C3404 C3403 1.383 . S
C3404 C3405 1.377 . S
C3405 H3389 0.930 . S
C3405 C3404 1.377 . S
C3405 C3406 1.379 . S
C3406 H3390 0.931 . S
C3406 C3400 1.383 . S
C3406 C3405 1.379 . S
H3407 C3401 0.959 . S
H3408 C3401 0.961 . S
H3409 C3401 0.960 . S
H3410 C3402 0.930 . S
H3411 C3403 0.929 . S
H3412 C3420 0.929 . S
H3413 C3422 0.930 . S
H3414 C3424 0.930 . S
H3415 C3427 0.929 . S
H3416 C3430 0.930 . S
H3417 C3432 0.960 . S
H3418 C3432 0.960 . S
H3419 C3432 0.960 . S
C3420 H3412 0.929 . S
C3420 C3421 1.377 . S
C3420 C3422 1.384 . S
C3421 C3420 1.377 . S
C3421 C3427 1.390 . S
C3422 H3413 0.930 . S
C3422 C3420 1.384 . S
C3422 C3423 1.372 . S
C3423 C3422 1.372 . S
C3423 C3424 1.400 . S
C3423 C3428 1.490 . S
C3424 H3414 0.930 . S
C3424 C3423 1.400 . S
C3424 C3427 1.386 . S
H3425 C3441 0.930 . S
H3426 C3442 0.931 . S
C3427 H3415 0.929 . S
C3427 C3421 1.390 . S
C3427 C3424 1.386 . S
C3428 C3423 1.490 . S
C3428 C3430 1.395 . S
C3428 C3431 1.403 . S
H3429 C3435 0.930 . S
C3430 H3416 0.930 . S
C3430 C3428 1.395 . S
C3430 C3433 1.403 . S
C3431 C3428 1.403 . S
C3431 C3432 1.524 . S
C3431 C3435 1.400 . S
C3432 H3417 0.960 . S
C3432 H3418 0.960 . S
C3432 H3419 0.960 . S
C3432 C3431 1.524 . S
C3433 C3430 1.403 . S
C3433 C3434 1.392 . S
C3433 C3437 1.495 . S
C3434 C3433 1.392 . S
C3434 C3435 1.385 . S
C3434 C3436 1.478 . S
C3435 H3429 0.930 . S
C3435 C3431 1.400 . S
C3435 C3434 1.385 . S
C3436 C3434 1.478 . S
C3436 C3438 1.381 . S
C3436 C3442 1.383 . S
C3437 C3433 1.495 . S
C3437 H3443 0.959 . S
C3437 H3444 0.961 . S
C3437 H3445 0.960 . S
C3438 C3436 1.381 . S
C3438 C3439 1.394 . S
C3438 H3446 0.930 . S
C3439 C3438 1.394 . S
C3439 C3440 1.383 . S
C3439 H3447 0.929 . S
C3440 C3439 1.383 . S
C3440 C3441 1.377 . S
C3441 H3425 0.930 . S
C3441 C3440 1.377 . S
C3441 C3442 1.379 . S
C3442 H3426 0.931 . S
C3442 C3436 1.383 . S
C3442 C3441 1.379 . S
H3443 C3437 0.959 . S
H3444 C3437 0.961 . S
H3445 C3437 0.960 . S
H3446 C3438 0.930 . S
H3447 C3439 0.929 . S
H3448 C3456 0.929 . S
H3449 C3458 0.930 . S
H3450 C3460 0.930 . S
H3451 C3463 0.929 . S
H3452 C3466 0.930 . S
H3453 C3468 0.960 . S
H3454 C3468 0.960 . S
H3455 C3468 0.960 . S
C3456 H3448 0.929 . S
C3456 C3457 1.377 . S
C3456 C3458 1.384 . S
C3457 C3456 1.377 . S
C3457 C3463 1.390 . S
C3458 H3449 0.930 . S
C3458 C3456 1.384 . S
C3458 C3459 1.372 . S
C3459 C3458 1.372 . S
C3459 C3460 1.400 . S
C3459 C3464 1.490 . S
C3460 H3450 0.930 . S
C3460 C3459 1.400 . S
C3460 C3463 1.386 . S
H3461 C3477 0.930 . S
H3462 C3478 0.931 . S
C3463 H3451 0.929 . S
C3463 C3457 1.390 . S
C3463 C3460 1.386 . S
C3464 C3459 1.490 . S
C3464 C3466 1.395 . S
C3464 C3467 1.403 . S
H3465 C3471 0.930 . S
C3466 H3452 0.930 . S
C3466 C3464 1.395 . S
C3466 C3469 1.403 . S
C3467 C3464 1.403 . S
C3467 C3468 1.524 . S
C3467 C3471 1.400 . S
C3468 H3453 0.960 . S
C3468 H3454 0.960 . S
C3468 H3455 0.960 . S
C3468 C3467 1.524 . S
C3469 C3466 1.403 . S
C3469 C3470 1.392 . S
C3469 C3473 1.495 . S
C3470 C3469 1.392 . S
C3470 C3471 1.385 . S
C3470 C3472 1.478 . S
C3471 H3465 0.930 . S
C3471 C3467 1.400 . S
C3471 C3470 1.385 . S
C3472 C3470 1.478 . S
C3472 C3474 1.381 . S
C3472 C3478 1.383 . S
C3473 C3469 1.495 . S
C3473 H3479 0.959 . S
C3473 H3480 0.961 . S
C3473 H3481 0.960 . S
C3474 C3472 1.381 . S
C3474 C3475 1.394 . S
C3474 H3482 0.930 . S
C3475 C3474 1.394 . S
C3475 C3476 1.383 . S
C3475 H3483 0.929 . S
C3476 C3475 1.383 . S
C3476 C3477 1.377 . S
C3477 H3461 0.930 . S
C3477 C3476 1.377 . S
C3477 C3478 1.379 . S
C3478 H3462 0.931 . S
C3478 C3472 1.383 . S
C3478 C3477 1.379 . S
H3479 C3473 0.959 . S
H3480 C3473 0.961 . S
H3481 C3473 0.960 . S
H3482 C3474 0.930 . S
H3483 C3475 0.929 . S
H3484 C3492 0.929 . S
H3485 C3494 0.930 . S
H3486 C3496 0.930 . S
H3487 C3499 0.929 . S
H3488 C3502 0.930 . S
H3489 C3504 0.960 . S
H3490 C3504 0.960 . S
H3491 C3504 0.960 . S
C3492 H3484 0.929 . S
C3492 C3493 1.377 . S
C3492 C3494 1.384 . S
C3493 C3492 1.377 . S
C3493 C3499 1.390 . S
C3494 H3485 0.930 . S
C3494 C3492 1.384 . S
C3494 C3495 1.372 . S
C3495 C3494 1.372 . S
C3495 C3496 1.400 . S
C3495 C3500 1.490 . S
C3496 H3486 0.930 . S
C3496 C3495 1.400 . S
C3496 C3499 1.386 . S
H3497 C3513 0.930 . S
H3498 C3514 0.931 . S
C3499 H3487 0.929 . S
C3499 C3493 1.390 . S
C3499 C3496 1.386 . S
C3500 C3495 1.490 . S
C3500 C3502 1.395 . S
C3500 C3503 1.403 . S
H3501 C3507 0.930 . S
C3502 H3488 0.930 . S
C3502 C3500 1.395 . S
C3502 C3505 1.403 . S
C3503 C3500 1.403 . S
C3503 C3504 1.524 . S
C3503 C3507 1.400 . S
C3504 H3489 0.960 . S
C3504 H3490 0.960 . S
C3504 H3491 0.960 . S
C3504 C3503 1.524 . S
C3505 C3502 1.403 . S
C3505 C3506 1.392 . S
C3505 C3509 1.495 . S
C3506 C3505 1.392 . S
C3506 C3507 1.385 . S
C3506 C3508 1.478 . S
C3507 H3501 0.930 . S
C3507 C3503 1.400 . S
C3507 C3506 1.385 . S
C3508 C3506 1.478 . S
C3508 C3510 1.381 . S
C3508 C3514 1.383 . S
C3509 C3505 1.495 . S
C3509 H3515 0.959 . S
C3509 H3516 0.961 . S
C3509 H3517 0.960 . S
C3510 C3508 1.381 . S
C3510 C3511 1.394 . S
C3510 H3518 0.930 . S
C3511 C3510 1.394 . S
C3511 C3512 1.383 . S
C3511 H3519 0.929 . S
C3512 C3511 1.383 . S
C3512 C3513 1.377 . S
C3513 H3497 0.930 . S
C3513 C3512 1.377 . S
C3513 C3514 1.379 . S
C3514 H3498 0.931 . S
C3514 C3508 1.383 . S
C3514 C3513 1.379 . S
H3515 C3509 0.959 . S
H3516 C3509 0.961 . S
H3517 C3509 0.960 . S
H3518 C3510 0.930 . S
H3519 C3511 0.929 . S
H3520 C3528 0.929 . S
H3521 C3530 0.930 . S
H3522 C3532 0.930 . S
H3523 C3535 0.929 . S
H3524 C3538 0.930 . S
H3525 C3540 0.960 . S
H3526 C3540 0.960 . S
H3527 C3540 0.960 . S
C3528 H3520 0.929 . S
C3528 C3529 1.377 . S
C3528 C3530 1.384 . S
C3529 C3528 1.377 . S
C3529 C3535 1.390 . S
C3530 H3521 0.930 . S
C3530 C3528 1.384 . S
C3530 C3531 1.372 . S
C3531 C3530 1.372 . S
C3531 C3532 1.400 . S
C3531 C3536 1.490 . S
C3532 H3522 0.930 . S
C3532 C3531 1.400 . S
C3532 C3535 1.386 . S
H3533 C3549 0.930 . S
H3534 C3550 0.931 . S
C3535 H3523 0.929 . S
C3535 C3529 1.390 . S
C3535 C3532 1.386 . S
C3536 C3531 1.490 . S
C3536 C3538 1.395 . S
C3536 C3539 1.403 . S
H3537 C3543 0.930 . S
C3538 H3524 0.930 . S
C3538 C3536 1.395 . S
C3538 C3541 1.403 . S
C3539 C3536 1.403 . S
C3539 C3540 1.524 . S
C3539 C3543 1.400 . S
C3540 H3525 0.960 . S
C3540 H3526 0.960 . S
C3540 H3527 0.960 . S
C3540 C3539 1.524 . S
C3541 C3538 1.403 . S
C3541 C3542 1.392 . S
C3541 C3545 1.495 . S
C3542 C3541 1.392 . S
C3542 C3543 1.385 . S
C3542 C3544 1.478 . S
C3543 H3537 0.930 . S
C3543 C3539 1.400 . S
C3543 C3542 1.385 . S
C3544 C3542 1.478 . S
C3544 C3546 1.381 . S
C3544 C3550 1.383 . S
C3545 C3541 1.495 . S
C3545 H3551 0.959 . S
C3545 H3552 0.961 . S
C3545 H3553 0.960 . S
C3546 C3544 1.381 . S
C3546 C3547 1.394 . S
C3546 H3554 0.930 . S
C3547 C3546 1.394 . S
C3547 C3548 1.383 . S
C3547 H3555 0.929 . S
C3548 C3547 1.383 . S
C3548 C3549 1.377 . S
C3549 H3533 0.930 . S
C3549 C3548 1.377 . S
C3549 C3550 1.379 . S
C3550 H3534 0.931 . S
C3550 C3544 1.383 . S
C3550 C3549 1.379 . S
H3551 C3545 0.959 . S
H3552 C3545 0.961 . S
H3553 C3545 0.960 . S
H3554 C3546 0.930 . S
H3555 C3547 0.929 . S
H3556 C3564 0.929 . S
H3557 C3566 0.930 . S
H3558 C3568 0.930 . S
H3559 C3571 0.929 . S
H3560 C3574 0.930 . S
H3561 C3576 0.960 . S
H3562 C3576 0.960 . S
H3563 C3576 0.960 . S
C3564 H3556 0.929 . S
C3564 C3565 1.377 1_556 S
C3564 C3566 1.384 . S
C3565 C3564 1.377 1_554 S
C3565 C3571 1.390 . S
C3566 H3557 0.930 . S
C3566 C3564 1.384 . S
C3566 C3567 1.372 . S
C3567 C3566 1.372 . S
C3567 C3568 1.400 . S
C3567 C3572 1.490 . S
C3568 H3558 0.930 . S
C3568 C3567 1.400 . S
C3568 C3571 1.386 1_556 S
H3569 C3585 0.930 . S
H3570 C3586 0.931 . S
C3571 H3559 0.929 . S
C3571 C3565 1.390 . S
C3571 C3568 1.386 1_554 S
C3572 C3567 1.490 . S
C3572 C3574 1.395 . S
C3572 C3575 1.403 . S
H3573 C3579 0.930 . S
C3574 H3560 0.930 . S
C3574 C3572 1.395 . S
C3574 C3577 1.403 . S
C3575 C3572 1.403 . S
C3575 C3576 1.524 . S
C3575 C3579 1.400 . S
C3576 H3561 0.960 . S
C3576 H3562 0.960 . S
C3576 H3563 0.960 . S
C3576 C3575 1.524 . S
C3577 C3574 1.403 . S
C3577 C3578 1.392 . S
C3577 C3581 1.495 . S
C3578 C3577 1.392 . S
C3578 C3579 1.385 . S
C3578 C3580 1.478 . S
C3579 H3573 0.930 . S
C3579 C3575 1.400 . S
C3579 C3578 1.385 . S
C3580 C3578 1.478 . S
C3580 C3582 1.381 . S
C3580 C3586 1.383 . S
C3581 C3577 1.495 . S
C3581 H3587 0.959 . S
C3581 H3588 0.961 . S
C3581 H3589 0.960 . S
C3582 C3580 1.381 . S
C3582 C3583 1.394 . S
C3582 H3590 0.930 . S
C3583 C3582 1.394 . S
C3583 C3584 1.383 . S
C3583 H3591 0.929 . S
C3584 C3583 1.383 . S
C3584 C3585 1.377 . S
C3585 H3569 0.930 . S
C3585 C3584 1.377 . S
C3585 C3586 1.379 . S
C3586 H3570 0.931 . S
C3586 C3580 1.383 . S
C3586 C3585 1.379 . S
H3587 C3581 0.959 . S
H3588 C3581 0.961 . S
H3589 C3581 0.960 . S
H3590 C3582 0.930 . S
H3591 C3583 0.929 . S
H3592 C3600 0.929 . S
H3593 C3602 0.930 . S
H3594 C3604 0.930 . S
H3595 C3607 0.929 . S
H3596 C3610 0.930 . S
H3597 C3612 0.960 . S
H3598 C3612 0.960 . S
H3599 C3612 0.960 . S
C3600 H3592 0.929 . S
C3600 C3601 1.377 . S
C3600 C3602 1.384 . S
C3601 C3600 1.377 . S
C3601 C3607 1.390 . S
C3602 H3593 0.930 . S
C3602 C3600 1.384 . S
C3602 C3603 1.372 . S
C3603 C3602 1.372 . S
C3603 C3604 1.400 . S
C3603 C3608 1.490 . S
C3604 H3594 0.930 . S
C3604 C3603 1.400 . S
C3604 C3607 1.386 . S
H3605 C3621 0.930 . S
H3606 C3622 0.931 . S
C3607 H3595 0.929 . S
C3607 C3601 1.390 . S
C3607 C3604 1.386 . S
C3608 C3603 1.490 . S
C3608 C3610 1.395 . S
C3608 C3611 1.403 . S
H3609 C3615 0.930 . S
C3610 H3596 0.930 . S
C3610 C3608 1.395 . S
C3610 C3613 1.403 . S
C3611 C3608 1.403 . S
C3611 C3612 1.524 . S
C3611 C3615 1.400 . S
C3612 H3597 0.960 . S
C3612 H3598 0.960 . S
C3612 H3599 0.960 . S
C3612 C3611 1.524 . S
C3613 C3610 1.403 . S
C3613 C3614 1.392 . S
C3613 C3617 1.495 . S
C3614 C3613 1.392 . S
C3614 C3615 1.385 . S
C3614 C3616 1.478 . S
C3615 H3609 0.930 . S
C3615 C3611 1.400 . S
C3615 C3614 1.385 . S
C3616 C3614 1.478 . S
C3616 C3618 1.381 . S
C3616 C3622 1.383 . S
C3617 C3613 1.495 . S
C3617 H3623 0.959 . S
C3617 H3624 0.961 . S
C3617 H3625 0.960 . S
C3618 C3616 1.381 . S
C3618 C3619 1.394 . S
C3618 H3626 0.930 . S
C3619 C3618 1.394 . S
C3619 C3620 1.383 . S
C3619 H3627 0.929 . S
C3620 C3619 1.383 . S
C3620 C3621 1.377 . S
C3621 H3605 0.930 . S
C3621 C3620 1.377 . S
C3621 C3622 1.379 . S
C3622 H3606 0.931 . S
C3622 C3616 1.383 . S
C3622 C3621 1.379 . S
H3623 C3617 0.959 . S
H3624 C3617 0.961 . S
H3625 C3617 0.960 . S
H3626 C3618 0.930 . S
H3627 C3619 0.929 . S
H3628 C3636 0.929 . S
H3629 C3638 0.930 . S
H3630 C3640 0.930 . S
H3631 C3643 0.929 . S
H3632 C3646 0.930 . S
H3633 C3648 0.960 . S
H3634 C3648 0.960 . S
H3635 C3648 0.960 . S
C3636 H3628 0.929 . S
C3636 C3637 1.377 . S
C3636 C3638 1.384 . S
C3637 C3636 1.377 . S
C3637 C3643 1.390 . S
C3638 H3629 0.930 . S
C3638 C3636 1.384 . S
C3638 C3639 1.372 . S
C3639 C3638 1.372 . S
C3639 C3640 1.400 . S
C3639 C3644 1.490 . S
C3640 H3630 0.930 . S
C3640 C3639 1.400 . S
C3640 C3643 1.386 . S
H3641 C3657 0.930 . S
H3642 C3658 0.931 . S
C3643 H3631 0.929 . S
C3643 C3637 1.390 . S
C3643 C3640 1.386 . S
C3644 C3639 1.490 . S
C3644 C3646 1.395 . S
C3644 C3647 1.403 . S
H3645 C3651 0.930 . S
C3646 H3632 0.930 . S
C3646 C3644 1.395 . S
C3646 C3649 1.403 . S
C3647 C3644 1.403 . S
C3647 C3648 1.524 . S
C3647 C3651 1.400 . S
C3648 H3633 0.960 . S
C3648 H3634 0.960 . S
C3648 H3635 0.960 . S
C3648 C3647 1.524 . S
C3649 C3646 1.403 . S
C3649 C3650 1.392 . S
C3649 C3653 1.495 . S
C3650 C3649 1.392 . S
C3650 C3651 1.385 . S
C3650 C3652 1.478 . S
C3651 H3645 0.930 . S
C3651 C3647 1.400 . S
C3651 C3650 1.385 . S
C3652 C3650 1.478 . S
C3652 C3654 1.381 . S
C3652 C3658 1.383 . S
C3653 C3649 1.495 . S
C3653 H3659 0.959 . S
C3653 H3660 0.961 . S
C3653 H3661 0.960 . S
C3654 C3652 1.381 . S
C3654 C3655 1.394 . S
C3654 H3662 0.930 . S
C3655 C3654 1.394 . S
C3655 C3656 1.383 . S
C3655 H3663 0.929 . S
C3656 C3655 1.383 . S
C3656 C3657 1.377 . S
C3657 H3641 0.930 . S
C3657 C3656 1.377 . S
C3657 C3658 1.379 . S
C3658 H3642 0.931 . S
C3658 C3652 1.383 . S
C3658 C3657 1.379 . S
H3659 C3653 0.959 . S
H3660 C3653 0.961 . S
H3661 C3653 0.960 . S
H3662 C3654 0.930 . S
H3663 C3655 0.929 . S
H3664 C3672 0.929 . S
H3665 C3674 0.930 . S
H3666 C3676 0.930 . S
H3667 C3679 0.929 . S
H3668 C3682 0.930 . S
H3669 C3684 0.960 . S
H3670 C3684 0.960 . S
H3671 C3684 0.960 . S
C3672 H3664 0.929 . S
C3672 C3673 1.377 . S
C3672 C3674 1.384 . S
C3673 C3672 1.377 . S
C3673 C3679 1.390 . S
C3674 H3665 0.930 . S
C3674 C3672 1.384 . S
C3674 C3675 1.372 . S
C3675 C3674 1.372 . S
C3675 C3676 1.400 . S
C3675 C3680 1.490 . S
C3676 H3666 0.930 . S
C3676 C3675 1.400 . S
C3676 C3679 1.386 . S
H3677 C3693 0.930 . S
H3678 C3694 0.931 . S
C3679 H3667 0.929 . S
C3679 C3673 1.390 . S
C3679 C3676 1.386 . S
C3680 C3675 1.490 . S
C3680 C3682 1.395 . S
C3680 C3683 1.403 . S
H3681 C3687 0.930 . S
C3682 H3668 0.930 . S
C3682 C3680 1.395 . S
C3682 C3685 1.403 . S
C3683 C3680 1.403 . S
C3683 C3684 1.524 . S
C3683 C3687 1.400 . S
C3684 H3669 0.960 . S
C3684 H3670 0.960 . S
C3684 H3671 0.960 . S
C3684 C3683 1.524 . S
C3685 C3682 1.403 . S
C3685 C3686 1.392 . S
C3685 C3689 1.495 . S
C3686 C3685 1.392 . S
C3686 C3687 1.385 . S
C3686 C3688 1.478 . S
C3687 H3681 0.930 . S
C3687 C3683 1.400 . S
C3687 C3686 1.385 . S
C3688 C3686 1.478 . S
C3688 C3690 1.381 . S
C3688 C3694 1.383 . S
C3689 C3685 1.495 . S
C3689 H3695 0.959 . S
C3689 H3696 0.961 . S
C3689 H3697 0.960 . S
C3690 C3688 1.381 . S
C3690 C3691 1.394 . S
C3690 H3698 0.930 . S
C3691 C3690 1.394 . S
C3691 C3692 1.383 . S
C3691 H3699 0.929 . S
C3692 C3691 1.383 . S
C3692 C3693 1.377 . S
C3693 H3677 0.930 . S
C3693 C3692 1.377 . S
C3693 C3694 1.379 . S
C3694 H3678 0.931 . S
C3694 C3688 1.383 . S
C3694 C3693 1.379 . S
H3695 C3689 0.959 . S
H3696 C3689 0.961 . S
H3697 C3689 0.960 . S
H3698 C3690 0.930 . S
H3699 C3691 0.929 . S
H3700 C3708 0.929 . S
H3701 C3710 0.930 . S
H3702 C3712 0.930 . S
H3703 C3715 0.929 . S
H3704 C3718 0.930 . S
H3705 C3720 0.960 . S
H3706 C3720 0.960 . S
H3707 C3720 0.960 . S
C3708 H3700 0.929 . S
C3708 C3709 1.377 . S
C3708 C3710 1.384 . S
C3709 C3708 1.377 . S
C3709 C3715 1.390 . S
C3710 H3701 0.930 . S
C3710 C3708 1.384 . S
C3710 C3711 1.372 . S
C3711 C3710 1.372 . S
C3711 C3712 1.400 . S
C3711 C3716 1.490 . S
C3712 H3702 0.930 . S
C3712 C3711 1.400 . S
C3712 C3715 1.386 . S
H3713 C3729 0.930 . S
H3714 C3730 0.931 . S
C3715 H3703 0.929 . S
C3715 C3709 1.390 . S
C3715 C3712 1.386 . S
C3716 C3711 1.490 . S
C3716 C3718 1.395 . S
C3716 C3719 1.403 . S
H3717 C3723 0.930 . S
C3718 H3704 0.930 . S
C3718 C3716 1.395 . S
C3718 C3721 1.403 . S
C3719 C3716 1.403 . S
C3719 C3720 1.524 . S
C3719 C3723 1.400 . S
C3720 H3705 0.960 . S
C3720 H3706 0.960 . S
C3720 H3707 0.960 . S
C3720 C3719 1.524 . S
C3721 C3718 1.403 . S
C3721 C3722 1.392 . S
C3721 C3725 1.495 . S
C3722 C3721 1.392 . S
C3722 C3723 1.385 . S
C3722 C3724 1.478 . S
C3723 H3717 0.930 . S
C3723 C3719 1.400 . S
C3723 C3722 1.385 . S
C3724 C3722 1.478 . S
C3724 C3726 1.381 . S
C3724 C3730 1.383 . S
C3725 C3721 1.495 . S
C3725 H3731 0.959 . S
C3725 H3732 0.961 . S
C3725 H3733 0.960 . S
C3726 C3724 1.381 . S
C3726 C3727 1.394 . S
C3726 H3734 0.930 . S
C3727 C3726 1.394 . S
C3727 C3728 1.383 . S
C3727 H3735 0.929 . S
C3728 C3727 1.383 . S
C3728 C3729 1.377 . S
C3729 H3713 0.930 . S
C3729 C3728 1.377 . S
C3729 C3730 1.379 . S
C3730 H3714 0.931 . S
C3730 C3724 1.383 . S
C3730 C3729 1.379 . S
H3731 C3725 0.959 . S
H3732 C3725 0.961 . S
H3733 C3725 0.960 . S
H3734 C3726 0.930 . S
H3735 C3727 0.929 . S
H3736 C3744 0.929 . S
H3737 C3746 0.930 . S
H3738 C3748 0.930 . S
H3739 C3751 0.929 . S
H3740 C3754 0.930 . S
H3741 C3756 0.960 . S
H3742 C3756 0.960 . S
H3743 C3756 0.960 . S
C3744 H3736 0.929 . S
C3744 C3745 1.377 . S
C3744 C3746 1.384 . S
C3745 C3744 1.377 . S
C3745 C3751 1.390 . S
C3746 H3737 0.930 . S
C3746 C3744 1.384 . S
C3746 C3747 1.372 . S
C3747 C3746 1.372 . S
C3747 C3748 1.400 . S
C3747 C3752 1.490 . S
C3748 H3738 0.930 . S
C3748 C3747 1.400 . S
C3748 C3751 1.386 . S
H3749 C3765 0.930 . S
H3750 C3766 0.931 . S
C3751 H3739 0.929 . S
C3751 C3745 1.390 . S
C3751 C3748 1.386 . S
C3752 C3747 1.490 . S
C3752 C3754 1.395 . S
C3752 C3755 1.403 . S
H3753 C3759 0.930 . S
C3754 H3740 0.930 . S
C3754 C3752 1.395 . S
C3754 C3757 1.403 . S
C3755 C3752 1.403 . S
C3755 C3756 1.524 . S
C3755 C3759 1.400 . S
C3756 H3741 0.960 . S
C3756 H3742 0.960 . S
C3756 H3743 0.960 . S
C3756 C3755 1.524 . S
C3757 C3754 1.403 . S
C3757 C3758 1.392 . S
C3757 C3761 1.495 . S
C3758 C3757 1.392 . S
C3758 C3759 1.385 . S
C3758 C3760 1.478 . S
C3759 H3753 0.930 . S
C3759 C3755 1.400 . S
C3759 C3758 1.385 . S
C3760 C3758 1.478 . S
C3760 C3762 1.381 . S
C3760 C3766 1.383 . S
C3761 C3757 1.495 . S
C3761 H3767 0.959 . S
C3761 H3768 0.961 . S
C3761 H3769 0.960 . S
C3762 C3760 1.381 . S
C3762 C3763 1.394 . S
C3762 H3770 0.930 . S
C3763 C3762 1.394 . S
C3763 C3764 1.383 . S
C3763 H3771 0.929 . S
C3764 C3763 1.383 . S
C3764 C3765 1.377 . S
C3765 H3749 0.930 . S
C3765 C3764 1.377 . S
C3765 C3766 1.379 . S
C3766 H3750 0.931 . S
C3766 C3760 1.383 . S
C3766 C3765 1.379 . S
H3767 C3761 0.959 . S
H3768 C3761 0.961 . S
H3769 C3761 0.960 . S
H3770 C3762 0.930 . S
H3771 C3763 0.929 . S
H3772 C3780 0.929 . S
H3773 C3782 0.930 . S
H3774 C3784 0.930 . S
H3775 C3787 0.929 . S
H3776 C3790 0.930 . S
H3777 C3792 0.960 . S
H3778 C3792 0.960 . S
H3779 C3792 0.960 . S
C3780 H3772 0.929 . S
C3780 C3781 1.377 . S
C3780 C3782 1.384 . S
C3781 C3780 1.377 . S
C3781 C3787 1.390 . S
C3782 H3773 0.930 . S
C3782 C3780 1.384 . S
C3782 C3783 1.372 . S
C3783 C3782 1.372 . S
C3783 C3784 1.400 . S
C3783 C3788 1.490 . S
C3784 H3774 0.930 . S
C3784 C3783 1.400 . S
C3784 C3787 1.386 . S
H3785 C3801 0.930 . S
H3786 C3802 0.931 . S
C3787 H3775 0.929 . S
C3787 C3781 1.390 . S
C3787 C3784 1.386 . S
C3788 C3783 1.490 . S
C3788 C3790 1.395 . S
C3788 C3791 1.403 . S
H3789 C3795 0.930 . S
C3790 H3776 0.930 . S
C3790 C3788 1.395 . S
C3790 C3793 1.403 . S
C3791 C3788 1.403 . S
C3791 C3792 1.524 . S
C3791 C3795 1.400 . S
C3792 H3777 0.960 . S
C3792 H3778 0.960 . S
C3792 H3779 0.960 . S
C3792 C3791 1.524 . S
C3793 C3790 1.403 . S
C3793 C3794 1.392 . S
C3793 C3797 1.495 . S
C3794 C3793 1.392 . S
C3794 C3795 1.385 . S
C3794 C3796 1.478 . S
C3795 H3789 0.930 . S
C3795 C3791 1.400 . S
C3795 C3794 1.385 . S
C3796 C3794 1.478 . S
C3796 C3798 1.381 . S
C3796 C3802 1.383 . S
C3797 C3793 1.495 . S
C3797 H3803 0.959 . S
C3797 H3804 0.961 . S
C3797 H3805 0.960 . S
C3798 C3796 1.381 . S
C3798 C3799 1.394 . S
C3798 H3806 0.930 . S
C3799 C3798 1.394 . S
C3799 C3800 1.383 . S
C3799 H3807 0.929 . S
C3800 C3799 1.383 . S
C3800 C3801 1.377 . S
C3801 H3785 0.930 . S
C3801 C3800 1.377 . S
C3801 C3802 1.379 . S
C3802 H3786 0.931 . S
C3802 C3796 1.383 . S
C3802 C3801 1.379 . S
H3803 C3797 0.959 . S
H3804 C3797 0.961 . S
H3805 C3797 0.960 . S
H3806 C3798 0.930 . S
H3807 C3799 0.929 . S
H3808 C3816 0.929 . S
H3809 C3818 0.930 . S
H3810 C3820 0.930 . S
H3811 C3823 0.929 . S
H3812 C3826 0.930 . S
H3813 C3828 0.960 . S
H3814 C3828 0.960 . S
H3815 C3828 0.960 . S
C3816 H3808 0.929 . S
C3816 C3817 1.377 . S
C3816 C3818 1.384 . S
C3817 C3816 1.377 . S
C3817 C3823 1.390 . S
C3818 H3809 0.930 . S
C3818 C3816 1.384 . S
C3818 C3819 1.372 . S
C3819 C3818 1.372 . S
C3819 C3820 1.400 . S
C3819 C3824 1.490 . S
C3820 H3810 0.930 . S
C3820 C3819 1.400 . S
C3820 C3823 1.386 . S
H3821 C3837 0.930 . S
H3822 C3838 0.931 . S
C3823 H3811 0.929 . S
C3823 C3817 1.390 . S
C3823 C3820 1.386 . S
C3824 C3819 1.490 . S
C3824 C3826 1.395 . S
C3824 C3827 1.403 . S
H3825 C3831 0.930 . S
C3826 H3812 0.930 . S
C3826 C3824 1.395 . S
C3826 C3829 1.403 . S
C3827 C3824 1.403 . S
C3827 C3828 1.524 . S
C3827 C3831 1.400 . S
C3828 H3813 0.960 . S
C3828 H3814 0.960 . S
C3828 H3815 0.960 . S
C3828 C3827 1.524 . S
C3829 C3826 1.403 . S
C3829 C3830 1.392 . S
C3829 C3833 1.495 . S
C3830 C3829 1.392 . S
C3830 C3831 1.385 . S
C3830 C3832 1.478 . S
C3831 H3825 0.930 . S
C3831 C3827 1.400 . S
C3831 C3830 1.385 . S
C3832 C3830 1.478 . S
C3832 C3834 1.381 . S
C3832 C3838 1.383 . S
C3833 C3829 1.495 . S
C3833 H3839 0.959 . S
C3833 H3840 0.961 . S
C3833 H3841 0.960 . S
C3834 C3832 1.381 . S
C3834 C3835 1.394 . S
C3834 H3842 0.930 . S
C3835 C3834 1.394 . S
C3835 C3836 1.383 . S
C3835 H3843 0.929 . S
C3836 C3835 1.383 . S
C3836 C3837 1.377 . S
C3837 H3821 0.930 . S
C3837 C3836 1.377 . S
C3837 C3838 1.379 . S
C3838 H3822 0.931 . S
C3838 C3832 1.383 . S
C3838 C3837 1.379 . S
H3839 C3833 0.959 . S
H3840 C3833 0.961 . S
H3841 C3833 0.960 . S
H3842 C3834 0.930 . S
H3843 C3835 0.929 . S
H3844 C3852 0.929 . S
H3845 C3854 0.930 . S
H3846 C3856 0.930 . S
H3847 C3859 0.929 . S
H3848 C3862 0.930 . S
H3849 C3864 0.960 . S
H3850 C3864 0.960 . S
H3851 C3864 0.960 . S
C3852 H3844 0.929 . S
C3852 C3853 1.377 . S
C3852 C3854 1.384 . S
C3853 C3852 1.377 . S
C3853 C3859 1.390 . S
C3854 H3845 0.930 . S
C3854 C3852 1.384 . S
C3854 C3855 1.372 . S
C3855 C3854 1.372 . S
C3855 C3856 1.400 . S
C3855 C3860 1.490 . S
C3856 H3846 0.930 . S
C3856 C3855 1.400 . S
C3856 C3859 1.386 . S
H3857 C3873 0.930 . S
H3858 C3874 0.931 . S
C3859 H3847 0.929 . S
C3859 C3853 1.390 . S
C3859 C3856 1.386 . S
C3860 C3855 1.490 . S
C3860 C3862 1.395 . S
C3860 C3863 1.403 . S
H3861 C3867 0.930 . S
C3862 H3848 0.930 . S
C3862 C3860 1.395 . S
C3862 C3865 1.403 . S
C3863 C3860 1.403 . S
C3863 C3864 1.524 . S
C3863 C3867 1.400 . S
C3864 H3849 0.960 . S
C3864 H3850 0.960 . S
C3864 H3851 0.960 . S
C3864 C3863 1.524 . S
C3865 C3862 1.403 . S
C3865 C3866 1.392 . S
C3865 C3869 1.495 . S
C3866 C3865 1.392 . S
C3866 C3867 1.385 . S
C3866 C3868 1.478 . S
C3867 H3861 0.930 . S
C3867 C3863 1.400 . S
C3867 C3866 1.385 . S
C3868 C3866 1.478 . S
C3868 C3870 1.381 . S
C3868 C3874 1.383 . S
C3869 C3865 1.495 . S
C3869 H3875 0.959 . S
C3869 H3876 0.961 . S
C3869 H3877 0.960 . S
C3870 C3868 1.381 . S
C3870 C3871 1.394 . S
C3870 H3878 0.930 . S
C3871 C3870 1.394 . S
C3871 C3872 1.383 . S
C3871 H3879 0.929 . S
C3872 C3871 1.383 . S
C3872 C3873 1.377 . S
C3873 H3857 0.930 . S
C3873 C3872 1.377 . S
C3873 C3874 1.379 . S
C3874 H3858 0.931 . S
C3874 C3868 1.383 . S
C3874 C3873 1.379 . S
H3875 C3869 0.959 . S
H3876 C3869 0.961 . S
H3877 C3869 0.960 . S
H3878 C3870 0.930 . S
H3879 C3871 0.929 . S
H3880 C3888 0.929 . S
H3881 C3890 0.930 . S
H3882 C3892 0.930 . S
H3883 C3895 0.913 1_545 S
H3884 C3898 0.930 . S
H3885 C3900 0.960 . S
H3886 C3900 0.960 . S
H3887 C3900 0.960 . S
C3888 H3880 0.929 . S
C3888 C3889 1.377 . S
C3888 C3890 1.384 . S
C3889 C3888 1.377 . S
C3889 C3895 1.390 . S
C3890 H3881 0.930 . S
C3890 C3888 1.384 . S
C3890 C3891 1.372 . S
C3891 C3890 1.372 . S
C3891 C3892 1.400 . S
C3891 C3896 1.490 . S
C3892 H3882 0.930 . S
C3892 C3891 1.400 . S
C3892 C3895 1.402 . S
H3893 C3909 0.930 . S
H3894 C3910 0.931 . S
C3895 H3883 0.913 1_565 S
C3895 C3889 1.390 . S
C3895 C3892 1.402 . S
C3896 C3891 1.490 . S
C3896 C3898 1.395 . S
C3896 C3899 1.403 . S
H3897 C3903 0.930 . S
C3898 H3884 0.930 . S
C3898 C3896 1.395 . S
C3898 C3901 1.403 . S
C3899 C3896 1.403 . S
C3899 C3900 1.524 . S
C3899 C3903 1.400 . S
C3900 H3885 0.960 . S
C3900 H3886 0.960 . S
C3900 H3887 0.960 . S
C3900 C3899 1.524 . S
C3901 C3898 1.403 . S
C3901 C3902 1.392 . S
C3901 C3905 1.495 . S
C3902 C3901 1.392 . S
C3902 C3903 1.385 . S
C3902 C3904 1.478 . S
C3903 H3897 0.930 . S
C3903 C3899 1.400 . S
C3903 C3902 1.385 . S
C3904 C3902 1.478 . S
C3904 C3906 1.381 . S
C3904 C3910 1.383 . S
C3905 C3901 1.495 . S
C3905 H3911 0.959 . S
C3905 H3912 0.961 . S
C3905 H3913 0.960 . S
C3906 C3904 1.381 . S
C3906 C3907 1.394 . S
C3906 H3914 0.930 . S
C3907 C3906 1.394 . S
C3907 C3908 1.383 . S
C3907 H3915 0.929 . S
C3908 C3907 1.383 . S
C3908 C3909 1.377 . S
C3909 H3893 0.930 . S
C3909 C3908 1.377 . S
C3909 C3910 1.379 . S
C3910 H3894 0.931 . S
C3910 C3904 1.383 . S
C3910 C3909 1.379 . S
H3911 C3905 0.959 . S
H3912 C3905 0.961 . S
H3913 C3905 0.960 . S
H3914 C3906 0.930 . S
H3915 C3907 0.929 . S
H3916 C3924 0.929 . S
H3917 C3926 0.930 . S
H3918 C3928 0.930 . S
H3919 C3931 0.929 . S
H3920 C3934 0.930 . S
H3921 C3936 0.961 1_556 S
H3922 C3936 0.994 . S
H3923 C3936 0.925 1_566 S
C3924 H3916 0.929 . S
C3924 C3925 1.377 . S
C3924 C3926 1.384 . S
C3925 C3924 1.377 . S
C3925 C3931 1.390 1_554 S
C3926 H3917 0.930 . S
C3926 C3924 1.384 . S
C3926 C3927 1.372 . S
C3927 C3926 1.372 . S
C3927 C3928 1.400 1_554 S
C3927 C3932 1.490 . S
C3928 H3918 0.930 . S
C3928 C3927 1.400 1_556 S
C3928 C3931 1.386 . S
H3929 C3945 0.930 1_556 S
H3930 C3946 0.931 1_566 S
C3931 H3919 0.929 . S
C3931 C3925 1.390 1_556 S
C3931 C3928 1.386 . S
C3932 C3927 1.490 . S
C3932 C3934 1.395 . S
C3932 C3935 1.403 . S
H3933 C3939 0.930 1_545 S
C3934 H3920 0.930 . S
C3934 C3932 1.395 . S
C3934 C3937 1.403 . S
C3935 C3932 1.403 . S
C3935 C3936 1.525 1_565 S
C3935 C3939 1.400 . S
C3936 H3921 0.961 1_554 S
C3936 H3922 0.994 . S
C3936 H3923 0.925 1_544 S
C3936 C3935 1.525 1_545 S
C3937 C3934 1.403 . S
C3937 C3938 1.392 . S
C3937 C3941 1.495 . S
C3938 C3937 1.392 . S
C3938 C3939 1.385 . S
C3938 C3940 1.478 . S
C3939 H3933 0.930 1_565 S
C3939 C3935 1.400 . S
C3939 C3938 1.385 . S
C3940 C3938 1.478 . S
C3940 C3942 1.383 . S
C3940 C3946 1.377 1_565 S
C3941 C3937 1.495 . S
C3941 H3947 0.959 . S
C3941 H3948 0.961 . S
C3941 H3949 0.960 . S
C3942 C3940 1.383 . S
C3942 C3943 1.384 1_565 S
C3942 H3950 0.941 . S
C3943 C3942 1.384 1_545 S
C3943 C3944 1.383 . S
C3943 H3951 0.929 . S
C3944 C3943 1.383 . S
C3944 C3945 1.377 . S
C3945 H3929 0.930 1_554 S
C3945 C3944 1.377 . S
C3945 C3946 1.387 . S
C3946 H3930 0.931 1_544 S
C3946 C3940 1.377 1_545 S
C3946 C3945 1.387 . S
H3947 C3941 0.959 . S
H3948 C3941 0.961 . S
H3949 C3941 0.960 . S
H3950 C3942 0.941 . S
H3951 C3943 0.929 . S
H3952 C3960 0.929 . S
H3953 C3962 0.930 . S
H3954 C3964 0.930 . S
H3955 C3967 0.929 . S
H3956 C3970 0.930 . S
H3957 C3972 0.960 . S
H3958 C3972 0.960 . S
H3959 C3972 0.960 . S
C3960 H3952 0.929 . S
C3960 C3961 1.377 . S
C3960 C3962 1.384 . S
C3961 C3960 1.377 . S
C3961 C3967 1.390 . S
C3962 H3953 0.930 . S
C3962 C3960 1.384 . S
C3962 C3963 1.372 . S
C3963 C3962 1.372 . S
C3963 C3964 1.400 . S
C3963 C3968 1.490 . S
C3964 H3954 0.930 . S
C3964 C3963 1.400 . S
C3964 C3967 1.386 . S
H3965 C3981 0.930 . S
H3966 C3982 0.931 . S
C3967 H3955 0.929 . S
C3967 C3961 1.390 . S
C3967 C3964 1.386 . S
C3968 C3963 1.490 . S
C3968 C3970 1.395 . S
C3968 C3971 1.403 . S
H3969 C3975 0.930 . S
C3970 H3956 0.930 . S
C3970 C3968 1.395 . S
C3970 C3973 1.403 . S
C3971 C3968 1.403 . S
C3971 C3972 1.524 . S
C3971 C3975 1.400 . S
C3972 H3957 0.960 . S
C3972 H3958 0.960 . S
C3972 H3959 0.960 . S
C3972 C3971 1.524 . S
C3973 C3970 1.403 . S
C3973 C3974 1.392 . S
C3973 C3977 1.495 . S
C3974 C3973 1.392 . S
C3974 C3975 1.385 . S
C3974 C3976 1.478 . S
C3975 H3969 0.930 . S
C3975 C3971 1.400 . S
C3975 C3974 1.385 . S
C3976 C3974 1.478 . S
C3976 C3978 1.381 . S
C3976 C3982 1.383 . S
C3977 C3973 1.495 . S
C3977 H3983 0.959 . S
C3977 H3984 0.961 . S
C3977 H3985 0.960 . S
C3978 C3976 1.381 . S
C3978 C3979 1.394 . S
C3978 H3986 0.930 . S
C3979 C3978 1.394 . S
C3979 C3980 1.383 . S
C3979 H3987 0.929 . S
C3980 C3979 1.383 . S
C3980 C3981 1.377 . S
C3981 H3965 0.930 . S
C3981 C3980 1.377 . S
C3981 C3982 1.379 . S
C3982 H3966 0.931 . S
C3982 C3976 1.383 . S
C3982 C3981 1.379 . S
H3983 C3977 0.959 . S
H3984 C3977 0.961 . S
H3985 C3977 0.960 . S
H3986 C3978 0.930 . S
H3987 C3979 0.929 . S
H3988 C3996 0.929 . S
H3989 C3998 0.930 . S
H3990 C4000 0.930 . S
H3991 C4003 0.929 . S
H3992 C4006 0.930 . S
H3993 C4008 0.960 . S
H3994 C4008 0.960 . S
H3995 C4008 0.960 . S
C3996 H3988 0.929 . S
C3996 C3997 1.377 . S
C3996 C3998 1.384 . S
C3997 C3996 1.377 . S
C3997 C4003 1.390 . S
C3998 H3989 0.930 . S
C3998 C3996 1.384 . S
C3998 C3999 1.372 . S
C3999 C3998 1.372 . S
C3999 C4000 1.400 . S
C3999 C4004 1.490 . S
C4000 H3990 0.930 . S
C4000 C3999 1.400 . S
C4000 C4003 1.386 . S
H4001 C4017 0.930 . S
H4002 C4018 0.931 . S
C4003 H3991 0.929 . S
C4003 C3997 1.390 . S
C4003 C4000 1.386 . S
C4004 C3999 1.490 . S
C4004 C4006 1.395 . S
C4004 C4007 1.403 . S
H4005 C4011 0.930 . S
C4006 H3992 0.930 . S
C4006 C4004 1.395 . S
C4006 C4009 1.403 . S
C4007 C4004 1.403 . S
C4007 C4008 1.524 . S
C4007 C4011 1.400 . S
C4008 H3993 0.960 . S
C4008 H3994 0.960 . S
C4008 H3995 0.960 . S
C4008 C4007 1.524 . S
C4009 C4006 1.403 . S
C4009 C4010 1.392 . S
C4009 C4013 1.495 . S
C4010 C4009 1.392 . S
C4010 C4011 1.385 . S
C4010 C4012 1.478 . S
C4011 H4005 0.930 . S
C4011 C4007 1.400 . S
C4011 C4010 1.385 . S
C4012 C4010 1.478 . S
C4012 C4014 1.381 . S
C4012 C4018 1.383 . S
C4013 C4009 1.495 . S
C4013 H4019 0.959 . S
C4013 H4020 0.961 . S
C4013 H4021 0.960 . S
C4014 C4012 1.381 . S
C4014 C4015 1.394 . S
C4014 H4022 0.930 . S
C4015 C4014 1.394 . S
C4015 C4016 1.383 . S
C4015 H4023 0.929 . S
C4016 C4015 1.383 . S
C4016 C4017 1.377 . S
C4017 H4001 0.930 . S
C4017 C4016 1.377 . S
C4017 C4018 1.379 . S
C4018 H4002 0.931 . S
C4018 C4012 1.383 . S
C4018 C4017 1.379 . S
H4019 C4013 0.959 . S
H4020 C4013 0.961 . S
H4021 C4013 0.960 . S
H4022 C4014 0.930 . S
H4023 C4015 0.929 . S
H4024 C4032 0.929 . S
H4025 C4034 0.930 . S
H4026 C4036 0.930 . S
H4027 C4039 0.929 . S
H4028 C4042 0.930 . S
H4029 C4044 0.960 . S
H4030 C4044 0.960 . S
H4031 C4044 0.960 . S
C4032 H4024 0.929 . S
C4032 C4033 1.377 . S
C4032 C4034 1.384 . S
C4033 C4032 1.377 . S
C4033 C4039 1.390 . S
C4034 H4025 0.930 . S
C4034 C4032 1.384 . S
C4034 C4035 1.372 . S
C4035 C4034 1.372 . S
C4035 C4036 1.400 . S
C4035 C4040 1.490 . S
C4036 H4026 0.930 . S
C4036 C4035 1.400 . S
C4036 C4039 1.386 . S
H4037 C4053 0.930 . S
H4038 C4054 0.931 . S
C4039 H4027 0.929 . S
C4039 C4033 1.390 . S
C4039 C4036 1.386 . S
C4040 C4035 1.490 . S
C4040 C4042 1.395 . S
C4040 C4043 1.403 . S
H4041 C4047 0.930 . S
C4042 H4028 0.930 . S
C4042 C4040 1.395 . S
C4042 C4045 1.403 . S
C4043 C4040 1.403 . S
C4043 C4044 1.524 . S
C4043 C4047 1.400 . S
C4044 H4029 0.960 . S
C4044 H4030 0.960 . S
C4044 H4031 0.960 . S
C4044 C4043 1.524 . S
C4045 C4042 1.403 . S
C4045 C4046 1.392 . S
C4045 C4049 1.495 . S
C4046 C4045 1.392 . S
C4046 C4047 1.385 . S
C4046 C4048 1.478 . S
C4047 H4041 0.930 . S
C4047 C4043 1.400 . S
C4047 C4046 1.385 . S
C4048 C4046 1.478 . S
C4048 C4050 1.381 . S
C4048 C4054 1.383 . S
C4049 C4045 1.495 . S
C4049 H4055 0.959 . S
C4049 H4056 0.961 . S
C4049 H4057 0.960 . S
C4050 C4048 1.381 . S
C4050 C4051 1.394 . S
C4050 H4058 0.930 . S
C4051 C4050 1.394 . S
C4051 C4052 1.383 . S
C4051 H4059 0.929 . S
C4052 C4051 1.383 . S
C4052 C4053 1.377 . S
C4053 H4037 0.930 . S
C4053 C4052 1.377 . S
C4053 C4054 1.379 . S
C4054 H4038 0.931 . S
C4054 C4048 1.383 . S
C4054 C4053 1.379 . S
H4055 C4049 0.959 . S
H4056 C4049 0.961 . S
H4057 C4049 0.960 . S
H4058 C4050 0.930 . S
H4059 C4051 0.929 . S
H4060 C4068 0.929 . S
H4061 C4070 0.930 . S
H4062 C4072 0.930 . S
H4063 C4075 0.929 . S
H4064 C4078 0.930 . S
H4065 C4080 0.960 . S
H4066 C4080 0.960 . S
H4067 C4080 0.960 . S
C4068 H4060 0.929 . S
C4068 C4069 1.377 . S
C4068 C4070 1.384 . S
C4069 C4068 1.377 . S
C4069 C4075 1.390 . S
C4070 H4061 0.930 . S
C4070 C4068 1.384 . S
C4070 C4071 1.372 . S
C4071 C4070 1.372 . S
C4071 C4072 1.400 . S
C4071 C4076 1.490 . S
C4072 H4062 0.930 . S
C4072 C4071 1.400 . S
C4072 C4075 1.386 . S
H4073 C4089 0.930 . S
H4074 C4090 0.931 . S
C4075 H4063 0.929 . S
C4075 C4069 1.390 . S
C4075 C4072 1.386 . S
C4076 C4071 1.490 . S
C4076 C4078 1.395 . S
C4076 C4079 1.403 . S
H4077 C4083 0.930 . S
C4078 H4064 0.930 . S
C4078 C4076 1.395 . S
C4078 C4081 1.403 . S
C4079 C4076 1.403 . S
C4079 C4080 1.524 . S
C4079 C4083 1.400 . S
C4080 H4065 0.960 . S
C4080 H4066 0.960 . S
C4080 H4067 0.960 . S
C4080 C4079 1.524 . S
C4081 C4078 1.403 . S
C4081 C4082 1.392 . S
C4081 C4085 1.495 . S
C4082 C4081 1.392 . S
C4082 C4083 1.385 . S
C4082 C4084 1.478 . S
C4083 H4077 0.930 . S
C4083 C4079 1.400 . S
C4083 C4082 1.385 . S
C4084 C4082 1.478 . S
C4084 C4086 1.381 . S
C4084 C4090 1.383 . S
C4085 C4081 1.495 . S
C4085 H4091 0.959 . S
C4085 H4092 0.961 . S
C4085 H4093 0.960 . S
C4086 C4084 1.381 . S
C4086 C4087 1.394 . S
C4086 H4094 0.930 . S
C4087 C4086 1.394 . S
C4087 C4088 1.383 . S
C4087 H4095 0.929 . S
C4088 C4087 1.383 . S
C4088 C4089 1.377 . S
C4089 H4073 0.930 . S
C4089 C4088 1.377 . S
C4089 C4090 1.379 . S
C4090 H4074 0.931 . S
C4090 C4084 1.383 . S
C4090 C4089 1.379 . S
H4091 C4085 0.959 . S
H4092 C4085 0.961 . S
H4093 C4085 0.960 . S
H4094 C4086 0.930 . S
H4095 C4087 0.929 . S
H4096 C4104 0.929 . S
H4097 C4106 0.930 . S
H4098 C4108 0.930 . S
H4099 C4111 0.929 . S
H4100 C4114 0.930 . S
H4101 C4116 0.960 . S
H4102 C4116 0.960 . S
H4103 C4116 0.960 . S
C4104 H4096 0.929 . S
C4104 C4105 1.377 . S
C4104 C4106 1.384 . S
C4105 C4104 1.377 . S
C4105 C4111 1.390 . S
C4106 H4097 0.930 . S
C4106 C4104 1.384 . S
C4106 C4107 1.372 . S
C4107 C4106 1.372 . S
C4107 C4108 1.400 . S
C4107 C4112 1.490 . S
C4108 H4098 0.930 . S
C4108 C4107 1.400 . S
C4108 C4111 1.386 . S
H4109 C4125 0.930 . S
H4110 C4126 0.931 . S
C4111 H4099 0.929 . S
C4111 C4105 1.390 . S
C4111 C4108 1.386 . S
C4112 C4107 1.490 . S
C4112 C4114 1.395 . S
C4112 C4115 1.403 . S
H4113 C4119 0.930 . S
C4114 H4100 0.930 . S
C4114 C4112 1.395 . S
C4114 C4117 1.403 . S
C4115 C4112 1.403 . S
C4115 C4116 1.524 . S
C4115 C4119 1.400 . S
C4116 H4101 0.960 . S
C4116 H4102 0.960 . S
C4116 H4103 0.960 . S
C4116 C4115 1.524 . S
C4117 C4114 1.403 . S
C4117 C4118 1.392 . S
C4117 C4121 1.495 . S
C4118 C4117 1.392 . S
C4118 C4119 1.385 . S
C4118 C4120 1.478 . S
C4119 H4113 0.930 . S
C4119 C4115 1.400 . S
C4119 C4118 1.385 . S
C4120 C4118 1.478 . S
C4120 C4122 1.381 . S
C4120 C4126 1.383 . S
C4121 C4117 1.495 . S
C4121 H4127 0.959 . S
C4121 H4128 0.961 . S
C4121 H4129 0.960 . S
C4122 C4120 1.381 . S
C4122 C4123 1.394 . S
C4122 H4130 0.930 . S
C4123 C4122 1.394 . S
C4123 C4124 1.383 . S
C4123 H4131 0.929 . S
C4124 C4123 1.383 . S
C4124 C4125 1.377 . S
C4125 H4109 0.930 . S
C4125 C4124 1.377 . S
C4125 C4126 1.379 . S
C4126 H4110 0.931 . S
C4126 C4120 1.383 . S
C4126 C4125 1.379 . S
H4127 C4121 0.959 . S
H4128 C4121 0.961 . S
H4129 C4121 0.960 . S
H4130 C4122 0.930 . S
H4131 C4123 0.929 . S
H4132 C4140 0.929 . S
H4133 C4142 0.930 . S
H4134 C4144 0.930 . S
H4135 C4147 0.929 . S
H4136 C4150 0.930 . S
H4137 C4152 0.960 . S
H4138 C4152 0.960 . S
H4139 C4152 0.960 . S
C4140 H4132 0.929 . S
C4140 C4141 1.377 . S
C4140 C4142 1.384 . S
C4141 C4140 1.377 . S
C4141 C4147 1.390 . S
C4142 H4133 0.930 . S
C4142 C4140 1.384 . S
C4142 C4143 1.372 . S
C4143 C4142 1.372 . S
C4143 C4144 1.400 . S
C4143 C4148 1.490 . S
C4144 H4134 0.930 . S
C4144 C4143 1.400 . S
C4144 C4147 1.386 . S
H4145 C4161 0.930 . S
H4146 C4162 0.931 . S
C4147 H4135 0.929 . S
C4147 C4141 1.390 . S
C4147 C4144 1.386 . S
C4148 C4143 1.490 . S
C4148 C4150 1.395 . S
C4148 C4151 1.403 . S
H4149 C4155 0.930 . S
C4150 H4136 0.930 . S
C4150 C4148 1.395 . S
C4150 C4153 1.403 . S
C4151 C4148 1.403 . S
C4151 C4152 1.524 . S
C4151 C4155 1.400 . S
C4152 H4137 0.960 . S
C4152 H4138 0.960 . S
C4152 H4139 0.960 . S
C4152 C4151 1.524 . S
C4153 C4150 1.403 . S
C4153 C4154 1.392 . S
C4153 C4157 1.495 . S
C4154 C4153 1.392 . S
C4154 C4155 1.385 . S
C4154 C4156 1.478 . S
C4155 H4149 0.930 . S
C4155 C4151 1.400 . S
C4155 C4154 1.385 . S
C4156 C4154 1.478 . S
C4156 C4158 1.381 . S
C4156 C4162 1.383 . S
C4157 C4153 1.495 . S
C4157 H4163 0.959 . S
C4157 H4164 0.961 . S
C4157 H4165 0.960 . S
C4158 C4156 1.381 . S
C4158 C4159 1.394 . S
C4158 H4166 0.930 . S
C4159 C4158 1.394 . S
C4159 C4160 1.383 . S
C4159 H4167 0.929 . S
C4160 C4159 1.383 . S
C4160 C4161 1.377 . S
C4161 H4145 0.930 . S
C4161 C4160 1.377 . S
C4161 C4162 1.379 . S
C4162 H4146 0.931 . S
C4162 C4156 1.383 . S
C4162 C4161 1.379 . S
H4163 C4157 0.959 . S
H4164 C4157 0.961 . S
H4165 C4157 0.960 . S
H4166 C4158 0.930 . S
H4167 C4159 0.929 . S
H4168 C4176 0.929 . S
H4169 C4178 0.930 . S
H4170 C4180 0.930 . S
H4171 C4183 0.929 . S
H4172 C4186 0.930 . S
H4173 C4188 0.960 . S
H4174 C4188 0.960 . S
H4175 C4188 0.960 . S
C4176 H4168 0.929 . S
C4176 C4177 1.377 . S
C4176 C4178 1.384 . S
C4177 C4176 1.377 . S
C4177 C4183 1.390 . S
C4178 H4169 0.930 . S
C4178 C4176 1.384 . S
C4178 C4179 1.372 . S
C4179 C4178 1.372 . S
C4179 C4180 1.400 . S
C4179 C4184 1.490 . S
C4180 H4170 0.930 . S
C4180 C4179 1.400 . S
C4180 C4183 1.386 . S
H4181 C4197 0.930 . S
H4182 C4198 0.931 . S
C4183 H4171 0.929 . S
C4183 C4177 1.390 . S
C4183 C4180 1.386 . S
C4184 C4179 1.490 . S
C4184 C4186 1.395 . S
C4184 C4187 1.403 . S
H4185 C4191 0.930 . S
C4186 H4172 0.930 . S
C4186 C4184 1.395 . S
C4186 C4189 1.403 . S
C4187 C4184 1.403 . S
C4187 C4188 1.524 . S
C4187 C4191 1.400 . S
C4188 H4173 0.960 . S
C4188 H4174 0.960 . S
C4188 H4175 0.960 . S
C4188 C4187 1.524 . S
C4189 C4186 1.403 . S
C4189 C4190 1.392 . S
C4189 C4193 1.495 . S
C4190 C4189 1.392 . S
C4190 C4191 1.385 . S
C4190 C4192 1.478 . S
C4191 H4185 0.930 . S
C4191 C4187 1.400 . S
C4191 C4190 1.385 . S
C4192 C4190 1.478 . S
C4192 C4194 1.381 . S
C4192 C4198 1.383 . S
C4193 C4189 1.495 . S
C4193 H4199 0.959 . S
C4193 H4200 0.961 . S
C4193 H4201 0.960 . S
C4194 C4192 1.381 . S
C4194 C4195 1.394 . S
C4194 H4202 0.930 . S
C4195 C4194 1.394 . S
C4195 C4196 1.383 . S
C4195 H4203 0.929 . S
C4196 C4195 1.383 . S
C4196 C4197 1.377 . S
C4197 H4181 0.930 . S
C4197 C4196 1.377 . S
C4197 C4198 1.379 . S
C4198 H4182 0.931 . S
C4198 C4192 1.383 . S
C4198 C4197 1.379 . S
H4199 C4193 0.959 . S
H4200 C4193 0.961 . S
H4201 C4193 0.960 . S
H4202 C4194 0.930 . S
H4203 C4195 0.929 . S
H4204 C4212 0.929 . S
H4205 C4214 0.930 . S
H4206 C4216 0.930 . S
H4207 C4219 0.929 . S
H4208 C4222 0.930 . S
H4209 C4224 0.960 . S
H4210 C4224 0.960 . S
H4211 C4224 0.960 . S
C4212 H4204 0.929 . S
C4212 C4213 1.377 . S
C4212 C4214 1.384 . S
C4213 C4212 1.377 . S
C4213 C4219 1.390 . S
C4214 H4205 0.930 . S
C4214 C4212 1.384 . S
C4214 C4215 1.372 . S
C4215 C4214 1.372 . S
C4215 C4216 1.400 . S
C4215 C4220 1.490 . S
C4216 H4206 0.930 . S
C4216 C4215 1.400 . S
C4216 C4219 1.386 . S
H4217 C4233 0.930 . S
H4218 C4234 0.931 . S
C4219 H4207 0.929 . S
C4219 C4213 1.390 . S
C4219 C4216 1.386 . S
C4220 C4215 1.490 . S
C4220 C4222 1.395 . S
C4220 C4223 1.403 . S
H4221 C4227 0.930 . S
C4222 H4208 0.930 . S
C4222 C4220 1.395 . S
C4222 C4225 1.403 . S
C4223 C4220 1.403 . S
C4223 C4224 1.524 . S
C4223 C4227 1.400 . S
C4224 H4209 0.960 . S
C4224 H4210 0.960 . S
C4224 H4211 0.960 . S
C4224 C4223 1.524 . S
C4225 C4222 1.403 . S
C4225 C4226 1.392 . S
C4225 C4229 1.495 . S
C4226 C4225 1.392 . S
C4226 C4227 1.385 . S
C4226 C4228 1.478 . S
C4227 H4221 0.930 . S
C4227 C4223 1.400 . S
C4227 C4226 1.385 . S
C4228 C4226 1.478 . S
C4228 C4230 1.381 . S
C4228 C4234 1.383 . S
C4229 C4225 1.495 . S
C4229 H4235 0.959 . S
C4229 H4236 0.961 . S
C4229 H4237 0.960 . S
C4230 C4228 1.381 . S
C4230 C4231 1.394 . S
C4230 H4238 0.930 . S
C4231 C4230 1.394 . S
C4231 C4232 1.383 . S
C4231 H4239 0.929 . S
C4232 C4231 1.383 . S
C4232 C4233 1.377 . S
C4233 H4217 0.930 . S
C4233 C4232 1.377 . S
C4233 C4234 1.379 . S
C4234 H4218 0.931 . S
C4234 C4228 1.383 . S
C4234 C4233 1.379 . S
H4235 C4229 0.959 . S
H4236 C4229 0.961 . S
H4237 C4229 0.960 . S
H4238 C4230 0.930 . S
H4239 C4231 0.929 . S
H4240 C4248 0.929 . S
H4241 C4250 0.930 . S
H4242 C4252 0.930 . S
H4243 C4255 0.929 . S
H4244 C4258 0.930 . S
H4245 C4260 0.960 . S
H4246 C4260 0.960 . S
H4247 C4260 0.960 . S
C4248 H4240 0.929 . S
C4248 C4249 1.377 . S
C4248 C4250 1.384 . S
C4249 C4248 1.377 . S
C4249 C4255 1.390 . S
C4250 H4241 0.930 . S
C4250 C4248 1.384 . S
C4250 C4251 1.372 . S
C4251 C4250 1.372 . S
C4251 C4252 1.400 . S
C4251 C4256 1.490 . S
C4252 H4242 0.930 . S
C4252 C4251 1.400 . S
C4252 C4255 1.386 . S
H4253 C4269 0.930 1_554 S
H4254 C4270 0.931 . S
C4255 H4243 0.929 . S
C4255 C4249 1.390 . S
C4255 C4252 1.386 . S
C4256 C4251 1.490 . S
C4256 C4258 1.395 . S
C4256 C4259 1.403 . S
H4257 C4263 0.930 . S
C4258 H4244 0.930 . S
C4258 C4256 1.395 . S
C4258 C4261 1.403 . S
C4259 C4256 1.403 . S
C4259 C4260 1.524 . S
C4259 C4263 1.400 . S
C4260 H4245 0.960 . S
C4260 H4246 0.960 . S
C4260 H4247 0.960 . S
C4260 C4259 1.524 . S
C4261 C4258 1.403 . S
C4261 C4262 1.392 . S
C4261 C4265 1.495 . S
C4262 C4261 1.392 . S
C4262 C4263 1.385 . S
C4262 C4264 1.478 . S
C4263 H4257 0.930 . S
C4263 C4259 1.400 . S
C4263 C4262 1.385 . S
C4264 C4262 1.478 . S
C4264 C4266 1.381 . S
C4264 C4270 1.383 . S
C4265 C4261 1.495 . S
C4265 H4271 0.959 . S
C4265 H4272 0.961 . S
C4265 H4273 0.960 . S
C4266 C4264 1.381 . S
C4266 C4267 1.394 . S
C4266 H4274 0.930 . S
C4267 C4266 1.394 . S
C4267 C4268 1.383 . S
C4267 H4275 0.929 . S
C4268 C4267 1.383 . S
C4268 C4269 1.377 . S
C4269 H4253 0.930 1_556 S
C4269 C4268 1.377 . S
C4269 C4270 1.379 . S
C4270 H4254 0.931 . S
C4270 C4264 1.383 . S
C4270 C4269 1.379 . S
H4271 C4265 0.959 . S
H4272 C4265 0.961 . S
H4273 C4265 0.960 . S
H4274 C4266 0.930 . S
H4275 C4267 0.929 . S
H4276 C4284 0.929 . S
H4277 C4286 0.930 . S
H4278 C4288 0.930 . S
H4279 C4291 0.929 . S
H4280 C4294 0.930 . S
H4281 C4296 0.960 . S
H4282 C4296 0.960 . S
H4283 C4296 0.960 . S
C4284 H4276 0.929 . S
C4284 C4285 1.377 . S
C4284 C4286 1.384 . S
C4285 C4284 1.377 . S
C4285 C4291 1.390 . S
C4286 H4277 0.930 . S
C4286 C4284 1.384 . S
C4286 C4287 1.372 . S
C4287 C4286 1.372 . S
C4287 C4288 1.400 . S
C4287 C4292 1.490 . S
C4288 H4278 0.930 . S
C4288 C4287 1.400 . S
C4288 C4291 1.386 . S
H4289 C4305 0.930 . S
H4290 C4306 0.931 . S
C4291 H4279 0.929 . S
C4291 C4285 1.390 . S
C4291 C4288 1.386 . S
C4292 C4287 1.490 . S
C4292 C4294 1.395 . S
C4292 C4295 1.403 . S
H4293 C4299 0.930 . S
C4294 H4280 0.930 . S
C4294 C4292 1.395 . S
C4294 C4297 1.403 . S
C4295 C4292 1.403 . S
C4295 C4296 1.524 . S
C4295 C4299 1.400 . S
C4296 H4281 0.960 . S
C4296 H4282 0.960 . S
C4296 H4283 0.960 . S
C4296 C4295 1.524 . S
C4297 C4294 1.403 . S
C4297 C4298 1.392 . S
C4297 C4301 1.495 . S
C4298 C4297 1.392 . S
C4298 C4299 1.385 . S
C4298 C4300 1.478 . S
C4299 H4293 0.930 . S
C4299 C4295 1.400 . S
C4299 C4298 1.385 . S
C4300 C4298 1.478 . S
C4300 C4302 1.381 . S
C4300 C4306 1.383 . S
C4301 C4297 1.495 . S
C4301 H4307 0.959 . S
C4301 H4308 0.961 . S
C4301 H4309 0.960 . S
C4302 C4300 1.381 . S
C4302 C4303 1.394 . S
C4302 H4310 0.930 . S
C4303 C4302 1.394 . S
C4303 C4304 1.383 . S
C4303 H4311 0.929 . S
C4304 C4303 1.383 . S
C4304 C4305 1.377 . S
C4305 H4289 0.930 . S
C4305 C4304 1.377 . S
C4305 C4306 1.379 . S
C4306 H4290 0.931 . S
C4306 C4300 1.383 . S
C4306 C4305 1.379 . S
H4307 C4301 0.959 . S
H4308 C4301 0.961 . S
H4309 C4301 0.960 . S
H4310 C4302 0.930 . S
H4311 C4303 0.929 . S
H4312 C4320 0.929 . S
H4313 C4322 0.930 . S
H4314 C4324 0.930 . S
H4315 C4327 0.929 . S
H4316 C4330 0.930 . S
H4317 C4332 0.960 . S
H4318 C4332 0.960 . S
H4319 C4332 0.960 . S
C4320 H4312 0.929 . S
C4320 C4321 1.377 . S
C4320 C4322 1.384 . S
C4321 C4320 1.377 . S
C4321 C4327 1.390 . S
C4322 H4313 0.930 . S
C4322 C4320 1.384 . S
C4322 C4323 1.372 . S
C4323 C4322 1.372 . S
C4323 C4324 1.400 . S
C4323 C4328 1.490 . S
C4324 H4314 0.930 . S
C4324 C4323 1.400 . S
C4324 C4327 1.386 . S
H4325 C4341 0.930 . S
H4326 C4342 0.931 . S
C4327 H4315 0.929 . S
C4327 C4321 1.390 . S
C4327 C4324 1.386 . S
C4328 C4323 1.490 . S
C4328 C4330 1.395 . S
C4328 C4331 1.403 . S
H4329 C4335 0.930 . S
C4330 H4316 0.930 . S
C4330 C4328 1.395 . S
C4330 C4333 1.403 . S
C4331 C4328 1.403 . S
C4331 C4332 1.524 . S
C4331 C4335 1.400 . S
C4332 H4317 0.960 . S
C4332 H4318 0.960 . S
C4332 H4319 0.960 . S
C4332 C4331 1.524 . S
C4333 C4330 1.403 . S
C4333 C4334 1.392 . S
C4333 C4337 1.495 . S
C4334 C4333 1.392 . S
C4334 C4335 1.385 . S
C4334 C4336 1.478 . S
C4335 H4329 0.930 . S
C4335 C4331 1.400 . S
C4335 C4334 1.385 . S
C4336 C4334 1.478 . S
C4336 C4338 1.381 . S
C4336 C4342 1.383 . S
C4337 C4333 1.495 . S
C4337 H4343 0.959 . S
C4337 H4344 0.961 . S
C4337 H4345 0.960 . S
C4338 C4336 1.381 . S
C4338 C4339 1.394 . S
C4338 H4346 0.930 . S
C4339 C4338 1.394 . S
C4339 C4340 1.383 . S
C4339 H4347 0.929 . S
C4340 C4339 1.383 . S
C4340 C4341 1.377 . S
C4341 H4325 0.930 . S
C4341 C4340 1.377 . S
C4341 C4342 1.379 . S
C4342 H4326 0.931 . S
C4342 C4336 1.383 . S
C4342 C4341 1.379 . S
H4343 C4337 0.959 . S
H4344 C4337 0.961 . S
H4345 C4337 0.960 . S
H4346 C4338 0.930 . S
H4347 C4339 0.929 . S
H4348 C4356 0.929 . S
H4349 C4358 0.930 . S
H4350 C4360 0.930 . S
H4351 C4363 0.929 . S
H4352 C4366 0.930 . S
H4353 C4368 0.960 . S
H4354 C4368 0.960 . S
H4355 C4368 0.960 . S
C4356 H4348 0.929 . S
C4356 C4357 1.377 . S
C4356 C4358 1.384 . S
C4357 C4356 1.377 . S
C4357 C4363 1.390 . S
C4358 H4349 0.930 . S
C4358 C4356 1.384 . S
C4358 C4359 1.372 . S
C4359 C4358 1.372 . S
C4359 C4360 1.400 . S
C4359 C4364 1.490 . S
C4360 H4350 0.930 . S
C4360 C4359 1.400 . S
C4360 C4363 1.386 . S
H4361 C4377 0.930 . S
H4362 C4378 0.931 . S
C4363 H4351 0.929 . S
C4363 C4357 1.390 . S
C4363 C4360 1.386 . S
C4364 C4359 1.490 . S
C4364 C4366 1.395 . S
C4364 C4367 1.403 . S
H4365 C4371 0.930 . S
C4366 H4352 0.930 . S
C4366 C4364 1.395 . S
C4366 C4369 1.403 . S
C4367 C4364 1.403 . S
C4367 C4368 1.524 . S
C4367 C4371 1.400 . S
C4368 H4353 0.960 . S
C4368 H4354 0.960 . S
C4368 H4355 0.960 . S
C4368 C4367 1.524 . S
C4369 C4366 1.403 . S
C4369 C4370 1.392 . S
C4369 C4373 1.495 . S
C4370 C4369 1.392 . S
C4370 C4371 1.385 . S
C4370 C4372 1.478 . S
C4371 H4365 0.930 . S
C4371 C4367 1.400 . S
C4371 C4370 1.385 . S
C4372 C4370 1.478 . S
C4372 C4374 1.381 . S
C4372 C4378 1.383 . S
C4373 C4369 1.495 . S
C4373 H4379 0.959 . S
C4373 H4380 0.961 . S
C4373 H4381 0.960 . S
C4374 C4372 1.381 . S
C4374 C4375 1.394 . S
C4374 H4382 0.930 . S
C4375 C4374 1.394 . S
C4375 C4376 1.383 . S
C4375 H4383 0.929 . S
C4376 C4375 1.383 . S
C4376 C4377 1.377 . S
C4377 H4361 0.930 . S
C4377 C4376 1.377 . S
C4377 C4378 1.379 . S
C4378 H4362 0.931 . S
C4378 C4372 1.383 . S
C4378 C4377 1.379 . S
H4379 C4373 0.959 . S
H4380 C4373 0.961 . S
H4381 C4373 0.960 . S
H4382 C4374 0.930 . S
H4383 C4375 0.929 . S
H4384 C4392 0.929 . S
H4385 C4394 0.930 . S
H4386 C4396 0.930 . S
H4387 C4399 0.929 . S
H4388 C4402 0.930 . S
H4389 C4404 0.960 . S
H4390 C4404 0.960 . S
H4391 C4404 0.960 . S
C4392 H4384 0.929 . S
C4392 C4393 1.377 . S
C4392 C4394 1.384 . S
C4393 C4392 1.377 . S
C4393 C4399 1.390 . S
C4394 H4385 0.930 . S
C4394 C4392 1.384 . S
C4394 C4395 1.372 . S
C4395 C4394 1.372 . S
C4395 C4396 1.400 . S
C4395 C4400 1.490 . S
C4396 H4386 0.930 . S
C4396 C4395 1.400 . S
C4396 C4399 1.386 . S
H4397 C4413 0.930 . S
H4398 C4414 0.931 . S
C4399 H4387 0.929 . S
C4399 C4393 1.390 . S
C4399 C4396 1.386 . S
C4400 C4395 1.490 . S
C4400 C4402 1.395 . S
C4400 C4403 1.403 . S
H4401 C4407 0.930 . S
C4402 H4388 0.930 . S
C4402 C4400 1.395 . S
C4402 C4405 1.403 . S
C4403 C4400 1.403 . S
C4403 C4404 1.524 . S
C4403 C4407 1.400 . S
C4404 H4389 0.960 . S
C4404 H4390 0.960 . S
C4404 H4391 0.960 . S
C4404 C4403 1.524 . S
C4405 C4402 1.403 . S
C4405 C4406 1.392 . S
C4405 C4409 1.495 . S
C4406 C4405 1.392 . S
C4406 C4407 1.385 . S
C4406 C4408 1.478 . S
C4407 H4401 0.930 . S
C4407 C4403 1.400 . S
C4407 C4406 1.385 . S
C4408 C4406 1.478 . S
C4408 C4410 1.381 . S
C4408 C4414 1.383 . S
C4409 C4405 1.495 . S
C4409 H4415 0.959 . S
C4409 H4416 0.961 . S
C4409 H4417 0.960 . S
C4410 C4408 1.381 . S
C4410 C4411 1.394 . S
C4410 H4418 0.930 . S
C4411 C4410 1.394 . S
C4411 C4412 1.383 . S
C4411 H4419 0.929 . S
C4412 C4411 1.383 . S
C4412 C4413 1.377 . S
C4413 H4397 0.930 . S
C4413 C4412 1.377 . S
C4413 C4414 1.379 . S
C4414 H4398 0.931 . S
C4414 C4408 1.383 . S
C4414 C4413 1.379 . S
H4415 C4409 0.959 . S
H4416 C4409 0.961 . S
H4417 C4409 0.960 . S
H4418 C4410 0.930 . S
H4419 C4411 0.929 . S
H4420 C4428 0.929 . S
H4421 C4430 0.930 . S
H4422 C4432 0.930 . S
H4423 C4435 0.929 . S
H4424 C4438 0.930 . S
H4425 C4440 0.960 . S
H4426 C4440 0.960 . S
H4427 C4440 0.960 . S
C4428 H4420 0.929 . S
C4428 C4429 1.377 . S
C4428 C4430 1.384 . S
C4429 C4428 1.377 . S
C4429 C4435 1.390 . S
C4430 H4421 0.930 . S
C4430 C4428 1.384 . S
C4430 C4431 1.372 . S
C4431 C4430 1.372 . S
C4431 C4432 1.400 . S
C4431 C4436 1.490 . S
C4432 H4422 0.930 . S
C4432 C4431 1.400 . S
C4432 C4435 1.386 . S
H4433 C4449 0.930 . S
H4434 C4450 0.931 . S
C4435 H4423 0.929 . S
C4435 C4429 1.390 . S
C4435 C4432 1.386 . S
C4436 C4431 1.490 . S
C4436 C4438 1.395 . S
C4436 C4439 1.403 . S
H4437 C4443 0.930 . S
C4438 H4424 0.930 . S
C4438 C4436 1.395 . S
C4438 C4441 1.403 . S
C4439 C4436 1.403 . S
C4439 C4440 1.524 . S
C4439 C4443 1.400 . S
C4440 H4425 0.960 . S
C4440 H4426 0.960 . S
C4440 H4427 0.960 . S
C4440 C4439 1.524 . S
C4441 C4438 1.403 . S
C4441 C4442 1.392 . S
C4441 C4445 1.495 . S
C4442 C4441 1.392 . S
C4442 C4443 1.385 . S
C4442 C4444 1.478 . S
C4443 H4437 0.930 . S
C4443 C4439 1.400 . S
C4443 C4442 1.385 . S
C4444 C4442 1.478 . S
C4444 C4446 1.381 . S
C4444 C4450 1.383 . S
C4445 C4441 1.495 . S
C4445 H4451 0.959 . S
C4445 H4452 0.961 . S
C4445 H4453 0.960 . S
C4446 C4444 1.381 . S
C4446 C4447 1.394 . S
C4446 H4454 0.930 . S
C4447 C4446 1.394 . S
C4447 C4448 1.383 . S
C4447 H4455 0.929 . S
C4448 C4447 1.383 . S
C4448 C4449 1.377 . S
C4449 H4433 0.930 . S
C4449 C4448 1.377 . S
C4449 C4450 1.379 . S
C4450 H4434 0.931 . S
C4450 C4444 1.383 . S
C4450 C4449 1.379 . S
H4451 C4445 0.959 . S
H4452 C4445 0.961 . S
H4453 C4445 0.960 . S
H4454 C4446 0.930 . S
H4455 C4447 0.929 . S
H4456 C4464 0.929 . S
H4457 C4466 0.930 . S
H4458 C4468 0.930 . S
H4459 C4471 0.929 . S
H4460 C4474 0.930 1_455 S
H4461 C4476 0.960 . S
H4462 C4476 0.960 . S
H4463 C4476 0.960 . S
C4464 H4456 0.929 . S
C4464 C4465 1.377 . S
C4464 C4466 1.384 . S
C4465 C4464 1.377 . S
C4465 C4471 1.390 . S
C4466 H4457 0.930 . S
C4466 C4464 1.384 . S
C4466 C4467 1.372 . S
C4467 C4466 1.372 . S
C4467 C4468 1.400 . S
C4467 C4472 1.490 . S
C4468 H4458 0.930 . S
C4468 C4467 1.400 . S
C4468 C4471 1.386 . S
H4469 C4485 0.930 . S
H4470 C4486 0.931 . S
C4471 H4459 0.929 . S
C4471 C4465 1.390 . S
C4471 C4468 1.386 . S
C4472 C4467 1.490 . S
C4472 C4474 1.395 . S
C4472 C4475 1.403 . S
H4473 C4479 0.930 . S
C4474 H4460 0.930 1_655 S
C4474 C4472 1.395 . S
C4474 C4477 1.403 1_655 S
C4475 C4472 1.403 . S
C4475 C4476 1.524 . S
C4475 C4479 1.400 . S
C4476 H4461 0.960 . S
C4476 H4462 0.960 . S
C4476 H4463 0.960 . S
C4476 C4475 1.524 . S
C4477 C4474 1.403 1_455 S
C4477 C4478 1.391 1_455 S
C4477 C4481 1.495 . S
C4478 C4477 1.391 1_655 S
C4478 C4479 1.387 . S
C4478 C4480 1.477 1_655 S
C4479 H4473 0.930 . S
C4479 C4475 1.400 . S
C4479 C4478 1.387 . S
C4480 C4478 1.477 1_455 S
C4480 C4482 1.381 . S
C4480 C4486 1.383 . S
C4481 C4477 1.495 . S
C4481 H4487 0.959 . S
C4481 H4488 0.961 . S
C4481 H4489 0.960 . S
C4482 C4480 1.381 . S
C4482 C4483 1.394 . S
C4482 H4490 0.930 . S
C4483 C4482 1.394 . S
C4483 C4484 1.383 . S
C4483 H4491 0.929 . S
C4484 C4483 1.383 . S
C4484 C4485 1.377 . S
C4485 H4469 0.930 . S
C4485 C4484 1.377 . S
C4485 C4486 1.379 . S
C4486 H4470 0.931 . S
C4486 C4480 1.383 . S
C4486 C4485 1.379 . S
H4487 C4481 0.959 . S
H4488 C4481 0.961 . S
H4489 C4481 0.960 . S
H4490 C4482 0.930 . S
H4491 C4483 0.929 . S
H4492 C4500 0.929 . S
H4493 C4502 0.930 . S
H4494 C4504 0.930 . S
H4495 C4507 0.929 . S
H4496 C4510 0.930 . S
H4497 C4512 0.960 . S
H4498 C4512 0.960 . S
H4499 C4512 0.960 . S
C4500 H4492 0.929 . S
C4500 C4501 1.377 . S
C4500 C4502 1.384 . S
C4501 C4500 1.377 . S
C4501 C4507 1.390 . S
C4502 H4493 0.930 . S
C4502 C4500 1.384 . S
C4502 C4503 1.372 . S
C4503 C4502 1.372 . S
C4503 C4504 1.400 . S
C4503 C4508 1.490 . S
C4504 H4494 0.930 . S
C4504 C4503 1.400 . S
C4504 C4507 1.386 . S
H4505 C4521 0.930 . S
H4506 C4522 0.931 . S
C4507 H4495 0.929 . S
C4507 C4501 1.390 . S
C4507 C4504 1.386 . S
C4508 C4503 1.490 . S
C4508 C4510 1.395 . S
C4508 C4511 1.403 . S
H4509 C4515 0.930 . S
C4510 H4496 0.930 . S
C4510 C4508 1.395 . S
C4510 C4513 1.403 . S
C4511 C4508 1.403 . S
C4511 C4512 1.524 . S
C4511 C4515 1.400 . S
C4512 H4497 0.960 . S
C4512 H4498 0.960 . S
C4512 H4499 0.960 . S
C4512 C4511 1.524 . S
C4513 C4510 1.403 . S
C4513 C4514 1.392 . S
C4513 C4517 1.495 . S
C4514 C4513 1.392 . S
C4514 C4515 1.385 . S
C4514 C4516 1.478 . S
C4515 H4509 0.930 . S
C4515 C4511 1.400 . S
C4515 C4514 1.385 . S
C4516 C4514 1.478 . S
C4516 C4518 1.381 . S
C4516 C4522 1.383 . S
C4517 C4513 1.495 . S
C4517 H4523 0.959 . S
C4517 H4524 0.961 . S
C4517 H4525 0.960 . S
C4518 C4516 1.381 . S
C4518 C4519 1.394 . S
C4518 H4526 0.930 . S
C4519 C4518 1.394 . S
C4519 C4520 1.383 . S
C4519 H4527 0.929 . S
C4520 C4519 1.383 . S
C4520 C4521 1.377 . S
C4521 H4505 0.930 . S
C4521 C4520 1.377 . S
C4521 C4522 1.379 . S
C4522 H4506 0.931 . S
C4522 C4516 1.383 . S
C4522 C4521 1.379 . S
H4523 C4517 0.959 . S
H4524 C4517 0.961 . S
H4525 C4517 0.960 . S
H4526 C4518 0.930 . S
H4527 C4519 0.929 . S
H4528 C4536 0.929 . S
H4529 C4538 0.930 . S
H4530 C4540 0.930 . S
H4531 C4543 0.929 . S
H4532 C4546 0.930 . S
H4533 C4548 0.960 . S
H4534 C4548 0.960 . S
H4535 C4548 0.960 . S
C4536 H4528 0.929 . S
C4536 C4537 1.377 . S
C4536 C4538 1.384 . S
C4537 C4536 1.377 . S
C4537 C4543 1.390 . S
C4538 H4529 0.930 . S
C4538 C4536 1.384 . S
C4538 C4539 1.372 . S
C4539 C4538 1.372 . S
C4539 C4540 1.400 . S
C4539 C4544 1.490 . S
C4540 H4530 0.930 . S
C4540 C4539 1.400 . S
C4540 C4543 1.386 . S
H4541 C4557 0.930 . S
H4542 C4558 0.931 . S
C4543 H4531 0.929 . S
C4543 C4537 1.390 . S
C4543 C4540 1.386 . S
C4544 C4539 1.490 . S
C4544 C4546 1.395 . S
C4544 C4547 1.403 . S
H4545 C4551 0.930 . S
C4546 H4532 0.930 . S
C4546 C4544 1.395 . S
C4546 C4549 1.403 . S
C4547 C4544 1.403 . S
C4547 C4548 1.524 . S
C4547 C4551 1.400 . S
C4548 H4533 0.960 . S
C4548 H4534 0.960 . S
C4548 H4535 0.960 . S
C4548 C4547 1.524 . S
C4549 C4546 1.403 . S
C4549 C4550 1.392 . S
C4549 C4553 1.495 . S
C4550 C4549 1.392 . S
C4550 C4551 1.385 . S
C4550 C4552 1.478 . S
C4551 H4545 0.930 . S
C4551 C4547 1.400 . S
C4551 C4550 1.385 . S
C4552 C4550 1.478 . S
C4552 C4554 1.381 . S
C4552 C4558 1.383 . S
C4553 C4549 1.495 . S
C4553 H4559 0.959 . S
C4553 H4560 0.961 . S
C4553 H4561 0.960 . S
C4554 C4552 1.381 . S
C4554 C4555 1.394 . S
C4554 H4562 0.930 . S
C4555 C4554 1.394 . S
C4555 C4556 1.383 . S
C4555 H4563 0.929 . S
C4556 C4555 1.383 . S
C4556 C4557 1.377 . S
C4557 H4541 0.930 . S
C4557 C4556 1.377 . S
C4557 C4558 1.379 . S
C4558 H4542 0.931 . S
C4558 C4552 1.383 . S
C4558 C4557 1.379 . S
H4559 C4553 0.959 . S
H4560 C4553 0.961 . S
H4561 C4553 0.960 . S
H4562 C4554 0.930 . S
H4563 C4555 0.929 . S
H4564 C4572 0.929 . S
H4565 C4574 0.930 . S
H4566 C4576 0.930 . S
H4567 C4579 0.929 . S
H4568 C4582 0.930 . S
H4569 C4584 0.960 . S
H4570 C4584 0.960 . S
H4571 C4584 0.960 . S
C4572 H4564 0.929 . S
C4572 C4573 1.377 . S
C4572 C4574 1.384 . S
C4573 C4572 1.377 . S
C4573 C4579 1.390 . S
C4574 H4565 0.930 . S
C4574 C4572 1.384 . S
C4574 C4575 1.372 . S
C4575 C4574 1.372 . S
C4575 C4576 1.400 . S
C4575 C4580 1.490 . S
C4576 H4566 0.930 . S
C4576 C4575 1.400 . S
C4576 C4579 1.386 . S
H4577 C4593 0.930 . S
H4578 C4594 0.931 . S
C4579 H4567 0.929 . S
C4579 C4573 1.390 . S
C4579 C4576 1.386 . S
C4580 C4575 1.490 . S
C4580 C4582 1.395 . S
C4580 C4583 1.403 . S
H4581 C4587 0.930 . S
C4582 H4568 0.930 . S
C4582 C4580 1.395 . S
C4582 C4585 1.403 . S
C4583 C4580 1.403 . S
C4583 C4584 1.524 . S
C4583 C4587 1.400 . S
C4584 H4569 0.960 . S
C4584 H4570 0.960 . S
C4584 H4571 0.960 . S
C4584 C4583 1.524 . S
C4585 C4582 1.403 . S
C4585 C4586 1.392 . S
C4585 C4589 1.495 . S
C4586 C4585 1.392 . S
C4586 C4587 1.385 . S
C4586 C4588 1.478 . S
C4587 H4581 0.930 . S
C4587 C4583 1.400 . S
C4587 C4586 1.385 . S
C4588 C4586 1.478 . S
C4588 C4590 1.381 . S
C4588 C4594 1.383 . S
C4589 C4585 1.495 . S
C4589 H4595 0.959 . S
C4589 H4596 0.961 . S
C4589 H4597 0.960 . S
C4590 C4588 1.381 . S
C4590 C4591 1.394 . S
C4590 H4598 0.930 . S
C4591 C4590 1.394 . S
C4591 C4592 1.383 . S
C4591 H4599 0.929 . S
C4592 C4591 1.383 . S
C4592 C4593 1.377 . S
C4593 H4577 0.930 . S
C4593 C4592 1.377 . S
C4593 C4594 1.379 . S
C4594 H4578 0.931 . S
C4594 C4588 1.383 . S
C4594 C4593 1.379 . S
H4595 C4589 0.959 . S
H4596 C4589 0.961 . S
H4597 C4589 0.960 . S
H4598 C4590 0.930 . S
H4599 C4591 0.929 . S
H4600 C4608 0.929 . S
H4601 C4610 0.930 . S
H4602 C4612 0.930 . S
H4603 C4615 0.929 . S
H4604 C4618 0.930 . S
H4605 C4620 0.960 . S
H4606 C4620 0.960 . S
H4607 C4620 0.960 . S
C4608 H4600 0.929 . S
C4608 C4609 1.377 . S
C4608 C4610 1.384 . S
C4609 C4608 1.377 . S
C4609 C4615 1.390 . S
C4610 H4601 0.930 . S
C4610 C4608 1.384 . S
C4610 C4611 1.372 . S
C4611 C4610 1.372 . S
C4611 C4612 1.400 . S
C4611 C4616 1.490 . S
C4612 H4602 0.930 . S
C4612 C4611 1.400 . S
C4612 C4615 1.386 . S
H4613 C4629 0.930 . S
H4614 C4630 0.931 . S
C4615 H4603 0.929 . S
C4615 C4609 1.390 . S
C4615 C4612 1.386 . S
C4616 C4611 1.490 . S
C4616 C4618 1.395 . S
C4616 C4619 1.403 . S
H4617 C4623 0.930 . S
C4618 H4604 0.930 . S
C4618 C4616 1.395 . S
C4618 C4621 1.403 . S
C4619 C4616 1.403 . S
C4619 C4620 1.524 . S
C4619 C4623 1.400 . S
C4620 H4605 0.960 . S
C4620 H4606 0.960 . S
C4620 H4607 0.960 . S
C4620 C4619 1.524 . S
C4621 C4618 1.403 . S
C4621 C4622 1.392 . S
C4621 C4625 1.495 . S
C4622 C4621 1.392 . S
C4622 C4623 1.385 . S
C4622 C4624 1.478 . S
C4623 H4617 0.930 . S
C4623 C4619 1.400 . S
C4623 C4622 1.385 . S
C4624 C4622 1.478 . S
C4624 C4626 1.381 1_655 S
C4624 C4630 1.383 . S
C4625 C4621 1.495 . S
C4625 H4631 0.959 . S
C4625 H4632 0.961 . S
C4625 H4633 0.960 1_655 S
C4626 C4624 1.381 1_455 S
C4626 C4627 1.394 . S
C4626 H4634 0.930 . S
C4627 C4626 1.394 . S
C4627 C4628 1.383 . S
C4627 H4635 0.929 . S
C4628 C4627 1.383 . S
C4628 C4629 1.377 1_455 S
C4629 H4613 0.930 . S
C4629 C4628 1.377 1_655 S
C4629 C4630 1.379 . S
C4630 H4614 0.931 . S
C4630 C4624 1.383 . S
C4630 C4629 1.379 . S
H4631 C4625 0.959 . S
H4632 C4625 0.961 . S
H4633 C4625 0.960 1_455 S
H4634 C4626 0.930 . S
H4635 C4627 0.929 . S
H4636 C4644 0.929 . S
H4637 C4646 0.930 . S
H4638 C4648 0.930 . S
H4639 C4651 0.929 . S
H4640 C4654 0.930 . S
H4641 C4656 0.960 . S
H4642 C4656 0.960 . S
H4643 C4656 0.960 . S
C4644 H4636 0.929 . S
C4644 C4645 1.377 . S
C4644 C4646 1.384 . S
C4645 C4644 1.377 . S
C4645 C4651 1.390 . S
C4646 H4637 0.930 . S
C4646 C4644 1.384 . S
C4646 C4647 1.372 . S
C4647 C4646 1.372 . S
C4647 C4648 1.400 . S
C4647 C4652 1.490 . S
C4648 H4638 0.930 . S
C4648 C4647 1.400 . S
C4648 C4651 1.386 . S
H4649 C4665 0.930 . S
H4650 C4666 0.931 . S
C4651 H4639 0.929 . S
C4651 C4645 1.390 . S
C4651 C4648 1.386 . S
C4652 C4647 1.490 . S
C4652 C4654 1.395 . S
C4652 C4655 1.403 . S
H4653 C4659 0.930 . S
C4654 H4640 0.930 . S
C4654 C4652 1.395 . S
C4654 C4657 1.403 . S
C4655 C4652 1.403 . S
C4655 C4656 1.524 . S
C4655 C4659 1.400 . S
C4656 H4641 0.960 . S
C4656 H4642 0.960 . S
C4656 H4643 0.960 . S
C4656 C4655 1.524 . S
C4657 C4654 1.403 . S
C4657 C4658 1.392 . S
C4657 C4661 1.495 . S
C4658 C4657 1.392 . S
C4658 C4659 1.385 . S
C4658 C4660 1.478 . S
C4659 H4653 0.930 . S
C4659 C4655 1.400 . S
C4659 C4658 1.385 . S
C4660 C4658 1.478 . S
C4660 C4662 1.381 . S
C4660 C4666 1.383 . S
C4661 C4657 1.495 . S
C4661 H4667 0.959 . S
C4661 H4668 0.961 . S
C4661 H4669 0.960 . S
C4662 C4660 1.381 . S
C4662 C4663 1.394 . S
C4662 H4670 0.930 . S
C4663 C4662 1.394 . S
C4663 C4664 1.383 . S
C4663 H4671 0.929 . S
C4664 C4663 1.383 . S
C4664 C4665 1.377 . S
C4665 H4649 0.930 . S
C4665 C4664 1.377 . S
C4665 C4666 1.379 . S
C4666 H4650 0.931 . S
C4666 C4660 1.383 . S
C4666 C4665 1.379 . S
H4667 C4661 0.959 . S
H4668 C4661 0.961 . S
H4669 C4661 0.960 . S
H4670 C4662 0.930 . S
H4671 C4663 0.929 . S
H4672 C4680 0.929 . S
H4673 C4682 0.930 . S
H4674 C4684 0.930 . S
H4675 C4687 0.929 . S
H4676 C4690 0.930 . S
H4677 C4692 0.960 . S
H4678 C4692 0.960 . S
H4679 C4692 0.960 . S
C4680 H4672 0.929 . S
C4680 C4681 1.377 . S
C4680 C4682 1.384 . S
C4681 C4680 1.377 . S
C4681 C4687 1.390 . S
C4682 H4673 0.930 . S
C4682 C4680 1.384 . S
C4682 C4683 1.372 . S
C4683 C4682 1.372 . S
C4683 C4684 1.400 . S
C4683 C4688 1.490 . S
C4684 H4674 0.930 . S
C4684 C4683 1.400 . S
C4684 C4687 1.386 . S
H4685 C4701 0.930 . S
H4686 C4702 0.931 . S
C4687 H4675 0.929 . S
C4687 C4681 1.390 . S
C4687 C4684 1.386 . S
C4688 C4683 1.490 . S
C4688 C4690 1.395 . S
C4688 C4691 1.403 . S
H4689 C4695 0.930 . S
C4690 H4676 0.930 . S
C4690 C4688 1.395 . S
C4690 C4693 1.403 . S
C4691 C4688 1.403 . S
C4691 C4692 1.524 . S
C4691 C4695 1.400 . S
C4692 H4677 0.960 . S
C4692 H4678 0.960 . S
C4692 H4679 0.960 . S
C4692 C4691 1.524 . S
C4693 C4690 1.403 . S
C4693 C4694 1.392 . S
C4693 C4697 1.495 . S
C4694 C4693 1.392 . S
C4694 C4695 1.385 . S
C4694 C4696 1.478 . S
C4695 H4689 0.930 . S
C4695 C4691 1.400 . S
C4695 C4694 1.385 . S
C4696 C4694 1.478 . S
C4696 C4698 1.381 . S
C4696 C4702 1.383 . S
C4697 C4693 1.495 . S
C4697 H4703 0.959 . S
C4697 H4704 0.961 . S
C4697 H4705 0.960 . S
C4698 C4696 1.381 . S
C4698 C4699 1.394 . S
C4698 H4706 0.930 . S
C4699 C4698 1.394 . S
C4699 C4700 1.383 . S
C4699 H4707 0.929 . S
C4700 C4699 1.383 . S
C4700 C4701 1.377 . S
C4701 H4685 0.930 . S
C4701 C4700 1.377 . S
C4701 C4702 1.379 . S
C4702 H4686 0.931 . S
C4702 C4696 1.383 . S
C4702 C4701 1.379 . S
H4703 C4697 0.959 . S
H4704 C4697 0.961 . S
H4705 C4697 0.960 . S
H4706 C4698 0.930 . S
H4707 C4699 0.929 . S
H4708 C4716 0.929 . S
H4709 C4718 0.930 . S
H4710 C4720 0.930 . S
H4711 C4723 0.929 . S
H4712 C4726 0.930 . S
H4713 C4728 0.960 . S
H4714 C4728 0.960 . S
H4715 C4728 0.960 . S
C4716 H4708 0.929 . S
C4716 C4717 1.377 . S
C4716 C4718 1.384 . S
C4717 C4716 1.377 . S
C4717 C4723 1.390 . S
C4718 H4709 0.930 . S
C4718 C4716 1.384 . S
C4718 C4719 1.372 . S
C4719 C4718 1.372 . S
C4719 C4720 1.400 . S
C4719 C4724 1.490 . S
C4720 H4710 0.930 . S
C4720 C4719 1.400 . S
C4720 C4723 1.386 . S
H4721 C4737 0.930 . S
H4722 C4738 0.931 . S
C4723 H4711 0.929 . S
C4723 C4717 1.390 . S
C4723 C4720 1.386 . S
C4724 C4719 1.490 . S
C4724 C4726 1.395 . S
C4724 C4727 1.403 . S
H4725 C4731 0.930 . S
C4726 H4712 0.930 . S
C4726 C4724 1.395 . S
C4726 C4729 1.403 . S
C4727 C4724 1.403 . S
C4727 C4728 1.524 . S
C4727 C4731 1.400 . S
C4728 H4713 0.960 . S
C4728 H4714 0.960 . S
C4728 H4715 0.960 . S
C4728 C4727 1.524 . S
C4729 C4726 1.403 . S
C4729 C4730 1.392 . S
C4729 C4733 1.495 . S
C4730 C4729 1.392 . S
C4730 C4731 1.385 . S
C4730 C4732 1.478 . S
C4731 H4725 0.930 . S
C4731 C4727 1.400 . S
C4731 C4730 1.385 . S
C4732 C4730 1.478 . S
C4732 C4734 1.381 . S
C4732 C4738 1.383 . S
C4733 C4729 1.495 . S
C4733 H4739 0.959 . S
C4733 H4740 0.961 . S
C4733 H4741 0.960 . S
C4734 C4732 1.381 . S
C4734 C4735 1.394 1_565 S
C4734 H4742 0.946 . S
C4735 C4734 1.394 1_545 S
C4735 C4736 1.382 . S
C4735 H4743 0.929 . S
C4736 C4735 1.382 . S
C4736 C4737 1.379 1_545 S
C4737 H4721 0.930 . S
C4737 C4736 1.379 1_565 S
C4737 C4738 1.379 . S
C4738 H4722 0.931 . S
C4738 C4732 1.383 . S
C4738 C4737 1.379 . S
H4739 C4733 0.959 . S
H4740 C4733 0.961 . S
H4741 C4733 0.960 . S
H4742 C4734 0.946 . S
H4743 C4735 0.929 . S
H4744 C4752 0.929 . S
H4745 C4754 0.930 . S
H4746 C4756 0.930 . S
H4747 C4759 0.929 . S
H4748 C4762 0.930 . S
H4749 C4764 0.960 . S
H4750 C4764 0.960 . S
H4751 C4764 0.960 . S
C4752 H4744 0.929 . S
C4752 C4753 1.377 . S
C4752 C4754 1.384 . S
C4753 C4752 1.377 . S
C4753 C4759 1.390 . S
C4754 H4745 0.930 . S
C4754 C4752 1.384 . S
C4754 C4755 1.372 . S
C4755 C4754 1.372 . S
C4755 C4756 1.400 . S
C4755 C4760 1.490 . S
C4756 H4746 0.930 . S
C4756 C4755 1.400 . S
C4756 C4759 1.386 . S
H4757 C4773 0.930 . S
H4758 C4774 0.931 . S
C4759 H4747 0.929 . S
C4759 C4753 1.390 . S
C4759 C4756 1.386 . S
C4760 C4755 1.490 . S
C4760 C4762 1.395 . S
C4760 C4763 1.403 . S
H4761 C4767 0.930 . S
C4762 H4748 0.930 . S
C4762 C4760 1.395 . S
C4762 C4765 1.403 . S
C4763 C4760 1.403 . S
C4763 C4764 1.524 . S
C4763 C4767 1.400 . S
C4764 H4749 0.960 . S
C4764 H4750 0.960 . S
C4764 H4751 0.960 . S
C4764 C4763 1.524 . S
C4765 C4762 1.403 . S
C4765 C4766 1.392 . S
C4765 C4769 1.495 . S
C4766 C4765 1.392 . S
C4766 C4767 1.385 . S
C4766 C4768 1.478 . S
C4767 H4761 0.930 . S
C4767 C4763 1.400 . S
C4767 C4766 1.385 . S
C4768 C4766 1.478 . S
C4768 C4770 1.381 . S
C4768 C4774 1.383 . S
C4769 C4765 1.495 . S
C4769 H4775 0.959 . S
C4769 H4776 0.961 . S
C4769 H4777 0.960 . S
C4770 C4768 1.381 . S
C4770 C4771 1.394 . S
C4770 H4778 0.930 . S
C4771 C4770 1.394 . S
C4771 C4772 1.383 . S
C4771 H4779 0.929 . S
C4772 C4771 1.383 . S
C4772 C4773 1.377 . S
C4773 H4757 0.930 . S
C4773 C4772 1.377 . S
C4773 C4774 1.379 . S
C4774 H4758 0.931 . S
C4774 C4768 1.383 . S
C4774 C4773 1.379 . S
H4775 C4769 0.959 . S
H4776 C4769 0.961 . S
H4777 C4769 0.960 . S
H4778 C4770 0.930 . S
H4779 C4771 0.929 . S
H4780 C4788 0.929 . S
H4781 C4790 0.930 . S
H4782 C4792 0.930 . S
H4783 C4795 0.929 . S
H4784 C4798 0.930 . S
H4785 C4800 0.960 . S
H4786 C4800 0.960 . S
H4787 C4800 0.960 . S
C4788 H4780 0.929 . S
C4788 C4789 1.377 . S
C4788 C4790 1.384 . S
C4789 C4788 1.377 . S
C4789 C4795 1.390 . S
C4790 H4781 0.930 . S
C4790 C4788 1.384 . S
C4790 C4791 1.372 . S
C4791 C4790 1.372 . S
C4791 C4792 1.400 . S
C4791 C4796 1.490 . S
C4792 H4782 0.930 . S
C4792 C4791 1.400 . S
C4792 C4795 1.386 . S
H4793 C4809 0.930 . S
H4794 C4810 0.931 . S
C4795 H4783 0.929 . S
C4795 C4789 1.390 . S
C4795 C4792 1.386 . S
C4796 C4791 1.490 . S
C4796 C4798 1.395 . S
C4796 C4799 1.403 . S
H4797 C4803 0.930 . S
C4798 H4784 0.930 . S
C4798 C4796 1.395 . S
C4798 C4801 1.403 . S
C4799 C4796 1.403 . S
C4799 C4800 1.524 . S
C4799 C4803 1.400 . S
C4800 H4785 0.960 . S
C4800 H4786 0.960 . S
C4800 H4787 0.960 . S
C4800 C4799 1.524 . S
C4801 C4798 1.403 . S
C4801 C4802 1.392 . S
C4801 C4805 1.495 . S
C4802 C4801 1.392 . S
C4802 C4803 1.385 . S
C4802 C4804 1.478 . S
C4803 H4797 0.930 . S
C4803 C4799 1.400 . S
C4803 C4802 1.385 . S
C4804 C4802 1.478 . S
C4804 C4806 1.381 . S
C4804 C4810 1.383 . S
C4805 C4801 1.495 . S
C4805 H4811 0.959 . S
C4805 H4812 0.961 . S
C4805 H4813 0.960 . S
C4806 C4804 1.381 . S
C4806 C4807 1.394 . S
C4806 H4814 0.930 . S
C4807 C4806 1.394 . S
C4807 C4808 1.383 . S
C4807 H4815 0.929 . S
C4808 C4807 1.383 . S
C4808 C4809 1.377 . S
C4809 H4793 0.930 . S
C4809 C4808 1.377 . S
C4809 C4810 1.379 . S
C4810 H4794 0.931 . S
C4810 C4804 1.383 . S
C4810 C4809 1.379 . S
H4811 C4805 0.959 . S
H4812 C4805 0.961 . S
H4813 C4805 0.960 . S
H4814 C4806 0.930 . S
H4815 C4807 0.929 . S
H4816 C4824 0.929 . S
H4817 C4826 0.930 . S
H4818 C4828 0.930 . S
H4819 C4831 0.929 . S
H4820 C4834 0.930 . S
H4821 C4836 0.960 . S
H4822 C4836 0.960 . S
H4823 C4836 0.960 . S
C4824 H4816 0.929 . S
C4824 C4825 1.377 . S
C4824 C4826 1.384 . S
C4825 C4824 1.377 . S
C4825 C4831 1.390 . S
C4826 H4817 0.930 . S
C4826 C4824 1.384 . S
C4826 C4827 1.372 . S
C4827 C4826 1.372 . S
C4827 C4828 1.400 . S
C4827 C4832 1.490 . S
C4828 H4818 0.930 . S
C4828 C4827 1.400 . S
C4828 C4831 1.386 . S
H4829 C4845 0.930 . S
H4830 C4846 0.931 . S
C4831 H4819 0.929 . S
C4831 C4825 1.390 . S
C4831 C4828 1.386 . S
C4832 C4827 1.490 . S
C4832 C4834 1.395 . S
C4832 C4835 1.403 . S
H4833 C4839 0.930 . S
C4834 H4820 0.930 . S
C4834 C4832 1.395 . S
C4834 C4837 1.403 . S
C4835 C4832 1.403 . S
C4835 C4836 1.524 . S
C4835 C4839 1.400 . S
C4836 H4821 0.960 . S
C4836 H4822 0.960 . S
C4836 H4823 0.960 . S
C4836 C4835 1.524 . S
C4837 C4834 1.403 . S
C4837 C4838 1.392 . S
C4837 C4841 1.495 . S
C4838 C4837 1.392 . S
C4838 C4839 1.385 . S
C4838 C4840 1.478 . S
C4839 H4833 0.930 . S
C4839 C4835 1.400 . S
C4839 C4838 1.385 . S
C4840 C4838 1.478 . S
C4840 C4842 1.381 . S
C4840 C4846 1.383 . S
C4841 C4837 1.495 . S
C4841 H4847 0.959 . S
C4841 H4848 0.961 . S
C4841 H4849 0.960 . S
C4842 C4840 1.381 . S
C4842 C4843 1.394 . S
C4842 H4850 0.930 . S
C4843 C4842 1.394 . S
C4843 C4844 1.383 . S
C4843 H4851 0.929 . S
C4844 C4843 1.383 . S
C4844 C4845 1.377 . S
C4845 H4829 0.930 . S
C4845 C4844 1.377 . S
C4845 C4846 1.379 . S
C4846 H4830 0.931 . S
C4846 C4840 1.383 . S
C4846 C4845 1.379 . S
H4847 C4841 0.959 . S
H4848 C4841 0.961 . S
H4849 C4841 0.960 . S
H4850 C4842 0.930 . S
H4851 C4843 0.929 . S
H4852 C4860 0.929 . S
H4853 C4862 0.930 . S
H4854 C4864 0.930 . S
H4855 C4867 0.929 . S
H4856 C4870 0.930 . S
H4857 C4872 0.960 . S
H4858 C4872 0.960 . S
H4859 C4872 0.960 . S
C4860 H4852 0.929 . S
C4860 C4861 1.377 . S
C4860 C4862 1.384 . S
C4861 C4860 1.377 . S
C4861 C4867 1.390 . S
C4862 H4853 0.930 . S
C4862 C4860 1.384 . S
C4862 C4863 1.372 . S
C4863 C4862 1.372 . S
C4863 C4864 1.400 . S
C4863 C4868 1.490 . S
C4864 H4854 0.930 . S
C4864 C4863 1.400 . S
C4864 C4867 1.386 . S
H4865 C4881 0.930 . S
H4866 C4882 0.931 . S
C4867 H4855 0.929 . S
C4867 C4861 1.390 . S
C4867 C4864 1.386 . S
C4868 C4863 1.490 . S
C4868 C4870 1.395 1_554 S
C4868 C4871 1.403 . S
H4869 C4875 0.930 . S
C4870 H4856 0.930 . S
C4870 C4868 1.395 1_556 S
C4870 C4873 1.403 . S
C4871 C4868 1.403 . S
C4871 C4872 1.524 . S
C4871 C4875 1.400 . S
C4872 H4857 0.960 . S
C4872 H4858 0.960 . S
C4872 H4859 0.960 . S
C4872 C4871 1.524 . S
C4873 C4870 1.403 . S
C4873 C4874 1.392 1_556 S
C4873 C4877 1.495 . S
C4874 C4873 1.392 1_554 S
C4874 C4875 1.385 . S
C4874 C4876 1.478 . S
C4875 H4869 0.930 . S
C4875 C4871 1.400 . S
C4875 C4874 1.385 . S
C4876 C4874 1.478 . S
C4876 C4878 1.381 . S
C4876 C4882 1.383 . S
C4877 C4873 1.495 . S
C4877 H4883 0.959 . S
C4877 H4884 0.961 . S
C4877 H4885 0.960 . S
C4878 C4876 1.381 . S
C4878 C4879 1.394 1_554 S
C4878 H4886 0.935 . S
C4879 C4878 1.394 1_556 S
C4879 C4880 1.380 1_556 S
C4879 H4887 0.929 . S
C4880 C4879 1.380 1_554 S
C4880 C4881 1.383 . S
C4881 H4865 0.930 . S
C4881 C4880 1.383 . S
C4881 C4882 1.379 . S
C4882 H4866 0.931 . S
C4882 C4876 1.383 . S
C4882 C4881 1.379 . S
H4883 C4877 0.959 . S
H4884 C4877 0.961 . S
H4885 C4877 0.960 . S
H4886 C4878 0.935 . S
H4887 C4879 0.929 . S
H4888 C4896 0.929 . S
H4889 C4898 0.930 . S
H4890 C4900 0.930 . S
H4891 C4903 0.929 . S
H4892 C4906 0.930 . S
H4893 C4908 0.960 . S
H4894 C4908 0.960 . S
H4895 C4908 0.960 . S
C4896 H4888 0.929 . S
C4896 C4897 1.377 . S
C4896 C4898 1.384 . S
C4897 C4896 1.377 . S
C4897 C4903 1.390 . S
C4898 H4889 0.930 . S
C4898 C4896 1.384 . S
C4898 C4899 1.372 . S
C4899 C4898 1.372 . S
C4899 C4900 1.400 . S
C4899 C4904 1.490 . S
C4900 H4890 0.930 . S
C4900 C4899 1.400 . S
C4900 C4903 1.386 . S
H4901 C4917 0.930 . S
H4902 C4918 0.931 . S
C4903 H4891 0.929 . S
C4903 C4897 1.390 . S
C4903 C4900 1.386 . S
C4904 C4899 1.490 . S
C4904 C4906 1.395 . S
C4904 C4907 1.403 . S
H4905 C4911 0.930 . S
C4906 H4892 0.930 . S
C4906 C4904 1.395 . S
C4906 C4909 1.403 . S
C4907 C4904 1.403 . S
C4907 C4908 1.524 . S
C4907 C4911 1.400 . S
C4908 H4893 0.960 . S
C4908 H4894 0.960 . S
C4908 H4895 0.960 . S
C4908 C4907 1.524 . S
C4909 C4906 1.403 . S
C4909 C4910 1.392 . S
C4909 C4913 1.495 . S
C4910 C4909 1.392 . S
C4910 C4911 1.385 . S
C4910 C4912 1.478 . S
C4911 H4905 0.930 . S
C4911 C4907 1.400 . S
C4911 C4910 1.385 . S
C4912 C4910 1.478 . S
C4912 C4914 1.381 . S
C4912 C4918 1.383 . S
C4913 C4909 1.495 . S
C4913 H4919 0.959 . S
C4913 H4920 0.961 . S
C4913 H4921 0.960 . S
C4914 C4912 1.381 . S
C4914 C4915 1.394 . S
C4914 H4922 0.930 . S
C4915 C4914 1.394 . S
C4915 C4916 1.383 . S
C4915 H4923 0.929 . S
C4916 C4915 1.383 . S
C4916 C4917 1.377 . S
C4917 H4901 0.930 . S
C4917 C4916 1.377 . S
C4917 C4918 1.379 . S
C4918 H4902 0.931 . S
C4918 C4912 1.383 . S
C4918 C4917 1.379 . S
H4919 C4913 0.959 . S
H4920 C4913 0.961 . S
H4921 C4913 0.960 . S
H4922 C4914 0.930 . S
H4923 C4915 0.929 . S
H4924 C4932 0.929 . S
H4925 C4934 0.930 . S
H4926 C4936 0.930 . S
H4927 C4939 0.929 . S
H4928 C4942 0.930 . S
H4929 C4944 0.960 . S
H4930 C4944 0.960 . S
H4931 C4944 0.960 . S
C4932 H4924 0.929 . S
C4932 C4933 1.377 . S
C4932 C4934 1.384 . S
C4933 C4932 1.377 . S
C4933 C4939 1.390 . S
C4934 H4925 0.930 . S
C4934 C4932 1.384 . S
C4934 C4935 1.372 . S
C4935 C4934 1.372 . S
C4935 C4936 1.400 . S
C4935 C4940 1.490 . S
C4936 H4926 0.930 . S
C4936 C4935 1.400 . S
C4936 C4939 1.386 . S
H4937 C4953 0.930 . S
H4938 C4954 0.931 . S
C4939 H4927 0.929 . S
C4939 C4933 1.390 . S
C4939 C4936 1.386 . S
C4940 C4935 1.490 . S
C4940 C4942 1.395 . S
C4940 C4943 1.403 . S
H4941 C4947 0.930 . S
C4942 H4928 0.930 . S
C4942 C4940 1.395 . S
C4942 C4945 1.403 . S
C4943 C4940 1.403 . S
C4943 C4944 1.524 . S
C4943 C4947 1.400 . S
C4944 H4929 0.960 . S
C4944 H4930 0.960 . S
C4944 H4931 0.960 . S
C4944 C4943 1.524 . S
C4945 C4942 1.403 . S
C4945 C4946 1.392 . S
C4945 C4949 1.495 . S
C4946 C4945 1.392 . S
C4946 C4947 1.385 . S
C4946 C4948 1.478 . S
C4947 H4941 0.930 . S
C4947 C4943 1.400 . S
C4947 C4946 1.385 . S
C4948 C4946 1.478 . S
C4948 C4950 1.381 . S
C4948 C4954 1.383 . S
C4949 C4945 1.495 . S
C4949 H4955 0.959 . S
C4949 H4956 0.961 . S
C4949 H4957 0.960 . S
C4950 C4948 1.381 . S
C4950 C4951 1.394 . S
C4950 H4958 0.930 . S
C4951 C4950 1.394 . S
C4951 C4952 1.383 . S
C4951 H4959 0.929 . S
C4952 C4951 1.383 . S
C4952 C4953 1.377 . S
C4953 H4937 0.930 . S
C4953 C4952 1.377 . S
C4953 C4954 1.379 . S
C4954 H4938 0.931 . S
C4954 C4948 1.383 . S
C4954 C4953 1.379 . S
H4955 C4949 0.959 . S
H4956 C4949 0.961 . S
H4957 C4949 0.960 . S
H4958 C4950 0.930 . S
H4959 C4951 0.929 . S
C1513 C255 1.947 . S
C1532 C895 1.920 . S
C1549 C147 1.702 . S
C1568 C906 1.707 . S
C1585 C184 1.471 . S
C1604 C975 1.459 . S
C1640 C988 1.216 . S
C1621 C220 1.236 . S
C1657 C40 2.498 . S
C1676 C1044 2.459 . S
C1712 C1095 1.942 . S
C1693 C74 1.968 . S
C1748 C1124 2.455 . S
C1729 C110 2.469 . S
C1765 C14 2.283 . S
C1784 C1175 2.267 . S
C1820 C866 1.149 . S
C1801 C579 1.144 . S
C1837 C616 0.823 . S
C1856 C908 0.832 . S
C1892 C946 1.088 . S
C1873 C687 1.109 . S
C1928 C1015 1.605 . S
C1909 C436 1.590 . S
C1945 C580 0.490 . S
C1964 C1049 0.522 . S
C2000 C1066 1.449 . S
C1981 C615 1.447 . S
C2036 C1129 0.255 . S
C2017 C688 0.300 . S
C2072 C1146 2.059 . S
C2053 C435 2.110 . S
C2108 C868 1.400 1_565 S
C2089 C410 1.471 1_554 S
C2125 C722 1.655 . S
C2144 C1207 1.602 . S
C2180 C1228 1.220 . S
C2161 C842 1.303 . S
C2216 C1287 0.363 1_655 S
C2197 C794 0.294 . S
C2233 C302 0.863 . S
C2252 C1148 0.822 . S
C2269 C338 1.309 . S
C2288 C948 1.313 . S
C2305 C830 0.922 . S
C2324 C1306 0.910 . S
C2360 C1375 1.023 . S
C2341 C758 1.026 . S
C2396 C884 1.895 . S
C2377 C158 1.799 . S
C2432 C1367 1.693 . S
C2413 C254 1.695 . S
C2449 C218 1.477 . S
C2468 C964 1.476 . S
C2485 C194 1.170 . S
C2504 C1329 1.210 . S
C2540 C1055 2.423 . S
C2521 C3 2.435 . S
C2557 C111 1.853 . S
C2576 C1244 1.803 . S
C2612 C1135 2.366 1_556 S
C2593 C76 2.387 . S
C2648 C1404 2.341 . S
C2629 C50 2.298 1_655 S
C2684 C887 1.091 . S
C2665 C364 1.099 . S
C2720 C1369 0.852 . S
C2701 C795 0.814 . S
C2737 C292 1.029 . S
C2756 C967 1.006 . S
C2773 C723 1.515 . S
C2792 C1324 1.497 . S
C2809 C363 0.458 . S
C2828 C1028 0.441 . S
C2864 C1247 1.406 . S
C2845 C796 1.428 . S
C2881 C291 0.226 . S
C2900 C1108 0.350 . S
C2917 C724 2.068 . S
C2936 C1407 2.057 . S
C2953 C482 1.389 . S
C2972 C889 1.406 . S
C2989 C434 1.635 . S
C3008 C1186 1.574 . S
C3025 C662 1.188 . S
C3044 C1089 1.238 . S
C3061 C614 0.258 . S
C3080 C1266 0.363 . S
C3116 C1409 0.841 . S
C3097 C698 0.815 . S
C3133 C554 1.279 . S
C3152 C969 1.313 . S
C3188 C1007 0.825 . S
C3169 C650 0.835 . S
C3224 C924 0.993 . S
C3205 C506 0.974 . S
C3241 C183 1.945 . S
C3260 C1455 1.948 . S
C3296 C1346 1.703 . S
C3277 C219 1.707 . S
C3313 C256 1.469 . S
C3332 C1495 1.456 . S
C3349 C148 1.237 . S
C3368 C1308 1.201 . S
C3385 C122 2.446 . S
C3404 C1204 2.517 . S
C3440 C1255 1.901 . S
C3421 C2 1.909 . S
C3476 C1284 2.325 . S
C3457 C39 2.348 . S
C3512 C1415 2.342 . S
C3493 C86 2.351 . S
C3548 C1426 1.143 . S
C3529 C651 1.158 . S
C3565 C472 0.825 . S
C3584 C1348 0.855 . S
C3620 C1466 1.059 . S
C3601 C507 1.095 . S
C3656 C1335 1.605 . S
C3637 C544 1.598 . S
C3692 C1209 0.552 . S
C3673 C652 0.492 . S
C3709 C471 1.430 . S
C3728 C1226 1.423 . S
C3764 C1289 0.376 . S
C3745 C508 0.271 . S
C3781 C543 2.129 . S
C3800 C1386 2.102 . S
C3836 C1428 1.465 . S
C3817 C806 1.494 . S
C3853 C326 1.634 . S
C3872 C1047 1.579 . S
C3908 C1068 1.252 . S
C3889 C374 1.278 1_565 S
C3944 C1127 0.335 . S
C3925 C398 0.307 . S
C3980 C1388 0.894 . S
C3961 C770 0.863 . S
C3997 C734 1.310 . S
C4016 C1468 1.316 . S
C4052 C986 0.891 . S
C4033 C362 0.910 . S
C4088 C935 1.013 . S
C4069 C290 1.036 . S
C4105 C230 1.791 . S
C4124 C1444 1.871 . S
C4160 C927 1.694 . S
C4141 C182 1.691 . S
C4177 C146 1.476 . S
C4196 C1484 1.476 . S
C4213 C266 1.157 . S
C4232 C1009 1.168 . S
C4249 C75 2.497 . S
C4268 C1215 2.460 1_556 S
C4304 C1084 1.961 . S
C4285 C38 1.966 . S
C4321 C4 2.326 . S
C4340 C1295 2.313 . S
C4357 C112 2.288 . S
C4376 C1164 2.235 . S
C4412 C1447 1.086 . S
C4393 C832 1.103 . S
C4429 C399 0.825 . S
C4448 C929 0.774 . S
C4484 C1487 1.007 . S
C4465 C760 1.023 . S
C4501 C327 1.512 . S
C4520 C1004 1.491 . S
C4537 C831 0.465 . S
C4556 C1188 0.469 . S
C4592 C1087 1.406 . S
C4573 C400 1.430 . S
C4609 C759 0.231 . S
C4628 C1268 0.368 . S
C4664 C1167 2.058 . S
C4645 C328 2.077 . S
C4700 C1449 1.412 . S
C4681 C626 1.398 . S
C4736 C1026 1.581 . S
C4717 C542 1.633 . S
C4753 C590 1.147 . S
C4772 C1249 1.225 . S
C4808 C1106 0.347 . S
C4789 C470 0.275 . S
C4825 C518 0.803 . S
C4844 C1169 0.779 . S
C4861 C446 1.279 . S
C4880 C1489 1.351 . S
C4916 C1327 0.841 . S
C4897 C578 0.843 . S
C4952 C1364 0.966 . S
C4933 C686 0.948 . S
