# Generated by pormake.
# Topology ssa, (4,4)-cn, num edge types: 1
# Building blocks:
#     Node 0, Type 0, BuildingBlock: NAWXER_clean_sbu_0, # of connection points: 4
#     Node 1, Type 0, BuildingBlock: NAWXER_clean_sbu_0, # of connection points: 4
#     Node 2, Type 0, BuildingBlock: NAWXER_clean_sbu_0, # of connection points: 4
#     Node 3, Type 0, BuildingBlock: NAWXER_clean_sbu_0, # of connection points: 4
#     Node 4, Type 0, BuildingBlock: NAWXER_clean_sbu_0, # of connection points: 4
#     Node 5, Type 0, BuildingBlock: NAWXER_clean_sbu_0, # of connection points: 4
#     Node 6, Type 1, BuildingBlock: NAWXER_clean_sbu_0, # of connection points: 4
#     Node 7, Type 1, BuildingBlock: NAWXER_clean_sbu_0, # of connection points: 4
#     Node 8, Type 1, BuildingBlock: NAWXER_clean_sbu_0, # of connection points: 4
#     Node 9, Type 1, BuildingBlock: NAWXER_clean_sbu_0, # of connection points: 4
#     Node 10, Type 1, BuildingBlock: NAWXER_clean_sbu_0, # of connection points: 4
#     Node 11, Type 1, BuildingBlock: NAWXER_clean_sbu_0, # of connection points: 4
#     Edge 12, Type (0, 1), BuildingBlock: KIFKEQ_clean_linker_1, # of connection points: 2
#     Edge 13, Type (0, 1), BuildingBlock: KIFKEQ_clean_linker_1, # of connection points: 2
#     Edge 14, Type (0, 1), BuildingBlock: KIFKEQ_clean_linker_1, # of connection points: 2
#     Edge 15, Type (0, 1), BuildingBlock: KIFKEQ_clean_linker_1, # of connection points: 2
#     Edge 16, Type (0, 1), BuildingBlock: KIFKEQ_clean_linker_1, # of connection points: 2
#     Edge 17, Type (0, 1), BuildingBlock: KIFKEQ_clean_linker_1, # of connection points: 2
#     Edge 18, Type (0, 1), BuildingBlock: KIFKEQ_clean_linker_1, # of connection points: 2
#     Edge 19, Type (0, 1), BuildingBlock: KIFKEQ_clean_linker_1, # of connection points: 2
#     Edge 20, Type (0, 1), BuildingBlock: KIFKEQ_clean_linker_1, # of connection points: 2
#     Edge 21, Type (0, 1), BuildingBlock: KIFKEQ_clean_linker_1, # of connection points: 2
#     Edge 22, Type (0, 1), BuildingBlock: KIFKEQ_clean_linker_1, # of connection points: 2
#     Edge 23, Type (0, 1), BuildingBlock: KIFKEQ_clean_linker_1, # of connection points: 2
#     Edge 24, Type (0, 1), BuildingBlock: KIFKEQ_clean_linker_1, # of connection points: 2
#     Edge 25, Type (0, 1), BuildingBlock: KIFKEQ_clean_linker_1, # of connection points: 2
#     Edge 26, Type (0, 1), BuildingBlock: KIFKEQ_clean_linker_1, # of connection points: 2
#     Edge 27, Type (0, 1), BuildingBlock: KIFKEQ_clean_linker_1, # of connection points: 2
#     Edge 28, Type (0, 1), BuildingBlock: KIFKEQ_clean_linker_1, # of connection points: 2
#     Edge 29, Type (0, 1), BuildingBlock: KIFKEQ_clean_linker_1, # of connection points: 2
#     Edge 30, Type (0, 1), BuildingBlock: KIFKEQ_clean_linker_1, # of connection points: 2
#     Edge 31, Type (0, 1), BuildingBlock: KIFKEQ_clean_linker_1, # of connection points: 2
#     Edge 32, Type (0, 1), BuildingBlock: KIFKEQ_clean_linker_1, # of connection points: 2
#     Edge 33, Type (0, 1), BuildingBlock: KIFKEQ_clean_linker_1, # of connection points: 2
#     Edge 34, Type (0, 1), BuildingBlock: KIFKEQ_clean_linker_1, # of connection points: 2
#     Edge 35, Type (0, 1), BuildingBlock: KIFKEQ_clean_linker_1, # of connection points: 2
# Relax obj value: 0.024
# Max RMSD: 0.040
# Mean RMSD: 0.033
data_MOF--net-ssa--node1-NAWXER_clean_sbu_0--node2-NAWXER_clean_sbu_0--edge1-KIFKEQ_clean_linker_1
_symmetry_space_group_name_H-M    P1
_symmetry_Int_Tables_number       1
_symmetry_cell_setting            triclinic
loop_
_symmetry_equiv_pos_as_xyz
'x, y, z'
_cell_length_a     44.827672
_cell_length_b     44.847824
_cell_length_c     37.087601
_cell_angle_alpha  90.008864
_cell_angle_beta   90.106626
_cell_angle_gamma 120.03003
loop_
_atom_site_label
_atom_site_type_symbol
_atom_site_fract_x
_atom_site_fract_y
_atom_site_fract_z
_atom_type_partial_charge
C0 C 0.05402 0.61769 0.02094 0.0
C1 C 0.9908 0.51046 0.95048 0.0
O2 O 0.02468 0.59556 0.03375 0.0
Zn3 Zn 0.98306 0.54565 0.02278 0.0
O4 O 0.0643 0.61124 0.99149 0.0
Zn5 Zn 0.02404 0.56554 0.98284 0.0
O6 O 0.98384 0.57604 0.97214 0.0
O7 O 0.9442 0.55328 0.01452 0.0
O8 O 0.01915 0.53662 0.94095 0.0
O9 O 0.97623 0.51138 0.97978 0.0
O10 O 0.98669 0.52084 0.06458 0.0
O11 O 0.02941 0.53714 0.0257 0.0
C12 C 0.95494 0.57004 0.98514 0.0
C13 C 0.0145 0.52191 0.05498 0.0
C14 C 0.52255 0.08323 0.51047 0.0
C15 C 0.55573 0.00544 0.45396 0.0
O16 O 0.51178 0.05472 0.52728 0.0
Zn17 Zn 0.51509 0.00895 0.52371 0.0
O18 O 0.54019 0.08907 0.48182 0.0
Zn19 Zn 0.5398 0.04538 0.48169 0.0
O20 O 0.48592 0.00792 0.47239 0.0
O21 O 0.46731 0.97393 0.52001 0.0
O22 O 0.56299 0.03528 0.44338 0.0
O23 O 0.53858 0.99341 0.4832 0.0
O24 O 0.53972 0.01245 0.56789 0.0
O25 O 0.57117 0.05303 0.52857 0.0
C26 C 0.46148 0.98222 0.4891 0.0
C27 C 0.56787 0.03931 0.55971 0.0
C28 C 0.50408 0.43816 1.0044 0.0
C29 C 0.54656 0.54901 0.06467 0.0
O30 O 0.49553 0.45803 0.98817 0.0
Zn31 Zn 0.50334 0.50924 0.99408 0.0
O32 O 0.521 0.44787 0.03378 0.0
Zn33 Zn 0.52464 0.49275 0.03497 0.0
O34 O 0.47199 0.48027 0.044 0.0
O35 O 0.45697 0.50094 0.99785 0.0
O36 O 0.5496 0.52349 0.07428 0.0
O37 O 0.53047 0.54716 0.03535 0.0
O38 O 0.52825 0.52941 0.95006 0.0
O39 O 0.55667 0.51479 0.98807 0.0
C40 C 0.44938 0.485 0.02773 0.0
C41 C 0.55446 0.5266 0.9573 0.0
C42 C 0.0546 0.52259 0.48473 0.0
C43 C 0.99661 0.41578 0.55428 0.0
O44 O 0.06431 0.51537 0.51401 0.0
Zn45 Zn 0.02454 0.46987 0.52181 0.0
O46 O 0.02483 0.50122 0.47189 0.0
Zn47 Zn 0.98265 0.45136 0.48535 0.0
O48 O 0.94443 0.45868 0.49546 0.0
O49 O 0.98298 0.47771 0.53916 0.0
O50 O 0.9787 0.41623 0.52745 0.0
O51 O 0.02564 0.4422 0.56124 0.0
O52 O 0.02683 0.44115 0.47606 0.0
O53 O 0.9802 0.42522 0.44301 0.0
C54 C 0.95386 0.47196 0.52659 0.0
C55 C 0.00842 0.42557 0.44831 0.0
C56 C 0.50665 0.93476 0.00668 0.0
C57 C 0.46993 0.01076 0.95235 0.0
O58 O 0.51713 0.96307 0.02391 0.0
Zn59 Zn 0.51264 0.00845 0.02098 0.0
O60 O 0.48919 0.92918 0.97784 0.0
Zn61 Zn 0.48857 0.97226 0.97877 0.0
O62 O 0.54208 0.01072 0.96953 0.0
O63 O 0.55981 0.04451 0.01742 0.0
O64 O 0.46391 0.98146 0.94126 0.0
O65 O 0.48733 0.02312 0.98148 0.0
O66 O 0.48874 0.00398 0.06569 0.0
O67 O 0.45782 0.9629 0.02646 0.0
C68 C 0.56603 0.03673 0.98649 0.0
C69 C 0.46127 0.97622 0.05787 0.0
C70 C 0.5413 0.51868 0.5217 0.0
C71 C 0.43224 0.47476 0.45614 0.0
O72 O 0.51854 0.52214 0.53923 0.0
Zn73 Zn 0.46547 0.50898 0.53284 0.0
O74 O 0.53347 0.50353 0.49126 0.0
Zn75 Zn 0.48629 0.49383 0.48933 0.0
O76 O 0.49326 0.54452 0.48579 0.0
O77 O 0.46878 0.55407 0.5327 0.0
O78 O 0.45833 0.47258 0.4466 0.0
O79 O 0.43196 0.48687 0.48737 0.0
O80 O 0.44227 0.47635 0.57206 0.0
O81 O 0.46245 0.45603 0.53054 0.0
C82 C 0.48528 0.56424 0.50315 0.0
C83 C 0.44688 0.45223 0.5606 0.0
C84 C 0.25668 0.46094 0.27577 0.0
C85 C 0.1783 0.47191 0.19164 0.0
O86 O 0.23639 0.43267 0.2595 0.0
Zn87 Zn 0.19599 0.41424 0.22013 0.0
O88 O 0.25474 0.48769 0.2689 0.0
Zn89 Zn 0.21874 0.46774 0.23257 0.0
O90 O 0.17398 0.43414 0.26281 0.0
O91 O 0.15614 0.38015 0.24734 0.0
O92 O 0.20242 0.49579 0.21003 0.0
O93 O 0.17406 0.44139 0.19254 0.0
O94 O 0.21507 0.39979 0.18148 0.0
O95 O 0.24269 0.45616 0.18919 0.0
C96 C 0.1525 0.40192 0.26599 0.0
C97 C 0.23921 0.42954 0.17252 0.0
C98 C 0.8479 0.24742 0.73498 0.0
C99 C 0.77163 0.1919 0.83758 0.0
O100 O 0.82532 0.2566 0.73971 0.0
Zn101 Zn 0.78523 0.24795 0.77663 0.0
O102 O 0.8496 0.22638 0.75675 0.0
Zn103 Zn 0.81127 0.21986 0.78689 0.0
O104 O 0.76842 0.1957 0.74989 0.0
O105 O 0.74516 0.22886 0.74535 0.0
O106 O 0.79572 0.18708 0.82649 0.0
O107 O 0.76601 0.21395 0.82163 0.0
O108 O 0.803 0.29355 0.79727 0.0
O109 O 0.83365 0.26944 0.81257 0.0
C110 C 0.74537 0.20153 0.73661 0.0
C111 C 0.82861 0.29517 0.81389 0.0
C112 C 0.56537 0.83117 0.29074 0.0
C113 C 0.56843 0.73793 0.2245 0.0
O114 O 0.59216 0.83086 0.27999 0.0
Zn115 Zn 0.56839 0.78575 0.25662 0.0
O116 O 0.53553 0.80576 0.28295 0.0
Zn117 Zn 0.51323 0.75747 0.25517 0.0
O118 O 0.48724 0.72582 0.29356 0.0
O119 O 0.5436 0.75189 0.30165 0.0
O120 O 0.53786 0.73203 0.23096 0.0
O121 O 0.59426 0.76634 0.23434 0.0
O122 O 0.54589 0.79503 0.2104 0.0
O123 O 0.48934 0.76407 0.2147 0.0
C124 C 0.51297 0.73083 0.31266 0.0
C125 C 0.51596 0.78541 0.19729 0.0
C126 C 0.81379 0.56806 0.77736 0.0
C127 C 0.74253 0.56004 0.6727 0.0
O128 O 0.79061 0.53738 0.76887 0.0
Zn129 Zn 0.75151 0.5109 0.72941 0.0
O130 O 0.81805 0.59313 0.75761 0.0
Zn131 Zn 0.78067 0.56613 0.72341 0.0
O132 O 0.73756 0.54707 0.75884 0.0
O133 O 0.7103 0.49022 0.75984 0.0
O134 O 0.76696 0.58771 0.68605 0.0
O135 O 0.7353 0.53097 0.68642 0.0
O136 O 0.76749 0.48318 0.70456 0.0
O137 O 0.79974 0.53866 0.69283 0.0
C138 C 0.71301 0.51845 0.77066 0.0
C139 C 0.79281 0.50751 0.68799 0.0
C140 C 0.29531 0.81 0.24016 0.0
C141 C 0.21336 0.72039 0.32241 0.0
O142 O 0.2702 0.81396 0.2502 0.0
Zn143 Zn 0.22597 0.79021 0.28404 0.0
O144 O 0.29782 0.78476 0.25229 0.0
Zn145 Zn 0.25566 0.76453 0.28121 0.0
O146 O 0.21732 0.75043 0.24008 0.0
O147 O 0.18985 0.77922 0.24833 0.0
O148 O 0.24 0.72203 0.30829 0.0
O149 O 0.2059 0.74388 0.3152 0.0
O150 O 0.23823 0.82621 0.32043 0.0
O151 O 0.27038 0.80176 0.32297 0.0
C152 C 0.19441 0.75782 0.22998 0.0
C153 C 0.26251 0.82363 0.33517 0.0
C154 C 0.49372 0.27938 0.81197 0.0
C155 C 0.49912 0.22606 0.69888 0.0
O156 O 0.52076 0.28607 0.79446 0.0
Zn157 Zn 0.49791 0.25327 0.75564 0.0
O158 O 0.46413 0.25684 0.79972 0.0
Zn159 Zn 0.44255 0.22262 0.75484 0.0
O160 O 0.42033 0.17744 0.77858 0.0
O161 O 0.47695 0.20547 0.78359 0.0
O162 O 0.46834 0.21511 0.71018 0.0
O163 O 0.52455 0.24797 0.71753 0.0
O164 O 0.47214 0.27527 0.72716 0.0
O165 O 0.41588 0.24075 0.73093 0.0
C166 C 0.44768 0.17901 0.7907 0.0
C167 C 0.4415 0.26856 0.71951 0.0
H168 H 0.02033 0.52261 0.12877 0.0
H169 H 0.04897 0.49083 0.03119 0.0
H170 H 0.05875 0.50896 0.16358 0.0
H171 H 0.08682 0.47709 0.06559 0.0
H172 H 0.13 0.42928 0.14301 0.0
H173 H 0.08603 0.43712 0.11293 0.0
H174 H 0.12458 0.53549 0.16568 0.0
H175 H 0.16878 0.5277 0.196 0.0
C176 C 0.03409 0.51187 0.11498 0.0
C177 C 0.03165 0.50765 0.07738 0.0
C178 C 0.05637 0.50448 0.13475 0.0
C179 C 0.07596 0.49218 0.11724 0.0
C180 C 0.07196 0.48632 0.0799 0.0
C181 C 0.05029 0.4942 0.06021 0.0
C182 C 0.12927 0.45269 0.14813 0.0
C183 C 0.15313 0.47801 0.17169 0.0
C184 C 0.104 0.45711 0.13093 0.0
C185 C 0.10172 0.48681 0.13711 0.0
C186 C 0.12543 0.51212 0.16078 0.0
C187 C 0.15101 0.50785 0.17776 0.0
H188 H 0.63654 0.08204 0.54837 0.0
H189 H 0.56013 0.03971 0.63269 0.0
H190 H 0.67975 0.11976 0.59244 0.0
H191 H 0.60325 0.07818 0.67656 0.0
H192 H 0.68091 0.19092 0.7214 0.0
H193 H 0.638 0.14803 0.68018 0.0
H194 H 0.70881 0.11286 0.65294 0.0
H195 H 0.75137 0.155 0.69464 0.0
C196 C 0.62914 0.08042 0.57641 0.0
C197 C 0.59502 0.0578 0.58713 0.0
C198 C 0.65383 0.10203 0.60156 0.0
C199 C 0.64468 0.10202 0.63775 0.0
C200 C 0.61083 0.07879 0.64873 0.0
C201 C 0.58631 0.05657 0.62371 0.0
C202 C 0.68727 0.17401 0.70663 0.0
C203 C 0.71948 0.17632 0.71124 0.0
C204 C 0.66267 0.14935 0.6833 0.0
C205 C 0.67014 0.12712 0.66358 0.0
C206 C 0.70246 0.1297 0.66786 0.0
C207 C 0.72673 0.15378 0.69175 0.0
H208 H 0.56017 0.55303 0.13691 0.0
H209 H 0.55928 0.61348 0.04668 0.0
H210 H 0.57176 0.60047 0.1778 0.0
H211 H 0.57162 0.66114 0.08763 0.0
H212 H 0.61774 0.74796 0.17465 0.0
H213 H 0.61898 0.70385 0.13621 0.0
H214 H 0.52965 0.62487 0.19149 0.0
H215 H 0.52781 0.66869 0.22893 0.0
C216 C 0.56323 0.5767 0.12569 0.0
C217 C 0.55858 0.57942 0.08858 0.0
C218 C 0.56977 0.60378 0.14913 0.0
C219 C 0.57256 0.6344 0.13583 0.0
C220 C 0.56987 0.63791 0.09852 0.0
C221 C 0.56262 0.61056 0.07515 0.0
C222 C 0.5988 0.72111 0.1789 0.0
C223 C 0.57265 0.71168 0.20468 0.0
C224 C 0.5994 0.69598 0.15685 0.0
C225 C 0.57445 0.66101 0.161 0.0
C226 C 0.54936 0.65158 0.18794 0.0
C227 C 0.54824 0.67666 0.20925 0.0
H228 H 0.95334 0.47544 0.59999 0.0
H229 H 0.90066 0.48147 0.50505 0.0
H230 H 0.91256 0.48203 0.63819 0.0
H231 H 0.86039 0.48895 0.54347 0.0
H232 H 0.82976 0.54641 0.63087 0.0
H233 H 0.86774 0.53718 0.59095 0.0
H234 H 0.84408 0.44472 0.64929 0.0
H235 H 0.80519 0.45342 0.68888 0.0
C236 C 0.93329 0.47854 0.58726 0.0
C237 C 0.93033 0.47811 0.54946 0.0
C238 C 0.90979 0.48199 0.60917 0.0
C239 C 0.88327 0.48583 0.59377 0.0
C240 C 0.88063 0.48604 0.556 0.0
C241 C 0.90367 0.48179 0.53406 0.0
C242 C 0.83246 0.52397 0.63507 0.0
C243 C 0.81452 0.50064 0.66306 0.0
C244 C 0.85408 0.51865 0.61211 0.0
C245 C 0.85889 0.49032 0.61711 0.0
C246 C 0.84091 0.46687 0.64499 0.0
C247 C 0.81857 0.47175 0.66749 0.0
H248 H 0.4717 0.97761 0.13062 0.0
H249 H 0.39376 0.92797 0.0483 0.0
H250 H 0.43206 0.9371 0.1755 0.0
H251 H 0.35413 0.888 0.09321 0.0
H252 H 0.28413 0.84997 0.19374 0.0
H253 H 0.3241 0.89211 0.15103 0.0
H254 H 0.40275 0.86907 0.18399 0.0
H255 H 0.36228 0.82611 0.22696 0.0
C256 C 0.44587 0.9586 0.12229 0.0
C257 C 0.43571 0.95609 0.086 0.0
C258 C 0.42342 0.93516 0.14785 0.0
C259 C 0.39022 0.9093 0.13769 0.0
C260 C 0.3796 0.90773 0.10174 0.0
C261 C 0.40222 0.93067 0.0761 0.0
C262 C 0.30993 0.85379 0.19199 0.0
C263 C 0.32008 0.8347 0.21377 0.0
C264 C 0.33275 0.87788 0.16742 0.0
C265 C 0.36647 0.88391 0.16433 0.0
C266 C 0.37689 0.86505 0.18614 0.0
C267 C 0.35373 0.84034 0.21045 0.0
H268 H 0.41996 0.43698 0.62949 0.0
H269 H 0.45281 0.39681 0.54169 0.0
H270 H 0.41308 0.38926 0.66786 0.0
H271 H 0.44617 0.34988 0.57989 0.0
H272 H 0.48911 0.31617 0.67484 0.0
H273 H 0.48409 0.35715 0.63631 0.0
H274 H 0.37965 0.31853 0.67236 0.0
H275 H 0.38443 0.27646 0.71123 0.0
C276 C 0.42508 0.41773 0.61816 0.0
C277 C 0.43741 0.42105 0.58264 0.0
C278 C 0.42101 0.39039 0.64009 0.0
C279 C 0.42945 0.36615 0.6269 0.0
C280 C 0.43983 0.36842 0.59085 0.0
C281 C 0.44363 0.3954 0.56898 0.0
C282 C 0.46497 0.31622 0.67472 0.0
C283 C 0.43714 0.29298 0.69614 0.0
C284 C 0.46208 0.33965 0.65244 0.0
C285 C 0.43144 0.34089 0.6512 0.0
C286 C 0.40357 0.31806 0.67289 0.0
C287 C 0.40625 0.29396 0.69492 0.0
H288 H 0.54014 0.93964 0.46827 0.0
H289 H 0.58969 0.02024 0.38874 0.0
H290 H 0.54647 0.89993 0.42875 0.0
H291 H 0.59614 0.98 0.34906 0.0
H292 H 0.62215 0.89483 0.30542 0.0
H293 H 0.62455 0.93975 0.34551 0.0
H294 H 0.51618 0.87537 0.36818 0.0
H295 H 0.51355 0.83114 0.32846 0.0
C296 C 0.55283 0.9491 0.44256 0.0
C297 C 0.56405 0.9831 0.43155 0.0
C298 C 0.55636 0.92624 0.41988 0.0
C299 C 0.57144 0.93678 0.38569 0.0
C300 C 0.58448 0.97125 0.37533 0.0
C301 C 0.58067 0.9942 0.398 0.0
C302 C 0.59888 0.89042 0.3189 0.0
C303 C 0.56769 0.85935 0.31376 0.0
C304 C 0.60025 0.91613 0.3417 0.0
C305 C 0.57062 0.91084 0.36019 0.0
C306 C 0.53953 0.87997 0.35468 0.0
C307 C 0.53803 0.85468 0.33168 0.0
H308 H 0.54351 0.51924 0.88458 0.0
H309 H 0.62097 0.54181 0.96605 0.0
H310 H 0.58138 0.51627 0.83888 0.0
H311 H 0.65899 0.5396 0.92022 0.0
H312 H 0.72721 0.57047 0.81705 0.0
H313 H 0.68928 0.57449 0.86126 0.0
H314 H 0.60743 0.47367 0.83012 0.0
H315 H 0.64588 0.46921 0.78585 0.0
C316 C 0.56892 0.5244 0.89256 0.0
C317 C 0.57942 0.53104 0.92885 0.0
C318 C 0.59033 0.52221 0.86652 0.0
C319 C 0.62289 0.52737 0.87617 0.0
C320 C 0.63397 0.53548 0.91212 0.0
C321 C 0.61231 0.53692 0.93827 0.0
C322 C 0.70113 0.54906 0.81956 0.0
C323 C 0.68947 0.51949 0.79792 0.0
C324 C 0.6795 0.5514 0.84497 0.0
C325 C 0.64548 0.5245 0.84894 0.0
C326 C 0.63357 0.49488 0.8273 0.0
C327 C 0.65555 0.49222 0.80223 0.0
H328 H 0.03854 0.54951 0.42689 0.0
H329 H 0.12419 0.56589 0.49424 0.0
H330 H 0.07754 0.59745 0.38876 0.0
H331 H 0.16336 0.61419 0.45592 0.0
H332 H 0.22422 0.67002 0.35138 0.0
H333 H 0.1865 0.62364 0.39254 0.0
H334 H 0.11418 0.6606 0.39119 0.0
H335 H 0.15145 0.70653 0.35019 0.0
C336 C 0.06566 0.56355 0.43381 0.0
C337 C 0.07817 0.55385 0.46373 0.0
C338 C 0.08804 0.59113 0.41195 0.0
C339 C 0.1236 0.60962 0.41921 0.0
C340 C 0.13615 0.60024 0.44939 0.0
C341 C 0.11365 0.57278 0.47153 0.0
C342 C 0.20026 0.6682 0.35986 0.0
C343 C 0.19086 0.69196 0.34731 0.0
C344 C 0.17878 0.64179 0.38365 0.0
C345 C 0.14729 0.63838 0.39511 0.0
C346 C 0.13804 0.66223 0.38261 0.0
C347 C 0.15955 0.68869 0.35916 0.0
H348 H 0.43541 0.99503 0.88731 0.0
H349 H 0.48142 0.07505 0.96813 0.0
H350 H 0.42552 0.03371 0.84875 0.0
H351 H 0.47154 0.11325 0.92977 0.0
H352 H 0.50019 0.18333 0.83105 0.0
H353 H 0.50036 0.14056 0.87077 0.0
H354 H 0.39386 0.06985 0.84451 0.0
H355 H 0.39347 0.11332 0.80422 0.0
C356 C 0.44292 0.02059 0.89711 0.0
C357 C 0.45961 0.03204 0.93067 0.0
C358 C 0.43711 0.04265 0.87508 0.0
C359 C 0.44813 0.07661 0.88609 0.0
C360 C 0.4632 0.08737 0.92035 0.0
C361 C 0.46879 0.06538 0.94237 0.0
C362 C 0.47667 0.15873 0.83352 0.0
C363 C 0.44676 0.15184 0.81438 0.0
C364 C 0.47676 0.13426 0.85658 0.0
C365 C 0.44705 0.10197 0.86105 0.0
C366 C 0.41714 0.09458 0.84155 0.0
C367 C 0.41689 0.11945 0.81864 0.0
H368 H 0.42375 0.45064 0.38638 0.0
H369 H 0.37739 0.48411 0.46716 0.0
H370 H 0.38105 0.44652 0.34231 0.0
H371 H 0.3352 0.48009 0.42329 0.0
H372 H 0.29622 0.51212 0.32398 0.0
H373 H 0.33775 0.51305 0.36744 0.0
H374 H 0.31672 0.4132 0.33003 0.0
H375 H 0.27521 0.41215 0.28663 0.0
C376 C 0.40425 0.45665 0.39489 0.0
C377 C 0.40411 0.46777 0.43032 0.0
C378 C 0.37983 0.45433 0.36965 0.0
C379 C 0.35506 0.46343 0.37926 0.0
C380 C 0.35432 0.47349 0.41492 0.0
C381 C 0.37839 0.47547 0.44015 0.0
C382 C 0.30047 0.49039 0.32499 0.0
C383 C 0.28227 0.46202 0.30194 0.0
C384 C 0.32412 0.49084 0.34999 0.0
C385 C 0.33039 0.46311 0.35222 0.0
C386 C 0.3126 0.435 0.3288 0.0
C387 C 0.28866 0.43436 0.3041 0.0
H388 H 0.95426 0.44507 0.97453 0.0
H389 H 0.98577 0.50494 0.87659 0.0
H390 H 0.91686 0.39337 0.93995 0.0
H391 H 0.94764 0.45277 0.84163 0.0
H392 H 0.83731 0.36016 0.80846 0.0
H393 H 0.88074 0.41271 0.83883 0.0
H394 H 0.92053 0.35453 0.89267 0.0
H395 H 0.87753 0.30224 0.86237 0.0
C396 C 0.95357 0.44701 0.94545 0.0
C397 C 0.97301 0.47896 0.92819 0.0
C398 C 0.93216 0.41739 0.92565 0.0
C399 C 0.92917 0.41905 0.88812 0.0
C400 C 0.9493 0.45084 0.8706 0.0
C401 C 0.97137 0.48054 0.89047 0.0
C402 C 0.85527 0.35859 0.82686 0.0
C403 C 0.85378 0.32695 0.83318 0.0
C404 C 0.88036 0.38874 0.8439 0.0
C405 C 0.90411 0.38773 0.86798 0.0
C406 C 0.90252 0.35609 0.87433 0.0
C407 C 0.87783 0.32613 0.85698 0.0
H408 H 0.97581 0.61657 0.93056 0.0
H409 H 0.88475 0.54288 0.98797 0.0
H410 H 0.94013 0.62073 0.88378 0.0
H411 H 0.84874 0.54773 0.94132 0.0
H412 H 0.80628 0.519 0.82532 0.0
H413 H 0.83807 0.52574 0.88031 0.0
H414 H 0.89788 0.63552 0.86246 0.0
H415 H 0.86599 0.62868 0.80634 0.0
C416 C 0.94808 0.60195 0.93372 0.0
C417 C 0.9331 0.57891 0.96269 0.0
C418 C 0.92759 0.60453 0.90691 0.0
C419 C 0.89156 0.5841 0.90837 0.0
C420 C 0.87649 0.56331 0.93901 0.0
C421 C 0.89707 0.56077 0.96596 0.0
C422 C 0.82611 0.54471 0.83297 0.0
C423 C 0.83376 0.5733 0.81109 0.0
C424 C 0.84409 0.5486 0.86495 0.0
C425 C 0.87035 0.5812 0.87613 0.0
C426 C 0.87785 0.61 0.85456 0.0
C427 C 0.85965 0.6061 0.82239 0.0
H428 H 0.40568 0.92305 0.51391 0.0
H429 H 0.43981 0.99429 0.4245 0.0
H430 H 0.35176 0.88598 0.48221 0.0
H431 H 0.38608 0.95702 0.39273 0.0
H432 H 0.27798 0.89011 0.34918 0.0
H433 H 0.32199 0.93066 0.39131 0.0
H434 H 0.33968 0.84955 0.42859 0.0
H435 H 0.29611 0.8095 0.387 0.0
C436 C 0.40157 0.93103 0.48769 0.0
C437 C 0.4273 0.96146 0.47158 0.0
C438 C 0.37067 0.90974 0.4695 0.0
C439 C 0.36469 0.91844 0.43485 0.0
C440 C 0.38969 0.94972 0.41952 0.0
C441 C 0.42066 0.97094 0.43764 0.0
C442 C 0.29071 0.88088 0.36709 0.0
C443 C 0.28378 0.84673 0.3647 0.0
C444 C 0.31608 0.90411 0.39095 0.0
C445 C 0.33447 0.89337 0.41317 0.0
C446 C 0.32585 0.85865 0.41219 0.0
C447 C 0.30097 0.83571 0.38816 0.0
H448 H 0.54382 0.40768 0.00688 0.0
H449 H 0.45254 0.39929 0.95773 0.0
H450 H 0.54139 0.36439 0.96466 0.0
H451 H 0.45006 0.35636 0.9159 0.0
H452 H 0.5504 0.33377 0.84374 0.0
H453 H 0.55113 0.36633 0.89707 0.0
H454 H 0.44181 0.29786 0.91063 0.0
H455 H 0.44089 0.26572 0.8575 0.0
C456 C 0.52267 0.3958 0.98784 0.0
C457 C 0.49834 0.40677 0.98553 0.0
C458 C 0.52153 0.37139 0.96344 0.0
C459 C 0.4957 0.35719 0.93683 0.0
C460 C 0.47014 0.36659 0.93624 0.0
C461 C 0.47155 0.39121 0.96019 0.0
C462 C 0.52664 0.32547 0.85837 0.0
C463 C 0.49552 0.29751 0.84601 0.0
C464 C 0.5271 0.34393 0.88906 0.0
C465 C 0.49645 0.33474 0.90786 0.0
C466 C 0.46573 0.30582 0.89643 0.0
C467 C 0.46526 0.28744 0.86591 0.0
H468 H 0.98354 0.40122 0.38055 0.0
H469 H 0.06265 0.41461 0.45637 0.0
H470 H 0.01031 0.38337 0.33443 0.0
H471 H 0.08942 0.39715 0.41033 0.0
H472 H 0.1293 0.35737 0.3234 0.0
H473 H 0.08616 0.35211 0.36782 0.0
H474 H 0.06568 0.4202 0.30339 0.0
H475 H 0.10846 0.42541 0.2598 0.0
C476 C 0.00623 0.39976 0.38758 0.0
C477 C 0.02132 0.40993 0.42191 0.0
C478 C 0.02155 0.38954 0.36118 0.0
C479 C 0.05209 0.38906 0.36869 0.0
C480 C 0.06574 0.39691 0.40376 0.0
C481 C 0.05058 0.40731 0.43005 0.0
C482 C 0.11464 0.37018 0.31842 0.0
C483 C 0.12197 0.39178 0.28844 0.0
C484 C 0.09021 0.36741 0.34382 0.0
C485 C 0.07258 0.38582 0.33912 0.0
C486 C 0.07838 0.40533 0.30763 0.0
C487 C 0.103 0.40848 0.28275 0.0
H488 H 0.61855 0.09918 0.00923 0.0
H489 H 0.59083 0.023 0.92514 0.0
H490 H 0.67286 0.1366 0.97853 0.0
H491 H 0.64515 0.06049 0.89453 0.0
H492 H 0.75675 0.1275 0.85957 0.0
H493 H 0.7102 0.08884 0.90013 0.0
H494 H 0.68569 0.16901 0.92023 0.0
H495 H 0.73181 0.20736 0.87986 0.0
C496 C 0.62417 0.09023 0.98443 0.0
C497 C 0.60019 0.05821 0.96947 0.0
C498 C 0.65526 0.11171 0.96683 0.0
C499 C 0.66323 0.10151 0.9341 0.0
C500 C 0.6399 0.06892 0.9199 0.0
C501 C 0.60864 0.04757 0.9373 0.0
C502 C 0.74188 0.13704 0.8733 0.0
C503 C 0.7478 0.17039 0.86642 0.0
C504 C 0.71509 0.11485 0.89625 0.0
C505 C 0.6942 0.12585 0.9132 0.0
C506 C 0.70148 0.15984 0.90782 0.0
C507 C 0.72782 0.18177 0.88455 0.0
H508 H 0.44538 0.59474 0.5025 0.0
H509 H 0.54086 0.60577 0.46295 0.0
H510 H 0.45184 0.6406 0.46143 0.0
H511 H 0.54733 0.65102 0.42226 0.0
H512 H 0.56201 0.74262 0.36298 0.0
H513 H 0.55638 0.70906 0.41662 0.0
H514 H 0.44804 0.64287 0.39407 0.0
H515 H 0.4535 0.677 0.34045 0.0
C516 C 0.46825 0.60775 0.48592 0.0
C517 C 0.49267 0.59684 0.48586 0.0
C518 C 0.47174 0.63363 0.46213 0.0
C519 C 0.49998 0.64929 0.43842 0.0
C520 C 0.52545 0.63982 0.44035 0.0
C521 C 0.52174 0.61381 0.46363 0.0
C522 C 0.53686 0.72114 0.36957 0.0
C523 C 0.5083 0.71215 0.34705 0.0
C524 C 0.53366 0.70191 0.40038 0.0
C525 C 0.50186 0.6731 0.40944 0.0
C526 C 0.47285 0.66511 0.38801 0.0
C527 C 0.47603 0.68449 0.35712 0.0
H528 H 0.4671 0.07242 0.549 0.0
H529 H 0.56601 0.1532 0.51193 0.0
H530 H 0.46249 0.11275 0.58897 0.0
H531 H 0.56142 0.19421 0.55225 0.0
H532 H 0.55826 0.2295 0.67301 0.0
H533 H 0.56356 0.20035 0.61962 0.0
H534 H 0.45683 0.16368 0.59332 0.0
H535 H 0.45131 0.19192 0.64673 0.0
C536 C 0.48744 0.09915 0.54871 0.0
C537 C 0.51688 0.10972 0.52741 0.0
C538 C 0.4848 0.12234 0.57157 0.0
C539 C 0.51169 0.1567 0.57395 0.0
C540 C 0.54042 0.16782 0.55117 0.0
C541 C 0.54287 0.14452 0.52781 0.0
C542 C 0.53612 0.2156 0.65551 0.0
C543 C 0.5042 0.21241 0.6645 0.0
C544 C 0.53921 0.19913 0.62478 0.0
C545 C 0.51048 0.17937 0.60246 0.0
C546 C 0.47925 0.17815 0.61032 0.0
C547 C 0.47612 0.19433 0.641 0.0
H548 H 0.39953 0.49989 0.00724 0.0
H549 H 0.4217 0.44249 0.0859 0.0
H550 H 0.34486 0.48287 0.03731 0.0
H551 H 0.36712 0.42559 0.11587 0.0
H552 H 0.25456 0.3813 0.14715 0.0
H553 H 0.30255 0.39136 0.10776 0.0
H554 H 0.33041 0.49809 0.09716 0.0
H555 H 0.28277 0.48815 0.1363 0.0
C556 C 0.39263 0.48339 0.03072 0.0
C557 C 0.41512 0.47278 0.04433 0.0
C558 C 0.36135 0.47373 0.04797 0.0
C559 C 0.35173 0.45294 0.07897 0.0
C560 C 0.37365 0.44132 0.09182 0.0
C561 C 0.40506 0.45126 0.0748 0.0
C562 C 0.27059 0.40673 0.13587 0.0
C563 C 0.265 0.43397 0.14499 0.0
C564 C 0.29817 0.41254 0.11354 0.0
C565 C 0.32033 0.44555 0.09951 0.0
C566 C 0.31366 0.47231 0.10728 0.0
C567 C 0.28645 0.46664 0.1299 0.0
H568 H 0.01277 0.41152 0.6248 0.0
H569 H 0.94685 0.35082 0.537 0.0
H570 H 0.97994 0.3635 0.66615 0.0
H571 H 0.91477 0.3028 0.57792 0.0
H572 H 0.83414 0.26487 0.67024 0.0
H573 H 0.87493 0.30015 0.62425 0.0
H574 H 0.95789 0.30197 0.68559 0.0
H575 H 0.91637 0.26617 0.73224 0.0
C576 C 0.99194 0.38761 0.61416 0.0
C577 C 0.98186 0.38515 0.57788 0.0
C578 C 0.97327 0.36005 0.63778 0.0
C579 C 0.94442 0.32958 0.62537 0.0
C580 C 0.93643 0.32619 0.58841 0.0
C581 C 0.95481 0.35372 0.56499 0.0
C582 C 0.86097 0.27213 0.67356 0.0
C583 C 0.87217 0.26294 0.70477 0.0
C584 C 0.88437 0.29219 0.64708 0.0
C585 C 0.91969 0.30389 0.65126 0.0
C586 C 0.93082 0.29341 0.68176 0.0
C587 C 0.90711 0.27275 0.70823 0.0
H588 H 0.46268 0.86497 0.00538 0.0
H589 H 0.5598 0.94389 0.04883 0.0
H590 H 0.46412 0.8227 0.04634 0.0
H591 H 0.56127 0.9022 0.08946 0.0
H592 H 0.45914 0.78418 0.16725 0.0
H593 H 0.45783 0.81526 0.11351 0.0
H594 H 0.56547 0.85034 0.09479 0.0
H595 H 0.56698 0.82009 0.14849 0.0
C596 C 0.48484 0.87299 0.0228 0.0
C597 C 0.51118 0.90765 0.02395 0.0
C598 C 0.48544 0.84894 0.04654 0.0
C599 C 0.51268 0.85913 0.07132 0.0
C600 C 0.54007 0.89333 0.07054 0.0
C601 C 0.53924 0.9173 0.04727 0.0
C602 C 0.48234 0.79812 0.15132 0.0
C603 C 0.5133 0.80021 0.16252 0.0
C604 C 0.48155 0.81572 0.1204 0.0
C605 C 0.51168 0.83557 0.10011 0.0
C606 C 0.542 0.8358 0.11018 0.0
C607 C 0.54283 0.81844 0.14102 0.0
H608 H 0.56776 0.55768 0.58245 0.0
H609 H 0.59311 0.50792 0.49783 0.0
H610 H 0.62182 0.57328 0.61279 0.0
H611 H 0.64757 0.52393 0.52817 0.0
H612 H 0.70451 0.50817 0.62594 0.0
H613 H 0.66055 0.50358 0.58426 0.0
H614 H 0.68569 0.60739 0.61082 0.0
H615 H 0.72995 0.61192 0.65311 0.0
C616 C 0.58508 0.55045 0.57003 0.0
C617 C 0.57586 0.53115 0.5379 0.0
C618 C 0.61628 0.55972 0.5873 0.0
C619 C 0.63899 0.54977 0.57299 0.0
C620 C 0.63046 0.5317 0.54007 0.0
C621 C 0.59929 0.52259 0.52264 0.0
C622 C 0.70113 0.5303 0.62246 0.0
C623 C 0.72049 0.56031 0.64307 0.0
C624 C 0.67605 0.52773 0.59832 0.0
C625 C 0.66943 0.55503 0.59433 0.0
C626 C 0.68998 0.58578 0.61357 0.0
C627 C 0.71548 0.5885 0.63756 0.0
H628 H 0.03419 0.64589 0.07381 0.0
H629 H 0.12475 0.65695 0.02054 0.0
H630 H 0.06993 0.68504 0.12103 0.0
H631 H 0.16093 0.69709 0.06771 0.0
H632 H 0.20073 0.71314 0.18527 0.0
H633 H 0.16959 0.68706 0.13003 0.0
H634 H 0.11343 0.74161 0.14137 0.0
H635 H 0.14448 0.76753 0.19755 0.0
C636 C 0.06191 0.65748 0.07165 0.0
C637 C 0.07662 0.64795 0.04365 0.0
C638 C 0.08246 0.68014 0.09873 0.0
C639 C 0.1183 0.69384 0.09857 0.0
C640 C 0.1333 0.68645 0.06901 0.0
C641 C 0.11265 0.66378 0.04173 0.0
C642 C 0.18182 0.71975 0.1761 0.0
C643 C 0.17493 0.74227 0.19615 0.0
C644 C 0.16422 0.70506 0.14402 0.0
C645 C 0.13916 0.71239 0.13096 0.0
C646 C 0.13247 0.73525 0.15074 0.0
C647 C 0.15021 0.75008 0.18297 0.0
loop_
_geom_bond_atom_site_label_1
_geom_bond_atom_site_label_2
_geom_bond_distance
_geom_bond_site_symmetry_2
_ccdc_geom_bond_type
C0 O2 1.258 . S
C0 O4 1.258 . S
C1 O8 1.252 . S
C1 O9 1.258 . S
O2 C0 1.258 . S
O2 Zn3 2.025 1_455 S
Zn3 O2 2.025 1_655 S
Zn3 O7 2.035 1_554 S
Zn3 O9 2.035 1_554 S
Zn3 O10 2.014 1_655 S
O4 C0 1.258 . S
O4 Zn5 2.035 1_554 S
Zn5 O4 2.035 1_556 S
Zn5 O6 2.021 1_455 S
Zn5 O8 2.027 1_455 S
Zn5 O11 2.035 1_556 S
O6 Zn5 2.021 1_655 S
O6 C12 1.254 . S
O7 Zn3 2.035 1_556 S
O7 C12 1.258 . S
O8 C1 1.252 . S
O8 Zn5 2.027 1_655 S
O9 C1 1.258 . S
O9 Zn3 2.035 1_556 S
O10 Zn3 2.014 1_455 S
O10 C13 1.262 . S
O11 Zn5 2.035 1_554 S
O11 C13 1.258 . S
C12 O6 1.254 . S
C12 O7 1.258 . S
C13 O10 1.262 . S
C13 O11 1.258 . S
C14 O16 1.262 . S
C14 O18 1.258 . S
C15 O22 1.254 . S
C15 O23 1.258 . S
O16 C14 1.262 . S
O16 Zn17 2.014 1_545 S
Zn17 O16 2.014 1_565 S
Zn17 O21 2.035 . S
Zn17 O23 2.035 . S
Zn17 O24 2.025 1_565 S
O18 C14 1.258 . S
O18 Zn19 2.035 . S
Zn19 O18 2.035 . S
Zn19 O20 2.027 1_545 S
Zn19 O22 2.021 1_545 S
Zn19 O25 2.035 . S
O20 Zn19 2.027 1_565 S
O20 C26 1.252 . S
O21 Zn17 2.035 . S
O21 C26 1.258 . S
O22 C15 1.254 . S
O22 Zn19 2.021 1_565 S
O23 C15 1.258 . S
O23 Zn17 2.035 . S
O24 Zn17 2.025 1_545 S
O24 C27 1.258 . S
O25 Zn19 2.035 . S
O25 C27 1.258 . S
C26 O20 1.252 . S
C26 O21 1.258 . S
C27 O24 1.258 . S
C27 O25 1.258 . S
C28 O30 1.247 . S
C28 O32 1.258 . S
C29 O36 1.247 . S
C29 O37 1.258 . S
O30 C28 1.247 . S
O30 Zn31 2.028 . S
Zn31 O30 2.028 . S
Zn31 O35 2.035 1_556 S
Zn31 O37 2.035 1_556 S
Zn31 O38 2.028 . S
O32 C28 1.258 . S
O32 Zn33 2.035 1_556 S
Zn33 O32 2.035 1_554 S
Zn33 O34 2.028 . S
Zn33 O36 2.028 . S
Zn33 O39 2.035 1_554 S
O34 Zn33 2.028 . S
O34 C40 1.247 . S
O35 Zn31 2.035 1_554 S
O35 C40 1.258 . S
O36 C29 1.247 . S
O36 Zn33 2.028 . S
O37 C29 1.258 . S
O37 Zn31 2.035 1_554 S
O38 Zn31 2.028 . S
O38 C41 1.247 . S
O39 Zn33 2.035 1_556 S
O39 C41 1.258 . S
C40 O34 1.247 . S
C40 O35 1.258 . S
C41 O38 1.247 . S
C41 O39 1.258 . S
C42 O44 1.247 . S
C42 O46 1.271 . S
C43 O50 1.247 . S
C43 O51 1.265 . S
O44 C42 1.247 . S
O44 Zn45 2.028 . S
Zn45 O44 2.028 . S
Zn45 O49 2.027 1_455 S
Zn45 O51 2.034 1_455 S
Zn45 O52 2.028 . S
O46 C42 1.271 . S
O46 Zn47 2.032 1_455 S
Zn47 O46 2.032 1_655 S
Zn47 O48 2.028 . S
Zn47 O50 2.028 . S
Zn47 O53 2.020 1_655 S
O48 Zn47 2.028 . S
O48 C54 1.247 . S
O49 Zn45 2.027 1_655 S
O49 C54 1.267 . S
O50 C43 1.247 . S
O50 Zn47 2.028 . S
O51 C43 1.265 . S
O51 Zn45 2.034 1_655 S
O52 Zn45 2.028 . S
O52 C55 1.247 . S
O53 Zn47 2.020 1_455 S
O53 C55 1.276 . S
C54 O48 1.247 . S
C54 O49 1.267 . S
C55 O52 1.247 . S
C55 O53 1.276 . S
C56 O58 1.254 . S
C56 O60 1.258 . S
C57 O64 1.262 . S
C57 O65 1.258 . S
O58 C56 1.254 . S
O58 Zn59 2.021 1_565 S
Zn59 O58 2.021 1_545 S
Zn59 O63 2.035 1_554 S
Zn59 O65 2.035 1_554 S
Zn59 O66 2.027 1_545 S
O60 C56 1.258 . S
O60 Zn61 2.035 1_554 S
Zn61 O60 2.035 1_556 S
Zn61 O62 2.025 1_565 S
Zn61 O64 2.014 1_565 S
Zn61 O67 2.035 1_556 S
O62 Zn61 2.025 1_545 S
O62 C68 1.258 . S
O63 Zn59 2.035 1_556 S
O63 C68 1.258 . S
O64 C57 1.262 . S
O64 Zn61 2.014 1_545 S
O65 C57 1.258 . S
O65 Zn59 2.035 1_556 S
O66 Zn59 2.027 1_565 S
O66 C69 1.252 . S
O67 Zn61 2.035 1_554 S
O67 C69 1.258 . S
C68 O62 1.258 . S
C68 O63 1.258 . S
C69 O66 1.252 . S
C69 O67 1.258 . S
C70 O72 1.247 . S
C70 O74 1.258 . S
C71 O78 1.247 . S
C71 O79 1.258 . S
O72 C70 1.247 . S
O72 Zn73 2.028 . S
Zn73 O72 2.028 . S
Zn73 O77 2.035 . S
Zn73 O79 2.035 . S
Zn73 O80 2.028 . S
O74 C70 1.258 . S
O74 Zn75 2.035 . S
Zn75 O74 2.035 . S
Zn75 O76 2.028 . S
Zn75 O78 2.028 . S
Zn75 O81 2.035 . S
O76 Zn75 2.028 . S
O76 C82 1.247 . S
O77 Zn73 2.035 . S
O77 C82 1.258 . S
O78 C71 1.247 . S
O78 Zn75 2.028 . S
O79 C71 1.258 . S
O79 Zn73 2.035 . S
O80 Zn73 2.028 . S
O80 C83 1.247 . S
O81 Zn75 2.035 . S
O81 C83 1.258 . S
C82 O76 1.247 . S
C82 O77 1.258 . S
C83 O80 1.247 . S
C83 O81 1.258 . S
C84 O86 1.247 . S
C84 O88 1.258 . S
C85 O92 1.247 . S
C85 O93 1.258 . S
O86 C84 1.247 . S
O86 Zn87 2.028 . S
Zn87 O86 2.028 . S
Zn87 O91 2.035 . S
Zn87 O93 2.035 . S
Zn87 O94 2.028 . S
O88 C84 1.258 . S
O88 Zn89 2.035 . S
Zn89 O88 2.035 . S
Zn89 O90 2.028 . S
Zn89 O92 2.028 . S
Zn89 O95 2.035 . S
O90 Zn89 2.028 . S
O90 C96 1.247 . S
O91 Zn87 2.035 . S
O91 C96 1.258 . S
O92 C85 1.247 . S
O92 Zn89 2.028 . S
O93 C85 1.258 . S
O93 Zn87 2.035 . S
O94 Zn87 2.028 . S
O94 C97 1.247 . S
O95 Zn89 2.035 . S
O95 C97 1.258 . S
C96 O90 1.247 . S
C96 O91 1.258 . S
C97 O94 1.247 . S
C97 O95 1.258 . S
C98 O100 1.247 . S
C98 O102 1.258 . S
C99 O106 1.247 . S
C99 O107 1.258 . S
O100 C98 1.247 . S
O100 Zn101 2.028 . S
Zn101 O100 2.028 . S
Zn101 O105 2.035 . S
Zn101 O107 2.035 . S
Zn101 O108 2.028 . S
O102 C98 1.258 . S
O102 Zn103 2.035 . S
Zn103 O102 2.035 . S
Zn103 O104 2.028 . S
Zn103 O106 2.028 . S
Zn103 O109 2.035 . S
O104 Zn103 2.028 . S
O104 C110 1.247 . S
O105 Zn101 2.035 . S
O105 C110 1.258 . S
O106 C99 1.247 . S
O106 Zn103 2.028 . S
O107 C99 1.258 . S
O107 Zn101 2.035 . S
O108 Zn101 2.028 . S
O108 C111 1.247 . S
O109 Zn103 2.035 . S
O109 C111 1.258 . S
C110 O104 1.247 . S
C110 O105 1.258 . S
C111 O108 1.247 . S
C111 O109 1.258 . S
C112 O114 1.247 . S
C112 O116 1.258 . S
C113 O120 1.247 . S
C113 O121 1.258 . S
O114 C112 1.247 . S
O114 Zn115 2.028 . S
Zn115 O114 2.028 . S
Zn115 O119 2.035 . S
Zn115 O121 2.035 . S
Zn115 O122 2.028 . S
O116 C112 1.258 . S
O116 Zn117 2.035 . S
Zn117 O116 2.035 . S
Zn117 O118 2.028 . S
Zn117 O120 2.028 . S
Zn117 O123 2.035 . S
O118 Zn117 2.028 . S
O118 C124 1.247 . S
O119 Zn115 2.035 . S
O119 C124 1.258 . S
O120 C113 1.247 . S
O120 Zn117 2.028 . S
O121 C113 1.258 . S
O121 Zn115 2.035 . S
O122 Zn115 2.028 . S
O122 C125 1.247 . S
O123 Zn117 2.035 . S
O123 C125 1.258 . S
C124 O118 1.247 . S
C124 O119 1.258 . S
C125 O122 1.247 . S
C125 O123 1.258 . S
C126 O128 1.247 . S
C126 O130 1.258 . S
C127 O134 1.247 . S
C127 O135 1.258 . S
O128 C126 1.247 . S
O128 Zn129 2.028 . S
Zn129 O128 2.028 . S
Zn129 O133 2.035 . S
Zn129 O135 2.035 . S
Zn129 O136 2.028 . S
O130 C126 1.258 . S
O130 Zn131 2.035 . S
Zn131 O130 2.035 . S
Zn131 O132 2.028 . S
Zn131 O134 2.028 . S
Zn131 O137 2.035 . S
O132 Zn131 2.028 . S
O132 C138 1.247 . S
O133 Zn129 2.035 . S
O133 C138 1.258 . S
O134 C127 1.247 . S
O134 Zn131 2.028 . S
O135 C127 1.258 . S
O135 Zn129 2.035 . S
O136 Zn129 2.028 . S
O136 C139 1.247 . S
O137 Zn131 2.035 . S
O137 C139 1.258 . S
C138 O132 1.247 . S
C138 O133 1.258 . S
C139 O136 1.247 . S
C139 O137 1.258 . S
C140 O142 1.247 . S
C140 O144 1.258 . S
C141 O148 1.247 . S
C141 O149 1.258 . S
O142 C140 1.247 . S
O142 Zn143 2.028 . S
Zn143 O142 2.028 . S
Zn143 O147 2.035 . S
Zn143 O149 2.035 . S
Zn143 O150 2.028 . S
O144 C140 1.258 . S
O144 Zn145 2.035 . S
Zn145 O144 2.035 . S
Zn145 O146 2.028 . S
Zn145 O148 2.028 . S
Zn145 O151 2.035 . S
O146 Zn145 2.028 . S
O146 C152 1.247 . S
O147 Zn143 2.035 . S
O147 C152 1.258 . S
O148 C141 1.247 . S
O148 Zn145 2.028 . S
O149 C141 1.258 . S
O149 Zn143 2.035 . S
O150 Zn143 2.028 . S
O150 C153 1.247 . S
O151 Zn145 2.035 . S
O151 C153 1.258 . S
C152 O146 1.247 . S
C152 O147 1.258 . S
C153 O150 1.247 . S
C153 O151 1.258 . S
C154 O156 1.247 . S
C154 O158 1.258 . S
C155 O162 1.247 . S
C155 O163 1.258 . S
O156 C154 1.247 . S
O156 Zn157 2.028 . S
Zn157 O156 2.028 . S
Zn157 O161 2.035 . S
Zn157 O163 2.035 . S
Zn157 O164 2.028 . S
O158 C154 1.258 . S
O158 Zn159 2.035 . S
Zn159 O158 2.035 . S
Zn159 O160 2.028 . S
Zn159 O162 2.028 . S
Zn159 O165 2.035 . S
O160 Zn159 2.028 . S
O160 C166 1.247 . S
O161 Zn157 2.035 . S
O161 C166 1.258 . S
O162 C155 1.247 . S
O162 Zn159 2.028 . S
O163 C155 1.258 . S
O163 Zn157 2.035 . S
O164 Zn157 2.028 . S
O164 C167 1.247 . S
O165 Zn159 2.035 . S
O165 C167 1.258 . S
C166 O160 1.247 . S
C166 O161 1.258 . S
C167 O164 1.247 . S
C167 O165 1.258 . S
H168 C176 0.950 . S
H169 C181 0.950 . S
H170 C178 0.950 . S
H171 C180 0.950 . S
H172 C182 0.950 . S
H173 C184 0.950 . S
H174 C186 0.950 . S
H175 C187 0.950 . S
C176 H168 0.950 . S
C176 C177 1.386 . S
C176 C178 1.391 . S
C177 C176 1.386 . S
C177 C181 1.393 . S
C178 H170 0.950 . S
C178 C176 1.391 . S
C178 C179 1.400 . S
C179 C178 1.400 . S
C179 C180 1.398 . S
C179 C185 1.491 . S
C180 H171 0.950 . S
C180 C179 1.398 . S
C180 C181 1.391 . S
C181 H169 0.950 . S
C181 C177 1.393 . S
C181 C180 1.391 . S
C182 H172 0.950 . S
C182 C183 1.386 . S
C182 C184 1.391 . S
C183 C182 1.386 . S
C183 C187 1.393 . S
C184 H173 0.950 . S
C184 C182 1.391 . S
C184 C185 1.400 . S
C185 C179 1.491 . S
C185 C184 1.400 . S
C185 C186 1.398 . S
C186 H174 0.950 . S
C186 C185 1.398 . S
C186 C187 1.391 . S
C187 H175 0.950 . S
C187 C183 1.393 . S
C187 C186 1.391 . S
H188 C196 0.950 . S
H189 C201 0.950 . S
H190 C198 0.950 . S
H191 C200 0.950 . S
H192 C202 0.950 . S
H193 C204 0.950 . S
H194 C206 0.950 . S
H195 C207 0.950 . S
C196 H188 0.950 . S
C196 C197 1.386 . S
C196 C198 1.391 . S
C197 C196 1.386 . S
C197 C201 1.393 . S
C198 H190 0.950 . S
C198 C196 1.391 . S
C198 C199 1.400 . S
C199 C198 1.400 . S
C199 C200 1.398 . S
C199 C205 1.491 . S
C200 H191 0.950 . S
C200 C199 1.398 . S
C200 C201 1.391 . S
C201 H189 0.950 . S
C201 C197 1.393 . S
C201 C200 1.391 . S
C202 H192 0.950 . S
C202 C203 1.386 . S
C202 C204 1.391 . S
C203 C202 1.386 . S
C203 C207 1.393 . S
C204 H193 0.950 . S
C204 C202 1.391 . S
C204 C205 1.400 . S
C205 C199 1.491 . S
C205 C204 1.400 . S
C205 C206 1.398 . S
C206 H194 0.950 . S
C206 C205 1.398 . S
C206 C207 1.391 . S
C207 H195 0.950 . S
C207 C203 1.393 . S
C207 C206 1.391 . S
H208 C216 0.950 . S
H209 C221 0.950 . S
H210 C218 0.950 . S
H211 C220 0.950 . S
H212 C222 0.950 . S
H213 C224 0.950 . S
H214 C226 0.950 . S
H215 C227 0.950 . S
C216 H208 0.950 . S
C216 C217 1.386 . S
C216 C218 1.391 . S
C217 C216 1.386 . S
C217 C221 1.393 . S
C218 H210 0.950 . S
C218 C216 1.391 . S
C218 C219 1.400 . S
C219 C218 1.400 . S
C219 C220 1.398 . S
C219 C225 1.491 . S
C220 H211 0.950 . S
C220 C219 1.398 . S
C220 C221 1.391 . S
C221 H209 0.950 . S
C221 C217 1.393 . S
C221 C220 1.391 . S
C222 H212 0.950 . S
C222 C223 1.386 . S
C222 C224 1.391 . S
C223 C222 1.386 . S
C223 C227 1.393 . S
C224 H213 0.950 . S
C224 C222 1.391 . S
C224 C225 1.400 . S
C225 C219 1.491 . S
C225 C224 1.400 . S
C225 C226 1.398 . S
C226 H214 0.950 . S
C226 C225 1.398 . S
C226 C227 1.391 . S
C227 H215 0.950 . S
C227 C223 1.393 . S
C227 C226 1.391 . S
H228 C236 0.950 . S
H229 C241 0.950 . S
H230 C238 0.950 . S
H231 C240 0.950 . S
H232 C242 0.950 . S
H233 C244 0.950 . S
H234 C246 0.950 . S
H235 C247 0.950 . S
C236 H228 0.950 . S
C236 C237 1.386 . S
C236 C238 1.391 . S
C237 C236 1.386 . S
C237 C241 1.393 . S
C238 H230 0.950 . S
C238 C236 1.391 . S
C238 C239 1.400 . S
C239 C238 1.400 . S
C239 C240 1.398 . S
C239 C245 1.491 . S
C240 H231 0.950 . S
C240 C239 1.398 . S
C240 C241 1.391 . S
C241 H229 0.950 . S
C241 C237 1.393 . S
C241 C240 1.391 . S
C242 H232 0.950 . S
C242 C243 1.386 . S
C242 C244 1.391 . S
C243 C242 1.386 . S
C243 C247 1.393 . S
C244 H233 0.950 . S
C244 C242 1.391 . S
C244 C245 1.400 . S
C245 C239 1.491 . S
C245 C244 1.400 . S
C245 C246 1.398 . S
C246 H234 0.950 . S
C246 C245 1.398 . S
C246 C247 1.391 . S
C247 H235 0.950 . S
C247 C243 1.393 . S
C247 C246 1.391 . S
H248 C256 0.950 . S
H249 C261 0.950 . S
H250 C258 0.950 . S
H251 C260 0.950 . S
H252 C262 0.950 . S
H253 C264 0.950 . S
H254 C266 0.950 . S
H255 C267 0.950 . S
C256 H248 0.950 . S
C256 C257 1.386 . S
C256 C258 1.391 . S
C257 C256 1.386 . S
C257 C261 1.393 . S
C258 H250 0.950 . S
C258 C256 1.391 . S
C258 C259 1.400 . S
C259 C258 1.400 . S
C259 C260 1.398 . S
C259 C265 1.491 . S
C260 H251 0.950 . S
C260 C259 1.398 . S
C260 C261 1.391 . S
C261 H249 0.950 . S
C261 C257 1.393 . S
C261 C260 1.391 . S
C262 H252 0.950 . S
C262 C263 1.386 . S
C262 C264 1.391 . S
C263 C262 1.386 . S
C263 C267 1.393 . S
C264 H253 0.950 . S
C264 C262 1.391 . S
C264 C265 1.400 . S
C265 C259 1.491 . S
C265 C264 1.400 . S
C265 C266 1.398 . S
C266 H254 0.950 . S
C266 C265 1.398 . S
C266 C267 1.391 . S
C267 H255 0.950 . S
C267 C263 1.393 . S
C267 C266 1.391 . S
H268 C276 0.950 . S
H269 C281 0.950 . S
H270 C278 0.950 . S
H271 C280 0.950 . S
H272 C282 0.950 . S
H273 C284 0.950 . S
H274 C286 0.950 . S
H275 C287 0.950 . S
C276 H268 0.950 . S
C276 C277 1.386 . S
C276 C278 1.391 . S
C277 C276 1.386 . S
C277 C281 1.393 . S
C278 H270 0.950 . S
C278 C276 1.391 . S
C278 C279 1.400 . S
C279 C278 1.400 . S
C279 C280 1.398 . S
C279 C285 1.491 . S
C280 H271 0.950 . S
C280 C279 1.398 . S
C280 C281 1.391 . S
C281 H269 0.950 . S
C281 C277 1.393 . S
C281 C280 1.391 . S
C282 H272 0.950 . S
C282 C283 1.386 . S
C282 C284 1.391 . S
C283 C282 1.386 . S
C283 C287 1.393 . S
C284 H273 0.950 . S
C284 C282 1.391 . S
C284 C285 1.400 . S
C285 C279 1.491 . S
C285 C284 1.400 . S
C285 C286 1.398 . S
C286 H274 0.950 . S
C286 C285 1.398 . S
C286 C287 1.391 . S
C287 H275 0.950 . S
C287 C283 1.393 . S
C287 C286 1.391 . S
H288 C296 0.950 . S
H289 C301 0.950 . S
H290 C298 0.950 . S
H291 C300 0.950 . S
H292 C302 0.950 . S
H293 C304 0.950 . S
H294 C306 0.950 . S
H295 C307 0.950 . S
C296 H288 0.950 . S
C296 C297 1.386 . S
C296 C298 1.391 . S
C297 C296 1.386 . S
C297 C301 1.393 . S
C298 H290 0.950 . S
C298 C296 1.391 . S
C298 C299 1.400 . S
C299 C298 1.400 . S
C299 C300 1.398 . S
C299 C305 1.491 . S
C300 H291 0.950 . S
C300 C299 1.398 . S
C300 C301 1.391 . S
C301 H289 0.950 . S
C301 C297 1.393 . S
C301 C300 1.391 . S
C302 H292 0.950 . S
C302 C303 1.386 . S
C302 C304 1.391 . S
C303 C302 1.386 . S
C303 C307 1.393 . S
C304 H293 0.950 . S
C304 C302 1.391 . S
C304 C305 1.400 . S
C305 C299 1.491 . S
C305 C304 1.400 . S
C305 C306 1.398 . S
C306 H294 0.950 . S
C306 C305 1.398 . S
C306 C307 1.391 . S
C307 H295 0.950 . S
C307 C303 1.393 . S
C307 C306 1.391 . S
H308 C316 0.950 . S
H309 C321 0.950 . S
H310 C318 0.950 . S
H311 C320 0.950 . S
H312 C322 0.950 . S
H313 C324 0.950 . S
H314 C326 0.950 . S
H315 C327 0.950 . S
C316 H308 0.950 . S
C316 C317 1.386 . S
C316 C318 1.391 . S
C317 C316 1.386 . S
C317 C321 1.393 . S
C318 H310 0.950 . S
C318 C316 1.391 . S
C318 C319 1.400 . S
C319 C318 1.400 . S
C319 C320 1.398 . S
C319 C325 1.491 . S
C320 H311 0.950 . S
C320 C319 1.398 . S
C320 C321 1.391 . S
C321 H309 0.950 . S
C321 C317 1.393 . S
C321 C320 1.391 . S
C322 H312 0.950 . S
C322 C323 1.386 . S
C322 C324 1.391 . S
C323 C322 1.386 . S
C323 C327 1.393 . S
C324 H313 0.950 . S
C324 C322 1.391 . S
C324 C325 1.400 . S
C325 C319 1.491 . S
C325 C324 1.400 . S
C325 C326 1.398 . S
C326 H314 0.950 . S
C326 C325 1.398 . S
C326 C327 1.391 . S
C327 H315 0.950 . S
C327 C323 1.393 . S
C327 C326 1.391 . S
H328 C336 0.950 . S
H329 C341 0.950 . S
H330 C338 0.950 . S
H331 C340 0.950 . S
H332 C342 0.950 . S
H333 C344 0.950 . S
H334 C346 0.950 . S
H335 C347 0.950 . S
C336 H328 0.950 . S
C336 C337 1.386 . S
C336 C338 1.391 . S
C337 C336 1.386 . S
C337 C341 1.393 . S
C338 H330 0.950 . S
C338 C336 1.391 . S
C338 C339 1.400 . S
C339 C338 1.400 . S
C339 C340 1.398 . S
C339 C345 1.491 . S
C340 H331 0.950 . S
C340 C339 1.398 . S
C340 C341 1.391 . S
C341 H329 0.950 . S
C341 C337 1.393 . S
C341 C340 1.391 . S
C342 H332 0.950 . S
C342 C343 1.386 . S
C342 C344 1.391 . S
C343 C342 1.386 . S
C343 C347 1.393 . S
C344 H333 0.950 . S
C344 C342 1.391 . S
C344 C345 1.400 . S
C345 C339 1.491 . S
C345 C344 1.400 . S
C345 C346 1.398 . S
C346 H334 0.950 . S
C346 C345 1.398 . S
C346 C347 1.391 . S
C347 H335 0.950 . S
C347 C343 1.393 . S
C347 C346 1.391 . S
H348 C356 0.950 . S
H349 C361 0.950 . S
H350 C358 0.950 . S
H351 C360 0.950 . S
H352 C362 0.950 . S
H353 C364 0.950 . S
H354 C366 0.950 . S
H355 C367 0.950 . S
C356 H348 0.950 . S
C356 C357 1.386 . S
C356 C358 1.391 . S
C357 C356 1.386 . S
C357 C361 1.393 . S
C358 H350 0.950 . S
C358 C356 1.391 . S
C358 C359 1.400 . S
C359 C358 1.400 . S
C359 C360 1.398 . S
C359 C365 1.491 . S
C360 H351 0.950 . S
C360 C359 1.398 . S
C360 C361 1.391 . S
C361 H349 0.950 . S
C361 C357 1.393 . S
C361 C360 1.391 . S
C362 H352 0.950 . S
C362 C363 1.386 . S
C362 C364 1.391 . S
C363 C362 1.386 . S
C363 C367 1.393 . S
C364 H353 0.950 . S
C364 C362 1.391 . S
C364 C365 1.400 . S
C365 C359 1.491 . S
C365 C364 1.400 . S
C365 C366 1.398 . S
C366 H354 0.950 . S
C366 C365 1.398 . S
C366 C367 1.391 . S
C367 H355 0.950 . S
C367 C363 1.393 . S
C367 C366 1.391 . S
H368 C376 0.950 . S
H369 C381 0.950 . S
H370 C378 0.950 . S
H371 C380 0.950 . S
H372 C382 0.950 . S
H373 C384 0.950 . S
H374 C386 0.950 . S
H375 C387 0.950 . S
C376 H368 0.950 . S
C376 C377 1.386 . S
C376 C378 1.391 . S
C377 C376 1.386 . S
C377 C381 1.393 . S
C378 H370 0.950 . S
C378 C376 1.391 . S
C378 C379 1.400 . S
C379 C378 1.400 . S
C379 C380 1.398 . S
C379 C385 1.491 . S
C380 H371 0.950 . S
C380 C379 1.398 . S
C380 C381 1.391 . S
C381 H369 0.950 . S
C381 C377 1.393 . S
C381 C380 1.391 . S
C382 H372 0.950 . S
C382 C383 1.386 . S
C382 C384 1.391 . S
C383 C382 1.386 . S
C383 C387 1.393 . S
C384 H373 0.950 . S
C384 C382 1.391 . S
C384 C385 1.400 . S
C385 C379 1.491 . S
C385 C384 1.400 . S
C385 C386 1.398 . S
C386 H374 0.950 . S
C386 C385 1.398 . S
C386 C387 1.391 . S
C387 H375 0.950 . S
C387 C383 1.393 . S
C387 C386 1.391 . S
H388 C396 0.950 . S
H389 C401 0.950 . S
H390 C398 0.950 . S
H391 C400 0.950 . S
H392 C402 0.950 . S
H393 C404 0.950 . S
H394 C406 0.950 . S
H395 C407 0.950 . S
C396 H388 0.950 . S
C396 C397 1.386 . S
C396 C398 1.391 . S
C397 C396 1.386 . S
C397 C401 1.393 . S
C398 H390 0.950 . S
C398 C396 1.391 . S
C398 C399 1.400 . S
C399 C398 1.400 . S
C399 C400 1.398 . S
C399 C405 1.491 . S
C400 H391 0.950 . S
C400 C399 1.398 . S
C400 C401 1.391 . S
C401 H389 0.950 . S
C401 C397 1.393 . S
C401 C400 1.391 . S
C402 H392 0.950 . S
C402 C403 1.386 . S
C402 C404 1.391 . S
C403 C402 1.386 . S
C403 C407 1.393 . S
C404 H393 0.950 . S
C404 C402 1.391 . S
C404 C405 1.400 . S
C405 C399 1.491 . S
C405 C404 1.400 . S
C405 C406 1.398 . S
C406 H394 0.950 . S
C406 C405 1.398 . S
C406 C407 1.391 . S
C407 H395 0.950 . S
C407 C403 1.393 . S
C407 C406 1.391 . S
H408 C416 0.950 . S
H409 C421 0.950 . S
H410 C418 0.950 . S
H411 C420 0.950 . S
H412 C422 0.950 . S
H413 C424 0.950 . S
H414 C426 0.950 . S
H415 C427 0.950 . S
C416 H408 0.950 . S
C416 C417 1.386 . S
C416 C418 1.391 . S
C417 C416 1.386 . S
C417 C421 1.393 . S
C418 H410 0.950 . S
C418 C416 1.391 . S
C418 C419 1.400 . S
C419 C418 1.400 . S
C419 C420 1.398 . S
C419 C425 1.491 . S
C420 H411 0.950 . S
C420 C419 1.398 . S
C420 C421 1.391 . S
C421 H409 0.950 . S
C421 C417 1.393 . S
C421 C420 1.391 . S
C422 H412 0.950 . S
C422 C423 1.386 . S
C422 C424 1.391 . S
C423 C422 1.386 . S
C423 C427 1.393 . S
C424 H413 0.950 . S
C424 C422 1.391 . S
C424 C425 1.400 . S
C425 C419 1.491 . S
C425 C424 1.400 . S
C425 C426 1.398 . S
C426 H414 0.950 . S
C426 C425 1.398 . S
C426 C427 1.391 . S
C427 H415 0.950 . S
C427 C423 1.393 . S
C427 C426 1.391 . S
H428 C436 0.950 . S
H429 C441 0.950 . S
H430 C438 0.950 . S
H431 C440 0.950 . S
H432 C442 0.950 . S
H433 C444 0.950 . S
H434 C446 0.950 . S
H435 C447 0.950 . S
C436 H428 0.950 . S
C436 C437 1.386 . S
C436 C438 1.391 . S
C437 C436 1.386 . S
C437 C441 1.393 . S
C438 H430 0.950 . S
C438 C436 1.391 . S
C438 C439 1.400 . S
C439 C438 1.400 . S
C439 C440 1.398 . S
C439 C445 1.491 . S
C440 H431 0.950 . S
C440 C439 1.398 . S
C440 C441 1.391 . S
C441 H429 0.950 . S
C441 C437 1.393 . S
C441 C440 1.391 . S
C442 H432 0.950 . S
C442 C443 1.386 . S
C442 C444 1.391 . S
C443 C442 1.386 . S
C443 C447 1.393 . S
C444 H433 0.950 . S
C444 C442 1.391 . S
C444 C445 1.400 . S
C445 C439 1.491 . S
C445 C444 1.400 . S
C445 C446 1.398 . S
C446 H434 0.950 . S
C446 C445 1.398 . S
C446 C447 1.391 . S
C447 H435 0.950 . S
C447 C443 1.393 . S
C447 C446 1.391 . S
H448 C456 0.950 . S
H449 C461 0.950 . S
H450 C458 0.950 . S
H451 C460 0.950 . S
H452 C462 0.950 . S
H453 C464 0.950 . S
H454 C466 0.950 . S
H455 C467 0.950 . S
C456 H448 0.950 . S
C456 C457 1.386 . S
C456 C458 1.391 . S
C457 C456 1.386 . S
C457 C461 1.393 . S
C458 H450 0.950 . S
C458 C456 1.391 . S
C458 C459 1.400 . S
C459 C458 1.400 . S
C459 C460 1.398 . S
C459 C465 1.491 . S
C460 H451 0.950 . S
C460 C459 1.398 . S
C460 C461 1.391 . S
C461 H449 0.950 . S
C461 C457 1.393 . S
C461 C460 1.391 . S
C462 H452 0.950 . S
C462 C463 1.386 . S
C462 C464 1.391 . S
C463 C462 1.386 . S
C463 C467 1.393 . S
C464 H453 0.950 . S
C464 C462 1.391 . S
C464 C465 1.400 . S
C465 C459 1.491 . S
C465 C464 1.400 . S
C465 C466 1.398 . S
C466 H454 0.950 . S
C466 C465 1.398 . S
C466 C467 1.391 . S
C467 H455 0.950 . S
C467 C463 1.393 . S
C467 C466 1.391 . S
H468 C476 0.950 . S
H469 C481 0.950 . S
H470 C478 0.950 . S
H471 C480 0.950 . S
H472 C482 0.950 . S
H473 C484 0.950 . S
H474 C486 0.950 . S
H475 C487 0.950 . S
C476 H468 0.950 . S
C476 C477 1.386 . S
C476 C478 1.391 . S
C477 C476 1.386 . S
C477 C481 1.393 . S
C478 H470 0.950 . S
C478 C476 1.391 . S
C478 C479 1.400 . S
C479 C478 1.400 . S
C479 C480 1.398 . S
C479 C485 1.491 . S
C480 H471 0.950 . S
C480 C479 1.398 . S
C480 C481 1.391 . S
C481 H469 0.950 . S
C481 C477 1.393 . S
C481 C480 1.391 . S
C482 H472 0.950 . S
C482 C483 1.386 . S
C482 C484 1.391 . S
C483 C482 1.386 . S
C483 C487 1.393 . S
C484 H473 0.950 . S
C484 C482 1.391 . S
C484 C485 1.400 . S
C485 C479 1.491 . S
C485 C484 1.400 . S
C485 C486 1.398 . S
C486 H474 0.950 . S
C486 C485 1.398 . S
C486 C487 1.391 . S
C487 H475 0.950 . S
C487 C483 1.393 . S
C487 C486 1.391 . S
H488 C496 0.950 . S
H489 C501 0.950 . S
H490 C498 0.950 . S
H491 C500 0.950 . S
H492 C502 0.950 . S
H493 C504 0.950 . S
H494 C506 0.950 . S
H495 C507 0.950 . S
C496 H488 0.950 . S
C496 C497 1.386 . S
C496 C498 1.391 . S
C497 C496 1.386 . S
C497 C501 1.393 . S
C498 H490 0.950 . S
C498 C496 1.391 . S
C498 C499 1.400 . S
C499 C498 1.400 . S
C499 C500 1.398 . S
C499 C505 1.491 . S
C500 H491 0.950 . S
C500 C499 1.398 . S
C500 C501 1.391 . S
C501 H489 0.950 . S
C501 C497 1.393 . S
C501 C500 1.391 . S
C502 H492 0.950 . S
C502 C503 1.386 . S
C502 C504 1.391 . S
C503 C502 1.386 . S
C503 C507 1.393 . S
C504 H493 0.950 . S
C504 C502 1.391 . S
C504 C505 1.400 . S
C505 C499 1.491 . S
C505 C504 1.400 . S
C505 C506 1.398 . S
C506 H494 0.950 . S
C506 C505 1.398 . S
C506 C507 1.391 . S
C507 H495 0.950 . S
C507 C503 1.393 . S
C507 C506 1.391 . S
H508 C516 0.950 . S
H509 C521 0.950 . S
H510 C518 0.950 . S
H511 C520 0.950 . S
H512 C522 0.950 . S
H513 C524 0.950 . S
H514 C526 0.950 . S
H515 C527 0.950 . S
C516 H508 0.950 . S
C516 C517 1.386 . S
C516 C518 1.391 . S
C517 C516 1.386 . S
C517 C521 1.393 . S
C518 H510 0.950 . S
C518 C516 1.391 . S
C518 C519 1.400 . S
C519 C518 1.400 . S
C519 C520 1.398 . S
C519 C525 1.491 . S
C520 H511 0.950 . S
C520 C519 1.398 . S
C520 C521 1.391 . S
C521 H509 0.950 . S
C521 C517 1.393 . S
C521 C520 1.391 . S
C522 H512 0.950 . S
C522 C523 1.386 . S
C522 C524 1.391 . S
C523 C522 1.386 . S
C523 C527 1.393 . S
C524 H513 0.950 . S
C524 C522 1.391 . S
C524 C525 1.400 . S
C525 C519 1.491 . S
C525 C524 1.400 . S
C525 C526 1.398 . S
C526 H514 0.950 . S
C526 C525 1.398 . S
C526 C527 1.391 . S
C527 H515 0.950 . S
C527 C523 1.393 . S
C527 C526 1.391 . S
H528 C536 0.950 . S
H529 C541 0.950 . S
H530 C538 0.950 . S
H531 C540 0.950 . S
H532 C542 0.950 . S
H533 C544 0.950 . S
H534 C546 0.950 . S
H535 C547 0.950 . S
C536 H528 0.950 . S
C536 C537 1.386 . S
C536 C538 1.391 . S
C537 C536 1.386 . S
C537 C541 1.393 . S
C538 H530 0.950 . S
C538 C536 1.391 . S
C538 C539 1.400 . S
C539 C538 1.400 . S
C539 C540 1.398 . S
C539 C545 1.491 . S
C540 H531 0.950 . S
C540 C539 1.398 . S
C540 C541 1.391 . S
C541 H529 0.950 . S
C541 C537 1.393 . S
C541 C540 1.391 . S
C542 H532 0.950 . S
C542 C543 1.386 . S
C542 C544 1.391 . S
C543 C542 1.386 . S
C543 C547 1.393 . S
C544 H533 0.950 . S
C544 C542 1.391 . S
C544 C545 1.400 . S
C545 C539 1.491 . S
C545 C544 1.400 . S
C545 C546 1.398 . S
C546 H534 0.950 . S
C546 C545 1.398 . S
C546 C547 1.391 . S
C547 H535 0.950 . S
C547 C543 1.393 . S
C547 C546 1.391 . S
H548 C556 0.950 . S
H549 C561 0.950 . S
H550 C558 0.950 . S
H551 C560 0.950 . S
H552 C562 0.950 . S
H553 C564 0.950 . S
H554 C566 0.950 . S
H555 C567 0.950 . S
C556 H548 0.950 . S
C556 C557 1.386 . S
C556 C558 1.391 . S
C557 C556 1.386 . S
C557 C561 1.393 . S
C558 H550 0.950 . S
C558 C556 1.391 . S
C558 C559 1.400 . S
C559 C558 1.400 . S
C559 C560 1.398 . S
C559 C565 1.491 . S
C560 H551 0.950 . S
C560 C559 1.398 . S
C560 C561 1.391 . S
C561 H549 0.950 . S
C561 C557 1.393 . S
C561 C560 1.391 . S
C562 H552 0.950 . S
C562 C563 1.386 . S
C562 C564 1.391 . S
C563 C562 1.386 . S
C563 C567 1.393 . S
C564 H553 0.950 . S
C564 C562 1.391 . S
C564 C565 1.400 . S
C565 C559 1.491 . S
C565 C564 1.400 . S
C565 C566 1.398 . S
C566 H554 0.950 . S
C566 C565 1.398 . S
C566 C567 1.391 . S
C567 H555 0.950 . S
C567 C563 1.393 . S
C567 C566 1.391 . S
H568 C576 0.950 . S
H569 C581 0.950 . S
H570 C578 0.950 . S
H571 C580 0.950 . S
H572 C582 0.950 . S
H573 C584 0.950 . S
H574 C586 0.950 . S
H575 C587 0.950 . S
C576 H568 0.950 . S
C576 C577 1.386 . S
C576 C578 1.391 . S
C577 C576 1.386 . S
C577 C581 1.393 . S
C578 H570 0.950 . S
C578 C576 1.391 . S
C578 C579 1.400 . S
C579 C578 1.400 . S
C579 C580 1.398 . S
C579 C585 1.491 . S
C580 H571 0.950 . S
C580 C579 1.398 . S
C580 C581 1.391 . S
C581 H569 0.950 . S
C581 C577 1.393 . S
C581 C580 1.391 . S
C582 H572 0.950 . S
C582 C583 1.386 . S
C582 C584 1.391 . S
C583 C582 1.386 . S
C583 C587 1.393 . S
C584 H573 0.950 . S
C584 C582 1.391 . S
C584 C585 1.400 . S
C585 C579 1.491 . S
C585 C584 1.400 . S
C585 C586 1.398 . S
C586 H574 0.950 . S
C586 C585 1.398 . S
C586 C587 1.391 . S
C587 H575 0.950 . S
C587 C583 1.393 . S
C587 C586 1.391 . S
H588 C596 0.950 . S
H589 C601 0.950 . S
H590 C598 0.950 . S
H591 C600 0.950 . S
H592 C602 0.950 . S
H593 C604 0.950 . S
H594 C606 0.950 . S
H595 C607 0.950 . S
C596 H588 0.950 . S
C596 C597 1.386 . S
C596 C598 1.391 . S
C597 C596 1.386 . S
C597 C601 1.393 . S
C598 H590 0.950 . S
C598 C596 1.391 . S
C598 C599 1.400 . S
C599 C598 1.400 . S
C599 C600 1.398 . S
C599 C605 1.491 . S
C600 H591 0.950 . S
C600 C599 1.398 . S
C600 C601 1.391 . S
C601 H589 0.950 . S
C601 C597 1.393 . S
C601 C600 1.391 . S
C602 H592 0.950 . S
C602 C603 1.386 . S
C602 C604 1.391 . S
C603 C602 1.386 . S
C603 C607 1.393 . S
C604 H593 0.950 . S
C604 C602 1.391 . S
C604 C605 1.400 . S
C605 C599 1.491 . S
C605 C604 1.400 . S
C605 C606 1.398 . S
C606 H594 0.950 . S
C606 C605 1.398 . S
C606 C607 1.391 . S
C607 H595 0.950 . S
C607 C603 1.393 . S
C607 C606 1.391 . S
H608 C616 0.950 . S
H609 C621 0.950 . S
H610 C618 0.950 . S
H611 C620 0.950 . S
H612 C622 0.950 . S
H613 C624 0.950 . S
H614 C626 0.950 . S
H615 C627 0.950 . S
C616 H608 0.950 . S
C616 C617 1.386 . S
C616 C618 1.391 . S
C617 C616 1.386 . S
C617 C621 1.393 . S
C618 H610 0.950 . S
C618 C616 1.391 . S
C618 C619 1.400 . S
C619 C618 1.400 . S
C619 C620 1.398 . S
C619 C625 1.491 . S
C620 H611 0.950 . S
C620 C619 1.398 . S
C620 C621 1.391 . S
C621 H609 0.950 . S
C621 C617 1.393 . S
C621 C620 1.391 . S
C622 H612 0.950 . S
C622 C623 1.386 . S
C622 C624 1.391 . S
C623 C622 1.386 . S
C623 C627 1.393 . S
C624 H613 0.950 . S
C624 C622 1.391 . S
C624 C625 1.400 . S
C625 C619 1.491 . S
C625 C624 1.400 . S
C625 C626 1.398 . S
C626 H614 0.950 . S
C626 C625 1.398 . S
C626 C627 1.391 . S
C627 H615 0.950 . S
C627 C623 1.393 . S
C627 C626 1.391 . S
H628 C636 0.950 . S
H629 C641 0.950 . S
H630 C638 0.950 . S
H631 C640 0.950 . S
H632 C642 0.950 . S
H633 C644 0.950 . S
H634 C646 0.950 . S
H635 C647 0.950 . S
C636 H628 0.950 . S
C636 C637 1.386 . S
C636 C638 1.391 . S
C637 C636 1.386 . S
C637 C641 1.393 . S
C638 H630 0.950 . S
C638 C636 1.391 . S
C638 C639 1.400 . S
C639 C638 1.400 . S
C639 C640 1.398 . S
C639 C645 1.491 . S
C640 H631 0.950 . S
C640 C639 1.398 . S
C640 C641 1.391 . S
C641 H629 0.950 . S
C641 C637 1.393 . S
C641 C640 1.391 . S
C642 H632 0.950 . S
C642 C643 1.386 . S
C642 C644 1.391 . S
C643 C642 1.386 . S
C643 C647 1.393 . S
C644 H633 0.950 . S
C644 C642 1.391 . S
C644 C645 1.400 . S
C645 C639 1.491 . S
C645 C644 1.400 . S
C645 C646 1.398 . S
C646 H634 0.950 . S
C646 C645 1.398 . S
C646 C647 1.391 . S
C647 H635 0.950 . S
C647 C643 1.393 . S
C647 C646 1.391 . S
C177 C13 1.654 . S
C183 C85 1.618 . S
C197 C27 1.655 . S
C203 C110 1.631 . S
C223 C113 1.612 . S
C217 C29 1.647 . S
C243 C139 1.614 . S
C237 C54 1.652 . S
C263 C140 1.616 . S
C257 C69 1.648 . S
C283 C167 1.621 . S
C277 C83 1.651 . S
C297 C15 1.651 . S
C303 C112 1.622 . S
C317 C41 1.649 . S
C323 C138 1.617 . S
C343 C141 1.619 . S
C337 C42 1.650 . S
C363 C166 1.619 . S
C357 C57 1.649 . S
C377 C71 1.649 . S
C383 C84 1.617 . S
C403 C111 1.629 . S
C397 C1 1.658 . S
C423 C126 1.616 . S
C417 C12 1.657 . S
C437 C26 1.651 . S
C443 C153 1.624 . S
C463 C154 1.614 . S
C457 C28 1.653 . S
C477 C55 1.655 . S
C483 C96 1.622 . S
C497 C68 1.652 . S
C503 C99 1.627 . S
C517 C82 1.652 . S
C523 C124 1.625 . S
C537 C14 1.652 . S
C543 C155 1.617 . S
C563 C97 1.627 . S
C557 C40 1.650 . S
C577 C43 1.654 . S
C583 C98 1.623 . S
C597 C56 1.649 . S
C603 C125 1.616 . S
C617 C70 1.652 . S
C623 C127 1.621 . S
C637 C0 1.651 . S
C643 C152 1.613 . S
