# Generated by pormake.
# Topology tsx, (6,3)-cn, num edge types: 1
# Building blocks:
#     Node 0, Type 0, BuildingBlock: LEVNOQ01_clean_sbu_1, # of connection points: 6
#     Node 1, Type 0, BuildingBlock: LEVNOQ01_clean_sbu_1, # of connection points: 6
#     Node 2, Type 1, BuildingBlock: OLANEW_clean_sbu_2, # of connection points: 3
#     Node 3, Type 1, BuildingBlock: OLANEW_clean_sbu_2, # of connection points: 3
#     Node 4, Type 1, BuildingBlock: OLANEW_clean_sbu_2, # of connection points: 3
#     Node 5, Type 1, BuildingBlock: OLANEW_clean_sbu_2, # of connection points: 3
#     Edge 6, Type (0, 1), BuildingBlock: EZIPEK_clean_linker_0, # of connection points: 2
#     Edge 7, Type (0, 1), BuildingBlock: EZIPEK_clean_linker_0, # of connection points: 2
#     Edge 8, Type (0, 1), BuildingBlock: EZIPEK_clean_linker_0, # of connection points: 2
#     Edge 9, Type (0, 1), BuildingBlock: EZIPEK_clean_linker_0, # of connection points: 2
#     Edge 10, Type (0, 1), BuildingBlock: EZIPEK_clean_linker_0, # of connection points: 2
#     Edge 11, Type (0, 1), BuildingBlock: EZIPEK_clean_linker_0, # of connection points: 2
#     Edge 12, Type (0, 1), BuildingBlock: EZIPEK_clean_linker_0, # of connection points: 2
#     Edge 13, Type (0, 1), BuildingBlock: EZIPEK_clean_linker_0, # of connection points: 2
#     Edge 14, Type (0, 1), BuildingBlock: EZIPEK_clean_linker_0, # of connection points: 2
#     Edge 15, Type (0, 1), BuildingBlock: EZIPEK_clean_linker_0, # of connection points: 2
#     Edge 16, Type (0, 1), BuildingBlock: EZIPEK_clean_linker_0, # of connection points: 2
#     Edge 17, Type (0, 1), BuildingBlock: EZIPEK_clean_linker_0, # of connection points: 2
# Relax obj value: 0.040
# Max RMSD: 0.096
# Mean RMSD: 0.047
data_MOF--net-tsx--node1-LEVNOQ01_clean_sbu_1--node2-OLANEW_clean_sbu_2--edge1-EZIPEK_clean_linker_0
_symmetry_space_group_name_H-M    P1
_symmetry_Int_Tables_number       1
_symmetry_cell_setting            triclinic
loop_
_symmetry_equiv_pos_as_xyz
'x, y, z'
_cell_length_a     15.61018
_cell_length_b     18.979752
_cell_length_c     25.480771
_cell_angle_alpha  103.66622
_cell_angle_beta   92.087194
_cell_angle_gamma 90.710619
loop_
_atom_site_label
_atom_site_type_symbol
_atom_site_fract_x
_atom_site_fract_y
_atom_site_fract_z
_atom_type_partial_charge
O0 O 0.14479 -0.00402 0.13288 0.0
Mg1 Mg 0.22734 0.0104 0.07137 0.0
O2 O 0.01388 -0.00983 0.0923 0.0
Mg3 Mg 0.03277 0.00262 0.00396 0.0
O4 O 0.15219 0.06392 0.03026 0.0
O5 O 0.27618 0.11243 0.06262 0.0
O6 O 0.06765 0.01425 0.9169 0.0
O7 O 0.96198 0.11304 0.02179 0.0
Mg8 Mg 0.87911 -0.00918 0.91949 0.0
O9 O 0.90603 0.93846 0.97868 0.0
O10 O 0.96408 0.96743 0.85692 0.0
O11 O 0.8609 0.101 0.95609 0.0
O12 O 0.78811 0.91474 0.92461 0.0
C13 C 0.1798 0.87002 0.98981 0.0
C14 C 0.06373 -0.01317 0.1329 0.0
C15 C 0.20528 0.11709 0.03649 0.0
C16 C 0.03939 -0.00705 0.86797 0.0
C17 C 0.9009 0.13871 0.99774 0.0
C18 C 0.83451 0.90237 0.9643 0.0
O19 O 0.24101 0.91092 0.01457 0.0
O20 O 0.10343 0.89259 0.98642 0.0
O21 O 0.64732 0.56334 0.66082 0.0
Mg22 Mg 0.72133 0.55362 0.59248 0.0
O23 O 0.52498 0.52098 0.61757 0.0
Mg24 Mg 0.53485 0.51867 0.52437 0.0
O25 O 0.64969 0.59466 0.5393 0.0
O26 O 0.77545 0.64405 0.57097 0.0
O27 O 0.54592 0.51764 0.43359 0.0
O28 O 0.45549 0.62618 0.53911 0.0
Mg29 Mg 0.3597 0.50448 0.47232 0.0
O30 O 0.42197 0.43148 0.5062 0.0
O31 O 0.41322 0.50962 0.39825 0.0
O32 O 0.31846 0.59922 0.52337 0.0
O33 O 0.28685 0.41603 0.47157 0.0
C34 C 0.69677 0.40057 0.52173 0.0
C35 C 0.56961 0.54324 0.66184 0.0
C36 C 0.70737 0.6443 0.54092 0.0
C37 C 0.49354 0.51403 0.39338 0.0
C38 C 0.37764 0.64578 0.54 0.0
C39 C 0.35237 0.39136 0.49337 0.0
O40 O 0.74751 0.44514 0.55362 0.0
O41 O 0.62178 0.41859 0.50878 0.0
O42 O 0.03398 0.79664 0.3072 0.0
Cd43 Cd 0.01331 0.753 0.38851 0.0
O44 O 0.97969 0.89273 0.35846 0.0
Cd45 Cd 0.93285 0.00118 0.37056 0.0
O46 O 0.87609 0.10563 0.39608 0.0
C47 C 0.82911 0.11531 0.43664 0.0
O48 O 0.81627 0.06206 0.4605 0.0
C49 C 0.00921 0.86131 0.31348 0.0
C50 C 0.1523 0.78323 0.46213 0.0
O51 O 0.14785 0.72592 0.42357 0.0
O52 O 0.09146 0.82859 0.46581 0.0
O53 O 0.16145 0.00607 0.6271 0.0
Cd54 Cd 0.14793 -0.0049 0.53012 0.0
O55 O 0.0283 0.96832 0.6313 0.0
Cd56 Cd -0.0056 0.93919 0.54459 0.0
O57 O 0.90035 0.86953 0.48987 0.0
C58 C 0.8221 0.886 0.49635 0.0
O59 O 0.80585 0.94792 0.52992 0.0
C60 C 0.09994 -0.00796 0.65443 0.0
C61 C 0.23547 0.11349 0.5105 0.0
O62 O 0.1554 0.11685 0.51998 0.0
O63 O 0.27362 0.05352 0.50809 0.0
O64 O 0.5144 0.36759 0.8426 0.0
Cd65 Cd 0.50039 0.33961 0.931 0.0
O66 O 0.5457 0.47106 0.89851 0.0
Cd67 Cd 0.55956 0.58747 0.9163 0.0
O68 O 0.45493 0.66073 0.9319 0.0
C69 C 0.38076 0.631 0.92336 0.0
O70 O 0.37261 0.56025 0.90625 0.0
C71 C 0.53183 0.43473 0.85026 0.0
C72 C 0.65685 0.32038 0.98046 0.0
O73 O 0.61402 0.26726 0.95005 0.0
O74 O 0.62642 0.38422 0.98808 0.0
O75 O 0.65153 0.56026 0.16922 0.0
Cd76 Cd 0.60445 0.56258 0.07732 0.0
O77 O 0.54596 0.48461 0.13958 0.0
Cd78 Cd 0.43116 0.42386 0.14397 0.0
O79 O 0.31886 0.37072 0.10006 0.0
C80 C 0.30039 0.37488 0.05183 0.0
O81 O 0.35006 0.41353 0.02836 0.0
C82 C 0.59445 0.51767 0.17877 0.0
C83 C 0.67661 0.67877 0.047 0.0
O84 O 0.6183 0.68851 0.08192 0.0
O85 O 0.69929 0.61381 0.02618 0.0
C86 C 0.23243 0.19706 0.975 0.0
C87 C 0.18616 0.18317 0.0183 0.0
C88 C 0.16327 0.3121 0.05141 0.0
C89 C 0.23304 0.32478 0.02118 0.0
N90 N 0.30754 0.28753 0.9388 0.0
N91 N 0.09307 0.2248 0.09214 0.0
C92 C 0.25727 0.26992 0.97666 0.0
C93 C 0.1439 0.23983 0.05353 0.0
N94 N 0.2551 0.14018 0.93456 0.0
N95 N 0.12254 0.37 0.08159 0.0
H96 H 0.07943 0.1718 0.09471 0.0
H97 H 0.06683 0.2644 0.12237 0.0
H98 H 0.14047 0.42297 0.08074 0.0
H99 H 0.06822 0.36544 0.10318 0.0
H100 H 0.28857 0.14541 0.90109 0.0
H101 H 0.23562 0.08704 0.93369 0.0
H102 H 0.33328 0.24995 0.90709 0.0
H103 H 0.32029 0.34144 0.9383 0.0
C104 C 0.2361 0.75983 0.01225 0.0
C105 C 0.19811 0.79208 0.97273 0.0
C106 C 0.25146 0.69595 0.90065 0.0
C107 C 0.30543 0.67505 0.94012 0.0
N108 N 0.34281 0.67781 0.03321 0.0
N109 N 0.14492 0.78045 0.88146 0.0
C110 C 0.29441 0.70312 0.99603 0.0
C111 C 0.19679 0.75604 0.91736 0.0
N112 N 0.21592 0.78443 0.06512 0.0
N113 N 0.25568 0.66013 0.84755 0.0
H114 H 0.10148 0.82173 0.89393 0.0
H115 H 0.14159 0.75873 0.83998 0.0
H116 H 0.29496 0.61574 0.83489 0.0
H117 H 0.21952 0.67241 0.81597 0.0
H118 H 0.23657 0.76064 0.09606 0.0
H119 H 0.17138 0.8252 0.077 0.0
H120 H 0.3456 0.70172 0.07445 0.0
H121 H 0.38274 0.63344 0.02239 0.0
C122 C 0.71553 0.86004 0.01173 0.0
C123 C 0.80087 0.85153 0.99456 0.0
C124 C 0.80963 0.73977 0.02578 0.0
C125 C 0.71951 0.74088 0.03226 0.0
N126 N 0.58372 0.79772 0.02115 0.0
N127 N 0.92699 0.77817 0.97897 0.0
C128 C 0.67139 0.80016 0.02305 0.0
C129 C 0.84785 0.79021 0.00013 0.0
N130 N 0.67686 0.9255 0.01753 0.0
N131 N 0.85906 0.69211 0.04549 0.0
H132 H 0.95673 0.81321 0.95905 0.0
H133 H 0.95988 0.73026 0.97709 0.0
H134 H 0.83491 0.65902 0.06908 0.0
H135 H 0.92566 0.69164 0.04418 0.0
H136 H 0.61717 0.93609 0.03442 0.0
H137 H 0.70863 0.97131 0.01117 0.0
H138 H 0.54673 0.83716 0.00942 0.0
H139 H 0.54763 0.75286 0.02502 0.0
C140 C 0.88365 0.26211 0.98514 0.0
C141 C 0.87087 0.21305 0.01816 0.0
C142 C 0.73829 0.2727 0.04938 0.0
C143 C 0.73962 0.30625 0.00544 0.0
N144 N 0.81835 0.34762 0.93881 0.0
N145 N 0.79935 0.18055 0.09093 0.0
C146 C 0.81523 0.30739 0.97663 0.0
C147 C 0.80365 0.22307 0.05471 0.0
N148 N 0.95951 0.26157 0.96009 0.0
N149 N 0.67282 0.28678 0.0842 0.0
H150 H 0.84864 0.14564 0.09575 0.0
H151 H 0.74788 0.17923 0.11551 0.0
H152 H 0.6252 0.32355 0.08017 0.0
H153 H 0.66908 0.26698 0.11881 0.0
H154 H 0.97583 0.29748 0.93673 0.0
H155 H 0.00877 0.22736 0.96638 0.0
H156 H 0.86827 0.34629 0.91266 0.0
H157 H 0.76927 0.3825 0.93354 0.0
C158 C 0.74555 0.6943 0.46287 0.0
C159 C 0.69866 0.70082 0.51029 0.0
C160 C 0.68523 0.83032 0.51699 0.0
C161 C 0.75527 0.82669 0.48296 0.0
N162 N 0.82454 0.75725 0.40584 0.0
N163 N 0.6137 0.77303 0.57925 0.0
C164 C 0.77547 0.75877 0.44929 0.0
C165 C 0.66337 0.76804 0.53559 0.0
N166 N 0.76409 0.62683 0.43314 0.0
N167 N 0.64022 0.8926 0.5309 0.0
H168 H 0.59439 0.72745 0.59241 0.0
H169 H 0.5942 0.82229 0.60299 0.0
H170 H 0.65235 0.93648 0.51388 0.0
H171 H 0.5851 0.89688 0.55321 0.0
H172 H 0.79906 0.61698 0.39829 0.0
H173 H 0.74053 0.57991 0.44282 0.0
H174 H 0.84483 0.71015 0.37984 0.0
H175 H 0.84211 0.80502 0.39497 0.0
C176 C 0.6743 0.26433 0.49364 0.0
C177 C 0.72777 0.32687 0.49782 0.0
C178 C 0.84945 0.24911 0.46987 0.0
C179 C 0.79386 0.18746 0.45868 0.0
N180 N 0.64911 0.13816 0.44851 0.0
N181 N 0.86012 0.37666 0.47322 0.0
C182 C 0.70486 0.19543 0.46714 0.0
C183 C 0.81368 0.31876 0.48109 0.0
N184 N 0.59659 0.26959 0.51717 0.0
N185 N 0.93642 0.24161 0.47174 0.0
H186 H 0.8342 0.42775 0.47611 0.0
H187 H 0.92075 0.37151 0.45702 0.0
H188 H 0.96562 0.19138 0.4662 0.0
H189 H 0.9789 0.28563 0.48485 0.0
H190 H 0.55909 0.22443 0.5189 0.0
H191 H 0.5737 0.31793 0.54028 0.0
H192 H 0.58273 0.14344 0.44883 0.0
H193 H 0.66874 0.08713 0.42782 0.0
C194 C 0.36237 0.29137 0.5441 0.0
C195 C 0.34846 0.31373 0.49521 0.0
C196 C 0.27337 0.19903 0.45362 0.0
C197 C 0.28273 0.17812 0.5032 0.0
N198 N 0.35327 0.19397 0.59107 0.0
N199 N 0.32282 0.27831 0.39872 0.0
C200 C 0.33365 0.22074 0.54687 0.0
C201 C 0.31436 0.26382 0.44837 0.0
N202 N 0.39883 0.33853 0.58839 0.0
N203 N 0.22313 0.15825 0.41216 0.0
H204 H 0.35605 0.32422 0.3937 0.0
H205 H 0.30559 0.24149 0.3625 0.0
H206 H 0.19447 0.10901 0.41402 0.0
H207 H 0.20563 0.17538 0.3774 0.0
H208 H 0.40208 0.32884 0.62692 0.0
H209 H 0.42404 0.389 0.58698 0.0
H210 H 0.39677 0.21886 0.622 0.0
H211 H 0.33073 0.14361 0.59505 0.0
C212 C 0.28162 0.74518 0.57633 0.0
C213 C 0.35418 0.72251 0.54579 0.0
C214 C 0.30867 0.79254 0.48116 0.0
C215 C 0.22578 0.79336 0.50163 0.0
N216 N 0.13709 0.79211 0.57654 0.0
N217 N 0.4526 0.74489 0.48081 0.0
C218 C 0.2142 0.77894 0.55296 0.0
C219 C 0.37424 0.75527 0.50304 0.0
N220 N 0.27598 0.72876 0.62538 0.0
N221 N 0.3217 0.8239 0.43901 0.0
H222 H 0.50071 0.71764 0.49664 0.0
H223 H 0.47091 0.76368 0.44765 0.0
H224 H 0.27277 0.85137 0.42368 0.0
H225 H 0.38037 0.82662 0.42147 0.0
H226 H 0.22598 0.74419 0.65126 0.0
H227 H 0.32596 0.70279 0.64113 0.0
H228 H 0.12137 0.77769 0.61198 0.0
H229 H 0.08856 0.81886 0.56036 0.0
C230 C 0.98681 0.89496 0.17272 0.0
C231 C 0.03052 0.96303 0.18 0.0
C232 C 0.06013 0.96474 0.27547 0.0
C233 C 0.01242 0.89889 0.26873 0.0
N234 N 0.90987 0.81302 0.21499 0.0
N235 N 0.08794 0.07127 0.24134 0.0
C236 C 0.96899 0.86787 0.21867 0.0
C237 C 0.05999 0.0008 0.23256 0.0
N238 N 0.96833 0.85285 0.12213 0.0
N239 N 0.10997 -0.00931 0.32135 0.0
H240 H 0.08674 0.09945 0.21074 0.0
H241 H 0.10347 0.10355 0.27972 0.0
H242 H 0.11335 0.96546 0.35352 0.0
H243 H 0.15416 0.03332 0.3251 0.0
H244 H 0.94722 0.79919 0.11563 0.0
H245 H 0.98161 0.86808 0.08662 0.0
H246 H 0.87013 0.7935 0.18071 0.0
H247 H 0.89436 0.79229 0.24798 0.0
C248 C 0.14137 0.95757 0.79346 0.0
C249 C 0.08651 0.00962 0.82308 0.0
C250 C 0.06412 0.06399 0.74607 0.0
C251 C 0.10925 0.00592 0.71398 0.0
N252 N 0.2076 0.90767 0.70785 0.0
N253 N 0.02148 0.12576 0.83596 0.0
C254 C 0.15449 0.95643 0.73818 0.0
C255 C 0.05702 0.06775 0.80202 0.0
N256 N 0.17809 0.90846 0.81826 0.0
N257 N 0.02503 0.11335 0.72237 0.0
H258 H 0.01702 0.1289 0.87724 0.0
H259 H 0.00363 0.17293 0.82473 0.0
H260 H 0.03286 0.11411 0.68201 0.0
H261 H 0.98291 0.15205 0.7419 0.0
H262 H 0.21347 0.86452 0.79891 0.0
H263 H 0.17366 0.91337 0.85973 0.0
H264 H 0.24516 0.87153 0.72293 0.0
H265 H 0.21749 0.90552 0.66726 0.0
C266 C 0.59422 0.56043 0.76154 0.0
C267 C 0.53827 0.53612 0.71567 0.0
C268 C 0.45953 0.46372 0.7673 0.0
C269 C 0.53138 0.47145 0.80466 0.0
N270 N 0.67269 0.524 0.83324 0.0
N271 N 0.39849 0.48575 0.68333 0.0
C272 C 0.59988 0.51962 0.80109 0.0
C273 C 0.46464 0.49385 0.72089 0.0
N274 N 0.64 0.62383 0.76803 0.0
N275 N 0.3856 0.43101 0.77772 0.0
H276 H 0.39298 0.51847 0.65585 0.0
H277 H 0.3474 0.44921 0.6806 0.0
H278 H 0.37833 0.41235 0.81267 0.0
H279 H 0.32897 0.42711 0.75437 0.0
H280 H 0.67728 0.64636 0.80291 0.0
H281 H 0.63086 0.65803 0.74174 0.0
H282 H 0.72669 0.55432 0.82827 0.0
H283 H 0.68255 0.49202 0.86093 0.0
C284 C 0.5819 0.46383 0.31281 0.0
C285 C 0.52579 0.51748 0.34019 0.0
C286 C 0.51276 0.56856 0.26068 0.0
C287 C 0.57323 0.51827 0.23472 0.0
N288 N 0.67484 0.42467 0.23736 0.0
N289 N 0.45281 0.6301 0.34504 0.0
C290 C 0.61105 0.46805 0.26132 0.0
C291 C 0.49545 0.57249 0.31547 0.0
N292 N 0.6035 0.40681 0.33456 0.0
N293 N 0.47008 0.6114 0.23256 0.0
H294 H 0.44024 0.63574 0.38571 0.0
H295 H 0.43724 0.67573 0.33093 0.0
H296 H 0.48259 0.612 0.19273 0.0
H297 H 0.41767 0.64231 0.24731 0.0
H298 H 0.6366 0.36206 0.314 0.0
H299 H 0.58247 0.40105 0.37172 0.0
H300 H 0.71137 0.39231 0.25694 0.0
H301 H 0.69558 0.42503 0.19895 0.0
loop_
_geom_bond_atom_site_label_1
_geom_bond_atom_site_label_2
_geom_bond_distance
_geom_bond_site_symmetry_2
_ccdc_geom_bond_type
O0 Mg1 1.990 . S
O0 C14 1.253 . S
Mg1 O0 1.990 . S
Mg1 O4 2.180 . S
Mg1 O5 2.117 . S
Mg1 O19 2.030 1_545 S
O2 Mg3 2.072 1_554 S
O2 C14 1.260 . S
Mg3 O2 2.072 1_556 S
Mg3 O4 2.099 1_556 S
Mg3 O6 2.079 . S
Mg3 O7 2.072 1_456 S
Mg3 O9 2.099 1_445 S
Mg3 O20 2.079 1_545 S
O4 Mg1 2.180 . S
O4 Mg3 2.099 1_554 S
O4 C15 1.279 . S
O5 Mg1 2.117 . S
O5 C15 1.250 . S
O6 Mg3 2.079 . S
O6 C16 1.264 . S
O7 Mg3 2.072 1_654 S
O7 C17 1.260 1_554 S
Mg8 O9 2.180 . S
Mg8 O10 2.030 1_565 S
Mg8 O11 1.990 1_565 S
Mg8 O12 2.117 . S
O9 Mg3 2.099 1_665 S
O9 Mg8 2.180 . S
O9 C18 1.279 . S
O10 Mg8 2.030 1_545 S
O10 C16 1.248 1_655 S
O11 Mg8 1.990 1_545 S
O11 C17 1.253 . S
O12 Mg8 2.117 . S
O12 C18 1.250 . S
C13 O19 1.248 . S
C13 O20 1.264 1_554 S
C14 O0 1.253 . S
C14 O2 1.260 . S
C15 O4 1.279 . S
C15 O5 1.250 . S
C16 O6 1.264 . S
C16 O10 1.248 1_455 S
C17 O7 1.260 1_556 S
C17 O11 1.253 . S
C18 O9 1.279 . S
C18 O12 1.250 . S
O19 Mg1 2.030 1_565 S
O19 C13 1.248 . S
O20 Mg3 2.079 1_565 S
O20 C13 1.264 1_556 S
O21 Mg22 1.990 . S
O21 C35 1.253 . S
Mg22 O21 1.990 . S
Mg22 O25 2.180 . S
Mg22 O26 2.117 . S
Mg22 O40 2.030 . S
O23 Mg24 2.072 . S
O23 C35 1.260 . S
Mg24 O23 2.072 . S
Mg24 O25 2.099 . S
Mg24 O27 2.079 . S
Mg24 O28 2.072 . S
Mg24 O30 2.099 . S
Mg24 O41 2.079 . S
O25 Mg22 2.180 . S
O25 Mg24 2.099 . S
O25 C36 1.279 . S
O26 Mg22 2.117 . S
O26 C36 1.250 . S
O27 Mg24 2.079 . S
O27 C37 1.264 . S
O28 Mg24 2.072 . S
O28 C38 1.260 . S
Mg29 O30 2.180 . S
Mg29 O31 2.030 . S
Mg29 O32 1.990 . S
Mg29 O33 2.117 . S
O30 Mg24 2.099 . S
O30 Mg29 2.180 . S
O30 C39 1.279 . S
O31 Mg29 2.030 . S
O31 C37 1.248 . S
O32 Mg29 1.990 . S
O32 C38 1.253 . S
O33 Mg29 2.117 . S
O33 C39 1.250 . S
C34 O40 1.248 . S
C34 O41 1.264 . S
C35 O21 1.253 . S
C35 O23 1.260 . S
C36 O25 1.279 . S
C36 O26 1.250 . S
C37 O27 1.264 . S
C37 O31 1.248 . S
C38 O28 1.260 . S
C38 O32 1.253 . S
C39 O30 1.279 . S
C39 O33 1.250 . S
O40 Mg22 2.030 . S
O40 C34 1.248 . S
O41 Mg24 2.079 . S
O41 C34 1.264 . S
O42 Cd43 2.300 . S
O42 C49 1.275 1_565 S
Cd43 O42 2.300 . S
Cd43 O51 2.381 . S
Cd43 O52 2.378 . S
O44 Cd45 2.385 . S
O44 C49 1.255 . S
Cd45 O44 2.385 . S
Cd45 O46 2.317 1_455 S
O46 Cd45 2.317 1_655 S
O46 C47 1.232 . S
C47 O46 1.232 . S
C47 O48 1.218 . S
O48 C47 1.218 . S
C49 O42 1.275 1_545 S
C49 O44 1.255 . S
C50 O51 1.258 . S
C50 O52 1.256 . S
O51 Cd43 2.381 . S
O51 C50 1.258 . S
O52 Cd43 2.378 . S
O52 C50 1.256 . S
O53 Cd54 2.300 . S
O53 C60 1.275 . S
Cd54 O53 2.300 . S
Cd54 O62 2.381 . S
Cd54 O63 2.378 . S
O55 Cd56 2.385 . S
O55 C60 1.255 1_565 S
Cd56 O55 2.385 . S
Cd56 O57 2.317 1_455 S
O57 Cd56 2.317 1_655 S
O57 C58 1.232 . S
C58 O57 1.232 . S
C58 O59 1.218 . S
O59 C58 1.218 . S
C60 O53 1.275 . S
C60 O55 1.255 1_545 S
C61 O62 1.258 . S
C61 O63 1.256 . S
O62 Cd54 2.381 . S
O62 C61 1.258 . S
O63 Cd54 2.378 . S
O63 C61 1.256 . S
O64 Cd65 2.300 . S
O64 C71 1.275 . S
Cd65 O64 2.300 . S
Cd65 O73 2.381 . S
Cd65 O74 2.378 1_556 S
O66 Cd67 2.385 . S
O66 C71 1.255 . S
Cd67 O66 2.385 . S
Cd67 O68 2.317 . S
O68 Cd67 2.317 . S
O68 C69 1.232 . S
C69 O68 1.232 . S
C69 O70 1.218 . S
O70 C69 1.218 . S
C71 O64 1.275 . S
C71 O66 1.255 . S
C72 O73 1.258 . S
C72 O74 1.256 1_556 S
O73 Cd65 2.381 . S
O73 C72 1.258 . S
O74 Cd65 2.378 1_554 S
O74 C72 1.256 1_554 S
O75 Cd76 2.300 . S
O75 C82 1.275 . S
Cd76 O75 2.300 . S
Cd76 O84 2.381 . S
Cd76 O85 2.378 . S
O77 Cd78 2.385 . S
O77 C82 1.255 . S
Cd78 O77 2.385 . S
Cd78 O79 2.317 . S
O79 Cd78 2.317 . S
O79 C80 1.232 . S
C80 O79 1.232 . S
C80 O81 1.218 . S
O81 C80 1.218 . S
C82 O75 1.275 . S
C82 O77 1.255 . S
C83 O84 1.258 . S
C83 O85 1.256 . S
O84 Cd76 2.381 . S
O84 C83 1.258 . S
O85 Cd76 2.378 . S
O85 C83 1.256 . S
C86 C87 1.363 1_556 S
C86 C92 1.379 . S
C86 N94 1.356 . S
C87 C86 1.363 1_554 S
C87 C93 1.363 . S
C88 C89 1.363 . S
C88 C93 1.379 . S
C88 N95 1.356 . S
C89 C88 1.363 . S
C89 C92 1.363 1_554 S
N90 C92 1.356 . S
N90 H102 0.984 . S
N90 H103 0.985 . S
N91 C93 1.356 . S
N91 H96 0.984 . S
N91 H97 0.985 . S
C92 C86 1.379 . S
C92 C89 1.363 1_556 S
C92 N90 1.356 . S
C93 C87 1.363 . S
C93 C88 1.379 . S
C93 N91 1.356 . S
N94 C86 1.356 . S
N94 H100 0.984 . S
N94 H101 0.984 . S
N95 C88 1.356 . S
N95 H98 0.984 . S
N95 H99 0.985 . S
H96 N91 0.984 . S
H97 N91 0.985 . S
H98 N95 0.984 . S
H99 N95 0.985 . S
H100 N94 0.984 . S
H101 N94 0.984 . S
H102 N90 0.984 . S
H103 N90 0.985 . S
C104 C105 1.363 1_554 S
C104 C110 1.379 . S
C104 N112 1.356 . S
C105 C104 1.363 1_556 S
C105 C111 1.363 . S
C106 C107 1.363 . S
C106 C111 1.379 . S
C106 N113 1.356 . S
C107 C106 1.363 . S
C107 C110 1.363 1_556 S
N108 C110 1.356 . S
N108 H120 0.984 . S
N108 H121 0.985 . S
N109 C111 1.356 . S
N109 H114 0.984 . S
N109 H115 0.985 . S
C110 C104 1.379 . S
C110 C107 1.363 1_554 S
C110 N108 1.356 . S
C111 C105 1.363 . S
C111 C106 1.379 . S
C111 N109 1.356 . S
N112 C104 1.356 . S
N112 H118 0.984 . S
N112 H119 0.984 . S
N113 C106 1.356 . S
N113 H116 0.984 . S
N113 H117 0.985 . S
H114 N109 0.984 . S
H115 N109 0.985 . S
H116 N113 0.984 . S
H117 N113 0.985 . S
H118 N112 0.984 . S
H119 N112 0.984 . S
H120 N108 0.984 . S
H121 N108 0.985 . S
C122 C123 1.361 1_556 S
C122 C128 1.377 1_556 S
C122 N130 1.359 . S
C123 C122 1.361 1_554 S
C123 C129 1.363 . S
C124 C125 1.363 . S
C124 C129 1.379 . S
C124 N131 1.356 . S
C125 C124 1.363 . S
C125 C128 1.363 . S
N126 C128 1.356 1_556 S
N126 H138 0.984 . S
N126 H139 0.985 . S
N127 C129 1.356 . S
N127 H132 0.984 . S
N127 H133 0.985 . S
C128 C122 1.377 1_554 S
C128 C125 1.363 . S
C128 N126 1.356 1_554 S
C129 C123 1.363 . S
C129 C124 1.379 . S
C129 N127 1.356 . S
N130 C122 1.359 . S
N130 H136 0.984 . S
N130 H137 0.984 . S
N131 C124 1.356 . S
N131 H134 0.984 . S
N131 H135 0.985 . S
H132 N127 0.984 . S
H133 N127 0.985 . S
H134 N131 0.984 . S
H135 N131 0.985 . S
H136 N130 0.984 . S
H137 N130 0.984 . S
H138 N126 0.984 . S
H139 N126 0.985 . S
C140 C141 1.353 1_556 S
C140 C146 1.379 . S
C140 N148 1.356 . S
C141 C140 1.353 1_554 S
C141 C147 1.370 . S
C142 C143 1.363 1_554 S
C142 C147 1.379 . S
C142 N149 1.356 . S
C143 C142 1.363 1_556 S
C143 C146 1.363 . S
N144 C146 1.356 . S
N144 H156 0.984 . S
N144 H157 0.985 . S
N145 C147 1.356 . S
N145 H150 0.984 . S
N145 H151 0.985 . S
C146 C140 1.379 . S
C146 C143 1.363 . S
C146 N144 1.356 . S
C147 C141 1.370 . S
C147 C142 1.379 . S
C147 N145 1.356 . S
N148 C140 1.356 . S
N148 H154 0.984 . S
N148 H155 0.984 . S
N149 C142 1.356 . S
N149 H152 0.984 . S
N149 H153 0.985 . S
H150 N145 0.984 . S
H151 N145 0.985 . S
H152 N149 0.984 . S
H153 N149 0.985 . S
H154 N148 0.984 . S
H155 N148 0.984 . S
H156 N144 0.984 . S
H157 N144 0.985 . S
C158 C159 1.363 . S
C158 C164 1.379 . S
C158 N166 1.356 . S
C159 C158 1.363 . S
C159 C165 1.363 . S
C160 C161 1.363 . S
C160 C165 1.379 . S
C160 N167 1.356 . S
C161 C160 1.363 . S
C161 C164 1.363 . S
N162 C164 1.356 . S
N162 H174 0.984 . S
N162 H175 0.985 . S
N163 C165 1.356 . S
N163 H168 0.984 . S
N163 H169 0.985 . S
C164 C158 1.379 . S
C164 C161 1.363 . S
C164 N162 1.356 . S
C165 C159 1.363 . S
C165 C160 1.379 . S
C165 N163 1.356 . S
N166 C158 1.356 . S
N166 H172 0.984 . S
N166 H173 0.984 . S
N167 C160 1.356 . S
N167 H170 0.984 . S
N167 H171 0.985 . S
H168 N163 0.984 . S
H169 N163 0.985 . S
H170 N167 0.984 . S
H171 N167 0.985 . S
H172 N166 0.984 . S
H173 N166 0.984 . S
H174 N162 0.984 . S
H175 N162 0.985 . S
C176 C177 1.363 . S
C176 C182 1.379 . S
C176 N184 1.356 . S
C177 C176 1.363 . S
C177 C183 1.363 . S
C178 C179 1.363 . S
C178 C183 1.379 . S
C178 N185 1.356 . S
C179 C178 1.363 . S
C179 C182 1.363 . S
N180 C182 1.356 . S
N180 H192 0.984 . S
N180 H193 0.985 . S
N181 C183 1.356 . S
N181 H186 0.984 . S
N181 H187 0.985 . S
C182 C176 1.379 . S
C182 C179 1.363 . S
C182 N180 1.356 . S
C183 C177 1.363 . S
C183 C178 1.379 . S
C183 N181 1.356 . S
N184 C176 1.356 . S
N184 H190 0.984 . S
N184 H191 0.984 . S
N185 C178 1.356 . S
N185 H188 0.984 . S
N185 H189 0.985 . S
H186 N181 0.984 . S
H187 N181 0.985 . S
H188 N185 0.984 . S
H189 N185 0.985 . S
H190 N184 0.984 . S
H191 N184 0.984 . S
H192 N180 0.984 . S
H193 N180 0.985 . S
C194 C195 1.363 . S
C194 C200 1.379 . S
C194 N202 1.356 . S
C195 C194 1.363 . S
C195 C201 1.363 . S
C196 C197 1.363 . S
C196 C201 1.379 . S
C196 N203 1.356 . S
C197 C196 1.363 . S
C197 C200 1.363 . S
N198 C200 1.356 . S
N198 H210 0.984 . S
N198 H211 0.985 . S
N199 C201 1.356 . S
N199 H204 0.984 . S
N199 H205 0.985 . S
C200 C194 1.379 . S
C200 C197 1.363 . S
C200 N198 1.356 . S
C201 C195 1.363 . S
C201 C196 1.379 . S
C201 N199 1.356 . S
N202 C194 1.356 . S
N202 H208 0.984 . S
N202 H209 0.984 . S
N203 C196 1.356 . S
N203 H206 0.984 . S
N203 H207 0.985 . S
H204 N199 0.984 . S
H205 N199 0.985 . S
H206 N203 0.984 . S
H207 N203 0.985 . S
H208 N202 0.984 . S
H209 N202 0.984 . S
H210 N198 0.984 . S
H211 N198 0.985 . S
C212 C213 1.363 . S
C212 C218 1.379 . S
C212 N220 1.356 . S
C213 C212 1.363 . S
C213 C219 1.363 . S
C214 C215 1.363 . S
C214 C219 1.379 . S
C214 N221 1.356 . S
C215 C214 1.363 . S
C215 C218 1.363 . S
N216 C218 1.356 . S
N216 H228 0.984 . S
N216 H229 0.985 . S
N217 C219 1.356 . S
N217 H222 0.984 . S
N217 H223 0.985 . S
C218 C212 1.379 . S
C218 C215 1.363 . S
C218 N216 1.356 . S
C219 C213 1.363 . S
C219 C214 1.379 . S
C219 N217 1.356 . S
N220 C212 1.356 . S
N220 H226 0.984 . S
N220 H227 0.984 . S
N221 C214 1.356 . S
N221 H224 0.984 . S
N221 H225 0.985 . S
H222 N217 0.984 . S
H223 N217 0.985 . S
H224 N221 0.984 . S
H225 N221 0.985 . S
H226 N220 0.984 . S
H227 N220 0.984 . S
H228 N216 0.984 . S
H229 N216 0.985 . S
C230 C231 1.363 1_665 S
C230 C236 1.379 . S
C230 N238 1.356 . S
C231 C230 1.363 1_445 S
C231 C237 1.363 . S
C232 C233 1.363 . S
C232 C237 1.379 . S
C232 N239 1.356 . S
C233 C232 1.363 . S
C233 C236 1.363 1_445 S
N234 C236 1.356 . S
N234 H246 0.984 . S
N234 H247 0.985 . S
N235 C237 1.356 . S
N235 H240 0.984 . S
N235 H241 0.985 . S
C236 C230 1.379 . S
C236 C233 1.363 1_665 S
C236 N234 1.356 . S
C237 C231 1.363 . S
C237 C232 1.379 . S
C237 N235 1.356 . S
N238 C230 1.356 . S
N238 H244 0.984 . S
N238 H245 0.984 . S
N239 C232 1.356 . S
N239 H242 0.984 . S
N239 H243 0.985 . S
H240 N235 0.984 . S
H241 N235 0.985 . S
H242 N239 0.984 . S
H243 N239 0.985 . S
H244 N238 0.984 . S
H245 N238 0.984 . S
H246 N234 0.984 . S
H247 N234 0.985 . S
C248 C249 1.363 1_565 S
C248 C254 1.379 . S
C248 N256 1.356 . S
C249 C248 1.363 1_545 S
C249 C255 1.363 1_455 S
C250 C251 1.363 1_655 S
C250 C255 1.379 . S
C250 N257 1.356 . S
C251 C250 1.363 1_455 S
C251 C254 1.363 1_545 S
N252 C254 1.356 . S
N252 H264 0.984 . S
N252 H265 0.985 . S
N253 C255 1.356 . S
N253 H258 0.984 . S
N253 H259 0.985 . S
C254 C248 1.379 . S
C254 C251 1.363 1_565 S
C254 N252 1.356 . S
C255 C249 1.363 1_655 S
C255 C250 1.379 . S
C255 N253 1.356 . S
N256 C248 1.356 . S
N256 H262 0.984 . S
N256 H263 0.984 . S
N257 C250 1.356 . S
N257 H260 0.984 . S
N257 H261 0.985 . S
H258 N253 0.984 . S
H259 N253 0.985 . S
H260 N257 0.984 . S
H261 N257 0.985 . S
H262 N256 0.984 . S
H263 N256 0.984 . S
H264 N252 0.984 . S
H265 N252 0.985 . S
C266 C267 1.363 . S
C266 C272 1.379 . S
C266 N274 1.356 . S
C267 C266 1.363 . S
C267 C273 1.363 . S
C268 C269 1.363 . S
C268 C273 1.379 . S
C268 N275 1.356 . S
C269 C268 1.363 . S
C269 C272 1.363 . S
N270 C272 1.356 . S
N270 H282 0.984 . S
N270 H283 0.985 . S
N271 C273 1.356 . S
N271 H276 0.984 . S
N271 H277 0.985 . S
C272 C266 1.379 . S
C272 C269 1.363 . S
C272 N270 1.356 . S
C273 C267 1.363 . S
C273 C268 1.379 . S
C273 N271 1.356 . S
N274 C266 1.356 . S
N274 H280 0.984 . S
N274 H281 0.984 . S
N275 C268 1.356 . S
N275 H278 0.984 . S
N275 H279 0.985 . S
H276 N271 0.984 . S
H277 N271 0.985 . S
H278 N275 0.984 . S
H279 N275 0.985 . S
H280 N274 0.984 . S
H281 N274 0.984 . S
H282 N270 0.984 . S
H283 N270 0.985 . S
C284 C285 1.363 . S
C284 C290 1.379 . S
C284 N292 1.356 . S
C285 C284 1.363 . S
C285 C291 1.363 . S
C286 C287 1.363 . S
C286 C291 1.379 . S
C286 N293 1.356 . S
C287 C286 1.363 . S
C287 C290 1.363 . S
N288 C290 1.356 . S
N288 H300 0.984 . S
N288 H301 0.985 . S
N289 C291 1.356 . S
N289 H294 0.984 . S
N289 H295 0.985 . S
C290 C284 1.379 . S
C290 C287 1.363 . S
C290 N288 1.356 . S
C291 C285 1.363 . S
C291 C286 1.379 . S
C291 N289 1.356 . S
N292 C284 1.356 . S
N292 H298 0.984 . S
N292 H299 0.984 . S
N293 C286 1.356 . S
N293 H296 0.984 . S
N293 H297 0.985 . S
H294 N289 0.984 . S
H295 N289 0.985 . S
H296 N293 0.984 . S
H297 N293 0.985 . S
H298 N292 0.984 . S
H299 N292 0.984 . S
H300 N288 0.984 . S
H301 N288 0.985 . S
C89 C80 1.199 . S
C87 C15 1.321 . S
C105 C13 1.480 1_556 S
C107 C69 1.265 . S
C123 C18 1.287 1_554 S
C125 C83 1.453 . S
C141 C17 1.406 1_554 S
C143 C72 1.430 . S
C159 C36 1.320 . S
C161 C58 1.199 . S
C177 C34 1.481 . S
C179 C47 1.265 . S
C197 C61 1.454 . S
C195 C39 1.288 . S
C215 C50 1.429 . S
C213 C38 1.404 . S
C231 C14 1.510 . S
C233 C49 1.509 . S
C249 C16 1.385 . S
C251 C60 1.381 . S
C269 C71 1.509 . S
C267 C35 1.509 . S
C285 C37 1.385 . S
C287 C82 1.381 . S
