# Generated by pormake.
# Topology gar, (4,6)-cn, num edge types: 1
# Building blocks:
#     Node 0, Type 0, BuildingBlock: UXUYUI_clean_sbu_0, # of connection points: 4
#     Node 1, Type 0, BuildingBlock: UXUYUI_clean_sbu_0, # of connection points: 4
#     Node 2, Type 0, BuildingBlock: UXUYUI_clean_sbu_0, # of connection points: 4
#     Node 3, Type 0, BuildingBlock: UXUYUI_clean_sbu_0, # of connection points: 4
#     Node 4, Type 0, BuildingBlock: UXUYUI_clean_sbu_0, # of connection points: 4
#     Node 5, Type 0, BuildingBlock: UXUYUI_clean_sbu_0, # of connection points: 4
#     Node 6, Type 0, BuildingBlock: UXUYUI_clean_sbu_0, # of connection points: 4
#     Node 7, Type 0, BuildingBlock: UXUYUI_clean_sbu_0, # of connection points: 4
#     Node 8, Type 0, BuildingBlock: UXUYUI_clean_sbu_0, # of connection points: 4
#     Node 9, Type 0, BuildingBlock: UXUYUI_clean_sbu_0, # of connection points: 4
#     Node 10, Type 0, BuildingBlock: UXUYUI_clean_sbu_0, # of connection points: 4
#     Node 11, Type 0, BuildingBlock: UXUYUI_clean_sbu_0, # of connection points: 4
#     Node 12, Type 0, BuildingBlock: UXUYUI_clean_sbu_0, # of connection points: 4
#     Node 13, Type 0, BuildingBlock: UXUYUI_clean_sbu_0, # of connection points: 4
#     Node 14, Type 0, BuildingBlock: UXUYUI_clean_sbu_0, # of connection points: 4
#     Node 15, Type 0, BuildingBlock: UXUYUI_clean_sbu_0, # of connection points: 4
#     Node 16, Type 0, BuildingBlock: UXUYUI_clean_sbu_0, # of connection points: 4
#     Node 17, Type 0, BuildingBlock: UXUYUI_clean_sbu_0, # of connection points: 4
#     Node 18, Type 0, BuildingBlock: UXUYUI_clean_sbu_0, # of connection points: 4
#     Node 19, Type 0, BuildingBlock: UXUYUI_clean_sbu_0, # of connection points: 4
#     Node 20, Type 0, BuildingBlock: UXUYUI_clean_sbu_0, # of connection points: 4
#     Node 21, Type 0, BuildingBlock: UXUYUI_clean_sbu_0, # of connection points: 4
#     Node 22, Type 0, BuildingBlock: UXUYUI_clean_sbu_0, # of connection points: 4
#     Node 23, Type 0, BuildingBlock: UXUYUI_clean_sbu_0, # of connection points: 4
#     Node 24, Type 1, BuildingBlock: KUMBUR_clean_sbu_0, # of connection points: 6
#     Node 25, Type 1, BuildingBlock: KUMBUR_clean_sbu_0, # of connection points: 6
#     Node 26, Type 1, BuildingBlock: KUMBUR_clean_sbu_0, # of connection points: 6
#     Node 27, Type 1, BuildingBlock: KUMBUR_clean_sbu_0, # of connection points: 6
#     Node 28, Type 1, BuildingBlock: KUMBUR_clean_sbu_0, # of connection points: 6
#     Node 29, Type 1, BuildingBlock: KUMBUR_clean_sbu_0, # of connection points: 6
#     Node 30, Type 1, BuildingBlock: KUMBUR_clean_sbu_0, # of connection points: 6
#     Node 31, Type 1, BuildingBlock: KUMBUR_clean_sbu_0, # of connection points: 6
#     Node 32, Type 1, BuildingBlock: KUMBUR_clean_sbu_0, # of connection points: 6
#     Node 33, Type 1, BuildingBlock: KUMBUR_clean_sbu_0, # of connection points: 6
#     Node 34, Type 1, BuildingBlock: KUMBUR_clean_sbu_0, # of connection points: 6
#     Node 35, Type 1, BuildingBlock: KUMBUR_clean_sbu_0, # of connection points: 6
#     Node 36, Type 1, BuildingBlock: KUMBUR_clean_sbu_0, # of connection points: 6
#     Node 37, Type 1, BuildingBlock: KUMBUR_clean_sbu_0, # of connection points: 6
#     Node 38, Type 1, BuildingBlock: KUMBUR_clean_sbu_0, # of connection points: 6
#     Node 39, Type 1, BuildingBlock: KUMBUR_clean_sbu_0, # of connection points: 6
#     Edge 40, Type (0, 1), BuildingBlock: XUDNAN_clean_linker_2, # of connection points: 2
#     Edge 41, Type (0, 1), BuildingBlock: XUDNAN_clean_linker_2, # of connection points: 2
#     Edge 42, Type (0, 1), BuildingBlock: XUDNAN_clean_linker_2, # of connection points: 2
#     Edge 43, Type (0, 1), BuildingBlock: XUDNAN_clean_linker_2, # of connection points: 2
#     Edge 44, Type (0, 1), BuildingBlock: XUDNAN_clean_linker_2, # of connection points: 2
#     Edge 45, Type (0, 1), BuildingBlock: XUDNAN_clean_linker_2, # of connection points: 2
#     Edge 46, Type (0, 1), BuildingBlock: XUDNAN_clean_linker_2, # of connection points: 2
#     Edge 47, Type (0, 1), BuildingBlock: XUDNAN_clean_linker_2, # of connection points: 2
#     Edge 48, Type (0, 1), BuildingBlock: XUDNAN_clean_linker_2, # of connection points: 2
#     Edge 49, Type (0, 1), BuildingBlock: XUDNAN_clean_linker_2, # of connection points: 2
#     Edge 50, Type (0, 1), BuildingBlock: XUDNAN_clean_linker_2, # of connection points: 2
#     Edge 51, Type (0, 1), BuildingBlock: XUDNAN_clean_linker_2, # of connection points: 2
#     Edge 52, Type (0, 1), BuildingBlock: XUDNAN_clean_linker_2, # of connection points: 2
#     Edge 53, Type (0, 1), BuildingBlock: XUDNAN_clean_linker_2, # of connection points: 2
#     Edge 54, Type (0, 1), BuildingBlock: XUDNAN_clean_linker_2, # of connection points: 2
#     Edge 55, Type (0, 1), BuildingBlock: XUDNAN_clean_linker_2, # of connection points: 2
#     Edge 56, Type (0, 1), BuildingBlock: XUDNAN_clean_linker_2, # of connection points: 2
#     Edge 57, Type (0, 1), BuildingBlock: XUDNAN_clean_linker_2, # of connection points: 2
#     Edge 58, Type (0, 1), BuildingBlock: XUDNAN_clean_linker_2, # of connection points: 2
#     Edge 59, Type (0, 1), BuildingBlock: XUDNAN_clean_linker_2, # of connection points: 2
#     Edge 60, Type (0, 1), BuildingBlock: XUDNAN_clean_linker_2, # of connection points: 2
#     Edge 61, Type (0, 1), BuildingBlock: XUDNAN_clean_linker_2, # of connection points: 2
#     Edge 62, Type (0, 1), BuildingBlock: XUDNAN_clean_linker_2, # of connection points: 2
#     Edge 63, Type (0, 1), BuildingBlock: XUDNAN_clean_linker_2, # of connection points: 2
#     Edge 64, Type (0, 1), BuildingBlock: XUDNAN_clean_linker_2, # of connection points: 2
#     Edge 65, Type (0, 1), BuildingBlock: XUDNAN_clean_linker_2, # of connection points: 2
#     Edge 66, Type (0, 1), BuildingBlock: XUDNAN_clean_linker_2, # of connection points: 2
#     Edge 67, Type (0, 1), BuildingBlock: XUDNAN_clean_linker_2, # of connection points: 2
#     Edge 68, Type (0, 1), BuildingBlock: XUDNAN_clean_linker_2, # of connection points: 2
#     Edge 69, Type (0, 1), BuildingBlock: XUDNAN_clean_linker_2, # of connection points: 2
#     Edge 70, Type (0, 1), BuildingBlock: XUDNAN_clean_linker_2, # of connection points: 2
#     Edge 71, Type (0, 1), BuildingBlock: XUDNAN_clean_linker_2, # of connection points: 2
#     Edge 72, Type (0, 1), BuildingBlock: XUDNAN_clean_linker_2, # of connection points: 2
#     Edge 73, Type (0, 1), BuildingBlock: XUDNAN_clean_linker_2, # of connection points: 2
#     Edge 74, Type (0, 1), BuildingBlock: XUDNAN_clean_linker_2, # of connection points: 2
#     Edge 75, Type (0, 1), BuildingBlock: XUDNAN_clean_linker_2, # of connection points: 2
#     Edge 76, Type (0, 1), BuildingBlock: XUDNAN_clean_linker_2, # of connection points: 2
#     Edge 77, Type (0, 1), BuildingBlock: XUDNAN_clean_linker_2, # of connection points: 2
#     Edge 78, Type (0, 1), BuildingBlock: XUDNAN_clean_linker_2, # of connection points: 2
#     Edge 79, Type (0, 1), BuildingBlock: XUDNAN_clean_linker_2, # of connection points: 2
#     Edge 80, Type (0, 1), BuildingBlock: XUDNAN_clean_linker_2, # of connection points: 2
#     Edge 81, Type (0, 1), BuildingBlock: XUDNAN_clean_linker_2, # of connection points: 2
#     Edge 82, Type (0, 1), BuildingBlock: XUDNAN_clean_linker_2, # of connection points: 2
#     Edge 83, Type (0, 1), BuildingBlock: XUDNAN_clean_linker_2, # of connection points: 2
#     Edge 84, Type (0, 1), BuildingBlock: XUDNAN_clean_linker_2, # of connection points: 2
#     Edge 85, Type (0, 1), BuildingBlock: XUDNAN_clean_linker_2, # of connection points: 2
#     Edge 86, Type (0, 1), BuildingBlock: XUDNAN_clean_linker_2, # of connection points: 2
#     Edge 87, Type (0, 1), BuildingBlock: XUDNAN_clean_linker_2, # of connection points: 2
#     Edge 88, Type (0, 1), BuildingBlock: XUDNAN_clean_linker_2, # of connection points: 2
#     Edge 89, Type (0, 1), BuildingBlock: XUDNAN_clean_linker_2, # of connection points: 2
#     Edge 90, Type (0, 1), BuildingBlock: XUDNAN_clean_linker_2, # of connection points: 2
#     Edge 91, Type (0, 1), BuildingBlock: XUDNAN_clean_linker_2, # of connection points: 2
#     Edge 92, Type (0, 1), BuildingBlock: XUDNAN_clean_linker_2, # of connection points: 2
#     Edge 93, Type (0, 1), BuildingBlock: XUDNAN_clean_linker_2, # of connection points: 2
#     Edge 94, Type (0, 1), BuildingBlock: XUDNAN_clean_linker_2, # of connection points: 2
#     Edge 95, Type (0, 1), BuildingBlock: XUDNAN_clean_linker_2, # of connection points: 2
#     Edge 96, Type (0, 1), BuildingBlock: XUDNAN_clean_linker_2, # of connection points: 2
#     Edge 97, Type (0, 1), BuildingBlock: XUDNAN_clean_linker_2, # of connection points: 2
#     Edge 98, Type (0, 1), BuildingBlock: XUDNAN_clean_linker_2, # of connection points: 2
#     Edge 99, Type (0, 1), BuildingBlock: XUDNAN_clean_linker_2, # of connection points: 2
#     Edge 100, Type (0, 1), BuildingBlock: XUDNAN_clean_linker_2, # of connection points: 2
#     Edge 101, Type (0, 1), BuildingBlock: XUDNAN_clean_linker_2, # of connection points: 2
#     Edge 102, Type (0, 1), BuildingBlock: XUDNAN_clean_linker_2, # of connection points: 2
#     Edge 103, Type (0, 1), BuildingBlock: XUDNAN_clean_linker_2, # of connection points: 2
#     Edge 104, Type (0, 1), BuildingBlock: XUDNAN_clean_linker_2, # of connection points: 2
#     Edge 105, Type (0, 1), BuildingBlock: XUDNAN_clean_linker_2, # of connection points: 2
#     Edge 106, Type (0, 1), BuildingBlock: XUDNAN_clean_linker_2, # of connection points: 2
#     Edge 107, Type (0, 1), BuildingBlock: XUDNAN_clean_linker_2, # of connection points: 2
#     Edge 108, Type (0, 1), BuildingBlock: XUDNAN_clean_linker_2, # of connection points: 2
#     Edge 109, Type (0, 1), BuildingBlock: XUDNAN_clean_linker_2, # of connection points: 2
#     Edge 110, Type (0, 1), BuildingBlock: XUDNAN_clean_linker_2, # of connection points: 2
#     Edge 111, Type (0, 1), BuildingBlock: XUDNAN_clean_linker_2, # of connection points: 2
#     Edge 112, Type (0, 1), BuildingBlock: XUDNAN_clean_linker_2, # of connection points: 2
#     Edge 113, Type (0, 1), BuildingBlock: XUDNAN_clean_linker_2, # of connection points: 2
#     Edge 114, Type (0, 1), BuildingBlock: XUDNAN_clean_linker_2, # of connection points: 2
#     Edge 115, Type (0, 1), BuildingBlock: XUDNAN_clean_linker_2, # of connection points: 2
#     Edge 116, Type (0, 1), BuildingBlock: XUDNAN_clean_linker_2, # of connection points: 2
#     Edge 117, Type (0, 1), BuildingBlock: XUDNAN_clean_linker_2, # of connection points: 2
#     Edge 118, Type (0, 1), BuildingBlock: XUDNAN_clean_linker_2, # of connection points: 2
#     Edge 119, Type (0, 1), BuildingBlock: XUDNAN_clean_linker_2, # of connection points: 2
#     Edge 120, Type (0, 1), BuildingBlock: XUDNAN_clean_linker_2, # of connection points: 2
#     Edge 121, Type (0, 1), BuildingBlock: XUDNAN_clean_linker_2, # of connection points: 2
#     Edge 122, Type (0, 1), BuildingBlock: XUDNAN_clean_linker_2, # of connection points: 2
#     Edge 123, Type (0, 1), BuildingBlock: XUDNAN_clean_linker_2, # of connection points: 2
#     Edge 124, Type (0, 1), BuildingBlock: XUDNAN_clean_linker_2, # of connection points: 2
#     Edge 125, Type (0, 1), BuildingBlock: XUDNAN_clean_linker_2, # of connection points: 2
#     Edge 126, Type (0, 1), BuildingBlock: XUDNAN_clean_linker_2, # of connection points: 2
#     Edge 127, Type (0, 1), BuildingBlock: XUDNAN_clean_linker_2, # of connection points: 2
#     Edge 128, Type (0, 1), BuildingBlock: XUDNAN_clean_linker_2, # of connection points: 2
#     Edge 129, Type (0, 1), BuildingBlock: XUDNAN_clean_linker_2, # of connection points: 2
#     Edge 130, Type (0, 1), BuildingBlock: XUDNAN_clean_linker_2, # of connection points: 2
#     Edge 131, Type (0, 1), BuildingBlock: XUDNAN_clean_linker_2, # of connection points: 2
#     Edge 132, Type (0, 1), BuildingBlock: XUDNAN_clean_linker_2, # of connection points: 2
#     Edge 133, Type (0, 1), BuildingBlock: XUDNAN_clean_linker_2, # of connection points: 2
#     Edge 134, Type (0, 1), BuildingBlock: XUDNAN_clean_linker_2, # of connection points: 2
#     Edge 135, Type (0, 1), BuildingBlock: XUDNAN_clean_linker_2, # of connection points: 2
# Relax obj value: 0.141
# Max RMSD: 0.310
# Mean RMSD: 0.195
data_MOF--net-gar--node1-UXUYUI_clean_sbu_0--node2-KUMBUR_clean_sbu_0--edge1-XUDNAN_clean_linker_2
_symmetry_space_group_name_H-M    P1
_symmetry_Int_Tables_number       1
_symmetry_cell_setting            triclinic
loop_
_symmetry_equiv_pos_as_xyz
'x, y, z'
_cell_length_a     73.28582
_cell_length_b     69.063178
_cell_length_c     69.122296
_cell_angle_alpha  100.12767
_cell_angle_beta   93.0689
_cell_angle_gamma 102.38672
loop_
_atom_site_label
_atom_site_type_symbol
_atom_site_fract_x
_atom_site_fract_y
_atom_site_fract_z
_atom_type_partial_charge
Li0 Li 0.08781 0.32298 0.37592 0.0
Li1 Li 0.11023 0.34492 0.40254 0.0
Li2 Li 0.1209 0.32511 0.3746 0.0
Li3 Li 0.10468 0.30824 0.40053 0.0
C4 C 0.10775 0.35983 0.36214 0.0
N5 N 0.10815 0.38665 0.33672 0.0
C6 C 0.10702 0.37984 0.36939 0.0
C7 C 0.10871 0.35348 0.34194 0.0
C8 C 0.10719 0.39315 0.35631 0.0
C9 C 0.10894 0.36728 0.32935 0.0
C10 C 0.07431 0.32873 0.41835 0.0
C11 C 0.06597 0.33108 0.4518 0.0
N12 N 0.04957 0.33563 0.44616 0.0
C13 C 0.05731 0.33328 0.41285 0.0
C14 C 0.07866 0.32749 0.43795 0.0
C15 C 0.04502 0.33679 0.42713 0.0
C16 C 0.05341 0.30181 0.35604 0.0
N17 N 0.06517 0.32031 0.36156 0.0
C18 C 0.04243 0.33638 0.34978 0.0
C19 C 0.06018 0.33741 0.35851 0.0
C20 C 0.02978 0.31754 0.34425 0.0
C21 C 0.03548 0.30004 0.34717 0.0
H22 H 0.0578 0.28856 0.35903 0.0
H23 H 0.06965 0.35193 0.36369 0.0
C24 C 0.13242 0.38241 0.42384 0.0
N25 N 0.11481 0.3706 0.41886 0.0
C26 C 0.13499 0.40199 0.43467 0.0
C27 C 0.10125 0.39721 0.43384 0.0
C28 C 0.09936 0.3777 0.42339 0.0
C29 C 0.11922 0.4095 0.4396 0.0
H30 H 0.14445 0.3769 0.41904 0.0
H31 H 0.08555 0.3685 0.41827 0.0
C32 C 0.09736 0.28564 0.35455 0.0
N33 N 0.09275 0.25636 0.32073 0.0
C34 C 0.09872 0.26602 0.3558 0.0
C35 C 0.09349 0.29035 0.33613 0.0
C36 C 0.09636 0.25142 0.33853 0.0
C37 C 0.09126 0.27534 0.3192 0.0
C38 C 0.14335 0.33691 0.4175 0.0
C39 C 0.16157 0.3438 0.41263 0.0
C40 C 0.13963 0.33937 0.43729 0.0
C41 C 0.17578 0.35326 0.42772 0.0
C42 C 0.15422 0.34899 0.45193 0.0
N43 N 0.17184 0.35568 0.44688 0.0
C44 C 0.14988 0.34346 0.35482 0.0
C45 C 0.14177 0.30757 0.34759 0.0
C46 C 0.16401 0.3438 0.34209 0.0
N47 N 0.1393 0.32548 0.35734 0.0
C48 C 0.15543 0.3072 0.33458 0.0
C49 C 0.16697 0.32543 0.33218 0.0
H50 H 0.14766 0.35744 0.3631 0.0
H51 H 0.13364 0.29356 0.35039 0.0
C52 C 0.08535 0.27515 0.41535 0.0
N53 N 0.10254 0.28717 0.41478 0.0
C54 C 0.0833 0.25998 0.42656 0.0
C55 C 0.11674 0.2697 0.43599 0.0
C56 C 0.11814 0.28461 0.42457 0.0
C57 C 0.09911 0.25729 0.43729 0.0
H58 H 0.07321 0.27761 0.40735 0.0
H59 H 0.13165 0.2943 0.42367 0.0
O60 O 0.10775 0.34669 0.37486 0.0
O61 O 0.08653 0.32537 0.40454 0.0
O62 O 0.10019 0.30018 0.3713 0.0
O63 O 0.12926 0.32779 0.4029 0.0
H64 H 0.10628 0.38508 0.38494 0.0
H65 H 0.10952 0.33815 0.33607 0.0
H66 H 0.10658 0.40866 0.36174 0.0
H67 H 0.10978 0.36259 0.3137 0.0
H68 H 0.06916 0.33023 0.46705 0.0
H69 H 0.05367 0.33427 0.39776 0.0
H70 H 0.09166 0.32379 0.44241 0.0
H71 H 0.03187 0.34044 0.42308 0.0
H72 H 0.03842 0.35025 0.34813 0.0
H73 H 0.02613 0.28524 0.34292 0.0
H74 H 0.14904 0.4113 0.43874 0.0
H75 H 0.08879 0.40266 0.43744 0.0
H76 H 0.10172 0.26217 0.36998 0.0
H77 H 0.09225 0.30541 0.33494 0.0
H78 H 0.09747 0.23619 0.33926 0.0
H79 H 0.08835 0.27878 0.30483 0.0
H80 H 0.16466 0.34191 0.39736 0.0
H81 H 0.1256 0.3341 0.44126 0.0
H82 H 0.18994 0.35872 0.42418 0.0
H83 H 0.15154 0.35117 0.46731 0.0
H84 H 0.1731 0.35804 0.34084 0.0
H85 H 0.15773 0.29279 0.32734 0.0
H86 H 0.06942 0.25091 0.42731 0.0
H87 H 0.12933 0.26797 0.4438 0.0
Li88 Li 0.00916 0.77817 0.64184 0.0
Li89 Li 0.02493 0.7616 0.66496 0.0
Li90 Li 1.00049 0.74212 0.6377 0.0
Li91 Li 0.99216 0.7612 0.66712 0.0
C92 C 0.03895 0.76266 0.62334 0.0
N93 N 0.0661 0.76873 0.59743 0.0
C94 C 0.05781 0.7645 0.62961 0.0
C95 C 0.0339 0.764 0.60393 0.0
C96 C 0.07132 0.76753 0.61628 0.0
C97 C 0.04784 0.76707 0.59105 0.0
C98 C 0.01634 0.80042 0.68698 0.0
C99 C 0.01894 0.81233 0.72222 0.0
N100 N 0.02209 0.83169 0.71931 0.0
C101 C 0.01955 0.82043 0.68434 0.0
C102 C 0.01607 0.79634 0.70608 0.0
C103 C 0.02247 0.83603 0.70087 0.0
C104 C 0.99712 0.80393 0.61964 0.0
N105 N 0.01245 0.80005 0.62874 0.0
C106 C 0.03254 0.82783 0.61879 0.0
C107 C 0.02994 0.81158 0.62859 0.0
C108 C 0.01697 0.83217 0.60907 0.0
C109 C 0.99907 0.81996 0.60959 0.0
H110 H 0.98338 0.79452 0.62014 0.0
H111 H 0.04182 0.80815 0.63615 0.0
C112 C 0.05394 0.74775 0.68284 0.0
N113 N 0.0476 0.76418 0.67992 0.0
C114 C 0.0712 0.75029 0.69363 0.0
C115 C 0.07469 0.78653 0.69843 0.0
C116 C 0.05757 0.7833 0.68731 0.0
C117 C 0.08172 0.7699 0.70151 0.0
H118 H 0.04572 0.73275 0.6766 0.0
H119 H 0.05237 0.79606 0.68428 0.0
C120 C 0.96901 0.7509 0.62558 0.0
N121 N 0.94001 0.72963 0.59765 0.0
C122 C 0.95191 0.74157 0.63149 0.0
C123 C 0.97131 0.74961 0.60549 0.0
C124 C 0.93742 0.73084 0.61713 0.0
C125 C 0.9565 0.73871 0.59159 0.0
C126 C 1.00412 0.72505 0.67786 0.0
C127 C 1.00118 0.70431 0.67048 0.0
C128 C 0.00692 0.73214 0.69825 0.0
C129 C 1.00073 0.69102 0.68362 0.0
C130 C 0.00649 0.71839 0.71093 0.0
N131 N 1.00337 0.69828 0.70341 0.0
C132 C 1.00176 0.71293 0.60396 0.0
C133 C 0.9773 0.70447 0.62427 0.0
C134 C 0.99776 0.69314 0.59343 0.0
N135 N 0.9921 0.71783 0.61959 0.0
C136 C 0.97299 0.68448 0.61435 0.0
C137 C 0.98401 0.67853 0.59949 0.0
H138 H 0.0135 0.72388 0.60068 0.0
H139 H 0.97001 0.70891 0.63692 0.0
C140 C 0.96949 0.77982 0.69028 0.0
N141 N 0.97386 0.76176 0.68426 0.0
C142 C 0.95387 0.78076 0.70051 0.0
C143 C 0.94789 0.74451 0.69859 0.0
C144 C 0.96376 0.74429 0.68843 0.0
C145 C 0.94268 0.76287 0.70411 0.0
H146 H 0.97745 0.79327 0.6861 0.0
H147 H 0.9673 0.73008 0.68279 0.0
O148 O 0.02553 0.75873 0.636 0.0
O149 O 0.01361 0.78502 0.67089 0.0
O150 O 0.98342 0.76129 0.63941 0.0
O151 O 1.0039 0.73817 0.66514 0.0
H152 H 0.06197 0.76329 0.64451 0.0
H153 H 0.01936 0.76253 0.59884 0.0
H154 H 0.08594 0.76883 0.62091 0.0
H155 H 0.04414 0.76805 0.57595 0.0
H156 H 0.01868 0.80934 0.73706 0.0
H157 H 0.01984 0.82389 0.66968 0.0
H158 H 0.01356 0.78104 0.70845 0.0
H159 H 0.02504 0.85159 0.69903 0.0
H160 H 0.04655 0.83702 0.61902 0.0
H161 H 0.98672 0.82256 0.60209 0.0
H162 H 0.07627 0.73713 0.69583 0.0
H163 H 0.08259 0.80184 0.70411 0.0
H164 H 0.94988 0.74251 0.64698 0.0
H165 H 0.98446 0.75678 0.6007 0.0
H166 H 0.92413 0.72347 0.62147 0.0
H167 H 0.95811 0.73746 0.57599 0.0
H168 H 0.99929 0.69848 0.65477 0.0
H169 H 0.00927 0.74803 0.70427 0.0
H170 H 0.99832 0.67494 0.67808 0.0
H171 H 0.00857 0.72372 0.72674 0.0
H172 H 0.00677 0.68887 0.58228 0.0
H173 H 0.96255 0.67342 0.61955 0.0
H174 H 0.94983 0.79505 0.70438 0.0
H175 H 0.93913 0.73047 0.70084 0.0
Li176 Li 0.58741 0.82462 0.87532 0.0
Li177 Li 0.61067 0.84622 0.90165 0.0
Li178 Li 0.62031 0.8258 0.87401 0.0
Li179 Li 0.60388 0.80978 0.90004 0.0
C180 C 0.60826 0.86121 0.86162 0.0
N181 N 0.60963 0.88866 0.8368 0.0
C182 C 0.60687 0.88097 0.86901 0.0
C183 C 0.61032 0.85538 0.8416 0.0
C184 C 0.60756 0.89462 0.85622 0.0
C185 C 0.61103 0.86951 0.8293 0.0
C186 C 0.57401 0.83124 0.91753 0.0
C187 C 0.56439 0.83258 0.95045 0.0
N188 N 0.54869 0.83836 0.94461 0.0
C189 C 0.55774 0.83712 0.91182 0.0
C190 C 0.57735 0.82884 0.93696 0.0
C191 C 0.54512 0.84066 0.92573 0.0
C192 C 0.55243 0.80304 0.85975 0.0
N193 N 0.56463 0.82112 0.86091 0.0
C194 C 0.54179 0.83406 0.84475 0.0
C195 C 0.55988 0.83646 0.85343 0.0
C196 C 0.52875 0.81584 0.84409 0.0
C197 C 0.53413 0.80005 0.85135 0.0
H198 H 0.55674 0.79131 0.8661 0.0
H199 H 0.5698 0.85078 0.85498 0.0
C200 C 0.6352 0.88264 0.92136 0.0
N201 N 0.61711 0.87174 0.91781 0.0
C202 C 0.63943 0.90168 0.93361 0.0
C203 C 0.60617 0.89832 0.93668 0.0
C204 C 0.60266 0.87939 0.92473 0.0
C205 C 0.62471 0.9094 0.94144 0.0
H206 H 0.64632 0.87658 0.91478 0.0
H207 H 0.5884 0.87089 0.92081 0.0
C208 C 0.59692 0.78652 0.85462 0.0
N209 N 0.59258 0.75611 0.8218 0.0
C210 C 0.6 0.76765 0.85655 0.0
C211 C 0.59155 0.78995 0.83604 0.0
C212 C 0.59776 0.75247 0.83976 0.0
C213 C 0.58945 0.77436 0.81961 0.0
C214 C 0.64253 0.83643 0.91749 0.0
C215 C 0.66134 0.84117 0.91366 0.0
C216 C 0.63782 0.84014 0.93691 0.0
C217 C 0.67515 0.84975 0.92935 0.0
C218 C 0.65204 0.84876 0.95219 0.0
N219 N 0.67026 0.85336 0.94813 0.0
C220 C 0.65197 0.84461 0.86086 0.0
C221 C 0.64116 0.81031 0.84468 0.0
C222 C 0.66843 0.84619 0.85161 0.0
N223 N 0.63918 0.82668 0.85771 0.0
C224 C 0.65721 0.81131 0.83487 0.0
C225 C 0.6712 0.82915 0.83899 0.0
H226 H 0.64986 0.85724 0.87152 0.0
H227 H 0.63098 0.79619 0.84277 0.0
C228 C 0.58359 0.77468 0.90859 0.0
N229 N 0.6002 0.78838 0.91358 0.0
C230 C 0.5797 0.75775 0.91731 0.0
C231 C 0.60988 0.76976 0.93662 0.0
C232 C 0.61332 0.78634 0.92726 0.0
C233 C 0.59297 0.7552 0.93144 0.0
H234 H 0.5735 0.77687 0.89764 0.0
H235 H 0.62648 0.79741 0.93074 0.0
O236 O 0.60775 0.84775 0.87403 0.0
O237 O 0.58648 0.82768 0.90407 0.0
O238 O 0.59925 0.80154 0.8709 0.0
O239 O 0.62883 0.82828 0.90224 0.0
H240 H 0.60519 0.88572 0.88444 0.0
H241 H 0.6114 0.84013 0.83564 0.0
H242 H 0.60646 0.90994 0.86174 0.0
H243 H 0.61269 0.86525 0.81378 0.0
H244 H 0.5668 0.83084 0.96556 0.0
H245 H 0.55495 0.83907 0.89685 0.0
H246 H 0.58978 0.82413 0.94156 0.0
H247 H 0.53251 0.84527 0.92153 0.0
H248 H 0.53773 0.84658 0.83954 0.0
H249 H 0.52414 0.78595 0.85119 0.0
H250 H 0.65385 0.91011 0.93706 0.0
H251 H 0.59455 0.90416 0.94249 0.0
H252 H 0.60419 0.76481 0.87086 0.0
H253 H 0.58917 0.80451 0.83432 0.0
H254 H 0.60015 0.7378 0.84102 0.0
H255 H 0.58537 0.77679 0.80511 0.0
H256 H 0.66524 0.83825 0.89873 0.0
H257 H 0.62333 0.83659 0.9401 0.0
H258 H 0.68976 0.85355 0.9266 0.0
H259 H 0.6486 0.85184 0.96728 0.0
H260 H 0.67935 0.85994 0.85529 0.0
H261 H 0.65939 0.79785 0.82546 0.0
H262 H 0.56647 0.7468 0.91316 0.0
H263 H 0.6204 0.76808 0.94742 0.0
Li264 Li 0.50551 0.27687 0.1432 0.0
Li265 Li 0.52299 0.26161 0.16637 0.0
Li266 Li 0.49795 0.23987 0.1412 0.0
Li267 Li 0.49041 0.26034 0.16973 0.0
C268 C 0.53539 0.25486 0.12506 0.0
N269 N 0.56304 0.24812 0.10076 0.0
C270 C 0.55424 0.26383 0.13134 0.0
C271 C 0.53058 0.2428 0.10624 0.0
C272 C 0.56802 0.26015 0.1189 0.0
C273 C 0.54478 0.23948 0.09422 0.0
C274 C 0.51566 0.29964 0.18874 0.0
C275 C 0.51992 0.31019 0.22415 0.0
N276 N 0.5241 0.32983 0.22202 0.0
C277 C 0.51999 0.31991 0.18689 0.0
C278 C 0.51566 0.29471 0.2075 0.0
C279 C 0.52424 0.33495 0.2039 0.0
C280 C 0.49682 0.31142 0.13274 0.0
N281 N 0.50802 0.2981 0.1293 0.0
C282 C 0.52464 0.31672 0.10724 0.0
C283 C 0.52165 0.30032 0.11677 0.0
C284 C 0.51355 0.33097 0.11077 0.0
C285 C 0.49939 0.32815 0.12359 0.0
H286 H 0.48615 0.3092 0.14288 0.0
H287 H 0.53044 0.28961 0.11443 0.0
C288 C 0.55288 0.24628 0.17685 0.0
N289 N 0.54638 0.26343 0.17904 0.0
C290 C 0.57105 0.24695 0.18431 0.0
C291 C 0.57511 0.28282 0.19666 0.0
C292 C 0.55695 0.28148 0.18877 0.0
C293 C 0.58246 0.26547 0.19414 0.0
H294 H 0.54409 0.23223 0.16877 0.0
H295 H 0.55151 0.29494 0.18993 0.0
C296 C 0.46603 0.25195 0.12758 0.0
N297 N 0.43701 0.23792 0.09789 0.0
C298 C 0.44846 0.24176 0.13168 0.0
C299 C 0.46881 0.25525 0.10846 0.0
C300 C 0.43397 0.23473 0.11644 0.0
C301 C 0.45396 0.24796 0.09363 0.0
C302 C 0.50146 0.22547 0.18172 0.0
C303 C 0.49101 0.20561 0.17578 0.0
C304 C 0.51031 0.23192 0.20089 0.0
C305 C 0.48941 0.19256 0.18923 0.0
C306 C 0.50834 0.21843 0.21392 0.0
N307 N 0.49802 0.19919 0.20787 0.0
C308 C 0.50659 0.20531 0.12621 0.0
C309 C 0.47744 0.20718 0.11074 0.0
C310 C 0.50696 0.18818 0.11256 0.0
N311 N 0.4924 0.21485 0.12451 0.0
C312 C 0.4773 0.1901 0.09662 0.0
C313 C 0.49257 0.18109 0.0972 0.0
H314 H 0.5182 0.21184 0.13742 0.0
H315 H 0.46612 0.21471 0.1099 0.0
C316 C 0.46995 0.27911 0.19577 0.0
N317 N 0.47281 0.26081 0.18763 0.0
C318 C 0.45621 0.28036 0.20858 0.0
C319 C 0.44837 0.24382 0.20411 0.0
C320 C 0.46245 0.2433 0.19144 0.0
C321 C 0.44505 0.26255 0.21245 0.0
H322 H 0.47787 0.29267 0.19176 0.0
H323 H 0.46456 0.22895 0.18402 0.0
O324 O 0.52173 0.25781 0.13728 0.0
O325 O 0.51119 0.28481 0.17219 0.0
O326 O 0.48042 0.25858 0.14223 0.0
O327 O 0.50349 0.23826 0.16855 0.0
H328 H 0.55823 0.27362 0.14563 0.0
H329 H 0.51605 0.23604 0.10096 0.0
H330 H 0.58266 0.26688 0.12365 0.0
H331 H 0.54126 0.23005 0.07968 0.0
H332 H 0.51985 0.30661 0.23877 0.0
H333 H 0.52006 0.32396 0.17246 0.0
H334 H 0.51213 0.27912 0.20917 0.0
H335 H 0.52762 0.3507 0.20269 0.0
H336 H 0.53586 0.31854 0.09767 0.0
H337 H 0.49049 0.33877 0.12654 0.0
H338 H 0.57627 0.23327 0.1819 0.0
H339 H 0.58335 0.29731 0.20446 0.0
H340 H 0.44613 0.23914 0.14644 0.0
H341 H 0.48236 0.26307 0.10507 0.0
H342 H 0.42034 0.22667 0.11934 0.0
H343 H 0.45592 0.25021 0.07871 0.0
H344 H 0.48415 0.20034 0.16095 0.0
H345 H 0.51877 0.24709 0.20561 0.0
H346 H 0.48135 0.17716 0.18484 0.0
H347 H 0.51509 0.22321 0.22882 0.0
H348 H 0.51898 0.18142 0.11312 0.0
H349 H 0.4661 0.18479 0.08475 0.0
H350 H 0.45366 0.29502 0.21462 0.0
H351 H 0.43954 0.22985 0.20645 0.0
Li352 Li 0.09057 0.832 0.09982 0.0
Li353 Li 0.10935 0.81739 0.12593 0.0
Li354 Li 0.08726 0.79363 0.09619 0.0
Li355 Li 0.0721 0.81239 0.12436 0.0
C356 C 0.12217 0.81678 0.08156 0.0
N357 N 0.14564 0.81896 0.05166 0.0
C358 C 0.14134 0.82538 0.08603 0.0
C359 C 0.11493 0.80919 0.06192 0.0
C360 C 0.15298 0.82636 0.07069 0.0
C361 C 0.12702 0.81048 0.047 0.0
C362 C 0.09552 0.85587 0.14276 0.0
C363 C 0.09149 0.87511 0.17423 0.0
N364 N 0.09986 0.8924 0.16835 0.0
C365 C 0.1042 0.87379 0.13705 0.0
C366 C 0.08917 0.85647 0.1615 0.0
C367 C 0.10621 0.89212 0.15019 0.0
C368 C 0.07209 0.86044 0.08521 0.0
N369 N 0.08903 0.85528 0.08614 0.0
C370 C 0.10178 0.88254 0.06953 0.0
C371 C 0.10377 0.86602 0.07837 0.0
C372 C 0.08443 0.88836 0.06849 0.0
C373 C 0.06949 0.87677 0.07649 0.0
H374 H 0.06044 0.85185 0.09133 0.0
H375 H 0.11722 0.86196 0.0792 0.0
C376 C 0.13869 0.80078 0.14331 0.0
N377 N 0.13331 0.81848 0.14285 0.0
C378 C 0.15531 0.80034 0.15449 0.0
C379 C 0.16099 0.83636 0.16469 0.0
C380 C 0.14421 0.83611 0.15341 0.0
C381 C 0.16702 0.81831 0.16541 0.0
H382 H 0.13011 0.78681 0.13483 0.0
H383 H 0.13996 0.85013 0.15306 0.0
C384 C 0.05374 0.80446 0.07969 0.0
N385 N 0.02606 0.79466 0.04859 0.0
C386 C 0.0353 0.79561 0.08248 0.0
C387 C 0.05812 0.80843 0.06114 0.0
C388 C 0.0215 0.79076 0.06655 0.0
C389 C 0.04392 0.80331 0.04557 0.0
C390 C 0.08529 0.77797 0.13589 0.0
C391 C 0.0748 0.75866 0.12734 0.0
C392 C 0.09243 0.78208 0.15569 0.0
C393 C 0.07172 0.74368 0.13877 0.0
C394 C 0.08903 0.7667 0.16663 0.0
N395 N 0.07885 0.74798 0.15801 0.0
C396 C 0.09812 0.75667 0.08459 0.0
C397 C 0.07002 0.75705 0.06629 0.0
C398 C 0.09642 0.73623 0.07629 0.0
N399 N 0.08486 0.76663 0.07983 0.0
C400 C 0.06798 0.73664 0.05731 0.0
C401 C 0.08109 0.72583 0.06262 0.0
H402 H 0.10969 0.76443 0.09551 0.0
H403 H 0.05941 0.76496 0.06287 0.0
C404 C 0.04144 0.82602 0.14498 0.0
N405 N 0.04905 0.80986 0.13875 0.0
C406 C 0.02422 0.82354 0.15356 0.0
C407 C 0.02282 0.7879 0.14924 0.0
C408 C 0.04 0.79105 0.14084 0.0
C409 C 0.01442 0.80418 0.15561 0.0
H410 H 0.0485 0.84086 0.14289 0.0
H411 H 0.04585 0.77827 0.13553 0.0
O412 O 0.11067 0.81544 0.09643 0.0
O413 O 0.09274 0.83787 0.12985 0.0
O414 O 0.06735 0.80958 0.0952 0.0
O415 O 0.08879 0.79274 0.12488 0.0
H416 H 0.14715 0.83119 0.1012 0.0
H417 H 0.10017 0.80222 0.05826 0.0
H418 H 0.16785 0.83297 0.07392 0.0
H419 H 0.12163 0.80467 0.03173 0.0
H420 H 0.08657 0.87583 0.18877 0.0
H421 H 0.10924 0.87355 0.12261 0.0
H422 H 0.08241 0.8427 0.1661 0.0
H423 H 0.1128 0.90613 0.14594 0.0
H424 H 0.11391 0.8909 0.0639 0.0
H425 H 0.05572 0.8801 0.07588 0.0
H426 H 0.15914 0.78601 0.15414 0.0
H427 H 0.16909 0.8507 0.17292 0.0
H428 H 0.03168 0.79258 0.0968 0.0
H429 H 0.07227 0.81552 0.05881 0.0
H430 H 0.00715 0.78393 0.06849 0.0
H431 H 0.04709 0.80627 0.03112 0.0
H432 H 0.06893 0.75529 0.11212 0.0
H433 H 0.10054 0.79699 0.16251 0.0
H434 H 0.06364 0.72866 0.13235 0.0
H435 H 0.09451 0.76964 0.18197 0.0
H436 H 0.10691 0.72854 0.08069 0.0
H437 H 0.0559 0.72917 0.0469 0.0
H438 H 0.01837 0.83659 0.15796 0.0
H439 H 0.01613 0.7727 0.15064 0.0
Li440 Li 0.52537 0.79369 0.44654 0.0
Li441 Li 0.50338 0.77039 0.41753 0.0
Li442 Li 0.52254 0.7555 0.44427 0.0
Li443 Li 0.54048 0.7737 0.41878 0.0
C444 C 0.49129 0.77465 0.46232 0.0
N445 N 0.46913 0.78035 0.49295 0.0
C446 C 0.47395 0.77942 0.45892 0.0
C447 C 0.49734 0.77267 0.48124 0.0
C448 C 0.46295 0.78227 0.47463 0.0
C449 C 0.48594 0.77565 0.49655 0.0
C450 C 0.52612 0.80929 0.40726 0.0
C451 C 0.53465 0.82301 0.37842 0.0
N452 N 0.5293 0.84018 0.38627 0.0
C453 C 0.52052 0.82698 0.41497 0.0
C454 C 0.53311 0.8072 0.38879 0.0
C455 C 0.52231 0.84246 0.40416 0.0
C456 C 0.54491 0.83456 0.46106 0.0
N457 N 0.52904 0.82087 0.46304 0.0
C458 C 0.51777 0.84709 0.48332 0.0
C459 C 0.51568 0.82676 0.4742 0.0
C460 C 0.53361 0.86171 0.48075 0.0
C461 C 0.54743 0.85505 0.4697 0.0
H462 H 0.55532 0.82969 0.45205 0.0
H463 H 0.50302 0.81593 0.4755 0.0
C464 C 0.46454 0.75245 0.39811 0.0
N465 N 0.47927 0.76878 0.40033 0.0
C466 C 0.44768 0.75149 0.38661 0.0
C467 C 0.46093 0.78421 0.37976 0.0
C468 C 0.47751 0.78457 0.39144 0.0
C469 C 0.44552 0.76743 0.37691 0.0
H470 H 0.46575 0.74006 0.40538 0.0
H471 H 0.48898 0.79765 0.39328 0.0
C472 C 0.55966 0.7832 0.46289 0.0
N473 N 0.58805 0.79209 0.49319 0.0
C474 C 0.57726 0.77948 0.45914 0.0
C475 C 0.5565 0.79156 0.48201 0.0
C476 C 0.59143 0.78405 0.47468 0.0
C477 C 0.57104 0.79592 0.49714 0.0
C478 C 0.51933 0.73161 0.40108 0.0
C479 C 0.52813 0.71722 0.40692 0.0
C480 C 0.51066 0.72823 0.38192 0.0
C481 C 0.52813 0.69963 0.3934 0.0
C482 C 0.511 0.71045 0.36882 0.0
N483 N 0.51964 0.69664 0.37479 0.0
C484 C 0.51185 0.71405 0.45349 0.0
C485 C 0.53856 0.73518 0.47278 0.0
C486 C 0.51441 0.69756 0.4621 0.0
N487 N 0.52401 0.73252 0.45867 0.0
C488 C 0.54158 0.71921 0.48177 0.0
C489 C 0.5296 0.69984 0.47642 0.0
H490 H 0.50036 0.71188 0.44224 0.0
H491 H 0.54828 0.74961 0.47691 0.0
C492 C 0.57464 0.7923 0.40211 0.0
N493 N 0.56316 0.7744 0.4038 0.0
C494 C 0.59089 0.79276 0.39192 0.0
C495 C 0.58376 0.75645 0.38589 0.0
C496 C 0.5677 0.75669 0.39609 0.0
C497 C 0.59567 0.77462 0.38335 0.0
H498 H 0.57119 0.80633 0.40865 0.0
H499 H 0.55896 0.74259 0.39795 0.0
O500 O 0.50208 0.77153 0.44707 0.0
O501 O 0.52485 0.79408 0.41773 0.0
O502 O 0.5455 0.77832 0.44796 0.0
O503 O 0.51881 0.74872 0.41419 0.0
H504 H 0.46905 0.7809 0.44431 0.0
H505 H 0.51068 0.76884 0.48404 0.0
H506 H 0.4495 0.78598 0.47224 0.0
H507 H 0.49043 0.7742 0.51129 0.0
H508 H 0.5401 0.82164 0.36413 0.0
H509 H 0.51471 0.8287 0.42905 0.0
H510 H 0.53731 0.7935 0.38254 0.0
H511 H 0.51811 0.85627 0.40997 0.0
H512 H 0.50665 0.85144 0.49156 0.0
H513 H 0.55999 0.86566 0.46748 0.0
H514 H 0.43635 0.73831 0.38557 0.0
H515 H 0.46042 0.79692 0.37273 0.0
H516 H 0.57988 0.77296 0.44442 0.0
H517 H 0.54291 0.79444 0.48515 0.0
H518 H 0.6051 0.78115 0.47203 0.0
H519 H 0.56879 0.80229 0.51203 0.0
H520 H 0.53508 0.71972 0.42163 0.0
H521 H 0.50372 0.73921 0.37725 0.0
H522 H 0.53491 0.68837 0.39769 0.0
H523 H 0.50436 0.70762 0.35393 0.0
H524 H 0.50455 0.68314 0.45751 0.0
H525 H 0.55365 0.72198 0.49245 0.0
H526 H 0.59939 0.80723 0.39049 0.0
H527 H 0.58686 0.74199 0.38023 0.0
Li528 Li 0.59096 0.33244 0.59944 0.0
Li529 Li 0.60993 0.31763 0.62551 0.0
Li530 Li 0.58786 0.29405 0.59567 0.0
Li531 Li 0.57252 0.31249 0.62393 0.0
C532 C 0.62267 0.31683 0.58116 0.0
N533 N 0.64605 0.31831 0.55116 0.0
C534 C 0.64197 0.32461 0.58558 0.0
C535 C 0.61525 0.30966 0.56152 0.0
C536 C 0.65356 0.32526 0.57019 0.0
C537 C 0.62731 0.31059 0.54655 0.0
C538 C 0.59573 0.35606 0.64232 0.0
C539 C 0.59098 0.37551 0.6734 0.0
N540 N 0.59972 0.39272 0.66761 0.0
C541 C 0.60477 0.3739 0.6367 0.0
C542 C 0.58882 0.35681 0.66081 0.0
C543 C 0.6066 0.3923 0.64968 0.0
C544 C 0.57602 0.36621 0.59035 0.0
N545 N 0.58977 0.35604 0.58588 0.0
C546 C 0.60055 0.37851 0.56355 0.0
C547 C 0.60188 0.36193 0.57258 0.0
C548 C 0.5867 0.38967 0.56813 0.0
C549 C 0.57429 0.38296 0.58179 0.0
H550 H 0.56639 0.36146 0.60083 0.0
H551 H 0.61267 0.35378 0.56888 0.0
C552 C 0.64251 0.30274 0.63864 0.0
N553 N 0.63401 0.31863 0.6424 0.0
C554 C 0.65918 0.30241 0.64987 0.0
C555 C 0.65824 0.33464 0.66906 0.0
C556 C 0.64166 0.3344 0.65744 0.0
C557 C 0.66762 0.31858 0.66543 0.0
H558 H 0.6364 0.29017 0.62676 0.0
H559 H 0.63486 0.3469 0.66057 0.0
C560 C 0.55406 0.30456 0.57933 0.0
N561 N 0.52605 0.29466 0.54855 0.0
C562 C 0.53578 0.29528 0.58224 0.0
C563 C 0.55811 0.30889 0.56082 0.0
C564 C 0.5218 0.29039 0.56648 0.0
C565 C 0.54376 0.30371 0.54541 0.0
C566 C 0.5865 0.27837 0.63555 0.0
C567 C 0.57651 0.25876 0.62727 0.0
C568 C 0.59365 0.283 0.65536 0.0
C569 C 0.57382 0.24407 0.63902 0.0
C570 C 0.59067 0.26787 0.66663 0.0
N571 N 0.5809 0.24889 0.65829 0.0
C572 C 0.60177 0.25986 0.58119 0.0
C573 C 0.56975 0.2548 0.56988 0.0
C574 C 0.60132 0.2394 0.57434 0.0
N575 N 0.58602 0.26711 0.57942 0.0
C576 C 0.56874 0.23413 0.56261 0.0
C577 C 0.58453 0.22602 0.56545 0.0
H578 H 0.61447 0.26975 0.58904 0.0
H579 H 0.55723 0.26064 0.56895 0.0
C580 C 0.54109 0.32564 0.64344 0.0
N581 N 0.54943 0.3098 0.63843 0.0
C582 C 0.52387 0.32306 0.65207 0.0
C583 C 0.52401 0.28801 0.65035 0.0
C584 C 0.54115 0.29124 0.64186 0.0
C585 C 0.51483 0.30391 0.65543 0.0
H586 H 0.54755 0.34025 0.64036 0.0
H587 H 0.5476 0.27868 0.63758 0.0
O588 O 0.61118 0.31604 0.59607 0.0
O589 O 0.59315 0.33801 0.62954 0.0
O590 O 0.56779 0.30989 0.59472 0.0
O591 O 0.58938 0.29296 0.6243 0.0
H592 H 0.64791 0.3301 0.60074 0.0
H593 H 0.60037 0.30337 0.5579 0.0
H594 H 0.66852 0.33127 0.57337 0.0
H595 H 0.62178 0.30514 0.53127 0.0
H596 H 0.58566 0.37635 0.68775 0.0
H597 H 0.61024 0.37354 0.62244 0.0
H598 H 0.58177 0.3431 0.66533 0.0
H599 H 0.61346 0.40625 0.64549 0.0
H600 H 0.61033 0.38233 0.5529 0.0
H601 H 0.56346 0.39077 0.58629 0.0
H602 H 0.66553 0.28965 0.64603 0.0
H603 H 0.66346 0.34739 0.681 0.0
H604 H 0.53241 0.29198 0.59654 0.0
H605 H 0.57214 0.31633 0.55841 0.0
H606 H 0.50757 0.28324 0.56852 0.0
H607 H 0.54667 0.30696 0.531 0.0
H608 H 0.57072 0.25496 0.61202 0.0
H609 H 0.60142 0.29812 0.66195 0.0
H610 H 0.56608 0.22884 0.63283 0.0
H611 H 0.59611 0.27123 0.682 0.0
H612 H 0.61384 0.23387 0.57681 0.0
H613 H 0.55544 0.22436 0.55607 0.0
H614 H 0.51743 0.33581 0.65546 0.0
H615 H 0.51795 0.27301 0.65282 0.0
Li616 Li 0.02397 0.29268 0.94738 0.0
Li617 Li 1.00296 0.2689 0.91769 0.0
Li618 Li 0.02171 0.25422 0.94476 0.0
Li619 Li 0.03981 0.27326 0.9198 0.0
C620 C 0.99022 0.27383 0.9625 0.0
N621 N 0.96842 0.28104 0.99318 0.0
C622 C 0.97295 0.2787 0.95894 0.0
C623 C 0.99638 0.27252 0.98161 0.0
C624 C 0.96214 0.28231 0.97467 0.0
C625 C 0.98517 0.27627 0.99694 0.0
C626 C 0.02437 0.30724 0.907 0.0
C627 C 0.03104 0.31816 0.87636 0.0
N628 N 0.02728 0.33632 0.88383 0.0
C629 C 0.02038 0.32593 0.91431 0.0
C630 C 0.0296 0.30324 0.88783 0.0
C631 C 0.022 0.34046 0.90239 0.0
C632 C 0.0442 0.33312 0.9627 0.0
N633 N 0.02739 0.32027 0.96337 0.0
C634 C 0.01518 0.3483 0.97893 0.0
C635 C 0.01311 0.32746 0.97176 0.0
C636 C 0.032 0.36196 0.97729 0.0
C637 C 0.04676 0.35402 0.96947 0.0
H638 H 0.05528 0.32728 0.95569 0.0
H639 H 0.9997 0.31728 0.97183 0.0
C640 C 0.96941 0.25132 0.887 0.0
N641 N 0.97954 0.2679 0.90001 0.0
C642 C 0.95317 0.25232 0.87538 0.0
C643 C 0.95785 0.28728 0.89064 0.0
C644 C 0.97397 0.2857 0.90175 0.0
C645 C 0.94696 0.27048 0.87722 0.0
H646 H 0.97371 0.23715 0.88571 0.0
H647 H 0.98195 0.29879 0.91206 0.0
C648 C 0.05864 0.28219 0.96375 0.0
N649 N 0.08742 0.29052 0.99357 0.0
C650 C 0.07627 0.27888 0.9595 0.0
C651 C 0.05563 0.28982 0.98313 0.0
C652 C 0.09064 0.28315 0.9748 0.0
C653 C 0.07038 0.29394 0.998 0.0
C654 C 0.02109 0.23129 0.90145 0.0
C655 C 0.0301 0.21735 0.90788 0.0
C656 C 0.01372 0.22796 0.88179 0.0
C657 C 0.03145 0.20015 0.8945 0.0
C658 C 0.01536 0.21057 0.86886 0.0
N659 N 0.02409 0.19713 0.87543 0.0
C660 C 0.00938 0.21346 0.95607 0.0
C661 C 0.03957 0.23185 0.9698 0.0
C662 C 0.01219 0.19632 0.96352 0.0
N663 N 0.02318 0.23081 0.95887 0.0
C664 C 0.04294 0.21515 0.97736 0.0
C665 C 0.02938 0.19682 0.974 0.0
H666 H 0.99647 0.21248 0.94722 0.0
H667 H 0.05061 0.24531 0.97193 0.0
C668 C 0.07244 0.29548 0.9053 0.0
N669 N 0.06299 0.27627 0.90558 0.0
C670 C 0.08953 0.29923 0.89675 0.0
C671 C 0.08731 0.26341 0.88882 0.0
C672 C 0.07014 0.26032 0.89747 0.0
C673 C 0.09751 0.28315 0.88846 0.0
H674 H 0.0668 0.30805 0.91196 0.0
H675 H 0.06276 0.24513 0.89803 0.0
O676 O 1.00083 0.26992 0.94724 0.0
O677 O 0.02378 0.29318 0.91876 0.0
O678 O 0.0443 0.27759 0.94905 0.0
O679 O 0.01883 0.24771 0.91452 0.0
H680 H 0.96795 0.27965 0.94419 0.0
H681 H 0.00965 0.26859 0.98454 0.0
H682 H 0.94874 0.2861 0.97215 0.0
H683 H 0.98975 0.27534 0.01182 0.0
H684 H 0.03521 0.31533 0.86154 0.0
H685 H 0.01607 0.32922 0.929 0.0
H686 H 0.03272 0.28883 0.88197 0.0
H687 H 0.01908 0.35503 0.90792 0.0
H688 H 1.00332 0.35381 0.98449 0.0
H689 H 0.05986 0.36402 0.96767 0.0
H690 H 0.94522 0.23883 0.86554 0.0
H691 H 0.95384 0.30166 0.89269 0.0
H692 H 0.07877 0.27287 0.94458 0.0
H693 H 0.04205 0.29246 0.98664 0.0
H694 H 0.10434 0.28055 0.97175 0.0
H695 H 0.06827 0.29981 0.01308 0.0
H696 H 0.03597 0.21975 0.92304 0.0
H697 H 0.00674 0.23866 0.87661 0.0
H698 H 0.03832 0.18918 0.89928 0.0
H699 H 0.00964 0.20774 0.85361 0.0
H700 H 1.00143 0.18244 0.96008 0.0
H701 H 0.05654 0.21626 0.98498 0.0
H702 H 0.09638 0.31473 0.89666 0.0
H703 H 0.09275 0.25042 0.88295 0.0
Li704 Li 0.42589 0.04064 0.32005 0.0
Li705 Li 0.39787 0.02411 0.29773 0.0
Li706 Li 0.4245 0.04406 0.28591 0.0
Li707 Li 0.40411 0.05869 0.30881 0.0
C708 C 0.43516 1.00657 0.29477 0.0
N709 N 0.4592 0.98057 0.29225 0.0
C710 C 0.42852 0.98639 0.29624 0.0
C711 C 0.45402 0.01353 0.29195 0.0
C712 C 0.4409 0.97348 0.29496 0.0
C713 C 0.46595 1.00013 0.29071 0.0
C714 C 0.3886 0.04291 0.33987 0.0
C715 C 0.35879 0.04798 0.35025 0.0
N716 N 0.36555 0.05007 0.3694 0.0
C717 C 0.39524 0.04506 0.35964 0.0
C718 C 0.3702 0.04429 0.33512 0.0
C719 C 0.38338 0.0487 0.37436 0.0
C720 C 0.44516 0.06034 0.35376 0.0
N721 N 0.44225 0.04234 0.34107 0.0
C722 C 0.46685 0.03284 0.3578 0.0
C723 C 0.45245 0.02848 0.34284 0.0
C724 C 0.47029 0.0514 0.37108 0.0
C725 C 0.45926 0.06525 0.36912 0.0
H726 H 0.43673 0.071 0.35158 0.0
H727 H 0.44972 0.01431 0.33254 0.0
C728 C 0.37931 0.98862 0.27355 0.0
N729 N 0.37969 1.00094 0.29124 0.0
C730 C 0.36625 0.97034 0.26899 0.0
C731 C 0.35407 0.97838 0.30067 0.0
C732 C 0.36745 0.99635 0.30467 0.0
C733 C 0.35387 0.96509 0.28293 0.0
H734 H 0.38953 0.99278 0.2634 0.0
H735 H 0.36865 1.00608 0.31886 0.0
C736 C 0.44565 0.0817 0.3092 0.0
N737 N 0.47405 0.11496 0.30822 0.0
C738 C 0.44177 0.09779 0.30122 0.0
C739 C 0.46401 0.08241 0.31646 0.0
C740 C 0.45632 0.1145 0.30092 0.0
C741 C 0.47816 0.09939 0.31589 0.0
C742 C 0.38503 0.03646 0.26486 0.0
C743 C 0.39052 0.0368 0.24583 0.0
C744 C 0.36628 0.02828 0.26719 0.0
C745 C 0.37759 0.02764 0.22949 0.0
C746 C 0.35376 0.01917 0.25049 0.0
N747 N 0.35965 0.01897 0.23214 0.0
C748 C 0.43274 0.02779 0.25014 0.0
C749 C 0.45254 0.06014 0.26248 0.0
C750 C 0.44014 0.02704 0.23206 0.0
N751 N 0.43838 0.04458 0.26445 0.0
C752 C 0.46077 0.05978 0.24488 0.0
C753 C 0.45402 0.04345 0.22915 0.0
H754 H 0.42169 0.01549 0.25247 0.0
H755 H 0.45732 0.07296 0.27425 0.0
C756 C 0.40424 0.09816 0.32648 0.0
N757 N 0.39378 0.08054 0.31568 0.0
C758 C 0.39883 0.11614 0.32559 0.0
C759 C 0.37066 0.09666 0.3052 0.0
C760 C 0.37695 0.07927 0.30586 0.0
C761 C 0.38227 0.11533 0.31412 0.0
H762 H 0.41765 0.09847 0.334 0.0
H763 H 0.36926 0.06504 0.29712 0.0
O764 O 0.42317 0.01934 0.29608 0.0
O765 O 0.39954 0.03775 0.32525 0.0
O766 O 0.43157 0.06533 0.30989 0.0
O767 O 0.39774 0.04512 0.28098 0.0
H768 H 0.41396 0.98078 0.29844 0.0
H769 H 0.45943 0.02915 0.29092 0.0
H770 H 0.43596 0.95784 0.29614 0.0
H771 H 0.48058 1.0053 0.28859 0.0
H772 H 0.34449 0.04894 0.34676 0.0
H773 H 0.40921 0.04339 0.36358 0.0
H774 H 0.36462 0.04196 0.31988 0.0
H775 H 0.38829 0.05022 0.38971 0.0
H776 H 0.47528 0.0219 0.3589 0.0
H777 H 0.46144 0.07954 0.37933 0.0
H778 H 0.36662 0.95984 0.25545 0.0
H779 H 0.34513 0.97414 0.31194 0.0
H780 H 0.42772 0.0973 0.29515 0.0
H781 H 0.46735 0.06993 0.32235 0.0
H782 H 0.45352 0.12708 0.29483 0.0
H783 H 0.49242 0.10017 0.3215 0.0
H784 H 0.40449 0.04446 0.24362 0.0
H785 H 0.3615 0.02857 0.28176 0.0
H786 H 0.38179 0.0276 0.21472 0.0
H787 H 0.33935 0.0123 0.25211 0.0
H788 H 0.43458 0.01411 0.22037 0.0
H789 H 0.47211 0.07229 0.24356 0.0
H790 H 0.40811 0.13046 0.33231 0.0
H791 H 0.35799 0.09574 0.29591 0.0
Li792 Li 0.3027 0.21451 0.52974 0.0
Li793 Li 0.31674 0.18778 0.50891 0.0
Li794 Li 0.3029 0.21208 0.49289 0.0
Li795 Li 0.28107 0.18356 0.50539 0.0
C796 C 0.34012 0.23264 0.51422 0.0
N797 N 0.37189 0.26286 0.5152 0.0
C798 C 0.35792 0.2286 0.51651 0.0
C799 C 0.33846 0.25203 0.51239 0.0
C800 C 0.37381 0.24409 0.517 0.0
C801 C 0.3547 0.26711 0.51292 0.0
C802 C 0.3008 0.1719 0.54161 0.0
C803 C 0.2982 0.13814 0.54767 0.0
N804 N 0.30611 0.14594 0.56645 0.0
C805 C 0.3089 0.1796 0.56097 0.0
C806 C 0.29541 0.15102 0.53487 0.0
C807 C 0.31147 0.16622 0.5733 0.0
C808 C 0.2897 0.22437 0.56692 0.0
N809 N 0.30402 0.23061 0.55609 0.0
C810 C 0.31947 0.25592 0.58396 0.0
C811 C 0.31874 0.24618 0.56416 0.0
C812 C 0.30509 0.24936 0.59565 0.0
C813 C 0.29 0.23345 0.58674 0.0
H814 H 0.27822 0.21188 0.56025 0.0
H815 H 0.3301 0.25078 0.55541 0.0
C816 C 0.34579 0.17111 0.49124 0.0
N817 N 0.33723 0.1741 0.50819 0.0
C818 C 0.36113 0.16194 0.49049 0.0
C819 C 0.35864 0.15913 0.52461 0.0
C820 C 0.34361 0.1686 0.52478 0.0
C821 C 0.36761 0.15563 0.50731 0.0
H822 H 0.34079 0.17603 0.47833 0.0
H823 H 0.3373 0.17183 0.53833 0.0
C824 C 0.27178 0.22765 0.50671 0.0
N825 N 0.25238 0.25657 0.50082 0.0
C826 C 0.25404 0.22191 0.49621 0.0
C827 C 0.27965 0.24804 0.51433 0.0
C828 C 0.24445 0.23677 0.49339 0.0
C829 C 0.26963 0.26245 0.51113 0.0
C830 C 0.29724 0.16851 0.46762 0.0
C831 C 0.29274 0.17376 0.44963 0.0
C832 C 0.30056 0.14938 0.4679 0.0
C833 C 0.29184 0.15982 0.43212 0.0
C834 C 0.29951 0.13585 0.45006 0.0
N835 N 0.29524 0.14131 0.4327 0.0
C836 C 0.32314 0.22405 0.46227 0.0
C837 C 0.29492 0.23548 0.46265 0.0
C838 C 0.32683 0.23047 0.44448 0.0
N839 N 0.30718 0.22615 0.47078 0.0
C840 C 0.29819 0.24236 0.44487 0.0
C841 C 0.31407 0.23932 0.43525 0.0
H842 H 0.33262 0.21646 0.46885 0.0
H843 H 0.28218 0.23682 0.4694 0.0
C844 C 0.25098 0.15997 0.52051 0.0
N845 N 0.25656 0.16444 0.50305 0.0
C846 C 0.23323 0.14789 0.52146 0.0
C847 C 0.22696 0.14454 0.4863 0.0
C848 C 0.24507 0.15669 0.48599 0.0
C849 C 0.22063 0.14039 0.50435 0.0
H850 H 0.26014 0.16635 0.53394 0.0
H851 H 0.24967 0.16046 0.47222 0.0
O852 O 0.32444 0.21759 0.51368 0.0
O853 O 0.29824 0.18477 0.52932 0.0
O854 O 0.28121 0.21329 0.50985 0.0
O855 O 0.299 0.18228 0.48482 0.0
H856 H 0.35946 0.21368 0.51799 0.0
H857 H 0.32478 0.25536 0.5105 0.0
H858 H 0.38768 0.24118 0.51881 0.0
H859 H 0.35365 0.28219 0.5115 0.0
H860 H 0.29411 0.12194 0.54267 0.0
H861 H 0.31337 0.19571 0.56635 0.0
H862 H 0.28918 0.14486 0.51989 0.0
H863 H 0.31779 0.17195 0.58829 0.0
H864 H 0.33144 0.26802 0.59023 0.0
H865 H 0.27852 0.22801 0.59507 0.0
H866 H 0.3677 0.15959 0.47687 0.0
H867 H 0.36346 0.15495 0.53805 0.0
H868 H 0.24776 0.20613 0.49035 0.0
H869 H 0.2933 0.25266 0.52266 0.0
H870 H 0.23069 0.23257 0.4853 0.0
H871 H 0.27553 0.27831 0.51689 0.0
H872 H 0.29002 0.18846 0.44915 0.0
H873 H 0.30409 0.14512 0.48173 0.0
H874 H 0.28848 0.16372 0.41808 0.0
H875 H 0.30217 0.12102 0.45002 0.0
H876 H 0.33924 0.22785 0.43759 0.0
H877 H 0.28789 0.2489 0.43814 0.0
H878 H 0.22911 0.14507 0.53571 0.0
H879 H 0.21771 0.13932 0.47278 0.0
Li880 Li 0.18896 0.03636 0.77157 0.0
Li881 Li 0.16074 0.01333 0.78822 0.0
Li882 Li 0.18553 0.99395 0.76722 0.0
Li883 Li 0.15957 0.0113 0.74775 0.0
C884 C 0.2013 0.02116 0.80881 0.0
N885 N 0.22433 0.02758 0.84335 0.0
C886 C 0.19594 0.03039 0.82657 0.0
C887 C 0.2184 0.01532 0.80854 0.0
C888 C 0.20777 0.03346 0.84389 0.0
C889 C 0.22985 0.01869 0.82618 0.0
C890 C 0.14781 0.04631 0.7727 0.0
C891 C 0.11567 0.0493 0.76935 0.0
N892 N 0.1214 0.06953 0.77633 0.0
C893 C 0.1534 0.0671 0.77985 0.0
C894 C 0.12882 0.03729 0.76742 0.0
C895 C 0.13982 0.07859 0.78157 0.0
C896 C 0.20048 0.07619 0.7589 0.0
N897 N 0.20558 0.06598 0.77282 0.0
C898 C 0.22982 0.09638 0.78704 0.0
C899 C 0.22021 0.07592 0.78673 0.0
C900 C 0.22446 0.1074 0.77312 0.0
C901 C 0.20949 0.0966 0.75889 0.0
H902 H 0.18895 0.06864 0.74785 0.0
H903 H 0.22434 0.0682 0.79798 0.0
C904 C 0.14045 0.99807 0.82373 0.0
N905 N 0.14562 0.01418 0.8144 0.0
C906 C 0.13173 0.9998 0.84191 0.0
C907 C 0.13318 0.03447 0.84101 0.0
C908 C 0.14167 0.0321 0.82289 0.0
C909 C 0.12814 0.01838 0.85137 0.0
H910 H 0.14343 0.98373 0.8174 0.0
H911 H 0.14553 0.04503 0.8159 0.0
C912 C 0.19837 0.01192 0.73123 0.0
N913 N 0.21874 0.00782 0.69888 0.0
C914 C 0.19006 0.99916 0.71355 0.0
C915 C 0.21705 0.02252 0.73253 0.0
C916 C 0.20057 0.99736 0.69732 0.0
C917 C 0.22712 0.02022 0.716 0.0
C918 C 0.14166 0.9718 0.76218 0.0
C919 C 0.14489 0.95265 0.7554 0.0
C920 C 0.12365 0.97379 0.76641 0.0
C921 C 0.12995 0.93574 0.75287 0.0
C922 C 0.10907 0.95651 0.76366 0.0
N923 N 0.1125 0.938 0.75701 0.0
C924 C 0.20325 0.96269 0.78506 0.0
C925 C 0.20724 0.95889 0.75142 0.0
C926 C 0.21292 0.94699 0.78689 0.0
N927 N 0.20047 0.96893 0.76755 0.0
C928 C 0.21698 0.94294 0.75264 0.0
C929 C 0.22043 0.93648 0.77069 0.0
H930 H 0.19797 0.96996 0.79806 0.0
H931 H 0.20527 0.96321 0.73728 0.0
C932 C 0.1401 0.0306 0.71748 0.0
N933 N 0.14369 0.01258 0.72065 0.0
C934 C 0.13096 0.03258 0.69927 0.0
C935 C 0.12892 0.99756 0.68718 0.0
C936 C 0.13776 0.99613 0.70566 0.0
C937 C 0.12539 0.01603 0.68327 0.0
H938 H 0.14474 0.04391 0.72895 0.0
H939 H 0.14029 0.98171 0.70769 0.0
O940 O 0.18958 0.01726 0.79185 0.0
O941 O 0.16087 0.0348 0.77079 0.0
O942 O 0.18825 0.01402 0.74719 0.0
O943 O 0.15618 0.98847 0.76499 0.0
H944 H 0.18276 0.03503 0.82699 0.0
H945 H 0.22272 0.00815 0.79488 0.0
H946 H 0.20376 0.04049 0.85778 0.0
H947 H 0.2431 0.01417 0.82623 0.0
H948 H 0.10092 0.04255 0.76527 0.0
H949 H 0.16805 0.07428 0.78406 0.0
H950 H 0.12431 0.02123 0.76173 0.0
H951 H 0.14393 0.09471 0.78707 0.0
H952 H 0.24092 0.10375 0.79863 0.0
H953 H 0.20451 0.10403 0.7478 0.0
H954 H 0.12851 0.98677 0.8489 0.0
H955 H 0.13081 0.04919 0.84704 0.0
H956 H 0.17568 0.99073 0.7124 0.0
H957 H 0.22367 0.0324 0.74617 0.0
H958 H 0.1943 0.98762 0.6835 0.0
H959 H 0.24161 0.0283 0.71678 0.0
H960 H 0.1588 0.95088 0.75216 0.0
H961 H 0.12098 0.98849 0.77188 0.0
H962 H 0.13222 0.92081 0.74763 0.0
H963 H 0.09505 0.9578 0.76687 0.0
H964 H 0.21423 0.94304 0.80127 0.0
H965 H 0.22208 0.93597 0.73938 0.0
H966 H 0.12905 0.0473 0.69749 0.0
H967 H 0.12506 0.98409 0.67577 0.0
Li968 Li 0.3099 0.94919 0.01265 0.0
Li969 Li 0.32628 0.92843 0.02989 0.0
Li970 Li 0.34378 0.95759 0.01879 0.0
Li971 Li 0.32973 0.92683 0.99562 0.0
C972 C 0.33021 0.97162 0.05429 0.0
N973 N 0.34208 1.00242 0.08673 0.0
C974 C 0.3342 0.96718 0.07282 0.0
C975 C 0.33198 0.99171 0.05231 0.0
C976 C 0.34022 0.98296 0.08902 0.0
C977 C 0.33812 1.00708 0.06888 0.0
C978 C 0.29254 0.90287 0.00944 0.0
C979 C 0.28185 0.86684 0.00656 0.0
N980 N 0.26485 0.8695 0.01198 0.0
C981 C 0.2749 0.90523 0.01479 0.0
C982 C 0.29601 0.88352 0.00513 0.0
C983 C 0.26112 0.88817 0.01608 0.0
C984 C 0.2804 0.96303 0.99561 0.0
N985 N 0.28899 0.96014 0.01242 0.0
C986 C 0.27033 0.97809 0.03244 0.0
C987 C 0.28392 0.96684 0.03055 0.0
C988 C 0.26177 0.98204 0.01544 0.0
C989 C 0.26641 0.97398 0.99679 0.0
H990 H 0.28491 0.95753 0.98144 0.0
H991 H 0.29094 0.96408 0.0436 0.0
C992 C 0.34153 0.91342 0.05929 0.0
N993 N 0.32506 0.91483 0.05034 0.0
C994 C 0.34149 0.90467 0.07583 0.0
C995 C 0.3076 0.89976 0.07395 0.0
C996 C 0.3083 0.90857 0.05738 0.0
C997 C 0.32436 0.89784 0.08314 0.0
H998 H 0.35468 0.91962 0.05396 0.0
H999 H 0.29561 0.91093 0.05051 0.0
C1000 C 0.33463 0.96819 0.98161 0.0
N1001 N 0.34749 0.99549 0.95791 0.0
C1002 C 0.34529 0.96296 0.96618 0.0
C1003 C 0.33031 0.98718 0.98488 0.0
C1004 C 0.35167 0.97699 0.95435 0.0
C1005 C 0.33706 1.00083 0.9728 0.0
C1006 C 0.36168 0.91848 0.01542 0.0
C1007 C 0.3809 0.92628 0.01522 0.0
C1008 C 0.35492 0.89772 0.0141 0.0
C1009 C 0.39305 0.91312 0.01361 0.0
C1010 C 0.36751 0.88506 0.01246 0.0
N1011 N 0.38616 0.89296 0.01226 0.0
C1012 C 0.37312 0.97927 0.04508 0.0
C1013 C 0.37269 0.99157 0.01517 0.0
C1014 C 0.38946 0.99358 0.0526 0.0
N1015 N 0.36505 0.97862 0.02675 0.0
C1016 C 0.3893 1.00579 0.02188 0.0
C1017 C 0.39807 1.00664 0.04069 0.0
H1018 H 0.36718 0.96819 0.05361 0.0
H1019 H 0.36658 0.99035 1.0004 0.0
C1020 C 0.31451 0.89823 0.96352 0.0
N1021 N 0.3313 0.90872 0.97306 0.0
C1022 C 0.31379 0.8825 0.94781 0.0
C1023 C 0.34776 0.88889 0.95185 0.0
C1024 C 0.34782 0.90469 0.96746 0.0
C1025 C 0.33055 0.8777 0.94202 0.0
H1026 H 0.30168 0.90197 0.96831 0.0
H1027 H 0.36097 0.91362 0.97514 0.0
O1028 O 0.32466 0.95635 0.03818 0.0
O1029 O 0.30603 0.91941 0.00773 0.0
O1030 O 0.32822 0.95463 0.99325 0.0
O1031 O 0.34967 0.93125 0.01721 0.0
H1032 H 0.33275 0.95174 0.0747 0.0
H1033 H 0.32893 0.99537 0.03806 0.0
H1034 H 0.34343 0.97974 0.10342 0.0
H1035 H 0.33977 0.02272 0.06754 0.0
H1036 H 0.28435 0.85178 1.00327 0.0
H1037 H 0.27192 0.92008 0.01799 0.0
H1038 H 0.30941 0.88135 1.00052 0.0
H1039 H 0.24744 0.88978 0.0203 0.0
H1040 H 0.26693 0.98416 0.047 0.0
H1041 H 0.25998 0.97695 0.98348 0.0
H1042 H 0.35461 0.90349 0.08301 0.0
H1043 H 0.29426 0.89463 0.0796 0.0
H1044 H 0.34862 0.94825 0.9634 0.0
H1045 H 0.32204 0.99138 0.99677 0.0
H1046 H 0.35994 0.97318 0.94235 0.0
H1047 H 0.33402 0.01567 0.97526 0.0
H1048 H 0.38637 0.94234 0.01634 0.0
H1049 H 0.34014 0.8915 0.01449 0.0
H1050 H 0.40796 0.91894 0.01345 0.0
H1051 H 0.36246 0.86896 0.01141 0.0
H1052 H 0.3959 0.9936 0.06708 0.0
H1053 H 0.39584 0.01499 0.01185 0.0
H1054 H 0.30034 0.87424 0.94013 0.0
H1055 H 0.36089 0.88576 0.94721 0.0
Li1056 Li 0.29732 0.39998 0.03618 0.0
Li1057 Li 0.31044 0.37544 0.05258 0.0
Li1058 Li 0.33291 0.40352 0.03822 0.0
Li1059 Li 0.3109 0.3727 0.01517 0.0
C1060 C 0.31434 0.41983 0.07593 0.0
N1061 N 0.31132 0.44841 0.10828 0.0
C1062 C 0.3055 0.41388 0.09206 0.0
C1063 C 0.32175 0.4403 0.0763 0.0
C1064 C 0.30406 0.42856 0.10825 0.0
C1065 C 0.32007 0.45453 0.09279 0.0
C1066 C 0.27316 0.3555 0.03105 0.0
C1067 C 0.25666 0.3205 0.02417 0.0
N1068 N 0.24093 0.32601 0.03054 0.0
C1069 C 0.2568 0.36084 0.0374 0.0
C1070 C 0.2731 0.3352 0.02428 0.0
C1071 C 0.24067 0.34569 0.03709 0.0
C1072 C 0.2688 0.41624 0.01893 0.0
N1073 N 0.27695 0.41414 0.03637 0.0
C1074 C 0.25549 0.4307 0.05407 0.0
C1075 C 0.27037 0.4209 0.05374 0.0
C1076 C 0.24706 0.43357 0.03634 0.0
C1077 C 0.25389 0.42601 0.01857 0.0
H1078 H 0.27388 0.41035 0.00522 0.0
H1079 H 0.27644 0.41846 0.0674 0.0
C1080 C 0.32155 0.35878 0.08654 0.0
N1081 N 0.30683 0.36138 0.0751 0.0
C1082 C 0.31864 0.35153 0.10425 0.0
C1083 C 0.28553 0.34914 0.0978 0.0
C1084 C 0.28902 0.3563 0.08031 0.0
C1085 C 0.30044 0.34714 0.1104 0.0
H1086 H 0.33565 0.3631 0.08238 0.0
H1087 H 0.27752 0.35883 0.07148 0.0
C1088 C 0.31538 0.41602 1.00305 0.0
N1089 N 0.3148 0.44341 0.97847 0.0
C1090 C 0.31702 0.41045 0.9829 0.0
C1091 C 0.31368 0.43559 0.01078 0.0
C1092 C 0.31668 0.42451 0.9707 0.0
C1093 C 0.31332 0.44919 0.99807 0.0
C1094 C 0.34186 0.359 0.03437 0.0
C1095 C 0.36098 0.36364 0.03184 0.0
C1096 C 0.33295 0.33933 0.03571 0.0
C1097 C 0.37093 0.34841 0.0306 0.0
C1098 C 0.3434 0.32451 0.0344 0.0
N1099 N 0.36201 0.32932 0.0319 0.0
C1100 C 0.368 0.42889 0.05839 0.0
C1101 C 0.36511 0.42747 0.02393 0.0
C1102 C 0.38591 0.44186 0.06018 0.0
N1103 N 0.35789 0.42198 0.04046 0.0
C1104 C 0.38297 0.44042 0.02506 0.0
C1105 C 0.39375 0.44798 0.0434 0.0
H1106 H 0.36219 0.42427 0.07136 0.0
H1107 H 0.35698 0.42179 0.00977 0.0
C1108 C 0.29455 0.35702 0.97553 0.0
N1109 N 0.30859 0.35594 0.98876 0.0
C1110 C 0.29358 0.3477 0.95562 0.0
C1111 C 0.32091 0.33529 0.96331 0.0
C1112 C 0.32152 0.3451 0.98303 0.0
C1113 C 0.30704 0.33686 0.94914 0.0
H1114 H 0.28447 0.36582 0.9803 0.0
H1115 H 0.33274 0.34457 0.99356 0.0
O1116 O 0.31609 0.40564 0.06008 0.0
O1117 O 0.2891 0.37013 0.03132 0.0
O1118 O 0.31494 0.40219 0.01503 0.0
O1119 O 0.332 0.37378 0.03577 0.0
H1120 H 0.29969 0.39814 0.09206 0.0
H1121 H 0.32875 0.44513 0.06398 0.0
H1122 H 0.29718 0.42416 0.12078 0.0
H1123 H 0.32574 0.47044 0.0933 0.0
H1124 H 0.2564 0.30471 0.01901 0.0
H1125 H 0.2566 0.37648 0.04268 0.0
H1126 H 0.28562 0.33085 0.01917 0.0
H1127 H 0.22794 0.34959 0.04208 0.0
H1128 H 0.25051 0.43574 0.06813 0.0
H1129 H 0.24802 0.4279 0.0045 0.0
H1130 H 0.33061 0.3504 0.11351 0.0
H1131 H 0.27124 0.34581 0.10175 0.0
H1132 H 0.31856 0.39544 0.97673 0.0
H1133 H 0.31238 0.4401 0.02636 0.0
H1134 H 0.31788 0.42038 0.95506 0.0
H1135 H 0.3118 0.46432 1.00378 0.0
H1136 H 0.36804 0.37886 0.03085 0.0
H1137 H 0.31816 0.33558 0.03776 0.0
H1138 H 0.38575 0.35176 0.02863 0.0
H1139 H 0.33672 0.3092 0.03541 0.0
H1140 H 0.39362 0.44685 0.07464 0.0
H1141 H 0.38812 0.44474 0.01169 0.0
H1142 H 0.28253 0.34921 0.94533 0.0
H1143 H 0.33169 0.32728 0.95904 0.0
Li1144 Li 0.78451 0.15891 0.04462 0.0
Li1145 Li 0.80306 0.13719 0.02584 0.0
Li1146 Li 0.78447 0.15703 0.00909 0.0
Li1147 Li 0.76986 0.12742 0.02197 0.0
C1148 C 0.81952 0.18404 0.03555 0.0
N1149 N 0.84754 0.21873 0.04688 0.0
C1150 C 0.83713 0.18298 0.0435 0.0
C1151 C 0.81616 0.20272 0.0333 0.0
C1152 C 0.85112 0.20069 0.04914 0.0
C1153 C 0.8305 0.2201 0.03917 0.0
C1154 C 0.78162 0.11813 0.05886 0.0
C1155 C 0.7761 0.08439 0.0656 0.0
N1156 N 0.76982 0.09107 0.08315 0.0
C1157 C 0.77523 0.1247 0.07703 0.0
C1158 C 0.78226 0.09787 0.05315 0.0
C1159 C 0.76931 0.11078 0.0891 0.0
C1160 C 0.76556 0.17859 0.07208 0.0
N1161 N 0.78295 0.17624 0.06809 0.0
C1162 C 0.79672 0.19969 0.09739 0.0
C1163 C 0.79843 0.18622 0.08038 0.0
C1164 C 0.77894 0.20331 0.10138 0.0
C1165 C 0.76329 0.19255 0.08827 0.0
H1166 H 0.75339 0.16976 0.06259 0.0
H1167 H 0.81205 0.18362 0.07704 0.0
C1168 C 0.83202 0.12709 0.00754 0.0
N1169 N 0.82438 0.12786 0.02499 0.0
C1170 C 0.84829 0.12014 0.00529 0.0
C1171 C 0.84824 0.11473 0.03904 0.0
C1172 C 0.83186 0.12175 0.04061 0.0
C1173 C 0.85668 0.11415 0.02126 0.0
H1174 H 0.82543 0.13194 0.99544 0.0
H1175 H 0.82517 0.12252 0.05421 0.0
C1176 C 0.75026 0.16549 0.02373 0.0
N1177 N 0.72484 0.18971 0.02268 0.0
C1178 C 0.73111 0.15677 0.01918 0.0
C1179 C 0.75648 0.18652 0.02774 0.0
C1180 C 0.71848 0.16928 0.01872 0.0
C1181 C 0.74341 0.1985 0.02713 0.0
C1182 C 0.78378 0.11433 0.9846 0.0
C1183 C 0.77829 0.11834 0.9663 0.0
C1184 C 0.78547 0.09487 0.98612 0.0
C1185 C 0.7743 0.10269 0.9498 0.0
C1186 C 0.78135 0.07962 0.96925 0.0
N1187 N 0.77588 0.0838 0.95162 0.0
C1188 C 0.80158 0.1803 0.98419 0.0
C1189 C 0.76832 0.17497 0.98139 0.0
C1190 C 0.80293 0.19365 0.97118 0.0
N1191 N 0.78451 0.17182 0.98937 0.0
C1192 C 0.76903 0.18847 0.9686 0.0
C1193 C 0.78653 0.19816 0.96381 0.0
H1194 H 0.81412 0.17715 0.99068 0.0
H1195 H 0.75494 0.16745 0.98534 0.0
C1196 C 0.74015 0.10003 0.03225 0.0
N1197 N 0.74904 0.10594 0.01683 0.0
C1198 C 0.72211 0.08813 0.02904 0.0
C1199 C 0.72296 0.08791 0.99404 0.0
C1200 C 0.74105 0.09974 0.99793 0.0
C1201 C 0.71301 0.08323 0.00991 0.0
H1202 H 0.74603 0.10629 0.04719 0.0
H1203 H 0.7477 0.10574 0.9861 0.0
O1204 O 0.80598 0.16672 0.02915 0.0
O1205 O 0.78707 0.13151 0.04673 0.0
O1206 O 0.76271 0.15341 0.02473 0.0
O1207 O 0.78704 0.12935 1.00098 0.0
H1208 H 0.84002 0.1686 0.04515 0.0
H1209 H 0.80275 0.20379 0.02682 0.0
H1210 H 0.86485 0.20008 0.05524 0.0
H1211 H 0.82811 0.23466 0.03748 0.0
H1212 H 0.77627 0.0686 0.06128 0.0
H1213 H 0.77472 0.14034 0.08172 0.0
H1214 H 0.78715 0.09258 0.03911 0.0
H1215 H 0.76427 0.11563 0.10315 0.0
H1216 H 0.8092 0.20692 0.10726 0.0
H1217 H 0.74931 0.19485 0.09021 0.0
H1218 H 0.85422 0.11942 0.99123 0.0
H1219 H 0.85441 0.11016 0.05161 0.0
H1220 H 0.72606 0.14051 0.01615 0.0
H1221 H 0.77119 0.19349 0.03151 0.0
H1222 H 0.70362 0.16274 0.01527 0.0
H1223 H 0.74802 0.21479 0.03028 0.0
H1224 H 0.77686 0.13332 0.96491 0.0
H1225 H 0.78967 0.09156 1.0002 0.0
H1226 H 0.76988 0.10553 0.93559 0.0
H1227 H 0.78244 0.06444 0.9702 0.0
H1228 H 0.81658 0.20094 0.96752 0.0
H1229 H 0.75617 0.19162 0.9628 0.0
H1230 H 0.71453 0.08532 0.04169 0.0
H1231 H 0.71603 0.08471 0.9792 0.0
Li1232 Li 0.20978 0.56727 0.24654 0.0
Li1233 Li 0.18243 0.54649 0.25793 0.0
Li1234 Li 0.20332 0.53072 0.23726 0.0
Li1235 Li 0.18214 0.54907 0.2246 0.0
C1236 C 0.22212 0.5501 0.27913 0.0
N1237 N 0.24926 0.55759 0.3105 0.0
C1238 C 0.21791 0.55666 0.29835 0.0
C1239 C 0.24008 0.54722 0.27587 0.0
C1240 C 0.23184 0.56041 0.314 0.0
C1241 C 0.25362 0.55111 0.29194 0.0
C1242 C 0.1725 0.58428 0.24501 0.0
C1243 C 0.1418 0.58998 0.23742 0.0
N1244 N 0.14902 0.61026 0.24209 0.0
C1245 C 0.17964 0.60517 0.24958 0.0
C1246 C 0.15344 0.57659 0.23883 0.0
C1247 C 0.16753 0.61806 0.24807 0.0
C1248 C 0.23766 0.5982 0.23824 0.0
N1249 N 0.22948 0.58963 0.2528 0.0
C1250 C 0.2517 0.61189 0.27745 0.0
C1251 C 0.23589 0.59636 0.27209 0.0
C1252 C 0.26034 0.62121 0.26283 0.0
C1253 C 0.25334 0.61417 0.24297 0.0
H1254 H 0.23183 0.59283 0.22306 0.0
H1255 H 0.22847 0.59006 0.28337 0.0
C1256 C 0.17124 0.52837 0.28877 0.0
N1257 N 0.16922 0.54357 0.27937 0.0
C1258 C 0.16262 0.52628 0.30593 0.0
C1259 C 0.14957 0.55513 0.30273 0.0
C1260 C 0.1586 0.55677 0.28579 0.0
C1261 C 0.15187 0.53998 0.31318 0.0
H1262 H 0.17992 0.51823 0.28313 0.0
H1263 H 0.15733 0.56866 0.2779 0.0
C1264 C 0.22165 0.54964 0.20697 0.0
N1265 N 0.24799 0.54807 0.17997 0.0
C1266 C 0.21595 0.54441 0.18676 0.0
C1267 C 0.24074 0.55394 0.21349 0.0
C1268 C 0.22948 0.54369 0.17334 0.0
C1269 C 0.25384 0.55313 0.19959 0.0
C1270 C 0.16133 0.50942 0.23876 0.0
C1271 C 0.16275 0.48927 0.23591 0.0
C1272 C 0.14451 0.51431 0.24411 0.0
C1273 C 0.14761 0.47447 0.2392 0.0
C1274 C 0.12969 0.49909 0.24732 0.0
N1275 N 0.13153 0.47965 0.24484 0.0
C1276 C 0.21015 0.49879 0.24894 0.0
C1277 C 0.22486 0.50364 0.21981 0.0
C1278 C 0.21817 0.48271 0.25041 0.0
N1279 N 0.21384 0.50895 0.23403 0.0
C1280 C 0.23385 0.48805 0.22113 0.0
C1281 C 0.23093 0.47786 0.23699 0.0
H1282 H 0.20119 0.50353 0.25989 0.0
H1283 H 0.22729 0.51189 0.20797 0.0
C1284 C 0.16981 0.56281 0.19158 0.0
N1285 N 0.16789 0.54769 0.20197 0.0
C1286 C 0.15977 0.55942 0.17317 0.0
C1287 C 0.14645 0.52512 0.17699 0.0
C1288 C 0.15673 0.52913 0.19502 0.0
C1289 C 0.14794 0.54031 0.16586 0.0
H1290 H 0.17931 0.57722 0.19744 0.0
H1291 H 0.15594 0.51722 0.20327 0.0
O1292 O 0.2088 0.54692 0.26358 0.0
O1293 O 0.18405 0.57158 0.24755 0.0
O1294 O 0.20859 0.55102 0.22023 0.0
O1295 O 0.17587 0.52397 0.23488 0.0
H1296 H 0.2042 0.55933 0.30112 0.0
H1297 H 0.24355 0.54219 0.26108 0.0
H1298 H 0.22883 0.56568 0.32891 0.0
H1299 H 0.26761 0.54904 0.28965 0.0
H1300 H 0.12701 0.58425 0.23271 0.0
H1301 H 0.19435 0.61134 0.25456 0.0
H1302 H 0.14767 0.56049 0.23523 0.0
H1303 H 0.17284 0.63426 0.25175 0.0
H1304 H 0.25646 0.61741 0.29295 0.0
H1305 H 0.25923 0.62163 0.23143 0.0
H1306 H 0.16472 0.51448 0.31367 0.0
H1307 H 0.14098 0.56567 0.30764 0.0
H1308 H 0.20122 0.54103 0.18149 0.0
H1309 H 0.24537 0.5579 0.22909 0.0
H1310 H 0.22528 0.5397 0.15764 0.0
H1311 H 0.26867 0.55654 0.20439 0.0
H1312 H 0.17521 0.48495 0.23073 0.0
H1313 H 0.14291 0.52969 0.24585 0.0
H1314 H 0.14857 0.45884 0.23707 0.0
H1315 H 0.11667 0.50272 0.25168 0.0
H1316 H 0.21515 0.47484 0.26252 0.0
H1317 H 0.24371 0.48484 0.21057 0.0
H1318 H 0.16119 0.57144 0.16481 0.0
H1319 H 0.13713 0.51038 0.17206 0.0
Li1320 Li 0.79715 0.89805 0.53489 0.0
Li1321 Li 0.81035 0.87324 0.55004 0.0
Li1322 Li 0.83283 0.9023 0.53736 0.0
Li1323 Li 0.8109 0.87145 0.51359 0.0
C1324 C 0.8139 0.91685 0.57514 0.0
N1325 N 0.81042 0.94435 0.60817 0.0
C1326 C 0.8056 0.91014 0.59124 0.0
C1327 C 0.82053 0.93752 0.57587 0.0
C1328 C 0.80394 0.92428 0.60779 0.0
C1329 C 0.81861 0.95119 0.59271 0.0
C1330 C 0.77312 0.85398 0.53051 0.0
C1331 C 0.75641 0.81914 0.52593 0.0
N1332 N 0.74122 0.82518 0.5332 0.0
C1333 C 0.7573 0.85985 0.53783 0.0
C1334 C 0.77266 0.83347 0.52441 0.0
C1335 C 0.74133 0.84506 0.53911 0.0
C1336 C 0.76801 0.91424 0.51839 0.0
N1337 N 0.77679 0.91234 0.5356 0.0
C1338 C 0.75631 0.9297 0.55408 0.0
C1339 C 0.77093 0.91953 0.55324 0.0
C1340 C 0.74744 0.93262 0.53661 0.0
C1341 C 0.75343 0.9245 0.51855 0.0
H1342 H 0.77237 0.90786 0.50445 0.0
H1343 H 0.77734 0.91715 0.56674 0.0
C1344 C 0.82361 0.85719 0.58182 0.0
N1345 N 0.80768 0.85809 0.57131 0.0
C1346 C 0.82262 0.84978 0.59943 0.0
C1347 C 0.78884 0.843 0.59452 0.0
C1348 C 0.79047 0.85077 0.57713 0.0
C1349 C 0.80507 0.84304 0.60619 0.0
H1350 H 0.83714 0.86334 0.57714 0.0
H1351 H 0.77796 0.85216 0.5691 0.0
C1352 C 0.81198 0.9138 0.50157 0.0
N1353 N 0.80602 0.9394 0.47657 0.0
C1354 C 0.81003 0.90702 0.48113 0.0
C1355 C 0.81083 0.93357 0.50932 0.0
C1356 C 0.80708 0.92022 0.46873 0.0
C1357 C 0.80779 0.94627 0.49642 0.0
C1358 C 0.84165 0.85734 0.53131 0.0
C1359 C 0.86088 0.86179 0.52926 0.0
C1360 C 0.83228 0.8375 0.53143 0.0
C1361 C 0.87047 0.84623 0.52738 0.0
C1362 C 0.84237 0.82236 0.5295 0.0
N1363 N 0.8611 0.827 0.52754 0.0
C1364 C 0.87276 0.92014 0.55185 0.0
C1365 C 0.85936 0.93549 0.52849 0.0
C1366 C 0.89057 0.93289 0.55148 0.0
N1367 N 0.85761 0.92135 0.5401 0.0
C1368 C 0.8767 0.94849 0.52776 0.0
C1369 C 0.89285 0.947 0.53885 0.0
H1370 H 0.87121 0.90882 0.56103 0.0
H1371 H 0.84741 0.93638 0.51924 0.0
C1372 C 0.79069 0.84704 0.47863 0.0
N1373 N 0.8084 0.8544 0.48762 0.0
C1374 C 0.78773 0.83754 0.45874 0.0
C1375 C 0.82123 0.84226 0.45776 0.0
C1376 C 0.82357 0.85167 0.4778 0.0
C1377 C 0.80313 0.83572 0.44778 0.0
H1378 H 0.77884 0.84955 0.48659 0.0
H1379 H 0.83755 0.85783 0.48517 0.0
O1380 O 0.81571 0.90323 0.55885 0.0
O1381 O 0.78889 0.86826 0.52919 0.0
O1382 O 0.81511 0.90114 0.51389 0.0
O1383 O 0.83221 0.87249 0.53368 0.0
H1384 H 0.80039 0.8942 0.59092 0.0
H1385 H 0.82706 0.94293 0.56355 0.0
H1386 H 0.79749 0.9193 0.62032 0.0
H1387 H 0.82365 0.96725 0.59349 0.0
H1388 H 0.75586 0.80321 0.52131 0.0
H1389 H 0.75738 0.87563 0.54262 0.0
H1390 H 0.78472 0.82869 0.51856 0.0
H1391 H 0.72903 0.84938 0.54484 0.0
H1392 H 0.75191 0.93504 0.56837 0.0
H1393 H 0.74719 0.92633 0.50463 0.0
H1394 H 0.83546 0.85043 0.60831 0.0
H1395 H 0.7751 0.83851 0.59956 0.0
H1396 H 0.81093 0.89179 0.4749 0.0
H1397 H 0.81226 0.93901 0.52513 0.0
H1398 H 0.80565 0.91521 0.45288 0.0
H1399 H 0.80685 0.9616 0.50219 0.0
H1400 H 0.86831 0.87712 0.52919 0.0
H1401 H 0.81742 0.83388 0.53316 0.0
H1402 H 0.88538 0.84945 0.52582 0.0
H1403 H 0.83533 0.80692 0.52963 0.0
H1404 H 0.90254 0.93107 0.56028 0.0
H1405 H 0.87749 0.95931 0.51806 0.0
H1406 H 0.77353 0.83283 0.45163 0.0
H1407 H 0.83349 0.8415 0.44982 0.0
Li1408 Li 0.95387 0.07664 0.29532 0.0
Li1409 Li 0.92469 0.05167 0.27173 0.0
Li1410 Li 0.95283 0.07476 0.25461 0.0
Li1411 Li 0.92783 0.09388 0.27497 0.0
C1412 C 0.96576 0.04174 0.27191 0.0
N1413 N 0.99217 0.01862 0.27201 0.0
C1414 C 0.96041 0.0216 0.27399 0.0
C1415 C 0.98449 0.05012 0.26977 0.0
C1416 C 0.97399 0.01017 0.27406 0.0
C1417 C 0.99764 0.03817 0.26987 0.0
C1418 C 0.91407 0.07323 0.3108 0.0
C1419 C 0.88665 0.07943 0.32633 0.0
N1420 N 0.89219 0.072 0.34208 0.0
C1421 C 0.91947 0.06559 0.32709 0.0
C1422 C 0.89755 0.08022 0.31038 0.0
C1423 C 0.90823 0.06513 0.34278 0.0
C1424 C 0.97692 0.09101 0.33815 0.0
N1425 N 0.9693 0.0752 0.32279 0.0
C1426 C 0.97877 0.05266 0.34313 0.0
C1427 C 0.97052 0.05627 0.32535 0.0
C1428 C 0.98633 0.06843 0.35949 0.0
C1429 C 0.98546 0.088 0.35634 0.0
H1430 H 0.97607 0.10614 0.33669 0.0
H1431 H 0.9645 0.04349 0.31372 0.0
C1432 C 0.8995 0.00927 0.25312 0.0
N1433 N 0.90799 0.02207 0.27024 0.0
C1434 C 0.88995 0.98881 0.25289 0.0
C1435 C 0.89764 0.99453 0.28779 0.0
C1436 C 0.90685 0.01479 0.28742 0.0
C1437 C 0.88906 0.98074 0.27038 0.0
H1438 H 0.90046 0.01464 0.23934 0.0
H1439 H 0.91359 0.02456 0.30104 0.0
C1440 C 0.97184 0.11569 0.27786 0.0
N1441 N 1.00105 0.14846 0.27787 0.0
C1442 C 0.96832 0.13296 0.2719 0.0
C1443 C 0.99018 0.11506 0.28386 0.0
C1444 C 0.98329 0.14939 0.27202 0.0
C1445 C 1.00478 0.13178 0.28372 0.0
C1446 C 0.9125 0.06905 0.23434 0.0
C1447 C 0.91959 0.07846 0.21912 0.0
C1448 C 0.89367 0.05888 0.23267 0.0
C1449 C 0.90766 0.07742 0.20234 0.0
C1450 C 0.88218 0.05826 0.21568 0.0
N1451 N 0.88936 0.06745 0.20099 0.0
C1452 C 0.96066 0.0567 0.21305 0.0
C1453 C 0.98262 0.08729 0.22433 0.0
C1454 C 0.96835 0.05439 0.19445 0.0
N1455 N 0.96747 0.07311 0.22788 0.0
C1456 C 0.99089 0.0854 0.20583 0.0
C1457 C 0.9837 0.06884 0.19005 0.0
H1458 H 0.94883 0.04525 0.21542 0.0
H1459 H 0.98832 0.10046 0.23571 0.0
C1460 C 0.91204 0.13388 0.29035 0.0
N1461 N 0.91225 0.11855 0.27462 0.0
C1462 C 0.90191 0.14955 0.28911 0.0
C1463 C 0.89176 0.13409 0.2557 0.0
C1464 C 0.90206 0.11889 0.25749 0.0
C1465 C 0.8913 0.15038 0.27147 0.0
H1466 H 0.91985 0.13426 0.3042 0.0
H1467 H 0.90171 0.10719 0.24476 0.0
O1468 O 0.95273 0.05324 0.27194 0.0
O1469 O 0.92526 0.07466 0.29569 0.0
O1470 O 0.95732 0.09966 0.27824 0.0
O1471 O 0.92394 0.06986 0.25084 0.0
H1472 H 0.94596 0.0149 0.27565 0.0
H1473 H 0.98881 0.06568 0.26805 0.0
H1474 H 0.97008 0.99458 0.27575 0.0
H1475 H 0.0122 0.04444 0.26824 0.0
H1476 H 0.87383 0.0848 0.32623 0.0
H1477 H 0.9322 0.06012 0.32765 0.0
H1478 H 0.89326 0.08629 0.29791 0.0
H1479 H 0.91228 0.05934 0.35552 0.0
H1480 H 0.97892 0.03722 0.34412 0.0
H1481 H 0.99069 0.10092 0.36813 0.0
H1482 H 0.88395 0.97917 0.23892 0.0
H1483 H 0.89748 0.98966 0.30184 0.0
H1484 H 0.95415 0.13369 0.26733 0.0
H1485 H 0.99308 0.10183 0.28865 0.0
H1486 H 0.98078 0.16289 0.2675 0.0
H1487 H 0.01905 0.13153 0.28832 0.0
H1488 H 0.93413 0.08651 0.22029 0.0
H1489 H 0.88801 0.0516 0.2444 0.0
H1490 H 0.91295 0.08459 0.19041 0.0
H1491 H 0.86755 0.05047 0.21417 0.0
H1492 H 0.96204 0.04114 0.18338 0.0
H1493 H 1.00248 0.09729 0.20374 0.0
H1494 H 0.90261 0.16107 0.3021 0.0
H1495 H 0.88402 0.13254 0.24159 0.0
Li1496 Li 0.28047 0.65949 0.545 0.0
Li1497 Li 0.29793 0.6349 0.52804 0.0
Li1498 Li 0.28254 0.65603 0.51019 0.0
Li1499 Li 0.26403 0.62814 0.5224 0.0
C1500 C 0.31724 0.68168 0.53285 0.0
N1501 N 0.34548 0.71617 0.53629 0.0
C1502 C 0.33578 0.6814 0.53848 0.0
C1503 C 0.31307 0.69959 0.52914 0.0
C1504 C 0.34986 0.69895 0.54004 0.0
C1505 C 0.32753 0.71686 0.53095 0.0
C1506 C 0.27642 0.61884 0.56089 0.0
C1507 C 0.26725 0.58543 0.56816 0.0
N1508 N 0.26917 0.59359 0.58777 0.0
C1509 C 0.27825 0.62691 0.58108 0.0
C1510 C 0.27097 0.59793 0.55432 0.0
C1511 C 0.2746 0.61389 0.59446 0.0
C1512 C 0.26378 0.6813 0.57425 0.0
N1513 N 0.28026 0.6784 0.56753 0.0
C1514 C 0.29776 0.70647 0.59102 0.0
C1515 C 0.29707 0.69024 0.5758 0.0
C1516 C 0.28098 0.71016 0.59779 0.0
C1517 C 0.26381 0.69733 0.58961 0.0
H1518 H 0.25066 0.67136 0.56749 0.0
H1519 H 0.30994 0.68711 0.57059 0.0
C1520 C 0.32992 0.6314 0.51433 0.0
N1521 N 0.31854 0.62392 0.52735 0.0
C1522 C 0.34544 0.62374 0.5098 0.0
C1523 C 0.33697 0.60036 0.53195 0.0
C1524 C 0.32163 0.60878 0.53632 0.0
C1525 C 0.3489 0.60772 0.51828 0.0
H1526 H 0.32664 0.64312 0.50718 0.0
H1527 H 0.31191 0.60288 0.54624 0.0
C1528 C 0.24792 0.66847 0.525 0.0
N1529 N 0.22381 0.69443 0.52746 0.0
C1530 C 0.22859 0.66084 0.52063 0.0
C1531 C 0.25498 0.68933 0.53057 0.0
C1532 C 0.21664 0.6742 0.52194 0.0
C1533 C 0.24257 0.7022 0.53178 0.0
C1534 C 0.27666 0.61453 0.48508 0.0
C1535 C 0.26449 0.61931 0.47133 0.0
C1536 C 0.2829 0.59665 0.48064 0.0
C1537 C 0.25873 0.60602 0.45328 0.0
C1538 C 0.2767 0.5837 0.46248 0.0
N1539 N 0.26487 0.58863 0.44928 0.0
C1540 C 0.30303 0.67362 0.48351 0.0
C1541 C 0.27138 0.67693 0.48284 0.0
C1542 C 0.30663 0.68534 0.46917 0.0
N1543 N 0.28575 0.67003 0.49013 0.0
C1544 C 0.2743 0.68859 0.46844 0.0
C1545 C 0.29217 0.6931 0.46171 0.0
H1546 H 0.31405 0.66767 0.48966 0.0
H1547 H 0.25771 0.67335 0.48815 0.0
C1548 C 0.23214 0.61089 0.53445 0.0
N1549 N 0.24259 0.60757 0.51919 0.0
C1550 C 0.21612 0.59672 0.53599 0.0
C1551 C 0.22153 0.57598 0.50569 0.0
C1552 C 0.23769 0.59066 0.50481 0.0
C1553 C 0.21082 0.57884 0.52169 0.0
H1554 H 0.23648 0.62458 0.54552 0.0
H1555 H 0.24628 0.58835 0.49284 0.0
O1556 O 0.30333 0.6645 0.53116 0.0
O1557 O 0.27975 0.63148 0.5477 0.0
O1558 O 0.25971 0.65545 0.52407 0.0
O1559 O 0.28257 0.62726 0.5028 0.0
H1560 H 0.33927 0.66782 0.54179 0.0
H1561 H 0.29891 0.70014 0.52463 0.0
H1562 H 0.36427 0.69889 0.54431 0.0
H1563 H 0.32449 0.73078 0.52804 0.0
H1564 H 0.26287 0.56922 0.56332 0.0
H1565 H 0.2825 0.64308 0.58636 0.0
H1566 H 0.26951 0.59146 0.53872 0.0
H1567 H 0.27604 0.61993 0.61014 0.0
H1568 H 0.31121 0.71574 0.59776 0.0
H1569 H 0.25074 0.69956 0.59521 0.0
H1570 H 0.35445 0.63011 0.49949 0.0
H1571 H 0.33908 0.58783 0.53859 0.0
H1572 H 0.22288 0.64474 0.51627 0.0
H1573 H 0.2698 0.69552 0.53432 0.0
H1574 H 0.20165 0.66848 0.5186 0.0
H1575 H 0.24784 0.71835 0.53623 0.0
H1576 H 0.25944 0.63302 0.47461 0.0
H1577 H 0.2923 0.59277 0.49119 0.0
H1578 H 0.24933 0.60951 0.44247 0.0
H1579 H 0.28129 0.56972 0.45889 0.0
H1580 H 0.32053 0.68853 0.46418 0.0
H1581 H 0.26267 0.69386 0.46253 0.0
H1582 H 0.20779 0.59991 0.54814 0.0
H1583 H 0.21755 0.56258 0.49421 0.0
Li1584 Li 0.424 0.55168 0.77169 0.0
Li1585 Li 0.45317 0.57693 0.79519 0.0
Li1586 Li 0.42701 0.59386 0.77467 0.0
Li1587 Li 0.4518 0.57485 0.75429 0.0
C1588 C 0.41372 0.57356 0.81097 0.0
N1589 N 0.39239 0.57217 0.84265 0.0
C1590 C 0.41896 0.56503 0.82668 0.0
C1591 C 0.39763 0.58136 0.81132 0.0
C1592 C 0.40801 0.56451 0.84259 0.0
C1593 C 0.38701 0.58048 0.82747 0.0
C1594 C 0.46485 0.54173 0.77138 0.0
C1595 C 0.49629 0.53727 0.76757 0.0
N1596 N 0.4909 0.51814 0.77095 0.0
C1597 C 0.4596 0.52204 0.7748 0.0
C1598 C 0.48333 0.54945 0.76774 0.0
C1599 C 0.473 0.51035 0.77453 0.0
C1600 C 0.40449 0.50685 0.754 0.0
N1601 N 0.40741 0.52199 0.77042 0.0
C1602 C 0.39088 0.49726 0.78841 0.0
C1603 C 0.40048 0.51719 0.78738 0.0
C1604 C 0.38802 0.48107 0.77195 0.0
C1605 C 0.39486 0.48656 0.75441 0.0
H1606 H 0.41002 0.51026 0.74047 0.0
H1607 H 0.40265 0.52879 0.8005 0.0
C1608 C 0.46711 0.58661 0.84114 0.0
N1609 N 0.46907 0.57615 0.82276 0.0
C1610 C 0.47634 0.58366 0.85898 0.0
C1611 C 0.49029 0.55985 0.83937 0.0
C1612 C 0.48085 0.56314 0.82209 0.0
C1613 C 0.48804 0.56965 0.85868 0.0
H1614 H 0.45791 0.597 0.84229 0.0
H1615 H 0.48293 0.55475 0.80805 0.0
C1616 C 0.41105 0.56877 0.73441 0.0
N1617 N 0.38699 0.56697 0.70168 0.0
C1618 C 0.41749 0.57855 0.71919 0.0
C1619 C 0.39239 0.5581 0.73304 0.0
C1620 C 0.40511 0.57743 0.70273 0.0
C1621 C 0.38043 0.55739 0.71637 0.0
C1622 C 0.47096 0.61575 0.77745 0.0
C1623 C 0.46746 0.63311 0.77167 0.0
C1624 C 0.48931 0.615 0.78328 0.0
C1625 C 0.48245 0.64953 0.77184 0.0
C1626 C 0.50393 0.63173 0.78321 0.0
N1627 N 0.50022 0.6485 0.77756 0.0
C1628 C 0.41128 0.63368 0.79007 0.0
C1629 C 0.40215 0.61944 0.75685 0.0
C1630 C 0.40148 0.64958 0.78878 0.0
N1631 N 0.41175 0.61863 0.77418 0.0
C1632 C 0.39225 0.63493 0.75498 0.0
C1633 C 0.39161 0.65094 0.77091 0.0
H1634 H 0.41863 0.63366 0.80406 0.0
H1635 H 0.40202 0.60794 0.74401 0.0
C1636 C 0.4721 0.55611 0.72025 0.0
N1637 N 0.46678 0.57356 0.72786 0.0
C1638 C 0.4817 0.55406 0.70282 0.0
C1639 C 0.47992 0.58751 0.69981 0.0
C1640 C 0.47075 0.58917 0.71769 0.0
C1641 C 0.48583 0.56975 0.69187 0.0
H1642 H 0.46889 0.54341 0.72765 0.0
H1643 H 0.46674 0.60315 0.7233 0.0
O1644 O 0.42455 0.57485 0.79556 0.0
O1645 O 0.45205 0.55352 0.77179 0.0
O1646 O 0.42294 0.56969 0.75061 0.0
O1647 O 0.45643 0.59974 0.77787 0.0
H1648 H 0.4313 0.55878 0.82654 0.0
H1649 H 0.39344 0.58808 0.79927 0.0
H1650 H 0.41192 0.55799 0.85489 0.0
H1651 H 0.37451 0.58645 0.82795 0.0
H1652 H 0.51064 0.54304 0.7648 0.0
H1653 H 0.44537 0.5159 0.77773 0.0
H1654 H 0.4876 0.56473 0.76517 0.0
H1655 H 0.46916 0.49509 0.77719 0.0
H1656 H 0.38577 0.49467 0.80234 0.0
H1657 H 0.39337 0.47513 0.74117 0.0
H1658 H 0.4738 0.59198 0.87297 0.0
H1659 H 0.49942 0.54942 0.83729 0.0
H1660 H 0.43182 0.58704 0.72015 0.0
H1661 H 0.38722 0.55049 0.74476 0.0
H1662 H 0.4099 0.58493 0.69083 0.0
H1663 H 0.36594 0.54922 0.7151 0.0
H1664 H 0.45329 0.63392 0.76722 0.0
H1665 H 0.49221 0.60168 0.7879 0.0
H1666 H 0.47996 0.6631 0.76747 0.0
H1667 H 0.51821 0.6314 0.7877 0.0
H1668 H 0.40196 0.66096 0.80185 0.0
H1669 H 0.38488 0.63392 0.74076 0.0
H1670 H 0.4857 0.53994 0.69779 0.0
H1671 H 0.48276 0.60034 0.69252 0.0
Li1672 Li 0.68276 0.04309 0.7575 0.0
Li1673 Li 0.71024 0.06414 0.74725 0.0
Li1674 Li 0.68339 0.04542 0.72401 0.0
Li1675 Li 0.70491 0.02755 0.73831 0.0
C1676 C 0.67314 0.08101 0.74547 0.0
N1677 N 0.6502 0.10794 0.74519 0.0
C1678 C 0.6805 0.10171 0.75198 0.0
C1679 C 0.65414 0.07402 0.7387 0.0
C1680 C 0.66866 0.11508 0.75177 0.0
C1681 C 0.64277 0.08788 0.73868 0.0
C1682 C 0.72177 0.04864 0.78098 0.0
C1683 C 0.75321 0.05262 0.79578 0.0
N1684 N 0.74763 0.05913 0.81377 0.0
C1685 C 0.71629 0.0552 0.79964 0.0
C1686 C 0.74033 0.04721 0.77902 0.0
C1687 C 0.7296 0.06051 0.81602 0.0
C1688 C 0.66774 0.02409 0.78665 0.0
N1689 N 0.66816 0.04041 0.7781 0.0
C1690 C 0.65003 0.05426 0.80191 0.0
C1691 C 0.65947 0.05529 0.78516 0.0
C1692 C 0.64981 0.03786 0.81139 0.0
C1693 C 0.65837 0.02238 0.80343 0.0
H1694 H 0.6752 0.01278 0.78077 0.0
H1695 H 0.66038 0.06824 0.77824 0.0
C1696 C 0.73645 0.09618 0.73872 0.0
N1697 N 0.72913 0.08733 0.75351 0.0
C1698 C 0.75127 0.11308 0.74307 0.0
C1699 C 0.75031 0.11151 0.77776 0.0
C1700 C 0.73543 0.09485 0.77274 0.0
C1701 C 0.75822 0.12085 0.76283 0.0
H1702 H 0.73055 0.09033 0.72362 0.0
H1703 H 0.72863 0.08832 0.78424 0.0
C1704 C 0.66264 1.00596 0.73842 0.0
N1705 N 0.63265 0.97648 0.74452 0.0
C1706 C 0.66509 0.9867 0.7397 0.0
C1707 C 0.64491 0.01019 0.74009 0.0
C1708 C 0.64975 0.972 0.74278 0.0
C1709 C 0.62995 0.99513 0.74329 0.0
C1710 C 0.72353 0.0489 0.70822 0.0
C1711 C 0.71833 0.0465 0.68805 0.0
C1712 C 0.7425 0.05274 0.71507 0.0
C1713 C 0.73224 0.04812 0.67501 0.0
C1714 C 0.756 0.05436 0.70156 0.0
N1715 N 0.75064 0.05203 0.68198 0.0
C1716 C 0.66959 0.05994 0.69194 0.0
C1717 C 0.65858 0.02546 0.69397 0.0
C1718 C 0.65823 0.0571 0.67441 0.0
N1719 N 0.66928 0.04416 0.70125 0.0
C1720 C 0.64681 0.02206 0.67695 0.0
C1721 C 0.64654 0.03793 0.66691 0.0
H1722 H 0.67861 0.07455 0.69813 0.0
H1723 H 0.65905 0.01312 0.70141 0.0
C1724 C 0.71829 0.99772 0.75048 0.0
N1725 N 0.7172 1.00684 0.73477 0.0
C1726 C 0.72933 0.98374 0.75042 0.0
C1727 C 0.73768 0.98874 0.71788 0.0
C1728 C 0.72608 1.00231 0.71838 0.0
C1729 C 0.73944 0.97957 0.73415 0.0
H1730 H 0.71104 1.00184 0.76327 0.0
H1731 H 0.72464 0.00963 0.70601 0.0
O1732 O 0.68445 0.06775 0.74645 0.0
O1733 O 0.70906 0.04395 0.76471 0.0
O1734 O 0.67733 0.02023 0.73448 0.0
O1735 O 0.71006 0.04769 0.72116 0.0
H1736 H 0.69517 0.10736 0.75738 0.0
H1737 H 0.64821 0.05808 0.7336 0.0
H1738 H 0.67414 0.13113 0.75691 0.0
H1739 H 0.62803 0.08267 0.73354 0.0
H1740 H 0.76766 0.0517 0.79449 0.0
H1741 H 0.70203 0.05658 0.80141 0.0
H1742 H 0.74477 0.04216 0.76467 0.0
H1743 H 0.72562 0.06581 0.83051 0.0
H1744 H 0.64338 0.06637 0.80769 0.0
H1745 H 0.65851 0.00965 0.81057 0.0
H1746 H 0.75658 0.12056 0.73131 0.0
H1747 H 0.75505 0.11761 0.79318 0.0
H1748 H 0.67862 0.98304 0.73805 0.0
H1749 H 0.64273 0.02495 0.73895 0.0
H1750 H 0.65142 0.95699 0.7437 0.0
H1751 H 0.61618 0.99822 0.74469 0.0
H1752 H 0.7037 0.04341 0.68252 0.0
H1753 H 0.74672 0.0546 0.73066 0.0
H1754 H 0.72842 0.0463 0.65935 0.0
H1755 H 0.77074 0.05749 0.70664 0.0
H1756 H 0.65852 0.06965 0.66691 0.0
H1757 H 0.63772 1.00719 0.67204 0.0
H1758 H 0.73065 0.97694 0.76326 0.0
H1759 H 0.7454 0.9857 0.70518 0.0
Li1760 Li 0.80251 0.71185 0.02913 0.0
Li1761 Li 0.81531 0.68429 0.00829 0.0
Li1762 Li 0.80149 0.70837 0.99201 0.0
Li1763 Li 0.77963 0.68104 0.00577 0.0
C1764 C 0.83918 0.72919 0.01277 0.0
N1765 N 0.87084 0.75967 0.01414 0.0
C1766 C 0.85702 0.72547 0.01585 0.0
C1767 C 0.83744 0.74838 0.01028 0.0
C1768 C 0.87285 0.74108 0.01653 0.0
C1769 C 0.85362 0.7636 0.01105 0.0
C1770 C 0.79876 0.66919 0.04168 0.0
C1771 C 0.79248 0.63546 0.04849 0.0
N1772 N 0.80129 0.64286 0.06698 0.0
C1773 C 0.80772 0.67647 0.06076 0.0
C1774 C 0.79105 0.64854 0.03547 0.0
C1775 C 0.80888 0.66292 0.07331 0.0
C1776 C 0.79266 0.72196 0.06787 0.0
N1777 N 0.80526 0.72856 0.05539 0.0
C1778 C 0.82179 0.75529 0.08155 0.0
C1779 C 0.81962 0.74499 0.06182 0.0
C1780 C 0.80931 0.74846 0.0951 0.0
C1781 C 0.79454 0.73147 0.08774 0.0
H1782 H 0.78148 0.70873 0.06252 0.0
H1783 H 0.8296 0.74999 0.05176 0.0
C1784 C 0.84372 0.6642 0.99229 0.0
N1785 N 0.83596 0.67105 0.00888 0.0
C1786 C 0.86008 0.65684 0.99374 0.0
C1787 C 0.86018 0.66391 0.02921 0.0
C1788 C 0.84391 0.67102 0.02709 0.0
C1789 C 0.86868 0.65696 0.01245 0.0
H1790 H 0.83761 0.66505 0.97796 0.0
H1791 H 0.83807 0.67731 0.04006 0.0
C1792 C 0.77129 0.72556 0.00817 0.0
N1793 N 0.75226 0.75532 0.00435 0.0
C1794 C 0.75277 0.72034 0.99959 0.0
C1795 C 0.78009 0.74586 0.01501 0.0
C1796 C 0.7434 0.73563 0.99774 0.0
C1797 C 0.77024 0.7607 0.01288 0.0
C1798 C 0.79547 0.66493 0.9671 0.0
C1799 C 0.79128 0.67054 0.94919 0.0
C1800 C 0.79877 0.64574 0.96708 0.0
C1801 C 0.79075 0.65695 0.93152 0.0
C1802 C 0.79817 0.63259 0.94909 0.0
N1803 N 0.79422 0.63843 0.93183 0.0
C1804 C 0.82061 0.7246 0.96113 0.0
C1805 C 0.78942 0.72864 0.96257 0.0
C1806 C 0.82251 0.73363 0.94442 0.0
N1807 N 0.80426 0.72239 0.96992 0.0
C1808 C 0.79076 0.73785 0.94608 0.0
C1809 C 0.80747 0.74053 0.93676 0.0
H1810 H 0.83214 0.71919 0.96698 0.0
H1811 H 0.77636 0.72616 0.96921 0.0
C1812 C 0.74555 0.66634 0.02079 0.0
N1813 N 0.75463 0.66323 0.00428 0.0
C1814 C 0.7279 0.65419 0.02215 0.0
C1815 C 0.72862 0.63602 0.98917 0.0
C1816 C 0.74643 0.64855 0.98846 0.0
C1817 C 0.71921 0.63848 0.00638 0.0
H1818 H 0.75221 0.67816 0.03312 0.0
H1819 H 0.7538 0.64632 0.97539 0.0
O1820 O 0.82354 0.71402 0.01201 0.0
O1821 O 0.79733 0.68227 0.02926 0.0
O1822 O 0.78068 0.7108 0.00992 0.0
O1823 O 0.79691 0.67838 0.98448 0.0
H1824 H 0.85865 0.7107 0.01774 0.0
H1825 H 0.82375 0.75146 0.00767 0.0
H1826 H 0.88674 0.73842 0.01894 0.0
H1827 H 0.85249 0.77853 0.00915 0.0
H1828 H 0.78659 0.61943 0.0439 0.0
H1829 H 0.81398 0.69238 0.06572 0.0
H1830 H 0.78404 0.6427 0.02075 0.0
H1831 H 0.81585 0.66834 0.08808 0.0
H1832 H 0.83323 0.76843 0.08601 0.0
H1833 H 0.78471 0.72496 0.09725 0.0
H1834 H 0.86631 0.65184 0.98045 0.0
H1835 H 0.86623 0.66415 0.04392 0.0
H1836 H 0.74578 0.70465 0.99431 0.0
H1837 H 0.79433 0.75009 0.02191 0.0
H1838 H 0.72909 0.73184 0.99104 0.0
H1839 H 0.77688 0.77649 0.01803 0.0
H1840 H 0.7885 0.68524 0.9489 0.0
H1841 H 0.80203 0.64117 0.98083 0.0
H1842 H 0.78763 0.66115 0.91756 0.0
H1843 H 0.80089 0.61777 0.94883 0.0
H1844 H 0.83565 0.73542 0.93774 0.0
H1845 H 0.77865 0.74255 0.94049 0.0
H1846 H 0.72117 0.65697 0.03562 0.0
H1847 H 0.72259 0.62409 0.97668 0.0
Li1848 Li 0.89746 0.52461 0.79626 0.0
Li1849 Li 0.92572 0.54238 0.81887 0.0
Li1850 Li 0.90258 0.55911 0.80755 0.0
Li1851 Li 0.92352 0.54625 0.78476 0.0
C1852 C 0.8907 0.54332 0.84077 0.0
N1853 N 0.87311 0.55189 0.87466 0.0
C1854 C 0.89968 0.54391 0.85931 0.0
C1855 C 0.8725 0.54653 0.83953 0.0
C1856 C 0.89064 0.5484 0.87625 0.0
C1857 C 0.86394 0.55105 0.8568 0.0
C1858 C 0.93467 0.50821 0.7944 0.0
C1859 C 0.96486 0.50011 0.79051 0.0
N1860 N 0.9576 0.48115 0.79354 0.0
C1861 C 0.92752 0.48864 0.79746 0.0
C1862 C 0.95351 0.51403 0.79093 0.0
C1863 C 0.93934 0.47519 0.79699 0.0
C1864 C 0.88083 0.48587 0.77475 0.0
N1865 N 0.87954 0.50079 0.78991 0.0
C1866 C 0.8523 0.48075 0.79952 0.0
C1867 C 0.8654 0.49884 0.8018 0.0
C1868 C 0.85406 0.46463 0.785 0.0
C1869 C 0.868 0.46735 0.77196 0.0
H1870 H 0.89231 0.48808 0.76556 0.0
H1871 H 0.86477 0.51104 0.81357 0.0
C1872 C 0.94698 0.56166 0.85258 0.0
N1873 N 0.94283 0.54364 0.83982 0.0
C1874 C 0.96056 0.56518 0.86834 0.0
C1875 C 0.96556 0.53162 0.85709 0.0
C1876 C 0.95147 0.52855 0.84196 0.0
C1877 C 0.97025 0.55014 0.87053 0.0
H1878 H 0.93965 0.57326 0.85042 0.0
H1879 H 0.94771 0.51426 0.83186 0.0
C1880 C 0.88511 0.53531 0.76265 0.0
N1881 N 0.86275 0.51444 0.72866 0.0
C1882 C 0.8919 0.53549 0.74413 0.0
C1883 C 0.86644 0.52567 0.76366 0.0
C1884 C 0.88054 0.52457 0.72718 0.0
C1885 C 0.8555 0.51486 0.74639 0.0
C1886 C 0.94547 0.58199 0.80672 0.0
C1887 C 0.94314 0.59987 0.80115 0.0
C1888 C 0.96353 0.57905 0.81036 0.0
C1889 C 0.95898 0.61457 0.79931 0.0
C1890 C 0.97902 0.59414 0.80838 0.0
N1891 N 0.97644 0.61143 0.80294 0.0
C1892 C 0.89806 0.59751 0.82589 0.0
C1893 C 0.87256 0.57513 0.80501 0.0
C1894 C 0.88871 0.61321 0.82696 0.0
N1895 N 0.89006 0.57928 0.81437 0.0
C1896 C 0.86261 0.59008 0.80604 0.0
C1897 C 0.87119 0.6096 0.81615 0.0
H1898 H 0.91212 0.6002 0.833 0.0
H1899 H 0.86677 0.56046 0.79591 0.0
C1900 C 0.93288 0.52687 0.75249 0.0
N1901 N 0.93769 0.54593 0.76325 0.0
C1902 C 0.94231 0.52138 0.73645 0.0
C1903 C 0.96172 0.55538 0.74257 0.0
C1904 C 0.95164 0.56033 0.75861 0.0
C1905 C 0.95717 0.53554 0.73158 0.0
H1906 H 0.92159 0.51585 0.75648 0.0
H1907 H 0.95522 0.57538 0.76744 0.0
O1908 O 0.89906 0.53784 0.82401 0.0
O1909 O 0.92324 0.52154 0.79485 0.0
O1910 O 0.89633 0.54555 0.77948 0.0
O1911 O 0.93011 0.56768 0.80902 0.0
H1912 H 0.91326 0.54033 0.86065 0.0
H1913 H 0.86486 0.54514 0.82538 0.0
H1914 H 0.89747 0.54885 0.89064 0.0
H1915 H 0.8499 0.55364 0.85599 0.0
H1916 H 0.97945 0.50438 0.78783 0.0
H1917 H 0.91303 0.48394 0.80037 0.0
H1918 H 0.95934 0.52917 0.78869 0.0
H1919 H 0.93401 0.46003 0.79942 0.0
H1920 H 0.84181 0.47885 0.80992 0.0
H1921 H 0.86987 0.45488 0.7609 0.0
H1922 H 0.96341 0.57948 0.87862 0.0
H1923 H 0.97289 0.51972 0.85799 0.0
H1924 H 0.90565 0.54431 0.74273 0.0
H1925 H 0.86048 0.52629 0.77766 0.0
H1926 H 0.88581 0.52431 0.71283 0.0
H1927 H 0.84121 0.50686 0.74708 0.0
H1928 H 0.92923 0.60234 0.79828 0.0
H1929 H 0.96557 0.56526 0.81463 0.0
H1930 H 0.9574 0.62849 0.795 0.0
H1931 H 0.99308 0.5921 0.81116 0.0
H1932 H 0.89573 0.62828 0.83457 0.0
H1933 H 0.84917 0.58699 0.79739 0.0
H1934 H 0.93805 0.50611 0.728 0.0
H1935 H 0.97315 0.56667 0.73913 0.0
Li1936 Li 0.82641 0.43 0.5353 0.0
Li1937 Li 0.81187 0.45278 0.51859 0.0
Li1938 Li 0.82999 0.42963 0.50045 0.0
Li1939 Li 0.84495 0.45946 0.525 0.0
C1940 C 0.79319 0.40557 0.51101 0.0
N1941 N 0.76587 0.37045 0.50785 0.0
C1942 C 0.77465 0.40649 0.51396 0.0
C1943 C 0.79782 0.38681 0.50628 0.0
C1944 C 0.76104 0.38855 0.51234 0.0
C1945 C 0.78381 0.36922 0.5048 0.0
C1946 C 0.83471 0.47361 0.56018 0.0
C1947 C 0.84614 0.50897 0.57423 0.0
N1948 N 0.85249 0.50399 0.59113 0.0
C1949 C 0.84124 0.46883 0.57771 0.0
C1950 C 0.83702 0.49383 0.55844 0.0
C1951 C 0.85022 0.48441 0.59318 0.0
C1952 C 0.83982 0.41179 0.56365 0.0
N1953 N 0.82383 0.41364 0.55405 0.0
C1954 C 0.80492 0.39172 0.57188 0.0
C1955 C 0.80657 0.40416 0.55797 0.0
C1956 C 0.82119 0.38962 0.58202 0.0
C1957 C 0.83883 0.39969 0.57778 0.0
H1958 H 0.8533 0.41994 0.5605 0.0
H1959 H 0.79411 0.40651 0.55061 0.0
C1960 C 0.78202 0.46451 0.5006 0.0
N1961 N 0.79099 0.46298 0.51777 0.0
C1962 C 0.76495 0.47028 0.50088 0.0
C1963 C 0.76716 0.47279 0.53643 0.0
C1964 C 0.78417 0.46719 0.53548 0.0
C1965 C 0.75729 0.47401 0.51894 0.0
H1966 H 0.7879 0.46074 0.48678 0.0
H1967 H 0.79171 0.4656 0.54877 0.0
C1968 C 0.86218 0.42028 0.52038 0.0
N1969 N 0.88793 0.39623 0.51612 0.0
C1970 C 0.8809 0.42868 0.51813 0.0
C1971 C 0.85655 0.39961 0.52035 0.0
C1972 C 0.89371 0.41629 0.51603 0.0
C1973 C 0.86979 0.38772 0.51822 0.0
C1974 C 0.8367 0.4694 0.48597 0.0
C1975 C 0.84961 0.46342 0.47337 0.0
C1976 C 0.82991 0.48645 0.48404 0.0
C1977 C 0.85542 0.47458 0.4589 0.0
C1978 C 0.83616 0.49727 0.46946 0.0
N1979 N 0.84864 0.49113 0.45726 0.0
C1980 C 0.81501 0.40411 0.46434 0.0
C1981 C 0.84752 0.40766 0.47253 0.0
C1982 C 0.81551 0.39063 0.44688 0.0
N1983 N 0.83092 0.41229 0.47665 0.0
C1984 C 0.84856 0.39384 0.45574 0.0
C1985 C 0.83254 0.38541 0.44239 0.0
H1986 H 0.80199 0.40818 0.46803 0.0
H1987 H 0.86009 0.41482 0.4821 0.0
C1988 C 0.87844 0.47518 0.54659 0.0
N1989 N 0.86735 0.47905 0.53207 0.0
C1990 C 0.89762 0.48334 0.54855 0.0
C1991 C 0.89311 0.50135 0.52227 0.0
C1992 C 0.87393 0.49292 0.5209 0.0
C1993 C 0.90514 0.49523 0.53518 0.0
H1994 H 0.87277 0.46386 0.55501 0.0
H1995 H 0.86475 0.49591 0.50965 0.0
O1996 O 0.80668 0.42301 0.51279 0.0
O1997 O 0.82589 0.45856 0.54488 0.0
O1998 O 0.84946 0.43225 0.52229 0.0
O1999 O 0.83018 0.45824 0.49968 0.0
H2000 H 0.77085 0.42092 0.51759 0.0
H2001 H 0.81207 0.38586 0.50378 0.0
H2002 H 0.74666 0.38903 0.51467 0.0
H2003 H 0.78719 0.35458 0.50122 0.0
H2004 H 0.84816 0.52469 0.57306 0.0
H2005 H 0.8394 0.45327 0.57936 0.0
H2006 H 0.83197 0.49774 0.54495 0.0
H2007 H 0.85538 0.48093 0.60683 0.0
H2008 H 0.79113 0.38442 0.57517 0.0
H2009 H 0.85165 0.3984 0.58548 0.0
H2010 H 0.75756 0.47122 0.4872 0.0
H2011 H 0.76167 0.47595 0.55061 0.0
H2012 H 0.88541 0.44453 0.51762 0.0
H2013 H 0.84213 0.39283 0.52199 0.0
H2014 H 0.90822 0.42259 0.51422 0.0
H2015 H 0.86563 0.37171 0.5182 0.0
H2016 H 0.85505 0.45031 0.47473 0.0
H2017 H 0.81991 0.49125 0.4937 0.0
H2018 H 0.86532 0.47006 0.44896 0.0
H2019 H 0.83103 0.51051 0.46779 0.0
H2020 H 0.80285 0.38476 0.43691 0.0
H2021 H 0.86191 0.38999 0.45324 0.0
H2022 H 0.90666 0.47834 0.55861 0.0
H2023 H 0.89862 0.51047 0.51172 0.0
Li2024 Li 0.66075 0.5146 0.28978 0.0
Li2025 Li 0.68898 0.5374 0.27283 0.0
Li2026 Li 0.65983 0.51239 0.24914 0.0
Li2027 Li 0.68566 0.49497 0.26843 0.0
C2028 C 0.64746 0.54697 0.27325 0.0
N2029 N 0.62026 0.56923 0.27534 0.0
C2030 C 0.6524 0.56779 0.28044 0.0
C2031 C 0.62872 0.53746 0.26707 0.0
C2032 C 0.63843 0.57878 0.28141 0.0
C2033 C 0.61516 0.54898 0.26825 0.0
C2034 C 0.70159 0.52193 0.30985 0.0
C2035 C 0.73029 0.5189 0.32652 0.0
N2036 N 0.72514 0.52774 0.34392 0.0
C2037 C 0.69661 0.53106 0.32785 0.0
C2038 C 0.71857 0.51584 0.30912 0.0
C2039 C 0.7087 0.53385 0.34493 0.0
C2040 C 0.63997 0.49785 0.32359 0.0
N2041 N 0.64565 0.51513 0.31622 0.0
C2042 C 0.63268 0.533 0.34445 0.0
C2043 C 0.64198 0.53256 0.32664 0.0
C2044 C 0.62651 0.51535 0.35238 0.0
C2045 C 0.63058 0.49764 0.34122 0.0
H2046 H 0.64279 0.48391 0.31587 0.0
H2047 H 0.64635 0.54648 0.32126 0.0
C2048 C 0.71303 0.57395 0.25888 0.0
N2049 N 0.7056 0.5671 0.27491 0.0
C2050 C 0.72245 0.59458 0.25994 0.0
C2051 C 0.71669 0.60136 0.29391 0.0
C2052 C 0.70763 0.58066 0.29231 0.0
C2053 C 0.72423 0.60906 0.27759 0.0
H2054 H 0.71127 0.56357 0.24488 0.0
H2055 H 0.7017 0.57562 0.30507 0.0
C2056 C 0.64181 0.47292 0.26285 0.0
N2057 N 0.61268 0.43899 0.25612 0.0
C2058 C 0.64509 0.45401 0.2551 0.0
C2059 C 0.62375 0.4746 0.26724 0.0
C2060 C 0.63017 0.43703 0.25179 0.0
C2061 C 0.6092 0.45726 0.26369 0.0
C2062 C 0.69797 0.51223 0.23213 0.0
C2063 C 0.68865 0.5002 0.2145 0.0
C2064 C 0.71704 0.52128 0.23299 0.0
C2065 C 0.69858 0.49758 0.1979 0.0
C2066 C 0.72648 0.51826 0.21608 0.0
N2067 N 0.71713 0.50659 0.19902 0.0
C2068 C 0.64549 0.53163 0.21574 0.0
C2069 C 0.63287 0.49676 0.21008 0.0
C2070 C 0.63611 0.5332 0.19749 0.0
N2071 N 0.64408 0.51354 0.22195 0.0
C2072 C 0.6233 0.49768 0.19178 0.0
C2073 C 0.62483 0.51605 0.1846 0.0
H2074 H 0.65419 0.54516 0.22484 0.0
H2075 H 0.63134 0.48231 0.21461 0.0
C2076 C 0.70297 0.46286 0.28566 0.0
N2077 N 0.70072 0.46983 0.26845 0.0
C2078 C 0.71266 0.44709 0.28723 0.0
C2079 C 0.71788 0.44449 0.25334 0.0
C2080 C 0.70808 0.46047 0.25237 0.0
C2081 C 0.7208 0.43728 0.27108 0.0
H2082 H 0.69725 0.46957 0.29862 0.0
H2083 H 0.70657 0.46536 0.23845 0.0
O2084 O 0.6609 0.53593 0.27215 0.0
O2085 O 0.6896 0.51827 0.29314 0.0
O2086 O 0.65631 0.48963 0.26651 0.0
O2087 O 0.68844 0.5151 0.24846 0.0
H2088 H 0.66686 0.57536 0.28526 0.0
H2089 H 0.62471 0.52137 0.26132 0.0
H2090 H 0.64204 0.5949 0.28697 0.0
H2091 H 0.6006 0.54183 0.2635 0.0
H2092 H 0.74344 0.51419 0.3262 0.0
H2093 H 0.6835 0.53585 0.32864 0.0
H2094 H 0.72258 0.5087 0.29526 0.0
H2095 H 0.70499 0.54081 0.359 0.0
H2096 H 0.63011 0.54722 0.35179 0.0
H2097 H 0.62681 0.48342 0.34616 0.0
H2098 H 0.72764 0.59926 0.24673 0.0
H2099 H 0.7176 0.61138 0.30804 0.0
H2100 H 0.65904 0.45248 0.25174 0.0
H2101 H 0.62104 0.48911 0.27344 0.0
H2102 H 0.63249 0.42228 0.24583 0.0
H2103 H 0.59515 0.45831 0.26701 0.0
H2104 H 0.67391 0.49298 0.21365 0.0
H2105 H 0.72445 0.53054 0.24659 0.0
H2106 H 0.69154 0.48838 0.18412 0.0
H2107 H 0.74125 0.52519 0.21651 0.0
H2108 H 0.63817 0.54785 0.19333 0.0
H2109 H 0.61462 0.48377 0.18336 0.0
H2110 H 0.7135 0.44255 0.30138 0.0
H2111 H 0.72346 0.43811 0.24013 0.0
Tb2112 Tb 0.03506 0.03058 0.00821 0.0
C2113 C 0.09456 0.09532 0.0647 0.0
C2114 C 0.10475 0.12127 0.0457 0.0
C2115 C 0.10897 0.12975 0.08146 0.0
C2116 C 0.09617 0.10111 0.0467 0.0
C2117 C 0.10132 0.10948 0.08232 0.0
C2118 C 0.11066 0.13564 0.06316 0.0
C2119 C 0.09466 0.08218 0.10021 0.0
N2120 N 0.08775 0.07547 0.06487 0.0
C2121 C 0.08837 0.06868 0.08235 0.0
C2122 C 0.10099 0.10271 0.10022 0.0
Tb2123 Tb 0.07903 0.05411 0.03459 0.0
N2124 N 0.09101 0.08662 0.03019 0.0
C2125 C 0.09573 0.09118 0.01236 0.0
C2126 C 0.10812 0.12616 0.02725 0.0
C2127 C 0.10391 0.11092 0.01053 0.0
H2128 H 0.08376 0.05278 0.08252 0.0
H2129 H 0.10706 0.1143 0.9962 0.0
H2130 H 0.11721 0.15116 0.06266 0.0
H2131 H 0.09477 0.07669 0.11393 0.0
H2132 H 0.09295 0.07983 0.99924 0.0
H2133 H 0.00792 0.97958 0.05708 0.0
H2134 H 0.1147 0.14141 0.02584 0.0
H2135 H 0.02942 0.02385 0.95961 0.0
H2136 H 0.02336 0.01138 0.04921 0.0
H2137 H 0.01724 0.99607 0.93126 0.0
H2138 H 0.11419 0.14084 0.09483 0.0
H2139 H 0.99781 0.94917 0.03092 0.0
H2140 H 0.99388 0.93382 0.99498 0.0
H2141 H 0.10612 0.1131 0.11405 0.0
H2142 H 0.99641 0.93826 0.96063 0.0
N2143 N 0.02257 1.00032 0.01802 0.0
C2144 C 0.01907 0.99883 0.03711 0.0
C2145 C 1.00471 0.96335 0.02715 0.0
C2146 C 0.00752 0.96491 0.00763 0.0
C2147 C 0.01028 0.98047 0.04191 0.0
C2148 C 0.01652 0.9838 1.0035 0.0
H2149 H 1.00489 0.96143 0.93675 0.0
N2150 N 0.02519 1.00501 0.98108 0.0
C2151 C 0.01747 0.99303 0.94609 0.0
C2152 C 0.01796 0.98623 0.98431 0.0
C2153 C 0.02441 0.00871 0.96223 0.0
C2154 C 0.01059 0.97351 0.94924 0.0
C2155 C 0.01044 0.96996 0.96853 0.0
O2156 O 0.01524 0.03993 0.99106 0.0
O2157 O 0.05441 0.05972 0.01919 0.0
O2158 O 0.05925 0.06183 0.05685 0.0
O2159 O 0.03137 0.04176 0.04024 0.0
O2160 O 0.04233 0.05367 0.99055 0.0
O2161 O 0.01052 0.03521 0.02058 0.0
O2162 O 0.09634 0.03628 0.04396 0.0
O2163 O 0.06001 0.02545 0.02191 0.0
O2164 O 0.05565 0.0231 0.98649 0.0
O2165 O 0.08236 0.04646 1.00195 0.0
O2166 O 0.07037 0.02922 0.05044 0.0
O2167 O 0.10726 0.05874 0.02739 0.0
C2168 C 0.05302 0.06741 1.00372 0.0
C2169 C 0.98402 0.03183 0.99873 0.0
C2170 C 0.95289 0.03828 0.99694 0.0
C2171 C 0.97215 0.04503 1.00221 0.0
C2172 C 0.94541 0.01792 0.98834 0.0
C2173 C 0.97668 0.01153 0.98994 0.0
C2174 C 0.95735 1.00462 0.98478 0.0
C2175 C 0.04106 0.05349 0.05671 0.0
C2176 C 1.00386 0.0401 0.0048 0.0
C2177 C 1.00223 0.95093 0.97253 0.0
C2178 C 1.00078 0.94841 0.99207 0.0
C2179 C 0.06042 0.01608 0.03612 0.0
C2180 C 0.12886 0.04897 0.04862 0.0
C2181 C 0.14486 0.04552 0.03961 0.0
C2182 C 0.16172 0.04748 0.05119 0.0
C2183 C 0.16252 0.05299 0.07181 0.0
C2184 C 0.12982 0.05396 0.0693 0.0
C2185 C 0.14659 0.05616 0.0808 0.0
C2186 C 0.07324 0.03335 0.98594 0.0
C2187 C 0.11092 0.04482 0.03637 0.0
H2188 H 0.97795 0.0607 0.00916 0.0
H2189 H 0.93049 0.01247 0.9841 0.0
H2190 H 0.98576 1.00114 0.98715 0.0
H2191 H 0.95163 0.98897 0.97795 0.0
H2192 H 0.14413 0.04098 0.02369 0.0
H2193 H 0.17534 0.05427 0.081 0.0
H2194 H 0.11757 0.05549 0.07668 0.0
H2195 H 0.14713 0.05988 0.09673 0.0
Tb2196 Tb 0.31873 0.78521 0.2488 0.0
C2197 C 0.28595 0.84121 0.30942 0.0
C2198 C 0.31412 0.86182 0.32883 0.0
C2199 C 0.28585 0.87464 0.32802 0.0
C2200 C 0.30444 0.84356 0.31636 0.0
C2201 C 0.27636 0.85664 0.31544 0.0
C2202 C 0.30472 0.87726 0.33462 0.0
C2203 C 0.24827 0.83502 0.29727 0.0
N2204 N 0.27728 0.82376 0.29698 0.0
C2205 C 0.25831 0.82019 0.29176 0.0
C2206 C 0.25738 0.85343 0.309 0.0
Tb2207 Tb 0.29412 0.79886 0.29131 0.0
N2208 N 0.31311 0.8283 0.31039 0.0
C2209 C 0.33193 0.83112 0.316 0.0
C2210 C 0.33305 0.86421 0.33495 0.0
C2211 C 0.34202 0.84886 0.32832 0.0
H2212 H 0.25065 0.80572 0.28339 0.0
H2213 H 0.35687 0.85081 0.33236 0.0
H2214 H 0.31193 0.89128 0.34422 0.0
H2215 H 0.23342 0.83207 0.29273 0.0
H2216 H 0.33993 0.82061 0.31019 0.0
H2217 H 0.256 0.73042 0.21184 0.0
H2218 H 0.34095 0.878 0.34441 0.0
H2219 H 0.36265 0.7803 0.25466 0.0
H2220 H 0.27286 0.76014 0.23523 0.0
H2221 H 0.3818 0.75726 0.24006 0.0
H2222 H 0.2787 0.8866 0.33276 0.0
H2223 H 0.27322 0.70748 0.19307 0.0
H2224 H 0.30392 0.69842 0.18651 0.0
H2225 H 0.24953 0.86485 0.3134 0.0
H2226 H 0.33812 0.70547 0.19444 0.0
N2227 N 0.30032 0.75566 0.22965 0.0
C2228 C 0.28106 0.75103 0.22699 0.0
C2229 C 0.28093 0.72088 0.20324 0.0
C2230 C 0.30047 0.72509 0.20644 0.0
C2231 C 0.27118 0.73379 0.21378 0.0
C2232 C 0.30983 0.74273 0.21991 0.0
H2233 H 0.36717 0.72707 0.21474 0.0
N2234 N 0.33703 0.76284 0.23861 0.0
C2235 C 0.36689 0.75394 0.23567 0.0
C2236 C 0.32891 0.74651 0.22452 0.0
C2237 C 0.35589 0.76682 0.24411 0.0
C2238 C 0.35862 0.73701 0.22129 0.0
C2239 C 0.33939 0.73304 0.21561 0.0
O2240 O 0.34282 0.80273 0.24056 0.0
O2241 O 0.30935 0.80793 0.26821 0.0
O2242 O 0.27738 0.8033 0.26522 0.0
O2243 O 0.29229 0.79255 0.23743 0.0
O2244 O 0.33728 0.81376 0.26364 0.0
O2245 O 0.31675 0.79383 0.22115 0.0
O2246 O 0.26865 0.78487 0.30017 0.0
O2247 O 0.30342 0.77594 0.27215 0.0
O2248 O 0.33485 0.77819 0.27386 0.0
O2249 O 0.32032 0.78962 0.30195 0.0
O2250 O 0.27699 0.76855 0.28004 0.0
O2251 O 0.29433 0.79491 0.3209 0.0
C2252 C 0.32415 0.82119 0.27136 0.0
C2253 C 0.34536 0.8047 0.20719 0.0
C2254 C 0.35307 0.82266 0.18078 0.0
C2255 C 0.34097 0.81693 0.19461 0.0
C2256 C 0.36928 0.81507 0.17859 0.0
C2257 C 0.36177 0.79734 0.20546 0.0
C2258 C 0.37356 0.80232 0.19093 0.0
C2259 C 0.27813 0.79916 0.24575 0.0
C2260 C 0.33429 0.80375 0.22394 0.0
C2261 C 0.3303 0.71592 0.20156 0.0
C2262 C 0.31085 0.71193 0.19702 0.0
C2263 C 0.28967 0.76143 0.27101 0.0
C2264 C 0.26512 0.78015 0.33332 0.0
C2265 C 0.27326 0.77142 0.34709 0.0
C2266 C 0.2625 0.76277 0.36071 0.0
C2267 C 0.24357 0.76379 0.36114 0.0
C2268 C 0.24616 0.78098 0.33345 0.0
C2269 C 0.23546 0.77299 0.34753 0.0
C2270 C 0.33434 0.7825 0.29342 0.0
C2271 C 0.27627 0.7869 0.31804 0.0
H2272 H 0.32846 0.8229 0.19626 0.0
H2273 H 0.37875 0.81942 0.16779 0.0
H2274 H 0.36579 0.7884 0.21556 0.0
H2275 H 0.38628 0.79682 0.18965 0.0
H2276 H 0.28793 0.77084 0.34684 0.0
H2277 H 0.23502 0.75714 0.37164 0.0
H2278 H 0.23966 0.78769 0.32268 0.0
H2279 H 0.22084 0.7736 0.34769 0.0
Tb2280 Tb 0.57991 0.04298 0.51435 0.0
C2281 C 0.51192 0.01052 0.54929 0.0
C2282 C 0.49647 0.98159 0.52429 0.0
C2283 C 0.49441 0.98005 0.5589 0.0
C2284 C 0.50767 1.00147 0.52964 0.0
C2285 C 0.50475 1.00012 0.56413 0.0
C2286 C 0.49031 0.97078 0.53901 0.0
C2287 C 0.51622 0.03087 0.58802 0.0
N2288 N 0.52187 0.02996 0.5538 0.0
C2289 C 0.52286 0.04057 0.57282 0.0
C2290 C 0.50747 0.01042 0.58372 0.0
Tb2291 Tb 0.53331 0.0439 0.52737 0.0
N2292 N 0.51391 0.01233 0.51577 0.0
C2293 C 0.50765 1.0047 0.49628 0.0
C2294 C 0.49146 0.97328 0.5043 0.0
C2295 C 0.49679 0.98504 0.49027 0.0
H2296 H 0.52919 0.05658 0.57646 0.0
H2297 H 0.49238 0.97905 0.47478 0.0
H2298 H 0.48191 0.95545 0.53515 0.0
H2299 H 0.5177 0.03925 0.60301 0.0
H2300 H 0.51075 0.01345 0.48502 0.0
H2301 H 0.61879 0.10216 0.57269 0.0
H2302 H 0.48297 0.95806 0.49961 0.0
H2303 H 0.58569 0.03354 0.46615 0.0
H2304 H 0.59823 0.06872 0.55859 0.0
H2305 H 0.59998 0.05289 0.44164 0.0
H2306 H 0.48901 0.97177 0.57011 0.0
H2307 H 0.63099 0.12562 0.55066 0.0
H2308 H 0.63411 0.13184 0.51601 0.0
H2309 H 0.50216 1.00297 0.5955 0.0
H2310 H 0.6289 0.1184 0.48021 0.0
N2311 N 0.59898 0.0732 0.52897 0.0
C2312 C 0.60368 0.07874 0.54886 0.0
C2313 C 0.62216 0.11089 0.54441 0.0
C2314 C 0.61801 0.10466 0.52395 0.0
C2315 C 0.61534 0.09766 0.55688 0.0
C2316 C 0.60652 0.08532 0.5166 0.0
H2317 H 0.61652 0.08878 0.45233 0.0
N2318 N 0.59348 0.05856 0.49022 0.0
C2319 C 0.60098 0.06011 0.457 0.0
C2320 C 0.60367 0.07775 0.49652 0.0
C2321 C 0.59299 0.0492 0.47088 0.0
C2322 C 0.61027 0.08038 0.4631 0.0
C2323 C 0.61209 0.08932 0.48313 0.0
O2324 O 0.59145 0.01874 0.50229 0.0
O2325 O 0.55281 0.02474 0.51858 0.0
O2326 O 0.55193 0.04833 0.5542 0.0
O2327 O 0.57591 0.03387 0.54253 0.0
O2328 O 0.56476 0.01626 0.49326 0.0
O2329 O 0.60554 0.03981 0.52796 0.0
O2330 O 0.52178 0.06654 0.54309 0.0
O2331 O 0.56239 0.06165 0.52981 0.0
O2332 O 0.56606 0.05442 0.49196 0.0
O2333 O 0.53481 0.04089 0.49564 0.0
O2334 O 0.54129 0.07369 0.51991 0.0
O2335 O 0.50746 0.04804 0.51572 0.0
C2336 C 0.55122 0.01054 0.50369 0.0
C2337 C 0.62398 0.02114 0.50779 0.0
C2338 C 0.65097 1.00553 0.50879 0.0
C2339 C 0.63528 0.01086 0.51743 0.0
C2340 C 0.65537 0.01084 0.49062 0.0
C2341 C 0.62897 0.02664 0.48986 0.0
C2342 C 0.64454 0.0215 0.48135 0.0
C2343 C 0.56536 0.03882 0.55651 0.0
C2344 C 0.60592 0.02361 0.51529 0.0
C2345 C 0.62254 0.10913 0.49027 0.0
C2346 C 0.62551 0.11679 0.51066 0.0
C2347 C 0.55894 0.07757 0.52487 0.0
C2348 C 0.48914 0.06483 0.53768 0.0
C2349 C 0.47833 0.07627 0.52907 0.0
C2350 C 0.46208 0.08055 0.53738 0.0
C2351 C 0.45707 0.07318 0.5546 0.0
C2352 C 0.48329 0.05705 0.55428 0.0
C2353 C 0.46743 0.06133 0.56274 0.0
C2354 C 0.54826 0.04887 0.48552 0.0
C2355 C 0.50727 0.06296 0.53014 0.0
H2356 H 0.63152 1.0064 0.53123 0.0
H2357 H 0.66739 1.00699 0.48373 0.0
H2358 H 0.62063 0.03444 0.48214 0.0
H2359 H 0.6481 0.02561 0.46739 0.0
H2360 H 0.48274 0.08187 0.51599 0.0
H2361 H 0.44526 0.07674 0.56207 0.0
H2362 H 0.49108 0.04799 0.56096 0.0
H2363 H 0.46329 0.05568 0.57588 0.0
Tb2364 Tb 0.28363 0.30048 0.77096 0.0
C2365 C 0.34714 0.26559 0.80262 0.0
C2366 C 0.35916 0.28986 0.83261 0.0
C2367 C 0.36208 0.25517 0.83008 0.0
C2368 C 0.34993 0.28483 0.81332 0.0
C2369 C 0.3537 0.25061 0.81057 0.0
C2370 C 0.36475 0.27479 0.84112 0.0
C2371 C 0.34518 0.22861 0.77868 0.0
N2372 N 0.33928 0.262 0.7838 0.0
C2373 C 0.33904 0.24406 0.77148 0.0
C2374 C 0.35229 0.23179 0.79842 0.0
Tb2375 Tb 0.32902 0.28785 0.77302 0.0
N2376 N 0.34464 0.29893 0.80432 0.0
C2377 C 0.34982 0.31883 0.81342 0.0
C2378 C 0.36307 0.30998 0.84245 0.0
C2379 C 0.35864 0.32459 0.83265 0.0
H2380 H 0.33349 0.24143 0.75621 0.0
H2381 H 0.36207 0.34033 0.83985 0.0
H2382 H 0.3717 0.27831 0.85597 0.0
H2383 H 0.34445 0.21427 0.769 0.0
H2384 H 0.34687 0.33046 0.80631 0.0
H2385 H 0.25121 0.24089 0.70847 0.0
H2386 H 0.37004 0.31447 0.85729 0.0
H2387 H 0.27827 0.34739 0.78177 0.0
H2388 H 0.26571 0.25428 0.74189 0.0
H2389 H 0.26775 0.37205 0.76446 0.0
H2390 H 0.36704 0.24383 0.83655 0.0
H2391 H 0.24442 0.2639 0.68685 0.0
H2392 H 0.24348 0.29918 0.68313 0.0
H2393 H 0.35718 0.21987 0.80394 0.0
H2394 H 0.24781 0.33505 0.69845 0.0
N2395 N 0.26804 0.28543 0.74013 0.0
C2396 C 0.26293 0.26494 0.7332 0.0
C2397 C 0.25087 0.27006 0.70176 0.0
C2398 C 0.25483 0.29081 0.70925 0.0
C2399 C 0.2546 0.25705 0.71394 0.0
C2400 C 0.2634 0.29805 0.72873 0.0
H2401 H 0.2564 0.36227 0.72897 0.0
N2402 N 0.27333 0.32401 0.75622 0.0
C2403 C 0.26734 0.35696 0.75654 0.0
C2404 C 0.26608 0.31811 0.73714 0.0
C2405 C 0.27317 0.34292 0.76631 0.0
C2406 C 0.26101 0.35142 0.73649 0.0
C2407 C 0.25997 0.33166 0.72662 0.0
O2408 O 0.26773 0.31283 0.79277 0.0
O2409 O 0.30619 0.29522 0.78962 0.0
O2410 O 0.30925 0.25965 0.77825 0.0
O2411 O 0.28039 0.26793 0.77277 0.0
O2412 O 0.29602 0.32052 0.79845 0.0
O2413 O 0.25822 0.28256 0.77709 0.0
O2414 O 0.34448 0.27857 0.74932 0.0
O2415 O 0.30651 0.29338 0.75465 0.0
O2416 O 0.30356 0.328 0.76507 0.0
O2417 O 0.33236 0.32145 0.77466 0.0
O2418 O 0.31659 0.26824 0.74521 0.0
O2419 O 0.35487 0.30664 0.76899 0.0
C2420 C 0.30709 0.3099 0.80386 0.0
C2421 C 0.23471 0.29864 0.79053 0.0
C2422 C 0.20509 0.29739 0.8065 0.0
C2423 C 0.22438 0.29666 0.80727 0.0
C2424 C 0.19659 0.30046 0.78893 0.0
C2425 C 0.22568 0.30191 0.77341 0.0
C2426 C 0.20682 0.30285 0.77267 0.0
C2427 C 0.29044 0.25457 0.77594 0.0
C2428 C 0.25456 0.29649 0.79062 0.0
C2429 C 0.25236 0.32483 0.70688 0.0
C2430 C 0.24987 0.30442 0.69817 0.0
C2431 C 0.30536 0.27886 0.74028 0.0
C2432 C 0.3777 0.29118 0.75294 0.0
C2433 C 0.38783 0.29334 0.73607 0.0
C2434 C 0.4067 0.2911 0.73604 0.0
C2435 C 0.41498 0.28641 0.75289 0.0
C2436 C 0.38652 0.2863 0.76933 0.0
C2437 C 0.40496 0.28391 0.76926 0.0
C2438 C 0.32212 0.33405 0.76961 0.0
C2439 C 0.3582 0.29442 0.75368 0.0
H2440 H 0.2312 0.29427 0.82067 0.0
H2441 H 0.182 0.30136 0.7879 0.0
H2442 H 0.2332 0.30355 0.7605 0.0
H2443 H 0.20003 0.30539 0.75935 0.0
H2444 H 0.38115 0.29688 0.72318 0.0
H2445 H 0.42922 0.28432 0.75324 0.0
H2446 H 0.37917 0.28445 0.78229 0.0
H2447 H 0.41156 0.28011 0.78202 0.0
Tb2448 Tb 0.0507 0.06627 0.53227 0.0
C2449 C 0.07947 1.00696 0.47158 0.0
C2450 C 0.05401 0.99348 0.44586 0.0
C2451 C 0.08596 0.99338 0.43837 0.0
C2452 C 0.06071 1.00304 0.46552 0.0
C2453 C 0.09234 1.00173 0.45823 0.0
C2454 C 0.06679 0.98929 0.43218 0.0
C2455 C 0.11637 0.01112 0.48554 0.0
N2456 N 0.08487 0.01433 0.49099 0.0
C2457 C 0.10304 0.01586 0.4982 0.0
C2458 C 0.11105 1.00422 0.46542 0.0
Tb2459 Tb 0.06217 0.02193 0.51099 0.0
N2460 N 0.04886 1.00658 0.47943 0.0
C2461 C 0.03002 0.99868 0.47488 0.0
C2462 C 0.03466 0.98725 0.44086 0.0
C2463 C 0.02263 0.98938 0.45558 0.0
H2464 H 0.10748 0.02106 0.51372 0.0
H2465 H 0.00764 0.9837 0.45217 0.0
H2466 H 0.06192 0.98209 0.41701 0.0
H2467 H 0.13073 0.01269 0.49136 0.0
H2468 H 0.02035 0.9992 0.4859 0.0
H2469 H 0.10679 0.09419 0.59203 0.0
H2470 H 0.02893 0.97982 0.42597 0.0
H2471 H 0.00611 0.06884 0.53043 0.0
H2472 H 0.09365 0.07964 0.55834 0.0
H2473 H 0.98399 0.07971 0.55333 0.0
H2474 H 0.09563 0.98937 0.42788 0.0
H2475 H 0.08627 0.10335 0.61763 0.0
H2476 H 0.0541 0.1059 0.62652 0.0
H2477 H 0.12134 1.0003 0.45568 0.0
H2478 H 0.0207 0.10208 0.61603 0.0
N2479 N 0.06506 0.07924 0.56394 0.0
C2480 C 0.08407 0.08317 0.56894 0.0
C2481 C 0.0802 0.09665 0.60269 0.0
C2482 C 0.06095 0.09343 0.59753 0.0
C2483 C 0.09181 0.09157 0.58829 0.0
C2484 C 0.05374 0.08467 0.57781 0.0
H2485 H 0.99452 0.09261 0.58874 0.0
N2486 N 0.02889 0.0748 0.55272 0.0
C2487 C 0.99827 0.08041 0.55881 0.0
C2488 C 0.03502 0.08245 0.57197 0.0
C2489 C 0.01087 0.07423 0.54587 0.0
C2490 C 1.00426 0.08767 0.57878 0.0
C2491 C 0.02288 0.08897 0.58558 0.0
O2492 O 0.04051 0.08568 0.51658 0.0
O2493 O 0.05195 0.04727 0.50337 0.0
O2494 O 0.08368 0.04572 0.50167 0.0
O2495 O 0.08006 0.0715 0.52616 0.0
O2496 O 0.02822 0.0574 0.50757 0.0
O2497 O 0.06666 0.0963 0.5348 0.0
O2498 O 0.07433 1.00173 0.5239 0.0
O2499 O 0.0608 0.04034 0.54029 0.0
O2500 O 0.02919 0.04349 0.54185 0.0
O2501 O 0.03202 0.01777 0.5167 0.0
O2502 O 0.08526 0.03348 0.53406 0.0
O2503 O 0.04497 0.99418 0.51412 0.0
C2504 C 0.03621 0.04761 0.49424 0.0
C2505 C 0.05138 0.12086 0.52493 0.0
C2506 C 0.05689 0.15337 0.51453 0.0
C2507 C 0.06171 0.13484 0.51481 0.0
C2508 C 0.04171 0.15793 0.5245 0.0
C2509 C 0.0363 0.12562 0.53496 0.0
C2510 C 0.03151 0.14411 0.53471 0.0
C2511 C 0.08978 0.06423 0.51226 0.0
C2512 C 0.05496 0.10053 0.52223 0.0
C2513 C 0.02982 0.09708 0.60534 0.0
C2514 C 0.04883 0.09926 0.61132 0.0
C2515 C 0.07705 0.04045 0.54875 0.0
C2516 C 0.05927 0.96722 0.51742 0.0
C2517 C 0.05182 0.95446 0.53011 0.0
C2518 C 0.05256 0.93399 0.52645 0.0
C2519 C 0.06112 0.92656 0.50985 0.0
C2520 C 0.06768 0.95965 0.50091 0.0
C2521 C 0.06862 0.93934 0.4972 0.0
C2522 C 0.02256 0.02535 0.53096 0.0
C2523 C 0.05863 0.9885 0.52257 0.0
H2524 H 0.07326 0.13115 0.50684 0.0
H2525 H 0.03783 0.1722 0.52443 0.0
H2526 H 0.02799 0.11491 0.54254 0.0
H2527 H 0.01974 0.14767 0.54228 0.0
H2528 H 0.04575 0.96066 0.54309 0.0
H2529 H 0.06181 0.91083 0.50648 0.0
H2530 H 0.0736 0.9694 0.49107 0.0
H2531 H 0.07515 0.93347 0.48447 0.0
Tb2532 Tb 0.32663 0.80957 0.76973 0.0
C2533 C 0.27416 0.75031 0.80268 0.0
C2534 C 0.28115 0.71778 0.79081 0.0
C2535 C 0.26849 0.72424 0.82251 0.0
C2536 C 0.28081 0.73757 0.78841 0.0
C2537 C 0.26763 0.74372 0.81973 0.0
C2538 C 0.27527 0.71132 0.8081 0.0
C2539 C 0.25883 0.77564 0.82931 0.0
N2540 N 0.27388 0.76918 0.79961 0.0
C2541 C 0.26545 0.7815 0.81211 0.0
C2542 C 0.26014 0.75678 0.83326 0.0
Tb2543 Tb 0.28486 0.77699 0.77083 0.0
N2544 N 0.28606 0.74425 0.77177 0.0
C2545 C 0.29072 0.73137 0.75641 0.0
C2546 C 0.28693 0.70494 0.77556 0.0
C2547 C 0.29149 0.71169 0.75818 0.0
H2548 H 0.26454 0.79612 0.80906 0.0
H2549 H 0.29559 0.70176 0.7461 0.0
H2550 H 0.27555 0.69622 0.81027 0.0
H2551 H 0.25273 0.78566 0.83951 0.0
H2552 H 0.2941 0.73617 0.74279 0.0
H2553 H 0.32146 0.88509 0.80316 0.0
H2554 H 0.28746 0.68966 0.77685 0.0
H2555 H 0.34507 0.79351 0.72837 0.0
H2556 H 0.32259 0.84995 0.80305 0.0
H2557 H 0.35407 0.80639 0.69818 0.0
H2558 H 0.26367 0.71891 0.8356 0.0
H2559 H 0.32529 0.89892 0.77262 0.0
H2560 H 0.33251 0.89404 0.73728 0.0
H2561 H 0.25498 0.75228 0.84657 0.0
H2562 H 0.34155 0.87269 0.70871 0.0
N2563 N 0.32599 0.84297 0.77226 0.0
C2564 C 0.32391 0.85535 0.78939 0.0
C2565 C 0.32558 0.88325 0.77236 0.0
C2566 C 0.32894 0.87095 0.7552 0.0
C2567 C 0.32345 0.87553 0.78962 0.0
C2568 C 0.32921 0.85066 0.75565 0.0
H2569 H 0.34993 0.84012 0.69413 0.0
N2570 N 0.33523 0.81944 0.74082 0.0
C2571 C 0.34836 0.81552 0.70962 0.0
C2572 C 0.3342 0.83861 0.73948 0.0
C2573 C 0.34335 0.80832 0.72673 0.0
C2574 C 0.34595 0.83455 0.70736 0.0
C2575 C 0.33919 0.84654 0.72256 0.0
O2576 O 0.35313 0.80344 0.76655 0.0
O2577 O 0.31372 0.77651 0.76403 0.0
O2578 O 0.29962 0.78377 0.80056 0.0
O2579 O 0.31793 0.81483 0.79918 0.0
O2580 O 0.33708 0.78609 0.78249 0.0
O2581 O 0.34966 0.82962 0.78738 0.0
O2582 O 0.25782 0.78215 0.76901 0.0
O2583 O 0.29796 0.81013 0.77701 0.0
O2584 O 0.31072 0.8026 0.74045 0.0
O2585 O 0.29506 0.77088 0.74231 0.0
O2586 O 0.27416 0.801 0.75926 0.0
O2587 O 0.26372 0.75509 0.75208 0.0
C2588 C 0.32549 0.76977 0.77413 0.0
C2589 C 0.37981 0.82981 0.77618 0.0
C2590 C 0.41338 0.83482 0.78362 0.0
C2591 C 0.395 0.82685 0.78731 0.0
C2592 C 0.4165 0.84581 0.76836 0.0
C2593 C 0.38287 0.84104 0.76115 0.0
C2594 C 0.40124 0.849 0.75727 0.0
C2595 C 0.31097 0.80087 0.80914 0.0
C2596 C 0.36131 0.81916 0.77986 0.0
C2597 C 0.33798 0.86639 0.72167 0.0
C2598 C 0.33282 0.87856 0.73795 0.0
C2599 C 0.286 0.81716 0.7675 0.0
C2600 C 0.23252 0.75448 0.76061 0.0
C2601 C 0.21703 0.76166 0.75484 0.0
C2602 C 0.1992 0.75339 0.75978 0.0
C2603 C 0.19675 0.73764 0.7704 0.0
C2604 C 0.23007 0.7386 0.77109 0.0
C2605 C 0.21217 0.73021 0.77593 0.0
C2606 C 0.30069 0.78477 0.73188 0.0
C2607 C 0.25098 0.76525 0.75673 0.0
H2608 H 0.39248 0.81775 0.79863 0.0
H2609 H 0.43065 0.85208 0.76523 0.0
H2610 H 0.37126 0.84342 0.75233 0.0
H2611 H 0.40365 0.85756 0.74558 0.0
H2612 H 0.2189 0.77404 0.74684 0.0
H2613 H 0.18297 0.73108 0.77428 0.0
H2614 H 0.24187 0.73285 0.77564 0.0
H2615 H 0.21027 0.71802 0.7841 0.0
Tb2616 Tb 0.55733 0.03515 0.04237 0.0
C2617 C 0.51026 0.04686 0.97157 0.0
C2618 C 0.49354 0.01261 0.95776 0.0
C2619 C 0.48021 0.04054 0.95191 0.0
C2620 C 0.50934 0.02637 0.96881 0.0
C2621 C 0.49567 0.05416 0.96313 0.0
C2622 C 0.47914 0.01981 0.94924 0.0
C2623 C 0.51274 0.08804 0.9769 0.0
N2624 N 0.52527 0.05968 0.98272 0.0
C2625 C 0.52686 0.08021 0.98482 0.0
C2626 C 0.49702 0.07496 0.96607 0.0
Tb2627 Tb 0.54885 0.0453 0.99349 0.0
N2628 N 0.52355 0.01986 0.97732 0.0
C2629 C 0.52191 0.99941 0.97586 0.0
C2630 C 0.49244 0.99196 0.95576 0.0
C2631 C 0.50658 0.98536 0.96504 0.0
H2632 H 0.53909 0.09098 0.99255 0.0
H2633 H 0.50559 0.96935 0.96407 0.0
H2634 H 0.46702 0.00944 0.94066 0.0
H2635 H 0.51416 0.10422 0.97898 0.0
H2636 H 0.53177 0.99324 0.98346 0.0
H2637 H 0.60285 0.1083 0.07276 0.0
H2638 H 0.48054 0.98098 0.94745 0.0
H2639 H 0.56095 0.98925 0.04606 0.0
H2640 H 0.57607 0.08509 0.0524 0.0
H2641 H 0.5838 0.97264 0.06015 0.0
H2642 H 0.46897 0.04589 0.94529 0.0
H2643 H 0.62613 0.09504 0.0906 0.0
H2644 H 0.63669 0.06503 0.0991 0.0
H2645 H 0.48612 0.08108 0.95983 0.0
H2646 H 0.63207 0.02809 0.09479 0.0
N2647 N 0.58367 0.05832 0.0581 0.0
C2648 C 0.58584 0.07878 0.06 0.0
C2649 C 0.61436 0.08464 0.08149 0.0
C2650 C 0.61215 0.06376 0.07956 0.0
C2651 C 0.60123 0.09216 0.0715 0.0
C2652 C 0.59663 0.05089 0.06739 0.0
H2653 H 0.61305 0.99349 0.07928 0.0
N2654 N 0.57878 0.01864 0.05336 0.0
C2655 C 0.58713 0.98886 0.06125 0.0
C2656 C 0.59422 0.03029 0.06471 0.0
C2657 C 0.57449 0.99822 0.05269 0.0
C2658 C 0.60355 1.00068 0.07211 0.0
C2659 C 0.60697 0.02171 0.0745 0.0
O2660 O 0.54037 0.01592 0.05783 0.0
O2661 O 0.53754 0.03557 0.01867 0.0
O2662 O 0.54326 0.06961 0.01509 0.0
O2663 O 0.54572 0.06205 0.04666 0.0
O2664 O 0.53344 0.01021 0.03002 0.0
O2665 O 0.55053 0.04772 0.07021 0.0
O2666 O 0.5637 0.07284 0.98745 0.0
O2667 O 0.56729 0.05215 0.02046 0.0
O2668 O 0.56774 0.01352 0.0214 0.0
O2669 O 0.55886 0.0172 0.98903 0.0
O2670 O 0.57852 0.04585 0.99393 0.0
O2671 O 0.55425 0.04557 0.96405 0.0
C2672 C 0.52564 0.01968 0.0187 0.0
C2673 C 0.54369 0.02543 0.09232 0.0
C2674 C 0.53185 0.02531 0.1241 0.0
C2675 C 0.53125 0.03057 0.1056 0.0
C2676 C 0.54486 0.01446 0.12936 0.0
C2677 C 0.55712 0.01508 0.09765 0.0
C2678 C 0.55761 0.00949 0.11611 0.0
C2679 C 0.54213 0.07356 0.03424 0.0
C2680 C 0.5411 0.03032 0.07289 0.0
C2681 C 0.62224 0.03438 0.08699 0.0
C2682 C 0.62482 0.0554 0.08951 0.0
C2683 C 0.58225 0.05108 0.01275 0.0
C2684 C 0.57065 0.07612 0.95438 0.0
C2685 C 0.58023 0.06675 0.94017 0.0
C2686 C 0.58785 0.07676 0.92561 0.0
C2687 C 0.58615 0.09669 0.92568 0.0
C2688 C 0.56906 0.09604 0.95466 0.0
C2689 C 0.57682 0.10629 0.94025 0.0
C2690 C 0.56588 0.00775 1.00189 0.0
C2691 C 0.5626 0.06477 0.96882 0.0
H2692 H 0.52075 0.03841 0.10138 0.0
H2693 H 0.5453 0.01017 0.14368 0.0
H2694 H 0.56707 0.01118 0.08778 0.0
H2695 H 0.56783 1.00131 0.12012 0.0
H2696 H 0.58193 0.0516 0.94064 0.0
H2697 H 0.59176 0.10469 0.91438 0.0
H2698 H 0.56169 0.1035 0.96579 0.0
H2699 H 0.57546 0.12159 0.94026 0.0
Tb2700 Tb 0.31723 0.31767 0.2852 0.0
C2701 C 0.25267 0.24823 0.24 0.0
C2702 C 0.2327 0.24064 0.26567 0.0
C2703 C 0.21949 0.23259 0.23149 0.0
C2704 C 0.25044 0.24861 0.25967 0.0
C2705 C 0.23734 0.23974 0.22558 0.0
C2706 C 0.21716 0.23309 0.25153 0.0
C2707 C 0.25882 0.24389 0.20055 0.0
N2708 N 0.27017 0.2548 0.23489 0.0
C2709 C 0.27356 0.252 0.2154 0.0
C2710 C 0.24057 0.23792 0.20565 0.0
Tb2711 Tb 0.29391 0.26687 0.25992 0.0
N2712 N 0.26594 0.25537 0.27274 0.0
C2713 C 0.26462 0.25328 0.29204 0.0
C2714 C 0.23125 0.2396 0.28555 0.0
C2715 C 0.24736 0.24565 0.29871 0.0
H2716 H 0.28769 0.25641 0.21135 0.0
H2717 H 0.24652 0.24447 0.31406 0.0
H2718 H 0.20344 0.22699 0.25587 0.0
H2719 H 0.26157 0.24208 0.18518 0.0
H2720 H 0.27658 0.25788 0.30285 0.0
H2721 H 0.36178 0.34123 0.22877 0.0
H2722 H 0.21791 0.23358 0.29075 0.0
H2723 H 0.3259 0.32843 0.33356 0.0
H2724 H 0.33286 0.32685 0.24099 0.0
H2725 H 0.35293 0.34276 0.35853 0.0
H2726 H 0.20753 0.2261 0.22065 0.0
H2727 H 0.39109 0.35313 0.25092 0.0
H2728 H 0.40701 0.35991 0.28509 0.0
H2729 H 0.2292 0.23139 0.19413 0.0
H2730 H 0.40468 0.36036 0.32052 0.0
N2731 N 0.34444 0.32997 0.271 0.0
C2732 C 0.34494 0.33195 0.25156 0.0
C2733 C 0.37817 0.34672 0.25669 0.0
C2734 C 0.37766 0.34556 0.2766 0.0
C2735 C 0.36167 0.34013 0.24419 0.0
C2736 C 0.36041 0.33709 0.28337 0.0
H2737 H 0.38456 0.3542 0.34804 0.0
N2738 N 0.34214 0.33017 0.30903 0.0
C2739 C 0.35498 0.34109 0.34299 0.0
C2740 C 0.3592 0.33721 0.30312 0.0
C2741 C 0.33972 0.33281 0.32877 0.0
C2742 C 0.37278 0.3475 0.33702 0.0
C2743 C 0.37502 0.34596 0.31689 0.0
O2744 O 0.30811 0.33889 0.30583 0.0
O2745 O 0.29172 0.29525 0.27628 0.0
O2746 O 0.28568 0.28645 0.24102 0.0
O2747 O 0.30615 0.31759 0.25462 0.0
O2748 O 0.29543 0.31048 0.30473 0.0
O2749 O 0.31033 0.34249 0.27558 0.0
O2750 O 0.30551 0.24629 0.24134 0.0
O2751 O 0.31946 0.28922 0.26913 0.0
O2752 O 0.32514 0.29786 0.3042 0.0
O2753 O 0.3047 0.2668 0.29043 0.0
O2754 O 0.31602 0.27384 0.24067 0.0
O2755 O 0.29646 0.24022 0.26943 0.0
C2756 C 0.28365 0.29765 0.29169 0.0
C2757 C 0.3142 0.37201 0.29938 0.0
C2758 C 0.31312 0.40518 0.29333 0.0
C2759 C 0.30733 0.38423 0.28828 0.0
C2760 C 0.32569 0.4141 0.31015 0.0
C2761 C 0.32705 0.38077 0.31603 0.0
C2762 C 0.33273 0.40185 0.32139 0.0
C2763 C 0.29416 0.30524 0.24025 0.0
C2764 C 0.30677 0.35034 0.2931 0.0
C2765 C 0.39236 0.35366 0.3102 0.0
C2766 C 0.39368 0.35341 0.29005 0.0
C2767 C 0.32758 0.28692 0.25375 0.0
C2768 C 0.29858 0.21239 0.24507 0.0
C2769 C 0.30943 0.20058 0.25227 0.0
C2770 C 0.30743 0.18047 0.24328 0.0
C2771 C 0.29408 0.17183 0.22709 0.0
C2772 C 0.28494 0.20389 0.22907 0.0
C2773 C 0.28264 0.18353 0.22019 0.0
C2774 C 0.31678 0.27895 0.3048 0.0
C2775 C 0.30384 0.23385 0.25352 0.0
H2776 H 0.29698 0.37729 0.27577 0.0
H2777 H 0.33005 0.43038 0.31447 0.0
H2778 H 0.3325 0.37149 0.32492 0.0
H2779 H 0.3425 0.40868 0.33431 0.0
H2780 H 0.32019 0.20735 0.26446 0.0
H2781 H 0.29257 0.15625 0.21989 0.0
H2782 H 0.27645 0.21296 0.22326 0.0
H2783 H 0.27227 0.17693 0.20772 0.0
Tb2784 Tb 0.55319 0.56682 0.03124 0.0
C2785 C 0.56993 0.49613 0.97233 0.0
C2786 C 0.54098 0.48097 0.95155 0.0
C2787 C 0.57029 0.47376 0.941 0.0
C2788 C 0.55075 0.49338 0.96911 0.0
C2789 C 0.57995 0.48627 0.95837 0.0
C2790 C 0.55083 0.4711 0.93761 0.0
C2791 C 0.60815 0.5007 0.98036 0.0
N2792 N 0.57873 0.50805 0.98941 0.0
C2793 C 0.59757 0.50986 0.99388 0.0
C2794 C 0.59931 0.48891 0.96247 0.0
Tb2795 Tb 0.55976 0.51971 0.01192 0.0
N2796 N 0.54177 0.50351 0.98278 0.0
C2797 C 0.52281 0.50193 0.97934 0.0
C2798 C 0.52164 0.47903 0.94839 0.0
C2799 C 0.51256 0.48968 0.96228 0.0
H2800 H 0.60443 0.51841 0.00798 0.0
H2801 H 0.49764 0.48862 0.9598 0.0
H2802 H 0.54355 0.46146 0.92411 0.0
H2803 H 0.62305 0.50248 0.98389 0.0
H2804 H 0.51525 0.51043 0.98918 0.0
H2805 H 0.60925 0.60025 0.09001 0.0
H2806 H 0.51364 0.46963 0.93513 0.0
H2807 H 0.50885 0.57092 0.02797 0.0
H2808 H 0.59603 0.58199 0.05725 0.0
H2809 H 0.48659 0.5828 0.05003 0.0
H2810 H 0.57772 0.46601 0.93014 0.0
H2811 H 0.58854 0.61036 0.11507 0.0
H2812 H 0.55612 0.6121 0.12369 0.0
H2813 H 0.60748 0.4816 0.95212 0.0
H2814 H 0.52265 0.60714 0.11289 0.0
N2815 N 0.56738 0.58155 0.06258 0.0
C2816 C 0.58643 0.58619 0.06753 0.0
C2817 C 0.58249 0.60237 0.10044 0.0
C2818 C 0.56314 0.59802 0.09535 0.0
C2819 C 0.59421 0.59676 0.08633 0.0
C2820 C 0.55596 0.58777 0.07601 0.0
H2821 H 0.49668 0.59654 0.0854 0.0
N2822 N 0.53126 0.57691 0.05075 0.0
C2823 C 0.50076 0.58344 0.05586 0.0
C2824 C 0.53723 0.58522 0.06992 0.0
C2825 C 0.51346 0.57674 0.04339 0.0
C2826 C 0.50648 0.59113 0.07582 0.0
C2827 C 0.52501 0.59249 0.083 0.0
O2828 O 0.54418 0.58728 0.01606 0.0
O2829 O 0.55324 0.54639 1.00286 0.0
O2830 O 0.58159 0.54114 1.00057 0.0
O2831 O 0.58268 0.56788 0.0259 0.0
O2832 O 0.53138 0.55962 0.00607 0.0
O2833 O 0.57163 0.59512 0.03194 0.0
O2834 O 0.5728 0.49917 0.02243 0.0
O2835 O 0.56007 0.53995 0.04053 0.0
O2836 O 0.53084 0.54627 0.04238 0.0
O2837 O 0.53053 0.51714 0.01992 0.0
O2838 O 0.58268 0.529 0.03611 0.0
O2839 O 0.54256 0.4925 0.01684 0.0
C2840 C 0.53861 0.54863 0.99304 0.0
C2841 C 0.55773 0.62174 0.02548 0.0
C2842 C 0.5597 0.65321 0.01353 0.0
C2843 C 0.56401 0.6342 0.01217 0.0
C2844 C 0.54958 0.65993 0.02912 0.0
C2845 C 0.54765 0.62855 0.04091 0.0
C2846 C 0.54376 0.6477 0.04279 0.0
C2847 C 0.59051 0.55878 0.01129 0.0
C2848 C 0.55971 0.60087 0.02087 0.0
C2849 C 0.53184 0.6016 0.10258 0.0
C2850 C 0.55089 0.60441 0.10874 0.0
C2851 C 0.57528 0.53861 0.05016 0.0
C2852 C 0.55727 0.46492 0.01796 0.0
C2853 C 0.54899 0.45248 0.03053 0.0
C2854 C 0.55225 0.43302 0.02966 0.0
C2855 C 0.56313 0.42581 0.01502 0.0
C2856 C 0.56803 0.4575 1.00348 0.0
C2857 C 0.5707 0.43789 1.00187 0.0
C2858 C 0.52243 0.52775 0.03333 0.0
C2859 C 0.55709 0.48637 0.02292 0.0
H2860 H 0.57185 0.62872 1.00034 0.0
H2861 H 0.54572 0.67435 0.03047 0.0
H2862 H 0.54243 0.61897 0.05113 0.0
H2863 H 0.53577 0.65287 0.05457 0.0
H2864 H 0.54061 0.45844 0.04154 0.0
H2865 H 0.56636 0.41112 0.01405 0.0
H2866 H 0.57494 0.467 0.99396 0.0
H2867 H 0.57926 0.43231 0.99087 0.0
Tb2868 Tb 0.82699 0.30745 0.2663 0.0
C2869 C 0.7837 0.24702 0.30245 0.0
C2870 C 0.78794 0.21656 0.28147 0.0
C2871 C 0.78373 0.21677 0.31606 0.0
C2872 C 0.78673 0.23702 0.28412 0.0
C2873 C 0.78135 0.23664 0.31838 0.0
C2874 C 0.78708 0.20677 0.29765 0.0
C2875 C 0.77111 0.26477 0.3367 0.0
N2876 N 0.78104 0.2661 0.30413 0.0
C2877 C 0.77333 0.27429 0.32047 0.0
C2878 C 0.77555 0.24604 0.33582 0.0
Tb2879 Tb 0.78472 0.27997 0.2761 0.0
N2880 N 0.78698 0.24671 0.26859 0.0
C2881 C 0.78711 0.23617 0.24983 0.0
C2882 C 0.78904 0.20619 0.26247 0.0
C2883 C 0.78821 0.21591 0.24655 0.0
H2884 H 0.7695 0.28866 0.32132 0.0
H2885 H 0.78865 0.20789 0.23171 0.0
H2886 H 0.78816 0.19116 0.29589 0.0
H2887 H 0.76577 0.2718 0.34977 0.0
H2888 H 0.78675 0.24306 0.2371 0.0
H2889 H 0.82405 0.3808 0.30861 0.0
H2890 H 0.78993 0.19049 0.25985 0.0
H2891 H 0.84197 0.29677 0.22127 0.0
H2892 H 0.82515 0.34544 0.30428 0.0
H2893 H 0.84652 0.31271 0.19226 0.0
H2894 H 0.78219 0.20869 0.32819 0.0
H2895 H 0.82368 0.39743 0.27984 0.0
H2896 H 0.82609 0.39573 0.24377 0.0
H2897 H 0.77353 0.23853 0.34831 0.0
H2898 H 0.83199 0.37709 0.21196 0.0
N2899 N 0.82523 0.34087 0.27277 0.0
C2900 C 0.82512 0.35197 0.29129 0.0
C2901 C 0.82416 0.38163 0.27768 0.0
C2902 C 0.82526 0.37068 0.25894 0.0
C2903 C 0.82448 0.37233 0.29395 0.0
C2904 C 0.82591 0.3501 0.25689 0.0
H2905 H 0.83986 0.34634 0.19271 0.0
N2906 N 0.83106 0.32027 0.23772 0.0
C2907 C 0.84127 0.32031 0.20511 0.0
C2908 C 0.82893 0.33948 0.23883 0.0
C2909 C 0.8386 0.31133 0.22164 0.0
C2910 C 0.83746 0.33924 0.20542 0.0
C2911 C 0.83178 0.34934 0.22259 0.0
O2912 O 0.85108 0.29856 0.25655 0.0
O2913 O 0.81207 0.27571 0.26591 0.0
O2914 O 0.80016 0.29479 0.30493 0.0
O2915 O 0.82867 0.31263 0.29775 0.0
O2916 O 0.83772 0.28558 0.2809 0.0
O2917 O 0.8532 0.32686 0.27737 0.0
O2918 O 0.76048 0.28815 0.28647 0.0
O2919 O 0.7997 0.31171 0.27655 0.0
O2920 O 0.81099 0.29318 0.23763 0.0
O2921 O 0.78232 0.27559 0.24467 0.0
O2922 O 0.77384 0.30217 0.26208 0.0
O2923 O 0.7587 0.26057 0.26463 0.0
C2924 C 0.82481 0.26949 0.27543 0.0
C2925 C 0.88109 0.32148 0.26274 0.0
C2926 C 0.91423 0.32555 0.27254 0.0
C2927 C 0.89559 0.32284 0.27716 0.0
C2928 C 0.91829 0.32841 0.25342 0.0
C2929 C 0.88525 0.32442 0.24378 0.0
C2930 C 0.90387 0.32815 0.23925 0.0
C2931 C 0.81717 0.30618 0.31027 0.0
C2932 C 0.86208 0.31431 0.26781 0.0
C2933 C 0.83002 0.36939 0.22433 0.0
C2934 C 0.8267 0.38001 0.24245 0.0
C2935 C 0.78694 0.31814 0.2673 0.0
C2936 C 0.73047 0.2652 0.27872 0.0
C2937 C 0.71643 0.26581 0.26458 0.0
C2938 C 0.69752 0.26063 0.26792 0.0
C2939 C 0.69273 0.25398 0.28547 0.0
C2940 C 0.72572 0.25866 0.29624 0.0
C2941 C 0.70682 0.25295 0.29951 0.0
C2942 C 0.79382 0.2822 0.23225 0.0
C2943 C 0.74969 0.27269 0.27461 0.0
H2944 H 0.89214 0.32086 0.29186 0.0
H2945 H 0.93246 0.33017 0.24915 0.0
H2946 H 0.87431 0.32349 0.23241 0.0
H2947 H 0.90707 0.33015 0.22452 0.0
H2948 H 0.72032 0.27074 0.25099 0.0
H2949 H 0.67821 0.25009 0.28856 0.0
H2950 H 0.73646 0.25807 0.30731 0.0
H2951 H 0.70307 0.24802 0.31308 0.0
Tb2952 Tb 0.06497 0.54094 0.54951 0.0
C2953 C 0.01685 0.56118 0.4843 0.0
C2954 C 0.9995 0.52829 0.46698 0.0
C2955 C 0.98583 0.55749 0.46776 0.0
C2956 C 0.01562 0.54079 0.47844 0.0
C2957 C 1.00225 0.56993 0.47851 0.0
C2958 C 0.98443 0.53667 0.46207 0.0
C2959 C 0.02207 0.60271 0.49245 0.0
N2960 N 0.03294 0.57265 0.4946 0.0
C2961 C 0.03609 0.59329 0.49799 0.0
C2962 C 1.00491 0.59096 0.48305 0.0
Tb2963 Tb 0.0553 0.55597 0.50244 0.0
N2964 N 0.03067 0.53343 0.48306 0.0
C2965 C 0.03097 0.51382 0.47543 0.0
C2966 C 0.99929 0.50792 0.46024 0.0
C2967 C 0.01522 0.50074 0.46423 0.0
H2968 H 0.04932 0.6024 0.50538 0.0
H2969 H 0.01538 0.48511 0.45871 0.0
H2970 H 0.97185 0.52728 0.45344 0.0
H2971 H 0.0245 0.61902 0.49548 0.0
H2972 H 0.04307 0.50788 0.47834 0.0
H2973 H 0.10618 0.60367 0.60358 0.0
H2974 H 0.98715 0.49778 0.4515 0.0
H2975 H 0.06572 0.49226 0.54294 0.0
H2976 H 0.07974 0.5862 0.57925 0.0
H2977 H 0.08666 0.47138 0.55219 0.0
H2978 H 0.97434 0.56386 0.46339 0.0
H2979 H 0.13164 0.58676 0.61054 0.0
H2980 H 0.14408 0.55526 0.60521 0.0
H2981 H 0.99406 0.59828 0.47881 0.0
H2982 H 0.13874 0.51898 0.59115 0.0
N2983 N 0.08979 0.55921 0.57178 0.0
C2984 C 0.09046 0.5783 0.582 0.0
C2985 C 0.11995 0.57888 0.59976 0.0
C2986 C 0.11867 0.55898 0.59022 0.0
C2987 C 0.10557 0.58842 0.59594 0.0
C2988 C 0.10317 0.54942 0.57628 0.0
H2989 H 0.11695 0.48739 0.57201 0.0
N2990 N 0.08401 0.52027 0.55689 0.0
C2991 C 0.09073 0.48764 0.55675 0.0
C2992 C 0.10017 0.52915 0.56851 0.0
C2993 C 0.07884 0.49965 0.55153 0.0
C2994 C 0.10784 0.49673 0.56786 0.0
C2995 C 0.11261 0.51771 0.5742 0.0
O2996 O 0.04521 0.52104 0.56192 0.0
O2997 O 0.04599 0.5384 0.52397 0.0
O2998 O 0.03868 0.56959 0.52393 0.0
O2999 O 0.05698 0.57008 0.55268 0.0
O3000 O 0.04581 0.51279 0.53417 0.0
O3001 O 0.0541 0.55247 0.57539 0.0
O3002 O 0.07009 0.57755 0.48785 0.0
O3003 O 0.07342 0.55916 0.52819 0.0
O3004 O 0.08471 0.53114 0.53018 0.0
O3005 O 0.06885 0.52974 0.49938 0.0
O3006 O 0.0784 0.58239 0.51451 0.0
O3007 O 0.06534 0.54536 0.47572 0.0
C3008 C 0.03782 0.52014 0.52115 0.0
C3009 C 0.04703 0.52918 0.59612 0.0
C3010 C 0.03347 0.51774 0.62428 0.0
C3011 C 0.03142 0.52422 0.60642 0.0
C3012 C 0.05119 0.51626 0.63183 0.0
C3013 C 0.06474 0.52798 0.60386 0.0
C3014 C 0.06681 0.52148 0.62164 0.0
C3015 C 0.04311 0.57525 0.54323 0.0
C3016 C 0.04445 0.53484 0.57705 0.0
C3017 C 0.12886 0.52744 0.58683 0.0
C3018 C 0.1319 0.54808 0.59484 0.0
C3019 C 0.0853 0.57529 0.52851 0.0
C3020 C 0.06765 0.5675 0.45327 0.0
C3021 C 0.07706 0.55904 0.43824 0.0
C3022 C 0.07534 0.56365 0.41951 0.0
C3023 C 0.06387 0.57665 0.41562 0.0
C3024 C 0.05584 0.58021 0.44938 0.0
C3025 C 0.05394 0.58469 0.43052 0.0
C3026 C 0.08161 0.52467 0.51086 0.0
C3027 C 0.07175 0.56374 0.47296 0.0
H3028 H 0.01772 0.52532 0.60054 0.0
H3029 H 0.05301 0.51159 0.64584 0.0
H3030 H 0.07692 0.53197 0.59624 0.0
H3031 H 0.08053 0.5206 0.62754 0.0
H3032 H 0.0864 0.54946 0.44134 0.0
H3033 H 0.06265 0.58052 0.40115 0.0
H3034 H 0.04842 0.58695 0.46085 0.0
H3035 H 0.04503 0.59467 0.42756 0.0
Tb3036 Tb 0.7843 0.80098 0.26965 0.0
C3037 C 0.84681 0.76677 0.30349 0.0
C3038 C 0.85958 0.79256 0.33224 0.0
C3039 C 0.86304 0.75827 0.33138 0.0
C3040 C 0.84955 0.7864 0.31333 0.0
C3041 C 0.85392 0.75253 0.31217 0.0
C3042 C 0.8659 0.77829 0.34139 0.0
C3043 C 0.84463 0.72879 0.28138 0.0
N3044 N 0.83845 0.76202 0.28479 0.0
C3045 C 0.83812 0.74356 0.27335 0.0
C3046 C 0.85236 0.7332 0.30097 0.0
Tb3047 Tb 0.82832 0.78715 0.27243 0.0
N3048 N 0.84346 0.79975 0.30384 0.0
C3049 C 0.84806 0.81989 0.3123 0.0
C3050 C 0.86347 0.81297 0.34114 0.0
C3051 C 0.85774 0.82671 0.33106 0.0
H3052 H 0.83223 0.74002 0.25813 0.0
H3053 H 0.8608 0.8426 0.33771 0.0
H3054 H 0.87343 0.7827 0.35598 0.0
H3055 H 0.8438 0.71405 0.27241 0.0
H3056 H 0.84379 0.83099 0.30516 0.0
H3057 H 0.74411 0.73732 0.21527 0.0
H3058 H 0.87112 0.81831 0.35563 0.0
H3059 H 0.78263 0.84905 0.27669 0.0
H3060 H 0.76596 0.75332 0.24399 0.0
H3061 H 0.7704 0.87208 0.25856 0.0
H3062 H 0.86845 0.74751 0.33836 0.0
H3063 H 0.73241 0.75792 0.1938 0.0
H3064 H 0.73134 0.79217 0.18721 0.0
H3065 H 0.85763 0.72184 0.3071 0.0
H3066 H 0.73887 0.829 0.19875 0.0
N3067 N 0.7667 0.78376 0.24045 0.0
C3068 C 0.76093 0.76308 0.23558 0.0
C3069 C 0.74192 0.76529 0.20682 0.0
C3070 C 0.7475 0.78632 0.21185 0.0
C3071 C 0.74839 0.75364 0.21896 0.0
C3072 C 0.75972 0.79518 0.22914 0.0
H3073 H 0.75317 0.8589 0.22548 0.0
N3074 N 0.77369 0.82335 0.25348 0.0
C3075 C 0.76852 0.8563 0.25188 0.0
C3076 C 0.76361 0.81575 0.23577 0.0
C3077 C 0.77549 0.84322 0.26205 0.0
C3078 C 0.75885 0.84882 0.2332 0.0
C3079 C 0.7559 0.82824 0.22511 0.0
O3080 O 0.77067 0.81545 0.29211 0.0
O3081 O 0.80606 0.79606 0.29012 0.0
O3082 O 0.80855 0.75934 0.27725 0.0
O3083 O 0.78012 0.769 0.27441 0.0
O3084 O 0.79947 0.8238 0.29323 0.0
O3085 O 0.75784 0.78566 0.27711 0.0
O3086 O 0.84445 0.77603 0.25021 0.0
O3087 O 0.80657 0.79295 0.25336 0.0
O3088 O 0.80506 0.82733 0.26159 0.0
O3089 O 0.83325 0.82011 0.27174 0.0
O3090 O 0.81536 0.76763 0.24439 0.0
O3091 O 0.85445 0.80521 0.26814 0.0
C3092 C 0.80777 0.81285 0.30225 0.0
C3093 C 0.7376 0.80535 0.29362 0.0
C3094 C 0.70812 0.80221 0.31009 0.0
C3095 C 0.72466 0.79535 0.30542 0.0
C3096 C 0.70476 0.81889 0.30262 0.0
C3097 C 0.73331 0.82161 0.28612 0.0
C3098 C 0.71711 0.82831 0.29064 0.0
C3099 C 0.78992 0.75514 0.27657 0.0
C3100 C 0.75637 0.8004 0.29102 0.0
C3101 C 0.7448 0.81966 0.20721 0.0
C3102 C 0.74052 0.7987 0.20064 0.0
C3103 C 0.805 0.77878 0.23862 0.0
C3104 C 0.87765 0.78933 0.25344 0.0
C3105 C 0.88785 0.79167 0.23667 0.0
C3106 C 0.90693 0.79025 0.23696 0.0
C3107 C 0.91537 0.78611 0.25402 0.0
C3108 C 0.88659 0.78501 0.27006 0.0
C3109 C 0.90526 0.78337 0.27029 0.0
C3110 C 0.82377 0.83292 0.26594 0.0
C3111 C 0.85801 0.79207 0.25377 0.0
H3112 H 0.72766 0.78271 0.3113 0.0
H3113 H 0.69226 0.82442 0.30577 0.0
H3114 H 0.7427 0.8295 0.27709 0.0
H3115 H 0.71415 0.84103 0.28489 0.0
H3116 H 0.88107 0.79485 0.22364 0.0
H3117 H 0.92981 0.78464 0.25462 0.0
H3118 H 0.87917 0.78308 0.28297 0.0
H3119 H 0.91199 0.78 0.28323 0.0
Tb3120 Tb 0.82025 0.28301 0.74597 0.0
C3121 C 0.78495 0.3403 0.8025 0.0
C3122 C 0.80964 0.36111 0.82675 0.0
C3123 C 0.78191 0.37334 0.81962 0.0
C3124 C 0.80232 0.34316 0.81265 0.0
C3125 C 0.77427 0.35513 0.8064 0.0
C3126 C 0.79956 0.37631 0.8298 0.0
C3127 C 0.7479 0.33153 0.78704 0.0
N3128 N 0.77771 0.32223 0.79036 0.0
C3129 C 0.75884 0.31721 0.78408 0.0
C3130 C 0.75577 0.35075 0.79795 0.0
Tb3131 Tb 0.79602 0.29857 0.78809 0.0
N3132 N 0.81158 0.32797 0.80959 0.0
C3133 C 0.8283 0.33009 0.82066 0.0
C3134 C 0.82665 0.3631 0.83782 0.0
C3135 C 0.83599 0.3475 0.83475 0.0
H3136 H 0.75226 0.30211 0.77623 0.0
H3137 H 0.84931 0.34893 0.84308 0.0
H3138 H 0.80506 0.39018 0.84043 0.0
H3139 H 0.73328 0.32757 0.78129 0.0
H3140 H 0.83669 0.31919 0.81836 0.0
H3141 H 0.75338 0.23272 0.71102 0.0
H3142 H 0.83267 0.37658 0.84878 0.0
H3143 H 0.86176 0.27122 0.753 0.0
H3144 H 0.77235 0.26105 0.73433 0.0
H3145 H 0.87754 0.24498 0.739 0.0
H3146 H 0.77394 0.38489 0.82269 0.0
H3147 H 0.76808 0.20765 0.6917 0.0
H3148 H 0.79691 0.19482 0.68506 0.0
H3149 H 0.74714 0.3617 0.80065 0.0
H3150 H 0.83056 0.19771 0.69319 0.0
N3151 N 0.79893 0.25448 0.7275 0.0
C3152 C 0.77965 0.25129 0.72557 0.0
C3153 C 0.7768 0.22057 0.70172 0.0
C3154 C 0.79614 0.2227 0.70478 0.0
C3155 C 0.76849 0.2347 0.71253 0.0
C3156 C 0.80688 0.2398 0.71808 0.0
H3157 H 0.86049 0.21594 0.71369 0.0
N3158 N 0.83515 0.25703 0.73675 0.0
C3159 C 0.8629 0.2436 0.7344 0.0
C3160 C 0.82565 0.24114 0.72289 0.0
C3161 C 0.85367 0.25838 0.74254 0.0
C3162 C 0.85327 0.22733 0.72006 0.0
C3163 C 0.8344 0.22584 0.71422 0.0
O3164 O 0.84815 0.29931 0.74631 0.0
O3165 O 0.81852 0.30663 0.77024 0.0
O3166 O 0.7825 0.30578 0.76145 0.0
O3167 O 0.79439 0.29068 0.7331 0.0
O3168 O 0.82015 0.3136 0.74218 0.0
O3169 O 0.83135 0.28402 0.71888 0.0
O3170 O 0.77093 0.28289 0.79605 0.0
O3171 O 0.80522 0.27478 0.76973 0.0
O3172 O 0.83703 0.27885 0.77286 0.0
O3173 O 0.82116 0.28963 0.79978 0.0
O3174 O 0.77801 0.26891 0.77572 0.0
O3175 O 0.79553 0.29432 0.81784 0.0
C3176 C 0.82011 0.32071 0.76065 0.0
C3177 C 0.85542 0.3125 0.71764 0.0
C3178 C 0.8526 0.33358 0.69351 0.0
C3179 C 0.84431 0.31927 0.70433 0.0
C3180 C 0.8721 0.34162 0.69661 0.0
C3181 C 0.87482 0.32063 0.72064 0.0
C3182 C 0.8831 0.33525 0.71023 0.0
C3183 C 0.78172 0.29979 0.74197 0.0
C3184 C 0.84736 0.29568 0.72708 0.0
C3185 C 0.82403 0.20946 0.70017 0.0
C3186 C 0.80491 0.20786 0.69549 0.0
C3187 C 0.79095 0.26088 0.76832 0.0
C3188 C 0.76623 0.27637 0.8285 0.0
C3189 C 0.77451 0.27354 0.84615 0.0
C3190 C 0.7632 0.26555 0.85978 0.0
C3191 C 0.74362 0.26023 0.85579 0.0
C3192 C 0.74658 0.27088 0.82446 0.0
C3193 C 0.73535 0.26284 0.8381 0.0
C3194 C 0.83563 0.28292 0.79237 0.0
C3195 C 0.77795 0.28463 0.81408 0.0
H3196 H 0.82929 0.31306 0.70202 0.0
H3197 H 0.87894 0.35238 0.68812 0.0
H3198 H 0.8836 0.31534 0.73071 0.0
H3199 H 0.89812 0.3413 0.71237 0.0
H3200 H 0.78965 0.27747 0.84931 0.0
H3201 H 0.73481 0.25387 0.86627 0.0
H3202 H 0.73988 0.27284 0.81082 0.0
H3203 H 0.72024 0.25861 0.83494 0.0
Tb3204 Tb 0.81976 0.82103 0.78374 0.0
C3205 C 0.75164 0.7664 0.75214 0.0
C3206 C 0.73566 0.75697 0.77996 0.0
C3207 C 0.71763 0.76137 0.75126 0.0
C3208 C 0.75241 0.762 0.77083 0.0
C3209 C 0.73407 0.76474 0.74166 0.0
C3210 C 0.71845 0.75766 0.77048 0.0
C3211 C 0.74951 0.76421 0.7118 0.0
N3212 N 0.76771 0.76902 0.74312 0.0
C3213 C 0.7664 0.76557 0.72284 0.0
C3214 C 0.73333 0.76454 0.72138 0.0
Tb3215 Tb 0.79511 0.77055 0.76209 0.0
N3216 N 0.76921 0.7605 0.7791 0.0
C3217 C 0.76933 0.75118 0.79514 0.0
C3218 C 0.73646 0.75013 0.79774 0.0
C3219 C 0.75329 0.74672 0.80508 0.0
H3220 H 0.7784 0.76362 0.71499 0.0
H3221 H 0.75382 0.74007 0.8181 0.0
H3222 H 0.70554 0.75406 0.77739 0.0
H3223 H 0.7489 0.76229 0.69588 0.0
H3224 H 0.78141 0.74641 0.80039 0.0
H3225 H 0.86435 0.83922 0.72549 0.0
H3226 H 0.72396 0.74618 0.80521 0.0
H3227 H 0.83259 0.82388 0.83218 0.0
H3228 H 0.83528 0.83263 0.74004 0.0
H3229 H 0.861 0.82815 0.85341 0.0
H3230 H 0.7041 0.76036 0.74354 0.0
H3231 H 0.89411 0.8405 0.74449 0.0
H3232 H 0.91094 0.83982 0.77638 0.0
H3233 H 0.72011 0.76294 0.71276 0.0
H3234 H 0.91005 0.83675 0.81111 0.0
N3235 N 0.84676 0.82737 0.76743 0.0
C3236 C 0.84739 0.83189 0.74884 0.0
C3237 C 0.881 0.83678 0.75103 0.0
C3238 C 0.88071 0.83349 0.77034 0.0
C3239 C 0.86427 0.8361 0.7403 0.0
C3240 C 0.86321 0.82853 0.7782 0.0
H3241 H 0.89167 0.83237 0.83977 0.0
N3242 N 0.84578 0.82214 0.80498 0.0
C3243 C 0.86172 0.82701 0.83766 0.0
C3244 C 0.8627 0.82598 0.79757 0.0
C3245 C 0.84538 0.82396 0.82514 0.0
C3246 C 0.87896 0.82946 0.82993 0.0
C3247 C 0.87969 0.82944 0.8098 0.0
O3248 O 0.81506 0.83913 0.80977 0.0
O3249 O 0.79385 0.79848 0.78039 0.0
O3250 O 0.79731 0.7905 0.73948 0.0
O3251 O 0.80898 0.8242 0.75506 0.0
O3252 O 0.79214 0.82684 0.77716 0.0
O3253 O 0.82865 0.85253 0.78679 0.0
O3254 O 0.80321 0.75445 0.73632 0.0
O3255 O 0.82094 0.79319 0.76504 0.0
O3256 O 0.81309 0.8026 0.80625 0.0
O3257 O 0.80561 0.76841 0.79207 0.0
O3258 O 0.82254 0.76526 0.77003 0.0
O3259 O 0.78521 0.73921 0.75543 0.0
C3260 C 0.78235 0.80903 0.7776 0.0
C3261 C 0.81257 0.87223 0.80869 0.0
C3262 C 0.80049 0.89969 0.79962 0.0
C3263 C 0.80842 0.88307 0.79437 0.0
C3264 C 0.79637 0.9054 0.81908 0.0
C3265 C 0.80844 0.87803 0.82821 0.0
C3266 C 0.80031 0.89451 0.83334 0.0
C3267 C 0.80154 0.81024 0.73933 0.0
C3268 C 0.82239 0.85583 0.80412 0.0
C3269 C 0.89697 0.83401 0.80191 0.0
C3270 C 0.89747 0.83586 0.78217 0.0
C3271 C 0.83238 0.78272 0.76843 0.0
C3272 C 0.80061 0.71925 0.73382 0.0
C3273 C 0.81084 0.71245 0.74784 0.0
C3274 C 0.81462 0.69312 0.7435 0.0
C3275 C 0.80841 0.68105 0.72463 0.0
C3276 C 0.79499 0.7073 0.71502 0.0
C3277 C 0.79897 0.68829 0.71043 0.0
C3278 C 0.81039 0.78336 0.80763 0.0
C3279 C 0.7933 0.73731 0.73911 0.0
H3280 H 0.81153 0.87885 0.77925 0.0
H3281 H 0.79017 0.91827 0.82319 0.0
H3282 H 0.81174 0.86995 0.83954 0.0
H3283 H 0.79722 0.89896 0.8484 0.0
H3284 H 0.81534 0.72207 0.76219 0.0
H3285 H 0.81037 0.6658 0.72087 0.0
H3286 H 0.78691 0.71237 0.70412 0.0
H3287 H 0.79422 0.67889 0.69603 0.0
Tb3288 Tb 0.5324 0.53207 0.51225 0.0
C3289 C 0.59662 0.59926 0.55615 0.0
C3290 C 0.60211 0.62212 0.5332 0.0
C3291 C 0.61153 0.63475 0.56812 0.0
C3292 C 0.59519 0.6026 0.53714 0.0
C3293 C 0.60533 0.61517 0.57181 0.0
C3294 C 0.60988 0.63823 0.54883 0.0
C3295 C 0.60366 0.59074 0.59304 0.0
N3296 N 0.59107 0.58004 0.55901 0.0
C3297 C 0.5954 0.57546 0.57698 0.0
C3298 C 0.60842 0.61074 0.59052 0.0
Tb3299 Tb 0.5785 0.55552 0.53176 0.0
N3300 N 0.58803 0.58653 0.5224 0.0
C3301 C 0.5885 0.58907 0.50313 0.0
C3302 C 0.60161 0.62478 0.51363 0.0
C3303 C 0.59493 0.60812 0.49853 0.0
H3304 H 0.59205 0.55997 0.57899 0.0
H3305 H 0.5947 0.60991 0.48328 0.0
H3306 H 0.61519 0.6533 0.54607 0.0
H3307 H 0.60655 0.58703 0.6073 0.0
H3308 H 0.58324 0.57682 0.49092 0.0
H3309 H 0.50546 0.48353 0.56323 0.0
H3310 H 0.60673 0.6395 0.51 0.0
H3311 H 0.52225 0.52488 0.46406 0.0
H3312 H 0.52216 0.51434 0.55449 0.0
H3313 H 0.50871 0.49661 0.43651 0.0
H3314 H 0.61816 0.64718 0.57996 0.0
H3315 H 0.49454 0.45262 0.53782 0.0
H3316 H 0.49059 0.43602 0.50229 0.0
H3317 H 0.61511 0.62252 0.6029 0.0
H3318 H 0.49186 0.43944 0.46758 0.0
N3319 N 0.52065 0.50243 0.52333 0.0
C3320 C 0.51738 0.50166 0.54263 0.0
C3321 C 0.50181 0.46643 0.53361 0.0
C3322 C 0.50474 0.46717 0.51394 0.0
C3323 C 0.5078 0.48386 0.54794 0.0
C3324 C 0.51401 0.48566 0.50916 0.0
H3325 H 0.49821 0.46205 0.44294 0.0
N3326 N 0.52083 0.50632 0.48578 0.0
C3327 C 0.51038 0.49381 0.45135 0.0
C3328 C 0.51443 0.48762 0.48967 0.0
C3329 C 0.51804 0.50977 0.46701 0.0
C3330 C 0.50458 0.47432 0.45502 0.0
C3331 C 0.50604 0.47112 0.47441 0.0
O3332 O 0.51181 0.54252 0.49734 0.0
O3333 O 0.55199 0.56105 0.5218 0.0
O3334 O 0.56201 0.56327 0.55712 0.0
O3335 O 0.53235 0.54378 0.54494 0.0
O3336 O 0.5375 0.5554 0.49446 0.0
O3337 O 0.50807 0.53514 0.52609 0.0
O3338 O 0.59904 0.54312 0.54403 0.0
O3339 O 0.55891 0.52638 0.52185 0.0
O3340 O 0.55042 0.52262 0.48849 0.0
O3341 O 0.57875 0.54563 0.49881 0.0
O3342 O 0.573 0.53087 0.54844 0.0
O3343 O 0.6035 0.55614 0.51805 0.0
C3344 C 0.54864 0.5692 0.50724 0.0
C3345 C 0.48094 0.53204 0.50498 0.0
C3346 C 0.44959 0.53683 0.49868 0.0
C3347 C 0.46843 0.54477 0.50563 0.0
C3348 C 0.44317 0.51609 0.49116 0.0
C3349 C 0.47444 0.51125 0.49778 0.0
C3350 C 0.45559 0.50332 0.49085 0.0
C3351 C 0.54422 0.55562 0.55981 0.0
C3352 C 0.5007 0.54109 0.5113 0.0
C3353 C 0.49825 0.4523 0.47909 0.0
C3354 C 0.49752 0.45036 0.49885 0.0
C3355 C 0.56176 0.51704 0.53567 0.0
C3356 C 0.63014 0.55536 0.53839 0.0
C3357 C 0.64167 0.5417 0.53624 0.0
C3358 C 0.66062 0.54793 0.54314 0.0
C3359 C 0.66811 0.56807 0.55242 0.0
C3360 C 0.63748 0.57549 0.54776 0.0
C3361 C 0.65647 0.58178 0.55485 0.0
C3362 C 0.56748 0.53193 0.48472 0.0
C3363 C 0.61051 0.54753 0.531 0.0
H3364 H 0.47339 0.56088 0.51115 0.0
H3365 H 0.4286 0.50985 0.4856 0.0
H3366 H 0.48381 0.50119 0.49742 0.0
H3367 H 0.45065 0.48729 0.48514 0.0
H3368 H 0.63591 0.52613 0.52893 0.0
H3369 H 0.68281 0.57308 0.55786 0.0
H3370 H 0.6287 0.58625 0.54954 0.0
H3371 H 0.66218 0.59728 0.56216 0.0
Tb3372 Tb 0.08069 0.54361 0.01488 0.0
C3373 C 0.01004 0.5111 0.04571 0.0
C3374 C 0.99742 0.48213 0.01973 0.0
C3375 C 0.99193 0.48027 0.05382 0.0
C3376 C 0.00803 0.50206 0.02606 0.0
C3377 C 1.0015 0.5006 0.05978 0.0
C3378 C 0.9899 0.47104 0.0338 0.0
C3379 C 0.01054 0.53176 0.08386 0.0
N3380 N 0.01941 0.53073 0.0508 0.0
C3381 C 0.01868 0.54155 0.06929 0.0
C3382 C 1.00225 0.51109 0.07919 0.0
Tb3383 Tb 0.03368 0.54459 0.02602 0.0
N3384 N 0.01549 0.51332 0.01298 0.0
C3385 C 0.01151 0.5062 0.99318 0.0
C3386 C 0.99416 0.47428 0.99943 0.0
C3387 C 1.00085 0.48656 0.98609 0.0
H3388 H 0.02525 0.55749 0.07296 0.0
H3389 H 0.99803 0.48084 0.97036 0.0
H3390 H 0.98198 0.45556 0.0293 0.0
H3391 H 0.01068 0.54014 0.09867 0.0
H3392 H 0.01677 0.51559 0.98291 0.0
H3393 H 0.12042 0.60459 0.07274 0.0
H3394 H 0.98606 0.45903 0.99392 0.0
H3395 H 0.08758 0.53637 0.96611 0.0
H3396 H 0.1041 0.56994 0.05919 0.0
H3397 H 0.098 0.55752 0.94202 0.0
H3398 H 0.98552 0.47178 0.06445 0.0
H3399 H 0.12751 0.62948 0.05098 0.0
H3400 H 0.12744 0.63658 0.01669 0.0
H3401 H 0.99589 0.50357 0.09048 0.0
H3402 H 0.12108 0.62379 0.98092 0.0
N3403 N 0.09976 0.57469 0.02952 0.0
C3404 C 0.10617 0.58037 0.0492 0.0
C3405 C 0.11993 0.61416 0.0448 0.0
C3406 C 0.11494 0.60793 0.02452 0.0
C3407 C 0.11591 0.60017 0.05711 0.0
C3408 C 0.10493 0.58781 0.01723 0.0
H3409 H 0.11041 0.59429 0.95293 0.0
N3410 N 0.09255 0.56104 0.9908 0.0
C3411 C 0.09871 0.56436 0.95746 0.0
C3412 C 0.10109 0.58076 0.99718 0.0
C3413 C 0.09272 0.55245 0.9713 0.0
C3414 C 0.10566 0.58508 0.96366 0.0
C3415 C 0.10751 0.59344 0.9838 0.0
O3416 O 0.09126 0.52129 0.99741 0.0
O3417 O 0.05168 0.52583 0.01191 0.0
O3418 O 0.04659 0.53428 0.04983 0.0
O3419 O 0.0784 0.54537 0.04636 0.0
O3420 O 0.07237 0.51417 0.02321 0.0
O3421 O 0.10687 0.53844 0.02468 0.0
O3422 O 0.02113 0.56868 0.03636 0.0
O3423 O 0.06094 0.56276 0.02232 0.0
O3424 O 0.06297 0.53831 0.98732 0.0
O3425 O 0.03798 0.55215 0.99705 0.0
O3426 O 0.04834 0.5716 0.04706 0.0
O3427 O 0.0088 0.54672 0.01053 0.0
C3428 C 0.05481 0.51007 0.01746 0.0
C3429 C 0.12349 0.52005 1.00151 0.0
C3430 C 0.15008 0.50382 1.00307 0.0
C3431 C 0.13514 0.51073 0.01191 0.0
C3432 C 0.15344 0.50677 0.98386 0.0
C3433 C 0.12732 0.52298 0.98242 0.0
C3434 C 0.14225 0.51644 0.97373 0.0
C3435 C 0.06434 0.53881 0.05642 0.0
C3436 C 0.10605 0.52377 0.0097 0.0
C3437 C 0.11637 0.61377 0.99097 0.0
C3438 C 0.12006 0.62102 0.01133 0.0
C3439 C 0.06234 0.57701 0.03715 0.0
C3440 C 0.98851 0.56327 0.02931 0.0
C3441 C 0.98015 0.57909 0.02604 0.0
C3442 C 0.96245 0.58007 0.03246 0.0
C3443 C 0.95331 0.56536 0.0425 0.0
C3444 C 0.97911 0.54858 0.03923 0.0
C3445 C 0.96166 0.54974 0.04592 0.0
C3446 C 0.04915 0.54695 0.98379 0.0
C3447 C 0.00719 0.56276 0.02272 0.0
H3448 H 0.13212 0.50808 0.02654 0.0
H3449 H 0.16489 0.50176 0.97675 0.0
H3450 H 0.11853 0.5298 0.97397 0.0
H3451 H 0.14499 0.51862 0.95893 0.0
H3452 H 0.98734 0.59054 0.01844 0.0
H3453 H 0.93974 0.56603 0.04775 0.0
H3454 H 0.98518 0.53623 0.04179 0.0
H3455 H 0.95456 0.53847 0.05372 0.0
H3456 H 0.01801 0.17174 1.00186 0.0
H3457 H 0.0538 0.17887 0.95442 0.0
H3458 H 0.06478 0.14853 0.95892 0.0
H3459 H 0.05095 0.15419 0.03311 0.0
H3460 H 0.03325 0.13583 0.0414 0.0
H3461 H 0.02748 0.15806 0.03478 0.0
H3462 H 1.0005 0.13567 0.00977 0.0
H3463 H 0.00612 0.11339 0.01641 0.0
H3464 H 1.00541 0.1163 0.991 0.0
H3465 H 0.06945 0.11593 0.96535 0.0
H3466 H 0.07033 0.08396 0.97569 0.0
H3467 H 0.03567 0.0977 0.02268 0.0
C3468 C 0.02812 0.16681 0.99243 0.0
C3469 C 0.03497 0.17779 0.97757 0.0
C3470 C 0.0483 0.17084 0.96575 0.0
C3471 C 0.05465 0.15357 0.96824 0.0
C3472 C 0.04783 0.14317 0.98288 0.0
C3473 C 0.03497 0.14947 0.99497 0.0
C3474 C 0.03028 0.1351 0.0096 0.0
C3475 C 0.03582 0.14648 0.031 0.0
C3476 C 0.00933 0.12449 0.00651 0.0
C3477 C 0.04256 0.11995 1.00377 0.0
C3478 C 0.05222 0.12495 0.98804 0.0
C3479 C 0.06268 0.11237 0.97822 0.0
C3480 C 0.06335 0.09427 0.98446 0.0
C3481 C 0.05479 0.08902 1.00131 0.0
C3482 C 0.04387 0.10204 0.01092 0.0
H3483 H 0.17669 0.78935 0.18587 0.0
H3484 H 0.20013 0.84754 0.17095 0.0
H3485 H 0.23017 0.84866 0.18933 0.0
H3486 H 0.20009 0.8 0.23529 0.0
H3487 H 0.20433 0.77508 0.23415 0.0
H3488 H 0.18451 0.77851 0.21964 0.0
H3489 H 0.19604 0.7609 0.18797 0.0
H3490 H 0.2159 0.75741 0.20239 0.0
H3491 H 0.21951 0.7703 0.18192 0.0
H3492 H 0.25862 0.84343 0.20909 0.0
H3493 H 0.28215 0.83272 0.22938 0.0
H3494 H 0.24109 0.77836 0.23286 0.0
C3495 C 0.18812 0.80232 0.18632 0.0
C3496 C 0.18555 0.81848 0.17683 0.0
C3497 C 0.20118 0.83509 0.1782 0.0
C3498 C 0.21853 0.83581 0.18857 0.0
C3499 C 0.22049 0.81981 0.19776 0.0
C3500 C 0.20568 0.80335 0.19679 0.0
C3501 C 0.21159 0.78824 0.20821 0.0
C3502 C 0.1994 0.78529 0.22534 0.0
C3503 C 0.2107 0.76801 0.19429 0.0
C3504 C 0.2319 0.79883 0.21586 0.0
C3505 C 0.23677 0.81695 0.20944 0.0
C3506 C 0.25485 0.82928 0.21419 0.0
C3507 C 0.2682 0.82306 0.22573 0.0
C3508 C 0.26362 0.80473 0.23278 0.0
C3509 C 0.2451 0.79249 0.22775 0.0
H3510 H 0.54464 0.8935 0.46172 0.0
H3511 H 0.52586 0.88007 0.51731 0.0
H3512 H 0.52787 0.91651 0.52961 0.0
H3513 H 0.57727 0.94149 0.4825 0.0
H3514 H 0.57208 0.95291 0.46197 0.0
H3515 H 0.57009 0.92603 0.45832 0.0
H3516 H 0.53559 0.91994 0.44352 0.0
H3517 H 0.53744 0.94678 0.44728 0.0
H3518 H 0.51919 0.93103 0.45774 0.0
H3519 H 0.53445 0.95581 0.53642 0.0
H3520 H 0.54147 0.99234 0.53551 0.0
H3521 H 0.55134 0.97889 0.47397 0.0
C3522 C 0.54114 0.8982 0.47657 0.0
C3523 C 0.53523 0.8838 0.48857 0.0
C3524 C 0.53041 0.89071 0.50778 0.0
C3525 C 0.53159 0.91143 0.51493 0.0
C3526 C 0.53739 0.92518 0.50264 0.0
C3527 C 0.54194 0.91873 0.4838 0.0
C3528 C 0.54723 0.93631 0.47321 0.0
C3529 C 0.56788 0.93936 0.46873 0.0
C3530 C 0.53407 0.93333 0.45432 0.0
C3531 C 0.54441 0.95362 0.48872 0.0
C3532 C 0.53931 0.94709 0.50586 0.0
C3533 C 0.53781 0.96086 0.52281 0.0
C3534 C 0.5415 0.98163 0.5221 0.0
C3535 C 0.54567 0.98851 0.50434 0.0
C3536 C 0.54727 0.97414 0.48754 0.0
H3537 H 0.5005 0.32843 0.68478 0.0
H3538 H 0.48552 0.27065 0.64429 0.0
H3539 H 0.45504 0.26297 0.65802 0.0
H3540 H 0.48103 0.31206 0.72606 0.0
H3541 H 0.47218 0.33418 0.73459 0.0
H3542 H 0.4921 0.33607 0.72032 0.0
H3543 H 0.47479 0.35118 0.69514 0.0
H3544 H 0.45472 0.3492 0.7093 0.0
H3545 H 0.45195 0.3375 0.68355 0.0
H3546 H 0.42628 0.26054 0.6774 0.0
H3547 H 0.40341 0.26266 0.70242 0.0
H3548 H 0.43678 0.32128 0.73124 0.0
C3549 C 0.49072 0.31429 0.67857 0.0
C3550 C 0.49576 0.30012 0.66341 0.0
C3551 C 0.4824 0.28171 0.65604 0.0
C3552 C 0.46485 0.27725 0.66365 0.0
C3553 C 0.46047 0.29134 0.67871 0.0
C3554 C 0.47303 0.30951 0.68612 0.0
C3555 C 0.46518 0.32155 0.70306 0.0
C3556 C 0.47841 0.32623 0.72214 0.0
C3557 C 0.46145 0.34101 0.69743 0.0
C3558 C 0.44677 0.30688 0.70471 0.0
C3559 C 0.44406 0.2898 0.6901 0.0
C3560 C 0.42823 0.27396 0.68876 0.0
C3561 C 0.41518 0.27534 0.70296 0.0
C3562 C 0.41799 0.29228 0.71857 0.0
C3563 C 0.43397 0.30834 0.71922 0.0
H3564 H 0.04529 0.84421 0.58636 0.0
H3565 H 0.99412 0.85867 0.60741 0.0
H3566 H 0.99777 0.88643 0.58879 0.0
H3567 H 0.07056 0.89605 0.5895 0.0
H3568 H 0.08225 0.89022 0.56765 0.0
H3569 H 0.07555 0.87144 0.58261 0.0
H3570 H 0.05678 0.84645 0.5521 0.0
H3571 H 0.06341 0.86508 0.53699 0.0
H3572 H 0.03896 0.85399 0.53807 0.0
H3573 H 0.00653 0.91191 0.56711 0.0
H3574 H 0.02 0.93374 0.54439 0.0
H3575 H 0.06646 0.90385 0.53911 0.0
C3576 C 0.03497 0.85337 0.5873 0.0
C3577 C 0.01939 0.84921 0.59832 0.0
C3578 C 0.00603 0.86136 0.59884 0.0
C3579 C 0.00805 0.87725 0.58842 0.0
C3580 C 0.02355 0.88087 0.57767 0.0
C3581 C 0.03683 0.86934 0.57712 0.0
C3582 C 0.05216 0.87632 0.56441 0.0
C3583 C 0.07126 0.88397 0.57678 0.0
C3584 C 0.05285 0.85945 0.54685 0.0
C3585 C 0.04531 0.89342 0.55766 0.0
C3586 C 0.0288 0.89581 0.5655 0.0
C3587 C 0.01955 0.91031 0.56102 0.0
C3588 C 0.02738 0.92271 0.54816 0.0
C3589 C 0.04436 0.92061 0.53997 0.0
C3590 C 0.05339 0.90574 0.5449 0.0
H3591 H 0.51163 0.80836 0.80685 0.0
H3592 H 0.50249 0.82167 0.86869 0.0
H3593 H 0.47043 0.82518 0.85959 0.0
H3594 H 0.4906 0.84264 0.79096 0.0
H3595 H 0.47934 0.82723 0.76785 0.0
H3596 H 0.50023 0.82227 0.77884 0.0
H3597 H 0.48294 0.78529 0.77832 0.0
H3598 H 0.46197 0.78998 0.76702 0.0
H3599 H 0.46124 0.78027 0.78959 0.0
H3600 H 0.44215 0.83223 0.84437 0.0
H3601 H 0.41736 0.84003 0.82358 0.0
H3602 H 0.44414 0.82134 0.77118 0.0
C3603 C 0.50253 0.81135 0.81831 0.0
C3604 C 0.50906 0.81453 0.83836 0.0
C3605 C 0.4973 0.81889 0.85324 0.0
C3606 C 0.47919 0.8209 0.84822 0.0
C3607 C 0.47318 0.8182 0.82827 0.0
C3608 C 0.48431 0.81315 0.81351 0.0
C3609 C 0.47487 0.81244 0.79331 0.0
C3610 C 0.48699 0.82702 0.7821 0.0
C3611 C 0.46996 0.7907 0.78136 0.0
C3612 C 0.4574 0.81941 0.79916 0.0
C3613 C 0.45656 0.82221 0.81937 0.0
C3614 C 0.44238 0.82969 0.82849 0.0
C3615 C 0.42847 0.83417 0.8166 0.0
C3616 C 0.42893 0.83125 0.79585 0.0
C3617 C 0.44359 0.82382 0.78703 0.0
H3618 H 0.47955 0.14045 0.08945 0.0
H3619 H 0.51406 0.19045 0.0688 0.0
H3620 H 0.52808 0.16683 0.04675 0.0
H3621 H 0.51055 0.11505 0.0953 0.0
H3622 H 0.49759 0.08951 0.08583 0.0
H3623 H 0.48532 0.10858 0.09498 0.0
H3624 H 0.46484 0.10162 0.06162 0.0
H3625 H 0.47645 0.08169 0.05284 0.0
H3626 H 0.47602 0.10143 0.03901 0.0
H3627 H 0.5438 0.14048 0.03465 0.0
H3628 H 0.55716 0.11039 0.02762 0.0
H3629 H 0.51279 0.07679 0.05583 0.0
C3630 C 0.48918 0.14608 0.07929 0.0
C3631 C 0.49565 0.16692 0.08026 0.0
C3632 C 0.50881 0.17433 0.06765 0.0
C3633 C 0.51681 0.16108 0.05517 0.0
C3634 C 0.51113 0.14058 0.05538 0.0
C3635 C 0.49714 0.13292 0.06655 0.0
C3636 C 0.49552 0.11059 0.06595 0.0
C3637 C 0.49738 0.10568 0.08676 0.0
C3638 C 0.47712 0.0981 0.05414 0.0
C3639 C 0.51218 0.10767 0.05483 0.0
C3640 C 0.52058 0.125 0.04836 0.0
C3641 C 0.53703 0.1266 0.03903 0.0
C3642 C 0.54466 0.10967 0.03542 0.0
C3643 C 0.53594 0.09172 0.04143 0.0
C3644 C 0.5197 0.09064 0.05143 0.0
H3645 H 0.19384 0.30868 0.34414 0.0
H3646 H 0.17822 0.34008 0.29909 0.0
H3647 H 0.20584 0.33377 0.28151 0.0
H3648 H 0.24327 0.32598 0.34623 0.0
H3649 H 0.24758 0.30212 0.35004 0.0
H3650 H 0.22691 0.30976 0.35832 0.0
H3651 H 0.20623 0.27618 0.33761 0.0
H3652 H 0.22708 0.26886 0.32935 0.0
H3653 H 0.20857 0.26987 0.31156 0.0
H3654 H 0.23428 0.3218 0.26848 0.0
H3655 H 0.26418 0.31112 0.26422 0.0
H3656 H 0.26059 0.2894 0.31928 0.0
C3657 C 0.19634 0.31432 0.3306 0.0
C3658 C 0.18409 0.32456 0.32264 0.0
C3659 C 0.18765 0.33208 0.30516 0.0
C3660 C 0.20308 0.32839 0.29509 0.0
C3661 C 0.21446 0.31728 0.30295 0.0
C3662 C 0.2114 0.31075 0.32052 0.0
C3663 C 0.22561 0.29952 0.32629 0.0
C3664 C 0.23649 0.30999 0.3464 0.0
C3665 C 0.21631 0.27729 0.32619 0.0
C3666 C 0.23771 0.30131 0.30958 0.0
C3667 C 0.2308 0.31099 0.29587 0.0
C3668 C 0.23974 0.31413 0.27906 0.0
C3669 C 0.25654 0.30782 0.27666 0.0
C3670 C 0.26417 0.29899 0.29126 0.0
C3671 C 0.25461 0.29559 0.30774 0.0
H3672 H 0.02098 0.07608 0.17592 0.0
H3673 H 0.9619 0.05733 0.15467 0.0
H3674 H 0.97025 0.05271 0.12048 0.0
H3675 H 0.03668 0.10288 0.13558 0.0
H3676 H 0.05814 0.09425 0.13338 0.0
H3677 H 0.04817 0.09685 0.15673 0.0
H3678 H 0.04788 0.05968 0.15784 0.0
H3679 H 0.05789 0.05703 0.13451 0.0
H3680 H 0.03623 0.0401 0.13745 0.0
H3681 H 0.9844 0.04921 0.08743 0.0
H3682 H 1.00296 0.04671 0.05893 0.0
H3683 H 0.05414 0.06713 0.09851 0.0
C3684 C 0.00974 0.07112 0.16411 0.0
C3685 C 0.99043 0.06702 0.16879 0.0
C3686 C 0.97664 0.0604 0.15228 0.0
C3687 C 0.98131 0.05778 0.13248 0.0
C3688 C 1.00013 0.06161 0.12844 0.0
C3689 C 0.01426 0.06811 0.14377 0.0
C3690 C 0.0334 0.07047 0.13479 0.0
C3691 C 0.04477 0.09242 0.14046 0.0
C3692 C 0.04451 0.05596 0.14156 0.0
C3693 C 0.02774 0.06456 0.11222 0.0
C3694 C 0.00839 0.05949 0.10912 0.0
C3695 C 0.99956 0.05319 0.08987 0.0
C3696 C 0.01042 0.0518 0.07349 0.0
C3697 C 0.03041 0.05671 0.07561 0.0
C3698 C 0.03905 0.06336 0.09568 0.0
H3699 H 0.28082 0.72765 0.46063 0.0
H3700 H 0.30964 0.68543 0.42831 0.0
H3701 H 0.30908 0.70246 0.39982 0.0
H3702 H 0.24896 0.72509 0.42306 0.0
H3703 H 0.24723 0.7511 0.4283 0.0
H3704 H 0.25421 0.73949 0.44791 0.0
H3705 H 0.28485 0.76744 0.45677 0.0
H3706 H 0.27786 0.77943 0.43735 0.0
H3707 H 0.30026 0.77262 0.43791 0.0
H3708 H 0.29981 0.71903 0.37336 0.0
H3709 H 0.28425 0.73583 0.35089 0.0
H3710 H 0.26047 0.76644 0.40026 0.0
C3711 C 0.28752 0.72243 0.44775 0.0
C3712 C 0.29529 0.70537 0.44648 0.0
C3713 C 0.30387 0.69873 0.42951 0.0
C3714 C 0.30358 0.70827 0.41331 0.0
C3715 C 0.2948 0.72438 0.4146 0.0
C3716 C 0.28712 0.73158 0.43147 0.0
C3717 C 0.27612 0.74705 0.42822 0.0
C3718 C 0.25542 0.74026 0.4321 0.0
C3719 C 0.28534 0.76787 0.4408 0.0
C3720 C 0.27808 0.74673 0.40662 0.0
C3721 C 0.28914 0.73382 0.39911 0.0
C3722 C 0.29156 0.7296 0.37913 0.0
C3723 C 0.28258 0.73907 0.36652 0.0
C3724 C 0.27129 0.75241 0.37402 0.0
C3725 C 0.26905 0.75629 0.39426 0.0
H3726 H 0.6264 0.06403 0.65601 0.0
H3727 H 0.63664 1.00399 0.63814 0.0
H3728 H 0.61013 0.99566 0.61264 0.0
H3729 H 0.57588 0.05228 0.64525 0.0
H3730 H 0.5759 0.07422 0.63444 0.0
H3731 H 0.59392 0.075 0.65357 0.0
H3732 H 0.61993 0.08538 0.63079 0.0
H3733 H 0.602 0.08545 0.61205 0.0
H3734 H 0.61892 0.07029 0.60649 0.0
H3735 H 0.58435 0.99384 0.58896 0.0
H3736 H 0.56677 1.0017 0.56129 0.0
H3737 H 0.57418 0.06352 0.59215 0.0
C3738 C 0.62316 0.04917 0.64667 0.0
C3739 C 0.63307 0.03438 0.64953 0.0
C3740 C 0.62865 0.01525 0.63674 0.0
C3741 C 0.61357 0.01032 0.62232 0.0
C3742 C 0.60342 0.02486 0.62063 0.0
C3743 C 0.60847 0.04416 0.63182 0.0
C3744 C 0.59728 0.05793 0.62467 0.0
C3745 C 0.58502 0.06528 0.64043 0.0
C3746 C 0.6103 0.0758 0.6181 0.0
C3747 C 0.58547 0.04339 0.60738 0.0
C3748 C 0.5888 0.0242 0.60589 0.0
C3749 C 0.5813 0.00863 0.59005 0.0
C3750 C 0.57128 0.01317 0.57451 0.0
C3751 C 0.56913 0.03307 0.57507 0.0
C3752 C 0.57527 0.04809 0.592 0.0
H3753 H 0.3021 0.35474 0.91729 0.0
H3754 H 0.31291 0.29961 0.93227 0.0
H3755 H 0.31461 0.28618 0.89685 0.0
H3756 H 0.27356 0.33123 0.87084 0.0
H3757 H 0.28284 0.352 0.85899 0.0
H3758 H 0.28146 0.35639 0.88529 0.0
H3759 H 0.31709 0.37295 0.89076 0.0
H3760 H 0.31858 0.36841 0.8645 0.0
H3761 H 0.33351 0.35894 0.88031 0.0
H3762 H 0.31377 0.2784 0.85838 0.0
H3763 H 0.31223 0.27837 0.82235 0.0
H3764 H 0.3057 0.3401 0.83406 0.0
C3765 C 0.30459 0.33972 0.91315 0.0
C3766 C 0.30727 0.32822 0.92767 0.0
C3767 C 0.31087 0.30878 0.9215 0.0
C3768 C 0.31179 0.30099 0.90137 0.0
C3769 C 0.30929 0.31286 0.88746 0.0
C3770 C 0.30583 0.33187 0.8932 0.0
C3771 C 0.30419 0.34198 0.87565 0.0
C3772 C 0.28434 0.34561 0.87251 0.0
C3773 C 0.31925 0.36174 0.87795 0.0
C3774 C 0.30768 0.32598 0.85916 0.0
C3775 C 0.31018 0.30903 0.86604 0.0
C3776 C 0.31224 0.29182 0.853 0.0
C3777 C 0.31161 0.29198 0.83254 0.0
C3778 C 0.30969 0.30951 0.82537 0.0
C3779 C 0.30776 0.32663 0.83904 0.0
H3780 H 0.01856 0.08732 0.38864 0.0
H3781 H 0.96894 0.0381 0.37728 0.0
H3782 H 0.97762 0.02762 0.40793 0.0
H3783 H 0.04941 0.05891 0.41037 0.0
H3784 H 0.06172 0.07972 0.42931 0.0
H3785 H 0.05216 0.08447 0.40646 0.0
H3786 H 0.03354 0.10787 0.42584 0.0
H3787 H 0.04313 0.10326 0.44873 0.0
H3788 H 0.01807 0.09845 0.4432 0.0
H3789 H 0.9899 0.02264 0.44074 0.0
H3790 H 1.00528 0.02279 0.4727 0.0
H3791 H 0.04975 0.07276 0.46589 0.0
C3792 C 0.00945 0.07436 0.3926 0.0
C3793 C 0.99282 0.06354 0.37967 0.0
C3794 C 0.98174 0.04667 0.38605 0.0
C3795 C 0.98657 0.04056 0.40376 0.0
C3796 C 1.00289 0.05111 0.41576 0.0
C3797 C 0.01432 0.06769 0.41058 0.0
C3798 C 0.03121 0.07588 0.42668 0.0
C3799 C 0.04973 0.07468 0.41766 0.0
C3800 C 0.03151 0.09766 0.4367 0.0
C3801 C 0.02731 0.06138 0.44155 0.0
C3802 C 0.01074 0.04739 0.43467 0.0
C3803 C 1.00318 0.03319 0.44582 0.0
C3804 C 0.01241 0.03316 0.46427 0.0
C3805 C 0.02989 0.0464 0.47207 0.0
C3806 C 0.03723 0.06118 0.46027 0.0
H3807 H 0.28309 0.70337 0.63434 0.0
H3808 H 0.28209 0.75044 0.60069 0.0
H3809 H 0.28755 0.77609 0.63189 0.0
H3810 H 0.26028 0.72288 0.67567 0.0
H3811 H 0.27507 0.71522 0.69318 0.0
H3812 H 0.27006 0.70118 0.66824 0.0
H3813 H 0.30585 0.70642 0.66479 0.0
H3814 H 0.31091 0.72072 0.68963 0.0
H3815 H 0.32036 0.73169 0.66946 0.0
H3816 H 0.29435 0.7963 0.66751 0.0
H3817 H 0.30004 0.80859 0.7039 0.0
H3818 H 0.2973 0.74716 0.71186 0.0
C3819 C 0.28366 0.71905 0.63367 0.0
C3820 C 0.28189 0.7252 0.61557 0.0
C3821 C 0.28316 0.74574 0.61477 0.0
C3822 C 0.28635 0.76027 0.63229 0.0
C3823 C 0.28838 0.75375 0.6501 0.0
C3824 C 0.28701 0.73357 0.6508 0.0
C3825 C 0.29029 0.73024 0.67145 0.0
C3826 C 0.27289 0.71658 0.67749 0.0
C3827 C 0.3079 0.72177 0.67397 0.0
C3828 C 0.2934 0.75162 0.6824 0.0
C3829 C 0.29244 0.76514 0.67005 0.0
C3830 C 0.29505 0.78583 0.67732 0.0
C3831 C 0.29833 0.79267 0.69786 0.0
C3832 C 0.29878 0.7787 0.71048 0.0
C3833 C 0.29663 0.75811 0.70257 0.0
H3834 H 0.65651 0.06861 0.84274 0.0
H3835 H 0.62469 1.00709 0.8219 0.0
H3836 H 0.60852 0.00877 0.85246 0.0
H3837 H 0.65959 0.06713 0.89689 0.0
H3838 H 0.65668 0.09268 0.90319 0.0
H3839 H 0.66847 0.08523 0.88184 0.0
H3840 H 0.64519 0.09745 0.85982 0.0
H3841 H 0.63337 0.10492 0.88102 0.0
H3842 H 0.62033 0.08754 0.85977 0.0
H3843 H 0.592 0.01927 0.88109 0.0
H3844 H 0.57665 0.0373 0.90689 0.0
H3845 H 0.61995 0.09191 0.9098 0.0
C3846 C 0.64642 0.05537 0.84488 0.0
C3847 C 0.64168 0.03775 0.8302 0.0
C3848 C 0.62849 0.02064 0.83323 0.0
C3849 C 0.61935 0.02145 0.85049 0.0
C3850 C 0.62388 0.03937 0.86445 0.0
C3851 C 0.63725 0.05596 0.86193 0.0
C3852 C 0.63795 0.07418 0.87786 0.0
C3853 C 0.65679 0.08015 0.89071 0.0
C3854 C 0.63396 0.09205 0.86908 0.0
C3855 C 0.62209 0.06559 0.88908 0.0
C3856 C 0.6144 0.04541 0.88134 0.0
C3857 C 0.59822 0.03487 0.88771 0.0
C3858 C 0.5896 0.04527 0.90232 0.0
C3859 C 0.59726 0.06597 0.9104 0.0
C3860 C 0.61383 0.07611 0.90387 0.0
H3861 H 0.31439 0.32044 0.13001 0.0
H3862 H 0.27876 0.36346 0.13656 0.0
H3863 H 0.27255 0.35662 0.16966 0.0
H3864 H 0.28573 0.28429 0.15521 0.0
H3865 H 0.3055 0.27778 0.16701 0.0
H3866 H 0.30734 0.28586 0.14363 0.0
H3867 H 0.33642 0.31416 0.15873 0.0
H3868 H 0.33467 0.30609 0.1821 0.0
H3869 H 0.33472 0.3319 0.18068 0.0
H3870 H 0.27135 0.34672 0.20297 0.0
H3871 H 0.2742 0.33286 0.2335 0.0
H3872 H 0.30894 0.29479 0.20549 0.0
C3873 C 0.30531 0.32842 0.13844 0.0
C3874 C 0.29698 0.34246 0.1305 0.0
C3875 C 0.2851 0.35246 0.14207 0.0
C3876 C 0.28154 0.34874 0.16099 0.0
C3877 C 0.28981 0.33482 0.16834 0.0
C3878 C 0.30136 0.32467 0.15742 0.0
C3879 C 0.30828 0.31028 0.16889 0.0
C3880 C 0.30129 0.28825 0.15803 0.0
C3881 C 0.3298 0.31595 0.17283 0.0
C3882 C 0.29899 0.31417 0.18795 0.0
C3883 C 0.28849 0.32848 0.18734 0.0
C3884 C 0.27932 0.3353 0.20351 0.0
C3885 C 0.28096 0.32736 0.22077 0.0
C3886 C 0.29141 0.31252 0.22163 0.0
C3887 C 0.30048 0.30581 0.20498 0.0
H3888 H 0.22392 0.97337 0.00627 0.0
H3889 H 0.27198 0.02185 0.03053 0.0
H3890 H 0.25114 0.04548 0.03759 0.0
H3891 H 0.195 1.00476 0.98526 0.0
H3892 H 0.17356 0.99065 0.99232 0.0
H3893 H 0.19242 0.97838 0.9861 0.0
H3894 H 0.19252 0.96708 0.01989 0.0
H3895 H 0.17367 0.97921 0.02618 0.0
H3896 H 0.19518 0.98578 0.04224 0.0
H3897 H 0.22572 0.06243 0.04566 0.0
H3898 H 0.19657 0.07178 0.05602 0.0
H3899 H 0.16438 0.01249 0.02712 0.0
C3900 C 0.22995 0.98914 0.01248 0.0
C3901 C 0.24939 0.99613 0.01755 0.0
C3902 C 0.25704 0.01654 0.02633 0.0
C3903 C 0.24536 0.03 0.03029 0.0
C3904 C 0.22614 0.02269 0.02538 0.0
C3905 C 0.21842 1.00275 0.01673 0.0
C3906 C 0.19719 0.99831 0.01514 0.0
C3907 C 0.18906 0.9927 0.99341 0.0
C3908 C 0.18918 0.98162 0.02655 0.0
C3909 C 0.19424 0.01869 0.02495 0.0
C3910 C 0.21117 0.03258 0.03037 0.0
C3911 C 0.21233 0.05188 0.04118 0.0
C3912 C 0.19578 0.05704 0.04704 0.0
C3913 C 0.17839 0.04292 0.04213 0.0
C3914 C 0.17753 0.02369 0.03056 0.0
H3915 H 0.68678 0.62258 0.97997 0.0
H3916 H 0.71087 0.62162 0.03847 0.0
H3917 H 0.68161 0.59922 0.04423 0.0
H3918 H 0.64046 0.62381 0.99323 0.0
H3919 H 0.62834 0.60737 0.97099 0.0
H3920 H 0.65161 0.62238 0.97056 0.0
H3921 H 0.66279 0.59007 0.9566 0.0
H3922 H 0.63954 0.57494 0.95709 0.0
H3923 H 0.6594 0.56942 0.96974 0.0
H3924 H 0.64995 0.57814 0.04478 0.0
H3925 H 0.61653 0.56085 0.04075 0.0
H3926 H 0.61097 0.57463 0.9822 0.0
C3927 C 0.68594 0.61743 0.99388 0.0
C3928 C 0.70128 0.62408 0.00882 0.0
C3929 C 0.6994 0.61709 0.02688 0.0
C3930 C 0.68283 0.60418 0.03026 0.0
C3931 C 0.66799 0.59811 0.01545 0.0
C3932 C 0.66925 0.60448 0.99761 0.0
C3933 C 0.65065 0.5962 0.98468 0.0
C3934 C 0.64227 0.61347 0.97957 0.0
C3935 C 0.65325 0.58181 0.96591 0.0
C3936 C 0.63871 0.58469 0.9983 0.0
C3937 C 0.64927 0.58583 0.01583 0.0
C3938 C 0.64159 0.57703 0.03107 0.0
C3939 C 0.62256 0.5672 0.02864 0.0
C3940 C 0.61115 0.56617 0.01114 0.0
C3941 C 0.61943 0.57479 0.99558 0.0
H3942 H 0.72943 0.40428 0.24269 0.0
H3943 H 0.73988 0.43137 0.30499 0.0
H3944 H 0.75744 0.40603 0.31039 0.0
H3945 H 0.72434 0.35154 0.24938 0.0
H3946 H 0.73609 0.34389 0.22807 0.0
H3947 H 0.72398 0.36409 0.22864 0.0
H3948 H 0.75438 0.38764 0.22173 0.0
H3949 H 0.76654 0.36747 0.22123 0.0
H3950 H 0.77556 0.39132 0.23778 0.0
H3951 H 0.7744 0.37557 0.30991 0.0
H3952 H 0.78781 0.34528 0.30297 0.0
H3953 H 0.76883 0.33713 0.24114 0.0
C3954 C 0.7354 0.4051 0.25754 0.0
C3955 C 0.73238 0.42061 0.27338 0.0
C3956 C 0.74091 0.42011 0.29235 0.0
C3957 C 0.75134 0.40554 0.29566 0.0
C3958 C 0.75382 0.39067 0.28 0.0
C3959 C 0.74605 0.39034 0.26121 0.0
C3960 C 0.75082 0.37245 0.247 0.0
C3961 C 0.73273 0.35708 0.23771 0.0
C3962 C 0.76251 0.38018 0.23097 0.0
C3963 C 0.76251 0.36301 0.26057 0.0
C3964 C 0.764 0.37378 0.27963 0.0
C3965 C 0.77349 0.3675 0.29486 0.0
C3966 C 0.78147 0.35017 0.29072 0.0
C3967 C 0.78079 0.33883 0.27128 0.0
C3968 C 0.77068 0.34557 0.25613 0.0
H3969 H 0.93387 0.5285 0.53648 0.0
H3970 H 0.91941 0.463 0.52317 0.0
H3971 H 0.95103 0.46258 0.51305 0.0
H3972 H 0.96434 0.53612 0.49736 0.0
H3973 H 0.98167 0.55656 0.51239 0.0
H3974 H 0.95741 0.55261 0.5174 0.0
H3975 H 0.96594 0.54988 0.55336 0.0
H3976 H 0.99029 0.55485 0.54894 0.0
H3977 H 0.98005 0.53252 0.55816 0.0
H3978 H 0.98424 0.46874 0.50696 0.0
H3979 H 0.0186 0.4815 0.50818 0.0
H3980 H 0.01154 0.54267 0.52544 0.0
C3981 C 0.93748 0.51418 0.53136 0.0
C3982 C 0.92447 0.49579 0.53063 0.0
C3983 C 0.92944 0.4772 0.52398 0.0
C3984 C 0.94721 0.47681 0.51799 0.0
C3985 C 0.9598 0.49514 0.51878 0.0
C3986 C 0.95533 0.5135 0.52556 0.0
C3987 C 0.97212 0.53086 0.52671 0.0
C3988 C 0.96868 0.54486 0.5126 0.0
C3989 C 0.97741 0.5427 0.54806 0.0
C3990 C 0.98666 0.51927 0.51982 0.0
C3991 C 0.9792 0.49873 0.51503 0.0
C3992 C 0.99027 0.48482 0.51022 0.0
C3993 C 0.00967 0.49213 0.51094 0.0
C3994 C 0.01756 0.51305 0.51627 0.0
C3995 C 1.00587 0.52673 0.5204 0.0
H3996 H 0.35611 0.13646 0.32437 0.0
H3997 H 0.39994 0.13101 0.28565 0.0
H3998 H 0.38606 0.14926 0.26328 0.0
H3999 H 0.32059 0.12579 0.29134 0.0
H4000 H 0.30756 0.14388 0.3016 0.0
H4001 H 0.32332 0.13575 0.31753 0.0
H4002 H 0.34168 0.17259 0.33062 0.0
H4003 H 0.32549 0.18117 0.31541 0.0
H4004 H 0.35035 0.1884 0.31343 0.0
H4005 H 0.36333 0.15967 0.24162 0.0
H4006 H 0.33674 0.16966 0.22535 0.0
H4007 H 0.3083 0.16924 0.27866 0.0
C4008 C 0.36341 0.14046 0.3119 0.0
C4009 C 0.37918 0.13295 0.30678 0.0
C4010 C 0.38813 0.13736 0.28995 0.0
C4011 C 0.38023 0.14747 0.27709 0.0
C4012 C 0.36375 0.1534 0.28171 0.0
C4013 C 0.35587 0.15085 0.29914 0.0
C4014 C 0.33728 0.15694 0.29975 0.0
C4015 C 0.32126 0.13954 0.30272 0.0
C4016 C 0.33879 0.17591 0.31574 0.0
C4017 C 0.3352 0.16153 0.2793 0.0
C4018 C 0.35067 0.15961 0.26919 0.0
C4019 C 0.35131 0.16169 0.24951 0.0
C4020 C 0.33606 0.16686 0.24026 0.0
C4021 C 0.32052 0.16967 0.25074 0.0
C4022 C 0.31998 0.16673 0.27035 0.0
H4023 H 0.36983 0.12175 0.52173 0.0
H4024 H 0.40177 0.16698 0.49283 0.0
H4025 H 0.42929 0.15168 0.49536 0.0
H4026 H 0.40632 0.12051 0.55625 0.0
H4027 H 0.39938 0.09369 0.55541 0.0
H4028 H 0.38208 0.10743 0.55003 0.0
H4029 H 0.37215 0.08335 0.51607 0.0
H4030 H 0.38937 0.06944 0.5214 0.0
H4031 H 0.38963 0.07982 0.49922 0.0
H4032 H 0.45438 0.13299 0.50448 0.0
H4033 H 0.47365 0.11193 0.51729 0.0
H4034 H 0.42394 0.07755 0.53762 0.0
C4035 C 0.38257 0.12836 0.51579 0.0
C4036 C 0.38369 0.1456 0.50715 0.0
C4037 C 0.40056 0.15368 0.49939 0.0
C4038 C 0.41628 0.14514 0.50084 0.0
C4039 C 0.41478 0.12834 0.50982 0.0
C4040 C 0.39823 0.11991 0.51691 0.0
C4041 C 0.40021 0.1022 0.52632 0.0
C4042 C 0.39679 0.1062 0.5483 0.0
C4043 C 0.38706 0.08254 0.51507 0.0
C4044 C 0.42055 0.1021 0.52377 0.0
C4045 C 0.42883 0.11729 0.51432 0.0
C4046 C 0.4479 0.12081 0.51157 0.0
C4047 C 0.45874 0.10861 0.51882 0.0
C4048 C 0.45049 0.09288 0.52858 0.0
C4049 C 0.43099 0.08954 0.53062 0.0
H4050 H 0.75571 0.63042 0.26067 0.0
H4051 H 0.71134 0.64082 0.29753 0.0
H4052 H 0.72329 0.67748 0.30109 0.0
H4053 H 0.79213 0.67279 0.28803 0.0
H4054 H 0.80283 0.67964 0.26657 0.0
H4055 H 0.79078 0.65386 0.26608 0.0
H4056 H 0.76961 0.65437 0.23521 0.0
H4057 H 0.78165 0.68012 0.23554 0.0
H4058 H 0.75651 0.67376 0.23587 0.0
H4059 H 0.73926 0.71399 0.30018 0.0
H4060 H 0.75877 0.74669 0.29632 0.0
H4061 H 0.79514 0.71533 0.26191 0.0
C4062 C 0.74844 0.64037 0.26947 0.0
C4063 C 0.73237 0.632 0.27896 0.0
C4064 C 0.72368 0.64614 0.29031 0.0
C4065 C 0.73037 0.66729 0.29235 0.0
C4066 C 0.74616 0.67492 0.28313 0.0
C4067 C 0.75522 0.66192 0.27196 0.0
C4068 C 0.77219 0.6745 0.26398 0.0
C4069 C 0.79058 0.66992 0.27162 0.0
C4070 C 0.76985 0.67044 0.2413 0.0
C4071 C 0.7713 0.69645 0.27253 0.0
C4072 C 0.7559 0.69615 0.28328 0.0
C4073 C 0.75142 0.71424 0.29194 0.0
C4074 C 0.76271 0.73296 0.28965 0.0
C4075 C 0.7789 0.73418 0.27909 0.0
C4076 C 0.78319 0.71534 0.27046 0.0
H4077 H 0.82972 0.43575 0.75784 0.0
H4078 H 0.85947 0.44801 0.81622 0.0
H4079 H 0.85072 0.41191 0.81765 0.0
H4080 H 0.79058 0.39296 0.76775 0.0
H4081 H 0.78972 0.37902 0.74295 0.0
H4082 H 0.79552 0.40625 0.74769 0.0
H4083 H 0.82634 0.40569 0.73096 0.0
H4084 H 0.82078 0.37854 0.72652 0.0
H4085 H 0.8427 0.3925 0.74007 0.0
H4086 H 0.8507 0.37655 0.80656 0.0
H4087 H 0.84523 0.34051 0.791 0.0
H4088 H 0.80867 0.34948 0.74433 0.0
C4089 C 0.8336 0.43078 0.77118 0.0
C4090 C 0.84506 0.44429 0.78698 0.0
C4091 C 0.85043 0.43764 0.80415 0.0
C4092 C 0.84563 0.41728 0.80506 0.0
C4093 C 0.83508 0.40409 0.7889 0.0
C4094 C 0.82833 0.41049 0.77263 0.0
C4095 C 0.81814 0.39276 0.75692 0.0
C4096 C 0.79724 0.39275 0.75365 0.0
C4097 C 0.82756 0.39237 0.73748 0.0
C4098 C 0.821 0.37558 0.7667 0.0
C4099 C 0.83147 0.38259 0.78477 0.0
C4100 C 0.8406 0.37039 0.79379 0.0
C4101 C 0.83725 0.35002 0.78517 0.0
C4102 C 0.82395 0.34207 0.76876 0.0
C4103 C 0.8167 0.35506 0.75856 0.0
H4104 H 0.06171 0.91557 0.07894 0.0
H4105 H 0.1014 0.90234 0.03695 0.0
H4106 H 0.0975 0.93147 0.0222 0.0
H4107 H 0.03089 0.93265 0.04394 0.0
H4108 H 0.02591 0.9514 0.06329 0.0
H4109 H 0.03085 0.92844 0.06895 0.0
H4110 H 0.05757 0.95005 0.09526 0.0
H4111 H 0.05261 0.97279 0.08917 0.0
H4112 H 0.07596 0.96843 0.08787 0.0
H4113 H 0.08852 0.96294 0.01142 0.0
H4114 H 0.07916 0.9951 0.00942 0.0
H4115 H 0.0481 0.98938 0.0604 0.0
C4116 C 0.06943 0.91849 0.06645 0.0
C4117 C 0.08187 0.90622 0.05925 0.0
C4118 C 0.09189 0.91129 0.04308 0.0
C4119 C 0.08961 0.92782 0.03438 0.0
C4120 C 0.07719 0.93945 0.04184 0.0
C4121 C 0.0674 0.93502 0.05766 0.0
C4122 C 0.05558 0.95036 0.06358 0.0
C4123 C 0.03457 0.9401 0.05971 0.0
C4124 C 0.06076 0.96105 0.08526 0.0
C4125 C 0.06104 0.96479 0.04947 0.0
C4126 C 0.07288 0.95781 0.03642 0.0
C4127 C 0.07921 0.96838 0.02161 0.0
C4128 C 0.07367 0.98661 0.02043 0.0
C4129 C 0.06234 0.99458 0.03432 0.0
C4130 C 0.05613 0.98342 0.04906 0.0
H4131 H 0.93259 0.25796 0.83693 0.0
H4132 H 0.91938 0.28646 0.89393 0.0
H4133 H 0.88981 0.29065 0.87848 0.0
H4134 H 0.915 0.29011 0.80848 0.0
H4135 H 0.90491 0.27056 0.78743 0.0
H4136 H 0.92461 0.26804 0.80277 0.0
H4137 H 0.90571 0.23365 0.80838 0.0
H4138 H 0.88596 0.23609 0.79301 0.0
H4139 H 0.88311 0.23211 0.81786 0.0
H4140 H 0.86109 0.2909 0.85775 0.0
H4141 H 0.83667 0.29147 0.83264 0.0
H4142 H 0.86817 0.26657 0.78679 0.0
C4143 C 0.92336 0.26491 0.84615 0.0
C4144 C 0.92857 0.27188 0.86687 0.0
C4145 C 0.91603 0.28108 0.87818 0.0
C4146 C 0.89904 0.28344 0.8695 0.0
C4147 C 0.89444 0.2767 0.84922 0.0
C4148 C 0.90622 0.26776 0.83755 0.0
C4149 C 0.89788 0.26277 0.81589 0.0
C4150 C 0.91141 0.27352 0.80287 0.0
C4151 C 0.89288 0.23979 0.80833 0.0
C4152 C 0.88004 0.27103 0.81725 0.0
C4153 C 0.87823 0.27834 0.83681 0.0
C4154 C 0.86263 0.28565 0.84236 0.0
C4155 C 0.84875 0.28605 0.82771 0.0
C4156 C 0.85046 0.27997 0.80725 0.0
C4157 C 0.86638 0.27193 0.80208 0.0
H4158 H 0.57157 0.19678 0.53111 0.0
H4159 H 0.59417 0.20452 0.59197 0.0
H4160 H 0.59213 0.16789 0.58768 0.0
H4161 H 0.53919 0.14875 0.52888 0.0
H4162 H 0.54301 0.13829 0.50405 0.0
H4163 H 0.54614 0.1652 0.51169 0.0
H4164 H 0.57998 0.1704 0.50116 0.0
H4165 H 0.57691 0.14346 0.49364 0.0
H4166 H 0.59621 0.15766 0.51128 0.0
H4167 H 0.58439 0.12999 0.57813 0.0
H4168 H 0.57412 0.0938 0.56281 0.0
H4169 H 0.56074 0.10988 0.5069 0.0
C4170 C 0.57613 0.19071 0.54347 0.0
C4171 C 0.58312 0.20364 0.56193 0.0
C4172 C 0.58895 0.19505 0.5777 0.0
C4173 C 0.5878 0.1742 0.57541 0.0
C4174 C 0.58103 0.1619 0.55712 0.0
C4175 C 0.57546 0.16979 0.54131 0.0
C4176 C 0.56883 0.153 0.52323 0.0
C4177 C 0.54806 0.15121 0.51658 0.0
C4178 C 0.58123 0.15634 0.50633 0.0
C4179 C 0.57147 0.13459 0.53146 0.0
C4180 C 0.57827 0.14008 0.55112 0.0
C4181 C 0.57986 0.12559 0.56251 0.0
C4182 C 0.57437 0.10501 0.55361 0.0
C4183 C 0.56828 0.09898 0.53326 0.0
C4184 C 0.56663 0.11408 0.52216 0.0
H4185 H 0.63055 0.80239 0.38804 0.0
H4186 H 0.59909 0.74656 0.35082 0.0
H4187 H 0.6259 0.7455 0.3311 0.0
H4188 H 0.65152 0.82443 0.3497 0.0
H4189 H 0.67386 0.83588 0.36373 0.0
H4190 H 0.6529 0.83123 0.37624 0.0
H4191 H 0.6682 0.81066 0.39758 0.0
H4192 H 0.68916 0.81505 0.38494 0.0
H4193 H 0.67703 0.78961 0.38571 0.0
H4194 H 0.65607 0.7509 0.31414 0.0
H4195 H 0.68517 0.76448 0.29957 0.0
H4196 H 0.69669 0.81775 0.34592 0.0
C4197 C 0.62922 0.7899 0.37577 0.0
C4198 C 0.61246 0.77437 0.37141 0.0
C4199 C 0.61169 0.75839 0.35509 0.0
C4200 C 0.62694 0.75767 0.34362 0.0
C4201 C 0.64317 0.77306 0.34839 0.0
C4202 C 0.64438 0.78897 0.36401 0.0
C4203 C 0.66312 0.80412 0.36531 0.0
C4204 C 0.66016 0.82516 0.36363 0.0
C4205 C 0.67508 0.80491 0.38453 0.0
C4206 C 0.67178 0.79478 0.34741 0.0
C4207 C 0.66029 0.77652 0.33823 0.0
C4208 C 0.6652 0.76514 0.32131 0.0
C4209 C 0.68188 0.77287 0.31319 0.0
C4210 C 0.69344 0.79202 0.32169 0.0
C4211 C 0.68836 0.8029 0.33925 0.0
H4212 H 0.07692 0.2186 0.43051 0.0
H4213 H 0.11643 0.26257 0.47439 0.0
H4214 H 0.11248 0.23872 0.49726 0.0
H4215 H 0.04508 0.20147 0.4631 0.0
H4216 H 0.03957 0.17534 0.45084 0.0
H4217 H 0.0472 0.19489 0.43702 0.0
H4218 H 0.07401 0.17803 0.42527 0.0
H4219 H 0.06656 0.15848 0.43923 0.0
H4220 H 0.09039 0.17323 0.44324 0.0
H4221 H 0.10255 0.21186 0.5164 0.0
H4222 H 0.08595 0.18382 0.53132 0.0
H4223 H 0.05232 0.15707 0.47578 0.0
C4224 C 0.08485 0.22312 0.44487 0.0
C4225 C 0.09717 0.24238 0.45056 0.0
C4226 C 0.10726 0.24774 0.46951 0.0
C4227 C 0.10508 0.23431 0.48264 0.0
C4228 C 0.09282 0.2155 0.47661 0.0
C4229 C 0.08285 0.20985 0.4582 0.0
C4230 C 0.06968 0.18921 0.45596 0.0
C4231 C 0.04917 0.19031 0.45148 0.0
C4232 C 0.07551 0.17382 0.43998 0.0
C4233 C 0.07313 0.18467 0.47638 0.0
C4234 C 0.08686 0.19988 0.48786 0.0
C4235 C 0.09194 0.19973 0.50753 0.0
C4236 C 0.08248 0.18383 0.51589 0.0
C4237 C 0.06807 0.16844 0.50462 0.0
C4238 C 0.0635 0.16864 0.48454 0.0
H4239 H 0.59586 0.23853 0.21228 0.0
H4240 H 0.61321 0.29547 0.19257 0.0
H4241 H 0.6456 0.29864 0.20656 0.0
H4242 H 0.62208 0.25157 0.25705 0.0
H4243 H 0.62837 0.22765 0.2565 0.0
H4244 H 0.60708 0.22868 0.24297 0.0
H4245 H 0.61792 0.21096 0.21081 0.0
H4246 H 0.63935 0.20989 0.22423 0.0
H4247 H 0.64027 0.22166 0.2029 0.0
H4248 H 0.67478 0.29752 0.22564 0.0
H4249 H 0.69915 0.29227 0.24876 0.0
H4250 H 0.66334 0.23514 0.25466 0.0
C4251 C 0.60656 0.2514 0.21045 0.0
C4252 C 0.60205 0.26679 0.20143 0.0
C4253 C 0.61634 0.28365 0.19972 0.0
C4254 C 0.6348 0.28547 0.20738 0.0
C4255 C 0.63872 0.27014 0.21642 0.0
C4256 C 0.62506 0.25336 0.21784 0.0
C4257 C 0.63271 0.2397 0.22939 0.0
C4258 C 0.62191 0.23675 0.24755 0.0
C4259 C 0.63256 0.21934 0.21604 0.0
C4260 C 0.65249 0.25207 0.23528 0.0
C4261 C 0.65577 0.26935 0.22727 0.0
C4262 C 0.67255 0.28385 0.23169 0.0
C4263 C 0.68629 0.28072 0.24483 0.0
C4264 C 0.68312 0.26323 0.25343 0.0
C4265 C 0.66609 0.24865 0.24835 0.0
H4266 H 0.62554 0.94663 0.93386 0.0
H4267 H 0.62815 0.91281 0.98059 0.0
H4268 H 0.61551 0.93757 1.00271 0.0
H4269 H 0.63412 1.00028 0.97036 0.0
H4270 H 0.6185 0.00801 0.95376 0.0
H4271 H 0.63364 0.99196 0.94408 0.0
H4272 H 0.60442 0.96653 0.92493 0.0
H4273 H 0.58899 0.98168 0.93538 0.0
H4274 H 0.58561 0.95579 0.93837 0.0
H4275 H 0.59062 0.95419 0.01214 0.0
H4276 H 0.56697 0.97437 0.01707 0.0
H4277 H 0.58487 1.00352 0.9686 0.0
C4278 C 0.62494 0.94557 0.94927 0.0
C4279 C 0.6279 0.92819 0.95581 0.0
C4280 C 0.62627 0.92638 0.97568 0.0
C4281 C 0.61889 0.94023 0.98821 0.0
C4282 C 0.61403 0.95604 0.9807 0.0
C4283 C 0.61804 0.95968 0.96216 0.0
C4284 C 0.60947 0.97655 0.95712 0.0
C4285 C 0.62485 0.99532 0.95629 0.0
C4286 C 0.59635 0.9697 0.93781 0.0
C4287 C 0.59852 0.98022 0.97479 0.0
C4288 C 0.6012 0.96797 0.98799 0.0
C4289 C 0.58969 0.96527 1.00307 0.0
C4290 C 0.57636 0.97686 0.00586 0.0
C4291 C 0.57536 0.99172 0.99446 0.0
C4292 C 0.58595 0.99283 0.9781 0.0
H4293 H 0.92963 0.75819 0.73973 0.0
H4294 H 0.91451 0.7691 0.68173 0.0
H4295 H 0.88449 0.7756 0.69245 0.0
H4296 H 0.8807 0.73381 0.74863 0.0
H4297 H 0.88436 0.74504 0.77451 0.0
H4298 H 0.90374 0.73896 0.76162 0.0
H4299 H 0.92222 0.77615 0.77318 0.0
H4300 H 0.90266 0.78251 0.78551 0.0
H4301 H 0.91223 0.79628 0.76711 0.0
H4302 H 0.85832 0.78363 0.70938 0.0
H4303 H 0.834 0.78922 0.73131 0.0
H4304 H 0.86545 0.77379 0.7791 0.0
C4305 C 0.91968 0.76144 0.72929 0.0
C4306 C 0.92402 0.76323 0.71002 0.0
C4307 C 0.9111 0.76772 0.69657 0.0
C4308 C 0.89415 0.77145 0.70251 0.0
C4309 C 0.8905 0.77046 0.72185 0.0
C4310 C 0.90259 0.76518 0.735 0.0
C4311 C 0.89522 0.76584 0.7551 0.0
C4312 C 0.89074 0.74465 0.76026 0.0
C4313 C 0.9089 0.78111 0.77117 0.0
C4314 C 0.8775 0.77299 0.75124 0.0
C4315 C 0.87515 0.77545 0.73192 0.0
C4316 C 0.85993 0.7818 0.72456 0.0
C4317 C 0.84637 0.7852 0.73719 0.0
C4318 C 0.84835 0.78256 0.75696 0.0
C4319 C 0.86405 0.77639 0.76415 0.0
H4320 H 0.09864 0.99506 0.87031 0.0
H4321 H 0.14198 0.05053 0.88144 0.0
H4322 H 0.13282 0.05875 0.915 0.0
H4323 H 0.06357 0.01636 0.89829 0.0
H4324 H 0.05463 0.99441 0.90867 0.0
H4325 H 0.06453 0.99162 0.88529 0.0
H4326 H 0.08769 0.97284 0.89883 0.0
H4327 H 0.07783 0.97555 0.92225 0.0
H4328 H 0.10265 0.98461 0.92121 0.0
H4329 H 0.12107 0.06075 0.94869 0.0
H4330 H 0.10517 0.05885 0.97857 0.0
H4331 H 0.06526 1.00471 0.94814 0.0
C4332 C 0.10627 0.00893 0.87981 0.0
C4333 C 0.12134 0.02211 0.87247 0.0
C4334 C 0.13047 0.04009 0.88591 0.0
C4335 C 0.12536 0.04491 0.90534 0.0
C4336 C 0.11067 0.03191 0.91196 0.0
C4337 C 0.10097 0.01434 0.89961 0.0
C4338 C 0.08528 1.00362 0.91092 0.0
C4339 C 0.06584 1.00137 0.90015 0.0
C4340 C 0.08855 0.98292 0.91344 0.0
C4341 C 0.08763 0.01807 0.93127 0.0
C4342 C 0.10277 0.03396 0.93138 0.0
C4343 C 0.10892 0.0486 0.94847 0.0
C4344 C 0.09947 0.04743 0.96568 0.0
C4345 C 0.08316 0.03216 0.96643 0.0
C4346 C 0.07731 0.01703 0.94856 0.0
H4347 H 0.83772 0.40323 0.61907 0.0
H4348 H 0.80199 0.35074 0.58093 0.0
H4349 H 0.80197 0.33145 0.60802 0.0
H4350 H 0.86667 0.3781 0.63995 0.0
H4351 H 0.86976 0.39389 0.66414 0.0
H4352 H 0.86442 0.40391 0.64278 0.0
H4353 H 0.83546 0.41379 0.65835 0.0
H4354 H 0.84054 0.4035 0.67973 0.0
H4355 H 0.81783 0.39475 0.66584 0.0
H4356 H 0.80985 0.31703 0.63748 0.0
H4357 H 0.82532 0.30835 0.66632 0.0
H4358 H 0.8547 0.37106 0.6854 0.0
C4359 C 0.82967 0.38776 0.61657 0.0
C4360 C 0.81989 0.37832 0.59813 0.0
C4361 C 0.80945 0.35812 0.59517 0.0
C4362 C 0.80932 0.34716 0.61043 0.0
C4363 C 0.81941 0.35687 0.62847 0.0
C4364 C 0.82928 0.37677 0.63159 0.0
C4365 C 0.84043 0.38329 0.65151 0.0
C4366 C 0.86156 0.39019 0.64945 0.0
C4367 C 0.83312 0.39981 0.66464 0.0
C4368 C 0.83603 0.36368 0.65885 0.0
C4369 C 0.82366 0.34867 0.64554 0.0
C4370 C 0.81917 0.32875 0.64823 0.0
C4371 C 0.828 0.32399 0.66467 0.0
C4372 C 0.84119 0.33911 0.67804 0.0
C4373 C 0.84469 0.35925 0.67538 0.0
H4374 H 0.47581 0.02568 0.39442 0.0
H4375 H 0.49674 0.08663 0.38485 0.0
H4376 H 0.52189 0.09219 0.4121 0.0
H4377 H 0.48381 0.03624 0.4462 0.0
H4378 H 0.49031 0.01268 0.44718 0.0
H4379 H 0.47436 0.01433 0.42718 0.0
H4380 H 0.49634 1.00127 0.40219 0.0
H4381 H 0.51256 1.00004 0.42221 0.0
H4382 H 0.52054 0.01462 0.40381 0.0
H4383 H 0.54399 0.0907 0.44099 0.0
H4384 H 0.55931 0.08313 0.47084 0.0
H4385 H 0.52461 0.02232 0.45789 0.0
C4386 C 0.48586 0.04011 0.39783 0.0
C4387 C 0.48474 0.05561 0.38751 0.0
C4388 C 0.4976 0.07458 0.39274 0.0
C4389 C 0.51193 0.07778 0.40797 0.0
C4390 C 0.513 0.06178 0.41741 0.0
C4391 C 0.50019 0.04339 0.41257 0.0
C4392 C 0.50379 0.0287 0.42508 0.0
C4393 C 0.48709 0.02266 0.43712 0.0
C4394 C 0.5086 0.01006 0.41257 0.0
C4395 C 0.52058 0.04173 0.43797 0.0
C4396 C 0.52583 0.06075 0.43341 0.0
C4397 C 0.54019 0.0758 0.44455 0.0
C4398 C 0.54883 0.07139 0.46127 0.0
C4399 C 0.54275 0.05226 0.46635 0.0
C4400 C 0.52916 0.0371 0.45421 0.0
H4401 H 0.78236 0.749 0.12204 0.0
H4402 H 0.84208 0.7705 0.11814 0.0
H4403 H 0.84602 0.7857 0.1535 0.0
H4404 H 0.77641 0.79046 0.16086 0.0
H4405 H 0.76023 0.77342 0.17225 0.0
H4406 H 0.76172 0.76783 0.14604 0.0
H4407 H 0.76831 0.73289 0.14919 0.0
H4408 H 0.76668 0.73865 0.17533 0.0
H4409 H 0.78752 0.73192 0.16617 0.0
H4410 H 0.84326 0.79845 0.19059 0.0
H4411 H 0.8356 0.80073 0.22523 0.0
H4412 H 0.78034 0.76355 0.20491 0.0
C4413 C 0.79638 0.75673 0.12837 0.0
C4414 C 0.8118 0.7585 0.11669 0.0
C4415 C 0.82975 0.76926 0.12616 0.0
C4416 C 0.8322 0.77796 0.14645 0.0
C4417 C 0.81668 0.77567 0.15739 0.0
C4418 C 0.79921 0.76493 0.14866 0.0
C4419 C 0.78516 0.76258 0.16388 0.0
C4420 C 0.76999 0.77427 0.16056 0.0
C4421 C 0.77643 0.74018 0.16363 0.0
C4422 C 0.79769 0.77254 0.18274 0.0
C4423 C 0.81555 0.78104 0.17866 0.0
C4424 C 0.82931 0.79163 0.19382 0.0
C4425 C 0.82484 0.79281 0.21352 0.0
C4426 C 0.80713 0.78255 0.2181 0.0
C4427 C 0.7935 0.77244 0.20232 0.0
H4428 H 0.09739 0.03612 0.66925 0.0
H4429 H 0.13709 1.0006 0.64827 0.0
H4430 H 0.12785 1.00273 0.61421 0.0
H4431 H 0.06122 0.01228 0.62589 0.0
H4432 H 0.05338 0.03501 0.62434 0.0
H4433 H 0.06253 0.03123 0.6478 0.0
H4434 H 0.08748 0.06498 0.6522 0.0
H4435 H 0.07737 0.06872 0.62922 0.0
H4436 H 0.10212 0.0695 0.63254 0.0
H4437 H 0.11625 0.00923 0.58241 0.0
H4438 H 0.1026 0.01828 0.5539 0.0
H4439 H 0.06682 0.04899 0.59054 0.0
C4440 C 0.10417 0.02879 0.65749 0.0
C4441 C 0.11829 0.01803 0.66216 0.0
C4442 C 0.12631 0.00869 0.64581 0.0
C4443 C 0.12114 0.00991 0.62613 0.0
C4444 C 0.10742 0.02036 0.62211 0.0
C4445 C 0.09875 0.02951 0.63717 0.0
C4446 C 0.08393 0.03915 0.62781 0.0
C4447 C 0.06408 0.02881 0.63171 0.0
C4448 C 0.08799 0.06196 0.63593 0.0
C4449 C 0.08635 0.03476 0.60536 0.0
C4450 C 0.10001 0.02371 0.6029 0.0
C4451 C 0.10547 0.01775 0.58428 0.0
C4452 C 0.09726 0.02316 0.56777 0.0
C4453 C 0.08303 0.03457 0.56877 0.0
C4454 C 0.0774 0.04026 0.58839 0.0
H4455 H 0.80594 0.35287 0.42098 0.0
H4456 H 0.86237 0.38884 0.42026 0.0
H4457 H 0.86586 0.36708 0.38948 0.0
H4458 H 0.81401 0.3034 0.39546 0.0
H4459 H 0.79163 0.29668 0.38093 0.0
H4460 H 0.79427 0.31207 0.40531 0.0
H4461 H 0.78213 0.3398 0.3911 0.0
H4462 H 0.77912 0.32429 0.36687 0.0
H4463 H 0.79332 0.3497 0.37115 0.0
H4464 H 0.86335 0.34382 0.35859 0.0
H4465 H 0.85286 0.32448 0.3253 0.0
H4466 H 0.79654 0.30648 0.34274 0.0
C4467 C 0.81909 0.35605 0.41447 0.0
C4468 C 0.83414 0.37217 0.42355 0.0
C4469 C 0.85097 0.37601 0.41425 0.0
C4470 C 0.85311 0.36374 0.39668 0.0
C4471 C 0.83821 0.34787 0.38831 0.0
C4472 C 0.82135 0.34419 0.39655 0.0
C4473 C 0.80673 0.32805 0.3828 0.0
C4474 C 0.80135 0.30892 0.39166 0.0
C4475 C 0.78931 0.33595 0.37767 0.0
C4476 C 0.81778 0.32436 0.36514 0.0
C4477 C 0.83614 0.33526 0.36916 0.0
C4478 C 0.84903 0.33511 0.3552 0.0
C4479 C 0.84284 0.32414 0.33627 0.0
C4480 C 0.82373 0.314 0.33126 0.0
C4481 C 0.8112 0.31365 0.34608 0.0
H4482 H 0.46076 0.01144 0.20353 0.0
H4483 H 0.46429 0.07601 0.21139 0.0
H4484 H 0.48118 0.07722 0.18174 0.0
H4485 H 0.50254 0.00981 0.19116 0.0
H4486 H 0.49696 0.98776 0.17169 0.0
H4487 H 0.48137 0.99062 0.19059 0.0
H4488 H 0.45378 0.98715 0.16423 0.0
H4489 H 0.46924 0.98387 0.14507 0.0
H4490 H 0.45623 1.00335 0.14629 0.0
H4491 H 0.50292 0.07307 0.15686 0.0
H4492 H 0.52644 0.06297 0.13542 0.0
H4493 H 0.50728 1.00082 0.14217 0.0
C4494 C 0.46432 0.02566 0.19855 0.0
C4495 C 0.46148 0.04365 0.20987 0.0
C4496 C 0.46677 0.0621 0.20316 0.0
C4497 C 0.47606 0.0629 0.18616 0.0
C4498 C 0.47932 0.04503 0.17579 0.0
C4499 C 0.4732 0.02663 0.18137 0.0
C4500 C 0.48019 0.01004 0.16879 0.0
C4501 C 0.49091 0.99894 0.18133 0.0
C4502 C 0.46389 0.99523 0.15529 0.0
C4503 C 0.49304 0.02252 0.15703 0.0
C4504 C 0.49179 0.04251 0.16078 0.0
C4505 C 0.50364 0.05738 0.15326 0.0
C4506 C 0.51704 0.05159 0.14139 0.0
C4507 C 0.5185 0.03122 0.13748 0.0
C4508 C 0.50634 0.01649 0.14521 0.0
H4509 H 0.82223 0.72973 0.90117 0.0
H4510 H 0.79593 0.7747 0.93315 0.0
H4511 H 0.79513 0.79049 0.90398 0.0
H4512 H 0.85054 0.76553 0.87276 0.0
H4513 H 0.84811 0.74637 0.85082 0.0
H4514 H 0.8485 0.73951 0.87481 0.0
H4515 H 0.81666 0.71388 0.86413 0.0
H4516 H 0.81612 0.72083 0.84022 0.0
H4517 H 0.79683 0.72247 0.8551 0.0
H4518 H 0.79567 0.8007 0.87189 0.0
H4519 H 0.79737 0.80527 0.83775 0.0
H4520 H 0.82194 0.75311 0.82413 0.0
C4521 C 0.81662 0.74311 0.90209 0.0
C4522 C 0.80896 0.75086 0.91946 0.0
C4523 C 0.80161 0.7683 0.92 0.0
C4524 C 0.8012 0.77746 0.90352 0.0
C4525 C 0.8083 0.76916 0.88652 0.0
C4526 C 0.81605 0.75251 0.8856 0.0
C4527 C 0.82211 0.74648 0.86504 0.0
C4528 C 0.84359 0.74966 0.86591 0.0
C4529 C 0.81233 0.72461 0.85557 0.0
C4530 C 0.81545 0.76157 0.85434 0.0
C4531 C 0.80806 0.77479 0.86735 0.0
C4532 C 0.80137 0.79042 0.86154 0.0
C4533 C 0.80229 0.79277 0.84197 0.0
C4534 C 0.80943 0.77931 0.82803 0.0
C4535 C 0.81609 0.7634 0.83432 0.0
H4536 H 0.86526 0.08076 0.032 0.0
H4537 H 0.88732 0.1324 0.00547 0.0
H4538 H 0.91565 0.11954 0.99869 0.0
H4539 H 0.91196 0.07686 0.05398 0.0
H4540 H 0.90534 0.04966 0.04927 0.0
H4541 H 0.88783 0.06415 0.05444 0.0
H4542 H 0.86822 0.04501 0.02178 0.0
H4543 H 0.88561 0.0305 0.01639 0.0
H4544 H 0.87888 0.04477 0.99884 0.0
H4545 H 0.93945 0.09993 0.99175 0.0
H4546 H 0.95838 0.07438 0.98531 0.0
H4547 H 0.92116 0.03524 0.01631 0.0
C4548 C 0.87633 0.08959 0.02528 0.0
C4549 C 0.87427 0.1075 0.01921 0.0
C4550 C 0.88872 0.11853 0.01005 0.0
C4551 C 0.90487 0.11146 0.0063 0.0
C4552 C 0.90631 0.09348 0.012 0.0
C4553 C 0.89256 0.08274 0.02144 0.0
C4554 C 0.89708 0.06315 0.02475 0.0
C4555 C 0.90078 0.06348 0.04693 0.0
C4556 C 0.88152 0.04478 0.01483 0.0
C4557 C 0.9149 0.06402 0.01455 0.0
C4558 C 0.92016 0.08189 0.00775 0.0
C4559 C 0.93568 0.08598 0.9972 0.0
C4560 C 0.94623 0.07138 0.99352 0.0
C4561 C 0.94103 0.05293 1.00023 0.0
C4562 C 0.92522 0.0492 0.01089 0.0
H4563 H 0.42164 0.44879 0.01731 0.0
H4564 H 0.40928 0.48022 0.07345 0.0
H4565 H 0.4403 0.50365 0.07692 0.0
H4566 H 0.47036 0.45249 0.03048 0.0
H4567 H 0.47773 0.45684 0.00684 0.0
H4568 H 0.45438 0.44265 0.00848 0.0
H4569 H 0.44045 0.46728 0.99114 0.0
H4570 H 0.46379 0.48154 0.98945 0.0
H4571 H 0.44692 0.49397 1.00125 0.0
H4572 H 0.47292 0.52455 0.07408 0.0
H4573 H 0.50454 0.53979 0.06579 0.0
H4574 H 0.49641 0.49444 0.01205 0.0
C4575 C 0.42533 0.46068 0.03028 0.0
C4576 C 0.41276 0.46237 0.04516 0.0
C4577 C 0.41853 0.47816 0.06195 0.0
C4578 C 0.43617 0.49174 0.064 0.0
C4579 C 0.44816 0.48957 0.04916 0.0
C4580 C 0.44299 0.4744 0.03262 0.0
C4581 C 0.45863 0.47528 0.01891 0.0
C4582 C 0.46569 0.45565 0.01602 0.0
C4583 C 0.45205 0.47978 0.999 0.0
C4584 C 0.4735 0.49303 0.0305 0.0
C4585 C 0.46706 0.50126 0.04777 0.0
C4586 C 0.47808 0.51812 0.06062 0.0
C4587 C 0.49609 0.52672 0.05576 0.0
C4588 C 0.5032 0.51841 0.03828 0.0
C4589 C 0.49161 0.50123 0.02558 0.0
H4590 H 0.37758 0.67982 0.79929 0.0
H4591 H 0.38176 0.66391 0.73632 0.0
H4592 H 0.36477 0.68951 0.73058 0.0
H4593 H 0.33069 0.69129 0.79536 0.0
H4594 H 0.33605 0.71271 0.81549 0.0
H4595 H 0.34813 0.69251 0.81522 0.0
H4596 H 0.38002 0.71809 0.81833 0.0
H4597 H 0.36798 0.73832 0.81873 0.0
H4598 H 0.38439 0.73453 0.8007 0.0
H4599 H 0.34584 0.71819 0.73079 0.0
H4600 H 0.33043 0.74704 0.73784 0.0
H4601 H 0.33896 0.74743 0.80035 0.0
C4602 C 0.37502 0.68154 0.7842 0.0
C4603 C 0.38118 0.66843 0.76833 0.0
C4604 C 0.37714 0.67233 0.74907 0.0
C4605 C 0.36739 0.68736 0.74553 0.0
C4606 C 0.36134 0.69947 0.76123 0.0
C4607 C 0.3652 0.69688 0.78031 0.0
C4608 C 0.35744 0.71248 0.79457 0.0
C4609 C 0.34218 0.7016 0.80584 0.0
C4610 C 0.37341 0.7267 0.80894 0.0
C4611 C 0.34887 0.72421 0.78066 0.0
C4612 C 0.35108 0.71622 0.76139 0.0
C4613 C 0.34413 0.72433 0.74593 0.0
C4614 C 0.33511 0.74086 0.75006 0.0
C4615 C 0.33269 0.74982 0.76965 0.0
C4616 C 0.33999 0.74108 0.78509 0.0
H4617 H 0.18205 0.56242 0.49269 0.0
H4618 H 0.19942 0.5645 0.5541 0.0
H4619 H 0.16661 0.55972 0.56162 0.0
H4620 H 0.152 0.58799 0.49611 0.0
H4621 H 0.1329 0.57358 0.47828 0.0
H4622 H 0.15626 0.57017 0.47538 0.0
H4623 H 0.14519 0.53272 0.47394 0.0
H4624 H 0.12139 0.53449 0.47766 0.0
H4625 H 0.13428 0.52333 0.49401 0.0
H4626 H 0.14182 0.5791 0.5632 0.0
H4627 H 0.11301 0.59168 0.55879 0.0
H4628 H 0.10466 0.56252 0.4978 0.0
C4629 C 0.17877 0.56013 0.50732 0.0
C4630 C 0.19306 0.5647 0.52306 0.0
C4631 C 0.1885 0.5616 0.54205 0.0
C4632 C 0.16996 0.55896 0.54647 0.0
C4633 C 0.15634 0.55781 0.53131 0.0
C4634 C 0.16008 0.55629 0.51176 0.0
C4635 C 0.14269 0.55622 0.49873 0.0
C4636 C 0.14621 0.573 0.48643 0.0
C4637 C 0.13538 0.53545 0.4853 0.0
C4638 C 0.12964 0.56051 0.51445 0.0
C4639 C 0.13837 0.56255 0.53314 0.0
C4640 C 0.13304 0.57439 0.54936 0.0
C4641 C 0.11667 0.58131 0.54697 0.0
C4642 C 0.10518 0.57484 0.52919 0.0
C4643 C 0.11235 0.56569 0.51223 0.0
H4644 H 0.73144 0.94028 0.73661 0.0
H4645 H 0.77721 0.99147 0.73618 0.0
H4646 H 0.79977 0.97292 0.74754 0.0
H4647 H 0.74457 0.93058 0.77908 0.0
H4648 H 0.73804 0.90336 0.77318 0.0
H4649 H 0.72637 0.9178 0.75961 0.0
H4650 H 0.73545 0.89956 0.72672 0.0
H4651 H 0.74696 0.8847 0.74017 0.0
H4652 H 0.75968 0.89918 0.72386 0.0
H4653 H 0.81546 0.95302 0.76651 0.0
H4654 H 0.82369 0.93179 0.78955 0.0
H4655 H 0.76784 0.89326 0.77719 0.0
C4656 C 0.74635 0.947 0.73791 0.0
C4657 C 0.75286 0.96691 0.73526 0.0
C4658 C 0.77224 0.97591 0.73772 0.0
C4659 C 0.78507 0.96551 0.74417 0.0
C4660 C 0.77815 0.94612 0.74766 0.0
C4661 C 0.75925 0.93676 0.74421 0.0
C4662 C 0.75498 0.91723 0.75181 0.0
C4663 C 0.74013 0.91728 0.76681 0.0
C4664 C 0.74892 0.89909 0.73461 0.0
C4665 C 0.77407 0.91792 0.76156 0.0
C4666 C 0.78737 0.93442 0.75862 0.0
C4667 C 0.80541 0.93965 0.76835 0.0
C4668 C 0.80992 0.9277 0.78146 0.0
C4669 C 0.79635 0.91102 0.78469 0.0
C4670 C 0.77841 0.90582 0.77445 0.0
H4671 H 0.7159 0.92679 0.51025 0.0
H4672 H 0.745 0.96566 0.5643 0.0
H4673 H 0.72101 0.98577 0.56516 0.0
H4674 H 0.70521 0.96537 0.48814 0.0
H4675 H 0.68242 0.95119 0.47679 0.0
H4676 H 0.70041 0.93818 0.48182 0.0
H4677 H 0.67812 0.91691 0.50205 0.0
H4678 H 0.6601 0.93001 0.49716 0.0
H4679 H 0.66778 0.92953 0.52224 0.0
H4680 H 0.69489 1.00319 0.55921 0.0
H4681 H 0.67047 0.01802 0.54516 0.0
H4682 H 0.65961 0.96943 0.49403 0.0
C4683 C 0.71727 0.93948 0.52233 0.0
C4684 C 0.73241 0.94438 0.53732 0.0
C4685 C 0.73341 0.96114 0.55286 0.0
C4686 C 0.71983 0.97277 0.55347 0.0
C4687 C 0.70523 0.96758 0.53843 0.0
C4688 C 0.7039 0.95137 0.52309 0.0
C4689 C 0.68758 0.94989 0.50801 0.0
C4690 C 0.69432 0.95125 0.48748 0.0
C4691 C 0.67251 0.93043 0.50733 0.0
C4692 C 0.68057 0.96839 0.51675 0.0
C4693 C 0.69057 0.97803 0.53461 0.0
C4694 C 0.68689 0.99568 0.5453 0.0
C4695 C 0.67297 1.00396 0.53728 0.0
C4696 C 0.66319 0.99483 0.5186 0.0
C4697 C 0.66686 0.97664 0.5084 0.0
H4698 H 0.36542 0.44724 0.74383 0.0
H4699 H 0.39036 0.46339 0.80456 0.0
H4700 H 0.37584 0.42956 0.80978 0.0
H4701 H 0.32126 0.41508 0.75346 0.0
H4702 H 0.31942 0.39616 0.73143 0.0
H4703 H 0.3315 0.4219 0.73177 0.0
H4704 H 0.36111 0.40988 0.72123 0.0
H4705 H 0.3491 0.38409 0.72076 0.0
H4706 H 0.37115 0.39467 0.73559 0.0
H4707 H 0.35768 0.39398 0.80975 0.0
H4708 H 0.3394 0.35894 0.80364 0.0
H4709 H 0.32642 0.36178 0.74246 0.0
C4710 C 0.36791 0.44373 0.75825 0.0
C4711 C 0.37903 0.45901 0.7739 0.0
C4712 C 0.38166 0.45298 0.79234 0.0
C4713 C 0.37348 0.43342 0.79549 0.0
C4714 C 0.36245 0.41912 0.78011 0.0
C4715 C 0.35972 0.42386 0.76174 0.0
C4716 C 0.34724 0.40513 0.74784 0.0
C4717 C 0.32876 0.40985 0.74069 0.0
C4718 C 0.35778 0.39802 0.73031 0.0
C4719 C 0.34359 0.38926 0.76125 0.0
C4720 C 0.3525 0.39797 0.77985 0.0
C4721 C 0.35104 0.387 0.79509 0.0
C4722 C 0.34071 0.36671 0.79137 0.0
C4723 C 0.33182 0.35667 0.77242 0.0
C4724 C 0.33309 0.36853 0.75716 0.0
H4725 H 0.25425 0.65205 0.28853 0.0
H4726 H 0.29393 0.63493 0.24838 0.0
H4727 H 0.31067 0.67082 0.2528 0.0
H4728 H 0.24577 0.68697 0.2675 0.0
H4729 H 0.24274 0.70489 0.28875 0.0
H4730 H 0.23871 0.67865 0.28986 0.0
H4731 H 0.26323 0.68638 0.32041 0.0
H4732 H 0.2667 0.7129 0.31974 0.0
H4733 H 0.28648 0.70123 0.31941 0.0
H4734 H 0.32007 0.70845 0.25821 0.0
H4735 H 0.31819 0.74358 0.25938 0.0
H4736 H 0.26713 0.734 0.28793 0.0
C4737 C 0.26718 0.65575 0.2817 0.0
C4738 C 0.27329 0.64094 0.26868 0.0
C4739 C 0.28948 0.64623 0.25884 0.0
C4740 C 0.29908 0.66647 0.2614 0.0
C4741 C 0.29205 0.68094 0.27362 0.0
C4742 C 0.27635 0.67578 0.28354 0.0
C4743 C 0.26853 0.69382 0.29142 0.0
C4744 C 0.24773 0.69088 0.2839 0.0
C4745 C 0.27142 0.69888 0.31409 0.0
C4746 C 0.28108 0.70953 0.28266 0.0
C4747 C 0.2953 0.7022 0.27372 0.0
C4748 C 0.3087 0.71411 0.26478 0.0
C4749 C 0.30718 0.73386 0.26471 0.0
C4750 C 0.29163 0.74089 0.27174 0.0
C4751 C 0.27872 0.72871 0.28142 0.0
H4752 H 0.52436 0.65926 0.45877 0.0
H4753 H 0.54349 0.70031 0.51471 0.0
H4754 H 0.55084 0.67221 0.52906 0.0
H4755 H 0.50296 0.61586 0.47997 0.0
H4756 H 0.50968 0.59798 0.46102 0.0
H4757 H 0.50546 0.6213 0.45556 0.0
H4758 H 0.53871 0.6297 0.44363 0.0
H4759 H 0.54302 0.60645 0.44916 0.0
H4760 H 0.55888 0.63015 0.45999 0.0
H4761 H 0.55506 0.63779 0.53784 0.0
H4762 H 0.55691 0.6024 0.53876 0.0
H4763 H 0.53752 0.58519 0.47653 0.0
C4764 C 0.52988 0.66241 0.47412 0.0
C4765 C 0.53328 0.68232 0.48544 0.0
C4766 C 0.54087 0.68545 0.50544 0.0
C4767 C 0.54502 0.66945 0.51384 0.0
C4768 C 0.54163 0.65011 0.50219 0.0
C4769 C 0.53424 0.64662 0.48271 0.0
C4770 C 0.53213 0.6246 0.47313 0.0
C4771 C 0.51133 0.61433 0.46706 0.0
C4772 C 0.54389 0.62262 0.45543 0.0
C4773 C 0.53984 0.6163 0.49 0.0
C4774 C 0.54494 0.63104 0.50684 0.0
C4775 C 0.55138 0.62631 0.52454 0.0
C4776 C 0.5526 0.60616 0.52493 0.0
C4777 C 0.5481 0.59099 0.50758 0.0
C4778 C 0.54155 0.59639 0.49001 0.0
H4779 H 0.68343 0.28645 0.67405 0.0
H4780 H 0.69493 0.35203 0.68409 0.0
H4781 H 0.72413 0.35384 0.70405 0.0
H4782 H 0.70322 0.28294 0.72263 0.0
H4783 H 0.71327 0.26185 0.71353 0.0
H4784 H 0.69256 0.26525 0.70049 0.0
H4785 H 0.7094 0.26494 0.66855 0.0
H4786 H 0.73014 0.26152 0.6815 0.0
H4787 H 0.73161 0.28241 0.6688 0.0
H4788 H 0.75185 0.34901 0.72505 0.0
H4789 H 0.77682 0.33777 0.7423 0.0
H4790 H 0.75087 0.27555 0.71618 0.0
C4791 C 0.69205 0.30127 0.68026 0.0
C4792 C 0.68609 0.31912 0.67742 0.0
C4793 C 0.69827 0.33799 0.68621 0.0
C4794 C 0.71522 0.33924 0.69758 0.0
C4795 C 0.72045 0.32151 0.70016 0.0
C4796 C 0.70934 0.30283 0.69161 0.0
C4797 C 0.71858 0.28615 0.69659 0.0
C4798 C 0.70617 0.27328 0.70904 0.0
C4799 C 0.72268 0.27297 0.67773 0.0
C4800 C 0.73681 0.29837 0.70877 0.0
C4801 C 0.73729 0.31877 0.711 0.0
C4802 C 0.75181 0.3331 0.72284 0.0
C4803 C 0.7662 0.32657 0.73247 0.0
C4804 C 0.76674 0.30587 0.72986 0.0
C4805 C 0.75158 0.29157 0.71785 0.0
H4806 H 0.03503 0.39022 0.0124 0.0
H4807 H 0.03185 0.38403 0.94876 0.0
H4808 H 0.03411 0.42072 0.95209 0.0
H4809 H 0.0088 0.43028 0.02239 0.0
H4810 H 0.02377 0.44387 0.04423 0.0
H4811 H 0.02067 0.41687 0.03725 0.0
H4812 H 0.05665 0.42103 0.03721 0.0
H4813 H 0.05981 0.44798 0.04443 0.0
H4814 H 0.06941 0.43754 0.02256 0.0
H4815 H 0.03844 0.45834 0.96205 0.0
H4816 H 0.04618 0.49442 0.97817 0.0
H4817 H 0.04648 0.47731 0.03548 0.0
C4818 C 0.03461 0.39664 0.99922 0.0
C4819 C 0.03312 0.38422 0.98024 0.0
C4820 C 0.03294 0.39323 0.96337 0.0
C4821 C 0.03414 0.41406 0.96514 0.0
C4822 C 0.03564 0.42594 0.98394 0.0
C4823 C 0.03602 0.41764 1.00074 0.0
C4824 C 0.0389 0.43419 0.01917 0.0
C4825 C 0.02202 0.4311 0.03148 0.0
C4826 C 0.05728 0.43524 0.03157 0.0
C4827 C 0.04012 0.45293 0.01005 0.0
C4828 C 0.03807 0.44778 0.9897 0.0
C4829 C 0.03971 0.4625 0.97798 0.0
C4830 C 0.04391 0.483 0.98725 0.0
C4831 C 0.0461 0.48872 0.00807 0.0
C4832 C 0.04416 0.47339 0.01955 0.0
H4833 H 1.00129 0.82763 0.18672 0.0
H4834 H 0.98401 0.77245 0.14271 0.0
H4835 H 0.95352 0.76495 0.15649 0.0
H4836 H 0.98148 0.80878 0.22655 0.0
H4837 H 0.97366 0.83107 0.23698 0.0
H4838 H 0.99338 0.83323 0.22245 0.0
H4839 H 0.97681 0.85123 0.19939 0.0
H4840 H 0.95694 0.84903 0.21382 0.0
H4841 H 0.95364 0.83912 0.18764 0.0
H4842 H 0.92495 0.76235 0.17623 0.0
H4843 H 0.90245 0.76371 0.20173 0.0
H4844 H 0.93816 0.81972 0.23376 0.0
C4845 C 0.991 0.81413 0.17976 0.0
C4846 C 0.99537 0.80059 0.16359 0.0
C4847 C 0.98138 0.78298 0.15523 0.0
C4848 C 0.96383 0.77865 0.16286 0.0
C4849 C 0.96011 0.79208 0.17894 0.0
C4850 C 0.97332 0.8095 0.1873 0.0
C4851 C 0.96612 0.82084 0.20517 0.0
C4852 C 0.97945 0.82363 0.22389 0.0
C4853 C 0.96321 0.84127 0.20127 0.0
C4854 C 0.94734 0.80655 0.20621 0.0
C4855 C 0.94386 0.79037 0.19054 0.0
C4856 C 0.92751 0.77506 0.18845 0.0
C4857 C 0.9147 0.776 0.20294 0.0
C4858 C 0.91832 0.79194 0.21961 0.0
C4859 C 0.93481 0.80752 0.22103 0.0
H4860 H 0.51974 0.33235 0.07237 0.0
H4861 H 0.51612 0.37019 0.12856 0.0
H4862 H 0.52456 0.40058 0.11367 0.0
H4863 H 0.55949 0.36486 0.05891 0.0
H4864 H 0.55146 0.35957 0.03302 0.0
H4865 H 0.54431 0.34081 0.04788 0.0
H4866 H 0.50937 0.33895 0.03743 0.0
H4867 H 0.51638 0.35767 0.02248 0.0
H4868 H 0.5007 0.36174 0.04123 0.0
H4869 H 0.53623 0.4267 0.0934 0.0
H4870 H 0.54785 0.44678 0.06877 0.0
H4871 H 0.54126 0.39153 0.02502 0.0
C4872 C 0.52063 0.34704 0.08149 0.0
C4873 C 0.51727 0.349 0.10158 0.0
C4874 C 0.51844 0.36841 0.11307 0.0
C4875 C 0.52332 0.38572 0.10478 0.0
C4876 C 0.5268 0.38326 0.08498 0.0
C4877 C 0.52533 0.3644 0.07344 0.0
C4878 C 0.53006 0.36589 0.05265 0.0
C4879 C 0.54735 0.35727 0.04784 0.0
C4880 C 0.51311 0.35545 0.03756 0.0
C4881 C 0.53447 0.38855 0.05429 0.0
C4882 C 0.5327 0.3983 0.07309 0.0
C4883 C 0.53723 0.41924 0.07849 0.0
C4884 C 0.54366 0.43053 0.06424 0.0
C4885 C 0.54518 0.42087 0.04464 0.0
C4886 C 0.54039 0.39954 0.03975 0.0
H4887 H 0.0188 0.33838 0.31745 0.0
H4888 H 0.99731 0.29445 0.35335 0.0
H4889 H 0.96494 0.29355 0.34065 0.0
H4890 H 0.982 0.36622 0.32434 0.0
H4891 H 0.98154 0.37084 0.29947 0.0
H4892 H 1.00302 0.36834 0.31169 0.0
H4893 H 1.0056 0.33963 0.28297 0.0
H4894 H 0.98426 0.34213 0.27055 0.0
H4895 H 0.98621 0.31798 0.27585 0.0
H4896 H 0.93551 0.29566 0.32231 0.0
H4897 H 0.91073 0.30037 0.29953 0.0
H4898 H 0.95133 0.34574 0.27825 0.0
C4899 C 0.00727 0.32875 0.32283 0.0
C4900 C 0.01048 0.31645 0.33631 0.0
C4901 C 0.9951 0.30375 0.34275 0.0
C4902 C 0.97671 0.30332 0.33582 0.0
C4903 C 0.97406 0.3158 0.32266 0.0
C4904 C 0.9889 0.32831 0.31627 0.0
C4905 C 0.98231 0.33978 0.30163 0.0
C4906 C 0.98752 0.36265 0.30978 0.0
C4907 C 0.99005 0.33455 0.28157 0.0
C4908 C 0.96142 0.33141 0.30041 0.0
C4909 C 0.95695 0.31766 0.31269 0.0
C4910 C 0.93873 0.30672 0.31293 0.0
C4911 C 0.92472 0.30967 0.3 0.0
C4912 C 0.92897 0.32368 0.28718 0.0
C4913 C 0.94756 0.3349 0.28775 0.0
H4914 H 0.97791 0.65244 0.56371 0.0
H4915 H 0.99614 0.65891 0.62564 0.0
H4916 H 0.00966 0.62918 0.61805 0.0
H4917 H 0.96946 0.59243 0.55339 0.0
H4918 H 0.97682 0.59294 0.52899 0.0
H4919 H 0.96396 0.61093 0.53997 0.0
H4920 H 0.99083 0.63995 0.53388 0.0
H4921 H 1.00365 0.62189 0.52353 0.0
H4922 H 0.01446 0.64171 0.54407 0.0
H4923 H 0.02887 0.60732 0.60348 0.0
H4924 H 0.04736 0.5878 0.58324 0.0
H4925 H 0.01425 0.59112 0.53032 0.0
C4926 C 0.98374 0.64671 0.57567 0.0
C4927 C 0.98579 0.65754 0.59523 0.0
C4928 C 0.99406 0.65035 0.61065 0.0
C4929 C 1.00184 0.63355 0.60647 0.0
C4930 C 1.00058 0.62378 0.58691 0.0
C4931 C 0.99102 0.62941 0.57179 0.0
C4932 C 0.99336 0.61729 0.5519 0.0
C4933 C 0.97479 0.60252 0.54305 0.0
C4934 C 1.00106 0.63106 0.53753 0.0
C4935 C 0.00752 0.60598 0.55812 0.0
C4936 C 0.01118 0.60974 0.57841 0.0
C4937 C 0.0255 0.60338 0.58765 0.0
C4938 C 0.03608 0.59241 0.5759 0.0
C4939 C 0.03219 0.58766 0.55509 0.0
C4940 C 0.01757 0.59442 0.54614 0.0
H4941 H 0.68791 0.83955 0.80684 0.0
H4942 H 0.69537 0.81504 0.85957 0.0
H4943 H 0.72434 0.80587 0.84845 0.0
H4944 H 0.70234 0.80314 0.7737 0.0
H4945 H 0.71527 0.81993 0.75943 0.0
H4946 H 0.69599 0.82667 0.77202 0.0
H4947 H 0.71763 0.86044 0.79073 0.0
H4948 H 0.73677 0.8541 0.77758 0.0
H4949 H 0.73924 0.85992 0.80417 0.0
H4950 H 0.75007 0.79707 0.83114 0.0
H4951 H 0.7754 0.7933 0.81018 0.0
H4952 H 0.75206 0.82337 0.7682 0.0
C4953 C 0.69607 0.83281 0.81617 0.0
C4954 C 0.68988 0.82799 0.83398 0.0
C4955 C 0.70036 0.81889 0.84594 0.0
C4956 C 0.71662 0.81356 0.83971 0.0
C4957 C 0.72207 0.8177 0.82166 0.0
C4958 C 0.71252 0.82757 0.81025 0.0
C4959 C 0.72157 0.82997 0.7914 0.0
C4960 C 0.70797 0.81928 0.77306 0.0
C4961 C 0.72926 0.85244 0.79095 0.0
C4962 C 0.73726 0.81933 0.79384 0.0
C4963 C 0.73717 0.81239 0.81141 0.0
C4964 C 0.75038 0.80245 0.81735 0.0
C4965 C 0.76462 0.80023 0.80528 0.0
C4966 C 0.76531 0.80765 0.78749 0.0
C4967 C 0.7514 0.81712 0.78153 0.0
H4968 H 0.47982 0.57885 0.65314 0.0
H4969 H 0.51806 0.55557 0.6879 0.0
H4970 H 0.53672 0.55096 0.65946 0.0
H4971 H 0.48021 0.54393 0.60705 0.0
H4972 H 0.47941 0.56198 0.59127 0.0
H4973 H 0.46949 0.56488 0.61463 0.0
H4974 H 0.49039 0.60091 0.62483 0.0
H4975 H 0.50037 0.59809 0.60148 0.0
H4976 H 0.51545 0.60469 0.62422 0.0
H4977 H 0.55257 0.54949 0.62665 0.0
H4978 H 0.56172 0.54798 0.59263 0.0
H4979 H 0.51245 0.56872 0.57608 0.0
C4980 C 0.49219 0.57289 0.65488 0.0
C4981 C 0.49719 0.56769 0.67345 0.0
C4982 C 0.51352 0.5597 0.67434 0.0
C4983 C 0.5244 0.55706 0.65805 0.0
C4984 C 0.51904 0.5621 0.64014 0.0
C4985 C 0.50316 0.56967 0.63833 0.0
C4986 C 0.5002 0.57299 0.61695 0.0
C4987 C 0.48119 0.56018 0.60688 0.0
C4988 C 0.50168 0.59551 0.61686 0.0
C4989 C 0.5166 0.56581 0.60698 0.0
C4990 C 0.52753 0.5601 0.62092 0.0
C4991 C 0.54389 0.55381 0.61575 0.0
C4992 C 0.54912 0.5531 0.59617 0.0
C4993 C 0.53808 0.55815 0.58108 0.0
C4994 C 0.52138 0.56456 0.58686 0.0
H4995 H 0.79457 0.19531 0.92582 0.0
H4996 H 0.77997 0.23517 0.97524 0.0
H4997 H 0.77871 0.26058 0.95439 0.0
H4998 H 0.82161 0.23573 0.90096 0.0
H4999 H 0.81202 0.22152 0.87679 0.0
H5000 H 0.81599 0.20851 0.89652 0.0
H5001 H 0.78119 0.18893 0.89114 0.0
H5002 H 0.77717 0.20174 0.87141 0.0
H5003 H 0.76295 0.20283 0.89189 0.0
H5004 H 0.77349 0.27831 0.92785 0.0
H5005 H 0.7633 0.28702 0.89643 0.0
H5006 H 0.78116 0.23597 0.86373 0.0
C5007 C 0.79177 0.20973 0.93225 0.0
C5008 C 0.78765 0.21374 0.95196 0.0
C5009 C 0.78335 0.23224 0.96009 0.0
C5010 C 0.78276 0.24671 0.94844 0.0
C5011 C 0.78652 0.24228 0.92882 0.0
C5012 C 0.79092 0.22423 0.92073 0.0
C5013 C 0.79149 0.2219 0.89863 0.0
C5014 C 0.81147 0.22193 0.89289 0.0
C5015 C 0.77735 0.20273 0.88764 0.0
C5016 C 0.78566 0.24091 0.89546 0.0
C5017 C 0.78333 0.25267 0.91314 0.0
C5018 C 0.77574 0.26961 0.91392 0.0
C5019 C 0.76992 0.27438 0.89614 0.0
C5020 C 0.77179 0.26223 0.87805 0.0
C5021 C 0.78016 0.24566 0.87759 0.0
H5022 H 0.12781 0.5655 0.15414 0.0
H5023 H 0.13998 0.50631 0.13712 0.0
H5024 H 0.114 0.49719 0.11065 0.0
H5025 H 0.07774 0.55101 0.14384 0.0
H5026 H 0.07631 0.57292 0.13352 0.0
H5027 H 0.09487 0.57443 0.1523 0.0
H5028 H 0.12009 0.58671 0.12933 0.0
H5029 H 0.10157 0.58608 0.11096 0.0
H5030 H 0.11934 0.57221 0.1048 0.0
H5031 H 0.08767 0.49466 0.08641 0.0
H5032 H 0.06785 0.50188 0.05987 0.0
H5033 H 0.074 0.56309 0.09167 0.0
C5034 C 0.12522 0.55075 0.14464 0.0
C5035 C 0.13553 0.53644 0.14774 0.0
C5036 C 0.13183 0.51728 0.13507 0.0
C5037 C 0.11705 0.51191 0.12023 0.0
C5038 C 0.10644 0.526 0.11829 0.0
C5039 C 0.11074 0.54524 0.12965 0.0
C5040 C 0.09859 0.55832 0.12306 0.0
C5041 C 0.08614 0.56453 0.13915 0.0
C5042 C 0.11061 0.57691 0.11664 0.0
C5043 C 0.08712 0.54355 0.10581 0.0
C5044 C 0.09141 0.52476 0.10378 0.0
C5045 C 0.08388 0.50913 0.08796 0.0
C5046 C 0.07256 0.51326 0.07311 0.0
C5047 C 0.06936 0.53282 0.07437 0.0
C5048 C 0.07593 0.54788 0.09109 0.0
H5049 H 0.81655 0.80813 0.42015 0.0
H5050 H 0.78374 0.85394 0.42551 0.0
H5051 H 0.7805 0.85053 0.38962 0.0
H5052 H 0.84165 0.82116 0.37964 0.0
H5053 H 0.83992 0.79533 0.36761 0.0
H5054 H 0.83901 0.80132 0.39382 0.0
H5055 H 0.80742 0.77428 0.38876 0.0
H5056 H 0.80842 0.76985 0.36237 0.0
H5057 H 0.78827 0.77707 0.37278 0.0
H5058 H 0.7855 0.84787 0.35588 0.0
H5059 H 0.79261 0.84172 0.32236 0.0
H5060 H 0.81771 0.79221 0.33311 0.0
C5061 C 0.80847 0.81715 0.41361 0.0
C5062 C 0.80031 0.83132 0.42574 0.0
C5063 C 0.78989 0.84287 0.41667 0.0
C5064 C 0.78804 0.8411 0.39623 0.0
C5065 C 0.7964 0.8274 0.38477 0.0
C5066 C 0.80597 0.81514 0.3928 0.0
C5067 C 0.81335 0.80175 0.37631 0.0
C5068 C 0.83477 0.80514 0.37954 0.0
C5069 C 0.80379 0.7794 0.37498 0.0
C5070 C 0.80733 0.80945 0.358 0.0
C5071 C 0.7977 0.82433 0.36378 0.0
C5072 C 0.79234 0.83571 0.35095 0.0
C5073 C 0.79658 0.83185 0.33157 0.0
C5074 C 0.80534 0.81583 0.32415 0.0
C5075 C 0.81079 0.80433 0.33781 0.0
H5076 H 0.49811 0.59227 0.89892 0.0
H5077 H 0.49868 0.53413 0.86298 0.0
H5078 H 0.51402 0.52486 0.89114 0.0
H5079 H 0.54404 0.5961 0.92909 0.0
H5080 H 0.53667 0.60813 0.95165 0.0
H5081 H 0.5276 0.612 0.92819 0.0
H5082 H 0.49375 0.59964 0.93673 0.0
H5083 H 0.50276 0.59596 0.96024 0.0
H5084 H 0.48696 0.57531 0.94373 0.0
H5085 H 0.53392 0.52319 0.92351 0.0
H5086 H 0.54678 0.52536 0.9576 0.0
H5087 H 0.52572 0.57864 0.97641 0.0
C5088 C 0.5014 0.57754 0.8968 0.0
C5089 C 0.49728 0.56442 0.8776 0.0
C5090 C 0.50206 0.54528 0.87649 0.0
C5091 C 0.51084 0.53963 0.89277 0.0
C5092 C 0.51497 0.55291 0.91102 0.0
C5093 C 0.51007 0.57138 0.9133 0.0
C5094 C 0.51552 0.58231 0.93502 0.0
C5095 C 0.53191 0.60074 0.93605 0.0
C5096 C 0.49872 0.58866 0.94449 0.0
C5097 C 0.52222 0.56626 0.94482 0.0
C5098 C 0.52315 0.55011 0.93033 0.0
C5099 C 0.53195 0.53516 0.93504 0.0
C5100 C 0.53886 0.53607 0.95492 0.0
C5101 C 0.5355 0.55046 0.97089 0.0
C5102 C 0.52761 0.56635 0.96521 0.0
H5103 H 0.80497 0.23663 0.1223 0.0
H5104 H 0.74771 0.20218 0.12216 0.0
H5105 H 0.74384 0.22531 0.15176 0.0
H5106 H 0.81527 0.23822 0.17153 0.0
H5107 H 0.83097 0.26286 0.17641 0.0
H5108 H 0.82775 0.24764 0.15207 0.0
H5109 H 0.81837 0.27698 0.13802 0.0
H5110 H 0.82119 0.29208 0.16255 0.0
H5111 H 0.79925 0.28721 0.14749 0.0
H5112 H 0.74666 0.24879 0.183 0.0
H5113 H 0.75766 0.26657 0.21688 0.0
H5114 H 0.81447 0.28109 0.20009 0.0
C5115 C 0.79152 0.23391 0.12826 0.0
C5116 C 0.77652 0.21772 0.11923 0.0
C5117 C 0.75924 0.21492 0.12791 0.0
C5118 C 0.75685 0.22802 0.1449 0.0
C5119 C 0.77196 0.24359 0.15344 0.0
C5120 C 0.78911 0.24632 0.14571 0.0
C5121 C 0.80412 0.26141 0.1599 0.0
C5122 C 0.82047 0.25195 0.1653 0.0
C5123 C 0.81114 0.28055 0.15148 0.0
C5124 C 0.79288 0.26571 0.17722 0.0
C5125 C 0.77418 0.25607 0.17275 0.0
C5126 C 0.76123 0.2566 0.18667 0.0
C5127 C 0.76769 0.26661 0.20593 0.0
C5128 C 0.78705 0.27537 0.21122 0.0
C5129 C 0.79963 0.27533 0.19652 0.0
H5130 H 0.15038 0.57127 0.34238 0.0
H5131 H 0.13328 0.50601 0.32517 0.0
H5132 H 0.11487 0.50479 0.35399 0.0
H5133 H 0.15004 0.5745 0.39727 0.0
H5134 H 0.14057 0.59675 0.39975 0.0
H5135 H 0.15601 0.59205 0.3809 0.0
H5136 H 0.13082 0.5947 0.35436 0.0
H5137 H 0.1152 0.5991 0.37296 0.0
H5138 H 0.10767 0.5785 0.35218 0.0
H5139 H 0.09478 0.511 0.38106 0.0
H5140 H 0.07421 0.52429 0.40479 0.0
H5141 H 0.10257 0.58554 0.40218 0.0
C5142 C 0.14304 0.55669 0.34491 0.0
C5143 C 0.14312 0.53874 0.33165 0.0
C5144 C 0.13352 0.5199 0.33539 0.0
C5145 C 0.12306 0.51907 0.35168 0.0
C5146 C 0.12253 0.5372 0.36395 0.0
C5147 C 0.13238 0.55566 0.36084 0.0
C5148 C 0.12753 0.57307 0.37443 0.0
C5149 C 0.14455 0.58478 0.38896 0.0
C5150 C 0.11984 0.58715 0.36277 0.0
C5151 C 0.11248 0.56154 0.38477 0.0
C5152 C 0.11022 0.54087 0.37899 0.0
C5153 C 0.09651 0.52712 0.38586 0.0
C5154 C 0.08482 0.53473 0.39906 0.0
C5155 C 0.08673 0.55581 0.40472 0.0
C5156 C 0.10075 0.56935 0.39764 0.0
H5157 H 0.79265 0.80825 0.62159 0.0
H5158 H 0.81487 0.87298 0.63769 0.0
H5159 H 0.81289 0.87129 0.67284 0.0
H5160 H 0.76103 0.80466 0.66214 0.0
H5161 H 0.76547 0.78102 0.66641 0.0
H5162 H 0.76647 0.78699 0.64205 0.0
H5163 H 0.80025 0.78142 0.64121 0.0
H5164 H 0.79921 0.77525 0.66543 0.0
H5165 H 0.81792 0.79512 0.66088 0.0
H5166 H 0.80813 0.86349 0.7055 0.0
H5167 H 0.8066 0.84951 0.73553 0.0
H5168 H 0.79163 0.78873 0.70014 0.0
C5169 C 0.79698 0.82198 0.63262 0.0
C5170 C 0.8039 0.84083 0.62706 0.0
C5171 C 0.80958 0.85849 0.64175 0.0
C5172 C 0.80834 0.85769 0.6617 0.0
C5173 C 0.8015 0.83905 0.66682 0.0
C5174 C 0.79617 0.8214 0.65287 0.0
C5175 C 0.7907 0.80329 0.66295 0.0
C5176 C 0.76967 0.7934 0.65809 0.0
C5177 C 0.80276 0.78787 0.65728 0.0
C5178 C 0.79488 0.81357 0.68463 0.0
C5179 C 0.80022 0.83425 0.68628 0.0
C5180 C 0.80419 0.8473 0.70445 0.0
C5181 C 0.8033 0.83907 0.72151 0.0
C5182 C 0.79925 0.81783 0.72054 0.0
C5183 C 0.79463 0.80493 0.70169 0.0
H5184 H 0.7469 0.50507 0.50574 0.0
H5185 H 0.72744 0.45514 0.5353 0.0
H5186 H 0.69848 0.46703 0.54178 0.0
H5187 H 0.73408 0.54097 0.53865 0.0
H5188 H 0.72653 0.55494 0.52125 0.0
H5189 H 0.74375 0.54042 0.51516 0.0
H5190 H 0.72302 0.5207 0.48332 0.0
H5191 H 0.7057 0.53531 0.48913 0.0
H5192 H 0.69906 0.50811 0.4849 0.0
H5193 H 0.67416 0.48635 0.5487 0.0
H5194 H 0.65541 0.51218 0.55558 0.0
H5195 H 0.69144 0.55038 0.52286 0.0
C5196 C 0.73615 0.49631 0.5129 0.0
C5197 C 0.73903 0.47918 0.51988 0.0
C5198 C 0.72517 0.46827 0.52979 0.0
C5199 C 0.70874 0.47484 0.53343 0.0
C5200 C 0.70653 0.49226 0.527 0.0
C5201 C 0.71976 0.50279 0.51681 0.0
C5202 C 0.715 0.52226 0.51353 0.0
C5203 C 0.73078 0.54072 0.52271 0.0
C5204 C 0.71041 0.52155 0.49141 0.0
C5205 C 0.69769 0.5216 0.52451 0.0
C5206 C 0.69277 0.50391 0.53169 0.0
C5207 C 0.67771 0.50017 0.543 0.0
C5208 C 0.66731 0.51492 0.54698 0.0
C5209 C 0.67234 0.5332 0.53997 0.0
C5210 C 0.68763 0.53657 0.52858 0.0
H5211 H 0.19645 0.10471 0.4824 0.0
H5212 H 0.1989 0.15504 0.53079 0.0
H5213 H 0.16656 0.14074 0.5365 0.0
H5214 H 0.14657 0.09976 0.46494 0.0
H5215 H 0.14106 0.07255 0.45892 0.0
H5216 H 0.16457 0.08661 0.45755 0.0
H5217 H 0.17747 0.06658 0.48124 0.0
H5218 H 0.15399 0.05255 0.48275 0.0
H5219 H 0.16843 0.06614 0.50495 0.0
H5220 H 0.13494 0.12295 0.53734 0.0
H5221 H 0.10434 0.10093 0.53518 0.0
H5222 H 0.11919 0.05861 0.48737 0.0
C5223 C 0.19006 0.11269 0.49409 0.0
C5224 C 0.20047 0.13103 0.50632 0.0
C5225 C 0.19153 0.14094 0.52145 0.0
C5226 C 0.17304 0.13297 0.52475 0.0
C5227 C 0.16332 0.11494 0.51281 0.0
C5228 C 0.17129 0.10473 0.49779 0.0
C5229 C 0.15711 0.08532 0.48763 0.0
C5230 C 0.15203 0.0861 0.46597 0.0
C5231 C 0.16471 0.06653 0.48924 0.0
C5232 C 0.14024 0.08622 0.49969 0.0
C5233 C 0.1444 0.10378 0.51381 0.0
C5234 C 0.13154 0.10904 0.5265 0.0
C5235 C 0.11395 0.09609 0.52507 0.0
C5236 C 0.10892 0.07743 0.51132 0.0
C5237 C 0.1224 0.07251 0.49822 0.0
H5238 H 0.22761 0.90233 0.7429 0.0
H5239 H 0.24075 0.93186 0.8044 0.0
H5240 H 0.25824 0.9065 0.81005 0.0
H5241 H 0.22245 0.85033 0.75169 0.0
H5242 H 0.23312 0.84152 0.72996 0.0
H5243 H 0.22125 0.86189 0.73036 0.0
H5244 H 0.25125 0.88443 0.72132 0.0
H5245 H 0.26318 0.8641 0.72095 0.0
H5246 H 0.27302 0.88837 0.73649 0.0
H5247 H 0.27473 0.87561 0.8099 0.0
H5248 H 0.28767 0.84498 0.80314 0.0
H5249 H 0.26645 0.83506 0.74178 0.0
C5250 C 0.23416 0.90369 0.75762 0.0
C5251 C 0.23193 0.91985 0.77318 0.0
C5252 C 0.24118 0.92006 0.79201 0.0
C5253 C 0.25156 0.90548 0.79545 0.0
C5254 C 0.25325 0.88993 0.78005 0.0
C5255 C 0.24477 0.88896 0.76141 0.0
C5256 C 0.24877 0.87049 0.74746 0.0
C5257 C 0.2303 0.85515 0.73937 0.0
C5258 C 0.2597 0.87726 0.73054 0.0
C5259 C 0.26089 0.86148 0.76097 0.0
C5260 C 0.2632 0.8729 0.77982 0.0
C5261 C 0.27317 0.86702 0.79498 0.0
C5262 C 0.28087 0.84948 0.79095 0.0
C5263 C 0.27942 0.83757 0.77167 0.0
C5264 C 0.2688 0.84389 0.75664 0.0
H5265 H 0.42611 0.99272 0.05642 0.0
H5266 H 0.41445 0.04436 0.03452 0.0
H5267 H 0.44794 0.05563 0.0303 0.0
H5268 H 0.47829 0.01997 0.07874 0.0
H5269 H 0.48496 0.99626 0.07181 0.0
H5270 H 0.4622 0.99672 0.08036 0.0
H5271 H 0.44708 0.97152 0.04835 0.0
H5272 H 0.46949 0.97182 0.03907 0.0
H5273 H 0.4513 0.97846 0.02472 0.0
H5274 H 0.47937 0.05607 0.02029 0.0
H5275 H 0.50902 0.04923 0.01042 0.0
H5276 H 0.49937 0.99531 0.03573 0.0
C5277 C 0.43076 1.00716 0.05209 0.0
C5278 C 0.41777 0.01764 0.04568 0.0
C5279 C 0.42426 0.03612 0.03941 0.0
C5280 C 0.44325 0.04267 0.03706 0.0
C5281 C 0.45542 0.03079 0.04156 0.0
C5282 C 0.44964 0.01382 0.04968 0.0
C5283 C 0.46475 1.00194 0.05018 0.0
C5284 C 0.47304 1.00384 0.07154 0.0
C5285 C 0.45771 0.97964 0.03996 0.0
C5286 C 0.47875 0.01333 0.03867 0.0
C5287 C 0.47346 0.03035 0.03464 0.0
C5288 C 0.48373 0.04289 0.02358 0.0
C5289 C 0.50031 0.03843 0.01728 0.0
C5290 C 0.50621 0.02122 0.02132 0.0
C5291 C 0.49506 0.00833 0.03194 0.0
H5292 H 0.86906 0.61735 0.7799 0.0
H5293 H 0.8578 0.63889 0.8398 0.0
H5294 H 0.84373 0.66513 0.82817 0.0
H5295 H 0.88067 0.66525 0.76419 0.0
H5296 H 0.86904 0.65484 0.73976 0.0
H5297 H 0.87918 0.63915 0.75338 0.0
H5298 H 0.84714 0.6134 0.74914 0.0
H5299 H 0.8368 0.62897 0.73557 0.0
H5300 H 0.82668 0.62184 0.75719 0.0
H5301 H 0.82774 0.68587 0.80867 0.0
H5302 H 0.8129 0.70079 0.78399 0.0
H5303 H 0.83783 0.66678 0.73767 0.0
C5304 C 0.86382 0.6278 0.79059 0.0
C5305 C 0.86427 0.62633 0.81061 0.0
C5306 C 0.85745 0.64006 0.82436 0.0
C5307 C 0.84948 0.65485 0.81788 0.0
C5308 C 0.84882 0.65556 0.79777 0.0
C5309 C 0.85599 0.64246 0.78443 0.0
C5310 C 0.85284 0.64537 0.76354 0.0
C5311 C 0.87155 0.65154 0.75471 0.0
C5312 C 0.84011 0.62627 0.75061 0.0
C5313 C 0.84289 0.66241 0.76711 0.0
C5314 C 0.84043 0.66794 0.78684 0.0
C5315 C 0.82999 0.68203 0.79325 0.0
C5316 C 0.82173 0.69055 0.77907 0.0
C5317 C 0.82426 0.68515 0.75874 0.0
C5318 C 0.83535 0.67118 0.75294 0.0
H5319 H 0.87856 0.62296 0.99265 0.0
H5320 H 0.89938 0.67642 0.03808 0.0
H5321 H 0.92787 0.66435 0.04519 0.0
H5322 H 0.8919 0.58882 0.01762 0.0
H5323 H 0.8991 0.57344 0.99687 0.0
H5324 H 0.88183 0.58766 0.99294 0.0
H5325 H 0.90224 0.60512 0.96866 0.0
H5326 H 0.91961 0.59088 0.97251 0.0
H5327 H 0.92626 0.61806 0.97664 0.0
H5328 H 0.95228 0.64487 0.05015 0.0
H5329 H 0.9703 0.61876 0.05292 0.0
H5330 H 0.93369 0.57768 0.00488 0.0
C5331 C 0.88937 0.63236 1.0037 0.0
C5332 C 0.88671 0.6506 0.01486 0.0
C5333 C 0.90102 0.6623 0.02948 0.0
C5334 C 0.91734 0.65565 0.03351 0.0
C5335 C 0.91931 0.63733 0.02269 0.0
C5336 C 0.90579 0.62589 0.00797 0.0
C5337 C 0.91063 0.60594 0.99973 0.0
C5338 C 0.89493 0.58791 1.00194 0.0
C5339 C 0.91494 0.60494 0.9781 0.0
C5340 C 0.92824 0.60743 0.01299 0.0
C5341 C 0.93334 0.62592 0.02574 0.0
C5342 C 0.94861 0.63047 0.04003 0.0
C5343 C 0.95876 0.61562 0.04152 0.0
C5344 C 0.95339 0.59644 0.02899 0.0
C5345 C 0.93813 0.5924 0.01441 0.0
H5346 H 0.26247 0.13061 0.77465 0.0
H5347 H 0.20485 0.13691 0.77417 0.0
H5348 H 0.2157 0.17352 0.77567 0.0
H5349 H 0.2844 0.17909 0.80728 0.0
H5350 H 0.3046 0.18469 0.79371 0.0
H5351 H 0.29285 0.15881 0.79319 0.0
H5352 H 0.28839 0.15237 0.75513 0.0
H5353 H 0.30016 0.17823 0.75556 0.0
H5354 H 0.27693 0.16827 0.74307 0.0
H5355 H 0.23225 0.20992 0.77757 0.0
H5356 H 0.25262 0.24295 0.77792 0.0
H5357 H 0.3012 0.21624 0.77573 0.0
C5358 C 0.25213 0.13971 0.775 0.0
C5359 C 0.2325 0.13029 0.77439 0.0
C5360 C 0.21977 0.14319 0.77457 0.0
C5361 C 0.22588 0.16424 0.77547 0.0
C5362 C 0.24504 0.17293 0.77594 0.0
C5363 C 0.25808 0.16112 0.77552 0.0
C5364 C 0.27782 0.17469 0.77533 0.0
C5365 C 0.29068 0.17429 0.79346 0.0
C5366 C 0.28634 0.16799 0.75613 0.0
C5367 C 0.27383 0.1959 0.77615 0.0
C5368 C 0.25471 0.19423 0.77649 0.0
C5369 C 0.2472 0.21124 0.77721 0.0
C5370 C 0.25917 0.23027 0.7774 0.0
C5371 C 0.27897 0.23308 0.77683 0.0
C5372 C 0.28631 0.21524 0.77629 0.0
H5373 H 0.37177 0.93634 0.28682 0.0
H5374 H 0.31637 0.94778 0.27779 0.0
H5375 H 0.3021 0.9116 0.27731 0.0
H5376 H 0.36419 0.89039 0.25539 0.0
H5377 H 0.37794 0.87909 0.27064 0.0
H5378 H 0.38341 0.90601 0.27237 0.0
H5379 H 0.38015 0.91094 0.30998 0.0
H5380 H 0.3744 0.88396 0.30848 0.0
H5381 H 0.35867 0.89897 0.31875 0.0
H5382 H 0.29499 0.87454 0.27253 0.0
H5383 H 0.29455 0.8385 0.26667 0.0
H5384 H 0.35466 0.85184 0.28188 0.0
C5385 C 0.35663 0.93109 0.28474 0.0
C5386 C 0.34494 0.94414 0.2818 0.0
C5387 C 0.32526 0.93744 0.27962 0.0
C5388 C 0.31718 0.91719 0.27957 0.0
C5389 C 0.32916 0.9045 0.28225 0.0
C5390 C 0.34844 0.91122 0.28505 0.0
C5391 C 0.35827 0.89443 0.28648 0.0
C5392 C 0.37173 0.89236 0.27025 0.0
C5393 C 0.36847 0.89725 0.30716 0.0
C5394 C 0.34153 0.87695 0.28297 0.0
C5395 C 0.32488 0.88311 0.28074 0.0
C5396 C 0.30779 0.86954 0.275 0.0
C5397 C 0.3077 0.84909 0.2717 0.0
C5398 C 0.32448 0.84258 0.27472 0.0
C5399 C 0.34161 0.85661 0.28015 0.0
H5400 H 0.55569 0.4068 0.5619 0.0
H5401 H 0.61522 0.41599 0.55432 0.0
H5402 H 0.61383 0.44618 0.54056 0.0
H5403 H 0.54281 0.42664 0.51765 0.0
H5404 H 0.52559 0.43826 0.52963 0.0
H5405 H 0.53046 0.41574 0.53643 0.0
H5406 H 0.53803 0.43401 0.57302 0.0
H5407 H 0.53275 0.45633 0.56629 0.0
H5408 H 0.55522 0.45768 0.57911 0.0
H5409 H 0.60587 0.47688 0.52755 0.0
H5410 H 0.59367 0.50652 0.52258 0.0
H5411 H 0.54176 0.4806 0.54446 0.0
C5412 C 0.56855 0.41503 0.55745 0.0
C5413 C 0.58556 0.40826 0.55922 0.0
C5414 C 0.60178 0.41994 0.55281 0.0
C5415 C 0.60119 0.4374 0.54495 0.0
C5416 C 0.58427 0.44352 0.54349 0.0
C5417 C 0.56829 0.43275 0.54981 0.0
C5418 C 0.55216 0.44326 0.54788 0.0
C5419 C 0.53685 0.4302 0.53197 0.0
C5420 C 0.54408 0.44812 0.56777 0.0
C5421 C 0.56191 0.46238 0.54102 0.0
C5422 C 0.58014 0.46173 0.53752 0.0
C5423 C 0.5916 0.47743 0.53045 0.0
C5424 C 0.5845 0.49437 0.52765 0.0
C5425 C 0.56633 0.4963 0.53271 0.0
C5426 C 0.55507 0.47975 0.53937 0.0
H5427 H 0.42865 0.7986 0.36814 0.0
H5428 H 0.42153 0.7334 0.35454 0.0
H5429 H 0.39277 0.73053 0.33328 0.0
H5430 H 0.37961 0.79962 0.36894 0.0
H5431 H 0.38126 0.82095 0.35686 0.0
H5432 H 0.40142 0.81826 0.37137 0.0
H5433 H 0.42089 0.8202 0.34139 0.0
H5434 H 0.4008 0.82296 0.32681 0.0
H5435 H 0.4124 0.80295 0.31836 0.0
H5436 H 0.3646 0.73434 0.3122 0.0
H5437 H 0.33956 0.74474 0.29392 0.0
H5438 H 0.36387 0.80732 0.32047 0.0
C5439 C 0.42117 0.78366 0.36068 0.0
C5440 C 0.42771 0.76619 0.36362 0.0
C5441 C 0.41702 0.7471 0.35333 0.0
C5442 C 0.40056 0.74528 0.34092 0.0
C5443 C 0.39456 0.76265 0.33852 0.0
C5444 C 0.40455 0.78153 0.34807 0.0
C5445 C 0.39502 0.79778 0.34262 0.0
C5446 C 0.38897 0.80987 0.36105 0.0
C5447 C 0.40805 0.8118 0.33165 0.0
C5448 C 0.37795 0.78506 0.32888 0.0
C5449 C 0.37813 0.76482 0.32658 0.0
C5450 C 0.36429 0.75015 0.31411 0.0
C5451 C 0.35 0.75621 0.30377 0.0
C5452 C 0.34916 0.77678 0.30597 0.0
C5453 C 0.36351 0.79139 0.31877 0.0
H5454 H 0.07848 0.69491 0.08321 0.0
H5455 H 0.07792 0.70675 0.02374 0.0
H5456 H 0.07502 0.67026 0.01049 0.0
H5457 H 0.10432 0.65618 0.07739 0.0
H5458 H 0.0902 0.64102 0.09225 0.0
H5459 H 0.09258 0.66798 0.09686 0.0
H5460 H 0.05637 0.6629 0.09254 0.0
H5461 H 0.05393 0.63593 0.08815 0.0
H5462 H 0.04342 0.64737 0.07027 0.0
H5463 H 0.07195 0.63161 1.00392 0.0
H5464 H 0.06681 0.5951 0.00468 0.0
H5465 H 0.06922 0.60866 0.06841 0.0
C5466 C 0.07784 0.68981 0.0674 0.0
C5467 C 0.07864 0.70373 0.0545 0.0
C5468 C 0.07736 0.69638 0.03388 0.0
C5469 C 0.07579 0.67568 0.02626 0.0
C5470 C 0.0752 0.66235 0.0394 0.0
C5471 C 0.07591 0.66915 0.05954 0.0
C5472 C 0.07399 0.6517 0.07051 0.0
C5473 C 0.09131 0.65439 0.08512 0.0
C5474 C 0.05586 0.64934 0.08099 0.0
C5475 C 0.07276 0.63406 0.05355 0.0
C5476 C 0.07337 0.64043 0.03567 0.0
C5477 C 0.07165 0.62661 0.0179 0.0
C5478 C 0.06893 0.60586 0.01844 0.0
C5479 C 0.06829 0.599 0.0366 0.0
C5480 C 0.07025 0.61344 0.05432 0.0
H5481 H 0.11048 0.26034 0.85662 0.0
H5482 H 0.12802 0.31513 0.9012 0.0
H5483 H 0.1582 0.32299 0.88699 0.0
H5484 H 0.15805 0.24909 0.8557 0.0
H5485 H 0.15476 0.23911 0.82954 0.0
H5486 H 0.13488 0.23692 0.84396 0.0
H5487 H 0.11829 0.25482 0.82083 0.0
H5488 H 0.13802 0.25696 0.8063 0.0
H5489 H 0.13015 0.27925 0.81667 0.0
H5490 H 0.18672 0.32581 0.86694 0.0
H5491 H 0.20935 0.32424 0.84159 0.0
H5492 H 0.17362 0.26818 0.80966 0.0
C5493 C 0.12072 0.27386 0.86364 0.0
C5494 C 0.11642 0.28716 0.88008 0.0
C5495 C 0.13045 0.30478 0.88843 0.0
C5496 C 0.14787 0.30932 0.88056 0.0
C5497 C 0.15151 0.29607 0.86429 0.0
C5498 C 0.13832 0.27864 0.85595 0.0
C5499 C 0.14554 0.26728 0.83811 0.0
C5500 C 0.14847 0.24689 0.84206 0.0
C5501 C 0.1322 0.26443 0.81937 0.0
C5502 C 0.16431 0.28158 0.83704 0.0
C5503 C 0.16776 0.29781 0.85266 0.0
C5504 C 0.18416 0.31306 0.85476 0.0
C5505 C 0.19706 0.312 0.84035 0.0
C5506 C 0.19349 0.29598 0.82375 0.0
C5507 C 0.17692 0.28048 0.82232 0.0
H5508 H 0.59127 0.75411 0.9705 0.0
H5509 H 0.58573 0.71608 0.91254 0.0
H5510 H 0.57784 0.6856 0.92744 0.0
H5511 H 0.61106 0.72223 0.99829 0.0
H5512 H 0.59781 0.72728 0.01909 0.0
H5513 H 0.60418 0.74599 0.004 0.0
H5514 H 0.56922 0.74693 0.99788 0.0
H5515 H 0.56268 0.72816 0.01287 0.0
H5516 H 0.55219 0.72382 0.98785 0.0
H5517 H 0.56892 0.65967 0.9483 0.0
H5518 H 0.55969 0.63959 0.9737 0.0
H5519 H 0.57149 0.69457 0.01842 0.0
C5520 C 0.58866 0.73931 0.96108 0.0
C5521 C 0.58918 0.73721 0.94048 0.0
C5522 C 0.58534 0.71778 0.92839 0.0
C5523 C 0.58092 0.70048 0.93671 0.0
C5524 C 0.58025 0.703 0.95708 0.0
C5525 C 0.58397 0.72191 0.96912 0.0
C5526 C 0.58127 0.72043 0.9904 0.0
C5527 C 0.59968 0.72951 1.00373 0.0
C5528 C 0.5654 0.73043 0.99767 0.0
C5529 C 0.57564 0.69773 0.98848 0.0
C5530 C 0.57508 0.68799 0.96914 0.0
C5531 C 0.56954 0.66709 0.96355 0.0
C5532 C 0.56444 0.65581 0.97816 0.0
C5533 C 0.56509 0.66544 0.9982 0.0
C5534 C 0.57077 0.68671 1.0033 0.0
H5535 H 0.11063 0.75333 0.68966 0.0
H5536 H 0.09427 0.79344 0.73778 0.0
H5537 H 0.12479 0.79695 0.75681 0.0
H5538 H 0.13197 0.72641 0.71727 0.0
H5539 H 0.15092 0.72426 0.70203 0.0
H5540 H 0.12903 0.72726 0.69138 0.0
H5541 H 0.14652 0.75879 0.67888 0.0
H5542 H 0.16856 0.75594 0.68954 0.0
H5543 H 0.16144 0.77947 0.69613 0.0
H5544 H 0.15487 0.79213 0.77212 0.0
H5545 H 0.18284 0.7801 0.78221 0.0
H5546 H 0.17991 0.74416 0.72363 0.0
C5547 C 0.11362 0.76302 0.70412 0.0
C5548 C 0.10023 0.77302 0.71242 0.0
C5549 C 0.10451 0.78573 0.73125 0.0
C5550 C 0.12177 0.78785 0.74209 0.0
C5551 C 0.1346 0.77744 0.73364 0.0
C5552 C 0.13083 0.7655 0.71497 0.0
C5553 C 0.14644 0.75496 0.70967 0.0
C5554 C 0.13914 0.73186 0.70482 0.0
C5555 C 0.15633 0.76277 0.69255 0.0
C5556 C 0.15902 0.76173 0.7288 0.0
C5557 C 0.15215 0.77501 0.74232 0.0
C5558 C 0.16056 0.78202 0.76158 0.0
C5559 C 0.17626 0.77503 0.76723 0.0
C5560 C 0.1832 0.76123 0.75364 0.0
C5561 C 0.17475 0.75482 0.73415 0.0
H5562 H 0.10394 0.43918 0.42951 0.0
H5563 H 0.13774 0.42471 0.47593 0.0
H5564 H 0.13503 0.45591 0.49826 0.0
H5565 H 0.12147 0.497 0.44537 0.0
H5566 H 0.09858 0.50062 0.43837 0.0
H5567 H 0.10695 0.47999 0.42479 0.0
H5568 H 0.07705 0.45502 0.43118 0.0
H5569 H 0.06882 0.47538 0.44516 0.0
H5570 H 0.07162 0.45428 0.45622 0.0
H5571 H 0.12501 0.48528 0.5165 0.0
H5572 H 0.10935 0.51199 0.52965 0.0
H5573 H 0.07963 0.50575 0.47201 0.0
C5574 C 0.11133 0.4431 0.44416 0.0
C5575 C 0.12115 0.42988 0.45114 0.0
C5576 C 0.13046 0.435 0.47038 0.0
C5577 C 0.12896 0.45261 0.4831 0.0
C5578 C 0.11845 0.46495 0.47607 0.0
C5579 C 0.1101 0.46069 0.45693 0.0
C5580 C 0.09806 0.47535 0.45371 0.0
C5581 C 0.10678 0.48904 0.43973 0.0
C5582 C 0.07769 0.46433 0.44614 0.0
C5583 C 0.0995 0.48723 0.47449 0.0
C5584 C 0.11185 0.48144 0.48694 0.0
C5585 C 0.11532 0.48993 0.50689 0.0
C5586 C 0.10602 0.50487 0.5143 0.0
C5587 C 0.09263 0.51043 0.50207 0.0
C5588 C 0.08959 0.50169 0.4818 0.0
H5589 H 0.41795 0.2795 0.201 0.0
H5590 H 0.43436 0.24801 0.24564 0.0
H5591 H 0.40678 0.2538 0.26347 0.0
H5592 H 0.40218 0.31767 0.2337 0.0
H5593 H 0.38343 0.31802 0.21586 0.0
H5594 H 0.4046 0.31149 0.20766 0.0
H5595 H 0.38463 0.27751 0.18696 0.0
H5596 H 0.36367 0.28439 0.19529 0.0
H5597 H 0.36874 0.26084 0.19909 0.0
H5598 H 0.37836 0.26506 0.27679 0.0
H5599 H 0.34792 0.27447 0.28118 0.0
H5600 H 0.35023 0.29613 0.22604 0.0
C5601 C 0.41573 0.27388 0.21458 0.0
C5602 C 0.42821 0.26378 0.22239 0.0
C5603 C 0.42484 0.25604 0.23978 0.0
C5604 C 0.40942 0.2594 0.24997 0.0
C5605 C 0.39779 0.27035 0.24229 0.0
C5606 C 0.40059 0.27702 0.22474 0.0
C5607 C 0.38587 0.28766 0.219 0.0
C5608 C 0.39455 0.31004 0.21908 0.0
C5609 C 0.37509 0.27694 0.19891 0.0
C5610 C 0.37388 0.28542 0.23576 0.0
C5611 C 0.38125 0.27605 0.24944 0.0
C5612 C 0.37251 0.27251 0.26626 0.0
C5613 C 0.3554 0.27809 0.26873 0.0
C5614 C 0.34727 0.28653 0.25414 0.0
C5615 C 0.35662 0.29033 0.23762 0.0
H5616 H 0.6271 0.54605 0.38706 0.0
H5617 H 0.60022 0.48363 0.36199 0.0
H5618 H 0.58321 0.48138 0.39148 0.0
H5619 H 0.63259 0.54007 0.43812 0.0
H5620 H 0.62708 0.56371 0.4486 0.0
H5621 H 0.63706 0.56094 0.42527 0.0
H5622 H 0.60917 0.57161 0.40906 0.0
H5623 H 0.59912 0.57442 0.43237 0.0
H5624 H 0.58556 0.5581 0.41082 0.0
H5625 H 0.56736 0.48585 0.42468 0.0
H5626 H 0.55672 0.49599 0.45753 0.0
H5627 H 0.59417 0.55497 0.46365 0.0
C5628 C 0.61761 0.53185 0.38758 0.0
C5629 C 0.61566 0.51491 0.3714 0.0
C5630 C 0.60282 0.49687 0.37362 0.0
C5631 C 0.59275 0.49544 0.39057 0.0
C5632 C 0.59517 0.51215 0.40606 0.0
C5633 C 0.60737 0.53007 0.40475 0.0
C5634 C 0.60742 0.54571 0.42375 0.0
C5635 C 0.62722 0.55304 0.43458 0.0
C5636 C 0.59988 0.56353 0.4187 0.0
C5637 C 0.59384 0.53373 0.4361 0.0
C5638 C 0.58662 0.51447 0.42533 0.0
C5639 C 0.57319 0.50088 0.43311 0.0
C5640 C 0.56712 0.50686 0.45205 0.0
C5641 C 0.57446 0.5263 0.46398 0.0
C5642 C 0.58819 0.53986 0.45551 0.0
H5643 H 0.32867 0.86045 0.08357 0.0
H5644 H 0.32078 0.9149 0.12065 0.0
H5645 H 0.32538 0.90038 0.15043 0.0
H5646 H 0.30607 0.8247 0.11494 0.0
H5647 H 0.32262 0.809 0.10978 0.0
H5648 H 0.31583 0.82242 0.09148 0.0
H5649 H 0.3508 0.83911 0.08975 0.0
H5650 H 0.35776 0.82596 0.10811 0.0
H5651 H 0.36488 0.85311 0.11205 0.0
H5652 H 0.33478 0.88189 0.17552 0.0
H5653 H 0.34652 0.85949 0.19492 0.0
H5654 H 0.34833 0.81727 0.14101 0.0
C5655 C 0.32736 0.86892 0.09799 0.0
C5656 C 0.32418 0.88845 0.10025 0.0
C5657 C 0.32292 0.89967 0.11904 0.0
C5658 C 0.32551 0.89158 0.13586 0.0
C5659 C 0.32913 0.87234 0.13326 0.0
C5660 C 0.32978 0.86103 0.1148 0.0
C5661 C 0.33529 0.84145 0.11604 0.0
C5662 C 0.31898 0.82332 0.10756 0.0
C5663 C 0.35325 0.83984 0.10589 0.0
C5664 C 0.33874 0.84404 0.13808 0.0
C5665 C 0.33479 0.86177 0.14777 0.0
C5666 C 0.33769 0.86786 0.16816 0.0
C5667 C 0.34452 0.85522 0.17897 0.0
C5668 C 0.34844 0.83695 0.16921 0.0
C5669 C 0.34565 0.83136 0.1486 0.0
H5670 H 0.97847 0.52266 0.89148 0.0
H5671 H 0.99589 0.5856 0.88607 0.0
H5672 H 0.02136 0.59079 0.91254 0.0
H5673 H 0.98731 0.52923 0.94249 0.0
H5674 H 0.99588 0.50654 0.94165 0.0
H5675 H 0.97927 0.50815 0.92225 0.0
H5676 H 1.00227 0.49947 0.89649 0.0
H5677 H 0.01913 0.49826 0.91595 0.0
H5678 H 0.02577 0.51491 0.89887 0.0
H5679 H 0.04293 0.58958 0.94116 0.0
H5680 H 0.05817 0.5821 0.97089 0.0
H5681 H 0.0296 0.51911 0.95371 0.0
C5682 C 0.98787 0.53745 0.89545 0.0
C5683 C 0.98529 0.55365 0.88658 0.0
C5684 C 0.99748 0.57297 0.89281 0.0
C5685 C 0.01214 0.57602 0.90761 0.0
C5686 C 0.01457 0.55949 0.91557 0.0
C5687 C 1.00278 0.5406 0.90969 0.0
C5688 C 0.00791 0.52545 0.92098 0.0
C5689 C 0.99163 0.51686 0.93253 0.0
C5690 C 0.01414 0.50852 0.90725 0.0
C5691 C 0.02417 0.53893 0.93455 0.0
C5692 C 0.02784 0.55852 0.93121 0.0
C5693 C 0.04059 0.57423 0.94361 0.0
C5694 C 0.04918 0.56988 0.96035 0.0
C5695 C 0.04501 0.55005 0.96411 0.0
C5696 C 0.03313 0.53426 0.95072 0.0
H5697 H 0.29856 0.22961 0.62656 0.0
H5698 H 0.31358 0.28974 0.61335 0.0
H5699 H 0.31314 0.30447 0.64874 0.0
H5700 H 0.26743 0.23948 0.66352 0.0
H5701 H 0.2751 0.22361 0.67884 0.0
H5702 H 0.27624 0.21804 0.65253 0.0
H5703 H 0.31185 0.21926 0.65783 0.0
H5704 H 0.31069 0.22448 0.68412 0.0
H5705 H 0.3272 0.24135 0.67283 0.0
H5706 H 0.30987 0.31236 0.68657 0.0
H5707 H 0.30859 0.31229 0.72246 0.0
H5708 H 0.29702 0.24694 0.71005 0.0
C5709 C 0.30162 0.24589 0.63106 0.0
C5710 C 0.30582 0.2585 0.61708 0.0
C5711 C 0.31026 0.27975 0.62374 0.0
C5712 C 0.30991 0.28824 0.64382 0.0
C5713 C 0.30532 0.27531 0.65716 0.0
C5714 C 0.30158 0.25457 0.65099 0.0
C5715 C 0.29799 0.24382 0.66818 0.0
C5716 C 0.278 0.23045 0.6656 0.0
C5717 C 0.31281 0.23151 0.6709 0.0
C5718 C 0.30015 0.26165 0.68504 0.0
C5719 C 0.30413 0.27976 0.67851 0.0
C5720 C 0.30674 0.2982 0.69173 0.0
C5721 C 0.30582 0.29806 0.71208 0.0
C5722 C 0.30242 0.27959 0.71898 0.0
C5723 C 0.29938 0.26127 0.70516 0.0
H5724 H 0.61217 0.54796 0.16884 0.0
H5725 H 0.61657 0.48568 0.15124 0.0
H5726 H 0.60228 0.48478 0.11823 0.0
H5727 H 0.56668 0.54189 0.13821 0.0
H5728 H 0.57294 0.56626 0.13128 0.0
H5729 H 0.58269 0.56251 0.15449 0.0
H5730 H 0.61615 0.57506 0.14491 0.0
H5731 H 0.60639 0.57891 0.12179 0.0
H5732 H 0.62304 0.56314 0.12197 0.0
H5733 H 0.58815 0.48992 0.08589 0.0
H5734 H 0.57758 0.50101 0.05696 0.0
H5735 H 0.58 0.5602 0.09184 0.0
C5736 C 0.61013 0.53404 0.15814 0.0
C5737 C 0.6156 0.51666 0.16373 0.0
C5738 C 0.61237 0.49911 0.14852 0.0
C5739 C 0.60424 0.49846 0.12927 0.0
C5740 C 0.59899 0.51548 0.12446 0.0
C5741 C 0.60176 0.53305 0.1384 0.0
C5742 C 0.59493 0.54918 0.12862 0.0
C5743 C 0.57833 0.55533 0.13876 0.0
C5744 C 0.61109 0.56768 0.12937 0.0
C5745 C 0.58853 0.53807 0.10702 0.0
C5746 C 0.59089 0.51857 0.10535 0.0
C5747 C 0.58633 0.50524 0.08726 0.0
C5748 C 0.57997 0.51189 0.07045 0.0
C5749 C 0.5777 0.53197 0.07068 0.0
C5750 C 0.58173 0.54501 0.08996 0.0
H5751 H 0.31854 0.88081 0.90594 0.0
H5752 H 0.34085 0.8414 0.93832 0.0
H5753 H 0.33655 0.8153 0.90753 0.0
H5754 H 0.2833 0.84337 0.87501 0.0
H5755 H 0.28651 0.85523 0.8538 0.0
H5756 H 0.29156 0.87039 0.87829 0.0
H5757 H 0.32547 0.88534 0.87058 0.0
H5758 H 0.32034 0.87049 0.84598 0.0
H5759 H 0.3401 0.86846 0.86155 0.0
H5760 H 0.32851 0.79345 0.87264 0.0
H5761 H 0.32117 0.77989 0.83652 0.0
H5762 H 0.30478 0.83494 0.82912 0.0
C5763 C 0.32256 0.86668 0.90647 0.0
C5764 C 0.32985 0.86276 0.92414 0.0
C5765 C 0.33523 0.84438 0.92461 0.0
C5766 C 0.33272 0.82956 0.90734 0.0
C5767 C 0.32498 0.83371 0.89007 0.0
C5768 C 0.32027 0.852 0.88957 0.0
C5769 C 0.31271 0.85331 0.86934 0.0
C5770 C 0.29231 0.85571 0.86911 0.0
C5771 C 0.32542 0.8704 0.8614 0.0
C5772 C 0.31384 0.83289 0.85841 0.0
C5773 C 0.32074 0.82158 0.87045 0.0
C5774 C 0.32312 0.8022 0.8631 0.0
C5775 C 0.31885 0.79459 0.84275 0.0
C5776 C 0.31263 0.80663 0.83044 0.0
C5777 C 0.30968 0.82565 0.8384 0.0
H5778 H 0.96896 0.55585 0.70217 0.0
H5779 H 0.9693 0.50075 0.72416 0.0
H5780 H 0.9834 0.48757 0.69466 0.0
H5781 H 0.96034 0.5333 0.64939 0.0
H5782 H 0.97637 0.5539 0.64217 0.0
H5783 H 0.96414 0.55846 0.66387 0.0
H5784 H 0.99572 0.57429 0.68536 0.0
H5785 H 0.00785 0.57042 0.6636 0.0
H5786 H 0.01385 0.56025 0.68475 0.0
H5787 H 0.99879 0.48097 0.66486 0.0
H5788 H 0.02059 0.48404 0.63901 0.0
H5789 H 0.01142 0.5435 0.63625 0.0
C5790 C 0.97204 0.54104 0.70071 0.0
C5791 C 0.96763 0.52905 0.71508 0.0
C5792 C 0.97208 0.50987 0.71294 0.0
C5793 C 0.97995 0.5022 0.69622 0.0
C5794 C 0.98345 0.514 0.68193 0.0
C5795 C 0.98009 0.53319 0.68415 0.0
C5796 C 0.98729 0.54359 0.66767 0.0
C5797 C 0.97106 0.54753 0.65502 0.0
C5798 C 1.00206 0.56329 0.67584 0.0
C5799 C 0.99593 0.52751 0.65641 0.0
C5800 C 0.99298 0.51034 0.66458 0.0
C5801 C 1.00107 0.49417 0.65809 0.0
C5802 C 0.01341 0.49603 0.64353 0.0
C5803 C 0.01748 0.51395 0.63589 0.0
C5804 C 0.00808 0.5295 0.64172 0.0
H5805 H 0.31434 0.27426 0.42009 0.0
H5806 H 0.31843 0.21186 0.40377 0.0
H5807 H 0.32159 0.21599 0.3693 0.0
H5808 H 0.28774 0.27682 0.37604 0.0
H5809 H 0.30002 0.30201 0.37454 0.0
H5810 H 0.29852 0.2945 0.39816 0.0
H5811 H 0.33475 0.30461 0.40453 0.0
H5812 H 0.33632 0.31195 0.38079 0.0
H5813 H 0.34877 0.29367 0.38693 0.0
H5814 H 0.32224 0.22579 0.33629 0.0
H5815 H 0.32105 0.24119 0.3067 0.0
H5816 H 0.31814 0.2978 0.34372 0.0
C5817 C 0.31597 0.26154 0.40922 0.0
C5818 C 0.31622 0.24271 0.41465 0.0
C5819 C 0.31841 0.22644 0.40001 0.0
C5820 C 0.32019 0.22864 0.38038 0.0
C5821 C 0.32004 0.24732 0.37549 0.0
C5822 C 0.31813 0.26359 0.38945 0.0
C5823 C 0.31841 0.28198 0.37999 0.0
C5824 C 0.30008 0.28924 0.38232 0.0
C5825 C 0.33558 0.29906 0.38858 0.0
C5826 C 0.32011 0.27323 0.35853 0.0
C5827 C 0.32112 0.25323 0.35634 0.0
C5828 C 0.32175 0.24153 0.33786 0.0
C5829 C 0.32109 0.2504 0.32112 0.0
C5830 C 0.32002 0.27084 0.3229 0.0
C5831 C 0.31972 0.28242 0.34192 0.0
H5832 H 0.37319 0.59407 0.54135 0.0
H5833 H 0.35943 0.59989 0.48102 0.0
H5834 H 0.38627 0.58601 0.47055 0.0
H5835 H 0.42389 0.60515 0.54103 0.0
H5836 H 0.42688 0.58624 0.55514 0.0
H5837 H 0.40749 0.59833 0.55857 0.0
H5838 H 0.38398 0.56352 0.55083 0.0
H5839 H 0.40327 0.55129 0.54773 0.0
H5840 H 0.38462 0.54626 0.52817 0.0
H5841 H 0.41301 0.57018 0.46599 0.0
H5842 H 0.43704 0.55 0.46714 0.0
H5843 H 0.43326 0.5533 0.52994 0.0
C5844 C 0.37584 0.59241 0.52596 0.0
C5845 C 0.3645 0.59846 0.51209 0.0
C5846 C 0.36831 0.59593 0.49202 0.0
C5847 C 0.38348 0.58803 0.4859 0.0
C5848 C 0.39457 0.58254 0.49998 0.0
C5849 C 0.39085 0.58434 0.51952 0.0
C5850 C 0.40415 0.57579 0.53126 0.0
C5851 C 0.41633 0.59237 0.54745 0.0
C5852 C 0.39336 0.55817 0.54 0.0
C5853 C 0.41563 0.56855 0.5151 0.0
C5854 C 0.41 0.5729 0.49725 0.0
C5855 C 0.41768 0.56675 0.47985 0.0
C5856 C 0.43119 0.55532 0.48059 0.0
C5857 C 0.43671 0.55028 0.49857 0.0
C5858 C 0.42921 0.55726 0.5161 0.0
H5859 H 0.92427 0.96706 0.566 0.0
H5860 H 0.90493 0.95313 0.50352 0.0
H5861 H 0.93476 0.97304 0.49633 0.0
H5862 H 0.95089 0.01876 0.5666 0.0
H5863 H 0.97011 0.0176 0.58342 0.0
H5864 H 0.94691 1.00266 0.58456 0.0
H5865 H 0.95973 0.97023 0.58023 0.0
H5866 H 0.98299 0.98508 0.57924 0.0
H5867 H 0.97269 0.96423 0.55941 0.0
H5868 H 0.96552 0.99417 0.49498 0.0
H5869 H 0.99791 0.01366 0.49924 0.0
H5870 H 1.00074 0.01456 0.56195 0.0
C5871 C 0.92638 0.96821 0.55083 0.0
C5872 C 0.91184 0.95876 0.53538 0.0
C5873 C 0.91537 0.9606 0.51573 0.0
C5874 C 0.9324 0.97185 0.51144 0.0
C5875 C 0.94615 0.98126 0.52686 0.0
C5876 C 0.94359 0.97955 0.54617 0.0
C5877 C 0.96131 0.99111 0.55961 0.0
C5878 C 0.95704 0.00857 0.57443 0.0
C5879 C 0.96967 0.9768 0.57025 0.0
C5880 C 0.97419 0.99913 0.54467 0.0
C5881 C 0.96478 0.99331 0.52598 0.0
C5882 C 0.9731 0.99858 0.50952 0.0
C5883 C 0.99167 0.00958 0.51199 0.0
C5884 C 1.00222 0.01529 0.53058 0.0
C5885 C 0.99317 0.01037 0.54741 0.0
H5886 H 0.88173 0.1828 0.30006 0.0
H5887 H 0.87491 0.159 0.23691 0.0
H5888 H 0.85701 0.18384 0.23185 0.0
H5889 H 0.83557 0.19539 0.30366 0.0
H5890 H 0.844 0.21887 0.32092 0.0
H5891 H 0.85626 0.19879 0.32037 0.0
H5892 H 0.88695 0.22293 0.31506 0.0
H5893 H 0.87475 0.24306 0.31571 0.0
H5894 H 0.88728 0.2362 0.29479 0.0
H5895 H 0.83916 0.21338 0.23253 0.0
H5896 H 0.82522 0.24327 0.2396 0.0
H5897 H 0.84227 0.24997 0.30174 0.0
C5898 C 0.87655 0.18255 0.28506 0.0
C5899 C 0.88014 0.16747 0.26909 0.0
C5900 C 0.87267 0.16899 0.24995 0.0
C5901 C 0.86227 0.1836 0.24672 0.0
C5902 C 0.85892 0.19771 0.26255 0.0
C5903 C 0.866 0.19743 0.28144 0.0
C5904 C 0.86067 0.21487 0.29578 0.0
C5905 C 0.8484 0.20647 0.3111 0.0
C5906 C 0.87847 0.23017 0.30595 0.0
C5907 C 0.84939 0.22467 0.28215 0.0
C5908 C 0.84863 0.21448 0.26295 0.0
C5909 C 0.83955 0.22106 0.24766 0.0
C5910 C 0.83127 0.23815 0.25186 0.0
C5911 C 0.83129 0.24898 0.27138 0.0
C5912 C 0.84097 0.24193 0.28663 0.0
H5913 H 0.68781 0.05413 0.0224 0.0
H5914 H 0.69316 0.10654 0.99469 0.0
H5915 H 0.66071 0.10822 1.00074 0.0
H5916 H 0.64155 0.03011 1.00258 0.0
H5917 H 0.63522 0.02107 0.0248 0.0
H5918 H 0.65924 0.02557 0.01931 0.0
H5919 H 0.66911 0.0506 0.05368 0.0
H5920 H 0.64484 0.04428 0.05806 0.0
H5921 H 0.65671 0.07039 0.06005 0.0
H5922 H 0.62889 0.10512 0.0104 0.0
H5923 H 0.59543 0.08987 0.01125 0.0
H5924 H 0.60991 0.03767 0.02908 0.0
C5925 C 0.68191 0.06563 0.01726 0.0
C5926 C 0.6927 0.08012 0.00808 0.0
C5927 C 0.68484 0.09512 1.00154 0.0
C5928 C 0.66668 0.09656 0.00541 0.0
C5929 C 0.6568 0.08288 0.01576 0.0
C5930 C 0.66378 0.06719 0.02081 0.0
C5931 C 0.64948 0.05315 0.02971 0.0
C5932 C 0.64617 0.03119 0.01839 0.0
C5933 C 0.6554 0.05476 0.0517 0.0
C5934 C 0.6328 0.06231 0.02703 0.0
C5935 C 0.63779 0.08036 0.02044 0.0
C5936 C 0.62475 0.09116 0.01575 0.0
C5937 C 0.60587 0.08245 0.0163 0.0
C5938 C 0.60056 0.06294 0.02066 0.0
C5939 C 0.61399 0.05302 0.02669 0.0
H5940 H 0.24602 0.47581 0.27304 0.0
H5941 H 0.24337 0.44995 0.21062 0.0
H5942 H 0.26607 0.42992 0.21837 0.0
H5943 H 0.29334 0.48011 0.28589 0.0
H5944 H 0.29013 0.47257 0.30939 0.0
H5945 H 0.27355 0.48461 0.29895 0.0
H5946 H 0.2463 0.45444 0.30109 0.0
H5947 H 0.26267 0.44235 0.31184 0.0
H5948 H 0.24759 0.42921 0.28991 0.0
H5949 H 0.28991 0.41438 0.23284 0.0
H5950 H 0.31054 0.40052 0.25338 0.0
H5951 H 0.29549 0.43519 0.30633 0.0
C5952 C 0.24976 0.46557 0.26096 0.0
C5953 C 0.24291 0.46432 0.24122 0.0
C5954 C 0.24864 0.45121 0.22583 0.0
C5955 C 0.26144 0.43979 0.23009 0.0
C5956 C 0.26809 0.44168 0.24975 0.0
C5957 C 0.26217 0.45394 0.26494 0.0
C5958 C 0.27102 0.453 0.28485 0.0
C5959 C 0.2827 0.47381 0.29537 0.0
C5960 C 0.25601 0.44421 0.29767 0.0
C5961 C 0.28335 0.43863 0.27846 0.0
C5962 C 0.28149 0.43236 0.25816 0.0
C5963 C 0.29147 0.4191 0.24874 0.0
C5964 C 0.30322 0.41148 0.26047 0.0
C5965 C 0.30463 0.41703 0.28133 0.0
C5966 C 0.29493 0.43112 0.2904 0.0
H5967 H 0.21594 0.42661 0.00924 0.0
H5968 H 0.24331 0.46645 0.0635 0.0
H5969 H 0.21895 0.48605 0.06306 0.0
H5970 H 0.20525 0.4639 0.98572 0.0
H5971 H 0.18272 0.44933 0.97403 0.0
H5972 H 0.20068 0.43669 0.9801 0.0
H5973 H 0.17797 0.41592 1.00034 0.0
H5974 H 0.15994 0.42862 0.99437 0.0
H5975 H 0.16706 0.42888 0.0198 0.0
H5976 H 0.19294 0.50317 0.05541 0.0
H5977 H 0.16893 0.51745 0.03985 0.0
H5978 H 0.15944 0.46767 0.98986 0.0
C5979 C 0.21681 0.43938 0.02111 0.0
C5980 C 0.23164 0.4448 0.03647 0.0
C5981 C 0.232 0.46161 0.05175 0.0
C5982 C 0.2182 0.47293 0.05162 0.0
C5983 C 0.20397 0.46731 0.03616 0.0
C5984 C 0.20317 0.45091 0.02118 0.0
C5985 C 0.18717 0.44891 0.00554 0.0
C5986 C 0.1944 0.44977 0.98515 0.0
C5987 C 0.17215 0.42942 0.00498 0.0
C5988 C 0.17985 0.46743 0.01346 0.0
C5989 C 0.18933 0.4775 0.03145 0.0
C5990 C 0.18534 0.49531 0.0414 0.0
C5991 C 0.17165 0.5033 0.0325 0.0
C5992 C 0.1624 0.49372 0.01366 0.0
C5993 C 0.16634 0.47534 0.00426 0.0
H5994 H 0.85576 0.95235 0.25018 0.0
H5995 H 0.90395 0.95673 0.2914 0.0
H5996 H 0.89255 0.92116 0.29366 0.0
H5997 H 0.82182 0.91926 0.27398 0.0
H5998 H 0.80919 0.90391 0.25144 0.0
H5999 H 0.82106 0.92974 0.2519 0.0
H6000 H 0.83959 0.91796 0.22311 0.0
H6001 H 0.82772 0.89209 0.22252 0.0
H6002 H 0.85299 0.8993 0.22536 0.0
H6003 H 0.87762 0.88431 0.29031 0.0
H6004 H 0.85862 0.85003 0.28503 0.0
H6005 H 0.81628 0.86671 0.24898 0.0
C6006 C 0.86397 0.94583 0.25965 0.0
C6007 C 0.88103 0.95811 0.27073 0.0
C6008 C 0.89092 0.94842 0.28291 0.0
C6009 C 0.88454 0.92791 0.28422 0.0
C6010 C 0.86787 0.91648 0.27341 0.0
C6011 C 0.8575 0.92503 0.26146 0.0
C6012 C 0.83973 0.9089 0.25193 0.0
C6013 C 0.82188 0.91587 0.25766 0.0
C6014 C 0.84001 0.9043 0.22939 0.0
C6015 C 0.84159 0.89025 0.26076 0.0
C6016 C 0.85832 0.89514 0.27266 0.0
C6017 C 0.86428 0.88059 0.28141 0.0
C6018 C 0.85304 0.8608 0.27835 0.0
C6019 C 0.83515 0.85492 0.26715 0.0
C6020 C 0.82949 0.87025 0.25808 0.0
H6021 H 0.75154 0.15239 0.78728 0.0
H6022 H 0.79181 0.13411 0.74851 0.0
H6023 H 0.80925 0.16975 0.75304 0.0
H6024 H 0.74417 0.18816 0.76714 0.0
H6025 H 0.742 0.20643 0.78851 0.0
H6026 H 0.73723 0.18016 0.78969 0.0
H6027 H 0.76199 0.18744 0.81987 0.0
H6028 H 0.76661 0.21401 0.81902 0.0
H6029 H 0.78556 0.20113 0.81832 0.0
H6030 H 0.82046 0.20728 0.75996 0.0
H6031 H 0.81996 0.24277 0.76122 0.0
H6032 H 0.76662 0.23453 0.78524 0.0
C6033 C 0.76467 0.15585 0.78074 0.0
C6034 C 0.77086 0.14076 0.76816 0.0
C6035 C 0.78733 0.14563 0.75866 0.0
C6036 C 0.79736 0.1657 0.76134 0.0
C6037 C 0.79048 0.18043 0.77336 0.0
C6038 C 0.77436 0.17575 0.78278 0.0
C6039 C 0.76721 0.1943 0.79063 0.0
C6040 C 0.74644 0.1921 0.78352 0.0
C6041 C 0.77054 0.19953 0.8133 0.0
C6042 C 0.78014 0.20954 0.78164 0.0
C6043 C 0.79444 0.20168 0.77349 0.0
C6044 C 0.80883 0.21325 0.76548 0.0
C6045 C 0.80805 0.23312 0.76517 0.0
C6046 C 0.79214 0.24044 0.77043 0.0
C6047 C 0.77834 0.22878 0.77965 0.0
loop_
_geom_bond_atom_site_label_1
_geom_bond_atom_site_label_2
_geom_bond_distance
_geom_bond_site_symmetry_2
_ccdc_geom_bond_type
Li0 N17 1.990 . S
Li0 O60 1.956 . S
Li0 O61 1.970 . S
Li0 O62 1.961 . S
Li1 N25 1.990 . S
Li1 O60 1.970 . S
Li1 O61 1.956 . S
Li1 O63 1.961 . S
Li2 N47 1.990 . S
Li2 O60 1.961 . S
Li2 O62 1.956 . S
Li2 O63 1.970 . S
Li3 N53 1.990 . S
Li3 O61 1.961 . S
Li3 O62 1.970 . S
Li3 O63 1.956 . S
C4 C6 1.348 . S
C4 C7 1.356 . S
C4 O60 1.325 . S
N5 C8 1.314 . S
N5 C9 1.279 . S
C6 C4 1.348 . S
C6 C8 1.353 . S
C6 H64 0.929 . S
C7 C4 1.356 . S
C7 C9 1.358 . S
C7 H65 0.930 . S
C8 N5 1.314 . S
C8 C6 1.353 . S
C8 H66 0.930 . S
C9 N5 1.279 . S
C9 C7 1.358 . S
C9 H67 0.930 . S
C10 C13 1.348 . S
C10 C14 1.356 . S
C10 O61 1.325 . S
C11 N12 1.279 . S
C11 C14 1.358 . S
C11 H68 0.930 . S
N12 C11 1.279 . S
N12 C15 1.314 . S
C13 C10 1.348 . S
C13 C15 1.353 . S
C13 H69 0.929 . S
C14 C10 1.356 . S
C14 C11 1.358 . S
C14 H70 0.930 . S
C15 N12 1.314 . S
C15 C13 1.353 . S
C15 H71 0.930 . S
C16 N17 1.314 . S
C16 C21 1.353 . S
C16 H22 0.930 . S
N17 Li0 1.990 . S
N17 C16 1.314 . S
N17 C19 1.279 . S
C18 C19 1.358 . S
C18 C20 1.356 . S
C18 H72 0.930 . S
C19 N17 1.279 . S
C19 C18 1.358 . S
C19 H23 0.930 . S
C20 C18 1.356 . S
C20 C21 1.348 . S
C21 C16 1.353 . S
C21 C20 1.348 . S
C21 H73 0.929 . S
H22 C16 0.930 . S
H23 C19 0.930 . S
C24 N25 1.314 . S
C24 C26 1.353 . S
C24 H30 0.930 . S
N25 Li1 1.990 . S
N25 C24 1.314 . S
N25 C28 1.279 . S
C26 C24 1.353 . S
C26 C29 1.348 . S
C26 H74 0.929 . S
C27 C28 1.358 . S
C27 C29 1.356 . S
C27 H75 0.930 . S
C28 N25 1.279 . S
C28 C27 1.358 . S
C28 H31 0.930 . S
C29 C26 1.348 . S
C29 C27 1.356 . S
H30 C24 0.930 . S
H31 C28 0.930 . S
C32 C34 1.348 . S
C32 C35 1.356 . S
C32 O62 1.325 . S
N33 C36 1.314 . S
N33 C37 1.279 . S
C34 C32 1.348 . S
C34 C36 1.353 . S
C34 H76 0.929 . S
C35 C32 1.356 . S
C35 C37 1.358 . S
C35 H77 0.930 . S
C36 N33 1.314 . S
C36 C34 1.353 . S
C36 H78 0.930 . S
C37 N33 1.279 . S
C37 C35 1.358 . S
C37 H79 0.930 . S
C38 C39 1.348 . S
C38 C40 1.356 . S
C38 O63 1.325 . S
C39 C38 1.348 . S
C39 C41 1.353 . S
C39 H80 0.929 . S
C40 C38 1.356 . S
C40 C42 1.358 . S
C40 H81 0.930 . S
C41 C39 1.353 . S
C41 N43 1.314 . S
C41 H82 0.930 . S
C42 C40 1.358 . S
C42 N43 1.279 . S
C42 H83 0.930 . S
N43 C41 1.314 . S
N43 C42 1.279 . S
C44 C46 1.353 . S
C44 N47 1.314 . S
C44 H50 0.930 . S
C45 N47 1.279 . S
C45 C48 1.358 . S
C45 H51 0.930 . S
C46 C44 1.353 . S
C46 C49 1.348 . S
C46 H84 0.929 . S
N47 Li2 1.990 . S
N47 C44 1.314 . S
N47 C45 1.279 . S
C48 C45 1.358 . S
C48 C49 1.356 . S
C48 H85 0.930 . S
C49 C46 1.348 . S
C49 C48 1.356 . S
H50 C44 0.930 . S
H51 C45 0.930 . S
C52 N53 1.314 . S
C52 C54 1.353 . S
C52 H58 0.930 . S
N53 Li3 1.990 . S
N53 C52 1.314 . S
N53 C56 1.279 . S
C54 C52 1.353 . S
C54 C57 1.348 . S
C54 H86 0.929 . S
C55 C56 1.358 . S
C55 C57 1.356 . S
C55 H87 0.930 . S
C56 N53 1.279 . S
C56 C55 1.358 . S
C56 H59 0.930 . S
C57 C54 1.348 . S
C57 C55 1.356 . S
H58 C52 0.930 . S
H59 C56 0.930 . S
O60 Li0 1.956 . S
O60 Li1 1.970 . S
O60 Li2 1.961 . S
O60 C4 1.325 . S
O61 Li0 1.970 . S
O61 Li1 1.956 . S
O61 Li3 1.961 . S
O61 C10 1.325 . S
O62 Li0 1.961 . S
O62 Li2 1.956 . S
O62 Li3 1.970 . S
O62 C32 1.325 . S
O63 Li1 1.961 . S
O63 Li2 1.970 . S
O63 Li3 1.956 . S
O63 C38 1.325 . S
H64 C6 0.929 . S
H65 C7 0.930 . S
H66 C8 0.930 . S
H67 C9 0.930 . S
H68 C11 0.930 . S
H69 C13 0.929 . S
H70 C14 0.930 . S
H71 C15 0.930 . S
H72 C18 0.930 . S
H73 C21 0.929 . S
H74 C26 0.929 . S
H75 C27 0.930 . S
H76 C34 0.929 . S
H77 C35 0.930 . S
H78 C36 0.930 . S
H79 C37 0.930 . S
H80 C39 0.929 . S
H81 C40 0.930 . S
H82 C41 0.930 . S
H83 C42 0.930 . S
H84 C46 0.929 . S
H85 C48 0.930 . S
H86 C54 0.929 . S
H87 C55 0.930 . S
Li88 N105 1.990 . S
Li88 O148 1.956 . S
Li88 O149 1.970 . S
Li88 O150 1.961 1_455 S
Li89 N113 1.990 . S
Li89 O148 1.970 . S
Li89 O149 1.956 . S
Li89 O151 1.937 1_455 S
Li90 N135 1.990 . S
Li90 O148 1.961 1_655 S
Li90 O150 1.956 . S
Li90 O151 1.972 . S
Li91 N141 1.990 . S
Li91 O149 1.961 1_655 S
Li91 O150 1.970 . S
Li91 O151 1.989 . S
C92 C94 1.348 . S
C92 C95 1.356 . S
C92 O148 1.325 . S
N93 C96 1.314 . S
N93 C97 1.279 . S
C94 C92 1.348 . S
C94 C96 1.353 . S
C94 H152 0.929 . S
C95 C92 1.356 . S
C95 C97 1.358 . S
C95 H153 0.930 . S
C96 N93 1.314 . S
C96 C94 1.353 . S
C96 H154 0.930 . S
C97 N93 1.279 . S
C97 C95 1.358 . S
C97 H155 0.930 . S
C98 C101 1.348 . S
C98 C102 1.356 . S
C98 O149 1.325 . S
C99 N100 1.279 . S
C99 C102 1.358 . S
C99 H156 0.930 . S
N100 C99 1.279 . S
N100 C103 1.314 . S
C101 C98 1.348 . S
C101 C103 1.353 . S
C101 H157 0.929 . S
C102 C98 1.356 . S
C102 C99 1.358 . S
C102 H158 0.928 1_455 S
C103 N100 1.314 . S
C103 C101 1.353 . S
C103 H159 0.930 . S
C104 N105 1.314 1_655 S
C104 C109 1.353 . S
C104 H110 0.930 . S
N105 Li88 1.990 . S
N105 C104 1.314 1_455 S
N105 C107 1.279 . S
C106 C107 1.358 . S
C106 C108 1.356 . S
C106 H160 0.930 . S
C107 N105 1.279 . S
C107 C106 1.358 . S
C107 H111 0.930 . S
C108 C106 1.356 . S
C108 C109 1.348 1_455 S
C109 C104 1.353 . S
C109 C108 1.348 1_655 S
C109 H161 0.929 . S
H110 C104 0.930 . S
H111 C107 0.930 . S
C112 N113 1.314 . S
C112 C114 1.353 . S
C112 H118 0.930 . S
N113 Li89 1.990 . S
N113 C112 1.314 . S
N113 C116 1.279 . S
C114 C112 1.353 . S
C114 C117 1.348 . S
C114 H162 0.929 . S
C115 C116 1.358 . S
C115 C117 1.356 . S
C115 H163 0.930 . S
C116 N113 1.279 . S
C116 C115 1.358 . S
C116 H119 0.930 . S
C117 C114 1.348 . S
C117 C115 1.356 . S
H118 C112 0.930 . S
H119 C116 0.930 . S
C120 C122 1.348 . S
C120 C123 1.356 . S
C120 O150 1.325 . S
N121 C124 1.314 . S
N121 C125 1.279 . S
C122 C120 1.348 . S
C122 C124 1.353 . S
C122 H164 0.929 . S
C123 C120 1.356 . S
C123 C125 1.358 . S
C123 H165 0.930 . S
C124 N121 1.314 . S
C124 C122 1.353 . S
C124 H166 0.930 . S
C125 N121 1.279 . S
C125 C123 1.358 . S
C125 H167 0.930 . S
C126 C127 1.348 . S
C126 C128 1.356 1_655 S
C126 O151 1.323 . S
C127 C126 1.348 . S
C127 C129 1.353 . S
C127 H168 0.929 . S
C128 C126 1.356 1_455 S
C128 C130 1.358 . S
C128 H169 0.930 . S
C129 C127 1.353 . S
C129 N131 1.314 . S
C129 H170 0.930 . S
C130 C128 1.358 . S
C130 N131 1.277 1_455 S
C130 H171 0.934 . S
N131 C129 1.314 . S
N131 C130 1.277 1_655 S
C132 C134 1.353 . S
C132 N135 1.314 1_455 S
C132 H138 0.930 . S
C133 N135 1.279 . S
C133 C136 1.358 . S
C133 H139 0.930 . S
C134 C132 1.353 . S
C134 C137 1.348 1_455 S
C134 H172 0.929 . S
N135 Li90 1.990 . S
N135 C132 1.314 1_655 S
N135 C133 1.279 . S
C136 C133 1.358 . S
C136 C137 1.356 . S
C136 H173 0.930 . S
C137 C134 1.348 1_655 S
C137 C136 1.356 . S
H138 C132 0.930 . S
H139 C133 0.930 . S
C140 N141 1.314 . S
C140 C142 1.353 . S
C140 H146 0.930 . S
N141 Li91 1.990 . S
N141 C140 1.314 . S
N141 C144 1.279 . S
C142 C140 1.353 . S
C142 C145 1.348 . S
C142 H174 0.929 . S
C143 C144 1.358 . S
C143 C145 1.356 . S
C143 H175 0.930 . S
C144 N141 1.279 . S
C144 C143 1.358 . S
C144 H147 0.930 . S
C145 C142 1.348 . S
C145 C143 1.356 . S
H146 C140 0.930 . S
H147 C144 0.930 . S
O148 Li88 1.956 . S
O148 Li89 1.970 . S
O148 Li90 1.961 1_455 S
O148 C92 1.325 . S
O149 Li88 1.970 . S
O149 Li89 1.956 . S
O149 Li91 1.961 1_455 S
O149 C98 1.325 . S
O150 Li88 1.961 1_655 S
O150 Li90 1.956 . S
O150 Li91 1.970 . S
O150 C120 1.325 . S
O151 Li89 1.937 1_655 S
O151 Li90 1.972 . S
O151 Li91 1.989 . S
O151 C126 1.323 . S
H152 C94 0.929 . S
H153 C95 0.930 . S
H154 C96 0.930 . S
H155 C97 0.930 . S
H156 C99 0.930 . S
H157 C101 0.929 . S
H158 C102 0.928 1_655 S
H159 C103 0.930 . S
H160 C106 0.930 . S
H161 C109 0.929 . S
H162 C114 0.929 . S
H163 C115 0.930 . S
H164 C122 0.929 . S
H165 C123 0.930 . S
H166 C124 0.930 . S
H167 C125 0.930 . S
H168 C127 0.929 . S
H169 C128 0.930 . S
H170 C129 0.930 . S
H171 C130 0.934 . S
H172 C134 0.929 . S
H173 C136 0.930 . S
H174 C142 0.929 . S
H175 C143 0.930 . S
Li176 N193 1.990 . S
Li176 O236 1.956 . S
Li176 O237 1.970 . S
Li176 O238 1.961 . S
Li177 N201 1.990 . S
Li177 O236 1.970 . S
Li177 O237 1.956 . S
Li177 O239 1.961 . S
Li178 N223 1.990 . S
Li178 O236 1.961 . S
Li178 O238 1.956 . S
Li178 O239 1.970 . S
Li179 N229 1.990 . S
Li179 O237 1.961 . S
Li179 O238 1.970 . S
Li179 O239 1.956 . S
C180 C182 1.348 . S
C180 C183 1.356 . S
C180 O236 1.325 . S
N181 C184 1.314 . S
N181 C185 1.279 . S
C182 C180 1.348 . S
C182 C184 1.353 . S
C182 H240 0.929 . S
C183 C180 1.356 . S
C183 C185 1.358 . S
C183 H241 0.930 . S
C184 N181 1.314 . S
C184 C182 1.353 . S
C184 H242 0.930 . S
C185 N181 1.279 . S
C185 C183 1.358 . S
C185 H243 0.930 . S
C186 C189 1.348 . S
C186 C190 1.356 . S
C186 O237 1.325 . S
C187 N188 1.279 . S
C187 C190 1.358 . S
C187 H244 0.930 . S
N188 C187 1.279 . S
N188 C191 1.314 . S
C189 C186 1.348 . S
C189 C191 1.353 . S
C189 H245 0.929 . S
C190 C186 1.356 . S
C190 C187 1.358 . S
C190 H246 0.930 . S
C191 N188 1.314 . S
C191 C189 1.353 . S
C191 H247 0.930 . S
C192 N193 1.314 . S
C192 C197 1.353 . S
C192 H198 0.930 . S
N193 Li176 1.990 . S
N193 C192 1.314 . S
N193 C195 1.279 . S
C194 C195 1.358 . S
C194 C196 1.356 . S
C194 H248 0.930 . S
C195 N193 1.279 . S
C195 C194 1.358 . S
C195 H199 0.930 . S
C196 C194 1.356 . S
C196 C197 1.348 . S
C197 C192 1.353 . S
C197 C196 1.348 . S
C197 H249 0.929 . S
H198 C192 0.930 . S
H199 C195 0.930 . S
C200 N201 1.314 . S
C200 C202 1.353 . S
C200 H206 0.930 . S
N201 Li177 1.990 . S
N201 C200 1.314 . S
N201 C204 1.279 . S
C202 C200 1.353 . S
C202 C205 1.348 . S
C202 H250 0.929 . S
C203 C204 1.358 . S
C203 C205 1.356 . S
C203 H251 0.930 . S
C204 N201 1.279 . S
C204 C203 1.358 . S
C204 H207 0.930 . S
C205 C202 1.348 . S
C205 C203 1.356 . S
H206 C200 0.930 . S
H207 C204 0.930 . S
C208 C210 1.348 . S
C208 C211 1.356 . S
C208 O238 1.325 . S
N209 C212 1.314 . S
N209 C213 1.279 . S
C210 C208 1.348 . S
C210 C212 1.353 . S
C210 H252 0.929 . S
C211 C208 1.356 . S
C211 C213 1.358 . S
C211 H253 0.930 . S
C212 N209 1.314 . S
C212 C210 1.353 . S
C212 H254 0.930 . S
C213 N209 1.279 . S
C213 C211 1.358 . S
C213 H255 0.930 . S
C214 C215 1.348 . S
C214 C216 1.356 . S
C214 O239 1.325 . S
C215 C214 1.348 . S
C215 C217 1.353 . S
C215 H256 0.929 . S
C216 C214 1.356 . S
C216 C218 1.358 . S
C216 H257 0.930 . S
C217 C215 1.353 . S
C217 N219 1.314 . S
C217 H258 0.930 . S
C218 C216 1.358 . S
C218 N219 1.279 . S
C218 H259 0.930 . S
N219 C217 1.314 . S
N219 C218 1.279 . S
C220 C222 1.353 . S
C220 N223 1.314 . S
C220 H226 0.930 . S
C221 N223 1.279 . S
C221 C224 1.358 . S
C221 H227 0.930 . S
C222 C220 1.353 . S
C222 C225 1.348 . S
C222 H260 0.929 . S
N223 Li178 1.990 . S
N223 C220 1.314 . S
N223 C221 1.279 . S
C224 C221 1.358 . S
C224 C225 1.356 . S
C224 H261 0.930 . S
C225 C222 1.348 . S
C225 C224 1.356 . S
H226 C220 0.930 . S
H227 C221 0.930 . S
C228 N229 1.314 . S
C228 C230 1.353 . S
C228 H234 0.930 . S
N229 Li179 1.990 . S
N229 C228 1.314 . S
N229 C232 1.279 . S
C230 C228 1.353 . S
C230 C233 1.348 . S
C230 H262 0.929 . S
C231 C232 1.358 . S
C231 C233 1.356 . S
C231 H263 0.930 . S
C232 N229 1.279 . S
C232 C231 1.358 . S
C232 H235 0.930 . S
C233 C230 1.348 . S
C233 C231 1.356 . S
H234 C228 0.930 . S
H235 C232 0.930 . S
O236 Li176 1.956 . S
O236 Li177 1.970 . S
O236 Li178 1.961 . S
O236 C180 1.325 . S
O237 Li176 1.970 . S
O237 Li177 1.956 . S
O237 Li179 1.961 . S
O237 C186 1.325 . S
O238 Li176 1.961 . S
O238 Li178 1.956 . S
O238 Li179 1.970 . S
O238 C208 1.325 . S
O239 Li177 1.961 . S
O239 Li178 1.970 . S
O239 Li179 1.956 . S
O239 C214 1.325 . S
H240 C182 0.929 . S
H241 C183 0.930 . S
H242 C184 0.930 . S
H243 C185 0.930 . S
H244 C187 0.930 . S
H245 C189 0.929 . S
H246 C190 0.930 . S
H247 C191 0.930 . S
H248 C194 0.930 . S
H249 C197 0.929 . S
H250 C202 0.929 . S
H251 C203 0.930 . S
H252 C210 0.929 . S
H253 C211 0.930 . S
H254 C212 0.930 . S
H255 C213 0.930 . S
H256 C215 0.929 . S
H257 C216 0.930 . S
H258 C217 0.930 . S
H259 C218 0.930 . S
H260 C222 0.929 . S
H261 C224 0.930 . S
H262 C230 0.929 . S
H263 C231 0.930 . S
Li264 N281 1.990 . S
Li264 O324 1.956 . S
Li264 O325 1.970 . S
Li264 O326 1.961 . S
Li265 N289 1.990 . S
Li265 O324 1.970 . S
Li265 O325 1.956 . S
Li265 O327 1.961 . S
Li266 N311 1.990 . S
Li266 O324 1.961 . S
Li266 O326 1.956 . S
Li266 O327 1.970 . S
Li267 N317 1.990 . S
Li267 O325 1.961 . S
Li267 O326 1.970 . S
Li267 O327 1.956 . S
C268 C270 1.348 . S
C268 C271 1.356 . S
C268 O324 1.325 . S
N269 C272 1.314 . S
N269 C273 1.279 . S
C270 C268 1.348 . S
C270 C272 1.353 . S
C270 H328 0.929 . S
C271 C268 1.356 . S
C271 C273 1.358 . S
C271 H329 0.930 . S
C272 N269 1.314 . S
C272 C270 1.353 . S
C272 H330 0.930 . S
C273 N269 1.279 . S
C273 C271 1.358 . S
C273 H331 0.930 . S
C274 C277 1.348 . S
C274 C278 1.356 . S
C274 O325 1.325 . S
C275 N276 1.279 . S
C275 C278 1.358 . S
C275 H332 0.930 . S
N276 C275 1.279 . S
N276 C279 1.314 . S
C277 C274 1.348 . S
C277 C279 1.353 . S
C277 H333 0.929 . S
C278 C274 1.356 . S
C278 C275 1.358 . S
C278 H334 0.930 . S
C279 N276 1.314 . S
C279 C277 1.353 . S
C279 H335 0.930 . S
C280 N281 1.314 . S
C280 C285 1.353 . S
C280 H286 0.930 . S
N281 Li264 1.990 . S
N281 C280 1.314 . S
N281 C283 1.279 . S
C282 C283 1.358 . S
C282 C284 1.356 . S
C282 H336 0.930 . S
C283 N281 1.279 . S
C283 C282 1.358 . S
C283 H287 0.930 . S
C284 C282 1.356 . S
C284 C285 1.348 . S
C285 C280 1.353 . S
C285 C284 1.348 . S
C285 H337 0.929 . S
H286 C280 0.930 . S
H287 C283 0.930 . S
C288 N289 1.314 . S
C288 C290 1.353 . S
C288 H294 0.930 . S
N289 Li265 1.990 . S
N289 C288 1.314 . S
N289 C292 1.279 . S
C290 C288 1.353 . S
C290 C293 1.348 . S
C290 H338 0.929 . S
C291 C292 1.358 . S
C291 C293 1.356 . S
C291 H339 0.930 . S
C292 N289 1.279 . S
C292 C291 1.358 . S
C292 H295 0.930 . S
C293 C290 1.348 . S
C293 C291 1.356 . S
H294 C288 0.930 . S
H295 C292 0.930 . S
C296 C298 1.348 . S
C296 C299 1.356 . S
C296 O326 1.325 . S
N297 C300 1.314 . S
N297 C301 1.279 . S
C298 C296 1.348 . S
C298 C300 1.353 . S
C298 H340 0.929 . S
C299 C296 1.356 . S
C299 C301 1.358 . S
C299 H341 0.930 . S
C300 N297 1.314 . S
C300 C298 1.353 . S
C300 H342 0.930 . S
C301 N297 1.279 . S
C301 C299 1.358 . S
C301 H343 0.930 . S
C302 C303 1.348 . S
C302 C304 1.356 . S
C302 O327 1.325 . S
C303 C302 1.348 . S
C303 C305 1.353 . S
C303 H344 0.929 . S
C304 C302 1.356 . S
C304 C306 1.358 . S
C304 H345 0.930 . S
C305 C303 1.353 . S
C305 N307 1.314 . S
C305 H346 0.930 . S
C306 C304 1.358 . S
C306 N307 1.279 . S
C306 H347 0.930 . S
N307 C305 1.314 . S
N307 C306 1.279 . S
C308 C310 1.353 . S
C308 N311 1.314 . S
C308 H314 0.930 . S
C309 N311 1.279 . S
C309 C312 1.358 . S
C309 H315 0.930 . S
C310 C308 1.353 . S
C310 C313 1.348 . S
C310 H348 0.929 . S
N311 Li266 1.990 . S
N311 C308 1.314 . S
N311 C309 1.279 . S
C312 C309 1.358 . S
C312 C313 1.356 . S
C312 H349 0.930 . S
C313 C310 1.348 . S
C313 C312 1.356 . S
H314 C308 0.930 . S
H315 C309 0.930 . S
C316 N317 1.314 . S
C316 C318 1.353 . S
C316 H322 0.930 . S
N317 Li267 1.990 . S
N317 C316 1.314 . S
N317 C320 1.279 . S
C318 C316 1.353 . S
C318 C321 1.348 . S
C318 H350 0.929 . S
C319 C320 1.358 . S
C319 C321 1.356 . S
C319 H351 0.930 . S
C320 N317 1.279 . S
C320 C319 1.358 . S
C320 H323 0.930 . S
C321 C318 1.348 . S
C321 C319 1.356 . S
H322 C316 0.930 . S
H323 C320 0.930 . S
O324 Li264 1.956 . S
O324 Li265 1.970 . S
O324 Li266 1.961 . S
O324 C268 1.325 . S
O325 Li264 1.970 . S
O325 Li265 1.956 . S
O325 Li267 1.961 . S
O325 C274 1.325 . S
O326 Li264 1.961 . S
O326 Li266 1.956 . S
O326 Li267 1.970 . S
O326 C296 1.325 . S
O327 Li265 1.961 . S
O327 Li266 1.970 . S
O327 Li267 1.956 . S
O327 C302 1.325 . S
H328 C270 0.929 . S
H329 C271 0.930 . S
H330 C272 0.930 . S
H331 C273 0.930 . S
H332 C275 0.930 . S
H333 C277 0.929 . S
H334 C278 0.930 . S
H335 C279 0.930 . S
H336 C282 0.930 . S
H337 C285 0.929 . S
H338 C290 0.929 . S
H339 C291 0.930 . S
H340 C298 0.929 . S
H341 C299 0.930 . S
H342 C300 0.930 . S
H343 C301 0.930 . S
H344 C303 0.929 . S
H345 C304 0.930 . S
H346 C305 0.930 . S
H347 C306 0.930 . S
H348 C310 0.929 . S
H349 C312 0.930 . S
H350 C318 0.929 . S
H351 C319 0.930 . S
Li352 N369 1.990 . S
Li352 O412 1.956 . S
Li352 O413 1.970 . S
Li352 O414 1.961 . S
Li353 N377 1.990 . S
Li353 O412 1.970 . S
Li353 O413 1.956 . S
Li353 O415 1.961 . S
Li354 N399 1.990 . S
Li354 O412 1.961 . S
Li354 O414 1.956 . S
Li354 O415 1.970 . S
Li355 N405 1.990 . S
Li355 O413 1.961 . S
Li355 O414 1.970 . S
Li355 O415 1.956 . S
C356 C358 1.348 . S
C356 C359 1.356 . S
C356 O412 1.325 . S
N357 C360 1.314 . S
N357 C361 1.279 . S
C358 C356 1.348 . S
C358 C360 1.353 . S
C358 H416 0.929 . S
C359 C356 1.356 . S
C359 C361 1.358 . S
C359 H417 0.930 . S
C360 N357 1.314 . S
C360 C358 1.353 . S
C360 H418 0.930 . S
C361 N357 1.279 . S
C361 C359 1.358 . S
C361 H419 0.930 . S
C362 C365 1.348 . S
C362 C366 1.356 . S
C362 O413 1.325 . S
C363 N364 1.279 . S
C363 C366 1.358 . S
C363 H420 0.930 . S
N364 C363 1.279 . S
N364 C367 1.314 . S
C365 C362 1.348 . S
C365 C367 1.353 . S
C365 H421 0.929 . S
C366 C362 1.356 . S
C366 C363 1.358 . S
C366 H422 0.930 . S
C367 N364 1.314 . S
C367 C365 1.353 . S
C367 H423 0.930 . S
C368 N369 1.314 . S
C368 C373 1.353 . S
C368 H374 0.930 . S
N369 Li352 1.990 . S
N369 C368 1.314 . S
N369 C371 1.279 . S
C370 C371 1.358 . S
C370 C372 1.356 . S
C370 H424 0.930 . S
C371 N369 1.279 . S
C371 C370 1.358 . S
C371 H375 0.930 . S
C372 C370 1.356 . S
C372 C373 1.348 . S
C373 C368 1.353 . S
C373 C372 1.348 . S
C373 H425 0.929 . S
H374 C368 0.930 . S
H375 C371 0.930 . S
C376 N377 1.314 . S
C376 C378 1.353 . S
C376 H382 0.930 . S
N377 Li353 1.990 . S
N377 C376 1.314 . S
N377 C380 1.279 . S
C378 C376 1.353 . S
C378 C381 1.348 . S
C378 H426 0.929 . S
C379 C380 1.358 . S
C379 C381 1.356 . S
C379 H427 0.930 . S
C380 N377 1.279 . S
C380 C379 1.358 . S
C380 H383 0.930 . S
C381 C378 1.348 . S
C381 C379 1.356 . S
H382 C376 0.930 . S
H383 C380 0.930 . S
C384 C386 1.348 . S
C384 C387 1.356 . S
C384 O414 1.325 . S
N385 C388 1.314 . S
N385 C389 1.279 . S
C386 C384 1.348 . S
C386 C388 1.353 . S
C386 H428 0.929 . S
C387 C384 1.356 . S
C387 C389 1.358 . S
C387 H429 0.930 . S
C388 N385 1.314 . S
C388 C386 1.353 . S
C388 H430 0.930 . S
C389 N385 1.279 . S
C389 C387 1.358 . S
C389 H431 0.930 . S
C390 C391 1.348 . S
C390 C392 1.356 . S
C390 O415 1.325 . S
C391 C390 1.348 . S
C391 C393 1.353 . S
C391 H432 0.929 . S
C392 C390 1.356 . S
C392 C394 1.358 . S
C392 H433 0.930 . S
C393 C391 1.353 . S
C393 N395 1.314 . S
C393 H434 0.930 . S
C394 C392 1.358 . S
C394 N395 1.279 . S
C394 H435 0.930 . S
N395 C393 1.314 . S
N395 C394 1.279 . S
C396 C398 1.353 . S
C396 N399 1.314 . S
C396 H402 0.930 . S
C397 N399 1.279 . S
C397 C400 1.358 . S
C397 H403 0.930 . S
C398 C396 1.353 . S
C398 C401 1.348 . S
C398 H436 0.929 . S
N399 Li354 1.990 . S
N399 C396 1.314 . S
N399 C397 1.279 . S
C400 C397 1.358 . S
C400 C401 1.356 . S
C400 H437 0.930 . S
C401 C398 1.348 . S
C401 C400 1.356 . S
H402 C396 0.930 . S
H403 C397 0.930 . S
C404 N405 1.314 . S
C404 C406 1.353 . S
C404 H410 0.930 . S
N405 Li355 1.990 . S
N405 C404 1.314 . S
N405 C408 1.279 . S
C406 C404 1.353 . S
C406 C409 1.348 . S
C406 H438 0.929 . S
C407 C408 1.358 . S
C407 C409 1.356 . S
C407 H439 0.930 . S
C408 N405 1.279 . S
C408 C407 1.358 . S
C408 H411 0.930 . S
C409 C406 1.348 . S
C409 C407 1.356 . S
H410 C404 0.930 . S
H411 C408 0.930 . S
O412 Li352 1.956 . S
O412 Li353 1.970 . S
O412 Li354 1.961 . S
O412 C356 1.325 . S
O413 Li352 1.970 . S
O413 Li353 1.956 . S
O413 Li355 1.961 . S
O413 C362 1.325 . S
O414 Li352 1.961 . S
O414 Li354 1.956 . S
O414 Li355 1.970 . S
O414 C384 1.325 . S
O415 Li353 1.961 . S
O415 Li354 1.970 . S
O415 Li355 1.956 . S
O415 C390 1.325 . S
H416 C358 0.929 . S
H417 C359 0.930 . S
H418 C360 0.930 . S
H419 C361 0.930 . S
H420 C363 0.930 . S
H421 C365 0.929 . S
H422 C366 0.930 . S
H423 C367 0.930 . S
H424 C370 0.930 . S
H425 C373 0.929 . S
H426 C378 0.929 . S
H427 C379 0.930 . S
H428 C386 0.929 . S
H429 C387 0.930 . S
H430 C388 0.930 . S
H431 C389 0.930 . S
H432 C391 0.929 . S
H433 C392 0.930 . S
H434 C393 0.930 . S
H435 C394 0.930 . S
H436 C398 0.929 . S
H437 C400 0.930 . S
H438 C406 0.929 . S
H439 C407 0.930 . S
Li440 N457 1.990 . S
Li440 O500 1.956 . S
Li440 O501 1.970 . S
Li440 O502 1.961 . S
Li441 N465 1.990 . S
Li441 O500 1.970 . S
Li441 O501 1.956 . S
Li441 O503 1.961 . S
Li442 N487 1.990 . S
Li442 O500 1.961 . S
Li442 O502 1.956 . S
Li442 O503 1.970 . S
Li443 N493 1.990 . S
Li443 O501 1.961 . S
Li443 O502 1.970 . S
Li443 O503 1.956 . S
C444 C446 1.348 . S
C444 C447 1.356 . S
C444 O500 1.325 . S
N445 C448 1.314 . S
N445 C449 1.279 . S
C446 C444 1.348 . S
C446 C448 1.353 . S
C446 H504 0.929 . S
C447 C444 1.356 . S
C447 C449 1.358 . S
C447 H505 0.930 . S
C448 N445 1.314 . S
C448 C446 1.353 . S
C448 H506 0.930 . S
C449 N445 1.279 . S
C449 C447 1.358 . S
C449 H507 0.930 . S
C450 C453 1.348 . S
C450 C454 1.356 . S
C450 O501 1.325 . S
C451 N452 1.279 . S
C451 C454 1.358 . S
C451 H508 0.930 . S
N452 C451 1.279 . S
N452 C455 1.314 . S
C453 C450 1.348 . S
C453 C455 1.353 . S
C453 H509 0.929 . S
C454 C450 1.356 . S
C454 C451 1.358 . S
C454 H510 0.930 . S
C455 N452 1.314 . S
C455 C453 1.353 . S
C455 H511 0.930 . S
C456 N457 1.314 . S
C456 C461 1.353 . S
C456 H462 0.930 . S
N457 Li440 1.990 . S
N457 C456 1.314 . S
N457 C459 1.279 . S
C458 C459 1.358 . S
C458 C460 1.356 . S
C458 H512 0.930 . S
C459 N457 1.279 . S
C459 C458 1.358 . S
C459 H463 0.930 . S
C460 C458 1.356 . S
C460 C461 1.348 . S
C461 C456 1.353 . S
C461 C460 1.348 . S
C461 H513 0.929 . S
H462 C456 0.930 . S
H463 C459 0.930 . S
C464 N465 1.314 . S
C464 C466 1.353 . S
C464 H470 0.930 . S
N465 Li441 1.990 . S
N465 C464 1.314 . S
N465 C468 1.279 . S
C466 C464 1.353 . S
C466 C469 1.348 . S
C466 H514 0.929 . S
C467 C468 1.358 . S
C467 C469 1.356 . S
C467 H515 0.930 . S
C468 N465 1.279 . S
C468 C467 1.358 . S
C468 H471 0.930 . S
C469 C466 1.348 . S
C469 C467 1.356 . S
H470 C464 0.930 . S
H471 C468 0.930 . S
C472 C474 1.348 . S
C472 C475 1.356 . S
C472 O502 1.325 . S
N473 C476 1.314 . S
N473 C477 1.279 . S
C474 C472 1.348 . S
C474 C476 1.353 . S
C474 H516 0.929 . S
C475 C472 1.356 . S
C475 C477 1.358 . S
C475 H517 0.930 . S
C476 N473 1.314 . S
C476 C474 1.353 . S
C476 H518 0.930 . S
C477 N473 1.279 . S
C477 C475 1.358 . S
C477 H519 0.930 . S
C478 C479 1.348 . S
C478 C480 1.356 . S
C478 O503 1.325 . S
C479 C478 1.348 . S
C479 C481 1.353 . S
C479 H520 0.929 . S
C480 C478 1.356 . S
C480 C482 1.358 . S
C480 H521 0.930 . S
C481 C479 1.353 . S
C481 N483 1.314 . S
C481 H522 0.930 . S
C482 C480 1.358 . S
C482 N483 1.279 . S
C482 H523 0.930 . S
N483 C481 1.314 . S
N483 C482 1.279 . S
C484 C486 1.353 . S
C484 N487 1.314 . S
C484 H490 0.930 . S
C485 N487 1.279 . S
C485 C488 1.358 . S
C485 H491 0.930 . S
C486 C484 1.353 . S
C486 C489 1.348 . S
C486 H524 0.929 . S
N487 Li442 1.990 . S
N487 C484 1.314 . S
N487 C485 1.279 . S
C488 C485 1.358 . S
C488 C489 1.356 . S
C488 H525 0.930 . S
C489 C486 1.348 . S
C489 C488 1.356 . S
H490 C484 0.930 . S
H491 C485 0.930 . S
C492 N493 1.314 . S
C492 C494 1.353 . S
C492 H498 0.930 . S
N493 Li443 1.990 . S
N493 C492 1.314 . S
N493 C496 1.279 . S
C494 C492 1.353 . S
C494 C497 1.348 . S
C494 H526 0.929 . S
C495 C496 1.358 . S
C495 C497 1.356 . S
C495 H527 0.930 . S
C496 N493 1.279 . S
C496 C495 1.358 . S
C496 H499 0.930 . S
C497 C494 1.348 . S
C497 C495 1.356 . S
H498 C492 0.930 . S
H499 C496 0.930 . S
O500 Li440 1.956 . S
O500 Li441 1.970 . S
O500 Li442 1.961 . S
O500 C444 1.325 . S
O501 Li440 1.970 . S
O501 Li441 1.956 . S
O501 Li443 1.961 . S
O501 C450 1.325 . S
O502 Li440 1.961 . S
O502 Li442 1.956 . S
O502 Li443 1.970 . S
O502 C472 1.325 . S
O503 Li441 1.961 . S
O503 Li442 1.970 . S
O503 Li443 1.956 . S
O503 C478 1.325 . S
H504 C446 0.929 . S
H505 C447 0.930 . S
H506 C448 0.930 . S
H507 C449 0.930 . S
H508 C451 0.930 . S
H509 C453 0.929 . S
H510 C454 0.930 . S
H511 C455 0.930 . S
H512 C458 0.930 . S
H513 C461 0.929 . S
H514 C466 0.929 . S
H515 C467 0.930 . S
H516 C474 0.929 . S
H517 C475 0.930 . S
H518 C476 0.930 . S
H519 C477 0.930 . S
H520 C479 0.929 . S
H521 C480 0.930 . S
H522 C481 0.930 . S
H523 C482 0.930 . S
H524 C486 0.929 . S
H525 C488 0.930 . S
H526 C494 0.929 . S
H527 C495 0.930 . S
Li528 N545 1.990 . S
Li528 O588 1.956 . S
Li528 O589 1.970 . S
Li528 O590 1.961 . S
Li529 N553 1.990 . S
Li529 O588 1.970 . S
Li529 O589 1.956 . S
Li529 O591 1.961 . S
Li530 N575 1.990 . S
Li530 O588 1.961 . S
Li530 O590 1.956 . S
Li530 O591 1.970 . S
Li531 N581 1.990 . S
Li531 O589 1.961 . S
Li531 O590 1.970 . S
Li531 O591 1.956 . S
C532 C534 1.348 . S
C532 C535 1.356 . S
C532 O588 1.325 . S
N533 C536 1.314 . S
N533 C537 1.279 . S
C534 C532 1.348 . S
C534 C536 1.353 . S
C534 H592 0.929 . S
C535 C532 1.356 . S
C535 C537 1.358 . S
C535 H593 0.930 . S
C536 N533 1.314 . S
C536 C534 1.353 . S
C536 H594 0.930 . S
C537 N533 1.279 . S
C537 C535 1.358 . S
C537 H595 0.930 . S
C538 C541 1.348 . S
C538 C542 1.356 . S
C538 O589 1.325 . S
C539 N540 1.279 . S
C539 C542 1.358 . S
C539 H596 0.930 . S
N540 C539 1.279 . S
N540 C543 1.314 . S
C541 C538 1.348 . S
C541 C543 1.353 . S
C541 H597 0.929 . S
C542 C538 1.356 . S
C542 C539 1.358 . S
C542 H598 0.930 . S
C543 N540 1.314 . S
C543 C541 1.353 . S
C543 H599 0.930 . S
C544 N545 1.314 . S
C544 C549 1.353 . S
C544 H550 0.930 . S
N545 Li528 1.990 . S
N545 C544 1.314 . S
N545 C547 1.279 . S
C546 C547 1.358 . S
C546 C548 1.356 . S
C546 H600 0.930 . S
C547 N545 1.279 . S
C547 C546 1.358 . S
C547 H551 0.930 . S
C548 C546 1.356 . S
C548 C549 1.348 . S
C549 C544 1.353 . S
C549 C548 1.348 . S
C549 H601 0.929 . S
H550 C544 0.930 . S
H551 C547 0.930 . S
C552 N553 1.314 . S
C552 C554 1.353 . S
C552 H558 0.930 . S
N553 Li529 1.990 . S
N553 C552 1.314 . S
N553 C556 1.279 . S
C554 C552 1.353 . S
C554 C557 1.348 . S
C554 H602 0.929 . S
C555 C556 1.358 . S
C555 C557 1.356 . S
C555 H603 0.930 . S
C556 N553 1.279 . S
C556 C555 1.358 . S
C556 H559 0.930 . S
C557 C554 1.348 . S
C557 C555 1.356 . S
H558 C552 0.930 . S
H559 C556 0.930 . S
C560 C562 1.348 . S
C560 C563 1.356 . S
C560 O590 1.325 . S
N561 C564 1.314 . S
N561 C565 1.279 . S
C562 C560 1.348 . S
C562 C564 1.353 . S
C562 H604 0.929 . S
C563 C560 1.356 . S
C563 C565 1.358 . S
C563 H605 0.930 . S
C564 N561 1.314 . S
C564 C562 1.353 . S
C564 H606 0.930 . S
C565 N561 1.279 . S
C565 C563 1.358 . S
C565 H607 0.930 . S
C566 C567 1.348 . S
C566 C568 1.356 . S
C566 O591 1.325 . S
C567 C566 1.348 . S
C567 C569 1.353 . S
C567 H608 0.929 . S
C568 C566 1.356 . S
C568 C570 1.358 . S
C568 H609 0.930 . S
C569 C567 1.353 . S
C569 N571 1.314 . S
C569 H610 0.930 . S
C570 C568 1.358 . S
C570 N571 1.279 . S
C570 H611 0.930 . S
N571 C569 1.314 . S
N571 C570 1.279 . S
C572 C574 1.353 . S
C572 N575 1.314 . S
C572 H578 0.930 . S
C573 N575 1.279 . S
C573 C576 1.358 . S
C573 H579 0.930 . S
C574 C572 1.353 . S
C574 C577 1.348 . S
C574 H612 0.929 . S
N575 Li530 1.990 . S
N575 C572 1.314 . S
N575 C573 1.279 . S
C576 C573 1.358 . S
C576 C577 1.356 . S
C576 H613 0.930 . S
C577 C574 1.348 . S
C577 C576 1.356 . S
H578 C572 0.930 . S
H579 C573 0.930 . S
C580 N581 1.314 . S
C580 C582 1.353 . S
C580 H586 0.930 . S
N581 Li531 1.990 . S
N581 C580 1.314 . S
N581 C584 1.279 . S
C582 C580 1.353 . S
C582 C585 1.348 . S
C582 H614 0.929 . S
C583 C584 1.358 . S
C583 C585 1.356 . S
C583 H615 0.930 . S
C584 N581 1.279 . S
C584 C583 1.358 . S
C584 H587 0.930 . S
C585 C582 1.348 . S
C585 C583 1.356 . S
H586 C580 0.930 . S
H587 C584 0.930 . S
O588 Li528 1.956 . S
O588 Li529 1.970 . S
O588 Li530 1.961 . S
O588 C532 1.325 . S
O589 Li528 1.970 . S
O589 Li529 1.956 . S
O589 Li531 1.961 . S
O589 C538 1.325 . S
O590 Li528 1.961 . S
O590 Li530 1.956 . S
O590 Li531 1.970 . S
O590 C560 1.325 . S
O591 Li529 1.961 . S
O591 Li530 1.970 . S
O591 Li531 1.956 . S
O591 C566 1.325 . S
H592 C534 0.929 . S
H593 C535 0.930 . S
H594 C536 0.930 . S
H595 C537 0.930 . S
H596 C539 0.930 . S
H597 C541 0.929 . S
H598 C542 0.930 . S
H599 C543 0.930 . S
H600 C546 0.930 . S
H601 C549 0.929 . S
H602 C554 0.929 . S
H603 C555 0.930 . S
H604 C562 0.929 . S
H605 C563 0.930 . S
H606 C564 0.930 . S
H607 C565 0.930 . S
H608 C567 0.929 . S
H609 C568 0.930 . S
H610 C569 0.930 . S
H611 C570 0.930 . S
H612 C574 0.929 . S
H613 C576 0.930 . S
H614 C582 0.929 . S
H615 C583 0.930 . S
Li616 N633 1.990 . S
Li616 O676 1.961 1_455 S
Li616 O677 1.970 . S
Li616 O678 1.961 . S
Li617 N641 1.951 1_455 S
Li617 O676 1.966 1_455 S
Li617 O677 1.988 . S
Li617 O679 1.999 . S
Li618 N663 1.990 . S
Li618 O676 1.967 1_455 S
Li618 O678 1.956 . S
Li618 O679 1.970 . S
Li619 N669 1.990 . S
Li619 O677 1.961 . S
Li619 O678 1.970 . S
Li619 O679 1.956 . S
C620 C622 1.348 . S
C620 C623 1.356 . S
C620 O676 1.319 . S
N621 C624 1.314 . S
N621 C625 1.279 . S
C622 C620 1.348 . S
C622 C624 1.353 . S
C622 H680 0.929 . S
C623 C620 1.356 . S
C623 C625 1.358 . S
C623 H681 0.930 . S
C624 N621 1.314 . S
C624 C622 1.353 . S
C624 H682 0.930 . S
C625 N621 1.279 . S
C625 C623 1.358 . S
C625 H683 0.930 1_556 S
C626 C629 1.348 . S
C626 C630 1.356 . S
C626 O677 1.325 . S
C627 N628 1.279 . S
C627 C630 1.358 . S
C627 H684 0.930 . S
N628 C627 1.279 . S
N628 C631 1.314 . S
C629 C626 1.348 . S
C629 C631 1.353 . S
C629 H685 0.929 . S
C630 C626 1.356 . S
C630 C627 1.358 . S
C630 H686 0.930 . S
C631 N628 1.314 . S
C631 C629 1.353 . S
C631 H687 0.930 . S
C632 N633 1.314 . S
C632 C637 1.353 . S
C632 H638 0.930 . S
N633 Li616 1.990 . S
N633 C632 1.314 . S
N633 C635 1.279 . S
C634 C635 1.358 . S
C634 C636 1.356 . S
C634 H688 0.908 1_556 S
C635 N633 1.279 . S
C635 C634 1.358 . S
C635 H639 0.945 . S
C636 C634 1.356 . S
C636 C637 1.348 . S
C637 C632 1.353 . S
C637 C636 1.348 . S
C637 H689 0.929 . S
H638 C632 0.930 . S
H639 C635 0.945 . S
C640 N641 1.314 . S
C640 C642 1.353 . S
C640 H646 0.930 . S
N641 Li617 1.951 1_655 S
N641 C640 1.314 . S
N641 C644 1.279 . S
C642 C640 1.353 . S
C642 C645 1.348 . S
C642 H690 0.929 . S
C643 C644 1.358 . S
C643 C645 1.356 . S
C643 H691 0.930 . S
C644 N641 1.279 . S
C644 C643 1.358 . S
C644 H647 0.930 . S
C645 C642 1.348 . S
C645 C643 1.356 . S
H646 C640 0.930 . S
H647 C644 0.930 . S
C648 C650 1.348 . S
C648 C651 1.356 . S
C648 O678 1.325 . S
N649 C652 1.314 . S
N649 C653 1.279 . S
C650 C648 1.348 . S
C650 C652 1.353 . S
C650 H692 0.929 . S
C651 C648 1.356 . S
C651 C653 1.358 . S
C651 H693 0.930 . S
C652 N649 1.314 . S
C652 C650 1.353 . S
C652 H694 0.930 . S
C653 N649 1.279 . S
C653 C651 1.358 . S
C653 H695 0.930 1_556 S
C654 C655 1.348 . S
C654 C656 1.356 . S
C654 O679 1.325 . S
C655 C654 1.348 . S
C655 C657 1.353 . S
C655 H696 0.929 . S
C656 C654 1.356 . S
C656 C658 1.358 . S
C656 H697 0.930 . S
C657 C655 1.353 . S
C657 N659 1.314 . S
C657 H698 0.930 . S
C658 C656 1.358 . S
C658 N659 1.279 . S
C658 H699 0.930 . S
N659 C657 1.314 . S
N659 C658 1.279 . S
C660 C662 1.353 1_455 S
C660 N663 1.314 . S
C660 H666 0.930 1_455 S
C661 N663 1.279 . S
C661 C664 1.358 . S
C661 H667 0.930 . S
C662 C660 1.353 1_655 S
C662 C665 1.348 1_655 S
C662 H700 0.929 . S
N663 Li618 1.990 . S
N663 C660 1.314 . S
N663 C661 1.279 . S
C664 C661 1.358 . S
C664 C665 1.356 . S
C664 H701 0.930 . S
C665 C662 1.348 1_455 S
C665 C664 1.356 . S
H666 C660 0.930 1_655 S
H667 C661 0.930 . S
C668 N669 1.314 . S
C668 C670 1.353 . S
C668 H674 0.930 . S
N669 Li619 1.990 . S
N669 C668 1.314 . S
N669 C672 1.279 . S
C670 C668 1.353 . S
C670 C673 1.348 . S
C670 H702 0.929 . S
C671 C672 1.358 . S
C671 C673 1.356 . S
C671 H703 0.930 . S
C672 N669 1.279 . S
C672 C671 1.358 . S
C672 H675 0.930 . S
C673 C670 1.348 . S
C673 C671 1.356 . S
H674 C668 0.930 . S
H675 C672 0.930 . S
O676 Li616 1.961 1_655 S
O676 Li617 1.966 1_655 S
O676 Li618 1.967 1_655 S
O676 C620 1.319 . S
O677 Li616 1.970 . S
O677 Li617 1.988 . S
O677 Li619 1.961 . S
O677 C626 1.325 . S
O678 Li616 1.961 . S
O678 Li618 1.956 . S
O678 Li619 1.970 . S
O678 C648 1.325 . S
O679 Li617 1.999 . S
O679 Li618 1.970 . S
O679 Li619 1.956 . S
O679 C654 1.325 . S
H680 C622 0.929 . S
H681 C623 0.930 . S
H682 C624 0.930 . S
H683 C625 0.930 1_554 S
H684 C627 0.930 . S
H685 C629 0.929 . S
H686 C630 0.930 . S
H687 C631 0.930 . S
H688 C634 0.908 1_554 S
H689 C637 0.929 . S
H690 C642 0.929 . S
H691 C643 0.930 . S
H692 C650 0.929 . S
H693 C651 0.930 . S
H694 C652 0.930 . S
H695 C653 0.930 1_554 S
H696 C655 0.929 . S
H697 C656 0.930 . S
H698 C657 0.930 . S
H699 C658 0.930 . S
H700 C662 0.929 . S
H701 C664 0.930 . S
H702 C670 0.929 . S
H703 C671 0.930 . S
Li704 N721 1.990 . S
Li704 O764 1.956 . S
Li704 O765 1.970 . S
Li704 O766 1.961 . S
Li705 N729 1.990 1_545 S
Li705 O764 1.970 . S
Li705 O765 1.956 . S
Li705 O767 1.961 . S
Li706 N751 1.990 . S
Li706 O764 1.961 . S
Li706 O766 1.956 . S
Li706 O767 1.970 . S
Li707 N757 1.990 . S
Li707 O765 1.961 . S
Li707 O766 1.970 . S
Li707 O767 1.956 . S
C708 C710 1.348 . S
C708 C711 1.356 . S
C708 O764 1.325 1_565 S
N709 C712 1.314 . S
N709 C713 1.279 . S
C710 C708 1.348 . S
C710 C712 1.353 . S
C710 H768 0.929 . S
C711 C708 1.356 . S
C711 C713 1.358 . S
C711 H769 0.930 1_565 S
C712 N709 1.314 . S
C712 C710 1.353 . S
C712 H770 0.930 . S
C713 N709 1.279 . S
C713 C711 1.358 . S
C713 H771 0.930 . S
C714 C717 1.348 . S
C714 C718 1.356 . S
C714 O765 1.325 . S
C715 N716 1.279 . S
C715 C718 1.358 . S
C715 H772 0.930 . S
N716 C715 1.279 . S
N716 C719 1.314 . S
C717 C714 1.348 . S
C717 C719 1.353 . S
C717 H773 0.929 . S
C718 C714 1.356 . S
C718 C715 1.358 . S
C718 H774 0.930 . S
C719 N716 1.314 . S
C719 C717 1.353 . S
C719 H775 0.930 . S
C720 N721 1.314 . S
C720 C725 1.353 . S
C720 H726 0.930 . S
N721 Li704 1.990 . S
N721 C720 1.314 . S
N721 C723 1.279 . S
C722 C723 1.358 . S
C722 C724 1.356 . S
C722 H776 0.930 . S
C723 N721 1.279 . S
C723 C722 1.358 . S
C723 H727 0.930 . S
C724 C722 1.356 . S
C724 C725 1.348 . S
C725 C720 1.353 . S
C725 C724 1.348 . S
C725 H777 0.929 . S
H726 C720 0.930 . S
H727 C723 0.930 . S
C728 N729 1.314 . S
C728 C730 1.353 . S
C728 H734 0.930 . S
N729 Li705 1.990 1_565 S
N729 C728 1.314 . S
N729 C732 1.279 . S
C730 C728 1.353 . S
C730 C733 1.348 . S
C730 H778 0.929 . S
C731 C732 1.358 . S
C731 C733 1.356 . S
C731 H779 0.930 . S
C732 N729 1.279 . S
C732 C731 1.358 . S
C732 H735 0.930 . S
C733 C730 1.348 . S
C733 C731 1.356 . S
H734 C728 0.930 . S
H735 C732 0.930 . S
C736 C738 1.348 . S
C736 C739 1.356 . S
C736 O766 1.325 . S
N737 C740 1.314 . S
N737 C741 1.279 . S
C738 C736 1.348 . S
C738 C740 1.353 . S
C738 H780 0.929 . S
C739 C736 1.356 . S
C739 C741 1.358 . S
C739 H781 0.930 . S
C740 N737 1.314 . S
C740 C738 1.353 . S
C740 H782 0.930 . S
C741 N737 1.279 . S
C741 C739 1.358 . S
C741 H783 0.930 . S
C742 C743 1.348 . S
C742 C744 1.356 . S
C742 O767 1.325 . S
C743 C742 1.348 . S
C743 C745 1.353 . S
C743 H784 0.929 . S
C744 C742 1.356 . S
C744 C746 1.358 . S
C744 H785 0.930 . S
C745 C743 1.353 . S
C745 N747 1.314 . S
C745 H786 0.930 . S
C746 C744 1.358 . S
C746 N747 1.279 . S
C746 H787 0.930 . S
N747 C745 1.314 . S
N747 C746 1.279 . S
C748 C750 1.353 . S
C748 N751 1.314 . S
C748 H754 0.931 . S
C749 N751 1.279 . S
C749 C752 1.358 . S
C749 H755 0.930 . S
C750 C748 1.353 . S
C750 C753 1.348 . S
C750 H788 0.929 1_545 S
N751 Li706 1.990 . S
N751 C748 1.314 . S
N751 C749 1.279 . S
C752 C749 1.358 . S
C752 C753 1.356 . S
C752 H789 0.930 . S
C753 C750 1.348 . S
C753 C752 1.356 . S
H754 C748 0.931 . S
H755 C749 0.930 . S
C756 N757 1.314 . S
C756 C758 1.353 . S
C756 H762 0.930 . S
N757 Li707 1.990 . S
N757 C756 1.314 . S
N757 C760 1.279 . S
C758 C756 1.353 . S
C758 C761 1.348 . S
C758 H790 0.929 . S
C759 C760 1.358 . S
C759 C761 1.356 . S
C759 H791 0.930 . S
C760 N757 1.279 . S
C760 C759 1.358 . S
C760 H763 0.930 . S
C761 C758 1.348 . S
C761 C759 1.356 . S
H762 C756 0.930 . S
H763 C760 0.930 . S
O764 Li704 1.956 . S
O764 Li705 1.970 . S
O764 Li706 1.961 . S
O764 C708 1.325 1_545 S
O765 Li704 1.970 . S
O765 Li705 1.956 . S
O765 Li707 1.961 . S
O765 C714 1.325 . S
O766 Li704 1.961 . S
O766 Li706 1.956 . S
O766 Li707 1.970 . S
O766 C736 1.325 . S
O767 Li705 1.961 . S
O767 Li706 1.970 . S
O767 Li707 1.956 . S
O767 C742 1.325 . S
H768 C710 0.929 . S
H769 C711 0.930 1_545 S
H770 C712 0.930 . S
H771 C713 0.930 . S
H772 C715 0.930 . S
H773 C717 0.929 . S
H774 C718 0.930 . S
H775 C719 0.930 . S
H776 C722 0.930 . S
H777 C725 0.929 . S
H778 C730 0.929 . S
H779 C731 0.930 . S
H780 C738 0.929 . S
H781 C739 0.930 . S
H782 C740 0.930 . S
H783 C741 0.930 . S
H784 C743 0.929 . S
H785 C744 0.930 . S
H786 C745 0.930 . S
H787 C746 0.930 . S
H788 C750 0.929 1_565 S
H789 C752 0.930 . S
H790 C758 0.929 . S
H791 C759 0.930 . S
Li792 N809 1.990 . S
Li792 O852 1.956 . S
Li792 O853 1.970 . S
Li792 O854 1.961 . S
Li793 N817 1.990 . S
Li793 O852 1.970 . S
Li793 O853 1.956 . S
Li793 O855 1.961 . S
Li794 N839 1.990 . S
Li794 O852 1.961 . S
Li794 O854 1.956 . S
Li794 O855 1.970 . S
Li795 N845 1.990 . S
Li795 O853 1.961 . S
Li795 O854 1.970 . S
Li795 O855 1.956 . S
C796 C798 1.348 . S
C796 C799 1.356 . S
C796 O852 1.325 . S
N797 C800 1.314 . S
N797 C801 1.279 . S
C798 C796 1.348 . S
C798 C800 1.353 . S
C798 H856 0.929 . S
C799 C796 1.356 . S
C799 C801 1.358 . S
C799 H857 0.930 . S
C800 N797 1.314 . S
C800 C798 1.353 . S
C800 H858 0.930 . S
C801 N797 1.279 . S
C801 C799 1.358 . S
C801 H859 0.930 . S
C802 C805 1.348 . S
C802 C806 1.356 . S
C802 O853 1.325 . S
C803 N804 1.279 . S
C803 C806 1.358 . S
C803 H860 0.930 . S
N804 C803 1.279 . S
N804 C807 1.314 . S
C805 C802 1.348 . S
C805 C807 1.353 . S
C805 H861 0.929 . S
C806 C802 1.356 . S
C806 C803 1.358 . S
C806 H862 0.930 . S
C807 N804 1.314 . S
C807 C805 1.353 . S
C807 H863 0.930 . S
C808 N809 1.314 . S
C808 C813 1.353 . S
C808 H814 0.930 . S
N809 Li792 1.990 . S
N809 C808 1.314 . S
N809 C811 1.279 . S
C810 C811 1.358 . S
C810 C812 1.356 . S
C810 H864 0.930 . S
C811 N809 1.279 . S
C811 C810 1.358 . S
C811 H815 0.930 . S
C812 C810 1.356 . S
C812 C813 1.348 . S
C813 C808 1.353 . S
C813 C812 1.348 . S
C813 H865 0.929 . S
H814 C808 0.930 . S
H815 C811 0.930 . S
C816 N817 1.314 . S
C816 C818 1.353 . S
C816 H822 0.930 . S
N817 Li793 1.990 . S
N817 C816 1.314 . S
N817 C820 1.279 . S
C818 C816 1.353 . S
C818 C821 1.348 . S
C818 H866 0.929 . S
C819 C820 1.358 . S
C819 C821 1.356 . S
C819 H867 0.930 . S
C820 N817 1.279 . S
C820 C819 1.358 . S
C820 H823 0.930 . S
C821 C818 1.348 . S
C821 C819 1.356 . S
H822 C816 0.930 . S
H823 C820 0.930 . S
C824 C826 1.348 . S
C824 C827 1.356 . S
C824 O854 1.325 . S
N825 C828 1.314 . S
N825 C829 1.279 . S
C826 C824 1.348 . S
C826 C828 1.353 . S
C826 H868 0.929 . S
C827 C824 1.356 . S
C827 C829 1.358 . S
C827 H869 0.930 . S
C828 N825 1.314 . S
C828 C826 1.353 . S
C828 H870 0.930 . S
C829 N825 1.279 . S
C829 C827 1.358 . S
C829 H871 0.930 . S
C830 C831 1.348 . S
C830 C832 1.356 . S
C830 O855 1.325 . S
C831 C830 1.348 . S
C831 C833 1.353 . S
C831 H872 0.929 . S
C832 C830 1.356 . S
C832 C834 1.358 . S
C832 H873 0.930 . S
C833 C831 1.353 . S
C833 N835 1.314 . S
C833 H874 0.930 . S
C834 C832 1.358 . S
C834 N835 1.279 . S
C834 H875 0.930 . S
N835 C833 1.314 . S
N835 C834 1.279 . S
C836 C838 1.353 . S
C836 N839 1.314 . S
C836 H842 0.930 . S
C837 N839 1.279 . S
C837 C840 1.358 . S
C837 H843 0.930 . S
C838 C836 1.353 . S
C838 C841 1.348 . S
C838 H876 0.929 . S
N839 Li794 1.990 . S
N839 C836 1.314 . S
N839 C837 1.279 . S
C840 C837 1.358 . S
C840 C841 1.356 . S
C840 H877 0.930 . S
C841 C838 1.348 . S
C841 C840 1.356 . S
H842 C836 0.930 . S
H843 C837 0.930 . S
C844 N845 1.314 . S
C844 C846 1.353 . S
C844 H850 0.930 . S
N845 Li795 1.990 . S
N845 C844 1.314 . S
N845 C848 1.279 . S
C846 C844 1.353 . S
C846 C849 1.348 . S
C846 H878 0.929 . S
C847 C848 1.358 . S
C847 C849 1.356 . S
C847 H879 0.930 . S
C848 N845 1.279 . S
C848 C847 1.358 . S
C848 H851 0.930 . S
C849 C846 1.348 . S
C849 C847 1.356 . S
H850 C844 0.930 . S
H851 C848 0.930 . S
O852 Li792 1.956 . S
O852 Li793 1.970 . S
O852 Li794 1.961 . S
O852 C796 1.325 . S
O853 Li792 1.970 . S
O853 Li793 1.956 . S
O853 Li795 1.961 . S
O853 C802 1.325 . S
O854 Li792 1.961 . S
O854 Li794 1.956 . S
O854 Li795 1.970 . S
O854 C824 1.325 . S
O855 Li793 1.961 . S
O855 Li794 1.970 . S
O855 Li795 1.956 . S
O855 C830 1.325 . S
H856 C798 0.929 . S
H857 C799 0.930 . S
H858 C800 0.930 . S
H859 C801 0.930 . S
H860 C803 0.930 . S
H861 C805 0.929 . S
H862 C806 0.930 . S
H863 C807 0.930 . S
H864 C810 0.930 . S
H865 C813 0.929 . S
H866 C818 0.929 . S
H867 C819 0.930 . S
H868 C826 0.929 . S
H869 C827 0.930 . S
H870 C828 0.930 . S
H871 C829 0.930 . S
H872 C831 0.929 . S
H873 C832 0.930 . S
H874 C833 0.930 . S
H875 C834 0.930 . S
H876 C838 0.929 . S
H877 C840 0.930 . S
H878 C846 0.929 . S
H879 C847 0.930 . S
Li880 N897 1.990 . S
Li880 O940 1.956 . S
Li880 O941 1.970 . S
Li880 O942 1.981 . S
Li881 N905 1.990 . S
Li881 O940 1.967 . S
Li881 O941 1.978 . S
Li881 O943 1.942 1_545 S
Li882 N927 1.990 . S
Li882 O940 1.961 1_565 S
Li882 O942 1.930 1_565 S
Li882 O943 1.970 . S
Li883 N933 1.990 . S
Li883 O941 1.961 1_565 S
Li883 O942 1.972 1_565 S
Li883 O943 1.956 . S
C884 C886 1.348 . S
C884 C887 1.356 . S
C884 O940 1.325 . S
N885 C888 1.314 . S
N885 C889 1.279 . S
C886 C884 1.348 . S
C886 C888 1.353 . S
C886 H944 0.929 . S
C887 C884 1.356 . S
C887 C889 1.358 . S
C887 H945 0.930 . S
C888 N885 1.314 . S
C888 C886 1.353 . S
C888 H946 0.930 . S
C889 N885 1.279 . S
C889 C887 1.358 . S
C889 H947 0.930 . S
C890 C893 1.348 . S
C890 C894 1.356 . S
C890 O941 1.325 . S
C891 N892 1.279 . S
C891 C894 1.358 . S
C891 H948 0.930 . S
N892 C891 1.279 . S
N892 C895 1.314 . S
C893 C890 1.348 . S
C893 C895 1.353 . S
C893 H949 0.929 . S
C894 C890 1.356 . S
C894 C891 1.358 . S
C894 H950 0.930 . S
C895 N892 1.314 . S
C895 C893 1.353 . S
C895 H951 0.930 . S
C896 N897 1.314 . S
C896 C901 1.353 . S
C896 H902 0.930 . S
N897 Li880 1.990 . S
N897 C896 1.314 . S
N897 C899 1.279 . S
C898 C899 1.358 . S
C898 C900 1.356 . S
C898 H952 0.930 . S
C899 N897 1.279 . S
C899 C898 1.358 . S
C899 H903 0.930 . S
C900 C898 1.356 . S
C900 C901 1.348 . S
C901 C896 1.353 . S
C901 C900 1.348 . S
C901 H953 0.929 . S
H902 C896 0.930 . S
H903 C899 0.930 . S
C904 N905 1.290 1_565 S
C904 C906 1.353 . S
C904 H910 0.930 . S
N905 Li881 1.990 . S
N905 C904 1.290 1_545 S
N905 C908 1.302 . S
C906 C904 1.353 . S
C906 C909 1.352 1_565 S
C906 H954 0.929 . S
C907 C908 1.358 . S
C907 C909 1.351 . S
C907 H955 0.930 . S
C908 N905 1.302 . S
C908 C907 1.358 . S
C908 H911 0.930 . S
C909 C906 1.352 1_545 S
C909 C907 1.351 . S
H910 C904 0.930 . S
H911 C908 0.930 . S
C912 C914 1.346 1_545 S
C912 C915 1.357 . S
C912 O942 1.325 . S
N913 C916 1.323 . S
N913 C917 1.274 1_565 S
C914 C912 1.346 1_565 S
C914 C916 1.353 . S
C914 H956 0.929 . S
C915 C912 1.357 . S
C915 C917 1.358 . S
C915 H957 0.930 . S
C916 N913 1.323 . S
C916 C914 1.353 . S
C916 H958 0.930 . S
C917 N913 1.274 1_545 S
C917 C915 1.358 . S
C917 H959 0.930 . S
C918 C919 1.348 . S
C918 C920 1.356 . S
C918 O943 1.325 . S
C919 C918 1.348 . S
C919 C921 1.353 . S
C919 H960 0.929 . S
C920 C918 1.356 . S
C920 C922 1.358 . S
C920 H961 0.930 . S
C921 C919 1.353 . S
C921 N923 1.314 . S
C921 H962 0.930 . S
C922 C920 1.358 . S
C922 N923 1.279 . S
C922 H963 0.930 . S
N923 C921 1.314 . S
N923 C922 1.279 . S
C924 C926 1.353 . S
C924 N927 1.314 . S
C924 H930 0.930 . S
C925 N927 1.279 . S
C925 C928 1.358 . S
C925 H931 0.930 . S
C926 C924 1.353 . S
C926 C929 1.348 . S
C926 H964 0.929 . S
N927 Li882 1.990 . S
N927 C924 1.314 . S
N927 C925 1.279 . S
C928 C925 1.358 . S
C928 C929 1.356 . S
C928 H965 0.930 . S
C929 C926 1.348 . S
C929 C928 1.356 . S
H930 C924 0.930 . S
H931 C925 0.930 . S
C932 N933 1.314 1_545 S
C932 C934 1.353 . S
C932 H938 0.930 . S
N933 Li883 1.990 . S
N933 C932 1.314 1_565 S
N933 C936 1.279 . S
C934 C932 1.353 . S
C934 C937 1.348 1_545 S
C934 H966 0.929 . S
C935 C936 1.358 . S
C935 C937 1.356 . S
C935 H967 0.930 . S
C936 N933 1.279 . S
C936 C935 1.358 . S
C936 H939 0.930 . S
C937 C934 1.348 1_565 S
C937 C935 1.356 . S
H938 C932 0.930 . S
H939 C936 0.930 . S
O940 Li880 1.956 . S
O940 Li881 1.967 . S
O940 Li882 1.961 1_545 S
O940 C884 1.325 . S
O941 Li880 1.970 . S
O941 Li881 1.978 . S
O941 Li883 1.961 1_545 S
O941 C890 1.325 . S
O942 Li880 1.981 . S
O942 Li882 1.930 1_545 S
O942 Li883 1.972 1_545 S
O942 C912 1.325 . S
O943 Li881 1.942 1_565 S
O943 Li882 1.970 . S
O943 Li883 1.956 . S
O943 C918 1.325 . S
H944 C886 0.929 . S
H945 C887 0.930 . S
H946 C888 0.930 . S
H947 C889 0.930 . S
H948 C891 0.930 . S
H949 C893 0.929 . S
H950 C894 0.930 . S
H951 C895 0.930 . S
H952 C898 0.930 . S
H953 C901 0.929 . S
H954 C906 0.929 . S
H955 C907 0.930 . S
H956 C914 0.929 . S
H957 C915 0.930 . S
H958 C916 0.930 . S
H959 C917 0.930 . S
H960 C919 0.929 . S
H961 C920 0.930 . S
H962 C921 0.930 . S
H963 C922 0.930 . S
H964 C926 0.929 . S
H965 C928 0.930 . S
H966 C934 0.929 . S
H967 C935 0.930 . S
Li968 N985 1.990 . S
Li968 O1028 1.956 . S
Li968 O1029 1.970 . S
Li968 O1030 1.961 1_554 S
Li969 N993 1.990 . S
Li969 O1028 1.970 . S
Li969 O1029 1.956 . S
Li969 O1031 1.961 . S
Li970 N1015 1.990 . S
Li970 O1028 1.961 . S
Li970 O1030 1.956 1_554 S
Li970 O1031 1.970 . S
Li971 N1021 1.990 . S
Li971 O1029 1.961 1_556 S
Li971 O1030 1.970 . S
Li971 O1031 1.956 1_556 S
C972 C974 1.348 . S
C972 C975 1.356 . S
C972 O1028 1.325 . S
N973 C976 1.314 . S
N973 C977 1.279 . S
C974 C972 1.348 . S
C974 C976 1.353 . S
C974 H1032 0.929 . S
C975 C972 1.356 . S
C975 C977 1.358 . S
C975 H1033 0.930 . S
C976 N973 1.314 . S
C976 C974 1.353 . S
C976 H1034 0.930 . S
C977 N973 1.279 . S
C977 C975 1.358 . S
C977 H1035 0.930 1_565 S
C978 C981 1.348 . S
C978 C982 1.356 . S
C978 O1029 1.325 . S
C979 N980 1.279 . S
C979 C982 1.358 . S
C979 H1036 0.930 1_554 S
N980 C979 1.279 . S
N980 C983 1.314 . S
C981 C978 1.348 . S
C981 C983 1.353 . S
C981 H1037 0.929 . S
C982 C978 1.356 . S
C982 C979 1.358 . S
C982 H1038 0.930 1_554 S
C983 N980 1.314 . S
C983 C981 1.353 . S
C983 H1039 0.930 . S
C984 N985 1.314 . S
C984 C989 1.360 . S
C984 H990 0.930 1_554 S
N985 Li968 1.990 . S
N985 C984 1.314 . S
N985 C987 1.279 . S
C986 C987 1.358 . S
C986 C988 1.356 . S
C986 H1040 0.930 . S
C987 N985 1.279 . S
C987 C986 1.358 . S
C987 H991 0.930 . S
C988 C986 1.356 . S
C988 C989 1.396 . S
C989 C984 1.360 . S
C989 C988 1.396 . S
C989 H1041 0.877 1_554 S
H990 C984 0.930 1_556 S
H991 C987 0.930 . S
C992 N993 1.314 . S
C992 C994 1.353 . S
C992 H998 0.930 . S
N993 Li969 1.990 . S
N993 C992 1.314 . S
N993 C996 1.279 . S
C994 C992 1.353 . S
C994 C997 1.348 . S
C994 H1042 0.929 . S
C995 C996 1.358 . S
C995 C997 1.356 . S
C995 H1043 0.930 . S
C996 N993 1.279 . S
C996 C995 1.358 . S
C996 H999 0.930 . S
C997 C994 1.348 . S
C997 C995 1.356 . S
H998 C992 0.930 . S
H999 C996 0.930 . S
C1000 C1002 1.348 . S
C1000 C1003 1.356 . S
C1000 O1030 1.325 . S
N1001 C1004 1.314 . S
N1001 C1005 1.279 . S
C1002 C1000 1.348 . S
C1002 C1004 1.353 . S
C1002 H1044 0.929 . S
C1003 C1000 1.356 . S
C1003 C1005 1.358 . S
C1003 H1045 0.930 . S
C1004 N1001 1.314 . S
C1004 C1002 1.353 . S
C1004 H1046 0.930 . S
C1005 N1001 1.279 . S
C1005 C1003 1.358 . S
C1005 H1047 0.930 . S
C1006 C1007 1.348 . S
C1006 C1008 1.356 . S
C1006 O1031 1.325 . S
C1007 C1006 1.348 . S
C1007 C1009 1.353 . S
C1007 H1048 0.929 . S
C1008 C1006 1.356 . S
C1008 C1010 1.358 . S
C1008 H1049 0.930 . S
C1009 C1007 1.353 . S
C1009 N1011 1.314 . S
C1009 H1050 0.930 . S
C1010 C1008 1.358 . S
C1010 N1011 1.279 . S
C1010 H1051 0.930 . S
N1011 C1009 1.314 . S
N1011 C1010 1.279 . S
C1012 C1014 1.353 . S
C1012 N1015 1.314 . S
C1012 H1018 0.930 . S
C1013 N1015 1.279 . S
C1013 C1016 1.358 . S
C1013 H1019 0.930 1_554 S
C1014 C1012 1.353 . S
C1014 C1017 1.348 . S
C1014 H1052 0.929 . S
N1015 Li970 1.990 . S
N1015 C1012 1.314 . S
N1015 C1013 1.279 . S
C1016 C1013 1.358 . S
C1016 C1017 1.356 . S
C1016 H1053 0.930 1_554 S
C1017 C1014 1.348 . S
C1017 C1016 1.356 . S
H1018 C1012 0.930 . S
H1019 C1013 0.930 1_556 S
C1020 N1021 1.314 . S
C1020 C1022 1.353 . S
C1020 H1026 0.930 . S
N1021 Li971 1.990 . S
N1021 C1020 1.314 . S
N1021 C1024 1.279 . S
C1022 C1020 1.353 . S
C1022 C1025 1.348 . S
C1022 H1054 0.929 . S
C1023 C1024 1.358 . S
C1023 C1025 1.356 . S
C1023 H1055 0.930 . S
C1024 N1021 1.279 . S
C1024 C1023 1.358 . S
C1024 H1027 0.930 . S
C1025 C1022 1.348 . S
C1025 C1023 1.356 . S
H1026 C1020 0.930 . S
H1027 C1024 0.930 . S
O1028 Li968 1.956 . S
O1028 Li969 1.970 . S
O1028 Li970 1.961 . S
O1028 C972 1.325 . S
O1029 Li968 1.970 . S
O1029 Li969 1.956 . S
O1029 Li971 1.961 1_554 S
O1029 C978 1.325 . S
O1030 Li968 1.961 1_556 S
O1030 Li970 1.956 1_556 S
O1030 Li971 1.970 . S
O1030 C1000 1.325 . S
O1031 Li969 1.961 . S
O1031 Li970 1.970 . S
O1031 Li971 1.956 1_554 S
O1031 C1006 1.325 . S
H1032 C974 0.929 . S
H1033 C975 0.930 . S
H1034 C976 0.930 . S
H1035 C977 0.930 1_545 S
H1036 C979 0.930 1_556 S
H1037 C981 0.929 . S
H1038 C982 0.930 1_556 S
H1039 C983 0.930 . S
H1040 C986 0.930 . S
H1041 C989 0.877 1_556 S
H1042 C994 0.929 . S
H1043 C995 0.930 . S
H1044 C1002 0.929 . S
H1045 C1003 0.930 . S
H1046 C1004 0.930 . S
H1047 C1005 0.930 . S
H1048 C1007 0.929 . S
H1049 C1008 0.930 . S
H1050 C1009 0.930 . S
H1051 C1010 0.930 . S
H1052 C1014 0.929 . S
H1053 C1016 0.930 1_556 S
H1054 C1022 0.929 . S
H1055 C1023 0.930 . S
Li1056 N1073 1.990 . S
Li1056 O1116 1.956 . S
Li1056 O1117 1.970 . S
Li1056 O1118 1.961 . S
Li1057 N1081 1.990 . S
Li1057 O1116 1.970 . S
Li1057 O1117 1.956 . S
Li1057 O1119 1.961 . S
Li1058 N1103 1.990 . S
Li1058 O1116 1.961 . S
Li1058 O1118 1.956 . S
Li1058 O1119 1.970 . S
Li1059 N1109 1.990 1_554 S
Li1059 O1117 1.961 . S
Li1059 O1118 1.970 . S
Li1059 O1119 1.956 . S
C1060 C1062 1.348 . S
C1060 C1063 1.356 . S
C1060 O1116 1.325 . S
N1061 C1064 1.314 . S
N1061 C1065 1.279 . S
C1062 C1060 1.348 . S
C1062 C1064 1.353 . S
C1062 H1120 0.929 . S
C1063 C1060 1.356 . S
C1063 C1065 1.358 . S
C1063 H1121 0.930 . S
C1064 N1061 1.314 . S
C1064 C1062 1.353 . S
C1064 H1122 0.930 . S
C1065 N1061 1.279 . S
C1065 C1063 1.358 . S
C1065 H1123 0.930 . S
C1066 C1069 1.348 . S
C1066 C1070 1.356 . S
C1066 O1117 1.325 . S
C1067 N1068 1.279 . S
C1067 C1070 1.358 . S
C1067 H1124 0.930 . S
N1068 C1067 1.279 . S
N1068 C1071 1.314 . S
C1069 C1066 1.348 . S
C1069 C1071 1.353 . S
C1069 H1125 0.929 . S
C1070 C1066 1.356 . S
C1070 C1067 1.358 . S
C1070 H1126 0.930 . S
C1071 N1068 1.314 . S
C1071 C1069 1.353 . S
C1071 H1127 0.930 . S
C1072 N1073 1.314 . S
C1072 C1077 1.353 . S
C1072 H1078 0.930 . S
N1073 Li1056 1.990 . S
N1073 C1072 1.314 . S
N1073 C1075 1.279 . S
C1074 C1075 1.358 . S
C1074 C1076 1.356 . S
C1074 H1128 0.930 . S
C1075 N1073 1.279 . S
C1075 C1074 1.358 . S
C1075 H1079 0.930 . S
C1076 C1074 1.356 . S
C1076 C1077 1.348 . S
C1077 C1072 1.353 . S
C1077 C1076 1.348 . S
C1077 H1129 0.929 . S
H1078 C1072 0.930 . S
H1079 C1075 0.930 . S
C1080 N1081 1.314 . S
C1080 C1082 1.353 . S
C1080 H1086 0.930 . S
N1081 Li1057 1.990 . S
N1081 C1080 1.314 . S
N1081 C1084 1.279 . S
C1082 C1080 1.353 . S
C1082 C1085 1.348 . S
C1082 H1130 0.929 . S
C1083 C1084 1.358 . S
C1083 C1085 1.356 . S
C1083 H1131 0.930 . S
C1084 N1081 1.279 . S
C1084 C1083 1.358 . S
C1084 H1087 0.930 . S
C1085 C1082 1.348 . S
C1085 C1083 1.356 . S
H1086 C1080 0.930 . S
H1087 C1084 0.930 . S
C1088 C1090 1.348 1_554 S
C1088 C1091 1.356 . S
C1088 O1118 1.325 . S
N1089 C1092 1.314 . S
N1089 C1093 1.279 . S
C1090 C1088 1.348 1_556 S
C1090 C1092 1.353 . S
C1090 H1132 0.929 . S
C1091 C1088 1.356 . S
C1091 C1093 1.358 1_554 S
C1091 H1133 0.930 . S
C1092 N1089 1.314 . S
C1092 C1090 1.353 . S
C1092 H1134 0.930 . S
C1093 N1089 1.279 . S
C1093 C1091 1.358 1_556 S
C1093 H1135 0.930 . S
C1094 C1095 1.348 . S
C1094 C1096 1.356 . S
C1094 O1119 1.325 . S
C1095 C1094 1.348 . S
C1095 C1097 1.353 . S
C1095 H1136 0.929 . S
C1096 C1094 1.356 . S
C1096 C1098 1.358 . S
C1096 H1137 0.930 . S
C1097 C1095 1.353 . S
C1097 N1099 1.314 . S
C1097 H1138 0.930 . S
C1098 C1096 1.358 . S
C1098 N1099 1.279 . S
C1098 H1139 0.930 . S
N1099 C1097 1.314 . S
N1099 C1098 1.279 . S
C1100 C1102 1.353 . S
C1100 N1103 1.314 . S
C1100 H1106 0.930 . S
C1101 N1103 1.279 . S
C1101 C1104 1.358 . S
C1101 H1107 0.930 . S
C1102 C1100 1.353 . S
C1102 C1105 1.348 . S
C1102 H1140 0.929 . S
N1103 Li1058 1.990 . S
N1103 C1100 1.314 . S
N1103 C1101 1.279 . S
C1104 C1101 1.358 . S
C1104 C1105 1.356 . S
C1104 H1141 0.930 . S
C1105 C1102 1.348 . S
C1105 C1104 1.356 . S
H1106 C1100 0.930 . S
H1107 C1101 0.930 . S
C1108 N1109 1.314 . S
C1108 C1110 1.353 . S
C1108 H1114 0.930 . S
N1109 Li1059 1.990 1_556 S
N1109 C1108 1.314 . S
N1109 C1112 1.279 . S
C1110 C1108 1.353 . S
C1110 C1113 1.348 . S
C1110 H1142 0.929 . S
C1111 C1112 1.358 . S
C1111 C1113 1.356 . S
C1111 H1143 0.930 . S
C1112 N1109 1.279 . S
C1112 C1111 1.358 . S
C1112 H1115 0.930 . S
C1113 C1110 1.348 . S
C1113 C1111 1.356 . S
H1114 C1108 0.930 . S
H1115 C1112 0.930 . S
O1116 Li1056 1.956 . S
O1116 Li1057 1.970 . S
O1116 Li1058 1.961 . S
O1116 C1060 1.325 . S
O1117 Li1056 1.970 . S
O1117 Li1057 1.956 . S
O1117 Li1059 1.961 . S
O1117 C1066 1.325 . S
O1118 Li1056 1.961 . S
O1118 Li1058 1.956 . S
O1118 Li1059 1.970 . S
O1118 C1088 1.325 . S
O1119 Li1057 1.961 . S
O1119 Li1058 1.970 . S
O1119 Li1059 1.956 . S
O1119 C1094 1.325 . S
H1120 C1062 0.929 . S
H1121 C1063 0.930 . S
H1122 C1064 0.930 . S
H1123 C1065 0.930 . S
H1124 C1067 0.930 . S
H1125 C1069 0.929 . S
H1126 C1070 0.930 . S
H1127 C1071 0.930 . S
H1128 C1074 0.930 . S
H1129 C1077 0.929 . S
H1130 C1082 0.929 . S
H1131 C1083 0.930 . S
H1132 C1090 0.929 . S
H1133 C1091 0.930 . S
H1134 C1092 0.930 . S
H1135 C1093 0.930 . S
H1136 C1095 0.929 . S
H1137 C1096 0.930 . S
H1138 C1097 0.930 . S
H1139 C1098 0.930 . S
H1140 C1102 0.929 . S
H1141 C1104 0.930 . S
H1142 C1110 0.929 . S
H1143 C1111 0.930 . S
Li1144 N1161 1.990 . S
Li1144 O1204 1.956 . S
Li1144 O1205 1.970 . S
Li1144 O1206 1.961 . S
Li1145 N1169 1.990 . S
Li1145 O1204 1.970 . S
Li1145 O1205 1.956 . S
Li1145 O1207 1.961 1_554 S
Li1146 N1191 1.990 1_554 S
Li1146 O1204 1.961 . S
Li1146 O1206 1.956 . S
Li1146 O1207 1.970 1_554 S
Li1147 N1197 1.990 . S
Li1147 O1205 1.961 . S
Li1147 O1206 1.970 . S
Li1147 O1207 1.956 1_554 S
C1148 C1150 1.348 . S
C1148 C1151 1.356 . S
C1148 O1204 1.325 . S
N1149 C1152 1.314 . S
N1149 C1153 1.279 . S
C1150 C1148 1.348 . S
C1150 C1152 1.353 . S
C1150 H1208 0.929 . S
C1151 C1148 1.356 . S
C1151 C1153 1.358 . S
C1151 H1209 0.930 . S
C1152 N1149 1.314 . S
C1152 C1150 1.353 . S
C1152 H1210 0.930 . S
C1153 N1149 1.279 . S
C1153 C1151 1.358 . S
C1153 H1211 0.930 . S
C1154 C1157 1.348 . S
C1154 C1158 1.356 . S
C1154 O1205 1.325 . S
C1155 N1156 1.279 . S
C1155 C1158 1.358 . S
C1155 H1212 0.930 . S
N1156 C1155 1.279 . S
N1156 C1159 1.314 . S
C1157 C1154 1.348 . S
C1157 C1159 1.353 . S
C1157 H1213 0.929 . S
C1158 C1154 1.356 . S
C1158 C1155 1.358 . S
C1158 H1214 0.930 . S
C1159 N1156 1.314 . S
C1159 C1157 1.353 . S
C1159 H1215 0.930 . S
C1160 N1161 1.314 . S
C1160 C1165 1.353 . S
C1160 H1166 0.930 . S
N1161 Li1144 1.990 . S
N1161 C1160 1.314 . S
N1161 C1163 1.279 . S
C1162 C1163 1.358 . S
C1162 C1164 1.356 . S
C1162 H1216 0.930 . S
C1163 N1161 1.279 . S
C1163 C1162 1.358 . S
C1163 H1167 0.930 . S
C1164 C1162 1.356 . S
C1164 C1165 1.348 . S
C1165 C1160 1.353 . S
C1165 C1164 1.348 . S
C1165 H1217 0.929 . S
H1166 C1160 0.930 . S
H1167 C1163 0.930 . S
C1168 N1169 1.314 . S
C1168 C1170 1.353 . S
C1168 H1174 0.930 1_554 S
N1169 Li1145 1.990 . S
N1169 C1168 1.314 . S
N1169 C1172 1.279 . S
C1170 C1168 1.353 . S
C1170 C1173 1.348 . S
C1170 H1218 0.929 1_554 S
C1171 C1172 1.358 . S
C1171 C1173 1.356 . S
C1171 H1219 0.930 . S
C1172 N1169 1.279 . S
C1172 C1171 1.358 . S
C1172 H1175 0.930 . S
C1173 C1170 1.348 . S
C1173 C1171 1.356 . S
H1174 C1168 0.930 1_556 S
H1175 C1172 0.930 . S
C1176 C1178 1.348 . S
C1176 C1179 1.356 . S
C1176 O1206 1.325 . S
N1177 C1180 1.314 . S
N1177 C1181 1.279 . S
C1178 C1176 1.348 . S
C1178 C1180 1.353 . S
C1178 H1220 0.929 . S
C1179 C1176 1.356 . S
C1179 C1181 1.358 . S
C1179 H1221 0.930 . S
C1180 N1177 1.314 . S
C1180 C1178 1.353 . S
C1180 H1222 0.930 . S
C1181 N1177 1.279 . S
C1181 C1179 1.358 . S
C1181 H1223 0.930 . S
C1182 C1183 1.348 . S
C1182 C1184 1.356 . S
C1182 O1207 1.325 . S
C1183 C1182 1.348 . S
C1183 C1185 1.353 . S
C1183 H1224 0.929 . S
C1184 C1182 1.356 . S
C1184 C1186 1.358 . S
C1184 H1225 0.930 . S
C1185 C1183 1.353 . S
C1185 N1187 1.314 . S
C1185 H1226 0.930 . S
C1186 C1184 1.358 . S
C1186 N1187 1.279 . S
C1186 H1227 0.930 . S
N1187 C1185 1.314 . S
N1187 C1186 1.279 . S
C1188 C1190 1.353 . S
C1188 N1191 1.314 . S
C1188 H1194 0.930 . S
C1189 N1191 1.279 . S
C1189 C1192 1.358 . S
C1189 H1195 0.930 . S
C1190 C1188 1.353 . S
C1190 C1193 1.348 . S
C1190 H1228 0.929 . S
N1191 Li1146 1.990 1_556 S
N1191 C1188 1.314 . S
N1191 C1189 1.279 . S
C1192 C1189 1.358 . S
C1192 C1193 1.356 . S
C1192 H1229 0.930 . S
C1193 C1190 1.348 . S
C1193 C1192 1.356 . S
H1194 C1188 0.930 . S
H1195 C1189 0.930 . S
C1196 N1197 1.314 . S
C1196 C1198 1.353 . S
C1196 H1202 0.930 . S
N1197 Li1147 1.990 . S
N1197 C1196 1.314 . S
N1197 C1200 1.238 1_554 S
C1198 C1196 1.353 . S
C1198 C1201 1.348 . S
C1198 H1230 0.929 . S
C1199 C1200 1.357 . S
C1199 C1201 1.356 1_556 S
C1199 H1231 0.930 . S
C1200 N1197 1.238 1_556 S
C1200 C1199 1.357 . S
C1200 H1203 0.980 . S
C1201 C1198 1.348 . S
C1201 C1199 1.356 1_554 S
H1202 C1196 0.930 . S
H1203 C1200 0.980 . S
O1204 Li1144 1.956 . S
O1204 Li1145 1.970 . S
O1204 Li1146 1.961 . S
O1204 C1148 1.325 . S
O1205 Li1144 1.970 . S
O1205 Li1145 1.956 . S
O1205 Li1147 1.961 . S
O1205 C1154 1.325 . S
O1206 Li1144 1.961 . S
O1206 Li1146 1.956 . S
O1206 Li1147 1.970 . S
O1206 C1176 1.325 . S
O1207 Li1145 1.961 1_556 S
O1207 Li1146 1.970 1_556 S
O1207 Li1147 1.956 1_556 S
O1207 C1182 1.325 . S
H1208 C1150 0.929 . S
H1209 C1151 0.930 . S
H1210 C1152 0.930 . S
H1211 C1153 0.930 . S
H1212 C1155 0.930 . S
H1213 C1157 0.929 . S
H1214 C1158 0.930 . S
H1215 C1159 0.930 . S
H1216 C1162 0.930 . S
H1217 C1165 0.929 . S
H1218 C1170 0.929 1_556 S
H1219 C1171 0.930 . S
H1220 C1178 0.929 . S
H1221 C1179 0.930 . S
H1222 C1180 0.930 . S
H1223 C1181 0.930 . S
H1224 C1183 0.929 . S
H1225 C1184 0.930 . S
H1226 C1185 0.930 . S
H1227 C1186 0.930 . S
H1228 C1190 0.929 . S
H1229 C1192 0.930 . S
H1230 C1198 0.929 . S
H1231 C1199 0.930 . S
Li1232 N1249 1.990 . S
Li1232 O1292 1.956 . S
Li1232 O1293 1.970 . S
Li1232 O1294 1.961 . S
Li1233 N1257 1.990 . S
Li1233 O1292 1.970 . S
Li1233 O1293 1.956 . S
Li1233 O1295 1.961 . S
Li1234 N1279 1.990 . S
Li1234 O1292 1.961 . S
Li1234 O1294 1.956 . S
Li1234 O1295 1.970 . S
Li1235 N1285 1.990 . S
Li1235 O1293 1.961 . S
Li1235 O1294 1.970 . S
Li1235 O1295 1.956 . S
C1236 C1238 1.348 . S
C1236 C1239 1.356 . S
C1236 O1292 1.325 . S
N1237 C1240 1.314 . S
N1237 C1241 1.279 . S
C1238 C1236 1.348 . S
C1238 C1240 1.353 . S
C1238 H1296 0.929 . S
C1239 C1236 1.356 . S
C1239 C1241 1.358 . S
C1239 H1297 0.930 . S
C1240 N1237 1.314 . S
C1240 C1238 1.353 . S
C1240 H1298 0.930 . S
C1241 N1237 1.279 . S
C1241 C1239 1.358 . S
C1241 H1299 0.930 . S
C1242 C1245 1.348 . S
C1242 C1246 1.356 . S
C1242 O1293 1.325 . S
C1243 N1244 1.279 . S
C1243 C1246 1.358 . S
C1243 H1300 0.930 . S
N1244 C1243 1.279 . S
N1244 C1247 1.314 . S
C1245 C1242 1.348 . S
C1245 C1247 1.353 . S
C1245 H1301 0.929 . S
C1246 C1242 1.356 . S
C1246 C1243 1.358 . S
C1246 H1302 0.930 . S
C1247 N1244 1.314 . S
C1247 C1245 1.353 . S
C1247 H1303 0.930 . S
C1248 N1249 1.314 . S
C1248 C1253 1.353 . S
C1248 H1254 0.930 . S
N1249 Li1232 1.990 . S
N1249 C1248 1.314 . S
N1249 C1251 1.279 . S
C1250 C1251 1.358 . S
C1250 C1252 1.356 . S
C1250 H1304 0.930 . S
C1251 N1249 1.279 . S
C1251 C1250 1.358 . S
C1251 H1255 0.930 . S
C1252 C1250 1.356 . S
C1252 C1253 1.348 . S
C1253 C1248 1.353 . S
C1253 C1252 1.348 . S
C1253 H1305 0.929 . S
H1254 C1248 0.930 . S
H1255 C1251 0.930 . S
C1256 N1257 1.314 . S
C1256 C1258 1.353 . S
C1256 H1262 0.930 . S
N1257 Li1233 1.990 . S
N1257 C1256 1.314 . S
N1257 C1260 1.279 . S
C1258 C1256 1.353 . S
C1258 C1261 1.348 . S
C1258 H1306 0.929 . S
C1259 C1260 1.358 . S
C1259 C1261 1.356 . S
C1259 H1307 0.930 . S
C1260 N1257 1.279 . S
C1260 C1259 1.358 . S
C1260 H1263 0.930 . S
C1261 C1258 1.348 . S
C1261 C1259 1.356 . S
H1262 C1256 0.930 . S
H1263 C1260 0.930 . S
C1264 C1266 1.348 . S
C1264 C1267 1.356 . S
C1264 O1294 1.325 . S
N1265 C1268 1.314 . S
N1265 C1269 1.279 . S
C1266 C1264 1.348 . S
C1266 C1268 1.353 . S
C1266 H1308 0.929 . S
C1267 C1264 1.356 . S
C1267 C1269 1.358 . S
C1267 H1309 0.930 . S
C1268 N1265 1.314 . S
C1268 C1266 1.353 . S
C1268 H1310 0.930 . S
C1269 N1265 1.279 . S
C1269 C1267 1.358 . S
C1269 H1311 0.930 . S
C1270 C1271 1.348 . S
C1270 C1272 1.356 . S
C1270 O1295 1.325 . S
C1271 C1270 1.348 . S
C1271 C1273 1.353 . S
C1271 H1312 0.929 . S
C1272 C1270 1.356 . S
C1272 C1274 1.358 . S
C1272 H1313 0.930 . S
C1273 C1271 1.353 . S
C1273 N1275 1.314 . S
C1273 H1314 0.930 . S
C1274 C1272 1.358 . S
C1274 N1275 1.279 . S
C1274 H1315 0.930 . S
N1275 C1273 1.314 . S
N1275 C1274 1.279 . S
C1276 C1278 1.353 . S
C1276 N1279 1.314 . S
C1276 H1282 0.930 . S
C1277 N1279 1.279 . S
C1277 C1280 1.358 . S
C1277 H1283 0.930 . S
C1278 C1276 1.353 . S
C1278 C1281 1.348 . S
C1278 H1316 0.929 . S
N1279 Li1234 1.990 . S
N1279 C1276 1.314 . S
N1279 C1277 1.279 . S
C1280 C1277 1.358 . S
C1280 C1281 1.356 . S
C1280 H1317 0.930 . S
C1281 C1278 1.348 . S
C1281 C1280 1.356 . S
H1282 C1276 0.930 . S
H1283 C1277 0.930 . S
C1284 N1285 1.314 . S
C1284 C1286 1.353 . S
C1284 H1290 0.930 . S
N1285 Li1235 1.990 . S
N1285 C1284 1.314 . S
N1285 C1288 1.279 . S
C1286 C1284 1.353 . S
C1286 C1289 1.348 . S
C1286 H1318 0.929 . S
C1287 C1288 1.358 . S
C1287 C1289 1.356 . S
C1287 H1319 0.930 . S
C1288 N1285 1.279 . S
C1288 C1287 1.358 . S
C1288 H1291 0.930 . S
C1289 C1286 1.348 . S
C1289 C1287 1.356 . S
H1290 C1284 0.930 . S
H1291 C1288 0.930 . S
O1292 Li1232 1.956 . S
O1292 Li1233 1.970 . S
O1292 Li1234 1.961 . S
O1292 C1236 1.325 . S
O1293 Li1232 1.970 . S
O1293 Li1233 1.956 . S
O1293 Li1235 1.961 . S
O1293 C1242 1.325 . S
O1294 Li1232 1.961 . S
O1294 Li1234 1.956 . S
O1294 Li1235 1.970 . S
O1294 C1264 1.325 . S
O1295 Li1233 1.961 . S
O1295 Li1234 1.970 . S
O1295 Li1235 1.956 . S
O1295 C1270 1.325 . S
H1296 C1238 0.929 . S
H1297 C1239 0.930 . S
H1298 C1240 0.930 . S
H1299 C1241 0.930 . S
H1300 C1243 0.930 . S
H1301 C1245 0.929 . S
H1302 C1246 0.930 . S
H1303 C1247 0.930 . S
H1304 C1250 0.930 . S
H1305 C1253 0.929 . S
H1306 C1258 0.929 . S
H1307 C1259 0.930 . S
H1308 C1266 0.929 . S
H1309 C1267 0.930 . S
H1310 C1268 0.930 . S
H1311 C1269 0.930 . S
H1312 C1271 0.929 . S
H1313 C1272 0.930 . S
H1314 C1273 0.930 . S
H1315 C1274 0.930 . S
H1316 C1278 0.929 . S
H1317 C1280 0.930 . S
H1318 C1286 0.929 . S
H1319 C1287 0.930 . S
Li1320 N1337 1.990 . S
Li1320 O1380 1.956 . S
Li1320 O1381 1.970 . S
Li1320 O1382 1.961 . S
Li1321 N1345 1.990 . S
Li1321 O1380 1.970 . S
Li1321 O1381 1.956 . S
Li1321 O1383 1.961 . S
Li1322 N1367 1.990 . S
Li1322 O1380 1.961 . S
Li1322 O1382 1.956 . S
Li1322 O1383 1.970 . S
Li1323 N1373 1.990 . S
Li1323 O1381 1.961 . S
Li1323 O1382 1.970 . S
Li1323 O1383 1.956 . S
C1324 C1326 1.348 . S
C1324 C1327 1.356 . S
C1324 O1380 1.325 . S
N1325 C1328 1.314 . S
N1325 C1329 1.279 . S
C1326 C1324 1.348 . S
C1326 C1328 1.353 . S
C1326 H1384 0.929 . S
C1327 C1324 1.356 . S
C1327 C1329 1.358 . S
C1327 H1385 0.930 . S
C1328 N1325 1.314 . S
C1328 C1326 1.353 . S
C1328 H1386 0.930 . S
C1329 N1325 1.279 . S
C1329 C1327 1.358 . S
C1329 H1387 0.930 . S
C1330 C1333 1.348 . S
C1330 C1334 1.356 . S
C1330 O1381 1.325 . S
C1331 N1332 1.279 . S
C1331 C1334 1.358 . S
C1331 H1388 0.930 . S
N1332 C1331 1.279 . S
N1332 C1335 1.314 . S
C1333 C1330 1.348 . S
C1333 C1335 1.353 . S
C1333 H1389 0.929 . S
C1334 C1330 1.356 . S
C1334 C1331 1.358 . S
C1334 H1390 0.930 . S
C1335 N1332 1.314 . S
C1335 C1333 1.353 . S
C1335 H1391 0.930 . S
C1336 N1337 1.314 . S
C1336 C1341 1.353 . S
C1336 H1342 0.930 . S
N1337 Li1320 1.990 . S
N1337 C1336 1.314 . S
N1337 C1339 1.279 . S
C1338 C1339 1.358 . S
C1338 C1340 1.356 . S
C1338 H1392 0.930 . S
C1339 N1337 1.279 . S
C1339 C1338 1.358 . S
C1339 H1343 0.930 . S
C1340 C1338 1.356 . S
C1340 C1341 1.348 . S
C1341 C1336 1.353 . S
C1341 C1340 1.348 . S
C1341 H1393 0.929 . S
H1342 C1336 0.930 . S
H1343 C1339 0.930 . S
C1344 N1345 1.314 . S
C1344 C1346 1.353 . S
C1344 H1350 0.930 . S
N1345 Li1321 1.990 . S
N1345 C1344 1.314 . S
N1345 C1348 1.279 . S
C1346 C1344 1.353 . S
C1346 C1349 1.348 . S
C1346 H1394 0.929 . S
C1347 C1348 1.358 . S
C1347 C1349 1.356 . S
C1347 H1395 0.930 . S
C1348 N1345 1.279 . S
C1348 C1347 1.358 . S
C1348 H1351 0.930 . S
C1349 C1346 1.348 . S
C1349 C1347 1.356 . S
H1350 C1344 0.930 . S
H1351 C1348 0.930 . S
C1352 C1354 1.348 . S
C1352 C1355 1.356 . S
C1352 O1382 1.325 . S
N1353 C1356 1.314 . S
N1353 C1357 1.279 . S
C1354 C1352 1.348 . S
C1354 C1356 1.353 . S
C1354 H1396 0.929 . S
C1355 C1352 1.356 . S
C1355 C1357 1.358 . S
C1355 H1397 0.930 . S
C1356 N1353 1.314 . S
C1356 C1354 1.353 . S
C1356 H1398 0.930 . S
C1357 N1353 1.279 . S
C1357 C1355 1.358 . S
C1357 H1399 0.930 . S
C1358 C1359 1.348 . S
C1358 C1360 1.356 . S
C1358 O1383 1.325 . S
C1359 C1358 1.348 . S
C1359 C1361 1.353 . S
C1359 H1400 0.929 . S
C1360 C1358 1.356 . S
C1360 C1362 1.358 . S
C1360 H1401 0.930 . S
C1361 C1359 1.353 . S
C1361 N1363 1.314 . S
C1361 H1402 0.930 . S
C1362 C1360 1.358 . S
C1362 N1363 1.279 . S
C1362 H1403 0.930 . S
N1363 C1361 1.314 . S
N1363 C1362 1.279 . S
C1364 C1366 1.353 . S
C1364 N1367 1.314 . S
C1364 H1370 0.930 . S
C1365 N1367 1.279 . S
C1365 C1368 1.358 . S
C1365 H1371 0.930 . S
C1366 C1364 1.353 . S
C1366 C1369 1.348 . S
C1366 H1404 0.929 . S
N1367 Li1322 1.990 . S
N1367 C1364 1.314 . S
N1367 C1365 1.279 . S
C1368 C1365 1.358 . S
C1368 C1369 1.356 . S
C1368 H1405 0.930 . S
C1369 C1366 1.348 . S
C1369 C1368 1.356 . S
H1370 C1364 0.930 . S
H1371 C1365 0.930 . S
C1372 N1373 1.314 . S
C1372 C1374 1.353 . S
C1372 H1378 0.930 . S
N1373 Li1323 1.990 . S
N1373 C1372 1.314 . S
N1373 C1376 1.279 . S
C1374 C1372 1.353 . S
C1374 C1377 1.348 . S
C1374 H1406 0.929 . S
C1375 C1376 1.358 . S
C1375 C1377 1.356 . S
C1375 H1407 0.930 . S
C1376 N1373 1.279 . S
C1376 C1375 1.358 . S
C1376 H1379 0.930 . S
C1377 C1374 1.348 . S
C1377 C1375 1.356 . S
H1378 C1372 0.930 . S
H1379 C1376 0.930 . S
O1380 Li1320 1.956 . S
O1380 Li1321 1.970 . S
O1380 Li1322 1.961 . S
O1380 C1324 1.325 . S
O1381 Li1320 1.970 . S
O1381 Li1321 1.956 . S
O1381 Li1323 1.961 . S
O1381 C1330 1.325 . S
O1382 Li1320 1.961 . S
O1382 Li1322 1.956 . S
O1382 Li1323 1.970 . S
O1382 C1352 1.325 . S
O1383 Li1321 1.961 . S
O1383 Li1322 1.970 . S
O1383 Li1323 1.956 . S
O1383 C1358 1.325 . S
H1384 C1326 0.929 . S
H1385 C1327 0.930 . S
H1386 C1328 0.930 . S
H1387 C1329 0.930 . S
H1388 C1331 0.930 . S
H1389 C1333 0.929 . S
H1390 C1334 0.930 . S
H1391 C1335 0.930 . S
H1392 C1338 0.930 . S
H1393 C1341 0.929 . S
H1394 C1346 0.929 . S
H1395 C1347 0.930 . S
H1396 C1354 0.929 . S
H1397 C1355 0.930 . S
H1398 C1356 0.930 . S
H1399 C1357 0.930 . S
H1400 C1359 0.929 . S
H1401 C1360 0.930 . S
H1402 C1361 0.930 . S
H1403 C1362 0.930 . S
H1404 C1366 0.929 . S
H1405 C1368 0.930 . S
H1406 C1374 0.929 . S
H1407 C1375 0.930 . S
Li1408 N1425 1.990 . S
Li1408 O1468 1.956 . S
Li1408 O1469 1.970 . S
Li1408 O1470 1.961 . S
Li1409 N1433 1.990 . S
Li1409 O1468 1.970 . S
Li1409 O1469 1.956 . S
Li1409 O1471 1.961 . S
Li1410 N1455 1.990 . S
Li1410 O1468 1.961 . S
Li1410 O1470 1.956 . S
Li1410 O1471 1.970 . S
Li1411 N1461 1.990 . S
Li1411 O1469 1.961 . S
Li1411 O1470 1.970 . S
Li1411 O1471 1.956 . S
C1412 C1414 1.348 . S
C1412 C1415 1.356 . S
C1412 O1468 1.325 . S
N1413 C1416 1.314 . S
N1413 C1417 1.279 . S
C1414 C1412 1.348 . S
C1414 C1416 1.353 . S
C1414 H1472 0.929 . S
C1415 C1412 1.356 . S
C1415 C1417 1.358 . S
C1415 H1473 0.930 . S
C1416 N1413 1.314 . S
C1416 C1414 1.353 . S
C1416 H1474 0.930 1_545 S
C1417 N1413 1.279 . S
C1417 C1415 1.358 . S
C1417 H1475 0.930 1_655 S
C1418 C1421 1.348 . S
C1418 C1422 1.356 . S
C1418 O1469 1.325 . S
C1419 N1420 1.279 . S
C1419 C1422 1.358 . S
C1419 H1476 0.930 . S
N1420 C1419 1.279 . S
N1420 C1423 1.314 . S
C1421 C1418 1.348 . S
C1421 C1423 1.353 . S
C1421 H1477 0.929 . S
C1422 C1418 1.356 . S
C1422 C1419 1.358 . S
C1422 H1478 0.930 . S
C1423 N1420 1.314 . S
C1423 C1421 1.353 . S
C1423 H1479 0.930 . S
C1424 N1425 1.314 . S
C1424 C1429 1.353 . S
C1424 H1430 0.930 . S
N1425 Li1408 1.990 . S
N1425 C1424 1.314 . S
N1425 C1427 1.279 . S
C1426 C1427 1.358 . S
C1426 C1428 1.356 . S
C1426 H1480 0.930 . S
C1427 N1425 1.279 . S
C1427 C1426 1.358 . S
C1427 H1431 0.930 . S
C1428 C1426 1.356 . S
C1428 C1429 1.348 . S
C1429 C1424 1.353 . S
C1429 C1428 1.348 . S
C1429 H1481 0.929 . S
H1430 C1424 0.930 . S
H1431 C1427 0.930 . S
C1432 N1433 1.314 . S
C1432 C1434 1.353 1_545 S
C1432 H1438 0.930 . S
N1433 Li1409 1.990 . S
N1433 C1432 1.314 . S
N1433 C1436 1.279 . S
C1434 C1432 1.353 1_565 S
C1434 C1437 1.348 . S
C1434 H1482 0.929 . S
C1435 C1436 1.362 . S
C1435 C1437 1.354 1_545 S
C1435 H1483 0.928 1_545 S
C1436 N1433 1.279 . S
C1436 C1435 1.362 . S
C1436 H1439 0.930 . S
C1437 C1434 1.348 . S
C1437 C1435 1.354 1_565 S
H1438 C1432 0.930 . S
H1439 C1436 0.930 . S
C1440 C1442 1.348 . S
C1440 C1443 1.356 . S
C1440 O1470 1.325 . S
N1441 C1444 1.314 . S
N1441 C1445 1.276 . S
C1442 C1440 1.348 . S
C1442 C1444 1.353 . S
C1442 H1484 0.929 . S
C1443 C1440 1.356 . S
C1443 C1445 1.355 . S
C1443 H1485 0.930 . S
C1444 N1441 1.314 . S
C1444 C1442 1.353 . S
C1444 H1486 0.930 . S
C1445 N1441 1.276 . S
C1445 C1443 1.355 . S
C1445 H1487 0.937 1_655 S
C1446 C1447 1.348 . S
C1446 C1448 1.356 . S
C1446 O1471 1.325 . S
C1447 C1446 1.348 . S
C1447 C1449 1.353 . S
C1447 H1488 0.929 . S
C1448 C1446 1.356 . S
C1448 C1450 1.358 . S
C1448 H1489 0.930 . S
C1449 C1447 1.353 . S
C1449 N1451 1.314 . S
C1449 H1490 0.930 . S
C1450 C1448 1.358 . S
C1450 N1451 1.279 . S
C1450 H1491 0.930 . S
N1451 C1449 1.314 . S
N1451 C1450 1.279 . S
C1452 C1454 1.353 . S
C1452 N1455 1.314 . S
C1452 H1458 0.930 . S
C1453 N1455 1.279 . S
C1453 C1456 1.358 . S
C1453 H1459 0.930 . S
C1454 C1452 1.353 . S
C1454 C1457 1.348 . S
C1454 H1492 0.929 . S
N1455 Li1410 1.990 . S
N1455 C1452 1.314 . S
N1455 C1453 1.279 . S
C1456 C1453 1.358 . S
C1456 C1457 1.356 . S
C1456 H1493 0.930 . S
C1457 C1454 1.348 . S
C1457 C1456 1.356 . S
H1458 C1452 0.930 . S
H1459 C1453 0.930 . S
C1460 N1461 1.314 . S
C1460 C1462 1.353 . S
C1460 H1466 0.930 . S
N1461 Li1411 1.990 . S
N1461 C1460 1.314 . S
N1461 C1464 1.279 . S
C1462 C1460 1.353 . S
C1462 C1465 1.348 . S
C1462 H1494 0.929 . S
C1463 C1464 1.358 . S
C1463 C1465 1.356 . S
C1463 H1495 0.930 . S
C1464 N1461 1.279 . S
C1464 C1463 1.358 . S
C1464 H1467 0.930 . S
C1465 C1462 1.348 . S
C1465 C1463 1.356 . S
H1466 C1460 0.930 . S
H1467 C1464 0.930 . S
O1468 Li1408 1.956 . S
O1468 Li1409 1.970 . S
O1468 Li1410 1.961 . S
O1468 C1412 1.325 . S
O1469 Li1408 1.970 . S
O1469 Li1409 1.956 . S
O1469 Li1411 1.961 . S
O1469 C1418 1.325 . S
O1470 Li1408 1.961 . S
O1470 Li1410 1.956 . S
O1470 Li1411 1.970 . S
O1470 C1440 1.325 . S
O1471 Li1409 1.961 . S
O1471 Li1410 1.970 . S
O1471 Li1411 1.956 . S
O1471 C1446 1.325 . S
H1472 C1414 0.929 . S
H1473 C1415 0.930 . S
H1474 C1416 0.930 1_565 S
H1475 C1417 0.930 1_455 S
H1476 C1419 0.930 . S
H1477 C1421 0.929 . S
H1478 C1422 0.930 . S
H1479 C1423 0.930 . S
H1480 C1426 0.930 . S
H1481 C1429 0.929 . S
H1482 C1434 0.929 . S
H1483 C1435 0.928 1_565 S
H1484 C1442 0.929 . S
H1485 C1443 0.930 . S
H1486 C1444 0.930 . S
H1487 C1445 0.937 1_455 S
H1488 C1447 0.929 . S
H1489 C1448 0.930 . S
H1490 C1449 0.930 . S
H1491 C1450 0.930 . S
H1492 C1454 0.929 . S
H1493 C1456 0.930 . S
H1494 C1462 0.929 . S
H1495 C1463 0.930 . S
Li1496 N1513 1.990 . S
Li1496 O1556 1.956 . S
Li1496 O1557 1.970 . S
Li1496 O1558 1.961 . S
Li1497 N1521 1.990 . S
Li1497 O1556 1.970 . S
Li1497 O1557 1.956 . S
Li1497 O1559 1.961 . S
Li1498 N1543 1.990 . S
Li1498 O1556 1.961 . S
Li1498 O1558 1.956 . S
Li1498 O1559 1.970 . S
Li1499 N1549 1.990 . S
Li1499 O1557 1.961 . S
Li1499 O1558 1.970 . S
Li1499 O1559 1.956 . S
C1500 C1502 1.348 . S
C1500 C1503 1.356 . S
C1500 O1556 1.325 . S
N1501 C1504 1.314 . S
N1501 C1505 1.279 . S
C1502 C1500 1.348 . S
C1502 C1504 1.353 . S
C1502 H1560 0.929 . S
C1503 C1500 1.356 . S
C1503 C1505 1.358 . S
C1503 H1561 0.930 . S
C1504 N1501 1.314 . S
C1504 C1502 1.353 . S
C1504 H1562 0.930 . S
C1505 N1501 1.279 . S
C1505 C1503 1.358 . S
C1505 H1563 0.930 . S
C1506 C1509 1.348 . S
C1506 C1510 1.356 . S
C1506 O1557 1.325 . S
C1507 N1508 1.279 . S
C1507 C1510 1.358 . S
C1507 H1564 0.930 . S
N1508 C1507 1.279 . S
N1508 C1511 1.314 . S
C1509 C1506 1.348 . S
C1509 C1511 1.353 . S
C1509 H1565 0.929 . S
C1510 C1506 1.356 . S
C1510 C1507 1.358 . S
C1510 H1566 0.930 . S
C1511 N1508 1.314 . S
C1511 C1509 1.353 . S
C1511 H1567 0.930 . S
C1512 N1513 1.314 . S
C1512 C1517 1.353 . S
C1512 H1518 0.930 . S
N1513 Li1496 1.990 . S
N1513 C1512 1.314 . S
N1513 C1515 1.279 . S
C1514 C1515 1.358 . S
C1514 C1516 1.356 . S
C1514 H1568 0.930 . S
C1515 N1513 1.279 . S
C1515 C1514 1.358 . S
C1515 H1519 0.930 . S
C1516 C1514 1.356 . S
C1516 C1517 1.348 . S
C1517 C1512 1.353 . S
C1517 C1516 1.348 . S
C1517 H1569 0.929 . S
H1518 C1512 0.930 . S
H1519 C1515 0.930 . S
C1520 N1521 1.314 . S
C1520 C1522 1.353 . S
C1520 H1526 0.930 . S
N1521 Li1497 1.990 . S
N1521 C1520 1.314 . S
N1521 C1524 1.279 . S
C1522 C1520 1.353 . S
C1522 C1525 1.348 . S
C1522 H1570 0.929 . S
C1523 C1524 1.358 . S
C1523 C1525 1.356 . S
C1523 H1571 0.930 . S
C1524 N1521 1.279 . S
C1524 C1523 1.358 . S
C1524 H1527 0.930 . S
C1525 C1522 1.348 . S
C1525 C1523 1.356 . S
H1526 C1520 0.930 . S
H1527 C1524 0.930 . S
C1528 C1530 1.348 . S
C1528 C1531 1.356 . S
C1528 O1558 1.325 . S
N1529 C1532 1.314 . S
N1529 C1533 1.279 . S
C1530 C1528 1.348 . S
C1530 C1532 1.353 . S
C1530 H1572 0.929 . S
C1531 C1528 1.356 . S
C1531 C1533 1.358 . S
C1531 H1573 0.930 . S
C1532 N1529 1.314 . S
C1532 C1530 1.353 . S
C1532 H1574 0.930 . S
C1533 N1529 1.279 . S
C1533 C1531 1.358 . S
C1533 H1575 0.930 . S
C1534 C1535 1.348 . S
C1534 C1536 1.356 . S
C1534 O1559 1.325 . S
C1535 C1534 1.348 . S
C1535 C1537 1.353 . S
C1535 H1576 0.929 . S
C1536 C1534 1.356 . S
C1536 C1538 1.358 . S
C1536 H1577 0.930 . S
C1537 C1535 1.353 . S
C1537 N1539 1.314 . S
C1537 H1578 0.930 . S
C1538 C1536 1.358 . S
C1538 N1539 1.279 . S
C1538 H1579 0.930 . S
N1539 C1537 1.314 . S
N1539 C1538 1.279 . S
C1540 C1542 1.353 . S
C1540 N1543 1.314 . S
C1540 H1546 0.930 . S
C1541 N1543 1.279 . S
C1541 C1544 1.358 . S
C1541 H1547 0.930 . S
C1542 C1540 1.353 . S
C1542 C1545 1.348 . S
C1542 H1580 0.929 . S
N1543 Li1498 1.990 . S
N1543 C1540 1.314 . S
N1543 C1541 1.279 . S
C1544 C1541 1.358 . S
C1544 C1545 1.356 . S
C1544 H1581 0.930 . S
C1545 C1542 1.348 . S
C1545 C1544 1.356 . S
H1546 C1540 0.930 . S
H1547 C1541 0.930 . S
C1548 N1549 1.314 . S
C1548 C1550 1.353 . S
C1548 H1554 0.930 . S
N1549 Li1499 1.990 . S
N1549 C1548 1.314 . S
N1549 C1552 1.279 . S
C1550 C1548 1.353 . S
C1550 C1553 1.348 . S
C1550 H1582 0.929 . S
C1551 C1552 1.358 . S
C1551 C1553 1.356 . S
C1551 H1583 0.930 . S
C1552 N1549 1.279 . S
C1552 C1551 1.358 . S
C1552 H1555 0.930 . S
C1553 C1550 1.348 . S
C1553 C1551 1.356 . S
H1554 C1548 0.930 . S
H1555 C1552 0.930 . S
O1556 Li1496 1.956 . S
O1556 Li1497 1.970 . S
O1556 Li1498 1.961 . S
O1556 C1500 1.325 . S
O1557 Li1496 1.970 . S
O1557 Li1497 1.956 . S
O1557 Li1499 1.961 . S
O1557 C1506 1.325 . S
O1558 Li1496 1.961 . S
O1558 Li1498 1.956 . S
O1558 Li1499 1.970 . S
O1558 C1528 1.325 . S
O1559 Li1497 1.961 . S
O1559 Li1498 1.970 . S
O1559 Li1499 1.956 . S
O1559 C1534 1.325 . S
H1560 C1502 0.929 . S
H1561 C1503 0.930 . S
H1562 C1504 0.930 . S
H1563 C1505 0.930 . S
H1564 C1507 0.930 . S
H1565 C1509 0.929 . S
H1566 C1510 0.930 . S
H1567 C1511 0.930 . S
H1568 C1514 0.930 . S
H1569 C1517 0.929 . S
H1570 C1522 0.929 . S
H1571 C1523 0.930 . S
H1572 C1530 0.929 . S
H1573 C1531 0.930 . S
H1574 C1532 0.930 . S
H1575 C1533 0.930 . S
H1576 C1535 0.929 . S
H1577 C1536 0.930 . S
H1578 C1537 0.930 . S
H1579 C1538 0.930 . S
H1580 C1542 0.929 . S
H1581 C1544 0.930 . S
H1582 C1550 0.929 . S
H1583 C1551 0.930 . S
Li1584 N1601 1.990 . S
Li1584 O1644 1.956 . S
Li1584 O1645 1.970 . S
Li1584 O1646 1.961 . S
Li1585 N1609 1.990 . S
Li1585 O1644 1.970 . S
Li1585 O1645 1.956 . S
Li1585 O1647 1.961 . S
Li1586 N1631 1.990 . S
Li1586 O1644 1.961 . S
Li1586 O1646 1.956 . S
Li1586 O1647 1.970 . S
Li1587 N1637 1.990 . S
Li1587 O1645 1.961 . S
Li1587 O1646 1.970 . S
Li1587 O1647 1.956 . S
C1588 C1590 1.348 . S
C1588 C1591 1.356 . S
C1588 O1644 1.325 . S
N1589 C1592 1.314 . S
N1589 C1593 1.279 . S
C1590 C1588 1.348 . S
C1590 C1592 1.353 . S
C1590 H1648 0.929 . S
C1591 C1588 1.356 . S
C1591 C1593 1.358 . S
C1591 H1649 0.930 . S
C1592 N1589 1.314 . S
C1592 C1590 1.353 . S
C1592 H1650 0.930 . S
C1593 N1589 1.279 . S
C1593 C1591 1.358 . S
C1593 H1651 0.930 . S
C1594 C1597 1.348 . S
C1594 C1598 1.356 . S
C1594 O1645 1.325 . S
C1595 N1596 1.279 . S
C1595 C1598 1.358 . S
C1595 H1652 0.930 . S
N1596 C1595 1.279 . S
N1596 C1599 1.314 . S
C1597 C1594 1.348 . S
C1597 C1599 1.353 . S
C1597 H1653 0.929 . S
C1598 C1594 1.356 . S
C1598 C1595 1.358 . S
C1598 H1654 0.930 . S
C1599 N1596 1.314 . S
C1599 C1597 1.353 . S
C1599 H1655 0.930 . S
C1600 N1601 1.314 . S
C1600 C1605 1.353 . S
C1600 H1606 0.930 . S
N1601 Li1584 1.990 . S
N1601 C1600 1.314 . S
N1601 C1603 1.279 . S
C1602 C1603 1.358 . S
C1602 C1604 1.356 . S
C1602 H1656 0.930 . S
C1603 N1601 1.279 . S
C1603 C1602 1.358 . S
C1603 H1607 0.930 . S
C1604 C1602 1.356 . S
C1604 C1605 1.348 . S
C1605 C1600 1.353 . S
C1605 C1604 1.348 . S
C1605 H1657 0.929 . S
H1606 C1600 0.930 . S
H1607 C1603 0.930 . S
C1608 N1609 1.314 . S
C1608 C1610 1.353 . S
C1608 H1614 0.930 . S
N1609 Li1585 1.990 . S
N1609 C1608 1.314 . S
N1609 C1612 1.279 . S
C1610 C1608 1.353 . S
C1610 C1613 1.348 . S
C1610 H1658 0.929 . S
C1611 C1612 1.358 . S
C1611 C1613 1.356 . S
C1611 H1659 0.930 . S
C1612 N1609 1.279 . S
C1612 C1611 1.358 . S
C1612 H1615 0.930 . S
C1613 C1610 1.348 . S
C1613 C1611 1.356 . S
H1614 C1608 0.930 . S
H1615 C1612 0.930 . S
C1616 C1618 1.348 . S
C1616 C1619 1.356 . S
C1616 O1646 1.325 . S
N1617 C1620 1.314 . S
N1617 C1621 1.279 . S
C1618 C1616 1.348 . S
C1618 C1620 1.353 . S
C1618 H1660 0.929 . S
C1619 C1616 1.356 . S
C1619 C1621 1.358 . S
C1619 H1661 0.930 . S
C1620 N1617 1.314 . S
C1620 C1618 1.353 . S
C1620 H1662 0.930 . S
C1621 N1617 1.279 . S
C1621 C1619 1.358 . S
C1621 H1663 0.930 . S
C1622 C1623 1.348 . S
C1622 C1624 1.356 . S
C1622 O1647 1.325 . S
C1623 C1622 1.348 . S
C1623 C1625 1.353 . S
C1623 H1664 0.929 . S
C1624 C1622 1.356 . S
C1624 C1626 1.358 . S
C1624 H1665 0.930 . S
C1625 C1623 1.353 . S
C1625 N1627 1.314 . S
C1625 H1666 0.930 . S
C1626 C1624 1.358 . S
C1626 N1627 1.279 . S
C1626 H1667 0.930 . S
N1627 C1625 1.314 . S
N1627 C1626 1.279 . S
C1628 C1630 1.353 . S
C1628 N1631 1.314 . S
C1628 H1634 0.930 . S
C1629 N1631 1.279 . S
C1629 C1632 1.358 . S
C1629 H1635 0.930 . S
C1630 C1628 1.353 . S
C1630 C1633 1.348 . S
C1630 H1668 0.929 . S
N1631 Li1586 1.990 . S
N1631 C1628 1.314 . S
N1631 C1629 1.279 . S
C1632 C1629 1.358 . S
C1632 C1633 1.356 . S
C1632 H1669 0.930 . S
C1633 C1630 1.348 . S
C1633 C1632 1.356 . S
H1634 C1628 0.930 . S
H1635 C1629 0.930 . S
C1636 N1637 1.314 . S
C1636 C1638 1.353 . S
C1636 H1642 0.930 . S
N1637 Li1587 1.990 . S
N1637 C1636 1.314 . S
N1637 C1640 1.279 . S
C1638 C1636 1.353 . S
C1638 C1641 1.348 . S
C1638 H1670 0.929 . S
C1639 C1640 1.358 . S
C1639 C1641 1.356 . S
C1639 H1671 0.930 . S
C1640 N1637 1.279 . S
C1640 C1639 1.358 . S
C1640 H1643 0.930 . S
C1641 C1638 1.348 . S
C1641 C1639 1.356 . S
H1642 C1636 0.930 . S
H1643 C1640 0.930 . S
O1644 Li1584 1.956 . S
O1644 Li1585 1.970 . S
O1644 Li1586 1.961 . S
O1644 C1588 1.325 . S
O1645 Li1584 1.970 . S
O1645 Li1585 1.956 . S
O1645 Li1587 1.961 . S
O1645 C1594 1.325 . S
O1646 Li1584 1.961 . S
O1646 Li1586 1.956 . S
O1646 Li1587 1.970 . S
O1646 C1616 1.325 . S
O1647 Li1585 1.961 . S
O1647 Li1586 1.970 . S
O1647 Li1587 1.956 . S
O1647 C1622 1.325 . S
H1648 C1590 0.929 . S
H1649 C1591 0.930 . S
H1650 C1592 0.930 . S
H1651 C1593 0.930 . S
H1652 C1595 0.930 . S
H1653 C1597 0.929 . S
H1654 C1598 0.930 . S
H1655 C1599 0.930 . S
H1656 C1602 0.930 . S
H1657 C1605 0.929 . S
H1658 C1610 0.929 . S
H1659 C1611 0.930 . S
H1660 C1618 0.929 . S
H1661 C1619 0.930 . S
H1662 C1620 0.930 . S
H1663 C1621 0.930 . S
H1664 C1623 0.929 . S
H1665 C1624 0.930 . S
H1666 C1625 0.930 . S
H1667 C1626 0.930 . S
H1668 C1630 0.929 . S
H1669 C1632 0.930 . S
H1670 C1638 0.929 . S
H1671 C1639 0.930 . S
Li1672 N1689 1.990 . S
Li1672 O1732 1.956 . S
Li1672 O1733 1.970 . S
Li1672 O1734 1.961 . S
Li1673 N1697 1.990 . S
Li1673 O1732 1.970 . S
Li1673 O1733 1.956 . S
Li1673 O1735 1.961 . S
Li1674 N1719 1.990 . S
Li1674 O1732 1.961 . S
Li1674 O1734 1.956 . S
Li1674 O1735 1.970 . S
Li1675 N1725 1.990 . S
Li1675 O1733 1.961 . S
Li1675 O1734 1.970 . S
Li1675 O1735 1.956 . S
C1676 C1678 1.348 . S
C1676 C1679 1.356 . S
C1676 O1732 1.325 . S
N1677 C1680 1.314 . S
N1677 C1681 1.279 . S
C1678 C1676 1.348 . S
C1678 C1680 1.353 . S
C1678 H1736 0.929 . S
C1679 C1676 1.356 . S
C1679 C1681 1.358 . S
C1679 H1737 0.930 . S
C1680 N1677 1.314 . S
C1680 C1678 1.353 . S
C1680 H1738 0.930 . S
C1681 N1677 1.279 . S
C1681 C1679 1.358 . S
C1681 H1739 0.930 . S
C1682 C1685 1.348 . S
C1682 C1686 1.356 . S
C1682 O1733 1.325 . S
C1683 N1684 1.279 . S
C1683 C1686 1.358 . S
C1683 H1740 0.930 . S
N1684 C1683 1.279 . S
N1684 C1687 1.314 . S
C1685 C1682 1.348 . S
C1685 C1687 1.353 . S
C1685 H1741 0.929 . S
C1686 C1682 1.356 . S
C1686 C1683 1.358 . S
C1686 H1742 0.930 . S
C1687 N1684 1.314 . S
C1687 C1685 1.353 . S
C1687 H1743 0.930 . S
C1688 N1689 1.314 . S
C1688 C1693 1.353 . S
C1688 H1694 0.930 . S
N1689 Li1672 1.990 . S
N1689 C1688 1.314 . S
N1689 C1691 1.279 . S
C1690 C1691 1.358 . S
C1690 C1692 1.356 . S
C1690 H1744 0.930 . S
C1691 N1689 1.279 . S
C1691 C1690 1.358 . S
C1691 H1695 0.930 . S
C1692 C1690 1.356 . S
C1692 C1693 1.348 . S
C1693 C1688 1.353 . S
C1693 C1692 1.348 . S
C1693 H1745 0.929 . S
H1694 C1688 0.930 . S
H1695 C1691 0.930 . S
C1696 N1697 1.314 . S
C1696 C1698 1.353 . S
C1696 H1702 0.930 . S
N1697 Li1673 1.990 . S
N1697 C1696 1.314 . S
N1697 C1700 1.279 . S
C1698 C1696 1.353 . S
C1698 C1701 1.348 . S
C1698 H1746 0.929 . S
C1699 C1700 1.358 . S
C1699 C1701 1.356 . S
C1699 H1747 0.930 . S
C1700 N1697 1.279 . S
C1700 C1699 1.358 . S
C1700 H1703 0.930 . S
C1701 C1698 1.348 . S
C1701 C1699 1.356 . S
H1702 C1696 0.930 . S
H1703 C1700 0.930 . S
C1704 C1706 1.348 1_545 S
C1704 C1707 1.356 . S
C1704 O1734 1.325 . S
N1705 C1708 1.314 . S
N1705 C1709 1.279 . S
C1706 C1704 1.348 1_565 S
C1706 C1708 1.353 . S
C1706 H1748 0.929 . S
C1707 C1704 1.356 . S
C1707 C1709 1.358 1_545 S
C1707 H1749 0.930 . S
C1708 N1705 1.314 . S
C1708 C1706 1.353 . S
C1708 H1750 0.930 . S
C1709 N1705 1.279 . S
C1709 C1707 1.358 1_565 S
C1709 H1751 0.930 . S
C1710 C1711 1.348 . S
C1710 C1712 1.356 . S
C1710 O1735 1.325 . S
C1711 C1710 1.348 . S
C1711 C1713 1.353 . S
C1711 H1752 0.929 . S
C1712 C1710 1.356 . S
C1712 C1714 1.358 . S
C1712 H1753 0.930 . S
C1713 C1711 1.353 . S
C1713 N1715 1.314 . S
C1713 H1754 0.930 . S
C1714 C1712 1.358 . S
C1714 N1715 1.279 . S
C1714 H1755 0.930 . S
N1715 C1713 1.314 . S
N1715 C1714 1.279 . S
C1716 C1718 1.353 . S
C1716 N1719 1.314 . S
C1716 H1722 0.930 . S
C1717 N1719 1.279 . S
C1717 C1720 1.358 . S
C1717 H1723 0.930 . S
C1718 C1716 1.353 . S
C1718 C1721 1.348 . S
C1718 H1756 0.929 . S
N1719 Li1674 1.990 . S
N1719 C1716 1.314 . S
N1719 C1717 1.279 . S
C1720 C1717 1.358 . S
C1720 C1721 1.356 . S
C1720 H1757 0.930 . S
C1721 C1718 1.348 . S
C1721 C1720 1.356 . S
H1722 C1716 0.930 . S
H1723 C1717 0.930 . S
C1724 N1725 1.314 1_565 S
C1724 C1726 1.353 . S
C1724 H1730 0.930 1_565 S
N1725 Li1675 1.990 . S
N1725 C1724 1.314 1_545 S
N1725 C1728 1.279 . S
C1726 C1724 1.353 . S
C1726 C1729 1.348 . S
C1726 H1758 0.929 . S
C1727 C1728 1.360 1_565 S
C1727 C1729 1.356 . S
C1727 H1759 0.930 . S
C1728 N1725 1.279 . S
C1728 C1727 1.360 1_545 S
C1728 H1731 0.929 . S
C1729 C1726 1.348 . S
C1729 C1727 1.356 . S
H1730 C1724 0.930 1_545 S
H1731 C1728 0.929 . S
O1732 Li1672 1.956 . S
O1732 Li1673 1.970 . S
O1732 Li1674 1.961 . S
O1732 C1676 1.325 . S
O1733 Li1672 1.970 . S
O1733 Li1673 1.956 . S
O1733 Li1675 1.961 . S
O1733 C1682 1.325 . S
O1734 Li1672 1.961 . S
O1734 Li1674 1.956 . S
O1734 Li1675 1.970 . S
O1734 C1704 1.325 . S
O1735 Li1673 1.961 . S
O1735 Li1674 1.970 . S
O1735 Li1675 1.956 . S
O1735 C1710 1.325 . S
H1736 C1678 0.929 . S
H1737 C1679 0.930 . S
H1738 C1680 0.930 . S
H1739 C1681 0.930 . S
H1740 C1683 0.930 . S
H1741 C1685 0.929 . S
H1742 C1686 0.930 . S
H1743 C1687 0.930 . S
H1744 C1690 0.930 . S
H1745 C1693 0.929 . S
H1746 C1698 0.929 . S
H1747 C1699 0.930 . S
H1748 C1706 0.929 . S
H1749 C1707 0.930 . S
H1750 C1708 0.930 . S
H1751 C1709 0.930 . S
H1752 C1711 0.929 . S
H1753 C1712 0.930 . S
H1754 C1713 0.930 . S
H1755 C1714 0.930 . S
H1756 C1718 0.929 . S
H1757 C1720 0.930 . S
H1758 C1726 0.929 . S
H1759 C1727 0.930 . S
Li1760 N1777 1.990 . S
Li1760 O1820 1.956 . S
Li1760 O1821 1.970 . S
Li1760 O1822 1.961 . S
Li1761 N1785 1.990 . S
Li1761 O1820 1.973 1_556 S
Li1761 O1821 1.937 1_556 S
Li1761 O1823 1.980 . S
Li1762 N1807 1.990 . S
Li1762 O1820 1.961 1_556 S
Li1762 O1822 1.956 1_556 S
Li1762 O1823 1.970 . S
Li1763 N1813 1.990 . S
Li1763 O1821 1.961 1_556 S
Li1763 O1822 1.970 1_556 S
Li1763 O1823 1.956 . S
C1764 C1766 1.348 . S
C1764 C1767 1.356 . S
C1764 O1820 1.325 . S
N1765 C1768 1.314 . S
N1765 C1769 1.279 . S
C1766 C1764 1.348 . S
C1766 C1768 1.353 . S
C1766 H1824 0.929 . S
C1767 C1764 1.356 . S
C1767 C1769 1.358 . S
C1767 H1825 0.930 . S
C1768 N1765 1.314 . S
C1768 C1766 1.353 . S
C1768 H1826 0.930 . S
C1769 N1765 1.279 . S
C1769 C1767 1.358 . S
C1769 H1827 0.930 . S
C1770 C1773 1.348 . S
C1770 C1774 1.356 . S
C1770 O1821 1.325 . S
C1771 N1772 1.279 . S
C1771 C1774 1.358 . S
C1771 H1828 0.930 . S
N1772 C1771 1.279 . S
N1772 C1775 1.314 . S
C1773 C1770 1.348 . S
C1773 C1775 1.353 . S
C1773 H1829 0.929 . S
C1774 C1770 1.356 . S
C1774 C1771 1.358 . S
C1774 H1830 0.930 . S
C1775 N1772 1.314 . S
C1775 C1773 1.353 . S
C1775 H1831 0.930 . S
C1776 N1777 1.314 . S
C1776 C1781 1.353 . S
C1776 H1782 0.930 . S
N1777 Li1760 1.990 . S
N1777 C1776 1.314 . S
N1777 C1779 1.279 . S
C1778 C1779 1.358 . S
C1778 C1780 1.356 . S
C1778 H1832 0.930 . S
C1779 N1777 1.279 . S
C1779 C1778 1.358 . S
C1779 H1783 0.930 . S
C1780 C1778 1.356 . S
C1780 C1781 1.348 . S
C1781 C1776 1.353 . S
C1781 C1780 1.348 . S
C1781 H1833 0.929 . S
H1782 C1776 0.930 . S
H1783 C1779 0.930 . S
C1784 N1785 1.314 . S
C1784 C1786 1.353 . S
C1784 H1790 0.930 . S
N1785 Li1761 1.990 . S
N1785 C1784 1.314 . S
N1785 C1788 1.279 1_556 S
C1786 C1784 1.353 . S
C1786 C1789 1.348 . S
C1786 H1834 0.929 . S
C1787 C1788 1.358 . S
C1787 C1789 1.356 1_554 S
C1787 H1835 0.930 . S
C1788 N1785 1.279 1_554 S
C1788 C1787 1.358 . S
C1788 H1791 0.930 . S
C1789 C1786 1.348 . S
C1789 C1787 1.356 1_556 S
H1790 C1784 0.930 . S
H1791 C1788 0.930 . S
C1792 C1794 1.348 1_554 S
C1792 C1795 1.356 . S
C1792 O1822 1.325 . S
N1793 C1796 1.314 1_554 S
N1793 C1797 1.279 . S
C1794 C1792 1.348 1_556 S
C1794 C1796 1.353 . S
C1794 H1836 0.929 . S
C1795 C1792 1.356 . S
C1795 C1797 1.358 . S
C1795 H1837 0.930 . S
C1796 N1793 1.314 1_556 S
C1796 C1794 1.353 . S
C1796 H1838 0.930 . S
C1797 N1793 1.279 . S
C1797 C1795 1.358 . S
C1797 H1839 0.930 . S
C1798 C1799 1.348 . S
C1798 C1800 1.356 . S
C1798 O1823 1.325 . S
C1799 C1798 1.348 . S
C1799 C1801 1.353 . S
C1799 H1840 0.929 . S
C1800 C1798 1.356 . S
C1800 C1802 1.358 . S
C1800 H1841 0.930 . S
C1801 C1799 1.353 . S
C1801 N1803 1.314 . S
C1801 H1842 0.930 . S
C1802 C1800 1.358 . S
C1802 N1803 1.279 . S
C1802 H1843 0.930 . S
N1803 C1801 1.314 . S
N1803 C1802 1.279 . S
C1804 C1806 1.353 . S
C1804 N1807 1.314 . S
C1804 H1810 0.930 . S
C1805 N1807 1.279 . S
C1805 C1808 1.358 . S
C1805 H1811 0.930 . S
C1806 C1804 1.353 . S
C1806 C1809 1.348 . S
C1806 H1844 0.929 . S
N1807 Li1762 1.990 . S
N1807 C1804 1.314 . S
N1807 C1805 1.279 . S
C1808 C1805 1.358 . S
C1808 C1809 1.356 . S
C1808 H1845 0.930 . S
C1809 C1806 1.348 . S
C1809 C1808 1.356 . S
H1810 C1804 0.930 . S
H1811 C1805 0.930 . S
C1812 N1813 1.314 1_554 S
C1812 C1814 1.353 . S
C1812 H1818 0.930 . S
N1813 Li1763 1.990 . S
N1813 C1812 1.314 1_556 S
N1813 C1816 1.279 . S
C1814 C1812 1.353 . S
C1814 C1817 1.348 1_554 S
C1814 H1846 0.929 . S
C1815 C1816 1.358 . S
C1815 C1817 1.356 . S
C1815 H1847 0.930 . S
C1816 N1813 1.279 . S
C1816 C1815 1.358 . S
C1816 H1819 0.930 . S
C1817 C1814 1.348 1_556 S
C1817 C1815 1.356 . S
H1818 C1812 0.930 . S
H1819 C1816 0.930 . S
O1820 Li1760 1.956 . S
O1820 Li1761 1.973 1_554 S
O1820 Li1762 1.961 1_554 S
O1820 C1764 1.325 . S
O1821 Li1760 1.970 . S
O1821 Li1761 1.937 1_554 S
O1821 Li1763 1.961 1_554 S
O1821 C1770 1.325 . S
O1822 Li1760 1.961 . S
O1822 Li1762 1.956 1_554 S
O1822 Li1763 1.970 1_554 S
O1822 C1792 1.325 . S
O1823 Li1761 1.980 . S
O1823 Li1762 1.970 . S
O1823 Li1763 1.956 . S
O1823 C1798 1.325 . S
H1824 C1766 0.929 . S
H1825 C1767 0.930 . S
H1826 C1768 0.930 . S
H1827 C1769 0.930 . S
H1828 C1771 0.930 . S
H1829 C1773 0.929 . S
H1830 C1774 0.930 . S
H1831 C1775 0.930 . S
H1832 C1778 0.930 . S
H1833 C1781 0.929 . S
H1834 C1786 0.929 . S
H1835 C1787 0.930 . S
H1836 C1794 0.929 . S
H1837 C1795 0.930 . S
H1838 C1796 0.930 . S
H1839 C1797 0.930 . S
H1840 C1799 0.929 . S
H1841 C1800 0.930 . S
H1842 C1801 0.930 . S
H1843 C1802 0.930 . S
H1844 C1806 0.929 . S
H1845 C1808 0.930 . S
H1846 C1814 0.929 . S
H1847 C1815 0.930 . S
Li1848 N1865 1.990 . S
Li1848 O1908 1.956 . S
Li1848 O1909 1.970 . S
Li1848 O1910 1.961 . S
Li1849 N1873 1.990 . S
Li1849 O1908 1.970 . S
Li1849 O1909 1.956 . S
Li1849 O1911 1.961 . S
Li1850 N1895 1.990 . S
Li1850 O1908 1.961 . S
Li1850 O1910 1.956 . S
Li1850 O1911 1.970 . S
Li1851 N1901 1.990 . S
Li1851 O1909 1.961 . S
Li1851 O1910 1.970 . S
Li1851 O1911 1.956 . S
C1852 C1854 1.348 . S
C1852 C1855 1.356 . S
C1852 O1908 1.325 . S
N1853 C1856 1.314 . S
N1853 C1857 1.279 . S
C1854 C1852 1.348 . S
C1854 C1856 1.353 . S
C1854 H1912 0.929 . S
C1855 C1852 1.356 . S
C1855 C1857 1.358 . S
C1855 H1913 0.930 . S
C1856 N1853 1.314 . S
C1856 C1854 1.353 . S
C1856 H1914 0.930 . S
C1857 N1853 1.279 . S
C1857 C1855 1.358 . S
C1857 H1915 0.930 . S
C1858 C1861 1.348 . S
C1858 C1862 1.356 . S
C1858 O1909 1.325 . S
C1859 N1860 1.279 . S
C1859 C1862 1.358 . S
C1859 H1916 0.930 . S
N1860 C1859 1.279 . S
N1860 C1863 1.314 . S
C1861 C1858 1.348 . S
C1861 C1863 1.353 . S
C1861 H1917 0.929 . S
C1862 C1858 1.356 . S
C1862 C1859 1.358 . S
C1862 H1918 0.930 . S
C1863 N1860 1.314 . S
C1863 C1861 1.353 . S
C1863 H1919 0.930 . S
C1864 N1865 1.314 . S
C1864 C1869 1.353 . S
C1864 H1870 0.930 . S
N1865 Li1848 1.990 . S
N1865 C1864 1.314 . S
N1865 C1867 1.279 . S
C1866 C1867 1.358 . S
C1866 C1868 1.356 . S
C1866 H1920 0.930 . S
C1867 N1865 1.279 . S
C1867 C1866 1.358 . S
C1867 H1871 0.930 . S
C1868 C1866 1.356 . S
C1868 C1869 1.348 . S
C1869 C1864 1.353 . S
C1869 C1868 1.348 . S
C1869 H1921 0.929 . S
H1870 C1864 0.930 . S
H1871 C1867 0.930 . S
C1872 N1873 1.314 . S
C1872 C1874 1.353 . S
C1872 H1878 0.930 . S
N1873 Li1849 1.990 . S
N1873 C1872 1.314 . S
N1873 C1876 1.279 . S
C1874 C1872 1.353 . S
C1874 C1877 1.348 . S
C1874 H1922 0.929 . S
C1875 C1876 1.358 . S
C1875 C1877 1.356 . S
C1875 H1923 0.930 . S
C1876 N1873 1.279 . S
C1876 C1875 1.358 . S
C1876 H1879 0.930 . S
C1877 C1874 1.348 . S
C1877 C1875 1.356 . S
H1878 C1872 0.930 . S
H1879 C1876 0.930 . S
C1880 C1882 1.348 . S
C1880 C1883 1.356 . S
C1880 O1910 1.325 . S
N1881 C1884 1.314 . S
N1881 C1885 1.279 . S
C1882 C1880 1.348 . S
C1882 C1884 1.353 . S
C1882 H1924 0.929 . S
C1883 C1880 1.356 . S
C1883 C1885 1.358 . S
C1883 H1925 0.930 . S
C1884 N1881 1.314 . S
C1884 C1882 1.353 . S
C1884 H1926 0.930 . S
C1885 N1881 1.279 . S
C1885 C1883 1.358 . S
C1885 H1927 0.930 . S
C1886 C1887 1.348 . S
C1886 C1888 1.356 . S
C1886 O1911 1.325 . S
C1887 C1886 1.348 . S
C1887 C1889 1.353 . S
C1887 H1928 0.929 . S
C1888 C1886 1.356 . S
C1888 C1890 1.358 . S
C1888 H1929 0.930 . S
C1889 C1887 1.353 . S
C1889 N1891 1.314 . S
C1889 H1930 0.930 . S
C1890 C1888 1.358 . S
C1890 N1891 1.279 . S
C1890 H1931 0.930 . S
N1891 C1889 1.314 . S
N1891 C1890 1.279 . S
C1892 C1894 1.353 . S
C1892 N1895 1.314 . S
C1892 H1898 0.930 . S
C1893 N1895 1.279 . S
C1893 C1896 1.358 . S
C1893 H1899 0.930 . S
C1894 C1892 1.353 . S
C1894 C1897 1.348 . S
C1894 H1932 0.929 . S
N1895 Li1850 1.990 . S
N1895 C1892 1.314 . S
N1895 C1893 1.279 . S
C1896 C1893 1.358 . S
C1896 C1897 1.356 . S
C1896 H1933 0.930 . S
C1897 C1894 1.348 . S
C1897 C1896 1.356 . S
H1898 C1892 0.930 . S
H1899 C1893 0.930 . S
C1900 N1901 1.314 . S
C1900 C1902 1.353 . S
C1900 H1906 0.930 . S
N1901 Li1851 1.990 . S
N1901 C1900 1.314 . S
N1901 C1904 1.279 . S
C1902 C1900 1.353 . S
C1902 C1905 1.348 . S
C1902 H1934 0.929 . S
C1903 C1904 1.358 . S
C1903 C1905 1.356 . S
C1903 H1935 0.930 . S
C1904 N1901 1.279 . S
C1904 C1903 1.358 . S
C1904 H1907 0.930 . S
C1905 C1902 1.348 . S
C1905 C1903 1.356 . S
H1906 C1900 0.930 . S
H1907 C1904 0.930 . S
O1908 Li1848 1.956 . S
O1908 Li1849 1.970 . S
O1908 Li1850 1.961 . S
O1908 C1852 1.325 . S
O1909 Li1848 1.970 . S
O1909 Li1849 1.956 . S
O1909 Li1851 1.961 . S
O1909 C1858 1.325 . S
O1910 Li1848 1.961 . S
O1910 Li1850 1.956 . S
O1910 Li1851 1.970 . S
O1910 C1880 1.325 . S
O1911 Li1849 1.961 . S
O1911 Li1850 1.970 . S
O1911 Li1851 1.956 . S
O1911 C1886 1.325 . S
H1912 C1854 0.929 . S
H1913 C1855 0.930 . S
H1914 C1856 0.930 . S
H1915 C1857 0.930 . S
H1916 C1859 0.930 . S
H1917 C1861 0.929 . S
H1918 C1862 0.930 . S
H1919 C1863 0.930 . S
H1920 C1866 0.930 . S
H1921 C1869 0.929 . S
H1922 C1874 0.929 . S
H1923 C1875 0.930 . S
H1924 C1882 0.929 . S
H1925 C1883 0.930 . S
H1926 C1884 0.930 . S
H1927 C1885 0.930 . S
H1928 C1887 0.929 . S
H1929 C1888 0.930 . S
H1930 C1889 0.930 . S
H1931 C1890 0.930 . S
H1932 C1894 0.929 . S
H1933 C1896 0.930 . S
H1934 C1902 0.929 . S
H1935 C1903 0.930 . S
Li1936 N1953 1.990 . S
Li1936 O1996 1.956 . S
Li1936 O1997 1.970 . S
Li1936 O1998 1.961 . S
Li1937 N1961 1.990 . S
Li1937 O1996 1.970 . S
Li1937 O1997 1.956 . S
Li1937 O1999 1.961 . S
Li1938 N1983 1.990 . S
Li1938 O1996 1.961 . S
Li1938 O1998 1.956 . S
Li1938 O1999 1.970 . S
Li1939 N1989 1.990 . S
Li1939 O1997 1.961 . S
Li1939 O1998 1.970 . S
Li1939 O1999 1.956 . S
C1940 C1942 1.348 . S
C1940 C1943 1.356 . S
C1940 O1996 1.325 . S
N1941 C1944 1.314 . S
N1941 C1945 1.279 . S
C1942 C1940 1.348 . S
C1942 C1944 1.353 . S
C1942 H2000 0.929 . S
C1943 C1940 1.356 . S
C1943 C1945 1.358 . S
C1943 H2001 0.930 . S
C1944 N1941 1.314 . S
C1944 C1942 1.353 . S
C1944 H2002 0.930 . S
C1945 N1941 1.279 . S
C1945 C1943 1.358 . S
C1945 H2003 0.930 . S
C1946 C1949 1.348 . S
C1946 C1950 1.356 . S
C1946 O1997 1.325 . S
C1947 N1948 1.279 . S
C1947 C1950 1.358 . S
C1947 H2004 0.930 . S
N1948 C1947 1.279 . S
N1948 C1951 1.314 . S
C1949 C1946 1.348 . S
C1949 C1951 1.353 . S
C1949 H2005 0.929 . S
C1950 C1946 1.356 . S
C1950 C1947 1.358 . S
C1950 H2006 0.930 . S
C1951 N1948 1.314 . S
C1951 C1949 1.353 . S
C1951 H2007 0.930 . S
C1952 N1953 1.314 . S
C1952 C1957 1.353 . S
C1952 H1958 0.930 . S
N1953 Li1936 1.990 . S
N1953 C1952 1.314 . S
N1953 C1955 1.279 . S
C1954 C1955 1.358 . S
C1954 C1956 1.356 . S
C1954 H2008 0.930 . S
C1955 N1953 1.279 . S
C1955 C1954 1.358 . S
C1955 H1959 0.930 . S
C1956 C1954 1.356 . S
C1956 C1957 1.348 . S
C1957 C1952 1.353 . S
C1957 C1956 1.348 . S
C1957 H2009 0.929 . S
H1958 C1952 0.930 . S
H1959 C1955 0.930 . S
C1960 N1961 1.314 . S
C1960 C1962 1.353 . S
C1960 H1966 0.930 . S
N1961 Li1937 1.990 . S
N1961 C1960 1.314 . S
N1961 C1964 1.279 . S
C1962 C1960 1.353 . S
C1962 C1965 1.348 . S
C1962 H2010 0.929 . S
C1963 C1964 1.358 . S
C1963 C1965 1.356 . S
C1963 H2011 0.930 . S
C1964 N1961 1.279 . S
C1964 C1963 1.358 . S
C1964 H1967 0.930 . S
C1965 C1962 1.348 . S
C1965 C1963 1.356 . S
H1966 C1960 0.930 . S
H1967 C1964 0.930 . S
C1968 C1970 1.348 . S
C1968 C1971 1.356 . S
C1968 O1998 1.325 . S
N1969 C1972 1.314 . S
N1969 C1973 1.279 . S
C1970 C1968 1.348 . S
C1970 C1972 1.353 . S
C1970 H2012 0.929 . S
C1971 C1968 1.356 . S
C1971 C1973 1.358 . S
C1971 H2013 0.930 . S
C1972 N1969 1.314 . S
C1972 C1970 1.353 . S
C1972 H2014 0.930 . S
C1973 N1969 1.279 . S
C1973 C1971 1.358 . S
C1973 H2015 0.930 . S
C1974 C1975 1.348 . S
C1974 C1976 1.356 . S
C1974 O1999 1.325 . S
C1975 C1974 1.348 . S
C1975 C1977 1.353 . S
C1975 H2016 0.929 . S
C1976 C1974 1.356 . S
C1976 C1978 1.358 . S
C1976 H2017 0.930 . S
C1977 C1975 1.353 . S
C1977 N1979 1.314 . S
C1977 H2018 0.930 . S
C1978 C1976 1.358 . S
C1978 N1979 1.279 . S
C1978 H2019 0.930 . S
N1979 C1977 1.314 . S
N1979 C1978 1.279 . S
C1980 C1982 1.353 . S
C1980 N1983 1.314 . S
C1980 H1986 0.930 . S
C1981 N1983 1.279 . S
C1981 C1984 1.358 . S
C1981 H1987 0.930 . S
C1982 C1980 1.353 . S
C1982 C1985 1.348 . S
C1982 H2020 0.929 . S
N1983 Li1938 1.990 . S
N1983 C1980 1.314 . S
N1983 C1981 1.279 . S
C1984 C1981 1.358 . S
C1984 C1985 1.356 . S
C1984 H2021 0.930 . S
C1985 C1982 1.348 . S
C1985 C1984 1.356 . S
H1986 C1980 0.930 . S
H1987 C1981 0.930 . S
C1988 N1989 1.314 . S
C1988 C1990 1.353 . S
C1988 H1994 0.930 . S
N1989 Li1939 1.990 . S
N1989 C1988 1.314 . S
N1989 C1992 1.279 . S
C1990 C1988 1.353 . S
C1990 C1993 1.348 . S
C1990 H2022 0.929 . S
C1991 C1992 1.358 . S
C1991 C1993 1.356 . S
C1991 H2023 0.930 . S
C1992 N1989 1.279 . S
C1992 C1991 1.358 . S
C1992 H1995 0.930 . S
C1993 C1990 1.348 . S
C1993 C1991 1.356 . S
H1994 C1988 0.930 . S
H1995 C1992 0.930 . S
O1996 Li1936 1.956 . S
O1996 Li1937 1.970 . S
O1996 Li1938 1.961 . S
O1996 C1940 1.325 . S
O1997 Li1936 1.970 . S
O1997 Li1937 1.956 . S
O1997 Li1939 1.961 . S
O1997 C1946 1.325 . S
O1998 Li1936 1.961 . S
O1998 Li1938 1.956 . S
O1998 Li1939 1.970 . S
O1998 C1968 1.325 . S
O1999 Li1937 1.961 . S
O1999 Li1938 1.970 . S
O1999 Li1939 1.956 . S
O1999 C1974 1.325 . S
H2000 C1942 0.929 . S
H2001 C1943 0.930 . S
H2002 C1944 0.930 . S
H2003 C1945 0.930 . S
H2004 C1947 0.930 . S
H2005 C1949 0.929 . S
H2006 C1950 0.930 . S
H2007 C1951 0.930 . S
H2008 C1954 0.930 . S
H2009 C1957 0.929 . S
H2010 C1962 0.929 . S
H2011 C1963 0.930 . S
H2012 C1970 0.929 . S
H2013 C1971 0.930 . S
H2014 C1972 0.930 . S
H2015 C1973 0.930 . S
H2016 C1975 0.929 . S
H2017 C1976 0.930 . S
H2018 C1977 0.930 . S
H2019 C1978 0.930 . S
H2020 C1982 0.929 . S
H2021 C1984 0.930 . S
H2022 C1990 0.929 . S
H2023 C1991 0.930 . S
Li2024 N2041 1.990 . S
Li2024 O2084 1.956 . S
Li2024 O2085 1.970 . S
Li2024 O2086 1.961 . S
Li2025 N2049 1.990 . S
Li2025 O2084 1.970 . S
Li2025 O2085 1.956 . S
Li2025 O2087 1.961 . S
Li2026 N2071 1.990 . S
Li2026 O2084 1.961 . S
Li2026 O2086 1.956 . S
Li2026 O2087 1.970 . S
Li2027 N2077 1.990 . S
Li2027 O2085 1.961 . S
Li2027 O2086 1.970 . S
Li2027 O2087 1.956 . S
C2028 C2030 1.348 . S
C2028 C2031 1.356 . S
C2028 O2084 1.325 . S
N2029 C2032 1.314 . S
N2029 C2033 1.279 . S
C2030 C2028 1.348 . S
C2030 C2032 1.353 . S
C2030 H2088 0.929 . S
C2031 C2028 1.356 . S
C2031 C2033 1.358 . S
C2031 H2089 0.930 . S
C2032 N2029 1.314 . S
C2032 C2030 1.353 . S
C2032 H2090 0.930 . S
C2033 N2029 1.279 . S
C2033 C2031 1.358 . S
C2033 H2091 0.930 . S
C2034 C2037 1.348 . S
C2034 C2038 1.356 . S
C2034 O2085 1.325 . S
C2035 N2036 1.279 . S
C2035 C2038 1.358 . S
C2035 H2092 0.930 . S
N2036 C2035 1.279 . S
N2036 C2039 1.314 . S
C2037 C2034 1.348 . S
C2037 C2039 1.353 . S
C2037 H2093 0.929 . S
C2038 C2034 1.356 . S
C2038 C2035 1.358 . S
C2038 H2094 0.930 . S
C2039 N2036 1.314 . S
C2039 C2037 1.353 . S
C2039 H2095 0.930 . S
C2040 N2041 1.314 . S
C2040 C2045 1.353 . S
C2040 H2046 0.930 . S
N2041 Li2024 1.990 . S
N2041 C2040 1.314 . S
N2041 C2043 1.279 . S
C2042 C2043 1.358 . S
C2042 C2044 1.356 . S
C2042 H2096 0.930 . S
C2043 N2041 1.279 . S
C2043 C2042 1.358 . S
C2043 H2047 0.930 . S
C2044 C2042 1.356 . S
C2044 C2045 1.348 . S
C2045 C2040 1.353 . S
C2045 C2044 1.348 . S
C2045 H2097 0.929 . S
H2046 C2040 0.930 . S
H2047 C2043 0.930 . S
C2048 N2049 1.314 . S
C2048 C2050 1.353 . S
C2048 H2054 0.930 . S
N2049 Li2025 1.990 . S
N2049 C2048 1.314 . S
N2049 C2052 1.279 . S
C2050 C2048 1.353 . S
C2050 C2053 1.348 . S
C2050 H2098 0.929 . S
C2051 C2052 1.358 . S
C2051 C2053 1.356 . S
C2051 H2099 0.930 . S
C2052 N2049 1.279 . S
C2052 C2051 1.358 . S
C2052 H2055 0.930 . S
C2053 C2050 1.348 . S
C2053 C2051 1.356 . S
H2054 C2048 0.930 . S
H2055 C2052 0.930 . S
C2056 C2058 1.348 . S
C2056 C2059 1.356 . S
C2056 O2086 1.325 . S
N2057 C2060 1.314 . S
N2057 C2061 1.279 . S
C2058 C2056 1.348 . S
C2058 C2060 1.353 . S
C2058 H2100 0.929 . S
C2059 C2056 1.356 . S
C2059 C2061 1.358 . S
C2059 H2101 0.930 . S
C2060 N2057 1.314 . S
C2060 C2058 1.353 . S
C2060 H2102 0.930 . S
C2061 N2057 1.279 . S
C2061 C2059 1.358 . S
C2061 H2103 0.930 . S
C2062 C2063 1.348 . S
C2062 C2064 1.356 . S
C2062 O2087 1.325 . S
C2063 C2062 1.348 . S
C2063 C2065 1.353 . S
C2063 H2104 0.929 . S
C2064 C2062 1.356 . S
C2064 C2066 1.358 . S
C2064 H2105 0.930 . S
C2065 C2063 1.353 . S
C2065 N2067 1.314 . S
C2065 H2106 0.930 . S
C2066 C2064 1.358 . S
C2066 N2067 1.279 . S
C2066 H2107 0.930 . S
N2067 C2065 1.314 . S
N2067 C2066 1.279 . S
C2068 C2070 1.353 . S
C2068 N2071 1.314 . S
C2068 H2074 0.930 . S
C2069 N2071 1.279 . S
C2069 C2072 1.358 . S
C2069 H2075 0.930 . S
C2070 C2068 1.353 . S
C2070 C2073 1.348 . S
C2070 H2108 0.929 . S
N2071 Li2026 1.990 . S
N2071 C2068 1.314 . S
N2071 C2069 1.279 . S
C2072 C2069 1.358 . S
C2072 C2073 1.356 . S
C2072 H2109 0.930 . S
C2073 C2070 1.348 . S
C2073 C2072 1.356 . S
H2074 C2068 0.930 . S
H2075 C2069 0.930 . S
C2076 N2077 1.314 . S
C2076 C2078 1.353 . S
C2076 H2082 0.930 . S
N2077 Li2027 1.990 . S
N2077 C2076 1.314 . S
N2077 C2080 1.279 . S
C2078 C2076 1.353 . S
C2078 C2081 1.348 . S
C2078 H2110 0.929 . S
C2079 C2080 1.358 . S
C2079 C2081 1.356 . S
C2079 H2111 0.930 . S
C2080 N2077 1.279 . S
C2080 C2079 1.358 . S
C2080 H2083 0.930 . S
C2081 C2078 1.348 . S
C2081 C2079 1.356 . S
H2082 C2076 0.930 . S
H2083 C2080 0.930 . S
O2084 Li2024 1.956 . S
O2084 Li2025 1.970 . S
O2084 Li2026 1.961 . S
O2084 C2028 1.325 . S
O2085 Li2024 1.970 . S
O2085 Li2025 1.956 . S
O2085 Li2027 1.961 . S
O2085 C2034 1.325 . S
O2086 Li2024 1.961 . S
O2086 Li2026 1.956 . S
O2086 Li2027 1.970 . S
O2086 C2056 1.325 . S
O2087 Li2025 1.961 . S
O2087 Li2026 1.970 . S
O2087 Li2027 1.956 . S
O2087 C2062 1.325 . S
H2088 C2030 0.929 . S
H2089 C2031 0.930 . S
H2090 C2032 0.930 . S
H2091 C2033 0.930 . S
H2092 C2035 0.930 . S
H2093 C2037 0.929 . S
H2094 C2038 0.930 . S
H2095 C2039 0.930 . S
H2096 C2042 0.930 . S
H2097 C2045 0.929 . S
H2098 C2050 0.929 . S
H2099 C2051 0.930 . S
H2100 C2058 0.929 . S
H2101 C2059 0.930 . S
H2102 C2060 0.930 . S
H2103 C2061 0.930 . S
H2104 C2063 0.929 . S
H2105 C2064 0.930 . S
H2106 C2065 0.930 . S
H2107 C2066 0.930 . S
H2108 C2070 0.929 . S
H2109 C2072 0.930 . S
H2110 C2078 0.929 . S
H2111 C2079 0.930 . S
Tb2112 N2143 2.660 1_545 S
Tb2112 N2150 2.600 1_544 S
Tb2112 O2156 2.546 1_454 S
Tb2112 O2157 2.610 . S
Tb2112 O2159 2.320 . S
Tb2112 O2160 2.552 . S
Tb2112 O2161 2.413 1_455 S
Tb2112 O2163 2.362 . S
Tb2112 O2164 2.421 1_554 S
Tb2112 C2176 2.833 1_454 S
C2113 C2116 1.432 . S
C2113 C2117 1.414 . S
C2113 N2120 1.359 . S
C2114 C2116 1.417 . S
C2114 C2118 1.432 . S
C2114 C2126 1.441 . S
C2115 C2117 1.444 . S
C2115 C2118 1.317 . S
C2115 H2138 0.929 . S
C2116 C2113 1.432 . S
C2116 C2114 1.417 . S
C2116 N2124 1.360 . S
C2117 C2113 1.414 . S
C2117 C2115 1.444 . S
C2117 C2122 1.385 . S
C2118 C2114 1.432 . S
C2118 C2115 1.317 . S
C2118 H2130 0.930 . S
C2119 C2121 1.392 . S
C2119 C2122 1.370 . S
C2119 H2131 0.931 . S
N2120 C2113 1.359 . S
N2120 C2121 1.327 . S
N2120 Tb2123 2.600 . S
C2121 C2119 1.392 . S
C2121 N2120 1.327 . S
C2121 H2128 0.930 . S
C2122 C2117 1.385 . S
C2122 C2119 1.370 . S
C2122 H2141 0.930 . S
Tb2123 N2120 2.600 . S
Tb2123 N2124 2.660 . S
Tb2123 O2157 2.362 . S
Tb2123 O2158 2.421 . S
Tb2123 O2162 2.546 . S
Tb2123 O2163 2.610 . S
Tb2123 O2165 2.320 1_554 S
Tb2123 O2166 2.552 . S
Tb2123 O2167 2.413 . S
Tb2123 C2187 2.833 . S
N2124 C2116 1.360 . S
N2124 Tb2123 2.660 . S
N2124 C2125 1.305 1_554 S
C2125 N2124 1.305 1_556 S
C2125 C2127 1.407 . S
C2125 H2132 0.930 . S
C2126 C2114 1.441 . S
C2126 C2127 1.332 1_554 S
C2126 H2134 0.913 1_554 S
C2127 C2125 1.407 . S
C2127 C2126 1.332 1_556 S
C2127 H2129 0.930 . S
H2128 C2121 0.930 . S
H2129 C2127 0.930 . S
H2130 C2118 0.930 . S
H2131 C2119 0.931 . S
H2132 C2125 0.930 . S
H2133 C2147 0.930 . S
H2134 C2126 0.913 1_556 S
H2135 C2153 0.930 1_545 S
H2136 C2144 0.930 1_545 S
H2137 C2151 0.931 . S
H2138 C2115 0.929 . S
H2139 C2145 0.930 . S
H2140 C2178 0.942 . S
H2141 C2122 0.930 . S
H2142 C2177 0.929 . S
N2143 Tb2112 2.660 1_565 S
N2143 C2144 1.305 . S
N2143 C2148 1.360 . S
C2144 H2136 0.930 1_565 S
C2144 N2143 1.305 . S
C2144 C2147 1.407 . S
C2145 H2139 0.930 . S
C2145 C2146 1.410 . S
C2145 C2147 1.345 1_655 S
C2146 C2145 1.410 . S
C2146 C2148 1.417 1_655 S
C2146 C2178 1.443 . S
C2147 H2133 0.930 . S
C2147 C2144 1.407 . S
C2147 C2145 1.345 1_455 S
C2148 N2143 1.360 . S
C2148 C2146 1.417 1_455 S
C2148 C2152 1.432 1_554 S
H2149 C2154 0.930 . S
N2150 Tb2112 2.600 1_566 S
N2150 C2152 1.359 . S
N2150 C2153 1.327 . S
C2151 H2137 0.931 . S
C2151 C2153 1.400 . S
C2151 C2154 1.362 1_455 S
C2152 C2148 1.432 1_556 S
C2152 N2150 1.359 . S
C2152 C2155 1.414 1_455 S
C2153 H2135 0.930 1_565 S
C2153 N2150 1.327 . S
C2153 C2151 1.400 . S
C2154 H2149 0.930 . S
C2154 C2151 1.362 1_655 S
C2154 C2155 1.385 . S
C2155 C2152 1.414 1_655 S
C2155 C2154 1.385 . S
C2155 C2177 1.444 . S
O2156 Tb2112 2.546 1_656 S
O2156 C2176 1.251 . S
O2157 Tb2112 2.610 . S
O2157 Tb2123 2.362 . S
O2157 C2168 1.283 . S
O2158 Tb2123 2.421 . S
O2158 C2175 1.262 . S
O2159 Tb2112 2.320 . S
O2159 C2175 1.260 . S
O2160 Tb2112 2.552 . S
O2160 C2168 1.243 . S
O2161 Tb2112 2.413 1_655 S
O2161 C2176 1.256 1_554 S
O2162 Tb2123 2.546 . S
O2162 C2187 1.251 . S
O2163 Tb2112 2.362 . S
O2163 Tb2123 2.610 . S
O2163 C2179 1.283 . S
O2164 Tb2112 2.421 1_556 S
O2164 C2186 1.262 . S
O2165 Tb2123 2.320 1_556 S
O2165 C2186 1.260 . S
O2166 Tb2123 2.552 . S
O2166 C2179 1.243 . S
O2167 Tb2123 2.413 . S
O2167 C2187 1.256 . S
C2168 O2157 1.283 . S
C2168 O2160 1.243 . S
C2169 C2171 1.382 1_556 S
C2169 C2173 1.393 . S
C2169 C2176 1.500 . S
C2170 C2171 1.412 . S
C2170 C2172 1.340 1_554 S
C2171 C2169 1.382 1_554 S
C2171 C2170 1.412 . S
C2171 H2188 0.930 . S
C2172 C2170 1.340 1_556 S
C2172 C2174 1.392 . S
C2172 H2189 0.931 . S
C2173 C2169 1.393 . S
C2173 C2174 1.401 . S
C2173 H2190 0.930 . S
C2174 C2172 1.392 . S
C2174 C2173 1.401 . S
C2174 H2191 0.930 . S
C2175 O2158 1.262 . S
C2175 O2159 1.260 . S
C2176 Tb2112 2.833 1_656 S
C2176 O2156 1.251 . S
C2176 O2161 1.256 1_556 S
C2176 C2169 1.500 . S
C2177 H2142 0.929 . S
C2177 C2155 1.444 . S
C2177 C2178 1.295 1_556 S
C2178 H2140 0.942 . S
C2178 C2146 1.443 . S
C2178 C2177 1.295 1_554 S
C2179 O2163 1.283 . S
C2179 O2166 1.243 . S
C2180 C2181 1.382 . S
C2180 C2184 1.393 . S
C2180 C2187 1.500 . S
C2181 C2180 1.382 . S
C2181 C2182 1.400 . S
C2181 H2192 0.930 . S
C2182 C2181 1.400 . S
C2182 C2183 1.384 . S
C2183 C2182 1.384 . S
C2183 C2185 1.392 . S
C2183 H2193 0.931 . S
C2184 C2180 1.393 . S
C2184 C2185 1.401 . S
C2184 H2194 0.930 . S
C2185 C2183 1.392 . S
C2185 C2184 1.401 . S
C2185 H2195 0.930 . S
C2186 O2164 1.262 . S
C2186 O2165 1.260 . S
C2187 Tb2123 2.833 . S
C2187 O2162 1.251 . S
C2187 O2167 1.256 . S
C2187 C2180 1.500 . S
H2188 C2171 0.930 . S
H2189 C2172 0.931 . S
H2190 C2173 0.930 . S
H2191 C2174 0.930 . S
H2192 C2181 0.930 . S
H2193 C2183 0.931 . S
H2194 C2184 0.930 . S
H2195 C2185 0.930 . S
Tb2196 N2227 2.660 . S
Tb2196 N2234 2.600 . S
Tb2196 O2240 2.546 . S
Tb2196 O2241 2.610 . S
Tb2196 O2243 2.320 . S
Tb2196 O2244 2.552 . S
Tb2196 O2245 2.413 . S
Tb2196 O2247 2.362 . S
Tb2196 O2248 2.421 . S
Tb2196 C2260 2.833 . S
C2197 C2200 1.432 . S
C2197 C2201 1.414 . S
C2197 N2204 1.359 . S
C2198 C2200 1.417 . S
C2198 C2202 1.432 . S
C2198 C2210 1.410 . S
C2199 C2201 1.444 . S
C2199 C2202 1.317 . S
C2199 H2222 0.929 . S
C2200 C2197 1.432 . S
C2200 C2198 1.417 . S
C2200 N2208 1.360 . S
C2201 C2197 1.414 . S
C2201 C2199 1.444 . S
C2201 C2206 1.385 . S
C2202 C2198 1.432 . S
C2202 C2199 1.317 . S
C2202 H2214 0.930 . S
C2203 C2205 1.392 . S
C2203 C2206 1.370 . S
C2203 H2215 0.931 . S
N2204 C2197 1.359 . S
N2204 C2205 1.327 . S
N2204 Tb2207 2.600 . S
C2205 C2203 1.392 . S
C2205 N2204 1.327 . S
C2205 H2212 0.930 . S
C2206 C2201 1.385 . S
C2206 C2203 1.370 . S
C2206 H2225 0.930 . S
Tb2207 N2204 2.600 . S
Tb2207 N2208 2.660 . S
Tb2207 O2241 2.362 . S
Tb2207 O2242 2.421 . S
Tb2207 O2246 2.546 . S
Tb2207 O2247 2.610 . S
Tb2207 O2249 2.320 . S
Tb2207 O2250 2.552 . S
Tb2207 O2251 2.413 . S
Tb2207 C2271 2.833 . S
N2208 C2200 1.360 . S
N2208 Tb2207 2.660 . S
N2208 C2209 1.305 . S
C2209 N2208 1.305 . S
C2209 C2211 1.407 . S
C2209 H2216 0.930 . S
C2210 C2198 1.410 . S
C2210 C2211 1.345 . S
C2210 H2218 0.930 . S
C2211 C2209 1.407 . S
C2211 C2210 1.345 . S
C2211 H2213 0.930 . S
H2212 C2205 0.930 . S
H2213 C2211 0.930 . S
H2214 C2202 0.930 . S
H2215 C2203 0.931 . S
H2216 C2209 0.930 . S
H2217 C2231 0.930 . S
H2218 C2210 0.930 . S
H2219 C2237 0.930 . S
H2220 C2228 0.930 . S
H2221 C2235 0.931 . S
H2222 C2199 0.929 . S
H2223 C2229 0.930 . S
H2224 C2262 0.930 . S
H2225 C2206 0.930 . S
H2226 C2261 0.929 . S
N2227 Tb2196 2.660 . S
N2227 C2228 1.305 . S
N2227 C2232 1.360 . S
C2228 H2220 0.930 . S
C2228 N2227 1.305 . S
C2228 C2231 1.407 . S
C2229 H2223 0.930 . S
C2229 C2230 1.410 . S
C2229 C2231 1.345 . S
C2230 C2229 1.410 . S
C2230 C2232 1.417 . S
C2230 C2262 1.432 . S
C2231 H2217 0.930 . S
C2231 C2228 1.407 . S
C2231 C2229 1.345 . S
C2232 N2227 1.360 . S
C2232 C2230 1.417 . S
C2232 C2236 1.432 . S
H2233 C2238 0.930 . S
N2234 Tb2196 2.600 . S
N2234 C2236 1.359 . S
N2234 C2237 1.327 . S
C2235 H2221 0.931 . S
C2235 C2237 1.392 . S
C2235 C2238 1.370 . S
C2236 C2232 1.432 . S
C2236 N2234 1.359 . S
C2236 C2239 1.414 . S
C2237 H2219 0.930 . S
C2237 N2234 1.327 . S
C2237 C2235 1.392 . S
C2238 H2233 0.930 . S
C2238 C2235 1.370 . S
C2238 C2239 1.385 . S
C2239 C2236 1.414 . S
C2239 C2238 1.385 . S
C2239 C2261 1.444 . S
O2240 Tb2196 2.546 . S
O2240 C2260 1.251 . S
O2241 Tb2196 2.610 . S
O2241 Tb2207 2.362 . S
O2241 C2252 1.283 . S
O2242 Tb2207 2.421 . S
O2242 C2259 1.262 . S
O2243 Tb2196 2.320 . S
O2243 C2259 1.260 . S
O2244 Tb2196 2.552 . S
O2244 C2252 1.243 . S
O2245 Tb2196 2.413 . S
O2245 C2260 1.256 . S
O2246 Tb2207 2.546 . S
O2246 C2271 1.251 . S
O2247 Tb2196 2.362 . S
O2247 Tb2207 2.610 . S
O2247 C2263 1.283 . S
O2248 Tb2196 2.421 . S
O2248 C2270 1.262 . S
O2249 Tb2207 2.320 . S
O2249 C2270 1.260 . S
O2250 Tb2207 2.552 . S
O2250 C2263 1.243 . S
O2251 Tb2207 2.413 . S
O2251 C2271 1.256 . S
C2252 O2241 1.283 . S
C2252 O2244 1.243 . S
C2253 C2255 1.382 . S
C2253 C2257 1.393 . S
C2253 C2260 1.500 . S
C2254 C2255 1.400 . S
C2254 C2256 1.384 . S
C2255 C2253 1.382 . S
C2255 C2254 1.400 . S
C2255 H2272 0.930 . S
C2256 C2254 1.384 . S
C2256 C2258 1.392 . S
C2256 H2273 0.931 . S
C2257 C2253 1.393 . S
C2257 C2258 1.401 . S
C2257 H2274 0.930 . S
C2258 C2256 1.392 . S
C2258 C2257 1.401 . S
C2258 H2275 0.930 . S
C2259 O2242 1.262 . S
C2259 O2243 1.260 . S
C2260 Tb2196 2.833 . S
C2260 O2240 1.251 . S
C2260 O2245 1.256 . S
C2260 C2253 1.500 . S
C2261 H2226 0.929 . S
C2261 C2239 1.444 . S
C2261 C2262 1.317 . S
C2262 H2224 0.930 . S
C2262 C2230 1.432 . S
C2262 C2261 1.317 . S
C2263 O2247 1.283 . S
C2263 O2250 1.243 . S
C2264 C2265 1.382 . S
C2264 C2268 1.393 . S
C2264 C2271 1.500 . S
C2265 C2264 1.382 . S
C2265 C2266 1.400 . S
C2265 H2276 0.930 . S
C2266 C2265 1.400 . S
C2266 C2267 1.384 . S
C2267 C2266 1.384 . S
C2267 C2269 1.392 . S
C2267 H2277 0.931 . S
C2268 C2264 1.393 . S
C2268 C2269 1.401 . S
C2268 H2278 0.930 . S
C2269 C2267 1.392 . S
C2269 C2268 1.401 . S
C2269 H2279 0.930 . S
C2270 O2248 1.262 . S
C2270 O2249 1.260 . S
C2271 Tb2207 2.833 . S
C2271 O2246 1.251 . S
C2271 O2251 1.256 . S
C2271 C2264 1.500 . S
H2272 C2255 0.930 . S
H2273 C2256 0.931 . S
H2274 C2257 0.930 . S
H2275 C2258 0.930 . S
H2276 C2265 0.930 . S
H2277 C2267 0.931 . S
H2278 C2268 0.930 . S
H2279 C2269 0.930 . S
Tb2280 N2311 2.660 . S
Tb2280 N2318 2.600 . S
Tb2280 O2324 2.546 . S
Tb2280 O2325 2.610 . S
Tb2280 O2327 2.320 . S
Tb2280 O2328 2.552 1_545 S
Tb2280 O2329 2.413 . S
Tb2280 O2331 2.362 . S
Tb2280 O2332 2.421 . S
Tb2280 C2344 2.833 . S
C2281 C2284 1.432 . S
C2281 C2285 1.414 . S
C2281 N2288 1.359 1_565 S
C2282 C2284 1.417 . S
C2282 C2286 1.432 . S
C2282 C2294 1.410 . S
C2283 C2285 1.444 . S
C2283 C2286 1.317 . S
C2283 H2306 0.929 . S
C2284 C2281 1.432 . S
C2284 C2282 1.417 . S
C2284 N2292 1.352 1_565 S
C2285 C2281 1.414 . S
C2285 C2283 1.444 . S
C2285 C2290 1.385 . S
C2286 C2282 1.432 . S
C2286 C2283 1.317 . S
C2286 H2298 0.930 . S
C2287 C2289 1.392 . S
C2287 C2290 1.370 1_545 S
C2287 H2299 0.931 . S
N2288 C2281 1.359 1_545 S
N2288 C2289 1.327 . S
N2288 Tb2291 2.600 . S
C2289 C2287 1.392 . S
C2289 N2288 1.327 . S
C2289 H2296 0.930 . S
C2290 C2285 1.385 . S
C2290 C2287 1.370 1_565 S
C2290 H2309 0.930 . S
Tb2291 N2288 2.600 . S
Tb2291 N2292 2.668 . S
Tb2291 O2325 2.362 . S
Tb2291 O2326 2.421 . S
Tb2291 O2330 2.546 . S
Tb2291 O2331 2.610 . S
Tb2291 O2333 2.320 . S
Tb2291 O2334 2.552 . S
Tb2291 O2335 2.413 . S
Tb2291 C2355 2.833 . S
N2292 C2284 1.352 1_545 S
N2292 Tb2291 2.668 . S
N2292 C2293 1.303 1_545 S
C2293 N2292 1.303 1_565 S
C2293 C2295 1.407 . S
C2293 H2300 0.930 1_565 S
C2294 C2282 1.410 . S
C2294 C2295 1.345 . S
C2294 H2302 0.930 . S
C2295 C2293 1.407 . S
C2295 C2294 1.345 . S
C2295 H2297 0.930 . S
H2296 C2289 0.930 . S
H2297 C2295 0.930 . S
H2298 C2286 0.930 . S
H2299 C2287 0.931 . S
H2300 C2293 0.930 1_545 S
H2301 C2315 0.930 . S
H2302 C2294 0.930 . S
H2303 C2321 0.930 . S
H2304 C2312 0.930 . S
H2305 C2319 0.931 . S
H2306 C2283 0.929 . S
H2307 C2313 0.930 . S
H2308 C2346 0.930 . S
H2309 C2290 0.930 . S
H2310 C2345 0.929 . S
N2311 Tb2280 2.660 . S
N2311 C2312 1.305 . S
N2311 C2316 1.360 . S
C2312 H2304 0.930 . S
C2312 N2311 1.305 . S
C2312 C2315 1.407 . S
C2313 H2307 0.930 . S
C2313 C2314 1.410 . S
C2313 C2315 1.345 . S
C2314 C2313 1.410 . S
C2314 C2316 1.417 . S
C2314 C2346 1.432 . S
C2315 H2301 0.930 . S
C2315 C2312 1.407 . S
C2315 C2313 1.345 . S
C2316 N2311 1.360 . S
C2316 C2314 1.417 . S
C2316 C2320 1.432 . S
H2317 C2322 0.930 . S
N2318 Tb2280 2.600 . S
N2318 C2320 1.359 . S
N2318 C2321 1.327 . S
C2319 H2305 0.931 . S
C2319 C2321 1.392 . S
C2319 C2322 1.370 . S
C2320 C2316 1.432 . S
C2320 N2318 1.359 . S
C2320 C2323 1.414 . S
C2321 H2303 0.930 . S
C2321 N2318 1.327 . S
C2321 C2319 1.392 . S
C2322 H2317 0.930 . S
C2322 C2319 1.370 . S
C2322 C2323 1.385 . S
C2323 C2320 1.414 . S
C2323 C2322 1.385 . S
C2323 C2345 1.444 . S
O2324 Tb2280 2.546 . S
O2324 C2344 1.251 . S
O2325 Tb2280 2.610 . S
O2325 Tb2291 2.362 . S
O2325 C2336 1.283 1_545 S
O2326 Tb2291 2.421 . S
O2326 C2343 1.262 . S
O2327 Tb2280 2.320 . S
O2327 C2343 1.260 . S
O2328 Tb2280 2.552 1_565 S
O2328 C2336 1.243 . S
O2329 Tb2280 2.413 . S
O2329 C2344 1.256 . S
O2330 Tb2291 2.546 . S
O2330 C2355 1.251 . S
O2331 Tb2280 2.362 . S
O2331 Tb2291 2.610 . S
O2331 C2347 1.283 . S
O2332 Tb2280 2.421 . S
O2332 C2354 1.262 . S
O2333 Tb2291 2.320 . S
O2333 C2354 1.260 . S
O2334 Tb2291 2.552 . S
O2334 C2347 1.243 . S
O2335 Tb2291 2.413 . S
O2335 C2355 1.256 . S
C2336 O2325 1.283 1_565 S
C2336 O2328 1.243 . S
C2337 C2339 1.382 . S
C2337 C2341 1.393 . S
C2337 C2344 1.500 . S
C2338 C2339 1.400 1_565 S
C2338 C2340 1.384 . S
C2339 C2337 1.382 . S
C2339 C2338 1.400 1_545 S
C2339 H2356 0.930 . S
C2340 C2338 1.384 . S
C2340 C2342 1.392 1_565 S
C2340 H2357 0.931 . S
C2341 C2337 1.393 . S
C2341 C2342 1.401 . S
C2341 H2358 0.930 . S
C2342 C2340 1.392 1_545 S
C2342 C2341 1.401 . S
C2342 H2359 0.930 . S
C2343 O2326 1.262 . S
C2343 O2327 1.260 . S
C2344 Tb2280 2.833 . S
C2344 O2324 1.251 . S
C2344 O2329 1.256 . S
C2344 C2337 1.500 . S
C2345 H2310 0.929 . S
C2345 C2323 1.444 . S
C2345 C2346 1.317 . S
C2346 H2308 0.930 . S
C2346 C2314 1.432 . S
C2346 C2345 1.317 . S
C2347 O2331 1.283 . S
C2347 O2334 1.243 . S
C2348 C2349 1.382 . S
C2348 C2352 1.393 . S
C2348 C2355 1.500 . S
C2349 C2348 1.382 . S
C2349 C2350 1.400 . S
C2349 H2360 0.930 . S
C2350 C2349 1.400 . S
C2350 C2351 1.384 . S
C2351 C2350 1.384 . S
C2351 C2353 1.392 . S
C2351 H2361 0.931 . S
C2352 C2348 1.393 . S
C2352 C2353 1.401 . S
C2352 H2362 0.930 . S
C2353 C2351 1.392 . S
C2353 C2352 1.401 . S
C2353 H2363 0.930 . S
C2354 O2332 1.262 . S
C2354 O2333 1.260 . S
C2355 Tb2291 2.833 . S
C2355 O2330 1.251 . S
C2355 O2335 1.256 . S
C2355 C2348 1.500 . S
H2356 C2339 0.930 . S
H2357 C2340 0.931 . S
H2358 C2341 0.930 . S
H2359 C2342 0.930 . S
H2360 C2349 0.930 . S
H2361 C2351 0.931 . S
H2362 C2352 0.930 . S
H2363 C2353 0.930 . S
Tb2364 N2395 2.660 . S
Tb2364 N2402 2.600 . S
Tb2364 O2408 2.546 . S
Tb2364 O2409 2.610 . S
Tb2364 O2411 2.320 . S
Tb2364 O2412 2.552 . S
Tb2364 O2413 2.413 . S
Tb2364 O2415 2.362 . S
Tb2364 O2416 2.421 . S
Tb2364 C2428 2.833 . S
C2365 C2368 1.432 . S
C2365 C2369 1.414 . S
C2365 N2372 1.359 . S
C2366 C2368 1.417 . S
C2366 C2370 1.432 . S
C2366 C2378 1.410 . S
C2367 C2369 1.444 . S
C2367 C2370 1.317 . S
C2367 H2390 0.929 . S
C2368 C2365 1.432 . S
C2368 C2366 1.417 . S
C2368 N2376 1.360 . S
C2369 C2365 1.414 . S
C2369 C2367 1.444 . S
C2369 C2374 1.385 . S
C2370 C2366 1.432 . S
C2370 C2367 1.317 . S
C2370 H2382 0.930 . S
C2371 C2373 1.392 . S
C2371 C2374 1.370 . S
C2371 H2383 0.931 . S
N2372 C2365 1.359 . S
N2372 C2373 1.327 . S
N2372 Tb2375 2.600 . S
C2373 C2371 1.392 . S
C2373 N2372 1.327 . S
C2373 H2380 0.930 . S
C2374 C2369 1.385 . S
C2374 C2371 1.370 . S
C2374 H2393 0.930 . S
Tb2375 N2372 2.600 . S
Tb2375 N2376 2.660 . S
Tb2375 O2409 2.362 . S
Tb2375 O2410 2.421 . S
Tb2375 O2414 2.546 . S
Tb2375 O2415 2.610 . S
Tb2375 O2417 2.320 . S
Tb2375 O2418 2.552 . S
Tb2375 O2419 2.413 . S
Tb2375 C2439 2.833 . S
N2376 C2368 1.360 . S
N2376 Tb2375 2.660 . S
N2376 C2377 1.305 . S
C2377 N2376 1.305 . S
C2377 C2379 1.407 . S
C2377 H2384 0.930 . S
C2378 C2366 1.410 . S
C2378 C2379 1.345 . S
C2378 H2386 0.930 . S
C2379 C2377 1.407 . S
C2379 C2378 1.345 . S
C2379 H2381 0.930 . S
H2380 C2373 0.930 . S
H2381 C2379 0.930 . S
H2382 C2370 0.930 . S
H2383 C2371 0.931 . S
H2384 C2377 0.930 . S
H2385 C2399 0.930 . S
H2386 C2378 0.930 . S
H2387 C2405 0.930 . S
H2388 C2396 0.930 . S
H2389 C2403 0.931 . S
H2390 C2367 0.929 . S
H2391 C2397 0.930 . S
H2392 C2430 0.930 . S
H2393 C2374 0.930 . S
H2394 C2429 0.929 . S
N2395 Tb2364 2.660 . S
N2395 C2396 1.305 . S
N2395 C2400 1.360 . S
C2396 H2388 0.930 . S
C2396 N2395 1.305 . S
C2396 C2399 1.407 . S
C2397 H2391 0.930 . S
C2397 C2398 1.410 . S
C2397 C2399 1.345 . S
C2398 C2397 1.410 . S
C2398 C2400 1.417 . S
C2398 C2430 1.432 . S
C2399 H2385 0.930 . S
C2399 C2396 1.407 . S
C2399 C2397 1.345 . S
C2400 N2395 1.360 . S
C2400 C2398 1.417 . S
C2400 C2404 1.432 . S
H2401 C2406 0.930 . S
N2402 Tb2364 2.600 . S
N2402 C2404 1.359 . S
N2402 C2405 1.327 . S
C2403 H2389 0.931 . S
C2403 C2405 1.392 . S
C2403 C2406 1.370 . S
C2404 C2400 1.432 . S
C2404 N2402 1.359 . S
C2404 C2407 1.414 . S
C2405 H2387 0.930 . S
C2405 N2402 1.327 . S
C2405 C2403 1.392 . S
C2406 H2401 0.930 . S
C2406 C2403 1.370 . S
C2406 C2407 1.385 . S
C2407 C2404 1.414 . S
C2407 C2406 1.385 . S
C2407 C2429 1.444 . S
O2408 Tb2364 2.546 . S
O2408 C2428 1.251 . S
O2409 Tb2364 2.610 . S
O2409 Tb2375 2.362 . S
O2409 C2420 1.283 . S
O2410 Tb2375 2.421 . S
O2410 C2427 1.262 . S
O2411 Tb2364 2.320 . S
O2411 C2427 1.260 . S
O2412 Tb2364 2.552 . S
O2412 C2420 1.243 . S
O2413 Tb2364 2.413 . S
O2413 C2428 1.256 . S
O2414 Tb2375 2.546 . S
O2414 C2439 1.251 . S
O2415 Tb2364 2.362 . S
O2415 Tb2375 2.610 . S
O2415 C2431 1.283 . S
O2416 Tb2364 2.421 . S
O2416 C2438 1.262 . S
O2417 Tb2375 2.320 . S
O2417 C2438 1.260 . S
O2418 Tb2375 2.552 . S
O2418 C2431 1.243 . S
O2419 Tb2375 2.413 . S
O2419 C2439 1.256 . S
C2420 O2409 1.283 . S
C2420 O2412 1.243 . S
C2421 C2423 1.382 . S
C2421 C2425 1.393 . S
C2421 C2428 1.500 . S
C2422 C2423 1.400 . S
C2422 C2424 1.384 . S
C2423 C2421 1.382 . S
C2423 C2422 1.400 . S
C2423 H2440 0.930 . S
C2424 C2422 1.384 . S
C2424 C2426 1.392 . S
C2424 H2441 0.931 . S
C2425 C2421 1.393 . S
C2425 C2426 1.401 . S
C2425 H2442 0.930 . S
C2426 C2424 1.392 . S
C2426 C2425 1.401 . S
C2426 H2443 0.930 . S
C2427 O2410 1.262 . S
C2427 O2411 1.260 . S
C2428 Tb2364 2.833 . S
C2428 O2408 1.251 . S
C2428 O2413 1.256 . S
C2428 C2421 1.500 . S
C2429 H2394 0.929 . S
C2429 C2407 1.444 . S
C2429 C2430 1.317 . S
C2430 H2392 0.930 . S
C2430 C2398 1.432 . S
C2430 C2429 1.317 . S
C2431 O2415 1.283 . S
C2431 O2418 1.243 . S
C2432 C2433 1.382 . S
C2432 C2436 1.393 . S
C2432 C2439 1.500 . S
C2433 C2432 1.382 . S
C2433 C2434 1.400 . S
C2433 H2444 0.930 . S
C2434 C2433 1.400 . S
C2434 C2435 1.384 . S
C2435 C2434 1.384 . S
C2435 C2437 1.392 . S
C2435 H2445 0.931 . S
C2436 C2432 1.393 . S
C2436 C2437 1.401 . S
C2436 H2446 0.930 . S
C2437 C2435 1.392 . S
C2437 C2436 1.401 . S
C2437 H2447 0.930 . S
C2438 O2416 1.262 . S
C2438 O2417 1.260 . S
C2439 Tb2375 2.833 . S
C2439 O2414 1.251 . S
C2439 O2419 1.256 . S
C2439 C2432 1.500 . S
H2440 C2423 0.930 . S
H2441 C2424 0.931 . S
H2442 C2425 0.930 . S
H2443 C2426 0.930 . S
H2444 C2433 0.930 . S
H2445 C2435 0.931 . S
H2446 C2436 0.930 . S
H2447 C2437 0.930 . S
Tb2448 N2479 2.660 . S
Tb2448 N2486 2.600 . S
Tb2448 O2492 2.546 . S
Tb2448 O2493 2.610 . S
Tb2448 O2495 2.320 . S
Tb2448 O2496 2.552 . S
Tb2448 O2497 2.413 . S
Tb2448 O2499 2.362 . S
Tb2448 O2500 2.421 . S
Tb2448 C2512 2.833 . S
C2449 C2452 1.432 . S
C2449 C2453 1.414 . S
C2449 N2456 1.359 . S
C2450 C2452 1.417 . S
C2450 C2454 1.432 . S
C2450 C2462 1.410 . S
C2451 C2453 1.444 . S
C2451 C2454 1.317 . S
C2451 H2474 0.929 . S
C2452 C2449 1.432 . S
C2452 C2450 1.417 . S
C2452 N2460 1.360 . S
C2453 C2449 1.414 . S
C2453 C2451 1.444 . S
C2453 C2458 1.385 . S
C2454 C2450 1.432 . S
C2454 C2451 1.317 . S
C2454 H2466 0.930 . S
C2455 C2457 1.415 . S
C2455 C2458 1.370 . S
C2455 H2467 0.931 . S
N2456 C2449 1.359 . S
N2456 C2457 1.321 . S
N2456 Tb2459 2.600 1_565 S
C2457 C2455 1.415 . S
C2457 N2456 1.321 . S
C2457 H2464 0.916 1_565 S
C2458 C2453 1.385 . S
C2458 C2455 1.370 . S
C2458 H2477 0.930 . S
Tb2459 N2456 2.600 1_545 S
Tb2459 N2460 2.660 1_545 S
Tb2459 O2493 2.362 . S
Tb2459 O2494 2.421 . S
Tb2459 O2498 2.546 1_545 S
Tb2459 O2499 2.610 . S
Tb2459 O2501 2.320 . S
Tb2459 O2502 2.552 . S
Tb2459 O2503 2.413 1_545 S
Tb2459 C2523 2.833 1_545 S
N2460 C2452 1.360 . S
N2460 Tb2459 2.660 1_565 S
N2460 C2461 1.305 . S
C2461 N2460 1.305 . S
C2461 C2463 1.407 . S
C2461 H2468 0.930 . S
C2462 C2450 1.410 . S
C2462 C2463 1.345 . S
C2462 H2470 0.930 . S
C2463 C2461 1.407 . S
C2463 C2462 1.345 . S
C2463 H2465 0.930 1_455 S
H2464 C2457 0.916 1_545 S
H2465 C2463 0.930 1_655 S
H2466 C2454 0.930 . S
H2467 C2455 0.931 . S
H2468 C2461 0.930 . S
H2469 C2483 0.930 . S
H2470 C2462 0.930 . S
H2471 C2489 0.930 . S
H2472 C2480 0.930 . S
H2473 C2487 0.931 1_655 S
H2474 C2451 0.929 . S
H2475 C2481 0.930 . S
H2476 C2514 0.930 . S
H2477 C2458 0.930 . S
H2478 C2513 0.929 . S
N2479 Tb2448 2.660 . S
N2479 C2480 1.305 . S
N2479 C2484 1.360 . S
C2480 H2472 0.930 . S
C2480 N2479 1.305 . S
C2480 C2483 1.407 . S
C2481 H2475 0.930 . S
C2481 C2482 1.410 . S
C2481 C2483 1.345 . S
C2482 C2481 1.410 . S
C2482 C2484 1.417 . S
C2482 C2514 1.432 . S
C2483 H2469 0.930 . S
C2483 C2480 1.407 . S
C2483 C2481 1.345 . S
C2484 N2479 1.360 . S
C2484 C2482 1.417 . S
C2484 C2488 1.432 . S
H2485 C2490 0.930 . S
N2486 Tb2448 2.600 . S
N2486 C2488 1.359 . S
N2486 C2489 1.327 . S
C2487 H2473 0.931 1_455 S
C2487 C2489 1.392 . S
C2487 C2490 1.370 . S
C2488 C2484 1.432 . S
C2488 N2486 1.359 . S
C2488 C2491 1.414 . S
C2489 H2471 0.930 . S
C2489 N2486 1.327 . S
C2489 C2487 1.392 . S
C2490 H2485 0.930 . S
C2490 C2487 1.370 . S
C2490 C2491 1.385 . S
C2491 C2488 1.414 . S
C2491 C2490 1.385 . S
C2491 C2513 1.444 . S
O2492 Tb2448 2.546 . S
O2492 C2512 1.251 . S
O2493 Tb2448 2.610 . S
O2493 Tb2459 2.362 . S
O2493 C2504 1.283 . S
O2494 Tb2459 2.421 . S
O2494 C2511 1.262 . S
O2495 Tb2448 2.320 . S
O2495 C2511 1.260 . S
O2496 Tb2448 2.552 . S
O2496 C2504 1.243 . S
O2497 Tb2448 2.413 . S
O2497 C2512 1.256 . S
O2498 Tb2459 2.546 1_565 S
O2498 C2523 1.251 . S
O2499 Tb2448 2.362 . S
O2499 Tb2459 2.610 . S
O2499 C2515 1.283 . S
O2500 Tb2448 2.421 . S
O2500 C2522 1.262 . S
O2501 Tb2459 2.320 . S
O2501 C2522 1.260 . S
O2502 Tb2459 2.552 . S
O2502 C2515 1.243 . S
O2503 Tb2459 2.413 1_565 S
O2503 C2523 1.256 . S
C2504 O2493 1.283 . S
C2504 O2496 1.243 . S
C2505 C2507 1.382 . S
C2505 C2509 1.393 . S
C2505 C2512 1.500 . S
C2506 C2507 1.400 . S
C2506 C2508 1.384 . S
C2507 C2505 1.382 . S
C2507 C2506 1.400 . S
C2507 H2524 0.930 . S
C2508 C2506 1.384 . S
C2508 C2510 1.392 . S
C2508 H2525 0.931 . S
C2509 C2505 1.393 . S
C2509 C2510 1.401 . S
C2509 H2526 0.930 . S
C2510 C2508 1.392 . S
C2510 C2509 1.401 . S
C2510 H2527 0.930 . S
C2511 O2494 1.262 . S
C2511 O2495 1.260 . S
C2512 Tb2448 2.833 . S
C2512 O2492 1.251 . S
C2512 O2497 1.256 . S
C2512 C2505 1.500 . S
C2513 H2478 0.929 . S
C2513 C2491 1.444 . S
C2513 C2514 1.317 . S
C2514 H2476 0.930 . S
C2514 C2482 1.432 . S
C2514 C2513 1.317 . S
C2515 O2499 1.283 . S
C2515 O2502 1.243 . S
C2516 C2517 1.382 . S
C2516 C2520 1.393 . S
C2516 C2523 1.500 . S
C2517 C2516 1.382 . S
C2517 C2518 1.400 . S
C2517 H2528 0.930 . S
C2518 C2517 1.400 . S
C2518 C2519 1.384 . S
C2519 C2518 1.384 . S
C2519 C2521 1.392 . S
C2519 H2529 0.931 . S
C2520 C2516 1.393 . S
C2520 C2521 1.401 . S
C2520 H2530 0.930 . S
C2521 C2519 1.392 . S
C2521 C2520 1.401 . S
C2521 H2531 0.930 . S
C2522 O2500 1.262 . S
C2522 O2501 1.260 . S
C2523 Tb2459 2.833 1_565 S
C2523 O2498 1.251 . S
C2523 O2503 1.256 . S
C2523 C2516 1.500 . S
H2524 C2507 0.930 . S
H2525 C2508 0.931 . S
H2526 C2509 0.930 . S
H2527 C2510 0.930 . S
H2528 C2517 0.930 . S
H2529 C2519 0.931 . S
H2530 C2520 0.930 . S
H2531 C2521 0.930 . S
Tb2532 N2563 2.660 . S
Tb2532 N2570 2.600 . S
Tb2532 O2576 2.546 . S
Tb2532 O2577 2.610 . S
Tb2532 O2579 2.320 . S
Tb2532 O2580 2.552 . S
Tb2532 O2581 2.413 . S
Tb2532 O2583 2.362 . S
Tb2532 O2584 2.421 . S
Tb2532 C2596 2.833 . S
C2533 C2536 1.432 . S
C2533 C2537 1.414 . S
C2533 N2540 1.359 . S
C2534 C2536 1.417 . S
C2534 C2538 1.432 . S
C2534 C2546 1.410 . S
C2535 C2537 1.444 . S
C2535 C2538 1.317 . S
C2535 H2558 0.929 . S
C2536 C2533 1.432 . S
C2536 C2534 1.417 . S
C2536 N2544 1.360 . S
C2537 C2533 1.414 . S
C2537 C2535 1.444 . S
C2537 C2542 1.385 . S
C2538 C2534 1.432 . S
C2538 C2535 1.317 . S
C2538 H2550 0.930 . S
C2539 C2541 1.392 . S
C2539 C2542 1.370 . S
C2539 H2551 0.931 . S
N2540 C2533 1.359 . S
N2540 C2541 1.327 . S
N2540 Tb2543 2.600 . S
C2541 C2539 1.392 . S
C2541 N2540 1.327 . S
C2541 H2548 0.930 . S
C2542 C2537 1.385 . S
C2542 C2539 1.370 . S
C2542 H2561 0.930 . S
Tb2543 N2540 2.600 . S
Tb2543 N2544 2.660 . S
Tb2543 O2577 2.362 . S
Tb2543 O2578 2.421 . S
Tb2543 O2582 2.546 . S
Tb2543 O2583 2.610 . S
Tb2543 O2585 2.320 . S
Tb2543 O2586 2.552 . S
Tb2543 O2587 2.413 . S
Tb2543 C2607 2.833 . S
N2544 C2536 1.360 . S
N2544 Tb2543 2.660 . S
N2544 C2545 1.305 . S
C2545 N2544 1.305 . S
C2545 C2547 1.407 . S
C2545 H2552 0.930 . S
C2546 C2534 1.410 . S
C2546 C2547 1.345 . S
C2546 H2554 0.930 . S
C2547 C2545 1.407 . S
C2547 C2546 1.345 . S
C2547 H2549 0.930 . S
H2548 C2541 0.930 . S
H2549 C2547 0.930 . S
H2550 C2538 0.930 . S
H2551 C2539 0.931 . S
H2552 C2545 0.930 . S
H2553 C2567 0.930 . S
H2554 C2546 0.930 . S
H2555 C2573 0.930 . S
H2556 C2564 0.930 . S
H2557 C2571 0.931 . S
H2558 C2535 0.929 . S
H2559 C2565 0.930 . S
H2560 C2598 0.930 . S
H2561 C2542 0.930 . S
H2562 C2597 0.929 . S
N2563 Tb2532 2.660 . S
N2563 C2564 1.305 . S
N2563 C2568 1.360 . S
C2564 H2556 0.930 . S
C2564 N2563 1.305 . S
C2564 C2567 1.407 . S
C2565 H2559 0.930 . S
C2565 C2566 1.410 . S
C2565 C2567 1.345 . S
C2566 C2565 1.410 . S
C2566 C2568 1.417 . S
C2566 C2598 1.432 . S
C2567 H2553 0.930 . S
C2567 C2564 1.407 . S
C2567 C2565 1.345 . S
C2568 N2563 1.360 . S
C2568 C2566 1.417 . S
C2568 C2572 1.432 . S
H2569 C2574 0.930 . S
N2570 Tb2532 2.600 . S
N2570 C2572 1.359 . S
N2570 C2573 1.327 . S
C2571 H2557 0.931 . S
C2571 C2573 1.392 . S
C2571 C2574 1.370 . S
C2572 C2568 1.432 . S
C2572 N2570 1.359 . S
C2572 C2575 1.414 . S
C2573 H2555 0.930 . S
C2573 N2570 1.327 . S
C2573 C2571 1.392 . S
C2574 H2569 0.930 . S
C2574 C2571 1.370 . S
C2574 C2575 1.385 . S
C2575 C2572 1.414 . S
C2575 C2574 1.385 . S
C2575 C2597 1.444 . S
O2576 Tb2532 2.546 . S
O2576 C2596 1.251 . S
O2577 Tb2532 2.610 . S
O2577 Tb2543 2.362 . S
O2577 C2588 1.283 . S
O2578 Tb2543 2.421 . S
O2578 C2595 1.262 . S
O2579 Tb2532 2.320 . S
O2579 C2595 1.260 . S
O2580 Tb2532 2.552 . S
O2580 C2588 1.243 . S
O2581 Tb2532 2.413 . S
O2581 C2596 1.256 . S
O2582 Tb2543 2.546 . S
O2582 C2607 1.251 . S
O2583 Tb2532 2.362 . S
O2583 Tb2543 2.610 . S
O2583 C2599 1.283 . S
O2584 Tb2532 2.421 . S
O2584 C2606 1.262 . S
O2585 Tb2543 2.320 . S
O2585 C2606 1.260 . S
O2586 Tb2543 2.552 . S
O2586 C2599 1.243 . S
O2587 Tb2543 2.413 . S
O2587 C2607 1.256 . S
C2588 O2577 1.283 . S
C2588 O2580 1.243 . S
C2589 C2591 1.382 . S
C2589 C2593 1.393 . S
C2589 C2596 1.500 . S
C2590 C2591 1.400 . S
C2590 C2592 1.384 . S
C2591 C2589 1.382 . S
C2591 C2590 1.400 . S
C2591 H2608 0.930 . S
C2592 C2590 1.384 . S
C2592 C2594 1.392 . S
C2592 H2609 0.931 . S
C2593 C2589 1.393 . S
C2593 C2594 1.401 . S
C2593 H2610 0.930 . S
C2594 C2592 1.392 . S
C2594 C2593 1.401 . S
C2594 H2611 0.930 . S
C2595 O2578 1.262 . S
C2595 O2579 1.260 . S
C2596 Tb2532 2.833 . S
C2596 O2576 1.251 . S
C2596 O2581 1.256 . S
C2596 C2589 1.500 . S
C2597 H2562 0.929 . S
C2597 C2575 1.444 . S
C2597 C2598 1.317 . S
C2598 H2560 0.930 . S
C2598 C2566 1.432 . S
C2598 C2597 1.317 . S
C2599 O2583 1.283 . S
C2599 O2586 1.243 . S
C2600 C2601 1.382 . S
C2600 C2604 1.393 . S
C2600 C2607 1.500 . S
C2601 C2600 1.382 . S
C2601 C2602 1.400 . S
C2601 H2612 0.930 . S
C2602 C2601 1.400 . S
C2602 C2603 1.384 . S
C2603 C2602 1.384 . S
C2603 C2605 1.392 . S
C2603 H2613 0.931 . S
C2604 C2600 1.393 . S
C2604 C2605 1.401 . S
C2604 H2614 0.930 . S
C2605 C2603 1.392 . S
C2605 C2604 1.401 . S
C2605 H2615 0.930 . S
C2606 O2584 1.262 . S
C2606 O2585 1.260 . S
C2607 Tb2543 2.833 . S
C2607 O2582 1.251 . S
C2607 O2587 1.256 . S
C2607 C2600 1.500 . S
H2608 C2591 0.930 . S
H2609 C2592 0.931 . S
H2610 C2593 0.930 . S
H2611 C2594 0.930 . S
H2612 C2601 0.930 . S
H2613 C2603 0.931 . S
H2614 C2604 0.930 . S
H2615 C2605 0.930 . S
Tb2616 N2647 2.660 . S
Tb2616 N2654 2.600 . S
Tb2616 O2660 2.546 . S
Tb2616 O2661 2.610 . S
Tb2616 O2663 2.320 . S
Tb2616 O2664 2.552 . S
Tb2616 O2665 2.413 . S
Tb2616 O2667 2.362 . S
Tb2616 O2668 2.435 . S
Tb2616 C2680 2.833 . S
C2617 C2620 1.432 . S
C2617 C2621 1.414 . S
C2617 N2624 1.359 . S
C2618 C2620 1.417 . S
C2618 C2622 1.432 . S
C2618 C2630 1.410 1_545 S
C2619 C2621 1.444 . S
C2619 C2622 1.317 . S
C2619 H2642 0.929 . S
C2620 C2617 1.432 . S
C2620 C2618 1.417 . S
C2620 N2628 1.360 . S
C2621 C2617 1.414 . S
C2621 C2619 1.444 . S
C2621 C2626 1.385 . S
C2622 C2618 1.432 . S
C2622 C2619 1.317 . S
C2622 H2634 0.930 . S
C2623 C2625 1.392 . S
C2623 C2626 1.370 . S
C2623 H2635 0.931 . S
N2624 C2617 1.359 . S
N2624 C2625 1.327 . S
N2624 Tb2627 2.600 . S
C2625 C2623 1.392 . S
C2625 N2624 1.327 . S
C2625 H2632 0.930 . S
C2626 C2621 1.385 . S
C2626 C2623 1.370 . S
C2626 H2645 0.930 . S
Tb2627 N2624 2.600 . S
Tb2627 N2628 2.660 . S
Tb2627 O2661 2.362 1_556 S
Tb2627 O2662 2.421 1_556 S
Tb2627 O2666 2.546 . S
Tb2627 O2667 2.610 1_556 S
Tb2627 O2669 2.320 . S
Tb2627 O2670 2.552 . S
Tb2627 O2671 2.413 . S
Tb2627 C2691 2.833 . S
N2628 C2620 1.360 . S
N2628 Tb2627 2.660 . S
N2628 C2629 1.296 1_545 S
C2629 N2628 1.296 1_565 S
C2629 C2631 1.411 . S
C2629 H2636 0.936 . S
C2630 C2618 1.410 1_565 S
C2630 C2631 1.345 . S
C2630 H2638 0.930 . S
C2631 C2629 1.411 . S
C2631 C2630 1.345 . S
C2631 H2633 0.930 . S
H2632 C2625 0.930 . S
H2633 C2631 0.930 . S
H2634 C2622 0.930 . S
H2635 C2623 0.931 . S
H2636 C2629 0.936 . S
H2637 C2651 0.930 . S
H2638 C2630 0.930 . S
H2639 C2657 0.930 . S
H2640 C2648 0.930 . S
H2641 C2655 0.931 . S
H2642 C2619 0.929 . S
H2643 C2649 0.930 . S
H2644 C2682 0.930 . S
H2645 C2626 0.930 . S
H2646 C2681 0.929 . S
N2647 Tb2616 2.660 . S
N2647 C2648 1.305 . S
N2647 C2652 1.360 . S
C2648 H2640 0.930 . S
C2648 N2647 1.305 . S
C2648 C2651 1.407 . S
C2649 H2643 0.930 . S
C2649 C2650 1.410 . S
C2649 C2651 1.345 . S
C2650 C2649 1.410 . S
C2650 C2652 1.417 . S
C2650 C2682 1.432 . S
C2651 H2637 0.930 . S
C2651 C2648 1.407 . S
C2651 C2649 1.345 . S
C2652 N2647 1.360 . S
C2652 C2650 1.417 . S
C2652 C2656 1.432 . S
H2653 C2658 0.930 . S
N2654 Tb2616 2.600 . S
N2654 C2656 1.359 . S
N2654 C2657 1.327 1_545 S
C2655 H2641 0.931 . S
C2655 C2657 1.392 . S
C2655 C2658 1.370 . S
C2656 C2652 1.432 . S
C2656 N2654 1.359 . S
C2656 C2659 1.414 . S
C2657 H2639 0.930 . S
C2657 N2654 1.327 1_565 S
C2657 C2655 1.392 . S
C2658 H2653 0.930 . S
C2658 C2655 1.370 . S
C2658 C2659 1.385 1_565 S
C2659 C2656 1.414 . S
C2659 C2658 1.385 1_545 S
C2659 C2681 1.444 . S
O2660 Tb2616 2.546 . S
O2660 C2680 1.251 . S
O2661 Tb2616 2.610 . S
O2661 Tb2627 2.362 1_554 S
O2661 C2672 1.283 . S
O2662 Tb2627 2.421 1_554 S
O2662 C2679 1.262 . S
O2663 Tb2616 2.320 . S
O2663 C2679 1.260 . S
O2664 Tb2616 2.552 . S
O2664 C2672 1.243 . S
O2665 Tb2616 2.413 . S
O2665 C2680 1.256 . S
O2666 Tb2627 2.546 . S
O2666 C2691 1.251 . S
O2667 Tb2616 2.362 . S
O2667 Tb2627 2.610 1_554 S
O2667 C2683 1.283 . S
O2668 Tb2616 2.435 . S
O2668 C2690 1.270 1_554 S
O2669 Tb2627 2.320 . S
O2669 C2690 1.257 . S
O2670 Tb2627 2.552 . S
O2670 C2683 1.243 1_556 S
O2671 Tb2627 2.413 . S
O2671 C2691 1.256 . S
C2672 O2661 1.283 . S
C2672 O2664 1.243 . S
C2673 C2675 1.382 . S
C2673 C2677 1.393 1_545 S
C2673 C2680 1.500 . S
C2674 C2675 1.400 . S
C2674 C2676 1.384 . S
C2675 C2673 1.382 . S
C2675 C2674 1.400 . S
C2675 H2692 0.930 . S
C2676 C2674 1.384 . S
C2676 C2678 1.392 1_545 S
C2676 H2693 0.928 1_545 S
C2677 C2673 1.393 1_565 S
C2677 C2678 1.401 . S
C2677 H2694 0.930 . S
C2678 C2676 1.392 1_565 S
C2678 C2677 1.401 . S
C2678 H2695 0.930 . S
C2679 O2662 1.262 . S
C2679 O2663 1.260 . S
C2680 Tb2616 2.833 . S
C2680 O2660 1.251 . S
C2680 O2665 1.256 . S
C2680 C2673 1.500 . S
C2681 H2646 0.929 . S
C2681 C2659 1.444 . S
C2681 C2682 1.317 . S
C2682 H2644 0.930 . S
C2682 C2650 1.432 . S
C2682 C2681 1.317 . S
C2683 O2667 1.283 . S
C2683 O2670 1.243 1_554 S
C2684 C2685 1.382 . S
C2684 C2688 1.393 . S
C2684 C2691 1.500 . S
C2685 C2684 1.382 . S
C2685 C2686 1.400 . S
C2685 H2696 0.930 . S
C2686 C2685 1.400 . S
C2686 C2687 1.384 . S
C2687 C2686 1.384 . S
C2687 C2689 1.392 . S
C2687 H2697 0.931 . S
C2688 C2684 1.393 . S
C2688 C2689 1.401 . S
C2688 H2698 0.930 . S
C2689 C2687 1.392 . S
C2689 C2688 1.401 . S
C2689 H2699 0.930 . S
C2690 O2668 1.270 1_556 S
C2690 O2669 1.257 . S
C2691 Tb2627 2.833 . S
C2691 O2666 1.251 . S
C2691 O2671 1.256 . S
C2691 C2684 1.500 . S
H2692 C2675 0.930 . S
H2693 C2676 0.928 1_565 S
H2694 C2677 0.930 . S
H2695 C2678 0.930 . S
H2696 C2685 0.930 . S
H2697 C2687 0.931 . S
H2698 C2688 0.930 . S
H2699 C2689 0.930 . S
Tb2700 N2731 2.660 . S
Tb2700 N2738 2.600 . S
Tb2700 O2744 2.546 . S
Tb2700 O2745 2.610 . S
Tb2700 O2747 2.320 . S
Tb2700 O2748 2.552 . S
Tb2700 O2749 2.413 . S
Tb2700 O2751 2.362 . S
Tb2700 O2752 2.421 . S
Tb2700 C2764 2.833 . S
C2701 C2704 1.432 . S
C2701 C2705 1.414 . S
C2701 N2708 1.359 . S
C2702 C2704 1.417 . S
C2702 C2706 1.432 . S
C2702 C2714 1.410 . S
C2703 C2705 1.444 . S
C2703 C2706 1.317 . S
C2703 H2726 0.929 . S
C2704 C2701 1.432 . S
C2704 C2702 1.417 . S
C2704 N2712 1.360 . S
C2705 C2701 1.414 . S
C2705 C2703 1.444 . S
C2705 C2710 1.385 . S
C2706 C2702 1.432 . S
C2706 C2703 1.317 . S
C2706 H2718 0.930 . S
C2707 C2709 1.392 . S
C2707 C2710 1.370 . S
C2707 H2719 0.931 . S
N2708 C2701 1.359 . S
N2708 C2709 1.327 . S
N2708 Tb2711 2.600 . S
C2709 C2707 1.392 . S
C2709 N2708 1.327 . S
C2709 H2716 0.930 . S
C2710 C2705 1.385 . S
C2710 C2707 1.370 . S
C2710 H2729 0.930 . S
Tb2711 N2708 2.600 . S
Tb2711 N2712 2.660 . S
Tb2711 O2745 2.362 . S
Tb2711 O2746 2.421 . S
Tb2711 O2750 2.546 . S
Tb2711 O2751 2.610 . S
Tb2711 O2753 2.320 . S
Tb2711 O2754 2.552 . S
Tb2711 O2755 2.413 . S
Tb2711 C2775 2.833 . S
N2712 C2704 1.360 . S
N2712 Tb2711 2.660 . S
N2712 C2713 1.305 . S
C2713 N2712 1.305 . S
C2713 C2715 1.407 . S
C2713 H2720 0.930 . S
C2714 C2702 1.410 . S
C2714 C2715 1.345 . S
C2714 H2722 0.930 . S
C2715 C2713 1.407 . S
C2715 C2714 1.345 . S
C2715 H2717 0.930 . S
H2716 C2709 0.930 . S
H2717 C2715 0.930 . S
H2718 C2706 0.930 . S
H2719 C2707 0.931 . S
H2720 C2713 0.930 . S
H2721 C2735 0.930 . S
H2722 C2714 0.930 . S
H2723 C2741 0.930 . S
H2724 C2732 0.930 . S
H2725 C2739 0.931 . S
H2726 C2703 0.929 . S
H2727 C2733 0.930 . S
H2728 C2766 0.930 . S
H2729 C2710 0.930 . S
H2730 C2765 0.929 . S
N2731 Tb2700 2.660 . S
N2731 C2732 1.305 . S
N2731 C2736 1.360 . S
C2732 H2724 0.930 . S
C2732 N2731 1.305 . S
C2732 C2735 1.407 . S
C2733 H2727 0.930 . S
C2733 C2734 1.410 . S
C2733 C2735 1.345 . S
C2734 C2733 1.410 . S
C2734 C2736 1.417 . S
C2734 C2766 1.432 . S
C2735 H2721 0.930 . S
C2735 C2732 1.407 . S
C2735 C2733 1.345 . S
C2736 N2731 1.360 . S
C2736 C2734 1.417 . S
C2736 C2740 1.432 . S
H2737 C2742 0.930 . S
N2738 Tb2700 2.600 . S
N2738 C2740 1.359 . S
N2738 C2741 1.327 . S
C2739 H2725 0.931 . S
C2739 C2741 1.392 . S
C2739 C2742 1.370 . S
C2740 C2736 1.432 . S
C2740 N2738 1.359 . S
C2740 C2743 1.414 . S
C2741 H2723 0.930 . S
C2741 N2738 1.327 . S
C2741 C2739 1.392 . S
C2742 H2737 0.930 . S
C2742 C2739 1.370 . S
C2742 C2743 1.385 . S
C2743 C2740 1.414 . S
C2743 C2742 1.385 . S
C2743 C2765 1.444 . S
O2744 Tb2700 2.546 . S
O2744 C2764 1.251 . S
O2745 Tb2700 2.610 . S
O2745 Tb2711 2.362 . S
O2745 C2756 1.283 . S
O2746 Tb2711 2.421 . S
O2746 C2763 1.262 . S
O2747 Tb2700 2.320 . S
O2747 C2763 1.260 . S
O2748 Tb2700 2.552 . S
O2748 C2756 1.243 . S
O2749 Tb2700 2.413 . S
O2749 C2764 1.256 . S
O2750 Tb2711 2.546 . S
O2750 C2775 1.251 . S
O2751 Tb2700 2.362 . S
O2751 Tb2711 2.610 . S
O2751 C2767 1.283 . S
O2752 Tb2700 2.421 . S
O2752 C2774 1.262 . S
O2753 Tb2711 2.320 . S
O2753 C2774 1.260 . S
O2754 Tb2711 2.552 . S
O2754 C2767 1.243 . S
O2755 Tb2711 2.413 . S
O2755 C2775 1.256 . S
C2756 O2745 1.283 . S
C2756 O2748 1.243 . S
C2757 C2759 1.382 . S
C2757 C2761 1.393 . S
C2757 C2764 1.500 . S
C2758 C2759 1.400 . S
C2758 C2760 1.384 . S
C2759 C2757 1.382 . S
C2759 C2758 1.400 . S
C2759 H2776 0.930 . S
C2760 C2758 1.384 . S
C2760 C2762 1.392 . S
C2760 H2777 0.931 . S
C2761 C2757 1.393 . S
C2761 C2762 1.401 . S
C2761 H2778 0.930 . S
C2762 C2760 1.392 . S
C2762 C2761 1.401 . S
C2762 H2779 0.930 . S
C2763 O2746 1.262 . S
C2763 O2747 1.260 . S
C2764 Tb2700 2.833 . S
C2764 O2744 1.251 . S
C2764 O2749 1.256 . S
C2764 C2757 1.500 . S
C2765 H2730 0.929 . S
C2765 C2743 1.444 . S
C2765 C2766 1.317 . S
C2766 H2728 0.930 . S
C2766 C2734 1.432 . S
C2766 C2765 1.317 . S
C2767 O2751 1.283 . S
C2767 O2754 1.243 . S
C2768 C2769 1.382 . S
C2768 C2772 1.393 . S
C2768 C2775 1.500 . S
C2769 C2768 1.382 . S
C2769 C2770 1.400 . S
C2769 H2780 0.930 . S
C2770 C2769 1.400 . S
C2770 C2771 1.384 . S
C2771 C2770 1.384 . S
C2771 C2773 1.392 . S
C2771 H2781 0.931 . S
C2772 C2768 1.393 . S
C2772 C2773 1.401 . S
C2772 H2782 0.930 . S
C2773 C2771 1.392 . S
C2773 C2772 1.401 . S
C2773 H2783 0.930 . S
C2774 O2752 1.262 . S
C2774 O2753 1.260 . S
C2775 Tb2711 2.833 . S
C2775 O2750 1.251 . S
C2775 O2755 1.256 . S
C2775 C2768 1.500 . S
H2776 C2759 0.930 . S
H2777 C2760 0.931 . S
H2778 C2761 0.930 . S
H2779 C2762 0.930 . S
H2780 C2769 0.930 . S
H2781 C2771 0.931 . S
H2782 C2772 0.930 . S
H2783 C2773 0.930 . S
Tb2784 N2815 2.660 . S
Tb2784 N2822 2.600 . S
Tb2784 O2828 2.546 . S
Tb2784 O2829 2.610 1_554 S
Tb2784 O2831 2.320 . S
Tb2784 O2832 2.552 1_554 S
Tb2784 O2833 2.413 . S
Tb2784 O2835 2.362 . S
Tb2784 O2836 2.421 . S
Tb2784 C2848 2.833 . S
C2785 C2788 1.432 . S
C2785 C2789 1.414 . S
C2785 N2792 1.359 . S
C2786 C2788 1.417 . S
C2786 C2790 1.432 . S
C2786 C2798 1.410 . S
C2787 C2789 1.444 . S
C2787 C2790 1.317 . S
C2787 H2810 0.929 . S
C2788 C2785 1.432 . S
C2788 C2786 1.417 . S
C2788 N2796 1.360 . S
C2789 C2785 1.414 . S
C2789 C2787 1.444 . S
C2789 C2794 1.385 . S
C2790 C2786 1.432 . S
C2790 C2787 1.317 . S
C2790 H2802 0.930 . S
C2791 C2793 1.392 . S
C2791 C2794 1.370 . S
C2791 H2803 0.931 . S
N2792 C2785 1.359 . S
N2792 C2793 1.327 . S
N2792 Tb2795 2.600 1_556 S
C2793 C2791 1.392 . S
C2793 N2792 1.327 . S
C2793 H2800 0.930 . S
C2794 C2789 1.385 . S
C2794 C2791 1.370 . S
C2794 H2813 0.930 . S
Tb2795 N2792 2.600 1_554 S
Tb2795 N2796 2.660 1_554 S
Tb2795 O2829 2.362 1_554 S
Tb2795 O2830 2.421 . S
Tb2795 O2834 2.546 . S
Tb2795 O2835 2.610 . S
Tb2795 O2837 2.320 . S
Tb2795 O2838 2.552 . S
Tb2795 O2839 2.413 . S
Tb2795 C2859 2.833 . S
N2796 C2788 1.360 . S
N2796 Tb2795 2.660 1_556 S
N2796 C2797 1.305 . S
C2797 N2796 1.305 . S
C2797 C2799 1.407 . S
C2797 H2804 0.930 . S
C2798 C2786 1.410 . S
C2798 C2799 1.345 . S
C2798 H2806 0.930 . S
C2799 C2797 1.407 . S
C2799 C2798 1.345 . S
C2799 H2801 0.930 . S
H2800 C2793 0.930 . S
H2801 C2799 0.930 . S
H2802 C2790 0.930 . S
H2803 C2791 0.931 . S
H2804 C2797 0.930 . S
H2805 C2819 0.930 . S
H2806 C2798 0.930 . S
H2807 C2825 0.930 . S
H2808 C2816 0.930 . S
H2809 C2823 0.931 . S
H2810 C2787 0.929 . S
H2811 C2817 0.930 . S
H2812 C2850 0.930 . S
H2813 C2794 0.930 . S
H2814 C2849 0.929 . S
N2815 Tb2784 2.660 . S
N2815 C2816 1.305 . S
N2815 C2820 1.360 . S
C2816 H2808 0.930 . S
C2816 N2815 1.305 . S
C2816 C2819 1.407 . S
C2817 H2811 0.930 . S
C2817 C2818 1.410 . S
C2817 C2819 1.345 . S
C2818 C2817 1.410 . S
C2818 C2820 1.417 . S
C2818 C2850 1.432 . S
C2819 H2805 0.930 . S
C2819 C2816 1.407 . S
C2819 C2817 1.345 . S
C2820 N2815 1.360 . S
C2820 C2818 1.417 . S
C2820 C2824 1.432 . S
H2821 C2826 0.930 . S
N2822 Tb2784 2.600 . S
N2822 C2824 1.359 . S
N2822 C2825 1.327 . S
C2823 H2809 0.931 . S
C2823 C2825 1.392 . S
C2823 C2826 1.370 . S
C2824 C2820 1.432 . S
C2824 N2822 1.359 . S
C2824 C2827 1.414 . S
C2825 H2807 0.930 . S
C2825 N2822 1.327 . S
C2825 C2823 1.392 . S
C2826 H2821 0.930 . S
C2826 C2823 1.370 . S
C2826 C2827 1.385 . S
C2827 C2824 1.414 . S
C2827 C2826 1.385 . S
C2827 C2849 1.444 . S
O2828 Tb2784 2.546 . S
O2828 C2848 1.251 . S
O2829 Tb2784 2.610 1_556 S
O2829 Tb2795 2.362 1_556 S
O2829 C2840 1.283 . S
O2830 Tb2795 2.421 . S
O2830 C2847 1.262 . S
O2831 Tb2784 2.320 . S
O2831 C2847 1.260 . S
O2832 Tb2784 2.552 1_556 S
O2832 C2840 1.243 . S
O2833 Tb2784 2.413 . S
O2833 C2848 1.256 . S
O2834 Tb2795 2.546 . S
O2834 C2859 1.251 . S
O2835 Tb2784 2.362 . S
O2835 Tb2795 2.610 . S
O2835 C2851 1.283 . S
O2836 Tb2784 2.421 . S
O2836 C2858 1.262 . S
O2837 Tb2795 2.320 . S
O2837 C2858 1.260 . S
O2838 Tb2795 2.552 . S
O2838 C2851 1.243 . S
O2839 Tb2795 2.413 . S
O2839 C2859 1.256 . S
C2840 O2829 1.283 . S
C2840 O2832 1.243 . S
C2841 C2843 1.382 . S
C2841 C2845 1.393 . S
C2841 C2848 1.500 . S
C2842 C2843 1.400 1_556 S
C2842 C2844 1.384 1_556 S
C2843 C2841 1.382 . S
C2843 C2842 1.400 1_554 S
C2843 H2860 0.930 . S
C2844 C2842 1.384 1_554 S
C2844 C2846 1.392 . S
C2844 H2861 0.931 . S
C2845 C2841 1.393 . S
C2845 C2846 1.401 . S
C2845 H2862 0.930 . S
C2846 C2844 1.392 . S
C2846 C2845 1.401 . S
C2846 H2863 0.930 . S
C2847 O2830 1.262 . S
C2847 O2831 1.260 . S
C2848 Tb2784 2.833 . S
C2848 O2828 1.251 . S
C2848 O2833 1.256 . S
C2848 C2841 1.500 . S
C2849 H2814 0.929 . S
C2849 C2827 1.444 . S
C2849 C2850 1.317 . S
C2850 H2812 0.930 . S
C2850 C2818 1.432 . S
C2850 C2849 1.317 . S
C2851 O2835 1.283 . S
C2851 O2838 1.243 . S
C2852 C2853 1.382 . S
C2852 C2856 1.393 . S
C2852 C2859 1.500 . S
C2853 C2852 1.382 . S
C2853 C2854 1.400 . S
C2853 H2864 0.930 . S
C2854 C2853 1.400 . S
C2854 C2855 1.384 . S
C2855 C2854 1.384 . S
C2855 C2857 1.392 . S
C2855 H2865 0.931 . S
C2856 C2852 1.393 . S
C2856 C2857 1.401 . S
C2856 H2866 0.930 . S
C2857 C2855 1.392 . S
C2857 C2856 1.401 . S
C2857 H2867 0.930 . S
C2858 O2836 1.262 . S
C2858 O2837 1.260 . S
C2859 Tb2795 2.833 . S
C2859 O2834 1.251 . S
C2859 O2839 1.256 . S
C2859 C2852 1.500 . S
H2860 C2843 0.930 . S
H2861 C2844 0.931 . S
H2862 C2845 0.930 . S
H2863 C2846 0.930 . S
H2864 C2853 0.930 . S
H2865 C2855 0.931 . S
H2866 C2856 0.930 . S
H2867 C2857 0.930 . S
Tb2868 N2899 2.660 . S
Tb2868 N2906 2.600 . S
Tb2868 O2912 2.546 . S
Tb2868 O2913 2.610 . S
Tb2868 O2915 2.320 . S
Tb2868 O2916 2.552 . S
Tb2868 O2917 2.413 . S
Tb2868 O2919 2.362 . S
Tb2868 O2920 2.421 . S
Tb2868 C2932 2.833 . S
C2869 C2872 1.432 . S
C2869 C2873 1.414 . S
C2869 N2876 1.359 . S
C2870 C2872 1.417 . S
C2870 C2874 1.432 . S
C2870 C2882 1.410 . S
C2871 C2873 1.444 . S
C2871 C2874 1.317 . S
C2871 H2894 0.929 . S
C2872 C2869 1.432 . S
C2872 C2870 1.417 . S
C2872 N2880 1.360 . S
C2873 C2869 1.414 . S
C2873 C2871 1.444 . S
C2873 C2878 1.385 . S
C2874 C2870 1.432 . S
C2874 C2871 1.317 . S
C2874 H2886 0.930 . S
C2875 C2877 1.392 . S
C2875 C2878 1.370 . S
C2875 H2887 0.931 . S
N2876 C2869 1.359 . S
N2876 C2877 1.327 . S
N2876 Tb2879 2.600 . S
C2877 C2875 1.392 . S
C2877 N2876 1.327 . S
C2877 H2884 0.930 . S
C2878 C2873 1.385 . S
C2878 C2875 1.370 . S
C2878 H2897 0.930 . S
Tb2879 N2876 2.600 . S
Tb2879 N2880 2.660 . S
Tb2879 O2913 2.362 . S
Tb2879 O2914 2.421 . S
Tb2879 O2918 2.546 . S
Tb2879 O2919 2.610 . S
Tb2879 O2921 2.320 . S
Tb2879 O2922 2.552 . S
Tb2879 O2923 2.413 . S
Tb2879 C2943 2.833 . S
N2880 C2872 1.360 . S
N2880 Tb2879 2.660 . S
N2880 C2881 1.305 . S
C2881 N2880 1.305 . S
C2881 C2883 1.407 . S
C2881 H2888 0.930 . S
C2882 C2870 1.410 . S
C2882 C2883 1.345 . S
C2882 H2890 0.930 . S
C2883 C2881 1.407 . S
C2883 C2882 1.345 . S
C2883 H2885 0.930 . S
H2884 C2877 0.930 . S
H2885 C2883 0.930 . S
H2886 C2874 0.930 . S
H2887 C2875 0.931 . S
H2888 C2881 0.930 . S
H2889 C2903 0.930 . S
H2890 C2882 0.930 . S
H2891 C2909 0.930 . S
H2892 C2900 0.930 . S
H2893 C2907 0.931 . S
H2894 C2871 0.929 . S
H2895 C2901 0.930 . S
H2896 C2934 0.930 . S
H2897 C2878 0.930 . S
H2898 C2933 0.929 . S
N2899 Tb2868 2.660 . S
N2899 C2900 1.305 . S
N2899 C2904 1.360 . S
C2900 H2892 0.930 . S
C2900 N2899 1.305 . S
C2900 C2903 1.407 . S
C2901 H2895 0.930 . S
C2901 C2902 1.410 . S
C2901 C2903 1.345 . S
C2902 C2901 1.410 . S
C2902 C2904 1.417 . S
C2902 C2934 1.432 . S
C2903 H2889 0.930 . S
C2903 C2900 1.407 . S
C2903 C2901 1.345 . S
C2904 N2899 1.360 . S
C2904 C2902 1.417 . S
C2904 C2908 1.432 . S
H2905 C2910 0.930 . S
N2906 Tb2868 2.600 . S
N2906 C2908 1.359 . S
N2906 C2909 1.327 . S
C2907 H2893 0.931 . S
C2907 C2909 1.392 . S
C2907 C2910 1.370 . S
C2908 C2904 1.432 . S
C2908 N2906 1.359 . S
C2908 C2911 1.414 . S
C2909 H2891 0.930 . S
C2909 N2906 1.327 . S
C2909 C2907 1.392 . S
C2910 H2905 0.930 . S
C2910 C2907 1.370 . S
C2910 C2911 1.385 . S
C2911 C2908 1.414 . S
C2911 C2910 1.385 . S
C2911 C2933 1.444 . S
O2912 Tb2868 2.546 . S
O2912 C2932 1.251 . S
O2913 Tb2868 2.610 . S
O2913 Tb2879 2.362 . S
O2913 C2924 1.283 . S
O2914 Tb2879 2.421 . S
O2914 C2931 1.262 . S
O2915 Tb2868 2.320 . S
O2915 C2931 1.260 . S
O2916 Tb2868 2.552 . S
O2916 C2924 1.243 . S
O2917 Tb2868 2.413 . S
O2917 C2932 1.256 . S
O2918 Tb2879 2.546 . S
O2918 C2943 1.251 . S
O2919 Tb2868 2.362 . S
O2919 Tb2879 2.610 . S
O2919 C2935 1.283 . S
O2920 Tb2868 2.421 . S
O2920 C2942 1.262 . S
O2921 Tb2879 2.320 . S
O2921 C2942 1.260 . S
O2922 Tb2879 2.552 . S
O2922 C2935 1.243 . S
O2923 Tb2879 2.413 . S
O2923 C2943 1.256 . S
C2924 O2913 1.283 . S
C2924 O2916 1.243 . S
C2925 C2927 1.382 . S
C2925 C2929 1.393 . S
C2925 C2932 1.500 . S
C2926 C2927 1.400 . S
C2926 C2928 1.384 . S
C2927 C2925 1.382 . S
C2927 C2926 1.400 . S
C2927 H2944 0.930 . S
C2928 C2926 1.384 . S
C2928 C2930 1.392 . S
C2928 H2945 0.931 . S
C2929 C2925 1.393 . S
C2929 C2930 1.401 . S
C2929 H2946 0.930 . S
C2930 C2928 1.392 . S
C2930 C2929 1.401 . S
C2930 H2947 0.930 . S
C2931 O2914 1.262 . S
C2931 O2915 1.260 . S
C2932 Tb2868 2.833 . S
C2932 O2912 1.251 . S
C2932 O2917 1.256 . S
C2932 C2925 1.500 . S
C2933 H2898 0.929 . S
C2933 C2911 1.444 . S
C2933 C2934 1.317 . S
C2934 H2896 0.930 . S
C2934 C2902 1.432 . S
C2934 C2933 1.317 . S
C2935 O2919 1.283 . S
C2935 O2922 1.243 . S
C2936 C2937 1.382 . S
C2936 C2940 1.393 . S
C2936 C2943 1.500 . S
C2937 C2936 1.382 . S
C2937 C2938 1.400 . S
C2937 H2948 0.930 . S
C2938 C2937 1.400 . S
C2938 C2939 1.384 . S
C2939 C2938 1.384 . S
C2939 C2941 1.392 . S
C2939 H2949 0.931 . S
C2940 C2936 1.393 . S
C2940 C2941 1.401 . S
C2940 H2950 0.930 . S
C2941 C2939 1.392 . S
C2941 C2940 1.401 . S
C2941 H2951 0.930 . S
C2942 O2920 1.262 . S
C2942 O2921 1.260 . S
C2943 Tb2879 2.833 . S
C2943 O2918 1.251 . S
C2943 O2923 1.256 . S
C2943 C2936 1.500 . S
H2944 C2927 0.930 . S
H2945 C2928 0.931 . S
H2946 C2929 0.930 . S
H2947 C2930 0.930 . S
H2948 C2937 0.930 . S
H2949 C2939 0.931 . S
H2950 C2940 0.930 . S
H2951 C2941 0.930 . S
Tb2952 N2983 2.660 . S
Tb2952 N2990 2.600 . S
Tb2952 O2996 2.546 . S
Tb2952 O2997 2.610 . S
Tb2952 O2999 2.320 . S
Tb2952 O3000 2.552 . S
Tb2952 O3001 2.413 . S
Tb2952 O3003 2.362 . S
Tb2952 O3004 2.421 . S
Tb2952 C3016 2.833 . S
C2953 C2956 1.432 . S
C2953 C2957 1.414 1_455 S
C2953 N2960 1.359 . S
C2954 C2956 1.417 1_655 S
C2954 C2958 1.432 . S
C2954 C2966 1.410 . S
C2955 C2957 1.444 . S
C2955 C2958 1.317 . S
C2955 H2978 0.929 . S
C2956 C2953 1.432 . S
C2956 C2954 1.417 1_455 S
C2956 N2964 1.360 . S
C2957 C2953 1.414 1_655 S
C2957 C2955 1.444 . S
C2957 C2962 1.385 . S
C2958 C2954 1.432 . S
C2958 C2955 1.317 . S
C2958 H2970 0.930 . S
C2959 C2961 1.392 . S
C2959 C2962 1.370 1_455 S
C2959 H2971 0.931 . S
N2960 C2953 1.359 . S
N2960 C2961 1.327 . S
N2960 Tb2963 2.600 . S
C2961 C2959 1.392 . S
C2961 N2960 1.327 . S
C2961 H2968 0.930 . S
C2962 C2957 1.385 . S
C2962 C2959 1.370 1_655 S
C2962 H2981 0.930 . S
Tb2963 N2960 2.600 . S
Tb2963 N2964 2.660 . S
Tb2963 O2997 2.362 . S
Tb2963 O2998 2.421 . S
Tb2963 O3002 2.546 . S
Tb2963 O3003 2.610 . S
Tb2963 O3005 2.320 . S
Tb2963 O3006 2.552 . S
Tb2963 O3007 2.413 . S
Tb2963 C3027 2.833 . S
N2964 C2956 1.360 . S
N2964 Tb2963 2.660 . S
N2964 C2965 1.305 . S
C2965 N2964 1.305 . S
C2965 C2967 1.398 1_455 S
C2965 H2972 0.930 . S
C2966 C2954 1.410 . S
C2966 C2967 1.357 . S
C2966 H2974 0.930 . S
C2967 C2965 1.398 1_655 S
C2967 C2966 1.357 . S
C2967 H2969 0.927 . S
H2968 C2961 0.930 . S
H2969 C2967 0.927 . S
H2970 C2958 0.930 . S
H2971 C2959 0.931 . S
H2972 C2965 0.930 . S
H2973 C2987 0.930 . S
H2974 C2966 0.930 . S
H2975 C2993 0.930 . S
H2976 C2984 0.930 . S
H2977 C2991 0.931 . S
H2978 C2955 0.929 . S
H2979 C2985 0.930 . S
H2980 C3018 0.930 . S
H2981 C2962 0.930 . S
H2982 C3017 0.929 . S
N2983 Tb2952 2.660 . S
N2983 C2984 1.305 . S
N2983 C2988 1.360 . S
C2984 H2976 0.930 . S
C2984 N2983 1.305 . S
C2984 C2987 1.407 . S
C2985 H2979 0.930 . S
C2985 C2986 1.410 . S
C2985 C2987 1.345 . S
C2986 C2985 1.410 . S
C2986 C2988 1.417 . S
C2986 C3018 1.432 . S
C2987 H2973 0.930 . S
C2987 C2984 1.407 . S
C2987 C2985 1.345 . S
C2988 N2983 1.360 . S
C2988 C2986 1.417 . S
C2988 C2992 1.432 . S
H2989 C2994 0.930 . S
N2990 Tb2952 2.600 . S
N2990 C2992 1.359 . S
N2990 C2993 1.327 . S
C2991 H2977 0.931 . S
C2991 C2993 1.392 . S
C2991 C2994 1.370 . S
C2992 C2988 1.432 . S
C2992 N2990 1.359 . S
C2992 C2995 1.414 . S
C2993 H2975 0.930 . S
C2993 N2990 1.327 . S
C2993 C2991 1.392 . S
C2994 H2989 0.930 . S
C2994 C2991 1.370 . S
C2994 C2995 1.385 . S
C2995 C2992 1.414 . S
C2995 C2994 1.385 . S
C2995 C3017 1.444 . S
O2996 Tb2952 2.546 . S
O2996 C3016 1.251 . S
O2997 Tb2952 2.610 . S
O2997 Tb2963 2.362 . S
O2997 C3008 1.283 . S
O2998 Tb2963 2.421 . S
O2998 C3015 1.262 . S
O2999 Tb2952 2.320 . S
O2999 C3015 1.260 . S
O3000 Tb2952 2.552 . S
O3000 C3008 1.243 . S
O3001 Tb2952 2.413 . S
O3001 C3016 1.256 . S
O3002 Tb2963 2.546 . S
O3002 C3027 1.251 . S
O3003 Tb2952 2.362 . S
O3003 Tb2963 2.610 . S
O3003 C3019 1.283 . S
O3004 Tb2952 2.421 . S
O3004 C3026 1.262 . S
O3005 Tb2963 2.320 . S
O3005 C3026 1.260 . S
O3006 Tb2963 2.552 . S
O3006 C3019 1.243 . S
O3007 Tb2963 2.413 . S
O3007 C3027 1.256 . S
C3008 O2997 1.283 . S
C3008 O3000 1.243 . S
C3009 C3011 1.382 . S
C3009 C3013 1.393 . S
C3009 C3016 1.500 . S
C3010 C3011 1.400 . S
C3010 C3012 1.384 . S
C3011 C3009 1.382 . S
C3011 C3010 1.400 . S
C3011 H3028 0.930 . S
C3012 C3010 1.384 . S
C3012 C3014 1.392 . S
C3012 H3029 0.931 . S
C3013 C3009 1.393 . S
C3013 C3014 1.401 . S
C3013 H3030 0.930 . S
C3014 C3012 1.392 . S
C3014 C3013 1.401 . S
C3014 H3031 0.930 . S
C3015 O2998 1.262 . S
C3015 O2999 1.260 . S
C3016 Tb2952 2.833 . S
C3016 O2996 1.251 . S
C3016 O3001 1.256 . S
C3016 C3009 1.500 . S
C3017 H2982 0.929 . S
C3017 C2995 1.444 . S
C3017 C3018 1.317 . S
C3018 H2980 0.930 . S
C3018 C2986 1.432 . S
C3018 C3017 1.317 . S
C3019 O3003 1.283 . S
C3019 O3006 1.243 . S
C3020 C3021 1.382 . S
C3020 C3024 1.393 . S
C3020 C3027 1.500 . S
C3021 C3020 1.382 . S
C3021 C3022 1.400 . S
C3021 H3032 0.930 . S
C3022 C3021 1.400 . S
C3022 C3023 1.384 . S
C3023 C3022 1.384 . S
C3023 C3025 1.392 . S
C3023 H3033 0.931 . S
C3024 C3020 1.393 . S
C3024 C3025 1.401 . S
C3024 H3034 0.930 . S
C3025 C3023 1.392 . S
C3025 C3024 1.401 . S
C3025 H3035 0.930 . S
C3026 O3004 1.262 . S
C3026 O3005 1.260 . S
C3027 Tb2963 2.833 . S
C3027 O3002 1.251 . S
C3027 O3007 1.256 . S
C3027 C3020 1.500 . S
H3028 C3011 0.930 . S
H3029 C3012 0.931 . S
H3030 C3013 0.930 . S
H3031 C3014 0.930 . S
H3032 C3021 0.930 . S
H3033 C3023 0.931 . S
H3034 C3024 0.930 . S
H3035 C3025 0.930 . S
Tb3036 N3067 2.660 . S
Tb3036 N3074 2.600 . S
Tb3036 O3080 2.546 . S
Tb3036 O3081 2.610 . S
Tb3036 O3083 2.320 . S
Tb3036 O3084 2.552 . S
Tb3036 O3085 2.413 . S
Tb3036 O3087 2.362 . S
Tb3036 O3088 2.421 . S
Tb3036 C3100 2.833 . S
C3037 C3040 1.432 . S
C3037 C3041 1.414 . S
C3037 N3044 1.359 . S
C3038 C3040 1.417 . S
C3038 C3042 1.432 . S
C3038 C3050 1.410 . S
C3039 C3041 1.444 . S
C3039 C3042 1.317 . S
C3039 H3062 0.929 . S
C3040 C3037 1.432 . S
C3040 C3038 1.417 . S
C3040 N3048 1.360 . S
C3041 C3037 1.414 . S
C3041 C3039 1.444 . S
C3041 C3046 1.385 . S
C3042 C3038 1.432 . S
C3042 C3039 1.317 . S
C3042 H3054 0.930 . S
C3043 C3045 1.392 . S
C3043 C3046 1.370 . S
C3043 H3055 0.931 . S
N3044 C3037 1.359 . S
N3044 C3045 1.327 . S
N3044 Tb3047 2.600 . S
C3045 C3043 1.392 . S
C3045 N3044 1.327 . S
C3045 H3052 0.930 . S
C3046 C3041 1.385 . S
C3046 C3043 1.370 . S
C3046 H3065 0.930 . S
Tb3047 N3044 2.600 . S
Tb3047 N3048 2.660 . S
Tb3047 O3081 2.362 . S
Tb3047 O3082 2.421 . S
Tb3047 O3086 2.546 . S
Tb3047 O3087 2.610 . S
Tb3047 O3089 2.320 . S
Tb3047 O3090 2.552 . S
Tb3047 O3091 2.413 . S
Tb3047 C3111 2.833 . S
N3048 C3040 1.360 . S
N3048 Tb3047 2.660 . S
N3048 C3049 1.305 . S
C3049 N3048 1.305 . S
C3049 C3051 1.407 . S
C3049 H3056 0.930 . S
C3050 C3038 1.410 . S
C3050 C3051 1.345 . S
C3050 H3058 0.930 . S
C3051 C3049 1.407 . S
C3051 C3050 1.345 . S
C3051 H3053 0.930 . S
H3052 C3045 0.930 . S
H3053 C3051 0.930 . S
H3054 C3042 0.930 . S
H3055 C3043 0.931 . S
H3056 C3049 0.930 . S
H3057 C3071 0.930 . S
H3058 C3050 0.930 . S
H3059 C3077 0.930 . S
H3060 C3068 0.930 . S
H3061 C3075 0.931 . S
H3062 C3039 0.929 . S
H3063 C3069 0.930 . S
H3064 C3102 0.930 . S
H3065 C3046 0.930 . S
H3066 C3101 0.929 . S
N3067 Tb3036 2.660 . S
N3067 C3068 1.305 . S
N3067 C3072 1.360 . S
C3068 H3060 0.930 . S
C3068 N3067 1.305 . S
C3068 C3071 1.407 . S
C3069 H3063 0.930 . S
C3069 C3070 1.410 . S
C3069 C3071 1.345 . S
C3070 C3069 1.410 . S
C3070 C3072 1.417 . S
C3070 C3102 1.432 . S
C3071 H3057 0.930 . S
C3071 C3068 1.407 . S
C3071 C3069 1.345 . S
C3072 N3067 1.360 . S
C3072 C3070 1.417 . S
C3072 C3076 1.432 . S
H3073 C3078 0.930 . S
N3074 Tb3036 2.600 . S
N3074 C3076 1.359 . S
N3074 C3077 1.327 . S
C3075 H3061 0.931 . S
C3075 C3077 1.392 . S
C3075 C3078 1.370 . S
C3076 C3072 1.432 . S
C3076 N3074 1.359 . S
C3076 C3079 1.414 . S
C3077 H3059 0.930 . S
C3077 N3074 1.327 . S
C3077 C3075 1.392 . S
C3078 H3073 0.930 . S
C3078 C3075 1.370 . S
C3078 C3079 1.385 . S
C3079 C3076 1.414 . S
C3079 C3078 1.385 . S
C3079 C3101 1.444 . S
O3080 Tb3036 2.546 . S
O3080 C3100 1.251 . S
O3081 Tb3036 2.610 . S
O3081 Tb3047 2.362 . S
O3081 C3092 1.283 . S
O3082 Tb3047 2.421 . S
O3082 C3099 1.262 . S
O3083 Tb3036 2.320 . S
O3083 C3099 1.260 . S
O3084 Tb3036 2.552 . S
O3084 C3092 1.243 . S
O3085 Tb3036 2.413 . S
O3085 C3100 1.256 . S
O3086 Tb3047 2.546 . S
O3086 C3111 1.251 . S
O3087 Tb3036 2.362 . S
O3087 Tb3047 2.610 . S
O3087 C3103 1.283 . S
O3088 Tb3036 2.421 . S
O3088 C3110 1.262 . S
O3089 Tb3047 2.320 . S
O3089 C3110 1.260 . S
O3090 Tb3047 2.552 . S
O3090 C3103 1.243 . S
O3091 Tb3047 2.413 . S
O3091 C3111 1.256 . S
C3092 O3081 1.283 . S
C3092 O3084 1.243 . S
C3093 C3095 1.382 . S
C3093 C3097 1.393 . S
C3093 C3100 1.500 . S
C3094 C3095 1.400 . S
C3094 C3096 1.384 . S
C3095 C3093 1.382 . S
C3095 C3094 1.400 . S
C3095 H3112 0.930 . S
C3096 C3094 1.384 . S
C3096 C3098 1.392 . S
C3096 H3113 0.931 . S
C3097 C3093 1.393 . S
C3097 C3098 1.401 . S
C3097 H3114 0.930 . S
C3098 C3096 1.392 . S
C3098 C3097 1.401 . S
C3098 H3115 0.930 . S
C3099 O3082 1.262 . S
C3099 O3083 1.260 . S
C3100 Tb3036 2.833 . S
C3100 O3080 1.251 . S
C3100 O3085 1.256 . S
C3100 C3093 1.500 . S
C3101 H3066 0.929 . S
C3101 C3079 1.444 . S
C3101 C3102 1.317 . S
C3102 H3064 0.930 . S
C3102 C3070 1.432 . S
C3102 C3101 1.317 . S
C3103 O3087 1.283 . S
C3103 O3090 1.243 . S
C3104 C3105 1.382 . S
C3104 C3108 1.393 . S
C3104 C3111 1.500 . S
C3105 C3104 1.382 . S
C3105 C3106 1.400 . S
C3105 H3116 0.930 . S
C3106 C3105 1.400 . S
C3106 C3107 1.384 . S
C3107 C3106 1.384 . S
C3107 C3109 1.392 . S
C3107 H3117 0.931 . S
C3108 C3104 1.393 . S
C3108 C3109 1.401 . S
C3108 H3118 0.930 . S
C3109 C3107 1.392 . S
C3109 C3108 1.401 . S
C3109 H3119 0.930 . S
C3110 O3088 1.262 . S
C3110 O3089 1.260 . S
C3111 Tb3047 2.833 . S
C3111 O3086 1.251 . S
C3111 O3091 1.256 . S
C3111 C3104 1.500 . S
H3112 C3095 0.930 . S
H3113 C3096 0.931 . S
H3114 C3097 0.930 . S
H3115 C3098 0.930 . S
H3116 C3105 0.930 . S
H3117 C3107 0.931 . S
H3118 C3108 0.930 . S
H3119 C3109 0.930 . S
Tb3120 N3151 2.660 . S
Tb3120 N3158 2.600 . S
Tb3120 O3164 2.546 . S
Tb3120 O3165 2.610 . S
Tb3120 O3167 2.320 . S
Tb3120 O3168 2.552 . S
Tb3120 O3169 2.413 . S
Tb3120 O3171 2.362 . S
Tb3120 O3172 2.421 . S
Tb3120 C3184 2.833 . S
C3121 C3124 1.432 . S
C3121 C3125 1.414 . S
C3121 N3128 1.359 . S
C3122 C3124 1.417 . S
C3122 C3126 1.432 . S
C3122 C3134 1.410 . S
C3123 C3125 1.444 . S
C3123 C3126 1.317 . S
C3123 H3146 0.929 . S
C3124 C3121 1.432 . S
C3124 C3122 1.417 . S
C3124 N3132 1.360 . S
C3125 C3121 1.414 . S
C3125 C3123 1.444 . S
C3125 C3130 1.385 . S
C3126 C3122 1.432 . S
C3126 C3123 1.317 . S
C3126 H3138 0.930 . S
C3127 C3129 1.392 . S
C3127 C3130 1.370 . S
C3127 H3139 0.931 . S
N3128 C3121 1.359 . S
N3128 C3129 1.327 . S
N3128 Tb3131 2.600 . S
C3129 C3127 1.392 . S
C3129 N3128 1.327 . S
C3129 H3136 0.930 . S
C3130 C3125 1.385 . S
C3130 C3127 1.370 . S
C3130 H3149 0.930 . S
Tb3131 N3128 2.600 . S
Tb3131 N3132 2.660 . S
Tb3131 O3165 2.362 . S
Tb3131 O3166 2.421 . S
Tb3131 O3170 2.546 . S
Tb3131 O3171 2.610 . S
Tb3131 O3173 2.320 . S
Tb3131 O3174 2.552 . S
Tb3131 O3175 2.413 . S
Tb3131 C3195 2.833 . S
N3132 C3124 1.360 . S
N3132 Tb3131 2.660 . S
N3132 C3133 1.305 . S
C3133 N3132 1.305 . S
C3133 C3135 1.407 . S
C3133 H3140 0.930 . S
C3134 C3122 1.410 . S
C3134 C3135 1.345 . S
C3134 H3142 0.930 . S
C3135 C3133 1.407 . S
C3135 C3134 1.345 . S
C3135 H3137 0.930 . S
H3136 C3129 0.930 . S
H3137 C3135 0.930 . S
H3138 C3126 0.930 . S
H3139 C3127 0.931 . S
H3140 C3133 0.930 . S
H3141 C3155 0.930 . S
H3142 C3134 0.930 . S
H3143 C3161 0.930 . S
H3144 C3152 0.930 . S
H3145 C3159 0.931 . S
H3146 C3123 0.929 . S
H3147 C3153 0.930 . S
H3148 C3186 0.930 . S
H3149 C3130 0.930 . S
H3150 C3185 0.929 . S
N3151 Tb3120 2.660 . S
N3151 C3152 1.305 . S
N3151 C3156 1.360 . S
C3152 H3144 0.930 . S
C3152 N3151 1.305 . S
C3152 C3155 1.407 . S
C3153 H3147 0.930 . S
C3153 C3154 1.410 . S
C3153 C3155 1.345 . S
C3154 C3153 1.410 . S
C3154 C3156 1.417 . S
C3154 C3186 1.432 . S
C3155 H3141 0.930 . S
C3155 C3152 1.407 . S
C3155 C3153 1.345 . S
C3156 N3151 1.360 . S
C3156 C3154 1.417 . S
C3156 C3160 1.432 . S
H3157 C3162 0.930 . S
N3158 Tb3120 2.600 . S
N3158 C3160 1.359 . S
N3158 C3161 1.327 . S
C3159 H3145 0.931 . S
C3159 C3161 1.392 . S
C3159 C3162 1.370 . S
C3160 C3156 1.432 . S
C3160 N3158 1.359 . S
C3160 C3163 1.414 . S
C3161 H3143 0.930 . S
C3161 N3158 1.327 . S
C3161 C3159 1.392 . S
C3162 H3157 0.930 . S
C3162 C3159 1.370 . S
C3162 C3163 1.385 . S
C3163 C3160 1.414 . S
C3163 C3162 1.385 . S
C3163 C3185 1.444 . S
O3164 Tb3120 2.546 . S
O3164 C3184 1.251 . S
O3165 Tb3120 2.610 . S
O3165 Tb3131 2.362 . S
O3165 C3176 1.283 . S
O3166 Tb3131 2.421 . S
O3166 C3183 1.262 . S
O3167 Tb3120 2.320 . S
O3167 C3183 1.260 . S
O3168 Tb3120 2.552 . S
O3168 C3176 1.243 . S
O3169 Tb3120 2.413 . S
O3169 C3184 1.256 . S
O3170 Tb3131 2.546 . S
O3170 C3195 1.251 . S
O3171 Tb3120 2.362 . S
O3171 Tb3131 2.610 . S
O3171 C3187 1.283 . S
O3172 Tb3120 2.421 . S
O3172 C3194 1.262 . S
O3173 Tb3131 2.320 . S
O3173 C3194 1.260 . S
O3174 Tb3131 2.552 . S
O3174 C3187 1.243 . S
O3175 Tb3131 2.413 . S
O3175 C3195 1.256 . S
C3176 O3165 1.283 . S
C3176 O3168 1.243 . S
C3177 C3179 1.382 . S
C3177 C3181 1.393 . S
C3177 C3184 1.500 . S
C3178 C3179 1.400 . S
C3178 C3180 1.384 . S
C3179 C3177 1.382 . S
C3179 C3178 1.400 . S
C3179 H3196 0.930 . S
C3180 C3178 1.384 . S
C3180 C3182 1.392 . S
C3180 H3197 0.931 . S
C3181 C3177 1.393 . S
C3181 C3182 1.401 . S
C3181 H3198 0.930 . S
C3182 C3180 1.392 . S
C3182 C3181 1.401 . S
C3182 H3199 0.930 . S
C3183 O3166 1.262 . S
C3183 O3167 1.260 . S
C3184 Tb3120 2.833 . S
C3184 O3164 1.251 . S
C3184 O3169 1.256 . S
C3184 C3177 1.500 . S
C3185 H3150 0.929 . S
C3185 C3163 1.444 . S
C3185 C3186 1.317 . S
C3186 H3148 0.930 . S
C3186 C3154 1.432 . S
C3186 C3185 1.317 . S
C3187 O3171 1.283 . S
C3187 O3174 1.243 . S
C3188 C3189 1.382 . S
C3188 C3192 1.393 . S
C3188 C3195 1.500 . S
C3189 C3188 1.382 . S
C3189 C3190 1.400 . S
C3189 H3200 0.930 . S
C3190 C3189 1.400 . S
C3190 C3191 1.384 . S
C3191 C3190 1.384 . S
C3191 C3193 1.392 . S
C3191 H3201 0.931 . S
C3192 C3188 1.393 . S
C3192 C3193 1.401 . S
C3192 H3202 0.930 . S
C3193 C3191 1.392 . S
C3193 C3192 1.401 . S
C3193 H3203 0.930 . S
C3194 O3172 1.262 . S
C3194 O3173 1.260 . S
C3195 Tb3131 2.833 . S
C3195 O3170 1.251 . S
C3195 O3175 1.256 . S
C3195 C3188 1.500 . S
H3196 C3179 0.930 . S
H3197 C3180 0.931 . S
H3198 C3181 0.930 . S
H3199 C3182 0.930 . S
H3200 C3189 0.930 . S
H3201 C3191 0.931 . S
H3202 C3192 0.930 . S
H3203 C3193 0.930 . S
Tb3204 N3235 2.660 . S
Tb3204 N3242 2.600 . S
Tb3204 O3248 2.546 . S
Tb3204 O3249 2.610 . S
Tb3204 O3251 2.320 . S
Tb3204 O3252 2.552 . S
Tb3204 O3253 2.413 . S
Tb3204 O3255 2.362 . S
Tb3204 O3256 2.421 . S
Tb3204 C3268 2.833 . S
C3205 C3208 1.432 . S
C3205 C3209 1.414 . S
C3205 N3212 1.359 . S
C3206 C3208 1.417 . S
C3206 C3210 1.432 . S
C3206 C3218 1.410 . S
C3207 C3209 1.444 . S
C3207 C3210 1.317 . S
C3207 H3230 0.929 . S
C3208 C3205 1.432 . S
C3208 C3206 1.417 . S
C3208 N3216 1.360 . S
C3209 C3205 1.414 . S
C3209 C3207 1.444 . S
C3209 C3214 1.385 . S
C3210 C3206 1.432 . S
C3210 C3207 1.317 . S
C3210 H3222 0.930 . S
C3211 C3213 1.392 . S
C3211 C3214 1.370 . S
C3211 H3223 0.931 . S
N3212 C3205 1.359 . S
N3212 C3213 1.327 . S
N3212 Tb3215 2.600 . S
C3213 C3211 1.392 . S
C3213 N3212 1.327 . S
C3213 H3220 0.930 . S
C3214 C3209 1.385 . S
C3214 C3211 1.370 . S
C3214 H3233 0.930 . S
Tb3215 N3212 2.600 . S
Tb3215 N3216 2.660 . S
Tb3215 O3249 2.362 . S
Tb3215 O3250 2.421 . S
Tb3215 O3254 2.546 . S
Tb3215 O3255 2.610 . S
Tb3215 O3257 2.320 . S
Tb3215 O3258 2.552 . S
Tb3215 O3259 2.413 . S
Tb3215 C3279 2.833 . S
N3216 C3208 1.360 . S
N3216 Tb3215 2.660 . S
N3216 C3217 1.305 . S
C3217 N3216 1.305 . S
C3217 C3219 1.407 . S
C3217 H3224 0.930 . S
C3218 C3206 1.410 . S
C3218 C3219 1.345 . S
C3218 H3226 0.930 . S
C3219 C3217 1.407 . S
C3219 C3218 1.345 . S
C3219 H3221 0.930 . S
H3220 C3213 0.930 . S
H3221 C3219 0.930 . S
H3222 C3210 0.930 . S
H3223 C3211 0.931 . S
H3224 C3217 0.930 . S
H3225 C3239 0.930 . S
H3226 C3218 0.930 . S
H3227 C3245 0.930 . S
H3228 C3236 0.930 . S
H3229 C3243 0.931 . S
H3230 C3207 0.929 . S
H3231 C3237 0.930 . S
H3232 C3270 0.930 . S
H3233 C3214 0.930 . S
H3234 C3269 0.929 . S
N3235 Tb3204 2.660 . S
N3235 C3236 1.305 . S
N3235 C3240 1.360 . S
C3236 H3228 0.930 . S
C3236 N3235 1.305 . S
C3236 C3239 1.407 . S
C3237 H3231 0.930 . S
C3237 C3238 1.410 . S
C3237 C3239 1.345 . S
C3238 C3237 1.410 . S
C3238 C3240 1.417 . S
C3238 C3270 1.432 . S
C3239 H3225 0.930 . S
C3239 C3236 1.407 . S
C3239 C3237 1.345 . S
C3240 N3235 1.360 . S
C3240 C3238 1.417 . S
C3240 C3244 1.432 . S
H3241 C3246 0.930 . S
N3242 Tb3204 2.600 . S
N3242 C3244 1.359 . S
N3242 C3245 1.327 . S
C3243 H3229 0.931 . S
C3243 C3245 1.392 . S
C3243 C3246 1.370 . S
C3244 C3240 1.432 . S
C3244 N3242 1.359 . S
C3244 C3247 1.414 . S
C3245 H3227 0.930 . S
C3245 N3242 1.327 . S
C3245 C3243 1.392 . S
C3246 H3241 0.930 . S
C3246 C3243 1.370 . S
C3246 C3247 1.385 . S
C3247 C3244 1.414 . S
C3247 C3246 1.385 . S
C3247 C3269 1.444 . S
O3248 Tb3204 2.546 . S
O3248 C3268 1.251 . S
O3249 Tb3204 2.610 . S
O3249 Tb3215 2.362 . S
O3249 C3260 1.283 . S
O3250 Tb3215 2.421 . S
O3250 C3267 1.262 . S
O3251 Tb3204 2.320 . S
O3251 C3267 1.260 . S
O3252 Tb3204 2.552 . S
O3252 C3260 1.243 . S
O3253 Tb3204 2.413 . S
O3253 C3268 1.256 . S
O3254 Tb3215 2.546 . S
O3254 C3279 1.251 . S
O3255 Tb3204 2.362 . S
O3255 Tb3215 2.610 . S
O3255 C3271 1.283 . S
O3256 Tb3204 2.421 . S
O3256 C3278 1.262 . S
O3257 Tb3215 2.320 . S
O3257 C3278 1.260 . S
O3258 Tb3215 2.552 . S
O3258 C3271 1.243 . S
O3259 Tb3215 2.413 . S
O3259 C3279 1.256 . S
C3260 O3249 1.283 . S
C3260 O3252 1.243 . S
C3261 C3263 1.382 . S
C3261 C3265 1.393 . S
C3261 C3268 1.500 . S
C3262 C3263 1.400 . S
C3262 C3264 1.384 . S
C3263 C3261 1.382 . S
C3263 C3262 1.400 . S
C3263 H3280 0.930 . S
C3264 C3262 1.384 . S
C3264 C3266 1.392 . S
C3264 H3281 0.931 . S
C3265 C3261 1.393 . S
C3265 C3266 1.401 . S
C3265 H3282 0.930 . S
C3266 C3264 1.392 . S
C3266 C3265 1.401 . S
C3266 H3283 0.930 . S
C3267 O3250 1.262 . S
C3267 O3251 1.260 . S
C3268 Tb3204 2.833 . S
C3268 O3248 1.251 . S
C3268 O3253 1.256 . S
C3268 C3261 1.500 . S
C3269 H3234 0.929 . S
C3269 C3247 1.444 . S
C3269 C3270 1.317 . S
C3270 H3232 0.930 . S
C3270 C3238 1.432 . S
C3270 C3269 1.317 . S
C3271 O3255 1.283 . S
C3271 O3258 1.243 . S
C3272 C3273 1.382 . S
C3272 C3276 1.393 . S
C3272 C3279 1.500 . S
C3273 C3272 1.382 . S
C3273 C3274 1.400 . S
C3273 H3284 0.930 . S
C3274 C3273 1.400 . S
C3274 C3275 1.384 . S
C3275 C3274 1.384 . S
C3275 C3277 1.392 . S
C3275 H3285 0.931 . S
C3276 C3272 1.393 . S
C3276 C3277 1.401 . S
C3276 H3286 0.930 . S
C3277 C3275 1.392 . S
C3277 C3276 1.401 . S
C3277 H3287 0.930 . S
C3278 O3256 1.262 . S
C3278 O3257 1.260 . S
C3279 Tb3215 2.833 . S
C3279 O3254 1.251 . S
C3279 O3259 1.256 . S
C3279 C3272 1.500 . S
H3280 C3263 0.930 . S
H3281 C3264 0.931 . S
H3282 C3265 0.930 . S
H3283 C3266 0.930 . S
H3284 C3273 0.930 . S
H3285 C3275 0.931 . S
H3286 C3276 0.930 . S
H3287 C3277 0.930 . S
Tb3288 N3319 2.660 . S
Tb3288 N3326 2.600 . S
Tb3288 O3332 2.546 . S
Tb3288 O3333 2.610 . S
Tb3288 O3335 2.320 . S
Tb3288 O3336 2.552 . S
Tb3288 O3337 2.413 . S
Tb3288 O3339 2.362 . S
Tb3288 O3340 2.421 . S
Tb3288 C3352 2.833 . S
C3289 C3292 1.432 . S
C3289 C3293 1.414 . S
C3289 N3296 1.359 . S
C3290 C3292 1.417 . S
C3290 C3294 1.432 . S
C3290 C3302 1.410 . S
C3291 C3293 1.444 . S
C3291 C3294 1.317 . S
C3291 H3314 0.929 . S
C3292 C3289 1.432 . S
C3292 C3290 1.417 . S
C3292 N3300 1.360 . S
C3293 C3289 1.414 . S
C3293 C3291 1.444 . S
C3293 C3298 1.385 . S
C3294 C3290 1.432 . S
C3294 C3291 1.317 . S
C3294 H3306 0.930 . S
C3295 C3297 1.392 . S
C3295 C3298 1.370 . S
C3295 H3307 0.931 . S
N3296 C3289 1.359 . S
N3296 C3297 1.327 . S
N3296 Tb3299 2.600 . S
C3297 C3295 1.392 . S
C3297 N3296 1.327 . S
C3297 H3304 0.930 . S
C3298 C3293 1.385 . S
C3298 C3295 1.370 . S
C3298 H3317 0.930 . S
Tb3299 N3296 2.600 . S
Tb3299 N3300 2.660 . S
Tb3299 O3333 2.362 . S
Tb3299 O3334 2.421 . S
Tb3299 O3338 2.546 . S
Tb3299 O3339 2.610 . S
Tb3299 O3341 2.320 . S
Tb3299 O3342 2.552 . S
Tb3299 O3343 2.413 . S
Tb3299 C3363 2.833 . S
N3300 C3292 1.360 . S
N3300 Tb3299 2.660 . S
N3300 C3301 1.305 . S
C3301 N3300 1.305 . S
C3301 C3303 1.407 . S
C3301 H3308 0.930 . S
C3302 C3290 1.410 . S
C3302 C3303 1.345 . S
C3302 H3310 0.930 . S
C3303 C3301 1.407 . S
C3303 C3302 1.345 . S
C3303 H3305 0.930 . S
H3304 C3297 0.930 . S
H3305 C3303 0.930 . S
H3306 C3294 0.930 . S
H3307 C3295 0.931 . S
H3308 C3301 0.930 . S
H3309 C3323 0.930 . S
H3310 C3302 0.930 . S
H3311 C3329 0.930 . S
H3312 C3320 0.930 . S
H3313 C3327 0.931 . S
H3314 C3291 0.929 . S
H3315 C3321 0.930 . S
H3316 C3354 0.930 . S
H3317 C3298 0.930 . S
H3318 C3353 0.929 . S
N3319 Tb3288 2.660 . S
N3319 C3320 1.305 . S
N3319 C3324 1.360 . S
C3320 H3312 0.930 . S
C3320 N3319 1.305 . S
C3320 C3323 1.407 . S
C3321 H3315 0.930 . S
C3321 C3322 1.410 . S
C3321 C3323 1.345 . S
C3322 C3321 1.410 . S
C3322 C3324 1.417 . S
C3322 C3354 1.432 . S
C3323 H3309 0.930 . S
C3323 C3320 1.407 . S
C3323 C3321 1.345 . S
C3324 N3319 1.360 . S
C3324 C3322 1.417 . S
C3324 C3328 1.432 . S
H3325 C3330 0.930 . S
N3326 Tb3288 2.600 . S
N3326 C3328 1.359 . S
N3326 C3329 1.327 . S
C3327 H3313 0.931 . S
C3327 C3329 1.392 . S
C3327 C3330 1.370 . S
C3328 C3324 1.432 . S
C3328 N3326 1.359 . S
C3328 C3331 1.414 . S
C3329 H3311 0.930 . S
C3329 N3326 1.327 . S
C3329 C3327 1.392 . S
C3330 H3325 0.930 . S
C3330 C3327 1.370 . S
C3330 C3331 1.385 . S
C3331 C3328 1.414 . S
C3331 C3330 1.385 . S
C3331 C3353 1.444 . S
O3332 Tb3288 2.546 . S
O3332 C3352 1.251 . S
O3333 Tb3288 2.610 . S
O3333 Tb3299 2.362 . S
O3333 C3344 1.283 . S
O3334 Tb3299 2.421 . S
O3334 C3351 1.262 . S
O3335 Tb3288 2.320 . S
O3335 C3351 1.260 . S
O3336 Tb3288 2.552 . S
O3336 C3344 1.243 . S
O3337 Tb3288 2.413 . S
O3337 C3352 1.256 . S
O3338 Tb3299 2.546 . S
O3338 C3363 1.251 . S
O3339 Tb3288 2.362 . S
O3339 Tb3299 2.610 . S
O3339 C3355 1.283 . S
O3340 Tb3288 2.421 . S
O3340 C3362 1.262 . S
O3341 Tb3299 2.320 . S
O3341 C3362 1.260 . S
O3342 Tb3299 2.552 . S
O3342 C3355 1.243 . S
O3343 Tb3299 2.413 . S
O3343 C3363 1.256 . S
C3344 O3333 1.283 . S
C3344 O3336 1.243 . S
C3345 C3347 1.382 . S
C3345 C3349 1.393 . S
C3345 C3352 1.500 . S
C3346 C3347 1.400 . S
C3346 C3348 1.384 . S
C3347 C3345 1.382 . S
C3347 C3346 1.400 . S
C3347 H3364 0.930 . S
C3348 C3346 1.384 . S
C3348 C3350 1.392 . S
C3348 H3365 0.931 . S
C3349 C3345 1.393 . S
C3349 C3350 1.401 . S
C3349 H3366 0.930 . S
C3350 C3348 1.392 . S
C3350 C3349 1.401 . S
C3350 H3367 0.930 . S
C3351 O3334 1.262 . S
C3351 O3335 1.260 . S
C3352 Tb3288 2.833 . S
C3352 O3332 1.251 . S
C3352 O3337 1.256 . S
C3352 C3345 1.500 . S
C3353 H3318 0.929 . S
C3353 C3331 1.444 . S
C3353 C3354 1.317 . S
C3354 H3316 0.930 . S
C3354 C3322 1.432 . S
C3354 C3353 1.317 . S
C3355 O3339 1.283 . S
C3355 O3342 1.243 . S
C3356 C3357 1.382 . S
C3356 C3360 1.393 . S
C3356 C3363 1.500 . S
C3357 C3356 1.382 . S
C3357 C3358 1.400 . S
C3357 H3368 0.930 . S
C3358 C3357 1.400 . S
C3358 C3359 1.384 . S
C3359 C3358 1.384 . S
C3359 C3361 1.392 . S
C3359 H3369 0.931 . S
C3360 C3356 1.393 . S
C3360 C3361 1.401 . S
C3360 H3370 0.930 . S
C3361 C3359 1.392 . S
C3361 C3360 1.401 . S
C3361 H3371 0.930 . S
C3362 O3340 1.262 . S
C3362 O3341 1.260 . S
C3363 Tb3299 2.833 . S
C3363 O3338 1.251 . S
C3363 O3343 1.256 . S
C3363 C3356 1.500 . S
H3364 C3347 0.930 . S
H3365 C3348 0.931 . S
H3366 C3349 0.930 . S
H3367 C3350 0.930 . S
H3368 C3357 0.930 . S
H3369 C3359 0.931 . S
H3370 C3360 0.930 . S
H3371 C3361 0.930 . S
Tb3372 N3403 2.660 . S
Tb3372 N3410 2.600 1_554 S
Tb3372 O3416 2.546 1_554 S
Tb3372 O3417 2.610 . S
Tb3372 O3419 2.320 . S
Tb3372 O3420 2.552 . S
Tb3372 O3421 2.413 . S
Tb3372 O3423 2.362 . S
Tb3372 O3424 2.421 1_554 S
Tb3372 C3436 2.833 1_554 S
C3373 C3376 1.432 . S
C3373 C3377 1.414 . S
C3373 N3380 1.359 1_655 S
C3374 C3376 1.417 . S
C3374 C3378 1.432 . S
C3374 C3386 1.410 1_554 S
C3375 C3377 1.444 . S
C3375 C3378 1.317 . S
C3375 H3398 0.929 . S
C3376 C3373 1.432 . S
C3376 C3374 1.417 . S
C3376 N3384 1.360 1_655 S
C3377 C3373 1.414 . S
C3377 C3375 1.444 . S
C3377 C3382 1.385 . S
C3378 C3374 1.432 . S
C3378 C3375 1.317 . S
C3378 H3390 0.930 . S
C3379 C3381 1.392 . S
C3379 C3382 1.370 1_455 S
C3379 H3391 0.931 . S
N3380 C3373 1.359 1_455 S
N3380 C3381 1.327 . S
N3380 Tb3383 2.600 . S
C3381 C3379 1.392 . S
C3381 N3380 1.327 . S
C3381 H3388 0.930 . S
C3382 C3377 1.385 . S
C3382 C3379 1.370 1_655 S
C3382 H3401 0.930 . S
Tb3383 N3380 2.600 . S
Tb3383 N3384 2.660 . S
Tb3383 O3417 2.362 . S
Tb3383 O3418 2.421 . S
Tb3383 O3422 2.546 . S
Tb3383 O3423 2.610 . S
Tb3383 O3425 2.320 1_554 S
Tb3383 O3426 2.552 . S
Tb3383 O3427 2.413 1_455 S
Tb3383 C3447 2.833 1_455 S
N3384 C3376 1.360 1_455 S
N3384 Tb3383 2.660 . S
N3384 C3385 1.306 1_554 S
C3385 N3384 1.306 1_556 S
C3385 C3387 1.401 1_455 S
C3385 H3392 0.937 . S
C3386 C3374 1.410 1_556 S
C3386 C3387 1.345 . S
C3386 H3394 0.930 . S
C3387 C3385 1.401 1_655 S
C3387 C3386 1.345 . S
C3387 H3389 0.930 . S
H3388 C3381 0.930 . S
H3389 C3387 0.930 . S
H3390 C3378 0.930 . S
H3391 C3379 0.931 . S
H3392 C3385 0.937 . S
H3393 C3407 0.930 . S
H3394 C3386 0.930 . S
H3395 C3413 0.930 . S
H3396 C3404 0.930 . S
H3397 C3411 0.931 . S
H3398 C3375 0.929 . S
H3399 C3405 0.930 . S
H3400 C3438 0.930 . S
H3401 C3382 0.930 . S
H3402 C3437 0.929 . S
N3403 Tb3372 2.660 . S
N3403 C3404 1.305 . S
N3403 C3408 1.360 . S
C3404 H3396 0.930 . S
C3404 N3403 1.305 . S
C3404 C3407 1.407 . S
C3405 H3399 0.930 . S
C3405 C3406 1.410 . S
C3405 C3407 1.345 . S
C3406 C3405 1.410 . S
C3406 C3408 1.417 . S
C3406 C3438 1.432 . S
C3407 H3393 0.930 . S
C3407 C3404 1.407 . S
C3407 C3405 1.345 . S
C3408 N3403 1.360 . S
C3408 C3406 1.417 . S
C3408 C3412 1.432 1_554 S
H3409 C3414 0.930 . S
N3410 Tb3372 2.600 1_556 S
N3410 C3412 1.359 . S
N3410 C3413 1.327 . S
C3411 H3397 0.931 . S
C3411 C3413 1.392 . S
C3411 C3414 1.370 . S
C3412 C3408 1.432 1_556 S
C3412 N3410 1.359 . S
C3412 C3415 1.414 . S
C3413 H3395 0.930 . S
C3413 N3410 1.327 . S
C3413 C3411 1.392 . S
C3414 H3409 0.930 . S
C3414 C3411 1.370 . S
C3414 C3415 1.385 . S
C3415 C3412 1.414 . S
C3415 C3414 1.385 . S
C3415 C3437 1.444 . S
O3416 Tb3372 2.546 1_556 S
O3416 C3436 1.251 . S
O3417 Tb3372 2.610 . S
O3417 Tb3383 2.362 . S
O3417 C3428 1.283 . S
O3418 Tb3383 2.421 . S
O3418 C3435 1.262 . S
O3419 Tb3372 2.320 . S
O3419 C3435 1.260 . S
O3420 Tb3372 2.552 . S
O3420 C3428 1.243 . S
O3421 Tb3372 2.413 . S
O3421 C3436 1.256 1_554 S
O3422 Tb3383 2.546 . S
O3422 C3447 1.251 1_455 S
O3423 Tb3372 2.362 . S
O3423 Tb3383 2.610 . S
O3423 C3439 1.283 . S
O3424 Tb3372 2.421 1_556 S
O3424 C3446 1.262 . S
O3425 Tb3383 2.320 1_556 S
O3425 C3446 1.260 . S
O3426 Tb3383 2.552 . S
O3426 C3439 1.243 . S
O3427 Tb3383 2.413 1_655 S
O3427 C3447 1.256 . S
C3428 O3417 1.283 . S
C3428 O3420 1.243 . S
C3429 C3431 1.382 1_556 S
C3429 C3433 1.393 . S
C3429 C3436 1.500 . S
C3430 C3431 1.405 . S
C3430 C3432 1.358 1_554 S
C3431 C3429 1.382 1_554 S
C3431 C3430 1.405 . S
C3431 H3448 0.930 . S
C3432 C3430 1.358 1_556 S
C3432 C3434 1.392 . S
C3432 H3449 0.931 . S
C3433 C3429 1.393 . S
C3433 C3434 1.401 . S
C3433 H3450 0.930 . S
C3434 C3432 1.392 . S
C3434 C3433 1.401 . S
C3434 H3451 0.930 . S
C3435 O3418 1.262 . S
C3435 O3419 1.260 . S
C3436 Tb3372 2.833 1_556 S
C3436 O3416 1.251 . S
C3436 O3421 1.256 1_556 S
C3436 C3429 1.500 . S
C3437 H3402 0.929 . S
C3437 C3415 1.444 . S
C3437 C3438 1.317 1_556 S
C3438 H3400 0.930 . S
C3438 C3406 1.432 . S
C3438 C3437 1.317 1_554 S
C3439 O3423 1.283 . S
C3439 O3426 1.243 . S
C3440 C3441 1.382 . S
C3440 C3444 1.393 . S
C3440 C3447 1.500 . S
C3441 C3440 1.382 . S
C3441 C3442 1.400 . S
C3441 H3452 0.930 . S
C3442 C3441 1.400 . S
C3442 C3443 1.384 . S
C3443 C3442 1.384 . S
C3443 C3445 1.392 . S
C3443 H3453 0.931 . S
C3444 C3440 1.393 . S
C3444 C3445 1.401 . S
C3444 H3454 0.930 . S
C3445 C3443 1.392 . S
C3445 C3444 1.401 . S
C3445 H3455 0.930 . S
C3446 O3424 1.262 . S
C3446 O3425 1.260 . S
C3447 Tb3383 2.833 1_655 S
C3447 O3422 1.251 1_655 S
C3447 O3427 1.256 . S
C3447 C3440 1.500 . S
H3448 C3431 0.930 . S
H3449 C3432 0.931 . S
H3450 C3433 0.930 . S
H3451 C3434 0.930 . S
H3452 C3441 0.930 . S
H3453 C3443 0.931 . S
H3454 C3444 0.930 . S
H3455 C3445 0.930 . S
H3456 C3468 0.936 . S
H3457 C3470 0.930 . S
H3458 C3471 0.930 . S
H3459 C3475 0.959 . S
H3460 C3475 0.959 . S
H3461 C3475 0.961 . S
H3462 C3476 0.960 . S
H3463 C3476 0.961 . S
H3464 C3476 0.959 1_556 S
H3465 C3479 0.929 . S
H3466 C3480 0.931 . S
H3467 C3482 0.930 . S
C3468 H3456 0.936 . S
C3468 C3469 1.399 1_554 S
C3468 C3473 1.399 . S
C3469 C3468 1.399 1_556 S
C3469 C3470 1.376 . S
C3470 H3457 0.930 . S
C3470 C3469 1.376 . S
C3470 C3471 1.388 . S
C3471 H3458 0.930 . S
C3471 C3470 1.388 . S
C3471 C3472 1.390 . S
C3472 C3471 1.390 . S
C3472 C3473 1.394 1_556 S
C3472 C3478 1.465 . S
C3473 C3468 1.399 . S
C3473 C3472 1.394 1_554 S
C3473 C3474 1.516 . S
C3474 C3473 1.516 . S
C3474 C3475 1.502 . S
C3474 C3476 1.561 1_455 S
C3474 C3477 1.526 . S
C3475 H3459 0.959 . S
C3475 H3460 0.959 . S
C3475 H3461 0.961 . S
C3475 C3474 1.502 . S
C3476 H3462 0.960 . S
C3476 H3463 0.961 . S
C3476 H3464 0.959 1_554 S
C3476 C3474 1.561 1_655 S
C3477 C3474 1.526 . S
C3477 C3478 1.396 1_554 S
C3477 C3482 1.390 . S
C3478 C3472 1.465 . S
C3478 C3477 1.396 1_556 S
C3478 C3479 1.399 . S
C3479 H3465 0.929 . S
C3479 C3478 1.399 . S
C3479 C3480 1.385 . S
C3480 H3466 0.931 . S
C3480 C3479 1.385 . S
C3480 C3481 1.389 1_556 S
C3481 C3480 1.389 1_554 S
C3481 C3482 1.387 . S
C3482 H3467 0.930 . S
C3482 C3477 1.390 . S
C3482 C3481 1.387 . S
H3483 C3495 0.930 . S
H3484 C3497 0.930 . S
H3485 C3498 0.930 . S
H3486 C3502 0.959 . S
H3487 C3502 0.959 . S
H3488 C3502 0.961 . S
H3489 C3503 0.960 . S
H3490 C3503 0.961 . S
H3491 C3503 0.959 . S
H3492 C3506 0.929 . S
H3493 C3507 0.931 . S
H3494 C3509 0.930 . S
C3495 H3483 0.930 . S
C3495 C3496 1.399 . S
C3495 C3500 1.399 . S
C3496 C3495 1.399 . S
C3496 C3497 1.376 . S
C3497 H3484 0.930 . S
C3497 C3496 1.376 . S
C3497 C3498 1.388 . S
C3498 H3485 0.930 . S
C3498 C3497 1.388 . S
C3498 C3499 1.390 . S
C3499 C3498 1.390 . S
C3499 C3500 1.394 . S
C3499 C3505 1.465 . S
C3500 C3495 1.399 . S
C3500 C3499 1.394 . S
C3500 C3501 1.516 . S
C3501 C3500 1.516 . S
C3501 C3502 1.502 . S
C3501 C3503 1.561 . S
C3501 C3504 1.526 . S
C3502 H3486 0.959 . S
C3502 H3487 0.959 . S
C3502 H3488 0.961 . S
C3502 C3501 1.502 . S
C3503 H3489 0.960 . S
C3503 H3490 0.961 . S
C3503 H3491 0.959 . S
C3503 C3501 1.561 . S
C3504 C3501 1.526 . S
C3504 C3505 1.396 . S
C3504 C3509 1.390 . S
C3505 C3499 1.465 . S
C3505 C3504 1.396 . S
C3505 C3506 1.399 . S
C3506 H3492 0.929 . S
C3506 C3505 1.399 . S
C3506 C3507 1.385 . S
C3507 H3493 0.931 . S
C3507 C3506 1.385 . S
C3507 C3508 1.389 . S
C3508 C3507 1.389 . S
C3508 C3509 1.387 . S
C3509 H3494 0.930 . S
C3509 C3504 1.390 . S
C3509 C3508 1.387 . S
H3510 C3522 0.930 . S
H3511 C3524 0.930 . S
H3512 C3525 0.930 . S
H3513 C3529 0.959 . S
H3514 C3529 0.959 . S
H3515 C3529 0.961 . S
H3516 C3530 0.960 . S
H3517 C3530 0.961 . S
H3518 C3530 0.959 . S
H3519 C3533 0.929 . S
H3520 C3534 0.931 . S
H3521 C3536 0.930 . S
C3522 H3510 0.930 . S
C3522 C3523 1.399 . S
C3522 C3527 1.399 . S
C3523 C3522 1.399 . S
C3523 C3524 1.376 . S
C3524 H3511 0.930 . S
C3524 C3523 1.376 . S
C3524 C3525 1.388 . S
C3525 H3512 0.930 . S
C3525 C3524 1.388 . S
C3525 C3526 1.390 . S
C3526 C3525 1.390 . S
C3526 C3527 1.394 . S
C3526 C3532 1.465 . S
C3527 C3522 1.399 . S
C3527 C3526 1.394 . S
C3527 C3528 1.516 . S
C3528 C3527 1.516 . S
C3528 C3529 1.502 . S
C3528 C3530 1.561 . S
C3528 C3531 1.526 . S
C3529 H3513 0.959 . S
C3529 H3514 0.959 . S
C3529 H3515 0.961 . S
C3529 C3528 1.502 . S
C3530 H3516 0.960 . S
C3530 H3517 0.961 . S
C3530 H3518 0.959 . S
C3530 C3528 1.561 . S
C3531 C3528 1.526 . S
C3531 C3532 1.396 . S
C3531 C3536 1.390 . S
C3532 C3526 1.465 . S
C3532 C3531 1.396 . S
C3532 C3533 1.399 . S
C3533 H3519 0.929 . S
C3533 C3532 1.399 . S
C3533 C3534 1.385 . S
C3534 H3520 0.931 . S
C3534 C3533 1.385 . S
C3534 C3535 1.389 . S
C3535 C3534 1.389 . S
C3535 C3536 1.387 . S
C3536 H3521 0.930 . S
C3536 C3531 1.390 . S
C3536 C3535 1.387 . S
H3537 C3549 0.930 . S
H3538 C3551 0.930 . S
H3539 C3552 0.930 . S
H3540 C3556 0.959 . S
H3541 C3556 0.959 . S
H3542 C3556 0.961 . S
H3543 C3557 0.960 . S
H3544 C3557 0.961 . S
H3545 C3557 0.959 . S
H3546 C3560 0.929 . S
H3547 C3561 0.931 . S
H3548 C3563 0.930 . S
C3549 H3537 0.930 . S
C3549 C3550 1.399 . S
C3549 C3554 1.399 . S
C3550 C3549 1.399 . S
C3550 C3551 1.376 . S
C3551 H3538 0.930 . S
C3551 C3550 1.376 . S
C3551 C3552 1.388 . S
C3552 H3539 0.930 . S
C3552 C3551 1.388 . S
C3552 C3553 1.390 . S
C3553 C3552 1.390 . S
C3553 C3554 1.394 . S
C3553 C3559 1.465 . S
C3554 C3549 1.399 . S
C3554 C3553 1.394 . S
C3554 C3555 1.516 . S
C3555 C3554 1.516 . S
C3555 C3556 1.502 . S
C3555 C3557 1.561 . S
C3555 C3558 1.526 . S
C3556 H3540 0.959 . S
C3556 H3541 0.959 . S
C3556 H3542 0.961 . S
C3556 C3555 1.502 . S
C3557 H3543 0.960 . S
C3557 H3544 0.961 . S
C3557 H3545 0.959 . S
C3557 C3555 1.561 . S
C3558 C3555 1.526 . S
C3558 C3559 1.396 . S
C3558 C3563 1.390 . S
C3559 C3553 1.465 . S
C3559 C3558 1.396 . S
C3559 C3560 1.399 . S
C3560 H3546 0.929 . S
C3560 C3559 1.399 . S
C3560 C3561 1.385 . S
C3561 H3547 0.931 . S
C3561 C3560 1.385 . S
C3561 C3562 1.389 . S
C3562 C3561 1.389 . S
C3562 C3563 1.387 . S
C3563 H3548 0.930 . S
C3563 C3558 1.390 . S
C3563 C3562 1.387 . S
H3564 C3576 0.930 . S
H3565 C3578 0.930 . S
H3566 C3579 0.930 . S
H3567 C3583 0.959 . S
H3568 C3583 0.959 . S
H3569 C3583 0.961 . S
H3570 C3584 0.960 . S
H3571 C3584 0.961 . S
H3572 C3584 0.959 . S
H3573 C3587 0.887 1_655 S
H3574 C3588 0.931 . S
H3575 C3590 0.930 . S
C3576 H3564 0.930 . S
C3576 C3577 1.399 . S
C3576 C3581 1.399 . S
C3577 C3576 1.399 . S
C3577 C3578 1.376 1_455 S
C3578 H3565 0.930 . S
C3578 C3577 1.376 1_655 S
C3578 C3579 1.388 . S
C3579 H3566 0.930 . S
C3579 C3578 1.388 . S
C3579 C3580 1.390 1_655 S
C3580 C3579 1.390 1_455 S
C3580 C3581 1.394 . S
C3580 C3586 1.465 . S
C3581 C3576 1.399 . S
C3581 C3580 1.394 . S
C3581 C3582 1.516 . S
C3582 C3581 1.516 . S
C3582 C3583 1.502 . S
C3582 C3584 1.561 . S
C3582 C3585 1.526 . S
C3583 H3567 0.959 . S
C3583 H3568 0.959 . S
C3583 H3569 0.961 . S
C3583 C3582 1.502 . S
C3584 H3570 0.960 . S
C3584 H3571 0.961 . S
C3584 H3572 0.959 . S
C3584 C3582 1.561 . S
C3585 C3582 1.526 . S
C3585 C3586 1.396 . S
C3585 C3590 1.390 . S
C3586 C3580 1.465 . S
C3586 C3585 1.396 . S
C3586 C3587 1.399 . S
C3587 H3573 0.887 1_455 S
C3587 C3586 1.399 . S
C3587 C3588 1.385 . S
C3588 H3574 0.931 . S
C3588 C3587 1.385 . S
C3588 C3589 1.389 . S
C3589 C3588 1.389 . S
C3589 C3590 1.387 . S
C3590 H3575 0.930 . S
C3590 C3585 1.390 . S
C3590 C3589 1.387 . S
H3591 C3603 0.930 . S
H3592 C3605 0.930 . S
H3593 C3606 0.930 . S
H3594 C3610 0.959 . S
H3595 C3610 0.959 . S
H3596 C3610 0.961 . S
H3597 C3611 0.960 . S
H3598 C3611 0.961 . S
H3599 C3611 0.959 . S
H3600 C3614 0.929 . S
H3601 C3615 0.931 . S
H3602 C3617 0.930 . S
C3603 H3591 0.930 . S
C3603 C3604 1.399 . S
C3603 C3608 1.399 . S
C3604 C3603 1.399 . S
C3604 C3605 1.376 . S
C3605 H3592 0.930 . S
C3605 C3604 1.376 . S
C3605 C3606 1.388 . S
C3606 H3593 0.930 . S
C3606 C3605 1.388 . S
C3606 C3607 1.390 . S
C3607 C3606 1.390 . S
C3607 C3608 1.394 . S
C3607 C3613 1.465 . S
C3608 C3603 1.399 . S
C3608 C3607 1.394 . S
C3608 C3609 1.516 . S
C3609 C3608 1.516 . S
C3609 C3610 1.502 . S
C3609 C3611 1.561 . S
C3609 C3612 1.526 . S
C3610 H3594 0.959 . S
C3610 H3595 0.959 . S
C3610 H3596 0.961 . S
C3610 C3609 1.502 . S
C3611 H3597 0.960 . S
C3611 H3598 0.961 . S
C3611 H3599 0.959 . S
C3611 C3609 1.561 . S
C3612 C3609 1.526 . S
C3612 C3613 1.396 . S
C3612 C3617 1.390 . S
C3613 C3607 1.465 . S
C3613 C3612 1.396 . S
C3613 C3614 1.399 . S
C3614 H3600 0.929 . S
C3614 C3613 1.399 . S
C3614 C3615 1.385 . S
C3615 H3601 0.931 . S
C3615 C3614 1.385 . S
C3615 C3616 1.389 . S
C3616 C3615 1.389 . S
C3616 C3617 1.387 . S
C3617 H3602 0.930 . S
C3617 C3612 1.390 . S
C3617 C3616 1.387 . S
H3618 C3630 0.930 . S
H3619 C3632 0.930 . S
H3620 C3633 0.930 . S
H3621 C3637 0.959 . S
H3622 C3637 0.959 . S
H3623 C3637 0.961 . S
H3624 C3638 0.960 . S
H3625 C3638 0.961 . S
H3626 C3638 0.959 . S
H3627 C3641 0.929 . S
H3628 C3642 0.931 . S
H3629 C3644 0.930 . S
C3630 H3618 0.930 . S
C3630 C3631 1.399 . S
C3630 C3635 1.399 . S
C3631 C3630 1.399 . S
C3631 C3632 1.376 . S
C3632 H3619 0.930 . S
C3632 C3631 1.376 . S
C3632 C3633 1.388 . S
C3633 H3620 0.930 . S
C3633 C3632 1.388 . S
C3633 C3634 1.390 . S
C3634 C3633 1.390 . S
C3634 C3635 1.394 . S
C3634 C3640 1.465 . S
C3635 C3630 1.399 . S
C3635 C3634 1.394 . S
C3635 C3636 1.516 . S
C3636 C3635 1.516 . S
C3636 C3637 1.502 . S
C3636 C3638 1.561 . S
C3636 C3639 1.526 . S
C3637 H3621 0.959 . S
C3637 H3622 0.959 . S
C3637 H3623 0.961 . S
C3637 C3636 1.502 . S
C3638 H3624 0.960 . S
C3638 H3625 0.961 . S
C3638 H3626 0.959 . S
C3638 C3636 1.561 . S
C3639 C3636 1.526 . S
C3639 C3640 1.396 . S
C3639 C3644 1.390 . S
C3640 C3634 1.465 . S
C3640 C3639 1.396 . S
C3640 C3641 1.399 . S
C3641 H3627 0.929 . S
C3641 C3640 1.399 . S
C3641 C3642 1.385 . S
C3642 H3628 0.931 . S
C3642 C3641 1.385 . S
C3642 C3643 1.389 . S
C3643 C3642 1.389 . S
C3643 C3644 1.387 . S
C3644 H3629 0.930 . S
C3644 C3639 1.390 . S
C3644 C3643 1.387 . S
H3645 C3657 0.930 . S
H3646 C3659 0.930 . S
H3647 C3660 0.930 . S
H3648 C3664 0.959 . S
H3649 C3664 0.959 . S
H3650 C3664 0.961 . S
H3651 C3665 0.960 . S
H3652 C3665 0.961 . S
H3653 C3665 0.959 . S
H3654 C3668 0.929 . S
H3655 C3669 0.931 . S
H3656 C3671 0.930 . S
C3657 H3645 0.930 . S
C3657 C3658 1.399 . S
C3657 C3662 1.399 . S
C3658 C3657 1.399 . S
C3658 C3659 1.376 . S
C3659 H3646 0.930 . S
C3659 C3658 1.376 . S
C3659 C3660 1.388 . S
C3660 H3647 0.930 . S
C3660 C3659 1.388 . S
C3660 C3661 1.390 . S
C3661 C3660 1.390 . S
C3661 C3662 1.394 . S
C3661 C3667 1.465 . S
C3662 C3657 1.399 . S
C3662 C3661 1.394 . S
C3662 C3663 1.516 . S
C3663 C3662 1.516 . S
C3663 C3664 1.502 . S
C3663 C3665 1.561 . S
C3663 C3666 1.526 . S
C3664 H3648 0.959 . S
C3664 H3649 0.959 . S
C3664 H3650 0.961 . S
C3664 C3663 1.502 . S
C3665 H3651 0.960 . S
C3665 H3652 0.961 . S
C3665 H3653 0.959 . S
C3665 C3663 1.561 . S
C3666 C3663 1.526 . S
C3666 C3667 1.396 . S
C3666 C3671 1.390 . S
C3667 C3661 1.465 . S
C3667 C3666 1.396 . S
C3667 C3668 1.399 . S
C3668 H3654 0.929 . S
C3668 C3667 1.399 . S
C3668 C3669 1.385 . S
C3669 H3655 0.931 . S
C3669 C3668 1.385 . S
C3669 C3670 1.389 . S
C3670 C3669 1.389 . S
C3670 C3671 1.387 . S
C3671 H3656 0.930 . S
C3671 C3666 1.390 . S
C3671 C3670 1.387 . S
H3672 C3684 0.930 . S
H3673 C3686 0.930 . S
H3674 C3687 0.930 . S
H3675 C3691 0.959 . S
H3676 C3691 0.959 . S
H3677 C3691 0.961 . S
H3678 C3692 0.960 . S
H3679 C3692 0.961 . S
H3680 C3692 0.959 . S
H3681 C3695 0.929 . S
H3682 C3696 0.931 . S
H3683 C3698 0.930 . S
C3684 H3672 0.930 . S
C3684 C3685 1.399 1_455 S
C3684 C3689 1.399 . S
C3685 C3684 1.399 1_655 S
C3685 C3686 1.376 . S
C3686 H3673 0.930 . S
C3686 C3685 1.376 . S
C3686 C3687 1.388 . S
C3687 H3674 0.930 . S
C3687 C3686 1.388 . S
C3687 C3688 1.390 1_655 S
C3688 C3687 1.390 1_455 S
C3688 C3689 1.394 . S
C3688 C3694 1.465 . S
C3689 C3684 1.399 . S
C3689 C3688 1.394 . S
C3689 C3690 1.516 . S
C3690 C3689 1.516 . S
C3690 C3691 1.502 . S
C3690 C3692 1.561 . S
C3690 C3693 1.526 . S
C3691 H3675 0.959 . S
C3691 H3676 0.959 . S
C3691 H3677 0.961 . S
C3691 C3690 1.502 . S
C3692 H3678 0.960 . S
C3692 H3679 0.961 . S
C3692 H3680 0.959 . S
C3692 C3690 1.561 . S
C3693 C3690 1.526 . S
C3693 C3694 1.396 . S
C3693 C3698 1.390 . S
C3694 C3688 1.465 . S
C3694 C3693 1.396 . S
C3694 C3695 1.399 1_455 S
C3695 H3681 0.929 . S
C3695 C3694 1.399 1_655 S
C3695 C3696 1.385 1_655 S
C3696 H3682 0.931 . S
C3696 C3695 1.385 1_455 S
C3696 C3697 1.389 . S
C3697 C3696 1.389 . S
C3697 C3698 1.387 . S
C3698 H3683 0.930 . S
C3698 C3693 1.390 . S
C3698 C3697 1.387 . S
H3699 C3711 0.930 . S
H3700 C3713 0.930 . S
H3701 C3714 0.930 . S
H3702 C3718 0.959 . S
H3703 C3718 0.959 . S
H3704 C3718 0.961 . S
H3705 C3719 0.960 . S
H3706 C3719 0.961 . S
H3707 C3719 0.959 . S
H3708 C3722 0.929 . S
H3709 C3723 0.931 . S
H3710 C3725 0.930 . S
C3711 H3699 0.930 . S
C3711 C3712 1.399 . S
C3711 C3716 1.399 . S
C3712 C3711 1.399 . S
C3712 C3713 1.376 . S
C3713 H3700 0.930 . S
C3713 C3712 1.376 . S
C3713 C3714 1.388 . S
C3714 H3701 0.930 . S
C3714 C3713 1.388 . S
C3714 C3715 1.390 . S
C3715 C3714 1.390 . S
C3715 C3716 1.394 . S
C3715 C3721 1.465 . S
C3716 C3711 1.399 . S
C3716 C3715 1.394 . S
C3716 C3717 1.516 . S
C3717 C3716 1.516 . S
C3717 C3718 1.502 . S
C3717 C3719 1.561 . S
C3717 C3720 1.526 . S
C3718 H3702 0.959 . S
C3718 H3703 0.959 . S
C3718 H3704 0.961 . S
C3718 C3717 1.502 . S
C3719 H3705 0.960 . S
C3719 H3706 0.961 . S
C3719 H3707 0.959 . S
C3719 C3717 1.561 . S
C3720 C3717 1.526 . S
C3720 C3721 1.396 . S
C3720 C3725 1.390 . S
C3721 C3715 1.465 . S
C3721 C3720 1.396 . S
C3721 C3722 1.399 . S
C3722 H3708 0.929 . S
C3722 C3721 1.399 . S
C3722 C3723 1.385 . S
C3723 H3709 0.931 . S
C3723 C3722 1.385 . S
C3723 C3724 1.389 . S
C3724 C3723 1.389 . S
C3724 C3725 1.387 . S
C3725 H3710 0.930 . S
C3725 C3720 1.390 . S
C3725 C3724 1.387 . S
H3726 C3738 0.930 . S
H3727 C3740 0.940 . S
H3728 C3741 0.930 1_565 S
H3729 C3745 0.959 . S
H3730 C3745 0.959 . S
H3731 C3745 0.961 . S
H3732 C3746 0.960 . S
H3733 C3746 0.961 . S
H3734 C3746 0.959 . S
H3735 C3749 0.929 1_565 S
H3736 C3750 0.943 . S
H3737 C3752 0.930 . S
C3738 H3726 0.930 . S
C3738 C3739 1.399 . S
C3738 C3743 1.399 . S
C3739 C3738 1.399 . S
C3739 C3740 1.376 . S
C3740 H3727 0.940 . S
C3740 C3739 1.376 . S
C3740 C3741 1.388 . S
C3741 H3728 0.930 1_545 S
C3741 C3740 1.388 . S
C3741 C3742 1.390 . S
C3742 C3741 1.390 . S
C3742 C3743 1.394 . S
C3742 C3748 1.465 . S
C3743 C3738 1.399 . S
C3743 C3742 1.394 . S
C3743 C3744 1.516 . S
C3744 C3743 1.516 . S
C3744 C3745 1.502 . S
C3744 C3746 1.561 . S
C3744 C3747 1.526 . S
C3745 H3729 0.959 . S
C3745 H3730 0.959 . S
C3745 H3731 0.961 . S
C3745 C3744 1.502 . S
C3746 H3732 0.960 . S
C3746 H3733 0.961 . S
C3746 H3734 0.959 . S
C3746 C3744 1.561 . S
C3747 C3744 1.526 . S
C3747 C3748 1.396 . S
C3747 C3752 1.390 . S
C3748 C3742 1.465 . S
C3748 C3747 1.396 . S
C3748 C3749 1.399 . S
C3749 H3735 0.929 1_545 S
C3749 C3748 1.399 . S
C3749 C3750 1.385 . S
C3750 H3736 0.943 . S
C3750 C3749 1.385 . S
C3750 C3751 1.389 . S
C3751 C3750 1.389 . S
C3751 C3752 1.387 . S
C3752 H3737 0.930 . S
C3752 C3747 1.390 . S
C3752 C3751 1.387 . S
H3753 C3765 0.930 . S
H3754 C3767 0.930 . S
H3755 C3768 0.930 . S
H3756 C3772 0.959 . S
H3757 C3772 0.959 . S
H3758 C3772 0.961 . S
H3759 C3773 0.960 . S
H3760 C3773 0.961 . S
H3761 C3773 0.959 . S
H3762 C3776 0.929 . S
H3763 C3777 0.931 . S
H3764 C3779 0.930 . S
C3765 H3753 0.930 . S
C3765 C3766 1.399 . S
C3765 C3770 1.399 . S
C3766 C3765 1.399 . S
C3766 C3767 1.376 . S
C3767 H3754 0.930 . S
C3767 C3766 1.376 . S
C3767 C3768 1.388 . S
C3768 H3755 0.930 . S
C3768 C3767 1.388 . S
C3768 C3769 1.390 . S
C3769 C3768 1.390 . S
C3769 C3770 1.394 . S
C3769 C3775 1.465 . S
C3770 C3765 1.399 . S
C3770 C3769 1.394 . S
C3770 C3771 1.516 . S
C3771 C3770 1.516 . S
C3771 C3772 1.502 . S
C3771 C3773 1.561 . S
C3771 C3774 1.526 . S
C3772 H3756 0.959 . S
C3772 H3757 0.959 . S
C3772 H3758 0.961 . S
C3772 C3771 1.502 . S
C3773 H3759 0.960 . S
C3773 H3760 0.961 . S
C3773 H3761 0.959 . S
C3773 C3771 1.561 . S
C3774 C3771 1.526 . S
C3774 C3775 1.396 . S
C3774 C3779 1.390 . S
C3775 C3769 1.465 . S
C3775 C3774 1.396 . S
C3775 C3776 1.399 . S
C3776 H3762 0.929 . S
C3776 C3775 1.399 . S
C3776 C3777 1.385 . S
C3777 H3763 0.931 . S
C3777 C3776 1.385 . S
C3777 C3778 1.389 . S
C3778 C3777 1.389 . S
C3778 C3779 1.387 . S
C3779 H3764 0.930 . S
C3779 C3774 1.390 . S
C3779 C3778 1.387 . S
H3780 C3792 0.930 . S
H3781 C3794 0.930 . S
H3782 C3795 0.930 . S
H3783 C3799 0.959 . S
H3784 C3799 0.959 . S
H3785 C3799 0.961 . S
H3786 C3800 0.960 . S
H3787 C3800 0.961 . S
H3788 C3800 0.959 . S
H3789 C3803 0.929 1_655 S
H3790 C3804 0.931 . S
H3791 C3806 0.930 . S
C3792 H3780 0.930 . S
C3792 C3793 1.399 . S
C3792 C3797 1.399 . S
C3793 C3792 1.399 . S
C3793 C3794 1.376 1_455 S
C3794 H3781 0.930 . S
C3794 C3793 1.376 1_655 S
C3794 C3795 1.388 . S
C3795 H3782 0.930 . S
C3795 C3794 1.388 . S
C3795 C3796 1.390 1_655 S
C3796 C3795 1.390 1_455 S
C3796 C3797 1.394 . S
C3796 C3802 1.465 . S
C3797 C3792 1.399 . S
C3797 C3796 1.394 . S
C3797 C3798 1.516 . S
C3798 C3797 1.516 . S
C3798 C3799 1.502 . S
C3798 C3800 1.561 . S
C3798 C3801 1.526 . S
C3799 H3783 0.959 . S
C3799 H3784 0.959 . S
C3799 H3785 0.961 . S
C3799 C3798 1.502 . S
C3800 H3786 0.960 . S
C3800 H3787 0.961 . S
C3800 H3788 0.959 . S
C3800 C3798 1.561 . S
C3801 C3798 1.526 . S
C3801 C3802 1.396 . S
C3801 C3806 1.390 . S
C3802 C3796 1.465 . S
C3802 C3801 1.396 . S
C3802 C3803 1.399 . S
C3803 H3789 0.929 1_455 S
C3803 C3802 1.399 . S
C3803 C3804 1.385 . S
C3804 H3790 0.931 . S
C3804 C3803 1.385 . S
C3804 C3805 1.389 . S
C3805 C3804 1.389 . S
C3805 C3806 1.387 . S
C3806 H3791 0.930 . S
C3806 C3801 1.390 . S
C3806 C3805 1.387 . S
H3807 C3819 0.930 . S
H3808 C3821 0.930 . S
H3809 C3822 0.930 . S
H3810 C3826 0.959 . S
H3811 C3826 0.959 . S
H3812 C3826 0.961 . S
H3813 C3827 0.960 . S
H3814 C3827 0.961 . S
H3815 C3827 0.959 . S
H3816 C3830 0.929 . S
H3817 C3831 0.931 . S
H3818 C3833 0.930 . S
C3819 H3807 0.930 . S
C3819 C3820 1.399 . S
C3819 C3824 1.399 . S
C3820 C3819 1.399 . S
C3820 C3821 1.376 . S
C3821 H3808 0.930 . S
C3821 C3820 1.376 . S
C3821 C3822 1.388 . S
C3822 H3809 0.930 . S
C3822 C3821 1.388 . S
C3822 C3823 1.390 . S
C3823 C3822 1.390 . S
C3823 C3824 1.394 . S
C3823 C3829 1.465 . S
C3824 C3819 1.399 . S
C3824 C3823 1.394 . S
C3824 C3825 1.516 . S
C3825 C3824 1.516 . S
C3825 C3826 1.502 . S
C3825 C3827 1.561 . S
C3825 C3828 1.526 . S
C3826 H3810 0.959 . S
C3826 H3811 0.959 . S
C3826 H3812 0.961 . S
C3826 C3825 1.502 . S
C3827 H3813 0.960 . S
C3827 H3814 0.961 . S
C3827 H3815 0.959 . S
C3827 C3825 1.561 . S
C3828 C3825 1.526 . S
C3828 C3829 1.396 . S
C3828 C3833 1.390 . S
C3829 C3823 1.465 . S
C3829 C3828 1.396 . S
C3829 C3830 1.399 . S
C3830 H3816 0.929 . S
C3830 C3829 1.399 . S
C3830 C3831 1.385 . S
C3831 H3817 0.931 . S
C3831 C3830 1.385 . S
C3831 C3832 1.389 . S
C3832 C3831 1.389 . S
C3832 C3833 1.387 . S
C3833 H3818 0.930 . S
C3833 C3828 1.390 . S
C3833 C3832 1.387 . S
H3834 C3846 0.930 . S
H3835 C3848 0.930 . S
H3836 C3849 0.930 . S
H3837 C3853 0.959 . S
H3838 C3853 0.959 . S
H3839 C3853 0.961 . S
H3840 C3854 0.960 . S
H3841 C3854 0.961 . S
H3842 C3854 0.959 . S
H3843 C3857 0.929 . S
H3844 C3858 0.931 . S
H3845 C3860 0.930 . S
C3846 H3834 0.930 . S
C3846 C3847 1.399 . S
C3846 C3851 1.399 . S
C3847 C3846 1.399 . S
C3847 C3848 1.376 . S
C3848 H3835 0.930 . S
C3848 C3847 1.376 . S
C3848 C3849 1.388 . S
C3849 H3836 0.930 . S
C3849 C3848 1.388 . S
C3849 C3850 1.390 . S
C3850 C3849 1.390 . S
C3850 C3851 1.394 . S
C3850 C3856 1.465 . S
C3851 C3846 1.399 . S
C3851 C3850 1.394 . S
C3851 C3852 1.516 . S
C3852 C3851 1.516 . S
C3852 C3853 1.502 . S
C3852 C3854 1.561 . S
C3852 C3855 1.526 . S
C3853 H3837 0.959 . S
C3853 H3838 0.959 . S
C3853 H3839 0.961 . S
C3853 C3852 1.502 . S
C3854 H3840 0.960 . S
C3854 H3841 0.961 . S
C3854 H3842 0.959 . S
C3854 C3852 1.561 . S
C3855 C3852 1.526 . S
C3855 C3856 1.396 . S
C3855 C3860 1.390 . S
C3856 C3850 1.465 . S
C3856 C3855 1.396 . S
C3856 C3857 1.399 . S
C3857 H3843 0.929 . S
C3857 C3856 1.399 . S
C3857 C3858 1.385 . S
C3858 H3844 0.931 . S
C3858 C3857 1.385 . S
C3858 C3859 1.389 . S
C3859 C3858 1.389 . S
C3859 C3860 1.387 . S
C3860 H3845 0.930 . S
C3860 C3855 1.390 . S
C3860 C3859 1.387 . S
H3861 C3873 0.930 . S
H3862 C3875 0.930 . S
H3863 C3876 0.930 . S
H3864 C3880 0.959 . S
H3865 C3880 0.959 . S
H3866 C3880 0.961 . S
H3867 C3881 0.960 . S
H3868 C3881 0.961 . S
H3869 C3881 0.959 . S
H3870 C3884 0.929 . S
H3871 C3885 0.931 . S
H3872 C3887 0.930 . S
C3873 H3861 0.930 . S
C3873 C3874 1.399 . S
C3873 C3878 1.399 . S
C3874 C3873 1.399 . S
C3874 C3875 1.376 . S
C3875 H3862 0.930 . S
C3875 C3874 1.376 . S
C3875 C3876 1.388 . S
C3876 H3863 0.930 . S
C3876 C3875 1.388 . S
C3876 C3877 1.390 . S
C3877 C3876 1.390 . S
C3877 C3878 1.394 . S
C3877 C3883 1.465 . S
C3878 C3873 1.399 . S
C3878 C3877 1.394 . S
C3878 C3879 1.516 . S
C3879 C3878 1.516 . S
C3879 C3880 1.502 . S
C3879 C3881 1.561 . S
C3879 C3882 1.526 . S
C3880 H3864 0.959 . S
C3880 H3865 0.959 . S
C3880 H3866 0.961 . S
C3880 C3879 1.502 . S
C3881 H3867 0.960 . S
C3881 H3868 0.961 . S
C3881 H3869 0.959 . S
C3881 C3879 1.561 . S
C3882 C3879 1.526 . S
C3882 C3883 1.396 . S
C3882 C3887 1.390 . S
C3883 C3877 1.465 . S
C3883 C3882 1.396 . S
C3883 C3884 1.399 . S
C3884 H3870 0.929 . S
C3884 C3883 1.399 . S
C3884 C3885 1.385 . S
C3885 H3871 0.931 . S
C3885 C3884 1.385 . S
C3885 C3886 1.389 . S
C3886 C3885 1.389 . S
C3886 C3887 1.387 . S
C3887 H3872 0.930 . S
C3887 C3882 1.390 . S
C3887 C3886 1.387 . S
H3888 C3900 0.904 1_556 S
H3889 C3902 0.930 . S
H3890 C3903 0.930 . S
H3891 C3907 0.959 . S
H3892 C3907 0.959 . S
H3893 C3907 0.961 . S
H3894 C3908 0.960 . S
H3895 C3908 0.961 . S
H3896 C3908 0.959 . S
H3897 C3911 0.929 . S
H3898 C3912 0.931 . S
H3899 C3914 0.930 . S
C3900 H3888 0.904 1_554 S
C3900 C3901 1.399 . S
C3900 C3905 1.399 . S
C3901 C3900 1.399 . S
C3901 C3902 1.376 1_565 S
C3902 H3889 0.930 . S
C3902 C3901 1.376 1_545 S
C3902 C3903 1.388 . S
C3903 H3890 0.930 . S
C3903 C3902 1.388 . S
C3903 C3904 1.390 . S
C3904 C3903 1.390 . S
C3904 C3905 1.394 1_545 S
C3904 C3910 1.465 . S
C3905 C3900 1.399 . S
C3905 C3904 1.394 1_565 S
C3905 C3906 1.516 . S
C3906 C3905 1.516 . S
C3906 C3907 1.502 1_554 S
C3906 C3908 1.561 . S
C3906 C3909 1.526 . S
C3907 H3891 0.959 . S
C3907 H3892 0.959 . S
C3907 H3893 0.961 . S
C3907 C3906 1.502 1_556 S
C3908 H3894 0.960 . S
C3908 H3895 0.961 . S
C3908 H3896 0.959 . S
C3908 C3906 1.561 . S
C3909 C3906 1.526 . S
C3909 C3910 1.396 1_565 S
C3909 C3914 1.390 . S
C3910 C3904 1.465 . S
C3910 C3909 1.396 1_545 S
C3910 C3911 1.399 . S
C3911 H3897 0.929 . S
C3911 C3910 1.399 . S
C3911 C3912 1.385 . S
C3912 H3898 0.931 . S
C3912 C3911 1.385 . S
C3912 C3913 1.389 . S
C3913 C3912 1.389 . S
C3913 C3914 1.387 1_545 S
C3914 H3899 0.930 . S
C3914 C3909 1.390 . S
C3914 C3913 1.387 1_565 S
H3915 C3927 0.930 . S
H3916 C3929 0.930 . S
H3917 C3930 0.930 . S
H3918 C3934 0.959 . S
H3919 C3934 0.959 . S
H3920 C3934 0.961 . S
H3921 C3935 0.960 . S
H3922 C3935 0.961 . S
H3923 C3935 0.959 . S
H3924 C3938 0.929 . S
H3925 C3939 0.931 . S
H3926 C3941 0.930 . S
C3927 H3915 0.930 . S
C3927 C3928 1.399 . S
C3927 C3932 1.399 . S
C3928 C3927 1.399 . S
C3928 C3929 1.376 1_556 S
C3929 H3916 0.930 . S
C3929 C3928 1.376 1_554 S
C3929 C3930 1.388 . S
C3930 H3917 0.930 . S
C3930 C3929 1.388 . S
C3930 C3931 1.390 . S
C3931 C3930 1.390 . S
C3931 C3932 1.394 1_554 S
C3931 C3937 1.465 . S
C3932 C3927 1.399 . S
C3932 C3931 1.394 1_556 S
C3932 C3933 1.516 . S
C3933 C3932 1.516 . S
C3933 C3934 1.502 . S
C3933 C3935 1.561 . S
C3933 C3936 1.526 . S
C3934 H3918 0.959 . S
C3934 H3919 0.959 . S
C3934 H3920 0.961 . S
C3934 C3933 1.502 . S
C3935 H3921 0.960 . S
C3935 H3922 0.961 . S
C3935 H3923 0.959 . S
C3935 C3933 1.561 . S
C3936 C3933 1.526 . S
C3936 C3937 1.396 1_556 S
C3936 C3941 1.390 . S
C3937 C3931 1.465 . S
C3937 C3936 1.396 1_554 S
C3937 C3938 1.399 . S
C3938 H3924 0.929 . S
C3938 C3937 1.399 . S
C3938 C3939 1.385 . S
C3939 H3925 0.931 . S
C3939 C3938 1.385 . S
C3939 C3940 1.389 . S
C3940 C3939 1.389 . S
C3940 C3941 1.387 1_554 S
C3941 H3926 0.930 . S
C3941 C3936 1.390 . S
C3941 C3940 1.387 1_556 S
H3942 C3954 0.930 . S
H3943 C3956 0.930 . S
H3944 C3957 0.930 . S
H3945 C3961 0.959 . S
H3946 C3961 0.959 . S
H3947 C3961 0.961 . S
H3948 C3962 0.960 . S
H3949 C3962 0.961 . S
H3950 C3962 0.959 . S
H3951 C3965 0.929 . S
H3952 C3966 0.931 . S
H3953 C3968 0.930 . S
C3954 H3942 0.930 . S
C3954 C3955 1.399 . S
C3954 C3959 1.399 . S
C3955 C3954 1.399 . S
C3955 C3956 1.376 . S
C3956 H3943 0.930 . S
C3956 C3955 1.376 . S
C3956 C3957 1.388 . S
C3957 H3944 0.930 . S
C3957 C3956 1.388 . S
C3957 C3958 1.390 . S
C3958 C3957 1.390 . S
C3958 C3959 1.394 . S
C3958 C3964 1.465 . S
C3959 C3954 1.399 . S
C3959 C3958 1.394 . S
C3959 C3960 1.516 . S
C3960 C3959 1.516 . S
C3960 C3961 1.502 . S
C3960 C3962 1.561 . S
C3960 C3963 1.526 . S
C3961 H3945 0.959 . S
C3961 H3946 0.959 . S
C3961 H3947 0.961 . S
C3961 C3960 1.502 . S
C3962 H3948 0.960 . S
C3962 H3949 0.961 . S
C3962 H3950 0.959 . S
C3962 C3960 1.561 . S
C3963 C3960 1.526 . S
C3963 C3964 1.396 . S
C3963 C3968 1.390 . S
C3964 C3958 1.465 . S
C3964 C3963 1.396 . S
C3964 C3965 1.399 . S
C3965 H3951 0.929 . S
C3965 C3964 1.399 . S
C3965 C3966 1.385 . S
C3966 H3952 0.931 . S
C3966 C3965 1.385 . S
C3966 C3967 1.389 . S
C3967 C3966 1.389 . S
C3967 C3968 1.387 . S
C3968 H3953 0.930 . S
C3968 C3963 1.390 . S
C3968 C3967 1.387 . S
H3969 C3981 0.930 . S
H3970 C3983 0.930 . S
H3971 C3984 0.930 . S
H3972 C3988 0.959 . S
H3973 C3988 0.959 . S
H3974 C3988 0.961 . S
H3975 C3989 0.960 . S
H3976 C3989 0.961 . S
H3977 C3989 0.959 . S
H3978 C3992 0.929 . S
H3979 C3993 0.931 . S
H3980 C3995 0.931 . S
C3981 H3969 0.930 . S
C3981 C3982 1.399 . S
C3981 C3986 1.399 . S
C3982 C3981 1.399 . S
C3982 C3983 1.376 . S
C3983 H3970 0.930 . S
C3983 C3982 1.376 . S
C3983 C3984 1.388 . S
C3984 H3971 0.930 . S
C3984 C3983 1.388 . S
C3984 C3985 1.390 . S
C3985 C3984 1.390 . S
C3985 C3986 1.394 . S
C3985 C3991 1.465 . S
C3986 C3981 1.399 . S
C3986 C3985 1.394 . S
C3986 C3987 1.516 . S
C3987 C3986 1.516 . S
C3987 C3988 1.502 . S
C3987 C3989 1.561 . S
C3987 C3990 1.526 . S
C3988 H3972 0.959 . S
C3988 H3973 0.959 . S
C3988 H3974 0.961 . S
C3988 C3987 1.502 . S
C3989 H3975 0.960 . S
C3989 H3976 0.961 . S
C3989 H3977 0.959 . S
C3989 C3987 1.561 . S
C3990 C3987 1.526 . S
C3990 C3991 1.396 . S
C3990 C3995 1.377 1_655 S
C3991 C3985 1.465 . S
C3991 C3990 1.396 . S
C3991 C3992 1.399 . S
C3992 H3978 0.929 . S
C3992 C3991 1.399 . S
C3992 C3993 1.385 1_655 S
C3993 H3979 0.931 . S
C3993 C3992 1.385 1_455 S
C3993 C3994 1.389 . S
C3994 C3993 1.389 . S
C3994 C3995 1.398 . S
C3995 H3980 0.931 . S
C3995 C3990 1.377 1_455 S
C3995 C3994 1.398 . S
H3996 C4008 0.930 . S
H3997 C4010 0.930 . S
H3998 C4011 0.930 . S
H3999 C4015 0.959 . S
H4000 C4015 0.959 . S
H4001 C4015 0.961 . S
H4002 C4016 0.960 . S
H4003 C4016 0.961 . S
H4004 C4016 0.959 . S
H4005 C4019 0.929 . S
H4006 C4020 0.931 . S
H4007 C4022 0.930 . S
C4008 H3996 0.930 . S
C4008 C4009 1.399 . S
C4008 C4013 1.399 . S
C4009 C4008 1.399 . S
C4009 C4010 1.376 . S
C4010 H3997 0.930 . S
C4010 C4009 1.376 . S
C4010 C4011 1.388 . S
C4011 H3998 0.930 . S
C4011 C4010 1.388 . S
C4011 C4012 1.390 . S
C4012 C4011 1.390 . S
C4012 C4013 1.394 . S
C4012 C4018 1.465 . S
C4013 C4008 1.399 . S
C4013 C4012 1.394 . S
C4013 C4014 1.516 . S
C4014 C4013 1.516 . S
C4014 C4015 1.502 . S
C4014 C4016 1.561 . S
C4014 C4017 1.526 . S
C4015 H3999 0.959 . S
C4015 H4000 0.959 . S
C4015 H4001 0.961 . S
C4015 C4014 1.502 . S
C4016 H4002 0.960 . S
C4016 H4003 0.961 . S
C4016 H4004 0.959 . S
C4016 C4014 1.561 . S
C4017 C4014 1.526 . S
C4017 C4018 1.396 . S
C4017 C4022 1.390 . S
C4018 C4012 1.465 . S
C4018 C4017 1.396 . S
C4018 C4019 1.399 . S
C4019 H4005 0.929 . S
C4019 C4018 1.399 . S
C4019 C4020 1.385 . S
C4020 H4006 0.931 . S
C4020 C4019 1.385 . S
C4020 C4021 1.389 . S
C4021 C4020 1.389 . S
C4021 C4022 1.387 . S
C4022 H4007 0.930 . S
C4022 C4017 1.390 . S
C4022 C4021 1.387 . S
H4023 C4035 0.930 . S
H4024 C4037 0.930 . S
H4025 C4038 0.930 . S
H4026 C4042 0.959 . S
H4027 C4042 0.959 . S
H4028 C4042 0.961 . S
H4029 C4043 0.960 . S
H4030 C4043 0.961 . S
H4031 C4043 0.959 . S
H4032 C4046 0.929 . S
H4033 C4047 0.931 . S
H4034 C4049 0.930 . S
C4035 H4023 0.930 . S
C4035 C4036 1.399 . S
C4035 C4040 1.399 . S
C4036 C4035 1.399 . S
C4036 C4037 1.376 . S
C4037 H4024 0.930 . S
C4037 C4036 1.376 . S
C4037 C4038 1.388 . S
C4038 H4025 0.930 . S
C4038 C4037 1.388 . S
C4038 C4039 1.390 . S
C4039 C4038 1.390 . S
C4039 C4040 1.394 . S
C4039 C4045 1.465 . S
C4040 C4035 1.399 . S
C4040 C4039 1.394 . S
C4040 C4041 1.516 . S
C4041 C4040 1.516 . S
C4041 C4042 1.502 . S
C4041 C4043 1.561 . S
C4041 C4044 1.526 . S
C4042 H4026 0.959 . S
C4042 H4027 0.959 . S
C4042 H4028 0.961 . S
C4042 C4041 1.502 . S
C4043 H4029 0.960 . S
C4043 H4030 0.961 . S
C4043 H4031 0.959 . S
C4043 C4041 1.561 . S
C4044 C4041 1.526 . S
C4044 C4045 1.396 . S
C4044 C4049 1.390 . S
C4045 C4039 1.465 . S
C4045 C4044 1.396 . S
C4045 C4046 1.399 . S
C4046 H4032 0.929 . S
C4046 C4045 1.399 . S
C4046 C4047 1.385 . S
C4047 H4033 0.931 . S
C4047 C4046 1.385 . S
C4047 C4048 1.389 . S
C4048 C4047 1.389 . S
C4048 C4049 1.387 . S
C4049 H4034 0.930 . S
C4049 C4044 1.390 . S
C4049 C4048 1.387 . S
H4050 C4062 0.930 . S
H4051 C4064 0.930 . S
H4052 C4065 0.930 . S
H4053 C4069 0.959 . S
H4054 C4069 0.959 . S
H4055 C4069 0.961 . S
H4056 C4070 0.960 . S
H4057 C4070 0.961 . S
H4058 C4070 0.959 . S
H4059 C4073 0.929 . S
H4060 C4074 0.931 . S
H4061 C4076 0.930 . S
C4062 H4050 0.930 . S
C4062 C4063 1.399 . S
C4062 C4067 1.399 . S
C4063 C4062 1.399 . S
C4063 C4064 1.376 . S
C4064 H4051 0.930 . S
C4064 C4063 1.376 . S
C4064 C4065 1.388 . S
C4065 H4052 0.930 . S
C4065 C4064 1.388 . S
C4065 C4066 1.390 . S
C4066 C4065 1.390 . S
C4066 C4067 1.394 . S
C4066 C4072 1.465 . S
C4067 C4062 1.399 . S
C4067 C4066 1.394 . S
C4067 C4068 1.516 . S
C4068 C4067 1.516 . S
C4068 C4069 1.502 . S
C4068 C4070 1.561 . S
C4068 C4071 1.526 . S
C4069 H4053 0.959 . S
C4069 H4054 0.959 . S
C4069 H4055 0.961 . S
C4069 C4068 1.502 . S
C4070 H4056 0.960 . S
C4070 H4057 0.961 . S
C4070 H4058 0.959 . S
C4070 C4068 1.561 . S
C4071 C4068 1.526 . S
C4071 C4072 1.396 . S
C4071 C4076 1.390 . S
C4072 C4066 1.465 . S
C4072 C4071 1.396 . S
C4072 C4073 1.399 . S
C4073 H4059 0.929 . S
C4073 C4072 1.399 . S
C4073 C4074 1.385 . S
C4074 H4060 0.931 . S
C4074 C4073 1.385 . S
C4074 C4075 1.389 . S
C4075 C4074 1.389 . S
C4075 C4076 1.387 . S
C4076 H4061 0.930 . S
C4076 C4071 1.390 . S
C4076 C4075 1.387 . S
H4077 C4089 0.930 . S
H4078 C4091 0.930 . S
H4079 C4092 0.930 . S
H4080 C4096 0.959 . S
H4081 C4096 0.959 . S
H4082 C4096 0.961 . S
H4083 C4097 0.960 . S
H4084 C4097 0.961 . S
H4085 C4097 0.959 . S
H4086 C4100 0.929 . S
H4087 C4101 0.931 . S
H4088 C4103 0.930 . S
C4089 H4077 0.930 . S
C4089 C4090 1.399 . S
C4089 C4094 1.399 . S
C4090 C4089 1.399 . S
C4090 C4091 1.376 . S
C4091 H4078 0.930 . S
C4091 C4090 1.376 . S
C4091 C4092 1.388 . S
C4092 H4079 0.930 . S
C4092 C4091 1.388 . S
C4092 C4093 1.390 . S
C4093 C4092 1.390 . S
C4093 C4094 1.394 . S
C4093 C4099 1.465 . S
C4094 C4089 1.399 . S
C4094 C4093 1.394 . S
C4094 C4095 1.516 . S
C4095 C4094 1.516 . S
C4095 C4096 1.502 . S
C4095 C4097 1.561 . S
C4095 C4098 1.526 . S
C4096 H4080 0.959 . S
C4096 H4081 0.959 . S
C4096 H4082 0.961 . S
C4096 C4095 1.502 . S
C4097 H4083 0.960 . S
C4097 H4084 0.961 . S
C4097 H4085 0.959 . S
C4097 C4095 1.561 . S
C4098 C4095 1.526 . S
C4098 C4099 1.396 . S
C4098 C4103 1.390 . S
C4099 C4093 1.465 . S
C4099 C4098 1.396 . S
C4099 C4100 1.399 . S
C4100 H4086 0.929 . S
C4100 C4099 1.399 . S
C4100 C4101 1.385 . S
C4101 H4087 0.931 . S
C4101 C4100 1.385 . S
C4101 C4102 1.389 . S
C4102 C4101 1.389 . S
C4102 C4103 1.387 . S
C4103 H4088 0.930 . S
C4103 C4098 1.390 . S
C4103 C4102 1.387 . S
H4104 C4116 0.930 . S
H4105 C4118 0.930 . S
H4106 C4119 0.930 . S
H4107 C4123 0.959 . S
H4108 C4123 0.959 . S
H4109 C4123 0.961 . S
H4110 C4124 0.960 . S
H4111 C4124 0.961 . S
H4112 C4124 0.959 . S
H4113 C4127 0.929 . S
H4114 C4128 0.931 . S
H4115 C4130 0.930 . S
C4116 H4104 0.930 . S
C4116 C4117 1.399 . S
C4116 C4121 1.399 . S
C4117 C4116 1.399 . S
C4117 C4118 1.376 . S
C4118 H4105 0.930 . S
C4118 C4117 1.376 . S
C4118 C4119 1.388 . S
C4119 H4106 0.930 . S
C4119 C4118 1.388 . S
C4119 C4120 1.390 . S
C4120 C4119 1.390 . S
C4120 C4121 1.394 . S
C4120 C4126 1.465 . S
C4121 C4116 1.399 . S
C4121 C4120 1.394 . S
C4121 C4122 1.516 . S
C4122 C4121 1.516 . S
C4122 C4123 1.502 . S
C4122 C4124 1.561 . S
C4122 C4125 1.526 . S
C4123 H4107 0.959 . S
C4123 H4108 0.959 . S
C4123 H4109 0.961 . S
C4123 C4122 1.502 . S
C4124 H4110 0.960 . S
C4124 H4111 0.961 . S
C4124 H4112 0.959 . S
C4124 C4122 1.561 . S
C4125 C4122 1.526 . S
C4125 C4126 1.396 . S
C4125 C4130 1.390 . S
C4126 C4120 1.465 . S
C4126 C4125 1.396 . S
C4126 C4127 1.399 . S
C4127 H4113 0.929 . S
C4127 C4126 1.399 . S
C4127 C4128 1.385 . S
C4128 H4114 0.931 . S
C4128 C4127 1.385 . S
C4128 C4129 1.389 . S
C4129 C4128 1.389 . S
C4129 C4130 1.387 . S
C4130 H4115 0.930 . S
C4130 C4125 1.390 . S
C4130 C4129 1.387 . S
H4131 C4143 0.930 . S
H4132 C4145 0.930 . S
H4133 C4146 0.930 . S
H4134 C4150 0.959 . S
H4135 C4150 0.959 . S
H4136 C4150 0.961 . S
H4137 C4151 0.960 . S
H4138 C4151 0.961 . S
H4139 C4151 0.959 . S
H4140 C4154 0.929 . S
H4141 C4155 0.931 . S
H4142 C4157 0.930 . S
C4143 H4131 0.930 . S
C4143 C4144 1.399 . S
C4143 C4148 1.399 . S
C4144 C4143 1.399 . S
C4144 C4145 1.376 . S
C4145 H4132 0.930 . S
C4145 C4144 1.376 . S
C4145 C4146 1.388 . S
C4146 H4133 0.930 . S
C4146 C4145 1.388 . S
C4146 C4147 1.390 . S
C4147 C4146 1.390 . S
C4147 C4148 1.394 . S
C4147 C4153 1.465 . S
C4148 C4143 1.399 . S
C4148 C4147 1.394 . S
C4148 C4149 1.516 . S
C4149 C4148 1.516 . S
C4149 C4150 1.502 . S
C4149 C4151 1.561 . S
C4149 C4152 1.526 . S
C4150 H4134 0.959 . S
C4150 H4135 0.959 . S
C4150 H4136 0.961 . S
C4150 C4149 1.502 . S
C4151 H4137 0.960 . S
C4151 H4138 0.961 . S
C4151 H4139 0.959 . S
C4151 C4149 1.561 . S
C4152 C4149 1.526 . S
C4152 C4153 1.396 . S
C4152 C4157 1.390 . S
C4153 C4147 1.465 . S
C4153 C4152 1.396 . S
C4153 C4154 1.399 . S
C4154 H4140 0.929 . S
C4154 C4153 1.399 . S
C4154 C4155 1.385 . S
C4155 H4141 0.931 . S
C4155 C4154 1.385 . S
C4155 C4156 1.389 . S
C4156 C4155 1.389 . S
C4156 C4157 1.387 . S
C4157 H4142 0.930 . S
C4157 C4152 1.390 . S
C4157 C4156 1.387 . S
H4158 C4170 0.930 . S
H4159 C4172 0.930 . S
H4160 C4173 0.930 . S
H4161 C4177 0.959 . S
H4162 C4177 0.959 . S
H4163 C4177 0.961 . S
H4164 C4178 0.960 . S
H4165 C4178 0.961 . S
H4166 C4178 0.959 . S
H4167 C4181 0.929 . S
H4168 C4182 0.931 . S
H4169 C4184 0.930 . S
C4170 H4158 0.930 . S
C4170 C4171 1.399 . S
C4170 C4175 1.399 . S
C4171 C4170 1.399 . S
C4171 C4172 1.376 . S
C4172 H4159 0.930 . S
C4172 C4171 1.376 . S
C4172 C4173 1.388 . S
C4173 H4160 0.930 . S
C4173 C4172 1.388 . S
C4173 C4174 1.390 . S
C4174 C4173 1.390 . S
C4174 C4175 1.394 . S
C4174 C4180 1.465 . S
C4175 C4170 1.399 . S
C4175 C4174 1.394 . S
C4175 C4176 1.516 . S
C4176 C4175 1.516 . S
C4176 C4177 1.502 . S
C4176 C4178 1.561 . S
C4176 C4179 1.526 . S
C4177 H4161 0.959 . S
C4177 H4162 0.959 . S
C4177 H4163 0.961 . S
C4177 C4176 1.502 . S
C4178 H4164 0.960 . S
C4178 H4165 0.961 . S
C4178 H4166 0.959 . S
C4178 C4176 1.561 . S
C4179 C4176 1.526 . S
C4179 C4180 1.396 . S
C4179 C4184 1.390 . S
C4180 C4174 1.465 . S
C4180 C4179 1.396 . S
C4180 C4181 1.399 . S
C4181 H4167 0.929 . S
C4181 C4180 1.399 . S
C4181 C4182 1.385 . S
C4182 H4168 0.931 . S
C4182 C4181 1.385 . S
C4182 C4183 1.389 . S
C4183 C4182 1.389 . S
C4183 C4184 1.387 . S
C4184 H4169 0.930 . S
C4184 C4179 1.390 . S
C4184 C4183 1.387 . S
H4185 C4197 0.930 . S
H4186 C4199 0.930 . S
H4187 C4200 0.930 . S
H4188 C4204 0.959 . S
H4189 C4204 0.959 . S
H4190 C4204 0.961 . S
H4191 C4205 0.960 . S
H4192 C4205 0.961 . S
H4193 C4205 0.959 . S
H4194 C4208 0.929 . S
H4195 C4209 0.931 . S
H4196 C4211 0.930 . S
C4197 H4185 0.930 . S
C4197 C4198 1.399 . S
C4197 C4202 1.399 . S
C4198 C4197 1.399 . S
C4198 C4199 1.376 . S
C4199 H4186 0.930 . S
C4199 C4198 1.376 . S
C4199 C4200 1.388 . S
C4200 H4187 0.930 . S
C4200 C4199 1.388 . S
C4200 C4201 1.390 . S
C4201 C4200 1.390 . S
C4201 C4202 1.394 . S
C4201 C4207 1.465 . S
C4202 C4197 1.399 . S
C4202 C4201 1.394 . S
C4202 C4203 1.516 . S
C4203 C4202 1.516 . S
C4203 C4204 1.502 . S
C4203 C4205 1.561 . S
C4203 C4206 1.526 . S
C4204 H4188 0.959 . S
C4204 H4189 0.959 . S
C4204 H4190 0.961 . S
C4204 C4203 1.502 . S
C4205 H4191 0.960 . S
C4205 H4192 0.961 . S
C4205 H4193 0.959 . S
C4205 C4203 1.561 . S
C4206 C4203 1.526 . S
C4206 C4207 1.396 . S
C4206 C4211 1.390 . S
C4207 C4201 1.465 . S
C4207 C4206 1.396 . S
C4207 C4208 1.399 . S
C4208 H4194 0.929 . S
C4208 C4207 1.399 . S
C4208 C4209 1.385 . S
C4209 H4195 0.931 . S
C4209 C4208 1.385 . S
C4209 C4210 1.389 . S
C4210 C4209 1.389 . S
C4210 C4211 1.387 . S
C4211 H4196 0.930 . S
C4211 C4206 1.390 . S
C4211 C4210 1.387 . S
H4212 C4224 0.930 . S
H4213 C4226 0.930 . S
H4214 C4227 0.930 . S
H4215 C4231 0.959 . S
H4216 C4231 0.959 . S
H4217 C4231 0.961 . S
H4218 C4232 0.960 . S
H4219 C4232 0.961 . S
H4220 C4232 0.959 . S
H4221 C4235 0.929 . S
H4222 C4236 0.931 . S
H4223 C4238 0.930 . S
C4224 H4212 0.930 . S
C4224 C4225 1.399 . S
C4224 C4229 1.399 . S
C4225 C4224 1.399 . S
C4225 C4226 1.376 . S
C4226 H4213 0.930 . S
C4226 C4225 1.376 . S
C4226 C4227 1.388 . S
C4227 H4214 0.930 . S
C4227 C4226 1.388 . S
C4227 C4228 1.390 . S
C4228 C4227 1.390 . S
C4228 C4229 1.394 . S
C4228 C4234 1.465 . S
C4229 C4224 1.399 . S
C4229 C4228 1.394 . S
C4229 C4230 1.516 . S
C4230 C4229 1.516 . S
C4230 C4231 1.502 . S
C4230 C4232 1.561 . S
C4230 C4233 1.526 . S
C4231 H4215 0.959 . S
C4231 H4216 0.959 . S
C4231 H4217 0.961 . S
C4231 C4230 1.502 . S
C4232 H4218 0.960 . S
C4232 H4219 0.961 . S
C4232 H4220 0.959 . S
C4232 C4230 1.561 . S
C4233 C4230 1.526 . S
C4233 C4234 1.396 . S
C4233 C4238 1.390 . S
C4234 C4228 1.465 . S
C4234 C4233 1.396 . S
C4234 C4235 1.399 . S
C4235 H4221 0.929 . S
C4235 C4234 1.399 . S
C4235 C4236 1.385 . S
C4236 H4222 0.931 . S
C4236 C4235 1.385 . S
C4236 C4237 1.389 . S
C4237 C4236 1.389 . S
C4237 C4238 1.387 . S
C4238 H4223 0.930 . S
C4238 C4233 1.390 . S
C4238 C4237 1.387 . S
H4239 C4251 0.930 . S
H4240 C4253 0.930 . S
H4241 C4254 0.930 . S
H4242 C4258 0.959 . S
H4243 C4258 0.959 . S
H4244 C4258 0.961 . S
H4245 C4259 0.960 . S
H4246 C4259 0.961 . S
H4247 C4259 0.959 . S
H4248 C4262 0.929 . S
H4249 C4263 0.931 . S
H4250 C4265 0.930 . S
C4251 H4239 0.930 . S
C4251 C4252 1.399 . S
C4251 C4256 1.399 . S
C4252 C4251 1.399 . S
C4252 C4253 1.376 . S
C4253 H4240 0.930 . S
C4253 C4252 1.376 . S
C4253 C4254 1.388 . S
C4254 H4241 0.930 . S
C4254 C4253 1.388 . S
C4254 C4255 1.390 . S
C4255 C4254 1.390 . S
C4255 C4256 1.394 . S
C4255 C4261 1.465 . S
C4256 C4251 1.399 . S
C4256 C4255 1.394 . S
C4256 C4257 1.516 . S
C4257 C4256 1.516 . S
C4257 C4258 1.502 . S
C4257 C4259 1.561 . S
C4257 C4260 1.526 . S
C4258 H4242 0.959 . S
C4258 H4243 0.959 . S
C4258 H4244 0.961 . S
C4258 C4257 1.502 . S
C4259 H4245 0.960 . S
C4259 H4246 0.961 . S
C4259 H4247 0.959 . S
C4259 C4257 1.561 . S
C4260 C4257 1.526 . S
C4260 C4261 1.396 . S
C4260 C4265 1.390 . S
C4261 C4255 1.465 . S
C4261 C4260 1.396 . S
C4261 C4262 1.399 . S
C4262 H4248 0.929 . S
C4262 C4261 1.399 . S
C4262 C4263 1.385 . S
C4263 H4249 0.931 . S
C4263 C4262 1.385 . S
C4263 C4264 1.389 . S
C4264 C4263 1.389 . S
C4264 C4265 1.387 . S
C4265 H4250 0.930 . S
C4265 C4260 1.390 . S
C4265 C4264 1.387 . S
H4266 C4278 0.930 . S
H4267 C4280 0.930 . S
H4268 C4281 0.930 . S
H4269 C4285 0.959 . S
H4270 C4285 0.959 . S
H4271 C4285 0.961 . S
H4272 C4286 0.960 . S
H4273 C4286 0.961 . S
H4274 C4286 0.959 . S
H4275 C4289 0.929 . S
H4276 C4290 0.931 . S
H4277 C4292 0.930 1_545 S
C4278 H4266 0.930 . S
C4278 C4279 1.399 . S
C4278 C4283 1.399 . S
C4279 C4278 1.399 . S
C4279 C4280 1.376 . S
C4280 H4267 0.930 . S
C4280 C4279 1.376 . S
C4280 C4281 1.388 . S
C4281 H4268 0.930 . S
C4281 C4280 1.388 . S
C4281 C4282 1.390 . S
C4282 C4281 1.390 . S
C4282 C4283 1.394 . S
C4282 C4288 1.465 . S
C4283 C4278 1.399 . S
C4283 C4282 1.394 . S
C4283 C4284 1.516 . S
C4284 C4283 1.516 . S
C4284 C4285 1.502 . S
C4284 C4286 1.561 . S
C4284 C4287 1.526 . S
C4285 H4269 0.959 . S
C4285 H4270 0.959 . S
C4285 H4271 0.961 . S
C4285 C4284 1.502 . S
C4286 H4272 0.960 . S
C4286 H4273 0.961 . S
C4286 H4274 0.959 . S
C4286 C4284 1.561 . S
C4287 C4284 1.526 . S
C4287 C4288 1.396 . S
C4287 C4292 1.390 . S
C4288 C4282 1.465 . S
C4288 C4287 1.396 . S
C4288 C4289 1.399 1_556 S
C4289 H4275 0.929 . S
C4289 C4288 1.399 1_554 S
C4289 C4290 1.385 . S
C4290 H4276 0.931 . S
C4290 C4289 1.385 . S
C4290 C4291 1.389 1_554 S
C4291 C4290 1.389 1_556 S
C4291 C4292 1.387 . S
C4292 H4277 0.930 1_565 S
C4292 C4287 1.390 . S
C4292 C4291 1.387 . S
H4293 C4305 0.930 . S
H4294 C4307 0.930 . S
H4295 C4308 0.930 . S
H4296 C4312 0.959 . S
H4297 C4312 0.959 . S
H4298 C4312 0.961 . S
H4299 C4313 0.960 . S
H4300 C4313 0.961 . S
H4301 C4313 0.959 . S
H4302 C4316 0.929 . S
H4303 C4317 0.931 . S
H4304 C4319 0.930 . S
C4305 H4293 0.930 . S
C4305 C4306 1.399 . S
C4305 C4310 1.399 . S
C4306 C4305 1.399 . S
C4306 C4307 1.376 . S
C4307 H4294 0.930 . S
C4307 C4306 1.376 . S
C4307 C4308 1.388 . S
C4308 H4295 0.930 . S
C4308 C4307 1.388 . S
C4308 C4309 1.390 . S
C4309 C4308 1.390 . S
C4309 C4310 1.394 . S
C4309 C4315 1.465 . S
C4310 C4305 1.399 . S
C4310 C4309 1.394 . S
C4310 C4311 1.516 . S
C4311 C4310 1.516 . S
C4311 C4312 1.502 . S
C4311 C4313 1.561 . S
C4311 C4314 1.526 . S
C4312 H4296 0.959 . S
C4312 H4297 0.959 . S
C4312 H4298 0.961 . S
C4312 C4311 1.502 . S
C4313 H4299 0.960 . S
C4313 H4300 0.961 . S
C4313 H4301 0.959 . S
C4313 C4311 1.561 . S
C4314 C4311 1.526 . S
C4314 C4315 1.396 . S
C4314 C4319 1.390 . S
C4315 C4309 1.465 . S
C4315 C4314 1.396 . S
C4315 C4316 1.399 . S
C4316 H4302 0.929 . S
C4316 C4315 1.399 . S
C4316 C4317 1.385 . S
C4317 H4303 0.931 . S
C4317 C4316 1.385 . S
C4317 C4318 1.389 . S
C4318 C4317 1.389 . S
C4318 C4319 1.387 . S
C4319 H4304 0.930 . S
C4319 C4314 1.390 . S
C4319 C4318 1.387 . S
H4320 C4332 0.930 . S
H4321 C4334 0.930 . S
H4322 C4335 0.930 . S
H4323 C4339 0.959 . S
H4324 C4339 0.959 . S
H4325 C4339 0.961 . S
H4326 C4340 0.960 . S
H4327 C4340 0.961 . S
H4328 C4340 0.959 . S
H4329 C4343 0.929 . S
H4330 C4344 0.931 . S
H4331 C4346 0.927 1_565 S
C4332 H4320 0.930 . S
C4332 C4333 1.399 1_565 S
C4332 C4337 1.399 . S
C4333 C4332 1.399 1_545 S
C4333 C4334 1.376 . S
C4334 H4321 0.930 . S
C4334 C4333 1.376 . S
C4334 C4335 1.388 . S
C4335 H4322 0.930 . S
C4335 C4334 1.388 . S
C4335 C4336 1.390 . S
C4336 C4335 1.390 . S
C4336 C4337 1.394 1_545 S
C4336 C4342 1.465 . S
C4337 C4332 1.399 . S
C4337 C4336 1.394 1_565 S
C4337 C4338 1.516 . S
C4338 C4337 1.516 . S
C4338 C4339 1.502 . S
C4338 C4340 1.561 . S
C4338 C4341 1.526 1_565 S
C4339 H4323 0.959 . S
C4339 H4324 0.959 . S
C4339 H4325 0.961 . S
C4339 C4338 1.502 . S
C4340 H4326 0.960 . S
C4340 H4327 0.961 . S
C4340 H4328 0.959 . S
C4340 C4338 1.561 . S
C4341 C4338 1.526 1_545 S
C4341 C4342 1.396 . S
C4341 C4346 1.390 . S
C4342 C4336 1.465 . S
C4342 C4341 1.396 . S
C4342 C4343 1.399 . S
C4343 H4329 0.929 . S
C4343 C4342 1.399 . S
C4343 C4344 1.385 . S
C4344 H4330 0.931 . S
C4344 C4343 1.385 . S
C4344 C4345 1.389 . S
C4345 C4344 1.389 . S
C4345 C4346 1.389 . S
C4346 H4331 0.927 1_545 S
C4346 C4341 1.390 . S
C4346 C4345 1.389 . S
H4347 C4359 0.930 . S
H4348 C4361 0.930 . S
H4349 C4362 0.930 . S
H4350 C4366 0.959 . S
H4351 C4366 0.959 . S
H4352 C4366 0.961 . S
H4353 C4367 0.960 . S
H4354 C4367 0.961 . S
H4355 C4367 0.959 . S
H4356 C4370 0.929 . S
H4357 C4371 0.931 . S
H4358 C4373 0.930 . S
C4359 H4347 0.930 . S
C4359 C4360 1.399 . S
C4359 C4364 1.399 . S
C4360 C4359 1.399 . S
C4360 C4361 1.376 . S
C4361 H4348 0.930 . S
C4361 C4360 1.376 . S
C4361 C4362 1.388 . S
C4362 H4349 0.930 . S
C4362 C4361 1.388 . S
C4362 C4363 1.390 . S
C4363 C4362 1.390 . S
C4363 C4364 1.394 . S
C4363 C4369 1.465 . S
C4364 C4359 1.399 . S
C4364 C4363 1.394 . S
C4364 C4365 1.516 . S
C4365 C4364 1.516 . S
C4365 C4366 1.502 . S
C4365 C4367 1.561 . S
C4365 C4368 1.526 . S
C4366 H4350 0.959 . S
C4366 H4351 0.959 . S
C4366 H4352 0.961 . S
C4366 C4365 1.502 . S
C4367 H4353 0.960 . S
C4367 H4354 0.961 . S
C4367 H4355 0.959 . S
C4367 C4365 1.561 . S
C4368 C4365 1.526 . S
C4368 C4369 1.396 . S
C4368 C4373 1.390 . S
C4369 C4363 1.465 . S
C4369 C4368 1.396 . S
C4369 C4370 1.399 . S
C4370 H4356 0.929 . S
C4370 C4369 1.399 . S
C4370 C4371 1.385 . S
C4371 H4357 0.931 . S
C4371 C4370 1.385 . S
C4371 C4372 1.389 . S
C4372 C4371 1.389 . S
C4372 C4373 1.387 . S
C4373 H4358 0.930 . S
C4373 C4368 1.390 . S
C4373 C4372 1.387 . S
H4374 C4386 0.930 . S
H4375 C4388 0.930 . S
H4376 C4389 0.930 . S
H4377 C4393 0.959 . S
H4378 C4393 0.959 1_565 S
H4379 C4393 0.962 1_565 S
H4380 C4394 0.960 1_565 S
H4381 C4394 0.961 1_565 S
H4382 C4394 0.959 . S
H4383 C4397 0.929 . S
H4384 C4398 0.931 . S
H4385 C4400 0.930 . S
C4386 H4374 0.930 . S
C4386 C4387 1.399 . S
C4386 C4391 1.399 . S
C4387 C4386 1.399 . S
C4387 C4388 1.376 . S
C4388 H4375 0.930 . S
C4388 C4387 1.376 . S
C4388 C4389 1.388 . S
C4389 H4376 0.930 . S
C4389 C4388 1.388 . S
C4389 C4390 1.390 . S
C4390 C4389 1.390 . S
C4390 C4391 1.394 . S
C4390 C4396 1.465 . S
C4391 C4386 1.399 . S
C4391 C4390 1.394 . S
C4391 C4392 1.516 . S
C4392 C4391 1.516 . S
C4392 C4393 1.502 . S
C4392 C4394 1.561 . S
C4392 C4395 1.526 . S
C4393 H4377 0.959 . S
C4393 H4378 0.959 1_545 S
C4393 H4379 0.962 1_545 S
C4393 C4392 1.502 . S
C4394 H4380 0.960 1_545 S
C4394 H4381 0.961 1_545 S
C4394 H4382 0.959 . S
C4394 C4392 1.561 . S
C4395 C4392 1.526 . S
C4395 C4396 1.396 . S
C4395 C4400 1.390 . S
C4396 C4390 1.465 . S
C4396 C4395 1.396 . S
C4396 C4397 1.399 . S
C4397 H4383 0.929 . S
C4397 C4396 1.399 . S
C4397 C4398 1.385 . S
C4398 H4384 0.931 . S
C4398 C4397 1.385 . S
C4398 C4399 1.389 . S
C4399 C4398 1.389 . S
C4399 C4400 1.387 . S
C4400 H4385 0.930 . S
C4400 C4395 1.390 . S
C4400 C4399 1.387 . S
H4401 C4413 0.930 . S
H4402 C4415 0.930 . S
H4403 C4416 0.930 . S
H4404 C4420 0.959 . S
H4405 C4420 0.959 . S
H4406 C4420 0.961 . S
H4407 C4421 0.960 . S
H4408 C4421 0.961 . S
H4409 C4421 0.959 . S
H4410 C4424 0.929 . S
H4411 C4425 0.931 . S
H4412 C4427 0.930 . S
C4413 H4401 0.930 . S
C4413 C4414 1.399 . S
C4413 C4418 1.399 . S
C4414 C4413 1.399 . S
C4414 C4415 1.376 . S
C4415 H4402 0.930 . S
C4415 C4414 1.376 . S
C4415 C4416 1.388 . S
C4416 H4403 0.930 . S
C4416 C4415 1.388 . S
C4416 C4417 1.390 . S
C4417 C4416 1.390 . S
C4417 C4418 1.394 . S
C4417 C4423 1.465 . S
C4418 C4413 1.399 . S
C4418 C4417 1.394 . S
C4418 C4419 1.516 . S
C4419 C4418 1.516 . S
C4419 C4420 1.502 . S
C4419 C4421 1.561 . S
C4419 C4422 1.526 . S
C4420 H4404 0.959 . S
C4420 H4405 0.959 . S
C4420 H4406 0.961 . S
C4420 C4419 1.502 . S
C4421 H4407 0.960 . S
C4421 H4408 0.961 . S
C4421 H4409 0.959 . S
C4421 C4419 1.561 . S
C4422 C4419 1.526 . S
C4422 C4423 1.396 . S
C4422 C4427 1.390 . S
C4423 C4417 1.465 . S
C4423 C4422 1.396 . S
C4423 C4424 1.399 . S
C4424 H4410 0.929 . S
C4424 C4423 1.399 . S
C4424 C4425 1.385 . S
C4425 H4411 0.931 . S
C4425 C4424 1.385 . S
C4425 C4426 1.389 . S
C4426 C4425 1.389 . S
C4426 C4427 1.387 . S
C4427 H4412 0.930 . S
C4427 C4422 1.390 . S
C4427 C4426 1.387 . S
H4428 C4440 0.937 . S
H4429 C4442 0.930 . S
H4430 C4443 0.930 . S
H4431 C4447 0.959 1_565 S
H4432 C4447 0.959 . S
H4433 C4447 0.961 . S
H4434 C4448 0.960 . S
H4435 C4448 0.961 . S
H4436 C4448 0.959 . S
H4437 C4451 0.929 . S
H4438 C4452 0.931 . S
H4439 C4454 0.930 . S
C4440 H4428 0.937 . S
C4440 C4441 1.377 1_545 S
C4440 C4445 1.415 . S
C4441 C4440 1.377 1_565 S
C4441 C4442 1.376 . S
C4442 H4429 0.930 . S
C4442 C4441 1.376 . S
C4442 C4443 1.388 . S
C4443 H4430 0.930 . S
C4443 C4442 1.388 . S
C4443 C4444 1.390 1_565 S
C4444 C4443 1.390 1_545 S
C4444 C4445 1.394 . S
C4444 C4450 1.465 . S
C4445 C4440 1.415 . S
C4445 C4444 1.394 . S
C4445 C4446 1.516 . S
C4446 C4445 1.516 . S
C4446 C4447 1.502 . S
C4446 C4448 1.561 . S
C4446 C4449 1.526 . S
C4447 H4431 0.959 1_545 S
C4447 H4432 0.959 . S
C4447 H4433 0.961 . S
C4447 C4446 1.502 . S
C4448 H4434 0.960 . S
C4448 H4435 0.961 . S
C4448 H4436 0.959 . S
C4448 C4446 1.561 . S
C4449 C4446 1.526 . S
C4449 C4450 1.396 . S
C4449 C4454 1.390 . S
C4450 C4444 1.465 . S
C4450 C4449 1.396 . S
C4450 C4451 1.399 . S
C4451 H4437 0.929 . S
C4451 C4450 1.399 . S
C4451 C4452 1.385 . S
C4452 H4438 0.931 . S
C4452 C4451 1.385 . S
C4452 C4453 1.389 . S
C4453 C4452 1.389 . S
C4453 C4454 1.387 . S
C4454 H4439 0.930 . S
C4454 C4449 1.390 . S
C4454 C4453 1.387 . S
H4455 C4467 0.930 . S
H4456 C4469 0.930 . S
H4457 C4470 0.930 . S
H4458 C4474 0.959 . S
H4459 C4474 0.959 . S
H4460 C4474 0.961 . S
H4461 C4475 0.960 . S
H4462 C4475 0.961 . S
H4463 C4475 0.959 . S
H4464 C4478 0.929 . S
H4465 C4479 0.931 . S
H4466 C4481 0.930 . S
C4467 H4455 0.930 . S
C4467 C4468 1.399 . S
C4467 C4472 1.399 . S
C4468 C4467 1.399 . S
C4468 C4469 1.376 . S
C4469 H4456 0.930 . S
C4469 C4468 1.376 . S
C4469 C4470 1.388 . S
C4470 H4457 0.930 . S
C4470 C4469 1.388 . S
C4470 C4471 1.390 . S
C4471 C4470 1.390 . S
C4471 C4472 1.394 . S
C4471 C4477 1.465 . S
C4472 C4467 1.399 . S
C4472 C4471 1.394 . S
C4472 C4473 1.516 . S
C4473 C4472 1.516 . S
C4473 C4474 1.502 . S
C4473 C4475 1.561 . S
C4473 C4476 1.526 . S
C4474 H4458 0.959 . S
C4474 H4459 0.959 . S
C4474 H4460 0.961 . S
C4474 C4473 1.502 . S
C4475 H4461 0.960 . S
C4475 H4462 0.961 . S
C4475 H4463 0.959 . S
C4475 C4473 1.561 . S
C4476 C4473 1.526 . S
C4476 C4477 1.396 . S
C4476 C4481 1.390 . S
C4477 C4471 1.465 . S
C4477 C4476 1.396 . S
C4477 C4478 1.399 . S
C4478 H4464 0.929 . S
C4478 C4477 1.399 . S
C4478 C4479 1.385 . S
C4479 H4465 0.931 . S
C4479 C4478 1.385 . S
C4479 C4480 1.389 . S
C4480 C4479 1.389 . S
C4480 C4481 1.387 . S
C4481 H4466 0.930 . S
C4481 C4476 1.390 . S
C4481 C4480 1.387 . S
H4482 C4494 0.927 1_565 S
H4483 C4496 0.930 . S
H4484 C4497 0.930 . S
H4485 C4501 0.959 . S
H4486 C4501 0.959 . S
H4487 C4501 0.961 . S
H4488 C4502 0.960 . S
H4489 C4502 0.961 . S
H4490 C4502 0.959 1_545 S
H4491 C4505 0.929 . S
H4492 C4506 0.931 . S
H4493 C4508 0.930 1_565 S
C4494 H4482 0.927 1_545 S
C4494 C4495 1.399 . S
C4494 C4499 1.399 . S
C4495 C4494 1.399 . S
C4495 C4496 1.376 . S
C4496 H4483 0.930 . S
C4496 C4495 1.376 . S
C4496 C4497 1.388 . S
C4497 H4484 0.930 . S
C4497 C4496 1.388 . S
C4497 C4498 1.390 . S
C4498 C4497 1.390 . S
C4498 C4499 1.394 . S
C4498 C4504 1.465 . S
C4499 C4494 1.399 . S
C4499 C4498 1.394 . S
C4499 C4500 1.516 . S
C4500 C4499 1.516 . S
C4500 C4501 1.502 1_545 S
C4500 C4502 1.561 1_545 S
C4500 C4503 1.526 . S
C4501 H4485 0.959 . S
C4501 H4486 0.959 . S
C4501 H4487 0.961 . S
C4501 C4500 1.502 1_565 S
C4502 H4488 0.960 . S
C4502 H4489 0.961 . S
C4502 H4490 0.959 1_565 S
C4502 C4500 1.561 1_565 S
C4503 C4500 1.526 . S
C4503 C4504 1.396 . S
C4503 C4508 1.390 . S
C4504 C4498 1.465 . S
C4504 C4503 1.396 . S
C4504 C4505 1.399 . S
C4505 H4491 0.929 . S
C4505 C4504 1.399 . S
C4505 C4506 1.385 . S
C4506 H4492 0.931 . S
C4506 C4505 1.385 . S
C4506 C4507 1.389 . S
C4507 C4506 1.389 . S
C4507 C4508 1.387 . S
C4508 H4493 0.930 1_545 S
C4508 C4503 1.390 . S
C4508 C4507 1.387 . S
H4509 C4521 0.930 . S
H4510 C4523 0.930 . S
H4511 C4524 0.930 . S
H4512 C4528 0.959 . S
H4513 C4528 0.959 . S
H4514 C4528 0.961 . S
H4515 C4529 0.960 . S
H4516 C4529 0.961 . S
H4517 C4529 0.959 . S
H4518 C4532 0.929 . S
H4519 C4533 0.931 . S
H4520 C4535 0.930 . S
C4521 H4509 0.930 . S
C4521 C4522 1.399 . S
C4521 C4526 1.399 . S
C4522 C4521 1.399 . S
C4522 C4523 1.376 . S
C4523 H4510 0.930 . S
C4523 C4522 1.376 . S
C4523 C4524 1.388 . S
C4524 H4511 0.930 . S
C4524 C4523 1.388 . S
C4524 C4525 1.390 . S
C4525 C4524 1.390 . S
C4525 C4526 1.394 . S
C4525 C4531 1.465 . S
C4526 C4521 1.399 . S
C4526 C4525 1.394 . S
C4526 C4527 1.516 . S
C4527 C4526 1.516 . S
C4527 C4528 1.502 . S
C4527 C4529 1.561 . S
C4527 C4530 1.526 . S
C4528 H4512 0.959 . S
C4528 H4513 0.959 . S
C4528 H4514 0.961 . S
C4528 C4527 1.502 . S
C4529 H4515 0.960 . S
C4529 H4516 0.961 . S
C4529 H4517 0.959 . S
C4529 C4527 1.561 . S
C4530 C4527 1.526 . S
C4530 C4531 1.396 . S
C4530 C4535 1.390 . S
C4531 C4525 1.465 . S
C4531 C4530 1.396 . S
C4531 C4532 1.399 . S
C4532 H4518 0.929 . S
C4532 C4531 1.399 . S
C4532 C4533 1.385 . S
C4533 H4519 0.931 . S
C4533 C4532 1.385 . S
C4533 C4534 1.389 . S
C4534 C4533 1.389 . S
C4534 C4535 1.387 . S
C4535 H4520 0.930 . S
C4535 C4530 1.390 . S
C4535 C4534 1.387 . S
H4536 C4548 0.930 . S
H4537 C4550 0.934 . S
H4538 C4551 0.930 . S
H4539 C4555 0.959 . S
H4540 C4555 0.959 . S
H4541 C4555 0.961 . S
H4542 C4556 0.960 . S
H4543 C4556 0.961 . S
H4544 C4556 0.959 . S
H4545 C4559 0.929 . S
H4546 C4560 0.931 . S
H4547 C4562 0.930 . S
C4548 H4536 0.930 . S
C4548 C4549 1.399 . S
C4548 C4553 1.399 . S
C4549 C4548 1.399 . S
C4549 C4550 1.371 1_554 S
C4550 H4537 0.934 . S
C4550 C4549 1.371 1_556 S
C4550 C4551 1.390 . S
C4551 H4538 0.930 . S
C4551 C4550 1.390 . S
C4551 C4552 1.390 1_556 S
C4552 C4551 1.390 1_554 S
C4552 C4553 1.394 . S
C4552 C4558 1.465 . S
C4553 C4548 1.399 . S
C4553 C4552 1.394 . S
C4553 C4554 1.516 . S
C4554 C4553 1.516 . S
C4554 C4555 1.502 . S
C4554 C4556 1.561 . S
C4554 C4557 1.526 . S
C4555 H4539 0.959 . S
C4555 H4540 0.959 . S
C4555 H4541 0.961 . S
C4555 C4554 1.502 . S
C4556 H4542 0.960 . S
C4556 H4543 0.961 . S
C4556 H4544 0.959 . S
C4556 C4554 1.561 . S
C4557 C4554 1.526 . S
C4557 C4558 1.396 . S
C4557 C4562 1.390 . S
C4558 C4552 1.465 . S
C4558 C4557 1.396 . S
C4558 C4559 1.399 1_554 S
C4559 H4545 0.929 . S
C4559 C4558 1.399 1_556 S
C4559 C4560 1.385 . S
C4560 H4546 0.931 . S
C4560 C4559 1.385 . S
C4560 C4561 1.389 1_556 S
C4561 C4560 1.389 1_554 S
C4561 C4562 1.387 . S
C4562 H4547 0.930 . S
C4562 C4557 1.390 . S
C4562 C4561 1.387 . S
H4563 C4575 0.930 . S
H4564 C4577 0.930 . S
H4565 C4578 0.930 . S
H4566 C4582 0.959 . S
H4567 C4582 0.959 1_556 S
H4568 C4582 0.961 . S
H4569 C4583 0.960 . S
H4570 C4583 0.961 . S
H4571 C4583 0.959 1_554 S
H4572 C4586 0.929 . S
H4573 C4587 0.931 . S
H4574 C4589 0.930 . S
C4575 H4563 0.930 . S
C4575 C4576 1.399 . S
C4575 C4580 1.399 . S
C4576 C4575 1.399 . S
C4576 C4577 1.376 . S
C4577 H4564 0.930 . S
C4577 C4576 1.376 . S
C4577 C4578 1.388 . S
C4578 H4565 0.930 . S
C4578 C4577 1.388 . S
C4578 C4579 1.390 . S
C4579 C4578 1.390 . S
C4579 C4580 1.394 . S
C4579 C4585 1.465 . S
C4580 C4575 1.399 . S
C4580 C4579 1.394 . S
C4580 C4581 1.516 . S
C4581 C4580 1.516 . S
C4581 C4582 1.502 . S
C4581 C4583 1.561 1_554 S
C4581 C4584 1.526 . S
C4582 H4566 0.959 . S
C4582 H4567 0.959 1_554 S
C4582 H4568 0.961 . S
C4582 C4581 1.502 . S
C4583 H4569 0.960 . S
C4583 H4570 0.961 . S
C4583 H4571 0.959 1_556 S
C4583 C4581 1.561 1_556 S
C4584 C4581 1.526 . S
C4584 C4585 1.396 . S
C4584 C4589 1.390 . S
C4585 C4579 1.465 . S
C4585 C4584 1.396 . S
C4585 C4586 1.399 . S
C4586 H4572 0.929 . S
C4586 C4585 1.399 . S
C4586 C4587 1.385 . S
C4587 H4573 0.931 . S
C4587 C4586 1.385 . S
C4587 C4588 1.389 . S
C4588 C4587 1.389 . S
C4588 C4589 1.387 . S
C4589 H4574 0.930 . S
C4589 C4584 1.390 . S
C4589 C4588 1.387 . S
H4590 C4602 0.930 . S
H4591 C4604 0.930 . S
H4592 C4605 0.930 . S
H4593 C4609 0.959 . S
H4594 C4609 0.959 . S
H4595 C4609 0.961 . S
H4596 C4610 0.960 . S
H4597 C4610 0.961 . S
H4598 C4610 0.959 . S
H4599 C4613 0.929 . S
H4600 C4614 0.931 . S
H4601 C4616 0.930 . S
C4602 H4590 0.930 . S
C4602 C4603 1.399 . S
C4602 C4607 1.399 . S
C4603 C4602 1.399 . S
C4603 C4604 1.376 . S
C4604 H4591 0.930 . S
C4604 C4603 1.376 . S
C4604 C4605 1.388 . S
C4605 H4592 0.930 . S
C4605 C4604 1.388 . S
C4605 C4606 1.390 . S
C4606 C4605 1.390 . S
C4606 C4607 1.394 . S
C4606 C4612 1.465 . S
C4607 C4602 1.399 . S
C4607 C4606 1.394 . S
C4607 C4608 1.516 . S
C4608 C4607 1.516 . S
C4608 C4609 1.502 . S
C4608 C4610 1.561 . S
C4608 C4611 1.526 . S
C4609 H4593 0.959 . S
C4609 H4594 0.959 . S
C4609 H4595 0.961 . S
C4609 C4608 1.502 . S
C4610 H4596 0.960 . S
C4610 H4597 0.961 . S
C4610 H4598 0.959 . S
C4610 C4608 1.561 . S
C4611 C4608 1.526 . S
C4611 C4612 1.396 . S
C4611 C4616 1.390 . S
C4612 C4606 1.465 . S
C4612 C4611 1.396 . S
C4612 C4613 1.399 . S
C4613 H4599 0.929 . S
C4613 C4612 1.399 . S
C4613 C4614 1.385 . S
C4614 H4600 0.931 . S
C4614 C4613 1.385 . S
C4614 C4615 1.389 . S
C4615 C4614 1.389 . S
C4615 C4616 1.387 . S
C4616 H4601 0.930 . S
C4616 C4611 1.390 . S
C4616 C4615 1.387 . S
H4617 C4629 0.930 . S
H4618 C4631 0.930 . S
H4619 C4632 0.930 . S
H4620 C4636 0.959 . S
H4621 C4636 0.959 . S
H4622 C4636 0.961 . S
H4623 C4637 0.960 . S
H4624 C4637 0.961 . S
H4625 C4637 0.959 . S
H4626 C4640 0.929 . S
H4627 C4641 0.931 . S
H4628 C4643 0.930 . S
C4629 H4617 0.930 . S
C4629 C4630 1.399 . S
C4629 C4634 1.399 . S
C4630 C4629 1.399 . S
C4630 C4631 1.376 . S
C4631 H4618 0.930 . S
C4631 C4630 1.376 . S
C4631 C4632 1.388 . S
C4632 H4619 0.930 . S
C4632 C4631 1.388 . S
C4632 C4633 1.390 . S
C4633 C4632 1.390 . S
C4633 C4634 1.394 . S
C4633 C4639 1.465 . S
C4634 C4629 1.399 . S
C4634 C4633 1.394 . S
C4634 C4635 1.516 . S
C4635 C4634 1.516 . S
C4635 C4636 1.502 . S
C4635 C4637 1.561 . S
C4635 C4638 1.526 . S
C4636 H4620 0.959 . S
C4636 H4621 0.959 . S
C4636 H4622 0.961 . S
C4636 C4635 1.502 . S
C4637 H4623 0.960 . S
C4637 H4624 0.961 . S
C4637 H4625 0.959 . S
C4637 C4635 1.561 . S
C4638 C4635 1.526 . S
C4638 C4639 1.396 . S
C4638 C4643 1.390 . S
C4639 C4633 1.465 . S
C4639 C4638 1.396 . S
C4639 C4640 1.399 . S
C4640 H4626 0.929 . S
C4640 C4639 1.399 . S
C4640 C4641 1.385 . S
C4641 H4627 0.931 . S
C4641 C4640 1.385 . S
C4641 C4642 1.389 . S
C4642 C4641 1.389 . S
C4642 C4643 1.387 . S
C4643 H4628 0.930 . S
C4643 C4638 1.390 . S
C4643 C4642 1.387 . S
H4644 C4656 0.930 . S
H4645 C4658 0.930 . S
H4646 C4659 0.930 . S
H4647 C4663 0.959 . S
H4648 C4663 0.959 . S
H4649 C4663 0.961 . S
H4650 C4664 0.960 . S
H4651 C4664 0.961 . S
H4652 C4664 0.959 . S
H4653 C4667 0.929 . S
H4654 C4668 0.931 . S
H4655 C4670 0.930 . S
C4656 H4644 0.930 . S
C4656 C4657 1.399 . S
C4656 C4661 1.399 . S
C4657 C4656 1.399 . S
C4657 C4658 1.376 . S
C4658 H4645 0.930 . S
C4658 C4657 1.376 . S
C4658 C4659 1.388 . S
C4659 H4646 0.930 . S
C4659 C4658 1.388 . S
C4659 C4660 1.390 . S
C4660 C4659 1.390 . S
C4660 C4661 1.394 . S
C4660 C4666 1.465 . S
C4661 C4656 1.399 . S
C4661 C4660 1.394 . S
C4661 C4662 1.516 . S
C4662 C4661 1.516 . S
C4662 C4663 1.502 . S
C4662 C4664 1.561 . S
C4662 C4665 1.526 . S
C4663 H4647 0.959 . S
C4663 H4648 0.959 . S
C4663 H4649 0.961 . S
C4663 C4662 1.502 . S
C4664 H4650 0.960 . S
C4664 H4651 0.961 . S
C4664 H4652 0.959 . S
C4664 C4662 1.561 . S
C4665 C4662 1.526 . S
C4665 C4666 1.396 . S
C4665 C4670 1.390 . S
C4666 C4660 1.465 . S
C4666 C4665 1.396 . S
C4666 C4667 1.399 . S
C4667 H4653 0.929 . S
C4667 C4666 1.399 . S
C4667 C4668 1.385 . S
C4668 H4654 0.931 . S
C4668 C4667 1.385 . S
C4668 C4669 1.389 . S
C4669 C4668 1.389 . S
C4669 C4670 1.387 . S
C4670 H4655 0.930 . S
C4670 C4665 1.390 . S
C4670 C4669 1.387 . S
H4671 C4683 0.930 . S
H4672 C4685 0.930 . S
H4673 C4686 0.930 . S
H4674 C4690 0.959 . S
H4675 C4690 0.959 . S
H4676 C4690 0.961 . S
H4677 C4691 0.960 . S
H4678 C4691 0.961 . S
H4679 C4691 0.959 . S
H4680 C4694 0.929 . S
H4681 C4695 0.931 1_545 S
H4682 C4697 0.930 . S
C4683 H4671 0.930 . S
C4683 C4684 1.399 . S
C4683 C4688 1.399 . S
C4684 C4683 1.399 . S
C4684 C4685 1.376 . S
C4685 H4672 0.930 . S
C4685 C4684 1.376 . S
C4685 C4686 1.388 . S
C4686 H4673 0.930 . S
C4686 C4685 1.388 . S
C4686 C4687 1.390 . S
C4687 C4686 1.390 . S
C4687 C4688 1.394 . S
C4687 C4693 1.465 . S
C4688 C4683 1.399 . S
C4688 C4687 1.394 . S
C4688 C4689 1.516 . S
C4689 C4688 1.516 . S
C4689 C4690 1.502 . S
C4689 C4691 1.561 . S
C4689 C4692 1.526 . S
C4690 H4674 0.959 . S
C4690 H4675 0.959 . S
C4690 H4676 0.961 . S
C4690 C4689 1.502 . S
C4691 H4677 0.960 . S
C4691 H4678 0.961 . S
C4691 H4679 0.959 . S
C4691 C4689 1.561 . S
C4692 C4689 1.526 . S
C4692 C4693 1.396 . S
C4692 C4697 1.390 . S
C4693 C4687 1.465 . S
C4693 C4692 1.396 . S
C4693 C4694 1.399 . S
C4694 H4680 0.929 . S
C4694 C4693 1.399 . S
C4694 C4695 1.385 . S
C4695 H4681 0.931 1_565 S
C4695 C4694 1.385 . S
C4695 C4696 1.389 . S
C4696 C4695 1.389 . S
C4696 C4697 1.387 . S
C4697 H4682 0.930 . S
C4697 C4692 1.390 . S
C4697 C4696 1.387 . S
H4698 C4710 0.930 . S
H4699 C4712 0.930 . S
H4700 C4713 0.930 . S
H4701 C4717 0.959 . S
H4702 C4717 0.959 . S
H4703 C4717 0.961 . S
H4704 C4718 0.960 . S
H4705 C4718 0.961 . S
H4706 C4718 0.959 . S
H4707 C4721 0.929 . S
H4708 C4722 0.931 . S
H4709 C4724 0.930 . S
C4710 H4698 0.930 . S
C4710 C4711 1.399 . S
C4710 C4715 1.399 . S
C4711 C4710 1.399 . S
C4711 C4712 1.376 . S
C4712 H4699 0.930 . S
C4712 C4711 1.376 . S
C4712 C4713 1.388 . S
C4713 H4700 0.930 . S
C4713 C4712 1.388 . S
C4713 C4714 1.390 . S
C4714 C4713 1.390 . S
C4714 C4715 1.394 . S
C4714 C4720 1.465 . S
C4715 C4710 1.399 . S
C4715 C4714 1.394 . S
C4715 C4716 1.516 . S
C4716 C4715 1.516 . S
C4716 C4717 1.502 . S
C4716 C4718 1.561 . S
C4716 C4719 1.526 . S
C4717 H4701 0.959 . S
C4717 H4702 0.959 . S
C4717 H4703 0.961 . S
C4717 C4716 1.502 . S
C4718 H4704 0.960 . S
C4718 H4705 0.961 . S
C4718 H4706 0.959 . S
C4718 C4716 1.561 . S
C4719 C4716 1.526 . S
C4719 C4720 1.396 . S
C4719 C4724 1.390 . S
C4720 C4714 1.465 . S
C4720 C4719 1.396 . S
C4720 C4721 1.399 . S
C4721 H4707 0.929 . S
C4721 C4720 1.399 . S
C4721 C4722 1.385 . S
C4722 H4708 0.931 . S
C4722 C4721 1.385 . S
C4722 C4723 1.389 . S
C4723 C4722 1.389 . S
C4723 C4724 1.387 . S
C4724 H4709 0.930 . S
C4724 C4719 1.390 . S
C4724 C4723 1.387 . S
H4725 C4737 0.930 . S
H4726 C4739 0.930 . S
H4727 C4740 0.930 . S
H4728 C4744 0.959 . S
H4729 C4744 0.959 . S
H4730 C4744 0.961 . S
H4731 C4745 0.960 . S
H4732 C4745 0.961 . S
H4733 C4745 0.959 . S
H4734 C4748 0.929 . S
H4735 C4749 0.931 . S
H4736 C4751 0.930 . S
C4737 H4725 0.930 . S
C4737 C4738 1.399 . S
C4737 C4742 1.399 . S
C4738 C4737 1.399 . S
C4738 C4739 1.376 . S
C4739 H4726 0.930 . S
C4739 C4738 1.376 . S
C4739 C4740 1.388 . S
C4740 H4727 0.930 . S
C4740 C4739 1.388 . S
C4740 C4741 1.390 . S
C4741 C4740 1.390 . S
C4741 C4742 1.394 . S
C4741 C4747 1.465 . S
C4742 C4737 1.399 . S
C4742 C4741 1.394 . S
C4742 C4743 1.516 . S
C4743 C4742 1.516 . S
C4743 C4744 1.502 . S
C4743 C4745 1.561 . S
C4743 C4746 1.526 . S
C4744 H4728 0.959 . S
C4744 H4729 0.959 . S
C4744 H4730 0.961 . S
C4744 C4743 1.502 . S
C4745 H4731 0.960 . S
C4745 H4732 0.961 . S
C4745 H4733 0.959 . S
C4745 C4743 1.561 . S
C4746 C4743 1.526 . S
C4746 C4747 1.396 . S
C4746 C4751 1.390 . S
C4747 C4741 1.465 . S
C4747 C4746 1.396 . S
C4747 C4748 1.399 . S
C4748 H4734 0.929 . S
C4748 C4747 1.399 . S
C4748 C4749 1.385 . S
C4749 H4735 0.931 . S
C4749 C4748 1.385 . S
C4749 C4750 1.389 . S
C4750 C4749 1.389 . S
C4750 C4751 1.387 . S
C4751 H4736 0.930 . S
C4751 C4746 1.390 . S
C4751 C4750 1.387 . S
H4752 C4764 0.930 . S
H4753 C4766 0.930 . S
H4754 C4767 0.930 . S
H4755 C4771 0.959 . S
H4756 C4771 0.959 . S
H4757 C4771 0.961 . S
H4758 C4772 0.960 . S
H4759 C4772 0.961 . S
H4760 C4772 0.959 . S
H4761 C4775 0.929 . S
H4762 C4776 0.931 . S
H4763 C4778 0.930 . S
C4764 H4752 0.930 . S
C4764 C4765 1.399 . S
C4764 C4769 1.399 . S
C4765 C4764 1.399 . S
C4765 C4766 1.376 . S
C4766 H4753 0.930 . S
C4766 C4765 1.376 . S
C4766 C4767 1.388 . S
C4767 H4754 0.930 . S
C4767 C4766 1.388 . S
C4767 C4768 1.390 . S
C4768 C4767 1.390 . S
C4768 C4769 1.394 . S
C4768 C4774 1.465 . S
C4769 C4764 1.399 . S
C4769 C4768 1.394 . S
C4769 C4770 1.516 . S
C4770 C4769 1.516 . S
C4770 C4771 1.502 . S
C4770 C4772 1.561 . S
C4770 C4773 1.526 . S
C4771 H4755 0.959 . S
C4771 H4756 0.959 . S
C4771 H4757 0.961 . S
C4771 C4770 1.502 . S
C4772 H4758 0.960 . S
C4772 H4759 0.961 . S
C4772 H4760 0.959 . S
C4772 C4770 1.561 . S
C4773 C4770 1.526 . S
C4773 C4774 1.396 . S
C4773 C4778 1.390 . S
C4774 C4768 1.465 . S
C4774 C4773 1.396 . S
C4774 C4775 1.399 . S
C4775 H4761 0.929 . S
C4775 C4774 1.399 . S
C4775 C4776 1.385 . S
C4776 H4762 0.931 . S
C4776 C4775 1.385 . S
C4776 C4777 1.389 . S
C4777 C4776 1.389 . S
C4777 C4778 1.387 . S
C4778 H4763 0.930 . S
C4778 C4773 1.390 . S
C4778 C4777 1.387 . S
H4779 C4791 0.930 . S
H4780 C4793 0.930 . S
H4781 C4794 0.930 . S
H4782 C4798 0.959 . S
H4783 C4798 0.959 . S
H4784 C4798 0.961 . S
H4785 C4799 0.960 . S
H4786 C4799 0.961 . S
H4787 C4799 0.959 . S
H4788 C4802 0.929 . S
H4789 C4803 0.931 . S
H4790 C4805 0.930 . S
C4791 H4779 0.930 . S
C4791 C4792 1.399 . S
C4791 C4796 1.399 . S
C4792 C4791 1.399 . S
C4792 C4793 1.376 . S
C4793 H4780 0.930 . S
C4793 C4792 1.376 . S
C4793 C4794 1.388 . S
C4794 H4781 0.930 . S
C4794 C4793 1.388 . S
C4794 C4795 1.390 . S
C4795 C4794 1.390 . S
C4795 C4796 1.394 . S
C4795 C4801 1.465 . S
C4796 C4791 1.399 . S
C4796 C4795 1.394 . S
C4796 C4797 1.516 . S
C4797 C4796 1.516 . S
C4797 C4798 1.502 . S
C4797 C4799 1.561 . S
C4797 C4800 1.526 . S
C4798 H4782 0.959 . S
C4798 H4783 0.959 . S
C4798 H4784 0.961 . S
C4798 C4797 1.502 . S
C4799 H4785 0.960 . S
C4799 H4786 0.961 . S
C4799 H4787 0.959 . S
C4799 C4797 1.561 . S
C4800 C4797 1.526 . S
C4800 C4801 1.396 . S
C4800 C4805 1.390 . S
C4801 C4795 1.465 . S
C4801 C4800 1.396 . S
C4801 C4802 1.399 . S
C4802 H4788 0.929 . S
C4802 C4801 1.399 . S
C4802 C4803 1.385 . S
C4803 H4789 0.931 . S
C4803 C4802 1.385 . S
C4803 C4804 1.389 . S
C4804 C4803 1.389 . S
C4804 C4805 1.387 . S
C4805 H4790 0.930 . S
C4805 C4800 1.390 . S
C4805 C4804 1.387 . S
H4806 C4818 0.930 . S
H4807 C4820 0.930 . S
H4808 C4821 0.930 . S
H4809 C4825 0.959 . S
H4810 C4825 0.959 . S
H4811 C4825 0.961 . S
H4812 C4826 0.960 . S
H4813 C4826 0.961 . S
H4814 C4826 0.959 . S
H4815 C4829 0.929 . S
H4816 C4830 0.931 . S
H4817 C4832 0.930 . S
C4818 H4806 0.930 . S
C4818 C4819 1.399 . S
C4818 C4823 1.399 . S
C4819 C4818 1.399 . S
C4819 C4820 1.376 1_554 S
C4820 H4807 0.930 . S
C4820 C4819 1.376 1_556 S
C4820 C4821 1.388 . S
C4821 H4808 0.930 . S
C4821 C4820 1.388 . S
C4821 C4822 1.390 . S
C4822 C4821 1.390 . S
C4822 C4823 1.394 1_556 S
C4822 C4828 1.465 . S
C4823 C4818 1.399 . S
C4823 C4822 1.394 1_554 S
C4823 C4824 1.516 . S
C4824 C4823 1.516 . S
C4824 C4825 1.502 . S
C4824 C4826 1.561 . S
C4824 C4827 1.526 . S
C4825 H4809 0.959 . S
C4825 H4810 0.959 . S
C4825 H4811 0.961 . S
C4825 C4824 1.502 . S
C4826 H4812 0.960 . S
C4826 H4813 0.961 . S
C4826 H4814 0.959 . S
C4826 C4824 1.561 . S
C4827 C4824 1.526 . S
C4827 C4828 1.393 1_554 S
C4827 C4832 1.390 . S
C4828 C4822 1.465 . S
C4828 C4827 1.393 1_556 S
C4828 C4829 1.402 . S
C4829 H4815 0.929 . S
C4829 C4828 1.402 . S
C4829 C4830 1.385 . S
C4830 H4816 0.931 . S
C4830 C4829 1.385 . S
C4830 C4831 1.389 1_556 S
C4831 C4830 1.389 1_554 S
C4831 C4832 1.387 . S
C4832 H4817 0.930 . S
C4832 C4827 1.390 . S
C4832 C4831 1.387 . S
H4833 C4845 0.930 . S
H4834 C4847 0.930 . S
H4835 C4848 0.930 . S
H4836 C4852 0.959 . S
H4837 C4852 0.959 . S
H4838 C4852 0.961 . S
H4839 C4853 0.960 . S
H4840 C4853 0.961 . S
H4841 C4853 0.959 . S
H4842 C4856 0.929 . S
H4843 C4857 0.931 . S
H4844 C4859 0.930 . S
C4845 H4833 0.930 . S
C4845 C4846 1.399 . S
C4845 C4850 1.399 . S
C4846 C4845 1.399 . S
C4846 C4847 1.376 . S
C4847 H4834 0.930 . S
C4847 C4846 1.376 . S
C4847 C4848 1.388 . S
C4848 H4835 0.930 . S
C4848 C4847 1.388 . S
C4848 C4849 1.390 . S
C4849 C4848 1.390 . S
C4849 C4850 1.394 . S
C4849 C4855 1.465 . S
C4850 C4845 1.399 . S
C4850 C4849 1.394 . S
C4850 C4851 1.516 . S
C4851 C4850 1.516 . S
C4851 C4852 1.502 . S
C4851 C4853 1.561 . S
C4851 C4854 1.526 . S
C4852 H4836 0.959 . S
C4852 H4837 0.959 . S
C4852 H4838 0.961 . S
C4852 C4851 1.502 . S
C4853 H4839 0.960 . S
C4853 H4840 0.961 . S
C4853 H4841 0.959 . S
C4853 C4851 1.561 . S
C4854 C4851 1.526 . S
C4854 C4855 1.396 . S
C4854 C4859 1.390 . S
C4855 C4849 1.465 . S
C4855 C4854 1.396 . S
C4855 C4856 1.399 . S
C4856 H4842 0.929 . S
C4856 C4855 1.399 . S
C4856 C4857 1.385 . S
C4857 H4843 0.931 . S
C4857 C4856 1.385 . S
C4857 C4858 1.389 . S
C4858 C4857 1.389 . S
C4858 C4859 1.387 . S
C4859 H4844 0.930 . S
C4859 C4854 1.390 . S
C4859 C4858 1.387 . S
H4860 C4872 0.930 . S
H4861 C4874 0.930 . S
H4862 C4875 0.930 . S
H4863 C4879 0.959 . S
H4864 C4879 0.959 . S
H4865 C4879 0.961 . S
H4866 C4880 0.960 . S
H4867 C4880 0.961 . S
H4868 C4880 0.959 . S
H4869 C4883 0.929 . S
H4870 C4884 0.931 . S
H4871 C4886 0.930 . S
C4872 H4860 0.930 . S
C4872 C4873 1.399 . S
C4872 C4877 1.399 . S
C4873 C4872 1.399 . S
C4873 C4874 1.376 . S
C4874 H4861 0.930 . S
C4874 C4873 1.376 . S
C4874 C4875 1.388 . S
C4875 H4862 0.930 . S
C4875 C4874 1.388 . S
C4875 C4876 1.390 . S
C4876 C4875 1.390 . S
C4876 C4877 1.394 . S
C4876 C4882 1.465 . S
C4877 C4872 1.399 . S
C4877 C4876 1.394 . S
C4877 C4878 1.516 . S
C4878 C4877 1.516 . S
C4878 C4879 1.502 . S
C4878 C4880 1.561 . S
C4878 C4881 1.526 . S
C4879 H4863 0.959 . S
C4879 H4864 0.959 . S
C4879 H4865 0.961 . S
C4879 C4878 1.502 . S
C4880 H4866 0.960 . S
C4880 H4867 0.961 . S
C4880 H4868 0.959 . S
C4880 C4878 1.561 . S
C4881 C4878 1.526 . S
C4881 C4882 1.396 . S
C4881 C4886 1.390 . S
C4882 C4876 1.465 . S
C4882 C4881 1.396 . S
C4882 C4883 1.399 . S
C4883 H4869 0.929 . S
C4883 C4882 1.399 . S
C4883 C4884 1.385 . S
C4884 H4870 0.931 . S
C4884 C4883 1.385 . S
C4884 C4885 1.389 . S
C4885 C4884 1.389 . S
C4885 C4886 1.387 . S
C4886 H4871 0.930 . S
C4886 C4881 1.390 . S
C4886 C4885 1.387 . S
H4887 C4899 0.930 . S
H4888 C4901 0.954 . S
H4889 C4902 0.930 . S
H4890 C4906 0.959 . S
H4891 C4906 0.959 . S
H4892 C4906 0.961 . S
H4893 C4907 0.960 . S
H4894 C4907 0.961 . S
H4895 C4907 0.959 . S
H4896 C4910 0.929 . S
H4897 C4911 0.931 . S
H4898 C4913 0.930 . S
C4899 H4887 0.930 . S
C4899 C4900 1.399 . S
C4899 C4904 1.399 1_455 S
C4900 C4899 1.399 . S
C4900 C4901 1.397 . S
C4901 H4888 0.954 . S
C4901 C4900 1.397 . S
C4901 C4902 1.346 1_455 S
C4902 H4889 0.930 . S
C4902 C4901 1.346 1_655 S
C4902 C4903 1.390 . S
C4903 C4902 1.390 . S
C4903 C4904 1.394 . S
C4903 C4909 1.465 . S
C4904 C4899 1.399 1_655 S
C4904 C4903 1.394 . S
C4904 C4905 1.516 . S
C4905 C4904 1.516 . S
C4905 C4906 1.502 . S
C4905 C4907 1.561 . S
C4905 C4908 1.526 . S
C4906 H4890 0.959 . S
C4906 H4891 0.959 . S
C4906 H4892 0.961 . S
C4906 C4905 1.502 . S
C4907 H4893 0.960 . S
C4907 H4894 0.961 . S
C4907 H4895 0.959 . S
C4907 C4905 1.561 . S
C4908 C4905 1.526 . S
C4908 C4909 1.396 . S
C4908 C4913 1.390 . S
C4909 C4903 1.465 . S
C4909 C4908 1.396 . S
C4909 C4910 1.399 . S
C4910 H4896 0.929 . S
C4910 C4909 1.399 . S
C4910 C4911 1.385 . S
C4911 H4897 0.931 . S
C4911 C4910 1.385 . S
C4911 C4912 1.389 . S
C4912 C4911 1.389 . S
C4912 C4913 1.387 . S
C4913 H4898 0.930 . S
C4913 C4908 1.390 . S
C4913 C4912 1.387 . S
H4914 C4926 0.930 . S
H4915 C4928 0.930 . S
H4916 C4929 0.930 . S
H4917 C4933 0.959 . S
H4918 C4933 0.959 . S
H4919 C4933 0.961 . S
H4920 C4934 0.960 . S
H4921 C4934 0.961 . S
H4922 C4934 0.959 1_455 S
H4923 C4937 0.929 . S
H4924 C4938 0.931 . S
H4925 C4940 0.930 . S
C4926 H4914 0.930 . S
C4926 C4927 1.399 . S
C4926 C4931 1.399 . S
C4927 C4926 1.399 . S
C4927 C4928 1.376 1_655 S
C4928 H4915 0.930 . S
C4928 C4927 1.376 1_455 S
C4928 C4929 1.388 . S
C4929 H4916 0.930 . S
C4929 C4928 1.388 . S
C4929 C4930 1.390 . S
C4930 C4929 1.390 . S
C4930 C4931 1.394 1_455 S
C4930 C4936 1.465 . S
C4931 C4926 1.399 . S
C4931 C4930 1.394 1_655 S
C4931 C4932 1.516 . S
C4932 C4931 1.516 . S
C4932 C4933 1.502 . S
C4932 C4934 1.561 . S
C4932 C4935 1.526 1_655 S
C4933 H4917 0.959 . S
C4933 H4918 0.959 . S
C4933 H4919 0.961 . S
C4933 C4932 1.502 . S
C4934 H4920 0.960 . S
C4934 H4921 0.961 . S
C4934 H4922 0.959 1_655 S
C4934 C4932 1.561 . S
C4935 C4932 1.526 1_455 S
C4935 C4936 1.396 . S
C4935 C4940 1.390 . S
C4936 C4930 1.465 . S
C4936 C4935 1.396 . S
C4936 C4937 1.399 . S
C4937 H4923 0.929 . S
C4937 C4936 1.399 . S
C4937 C4938 1.385 . S
C4938 H4924 0.931 . S
C4938 C4937 1.385 . S
C4938 C4939 1.389 . S
C4939 C4938 1.389 . S
C4939 C4940 1.387 . S
C4940 H4925 0.930 . S
C4940 C4935 1.390 . S
C4940 C4939 1.387 . S
H4941 C4953 0.930 . S
H4942 C4955 0.930 . S
H4943 C4956 0.930 . S
H4944 C4960 0.959 . S
H4945 C4960 0.959 . S
H4946 C4960 0.961 . S
H4947 C4961 0.960 . S
H4948 C4961 0.961 . S
H4949 C4961 0.959 . S
H4950 C4964 0.929 . S
H4951 C4965 0.931 . S
H4952 C4967 0.930 . S
C4953 H4941 0.930 . S
C4953 C4954 1.399 . S
C4953 C4958 1.399 . S
C4954 C4953 1.399 . S
C4954 C4955 1.376 . S
C4955 H4942 0.930 . S
C4955 C4954 1.376 . S
C4955 C4956 1.388 . S
C4956 H4943 0.930 . S
C4956 C4955 1.388 . S
C4956 C4957 1.390 . S
C4957 C4956 1.390 . S
C4957 C4958 1.394 . S
C4957 C4963 1.465 . S
C4958 C4953 1.399 . S
C4958 C4957 1.394 . S
C4958 C4959 1.516 . S
C4959 C4958 1.516 . S
C4959 C4960 1.502 . S
C4959 C4961 1.561 . S
C4959 C4962 1.526 . S
C4960 H4944 0.959 . S
C4960 H4945 0.959 . S
C4960 H4946 0.961 . S
C4960 C4959 1.502 . S
C4961 H4947 0.960 . S
C4961 H4948 0.961 . S
C4961 H4949 0.959 . S
C4961 C4959 1.561 . S
C4962 C4959 1.526 . S
C4962 C4963 1.396 . S
C4962 C4967 1.390 . S
C4963 C4957 1.465 . S
C4963 C4962 1.396 . S
C4963 C4964 1.399 . S
C4964 H4950 0.929 . S
C4964 C4963 1.399 . S
C4964 C4965 1.385 . S
C4965 H4951 0.931 . S
C4965 C4964 1.385 . S
C4965 C4966 1.389 . S
C4966 C4965 1.389 . S
C4966 C4967 1.387 . S
C4967 H4952 0.930 . S
C4967 C4962 1.390 . S
C4967 C4966 1.387 . S
H4968 C4980 0.930 . S
H4969 C4982 0.930 . S
H4970 C4983 0.930 . S
H4971 C4987 0.959 . S
H4972 C4987 0.959 . S
H4973 C4987 0.961 . S
H4974 C4988 0.960 . S
H4975 C4988 0.961 . S
H4976 C4988 0.959 . S
H4977 C4991 0.929 . S
H4978 C4992 0.931 . S
H4979 C4994 0.930 . S
C4980 H4968 0.930 . S
C4980 C4981 1.399 . S
C4980 C4985 1.399 . S
C4981 C4980 1.399 . S
C4981 C4982 1.376 . S
C4982 H4969 0.930 . S
C4982 C4981 1.376 . S
C4982 C4983 1.388 . S
C4983 H4970 0.930 . S
C4983 C4982 1.388 . S
C4983 C4984 1.390 . S
C4984 C4983 1.390 . S
C4984 C4985 1.394 . S
C4984 C4990 1.465 . S
C4985 C4980 1.399 . S
C4985 C4984 1.394 . S
C4985 C4986 1.516 . S
C4986 C4985 1.516 . S
C4986 C4987 1.502 . S
C4986 C4988 1.561 . S
C4986 C4989 1.526 . S
C4987 H4971 0.959 . S
C4987 H4972 0.959 . S
C4987 H4973 0.961 . S
C4987 C4986 1.502 . S
C4988 H4974 0.960 . S
C4988 H4975 0.961 . S
C4988 H4976 0.959 . S
C4988 C4986 1.561 . S
C4989 C4986 1.526 . S
C4989 C4990 1.396 . S
C4989 C4994 1.390 . S
C4990 C4984 1.465 . S
C4990 C4989 1.396 . S
C4990 C4991 1.399 . S
C4991 H4977 0.929 . S
C4991 C4990 1.399 . S
C4991 C4992 1.385 . S
C4992 H4978 0.931 . S
C4992 C4991 1.385 . S
C4992 C4993 1.389 . S
C4993 C4992 1.389 . S
C4993 C4994 1.387 . S
C4994 H4979 0.930 . S
C4994 C4989 1.390 . S
C4994 C4993 1.387 . S
H4995 C5007 0.930 . S
H4996 C5009 0.930 . S
H4997 C5010 0.930 . S
H4998 C5014 0.959 . S
H4999 C5014 0.959 . S
H5000 C5014 0.961 . S
H5001 C5015 0.960 . S
H5002 C5015 0.961 . S
H5003 C5015 0.959 . S
H5004 C5018 0.929 . S
H5005 C5019 0.931 . S
H5006 C5021 0.930 . S
C5007 H4995 0.930 . S
C5007 C5008 1.399 . S
C5007 C5012 1.399 . S
C5008 C5007 1.399 . S
C5008 C5009 1.376 . S
C5009 H4996 0.930 . S
C5009 C5008 1.376 . S
C5009 C5010 1.388 . S
C5010 H4997 0.930 . S
C5010 C5009 1.388 . S
C5010 C5011 1.390 . S
C5011 C5010 1.390 . S
C5011 C5012 1.394 . S
C5011 C5017 1.465 . S
C5012 C5007 1.399 . S
C5012 C5011 1.394 . S
C5012 C5013 1.516 . S
C5013 C5012 1.516 . S
C5013 C5014 1.502 . S
C5013 C5015 1.561 . S
C5013 C5016 1.526 . S
C5014 H4998 0.959 . S
C5014 H4999 0.959 . S
C5014 H5000 0.961 . S
C5014 C5013 1.502 . S
C5015 H5001 0.960 . S
C5015 H5002 0.961 . S
C5015 H5003 0.959 . S
C5015 C5013 1.561 . S
C5016 C5013 1.526 . S
C5016 C5017 1.396 . S
C5016 C5021 1.390 . S
C5017 C5011 1.465 . S
C5017 C5016 1.396 . S
C5017 C5018 1.399 . S
C5018 H5004 0.929 . S
C5018 C5017 1.399 . S
C5018 C5019 1.385 . S
C5019 H5005 0.931 . S
C5019 C5018 1.385 . S
C5019 C5020 1.389 . S
C5020 C5019 1.389 . S
C5020 C5021 1.387 . S
C5021 H5006 0.930 . S
C5021 C5016 1.390 . S
C5021 C5020 1.387 . S
H5022 C5034 0.930 . S
H5023 C5036 0.930 . S
H5024 C5037 0.930 . S
H5025 C5041 0.959 . S
H5026 C5041 0.959 . S
H5027 C5041 0.961 . S
H5028 C5042 0.960 . S
H5029 C5042 0.961 . S
H5030 C5042 0.959 . S
H5031 C5045 0.929 . S
H5032 C5046 0.931 . S
H5033 C5048 0.930 . S
C5034 H5022 0.930 . S
C5034 C5035 1.399 . S
C5034 C5039 1.399 . S
C5035 C5034 1.399 . S
C5035 C5036 1.376 . S
C5036 H5023 0.930 . S
C5036 C5035 1.376 . S
C5036 C5037 1.388 . S
C5037 H5024 0.930 . S
C5037 C5036 1.388 . S
C5037 C5038 1.390 . S
C5038 C5037 1.390 . S
C5038 C5039 1.394 . S
C5038 C5044 1.465 . S
C5039 C5034 1.399 . S
C5039 C5038 1.394 . S
C5039 C5040 1.516 . S
C5040 C5039 1.516 . S
C5040 C5041 1.502 . S
C5040 C5042 1.561 . S
C5040 C5043 1.526 . S
C5041 H5025 0.959 . S
C5041 H5026 0.959 . S
C5041 H5027 0.961 . S
C5041 C5040 1.502 . S
C5042 H5028 0.960 . S
C5042 H5029 0.961 . S
C5042 H5030 0.959 . S
C5042 C5040 1.561 . S
C5043 C5040 1.526 . S
C5043 C5044 1.396 . S
C5043 C5048 1.390 . S
C5044 C5038 1.465 . S
C5044 C5043 1.396 . S
C5044 C5045 1.399 . S
C5045 H5031 0.929 . S
C5045 C5044 1.399 . S
C5045 C5046 1.385 . S
C5046 H5032 0.931 . S
C5046 C5045 1.385 . S
C5046 C5047 1.389 . S
C5047 C5046 1.389 . S
C5047 C5048 1.387 . S
C5048 H5033 0.930 . S
C5048 C5043 1.390 . S
C5048 C5047 1.387 . S
H5049 C5061 0.930 . S
H5050 C5063 0.930 . S
H5051 C5064 0.930 . S
H5052 C5068 0.959 . S
H5053 C5068 0.959 . S
H5054 C5068 0.961 . S
H5055 C5069 0.960 . S
H5056 C5069 0.961 . S
H5057 C5069 0.959 . S
H5058 C5072 0.929 . S
H5059 C5073 0.931 . S
H5060 C5075 0.930 . S
C5061 H5049 0.930 . S
C5061 C5062 1.399 . S
C5061 C5066 1.399 . S
C5062 C5061 1.399 . S
C5062 C5063 1.376 . S
C5063 H5050 0.930 . S
C5063 C5062 1.376 . S
C5063 C5064 1.388 . S
C5064 H5051 0.930 . S
C5064 C5063 1.388 . S
C5064 C5065 1.390 . S
C5065 C5064 1.390 . S
C5065 C5066 1.394 . S
C5065 C5071 1.465 . S
C5066 C5061 1.399 . S
C5066 C5065 1.394 . S
C5066 C5067 1.516 . S
C5067 C5066 1.516 . S
C5067 C5068 1.502 . S
C5067 C5069 1.561 . S
C5067 C5070 1.526 . S
C5068 H5052 0.959 . S
C5068 H5053 0.959 . S
C5068 H5054 0.961 . S
C5068 C5067 1.502 . S
C5069 H5055 0.960 . S
C5069 H5056 0.961 . S
C5069 H5057 0.959 . S
C5069 C5067 1.561 . S
C5070 C5067 1.526 . S
C5070 C5071 1.396 . S
C5070 C5075 1.390 . S
C5071 C5065 1.465 . S
C5071 C5070 1.396 . S
C5071 C5072 1.399 . S
C5072 H5058 0.929 . S
C5072 C5071 1.399 . S
C5072 C5073 1.385 . S
C5073 H5059 0.931 . S
C5073 C5072 1.385 . S
C5073 C5074 1.389 . S
C5074 C5073 1.389 . S
C5074 C5075 1.387 . S
C5075 H5060 0.930 . S
C5075 C5070 1.390 . S
C5075 C5074 1.387 . S
H5076 C5088 0.930 . S
H5077 C5090 0.930 . S
H5078 C5091 0.930 . S
H5079 C5095 0.959 . S
H5080 C5095 0.959 . S
H5081 C5095 0.961 . S
H5082 C5096 0.960 . S
H5083 C5096 0.961 . S
H5084 C5096 0.959 . S
H5085 C5099 0.929 . S
H5086 C5100 0.931 . S
H5087 C5102 0.930 . S
C5088 H5076 0.930 . S
C5088 C5089 1.399 . S
C5088 C5093 1.399 . S
C5089 C5088 1.399 . S
C5089 C5090 1.376 . S
C5090 H5077 0.930 . S
C5090 C5089 1.376 . S
C5090 C5091 1.388 . S
C5091 H5078 0.930 . S
C5091 C5090 1.388 . S
C5091 C5092 1.390 . S
C5092 C5091 1.390 . S
C5092 C5093 1.394 . S
C5092 C5098 1.465 . S
C5093 C5088 1.399 . S
C5093 C5092 1.394 . S
C5093 C5094 1.516 . S
C5094 C5093 1.516 . S
C5094 C5095 1.502 . S
C5094 C5096 1.561 . S
C5094 C5097 1.526 . S
C5095 H5079 0.959 . S
C5095 H5080 0.959 . S
C5095 H5081 0.961 . S
C5095 C5094 1.502 . S
C5096 H5082 0.960 . S
C5096 H5083 0.961 . S
C5096 H5084 0.959 . S
C5096 C5094 1.561 . S
C5097 C5094 1.526 . S
C5097 C5098 1.396 . S
C5097 C5102 1.390 . S
C5098 C5092 1.465 . S
C5098 C5097 1.396 . S
C5098 C5099 1.399 . S
C5099 H5085 0.929 . S
C5099 C5098 1.399 . S
C5099 C5100 1.385 . S
C5100 H5086 0.931 . S
C5100 C5099 1.385 . S
C5100 C5101 1.389 . S
C5101 C5100 1.389 . S
C5101 C5102 1.387 . S
C5102 H5087 0.930 . S
C5102 C5097 1.390 . S
C5102 C5101 1.387 . S
H5103 C5115 0.930 . S
H5104 C5117 0.930 . S
H5105 C5118 0.930 . S
H5106 C5122 0.959 . S
H5107 C5122 0.959 . S
H5108 C5122 0.961 . S
H5109 C5123 0.960 . S
H5110 C5123 0.961 . S
H5111 C5123 0.959 . S
H5112 C5126 0.929 . S
H5113 C5127 0.931 . S
H5114 C5129 0.930 . S
C5115 H5103 0.930 . S
C5115 C5116 1.399 . S
C5115 C5120 1.399 . S
C5116 C5115 1.399 . S
C5116 C5117 1.376 . S
C5117 H5104 0.930 . S
C5117 C5116 1.376 . S
C5117 C5118 1.388 . S
C5118 H5105 0.930 . S
C5118 C5117 1.388 . S
C5118 C5119 1.390 . S
C5119 C5118 1.390 . S
C5119 C5120 1.394 . S
C5119 C5125 1.465 . S
C5120 C5115 1.399 . S
C5120 C5119 1.394 . S
C5120 C5121 1.516 . S
C5121 C5120 1.516 . S
C5121 C5122 1.502 . S
C5121 C5123 1.561 . S
C5121 C5124 1.526 . S
C5122 H5106 0.959 . S
C5122 H5107 0.959 . S
C5122 H5108 0.961 . S
C5122 C5121 1.502 . S
C5123 H5109 0.960 . S
C5123 H5110 0.961 . S
C5123 H5111 0.959 . S
C5123 C5121 1.561 . S
C5124 C5121 1.526 . S
C5124 C5125 1.396 . S
C5124 C5129 1.390 . S
C5125 C5119 1.465 . S
C5125 C5124 1.396 . S
C5125 C5126 1.399 . S
C5126 H5112 0.929 . S
C5126 C5125 1.399 . S
C5126 C5127 1.385 . S
C5127 H5113 0.931 . S
C5127 C5126 1.385 . S
C5127 C5128 1.389 . S
C5128 C5127 1.389 . S
C5128 C5129 1.387 . S
C5129 H5114 0.930 . S
C5129 C5124 1.390 . S
C5129 C5128 1.387 . S
H5130 C5142 0.930 . S
H5131 C5144 0.930 . S
H5132 C5145 0.930 . S
H5133 C5149 0.959 . S
H5134 C5149 0.959 . S
H5135 C5149 0.961 . S
H5136 C5150 0.960 . S
H5137 C5150 0.961 . S
H5138 C5150 0.959 . S
H5139 C5153 0.929 . S
H5140 C5154 0.931 . S
H5141 C5156 0.930 . S
C5142 H5130 0.930 . S
C5142 C5143 1.399 . S
C5142 C5147 1.399 . S
C5143 C5142 1.399 . S
C5143 C5144 1.376 . S
C5144 H5131 0.930 . S
C5144 C5143 1.376 . S
C5144 C5145 1.388 . S
C5145 H5132 0.930 . S
C5145 C5144 1.388 . S
C5145 C5146 1.390 . S
C5146 C5145 1.390 . S
C5146 C5147 1.394 . S
C5146 C5152 1.465 . S
C5147 C5142 1.399 . S
C5147 C5146 1.394 . S
C5147 C5148 1.516 . S
C5148 C5147 1.516 . S
C5148 C5149 1.502 . S
C5148 C5150 1.561 . S
C5148 C5151 1.526 . S
C5149 H5133 0.959 . S
C5149 H5134 0.959 . S
C5149 H5135 0.961 . S
C5149 C5148 1.502 . S
C5150 H5136 0.960 . S
C5150 H5137 0.961 . S
C5150 H5138 0.959 . S
C5150 C5148 1.561 . S
C5151 C5148 1.526 . S
C5151 C5152 1.396 . S
C5151 C5156 1.390 . S
C5152 C5146 1.465 . S
C5152 C5151 1.396 . S
C5152 C5153 1.399 . S
C5153 H5139 0.929 . S
C5153 C5152 1.399 . S
C5153 C5154 1.385 . S
C5154 H5140 0.931 . S
C5154 C5153 1.385 . S
C5154 C5155 1.389 . S
C5155 C5154 1.389 . S
C5155 C5156 1.387 . S
C5156 H5141 0.930 . S
C5156 C5151 1.390 . S
C5156 C5155 1.387 . S
H5157 C5169 0.930 . S
H5158 C5171 0.930 . S
H5159 C5172 0.930 . S
H5160 C5176 0.959 . S
H5161 C5176 0.959 . S
H5162 C5176 0.961 . S
H5163 C5177 0.960 . S
H5164 C5177 0.961 . S
H5165 C5177 0.959 . S
H5166 C5180 0.929 . S
H5167 C5181 0.931 . S
H5168 C5183 0.930 . S
C5169 H5157 0.930 . S
C5169 C5170 1.399 . S
C5169 C5174 1.399 . S
C5170 C5169 1.399 . S
C5170 C5171 1.376 . S
C5171 H5158 0.930 . S
C5171 C5170 1.376 . S
C5171 C5172 1.388 . S
C5172 H5159 0.930 . S
C5172 C5171 1.388 . S
C5172 C5173 1.390 . S
C5173 C5172 1.390 . S
C5173 C5174 1.394 . S
C5173 C5179 1.465 . S
C5174 C5169 1.399 . S
C5174 C5173 1.394 . S
C5174 C5175 1.516 . S
C5175 C5174 1.516 . S
C5175 C5176 1.502 . S
C5175 C5177 1.561 . S
C5175 C5178 1.526 . S
C5176 H5160 0.959 . S
C5176 H5161 0.959 . S
C5176 H5162 0.961 . S
C5176 C5175 1.502 . S
C5177 H5163 0.960 . S
C5177 H5164 0.961 . S
C5177 H5165 0.959 . S
C5177 C5175 1.561 . S
C5178 C5175 1.526 . S
C5178 C5179 1.396 . S
C5178 C5183 1.390 . S
C5179 C5173 1.465 . S
C5179 C5178 1.396 . S
C5179 C5180 1.399 . S
C5180 H5166 0.929 . S
C5180 C5179 1.399 . S
C5180 C5181 1.385 . S
C5181 H5167 0.931 . S
C5181 C5180 1.385 . S
C5181 C5182 1.389 . S
C5182 C5181 1.389 . S
C5182 C5183 1.387 . S
C5183 H5168 0.930 . S
C5183 C5178 1.390 . S
C5183 C5182 1.387 . S
H5184 C5196 0.930 . S
H5185 C5198 0.930 . S
H5186 C5199 0.930 . S
H5187 C5203 0.959 . S
H5188 C5203 0.959 . S
H5189 C5203 0.961 . S
H5190 C5204 0.960 . S
H5191 C5204 0.961 . S
H5192 C5204 0.959 . S
H5193 C5207 0.929 . S
H5194 C5208 0.931 . S
H5195 C5210 0.930 . S
C5196 H5184 0.930 . S
C5196 C5197 1.399 . S
C5196 C5201 1.399 . S
C5197 C5196 1.399 . S
C5197 C5198 1.376 . S
C5198 H5185 0.930 . S
C5198 C5197 1.376 . S
C5198 C5199 1.388 . S
C5199 H5186 0.930 . S
C5199 C5198 1.388 . S
C5199 C5200 1.390 . S
C5200 C5199 1.390 . S
C5200 C5201 1.394 . S
C5200 C5206 1.465 . S
C5201 C5196 1.399 . S
C5201 C5200 1.394 . S
C5201 C5202 1.516 . S
C5202 C5201 1.516 . S
C5202 C5203 1.502 . S
C5202 C5204 1.561 . S
C5202 C5205 1.526 . S
C5203 H5187 0.959 . S
C5203 H5188 0.959 . S
C5203 H5189 0.961 . S
C5203 C5202 1.502 . S
C5204 H5190 0.960 . S
C5204 H5191 0.961 . S
C5204 H5192 0.959 . S
C5204 C5202 1.561 . S
C5205 C5202 1.526 . S
C5205 C5206 1.396 . S
C5205 C5210 1.390 . S
C5206 C5200 1.465 . S
C5206 C5205 1.396 . S
C5206 C5207 1.399 . S
C5207 H5193 0.929 . S
C5207 C5206 1.399 . S
C5207 C5208 1.385 . S
C5208 H5194 0.931 . S
C5208 C5207 1.385 . S
C5208 C5209 1.389 . S
C5209 C5208 1.389 . S
C5209 C5210 1.387 . S
C5210 H5195 0.930 . S
C5210 C5205 1.390 . S
C5210 C5209 1.387 . S
H5211 C5223 0.930 . S
H5212 C5225 0.930 . S
H5213 C5226 0.930 . S
H5214 C5230 0.959 . S
H5215 C5230 0.959 . S
H5216 C5230 0.961 . S
H5217 C5231 0.960 . S
H5218 C5231 0.961 . S
H5219 C5231 0.959 . S
H5220 C5234 0.929 . S
H5221 C5235 0.931 . S
H5222 C5237 0.930 . S
C5223 H5211 0.930 . S
C5223 C5224 1.399 . S
C5223 C5228 1.399 . S
C5224 C5223 1.399 . S
C5224 C5225 1.376 . S
C5225 H5212 0.930 . S
C5225 C5224 1.376 . S
C5225 C5226 1.388 . S
C5226 H5213 0.930 . S
C5226 C5225 1.388 . S
C5226 C5227 1.390 . S
C5227 C5226 1.390 . S
C5227 C5228 1.394 . S
C5227 C5233 1.465 . S
C5228 C5223 1.399 . S
C5228 C5227 1.394 . S
C5228 C5229 1.516 . S
C5229 C5228 1.516 . S
C5229 C5230 1.502 . S
C5229 C5231 1.561 . S
C5229 C5232 1.526 . S
C5230 H5214 0.959 . S
C5230 H5215 0.959 . S
C5230 H5216 0.961 . S
C5230 C5229 1.502 . S
C5231 H5217 0.960 . S
C5231 H5218 0.961 . S
C5231 H5219 0.959 . S
C5231 C5229 1.561 . S
C5232 C5229 1.526 . S
C5232 C5233 1.396 . S
C5232 C5237 1.390 . S
C5233 C5227 1.465 . S
C5233 C5232 1.396 . S
C5233 C5234 1.399 . S
C5234 H5220 0.929 . S
C5234 C5233 1.399 . S
C5234 C5235 1.385 . S
C5235 H5221 0.931 . S
C5235 C5234 1.385 . S
C5235 C5236 1.389 . S
C5236 C5235 1.389 . S
C5236 C5237 1.387 . S
C5237 H5222 0.930 . S
C5237 C5232 1.390 . S
C5237 C5236 1.387 . S
H5238 C5250 0.930 . S
H5239 C5252 0.930 . S
H5240 C5253 0.930 . S
H5241 C5257 0.959 . S
H5242 C5257 0.959 . S
H5243 C5257 0.961 . S
H5244 C5258 0.960 . S
H5245 C5258 0.961 . S
H5246 C5258 0.959 . S
H5247 C5261 0.929 . S
H5248 C5262 0.931 . S
H5249 C5264 0.930 . S
C5250 H5238 0.930 . S
C5250 C5251 1.399 . S
C5250 C5255 1.399 . S
C5251 C5250 1.399 . S
C5251 C5252 1.376 . S
C5252 H5239 0.930 . S
C5252 C5251 1.376 . S
C5252 C5253 1.388 . S
C5253 H5240 0.930 . S
C5253 C5252 1.388 . S
C5253 C5254 1.390 . S
C5254 C5253 1.390 . S
C5254 C5255 1.394 . S
C5254 C5260 1.465 . S
C5255 C5250 1.399 . S
C5255 C5254 1.394 . S
C5255 C5256 1.516 . S
C5256 C5255 1.516 . S
C5256 C5257 1.502 . S
C5256 C5258 1.561 . S
C5256 C5259 1.526 . S
C5257 H5241 0.959 . S
C5257 H5242 0.959 . S
C5257 H5243 0.961 . S
C5257 C5256 1.502 . S
C5258 H5244 0.960 . S
C5258 H5245 0.961 . S
C5258 H5246 0.959 . S
C5258 C5256 1.561 . S
C5259 C5256 1.526 . S
C5259 C5260 1.396 . S
C5259 C5264 1.390 . S
C5260 C5254 1.465 . S
C5260 C5259 1.396 . S
C5260 C5261 1.399 . S
C5261 H5247 0.929 . S
C5261 C5260 1.399 . S
C5261 C5262 1.385 . S
C5262 H5248 0.931 . S
C5262 C5261 1.385 . S
C5262 C5263 1.389 . S
C5263 C5262 1.389 . S
C5263 C5264 1.387 . S
C5264 H5249 0.930 . S
C5264 C5259 1.390 . S
C5264 C5263 1.387 . S
H5265 C5277 0.930 . S
H5266 C5279 0.930 1_556 S
H5267 C5280 0.878 1_556 S
H5268 C5284 0.959 . S
H5269 C5284 0.959 . S
H5270 C5284 0.961 . S
H5271 C5285 0.960 . S
H5272 C5285 0.961 . S
H5273 C5285 0.959 . S
H5274 C5288 0.929 . S
H5275 C5289 0.927 . S
H5276 C5291 0.930 . S
C5277 H5265 0.930 . S
C5277 C5278 1.399 . S
C5277 C5282 1.399 . S
C5278 C5277 1.399 . S
C5278 C5279 1.376 1_565 S
C5279 H5266 0.930 1_554 S
C5279 C5278 1.376 1_545 S
C5279 C5280 1.410 . S
C5280 H5267 0.878 1_554 S
C5280 C5279 1.410 . S
C5280 C5281 1.422 . S
C5281 C5280 1.422 . S
C5281 C5282 1.395 1_545 S
C5281 C5287 1.465 . S
C5282 C5277 1.399 . S
C5282 C5281 1.395 1_565 S
C5282 C5283 1.498 . S
C5283 C5282 1.498 . S
C5283 C5284 1.489 1_565 S
C5283 C5285 1.619 . S
C5283 C5286 1.502 1_565 S
C5284 H5268 0.959 . S
C5284 H5269 0.959 . S
C5284 H5270 0.961 . S
C5284 C5283 1.489 1_545 S
C5285 H5271 0.960 . S
C5285 H5272 0.961 . S
C5285 H5273 0.959 . S
C5285 C5283 1.619 . S
C5286 C5283 1.502 1_545 S
C5286 C5287 1.396 . S
C5286 C5291 1.390 . S
C5287 C5281 1.465 . S
C5287 C5286 1.396 . S
C5287 C5288 1.399 1_554 S
C5288 H5274 0.929 . S
C5288 C5287 1.399 1_556 S
C5288 C5289 1.385 . S
C5289 H5275 0.927 . S
C5289 C5288 1.385 . S
C5289 C5290 1.393 1_556 S
C5290 C5289 1.393 1_554 S
C5290 C5291 1.387 . S
C5291 H5276 0.930 . S
C5291 C5286 1.390 . S
C5291 C5290 1.387 . S
H5292 C5304 0.930 . S
H5293 C5306 0.930 . S
H5294 C5307 0.930 . S
H5295 C5311 0.959 . S
H5296 C5311 0.959 . S
H5297 C5311 0.961 . S
H5298 C5312 0.960 . S
H5299 C5312 0.961 . S
H5300 C5312 0.959 . S
H5301 C5315 0.929 . S
H5302 C5316 0.931 . S
H5303 C5318 0.930 . S
C5304 H5292 0.930 . S
C5304 C5305 1.399 . S
C5304 C5309 1.399 . S
C5305 C5304 1.399 . S
C5305 C5306 1.376 . S
C5306 H5293 0.930 . S
C5306 C5305 1.376 . S
C5306 C5307 1.388 . S
C5307 H5294 0.930 . S
C5307 C5306 1.388 . S
C5307 C5308 1.390 . S
C5308 C5307 1.390 . S
C5308 C5309 1.394 . S
C5308 C5314 1.465 . S
C5309 C5304 1.399 . S
C5309 C5308 1.394 . S
C5309 C5310 1.516 . S
C5310 C5309 1.516 . S
C5310 C5311 1.502 . S
C5310 C5312 1.561 . S
C5310 C5313 1.526 . S
C5311 H5295 0.959 . S
C5311 H5296 0.959 . S
C5311 H5297 0.961 . S
C5311 C5310 1.502 . S
C5312 H5298 0.960 . S
C5312 H5299 0.961 . S
C5312 H5300 0.959 . S
C5312 C5310 1.561 . S
C5313 C5310 1.526 . S
C5313 C5314 1.396 . S
C5313 C5318 1.390 . S
C5314 C5308 1.465 . S
C5314 C5313 1.396 . S
C5314 C5315 1.399 . S
C5315 H5301 0.929 . S
C5315 C5314 1.399 . S
C5315 C5316 1.385 . S
C5316 H5302 0.931 . S
C5316 C5315 1.385 . S
C5316 C5317 1.389 . S
C5317 C5316 1.389 . S
C5317 C5318 1.387 . S
C5318 H5303 0.930 . S
C5318 C5313 1.390 . S
C5318 C5317 1.387 . S
H5319 C5331 0.930 . S
H5320 C5333 0.930 . S
H5321 C5334 0.930 . S
H5322 C5338 0.988 . S
H5323 C5338 0.959 . S
H5324 C5338 0.961 . S
H5325 C5339 0.960 . S
H5326 C5339 0.961 . S
H5327 C5339 0.959 . S
H5328 C5342 0.929 . S
H5329 C5343 0.931 . S
H5330 C5345 0.930 . S
C5331 H5319 0.930 . S
C5331 C5332 1.411 . S
C5331 C5336 1.399 . S
C5332 C5331 1.411 . S
C5332 C5333 1.349 1_556 S
C5333 H5320 0.930 . S
C5333 C5332 1.349 1_554 S
C5333 C5334 1.388 . S
C5334 H5321 0.930 . S
C5334 C5333 1.388 . S
C5334 C5335 1.390 . S
C5335 C5334 1.390 . S
C5335 C5336 1.394 1_554 S
C5335 C5341 1.465 . S
C5336 C5331 1.399 . S
C5336 C5335 1.394 1_556 S
C5336 C5337 1.516 . S
C5337 C5336 1.516 . S
C5337 C5338 1.502 . S
C5337 C5339 1.561 . S
C5337 C5340 1.526 1_556 S
C5338 H5322 0.988 . S
C5338 H5323 0.959 . S
C5338 H5324 0.961 . S
C5338 C5337 1.502 . S
C5339 H5325 0.960 . S
C5339 H5326 0.961 . S
C5339 H5327 0.959 . S
C5339 C5337 1.561 . S
C5340 C5337 1.526 1_554 S
C5340 C5341 1.396 . S
C5340 C5345 1.390 . S
C5341 C5335 1.465 . S
C5341 C5340 1.396 . S
C5341 C5342 1.399 . S
C5342 H5328 0.929 . S
C5342 C5341 1.399 . S
C5342 C5343 1.385 . S
C5343 H5329 0.931 . S
C5343 C5342 1.385 . S
C5343 C5344 1.389 . S
C5344 C5343 1.389 . S
C5344 C5345 1.387 . S
C5345 H5330 0.930 . S
C5345 C5340 1.390 . S
C5345 C5344 1.387 . S
H5346 C5358 0.930 . S
H5347 C5360 0.930 . S
H5348 C5361 0.930 . S
H5349 C5365 0.959 . S
H5350 C5365 0.959 . S
H5351 C5365 0.961 . S
H5352 C5366 0.960 . S
H5353 C5366 0.961 . S
H5354 C5366 0.959 . S
H5355 C5369 0.929 . S
H5356 C5370 0.931 . S
H5357 C5372 0.930 . S
C5358 H5346 0.930 . S
C5358 C5359 1.399 . S
C5358 C5363 1.399 . S
C5359 C5358 1.399 . S
C5359 C5360 1.376 . S
C5360 H5347 0.930 . S
C5360 C5359 1.376 . S
C5360 C5361 1.388 . S
C5361 H5348 0.930 . S
C5361 C5360 1.388 . S
C5361 C5362 1.390 . S
C5362 C5361 1.390 . S
C5362 C5363 1.394 . S
C5362 C5368 1.465 . S
C5363 C5358 1.399 . S
C5363 C5362 1.394 . S
C5363 C5364 1.516 . S
C5364 C5363 1.516 . S
C5364 C5365 1.502 . S
C5364 C5366 1.561 . S
C5364 C5367 1.526 . S
C5365 H5349 0.959 . S
C5365 H5350 0.959 . S
C5365 H5351 0.961 . S
C5365 C5364 1.502 . S
C5366 H5352 0.960 . S
C5366 H5353 0.961 . S
C5366 H5354 0.959 . S
C5366 C5364 1.561 . S
C5367 C5364 1.526 . S
C5367 C5368 1.396 . S
C5367 C5372 1.390 . S
C5368 C5362 1.465 . S
C5368 C5367 1.396 . S
C5368 C5369 1.399 . S
C5369 H5355 0.929 . S
C5369 C5368 1.399 . S
C5369 C5370 1.385 . S
C5370 H5356 0.931 . S
C5370 C5369 1.385 . S
C5370 C5371 1.389 . S
C5371 C5370 1.389 . S
C5371 C5372 1.387 . S
C5372 H5357 0.930 . S
C5372 C5367 1.390 . S
C5372 C5371 1.387 . S
H5373 C5385 0.930 . S
H5374 C5387 0.930 . S
H5375 C5388 0.930 . S
H5376 C5392 0.959 . S
H5377 C5392 0.959 . S
H5378 C5392 0.961 . S
H5379 C5393 0.960 . S
H5380 C5393 0.961 . S
H5381 C5393 0.959 . S
H5382 C5396 0.929 . S
H5383 C5397 0.931 . S
H5384 C5399 0.930 . S
C5385 H5373 0.930 . S
C5385 C5386 1.399 . S
C5385 C5390 1.399 . S
C5386 C5385 1.399 . S
C5386 C5387 1.376 . S
C5387 H5374 0.930 . S
C5387 C5386 1.376 . S
C5387 C5388 1.388 . S
C5388 H5375 0.930 . S
C5388 C5387 1.388 . S
C5388 C5389 1.390 . S
C5389 C5388 1.390 . S
C5389 C5390 1.394 . S
C5389 C5395 1.465 . S
C5390 C5385 1.399 . S
C5390 C5389 1.394 . S
C5390 C5391 1.516 . S
C5391 C5390 1.516 . S
C5391 C5392 1.502 . S
C5391 C5393 1.561 . S
C5391 C5394 1.526 . S
C5392 H5376 0.959 . S
C5392 H5377 0.959 . S
C5392 H5378 0.961 . S
C5392 C5391 1.502 . S
C5393 H5379 0.960 . S
C5393 H5380 0.961 . S
C5393 H5381 0.959 . S
C5393 C5391 1.561 . S
C5394 C5391 1.526 . S
C5394 C5395 1.396 . S
C5394 C5399 1.390 . S
C5395 C5389 1.465 . S
C5395 C5394 1.396 . S
C5395 C5396 1.399 . S
C5396 H5382 0.929 . S
C5396 C5395 1.399 . S
C5396 C5397 1.385 . S
C5397 H5383 0.931 . S
C5397 C5396 1.385 . S
C5397 C5398 1.389 . S
C5398 C5397 1.389 . S
C5398 C5399 1.387 . S
C5399 H5384 0.930 . S
C5399 C5394 1.390 . S
C5399 C5398 1.387 . S
H5400 C5412 0.930 . S
H5401 C5414 0.930 . S
H5402 C5415 0.930 . S
H5403 C5419 0.959 . S
H5404 C5419 0.959 . S
H5405 C5419 0.961 . S
H5406 C5420 0.960 . S
H5407 C5420 0.961 . S
H5408 C5420 0.959 . S
H5409 C5423 0.929 . S
H5410 C5424 0.931 . S
H5411 C5426 0.930 . S
C5412 H5400 0.930 . S
C5412 C5413 1.399 . S
C5412 C5417 1.399 . S
C5413 C5412 1.399 . S
C5413 C5414 1.376 . S
C5414 H5401 0.930 . S
C5414 C5413 1.376 . S
C5414 C5415 1.388 . S
C5415 H5402 0.930 . S
C5415 C5414 1.388 . S
C5415 C5416 1.390 . S
C5416 C5415 1.390 . S
C5416 C5417 1.394 . S
C5416 C5422 1.465 . S
C5417 C5412 1.399 . S
C5417 C5416 1.394 . S
C5417 C5418 1.516 . S
C5418 C5417 1.516 . S
C5418 C5419 1.502 . S
C5418 C5420 1.561 . S
C5418 C5421 1.526 . S
C5419 H5403 0.959 . S
C5419 H5404 0.959 . S
C5419 H5405 0.961 . S
C5419 C5418 1.502 . S
C5420 H5406 0.960 . S
C5420 H5407 0.961 . S
C5420 H5408 0.959 . S
C5420 C5418 1.561 . S
C5421 C5418 1.526 . S
C5421 C5422 1.396 . S
C5421 C5426 1.390 . S
C5422 C5416 1.465 . S
C5422 C5421 1.396 . S
C5422 C5423 1.399 . S
C5423 H5409 0.929 . S
C5423 C5422 1.399 . S
C5423 C5424 1.385 . S
C5424 H5410 0.931 . S
C5424 C5423 1.385 . S
C5424 C5425 1.389 . S
C5425 C5424 1.389 . S
C5425 C5426 1.387 . S
C5426 H5411 0.930 . S
C5426 C5421 1.390 . S
C5426 C5425 1.387 . S
H5427 C5439 0.930 . S
H5428 C5441 0.930 . S
H5429 C5442 0.930 . S
H5430 C5446 0.959 . S
H5431 C5446 0.959 . S
H5432 C5446 0.961 . S
H5433 C5447 0.960 . S
H5434 C5447 0.961 . S
H5435 C5447 0.959 . S
H5436 C5450 0.929 . S
H5437 C5451 0.931 . S
H5438 C5453 0.930 . S
C5439 H5427 0.930 . S
C5439 C5440 1.399 . S
C5439 C5444 1.399 . S
C5440 C5439 1.399 . S
C5440 C5441 1.376 . S
C5441 H5428 0.930 . S
C5441 C5440 1.376 . S
C5441 C5442 1.388 . S
C5442 H5429 0.930 . S
C5442 C5441 1.388 . S
C5442 C5443 1.390 . S
C5443 C5442 1.390 . S
C5443 C5444 1.394 . S
C5443 C5449 1.465 . S
C5444 C5439 1.399 . S
C5444 C5443 1.394 . S
C5444 C5445 1.516 . S
C5445 C5444 1.516 . S
C5445 C5446 1.502 . S
C5445 C5447 1.561 . S
C5445 C5448 1.526 . S
C5446 H5430 0.959 . S
C5446 H5431 0.959 . S
C5446 H5432 0.961 . S
C5446 C5445 1.502 . S
C5447 H5433 0.960 . S
C5447 H5434 0.961 . S
C5447 H5435 0.959 . S
C5447 C5445 1.561 . S
C5448 C5445 1.526 . S
C5448 C5449 1.396 . S
C5448 C5453 1.390 . S
C5449 C5443 1.465 . S
C5449 C5448 1.396 . S
C5449 C5450 1.399 . S
C5450 H5436 0.929 . S
C5450 C5449 1.399 . S
C5450 C5451 1.385 . S
C5451 H5437 0.931 . S
C5451 C5450 1.385 . S
C5451 C5452 1.389 . S
C5452 C5451 1.389 . S
C5452 C5453 1.387 . S
C5453 H5438 0.930 . S
C5453 C5448 1.390 . S
C5453 C5452 1.387 . S
H5454 C5466 0.930 . S
H5455 C5468 0.912 1_556 S
H5456 C5469 0.930 1_556 S
H5457 C5473 0.959 . S
H5458 C5473 0.959 . S
H5459 C5473 0.961 . S
H5460 C5474 0.960 . S
H5461 C5474 0.961 . S
H5462 C5474 0.959 . S
H5463 C5477 0.956 . S
H5464 C5478 0.931 1_556 S
H5465 C5480 0.930 . S
C5466 H5454 0.930 . S
C5466 C5467 1.399 . S
C5466 C5471 1.399 . S
C5467 C5466 1.399 . S
C5467 C5468 1.376 . S
C5468 H5455 0.912 1_554 S
C5468 C5467 1.376 . S
C5468 C5469 1.388 . S
C5469 H5456 0.930 1_554 S
C5469 C5468 1.388 . S
C5469 C5470 1.390 . S
C5470 C5469 1.390 . S
C5470 C5471 1.394 . S
C5470 C5476 1.465 . S
C5471 C5466 1.399 . S
C5471 C5470 1.394 . S
C5471 C5472 1.516 . S
C5472 C5471 1.516 . S
C5472 C5473 1.502 . S
C5472 C5474 1.561 . S
C5472 C5475 1.526 . S
C5473 H5457 0.959 . S
C5473 H5458 0.959 . S
C5473 H5459 0.961 . S
C5473 C5472 1.502 . S
C5474 H5460 0.960 . S
C5474 H5461 0.961 . S
C5474 H5462 0.959 . S
C5474 C5472 1.561 . S
C5475 C5472 1.526 . S
C5475 C5476 1.396 . S
C5475 C5480 1.390 . S
C5476 C5470 1.465 . S
C5476 C5475 1.396 . S
C5476 C5477 1.380 1_554 S
C5477 H5463 0.956 . S
C5477 C5476 1.380 1_556 S
C5477 C5478 1.376 1_556 S
C5478 H5464 0.931 1_554 S
C5478 C5477 1.376 1_554 S
C5478 C5479 1.389 . S
C5479 C5478 1.389 . S
C5479 C5480 1.387 . S
C5480 H5465 0.930 . S
C5480 C5475 1.390 . S
C5480 C5479 1.387 . S
H5481 C5493 0.930 . S
H5482 C5495 0.930 . S
H5483 C5496 0.930 . S
H5484 C5500 0.959 . S
H5485 C5500 0.959 . S
H5486 C5500 0.961 . S
H5487 C5501 0.960 . S
H5488 C5501 0.961 . S
H5489 C5501 0.959 . S
H5490 C5504 0.929 . S
H5491 C5505 0.931 . S
H5492 C5507 0.930 . S
C5493 H5481 0.930 . S
C5493 C5494 1.399 . S
C5493 C5498 1.399 . S
C5494 C5493 1.399 . S
C5494 C5495 1.376 . S
C5495 H5482 0.930 . S
C5495 C5494 1.376 . S
C5495 C5496 1.388 . S
C5496 H5483 0.930 . S
C5496 C5495 1.388 . S
C5496 C5497 1.390 . S
C5497 C5496 1.390 . S
C5497 C5498 1.394 . S
C5497 C5503 1.465 . S
C5498 C5493 1.399 . S
C5498 C5497 1.394 . S
C5498 C5499 1.516 . S
C5499 C5498 1.516 . S
C5499 C5500 1.502 . S
C5499 C5501 1.561 . S
C5499 C5502 1.526 . S
C5500 H5484 0.959 . S
C5500 H5485 0.959 . S
C5500 H5486 0.961 . S
C5500 C5499 1.502 . S
C5501 H5487 0.960 . S
C5501 H5488 0.961 . S
C5501 H5489 0.959 . S
C5501 C5499 1.561 . S
C5502 C5499 1.526 . S
C5502 C5503 1.396 . S
C5502 C5507 1.390 . S
C5503 C5497 1.465 . S
C5503 C5502 1.396 . S
C5503 C5504 1.399 . S
C5504 H5490 0.929 . S
C5504 C5503 1.399 . S
C5504 C5505 1.385 . S
C5505 H5491 0.931 . S
C5505 C5504 1.385 . S
C5505 C5506 1.389 . S
C5506 C5505 1.389 . S
C5506 C5507 1.387 . S
C5507 H5492 0.930 . S
C5507 C5502 1.390 . S
C5507 C5506 1.387 . S
H5508 C5520 0.930 . S
H5509 C5522 0.930 . S
H5510 C5523 0.930 . S
H5511 C5527 0.959 1_556 S
H5512 C5527 0.959 . S
H5513 C5527 0.961 . S
H5514 C5528 0.960 . S
H5515 C5528 0.961 1_554 S
H5516 C5528 0.959 . S
H5517 C5531 0.929 . S
H5518 C5532 0.931 . S
H5519 C5534 0.930 1_554 S
C5520 H5508 0.930 . S
C5520 C5521 1.399 . S
C5520 C5525 1.399 . S
C5521 C5520 1.399 . S
C5521 C5522 1.376 . S
C5522 H5509 0.930 . S
C5522 C5521 1.376 . S
C5522 C5523 1.388 . S
C5523 H5510 0.930 . S
C5523 C5522 1.388 . S
C5523 C5524 1.390 . S
C5524 C5523 1.390 . S
C5524 C5525 1.394 . S
C5524 C5530 1.465 . S
C5525 C5520 1.399 . S
C5525 C5524 1.394 . S
C5525 C5526 1.516 . S
C5526 C5525 1.516 . S
C5526 C5527 1.502 1_556 S
C5526 C5528 1.561 . S
C5526 C5529 1.526 . S
C5527 H5511 0.959 1_554 S
C5527 H5512 0.959 . S
C5527 H5513 0.961 . S
C5527 C5526 1.502 1_554 S
C5528 H5514 0.960 . S
C5528 H5515 0.961 1_556 S
C5528 H5516 0.959 . S
C5528 C5526 1.561 . S
C5529 C5526 1.526 . S
C5529 C5530 1.396 . S
C5529 C5534 1.390 . S
C5530 C5524 1.465 . S
C5530 C5529 1.396 . S
C5530 C5531 1.399 . S
C5531 H5517 0.929 . S
C5531 C5530 1.399 . S
C5531 C5532 1.385 . S
C5532 H5518 0.931 . S
C5532 C5531 1.385 . S
C5532 C5533 1.389 . S
C5533 C5532 1.389 . S
C5533 C5534 1.387 . S
C5534 H5519 0.930 1_556 S
C5534 C5529 1.390 . S
C5534 C5533 1.387 . S
H5535 C5547 0.930 . S
H5536 C5549 0.930 . S
H5537 C5550 0.930 . S
H5538 C5554 0.959 . S
H5539 C5554 0.959 . S
H5540 C5554 0.961 . S
H5541 C5555 0.960 . S
H5542 C5555 0.961 . S
H5543 C5555 0.959 . S
H5544 C5558 0.929 . S
H5545 C5559 0.931 . S
H5546 C5561 0.930 . S
C5547 H5535 0.930 . S
C5547 C5548 1.399 . S
C5547 C5552 1.399 . S
C5548 C5547 1.399 . S
C5548 C5549 1.376 . S
C5549 H5536 0.930 . S
C5549 C5548 1.376 . S
C5549 C5550 1.388 . S
C5550 H5537 0.930 . S
C5550 C5549 1.388 . S
C5550 C5551 1.390 . S
C5551 C5550 1.390 . S
C5551 C5552 1.394 . S
C5551 C5557 1.465 . S
C5552 C5547 1.399 . S
C5552 C5551 1.394 . S
C5552 C5553 1.516 . S
C5553 C5552 1.516 . S
C5553 C5554 1.502 . S
C5553 C5555 1.561 . S
C5553 C5556 1.526 . S
C5554 H5538 0.959 . S
C5554 H5539 0.959 . S
C5554 H5540 0.961 . S
C5554 C5553 1.502 . S
C5555 H5541 0.960 . S
C5555 H5542 0.961 . S
C5555 H5543 0.959 . S
C5555 C5553 1.561 . S
C5556 C5553 1.526 . S
C5556 C5557 1.396 . S
C5556 C5561 1.390 . S
C5557 C5551 1.465 . S
C5557 C5556 1.396 . S
C5557 C5558 1.399 . S
C5558 H5544 0.929 . S
C5558 C5557 1.399 . S
C5558 C5559 1.385 . S
C5559 H5545 0.931 . S
C5559 C5558 1.385 . S
C5559 C5560 1.389 . S
C5560 C5559 1.389 . S
C5560 C5561 1.387 . S
C5561 H5546 0.930 . S
C5561 C5556 1.390 . S
C5561 C5560 1.387 . S
H5562 C5574 0.930 . S
H5563 C5576 0.930 . S
H5564 C5577 0.930 . S
H5565 C5581 0.959 . S
H5566 C5581 0.959 . S
H5567 C5581 0.961 . S
H5568 C5582 0.960 . S
H5569 C5582 0.961 . S
H5570 C5582 0.959 . S
H5571 C5585 0.929 . S
H5572 C5586 0.931 . S
H5573 C5588 0.930 . S
C5574 H5562 0.930 . S
C5574 C5575 1.399 . S
C5574 C5579 1.399 . S
C5575 C5574 1.399 . S
C5575 C5576 1.376 . S
C5576 H5563 0.930 . S
C5576 C5575 1.376 . S
C5576 C5577 1.388 . S
C5577 H5564 0.930 . S
C5577 C5576 1.388 . S
C5577 C5578 1.390 . S
C5578 C5577 1.390 . S
C5578 C5579 1.394 . S
C5578 C5584 1.465 . S
C5579 C5574 1.399 . S
C5579 C5578 1.394 . S
C5579 C5580 1.516 . S
C5580 C5579 1.516 . S
C5580 C5581 1.502 . S
C5580 C5582 1.561 . S
C5580 C5583 1.526 . S
C5581 H5565 0.959 . S
C5581 H5566 0.959 . S
C5581 H5567 0.961 . S
C5581 C5580 1.502 . S
C5582 H5568 0.960 . S
C5582 H5569 0.961 . S
C5582 H5570 0.959 . S
C5582 C5580 1.561 . S
C5583 C5580 1.526 . S
C5583 C5584 1.396 . S
C5583 C5588 1.390 . S
C5584 C5578 1.465 . S
C5584 C5583 1.396 . S
C5584 C5585 1.399 . S
C5585 H5571 0.929 . S
C5585 C5584 1.399 . S
C5585 C5586 1.385 . S
C5586 H5572 0.931 . S
C5586 C5585 1.385 . S
C5586 C5587 1.389 . S
C5587 C5586 1.389 . S
C5587 C5588 1.387 . S
C5588 H5573 0.930 . S
C5588 C5583 1.390 . S
C5588 C5587 1.387 . S
H5589 C5601 0.930 . S
H5590 C5603 0.930 . S
H5591 C5604 0.930 . S
H5592 C5608 0.959 . S
H5593 C5608 0.959 . S
H5594 C5608 0.961 . S
H5595 C5609 0.960 . S
H5596 C5609 0.961 . S
H5597 C5609 0.959 . S
H5598 C5612 0.929 . S
H5599 C5613 0.931 . S
H5600 C5615 0.930 . S
C5601 H5589 0.930 . S
C5601 C5602 1.399 . S
C5601 C5606 1.399 . S
C5602 C5601 1.399 . S
C5602 C5603 1.376 . S
C5603 H5590 0.930 . S
C5603 C5602 1.376 . S
C5603 C5604 1.388 . S
C5604 H5591 0.930 . S
C5604 C5603 1.388 . S
C5604 C5605 1.390 . S
C5605 C5604 1.390 . S
C5605 C5606 1.394 . S
C5605 C5611 1.465 . S
C5606 C5601 1.399 . S
C5606 C5605 1.394 . S
C5606 C5607 1.516 . S
C5607 C5606 1.516 . S
C5607 C5608 1.502 . S
C5607 C5609 1.561 . S
C5607 C5610 1.526 . S
C5608 H5592 0.959 . S
C5608 H5593 0.959 . S
C5608 H5594 0.961 . S
C5608 C5607 1.502 . S
C5609 H5595 0.960 . S
C5609 H5596 0.961 . S
C5609 H5597 0.959 . S
C5609 C5607 1.561 . S
C5610 C5607 1.526 . S
C5610 C5611 1.396 . S
C5610 C5615 1.390 . S
C5611 C5605 1.465 . S
C5611 C5610 1.396 . S
C5611 C5612 1.399 . S
C5612 H5598 0.929 . S
C5612 C5611 1.399 . S
C5612 C5613 1.385 . S
C5613 H5599 0.931 . S
C5613 C5612 1.385 . S
C5613 C5614 1.389 . S
C5614 C5613 1.389 . S
C5614 C5615 1.387 . S
C5615 H5600 0.930 . S
C5615 C5610 1.390 . S
C5615 C5614 1.387 . S
H5616 C5628 0.930 . S
H5617 C5630 0.930 . S
H5618 C5631 0.930 . S
H5619 C5635 0.959 . S
H5620 C5635 0.959 . S
H5621 C5635 0.961 . S
H5622 C5636 0.960 . S
H5623 C5636 0.961 . S
H5624 C5636 0.959 . S
H5625 C5639 0.929 . S
H5626 C5640 0.931 . S
H5627 C5642 0.930 . S
C5628 H5616 0.930 . S
C5628 C5629 1.399 . S
C5628 C5633 1.399 . S
C5629 C5628 1.399 . S
C5629 C5630 1.376 . S
C5630 H5617 0.930 . S
C5630 C5629 1.376 . S
C5630 C5631 1.388 . S
C5631 H5618 0.930 . S
C5631 C5630 1.388 . S
C5631 C5632 1.390 . S
C5632 C5631 1.390 . S
C5632 C5633 1.394 . S
C5632 C5638 1.465 . S
C5633 C5628 1.399 . S
C5633 C5632 1.394 . S
C5633 C5634 1.516 . S
C5634 C5633 1.516 . S
C5634 C5635 1.502 . S
C5634 C5636 1.561 . S
C5634 C5637 1.526 . S
C5635 H5619 0.959 . S
C5635 H5620 0.959 . S
C5635 H5621 0.961 . S
C5635 C5634 1.502 . S
C5636 H5622 0.960 . S
C5636 H5623 0.961 . S
C5636 H5624 0.959 . S
C5636 C5634 1.561 . S
C5637 C5634 1.526 . S
C5637 C5638 1.396 . S
C5637 C5642 1.390 . S
C5638 C5632 1.465 . S
C5638 C5637 1.396 . S
C5638 C5639 1.399 . S
C5639 H5625 0.929 . S
C5639 C5638 1.399 . S
C5639 C5640 1.385 . S
C5640 H5626 0.931 . S
C5640 C5639 1.385 . S
C5640 C5641 1.389 . S
C5641 C5640 1.389 . S
C5641 C5642 1.387 . S
C5642 H5627 0.930 . S
C5642 C5637 1.390 . S
C5642 C5641 1.387 . S
H5643 C5655 0.930 . S
H5644 C5657 0.930 . S
H5645 C5658 0.930 . S
H5646 C5662 0.959 . S
H5647 C5662 0.959 . S
H5648 C5662 0.961 . S
H5649 C5663 0.960 . S
H5650 C5663 0.961 . S
H5651 C5663 0.959 . S
H5652 C5666 0.929 . S
H5653 C5667 0.931 . S
H5654 C5669 0.930 . S
C5655 H5643 0.930 . S
C5655 C5656 1.399 . S
C5655 C5660 1.399 . S
C5656 C5655 1.399 . S
C5656 C5657 1.376 . S
C5657 H5644 0.930 . S
C5657 C5656 1.376 . S
C5657 C5658 1.388 . S
C5658 H5645 0.930 . S
C5658 C5657 1.388 . S
C5658 C5659 1.390 . S
C5659 C5658 1.390 . S
C5659 C5660 1.394 . S
C5659 C5665 1.465 . S
C5660 C5655 1.399 . S
C5660 C5659 1.394 . S
C5660 C5661 1.516 . S
C5661 C5660 1.516 . S
C5661 C5662 1.502 . S
C5661 C5663 1.561 . S
C5661 C5664 1.526 . S
C5662 H5646 0.959 . S
C5662 H5647 0.959 . S
C5662 H5648 0.961 . S
C5662 C5661 1.502 . S
C5663 H5649 0.960 . S
C5663 H5650 0.961 . S
C5663 H5651 0.959 . S
C5663 C5661 1.561 . S
C5664 C5661 1.526 . S
C5664 C5665 1.396 . S
C5664 C5669 1.390 . S
C5665 C5659 1.465 . S
C5665 C5664 1.396 . S
C5665 C5666 1.399 . S
C5666 H5652 0.929 . S
C5666 C5665 1.399 . S
C5666 C5667 1.385 . S
C5667 H5653 0.931 . S
C5667 C5666 1.385 . S
C5667 C5668 1.389 . S
C5668 C5667 1.389 . S
C5668 C5669 1.387 . S
C5669 H5654 0.930 . S
C5669 C5664 1.390 . S
C5669 C5668 1.387 . S
H5670 C5682 0.930 . S
H5671 C5684 0.930 . S
H5672 C5685 0.930 1_455 S
H5673 C5689 0.959 . S
H5674 C5689 0.959 . S
H5675 C5689 0.961 . S
H5676 C5690 0.987 . S
H5677 C5690 0.961 . S
H5678 C5690 0.959 . S
H5679 C5693 0.929 . S
H5680 C5694 0.931 . S
H5681 C5696 0.930 . S
C5682 H5670 0.930 . S
C5682 C5683 1.399 . S
C5682 C5687 1.399 . S
C5683 C5682 1.399 . S
C5683 C5684 1.376 . S
C5684 H5671 0.930 . S
C5684 C5683 1.376 . S
C5684 C5685 1.388 . S
C5685 H5672 0.930 1_655 S
C5685 C5684 1.388 . S
C5685 C5686 1.391 . S
C5686 C5685 1.391 . S
C5686 C5687 1.394 . S
C5686 C5692 1.464 1_655 S
C5687 C5682 1.399 . S
C5687 C5686 1.394 . S
C5687 C5688 1.516 . S
C5688 C5687 1.516 . S
C5688 C5689 1.502 . S
C5688 C5690 1.561 1_655 S
C5688 C5691 1.526 1_655 S
C5689 H5673 0.959 . S
C5689 H5674 0.959 . S
C5689 H5675 0.961 . S
C5689 C5688 1.502 . S
C5690 H5676 0.987 . S
C5690 H5677 0.961 . S
C5690 H5678 0.959 . S
C5690 C5688 1.561 1_455 S
C5691 C5688 1.526 1_455 S
C5691 C5692 1.396 . S
C5691 C5696 1.390 . S
C5692 C5686 1.464 1_455 S
C5692 C5691 1.396 . S
C5692 C5693 1.399 . S
C5693 H5679 0.929 . S
C5693 C5692 1.399 . S
C5693 C5694 1.385 . S
C5694 H5680 0.931 . S
C5694 C5693 1.385 . S
C5694 C5695 1.389 . S
C5695 C5694 1.389 . S
C5695 C5696 1.387 . S
C5696 H5681 0.930 . S
C5696 C5691 1.390 . S
C5696 C5695 1.387 . S
H5697 C5709 0.930 . S
H5698 C5711 0.930 . S
H5699 C5712 0.930 . S
H5700 C5716 0.959 . S
H5701 C5716 0.959 . S
H5702 C5716 0.961 . S
H5703 C5717 0.960 . S
H5704 C5717 0.961 . S
H5705 C5717 0.959 . S
H5706 C5720 0.929 . S
H5707 C5721 0.931 . S
H5708 C5723 0.930 . S
C5709 H5697 0.930 . S
C5709 C5710 1.399 . S
C5709 C5714 1.399 . S
C5710 C5709 1.399 . S
C5710 C5711 1.376 . S
C5711 H5698 0.930 . S
C5711 C5710 1.376 . S
C5711 C5712 1.388 . S
C5712 H5699 0.930 . S
C5712 C5711 1.388 . S
C5712 C5713 1.390 . S
C5713 C5712 1.390 . S
C5713 C5714 1.394 . S
C5713 C5719 1.465 . S
C5714 C5709 1.399 . S
C5714 C5713 1.394 . S
C5714 C5715 1.516 . S
C5715 C5714 1.516 . S
C5715 C5716 1.502 . S
C5715 C5717 1.561 . S
C5715 C5718 1.526 . S
C5716 H5700 0.959 . S
C5716 H5701 0.959 . S
C5716 H5702 0.961 . S
C5716 C5715 1.502 . S
C5717 H5703 0.960 . S
C5717 H5704 0.961 . S
C5717 H5705 0.959 . S
C5717 C5715 1.561 . S
C5718 C5715 1.526 . S
C5718 C5719 1.396 . S
C5718 C5723 1.390 . S
C5719 C5713 1.465 . S
C5719 C5718 1.396 . S
C5719 C5720 1.399 . S
C5720 H5706 0.929 . S
C5720 C5719 1.399 . S
C5720 C5721 1.385 . S
C5721 H5707 0.931 . S
C5721 C5720 1.385 . S
C5721 C5722 1.389 . S
C5722 C5721 1.389 . S
C5722 C5723 1.387 . S
C5723 H5708 0.930 . S
C5723 C5718 1.390 . S
C5723 C5722 1.387 . S
H5724 C5736 0.930 . S
H5725 C5738 0.930 . S
H5726 C5739 0.930 . S
H5727 C5743 0.959 . S
H5728 C5743 0.959 . S
H5729 C5743 0.961 . S
H5730 C5744 0.960 . S
H5731 C5744 0.961 . S
H5732 C5744 0.959 . S
H5733 C5747 0.929 . S
H5734 C5748 0.931 . S
H5735 C5750 0.930 . S
C5736 H5724 0.930 . S
C5736 C5737 1.399 . S
C5736 C5741 1.399 . S
C5737 C5736 1.399 . S
C5737 C5738 1.376 . S
C5738 H5725 0.930 . S
C5738 C5737 1.376 . S
C5738 C5739 1.388 . S
C5739 H5726 0.930 . S
C5739 C5738 1.388 . S
C5739 C5740 1.390 . S
C5740 C5739 1.390 . S
C5740 C5741 1.394 . S
C5740 C5746 1.465 . S
C5741 C5736 1.399 . S
C5741 C5740 1.394 . S
C5741 C5742 1.516 . S
C5742 C5741 1.516 . S
C5742 C5743 1.502 . S
C5742 C5744 1.561 . S
C5742 C5745 1.526 . S
C5743 H5727 0.959 . S
C5743 H5728 0.959 . S
C5743 H5729 0.961 . S
C5743 C5742 1.502 . S
C5744 H5730 0.960 . S
C5744 H5731 0.961 . S
C5744 H5732 0.959 . S
C5744 C5742 1.561 . S
C5745 C5742 1.526 . S
C5745 C5746 1.396 . S
C5745 C5750 1.390 . S
C5746 C5740 1.465 . S
C5746 C5745 1.396 . S
C5746 C5747 1.399 . S
C5747 H5733 0.929 . S
C5747 C5746 1.399 . S
C5747 C5748 1.385 . S
C5748 H5734 0.931 . S
C5748 C5747 1.385 . S
C5748 C5749 1.389 . S
C5749 C5748 1.389 . S
C5749 C5750 1.387 . S
C5750 H5735 0.930 . S
C5750 C5745 1.390 . S
C5750 C5749 1.387 . S
H5751 C5763 0.930 . S
H5752 C5765 0.930 . S
H5753 C5766 0.930 . S
H5754 C5770 0.959 . S
H5755 C5770 0.959 . S
H5756 C5770 0.961 . S
H5757 C5771 0.960 . S
H5758 C5771 0.961 . S
H5759 C5771 0.959 . S
H5760 C5774 0.929 . S
H5761 C5775 0.931 . S
H5762 C5777 0.930 . S
C5763 H5751 0.930 . S
C5763 C5764 1.399 . S
C5763 C5768 1.399 . S
C5764 C5763 1.399 . S
C5764 C5765 1.376 . S
C5765 H5752 0.930 . S
C5765 C5764 1.376 . S
C5765 C5766 1.388 . S
C5766 H5753 0.930 . S
C5766 C5765 1.388 . S
C5766 C5767 1.390 . S
C5767 C5766 1.390 . S
C5767 C5768 1.394 . S
C5767 C5773 1.465 . S
C5768 C5763 1.399 . S
C5768 C5767 1.394 . S
C5768 C5769 1.516 . S
C5769 C5768 1.516 . S
C5769 C5770 1.502 . S
C5769 C5771 1.561 . S
C5769 C5772 1.526 . S
C5770 H5754 0.959 . S
C5770 H5755 0.959 . S
C5770 H5756 0.961 . S
C5770 C5769 1.502 . S
C5771 H5757 0.960 . S
C5771 H5758 0.961 . S
C5771 H5759 0.959 . S
C5771 C5769 1.561 . S
C5772 C5769 1.526 . S
C5772 C5773 1.396 . S
C5772 C5777 1.390 . S
C5773 C5767 1.465 . S
C5773 C5772 1.396 . S
C5773 C5774 1.399 . S
C5774 H5760 0.929 . S
C5774 C5773 1.399 . S
C5774 C5775 1.385 . S
C5775 H5761 0.931 . S
C5775 C5774 1.385 . S
C5775 C5776 1.389 . S
C5776 C5775 1.389 . S
C5776 C5777 1.387 . S
C5777 H5762 0.930 . S
C5777 C5772 1.390 . S
C5777 C5776 1.387 . S
H5778 C5790 0.930 . S
H5779 C5792 0.930 . S
H5780 C5793 0.930 . S
H5781 C5797 0.959 . S
H5782 C5797 0.959 . S
H5783 C5797 0.961 . S
H5784 C5798 0.960 . S
H5785 C5798 0.961 . S
H5786 C5798 0.959 1_455 S
H5787 C5801 0.929 . S
H5788 C5802 0.931 . S
H5789 C5804 0.930 . S
C5790 H5778 0.930 . S
C5790 C5791 1.399 . S
C5790 C5795 1.399 . S
C5791 C5790 1.399 . S
C5791 C5792 1.376 . S
C5792 H5779 0.930 . S
C5792 C5791 1.376 . S
C5792 C5793 1.388 . S
C5793 H5780 0.930 . S
C5793 C5792 1.388 . S
C5793 C5794 1.390 . S
C5794 C5793 1.390 . S
C5794 C5795 1.394 . S
C5794 C5800 1.465 . S
C5795 C5790 1.399 . S
C5795 C5794 1.394 . S
C5795 C5796 1.516 . S
C5796 C5795 1.516 . S
C5796 C5797 1.502 . S
C5796 C5798 1.561 . S
C5796 C5799 1.526 . S
C5797 H5781 0.959 . S
C5797 H5782 0.959 . S
C5797 H5783 0.961 . S
C5797 C5796 1.502 . S
C5798 H5784 0.960 . S
C5798 H5785 0.961 . S
C5798 H5786 0.959 1_655 S
C5798 C5796 1.561 . S
C5799 C5796 1.526 . S
C5799 C5800 1.396 . S
C5799 C5804 1.390 . S
C5800 C5794 1.465 . S
C5800 C5799 1.396 . S
C5800 C5801 1.399 1_655 S
C5801 H5787 0.929 . S
C5801 C5800 1.399 1_455 S
C5801 C5802 1.385 . S
C5802 H5788 0.931 . S
C5802 C5801 1.385 . S
C5802 C5803 1.389 . S
C5803 C5802 1.389 . S
C5803 C5804 1.387 1_455 S
C5804 H5789 0.930 . S
C5804 C5799 1.390 . S
C5804 C5803 1.387 1_655 S
H5805 C5817 0.930 . S
H5806 C5819 0.930 . S
H5807 C5820 0.930 . S
H5808 C5824 0.959 . S
H5809 C5824 0.959 . S
H5810 C5824 0.961 . S
H5811 C5825 0.960 . S
H5812 C5825 0.961 . S
H5813 C5825 0.959 . S
H5814 C5828 0.929 . S
H5815 C5829 0.931 . S
H5816 C5831 0.930 . S
C5817 H5805 0.930 . S
C5817 C5818 1.399 . S
C5817 C5822 1.399 . S
C5818 C5817 1.399 . S
C5818 C5819 1.376 . S
C5819 H5806 0.930 . S
C5819 C5818 1.376 . S
C5819 C5820 1.388 . S
C5820 H5807 0.930 . S
C5820 C5819 1.388 . S
C5820 C5821 1.390 . S
C5821 C5820 1.390 . S
C5821 C5822 1.394 . S
C5821 C5827 1.465 . S
C5822 C5817 1.399 . S
C5822 C5821 1.394 . S
C5822 C5823 1.516 . S
C5823 C5822 1.516 . S
C5823 C5824 1.502 . S
C5823 C5825 1.561 . S
C5823 C5826 1.526 . S
C5824 H5808 0.959 . S
C5824 H5809 0.959 . S
C5824 H5810 0.961 . S
C5824 C5823 1.502 . S
C5825 H5811 0.960 . S
C5825 H5812 0.961 . S
C5825 H5813 0.959 . S
C5825 C5823 1.561 . S
C5826 C5823 1.526 . S
C5826 C5827 1.396 . S
C5826 C5831 1.390 . S
C5827 C5821 1.465 . S
C5827 C5826 1.396 . S
C5827 C5828 1.399 . S
C5828 H5814 0.929 . S
C5828 C5827 1.399 . S
C5828 C5829 1.385 . S
C5829 H5815 0.931 . S
C5829 C5828 1.385 . S
C5829 C5830 1.389 . S
C5830 C5829 1.389 . S
C5830 C5831 1.387 . S
C5831 H5816 0.930 . S
C5831 C5826 1.390 . S
C5831 C5830 1.387 . S
H5832 C5844 0.930 . S
H5833 C5846 0.930 . S
H5834 C5847 0.930 . S
H5835 C5851 0.959 . S
H5836 C5851 0.959 . S
H5837 C5851 0.961 . S
H5838 C5852 0.960 . S
H5839 C5852 0.961 . S
H5840 C5852 0.959 . S
H5841 C5855 0.929 . S
H5842 C5856 0.931 . S
H5843 C5858 0.930 . S
C5844 H5832 0.930 . S
C5844 C5845 1.399 . S
C5844 C5849 1.399 . S
C5845 C5844 1.399 . S
C5845 C5846 1.376 . S
C5846 H5833 0.930 . S
C5846 C5845 1.376 . S
C5846 C5847 1.388 . S
C5847 H5834 0.930 . S
C5847 C5846 1.388 . S
C5847 C5848 1.390 . S
C5848 C5847 1.390 . S
C5848 C5849 1.394 . S
C5848 C5854 1.465 . S
C5849 C5844 1.399 . S
C5849 C5848 1.394 . S
C5849 C5850 1.516 . S
C5850 C5849 1.516 . S
C5850 C5851 1.502 . S
C5850 C5852 1.561 . S
C5850 C5853 1.526 . S
C5851 H5835 0.959 . S
C5851 H5836 0.959 . S
C5851 H5837 0.961 . S
C5851 C5850 1.502 . S
C5852 H5838 0.960 . S
C5852 H5839 0.961 . S
C5852 H5840 0.959 . S
C5852 C5850 1.561 . S
C5853 C5850 1.526 . S
C5853 C5854 1.396 . S
C5853 C5858 1.390 . S
C5854 C5848 1.465 . S
C5854 C5853 1.396 . S
C5854 C5855 1.399 . S
C5855 H5841 0.929 . S
C5855 C5854 1.399 . S
C5855 C5856 1.385 . S
C5856 H5842 0.931 . S
C5856 C5855 1.385 . S
C5856 C5857 1.389 . S
C5857 C5856 1.389 . S
C5857 C5858 1.387 . S
C5858 H5843 0.930 . S
C5858 C5853 1.390 . S
C5858 C5857 1.387 . S
H5859 C5871 0.930 . S
H5860 C5873 0.930 . S
H5861 C5874 0.930 . S
H5862 C5878 0.959 . S
H5863 C5878 0.959 . S
H5864 C5878 0.964 . S
H5865 C5879 0.960 . S
H5866 C5879 0.961 . S
H5867 C5879 0.959 . S
H5868 C5882 0.929 . S
H5869 C5883 0.931 . S
H5870 C5885 0.930 . S
C5871 H5859 0.930 . S
C5871 C5872 1.399 . S
C5871 C5876 1.399 . S
C5872 C5871 1.399 . S
C5872 C5873 1.376 . S
C5873 H5860 0.930 . S
C5873 C5872 1.376 . S
C5873 C5874 1.388 . S
C5874 H5861 0.930 . S
C5874 C5873 1.388 . S
C5874 C5875 1.390 . S
C5875 C5874 1.390 . S
C5875 C5876 1.394 . S
C5875 C5881 1.465 . S
C5876 C5871 1.399 . S
C5876 C5875 1.394 . S
C5876 C5877 1.516 . S
C5877 C5876 1.516 . S
C5877 C5878 1.502 1_565 S
C5877 C5879 1.561 . S
C5877 C5880 1.526 . S
C5878 H5862 0.959 . S
C5878 H5863 0.959 . S
C5878 H5864 0.964 . S
C5878 C5877 1.502 1_545 S
C5879 H5865 0.960 . S
C5879 H5866 0.961 . S
C5879 H5867 0.959 . S
C5879 C5877 1.561 . S
C5880 C5877 1.526 . S
C5880 C5881 1.396 . S
C5880 C5885 1.390 1_565 S
C5881 C5875 1.465 . S
C5881 C5880 1.396 . S
C5881 C5882 1.399 . S
C5882 H5868 0.929 . S
C5882 C5881 1.399 . S
C5882 C5883 1.385 . S
C5883 H5869 0.931 . S
C5883 C5882 1.385 . S
C5883 C5884 1.389 1_565 S
C5884 C5883 1.389 1_545 S
C5884 C5885 1.387 . S
C5885 H5870 0.930 . S
C5885 C5880 1.390 1_545 S
C5885 C5884 1.387 . S
H5886 C5898 0.930 . S
H5887 C5900 0.930 . S
H5888 C5901 0.930 . S
H5889 C5905 0.959 . S
H5890 C5905 0.959 . S
H5891 C5905 0.961 . S
H5892 C5906 0.960 . S
H5893 C5906 0.961 . S
H5894 C5906 0.959 . S
H5895 C5909 0.929 . S
H5896 C5910 0.931 . S
H5897 C5912 0.930 . S
C5898 H5886 0.930 . S
C5898 C5899 1.399 . S
C5898 C5903 1.399 . S
C5899 C5898 1.399 . S
C5899 C5900 1.376 . S
C5900 H5887 0.930 . S
C5900 C5899 1.376 . S
C5900 C5901 1.388 . S
C5901 H5888 0.930 . S
C5901 C5900 1.388 . S
C5901 C5902 1.390 . S
C5902 C5901 1.390 . S
C5902 C5903 1.394 . S
C5902 C5908 1.465 . S
C5903 C5898 1.399 . S
C5903 C5902 1.394 . S
C5903 C5904 1.516 . S
C5904 C5903 1.516 . S
C5904 C5905 1.502 . S
C5904 C5906 1.561 . S
C5904 C5907 1.526 . S
C5905 H5889 0.959 . S
C5905 H5890 0.959 . S
C5905 H5891 0.961 . S
C5905 C5904 1.502 . S
C5906 H5892 0.960 . S
C5906 H5893 0.961 . S
C5906 H5894 0.959 . S
C5906 C5904 1.561 . S
C5907 C5904 1.526 . S
C5907 C5908 1.396 . S
C5907 C5912 1.390 . S
C5908 C5902 1.465 . S
C5908 C5907 1.396 . S
C5908 C5909 1.399 . S
C5909 H5895 0.929 . S
C5909 C5908 1.399 . S
C5909 C5910 1.385 . S
C5910 H5896 0.931 . S
C5910 C5909 1.385 . S
C5910 C5911 1.389 . S
C5911 C5910 1.389 . S
C5911 C5912 1.387 . S
C5912 H5897 0.930 . S
C5912 C5907 1.390 . S
C5912 C5911 1.387 . S
H5913 C5925 0.930 . S
H5914 C5927 0.930 . S
H5915 C5928 0.930 . S
H5916 C5932 0.959 . S
H5917 C5932 0.959 . S
H5918 C5932 0.961 . S
H5919 C5933 0.960 . S
H5920 C5933 0.961 . S
H5921 C5933 0.959 . S
H5922 C5936 0.929 . S
H5923 C5937 0.931 1_556 S
H5924 C5939 0.930 . S
C5925 H5913 0.930 . S
C5925 C5926 1.399 . S
C5925 C5930 1.399 . S
C5926 C5925 1.399 . S
C5926 C5927 1.376 1_554 S
C5927 H5914 0.930 . S
C5927 C5926 1.376 1_556 S
C5927 C5928 1.388 . S
C5928 H5915 0.930 . S
C5928 C5927 1.388 . S
C5928 C5929 1.390 1_556 S
C5929 C5928 1.390 1_554 S
C5929 C5930 1.394 . S
C5929 C5935 1.465 . S
C5930 C5925 1.399 . S
C5930 C5929 1.394 . S
C5930 C5931 1.516 . S
C5931 C5930 1.516 . S
C5931 C5932 1.502 . S
C5931 C5933 1.561 . S
C5931 C5934 1.526 . S
C5932 H5916 0.959 . S
C5932 H5917 0.959 . S
C5932 H5918 0.961 . S
C5932 C5931 1.502 . S
C5933 H5919 0.960 . S
C5933 H5920 0.961 . S
C5933 H5921 0.959 . S
C5933 C5931 1.561 . S
C5934 C5931 1.526 . S
C5934 C5935 1.396 . S
C5934 C5939 1.390 . S
C5935 C5929 1.465 . S
C5935 C5934 1.396 . S
C5935 C5936 1.399 1_554 S
C5936 H5922 0.929 . S
C5936 C5935 1.399 1_556 S
C5936 C5937 1.385 1_556 S
C5937 H5923 0.931 1_554 S
C5937 C5936 1.385 1_554 S
C5937 C5938 1.389 . S
C5938 C5937 1.389 . S
C5938 C5939 1.387 . S
C5939 H5924 0.930 . S
C5939 C5934 1.390 . S
C5939 C5938 1.387 . S
H5940 C5952 0.930 . S
H5941 C5954 0.930 . S
H5942 C5955 0.930 . S
H5943 C5959 0.959 . S
H5944 C5959 0.959 . S
H5945 C5959 0.961 . S
H5946 C5960 0.960 . S
H5947 C5960 0.961 . S
H5948 C5960 0.959 . S
H5949 C5963 0.929 . S
H5950 C5964 0.931 . S
H5951 C5966 0.930 . S
C5952 H5940 0.930 . S
C5952 C5953 1.399 . S
C5952 C5957 1.399 . S
C5953 C5952 1.399 . S
C5953 C5954 1.376 . S
C5954 H5941 0.930 . S
C5954 C5953 1.376 . S
C5954 C5955 1.388 . S
C5955 H5942 0.930 . S
C5955 C5954 1.388 . S
C5955 C5956 1.390 . S
C5956 C5955 1.390 . S
C5956 C5957 1.394 . S
C5956 C5962 1.465 . S
C5957 C5952 1.399 . S
C5957 C5956 1.394 . S
C5957 C5958 1.516 . S
C5958 C5957 1.516 . S
C5958 C5959 1.502 . S
C5958 C5960 1.561 . S
C5958 C5961 1.526 . S
C5959 H5943 0.959 . S
C5959 H5944 0.959 . S
C5959 H5945 0.961 . S
C5959 C5958 1.502 . S
C5960 H5946 0.960 . S
C5960 H5947 0.961 . S
C5960 H5948 0.959 . S
C5960 C5958 1.561 . S
C5961 C5958 1.526 . S
C5961 C5962 1.396 . S
C5961 C5966 1.390 . S
C5962 C5956 1.465 . S
C5962 C5961 1.396 . S
C5962 C5963 1.399 . S
C5963 H5949 0.929 . S
C5963 C5962 1.399 . S
C5963 C5964 1.385 . S
C5964 H5950 0.931 . S
C5964 C5963 1.385 . S
C5964 C5965 1.389 . S
C5965 C5964 1.389 . S
C5965 C5966 1.387 . S
C5966 H5951 0.930 . S
C5966 C5961 1.390 . S
C5966 C5965 1.387 . S
H5967 C5979 0.930 . S
H5968 C5981 0.930 . S
H5969 C5982 0.930 . S
H5970 C5986 0.959 . S
H5971 C5986 0.959 . S
H5972 C5986 0.961 . S
H5973 C5987 0.960 . S
H5974 C5987 0.961 1_556 S
H5975 C5987 0.959 . S
H5976 C5990 0.929 . S
H5977 C5991 0.931 . S
H5978 C5993 0.930 1_556 S
C5979 H5967 0.930 . S
C5979 C5980 1.399 . S
C5979 C5984 1.399 . S
C5980 C5979 1.399 . S
C5980 C5981 1.376 . S
C5981 H5968 0.930 . S
C5981 C5980 1.376 . S
C5981 C5982 1.388 . S
C5982 H5969 0.930 . S
C5982 C5981 1.388 . S
C5982 C5983 1.390 . S
C5983 C5982 1.390 . S
C5983 C5984 1.394 . S
C5983 C5989 1.465 . S
C5984 C5979 1.399 . S
C5984 C5983 1.394 . S
C5984 C5985 1.516 . S
C5985 C5984 1.516 . S
C5985 C5986 1.502 1_554 S
C5985 C5987 1.561 . S
C5985 C5988 1.526 . S
C5986 H5970 0.959 . S
C5986 H5971 0.959 . S
C5986 H5972 0.961 . S
C5986 C5985 1.502 1_556 S
C5987 H5973 0.960 . S
C5987 H5974 0.961 1_554 S
C5987 H5975 0.959 . S
C5987 C5985 1.561 . S
C5988 C5985 1.526 . S
C5988 C5989 1.396 . S
C5988 C5993 1.390 . S
C5989 C5983 1.465 . S
C5989 C5988 1.396 . S
C5989 C5990 1.399 . S
C5990 H5976 0.929 . S
C5990 C5989 1.399 . S
C5990 C5991 1.385 . S
C5991 H5977 0.931 . S
C5991 C5990 1.385 . S
C5991 C5992 1.389 . S
C5992 C5991 1.389 . S
C5992 C5993 1.387 . S
C5993 H5978 0.930 1_554 S
C5993 C5988 1.390 . S
C5993 C5992 1.387 . S
H5994 C6006 0.930 . S
H5995 C6008 0.930 . S
H5996 C6009 0.930 . S
H5997 C6013 0.959 . S
H5998 C6013 0.959 . S
H5999 C6013 0.961 . S
H6000 C6014 0.960 . S
H6001 C6014 0.961 . S
H6002 C6014 0.959 . S
H6003 C6017 0.929 . S
H6004 C6018 0.931 . S
H6005 C6020 0.930 . S
C6006 H5994 0.930 . S
C6006 C6007 1.399 . S
C6006 C6011 1.399 . S
C6007 C6006 1.399 . S
C6007 C6008 1.376 . S
C6008 H5995 0.930 . S
C6008 C6007 1.376 . S
C6008 C6009 1.388 . S
C6009 H5996 0.930 . S
C6009 C6008 1.388 . S
C6009 C6010 1.390 . S
C6010 C6009 1.390 . S
C6010 C6011 1.394 . S
C6010 C6016 1.465 . S
C6011 C6006 1.399 . S
C6011 C6010 1.394 . S
C6011 C6012 1.516 . S
C6012 C6011 1.516 . S
C6012 C6013 1.502 . S
C6012 C6014 1.561 . S
C6012 C6015 1.526 . S
C6013 H5997 0.959 . S
C6013 H5998 0.959 . S
C6013 H5999 0.961 . S
C6013 C6012 1.502 . S
C6014 H6000 0.960 . S
C6014 H6001 0.961 . S
C6014 H6002 0.959 . S
C6014 C6012 1.561 . S
C6015 C6012 1.526 . S
C6015 C6016 1.396 . S
C6015 C6020 1.390 . S
C6016 C6010 1.465 . S
C6016 C6015 1.396 . S
C6016 C6017 1.399 . S
C6017 H6003 0.929 . S
C6017 C6016 1.399 . S
C6017 C6018 1.385 . S
C6018 H6004 0.931 . S
C6018 C6017 1.385 . S
C6018 C6019 1.389 . S
C6019 C6018 1.389 . S
C6019 C6020 1.387 . S
C6020 H6005 0.930 . S
C6020 C6015 1.390 . S
C6020 C6019 1.387 . S
H6021 C6033 0.930 . S
H6022 C6035 0.930 . S
H6023 C6036 0.930 . S
H6024 C6040 0.959 . S
H6025 C6040 0.959 . S
H6026 C6040 0.961 . S
H6027 C6041 0.960 . S
H6028 C6041 0.961 . S
H6029 C6041 0.959 . S
H6030 C6044 0.929 . S
H6031 C6045 0.931 . S
H6032 C6047 0.930 . S
C6033 H6021 0.930 . S
C6033 C6034 1.399 . S
C6033 C6038 1.399 . S
C6034 C6033 1.399 . S
C6034 C6035 1.376 . S
C6035 H6022 0.930 . S
C6035 C6034 1.376 . S
C6035 C6036 1.388 . S
C6036 H6023 0.930 . S
C6036 C6035 1.388 . S
C6036 C6037 1.390 . S
C6037 C6036 1.390 . S
C6037 C6038 1.394 . S
C6037 C6043 1.465 . S
C6038 C6033 1.399 . S
C6038 C6037 1.394 . S
C6038 C6039 1.516 . S
C6039 C6038 1.516 . S
C6039 C6040 1.502 . S
C6039 C6041 1.561 . S
C6039 C6042 1.526 . S
C6040 H6024 0.959 . S
C6040 H6025 0.959 . S
C6040 H6026 0.961 . S
C6040 C6039 1.502 . S
C6041 H6027 0.960 . S
C6041 H6028 0.961 . S
C6041 H6029 0.959 . S
C6041 C6039 1.561 . S
C6042 C6039 1.526 . S
C6042 C6043 1.396 . S
C6042 C6047 1.390 . S
C6043 C6037 1.465 . S
C6043 C6042 1.396 . S
C6043 C6044 1.399 . S
C6044 H6030 0.929 . S
C6044 C6043 1.399 . S
C6044 C6045 1.385 . S
C6045 H6031 0.931 . S
C6045 C6044 1.385 . S
C6045 C6046 1.389 . S
C6046 C6045 1.389 . S
C6046 C6047 1.387 . S
C6047 H6032 0.930 . S
C6047 C6042 1.390 . S
C6047 C6046 1.387 . S
C3469 C665 1.648 . S
C3481 C2168 1.604 . S
C3496 C381 2.191 . S
C3508 C2259 2.173 . S
C3523 C460 1.630 . S
C3535 C2336 1.643 . S
C3562 C2434 1.475 . S
C3550 C585 1.645 . S
C3577 C108 1.582 . S
C3589 C2518 1.542 . S
C3616 C2590 1.030 . S
C3604 C196 0.985 . S
C3643 C2679 0.822 . S
C3631 C313 0.791 . S
C3658 C49 1.298 . S
C3670 C2756 1.165 . S
C3697 C2175 1.953 . S
C3685 C1457 2.023 . S
C3712 C1545 0.514 . S
C3724 C2266 0.725 . S
C3751 C2343 1.180 . S
C3739 C1721 1.184 . S
C3778 C2420 1.714 . S
C3766 C1113 1.732 . S
C3793 C1428 2.116 1_455 S
C3805 C2504 2.010 . S
C3832 C2606 1.094 . S
C3820 C1516 1.107 . S
C3859 C2686 0.734 . S
C3847 C1692 0.688 . S
C3886 C2763 1.420 . S
C3874 C1085 1.455 . S
C3913 C2182 1.317 . S
C3901 C988 1.494 . S
C3928 C1817 1.967 . S
C3940 C2847 1.882 . S
C3967 C2935 2.079 . S
C3955 C2081 2.259 . S
C3994 C3008 0.447 . S
C3982 C1993 0.305 . S
C4009 C761 0.692 . S
C4021 C2770 0.735 . S
C4036 C821 1.450 . S
C4048 C2350 1.425 . S
C4063 C2053 2.332 . S
C4075 C3099 2.287 . S
C4102 C3176 0.727 . S
C4090 C1868 0.644 . S
C4129 C2179 1.563 1_565 S
C4117 C372 1.699 . S
C4156 C3194 2.142 . S
C4144 C645 2.171 . S
C4171 C577 1.576 . S
C4183 C2347 1.601 . S
C4198 C497 1.652 . S
C4210 C3094 1.525 . S
C4237 C2506 1.496 . S
C4225 C57 1.577 . S
C4252 C293 0.993 . S
C4264 C2938 0.990 . S
C4291 C2690 0.825 1_565 S
C4279 C205 0.794 . S
C4318 C3271 1.165 . S
C4306 C145 1.247 . S
C4345 C2186 1.922 . S
C4333 C909 2.018 . S
C4372 C3178 0.611 . S
C4360 C1956 0.515 . S
C4387 C724 1.183 . S
C4399 C2354 1.185 . S
C4414 C1780 1.707 . S
C4426 C3103 1.633 . S
C4441 C937 2.129 . S
C4453 C2515 1.963 . S
C4480 C2931 1.022 . S
C4468 C1985 1.089 . S
C4495 C753 0.663 . S
C4507 C2674 0.781 . S
C4522 C1809 1.484 . S
C4534 C3278 1.322 . S
C4549 C1173 1.483 . S
C4561 C2170 1.369 . S
C4576 C1105 1.981 . S
C4588 C2858 1.931 . S
C4603 C1633 2.259 . S
C4615 C2588 2.052 . S
C4630 C1553 0.399 . S
C4642 C3019 0.588 . S
C4669 C3262 0.686 . S
C4657 C1729 0.763 . S
C4684 C1340 1.449 . S
C4696 C2338 1.401 . S
C4723 C2438 2.247 . S
C4711 C1604 2.326 . S
C4750 C2263 0.765 . S
C4738 C1252 0.704 . S
C4765 C489 1.676 . S
C4777 C3344 1.638 . S
C4804 C3183 2.176 . S
C4792 C557 2.193 . S
C4819 C636 1.576 1_554 S
C4831 C3428 1.584 . S
C4846 C409 1.646 1_655 S
C4858 C3106 1.481 . S
C4873 C284 1.572 . S
C4885 C2854 1.538 . S
C4912 C2926 1.007 . S
C4900 C20 1.020 . S
C4939 C3015 0.832 . S
C4927 C137 0.760 . S
C4966 C3260 1.161 . S
C4954 C225 1.259 . S
C4993 C3351 1.924 . S
C4981 C1641 2.048 . S
C5008 C1193 0.514 . S
C5020 C3190 0.473 . S
C5047 C3435 1.180 . S
C5035 C1289 1.184 . S
C5074 C3092 1.644 . S
C5062 C1377 1.713 . S
C5101 C2840 2.028 . S
C5089 C1613 2.110 . S
C5116 C1164 1.101 . S
C5128 C2942 1.065 . S
C5155 C3022 0.764 . S
C5143 C1261 0.685 . S
C5170 C1349 1.474 . S
C5182 C3267 1.348 . S
C5209 C3358 1.382 . S
C5197 C1965 1.473 . S
C5224 C849 1.964 . S
C5236 C2511 1.888 . S
C5263 C2599 2.082 . S
C5251 C929 2.265 . S
C5290 C2672 0.601 . S
C5278 C1017 0.372 . S
C5317 C3274 0.787 . S
C5305 C1897 0.813 . S
C5332 C1789 1.427 . S
C5344 C3442 1.371 . S
C5371 C2427 2.274 . S
C5359 C900 2.323 . S
C5398 C2252 0.761 . S
C5386 C733 0.713 . S
C5413 C548 1.684 . S
C5425 C3355 1.544 . S
C5452 C2270 2.175 . S
C5440 C469 2.184 . S
C5467 C401 1.635 . S
C5479 C3439 1.620 . S
C5494 C673 1.644 . S
C5506 C2422 1.459 . S
C5521 C233 1.555 . S
C5533 C2842 1.524 . S
C5560 C2602 0.839 . S
C5548 C117 1.063 . S
C5575 C29 0.821 . S
C5587 C3026 0.835 . S
C5602 C321 1.310 . S
C5614 C2767 1.124 . S
C5641 C3362 1.967 . S
C5629 C2044 2.044 . S
C5656 C997 0.502 . S
C5668 C2254 0.683 . S
C5695 C3446 1.185 . S
C5683 C1877 1.184 . S
C5710 C812 1.742 . S
C5722 C2431 1.684 . S
C5737 C2073 2.146 . S
C5749 C2851 1.958 . S
C5776 C2595 1.106 . S
C5764 C1025 1.100 . S
C5791 C1905 0.682 . S
C5803 C3010 0.578 . S
C5830 C2774 1.398 . S
C5818 C841 1.453 . S
C5857 C3346 1.324 . S
C5845 C1525 1.495 . S
C5884 C2522 1.886 1_655 S
C5872 C1369 1.955 . S
C5899 C1465 2.258 . S
C5911 C2924 2.061 . S
C5938 C2683 0.336 . S
C5926 C1201 0.329 . S
C5953 C1281 0.795 . S
C5965 C2758 0.798 . S
C5980 C1076 1.450 . S
C5992 C3430 1.422 . S
C6019 C3110 2.253 . S
C6007 C1437 2.325 . S
C6046 C3187 0.754 . S
C6034 C1701 0.694 . S
