# Generated by pormake.
# Topology myd, (4,6)-cn, num edge types: 1
# Building blocks:
#     Node 0, Type 0, BuildingBlock: KOZSID_clean_sbu_0, # of connection points: 4
#     Node 1, Type 0, BuildingBlock: KOZSID_clean_sbu_0, # of connection points: 4
#     Node 2, Type 0, BuildingBlock: KOZSID_clean_sbu_0, # of connection points: 4
#     Node 3, Type 0, BuildingBlock: KOZSID_clean_sbu_0, # of connection points: 4
#     Node 4, Type 0, BuildingBlock: KOZSID_clean_sbu_0, # of connection points: 4
#     Node 5, Type 0, BuildingBlock: KOZSID_clean_sbu_0, # of connection points: 4
#     Node 6, Type 0, BuildingBlock: KOZSID_clean_sbu_0, # of connection points: 4
#     Node 7, Type 0, BuildingBlock: KOZSID_clean_sbu_0, # of connection points: 4
#     Node 8, Type 0, BuildingBlock: KOZSID_clean_sbu_0, # of connection points: 4
#     Node 9, Type 0, BuildingBlock: KOZSID_clean_sbu_0, # of connection points: 4
#     Node 10, Type 0, BuildingBlock: KOZSID_clean_sbu_0, # of connection points: 4
#     Node 11, Type 0, BuildingBlock: KOZSID_clean_sbu_0, # of connection points: 4
#     Node 12, Type 1, BuildingBlock: LEVNOQ01_clean_sbu_1, # of connection points: 6
#     Node 13, Type 1, BuildingBlock: LEVNOQ01_clean_sbu_1, # of connection points: 6
#     Node 14, Type 1, BuildingBlock: LEVNOQ01_clean_sbu_1, # of connection points: 6
#     Node 15, Type 1, BuildingBlock: LEVNOQ01_clean_sbu_1, # of connection points: 6
#     Node 16, Type 1, BuildingBlock: LEVNOQ01_clean_sbu_1, # of connection points: 6
#     Node 17, Type 1, BuildingBlock: LEVNOQ01_clean_sbu_1, # of connection points: 6
#     Node 18, Type 1, BuildingBlock: LEVNOQ01_clean_sbu_1, # of connection points: 6
#     Node 19, Type 1, BuildingBlock: LEVNOQ01_clean_sbu_1, # of connection points: 6
#     Edge 20, Type (0, 1), BuildingBlock: CIFDUS_clean_linker_0, # of connection points: 2
#     Edge 21, Type (0, 1), BuildingBlock: CIFDUS_clean_linker_0, # of connection points: 2
#     Edge 22, Type (0, 1), BuildingBlock: CIFDUS_clean_linker_0, # of connection points: 2
#     Edge 23, Type (0, 1), BuildingBlock: CIFDUS_clean_linker_0, # of connection points: 2
#     Edge 24, Type (0, 1), BuildingBlock: CIFDUS_clean_linker_0, # of connection points: 2
#     Edge 25, Type (0, 1), BuildingBlock: CIFDUS_clean_linker_0, # of connection points: 2
#     Edge 26, Type (0, 1), BuildingBlock: CIFDUS_clean_linker_0, # of connection points: 2
#     Edge 27, Type (0, 1), BuildingBlock: CIFDUS_clean_linker_0, # of connection points: 2
#     Edge 28, Type (0, 1), BuildingBlock: CIFDUS_clean_linker_0, # of connection points: 2
#     Edge 29, Type (0, 1), BuildingBlock: CIFDUS_clean_linker_0, # of connection points: 2
#     Edge 30, Type (0, 1), BuildingBlock: CIFDUS_clean_linker_0, # of connection points: 2
#     Edge 31, Type (0, 1), BuildingBlock: CIFDUS_clean_linker_0, # of connection points: 2
#     Edge 32, Type (0, 1), BuildingBlock: CIFDUS_clean_linker_0, # of connection points: 2
#     Edge 33, Type (0, 1), BuildingBlock: CIFDUS_clean_linker_0, # of connection points: 2
#     Edge 34, Type (0, 1), BuildingBlock: CIFDUS_clean_linker_0, # of connection points: 2
#     Edge 35, Type (0, 1), BuildingBlock: CIFDUS_clean_linker_0, # of connection points: 2
#     Edge 36, Type (0, 1), BuildingBlock: CIFDUS_clean_linker_0, # of connection points: 2
#     Edge 37, Type (0, 1), BuildingBlock: CIFDUS_clean_linker_0, # of connection points: 2
#     Edge 38, Type (0, 1), BuildingBlock: CIFDUS_clean_linker_0, # of connection points: 2
#     Edge 39, Type (0, 1), BuildingBlock: CIFDUS_clean_linker_0, # of connection points: 2
#     Edge 40, Type (0, 1), BuildingBlock: CIFDUS_clean_linker_0, # of connection points: 2
#     Edge 41, Type (0, 1), BuildingBlock: CIFDUS_clean_linker_0, # of connection points: 2
#     Edge 42, Type (0, 1), BuildingBlock: CIFDUS_clean_linker_0, # of connection points: 2
#     Edge 43, Type (0, 1), BuildingBlock: CIFDUS_clean_linker_0, # of connection points: 2
#     Edge 44, Type (0, 1), BuildingBlock: CIFDUS_clean_linker_0, # of connection points: 2
#     Edge 45, Type (0, 1), BuildingBlock: CIFDUS_clean_linker_0, # of connection points: 2
#     Edge 46, Type (0, 1), BuildingBlock: CIFDUS_clean_linker_0, # of connection points: 2
#     Edge 47, Type (0, 1), BuildingBlock: CIFDUS_clean_linker_0, # of connection points: 2
#     Edge 48, Type (0, 1), BuildingBlock: CIFDUS_clean_linker_0, # of connection points: 2
#     Edge 49, Type (0, 1), BuildingBlock: CIFDUS_clean_linker_0, # of connection points: 2
#     Edge 50, Type (0, 1), BuildingBlock: CIFDUS_clean_linker_0, # of connection points: 2
#     Edge 51, Type (0, 1), BuildingBlock: CIFDUS_clean_linker_0, # of connection points: 2
#     Edge 52, Type (0, 1), BuildingBlock: CIFDUS_clean_linker_0, # of connection points: 2
#     Edge 53, Type (0, 1), BuildingBlock: CIFDUS_clean_linker_0, # of connection points: 2
#     Edge 54, Type (0, 1), BuildingBlock: CIFDUS_clean_linker_0, # of connection points: 2
#     Edge 55, Type (0, 1), BuildingBlock: CIFDUS_clean_linker_0, # of connection points: 2
#     Edge 56, Type (0, 1), BuildingBlock: CIFDUS_clean_linker_0, # of connection points: 2
#     Edge 57, Type (0, 1), BuildingBlock: CIFDUS_clean_linker_0, # of connection points: 2
#     Edge 58, Type (0, 1), BuildingBlock: CIFDUS_clean_linker_0, # of connection points: 2
#     Edge 59, Type (0, 1), BuildingBlock: CIFDUS_clean_linker_0, # of connection points: 2
#     Edge 60, Type (0, 1), BuildingBlock: CIFDUS_clean_linker_0, # of connection points: 2
#     Edge 61, Type (0, 1), BuildingBlock: CIFDUS_clean_linker_0, # of connection points: 2
#     Edge 62, Type (0, 1), BuildingBlock: CIFDUS_clean_linker_0, # of connection points: 2
#     Edge 63, Type (0, 1), BuildingBlock: CIFDUS_clean_linker_0, # of connection points: 2
#     Edge 64, Type (0, 1), BuildingBlock: CIFDUS_clean_linker_0, # of connection points: 2
#     Edge 65, Type (0, 1), BuildingBlock: CIFDUS_clean_linker_0, # of connection points: 2
#     Edge 66, Type (0, 1), BuildingBlock: CIFDUS_clean_linker_0, # of connection points: 2
#     Edge 67, Type (0, 1), BuildingBlock: CIFDUS_clean_linker_0, # of connection points: 2
# Relax obj value: 0.184
# Max RMSD: 0.196
# Mean RMSD: 0.138
data_MOF--net-myd--node1-KOZSID_clean_sbu_0--node2-LEVNOQ01_clean_sbu_1--edge1-CIFDUS_clean_linker_0
_symmetry_space_group_name_H-M    P1
_symmetry_Int_Tables_number       1
_symmetry_cell_setting            triclinic
loop_
_symmetry_equiv_pos_as_xyz
'x, y, z'
_cell_length_a     45.042351
_cell_length_b     45.472022
_cell_length_c     44.758664
_cell_angle_alpha  92.302235
_cell_angle_beta   91.849451
_cell_angle_gamma 94.08007
loop_
_atom_site_label
_atom_site_type_symbol
_atom_site_fract_x
_atom_site_fract_y
_atom_site_fract_z
_atom_type_partial_charge
C0 C 0.98856 0.30331 0.32222 0.0
C1 C 0.95836 0.30794 0.32307 0.0
C2 C 0.94312 0.28284 0.31169 0.0
C3 C 0.96454 0.26464 0.30339 0.0
N4 N 0.99267 0.27622 0.30951 0.0
Co5 Co 0.02977 0.26197 0.29182 0.0
N6 N 0.00653 0.23191 0.26496 0.0
C7 C 0.97746 0.22313 0.26739 0.0
C8 C 0.96805 0.19901 0.24947 0.0
C9 C 0.99267 0.19173 0.2348 0.0
C10 C 0.01576 0.21234 0.24424 0.0
N11 N 0.06673 0.24996 0.27241 0.0
C12 C 0.07012 0.23127 0.2485 0.0
C13 C 0.09983 0.23128 0.24108 0.0
C14 C 0.1157 0.24989 0.26154 0.0
C15 C 0.09488 0.2606 0.27997 0.0
N16 N 0.05256 0.29114 0.31982 0.0
C17 C 0.08224 0.29298 0.32551 0.0
C18 C 0.09153 0.31573 0.34552 0.0
C19 C 0.06638 0.32964 0.35209 0.0
C20 C 0.04309 0.31481 0.33536 0.0
N21 N 0.03289 0.23042 0.32154 0.0
C22 C 0.0341 0.17455 0.34705 0.0
C23 C 0.06009 0.18938 0.33759 0.0
C24 C 0.05911 0.21721 0.32571 0.0
C25 C 0.00812 0.18975 0.34663 0.0
C26 C 0.00814 0.21767 0.33437 0.0
N27 N 0.02699 0.29229 0.26216 0.0
C28 C 0.0473 0.3368 0.24064 0.0
C29 C 0.02027 0.33956 0.22551 0.0
C30 C -0.00282 0.3177 0.22759 0.0
C31 C 0.00107 0.29412 0.24581 0.0
C32 C 0.05023 0.31293 0.25881 0.0
H33 H 0.98263 0.27806 0.24735 0.0
H34 H 0.07107 0.31203 0.27076 0.0
H35 H 0.07992 0.2269 0.31918 0.0
H36 H 0.98768 0.22808 0.33497 0.0
C37 C 0.95907 0.23932 0.285 0.0
C38 C 0.01287 0.32518 0.33281 0.0
C39 C 0.04613 0.21196 0.23345 0.0
C40 C 0.10087 0.27906 0.30572 0.0
H41 H 0.94786 0.32773 0.32936 0.0
H42 H 0.91931 0.27939 0.30738 0.0
H43 H 0.94592 0.18803 0.24728 0.0
H44 H 0.99332 0.17297 0.2193 0.0
H45 H 0.10918 0.21867 0.22314 0.0
H46 H 0.1396 0.25466 0.26306 0.0
H47 H 0.11421 0.32309 0.35234 0.0
H48 H 0.06559 0.34946 0.36617 0.0
H49 H 0.0811 0.17919 0.33816 0.0
H50 H 0.98771 0.18006 0.3554 0.0
H51 H 0.06559 0.35346 0.23932 0.0
H52 H 0.97599 0.31926 0.2158 0.0
C53 C 0.98477 0.71025 0.11081 0.0
C54 C 0.9581 0.70136 0.09549 0.0
C55 C 0.93713 0.71848 0.10673 0.0
C56 C 0.95221 0.73686 0.12793 0.0
N57 N 0.98167 0.73292 0.1306 0.0
Co58 Co 0.01207 0.75503 0.15839 0.0
N59 N 0.9808 0.77858 0.1765 0.0
C60 C 0.95132 0.77673 0.16916 0.0
C61 C 0.93585 0.79745 0.1838 0.0
C62 C 0.95657 0.81329 0.20187 0.0
C63 C 0.98355 0.80109 0.19734 0.0
N64 N 0.0425 0.77794 0.18579 0.0
C65 C 0.03903 0.79958 0.20687 0.0
C66 C 0.06602 0.80983 0.2207 0.0
C67 C 0.0874 0.79425 0.20776 0.0
C68 C 0.07229 0.77543 0.18692 0.0
N69 N 0.04324 0.73117 0.14045 0.0
C70 C 0.07273 0.73321 0.14765 0.0
C71 C 0.08813 0.71238 0.13305 0.0
C72 C 0.06718 0.69577 0.11582 0.0
C73 C 0.04011 0.70764 0.12076 0.0
N74 N 0.01885 0.78537 0.12822 0.0
C75 C 0.02796 0.83465 0.0932 0.0
C76 C 0.05211 0.82159 0.10575 0.0
C77 C 0.04709 0.79661 0.1225 0.0
C78 C -0.0006 0.8217 0.09655 0.0
C79 C 0.99536 0.79727 0.11412 0.0
N80 N 0.00561 0.72448 0.18859 0.0
C81 C 0.02634 0.69363 0.22547 0.0
C82 C -0.0006 0.67647 0.22708 0.0
C83 C 0.97509 0.685 0.20979 0.0
C84 C 0.97853 0.70922 0.19135 0.0
C85 C 0.02905 0.71673 0.20604 0.0
H86 H 0.9591 0.71495 0.17921 0.0
H87 H 0.05058 0.72778 0.20545 0.0
H88 H 0.06638 0.7873 0.13111 0.0
H89 H 0.97297 0.78906 0.11662 0.0
C90 C 0.93914 0.75696 0.14674 0.0
C91 C 0.01182 0.69502 0.10748 0.0
C92 C 0.0106 0.81056 0.21488 0.0
C93 C 0.0851 0.75406 0.16916 0.0
H94 H 0.95406 0.68371 0.07858 0.0
H95 H 0.91358 0.71715 0.10074 0.0
H96 H 0.91241 0.80095 0.18123 0.0
H97 H 0.95233 0.83164 0.21691 0.0
H98 H 0.06987 0.82671 0.2384 0.0
H99 H 0.11107 0.79613 0.21318 0.0
H100 H 0.11166 0.70914 0.13529 0.0
H101 H 0.07135 0.6767 0.10178 0.0
H102 H 0.07467 0.83078 0.10293 0.0
H103 H 0.98015 0.83119 0.08674 0.0
H104 H 0.0457 0.68967 0.23922 0.0
H105 H 0.95348 0.67304 0.20994 0.0
C106 C 0.34304 0.97354 0.27497 0.0
C107 C 0.35031 0.94485 0.27956 0.0
C108 C 0.34082 0.92837 0.25447 0.0
C109 C 0.328 0.94764 0.23611 0.0
N110 N 0.32965 0.97574 0.24758 0.0
Co111 Co 0.30956 0.00992 0.23106 0.0
N112 N 0.28663 0.98368 0.19997 0.0
C113 C 0.289 0.95444 0.19469 0.0
C114 C 0.27037 0.94233 0.17195 0.0
C115 C 0.25519 0.96518 0.16208 0.0
C116 C 0.26546 0.99001 0.17949 0.0
N117 N 0.28944 0.04414 0.21485 0.0
C118 C 0.26828 0.04487 0.19267 0.0
C119 C 0.26061 0.07347 0.18835 0.0
C120 C 0.27768 0.09141 0.20837 0.0
C121 C 0.29467 0.07286 0.22381 0.0
N122 N 0.33199 0.03571 0.26269 0.0
C123 C 0.33297 0.06545 0.2658 0.0
C124 C 0.34806 0.07656 0.2914 0.0
C125 C 0.3562 0.0524 0.306 0.0
C126 C 0.34545 0.02788 0.28845 0.0
N127 N 0.34171 0.01705 0.20194 0.0
C128 C 0.36801 0.02929 0.14726 0.0
C129 C 0.36554 0.05179 0.16897 0.0
C130 C 0.35272 0.04513 0.19622 0.0
C131 C 0.36101 0.0003 0.15498 0.0
C132 C 0.34888 0.99471 0.18263 0.0
N133 N 0.27717 0.00309 0.25892 0.0
C134 C 0.23993 0.02164 0.29083 0.0
C135 C 0.2261 0.99327 0.29186 0.0
C136 C 0.23942 0.96974 0.27821 0.0
C137 C 0.26484 0.97509 0.26205 0.0
C138 C 0.2655 0.02606 0.27421 0.0
H139 H 0.27361 0.95635 0.25145 0.0
H140 H 0.275 0.04822 0.27315 0.0
H141 H 0.35092 0.06321 0.21167 0.0
H142 H 0.3444 0.97218 0.18721 0.0
C143 C 0.30857 0.93889 0.21185 0.0
C144 C 0.34661 0.99757 0.29795 0.0
C145 C 0.25475 0.01914 0.17532 0.0
C146 C 0.31501 0.08157 0.24739 0.0
H147 H 0.35973 0.93609 0.29954 0.0
H148 H 0.34073 0.90464 0.25126 0.0
H149 H 0.26804 0.91958 0.1636 0.0
H150 H 0.23855 0.96376 0.14399 0.0
H151 H 0.24433 0.08062 0.17242 0.0
H152 H 0.27753 0.11513 0.21147 0.0
H153 H 0.35086 0.09935 0.29957 0.0
H154 H 0.3674 0.05268 0.32779 0.0
H155 H 0.37213 0.07451 0.16446 0.0
H156 H 0.36439 0.98199 0.13951 0.0
H157 H 0.23032 0.04036 0.3015 0.0
H158 H 0.22965 0.94734 0.27918 0.0
C159 C 0.63467 0.45908 0.20316 0.0
C160 C 0.62286 0.43061 0.19583 0.0
C161 C 0.63398 0.41305 0.21688 0.0
C162 C 0.65177 0.43182 0.23571 0.0
N163 N 0.65205 0.46037 0.22835 0.0
Co164 Co 0.67564 0.49508 0.24808 0.0
N165 N 0.69828 0.46848 0.27351 0.0
C166 C 0.69461 0.43872 0.2742 0.0
C167 C 0.71323 0.42686 0.29454 0.0
C168 C 0.72997 0.45044 0.30744 0.0
C169 C 0.72035 0.47533 0.29419 0.0
N170 N 0.6986 0.52988 0.26831 0.0
C171 C 0.72024 0.53065 0.28992 0.0
C172 C 0.72963 0.55937 0.29933 0.0
C173 C 0.71325 0.57746 0.28291 0.0
C174 C 0.69484 0.55879 0.26463 0.0
N175 N 0.65359 0.52142 0.22178 0.0
C176 C 0.65601 0.55131 0.22205 0.0
C177 C 0.64079 0.56283 0.19884 0.0
C178 C 0.62865 0.53892 0.18225 0.0
C179 C 0.63696 0.51404 0.19661 0.0
N180 N 0.64546 0.49795 0.27968 0.0
C181 C 0.61371 0.50749 0.33218 0.0
C182 C 0.61747 0.52936 0.31139 0.0
C183 C 0.63282 0.52404 0.28546 0.0
C184 C 0.62427 0.47999 0.32527 0.0
C185 C 0.63953 0.47558 0.29884 0.0
N186 N 0.70603 0.49282 0.21703 0.0
C187 C 0.73665 0.5174 0.1808 0.0
C188 C 0.74654 0.49066 0.17037 0.0
C189 C 0.73635 0.46489 0.18412 0.0
C190 C 0.71589 0.46642 0.20713 0.0
C191 C 0.71699 0.51805 0.20422 0.0
H192 H 0.70806 0.4461 0.21654 0.0
H193 H 0.7108 0.53927 0.21153 0.0
H194 H 0.63466 0.54184 0.27096 0.0
H195 H 0.64668 0.45404 0.29479 0.0
C196 C 0.67235 0.42277 0.2567 0.0
C197 C 0.6308 0.48389 0.18451 0.0
C198 C 0.73331 0.50489 0.30133 0.0
C199 C 0.67509 0.56774 0.24268 0.0
H200 H 0.60881 0.42321 0.17652 0.0
H201 H 0.63109 0.38923 0.2172 0.0
H202 H 0.71426 0.40387 0.29962 0.0
H203 H 0.74719 0.44948 0.32472 0.0
H204 H 0.74676 0.56643 0.31614 0.0
H205 H 0.71485 0.60135 0.28388 0.0
H206 H 0.64003 0.58582 0.19365 0.0
H207 H 0.61628 0.53996 0.16127 0.0
H208 H 0.60933 0.55097 0.31544 0.0
H209 H 0.62081 0.46195 0.34016 0.0
H210 H 0.74442 0.53792 0.17114 0.0
H211 H 0.74368 0.44369 0.17678 0.0
C212 C 0.30422 0.36198 0.98271 0.0
C213 C 0.31098 0.36896 0.95363 0.0
C214 C 0.28882 0.35561 0.93536 0.0
C215 C 0.27002 0.34096 0.95406 0.0
N216 N 0.27835 0.34491 0.98337 0.0
Co217 Co 0.25997 0.32465 0.01802 0.0
N218 N 0.23315 0.29812 0.9904 0.0
C219 C 0.23174 0.29785 0.96011 0.0
C220 C 0.21171 0.27667 0.94726 0.0
C221 C 0.19947 0.26259 0.97067 0.0
C222 C 0.21253 0.27636 -0.00335 0.0
N223 N 0.24145 0.3049 0.05271 0.0
C224 C 0.21911 0.2834 0.0531 0.0
C225 C 0.2112 0.27756 0.08213 0.0
C226 C 0.22933 0.29593 0.10073 0.0
C227 C 0.24705 0.31201 0.0821 0.0
N228 N 0.28754 0.35068 0.04527 0.0
C229 C 0.28804 0.35256 0.07548 0.0
C230 C 0.31118 0.37075 0.08787 0.0
C231 C 0.327 0.38027 0.06415 0.0
C232 C 0.31252 0.36716 0.03865 0.0
N233 N 0.2285 0.35352 0.01975 0.0
C234 C 0.17349 0.38024 0.02349 0.0
C235 C 0.19322 0.38003 0.04845 0.0
C236 C 0.22033 0.36664 0.0461 0.0
C237 C 0.18342 0.36889 -0.00368 0.0
C238 C 0.21097 0.35703 0.99484 0.0
N239 N 0.29049 0.2953 0.01634 0.0
C240 C 0.32491 0.26417 0.0403 0.0
C241 C 0.33343 0.25328 0.01242 0.0
C242 C 0.31994 0.26359 0.98679 0.0
C243 C 0.29872 0.28422 0.98921 0.0
C244 C 0.30364 0.28536 0.04175 0.0
H245 H 0.28927 0.2909 0.96872 0.0
H246 H 0.29812 0.29352 0.06351 0.0
H247 H 0.23392 0.36665 0.06603 0.0
H248 H 0.21683 0.34965 0.97326 0.0
C249 C 0.2488 0.31843 0.94437 0.0
C250 C 0.32414 0.36951 0.00876 0.0
C251 C 0.20452 0.26818 0.02667 0.0
C252 C 0.26889 0.33409 0.09147 0.0
H253 H 0.33071 0.38083 0.94591 0.0
H254 H 0.28804 0.35447 0.91114 0.0
H255 H 0.2065 0.27213 0.92367 0.0
H256 H 0.18271 0.24432 0.96861 0.0
H257 H 0.19387 0.26186 0.08913 0.0
H258 H 0.22935 0.29762 0.12493 0.0
H259 H 0.31686 0.3752 0.11139 0.0
H260 H 0.34751 0.39426 0.06549 0.0
H261 H 0.18784 0.38972 0.06989 0.0
H262 H 0.16989 0.36785 0.9759 0.0
H263 H 0.33493 0.25679 0.06075 0.0
H264 H 0.32556 0.25548 0.96473 0.0
C265 C 0.18883 0.63986 0.4786 0.0
C266 C 0.1823 0.62651 0.45044 0.0
C267 C 0.2003 0.64088 0.43104 0.0
C268 C 0.21692 0.66178 0.44845 0.0
N269 N 0.21102 0.66135 0.47792 0.0
Co270 Co 0.2308 0.68686 0.51149 0.0
N271 N 0.25705 0.70807 0.48281 0.0
C272 C 0.25646 0.70449 0.45257 0.0
C273 C 0.27941 0.71979 0.43936 0.0
C274 C 0.29604 0.73345 0.46247 0.0
C275 C 0.28192 0.72602 0.48859 0.0
N276 N 0.25118 0.71194 0.54497 0.0
C277 C 0.2762 0.7302 0.54473 0.0
C278 C 0.28427 0.74211 0.57318 0.0
C279 C 0.26414 0.73018 0.59218 0.0
C280 C 0.24496 0.7119 0.57435 0.0
N281 N 0.20446 0.66555 0.54004 0.0
C282 C 0.20376 0.67057 0.57001 0.0
C283 C 0.18179 0.65392 0.58329 0.0
C284 C 0.16731 0.63749 0.56043 0.0
C285 C 0.18156 0.64492 0.53441 0.0
N286 N 0.26126 0.65817 0.51664 0.0
C287 C 0.31124 0.62544 0.52361 0.0
C288 C 0.29606 0.63482 0.54855 0.0
C289 C 0.27093 0.65077 0.54453 0.0
C290 C 0.30037 0.63168 0.49524 0.0
C291 C 0.27545 0.64769 0.49229 0.0
N292 N 0.20033 0.71606 0.50639 0.0
C293 C 0.16494 0.74851 0.52699 0.0
C294 C 0.1542 0.75389 0.49836 0.0
C295 C 0.16737 0.74095 0.47389 0.0
C296 C 0.19038 0.72256 0.47835 0.0
C297 C 0.1878 0.72944 0.53049 0.0
H298 H 0.19944 0.71362 0.45869 0.0
H299 H 0.19459 0.72562 0.55289 0.0
H300 H 0.26004 0.65742 0.56424 0.0
H301 H 0.26866 0.65203 0.47007 0.0
C302 C 0.23769 0.68257 0.43768 0.0
C303 C 0.17171 0.63303 0.50472 0.0
C304 C 0.29337 0.73623 0.51832 0.0
C305 C 0.22288 0.69225 0.58484 0.0
H306 H 0.16564 0.60875 0.4444 0.0
H307 H 0.20084 0.63692 0.40706 0.0
H308 H 0.28462 0.71936 0.41592 0.0
H309 H 0.31681 0.74656 0.46033 0.0
H310 H 0.30322 0.7572 0.57974 0.0
H311 H 0.26424 0.73345 0.61628 0.0
H312 H 0.17634 0.65435 0.60667 0.0
H313 H 0.14796 0.62237 0.56273 0.0
H314 H 0.30345 0.62979 0.57092 0.0
H315 H 0.31147 0.6248 0.47528 0.0
H316 H 0.15527 0.7583 0.54653 0.0
H317 H 0.15986 0.74499 0.45127 0.0
C318 C 0.77732 0.84182 0.46325 0.0
C319 C 0.7804 0.84509 0.43273 0.0
C320 C 0.75653 0.82977 0.41866 0.0
C321 C 0.74053 0.81772 0.44118 0.0
N322 N 0.75232 0.82482 0.46894 0.0
Co323 Co 0.73874 0.80828 0.50758 0.0
N324 N 0.70662 0.78201 0.48624 0.0
C325 C 0.69894 0.78147 0.45674 0.0
C326 C 0.67395 0.76363 0.44893 0.0
C327 C 0.66474 0.7524 0.47506 0.0
C328 C 0.68504 0.7638 0.49739 0.0
N329 N 0.72622 0.79093 0.54612 0.0
C330 C 0.70366 0.77073 0.55148 0.0
C331 C 0.7025 0.76501 0.58169 0.0
C332 C 0.72477 0.78269 0.59597 0.0
C333 C 0.73837 0.79791 0.57375 0.0
N334 N 0.77032 0.83545 0.52876 0.0
C335 C 0.77502 0.83963 0.55864 0.0
C336 C 0.79849 0.8596 0.56655 0.0
C337 C 0.80982 0.86828 0.54012 0.0
C338 C 0.79265 0.85288 0.51755 0.0
N339 N 0.70867 0.83857 0.51234 0.0
C340 C 0.65373 0.86515 0.5193 0.0
C341 C 0.67174 0.85884 0.54409 0.0
C342 C 0.69912 0.84653 0.54013 0.0
C343 C 0.6657 0.86073 0.49103 0.0
C344 C 0.69289 0.8477 0.4881 0.0
N345 N 0.76758 0.77718 0.503 0.0
C346 C 0.80529 0.74719 0.52352 0.0
C347 C 0.80392 0.72887 0.49747 0.0
C348 C 0.78507 0.73626 0.47387 0.0
C349 C 0.76739 0.76017 0.47704 0.0
C350 C 0.78705 0.77106 0.52581 0.0
H351 H 0.75329 0.76423 0.45828 0.0
H352 H 0.78862 0.78403 0.54637 0.0
H353 H 0.71156 0.84253 0.56003 0.0
H354 H 0.70017 0.84447 0.46587 0.0
C355 C 0.71548 0.79811 0.43689 0.0
C356 C 0.79915 0.85454 0.48589 0.0
C357 C 0.68231 0.75729 0.52887 0.0
C358 C 0.76017 0.8212 0.57837 0.0
H359 H 0.79841 0.85662 0.42157 0.0
H360 H 0.75202 0.82677 0.39479 0.0
H361 H 0.66333 0.75974 0.42695 0.0
H362 H 0.64489 0.73793 0.47736 0.0
H363 H 0.68671 0.75018 0.59241 0.0
H364 H 0.72975 0.78496 0.61981 0.0
H365 H 0.80731 0.86591 0.58885 0.0
H366 H 0.82915 0.88346 0.53774 0.0
H367 H 0.66453 0.86223 0.56669 0.0
H368 H 0.65408 0.86686 0.47094 0.0
H369 H 0.81967 0.74265 0.54238 0.0
H370 H 0.78378 0.72349 0.45286 0.0
C371 C 0.49755 0.82128 0.84756 0.0
C372 C 0.47043 0.82593 0.86015 0.0
C373 C 0.4519 0.80144 0.85273 0.0
C374 C 0.46873 0.78327 0.83623 0.0
N375 N 0.49722 0.79415 0.83369 0.0
Co376 Co 0.52849 0.77676 0.80909 0.0
N377 N 0.49912 0.74561 0.79064 0.0
C378 C 0.47079 0.73951 0.7989 0.0
C379 C 0.45609 0.71652 0.78251 0.0
C380 C 0.47617 0.70748 0.76253 0.0
C381 C 0.50209 0.72564 0.76783 0.0
N382 N 0.55953 0.76038 0.7834 0.0
C383 C 0.55673 0.73953 0.76071 0.0
C384 C 0.58386 0.7358 0.74774 0.0
C385 C 0.60447 0.75496 0.76278 0.0
C386 C 0.5888 0.76939 0.78389 0.0
N387 N 0.55755 0.80805 0.828 0.0
C388 C 0.58741 0.81007 0.82515 0.0
C389 C 0.60102 0.8358 0.83764 0.0
C390 C 0.57849 0.85147 0.84822 0.0
C391 C 0.55218 0.83425 0.84194 0.0
N392 N 0.53799 0.74851 0.84077 0.0
C393 C 0.54713 0.6947 0.86795 0.0
C394 C 0.57095 0.71177 0.8568 0.0
C395 C 0.56599 0.73863 0.84389 0.0
C396 C 0.51958 0.70692 0.86878 0.0
C397 C 0.51577 0.73397 0.85587 0.0
N398 N 0.51926 0.8034 0.77716 0.0
C399 C 0.53577 0.83487 0.73794 0.0
C400 C 0.50688 0.8335 0.72562 0.0
C401 C 0.48398 0.81867 0.74057 0.0
C402 C 0.49058 0.80409 0.7664 0.0
C403 C 0.54149 0.8196 0.76369 0.0
H404 H 0.47241 0.79267 0.77688 0.0
H405 H 0.56412 0.82034 0.77182 0.0
H406 H 0.58507 0.75036 0.83575 0.0
H407 H 0.49438 0.74207 0.8578 0.0
C408 C 0.4577 0.75773 0.81986 0.0
C409 C 0.52229 0.84404 0.84739 0.0
C410 C 0.52889 0.72294 0.75073 0.0
C411 C 0.60055 0.79195 0.80405 0.0
H412 H 0.46433 0.84555 0.87226 0.0
H413 H 0.42847 0.79808 0.85728 0.0
H414 H 0.43322 0.70789 0.78429 0.0
H415 H 0.47209 0.68969 0.74578 0.0
H416 H 0.58825 0.7209 0.72919 0.0
H417 H 0.62796 0.75828 0.75853 0.0
H418 H 0.62421 0.8436 0.83649 0.0
H419 H 0.58132 0.87374 0.85768 0.0
H420 H 0.5931 0.70393 0.85684 0.0
H421 H 0.50085 0.69548 0.87902 0.0
H422 H 0.55396 0.84654 0.72709 0.0
H423 H 0.46115 0.81786 0.73201 0.0
C424 C 0.55242 0.30666 0.62959 0.0
C425 C 0.5811 0.31493 0.62112 0.0
C426 C 0.59928 0.29555 0.63343 0.0
C427 C 0.58078 0.27684 0.64884 0.0
N428 N 0.55176 0.28255 0.64645 0.0
Co429 Co 0.51799 0.26405 0.669 0.0
N430 N 0.54544 0.23928 0.69183 0.0
C431 C 0.57486 0.23732 0.68754 0.0
C432 C 0.58759 0.21715 0.70488 0.0
C433 C 0.56492 0.20509 0.72092 0.0
C434 C 0.53953 0.21882 0.71261 0.0
N435 N 0.48448 0.24672 0.69282 0.0
C436 C 0.48451 0.22659 0.71446 0.0
C437 C 0.45637 0.22157 0.72588 0.0
C438 C 0.43783 0.23849 0.71046 0.0
C439 C 0.45561 0.25318 0.69082 0.0
N440 N 0.49038 0.28769 0.64552 0.0
C441 C 0.46031 0.28627 0.64611 0.0
C442 C 0.44772 0.30604 0.62808 0.0
C443 C 0.47119 0.32145 0.61592 0.0
C444 C 0.49681 0.31021 0.62743 0.0
N445 N 0.51134 0.23149 0.63864 0.0
C446 C 0.50256 0.17707 0.60741 0.0
C447 C 0.47845 0.19125 0.61829 0.0
C448 C 0.48327 0.21854 0.63306 0.0
C449 C 0.53066 0.19228 0.60913 0.0
C450 C 0.53455 0.21937 0.62486 0.0
N451 N 0.52439 0.2965 0.69908 0.0
C452 C 0.50467 0.33441 0.72997 0.0
C453 C 0.53172 0.33855 0.74577 0.0
C454 C 0.55583 0.32342 0.73654 0.0
C455 C 0.55174 0.30265 0.71294 0.0
C456 C 0.50144 0.3132 0.70677 0.0
H457 H 0.57059 0.29102 0.70708 0.0
H458 H 0.47987 0.30991 0.69629 0.0
H459 H 0.464 0.22777 0.64111 0.0
H460 H 0.55664 0.22937 0.62646 0.0
C461 C 0.59012 0.25534 0.66772 0.0
C462 C 0.5267 0.32329 0.62289 0.0
C463 C 0.51015 0.21073 0.7241 0.0
C464 C 0.44537 0.27084 0.66826 0.0
H465 H 0.58836 0.33363 0.60833 0.0
H466 H 0.62329 0.29597 0.63248 0.0
H467 H 0.6106 0.2117 0.7056 0.0
H468 H 0.56686 0.18779 0.73661 0.0
H469 H 0.44976 0.20671 0.74315 0.0
H470 H 0.41405 0.23934 0.71271 0.0
H471 H 0.42443 0.3103 0.62582 0.0
H472 H 0.46972 0.3399 0.60153 0.0
H473 H 0.45607 0.18078 0.61731 0.0
H474 H 0.54982 0.18281 0.59962 0.0
H475 H 0.48553 0.34576 0.73697 0.0
H476 H 0.57713 0.32629 0.74867 0.0
C477 C 0.84348 0.47427 0.78189 0.0
C478 C 0.84713 0.44483 0.78732 0.0
C479 C 0.83208 0.42847 0.76482 0.0
C480 C 0.81978 0.44863 0.74721 0.0
N481 N 0.82648 0.47702 0.75678 0.0
Co482 Co 0.80955 0.51309 0.74085 0.0
N483 N 0.78129 0.48827 0.71311 0.0
C484 C 0.77943 0.45856 0.70886 0.0
C485 C 0.75823 0.4479 0.6878 0.0
C486 C 0.74558 0.47225 0.67811 0.0
C487 C 0.75995 0.4964 0.69395 0.0
N488 N 0.79259 0.54914 0.72497 0.0
C489 C 0.76959 0.55135 0.70515 0.0
C490 C 0.76464 0.58054 0.7002 0.0
C491 C 0.78539 0.59743 0.71753 0.0
C492 C 0.80174 0.57766 0.73202 0.0
N493 N 0.83756 0.53762 0.76917 0.0
C494 C 0.8416 0.56744 0.77144 0.0
C495 C 0.86118 0.57774 0.7942 0.0
C496 C 0.86942 0.55309 0.80783 0.0
C497 C 0.85425 0.52911 0.79258 0.0
N498 N 0.83918 0.51504 0.70883 0.0
C499 C 0.86624 0.52388 0.65382 0.0
C500 C 0.86693 0.54651 0.67581 0.0
C501 C 0.85412 0.5414 0.70312 0.0
C502 C 0.85464 0.49582 0.66112 0.0
C503 C 0.84165 0.49184 0.68878 0.0
N504 N 0.77978 0.51191 0.77212 0.0
C505 C 0.75527 0.53739 0.81147 0.0
C506 C 0.74041 0.51113 0.81901 0.0
C507 C 0.74466 0.48522 0.80242 0.0
C508 C 0.76444 0.4861 0.77897 0.0
C509 C 0.77458 0.53733 0.78796 0.0
H510 H 0.76748 0.46577 0.76695 0.0
H511 H 0.78542 0.55808 0.78333 0.0
H512 H 0.85575 0.55962 0.71863 0.0
H513 H 0.8331 0.47005 0.69306 0.0
C514 C 0.7978 0.44126 0.7251 0.0
C515 C 0.8552 0.49879 0.80196 0.0
C516 C 0.75191 0.52643 0.69064 0.0
C517 C 0.82446 0.58509 0.75373 0.0
H518 H 0.85829 0.43582 0.80626 0.0
H519 H 0.82868 0.40465 0.7628 0.0
H520 H 0.75255 0.42515 0.68052 0.0
H521 H 0.72764 0.47222 0.66142 0.0
H522 H 0.74771 0.58871 0.68564 0.0
H523 H 0.78793 0.62128 0.71971 0.0
H524 H 0.86763 0.60048 0.80094 0.0
H525 H 0.88415 0.55286 0.8274 0.0
H526 H 0.87631 0.56853 0.67176 0.0
H527 H 0.85518 0.47708 0.64547 0.0
H528 H 0.75239 0.55781 0.82404 0.0
H529 H 0.73329 0.46443 0.80791 0.0
C530 C 0.14684 0.03479 0.78211 0.0
C531 C 0.13957 0.06343 0.78882 0.0
C532 C 0.14956 0.08018 0.76606 0.0
C533 C 0.16242 0.06098 0.74687 0.0
N534 N 0.16051 0.0328 0.75561 0.0
Co535 Co 0.17889 0.99831 0.73611 0.0
N536 N 0.20129 0.02434 0.70799 0.0
C537 C 0.19996 0.05385 0.70601 0.0
C538 C 0.21745 0.06577 0.68443 0.0
C539 C 0.23116 0.0426 0.67215 0.0
C540 C 0.22127 0.01776 0.68706 0.0
N541 N 0.19694 0.9638 0.7161 0.0
C542 C 0.21753 0.96287 0.69448 0.0
C543 C 0.22369 0.9341 0.68705 0.0
C544 C 0.20641 0.91625 0.70446 0.0
C545 C 0.19069 0.935 0.72155 0.0
N546 N 0.15756 0.9726 0.76515 0.0
C547 C 0.15689 0.94286 0.76582 0.0
C548 C 0.14299 0.93171 0.79021 0.0
C549 C 0.13525 0.95586 0.80658 0.0
C550 C 0.14492 0.9804 0.79116 0.0
N551 N 0.14462 0.99258 0.70684 0.0
C552 C 0.10458 0.98181 0.65791 0.0
C553 C 0.10918 0.9597 0.67768 0.0
C554 C 0.12909 0.96561 0.70204 0.0
C555 C 0.11777 0.01001 0.66439 0.0
C556 C 0.13721 0.01497 0.68908 0.0
N557 N 0.21237 0.0036 0.76529 0.0
C558 C 0.24268 0.98258 0.80293 0.0
C559 C 0.25208 0.01067 0.8144 0.0
C560 C 0.24251 0.03528 0.80031 0.0
C561 C 0.22302 0.03124 0.7755 0.0
C562 C 0.22295 0.97955 0.77837 0.0
H563 H 0.21639 0.05063 0.76515 0.0
H564 H 0.21605 0.95757 0.77068 0.0
H565 H 0.13199 0.94767 0.71594 0.0
H566 H 0.14653 0.0369 0.69259 0.0
C567 C 0.18147 0.06963 0.72426 0.0
C568 C 0.14294 0.01073 0.80267 0.0
C569 C 0.23212 0.98862 0.68076 0.0
C570 C 0.17235 0.92654 0.74495 0.0
H571 H 0.12962 0.07177 0.80883 0.0
H572 H 0.14959 0.10391 0.76491 0.0
H573 H 0.21992 0.08858 0.67833 0.0
H574 H 0.24678 0.04383 0.65429 0.0
H575 H 0.23929 0.9268 0.67094 0.0
H576 H 0.206 0.89246 0.70518 0.0
H577 H 0.14022 0.90888 0.7962 0.0
H578 H 0.12468 0.95554 0.82796 0.0
H579 H 0.09868 0.93765 0.67359 0.0
H580 H 0.11382 0.02796 0.64988 0.0
H581 H 0.25046 0.9631 0.81294 0.0
H582 H 0.25047 0.05741 0.80807 0.0
C583 C 0.70822 0.15832 0.9816 0.0
C584 C 0.69986 0.14841 0.95254 0.0
C585 C 0.7169 0.16491 0.93401 0.0
C586 C 0.73456 0.18377 0.95272 0.0
N587 N 0.73021 0.18014 0.98213 0.0
Co588 Co 0.75016 0.20368 0.01682 0.0
N589 N 0.77661 0.22643 0.98942 0.0
C590 C 0.77688 0.22336 0.95918 0.0
C591 C 0.80201 0.23578 0.94706 0.0
C592 C 0.81904 0.24723 0.97086 0.0
C593 C 0.80272 0.24208 -0.00374 0.0
N594 N 0.76998 0.22766 0.05136 0.0
C595 C 0.79429 0.24708 0.05196 0.0
C596 C 0.80106 0.2588 0.08071 0.0
C597 C 0.78098 0.24545 0.09901 0.0
C598 C 0.76292 0.22667 0.08049 0.0
N599 N 0.72466 0.1798 0.04428 0.0
C600 C 0.72475 0.18234 0.07452 0.0
C601 C 0.70466 0.16277 0.08701 0.0
C602 C 0.69084 0.14687 0.06333 0.0
C603 C 0.70333 0.15779 0.03773 0.0
N604 N 0.78118 0.17517 0.02039 0.0
C605 C 0.83448 0.14735 0.02726 0.0
C606 C 0.8179 0.15422 0.05201 0.0
C607 C 0.79141 0.16783 0.04807 0.0
C608 C 0.82265 0.15226 -0.00124 0.0
C609 C 0.79577 0.16566 0.99583 0.0
N610 N 0.71915 0.233 0.01374 0.0
C611 C 0.68194 0.26089 0.03768 0.0
C612 C 0.6769 0.2764 0.01198 0.0
C613 C 0.69259 0.26894 0.98656 0.0
C614 C 0.7135 0.24731 0.98792 0.0
C615 C 0.70285 0.23976 0.03811 0.0
H616 H 0.72513 0.24288 0.968 0.0
H617 H 0.70556 0.2296 0.05879 0.0
H618 H 0.78035 0.1734 0.06792 0.0
H619 H 0.78771 0.16918 0.97363 0.0
C620 C 0.75641 0.20397 0.9433 0.0
C621 C 0.69322 0.14761 0.00769 0.0
C622 C 0.81241 0.25366 0.02616 0.0
C623 C 0.74231 0.2049 0.09022 0.0
H624 H 0.68284 0.13133 0.94545 0.0
H625 H 0.71652 0.16334 0.9098 0.0
H626 H 0.80823 0.23464 0.9239 0.0
H627 H 0.84128 0.25767 0.96956 0.0
H628 H 0.81926 0.27452 0.08798 0.0
H629 H 0.7806 0.248 0.12314 0.0
H630 H 0.70006 0.16082 0.11046 0.0
H631 H 0.67316 0.12961 0.06463 0.0
H632 H 0.82591 0.15029 0.07448 0.0
H633 H 0.83423 0.14612 0.97887 0.0
H634 H 0.67006 0.26537 0.05785 0.0
H635 H 0.68956 0.2804 0.96606 0.0
O636 O 0.07277 0.07308 0.10865 0.0
Mg637 Mg 0.09101 0.0872 0.06867 0.0
O638 O 0.04166 0.08906 0.07621 0.0
Mg639 Mg 0.06168 0.06797 0.03014 0.0
O640 O 0.11255 0.05661 0.04562 0.0
O641 O 0.13498 0.09187 0.0769 0.0
O642 O 0.07631 0.05074 0.98083 0.0
O643 O 0.0496 0.02088 0.04724 0.0
Mg644 Mg 0.01077 0.03629 0.99507 0.0
O645 O 0.01273 0.07704 0.01622 0.0
O646 O 0.03426 0.03496 0.95664 0.0
O647 O 0.01062 -0.00022 0.02157 0.0
O648 O 0.97241 0.05578 0.99063 0.0
C649 C 0.08192 0.13605 0.03201 0.0
C650 C 0.04999 0.08686 0.10356 0.0
C651 C 0.13605 0.06782 0.06108 0.0
C652 C 0.06198 0.0413 0.95659 0.0
C653 C 0.03072 0.99896 0.04179 0.0
C654 C 0.98534 0.07783 0.00621 0.0
O655 O 0.08258 0.1311 0.05942 0.0
O656 O 0.07699 0.11427 0.01353 0.0
O657 O 0.93489 0.4347 0.11226 0.0
Mg658 Mg 0.89702 0.43328 0.08365 0.0
O659 O 0.96829 0.44572 0.07807 0.0
Mg660 Mg 0.94675 0.46168 0.03418 0.0
O661 O 0.90133 0.47037 0.0571 0.0
O662 O 0.90098 0.47098 0.05702 0.0
O663 O 0.92167 0.47566 0.98902 0.0
O664 O 0.96107 0.50959 0.05176 0.0
Mg665 Mg 0.9825 0.48693 0.99568 0.0
O666 O 0.99503 0.44989 0.01586 0.0
O667 O 0.9572 0.48108 0.95703 0.0
O668 O 0.98749 0.52873 0.01625 0.0
O669 O 0.02294 0.47704 0.98471 0.0
C670 C 0.91512 0.39298 0.03072 0.0
C671 C 0.96167 0.43807 0.10431 0.0
C672 C 0.88297 0.49072 0.0597 0.0
C673 C 0.92993 0.47905 0.96224 0.0
C674 C 0.97591 0.53145 0.04133 0.0
C675 C 0.0194 0.45449 0.00105 0.0
O676 O 0.90143 0.39638 0.05485 0.0
O677 O 0.93074 0.41382 0.01923 0.0
O678 O 0.07274 0.92724 0.37434 0.0
Mg679 Mg 0.03978 0.90223 0.39871 0.0
O680 O 0.07376 0.96303 0.40882 0.0
Mg681 Mg 0.02821 0.94514 0.42334 0.0
O682 O 0.04908 0.90073 0.44243 0.0
O683 O 0.05597 0.86386 0.4088 0.0
O684 O 0.9813 0.9232 0.43785 0.0
O685 O 0.04432 0.9589 0.47123 0.0
Mg686 Mg 0.99067 0.98719 0.45039 0.0
O687 O 0.0125 0.99229 0.41084 0.0
O688 O 0.95263 0.95899 0.44915 0.0
O689 O 0.01579 0.99141 0.49088 0.0
O690 O 0.98325 0.02526 0.43162 0.0
C691 C -0.00124 0.91023 0.36293 0.0
C692 C 0.08471 0.9514 0.38581 0.0
C693 C 0.05779 0.87454 0.43595 0.0
C694 C 0.95604 0.93186 0.44523 0.0
C695 C 0.03779 0.97581 0.49287 0.0
C696 C 0.00015 0.01747 0.41043 0.0
O697 O 0.99557 0.89118 0.38235 0.0
O698 O 0.01344 0.93422 0.3713 0.0
O699 O 0.93179 0.62861 0.43555 0.0
Mg700 Mg 0.93 0.5984 0.39973 0.0
O701 O 0.92208 0.58665 0.45614 0.0
Mg702 Mg 0.94346 0.54669 0.42735 0.0
O703 O 0.95527 0.56746 0.38081 0.0
O704 O 0.96571 0.61553 0.37738 0.0
O705 O 0.95843 0.50159 0.40151 0.0
O706 O 0.99135 0.5635 0.44338 0.0
Mg707 Mg 0.97208 0.50227 0.4704 0.0
O708 O 0.93397 0.52384 0.47117 0.0
O709 O 0.97218 0.47091 0.43589 0.0
O710 O 0.0089 0.53257 0.47539 0.0
O711 O 0.94672 0.49272 0.50599 0.0
C712 C 0.8795 0.54954 0.39576 0.0
C713 C 0.92166 0.61482 0.45702 0.0
C714 C 0.96803 0.58925 0.36702 0.0
C715 C 0.96705 0.4763 0.40885 0.0
C716 C 0.01193 0.55601 0.46111 0.0
C717 C 0.92855 0.51098 0.49592 0.0
O718 O 0.88754 0.57564 0.38819 0.0
O719 O 0.89662 0.53392 0.41054 0.0
O720 O 0.41511 0.92295 0.61272 0.0
Mg721 Mg 0.37814 0.93453 0.58848 0.0
O722 O 0.44538 0.93634 0.57709 0.0
Mg723 Mg 0.42292 0.94849 0.53188 0.0
O724 O 0.37563 0.95973 0.55089 0.0
O725 O 0.39383 0.98025 0.59305 0.0
O726 O 0.40325 0.95805 0.48264 0.0
O727 O 0.43569 0.99769 0.54497 0.0
Mg728 Mg 0.46875 0.97396 0.50078 0.0
O729 O 0.47112 0.93255 0.51604 0.0
O730 O 0.44265 0.97997 0.46278 0.0
O731 O 0.48094 0.00875 0.5304 0.0
O732 O 0.50574 0.95594 0.48827 0.0
C733 C 0.386 0.88637 0.53605 0.0
C734 C 0.44101 0.92733 0.60324 0.0
C735 C 0.37215 0.97702 0.57395 0.0
C736 C 0.41573 0.97012 0.4604 0.0
C737 C 0.45888 0.0152 0.54514 0.0
C738 C 0.49692 0.93347 0.50311 0.0
O739 O 0.3734 0.89599 0.55916 0.0
O740 O 0.40581 0.90147 0.5226 0.0
O741 O 0.56596 0.57259 0.64076 0.0
Mg742 Mg 0.57632 0.5806 0.59673 0.0
O743 O 0.52898 0.58488 0.61276 0.0
Mg744 Mg 0.544 0.55734 0.56714 0.0
O745 O 0.5939 0.54482 0.57839 0.0
O746 O 0.62123 0.58518 0.59531 0.0
O747 O 0.56108 0.53285 0.52173 0.0
O748 O 0.53064 0.51458 0.59181 0.0
Mg749 Mg 0.50964 0.53266 0.53373 0.0
O750 O 0.49328 0.56802 0.55572 0.0
O751 O 0.52437 0.5421 0.49169 0.0
O752 O 0.51802 0.49062 0.54975 0.0
O753 O 0.46552 0.5317 0.53032 0.0
C754 C 0.56695 0.62355 0.55596 0.0
C755 C 0.54169 0.58452 0.63877 0.0
C756 C 0.61958 0.55818 0.58564 0.0
C757 C 0.55061 0.53487 0.49503 0.0
C758 C 0.52437 0.49026 0.57735 0.0
C759 C 0.46759 0.55687 0.54471 0.0
O760 O 0.56838 0.62384 0.584 0.0
O761 O 0.55987 0.59908 0.54215 0.0
O762 O 0.63156 0.45984 0.9421 0.0
Mg763 Mg 0.60264 0.42359 0.94939 0.0
O764 O 0.59396 0.48798 0.94059 0.0
Mg765 Mg 0.54857 0.46802 0.95676 0.0
O766 O 0.56245 0.42085 0.97009 0.0
O767 O 0.60303 0.43198 -0.00315 0.0
O768 O 0.49975 0.4491 0.96855 0.0
O769 O 0.56157 0.48196 0.00591 0.0
Mg770 Mg 0.51528 0.5149 0.98074 0.0
O771 O 0.53566 0.51528 0.94073 0.0
O772 O 0.47649 0.48836 0.98215 0.0
O773 O 0.54046 0.5221 0.02006 0.0
O774 O 0.50908 0.55167 0.95947 0.0
C775 C 0.55379 0.43193 0.89607 0.0
C776 C 0.6213 0.4842 0.93685 0.0
C777 C 0.58021 0.4142 0.99151 0.0
C778 C 0.47617 0.46094 0.97657 0.0
C779 C 0.55745 0.50202 0.0256 0.0
C780 C 0.52493 0.54116 0.93865 0.0
O781 O 0.57617 0.42041 0.90791 0.0
O782 O 0.5393 0.45098 0.90975 0.0
O783 O 0.44445 0.14717 0.91138 0.0
Mg784 Mg 0.44084 0.10458 0.89371 0.0
O785 O 0.44171 0.11654 0.94752 0.0
Mg786 Mg 0.46628 0.07409 0.92563 0.0
O787 O 0.48111 0.09377 0.87765 0.0
O788 O 0.44315 0.10779 0.84912 0.0
O789 O 0.49132 0.03098 0.90492 0.0
O790 O 0.50926 0.09834 0.94471 0.0
Mg791 Mg 0.48416 0.0374 0.95833 0.0
O792 O 0.45033 0.05984 0.97443 0.0
O793 O 0.47304 0.99775 0.93429 0.0
O794 O 0.52811 0.05747 0.95758 0.0
O795 O 0.47822 0.03107 0.00196 0.0
C796 C 0.39969 0.05596 0.90086 0.0
C797 C 0.43946 0.14268 0.93832 0.0
C798 C 0.47086 0.10322 0.85235 0.0
C799 C 0.48596 0.00361 0.91056 0.0
C800 C 0.53123 0.08497 0.95419 0.0
C801 C 0.45664 0.04799 -0.00032 0.0
O802 O 0.39819 0.08315 0.89797 0.0
O803 O 0.42461 0.04638 0.9072 0.0
H804 H 0.99083 0.12961 0.33735 0.0
H805 H 0.07807 0.1495 0.37921 0.0
H806 H 0.07808 0.09938 0.3964 0.0
H807 H 0.0507 0.05186 0.40531 0.0
H808 H 0.9619 0.03363 0.3676 0.0
H809 H 0.96516 0.08069 0.34279 0.0
C810 C 0.00981 0.12309 0.35037 0.0
C811 C 0.03424 0.14364 0.35719 0.0
C812 C 0.00948 0.09426 0.36075 0.0
C813 C 0.05894 0.13433 0.37342 0.0
C814 C 0.05898 0.10559 0.38339 0.0
C815 C 0.03266 0.05774 0.39058 0.0
C816 C 0.0064 0.03915 0.38759 0.0
C817 C 0.03414 0.08555 0.37775 0.0
C818 C 0.98262 0.04735 0.36946 0.0
C819 C 0.9843 0.07447 0.35573 0.0
H820 H 0.97163 0.34462 0.37175 0.0
H821 H 0.04271 0.37689 0.31695 0.0
H822 H 0.03416 0.42782 0.333 0.0
H823 H 0.00655 0.46321 0.36462 0.0
H824 H 0.92862 0.42922 0.40901 0.0
H825 H 0.93769 0.37916 0.3924 0.0
C826 C 0.98423 0.36264 0.36174 0.0
C827 C 0.00715 0.35656 0.34226 0.0
C828 C 0.97735 0.39181 0.36864 0.0
C829 C 0.02476 0.38067 0.33185 0.0
C830 C 0.01965 0.40989 0.34076 0.0
C831 C 0.99077 0.44501 0.36933 0.0
C832 C 0.96667 0.45013 0.38784 0.0
C833 C 0.99582 0.41584 0.35912 0.0
C834 C 0.94698 0.42603 0.39442 0.0
C835 C 0.95247 0.39726 0.3854 0.0
H836 H 0.04842 0.88749 0.11811 0.0
H837 H 0.01517 0.84399 0.03513 0.0
H838 H 0.01416 0.89164 0.01171 0.0
H839 H 0.01884 0.94523 0.01615 0.0
H840 H 0.05166 0.9899 0.09874 0.0
H841 H 0.05646 0.94206 0.12148 0.0
C842 C 0.04152 0.88862 0.09476 0.0
C843 C 0.03189 0.86264 0.07814 0.0
C844 C 0.04032 0.9161 0.08178 0.0
C845 C 0.02262 0.86395 0.04809 0.0
C846 C 0.0219 0.89108 0.03485 0.0
C847 C 0.02694 0.9445 0.03919 0.0
C848 C 0.03432 0.97084 0.05605 0.0
C849 C 0.02992 0.91723 0.05173 0.0
C850 C 0.04559 0.96975 0.08554 0.0
C851 C 0.04837 0.94249 0.09844 0.0
H852 H 0.9825 0.64593 0.12624 0.0
H853 H 0.03491 0.67925 0.05446 0.0
H854 H 0.02861 0.63097 0.02784 0.0
H855 H 0.00761 0.58022 0.02486 0.0
H856 H 0.95309 0.54676 0.09539 0.0
H857 H 0.96046 0.59458 0.12274 0.0
C858 C 0.99269 0.64232 0.10488 0.0
C859 C 0.00962 0.66551 0.09236 0.0
C860 C 0.98836 0.61484 0.08955 0.0
C861 C 0.02234 0.66126 0.06453 0.0
C862 C 0.01856 0.63386 0.04934 0.0
C863 C -0.00268 0.58327 0.04624 0.0
C864 C 0.97993 0.55999 0.05816 0.0
C865 C 0.00154 0.61061 0.06162 0.0
C866 C 0.96669 0.56436 0.08582 0.0
C867 C 0.9709 0.59164 0.10145 0.0
H868 H 0.41743 0.06206 0.1317 0.0
H869 H 0.34014 0.01034 0.09455 0.0
H870 H 0.35842 0.01582 0.04402 0.0
H871 H 0.39956 0.03018 0.01111 0.0
H872 H 0.47851 0.07827 0.04918 0.0
H873 H 0.45645 0.07995 0.09839 0.0
C874 C 0.40444 0.05245 0.11245 0.0
C875 C 0.37775 0.03555 0.11673 0.0
C876 C 0.41548 0.05504 0.0836 0.0
C877 C 0.36106 0.02306 0.0917 0.0
C878 C 0.37144 0.02625 0.06284 0.0
C879 C 0.4114 0.04173 0.03009 0.0
C880 C 0.44033 0.0544 0.02675 0.0
C881 C 0.39905 0.04146 0.05857 0.0
C882 C 0.456 0.0687 0.05143 0.0
C883 C 0.44351 0.06945 0.07955 0.0
H884 H 0.57665 0.49372 0.16365 0.0
H885 H 0.6604 0.46305 0.13703 0.0
H886 H 0.64425 0.46361 0.08402 0.0
H887 H 0.60798 0.47864 0.04568 0.0
H888 H 0.52768 0.51619 0.0744 0.0
H889 H 0.54091 0.50795 0.12625 0.0
C890 C 0.59103 0.48681 0.14608 0.0
C891 C 0.61952 0.4788 0.15353 0.0
C892 C 0.58251 0.48926 0.1162 0.0
C893 C 0.63831 0.46951 0.1312 0.0
C894 C 0.62923 0.47014 0.10112 0.0
C895 C 0.59361 0.48508 0.06342 0.0
C896 C 0.56728 0.49849 0.05654 0.0
C897 C 0.60177 0.48106 0.09337 0.0
C898 C 0.54849 0.50655 0.07942 0.0
C899 C 0.5558 0.50153 0.10899 0.0
H900 H 0.39519 0.97381 0.32163 0.0
H901 H 0.31314 0.00957 0.34633 0.0
H902 H 0.325 0.0021 0.39942 0.0
H903 H 0.36093 0.98746 0.43935 0.0
H904 H 0.44139 0.94949 0.41199 0.0
H905 H 0.42744 0.95455 0.35975 0.0
C906 C 0.37957 0.9793 0.33858 0.0
C907 C 0.35318 0.99176 0.3301 0.0
C908 C 0.38622 0.97433 0.36876 0.0
C909 C 0.33359 -0.00026 0.3524 0.0
C910 C 0.34033 0.99538 0.38272 0.0
C911 C 0.3749 0.97967 0.42186 0.0
C912 C 0.40227 0.96827 0.42961 0.0
C913 C 0.3668 0.98285 0.39131 0.0
C914 C 0.42031 0.95852 0.40666 0.0
C915 C 0.41247 0.96153 0.3767 0.0
H916 H 0.62973 0.4927 0.38896 0.0
H917 H 0.56353 0.53649 0.33887 0.0
H918 H 0.5396 0.54972 0.38494 0.0
H919 H 0.53694 0.54879 0.4388 0.0
H920 H 0.60187 0.50518 0.49055 0.0
H921 H 0.6269 0.49189 0.44441 0.0
C922 C 0.60986 0.50483 0.38819 0.0
C923 C 0.59846 0.51363 0.36047 0.0
C924 C 0.59609 0.51247 0.41497 0.0
C925 C 0.57296 0.52972 0.35985 0.0
C926 C 0.55919 0.53724 0.38619 0.0
C927 C 0.55658 0.53633 0.44014 0.0
C928 C 0.56744 0.52785 0.46807 0.0
C929 C 0.57057 0.52879 0.41377 0.0
C930 C 0.59311 0.51204 0.46932 0.0
C931 C 0.6073 0.50434 0.44294 0.0
H932 H 0.1394 0.40136 0.97816 0.0
H933 H 0.13768 0.38611 0.07289 0.0
H934 H 0.08847 0.40529 0.07464 0.0
H935 H 0.04625 0.42863 0.04891 0.0
H936 H 0.04787 0.43643 0.95319 0.0
H937 H 0.09583 0.41539 0.95202 0.0
C938 C 0.12834 0.40082 -0.00077 0.0
C939 C 0.14302 0.39187 0.02526 0.0
C940 C 0.0994 0.41012 -0.00016 0.0
C941 C 0.1278 0.39333 0.05235 0.0
C942 C 0.09925 0.40393 0.05337 0.0
C943 C 0.05675 0.42477 0.0278 0.0
C944 C 0.04368 0.43431 0.00118 0.0
C945 C 0.08481 0.41258 0.0272 0.0
C946 C 0.05763 0.42948 0.97398 0.0
C947 C 0.08519 0.41768 0.9733 0.0
H948 H 0.12361 0.64814 0.47307 0.0
H949 H 0.15654 0.57905 0.52539 0.0
H950 H 0.10937 0.54943 0.51659 0.0
H951 H 0.05997 0.54314 0.4937 0.0
H952 H 0.02704 0.61021 0.43827 0.0
H953 H 0.07376 0.64069 0.44791 0.0
C954 C 0.12018 0.62661 0.48254 0.0
C955 C 0.14288 0.61575 0.50031 0.0
C956 C 0.0935 0.60944 0.47653 0.0
C957 C 0.13889 0.5878 0.51218 0.0
C958 C 0.11215 0.57091 0.50697 0.0
C959 C 0.06281 0.56445 0.4837 0.0
C960 C 0.03996 0.57456 0.4656 0.0
C961 C 0.08944 0.58152 0.48915 0.0
C962 C 0.04427 0.60206 0.4525 0.0
C963 C 0.07089 0.61946 0.45803 0.0
H964 H 0.85713 0.84155 0.49301 0.0
H965 H 0.80148 0.90623 0.45786 0.0
H966 H 0.84512 0.93382 0.43925 0.0
H967 H 0.89872 0.94032 0.43413 0.0
H968 H 0.95595 0.87773 0.47066 0.0
H969 H 0.91216 0.84825 0.48749 0.0
C970 C 0.8548 0.86177 0.48137 0.0
C971 C 0.82628 0.87186 0.47648 0.0
C972 C 0.88012 0.87763 0.47089 0.0
C973 C 0.82327 0.89812 0.46163 0.0
C974 C 0.84815 0.91377 0.45094 0.0
C975 C 0.9016 0.92 0.44545 0.0
C976 C 0.93039 0.91104 0.45098 0.0
C977 C 0.87659 0.90375 0.45546 0.0
C978 C 0.9339 0.88472 0.46566 0.0
C979 C 0.90891 0.86812 0.47558 0.0
H980 H 0.36023 0.63808 0.56075 0.0
H981 H 0.32206 0.57558 0.49243 0.0
H982 H 0.36731 0.54951 0.49314 0.0
H983 H 0.41714 0.54473 0.51206 0.0
H984 H 0.45756 0.60619 0.5801 0.0
H985 H 0.41171 0.63252 0.58078 0.0
C986 C 0.36181 0.61849 0.54642 0.0
C987 C 0.33795 0.6087 0.52653 0.0
C988 C 0.3881 0.60358 0.54683 0.0
C989 C 0.34026 0.5836 0.50771 0.0
C990 C 0.36606 0.56867 0.50813 0.0
C991 C 0.41603 0.56373 0.52734 0.0
C992 C 0.44059 0.57334 0.54622 0.0
C993 C 0.39005 0.57855 0.52744 0.0
C994 C 0.43885 0.59834 0.56539 0.0
C995 C 0.41267 0.61332 0.56579 0.0
H996 H 0.51017 0.64526 0.85673 0.0
H997 H 0.59262 0.6763 0.90307 0.0
H998 H 0.59666 0.62776 0.9238 0.0
H999 H 0.57298 0.57892 0.93448 0.0
H1000 H 0.48931 0.54902 0.89047 0.0
H1001 H 0.48976 0.5942 0.86249 0.0
C1002 C 0.52909 0.64135 0.87128 0.0
C1003 C 0.55079 0.66456 0.87877 0.0
C1004 C 0.53117 0.61342 0.88326 0.0
C1005 C 0.57554 0.65891 0.89704 0.0
C1006 C 0.57785 0.63114 0.90893 0.0
C1007 C 0.55565 0.58179 0.91766 0.0
C1008 C 0.53151 0.56052 0.9139 0.0
C1009 C 0.55542 0.60846 0.90281 0.0
C1010 C 0.50852 0.56479 0.89297 0.0
C1011 C 0.50851 0.59088 0.87745 0.0
H1012 H 0.54564 0.88468 0.89092 0.0
H1013 H 0.48343 0.8748 0.81546 0.0
H1014 H 0.46813 0.92474 0.82581 0.0
H1015 H 0.46973 0.97012 0.85924 0.0
H1016 H 0.53512 0.98076 0.9319 0.0
H1017 H 0.55298 0.93258 0.91885 0.0
C1018 C 0.52972 0.89384 0.8759 0.0
C1019 C 0.51615 0.87603 0.85207 0.0
C1020 C 0.52169 0.923 0.88142 0.0
C1021 C 0.49436 0.88802 0.83387 0.0
C1022 C 0.48562 0.91664 0.83976 0.0
C1023 C 0.48865 0.96234 0.87138 0.0
C1024 C 0.50149 0.97932 0.89617 0.0
C1025 C 0.49883 0.93429 0.86376 0.0
C1026 C 0.52534 0.96844 0.91234 0.0
C1027 C 0.53531 0.94067 0.90512 0.0
H1028 H 0.51697 0.37494 0.65173 0.0
H1029 H 0.5442 0.33793 0.56772 0.0
H1030 H 0.547 0.38691 0.54672 0.0
H1031 H 0.53909 0.43942 0.55146 0.0
H1032 H 0.51251 0.4775 0.63532 0.0
H1033 H 0.51187 0.42887 0.65741 0.0
C1034 C 0.52373 0.37787 0.62893 0.0
C1035 C 0.53053 0.35324 0.61116 0.0
C1036 C 0.52508 0.40604 0.61705 0.0
C1037 C 0.53913 0.35683 0.58166 0.0
C1038 C 0.54059 0.38471 0.5697 0.0
C1039 C 0.53319 0.43706 0.5746 0.0
C1040 C 0.52551 0.46176 0.59171 0.0
C1041 C 0.53318 0.40933 0.58704 0.0
C1042 C 0.51846 0.45866 0.62179 0.0
C1043 C 0.51803 0.43092 0.63434 0.0
H1044 H 0.45441 0.14849 0.57772 0.0
H1045 H 0.54164 0.13482 0.61581 0.0
H1046 H 0.53439 0.08253 0.60218 0.0
H1047 H 0.50408 0.04118 0.57817 0.0
H1048 H 0.41529 0.0534 0.5445 0.0
H1049 H 0.42154 0.10594 0.55975 0.0
C1050 C 0.4717 0.13411 0.58353 0.0
C1051 C 0.49871 0.14574 0.59734 0.0
C1052 C 0.46684 0.10386 0.57711 0.0
C1053 C 0.52103 0.12671 0.6042 0.0
C1054 C 0.51673 0.09671 0.59696 0.0
C1055 C 0.486 0.05538 0.57473 0.0
C1056 C 0.45954 0.04412 0.56008 0.0
C1057 C 0.48984 0.08517 0.5833 0.0
C1058 C 0.43585 0.06206 0.5559 0.0
C1059 C 0.43956 0.09199 0.56423 0.0
H1060 H 0.84374 0.50109 0.59981 0.0
H1061 H 0.91465 0.56008 0.64018 0.0
H1062 H 0.93484 0.56826 0.59131 0.0
H1063 H 0.9374 0.55234 0.5389 0.0
H1064 H 0.87153 0.48795 0.49949 0.0
H1065 H 0.84374 0.48871 0.54573 0.0
C1066 C 0.86365 0.51567 0.59792 0.0
C1067 C 0.8778 0.52963 0.62376 0.0
C1068 C 0.87581 0.51956 0.56977 0.0
C1069 C 0.90312 0.54912 0.62077 0.0
C1070 C 0.9148 0.55379 0.59279 0.0
C1071 C 0.91619 0.53956 0.54014 0.0
C1072 C 0.90605 0.52049 0.51607 0.0
C1073 C 0.90185 0.53847 0.56734 0.0
C1074 C 0.87917 0.50326 0.51776 0.0
C1075 C 0.86372 0.50328 0.54435 0.0
H1076 H 0.12669 0.98758 0.60371 0.0
H1077 H 0.04656 0.96126 0.64872 0.0
H1078 H 0.01857 0.95619 0.60057 0.0
H1079 H 0.01657 0.96349 0.54635 0.0
H1080 H 0.09734 0.98707 0.5012 0.0
H1081 H 0.12585 0.9893 0.54898 0.0
C1082 C 0.10311 0.98058 0.60278 0.0
C1083 C 0.08829 0.97538 0.62931 0.0
C1084 C 0.08748 0.97767 0.57528 0.0
C1085 C 0.05806 0.96563 0.6283 0.0
C1086 C 0.04216 0.96288 0.60093 0.0
C1087 C 0.04041 0.96909 0.5472 0.0
C1088 C 0.055 0.97586 0.52093 0.0
C1089 C 0.05653 0.96961 0.57443 0.0
C1090 C 0.08591 0.98223 0.52156 0.0
C1091 C 0.10208 0.98345 0.54871 0.0
H1092 H 0.84018 0.51164 0.85933 0.0
H1093 H 0.90687 0.47247 0.80686 0.0
H1094 H 0.93316 0.45931 0.85237 0.0
H1095 H 0.93836 0.4606 0.90629 0.0
H1096 H 0.87525 0.50315 0.96058 0.0
H1097 H 0.8459 0.51315 0.91515 0.0
C1098 C 0.86054 0.50033 0.85813 0.0
C1099 C 0.87155 0.49259 0.83002 0.0
C1100 C 0.87591 0.49339 0.88451 0.0
C1101 C 0.89802 0.47827 0.82837 0.0
C1102 C 0.91295 0.47073 0.85429 0.0
C1103 C 0.91802 0.47189 0.90827 0.0
C1104 C 0.90892 0.48119 0.9366 0.0
C1105 C 0.90217 0.4783 0.88236 0.0
C1106 C 0.88243 0.49549 0.93894 0.0
C1107 C 0.86593 0.50148 0.91299 0.0
H1108 H 0.08943 0.02643 0.81997 0.0
H1109 H 0.17592 0.00822 0.85491 0.0
H1110 H 0.16005 0.01781 0.90635 0.0
H1111 H 0.12 0.02999 0.94164 0.0
H1112 H 0.03418 0.04865 0.90389 0.0
H1113 H 0.05134 0.04074 0.85386 0.0
C1114 C 0.10477 0.02473 0.83892 0.0
C1115 C 0.13366 0.01672 0.83389 0.0
C1116 C 0.09558 0.03045 0.8681 0.0
C1117 C 0.15345 0.01435 0.85846 0.0
C1118 C 0.1444 0.01992 0.8878 0.0
C1119 C 0.10532 0.03267 0.92243 0.0
C1120 C 0.07569 0.03956 0.92679 0.0
C1121 C 0.11533 0.02787 0.89301 0.0
C1122 C 0.05695 0.04291 0.90147 0.0
C1123 C 0.06669 0.03841 0.87265 0.0
H1124 H 0.60497 0.85836 0.47982 0.0
H1125 H 0.63219 0.89704 0.56716 0.0
H1126 H 0.58329 0.91536 0.57254 0.0
H1127 H 0.53461 0.92628 0.55012 0.0
H1128 H 0.50968 0.89264 0.46095 0.0
H1129 H 0.55563 0.86709 0.45852 0.0
C1130 C 0.60062 0.87108 0.49998 0.0
C1131 C 0.62309 0.87625 0.52283 0.0
C1132 C 0.57246 0.88259 0.50268 0.0
C1133 C 0.61588 0.8921 0.54908 0.0
C1134 C 0.58772 0.90292 0.5522 0.0
C1135 C 0.53872 0.91226 0.53073 0.0
C1136 C 0.51824 0.91042 0.50615 0.0
C1137 C 0.566 0.89883 0.52895 0.0
C1138 C 0.52452 0.89341 0.48056 0.0
C1139 C 0.55109 0.87925 0.47899 0.0
H1140 H 0.6409 0.17075 -0.00106 0.0
H1141 H 0.68193 0.08828 0.00296 0.0
H1142 H 0.63499 0.06137 0.98559 0.0
H1143 H 0.58327 0.0619 0.96771 0.0
H1144 H 0.54231 0.14466 0.96236 0.0
H1145 H 0.58854 0.17121 0.98155 0.0
C1146 C 0.63911 0.14683 -0.00338 0.0
C1147 C 0.66411 0.13115 0.0027 0.0
C1148 C 0.61247 0.13183 0.98596 0.0
C1149 C 0.66241 0.10037 -0.001 0.0
C1150 C 0.63582 0.08517 0.98878 0.0
C1151 C 0.58444 0.08575 0.97071 0.0
C1152 C 0.55951 0.10133 0.9636 0.0
C1153 C 0.61087 0.10074 0.98187 0.0
C1154 C 0.56135 0.13223 0.96744 0.0
C1155 C 0.58765 0.14738 0.97861 0.0
H1156 H 0.3412 0.42097 0.98483 0.0
H1157 H 0.37604 0.34576 0.02518 0.0
H1158 H 0.42727 0.36603 0.01756 0.0
H1159 H 0.46207 0.40621 -0.00088 0.0
H1160 H 0.42471 0.47916 0.95612 0.0
H1161 H 0.37465 0.45811 0.96365 0.0
C1162 C 0.36007 0.40886 0.99152 0.0
C1163 C 0.35514 0.38182 0.00493 0.0
C1164 C 0.389 0.42004 0.98607 0.0
C1165 C 0.37958 0.36659 0.01445 0.0
C1166 C 0.40875 0.37808 0.00994 0.0
C1167 C 0.4429 0.41702 0.99093 0.0
C1168 C 0.44699 0.44424 0.97723 0.0
C1169 C 0.41378 0.4048 0.99553 0.0
C1170 C 0.42204 0.45828 0.96695 0.0
C1171 C 0.39339 0.44638 0.97135 0.0
H1172 H 0.88577 0.164 0.00018 0.0
H1173 H 0.84918 0.10383 0.0639 0.0
H1174 H 0.8967 0.08151 0.06841 0.0
H1175 H 0.94574 0.07426 0.0486 0.0
H1176 H 0.98148 0.13151 0.98229 0.0
H1177 H 0.93766 0.16056 0.98495 0.0
C1178 C 0.88831 0.14605 0.01508 0.0
C1179 C 0.8639 0.13517 0.03125 0.0
C1180 C 0.91562 0.1331 0.01731 0.0
C1181 C 0.86761 0.11246 0.05111 0.0
C1182 C 0.89475 0.09969 0.0537 0.0
C1183 C 0.94436 0.09388 0.03572 0.0
C1184 C 0.96665 0.1012 0.01562 0.0
C1185 C 0.91857 0.10928 0.03629 0.0
C1186 C 0.96468 0.12605 -0.00164 0.0
C1187 C 0.93943 0.14224 -0.00049 0.0
H1188 H 0.02198 0.2023 0.17703 0.0
H1189 H 0.08343 0.1678 0.24014 0.0
H1190 H 0.08823 0.12479 0.20649 0.0
H1191 H 0.07356 0.09621 0.16017 0.0
H1192 H 0.00953 0.12889 0.09818 0.0
H1193 H 0.00555 0.1724 0.13133 0.0
C1194 C 0.03665 0.18544 0.18316 0.0
C1195 C 0.05262 0.18836 0.21085 0.0
C1196 C 0.03786 0.15991 0.16453 0.0
C1197 C 0.07135 0.16632 0.21874 0.0
C1198 C 0.07367 0.14149 0.19975 0.0
C1199 C 0.05826 0.11252 0.15406 0.0
C1200 C 0.04181 0.10909 0.12661 0.0
C1201 C 0.05659 0.13779 0.17287 0.0
C1202 C 0.02228 0.13069 0.1192 0.0
C1203 C 0.02032 0.15584 0.13796 0.0
H1204 H 0.04023 0.35389 0.17124 0.0
H1205 H 0.98769 0.38354 0.24379 0.0
H1206 H 0.96972 0.42261 0.21353 0.0
H1207 H 0.96211 0.44183 0.16416 0.0
H1208 H 0.01122 0.41003 0.08989 0.0
H1209 H 0.03836 0.37902 0.12314 0.0
C1210 C 0.02551 0.36953 0.18046 0.0
C1211 C 0.01491 0.36608 0.20931 0.0
C1212 C 0.01468 0.39136 0.16261 0.0
C1213 C 0.99579 0.38604 0.22142 0.0
C1214 C 0.98555 0.40823 0.20417 0.0
C1215 C 0.97945 0.4288 0.1555 0.0
C1216 C 0.98452 0.42786 0.12476 0.0
C1217 C 0.99384 0.41022 0.17439 0.0
C1218 C 0.00712 0.41116 0.11361 0.0
C1219 C 0.02229 0.39312 0.13253 0.0
H1220 H 0.02981 0.86731 0.23258 0.0
H1221 H 0.98267 0.78839 0.26188 0.0
H1222 H 0.97008 0.81434 0.308 0.0
H1223 H 0.97323 0.85854 0.34026 0.0
H1224 H 0.02464 0.93672 0.31485 0.0
H1225 H 0.03404 0.91244 0.26652 0.0
C1226 C 0.0172 0.85589 0.2494 0.0
C1227 C 0.00724 0.82604 0.2442 0.0
C1228 C 0.01026 0.87096 0.2761 0.0
C1229 C 0.99066 0.81132 0.26576 0.0
C1230 C 0.98325 0.8262 0.29191 0.0
C1231 C 0.98606 0.87056 0.32399 0.0
C1232 C -0.00201 0.89948 0.33118 0.0
C1233 C 0.9928 0.85598 0.29723 0.0
C1234 C 0.01469 0.91461 0.30977 0.0
C1235 C 0.02052 0.90055 0.28232 0.0
H1236 H 0.94924 0.65047 0.2527 0.0
H1237 H 0.04408 0.6424 0.24692 0.0
H1238 H 0.0428 0.6093 0.28791 0.0
H1239 H 0.01599 0.58972 0.33126 0.0
H1240 H 0.92046 0.59037 0.3309 0.0
H1241 H 0.92074 0.61815 0.28555 0.0
C1242 C 0.96966 0.64102 0.25945 0.0
C1243 C -0.00295 0.65097 0.24755 0.0
C1244 C 0.96867 0.62025 0.28197 0.0
C1245 C 0.02285 0.63736 0.25685 0.0
C1246 C 0.02218 0.61776 0.28007 0.0
C1247 C 0.99516 0.59424 0.32011 0.0
C1248 C 0.96828 0.58806 0.33432 0.0
C1249 C 0.99541 0.61002 0.29368 0.0
C1250 C 0.9414 0.59443 0.31994 0.0
C1251 C 0.94159 0.61099 0.29437 0.0
H1252 H 0.25669 0.04098 0.11963 0.0
H1253 H 0.1966 0.00346 0.18313 0.0
H1254 H 0.1542 0.00842 0.14846 0.0
H1255 H 0.13401 0.0283 0.1027 0.0
H1256 H 0.19299 0.07137 0.04171 0.0
H1257 H 0.23628 0.05808 0.07166 0.0
C1258 C 0.23426 0.03383 0.12561 0.0
C1259 C 0.22945 0.02219 0.15382 0.0
C1260 C 0.21002 0.03707 0.10564 0.0
C1261 C 0.20052 0.0127 0.16155 0.0
C1262 C 0.17642 0.01537 0.14169 0.0
C1263 C 0.15642 0.03346 0.09525 0.0
C1264 C 0.16048 0.04984 0.06956 0.0
C1265 C 0.18086 0.0279 0.11388 0.0
C1266 C 0.18947 0.05781 0.06082 0.0
C1267 C 0.21413 0.05082 0.07835 0.0
H1268 H 0.80236 0.47185 0.17185 0.0
H1269 H 0.73864 0.51007 0.1141 0.0
H1270 H 0.77502 0.51359 0.07455 0.0
H1271 H 0.82582 0.50662 0.05669 0.0
H1272 H 0.89063 0.47362 0.11729 0.0
H1273 H 0.85332 0.467 0.15502 0.0
C1274 C 0.79641 0.48055 0.15043 0.0
C1275 C 0.76782 0.49031 0.14569 0.0
C1276 C 0.81775 0.4834 0.1282 0.0
C1277 C 0.76051 0.50221 0.11811 0.0
C1278 C 0.78133 0.50434 0.09556 0.0
C1279 C 0.83168 0.498 0.07817 0.0
C1280 C 0.86061 0.48918 0.08348 0.0
C1281 C 0.81018 0.49524 0.10041 0.0
C1282 C 0.8681 0.47885 0.11181 0.0
C1283 C 0.84683 0.47546 0.13366 0.0
H1284 H 0.20907 0.00809 0.34813 0.0
H1285 H 0.17741 0.96641 0.26368 0.0
H1286 H 0.12992 0.95139 0.28505 0.0
H1287 H 0.09916 0.94649 0.32836 0.0
H1288 H 0.1294 0.9877 0.41341 0.0
H1289 H 0.17569 0.00674 0.39128 0.0
C1290 C 0.1915 0.99611 0.33448 0.0
C1291 C 0.19663 0.9879 0.30462 0.0
C1292 C 0.16427 0.98726 0.34704 0.0
C1293 C 0.17391 0.97245 0.2869 0.0
C1294 C 0.14683 0.9639 0.29906 0.0
C1295 C 0.11584 0.95977 0.34201 0.0
C1296 C 0.11123 0.96539 0.37243 0.0
C1297 C 0.14208 0.97052 0.32923 0.0
C1298 C 0.13264 0.98308 0.38985 0.0
C1299 C 0.15908 0.99386 0.37726 0.0
H1300 H 0.74832 0.50488 0.36007 0.0
H1301 H 0.78405 0.5132 0.27243 0.0
H1302 H 0.83405 0.52501 0.29455 0.0
H1303 H 0.86592 0.53812 0.33863 0.0
H1304 H 0.83142 0.5301 0.42674 0.0
H1305 H 0.78217 0.51253 0.40491 0.0
C1306 C 0.76732 0.50892 0.34611 0.0
C1307 C 0.76323 0.50862 0.315 0.0
C1308 C 0.79572 0.51587 0.35901 0.0
C1309 C 0.78736 0.51365 0.29654 0.0
C1310 C 0.81568 0.52037 0.30911 0.0
C1311 C 0.84754 0.53225 0.35288 0.0
C1312 C 0.85138 0.53589 0.38384 0.0
C1313 C 0.81987 0.52237 0.34025 0.0
C1314 C 0.82823 0.52768 0.40265 0.0
C1315 C 0.8003 0.51775 0.39022 0.0
H1316 H 0.14553 0.26055 0.01105 0.0
H1317 H 0.21872 0.21704 0.0496 0.0
H1318 H 0.18698 0.17142 0.05212 0.0
H1319 H 0.13924 0.14415 0.04283 0.0
H1320 H 0.06481 0.18604 0.00498 0.0
H1321 H 0.09662 0.23215 0.00101 0.0
C1322 C 0.15425 0.24096 0.02002 0.0
C1323 C 0.1842 0.24174 0.03014 0.0
C1324 C 0.13606 0.21468 0.02062 0.0
C1325 C 0.19565 0.21663 0.04184 0.0
C1326 C 0.17766 0.19064 0.04301 0.0
C1327 C 0.13015 0.16334 0.03329 0.0
C1328 C 0.10014 0.16205 0.02385 0.0
C1329 C 0.14806 0.18941 0.03217 0.0
C1330 C 0.08813 0.18675 0.01185 0.0
C1331 C 0.10617 0.21302 0.01001 0.0
H1332 H 0.15183 0.81256 0.5118 0.0
H1333 H 0.10073 0.73611 0.47259 0.0
H1334 H 0.06268 0.76724 0.45419 0.0
H1335 H 0.04857 0.81636 0.44216 0.0
H1336 H 0.09999 0.89357 0.47901 0.0
H1337 H 0.13313 0.86222 0.50589 0.0
C1338 C 0.13191 0.80283 0.49994 0.0
C1339 C 0.12898 0.77227 0.49325 0.0
C1340 C 0.11047 0.82102 0.48876 0.0
C1341 C 0.10334 0.75967 0.47772 0.0
C1342 C 0.08169 0.77744 0.46715 0.0
C1343 C 0.06653 0.82628 0.45682 0.0
C1344 C 0.07204 0.85706 0.4586 0.0
C1345 C 0.08567 0.80817 0.47148 0.0
C1346 C 0.09526 0.86985 0.47759 0.0
C1347 C 0.11436 0.85192 0.49264 0.0
H1348 H 0.86228 0.72189 0.51502 0.0
H1349 H 0.78433 0.67467 0.47329 0.0
H1350 H 0.81291 0.63223 0.46235 0.0
H1351 H 0.86155 0.6108 0.45863 0.0
H1352 H 0.94008 0.65876 0.49756 0.0
H1353 H 0.90995 0.69776 0.51648 0.0
C1354 C 0.85141 0.70211 0.50406 0.0
C1355 C 0.8212 0.70189 0.4945 0.0
C1356 C 0.86818 0.67759 0.49752 0.0
C1357 C 0.80766 0.67592 0.48026 0.0
C1358 C 0.82398 0.65145 0.47414 0.0
C1359 C 0.87182 0.62912 0.47249 0.0
C1360 C 0.90297 0.63142 0.47748 0.0
C1361 C 0.85445 0.65226 0.48192 0.0
C1362 C 0.9161 0.65603 0.49423 0.0
C1363 C 0.89888 0.67861 0.50459 0.0
H1364 H 0.29055 0.78932 0.49661 0.0
H1365 H 0.349 0.73551 0.54476 0.0
H1366 H 0.38685 0.77735 0.55066 0.0
H1367 H 0.39974 0.831 0.54668 0.0
H1368 H 0.34116 0.88273 0.49597 0.0
H1369 H 0.30695 0.83934 0.48509 0.0
C1370 C 0.31188 0.78671 0.50783 0.0
C1371 C 0.31731 0.75997 0.52045 0.0
C1372 C 0.33336 0.81017 0.51019 0.0
C1373 C 0.34467 0.75635 0.53517 0.0
C1374 C 0.36617 0.78006 0.53836 0.0
C1375 C 0.38008 0.8322 0.53224 0.0
C1376 C 0.37265 0.85941 0.52181 0.0
C1377 C 0.36041 0.80728 0.52648 0.0
C1378 C 0.34712 0.86154 0.50362 0.0
C1379 C 0.32748 0.83697 0.49781 0.0
H1380 H 0.5504 0.66924 0.75321 0.0
H1381 H 0.50485 0.72487 0.69422 0.0
H1382 H 0.50078 0.68528 0.65493 0.0
H1383 H 0.51241 0.63525 0.63686 0.0
H1384 H 0.55755 0.57999 0.69707 0.0
H1385 H 0.55917 0.61865 0.73642 0.0
C1386 C 0.53984 0.67262 0.73161 0.0
C1387 C 0.52848 0.69988 0.72617 0.0
C1388 C 0.53713 0.64966 0.70953 0.0
C1389 C 0.51425 0.70409 0.69847 0.0
C1390 C 0.5117 0.68141 0.6762 0.0
C1391 C 0.52169 0.63134 0.65889 0.0
C1392 C 0.5346 0.6046 0.66403 0.0
C1393 C 0.52311 0.65404 0.68144 0.0
C1394 C 0.54717 0.60021 0.69257 0.0
C1395 C 0.54844 0.62245 0.71503 0.0
H1396 H 0.5187 0.8902 0.71011 0.0
H1397 H 0.48024 0.80514 0.67683 0.0
H1398 H 0.46192 0.82693 0.63148 0.0
H1399 H 0.44986 0.87088 0.60574 0.0
H1400 H 0.48326 0.95686 0.64062 0.0
H1401 H 0.51154 0.93423 0.68047 0.0
C1402 C 0.50689 0.87651 0.69252 0.0
C1403 C 0.50033 0.84633 0.69671 0.0
C1404 C 0.49565 0.88939 0.66691 0.0
C1405 C 0.48503 0.82855 0.67404 0.0
C1406 C 0.47465 0.84095 0.64817 0.0
C1407 C 0.46427 0.88449 0.6215 0.0
C1408 C 0.46496 0.91522 0.62045 0.0
C1409 C 0.47886 0.87143 0.64495 0.0
C1410 C 0.48298 0.93304 0.64104 0.0
C1411 C 0.49873 0.92011 0.66394 0.0
H1412 H 0.53013 0.39692 0.76038 0.0
H1413 H 0.53411 0.31081 0.7967 0.0
H1414 H 0.53678 0.33252 0.84745 0.0
H1415 H 0.54301 0.37572 0.88075 0.0
H1416 H 0.54149 0.46271 0.84637 0.0
H1417 H 0.53236 0.44118 0.79524 0.0
C1418 C 0.53155 0.38323 0.7796 0.0
C1419 C 0.5327 0.35266 0.77545 0.0
C1420 C 0.53348 0.39593 0.80866 0.0
C1421 C 0.53397 0.33456 0.79995 0.0
C1422 C 0.5353 0.34686 0.82876 0.0
C1423 C 0.5403 0.38986 0.862 0.0
C1424 C 0.54325 0.42041 0.86665 0.0
C1425 C 0.53583 0.37746 0.83326 0.0
C1426 C 0.53925 0.43894 0.84277 0.0
C1427 C 0.53431 0.42668 0.81373 0.0
H1428 H 0.53206 0.20364 0.78109 0.0
H1429 H 0.47784 0.15919 0.70962 0.0
H1430 H 0.46526 0.11814 0.74175 0.0
H1431 H 0.46439 0.09827 0.79208 0.0
H1432 H 0.51911 0.14184 0.8636 0.0
H1433 H 0.53758 0.17926 0.82954 0.0
C1434 C 0.51793 0.18467 0.7725 0.0
C1435 C 0.5055 0.18456 0.74318 0.0
C1436 C 0.51107 0.16091 0.79109 0.0
C1437 C 0.4873 0.15987 0.73222 0.0
C1438 C 0.4802 0.13639 0.75055 0.0
C1439 C 0.48139 0.11521 0.79983 0.0
C1440 C 0.49063 0.11704 0.83024 0.0
C1441 C 0.49133 0.13701 0.78025 0.0
C1442 C 0.51222 0.13945 0.84016 0.0
C1443 C 0.52231 0.16124 0.82078 0.0
H1444 H 0.74578 0.53555 0.6317 0.0
H1445 H 0.69682 0.52444 0.71203 0.0
H1446 H 0.64966 0.52481 0.68331 0.0
H1447 H 0.62308 0.53218 0.6364 0.0
H1448 H 0.67151 0.55078 0.55722 0.0
H1449 H 0.71843 0.54151 0.58361 0.0
C1450 C 0.72466 0.53363 0.64269 0.0
C1451 C 0.72423 0.53075 0.67373 0.0
C1452 C 0.69784 0.53398 0.62604 0.0
C1453 C 0.69717 0.52745 0.68815 0.0
C1454 C 0.67041 0.5272 0.67173 0.0
C1455 C 0.64386 0.53296 0.62469 0.0
C1456 C 0.64419 0.54136 0.59496 0.0
C1457 C 0.67054 0.53062 0.64075 0.0
C1458 C 0.67101 0.54351 0.57996 0.0
C1459 C 0.69774 0.53893 0.59525 0.0
H1460 H 0.24005 0.96519 0.62356 0.0
H1461 H 0.28734 0.00876 0.70009 0.0
H1462 H 0.33328 0.01182 0.67254 0.0
H1463 H 0.36002 0.00281 0.62737 0.0
H1464 H 0.31584 0.95545 0.5511 0.0
H1465 H 0.26858 0.95399 0.57739 0.0
C1466 C 0.26058 0.97494 0.6342 0.0
C1467 C 0.26035 0.98662 0.66399 0.0
C1468 C 0.28727 0.97651 0.61807 0.0
C1469 C 0.28699 0.99951 0.67738 0.0
C1470 C 0.31321 0.00144 0.66153 0.0
C1471 C 0.34014 0.99221 0.61615 0.0
C1472 C 0.34182 0.9794 0.58699 0.0
C1473 C 0.31358 0.99025 0.63187 0.0
C1474 C 0.31545 0.96586 0.57326 0.0
C1475 C 0.28842 0.96472 0.5885 0.0
H1476 H 0.68171 0.51921 0.82122 0.0
H1477 H 0.75927 0.50384 0.87558 0.0
H1478 H 0.72935 0.50219 0.92029 0.0
H1479 H 0.68021 0.49786 0.94194 0.0
H1480 H 0.60203 0.51101 0.88747 0.0
H1481 H 0.63302 0.52206 0.84494 0.0
C1482 C 0.69183 0.51564 0.84298 0.0
C1483 C 0.72218 0.51083 0.84546 0.0
C1484 C 0.67449 0.51477 0.86845 0.0
C1485 C 0.73565 0.50685 0.87349 0.0
C1486 C 0.71866 0.50617 0.89893 0.0
C1487 C 0.67017 0.50444 0.92111 0.0
C1488 C 0.63906 0.50352 0.9177 0.0
C1489 C 0.68795 0.50928 0.8965 0.0
C1490 C 0.62604 0.51195 0.89069 0.0
C1491 C 0.6437 0.51762 0.86617 0.0
H1492 H 0.30662 0.9918 0.81314 0.0
H1493 H 0.24764 0.03808 0.86907 0.0
H1494 H 0.28863 0.05109 0.90575 0.0
H1495 H 0.34271 0.05683 0.91632 0.0
H1496 H 0.40168 0.01258 0.85858 0.0
H1497 H 0.35922 0.99097 0.82789 0.0
C1498 C 0.30275 0.0041 0.83377 0.0
C1499 C 0.2747 0.01437 0.83862 0.0
C1500 C 0.32639 0.01206 0.85402 0.0
C1501 C 0.26946 0.03044 0.86506 0.0
C1502 C 0.29277 0.0378 0.88588 0.0
C1503 C 0.34595 0.04152 0.89768 0.0
C1504 C 0.37483 0.03608 0.88949 0.0
C1505 C 0.32156 0.02983 0.87987 0.0
C1506 C 0.37936 0.0165 0.86534 0.0
C1507 C 0.35519 0.00451 0.84763 0.0
H1508 H 0.67595 0.69965 0.51316 0.0
H1509 H 0.6342 0.76803 0.562 0.0
H1510 H 0.59179 0.73313 0.57182 0.0
H1511 H 0.56789 0.6824 0.56768 0.0
H1512 H 0.60846 0.61563 0.51504 0.0
H1513 H 0.64974 0.65088 0.50455 0.0
C1514 C 0.65752 0.70671 0.52604 0.0
C1515 C 0.65805 0.73593 0.53727 0.0
C1516 C 0.63285 0.68708 0.5302 0.0
C1517 C 0.63419 0.74532 0.55367 0.0
C1518 C 0.60992 0.72555 0.55892 0.0
C1519 C 0.58523 0.67603 0.55298 0.0
C1520 C 0.58496 0.64675 0.54169 0.0
C1521 C 0.60901 0.69637 0.5472 0.0
C1522 C 0.60777 0.63834 0.52319 0.0
C1523 C 0.63169 0.65828 0.51771 0.0
H1524 H 0.6336 0.29096 0.97089 0.0
H1525 H 0.67616 0.31883 0.05616 0.0
H1526 H 0.64531 0.3604 0.05991 0.0
H1527 H 0.6098 0.3917 0.0374 0.0
H1528 H 0.5681 0.36656 0.95127 0.0
H1529 H 0.59402 0.32094 0.94994 0.0
C1530 C 0.63604 0.30616 0.99025 0.0
C1531 C 0.65728 0.30161 0.01321 0.0
C1532 C 0.61805 0.33044 0.99234 0.0
C1533 C 0.65989 0.32144 0.03828 0.0
C1534 C 0.64223 0.34535 0.04048 0.0
C1535 C 0.60565 0.37581 0.01872 0.0
C1536 C 0.58697 0.38271 0.99456 0.0
C1537 C 0.62155 0.3503 0.01754 0.0
C1538 C 0.58201 0.36185 0.97043 0.0
C1539 C 0.59731 0.33592 0.9694 0.0
H1540 H 0.38219 0.25812 0.97942 0.0
H1541 H 0.33501 0.19906 0.03723 0.0
H1542 H 0.36675 0.15945 0.02258 0.0
H1543 H 0.40336 0.13998 0.98727 0.0
H1544 H 0.44911 0.20072 0.92956 0.0
H1545 H 0.42266 0.24105 0.95015 0.0
C1546 C 0.37923 0.2367 0.98922 0.0
C1547 C 0.35613 0.23134 0.00903 0.0
C1548 C 0.39711 0.21413 0.98033 0.0
C1549 C 0.35269 0.20366 0.02189 0.0
C1550 C 0.37068 0.18097 0.0133 0.0
C1551 C 0.40808 0.16219 0.97987 0.0
C1552 C 0.42795 0.16714 0.95657 0.0
C1553 C 0.39235 0.18564 0.99168 0.0
C1554 C 0.43371 0.19611 0.94718 0.0
C1555 C 0.41854 0.2193 0.9589 0.0
H1556 H 0.81745 0.3039 -0.00318 0.0
H1557 H 0.86421 0.25325 0.06005 0.0
H1558 H 0.90706 0.28999 0.06087 0.0
H1559 H 0.92788 0.33907 0.0469 0.0
H1560 H 0.88257 0.38569 0.97933 0.0
H1561 H 0.84356 0.34559 0.97378 0.0
C1562 C 0.83726 0.30066 0.0104 0.0
C1563 C 0.83777 0.27631 0.02862 0.0
C1564 C 0.86237 0.32012 0.00868 0.0
C1565 C 0.86331 0.27226 0.04631 0.0
C1566 C 0.88789 0.29284 0.04629 0.0
C1567 C 0.91036 0.33948 0.02973 0.0
C1568 C 0.90737 0.36529 0.01406 0.0
C1569 C 0.88747 0.31698 0.02771 0.0
C1570 C 0.88504 0.3659 0.99162 0.0
C1571 C 0.8623 0.34346 0.98917 0.0
loop_
_geom_bond_atom_site_label_1
_geom_bond_atom_site_label_2
_geom_bond_distance
_geom_bond_site_symmetry_2
_ccdc_geom_bond_type
C0 C1 1.443 . S
C0 N4 1.376 . S
C0 C38 1.389 1_655 S
C1 C0 1.443 . S
C1 C2 1.340 . S
C1 H41 0.951 . S
C2 C1 1.340 . S
C2 C3 1.439 . S
C2 H42 0.950 . S
C3 C2 1.439 . S
C3 N4 1.374 . S
C3 C37 1.395 . S
N4 C0 1.376 . S
N4 C3 1.374 . S
N4 Co5 2.008 1_655 S
Co5 N4 2.008 1_455 S
Co5 N6 1.995 . S
Co5 N11 2.008 . S
Co5 N16 1.995 . S
Co5 N21 2.282 . S
Co5 N27 2.282 . S
N6 Co5 1.995 . S
N6 C7 1.376 1_455 S
N6 C10 1.383 . S
C7 N6 1.376 1_655 S
C7 C8 1.446 . S
C7 C37 1.391 . S
C8 C7 1.446 . S
C8 C9 1.339 . S
C8 H43 0.949 . S
C9 C8 1.339 . S
C9 C10 1.439 1_655 S
C9 H44 0.952 . S
C10 N6 1.383 . S
C10 C9 1.439 1_455 S
C10 C39 1.392 . S
N11 Co5 2.008 . S
N11 C12 1.376 . S
N11 C15 1.374 . S
C12 N11 1.376 . S
C12 C13 1.443 . S
C12 C39 1.389 . S
C13 C12 1.443 . S
C13 C14 1.340 . S
C13 H45 0.951 . S
C14 C13 1.340 . S
C14 C15 1.439 . S
C14 H46 0.950 . S
C15 N11 1.374 . S
C15 C14 1.439 . S
C15 C40 1.395 . S
N16 Co5 1.995 . S
N16 C17 1.376 . S
N16 C20 1.383 . S
C17 N16 1.376 . S
C17 C18 1.446 . S
C17 C40 1.391 . S
C18 C17 1.446 . S
C18 C19 1.339 . S
C18 H47 0.949 . S
C19 C18 1.339 . S
C19 C20 1.439 . S
C19 H48 0.950 . S
C20 N16 1.383 . S
C20 C19 1.439 . S
C20 C38 1.392 . S
N21 Co5 2.282 . S
N21 C24 1.332 . S
N21 C26 1.332 . S
C22 C23 1.386 . S
C22 C25 1.388 . S
C23 C22 1.386 . S
C23 C24 1.382 . S
C23 H49 0.950 . S
C24 N21 1.332 . S
C24 C23 1.382 . S
C24 H35 0.952 . S
C25 C22 1.388 . S
C25 C26 1.382 . S
C25 H50 0.950 . S
C26 N21 1.332 . S
C26 C25 1.382 . S
C26 H36 0.948 . S
N27 Co5 2.282 . S
N27 C31 1.332 . S
N27 C32 1.332 . S
C28 C29 1.388 . S
C28 C32 1.382 . S
C28 H51 0.950 . S
C29 C28 1.388 . S
C29 C30 1.375 1_455 S
C30 C29 1.375 1_655 S
C30 C31 1.377 1_655 S
C30 H52 0.965 . S
C31 N27 1.332 . S
C31 C30 1.377 1_455 S
C31 H33 0.952 1_455 S
C32 N27 1.332 . S
C32 C28 1.382 . S
C32 H34 0.948 . S
H33 C31 0.952 1_655 S
H34 C32 0.948 . S
H35 C24 0.952 . S
H36 C26 0.948 . S
C37 C3 1.395 . S
C37 C7 1.391 . S
C38 C0 1.389 1_455 S
C38 C20 1.392 . S
C39 C10 1.392 . S
C39 C12 1.389 . S
C40 C15 1.395 . S
C40 C17 1.391 . S
H41 C1 0.951 . S
H42 C2 0.950 . S
H43 C8 0.949 . S
H44 C9 0.952 . S
H45 C13 0.951 . S
H46 C14 0.950 . S
H47 C18 0.949 . S
H48 C19 0.950 . S
H49 C23 0.950 . S
H50 C25 0.950 . S
H51 C28 0.950 . S
H52 C30 0.965 . S
C53 C54 1.443 . S
C53 N57 1.376 . S
C53 C91 1.389 1_655 S
C54 C53 1.443 . S
C54 C55 1.340 . S
C54 H94 0.951 . S
C55 C54 1.340 . S
C55 C56 1.439 . S
C55 H95 0.950 . S
C56 C55 1.439 . S
C56 N57 1.374 . S
C56 C90 1.395 . S
N57 C53 1.376 . S
N57 C56 1.374 . S
N57 Co58 2.008 1_655 S
Co58 N57 2.008 1_455 S
Co58 N59 1.995 1_455 S
Co58 N64 2.008 . S
Co58 N69 1.995 . S
Co58 N74 2.282 . S
Co58 N80 2.282 . S
N59 Co58 1.995 1_655 S
N59 C60 1.376 . S
N59 C63 1.383 . S
C60 N59 1.376 . S
C60 C61 1.446 . S
C60 C90 1.391 . S
C61 C60 1.446 . S
C61 C62 1.339 . S
C61 H96 0.949 . S
C62 C61 1.339 . S
C62 C63 1.439 . S
C62 H97 0.950 . S
C63 N59 1.383 . S
C63 C62 1.439 . S
C63 C92 1.392 1_655 S
N64 Co58 2.008 . S
N64 C65 1.376 . S
N64 C68 1.374 . S
C65 N64 1.376 . S
C65 C66 1.443 . S
C65 C92 1.389 . S
C66 C65 1.443 . S
C66 C67 1.340 . S
C66 H98 0.951 . S
C67 C66 1.340 . S
C67 C68 1.439 . S
C67 H99 0.950 . S
C68 N64 1.374 . S
C68 C67 1.439 . S
C68 C93 1.395 . S
N69 Co58 1.995 . S
N69 C70 1.376 . S
N69 C73 1.383 . S
C70 N69 1.376 . S
C70 C71 1.446 . S
C70 C93 1.391 . S
C71 C70 1.446 . S
C71 C72 1.339 . S
C71 H100 0.949 . S
C72 C71 1.339 . S
C72 C73 1.439 . S
C72 H101 0.950 . S
C73 N69 1.383 . S
C73 C72 1.439 . S
C73 C91 1.392 . S
N74 Co58 2.282 . S
N74 C77 1.332 . S
N74 C79 1.332 . S
C75 C76 1.386 . S
C75 C78 1.388 . S
C76 C75 1.386 . S
C76 C77 1.382 . S
C76 H102 0.950 . S
C77 N74 1.332 . S
C77 C76 1.382 . S
C77 H88 0.952 . S
C78 C75 1.388 . S
C78 C79 1.382 . S
C78 H103 0.950 1_455 S
C79 N74 1.332 . S
C79 C78 1.382 . S
C79 H89 0.948 1_455 S
N80 Co58 2.282 . S
N80 C84 1.332 1_455 S
N80 C85 1.332 . S
C81 C82 1.388 1_455 S
C81 C85 1.382 . S
C81 H104 0.950 . S
C82 C81 1.388 1_655 S
C82 C83 1.386 . S
C83 C82 1.386 . S
C83 C84 1.382 . S
C83 H105 0.950 . S
C84 N80 1.332 1_655 S
C84 C83 1.382 . S
C84 H86 0.952 . S
C85 N80 1.332 . S
C85 C81 1.382 . S
C85 H87 0.948 . S
H86 C84 0.952 . S
H87 C85 0.948 . S
H88 C77 0.952 . S
H89 C79 0.948 1_655 S
C90 C56 1.395 . S
C90 C60 1.391 . S
C91 C53 1.389 1_455 S
C91 C73 1.392 . S
C92 C63 1.392 1_455 S
C92 C65 1.389 . S
C93 C68 1.395 . S
C93 C70 1.391 . S
H94 C54 0.951 . S
H95 C55 0.950 . S
H96 C61 0.949 . S
H97 C62 0.950 . S
H98 C66 0.951 . S
H99 C67 0.950 . S
H100 C71 0.949 . S
H101 C72 0.950 . S
H102 C76 0.950 . S
H103 C78 0.950 1_655 S
H104 C81 0.950 . S
H105 C83 0.950 . S
C106 C107 1.443 . S
C106 N110 1.376 . S
C106 C144 1.389 . S
C107 C106 1.443 . S
C107 C108 1.340 . S
C107 H147 0.951 . S
C108 C107 1.340 . S
C108 C109 1.439 . S
C108 H148 0.950 . S
C109 C108 1.439 . S
C109 N110 1.374 . S
C109 C143 1.395 . S
N110 C106 1.376 . S
N110 C109 1.374 . S
N110 Co111 2.008 1_565 S
Co111 N110 2.008 1_545 S
Co111 N112 1.995 1_545 S
Co111 N117 2.008 . S
Co111 N122 1.995 . S
Co111 N127 2.282 . S
Co111 N133 2.282 . S
N112 Co111 1.995 1_565 S
N112 C113 1.376 . S
N112 C116 1.397 . S
C113 N112 1.376 . S
C113 C114 1.446 . S
C113 C143 1.391 . S
C114 C113 1.446 . S
C114 C115 1.339 . S
C114 H149 0.949 . S
C115 C114 1.339 . S
C115 C116 1.460 . S
C115 H150 0.950 . S
C116 N112 1.397 . S
C116 C115 1.460 . S
C116 C145 1.362 1_565 S
N117 Co111 2.008 . S
N117 C118 1.376 . S
N117 C121 1.374 . S
C118 N117 1.376 . S
C118 C119 1.443 . S
C118 C145 1.389 . S
C119 C118 1.443 . S
C119 C120 1.340 . S
C119 H151 0.951 . S
C120 C119 1.340 . S
C120 C121 1.439 . S
C120 H152 0.950 . S
C121 N117 1.374 . S
C121 C120 1.439 . S
C121 C146 1.395 . S
N122 Co111 1.995 . S
N122 C123 1.376 . S
N122 C126 1.383 . S
C123 N122 1.376 . S
C123 C124 1.446 . S
C123 C146 1.391 . S
C124 C123 1.446 . S
C124 C125 1.339 . S
C124 H153 0.949 . S
C125 C124 1.339 . S
C125 C126 1.439 . S
C125 H154 0.950 . S
C126 N122 1.383 . S
C126 C125 1.439 . S
C126 C144 1.392 1_545 S
N127 Co111 2.282 . S
N127 C130 1.332 . S
N127 C132 1.332 . S
C128 C129 1.386 . S
C128 C131 1.388 . S
C129 C128 1.386 . S
C129 C130 1.382 . S
C129 H155 0.950 . S
C130 N127 1.332 . S
C130 C129 1.382 . S
C130 H141 0.952 . S
C131 C128 1.388 . S
C131 C132 1.382 . S
C131 H156 0.950 1_545 S
C132 N127 1.332 . S
C132 C131 1.382 . S
C132 H142 0.948 1_545 S
N133 Co111 2.282 . S
N133 C137 1.332 1_545 S
N133 C138 1.332 . S
C134 C135 1.388 1_545 S
C134 C138 1.382 . S
C134 H157 0.950 . S
C135 C134 1.388 1_565 S
C135 C136 1.386 . S
C136 C135 1.386 . S
C136 C137 1.382 . S
C136 H158 0.950 . S
C137 N133 1.332 1_565 S
C137 C136 1.382 . S
C137 H139 0.952 . S
C138 N133 1.332 . S
C138 C134 1.382 . S
C138 H140 0.948 . S
H139 C137 0.952 . S
H140 C138 0.948 . S
H141 C130 0.952 . S
H142 C132 0.948 1_565 S
C143 C109 1.395 . S
C143 C113 1.391 . S
C144 C106 1.389 . S
C144 C126 1.392 1_565 S
C145 C116 1.362 1_545 S
C145 C118 1.389 . S
C146 C121 1.395 . S
C146 C123 1.391 . S
H147 C107 0.951 . S
H148 C108 0.950 . S
H149 C114 0.949 . S
H150 C115 0.950 . S
H151 C119 0.951 . S
H152 C120 0.950 . S
H153 C124 0.949 . S
H154 C125 0.950 . S
H155 C129 0.950 . S
H156 C131 0.950 1_565 S
H157 C134 0.950 . S
H158 C136 0.950 . S
C159 C160 1.443 . S
C159 N163 1.376 . S
C159 C197 1.389 . S
C160 C159 1.443 . S
C160 C161 1.340 . S
C160 H200 0.951 . S
C161 C160 1.340 . S
C161 C162 1.439 . S
C161 H201 0.950 . S
C162 C161 1.439 . S
C162 N163 1.374 . S
C162 C196 1.395 . S
N163 C159 1.376 . S
N163 C162 1.374 . S
N163 Co164 2.008 . S
Co164 N163 2.008 . S
Co164 N165 1.995 . S
Co164 N170 2.008 . S
Co164 N175 1.995 . S
Co164 N180 2.282 . S
Co164 N186 2.282 . S
N165 Co164 1.995 . S
N165 C166 1.376 . S
N165 C169 1.383 . S
C166 N165 1.376 . S
C166 C167 1.446 . S
C166 C196 1.391 . S
C167 C166 1.446 . S
C167 C168 1.339 . S
C167 H202 0.949 . S
C168 C167 1.339 . S
C168 C169 1.439 . S
C168 H203 0.950 . S
C169 N165 1.383 . S
C169 C168 1.439 . S
C169 C198 1.392 . S
N170 Co164 2.008 . S
N170 C171 1.376 . S
N170 C174 1.374 . S
C171 N170 1.376 . S
C171 C172 1.443 . S
C171 C198 1.389 . S
C172 C171 1.443 . S
C172 C173 1.340 . S
C172 H204 0.951 . S
C173 C172 1.340 . S
C173 C174 1.439 . S
C173 H205 0.950 . S
C174 N170 1.374 . S
C174 C173 1.439 . S
C174 C199 1.395 . S
N175 Co164 1.995 . S
N175 C176 1.376 . S
N175 C179 1.383 . S
C176 N175 1.376 . S
C176 C177 1.446 . S
C176 C199 1.391 . S
C177 C176 1.446 . S
C177 C178 1.339 . S
C177 H206 0.949 . S
C178 C177 1.339 . S
C178 C179 1.439 . S
C178 H207 0.950 . S
C179 N175 1.383 . S
C179 C178 1.439 . S
C179 C197 1.392 . S
N180 Co164 2.282 . S
N180 C183 1.332 . S
N180 C185 1.332 . S
C181 C182 1.386 . S
C181 C184 1.388 . S
C182 C181 1.386 . S
C182 C183 1.382 . S
C182 H208 0.950 . S
C183 N180 1.332 . S
C183 C182 1.382 . S
C183 H194 0.952 . S
C184 C181 1.388 . S
C184 C185 1.382 . S
C184 H209 0.950 . S
C185 N180 1.332 . S
C185 C184 1.382 . S
C185 H195 0.948 . S
N186 Co164 2.282 . S
N186 C190 1.332 . S
N186 C191 1.332 . S
C187 C188 1.388 . S
C187 C191 1.382 . S
C187 H210 0.950 . S
C188 C187 1.388 . S
C188 C189 1.386 . S
C189 C188 1.386 . S
C189 C190 1.382 . S
C189 H211 0.950 . S
C190 N186 1.332 . S
C190 C189 1.382 . S
C190 H192 0.952 . S
C191 N186 1.332 . S
C191 C187 1.382 . S
C191 H193 0.948 . S
H192 C190 0.952 . S
H193 C191 0.948 . S
H194 C183 0.952 . S
H195 C185 0.948 . S
C196 C162 1.395 . S
C196 C166 1.391 . S
C197 C159 1.389 . S
C197 C179 1.392 . S
C198 C169 1.392 . S
C198 C171 1.389 . S
C199 C174 1.395 . S
C199 C176 1.391 . S
H200 C160 0.951 . S
H201 C161 0.950 . S
H202 C167 0.949 . S
H203 C168 0.950 . S
H204 C172 0.951 . S
H205 C173 0.950 . S
H206 C177 0.949 . S
H207 C178 0.950 . S
H208 C182 0.950 . S
H209 C184 0.950 . S
H210 C187 0.950 . S
H211 C189 0.950 . S
C212 C213 1.443 . S
C212 N216 1.376 . S
C212 C250 1.389 1_556 S
C213 C212 1.443 . S
C213 C214 1.340 . S
C213 H253 0.951 . S
C214 C213 1.340 . S
C214 C215 1.439 . S
C214 H254 0.950 . S
C215 C214 1.439 . S
C215 N216 1.374 . S
C215 C249 1.395 . S
N216 C212 1.376 . S
N216 C215 1.374 . S
N216 Co217 2.008 1_556 S
Co217 N216 2.008 1_554 S
Co217 N218 1.995 1_554 S
Co217 N223 2.008 . S
Co217 N228 1.995 . S
Co217 N233 2.282 . S
Co217 N239 2.282 . S
N218 Co217 1.995 1_556 S
N218 C219 1.376 . S
N218 C222 1.383 1_556 S
C219 N218 1.376 . S
C219 C220 1.446 . S
C219 C249 1.391 . S
C220 C219 1.446 . S
C220 C221 1.339 . S
C220 H255 0.949 . S
C221 C220 1.339 . S
C221 C222 1.439 1_556 S
C221 H256 0.950 . S
C222 N218 1.383 1_554 S
C222 C221 1.439 1_554 S
C222 C251 1.392 . S
N223 Co217 2.008 . S
N223 C224 1.376 . S
N223 C227 1.374 . S
C224 N223 1.376 . S
C224 C225 1.443 . S
C224 C251 1.389 . S
C225 C224 1.443 . S
C225 C226 1.340 . S
C225 H257 0.951 . S
C226 C225 1.340 . S
C226 C227 1.439 . S
C226 H258 0.950 . S
C227 N223 1.374 . S
C227 C226 1.439 . S
C227 C252 1.395 . S
N228 Co217 1.995 . S
N228 C229 1.376 . S
N228 C232 1.383 . S
C229 N228 1.376 . S
C229 C230 1.446 . S
C229 C252 1.391 . S
C230 C229 1.446 . S
C230 C231 1.339 . S
C230 H259 0.949 . S
C231 C230 1.339 . S
C231 C232 1.439 . S
C231 H260 0.950 . S
C232 N228 1.383 . S
C232 C231 1.439 . S
C232 C250 1.392 . S
N233 Co217 2.282 . S
N233 C236 1.332 . S
N233 C238 1.332 . S
C234 C235 1.386 . S
C234 C237 1.388 . S
C235 C234 1.386 . S
C235 C236 1.382 . S
C235 H261 0.950 . S
C236 N233 1.332 . S
C236 C235 1.382 . S
C236 H247 0.952 . S
C237 C234 1.388 . S
C237 C238 1.382 . S
C237 H262 0.950 1_554 S
C238 N233 1.332 . S
C238 C237 1.382 . S
C238 H248 0.948 1_554 S
N239 Co217 2.282 . S
N239 C243 1.332 1_554 S
N239 C244 1.332 . S
C240 C241 1.388 . S
C240 C244 1.382 . S
C240 H263 0.950 . S
C241 C240 1.388 . S
C241 C242 1.386 1_554 S
C242 C241 1.386 1_556 S
C242 C243 1.382 . S
C242 H264 0.950 . S
C243 N239 1.332 1_556 S
C243 C242 1.382 . S
C243 H245 0.952 . S
C244 N239 1.332 . S
C244 C240 1.382 . S
C244 H246 0.948 . S
H245 C243 0.952 . S
H246 C244 0.948 . S
H247 C236 0.952 . S
H248 C238 0.948 1_556 S
C249 C215 1.395 . S
C249 C219 1.391 . S
C250 C212 1.389 1_554 S
C250 C232 1.392 . S
C251 C222 1.392 . S
C251 C224 1.389 . S
C252 C227 1.395 . S
C252 C229 1.391 . S
H253 C213 0.951 . S
H254 C214 0.950 . S
H255 C220 0.949 . S
H256 C221 0.950 . S
H257 C225 0.951 . S
H258 C226 0.950 . S
H259 C230 0.949 . S
H260 C231 0.950 . S
H261 C235 0.950 . S
H262 C237 0.950 1_556 S
H263 C240 0.950 . S
H264 C242 0.950 . S
C265 C266 1.443 . S
C265 N269 1.376 . S
C265 C303 1.389 . S
C266 C265 1.443 . S
C266 C267 1.340 . S
C266 H306 0.951 . S
C267 C266 1.340 . S
C267 C268 1.439 . S
C267 H307 0.950 . S
C268 C267 1.439 . S
C268 N269 1.374 . S
C268 C302 1.395 . S
N269 C265 1.376 . S
N269 C268 1.374 . S
N269 Co270 2.008 . S
Co270 N269 2.008 . S
Co270 N271 1.995 . S
Co270 N276 2.008 . S
Co270 N281 1.995 . S
Co270 N286 2.282 . S
Co270 N292 2.282 . S
N271 Co270 1.995 . S
N271 C272 1.376 . S
N271 C275 1.383 . S
C272 N271 1.376 . S
C272 C273 1.446 . S
C272 C302 1.391 . S
C273 C272 1.446 . S
C273 C274 1.339 . S
C273 H308 0.949 . S
C274 C273 1.339 . S
C274 C275 1.439 . S
C274 H309 0.950 . S
C275 N271 1.383 . S
C275 C274 1.439 . S
C275 C304 1.392 . S
N276 Co270 2.008 . S
N276 C277 1.376 . S
N276 C280 1.374 . S
C277 N276 1.376 . S
C277 C278 1.443 . S
C277 C304 1.389 . S
C278 C277 1.443 . S
C278 C279 1.340 . S
C278 H310 0.951 . S
C279 C278 1.340 . S
C279 C280 1.439 . S
C279 H311 0.950 . S
C280 N276 1.374 . S
C280 C279 1.439 . S
C280 C305 1.395 . S
N281 Co270 1.995 . S
N281 C282 1.376 . S
N281 C285 1.383 . S
C282 N281 1.376 . S
C282 C283 1.446 . S
C282 C305 1.391 . S
C283 C282 1.446 . S
C283 C284 1.339 . S
C283 H312 0.949 . S
C284 C283 1.339 . S
C284 C285 1.439 . S
C284 H313 0.950 . S
C285 N281 1.383 . S
C285 C284 1.439 . S
C285 C303 1.392 . S
N286 Co270 2.282 . S
N286 C289 1.332 . S
N286 C291 1.332 . S
C287 C288 1.386 . S
C287 C290 1.388 . S
C288 C287 1.386 . S
C288 C289 1.382 . S
C288 H314 0.950 . S
C289 N286 1.332 . S
C289 C288 1.382 . S
C289 H300 0.952 . S
C290 C287 1.388 . S
C290 C291 1.382 . S
C290 H315 0.950 . S
C291 N286 1.332 . S
C291 C290 1.382 . S
C291 H301 0.948 . S
N292 Co270 2.282 . S
N292 C296 1.332 . S
N292 C297 1.332 . S
C293 C294 1.388 . S
C293 C297 1.382 . S
C293 H316 0.950 . S
C294 C293 1.388 . S
C294 C295 1.386 . S
C295 C294 1.386 . S
C295 C296 1.382 . S
C295 H317 0.950 . S
C296 N292 1.332 . S
C296 C295 1.382 . S
C296 H298 0.952 . S
C297 N292 1.332 . S
C297 C293 1.382 . S
C297 H299 0.948 . S
H298 C296 0.952 . S
H299 C297 0.948 . S
H300 C289 0.952 . S
H301 C291 0.948 . S
C302 C268 1.395 . S
C302 C272 1.391 . S
C303 C265 1.389 . S
C303 C285 1.392 . S
C304 C275 1.392 . S
C304 C277 1.389 . S
C305 C280 1.395 . S
C305 C282 1.391 . S
H306 C266 0.951 . S
H307 C267 0.950 . S
H308 C273 0.949 . S
H309 C274 0.950 . S
H310 C278 0.951 . S
H311 C279 0.950 . S
H312 C283 0.949 . S
H313 C284 0.950 . S
H314 C288 0.950 . S
H315 C290 0.950 . S
H316 C293 0.950 . S
H317 C295 0.950 . S
C318 C319 1.443 . S
C318 N322 1.376 . S
C318 C356 1.389 . S
C319 C318 1.443 . S
C319 C320 1.340 . S
C319 H359 0.951 . S
C320 C319 1.340 . S
C320 C321 1.439 . S
C320 H360 0.950 . S
C321 C320 1.439 . S
C321 N322 1.374 . S
C321 C355 1.395 . S
N322 C318 1.376 . S
N322 C321 1.374 . S
N322 Co323 2.008 . S
Co323 N322 2.008 . S
Co323 N324 1.995 . S
Co323 N329 2.008 . S
Co323 N334 1.995 . S
Co323 N339 2.282 . S
Co323 N345 2.282 . S
N324 Co323 1.995 . S
N324 C325 1.376 . S
N324 C328 1.383 . S
C325 N324 1.376 . S
C325 C326 1.446 . S
C325 C355 1.391 . S
C326 C325 1.446 . S
C326 C327 1.339 . S
C326 H361 0.949 . S
C327 C326 1.339 . S
C327 C328 1.439 . S
C327 H362 0.950 . S
C328 N324 1.383 . S
C328 C327 1.439 . S
C328 C357 1.392 . S
N329 Co323 2.008 . S
N329 C330 1.376 . S
N329 C333 1.374 . S
C330 N329 1.376 . S
C330 C331 1.443 . S
C330 C357 1.389 . S
C331 C330 1.443 . S
C331 C332 1.340 . S
C331 H363 0.951 . S
C332 C331 1.340 . S
C332 C333 1.439 . S
C332 H364 0.950 . S
C333 N329 1.374 . S
C333 C332 1.439 . S
C333 C358 1.395 . S
N334 Co323 1.995 . S
N334 C335 1.376 . S
N334 C338 1.383 . S
C335 N334 1.376 . S
C335 C336 1.446 . S
C335 C358 1.391 . S
C336 C335 1.446 . S
C336 C337 1.339 . S
C336 H365 0.949 . S
C337 C336 1.339 . S
C337 C338 1.439 . S
C337 H366 0.950 . S
C338 N334 1.383 . S
C338 C337 1.439 . S
C338 C356 1.392 . S
N339 Co323 2.282 . S
N339 C342 1.332 . S
N339 C344 1.332 . S
C340 C341 1.386 . S
C340 C343 1.388 . S
C341 C340 1.386 . S
C341 C342 1.382 . S
C341 H367 0.950 . S
C342 N339 1.332 . S
C342 C341 1.382 . S
C342 H353 0.952 . S
C343 C340 1.388 . S
C343 C344 1.382 . S
C343 H368 0.950 . S
C344 N339 1.332 . S
C344 C343 1.382 . S
C344 H354 0.948 . S
N345 Co323 2.282 . S
N345 C349 1.332 . S
N345 C350 1.332 . S
C346 C347 1.388 . S
C346 C350 1.382 . S
C346 H369 0.950 . S
C347 C346 1.388 . S
C347 C348 1.386 . S
C348 C347 1.386 . S
C348 C349 1.382 . S
C348 H370 0.950 . S
C349 N345 1.332 . S
C349 C348 1.382 . S
C349 H351 0.952 . S
C350 N345 1.332 . S
C350 C346 1.382 . S
C350 H352 0.948 . S
H351 C349 0.952 . S
H352 C350 0.948 . S
H353 C342 0.952 . S
H354 C344 0.948 . S
C355 C321 1.395 . S
C355 C325 1.391 . S
C356 C318 1.389 . S
C356 C338 1.392 . S
C357 C328 1.392 . S
C357 C330 1.389 . S
C358 C333 1.395 . S
C358 C335 1.391 . S
H359 C319 0.951 . S
H360 C320 0.950 . S
H361 C326 0.949 . S
H362 C327 0.950 . S
H363 C331 0.951 . S
H364 C332 0.950 . S
H365 C336 0.949 . S
H366 C337 0.950 . S
H367 C341 0.950 . S
H368 C343 0.950 . S
H369 C346 0.950 . S
H370 C348 0.950 . S
C371 C372 1.443 . S
C371 N375 1.376 . S
C371 C409 1.389 . S
C372 C371 1.443 . S
C372 C373 1.340 . S
C372 H412 0.951 . S
C373 C372 1.340 . S
C373 C374 1.439 . S
C373 H413 0.950 . S
C374 C373 1.439 . S
C374 N375 1.374 . S
C374 C408 1.395 . S
N375 C371 1.376 . S
N375 C374 1.374 . S
N375 Co376 2.008 . S
Co376 N375 2.008 . S
Co376 N377 1.995 . S
Co376 N382 2.008 . S
Co376 N387 1.995 . S
Co376 N392 2.282 . S
Co376 N398 2.282 . S
N377 Co376 1.995 . S
N377 C378 1.376 . S
N377 C381 1.383 . S
C378 N377 1.376 . S
C378 C379 1.446 . S
C378 C408 1.391 . S
C379 C378 1.446 . S
C379 C380 1.339 . S
C379 H414 0.949 . S
C380 C379 1.339 . S
C380 C381 1.439 . S
C380 H415 0.950 . S
C381 N377 1.383 . S
C381 C380 1.439 . S
C381 C410 1.392 . S
N382 Co376 2.008 . S
N382 C383 1.376 . S
N382 C386 1.374 . S
C383 N382 1.376 . S
C383 C384 1.443 . S
C383 C410 1.389 . S
C384 C383 1.443 . S
C384 C385 1.340 . S
C384 H416 0.951 . S
C385 C384 1.340 . S
C385 C386 1.439 . S
C385 H417 0.950 . S
C386 N382 1.374 . S
C386 C385 1.439 . S
C386 C411 1.395 . S
N387 Co376 1.995 . S
N387 C388 1.376 . S
N387 C391 1.383 . S
C388 N387 1.376 . S
C388 C389 1.446 . S
C388 C411 1.391 . S
C389 C388 1.446 . S
C389 C390 1.339 . S
C389 H418 0.949 . S
C390 C389 1.339 . S
C390 C391 1.439 . S
C390 H419 0.950 . S
C391 N387 1.383 . S
C391 C390 1.439 . S
C391 C409 1.392 . S
N392 Co376 2.282 . S
N392 C395 1.332 . S
N392 C397 1.332 . S
C393 C394 1.386 . S
C393 C396 1.388 . S
C394 C393 1.386 . S
C394 C395 1.382 . S
C394 H420 0.950 . S
C395 N392 1.332 . S
C395 C394 1.382 . S
C395 H406 0.952 . S
C396 C393 1.388 . S
C396 C397 1.382 . S
C396 H421 0.950 . S
C397 N392 1.332 . S
C397 C396 1.382 . S
C397 H407 0.948 . S
N398 Co376 2.282 . S
N398 C402 1.332 . S
N398 C403 1.332 . S
C399 C400 1.388 . S
C399 C403 1.382 . S
C399 H422 0.950 . S
C400 C399 1.388 . S
C400 C401 1.386 . S
C401 C400 1.386 . S
C401 C402 1.382 . S
C401 H423 0.950 . S
C402 N398 1.332 . S
C402 C401 1.382 . S
C402 H404 0.952 . S
C403 N398 1.332 . S
C403 C399 1.382 . S
C403 H405 0.948 . S
H404 C402 0.952 . S
H405 C403 0.948 . S
H406 C395 0.952 . S
H407 C397 0.948 . S
C408 C374 1.395 . S
C408 C378 1.391 . S
C409 C371 1.389 . S
C409 C391 1.392 . S
C410 C381 1.392 . S
C410 C383 1.389 . S
C411 C386 1.395 . S
C411 C388 1.391 . S
H412 C372 0.951 . S
H413 C373 0.950 . S
H414 C379 0.949 . S
H415 C380 0.950 . S
H416 C384 0.951 . S
H417 C385 0.950 . S
H418 C389 0.949 . S
H419 C390 0.950 . S
H420 C394 0.950 . S
H421 C396 0.950 . S
H422 C399 0.950 . S
H423 C401 0.950 . S
C424 C425 1.443 . S
C424 N428 1.376 . S
C424 C462 1.389 . S
C425 C424 1.443 . S
C425 C426 1.340 . S
C425 H465 0.951 . S
C426 C425 1.340 . S
C426 C427 1.439 . S
C426 H466 0.950 . S
C427 C426 1.439 . S
C427 N428 1.374 . S
C427 C461 1.395 . S
N428 C424 1.376 . S
N428 C427 1.374 . S
N428 Co429 2.008 . S
Co429 N428 2.008 . S
Co429 N430 1.995 . S
Co429 N435 2.008 . S
Co429 N440 1.995 . S
Co429 N445 2.282 . S
Co429 N451 2.282 . S
N430 Co429 1.995 . S
N430 C431 1.376 . S
N430 C434 1.383 . S
C431 N430 1.376 . S
C431 C432 1.446 . S
C431 C461 1.391 . S
C432 C431 1.446 . S
C432 C433 1.339 . S
C432 H467 0.949 . S
C433 C432 1.339 . S
C433 C434 1.439 . S
C433 H468 0.950 . S
C434 N430 1.383 . S
C434 C433 1.439 . S
C434 C463 1.392 . S
N435 Co429 2.008 . S
N435 C436 1.376 . S
N435 C439 1.374 . S
C436 N435 1.376 . S
C436 C437 1.443 . S
C436 C463 1.389 . S
C437 C436 1.443 . S
C437 C438 1.340 . S
C437 H469 0.951 . S
C438 C437 1.340 . S
C438 C439 1.439 . S
C438 H470 0.950 . S
C439 N435 1.374 . S
C439 C438 1.439 . S
C439 C464 1.395 . S
N440 Co429 1.995 . S
N440 C441 1.376 . S
N440 C444 1.383 . S
C441 N440 1.376 . S
C441 C442 1.446 . S
C441 C464 1.391 . S
C442 C441 1.446 . S
C442 C443 1.339 . S
C442 H471 0.949 . S
C443 C442 1.339 . S
C443 C444 1.439 . S
C443 H472 0.950 . S
C444 N440 1.383 . S
C444 C443 1.439 . S
C444 C462 1.392 . S
N445 Co429 2.282 . S
N445 C448 1.332 . S
N445 C450 1.332 . S
C446 C447 1.386 . S
C446 C449 1.388 . S
C447 C446 1.386 . S
C447 C448 1.382 . S
C447 H473 0.950 . S
C448 N445 1.332 . S
C448 C447 1.382 . S
C448 H459 0.952 . S
C449 C446 1.388 . S
C449 C450 1.382 . S
C449 H474 0.950 . S
C450 N445 1.332 . S
C450 C449 1.382 . S
C450 H460 0.948 . S
N451 Co429 2.282 . S
N451 C455 1.332 . S
N451 C456 1.332 . S
C452 C453 1.388 . S
C452 C456 1.382 . S
C452 H475 0.950 . S
C453 C452 1.388 . S
C453 C454 1.386 . S
C454 C453 1.386 . S
C454 C455 1.382 . S
C454 H476 0.950 . S
C455 N451 1.332 . S
C455 C454 1.382 . S
C455 H457 0.952 . S
C456 N451 1.332 . S
C456 C452 1.382 . S
C456 H458 0.948 . S
H457 C455 0.952 . S
H458 C456 0.948 . S
H459 C448 0.952 . S
H460 C450 0.948 . S
C461 C427 1.395 . S
C461 C431 1.391 . S
C462 C424 1.389 . S
C462 C444 1.392 . S
C463 C434 1.392 . S
C463 C436 1.389 . S
C464 C439 1.395 . S
C464 C441 1.391 . S
H465 C425 0.951 . S
H466 C426 0.950 . S
H467 C432 0.949 . S
H468 C433 0.950 . S
H469 C437 0.951 . S
H470 C438 0.950 . S
H471 C442 0.949 . S
H472 C443 0.950 . S
H473 C447 0.950 . S
H474 C449 0.950 . S
H475 C452 0.950 . S
H476 C454 0.950 . S
C477 C478 1.443 . S
C477 N481 1.376 . S
C477 C515 1.389 . S
C478 C477 1.443 . S
C478 C479 1.340 . S
C478 H518 0.951 . S
C479 C478 1.340 . S
C479 C480 1.439 . S
C479 H519 0.950 . S
C480 C479 1.439 . S
C480 N481 1.374 . S
C480 C514 1.395 . S
N481 C477 1.376 . S
N481 C480 1.374 . S
N481 Co482 2.008 . S
Co482 N481 2.008 . S
Co482 N483 1.995 . S
Co482 N488 2.008 . S
Co482 N493 1.995 . S
Co482 N498 2.282 . S
Co482 N504 2.282 . S
N483 Co482 1.995 . S
N483 C484 1.376 . S
N483 C487 1.383 . S
C484 N483 1.376 . S
C484 C485 1.446 . S
C484 C514 1.391 . S
C485 C484 1.446 . S
C485 C486 1.339 . S
C485 H520 0.949 . S
C486 C485 1.339 . S
C486 C487 1.439 . S
C486 H521 0.950 . S
C487 N483 1.383 . S
C487 C486 1.439 . S
C487 C516 1.392 . S
N488 Co482 2.008 . S
N488 C489 1.376 . S
N488 C492 1.374 . S
C489 N488 1.376 . S
C489 C490 1.443 . S
C489 C516 1.389 . S
C490 C489 1.443 . S
C490 C491 1.340 . S
C490 H522 0.951 . S
C491 C490 1.340 . S
C491 C492 1.439 . S
C491 H523 0.950 . S
C492 N488 1.374 . S
C492 C491 1.439 . S
C492 C517 1.395 . S
N493 Co482 1.995 . S
N493 C494 1.376 . S
N493 C497 1.383 . S
C494 N493 1.376 . S
C494 C495 1.446 . S
C494 C517 1.391 . S
C495 C494 1.446 . S
C495 C496 1.339 . S
C495 H524 0.949 . S
C496 C495 1.339 . S
C496 C497 1.439 . S
C496 H525 0.950 . S
C497 N493 1.383 . S
C497 C496 1.439 . S
C497 C515 1.392 . S
N498 Co482 2.282 . S
N498 C501 1.332 . S
N498 C503 1.332 . S
C499 C500 1.386 . S
C499 C502 1.388 . S
C500 C499 1.386 . S
C500 C501 1.382 . S
C500 H526 0.950 . S
C501 N498 1.332 . S
C501 C500 1.382 . S
C501 H512 0.952 . S
C502 C499 1.388 . S
C502 C503 1.382 . S
C502 H527 0.950 . S
C503 N498 1.332 . S
C503 C502 1.382 . S
C503 H513 0.948 . S
N504 Co482 2.282 . S
N504 C508 1.332 . S
N504 C509 1.332 . S
C505 C506 1.388 . S
C505 C509 1.382 . S
C505 H528 0.950 . S
C506 C505 1.388 . S
C506 C507 1.386 . S
C507 C506 1.386 . S
C507 C508 1.382 . S
C507 H529 0.950 . S
C508 N504 1.332 . S
C508 C507 1.382 . S
C508 H510 0.952 . S
C509 N504 1.332 . S
C509 C505 1.382 . S
C509 H511 0.948 . S
H510 C508 0.952 . S
H511 C509 0.948 . S
H512 C501 0.952 . S
H513 C503 0.948 . S
C514 C480 1.395 . S
C514 C484 1.391 . S
C515 C477 1.389 . S
C515 C497 1.392 . S
C516 C487 1.392 . S
C516 C489 1.389 . S
C517 C492 1.395 . S
C517 C494 1.391 . S
H518 C478 0.951 . S
H519 C479 0.950 . S
H520 C485 0.949 . S
H521 C486 0.950 . S
H522 C490 0.951 . S
H523 C491 0.950 . S
H524 C495 0.949 . S
H525 C496 0.950 . S
H526 C500 0.950 . S
H527 C502 0.950 . S
H528 C505 0.950 . S
H529 C507 0.950 . S
C530 C531 1.443 . S
C530 N534 1.376 . S
C530 C568 1.389 . S
C531 C530 1.443 . S
C531 C532 1.340 . S
C531 H571 0.951 . S
C532 C531 1.340 . S
C532 C533 1.439 . S
C532 H572 0.950 . S
C533 C532 1.439 . S
C533 N534 1.374 . S
C533 C567 1.395 . S
N534 C530 1.376 . S
N534 C533 1.374 . S
N534 Co535 2.008 . S
Co535 N534 2.008 . S
Co535 N536 1.995 . S
Co535 N541 2.008 1_545 S
Co535 N546 1.995 1_545 S
Co535 N551 2.282 1_545 S
Co535 N557 2.282 . S
N536 Co535 1.995 . S
N536 C537 1.376 . S
N536 C540 1.383 . S
C537 N536 1.376 . S
C537 C538 1.446 . S
C537 C567 1.391 . S
C538 C537 1.446 . S
C538 C539 1.339 . S
C538 H573 0.949 . S
C539 C538 1.339 . S
C539 C540 1.439 . S
C539 H574 0.950 . S
C540 N536 1.383 . S
C540 C539 1.439 . S
C540 C569 1.392 1_545 S
N541 Co535 2.008 1_565 S
N541 C542 1.376 . S
N541 C545 1.374 . S
C542 N541 1.376 . S
C542 C543 1.443 . S
C542 C569 1.389 . S
C543 C542 1.443 . S
C543 C544 1.340 . S
C543 H575 0.951 . S
C544 C543 1.340 . S
C544 C545 1.439 . S
C544 H576 0.950 . S
C545 N541 1.374 . S
C545 C544 1.439 . S
C545 C570 1.395 . S
N546 Co535 1.995 1_565 S
N546 C547 1.376 . S
N546 C550 1.383 . S
C547 N546 1.376 . S
C547 C548 1.446 . S
C547 C570 1.391 . S
C548 C547 1.446 . S
C548 C549 1.339 . S
C548 H577 0.949 . S
C549 C548 1.339 . S
C549 C550 1.439 . S
C549 H578 0.950 . S
C550 N546 1.383 . S
C550 C549 1.439 . S
C550 C568 1.392 1_565 S
N551 Co535 2.282 1_565 S
N551 C554 1.332 . S
N551 C556 1.332 1_565 S
C552 C553 1.386 . S
C552 C555 1.388 1_565 S
C553 C552 1.386 . S
C553 C554 1.382 . S
C553 H579 0.950 . S
C554 N551 1.332 . S
C554 C553 1.382 . S
C554 H565 0.952 . S
C555 C552 1.388 1_545 S
C555 C556 1.382 . S
C555 H580 0.950 . S
C556 N551 1.332 1_545 S
C556 C555 1.382 . S
C556 H566 0.948 . S
N557 Co535 2.282 . S
N557 C561 1.332 . S
N557 C562 1.332 1_545 S
C558 C559 1.388 1_565 S
C558 C562 1.382 . S
C558 H581 0.950 . S
C559 C558 1.388 1_545 S
C559 C560 1.386 . S
C560 C559 1.386 . S
C560 C561 1.382 . S
C560 H582 0.950 . S
C561 N557 1.332 . S
C561 C560 1.382 . S
C561 H563 0.952 . S
C562 N557 1.332 1_565 S
C562 C558 1.382 . S
C562 H564 0.948 . S
H563 C561 0.952 . S
H564 C562 0.948 . S
H565 C554 0.952 . S
H566 C556 0.948 . S
C567 C533 1.395 . S
C567 C537 1.391 . S
C568 C530 1.389 . S
C568 C550 1.392 1_545 S
C569 C540 1.392 1_565 S
C569 C542 1.389 . S
C570 C545 1.395 . S
C570 C547 1.391 . S
H571 C531 0.951 . S
H572 C532 0.950 . S
H573 C538 0.949 . S
H574 C539 0.950 . S
H575 C543 0.951 . S
H576 C544 0.950 . S
H577 C548 0.949 . S
H578 C549 0.950 . S
H579 C553 0.950 . S
H580 C555 0.950 . S
H581 C558 0.950 . S
H582 C560 0.950 . S
C583 C584 1.443 . S
C583 N587 1.376 . S
C583 C621 1.389 1_556 S
C584 C583 1.443 . S
C584 C585 1.340 . S
C584 H624 0.951 . S
C585 C584 1.340 . S
C585 C586 1.439 . S
C585 H625 0.950 . S
C586 C585 1.439 . S
C586 N587 1.374 . S
C586 C620 1.395 . S
N587 C583 1.376 . S
N587 C586 1.374 . S
N587 Co588 2.008 1_556 S
Co588 N587 2.008 1_554 S
Co588 N589 1.995 1_554 S
Co588 N594 2.008 . S
Co588 N599 1.995 . S
Co588 N604 2.282 . S
Co588 N610 2.282 . S
N589 Co588 1.995 1_556 S
N589 C590 1.376 . S
N589 C593 1.383 1_556 S
C590 N589 1.376 . S
C590 C591 1.446 . S
C590 C620 1.391 . S
C591 C590 1.446 . S
C591 C592 1.339 . S
C591 H626 0.949 . S
C592 C591 1.339 . S
C592 C593 1.439 1_556 S
C592 H627 0.950 . S
C593 N589 1.383 1_554 S
C593 C592 1.439 1_554 S
C593 C622 1.392 . S
N594 Co588 2.008 . S
N594 C595 1.376 . S
N594 C598 1.374 . S
C595 N594 1.376 . S
C595 C596 1.443 . S
C595 C622 1.389 . S
C596 C595 1.443 . S
C596 C597 1.340 . S
C596 H628 0.951 . S
C597 C596 1.340 . S
C597 C598 1.439 . S
C597 H629 0.950 . S
C598 N594 1.374 . S
C598 C597 1.439 . S
C598 C623 1.395 . S
N599 Co588 1.995 . S
N599 C600 1.376 . S
N599 C603 1.383 . S
C600 N599 1.376 . S
C600 C601 1.446 . S
C600 C623 1.391 . S
C601 C600 1.446 . S
C601 C602 1.339 . S
C601 H630 0.949 . S
C602 C601 1.339 . S
C602 C603 1.439 . S
C602 H631 0.950 . S
C603 N599 1.383 . S
C603 C602 1.439 . S
C603 C621 1.392 . S
N604 Co588 2.282 . S
N604 C607 1.332 . S
N604 C609 1.332 . S
C605 C606 1.386 . S
C605 C608 1.388 . S
C606 C605 1.386 . S
C606 C607 1.382 . S
C606 H632 0.950 . S
C607 N604 1.332 . S
C607 C606 1.382 . S
C607 H618 0.952 . S
C608 C605 1.388 . S
C608 C609 1.382 . S
C608 H633 0.950 1_554 S
C609 N604 1.332 . S
C609 C608 1.382 . S
C609 H619 0.948 1_554 S
N610 Co588 2.282 . S
N610 C614 1.332 1_554 S
N610 C615 1.332 . S
C611 C612 1.388 . S
C611 C615 1.382 . S
C611 H634 0.950 . S
C612 C611 1.388 . S
C612 C613 1.386 1_554 S
C613 C612 1.386 1_556 S
C613 C614 1.382 . S
C613 H635 0.950 . S
C614 N610 1.332 1_556 S
C614 C613 1.382 . S
C614 H616 0.952 . S
C615 N610 1.332 . S
C615 C611 1.382 . S
C615 H617 0.948 . S
H616 C614 0.952 . S
H617 C615 0.948 . S
H618 C607 0.952 . S
H619 C609 0.948 1_556 S
C620 C586 1.395 . S
C620 C590 1.391 . S
C621 C583 1.389 1_554 S
C621 C603 1.392 . S
C622 C593 1.392 . S
C622 C595 1.389 . S
C623 C598 1.395 . S
C623 C600 1.391 . S
H624 C584 0.951 . S
H625 C585 0.950 . S
H626 C591 0.949 . S
H627 C592 0.950 . S
H628 C596 0.951 . S
H629 C597 0.950 . S
H630 C601 0.949 . S
H631 C602 0.950 . S
H632 C606 0.950 . S
H633 C608 0.950 1_556 S
H634 C611 0.950 . S
H635 C613 0.950 . S
O636 Mg637 1.990 . S
O636 C650 1.253 . S
Mg637 O636 1.990 . S
Mg637 O640 2.180 . S
Mg637 O641 2.117 . S
Mg637 O655 2.030 . S
O638 Mg639 2.072 . S
O638 C650 1.260 . S
Mg639 O638 2.072 . S
Mg639 O640 2.099 . S
Mg639 O642 2.082 1_554 S
Mg639 O643 2.072 . S
Mg639 O645 2.099 . S
Mg639 O656 2.079 . S
O640 Mg637 2.180 . S
O640 Mg639 2.099 . S
O640 C651 1.279 . S
O641 Mg637 2.117 . S
O641 C651 1.250 . S
O642 Mg639 2.082 1_556 S
O642 C652 1.261 . S
O643 Mg639 2.072 . S
O643 C653 1.260 . S
Mg644 O645 2.180 1_556 S
Mg644 O646 2.030 . S
Mg644 O647 1.990 1_556 S
Mg644 O648 2.117 1_456 S
O645 Mg639 2.099 . S
O645 Mg644 2.180 1_554 S
O645 C654 1.279 . S
O646 Mg644 2.030 . S
O646 C652 1.248 . S
O647 Mg644 1.990 1_554 S
O647 C653 1.253 . S
O648 Mg644 2.117 1_654 S
O648 C654 1.250 1_655 S
C649 O655 1.248 . S
C649 O656 1.264 . S
C650 O636 1.253 . S
C650 O638 1.260 . S
C651 O640 1.279 . S
C651 O641 1.250 . S
C652 O642 1.261 . S
C652 O646 1.248 . S
C653 O643 1.260 . S
C653 O647 1.253 . S
C654 O645 1.279 . S
C654 O648 1.250 1_455 S
O655 Mg637 2.030 . S
O655 C649 1.248 . S
O656 Mg639 2.079 . S
O656 C649 1.264 . S
O657 Mg658 1.990 . S
O657 C671 1.253 . S
Mg658 O657 1.990 . S
Mg658 O661 2.180 . S
Mg658 O662 2.117 . S
Mg658 O676 2.030 . S
O659 Mg660 2.072 . S
O659 C671 1.260 . S
Mg660 O659 2.072 . S
Mg660 O661 2.099 . S
Mg660 O663 2.079 1_554 S
Mg660 O664 2.072 . S
Mg660 O666 2.099 . S
Mg660 O677 2.079 . S
O661 Mg658 2.180 . S
O661 Mg660 2.099 . S
O661 C672 1.279 . S
O662 Mg658 2.117 . S
O662 C672 1.250 . S
O663 Mg660 2.079 1_556 S
O663 C673 1.264 . S
O664 Mg660 2.072 . S
O664 C674 1.260 . S
Mg665 O666 2.180 1_556 S
Mg665 O667 2.030 . S
Mg665 O668 1.990 1_556 S
Mg665 O669 2.117 1_656 S
O666 Mg660 2.099 . S
O666 Mg665 2.180 1_554 S
O666 C675 1.279 1_655 S
O667 Mg665 2.030 . S
O667 C673 1.248 . S
O668 Mg665 1.990 1_554 S
O668 C674 1.253 . S
O669 Mg665 2.117 1_454 S
O669 C675 1.250 . S
C670 O676 1.248 . S
C670 O677 1.264 . S
C671 O657 1.253 . S
C671 O659 1.260 . S
C672 O661 1.279 . S
C672 O662 1.250 . S
C673 O663 1.264 . S
C673 O667 1.248 . S
C674 O664 1.260 . S
C674 O668 1.253 . S
C675 O666 1.279 1_455 S
C675 O669 1.250 . S
O676 Mg658 2.030 . S
O676 C670 1.248 . S
O677 Mg660 2.079 . S
O677 C670 1.264 . S
O678 Mg679 1.990 . S
O678 C692 1.253 . S
Mg679 O678 1.990 . S
Mg679 O682 2.180 . S
Mg679 O683 2.117 . S
Mg679 O697 2.030 . S
O680 Mg681 2.072 . S
O680 C692 1.260 . S
Mg681 O680 2.072 . S
Mg681 O682 2.099 . S
Mg681 O684 2.079 1_455 S
Mg681 O685 2.072 . S
Mg681 O687 2.099 . S
Mg681 O698 2.079 . S
O682 Mg679 2.180 . S
O682 Mg681 2.099 . S
O682 C693 1.279 . S
O683 Mg679 2.117 . S
O683 C693 1.250 . S
O684 Mg681 2.079 1_655 S
O684 C694 1.264 . S
O685 Mg681 2.072 . S
O685 C695 1.260 . S
Mg686 O687 2.180 1_655 S
Mg686 O688 2.030 . S
Mg686 O689 1.990 1_655 S
Mg686 O690 2.117 1_665 S
O687 Mg681 2.099 . S
O687 Mg686 2.180 1_455 S
O687 C696 1.279 1_565 S
O688 Mg686 2.030 . S
O688 C694 1.248 . S
O689 Mg686 1.990 1_455 S
O689 C695 1.253 . S
O690 Mg686 2.117 1_445 S
O690 C696 1.250 . S
C691 O697 1.248 . S
C691 O698 1.264 . S
C692 O678 1.253 . S
C692 O680 1.260 . S
C693 O682 1.279 . S
C693 O683 1.250 . S
C694 O684 1.264 . S
C694 O688 1.248 . S
C695 O685 1.260 . S
C695 O689 1.253 . S
C696 O687 1.279 1_545 S
C696 O690 1.250 . S
O697 Mg679 2.030 . S
O697 C691 1.248 . S
O698 Mg681 2.079 . S
O698 C691 1.264 . S
O699 Mg700 1.990 . S
O699 C713 1.253 . S
Mg700 O699 1.990 . S
Mg700 O703 2.180 . S
Mg700 O704 2.117 . S
Mg700 O718 2.030 . S
O701 Mg702 2.072 . S
O701 C713 1.260 . S
Mg702 O701 2.072 . S
Mg702 O703 2.099 . S
Mg702 O705 2.079 . S
Mg702 O706 2.072 . S
Mg702 O708 2.099 . S
Mg702 O719 2.079 . S
O703 Mg700 2.180 . S
O703 Mg702 2.099 . S
O703 C714 1.279 . S
O704 Mg700 2.117 . S
O704 C714 1.250 . S
O705 Mg702 2.079 . S
O705 C715 1.264 . S
O706 Mg702 2.072 . S
O706 C716 1.260 1_655 S
Mg707 O708 2.180 . S
Mg707 O709 2.030 . S
Mg707 O710 1.990 1_655 S
Mg707 O711 2.117 . S
O708 Mg702 2.099 . S
O708 Mg707 2.180 . S
O708 C717 1.279 . S
O709 Mg707 2.030 . S
O709 C715 1.248 . S
O710 Mg707 1.990 1_455 S
O710 C716 1.253 . S
O711 Mg707 2.117 . S
O711 C717 1.250 . S
C712 O718 1.248 . S
C712 O719 1.264 . S
C713 O699 1.253 . S
C713 O701 1.260 . S
C714 O703 1.279 . S
C714 O704 1.250 . S
C715 O705 1.264 . S
C715 O709 1.248 . S
C716 O706 1.260 1_455 S
C716 O710 1.253 . S
C717 O708 1.279 . S
C717 O711 1.250 . S
O718 Mg700 2.030 . S
O718 C712 1.248 . S
O719 Mg702 2.079 . S
O719 C712 1.264 . S
O720 Mg721 1.990 . S
O720 C734 1.253 . S
Mg721 O720 1.990 . S
Mg721 O724 2.180 . S
Mg721 O725 2.117 . S
Mg721 O739 2.030 . S
O722 Mg723 2.072 . S
O722 C734 1.260 . S
Mg723 O722 2.072 . S
Mg723 O724 2.099 . S
Mg723 O726 2.079 . S
Mg723 O727 2.072 . S
Mg723 O729 2.099 . S
Mg723 O740 2.079 . S
O724 Mg721 2.180 . S
O724 Mg723 2.099 . S
O724 C735 1.279 . S
O725 Mg721 2.117 . S
O725 C735 1.250 . S
O726 Mg723 2.079 . S
O726 C736 1.264 . S
O727 Mg723 2.072 . S
O727 C737 1.260 1_565 S
Mg728 O729 2.180 . S
Mg728 O730 2.030 . S
Mg728 O731 1.990 1_565 S
Mg728 O732 2.117 . S
O729 Mg723 2.099 . S
O729 Mg728 2.180 . S
O729 C738 1.279 . S
O730 Mg728 2.030 . S
O730 C736 1.248 . S
O731 Mg728 1.990 1_545 S
O731 C737 1.253 . S
O732 Mg728 2.117 . S
O732 C738 1.250 . S
C733 O739 1.248 . S
C733 O740 1.264 . S
C734 O720 1.253 . S
C734 O722 1.260 . S
C735 O724 1.279 . S
C735 O725 1.250 . S
C736 O726 1.264 . S
C736 O730 1.248 . S
C737 O727 1.260 1_545 S
C737 O731 1.253 . S
C738 O729 1.279 . S
C738 O732 1.250 . S
O739 Mg721 2.030 . S
O739 C733 1.248 . S
O740 Mg723 2.079 . S
O740 C733 1.264 . S
O741 Mg742 1.990 . S
O741 C755 1.253 . S
Mg742 O741 1.990 . S
Mg742 O745 2.180 . S
Mg742 O746 2.117 . S
Mg742 O760 2.030 . S
O743 Mg744 2.072 . S
O743 C755 1.260 . S
Mg744 O743 2.072 . S
Mg744 O745 2.099 . S
Mg744 O747 2.079 . S
Mg744 O748 2.072 . S
Mg744 O750 2.099 . S
Mg744 O761 2.079 . S
O745 Mg742 2.180 . S
O745 Mg744 2.099 . S
O745 C756 1.279 . S
O746 Mg742 2.117 . S
O746 C756 1.250 . S
O747 Mg744 2.079 . S
O747 C757 1.264 . S
O748 Mg744 2.072 . S
O748 C758 1.260 . S
Mg749 O750 2.180 . S
Mg749 O751 2.030 . S
Mg749 O752 1.990 . S
Mg749 O753 2.117 . S
O750 Mg744 2.099 . S
O750 Mg749 2.180 . S
O750 C759 1.279 . S
O751 Mg749 2.030 . S
O751 C757 1.248 . S
O752 Mg749 1.990 . S
O752 C758 1.253 . S
O753 Mg749 2.117 . S
O753 C759 1.250 . S
C754 O760 1.248 . S
C754 O761 1.264 . S
C755 O741 1.253 . S
C755 O743 1.260 . S
C756 O745 1.279 . S
C756 O746 1.250 . S
C757 O747 1.264 . S
C757 O751 1.248 . S
C758 O748 1.260 . S
C758 O752 1.253 . S
C759 O750 1.279 . S
C759 O753 1.250 . S
O760 Mg742 2.030 . S
O760 C754 1.248 . S
O761 Mg744 2.079 . S
O761 C754 1.264 . S
O762 Mg763 1.990 . S
O762 C776 1.253 . S
Mg763 O762 1.990 . S
Mg763 O766 2.180 . S
Mg763 O767 2.117 . S
Mg763 O781 2.030 . S
O764 Mg765 2.072 . S
O764 C776 1.260 . S
Mg765 O764 2.072 . S
Mg765 O766 2.099 . S
Mg765 O768 2.079 . S
Mg765 O769 2.101 . S
Mg765 O771 2.099 . S
Mg765 O782 2.079 . S
O766 Mg763 2.180 . S
O766 Mg765 2.099 . S
O766 C777 1.279 . S
O767 Mg763 2.117 . S
O767 C777 1.250 . S
O768 Mg765 2.079 . S
O768 C778 1.264 . S
O769 Mg765 2.101 . S
O769 C779 1.237 1_556 S
Mg770 O771 2.180 . S
Mg770 O772 2.030 1_556 S
Mg770 O773 1.990 1_556 S
Mg770 O774 2.117 . S
O771 Mg765 2.099 . S
O771 Mg770 2.180 . S
O771 C780 1.279 . S
O772 Mg770 2.030 1_554 S
O772 C778 1.248 1_554 S
O773 Mg770 1.990 1_554 S
O773 C779 1.253 . S
O774 Mg770 2.117 . S
O774 C780 1.250 . S
C775 O781 1.248 . S
C775 O782 1.264 . S
C776 O762 1.253 . S
C776 O764 1.260 . S
C777 O766 1.279 . S
C777 O767 1.250 . S
C778 O768 1.264 . S
C778 O772 1.248 1_556 S
C779 O769 1.237 1_554 S
C779 O773 1.253 . S
C780 O771 1.279 . S
C780 O774 1.250 . S
O781 Mg763 2.030 . S
O781 C775 1.248 . S
O782 Mg765 2.079 . S
O782 C775 1.264 . S
O783 Mg784 1.990 . S
O783 C797 1.253 . S
Mg784 O783 1.990 . S
Mg784 O787 2.180 . S
Mg784 O788 2.117 . S
Mg784 O802 2.030 . S
O785 Mg786 2.072 . S
O785 C797 1.260 . S
Mg786 O785 2.072 . S
Mg786 O787 2.099 . S
Mg786 O789 2.079 . S
Mg786 O790 2.072 . S
Mg786 O792 2.099 . S
Mg786 O803 2.079 . S
O787 Mg784 2.180 . S
O787 Mg786 2.099 . S
O787 C798 1.279 . S
O788 Mg784 2.117 . S
O788 C798 1.250 . S
O789 Mg786 2.079 . S
O789 C799 1.264 . S
O790 Mg786 2.072 . S
O790 C800 1.260 . S
Mg791 O792 2.180 . S
Mg791 O793 2.030 . S
Mg791 O794 1.990 . S
Mg791 O795 2.117 1_556 S
O792 Mg786 2.099 . S
O792 Mg791 2.180 . S
O792 C801 1.279 . S
O793 Mg791 2.030 . S
O793 C799 1.248 . S
O794 Mg791 1.990 . S
O794 C800 1.253 . S
O795 Mg791 2.117 1_554 S
O795 C801 1.250 1_554 S
C796 O802 1.248 . S
C796 O803 1.264 . S
C797 O783 1.253 . S
C797 O785 1.260 . S
C798 O787 1.279 . S
C798 O788 1.250 . S
C799 O789 1.264 . S
C799 O793 1.248 . S
C800 O790 1.260 . S
C800 O794 1.253 . S
C801 O792 1.279 . S
C801 O795 1.250 1_556 S
O802 Mg784 2.030 . S
O802 C796 1.248 . S
O803 Mg786 2.079 . S
O803 C796 1.264 . S
H804 C810 0.930 . S
H805 C813 0.930 . S
H806 C814 0.930 . S
H807 C815 0.930 . S
H808 C818 0.930 . S
H809 C819 0.930 . S
C810 H804 0.930 . S
C810 C811 1.355 . S
C810 C812 1.415 . S
C811 C810 1.355 . S
C811 C813 1.419 . S
C812 C810 1.415 . S
C812 C817 1.425 . S
C812 C819 1.409 1_455 S
C813 H805 0.930 . S
C813 C811 1.419 . S
C813 C814 1.362 . S
C814 H806 0.930 . S
C814 C813 1.362 . S
C814 C817 1.409 . S
C815 H807 0.930 . S
C815 C816 1.355 . S
C815 C817 1.415 . S
C816 C815 1.355 . S
C816 C818 1.419 1_455 S
C817 C812 1.425 . S
C817 C814 1.409 . S
C817 C815 1.415 . S
C818 H808 0.930 . S
C818 C816 1.419 1_655 S
C818 C819 1.362 . S
C819 H809 0.930 . S
C819 C812 1.409 1_655 S
C819 C818 1.362 . S
H820 C826 0.930 . S
H821 C829 0.930 . S
H822 C830 0.930 . S
H823 C831 0.930 . S
H824 C834 0.930 . S
H825 C835 0.930 . S
C826 H820 0.930 . S
C826 C827 1.355 1_655 S
C826 C828 1.415 . S
C827 C826 1.355 1_455 S
C827 C829 1.419 . S
C828 C826 1.415 . S
C828 C833 1.425 1_655 S
C828 C835 1.409 . S
C829 H821 0.930 . S
C829 C827 1.419 . S
C829 C830 1.362 . S
C830 H822 0.930 . S
C830 C829 1.362 . S
C830 C833 1.409 . S
C831 H823 0.930 . S
C831 C832 1.355 1_455 S
C831 C833 1.415 . S
C832 C831 1.355 1_655 S
C832 C834 1.419 . S
C833 C828 1.425 1_455 S
C833 C830 1.409 . S
C833 C831 1.415 . S
C834 H824 0.930 . S
C834 C832 1.419 . S
C834 C835 1.362 . S
C835 H825 0.930 . S
C835 C828 1.409 . S
C835 C834 1.362 . S
H836 C842 0.930 . S
H837 C845 0.930 . S
H838 C846 0.930 . S
H839 C847 0.930 . S
H840 C850 0.930 . S
H841 C851 0.930 . S
C842 H836 0.930 . S
C842 C843 1.355 . S
C842 C844 1.415 . S
C843 C842 1.355 . S
C843 C845 1.419 . S
C844 C842 1.415 . S
C844 C849 1.425 . S
C844 C851 1.409 . S
C845 H837 0.930 . S
C845 C843 1.419 . S
C845 C846 1.362 . S
C846 H838 0.930 . S
C846 C845 1.362 . S
C846 C849 1.409 . S
C847 H839 0.930 . S
C847 C848 1.355 . S
C847 C849 1.415 . S
C848 C847 1.355 . S
C848 C850 1.419 . S
C849 C844 1.425 . S
C849 C846 1.409 . S
C849 C847 1.415 . S
C850 H840 0.930 . S
C850 C848 1.419 . S
C850 C851 1.362 . S
C851 H841 0.930 . S
C851 C844 1.409 . S
C851 C850 1.362 . S
H852 C858 0.930 . S
H853 C861 0.930 . S
H854 C862 0.930 . S
H855 C863 0.930 . S
H856 C866 0.930 . S
H857 C867 0.930 . S
C858 H852 0.930 . S
C858 C859 1.355 1_655 S
C858 C860 1.415 . S
C859 C858 1.355 1_455 S
C859 C861 1.419 . S
C860 C858 1.415 . S
C860 C865 1.425 1_655 S
C860 C867 1.409 . S
C861 H853 0.930 . S
C861 C859 1.419 . S
C861 C862 1.362 . S
C862 H854 0.930 . S
C862 C861 1.362 . S
C862 C865 1.409 . S
C863 H855 0.930 . S
C863 C864 1.355 1_455 S
C863 C865 1.415 . S
C864 C863 1.355 1_655 S
C864 C866 1.419 . S
C865 C860 1.425 1_455 S
C865 C862 1.409 . S
C865 C863 1.415 . S
C866 H856 0.930 . S
C866 C864 1.419 . S
C866 C867 1.362 . S
C867 H857 0.930 . S
C867 C860 1.409 . S
C867 C866 1.362 . S
H868 C874 0.930 . S
H869 C877 0.930 . S
H870 C878 0.930 . S
H871 C879 0.930 . S
H872 C882 0.930 . S
H873 C883 0.930 . S
C874 H868 0.930 . S
C874 C875 1.355 . S
C874 C876 1.415 . S
C875 C874 1.355 . S
C875 C877 1.419 . S
C876 C874 1.415 . S
C876 C881 1.425 . S
C876 C883 1.409 . S
C877 H869 0.930 . S
C877 C875 1.419 . S
C877 C878 1.362 . S
C878 H870 0.930 . S
C878 C877 1.362 . S
C878 C881 1.409 . S
C879 H871 0.930 . S
C879 C880 1.355 . S
C879 C881 1.415 . S
C880 C879 1.355 . S
C880 C882 1.419 . S
C881 C876 1.425 . S
C881 C878 1.409 . S
C881 C879 1.415 . S
C882 H872 0.930 . S
C882 C880 1.419 . S
C882 C883 1.362 . S
C883 H873 0.930 . S
C883 C876 1.409 . S
C883 C882 1.362 . S
H884 C890 0.930 . S
H885 C893 0.930 . S
H886 C894 0.930 . S
H887 C895 0.930 . S
H888 C898 0.930 . S
H889 C899 0.930 . S
C890 H884 0.930 . S
C890 C891 1.355 . S
C890 C892 1.415 . S
C891 C890 1.355 . S
C891 C893 1.419 . S
C892 C890 1.415 . S
C892 C897 1.425 . S
C892 C899 1.409 . S
C893 H885 0.930 . S
C893 C891 1.419 . S
C893 C894 1.362 . S
C894 H886 0.930 . S
C894 C893 1.362 . S
C894 C897 1.409 . S
C895 H887 0.930 . S
C895 C896 1.355 . S
C895 C897 1.415 . S
C896 C895 1.355 . S
C896 C898 1.419 . S
C897 C892 1.425 . S
C897 C894 1.409 . S
C897 C895 1.415 . S
C898 H888 0.930 . S
C898 C896 1.419 . S
C898 C899 1.362 . S
C899 H889 0.930 . S
C899 C892 1.409 . S
C899 C898 1.362 . S
H900 C906 0.930 . S
H901 C909 0.930 1_545 S
H902 C910 0.930 1_545 S
H903 C911 0.930 . S
H904 C914 0.930 . S
H905 C915 0.930 . S
C906 H900 0.930 . S
C906 C907 1.355 . S
C906 C908 1.415 . S
C907 C906 1.355 . S
C907 C909 1.419 . S
C908 C906 1.415 . S
C908 C913 1.425 . S
C908 C915 1.409 . S
C909 H901 0.930 1_565 S
C909 C907 1.419 . S
C909 C910 1.362 . S
C910 H902 0.930 1_565 S
C910 C909 1.362 . S
C910 C913 1.409 . S
C911 H903 0.930 . S
C911 C912 1.355 . S
C911 C913 1.415 . S
C912 C911 1.355 . S
C912 C914 1.419 . S
C913 C908 1.425 . S
C913 C910 1.409 . S
C913 C911 1.415 . S
C914 H904 0.930 . S
C914 C912 1.419 . S
C914 C915 1.362 . S
C915 H905 0.930 . S
C915 C908 1.409 . S
C915 C914 1.362 . S
H916 C922 0.930 . S
H917 C925 0.930 . S
H918 C926 0.930 . S
H919 C927 0.930 . S
H920 C930 0.930 . S
H921 C931 0.930 . S
C922 H916 0.930 . S
C922 C923 1.355 . S
C922 C924 1.415 . S
C923 C922 1.355 . S
C923 C925 1.419 . S
C924 C922 1.415 . S
C924 C929 1.425 . S
C924 C931 1.409 . S
C925 H917 0.930 . S
C925 C923 1.419 . S
C925 C926 1.362 . S
C926 H918 0.930 . S
C926 C925 1.362 . S
C926 C929 1.409 . S
C927 H919 0.930 . S
C927 C928 1.355 . S
C927 C929 1.415 . S
C928 C927 1.355 . S
C928 C930 1.419 . S
C929 C924 1.425 . S
C929 C926 1.409 . S
C929 C927 1.415 . S
C930 H920 0.930 . S
C930 C928 1.419 . S
C930 C931 1.362 . S
C931 H921 0.930 . S
C931 C924 1.409 . S
C931 C930 1.362 . S
H932 C938 0.930 . S
H933 C941 0.930 . S
H934 C942 0.930 . S
H935 C943 0.930 . S
H936 C946 0.930 . S
H937 C947 0.930 . S
C938 H932 0.930 . S
C938 C939 1.355 . S
C938 C940 1.415 . S
C939 C938 1.355 . S
C939 C941 1.419 . S
C940 C938 1.415 . S
C940 C945 1.425 . S
C940 C947 1.409 1_554 S
C941 H933 0.930 . S
C941 C939 1.419 . S
C941 C942 1.362 . S
C942 H934 0.930 . S
C942 C941 1.362 . S
C942 C945 1.409 . S
C943 H935 0.930 . S
C943 C944 1.355 . S
C943 C945 1.415 . S
C944 C943 1.355 . S
C944 C946 1.419 1_554 S
C945 C940 1.425 . S
C945 C942 1.409 . S
C945 C943 1.415 . S
C946 H936 0.930 . S
C946 C944 1.419 1_556 S
C946 C947 1.362 . S
C947 H937 0.930 . S
C947 C940 1.409 1_556 S
C947 C946 1.362 . S
H948 C954 0.930 . S
H949 C957 0.930 . S
H950 C958 0.930 . S
H951 C959 0.930 . S
H952 C962 0.930 . S
H953 C963 0.930 . S
C954 H948 0.930 . S
C954 C955 1.355 . S
C954 C956 1.415 . S
C955 C954 1.355 . S
C955 C957 1.419 . S
C956 C954 1.415 . S
C956 C961 1.425 . S
C956 C963 1.409 . S
C957 H949 0.930 . S
C957 C955 1.419 . S
C957 C958 1.362 . S
C958 H950 0.930 . S
C958 C957 1.362 . S
C958 C961 1.409 . S
C959 H951 0.930 . S
C959 C960 1.355 . S
C959 C961 1.415 . S
C960 C959 1.355 . S
C960 C962 1.419 . S
C961 C956 1.425 . S
C961 C958 1.409 . S
C961 C959 1.415 . S
C962 H952 0.930 . S
C962 C960 1.419 . S
C962 C963 1.362 . S
C963 H953 0.930 . S
C963 C956 1.409 . S
C963 C962 1.362 . S
H964 C970 0.930 . S
H965 C973 0.930 . S
H966 C974 0.930 . S
H967 C975 0.930 . S
H968 C978 0.930 . S
H969 C979 0.930 . S
C970 H964 0.930 . S
C970 C971 1.355 . S
C970 C972 1.415 . S
C971 C970 1.355 . S
C971 C973 1.419 . S
C972 C970 1.415 . S
C972 C977 1.425 . S
C972 C979 1.409 . S
C973 H965 0.930 . S
C973 C971 1.419 . S
C973 C974 1.362 . S
C974 H966 0.930 . S
C974 C973 1.362 . S
C974 C977 1.409 . S
C975 H967 0.930 . S
C975 C976 1.355 . S
C975 C977 1.415 . S
C976 C975 1.355 . S
C976 C978 1.419 . S
C977 C972 1.425 . S
C977 C974 1.409 . S
C977 C975 1.415 . S
C978 H968 0.930 . S
C978 C976 1.419 . S
C978 C979 1.362 . S
C979 H969 0.930 . S
C979 C972 1.409 . S
C979 C978 1.362 . S
H980 C986 0.930 . S
H981 C989 0.930 . S
H982 C990 0.930 . S
H983 C991 0.930 . S
H984 C994 0.930 . S
H985 C995 0.930 . S
C986 H980 0.930 . S
C986 C987 1.355 . S
C986 C988 1.415 . S
C987 C986 1.355 . S
C987 C989 1.419 . S
C988 C986 1.415 . S
C988 C993 1.425 . S
C988 C995 1.409 . S
C989 H981 0.930 . S
C989 C987 1.419 . S
C989 C990 1.362 . S
C990 H982 0.930 . S
C990 C989 1.362 . S
C990 C993 1.409 . S
C991 H983 0.930 . S
C991 C992 1.355 . S
C991 C993 1.415 . S
C992 C991 1.355 . S
C992 C994 1.419 . S
C993 C988 1.425 . S
C993 C990 1.409 . S
C993 C991 1.415 . S
C994 H984 0.930 . S
C994 C992 1.419 . S
C994 C995 1.362 . S
C995 H985 0.930 . S
C995 C988 1.409 . S
C995 C994 1.362 . S
H996 C1002 0.930 . S
H997 C1005 0.930 . S
H998 C1006 0.930 . S
H999 C1007 0.930 . S
H1000 C1010 0.930 . S
H1001 C1011 0.930 . S
C1002 H996 0.930 . S
C1002 C1003 1.355 . S
C1002 C1004 1.415 . S
C1003 C1002 1.355 . S
C1003 C1005 1.419 . S
C1004 C1002 1.415 . S
C1004 C1009 1.425 . S
C1004 C1011 1.409 . S
C1005 H997 0.930 . S
C1005 C1003 1.419 . S
C1005 C1006 1.362 . S
C1006 H998 0.930 . S
C1006 C1005 1.362 . S
C1006 C1009 1.409 . S
C1007 H999 0.930 . S
C1007 C1008 1.355 . S
C1007 C1009 1.415 . S
C1008 C1007 1.355 . S
C1008 C1010 1.419 . S
C1009 C1004 1.425 . S
C1009 C1006 1.409 . S
C1009 C1007 1.415 . S
C1010 H1000 0.930 . S
C1010 C1008 1.419 . S
C1010 C1011 1.362 . S
C1011 H1001 0.930 . S
C1011 C1004 1.409 . S
C1011 C1010 1.362 . S
H1012 C1018 0.930 . S
H1013 C1021 0.930 . S
H1014 C1022 0.930 . S
H1015 C1023 0.930 . S
H1016 C1026 0.930 . S
H1017 C1027 0.930 . S
C1018 H1012 0.930 . S
C1018 C1019 1.355 . S
C1018 C1020 1.415 . S
C1019 C1018 1.355 . S
C1019 C1021 1.419 . S
C1020 C1018 1.415 . S
C1020 C1025 1.425 . S
C1020 C1027 1.409 . S
C1021 H1013 0.930 . S
C1021 C1019 1.419 . S
C1021 C1022 1.362 . S
C1022 H1014 0.930 . S
C1022 C1021 1.362 . S
C1022 C1025 1.409 . S
C1023 H1015 0.930 . S
C1023 C1024 1.355 . S
C1023 C1025 1.415 . S
C1024 C1023 1.355 . S
C1024 C1026 1.419 . S
C1025 C1020 1.425 . S
C1025 C1022 1.409 . S
C1025 C1023 1.415 . S
C1026 H1016 0.930 . S
C1026 C1024 1.419 . S
C1026 C1027 1.362 . S
C1027 H1017 0.930 . S
C1027 C1020 1.409 . S
C1027 C1026 1.362 . S
H1028 C1034 0.930 . S
H1029 C1037 0.930 . S
H1030 C1038 0.930 . S
H1031 C1039 0.930 . S
H1032 C1042 0.930 . S
H1033 C1043 0.930 . S
C1034 H1028 0.930 . S
C1034 C1035 1.355 . S
C1034 C1036 1.415 . S
C1035 C1034 1.355 . S
C1035 C1037 1.419 . S
C1036 C1034 1.415 . S
C1036 C1041 1.425 . S
C1036 C1043 1.409 . S
C1037 H1029 0.930 . S
C1037 C1035 1.419 . S
C1037 C1038 1.362 . S
C1038 H1030 0.930 . S
C1038 C1037 1.362 . S
C1038 C1041 1.409 . S
C1039 H1031 0.930 . S
C1039 C1040 1.355 . S
C1039 C1041 1.415 . S
C1040 C1039 1.355 . S
C1040 C1042 1.419 . S
C1041 C1036 1.425 . S
C1041 C1038 1.409 . S
C1041 C1039 1.415 . S
C1042 H1032 0.930 . S
C1042 C1040 1.419 . S
C1042 C1043 1.362 . S
C1043 H1033 0.930 . S
C1043 C1036 1.409 . S
C1043 C1042 1.362 . S
H1044 C1050 0.930 . S
H1045 C1053 0.930 . S
H1046 C1054 0.930 . S
H1047 C1055 0.930 . S
H1048 C1058 0.930 . S
H1049 C1059 0.930 . S
C1050 H1044 0.930 . S
C1050 C1051 1.355 . S
C1050 C1052 1.415 . S
C1051 C1050 1.355 . S
C1051 C1053 1.419 . S
C1052 C1050 1.415 . S
C1052 C1057 1.425 . S
C1052 C1059 1.409 . S
C1053 H1045 0.930 . S
C1053 C1051 1.419 . S
C1053 C1054 1.362 . S
C1054 H1046 0.930 . S
C1054 C1053 1.362 . S
C1054 C1057 1.409 . S
C1055 H1047 0.930 . S
C1055 C1056 1.355 . S
C1055 C1057 1.415 . S
C1056 C1055 1.355 . S
C1056 C1058 1.419 . S
C1057 C1052 1.425 . S
C1057 C1054 1.409 . S
C1057 C1055 1.415 . S
C1058 H1048 0.930 . S
C1058 C1056 1.419 . S
C1058 C1059 1.362 . S
C1059 H1049 0.930 . S
C1059 C1052 1.409 . S
C1059 C1058 1.362 . S
H1060 C1066 0.930 . S
H1061 C1069 0.930 . S
H1062 C1070 0.930 . S
H1063 C1071 0.930 . S
H1064 C1074 0.930 . S
H1065 C1075 0.930 . S
C1066 H1060 0.930 . S
C1066 C1067 1.355 . S
C1066 C1068 1.415 . S
C1067 C1066 1.355 . S
C1067 C1069 1.419 . S
C1068 C1066 1.415 . S
C1068 C1073 1.425 . S
C1068 C1075 1.409 . S
C1069 H1061 0.930 . S
C1069 C1067 1.419 . S
C1069 C1070 1.362 . S
C1070 H1062 0.930 . S
C1070 C1069 1.362 . S
C1070 C1073 1.409 . S
C1071 H1063 0.930 . S
C1071 C1072 1.355 . S
C1071 C1073 1.415 . S
C1072 C1071 1.355 . S
C1072 C1074 1.419 . S
C1073 C1068 1.425 . S
C1073 C1070 1.409 . S
C1073 C1071 1.415 . S
C1074 H1064 0.930 . S
C1074 C1072 1.419 . S
C1074 C1075 1.362 . S
C1075 H1065 0.930 . S
C1075 C1068 1.409 . S
C1075 C1074 1.362 . S
H1076 C1082 0.930 . S
H1077 C1085 0.930 . S
H1078 C1086 0.930 . S
H1079 C1087 0.930 . S
H1080 C1090 0.930 . S
H1081 C1091 0.930 . S
C1082 H1076 0.930 . S
C1082 C1083 1.355 . S
C1082 C1084 1.415 . S
C1083 C1082 1.355 . S
C1083 C1085 1.419 . S
C1084 C1082 1.415 . S
C1084 C1089 1.425 . S
C1084 C1091 1.409 . S
C1085 H1077 0.930 . S
C1085 C1083 1.419 . S
C1085 C1086 1.362 . S
C1086 H1078 0.930 . S
C1086 C1085 1.362 . S
C1086 C1089 1.409 . S
C1087 H1079 0.930 . S
C1087 C1088 1.355 . S
C1087 C1089 1.415 . S
C1088 C1087 1.355 . S
C1088 C1090 1.419 . S
C1089 C1084 1.425 . S
C1089 C1086 1.409 . S
C1089 C1087 1.415 . S
C1090 H1080 0.930 . S
C1090 C1088 1.419 . S
C1090 C1091 1.362 . S
C1091 H1081 0.930 . S
C1091 C1084 1.409 . S
C1091 C1090 1.362 . S
H1092 C1098 0.930 . S
H1093 C1101 0.930 . S
H1094 C1102 0.930 . S
H1095 C1103 0.930 . S
H1096 C1106 0.930 . S
H1097 C1107 0.930 . S
C1098 H1092 0.930 . S
C1098 C1099 1.355 . S
C1098 C1100 1.415 . S
C1099 C1098 1.355 . S
C1099 C1101 1.419 . S
C1100 C1098 1.415 . S
C1100 C1105 1.425 . S
C1100 C1107 1.409 . S
C1101 H1093 0.930 . S
C1101 C1099 1.419 . S
C1101 C1102 1.362 . S
C1102 H1094 0.930 . S
C1102 C1101 1.362 . S
C1102 C1105 1.409 . S
C1103 H1095 0.930 . S
C1103 C1104 1.355 . S
C1103 C1105 1.415 . S
C1104 C1103 1.355 . S
C1104 C1106 1.419 . S
C1105 C1100 1.425 . S
C1105 C1102 1.409 . S
C1105 C1103 1.415 . S
C1106 H1096 0.930 . S
C1106 C1104 1.419 . S
C1106 C1107 1.362 . S
C1107 H1097 0.930 . S
C1107 C1100 1.409 . S
C1107 C1106 1.362 . S
H1108 C1114 0.930 . S
H1109 C1117 0.930 . S
H1110 C1118 0.930 . S
H1111 C1119 0.930 . S
H1112 C1122 0.930 . S
H1113 C1123 0.930 . S
C1114 H1108 0.930 . S
C1114 C1115 1.355 . S
C1114 C1116 1.415 . S
C1115 C1114 1.355 . S
C1115 C1117 1.419 . S
C1116 C1114 1.415 . S
C1116 C1121 1.425 . S
C1116 C1123 1.409 . S
C1117 H1109 0.930 . S
C1117 C1115 1.419 . S
C1117 C1118 1.362 . S
C1118 H1110 0.930 . S
C1118 C1117 1.362 . S
C1118 C1121 1.409 . S
C1119 H1111 0.930 . S
C1119 C1120 1.355 . S
C1119 C1121 1.415 . S
C1120 C1119 1.355 . S
C1120 C1122 1.419 . S
C1121 C1116 1.425 . S
C1121 C1118 1.409 . S
C1121 C1119 1.415 . S
C1122 H1112 0.930 . S
C1122 C1120 1.419 . S
C1122 C1123 1.362 . S
C1123 H1113 0.930 . S
C1123 C1116 1.409 . S
C1123 C1122 1.362 . S
H1124 C1130 0.930 . S
H1125 C1133 0.930 . S
H1126 C1134 0.930 . S
H1127 C1135 0.930 . S
H1128 C1138 0.930 . S
H1129 C1139 0.930 . S
C1130 H1124 0.930 . S
C1130 C1131 1.355 . S
C1130 C1132 1.415 . S
C1131 C1130 1.355 . S
C1131 C1133 1.419 . S
C1132 C1130 1.415 . S
C1132 C1137 1.425 . S
C1132 C1139 1.409 . S
C1133 H1125 0.930 . S
C1133 C1131 1.419 . S
C1133 C1134 1.362 . S
C1134 H1126 0.930 . S
C1134 C1133 1.362 . S
C1134 C1137 1.409 . S
C1135 H1127 0.930 . S
C1135 C1136 1.355 . S
C1135 C1137 1.415 . S
C1136 C1135 1.355 . S
C1136 C1138 1.419 . S
C1137 C1132 1.425 . S
C1137 C1134 1.409 . S
C1137 C1135 1.415 . S
C1138 H1128 0.930 . S
C1138 C1136 1.419 . S
C1138 C1139 1.362 . S
C1139 H1129 0.930 . S
C1139 C1132 1.409 . S
C1139 C1138 1.362 . S
H1140 C1146 0.930 . S
H1141 C1149 0.930 . S
H1142 C1150 0.930 . S
H1143 C1151 0.930 . S
H1144 C1154 0.930 . S
H1145 C1155 0.930 . S
C1146 H1140 0.930 . S
C1146 C1147 1.355 . S
C1146 C1148 1.415 1_554 S
C1147 C1146 1.355 . S
C1147 C1149 1.419 1_554 S
C1148 C1146 1.415 1_556 S
C1148 C1153 1.425 . S
C1148 C1155 1.409 . S
C1149 H1141 0.930 . S
C1149 C1147 1.419 1_556 S
C1149 C1150 1.362 . S
C1150 H1142 0.930 . S
C1150 C1149 1.362 . S
C1150 C1153 1.409 . S
C1151 H1143 0.930 . S
C1151 C1152 1.355 . S
C1151 C1153 1.415 . S
C1152 C1151 1.355 . S
C1152 C1154 1.419 . S
C1153 C1148 1.425 . S
C1153 C1150 1.409 . S
C1153 C1151 1.415 . S
C1154 H1144 0.930 . S
C1154 C1152 1.419 . S
C1154 C1155 1.362 . S
C1155 H1145 0.930 . S
C1155 C1148 1.409 . S
C1155 C1154 1.362 . S
H1156 C1162 0.930 . S
H1157 C1165 0.930 . S
H1158 C1166 0.930 . S
H1159 C1167 0.930 . S
H1160 C1170 0.930 . S
H1161 C1171 0.930 . S
C1162 H1156 0.930 . S
C1162 C1163 1.355 1_556 S
C1162 C1164 1.415 . S
C1163 C1162 1.355 1_554 S
C1163 C1165 1.419 . S
C1164 C1162 1.415 . S
C1164 C1169 1.425 1_556 S
C1164 C1171 1.409 . S
C1165 H1157 0.930 . S
C1165 C1163 1.419 . S
C1165 C1166 1.362 . S
C1166 H1158 0.930 . S
C1166 C1165 1.362 . S
C1166 C1169 1.409 . S
C1167 H1159 0.930 . S
C1167 C1168 1.340 1_554 S
C1167 C1169 1.415 . S
C1168 C1167 1.340 1_556 S
C1168 C1170 1.435 . S
C1169 C1164 1.425 1_554 S
C1169 C1166 1.409 . S
C1169 C1167 1.415 . S
C1170 H1160 0.930 . S
C1170 C1168 1.435 . S
C1170 C1171 1.362 . S
C1171 H1161 0.930 . S
C1171 C1164 1.409 . S
C1171 C1170 1.362 . S
H1172 C1178 0.930 . S
H1173 C1181 0.930 . S
H1174 C1182 0.930 . S
H1175 C1183 0.930 . S
H1176 C1186 0.930 1_556 S
H1177 C1187 0.930 1_556 S
C1178 H1172 0.930 . S
C1178 C1179 1.355 . S
C1178 C1180 1.415 . S
C1179 C1178 1.355 . S
C1179 C1181 1.419 . S
C1180 C1178 1.415 . S
C1180 C1185 1.425 . S
C1180 C1187 1.409 . S
C1181 H1173 0.930 . S
C1181 C1179 1.419 . S
C1181 C1182 1.362 . S
C1182 H1174 0.930 . S
C1182 C1181 1.362 . S
C1182 C1185 1.409 . S
C1183 H1175 0.930 . S
C1183 C1184 1.355 . S
C1183 C1185 1.415 . S
C1184 C1183 1.355 . S
C1184 C1186 1.419 . S
C1185 C1180 1.425 . S
C1185 C1182 1.409 . S
C1185 C1183 1.415 . S
C1186 H1176 0.930 1_554 S
C1186 C1184 1.419 . S
C1186 C1187 1.362 . S
C1187 H1177 0.930 1_554 S
C1187 C1180 1.409 . S
C1187 C1186 1.362 . S
H1188 C1194 0.930 . S
H1189 C1197 0.930 . S
H1190 C1198 0.930 . S
H1191 C1199 0.930 . S
H1192 C1202 0.930 . S
H1193 C1203 0.930 1_655 S
C1194 H1188 0.930 . S
C1194 C1195 1.355 . S
C1194 C1196 1.415 . S
C1195 C1194 1.355 . S
C1195 C1197 1.419 . S
C1196 C1194 1.415 . S
C1196 C1201 1.425 . S
C1196 C1203 1.409 . S
C1197 H1189 0.930 . S
C1197 C1195 1.419 . S
C1197 C1198 1.362 . S
C1198 H1190 0.930 . S
C1198 C1197 1.362 . S
C1198 C1201 1.409 . S
C1199 H1191 0.930 . S
C1199 C1200 1.355 . S
C1199 C1201 1.415 . S
C1200 C1199 1.355 . S
C1200 C1202 1.419 . S
C1201 C1196 1.425 . S
C1201 C1198 1.409 . S
C1201 C1199 1.415 . S
C1202 H1192 0.930 . S
C1202 C1200 1.419 . S
C1202 C1203 1.362 . S
C1203 H1193 0.930 1_455 S
C1203 C1196 1.409 . S
C1203 C1202 1.362 . S
H1204 C1210 0.930 . S
H1205 C1213 0.930 . S
H1206 C1214 0.930 . S
H1207 C1215 0.930 . S
H1208 C1218 0.930 . S
H1209 C1219 0.930 . S
C1210 H1204 0.930 . S
C1210 C1211 1.355 . S
C1210 C1212 1.415 . S
C1211 C1210 1.355 . S
C1211 C1213 1.419 1_455 S
C1212 C1210 1.415 . S
C1212 C1217 1.425 1_455 S
C1212 C1219 1.409 . S
C1213 H1205 0.930 . S
C1213 C1211 1.419 1_655 S
C1213 C1214 1.362 . S
C1214 H1206 0.930 . S
C1214 C1213 1.362 . S
C1214 C1217 1.409 . S
C1215 H1207 0.930 . S
C1215 C1216 1.355 . S
C1215 C1217 1.415 . S
C1216 C1215 1.355 . S
C1216 C1218 1.419 1_655 S
C1217 C1212 1.425 1_655 S
C1217 C1214 1.409 . S
C1217 C1215 1.415 . S
C1218 H1208 0.930 . S
C1218 C1216 1.419 1_455 S
C1218 C1219 1.362 . S
C1219 H1209 0.930 . S
C1219 C1212 1.409 . S
C1219 C1218 1.362 . S
H1220 C1226 0.930 . S
H1221 C1229 0.930 . S
H1222 C1230 0.930 . S
H1223 C1231 0.930 . S
H1224 C1234 0.930 . S
H1225 C1235 0.930 . S
C1226 H1220 0.930 . S
C1226 C1227 1.355 . S
C1226 C1228 1.415 . S
C1227 C1226 1.355 . S
C1227 C1229 1.419 1_455 S
C1228 C1226 1.415 . S
C1228 C1233 1.425 . S
C1228 C1235 1.409 . S
C1229 H1221 0.930 . S
C1229 C1227 1.419 1_655 S
C1229 C1230 1.362 . S
C1230 H1222 0.930 . S
C1230 C1229 1.362 . S
C1230 C1233 1.409 1_655 S
C1231 H1223 0.930 . S
C1231 C1232 1.355 1_655 S
C1231 C1233 1.415 1_655 S
C1232 C1231 1.355 1_455 S
C1232 C1234 1.419 . S
C1233 C1228 1.425 . S
C1233 C1230 1.409 1_455 S
C1233 C1231 1.415 1_455 S
C1234 H1224 0.930 . S
C1234 C1232 1.419 . S
C1234 C1235 1.362 . S
C1235 H1225 0.930 . S
C1235 C1228 1.409 . S
C1235 C1234 1.362 . S
H1236 C1242 0.930 . S
H1237 C1245 0.930 . S
H1238 C1246 0.930 . S
H1239 C1247 0.930 1_455 S
H1240 C1250 0.930 . S
H1241 C1251 0.930 . S
C1242 H1236 0.930 . S
C1242 C1243 1.355 . S
C1242 C1244 1.415 . S
C1243 C1242 1.355 . S
C1243 C1245 1.419 1_655 S
C1244 C1242 1.415 . S
C1244 C1249 1.425 . S
C1244 C1251 1.409 . S
C1245 H1237 0.930 . S
C1245 C1243 1.419 1_455 S
C1245 C1246 1.362 . S
C1246 H1238 0.930 . S
C1246 C1245 1.362 . S
C1246 C1249 1.409 1_455 S
C1247 H1239 0.930 1_655 S
C1247 C1248 1.355 . S
C1247 C1249 1.415 . S
C1248 C1247 1.355 . S
C1248 C1250 1.419 . S
C1249 C1244 1.425 . S
C1249 C1246 1.409 1_655 S
C1249 C1247 1.415 . S
C1250 H1240 0.930 . S
C1250 C1248 1.419 . S
C1250 C1251 1.362 . S
C1251 H1241 0.930 . S
C1251 C1244 1.409 . S
C1251 C1250 1.362 . S
H1252 C1258 0.930 . S
H1253 C1261 0.930 . S
H1254 C1262 0.930 . S
H1255 C1263 0.930 . S
H1256 C1266 0.930 . S
H1257 C1267 0.930 . S
C1258 H1252 0.930 . S
C1258 C1259 1.355 . S
C1258 C1260 1.415 . S
C1259 C1258 1.355 . S
C1259 C1261 1.419 . S
C1260 C1258 1.415 . S
C1260 C1265 1.425 . S
C1260 C1267 1.409 . S
C1261 H1253 0.930 . S
C1261 C1259 1.419 . S
C1261 C1262 1.362 . S
C1262 H1254 0.930 . S
C1262 C1261 1.362 . S
C1262 C1265 1.409 . S
C1263 H1255 0.930 . S
C1263 C1264 1.355 . S
C1263 C1265 1.415 . S
C1264 C1263 1.355 . S
C1264 C1266 1.419 . S
C1265 C1260 1.425 . S
C1265 C1262 1.409 . S
C1265 C1263 1.415 . S
C1266 H1256 0.930 . S
C1266 C1264 1.419 . S
C1266 C1267 1.362 . S
C1267 H1257 0.930 . S
C1267 C1260 1.409 . S
C1267 C1266 1.362 . S
H1268 C1274 0.930 . S
H1269 C1277 0.930 . S
H1270 C1278 0.930 . S
H1271 C1279 0.930 . S
H1272 C1282 0.930 . S
H1273 C1283 0.930 . S
C1274 H1268 0.930 . S
C1274 C1275 1.355 . S
C1274 C1276 1.415 . S
C1275 C1274 1.355 . S
C1275 C1277 1.419 . S
C1276 C1274 1.415 . S
C1276 C1281 1.425 . S
C1276 C1283 1.409 . S
C1277 H1269 0.930 . S
C1277 C1275 1.419 . S
C1277 C1278 1.362 . S
C1278 H1270 0.930 . S
C1278 C1277 1.362 . S
C1278 C1281 1.409 . S
C1279 H1271 0.930 . S
C1279 C1280 1.355 . S
C1279 C1281 1.415 . S
C1280 C1279 1.355 . S
C1280 C1282 1.419 . S
C1281 C1276 1.425 . S
C1281 C1278 1.409 . S
C1281 C1279 1.415 . S
C1282 H1272 0.930 . S
C1282 C1280 1.419 . S
C1282 C1283 1.362 . S
C1283 H1273 0.930 . S
C1283 C1276 1.409 . S
C1283 C1282 1.362 . S
H1284 C1290 0.930 1_545 S
H1285 C1293 0.930 . S
H1286 C1294 0.930 . S
H1287 C1295 0.930 . S
H1288 C1298 0.930 . S
H1289 C1299 0.930 1_545 S
C1290 H1284 0.930 1_565 S
C1290 C1291 1.355 . S
C1290 C1292 1.415 . S
C1291 C1290 1.355 . S
C1291 C1293 1.419 . S
C1292 C1290 1.415 . S
C1292 C1297 1.425 . S
C1292 C1299 1.409 . S
C1293 H1285 0.930 . S
C1293 C1291 1.419 . S
C1293 C1294 1.362 . S
C1294 H1286 0.930 . S
C1294 C1293 1.362 . S
C1294 C1297 1.409 . S
C1295 H1287 0.930 . S
C1295 C1296 1.355 . S
C1295 C1297 1.415 . S
C1296 C1295 1.355 . S
C1296 C1298 1.419 . S
C1297 C1292 1.425 . S
C1297 C1294 1.409 . S
C1297 C1295 1.415 . S
C1298 H1288 0.930 . S
C1298 C1296 1.419 . S
C1298 C1299 1.362 . S
C1299 H1289 0.930 1_565 S
C1299 C1292 1.409 . S
C1299 C1298 1.362 . S
H1300 C1306 0.930 . S
H1301 C1309 0.930 . S
H1302 C1310 0.930 . S
H1303 C1311 0.930 . S
H1304 C1314 0.930 . S
H1305 C1315 0.930 . S
C1306 H1300 0.930 . S
C1306 C1307 1.355 . S
C1306 C1308 1.415 . S
C1307 C1306 1.355 . S
C1307 C1309 1.419 . S
C1308 C1306 1.415 . S
C1308 C1313 1.425 . S
C1308 C1315 1.409 . S
C1309 H1301 0.930 . S
C1309 C1307 1.419 . S
C1309 C1310 1.362 . S
C1310 H1302 0.930 . S
C1310 C1309 1.362 . S
C1310 C1313 1.409 . S
C1311 H1303 0.930 . S
C1311 C1312 1.355 . S
C1311 C1313 1.415 . S
C1312 C1311 1.355 . S
C1312 C1314 1.419 . S
C1313 C1308 1.425 . S
C1313 C1310 1.409 . S
C1313 C1311 1.415 . S
C1314 H1304 0.930 . S
C1314 C1312 1.419 . S
C1314 C1315 1.362 . S
C1315 H1305 0.930 . S
C1315 C1308 1.409 . S
C1315 C1314 1.362 . S
H1316 C1322 0.930 . S
H1317 C1325 0.930 . S
H1318 C1326 0.930 . S
H1319 C1327 0.930 . S
H1320 C1330 0.930 1_556 S
H1321 C1331 0.930 . S
C1322 H1316 0.930 . S
C1322 C1323 1.355 . S
C1322 C1324 1.415 . S
C1323 C1322 1.355 . S
C1323 C1325 1.419 . S
C1324 C1322 1.415 . S
C1324 C1329 1.425 . S
C1324 C1331 1.409 1_554 S
C1325 H1317 0.930 . S
C1325 C1323 1.419 . S
C1325 C1326 1.362 . S
C1326 H1318 0.930 . S
C1326 C1325 1.362 . S
C1326 C1329 1.409 . S
C1327 H1319 0.930 . S
C1327 C1328 1.355 . S
C1327 C1329 1.415 . S
C1328 C1327 1.355 . S
C1328 C1330 1.419 . S
C1329 C1324 1.425 . S
C1329 C1326 1.409 . S
C1329 C1327 1.415 . S
C1330 H1320 0.930 1_554 S
C1330 C1328 1.419 . S
C1330 C1331 1.362 1_554 S
C1331 H1321 0.930 . S
C1331 C1324 1.409 1_556 S
C1331 C1330 1.362 1_556 S
H1332 C1338 0.930 . S
H1333 C1341 0.930 . S
H1334 C1342 0.930 . S
H1335 C1343 0.930 . S
H1336 C1346 0.930 . S
H1337 C1347 0.930 . S
C1338 H1332 0.930 . S
C1338 C1339 1.355 . S
C1338 C1340 1.415 . S
C1339 C1338 1.355 . S
C1339 C1341 1.419 . S
C1340 C1338 1.415 . S
C1340 C1345 1.425 . S
C1340 C1347 1.409 . S
C1341 H1333 0.930 . S
C1341 C1339 1.419 . S
C1341 C1342 1.362 . S
C1342 H1334 0.930 . S
C1342 C1341 1.362 . S
C1342 C1345 1.409 . S
C1343 H1335 0.930 . S
C1343 C1344 1.355 . S
C1343 C1345 1.415 . S
C1344 C1343 1.355 . S
C1344 C1346 1.419 . S
C1345 C1340 1.425 . S
C1345 C1342 1.409 . S
C1345 C1343 1.415 . S
C1346 H1336 0.930 . S
C1346 C1344 1.419 . S
C1346 C1347 1.362 . S
C1347 H1337 0.930 . S
C1347 C1340 1.409 . S
C1347 C1346 1.362 . S
H1348 C1354 0.930 . S
H1349 C1357 0.930 . S
H1350 C1358 0.930 . S
H1351 C1359 0.930 . S
H1352 C1362 0.930 . S
H1353 C1363 0.930 . S
C1354 H1348 0.930 . S
C1354 C1355 1.355 . S
C1354 C1356 1.415 . S
C1355 C1354 1.355 . S
C1355 C1357 1.419 . S
C1356 C1354 1.415 . S
C1356 C1361 1.425 . S
C1356 C1363 1.409 . S
C1357 H1349 0.930 . S
C1357 C1355 1.419 . S
C1357 C1358 1.362 . S
C1358 H1350 0.930 . S
C1358 C1357 1.362 . S
C1358 C1361 1.409 . S
C1359 H1351 0.930 . S
C1359 C1360 1.355 . S
C1359 C1361 1.415 . S
C1360 C1359 1.355 . S
C1360 C1362 1.419 . S
C1361 C1356 1.425 . S
C1361 C1358 1.409 . S
C1361 C1359 1.415 . S
C1362 H1352 0.930 . S
C1362 C1360 1.419 . S
C1362 C1363 1.362 . S
C1363 H1353 0.930 . S
C1363 C1356 1.409 . S
C1363 C1362 1.362 . S
H1364 C1370 0.930 . S
H1365 C1373 0.930 . S
H1366 C1374 0.930 . S
H1367 C1375 0.930 . S
H1368 C1378 0.930 . S
H1369 C1379 0.930 . S
C1370 H1364 0.930 . S
C1370 C1371 1.355 . S
C1370 C1372 1.415 . S
C1371 C1370 1.355 . S
C1371 C1373 1.419 . S
C1372 C1370 1.415 . S
C1372 C1377 1.425 . S
C1372 C1379 1.409 . S
C1373 H1365 0.930 . S
C1373 C1371 1.419 . S
C1373 C1374 1.362 . S
C1374 H1366 0.930 . S
C1374 C1373 1.362 . S
C1374 C1377 1.409 . S
C1375 H1367 0.930 . S
C1375 C1376 1.355 . S
C1375 C1377 1.415 . S
C1376 C1375 1.355 . S
C1376 C1378 1.419 . S
C1377 C1372 1.425 . S
C1377 C1374 1.409 . S
C1377 C1375 1.415 . S
C1378 H1368 0.930 . S
C1378 C1376 1.419 . S
C1378 C1379 1.362 . S
C1379 H1369 0.930 . S
C1379 C1372 1.409 . S
C1379 C1378 1.362 . S
H1380 C1386 0.930 . S
H1381 C1389 0.930 . S
H1382 C1390 0.930 . S
H1383 C1391 0.930 . S
H1384 C1394 0.930 . S
H1385 C1395 0.930 . S
C1386 H1380 0.930 . S
C1386 C1387 1.355 . S
C1386 C1388 1.415 . S
C1387 C1386 1.355 . S
C1387 C1389 1.419 . S
C1388 C1386 1.415 . S
C1388 C1393 1.425 . S
C1388 C1395 1.409 . S
C1389 H1381 0.930 . S
C1389 C1387 1.419 . S
C1389 C1390 1.362 . S
C1390 H1382 0.930 . S
C1390 C1389 1.362 . S
C1390 C1393 1.409 . S
C1391 H1383 0.930 . S
C1391 C1392 1.355 . S
C1391 C1393 1.415 . S
C1392 C1391 1.355 . S
C1392 C1394 1.419 . S
C1393 C1388 1.425 . S
C1393 C1390 1.409 . S
C1393 C1391 1.415 . S
C1394 H1384 0.930 . S
C1394 C1392 1.419 . S
C1394 C1395 1.362 . S
C1395 H1385 0.930 . S
C1395 C1388 1.409 . S
C1395 C1394 1.362 . S
H1396 C1402 0.930 . S
H1397 C1405 0.930 . S
H1398 C1406 0.930 . S
H1399 C1407 0.930 . S
H1400 C1410 0.930 . S
H1401 C1411 0.930 . S
C1402 H1396 0.930 . S
C1402 C1403 1.355 . S
C1402 C1404 1.415 . S
C1403 C1402 1.355 . S
C1403 C1405 1.419 . S
C1404 C1402 1.415 . S
C1404 C1409 1.425 . S
C1404 C1411 1.409 . S
C1405 H1397 0.930 . S
C1405 C1403 1.419 . S
C1405 C1406 1.362 . S
C1406 H1398 0.930 . S
C1406 C1405 1.362 . S
C1406 C1409 1.409 . S
C1407 H1399 0.930 . S
C1407 C1408 1.355 . S
C1407 C1409 1.415 . S
C1408 C1407 1.355 . S
C1408 C1410 1.419 . S
C1409 C1404 1.425 . S
C1409 C1406 1.409 . S
C1409 C1407 1.415 . S
C1410 H1400 0.930 . S
C1410 C1408 1.419 . S
C1410 C1411 1.362 . S
C1411 H1401 0.930 . S
C1411 C1404 1.409 . S
C1411 C1410 1.362 . S
H1412 C1418 0.930 . S
H1413 C1421 0.930 . S
H1414 C1422 0.930 . S
H1415 C1423 0.930 . S
H1416 C1426 0.930 . S
H1417 C1427 0.930 . S
C1418 H1412 0.930 . S
C1418 C1419 1.355 . S
C1418 C1420 1.415 . S
C1419 C1418 1.355 . S
C1419 C1421 1.419 . S
C1420 C1418 1.415 . S
C1420 C1425 1.425 . S
C1420 C1427 1.409 . S
C1421 H1413 0.930 . S
C1421 C1419 1.419 . S
C1421 C1422 1.362 . S
C1422 H1414 0.930 . S
C1422 C1421 1.362 . S
C1422 C1425 1.409 . S
C1423 H1415 0.930 . S
C1423 C1424 1.355 . S
C1423 C1425 1.415 . S
C1424 C1423 1.355 . S
C1424 C1426 1.419 . S
C1425 C1420 1.425 . S
C1425 C1422 1.409 . S
C1425 C1423 1.415 . S
C1426 H1416 0.930 . S
C1426 C1424 1.419 . S
C1426 C1427 1.362 . S
C1427 H1417 0.930 . S
C1427 C1420 1.409 . S
C1427 C1426 1.362 . S
H1428 C1434 0.930 . S
H1429 C1437 0.930 . S
H1430 C1438 0.930 . S
H1431 C1439 0.930 . S
H1432 C1442 0.930 . S
H1433 C1443 0.930 . S
C1434 H1428 0.930 . S
C1434 C1435 1.355 . S
C1434 C1436 1.415 . S
C1435 C1434 1.355 . S
C1435 C1437 1.419 . S
C1436 C1434 1.415 . S
C1436 C1441 1.425 . S
C1436 C1443 1.409 . S
C1437 H1429 0.930 . S
C1437 C1435 1.419 . S
C1437 C1438 1.362 . S
C1438 H1430 0.930 . S
C1438 C1437 1.362 . S
C1438 C1441 1.409 . S
C1439 H1431 0.930 . S
C1439 C1440 1.355 . S
C1439 C1441 1.415 . S
C1440 C1439 1.355 . S
C1440 C1442 1.419 . S
C1441 C1436 1.425 . S
C1441 C1438 1.409 . S
C1441 C1439 1.415 . S
C1442 H1432 0.930 . S
C1442 C1440 1.419 . S
C1442 C1443 1.362 . S
C1443 H1433 0.930 . S
C1443 C1436 1.409 . S
C1443 C1442 1.362 . S
H1444 C1450 0.930 . S
H1445 C1453 0.930 . S
H1446 C1454 0.930 . S
H1447 C1455 0.930 . S
H1448 C1458 0.930 . S
H1449 C1459 0.930 . S
C1450 H1444 0.930 . S
C1450 C1451 1.355 . S
C1450 C1452 1.415 . S
C1451 C1450 1.355 . S
C1451 C1453 1.419 . S
C1452 C1450 1.415 . S
C1452 C1457 1.425 . S
C1452 C1459 1.409 . S
C1453 H1445 0.930 . S
C1453 C1451 1.419 . S
C1453 C1454 1.362 . S
C1454 H1446 0.930 . S
C1454 C1453 1.362 . S
C1454 C1457 1.409 . S
C1455 H1447 0.930 . S
C1455 C1456 1.355 . S
C1455 C1457 1.415 . S
C1456 C1455 1.355 . S
C1456 C1458 1.419 . S
C1457 C1452 1.425 . S
C1457 C1454 1.409 . S
C1457 C1455 1.415 . S
C1458 H1448 0.930 . S
C1458 C1456 1.419 . S
C1458 C1459 1.362 . S
C1459 H1449 0.930 . S
C1459 C1452 1.409 . S
C1459 C1458 1.362 . S
H1460 C1466 0.930 . S
H1461 C1469 0.930 1_545 S
H1462 C1470 0.930 1_545 S
H1463 C1471 0.930 . S
H1464 C1474 0.930 . S
H1465 C1475 0.930 . S
C1466 H1460 0.930 . S
C1466 C1467 1.355 . S
C1466 C1468 1.415 . S
C1467 C1466 1.355 . S
C1467 C1469 1.419 . S
C1468 C1466 1.415 . S
C1468 C1473 1.425 . S
C1468 C1475 1.409 . S
C1469 H1461 0.930 1_565 S
C1469 C1467 1.419 . S
C1469 C1470 1.362 . S
C1470 H1462 0.930 1_565 S
C1470 C1469 1.362 . S
C1470 C1473 1.409 . S
C1471 H1463 0.930 . S
C1471 C1472 1.355 . S
C1471 C1473 1.415 . S
C1472 C1471 1.355 . S
C1472 C1474 1.419 . S
C1473 C1468 1.425 . S
C1473 C1470 1.409 . S
C1473 C1471 1.415 . S
C1474 H1464 0.930 . S
C1474 C1472 1.419 . S
C1474 C1475 1.362 . S
C1475 H1465 0.930 . S
C1475 C1468 1.409 . S
C1475 C1474 1.362 . S
H1476 C1482 0.930 . S
H1477 C1485 0.930 . S
H1478 C1486 0.930 . S
H1479 C1487 0.930 . S
H1480 C1490 0.930 . S
H1481 C1491 0.930 . S
C1482 H1476 0.930 . S
C1482 C1483 1.355 . S
C1482 C1484 1.415 . S
C1483 C1482 1.355 . S
C1483 C1485 1.419 . S
C1484 C1482 1.415 . S
C1484 C1489 1.425 . S
C1484 C1491 1.409 . S
C1485 H1477 0.930 . S
C1485 C1483 1.419 . S
C1485 C1486 1.362 . S
C1486 H1478 0.930 . S
C1486 C1485 1.362 . S
C1486 C1489 1.409 . S
C1487 H1479 0.930 . S
C1487 C1488 1.355 . S
C1487 C1489 1.415 . S
C1488 C1487 1.355 . S
C1488 C1490 1.419 . S
C1489 C1484 1.425 . S
C1489 C1486 1.409 . S
C1489 C1487 1.415 . S
C1490 H1480 0.930 . S
C1490 C1488 1.419 . S
C1490 C1491 1.362 . S
C1491 H1481 0.930 . S
C1491 C1484 1.409 . S
C1491 C1490 1.362 . S
H1492 C1498 0.930 . S
H1493 C1501 0.930 . S
H1494 C1502 0.930 . S
H1495 C1503 0.930 . S
H1496 C1506 0.930 . S
H1497 C1507 0.930 . S
C1498 H1492 0.930 . S
C1498 C1499 1.355 . S
C1498 C1500 1.415 . S
C1499 C1498 1.355 . S
C1499 C1501 1.419 . S
C1500 C1498 1.415 . S
C1500 C1505 1.425 . S
C1500 C1507 1.409 . S
C1501 H1493 0.930 . S
C1501 C1499 1.419 . S
C1501 C1502 1.362 . S
C1502 H1494 0.930 . S
C1502 C1501 1.362 . S
C1502 C1505 1.409 . S
C1503 H1495 0.930 . S
C1503 C1504 1.355 . S
C1503 C1505 1.415 . S
C1504 C1503 1.355 . S
C1504 C1506 1.419 . S
C1505 C1500 1.425 . S
C1505 C1502 1.409 . S
C1505 C1503 1.415 . S
C1506 H1496 0.930 . S
C1506 C1504 1.419 . S
C1506 C1507 1.362 . S
C1507 H1497 0.930 . S
C1507 C1500 1.409 . S
C1507 C1506 1.362 . S
H1508 C1514 0.930 . S
H1509 C1517 0.930 . S
H1510 C1518 0.930 . S
H1511 C1519 0.930 . S
H1512 C1522 0.930 . S
H1513 C1523 0.930 . S
C1514 H1508 0.930 . S
C1514 C1515 1.355 . S
C1514 C1516 1.415 . S
C1515 C1514 1.355 . S
C1515 C1517 1.419 . S
C1516 C1514 1.415 . S
C1516 C1521 1.425 . S
C1516 C1523 1.409 . S
C1517 H1509 0.930 . S
C1517 C1515 1.419 . S
C1517 C1518 1.362 . S
C1518 H1510 0.930 . S
C1518 C1517 1.362 . S
C1518 C1521 1.409 . S
C1519 H1511 0.930 . S
C1519 C1520 1.355 . S
C1519 C1521 1.415 . S
C1520 C1519 1.355 . S
C1520 C1522 1.419 . S
C1521 C1516 1.425 . S
C1521 C1518 1.409 . S
C1521 C1519 1.415 . S
C1522 H1512 0.930 . S
C1522 C1520 1.419 . S
C1522 C1523 1.362 . S
C1523 H1513 0.930 . S
C1523 C1516 1.409 . S
C1523 C1522 1.362 . S
H1524 C1530 0.930 . S
H1525 C1533 0.930 . S
H1526 C1534 0.930 . S
H1527 C1535 0.930 . S
H1528 C1538 0.930 . S
H1529 C1539 0.930 . S
C1530 H1524 0.930 . S
C1530 C1531 1.355 1_556 S
C1530 C1532 1.415 . S
C1531 C1530 1.355 1_554 S
C1531 C1533 1.419 . S
C1532 C1530 1.415 . S
C1532 C1537 1.425 1_556 S
C1532 C1539 1.409 . S
C1533 H1525 0.930 . S
C1533 C1531 1.419 . S
C1533 C1534 1.362 . S
C1534 H1526 0.930 . S
C1534 C1533 1.362 . S
C1534 C1537 1.409 . S
C1535 H1527 0.930 . S
C1535 C1536 1.355 1_554 S
C1535 C1537 1.415 . S
C1536 C1535 1.355 1_556 S
C1536 C1538 1.419 . S
C1537 C1532 1.425 1_554 S
C1537 C1534 1.409 . S
C1537 C1535 1.415 . S
C1538 H1528 0.930 . S
C1538 C1536 1.419 . S
C1538 C1539 1.362 . S
C1539 H1529 0.930 . S
C1539 C1532 1.409 . S
C1539 C1538 1.362 . S
H1540 C1546 0.930 . S
H1541 C1549 0.930 . S
H1542 C1550 0.930 . S
H1543 C1551 0.930 1_554 S
H1544 C1554 0.930 . S
H1545 C1555 0.930 . S
C1546 H1540 0.930 . S
C1546 C1547 1.355 . S
C1546 C1548 1.415 . S
C1547 C1546 1.355 . S
C1547 C1549 1.419 1_556 S
C1548 C1546 1.415 . S
C1548 C1553 1.425 . S
C1548 C1555 1.409 . S
C1549 H1541 0.930 . S
C1549 C1547 1.419 1_554 S
C1549 C1550 1.362 . S
C1550 H1542 0.930 . S
C1550 C1549 1.362 . S
C1550 C1553 1.409 1_554 S
C1551 H1543 0.930 1_556 S
C1551 C1552 1.355 . S
C1551 C1553 1.415 . S
C1552 C1551 1.355 . S
C1552 C1554 1.419 . S
C1553 C1548 1.425 . S
C1553 C1550 1.409 1_556 S
C1553 C1551 1.415 . S
C1554 H1544 0.930 . S
C1554 C1552 1.419 . S
C1554 C1555 1.362 . S
C1555 H1545 0.930 . S
C1555 C1548 1.409 . S
C1555 C1554 1.362 . S
H1556 C1562 0.898 1_556 S
H1557 C1565 0.930 . S
H1558 C1566 0.930 . S
H1559 C1567 0.930 . S
H1560 C1570 0.930 . S
H1561 C1571 0.930 . S
C1562 H1556 0.898 1_554 S
C1562 C1563 1.355 . S
C1562 C1564 1.415 . S
C1563 C1562 1.355 . S
C1563 C1565 1.419 . S
C1564 C1562 1.415 . S
C1564 C1569 1.425 . S
C1564 C1571 1.409 1_554 S
C1565 H1557 0.930 . S
C1565 C1563 1.419 . S
C1565 C1566 1.362 . S
C1566 H1558 0.930 . S
C1566 C1565 1.362 . S
C1566 C1569 1.409 . S
C1567 H1559 0.930 . S
C1567 C1568 1.355 . S
C1567 C1569 1.415 . S
C1568 C1567 1.355 . S
C1568 C1570 1.419 1_554 S
C1569 C1564 1.425 . S
C1569 C1566 1.409 . S
C1569 C1567 1.415 . S
C1570 H1560 0.930 . S
C1570 C1568 1.419 1_556 S
C1570 C1571 1.362 . S
C1571 H1561 0.930 . S
C1571 C1564 1.409 1_556 S
C1571 C1570 1.362 . S
C811 C22 1.993 . S
C816 C696 1.792 . S
C832 C715 1.895 . S
C827 C38 1.950 . S
C848 C653 1.697 1_565 S
C843 C75 1.673 . S
C859 C91 1.620 . S
C864 C674 1.631 . S
C875 C128 1.607 . S
C880 C801 1.410 1_554 S
C891 C197 1.483 . S
C896 C779 1.486 . S
C912 C736 1.849 . S
C907 C144 1.933 . S
C923 C181 1.605 . S
C928 C757 1.568 . S
C944 C675 1.588 . S
C939 C234 1.751 . S
C960 C716 1.614 . S
C955 C303 1.617 . S
C971 C356 1.825 . S
C976 C694 1.790 . S
C987 C287 1.681 . S
C992 C759 1.526 . S
C1008 C780 1.752 . S
C1003 C393 1.905 . S
C1024 C799 1.921 1_565 S
C1019 C409 1.990 . S
C1035 C462 1.814 . S
C1040 C758 1.818 . S
C1056 C737 1.559 . S
C1051 C446 1.548 . S
C1067 C499 1.597 . S
C1072 C717 1.457 . S
C1083 C552 1.504 . S
C1088 C695 1.513 . S
C1104 C673 1.789 . S
C1099 C515 1.828 . S
C1115 C568 1.753 . S
C1120 C652 1.686 . S
C1136 C738 1.643 . S
C1131 C340 1.812 . S
C1152 C800 1.563 . S
C1147 C621 1.586 . S
C1163 C250 1.714 . S
C1168 C778 1.654 . S
C1179 C605 1.675 . S
C1184 C654 1.529 1_655 S
C1200 C650 1.317 . S
C1195 C39 1.354 . S
C1211 C29 1.132 . S
C1216 C671 1.129 . S
C1232 C691 1.318 . S
C1227 C92 1.437 . S
C1248 C714 1.285 . S
C1243 C82 1.641 . S
C1259 C145 1.270 . S
C1264 C651 1.073 . S
C1275 C188 1.597 . S
C1280 C672 1.160 . S
C1296 C692 1.129 . S
C1291 C135 1.115 . S
C1307 C198 1.183 . S
C1312 C712 1.208 . S
C1323 C251 1.146 . S
C1328 C649 1.128 . S
C1344 C693 1.287 . S
C1339 C294 1.606 . S
C1355 C347 1.474 . S
C1360 C713 1.484 . S
C1371 C304 1.313 . S
C1376 C733 1.152 . S
C1392 C755 1.217 . S
C1387 C410 1.336 . S
C1403 C400 1.145 . S
C1408 C734 1.201 . S
C1419 C453 1.167 . S
C1424 C775 1.180 . S
C1435 C463 2.020 . S
C1440 C798 1.595 . S
C1451 C516 1.275 . S
C1456 C756 1.121 . S
C1472 C735 1.537 . S
C1467 C569 1.905 . S
C1483 C506 1.084 . S
C1488 C776 0.986 . S
C1504 C796 1.012 . S
C1499 C559 1.104 . S
C1520 C754 0.986 . S
C1515 C357 1.130 . S
C1536 C777 1.248 . S
C1531 C612 1.548 . S
C1552 C797 1.387 . S
C1547 C241 1.428 1_556 S
C1563 C622 1.274 . S
C1568 C670 1.167 . S
