# Generated by pormake.
# Topology iac, (4,6)-cn, num edge types: 1
# Building blocks:
#     Node 0, Type 0, BuildingBlock: UXUYUI_clean_sbu_0, # of connection points: 4
#     Node 1, Type 0, BuildingBlock: UXUYUI_clean_sbu_0, # of connection points: 4
#     Node 2, Type 0, BuildingBlock: UXUYUI_clean_sbu_0, # of connection points: 4
#     Node 3, Type 0, BuildingBlock: UXUYUI_clean_sbu_0, # of connection points: 4
#     Node 4, Type 0, BuildingBlock: UXUYUI_clean_sbu_0, # of connection points: 4
#     Node 5, Type 0, BuildingBlock: UXUYUI_clean_sbu_0, # of connection points: 4
#     Node 6, Type 0, BuildingBlock: UXUYUI_clean_sbu_0, # of connection points: 4
#     Node 7, Type 0, BuildingBlock: UXUYUI_clean_sbu_0, # of connection points: 4
#     Node 8, Type 0, BuildingBlock: UXUYUI_clean_sbu_0, # of connection points: 4
#     Node 9, Type 0, BuildingBlock: UXUYUI_clean_sbu_0, # of connection points: 4
#     Node 10, Type 0, BuildingBlock: UXUYUI_clean_sbu_0, # of connection points: 4
#     Node 11, Type 0, BuildingBlock: UXUYUI_clean_sbu_0, # of connection points: 4
#     Node 12, Type 0, BuildingBlock: UXUYUI_clean_sbu_0, # of connection points: 4
#     Node 13, Type 0, BuildingBlock: UXUYUI_clean_sbu_0, # of connection points: 4
#     Node 14, Type 0, BuildingBlock: UXUYUI_clean_sbu_0, # of connection points: 4
#     Node 15, Type 0, BuildingBlock: UXUYUI_clean_sbu_0, # of connection points: 4
#     Node 16, Type 0, BuildingBlock: UXUYUI_clean_sbu_0, # of connection points: 4
#     Node 17, Type 0, BuildingBlock: UXUYUI_clean_sbu_0, # of connection points: 4
#     Node 18, Type 0, BuildingBlock: UXUYUI_clean_sbu_0, # of connection points: 4
#     Node 19, Type 0, BuildingBlock: UXUYUI_clean_sbu_0, # of connection points: 4
#     Node 20, Type 0, BuildingBlock: UXUYUI_clean_sbu_0, # of connection points: 4
#     Node 21, Type 0, BuildingBlock: UXUYUI_clean_sbu_0, # of connection points: 4
#     Node 22, Type 0, BuildingBlock: UXUYUI_clean_sbu_0, # of connection points: 4
#     Node 23, Type 0, BuildingBlock: UXUYUI_clean_sbu_0, # of connection points: 4
#     Node 24, Type 1, BuildingBlock: CIFDUS_clean_sbu_1, # of connection points: 6
#     Node 25, Type 1, BuildingBlock: CIFDUS_clean_sbu_1, # of connection points: 6
#     Node 26, Type 1, BuildingBlock: CIFDUS_clean_sbu_1, # of connection points: 6
#     Node 27, Type 1, BuildingBlock: CIFDUS_clean_sbu_1, # of connection points: 6
#     Node 28, Type 1, BuildingBlock: CIFDUS_clean_sbu_1, # of connection points: 6
#     Node 29, Type 1, BuildingBlock: CIFDUS_clean_sbu_1, # of connection points: 6
#     Node 30, Type 1, BuildingBlock: CIFDUS_clean_sbu_1, # of connection points: 6
#     Node 31, Type 1, BuildingBlock: CIFDUS_clean_sbu_1, # of connection points: 6
#     Node 32, Type 1, BuildingBlock: CIFDUS_clean_sbu_1, # of connection points: 6
#     Node 33, Type 1, BuildingBlock: CIFDUS_clean_sbu_1, # of connection points: 6
#     Node 34, Type 1, BuildingBlock: CIFDUS_clean_sbu_1, # of connection points: 6
#     Node 35, Type 1, BuildingBlock: CIFDUS_clean_sbu_1, # of connection points: 6
#     Node 36, Type 1, BuildingBlock: CIFDUS_clean_sbu_1, # of connection points: 6
#     Node 37, Type 1, BuildingBlock: CIFDUS_clean_sbu_1, # of connection points: 6
#     Node 38, Type 1, BuildingBlock: CIFDUS_clean_sbu_1, # of connection points: 6
#     Node 39, Type 1, BuildingBlock: CIFDUS_clean_sbu_1, # of connection points: 6
#     Edge 40, Type (0, 1), BuildingBlock: CIFDUS_clean_linker_0, # of connection points: 2
#     Edge 41, Type (0, 1), BuildingBlock: CIFDUS_clean_linker_0, # of connection points: 2
#     Edge 42, Type (0, 1), BuildingBlock: CIFDUS_clean_linker_0, # of connection points: 2
#     Edge 43, Type (0, 1), BuildingBlock: CIFDUS_clean_linker_0, # of connection points: 2
#     Edge 44, Type (0, 1), BuildingBlock: CIFDUS_clean_linker_0, # of connection points: 2
#     Edge 45, Type (0, 1), BuildingBlock: CIFDUS_clean_linker_0, # of connection points: 2
#     Edge 46, Type (0, 1), BuildingBlock: CIFDUS_clean_linker_0, # of connection points: 2
#     Edge 47, Type (0, 1), BuildingBlock: CIFDUS_clean_linker_0, # of connection points: 2
#     Edge 48, Type (0, 1), BuildingBlock: CIFDUS_clean_linker_0, # of connection points: 2
#     Edge 49, Type (0, 1), BuildingBlock: CIFDUS_clean_linker_0, # of connection points: 2
#     Edge 50, Type (0, 1), BuildingBlock: CIFDUS_clean_linker_0, # of connection points: 2
#     Edge 51, Type (0, 1), BuildingBlock: CIFDUS_clean_linker_0, # of connection points: 2
#     Edge 52, Type (0, 1), BuildingBlock: CIFDUS_clean_linker_0, # of connection points: 2
#     Edge 53, Type (0, 1), BuildingBlock: CIFDUS_clean_linker_0, # of connection points: 2
#     Edge 54, Type (0, 1), BuildingBlock: CIFDUS_clean_linker_0, # of connection points: 2
#     Edge 55, Type (0, 1), BuildingBlock: CIFDUS_clean_linker_0, # of connection points: 2
#     Edge 56, Type (0, 1), BuildingBlock: CIFDUS_clean_linker_0, # of connection points: 2
#     Edge 57, Type (0, 1), BuildingBlock: CIFDUS_clean_linker_0, # of connection points: 2
#     Edge 58, Type (0, 1), BuildingBlock: CIFDUS_clean_linker_0, # of connection points: 2
#     Edge 59, Type (0, 1), BuildingBlock: CIFDUS_clean_linker_0, # of connection points: 2
#     Edge 60, Type (0, 1), BuildingBlock: CIFDUS_clean_linker_0, # of connection points: 2
#     Edge 61, Type (0, 1), BuildingBlock: CIFDUS_clean_linker_0, # of connection points: 2
#     Edge 62, Type (0, 1), BuildingBlock: CIFDUS_clean_linker_0, # of connection points: 2
#     Edge 63, Type (0, 1), BuildingBlock: CIFDUS_clean_linker_0, # of connection points: 2
#     Edge 64, Type (0, 1), BuildingBlock: CIFDUS_clean_linker_0, # of connection points: 2
#     Edge 65, Type (0, 1), BuildingBlock: CIFDUS_clean_linker_0, # of connection points: 2
#     Edge 66, Type (0, 1), BuildingBlock: CIFDUS_clean_linker_0, # of connection points: 2
#     Edge 67, Type (0, 1), BuildingBlock: CIFDUS_clean_linker_0, # of connection points: 2
#     Edge 68, Type (0, 1), BuildingBlock: CIFDUS_clean_linker_0, # of connection points: 2
#     Edge 69, Type (0, 1), BuildingBlock: CIFDUS_clean_linker_0, # of connection points: 2
#     Edge 70, Type (0, 1), BuildingBlock: CIFDUS_clean_linker_0, # of connection points: 2
#     Edge 71, Type (0, 1), BuildingBlock: CIFDUS_clean_linker_0, # of connection points: 2
#     Edge 72, Type (0, 1), BuildingBlock: CIFDUS_clean_linker_0, # of connection points: 2
#     Edge 73, Type (0, 1), BuildingBlock: CIFDUS_clean_linker_0, # of connection points: 2
#     Edge 74, Type (0, 1), BuildingBlock: CIFDUS_clean_linker_0, # of connection points: 2
#     Edge 75, Type (0, 1), BuildingBlock: CIFDUS_clean_linker_0, # of connection points: 2
#     Edge 76, Type (0, 1), BuildingBlock: CIFDUS_clean_linker_0, # of connection points: 2
#     Edge 77, Type (0, 1), BuildingBlock: CIFDUS_clean_linker_0, # of connection points: 2
#     Edge 78, Type (0, 1), BuildingBlock: CIFDUS_clean_linker_0, # of connection points: 2
#     Edge 79, Type (0, 1), BuildingBlock: CIFDUS_clean_linker_0, # of connection points: 2
#     Edge 80, Type (0, 1), BuildingBlock: CIFDUS_clean_linker_0, # of connection points: 2
#     Edge 81, Type (0, 1), BuildingBlock: CIFDUS_clean_linker_0, # of connection points: 2
#     Edge 82, Type (0, 1), BuildingBlock: CIFDUS_clean_linker_0, # of connection points: 2
#     Edge 83, Type (0, 1), BuildingBlock: CIFDUS_clean_linker_0, # of connection points: 2
#     Edge 84, Type (0, 1), BuildingBlock: CIFDUS_clean_linker_0, # of connection points: 2
#     Edge 85, Type (0, 1), BuildingBlock: CIFDUS_clean_linker_0, # of connection points: 2
#     Edge 86, Type (0, 1), BuildingBlock: CIFDUS_clean_linker_0, # of connection points: 2
#     Edge 87, Type (0, 1), BuildingBlock: CIFDUS_clean_linker_0, # of connection points: 2
#     Edge 88, Type (0, 1), BuildingBlock: CIFDUS_clean_linker_0, # of connection points: 2
#     Edge 89, Type (0, 1), BuildingBlock: CIFDUS_clean_linker_0, # of connection points: 2
#     Edge 90, Type (0, 1), BuildingBlock: CIFDUS_clean_linker_0, # of connection points: 2
#     Edge 91, Type (0, 1), BuildingBlock: CIFDUS_clean_linker_0, # of connection points: 2
#     Edge 92, Type (0, 1), BuildingBlock: CIFDUS_clean_linker_0, # of connection points: 2
#     Edge 93, Type (0, 1), BuildingBlock: CIFDUS_clean_linker_0, # of connection points: 2
#     Edge 94, Type (0, 1), BuildingBlock: CIFDUS_clean_linker_0, # of connection points: 2
#     Edge 95, Type (0, 1), BuildingBlock: CIFDUS_clean_linker_0, # of connection points: 2
#     Edge 96, Type (0, 1), BuildingBlock: CIFDUS_clean_linker_0, # of connection points: 2
#     Edge 97, Type (0, 1), BuildingBlock: CIFDUS_clean_linker_0, # of connection points: 2
#     Edge 98, Type (0, 1), BuildingBlock: CIFDUS_clean_linker_0, # of connection points: 2
#     Edge 99, Type (0, 1), BuildingBlock: CIFDUS_clean_linker_0, # of connection points: 2
#     Edge 100, Type (0, 1), BuildingBlock: CIFDUS_clean_linker_0, # of connection points: 2
#     Edge 101, Type (0, 1), BuildingBlock: CIFDUS_clean_linker_0, # of connection points: 2
#     Edge 102, Type (0, 1), BuildingBlock: CIFDUS_clean_linker_0, # of connection points: 2
#     Edge 103, Type (0, 1), BuildingBlock: CIFDUS_clean_linker_0, # of connection points: 2
#     Edge 104, Type (0, 1), BuildingBlock: CIFDUS_clean_linker_0, # of connection points: 2
#     Edge 105, Type (0, 1), BuildingBlock: CIFDUS_clean_linker_0, # of connection points: 2
#     Edge 106, Type (0, 1), BuildingBlock: CIFDUS_clean_linker_0, # of connection points: 2
#     Edge 107, Type (0, 1), BuildingBlock: CIFDUS_clean_linker_0, # of connection points: 2
#     Edge 108, Type (0, 1), BuildingBlock: CIFDUS_clean_linker_0, # of connection points: 2
#     Edge 109, Type (0, 1), BuildingBlock: CIFDUS_clean_linker_0, # of connection points: 2
#     Edge 110, Type (0, 1), BuildingBlock: CIFDUS_clean_linker_0, # of connection points: 2
#     Edge 111, Type (0, 1), BuildingBlock: CIFDUS_clean_linker_0, # of connection points: 2
#     Edge 112, Type (0, 1), BuildingBlock: CIFDUS_clean_linker_0, # of connection points: 2
#     Edge 113, Type (0, 1), BuildingBlock: CIFDUS_clean_linker_0, # of connection points: 2
#     Edge 114, Type (0, 1), BuildingBlock: CIFDUS_clean_linker_0, # of connection points: 2
#     Edge 115, Type (0, 1), BuildingBlock: CIFDUS_clean_linker_0, # of connection points: 2
#     Edge 116, Type (0, 1), BuildingBlock: CIFDUS_clean_linker_0, # of connection points: 2
#     Edge 117, Type (0, 1), BuildingBlock: CIFDUS_clean_linker_0, # of connection points: 2
#     Edge 118, Type (0, 1), BuildingBlock: CIFDUS_clean_linker_0, # of connection points: 2
#     Edge 119, Type (0, 1), BuildingBlock: CIFDUS_clean_linker_0, # of connection points: 2
#     Edge 120, Type (0, 1), BuildingBlock: CIFDUS_clean_linker_0, # of connection points: 2
#     Edge 121, Type (0, 1), BuildingBlock: CIFDUS_clean_linker_0, # of connection points: 2
#     Edge 122, Type (0, 1), BuildingBlock: CIFDUS_clean_linker_0, # of connection points: 2
#     Edge 123, Type (0, 1), BuildingBlock: CIFDUS_clean_linker_0, # of connection points: 2
#     Edge 124, Type (0, 1), BuildingBlock: CIFDUS_clean_linker_0, # of connection points: 2
#     Edge 125, Type (0, 1), BuildingBlock: CIFDUS_clean_linker_0, # of connection points: 2
#     Edge 126, Type (0, 1), BuildingBlock: CIFDUS_clean_linker_0, # of connection points: 2
#     Edge 127, Type (0, 1), BuildingBlock: CIFDUS_clean_linker_0, # of connection points: 2
#     Edge 128, Type (0, 1), BuildingBlock: CIFDUS_clean_linker_0, # of connection points: 2
#     Edge 129, Type (0, 1), BuildingBlock: CIFDUS_clean_linker_0, # of connection points: 2
#     Edge 130, Type (0, 1), BuildingBlock: CIFDUS_clean_linker_0, # of connection points: 2
#     Edge 131, Type (0, 1), BuildingBlock: CIFDUS_clean_linker_0, # of connection points: 2
#     Edge 132, Type (0, 1), BuildingBlock: CIFDUS_clean_linker_0, # of connection points: 2
#     Edge 133, Type (0, 1), BuildingBlock: CIFDUS_clean_linker_0, # of connection points: 2
#     Edge 134, Type (0, 1), BuildingBlock: CIFDUS_clean_linker_0, # of connection points: 2
#     Edge 135, Type (0, 1), BuildingBlock: CIFDUS_clean_linker_0, # of connection points: 2
# Relax obj value: 0.129
# Max RMSD: 0.165
# Mean RMSD: 0.153
data_MOF--net-iac--node1-UXUYUI_clean_sbu_0--node2-CIFDUS_clean_sbu_1--edge1-CIFDUS_clean_linker_0
_symmetry_space_group_name_H-M    P1
_symmetry_Int_Tables_number       1
_symmetry_cell_setting            triclinic
loop_
_symmetry_equiv_pos_as_xyz
'x, y, z'
_cell_length_a     60.202167
_cell_length_b     60.013664
_cell_length_c     60.230602
_cell_angle_alpha  89.963482
_cell_angle_beta   89.908522
_cell_angle_gamma 89.941519
loop_
_atom_site_label
_atom_site_type_symbol
_atom_site_fract_x
_atom_site_fract_y
_atom_site_fract_z
_atom_type_partial_charge
Li0 Li 0.00043 0.27352 0.10648 0.0
Li1 Li 0.02265 0.25595 0.13755 0.0
Li2 Li 0.00422 0.23247 0.10798 0.0
Li3 Li 0.9816 0.25262 0.13717 0.0
C4 C 0.04519 0.25413 0.09025 0.0
N5 N 0.0801 0.25139 0.06056 0.0
C6 C 0.06663 0.26 0.09688 0.0
C7 C 0.04148 0.24683 0.06853 0.0
C8 C 0.08406 0.25854 0.08161 0.0
C9 C 0.05937 0.24555 0.05377 0.0
C10 C 0.00116 0.29661 0.15418 0.0
C11 C 0.99658 0.31006 0.19163 0.0
N12 N 0.00373 0.33053 0.18505 0.0
C13 C 0.00852 0.31776 0.1478 0.0
C14 C 0.99517 0.29267 0.17626 0.0
C15 C 0.00969 0.33469 0.16366 0.0
C16 C 0.98269 0.31503 0.0939 0.0
N17 N 0.99768 0.29903 0.08818 0.0
C18 C 0.0134 0.32261 0.0605 0.0
C19 C 0.01229 0.30212 0.07128 0.0
C20 C -0.0006 0.34006 0.06729 0.0
C21 C 0.98323 0.33589 0.08353 0.0
H22 H 0.97129 0.31205 0.10749 0.0
H23 H 0.02394 0.28917 0.06699 0.0
C24 C 0.05934 0.23721 0.15862 0.0
N25 N 0.04794 0.25666 0.15643 0.0
C26 C 0.07731 0.23572 0.1732 0.0
C27 C 0.0718 0.27447 0.18261 0.0
C28 C 0.05395 0.2752 0.16786 0.0
C29 C 0.08366 0.25447 0.18563 0.0
H30 H 0.0542 0.22274 0.14925 0.0
H31 H 0.04491 0.29057 0.16563 0.0
C32 C 0.96038 0.25155 0.08917 0.0
N33 N 0.92688 0.25375 0.05794 0.0
C34 C 0.93823 0.24863 0.09557 0.0
C35 C 0.96552 0.25548 0.06689 0.0
C36 C 0.92153 0.2498 0.07954 0.0
C37 C 0.94832 0.2566 0.05135 0.0
C38 C 0.00299 0.21216 0.15601 0.0
C39 C 0.99637 0.19083 0.14951 0.0
C40 C 0.00867 0.21619 0.17813 0.0
C41 C 0.99558 0.17379 0.16531 0.0
C42 C 0.00774 0.19868 0.19341 0.0
N43 N 0.00127 0.17803 0.18674 0.0
C44 C 0.02792 0.19669 0.08948 0.0
C45 C 0.98914 0.19582 0.08253 0.0
C46 C 0.03092 0.17674 0.07791 0.0
N47 N 0.00732 0.20581 0.09142 0.0
C48 C 0.99135 0.1757 0.07107 0.0
C49 C 0.01245 0.16605 0.06872 0.0
H50 H 0.042 0.20487 0.09705 0.0
H51 H 0.97292 0.20332 0.08459 0.0
C52 C 0.94289 0.27142 0.15365 0.0
N53 N 0.95521 0.25242 0.15385 0.0
C54 C 0.9214 0.27146 0.16238 0.0
C55 C 0.92622 0.23264 0.17217 0.0
C56 C 0.94758 0.23336 0.16328 0.0
C57 C 0.91264 0.25167 0.17113 0.0
H58 H 0.94939 0.28623 0.14572 0.0
H59 H 0.95763 0.21845 0.16301 0.0
O60 O 0.02803 0.25528 0.10511 0.0
O61 O -0.00047 0.27996 0.13878 0.0
O62 O 0.97688 0.25048 0.10471 0.0
O63 O 0.00442 0.22884 0.14062 0.0
H64 H 0.06976 0.26567 0.11365 0.0
H65 H 0.02496 0.24222 0.06315 0.0
H66 H 0.10074 0.26308 0.0865 0.0
H67 H 0.05677 0.23991 0.03692 0.0
H68 H 0.99197 0.30729 0.20877 0.0
H69 H 0.01336 0.32104 0.1308 0.0
H70 H 0.98947 0.27637 0.18145 0.0
H71 H 0.01533 0.35115 0.15895 0.0
H72 H 0.02603 0.32527 0.04793 0.0
H73 H 0.97233 0.34905 0.08929 0.0
H74 H 0.08585 0.21994 0.17499 0.0
H75 H 0.0764 0.28951 0.19139 0.0
H76 H 0.93396 0.24536 0.11272 0.0
H77 H 0.98259 0.25772 0.06168 0.0
H78 H 0.90433 0.24755 0.08425 0.0
H79 H 0.95202 0.25971 0.03405 0.0
H80 H 0.99191 0.18745 0.13245 0.0
H81 H 0.01385 0.23263 0.1834 0.0
H82 H 0.9905 0.1572 0.16052 0.0
H83 H 0.0122 0.2015 0.21057 0.0
H84 H 0.04738 0.1696 0.07639 0.0
H85 H 0.97678 0.16773 0.06415 0.0
H86 H 0.91138 0.28642 0.16127 0.0
H87 H 0.92011 0.21718 0.17917 0.0
Li88 Li 0.98271 0.75067 0.36171 0.0
Li89 Li 0.0039 0.77176 0.3905 0.0
Li90 Li 0.0232 0.7502 0.36034 0.0
Li91 Li 0.0044 0.73119 0.39154 0.0
C92 C 0.00159 0.79174 0.34175 0.0
N93 N -0.0004 0.82385 0.30893 0.0
C94 C 0.99775 0.81402 0.34731 0.0
C95 C 0.00446 0.78576 0.31952 0.0
C96 C 0.99676 0.83001 0.33048 0.0
C97 C 0.0034 0.80226 0.30316 0.0
C98 C 0.9632 0.75361 0.41076 0.0
C99 C 0.95321 0.75303 0.44954 0.0
N100 N 0.93173 0.75738 0.444 0.0
C101 C 0.94102 0.75801 0.40546 0.0
C102 C 0.96937 0.75106 0.43297 0.0
C103 C 0.92537 0.75989 0.42249 0.0
C104 C 0.94683 0.73142 0.33902 0.0
N105 N 0.95623 0.75081 0.3458 0.0
C106 C 0.9242 0.77147 0.33523 0.0
C107 C 0.94563 0.77065 0.34377 0.0
C108 C 0.91368 0.75168 0.32851 0.0
C109 C 0.92549 0.7315 0.33004 0.0
H110 H 0.9556 0.71585 0.34126 0.0
H111 H 0.95343 0.78566 0.34988 0.0
C112 C 0.02343 0.80784 0.41252 0.0
N113 N 0.00389 0.79831 0.40652 0.0
C114 C 0.02356 0.82902 0.422 0.0
C115 C 0.98346 0.82991 0.41901 0.0
C116 C 0.98412 0.80872 0.40968 0.0
C117 C 0.00338 0.84043 0.42506 0.0
H118 H 0.03891 0.79922 0.40939 0.0
H119 H 0.96895 0.80091 0.40412 0.0
C120 C 0.00477 0.70813 0.34383 0.0
N121 N 0.00881 0.67463 0.31266 0.0
C122 C 0.01081 0.68662 0.35041 0.0
C123 C 0.00072 0.71261 0.32143 0.0
C124 C 0.01276 0.66991 0.33439 0.0
C125 C 0.0029 0.69544 0.30591 0.0
C126 C 0.04633 0.74895 0.40805 0.0
C127 C 0.06763 0.74244 0.40141 0.0
C128 C 0.04194 0.75289 0.4305 0.0
C129 C 0.08422 0.7399 0.41741 0.0
C130 C 0.05898 0.7501 0.446 0.0
N131 N 0.07958 0.74373 0.43919 0.0
C132 C 0.05804 0.77152 0.34056 0.0
C133 C 0.0562 0.73328 0.33065 0.0
C134 C 0.07796 0.77396 0.32909 0.0
N135 N 0.04789 0.75135 0.34145 0.0
C136 C 0.07601 0.73504 0.31875 0.0
C137 C 0.08735 0.75544 0.31847 0.0
H138 H 0.05108 0.78547 0.34956 0.0
H139 H 0.04807 0.71732 0.33205 0.0
C140 C 0.98278 0.69715 0.41251 0.0
N141 N 0.00332 0.70611 0.40992 0.0
C142 C 0.98016 0.67703 0.42366 0.0
C143 C 0.01988 0.6761 0.42986 0.0
C144 C 0.02174 0.69628 0.4185 0.0
C145 C -0.00107 0.66604 0.43203 0.0
H146 H 0.96853 0.70527 0.40517 0.0
H147 H 0.03792 0.70354 0.41573 0.0
O148 O 0.00307 0.77602 0.35813 0.0
O149 O 0.97858 0.75126 0.39418 0.0
O150 O 0.00241 0.72453 0.3594 0.0
O151 O 0.03011 0.75205 0.39249 0.0
H152 H 0.99564 0.81896 0.36444 0.0
H153 H 0.00766 0.76862 0.31497 0.0
H154 H 0.9938 0.84731 0.33455 0.0
H155 H 0.00566 0.79792 0.28588 0.0
H156 H 0.95772 0.75104 0.4668 0.0
H157 H 0.9359 0.75984 0.38837 0.0
H158 H 0.98641 0.74741 0.43734 0.0
H159 H 0.90816 0.76329 0.4186 0.0
H160 H 0.91567 0.78736 0.3348 0.0
H161 H 0.91823 0.7159 0.32472 0.0
H162 H 0.03924 0.83646 0.4267 0.0
H163 H 0.9676 0.83826 0.42078 0.0
H164 H 0.01387 0.68287 0.36772 0.0
H165 H 0.99588 0.72914 0.31612 0.0
H166 H 0.01738 0.65317 0.33924 0.0
H167 H -0.00015 0.69865 0.2885 0.0
H168 H 0.07132 0.7395 0.38406 0.0
H169 H 0.02561 0.75816 0.43586 0.0
H170 H 0.10079 0.73491 0.41251 0.0
H171 H 0.05584 0.75307 0.46344 0.0
H172 H 0.08646 0.78986 0.32934 0.0
H173 H 0.08313 0.72033 0.3111 0.0
H174 H 0.96376 0.66976 0.42507 0.0
H175 H 0.03476 0.66788 0.43579 0.0
Li176 Li 0.52212 0.7573 0.63991 0.0
Li177 Li 0.50175 0.77652 0.60888 0.0
Li178 Li 0.48113 0.75569 0.63859 0.0
Li179 Li 0.50325 0.73543 0.60919 0.0
C180 C 0.50166 0.79887 0.65648 0.0
N181 N 0.50406 0.83298 0.68716 0.0
C182 C 0.50783 0.8203 0.64976 0.0
C183 C 0.49671 0.79477 0.67879 0.0
C184 C 0.50895 0.83732 0.66553 0.0
C185 C 0.49803 0.81225 0.69405 0.0
C186 C 0.54432 0.75785 0.59112 0.0
C187 C 0.55518 0.75442 0.55273 0.0
N188 N 0.57658 0.75882 0.55846 0.0
C189 C 0.56641 0.76232 0.59665 0.0
C190 C 0.53862 0.75383 0.56901 0.0
C191 C 0.58248 0.76276 0.5799 0.0
C192 C 0.55765 0.73725 0.66152 0.0
N193 N 0.54662 0.75693 0.65967 0.0
C194 C 0.57079 0.77393 0.68614 0.0
C195 C 0.55278 0.77512 0.6716 0.0
C196 C 0.58276 0.75394 0.68808 0.0
C197 C 0.5759 0.73538 0.67566 0.0
H198 H 0.55235 0.72306 0.65181 0.0
H199 H 0.54406 0.79069 0.66961 0.0
C200 C 0.47818 0.81057 0.58878 0.0
N201 N 0.49912 0.80252 0.59152 0.0
C202 C 0.47468 0.83067 0.57769 0.0
C203 C 0.51446 0.83407 0.57293 0.0
C204 C 0.51717 0.81367 0.58378 0.0
C205 C 0.49299 0.84276 0.56994 0.0
H206 H 0.46421 0.80159 0.59564 0.0
H207 H 0.53364 0.807 0.58652 0.0
C208 C 0.50038 0.71424 0.65711 0.0
N209 N 0.4974 0.68008 0.68773 0.0
C210 C 0.49459 0.69276 0.65026 0.0
C211 C 0.50459 0.71838 0.67952 0.0
C212 C 0.49316 0.67572 0.66599 0.0
C213 C 0.50302 0.70086 0.69475 0.0
C214 C 0.46078 0.75411 0.59024 0.0
C215 C 0.43877 0.74995 0.59642 0.0
C216 C 0.46597 0.75776 0.56791 0.0
C217 C 0.42229 0.7495 0.58013 0.0
C218 C 0.44899 0.75722 0.55211 0.0
N219 N 0.42769 0.75313 0.55849 0.0
C220 C 0.445 0.77649 0.65844 0.0
C221 C 0.44418 0.73698 0.66038 0.0
C222 C 0.42361 0.77785 0.66727 0.0
N223 N 0.4546 0.75627 0.65493 0.0
C224 C 0.42267 0.73756 0.66895 0.0
C225 C 0.41201 0.75818 0.67193 0.0
H226 H 0.45355 0.7915 0.65342 0.0
H227 H 0.45212 0.72117 0.65703 0.0
C228 C 0.5241 0.69785 0.58981 0.0
N229 N 0.50436 0.70851 0.59274 0.0
C230 C 0.5246 0.67607 0.58154 0.0
C231 C 0.48455 0.67706 0.57885 0.0
C232 C 0.48482 0.69881 0.58697 0.0
C233 C 0.50456 0.66518 0.57666 0.0
H234 H 0.53935 0.70588 0.59489 0.0
H235 H 0.46935 0.7075 0.58984 0.0
O236 O 0.50024 0.78211 0.64118 0.0
O237 O 0.52858 0.75682 0.60746 0.0
O238 O 0.50262 0.7309 0.64178 0.0
O239 O 0.47701 0.75501 0.6061 0.0
H240 H 0.5117 0.82375 0.63256 0.0
H241 H 0.49191 0.77826 0.68423 0.0
H242 H 0.51369 0.85398 0.66057 0.0
H243 H 0.49424 0.80935 0.71137 0.0
H244 H 0.55103 0.75129 0.53554 0.0
H245 H 0.57108 0.76532 0.61374 0.0
H246 H 0.52164 0.7501 0.56451 0.0
H247 H 0.59965 0.76616 0.58394 0.0
H248 H 0.57587 0.78873 0.69507 0.0
H249 H 0.58475 0.71969 0.67665 0.0
H250 H 0.45794 0.83701 0.57576 0.0
H251 H 0.52892 0.84301 0.56699 0.0
H252 H 0.49133 0.68923 0.63298 0.0
H253 H 0.50919 0.7349 0.68506 0.0
H254 H 0.48874 0.65901 0.66091 0.0
H255 H 0.50634 0.70378 0.71216 0.0
H256 H 0.43443 0.74713 0.61362 0.0
H257 H 0.48286 0.76121 0.56287 0.0
H258 H 0.40519 0.74631 0.58469 0.0
H259 H 0.45274 0.7601 0.53478 0.0
H260 H 0.41579 0.79399 0.66928 0.0
H261 H 0.41416 0.72207 0.67256 0.0
H262 H 0.54035 0.66744 0.58011 0.0
H263 H 0.46876 0.66936 0.57495 0.0
Li264 Li 0.48367 0.25134 0.86381 0.0
Li265 Li 0.50513 0.27249 0.89233 0.0
Li266 Li 0.52439 0.24969 0.86288 0.0
Li267 Li 0.50409 0.23124 0.89401 0.0
C268 C 0.50241 0.29176 0.8437 0.0
N269 N 0.49876 0.3243 0.81145 0.0
C270 C 0.49672 0.31357 0.84957 0.0
C271 C 0.5062 0.28647 0.82143 0.0
C272 C 0.49496 0.32978 0.83303 0.0
C273 C 0.50427 0.30318 0.80536 0.0
C274 C 0.46273 0.25218 0.91171 0.0
C275 C 0.45053 0.24688 0.94948 0.0
N276 N 0.42923 0.25088 0.94308 0.0
C277 C 0.44072 0.25621 0.9055 0.0
C278 C 0.46773 0.24754 0.93388 0.0
C279 C 0.42403 0.25553 0.9216 0.0
C280 C 0.44817 0.23213 0.84162 0.0
N281 N 0.45741 0.25189 0.84744 0.0
C282 C 0.42747 0.2721 0.83113 0.0
C283 C 0.44747 0.27168 0.84275 0.0
C284 C 0.41788 0.25195 0.82434 0.0
C285 C 0.42832 0.23177 0.82983 0.0
H286 H 0.45626 0.21669 0.84614 0.0
H287 H 0.455 0.28708 0.84815 0.0
C288 C 0.52462 0.31228 0.90638 0.0
N289 N 0.50575 0.29985 0.9071 0.0
C290 C 0.52426 0.33439 0.91358 0.0
C291 C 0.48527 0.33008 0.92254 0.0
C292 C 0.48634 0.30815 0.91512 0.0
C293 C 0.50427 0.34345 0.92137 0.0
H294 H 0.53965 0.30525 0.89942 0.0
H295 H 0.47151 0.29804 0.91491 0.0
C296 C 0.50574 0.20897 0.84534 0.0
N297 N 0.51052 0.17714 0.81255 0.0
C298 C 0.51262 0.18741 0.8508 0.0
C299 C 0.50129 0.21438 0.82321 0.0
C300 C 0.51495 0.17155 0.83399 0.0
C301 C 0.50382 0.19803 0.80687 0.0
C302 C 0.54755 0.25132 0.90986 0.0
C303 C 0.56836 0.24342 0.90317 0.0
C304 C 0.54465 0.25946 0.9314 0.0
C305 C 0.58596 0.24367 0.91826 0.0
C306 C 0.56266 0.25935 0.94602 0.0
N307 N 0.58276 0.25153 0.9392 0.0
C308 C 0.55835 0.27119 0.84134 0.0
C309 C 0.55964 0.2321 0.83578 0.0
C310 C 0.57763 0.27408 0.82889 0.0
N311 N 0.5498 0.2505 0.84453 0.0
C312 C 0.57914 0.2342 0.82331 0.0
C313 C 0.58849 0.25543 0.81991 0.0
H314 H 0.5503 0.28547 0.84877 0.0
H315 H 0.5527 0.2158 0.8389 0.0
C316 C 0.4859 0.19121 0.90856 0.0
N317 N 0.50203 0.20635 0.91311 0.0
C318 C 0.48375 0.17204 0.92153 0.0
C319 C 0.51434 0.18489 0.94411 0.0
C320 C 0.51597 0.20371 0.93061 0.0
C321 C 0.49832 0.16853 0.93941 0.0
H322 H 0.47498 0.19387 0.89455 0.0
H323 H 0.52851 0.21605 0.93401 0.0
O324 O 0.50502 0.27591 0.85983 0.0
O325 O 0.47923 0.25278 0.89609 0.0
O326 O 0.50271 0.22443 0.86174 0.0
O327 O 0.53026 0.25151 0.89518 0.0
H328 H 0.49374 0.31798 0.86672 0.0
H329 H 0.51082 0.26972 0.81664 0.0
H330 H 0.49063 0.34674 0.83735 0.0
H331 H 0.50725 0.29937 0.78806 0.0
H332 H 0.45411 0.24322 0.9667 0.0
H333 H 0.43656 0.25992 0.88843 0.0
H334 H 0.48469 0.24445 0.93896 0.0
H335 H 0.40694 0.25868 0.91703 0.0
H336 H 0.41988 0.28794 0.82702 0.0
H337 H 0.42122 0.21593 0.82496 0.0
H338 H 0.53921 0.34438 0.91276 0.0
H339 H 0.46968 0.33671 0.92867 0.0
H340 H 0.51603 0.18296 0.86788 0.0
H341 H 0.49577 0.23094 0.81874 0.0
H342 H 0.52021 0.15478 0.83798 0.0
H343 H 0.50037 0.20193 0.78968 0.0
H344 H 0.57089 0.2372 0.88649 0.0
H345 H 0.52864 0.26569 0.93678 0.0
H346 H 0.60216 0.23761 0.91332 0.0
H347 H 0.56066 0.26549 0.96279 0.0
H348 H 0.58406 0.29075 0.82652 0.0
H349 H 0.58716 0.21932 0.81705 0.0
H350 H 0.47137 0.15977 0.91708 0.0
H351 H 0.52571 0.18305 0.9579 0.0
Li352 Li 0.11639 0.00057 0.27536 0.0
Li353 Li 0.14549 0.0209 0.25257 0.0
Li354 Li 0.11425 -0.00031 0.23406 0.0
Li355 Li 0.14559 0.97938 0.25354 0.0
C356 C 0.09783 0.04254 0.25616 0.0
N357 N 0.06743 0.07693 0.25882 0.0
C358 C 0.10492 0.06413 0.26118 0.0
C359 C 0.0753 0.0384 0.25255 0.0
C360 C 0.08929 0.08129 0.26247 0.0
C361 C 0.06018 0.05604 0.25394 0.0
C362 C 0.16533 0.00218 0.29433 0.0
C363 C 0.20341 0.99791 0.30593 0.0
N364 N 0.19757 0.00412 0.32687 0.0
C365 C 0.1597 0.00852 0.31595 0.0
C366 C 0.18734 0.99681 0.28924 0.0
C367 C 0.17624 0.0094 0.33217 0.0
C368 C 0.09636 0.98013 0.31238 0.0
N369 N 0.10048 0.00013 0.30256 0.0
C370 C 0.08633 0.01951 0.33414 0.0
C371 C 0.09536 0.01963 0.31278 0.0
C372 C 0.08249 -0.00088 0.34502 0.0
C373 C 0.08711 0.97923 0.33368 0.0
H374 H 0.10092 0.96489 0.30394 0.0
H375 H 0.09905 0.03528 0.30468 0.0
C376 C 0.16593 0.05609 0.22939 0.0
N377 N 0.16264 0.04749 0.25005 0.0
C378 C 0.17684 0.07646 0.22667 0.0
C379 C 0.1804 0.079 0.26656 0.0
C380 C 0.16977 0.05837 0.2685 0.0
C381 C 0.1839 0.08831 0.24543 0.0
H382 H 0.15966 0.04734 0.21503 0.0
H383 H 0.16669 0.0513 0.28474 0.0
C384 C 0.09779 0.95768 0.25356 0.0
N385 N 0.06715 0.92368 0.24975 0.0
C386 C 0.10454 0.93657 0.24644 0.0
C387 C 0.07548 0.96154 0.25875 0.0
C388 C 0.08879 0.91959 0.24462 0.0
C389 C 0.06024 0.94411 0.25669 0.0
C390 C 0.16272 -0.00083 0.21122 0.0
C391 C 0.15704 0.99511 0.1891 0.0
C392 C 0.18491 0.00292 0.21689 0.0
C393 C 0.17373 0.99479 0.17296 0.0
C394 C 0.20111 0.00249 0.20025 0.0
N395 N 0.19523 0.99846 0.17882 0.0
C396 C 0.09205 0.02071 0.19868 0.0
C397 C 0.08435 0.98214 0.20169 0.0
C398 C 0.07887 0.02234 0.17962 0.0
N399 N 0.0947 0.00078 0.20914 0.0
C400 C 0.07087 0.98304 0.18287 0.0
C401 C 0.06834 0.00324 0.17121 0.0
H402 H 0.10062 0.03527 0.20488 0.0
H403 H 0.08685 0.96643 0.21005 0.0
C404 C 0.16426 0.94164 0.27419 0.0
N405 N 0.16364 0.95331 0.2548 0.0
C406 C 0.17745 0.9225 0.27605 0.0
C407 C 0.18909 0.92787 0.23799 0.0
C408 C 0.17547 0.94664 0.23677 0.0
C409 C 0.19029 0.91563 0.25785 0.0
H410 H 0.15456 0.9473 0.28824 0.0
H411 H 0.17436 0.95584 0.22141 0.0
O412 O 0.11302 0.02573 0.25416 0.0
O413 O 0.14919 0.00065 0.27844 0.0
O414 O 0.11307 0.97436 0.25577 0.0
O415 O 0.14652 -0.00037 0.22715 0.0
H416 H 0.1223 0.06762 0.26397 0.0
H417 H 0.06959 0.02178 0.24854 0.0
H418 H 0.09455 0.09809 0.2663 0.0
H419 H 0.04269 0.05313 0.25108 0.0
H420 H 0.22051 0.99376 0.30226 0.0
H421 H 0.14273 0.01263 0.32021 0.0
H422 H 0.19193 0.99168 0.27264 0.0
H423 H 0.1721 0.01424 0.34898 0.0
H424 H 0.08269 0.03521 0.34222 0.0
H425 H 0.08445 0.96321 0.34154 0.0
H426 H 0.1792 0.08318 0.21014 0.0
H427 H 0.18581 0.08761 0.28139 0.0
H428 H 0.12176 0.93333 0.24238 0.0
H429 H 0.07004 0.97781 0.26432 0.0
H430 H 0.09377 0.90315 0.23916 0.0
H431 H 0.04291 0.94682 0.26065 0.0
H432 H 0.13991 0.99223 0.18447 0.0
H433 H 0.18953 0.00619 0.23393 0.0
H434 H 0.16959 0.99165 0.15577 0.0
H435 H 0.21835 0.00537 0.20437 0.0
H436 H 0.07771 0.03819 0.1711 0.0
H437 H 0.06285 0.96792 0.17729 0.0
H438 H 0.17798 0.91345 0.29161 0.0
H439 H 0.19851 0.92285 0.22349 0.0
Li440 Li 0.23366 0.89191 0.50454 0.0
Li441 Li 0.25274 0.86018 0.52307 0.0
Li442 Li 0.27432 0.89046 0.50395 0.0
Li443 Li 0.25311 0.86206 0.48246 0.0
C444 C 0.25356 0.90873 0.54597 0.0
N445 N 0.25172 0.94158 0.57803 0.0
C446 C 0.24836 0.90325 0.56793 0.0
C447 C 0.25788 0.93089 0.5403 0.0
C448 C 0.24748 0.92011 0.5839 0.0
C449 C 0.25686 0.94726 0.55676 0.0
C450 C 0.21055 0.84402 0.50284 0.0
C451 C 0.1982 0.80604 0.49879 0.0
N452 N 0.17711 0.81256 0.50372 0.0
C453 C 0.18876 0.85036 0.50783 0.0
C454 C 0.21536 0.82171 0.49825 0.0
C455 C 0.17208 0.83419 0.50821 0.0
C456 C 0.20007 0.91671 0.48465 0.0
N457 N 0.20924 0.91149 0.50458 0.0
C458 C 0.1834 0.9349 0.52351 0.0
C459 C 0.20126 0.9201 0.52385 0.0
C460 C 0.17364 0.94078 0.50314 0.0
C461 C 0.18226 0.93152 0.48351 0.0
H462 H 0.20663 0.90935 0.46963 0.0
H463 H 0.20853 0.91528 0.53951 0.0
C464 C 0.27281 0.83575 0.55697 0.0
N465 N 0.25297 0.84051 0.54732 0.0
C466 C 0.27367 0.82219 0.57575 0.0
C467 C 0.23368 0.81854 0.57404 0.0
C468 C 0.23361 0.8321 0.55528 0.0
C469 C 0.25387 0.81383 0.58474 0.0
H470 H 0.28789 0.84305 0.55045 0.0
H471 H 0.21805 0.83647 0.54752 0.0
C472 C 0.25464 0.91046 0.46254 0.0
N473 N 0.25542 0.94228 0.42937 0.0
C474 C 0.25821 0.90417 0.44047 0.0
C475 C 0.25153 0.93293 0.46776 0.0
C476 C 0.25858 0.92051 0.42394 0.0
C477 C 0.25192 0.94876 0.45074 0.0
C478 C 0.29488 0.84237 0.5027 0.0
C479 C 0.317 0.84891 0.49991 0.0
C480 C 0.28977 0.81982 0.50528 0.0
C481 C 0.33368 0.83273 0.49976 0.0
C482 C 0.30696 0.80414 0.50518 0.0
N483 N 0.32836 0.81087 0.50242 0.0
C484 C 0.31068 0.91338 0.52228 0.0
C485 C 0.30886 0.91201 0.4829 0.0
C486 C 0.33009 0.92601 0.52125 0.0
N487 N 0.30042 0.90705 0.50323 0.0
C488 C 0.32821 0.92451 0.4811 0.0
C489 C 0.33881 0.93171 0.50043 0.0
H490 H 0.3037 0.90877 0.53819 0.0
H491 H 0.30055 0.90625 0.4681 0.0
C492 C 0.23579 0.84038 0.44443 0.0
N493 N 0.25427 0.84575 0.45619 0.0
C494 C 0.23784 0.82873 0.42446 0.0
C495 C 0.27776 0.82849 0.42945 0.0
C496 C 0.27497 0.84041 0.44897 0.0
C497 C 0.25907 0.82255 0.41701 0.0
H498 H 0.21957 0.84524 0.45051 0.0
H499 H 0.28935 0.84567 0.45824 0.0
O500 O 0.25463 0.89234 0.53025 0.0
O501 O 0.22697 0.85972 0.50224 0.0
O502 O 0.25376 0.89456 0.4788 0.0
O503 O 0.27839 0.85807 0.50287 0.0
H504 H 0.24504 0.88613 0.57257 0.0
H505 H 0.26206 0.93536 0.5234 0.0
H506 H 0.24345 0.91612 0.60095 0.0
H507 H 0.26019 0.96448 0.55264 0.0
H508 H 0.20165 0.78871 0.49527 0.0
H509 H 0.18479 0.8676 0.51137 0.0
H510 H 0.23214 0.81659 0.49427 0.0
H511 H 0.15514 0.83885 0.51206 0.0
H512 H 0.17696 0.94116 0.5391 0.0
H513 H 0.17533 0.93562 0.46745 0.0
H514 H 0.28948 0.8193 0.58384 0.0
H515 H 0.21806 0.81245 0.58061 0.0
H516 H 0.26064 0.88687 0.43611 0.0
H517 H 0.2486 0.93805 0.48473 0.0
H518 H 0.26132 0.91587 0.4068 0.0
H519 H 0.24941 0.9662 0.45451 0.0
H520 H 0.32126 0.86628 0.49779 0.0
H521 H 0.27273 0.81451 0.50747 0.0
H522 H 0.35086 0.83755 0.49757 0.0
H523 H 0.30328 0.78663 0.50728 0.0
H524 H 0.33805 0.93147 0.53641 0.0
H525 H 0.33462 0.92886 0.46484 0.0
H526 H 0.22312 0.82431 0.41514 0.0
H527 H 0.29436 0.82418 0.42394 0.0
Li528 Li 0.36431 0.98223 0.7475 0.0
Li529 Li 0.39132 0.00316 0.77132 0.0
Li530 Li 0.36201 0.02293 0.74959 0.0
Li531 Li 0.39459 0.00541 0.73061 0.0
C532 C 0.34364 0.00155 0.79088 0.0
N533 N 0.31317 0.00249 0.82525 0.0
C534 C 0.35035 0.99678 0.81259 0.0
C535 C 0.32139 0.00663 0.78662 0.0
C536 C 0.3347 0.99734 0.82973 0.0
C537 C 0.30626 0.00712 0.80425 0.0
C538 C 0.41237 0.96255 0.74899 0.0
C539 C 0.45023 0.95046 0.74386 0.0
N540 N 0.44393 0.92911 0.74807 0.0
C541 C 0.40628 0.94049 0.75336 0.0
C542 C 0.43453 0.96763 0.74432 0.0
C543 C 0.42247 0.92382 0.7528 0.0
C544 C 0.35212 0.94195 0.72726 0.0
N545 N 0.34944 0.95516 0.74539 0.0
C546 C 0.32982 0.92672 0.76453 0.0
C547 C 0.33848 0.9481 0.76375 0.0
C548 C 0.33256 0.91244 0.74627 0.0
C549 C 0.34377 0.92023 0.72736 0.0
H550 H 0.3614 0.94803 0.7131 0.0
H551 H 0.33717 0.95873 0.77811 0.0
C552 C 0.41038 0.02006 0.81071 0.0
N553 N 0.40744 0.00182 0.79766 0.0
C554 C 0.42276 0.01832 0.83021 0.0
C555 C 0.42852 0.97918 0.82226 0.0
C556 C 0.41583 0.98159 0.80323 0.0
C557 C 0.43213 0.99768 0.83589 0.0
H558 H 0.40315 0.03586 0.80592 0.0
H559 H 0.41252 0.96726 0.79301 0.0
C560 C 0.34671 0.00381 0.70655 0.0
N561 N 0.31437 0.00493 0.6741 0.0
C562 C 0.35217 0.0101 0.68487 0.0
C563 C 0.32483 0.99802 0.71175 0.0
C564 C 0.33558 0.01058 0.6687 0.0
C565 C 0.30871 -0.00129 0.69509 0.0
C566 C 0.40835 0.04753 0.75497 0.0
C567 C 0.40172 0.06903 0.74897 0.0
C568 C 0.42982 0.04395 0.76308 0.0
C569 C 0.41677 0.08662 0.75103 0.0
C570 C 0.44437 0.06199 0.76488 0.0
N571 N 0.4376 0.08276 0.75886 0.0
C572 C 0.3392 0.05749 0.77028 0.0
C573 C 0.33204 0.05438 0.73169 0.0
C574 C 0.32476 0.07559 0.77193 0.0
N575 N 0.34242 0.04728 0.7504 0.0
C576 C 0.31742 0.07234 0.73257 0.0
C577 C 0.31369 0.08322 0.75288 0.0
H578 H 0.34792 0.05156 0.78482 0.0
H579 H 0.33533 0.04638 0.71599 0.0
C580 C 0.41262 0.99118 0.69031 0.0
N581 N 0.41467 0.00646 0.70683 0.0
C582 C 0.42609 0.9926 0.67147 0.0
C583 C 0.44431 0.02451 0.68786 0.0
C584 C 0.43043 0.02259 0.70617 0.0
C585 C 0.44172 0.00989 0.6699 0.0
H586 H 0.39998 0.97842 0.69146 0.0
H587 H 0.43187 0.0344 0.71948 0.0
O588 O 0.35881 0.00102 0.77393 0.0
O589 O 0.39671 0.97906 0.74959 0.0
O590 O 0.36278 0.00352 0.72255 0.0
O591 O 0.39386 0.03012 0.75281 0.0
H592 H 0.36742 0.99253 0.81619 0.0
H593 H 0.31589 0.01023 0.7699 0.0
H594 H 0.33968 0.99365 0.8466 0.0
H595 H 0.28901 0.01115 0.80124 0.0
H596 H 0.46744 0.95412 0.74021 0.0
H597 H 0.3893 0.93629 0.75744 0.0
H598 H 0.43956 0.98465 0.74115 0.0
H599 H 0.41799 0.9067 0.75619 0.0
H600 H 0.32163 0.92119 0.77959 0.0
H601 H 0.34613 0.90966 0.71298 0.0
H602 H 0.42526 0.03288 0.84052 0.0
H603 H 0.43521 0.96295 0.82647 0.0
H604 H 0.36904 0.0147 0.68064 0.0
H605 H 0.32036 0.99315 0.72848 0.0
H606 H 0.33955 0.01547 0.65187 0.0
H607 H 0.29169 0.99433 0.69884 0.0
H608 H 0.38516 0.07206 0.74267 0.0
H609 H 0.43528 0.02737 0.76762 0.0
H610 H 0.41189 0.10333 0.74637 0.0
H611 H 0.46107 0.05946 0.771 0.0
H612 H 0.32236 0.08357 0.78788 0.0
H613 H 0.30968 0.07809 0.71739 0.0
H614 H 0.4235 0.9811 0.65787 0.0
H615 H 0.4564 0.03787 0.68737 0.0
Li616 Li 0.25497 0.14364 0.02242 0.0
Li617 Li 0.27236 0.11247 0.00091 0.0
Li618 Li 0.25342 0.14397 0.981 0.0
Li619 Li 0.23162 0.11536 0.00202 0.0
C620 C 0.296 0.16019 0.00241 0.0
N621 N 0.32902 0.19189 0.00597 0.0
C622 C 0.31798 0.15368 0.00617 0.0
C623 C 0.29078 0.1828 0.00044 0.0
C624 C 0.33443 0.16997 0.00796 0.0
C625 C 0.30774 0.19858 0.00227 0.0
C626 C 0.25262 0.09512 0.04325 0.0
C627 C 0.24682 0.05719 0.05507 0.0
N628 N 0.25237 0.06305 0.07616 0.0
C629 C 0.25824 0.10079 0.06504 0.0
C630 C 0.24682 0.07318 0.03818 0.0
C631 C 0.25803 0.08433 0.08144 0.0
C632 C 0.23886 0.1664 0.06015 0.0
N633 N 0.25753 0.16071 0.04874 0.0
C634 C 0.28048 0.17787 0.07613 0.0
C635 C 0.27809 0.1659 0.05645 0.0
C636 C 0.26155 0.18397 0.08825 0.0
C637 C 0.24051 0.17802 0.08018 0.0
H638 H 0.22274 0.1617 0.05378 0.0
H639 H 0.29269 0.16048 0.04754 0.0
C640 C 0.30751 0.09103 0.97941 0.0
N641 N 0.29775 0.09441 -0.00049 0.0
C642 C 0.32882 0.08195 0.97815 0.0
C643 C 0.32929 0.07966 0.01828 0.0
C644 C 0.30789 0.08849 0.01875 0.0
C645 C 0.34013 0.07693 0.99781 0.0
H646 H 0.2993 0.09661 0.96445 0.0
H647 H 0.29994 0.09196 0.03449 0.0
C648 C 0.21215 0.16354 0.00043 0.0
N649 N 0.17761 0.19373 0.99758 0.0
C650 C 0.19138 0.15674 0.99262 0.0
C651 C 0.2154 0.1857 0.00671 0.0
C652 C 0.17411 0.17225 0.99134 0.0
C653 C 0.19772 0.20073 0.00513 0.0
C654 C 0.25143 0.09561 0.95966 0.0
C655 C 0.24846 0.10164 0.93744 0.0
C656 C 0.2543 0.07319 0.96527 0.0
C657 C 0.24838 0.08508 0.92114 0.0
C658 C 0.25422 0.05714 0.94846 0.0
N659 N 0.25126 0.06337 0.92694 0.0
C660 C 0.27625 0.1651 0.94685 0.0
C661 C 0.23707 0.16759 0.94334 0.0
C662 C 0.27924 0.17649 0.9269 0.0
N663 N 0.25545 0.16112 0.95474 0.0
C664 C 0.23931 0.17868 0.92303 0.0
C665 C 0.26063 0.18324 0.91471 0.0
H666 H 0.29054 0.15913 0.95591 0.0
H667 H 0.22074 0.16381 0.94983 0.0
C668 C 0.19217 0.09827 0.02123 0.0
N669 N 0.20477 0.09939 0.00248 0.0
C670 C 0.17209 0.08653 0.02108 0.0
C671 C 0.17866 0.07749 0.98246 0.0
C672 C 0.19826 0.08961 0.98325 0.0
C673 C 0.16542 0.07585 0.00151 0.0
H674 H 0.19774 0.10646 0.03621 0.0
H675 H 0.2082 0.09128 0.96846 0.0
O676 O 0.27974 0.14443 0.00059 0.0
O677 O 0.25239 0.11117 0.02714 0.0
O678 O 0.22887 0.14833 0.00295 0.0
O679 O 0.25128 0.11165 0.9758 0.0
H680 H 0.32227 0.13623 0.00774 0.0
H681 H 0.27384 0.18806 0.99749 0.0
H682 H 0.3515 0.16519 0.01091 0.0
H683 H 0.30398 0.21614 0.00074 0.0
H684 H 0.24235 0.04013 0.05141 0.0
H685 H 0.26268 0.11774 0.06925 0.0
H686 H 0.24225 0.06859 0.02143 0.0
H687 H 0.26233 0.08847 0.09838 0.0
H688 H 0.29696 0.18196 0.08205 0.0
H689 H 0.22556 0.18252 0.08915 0.0
H690 H 0.3369 0.08025 0.96216 0.0
H691 H 0.3377 0.07595 0.03374 0.0
H692 H 0.18855 0.13963 0.98776 0.0
H693 H 0.23134 0.19116 0.01295 0.0
H694 H 0.15791 0.16718 0.98546 0.0
H695 H 0.19995 0.21792 0.01 0.0
H696 H 0.24612 0.11891 0.93283 0.0
H697 H 0.25664 0.06827 0.98239 0.0
H698 H 0.24603 0.0895 0.90389 0.0
H699 H 0.25649 0.03973 0.95253 0.0
H700 H 0.29589 0.1797 0.92085 0.0
H701 H 0.22461 0.18383 0.91402 0.0
H702 H 0.16219 0.0854 0.03607 0.0
H703 H 0.17384 0.06945 0.96711 0.0
Li704 Li 0.73307 0.39365 0.00232 0.0
Li705 Li 0.75244 0.36104 0.01964 0.0
Li706 Li 0.77374 0.39175 0.00156 0.0
Li707 Li 0.75222 0.36422 0.97921 0.0
C708 C 0.75368 0.40861 0.04425 0.0
N709 N 0.75263 0.44014 0.07762 0.0
C710 C 0.74829 0.40236 0.06595 0.0
C711 C 0.7586 0.43086 0.03948 0.0
C712 C 0.74782 0.41856 0.08259 0.0
C713 C 0.75797 0.44656 0.05661 0.0
C714 C 0.7097 0.3461 -0.00163 0.0
C715 C 0.69702 0.30852 0.9922 0.0
N716 N 0.67608 0.31482 -0.00202 0.0
C717 C 0.68804 0.35224 0.00416 0.0
C718 C 0.71427 0.3241 0.99227 0.0
C719 C 0.67128 0.33617 0.00388 0.0
C720 C 0.69714 0.41487 0.98342 0.0
N721 N 0.70847 0.41304 0.00282 0.0
C722 C 0.68298 0.43748 0.021 0.0
C723 C 0.70193 0.42408 0.02142 0.0
C724 C 0.67059 0.43909 0.00138 0.0
C725 C 0.67799 0.42786 0.98233 0.0
H726 H 0.70276 0.40578 0.96895 0.0
H727 H 0.71096 0.42203 0.03674 0.0
C728 C 0.77089 0.33939 0.05668 0.0
N729 N 0.75244 0.34121 0.04377 0.0
C730 C 0.76996 0.32751 0.07664 0.0
C731 C 0.73161 0.31858 0.06863 0.0
C732 C 0.73321 0.33073 0.0491 0.0
C733 C 0.74983 0.31768 0.08305 0.0
H734 H 0.78588 0.34818 0.05207 0.0
H735 H 0.71866 0.33282 0.03897 0.0
C736 C 0.75403 0.41265 0.96023 0.0
N737 N 0.7552 0.44407 0.9267 0.0
C738 C 0.75975 0.40639 0.9386 0.0
C739 C 0.74899 0.4349 0.96483 0.0
C740 C 0.76025 0.42251 0.92188 0.0
C741 C 0.74964 0.45053 0.94763 0.0
C742 C 0.7944 0.34384 -5e-05 0.0
C743 C 0.81652 0.35042 0.99735 0.0
C744 C 0.78938 0.32141 0.00356 0.0
C745 C 0.83333 0.33441 -0.00152 0.0
C746 C 0.80668 0.30591 0.00469 0.0
N747 N 0.8281 0.31267 0.00213 0.0
C748 C 0.81072 0.41049 0.022 0.0
C749 C 0.80791 0.41671 0.98313 0.0
C750 C 0.83076 0.42207 0.02275 0.0
N751 N 0.79981 0.40822 0.0024 0.0
C752 C 0.82783 0.42837 0.98311 0.0
C753 C 0.83936 0.43099 0.00307 0.0
H754 H 0.8039 0.40317 0.03695 0.0
H755 H 0.79907 0.41419 0.96776 0.0
C756 C 0.73285 0.34817 0.94034 0.0
N757 N 0.75197 0.34921 0.9522 0.0
C758 C 0.73309 0.33955 0.91886 0.0
C759 C 0.77261 0.333 0.92258 0.0
C760 C 0.77159 0.34173 0.94395 0.0
C761 C 0.75324 0.33212 0.90966 0.0
H762 H 0.71759 0.3546 0.94737 0.0
H763 H 0.78659 0.3433 0.95365 0.0
O764 O 0.75413 0.39291 0.02782 0.0
O765 O 0.72636 0.36154 -0.00082 0.0
O766 O 0.75305 0.39696 0.97669 0.0
O767 O 0.77781 0.35938 -0.00103 0.0
H768 H 0.74445 0.38518 0.06987 0.0
H769 H 0.76278 0.43593 0.02274 0.0
H770 H 0.74363 0.41398 0.09946 0.0
H771 H 0.76172 0.46385 0.05319 0.0
H772 H 0.7003 0.29141 0.98761 0.0
H773 H 0.68429 0.3692 0.009 0.0
H774 H 0.73098 0.3191 0.98784 0.0
H775 H 0.65446 0.34065 0.00842 0.0
H776 H 0.67747 0.44559 0.03611 0.0
H777 H 0.66872 0.42868 0.96694 0.0
H778 H 0.7842 0.3274 0.08761 0.0
H779 H 0.71579 0.31129 0.07322 0.0
H780 H 0.76383 0.38929 0.93472 0.0
H781 H 0.74452 0.44001 0.98149 0.0
H782 H 0.76464 0.41789 0.90507 0.0
H783 H 0.7457 0.46781 0.95091 0.0
H784 H 0.82069 0.3677 0.99438 0.0
H785 H 0.77233 0.31607 0.00558 0.0
H786 H 0.85051 0.33926 0.99646 0.0
H787 H 0.80309 0.28849 0.00759 0.0
H788 H 0.83944 0.424 0.03837 0.0
H789 H 0.83419 0.43527 0.96774 0.0
H790 H 0.71775 0.33882 0.90953 0.0
H791 H 0.7885 0.32766 0.91601 0.0
Li792 Li 0.89438 0.50648 0.27084 0.0
Li793 Li 0.86669 0.4838 0.24985 0.0
Li794 Li 0.89751 0.50436 0.23031 0.0
Li795 Li 0.86527 0.52461 0.24693 0.0
C796 C 0.91468 0.46318 0.25239 0.0
N797 N 0.94589 0.42941 0.2525 0.0
C798 C 0.90806 0.44106 0.25533 0.0
C799 C 0.93718 0.46816 0.24956 0.0
C800 C 0.92409 0.42422 0.25539 0.0
C801 C 0.9527 0.45082 0.24958 0.0
C802 C 0.84587 0.50502 0.28955 0.0
C803 C 0.80765 0.50846 0.30111 0.0
N804 N 0.81375 0.50392 0.32238 0.0
C805 C 0.85173 0.50034 0.31153 0.0
C806 C 0.82363 0.50903 0.28426 0.0
C807 C 0.83527 0.49985 0.32788 0.0
C808 C 0.90769 0.52691 0.31038 0.0
N809 N 0.90819 0.5077 0.29844 0.0
C810 C 0.92173 0.48727 0.32948 0.0
C811 C 0.91513 0.48813 0.30739 0.0
C812 C 0.92094 0.50668 0.34231 0.0
C813 C 0.91424 0.5268 0.3326 0.0
H814 H 0.90156 0.54207 0.30282 0.0
H815 H 0.91475 0.47305 0.29763 0.0
C816 C 0.84168 0.4469 0.23423 0.0
N817 N 0.84948 0.45798 0.25227 0.0
C818 C 0.82868 0.42785 0.2371 0.0
C819 C 0.83214 0.43223 0.2769 0.0
C820 C 0.84533 0.45086 0.27327 0.0
C821 C 0.82366 0.42055 0.25869 0.0
H822 H 0.84556 0.45285 0.21772 0.0
H823 H 0.85245 0.45956 0.28722 0.0
C824 C 0.9128 0.54796 0.25069 0.0
N825 N 0.94408 0.58155 0.25247 0.0
C826 C 0.90657 0.57003 0.24666 0.0
C827 C 0.93491 0.54293 0.25568 0.0
C828 C 0.92264 0.58678 0.24762 0.0
C829 C 0.95048 0.56018 0.2565 0.0
C830 C 0.84917 0.50366 0.20668 0.0
C831 C 0.85475 0.50922 0.18484 0.0
C832 C 0.82699 0.49972 0.2123 0.0
C833 C 0.83797 0.51081 0.16892 0.0
C834 C 0.81069 0.50148 0.19589 0.0
N835 N 0.81647 0.50694 0.17473 0.0
C836 C 0.92326 0.48427 0.19633 0.0
C837 C 0.92535 0.52367 0.19857 0.0
C838 C 0.93655 0.48426 0.17728 0.0
N839 N 0.91772 0.50384 0.20629 0.0
C840 C 0.93866 0.52443 0.17967 0.0
C841 C 0.94388 0.50461 0.16844 0.0
H842 H 0.91667 0.46877 0.20269 0.0
H843 H 0.92039 0.53899 0.20654 0.0
C844 C 0.84204 0.55926 0.26596 0.0
N845 N 0.84575 0.54915 0.24613 0.0
C846 C 0.82738 0.57716 0.26744 0.0
C847 C 0.82089 0.57415 0.22794 0.0
C848 C 0.83565 0.55623 0.22724 0.0
C849 C 0.81666 0.58491 0.24823 0.0
H850 H 0.8505 0.55335 0.28066 0.0
H851 H 0.83922 0.54822 0.2116 0.0
O852 O 0.89912 0.47979 0.25231 0.0
O853 O 0.86191 0.50603 0.27342 0.0
O854 O 0.89725 0.53141 0.24951 0.0
O855 O 0.86546 0.50195 0.22237 0.0
H856 H 0.89073 0.43691 0.25761 0.0
H857 H 0.94256 0.4852 0.24722 0.0
H858 H 0.9192 0.40703 0.2577 0.0
H859 H 0.97016 0.45439 0.24729 0.0
H860 H 0.79039 0.51165 0.29729 0.0
H861 H 0.86877 0.49697 0.31599 0.0
H862 H 0.81879 0.51273 0.26736 0.0
H863 H 0.83961 0.49624 0.34493 0.0
H864 H 0.92738 0.47164 0.33652 0.0
H865 H 0.91402 0.54212 0.34211 0.0
H866 H 0.82243 0.41908 0.22269 0.0
H867 H 0.82895 0.42674 0.29374 0.0
H868 H 0.88951 0.57415 0.24274 0.0
H869 H 0.93996 0.52592 0.25886 0.0
H870 H 0.91807 0.60393 0.24447 0.0
H871 H 0.96767 0.55657 0.26031 0.0
H872 H 0.87188 0.51227 0.18025 0.0
H873 H 0.82243 0.49536 0.22913 0.0
H874 H 0.84203 0.51512 0.15195 0.0
H875 H 0.79344 0.49849 0.19998 0.0
H876 H 0.93995 0.46868 0.16884 0.0
H877 H 0.944 0.54045 0.17332 0.0
H878 H 0.82455 0.58487 0.28345 0.0
H879 H 0.81339 0.57991 0.21264 0.0
Li880 Li 0.75425 0.64143 0.52063 0.0
Li881 Li 0.77407 0.61105 0.50029 0.0
Li882 Li 0.75514 0.64214 0.4795 0.0
Li883 Li 0.733 0.61249 0.49887 0.0
C884 C 0.7963 0.65938 0.50245 0.0
N885 N 0.8288 0.69161 0.5062 0.0
C886 C 0.81782 0.65347 0.50889 0.0
C887 C 0.7913 0.68165 0.49786 0.0
C888 C 0.83401 0.67003 0.51072 0.0
C889 C 0.80798 0.69771 0.49985 0.0
C890 C 0.75404 0.59369 0.54195 0.0
C891 C 0.74851 0.55663 0.55637 0.0
N892 N 0.75563 0.56361 0.57663 0.0
C893 C 0.76136 0.60049 0.56289 0.0
C894 C 0.74759 0.5716 0.53861 0.0
C895 C 0.76203 0.58503 0.58022 0.0
C896 C 0.73436 0.65695 0.55912 0.0
N897 N 0.75358 0.658 0.54734 0.0
C898 C 0.771 0.67898 0.57616 0.0
C899 C 0.77175 0.66872 0.55537 0.0
C900 C 0.75144 0.67795 0.58889 0.0
C901 C 0.73292 0.66681 0.58004 0.0
H902 H 0.72032 0.64794 0.55244 0.0
H903 H 0.78698 0.66899 0.54591 0.0
C904 C 0.80968 0.58945 0.47984 0.0
N905 N 0.79995 0.59349 0.49983 0.0
C906 C 0.83093 0.58017 0.47882 0.0
C907 C 0.83144 0.57906 0.51898 0.0
C908 C 0.8101 0.58811 0.51922 0.0
C909 C 0.84226 0.57556 0.4986 0.0
H910 H 0.8014 0.59448 0.46472 0.0
H911 H 0.80215 0.59197 0.53486 0.0
C912 C 0.71281 0.66102 0.49971 0.0
N913 N 0.67951 0.69269 0.50076 0.0
C914 C 0.69099 0.65512 0.49445 0.0
C915 C 0.71773 0.683 0.50551 0.0
C916 C 0.67439 0.67138 0.49506 0.0
C917 C 0.70064 0.69878 0.50595 0.0
C918 C 0.75274 0.59342 0.45822 0.0
C919 C 0.74811 0.59919 0.43622 0.0
C920 C 0.75568 0.57106 0.46396 0.0
C921 C 0.74647 0.5824 0.42026 0.0
C922 C 0.75396 0.55476 0.44748 0.0
N923 N 0.74942 0.56072 0.42617 0.0
C924 C 0.77762 0.6603 0.44335 0.0
C925 C 0.7394 0.66987 0.44502 0.0
C926 C 0.78011 0.67185 0.42337 0.0
N927 N 0.75752 0.65957 0.45365 0.0
C928 C 0.74117 0.68175 0.42518 0.0
C929 C 0.76173 0.68278 0.41412 0.0
H930 H 0.79164 0.65165 0.45056 0.0
H931 H 0.72353 0.66858 0.45335 0.0
C932 C 0.69568 0.59197 0.51773 0.0
N933 N 0.70658 0.59553 0.49826 0.0
C934 C 0.67633 0.57915 0.51809 0.0
C935 C 0.67962 0.57438 0.47833 0.0
C936 C 0.69881 0.58737 0.47871 0.0
C937 C 0.66834 0.57012 0.49821 0.0
H938 H 0.70214 0.59895 0.53296 0.0
H939 H 0.70748 0.59088 0.46341 0.0
O940 O 0.78032 0.64334 0.50051 0.0
O941 O 0.75238 0.60884 0.52506 0.0
O942 O 0.72913 0.64518 0.4996 0.0
O943 O 0.75462 0.60971 0.47395 0.0
H944 H 0.82196 0.63629 0.51247 0.0
H945 H 0.77473 0.68646 0.4928 0.0
H946 H 0.85072 0.66571 0.51572 0.0
H947 H 0.80437 0.71502 0.49635 0.0
H948 H 0.7435 0.53949 0.55406 0.0
H949 H 0.7664 0.61754 0.56578 0.0
H950 H 0.74176 0.56613 0.52252 0.0
H951 H 0.76759 0.59007 0.59654 0.0
H952 H 0.78556 0.68767 0.58216 0.0
H953 H 0.71758 0.66533 0.58933 0.0
H954 H 0.83891 0.57784 0.46286 0.0
H955 H 0.83975 0.57559 0.53455 0.0
H956 H 0.68692 0.63815 0.48996 0.0
H957 H 0.73453 0.68778 0.50974 0.0
H958 H 0.65742 0.66706 0.49103 0.0
H959 H 0.70416 0.71586 0.51045 0.0
H960 H 0.7458 0.61646 0.43155 0.0
H961 H 0.75932 0.56637 0.48093 0.0
H962 H 0.74287 0.58661 0.40317 0.0
H963 H 0.75625 0.53737 0.45164 0.0
H964 H 0.79619 0.6723 0.41529 0.0
H965 H 0.72653 0.68964 0.41831 0.0
H966 H 0.66787 0.57608 0.53368 0.0
H967 H 0.67374 0.56758 0.46276 0.0
Li968 Li 0.648 0.52174 0.75176 0.0
Li969 Li 0.6185 0.50134 0.77399 0.0
Li970 Li 0.64811 0.48036 0.75314 0.0
Li971 Li 0.61708 0.50023 0.73258 0.0
C972 C 0.66661 0.50256 0.7944 0.0
N973 N 0.69776 0.50341 0.828 0.0
C974 C 0.66024 0.50808 0.81604 0.0
C975 C 0.68879 0.49747 0.78982 0.0
C976 C 0.67625 0.50843 0.8328 0.0
C977 C 0.70431 0.498 0.80705 0.0
C978 C 0.5998 0.54281 0.75548 0.0
C979 C 0.5619 0.55568 0.75399 0.0
N980 N 0.56876 0.57641 0.76 0.0
C981 C 0.6065 0.56421 0.76166 0.0
C982 C 0.57735 0.53844 0.75162 0.0
C983 C 0.59054 0.58098 0.76386 0.0
C984 C 0.66468 0.55914 0.72946 0.0
N985 N 0.66489 0.54851 0.74942 0.0
C986 C 0.68424 0.57899 0.76605 0.0
C987 C 0.67472 0.55778 0.7675 0.0
C988 C 0.68353 0.59062 0.74584 0.0
C989 C 0.67397 0.58039 0.72728 0.0
H990 H 0.65646 0.55147 0.71545 0.0
H991 H 0.67433 0.54916 0.78326 0.0
C992 C 0.6006 0.4784 0.80949 0.0
N993 N 0.60164 0.49918 0.80051 0.0
C994 C 0.58892 0.47468 0.82917 0.0
C995 C 0.57983 0.51394 0.83023 0.0
C996 C 0.59163 0.5169 0.81042 0.0
C997 C 0.57846 0.4926 0.83971 0.0
H998 H 0.60893 0.46468 0.80133 0.0
H999 H 0.5929 0.53328 0.80304 0.0
C1000 C 0.6657 0.49856 0.71052 0.0
N1001 N 0.69786 0.49595 0.67788 0.0
C1002 C 0.65989 0.49251 0.6889 0.0
C1003 C 0.68783 0.50336 0.71558 0.0
C1004 C 0.67641 0.49126 0.67262 0.0
C1005 C 0.70386 0.50191 0.69883 0.0
C1006 C 0.60016 0.45878 0.75285 0.0
C1007 C 0.60655 0.43731 0.74648 0.0
C1008 C 0.57794 0.46316 0.75797 0.0
C1009 C 0.59056 0.4205 0.74543 0.0
C1010 C 0.56244 0.44589 0.75669 0.0
N1011 N 0.56902 0.4251 0.75052 0.0
C1012 C 0.66003 0.44209 0.77513 0.0
C1013 C 0.67906 0.44556 0.74077 0.0
C1014 C 0.66927 0.42105 0.77869 0.0
N1015 N 0.66474 0.45366 0.75627 0.0
C1016 C 0.689 0.42469 0.74386 0.0
C1017 C 0.68379 0.41211 0.76285 0.0
H1018 H 0.64848 0.44897 0.78708 0.0
H1019 H 0.68232 0.45496 0.72581 0.0
C1020 C 0.59485 0.52065 0.69697 0.0
N1021 N 0.59746 0.50083 0.70765 0.0
C1022 C 0.58075 0.52232 0.67861 0.0
C1023 C 0.5719 0.48327 0.68283 0.0
C1024 C 0.58643 0.48226 0.70088 0.0
C1025 C 0.56903 0.50346 0.67147 0.0
H1026 H 0.60389 0.53514 0.70266 0.0
H1027 H 0.58904 0.4666 0.7093 0.0
O1028 O 0.65105 0.50183 0.77791 0.0
O1029 O 0.6153 0.52642 0.75254 0.0
O1030 O 0.64962 0.50029 0.72646 0.0
O1031 O 0.61569 0.47533 0.75424 0.0
H1032 H 0.64312 0.51205 0.81985 0.0
H1033 H 0.69394 0.49307 0.77316 0.0
H1034 H 0.67156 0.51266 0.84963 0.0
H1035 H 0.72154 0.49406 0.80379 0.0
H1036 H 0.54446 0.55259 0.751 0.0
H1037 H 0.62384 0.56787 0.76462 0.0
H1038 H 0.57196 0.52196 0.74671 0.0
H1039 H 0.59548 0.59765 0.76857 0.0
H1040 H 0.69125 0.58663 0.78074 0.0
H1041 H 0.67291 0.58909 0.71156 0.0
H1042 H 0.58808 0.45804 0.83611 0.0
H1043 H 0.57184 0.52808 0.83806 0.0
H1044 H 0.64278 0.48889 0.68473 0.0
H1045 H 0.69253 0.50821 0.73222 0.0
H1046 H 0.67216 0.48661 0.65581 0.0
H1047 H 0.72106 0.50558 0.70246 0.0
H1048 H 0.62367 0.43367 0.74235 0.0
H1049 H 0.57275 0.47971 0.76291 0.0
H1050 H 0.59527 0.40379 0.74057 0.0
H1051 H 0.54517 0.449 0.76063 0.0
H1052 H 0.66488 0.41171 0.79345 0.0
H1053 H 0.69996 0.41808 0.7312 0.0
H1054 H 0.57907 0.53809 0.67001 0.0
H1055 H 0.56342 0.46832 0.67742 0.0
Li1056 Li 0.98596 0.75494 0.86008 0.0
Li1057 Li 0.0047 0.77548 0.89087 0.0
Li1058 Li 0.02684 0.75411 0.86149 0.0
Li1059 Li 0.00604 0.73413 0.89082 0.0
C1060 C 0.00472 0.79693 0.84287 0.0
N1061 N 0.00086 0.83084 0.81208 0.0
C1062 C 0.99756 0.81808 0.8495 0.0
C1063 C 0.00989 0.793 0.82059 0.0
C1064 C 0.99571 0.835 0.83369 0.0
C1065 C 0.00783 0.81038 0.80527 0.0
C1066 C 0.9631 0.7548 0.90782 0.0
C1067 C 0.95041 0.7514 0.94565 0.0
N1068 N 0.92943 0.75652 0.93897 0.0
C1069 C 0.94142 0.75998 0.90131 0.0
C1070 C 0.96769 0.75049 0.93015 0.0
C1071 C 0.92463 0.7608 0.91732 0.0
C1072 C 0.9497 0.73517 0.83922 0.0
N1073 N 0.96035 0.75493 0.84192 0.0
C1074 C 0.93067 0.77449 0.82418 0.0
C1075 C 0.95151 0.77436 0.83431 0.0
C1076 C 0.91895 0.75446 0.82214 0.0
C1077 C 0.92879 0.73456 0.82931 0.0
H1078 H 0.95692 0.72007 0.84588 0.0
H1079 H 0.95997 0.78992 0.83723 0.0
C1080 C 0.02117 0.81556 0.90761 0.0
N1081 N 0.0031 0.80203 0.90803 0.0
C1082 C 0.02005 0.83684 0.91689 0.0
C1083 C 0.98218 0.82941 0.92802 0.0
C1084 C 0.9839 0.80841 0.91819 0.0
C1085 C 0.00021 0.8441 0.92686 0.0
H1086 H 0.03613 0.81013 0.89922 0.0
H1087 H 0.96956 0.79769 0.9179 0.0
C1088 C 0.00703 0.71283 0.84249 0.0
N1089 N 0.00792 0.68008 0.8103 0.0
C1090 C 0.01105 0.69066 0.84838 0.0
C1091 C 0.00346 0.71838 0.82025 0.0
C1092 C 0.01148 0.67435 0.83185 0.0
C1093 C 0.00396 0.70156 0.80421 0.0
C1094 C 0.0467 0.75379 0.91028 0.0
C1095 C 0.06839 0.7476 0.90465 0.0
C1096 C 0.04146 0.75871 0.93234 0.0
C1097 C 0.0845 0.74631 0.92126 0.0
C1098 C 0.05807 0.75723 0.94848 0.0
N1099 N 0.07905 0.75112 0.94265 0.0
C1100 C 0.06314 0.77075 0.8369 0.0
C1101 C 0.06221 0.73155 0.84209 0.0
C1102 C 0.08317 0.76904 0.82536 0.0
N1103 N 0.05314 0.75211 0.84486 0.0
C1104 C 0.0823 0.72908 0.83081 0.0
C1105 C 0.09297 0.74799 0.82229 0.0
H1106 H 0.0557 0.7869 0.83978 0.0
H1107 H 0.05404 0.7171 0.84902 0.0
C1108 C 0.98657 0.69881 0.91377 0.0
N1109 N 0.0064 0.70816 0.90848 0.0
C1110 C 0.98582 0.67991 0.92716 0.0
C1111 C 0.02599 0.67983 0.92842 0.0
C1112 C 0.02596 0.69894 0.91514 0.0
C1113 C 0.00569 0.67039 0.93485 0.0
H1114 H 0.97134 0.70615 0.90769 0.0
H1115 H 0.04151 0.70644 0.9102 0.0
O1116 O 0.00712 0.78035 0.85826 0.0
O1117 O 0.9797 0.75398 0.89233 0.0
O1118 O 0.00598 0.72883 0.8586 0.0
O1119 O 0.03091 0.75568 0.89409 0.0
H1120 H 0.99344 0.8214 0.86667 0.0
H1121 H 0.01552 0.77674 0.81522 0.0
H1122 H 0.99021 0.85145 0.83859 0.0
H1123 H 0.01182 0.80762 0.78797 0.0
H1124 H 0.95368 0.74806 0.96299 0.0
H1125 H 0.93762 0.76341 0.88408 0.0
H1126 H 0.9844 0.74646 0.93542 0.0
H1127 H 0.90779 0.76484 0.91254 0.0
H1128 H 0.9232 0.79017 0.8193 0.0
H1129 H 0.91985 0.71892 0.82838 0.0
H1130 H 0.03437 0.84771 0.91587 0.0
H1131 H 0.96659 0.83453 0.93545 0.0
H1132 H 0.01376 0.6861 0.86556 0.0
H1133 H 0.00018 0.73546 0.81546 0.0
H1134 H 0.01457 0.65712 0.83617 0.0
H1135 H 0.00113 0.70556 0.78693 0.0
H1136 H 0.07276 0.74391 0.88762 0.0
H1137 H 0.0248 0.76371 0.93692 0.0
H1138 H 0.10134 0.74155 0.91714 0.0
H1139 H 0.05429 0.761 0.96564 0.0
H1140 H 0.09115 0.78403 0.81931 0.0
H1141 H 0.0894 0.71262 0.82873 0.0
H1142 H 0.96986 0.67279 0.93152 0.0
H1143 H 0.04159 0.67283 0.93402 0.0
Li1144 Li 0.00335 0.26998 0.61129 0.0
Li1145 Li 0.02493 0.25156 0.64118 0.0
Li1146 Li 0.00471 0.22907 0.6122 0.0
Li1147 Li 0.98406 0.24912 0.64229 0.0
C1148 C 0.04567 0.25136 0.593 0.0
N1149 N 0.07862 0.25341 0.56109 0.0
C1150 C 0.06743 0.25682 0.59899 0.0
C1151 C 0.04066 0.24693 0.5708 0.0
C1152 C 0.08384 0.25779 0.58261 0.0
C1153 C 0.05757 0.24804 0.55491 0.0
C1154 C 0.00475 0.29255 0.65926 0.0
C1155 C 0.00173 0.3051 0.69716 0.0
N1156 N 0.0071 0.3261 0.69055 0.0
C1157 C 0.01022 0.31425 0.65282 0.0
C1158 C 0.00046 0.28789 0.68158 0.0
C1159 C 0.01136 0.33098 0.6689 0.0
C1160 C 0.9845 0.30543 0.58645 0.0
N1161 N 0.00361 0.29544 0.59314 0.0
C1162 C 0.02545 0.32433 0.57697 0.0
C1163 C 0.02383 0.30437 0.58857 0.0
C1164 C 0.00604 0.33541 0.57033 0.0
C1165 C 0.98534 0.32557 0.57485 0.0
H1166 H 0.96864 0.29815 0.59076 0.0
H1167 H 0.03871 0.29642 0.59466 0.0
C1168 C 0.06195 0.23242 0.65995 0.0
N1169 N 0.05143 0.25227 0.65733 0.0
C1170 C 0.08298 0.23159 0.66948 0.0
C1171 C 0.08196 0.27173 0.67332 0.0
C1172 C 0.06083 0.27176 0.66384 0.0
C1173 C 0.09333 0.25146 0.67602 0.0
H1174 H 0.05423 0.2173 0.65401 0.0
H1175 H 0.05224 0.28733 0.66107 0.0
C1176 C 0.96184 0.24765 0.59406 0.0
N1177 N 0.92854 0.24711 0.56256 0.0
C1178 C 0.93985 0.24369 0.60041 0.0
C1179 C 0.96693 0.25127 0.57171 0.0
C1180 C 0.92324 0.24346 0.58423 0.0
C1181 C 0.94983 0.25098 0.55604 0.0
C1182 C 0.00642 0.2086 0.66045 0.0
C1183 C 0.00152 0.18661 0.65461 0.0
C1184 C 0.01113 0.21385 0.68254 0.0
C1185 C 0.00133 0.17018 0.67104 0.0
C1186 C 0.01083 0.19692 0.69848 0.0
N1187 N 0.00596 0.17563 0.69246 0.0
C1188 C 0.02673 0.19344 0.59287 0.0
C1189 C 0.9874 0.19129 0.59076 0.0
C1190 C 0.02885 0.17231 0.58353 0.0
N1191 N 0.00626 0.20237 0.59627 0.0
C1192 C 0.98875 0.16994 0.58168 0.0
C1193 C 0.00968 0.16025 0.57818 0.0
H1194 H 0.04137 0.2025 0.59801 0.0
H1195 H 0.97137 0.19872 0.59409 0.0
C1196 C 0.94616 0.2661 0.66361 0.0
N1197 N 0.95895 0.24763 0.66103 0.0
C1198 C 0.92678 0.26511 0.67634 0.0
C1199 C 0.93462 0.22636 0.68407 0.0
C1200 C 0.95355 0.228 0.67088 0.0
C1201 C 0.92069 0.24494 0.68664 0.0
H1202 H 0.95074 0.28142 0.65531 0.0
H1203 H 0.96357 0.21339 0.66816 0.0
O1204 O 0.02948 0.25015 0.60891 0.0
O1205 O 0.00289 0.27617 0.6436 0.0
O1206 O 0.97811 0.24857 0.60985 0.0
O1207 O 0.00632 0.2249 0.64459 0.0
H1208 H 0.0716 0.26032 0.61609 0.0
H1209 H 0.02392 0.24257 0.56593 0.0
H1210 H 0.10074 0.26202 0.58701 0.0
H1211 H 0.05396 0.24461 0.53766 0.0
H1212 H -0.00161 0.30178 0.7145 0.0
H1213 H 0.01345 0.31815 0.63557 0.0
H1214 H 0.99604 0.2712 0.68679 0.0
H1215 H 0.01554 0.34785 0.66415 0.0
H1216 H 0.04172 0.33133 0.57372 0.0
H1217 H 0.96997 0.33381 0.57034 0.0
H1218 H 0.09134 0.21569 0.67108 0.0
H1219 H 0.08938 0.28736 0.67836 0.0
H1220 H 0.93564 0.24092 0.61767 0.0
H1221 H 0.98385 0.25453 0.56657 0.0
H1222 H 0.90615 0.24044 0.5889 0.0
H1223 H 0.95348 0.25389 0.53868 0.0
H1224 H 0.99772 0.18228 0.63762 0.0
H1225 H 0.01491 0.23082 0.68731 0.0
H1226 H 0.99747 0.15311 0.66677 0.0
H1227 H 0.01443 0.20071 0.71566 0.0
H1228 H 0.04522 0.16519 0.58109 0.0
H1229 H 0.97366 0.16106 0.57754 0.0
H1230 H 0.91634 0.27976 0.6774 0.0
H1231 H 0.93076 0.21055 0.69183 0.0
Li1232 Li 0.48511 0.25482 0.35984 0.0
Li1233 Li 0.50349 0.2757 0.39083 0.0
Li1234 Li 0.52645 0.25477 0.36153 0.0
Li1235 Li 0.50541 0.2339 0.39097 0.0
C1236 C 0.5059 0.29727 0.34309 0.0
N1237 N 0.50538 0.33135 0.31227 0.0
C1238 C 0.49974 0.31881 0.34947 0.0
C1239 C 0.51186 0.29305 0.32107 0.0
C1240 C 0.49957 0.33581 0.33364 0.0
C1241 C 0.51147 0.31052 0.30572 0.0
C1242 C 0.46247 0.2545 0.40813 0.0
C1243 C 0.45083 0.25157 0.44633 0.0
N1244 N 0.4297 0.25675 0.4402 0.0
C1245 C 0.44063 0.25968 0.40217 0.0
C1246 C 0.46766 0.25034 0.43035 0.0
C1247 C 0.42431 0.2608 0.41864 0.0
C1248 C 0.44867 0.23602 0.33694 0.0
N1249 N 0.46011 0.25523 0.34038 0.0
C1250 C 0.43493 0.27542 0.31711 0.0
C1251 C 0.45361 0.27474 0.33083 0.0
C1252 C 0.42284 0.25588 0.31339 0.0
C1253 C 0.42983 0.23598 0.3234 0.0
H1254 H 0.454 0.22082 0.34501 0.0
H1255 H 0.46255 0.28991 0.33422 0.0
C1256 C 0.51925 0.31512 0.41212 0.0
N1257 N 0.50094 0.30258 0.40783 0.0
C1258 C 0.51712 0.3359 0.42251 0.0
C1259 C 0.47744 0.33023 0.42428 0.0
C1260 C 0.4803 0.30977 0.41363 0.0
C1261 C 0.49595 0.34372 0.42863 0.0
H1262 H 0.53546 0.30919 0.40704 0.0
H1263 H 0.46592 0.29994 0.40943 0.0
C1264 C 0.50598 0.21265 0.34276 0.0
N1265 N 0.50596 0.17919 0.31129 0.0
C1266 C 0.51074 0.1907 0.34893 0.0
C1267 C 0.50127 0.21762 0.32059 0.0
C1268 C 0.51067 0.17402 0.33277 0.0
C1269 C 0.50128 0.20043 0.30493 0.0
C1270 C 0.54652 0.25617 0.40973 0.0
C1271 C 0.5681 0.25015 0.4035 0.0
C1272 C 0.54208 0.26193 0.43177 0.0
C1273 C 0.58491 0.25002 0.41945 0.0
C1274 C 0.55936 0.26157 0.44724 0.0
N1275 N 0.58023 0.25568 0.44081 0.0
C1276 C 0.5668 0.27213 0.34577 0.0
C1277 C 0.56055 0.23431 0.3363 0.0
C1278 C 0.58839 0.27096 0.33735 0.0
N1279 N 0.55356 0.25382 0.34546 0.0
C1280 C 0.58192 0.23249 0.32744 0.0
C1281 C 0.59632 0.2508 0.32846 0.0
H1282 H 0.56088 0.28733 0.35341 0.0
H1283 H 0.54995 0.21984 0.33669 0.0
C1284 C 0.48948 0.19292 0.40898 0.0
N1285 N 0.50701 0.20721 0.40828 0.0
C1286 C 0.49129 0.17261 0.42032 0.0
C1287 C 0.52892 0.18233 0.43027 0.0
C1288 C 0.52654 0.20215 0.41844 0.0
C1289 C 0.51122 0.16724 0.43119 0.0
H1290 H 0.47424 0.19718 0.40048 0.0
H1291 H 0.54048 0.21328 0.41715 0.0
O1292 O 0.50605 0.28045 0.35838 0.0
O1293 O 0.4786 0.25342 0.39218 0.0
O1294 O 0.50593 0.22913 0.35843 0.0
O1295 O 0.52983 0.25617 0.39433 0.0
H1296 H 0.49502 0.32235 0.36644 0.0
H1297 H 0.51668 0.27646 0.3159 0.0
H1298 H 0.49479 0.35254 0.33833 0.0
H1299 H 0.516 0.30753 0.28859 0.0
H1300 H 0.45457 0.24842 0.46361 0.0
H1301 H 0.43639 0.26291 0.385 0.0
H1302 H 0.48449 0.24624 0.43518 0.0
H1303 H 0.40736 0.26488 0.4143 0.0
H1304 H 0.42963 0.29112 0.30996 0.0
H1305 H 0.42049 0.22072 0.32119 0.0
H1306 H 0.53185 0.3457 0.42579 0.0
H1307 H 0.46083 0.33571 0.42854 0.0
H1308 H 0.51456 0.18661 0.366 0.0
H1309 H 0.4976 0.23454 0.31555 0.0
H1310 H 0.51438 0.15697 0.3373 0.0
H1311 H 0.49759 0.20399 0.28772 0.0
H1312 H 0.57181 0.24539 0.38659 0.0
H1313 H 0.52545 0.26654 0.43687 0.0
H1314 H 0.60167 0.24536 0.41486 0.0
H1315 H 0.55618 0.26596 0.46438 0.0
H1316 H 0.59894 0.28555 0.33816 0.0
H1317 H 0.58746 0.21665 0.32081 0.0
H1318 H 0.47722 0.16138 0.42086 0.0
H1319 H 0.54455 0.17866 0.43837 0.0
Li1320 Li 0.50625 0.77339 0.11099 0.0
Li1321 Li 0.52703 0.75491 0.14175 0.0
Li1322 Li 0.50504 0.73254 0.11393 0.0
Li1323 Li 0.48656 0.75491 0.14343 0.0
C1324 C 0.54708 0.75301 0.09325 0.0
N1325 N 0.57964 0.755 0.06096 0.0
C1326 C 0.56881 0.75886 0.09892 0.0
C1327 C 0.54189 0.74813 0.07118 0.0
C1328 C 0.58504 0.75977 0.08235 0.0
C1329 C 0.5586 0.74926 0.05508 0.0
C1330 C 0.50784 0.79691 0.15958 0.0
C1331 C 0.50603 0.80725 0.19821 0.0
N1332 N 0.50842 0.82903 0.1924 0.0
C1333 C 0.51029 0.81938 0.15398 0.0
C1334 C 0.50574 0.79074 0.18185 0.0
C1335 C 0.51057 0.83537 0.17082 0.0
C1336 C 0.48584 0.80653 0.086 0.0
N1337 N 0.50594 0.79725 0.09035 0.0
C1338 C 0.52408 0.82375 0.0668 0.0
C1339 C 0.52489 0.80525 0.0809 0.0
C1340 C 0.50363 0.83415 0.06278 0.0
C1341 C 0.48429 0.82506 0.07216 0.0
H1342 H 0.47109 0.79995 0.0939 0.0
H1343 H 0.54073 0.79785 0.08494 0.0
C1344 C 0.56289 0.734 0.15995 0.0
N1345 N 0.55347 0.75443 0.1578 0.0
C1346 C 0.58389 0.73184 0.16926 0.0
C1347 C 0.58489 0.77184 0.1744 0.0
C1348 C 0.56378 0.77322 0.16492 0.0
C1349 C 0.59532 0.75095 0.17633 0.0
H1350 H 0.55435 0.71947 0.15369 0.0
H1351 H 0.55593 0.78927 0.16265 0.0
C1352 C 0.46339 0.75106 0.09592 0.0
N1353 N 0.4298 0.74672 0.06503 0.0
C1354 C 0.44156 0.74718 0.10287 0.0
C1355 C 0.46815 0.75272 0.07327 0.0
C1356 C 0.42481 0.745 0.08699 0.0
C1357 C 0.45092 0.7505 0.0579 0.0
C1358 C 0.50539 0.71303 0.16213 0.0
C1359 C 0.49917 0.69145 0.15598 0.0
C1360 C 0.5102 0.71766 0.18433 0.0
C1361 C 0.49776 0.67486 0.17219 0.0
C1362 C 0.50859 0.7006 0.20007 0.0
N1363 N 0.50246 0.67974 0.19372 0.0
C1364 C 0.52359 0.69566 0.09276 0.0
C1365 C 0.48418 0.6968 0.09246 0.0
C1366 C 0.52354 0.67559 0.08111 0.0
N1367 N 0.5041 0.70585 0.09792 0.0
C1368 C 0.48335 0.67684 0.08074 0.0
C1369 C 0.50322 0.66608 0.07482 0.0
H1370 H 0.53914 0.70318 0.09766 0.0
H1371 H 0.46896 0.70498 0.09737 0.0
C1372 C 0.45158 0.77347 0.16959 0.0
N1373 N 0.46142 0.75449 0.16211 0.0
C1374 C 0.43125 0.77233 0.18079 0.0
C1375 C 0.43211 0.73222 0.17681 0.0
C1376 C 0.45234 0.73411 0.16581 0.0
C1377 C 0.42114 0.75152 0.18391 0.0
H1378 H 0.45892 0.78949 0.16591 0.0
H1379 H 0.46013 0.7194 0.15905 0.0
O1380 O 0.53108 0.7518 0.10933 0.0
O1381 O 0.50692 0.78122 0.14316 0.0
O1382 O 0.47986 0.75365 0.11132 0.0
O1383 O 0.50712 0.72935 0.14634 0.0
H1384 H 0.57312 0.76265 0.11593 0.0
H1385 H 0.52516 0.74349 0.06656 0.0
H1386 H 0.60193 0.76426 0.0865 0.0
H1387 H 0.55484 0.74555 0.03793 0.0
H1388 H 0.50428 0.80276 0.21552 0.0
H1389 H 0.51185 0.8244 0.13677 0.0
H1390 H 0.50366 0.77344 0.18642 0.0
H1391 H 0.51242 0.85283 0.16673 0.0
H1392 H 0.53936 0.83066 0.06024 0.0
H1393 H 0.46826 0.83287 0.06961 0.0
H1394 H 0.59141 0.71547 0.17014 0.0
H1395 H 0.59303 0.78693 0.1799 0.0
H1396 H 0.43757 0.74595 0.12035 0.0
H1397 H 0.48494 0.75584 0.06764 0.0
H1398 H 0.40785 0.74201 0.09214 0.0
H1399 H 0.45433 0.75183 0.04031 0.0
H1400 H 0.49542 0.68753 0.13888 0.0
H1401 H 0.51523 0.73421 0.18934 0.0
H1402 H 0.49294 0.65811 0.16765 0.0
H1403 H 0.51227 0.70393 0.21732 0.0
H1404 H 0.53919 0.66786 0.07666 0.0
H1405 H 0.46736 0.66983 0.07641 0.0
H1406 H 0.42286 0.78755 0.18561 0.0
H1407 H 0.42448 0.71597 0.17864 0.0
Li1408 Li 0.89588 0.00017 0.76873 0.0
Li1409 Li 0.86448 0.98006 0.75065 0.0
Li1410 Li 0.89374 0.00058 0.7275 0.0
Li1411 Li 0.86519 0.02145 0.74897 0.0
C1412 C 0.91237 0.95809 0.74984 0.0
N1413 N 0.94334 0.92431 0.75347 0.0
C1414 C 0.90587 0.93691 0.757 0.0
C1415 C 0.93459 0.96211 0.74448 0.0
C1416 C 0.92178 0.92005 0.75873 0.0
C1417 C 0.95001 0.9448 0.74646 0.0
C1418 C 0.84798 -0.0002 0.79181 0.0
C1419 C 0.80992 0.00207 0.80409 0.0
N1420 N 0.8164 0.99623 0.82493 0.0
C1421 C 0.8543 0.99388 0.81335 0.0
C1422 C 0.82564 0.00396 0.7871 0.0
C1423 C 0.83807 0.99213 0.82986 0.0
C1424 C 0.91704 0.02017 0.80469 0.0
N1425 N 0.91444 0.00029 0.79423 0.0
C1426 C 0.93237 0.98118 0.82413 0.0
C1427 C 0.92221 0.98101 0.80326 0.0
C1428 C 0.9343 0.00135 0.83567 0.0
C1429 C 0.92701 0.02108 0.82557 0.0
H1430 H 0.91023 0.03515 0.79736 0.0
H1431 H 0.91939 0.96534 0.79495 0.0
C1432 C 0.84507 0.94188 0.73317 0.0
N1433 N 0.84736 0.95341 0.75241 0.0
C1434 C 0.83628 0.92038 0.73338 0.0
C1435 C 0.83128 0.92334 0.77309 0.0
C1436 C 0.84041 0.94478 0.77215 0.0
C1437 C 0.82978 0.91063 0.75361 0.0
H1438 H 0.851 0.94905 0.71778 0.0
H1439 H 0.84288 0.95401 0.78732 0.0
C1440 C 0.91353 0.04208 0.74773 0.0
N1441 N 0.94548 0.0751 0.74761 0.0
C1442 C 0.90751 0.06426 0.74395 0.0
C1443 C 0.9358 0.03666 0.75143 0.0
C1444 C 0.92391 0.08071 0.74391 0.0
C1445 C 0.95171 0.05362 0.75135 0.0
C1446 C 0.84486 0.0025 0.70857 0.0
C1447 C 0.8507 0.00916 0.68709 0.0
C1448 C 0.82268 0.99781 0.71356 0.0
C1449 C 0.8342 0.01109 0.67093 0.0
C1450 C 0.80665 -5e-05 0.69692 0.0
N1451 N 0.81269 0.00648 0.67614 0.0
C1452 C 0.91561 0.98292 0.6895 0.0
C1453 C 0.91542 0.02233 0.69284 0.0
C1454 C 0.92767 0.98436 0.66968 0.0
N1455 N 0.91001 0.00178 0.70068 0.0
C1456 C 0.92759 0.02451 0.67326 0.0
C1457 C 0.93386 0.00538 0.66157 0.0
H1458 H 0.91087 0.96683 0.69606 0.0
H1459 H 0.91031 0.03704 0.70182 0.0
C1460 C 0.84444 0.05748 0.76923 0.0
N1461 N 0.84862 0.04823 0.74909 0.0
C1462 C 0.83258 0.07735 0.77072 0.0
C1463 C 0.83039 0.07847 0.73064 0.0
C1464 C 0.84221 0.05838 0.72992 0.0
C1465 C 0.82523 0.08793 0.75128 0.0
H1466 H 0.85024 0.0493 0.78415 0.0
H1467 H 0.84622 0.05088 0.7141 0.0
O1468 O 0.89693 0.97464 0.74766 0.0
O1469 O 0.86372 0.00185 0.77556 0.0
O1470 O 0.89758 0.02588 0.74817 0.0
O1471 O 0.86095 -0.00027 0.72432 0.0
H1472 H 0.88872 0.93351 0.76116 0.0
H1473 H 0.93984 0.9784 0.73881 0.0
H1474 H 0.91698 0.90358 0.76423 0.0
H1475 H 0.96728 0.94764 0.74237 0.0
H1476 H 0.79256 0.00527 0.80072 0.0
H1477 H 0.87155 0.99068 0.81726 0.0
H1478 H 0.82054 0.00868 0.77052 0.0
H1479 H 0.8427 0.98753 0.8466 0.0
H1480 H 0.93733 0.96561 0.83178 0.0
H1481 H 0.92783 0.03683 0.83432 0.0
H1482 H 0.83512 0.91122 0.71793 0.0
H1483 H 0.82654 0.91637 0.789 0.0
H1484 H 0.89034 0.06874 0.74106 0.0
H1485 H 0.9407 0.01958 0.75448 0.0
H1486 H 0.91948 0.09794 0.74097 0.0
H1487 H 0.969 0.04971 0.75429 0.0
H1488 H 0.86782 0.01269 0.68291 0.0
H1489 H 0.81794 0.99241 0.73005 0.0
H1490 H 0.83849 0.01618 0.65424 0.0
H1491 H 0.78941 0.99635 0.70051 0.0
H1492 H 0.93254 0.96929 0.66106 0.0
H1493 H 0.93233 0.04092 0.66744 0.0
H1494 H 0.82889 0.08428 0.78693 0.0
H1495 H 0.82479 0.08616 0.71536 0.0
Li1496 Li 0.75479 0.14234 0.52213 0.0
Li1497 Li 0.77367 0.11342 0.49961 0.0
Li1498 Li 0.75262 0.14504 0.48167 0.0
Li1499 Li 0.73304 0.11381 0.50054 0.0
C1500 C 0.79605 0.16124 0.50339 0.0
N1501 N 0.82996 0.192 0.50706 0.0
C1502 C 0.81755 0.15424 0.5087 0.0
C1503 C 0.79176 0.18388 0.5 0.0
C1504 C 0.83447 0.17006 0.51051 0.0
C1505 C 0.80915 0.19917 0.5019 0.0
C1506 C 0.75465 0.09378 0.54158 0.0
C1507 C 0.75071 0.05562 0.55346 0.0
N1508 N 0.75664 0.06166 0.5744 0.0
C1509 C 0.76069 0.09962 0.56322 0.0
C1510 C 0.74958 0.07163 0.53663 0.0
C1511 C 0.76159 0.08314 0.57958 0.0
C1512 C 0.73456 0.15944 0.55896 0.0
N1513 N 0.75471 0.15766 0.54899 0.0
C1514 C 0.77276 0.17334 0.58047 0.0
C1515 C 0.77368 0.16447 0.55909 0.0
C1516 C 0.75215 0.17509 0.59133 0.0
C1517 C 0.73286 0.16828 0.58023 0.0
H1518 H 0.71989 0.15335 0.5506 0.0
H1519 H 0.78951 0.1624 0.55085 0.0
C1520 C 0.80844 0.09124 0.47816 0.0
N1521 N 0.79846 0.09441 0.49813 0.0
C1522 C 0.8264 0.07669 0.47632 0.0
C1523 C 0.82346 0.06905 0.51565 0.0
C1524 C 0.80575 0.08397 0.51676 0.0
C1525 C 0.83405 0.06522 0.49522 0.0
H1526 H 0.80242 0.10005 0.46369 0.0
H1527 H 0.79788 0.08718 0.53253 0.0
C1528 C 0.71198 0.16195 0.50256 0.0
N1529 N 0.6791 0.19395 0.49995 0.0
C1530 C 0.69026 0.15588 0.49703 0.0
C1531 C 0.71697 0.18425 0.50687 0.0
C1532 C 0.67388 0.17231 0.49577 0.0
C1533 C 0.7001 0.2002 0.50543 0.0
C1534 C 0.75222 0.09675 0.45813 0.0
C1535 C 0.74895 0.1026 0.43591 0.0
C1536 C 0.75547 0.07442 0.46385 0.0
C1537 C 0.74897 0.08594 0.41971 0.0
C1538 C 0.75547 0.05826 0.44715 0.0
N1539 N 0.75223 0.06431 0.42562 0.0
C1540 C 0.77052 0.17057 0.44753 0.0
C1541 C 0.73131 0.1733 0.45063 0.0
C1542 C 0.7704 0.18483 0.4293 0.0
N1543 N 0.75115 0.16511 0.45772 0.0
C1544 C 0.73045 0.18793 0.43266 0.0
C1545 C 0.75017 0.19358 0.42174 0.0
H1546 H 0.78598 0.16344 0.45332 0.0
H1547 H 0.71607 0.16807 0.45847 0.0
C1548 C 0.69663 0.09448 0.52065 0.0
N1549 N 0.70684 0.09739 0.50075 0.0
C1550 C 0.67545 0.08523 0.5216 0.0
C1551 C 0.67595 0.08192 0.48153 0.0
C1552 C 0.69716 0.09119 0.48137 0.0
C1553 C 0.66473 0.0792 0.50181 0.0
H1554 H 0.70466 0.10012 0.53569 0.0
H1555 H 0.70555 0.09419 0.46578 0.0
O1556 O 0.77958 0.14584 0.50059 0.0
O1557 O 0.75371 0.10974 0.52539 0.0
O1558 O 0.72822 0.14607 0.50368 0.0
O1559 O 0.75259 0.11297 0.47406 0.0
H1560 H 0.82115 0.13675 0.51123 0.0
H1561 H 0.77523 0.18953 0.49573 0.0
H1562 H 0.8512 0.16487 0.51455 0.0
H1563 H 0.80612 0.21673 0.49918 0.0
H1564 H 0.74686 0.0384 0.54988 0.0
H1565 H 0.76473 0.11666 0.56736 0.0
H1566 H 0.74482 0.06686 0.51999 0.0
H1567 H 0.76626 0.08743 0.59638 0.0
H1568 H 0.78797 0.17865 0.58847 0.0
H1569 H 0.71672 0.16915 0.58816 0.0
H1570 H 0.83442 0.07477 0.46033 0.0
H1571 H 0.8287 0.06058 0.53063 0.0
H1572 H 0.68612 0.13869 0.49362 0.0
H1573 H 0.73371 0.18917 0.51119 0.0
H1574 H 0.65702 0.16787 0.49144 0.0
H1575 H 0.70371 0.21754 0.50866 0.0
H1576 H 0.74646 0.11985 0.43124 0.0
H1577 H 0.75815 0.06966 0.48097 0.0
H1578 H 0.74646 0.09022 0.40245 0.0
H1579 H 0.75807 0.04091 0.4513 0.0
H1580 H 0.78584 0.18856 0.4208 0.0
H1581 H 0.71455 0.19392 0.42672 0.0
H1582 H 0.66724 0.08357 0.53752 0.0
H1583 H 0.6683 0.0772 0.46597 0.0
Li1584 Li 0.61434 0.00419 0.26858 0.0
Li1585 Li 0.64333 0.0263 0.24929 0.0
Li1586 Li 0.61587 0.00265 0.2284 0.0
Li1587 Li 0.64664 0.98552 0.24945 0.0
C1588 C 0.59481 0.04486 0.24969 0.0
N1589 N 0.56277 0.07754 0.2543 0.0
C1590 C 0.60067 0.06615 0.25708 0.0
C1591 C 0.57266 0.04022 0.24458 0.0
C1592 C 0.58423 0.08243 0.2593 0.0
C1593 C 0.5567 0.05696 0.24707 0.0
C1594 C 0.66134 0.00845 0.29225 0.0
C1595 C 0.69896 0.0089 0.30593 0.0
N1596 N 0.69112 0.01159 0.32696 0.0
C1597 C 0.65365 0.01126 0.31398 0.0
C1598 C 0.68417 0.00735 0.28813 0.0
C1599 C 0.66898 0.01283 0.3313 0.0
C1600 C 0.59106 0.98395 0.30294 0.0
N1601 N 0.59519 0.00391 0.29317 0.0
C1602 C 0.57525 0.02319 0.32157 0.0
C1603 C 0.58733 0.02332 0.30182 0.0
C1604 C 0.57172 0.00292 0.33246 0.0
C1605 C 0.57922 0.98306 0.32277 0.0
H1606 H 0.59795 0.96887 0.29593 0.0
H1607 H 0.59149 0.03901 0.29417 0.0
C1608 C 0.65634 0.06491 0.22879 0.0
N1609 N 0.65788 0.05362 0.24829 0.0
C1610 C 0.66495 0.08637 0.22701 0.0
C1611 C 0.67681 0.0839 0.26534 0.0
C1612 C 0.66777 0.06258 0.26646 0.0
C1613 C 0.67521 0.09596 0.24549 0.0
H1614 H 0.64806 0.05731 0.21478 0.0
H1615 H 0.6683 0.05338 0.28187 0.0
C1616 C 0.59833 0.96162 0.24845 0.0
N1617 N 0.56529 0.92972 0.2475 0.0
C1618 C 0.60382 0.93908 0.24636 0.0
C1619 C 0.57604 0.96796 0.25004 0.0
C1620 C 0.58688 0.9232 0.24589 0.0
C1621 C 0.55957 0.95156 0.24955 0.0
C1622 C 0.66404 0.00363 0.20801 0.0
C1623 C 0.65821 0.99634 0.18676 0.0
C1624 C 0.68618 0.00856 0.21279 0.0
C1625 C 0.67473 0.994 0.17062 0.0
C1626 C 0.70223 0.00597 0.19619 0.0
N1627 N 0.69622 -0.00119 0.17563 0.0
C1628 C 0.59468 0.02114 0.19271 0.0
C1629 C 0.59269 0.98162 0.19406 0.0
C1630 C 0.58262 0.02152 0.17307 0.0
N1631 N 0.59927 0.00141 0.20272 0.0
C1632 C 0.58047 0.98122 0.1745 0.0
C1633 C 0.57536 0.00137 0.16383 0.0
H1634 H 0.60047 0.03653 0.20002 0.0
H1635 H 0.5971 0.9662 0.20222 0.0
C1636 C 0.67544 0.95396 0.26865 0.0
N1637 N 0.66681 0.96141 0.24921 0.0
C1638 C 0.68906 0.93518 0.26893 0.0
C1639 C 0.68481 0.93216 0.22913 0.0
C1640 C 0.67134 0.95109 0.22962 0.0
C1641 C 0.69342 0.92369 0.24905 0.0
H1642 H 0.67112 0.96211 0.28405 0.0
H1643 H 0.66375 0.957 0.21448 0.0
O1644 O 0.61077 0.02882 0.24716 0.0
O1645 O 0.64648 0.00628 0.27523 0.0
O1646 O 0.61484 0.97724 0.24935 0.0
O1647 O 0.648 0.00629 0.22386 0.0
H1648 H 0.6177 0.07005 0.2612 0.0
H1649 H 0.56787 0.02389 0.23869 0.0
H1650 H 0.58854 0.09896 0.26503 0.0
H1651 H 0.53948 0.05361 0.24319 0.0
H1652 H 0.71667 0.00792 0.30303 0.0
H1653 H 0.63603 0.0121 0.31746 0.0
H1654 H 0.69036 0.0051 0.2714 0.0
H1655 H 0.66326 0.01496 0.34821 0.0
H1656 H 0.57022 0.0388 0.32908 0.0
H1657 H 0.57717 0.96724 0.33119 0.0
H1658 H 0.66376 0.09532 0.21143 0.0
H1659 H 0.68485 0.09098 0.27979 0.0
H1660 H 0.62103 0.93393 0.24517 0.0
H1661 H 0.57153 0.98532 0.25181 0.0
H1662 H 0.59089 0.9057 0.24429 0.0
H1663 H 0.54225 0.95619 0.25084 0.0
H1664 H 0.64112 0.99253 0.18277 0.0
H1665 H 0.6909 0.01434 0.22914 0.0
H1666 H 0.67047 0.98837 0.1541 0.0
H1667 H 0.71946 0.00969 0.19964 0.0
H1668 H 0.57874 0.03737 0.16536 0.0
H1669 H 0.57528 0.96537 0.16764 0.0
H1670 H 0.69536 0.92917 0.28467 0.0
H1671 H 0.68736 0.92352 0.21354 0.0
Li1672 Li 0.72774 0.89488 0.00706 0.0
Li1673 Li 0.747 0.86415 0.02671 0.0
Li1674 Li 0.76901 0.89342 0.00578 0.0
Li1675 Li 0.74747 0.86426 0.98546 0.0
C1676 C 0.75007 0.91197 0.04843 0.0
N1677 N 0.75078 0.94348 0.08184 0.0
C1678 C 0.74481 0.90592 0.07023 0.0
C1679 C 0.75578 0.93402 0.04361 0.0
C1680 C 0.74522 0.9221 0.08688 0.0
C1681 C 0.75604 0.9497 0.06075 0.0
C1682 C 0.70594 0.84609 0.00842 0.0
C1683 C 0.69531 0.80739 0.00752 0.0
N1684 N 0.67413 0.81325 0.01288 0.0
C1685 C 0.68408 0.85175 0.01393 0.0
C1686 C 0.71164 0.82376 0.00518 0.0
C1687 C 0.66823 0.83489 0.0161 0.0
C1688 C 0.68782 0.91318 0.9913 0.0
N1689 N 0.7019 0.9126 0.0089 0.0
C1690 C 0.67645 0.93352 0.03108 0.0
C1691 C 0.69661 0.92243 0.02854 0.0
C1692 C 0.66139 0.93397 0.01341 0.0
C1693 C 0.66724 0.92379 0.99323 0.0
H1694 H 0.69234 0.90485 0.97601 0.0
H1695 H 0.70764 0.92113 0.04252 0.0
C1696 C 0.766 0.8412 0.06205 0.0
N1697 N 0.74622 0.84711 0.05299 0.0
C1698 C 0.76658 0.82883 0.08161 0.0
C1699 C 0.72641 0.82982 0.08283 0.0
C1700 C 0.7266 0.84206 0.06307 0.0
C1701 C 0.74659 0.82285 0.09205 0.0
H1702 H 0.78132 0.84602 0.05396 0.0
H1703 H 0.71113 0.84751 0.05578 0.0
C1704 C 0.74929 0.91295 0.96463 0.0
N1705 N 0.75163 0.94489 0.93167 0.0
C1706 C 0.75497 0.90689 0.94294 0.0
C1707 C 0.74475 0.93523 0.96957 0.0
C1708 C 0.7561 0.92329 0.92651 0.0
C1709 C 0.74603 0.95114 0.95266 0.0
C1710 C 0.78884 0.84485 0.00424 0.0
C1711 C 0.81029 0.85102 0.99777 0.0
C1712 C 0.7843 0.82261 0.00937 0.0
C1713 C 0.82689 0.83479 0.99658 0.0
C1714 C 0.80137 0.80687 0.00799 0.0
N1715 N 0.82213 0.81324 0.0017 0.0
C1716 C 0.80772 0.90922 0.0254 0.0
C1717 C 0.80497 0.91789 0.9871 0.0
C1718 C 0.82919 0.91793 0.02622 0.0
N1719 N 0.79622 0.9092 0.00601 0.0
C1720 C 0.8264 0.92681 0.98716 0.0
C1721 C 0.83896 0.92659 0.00684 0.0
H1722 H 0.80046 0.90176 0.04006 0.0
H1723 H 0.79563 0.9173 0.97181 0.0
C1724 C 0.72883 0.83941 0.94965 0.0
N1725 N 0.74785 0.84727 0.95891 0.0
C1726 C 0.72945 0.82868 0.92903 0.0
C1727 C 0.76915 0.83455 0.92794 0.0
C1728 C 0.76779 0.84493 0.9486 0.0
C1729 C 0.74981 0.82629 0.91777 0.0
H1730 H 0.71314 0.84178 0.9581 0.0
H1731 H 0.78255 0.85183 0.95611 0.0
O1732 O 0.7493 0.8964 0.03189 0.0
O1733 O 0.72147 0.86248 0.00571 0.0
O1734 O 0.74764 0.89701 0.98077 0.0
O1735 O 0.77265 0.86071 0.00642 0.0
H1736 H 0.74027 0.88895 0.07423 0.0
H1737 H 0.75986 0.93895 0.0268 0.0
H1738 H 0.74108 0.91768 0.1038 0.0
H1739 H 0.76039 0.96684 0.05728 0.0
H1740 H 0.69945 0.79003 0.00502 0.0
H1741 H 0.67939 0.86898 0.01642 0.0
H1742 H 0.72845 0.81915 0.00075 0.0
H1743 H 0.65125 0.83902 0.02031 0.0
H1744 H 0.67236 0.94107 0.0469 0.0
H1745 H 0.65602 0.924 0.97919 0.0
H1746 H 0.78244 0.82371 0.08839 0.0
H1747 H 0.71074 0.82532 0.09046 0.0
H1748 H 0.7584 0.88972 0.93878 0.0
H1749 H 0.74019 0.94014 0.98626 0.0
H1750 H 0.76047 0.91883 0.90966 0.0
H1751 H 0.74253 0.96846 0.95621 0.0
H1752 H 0.81412 0.86817 0.99379 0.0
H1753 H 0.76784 0.81762 0.01461 0.0
H1754 H 0.84357 0.83934 0.99167 0.0
H1755 H 0.79814 0.78961 0.01202 0.0
H1756 H 0.83832 0.91715 0.04168 0.0
H1757 H 0.83314 0.93359 0.97191 0.0
H1758 H 0.71417 0.82231 0.92204 0.0
H1759 H 0.78517 0.83351 0.91981 0.0
Li1760 Li 0.25638 0.64039 0.01897 0.0
Li1761 Li 0.27584 0.60989 -0.00101 0.0
Li1762 Li 0.25608 0.64116 0.97837 0.0
Li1763 Li 0.23498 0.61135 -0.00167 0.0
C1764 C 0.29786 0.6588 0.00214 0.0
N1765 N 0.32978 0.69129 0.00813 0.0
C1766 C 0.31881 0.65311 0.01037 0.0
C1767 C 0.29313 0.68099 0.99692 0.0
C1768 C 0.33473 0.66978 0.01329 0.0
C1769 C 0.30949 0.69719 9e-05 0.0
C1770 C 0.2558 0.593 0.04081 0.0
C1771 C 0.25093 0.55557 0.05448 0.0
N1772 N 0.2569 0.5625 0.07513 0.0
C1773 C 0.26193 0.59976 0.06215 0.0
C1774 C 0.2503 0.57075 0.03689 0.0
C1775 C 0.26239 0.58408 0.07928 0.0
C1776 C 0.23357 0.65418 0.05487 0.0
N1777 N 0.25374 0.65699 0.04515 0.0
C1778 C 0.2657 0.68037 0.07479 0.0
C1779 C 0.2698 0.66977 0.05453 0.0
C1780 C 0.24493 0.67772 0.08515 0.0
C1781 C 0.22872 0.66456 0.07492 0.0
H1782 H 0.22133 0.64359 0.04708 0.0
H1783 H 0.28577 0.67152 0.04651 0.0
C1784 C 0.30987 0.58507 0.97951 0.0
N1785 N 0.30008 0.58991 -0.00075 0.0
C1786 C 0.32832 0.57104 0.97879 0.0
C1787 C 0.32583 0.56667 0.01865 0.0
C1788 C 0.30755 0.581 0.01864 0.0
C1789 C 0.3365 0.56186 -0.00143 0.0
H1790 H 0.30366 0.59258 0.96441 0.0
H1791 H 0.29982 0.58551 0.03417 0.0
C1792 C 0.21472 0.65956 0.00069 0.0
N1793 N 0.18198 0.69169 0.00375 0.0
C1794 C 0.19246 0.65383 0.99746 0.0
C1795 C 0.22036 0.68162 0.00545 0.0
C1796 C 0.17615 0.67032 -0.00096 0.0
C1797 C 0.20354 0.69762 0.00699 0.0
C1798 C 0.25219 0.59296 0.95661 0.0
C1799 C 0.24583 0.59979 0.93535 0.0
C1800 C 0.25583 0.57037 0.96091 0.0
C1801 C 0.24325 0.58384 0.91867 0.0
C1802 C 0.2531 0.55494 0.94377 0.0
N1803 N 0.24693 0.56193 0.92319 0.0
C1804 C 0.27389 0.6626 0.94091 0.0
C1805 C 0.23555 0.66905 0.94733 0.0
C1806 C 0.27314 0.67544 0.92161 0.0
N1807 N 0.25521 0.65961 0.95319 0.0
C1808 C 0.23412 0.6823 0.92842 0.0
C1809 C 0.253 0.68545 0.91509 0.0
H1810 H 0.28922 0.65463 0.9459 0.0
H1811 H 0.22084 0.66602 0.9571 0.0
C1812 C 0.2004 0.59453 0.02135 0.0
N1813 N 0.20854 0.59522 0.00034 0.0
C1814 C 0.18036 0.58402 0.02575 0.0
C1815 C 0.17692 0.57571 0.98656 0.0
C1816 C 0.19736 0.5862 0.98294 0.0
C1817 C 0.16837 0.57452 0.00825 0.0
H1818 H 0.20942 0.60246 0.03468 0.0
H1819 H 0.20411 0.58741 0.96634 0.0
O1820 O 0.28246 0.64253 -0.00164 0.0
O1821 O 0.25485 0.60824 0.02396 0.0
O1822 O 0.23087 0.64362 -0.00115 0.0
O1823 O 0.25575 0.60848 0.9728 0.0
H1824 H 0.32278 0.63595 0.01429 0.0
H1825 H 0.27705 0.68563 0.99035 0.0
H1826 H 0.35104 0.66562 0.01958 0.0
H1827 H 0.3061 0.71443 0.99609 0.0
H1828 H 0.24665 0.5383 0.05173 0.0
H1829 H 0.26634 0.61691 0.06545 0.0
H1830 H 0.2455 0.56529 0.02045 0.0
H1831 H 0.26708 0.58907 0.09588 0.0
H1832 H 0.27853 0.69055 0.08223 0.0
H1833 H 0.21263 0.66195 0.08256 0.0
H1834 H 0.33664 0.56803 0.96311 0.0
H1835 H 0.33224 0.56035 0.03423 0.0
H1836 H 0.18783 0.63686 0.99358 0.0
H1837 H 0.23753 0.68631 0.00795 0.0
H1838 H 0.15886 0.66614 0.99649 0.0
H1839 H 0.20763 0.71476 0.01071 0.0
H1840 H 0.2431 0.61725 0.93174 0.0
H1841 H 0.26091 0.56487 0.97726 0.0
H1842 H 0.23841 0.58888 0.90212 0.0
H1843 H 0.25596 0.5374 0.9468 0.0
H1844 H 0.28803 0.67695 0.91162 0.0
H1845 H 0.21832 0.68981 0.92421 0.0
H1846 H 0.17408 0.58364 0.04261 0.0
H1847 H 0.168 0.5685 0.97272 0.0
Li1848 Li 0.14088 0.52477 0.75238 0.0
Li1849 Li 0.11012 0.50311 0.76969 0.0
Li1850 Li 0.14195 0.48389 0.75093 0.0
Li1851 Li 0.11296 0.50393 0.7296 0.0
C1852 C 0.15783 0.5041 0.79365 0.0
N1853 N 0.18967 0.50506 0.8266 0.0
C1854 C 0.15163 0.50778 0.81572 0.0
C1855 C 0.1802 0.5009 0.7883 0.0
C1856 C 0.16799 0.50825 0.83214 0.0
C1857 C 0.19606 0.50141 0.80522 0.0
C1858 C 0.09298 0.54547 0.75135 0.0
C1859 C 0.05523 0.5581 0.74703 0.0
N1860 N 0.06142 0.57879 0.75386 0.0
C1861 C 0.099 0.56684 0.75831 0.0
C1862 C 0.07096 0.54101 0.74564 0.0
C1863 C 0.08279 0.58346 0.75948 0.0
C1864 C 0.15875 0.56237 0.73348 0.0
N1865 N 0.1575 0.55091 0.75289 0.0
C1866 C 0.18035 0.57752 0.77112 0.0
C1867 C 0.16761 0.55819 0.77166 0.0
C1868 C 0.18232 0.58946 0.75118 0.0
C1869 C 0.1711 0.58195 0.73225 0.0
H1870 H 0.1503 0.55611 0.71892 0.0
H1871 H 0.1659 0.54897 0.78697 0.0
C1872 C 0.08853 0.48178 0.80371 0.0
N1873 N 0.09099 0.50201 0.79397 0.0
C1874 C 0.07804 0.48009 0.8242 0.0
C1875 C 0.07166 0.51994 0.82356 0.0
C1876 C 0.08244 0.52089 0.80309 0.0
C1877 C 0.07019 0.49946 0.83456 0.0
H1878 H 0.09598 0.4672 0.79622 0.0
H1879 H 0.08524 0.53683 0.79529 0.0
C1880 C 0.1611 0.50349 0.71002 0.0
N1881 N 0.19247 0.49963 0.67674 0.0
C1882 C 0.15501 0.49537 0.68915 0.0
C1883 C 0.1831 0.5097 0.71398 0.0
C1884 C 0.17113 0.49355 0.67254 0.0
C1885 C 0.19873 0.50758 0.69694 0.0
C1886 C 0.0942 0.46104 0.74743 0.0
C1887 C 0.10081 0.43907 0.74347 0.0
C1888 C 0.07171 0.46596 0.75046 0.0
C1889 C 0.08475 0.4223 0.74261 0.0
C1890 C 0.05616 0.44869 0.74955 0.0
N1891 N 0.06295 0.42742 0.74567 0.0
C1892 C 0.1612 0.44833 0.77247 0.0
C1893 C 0.17442 0.45285 0.73563 0.0
C1894 C 0.17536 0.43029 0.77576 0.0
N1895 N 0.16108 0.45922 0.75271 0.0
C1896 C 0.189 0.43498 0.73824 0.0
C1897 C 0.1896 0.42345 0.75854 0.0
H1898 H 0.15022 0.45373 0.78566 0.0
H1899 H 0.17381 0.46155 0.71999 0.0
C1900 C 0.09742 0.52712 0.69441 0.0
N1901 N 0.09703 0.50645 0.70356 0.0
C1902 C 0.08594 0.53134 0.67486 0.0
C1903 C 0.07423 0.49271 0.67445 0.0
C1904 C 0.0858 0.48929 0.69417 0.0
C1905 C 0.07429 0.51396 0.66468 0.0
H1906 H 0.10672 0.54029 0.70237 0.0
H1907 H 0.08593 0.47302 0.70189 0.0
O1908 O 0.14195 0.50346 0.77746 0.0
O1909 O 0.10874 0.52914 0.74991 0.0
O1910 O 0.14548 0.50563 0.72637 0.0
O1911 O 0.10986 0.47746 0.74894 0.0
H1912 H 0.13435 0.51026 0.8201 0.0
H1913 H 0.18525 0.49802 0.77128 0.0
H1914 H 0.16344 0.51112 0.84929 0.0
H1915 H 0.21344 0.49891 0.80137 0.0
H1916 H 0.0381 0.55493 0.74266 0.0
H1917 H 0.11599 0.57054 0.76281 0.0
H1918 H 0.06609 0.52455 0.74017 0.0
H1919 H 0.0872 0.60008 0.76485 0.0
H1920 H 0.1887 0.58303 0.78606 0.0
H1921 H 0.17245 0.59073 0.71658 0.0
H1922 H 0.07741 0.46412 0.83258 0.0
H1923 H 0.06621 0.5352 0.83149 0.0
H1924 H 0.13804 0.49051 0.68583 0.0
H1925 H 0.18803 0.51604 0.73006 0.0
H1926 H 0.16667 0.4873 0.6563 0.0
H1927 H 0.21584 0.51227 0.69975 0.0
H1928 H 0.11819 0.435 0.74118 0.0
H1929 H 0.06635 0.48287 0.75368 0.0
H1930 H 0.08963 0.40521 0.73957 0.0
H1931 H 0.03869 0.4522 0.75198 0.0
H1932 H 0.17483 0.42155 0.79149 0.0
H1933 H 0.19971 0.43033 0.72455 0.0
H1934 H 0.08642 0.54785 0.6676 0.0
H1935 H 0.06522 0.47901 0.66699 0.0
Li1936 Li 0.23063 0.39467 0.50778 0.0
Li1937 Li 0.24791 0.36271 0.52779 0.0
Li1938 Li 0.27197 0.39201 0.50848 0.0
Li1939 Li 0.25019 0.36417 0.48632 0.0
C1940 C 0.24939 0.41113 0.5497 0.0
N1941 N 0.24615 0.44366 0.58195 0.0
C1942 C 0.24223 0.4056 0.57109 0.0
C1943 C 0.255 0.43316 0.54469 0.0
C1944 C 0.24068 0.4223 0.58716 0.0
C1945 C 0.25322 0.44938 0.56125 0.0
C1946 C 0.20715 0.34692 0.50546 0.0
C1947 C 0.19522 0.30878 0.50163 0.0
N1948 N 0.17395 0.31517 0.50592 0.0
C1949 C 0.18517 0.35313 0.50979 0.0
C1950 C 0.21226 0.32458 0.50133 0.0
C1951 C 0.16863 0.33682 0.50997 0.0
C1952 C 0.19288 0.41311 0.48881 0.0
N1953 N 0.20446 0.41217 0.50811 0.0
C1954 C 0.17389 0.42784 0.52817 0.0
C1955 C 0.19561 0.41961 0.52754 0.0
C1956 C 0.16114 0.42786 0.50871 0.0
C1957 C 0.17107 0.42097 0.48872 0.0
H1958 H 0.20018 0.40656 0.47373 0.0
H1959 H 0.20483 0.418 0.5428 0.0
C1960 C 0.2627 0.34313 0.56752 0.0
N1961 N 0.24491 0.34509 0.55378 0.0
C1962 C 0.26067 0.33172 0.58766 0.0
C1963 C 0.2222 0.32433 0.57892 0.0
C1964 C 0.22484 0.33623 0.55922 0.0
C1965 C 0.2402 0.32212 0.59344 0.0
H1966 H 0.27836 0.3507 0.56293 0.0
H1967 H 0.21071 0.33866 0.54855 0.0
C1968 C 0.25264 0.41243 0.46606 0.0
N1969 N 0.25319 0.44353 0.43222 0.0
C1970 C 0.25803 0.40597 0.4444 0.0
C1971 C 0.24754 0.43469 0.47052 0.0
C1972 C 0.25822 0.42194 0.42753 0.0
C1973 C 0.24791 0.45017 0.45317 0.0
C1974 C 0.29053 0.34327 0.50547 0.0
C1975 C 0.3113 0.34951 0.49713 0.0
C1976 C 0.28674 0.32117 0.51167 0.0
C1977 C 0.328 0.33346 0.49513 0.0
C1978 C 0.30387 0.3056 0.50939 0.0
N1979 N 0.32397 0.31202 0.50127 0.0
C1980 C 0.31258 0.40277 0.52832 0.0
C1981 C 0.30705 0.42035 0.49349 0.0
C1982 C 0.3339 0.41185 0.52994 0.0
N1983 N 0.29973 0.40706 0.51026 0.0
C1984 C 0.32813 0.43004 0.49458 0.0
C1985 C 0.34183 0.42566 0.51291 0.0
H1986 H 0.30635 0.39197 0.54131 0.0
H1987 H 0.29668 0.42321 0.47914 0.0
C1988 C 0.22963 0.34458 0.44921 0.0
N1989 N 0.2496 0.34799 0.45916 0.0
C1990 C 0.22857 0.33495 0.42813 0.0
C1991 C 0.26866 0.33266 0.42784 0.0
C1992 C 0.26893 0.3421 0.44905 0.0
C1993 C 0.24828 0.32918 0.41704 0.0
H1994 H 0.21454 0.34993 0.45739 0.0
H1995 H 0.2846 0.34542 0.45711 0.0
O1996 O 0.25101 0.39496 0.53382 0.0
O1997 O 0.22356 0.36265 0.50554 0.0
O1998 O 0.25199 0.39691 0.48268 0.0
O1999 O 0.27432 0.35894 0.50847 0.0
H2000 H 0.23784 0.38861 0.5752 0.0
H2001 H 0.26063 0.43765 0.52821 0.0
H2002 H 0.23512 0.41828 0.60378 0.0
H2003 H 0.25746 0.46651 0.55764 0.0
H2004 H 0.19891 0.29142 0.49848 0.0
H2005 H 0.18095 0.37033 0.51314 0.0
H2006 H 0.22921 0.31952 0.49801 0.0
H2007 H 0.15157 0.34138 0.51338 0.0
H2008 H 0.16675 0.43289 0.5439 0.0
H2009 H 0.16183 0.421 0.4733 0.0
H2010 H 0.27497 0.33016 0.59845 0.0
H2011 H 0.20615 0.31722 0.58296 0.0
H2012 H 0.26202 0.38882 0.44063 0.0
H2013 H 0.24325 0.43992 0.48718 0.0
H2014 H 0.26234 0.41717 0.4107 0.0
H2015 H 0.24396 0.46747 0.45635 0.0
H2016 H 0.31451 0.36657 0.49228 0.0
H2017 H 0.27079 0.31615 0.51832 0.0
H2018 H 0.34417 0.33806 0.48876 0.0
H2019 H 0.30122 0.28843 0.51417 0.0
H2020 H 0.34401 0.4083 0.54438 0.0
H2021 H 0.33383 0.44059 0.48113 0.0
H2022 H 0.21255 0.33271 0.42028 0.0
H2023 H 0.28422 0.32827 0.41992 0.0
Li2024 Li 0.39332 0.49974 0.27121 0.0
Li2025 Li 0.36271 0.47992 0.25148 0.0
Li2026 Li 0.39171 0.5022 0.23007 0.0
Li2027 Li 0.3622 0.52126 0.25182 0.0
C2028 C 0.41134 0.45959 0.25065 0.0
N2029 N 0.44361 0.4269 0.25295 0.0
C2030 C 0.40598 0.43828 0.2584 0.0
C2031 C 0.43314 0.46432 0.24422 0.0
C2032 C 0.42252 0.42198 0.2594 0.0
C2033 C 0.44921 0.44754 0.24547 0.0
C2034 C 0.34514 0.49678 0.29375 0.0
C2035 C 0.30725 0.49871 0.30663 0.0
N2036 N 0.31384 0.49106 0.32684 0.0
C2037 C 0.35156 0.48895 0.31464 0.0
C2038 C 0.32284 0.50178 0.28968 0.0
C2039 C 0.33548 0.48617 0.33116 0.0
C2040 C 0.41883 0.51776 0.30598 0.0
N2041 N 0.41302 0.49838 0.29591 0.0
C2042 C 0.43472 0.47734 0.32181 0.0
C2043 C 0.42061 0.47838 0.30345 0.0
C2044 C 0.44055 0.49703 0.33277 0.0
C2045 C 0.43258 0.51746 0.32462 0.0
H2046 H 0.41237 0.5334 0.2998 0.0
H2047 H 0.41524 0.46315 0.29568 0.0
C2048 C 0.35487 0.43933 0.23342 0.0
N2049 N 0.34715 0.45245 0.25006 0.0
C2050 C 0.34725 0.41759 0.23105 0.0
C2051 C 0.32273 0.42346 0.2623 0.0
C2052 C 0.33138 0.44504 0.26448 0.0
C2053 C 0.33073 0.40929 0.24542 0.0
H2054 H 0.36762 0.44562 0.2224 0.0
H2055 H 0.3256 0.4557 0.27772 0.0
C2056 C 0.41104 0.54226 0.24942 0.0
N2057 N 0.44378 0.57419 0.24502 0.0
C2058 C 0.40536 0.56431 0.24449 0.0
C2059 C 0.43334 0.53644 0.25216 0.0
C2060 C 0.42216 0.5802 0.24229 0.0
C2061 C 0.44966 0.55284 0.24987 0.0
C2062 C 0.34339 0.50304 0.21005 0.0
C2063 C 0.34934 0.51088 0.18901 0.0
C2064 C 0.32146 0.49669 0.21425 0.0
C2065 C 0.33317 0.51231 0.17247 0.0
C2066 C 0.30577 0.49836 0.19724 0.0
N2067 N 0.31191 0.50606 0.17688 0.0
C2068 C 0.4129 0.48289 0.19415 0.0
C2069 C 0.41692 0.5222 0.195 0.0
C2070 C 0.42646 0.48152 0.17546 0.0
N2071 N 0.40885 0.50293 0.20378 0.0
C2072 C 0.43049 0.52162 0.17613 0.0
C2073 C 0.43572 0.50101 0.16646 0.0
H2074 H 0.40586 0.46792 0.20127 0.0
H2075 H 0.41306 0.53796 0.20275 0.0
C2076 C 0.34055 0.55744 0.27189 0.0
N2077 N 0.34555 0.54809 0.25199 0.0
C2078 C 0.33242 0.57919 0.27287 0.0
C2079 C 0.33387 0.581 0.23279 0.0
C2080 C 0.34198 0.55915 0.23258 0.0
C2081 C 0.32968 0.59152 0.25318 0.0
H2082 H 0.34391 0.54839 0.28706 0.0
H2083 H 0.34664 0.5515 0.21702 0.0
O2084 O 0.39522 0.47558 0.24902 0.0
O2085 O 0.36082 0.50035 0.27771 0.0
O2086 O 0.39473 0.52661 0.25202 0.0
O2087 O 0.35922 0.50077 0.22615 0.0
H2088 H 0.3893 0.43442 0.26384 0.0
H2089 H 0.43758 0.48072 0.23823 0.0
H2090 H 0.41859 0.40543 0.26535 0.0
H2091 H 0.46614 0.45093 0.24047 0.0
H2092 H 0.28991 0.50248 0.30373 0.0
H2093 H 0.36881 0.48523 0.31809 0.0
H2094 H 0.31766 0.508 0.27362 0.0
H2095 H 0.3402 0.48019 0.34743 0.0
H2096 H 0.44013 0.46129 0.32802 0.0
H2097 H 0.43653 0.53295 0.33294 0.0
H2098 H 0.35455 0.40739 0.21816 0.0
H2099 H 0.30978 0.4181 0.27358 0.0
H2100 H 0.38818 0.56912 0.24245 0.0
H2101 H 0.43798 0.51947 0.25612 0.0
H2102 H 0.41801 0.59732 0.23848 0.0
H2103 H 0.46699 0.5486 0.25198 0.0
H2104 H 0.3663 0.51572 0.18548 0.0
H2105 H 0.31666 0.49041 0.23041 0.0
H2106 H 0.33755 0.51832 0.1561 0.0
H2107 H 0.28873 0.49347 0.2002 0.0
H2108 H 0.42984 0.46535 0.16821 0.0
H2109 H 0.43732 0.53696 0.16958 0.0
H2110 H 0.32899 0.58654 0.28893 0.0
H2111 H 0.33209 0.58994 0.21727 0.0
O2112 O 0.03079 0.01982 0.9971 0.0
Mn2113 Mn 0.00107 0.00268 0.0042 0.0
O2114 O 0.0546 0.99409 0.98546 0.0
Mn2115 Mn 0.04202 0.97304 0.00353 0.0
O2116 O 0.97103 0.98634 0.0119 0.0
O2117 O 0.98781 0.03287 0.01062 0.0
Mn2118 Mn 0.96072 0.03395 -0.00048 0.0
O2119 O 0.99155 0.00502 0.97085 0.0
O2120 O 0.94483 0.01292 0.01512 0.0
O2121 O 0.01178 -0.00066 0.03741 0.0
O2122 O 0.04299 0.97864 0.03363 0.0
O2123 O 0.96559 0.06159 0.01157 0.0
O2124 O 0.96268 0.02876 0.96921 0.0
C2125 C 0.01724 0.95185 0.99108 0.0
C2126 C 0.04961 0.01432 0.98869 0.0
C2127 C 0.9513 0.99285 0.0171 0.0
C2128 C 0.98462 0.05319 0.01704 0.0
C2129 C 0.9764 0.01544 0.96001 0.0
C2130 C 0.02893 0.98923 0.04555 0.0
O2131 O 0.01374 0.97232 0.997 0.0
O2132 O 0.03744 0.9448 0.99334 0.0
O2133 O 0.28716 0.75362 0.244 0.0
Mn2134 Mn 0.25335 0.75088 0.25061 0.0
O2135 O 0.28858 0.77321 0.21198 0.0
Mn2136 Mn 0.25853 0.77941 0.209 0.0
O2137 O 0.21932 0.7486 0.25683 0.0
O2138 O 0.25906 0.72105 0.26493 0.0
Mn2139 Mn 0.24439 0.71938 0.29008 0.0
O2140 O 0.25754 0.76779 0.28068 0.0
O2141 O 0.21472 0.72225 0.28307 0.0
O2142 O 0.24932 0.73323 0.22093 0.0
O2143 O 0.24238 0.75804 0.19425 0.0
O2144 O 0.25902 0.6927 0.28763 0.0
O2145 O 0.25566 0.74178 0.30759 0.0
C2146 C 0.2431 0.8015 0.23181 0.0
C2147 C 0.29785 0.7624 0.22773 0.0
C2148 C 0.20704 0.73643 0.26933 0.0
C2149 C 0.26624 0.70118 0.26922 0.0
C2150 C 0.2589 0.76172 0.30111 0.0
C2151 C 0.24326 0.73809 0.20113 0.0
O2152 O 0.24793 0.78092 0.23626 0.0
O2153 O 0.24818 0.8079 0.2119 0.0
O2154 O 0.47245 0.99007 0.49373 0.0
Mn2155 Mn 0.50375 0.00362 0.49997 0.0
O2156 O 0.4477 0.01759 0.499 0.0
Mn2157 Mn 0.46747 0.03766 0.51098 0.0
O2158 O 0.53511 0.01692 0.50644 0.0
O2159 O 0.51516 0.97228 0.50394 0.0
Mn2160 Mn 0.54035 0.96906 0.48968 0.0
O2161 O 0.5109 0.00343 0.46596 0.0
O2162 O 0.55969 0.98875 0.50311 0.0
O2163 O 0.4969 0.00379 0.53407 0.0
O2164 O 0.4745 0.03305 0.54028 0.0
O2165 O 0.53506 0.94189 0.50246 0.0
O2166 O 0.53419 0.9746 0.46032 0.0
C2167 C 0.48926 0.05582 0.49036 0.0
C2168 C 0.45245 0.99758 0.49376 0.0
C2169 C 0.55478 0.00877 0.50814 0.0
C2170 C 0.51774 0.9519 0.51041 0.0
C2171 C 0.52269 0.99095 0.45325 0.0
C2172 C 0.48622 0.01684 0.54719 0.0
O2173 O 0.49237 0.03514 0.49588 0.0
O2174 O 0.47159 0.06505 0.4985 0.0
O2175 O 0.28391 0.26107 0.76684 0.0
Mn2176 Mn 0.2524 0.25364 0.75427 0.0
O2177 O 0.3079 0.25356 0.73901 0.0
Mn2178 Mn 0.28813 0.24011 0.71986 0.0
O2179 O 0.22119 0.2459 0.74158 0.0
O2180 O 0.24074 0.25161 0.78555 0.0
Mn2181 Mn 0.21582 0.26672 0.78805 0.0
O2182 O 0.24484 0.28752 0.75218 0.0
O2183 O 0.19623 0.25299 0.76863 0.0
O2184 O 0.26035 0.21993 0.7567 0.0
O2185 O 0.28135 0.21104 0.72707 0.0
O2186 O 0.22093 0.25467 0.81564 0.0
O2187 O 0.22322 0.29584 0.78157 0.0
C2188 C 0.26548 0.26051 0.70208 0.0
C2189 C 0.3037 0.26002 0.75877 0.0
C2190 C 0.20133 0.24585 0.74935 0.0
C2191 C 0.23814 0.24599 0.80608 0.0
C2192 C 0.23456 0.30151 0.76462 0.0
C2193 C 0.27087 0.20581 0.74466 0.0
O2194 O 0.26356 0.25544 0.72284 0.0
O2195 O 0.28246 0.25172 0.69221 0.0
O2196 O 0.99521 0.97044 0.48747 0.0
Mn2197 Mn 0.00329 0.00181 0.49967 0.0
O2198 O 0.00312 0.94558 0.51431 0.0
Mn2199 Mn 0.01814 0.96548 0.53229 0.0
O2200 O 0.01138 0.03351 0.51144 0.0
O2201 O 0.0036 0.0127 0.46817 0.0
Mn2202 Mn 0.9888 0.03773 0.46546 0.0
O2203 O 0.96957 0.00932 0.50317 0.0
O2204 O 0.00371 0.05762 0.48369 0.0
O2205 O 0.03698 0.99442 0.4957 0.0
O2206 O 0.04685 0.97201 0.52391 0.0
O2207 O -0.00041 0.03115 0.4375 0.0
O2208 O 0.96012 0.03065 0.47383 0.0
C2209 C -0.00036 0.98743 0.55258 0.0
C2210 C 0.99532 0.95059 0.49532 0.0
C2211 C 0.01136 0.05318 0.50296 0.0
C2212 C 0.00821 0.01404 0.44731 0.0
C2213 C 0.95517 0.01955 0.49119 0.0
C2214 C 0.05155 0.9836 0.50688 0.0
O2215 O 0.00289 0.99059 0.53149 0.0
O2216 O 0.00914 0.96993 0.56086 0.0
O2217 O 0.27217 0.78525 0.75762 0.0
Mn2218 Mn 0.25543 0.75475 0.75164 0.0
O2219 O 0.24849 0.80017 0.7795 0.0
Mn2220 Mn 0.23156 0.79183 0.75583 0.0
O2221 O 0.24141 0.72349 0.74511 0.0
O2222 O 0.2862 0.74355 0.74444 0.0
Mn2223 Mn 0.29055 0.71813 0.75829 0.0
O2224 O 0.2589 0.74629 0.78512 0.0
O2225 O 0.26933 0.6987 0.74782 0.0
O2226 O 0.25144 0.76408 0.71888 0.0
O2227 O 0.24046 0.79853 0.72699 0.0
O2228 O 0.31629 0.72313 0.74298 0.0
O2229 O 0.28917 0.72456 0.78818 0.0
C2230 C 0.2035 0.77544 0.76096 0.0
C2231 C 0.26779 0.80013 0.77204 0.0
C2232 C 0.24902 0.70347 0.74419 0.0
C2233 C 0.30622 0.74122 0.73697 0.0
C2234 C 0.27348 0.7359 0.79671 0.0
C2235 C 0.24615 0.78383 0.71287 0.0
O2236 O 0.22213 0.76395 0.75846 0.0
O2237 O 0.20331 0.79703 0.75981 0.0
O2238 O 0.48489 0.99522 0.97252 0.0
Mn2239 Mn 0.50046 0.00241 0.00266 0.0
O2240 O 0.51188 0.99648 0.94653 0.0
Mn2241 Mn 0.53454 0.00604 0.96465 0.0
O2242 O 0.51698 0.00975 0.03225 0.0
O2243 O 0.47029 0.01167 0.01444 0.0
Mn2244 Mn 0.46985 0.00498 0.04273 0.0
O2245 O 0.49571 0.96965 0.01439 0.0
O2246 O 0.49135 0.0218 0.05614 0.0
O2247 O 0.50511 0.0355 0.99242 0.0
O2248 O 0.53527 0.03616 0.97048 0.0
O2249 O 0.44257 0.01685 0.03775 0.0
O2250 O 0.47395 0.97462 0.04449 0.0
C2251 C 0.54938 0.9839 0.98753 0.0
C2252 C 0.49173 0.99351 0.95233 0.0
C2253 C 0.51146 0.01873 0.05073 0.0
C2254 C 0.45025 0.01895 0.01775 0.0
C2255 C 0.48558 0.96221 0.03179 0.0
C2256 C 0.52019 0.04603 0.98154 0.0
O2257 O 0.5301 0.99293 0.99034 0.0
O2258 O 0.55933 0.989 0.96914 0.0
O2259 O 0.28452 0.25341 0.26497 0.0
Mn2260 Mn 0.25064 0.25025 0.25668 0.0
O2261 O 0.29322 0.22406 0.28654 0.0
Mn2262 Mn 0.26425 0.21721 0.29381 0.0
O2263 O 0.21675 0.24641 0.24874 0.0
O2264 O 0.25278 0.28156 0.24374 0.0
Mn2265 Mn 0.23407 0.2821 0.2212 0.0
O2266 O 0.25819 0.23654 0.22579 0.0
O2267 O 0.20587 0.27762 0.23199 0.0
O2268 O 0.24266 0.26384 0.28775 0.0
O2269 O 0.25062 0.23714 0.31303 0.0
O2270 O 0.24623 0.30975 0.22144 0.0
O2271 O 0.24424 0.26102 0.20097 0.0
C2272 C 0.24332 0.19863 0.27209 0.0
C2273 C 0.29861 0.24162 0.27597 0.0
C2274 C 0.20145 0.25901 0.24082 0.0
C2275 C 0.25761 0.3019 0.23794 0.0
C2276 C 0.2539 0.24269 0.20579 0.0
C2277 C 0.24322 0.25639 0.30781 0.0
O2278 O 0.249 0.21917 0.2691 0.0
O2279 O 0.2522 0.18937 0.28933 0.0
O2280 O 0.49788 0.47261 0.98232 0.0
Mn2281 Mn 0.50512 0.50258 -0.00046 0.0
O2282 O 0.4775 0.45557 0.00637 0.0
Mn2283 Mn 0.50034 0.46366 0.02458 0.0
O2284 O 0.51299 0.5329 0.01488 0.0
O2285 O 0.5141 0.51404 0.96929 0.0
Mn2286 Mn 0.50346 0.54101 0.96579 0.0
O2287 O 0.47234 0.5141 0.99582 0.0
O2288 O 0.51582 0.55844 0.98764 0.0
O2289 O 0.53728 0.49126 0.00347 0.0
O2290 O 0.52918 0.45699 0.01537 0.0
O2291 O 0.51818 0.53513 0.9399 0.0
O2292 O 0.47308 0.53877 0.96763 0.0
C2293 C 0.49278 0.4827 0.05114 0.0
C2294 C 0.48492 0.45646 0.98699 0.0
C2295 C 0.51669 0.55285 0.00801 0.0
C2296 C 0.52234 0.51628 0.94953 0.0
C2297 C 0.46279 0.52811 0.98275 0.0
C2298 C 0.54299 0.47124 0.00799 0.0
O2299 O 0.49699 0.49219 0.0318 0.0
O2300 O 0.49477 0.46124 0.05319 0.0
O2301 O 0.76862 0.28465 0.25892 0.0
Mn2302 Mn 0.75569 0.25305 0.25278 0.0
O2303 O 0.74078 0.30923 0.26065 0.0
Mn2304 Mn 0.72171 0.2902 0.24605 0.0
O2305 O 0.74429 0.22087 0.24651 0.0
O2306 O 0.78747 0.24302 0.24768 0.0
Mn2307 Mn 0.79258 0.221 0.26609 0.0
O2308 O 0.75604 0.24511 0.28677 0.0
O2309 O 0.77251 0.199 0.25828 0.0
O2310 O 0.75418 0.2608 0.2189 0.0
O2311 O 0.7274 0.28685 0.21624 0.0
O2312 O 0.8185 0.22399 0.25083 0.0
O2313 O 0.79008 0.23288 0.29402 0.0
C2314 C 0.70301 0.26568 0.26259 0.0
C2315 C 0.76124 0.3044 0.26228 0.0
C2316 C 0.75317 0.20164 0.24994 0.0
C2317 C 0.80774 0.2399 0.24106 0.0
C2318 C 0.77095 0.2387 0.30054 0.0
C2319 C 0.74209 0.27429 0.20749 0.0
O2320 O 0.72387 0.26327 0.25758 0.0
O2321 O 0.69407 0.28447 0.25689 0.0
O2322 O 0.98772 0.4972 0.46818 0.0
Mn2323 Mn 0.00181 0.50031 0.50023 0.0
O2324 O 0.01689 0.48942 0.44659 0.0
Mn2325 Mn 0.03617 0.50643 0.46276 0.0
O2326 O 0.01656 0.50409 0.53115 0.0
O2327 O 0.97092 0.50576 0.51241 0.0
Mn2328 Mn 0.96937 0.4932 0.53893 0.0
O2329 O -0.00138 0.4663 0.50606 0.0
O2330 O 0.98997 0.5071 0.55691 0.0
O2331 O 0.00512 0.53412 0.49435 0.0
O2332 O 0.02907 0.53646 0.46545 0.0
O2333 O 0.942 0.50557 0.53455 0.0
O2334 O 0.97403 0.46308 0.53426 0.0
C2335 C 0.05368 0.48972 0.48823 0.0
C2336 C 0.99616 0.49209 0.44918 0.0
C2337 C 0.01019 0.50814 0.551 0.0
C2338 C 0.95047 0.51164 0.51573 0.0
C2339 C 0.98709 0.45472 0.51981 0.0
C2340 C 0.01603 0.54521 0.47975 0.0
O2341 O 0.033 0.49531 0.48931 0.0
O2342 O 0.06363 0.49537 0.47004 0.0
O2343 O 0.77999 0.76353 0.27208 0.0
Mn2344 Mn 0.75062 0.75403 0.256 0.0
O2345 O 0.80739 0.75889 0.24711 0.0
Mn2346 Mn 0.79 0.74506 0.22628 0.0
O2347 O 0.72199 0.74423 0.2385 0.0
O2348 O 0.73783 0.74984 0.28762 0.0
Mn2349 Mn 0.70944 0.75347 0.28111 0.0
O2350 O 0.73951 0.78705 0.25611 0.0
O2351 O 0.69962 0.73054 0.2638 0.0
O2352 O 0.76069 0.72071 0.25747 0.0
O2353 O 0.78546 0.71506 0.23037 0.0
O2354 O 0.70841 0.74914 0.3104 0.0
O2355 O 0.70561 0.7823 0.27103 0.0
C2356 C 0.76997 0.76298 0.20447 0.0
C2357 C 0.80045 0.76482 0.26611 0.0
C2358 C 0.70515 0.73237 0.24376 0.0
C2359 C 0.7297 0.74718 0.30768 0.0
C2360 C 0.72063 0.79471 0.26265 0.0
C2361 C 0.77311 0.70789 0.24584 0.0
O2362 O 0.76397 0.75876 0.22493 0.0
O2363 O 0.78945 0.75589 0.19849 0.0
O2364 O 0.78705 0.25172 0.74248 0.0
Mn2365 Mn 0.75321 0.25215 0.75019 0.0
O2366 O 0.79166 0.27797 0.71597 0.0
Mn2367 Mn 0.76202 0.28508 0.71221 0.0
O2368 O 0.7187 0.25335 0.75723 0.0
O2369 O 0.75557 0.21926 0.7606 0.0
Mn2370 Mn 0.73817 0.22157 0.7847 0.0
O2371 O 0.76148 0.26594 0.78057 0.0
O2372 O 0.71003 0.22112 0.77356 0.0
O2373 O 0.74542 0.23869 0.7192 0.0
O2374 O 0.74522 0.2666 0.69448 0.0
O2375 O 0.75554 0.19834 0.79082 0.0
O2376 O 0.7441 0.24403 0.80465 0.0
C2377 C 0.74725 0.3053 0.73687 0.0
C2378 C 0.79927 0.26349 0.72946 0.0
C2379 C 0.70431 0.2387 0.7634 0.0
C2380 C 0.76502 0.2033 0.77213 0.0
C2381 C 0.75558 0.26104 0.80026 0.0
C2382 C 0.74129 0.24652 0.69983 0.0
O2383 O 0.75056 0.28404 0.73914 0.0
O2384 O 0.75308 0.31357 0.71788 0.0
O2385 O 0.78473 0.75242 0.76245 0.0
Mn2386 Mn 0.75155 0.75304 0.75249 0.0
O2387 O 0.78547 0.73113 0.79332 0.0
Mn2388 Mn 0.75546 0.72415 0.79432 0.0
O2389 O 0.7183 0.75332 0.74204 0.0
O2390 O 0.75701 0.78303 0.73853 0.0
Mn2391 Mn 0.74685 0.78327 0.71123 0.0
O2392 O 0.75986 0.73606 0.72307 0.0
O2393 O 0.71675 0.77726 0.71312 0.0
O2394 O 0.74334 0.77044 0.78189 0.0
O2395 O 0.73808 0.74494 0.8085 0.0
O2396 O 0.7585 0.8112 0.71581 0.0
O2397 O 0.76284 0.76183 0.69615 0.0
C2398 C 0.74153 0.70218 0.77055 0.0
C2399 C 0.795 0.74347 0.7789 0.0
C2400 C 0.7077 0.76342 0.72643 0.0
C2401 C 0.76329 0.80336 0.73524 0.0
C2402 C 0.76469 0.74188 0.70308 0.0
C2403 C 0.73747 0.76495 0.8017 0.0
O2404 O 0.74634 0.72286 0.76657 0.0
O2405 O 0.74572 0.6955 0.79055 0.0
O2406 O 0.53312 0.51361 0.49451 0.0
Mn2407 Mn 0.50149 0.50291 0.50304 0.0
O2408 O 0.55617 0.48783 0.50895 0.0
Mn2409 Mn 0.53527 0.46638 0.51661 0.0
O2410 O 0.46911 0.49261 0.5116 0.0
O2411 O 0.49295 0.53556 0.50683 0.0
Mn2412 Mn 0.4699 0.53996 0.4897 0.0
O2413 O 0.49162 0.50141 0.46927 0.0
O2414 O 0.44769 0.52117 0.49981 0.0
O2415 O 0.5114 0.50356 0.53686 0.0
O2416 O 0.52416 0.46948 0.54498 0.0
O2417 O 0.47441 0.56691 0.50264 0.0
O2418 O 0.47968 0.53554 0.46124 0.0
C2419 C 0.51659 0.45295 0.48949 0.0
C2420 C 0.55265 0.50647 0.49934 0.0
C2421 C 0.44997 0.50192 0.50859 0.0
C2422 C 0.49079 0.55653 0.51195 0.0
C2423 C 0.48462 0.51596 0.45524 0.0
C2424 C 0.51827 0.48893 0.55101 0.0
O2425 O 0.51181 0.47114 0.49992 0.0
O2426 O 0.53292 0.44199 0.49818 0.0
O2427 O 0.97308 0.48584 0.99598 0.0
Mn2428 Mn 0.00149 0.5056 0.00127 0.0
O2429 O 0.95056 0.50799 0.97751 0.0
Mn2430 Mn 0.95887 0.53051 0.99616 0.0
O2431 O 0.03064 0.52466 0.00726 0.0
O2432 O 0.01673 0.47718 0.01251 0.0
Mn2433 Mn 0.04361 0.4803 0.00031 0.0
O2434 O 0.01026 0.50082 0.96846 0.0
O2435 O 0.0562 0.50037 0.01906 0.0
O2436 O 0.99032 0.5115 0.03341 0.0
O2437 O 0.95632 0.52589 0.02662 0.0
O2438 O 0.03954 0.45067 0.00246 0.0
O2439 O 0.04501 0.4891 0.97099 0.0
C2440 C 0.98118 0.55455 0.9848 0.0
C2441 C 0.95555 0.48878 0.98434 0.0
C2442 C 0.04965 0.52031 0.01623 0.0
C2443 C 0.01987 0.45588 0.00951 0.0
C2444 C 0.02885 0.49614 0.95959 0.0
C2445 C 0.97134 0.51895 0.03998 0.0
O2446 O 0.98729 0.53482 0.99139 0.0
O2447 O 0.96004 0.55861 0.98541 0.0
H2448 H 0.00573 0.12485 0.08523 0.0
H2449 H 0.02466 0.15998 0.02582 0.0
H2450 H 0.02359 0.12511 0.0046 0.0
H2451 H 0.01038 0.08634 0.00204 0.0
H2452 H 0.99056 0.0515 0.06128 0.0
H2453 H -0.00042 0.08417 0.08379 0.0
C2454 C 0.01006 0.12464 0.06774 0.0
C2455 C 0.01498 0.14473 0.05689 0.0
C2456 C 0.00934 0.10458 0.05575 0.0
C2457 C 0.02067 0.14457 0.03431 0.0
C2458 C 0.02007 0.12469 0.02225 0.0
C2459 C 0.00924 0.08559 0.02001 0.0
C2460 C 9e-05 0.06661 0.03012 0.0
C2461 C 0.01361 0.10476 0.03263 0.0
C2462 C 0.99808 0.06583 0.0533 0.0
C2463 C 0.00278 0.08468 0.06608 0.0
H2464 H 0.10331 0.74496 0.27733 0.0
H2465 H 0.12286 0.76748 0.34244 0.0
H2466 H 0.16187 0.76528 0.33189 0.0
H2467 H 0.19025 0.75417 0.30548 0.0
H2468 H 0.17224 0.73176 0.24008 0.0
H2469 H 0.13259 0.73717 0.24904 0.0
C2470 C 0.11621 0.74965 0.28896 0.0
C2471 C 0.11043 0.75641 0.31056 0.0
C2472 C 0.13868 0.7484 0.28273 0.0
C2473 C 0.12706 0.7625 0.32566 0.0
C2474 C 0.14931 0.76114 0.31969 0.0
C2475 C 0.17757 0.75078 0.29312 0.0
C2476 C 0.18374 0.74245 0.27234 0.0
C2477 C 0.15525 0.75375 0.29847 0.0
C2478 C 0.16755 0.7382 0.25622 0.0
C2479 C 0.14502 0.74116 0.26141 0.0
H2480 H 0.50994 0.88236 0.58258 0.0
H2481 H 0.46858 0.8516 0.53303 0.0
H2482 H 0.46724 0.88661 0.5121 0.0
H2483 H 0.48386 0.92343 0.50478 0.0
H2484 H 0.52587 0.9536 0.55401 0.0
H2485 H 0.52026 0.92185 0.57875 0.0
C2486 C 0.50038 0.88353 0.56737 0.0
C2487 C 0.48979 0.8645 0.55898 0.0
C2488 C 0.49962 0.90367 0.55558 0.0
C2489 C 0.47706 0.8661 0.53955 0.0
C2490 C 0.47628 0.88608 0.52764 0.0
C2491 C 0.49066 0.92354 0.52146 0.0
C2492 C 0.50496 0.94082 0.5278 0.0
C2493 C 0.48817 0.90472 0.53509 0.0
C2494 C 0.51433 0.94065 0.54911 0.0
C2495 C 0.51155 0.92226 0.56302 0.0
H2496 H 0.37833 0.27304 0.83167 0.0
H2497 H 0.41324 0.23082 0.78525 0.0
H2498 H 0.38122 0.23094 0.76062 0.0
H2499 H 0.34399 0.24252 0.75238 0.0
H2500 H 0.30671 0.2827 0.79876 0.0
H2501 H 0.33924 0.28413 0.82344 0.0
C2502 C 0.3788 0.26397 0.81611 0.0
C2503 C 0.398 0.25194 0.81016 0.0
C2504 C 0.36015 0.26389 0.80209 0.0
C2505 C 0.39853 0.24001 0.79016 0.0
C2506 C 0.38032 0.24018 0.77606 0.0
C2507 C 0.34291 0.25195 0.76771 0.0
C2508 C 0.32308 0.26288 0.77351 0.0
C2509 C 0.36116 0.25208 0.78185 0.0
C2510 C 0.3219 0.27438 0.7938 0.0
C2511 C 0.34043 0.27511 0.8079 0.0
H2512 H 0.97467 0.85729 0.45541 0.0
H2513 H 0.0314 0.87484 0.41515 0.0
H2514 H 0.03153 0.91224 0.43115 0.0
H2515 H 0.01719 0.9389 0.45861 0.0
H2516 H 0.96233 0.92033 0.50069 0.0
H2517 H 0.95895 0.88466 0.48115 0.0
C2518 C 0.98682 0.86942 0.44986 0.0
C2519 C 0.00305 0.8633 0.43422 0.0
C2520 C 0.98686 0.89077 0.4592 0.0
C2521 C 0.01895 0.87906 0.42745 0.0
C2522 C 0.01891 0.90048 0.43643 0.0
C2523 C 0.00413 0.92721 0.46298 0.0
C2524 C 0.98979 0.93205 0.48068 0.0
C2525 C 0.00314 0.9064 0.45252 0.0
C2526 C 0.97329 0.91681 0.48683 0.0
C2527 C 0.97154 0.89642 0.47586 0.0
H2528 H 0.39322 0.78052 0.70647 0.0
H2529 H 0.37804 0.73762 0.65118 0.0
H2530 H 0.33943 0.73497 0.66337 0.0
H2531 H 0.31253 0.73873 0.69345 0.0
H2532 H 0.32927 0.77669 0.7515 0.0
H2533 H 0.364 0.78872 0.73421 0.0
C2534 C 0.38126 0.771 0.69694 0.0
C2535 C 0.38835 0.75893 0.67825 0.0
C2536 C 0.35923 0.76904 0.70444 0.0
C2537 C 0.37289 0.74663 0.66591 0.0
C2538 C 0.35084 0.74525 0.67278 0.0
C2539 C 0.32327 0.75067 0.70168 0.0
C2540 C 0.31825 0.75731 0.72339 0.0
C2541 C 0.34406 0.75562 0.69248 0.0
C2542 C 0.33244 0.77218 0.73438 0.0
C2543 C 0.35265 0.77843 0.72475 0.0
H2544 H 0.53392 0.14484 0.95332 0.0
H2545 H 0.46225 0.14382 0.95296 0.0
H2546 H 0.46255 0.10641 0.96918 0.0
H2547 H 0.48349 0.07251 0.97966 0.0
H2548 H 0.55514 0.07406 0.97862 0.0
H2549 H 0.55451 0.11313 0.96759 0.0
C2550 C 0.51831 0.13677 0.95733 0.0
C2551 C 0.49811 0.14711 0.9518 0.0
C2552 C 0.51862 0.11532 0.96645 0.0
C2553 C 0.47807 0.13609 0.95671 0.0
C2554 C 0.47822 0.11475 0.96609 0.0
C2555 C 0.49891 0.08163 0.97756 0.0
C2556 C 0.51933 0.07048 0.97974 0.0
C2557 C 0.49843 0.10397 0.97049 0.0
C2558 C 0.53923 0.08233 0.97682 0.0
C2559 C 0.53889 0.10461 0.97043 0.0
H2560 H 0.12306 0.23244 0.1803 0.0
H2561 H 0.08716 0.27406 0.22652 0.0
H2562 H 0.11993 0.27635 0.25019 0.0
H2563 H 0.16028 0.27065 0.25505 0.0
H2564 H 0.19546 0.22764 0.20987 0.0
H2565 H 0.16142 0.2214 0.18871 0.0
C2566 C 0.12218 0.24158 0.1958 0.0
C2567 C 0.10277 0.25349 0.2013 0.0
C2568 C 0.141 0.24258 0.20954 0.0
C2569 C 0.10208 0.26532 0.22146 0.0
C2570 C 0.12076 0.2665 0.23514 0.0
C2571 C 0.16015 0.25913 0.24118 0.0
C2572 C 0.18011 0.24929 0.23421 0.0
C2573 C 0.14052 0.25576 0.22901 0.0
C2574 C 0.18005 0.23485 0.21587 0.0
C2575 C 0.16069 0.23158 0.20355 0.0
H2576 H 0.06918 0.97159 0.13937 0.0
H2577 H 0.04137 0.03627 0.15361 0.0
H2578 H 0.02475 0.03746 0.11643 0.0
H2579 H 0.02031 0.02062 0.07853 0.0
H2580 H 0.04767 0.95502 0.067 0.0
H2581 H 0.06169 0.95361 0.1045 0.0
C2582 C 0.05902 0.98577 0.13471 0.0
C2583 C 0.05656 0.00375 0.1494 0.0
C2584 C 0.04941 0.98624 0.11358 0.0
C2585 C 0.04381 0.02224 0.14258 0.0
C2586 C 0.03419 0.02289 0.12133 0.0
C2587 C 0.02889 0.00589 0.08447 0.0
C2588 C 0.03317 0.98811 0.06978 0.0
C2589 C 0.03714 0.00506 0.10647 0.0
C2590 C 0.04441 0.96913 0.07775 0.0
C2591 C 0.0525 0.96824 0.09926 0.0
H2592 H 0.24537 0.83337 0.37551 0.0
H2593 H 0.27986 0.78295 0.41314 0.0
H2594 H 0.28579 0.76112 0.37945 0.0
H2595 H 0.27927 0.7554 0.34006 0.0
H2596 H 0.24425 0.80495 0.30179 0.0
H2597 H 0.24114 0.82868 0.3348 0.0
C2598 C 0.25412 0.81758 0.37617 0.0
C2599 C 0.26203 0.80954 0.39659 0.0
C2600 C 0.25769 0.80527 0.35669 0.0
C2601 C 0.27364 0.78929 0.39748 0.0
C2602 C 0.27708 0.7769 0.37828 0.0
C2603 C 0.2713 0.77159 0.33887 0.0
C2604 C 0.26187 0.77841 0.3187 0.0
C2605 C 0.26903 0.78465 0.35789 0.0
C2606 C 0.25179 0.79947 0.31718 0.0
C2607 C 0.24973 0.81286 0.3361 0.0
H2608 H 0.46237 0.98044 0.64188 0.0
H2609 H 0.44605 0.05005 0.65021 0.0
H2610 H 0.4623 0.05863 0.61435 0.0
H2611 H 0.47768 0.04626 0.57945 0.0
H2612 H 0.49126 0.97662 0.56843 0.0
H2613 H 0.48042 0.96818 0.6068 0.0
C2614 C 0.46259 0.99746 0.63583 0.0
C2615 C 0.45321 0.01461 0.64874 0.0
C2616 C 0.47164 0.00229 0.61485 0.0
C2617 C 0.45358 0.03663 0.64081 0.0
C2618 C 0.46275 0.04156 0.62024 0.0
C2619 C 0.47859 0.02924 0.58552 0.0
C2620 C 0.48505 0.01204 0.57115 0.0
C2621 C 0.47142 0.0245 0.60702 0.0
C2622 C 0.4865 0.99015 0.57929 0.0
C2623 C 0.47999 0.98531 0.6011 0.0
H2624 H 0.24737 0.17089 0.87349 0.0
H2625 H 0.28056 0.22324 0.90935 0.0
H2626 H 0.28186 0.24612 0.87571 0.0
H2627 H 0.26781 0.25339 0.83815 0.0
H2628 H 0.23446 0.20138 0.80217 0.0
H2629 H 0.23974 0.17573 0.83336 0.0
C2630 C 0.25515 0.18718 0.87372 0.0
C2631 C 0.26349 0.19568 0.89377 0.0
C2632 C 0.25604 0.2001 0.85426 0.0
C2633 C 0.27388 0.21658 0.89403 0.0
C2634 C 0.27466 0.2296 0.87484 0.0
C2635 C 0.26282 0.23607 0.83675 0.0
C2636 C 0.251 0.22911 0.81797 0.0
C2637 C 0.26517 0.22181 0.85507 0.0
C2638 C 0.24405 0.20686 0.81637 0.0
C2639 C 0.24663 0.19238 0.83439 0.0
H2640 H 0.04853 0.97468 0.36282 0.0
H2641 H 0.09875 0.02301 0.37956 0.0
H2642 H 0.08303 0.02696 0.4167 0.0
H2643 H 0.05125 0.02196 0.44154 0.0
H2644 H -0.001 0.97655 0.4239 0.0
H2645 H 0.01959 0.96527 0.39059 0.0
C2646 C 0.05626 0.98569 0.37481 0.0
C2647 C 0.07447 -0.00108 0.36834 0.0
C2648 C 0.0468 0.98824 0.39607 0.0
C2649 C 0.08439 0.0131 0.384 0.0
C2650 C 0.0755 0.01525 0.40528 0.0
C2651 C 0.04499 0.00877 0.43095 0.0
C2652 C 0.02389 -0.00015 0.43517 0.0
C2653 C 0.05621 0.00359 0.41118 0.0
C2654 C 0.01548 0.98325 0.42112 0.0
C2655 C 0.02705 0.97718 0.40185 0.0
H2656 H 0.22803 0.82489 0.61909 0.0
H2657 H 0.28039 0.77978 0.59999 0.0
H2658 H 0.28206 0.76518 0.63809 0.0
H2659 H 0.26959 0.76697 0.67749 0.0
H2660 H 0.21838 0.81417 0.69542 0.0
H2661 H 0.21517 0.82607 0.6571 0.0
C2662 C 0.2395 0.81153 0.62315 0.0
C2663 C 0.25387 0.80321 0.60685 0.0
C2664 C 0.24069 0.80375 0.64494 0.0
C2665 C 0.26912 0.78636 0.6124 0.0
C2666 C 0.27008 0.77807 0.63413 0.0
C2667 C 0.25768 0.77973 0.67287 0.0
C2668 C 0.24441 0.78982 0.68925 0.0
C2669 C 0.25613 0.78689 0.65066 0.0
C2670 C 0.22904 0.80639 0.68316 0.0
C2671 C 0.22708 0.81316 0.66123 0.0
H2672 H 0.42032 0.00784 0.87806 0.0
H2673 H 0.47373 0.98111 0.83836 0.0
H2674 H 0.49566 0.97424 0.87175 0.0
H2675 H 0.50006 0.97703 0.91171 0.0
H2676 H 0.44795 0.00556 0.95177 0.0
H2677 H 0.42445 0.00953 0.91889 0.0
C2678 C 0.43682 0.00065 0.87686 0.0
C2679 C 0.44558 0.99503 0.856 0.0
C2680 C 0.4492 0.99656 0.89612 0.0
C2681 C 0.4668 0.98548 0.85439 0.0
C2682 C 0.47924 0.98147 0.87341 0.0
C2683 C 0.48342 0.98382 0.91332 0.0
C2684 C 0.47566 0.99097 0.93413 0.0
C2685 C 0.47059 0.98696 0.89431 0.0
C2686 C 0.45405 -0.00045 0.93601 0.0
C2687 C 0.44082 0.00221 0.91714 0.0
H2688 H 0.24577 0.17275 0.12895 0.0
H2689 H 0.28286 0.22331 0.09415 0.0
H2690 H 0.2857 0.24527 0.12826 0.0
H2691 H 0.27523 0.25124 0.16734 0.0
H2692 H 0.23987 0.19996 0.20279 0.0
H2693 H 0.23888 0.17691 0.16923 0.0
C2694 C 0.25449 0.18856 0.12896 0.0
C2695 C 0.26384 0.19664 0.10914 0.0
C2696 C 0.25645 0.20083 0.14873 0.0
C2697 C 0.27546 0.21691 0.10927 0.0
C2698 C 0.27709 0.22942 0.12873 0.0
C2699 C 0.26782 0.23477 0.16775 0.0
C2700 C 0.25781 0.22713 0.18738 0.0
C2701 C 0.2674 0.22168 0.14847 0.0
C2702 C 0.24806 0.2059 0.18789 0.0
C2703 C 0.24725 0.19288 0.16866 0.0
H2704 H 0.12215 0.08893 0.00477 0.0
H2705 H 0.16449 0.03165 0.99566 0.0
H2706 H 0.13217 0.00829 0.98846 0.0
H2707 H 0.09285 0.00438 0.98369 0.0
H2708 H 0.04874 0.06005 0.99504 0.0
H2709 H 0.08101 0.08427 0.00145 0.0
C2710 C 0.12408 0.07127 0.00152 0.0
C2711 C 0.14547 0.06184 0.00069 0.0
C2712 C 0.10535 0.05796 0.99714 0.0
C2713 C 0.14807 0.03906 0.99633 0.0
C2714 C 0.12968 0.02582 0.99205 0.0
C2715 C 0.09004 0.02186 0.98731 0.0
C2716 C 0.0683 0.03037 0.98869 0.0
C2717 C 0.10837 0.03518 0.99203 0.0
C2718 C 0.06529 0.05309 0.99363 0.0
C2719 C 0.08371 0.06685 0.99756 0.0
H2720 H 0.63212 0.42075 0.98887 0.0
H2721 H 0.66001 0.48135 0.01504 0.0
H2722 H 0.62271 0.49779 0.01771 0.0
H2723 H 0.5818 0.49375 0.01449 0.0
H2724 H 0.55476 0.43148 0.99115 0.0
H2725 H 0.59207 0.41688 0.98519 0.0
C2726 C 0.63002 0.4377 0.99481 0.0
C2727 C 0.64861 0.44997 0.00154 0.0
C2728 C 0.60868 0.44664 0.99689 0.0
C2729 C 0.64579 0.47169 0.00972 0.0
C2730 C 0.62452 0.48104 0.01125 0.0
C2731 C 0.58421 0.47709 0.00792 0.0
C2732 C 0.56571 0.46362 0.00336 0.0
C2733 C 0.60579 0.46852 0.00517 0.0
C2734 C 0.56886 0.44201 0.99499 0.0
C2735 C 0.59014 0.43368 0.99153 0.0
H2736 H 0.83029 0.37967 0.2413 0.0
H2737 H 0.78703 0.41676 0.2848 0.0
H2738 H 0.7648 0.3833 0.29166 0.0
H2739 H 0.7569 0.34381 0.28398 0.0
H2740 H 0.79984 0.30724 0.23986 0.0
H2741 H 0.8234 0.33987 0.23499 0.0
C2742 C 0.81593 0.38034 0.2522 0.0
C2743 C 0.81009 0.4005 0.26241 0.0
C2744 C 0.8035 0.36106 0.25628 0.0
C2745 C 0.79172 0.40129 0.27678 0.0
C2746 C 0.77907 0.38222 0.28072 0.0
C2747 C 0.7717 0.34295 0.27372 0.0
C2748 C 0.77713 0.32298 0.26288 0.0
C2749 C 0.78477 0.36202 0.2705 0.0
C2750 C 0.79606 0.32209 0.24926 0.0
C2751 C 0.80922 0.34091 0.24606 0.0
H2752 H 0.86112 0.53997 0.47772 0.0
H2753 H 0.87616 0.59698 0.51851 0.0
H2754 H 0.91475 0.58488 0.52169 0.0
H2755 H 0.94195 0.55488 0.51858 0.0
H2756 H 0.92633 0.49591 0.48126 0.0
H2757 H 0.89066 0.51214 0.47014 0.0
C2758 C 0.87304 0.54985 0.48693 0.0
C2759 C 0.8659 0.56906 0.49823 0.0
C2760 C 0.89512 0.54249 0.48911 0.0
C2761 C 0.88132 0.58187 0.51011 0.0
C2762 C 0.90337 0.57505 0.5118 0.0
C2763 C 0.9312 0.54618 0.50701 0.0
C2764 C 0.93674 0.52451 0.50039 0.0
C2765 C 0.91023 0.55499 0.50207 0.0
C2766 C 0.92254 0.51291 0.48602 0.0
C2767 C 0.90195 0.52199 0.48012 0.0
H2768 H 0.17161 0.1274 0.26438 0.0
H2769 H 0.22058 0.09838 0.22087 0.0
H2770 H 0.2414 0.13345 0.22056 0.0
H2771 H 0.2488 0.16986 0.23817 0.0
H2772 H 0.19972 0.19877 0.28146 0.0
H2773 H 0.1754 0.16667 0.27586 0.0
C2774 C 0.18669 0.12893 0.25461 0.0
C2775 C 0.19488 0.11029 0.24307 0.0
C2776 C 0.19842 0.14918 0.25436 0.0
C2777 C 0.21414 0.11249 0.23008 0.0
C2778 C 0.22602 0.13252 0.22989 0.0
C2779 C 0.23227 0.16961 0.24536 0.0
C2780 C 0.22589 0.18666 0.26 0.0
C2781 C 0.21872 0.15072 0.2426 0.0
C2782 C 0.2047 0.18601 0.26973 0.0
C2783 C 0.19101 0.16743 0.2669 0.0
H2784 H 0.38162 0.9201 0.49304 0.0
H2785 H 0.33822 0.97625 0.50359 0.0
H2786 H 0.36954 0.00186 0.49949 0.0
H2787 H 0.40887 0.00802 0.49436 0.0
H2788 H 0.45362 0.95223 0.48654 0.0
H2789 H 0.42201 0.92658 0.48748 0.0
C2790 C 0.37924 0.93797 0.49445 0.0
C2791 C 0.35797 0.94655 0.49871 0.0
C2792 C 0.39737 0.9525 0.49231 0.0
C2793 C 0.35466 0.96955 0.50048 0.0
C2794 C 0.37246 0.9841 0.49802 0.0
C2795 C 0.41185 0.99028 0.49264 0.0
C2796 C 0.43365 0.98209 0.4905 0.0
C2797 C 0.39385 0.97573 0.49407 0.0
C2798 C 0.43702 0.95902 0.48815 0.0
C2799 C 0.41897 0.94433 0.48888 0.0
H2800 H 0.8242 0.62257 0.27174 0.0
H2801 H 0.77746 0.59277 0.22636 0.0
H2802 H 0.75727 0.62808 0.22383 0.0
H2803 H 0.75609 0.66879 0.23092 0.0
H2804 H 0.8025 0.69755 0.27707 0.0
H2805 H 0.81948 0.66113 0.28328 0.0
C2806 C 0.80924 0.62354 0.26177 0.0
C2807 C 0.80254 0.60516 0.24901 0.0
C2808 C 0.79772 0.64375 0.2605 0.0
C2809 C 0.78327 0.60687 0.23594 0.0
C2810 C 0.77166 0.627 0.23457 0.0
C2811 C 0.76935 0.66675 0.24293 0.0
C2812 C 0.77798 0.68548 0.2538 0.0
C2813 C 0.77914 0.64575 0.24625 0.0
C2814 C 0.79545 0.68307 0.26896 0.0
C2815 C 0.80528 0.66235 0.2723 0.0
H2816 H 0.72641 0.39874 0.76844 0.0
H2817 H 0.65956 0.3741 0.76234 0.0
H2818 H 0.67346 0.33579 0.75973 0.0
H2819 H 0.70512 0.31073 0.7517 0.0
H2820 H 0.7718 0.33568 0.75803 0.0
H2821 H 0.75766 0.37217 0.76897 0.0
C2822 C 0.71495 0.38487 0.76703 0.0
C2823 C 0.69211 0.38906 0.76514 0.0
C2824 C 0.72307 0.36294 0.76573 0.0
C2825 C 0.67726 0.37111 0.7636 0.0
C2826 C 0.6852 0.34925 0.76211 0.0
C2827 C 0.71646 0.32381 0.75676 0.0
C2828 C 0.73941 0.32062 0.75415 0.0
C2829 C 0.70814 0.34505 0.76224 0.0
C2830 C 0.75404 0.33776 0.76026 0.0
C2831 C 0.74596 0.35877 0.76606 0.0
H2832 H 0.98642 0.85864 0.96751 0.0
H2833 H 0.0089 0.88156 0.90346 0.0
H2834 H 0.00912 0.91998 0.91676 0.0
H2835 H 0.00956 0.94569 0.94817 0.0
H2836 H 0.99134 0.9225 0.01323 0.0
H2837 H 0.98175 0.88591 -0.00197 0.0
C2838 C 0.99096 0.87216 0.95644 0.0
C2839 C 0.99804 0.86736 0.93469 0.0
C2840 C 0.99155 0.8942 0.96439 0.0
C2841 C 0.00388 0.88491 0.92041 0.0
C2842 C 0.00385 0.90686 0.92796 0.0
C2843 C 0.00228 0.93296 0.95872 0.0
C2844 C 0.00078 0.93674 0.98162 0.0
C2845 C -0.0015 0.91159 0.95011 0.0
C2846 C 0.99204 0.92004 0.99541 0.0
C2847 C 0.98711 0.89896 0.98679 0.0
H2848 H 0.90048 0.27568 0.71317 0.0
H2849 H 0.89223 0.20937 0.68658 0.0
H2850 H 0.8549 0.20756 0.70194 0.0
H2851 H 0.8225 0.22707 0.71742 0.0
H2852 H 0.82944 0.29464 0.7403 0.0
H2853 H 0.86919 0.29385 0.73181 0.0
C2854 C 0.89055 0.26081 0.71077 0.0
C2855 C 0.89913 0.24285 0.69848 0.0
C2856 C 0.86872 0.26017 0.71888 0.0
C2857 C 0.88621 0.22345 0.69608 0.0
C2858 C 0.86472 0.22243 0.7047 0.0
C2859 C 0.83297 0.24123 0.72129 0.0
C2860 C 0.8234 0.26074 0.72967 0.0
C2861 C 0.85554 0.24096 0.71545 0.0
C2862 C 0.83676 0.27938 0.73402 0.0
C2863 C 0.85937 0.27899 0.72901 0.0
H2864 H 0.50488 0.12453 0.4172 0.0
H2865 H 0.52266 0.16368 0.47446 0.0
H2866 H 0.52341 0.13013 0.49744 0.0
H2867 H 0.51325 0.09095 0.50226 0.0
H2868 H 0.49428 0.0516 0.44573 0.0
H2869 H 0.50083 0.08352 0.42113 0.0
C2870 C 0.50915 0.12555 0.43466 0.0
C2871 C 0.51337 0.14648 0.44428 0.0
C2872 C 0.5097 0.10612 0.44774 0.0
C2873 C 0.51924 0.14772 0.46679 0.0
C2874 C 0.51972 0.12856 0.4799 0.0
C2875 C 0.51169 0.08912 0.4844 0.0
C2876 C 0.5035 0.06906 0.4757 0.0
C2877 C 0.51438 0.1078 0.47068 0.0
C2878 C 0.50102 0.06682 0.45267 0.0
C2879 C 0.50426 0.08523 0.4387 0.0
H2880 H 0.61138 0.71924 0.20411 0.0
H2881 H 0.63076 0.77812 0.16777 0.0
H2882 H 0.6685 0.7749 0.18228 0.0
H2883 H 0.69491 0.75715 0.20774 0.0
H2884 H 0.67499 0.69889 0.24469 0.0
H2885 H 0.63881 0.69931 0.22644 0.0
C2886 C 0.62394 0.73115 0.19904 0.0
C2887 C 0.61823 0.74897 0.18502 0.0
C2888 C 0.6456 0.72906 0.20722 0.0
C2889 C 0.63462 0.7645 0.17892 0.0
C2890 C 0.65626 0.76252 0.18698 0.0
C2891 C 0.68296 0.74406 0.21115 0.0
C2892 C 0.68752 0.72801 0.22749 0.0
C2893 C 0.66185 0.74502 0.20137 0.0
C2894 C 0.67179 0.71134 0.23205 0.0
C2895 C 0.65102 0.71177 0.22188 0.0
H2896 H 0.03086 0.14819 0.54065 0.0
H2897 H 0.99232 0.12204 0.59503 0.0
H2898 H 0.993 0.08486 0.57819 0.0
H2899 H 0.00104 0.06099 0.54591 0.0
H2900 H 0.0361 0.0885 0.48979 0.0
H2901 H 0.0408 0.12381 0.50945 0.0
C2902 C 0.0229 0.13421 0.54887 0.0
C2903 C 0.01147 0.13764 0.56887 0.0
C2904 C 0.02279 0.11319 0.53875 0.0
C2905 C 0.00102 0.11963 0.57945 0.0
C2906 C 0.00147 0.09844 0.56988 0.0
C2907 C 0.01023 0.07456 0.53831 0.0
C2908 C 0.01831 0.07226 0.51656 0.0
C2909 C 0.01184 0.09514 0.54926 0.0
C2910 C 0.02981 0.09001 0.50659 0.0
C2911 C 0.03236 0.1102 0.51774 0.0
H2912 H 0.61213 0.23281 0.28994 0.0
H2913 H 0.63311 0.26388 0.35095 0.0
H2914 H 0.67145 0.2646 0.33774 0.0
H2915 H 0.69726 0.26295 0.30635 0.0
H2916 H 0.67587 0.23503 0.24425 0.0
H2917 H 0.63986 0.22546 0.26052 0.0
C2918 C 0.62521 0.23931 0.30047 0.0
C2919 C 0.61977 0.24876 0.32116 0.0
C2920 C 0.64722 0.24 0.2926 0.0
C2921 C 0.63684 0.25709 0.3347 0.0
C2922 C 0.65878 0.25734 0.32724 0.0
C2923 C 0.68514 0.2536 0.29684 0.0
C2924 C 0.6892 0.24943 0.2743 0.0
C2925 C 0.66401 0.24964 0.3059 0.0
C2926 C 0.67323 0.23791 0.26182 0.0
C2927 C 0.65243 0.23296 0.27098 0.0
H2928 H 0.48836 0.87065 0.08213 0.0
H2929 H 0.51754 0.8476 0.02108 0.0
H2930 H 0.51485 0.88551 0.00535 0.0
H2931 H 0.50327 0.92555 0.00945 0.0
H2932 H 0.47471 0.94622 0.07222 0.0
H2933 H 0.47821 0.90911 0.0866 0.0
C2934 C 0.49397 0.87391 0.06529 0.0
C2935 C 0.50272 0.85652 0.0526 0.0
C2936 C 0.49249 0.8954 0.05664 0.0
C2937 C 0.51056 0.8609 0.03104 0.0
C2938 C 0.50899 0.8825 0.0221 0.0
C2939 C 0.49775 0.92184 0.02619 0.0
C2940 C 0.48828 0.9388 0.03939 0.0
C2941 C 0.49982 0.89997 0.03476 0.0
C2942 C 0.48156 0.93366 0.06126 0.0
C2943 C 0.48364 0.91233 0.06973 0.0
H2944 H 0.89952 0.75405 0.78118 0.0
H2945 H 0.88556 0.75565 0.85136 0.0
H2946 H 0.84571 0.75383 0.84399 0.0
H2947 H 0.8152 0.74949 0.81794 0.0
H2948 H 0.82789 0.74807 0.74752 0.0
H2949 H 0.86793 0.75225 0.75444 0.0
C2950 C 0.88761 0.75415 0.7947 0.0
C2951 C 0.89516 0.75479 0.81675 0.0
C2952 C 0.86467 0.753 0.7903 0.0
C2953 C 0.87987 0.755 0.8343 0.0
C2954 C 0.85718 0.75396 0.8301 0.0
C2955 C 0.82674 0.75014 0.80409 0.0
C2956 C 0.81879 0.74813 0.78231 0.0
C2957 C 0.84945 0.75256 0.80822 0.0
C2958 C 0.83375 0.74953 0.76446 0.0
C2959 C 0.85659 0.75182 0.76843 0.0
H2960 H 0.97517 0.00103 0.8557 0.0
H2961 H 0.90477 0.0019 0.86878 0.0
H2962 H 0.9117 0.00534 0.90857 0.0
H2963 H 0.93747 0.01059 0.93923 0.0
H2964 H 0.00807 0.00897 0.9276 0.0
H2965 H 0.00157 0.00336 0.88765 0.0
C2966 C 0.96149 0.00179 0.86741 0.0
C2967 C 0.9395 0.00143 0.85956 0.0
C2968 C 0.96565 0.00388 0.89036 0.0
C2969 C 0.92178 0.00232 0.87465 0.0
C2970 C 0.92574 0.00432 0.89732 0.0
C2971 C 0.95145 0.00903 0.92793 0.0
C2972 C 0.97318 0.01065 0.93616 0.0
C2973 C 0.94755 0.00558 0.90529 0.0
C2974 C 0.99118 0.00796 0.92152 0.0
C2975 C 0.98744 0.00479 0.89873 0.0
H2976 H 0.72275 0.20532 0.60701 0.0
H2977 H 0.77832 0.16445 0.62671 0.0
H2978 H 0.77696 0.18034 0.66407 0.0
H2979 H 0.76231 0.20849 0.68978 0.0
H2980 H 0.70904 0.25161 0.66884 0.0
H2981 H 0.70636 0.23152 0.63357 0.0
C2982 C 0.73431 0.19965 0.61962 0.0
C2983 C 0.7507 0.18391 0.61417 0.0
C2984 C 0.73361 0.20907 0.64086 0.0
C2985 C 0.76579 0.17685 0.6305 0.0
C2986 C 0.7649 0.18579 0.65186 0.0
C2987 C 0.74968 0.21295 0.67772 0.0
C2988 C 0.73575 0.23124 0.68175 0.0
C2989 C 0.74917 0.20221 0.65709 0.0
C2990 C 0.71978 0.2374 0.66596 0.0
C2991 C 0.71842 0.2261 0.64578 0.0
H2992 H 0.53064 0.01079 0.35055 0.0
H2993 H 0.5988 0.99527 0.36635 0.0
H2994 H 0.58954 0.99261 0.40561 0.0
H2995 H 0.56219 0.99182 0.43462 0.0
H2996 H 0.49334 0.00567 0.42086 0.0
H2997 H 0.50263 0.01238 0.38145 0.0
C2998 C 0.5433 0.00696 0.36276 0.0
C2999 C 0.56526 0.00284 0.35588 0.0
C3000 C 0.53774 0.00513 0.38539 0.0
C3001 C 0.58178 0.99812 0.37153 0.0
C3002 C 0.57652 0.99667 0.39386 0.0
C3003 C 0.54915 0.99627 0.42299 0.0
C3004 C 0.5271 0.99766 0.43025 0.0
C3005 C 0.55455 -0.00036 0.40083 0.0
C3006 C 0.51043 0.00424 0.41537 0.0
C3007 C 0.51575 0.00796 0.39294 0.0
H3008 H 0.7326 0.83048 0.13473 0.0
H3009 H 0.76207 0.78108 0.09181 0.0
H3010 H 0.7671 0.75601 0.12323 0.0
H3011 H 0.76745 0.75001 0.16277 0.0
H3012 H 0.74259 0.80004 0.20755 0.0
H3013 H 0.7303 0.82272 0.17565 0.0
C3014 C 0.73975 0.81406 0.1324 0.0
C3015 C 0.74711 0.80751 0.11114 0.0
C3016 C 0.7432 0.79992 0.15079 0.0
C3017 C 0.75647 0.78636 0.10809 0.0
C3018 C 0.75928 0.77205 0.126 0.0
C3019 C 0.75887 0.76569 0.16558 0.0
C3020 C 0.75607 0.77355 0.18734 0.0
C3021 C 0.75327 0.7789 0.1474 0.0
C3022 C 0.74478 0.79369 0.19088 0.0
C3023 C 0.73812 0.80673 0.17263 0.0
H3024 H 0.92255 0.00558 0.61782 0.0
H3025 H 0.97819 0.00953 0.66254 0.0
H3026 H 0.00395 0.01013 0.63111 0.0
H3027 H 0.01067 0.00438 0.59164 0.0
H3028 H 0.95577 0.99725 0.54659 0.0
H3029 H 0.92952 0.00436 0.57701 0.0
C3030 C 0.94031 0.00687 0.62048 0.0
C3031 C 0.94869 0.0073 0.64225 0.0
C3032 C 0.95501 0.00707 0.60227 0.0
C3033 C 0.9716 0.00905 0.64581 0.0
C3034 C 0.98625 0.00948 0.6279 0.0
C3035 C 0.99296 0.00535 0.58838 0.0
C3036 C 0.98507 0.00069 0.56699 0.0
C3037 C 0.97817 0.00795 0.60613 0.0
C3038 C 0.96217 0.0015 0.56284 0.0
C3039 C 0.94719 0.00498 0.58037 0.0
H3040 H 0.75898 0.17642 0.38226 0.0
H3041 H 0.73952 0.23743 0.41432 0.0
H3042 H 0.7421 0.25748 0.37868 0.0
H3043 H 0.75349 0.25769 0.33861 0.0
H3044 H 0.77235 0.1954 0.30812 0.0
H3045 H 0.7662 0.1757 0.34274 0.0
C3046 C 0.75518 0.19409 0.38131 0.0
C3047 C 0.74951 0.20567 0.40058 0.0
C3048 C 0.75667 0.20523 0.36106 0.0
C3049 C 0.74416 0.2284 0.39945 0.0
C3050 C 0.74567 0.23979 0.37916 0.0
C3051 C 0.75589 0.23981 0.33966 0.0
C3052 C 0.76379 0.22799 0.32116 0.0
C3053 C 0.75242 0.22844 0.35988 0.0
C3054 C 0.76666 0.20479 0.32241 0.0
C3055 C 0.76315 0.1935 0.34214 0.0
H3056 H 0.58385 0.02387 0.12569 0.0
H3057 H 0.53706 0.97898 0.15658 0.0
H3058 H 0.51371 0.98021 0.12357 0.0
H3059 H 0.5059 0.99508 0.08701 0.0
H3060 H 0.55211 0.03942 0.05486 0.0
H3061 H 0.57671 0.03751 0.08753 0.0
C3062 C 0.56851 0.01443 0.1251 0.0
C3063 C 0.56201 0.00145 0.14344 0.0
C3064 C 0.55518 0.01525 0.10609 0.0
C3065 C 0.54236 0.98895 0.14254 0.0
C3066 C 0.529 0.98973 0.12378 0.0
C3067 C 0.52134 0.00444 0.08726 0.0
C3068 C 0.52716 0.0178 0.06911 0.0
C3069 C 0.53514 0.00301 0.10567 0.0
C3070 C 0.54738 0.0293 0.06899 0.0
C3071 C 0.56131 0.02818 0.08756 0.0
H3072 H 0.72015 0.82852 0.88309 0.0
H3073 H 0.78241 0.79852 0.90276 0.0
H3074 H 0.78517 0.77998 0.86704 0.0
H3075 H 0.76898 0.76995 0.83151 0.0
H3076 H 0.70552 0.79653 0.81196 0.0
H3077 H 0.70412 0.81894 0.84627 0.0
C3078 C 0.73424 0.81782 0.87962 0.0
C3079 C 0.75109 0.81506 0.89572 0.0
C3080 C 0.73554 0.8067 0.85905 0.0
C3081 C 0.76939 0.80135 0.8907 0.0
C3082 C 0.77095 0.7906 0.87028 0.0
C3083 C 0.75501 0.78098 0.83464 0.0
C3084 C 0.73744 0.78181 0.81939 0.0
C3085 C 0.75406 0.79297 0.8545 0.0
C3086 C 0.71933 0.79593 0.82345 0.0
C3087 C 0.71847 0.80849 0.84314 0.0
H3088 H 0.8593 0.95128 0.03887 0.0
H3089 H 0.87111 0.92027 0.9753 0.0
H3090 H 0.90893 0.93491 0.97486 0.0
H3091 H 0.93756 0.95927 0.99104 0.0
H3092 H 0.92477 0.99204 0.05335 0.0
H3093 H 0.88889 0.97312 0.05639 0.0
C3094 C 0.87026 0.94738 0.02509 0.0
C3095 C 0.86227 0.93484 0.00706 0.0
C3096 C 0.89199 0.95589 0.02493 0.0
C3097 C 0.87665 0.93025 0.9892 0.0
C3098 C 0.89837 0.93843 0.98903 0.0
C3099 C 0.92722 0.96152 0.00565 0.0
C3100 C 0.93383 0.97657 0.02218 0.0
C3101 C 0.90612 0.95154 0.00664 0.0
C3102 C 0.92008 0.98012 0.04069 0.0
C3103 C 0.89946 0.96957 0.04225 0.0
H3104 H 0.37499 0.58254 0.99467 0.0
H3105 H 0.34652 0.51734 0.00267 0.0
H3106 H 0.38375 0.50032 4e-05 0.0
H3107 H 0.42461 0.50453 0.99303 0.0
H3108 H 0.45122 0.57083 0.98473 0.0
H3109 H 0.41471 0.58693 0.99023 0.0
C3110 C 0.37706 0.56461 0.99594 0.0
C3111 C 0.3584 0.55109 -0.00141 0.0
C3112 C 0.39819 0.55519 0.99432 0.0
C3113 C 0.36093 0.52792 0.00049 0.0
C3114 C 0.38213 0.51827 -0.00103 0.0
C3115 C 0.42227 0.52244 0.99259 0.0
C3116 C 0.4404 0.53645 0.98795 0.0
C3117 C 0.40093 0.53176 0.99551 0.0
C3118 C 0.43735 0.55968 0.98768 0.0
C3119 C 0.41652 0.56896 0.9909 0.0
H3120 H 0.17279 0.63122 0.73605 0.0
H3121 H 0.2253 0.59061 0.7633 0.0
H3122 H 0.25076 0.62211 0.76174 0.0
H3123 H 0.25775 0.66075 0.75398 0.0
H3124 H 0.20555 0.70336 0.72914 0.0
H3125 H 0.18019 0.67129 0.72812 0.0
C3126 C 0.18986 0.6294 0.74151 0.0
C3127 C 0.19728 0.60879 0.74986 0.0
C3128 C 0.20434 0.64775 0.74092 0.0
C3129 C 0.21929 0.60644 0.75705 0.0
C3130 C 0.23382 0.62437 0.75606 0.0
C3131 C 0.24092 0.66317 0.74804 0.0
C3132 C 0.23363 0.68444 0.74147 0.0
C3133 C 0.22648 0.64505 0.74818 0.0
C3134 C 0.21161 0.68714 0.73421 0.0
C3135 C 0.19712 0.66884 0.73369 0.0
H3136 H 0.1417 0.46394 0.52836 0.0
H3137 H 0.12698 0.40472 0.49062 0.0
H3138 H 0.08825 0.41617 0.48731 0.0
H3139 H 0.06092 0.44619 0.48882 0.0
H3140 H 0.07638 0.50714 0.52289 0.0
H3141 H 0.11189 0.49151 0.53519 0.0
C3142 C 0.12986 0.45337 0.51984 0.0
C3143 C 0.13724 0.4338 0.50927 0.0
C3144 C 0.10765 0.46029 0.51763 0.0
C3145 C 0.12177 0.42017 0.49833 0.0
C3146 C 0.0996 0.42661 0.4966 0.0
C3147 C 0.07157 0.4555 0.5 0.0
C3148 C 0.06614 0.4776 0.50515 0.0
C3149 C 0.09258 0.44704 0.50539 0.0
C3150 C 0.08016 0.48988 0.51912 0.0
C3151 C 0.10068 0.48113 0.52567 0.0
H3152 H 0.79343 0.89239 0.77422 0.0
H3153 H 0.85077 0.87556 0.73457 0.0
H3154 H 0.83753 0.83738 0.73086 0.0
H3155 H 0.80663 0.81113 0.73297 0.0
H3156 H 0.74773 0.82827 0.76965 0.0
H3157 H 0.76482 0.86343 0.78139 0.0
C3158 C 0.80319 0.8802 0.76518 0.0
C3159 C 0.82277 0.8869 0.75421 0.0
C3160 C 0.79522 0.85824 0.76275 0.0
C3161 C 0.83534 0.87094 0.74263 0.0
C3162 C 0.82787 0.84906 0.74063 0.0
C3163 C 0.79804 0.82211 0.74447 0.0
C3164 C 0.77615 0.81714 0.75067 0.0
C3165 C 0.80743 0.84278 0.74985 0.0
C3166 C 0.76482 0.83161 0.76507 0.0
C3167 C 0.77443 0.85193 0.77136 0.0
H3168 H 0.64807 0.04793 0.52958 0.0
H3169 H 0.63011 0.091 0.47512 0.0
H3170 H 0.59268 0.07526 0.47474 0.0
H3171 H 0.5662 0.04692 0.48781 0.0
H3172 H 0.58536 0.002 0.54022 0.0
H3173 H 0.6209 0.02135 0.54421 0.0
C3174 C 0.63583 0.0541 0.51788 0.0
C3175 C 0.64181 0.07044 0.50231 0.0
C3176 C 0.61451 0.0448 0.51759 0.0
C3177 C 0.62593 0.07813 0.48703 0.0
C3178 C 0.60451 0.06928 0.48691 0.0
C3179 C 0.57797 0.04188 0.5005 0.0
C3180 C 0.57332 0.02337 0.5139 0.0
C3181 C 0.59874 0.05233 0.50186 0.0
C3182 C 0.58872 0.01643 0.52993 0.0
C3183 C 0.60905 0.02732 0.53205 0.0
H3184 H 0.19864 0.39107 0.72823 0.0
H3185 H 0.21305 0.41136 0.79547 0.0
H3186 H 0.23169 0.37593 0.80231 0.0
H3187 H 0.23913 0.33746 0.7907 0.0
H3188 H 0.2246 0.31718 0.7237 0.0
H3189 H 0.21162 0.35476 0.71485 0.0
C3190 C 0.2064 0.38806 0.74419 0.0
C3191 C 0.20402 0.40365 0.76147 0.0
C3192 C 0.21715 0.3677 0.74798 0.0
C3193 C 0.21408 0.39936 0.78209 0.0
C3194 C 0.22487 0.37918 0.78598 0.0
C3195 C 0.23375 0.34157 0.774 0.0
C3196 C 0.2329 0.32485 0.75779 0.0
C3197 C 0.22579 0.36296 0.76929 0.0
C3198 C 0.22585 0.33006 0.73622 0.0
C3199 C 0.21809 0.35141 0.7313 0.0
H3200 H 0.30002 0.61481 0.22748 0.0
H3201 H 0.34696 0.62246 0.28104 0.0
H3202 H 0.33505 0.66083 0.28645 0.0
H3203 H 0.30712 0.68958 0.28045 0.0
H3204 H 0.25814 0.68171 0.22919 0.0
H3205 H 0.27572 0.64673 0.21741 0.0
C3206 C 0.30791 0.62505 0.24002 0.0
C3207 C 0.32391 0.61558 0.25427 0.0
C3208 C 0.30079 0.64719 0.24322 0.0
C3209 C 0.3341 0.6291 0.27035 0.0
C3210 C 0.32746 0.65112 0.27332 0.0
C3211 C 0.30102 0.6807 0.26599 0.0
C3212 C 0.28161 0.68815 0.25553 0.0
C3213 C 0.31029 0.66004 0.26043 0.0
C3214 C 0.2734 0.67644 0.23714 0.0
C3215 C 0.28316 0.65619 0.23078 0.0
H3216 H 0.52994 0.64358 0.54574 0.0
H3217 H 0.47831 0.63299 0.59432 0.0
H3218 H 0.47436 0.5944 0.58228 0.0
H3219 H 0.48104 0.56599 0.55396 0.0
H3220 H 0.52902 0.57807 0.50248 0.0
H3221 H 0.54003 0.61291 0.52022 0.0
C3222 C 0.51817 0.63264 0.55395 0.0
C3223 C 0.50416 0.64121 0.57061 0.0
C3224 C 0.51567 0.6105 0.54662 0.0
C3225 C 0.48892 0.6269 0.5811 0.0
C3226 C 0.48678 0.60479 0.57435 0.0
C3227 C 0.49478 0.57569 0.54741 0.0
C3228 C 0.50478 0.56909 0.52741 0.0
C3229 C 0.49952 0.59663 0.55665 0.0
C3230 C 0.52191 0.58219 0.51846 0.0
C3231 C 0.52767 0.60253 0.52825 0.0
H3232 H 0.60323 0.23333 0.78308 0.0
H3233 H 0.62257 0.28329 0.83087 0.0
H3234 H 0.65902 0.28607 0.81363 0.0
H3235 H 0.68697 0.27101 0.78822 0.0
H3236 H 0.6696 0.21762 0.74387 0.0
H3237 H 0.63076 0.21976 0.75602 0.0
C3238 C 0.6154 0.24487 0.78967 0.0
C3239 C 0.6101 0.25806 0.80826 0.0
C3240 C 0.63666 0.24591 0.7801 0.0
C3241 C 0.626 0.27316 0.81639 0.0
C3242 C 0.64695 0.2747 0.80662 0.0
C3243 C 0.67442 0.26049 0.78065 0.0
C3244 C 0.68078 0.24455 0.76491 0.0
C3245 C 0.65261 0.26085 0.78879 0.0
C3246 C 0.66477 0.23034 0.7557 0.0
C3247 C 0.64271 0.23135 0.76288 0.0
H3248 H 0.97173 0.37118 0.04807 0.0
H3249 H 0.03868 0.36046 0.07137 0.0
H3250 H 0.04931 0.39749 0.05901 0.0
H3251 H 0.04088 0.43116 0.03913 0.0
H3252 H 0.97587 0.44221 0.0117 0.0
H3253 H 0.96265 0.40735 0.02899 0.0
C3254 C 0.98854 0.37717 0.05051 0.0
C3255 C 0.00454 0.36308 0.06028 0.0
C3256 C 0.99473 0.39852 0.04287 0.0
C3257 C 0.02625 0.37089 0.06352 0.0
C3258 C 0.0323 0.39209 0.05662 0.0
C3259 C 0.02369 0.4261 0.0371 0.0
C3260 C 0.0094 0.43892 0.02383 0.0
C3261 C 0.01684 0.40579 0.04594 0.0
C3262 C 0.98713 0.43247 0.02171 0.0
C3263 C 0.97973 0.41245 0.03142 0.0
H3264 H 0.89378 0.78354 0.30335 0.0
H3265 H 0.8809 0.72083 0.33614 0.0
H3266 H 0.84267 0.72152 0.3228 0.0
H3267 H 0.81373 0.73872 0.29951 0.0
H3268 H 0.82722 0.80079 0.26626 0.0
H3269 H 0.86401 0.80239 0.28337 0.0
C3270 C 0.88253 0.77025 0.30805 0.0
C3271 C 0.89032 0.75214 0.32066 0.0
C3272 C 0.86049 0.77095 0.30072 0.0
C3273 C 0.87555 0.73478 0.32606 0.0
C3274 C 0.85357 0.73529 0.3187 0.0
C3275 C 0.82442 0.75305 0.2969 0.0
C3276 C 0.81776 0.76996 0.28224 0.0
C3277 C 0.84592 0.75321 0.30586 0.0
C3278 C 0.83193 0.788 0.27806 0.0
C3279 C 0.85305 0.78867 0.28748 0.0
H3280 H 0.50824 0.35729 0.96312 0.0
H3281 H 0.49681 0.38072 0.89663 0.0
H3282 H 0.49031 0.41872 0.91059 0.0
H3283 H 0.48594 0.44483 0.94263 0.0
H3284 H 0.49624 0.41921 0.00889 0.0
H3285 H 0.50532 0.38287 0.99424 0.0
C3286 C 0.50461 0.37087 0.95176 0.0
C3287 C 0.50308 0.3666 0.92906 0.0
C3288 C 0.50046 0.39227 0.95992 0.0
C3289 C 0.49822 0.38399 0.91426 0.0
C3290 C 0.49438 0.40558 0.92225 0.0
C3291 C 0.49001 0.43119 0.95372 0.0
C3292 C 0.48968 0.4346 0.97679 0.0
C3293 C 0.49506 0.40988 0.94517 0.0
C3294 C 0.49554 0.41691 0.99106 0.0
C3295 C 0.50098 0.39608 0.98274 0.0
H3296 H 0.88978 0.28021 0.19792 0.0
H3297 H 0.88279 0.22007 0.1594 0.0
H3298 H 0.84505 0.21513 0.17331 0.0
H3299 H 0.81692 0.22433 0.201 0.0
H3300 H 0.82655 0.2805 0.24406 0.0
H3301 H 0.85931 0.29177 0.22286 0.0
C3302 C 0.87976 0.26632 0.19227 0.0
C3303 C 0.88909 0.25032 0.17799 0.0
C3304 C 0.85823 0.26328 0.2008 0.0
C3305 C 0.87606 0.23232 0.17079 0.0
C3306 C 0.85444 0.22959 0.17857 0.0
C3307 C 0.82559 0.2397 0.20488 0.0
C3308 C 0.81891 0.25218 0.22337 0.0
C3309 C 0.84566 0.24454 0.19414 0.0
C3310 C 0.83065 0.27151 0.22904 0.0
C3311 C 0.84987 0.27743 0.21738 0.0
H3312 H 0.01718 0.64896 0.46967 0.0
H3313 H 0.97665 0.63178 0.41317 0.0
H3314 H 0.97651 0.59283 0.4246 0.0
H3315 H 0.99087 0.56323 0.4485 0.0
H3316 H 0.03177 0.5795 0.50474 0.0
H3317 H 0.02877 0.61938 0.49579 0.0
C3318 C 0.00817 0.63665 0.46006 0.0
C3319 C 0.99699 0.64312 0.44063 0.0
C3320 C 0.00829 0.61424 0.46664 0.0
C3321 C 0.98518 0.62718 0.42833 0.0
C3322 C 0.9852 0.60491 0.43475 0.0
C3323 C -0.0013 0.57566 0.45898 0.0
C3324 C 0.01142 0.56888 0.47718 0.0
C3325 C 0.99706 0.59822 0.45358 0.0
C3326 C 0.02175 0.58471 0.49074 0.0
C3327 C 0.02014 0.60736 0.48552 0.0
H3328 H 0.62214 0.73814 0.67419 0.0
H3329 H 0.59036 0.7689 0.73051 0.0
H3330 H 0.62636 0.77202 0.74936 0.0
H3331 H 0.66772 0.76969 0.74768 0.0
H3332 H 0.69829 0.7407 0.68982 0.0
H3333 H 0.66211 0.73293 0.6738 0.0
C3334 C 0.62301 0.74504 0.69081 0.0
C3335 C 0.60371 0.75329 0.70094 0.0
C3336 C 0.64366 0.74724 0.70119 0.0
C3337 C 0.60511 0.7626 0.72232 0.0
C3338 C 0.62566 0.76438 0.73308 0.0
C3339 C 0.66627 0.76118 0.73187 0.0
C3340 C 0.68553 0.75558 0.71993 0.0
C3341 C 0.64519 0.7573 0.72241 0.0
C3342 C 0.68364 0.74493 0.69929 0.0
C3343 C 0.66295 0.7406 0.69007 0.0
H3344 H 0.58374 0.50707 0.62958 0.0
H3345 H 0.52385 0.50101 0.66816 0.0
H3346 H 0.50169 0.49857 0.63398 0.0
H3347 H 0.50009 0.49441 0.59276 0.0
H3348 H 0.56084 0.49944 0.55514 0.0
H3349 H 0.58194 0.50575 0.58903 0.0
C3350 C 0.56579 0.50554 0.6304 0.0
C3351 C 0.55534 0.50421 0.65114 0.0
C3352 C 0.55336 0.5037 0.61079 0.0
C3353 C 0.53215 0.50198 0.65222 0.0
C3354 C 0.51953 0.50056 0.63271 0.0
C3355 C 0.51782 0.49749 0.59209 0.0
C3356 C 0.52892 0.49679 0.57155 0.0
C3357 C 0.53001 0.5009 0.61184 0.0
C3358 C 0.55198 0.5003 0.5708 0.0
C3359 C 0.56408 0.50376 0.59016 0.0
H3360 H 0.77551 0.29581 0.89507 0.0
H3361 H 0.73294 0.34917 0.87279 0.0
H3362 H 0.73283 0.33362 0.83526 0.0
H3363 H 0.74209 0.30278 0.80976 0.0
H3364 H 0.78309 0.24877 0.83302 0.0
H3365 H 0.78741 0.26707 0.869 0.0
C3366 C 0.76655 0.30427 0.88191 0.0
C3367 C 0.75411 0.32347 0.88669 0.0
C3368 C 0.7665 0.29523 0.86051 0.0
C3369 C 0.74231 0.3341 0.86956 0.0
C3370 C 0.74238 0.32534 0.84809 0.0
C3371 C 0.7525 0.29551 0.82257 0.0
C3372 C 0.76249 0.27475 0.81897 0.0
C3373 C 0.75408 0.30567 0.84348 0.0
C3374 C 0.77553 0.26496 0.83561 0.0
C3375 C 0.77779 0.27528 0.85617 0.0
H3376 H 0.93067 0.53081 0.1351 0.0
H3377 H 0.97873 0.48016 0.15139 0.0
H3378 H 0.9929 0.48102 0.11306 0.0
H3379 H 0.98999 0.4952 0.07431 0.0
H3380 H 0.94038 0.54511 0.05937 0.0
H3381 H 0.92862 0.54561 0.09783 0.0
C3382 C 0.94453 0.52023 0.13039 0.0
C3383 C 0.95382 0.50564 0.14599 0.0
C3384 C 0.95221 0.52059 0.10851 0.0
C3385 C 0.97135 0.49156 0.13955 0.0
C3386 C 0.97943 0.49207 0.1177 0.0
C3387 C 0.9768 0.50633 0.07959 0.0
C3388 C 0.96601 0.51997 0.06391 0.0
C3389 C 0.96978 0.50638 0.10192 0.0
C3390 C 0.94885 0.53424 0.07098 0.0
C3391 C 0.94209 0.53462 0.09301 0.0
H3392 H 0.74782 0.72454 0.40526 0.0
H3393 H 0.77998 0.66789 0.37523 0.0
H3394 H 0.77771 0.68573 0.33867 0.0
H3395 H 0.76031 0.71453 0.31474 0.0
H3396 H 0.72725 0.77025 0.34555 0.0
H3397 H 0.73654 0.75605 0.38226 0.0
C3398 C 0.7546 0.71627 0.39073 0.0
C3399 C 0.76361 0.69482 0.39276 0.0
C3400 C 0.75308 0.72651 0.36989 0.0
C3401 C 0.7728 0.6844 0.37397 0.0
C3402 C 0.77145 0.69455 0.35308 0.0
C3403 C 0.75612 0.72399 0.32952 0.0
C3404 C 0.74313 0.7433 0.3276 0.0
C3405 C 0.76085 0.71525 0.35071 0.0
C3406 C 0.73738 0.75535 0.34677 0.0
C3407 C 0.74242 0.74711 0.36776 0.0
H3408 H 0.59351 0.49593 0.88188 0.0
H3409 H 0.53515 0.48143 0.84327 0.0
H3410 H 0.51256 0.48026 0.87714 0.0
H3411 H 0.50856 0.49067 0.91627 0.0
H3412 H 0.56624 0.50803 0.95453 0.0
H3413 H 0.59026 0.4997 0.92275 0.0
C3414 C 0.57592 0.49209 0.88109 0.0
C3415 C 0.56577 0.48906 0.86033 0.0
C3416 C 0.56307 0.49173 0.9006 0.0
C3417 C 0.54309 0.484 0.8592 0.0
C3418 C 0.53025 0.48328 0.87852 0.0
C3419 C 0.5265 0.49135 0.91795 0.0
C3420 C 0.53571 0.4998 0.9376 0.0
C3421 C 0.53991 0.48796 0.89918 0.0
C3422 C 0.55888 0.50114 0.93962 0.0
C3423 C 0.57254 0.49693 0.92126 0.0
H3424 H 0.77256 0.28621 0.10727 0.0
H3425 H 0.71902 0.33403 0.11047 0.0
H3426 H 0.71109 0.3233 0.1485 0.0
H3427 H 0.71918 0.30128 0.18043 0.0
H3428 H 0.77354 0.25424 0.1802 0.0
H3429 H 0.78092 0.26319 0.14101 0.0
C3430 C 0.7592 0.29413 0.11643 0.0
C3431 C 0.74611 0.3106 0.10613 0.0
C3432 C 0.75471 0.28788 0.13854 0.0
C3433 C 0.72894 0.32099 0.11802 0.0
C3434 C 0.72444 0.31492 0.13973 0.0
C3435 C 0.73269 0.29279 0.17201 0.0
C3436 C 0.74586 0.27719 0.18336 0.0
C3437 C 0.73715 0.29842 0.15006 0.0
C3438 C 0.76312 0.26634 0.17186 0.0
C3439 C 0.76742 0.27156 0.14952 0.0
H3440 H 0.96264 0.51412 0.35319 0.0
H3441 H 0.89918 0.49699 0.38112 0.0
H3442 H 0.91639 0.49144 0.41786 0.0
H3443 H 0.95072 0.48945 0.44132 0.0
H3444 H 0.01379 0.5047 0.41019 0.0
H3445 H 0.99562 0.51289 0.37575 0.0
C3446 C 0.95262 0.5095 0.36747 0.0
C3447 C 0.9299 0.50615 0.36487 0.0
C3448 C 0.96265 0.50563 0.38795 0.0
C3449 C 0.91683 0.49985 0.38314 0.0
C3450 C 0.92667 0.49653 0.40398 0.0
C3451 C 0.96037 0.4944 0.42693 0.0
C3452 C 0.98365 0.49583 0.4284 0.0
C3453 C 0.94976 0.49896 0.40652 0.0
C3454 C 0.99592 0.5027 0.40961 0.0
C3455 C 0.98557 0.50768 0.38977 0.0
H3456 H 0.78333 0.67928 0.62139 0.0
H3457 H 0.71662 0.70115 0.60623 0.0
H3458 H 0.71437 0.72008 0.64182 0.0
H3459 H 0.73228 0.73331 0.6754 0.0
H3460 H 0.79923 0.71398 0.69094 0.0
H3461 H 0.80073 0.69119 0.65687 0.0
C3462 C 0.76834 0.68825 0.62586 0.0
C3463 C 0.75017 0.68878 0.61106 0.0
C3464 C 0.76727 0.69951 0.64633 0.0
C3465 C 0.73073 0.70017 0.61731 0.0
C3466 C 0.72946 0.71114 0.63763 0.0
C3467 C 0.74693 0.72357 0.6716 0.0
C3468 C 0.76543 0.7249 0.6856 0.0
C3469 C 0.7477 0.71117 0.65203 0.0
C3470 C 0.78468 0.71281 0.68045 0.0
C3471 C 0.78555 0.70002 0.66092 0.0
H3472 H 0.62536 0.58196 0.49266 0.0
H3473 H 0.66829 0.52555 0.50342 0.0
H3474 H 0.63621 0.50045 0.50318 0.0
H3475 H 0.59614 0.49488 0.50105 0.0
H3476 H 0.55281 0.55093 0.4894 0.0
H3477 H 0.58482 0.57599 0.48875 0.0
C3478 C 0.62751 0.56416 0.49495 0.0
C3479 C 0.64887 0.55542 0.49825 0.0
C3480 C 0.60902 0.5499 0.49462 0.0
C3481 C 0.65182 0.53244 0.50106 0.0
C3482 C 0.63355 0.51817 0.50084 0.0
C3483 C 0.59365 0.51255 0.49817 0.0
C3484 C 0.57205 0.5211 0.49558 0.0
C3485 C 0.6121 0.52674 0.49775 0.0
C3486 C 0.56923 0.544 0.49162 0.0
C3487 C 0.58753 0.55832 0.49129 0.0
H3488 H 0.13723 0.9363 0.47689 0.0
H3489 H 0.16512 0.97786 0.52825 0.0
H3490 H 0.12997 0.99793 0.53152 0.0
H3491 H 0.08982 -0.00033 0.52354 0.0
H3492 H 0.06255 0.95891 0.4715 0.0
H3493 H 0.09918 0.9428 0.46426 0.0
C3494 C 0.1359 0.95017 0.48835 0.0
C3495 C 0.15366 0.95526 0.50262 0.0
C3496 C 0.11574 0.96174 0.49001 0.0
C3497 C 0.15149 0.97318 0.51751 0.0
C3498 C 0.13145 0.98476 0.5193 0.0
C3499 C 0.09223 0.98798 0.51001 0.0
C3500 C 0.07385 0.98057 0.49786 0.0
C3501 C 0.11326 0.97866 0.50617 0.0
C3502 C 0.07675 0.96511 0.48066 0.0
C3503 C 0.09758 0.9557 0.47676 0.0
H3504 H 0.2923 0.90067 0.76088 0.0
H3505 H 0.35307 0.87312 0.73476 0.0
H3506 H 0.33899 0.83521 0.74124 0.0
H3507 H 0.30911 0.81019 0.7553 0.0
H3508 H 0.25066 0.83984 0.78494 0.0
H3509 H 0.26435 0.87658 0.77648 0.0
C3510 C 0.30254 0.88637 0.7567 0.0
C3511 C 0.32365 0.88957 0.74753 0.0
C3512 C 0.29485 0.86499 0.76138 0.0
C3513 C 0.33659 0.87096 0.74169 0.0
C3514 C 0.32867 0.84936 0.74564 0.0
C3515 C 0.29969 0.82469 0.76034 0.0
C3516 C 0.27896 0.82203 0.77082 0.0
C3517 C 0.30788 0.84618 0.75579 0.0
C3518 C 0.2668 0.84113 0.77707 0.0
C3519 C 0.27447 0.86229 0.77205 0.0
H3520 H 0.35991 0.04102 0.97855 0.0
H3521 H 0.37329 0.10066 0.01604 0.0
H3522 H 0.41246 0.09047 0.01886 0.0
H3523 H 0.44087 0.06179 0.01646 0.0
H3524 H 0.42612 -0.00087 0.98531 0.0
H3525 H 0.39018 0.01357 0.97276 0.0
C3526 C 0.37161 0.05187 0.98694 0.0
C3527 C 0.36394 0.07137 0.99731 0.0
C3528 C 0.39396 0.04547 0.98918 0.0
C3529 C 0.37898 0.08541 0.00823 0.0
C3530 C 0.40133 0.07967 0.00972 0.0
C3531 C 0.43019 0.05179 0.0059 0.0
C3532 C 0.43621 0.02975 0.00123 0.0
C3533 C 0.40881 0.0594 0.00093 0.0
C3534 C 0.42209 0.01647 0.98831 0.0
C3535 C 0.40129 0.02454 0.98173 0.0
H3536 H 0.72425 0.60776 0.73589 0.0
H3537 H 0.65757 0.62613 0.7543 0.0
H3538 H 0.66881 0.66514 0.75805 0.0
H3539 H 0.6989 0.69247 0.76225 0.0
H3540 H 0.76592 0.67399 0.74563 0.0
H3541 H 0.7534 0.63694 0.73423 0.0
C3542 C 0.7122 0.62048 0.74027 0.0
C3543 C 0.6902 0.61428 0.74503 0.0
C3544 C 0.71888 0.64286 0.74256 0.0
C3545 C 0.67461 0.63069 0.75071 0.0
C3546 C 0.68104 0.65294 0.75283 0.0
C3547 C 0.7105 0.68068 0.75499 0.0
C3548 C 0.73318 0.68598 0.75435 0.0
C3549 C 0.70326 0.6591 0.74951 0.0
C3550 C 0.74828 0.6704 0.74567 0.0
C3551 C 0.74117 0.64906 0.73961 0.0
H3552 H 0.88048 0.41593 0.99341 0.0
H3553 H 0.84352 0.4745 0.01226 0.0
H3554 H 0.87689 0.49739 0.00824 0.0
H3555 H 0.91552 0.50078 -0.00201 0.0
H3556 H 0.95356 0.44312 0.97837 0.0
H3557 H 0.92074 0.41934 0.98449 0.0
C3558 C 0.88003 0.43366 0.99689 0.0
C3559 C 0.85996 0.44377 0.0032 0.0
C3560 C 0.89921 0.44664 0.99433 0.0
C3561 C 0.85905 0.46663 0.00759 0.0
C3562 C 0.87799 0.47962 0.00518 0.0
C3563 C 0.91662 0.48301 0.99479 0.0
C3564 C 0.93668 0.47363 0.98739 0.0
C3565 C 0.89797 0.46982 -0.00177 0.0
C3566 C 0.93817 0.45058 0.984 0.0
C3567 C 0.91946 0.43711 0.98745 0.0
H3568 H 0.32258 0.12185 0.77421 0.0
H3569 H 0.2735 0.08993 0.73296 0.0
H3570 H 0.25348 0.12518 0.72921 0.0
H3571 H 0.25303 0.16607 0.73353 0.0
H3572 H 0.30201 0.19756 0.77497 0.0
H3573 H 0.31894 0.16143 0.78307 0.0
C3574 C 0.30717 0.12245 0.76492 0.0
C3575 C 0.29967 0.10344 0.75362 0.0
C3576 C 0.29584 0.14272 0.76279 0.0
C3577 C 0.27981 0.10452 0.74142 0.0
C3578 C 0.26833 0.12461 0.73933 0.0
C3579 C 0.26686 0.16474 0.74498 0.0
C3580 C 0.27616 0.18406 0.75398 0.0
C3581 C 0.2766 0.14396 0.74934 0.0
C3582 C 0.2944 0.1826 0.76837 0.0
C3583 C 0.3042 0.16204 0.77277 0.0
H3584 H 0.17984 0.87305 0.27039 0.0
H3585 H 0.23406 0.91436 0.24806 0.0
H3586 H 0.25753 0.88155 0.24352 0.0
H3587 H 0.26026 0.84137 0.23928 0.0
H3588 H 0.20566 0.7991 0.25804 0.0
H3589 H 0.18496 0.83179 0.27156 0.0
C3590 C 0.19697 0.87479 0.26507 0.0
C3591 C 0.20517 0.896 0.2592 0.0
C3592 C 0.21023 0.85567 0.26189 0.0
C3593 C 0.22735 0.89816 0.25231 0.0
C3594 C 0.24077 0.87942 0.24977 0.0
C3595 C 0.24413 0.83927 0.24709 0.0
C3596 C 0.23436 0.81805 0.24759 0.0
C3597 C 0.23207 0.85811 0.25357 0.0
C3598 C 0.21352 0.81533 0.25767 0.0
C3599 C 0.20159 0.83407 0.26503 0.0
H3600 H 0.51395 0.38377 0.4167 0.0
H3601 H 0.47132 0.35291 0.46543 0.0
H3602 H 0.46824 0.38816 0.48539 0.0
H3603 H 0.48231 0.42568 0.49217 0.0
H3604 H 0.52742 0.45584 0.44565 0.0
H3605 H 0.52387 0.42364 0.42091 0.0
C3606 C 0.50386 0.38487 0.43159 0.0
C3607 C 0.49309 0.36568 0.43972 0.0
C3608 C 0.50221 0.40525 0.44308 0.0
C3609 C 0.47977 0.36741 0.45883 0.0
C3610 C 0.47797 0.38757 0.47024 0.0
C3611 C 0.49031 0.42571 0.47599 0.0
C3612 C 0.50483 0.44314 0.47061 0.0
C3613 C 0.48953 0.40643 0.46283 0.0
C3614 C 0.51573 0.4428 0.44994 0.0
C3615 C 0.51418 0.42409 0.43609 0.0
H3616 H 0.4024 0.7625 0.22382 0.0
H3617 H 0.38766 0.73752 0.15836 0.0
H3618 H 0.34808 0.73711 0.16701 0.0
H3619 H 0.31771 0.7461 0.19203 0.0
H3620 H 0.33105 0.76995 0.25807 0.0
H3621 H 0.37129 0.76816 0.25071 0.0
C3622 C 0.39041 0.75684 0.21165 0.0
C3623 C 0.39767 0.75014 0.1905 0.0
C3624 C 0.36762 0.75639 0.21686 0.0
C3625 C 0.38225 0.74266 0.17476 0.0
C3626 C 0.3597 0.74246 0.17966 0.0
C3627 C 0.3295 0.75067 0.20487 0.0
C3628 C 0.32174 0.75836 0.22539 0.0
C3629 C 0.35223 0.74958 0.20049 0.0
C3630 C 0.33689 0.76396 0.24213 0.0
C3631 C 0.35979 0.76309 0.23785 0.0
H3632 H 0.02584 0.62981 0.93027 0.0
H3633 H 0.98331 0.66816 0.97351 0.0
H3634 H 0.97672 0.63542 0.99652 0.0
H3635 H 0.97806 0.59535 0.0007 0.0
H3636 H 0.0166 0.55518 0.95566 0.0
H3637 H 0.03084 0.58915 0.93761 0.0
C3638 C 0.01557 0.63096 0.94503 0.0
C3639 C 0.00481 0.65118 0.95014 0.0
C3640 C 0.01131 0.61179 0.95785 0.0
C3641 C 0.99147 0.65265 0.96919 0.0
C3642 C 0.98777 0.63399 0.98236 0.0
C3643 C 0.99014 0.59408 0.98734 0.0
C3644 C 0.9962 0.57301 0.9793 0.0
C3645 C 0.99692 0.61339 0.97635 0.0
C3646 C 0.01187 0.57134 0.96214 0.0
C3647 C 0.01966 0.59074 0.95163 0.0
H3648 H 0.10883 0.22406 0.70814 0.0
H3649 H 0.12845 0.27783 0.66483 0.0
H3650 H 0.16548 0.27815 0.68151 0.0
H3651 H 0.19102 0.26535 0.7107 0.0
H3652 H 0.17002 0.21417 0.75626 0.0
H3653 H 0.13504 0.20989 0.73593 0.0
C3654 C 0.12134 0.23562 0.70218 0.0
C3655 C 0.11597 0.25099 0.68544 0.0
C3656 C 0.14237 0.23597 0.71212 0.0
C3657 C 0.13218 0.26607 0.67796 0.0
C3658 C 0.15335 0.26616 0.68738 0.0
C3659 C 0.17895 0.25289 0.71572 0.0
C3660 C 0.18292 0.23991 0.73466 0.0
C3661 C 0.15849 0.25146 0.70474 0.0
C3662 C 0.16716 0.22415 0.74154 0.0
C3663 C 0.14717 0.22187 0.73007 0.0
H3664 H 0.52671 0.62766 0.08106 0.0
H3665 H 0.47851 0.65886 0.03802 0.0
H3666 H 0.47834 0.62609 0.01422 0.0
H3667 H 0.49271 0.58961 0.00481 0.0
H3668 H 0.54012 0.55685 0.04731 0.0
H3669 H 0.53989 0.58935 0.07236 0.0
C3670 C 0.51624 0.62721 0.06643 0.0
C3671 C 0.5027 0.64563 0.06121 0.0
C3672 C 0.51621 0.60823 0.05277 0.0
C3673 C 0.48892 0.64481 0.04245 0.0
C3674 C 0.48891 0.62616 0.02878 0.0
C3675 C 0.50316 0.58965 0.01949 0.0
C3676 C 0.51688 0.5713 0.02402 0.0
C3677 C 0.50265 0.60798 0.03366 0.0
C3678 C 0.52969 0.57105 0.04344 0.0
C3679 C 0.52953 0.58957 0.05766 0.0
H3680 H 0.10387 0.76576 0.78269 0.0
H3681 H 0.13007 0.72561 0.8359 0.0
H3682 H 0.16704 0.72655 0.81883 0.0
H3683 H 0.19281 0.74389 0.7917 0.0
H3684 H 0.16587 0.7848 0.73939 0.0
H3685 H 0.12831 0.77818 0.75284 0.0
C3686 C 0.11766 0.75702 0.79038 0.0
C3687 C 0.11448 0.746 0.81063 0.0
C3688 C 0.13873 0.75776 0.78058 0.0
C3689 C 0.13226 0.73433 0.8203 0.0
C3690 C 0.15338 0.7349 0.81059 0.0
C3691 C 0.1786 0.7505 0.78281 0.0
C3692 C 0.18193 0.7648 0.7647 0.0
C3693 C 0.15697 0.74718 0.79108 0.0
C3694 C 0.16353 0.77368 0.75339 0.0
C3695 C 0.14209 0.77011 0.76119 0.0
H3696 H 0.98256 0.35196 0.53536 0.0
H3697 H 0.0324 0.36955 0.58373 0.0
H3698 H 0.03316 0.40759 0.56969 0.0
H3699 H 0.01721 0.43666 0.54617 0.0
H3700 H 0.96557 0.42042 0.49961 0.0
H3701 H 0.96805 0.38091 0.51012 0.0
C3702 C 0.99364 0.36413 0.54271 0.0
C3703 C 0.00741 0.35796 0.56051 0.0
C3704 C 0.99373 0.38612 0.53479 0.0
C3705 C 0.02186 0.3738 0.56979 0.0
C3706 C 0.02223 0.39559 0.56188 0.0
C3707 C 0.007 0.42425 0.53795 0.0
C3708 C 0.99157 0.43097 0.52195 0.0
C3709 C 0.00801 0.40198 0.54465 0.0
C3710 C 0.97786 0.41523 0.51167 0.0
C3711 C 0.97914 0.3928 0.51786 0.0
H3712 H 0.38295 0.26493 0.3306 0.0
H3713 H 0.41565 0.24848 0.26921 0.0
H3714 H 0.37951 0.24588 0.25034 0.0
H3715 H 0.33816 0.24359 0.253 0.0
H3716 H 0.30649 0.26013 0.31507 0.0
H3717 H 0.34245 0.26748 0.33203 0.0
C3718 C 0.38206 0.2611 0.31301 0.0
C3719 C 0.40162 0.25664 0.30125 0.0
C3720 C 0.36138 0.25952 0.30249 0.0
C3721 C 0.40058 0.25173 0.27851 0.0
C3722 C 0.37997 0.25025 0.26778 0.0
C3723 C 0.33925 0.24954 0.26996 0.0
C3724 C 0.31985 0.25149 0.2828 0.0
C3725 C 0.36017 0.25349 0.27977 0.0
C3726 C 0.32131 0.25881 0.30489 0.0
C3727 C 0.34184 0.26281 0.31466 0.0
H3728 H 0.42422 0.51039 0.37155 0.0
H3729 H 0.48244 0.48109 0.34208 0.0
H3730 H 0.50153 0.48198 0.37826 0.0
H3731 H 0.50214 0.49434 0.41819 0.0
H3732 H 0.44206 0.52199 0.44616 0.0
H3733 H 0.42318 0.51829 0.4109 0.0
C3734 C 0.44109 0.50418 0.37311 0.0
C3735 C 0.45216 0.4962 0.35433 0.0
C3736 C 0.45162 0.50446 0.39376 0.0
C3737 C 0.47379 0.48762 0.35646 0.0
C3738 C 0.48464 0.48812 0.37709 0.0
C3739 C 0.48484 0.49909 0.41652 0.0
C3740 C 0.47363 0.50887 0.43457 0.0
C3741 C 0.47383 0.4969 0.39589 0.0
C3742 C 0.45113 0.5148 0.43234 0.0
C3743 C 0.44028 0.51274 0.41219 0.0
H3744 H 0.26996 0.67637 0.12243 0.0
H3745 H 0.20867 0.70243 0.09602 0.0
H3746 H 0.2008 0.72093 0.13133 0.0
H3747 H 0.21328 0.73263 0.16839 0.0
H3748 H 0.27419 0.70609 0.19505 0.0
H3749 H 0.28022 0.68454 0.16114 0.0
C3750 C 0.25491 0.68612 0.12449 0.0
C3751 C 0.24008 0.68841 0.10668 0.0
C3752 C 0.25038 0.69643 0.14489 0.0
C3753 C 0.22037 0.70062 0.10956 0.0
C3754 C 0.21586 0.71115 0.1297 0.0
C3755 C 0.22746 0.72154 0.16694 0.0
C3756 C 0.24315 0.72068 0.18409 0.0
C3757 C 0.23093 0.70948 0.14733 0.0
C3758 C 0.26164 0.70653 0.18217 0.0
C3759 C 0.26528 0.69452 0.16267 0.0
H3760 H 0.03068 0.50816 0.85514 0.0
H3761 H 0.09902 0.49001 0.86673 0.0
H3762 H 0.09227 0.48837 0.90658 0.0
H3763 H 0.0672 0.49083 0.93753 0.0
H3764 H -0.00177 0.50787 0.92756 0.0
H3765 H 0.00489 0.51123 0.88747 0.0
C3766 C 0.04393 0.50385 0.86655 0.0
C3767 C 0.06519 0.49888 0.85833 0.0
C3768 C 0.03983 0.50266 0.88949 0.0
C3769 C 0.08246 0.4935 0.87294 0.0
C3770 C 0.07864 0.49263 0.89562 0.0
C3771 C 0.0535 0.49524 0.9267 0.0
C3772 C 0.03221 0.49887 0.93549 0.0
C3773 C 0.05739 0.49693 0.90399 0.0
C3774 C 0.01478 0.50486 0.92115 0.0
C3775 C 0.01858 0.50678 0.89827 0.0
H3776 H 0.24907 0.33547 0.63562 0.0
H3777 H 0.22593 0.27954 0.59723 0.0
H3778 H 0.22593 0.25612 0.63043 0.0
H3779 H 0.23868 0.25018 0.66857 0.0
H3780 H 0.26348 0.3053 0.70676 0.0
H3781 H 0.25561 0.33081 0.67596 0.0
C3782 C 0.24374 0.31824 0.63471 0.0
C3783 C 0.23785 0.30904 0.61409 0.0
C3784 C 0.24377 0.3049 0.6539 0.0
C3785 C 0.23063 0.28685 0.61298 0.0
C3786 C 0.23061 0.27349 0.63194 0.0
C3787 C 0.24126 0.26797 0.67046 0.0
C3788 C 0.25134 0.27602 0.68982 0.0
C3789 C 0.23784 0.28215 0.65229 0.0
C3790 C 0.25521 0.29893 0.69211 0.0
C3791 C 0.2512 0.31339 0.67431 0.0
H3792 H 0.43523 0.52406 0.12719 0.0
H3793 H 0.47163 0.47422 0.16388 0.0
H3794 H 0.49567 0.4677 0.13197 0.0
H3795 H 0.50327 0.47263 0.09282 0.0
H3796 H 0.46552 0.51962 0.05407 0.0
H3797 H 0.44572 0.53169 0.0878 0.0
C3798 C 0.4487 0.51209 0.12821 0.0
C3799 C 0.45152 0.49938 0.14769 0.0
C3800 C 0.46224 0.50807 0.10952 0.0
C3801 C 0.46896 0.48389 0.14891 0.0
C3802 C 0.48275 0.48024 0.13074 0.0
C3803 C 0.49101 0.48587 0.09181 0.0
C3804 C 0.48561 0.49506 0.07105 0.0
C3805 C 0.4791 0.49174 0.11083 0.0
C3806 C 0.46998 0.51239 0.06993 0.0
C3807 C 0.45847 0.51901 0.08916 0.0
H3808 H 0.28395 0.71305 0.89693 0.0
H3809 H 0.21853 0.68594 0.88544 0.0
H3810 H 0.21745 0.70353 0.84904 0.0
H3811 H 0.2371 0.72215 0.81847 0.0
H3812 H 0.30438 0.74447 0.82809 0.0
H3813 H 0.3028 0.73333 0.86717 0.0
C3814 C 0.26946 0.71095 0.88648 0.0
C3815 C 0.25147 0.69801 0.89391 0.0
C3816 C 0.26931 0.72029 0.86517 0.0
C3817 C 0.23257 0.69598 0.88032 0.0
C3818 C 0.23198 0.70589 0.85938 0.0
C3819 C 0.2511 0.72516 0.8294 0.0
C3820 C 0.27072 0.73428 0.82077 0.0
C3821 C 0.25048 0.71756 0.8514 0.0
C3822 C 0.28907 0.73763 0.83468 0.0
C3823 C 0.28822 0.73111 0.85688 0.0
H3824 H 0.0786 0.49073 0.62675 0.0
H3825 H 0.04395 0.54635 0.656 0.0
H3826 H 0.0223 0.55127 0.62195 0.0
H3827 H 0.01082 0.53713 0.5853 0.0
H3828 H 0.04647 0.48227 0.5558 0.0
H3829 H 0.07039 0.47968 0.58842 0.0
C3830 C 0.06633 0.50395 0.62553 0.0
C3831 C 0.06243 0.51791 0.64376 0.0
C3832 C 0.05423 0.50677 0.60594 0.0
C3833 C 0.04697 0.53534 0.64207 0.0
C3834 C 0.03463 0.53812 0.62268 0.0
C3835 C 0.02415 0.52497 0.58595 0.0
C3836 C 0.02699 0.50989 0.56842 0.0
C3837 C 0.03778 0.5236 0.60472 0.0
C3838 C 0.04428 0.49421 0.56912 0.0
C3839 C 0.05776 0.49256 0.58783 0.0
H3840 H 0.22195 0.29592 0.40151 0.0
H3841 H 0.27323 0.3418 0.38134 0.0
H3842 H 0.27359 0.32549 0.34412 0.0
H3843 H 0.26166 0.29589 0.31838 0.0
H3844 H 0.21261 0.24825 0.33966 0.0
H3845 H 0.20851 0.26778 0.37511 0.0
C3846 C 0.23298 0.30252 0.38885 0.0
C3847 C 0.24765 0.31992 0.39419 0.0
C3848 C 0.23334 0.29281 0.36763 0.0
C3849 C 0.26202 0.32818 0.37771 0.0
C3850 C 0.26214 0.31895 0.3564 0.0
C3851 C 0.24958 0.29032 0.33054 0.0
C3852 C 0.23709 0.27102 0.32639 0.0
C3853 C 0.24814 0.30101 0.35127 0.0
C3854 C 0.22206 0.26334 0.34249 0.0
C3855 C 0.2199 0.27436 0.3628 0.0
H3856 H 0.35105 0.4693 0.51657 0.0
H3857 H 0.38222 0.40486 0.51273 0.0
H3858 H 0.41912 0.42241 0.51301 0.0
H3859 H 0.44236 0.45669 0.51188 0.0
H3860 H 0.40999 0.52076 0.51711 0.0
H3861 H 0.37396 0.50282 0.51914 0.0
C3862 C 0.36598 0.45916 0.51594 0.0
C3863 C 0.36409 0.43596 0.51442 0.0
C3864 C 0.38696 0.46932 0.51644 0.0
C3865 C 0.38342 0.42284 0.51385 0.0
C3866 C 0.40446 0.43286 0.51401 0.0
C3867 C 0.42746 0.46665 0.51396 0.0
C3868 C 0.42899 0.49007 0.51408 0.0
C3869 C 0.40647 0.45618 0.51504 0.0
C3870 C 0.40941 0.50272 0.51669 0.0
C3871 C 0.38869 0.4925 0.51781 0.0
H3872 H 0.86725 0.05997 0.52553 0.0
H3873 H 0.84486 0.03662 0.46153 0.0
H3874 H 0.87981 0.01679 0.45624 0.0
H3875 H 0.91856 0.01091 0.46742 0.0
H3876 H 0.94084 0.03396 0.5313 0.0
H3877 H 0.90365 0.04824 0.53956 0.0
C3878 C 0.86967 0.05003 0.5107 0.0
C3879 C 0.85364 0.05027 0.4937 0.0
C3880 C 0.88975 0.03852 0.50783 0.0
C3881 C 0.85721 0.03734 0.47456 0.0
C3882 C 0.87712 0.02584 0.47158 0.0
C3883 C 0.91495 0.01837 0.48344 0.0
C3884 C 0.93214 0.02135 0.49882 0.0
C3885 C 0.89378 0.02702 0.48774 0.0
C3886 C 0.92761 0.03112 0.51947 0.0
C3887 C 0.90647 0.03961 0.52401 0.0
H3888 H 0.71812 0.10408 0.23875 0.0
H3889 H 0.65511 0.13648 0.24869 0.0
H3890 H 0.67343 0.17312 0.24885 0.0
H3891 H 0.70813 0.19537 0.24897 0.0
H3892 H 0.77088 0.16172 0.2393 0.0
H3893 H 0.75197 0.12619 0.2359 0.0
C3894 C 0.70849 0.11927 0.2407 0.0
C3895 C 0.68555 0.11796 0.24379 0.0
C3896 C 0.71909 0.13996 0.24084 0.0
C3897 C 0.67293 0.13744 0.2463 0.0
C3898 C 0.68338 0.15826 0.24642 0.0
C3899 C 0.71754 0.1803 0.24571 0.0
C3900 C 0.74085 0.18113 0.24464 0.0
C3901 C 0.70655 0.1597 0.24405 0.0
C3902 C 0.75292 0.16147 0.2405 0.0
C3903 C 0.74215 0.14111 0.23855 0.0
H3904 H 0.62074 0.91645 0.0054 0.0
H3905 H 0.65365 0.97611 0.02773 0.0
H3906 H 0.61813 0.99588 0.02874 0.0
H3907 H 0.57941 0.99781 0.01653 0.0
H3908 H 0.54706 0.93912 0.99156 0.0
H3909 H 0.58016 0.91685 -0.00045 0.0
C3910 C 0.61998 0.93369 0.01074 0.0
C3911 C 0.63966 0.94503 0.01608 0.0
C3912 C 0.59953 0.94492 0.0112 0.0
C3913 C 0.63863 0.9672 0.0234 0.0
C3914 C 0.61836 0.97846 0.02402 0.0
C3915 C 0.57926 0.97989 0.01409 0.0
C3916 C 0.56101 0.96999 0.00358 0.0
C3917 C 0.59885 0.96769 0.01724 0.0
C3918 C 0.56091 0.94692 -1e-05 0.0
C3919 C 0.58004 0.93434 0.00402 0.0
H3920 H 0.31419 0.37954 0.2766 0.0
H3921 H 0.32562 0.38732 0.20601 0.0
H3922 H 0.30966 0.35115 0.19923 0.0
H3923 H 0.28768 0.32007 0.21186 0.0
H3924 H 0.26948 0.31402 0.2807 0.0
H3925 H 0.29323 0.34621 0.28979 0.0
C3926 C 0.31315 0.3734 0.25972 0.0
C3927 C 0.32142 0.38644 0.24193 0.0
C3928 C 0.30278 0.35271 0.25563 0.0
C3929 C 0.32012 0.37777 0.22024 0.0
C3930 C 0.31075 0.35702 0.21622 0.0
C3931 C 0.2894 0.32544 0.22899 0.0
C3932 C 0.2769 0.31486 0.24559 0.0
C3933 C 0.30155 0.34469 0.23364 0.0
C3934 C 0.27919 0.32181 0.26771 0.0
C3935 C 0.29243 0.34046 0.27276 0.0
H3936 H 0.12817 0.58279 0.98944 0.0
H3937 H 0.16111 0.54189 0.03826 0.0
H3938 H 0.12582 0.5245 0.04816 0.0
H3939 H 0.08634 0.51944 0.04154 0.0
H3940 H 0.05304 0.55857 0.99153 0.0
H3941 H 0.08746 0.57903 0.98427 0.0
C3942 C 0.1275 0.56999 0.00215 0.0
C3943 C 0.14707 0.56345 0.01306 0.0
C3944 C 0.10708 0.56022 0.00791 0.0
C3945 C 0.14615 0.54711 0.02971 0.0
C3946 C 0.12602 0.53728 0.03544 0.0
C3947 C 0.08646 0.53283 0.02942 0.0
C3948 C 0.06723 0.53741 0.01703 0.0
C3949 C 0.10644 0.54366 0.02461 0.0
C3950 C 0.06756 0.55487 0.00147 0.0
C3951 C 0.08736 0.56628 0.99701 0.0
H3952 H 0.68432 0.89111 0.27797 0.0
H3953 H 0.72495 0.90578 0.22085 0.0
H3954 H 0.73852 0.86712 0.22042 0.0
H3955 H 0.73688 0.82835 0.23555 0.0
H3956 H 0.69446 0.81553 0.29211 0.0
H3957 H 0.684 0.85432 0.29371 0.0
C3958 C 0.69657 0.88608 0.26572 0.0
C3959 C 0.70379 0.9013 0.24964 0.0
C3960 C 0.70387 0.86402 0.26537 0.0
C3961 C 0.71914 0.89428 0.23344 0.0
C3962 C 0.72688 0.87221 0.2332 0.0
C3963 C 0.72543 0.83414 0.24819 0.0
C3964 C 0.71613 0.8189 0.26334 0.0
C3965 C 0.71905 0.85677 0.24892 0.0
C3966 C 0.7015 0.82672 0.27986 0.0
C3967 C 0.69553 0.84898 0.28093 0.0
H3968 H 0.83134 0.13027 0.73481 0.0
H3969 H 0.78592 0.08897 0.77199 0.0
H3970 H 0.76205 0.12096 0.77894 0.0
H3971 H 0.75555 0.16031 0.77716 0.0
H3972 H 0.80115 0.20398 0.74325 0.0
H3973 H 0.82325 0.17132 0.73143 0.0
C3974 C 0.81605 0.12841 0.74415 0.0
C3975 C 0.81035 0.10742 0.75307 0.0
C3976 C 0.80256 0.14716 0.74856 0.0
C3977 C 0.79061 0.10502 0.76519 0.0
C3978 C 0.77699 0.12326 0.76912 0.0
C3979 C 0.77034 0.16287 0.76715 0.0
C3980 C 0.77701 0.18459 0.76144 0.0
C3981 C 0.78306 0.14438 0.76133 0.0
C3982 C 0.79578 0.18742 0.7479 0.0
C3983 C 0.80844 0.16877 0.74136 0.0
loop_
_geom_bond_atom_site_label_1
_geom_bond_atom_site_label_2
_geom_bond_distance
_geom_bond_site_symmetry_2
_ccdc_geom_bond_type
Li0 N17 1.990 . S
Li0 O60 1.956 . S
Li0 O61 1.970 . S
Li0 O62 1.961 1_455 S
Li1 N25 1.990 . S
Li1 O60 1.970 . S
Li1 O61 1.956 . S
Li1 O63 1.961 . S
Li2 N47 1.990 . S
Li2 O60 1.961 . S
Li2 O62 1.956 1_455 S
Li2 O63 1.970 . S
Li3 N53 1.990 . S
Li3 O61 1.961 1_655 S
Li3 O62 1.970 . S
Li3 O63 1.956 1_655 S
C4 C6 1.348 . S
C4 C7 1.356 . S
C4 O60 1.325 . S
N5 C8 1.314 . S
N5 C9 1.279 . S
C6 C4 1.348 . S
C6 C8 1.353 . S
C6 H64 0.929 . S
C7 C4 1.356 . S
C7 C9 1.358 . S
C7 H65 0.930 . S
C8 N5 1.314 . S
C8 C6 1.353 . S
C8 H66 0.930 . S
C9 N5 1.279 . S
C9 C7 1.358 . S
C9 H67 0.930 . S
C10 C13 1.348 . S
C10 C14 1.352 1_455 S
C10 O61 1.325 . S
C11 N12 1.281 . S
C11 C14 1.358 1_455 S
C11 H68 0.929 1_455 S
N12 C11 1.281 . S
N12 C15 1.314 . S
C13 C10 1.348 . S
C13 C15 1.353 . S
C13 H69 0.929 . S
C14 C10 1.352 1_655 S
C14 C11 1.358 1_655 S
C14 H70 0.934 . S
C15 N12 1.314 . S
C15 C13 1.353 . S
C15 H71 0.930 . S
C16 N17 1.314 1_655 S
C16 C21 1.353 . S
C16 H22 0.930 . S
N17 Li0 1.990 . S
N17 C16 1.314 1_455 S
N17 C19 1.279 . S
C18 C19 1.358 . S
C18 C20 1.356 . S
C18 H72 0.930 . S
C19 N17 1.279 . S
C19 C18 1.358 . S
C19 H23 0.930 . S
C20 C18 1.356 . S
C20 C21 1.348 1_455 S
C21 C16 1.353 . S
C21 C20 1.348 1_655 S
C21 H73 0.929 . S
H22 C16 0.930 . S
H23 C19 0.930 . S
C24 N25 1.314 . S
C24 C26 1.353 . S
C24 H30 0.930 . S
N25 Li1 1.990 . S
N25 C24 1.314 . S
N25 C28 1.279 . S
C26 C24 1.353 . S
C26 C29 1.348 . S
C26 H74 0.929 . S
C27 C28 1.358 . S
C27 C29 1.356 . S
C27 H75 0.930 . S
C28 N25 1.279 . S
C28 C27 1.358 . S
C28 H31 0.930 . S
C29 C26 1.348 . S
C29 C27 1.356 . S
H30 C24 0.930 . S
H31 C28 0.930 . S
C32 C34 1.348 . S
C32 C35 1.356 . S
C32 O62 1.325 . S
N33 C36 1.314 . S
N33 C37 1.279 . S
C34 C32 1.348 . S
C34 C36 1.353 . S
C34 H76 0.929 . S
C35 C32 1.356 . S
C35 C37 1.358 . S
C35 H77 0.930 . S
C36 N33 1.314 . S
C36 C34 1.353 . S
C36 H78 0.930 . S
C37 N33 1.279 . S
C37 C35 1.358 . S
C37 H79 0.930 . S
C38 C39 1.348 1_455 S
C38 C40 1.356 . S
C38 O63 1.325 . S
C39 C38 1.348 1_655 S
C39 C41 1.353 . S
C39 H80 0.929 . S
C40 C38 1.356 . S
C40 C42 1.358 . S
C40 H81 0.930 . S
C41 C39 1.353 . S
C41 N43 1.314 1_655 S
C41 H82 0.930 . S
C42 C40 1.358 . S
C42 N43 1.279 . S
C42 H83 0.930 . S
N43 C41 1.314 1_455 S
N43 C42 1.279 . S
C44 C46 1.353 . S
C44 N47 1.314 . S
C44 H50 0.930 . S
C45 N47 1.279 1_655 S
C45 C48 1.358 . S
C45 H51 0.930 . S
C46 C44 1.353 . S
C46 C49 1.348 . S
C46 H84 0.929 . S
N47 Li2 1.990 . S
N47 C44 1.314 . S
N47 C45 1.279 1_455 S
C48 C45 1.358 . S
C48 C49 1.356 1_655 S
C48 H85 0.930 . S
C49 C46 1.348 . S
C49 C48 1.356 1_455 S
H50 C44 0.930 . S
H51 C45 0.930 . S
C52 N53 1.314 . S
C52 C54 1.353 . S
C52 H58 0.930 . S
N53 Li3 1.990 . S
N53 C52 1.314 . S
N53 C56 1.279 . S
C54 C52 1.353 . S
C54 C57 1.348 . S
C54 H86 0.929 . S
C55 C56 1.358 . S
C55 C57 1.356 . S
C55 H87 0.930 . S
C56 N53 1.279 . S
C56 C55 1.358 . S
C56 H59 0.930 . S
C57 C54 1.348 . S
C57 C55 1.356 . S
H58 C52 0.930 . S
H59 C56 0.930 . S
O60 Li0 1.956 . S
O60 Li1 1.970 . S
O60 Li2 1.961 . S
O60 C4 1.325 . S
O61 Li0 1.970 . S
O61 Li1 1.956 . S
O61 Li3 1.961 1_455 S
O61 C10 1.325 . S
O62 Li0 1.961 1_655 S
O62 Li2 1.956 1_655 S
O62 Li3 1.970 . S
O62 C32 1.325 . S
O63 Li1 1.961 . S
O63 Li2 1.970 . S
O63 Li3 1.956 1_455 S
O63 C38 1.325 . S
H64 C6 0.929 . S
H65 C7 0.930 . S
H66 C8 0.930 . S
H67 C9 0.930 . S
H68 C11 0.929 1_655 S
H69 C13 0.929 . S
H70 C14 0.934 . S
H71 C15 0.930 . S
H72 C18 0.930 . S
H73 C21 0.929 . S
H74 C26 0.929 . S
H75 C27 0.930 . S
H76 C34 0.929 . S
H77 C35 0.930 . S
H78 C36 0.930 . S
H79 C37 0.930 . S
H80 C39 0.929 . S
H81 C40 0.930 . S
H82 C41 0.930 . S
H83 C42 0.930 . S
H84 C46 0.929 . S
H85 C48 0.930 . S
H86 C54 0.929 . S
H87 C55 0.930 . S
Li88 N105 1.990 . S
Li88 O148 1.956 1_655 S
Li88 O149 1.970 . S
Li88 O150 1.961 1_655 S
Li89 N113 1.990 . S
Li89 O148 1.970 . S
Li89 O149 1.956 1_455 S
Li89 O151 1.961 . S
Li90 N135 1.990 . S
Li90 O148 1.961 . S
Li90 O150 1.956 . S
Li90 O151 1.970 . S
Li91 N141 1.990 . S
Li91 O149 1.961 1_455 S
Li91 O150 1.970 . S
Li91 O151 1.956 . S
C92 C94 1.350 . S
C92 C95 1.356 . S
C92 O148 1.325 . S
N93 C96 1.317 . S
N93 C97 1.279 . S
C94 C92 1.350 . S
C94 C96 1.353 . S
C94 H152 0.927 1_455 S
C95 C92 1.356 . S
C95 C97 1.358 . S
C95 H153 0.930 . S
C96 N93 1.317 . S
C96 C94 1.353 . S
C96 H154 0.926 1_455 S
C97 N93 1.279 . S
C97 C95 1.358 . S
C97 H155 0.930 . S
C98 C101 1.348 . S
C98 C102 1.356 . S
C98 O149 1.325 . S
C99 N100 1.279 . S
C99 C102 1.358 . S
C99 H156 0.930 . S
N100 C99 1.279 . S
N100 C103 1.314 . S
C101 C98 1.348 . S
C101 C103 1.353 . S
C101 H157 0.929 . S
C102 C98 1.356 . S
C102 C99 1.358 . S
C102 H158 0.930 . S
C103 N100 1.314 . S
C103 C101 1.353 . S
C103 H159 0.930 . S
C104 N105 1.314 . S
C104 C109 1.353 . S
C104 H110 0.930 . S
N105 Li88 1.990 . S
N105 C104 1.314 . S
N105 C107 1.279 . S
C106 C107 1.358 . S
C106 C108 1.356 . S
C106 H160 0.930 . S
C107 N105 1.279 . S
C107 C106 1.358 . S
C107 H111 0.930 . S
C108 C106 1.356 . S
C108 C109 1.348 . S
C109 C104 1.353 . S
C109 C108 1.348 . S
C109 H161 0.929 . S
H110 C104 0.930 . S
H111 C107 0.930 . S
C112 N113 1.314 . S
C112 C114 1.353 . S
C112 H118 0.930 . S
N113 Li89 1.990 . S
N113 C112 1.314 . S
N113 C116 1.279 1_455 S
C114 C112 1.353 . S
C114 C117 1.348 . S
C114 H162 0.929 . S
C115 C116 1.358 . S
C115 C117 1.356 1_655 S
C115 H163 0.930 . S
C116 N113 1.279 1_655 S
C116 C115 1.358 . S
C116 H119 0.930 . S
C117 C114 1.348 . S
C117 C115 1.356 1_455 S
H118 C112 0.930 . S
H119 C116 0.930 . S
C120 C122 1.348 . S
C120 C123 1.356 . S
C120 O150 1.325 . S
N121 C124 1.314 . S
N121 C125 1.279 . S
C122 C120 1.348 . S
C122 C124 1.353 . S
C122 H164 0.929 . S
C123 C120 1.356 . S
C123 C125 1.358 . S
C123 H165 0.930 1_455 S
C124 N121 1.314 . S
C124 C122 1.353 . S
C124 H166 0.930 . S
C125 N121 1.279 . S
C125 C123 1.358 . S
C125 H167 0.930 1_455 S
C126 C127 1.348 . S
C126 C128 1.356 . S
C126 O151 1.325 . S
C127 C126 1.348 . S
C127 C129 1.353 . S
C127 H168 0.929 . S
C128 C126 1.356 . S
C128 C130 1.358 . S
C128 H169 0.930 . S
C129 C127 1.353 . S
C129 N131 1.314 . S
C129 H170 0.930 . S
C130 C128 1.358 . S
C130 N131 1.279 . S
C130 H171 0.930 . S
N131 C129 1.314 . S
N131 C130 1.279 . S
C132 C134 1.353 . S
C132 N135 1.314 . S
C132 H138 0.930 . S
C133 N135 1.279 . S
C133 C136 1.358 . S
C133 H139 0.930 . S
C134 C132 1.353 . S
C134 C137 1.348 . S
C134 H172 0.929 . S
N135 Li90 1.990 . S
N135 C132 1.314 . S
N135 C133 1.279 . S
C136 C133 1.358 . S
C136 C137 1.356 . S
C136 H173 0.930 . S
C137 C134 1.348 . S
C137 C136 1.356 . S
H138 C132 0.930 . S
H139 C133 0.930 . S
C140 N141 1.314 1_655 S
C140 C142 1.353 . S
C140 H146 0.930 . S
N141 Li91 1.990 . S
N141 C140 1.314 1_455 S
N141 C144 1.279 . S
C142 C140 1.353 . S
C142 C145 1.348 1_655 S
C142 H174 0.929 . S
C143 C144 1.358 . S
C143 C145 1.356 . S
C143 H175 0.930 . S
C144 N141 1.279 . S
C144 C143 1.358 . S
C144 H147 0.930 . S
C145 C142 1.348 1_455 S
C145 C143 1.356 . S
H146 C140 0.930 . S
H147 C144 0.930 . S
O148 Li88 1.956 1_455 S
O148 Li89 1.970 . S
O148 Li90 1.961 . S
O148 C92 1.325 . S
O149 Li88 1.970 . S
O149 Li89 1.956 1_655 S
O149 Li91 1.961 1_655 S
O149 C98 1.325 . S
O150 Li88 1.961 1_455 S
O150 Li90 1.956 . S
O150 Li91 1.970 . S
O150 C120 1.325 . S
O151 Li89 1.961 . S
O151 Li90 1.970 . S
O151 Li91 1.956 . S
O151 C126 1.325 . S
H152 C94 0.927 1_655 S
H153 C95 0.930 . S
H154 C96 0.926 1_655 S
H155 C97 0.930 . S
H156 C99 0.930 . S
H157 C101 0.929 . S
H158 C102 0.930 . S
H159 C103 0.930 . S
H160 C106 0.930 . S
H161 C109 0.929 . S
H162 C114 0.929 . S
H163 C115 0.930 . S
H164 C122 0.929 . S
H165 C123 0.930 1_655 S
H166 C124 0.930 . S
H167 C125 0.930 1_655 S
H168 C127 0.929 . S
H169 C128 0.930 . S
H170 C129 0.930 . S
H171 C130 0.930 . S
H172 C134 0.929 . S
H173 C136 0.930 . S
H174 C142 0.929 . S
H175 C143 0.930 . S
Li176 N193 1.990 . S
Li176 O236 1.956 . S
Li176 O237 1.970 . S
Li176 O238 1.961 . S
Li177 N201 1.990 . S
Li177 O236 1.970 . S
Li177 O237 1.956 . S
Li177 O239 1.961 . S
Li178 N223 1.990 . S
Li178 O236 1.961 . S
Li178 O238 1.956 . S
Li178 O239 1.970 . S
Li179 N229 1.990 . S
Li179 O237 1.961 . S
Li179 O238 1.970 . S
Li179 O239 1.956 . S
C180 C182 1.348 . S
C180 C183 1.356 . S
C180 O236 1.325 . S
N181 C184 1.314 . S
N181 C185 1.279 . S
C182 C180 1.348 . S
C182 C184 1.353 . S
C182 H240 0.929 . S
C183 C180 1.356 . S
C183 C185 1.358 . S
C183 H241 0.930 . S
C184 N181 1.314 . S
C184 C182 1.353 . S
C184 H242 0.930 . S
C185 N181 1.279 . S
C185 C183 1.358 . S
C185 H243 0.930 . S
C186 C189 1.348 . S
C186 C190 1.356 . S
C186 O237 1.325 . S
C187 N188 1.279 . S
C187 C190 1.358 . S
C187 H244 0.930 . S
N188 C187 1.279 . S
N188 C191 1.314 . S
C189 C186 1.348 . S
C189 C191 1.353 . S
C189 H245 0.929 . S
C190 C186 1.356 . S
C190 C187 1.358 . S
C190 H246 0.930 . S
C191 N188 1.314 . S
C191 C189 1.353 . S
C191 H247 0.930 . S
C192 N193 1.314 . S
C192 C197 1.353 . S
C192 H198 0.930 . S
N193 Li176 1.990 . S
N193 C192 1.314 . S
N193 C195 1.279 . S
C194 C195 1.358 . S
C194 C196 1.356 . S
C194 H248 0.930 . S
C195 N193 1.279 . S
C195 C194 1.358 . S
C195 H199 0.930 . S
C196 C194 1.356 . S
C196 C197 1.348 . S
C197 C192 1.353 . S
C197 C196 1.348 . S
C197 H249 0.929 . S
H198 C192 0.930 . S
H199 C195 0.930 . S
C200 N201 1.314 . S
C200 C202 1.353 . S
C200 H206 0.930 . S
N201 Li177 1.990 . S
N201 C200 1.314 . S
N201 C204 1.279 . S
C202 C200 1.353 . S
C202 C205 1.348 . S
C202 H250 0.929 . S
C203 C204 1.358 . S
C203 C205 1.356 . S
C203 H251 0.930 . S
C204 N201 1.279 . S
C204 C203 1.358 . S
C204 H207 0.930 . S
C205 C202 1.348 . S
C205 C203 1.356 . S
H206 C200 0.930 . S
H207 C204 0.930 . S
C208 C210 1.348 . S
C208 C211 1.356 . S
C208 O238 1.325 . S
N209 C212 1.314 . S
N209 C213 1.279 . S
C210 C208 1.348 . S
C210 C212 1.353 . S
C210 H252 0.929 . S
C211 C208 1.356 . S
C211 C213 1.358 . S
C211 H253 0.930 . S
C212 N209 1.314 . S
C212 C210 1.353 . S
C212 H254 0.930 . S
C213 N209 1.279 . S
C213 C211 1.358 . S
C213 H255 0.930 . S
C214 C215 1.348 . S
C214 C216 1.356 . S
C214 O239 1.325 . S
C215 C214 1.348 . S
C215 C217 1.353 . S
C215 H256 0.929 . S
C216 C214 1.356 . S
C216 C218 1.358 . S
C216 H257 0.930 . S
C217 C215 1.353 . S
C217 N219 1.314 . S
C217 H258 0.930 . S
C218 C216 1.358 . S
C218 N219 1.279 . S
C218 H259 0.930 . S
N219 C217 1.314 . S
N219 C218 1.279 . S
C220 C222 1.353 . S
C220 N223 1.314 . S
C220 H226 0.930 . S
C221 N223 1.279 . S
C221 C224 1.358 . S
C221 H227 0.930 . S
C222 C220 1.353 . S
C222 C225 1.348 . S
C222 H260 0.929 . S
N223 Li178 1.990 . S
N223 C220 1.314 . S
N223 C221 1.279 . S
C224 C221 1.358 . S
C224 C225 1.356 . S
C224 H261 0.930 . S
C225 C222 1.348 . S
C225 C224 1.356 . S
H226 C220 0.930 . S
H227 C221 0.930 . S
C228 N229 1.314 . S
C228 C230 1.353 . S
C228 H234 0.930 . S
N229 Li179 1.990 . S
N229 C228 1.314 . S
N229 C232 1.279 . S
C230 C228 1.353 . S
C230 C233 1.348 . S
C230 H262 0.929 . S
C231 C232 1.358 . S
C231 C233 1.356 . S
C231 H263 0.930 . S
C232 N229 1.279 . S
C232 C231 1.358 . S
C232 H235 0.930 . S
C233 C230 1.348 . S
C233 C231 1.356 . S
H234 C228 0.930 . S
H235 C232 0.930 . S
O236 Li176 1.956 . S
O236 Li177 1.970 . S
O236 Li178 1.961 . S
O236 C180 1.325 . S
O237 Li176 1.970 . S
O237 Li177 1.956 . S
O237 Li179 1.961 . S
O237 C186 1.325 . S
O238 Li176 1.961 . S
O238 Li178 1.956 . S
O238 Li179 1.970 . S
O238 C208 1.325 . S
O239 Li177 1.961 . S
O239 Li178 1.970 . S
O239 Li179 1.956 . S
O239 C214 1.325 . S
H240 C182 0.929 . S
H241 C183 0.930 . S
H242 C184 0.930 . S
H243 C185 0.930 . S
H244 C187 0.930 . S
H245 C189 0.929 . S
H246 C190 0.930 . S
H247 C191 0.930 . S
H248 C194 0.930 . S
H249 C197 0.929 . S
H250 C202 0.929 . S
H251 C203 0.930 . S
H252 C210 0.929 . S
H253 C211 0.930 . S
H254 C212 0.930 . S
H255 C213 0.930 . S
H256 C215 0.929 . S
H257 C216 0.930 . S
H258 C217 0.930 . S
H259 C218 0.930 . S
H260 C222 0.929 . S
H261 C224 0.930 . S
H262 C230 0.929 . S
H263 C231 0.930 . S
Li264 N281 1.990 . S
Li264 O324 1.956 . S
Li264 O325 1.970 . S
Li264 O326 1.961 . S
Li265 N289 1.990 . S
Li265 O324 1.970 . S
Li265 O325 1.956 . S
Li265 O327 1.961 . S
Li266 N311 1.990 . S
Li266 O324 1.961 . S
Li266 O326 1.956 . S
Li266 O327 1.970 . S
Li267 N317 1.990 . S
Li267 O325 1.961 . S
Li267 O326 1.970 . S
Li267 O327 1.956 . S
C268 C270 1.348 . S
C268 C271 1.356 . S
C268 O324 1.325 . S
N269 C272 1.314 . S
N269 C273 1.279 . S
C270 C268 1.348 . S
C270 C272 1.353 . S
C270 H328 0.929 . S
C271 C268 1.356 . S
C271 C273 1.358 . S
C271 H329 0.930 . S
C272 N269 1.314 . S
C272 C270 1.353 . S
C272 H330 0.930 . S
C273 N269 1.279 . S
C273 C271 1.358 . S
C273 H331 0.930 . S
C274 C277 1.348 . S
C274 C278 1.356 . S
C274 O325 1.325 . S
C275 N276 1.279 . S
C275 C278 1.358 . S
C275 H332 0.930 . S
N276 C275 1.279 . S
N276 C279 1.314 . S
C277 C274 1.348 . S
C277 C279 1.353 . S
C277 H333 0.929 . S
C278 C274 1.356 . S
C278 C275 1.358 . S
C278 H334 0.930 . S
C279 N276 1.314 . S
C279 C277 1.353 . S
C279 H335 0.930 . S
C280 N281 1.314 . S
C280 C285 1.353 . S
C280 H286 0.930 . S
N281 Li264 1.990 . S
N281 C280 1.314 . S
N281 C283 1.279 . S
C282 C283 1.358 . S
C282 C284 1.356 . S
C282 H336 0.930 . S
C283 N281 1.279 . S
C283 C282 1.358 . S
C283 H287 0.930 . S
C284 C282 1.356 . S
C284 C285 1.348 . S
C285 C280 1.353 . S
C285 C284 1.348 . S
C285 H337 0.929 . S
H286 C280 0.930 . S
H287 C283 0.930 . S
C288 N289 1.314 . S
C288 C290 1.353 . S
C288 H294 0.930 . S
N289 Li265 1.990 . S
N289 C288 1.314 . S
N289 C292 1.279 . S
C290 C288 1.353 . S
C290 C293 1.348 . S
C290 H338 0.929 . S
C291 C292 1.358 . S
C291 C293 1.356 . S
C291 H339 0.930 . S
C292 N289 1.279 . S
C292 C291 1.358 . S
C292 H295 0.930 . S
C293 C290 1.348 . S
C293 C291 1.356 . S
H294 C288 0.930 . S
H295 C292 0.930 . S
C296 C298 1.348 . S
C296 C299 1.356 . S
C296 O326 1.325 . S
N297 C300 1.314 . S
N297 C301 1.279 . S
C298 C296 1.348 . S
C298 C300 1.353 . S
C298 H340 0.929 . S
C299 C296 1.356 . S
C299 C301 1.358 . S
C299 H341 0.930 . S
C300 N297 1.314 . S
C300 C298 1.353 . S
C300 H342 0.930 . S
C301 N297 1.279 . S
C301 C299 1.358 . S
C301 H343 0.930 . S
C302 C303 1.348 . S
C302 C304 1.356 . S
C302 O327 1.325 . S
C303 C302 1.348 . S
C303 C305 1.353 . S
C303 H344 0.929 . S
C304 C302 1.356 . S
C304 C306 1.358 . S
C304 H345 0.930 . S
C305 C303 1.353 . S
C305 N307 1.314 . S
C305 H346 0.930 . S
C306 C304 1.358 . S
C306 N307 1.279 . S
C306 H347 0.930 . S
N307 C305 1.314 . S
N307 C306 1.279 . S
C308 C310 1.353 . S
C308 N311 1.314 . S
C308 H314 0.930 . S
C309 N311 1.279 . S
C309 C312 1.358 . S
C309 H315 0.930 . S
C310 C308 1.353 . S
C310 C313 1.348 . S
C310 H348 0.929 . S
N311 Li266 1.990 . S
N311 C308 1.314 . S
N311 C309 1.279 . S
C312 C309 1.358 . S
C312 C313 1.356 . S
C312 H349 0.930 . S
C313 C310 1.348 . S
C313 C312 1.356 . S
H314 C308 0.930 . S
H315 C309 0.930 . S
C316 N317 1.314 . S
C316 C318 1.353 . S
C316 H322 0.930 . S
N317 Li267 1.990 . S
N317 C316 1.314 . S
N317 C320 1.279 . S
C318 C316 1.353 . S
C318 C321 1.348 . S
C318 H350 0.929 . S
C319 C320 1.358 . S
C319 C321 1.356 . S
C319 H351 0.930 . S
C320 N317 1.279 . S
C320 C319 1.358 . S
C320 H323 0.930 . S
C321 C318 1.348 . S
C321 C319 1.356 . S
H322 C316 0.930 . S
H323 C320 0.930 . S
O324 Li264 1.956 . S
O324 Li265 1.970 . S
O324 Li266 1.961 . S
O324 C268 1.325 . S
O325 Li264 1.970 . S
O325 Li265 1.956 . S
O325 Li267 1.961 . S
O325 C274 1.325 . S
O326 Li264 1.961 . S
O326 Li266 1.956 . S
O326 Li267 1.970 . S
O326 C296 1.325 . S
O327 Li265 1.961 . S
O327 Li266 1.970 . S
O327 Li267 1.956 . S
O327 C302 1.325 . S
H328 C270 0.929 . S
H329 C271 0.930 . S
H330 C272 0.930 . S
H331 C273 0.930 . S
H332 C275 0.930 . S
H333 C277 0.929 . S
H334 C278 0.930 . S
H335 C279 0.930 . S
H336 C282 0.930 . S
H337 C285 0.929 . S
H338 C290 0.929 . S
H339 C291 0.930 . S
H340 C298 0.929 . S
H341 C299 0.930 . S
H342 C300 0.930 . S
H343 C301 0.930 . S
H344 C303 0.929 . S
H345 C304 0.930 . S
H346 C305 0.930 . S
H347 C306 0.930 . S
H348 C310 0.929 . S
H349 C312 0.930 . S
H350 C318 0.929 . S
H351 C319 0.930 . S
Li352 N369 1.990 . S
Li352 O412 1.956 . S
Li352 O413 1.970 . S
Li352 O414 1.961 1_545 S
Li353 N377 1.990 . S
Li353 O412 1.970 . S
Li353 O413 1.956 . S
Li353 O415 1.961 . S
Li354 N399 1.990 . S
Li354 O412 1.961 . S
Li354 O414 1.956 1_545 S
Li354 O415 1.970 . S
Li355 N405 1.990 . S
Li355 O413 1.961 1_565 S
Li355 O414 1.970 . S
Li355 O415 1.956 1_565 S
C356 C358 1.348 . S
C356 C359 1.356 . S
C356 O412 1.325 . S
N357 C360 1.314 . S
N357 C361 1.279 . S
C358 C356 1.348 . S
C358 C360 1.353 . S
C358 H416 0.929 . S
C359 C356 1.356 . S
C359 C361 1.358 . S
C359 H417 0.930 . S
C360 N357 1.314 . S
C360 C358 1.353 . S
C360 H418 0.930 . S
C361 N357 1.279 . S
C361 C359 1.358 . S
C361 H419 0.930 . S
C362 C365 1.348 . S
C362 C366 1.356 1_545 S
C362 O413 1.325 . S
C363 N364 1.279 1_565 S
C363 C366 1.358 . S
C363 H420 0.930 . S
N364 C363 1.279 1_545 S
N364 C367 1.314 . S
C365 C362 1.348 . S
C365 C367 1.353 . S
C365 H421 0.929 . S
C366 C362 1.356 1_565 S
C366 C363 1.358 . S
C366 H422 0.930 . S
C367 N364 1.314 . S
C367 C365 1.353 . S
C367 H423 0.930 . S
C368 N369 1.314 1_565 S
C368 C373 1.353 . S
C368 H374 0.930 . S
N369 Li352 1.990 . S
N369 C368 1.314 1_545 S
N369 C371 1.279 . S
C370 C371 1.358 . S
C370 C372 1.356 . S
C370 H424 0.930 . S
C371 N369 1.279 . S
C371 C370 1.358 . S
C371 H375 0.930 . S
C372 C370 1.356 . S
C372 C373 1.348 1_545 S
C373 C368 1.353 . S
C373 C372 1.348 1_565 S
C373 H425 0.929 . S
H374 C368 0.930 . S
H375 C371 0.930 . S
C376 N377 1.314 . S
C376 C378 1.353 . S
C376 H382 0.930 . S
N377 Li353 1.990 . S
N377 C376 1.314 . S
N377 C380 1.279 . S
C378 C376 1.353 . S
C378 C381 1.348 . S
C378 H426 0.929 . S
C379 C380 1.358 . S
C379 C381 1.356 . S
C379 H427 0.930 . S
C380 N377 1.279 . S
C380 C379 1.358 . S
C380 H383 0.930 . S
C381 C378 1.348 . S
C381 C379 1.356 . S
H382 C376 0.930 . S
H383 C380 0.930 . S
C384 C386 1.348 . S
C384 C387 1.356 . S
C384 O414 1.325 . S
N385 C388 1.314 . S
N385 C389 1.279 . S
C386 C384 1.348 . S
C386 C388 1.353 . S
C386 H428 0.929 . S
C387 C384 1.356 . S
C387 C389 1.358 . S
C387 H429 0.930 . S
C388 N385 1.314 . S
C388 C386 1.353 . S
C388 H430 0.930 . S
C389 N385 1.279 . S
C389 C387 1.358 . S
C389 H431 0.930 . S
C390 C391 1.348 1_545 S
C390 C392 1.356 . S
C390 O415 1.325 . S
C391 C390 1.348 1_565 S
C391 C393 1.353 . S
C391 H432 0.929 . S
C392 C390 1.356 . S
C392 C394 1.358 . S
C392 H433 0.930 . S
C393 C391 1.353 . S
C393 N395 1.307 1_565 S
C393 H434 0.930 . S
C394 C392 1.358 . S
C394 N395 1.288 . S
C394 H435 0.930 . S
N395 C393 1.307 1_545 S
N395 C394 1.288 . S
C396 C398 1.353 . S
C396 N399 1.314 . S
C396 H402 0.930 . S
C397 N399 1.279 1_565 S
C397 C400 1.358 . S
C397 H403 0.930 . S
C398 C396 1.353 . S
C398 C401 1.348 . S
C398 H436 0.929 . S
N399 Li354 1.990 . S
N399 C396 1.314 . S
N399 C397 1.279 1_545 S
C400 C397 1.358 . S
C400 C401 1.356 1_565 S
C400 H437 0.930 . S
C401 C398 1.348 . S
C401 C400 1.356 1_545 S
H402 C396 0.930 . S
H403 C397 0.930 . S
C404 N405 1.314 . S
C404 C406 1.353 . S
C404 H410 0.930 . S
N405 Li355 1.990 . S
N405 C404 1.314 . S
N405 C408 1.279 . S
C406 C404 1.353 . S
C406 C409 1.348 . S
C406 H438 0.929 . S
C407 C408 1.358 . S
C407 C409 1.356 . S
C407 H439 0.930 . S
C408 N405 1.279 . S
C408 C407 1.358 . S
C408 H411 0.930 . S
C409 C406 1.348 . S
C409 C407 1.356 . S
H410 C404 0.930 . S
H411 C408 0.930 . S
O412 Li352 1.956 . S
O412 Li353 1.970 . S
O412 Li354 1.961 . S
O412 C356 1.325 . S
O413 Li352 1.970 . S
O413 Li353 1.956 . S
O413 Li355 1.961 1_545 S
O413 C362 1.325 . S
O414 Li352 1.961 1_565 S
O414 Li354 1.956 1_565 S
O414 Li355 1.970 . S
O414 C384 1.325 . S
O415 Li353 1.961 . S
O415 Li354 1.970 . S
O415 Li355 1.956 1_545 S
O415 C390 1.325 . S
H416 C358 0.929 . S
H417 C359 0.930 . S
H418 C360 0.930 . S
H419 C361 0.930 . S
H420 C363 0.930 . S
H421 C365 0.929 . S
H422 C366 0.930 . S
H423 C367 0.930 . S
H424 C370 0.930 . S
H425 C373 0.929 . S
H426 C378 0.929 . S
H427 C379 0.930 . S
H428 C386 0.929 . S
H429 C387 0.930 . S
H430 C388 0.930 . S
H431 C389 0.930 . S
H432 C391 0.929 . S
H433 C392 0.930 . S
H434 C393 0.930 . S
H435 C394 0.930 . S
H436 C398 0.929 . S
H437 C400 0.930 . S
H438 C406 0.929 . S
H439 C407 0.930 . S
Li440 N457 1.990 . S
Li440 O500 1.956 . S
Li440 O501 1.970 . S
Li440 O502 1.961 . S
Li441 N465 1.990 . S
Li441 O500 1.970 . S
Li441 O501 1.956 . S
Li441 O503 1.961 . S
Li442 N487 1.990 . S
Li442 O500 1.961 . S
Li442 O502 1.956 . S
Li442 O503 1.970 . S
Li443 N493 1.990 . S
Li443 O501 1.961 . S
Li443 O502 1.970 . S
Li443 O503 1.956 . S
C444 C446 1.348 . S
C444 C447 1.356 . S
C444 O500 1.325 . S
N445 C448 1.314 . S
N445 C449 1.279 . S
C446 C444 1.348 . S
C446 C448 1.353 . S
C446 H504 0.929 . S
C447 C444 1.356 . S
C447 C449 1.358 . S
C447 H505 0.930 . S
C448 N445 1.314 . S
C448 C446 1.353 . S
C448 H506 0.930 . S
C449 N445 1.279 . S
C449 C447 1.358 . S
C449 H507 0.930 . S
C450 C453 1.348 . S
C450 C454 1.356 . S
C450 O501 1.325 . S
C451 N452 1.279 . S
C451 C454 1.358 . S
C451 H508 0.930 . S
N452 C451 1.279 . S
N452 C455 1.314 . S
C453 C450 1.348 . S
C453 C455 1.353 . S
C453 H509 0.929 . S
C454 C450 1.356 . S
C454 C451 1.358 . S
C454 H510 0.930 . S
C455 N452 1.314 . S
C455 C453 1.353 . S
C455 H511 0.930 . S
C456 N457 1.314 . S
C456 C461 1.353 . S
C456 H462 0.930 . S
N457 Li440 1.990 . S
N457 C456 1.314 . S
N457 C459 1.279 . S
C458 C459 1.358 . S
C458 C460 1.356 . S
C458 H512 0.930 . S
C459 N457 1.279 . S
C459 C458 1.358 . S
C459 H463 0.930 . S
C460 C458 1.356 . S
C460 C461 1.348 . S
C461 C456 1.353 . S
C461 C460 1.348 . S
C461 H513 0.929 . S
H462 C456 0.930 . S
H463 C459 0.930 . S
C464 N465 1.314 . S
C464 C466 1.353 . S
C464 H470 0.930 . S
N465 Li441 1.990 . S
N465 C464 1.314 . S
N465 C468 1.279 . S
C466 C464 1.353 . S
C466 C469 1.348 . S
C466 H514 0.929 . S
C467 C468 1.358 . S
C467 C469 1.356 . S
C467 H515 0.930 . S
C468 N465 1.279 . S
C468 C467 1.358 . S
C468 H471 0.930 . S
C469 C466 1.348 . S
C469 C467 1.356 . S
H470 C464 0.930 . S
H471 C468 0.930 . S
C472 C474 1.348 . S
C472 C475 1.356 . S
C472 O502 1.325 . S
N473 C476 1.314 . S
N473 C477 1.279 . S
C474 C472 1.348 . S
C474 C476 1.353 . S
C474 H516 0.929 . S
C475 C472 1.356 . S
C475 C477 1.358 . S
C475 H517 0.930 . S
C476 N473 1.314 . S
C476 C474 1.353 . S
C476 H518 0.930 . S
C477 N473 1.279 . S
C477 C475 1.358 . S
C477 H519 0.930 . S
C478 C479 1.348 . S
C478 C480 1.356 . S
C478 O503 1.325 . S
C479 C478 1.348 . S
C479 C481 1.353 . S
C479 H520 0.929 . S
C480 C478 1.356 . S
C480 C482 1.358 . S
C480 H521 0.930 . S
C481 C479 1.353 . S
C481 N483 1.314 . S
C481 H522 0.930 . S
C482 C480 1.358 . S
C482 N483 1.279 . S
C482 H523 0.930 . S
N483 C481 1.314 . S
N483 C482 1.279 . S
C484 C486 1.353 . S
C484 N487 1.314 . S
C484 H490 0.930 . S
C485 N487 1.279 . S
C485 C488 1.358 . S
C485 H491 0.930 . S
C486 C484 1.353 . S
C486 C489 1.348 . S
C486 H524 0.929 . S
N487 Li442 1.990 . S
N487 C484 1.314 . S
N487 C485 1.279 . S
C488 C485 1.358 . S
C488 C489 1.356 . S
C488 H525 0.930 . S
C489 C486 1.348 . S
C489 C488 1.356 . S
H490 C484 0.930 . S
H491 C485 0.930 . S
C492 N493 1.314 . S
C492 C494 1.353 . S
C492 H498 0.930 . S
N493 Li443 1.990 . S
N493 C492 1.314 . S
N493 C496 1.279 . S
C494 C492 1.353 . S
C494 C497 1.348 . S
C494 H526 0.929 . S
C495 C496 1.358 . S
C495 C497 1.356 . S
C495 H527 0.930 . S
C496 N493 1.279 . S
C496 C495 1.358 . S
C496 H499 0.930 . S
C497 C494 1.348 . S
C497 C495 1.356 . S
H498 C492 0.930 . S
H499 C496 0.930 . S
O500 Li440 1.956 . S
O500 Li441 1.970 . S
O500 Li442 1.961 . S
O500 C444 1.325 . S
O501 Li440 1.970 . S
O501 Li441 1.956 . S
O501 Li443 1.961 . S
O501 C450 1.325 . S
O502 Li440 1.961 . S
O502 Li442 1.956 . S
O502 Li443 1.970 . S
O502 C472 1.325 . S
O503 Li441 1.961 . S
O503 Li442 1.970 . S
O503 Li443 1.956 . S
O503 C478 1.325 . S
H504 C446 0.929 . S
H505 C447 0.930 . S
H506 C448 0.930 . S
H507 C449 0.930 . S
H508 C451 0.930 . S
H509 C453 0.929 . S
H510 C454 0.930 . S
H511 C455 0.930 . S
H512 C458 0.930 . S
H513 C461 0.929 . S
H514 C466 0.929 . S
H515 C467 0.930 . S
H516 C474 0.929 . S
H517 C475 0.930 . S
H518 C476 0.930 . S
H519 C477 0.930 . S
H520 C479 0.929 . S
H521 C480 0.930 . S
H522 C481 0.930 . S
H523 C482 0.930 . S
H524 C486 0.929 . S
H525 C488 0.930 . S
H526 C494 0.929 . S
H527 C495 0.930 . S
Li528 N545 1.990 . S
Li528 O588 1.956 1_565 S
Li528 O589 1.970 . S
Li528 O590 1.961 1_565 S
Li529 N553 1.990 . S
Li529 O588 1.970 . S
Li529 O589 1.956 1_545 S
Li529 O591 1.961 . S
Li530 N575 1.990 . S
Li530 O588 1.961 . S
Li530 O590 1.956 . S
Li530 O591 1.970 . S
Li531 N581 1.990 . S
Li531 O589 1.961 1_545 S
Li531 O590 1.970 . S
Li531 O591 1.956 . S
C532 C534 1.341 1_545 S
C532 C535 1.356 . S
C532 O588 1.325 . S
N533 C536 1.308 1_545 S
N533 C537 1.279 . S
C534 C532 1.341 1_565 S
C534 C536 1.353 . S
C534 H592 0.936 . S
C535 C532 1.356 . S
C535 C537 1.358 . S
C535 H593 0.930 . S
C536 N533 1.308 1_565 S
C536 C534 1.353 . S
C536 H594 0.937 . S
C537 N533 1.279 . S
C537 C535 1.358 . S
C537 H595 0.930 . S
C538 C541 1.348 . S
C538 C542 1.356 . S
C538 O589 1.325 . S
C539 N540 1.279 . S
C539 C542 1.358 . S
C539 H596 0.930 . S
N540 C539 1.279 . S
N540 C543 1.314 . S
C541 C538 1.348 . S
C541 C543 1.353 . S
C541 H597 0.929 . S
C542 C538 1.356 . S
C542 C539 1.358 . S
C542 H598 0.930 . S
C543 N540 1.314 . S
C543 C541 1.353 . S
C543 H599 0.930 . S
C544 N545 1.314 . S
C544 C549 1.353 . S
C544 H550 0.930 . S
N545 Li528 1.990 . S
N545 C544 1.314 . S
N545 C547 1.279 . S
C546 C547 1.358 . S
C546 C548 1.356 . S
C546 H600 0.930 . S
C547 N545 1.279 . S
C547 C546 1.358 . S
C547 H551 0.930 . S
C548 C546 1.356 . S
C548 C549 1.348 . S
C549 C544 1.353 . S
C549 C548 1.348 . S
C549 H601 0.929 . S
H550 C544 0.930 . S
H551 C547 0.930 . S
C552 N553 1.314 . S
C552 C554 1.353 . S
C552 H558 0.930 . S
N553 Li529 1.990 . S
N553 C552 1.314 . S
N553 C556 1.279 1_545 S
C554 C552 1.353 . S
C554 C557 1.348 . S
C554 H602 0.929 . S
C555 C556 1.358 . S
C555 C557 1.356 1_565 S
C555 H603 0.930 . S
C556 N553 1.279 1_565 S
C556 C555 1.358 . S
C556 H559 0.930 . S
C557 C554 1.348 . S
C557 C555 1.356 1_545 S
H558 C552 0.930 . S
H559 C556 0.930 . S
C560 C562 1.348 . S
C560 C563 1.356 . S
C560 O590 1.325 . S
N561 C564 1.314 . S
N561 C565 1.279 . S
C562 C560 1.348 . S
C562 C564 1.353 . S
C562 H604 0.929 . S
C563 C560 1.356 . S
C563 C565 1.358 . S
C563 H605 0.930 1_545 S
C564 N561 1.314 . S
C564 C562 1.353 . S
C564 H606 0.930 . S
C565 N561 1.279 . S
C565 C563 1.358 . S
C565 H607 0.920 1_545 S
C566 C567 1.348 . S
C566 C568 1.356 . S
C566 O591 1.325 . S
C567 C566 1.348 . S
C567 C569 1.353 . S
C567 H608 0.929 . S
C568 C566 1.356 . S
C568 C570 1.358 . S
C568 H609 0.930 . S
C569 C567 1.353 . S
C569 N571 1.314 . S
C569 H610 0.930 . S
C570 C568 1.358 . S
C570 N571 1.279 . S
C570 H611 0.930 . S
N571 C569 1.314 . S
N571 C570 1.279 . S
C572 C574 1.353 . S
C572 N575 1.314 . S
C572 H578 0.930 . S
C573 N575 1.279 . S
C573 C576 1.358 . S
C573 H579 0.930 . S
C574 C572 1.353 . S
C574 C577 1.348 . S
C574 H612 0.929 . S
N575 Li530 1.990 . S
N575 C572 1.314 . S
N575 C573 1.279 . S
C576 C573 1.358 . S
C576 C577 1.356 . S
C576 H613 0.930 . S
C577 C574 1.348 . S
C577 C576 1.356 . S
H578 C572 0.930 . S
H579 C573 0.930 . S
C580 N581 1.314 1_565 S
C580 C582 1.353 . S
C580 H586 0.930 . S
N581 Li531 1.990 . S
N581 C580 1.314 1_545 S
N581 C584 1.279 . S
C582 C580 1.353 . S
C582 C585 1.348 1_565 S
C582 H614 0.929 . S
C583 C584 1.358 . S
C583 C585 1.356 . S
C583 H615 0.930 . S
C584 N581 1.279 . S
C584 C583 1.358 . S
C584 H587 0.930 . S
C585 C582 1.348 1_545 S
C585 C583 1.356 . S
H586 C580 0.930 . S
H587 C584 0.930 . S
O588 Li528 1.956 1_545 S
O588 Li529 1.970 . S
O588 Li530 1.961 . S
O588 C532 1.325 . S
O589 Li528 1.970 . S
O589 Li529 1.956 1_565 S
O589 Li531 1.961 1_565 S
O589 C538 1.325 . S
O590 Li528 1.961 1_545 S
O590 Li530 1.956 . S
O590 Li531 1.970 . S
O590 C560 1.325 . S
O591 Li529 1.961 . S
O591 Li530 1.970 . S
O591 Li531 1.956 . S
O591 C566 1.325 . S
H592 C534 0.936 . S
H593 C535 0.930 . S
H594 C536 0.937 . S
H595 C537 0.930 . S
H596 C539 0.930 . S
H597 C541 0.929 . S
H598 C542 0.930 . S
H599 C543 0.930 . S
H600 C546 0.930 . S
H601 C549 0.929 . S
H602 C554 0.929 . S
H603 C555 0.930 . S
H604 C562 0.929 . S
H605 C563 0.930 1_565 S
H606 C564 0.930 . S
H607 C565 0.920 1_565 S
H608 C567 0.929 . S
H609 C568 0.930 . S
H610 C569 0.930 . S
H611 C570 0.930 . S
H612 C574 0.929 . S
H613 C576 0.930 . S
H614 C582 0.929 . S
H615 C583 0.930 . S
Li616 N633 1.990 . S
Li616 O676 1.956 . S
Li616 O677 1.970 . S
Li616 O678 1.961 . S
Li617 N641 1.990 . S
Li617 O676 1.970 . S
Li617 O677 1.956 . S
Li617 O679 1.961 1_554 S
Li618 N663 1.990 . S
Li618 O676 1.961 1_556 S
Li618 O678 1.956 1_556 S
Li618 O679 1.970 . S
Li619 N669 1.990 . S
Li619 O677 1.961 . S
Li619 O678 1.970 . S
Li619 O679 1.956 1_554 S
C620 C622 1.348 . S
C620 C623 1.356 . S
C620 O676 1.325 . S
N621 C624 1.314 . S
N621 C625 1.279 . S
C622 C620 1.348 . S
C622 C624 1.353 . S
C622 H680 0.929 . S
C623 C620 1.356 . S
C623 C625 1.358 . S
C623 H681 0.930 1_554 S
C624 N621 1.314 . S
C624 C622 1.353 . S
C624 H682 0.930 . S
C625 N621 1.279 . S
C625 C623 1.358 . S
C625 H683 0.930 1_554 S
C626 C629 1.348 . S
C626 C630 1.356 . S
C626 O677 1.325 . S
C627 N628 1.279 . S
C627 C630 1.358 . S
C627 H684 0.930 . S
N628 C627 1.279 . S
N628 C631 1.314 . S
C629 C626 1.348 . S
C629 C631 1.353 . S
C629 H685 0.929 . S
C630 C626 1.356 . S
C630 C627 1.358 . S
C630 H686 0.930 . S
C631 N628 1.314 . S
C631 C629 1.353 . S
C631 H687 0.930 . S
C632 N633 1.314 . S
C632 C637 1.353 . S
C632 H638 0.930 . S
N633 Li616 1.990 . S
N633 C632 1.314 . S
N633 C635 1.279 . S
C634 C635 1.358 . S
C634 C636 1.356 . S
C634 H688 0.930 . S
C635 N633 1.279 . S
C635 C634 1.358 . S
C635 H639 0.930 . S
C636 C634 1.356 . S
C636 C637 1.348 . S
C637 C632 1.353 . S
C637 C636 1.348 . S
C637 H689 0.929 . S
H638 C632 0.930 . S
H639 C635 0.930 . S
C640 N641 1.314 1_556 S
C640 C642 1.353 . S
C640 H646 0.930 . S
N641 Li617 1.990 . S
N641 C640 1.314 1_554 S
N641 C644 1.279 . S
C642 C640 1.353 . S
C642 C645 1.348 1_556 S
C642 H690 0.929 . S
C643 C644 1.358 . S
C643 C645 1.356 . S
C643 H691 0.930 . S
C644 N641 1.279 . S
C644 C643 1.358 . S
C644 H647 0.930 . S
C645 C642 1.348 1_554 S
C645 C643 1.356 . S
H646 C640 0.930 . S
H647 C644 0.930 . S
C648 C650 1.335 1_554 S
C648 C651 1.356 . S
C648 O678 1.325 . S
N649 C652 1.305 1_554 S
N649 C653 1.279 . S
C650 C648 1.335 1_556 S
C650 C652 1.353 . S
C650 H692 0.944 . S
C651 C648 1.356 . S
C651 C653 1.358 . S
C651 H693 0.930 . S
C652 N649 1.305 1_556 S
C652 C650 1.353 . S
C652 H694 0.941 . S
C653 N649 1.279 . S
C653 C651 1.358 . S
C653 H695 0.930 . S
C654 C655 1.348 . S
C654 C656 1.356 . S
C654 O679 1.325 . S
C655 C654 1.348 . S
C655 C657 1.353 . S
C655 H696 0.929 . S
C656 C654 1.356 . S
C656 C658 1.358 . S
C656 H697 0.930 . S
C657 C655 1.353 . S
C657 N659 1.314 . S
C657 H698 0.930 . S
C658 C656 1.358 . S
C658 N659 1.279 . S
C658 H699 0.930 . S
N659 C657 1.314 . S
N659 C658 1.279 . S
C660 C662 1.353 . S
C660 N663 1.314 . S
C660 H666 0.930 . S
C661 N663 1.279 . S
C661 C664 1.358 . S
C661 H667 0.930 . S
C662 C660 1.353 . S
C662 C665 1.348 . S
C662 H700 0.929 . S
N663 Li618 1.990 . S
N663 C660 1.314 . S
N663 C661 1.279 . S
C664 C661 1.358 . S
C664 C665 1.356 . S
C664 H701 0.930 . S
C665 C662 1.348 . S
C665 C664 1.356 . S
H666 C660 0.930 . S
H667 C661 0.930 . S
C668 N669 1.314 . S
C668 C670 1.353 . S
C668 H674 0.930 . S
N669 Li619 1.990 . S
N669 C668 1.314 . S
N669 C672 1.279 1_554 S
C670 C668 1.353 . S
C670 C673 1.348 . S
C670 H702 0.929 . S
C671 C672 1.358 . S
C671 C673 1.356 1_556 S
C671 H703 0.930 . S
C672 N669 1.279 1_556 S
C672 C671 1.358 . S
C672 H675 0.930 . S
C673 C670 1.348 . S
C673 C671 1.356 1_554 S
H674 C668 0.930 . S
H675 C672 0.930 . S
O676 Li616 1.956 . S
O676 Li617 1.970 . S
O676 Li618 1.961 1_554 S
O676 C620 1.325 . S
O677 Li616 1.970 . S
O677 Li617 1.956 . S
O677 Li619 1.961 . S
O677 C626 1.325 . S
O678 Li616 1.961 . S
O678 Li618 1.956 1_554 S
O678 Li619 1.970 . S
O678 C648 1.325 . S
O679 Li617 1.961 1_556 S
O679 Li618 1.970 . S
O679 Li619 1.956 1_556 S
O679 C654 1.325 . S
H680 C622 0.929 . S
H681 C623 0.930 1_556 S
H682 C624 0.930 . S
H683 C625 0.930 1_556 S
H684 C627 0.930 . S
H685 C629 0.929 . S
H686 C630 0.930 . S
H687 C631 0.930 . S
H688 C634 0.930 . S
H689 C637 0.929 . S
H690 C642 0.929 . S
H691 C643 0.930 . S
H692 C650 0.944 . S
H693 C651 0.930 . S
H694 C652 0.941 . S
H695 C653 0.930 . S
H696 C655 0.929 . S
H697 C656 0.930 . S
H698 C657 0.930 . S
H699 C658 0.930 . S
H700 C662 0.929 . S
H701 C664 0.930 . S
H702 C670 0.929 . S
H703 C671 0.930 . S
Li704 N721 1.990 . S
Li704 O764 1.956 . S
Li704 O765 1.970 . S
Li704 O766 1.961 1_554 S
Li705 N729 1.990 . S
Li705 O764 1.970 . S
Li705 O765 1.956 . S
Li705 O767 1.961 . S
Li706 N751 1.990 . S
Li706 O764 1.961 . S
Li706 O766 1.956 1_554 S
Li706 O767 1.970 . S
Li707 N757 1.990 . S
Li707 O765 1.961 1_556 S
Li707 O766 1.970 . S
Li707 O767 1.956 1_556 S
C708 C710 1.348 . S
C708 C711 1.356 . S
C708 O764 1.325 . S
N709 C712 1.314 . S
N709 C713 1.279 . S
C710 C708 1.348 . S
C710 C712 1.353 . S
C710 H768 0.929 . S
C711 C708 1.356 . S
C711 C713 1.358 . S
C711 H769 0.930 . S
C712 N709 1.314 . S
C712 C710 1.353 . S
C712 H770 0.930 . S
C713 N709 1.279 . S
C713 C711 1.358 . S
C713 H771 0.930 . S
C714 C717 1.348 . S
C714 C718 1.362 . S
C714 O765 1.325 . S
C715 N716 1.279 . S
C715 C718 1.360 . S
C715 H772 0.930 1_554 S
N716 C715 1.279 . S
N716 C719 1.314 . S
C717 C714 1.348 . S
C717 C719 1.353 . S
C717 H773 0.929 . S
C718 C714 1.362 . S
C718 C715 1.360 . S
C718 H774 0.923 1_554 S
C719 N716 1.314 . S
C719 C717 1.353 . S
C719 H775 0.930 . S
C720 N721 1.314 1_556 S
C720 C725 1.353 . S
C720 H726 0.930 . S
N721 Li704 1.990 . S
N721 C720 1.314 1_554 S
N721 C723 1.279 . S
C722 C723 1.358 . S
C722 C724 1.356 . S
C722 H776 0.930 . S
C723 N721 1.279 . S
C723 C722 1.358 . S
C723 H727 0.930 . S
C724 C722 1.356 . S
C724 C725 1.348 1_554 S
C725 C720 1.353 . S
C725 C724 1.348 1_556 S
C725 H777 0.929 . S
H726 C720 0.930 . S
H727 C723 0.930 . S
C728 N729 1.314 . S
C728 C730 1.353 . S
C728 H734 0.930 . S
N729 Li705 1.990 . S
N729 C728 1.314 . S
N729 C732 1.279 . S
C730 C728 1.353 . S
C730 C733 1.348 . S
C730 H778 0.929 . S
C731 C732 1.358 . S
C731 C733 1.356 . S
C731 H779 0.930 . S
C732 N729 1.279 . S
C732 C731 1.358 . S
C732 H735 0.930 . S
C733 C730 1.348 . S
C733 C731 1.356 . S
H734 C728 0.930 . S
H735 C732 0.930 . S
C736 C738 1.348 . S
C736 C739 1.356 . S
C736 O766 1.325 . S
N737 C740 1.314 . S
N737 C741 1.279 . S
C738 C736 1.348 . S
C738 C740 1.353 . S
C738 H780 0.929 . S
C739 C736 1.356 . S
C739 C741 1.358 . S
C739 H781 0.930 . S
C740 N737 1.314 . S
C740 C738 1.353 . S
C740 H782 0.930 . S
C741 N737 1.279 . S
C741 C739 1.358 . S
C741 H783 0.930 . S
C742 C743 1.348 1_554 S
C742 C744 1.356 . S
C742 O767 1.325 . S
C743 C742 1.348 1_556 S
C743 C745 1.353 . S
C743 H784 0.929 . S
C744 C742 1.356 . S
C744 C746 1.358 . S
C744 H785 0.930 . S
C745 C743 1.353 . S
C745 N747 1.314 1_556 S
C745 H786 0.930 . S
C746 C744 1.358 . S
C746 N747 1.279 . S
C746 H787 0.930 . S
N747 C745 1.314 1_554 S
N747 C746 1.279 . S
C748 C750 1.353 . S
C748 N751 1.314 . S
C748 H754 0.930 . S
C749 N751 1.279 1_556 S
C749 C752 1.358 . S
C749 H755 0.930 . S
C750 C748 1.353 . S
C750 C753 1.348 . S
C750 H788 0.929 . S
N751 Li706 1.990 . S
N751 C748 1.314 . S
N751 C749 1.279 1_554 S
C752 C749 1.358 . S
C752 C753 1.356 1_556 S
C752 H789 0.930 . S
C753 C750 1.348 . S
C753 C752 1.356 1_554 S
H754 C748 0.930 . S
H755 C749 0.930 . S
C756 N757 1.314 . S
C756 C758 1.353 . S
C756 H762 0.930 . S
N757 Li707 1.990 . S
N757 C756 1.314 . S
N757 C760 1.279 . S
C758 C756 1.353 . S
C758 C761 1.348 . S
C758 H790 0.929 . S
C759 C760 1.358 . S
C759 C761 1.356 . S
C759 H791 0.930 . S
C760 N757 1.279 . S
C760 C759 1.358 . S
C760 H763 0.930 . S
C761 C758 1.348 . S
C761 C759 1.356 . S
H762 C756 0.930 . S
H763 C760 0.930 . S
O764 Li704 1.956 . S
O764 Li705 1.970 . S
O764 Li706 1.961 . S
O764 C708 1.325 . S
O765 Li704 1.970 . S
O765 Li705 1.956 . S
O765 Li707 1.961 1_554 S
O765 C714 1.325 . S
O766 Li704 1.961 1_556 S
O766 Li706 1.956 1_556 S
O766 Li707 1.970 . S
O766 C736 1.325 . S
O767 Li705 1.961 . S
O767 Li706 1.970 . S
O767 Li707 1.956 1_554 S
O767 C742 1.325 . S
H768 C710 0.929 . S
H769 C711 0.930 . S
H770 C712 0.930 . S
H771 C713 0.930 . S
H772 C715 0.930 1_556 S
H773 C717 0.929 . S
H774 C718 0.923 1_556 S
H775 C719 0.930 . S
H776 C722 0.930 . S
H777 C725 0.929 . S
H778 C730 0.929 . S
H779 C731 0.930 . S
H780 C738 0.929 . S
H781 C739 0.930 . S
H782 C740 0.930 . S
H783 C741 0.930 . S
H784 C743 0.929 . S
H785 C744 0.930 . S
H786 C745 0.930 . S
H787 C746 0.930 . S
H788 C750 0.929 . S
H789 C752 0.930 . S
H790 C758 0.929 . S
H791 C759 0.930 . S
Li792 N809 1.990 . S
Li792 O852 1.956 . S
Li792 O853 1.970 . S
Li792 O854 1.961 . S
Li793 N817 1.990 . S
Li793 O852 1.970 . S
Li793 O853 1.956 . S
Li793 O855 1.961 . S
Li794 N839 1.990 . S
Li794 O852 1.961 . S
Li794 O854 1.956 . S
Li794 O855 1.970 . S
Li795 N845 1.990 . S
Li795 O853 1.961 . S
Li795 O854 1.970 . S
Li795 O855 1.956 . S
C796 C798 1.348 . S
C796 C799 1.356 . S
C796 O852 1.325 . S
N797 C800 1.314 . S
N797 C801 1.279 . S
C798 C796 1.348 . S
C798 C800 1.353 . S
C798 H856 0.929 . S
C799 C796 1.356 . S
C799 C801 1.358 . S
C799 H857 0.930 . S
C800 N797 1.314 . S
C800 C798 1.353 . S
C800 H858 0.930 . S
C801 N797 1.279 . S
C801 C799 1.358 . S
C801 H859 0.930 . S
C802 C805 1.348 . S
C802 C806 1.356 . S
C802 O853 1.325 . S
C803 N804 1.279 . S
C803 C806 1.358 . S
C803 H860 0.930 . S
N804 C803 1.279 . S
N804 C807 1.314 . S
C805 C802 1.348 . S
C805 C807 1.353 . S
C805 H861 0.929 . S
C806 C802 1.356 . S
C806 C803 1.358 . S
C806 H862 0.930 . S
C807 N804 1.314 . S
C807 C805 1.353 . S
C807 H863 0.930 . S
C808 N809 1.314 . S
C808 C813 1.353 . S
C808 H814 0.930 . S
N809 Li792 1.990 . S
N809 C808 1.314 . S
N809 C811 1.279 . S
C810 C811 1.358 . S
C810 C812 1.356 . S
C810 H864 0.930 . S
C811 N809 1.279 . S
C811 C810 1.358 . S
C811 H815 0.930 . S
C812 C810 1.356 . S
C812 C813 1.348 . S
C813 C808 1.353 . S
C813 C812 1.348 . S
C813 H865 0.929 . S
H814 C808 0.930 . S
H815 C811 0.930 . S
C816 N817 1.314 . S
C816 C818 1.353 . S
C816 H822 0.930 . S
N817 Li793 1.990 . S
N817 C816 1.314 . S
N817 C820 1.279 . S
C818 C816 1.353 . S
C818 C821 1.348 . S
C818 H866 0.929 . S
C819 C820 1.358 . S
C819 C821 1.356 . S
C819 H867 0.930 . S
C820 N817 1.279 . S
C820 C819 1.358 . S
C820 H823 0.930 . S
C821 C818 1.348 . S
C821 C819 1.356 . S
H822 C816 0.930 . S
H823 C820 0.930 . S
C824 C826 1.348 . S
C824 C827 1.356 . S
C824 O854 1.325 . S
N825 C828 1.314 . S
N825 C829 1.279 . S
C826 C824 1.348 . S
C826 C828 1.353 . S
C826 H868 0.929 . S
C827 C824 1.356 . S
C827 C829 1.358 . S
C827 H869 0.930 . S
C828 N825 1.314 . S
C828 C826 1.353 . S
C828 H870 0.930 . S
C829 N825 1.279 . S
C829 C827 1.358 . S
C829 H871 0.930 . S
C830 C831 1.348 . S
C830 C832 1.356 . S
C830 O855 1.325 . S
C831 C830 1.348 . S
C831 C833 1.353 . S
C831 H872 0.929 . S
C832 C830 1.356 . S
C832 C834 1.358 . S
C832 H873 0.930 . S
C833 C831 1.353 . S
C833 N835 1.314 . S
C833 H874 0.930 . S
C834 C832 1.358 . S
C834 N835 1.279 . S
C834 H875 0.930 . S
N835 C833 1.314 . S
N835 C834 1.279 . S
C836 C838 1.353 . S
C836 N839 1.314 . S
C836 H842 0.930 . S
C837 N839 1.279 . S
C837 C840 1.358 . S
C837 H843 0.930 . S
C838 C836 1.353 . S
C838 C841 1.348 . S
C838 H876 0.929 . S
N839 Li794 1.990 . S
N839 C836 1.314 . S
N839 C837 1.279 . S
C840 C837 1.358 . S
C840 C841 1.356 . S
C840 H877 0.930 . S
C841 C838 1.348 . S
C841 C840 1.356 . S
H842 C836 0.930 . S
H843 C837 0.930 . S
C844 N845 1.314 . S
C844 C846 1.353 . S
C844 H850 0.930 . S
N845 Li795 1.990 . S
N845 C844 1.314 . S
N845 C848 1.279 . S
C846 C844 1.353 . S
C846 C849 1.348 . S
C846 H878 0.929 . S
C847 C848 1.358 . S
C847 C849 1.356 . S
C847 H879 0.930 . S
C848 N845 1.279 . S
C848 C847 1.358 . S
C848 H851 0.930 . S
C849 C846 1.348 . S
C849 C847 1.356 . S
H850 C844 0.930 . S
H851 C848 0.930 . S
O852 Li792 1.956 . S
O852 Li793 1.970 . S
O852 Li794 1.961 . S
O852 C796 1.325 . S
O853 Li792 1.970 . S
O853 Li793 1.956 . S
O853 Li795 1.961 . S
O853 C802 1.325 . S
O854 Li792 1.961 . S
O854 Li794 1.956 . S
O854 Li795 1.970 . S
O854 C824 1.325 . S
O855 Li793 1.961 . S
O855 Li794 1.970 . S
O855 Li795 1.956 . S
O855 C830 1.325 . S
H856 C798 0.929 . S
H857 C799 0.930 . S
H858 C800 0.930 . S
H859 C801 0.930 . S
H860 C803 0.930 . S
H861 C805 0.929 . S
H862 C806 0.930 . S
H863 C807 0.930 . S
H864 C810 0.930 . S
H865 C813 0.929 . S
H866 C818 0.929 . S
H867 C819 0.930 . S
H868 C826 0.929 . S
H869 C827 0.930 . S
H870 C828 0.930 . S
H871 C829 0.930 . S
H872 C831 0.929 . S
H873 C832 0.930 . S
H874 C833 0.930 . S
H875 C834 0.930 . S
H876 C838 0.929 . S
H877 C840 0.930 . S
H878 C846 0.929 . S
H879 C847 0.930 . S
Li880 N897 1.990 . S
Li880 O940 1.956 . S
Li880 O941 1.970 . S
Li880 O942 1.961 . S
Li881 N905 1.990 . S
Li881 O940 1.970 . S
Li881 O941 1.956 . S
Li881 O943 1.961 . S
Li882 N927 1.990 . S
Li882 O940 1.961 . S
Li882 O942 1.956 . S
Li882 O943 1.970 . S
Li883 N933 1.990 . S
Li883 O941 1.961 . S
Li883 O942 1.970 . S
Li883 O943 1.956 . S
C884 C886 1.348 . S
C884 C887 1.356 . S
C884 O940 1.325 . S
N885 C888 1.314 . S
N885 C889 1.279 . S
C886 C884 1.348 . S
C886 C888 1.353 . S
C886 H944 0.929 . S
C887 C884 1.356 . S
C887 C889 1.358 . S
C887 H945 0.930 . S
C888 N885 1.314 . S
C888 C886 1.353 . S
C888 H946 0.930 . S
C889 N885 1.279 . S
C889 C887 1.358 . S
C889 H947 0.930 . S
C890 C893 1.348 . S
C890 C894 1.356 . S
C890 O941 1.325 . S
C891 N892 1.279 . S
C891 C894 1.358 . S
C891 H948 0.930 . S
N892 C891 1.279 . S
N892 C895 1.314 . S
C893 C890 1.348 . S
C893 C895 1.353 . S
C893 H949 0.929 . S
C894 C890 1.356 . S
C894 C891 1.358 . S
C894 H950 0.930 . S
C895 N892 1.314 . S
C895 C893 1.353 . S
C895 H951 0.930 . S
C896 N897 1.314 . S
C896 C901 1.353 . S
C896 H902 0.930 . S
N897 Li880 1.990 . S
N897 C896 1.314 . S
N897 C899 1.279 . S
C898 C899 1.358 . S
C898 C900 1.356 . S
C898 H952 0.930 . S
C899 N897 1.279 . S
C899 C898 1.358 . S
C899 H903 0.930 . S
C900 C898 1.356 . S
C900 C901 1.348 . S
C901 C896 1.353 . S
C901 C900 1.348 . S
C901 H953 0.929 . S
H902 C896 0.930 . S
H903 C899 0.930 . S
C904 N905 1.314 . S
C904 C906 1.353 . S
C904 H910 0.930 . S
N905 Li881 1.990 . S
N905 C904 1.314 . S
N905 C908 1.279 . S
C906 C904 1.353 . S
C906 C909 1.348 . S
C906 H954 0.929 . S
C907 C908 1.358 . S
C907 C909 1.356 . S
C907 H955 0.930 . S
C908 N905 1.279 . S
C908 C907 1.358 . S
C908 H911 0.930 . S
C909 C906 1.348 . S
C909 C907 1.356 . S
H910 C904 0.930 . S
H911 C908 0.930 . S
C912 C914 1.348 . S
C912 C915 1.356 . S
C912 O942 1.325 . S
N913 C916 1.314 . S
N913 C917 1.279 . S
C914 C912 1.348 . S
C914 C916 1.353 . S
C914 H956 0.929 . S
C915 C912 1.356 . S
C915 C917 1.358 . S
C915 H957 0.930 . S
C916 N913 1.314 . S
C916 C914 1.353 . S
C916 H958 0.930 . S
C917 N913 1.279 . S
C917 C915 1.358 . S
C917 H959 0.930 . S
C918 C919 1.348 . S
C918 C920 1.356 . S
C918 O943 1.325 . S
C919 C918 1.348 . S
C919 C921 1.353 . S
C919 H960 0.929 . S
C920 C918 1.356 . S
C920 C922 1.358 . S
C920 H961 0.930 . S
C921 C919 1.353 . S
C921 N923 1.314 . S
C921 H962 0.930 . S
C922 C920 1.358 . S
C922 N923 1.279 . S
C922 H963 0.930 . S
N923 C921 1.314 . S
N923 C922 1.279 . S
C924 C926 1.353 . S
C924 N927 1.314 . S
C924 H930 0.930 . S
C925 N927 1.279 . S
C925 C928 1.358 . S
C925 H931 0.930 . S
C926 C924 1.353 . S
C926 C929 1.348 . S
C926 H964 0.929 . S
N927 Li882 1.990 . S
N927 C924 1.314 . S
N927 C925 1.279 . S
C928 C925 1.358 . S
C928 C929 1.356 . S
C928 H965 0.930 . S
C929 C926 1.348 . S
C929 C928 1.356 . S
H930 C924 0.930 . S
H931 C925 0.930 . S
C932 N933 1.314 . S
C932 C934 1.353 . S
C932 H938 0.930 . S
N933 Li883 1.990 . S
N933 C932 1.314 . S
N933 C936 1.279 . S
C934 C932 1.353 . S
C934 C937 1.348 . S
C934 H966 0.929 . S
C935 C936 1.358 . S
C935 C937 1.356 . S
C935 H967 0.930 . S
C936 N933 1.279 . S
C936 C935 1.358 . S
C936 H939 0.930 . S
C937 C934 1.348 . S
C937 C935 1.356 . S
H938 C932 0.930 . S
H939 C936 0.930 . S
O940 Li880 1.956 . S
O940 Li881 1.970 . S
O940 Li882 1.961 . S
O940 C884 1.325 . S
O941 Li880 1.970 . S
O941 Li881 1.956 . S
O941 Li883 1.961 . S
O941 C890 1.325 . S
O942 Li880 1.961 . S
O942 Li882 1.956 . S
O942 Li883 1.970 . S
O942 C912 1.325 . S
O943 Li881 1.961 . S
O943 Li882 1.970 . S
O943 Li883 1.956 . S
O943 C918 1.325 . S
H944 C886 0.929 . S
H945 C887 0.930 . S
H946 C888 0.930 . S
H947 C889 0.930 . S
H948 C891 0.930 . S
H949 C893 0.929 . S
H950 C894 0.930 . S
H951 C895 0.930 . S
H952 C898 0.930 . S
H953 C901 0.929 . S
H954 C906 0.929 . S
H955 C907 0.930 . S
H956 C914 0.929 . S
H957 C915 0.930 . S
H958 C916 0.930 . S
H959 C917 0.930 . S
H960 C919 0.929 . S
H961 C920 0.930 . S
H962 C921 0.930 . S
H963 C922 0.930 . S
H964 C926 0.929 . S
H965 C928 0.930 . S
H966 C934 0.929 . S
H967 C935 0.930 . S
Li968 N985 1.990 . S
Li968 O1028 1.956 . S
Li968 O1029 1.970 . S
Li968 O1030 1.961 . S
Li969 N993 1.990 . S
Li969 O1028 1.970 . S
Li969 O1029 1.956 . S
Li969 O1031 1.961 . S
Li970 N1015 1.990 . S
Li970 O1028 1.961 . S
Li970 O1030 1.956 . S
Li970 O1031 1.970 . S
Li971 N1021 1.990 . S
Li971 O1029 1.961 . S
Li971 O1030 1.970 . S
Li971 O1031 1.956 . S
C972 C974 1.348 . S
C972 C975 1.356 . S
C972 O1028 1.325 . S
N973 C976 1.314 . S
N973 C977 1.279 . S
C974 C972 1.348 . S
C974 C976 1.353 . S
C974 H1032 0.929 . S
C975 C972 1.356 . S
C975 C977 1.358 . S
C975 H1033 0.930 . S
C976 N973 1.314 . S
C976 C974 1.353 . S
C976 H1034 0.930 . S
C977 N973 1.279 . S
C977 C975 1.358 . S
C977 H1035 0.930 . S
C978 C981 1.348 . S
C978 C982 1.356 . S
C978 O1029 1.325 . S
C979 N980 1.279 . S
C979 C982 1.358 . S
C979 H1036 0.930 . S
N980 C979 1.279 . S
N980 C983 1.314 . S
C981 C978 1.348 . S
C981 C983 1.353 . S
C981 H1037 0.929 . S
C982 C978 1.356 . S
C982 C979 1.358 . S
C982 H1038 0.930 . S
C983 N980 1.314 . S
C983 C981 1.353 . S
C983 H1039 0.930 . S
C984 N985 1.314 . S
C984 C989 1.353 . S
C984 H990 0.930 . S
N985 Li968 1.990 . S
N985 C984 1.314 . S
N985 C987 1.279 . S
C986 C987 1.358 . S
C986 C988 1.356 . S
C986 H1040 0.930 . S
C987 N985 1.279 . S
C987 C986 1.358 . S
C987 H991 0.930 . S
C988 C986 1.356 . S
C988 C989 1.348 . S
C989 C984 1.353 . S
C989 C988 1.348 . S
C989 H1041 0.929 . S
H990 C984 0.930 . S
H991 C987 0.930 . S
C992 N993 1.314 . S
C992 C994 1.353 . S
C992 H998 0.930 . S
N993 Li969 1.990 . S
N993 C992 1.314 . S
N993 C996 1.279 . S
C994 C992 1.353 . S
C994 C997 1.348 . S
C994 H1042 0.929 . S
C995 C996 1.358 . S
C995 C997 1.356 . S
C995 H1043 0.930 . S
C996 N993 1.279 . S
C996 C995 1.358 . S
C996 H999 0.930 . S
C997 C994 1.348 . S
C997 C995 1.356 . S
H998 C992 0.930 . S
H999 C996 0.930 . S
C1000 C1002 1.348 . S
C1000 C1003 1.356 . S
C1000 O1030 1.325 . S
N1001 C1004 1.314 . S
N1001 C1005 1.279 . S
C1002 C1000 1.348 . S
C1002 C1004 1.353 . S
C1002 H1044 0.929 . S
C1003 C1000 1.356 . S
C1003 C1005 1.358 . S
C1003 H1045 0.930 . S
C1004 N1001 1.314 . S
C1004 C1002 1.353 . S
C1004 H1046 0.930 . S
C1005 N1001 1.279 . S
C1005 C1003 1.358 . S
C1005 H1047 0.930 . S
C1006 C1007 1.348 . S
C1006 C1008 1.356 . S
C1006 O1031 1.325 . S
C1007 C1006 1.348 . S
C1007 C1009 1.353 . S
C1007 H1048 0.929 . S
C1008 C1006 1.356 . S
C1008 C1010 1.358 . S
C1008 H1049 0.930 . S
C1009 C1007 1.353 . S
C1009 N1011 1.314 . S
C1009 H1050 0.930 . S
C1010 C1008 1.358 . S
C1010 N1011 1.279 . S
C1010 H1051 0.930 . S
N1011 C1009 1.314 . S
N1011 C1010 1.279 . S
C1012 C1014 1.353 . S
C1012 N1015 1.314 . S
C1012 H1018 0.930 . S
C1013 N1015 1.279 . S
C1013 C1016 1.358 . S
C1013 H1019 0.930 . S
C1014 C1012 1.353 . S
C1014 C1017 1.348 . S
C1014 H1052 0.929 . S
N1015 Li970 1.990 . S
N1015 C1012 1.314 . S
N1015 C1013 1.279 . S
C1016 C1013 1.358 . S
C1016 C1017 1.356 . S
C1016 H1053 0.930 . S
C1017 C1014 1.348 . S
C1017 C1016 1.356 . S
H1018 C1012 0.930 . S
H1019 C1013 0.930 . S
C1020 N1021 1.314 . S
C1020 C1022 1.353 . S
C1020 H1026 0.930 . S
N1021 Li971 1.990 . S
N1021 C1020 1.314 . S
N1021 C1024 1.279 . S
C1022 C1020 1.353 . S
C1022 C1025 1.348 . S
C1022 H1054 0.929 . S
C1023 C1024 1.358 . S
C1023 C1025 1.356 . S
C1023 H1055 0.930 . S
C1024 N1021 1.279 . S
C1024 C1023 1.358 . S
C1024 H1027 0.930 . S
C1025 C1022 1.348 . S
C1025 C1023 1.356 . S
H1026 C1020 0.930 . S
H1027 C1024 0.930 . S
O1028 Li968 1.956 . S
O1028 Li969 1.970 . S
O1028 Li970 1.961 . S
O1028 C972 1.325 . S
O1029 Li968 1.970 . S
O1029 Li969 1.956 . S
O1029 Li971 1.961 . S
O1029 C978 1.325 . S
O1030 Li968 1.961 . S
O1030 Li970 1.956 . S
O1030 Li971 1.970 . S
O1030 C1000 1.325 . S
O1031 Li969 1.961 . S
O1031 Li970 1.970 . S
O1031 Li971 1.956 . S
O1031 C1006 1.325 . S
H1032 C974 0.929 . S
H1033 C975 0.930 . S
H1034 C976 0.930 . S
H1035 C977 0.930 . S
H1036 C979 0.930 . S
H1037 C981 0.929 . S
H1038 C982 0.930 . S
H1039 C983 0.930 . S
H1040 C986 0.930 . S
H1041 C989 0.929 . S
H1042 C994 0.929 . S
H1043 C995 0.930 . S
H1044 C1002 0.929 . S
H1045 C1003 0.930 . S
H1046 C1004 0.930 . S
H1047 C1005 0.930 . S
H1048 C1007 0.929 . S
H1049 C1008 0.930 . S
H1050 C1009 0.930 . S
H1051 C1010 0.930 . S
H1052 C1014 0.929 . S
H1053 C1016 0.930 . S
H1054 C1022 0.929 . S
H1055 C1023 0.930 . S
Li1056 N1073 1.990 . S
Li1056 O1116 1.956 1_655 S
Li1056 O1117 1.970 . S
Li1056 O1118 1.961 1_655 S
Li1057 N1081 1.990 . S
Li1057 O1116 1.970 . S
Li1057 O1117 1.956 1_455 S
Li1057 O1119 1.961 . S
Li1058 N1103 1.990 . S
Li1058 O1116 1.961 . S
Li1058 O1118 1.956 . S
Li1058 O1119 1.970 . S
Li1059 N1109 1.990 . S
Li1059 O1117 1.961 1_455 S
Li1059 O1118 1.970 . S
Li1059 O1119 1.956 . S
C1060 C1062 1.350 . S
C1060 C1063 1.356 . S
C1060 O1116 1.325 . S
N1061 C1064 1.315 . S
N1061 C1065 1.279 . S
C1062 C1060 1.350 . S
C1062 C1064 1.353 . S
C1062 H1120 0.927 1_455 S
C1063 C1060 1.356 . S
C1063 C1065 1.358 . S
C1063 H1121 0.930 . S
C1064 N1061 1.315 . S
C1064 C1062 1.353 . S
C1064 H1122 0.928 1_455 S
C1065 N1061 1.279 . S
C1065 C1063 1.358 . S
C1065 H1123 0.930 . S
C1066 C1069 1.348 . S
C1066 C1070 1.356 . S
C1066 O1117 1.325 . S
C1067 N1068 1.279 . S
C1067 C1070 1.358 . S
C1067 H1124 0.930 . S
N1068 C1067 1.279 . S
N1068 C1071 1.314 . S
C1069 C1066 1.348 . S
C1069 C1071 1.353 . S
C1069 H1125 0.929 . S
C1070 C1066 1.356 . S
C1070 C1067 1.358 . S
C1070 H1126 0.930 . S
C1071 N1068 1.314 . S
C1071 C1069 1.353 . S
C1071 H1127 0.930 . S
C1072 N1073 1.314 . S
C1072 C1077 1.353 . S
C1072 H1078 0.930 . S
N1073 Li1056 1.990 . S
N1073 C1072 1.314 . S
N1073 C1075 1.279 . S
C1074 C1075 1.358 . S
C1074 C1076 1.356 . S
C1074 H1128 0.930 . S
C1075 N1073 1.279 . S
C1075 C1074 1.358 . S
C1075 H1079 0.930 . S
C1076 C1074 1.356 . S
C1076 C1077 1.348 . S
C1077 C1072 1.353 . S
C1077 C1076 1.348 . S
C1077 H1129 0.929 . S
H1078 C1072 0.930 . S
H1079 C1075 0.930 . S
C1080 N1081 1.314 . S
C1080 C1082 1.353 . S
C1080 H1086 0.930 . S
N1081 Li1057 1.990 . S
N1081 C1080 1.314 . S
N1081 C1084 1.279 1_455 S
C1082 C1080 1.353 . S
C1082 C1085 1.348 . S
C1082 H1130 0.929 . S
C1083 C1084 1.358 . S
C1083 C1085 1.356 1_655 S
C1083 H1131 0.930 . S
C1084 N1081 1.279 1_655 S
C1084 C1083 1.358 . S
C1084 H1087 0.930 . S
C1085 C1082 1.348 . S
C1085 C1083 1.356 1_455 S
H1086 C1080 0.930 . S
H1087 C1084 0.930 . S
C1088 C1090 1.348 . S
C1088 C1091 1.356 . S
C1088 O1118 1.325 . S
N1089 C1092 1.314 . S
N1089 C1093 1.279 . S
C1090 C1088 1.348 . S
C1090 C1092 1.353 . S
C1090 H1132 0.929 . S
C1091 C1088 1.356 . S
C1091 C1093 1.358 . S
C1091 H1133 0.925 1_455 S
C1092 N1089 1.314 . S
C1092 C1090 1.353 . S
C1092 H1134 0.930 . S
C1093 N1089 1.279 . S
C1093 C1091 1.358 . S
C1093 H1135 0.927 1_455 S
C1094 C1095 1.348 . S
C1094 C1096 1.356 . S
C1094 O1119 1.325 . S
C1095 C1094 1.348 . S
C1095 C1097 1.353 . S
C1095 H1136 0.929 . S
C1096 C1094 1.356 . S
C1096 C1098 1.358 . S
C1096 H1137 0.930 . S
C1097 C1095 1.353 . S
C1097 N1099 1.314 . S
C1097 H1138 0.930 . S
C1098 C1096 1.358 . S
C1098 N1099 1.279 . S
C1098 H1139 0.930 . S
N1099 C1097 1.314 . S
N1099 C1098 1.279 . S
C1100 C1102 1.353 . S
C1100 N1103 1.314 . S
C1100 H1106 0.930 . S
C1101 N1103 1.279 . S
C1101 C1104 1.358 . S
C1101 H1107 0.930 . S
C1102 C1100 1.353 . S
C1102 C1105 1.348 . S
C1102 H1140 0.929 . S
N1103 Li1058 1.990 . S
N1103 C1100 1.314 . S
N1103 C1101 1.279 . S
C1104 C1101 1.358 . S
C1104 C1105 1.356 . S
C1104 H1141 0.930 . S
C1105 C1102 1.348 . S
C1105 C1104 1.356 . S
H1106 C1100 0.930 . S
H1107 C1101 0.930 . S
C1108 N1109 1.314 1_655 S
C1108 C1110 1.353 . S
C1108 H1114 0.930 . S
N1109 Li1059 1.990 . S
N1109 C1108 1.314 1_455 S
N1109 C1112 1.279 . S
C1110 C1108 1.353 . S
C1110 C1113 1.348 1_655 S
C1110 H1142 0.929 . S
C1111 C1112 1.358 . S
C1111 C1113 1.356 . S
C1111 H1143 0.930 . S
C1112 N1109 1.279 . S
C1112 C1111 1.358 . S
C1112 H1115 0.930 . S
C1113 C1110 1.348 1_455 S
C1113 C1111 1.356 . S
H1114 C1108 0.930 . S
H1115 C1112 0.930 . S
O1116 Li1056 1.956 1_455 S
O1116 Li1057 1.970 . S
O1116 Li1058 1.961 . S
O1116 C1060 1.325 . S
O1117 Li1056 1.970 . S
O1117 Li1057 1.956 1_655 S
O1117 Li1059 1.961 1_655 S
O1117 C1066 1.325 . S
O1118 Li1056 1.961 1_455 S
O1118 Li1058 1.956 . S
O1118 Li1059 1.970 . S
O1118 C1088 1.325 . S
O1119 Li1057 1.961 . S
O1119 Li1058 1.970 . S
O1119 Li1059 1.956 . S
O1119 C1094 1.325 . S
H1120 C1062 0.927 1_655 S
H1121 C1063 0.930 . S
H1122 C1064 0.928 1_655 S
H1123 C1065 0.930 . S
H1124 C1067 0.930 . S
H1125 C1069 0.929 . S
H1126 C1070 0.930 . S
H1127 C1071 0.930 . S
H1128 C1074 0.930 . S
H1129 C1077 0.929 . S
H1130 C1082 0.929 . S
H1131 C1083 0.930 . S
H1132 C1090 0.929 . S
H1133 C1091 0.925 1_655 S
H1134 C1092 0.930 . S
H1135 C1093 0.927 1_655 S
H1136 C1095 0.929 . S
H1137 C1096 0.930 . S
H1138 C1097 0.930 . S
H1139 C1098 0.930 . S
H1140 C1102 0.929 . S
H1141 C1104 0.930 . S
H1142 C1110 0.929 . S
H1143 C1111 0.930 . S
Li1144 N1161 1.990 . S
Li1144 O1204 1.956 . S
Li1144 O1205 1.970 . S
Li1144 O1206 1.961 1_455 S
Li1145 N1169 1.990 . S
Li1145 O1204 1.970 . S
Li1145 O1205 1.956 . S
Li1145 O1207 1.961 . S
Li1146 N1191 1.990 . S
Li1146 O1204 1.961 . S
Li1146 O1206 1.956 1_455 S
Li1146 O1207 1.970 . S
Li1147 N1197 1.990 . S
Li1147 O1205 1.961 1_655 S
Li1147 O1206 1.970 . S
Li1147 O1207 1.956 1_655 S
C1148 C1150 1.348 . S
C1148 C1151 1.356 . S
C1148 O1204 1.325 . S
N1149 C1152 1.314 . S
N1149 C1153 1.279 . S
C1150 C1148 1.348 . S
C1150 C1152 1.353 . S
C1150 H1208 0.929 . S
C1151 C1148 1.356 . S
C1151 C1153 1.358 . S
C1151 H1209 0.930 . S
C1152 N1149 1.314 . S
C1152 C1150 1.353 . S
C1152 H1210 0.930 . S
C1153 N1149 1.279 . S
C1153 C1151 1.358 . S
C1153 H1211 0.930 . S
C1154 C1157 1.348 . S
C1154 C1158 1.364 . S
C1154 O1205 1.325 . S
C1155 N1156 1.279 . S
C1155 C1158 1.360 . S
C1155 H1212 0.930 1_455 S
N1156 C1155 1.279 . S
N1156 C1159 1.314 . S
C1157 C1154 1.348 . S
C1157 C1159 1.353 . S
C1157 H1213 0.929 . S
C1158 C1154 1.364 . S
C1158 C1155 1.360 . S
C1158 H1214 0.922 1_455 S
C1159 N1156 1.314 . S
C1159 C1157 1.353 . S
C1159 H1215 0.930 . S
C1160 N1161 1.314 1_655 S
C1160 C1165 1.353 . S
C1160 H1166 0.930 . S
N1161 Li1144 1.990 . S
N1161 C1160 1.314 1_455 S
N1161 C1163 1.279 . S
C1162 C1163 1.358 . S
C1162 C1164 1.356 . S
C1162 H1216 0.930 . S
C1163 N1161 1.279 . S
C1163 C1162 1.358 . S
C1163 H1167 0.930 . S
C1164 C1162 1.356 . S
C1164 C1165 1.348 1_455 S
C1165 C1160 1.353 . S
C1165 C1164 1.348 1_655 S
C1165 H1217 0.929 . S
H1166 C1160 0.930 . S
H1167 C1163 0.930 . S
C1168 N1169 1.314 . S
C1168 C1170 1.353 . S
C1168 H1174 0.930 . S
N1169 Li1145 1.990 . S
N1169 C1168 1.314 . S
N1169 C1172 1.279 . S
C1170 C1168 1.353 . S
C1170 C1173 1.348 . S
C1170 H1218 0.929 . S
C1171 C1172 1.358 . S
C1171 C1173 1.356 . S
C1171 H1219 0.930 . S
C1172 N1169 1.279 . S
C1172 C1171 1.358 . S
C1172 H1175 0.930 . S
C1173 C1170 1.348 . S
C1173 C1171 1.356 . S
H1174 C1168 0.930 . S
H1175 C1172 0.930 . S
C1176 C1178 1.348 . S
C1176 C1179 1.356 . S
C1176 O1206 1.325 . S
N1177 C1180 1.314 . S
N1177 C1181 1.279 . S
C1178 C1176 1.348 . S
C1178 C1180 1.353 . S
C1178 H1220 0.929 . S
C1179 C1176 1.356 . S
C1179 C1181 1.358 . S
C1179 H1221 0.930 . S
C1180 N1177 1.314 . S
C1180 C1178 1.353 . S
C1180 H1222 0.930 . S
C1181 N1177 1.279 . S
C1181 C1179 1.358 . S
C1181 H1223 0.930 . S
C1182 C1183 1.348 1_455 S
C1182 C1184 1.356 . S
C1182 O1207 1.325 . S
C1183 C1182 1.348 1_655 S
C1183 C1185 1.353 . S
C1183 H1224 0.929 . S
C1184 C1182 1.356 . S
C1184 C1186 1.358 . S
C1184 H1225 0.930 . S
C1185 C1183 1.353 . S
C1185 N1187 1.314 1_655 S
C1185 H1226 0.930 . S
C1186 C1184 1.358 . S
C1186 N1187 1.279 . S
C1186 H1227 0.930 . S
N1187 C1185 1.314 1_455 S
N1187 C1186 1.279 . S
C1188 C1190 1.353 . S
C1188 N1191 1.314 . S
C1188 H1194 0.930 . S
C1189 N1191 1.279 1_655 S
C1189 C1192 1.358 . S
C1189 H1195 0.930 . S
C1190 C1188 1.353 . S
C1190 C1193 1.348 . S
C1190 H1228 0.929 . S
N1191 Li1146 1.990 . S
N1191 C1188 1.314 . S
N1191 C1189 1.279 1_455 S
C1192 C1189 1.358 . S
C1192 C1193 1.356 1_655 S
C1192 H1229 0.930 . S
C1193 C1190 1.348 . S
C1193 C1192 1.356 1_455 S
H1194 C1188 0.930 . S
H1195 C1189 0.930 . S
C1196 N1197 1.314 . S
C1196 C1198 1.353 . S
C1196 H1202 0.930 . S
N1197 Li1147 1.990 . S
N1197 C1196 1.314 . S
N1197 C1200 1.279 . S
C1198 C1196 1.353 . S
C1198 C1201 1.348 . S
C1198 H1230 0.929 . S
C1199 C1200 1.358 . S
C1199 C1201 1.356 . S
C1199 H1231 0.930 . S
C1200 N1197 1.279 . S
C1200 C1199 1.358 . S
C1200 H1203 0.930 . S
C1201 C1198 1.348 . S
C1201 C1199 1.356 . S
H1202 C1196 0.930 . S
H1203 C1200 0.930 . S
O1204 Li1144 1.956 . S
O1204 Li1145 1.970 . S
O1204 Li1146 1.961 . S
O1204 C1148 1.325 . S
O1205 Li1144 1.970 . S
O1205 Li1145 1.956 . S
O1205 Li1147 1.961 1_455 S
O1205 C1154 1.325 . S
O1206 Li1144 1.961 1_655 S
O1206 Li1146 1.956 1_655 S
O1206 Li1147 1.970 . S
O1206 C1176 1.325 . S
O1207 Li1145 1.961 . S
O1207 Li1146 1.970 . S
O1207 Li1147 1.956 1_455 S
O1207 C1182 1.325 . S
H1208 C1150 0.929 . S
H1209 C1151 0.930 . S
H1210 C1152 0.930 . S
H1211 C1153 0.930 . S
H1212 C1155 0.930 1_655 S
H1213 C1157 0.929 . S
H1214 C1158 0.922 1_655 S
H1215 C1159 0.930 . S
H1216 C1162 0.930 . S
H1217 C1165 0.929 . S
H1218 C1170 0.929 . S
H1219 C1171 0.930 . S
H1220 C1178 0.929 . S
H1221 C1179 0.930 . S
H1222 C1180 0.930 . S
H1223 C1181 0.930 . S
H1224 C1183 0.929 . S
H1225 C1184 0.930 . S
H1226 C1185 0.930 . S
H1227 C1186 0.930 . S
H1228 C1190 0.929 . S
H1229 C1192 0.930 . S
H1230 C1198 0.929 . S
H1231 C1199 0.930 . S
Li1232 N1249 1.990 . S
Li1232 O1292 1.956 . S
Li1232 O1293 1.970 . S
Li1232 O1294 1.961 . S
Li1233 N1257 1.990 . S
Li1233 O1292 1.970 . S
Li1233 O1293 1.956 . S
Li1233 O1295 1.961 . S
Li1234 N1279 1.990 . S
Li1234 O1292 1.961 . S
Li1234 O1294 1.956 . S
Li1234 O1295 1.970 . S
Li1235 N1285 1.990 . S
Li1235 O1293 1.961 . S
Li1235 O1294 1.970 . S
Li1235 O1295 1.956 . S
C1236 C1238 1.348 . S
C1236 C1239 1.356 . S
C1236 O1292 1.325 . S
N1237 C1240 1.314 . S
N1237 C1241 1.279 . S
C1238 C1236 1.348 . S
C1238 C1240 1.353 . S
C1238 H1296 0.929 . S
C1239 C1236 1.356 . S
C1239 C1241 1.358 . S
C1239 H1297 0.930 . S
C1240 N1237 1.314 . S
C1240 C1238 1.353 . S
C1240 H1298 0.930 . S
C1241 N1237 1.279 . S
C1241 C1239 1.358 . S
C1241 H1299 0.930 . S
C1242 C1245 1.348 . S
C1242 C1246 1.356 . S
C1242 O1293 1.325 . S
C1243 N1244 1.279 . S
C1243 C1246 1.358 . S
C1243 H1300 0.930 . S
N1244 C1243 1.279 . S
N1244 C1247 1.314 . S
C1245 C1242 1.348 . S
C1245 C1247 1.353 . S
C1245 H1301 0.929 . S
C1246 C1242 1.356 . S
C1246 C1243 1.358 . S
C1246 H1302 0.930 . S
C1247 N1244 1.314 . S
C1247 C1245 1.353 . S
C1247 H1303 0.930 . S
C1248 N1249 1.314 . S
C1248 C1253 1.353 . S
C1248 H1254 0.930 . S
N1249 Li1232 1.990 . S
N1249 C1248 1.314 . S
N1249 C1251 1.279 . S
C1250 C1251 1.358 . S
C1250 C1252 1.356 . S
C1250 H1304 0.930 . S
C1251 N1249 1.279 . S
C1251 C1250 1.358 . S
C1251 H1255 0.930 . S
C1252 C1250 1.356 . S
C1252 C1253 1.348 . S
C1253 C1248 1.353 . S
C1253 C1252 1.348 . S
C1253 H1305 0.929 . S
H1254 C1248 0.930 . S
H1255 C1251 0.930 . S
C1256 N1257 1.314 . S
C1256 C1258 1.353 . S
C1256 H1262 0.930 . S
N1257 Li1233 1.990 . S
N1257 C1256 1.314 . S
N1257 C1260 1.279 . S
C1258 C1256 1.353 . S
C1258 C1261 1.348 . S
C1258 H1306 0.929 . S
C1259 C1260 1.358 . S
C1259 C1261 1.356 . S
C1259 H1307 0.930 . S
C1260 N1257 1.279 . S
C1260 C1259 1.358 . S
C1260 H1263 0.930 . S
C1261 C1258 1.348 . S
C1261 C1259 1.356 . S
H1262 C1256 0.930 . S
H1263 C1260 0.930 . S
C1264 C1266 1.348 . S
C1264 C1267 1.356 . S
C1264 O1294 1.325 . S
N1265 C1268 1.314 . S
N1265 C1269 1.279 . S
C1266 C1264 1.348 . S
C1266 C1268 1.353 . S
C1266 H1308 0.929 . S
C1267 C1264 1.356 . S
C1267 C1269 1.358 . S
C1267 H1309 0.930 . S
C1268 N1265 1.314 . S
C1268 C1266 1.353 . S
C1268 H1310 0.930 . S
C1269 N1265 1.279 . S
C1269 C1267 1.358 . S
C1269 H1311 0.930 . S
C1270 C1271 1.348 . S
C1270 C1272 1.356 . S
C1270 O1295 1.325 . S
C1271 C1270 1.348 . S
C1271 C1273 1.353 . S
C1271 H1312 0.929 . S
C1272 C1270 1.356 . S
C1272 C1274 1.358 . S
C1272 H1313 0.930 . S
C1273 C1271 1.353 . S
C1273 N1275 1.314 . S
C1273 H1314 0.930 . S
C1274 C1272 1.358 . S
C1274 N1275 1.279 . S
C1274 H1315 0.930 . S
N1275 C1273 1.314 . S
N1275 C1274 1.279 . S
C1276 C1278 1.353 . S
C1276 N1279 1.314 . S
C1276 H1282 0.930 . S
C1277 N1279 1.279 . S
C1277 C1280 1.358 . S
C1277 H1283 0.930 . S
C1278 C1276 1.353 . S
C1278 C1281 1.348 . S
C1278 H1316 0.929 . S
N1279 Li1234 1.990 . S
N1279 C1276 1.314 . S
N1279 C1277 1.279 . S
C1280 C1277 1.358 . S
C1280 C1281 1.356 . S
C1280 H1317 0.930 . S
C1281 C1278 1.348 . S
C1281 C1280 1.356 . S
H1282 C1276 0.930 . S
H1283 C1277 0.930 . S
C1284 N1285 1.314 . S
C1284 C1286 1.353 . S
C1284 H1290 0.930 . S
N1285 Li1235 1.990 . S
N1285 C1284 1.314 . S
N1285 C1288 1.279 . S
C1286 C1284 1.353 . S
C1286 C1289 1.348 . S
C1286 H1318 0.929 . S
C1287 C1288 1.358 . S
C1287 C1289 1.356 . S
C1287 H1319 0.930 . S
C1288 N1285 1.279 . S
C1288 C1287 1.358 . S
C1288 H1291 0.930 . S
C1289 C1286 1.348 . S
C1289 C1287 1.356 . S
H1290 C1284 0.930 . S
H1291 C1288 0.930 . S
O1292 Li1232 1.956 . S
O1292 Li1233 1.970 . S
O1292 Li1234 1.961 . S
O1292 C1236 1.325 . S
O1293 Li1232 1.970 . S
O1293 Li1233 1.956 . S
O1293 Li1235 1.961 . S
O1293 C1242 1.325 . S
O1294 Li1232 1.961 . S
O1294 Li1234 1.956 . S
O1294 Li1235 1.970 . S
O1294 C1264 1.325 . S
O1295 Li1233 1.961 . S
O1295 Li1234 1.970 . S
O1295 Li1235 1.956 . S
O1295 C1270 1.325 . S
H1296 C1238 0.929 . S
H1297 C1239 0.930 . S
H1298 C1240 0.930 . S
H1299 C1241 0.930 . S
H1300 C1243 0.930 . S
H1301 C1245 0.929 . S
H1302 C1246 0.930 . S
H1303 C1247 0.930 . S
H1304 C1250 0.930 . S
H1305 C1253 0.929 . S
H1306 C1258 0.929 . S
H1307 C1259 0.930 . S
H1308 C1266 0.929 . S
H1309 C1267 0.930 . S
H1310 C1268 0.930 . S
H1311 C1269 0.930 . S
H1312 C1271 0.929 . S
H1313 C1272 0.930 . S
H1314 C1273 0.930 . S
H1315 C1274 0.930 . S
H1316 C1278 0.929 . S
H1317 C1280 0.930 . S
H1318 C1286 0.929 . S
H1319 C1287 0.930 . S
Li1320 N1337 1.990 . S
Li1320 O1380 1.956 . S
Li1320 O1381 1.970 . S
Li1320 O1382 1.961 . S
Li1321 N1345 1.990 . S
Li1321 O1380 1.970 . S
Li1321 O1381 1.956 . S
Li1321 O1383 1.961 . S
Li1322 N1367 1.990 . S
Li1322 O1380 1.961 . S
Li1322 O1382 1.956 . S
Li1322 O1383 1.970 . S
Li1323 N1373 1.990 . S
Li1323 O1381 1.961 . S
Li1323 O1382 1.970 . S
Li1323 O1383 1.956 . S
C1324 C1326 1.348 . S
C1324 C1327 1.356 . S
C1324 O1380 1.325 . S
N1325 C1328 1.314 . S
N1325 C1329 1.279 . S
C1326 C1324 1.348 . S
C1326 C1328 1.353 . S
C1326 H1384 0.929 . S
C1327 C1324 1.356 . S
C1327 C1329 1.358 . S
C1327 H1385 0.930 . S
C1328 N1325 1.314 . S
C1328 C1326 1.353 . S
C1328 H1386 0.930 . S
C1329 N1325 1.279 . S
C1329 C1327 1.358 . S
C1329 H1387 0.930 . S
C1330 C1333 1.348 . S
C1330 C1334 1.356 . S
C1330 O1381 1.325 . S
C1331 N1332 1.279 . S
C1331 C1334 1.358 . S
C1331 H1388 0.930 . S
N1332 C1331 1.279 . S
N1332 C1335 1.314 . S
C1333 C1330 1.348 . S
C1333 C1335 1.353 . S
C1333 H1389 0.929 . S
C1334 C1330 1.356 . S
C1334 C1331 1.358 . S
C1334 H1390 0.930 . S
C1335 N1332 1.314 . S
C1335 C1333 1.353 . S
C1335 H1391 0.930 . S
C1336 N1337 1.314 . S
C1336 C1341 1.353 . S
C1336 H1342 0.930 . S
N1337 Li1320 1.990 . S
N1337 C1336 1.314 . S
N1337 C1339 1.279 . S
C1338 C1339 1.358 . S
C1338 C1340 1.356 . S
C1338 H1392 0.930 . S
C1339 N1337 1.279 . S
C1339 C1338 1.358 . S
C1339 H1343 0.930 . S
C1340 C1338 1.356 . S
C1340 C1341 1.348 . S
C1341 C1336 1.353 . S
C1341 C1340 1.348 . S
C1341 H1393 0.929 . S
H1342 C1336 0.930 . S
H1343 C1339 0.930 . S
C1344 N1345 1.314 . S
C1344 C1346 1.353 . S
C1344 H1350 0.930 . S
N1345 Li1321 1.990 . S
N1345 C1344 1.314 . S
N1345 C1348 1.279 . S
C1346 C1344 1.353 . S
C1346 C1349 1.348 . S
C1346 H1394 0.929 . S
C1347 C1348 1.358 . S
C1347 C1349 1.356 . S
C1347 H1395 0.930 . S
C1348 N1345 1.279 . S
C1348 C1347 1.358 . S
C1348 H1351 0.930 . S
C1349 C1346 1.348 . S
C1349 C1347 1.356 . S
H1350 C1344 0.930 . S
H1351 C1348 0.930 . S
C1352 C1354 1.348 . S
C1352 C1355 1.356 . S
C1352 O1382 1.325 . S
N1353 C1356 1.314 . S
N1353 C1357 1.279 . S
C1354 C1352 1.348 . S
C1354 C1356 1.353 . S
C1354 H1396 0.929 . S
C1355 C1352 1.356 . S
C1355 C1357 1.358 . S
C1355 H1397 0.930 . S
C1356 N1353 1.314 . S
C1356 C1354 1.353 . S
C1356 H1398 0.930 . S
C1357 N1353 1.279 . S
C1357 C1355 1.358 . S
C1357 H1399 0.930 . S
C1358 C1359 1.348 . S
C1358 C1360 1.356 . S
C1358 O1383 1.325 . S
C1359 C1358 1.348 . S
C1359 C1361 1.353 . S
C1359 H1400 0.929 . S
C1360 C1358 1.356 . S
C1360 C1362 1.358 . S
C1360 H1401 0.930 . S
C1361 C1359 1.353 . S
C1361 N1363 1.314 . S
C1361 H1402 0.930 . S
C1362 C1360 1.358 . S
C1362 N1363 1.279 . S
C1362 H1403 0.930 . S
N1363 C1361 1.314 . S
N1363 C1362 1.279 . S
C1364 C1366 1.353 . S
C1364 N1367 1.314 . S
C1364 H1370 0.930 . S
C1365 N1367 1.279 . S
C1365 C1368 1.358 . S
C1365 H1371 0.930 . S
C1366 C1364 1.353 . S
C1366 C1369 1.348 . S
C1366 H1404 0.929 . S
N1367 Li1322 1.990 . S
N1367 C1364 1.314 . S
N1367 C1365 1.279 . S
C1368 C1365 1.358 . S
C1368 C1369 1.356 . S
C1368 H1405 0.930 . S
C1369 C1366 1.348 . S
C1369 C1368 1.356 . S
H1370 C1364 0.930 . S
H1371 C1365 0.930 . S
C1372 N1373 1.314 . S
C1372 C1374 1.353 . S
C1372 H1378 0.930 . S
N1373 Li1323 1.990 . S
N1373 C1372 1.314 . S
N1373 C1376 1.279 . S
C1374 C1372 1.353 . S
C1374 C1377 1.348 . S
C1374 H1406 0.929 . S
C1375 C1376 1.358 . S
C1375 C1377 1.356 . S
C1375 H1407 0.930 . S
C1376 N1373 1.279 . S
C1376 C1375 1.358 . S
C1376 H1379 0.930 . S
C1377 C1374 1.348 . S
C1377 C1375 1.356 . S
H1378 C1372 0.930 . S
H1379 C1376 0.930 . S
O1380 Li1320 1.956 . S
O1380 Li1321 1.970 . S
O1380 Li1322 1.961 . S
O1380 C1324 1.325 . S
O1381 Li1320 1.970 . S
O1381 Li1321 1.956 . S
O1381 Li1323 1.961 . S
O1381 C1330 1.325 . S
O1382 Li1320 1.961 . S
O1382 Li1322 1.956 . S
O1382 Li1323 1.970 . S
O1382 C1352 1.325 . S
O1383 Li1321 1.961 . S
O1383 Li1322 1.970 . S
O1383 Li1323 1.956 . S
O1383 C1358 1.325 . S
H1384 C1326 0.929 . S
H1385 C1327 0.930 . S
H1386 C1328 0.930 . S
H1387 C1329 0.930 . S
H1388 C1331 0.930 . S
H1389 C1333 0.929 . S
H1390 C1334 0.930 . S
H1391 C1335 0.930 . S
H1392 C1338 0.930 . S
H1393 C1341 0.929 . S
H1394 C1346 0.929 . S
H1395 C1347 0.930 . S
H1396 C1354 0.929 . S
H1397 C1355 0.930 . S
H1398 C1356 0.930 . S
H1399 C1357 0.930 . S
H1400 C1359 0.929 . S
H1401 C1360 0.930 . S
H1402 C1361 0.930 . S
H1403 C1362 0.930 . S
H1404 C1366 0.929 . S
H1405 C1368 0.930 . S
H1406 C1374 0.929 . S
H1407 C1375 0.930 . S
Li1408 N1425 1.990 . S
Li1408 O1468 1.919 1_545 S
Li1408 O1469 1.973 . S
Li1408 O1470 2.001 . S
Li1409 N1433 1.990 . S
Li1409 O1468 1.970 . S
Li1409 O1469 1.956 1_565 S
Li1409 O1471 1.934 1_565 S
Li1410 N1455 1.990 . S
Li1410 O1468 1.961 1_545 S
Li1410 O1470 1.956 . S
Li1410 O1471 1.972 . S
Li1411 N1461 1.990 . S
Li1411 O1469 1.961 . S
Li1411 O1470 1.970 . S
Li1411 O1471 1.985 . S
C1412 C1414 1.348 . S
C1412 C1415 1.356 . S
C1412 O1468 1.325 . S
N1413 C1416 1.314 . S
N1413 C1417 1.279 . S
C1414 C1412 1.348 . S
C1414 C1416 1.353 . S
C1414 H1472 0.929 . S
C1415 C1412 1.356 . S
C1415 C1417 1.358 . S
C1415 H1473 0.930 . S
C1416 N1413 1.314 . S
C1416 C1414 1.353 . S
C1416 H1474 0.930 . S
C1417 N1413 1.279 . S
C1417 C1415 1.358 . S
C1417 H1475 0.930 . S
C1418 C1421 1.348 1_545 S
C1418 C1422 1.356 . S
C1418 O1469 1.325 . S
C1419 N1420 1.280 . S
C1419 C1422 1.358 . S
C1419 H1476 0.930 . S
N1420 C1419 1.280 . S
N1420 C1423 1.313 1_545 S
C1421 C1418 1.348 1_565 S
C1421 C1423 1.353 . S
C1421 H1477 0.929 . S
C1422 C1418 1.356 . S
C1422 C1419 1.358 . S
C1422 H1478 0.930 . S
C1423 N1420 1.313 1_565 S
C1423 C1421 1.353 . S
C1423 H1479 0.930 . S
C1424 N1425 1.343 . S
C1424 C1429 1.353 . S
C1424 H1430 0.930 . S
N1425 Li1408 1.990 . S
N1425 C1424 1.343 . S
N1425 C1427 1.252 1_545 S
C1426 C1427 1.358 . S
C1426 C1428 1.356 1_565 S
C1426 H1480 0.930 . S
C1427 N1425 1.252 1_565 S
C1427 C1426 1.358 . S
C1427 H1431 0.930 . S
C1428 C1426 1.356 1_545 S
C1428 C1429 1.348 . S
C1429 C1424 1.353 . S
C1429 C1428 1.348 . S
C1429 H1481 0.929 . S
H1430 C1424 0.930 . S
H1431 C1427 0.930 . S
C1432 N1433 1.314 . S
C1432 C1434 1.353 . S
C1432 H1438 0.930 . S
N1433 Li1409 1.990 . S
N1433 C1432 1.314 . S
N1433 C1436 1.279 . S
C1434 C1432 1.353 . S
C1434 C1437 1.348 . S
C1434 H1482 0.929 . S
C1435 C1436 1.358 . S
C1435 C1437 1.356 . S
C1435 H1483 0.930 . S
C1436 N1433 1.279 . S
C1436 C1435 1.358 . S
C1436 H1439 0.930 . S
C1437 C1434 1.348 . S
C1437 C1435 1.356 . S
H1438 C1432 0.930 . S
H1439 C1436 0.930 . S
C1440 C1442 1.348 . S
C1440 C1443 1.356 . S
C1440 O1470 1.325 . S
N1441 C1444 1.314 . S
N1441 C1445 1.279 . S
C1442 C1440 1.348 . S
C1442 C1444 1.353 . S
C1442 H1484 0.929 . S
C1443 C1440 1.356 . S
C1443 C1445 1.358 . S
C1443 H1485 0.930 . S
C1444 N1441 1.314 . S
C1444 C1442 1.353 . S
C1444 H1486 0.930 . S
C1445 N1441 1.279 . S
C1445 C1443 1.358 . S
C1445 H1487 0.930 . S
C1446 C1447 1.348 . S
C1446 C1448 1.356 1_545 S
C1446 O1471 1.327 . S
C1447 C1446 1.348 . S
C1447 C1449 1.353 . S
C1447 H1488 0.929 . S
C1448 C1446 1.356 1_565 S
C1448 C1450 1.358 . S
C1448 H1489 0.930 . S
C1449 C1447 1.353 . S
C1449 N1451 1.314 . S
C1449 H1490 0.930 . S
C1450 C1448 1.358 . S
C1450 N1451 1.279 1_565 S
C1450 H1491 0.930 . S
N1451 C1449 1.314 . S
N1451 C1450 1.279 1_545 S
C1452 C1454 1.353 . S
C1452 N1455 1.314 1_565 S
C1452 H1458 0.930 . S
C1453 N1455 1.279 . S
C1453 C1456 1.358 . S
C1453 H1459 0.930 . S
C1454 C1452 1.353 . S
C1454 C1457 1.348 1_565 S
C1454 H1492 0.929 . S
N1455 Li1410 1.990 . S
N1455 C1452 1.314 1_545 S
N1455 C1453 1.279 . S
C1456 C1453 1.358 . S
C1456 C1457 1.356 . S
C1456 H1493 0.930 . S
C1457 C1454 1.348 1_545 S
C1457 C1456 1.356 . S
H1458 C1452 0.930 . S
H1459 C1453 0.930 . S
C1460 N1461 1.314 . S
C1460 C1462 1.353 . S
C1460 H1466 0.930 . S
N1461 Li1411 1.990 . S
N1461 C1460 1.314 . S
N1461 C1464 1.279 . S
C1462 C1460 1.353 . S
C1462 C1465 1.348 . S
C1462 H1494 0.929 . S
C1463 C1464 1.358 . S
C1463 C1465 1.356 . S
C1463 H1495 0.930 . S
C1464 N1461 1.279 . S
C1464 C1463 1.358 . S
C1464 H1467 0.930 . S
C1465 C1462 1.348 . S
C1465 C1463 1.356 . S
H1466 C1460 0.930 . S
H1467 C1464 0.930 . S
O1468 Li1408 1.919 1_565 S
O1468 Li1409 1.970 . S
O1468 Li1410 1.961 1_565 S
O1468 C1412 1.325 . S
O1469 Li1408 1.973 . S
O1469 Li1409 1.956 1_545 S
O1469 Li1411 1.961 . S
O1469 C1418 1.325 . S
O1470 Li1408 2.001 . S
O1470 Li1410 1.956 . S
O1470 Li1411 1.970 . S
O1470 C1440 1.325 . S
O1471 Li1409 1.934 1_545 S
O1471 Li1410 1.972 . S
O1471 Li1411 1.985 . S
O1471 C1446 1.327 . S
H1472 C1414 0.929 . S
H1473 C1415 0.930 . S
H1474 C1416 0.930 . S
H1475 C1417 0.930 . S
H1476 C1419 0.930 . S
H1477 C1421 0.929 . S
H1478 C1422 0.930 . S
H1479 C1423 0.930 . S
H1480 C1426 0.930 . S
H1481 C1429 0.929 . S
H1482 C1434 0.929 . S
H1483 C1435 0.930 . S
H1484 C1442 0.929 . S
H1485 C1443 0.930 . S
H1486 C1444 0.930 . S
H1487 C1445 0.930 . S
H1488 C1447 0.929 . S
H1489 C1448 0.930 . S
H1490 C1449 0.930 . S
H1491 C1450 0.930 . S
H1492 C1454 0.929 . S
H1493 C1456 0.930 . S
H1494 C1462 0.929 . S
H1495 C1463 0.930 . S
Li1496 N1513 1.990 . S
Li1496 O1556 1.956 . S
Li1496 O1557 1.970 . S
Li1496 O1558 1.961 . S
Li1497 N1521 1.990 . S
Li1497 O1556 1.970 . S
Li1497 O1557 1.956 . S
Li1497 O1559 1.961 . S
Li1498 N1543 1.990 . S
Li1498 O1556 1.961 . S
Li1498 O1558 1.956 . S
Li1498 O1559 1.970 . S
Li1499 N1549 1.990 . S
Li1499 O1557 1.961 . S
Li1499 O1558 1.970 . S
Li1499 O1559 1.956 . S
C1500 C1502 1.348 . S
C1500 C1503 1.356 . S
C1500 O1556 1.325 . S
N1501 C1504 1.314 . S
N1501 C1505 1.279 . S
C1502 C1500 1.348 . S
C1502 C1504 1.353 . S
C1502 H1560 0.929 . S
C1503 C1500 1.356 . S
C1503 C1505 1.358 . S
C1503 H1561 0.930 . S
C1504 N1501 1.314 . S
C1504 C1502 1.353 . S
C1504 H1562 0.930 . S
C1505 N1501 1.279 . S
C1505 C1503 1.358 . S
C1505 H1563 0.930 . S
C1506 C1509 1.348 . S
C1506 C1510 1.356 . S
C1506 O1557 1.325 . S
C1507 N1508 1.279 . S
C1507 C1510 1.358 . S
C1507 H1564 0.930 . S
N1508 C1507 1.279 . S
N1508 C1511 1.314 . S
C1509 C1506 1.348 . S
C1509 C1511 1.353 . S
C1509 H1565 0.929 . S
C1510 C1506 1.356 . S
C1510 C1507 1.358 . S
C1510 H1566 0.930 . S
C1511 N1508 1.314 . S
C1511 C1509 1.353 . S
C1511 H1567 0.930 . S
C1512 N1513 1.314 . S
C1512 C1517 1.353 . S
C1512 H1518 0.930 . S
N1513 Li1496 1.990 . S
N1513 C1512 1.314 . S
N1513 C1515 1.279 . S
C1514 C1515 1.358 . S
C1514 C1516 1.356 . S
C1514 H1568 0.930 . S
C1515 N1513 1.279 . S
C1515 C1514 1.358 . S
C1515 H1519 0.930 . S
C1516 C1514 1.356 . S
C1516 C1517 1.348 . S
C1517 C1512 1.353 . S
C1517 C1516 1.348 . S
C1517 H1569 0.929 . S
H1518 C1512 0.930 . S
H1519 C1515 0.930 . S
C1520 N1521 1.314 . S
C1520 C1522 1.353 . S
C1520 H1526 0.930 . S
N1521 Li1497 1.990 . S
N1521 C1520 1.314 . S
N1521 C1524 1.279 . S
C1522 C1520 1.353 . S
C1522 C1525 1.348 . S
C1522 H1570 0.929 . S
C1523 C1524 1.358 . S
C1523 C1525 1.356 . S
C1523 H1571 0.930 . S
C1524 N1521 1.279 . S
C1524 C1523 1.358 . S
C1524 H1527 0.930 . S
C1525 C1522 1.348 . S
C1525 C1523 1.356 . S
H1526 C1520 0.930 . S
H1527 C1524 0.930 . S
C1528 C1530 1.348 . S
C1528 C1531 1.356 . S
C1528 O1558 1.325 . S
N1529 C1532 1.314 . S
N1529 C1533 1.279 . S
C1530 C1528 1.348 . S
C1530 C1532 1.353 . S
C1530 H1572 0.929 . S
C1531 C1528 1.356 . S
C1531 C1533 1.358 . S
C1531 H1573 0.930 . S
C1532 N1529 1.314 . S
C1532 C1530 1.353 . S
C1532 H1574 0.930 . S
C1533 N1529 1.279 . S
C1533 C1531 1.358 . S
C1533 H1575 0.930 . S
C1534 C1535 1.348 . S
C1534 C1536 1.356 . S
C1534 O1559 1.325 . S
C1535 C1534 1.348 . S
C1535 C1537 1.353 . S
C1535 H1576 0.929 . S
C1536 C1534 1.356 . S
C1536 C1538 1.358 . S
C1536 H1577 0.930 . S
C1537 C1535 1.353 . S
C1537 N1539 1.314 . S
C1537 H1578 0.930 . S
C1538 C1536 1.358 . S
C1538 N1539 1.279 . S
C1538 H1579 0.930 . S
N1539 C1537 1.314 . S
N1539 C1538 1.279 . S
C1540 C1542 1.353 . S
C1540 N1543 1.314 . S
C1540 H1546 0.930 . S
C1541 N1543 1.279 . S
C1541 C1544 1.358 . S
C1541 H1547 0.930 . S
C1542 C1540 1.353 . S
C1542 C1545 1.348 . S
C1542 H1580 0.929 . S
N1543 Li1498 1.990 . S
N1543 C1540 1.314 . S
N1543 C1541 1.279 . S
C1544 C1541 1.358 . S
C1544 C1545 1.356 . S
C1544 H1581 0.930 . S
C1545 C1542 1.348 . S
C1545 C1544 1.356 . S
H1546 C1540 0.930 . S
H1547 C1541 0.930 . S
C1548 N1549 1.314 . S
C1548 C1550 1.353 . S
C1548 H1554 0.930 . S
N1549 Li1499 1.990 . S
N1549 C1548 1.314 . S
N1549 C1552 1.279 . S
C1550 C1548 1.353 . S
C1550 C1553 1.348 . S
C1550 H1582 0.929 . S
C1551 C1552 1.358 . S
C1551 C1553 1.356 . S
C1551 H1583 0.930 . S
C1552 N1549 1.279 . S
C1552 C1551 1.358 . S
C1552 H1555 0.930 . S
C1553 C1550 1.348 . S
C1553 C1551 1.356 . S
H1554 C1548 0.930 . S
H1555 C1552 0.930 . S
O1556 Li1496 1.956 . S
O1556 Li1497 1.970 . S
O1556 Li1498 1.961 . S
O1556 C1500 1.325 . S
O1557 Li1496 1.970 . S
O1557 Li1497 1.956 . S
O1557 Li1499 1.961 . S
O1557 C1506 1.325 . S
O1558 Li1496 1.961 . S
O1558 Li1498 1.956 . S
O1558 Li1499 1.970 . S
O1558 C1528 1.325 . S
O1559 Li1497 1.961 . S
O1559 Li1498 1.970 . S
O1559 Li1499 1.956 . S
O1559 C1534 1.325 . S
H1560 C1502 0.929 . S
H1561 C1503 0.930 . S
H1562 C1504 0.930 . S
H1563 C1505 0.930 . S
H1564 C1507 0.930 . S
H1565 C1509 0.929 . S
H1566 C1510 0.930 . S
H1567 C1511 0.930 . S
H1568 C1514 0.930 . S
H1569 C1517 0.929 . S
H1570 C1522 0.929 . S
H1571 C1523 0.930 . S
H1572 C1530 0.929 . S
H1573 C1531 0.930 . S
H1574 C1532 0.930 . S
H1575 C1533 0.930 . S
H1576 C1535 0.929 . S
H1577 C1536 0.930 . S
H1578 C1537 0.930 . S
H1579 C1538 0.930 . S
H1580 C1542 0.929 . S
H1581 C1544 0.930 . S
H1582 C1550 0.929 . S
H1583 C1551 0.930 . S
Li1584 N1601 1.990 . S
Li1584 O1644 1.956 . S
Li1584 O1645 1.970 . S
Li1584 O1646 1.961 1_545 S
Li1585 N1609 1.990 . S
Li1585 O1644 1.970 . S
Li1585 O1645 1.956 . S
Li1585 O1647 1.961 . S
Li1586 N1631 1.990 . S
Li1586 O1644 1.961 . S
Li1586 O1646 1.956 1_545 S
Li1586 O1647 1.970 . S
Li1587 N1637 1.990 . S
Li1587 O1645 1.961 1_565 S
Li1587 O1646 1.970 . S
Li1587 O1647 1.956 1_565 S
C1588 C1590 1.348 . S
C1588 C1591 1.356 . S
C1588 O1644 1.325 . S
N1589 C1592 1.314 . S
N1589 C1593 1.279 . S
C1590 C1588 1.348 . S
C1590 C1592 1.353 . S
C1590 H1648 0.929 . S
C1591 C1588 1.356 . S
C1591 C1593 1.358 . S
C1591 H1649 0.930 . S
C1592 N1589 1.314 . S
C1592 C1590 1.353 . S
C1592 H1650 0.930 . S
C1593 N1589 1.279 . S
C1593 C1591 1.358 . S
C1593 H1651 0.930 . S
C1594 C1597 1.348 . S
C1594 C1598 1.365 . S
C1594 O1645 1.325 . S
C1595 N1596 1.279 . S
C1595 C1598 1.361 . S
C1595 H1652 0.930 1_545 S
N1596 C1595 1.279 . S
N1596 C1599 1.314 . S
C1597 C1594 1.348 . S
C1597 C1599 1.353 . S
C1597 H1653 0.929 . S
C1598 C1594 1.365 . S
C1598 C1595 1.361 . S
C1598 H1654 0.921 1_545 S
C1599 N1596 1.314 . S
C1599 C1597 1.353 . S
C1599 H1655 0.930 . S
C1600 N1601 1.314 1_565 S
C1600 C1605 1.353 . S
C1600 H1606 0.930 . S
N1601 Li1584 1.990 . S
N1601 C1600 1.314 1_545 S
N1601 C1603 1.279 . S
C1602 C1603 1.358 . S
C1602 C1604 1.356 . S
C1602 H1656 0.930 . S
C1603 N1601 1.279 . S
C1603 C1602 1.358 . S
C1603 H1607 0.930 . S
C1604 C1602 1.356 . S
C1604 C1605 1.348 1_545 S
C1605 C1600 1.353 . S
C1605 C1604 1.348 1_565 S
C1605 H1657 0.929 . S
H1606 C1600 0.930 . S
H1607 C1603 0.930 . S
C1608 N1609 1.314 . S
C1608 C1610 1.353 . S
C1608 H1614 0.930 . S
N1609 Li1585 1.990 . S
N1609 C1608 1.314 . S
N1609 C1612 1.279 . S
C1610 C1608 1.353 . S
C1610 C1613 1.348 . S
C1610 H1658 0.929 . S
C1611 C1612 1.358 . S
C1611 C1613 1.356 . S
C1611 H1659 0.930 . S
C1612 N1609 1.279 . S
C1612 C1611 1.358 . S
C1612 H1615 0.930 . S
C1613 C1610 1.348 . S
C1613 C1611 1.356 . S
H1614 C1608 0.930 . S
H1615 C1612 0.930 . S
C1616 C1618 1.348 . S
C1616 C1619 1.356 . S
C1616 O1646 1.325 . S
N1617 C1620 1.314 . S
N1617 C1621 1.279 . S
C1618 C1616 1.348 . S
C1618 C1620 1.353 . S
C1618 H1660 0.929 . S
C1619 C1616 1.356 . S
C1619 C1621 1.358 . S
C1619 H1661 0.930 . S
C1620 N1617 1.314 . S
C1620 C1618 1.353 . S
C1620 H1662 0.930 . S
C1621 N1617 1.279 . S
C1621 C1619 1.358 . S
C1621 H1663 0.930 . S
C1622 C1623 1.348 1_545 S
C1622 C1624 1.356 . S
C1622 O1647 1.325 . S
C1623 C1622 1.348 1_565 S
C1623 C1625 1.353 . S
C1623 H1664 0.929 . S
C1624 C1622 1.356 . S
C1624 C1626 1.358 . S
C1624 H1665 0.930 . S
C1625 C1623 1.353 . S
C1625 N1627 1.314 1_565 S
C1625 H1666 0.930 . S
C1626 C1624 1.358 . S
C1626 N1627 1.279 . S
C1626 H1667 0.930 . S
N1627 C1625 1.314 1_545 S
N1627 C1626 1.279 . S
C1628 C1630 1.353 . S
C1628 N1631 1.314 . S
C1628 H1634 0.930 . S
C1629 N1631 1.279 1_565 S
C1629 C1632 1.358 . S
C1629 H1635 0.930 . S
C1630 C1628 1.353 . S
C1630 C1633 1.348 . S
C1630 H1668 0.929 . S
N1631 Li1586 1.990 . S
N1631 C1628 1.314 . S
N1631 C1629 1.279 1_545 S
C1632 C1629 1.358 . S
C1632 C1633 1.356 1_565 S
C1632 H1669 0.930 . S
C1633 C1630 1.348 . S
C1633 C1632 1.356 1_545 S
H1634 C1628 0.930 . S
H1635 C1629 0.930 . S
C1636 N1637 1.314 . S
C1636 C1638 1.353 . S
C1636 H1642 0.930 . S
N1637 Li1587 1.990 . S
N1637 C1636 1.314 . S
N1637 C1640 1.279 . S
C1638 C1636 1.353 . S
C1638 C1641 1.348 . S
C1638 H1670 0.929 . S
C1639 C1640 1.358 . S
C1639 C1641 1.356 . S
C1639 H1671 0.930 . S
C1640 N1637 1.279 . S
C1640 C1639 1.358 . S
C1640 H1643 0.930 . S
C1641 C1638 1.348 . S
C1641 C1639 1.356 . S
H1642 C1636 0.930 . S
H1643 C1640 0.930 . S
O1644 Li1584 1.956 . S
O1644 Li1585 1.970 . S
O1644 Li1586 1.961 . S
O1644 C1588 1.325 . S
O1645 Li1584 1.970 . S
O1645 Li1585 1.956 . S
O1645 Li1587 1.961 1_545 S
O1645 C1594 1.325 . S
O1646 Li1584 1.961 1_565 S
O1646 Li1586 1.956 1_565 S
O1646 Li1587 1.970 . S
O1646 C1616 1.325 . S
O1647 Li1585 1.961 . S
O1647 Li1586 1.970 . S
O1647 Li1587 1.956 1_545 S
O1647 C1622 1.325 . S
H1648 C1590 0.929 . S
H1649 C1591 0.930 . S
H1650 C1592 0.930 . S
H1651 C1593 0.930 . S
H1652 C1595 0.930 1_565 S
H1653 C1597 0.929 . S
H1654 C1598 0.921 1_565 S
H1655 C1599 0.930 . S
H1656 C1602 0.930 . S
H1657 C1605 0.929 . S
H1658 C1610 0.929 . S
H1659 C1611 0.930 . S
H1660 C1618 0.929 . S
H1661 C1619 0.930 . S
H1662 C1620 0.930 . S
H1663 C1621 0.930 . S
H1664 C1623 0.929 . S
H1665 C1624 0.930 . S
H1666 C1625 0.930 . S
H1667 C1626 0.930 . S
H1668 C1630 0.929 . S
H1669 C1632 0.930 . S
H1670 C1638 0.929 . S
H1671 C1639 0.930 . S
Li1672 N1689 1.990 . S
Li1672 O1732 1.956 . S
Li1672 O1733 1.970 . S
Li1672 O1734 1.961 1_554 S
Li1673 N1697 1.990 . S
Li1673 O1732 1.970 . S
Li1673 O1733 1.956 . S
Li1673 O1735 1.961 . S
Li1674 N1719 1.990 . S
Li1674 O1732 1.961 . S
Li1674 O1734 1.956 1_554 S
Li1674 O1735 1.970 . S
Li1675 N1725 1.990 . S
Li1675 O1733 1.961 1_556 S
Li1675 O1734 1.970 . S
Li1675 O1735 1.956 1_556 S
C1676 C1678 1.348 . S
C1676 C1679 1.356 . S
C1676 O1732 1.325 . S
N1677 C1680 1.314 . S
N1677 C1681 1.279 . S
C1678 C1676 1.348 . S
C1678 C1680 1.353 . S
C1678 H1736 0.929 . S
C1679 C1676 1.356 . S
C1679 C1681 1.358 . S
C1679 H1737 0.930 . S
C1680 N1677 1.314 . S
C1680 C1678 1.353 . S
C1680 H1738 0.930 . S
C1681 N1677 1.279 . S
C1681 C1679 1.358 . S
C1681 H1739 0.930 . S
C1682 C1685 1.348 . S
C1682 C1686 1.356 . S
C1682 O1733 1.325 . S
C1683 N1684 1.279 . S
C1683 C1686 1.358 . S
C1683 H1740 0.930 . S
N1684 C1683 1.279 . S
N1684 C1687 1.314 . S
C1685 C1682 1.348 . S
C1685 C1687 1.353 . S
C1685 H1741 0.929 . S
C1686 C1682 1.356 . S
C1686 C1683 1.358 . S
C1686 H1742 0.930 . S
C1687 N1684 1.314 . S
C1687 C1685 1.353 . S
C1687 H1743 0.930 . S
C1688 N1689 1.314 1_556 S
C1688 C1693 1.353 . S
C1688 H1694 0.930 . S
N1689 Li1672 1.990 . S
N1689 C1688 1.314 1_554 S
N1689 C1691 1.279 . S
C1690 C1691 1.358 . S
C1690 C1692 1.356 . S
C1690 H1744 0.930 . S
C1691 N1689 1.279 . S
C1691 C1690 1.358 . S
C1691 H1695 0.930 . S
C1692 C1690 1.356 . S
C1692 C1693 1.348 1_554 S
C1693 C1688 1.353 . S
C1693 C1692 1.348 1_556 S
C1693 H1745 0.929 . S
H1694 C1688 0.930 . S
H1695 C1691 0.930 . S
C1696 N1697 1.314 . S
C1696 C1698 1.353 . S
C1696 H1702 0.930 . S
N1697 Li1673 1.990 . S
N1697 C1696 1.314 . S
N1697 C1700 1.279 . S
C1698 C1696 1.353 . S
C1698 C1701 1.348 . S
C1698 H1746 0.929 . S
C1699 C1700 1.358 . S
C1699 C1701 1.356 . S
C1699 H1747 0.930 . S
C1700 N1697 1.279 . S
C1700 C1699 1.358 . S
C1700 H1703 0.930 . S
C1701 C1698 1.348 . S
C1701 C1699 1.356 . S
H1702 C1696 0.930 . S
H1703 C1700 0.930 . S
C1704 C1706 1.348 . S
C1704 C1707 1.356 . S
C1704 O1734 1.325 . S
N1705 C1708 1.314 . S
N1705 C1709 1.279 . S
C1706 C1704 1.348 . S
C1706 C1708 1.353 . S
C1706 H1748 0.929 . S
C1707 C1704 1.356 . S
C1707 C1709 1.358 . S
C1707 H1749 0.930 . S
C1708 N1705 1.314 . S
C1708 C1706 1.353 . S
C1708 H1750 0.930 . S
C1709 N1705 1.279 . S
C1709 C1707 1.358 . S
C1709 H1751 0.930 . S
C1710 C1711 1.348 . S
C1710 C1712 1.356 . S
C1710 O1735 1.325 . S
C1711 C1710 1.348 . S
C1711 C1713 1.353 . S
C1711 H1752 0.929 1_554 S
C1712 C1710 1.356 . S
C1712 C1714 1.358 . S
C1712 H1753 0.930 . S
C1713 C1711 1.353 . S
C1713 N1715 1.314 . S
C1713 H1754 0.930 1_554 S
C1714 C1712 1.358 . S
C1714 N1715 1.279 . S
C1714 H1755 0.930 . S
N1715 C1713 1.314 . S
N1715 C1714 1.279 . S
C1716 C1718 1.353 . S
C1716 N1719 1.314 . S
C1716 H1722 0.930 . S
C1717 N1719 1.279 1_556 S
C1717 C1720 1.358 . S
C1717 H1723 0.930 . S
C1718 C1716 1.353 . S
C1718 C1721 1.348 . S
C1718 H1756 0.929 . S
N1719 Li1674 1.990 . S
N1719 C1716 1.314 . S
N1719 C1717 1.279 1_554 S
C1720 C1717 1.358 . S
C1720 C1721 1.356 1_556 S
C1720 H1757 0.930 . S
C1721 C1718 1.348 . S
C1721 C1720 1.356 1_554 S
H1722 C1716 0.930 . S
H1723 C1717 0.930 . S
C1724 N1725 1.314 . S
C1724 C1726 1.353 . S
C1724 H1730 0.930 . S
N1725 Li1675 1.990 . S
N1725 C1724 1.314 . S
N1725 C1728 1.279 . S
C1726 C1724 1.353 . S
C1726 C1729 1.348 . S
C1726 H1758 0.929 . S
C1727 C1728 1.358 . S
C1727 C1729 1.356 . S
C1727 H1759 0.930 . S
C1728 N1725 1.279 . S
C1728 C1727 1.358 . S
C1728 H1731 0.930 . S
C1729 C1726 1.348 . S
C1729 C1727 1.356 . S
H1730 C1724 0.930 . S
H1731 C1728 0.930 . S
O1732 Li1672 1.956 . S
O1732 Li1673 1.970 . S
O1732 Li1674 1.961 . S
O1732 C1676 1.325 . S
O1733 Li1672 1.970 . S
O1733 Li1673 1.956 . S
O1733 Li1675 1.961 1_554 S
O1733 C1682 1.325 . S
O1734 Li1672 1.961 1_556 S
O1734 Li1674 1.956 1_556 S
O1734 Li1675 1.970 . S
O1734 C1704 1.325 . S
O1735 Li1673 1.961 . S
O1735 Li1674 1.970 . S
O1735 Li1675 1.956 1_554 S
O1735 C1710 1.325 . S
H1736 C1678 0.929 . S
H1737 C1679 0.930 . S
H1738 C1680 0.930 . S
H1739 C1681 0.930 . S
H1740 C1683 0.930 . S
H1741 C1685 0.929 . S
H1742 C1686 0.930 . S
H1743 C1687 0.930 . S
H1744 C1690 0.930 . S
H1745 C1693 0.929 . S
H1746 C1698 0.929 . S
H1747 C1699 0.930 . S
H1748 C1706 0.929 . S
H1749 C1707 0.930 . S
H1750 C1708 0.930 . S
H1751 C1709 0.930 . S
H1752 C1711 0.929 1_556 S
H1753 C1712 0.930 . S
H1754 C1713 0.930 1_556 S
H1755 C1714 0.930 . S
H1756 C1718 0.929 . S
H1757 C1720 0.930 . S
H1758 C1726 0.929 . S
H1759 C1727 0.930 . S
Li1760 N1777 1.990 . S
Li1760 O1820 1.956 . S
Li1760 O1821 1.970 . S
Li1760 O1822 1.961 . S
Li1761 N1785 1.990 . S
Li1761 O1820 1.970 . S
Li1761 O1821 1.956 . S
Li1761 O1823 1.961 1_554 S
Li1762 N1807 1.990 . S
Li1762 O1820 1.961 1_556 S
Li1762 O1822 1.956 1_556 S
Li1762 O1823 1.970 . S
Li1763 N1813 1.990 . S
Li1763 O1821 1.961 . S
Li1763 O1822 1.970 . S
Li1763 O1823 1.956 1_554 S
C1764 C1766 1.348 . S
C1764 C1767 1.356 1_554 S
C1764 O1820 1.325 . S
N1765 C1768 1.314 . S
N1765 C1769 1.271 1_554 S
C1766 C1764 1.348 . S
C1766 C1768 1.353 . S
C1766 H1824 0.929 . S
C1767 C1764 1.356 1_556 S
C1767 C1769 1.360 . S
C1767 H1825 0.930 . S
C1768 N1765 1.314 . S
C1768 C1766 1.353 . S
C1768 H1826 0.930 . S
C1769 N1765 1.271 1_556 S
C1769 C1767 1.360 . S
C1769 H1827 0.940 . S
C1770 C1773 1.348 . S
C1770 C1774 1.356 . S
C1770 O1821 1.325 . S
C1771 N1772 1.279 . S
C1771 C1774 1.358 . S
C1771 H1828 0.930 . S
N1772 C1771 1.279 . S
N1772 C1775 1.314 . S
C1773 C1770 1.348 . S
C1773 C1775 1.353 . S
C1773 H1829 0.929 . S
C1774 C1770 1.356 . S
C1774 C1771 1.358 . S
C1774 H1830 0.930 . S
C1775 N1772 1.314 . S
C1775 C1773 1.353 . S
C1775 H1831 0.930 . S
C1776 N1777 1.314 . S
C1776 C1781 1.353 . S
C1776 H1782 0.930 . S
N1777 Li1760 1.990 . S
N1777 C1776 1.314 . S
N1777 C1779 1.279 . S
C1778 C1779 1.358 . S
C1778 C1780 1.356 . S
C1778 H1832 0.930 . S
C1779 N1777 1.279 . S
C1779 C1778 1.358 . S
C1779 H1783 0.930 . S
C1780 C1778 1.356 . S
C1780 C1781 1.348 . S
C1781 C1776 1.353 . S
C1781 C1780 1.348 . S
C1781 H1833 0.929 . S
H1782 C1776 0.930 . S
H1783 C1779 0.930 . S
C1784 N1785 1.314 1_556 S
C1784 C1786 1.353 . S
C1784 H1790 0.930 . S
N1785 Li1761 1.990 . S
N1785 C1784 1.314 1_554 S
N1785 C1788 1.279 . S
C1786 C1784 1.353 . S
C1786 C1789 1.348 1_556 S
C1786 H1834 0.929 . S
C1787 C1788 1.358 . S
C1787 C1789 1.356 . S
C1787 H1835 0.930 . S
C1788 N1785 1.279 . S
C1788 C1787 1.358 . S
C1788 H1791 0.930 . S
C1789 C1786 1.348 1_554 S
C1789 C1787 1.356 . S
H1790 C1784 0.930 . S
H1791 C1788 0.930 . S
C1792 C1794 1.348 1_554 S
C1792 C1795 1.356 . S
C1792 O1822 1.325 . S
N1793 C1796 1.314 1_554 S
N1793 C1797 1.279 . S
C1794 C1792 1.348 1_556 S
C1794 C1796 1.353 . S
C1794 H1836 0.929 . S
C1795 C1792 1.356 . S
C1795 C1797 1.358 . S
C1795 H1837 0.930 . S
C1796 N1793 1.314 1_556 S
C1796 C1794 1.353 . S
C1796 H1838 0.930 . S
C1797 N1793 1.279 . S
C1797 C1795 1.358 . S
C1797 H1839 0.930 . S
C1798 C1799 1.348 . S
C1798 C1800 1.356 . S
C1798 O1823 1.325 . S
C1799 C1798 1.348 . S
C1799 C1801 1.353 . S
C1799 H1840 0.929 . S
C1800 C1798 1.356 . S
C1800 C1802 1.358 . S
C1800 H1841 0.930 . S
C1801 C1799 1.353 . S
C1801 N1803 1.314 . S
C1801 H1842 0.930 . S
C1802 C1800 1.358 . S
C1802 N1803 1.279 . S
C1802 H1843 0.930 . S
N1803 C1801 1.314 . S
N1803 C1802 1.279 . S
C1804 C1806 1.353 . S
C1804 N1807 1.314 . S
C1804 H1810 0.930 . S
C1805 N1807 1.279 . S
C1805 C1808 1.358 . S
C1805 H1811 0.930 . S
C1806 C1804 1.353 . S
C1806 C1809 1.348 . S
C1806 H1844 0.929 . S
N1807 Li1762 1.990 . S
N1807 C1804 1.314 . S
N1807 C1805 1.279 . S
C1808 C1805 1.358 . S
C1808 C1809 1.356 . S
C1808 H1845 0.930 . S
C1809 C1806 1.348 . S
C1809 C1808 1.356 . S
H1810 C1804 0.930 . S
H1811 C1805 0.930 . S
C1812 N1813 1.314 . S
C1812 C1814 1.353 . S
C1812 H1818 0.930 . S
N1813 Li1763 1.990 . S
N1813 C1812 1.314 . S
N1813 C1816 1.279 1_554 S
C1814 C1812 1.353 . S
C1814 C1817 1.348 . S
C1814 H1846 0.929 . S
C1815 C1816 1.358 . S
C1815 C1817 1.356 1_556 S
C1815 H1847 0.930 . S
C1816 N1813 1.279 1_556 S
C1816 C1815 1.358 . S
C1816 H1819 0.930 . S
C1817 C1814 1.348 . S
C1817 C1815 1.356 1_554 S
H1818 C1812 0.930 . S
H1819 C1816 0.930 . S
O1820 Li1760 1.956 . S
O1820 Li1761 1.970 . S
O1820 Li1762 1.961 1_554 S
O1820 C1764 1.325 . S
O1821 Li1760 1.970 . S
O1821 Li1761 1.956 . S
O1821 Li1763 1.961 . S
O1821 C1770 1.325 . S
O1822 Li1760 1.961 . S
O1822 Li1762 1.956 1_554 S
O1822 Li1763 1.970 . S
O1822 C1792 1.325 . S
O1823 Li1761 1.961 1_556 S
O1823 Li1762 1.970 . S
O1823 Li1763 1.956 1_556 S
O1823 C1798 1.325 . S
H1824 C1766 0.929 . S
H1825 C1767 0.930 . S
H1826 C1768 0.930 . S
H1827 C1769 0.940 . S
H1828 C1771 0.930 . S
H1829 C1773 0.929 . S
H1830 C1774 0.930 . S
H1831 C1775 0.930 . S
H1832 C1778 0.930 . S
H1833 C1781 0.929 . S
H1834 C1786 0.929 . S
H1835 C1787 0.930 . S
H1836 C1794 0.929 . S
H1837 C1795 0.930 . S
H1838 C1796 0.930 . S
H1839 C1797 0.930 . S
H1840 C1799 0.929 . S
H1841 C1800 0.930 . S
H1842 C1801 0.930 . S
H1843 C1802 0.930 . S
H1844 C1806 0.929 . S
H1845 C1808 0.930 . S
H1846 C1814 0.929 . S
H1847 C1815 0.930 . S
Li1848 N1865 1.990 . S
Li1848 O1908 1.956 . S
Li1848 O1909 1.970 . S
Li1848 O1910 1.961 . S
Li1849 N1873 1.990 . S
Li1849 O1908 1.970 . S
Li1849 O1909 1.956 . S
Li1849 O1911 1.961 . S
Li1850 N1895 1.990 . S
Li1850 O1908 1.961 . S
Li1850 O1910 1.956 . S
Li1850 O1911 1.970 . S
Li1851 N1901 1.990 . S
Li1851 O1909 1.961 . S
Li1851 O1910 1.970 . S
Li1851 O1911 1.956 . S
C1852 C1854 1.348 . S
C1852 C1855 1.356 . S
C1852 O1908 1.325 . S
N1853 C1856 1.314 . S
N1853 C1857 1.279 . S
C1854 C1852 1.348 . S
C1854 C1856 1.353 . S
C1854 H1912 0.929 . S
C1855 C1852 1.356 . S
C1855 C1857 1.358 . S
C1855 H1913 0.930 . S
C1856 N1853 1.314 . S
C1856 C1854 1.353 . S
C1856 H1914 0.930 . S
C1857 N1853 1.279 . S
C1857 C1855 1.358 . S
C1857 H1915 0.930 . S
C1858 C1861 1.348 . S
C1858 C1862 1.356 . S
C1858 O1909 1.325 . S
C1859 N1860 1.279 . S
C1859 C1862 1.358 . S
C1859 H1916 0.930 . S
N1860 C1859 1.279 . S
N1860 C1863 1.314 . S
C1861 C1858 1.348 . S
C1861 C1863 1.353 . S
C1861 H1917 0.929 . S
C1862 C1858 1.356 . S
C1862 C1859 1.358 . S
C1862 H1918 0.930 . S
C1863 N1860 1.314 . S
C1863 C1861 1.353 . S
C1863 H1919 0.930 . S
C1864 N1865 1.314 . S
C1864 C1869 1.353 . S
C1864 H1870 0.930 . S
N1865 Li1848 1.990 . S
N1865 C1864 1.314 . S
N1865 C1867 1.279 . S
C1866 C1867 1.358 . S
C1866 C1868 1.356 . S
C1866 H1920 0.930 . S
C1867 N1865 1.279 . S
C1867 C1866 1.358 . S
C1867 H1871 0.930 . S
C1868 C1866 1.356 . S
C1868 C1869 1.348 . S
C1869 C1864 1.353 . S
C1869 C1868 1.348 . S
C1869 H1921 0.929 . S
H1870 C1864 0.930 . S
H1871 C1867 0.930 . S
C1872 N1873 1.314 . S
C1872 C1874 1.353 . S
C1872 H1878 0.930 . S
N1873 Li1849 1.990 . S
N1873 C1872 1.314 . S
N1873 C1876 1.279 . S
C1874 C1872 1.353 . S
C1874 C1877 1.348 . S
C1874 H1922 0.929 . S
C1875 C1876 1.358 . S
C1875 C1877 1.356 . S
C1875 H1923 0.930 . S
C1876 N1873 1.279 . S
C1876 C1875 1.358 . S
C1876 H1879 0.930 . S
C1877 C1874 1.348 . S
C1877 C1875 1.356 . S
H1878 C1872 0.930 . S
H1879 C1876 0.930 . S
C1880 C1882 1.348 . S
C1880 C1883 1.356 . S
C1880 O1910 1.325 . S
N1881 C1884 1.314 . S
N1881 C1885 1.279 . S
C1882 C1880 1.348 . S
C1882 C1884 1.353 . S
C1882 H1924 0.929 . S
C1883 C1880 1.356 . S
C1883 C1885 1.358 . S
C1883 H1925 0.930 . S
C1884 N1881 1.314 . S
C1884 C1882 1.353 . S
C1884 H1926 0.930 . S
C1885 N1881 1.279 . S
C1885 C1883 1.358 . S
C1885 H1927 0.930 . S
C1886 C1887 1.348 . S
C1886 C1888 1.356 . S
C1886 O1911 1.325 . S
C1887 C1886 1.348 . S
C1887 C1889 1.353 . S
C1887 H1928 0.929 . S
C1888 C1886 1.356 . S
C1888 C1890 1.358 . S
C1888 H1929 0.930 . S
C1889 C1887 1.353 . S
C1889 N1891 1.314 . S
C1889 H1930 0.930 . S
C1890 C1888 1.358 . S
C1890 N1891 1.279 . S
C1890 H1931 0.930 . S
N1891 C1889 1.314 . S
N1891 C1890 1.279 . S
C1892 C1894 1.353 . S
C1892 N1895 1.314 . S
C1892 H1898 0.930 . S
C1893 N1895 1.279 . S
C1893 C1896 1.358 . S
C1893 H1899 0.930 . S
C1894 C1892 1.353 . S
C1894 C1897 1.348 . S
C1894 H1932 0.929 . S
N1895 Li1850 1.990 . S
N1895 C1892 1.314 . S
N1895 C1893 1.279 . S
C1896 C1893 1.358 . S
C1896 C1897 1.356 . S
C1896 H1933 0.930 . S
C1897 C1894 1.348 . S
C1897 C1896 1.356 . S
H1898 C1892 0.930 . S
H1899 C1893 0.930 . S
C1900 N1901 1.314 . S
C1900 C1902 1.353 . S
C1900 H1906 0.930 . S
N1901 Li1851 1.990 . S
N1901 C1900 1.314 . S
N1901 C1904 1.279 . S
C1902 C1900 1.353 . S
C1902 C1905 1.348 . S
C1902 H1934 0.929 . S
C1903 C1904 1.358 . S
C1903 C1905 1.356 . S
C1903 H1935 0.930 . S
C1904 N1901 1.279 . S
C1904 C1903 1.358 . S
C1904 H1907 0.930 . S
C1905 C1902 1.348 . S
C1905 C1903 1.356 . S
H1906 C1900 0.930 . S
H1907 C1904 0.930 . S
O1908 Li1848 1.956 . S
O1908 Li1849 1.970 . S
O1908 Li1850 1.961 . S
O1908 C1852 1.325 . S
O1909 Li1848 1.970 . S
O1909 Li1849 1.956 . S
O1909 Li1851 1.961 . S
O1909 C1858 1.325 . S
O1910 Li1848 1.961 . S
O1910 Li1850 1.956 . S
O1910 Li1851 1.970 . S
O1910 C1880 1.325 . S
O1911 Li1849 1.961 . S
O1911 Li1850 1.970 . S
O1911 Li1851 1.956 . S
O1911 C1886 1.325 . S
H1912 C1854 0.929 . S
H1913 C1855 0.930 . S
H1914 C1856 0.930 . S
H1915 C1857 0.930 . S
H1916 C1859 0.930 . S
H1917 C1861 0.929 . S
H1918 C1862 0.930 . S
H1919 C1863 0.930 . S
H1920 C1866 0.930 . S
H1921 C1869 0.929 . S
H1922 C1874 0.929 . S
H1923 C1875 0.930 . S
H1924 C1882 0.929 . S
H1925 C1883 0.930 . S
H1926 C1884 0.930 . S
H1927 C1885 0.930 . S
H1928 C1887 0.929 . S
H1929 C1888 0.930 . S
H1930 C1889 0.930 . S
H1931 C1890 0.930 . S
H1932 C1894 0.929 . S
H1933 C1896 0.930 . S
H1934 C1902 0.929 . S
H1935 C1903 0.930 . S
Li1936 N1953 1.990 . S
Li1936 O1996 1.956 . S
Li1936 O1997 1.970 . S
Li1936 O1998 1.961 . S
Li1937 N1961 1.990 . S
Li1937 O1996 1.970 . S
Li1937 O1997 1.956 . S
Li1937 O1999 1.961 . S
Li1938 N1983 1.990 . S
Li1938 O1996 1.961 . S
Li1938 O1998 1.956 . S
Li1938 O1999 1.970 . S
Li1939 N1989 1.990 . S
Li1939 O1997 1.961 . S
Li1939 O1998 1.970 . S
Li1939 O1999 1.956 . S
C1940 C1942 1.348 . S
C1940 C1943 1.356 . S
C1940 O1996 1.325 . S
N1941 C1944 1.314 . S
N1941 C1945 1.279 . S
C1942 C1940 1.348 . S
C1942 C1944 1.353 . S
C1942 H2000 0.929 . S
C1943 C1940 1.356 . S
C1943 C1945 1.358 . S
C1943 H2001 0.930 . S
C1944 N1941 1.314 . S
C1944 C1942 1.353 . S
C1944 H2002 0.930 . S
C1945 N1941 1.279 . S
C1945 C1943 1.358 . S
C1945 H2003 0.930 . S
C1946 C1949 1.348 . S
C1946 C1950 1.356 . S
C1946 O1997 1.325 . S
C1947 N1948 1.279 . S
C1947 C1950 1.358 . S
C1947 H2004 0.930 . S
N1948 C1947 1.279 . S
N1948 C1951 1.314 . S
C1949 C1946 1.348 . S
C1949 C1951 1.353 . S
C1949 H2005 0.929 . S
C1950 C1946 1.356 . S
C1950 C1947 1.358 . S
C1950 H2006 0.930 . S
C1951 N1948 1.314 . S
C1951 C1949 1.353 . S
C1951 H2007 0.930 . S
C1952 N1953 1.314 . S
C1952 C1957 1.353 . S
C1952 H1958 0.930 . S
N1953 Li1936 1.990 . S
N1953 C1952 1.314 . S
N1953 C1955 1.279 . S
C1954 C1955 1.358 . S
C1954 C1956 1.356 . S
C1954 H2008 0.930 . S
C1955 N1953 1.279 . S
C1955 C1954 1.358 . S
C1955 H1959 0.930 . S
C1956 C1954 1.356 . S
C1956 C1957 1.348 . S
C1957 C1952 1.353 . S
C1957 C1956 1.348 . S
C1957 H2009 0.929 . S
H1958 C1952 0.930 . S
H1959 C1955 0.930 . S
C1960 N1961 1.314 . S
C1960 C1962 1.353 . S
C1960 H1966 0.930 . S
N1961 Li1937 1.990 . S
N1961 C1960 1.314 . S
N1961 C1964 1.279 . S
C1962 C1960 1.353 . S
C1962 C1965 1.348 . S
C1962 H2010 0.929 . S
C1963 C1964 1.358 . S
C1963 C1965 1.356 . S
C1963 H2011 0.930 . S
C1964 N1961 1.279 . S
C1964 C1963 1.358 . S
C1964 H1967 0.930 . S
C1965 C1962 1.348 . S
C1965 C1963 1.356 . S
H1966 C1960 0.930 . S
H1967 C1964 0.930 . S
C1968 C1970 1.348 . S
C1968 C1971 1.356 . S
C1968 O1998 1.325 . S
N1969 C1972 1.314 . S
N1969 C1973 1.279 . S
C1970 C1968 1.348 . S
C1970 C1972 1.353 . S
C1970 H2012 0.929 . S
C1971 C1968 1.356 . S
C1971 C1973 1.358 . S
C1971 H2013 0.930 . S
C1972 N1969 1.314 . S
C1972 C1970 1.353 . S
C1972 H2014 0.930 . S
C1973 N1969 1.279 . S
C1973 C1971 1.358 . S
C1973 H2015 0.930 . S
C1974 C1975 1.348 . S
C1974 C1976 1.356 . S
C1974 O1999 1.325 . S
C1975 C1974 1.348 . S
C1975 C1977 1.353 . S
C1975 H2016 0.929 . S
C1976 C1974 1.356 . S
C1976 C1978 1.358 . S
C1976 H2017 0.930 . S
C1977 C1975 1.353 . S
C1977 N1979 1.314 . S
C1977 H2018 0.930 . S
C1978 C1976 1.358 . S
C1978 N1979 1.279 . S
C1978 H2019 0.930 . S
N1979 C1977 1.314 . S
N1979 C1978 1.279 . S
C1980 C1982 1.353 . S
C1980 N1983 1.314 . S
C1980 H1986 0.930 . S
C1981 N1983 1.279 . S
C1981 C1984 1.358 . S
C1981 H1987 0.930 . S
C1982 C1980 1.353 . S
C1982 C1985 1.348 . S
C1982 H2020 0.929 . S
N1983 Li1938 1.990 . S
N1983 C1980 1.314 . S
N1983 C1981 1.279 . S
C1984 C1981 1.358 . S
C1984 C1985 1.356 . S
C1984 H2021 0.930 . S
C1985 C1982 1.348 . S
C1985 C1984 1.356 . S
H1986 C1980 0.930 . S
H1987 C1981 0.930 . S
C1988 N1989 1.314 . S
C1988 C1990 1.353 . S
C1988 H1994 0.930 . S
N1989 Li1939 1.990 . S
N1989 C1988 1.314 . S
N1989 C1992 1.279 . S
C1990 C1988 1.353 . S
C1990 C1993 1.348 . S
C1990 H2022 0.929 . S
C1991 C1992 1.358 . S
C1991 C1993 1.356 . S
C1991 H2023 0.930 . S
C1992 N1989 1.279 . S
C1992 C1991 1.358 . S
C1992 H1995 0.930 . S
C1993 C1990 1.348 . S
C1993 C1991 1.356 . S
H1994 C1988 0.930 . S
H1995 C1992 0.930 . S
O1996 Li1936 1.956 . S
O1996 Li1937 1.970 . S
O1996 Li1938 1.961 . S
O1996 C1940 1.325 . S
O1997 Li1936 1.970 . S
O1997 Li1937 1.956 . S
O1997 Li1939 1.961 . S
O1997 C1946 1.325 . S
O1998 Li1936 1.961 . S
O1998 Li1938 1.956 . S
O1998 Li1939 1.970 . S
O1998 C1968 1.325 . S
O1999 Li1937 1.961 . S
O1999 Li1938 1.970 . S
O1999 Li1939 1.956 . S
O1999 C1974 1.325 . S
H2000 C1942 0.929 . S
H2001 C1943 0.930 . S
H2002 C1944 0.930 . S
H2003 C1945 0.930 . S
H2004 C1947 0.930 . S
H2005 C1949 0.929 . S
H2006 C1950 0.930 . S
H2007 C1951 0.930 . S
H2008 C1954 0.930 . S
H2009 C1957 0.929 . S
H2010 C1962 0.929 . S
H2011 C1963 0.930 . S
H2012 C1970 0.929 . S
H2013 C1971 0.930 . S
H2014 C1972 0.930 . S
H2015 C1973 0.930 . S
H2016 C1975 0.929 . S
H2017 C1976 0.930 . S
H2018 C1977 0.930 . S
H2019 C1978 0.930 . S
H2020 C1982 0.929 . S
H2021 C1984 0.930 . S
H2022 C1990 0.929 . S
H2023 C1991 0.930 . S
Li2024 N2041 1.990 . S
Li2024 O2084 1.956 . S
Li2024 O2085 1.970 . S
Li2024 O2086 1.961 . S
Li2025 N2049 1.990 . S
Li2025 O2084 1.970 . S
Li2025 O2085 1.956 . S
Li2025 O2087 1.961 . S
Li2026 N2071 1.990 . S
Li2026 O2084 1.961 . S
Li2026 O2086 1.956 . S
Li2026 O2087 1.970 . S
Li2027 N2077 1.990 . S
Li2027 O2085 1.961 . S
Li2027 O2086 1.970 . S
Li2027 O2087 1.956 . S
C2028 C2030 1.348 . S
C2028 C2031 1.356 . S
C2028 O2084 1.325 . S
N2029 C2032 1.314 . S
N2029 C2033 1.279 . S
C2030 C2028 1.348 . S
C2030 C2032 1.353 . S
C2030 H2088 0.929 . S
C2031 C2028 1.356 . S
C2031 C2033 1.358 . S
C2031 H2089 0.930 . S
C2032 N2029 1.314 . S
C2032 C2030 1.353 . S
C2032 H2090 0.930 . S
C2033 N2029 1.279 . S
C2033 C2031 1.358 . S
C2033 H2091 0.930 . S
C2034 C2037 1.348 . S
C2034 C2038 1.356 . S
C2034 O2085 1.325 . S
C2035 N2036 1.279 . S
C2035 C2038 1.358 . S
C2035 H2092 0.930 . S
N2036 C2035 1.279 . S
N2036 C2039 1.314 . S
C2037 C2034 1.348 . S
C2037 C2039 1.353 . S
C2037 H2093 0.929 . S
C2038 C2034 1.356 . S
C2038 C2035 1.358 . S
C2038 H2094 0.930 . S
C2039 N2036 1.314 . S
C2039 C2037 1.353 . S
C2039 H2095 0.930 . S
C2040 N2041 1.314 . S
C2040 C2045 1.353 . S
C2040 H2046 0.930 . S
N2041 Li2024 1.990 . S
N2041 C2040 1.314 . S
N2041 C2043 1.279 . S
C2042 C2043 1.358 . S
C2042 C2044 1.356 . S
C2042 H2096 0.930 . S
C2043 N2041 1.279 . S
C2043 C2042 1.358 . S
C2043 H2047 0.930 . S
C2044 C2042 1.356 . S
C2044 C2045 1.348 . S
C2045 C2040 1.353 . S
C2045 C2044 1.348 . S
C2045 H2097 0.929 . S
H2046 C2040 0.930 . S
H2047 C2043 0.930 . S
C2048 N2049 1.314 . S
C2048 C2050 1.353 . S
C2048 H2054 0.930 . S
N2049 Li2025 1.990 . S
N2049 C2048 1.314 . S
N2049 C2052 1.279 . S
C2050 C2048 1.353 . S
C2050 C2053 1.348 . S
C2050 H2098 0.929 . S
C2051 C2052 1.358 . S
C2051 C2053 1.356 . S
C2051 H2099 0.930 . S
C2052 N2049 1.279 . S
C2052 C2051 1.358 . S
C2052 H2055 0.930 . S
C2053 C2050 1.348 . S
C2053 C2051 1.356 . S
H2054 C2048 0.930 . S
H2055 C2052 0.930 . S
C2056 C2058 1.348 . S
C2056 C2059 1.356 . S
C2056 O2086 1.325 . S
N2057 C2060 1.314 . S
N2057 C2061 1.279 . S
C2058 C2056 1.348 . S
C2058 C2060 1.353 . S
C2058 H2100 0.929 . S
C2059 C2056 1.356 . S
C2059 C2061 1.358 . S
C2059 H2101 0.930 . S
C2060 N2057 1.314 . S
C2060 C2058 1.353 . S
C2060 H2102 0.930 . S
C2061 N2057 1.279 . S
C2061 C2059 1.358 . S
C2061 H2103 0.930 . S
C2062 C2063 1.348 . S
C2062 C2064 1.356 . S
C2062 O2087 1.325 . S
C2063 C2062 1.348 . S
C2063 C2065 1.353 . S
C2063 H2104 0.929 . S
C2064 C2062 1.356 . S
C2064 C2066 1.358 . S
C2064 H2105 0.930 . S
C2065 C2063 1.353 . S
C2065 N2067 1.314 . S
C2065 H2106 0.930 . S
C2066 C2064 1.358 . S
C2066 N2067 1.279 . S
C2066 H2107 0.930 . S
N2067 C2065 1.314 . S
N2067 C2066 1.279 . S
C2068 C2070 1.353 . S
C2068 N2071 1.314 . S
C2068 H2074 0.930 . S
C2069 N2071 1.279 . S
C2069 C2072 1.358 . S
C2069 H2075 0.930 . S
C2070 C2068 1.353 . S
C2070 C2073 1.348 . S
C2070 H2108 0.929 . S
N2071 Li2026 1.990 . S
N2071 C2068 1.314 . S
N2071 C2069 1.279 . S
C2072 C2069 1.358 . S
C2072 C2073 1.356 . S
C2072 H2109 0.930 . S
C2073 C2070 1.348 . S
C2073 C2072 1.356 . S
H2074 C2068 0.930 . S
H2075 C2069 0.930 . S
C2076 N2077 1.314 . S
C2076 C2078 1.353 . S
C2076 H2082 0.930 . S
N2077 Li2027 1.990 . S
N2077 C2076 1.314 . S
N2077 C2080 1.279 . S
C2078 C2076 1.353 . S
C2078 C2081 1.348 . S
C2078 H2110 0.929 . S
C2079 C2080 1.358 . S
C2079 C2081 1.356 . S
C2079 H2111 0.930 . S
C2080 N2077 1.279 . S
C2080 C2079 1.358 . S
C2080 H2083 0.930 . S
C2081 C2078 1.348 . S
C2081 C2079 1.356 . S
H2082 C2076 0.930 . S
H2083 C2080 0.930 . S
O2084 Li2024 1.956 . S
O2084 Li2025 1.970 . S
O2084 Li2026 1.961 . S
O2084 C2028 1.325 . S
O2085 Li2024 1.970 . S
O2085 Li2025 1.956 . S
O2085 Li2027 1.961 . S
O2085 C2034 1.325 . S
O2086 Li2024 1.961 . S
O2086 Li2026 1.956 . S
O2086 Li2027 1.970 . S
O2086 C2056 1.325 . S
O2087 Li2025 1.961 . S
O2087 Li2026 1.970 . S
O2087 Li2027 1.956 . S
O2087 C2062 1.325 . S
H2088 C2030 0.929 . S
H2089 C2031 0.930 . S
H2090 C2032 0.930 . S
H2091 C2033 0.930 . S
H2092 C2035 0.930 . S
H2093 C2037 0.929 . S
H2094 C2038 0.930 . S
H2095 C2039 0.930 . S
H2096 C2042 0.930 . S
H2097 C2045 0.929 . S
H2098 C2050 0.929 . S
H2099 C2051 0.930 . S
H2100 C2058 0.929 . S
H2101 C2059 0.930 . S
H2102 C2060 0.930 . S
H2103 C2061 0.930 . S
H2104 C2063 0.929 . S
H2105 C2064 0.930 . S
H2106 C2065 0.930 . S
H2107 C2066 0.930 . S
H2108 C2070 0.929 . S
H2109 C2072 0.930 . S
H2110 C2078 0.929 . S
H2111 C2079 0.930 . S
O2112 Mn2113 2.163 . S
O2112 C2126 1.241 1_554 S
Mn2113 O2112 2.163 . S
Mn2113 O2116 2.160 1_445 S
Mn2113 O2117 2.221 1_455 S
Mn2113 O2119 2.163 1_454 S
Mn2113 O2121 2.160 1_545 S
Mn2113 O2131 2.221 1_545 S
O2114 Mn2115 2.110 1_556 S
O2114 C2126 1.234 1_565 S
Mn2115 O2114 2.110 1_554 S
Mn2115 O2122 2.089 . S
Mn2115 O2131 2.290 . S
Mn2115 O2132 2.251 1_554 S
O2116 Mn2113 2.160 1_665 S
O2116 C2127 1.239 . S
O2117 Mn2113 2.221 1_655 S
O2117 Mn2118 2.290 1_554 S
O2117 C2128 1.278 . S
Mn2118 O2117 2.290 1_556 S
Mn2118 O2120 2.089 1_556 S
Mn2118 O2123 2.251 1_556 S
Mn2118 O2124 2.087 . S
O2119 Mn2113 2.163 1_656 S
O2119 C2129 1.244 . S
O2120 Mn2118 2.089 1_554 S
O2120 C2127 1.256 1_545 S
O2121 Mn2113 2.160 1_565 S
O2121 C2130 1.239 . S
O2122 Mn2115 2.089 . S
O2122 C2130 1.256 . S
O2123 Mn2118 2.251 1_554 S
O2123 C2128 1.241 . S
O2124 Mn2118 2.087 . S
O2124 C2129 1.256 . S
C2125 O2131 1.278 1_556 S
C2125 O2132 1.241 . S
C2126 O2112 1.241 1_556 S
C2126 O2114 1.234 1_545 S
C2127 O2116 1.239 . S
C2127 O2120 1.256 1_565 S
C2128 O2117 1.278 . S
C2128 O2123 1.241 . S
C2129 O2119 1.244 . S
C2129 O2124 1.256 . S
C2130 O2121 1.239 . S
C2130 O2122 1.256 . S
O2131 Mn2113 2.221 1_565 S
O2131 Mn2115 2.290 . S
O2131 C2125 1.278 1_554 S
O2132 Mn2115 2.251 1_556 S
O2132 C2125 1.241 . S
O2133 Mn2134 2.163 . S
O2133 C2147 1.244 . S
Mn2134 O2133 2.163 . S
Mn2134 O2137 2.160 . S
Mn2134 O2138 2.221 . S
Mn2134 O2140 2.163 . S
Mn2134 O2142 2.160 . S
Mn2134 O2152 2.221 . S
O2135 Mn2136 2.087 . S
O2135 C2147 1.256 . S
Mn2136 O2135 2.087 . S
Mn2136 O2143 2.089 . S
Mn2136 O2152 2.290 . S
Mn2136 O2153 2.251 . S
O2137 Mn2134 2.160 . S
O2137 C2148 1.239 . S
O2138 Mn2134 2.221 . S
O2138 Mn2139 2.290 . S
O2138 C2149 1.278 . S
Mn2139 O2138 2.290 . S
Mn2139 O2141 2.089 . S
Mn2139 O2144 2.251 . S
Mn2139 O2145 2.087 . S
O2140 Mn2134 2.163 . S
O2140 C2150 1.244 . S
O2141 Mn2139 2.089 . S
O2141 C2148 1.256 . S
O2142 Mn2134 2.160 . S
O2142 C2151 1.239 . S
O2143 Mn2136 2.089 . S
O2143 C2151 1.256 . S
O2144 Mn2139 2.251 . S
O2144 C2149 1.241 . S
O2145 Mn2139 2.087 . S
O2145 C2150 1.256 . S
C2146 O2152 1.278 . S
C2146 O2153 1.241 . S
C2147 O2133 1.244 . S
C2147 O2135 1.256 . S
C2148 O2137 1.239 . S
C2148 O2141 1.256 . S
C2149 O2138 1.278 . S
C2149 O2144 1.241 . S
C2150 O2140 1.244 . S
C2150 O2145 1.256 . S
C2151 O2142 1.239 . S
C2151 O2143 1.256 . S
O2152 Mn2134 2.221 . S
O2152 Mn2136 2.290 . S
O2152 C2146 1.278 . S
O2153 Mn2136 2.251 . S
O2153 C2146 1.241 . S
O2154 Mn2155 2.163 1_565 S
O2154 C2168 1.244 . S
Mn2155 O2154 2.163 1_545 S
Mn2155 O2158 2.160 . S
Mn2155 O2159 2.221 1_545 S
Mn2155 O2161 2.163 . S
Mn2155 O2163 2.160 . S
Mn2155 O2173 2.221 . S
O2156 Mn2157 2.087 . S
O2156 C2168 1.256 1_545 S
Mn2157 O2156 2.087 . S
Mn2157 O2164 2.089 . S
Mn2157 O2173 2.290 . S
Mn2157 O2174 2.251 . S
O2158 Mn2155 2.160 . S
O2158 C2169 1.239 . S
O2159 Mn2155 2.221 1_565 S
O2159 Mn2160 2.290 . S
O2159 C2170 1.278 . S
Mn2160 O2159 2.290 . S
Mn2160 O2162 2.089 1_565 S
Mn2160 O2165 2.251 . S
Mn2160 O2166 2.087 . S
O2161 Mn2155 2.163 . S
O2161 C2171 1.244 1_545 S
O2162 Mn2160 2.089 1_545 S
O2162 C2169 1.256 . S
O2163 Mn2155 2.160 . S
O2163 C2172 1.239 . S
O2164 Mn2157 2.089 . S
O2164 C2172 1.256 . S
O2165 Mn2160 2.251 . S
O2165 C2170 1.241 . S
O2166 Mn2160 2.087 . S
O2166 C2171 1.256 . S
C2167 O2173 1.278 . S
C2167 O2174 1.241 . S
C2168 O2154 1.244 . S
C2168 O2156 1.256 1_565 S
C2169 O2158 1.239 . S
C2169 O2162 1.256 . S
C2170 O2159 1.278 . S
C2170 O2165 1.241 . S
C2171 O2161 1.244 1_565 S
C2171 O2166 1.256 . S
C2172 O2163 1.239 . S
C2172 O2164 1.256 . S
O2173 Mn2155 2.221 . S
O2173 Mn2157 2.290 . S
O2173 C2167 1.278 . S
O2174 Mn2157 2.251 . S
O2174 C2167 1.241 . S
O2175 Mn2176 2.163 . S
O2175 C2189 1.244 . S
Mn2176 O2175 2.163 . S
Mn2176 O2179 2.160 . S
Mn2176 O2180 2.221 . S
Mn2176 O2182 2.163 . S
Mn2176 O2184 2.160 . S
Mn2176 O2194 2.221 . S
O2177 Mn2178 2.087 . S
O2177 C2189 1.256 . S
Mn2178 O2177 2.087 . S
Mn2178 O2185 2.089 . S
Mn2178 O2194 2.290 . S
Mn2178 O2195 2.251 . S
O2179 Mn2176 2.160 . S
O2179 C2190 1.239 . S
O2180 Mn2176 2.221 . S
O2180 Mn2181 2.290 . S
O2180 C2191 1.278 . S
Mn2181 O2180 2.290 . S
Mn2181 O2183 2.089 . S
Mn2181 O2186 2.251 . S
Mn2181 O2187 2.087 . S
O2182 Mn2176 2.163 . S
O2182 C2192 1.244 . S
O2183 Mn2181 2.089 . S
O2183 C2190 1.256 . S
O2184 Mn2176 2.160 . S
O2184 C2193 1.239 . S
O2185 Mn2178 2.089 . S
O2185 C2193 1.256 . S
O2186 Mn2181 2.251 . S
O2186 C2191 1.241 . S
O2187 Mn2181 2.087 . S
O2187 C2192 1.256 . S
C2188 O2194 1.278 . S
C2188 O2195 1.241 . S
C2189 O2175 1.244 . S
C2189 O2177 1.256 . S
C2190 O2179 1.239 . S
C2190 O2183 1.256 . S
C2191 O2180 1.278 . S
C2191 O2186 1.241 . S
C2192 O2182 1.244 . S
C2192 O2187 1.256 . S
C2193 O2184 1.239 . S
C2193 O2185 1.256 . S
O2194 Mn2176 2.221 . S
O2194 Mn2178 2.290 . S
O2194 C2188 1.278 . S
O2195 Mn2178 2.251 . S
O2195 C2188 1.241 . S
O2196 Mn2197 2.163 1_565 S
O2196 C2210 1.250 . S
Mn2197 O2196 2.163 1_545 S
Mn2197 O2200 2.160 . S
Mn2197 O2201 2.221 . S
Mn2197 O2203 2.163 1_455 S
Mn2197 O2205 2.160 1_545 S
Mn2197 O2215 2.221 1_545 S
O2198 Mn2199 2.075 1_655 S
O2198 C2210 1.253 1_655 S
Mn2199 O2198 2.075 1_455 S
Mn2199 O2206 2.089 . S
Mn2199 O2215 2.290 . S
Mn2199 O2216 2.251 1_455 S
O2200 Mn2197 2.160 . S
O2200 C2211 1.239 . S
O2201 Mn2197 2.221 . S
O2201 Mn2202 2.291 . S
O2201 C2212 1.278 . S
Mn2202 O2201 2.291 . S
Mn2202 O2204 2.089 . S
Mn2202 O2207 2.252 . S
Mn2202 O2208 2.085 1_455 S
O2203 Mn2197 2.163 1_655 S
O2203 C2213 1.244 . S
O2204 Mn2202 2.089 . S
O2204 C2211 1.256 . S
O2205 Mn2197 2.160 1_565 S
O2205 C2214 1.239 . S
O2206 Mn2199 2.089 . S
O2206 C2214 1.256 . S
O2207 Mn2202 2.252 . S
O2207 C2212 1.241 . S
O2208 Mn2202 2.085 1_655 S
O2208 C2213 1.256 . S
C2209 O2215 1.278 1_655 S
C2209 O2216 1.241 . S
C2210 O2196 1.250 . S
C2210 O2198 1.253 1_455 S
C2211 O2200 1.239 . S
C2211 O2204 1.256 . S
C2212 O2201 1.278 . S
C2212 O2207 1.241 . S
C2213 O2203 1.244 . S
C2213 O2208 1.256 . S
C2214 O2205 1.239 . S
C2214 O2206 1.256 . S
O2215 Mn2197 2.221 1_565 S
O2215 Mn2199 2.290 . S
O2215 C2209 1.278 1_455 S
O2216 Mn2199 2.251 1_655 S
O2216 C2209 1.241 . S
O2217 Mn2218 2.163 . S
O2217 C2231 1.244 . S
Mn2218 O2217 2.163 . S
Mn2218 O2221 2.160 . S
Mn2218 O2222 2.221 . S
Mn2218 O2224 2.163 . S
Mn2218 O2226 2.160 . S
Mn2218 O2236 2.221 . S
O2219 Mn2220 2.087 . S
O2219 C2231 1.256 . S
Mn2220 O2219 2.087 . S
Mn2220 O2227 2.089 . S
Mn2220 O2236 2.290 . S
Mn2220 O2237 2.251 . S
O2221 Mn2218 2.160 . S
O2221 C2232 1.239 . S
O2222 Mn2218 2.221 . S
O2222 Mn2223 2.290 . S
O2222 C2233 1.278 . S
Mn2223 O2222 2.290 . S
Mn2223 O2225 2.089 . S
Mn2223 O2228 2.251 . S
Mn2223 O2229 2.087 . S
O2224 Mn2218 2.163 . S
O2224 C2234 1.244 . S
O2225 Mn2223 2.089 . S
O2225 C2232 1.256 . S
O2226 Mn2218 2.160 . S
O2226 C2235 1.239 . S
O2227 Mn2220 2.089 . S
O2227 C2235 1.256 . S
O2228 Mn2223 2.251 . S
O2228 C2233 1.241 . S
O2229 Mn2223 2.087 . S
O2229 C2234 1.256 . S
C2230 O2236 1.278 . S
C2230 O2237 1.241 . S
C2231 O2217 1.244 . S
C2231 O2219 1.256 . S
C2232 O2221 1.239 . S
C2232 O2225 1.256 . S
C2233 O2222 1.278 . S
C2233 O2228 1.241 . S
C2234 O2224 1.244 . S
C2234 O2229 1.256 . S
C2235 O2226 1.239 . S
C2235 O2227 1.256 . S
O2236 Mn2218 2.221 . S
O2236 Mn2220 2.290 . S
O2236 C2230 1.278 . S
O2237 Mn2220 2.251 . S
O2237 C2230 1.241 . S
O2238 Mn2239 2.163 1_556 S
O2238 C2252 1.244 1_545 S
Mn2239 O2238 2.163 1_554 S
Mn2239 O2242 2.160 . S
Mn2239 O2243 2.221 . S
Mn2239 O2245 2.163 1_545 S
Mn2239 O2247 2.160 1_554 S
Mn2239 O2257 2.219 1_544 S
O2240 Mn2241 2.087 1_565 S
O2240 C2252 1.256 . S
Mn2241 O2240 2.087 1_545 S
Mn2241 O2248 2.089 . S
Mn2241 O2257 2.287 1_545 S
Mn2241 O2258 2.251 1_545 S
O2242 Mn2239 2.160 . S
O2242 C2253 1.239 . S
O2243 Mn2239 2.221 . S
O2243 Mn2244 2.290 1_545 S
O2243 C2254 1.278 . S
Mn2244 O2243 2.290 1_565 S
Mn2244 O2246 2.089 1_565 S
Mn2244 O2249 2.251 1_565 S
Mn2244 O2250 2.087 . S
O2245 Mn2239 2.163 1_565 S
O2245 C2255 1.244 . S
O2246 Mn2244 2.089 1_545 S
O2246 C2253 1.256 . S
O2247 Mn2239 2.160 1_556 S
O2247 C2256 1.239 . S
O2248 Mn2241 2.089 . S
O2248 C2256 1.256 . S
O2249 Mn2244 2.251 1_545 S
O2249 C2254 1.241 . S
O2250 Mn2244 2.087 . S
O2250 C2255 1.256 . S
C2251 O2257 1.285 . S
C2251 O2258 1.241 . S
C2252 O2238 1.244 1_565 S
C2252 O2240 1.256 . S
C2253 O2242 1.239 . S
C2253 O2246 1.256 . S
C2254 O2243 1.278 . S
C2254 O2249 1.241 . S
C2255 O2245 1.244 . S
C2255 O2250 1.256 . S
C2256 O2247 1.239 . S
C2256 O2248 1.256 . S
O2257 Mn2239 2.219 1_566 S
O2257 Mn2241 2.287 1_565 S
O2257 C2251 1.285 . S
O2258 Mn2241 2.251 1_565 S
O2258 C2251 1.241 . S
O2259 Mn2260 2.163 . S
O2259 C2273 1.244 . S
Mn2260 O2259 2.163 . S
Mn2260 O2263 2.160 . S
Mn2260 O2264 2.221 . S
Mn2260 O2266 2.163 . S
Mn2260 O2268 2.160 . S
Mn2260 O2278 2.221 . S
O2261 Mn2262 2.087 . S
O2261 C2273 1.256 . S
Mn2262 O2261 2.087 . S
Mn2262 O2269 2.089 . S
Mn2262 O2278 2.290 . S
Mn2262 O2279 2.251 . S
O2263 Mn2260 2.160 . S
O2263 C2274 1.239 . S
O2264 Mn2260 2.221 . S
O2264 Mn2265 2.290 . S
O2264 C2275 1.278 . S
Mn2265 O2264 2.290 . S
Mn2265 O2267 2.089 . S
Mn2265 O2270 2.251 . S
Mn2265 O2271 2.087 . S
O2266 Mn2260 2.163 . S
O2266 C2276 1.244 . S
O2267 Mn2265 2.089 . S
O2267 C2274 1.256 . S
O2268 Mn2260 2.160 . S
O2268 C2277 1.239 . S
O2269 Mn2262 2.089 . S
O2269 C2277 1.256 . S
O2270 Mn2265 2.251 . S
O2270 C2275 1.241 . S
O2271 Mn2265 2.087 . S
O2271 C2276 1.256 . S
C2272 O2278 1.278 . S
C2272 O2279 1.241 . S
C2273 O2259 1.244 . S
C2273 O2261 1.256 . S
C2274 O2263 1.239 . S
C2274 O2267 1.256 . S
C2275 O2264 1.278 . S
C2275 O2270 1.241 . S
C2276 O2266 1.244 . S
C2276 O2271 1.256 . S
C2277 O2268 1.239 . S
C2277 O2269 1.256 . S
O2278 Mn2260 2.221 . S
O2278 Mn2262 2.290 . S
O2278 C2272 1.278 . S
O2279 Mn2262 2.251 . S
O2279 C2272 1.241 . S
O2280 Mn2281 2.163 1_556 S
O2280 C2294 1.244 . S
Mn2281 O2280 2.163 1_554 S
Mn2281 O2284 2.160 . S
Mn2281 O2285 2.221 1_554 S
Mn2281 O2287 2.163 . S
Mn2281 O2289 2.160 . S
Mn2281 O2299 2.221 . S
O2282 Mn2283 2.087 . S
O2282 C2294 1.256 1_554 S
Mn2283 O2282 2.087 . S
Mn2283 O2290 2.089 . S
Mn2283 O2299 2.290 . S
Mn2283 O2300 2.251 . S
O2284 Mn2281 2.160 . S
O2284 C2295 1.239 . S
O2285 Mn2281 2.221 1_556 S
O2285 Mn2286 2.290 . S
O2285 C2296 1.278 . S
Mn2286 O2285 2.290 . S
Mn2286 O2288 2.089 1_556 S
Mn2286 O2291 2.251 . S
Mn2286 O2292 2.087 . S
O2287 Mn2281 2.163 . S
O2287 C2297 1.244 1_554 S
O2288 Mn2286 2.089 1_554 S
O2288 C2295 1.256 . S
O2289 Mn2281 2.160 . S
O2289 C2298 1.239 . S
O2290 Mn2283 2.089 . S
O2290 C2298 1.256 . S
O2291 Mn2286 2.251 . S
O2291 C2296 1.241 . S
O2292 Mn2286 2.087 . S
O2292 C2297 1.256 . S
C2293 O2299 1.278 . S
C2293 O2300 1.241 . S
C2294 O2280 1.244 . S
C2294 O2282 1.256 1_556 S
C2295 O2284 1.239 . S
C2295 O2288 1.256 . S
C2296 O2285 1.278 . S
C2296 O2291 1.241 . S
C2297 O2287 1.244 1_556 S
C2297 O2292 1.256 . S
C2298 O2289 1.239 . S
C2298 O2290 1.256 . S
O2299 Mn2281 2.221 . S
O2299 Mn2283 2.290 . S
O2299 C2293 1.278 . S
O2300 Mn2283 2.251 . S
O2300 C2293 1.241 . S
O2301 Mn2302 2.163 . S
O2301 C2315 1.244 . S
Mn2302 O2301 2.163 . S
Mn2302 O2305 2.160 . S
Mn2302 O2306 2.221 . S
Mn2302 O2308 2.163 . S
Mn2302 O2310 2.160 . S
Mn2302 O2320 2.221 . S
O2303 Mn2304 2.087 . S
O2303 C2315 1.256 . S
Mn2304 O2303 2.087 . S
Mn2304 O2311 2.089 . S
Mn2304 O2320 2.290 . S
Mn2304 O2321 2.251 . S
O2305 Mn2302 2.160 . S
O2305 C2316 1.239 . S
O2306 Mn2302 2.221 . S
O2306 Mn2307 2.290 . S
O2306 C2317 1.278 . S
Mn2307 O2306 2.290 . S
Mn2307 O2309 2.089 . S
Mn2307 O2312 2.251 . S
Mn2307 O2313 2.087 . S
O2308 Mn2302 2.163 . S
O2308 C2318 1.244 . S
O2309 Mn2307 2.089 . S
O2309 C2316 1.256 . S
O2310 Mn2302 2.160 . S
O2310 C2319 1.239 . S
O2311 Mn2304 2.089 . S
O2311 C2319 1.256 . S
O2312 Mn2307 2.251 . S
O2312 C2317 1.241 . S
O2313 Mn2307 2.087 . S
O2313 C2318 1.256 . S
C2314 O2320 1.278 . S
C2314 O2321 1.241 . S
C2315 O2301 1.244 . S
C2315 O2303 1.256 . S
C2316 O2305 1.239 . S
C2316 O2309 1.256 . S
C2317 O2306 1.278 . S
C2317 O2312 1.241 . S
C2318 O2308 1.244 . S
C2318 O2313 1.256 . S
C2319 O2310 1.239 . S
C2319 O2311 1.256 . S
O2320 Mn2302 2.221 . S
O2320 Mn2304 2.290 . S
O2320 C2314 1.278 . S
O2321 Mn2304 2.251 . S
O2321 C2314 1.241 . S
O2322 Mn2323 2.163 1_655 S
O2322 C2336 1.244 . S
Mn2323 O2322 2.163 1_455 S
Mn2323 O2326 2.160 . S
Mn2323 O2327 2.221 1_455 S
Mn2323 O2329 2.163 . S
Mn2323 O2331 2.160 . S
Mn2323 O2341 2.221 . S
O2324 Mn2325 2.087 . S
O2324 C2336 1.256 1_455 S
Mn2325 O2324 2.087 . S
Mn2325 O2332 2.089 . S
Mn2325 O2341 2.290 . S
Mn2325 O2342 2.251 . S
O2326 Mn2323 2.160 . S
O2326 C2337 1.239 . S
O2327 Mn2323 2.221 1_655 S
O2327 Mn2328 2.290 . S
O2327 C2338 1.278 . S
Mn2328 O2327 2.290 . S
Mn2328 O2330 2.089 1_655 S
Mn2328 O2333 2.251 . S
Mn2328 O2334 2.087 . S
O2329 Mn2323 2.163 . S
O2329 C2339 1.244 1_455 S
O2330 Mn2328 2.089 1_455 S
O2330 C2337 1.256 . S
O2331 Mn2323 2.160 . S
O2331 C2340 1.239 . S
O2332 Mn2325 2.089 . S
O2332 C2340 1.256 . S
O2333 Mn2328 2.251 . S
O2333 C2338 1.241 . S
O2334 Mn2328 2.087 . S
O2334 C2339 1.256 . S
C2335 O2341 1.278 . S
C2335 O2342 1.241 . S
C2336 O2322 1.244 . S
C2336 O2324 1.256 1_655 S
C2337 O2326 1.239 . S
C2337 O2330 1.256 . S
C2338 O2327 1.278 . S
C2338 O2333 1.241 . S
C2339 O2329 1.244 1_655 S
C2339 O2334 1.256 . S
C2340 O2331 1.239 . S
C2340 O2332 1.256 . S
O2341 Mn2323 2.221 . S
O2341 Mn2325 2.290 . S
O2341 C2335 1.278 . S
O2342 Mn2325 2.251 . S
O2342 C2335 1.241 . S
O2343 Mn2344 2.163 . S
O2343 C2357 1.244 . S
Mn2344 O2343 2.163 . S
Mn2344 O2347 2.160 . S
Mn2344 O2348 2.221 . S
Mn2344 O2350 2.163 . S
Mn2344 O2352 2.160 . S
Mn2344 O2362 2.221 . S
O2345 Mn2346 2.087 . S
O2345 C2357 1.256 . S
Mn2346 O2345 2.087 . S
Mn2346 O2353 2.089 . S
Mn2346 O2362 2.290 . S
Mn2346 O2363 2.251 . S
O2347 Mn2344 2.160 . S
O2347 C2358 1.239 . S
O2348 Mn2344 2.221 . S
O2348 Mn2349 2.290 . S
O2348 C2359 1.278 . S
Mn2349 O2348 2.290 . S
Mn2349 O2351 2.089 . S
Mn2349 O2354 2.251 . S
Mn2349 O2355 2.087 . S
O2350 Mn2344 2.163 . S
O2350 C2360 1.244 . S
O2351 Mn2349 2.089 . S
O2351 C2358 1.256 . S
O2352 Mn2344 2.160 . S
O2352 C2361 1.239 . S
O2353 Mn2346 2.089 . S
O2353 C2361 1.256 . S
O2354 Mn2349 2.251 . S
O2354 C2359 1.241 . S
O2355 Mn2349 2.087 . S
O2355 C2360 1.256 . S
C2356 O2362 1.278 . S
C2356 O2363 1.241 . S
C2357 O2343 1.244 . S
C2357 O2345 1.256 . S
C2358 O2347 1.239 . S
C2358 O2351 1.256 . S
C2359 O2348 1.278 . S
C2359 O2354 1.241 . S
C2360 O2350 1.244 . S
C2360 O2355 1.256 . S
C2361 O2352 1.239 . S
C2361 O2353 1.256 . S
O2362 Mn2344 2.221 . S
O2362 Mn2346 2.290 . S
O2362 C2356 1.278 . S
O2363 Mn2346 2.251 . S
O2363 C2356 1.241 . S
O2364 Mn2365 2.163 . S
O2364 C2378 1.244 . S
Mn2365 O2364 2.163 . S
Mn2365 O2368 2.160 . S
Mn2365 O2369 2.221 . S
Mn2365 O2371 2.163 . S
Mn2365 O2373 2.160 . S
Mn2365 O2383 2.221 . S
O2366 Mn2367 2.087 . S
O2366 C2378 1.256 . S
Mn2367 O2366 2.087 . S
Mn2367 O2374 2.089 . S
Mn2367 O2383 2.290 . S
Mn2367 O2384 2.251 . S
O2368 Mn2365 2.160 . S
O2368 C2379 1.239 . S
O2369 Mn2365 2.221 . S
O2369 Mn2370 2.290 . S
O2369 C2380 1.278 . S
Mn2370 O2369 2.290 . S
Mn2370 O2372 2.089 . S
Mn2370 O2375 2.251 . S
Mn2370 O2376 2.087 . S
O2371 Mn2365 2.163 . S
O2371 C2381 1.244 . S
O2372 Mn2370 2.089 . S
O2372 C2379 1.256 . S
O2373 Mn2365 2.160 . S
O2373 C2382 1.239 . S
O2374 Mn2367 2.089 . S
O2374 C2382 1.256 . S
O2375 Mn2370 2.251 . S
O2375 C2380 1.241 . S
O2376 Mn2370 2.087 . S
O2376 C2381 1.256 . S
C2377 O2383 1.278 . S
C2377 O2384 1.241 . S
C2378 O2364 1.244 . S
C2378 O2366 1.256 . S
C2379 O2368 1.239 . S
C2379 O2372 1.256 . S
C2380 O2369 1.278 . S
C2380 O2375 1.241 . S
C2381 O2371 1.244 . S
C2381 O2376 1.256 . S
C2382 O2373 1.239 . S
C2382 O2374 1.256 . S
O2383 Mn2365 2.221 . S
O2383 Mn2367 2.290 . S
O2383 C2377 1.278 . S
O2384 Mn2367 2.251 . S
O2384 C2377 1.241 . S
O2385 Mn2386 2.163 . S
O2385 C2399 1.244 . S
Mn2386 O2385 2.163 . S
Mn2386 O2389 2.160 . S
Mn2386 O2390 2.221 . S
Mn2386 O2392 2.163 . S
Mn2386 O2394 2.160 . S
Mn2386 O2404 2.221 . S
O2387 Mn2388 2.087 . S
O2387 C2399 1.256 . S
Mn2388 O2387 2.087 . S
Mn2388 O2395 2.089 . S
Mn2388 O2404 2.290 . S
Mn2388 O2405 2.251 . S
O2389 Mn2386 2.160 . S
O2389 C2400 1.239 . S
O2390 Mn2386 2.221 . S
O2390 Mn2391 2.290 . S
O2390 C2401 1.278 . S
Mn2391 O2390 2.290 . S
Mn2391 O2393 2.089 . S
Mn2391 O2396 2.251 . S
Mn2391 O2397 2.087 . S
O2392 Mn2386 2.163 . S
O2392 C2402 1.244 . S
O2393 Mn2391 2.089 . S
O2393 C2400 1.256 . S
O2394 Mn2386 2.160 . S
O2394 C2403 1.239 . S
O2395 Mn2388 2.089 . S
O2395 C2403 1.256 . S
O2396 Mn2391 2.251 . S
O2396 C2401 1.241 . S
O2397 Mn2391 2.087 . S
O2397 C2402 1.256 . S
C2398 O2404 1.278 . S
C2398 O2405 1.241 . S
C2399 O2385 1.244 . S
C2399 O2387 1.256 . S
C2400 O2389 1.239 . S
C2400 O2393 1.256 . S
C2401 O2390 1.278 . S
C2401 O2396 1.241 . S
C2402 O2392 1.244 . S
C2402 O2397 1.256 . S
C2403 O2394 1.239 . S
C2403 O2395 1.256 . S
O2404 Mn2386 2.221 . S
O2404 Mn2388 2.290 . S
O2404 C2398 1.278 . S
O2405 Mn2388 2.251 . S
O2405 C2398 1.241 . S
O2406 Mn2407 2.163 . S
O2406 C2420 1.244 . S
Mn2407 O2406 2.163 . S
Mn2407 O2410 2.160 . S
Mn2407 O2411 2.221 . S
Mn2407 O2413 2.163 . S
Mn2407 O2415 2.160 . S
Mn2407 O2425 2.221 . S
O2408 Mn2409 2.087 . S
O2408 C2420 1.256 . S
Mn2409 O2408 2.087 . S
Mn2409 O2416 2.089 . S
Mn2409 O2425 2.290 . S
Mn2409 O2426 2.251 . S
O2410 Mn2407 2.160 . S
O2410 C2421 1.239 . S
O2411 Mn2407 2.221 . S
O2411 Mn2412 2.290 . S
O2411 C2422 1.278 . S
Mn2412 O2411 2.290 . S
Mn2412 O2414 2.089 . S
Mn2412 O2417 2.251 . S
Mn2412 O2418 2.087 . S
O2413 Mn2407 2.163 . S
O2413 C2423 1.244 . S
O2414 Mn2412 2.089 . S
O2414 C2421 1.256 . S
O2415 Mn2407 2.160 . S
O2415 C2424 1.239 . S
O2416 Mn2409 2.089 . S
O2416 C2424 1.256 . S
O2417 Mn2412 2.251 . S
O2417 C2422 1.241 . S
O2418 Mn2412 2.087 . S
O2418 C2423 1.256 . S
C2419 O2425 1.278 . S
C2419 O2426 1.241 . S
C2420 O2406 1.244 . S
C2420 O2408 1.256 . S
C2421 O2410 1.239 . S
C2421 O2414 1.256 . S
C2422 O2411 1.278 . S
C2422 O2417 1.241 . S
C2423 O2413 1.244 . S
C2423 O2418 1.256 . S
C2424 O2415 1.239 . S
C2424 O2416 1.256 . S
O2425 Mn2407 2.221 . S
O2425 Mn2409 2.290 . S
O2425 C2419 1.278 . S
O2426 Mn2409 2.251 . S
O2426 C2419 1.241 . S
O2427 Mn2428 2.165 1_655 S
O2427 C2441 1.242 1_554 S
Mn2428 O2427 2.165 1_455 S
Mn2428 O2431 2.160 . S
Mn2428 O2432 2.221 . S
Mn2428 O2434 2.163 1_554 S
Mn2428 O2436 2.160 1_455 S
Mn2428 O2446 2.214 1_454 S
O2429 Mn2430 2.087 1_556 S
O2429 C2441 1.256 . S
Mn2430 O2429 2.087 1_554 S
Mn2430 O2437 2.089 . S
Mn2430 O2446 2.277 1_554 S
Mn2430 O2447 2.251 1_554 S
O2431 Mn2428 2.160 . S
O2431 C2442 1.239 . S
O2432 Mn2428 2.221 . S
O2432 Mn2433 2.290 1_554 S
O2432 C2443 1.278 . S
Mn2433 O2432 2.290 1_556 S
Mn2433 O2435 2.089 1_556 S
Mn2433 O2438 2.251 1_556 S
Mn2433 O2439 2.087 . S
O2434 Mn2428 2.163 1_556 S
O2434 C2444 1.244 . S
O2435 Mn2433 2.089 1_554 S
O2435 C2442 1.256 . S
O2436 Mn2428 2.160 1_655 S
O2436 C2445 1.239 . S
O2437 Mn2430 2.089 . S
O2437 C2445 1.256 . S
O2438 Mn2433 2.251 1_554 S
O2438 C2443 1.241 . S
O2439 Mn2433 2.087 . S
O2439 C2444 1.256 . S
C2440 O2446 1.308 . S
C2440 O2447 1.241 . S
C2441 O2427 1.242 1_556 S
C2441 O2429 1.256 . S
C2442 O2431 1.239 . S
C2442 O2435 1.256 . S
C2443 O2432 1.278 . S
C2443 O2438 1.241 . S
C2444 O2434 1.244 . S
C2444 O2439 1.256 . S
C2445 O2436 1.239 . S
C2445 O2437 1.256 . S
O2446 Mn2428 2.214 1_656 S
O2446 Mn2430 2.277 1_556 S
O2446 C2440 1.308 . S
O2447 Mn2430 2.251 1_556 S
O2447 C2440 1.241 . S
H2448 C2454 0.930 . S
H2449 C2457 0.930 . S
H2450 C2458 0.930 . S
H2451 C2459 0.930 . S
H2452 C2462 0.930 . S
H2453 C2463 0.930 . S
C2454 H2448 0.930 . S
C2454 C2455 1.355 1_655 S
C2454 C2456 1.415 . S
C2455 C2454 1.355 1_455 S
C2455 C2457 1.419 . S
C2456 C2454 1.415 . S
C2456 C2461 1.425 1_655 S
C2456 C2463 1.409 . S
C2457 H2449 0.930 . S
C2457 C2455 1.419 . S
C2457 C2458 1.362 . S
C2458 H2450 0.930 . S
C2458 C2457 1.362 . S
C2458 C2461 1.409 . S
C2459 H2451 0.930 . S
C2459 C2460 1.355 1_455 S
C2459 C2461 1.415 . S
C2460 C2459 1.355 1_655 S
C2460 C2462 1.419 . S
C2461 C2456 1.425 1_455 S
C2461 C2458 1.409 . S
C2461 C2459 1.415 . S
C2462 H2452 0.930 . S
C2462 C2460 1.419 . S
C2462 C2463 1.362 . S
C2463 H2453 0.930 . S
C2463 C2456 1.409 . S
C2463 C2462 1.362 . S
H2464 C2470 0.930 . S
H2465 C2473 0.930 . S
H2466 C2474 0.930 . S
H2467 C2475 0.930 . S
H2468 C2478 0.930 . S
H2469 C2479 0.930 . S
C2470 H2464 0.930 . S
C2470 C2471 1.355 . S
C2470 C2472 1.415 . S
C2471 C2470 1.355 . S
C2471 C2473 1.419 . S
C2472 C2470 1.415 . S
C2472 C2477 1.425 . S
C2472 C2479 1.409 . S
C2473 H2465 0.930 . S
C2473 C2471 1.419 . S
C2473 C2474 1.362 . S
C2474 H2466 0.930 . S
C2474 C2473 1.362 . S
C2474 C2477 1.409 . S
C2475 H2467 0.930 . S
C2475 C2476 1.355 . S
C2475 C2477 1.415 . S
C2476 C2475 1.355 . S
C2476 C2478 1.419 . S
C2477 C2472 1.425 . S
C2477 C2474 1.409 . S
C2477 C2475 1.415 . S
C2478 H2468 0.930 . S
C2478 C2476 1.419 . S
C2478 C2479 1.362 . S
C2479 H2469 0.930 . S
C2479 C2472 1.409 . S
C2479 C2478 1.362 . S
H2480 C2486 0.930 . S
H2481 C2489 0.930 . S
H2482 C2490 0.930 . S
H2483 C2491 0.930 . S
H2484 C2494 0.930 . S
H2485 C2495 0.930 . S
C2486 H2480 0.930 . S
C2486 C2487 1.355 . S
C2486 C2488 1.415 . S
C2487 C2486 1.355 . S
C2487 C2489 1.419 . S
C2488 C2486 1.415 . S
C2488 C2493 1.425 . S
C2488 C2495 1.409 . S
C2489 H2481 0.930 . S
C2489 C2487 1.419 . S
C2489 C2490 1.362 . S
C2490 H2482 0.930 . S
C2490 C2489 1.362 . S
C2490 C2493 1.409 . S
C2491 H2483 0.930 . S
C2491 C2492 1.355 . S
C2491 C2493 1.415 . S
C2492 C2491 1.355 . S
C2492 C2494 1.419 . S
C2493 C2488 1.425 . S
C2493 C2490 1.409 . S
C2493 C2491 1.415 . S
C2494 H2484 0.930 . S
C2494 C2492 1.419 . S
C2494 C2495 1.362 . S
C2495 H2485 0.930 . S
C2495 C2488 1.409 . S
C2495 C2494 1.362 . S
H2496 C2502 0.930 . S
H2497 C2505 0.930 . S
H2498 C2506 0.930 . S
H2499 C2507 0.930 . S
H2500 C2510 0.930 . S
H2501 C2511 0.930 . S
C2502 H2496 0.930 . S
C2502 C2503 1.355 . S
C2502 C2504 1.415 . S
C2503 C2502 1.355 . S
C2503 C2505 1.419 . S
C2504 C2502 1.415 . S
C2504 C2509 1.425 . S
C2504 C2511 1.409 . S
C2505 H2497 0.930 . S
C2505 C2503 1.419 . S
C2505 C2506 1.362 . S
C2506 H2498 0.930 . S
C2506 C2505 1.362 . S
C2506 C2509 1.409 . S
C2507 H2499 0.930 . S
C2507 C2508 1.355 . S
C2507 C2509 1.415 . S
C2508 C2507 1.355 . S
C2508 C2510 1.419 . S
C2509 C2504 1.425 . S
C2509 C2506 1.409 . S
C2509 C2507 1.415 . S
C2510 H2500 0.930 . S
C2510 C2508 1.419 . S
C2510 C2511 1.362 . S
C2511 H2501 0.930 . S
C2511 C2504 1.409 . S
C2511 C2510 1.362 . S
H2512 C2518 0.930 . S
H2513 C2521 0.930 . S
H2514 C2522 0.930 . S
H2515 C2523 0.930 . S
H2516 C2526 0.930 . S
H2517 C2527 0.930 . S
C2518 H2512 0.930 . S
C2518 C2519 1.355 1_655 S
C2518 C2520 1.415 . S
C2519 C2518 1.355 1_455 S
C2519 C2521 1.419 . S
C2520 C2518 1.415 . S
C2520 C2525 1.425 1_655 S
C2520 C2527 1.409 . S
C2521 H2513 0.930 . S
C2521 C2519 1.419 . S
C2521 C2522 1.362 . S
C2522 H2514 0.930 . S
C2522 C2521 1.362 . S
C2522 C2525 1.409 . S
C2523 H2515 0.930 . S
C2523 C2524 1.327 1_455 S
C2523 C2525 1.415 . S
C2524 C2523 1.327 1_655 S
C2524 C2526 1.451 . S
C2525 C2520 1.425 1_455 S
C2525 C2522 1.409 . S
C2525 C2523 1.415 . S
C2526 H2516 0.930 . S
C2526 C2524 1.451 . S
C2526 C2527 1.362 . S
C2527 H2517 0.930 . S
C2527 C2520 1.409 . S
C2527 C2526 1.362 . S
H2528 C2534 0.930 . S
H2529 C2537 0.930 . S
H2530 C2538 0.930 . S
H2531 C2539 0.930 . S
H2532 C2542 0.930 . S
H2533 C2543 0.930 . S
C2534 H2528 0.930 . S
C2534 C2535 1.355 . S
C2534 C2536 1.415 . S
C2535 C2534 1.355 . S
C2535 C2537 1.419 . S
C2536 C2534 1.415 . S
C2536 C2541 1.425 . S
C2536 C2543 1.409 . S
C2537 H2529 0.930 . S
C2537 C2535 1.419 . S
C2537 C2538 1.362 . S
C2538 H2530 0.930 . S
C2538 C2537 1.362 . S
C2538 C2541 1.409 . S
C2539 H2531 0.930 . S
C2539 C2540 1.355 . S
C2539 C2541 1.415 . S
C2540 C2539 1.355 . S
C2540 C2542 1.419 . S
C2541 C2536 1.425 . S
C2541 C2538 1.409 . S
C2541 C2539 1.415 . S
C2542 H2532 0.930 . S
C2542 C2540 1.419 . S
C2542 C2543 1.362 . S
C2543 H2533 0.930 . S
C2543 C2536 1.409 . S
C2543 C2542 1.362 . S
H2544 C2550 0.930 . S
H2545 C2553 0.930 . S
H2546 C2554 0.930 . S
H2547 C2555 0.930 . S
H2548 C2558 0.930 . S
H2549 C2559 0.930 . S
C2550 H2544 0.930 . S
C2550 C2551 1.355 . S
C2550 C2552 1.415 . S
C2551 C2550 1.355 . S
C2551 C2553 1.419 . S
C2552 C2550 1.415 . S
C2552 C2557 1.425 . S
C2552 C2559 1.409 . S
C2553 H2545 0.930 . S
C2553 C2551 1.419 . S
C2553 C2554 1.362 . S
C2554 H2546 0.930 . S
C2554 C2553 1.362 . S
C2554 C2557 1.409 . S
C2555 H2547 0.930 . S
C2555 C2556 1.355 . S
C2555 C2557 1.415 . S
C2556 C2555 1.355 . S
C2556 C2558 1.419 . S
C2557 C2552 1.425 . S
C2557 C2554 1.409 . S
C2557 C2555 1.415 . S
C2558 H2548 0.930 . S
C2558 C2556 1.419 . S
C2558 C2559 1.362 . S
C2559 H2549 0.930 . S
C2559 C2552 1.409 . S
C2559 C2558 1.362 . S
H2560 C2566 0.930 . S
H2561 C2569 0.930 . S
H2562 C2570 0.930 . S
H2563 C2571 0.930 . S
H2564 C2574 0.930 . S
H2565 C2575 0.930 . S
C2566 H2560 0.930 . S
C2566 C2567 1.355 . S
C2566 C2568 1.415 . S
C2567 C2566 1.355 . S
C2567 C2569 1.419 . S
C2568 C2566 1.415 . S
C2568 C2573 1.425 . S
C2568 C2575 1.409 . S
C2569 H2561 0.930 . S
C2569 C2567 1.419 . S
C2569 C2570 1.362 . S
C2570 H2562 0.930 . S
C2570 C2569 1.362 . S
C2570 C2573 1.409 . S
C2571 H2563 0.930 . S
C2571 C2572 1.355 . S
C2571 C2573 1.415 . S
C2572 C2571 1.355 . S
C2572 C2574 1.419 . S
C2573 C2568 1.425 . S
C2573 C2570 1.409 . S
C2573 C2571 1.415 . S
C2574 H2564 0.930 . S
C2574 C2572 1.419 . S
C2574 C2575 1.362 . S
C2575 H2565 0.930 . S
C2575 C2568 1.409 . S
C2575 C2574 1.362 . S
H2576 C2582 0.930 . S
H2577 C2585 0.930 . S
H2578 C2586 0.930 . S
H2579 C2587 0.930 . S
H2580 C2590 0.930 . S
H2581 C2591 0.930 . S
C2582 H2576 0.930 . S
C2582 C2583 1.355 1_565 S
C2582 C2584 1.415 . S
C2583 C2582 1.355 1_545 S
C2583 C2585 1.419 . S
C2584 C2582 1.415 . S
C2584 C2589 1.425 1_565 S
C2584 C2591 1.409 . S
C2585 H2577 0.930 . S
C2585 C2583 1.419 . S
C2585 C2586 1.362 . S
C2586 H2578 0.930 . S
C2586 C2585 1.362 . S
C2586 C2589 1.409 . S
C2587 H2579 0.930 . S
C2587 C2588 1.355 1_545 S
C2587 C2589 1.415 . S
C2588 C2587 1.355 1_565 S
C2588 C2590 1.419 . S
C2589 C2584 1.425 1_545 S
C2589 C2586 1.409 . S
C2589 C2587 1.415 . S
C2590 H2580 0.930 . S
C2590 C2588 1.419 . S
C2590 C2591 1.362 . S
C2591 H2581 0.930 . S
C2591 C2584 1.409 . S
C2591 C2590 1.362 . S
H2592 C2598 0.930 . S
H2593 C2601 0.930 . S
H2594 C2602 0.930 . S
H2595 C2603 0.930 . S
H2596 C2606 0.930 . S
H2597 C2607 0.930 . S
C2598 H2592 0.930 . S
C2598 C2599 1.355 . S
C2598 C2600 1.415 . S
C2599 C2598 1.355 . S
C2599 C2601 1.419 . S
C2600 C2598 1.415 . S
C2600 C2605 1.425 . S
C2600 C2607 1.409 . S
C2601 H2593 0.930 . S
C2601 C2599 1.419 . S
C2601 C2602 1.362 . S
C2602 H2594 0.930 . S
C2602 C2601 1.362 . S
C2602 C2605 1.409 . S
C2603 H2595 0.930 . S
C2603 C2604 1.355 . S
C2603 C2605 1.415 . S
C2604 C2603 1.355 . S
C2604 C2606 1.419 . S
C2605 C2600 1.425 . S
C2605 C2602 1.409 . S
C2605 C2603 1.415 . S
C2606 H2596 0.930 . S
C2606 C2604 1.419 . S
C2606 C2607 1.362 . S
C2607 H2597 0.930 . S
C2607 C2600 1.409 . S
C2607 C2606 1.362 . S
H2608 C2614 0.930 . S
H2609 C2617 0.930 . S
H2610 C2618 0.930 . S
H2611 C2619 0.930 . S
H2612 C2622 0.930 . S
H2613 C2623 0.930 . S
C2614 H2608 0.930 . S
C2614 C2615 1.355 1_565 S
C2614 C2616 1.413 1_565 S
C2615 C2614 1.355 1_545 S
C2615 C2617 1.419 . S
C2616 C2614 1.413 1_545 S
C2616 C2621 1.430 . S
C2616 C2623 1.406 1_545 S
C2617 H2609 0.930 . S
C2617 C2615 1.419 . S
C2617 C2618 1.362 . S
C2618 H2610 0.930 . S
C2618 C2617 1.362 . S
C2618 C2621 1.409 . S
C2619 H2611 0.930 . S
C2619 C2620 1.355 . S
C2619 C2621 1.415 . S
C2620 C2619 1.355 . S
C2620 C2622 1.419 1_545 S
C2621 C2616 1.430 . S
C2621 C2618 1.409 . S
C2621 C2619 1.415 . S
C2622 H2612 0.930 . S
C2622 C2620 1.419 1_565 S
C2622 C2623 1.362 . S
C2623 H2613 0.930 . S
C2623 C2616 1.406 1_565 S
C2623 C2622 1.362 . S
H2624 C2630 0.930 . S
H2625 C2633 0.930 . S
H2626 C2634 0.930 . S
H2627 C2635 0.930 . S
H2628 C2638 0.930 . S
H2629 C2639 0.930 . S
C2630 H2624 0.930 . S
C2630 C2631 1.355 . S
C2630 C2632 1.415 . S
C2631 C2630 1.355 . S
C2631 C2633 1.419 . S
C2632 C2630 1.415 . S
C2632 C2637 1.425 . S
C2632 C2639 1.409 . S
C2633 H2625 0.930 . S
C2633 C2631 1.419 . S
C2633 C2634 1.362 . S
C2634 H2626 0.930 . S
C2634 C2633 1.362 . S
C2634 C2637 1.409 . S
C2635 H2627 0.930 . S
C2635 C2636 1.355 . S
C2635 C2637 1.415 . S
C2636 C2635 1.355 . S
C2636 C2638 1.419 . S
C2637 C2632 1.425 . S
C2637 C2634 1.409 . S
C2637 C2635 1.415 . S
C2638 H2628 0.930 . S
C2638 C2636 1.419 . S
C2638 C2639 1.362 . S
C2639 H2629 0.930 . S
C2639 C2632 1.409 . S
C2639 C2638 1.362 . S
H2640 C2646 0.930 . S
H2641 C2649 0.930 . S
H2642 C2650 0.930 . S
H2643 C2651 0.930 . S
H2644 C2654 0.930 1_655 S
H2645 C2655 0.930 . S
C2646 H2640 0.930 . S
C2646 C2647 1.355 1_565 S
C2646 C2648 1.415 1_565 S
C2647 C2646 1.355 1_545 S
C2647 C2649 1.419 . S
C2648 C2646 1.415 1_545 S
C2648 C2653 1.425 . S
C2648 C2655 1.409 1_545 S
C2649 H2641 0.930 . S
C2649 C2647 1.419 . S
C2649 C2650 1.362 . S
C2650 H2642 0.930 . S
C2650 C2649 1.362 . S
C2650 C2653 1.409 . S
C2651 H2643 0.930 . S
C2651 C2652 1.355 . S
C2651 C2653 1.415 . S
C2652 C2651 1.355 . S
C2652 C2654 1.419 1_545 S
C2653 C2648 1.425 . S
C2653 C2650 1.409 . S
C2653 C2651 1.415 . S
C2654 H2644 0.930 1_455 S
C2654 C2652 1.419 1_565 S
C2654 C2655 1.362 . S
C2655 H2645 0.930 . S
C2655 C2648 1.409 1_565 S
C2655 C2654 1.362 . S
H2656 C2662 0.930 . S
H2657 C2665 0.930 . S
H2658 C2666 0.930 . S
H2659 C2667 0.930 . S
H2660 C2670 0.930 . S
H2661 C2671 0.930 . S
C2662 H2656 0.930 . S
C2662 C2663 1.355 . S
C2662 C2664 1.415 . S
C2663 C2662 1.355 . S
C2663 C2665 1.419 . S
C2664 C2662 1.415 . S
C2664 C2669 1.425 . S
C2664 C2671 1.409 . S
C2665 H2657 0.930 . S
C2665 C2663 1.419 . S
C2665 C2666 1.362 . S
C2666 H2658 0.930 . S
C2666 C2665 1.362 . S
C2666 C2669 1.409 . S
C2667 H2659 0.930 . S
C2667 C2668 1.355 . S
C2667 C2669 1.415 . S
C2668 C2667 1.355 . S
C2668 C2670 1.419 . S
C2669 C2664 1.425 . S
C2669 C2666 1.409 . S
C2669 C2667 1.415 . S
C2670 H2660 0.930 . S
C2670 C2668 1.419 . S
C2670 C2671 1.362 . S
C2671 H2661 0.930 . S
C2671 C2664 1.409 . S
C2671 C2670 1.362 . S
H2672 C2678 0.930 . S
H2673 C2681 0.930 . S
H2674 C2682 0.930 . S
H2675 C2683 0.930 . S
H2676 C2686 0.930 . S
H2677 C2687 0.930 . S
C2678 H2672 0.930 . S
C2678 C2679 1.355 . S
C2678 C2680 1.415 . S
C2679 C2678 1.355 . S
C2679 C2681 1.419 1_545 S
C2680 C2678 1.415 . S
C2680 C2685 1.425 1_545 S
C2680 C2687 1.409 . S
C2681 H2673 0.930 . S
C2681 C2679 1.419 1_565 S
C2681 C2682 1.362 . S
C2682 H2674 0.930 . S
C2682 C2681 1.362 . S
C2682 C2685 1.409 . S
C2683 H2675 0.930 . S
C2683 C2684 1.355 . S
C2683 C2685 1.415 . S
C2684 C2683 1.355 . S
C2684 C2686 1.419 1_565 S
C2685 C2680 1.425 1_565 S
C2685 C2682 1.409 . S
C2685 C2683 1.415 . S
C2686 H2676 0.930 . S
C2686 C2684 1.419 1_545 S
C2686 C2687 1.362 . S
C2687 H2677 0.930 . S
C2687 C2680 1.409 . S
C2687 C2686 1.362 . S
H2688 C2694 0.930 . S
H2689 C2697 0.930 . S
H2690 C2698 0.930 . S
H2691 C2699 0.930 . S
H2692 C2702 0.930 . S
H2693 C2703 0.930 . S
C2694 H2688 0.930 . S
C2694 C2695 1.355 . S
C2694 C2696 1.415 . S
C2695 C2694 1.355 . S
C2695 C2697 1.419 . S
C2696 C2694 1.415 . S
C2696 C2701 1.425 . S
C2696 C2703 1.409 . S
C2697 H2689 0.930 . S
C2697 C2695 1.419 . S
C2697 C2698 1.362 . S
C2698 H2690 0.930 . S
C2698 C2697 1.362 . S
C2698 C2701 1.409 . S
C2699 H2691 0.930 . S
C2699 C2700 1.355 . S
C2699 C2701 1.415 . S
C2700 C2699 1.355 . S
C2700 C2702 1.419 . S
C2701 C2696 1.425 . S
C2701 C2698 1.409 . S
C2701 C2699 1.415 . S
C2702 H2692 0.930 . S
C2702 C2700 1.419 . S
C2702 C2703 1.362 . S
C2703 H2693 0.930 . S
C2703 C2696 1.409 . S
C2703 C2702 1.362 . S
H2704 C2710 0.930 . S
H2705 C2713 0.930 . S
H2706 C2714 0.934 . S
H2707 C2715 0.930 . S
H2708 C2718 0.930 . S
H2709 C2719 0.930 . S
C2710 H2704 0.930 . S
C2710 C2711 1.355 . S
C2710 C2712 1.415 . S
C2711 C2710 1.355 . S
C2711 C2713 1.419 . S
C2712 C2710 1.415 . S
C2712 C2717 1.425 . S
C2712 C2719 1.409 . S
C2713 H2705 0.930 . S
C2713 C2711 1.419 . S
C2713 C2714 1.362 . S
C2714 H2706 0.934 . S
C2714 C2713 1.362 . S
C2714 C2717 1.409 . S
C2715 H2707 0.930 . S
C2715 C2716 1.355 . S
C2715 C2717 1.415 1_556 S
C2716 C2715 1.355 . S
C2716 C2718 1.417 1_556 S
C2717 C2712 1.425 . S
C2717 C2714 1.409 . S
C2717 C2715 1.415 1_554 S
C2718 H2708 0.930 . S
C2718 C2716 1.417 1_554 S
C2718 C2719 1.364 . S
C2719 H2709 0.930 . S
C2719 C2712 1.409 . S
C2719 C2718 1.364 . S
H2720 C2726 0.930 1_556 S
H2721 C2729 0.930 . S
H2722 C2730 0.930 . S
H2723 C2731 0.930 . S
H2724 C2734 0.930 . S
H2725 C2735 0.930 1_556 S
C2726 H2720 0.930 1_554 S
C2726 C2727 1.355 . S
C2726 C2728 1.415 . S
C2727 C2726 1.355 . S
C2727 C2729 1.419 . S
C2728 C2726 1.415 . S
C2728 C2733 1.425 . S
C2728 C2735 1.409 . S
C2729 H2721 0.930 . S
C2729 C2727 1.419 . S
C2729 C2730 1.362 . S
C2730 H2722 0.930 . S
C2730 C2729 1.362 . S
C2730 C2733 1.409 . S
C2731 H2723 0.930 . S
C2731 C2732 1.355 . S
C2731 C2733 1.415 . S
C2732 C2731 1.355 . S
C2732 C2734 1.419 . S
C2733 C2728 1.425 . S
C2733 C2730 1.409 . S
C2733 C2731 1.415 . S
C2734 H2724 0.930 . S
C2734 C2732 1.419 . S
C2734 C2735 1.362 . S
C2735 H2725 0.930 1_554 S
C2735 C2728 1.409 . S
C2735 C2734 1.362 . S
H2736 C2742 0.930 . S
H2737 C2745 0.930 . S
H2738 C2746 0.930 . S
H2739 C2747 0.930 . S
H2740 C2750 0.930 . S
H2741 C2751 0.930 . S
C2742 H2736 0.930 . S
C2742 C2743 1.355 . S
C2742 C2744 1.415 . S
C2743 C2742 1.355 . S
C2743 C2745 1.419 . S
C2744 C2742 1.415 . S
C2744 C2749 1.425 . S
C2744 C2751 1.409 . S
C2745 H2737 0.930 . S
C2745 C2743 1.419 . S
C2745 C2746 1.362 . S
C2746 H2738 0.930 . S
C2746 C2745 1.362 . S
C2746 C2749 1.409 . S
C2747 H2739 0.930 . S
C2747 C2748 1.355 . S
C2747 C2749 1.415 . S
C2748 C2747 1.355 . S
C2748 C2750 1.419 . S
C2749 C2744 1.425 . S
C2749 C2746 1.409 . S
C2749 C2747 1.415 . S
C2750 H2740 0.930 . S
C2750 C2748 1.419 . S
C2750 C2751 1.362 . S
C2751 H2741 0.930 . S
C2751 C2744 1.409 . S
C2751 C2750 1.362 . S
H2752 C2758 0.930 . S
H2753 C2761 0.930 . S
H2754 C2762 0.930 . S
H2755 C2763 0.930 . S
H2756 C2766 0.930 . S
H2757 C2767 0.930 . S
C2758 H2752 0.930 . S
C2758 C2759 1.355 . S
C2758 C2760 1.415 . S
C2759 C2758 1.355 . S
C2759 C2761 1.419 . S
C2760 C2758 1.415 . S
C2760 C2765 1.425 . S
C2760 C2767 1.409 . S
C2761 H2753 0.930 . S
C2761 C2759 1.419 . S
C2761 C2762 1.362 . S
C2762 H2754 0.930 . S
C2762 C2761 1.362 . S
C2762 C2765 1.409 . S
C2763 H2755 0.930 . S
C2763 C2764 1.355 . S
C2763 C2765 1.415 . S
C2764 C2763 1.355 . S
C2764 C2766 1.419 . S
C2765 C2760 1.425 . S
C2765 C2762 1.409 . S
C2765 C2763 1.415 . S
C2766 H2756 0.930 . S
C2766 C2764 1.419 . S
C2766 C2767 1.362 . S
C2767 H2757 0.930 . S
C2767 C2760 1.409 . S
C2767 C2766 1.362 . S
H2768 C2774 0.930 . S
H2769 C2777 0.930 . S
H2770 C2778 0.930 . S
H2771 C2779 0.930 . S
H2772 C2782 0.930 . S
H2773 C2783 0.930 . S
C2774 H2768 0.930 . S
C2774 C2775 1.355 . S
C2774 C2776 1.415 . S
C2775 C2774 1.355 . S
C2775 C2777 1.419 . S
C2776 C2774 1.415 . S
C2776 C2781 1.425 . S
C2776 C2783 1.409 . S
C2777 H2769 0.930 . S
C2777 C2775 1.419 . S
C2777 C2778 1.362 . S
C2778 H2770 0.930 . S
C2778 C2777 1.362 . S
C2778 C2781 1.409 . S
C2779 H2771 0.930 . S
C2779 C2780 1.355 . S
C2779 C2781 1.415 . S
C2780 C2779 1.355 . S
C2780 C2782 1.419 . S
C2781 C2776 1.425 . S
C2781 C2778 1.409 . S
C2781 C2779 1.415 . S
C2782 H2772 0.930 . S
C2782 C2780 1.419 . S
C2782 C2783 1.362 . S
C2783 H2773 0.930 . S
C2783 C2776 1.409 . S
C2783 C2782 1.362 . S
H2784 C2790 0.930 . S
H2785 C2793 0.930 . S
H2786 C2794 0.930 1_545 S
H2787 C2795 0.930 1_545 S
H2788 C2798 0.930 . S
H2789 C2799 0.930 . S
C2790 H2784 0.930 . S
C2790 C2791 1.355 . S
C2790 C2792 1.415 . S
C2791 C2790 1.355 . S
C2791 C2793 1.419 . S
C2792 C2790 1.415 . S
C2792 C2797 1.425 . S
C2792 C2799 1.409 . S
C2793 H2785 0.930 . S
C2793 C2791 1.419 . S
C2793 C2794 1.362 . S
C2794 H2786 0.930 1_565 S
C2794 C2793 1.362 . S
C2794 C2797 1.409 . S
C2795 H2787 0.930 1_565 S
C2795 C2796 1.355 . S
C2795 C2797 1.415 . S
C2796 C2795 1.355 . S
C2796 C2798 1.419 . S
C2797 C2792 1.425 . S
C2797 C2794 1.409 . S
C2797 C2795 1.415 . S
C2798 H2788 0.930 . S
C2798 C2796 1.419 . S
C2798 C2799 1.362 . S
C2799 H2789 0.930 . S
C2799 C2792 1.409 . S
C2799 C2798 1.362 . S
H2800 C2806 0.930 . S
H2801 C2809 0.930 . S
H2802 C2810 0.930 . S
H2803 C2811 0.930 . S
H2804 C2814 0.930 . S
H2805 C2815 0.930 . S
C2806 H2800 0.930 . S
C2806 C2807 1.355 . S
C2806 C2808 1.415 . S
C2807 C2806 1.355 . S
C2807 C2809 1.419 . S
C2808 C2806 1.415 . S
C2808 C2813 1.425 . S
C2808 C2815 1.409 . S
C2809 H2801 0.930 . S
C2809 C2807 1.419 . S
C2809 C2810 1.362 . S
C2810 H2802 0.930 . S
C2810 C2809 1.362 . S
C2810 C2813 1.409 . S
C2811 H2803 0.930 . S
C2811 C2812 1.355 . S
C2811 C2813 1.415 . S
C2812 C2811 1.355 . S
C2812 C2814 1.419 . S
C2813 C2808 1.425 . S
C2813 C2810 1.409 . S
C2813 C2811 1.415 . S
C2814 H2804 0.930 . S
C2814 C2812 1.419 . S
C2814 C2815 1.362 . S
C2815 H2805 0.930 . S
C2815 C2808 1.409 . S
C2815 C2814 1.362 . S
H2816 C2822 0.930 . S
H2817 C2825 0.930 . S
H2818 C2826 0.930 . S
H2819 C2827 0.930 . S
H2820 C2830 0.930 . S
H2821 C2831 0.930 . S
C2822 H2816 0.930 . S
C2822 C2823 1.355 . S
C2822 C2824 1.415 . S
C2823 C2822 1.355 . S
C2823 C2825 1.419 . S
C2824 C2822 1.415 . S
C2824 C2829 1.425 . S
C2824 C2831 1.409 . S
C2825 H2817 0.930 . S
C2825 C2823 1.419 . S
C2825 C2826 1.362 . S
C2826 H2818 0.930 . S
C2826 C2825 1.362 . S
C2826 C2829 1.409 . S
C2827 H2819 0.930 . S
C2827 C2828 1.355 . S
C2827 C2829 1.415 . S
C2828 C2827 1.355 . S
C2828 C2830 1.419 . S
C2829 C2824 1.425 . S
C2829 C2826 1.409 . S
C2829 C2827 1.415 . S
C2830 H2820 0.930 . S
C2830 C2828 1.419 . S
C2830 C2831 1.362 . S
C2831 H2821 0.930 . S
C2831 C2824 1.409 . S
C2831 C2830 1.362 . S
H2832 C2838 0.930 . S
H2833 C2841 0.930 . S
H2834 C2842 0.930 . S
H2835 C2843 0.930 . S
H2836 C2846 0.930 1_554 S
H2837 C2847 0.930 1_554 S
C2838 H2832 0.930 . S
C2838 C2839 1.355 . S
C2838 C2840 1.415 . S
C2839 C2838 1.355 . S
C2839 C2841 1.419 . S
C2840 C2838 1.415 . S
C2840 C2845 1.425 . S
C2840 C2847 1.409 . S
C2841 H2833 0.930 . S
C2841 C2839 1.419 . S
C2841 C2842 1.362 . S
C2842 H2834 0.930 . S
C2842 C2841 1.362 . S
C2842 C2845 1.409 . S
C2843 H2835 0.930 . S
C2843 C2844 1.355 . S
C2843 C2845 1.415 . S
C2844 C2843 1.355 . S
C2844 C2846 1.419 . S
C2845 C2840 1.425 . S
C2845 C2842 1.409 . S
C2845 C2843 1.415 . S
C2846 H2836 0.930 1_556 S
C2846 C2844 1.419 . S
C2846 C2847 1.362 . S
C2847 H2837 0.930 1_556 S
C2847 C2840 1.409 . S
C2847 C2846 1.362 . S
H2848 C2854 0.930 . S
H2849 C2857 0.930 . S
H2850 C2858 0.930 . S
H2851 C2859 0.930 . S
H2852 C2862 0.930 . S
H2853 C2863 0.930 . S
C2854 H2848 0.930 . S
C2854 C2855 1.355 . S
C2854 C2856 1.415 . S
C2855 C2854 1.355 . S
C2855 C2857 1.419 . S
C2856 C2854 1.415 . S
C2856 C2861 1.425 . S
C2856 C2863 1.409 . S
C2857 H2849 0.930 . S
C2857 C2855 1.419 . S
C2857 C2858 1.362 . S
C2858 H2850 0.930 . S
C2858 C2857 1.362 . S
C2858 C2861 1.409 . S
C2859 H2851 0.930 . S
C2859 C2860 1.355 . S
C2859 C2861 1.415 . S
C2860 C2859 1.355 . S
C2860 C2862 1.419 . S
C2861 C2856 1.425 . S
C2861 C2858 1.409 . S
C2861 C2859 1.415 . S
C2862 H2852 0.930 . S
C2862 C2860 1.419 . S
C2862 C2863 1.362 . S
C2863 H2853 0.930 . S
C2863 C2856 1.409 . S
C2863 C2862 1.362 . S
H2864 C2870 0.930 . S
H2865 C2873 0.930 . S
H2866 C2874 0.930 . S
H2867 C2875 0.930 . S
H2868 C2878 0.930 . S
H2869 C2879 0.930 . S
C2870 H2864 0.930 . S
C2870 C2871 1.355 . S
C2870 C2872 1.415 . S
C2871 C2870 1.355 . S
C2871 C2873 1.419 . S
C2872 C2870 1.415 . S
C2872 C2877 1.425 . S
C2872 C2879 1.409 . S
C2873 H2865 0.930 . S
C2873 C2871 1.419 . S
C2873 C2874 1.362 . S
C2874 H2866 0.930 . S
C2874 C2873 1.362 . S
C2874 C2877 1.409 . S
C2875 H2867 0.930 . S
C2875 C2876 1.355 . S
C2875 C2877 1.415 . S
C2876 C2875 1.355 . S
C2876 C2878 1.419 . S
C2877 C2872 1.425 . S
C2877 C2874 1.409 . S
C2877 C2875 1.415 . S
C2878 H2868 0.930 . S
C2878 C2876 1.419 . S
C2878 C2879 1.362 . S
C2879 H2869 0.930 . S
C2879 C2872 1.409 . S
C2879 C2878 1.362 . S
H2880 C2886 0.930 . S
H2881 C2889 0.930 . S
H2882 C2890 0.930 . S
H2883 C2891 0.930 . S
H2884 C2894 0.930 . S
H2885 C2895 0.930 . S
C2886 H2880 0.930 . S
C2886 C2887 1.355 . S
C2886 C2888 1.415 . S
C2887 C2886 1.355 . S
C2887 C2889 1.419 . S
C2888 C2886 1.415 . S
C2888 C2893 1.425 . S
C2888 C2895 1.409 . S
C2889 H2881 0.930 . S
C2889 C2887 1.419 . S
C2889 C2890 1.362 . S
C2890 H2882 0.930 . S
C2890 C2889 1.362 . S
C2890 C2893 1.409 . S
C2891 H2883 0.930 . S
C2891 C2892 1.355 . S
C2891 C2893 1.415 . S
C2892 C2891 1.355 . S
C2892 C2894 1.419 . S
C2893 C2888 1.425 . S
C2893 C2890 1.409 . S
C2893 C2891 1.415 . S
C2894 H2884 0.930 . S
C2894 C2892 1.419 . S
C2894 C2895 1.362 . S
C2895 H2885 0.930 . S
C2895 C2888 1.409 . S
C2895 C2894 1.362 . S
H2896 C2902 0.930 . S
H2897 C2905 0.930 . S
H2898 C2906 0.930 . S
H2899 C2907 0.930 . S
H2900 C2910 0.930 . S
H2901 C2911 0.930 . S
C2902 H2896 0.930 . S
C2902 C2903 1.355 . S
C2902 C2904 1.415 . S
C2903 C2902 1.355 . S
C2903 C2905 1.419 . S
C2904 C2902 1.415 . S
C2904 C2909 1.425 . S
C2904 C2911 1.409 . S
C2905 H2897 0.930 . S
C2905 C2903 1.419 . S
C2905 C2906 1.362 . S
C2906 H2898 0.930 . S
C2906 C2905 1.362 . S
C2906 C2909 1.409 . S
C2907 H2899 0.930 . S
C2907 C2908 1.355 . S
C2907 C2909 1.415 . S
C2908 C2907 1.355 . S
C2908 C2910 1.419 . S
C2909 C2904 1.425 . S
C2909 C2906 1.409 . S
C2909 C2907 1.415 . S
C2910 H2900 0.930 . S
C2910 C2908 1.419 . S
C2910 C2911 1.362 . S
C2911 H2901 0.930 . S
C2911 C2904 1.409 . S
C2911 C2910 1.362 . S
H2912 C2918 0.930 . S
H2913 C2921 0.930 . S
H2914 C2922 0.930 . S
H2915 C2923 0.930 . S
H2916 C2926 0.930 . S
H2917 C2927 0.930 . S
C2918 H2912 0.930 . S
C2918 C2919 1.355 . S
C2918 C2920 1.415 . S
C2919 C2918 1.355 . S
C2919 C2921 1.419 . S
C2920 C2918 1.415 . S
C2920 C2925 1.425 . S
C2920 C2927 1.409 . S
C2921 H2913 0.930 . S
C2921 C2919 1.419 . S
C2921 C2922 1.362 . S
C2922 H2914 0.930 . S
C2922 C2921 1.362 . S
C2922 C2925 1.409 . S
C2923 H2915 0.930 . S
C2923 C2924 1.355 . S
C2923 C2925 1.415 . S
C2924 C2923 1.355 . S
C2924 C2926 1.419 . S
C2925 C2920 1.425 . S
C2925 C2922 1.409 . S
C2925 C2923 1.415 . S
C2926 H2916 0.930 . S
C2926 C2924 1.419 . S
C2926 C2927 1.362 . S
C2927 H2917 0.930 . S
C2927 C2920 1.409 . S
C2927 C2926 1.362 . S
H2928 C2934 0.930 . S
H2929 C2937 0.930 . S
H2930 C2938 0.930 . S
H2931 C2939 0.930 . S
H2932 C2942 0.930 . S
H2933 C2943 0.930 . S
C2934 H2928 0.930 . S
C2934 C2935 1.355 . S
C2934 C2936 1.415 . S
C2935 C2934 1.355 . S
C2935 C2937 1.419 . S
C2936 C2934 1.415 . S
C2936 C2941 1.425 . S
C2936 C2943 1.409 . S
C2937 H2929 0.930 . S
C2937 C2935 1.419 . S
C2937 C2938 1.362 . S
C2938 H2930 0.930 . S
C2938 C2937 1.362 . S
C2938 C2941 1.409 . S
C2939 H2931 0.930 . S
C2939 C2940 1.355 . S
C2939 C2941 1.415 . S
C2940 C2939 1.355 . S
C2940 C2942 1.419 . S
C2941 C2936 1.425 . S
C2941 C2938 1.409 . S
C2941 C2939 1.415 . S
C2942 H2932 0.930 . S
C2942 C2940 1.419 . S
C2942 C2943 1.362 . S
C2943 H2933 0.930 . S
C2943 C2936 1.409 . S
C2943 C2942 1.362 . S
H2944 C2950 0.930 . S
H2945 C2953 0.930 . S
H2946 C2954 0.930 . S
H2947 C2955 0.930 . S
H2948 C2958 0.930 . S
H2949 C2959 0.930 . S
C2950 H2944 0.930 . S
C2950 C2951 1.355 . S
C2950 C2952 1.415 . S
C2951 C2950 1.355 . S
C2951 C2953 1.419 . S
C2952 C2950 1.415 . S
C2952 C2957 1.425 . S
C2952 C2959 1.409 . S
C2953 H2945 0.930 . S
C2953 C2951 1.419 . S
C2953 C2954 1.362 . S
C2954 H2946 0.930 . S
C2954 C2953 1.362 . S
C2954 C2957 1.409 . S
C2955 H2947 0.930 . S
C2955 C2956 1.355 . S
C2955 C2957 1.415 . S
C2956 C2955 1.355 . S
C2956 C2958 1.419 . S
C2957 C2952 1.425 . S
C2957 C2954 1.409 . S
C2957 C2955 1.415 . S
C2958 H2948 0.930 . S
C2958 C2956 1.419 . S
C2958 C2959 1.362 . S
C2959 H2949 0.930 . S
C2959 C2952 1.409 . S
C2959 C2958 1.362 . S
H2960 C2966 0.930 . S
H2961 C2969 0.930 . S
H2962 C2970 0.930 . S
H2963 C2971 0.930 . S
H2964 C2974 0.930 1_455 S
H2965 C2975 0.930 1_455 S
C2966 H2960 0.930 . S
C2966 C2967 1.355 . S
C2966 C2968 1.415 . S
C2967 C2966 1.355 . S
C2967 C2969 1.419 . S
C2968 C2966 1.415 . S
C2968 C2973 1.425 . S
C2968 C2975 1.409 . S
C2969 H2961 0.930 . S
C2969 C2967 1.419 . S
C2969 C2970 1.362 . S
C2970 H2962 0.930 . S
C2970 C2969 1.362 . S
C2970 C2973 1.409 . S
C2971 H2963 0.930 . S
C2971 C2972 1.355 . S
C2971 C2973 1.415 . S
C2972 C2971 1.355 . S
C2972 C2974 1.419 . S
C2973 C2968 1.425 . S
C2973 C2970 1.409 . S
C2973 C2971 1.415 . S
C2974 H2964 0.930 1_655 S
C2974 C2972 1.419 . S
C2974 C2975 1.362 . S
C2975 H2965 0.930 1_655 S
C2975 C2968 1.409 . S
C2975 C2974 1.362 . S
H2976 C2982 0.930 . S
H2977 C2985 0.930 . S
H2978 C2986 0.930 . S
H2979 C2987 0.930 . S
H2980 C2990 0.930 . S
H2981 C2991 0.930 . S
C2982 H2976 0.930 . S
C2982 C2983 1.355 . S
C2982 C2984 1.415 . S
C2983 C2982 1.355 . S
C2983 C2985 1.419 . S
C2984 C2982 1.415 . S
C2984 C2989 1.425 . S
C2984 C2991 1.409 . S
C2985 H2977 0.930 . S
C2985 C2983 1.419 . S
C2985 C2986 1.362 . S
C2986 H2978 0.930 . S
C2986 C2985 1.362 . S
C2986 C2989 1.409 . S
C2987 H2979 0.930 . S
C2987 C2988 1.355 . S
C2987 C2989 1.415 . S
C2988 C2987 1.355 . S
C2988 C2990 1.419 . S
C2989 C2984 1.425 . S
C2989 C2986 1.409 . S
C2989 C2987 1.415 . S
C2990 H2980 0.930 . S
C2990 C2988 1.419 . S
C2990 C2991 1.362 . S
C2991 H2981 0.930 . S
C2991 C2984 1.409 . S
C2991 C2990 1.362 . S
H2992 C2998 0.930 . S
H2993 C3001 0.930 . S
H2994 C3002 0.930 . S
H2995 C3003 0.930 . S
H2996 C3006 0.930 . S
H2997 C3007 0.930 . S
C2998 H2992 0.930 . S
C2998 C2999 1.355 . S
C2998 C3000 1.415 . S
C2999 C2998 1.355 . S
C2999 C3001 1.419 1_545 S
C3000 C2998 1.415 . S
C3000 C3005 1.425 1_545 S
C3000 C3007 1.409 . S
C3001 H2993 0.930 . S
C3001 C2999 1.419 1_565 S
C3001 C3002 1.362 . S
C3002 H2994 0.930 . S
C3002 C3001 1.362 . S
C3002 C3005 1.409 . S
C3003 H2995 0.930 . S
C3003 C3004 1.364 . S
C3003 C3005 1.415 . S
C3004 C3003 1.364 . S
C3004 C3006 1.406 1_565 S
C3005 C3000 1.425 1_565 S
C3005 C3002 1.409 . S
C3005 C3003 1.415 . S
C3006 H2996 0.930 . S
C3006 C3004 1.406 1_545 S
C3006 C3007 1.362 . S
C3007 H2997 0.930 . S
C3007 C3000 1.409 . S
C3007 C3006 1.362 . S
H3008 C3014 0.930 . S
H3009 C3017 0.930 . S
H3010 C3018 0.930 . S
H3011 C3019 0.930 . S
H3012 C3022 0.930 . S
H3013 C3023 0.930 . S
C3014 H3008 0.930 . S
C3014 C3015 1.355 . S
C3014 C3016 1.415 . S
C3015 C3014 1.355 . S
C3015 C3017 1.419 . S
C3016 C3014 1.415 . S
C3016 C3021 1.425 . S
C3016 C3023 1.409 . S
C3017 H3009 0.930 . S
C3017 C3015 1.419 . S
C3017 C3018 1.362 . S
C3018 H3010 0.930 . S
C3018 C3017 1.362 . S
C3018 C3021 1.409 . S
C3019 H3011 0.930 . S
C3019 C3020 1.355 . S
C3019 C3021 1.415 . S
C3020 C3019 1.355 . S
C3020 C3022 1.419 . S
C3021 C3016 1.425 . S
C3021 C3018 1.409 . S
C3021 C3019 1.415 . S
C3022 H3012 0.930 . S
C3022 C3020 1.419 . S
C3022 C3023 1.362 . S
C3023 H3013 0.930 . S
C3023 C3016 1.409 . S
C3023 C3022 1.362 . S
H3024 C3030 0.930 . S
H3025 C3033 0.930 . S
H3026 C3034 0.927 1_455 S
H3027 C3035 0.941 . S
H3028 C3038 0.930 . S
H3029 C3039 0.930 . S
C3030 H3024 0.930 . S
C3030 C3031 1.355 1_545 S
C3030 C3032 1.420 . S
C3031 C3030 1.355 1_565 S
C3031 C3033 1.419 . S
C3032 C3030 1.420 . S
C3032 C3037 1.411 1_545 S
C3032 C3039 1.419 . S
C3033 H3025 0.930 . S
C3033 C3031 1.419 . S
C3033 C3034 1.362 . S
C3034 H3026 0.927 1_655 S
C3034 C3033 1.362 . S
C3034 C3037 1.409 . S
C3035 H3027 0.941 . S
C3035 C3036 1.355 . S
C3035 C3037 1.415 . S
C3036 C3035 1.355 . S
C3036 C3038 1.419 1_565 S
C3037 C3032 1.411 1_565 S
C3037 C3034 1.409 . S
C3037 C3035 1.415 . S
C3038 H3028 0.930 . S
C3038 C3036 1.419 1_545 S
C3038 C3039 1.362 . S
C3039 H3029 0.930 . S
C3039 C3032 1.419 . S
C3039 C3038 1.362 . S
H3040 C3046 0.930 . S
H3041 C3049 0.930 . S
H3042 C3050 0.930 . S
H3043 C3051 0.930 . S
H3044 C3054 0.930 . S
H3045 C3055 0.930 . S
C3046 H3040 0.930 . S
C3046 C3047 1.355 . S
C3046 C3048 1.415 . S
C3047 C3046 1.355 . S
C3047 C3049 1.419 . S
C3048 C3046 1.415 . S
C3048 C3053 1.425 . S
C3048 C3055 1.409 . S
C3049 H3041 0.930 . S
C3049 C3047 1.419 . S
C3049 C3050 1.362 . S
C3050 H3042 0.930 . S
C3050 C3049 1.362 . S
C3050 C3053 1.409 . S
C3051 H3043 0.930 . S
C3051 C3052 1.355 . S
C3051 C3053 1.415 . S
C3052 C3051 1.355 . S
C3052 C3054 1.419 . S
C3053 C3048 1.425 . S
C3053 C3050 1.409 . S
C3053 C3051 1.415 . S
C3054 H3044 0.930 . S
C3054 C3052 1.419 . S
C3054 C3055 1.362 . S
C3055 H3045 0.930 . S
C3055 C3048 1.409 . S
C3055 C3054 1.362 . S
H3056 C3062 0.930 . S
H3057 C3065 0.930 . S
H3058 C3066 0.930 . S
H3059 C3067 0.900 1_565 S
H3060 C3070 0.930 . S
H3061 C3071 0.930 . S
C3062 H3056 0.930 . S
C3062 C3063 1.355 . S
C3062 C3064 1.415 . S
C3063 C3062 1.355 . S
C3063 C3065 1.419 1_545 S
C3064 C3062 1.415 . S
C3064 C3069 1.425 . S
C3064 C3071 1.409 . S
C3065 H3057 0.930 . S
C3065 C3063 1.419 1_565 S
C3065 C3066 1.362 . S
C3066 H3058 0.930 . S
C3066 C3065 1.362 . S
C3066 C3069 1.409 1_565 S
C3067 H3059 0.900 1_545 S
C3067 C3068 1.383 . S
C3067 C3069 1.417 . S
C3068 C3067 1.383 . S
C3068 C3070 1.419 . S
C3069 C3064 1.425 . S
C3069 C3066 1.409 1_545 S
C3069 C3067 1.417 . S
C3070 H3060 0.930 . S
C3070 C3068 1.419 . S
C3070 C3071 1.362 . S
C3071 H3061 0.930 . S
C3071 C3064 1.409 . S
C3071 C3070 1.362 . S
H3072 C3078 0.930 . S
H3073 C3081 0.930 . S
H3074 C3082 0.930 . S
H3075 C3083 0.930 . S
H3076 C3086 0.930 . S
H3077 C3087 0.930 . S
C3078 H3072 0.930 . S
C3078 C3079 1.355 . S
C3078 C3080 1.415 . S
C3079 C3078 1.355 . S
C3079 C3081 1.419 . S
C3080 C3078 1.415 . S
C3080 C3085 1.425 . S
C3080 C3087 1.409 . S
C3081 H3073 0.930 . S
C3081 C3079 1.419 . S
C3081 C3082 1.362 . S
C3082 H3074 0.930 . S
C3082 C3081 1.362 . S
C3082 C3085 1.409 . S
C3083 H3075 0.930 . S
C3083 C3084 1.355 . S
C3083 C3085 1.415 . S
C3084 C3083 1.355 . S
C3084 C3086 1.419 . S
C3085 C3080 1.425 . S
C3085 C3082 1.409 . S
C3085 C3083 1.415 . S
C3086 H3076 0.930 . S
C3086 C3084 1.419 . S
C3086 C3087 1.362 . S
C3087 H3077 0.930 . S
C3087 C3080 1.409 . S
C3087 C3086 1.362 . S
H3088 C3094 0.930 . S
H3089 C3097 0.930 . S
H3090 C3098 0.930 . S
H3091 C3099 0.930 1_556 S
H3092 C3102 0.930 . S
H3093 C3103 0.930 . S
C3094 H3088 0.930 . S
C3094 C3095 1.355 . S
C3094 C3096 1.415 . S
C3095 C3094 1.355 . S
C3095 C3097 1.419 1_554 S
C3096 C3094 1.415 . S
C3096 C3101 1.425 . S
C3096 C3103 1.409 . S
C3097 H3089 0.930 . S
C3097 C3095 1.419 1_556 S
C3097 C3098 1.362 . S
C3098 H3090 0.930 . S
C3098 C3097 1.362 . S
C3098 C3101 1.409 1_556 S
C3099 H3091 0.930 1_554 S
C3099 C3100 1.355 . S
C3099 C3101 1.415 . S
C3100 C3099 1.355 . S
C3100 C3102 1.419 . S
C3101 C3096 1.425 . S
C3101 C3098 1.409 1_554 S
C3101 C3099 1.415 . S
C3102 H3092 0.930 . S
C3102 C3100 1.419 . S
C3102 C3103 1.362 . S
C3103 H3093 0.930 . S
C3103 C3096 1.409 . S
C3103 C3102 1.362 . S
H3104 C3110 0.930 . S
H3105 C3113 0.930 . S
H3106 C3114 0.930 . S
H3107 C3115 0.930 . S
H3108 C3118 0.930 . S
H3109 C3119 0.930 . S
C3110 H3104 0.930 . S
C3110 C3111 1.355 1_556 S
C3110 C3112 1.415 . S
C3111 C3110 1.355 1_554 S
C3111 C3113 1.419 . S
C3112 C3110 1.415 . S
C3112 C3117 1.425 1_556 S
C3112 C3119 1.409 . S
C3113 H3105 0.930 . S
C3113 C3111 1.419 . S
C3113 C3114 1.362 . S
C3114 H3106 0.930 . S
C3114 C3113 1.362 . S
C3114 C3117 1.409 . S
C3115 H3107 0.930 . S
C3115 C3116 1.355 1_554 S
C3115 C3117 1.415 . S
C3116 C3115 1.355 1_556 S
C3116 C3118 1.419 . S
C3117 C3112 1.425 1_554 S
C3117 C3114 1.409 . S
C3117 C3115 1.415 . S
C3118 H3108 0.930 . S
C3118 C3116 1.419 . S
C3118 C3119 1.362 . S
C3119 H3109 0.930 . S
C3119 C3112 1.409 . S
C3119 C3118 1.362 . S
H3120 C3126 0.930 . S
H3121 C3129 0.930 . S
H3122 C3130 0.930 . S
H3123 C3131 0.930 . S
H3124 C3134 0.930 . S
H3125 C3135 0.930 . S
C3126 H3120 0.930 . S
C3126 C3127 1.355 . S
C3126 C3128 1.415 . S
C3127 C3126 1.355 . S
C3127 C3129 1.419 . S
C3128 C3126 1.415 . S
C3128 C3133 1.425 . S
C3128 C3135 1.409 . S
C3129 H3121 0.930 . S
C3129 C3127 1.419 . S
C3129 C3130 1.362 . S
C3130 H3122 0.930 . S
C3130 C3129 1.362 . S
C3130 C3133 1.409 . S
C3131 H3123 0.930 . S
C3131 C3132 1.355 . S
C3131 C3133 1.415 . S
C3132 C3131 1.355 . S
C3132 C3134 1.419 . S
C3133 C3128 1.425 . S
C3133 C3130 1.409 . S
C3133 C3131 1.415 . S
C3134 H3124 0.930 . S
C3134 C3132 1.419 . S
C3134 C3135 1.362 . S
C3135 H3125 0.930 . S
C3135 C3128 1.409 . S
C3135 C3134 1.362 . S
H3136 C3142 0.930 . S
H3137 C3145 0.930 . S
H3138 C3146 0.930 . S
H3139 C3147 0.930 . S
H3140 C3150 0.930 . S
H3141 C3151 0.930 . S
C3142 H3136 0.930 . S
C3142 C3143 1.355 . S
C3142 C3144 1.415 . S
C3143 C3142 1.355 . S
C3143 C3145 1.419 . S
C3144 C3142 1.415 . S
C3144 C3149 1.425 . S
C3144 C3151 1.409 . S
C3145 H3137 0.930 . S
C3145 C3143 1.419 . S
C3145 C3146 1.362 . S
C3146 H3138 0.930 . S
C3146 C3145 1.362 . S
C3146 C3149 1.409 . S
C3147 H3139 0.930 . S
C3147 C3148 1.355 . S
C3147 C3149 1.415 . S
C3148 C3147 1.355 . S
C3148 C3150 1.419 . S
C3149 C3144 1.425 . S
C3149 C3146 1.409 . S
C3149 C3147 1.415 . S
C3150 H3140 0.930 . S
C3150 C3148 1.419 . S
C3150 C3151 1.362 . S
C3151 H3141 0.930 . S
C3151 C3144 1.409 . S
C3151 C3150 1.362 . S
H3152 C3158 0.930 . S
H3153 C3161 0.930 . S
H3154 C3162 0.930 . S
H3155 C3163 0.930 . S
H3156 C3166 0.930 . S
H3157 C3167 0.930 . S
C3158 H3152 0.930 . S
C3158 C3159 1.355 . S
C3158 C3160 1.415 . S
C3159 C3158 1.355 . S
C3159 C3161 1.419 . S
C3160 C3158 1.415 . S
C3160 C3165 1.425 . S
C3160 C3167 1.409 . S
C3161 H3153 0.930 . S
C3161 C3159 1.419 . S
C3161 C3162 1.362 . S
C3162 H3154 0.930 . S
C3162 C3161 1.362 . S
C3162 C3165 1.409 . S
C3163 H3155 0.930 . S
C3163 C3164 1.355 . S
C3163 C3165 1.415 . S
C3164 C3163 1.355 . S
C3164 C3166 1.419 . S
C3165 C3160 1.425 . S
C3165 C3162 1.409 . S
C3165 C3163 1.415 . S
C3166 H3156 0.930 . S
C3166 C3164 1.419 . S
C3166 C3167 1.362 . S
C3167 H3157 0.930 . S
C3167 C3160 1.409 . S
C3167 C3166 1.362 . S
H3168 C3174 0.930 . S
H3169 C3177 0.930 . S
H3170 C3178 0.930 . S
H3171 C3179 0.930 . S
H3172 C3182 0.930 . S
H3173 C3183 0.930 . S
C3174 H3168 0.930 . S
C3174 C3175 1.355 . S
C3174 C3176 1.415 . S
C3175 C3174 1.355 . S
C3175 C3177 1.419 . S
C3176 C3174 1.415 . S
C3176 C3181 1.425 . S
C3176 C3183 1.409 . S
C3177 H3169 0.930 . S
C3177 C3175 1.419 . S
C3177 C3178 1.362 . S
C3178 H3170 0.930 . S
C3178 C3177 1.362 . S
C3178 C3181 1.409 . S
C3179 H3171 0.930 . S
C3179 C3180 1.355 . S
C3179 C3181 1.415 . S
C3180 C3179 1.355 . S
C3180 C3182 1.419 . S
C3181 C3176 1.425 . S
C3181 C3178 1.409 . S
C3181 C3179 1.415 . S
C3182 H3172 0.930 . S
C3182 C3180 1.419 . S
C3182 C3183 1.362 . S
C3183 H3173 0.930 . S
C3183 C3176 1.409 . S
C3183 C3182 1.362 . S
H3184 C3190 0.930 . S
H3185 C3193 0.930 . S
H3186 C3194 0.930 . S
H3187 C3195 0.930 . S
H3188 C3198 0.930 . S
H3189 C3199 0.930 . S
C3190 H3184 0.930 . S
C3190 C3191 1.355 . S
C3190 C3192 1.415 . S
C3191 C3190 1.355 . S
C3191 C3193 1.419 . S
C3192 C3190 1.415 . S
C3192 C3197 1.425 . S
C3192 C3199 1.409 . S
C3193 H3185 0.930 . S
C3193 C3191 1.419 . S
C3193 C3194 1.362 . S
C3194 H3186 0.930 . S
C3194 C3193 1.362 . S
C3194 C3197 1.409 . S
C3195 H3187 0.930 . S
C3195 C3196 1.355 . S
C3195 C3197 1.415 . S
C3196 C3195 1.355 . S
C3196 C3198 1.419 . S
C3197 C3192 1.425 . S
C3197 C3194 1.409 . S
C3197 C3195 1.415 . S
C3198 H3188 0.930 . S
C3198 C3196 1.419 . S
C3198 C3199 1.362 . S
C3199 H3189 0.930 . S
C3199 C3192 1.409 . S
C3199 C3198 1.362 . S
H3200 C3206 0.930 . S
H3201 C3209 0.930 . S
H3202 C3210 0.930 . S
H3203 C3211 0.930 . S
H3204 C3214 0.930 . S
H3205 C3215 0.930 . S
C3206 H3200 0.930 . S
C3206 C3207 1.355 . S
C3206 C3208 1.415 . S
C3207 C3206 1.355 . S
C3207 C3209 1.419 . S
C3208 C3206 1.415 . S
C3208 C3213 1.425 . S
C3208 C3215 1.409 . S
C3209 H3201 0.930 . S
C3209 C3207 1.419 . S
C3209 C3210 1.362 . S
C3210 H3202 0.930 . S
C3210 C3209 1.362 . S
C3210 C3213 1.409 . S
C3211 H3203 0.930 . S
C3211 C3212 1.355 . S
C3211 C3213 1.415 . S
C3212 C3211 1.355 . S
C3212 C3214 1.419 . S
C3213 C3208 1.425 . S
C3213 C3210 1.409 . S
C3213 C3211 1.415 . S
C3214 H3204 0.930 . S
C3214 C3212 1.419 . S
C3214 C3215 1.362 . S
C3215 H3205 0.930 . S
C3215 C3208 1.409 . S
C3215 C3214 1.362 . S
H3216 C3222 0.930 . S
H3217 C3225 0.930 . S
H3218 C3226 0.930 . S
H3219 C3227 0.930 . S
H3220 C3230 0.930 . S
H3221 C3231 0.930 . S
C3222 H3216 0.930 . S
C3222 C3223 1.355 . S
C3222 C3224 1.415 . S
C3223 C3222 1.355 . S
C3223 C3225 1.419 . S
C3224 C3222 1.415 . S
C3224 C3229 1.425 . S
C3224 C3231 1.409 . S
C3225 H3217 0.930 . S
C3225 C3223 1.419 . S
C3225 C3226 1.362 . S
C3226 H3218 0.930 . S
C3226 C3225 1.362 . S
C3226 C3229 1.409 . S
C3227 H3219 0.930 . S
C3227 C3228 1.355 . S
C3227 C3229 1.415 . S
C3228 C3227 1.355 . S
C3228 C3230 1.419 . S
C3229 C3224 1.425 . S
C3229 C3226 1.409 . S
C3229 C3227 1.415 . S
C3230 H3220 0.930 . S
C3230 C3228 1.419 . S
C3230 C3231 1.362 . S
C3231 H3221 0.930 . S
C3231 C3224 1.409 . S
C3231 C3230 1.362 . S
H3232 C3238 0.930 . S
H3233 C3241 0.930 . S
H3234 C3242 0.930 . S
H3235 C3243 0.930 . S
H3236 C3246 0.930 . S
H3237 C3247 0.930 . S
C3238 H3232 0.930 . S
C3238 C3239 1.355 . S
C3238 C3240 1.415 . S
C3239 C3238 1.355 . S
C3239 C3241 1.419 . S
C3240 C3238 1.415 . S
C3240 C3245 1.425 . S
C3240 C3247 1.409 . S
C3241 H3233 0.930 . S
C3241 C3239 1.419 . S
C3241 C3242 1.362 . S
C3242 H3234 0.930 . S
C3242 C3241 1.362 . S
C3242 C3245 1.409 . S
C3243 H3235 0.930 . S
C3243 C3244 1.355 . S
C3243 C3245 1.415 . S
C3244 C3243 1.355 . S
C3244 C3246 1.419 . S
C3245 C3240 1.425 . S
C3245 C3242 1.409 . S
C3245 C3243 1.415 . S
C3246 H3236 0.930 . S
C3246 C3244 1.419 . S
C3246 C3247 1.362 . S
C3247 H3237 0.930 . S
C3247 C3240 1.409 . S
C3247 C3246 1.362 . S
H3248 C3254 0.930 . S
H3249 C3257 0.930 . S
H3250 C3258 0.930 . S
H3251 C3259 0.930 . S
H3252 C3262 0.930 . S
H3253 C3263 0.930 . S
C3254 H3248 0.930 . S
C3254 C3255 1.355 1_655 S
C3254 C3256 1.415 . S
C3255 C3254 1.355 1_455 S
C3255 C3257 1.419 . S
C3256 C3254 1.415 . S
C3256 C3261 1.425 1_655 S
C3256 C3263 1.409 . S
C3257 H3249 0.930 . S
C3257 C3255 1.419 . S
C3257 C3258 1.362 . S
C3258 H3250 0.930 . S
C3258 C3257 1.362 . S
C3258 C3261 1.409 . S
C3259 H3251 0.930 . S
C3259 C3260 1.355 . S
C3259 C3261 1.415 . S
C3260 C3259 1.355 . S
C3260 C3262 1.419 1_455 S
C3261 C3256 1.425 1_455 S
C3261 C3258 1.409 . S
C3261 C3259 1.415 . S
C3262 H3252 0.930 . S
C3262 C3260 1.419 1_655 S
C3262 C3263 1.362 . S
C3263 H3253 0.930 . S
C3263 C3256 1.409 . S
C3263 C3262 1.362 . S
H3264 C3270 0.930 . S
H3265 C3273 0.930 . S
H3266 C3274 0.930 . S
H3267 C3275 0.930 . S
H3268 C3278 0.930 . S
H3269 C3279 0.930 . S
C3270 H3264 0.930 . S
C3270 C3271 1.355 . S
C3270 C3272 1.415 . S
C3271 C3270 1.355 . S
C3271 C3273 1.419 . S
C3272 C3270 1.415 . S
C3272 C3277 1.425 . S
C3272 C3279 1.409 . S
C3273 H3265 0.930 . S
C3273 C3271 1.419 . S
C3273 C3274 1.362 . S
C3274 H3266 0.930 . S
C3274 C3273 1.362 . S
C3274 C3277 1.409 . S
C3275 H3267 0.930 . S
C3275 C3276 1.355 . S
C3275 C3277 1.415 . S
C3276 C3275 1.355 . S
C3276 C3278 1.419 . S
C3277 C3272 1.425 . S
C3277 C3274 1.409 . S
C3277 C3275 1.415 . S
C3278 H3268 0.930 . S
C3278 C3276 1.419 . S
C3278 C3279 1.362 . S
C3279 H3269 0.930 . S
C3279 C3272 1.409 . S
C3279 C3278 1.362 . S
H3280 C3286 0.930 . S
H3281 C3289 0.930 . S
H3282 C3290 0.930 . S
H3283 C3291 0.930 . S
H3284 C3294 0.930 1_554 S
H3285 C3295 0.930 1_554 S
C3286 H3280 0.930 . S
C3286 C3287 1.355 . S
C3286 C3288 1.415 . S
C3287 C3286 1.355 . S
C3287 C3289 1.419 . S
C3288 C3286 1.415 . S
C3288 C3293 1.425 . S
C3288 C3295 1.409 . S
C3289 H3281 0.930 . S
C3289 C3287 1.419 . S
C3289 C3290 1.362 . S
C3290 H3282 0.930 . S
C3290 C3289 1.362 . S
C3290 C3293 1.409 . S
C3291 H3283 0.930 . S
C3291 C3292 1.355 . S
C3291 C3293 1.415 . S
C3292 C3291 1.355 . S
C3292 C3294 1.419 . S
C3293 C3288 1.425 . S
C3293 C3290 1.409 . S
C3293 C3291 1.415 . S
C3294 H3284 0.930 1_556 S
C3294 C3292 1.419 . S
C3294 C3295 1.362 . S
C3295 H3285 0.930 1_556 S
C3295 C3288 1.409 . S
C3295 C3294 1.362 . S
H3296 C3302 0.930 . S
H3297 C3305 0.930 . S
H3298 C3306 0.930 . S
H3299 C3307 0.930 . S
H3300 C3310 0.930 . S
H3301 C3311 0.930 . S
C3302 H3296 0.930 . S
C3302 C3303 1.355 . S
C3302 C3304 1.415 . S
C3303 C3302 1.355 . S
C3303 C3305 1.419 . S
C3304 C3302 1.415 . S
C3304 C3309 1.425 . S
C3304 C3311 1.409 . S
C3305 H3297 0.930 . S
C3305 C3303 1.419 . S
C3305 C3306 1.362 . S
C3306 H3298 0.930 . S
C3306 C3305 1.362 . S
C3306 C3309 1.409 . S
C3307 H3299 0.930 . S
C3307 C3308 1.355 . S
C3307 C3309 1.415 . S
C3308 C3307 1.355 . S
C3308 C3310 1.419 . S
C3309 C3304 1.425 . S
C3309 C3306 1.409 . S
C3309 C3307 1.415 . S
C3310 H3300 0.930 . S
C3310 C3308 1.419 . S
C3310 C3311 1.362 . S
C3311 H3301 0.930 . S
C3311 C3304 1.409 . S
C3311 C3310 1.362 . S
H3312 C3318 0.930 . S
H3313 C3321 0.930 . S
H3314 C3322 0.930 . S
H3315 C3323 0.930 1_655 S
H3316 C3326 0.930 . S
H3317 C3327 0.930 . S
C3318 H3312 0.930 . S
C3318 C3319 1.355 . S
C3318 C3320 1.415 . S
C3319 C3318 1.355 . S
C3319 C3321 1.419 1_455 S
C3320 C3318 1.415 . S
C3320 C3325 1.425 . S
C3320 C3327 1.409 . S
C3321 H3313 0.930 . S
C3321 C3319 1.419 1_655 S
C3321 C3322 1.362 . S
C3322 H3314 0.930 . S
C3322 C3321 1.362 . S
C3322 C3325 1.409 1_655 S
C3323 H3315 0.930 1_455 S
C3323 C3324 1.355 . S
C3323 C3325 1.415 . S
C3324 C3323 1.355 . S
C3324 C3326 1.419 . S
C3325 C3320 1.425 . S
C3325 C3322 1.409 1_455 S
C3325 C3323 1.415 . S
C3326 H3316 0.930 . S
C3326 C3324 1.419 . S
C3326 C3327 1.362 . S
C3327 H3317 0.930 . S
C3327 C3320 1.409 . S
C3327 C3326 1.362 . S
H3328 C3334 0.930 . S
H3329 C3337 0.930 . S
H3330 C3338 0.930 . S
H3331 C3339 0.930 . S
H3332 C3342 0.930 . S
H3333 C3343 0.930 . S
C3334 H3328 0.930 . S
C3334 C3335 1.355 . S
C3334 C3336 1.415 . S
C3335 C3334 1.355 . S
C3335 C3337 1.419 . S
C3336 C3334 1.415 . S
C3336 C3341 1.425 . S
C3336 C3343 1.409 . S
C3337 H3329 0.930 . S
C3337 C3335 1.419 . S
C3337 C3338 1.362 . S
C3338 H3330 0.930 . S
C3338 C3337 1.362 . S
C3338 C3341 1.409 . S
C3339 H3331 0.930 . S
C3339 C3340 1.355 . S
C3339 C3341 1.415 . S
C3340 C3339 1.355 . S
C3340 C3342 1.419 . S
C3341 C3336 1.425 . S
C3341 C3338 1.409 . S
C3341 C3339 1.415 . S
C3342 H3332 0.930 . S
C3342 C3340 1.419 . S
C3342 C3343 1.362 . S
C3343 H3333 0.930 . S
C3343 C3336 1.409 . S
C3343 C3342 1.362 . S
H3344 C3350 0.930 . S
H3345 C3353 0.930 . S
H3346 C3354 0.930 . S
H3347 C3355 0.930 . S
H3348 C3358 0.930 . S
H3349 C3359 0.930 . S
C3350 H3344 0.930 . S
C3350 C3351 1.355 . S
C3350 C3352 1.415 . S
C3351 C3350 1.355 . S
C3351 C3353 1.419 . S
C3352 C3350 1.415 . S
C3352 C3357 1.425 . S
C3352 C3359 1.409 . S
C3353 H3345 0.930 . S
C3353 C3351 1.419 . S
C3353 C3354 1.362 . S
C3354 H3346 0.930 . S
C3354 C3353 1.362 . S
C3354 C3357 1.409 . S
C3355 H3347 0.930 . S
C3355 C3356 1.355 . S
C3355 C3357 1.415 . S
C3356 C3355 1.355 . S
C3356 C3358 1.419 . S
C3357 C3352 1.425 . S
C3357 C3354 1.409 . S
C3357 C3355 1.415 . S
C3358 H3348 0.930 . S
C3358 C3356 1.419 . S
C3358 C3359 1.362 . S
C3359 H3349 0.930 . S
C3359 C3352 1.409 . S
C3359 C3358 1.362 . S
H3360 C3366 0.930 . S
H3361 C3369 0.930 . S
H3362 C3370 0.930 . S
H3363 C3371 0.930 . S
H3364 C3374 0.930 . S
H3365 C3375 0.930 . S
C3366 H3360 0.930 . S
C3366 C3367 1.355 . S
C3366 C3368 1.415 . S
C3367 C3366 1.355 . S
C3367 C3369 1.419 . S
C3368 C3366 1.415 . S
C3368 C3373 1.425 . S
C3368 C3375 1.409 . S
C3369 H3361 0.930 . S
C3369 C3367 1.419 . S
C3369 C3370 1.362 . S
C3370 H3362 0.930 . S
C3370 C3369 1.362 . S
C3370 C3373 1.409 . S
C3371 H3363 0.930 . S
C3371 C3372 1.355 . S
C3371 C3373 1.415 . S
C3372 C3371 1.355 . S
C3372 C3374 1.419 . S
C3373 C3368 1.425 . S
C3373 C3370 1.409 . S
C3373 C3371 1.415 . S
C3374 H3364 0.930 . S
C3374 C3372 1.419 . S
C3374 C3375 1.362 . S
C3375 H3365 0.930 . S
C3375 C3368 1.409 . S
C3375 C3374 1.362 . S
H3376 C3382 0.930 . S
H3377 C3385 0.930 . S
H3378 C3386 0.905 1_455 S
H3379 C3387 0.930 1_455 S
H3380 C3390 0.930 . S
H3381 C3391 0.930 . S
C3382 H3376 0.930 . S
C3382 C3383 1.355 . S
C3382 C3384 1.415 . S
C3383 C3382 1.355 . S
C3383 C3385 1.419 . S
C3384 C3382 1.415 . S
C3384 C3389 1.425 . S
C3384 C3391 1.409 . S
C3385 H3377 0.930 . S
C3385 C3383 1.419 . S
C3385 C3386 1.362 . S
C3386 H3378 0.905 1_655 S
C3386 C3385 1.362 . S
C3386 C3389 1.409 . S
C3387 H3379 0.930 1_655 S
C3387 C3388 1.355 . S
C3387 C3389 1.415 . S
C3388 C3387 1.355 . S
C3388 C3390 1.419 . S
C3389 C3384 1.425 . S
C3389 C3386 1.409 . S
C3389 C3387 1.415 . S
C3390 H3380 0.930 . S
C3390 C3388 1.419 . S
C3390 C3391 1.362 . S
C3391 H3381 0.930 . S
C3391 C3384 1.409 . S
C3391 C3390 1.362 . S
H3392 C3398 0.930 . S
H3393 C3401 0.930 . S
H3394 C3402 0.930 . S
H3395 C3403 0.930 . S
H3396 C3406 0.930 . S
H3397 C3407 0.930 . S
C3398 H3392 0.930 . S
C3398 C3399 1.355 . S
C3398 C3400 1.415 . S
C3399 C3398 1.355 . S
C3399 C3401 1.419 . S
C3400 C3398 1.415 . S
C3400 C3405 1.425 . S
C3400 C3407 1.409 . S
C3401 H3393 0.930 . S
C3401 C3399 1.419 . S
C3401 C3402 1.362 . S
C3402 H3394 0.930 . S
C3402 C3401 1.362 . S
C3402 C3405 1.409 . S
C3403 H3395 0.930 . S
C3403 C3404 1.355 . S
C3403 C3405 1.415 . S
C3404 C3403 1.355 . S
C3404 C3406 1.419 . S
C3405 C3400 1.425 . S
C3405 C3402 1.409 . S
C3405 C3403 1.415 . S
C3406 H3396 0.930 . S
C3406 C3404 1.419 . S
C3406 C3407 1.362 . S
C3407 H3397 0.930 . S
C3407 C3400 1.409 . S
C3407 C3406 1.362 . S
H3408 C3414 0.930 . S
H3409 C3417 0.930 . S
H3410 C3418 0.930 . S
H3411 C3419 0.930 . S
H3412 C3422 0.930 . S
H3413 C3423 0.930 . S
C3414 H3408 0.930 . S
C3414 C3415 1.355 . S
C3414 C3416 1.415 . S
C3415 C3414 1.355 . S
C3415 C3417 1.419 . S
C3416 C3414 1.415 . S
C3416 C3421 1.425 . S
C3416 C3423 1.409 . S
C3417 H3409 0.930 . S
C3417 C3415 1.419 . S
C3417 C3418 1.362 . S
C3418 H3410 0.930 . S
C3418 C3417 1.362 . S
C3418 C3421 1.409 . S
C3419 H3411 0.930 . S
C3419 C3420 1.355 . S
C3419 C3421 1.415 . S
C3420 C3419 1.355 . S
C3420 C3422 1.419 . S
C3421 C3416 1.425 . S
C3421 C3418 1.409 . S
C3421 C3419 1.415 . S
C3422 H3412 0.930 . S
C3422 C3420 1.419 . S
C3422 C3423 1.362 . S
C3423 H3413 0.930 . S
C3423 C3416 1.409 . S
C3423 C3422 1.362 . S
H3424 C3430 0.930 . S
H3425 C3433 0.930 . S
H3426 C3434 0.930 . S
H3427 C3435 0.930 . S
H3428 C3438 0.930 . S
H3429 C3439 0.930 . S
C3430 H3424 0.930 . S
C3430 C3431 1.355 . S
C3430 C3432 1.415 . S
C3431 C3430 1.355 . S
C3431 C3433 1.419 . S
C3432 C3430 1.415 . S
C3432 C3437 1.425 . S
C3432 C3439 1.409 . S
C3433 H3425 0.930 . S
C3433 C3431 1.419 . S
C3433 C3434 1.362 . S
C3434 H3426 0.930 . S
C3434 C3433 1.362 . S
C3434 C3437 1.409 . S
C3435 H3427 0.930 . S
C3435 C3436 1.355 . S
C3435 C3437 1.415 . S
C3436 C3435 1.355 . S
C3436 C3438 1.419 . S
C3437 C3432 1.425 . S
C3437 C3434 1.409 . S
C3437 C3435 1.415 . S
C3438 H3428 0.930 . S
C3438 C3436 1.419 . S
C3438 C3439 1.362 . S
C3439 H3429 0.930 . S
C3439 C3432 1.409 . S
C3439 C3438 1.362 . S
H3440 C3446 0.930 . S
H3441 C3449 0.930 . S
H3442 C3450 0.930 . S
H3443 C3451 0.930 . S
H3444 C3454 0.930 1_455 S
H3445 C3455 0.930 1_455 S
C3446 H3440 0.930 . S
C3446 C3447 1.355 . S
C3446 C3448 1.415 . S
C3447 C3446 1.355 . S
C3447 C3449 1.419 . S
C3448 C3446 1.415 . S
C3448 C3453 1.425 . S
C3448 C3455 1.409 . S
C3449 H3441 0.930 . S
C3449 C3447 1.419 . S
C3449 C3450 1.362 . S
C3450 H3442 0.930 . S
C3450 C3449 1.362 . S
C3450 C3453 1.409 . S
C3451 H3443 0.930 . S
C3451 C3452 1.355 . S
C3451 C3453 1.415 . S
C3452 C3451 1.355 . S
C3452 C3454 1.419 . S
C3453 C3448 1.425 . S
C3453 C3450 1.409 . S
C3453 C3451 1.415 . S
C3454 H3444 0.930 1_655 S
C3454 C3452 1.419 . S
C3454 C3455 1.362 . S
C3455 H3445 0.930 1_655 S
C3455 C3448 1.409 . S
C3455 C3454 1.362 . S
H3456 C3462 0.930 . S
H3457 C3465 0.930 . S
H3458 C3466 0.930 . S
H3459 C3467 0.930 . S
H3460 C3470 0.930 . S
H3461 C3471 0.930 . S
C3462 H3456 0.930 . S
C3462 C3463 1.355 . S
C3462 C3464 1.415 . S
C3463 C3462 1.355 . S
C3463 C3465 1.419 . S
C3464 C3462 1.415 . S
C3464 C3469 1.425 . S
C3464 C3471 1.409 . S
C3465 H3457 0.930 . S
C3465 C3463 1.419 . S
C3465 C3466 1.362 . S
C3466 H3458 0.930 . S
C3466 C3465 1.362 . S
C3466 C3469 1.409 . S
C3467 H3459 0.930 . S
C3467 C3468 1.355 . S
C3467 C3469 1.415 . S
C3468 C3467 1.355 . S
C3468 C3470 1.419 . S
C3469 C3464 1.425 . S
C3469 C3466 1.409 . S
C3469 C3467 1.415 . S
C3470 H3460 0.930 . S
C3470 C3468 1.419 . S
C3470 C3471 1.362 . S
C3471 H3461 0.930 . S
C3471 C3464 1.409 . S
C3471 C3470 1.362 . S
H3472 C3478 0.930 . S
H3473 C3481 0.930 . S
H3474 C3482 0.930 . S
H3475 C3483 0.930 . S
H3476 C3486 0.930 . S
H3477 C3487 0.930 . S
C3478 H3472 0.930 . S
C3478 C3479 1.355 . S
C3478 C3480 1.415 . S
C3479 C3478 1.355 . S
C3479 C3481 1.419 . S
C3480 C3478 1.415 . S
C3480 C3485 1.425 . S
C3480 C3487 1.409 . S
C3481 H3473 0.930 . S
C3481 C3479 1.419 . S
C3481 C3482 1.362 . S
C3482 H3474 0.930 . S
C3482 C3481 1.362 . S
C3482 C3485 1.409 . S
C3483 H3475 0.930 . S
C3483 C3484 1.355 . S
C3483 C3485 1.415 . S
C3484 C3483 1.355 . S
C3484 C3486 1.419 . S
C3485 C3480 1.425 . S
C3485 C3482 1.409 . S
C3485 C3483 1.415 . S
C3486 H3476 0.930 . S
C3486 C3484 1.419 . S
C3486 C3487 1.362 . S
C3487 H3477 0.930 . S
C3487 C3480 1.409 . S
C3487 C3486 1.362 . S
H3488 C3494 0.930 . S
H3489 C3497 0.930 . S
H3490 C3498 0.930 . S
H3491 C3499 0.930 . S
H3492 C3502 0.930 . S
H3493 C3503 0.930 . S
C3494 H3488 0.930 . S
C3494 C3495 1.355 . S
C3494 C3496 1.415 . S
C3495 C3494 1.355 . S
C3495 C3497 1.419 . S
C3496 C3494 1.415 . S
C3496 C3501 1.425 . S
C3496 C3503 1.409 . S
C3497 H3489 0.930 . S
C3497 C3495 1.419 . S
C3497 C3498 1.362 . S
C3498 H3490 0.930 . S
C3498 C3497 1.362 . S
C3498 C3501 1.409 . S
C3499 H3491 0.930 . S
C3499 C3500 1.355 . S
C3499 C3501 1.415 . S
C3500 C3499 1.355 . S
C3500 C3502 1.419 . S
C3501 C3496 1.425 . S
C3501 C3498 1.409 . S
C3501 C3499 1.415 . S
C3502 H3492 0.930 . S
C3502 C3500 1.419 . S
C3502 C3503 1.362 . S
C3503 H3493 0.930 . S
C3503 C3496 1.409 . S
C3503 C3502 1.362 . S
H3504 C3510 0.930 . S
H3505 C3513 0.930 . S
H3506 C3514 0.930 . S
H3507 C3515 0.930 . S
H3508 C3518 0.930 . S
H3509 C3519 0.930 . S
C3510 H3504 0.930 . S
C3510 C3511 1.355 . S
C3510 C3512 1.415 . S
C3511 C3510 1.355 . S
C3511 C3513 1.419 . S
C3512 C3510 1.415 . S
C3512 C3517 1.425 . S
C3512 C3519 1.409 . S
C3513 H3505 0.930 . S
C3513 C3511 1.419 . S
C3513 C3514 1.362 . S
C3514 H3506 0.930 . S
C3514 C3513 1.362 . S
C3514 C3517 1.409 . S
C3515 H3507 0.930 . S
C3515 C3516 1.355 . S
C3515 C3517 1.415 . S
C3516 C3515 1.355 . S
C3516 C3518 1.419 . S
C3517 C3512 1.425 . S
C3517 C3514 1.409 . S
C3517 C3515 1.415 . S
C3518 H3508 0.930 . S
C3518 C3516 1.419 . S
C3518 C3519 1.362 . S
C3519 H3509 0.930 . S
C3519 C3512 1.409 . S
C3519 C3518 1.362 . S
H3520 C3526 0.930 . S
H3521 C3529 0.930 . S
H3522 C3530 0.930 . S
H3523 C3531 0.930 . S
H3524 C3534 0.930 1_565 S
H3525 C3535 0.930 . S
C3526 H3520 0.930 . S
C3526 C3527 1.355 1_556 S
C3526 C3528 1.415 1_556 S
C3527 C3526 1.355 1_554 S
C3527 C3529 1.419 . S
C3528 C3526 1.415 1_554 S
C3528 C3533 1.425 . S
C3528 C3535 1.409 1_554 S
C3529 H3521 0.930 . S
C3529 C3527 1.419 . S
C3529 C3530 1.362 . S
C3530 H3522 0.930 . S
C3530 C3529 1.362 . S
C3530 C3533 1.409 . S
C3531 H3523 0.930 . S
C3531 C3532 1.355 . S
C3531 C3533 1.415 . S
C3532 C3531 1.355 . S
C3532 C3534 1.419 1_554 S
C3533 C3528 1.425 . S
C3533 C3530 1.409 . S
C3533 C3531 1.415 . S
C3534 H3524 0.930 1_545 S
C3534 C3532 1.419 1_556 S
C3534 C3535 1.362 . S
C3535 H3525 0.930 . S
C3535 C3528 1.409 1_556 S
C3535 C3534 1.362 . S
H3536 C3542 0.930 . S
H3537 C3545 0.930 . S
H3538 C3546 0.930 . S
H3539 C3547 0.930 . S
H3540 C3550 0.930 . S
H3541 C3551 0.930 . S
C3542 H3536 0.930 . S
C3542 C3543 1.355 . S
C3542 C3544 1.415 . S
C3543 C3542 1.355 . S
C3543 C3545 1.419 . S
C3544 C3542 1.415 . S
C3544 C3549 1.425 . S
C3544 C3551 1.409 . S
C3545 H3537 0.930 . S
C3545 C3543 1.419 . S
C3545 C3546 1.362 . S
C3546 H3538 0.930 . S
C3546 C3545 1.362 . S
C3546 C3549 1.409 . S
C3547 H3539 0.930 . S
C3547 C3548 1.355 . S
C3547 C3549 1.415 . S
C3548 C3547 1.355 . S
C3548 C3550 1.419 . S
C3549 C3544 1.425 . S
C3549 C3546 1.409 . S
C3549 C3547 1.415 . S
C3550 H3540 0.930 . S
C3550 C3548 1.419 . S
C3550 C3551 1.362 . S
C3551 H3541 0.930 . S
C3551 C3544 1.409 . S
C3551 C3550 1.362 . S
H3552 C3558 0.930 . S
H3553 C3561 0.930 . S
H3554 C3562 0.930 . S
H3555 C3563 0.931 . S
H3556 C3566 0.930 . S
H3557 C3567 0.930 . S
C3558 H3552 0.930 . S
C3558 C3559 1.355 . S
C3558 C3560 1.416 . S
C3559 C3558 1.355 . S
C3559 C3561 1.419 . S
C3560 C3558 1.416 . S
C3560 C3565 1.426 . S
C3560 C3567 1.408 1_554 S
C3561 H3553 0.930 . S
C3561 C3559 1.419 . S
C3561 C3562 1.362 . S
C3562 H3554 0.930 . S
C3562 C3561 1.362 . S
C3562 C3565 1.409 . S
C3563 H3555 0.931 . S
C3563 C3564 1.355 . S
C3563 C3565 1.415 1_556 S
C3564 C3563 1.355 . S
C3564 C3566 1.419 . S
C3565 C3560 1.426 . S
C3565 C3562 1.409 . S
C3565 C3563 1.415 1_554 S
C3566 H3556 0.930 . S
C3566 C3564 1.419 . S
C3566 C3567 1.362 . S
C3567 H3557 0.930 . S
C3567 C3560 1.408 1_556 S
C3567 C3566 1.362 . S
H3568 C3574 0.930 . S
H3569 C3577 0.930 . S
H3570 C3578 0.930 . S
H3571 C3579 0.930 . S
H3572 C3582 0.930 . S
H3573 C3583 0.930 . S
C3574 H3568 0.930 . S
C3574 C3575 1.355 . S
C3574 C3576 1.415 . S
C3575 C3574 1.355 . S
C3575 C3577 1.419 . S
C3576 C3574 1.415 . S
C3576 C3581 1.425 . S
C3576 C3583 1.409 . S
C3577 H3569 0.930 . S
C3577 C3575 1.419 . S
C3577 C3578 1.362 . S
C3578 H3570 0.930 . S
C3578 C3577 1.362 . S
C3578 C3581 1.409 . S
C3579 H3571 0.930 . S
C3579 C3580 1.355 . S
C3579 C3581 1.415 . S
C3580 C3579 1.355 . S
C3580 C3582 1.419 . S
C3581 C3576 1.425 . S
C3581 C3578 1.409 . S
C3581 C3579 1.415 . S
C3582 H3572 0.930 . S
C3582 C3580 1.419 . S
C3582 C3583 1.362 . S
C3583 H3573 0.930 . S
C3583 C3576 1.409 . S
C3583 C3582 1.362 . S
H3584 C3590 0.930 . S
H3585 C3593 0.930 . S
H3586 C3594 0.930 . S
H3587 C3595 0.930 . S
H3588 C3598 0.930 . S
H3589 C3599 0.930 . S
C3590 H3584 0.930 . S
C3590 C3591 1.355 . S
C3590 C3592 1.415 . S
C3591 C3590 1.355 . S
C3591 C3593 1.419 . S
C3592 C3590 1.415 . S
C3592 C3597 1.425 . S
C3592 C3599 1.409 . S
C3593 H3585 0.930 . S
C3593 C3591 1.419 . S
C3593 C3594 1.362 . S
C3594 H3586 0.930 . S
C3594 C3593 1.362 . S
C3594 C3597 1.409 . S
C3595 H3587 0.930 . S
C3595 C3596 1.355 . S
C3595 C3597 1.415 . S
C3596 C3595 1.355 . S
C3596 C3598 1.419 . S
C3597 C3592 1.425 . S
C3597 C3594 1.409 . S
C3597 C3595 1.415 . S
C3598 H3588 0.930 . S
C3598 C3596 1.419 . S
C3598 C3599 1.362 . S
C3599 H3589 0.930 . S
C3599 C3592 1.409 . S
C3599 C3598 1.362 . S
H3600 C3606 0.930 . S
H3601 C3609 0.930 . S
H3602 C3610 0.930 . S
H3603 C3611 0.930 . S
H3604 C3614 0.930 . S
H3605 C3615 0.930 . S
C3606 H3600 0.930 . S
C3606 C3607 1.355 . S
C3606 C3608 1.415 . S
C3607 C3606 1.355 . S
C3607 C3609 1.419 . S
C3608 C3606 1.415 . S
C3608 C3613 1.425 . S
C3608 C3615 1.409 . S
C3609 H3601 0.930 . S
C3609 C3607 1.419 . S
C3609 C3610 1.362 . S
C3610 H3602 0.930 . S
C3610 C3609 1.362 . S
C3610 C3613 1.409 . S
C3611 H3603 0.930 . S
C3611 C3612 1.355 . S
C3611 C3613 1.415 . S
C3612 C3611 1.355 . S
C3612 C3614 1.419 . S
C3613 C3608 1.425 . S
C3613 C3610 1.409 . S
C3613 C3611 1.415 . S
C3614 H3604 0.930 . S
C3614 C3612 1.419 . S
C3614 C3615 1.362 . S
C3615 H3605 0.930 . S
C3615 C3608 1.409 . S
C3615 C3614 1.362 . S
H3616 C3622 0.930 . S
H3617 C3625 0.930 . S
H3618 C3626 0.930 . S
H3619 C3627 0.930 . S
H3620 C3630 0.930 . S
H3621 C3631 0.930 . S
C3622 H3616 0.930 . S
C3622 C3623 1.355 . S
C3622 C3624 1.415 . S
C3623 C3622 1.355 . S
C3623 C3625 1.419 . S
C3624 C3622 1.415 . S
C3624 C3629 1.425 . S
C3624 C3631 1.409 . S
C3625 H3617 0.930 . S
C3625 C3623 1.419 . S
C3625 C3626 1.362 . S
C3626 H3618 0.930 . S
C3626 C3625 1.362 . S
C3626 C3629 1.409 . S
C3627 H3619 0.930 . S
C3627 C3628 1.355 . S
C3627 C3629 1.415 . S
C3628 C3627 1.355 . S
C3628 C3630 1.419 . S
C3629 C3624 1.425 . S
C3629 C3626 1.409 . S
C3629 C3627 1.415 . S
C3630 H3620 0.930 . S
C3630 C3628 1.419 . S
C3630 C3631 1.362 . S
C3631 H3621 0.930 . S
C3631 C3624 1.409 . S
C3631 C3630 1.362 . S
H3632 C3638 0.930 . S
H3633 C3641 0.930 . S
H3634 C3642 0.930 . S
H3635 C3643 0.930 . S
H3636 C3646 0.930 . S
H3637 C3647 0.930 . S
C3638 H3632 0.930 . S
C3638 C3639 1.355 . S
C3638 C3640 1.415 . S
C3639 C3638 1.355 . S
C3639 C3641 1.419 1_455 S
C3640 C3638 1.415 . S
C3640 C3645 1.425 1_455 S
C3640 C3647 1.409 . S
C3641 H3633 0.930 . S
C3641 C3639 1.419 1_655 S
C3641 C3642 1.362 . S
C3642 H3634 0.930 . S
C3642 C3641 1.362 . S
C3642 C3645 1.409 . S
C3643 H3635 0.930 . S
C3643 C3644 1.355 . S
C3643 C3645 1.415 . S
C3644 C3643 1.355 . S
C3644 C3646 1.419 1_655 S
C3645 C3640 1.425 1_655 S
C3645 C3642 1.409 . S
C3645 C3643 1.415 . S
C3646 H3636 0.930 . S
C3646 C3644 1.419 1_455 S
C3646 C3647 1.362 . S
C3647 H3637 0.930 . S
C3647 C3640 1.409 . S
C3647 C3646 1.362 . S
H3648 C3654 0.930 . S
H3649 C3657 0.930 . S
H3650 C3658 0.930 . S
H3651 C3659 0.930 . S
H3652 C3662 0.930 . S
H3653 C3663 0.930 . S
C3654 H3648 0.930 . S
C3654 C3655 1.355 . S
C3654 C3656 1.415 . S
C3655 C3654 1.355 . S
C3655 C3657 1.419 . S
C3656 C3654 1.415 . S
C3656 C3661 1.425 . S
C3656 C3663 1.409 . S
C3657 H3649 0.930 . S
C3657 C3655 1.419 . S
C3657 C3658 1.362 . S
C3658 H3650 0.930 . S
C3658 C3657 1.362 . S
C3658 C3661 1.409 . S
C3659 H3651 0.930 . S
C3659 C3660 1.355 . S
C3659 C3661 1.415 . S
C3660 C3659 1.355 . S
C3660 C3662 1.419 . S
C3661 C3656 1.425 . S
C3661 C3658 1.409 . S
C3661 C3659 1.415 . S
C3662 H3652 0.930 . S
C3662 C3660 1.419 . S
C3662 C3663 1.362 . S
C3663 H3653 0.930 . S
C3663 C3656 1.409 . S
C3663 C3662 1.362 . S
H3664 C3670 0.930 . S
H3665 C3673 0.930 . S
H3666 C3674 0.930 . S
H3667 C3675 0.930 . S
H3668 C3678 0.930 . S
H3669 C3679 0.930 . S
C3670 H3664 0.930 . S
C3670 C3671 1.355 . S
C3670 C3672 1.415 . S
C3671 C3670 1.355 . S
C3671 C3673 1.419 . S
C3672 C3670 1.415 . S
C3672 C3677 1.425 . S
C3672 C3679 1.409 . S
C3673 H3665 0.930 . S
C3673 C3671 1.419 . S
C3673 C3674 1.362 . S
C3674 H3666 0.930 . S
C3674 C3673 1.362 . S
C3674 C3677 1.409 . S
C3675 H3667 0.930 . S
C3675 C3676 1.355 . S
C3675 C3677 1.415 . S
C3676 C3675 1.355 . S
C3676 C3678 1.419 . S
C3677 C3672 1.425 . S
C3677 C3674 1.409 . S
C3677 C3675 1.415 . S
C3678 H3668 0.930 . S
C3678 C3676 1.419 . S
C3678 C3679 1.362 . S
C3679 H3669 0.930 . S
C3679 C3672 1.409 . S
C3679 C3678 1.362 . S
H3680 C3686 0.930 . S
H3681 C3689 0.930 . S
H3682 C3690 0.930 . S
H3683 C3691 0.930 . S
H3684 C3694 0.930 . S
H3685 C3695 0.930 . S
C3686 H3680 0.930 . S
C3686 C3687 1.355 . S
C3686 C3688 1.415 . S
C3687 C3686 1.355 . S
C3687 C3689 1.419 . S
C3688 C3686 1.415 . S
C3688 C3693 1.425 . S
C3688 C3695 1.409 . S
C3689 H3681 0.930 . S
C3689 C3687 1.419 . S
C3689 C3690 1.362 . S
C3690 H3682 0.930 . S
C3690 C3689 1.362 . S
C3690 C3693 1.409 . S
C3691 H3683 0.930 . S
C3691 C3692 1.355 . S
C3691 C3693 1.415 . S
C3692 C3691 1.355 . S
C3692 C3694 1.419 . S
C3693 C3688 1.425 . S
C3693 C3690 1.409 . S
C3693 C3691 1.415 . S
C3694 H3684 0.930 . S
C3694 C3692 1.419 . S
C3694 C3695 1.362 . S
C3695 H3685 0.930 . S
C3695 C3688 1.409 . S
C3695 C3694 1.362 . S
H3696 C3702 0.930 . S
H3697 C3705 0.930 . S
H3698 C3706 0.930 . S
H3699 C3707 0.930 . S
H3700 C3710 0.930 . S
H3701 C3711 0.930 . S
C3702 H3696 0.930 . S
C3702 C3703 1.355 1_655 S
C3702 C3704 1.415 . S
C3703 C3702 1.355 1_455 S
C3703 C3705 1.419 . S
C3704 C3702 1.415 . S
C3704 C3709 1.425 1_655 S
C3704 C3711 1.409 . S
C3705 H3697 0.930 . S
C3705 C3703 1.419 . S
C3705 C3706 1.362 . S
C3706 H3698 0.930 . S
C3706 C3705 1.362 . S
C3706 C3709 1.409 . S
C3707 H3699 0.930 . S
C3707 C3708 1.355 1_455 S
C3707 C3709 1.415 . S
C3708 C3707 1.355 1_655 S
C3708 C3710 1.419 . S
C3709 C3704 1.425 1_455 S
C3709 C3706 1.409 . S
C3709 C3707 1.415 . S
C3710 H3700 0.930 . S
C3710 C3708 1.419 . S
C3710 C3711 1.362 . S
C3711 H3701 0.930 . S
C3711 C3704 1.409 . S
C3711 C3710 1.362 . S
H3712 C3718 0.930 . S
H3713 C3721 0.930 . S
H3714 C3722 0.930 . S
H3715 C3723 0.930 . S
H3716 C3726 0.930 . S
H3717 C3727 0.930 . S
C3718 H3712 0.930 . S
C3718 C3719 1.355 . S
C3718 C3720 1.415 . S
C3719 C3718 1.355 . S
C3719 C3721 1.419 . S
C3720 C3718 1.415 . S
C3720 C3725 1.425 . S
C3720 C3727 1.409 . S
C3721 H3713 0.930 . S
C3721 C3719 1.419 . S
C3721 C3722 1.362 . S
C3722 H3714 0.930 . S
C3722 C3721 1.362 . S
C3722 C3725 1.409 . S
C3723 H3715 0.930 . S
C3723 C3724 1.355 . S
C3723 C3725 1.415 . S
C3724 C3723 1.355 . S
C3724 C3726 1.419 . S
C3725 C3720 1.425 . S
C3725 C3722 1.409 . S
C3725 C3723 1.415 . S
C3726 H3716 0.930 . S
C3726 C3724 1.419 . S
C3726 C3727 1.362 . S
C3727 H3717 0.930 . S
C3727 C3720 1.409 . S
C3727 C3726 1.362 . S
H3728 C3734 0.930 . S
H3729 C3737 0.930 . S
H3730 C3738 0.930 . S
H3731 C3739 0.930 . S
H3732 C3742 0.930 . S
H3733 C3743 0.930 . S
C3734 H3728 0.930 . S
C3734 C3735 1.355 . S
C3734 C3736 1.415 . S
C3735 C3734 1.355 . S
C3735 C3737 1.419 . S
C3736 C3734 1.415 . S
C3736 C3741 1.425 . S
C3736 C3743 1.409 . S
C3737 H3729 0.930 . S
C3737 C3735 1.419 . S
C3737 C3738 1.362 . S
C3738 H3730 0.930 . S
C3738 C3737 1.362 . S
C3738 C3741 1.409 . S
C3739 H3731 0.930 . S
C3739 C3740 1.355 . S
C3739 C3741 1.415 . S
C3740 C3739 1.355 . S
C3740 C3742 1.419 . S
C3741 C3736 1.425 . S
C3741 C3738 1.409 . S
C3741 C3739 1.415 . S
C3742 H3732 0.930 . S
C3742 C3740 1.419 . S
C3742 C3743 1.362 . S
C3743 H3733 0.930 . S
C3743 C3736 1.409 . S
C3743 C3742 1.362 . S
H3744 C3750 0.930 . S
H3745 C3753 0.930 . S
H3746 C3754 0.930 . S
H3747 C3755 0.930 . S
H3748 C3758 0.930 . S
H3749 C3759 0.930 . S
C3750 H3744 0.930 . S
C3750 C3751 1.355 . S
C3750 C3752 1.415 . S
C3751 C3750 1.355 . S
C3751 C3753 1.419 . S
C3752 C3750 1.415 . S
C3752 C3757 1.425 . S
C3752 C3759 1.409 . S
C3753 H3745 0.930 . S
C3753 C3751 1.419 . S
C3753 C3754 1.362 . S
C3754 H3746 0.930 . S
C3754 C3753 1.362 . S
C3754 C3757 1.409 . S
C3755 H3747 0.930 . S
C3755 C3756 1.355 . S
C3755 C3757 1.415 . S
C3756 C3755 1.355 . S
C3756 C3758 1.419 . S
C3757 C3752 1.425 . S
C3757 C3754 1.409 . S
C3757 C3755 1.415 . S
C3758 H3748 0.930 . S
C3758 C3756 1.419 . S
C3758 C3759 1.362 . S
C3759 H3749 0.930 . S
C3759 C3752 1.409 . S
C3759 C3758 1.362 . S
H3760 C3766 0.930 . S
H3761 C3769 0.930 . S
H3762 C3770 0.930 . S
H3763 C3771 0.930 . S
H3764 C3774 0.891 1_655 S
H3765 C3775 0.930 . S
C3766 H3760 0.930 . S
C3766 C3767 1.355 . S
C3766 C3768 1.415 . S
C3767 C3766 1.355 . S
C3767 C3769 1.419 . S
C3768 C3766 1.415 . S
C3768 C3773 1.425 . S
C3768 C3775 1.409 . S
C3769 H3761 0.930 . S
C3769 C3767 1.419 . S
C3769 C3770 1.362 . S
C3770 H3762 0.930 . S
C3770 C3769 1.362 . S
C3770 C3773 1.409 . S
C3771 H3763 0.930 . S
C3771 C3772 1.355 . S
C3771 C3773 1.415 . S
C3772 C3771 1.355 . S
C3772 C3774 1.419 . S
C3773 C3768 1.425 . S
C3773 C3770 1.409 . S
C3773 C3771 1.415 . S
C3774 H3764 0.891 1_455 S
C3774 C3772 1.419 . S
C3774 C3775 1.362 . S
C3775 H3765 0.930 . S
C3775 C3768 1.409 . S
C3775 C3774 1.362 . S
H3776 C3782 0.930 . S
H3777 C3785 0.930 . S
H3778 C3786 0.930 . S
H3779 C3787 0.930 . S
H3780 C3790 0.930 . S
H3781 C3791 0.930 . S
C3782 H3776 0.930 . S
C3782 C3783 1.355 . S
C3782 C3784 1.415 . S
C3783 C3782 1.355 . S
C3783 C3785 1.419 . S
C3784 C3782 1.415 . S
C3784 C3789 1.425 . S
C3784 C3791 1.409 . S
C3785 H3777 0.930 . S
C3785 C3783 1.419 . S
C3785 C3786 1.362 . S
C3786 H3778 0.930 . S
C3786 C3785 1.362 . S
C3786 C3789 1.409 . S
C3787 H3779 0.930 . S
C3787 C3788 1.355 . S
C3787 C3789 1.415 . S
C3788 C3787 1.355 . S
C3788 C3790 1.419 . S
C3789 C3784 1.425 . S
C3789 C3786 1.409 . S
C3789 C3787 1.415 . S
C3790 H3780 0.930 . S
C3790 C3788 1.419 . S
C3790 C3791 1.362 . S
C3791 H3781 0.930 . S
C3791 C3784 1.409 . S
C3791 C3790 1.362 . S
H3792 C3798 0.930 . S
H3793 C3801 0.930 . S
H3794 C3802 0.930 . S
H3795 C3803 0.930 . S
H3796 C3806 0.930 . S
H3797 C3807 0.930 . S
C3798 H3792 0.930 . S
C3798 C3799 1.355 . S
C3798 C3800 1.415 . S
C3799 C3798 1.355 . S
C3799 C3801 1.419 . S
C3800 C3798 1.415 . S
C3800 C3805 1.425 . S
C3800 C3807 1.409 . S
C3801 H3793 0.930 . S
C3801 C3799 1.419 . S
C3801 C3802 1.362 . S
C3802 H3794 0.930 . S
C3802 C3801 1.362 . S
C3802 C3805 1.409 . S
C3803 H3795 0.930 . S
C3803 C3804 1.355 . S
C3803 C3805 1.415 . S
C3804 C3803 1.355 . S
C3804 C3806 1.419 . S
C3805 C3800 1.425 . S
C3805 C3802 1.409 . S
C3805 C3803 1.415 . S
C3806 H3796 0.930 . S
C3806 C3804 1.419 . S
C3806 C3807 1.362 . S
C3807 H3797 0.930 . S
C3807 C3800 1.409 . S
C3807 C3806 1.362 . S
H3808 C3814 0.930 . S
H3809 C3817 0.930 . S
H3810 C3818 0.930 . S
H3811 C3819 0.930 . S
H3812 C3822 0.930 . S
H3813 C3823 0.930 . S
C3814 H3808 0.930 . S
C3814 C3815 1.355 . S
C3814 C3816 1.415 . S
C3815 C3814 1.355 . S
C3815 C3817 1.419 . S
C3816 C3814 1.415 . S
C3816 C3821 1.425 . S
C3816 C3823 1.409 . S
C3817 H3809 0.930 . S
C3817 C3815 1.419 . S
C3817 C3818 1.362 . S
C3818 H3810 0.930 . S
C3818 C3817 1.362 . S
C3818 C3821 1.409 . S
C3819 H3811 0.930 . S
C3819 C3820 1.355 . S
C3819 C3821 1.415 . S
C3820 C3819 1.355 . S
C3820 C3822 1.419 . S
C3821 C3816 1.425 . S
C3821 C3818 1.409 . S
C3821 C3819 1.415 . S
C3822 H3812 0.930 . S
C3822 C3820 1.419 . S
C3822 C3823 1.362 . S
C3823 H3813 0.930 . S
C3823 C3816 1.409 . S
C3823 C3822 1.362 . S
H3824 C3830 0.930 . S
H3825 C3833 0.930 . S
H3826 C3834 0.930 . S
H3827 C3835 0.930 . S
H3828 C3838 0.930 . S
H3829 C3839 0.930 . S
C3830 H3824 0.930 . S
C3830 C3831 1.355 . S
C3830 C3832 1.415 . S
C3831 C3830 1.355 . S
C3831 C3833 1.419 . S
C3832 C3830 1.415 . S
C3832 C3837 1.425 . S
C3832 C3839 1.409 . S
C3833 H3825 0.930 . S
C3833 C3831 1.419 . S
C3833 C3834 1.362 . S
C3834 H3826 0.930 . S
C3834 C3833 1.362 . S
C3834 C3837 1.409 . S
C3835 H3827 0.930 . S
C3835 C3836 1.355 . S
C3835 C3837 1.415 . S
C3836 C3835 1.355 . S
C3836 C3838 1.419 . S
C3837 C3832 1.425 . S
C3837 C3834 1.409 . S
C3837 C3835 1.415 . S
C3838 H3828 0.930 . S
C3838 C3836 1.419 . S
C3838 C3839 1.362 . S
C3839 H3829 0.930 . S
C3839 C3832 1.409 . S
C3839 C3838 1.362 . S
H3840 C3846 0.930 . S
H3841 C3849 0.930 . S
H3842 C3850 0.930 . S
H3843 C3851 0.930 . S
H3844 C3854 0.930 . S
H3845 C3855 0.930 . S
C3846 H3840 0.930 . S
C3846 C3847 1.355 . S
C3846 C3848 1.415 . S
C3847 C3846 1.355 . S
C3847 C3849 1.419 . S
C3848 C3846 1.415 . S
C3848 C3853 1.425 . S
C3848 C3855 1.409 . S
C3849 H3841 0.930 . S
C3849 C3847 1.419 . S
C3849 C3850 1.362 . S
C3850 H3842 0.930 . S
C3850 C3849 1.362 . S
C3850 C3853 1.409 . S
C3851 H3843 0.930 . S
C3851 C3852 1.355 . S
C3851 C3853 1.415 . S
C3852 C3851 1.355 . S
C3852 C3854 1.419 . S
C3853 C3848 1.425 . S
C3853 C3850 1.409 . S
C3853 C3851 1.415 . S
C3854 H3844 0.930 . S
C3854 C3852 1.419 . S
C3854 C3855 1.362 . S
C3855 H3845 0.930 . S
C3855 C3848 1.409 . S
C3855 C3854 1.362 . S
H3856 C3862 0.930 . S
H3857 C3865 0.930 . S
H3858 C3866 0.930 . S
H3859 C3867 0.930 . S
H3860 C3870 0.930 . S
H3861 C3871 0.930 . S
C3862 H3856 0.930 . S
C3862 C3863 1.355 . S
C3862 C3864 1.415 . S
C3863 C3862 1.355 . S
C3863 C3865 1.419 . S
C3864 C3862 1.415 . S
C3864 C3869 1.425 . S
C3864 C3871 1.409 . S
C3865 H3857 0.930 . S
C3865 C3863 1.419 . S
C3865 C3866 1.362 . S
C3866 H3858 0.930 . S
C3866 C3865 1.362 . S
C3866 C3869 1.409 . S
C3867 H3859 0.930 . S
C3867 C3868 1.355 . S
C3867 C3869 1.415 . S
C3868 C3867 1.355 . S
C3868 C3870 1.419 . S
C3869 C3864 1.425 . S
C3869 C3866 1.409 . S
C3869 C3867 1.415 . S
C3870 H3860 0.930 . S
C3870 C3868 1.419 . S
C3870 C3871 1.362 . S
C3871 H3861 0.930 . S
C3871 C3864 1.409 . S
C3871 C3870 1.362 . S
H3872 C3878 0.930 . S
H3873 C3881 0.930 . S
H3874 C3882 0.930 . S
H3875 C3883 0.930 . S
H3876 C3886 0.930 . S
H3877 C3887 0.930 . S
C3878 H3872 0.930 . S
C3878 C3879 1.355 . S
C3878 C3880 1.415 . S
C3879 C3878 1.355 . S
C3879 C3881 1.419 . S
C3880 C3878 1.415 . S
C3880 C3885 1.425 . S
C3880 C3887 1.409 . S
C3881 H3873 0.930 . S
C3881 C3879 1.419 . S
C3881 C3882 1.362 . S
C3882 H3874 0.930 . S
C3882 C3881 1.362 . S
C3882 C3885 1.409 . S
C3883 H3875 0.930 . S
C3883 C3884 1.355 . S
C3883 C3885 1.415 . S
C3884 C3883 1.355 . S
C3884 C3886 1.419 . S
C3885 C3880 1.425 . S
C3885 C3882 1.409 . S
C3885 C3883 1.415 . S
C3886 H3876 0.930 . S
C3886 C3884 1.419 . S
C3886 C3887 1.362 . S
C3887 H3877 0.930 . S
C3887 C3880 1.409 . S
C3887 C3886 1.362 . S
H3888 C3894 0.930 . S
H3889 C3897 0.930 . S
H3890 C3898 0.930 . S
H3891 C3899 0.930 . S
H3892 C3902 0.930 . S
H3893 C3903 0.930 . S
C3894 H3888 0.930 . S
C3894 C3895 1.355 . S
C3894 C3896 1.415 . S
C3895 C3894 1.355 . S
C3895 C3897 1.419 . S
C3896 C3894 1.415 . S
C3896 C3901 1.425 . S
C3896 C3903 1.409 . S
C3897 H3889 0.930 . S
C3897 C3895 1.419 . S
C3897 C3898 1.362 . S
C3898 H3890 0.930 . S
C3898 C3897 1.362 . S
C3898 C3901 1.409 . S
C3899 H3891 0.930 . S
C3899 C3900 1.355 . S
C3899 C3901 1.415 . S
C3900 C3899 1.355 . S
C3900 C3902 1.419 . S
C3901 C3896 1.425 . S
C3901 C3898 1.409 . S
C3901 C3899 1.415 . S
C3902 H3892 0.930 . S
C3902 C3900 1.419 . S
C3902 C3903 1.362 . S
C3903 H3893 0.930 . S
C3903 C3896 1.409 . S
C3903 C3902 1.362 . S
H3904 C3910 0.943 . S
H3905 C3913 0.930 . S
H3906 C3914 0.910 1_545 S
H3907 C3915 0.930 . S
H3908 C3918 0.930 . S
H3909 C3919 0.930 . S
C3910 H3904 0.943 . S
C3910 C3911 1.340 1_556 S
C3910 C3912 1.418 . S
C3911 C3910 1.340 1_554 S
C3911 C3913 1.419 . S
C3912 C3910 1.418 . S
C3912 C3917 1.425 1_556 S
C3912 C3919 1.409 . S
C3913 H3905 0.930 . S
C3913 C3911 1.419 . S
C3913 C3914 1.362 . S
C3914 H3906 0.910 1_565 S
C3914 C3913 1.362 . S
C3914 C3917 1.409 . S
C3915 H3907 0.930 . S
C3915 C3916 1.355 1_554 S
C3915 C3917 1.415 . S
C3916 C3915 1.355 1_556 S
C3916 C3918 1.419 . S
C3917 C3912 1.425 1_554 S
C3917 C3914 1.409 . S
C3917 C3915 1.415 . S
C3918 H3908 0.930 . S
C3918 C3916 1.419 . S
C3918 C3919 1.362 . S
C3919 H3909 0.930 . S
C3919 C3912 1.409 . S
C3919 C3918 1.362 . S
H3920 C3926 0.930 . S
H3921 C3929 0.930 . S
H3922 C3930 0.930 . S
H3923 C3931 0.930 . S
H3924 C3934 0.930 . S
H3925 C3935 0.930 . S
C3926 H3920 0.930 . S
C3926 C3927 1.355 . S
C3926 C3928 1.415 . S
C3927 C3926 1.355 . S
C3927 C3929 1.419 . S
C3928 C3926 1.415 . S
C3928 C3933 1.425 . S
C3928 C3935 1.409 . S
C3929 H3921 0.930 . S
C3929 C3927 1.419 . S
C3929 C3930 1.362 . S
C3930 H3922 0.930 . S
C3930 C3929 1.362 . S
C3930 C3933 1.409 . S
C3931 H3923 0.930 . S
C3931 C3932 1.355 . S
C3931 C3933 1.415 . S
C3932 C3931 1.355 . S
C3932 C3934 1.419 . S
C3933 C3928 1.425 . S
C3933 C3930 1.409 . S
C3933 C3931 1.415 . S
C3934 H3924 0.930 . S
C3934 C3932 1.419 . S
C3934 C3935 1.362 . S
C3935 H3925 0.930 . S
C3935 C3928 1.409 . S
C3935 C3934 1.362 . S
H3936 C3942 0.930 . S
H3937 C3945 0.930 . S
H3938 C3946 0.930 . S
H3939 C3947 0.930 . S
H3940 C3950 0.930 . S
H3941 C3951 0.930 . S
C3942 H3936 0.930 . S
C3942 C3943 1.355 1_556 S
C3942 C3944 1.415 . S
C3943 C3942 1.355 1_554 S
C3943 C3945 1.419 . S
C3944 C3942 1.415 . S
C3944 C3949 1.425 1_556 S
C3944 C3951 1.409 . S
C3945 H3937 0.930 . S
C3945 C3943 1.419 . S
C3945 C3946 1.362 . S
C3946 H3938 0.930 . S
C3946 C3945 1.362 . S
C3946 C3949 1.409 . S
C3947 H3939 0.930 . S
C3947 C3948 1.355 . S
C3947 C3949 1.415 . S
C3948 C3947 1.355 . S
C3948 C3950 1.419 1_554 S
C3949 C3944 1.425 1_554 S
C3949 C3946 1.409 . S
C3949 C3947 1.415 . S
C3950 H3940 0.930 . S
C3950 C3948 1.419 1_556 S
C3950 C3951 1.362 . S
C3951 H3941 0.930 . S
C3951 C3944 1.409 . S
C3951 C3950 1.362 . S
H3952 C3958 0.930 . S
H3953 C3961 0.930 . S
H3954 C3962 0.930 . S
H3955 C3963 0.930 . S
H3956 C3966 0.930 . S
H3957 C3967 0.930 . S
C3958 H3952 0.930 . S
C3958 C3959 1.355 . S
C3958 C3960 1.415 . S
C3959 C3958 1.355 . S
C3959 C3961 1.419 . S
C3960 C3958 1.415 . S
C3960 C3965 1.425 . S
C3960 C3967 1.409 . S
C3961 H3953 0.930 . S
C3961 C3959 1.419 . S
C3961 C3962 1.362 . S
C3962 H3954 0.930 . S
C3962 C3961 1.362 . S
C3962 C3965 1.409 . S
C3963 H3955 0.930 . S
C3963 C3964 1.355 . S
C3963 C3965 1.415 . S
C3964 C3963 1.355 . S
C3964 C3966 1.419 . S
C3965 C3960 1.425 . S
C3965 C3962 1.409 . S
C3965 C3963 1.415 . S
C3966 H3956 0.930 . S
C3966 C3964 1.419 . S
C3966 C3967 1.362 . S
C3967 H3957 0.930 . S
C3967 C3960 1.409 . S
C3967 C3966 1.362 . S
H3968 C3974 0.930 . S
H3969 C3977 0.930 . S
H3970 C3978 0.930 . S
H3971 C3979 0.930 . S
H3972 C3982 0.930 . S
H3973 C3983 0.930 . S
C3974 H3968 0.930 . S
C3974 C3975 1.355 . S
C3974 C3976 1.415 . S
C3975 C3974 1.355 . S
C3975 C3977 1.419 . S
C3976 C3974 1.415 . S
C3976 C3981 1.425 . S
C3976 C3983 1.409 . S
C3977 H3969 0.930 . S
C3977 C3975 1.419 . S
C3977 C3978 1.362 . S
C3978 H3970 0.930 . S
C3978 C3977 1.362 . S
C3978 C3981 1.409 . S
C3979 H3971 0.930 . S
C3979 C3980 1.355 . S
C3979 C3981 1.415 . S
C3980 C3979 1.355 . S
C3980 C3982 1.419 . S
C3981 C3976 1.425 . S
C3981 C3978 1.409 . S
C3981 C3979 1.415 . S
C3982 H3972 0.930 . S
C3982 C3980 1.419 . S
C3982 C3983 1.362 . S
C3983 H3973 0.930 . S
C3983 C3976 1.409 . S
C3983 C3982 1.362 . S
C2460 C2128 1.124 . S
C2455 C49 1.283 . S
C2471 C137 1.117 . S
C2476 C2148 1.166 . S
C2487 C205 1.247 . S
C2492 C2170 1.087 . S
C2508 C2189 1.293 . S
C2503 C284 1.320 . S
C2519 C117 1.258 . S
C2524 C2210 1.194 1_655 S
C2540 C2233 1.219 . S
C2535 C225 1.273 . S
C2556 C2256 1.113 . S
C2551 C321 1.115 . S
C2567 C29 1.251 . S
C2572 C2274 1.187 . S
C2583 C401 1.248 . S
C2588 C2130 1.198 . S
C2599 C497 1.311 . S
C2604 C2150 1.292 . S
C2620 C2172 1.137 . S
C2615 C585 1.135 . S
C2636 C2191 1.161 . S
C2631 C665 1.312 . S
C2647 C372 1.272 . S
C2652 C2212 1.206 . S
C2668 C2235 1.085 . S
C2663 C469 1.129 . S
C2684 C2252 1.299 . S
C2679 C557 1.321 . S
C2700 C2276 1.237 . S
C2695 C636 1.261 . S
C2716 C2126 1.255 . S
C2711 C673 1.270 . S
C2732 C2298 1.073 . S
C2727 C724 1.130 . S
C2743 C821 1.284 . S
C2748 C2315 1.264 . S
C2764 C2338 1.202 . S
C2759 C909 1.283 . S
C2775 C381 1.278 . S
C2780 C2272 1.110 . S
C2796 C2168 1.296 . S
C2791 C489 1.314 . S
C2807 C849 1.134 . S
C2812 C2361 1.073 . S
C2828 C2377 1.101 . S
C2823 C1017 1.221 . S
C2839 C1085 1.237 . S
C2844 C2125 1.099 . S
C2860 C2378 1.214 . S
C2855 C1201 1.243 . S
C2871 C1289 1.378 . S
C2876 C2167 1.292 . S
C2887 C1349 1.143 . S
C2892 C2358 1.092 . S
C2908 C2211 1.076 . S
C2903 C1193 1.143 . S
C2924 C2314 1.150 . S
C2919 C1281 1.308 . S
C2940 C2255 1.253 . S
C2935 C1340 1.289 . S
C2956 C2399 1.344 . S
C2951 C1076 1.318 . S
C2972 C2129 1.346 . S
C2967 C1428 1.317 . S
C2983 C1516 1.162 . S
C2988 C2382 1.107 . S
C3004 C2171 1.258 . S
C2999 C1604 1.214 . S
C3015 C1701 1.284 . S
C3020 C2356 1.252 . S
C3031 C1457 1.336 1_565 S
C3036 C2209 1.274 . S
C3047 C1545 1.290 . S
C3052 C2318 1.249 . S
C3068 C2253 1.161 . S
C3063 C1633 1.175 . S
C3079 C1729 1.240 . S
C3084 C2403 1.219 . S
C3095 C1721 1.221 . S
C3100 C2127 1.182 . S
C3111 C1789 1.289 . S
C3116 C2297 1.253 . S
C3127 C1868 1.184 . S
C3132 C2232 1.162 . S
C3143 C1956 1.264 . S
C3148 C2335 1.164 . S
C3164 C2401 1.124 . S
C3159 C1437 1.232 . S
C3180 C2169 1.120 . S
C3175 C1553 1.167 . S
C3196 C2192 1.283 . S
C3191 C1897 1.263 . S
C3212 C2149 1.261 . S
C3207 C2081 1.336 . S
C3223 C233 1.254 . S
C3228 C2422 1.194 . S
C3244 C2379 1.163 . S
C3239 C313 1.123 . S
C3260 C2443 1.208 . S
C3255 C20 1.241 . S
C3271 C108 1.289 . S
C3276 C2357 1.228 . S
C3287 C293 1.248 . S
C3292 C2294 1.183 . S
C3308 C2317 1.247 . S
C3303 C57 1.280 . S
C3324 C2340 1.133 . S
C3319 C145 1.097 . S
C3340 C2400 1.187 . S
C3335 C196 1.251 . S
C3356 C2424 1.190 . S
C3351 C1025 1.251 . S
C3367 C761 1.275 . S
C3372 C2381 1.209 . S
C3383 C841 1.164 . S
C3388 C2445 1.114 . S
C3404 C2359 1.140 . S
C3399 C929 1.288 . S
C3420 C2296 1.170 . S
C3415 C997 1.300 . S
C3431 C733 1.087 . S
C3436 C2319 1.120 . S
C3452 C2336 1.207 . S
C3447 C812 1.277 . S
C3463 C900 1.254 . S
C3468 C2402 1.215 . S
C3484 C2420 1.253 . S
C3479 C937 1.270 . S
C3500 C2214 1.074 . S
C3495 C460 1.128 . S
C3516 C2231 1.180 . S
C3511 C548 1.248 . S
C3527 C645 1.286 . S
C3532 C2254 1.225 . S
C3548 C2398 1.151 . S
C3543 C988 1.249 . S
C3559 C753 1.314 . S
C3564 C2441 1.296 . S
C3580 C2193 1.073 . S
C3575 C577 1.134 . S
C3596 C2146 1.186 . S
C3591 C409 1.256 . S
C3607 C1261 1.275 . S
C3612 C2419 1.145 . S
C3628 C2147 1.237 . S
C3623 C1377 1.221 . S
C3644 C2440 1.304 . S
C3639 C1113 1.352 . S
C3655 C1173 1.147 . S
C3660 C2190 1.103 . S
C3671 C1369 1.184 . S
C3676 C2295 1.169 . S
C3687 C1105 1.321 . S
C3692 C2230 1.150 . S
C3703 C1164 1.261 . S
C3708 C2339 1.265 . S
C3719 C1252 1.355 . S
C3724 C2273 1.328 . S
C3740 C2423 1.322 . S
C3735 C2044 1.357 . S
C3751 C1780 1.153 . S
C3756 C2151 1.070 . S
C3772 C2444 1.249 . S
C3767 C1877 1.214 . S
C3783 C1965 1.310 . S
C3788 C2188 1.232 . S
C3799 C2073 1.320 . S
C3804 C2293 1.269 . S
C3820 C2234 1.251 . S
C3815 C1809 1.271 . S
C3831 C1905 1.139 . S
C3836 C2337 1.065 . S
C3852 C2277 1.159 . S
C3847 C1993 1.212 . S
C3868 C2421 1.128 . S
C3863 C1985 1.203 . S
C3884 C2213 1.280 . S
C3879 C1525 1.270 . S
C3895 C1613 1.141 . S
C3900 C2316 1.070 . S
C3916 C2251 1.231 . S
C3911 C1692 1.310 . S
C3932 C2275 1.185 . S
C3927 C2053 1.239 . S
C3943 C1817 1.172 . S
C3948 C2442 1.109 . S
C3964 C2360 1.248 . S
C3959 C1641 1.288 . S
C3980 C2380 1.309 . S
C3975 C1465 1.356 . S
