# Generated by pormake.
# Topology anh, (6,3)-cn, num edge types: 1
# Building blocks:
#     Node 0, Type 0, BuildingBlock: MIFKUJ_clean_sbu_0, # of connection points: 6
#     Node 1, Type 0, BuildingBlock: MIFKUJ_clean_sbu_0, # of connection points: 6
#     Node 2, Type 0, BuildingBlock: MIFKUJ_clean_sbu_0, # of connection points: 6
#     Node 3, Type 1, BuildingBlock: WUSLED_clean_sbu_0, # of connection points: 3
#     Node 4, Type 1, BuildingBlock: WUSLED_clean_sbu_0, # of connection points: 3
#     Node 5, Type 1, BuildingBlock: WUSLED_clean_sbu_0, # of connection points: 3
#     Node 6, Type 1, BuildingBlock: WUSLED_clean_sbu_0, # of connection points: 3
#     Node 7, Type 1, BuildingBlock: WUSLED_clean_sbu_0, # of connection points: 3
#     Node 8, Type 1, BuildingBlock: WUSLED_clean_sbu_0, # of connection points: 3
#     Edge 9, Type (0, 1), BuildingBlock: AJUNOK_clean_linker_0, # of connection points: 2
#     Edge 10, Type (0, 1), BuildingBlock: AJUNOK_clean_linker_0, # of connection points: 2
#     Edge 11, Type (0, 1), BuildingBlock: AJUNOK_clean_linker_0, # of connection points: 2
#     Edge 12, Type (0, 1), BuildingBlock: AJUNOK_clean_linker_0, # of connection points: 2
#     Edge 13, Type (0, 1), BuildingBlock: AJUNOK_clean_linker_0, # of connection points: 2
#     Edge 14, Type (0, 1), BuildingBlock: AJUNOK_clean_linker_0, # of connection points: 2
#     Edge 15, Type (0, 1), BuildingBlock: AJUNOK_clean_linker_0, # of connection points: 2
#     Edge 16, Type (0, 1), BuildingBlock: AJUNOK_clean_linker_0, # of connection points: 2
#     Edge 17, Type (0, 1), BuildingBlock: AJUNOK_clean_linker_0, # of connection points: 2
#     Edge 18, Type (0, 1), BuildingBlock: AJUNOK_clean_linker_0, # of connection points: 2
#     Edge 19, Type (0, 1), BuildingBlock: AJUNOK_clean_linker_0, # of connection points: 2
#     Edge 20, Type (0, 1), BuildingBlock: AJUNOK_clean_linker_0, # of connection points: 2
#     Edge 21, Type (0, 1), BuildingBlock: AJUNOK_clean_linker_0, # of connection points: 2
#     Edge 22, Type (0, 1), BuildingBlock: AJUNOK_clean_linker_0, # of connection points: 2
#     Edge 23, Type (0, 1), BuildingBlock: AJUNOK_clean_linker_0, # of connection points: 2
#     Edge 24, Type (0, 1), BuildingBlock: AJUNOK_clean_linker_0, # of connection points: 2
#     Edge 25, Type (0, 1), BuildingBlock: AJUNOK_clean_linker_0, # of connection points: 2
#     Edge 26, Type (0, 1), BuildingBlock: AJUNOK_clean_linker_0, # of connection points: 2
# Relax obj value: 0.128
# Max RMSD: 0.181
# Mean RMSD: 0.142
data_MOF--net-anh--node1-MIFKUJ_clean_sbu_0--node2-WUSLED_clean_sbu_0--edge1-AJUNOK_clean_linker_0
_symmetry_space_group_name_H-M    P1
_symmetry_Int_Tables_number       1
_symmetry_cell_setting            triclinic
loop_
_symmetry_equiv_pos_as_xyz
'x, y, z'
_cell_length_a     32.127646
_cell_length_b     32.149013
_cell_length_c     53.966683
_cell_angle_alpha  93.29001
_cell_angle_beta   91.166517
_cell_angle_gamma 119.19536
loop_
_atom_site_label
_atom_site_type_symbol
_atom_site_fract_x
_atom_site_fract_y
_atom_site_fract_z
_atom_type_partial_charge
Zn0 Zn 0.08716 0.55471 0.17552 0.0
Zn1 Zn 0.93625 0.48356 0.17249 0.0
C2 C 0.17376 0.54992 0.1837 0.0
O3 O 0.1816 0.58286 0.20155 0.0
C4 C 0.86098 0.49516 0.15622 0.0
O5 O 0.86394 0.46671 0.13873 0.0
O6 O 0.12832 0.62637 0.17957 0.0
O7 O 0.04817 0.53674 0.14294 0.0
O8 O 0.96893 0.49852 0.14031 0.0
C9 C 0.16005 0.64795 0.16422 0.0
O10 O 0.1624 0.62329 0.14454 0.0
O11 O 0.13409 0.53039 0.17105 0.0
C12 C 0.85468 0.40262 0.18567 0.0
O13 O 0.85842 0.43615 0.20214 0.0
O14 O 0.88779 0.41278 0.17068 0.0
O15 O 0.97587 0.49851 0.20455 0.0
O16 O 0.05509 0.53411 0.20797 0.0
O17 O 0.89352 0.51381 0.17364 0.0
C18 C 0.00873 0.51773 0.13015 0.0
C19 C 0.01471 0.51444 0.21763 0.0
Zn20 Zn 0.57538 0.08381 0.50171 0.0
Zn21 Zn 0.50803 0.93432 0.48798 0.0
C22 C 0.66968 0.15881 0.5179 0.0
O23 O 0.64784 0.16425 0.53711 0.0
C24 C 0.42391 0.86624 0.46192 0.0
O25 O 0.45666 0.86933 0.44679 0.0
O26 O 0.55178 0.13157 0.50563 0.0
O27 O 0.55748 0.05109 0.46747 0.0
O28 O 0.52613 0.97303 0.45816 0.0
C29 C 0.56968 0.16814 0.49307 0.0
O30 O 0.59953 0.1712 0.47606 0.0
O31 O 0.64633 0.12417 0.50176 0.0
C32 C 0.51497 0.85577 0.50216 0.0
O33 O 0.48138 0.85534 0.51582 0.0
O34 O 0.53473 0.88875 0.48744 0.0
O35 O 0.5227 0.96717 0.52257 0.0
O36 O 0.5579 0.04563 0.53176 0.0
O37 O 0.43716 0.89199 0.48238 0.0
C38 C 0.54204 0.01528 0.45169 0.0
C39 C 0.53888 0.00316 0.53835 0.0
Zn40 Zn 0.58409 0.4996 0.83209 0.0
Zn41 Zn 0.50142 0.57025 0.83606 0.0
C42 C 0.53889 0.39152 0.83342 0.0
O43 O 0.50397 0.38972 0.8464 0.0
C44 C 0.5339 0.66398 0.82085 0.0
O45 O 0.52136 0.63937 0.79914 0.0
O46 O 0.6564 0.53467 0.83602 0.0
O47 O 0.56295 0.51629 0.80058 0.0
O48 O 0.51848 0.55175 0.80297 0.0
C49 C 0.67692 0.52282 0.81932 0.0
O50 O 0.65067 0.49461 0.80006 0.0
O51 O 0.57057 0.43128 0.82643 0.0
C52 C 0.39808 0.51829 0.84488 0.0
O53 O 0.40699 0.48793 0.85598 0.0
O54 O 0.43162 0.55217 0.83445 0.0
O55 O 0.51461 0.54521 0.86708 0.0
O56 O 0.5576 0.50799 0.86433 0.0
O57 O 0.53221 0.64255 0.84024 0.0
C58 C 0.53974 0.53392 0.7903 0.0
C59 C 0.53394 0.52322 0.87684 0.0
C60 C 0.60121 0.12761 0.18495 0.0
C61 C 0.622 0.15921 0.20623 0.0
C62 C 0.68356 0.21684 0.18181 0.0
C63 C 0.66266 0.20341 0.20466 0.0
C64 C 0.66356 0.18477 0.16057 0.0
C65 C 0.62238 0.14037 0.16213 0.0
U66 U 0.524 0.03847 0.22775 0.0
O67 O 0.48741 0.95995 0.22671 0.0
O68 O 0.44641 0.99792 0.23125 0.0
C69 C 0.44496 0.95632 0.2284 0.0
C70 C 0.55832 0.0812 0.18725 0.0
C71 C 0.40483 0.91802 0.21254 0.0
C72 C 0.3671 0.83807 0.19153 0.0
C73 C 0.40784 0.87847 0.20219 0.0
C74 C 0.31991 0.87666 0.20029 0.0
C75 C 0.32247 0.83619 0.19123 0.0
C76 C 0.3606 0.91704 0.21095 0.0
C77 C 0.56495 0.06985 0.29641 0.0
C78 C 0.55015 0.01543 0.32875 0.0
C79 C 0.56399 0.09555 0.3395 0.0
C80 C 0.56936 0.10508 0.31448 0.0
C81 C 0.55428 0.0506 0.3469 0.0
C82 C 0.55504 0.0248 0.30372 0.0
C83 C 0.57101 0.08086 0.27016 0.0
O84 O 0.56684 0.04792 0.19504 0.0
O85 O 0.52387 0.08378 0.19879 0.0
O86 O 0.53903 0.0899 0.26001 0.0
O87 O 0.58142 0.05349 0.25552 0.0
H88 H 0.60666 0.1497 0.22411 0.0
H89 H 0.67792 0.22716 0.22137 0.0
H90 H 0.67928 0.1944 0.14279 0.0
H91 H 0.60707 0.11617 0.14559 0.0
H92 H 0.37004 0.80728 0.18474 0.0
H93 H 0.44115 0.8777 0.20337 0.0
H94 H 0.28608 0.87643 0.19991 0.0
H95 H 0.35687 0.94663 0.21898 0.0
H96 H 0.54385 0.98086 0.33393 0.0
H97 H 0.56718 0.12327 0.35306 0.0
H98 H 0.57695 0.14003 0.30922 0.0
H99 H 0.55139 0.99689 0.29015 0.0
C100 C 0.56485 0.61797 0.5189 0.0
C101 C 0.57496 0.65241 0.53868 0.0
C102 C 0.55779 0.70051 0.51145 0.0
C103 C 0.57158 0.69329 0.53498 0.0
C104 C 0.54887 0.66657 0.49147 0.0
C105 C 0.55234 0.62553 0.4952 0.0
U106 U 0.55672 0.53442 0.56605 0.0
O107 O 0.51557 0.45635 0.56709 0.0
O108 O 0.59384 0.49342 0.57239 0.0
C109 C 0.55397 0.45226 0.57067 0.0
C110 C 0.56353 0.57275 0.52375 0.0
C111 C 0.55497 0.41228 0.55663 0.0
C112 C 0.5498 0.36636 0.51816 0.0
C113 C 0.54981 0.40595 0.53058 0.0
C114 C 0.56021 0.33966 0.55775 0.0
C115 C 0.55491 0.33278 0.5317 0.0
C116 C 0.56027 0.37901 0.57006 0.0
C117 C 0.54813 0.57156 0.63289 0.0
C118 C 0.53961 0.51996 0.66579 0.0
C119 C 0.54811 0.59831 0.67582 0.0
C120 C 0.55079 0.60646 0.6506 0.0
C121 C 0.54289 0.55515 0.68369 0.0
C122 C 0.54236 0.52818 0.64057 0.0
C123 C 0.55201 0.58086 0.60652 0.0
O124 O 0.60081 0.57732 0.53676 0.0
O125 O 0.5227 0.5401 0.53153 0.0
O126 O 0.51443 0.55163 0.59199 0.0
O127 O 0.59251 0.58883 0.59724 0.0
H128 H 0.58424 0.64705 0.55719 0.0
H129 H 0.57875 0.71884 0.55069 0.0
H130 H 0.53733 0.67078 0.47324 0.0
H131 H 0.54388 0.59907 0.47979 0.0
H132 H 0.54517 0.36165 0.49808 0.0
H133 H 0.5455 0.4313 0.51995 0.0
H134 H 0.56471 0.3147 0.56864 0.0
H135 H 0.56431 0.3834 0.59018 0.0
H136 H 0.53469 0.48605 0.67129 0.0
H137 H 0.5509 0.62607 0.68924 0.0
H138 H 0.55528 0.64014 0.64493 0.0
H139 H 0.54011 0.50079 0.62706 0.0
C140 C 0.95047 0.54411 0.85428 0.0
C141 C 0.91373 0.52978 0.87091 0.0
C142 C 0.86584 0.54625 0.84164 0.0
C143 C 0.87178 0.53075 0.86463 0.0
C144 C 0.90338 0.56194 0.82535 0.0
C145 C 0.94527 0.5607 0.8316 0.0
U146 U 0.03126 0.5348 0.90281 0.0
O147 O 0.06757 0.49195 0.90318 0.0
O148 O 0.10959 0.57023 0.90837 0.0
C149 C 0.11042 0.52971 0.90561 0.0
C150 C 0.99408 0.54176 0.86058 0.0
C151 C 0.14788 0.52893 0.89026 0.0
C152 C 0.1787 0.48424 0.86624 0.0
C153 C 0.14065 0.48653 0.8772 0.0
C154 C 0.23161 0.56699 0.88044 0.0
C155 C 0.22473 0.52424 0.86806 0.0
C156 C 0.19367 0.56926 0.89144 0.0
C157 C 0.99452 0.52874 0.9705 0.0
C158 C 0.0383 0.56173 0.01055 0.0
C159 C 0.964 0.48675 0.00771 0.0
C160 C 0.95967 0.48976 0.98215 0.0
C161 C 1.00318 0.52285 0.02224 0.0
C162 C 0.03414 0.56458 0.98492 0.0
C163 C 0.98749 0.53234 0.94368 0.0
O164 O 0.02732 0.57902 0.8741 0.0
O165 O 0.98684 0.50082 0.86832 0.0
O166 O 0.97677 0.49401 0.92899 0.0
O167 O 0.01798 0.57228 0.93434 0.0
H168 H 0.91725 0.51725 0.88863 0.0
H169 H 0.84351 0.51832 0.87753 0.0
H170 H 0.90032 0.57508 0.80775 0.0
H171 H 0.9735 0.57244 0.81866 0.0
H172 H 0.1724 0.45082 0.85684 0.0
H173 H 0.10604 0.45454 0.87618 0.0
H174 H 0.26687 0.59809 0.88268 0.0
H175 H 0.2007 0.60212 0.9018 0.0
H176 H 0.06835 0.59066 0.0213 0.0
H177 H 0.93644 0.4563 0.01618 0.0
H178 H 0.92866 0.46181 0.97149 0.0
H179 H 0.06153 0.59531 0.97657 0.0
C180 C 0.93211 0.40905 0.48851 0.0
C181 C 0.92563 0.36487 0.47839 0.0
C182 C 0.84991 0.32337 0.49804 0.0
C183 C 0.88494 0.32238 0.48321 0.0
C184 C 0.85656 0.36758 0.50812 0.0
C185 C 0.89731 0.40995 0.50346 0.0
U186 U 0.0223 0.50644 0.44884 0.0
O187 O 0.09994 0.54713 0.45603 0.0
O188 O 0.05776 0.58433 0.45774 0.0
C189 C 0.10042 0.58821 0.45942 0.0
C190 C 0.97564 0.45443 0.48494 0.0
C191 C 0.14049 0.63056 0.44984 0.0
C192 C 0.18856 0.71719 0.45369 0.0
C193 C 0.14532 0.67572 0.45626 0.0
C194 C 0.2219 0.66927 0.43654 0.0
C195 C 0.22781 0.71422 0.44472 0.0
C196 C 0.1786 0.62776 0.43905 0.0
C197 C 1.0001 0.49083 0.37666 0.0
C198 C 0.04268 0.49723 0.33893 0.0
C199 C 0.97173 0.50551 0.33773 0.0
C200 C 0.96738 0.49907 0.36311 0.0
C201 C 0.0086 0.5033 0.32523 0.0
C202 C 0.03838 0.49083 0.36441 0.0
C203 C 0.99007 0.47684 0.40247 0.0
O204 O 0.01093 0.45167 0.47451 0.0
O205 O 0.96887 0.48871 0.47705 0.0
O206 O 0.97603 0.5015 0.41689 0.0
O207 O 0.01905 0.46539 0.4141 0.0
H208 H 0.95208 0.36299 0.46697 0.0
H209 H 0.88115 0.28873 0.47557 0.0
H210 H 0.83 0.36944 0.51948 0.0
H211 H 0.90175 0.44354 0.51165 0.0
H212 H 0.19216 0.75144 0.46003 0.0
H213 H 0.11674 0.6789 0.46489 0.0
H214 H 0.25176 0.66582 0.42992 0.0
H215 H 0.17621 0.5935 0.43412 0.0
H216 H 0.0715 0.49548 0.32974 0.0
H217 H 0.94552 0.51113 0.32773 0.0
H218 H 0.93739 0.49897 0.37198 0.0
H219 H 0.0641 0.48432 0.37426 0.0
C220 C 0.539 0.93307 0.81125 0.0
C221 C 0.52038 0.89527 0.79264 0.0
C222 C 0.54321 0.84868 0.81806 0.0
C223 C 0.52226 0.8535 0.79606 0.0
C224 C 0.56175 0.88657 0.83676 0.0
C225 C 0.55962 0.92846 0.83336 0.0
U226 U 0.53558 0.01278 0.76446 0.0
O227 O 0.49844 0.05457 0.76168 0.0
O228 O 0.57677 0.09047 0.76115 0.0
C229 C 0.53836 0.09519 0.76072 0.0
C230 C 0.53952 0.9781 0.80667 0.0
C231 C 0.54183 0.13753 0.77475 0.0
C232 C 0.52404 0.17637 0.80978 0.0
C233 C 0.52282 0.13553 0.79815 0.0
C234 C 0.56345 0.22119 0.77482 0.0
C235 C 0.54449 0.21966 0.7982 0.0
C236 C 0.56228 0.18066 0.76331 0.0
C237 C 0.52913 0.9691 0.69635 0.0
C238 C 0.55901 0.01809 0.66134 0.0
C239 C 0.49894 0.93466 0.65424 0.0
C240 C 0.49897 0.92992 0.67984 0.0
C241 C 0.52957 0.9786 0.64467 0.0
C242 C 0.55869 0.01345 0.68694 0.0
C243 C 0.5301 0.96275 0.72315 0.0
O244 O 0.57777 0.00933 0.79619 0.0
O245 O 0.49963 0.97316 0.79649 0.0
O246 O 0.49228 0.9569 0.73478 0.0
O247 O 0.5705 0.99157 0.73579 0.0
H248 H 0.5048 0.89824 0.77529 0.0
H249 H 0.50733 0.82489 0.78139 0.0
H250 H 0.57883 0.88427 0.85373 0.0
H251 H 0.57477 0.95752 0.84779 0.0
H252 H 0.50904 0.17417 0.82777 0.0
H253 H 0.50658 0.10243 0.80723 0.0
H254 H 0.57827 0.25356 0.76511 0.0
H255 H 0.57654 0.18275 0.74511 0.0
H256 H 0.58298 0.0524 0.65455 0.0
H257 H 0.47486 0.90393 0.64195 0.0
H258 H 0.4756 0.89553 0.68675 0.0
H259 H 0.58203 0.04439 0.69932 0.0
C260 C 0.605 0.51858 0.14953 0.0
C261 C 0.62472 0.50798 0.12878 0.0
C262 C 0.68935 0.51274 0.15509 0.0
C263 C 0.66639 0.50504 0.13153 0.0
C264 C 0.67047 0.52474 0.17586 0.0
C265 C 0.62829 0.52744 0.17309 0.0
U266 U 0.51627 0.51692 0.10393 0.0
O267 O 0.43783 0.47928 0.10043 0.0
O268 O 0.47794 0.55771 0.10136 0.0
C269 C 0.43574 0.51909 0.10026 0.0
C270 C 0.56039 0.52039 0.14597 0.0
C271 C 0.39909 0.52159 0.11507 0.0
C272 C 0.36463 0.52468 0.15435 0.0
C273 C 0.40086 0.52271 0.14111 0.0
C274 C 0.32492 0.52417 0.11557 0.0
C275 C 0.32633 0.52553 0.14165 0.0
C276 C 0.36095 0.52225 0.10244 0.0
C277 C 0.54521 0.50855 0.0358 0.0
C278 C 0.52919 0.54147 0.99967 0.0
C279 C 0.54118 0.47279 0.9943 0.0
C280 C 0.54764 0.47366 0.02004 0.0
C281 C 0.53242 0.50701 0.98381 0.0
C282 C 0.5352 0.54205 0.02544 0.0
C283 C 0.55545 0.51061 0.06274 0.0
O284 O 0.56542 0.55885 0.13602 0.0
O285 O 0.52441 0.48074 0.13555 0.0
O286 O 0.52601 0.47305 0.07415 0.0
O287 O 0.56749 0.55135 0.07546 0.0
H288 H 0.60758 0.50159 0.11039 0.0
H289 H 0.68066 0.49651 0.11519 0.0
H290 H 0.68769 0.53092 0.1942 0.0
H291 H 0.61374 0.53602 0.18928 0.0
H292 H 0.3663 0.52512 0.17443 0.0
H293 H 0.43003 0.52196 0.15112 0.0
H294 H 0.29617 0.52524 0.10529 0.0
H295 H 0.35905 0.52136 0.08233 0.0
H296 H 0.52358 0.56898 0.99217 0.0
H297 H 0.54365 0.44569 0.98256 0.0
H298 H 0.55532 0.4475 0.02764 0.0
H299 H 0.53309 0.56938 0.03716 0.0
C300 C 0.20303 0.50387 0.15735 0.0
C301 C 0.21278 0.54061 0.17587 0.0
C302 C 0.23981 0.49801 0.1472 0.0
C303 C 0.2879 0.5286 0.15512 0.0
H304 H 0.16677 0.48015 0.15007 0.0
H305 H 0.23059 0.46995 0.13256 0.0
S306 S 0.33292 0.62928 0.20372 0.0
N307 N 0.27441 0.60694 0.20245 0.0
N308 N 0.34337 0.59605 0.18306 0.0
C309 C 0.29815 0.56428 0.17428 0.0
C310 C 0.26067 0.57027 0.1847 0.0
C311 C 0.74699 0.23108 0.53207 0.0
C312 C 0.71796 0.19719 0.51281 0.0
C313 C 0.79031 0.27099 0.52723 0.0
C314 C 0.80611 0.27869 0.50293 0.0
H315 H 0.73577 0.22728 0.55099 0.0
H316 H 0.8113 0.29644 0.54261 0.0
S317 S 0.74318 0.20108 0.44581 0.0
N318 N 0.70846 0.17381 0.46839 0.0
N319 N 0.78934 0.24936 0.45937 0.0
C320 C 0.77798 0.24463 0.48356 0.0
C321 C 0.73404 0.20376 0.48848 0.0
C322 C 0.55892 0.74083 0.80169 0.0
C323 C 0.54283 0.7139 0.8225 0.0
C324 C 0.5608 0.78519 0.80093 0.0
C325 C 0.54614 0.80431 0.82084 0.0
H326 H 0.56908 0.72697 0.78553 0.0
H327 H 0.57282 0.80419 0.78431 0.0
S328 S 0.50145 0.74824 0.87985 0.0
N329 N 0.51314 0.71012 0.86388 0.0
N330 N 0.51572 0.79315 0.86224 0.0
C331 C 0.53146 0.77854 0.84215 0.0
C332 C 0.52999 0.73342 0.84303 0.0
C333 C 0.81763 0.54022 0.16798 0.0
C334 C 0.81683 0.49878 0.15738 0.0
C335 C 0.77589 0.5442 0.16801 0.0
C336 C 0.73211 0.5067 0.15762 0.0
H337 H 0.8509 0.57019 0.17564 0.0
H338 H 0.77814 0.57728 0.17548 0.0
S339 S 0.70943 0.38779 0.13159 0.0
N340 N 0.76736 0.41757 0.13887 0.0
N341 N 0.68939 0.42504 0.13921 0.0
C342 C 0.73047 0.46425 0.14825 0.0
C343 C 0.77271 0.4603 0.14805 0.0
C344 C 0.33997 0.81989 0.4747 0.0
C345 C 0.37298 0.83073 0.45609 0.0
C346 C 0.29256 0.7835 0.47043 0.0
C347 C 0.27622 0.75662 0.44736 0.0
H348 H 0.3511 0.83851 0.49303 0.0
H349 H 0.26904 0.77504 0.48569 0.0
S350 S 0.34642 0.77454 0.39144 0.0
N351 N 0.38475 0.81419 0.41293 0.0
N352 N 0.29534 0.746 0.40499 0.0
C353 C 0.30811 0.76848 0.42821 0.0
C354 C 0.35652 0.80551 0.43254 0.0
C355 C 0.50109 0.30206 0.82649 0.0
C356 C 0.54177 0.34758 0.8265 0.0
C357 C 0.50257 0.26054 0.81822 0.0
C358 C 0.54484 0.26302 0.80974 0.0
H359 H 0.46744 0.29854 0.83217 0.0
H360 H 0.46997 0.22646 0.81759 0.0
S361 S 0.66294 0.37259 0.80944 0.0
N362 N 0.62679 0.3919 0.81957 0.0
N363 N 0.62947 0.31408 0.80436 0.0
C364 C 0.5863 0.308 0.81088 0.0
C365 C 0.5848 0.35018 0.81916 0.0
C366 C 0.51009 0.78656 0.5232 0.0
C367 C 0.52822 0.81771 0.50406 0.0
C368 C 0.52025 0.74925 0.52542 0.0
C369 C 0.54881 0.74121 0.50856 0.0
H370 H 0.48761 0.79077 0.53666 0.0
H371 H 0.50489 0.72597 0.54031 0.0
S372 S 0.60641 0.81301 0.45551 0.0
N373 N 0.57711 0.83844 0.46811 0.0
N374 N 0.59624 0.76807 0.47241 0.0
C375 C 0.56756 0.77213 0.48941 0.0
C376 C 0.55739 0.81049 0.48718 0.0
C377 C 0.75298 0.55661 0.84605 0.0
C378 C 0.72736 0.53372 0.82335 0.0
C379 C 0.79822 0.56169 0.85154 0.0
C380 C 0.81983 0.54432 0.83453 0.0
H381 H 0.73745 0.56948 0.86006 0.0
H382 H 0.81614 0.57875 0.86944 0.0
S383 S 0.7689 0.48307 0.77212 0.0
N384 N 0.72827 0.49523 0.78327 0.0
N385 N 0.81259 0.50404 0.79388 0.0
C386 C 0.79536 0.5227 0.81148 0.0
C387 C 0.74937 0.51759 0.80583 0.0
C388 C 0.2363 0.71971 0.15442 0.0
C389 C 0.1982 0.69825 0.17021 0.0
C390 C 0.27572 0.76492 0.16095 0.0
C391 C 0.27841 0.79067 0.18343 0.0
H392 H 0.2365 0.70095 0.13714 0.0
H393 H 0.30469 0.77952 0.1485 0.0
S394 S 0.188 0.75157 0.23117 0.0
N395 N 0.16536 0.70735 0.20916 0.0
N396 N 0.23957 0.79195 0.22141 0.0
C397 C 0.24005 0.77043 0.19907 0.0
C398 C 0.19994 0.72436 0.19247 0.0
C399 C 0.53013 0.20529 0.51838 0.0
C400 C 0.56227 0.2094 0.50008 0.0
C401 C 0.52666 0.24499 0.52772 0.0
C402 C 0.55507 0.29048 0.51914 0.0
H403 H 0.50834 0.17139 0.52614 0.0
H404 H 0.50224 0.24024 0.54223 0.0
S405 S 0.64339 0.32061 0.47066 0.0
N406 N 0.6217 0.26275 0.47292 0.0
N407 N 0.61526 0.33727 0.49076 0.0
C408 C 0.58596 0.29491 0.50017 0.0
C409 C 0.58956 0.25443 0.49059 0.0
C410 C 0.31569 0.48169 0.86081 0.0
C411 C 0.35158 0.51736 0.84766 0.0
C412 C 0.2739 0.48312 0.86638 0.0
C413 C 0.26635 0.52038 0.85915 0.0
H414 H 0.32043 0.45312 0.86757 0.0
H415 H 0.24822 0.45586 0.87735 0.0
S416 S 0.34641 0.61991 0.82215 0.0
N417 N 0.37468 0.58927 0.82589 0.0
N418 N 0.29616 0.59161 0.83643 0.0
C419 C 0.30078 0.55509 0.84506 0.0
C420 C 0.34329 0.55361 0.83926 0.0
C421 C 0.81058 0.31446 0.17321 0.0
C422 C 0.81038 0.35574 0.18327 0.0
C423 C 0.76895 0.26956 0.17194 0.0
C424 C 0.72587 0.2647 0.18055 0.0
H425 H 0.84333 0.31663 0.16692 0.0
H426 H 0.77083 0.2383 0.16491 0.0
S427 S 0.70459 0.36262 0.20468 0.0
N428 N 0.76201 0.38936 0.19944 0.0
N429 N 0.68419 0.30531 0.19683 0.0
C430 C 0.7247 0.30599 0.18942 0.0
C431 C 0.76686 0.35144 0.19085 0.0
C432 C 0.96663 0.50915 0.08906 0.0
C433 C 0.00868 0.51872 0.10263 0.0
C434 C 0.96528 0.51037 0.06317 0.0
C435 C 1.00583 0.52102 0.04967 0.0
H436 H 0.93443 0.50123 0.09849 0.0
H437 H 0.93228 0.50362 0.05369 0.0
S438 S 0.12408 0.54569 0.07587 0.0
N439 N 0.09163 0.53754 0.10033 0.0
N440 N 0.08871 0.53912 0.05159 0.0
C441 C 0.04799 0.53003 0.06287 0.0
C442 C 0.04949 0.52901 0.08932 0.0
C443 C 0.58037 0.06626 0.41679 0.0
C444 C 0.54395 0.02343 0.42497 0.0
C445 C 0.58335 0.07474 0.39155 0.0
C446 C 0.54972 0.04094 0.37357 0.0
H447 H 0.60731 0.09315 0.42994 0.0
H448 H 0.61265 0.10775 0.38605 0.0
S449 S 0.44449 0.92541 0.38573 0.0
N450 N 0.47192 0.94815 0.41335 0.0
N451 N 0.47684 0.96454 0.36595 0.0
C452 C 0.51242 0.99848 0.38159 0.0
C453 C 0.5097 0.98963 0.40727 0.0
C454 C 0.50987 0.55109 0.75101 0.0
C455 C 0.53947 0.53633 0.76284 0.0
C456 C 0.51082 0.55652 0.72542 0.0
C457 C 0.54123 0.54725 0.71056 0.0
H458 H 0.4859 0.55892 0.76158 0.0
H459 H 0.48752 0.56811 0.71719 0.0
S460 S 0.62643 0.50845 0.73204 0.0
N461 N 0.60028 0.51255 0.75735 0.0
N462 N 0.60214 0.52325 0.70935 0.0
C463 C 0.57064 0.53199 0.72195 0.0
C464 C 0.56973 0.52641 0.74803 0.0
C465 C 0.53347 0.0292 0.5822 0.0
C466 C 0.53587 0.9956 0.56525 0.0
C467 C 0.53095 0.02316 0.60775 0.0
C468 C 0.53113 0.98349 0.61741 0.0
H469 H 0.53307 0.06025 0.57567 0.0
H470 H 0.52853 0.04967 0.62003 0.0
S471 S 0.54109 0.88734 0.58112 0.0
N472 N 0.54055 0.92238 0.56007 0.0
N473 N 0.53668 0.91147 0.60809 0.0
C474 C 0.53417 0.94994 0.60069 0.0
C475 C 0.53636 0.9559 0.57464 0.0
C476 C 0.56494 0.5091 0.91651 0.0
C477 C 0.53095 0.51703 0.9039 0.0
C478 C 0.5646 0.50522 0.94221 0.0
C479 C 0.53 0.50869 0.95638 0.0
H480 H 0.5929 0.50699 0.90657 0.0
H481 H 0.59244 0.50062 0.95112 0.0
S482 S 0.43006 0.52445 0.93212 0.0
N483 N 0.45997 0.52549 0.90743 0.0
N484 N 0.45869 0.51696 0.9557 0.0
C485 C 0.49489 0.51517 0.94397 0.0
C486 C 0.49549 0.51959 0.91777 0.0
C487 C 0.05359 0.53899 0.26085 0.0
C488 C 0.01283 0.51009 0.24496 0.0
C489 C 0.05219 0.53645 0.28675 0.0
C490 C 0.00998 0.50502 0.29776 0.0
H491 H 0.08672 0.56434 0.25329 0.0
H492 H 0.08415 0.55983 0.29828 0.0
S493 S 0.89493 0.41798 0.26455 0.0
N494 N 0.92998 0.44648 0.2423 0.0
N495 N 0.92756 0.44185 0.29079 0.0
C496 C 0.9694 0.47507 0.28212 0.0
C497 C 0.97077 0.47757 0.2558 0.0
loop_
_geom_bond_atom_site_label_1
_geom_bond_atom_site_label_2
_geom_bond_distance
_geom_bond_site_symmetry_2
_ccdc_geom_bond_type
Zn0 O6 1.969 . S
Zn0 O7 1.965 . S
Zn0 O11 2.024 . S
Zn0 O16 1.969 . S
Zn1 O8 1.969 . S
Zn1 O14 1.969 . S
Zn1 O15 1.965 . S
Zn1 O17 2.024 . S
C2 O3 1.229 . S
C2 O11 1.058 . S
O3 C2 1.229 . S
C4 O5 1.229 . S
C4 O17 1.058 . S
O5 C4 1.229 . S
O6 Zn0 1.969 . S
O6 C9 1.267 . S
O7 Zn0 1.965 . S
O7 C18 1.260 1_455 S
O8 Zn1 1.969 . S
O8 C18 1.258 . S
C9 O6 1.267 . S
C9 O10 1.228 . S
O10 C9 1.228 . S
O11 Zn0 2.024 . S
O11 C2 1.058 . S
C12 O13 1.228 . S
C12 O14 1.267 . S
O13 C12 1.228 . S
O14 Zn1 1.969 . S
O14 C12 1.267 . S
O15 Zn1 1.965 . S
O15 C19 1.260 1_655 S
O16 Zn0 1.969 . S
O16 C19 1.258 . S
O17 Zn1 2.024 . S
O17 C4 1.058 . S
C18 O7 1.260 1_655 S
C18 O8 1.258 . S
C19 O15 1.260 1_455 S
C19 O16 1.258 . S
Zn20 O26 1.969 . S
Zn20 O27 1.965 . S
Zn20 O31 2.024 . S
Zn20 O36 1.969 . S
Zn21 O28 1.969 . S
Zn21 O34 1.969 . S
Zn21 O35 1.965 . S
Zn21 O37 2.024 . S
C22 O23 1.229 . S
C22 O31 1.058 . S
O23 C22 1.229 . S
C24 O25 1.229 . S
C24 O37 1.058 . S
O25 C24 1.229 . S
O26 Zn20 1.969 . S
O26 C29 1.267 . S
O27 Zn20 1.965 . S
O27 C38 1.260 . S
O28 Zn21 1.969 . S
O28 C38 1.258 1_565 S
C29 O26 1.267 . S
C29 O30 1.228 . S
O30 C29 1.228 . S
O31 Zn20 2.024 . S
O31 C22 1.058 . S
C32 O33 1.228 . S
C32 O34 1.267 . S
O33 C32 1.228 . S
O34 Zn21 1.969 . S
O34 C32 1.267 . S
O35 Zn21 1.965 . S
O35 C39 1.260 1_565 S
O36 Zn20 1.969 . S
O36 C39 1.258 . S
O37 Zn21 2.024 . S
O37 C24 1.058 . S
C38 O27 1.260 . S
C38 O28 1.258 1_545 S
C39 O35 1.260 1_545 S
C39 O36 1.258 . S
Zn40 O46 1.969 . S
Zn40 O47 1.965 . S
Zn40 O51 2.024 . S
Zn40 O56 1.969 . S
Zn41 O48 1.969 . S
Zn41 O54 1.969 . S
Zn41 O55 1.965 . S
Zn41 O57 2.024 . S
C42 O43 1.229 . S
C42 O51 1.058 . S
O43 C42 1.229 . S
C44 O45 1.229 . S
C44 O57 1.058 . S
O45 C44 1.229 . S
O46 Zn40 1.969 . S
O46 C49 1.267 . S
O47 Zn40 1.965 . S
O47 C58 1.260 . S
O48 Zn41 1.969 . S
O48 C58 1.258 . S
C49 O46 1.267 . S
C49 O50 1.228 . S
O50 C49 1.228 . S
O51 Zn40 2.024 . S
O51 C42 1.058 . S
C52 O53 1.228 . S
C52 O54 1.267 . S
O53 C52 1.228 . S
O54 Zn41 1.969 . S
O54 C52 1.267 . S
O55 Zn41 1.965 . S
O55 C59 1.260 . S
O56 Zn40 1.969 . S
O56 C59 1.258 . S
O57 Zn41 2.024 . S
O57 C44 1.058 . S
C58 O47 1.260 . S
C58 O48 1.258 . S
C59 O55 1.260 . S
C59 O56 1.258 . S
C60 C61 1.264 . S
C60 C65 1.479 . S
C60 C70 1.465 . S
C61 C60 1.264 . S
C61 C63 1.339 . S
C61 H88 0.931 . S
C62 C63 1.395 . S
C62 C64 1.320 . S
C63 C61 1.339 . S
C63 C62 1.395 . S
C63 H89 0.929 . S
C64 C62 1.320 . S
C64 C65 1.405 . S
C64 H90 0.930 . S
C65 C60 1.479 . S
C65 C64 1.405 . S
C65 H91 0.931 . S
U66 O67 2.454 1_545 S
U66 O68 2.458 1_545 S
U66 C69 2.984 1_545 S
U66 C70 2.847 . S
U66 C83 2.882 . S
U66 O84 2.441 . S
U66 O85 2.420 . S
U66 O86 2.455 . S
U66 O87 2.449 . S
O67 U66 2.454 1_565 S
O67 C69 1.353 . S
O68 U66 2.458 1_565 S
O68 C69 1.286 . S
C69 U66 2.984 1_565 S
C69 O67 1.353 . S
C69 O68 1.286 . S
C69 C71 1.363 . S
C70 C60 1.465 . S
C70 U66 2.847 . S
C70 O84 1.249 . S
C70 O85 1.202 . S
C71 C69 1.363 . S
C71 C73 1.408 . S
C71 C76 1.342 . S
C72 C73 1.310 . S
C72 C75 1.461 . S
C72 H92 0.932 . S
C73 C71 1.408 . S
C73 C72 1.310 . S
C73 H93 0.930 . S
C74 C75 1.474 . S
C74 C76 1.285 . S
C74 H94 0.929 . S
C75 C72 1.461 . S
C75 C74 1.474 . S
C76 C71 1.342 . S
C76 C74 1.285 . S
C76 H95 0.930 . S
C77 C80 1.424 . S
C77 C82 1.245 . S
C77 C83 1.428 . S
C78 C81 1.260 . S
C78 C82 1.477 . S
C78 H96 0.932 1_545 S
C79 C80 1.384 . S
C79 C81 1.479 . S
C79 H97 0.929 . S
C80 C77 1.424 . S
C80 C79 1.384 . S
C80 H98 0.928 . S
C81 C78 1.260 . S
C81 C79 1.479 . S
C82 C77 1.245 . S
C82 C78 1.477 . S
C82 H99 0.932 1_545 S
C83 U66 2.882 . S
C83 C77 1.428 . S
C83 O86 1.301 . S
C83 O87 1.282 . S
O84 U66 2.441 . S
O84 C70 1.249 . S
O85 U66 2.420 . S
O85 C70 1.202 . S
O86 U66 2.455 . S
O86 C83 1.301 . S
O87 U66 2.449 . S
O87 C83 1.282 . S
H88 C61 0.931 . S
H89 C63 0.929 . S
H90 C64 0.930 . S
H91 C65 0.931 . S
H92 C72 0.932 . S
H93 C73 0.930 . S
H94 C74 0.929 . S
H95 C76 0.930 . S
H96 C78 0.932 1_565 S
H97 C79 0.929 . S
H98 C80 0.928 . S
H99 C82 0.932 1_565 S
C100 C101 1.264 . S
C100 C105 1.479 . S
C100 C110 1.465 . S
C101 C100 1.264 . S
C101 C103 1.339 . S
C101 H128 0.931 . S
C102 C103 1.395 . S
C102 C104 1.320 . S
C103 C101 1.339 . S
C103 C102 1.395 . S
C103 H129 0.929 . S
C104 C102 1.320 . S
C104 C105 1.405 . S
C104 H130 0.930 . S
C105 C100 1.479 . S
C105 C104 1.405 . S
C105 H131 0.931 . S
U106 O107 2.454 . S
U106 O108 2.458 . S
U106 C109 2.984 . S
U106 C110 2.847 . S
U106 C123 2.882 . S
U106 O124 2.441 . S
U106 O125 2.420 . S
U106 O126 2.455 . S
U106 O127 2.449 . S
O107 U106 2.454 . S
O107 C109 1.353 . S
O108 U106 2.458 . S
O108 C109 1.286 . S
C109 U106 2.984 . S
C109 O107 1.353 . S
C109 O108 1.286 . S
C109 C111 1.363 . S
C110 C100 1.465 . S
C110 U106 2.847 . S
C110 O124 1.249 . S
C110 O125 1.202 . S
C111 C109 1.363 . S
C111 C113 1.408 . S
C111 C116 1.342 . S
C112 C113 1.310 . S
C112 C115 1.461 . S
C112 H132 0.932 . S
C113 C111 1.408 . S
C113 C112 1.310 . S
C113 H133 0.930 . S
C114 C115 1.474 . S
C114 C116 1.285 . S
C114 H134 0.929 . S
C115 C112 1.461 . S
C115 C114 1.474 . S
C116 C111 1.342 . S
C116 C114 1.285 . S
C116 H135 0.930 . S
C117 C120 1.424 . S
C117 C122 1.245 . S
C117 C123 1.428 . S
C118 C121 1.260 . S
C118 C122 1.477 . S
C118 H136 0.932 . S
C119 C120 1.384 . S
C119 C121 1.479 . S
C119 H137 0.929 . S
C120 C117 1.424 . S
C120 C119 1.384 . S
C120 H138 0.928 . S
C121 C118 1.260 . S
C121 C119 1.479 . S
C122 C117 1.245 . S
C122 C118 1.477 . S
C122 H139 0.932 . S
C123 U106 2.882 . S
C123 C117 1.428 . S
C123 O126 1.301 . S
C123 O127 1.282 . S
O124 U106 2.441 . S
O124 C110 1.249 . S
O125 U106 2.420 . S
O125 C110 1.202 . S
O126 U106 2.455 . S
O126 C123 1.301 . S
O127 U106 2.449 . S
O127 C123 1.282 . S
H128 C101 0.931 . S
H129 C103 0.929 . S
H130 C104 0.930 . S
H131 C105 0.931 . S
H132 C112 0.932 . S
H133 C113 0.930 . S
H134 C114 0.929 . S
H135 C116 0.930 . S
H136 C118 0.932 . S
H137 C119 0.929 . S
H138 C120 0.928 . S
H139 C122 0.932 . S
C140 C141 1.264 . S
C140 C145 1.479 . S
C140 C150 1.465 . S
C141 C140 1.264 . S
C141 C143 1.339 . S
C141 H168 0.931 . S
C142 C143 1.395 . S
C142 C144 1.320 . S
C143 C141 1.339 . S
C143 C142 1.395 . S
C143 H169 0.929 . S
C144 C142 1.320 . S
C144 C145 1.405 . S
C144 H170 0.930 . S
C145 C140 1.479 . S
C145 C144 1.405 . S
C145 H171 0.931 . S
U146 O147 2.454 . S
U146 O148 2.458 . S
U146 C149 2.984 . S
U146 C150 2.847 1_455 S
U146 C163 2.882 . S
U146 O164 2.441 1_455 S
U146 O165 2.420 1_455 S
U146 O166 2.455 . S
U146 O167 2.449 1_455 S
O147 U146 2.454 . S
O147 C149 1.353 . S
O148 U146 2.458 . S
O148 C149 1.286 . S
C149 U146 2.984 . S
C149 O147 1.353 . S
C149 O148 1.286 . S
C149 C151 1.363 . S
C150 C140 1.465 . S
C150 U146 2.847 1_655 S
C150 O164 1.249 . S
C150 O165 1.202 . S
C151 C149 1.363 . S
C151 C153 1.408 . S
C151 C156 1.342 . S
C152 C153 1.310 . S
C152 C155 1.461 . S
C152 H172 0.932 . S
C153 C151 1.408 . S
C153 C152 1.310 . S
C153 H173 0.930 . S
C154 C155 1.474 . S
C154 C156 1.285 . S
C154 H174 0.929 . S
C155 C152 1.461 . S
C155 C154 1.474 . S
C156 C151 1.342 . S
C156 C154 1.285 . S
C156 H175 0.930 . S
C157 C160 1.424 1_455 S
C157 C162 1.245 . S
C157 C163 1.428 . S
C158 C161 1.260 . S
C158 C162 1.477 1_554 S
C158 H176 0.932 . S
C159 C160 1.384 1_554 S
C159 C161 1.479 1_655 S
C159 H177 0.929 . S
C160 C157 1.424 1_655 S
C160 C159 1.384 1_556 S
C160 H178 0.928 . S
C161 C158 1.260 . S
C161 C159 1.479 1_455 S
C162 C157 1.245 . S
C162 C158 1.477 1_556 S
C162 H179 0.932 . S
C163 U146 2.882 . S
C163 C157 1.428 . S
C163 O166 1.301 . S
C163 O167 1.282 1_455 S
O164 U146 2.441 1_655 S
O164 C150 1.249 . S
O165 U146 2.420 1_655 S
O165 C150 1.202 . S
O166 U146 2.455 . S
O166 C163 1.301 . S
O167 U146 2.449 1_655 S
O167 C163 1.282 1_655 S
H168 C141 0.931 . S
H169 C143 0.929 . S
H170 C144 0.930 . S
H171 C145 0.931 . S
H172 C152 0.932 . S
H173 C153 0.930 . S
H174 C154 0.929 . S
H175 C156 0.930 . S
H176 C158 0.932 . S
H177 C159 0.929 . S
H178 C160 0.928 . S
H179 C162 0.932 . S
C180 C181 1.264 . S
C180 C185 1.479 . S
C180 C190 1.465 . S
C181 C180 1.264 . S
C181 C183 1.339 . S
C181 H208 0.931 . S
C182 C183 1.395 . S
C182 C184 1.320 . S
C183 C181 1.339 . S
C183 C182 1.395 . S
C183 H209 0.929 . S
C184 C182 1.320 . S
C184 C185 1.405 . S
C184 H210 0.930 . S
C185 C180 1.479 . S
C185 C184 1.405 . S
C185 H211 0.931 . S
U186 O187 2.454 . S
U186 O188 2.458 . S
U186 C189 2.984 . S
U186 C190 2.847 1_455 S
U186 C203 2.882 . S
U186 O204 2.441 1_455 S
U186 O205 2.420 1_455 S
U186 O206 2.455 . S
U186 O207 2.449 1_455 S
O187 U186 2.454 . S
O187 C189 1.353 . S
O188 U186 2.458 . S
O188 C189 1.286 . S
C189 U186 2.984 . S
C189 O187 1.353 . S
C189 O188 1.286 . S
C189 C191 1.363 . S
C190 C180 1.465 . S
C190 U186 2.847 1_655 S
C190 O204 1.249 . S
C190 O205 1.202 . S
C191 C189 1.363 . S
C191 C193 1.408 . S
C191 C196 1.342 . S
C192 C193 1.310 . S
C192 C195 1.461 . S
C192 H212 0.932 . S
C193 C191 1.408 . S
C193 C192 1.310 . S
C193 H213 0.930 . S
C194 C195 1.474 . S
C194 C196 1.285 . S
C194 H214 0.929 . S
C195 C192 1.461 . S
C195 C194 1.474 . S
C196 C191 1.342 . S
C196 C194 1.285 . S
C196 H215 0.930 . S
C197 C200 1.424 1_455 S
C197 C202 1.245 . S
C197 C203 1.428 . S
C198 C201 1.260 1_455 S
C198 C202 1.477 . S
C198 H216 0.932 . S
C199 C200 1.384 . S
C199 C201 1.479 . S
C199 H217 0.929 . S
C200 C197 1.424 1_655 S
C200 C199 1.384 . S
C200 H218 0.928 . S
C201 C198 1.260 1_655 S
C201 C199 1.479 . S
C202 C197 1.245 . S
C202 C198 1.477 . S
C202 H219 0.932 . S
C203 U186 2.882 . S
C203 C197 1.428 . S
C203 O206 1.301 . S
C203 O207 1.282 1_455 S
O204 U186 2.441 1_655 S
O204 C190 1.249 . S
O205 U186 2.420 1_655 S
O205 C190 1.202 . S
O206 U186 2.455 . S
O206 C203 1.301 . S
O207 U186 2.449 1_655 S
O207 C203 1.282 1_655 S
H208 C181 0.931 . S
H209 C183 0.929 . S
H210 C184 0.930 . S
H211 C185 0.931 . S
H212 C192 0.932 . S
H213 C193 0.930 . S
H214 C194 0.929 . S
H215 C196 0.930 . S
H216 C198 0.932 . S
H217 C199 0.929 . S
H218 C200 0.928 . S
H219 C202 0.932 . S
C220 C221 1.264 . S
C220 C225 1.479 . S
C220 C230 1.465 . S
C221 C220 1.264 . S
C221 C223 1.339 . S
C221 H248 0.931 . S
C222 C223 1.395 . S
C222 C224 1.320 . S
C223 C221 1.339 . S
C223 C222 1.395 . S
C223 H249 0.929 . S
C224 C222 1.320 . S
C224 C225 1.405 . S
C224 H250 0.930 . S
C225 C220 1.479 . S
C225 C224 1.405 . S
C225 H251 0.931 . S
U226 O227 2.454 . S
U226 O228 2.458 . S
U226 C229 2.984 . S
U226 C230 2.847 1_545 S
U226 C243 2.882 . S
U226 O244 2.441 1_545 S
U226 O245 2.420 1_545 S
U226 O246 2.455 . S
U226 O247 2.449 1_545 S
O227 U226 2.454 . S
O227 C229 1.353 . S
O228 U226 2.458 . S
O228 C229 1.286 . S
C229 U226 2.984 . S
C229 O227 1.353 . S
C229 O228 1.286 . S
C229 C231 1.363 . S
C230 C220 1.465 . S
C230 U226 2.847 1_565 S
C230 O244 1.249 . S
C230 O245 1.202 . S
C231 C229 1.363 . S
C231 C233 1.408 . S
C231 C236 1.342 . S
C232 C233 1.310 . S
C232 C235 1.461 . S
C232 H252 0.932 . S
C233 C231 1.408 . S
C233 C232 1.310 . S
C233 H253 0.930 . S
C234 C235 1.474 . S
C234 C236 1.285 . S
C234 H254 0.929 . S
C235 C232 1.461 . S
C235 C234 1.474 . S
C236 C231 1.342 . S
C236 C234 1.285 . S
C236 H255 0.930 . S
C237 C240 1.424 1_545 S
C237 C242 1.245 . S
C237 C243 1.428 . S
C238 C241 1.260 . S
C238 C242 1.477 . S
C238 H256 0.932 . S
C239 C240 1.384 . S
C239 C241 1.479 1_565 S
C239 H257 0.929 . S
C240 C237 1.424 1_565 S
C240 C239 1.384 . S
C240 H258 0.928 . S
C241 C238 1.260 . S
C241 C239 1.479 1_545 S
C242 C237 1.245 . S
C242 C238 1.477 . S
C242 H259 0.932 . S
C243 U226 2.882 . S
C243 C237 1.428 . S
C243 O246 1.301 . S
C243 O247 1.282 1_545 S
O244 U226 2.441 1_565 S
O244 C230 1.249 . S
O245 U226 2.420 1_565 S
O245 C230 1.202 . S
O246 U226 2.455 . S
O246 C243 1.301 . S
O247 U226 2.449 1_565 S
O247 C243 1.282 1_565 S
H248 C221 0.931 . S
H249 C223 0.929 . S
H250 C224 0.930 . S
H251 C225 0.931 . S
H252 C232 0.932 . S
H253 C233 0.930 . S
H254 C234 0.929 . S
H255 C236 0.930 . S
H256 C238 0.932 . S
H257 C239 0.929 . S
H258 C240 0.928 . S
H259 C242 0.932 . S
C260 C261 1.264 . S
C260 C265 1.479 . S
C260 C270 1.465 . S
C261 C260 1.264 . S
C261 C263 1.339 . S
C261 H288 0.931 . S
C262 C263 1.395 . S
C262 C264 1.320 . S
C263 C261 1.339 . S
C263 C262 1.395 . S
C263 H289 0.929 . S
C264 C262 1.320 . S
C264 C265 1.405 . S
C264 H290 0.930 . S
C265 C260 1.479 . S
C265 C264 1.405 . S
C265 H291 0.931 . S
U266 O267 2.454 . S
U266 O268 2.458 . S
U266 C269 2.984 . S
U266 C270 2.847 . S
U266 C283 2.882 . S
U266 O284 2.441 . S
U266 O285 2.420 . S
U266 O286 2.455 . S
U266 O287 2.449 . S
O267 U266 2.454 . S
O267 C269 1.353 . S
O268 U266 2.458 . S
O268 C269 1.286 . S
C269 U266 2.984 . S
C269 O267 1.353 . S
C269 O268 1.286 . S
C269 C271 1.363 . S
C270 C260 1.465 . S
C270 U266 2.847 . S
C270 O284 1.249 . S
C270 O285 1.202 . S
C271 C269 1.363 . S
C271 C273 1.408 . S
C271 C276 1.342 . S
C272 C273 1.310 . S
C272 C275 1.461 . S
C272 H292 0.932 . S
C273 C271 1.408 . S
C273 C272 1.310 . S
C273 H293 0.930 . S
C274 C275 1.474 . S
C274 C276 1.285 . S
C274 H294 0.929 . S
C275 C272 1.461 . S
C275 C274 1.474 . S
C276 C271 1.342 . S
C276 C274 1.285 . S
C276 H295 0.930 . S
C277 C280 1.424 . S
C277 C282 1.245 . S
C277 C283 1.428 . S
C278 C281 1.260 . S
C278 C282 1.477 1_556 S
C278 H296 0.932 . S
C279 C280 1.384 1_556 S
C279 C281 1.479 . S
C279 H297 0.929 . S
C280 C277 1.424 . S
C280 C279 1.384 1_554 S
C280 H298 0.928 . S
C281 C278 1.260 . S
C281 C279 1.479 . S
C282 C277 1.245 . S
C282 C278 1.477 1_554 S
C282 H299 0.932 . S
C283 U266 2.882 . S
C283 C277 1.428 . S
C283 O286 1.301 . S
C283 O287 1.282 . S
O284 U266 2.441 . S
O284 C270 1.249 . S
O285 U266 2.420 . S
O285 C270 1.202 . S
O286 U266 2.455 . S
O286 C283 1.301 . S
O287 U266 2.449 . S
O287 C283 1.282 . S
H288 C261 0.931 . S
H289 C263 0.929 . S
H290 C264 0.930 . S
H291 C265 0.931 . S
H292 C272 0.932 . S
H293 C273 0.930 . S
H294 C274 0.929 . S
H295 C276 0.930 . S
H296 C278 0.932 . S
H297 C279 0.929 . S
H298 C280 0.928 . S
H299 C282 0.932 . S
C300 C301 1.369 . S
C300 C302 1.419 . S
C300 H304 0.930 . S
C301 C300 1.369 . S
C301 C310 1.429 . S
C302 C300 1.419 . S
C302 C303 1.363 . S
C302 H305 0.929 . S
C303 C302 1.363 . S
C303 C309 1.428 . S
H304 C300 0.930 . S
H305 C302 0.929 . S
S306 N307 1.613 . S
S306 N308 1.610 . S
N307 S306 1.613 . S
N307 C310 1.350 . S
N308 S306 1.610 . S
N308 C309 1.351 . S
C309 C303 1.428 . S
C309 N308 1.351 . S
C309 C310 1.434 . S
C310 C301 1.429 . S
C310 N307 1.350 . S
C310 C309 1.434 . S
C311 C312 1.369 . S
C311 C313 1.419 . S
C311 H315 0.930 . S
C312 C311 1.369 . S
C312 C321 1.429 . S
C313 C311 1.419 . S
C313 C314 1.363 . S
C313 H316 0.929 . S
C314 C313 1.363 . S
C314 C320 1.428 . S
H315 C311 0.930 . S
H316 C313 0.929 . S
S317 N318 1.613 . S
S317 N319 1.610 . S
N318 S317 1.613 . S
N318 C321 1.350 . S
N319 S317 1.610 . S
N319 C320 1.351 . S
C320 C314 1.428 . S
C320 N319 1.351 . S
C320 C321 1.434 . S
C321 C312 1.429 . S
C321 N318 1.350 . S
C321 C320 1.434 . S
C322 C323 1.369 . S
C322 C324 1.419 . S
C322 H326 0.930 . S
C323 C322 1.369 . S
C323 C332 1.429 . S
C324 C322 1.419 . S
C324 C325 1.363 . S
C324 H327 0.929 . S
C325 C324 1.363 . S
C325 C331 1.428 . S
H326 C322 0.930 . S
H327 C324 0.929 . S
S328 N329 1.613 . S
S328 N330 1.610 . S
N329 S328 1.613 . S
N329 C332 1.350 . S
N330 S328 1.610 . S
N330 C331 1.351 . S
C331 C325 1.428 . S
C331 N330 1.351 . S
C331 C332 1.434 . S
C332 C323 1.429 . S
C332 N329 1.350 . S
C332 C331 1.434 . S
C333 C334 1.369 . S
C333 C335 1.419 . S
C333 H337 0.930 . S
C334 C333 1.369 . S
C334 C343 1.429 . S
C335 C333 1.419 . S
C335 C336 1.363 . S
C335 H338 0.929 . S
C336 C335 1.363 . S
C336 C342 1.428 . S
H337 C333 0.930 . S
H338 C335 0.929 . S
S339 N340 1.613 . S
S339 N341 1.610 . S
N340 S339 1.613 . S
N340 C343 1.350 . S
N341 S339 1.610 . S
N341 C342 1.351 . S
C342 C336 1.428 . S
C342 N341 1.351 . S
C342 C343 1.434 . S
C343 C334 1.429 . S
C343 N340 1.350 . S
C343 C342 1.434 . S
C344 C345 1.369 . S
C344 C346 1.419 . S
C344 H348 0.930 . S
C345 C344 1.369 . S
C345 C354 1.429 . S
C346 C344 1.419 . S
C346 C347 1.363 . S
C346 H349 0.929 . S
C347 C346 1.363 . S
C347 C353 1.428 . S
H348 C344 0.930 . S
H349 C346 0.929 . S
S350 N351 1.613 . S
S350 N352 1.610 . S
N351 S350 1.613 . S
N351 C354 1.350 . S
N352 S350 1.610 . S
N352 C353 1.351 . S
C353 C347 1.428 . S
C353 N352 1.351 . S
C353 C354 1.434 . S
C354 C345 1.429 . S
C354 N351 1.350 . S
C354 C353 1.434 . S
C355 C356 1.369 . S
C355 C357 1.419 . S
C355 H359 0.930 . S
C356 C355 1.369 . S
C356 C365 1.429 . S
C357 C355 1.419 . S
C357 C358 1.363 . S
C357 H360 0.929 . S
C358 C357 1.363 . S
C358 C364 1.428 . S
H359 C355 0.930 . S
H360 C357 0.929 . S
S361 N362 1.613 . S
S361 N363 1.610 . S
N362 S361 1.613 . S
N362 C365 1.350 . S
N363 S361 1.610 . S
N363 C364 1.351 . S
C364 C358 1.428 . S
C364 N363 1.351 . S
C364 C365 1.434 . S
C365 C356 1.429 . S
C365 N362 1.350 . S
C365 C364 1.434 . S
C366 C367 1.369 . S
C366 C368 1.419 . S
C366 H370 0.930 . S
C367 C366 1.369 . S
C367 C376 1.429 . S
C368 C366 1.419 . S
C368 C369 1.363 . S
C368 H371 0.929 . S
C369 C368 1.363 . S
C369 C375 1.428 . S
H370 C366 0.930 . S
H371 C368 0.929 . S
S372 N373 1.613 . S
S372 N374 1.610 . S
N373 S372 1.613 . S
N373 C376 1.350 . S
N374 S372 1.610 . S
N374 C375 1.351 . S
C375 C369 1.428 . S
C375 N374 1.351 . S
C375 C376 1.434 . S
C376 C367 1.429 . S
C376 N373 1.350 . S
C376 C375 1.434 . S
C377 C378 1.369 . S
C377 C379 1.419 . S
C377 H381 0.930 . S
C378 C377 1.369 . S
C378 C387 1.429 . S
C379 C377 1.419 . S
C379 C380 1.363 . S
C379 H382 0.929 . S
C380 C379 1.363 . S
C380 C386 1.428 . S
H381 C377 0.930 . S
H382 C379 0.929 . S
S383 N384 1.613 . S
S383 N385 1.610 . S
N384 S383 1.613 . S
N384 C387 1.350 . S
N385 S383 1.610 . S
N385 C386 1.351 . S
C386 C380 1.428 . S
C386 N385 1.351 . S
C386 C387 1.434 . S
C387 C378 1.429 . S
C387 N384 1.350 . S
C387 C386 1.434 . S
C388 C389 1.369 . S
C388 C390 1.419 . S
C388 H392 0.930 . S
C389 C388 1.369 . S
C389 C398 1.429 . S
C390 C388 1.419 . S
C390 C391 1.363 . S
C390 H393 0.929 . S
C391 C390 1.363 . S
C391 C397 1.428 . S
H392 C388 0.930 . S
H393 C390 0.929 . S
S394 N395 1.613 . S
S394 N396 1.610 . S
N395 S394 1.613 . S
N395 C398 1.350 . S
N396 S394 1.610 . S
N396 C397 1.351 . S
C397 C391 1.428 . S
C397 N396 1.351 . S
C397 C398 1.434 . S
C398 C389 1.429 . S
C398 N395 1.350 . S
C398 C397 1.434 . S
C399 C400 1.369 . S
C399 C401 1.419 . S
C399 H403 0.930 . S
C400 C399 1.369 . S
C400 C409 1.429 . S
C401 C399 1.419 . S
C401 C402 1.363 . S
C401 H404 0.929 . S
C402 C401 1.363 . S
C402 C408 1.428 . S
H403 C399 0.930 . S
H404 C401 0.929 . S
S405 N406 1.613 . S
S405 N407 1.610 . S
N406 S405 1.613 . S
N406 C409 1.350 . S
N407 S405 1.610 . S
N407 C408 1.351 . S
C408 C402 1.428 . S
C408 N407 1.351 . S
C408 C409 1.434 . S
C409 C400 1.429 . S
C409 N406 1.350 . S
C409 C408 1.434 . S
C410 C411 1.369 . S
C410 C412 1.419 . S
C410 H414 0.930 . S
C411 C410 1.369 . S
C411 C420 1.429 . S
C412 C410 1.419 . S
C412 C413 1.363 . S
C412 H415 0.929 . S
C413 C412 1.363 . S
C413 C419 1.428 . S
H414 C410 0.930 . S
H415 C412 0.929 . S
S416 N417 1.613 . S
S416 N418 1.610 . S
N417 S416 1.613 . S
N417 C420 1.350 . S
N418 S416 1.610 . S
N418 C419 1.351 . S
C419 C413 1.428 . S
C419 N418 1.351 . S
C419 C420 1.434 . S
C420 C411 1.429 . S
C420 N417 1.350 . S
C420 C419 1.434 . S
C421 C422 1.369 . S
C421 C423 1.419 . S
C421 H425 0.930 . S
C422 C421 1.369 . S
C422 C431 1.429 . S
C423 C421 1.419 . S
C423 C424 1.363 . S
C423 H426 0.929 . S
C424 C423 1.363 . S
C424 C430 1.428 . S
H425 C421 0.930 . S
H426 C423 0.929 . S
S427 N428 1.613 . S
S427 N429 1.610 . S
N428 S427 1.613 . S
N428 C431 1.350 . S
N429 S427 1.610 . S
N429 C430 1.351 . S
C430 C424 1.428 . S
C430 N429 1.351 . S
C430 C431 1.434 . S
C431 C422 1.429 . S
C431 N428 1.350 . S
C431 C430 1.434 . S
C432 C433 1.369 1_655 S
C432 C434 1.419 . S
C432 H436 0.930 . S
C433 C432 1.369 1_455 S
C433 C442 1.429 . S
C434 C432 1.419 . S
C434 C435 1.363 1_655 S
C434 H437 0.929 . S
C435 C434 1.363 1_455 S
C435 C441 1.428 . S
H436 C432 0.930 . S
H437 C434 0.929 . S
S438 N439 1.613 . S
S438 N440 1.610 . S
N439 S438 1.613 . S
N439 C442 1.350 . S
N440 S438 1.610 . S
N440 C441 1.351 . S
C441 C435 1.428 . S
C441 N440 1.351 . S
C441 C442 1.434 . S
C442 C433 1.429 . S
C442 N439 1.350 . S
C442 C441 1.434 . S
C443 C444 1.369 . S
C443 C445 1.419 . S
C443 H447 0.930 . S
C444 C443 1.369 . S
C444 C453 1.429 1_545 S
C445 C443 1.419 . S
C445 C446 1.363 . S
C445 H448 0.929 . S
C446 C445 1.363 . S
C446 C452 1.427 1_545 S
H447 C443 0.930 . S
H448 C445 0.929 . S
S449 N450 1.613 . S
S449 N451 1.610 . S
N450 S449 1.613 . S
N450 C453 1.350 . S
N451 S449 1.610 . S
N451 C452 1.351 . S
C452 C446 1.427 1_565 S
C452 N451 1.351 . S
C452 C453 1.435 . S
C453 C444 1.429 1_565 S
C453 N450 1.350 . S
C453 C452 1.435 . S
C454 C455 1.369 . S
C454 C456 1.419 . S
C454 H458 0.930 . S
C455 C454 1.369 . S
C455 C464 1.429 . S
C456 C454 1.419 . S
C456 C457 1.363 . S
C456 H459 0.929 . S
C457 C456 1.363 . S
C457 C463 1.428 . S
H458 C454 0.930 . S
H459 C456 0.929 . S
S460 N461 1.613 . S
S460 N462 1.610 . S
N461 S460 1.613 . S
N461 C464 1.350 . S
N462 S460 1.610 . S
N462 C463 1.351 . S
C463 C457 1.428 . S
C463 N462 1.351 . S
C463 C464 1.434 . S
C464 C455 1.429 . S
C464 N461 1.350 . S
C464 C463 1.434 . S
C465 C466 1.369 . S
C465 C467 1.419 . S
C465 H469 0.930 . S
C466 C465 1.369 . S
C466 C475 1.429 1_545 S
C467 C465 1.419 . S
C467 C468 1.363 . S
C467 H470 0.929 . S
C468 C467 1.363 . S
C468 C474 1.428 1_545 S
H469 C465 0.930 . S
H470 C467 0.929 . S
S471 N472 1.613 . S
S471 N473 1.610 . S
N472 S471 1.613 . S
N472 C475 1.350 . S
N473 S471 1.610 . S
N473 C474 1.351 . S
C474 C468 1.428 1_565 S
C474 N473 1.351 . S
C474 C475 1.434 . S
C475 C466 1.429 1_565 S
C475 N472 1.350 . S
C475 C474 1.434 . S
C476 C477 1.369 . S
C476 C478 1.419 . S
C476 H480 0.930 . S
C477 C476 1.369 . S
C477 C486 1.429 . S
C478 C476 1.419 . S
C478 C479 1.363 . S
C478 H481 0.929 . S
C479 C478 1.363 . S
C479 C485 1.428 . S
H480 C476 0.930 . S
H481 C478 0.929 . S
S482 N483 1.613 . S
S482 N484 1.610 . S
N483 S482 1.613 . S
N483 C486 1.350 . S
N484 S482 1.610 . S
N484 C485 1.351 . S
C485 C479 1.428 . S
C485 N484 1.351 . S
C485 C486 1.434 . S
C486 C477 1.429 . S
C486 N483 1.350 . S
C486 C485 1.434 . S
C487 C488 1.369 1_455 S
C487 C489 1.419 . S
C487 H491 0.930 . S
C488 C487 1.369 1_655 S
C488 C497 1.429 . S
C489 C487 1.419 . S
C489 C490 1.363 1_455 S
C489 H492 0.929 . S
C490 C489 1.363 1_655 S
C490 C496 1.428 . S
H491 C487 0.930 . S
H492 C489 0.929 . S
S493 N494 1.613 . S
S493 N495 1.610 . S
N494 S493 1.613 . S
N494 C497 1.350 . S
N495 S493 1.610 . S
N495 C496 1.351 . S
C496 C490 1.428 . S
C496 N495 1.351 . S
C496 C497 1.434 . S
C497 C488 1.429 . S
C497 N494 1.350 . S
C497 C496 1.434 . S
C301 C2 1.495 . S
C303 C275 1.554 . S
C312 C22 1.451 . S
C314 C182 1.544 . S
C323 C44 1.534 . S
C325 C222 1.597 . S
C334 C4 1.703 . S
C336 C262 1.759 . S
C347 C195 1.779 . S
C345 C24 1.780 . S
C358 C235 1.710 . S
C356 C42 1.661 . S
C367 C32 1.488 . S
C369 C102 1.447 . S
C378 C49 1.412 . S
C380 C142 1.394 . S
C389 C9 1.434 . S
C391 C75 1.399 . S
C402 C115 1.403 . S
C400 C29 1.368 . S
C413 C155 1.436 . S
C411 C52 1.417 . S
C422 C12 1.387 . S
C424 C62 1.431 . S
C435 C161 1.429 . S
C433 C18 1.446 1_455 S
C444 C38 1.440 . S
C446 C81 1.455 . S
C455 C58 1.426 . S
C457 C121 1.432 . S
C468 C241 1.507 . S
C466 C39 1.502 . S
C479 C281 1.489 . S
C477 C59 1.475 . S
C488 C19 1.486 1_655 S
C490 C201 1.500 . S
