# Generated by pormake.
# Topology rtl, (3,6)-cn, num edge types: 1
# Building blocks:
#     Node 0, Type 0, BuildingBlock: OLANEW_clean_sbu_2, # of connection points: 3
#     Node 1, Type 0, BuildingBlock: OLANEW_clean_sbu_2, # of connection points: 3
#     Node 2, Type 0, BuildingBlock: OLANEW_clean_sbu_2, # of connection points: 3
#     Node 3, Type 0, BuildingBlock: OLANEW_clean_sbu_2, # of connection points: 3
#     Node 4, Type 1, BuildingBlock: KUMJIN_clean_sbu_1, # of connection points: 6
#     Node 5, Type 1, BuildingBlock: KUMJIN_clean_sbu_1, # of connection points: 6
#     Edge 6, Type (0, 1), BuildingBlock: AJUNOK_clean_linker_0, # of connection points: 2
#     Edge 7, Type (0, 1), BuildingBlock: AJUNOK_clean_linker_0, # of connection points: 2
#     Edge 8, Type (0, 1), BuildingBlock: AJUNOK_clean_linker_0, # of connection points: 2
#     Edge 9, Type (0, 1), BuildingBlock: AJUNOK_clean_linker_0, # of connection points: 2
#     Edge 10, Type (0, 1), BuildingBlock: AJUNOK_clean_linker_0, # of connection points: 2
#     Edge 11, Type (0, 1), BuildingBlock: AJUNOK_clean_linker_0, # of connection points: 2
#     Edge 12, Type (0, 1), BuildingBlock: AJUNOK_clean_linker_0, # of connection points: 2
#     Edge 13, Type (0, 1), BuildingBlock: AJUNOK_clean_linker_0, # of connection points: 2
#     Edge 14, Type (0, 1), BuildingBlock: AJUNOK_clean_linker_0, # of connection points: 2
#     Edge 15, Type (0, 1), BuildingBlock: AJUNOK_clean_linker_0, # of connection points: 2
#     Edge 16, Type (0, 1), BuildingBlock: AJUNOK_clean_linker_0, # of connection points: 2
#     Edge 17, Type (0, 1), BuildingBlock: AJUNOK_clean_linker_0, # of connection points: 2
# Relax obj value: 0.047
# Max RMSD: 0.179
# Mean RMSD: 0.140
data_MOF--net-rtl--node1-OLANEW_clean_sbu_2--node2-KUMJIN_clean_sbu_1--edge1-AJUNOK_clean_linker_0
_symmetry_space_group_name_H-M    P1
_symmetry_Int_Tables_number       1
_symmetry_cell_setting            triclinic
loop_
_symmetry_equiv_pos_as_xyz
'x, y, z'
_cell_length_a     28.822831
_cell_length_b     28.877667
_cell_length_c     22.83395
_cell_angle_alpha  71.883217
_cell_angle_beta   103.49429
_cell_angle_gamma 91.643655
loop_
_atom_site_label
_atom_site_type_symbol
_atom_site_fract_x
_atom_site_fract_y
_atom_site_fract_z
_atom_type_partial_charge
O0 O 0.20857 0.84681 0.9428 0.0
Cd1 Cd 0.26315 0.81186 0.04691 0.0
O2 O 0.14085 0.82992 0.9722 0.0
Cd3 Cd 0.17056 0.81106 0.07374 0.0
O4 O 0.14518 0.83796 0.14064 0.0
C5 C 0.12513 0.88053 0.11711 0.0
O6 O 0.12353 0.90457 0.0574 0.0
C7 C 0.1632 0.8467 0.92881 0.0
C8 C 0.33002 0.74486 0.0435 0.0
O9 O 0.29331 0.73028 0.06557 0.0
O10 O 0.33537 0.79086 0.02356 0.0
O11 O 0.68399 0.68552 0.75163 0.0
Cd12 Cd 0.72662 0.71069 0.66454 0.0
O13 O 0.61272 0.71594 0.69393 0.0
Cd14 Cd 0.63785 0.73747 0.60675 0.0
O15 O 0.64968 0.71348 0.52947 0.0
C16 C 0.64705 0.66774 0.53974 0.0
O17 O 0.63859 0.64083 0.59396 0.0
C18 C 0.63967 0.69269 0.74724 0.0
C19 C 0.78903 0.78824 0.6495 0.0
O20 O 0.74565 0.79398 0.61698 0.0
O21 O 0.80232 0.74682 0.69174 0.0
O22 O 0.75575 0.14373 0.24708 0.0
Cd23 Cd 0.69387 0.16953 0.14753 0.0
O24 O 0.80747 0.14445 0.19043 0.0
Cd25 Cd 0.87335 0.12709 0.16783 0.0
O26 O 0.91419 0.11212 0.1053 0.0
C27 C 0.90606 0.07376 0.08916 0.0
O28 O 0.87551 0.04346 0.11325 0.0
C29 C 0.79832 0.13607 0.24453 0.0
C30 C 0.64814 0.26044 0.11949 0.0
O31 O 0.63422 0.22176 0.15553 0.0
O32 O 0.68418 0.25623 0.09725 0.0
O33 O 0.29196 0.32931 0.5651 0.0
Cd34 Cd 0.27637 0.27407 0.49962 0.0
O35 O 0.35582 0.36097 0.53256 0.0
Cd36 Cd 0.3535 0.33653 0.45033 0.0
O37 O 0.37883 0.362 0.36241 0.0
C38 C 0.4066 0.39728 0.36005 0.0
O39 O 0.41699 0.41387 0.4088 0.0
C40 C 0.32764 0.35627 0.56923 0.0
C41 C 0.20409 0.2076 0.52301 0.0
O42 O 0.246 0.20013 0.55986 0.0
O43 O 0.19582 0.24671 0.47548 0.0
Eu44 Eu 0.0227 0.96073 0.53571 0.0
C45 C 0.88227 0.11585 0.52601 0.0
N46 N 0.93013 0.11316 0.55057 0.0
C47 C 0.93588 0.19588 0.48802 0.0
C48 C 0.85954 0.15823 0.47881 0.0
C49 C 0.95686 0.15292 0.53455 0.0
C50 C 0.88713 0.19832 0.45934 0.0
C51 C 0.80624 0.07777 0.52494 0.0
C52 C 0.85617 0.076 0.54853 0.0
C53 C 0.78355 0.11919 0.47616 0.0
C54 C 0.81015 0.15933 0.45311 0.0
Eu55 Eu 0.96389 0.03761 0.62335 0.0
N56 N 0.87928 0.0364 0.5954 0.0
C57 C 0.78053 0.03832 0.5521 0.0
C58 C 0.85388 0.99981 0.62554 0.0
C59 C 0.80437 0.99961 0.60345 0.0
H60 H 0.99467 0.15067 0.55622 0.0
H61 H 0.7846 0.96978 0.6264 0.0
H62 H 0.95176 0.86368 0.53938 0.0
H63 H 0.21626 0.95433 0.61688 0.0
H64 H 0.8716 0.97064 0.66684 0.0
H65 H 0.74215 0.03819 0.53525 0.0
H66 H 0.1361 0.99083 0.55394 0.0
H67 H 0.95733 0.22694 0.47402 0.0
H68 H 0.74532 0.12094 0.45684 0.0
H69 H 0.79207 0.19133 0.41621 0.0
H70 H 0.95283 0.7777 0.6042 0.0
H71 H 0.87103 0.23153 0.42305 0.0
H72 H 0.22406 0.87014 0.69135 0.0
N73 N 0.02141 0.87563 0.58818 0.0
C74 C 0.06297 0.85398 0.62871 0.0
C75 C 0.98385 0.79892 0.61235 0.0
C76 C 0.06584 0.80431 0.66517 0.0
C77 C 0.98309 0.84808 0.57651 0.0
C78 C 0.0251 0.77717 0.65789 0.0
N79 N 0.09993 0.92785 0.59295 0.0
C80 C 0.13966 0.95386 0.58589 0.0
C81 C 0.14828 0.8586 0.66771 0.0
C82 C 0.10369 0.88063 0.63019 0.0
C83 C 0.18909 0.8858 0.66343 0.0
C84 C 0.18485 0.93333 0.62138 0.0
H85 H 0.02577 0.73894 0.68507 0.0
H86 H 0.11237 0.74494 0.73465 0.0
H87 H 0.18464 0.79254 0.73678 0.0
O88 O 0.04568 0.99634 0.44875 0.0
O89 O 0.06176 0.96754 0.63088 0.0
O90 O 1.00143 0.96411 0.68078 0.0
O91 O 0.0305 0.92002 0.47189 0.0
O92 O 0.04714 0.03878 0.52235 0.0
O93 O 0.0381 0.05942 0.61015 0.0
O94 O 0.93463 0.05114 0.69737 0.0
O95 O 0.95914 0.06411 0.51668 0.0
O96 O 0.9486 0.99498 0.48816 0.0
O97 O 0.00514 0.07355 0.68839 0.0
O98 O 0.94653 0.9574 0.64197 0.0
O99 O 0.94656 0.94392 0.54759 0.0
C100 C 0.04535 0.9526 0.68204 0.0
C101 C 0.01899 0.96513 0.36364 0.0
C102 C 0.02267 0.95564 0.26255 0.0
C103 C 0.97815 0.9811 0.23462 0.0
C104 C 0.97456 0.99056 0.33533 0.0
C105 C 0.95425 0.99843 0.27095 0.0
C106 C 0.0427 0.94755 0.32729 0.0
C107 C 0.0581 0.06453 0.56216 0.0
C108 C 0.04224 0.95779 0.43035 0.0
C109 C 0.10963 0.78288 0.70568 0.0
C110 C 0.15082 0.80994 0.70682 0.0
C111 C 0.93794 0.04104 0.47737 0.0
C112 C 0.99296 0.0432 0.79196 0.0
C113 C 0.9893 0.03063 0.90159 0.0
C114 C 0.02539 0.99353 0.92203 0.0
C115 C 0.02991 0.00688 0.81369 0.0
C116 C 0.97301 0.05528 0.83621 0.0
C117 C 0.04584 0.9821 0.87829 0.0
C118 C 0.93064 0.93492 0.59958 0.0
C119 C 0.97423 0.06714 0.72329 0.0
H120 H 0.96179 0.98711 0.18498 0.0
H121 H 0.95586 0.00447 0.3628 0.0
H122 H 0.92 0.01808 0.24917 0.0
H123 H 0.07727 0.92836 0.34918 0.0
H124 H 0.03804 0.97372 0.97193 0.0
H125 H 0.04635 0.99757 0.78067 0.0
H126 H 0.94437 0.08315 0.8198 0.0
H127 H 0.07404 0.95386 0.89447 0.0
Eu128 Eu 0.4594 0.5162 0.97724 0.0
C129 C 0.65376 0.60568 0.03097 0.0
N130 N 0.64287 0.55924 0.05954 0.0
C131 C 0.71388 0.52765 0.0453 0.0
C132 C 0.69509 0.61467 0.00686 0.0
C133 C 0.67226 0.52037 0.06781 0.0
C134 C 0.7253 0.57497 0.01455 0.0
C135 C 0.63223 0.69243 0.99181 0.0
C136 C 0.62237 0.64415 0.02346 0.0
C137 C 0.67302 0.70135 0.96698 0.0
C138 C 0.70443 0.66265 0.9747 0.0
Eu139 Eu 0.57365 0.55083 0.0987 0.0
N140 N 0.58269 0.63458 0.04743 0.0
C141 C 0.60122 0.73055 0.98689 0.0
C142 C 0.55496 0.67209 0.04759 0.0
C143 C 0.56292 0.72037 0.01585 0.0
H144 H 0.66326 0.48381 0.09155 0.0
H145 H 0.54004 0.74981 0.01489 0.0
H146 H 0.37006 0.58398 0.98535 0.0
H147 H 0.4733 0.31952 0.01528 0.0
H148 H 0.52755 0.6656 0.07369 0.0
H149 H 0.60749 0.76807 0.96277 0.0
H150 H 0.49559 0.40454 0.97845 0.0
H151 H 0.73704 0.4968 0.05145 0.0
H152 H 0.68087 0.73818 0.94222 0.0
H153 H 0.73577 0.6702 0.95535 0.0
H154 H 0.29451 0.57157 0.02057 0.0
H155 H 0.75733 0.58043 0.9966 0.0
H156 H 0.40163 0.30006 0.05873 0.0
N157 N 0.38655 0.50836 0.00853 0.0
C158 C 0.37123 0.46221 0.02707 0.0
C159 C 0.31598 0.5405 0.02326 0.0
C160 C 0.32797 0.45344 0.04661 0.0
C161 C 0.35908 0.54745 0.00433 0.0
C162 C 0.30053 0.49327 0.04501 0.0
N163 N 0.44131 0.43286 0.00906 0.0
C164 C 0.46609 0.39656 0.00106 0.0
C165 C 0.38429 0.37536 0.04704 0.0
C166 C 0.39954 0.4235 0.02791 0.0
C167 C 0.41209 0.33749 0.04434 0.0
C168 C 0.45273 0.34827 0.02023 0.0
H169 H 0.2671 0.48801 0.05966 0.0
H170 H 0.28045 0.39799 0.08252 0.0
H171 H 0.32949 0.32977 0.08248 0.0
O172 O 0.45048 0.49499 0.89024 0.0
O173 O 0.45253 0.49819 0.07984 0.0
O174 O 0.52812 0.49338 0.14694 0.0
O175 O 0.39965 0.54709 0.89661 0.0
O176 O 0.53127 0.47471 0.00178 0.0
O177 O 0.56907 0.47154 0.10463 0.0
O178 O 0.59345 0.58134 0.17831 0.0
O179 O 0.57672 0.55188 0.99965 0.0
O180 O 0.50274 0.58047 0.93787 0.0
O181 O 0.63405 0.51879 0.17767 0.0
O182 O 0.50078 0.58448 0.08897 0.0
O183 O 0.46307 0.59256 0.98516 0.0
C184 C 0.48216 0.48556 0.13641 0.0
C185 C 0.38315 0.52761 0.79818 0.0
C186 C 0.35014 0.49314 0.71281 0.0
C187 C 0.32207 0.53639 0.67945 0.0
C188 C 0.35484 0.57053 0.76368 0.0
C189 C 0.32473 0.5749 0.70459 0.0
C190 C 0.38118 0.48906 0.77214 0.0
C191 C 0.55733 0.45166 0.05897 0.0
C192 C 0.41122 0.52217 0.86312 0.0
C193 C 0.31348 0.40543 0.06709 0.0
C194 C 0.3415 0.36655 0.06724 0.0
C195 C 0.54938 0.58014 0.94707 0.0
C196 C 0.66181 0.54733 0.26837 0.0
C197 C 0.68192 0.56991 0.36549 0.0
C198 C 0.72347 0.53935 0.38641 0.0
C199 C 0.70375 0.51719 0.29014 0.0
C200 C 0.65118 0.574 0.30613 0.0
C201 C 0.73436 0.51338 0.34874 0.0
C202 C 0.46627 0.60295 0.03799 0.0
C203 C 0.6291 0.54947 0.20722 0.0
H204 H 0.2983 0.54051 0.63355 0.0
H205 H 0.35563 0.60064 0.78269 0.0
H206 H 0.30302 0.6081 0.67842 0.0
H207 H 0.40228 0.45548 0.7988 0.0
H208 H 0.74761 0.53575 0.43191 0.0
H209 H 0.71291 0.49636 0.26198 0.0
H210 H 0.61861 0.59681 0.29029 0.0
H211 H 0.76652 0.49001 0.36515 0.0
C212 C 0.13319 0.16412 0.48246 0.0
C213 C 0.16671 0.17154 0.53412 0.0
C214 C 0.09862 0.12889 0.49178 0.0
C215 C 0.0954 0.10082 0.55316 0.0
H216 H 0.13423 0.18505 0.43437 0.0
H217 H 0.07378 0.12414 0.45066 0.0
S218 S 0.17366 0.10716 0.70433 0.0
N219 N 0.19429 0.14789 0.64883 0.0
N220 N 0.12827 0.08333 0.66637 0.0
C221 C 0.12815 0.10849 0.60518 0.0
C222 C 0.16409 0.14337 0.59567 0.0
C223 C 0.37601 0.66449 0.08989 0.0
C224 C 0.36528 0.70952 0.04137 0.0
C225 C 0.40974 0.63065 0.08923 0.0
C226 C 0.43255 0.64003 0.03892 0.0
H227 H 0.35871 0.65562 0.12908 0.0
H228 H 0.4172 0.59643 0.12755 0.0
S229 S 0.41677 0.75187 0.90021 0.0
N230 N 0.38075 0.7618 0.94217 0.0
N231 N 0.44237 0.6971 0.93959 0.0
C232 C 0.42183 0.68453 0.98986 0.0
C233 C 0.38865 0.71961 0.99146 0.0
C234 C 0.86254 0.8308 0.68494 0.0
C235 C 0.82363 0.8272 0.63636 0.0
C236 C 0.89666 0.86613 0.67283 0.0
C237 C 0.89403 0.89814 0.6113 0.0
H238 H 0.86651 0.80631 0.73281 0.0
H239 H 0.92584 0.86781 0.71172 0.0
S240 S 0.80002 0.90339 0.46727 0.0
N241 N 0.78451 0.85921 0.52427 0.0
N242 N 0.84972 0.92388 0.50135 0.0
C243 C 0.85571 0.89462 0.56227 0.0
C244 C 0.82021 0.85967 0.57484 0.0
C245 C 0.62918 0.34725 0.05048 0.0
C246 C 0.62327 0.3086 0.10359 0.0
C247 C 0.60649 0.39334 0.03476 0.0
C248 C 0.578 0.40247 0.07244 0.0
H249 H 0.65145 0.3419 0.02069 0.0
H250 H 0.61225 0.4223 0.99398 0.0
S251 S 0.54916 0.31422 0.21451 0.0
N252 N 0.58483 0.28273 0.1922 0.0
N253 N 0.5435 0.36975 0.16332 0.0
C254 C 0.57133 0.36439 0.12506 0.0
C255 C 0.59356 0.31729 0.14044 0.0
C256 C 0.0905 0.87051 0.21099 0.0
C257 C 0.10052 0.90111 0.15442 0.0
C258 C 0.06514 0.88841 0.24546 0.0
C259 C 0.04866 0.93752 0.22457 0.0
H260 H 0.10171 0.8322 0.22847 0.0
H261 H 0.0579 0.86349 0.28848 0.0
S262 S 0.06925 0.03397 0.08326 0.0
N263 N 0.0946 0.98398 0.08162 0.0
N264 N 0.04648 0.01721 0.14628 0.0
C265 C 0.05901 0.96876 0.16883 0.0
C266 C 0.08511 0.95067 0.13386 0.0
C267 C 0.63837 0.62237 0.84406 0.0
C268 C 0.61806 0.66751 0.80125 0.0
C269 C 0.61546 0.59418 0.89016 0.0
C270 C 0.57183 0.61035 0.89642 0.0
H271 H 0.67144 0.60773 0.84056 0.0
H272 H 0.63193 0.55911 0.92084 0.0
S273 S 0.5055 0.72762 0.79978 0.0
N274 N 0.5525 0.72797 0.76984 0.0
N275 N 0.51033 0.67558 0.85797 0.0
C276 C 0.55163 0.65589 0.85503 0.0
C277 C 0.57463 0.68438 0.80737 0.0
C278 C 0.82269 0.07382 0.35101 0.0
C279 C 0.83473 0.1134 0.30369 0.0
C280 C 0.85649 0.05062 0.40717 0.0
C281 C 0.90293 0.06718 0.4188 0.0
H282 H 0.78712 0.06008 0.34406 0.0
H283 H 0.846 0.02 0.44217 0.0
S284 S 0.95151 0.17133 0.31255 0.0
N285 N 0.89599 0.16911 0.27311 0.0
N286 N 0.95901 0.12644 0.38025 0.0
C287 C 0.91511 0.10756 0.37301 0.0
C288 C 0.8811 0.13042 0.31492 0.0
C289 C 0.29595 0.40178 0.63015 0.0
C290 C 0.33517 0.38554 0.61365 0.0
C291 C 0.30141 0.43522 0.66441 0.0
C292 C 0.34641 0.4529 0.68452 0.0
H293 H 0.26039 0.39045 0.61393 0.0
H294 H 0.26996 0.44834 0.67388 0.0
S295 S 0.46115 0.41827 0.65909 0.0
N296 N 0.42119 0.38722 0.62404 0.0
N297 N 0.43121 0.44952 0.68898 0.0
C298 C 0.38626 0.43499 0.6714 0.0
C299 C 0.38069 0.4015 0.63578 0.0
C300 C 0.6607 0.59319 0.51163 0.0
C301 C 0.65432 0.64433 0.49297 0.0
C302 C 0.66887 0.56955 0.46972 0.0
C303 C 0.67045 0.59599 0.40723 0.0
H304 H 0.6601 0.57104 0.55939 0.0
H305 H 0.67415 0.53018 0.48644 0.0
S306 S 0.65477 0.73012 0.33358 0.0
N307 N 0.64933 0.72059 0.4068 0.0
N308 N 0.66441 0.67573 0.32796 0.0
C309 C 0.66325 0.64693 0.38727 0.0
C310 C 0.65536 0.67122 0.43018 0.0
C311 C 0.92996 0.01626 0.03781 0.0
C312 C 0.92894 0.06382 0.04209 0.0
C313 C 0.94969 0.00585 0.99245 0.0
C314 C 0.96839 0.04274 0.94882 0.0
H315 H 0.91553 0.98666 0.06992 0.0
H316 H 0.94983 0.9687 0.99102 0.0
S317 S 0.97597 0.17283 0.9407 0.0
N318 N 0.94979 0.14795 0.99946 0.0
N319 N 0.9862 0.12824 0.91366 0.0
C320 C 0.96792 0.09034 0.9526 0.0
C321 C 0.94849 0.10088 0.99944 0.0
C322 C 0.41082 0.40633 0.24815 0.0
C323 C 0.42643 0.41995 0.30348 0.0
C324 C 0.42867 0.42777 0.19409 0.0
C325 C 0.46282 0.46353 0.19314 0.0
H326 H 0.38459 0.37887 0.24643 0.0
H327 H 0.41649 0.41525 0.15356 0.0
S328 S 0.51603 0.51226 0.32509 0.0
N329 N 0.47882 0.47169 0.35355 0.0
N330 N 0.51171 0.51177 0.25197 0.0
C331 C 0.47897 0.47733 0.24804 0.0
C332 C 0.46087 0.45571 0.30305 0.0
C333 C 0.08694 0.86082 0.84522 0.0
C334 C 0.13555 0.87038 0.86294 0.0
C335 C 0.05819 0.88705 0.78608 0.0
C336 C 0.07698 0.92374 0.74248 0.0
H337 H 0.07063 0.83349 0.87778 0.0
H338 H 0.02087 0.87886 0.77465 0.0
S339 S 0.2011 0.96465 0.76607 0.0
N340 N 0.20089 0.91974 0.83173 0.0
N341 N 0.14641 0.96953 0.7212 0.0
C342 C 0.12548 0.93336 0.75898 0.0
C343 C 0.15491 0.90649 0.81903 0.0
loop_
_geom_bond_atom_site_label_1
_geom_bond_atom_site_label_2
_geom_bond_distance
_geom_bond_site_symmetry_2
_ccdc_geom_bond_type
O0 Cd1 2.300 1_556 S
O0 C7 1.275 . S
Cd1 O0 2.300 1_554 S
Cd1 O9 2.381 . S
Cd1 O10 2.378 . S
O2 Cd3 2.385 1_556 S
O2 C7 1.255 . S
Cd3 O2 2.385 1_554 S
Cd3 O4 2.317 . S
O4 Cd3 2.317 . S
O4 C5 1.232 . S
C5 O4 1.232 . S
C5 O6 1.218 . S
O6 C5 1.218 . S
C7 O0 1.275 . S
C7 O2 1.255 . S
C8 O9 1.258 . S
C8 O10 1.256 . S
O9 Cd1 2.381 . S
O9 C8 1.258 . S
O10 Cd1 2.378 . S
O10 C8 1.256 . S
O11 Cd12 2.300 . S
O11 C18 1.275 . S
Cd12 O11 2.300 . S
Cd12 O20 2.381 . S
Cd12 O21 2.378 . S
O13 Cd14 2.385 . S
O13 C18 1.255 . S
Cd14 O13 2.385 . S
Cd14 O15 2.317 . S
O15 Cd14 2.317 . S
O15 C16 1.232 . S
C16 O15 1.232 . S
C16 O17 1.218 . S
O17 C16 1.218 . S
C18 O11 1.275 . S
C18 O13 1.255 . S
C19 O20 1.258 . S
C19 O21 1.256 . S
O20 Cd12 2.381 . S
O20 C19 1.258 . S
O21 Cd12 2.378 . S
O21 C19 1.256 . S
O22 Cd23 2.300 . S
O22 C29 1.275 . S
Cd23 O22 2.300 . S
Cd23 O31 2.381 . S
Cd23 O32 2.378 . S
O24 Cd25 2.385 . S
O24 C29 1.255 . S
Cd25 O24 2.385 . S
Cd25 O26 2.317 . S
O26 Cd25 2.317 . S
O26 C27 1.232 . S
C27 O26 1.232 . S
C27 O28 1.218 . S
O28 C27 1.218 . S
C29 O22 1.275 . S
C29 O24 1.255 . S
C30 O31 1.258 . S
C30 O32 1.256 . S
O31 Cd23 2.381 . S
O31 C30 1.258 . S
O32 Cd23 2.378 . S
O32 C30 1.256 . S
O33 Cd34 2.300 . S
O33 C40 1.275 . S
Cd34 O33 2.300 . S
Cd34 O42 2.381 . S
Cd34 O43 2.378 . S
O35 Cd36 2.385 . S
O35 C40 1.255 . S
Cd36 O35 2.385 . S
Cd36 O37 2.317 . S
O37 Cd36 2.317 . S
O37 C38 1.232 . S
C38 O37 1.232 . S
C38 O39 1.218 . S
O39 C38 1.218 . S
C40 O33 1.275 . S
C40 O35 1.255 . S
C41 O42 1.258 . S
C41 O43 1.256 . S
O42 Cd34 2.381 . S
O42 C41 1.258 . S
O43 Cd34 2.378 . S
O43 C41 1.256 . S
Eu44 N73 2.600 . S
Eu44 N79 2.562 . S
Eu44 O88 2.462 . S
Eu44 O89 2.373 . S
Eu44 O91 2.432 . S
Eu44 O92 2.291 1_565 S
Eu44 O96 2.335 1_465 S
Eu44 O99 2.372 1_455 S
Eu44 C108 2.787 . S
C45 N46 1.365 . S
C45 C48 1.405 . S
C45 C52 1.448 . S
N46 C45 1.365 . S
N46 C49 1.319 1_655 S
N46 Eu55 2.600 . S
C47 C49 1.397 . S
C47 C50 1.367 1_455 S
C47 H67 0.931 . S
C48 C45 1.405 . S
C48 C50 1.403 . S
C48 C54 1.439 . S
C49 N46 1.319 1_455 S
C49 C47 1.397 . S
C49 H60 0.930 . S
C50 C47 1.367 1_655 S
C50 C48 1.403 . S
C50 H71 0.929 . S
C51 C52 1.430 . S
C51 C53 1.387 . S
C51 C57 1.404 . S
C52 C45 1.448 . S
C52 C51 1.430 . S
C52 N56 1.351 . S
C53 C51 1.387 . S
C53 C54 1.374 . S
C53 H68 0.931 . S
C54 C48 1.439 . S
C54 C53 1.374 . S
C54 H69 0.931 . S
Eu55 N46 2.600 . S
Eu55 N56 2.562 . S
Eu55 O90 2.335 1_655 S
Eu55 O93 2.372 1_655 S
Eu55 O94 2.462 . S
Eu55 O95 2.373 . S
Eu55 O97 2.432 . S
Eu55 O98 2.291 1_545 S
Eu55 C119 2.787 . S
N56 C52 1.351 . S
N56 Eu55 2.562 . S
N56 C58 1.325 . S
C57 C51 1.404 . S
C57 C59 1.366 . S
C57 H65 0.930 . S
C58 N56 1.325 . S
C58 C59 1.416 . S
C58 H64 0.929 . S
C59 C57 1.366 . S
C59 C58 1.416 . S
C59 H61 0.930 . S
H60 C49 0.930 . S
H61 C59 0.930 . S
H62 C77 0.930 1_655 S
H63 C84 0.930 . S
H64 C58 0.929 . S
H65 C57 0.930 . S
H66 C80 0.929 . S
H67 C47 0.931 . S
H68 C53 0.931 . S
H69 C54 0.931 . S
H70 C75 0.931 1_655 S
H71 C50 0.929 . S
H72 C83 0.930 . S
N73 Eu44 2.600 . S
N73 C74 1.365 . S
N73 C77 1.319 . S
C74 N73 1.365 . S
C74 C76 1.405 . S
C74 C82 1.448 . S
C75 H70 0.931 1_455 S
C75 C77 1.397 . S
C75 C78 1.367 . S
C76 C74 1.405 . S
C76 C78 1.403 . S
C76 C109 1.439 . S
C77 H62 0.930 1_455 S
C77 N73 1.319 . S
C77 C75 1.397 . S
C78 C75 1.367 . S
C78 C76 1.403 . S
C78 H85 0.929 . S
N79 Eu44 2.562 . S
N79 C80 1.325 . S
N79 C82 1.351 . S
C80 H66 0.929 . S
C80 N79 1.325 . S
C80 C84 1.416 . S
C81 C82 1.430 . S
C81 C83 1.404 . S
C81 C110 1.387 . S
C82 C74 1.448 . S
C82 N79 1.351 . S
C82 C81 1.430 . S
C83 H72 0.930 . S
C83 C81 1.404 . S
C83 C84 1.366 . S
C84 H63 0.930 . S
C84 C80 1.416 . S
C84 C83 1.366 . S
H85 C78 0.929 . S
H86 C109 0.931 . S
H87 C110 0.931 . S
O88 Eu44 2.462 . S
O88 C108 1.252 . S
O89 Eu44 2.373 . S
O89 C100 1.249 . S
O90 Eu55 2.335 1_455 S
O90 C100 1.264 1_545 S
O91 Eu44 2.432 . S
O91 C108 1.268 . S
O92 Eu44 2.291 1_545 S
O92 C107 1.255 . S
O93 Eu55 2.372 1_455 S
O93 C107 1.257 . S
O94 Eu55 2.462 . S
O94 C119 1.252 . S
O95 Eu55 2.373 . S
O95 C111 1.249 . S
O96 Eu44 2.335 1_645 S
O96 C111 1.264 . S
O97 Eu55 2.432 . S
O97 C119 1.268 . S
O98 Eu55 2.291 1_565 S
O98 C118 1.255 . S
O99 Eu44 2.372 1_655 S
O99 C118 1.257 . S
C100 O89 1.249 . S
C100 O90 1.264 1_565 S
C101 C104 1.382 . S
C101 C106 1.390 . S
C101 C108 1.506 . S
C102 C103 1.398 . S
C102 C106 1.392 . S
C103 C102 1.398 . S
C103 C105 1.372 . S
C103 H120 0.931 . S
C104 C101 1.382 . S
C104 C105 1.390 . S
C104 H121 0.931 . S
C105 C103 1.372 . S
C105 C104 1.390 . S
C105 H122 0.929 . S
C106 C101 1.390 . S
C106 C102 1.392 . S
C106 H123 0.930 . S
C107 O92 1.255 . S
C107 O93 1.257 . S
C108 Eu44 2.787 . S
C108 O88 1.252 . S
C108 O91 1.268 . S
C108 C101 1.506 . S
C109 C76 1.439 . S
C109 H86 0.931 . S
C109 C110 1.374 . S
C110 C81 1.387 . S
C110 H87 0.931 . S
C110 C109 1.374 . S
C111 O95 1.249 . S
C111 O96 1.264 . S
C112 C115 1.382 . S
C112 C116 1.390 . S
C112 C119 1.506 . S
C113 C114 1.398 . S
C113 C116 1.392 . S
C114 C113 1.398 . S
C114 C117 1.372 . S
C114 H124 0.931 . S
C115 C112 1.382 . S
C115 C117 1.390 . S
C115 H125 0.931 . S
C116 C112 1.390 . S
C116 C113 1.392 . S
C116 H126 0.930 . S
C117 C114 1.372 . S
C117 C115 1.390 . S
C117 H127 0.929 . S
C118 O98 1.255 . S
C118 O99 1.257 . S
C119 Eu55 2.787 . S
C119 O94 1.252 . S
C119 O97 1.268 . S
C119 C112 1.506 . S
H120 C103 0.931 . S
H121 C104 0.931 . S
H122 C105 0.929 . S
H123 C106 0.930 . S
H124 C114 0.931 . S
H125 C115 0.931 . S
H126 C116 0.930 . S
H127 C117 0.929 . S
Eu128 N157 2.600 . S
Eu128 N163 2.562 1_556 S
Eu128 O172 2.462 . S
Eu128 O173 2.373 1_556 S
Eu128 O175 2.432 . S
Eu128 O176 2.291 1_556 S
Eu128 O180 2.335 . S
Eu128 O183 2.372 . S
Eu128 C192 2.787 . S
C129 N130 1.365 . S
C129 C132 1.405 . S
C129 C136 1.448 . S
N130 C129 1.365 . S
N130 C133 1.319 . S
N130 Eu139 2.600 . S
C131 C133 1.397 . S
C131 C134 1.367 . S
C131 H151 0.931 . S
C132 C129 1.405 . S
C132 C134 1.403 . S
C132 C138 1.439 . S
C133 N130 1.319 . S
C133 C131 1.397 . S
C133 H144 0.930 . S
C134 C131 1.367 . S
C134 C132 1.403 . S
C134 H155 0.929 . S
C135 C136 1.430 . S
C135 C137 1.387 . S
C135 C141 1.404 . S
C136 C129 1.448 . S
C136 C135 1.430 . S
C136 N140 1.351 . S
C137 C135 1.387 . S
C137 C138 1.374 . S
C137 H152 0.931 . S
C138 C132 1.439 . S
C138 C137 1.374 . S
C138 H153 0.931 . S
Eu139 N130 2.600 . S
Eu139 N140 2.562 . S
Eu139 O174 2.335 . S
Eu139 O177 2.372 . S
Eu139 O178 2.462 . S
Eu139 O179 2.373 . S
Eu139 O181 2.432 . S
Eu139 O182 2.291 . S
Eu139 C203 2.787 . S
N140 C136 1.351 . S
N140 Eu139 2.562 . S
N140 C142 1.325 . S
C141 C135 1.404 . S
C141 C143 1.366 . S
C141 H149 0.930 . S
C142 N140 1.325 . S
C142 C143 1.416 . S
C142 H148 0.929 . S
C143 C141 1.366 . S
C143 C142 1.416 . S
C143 H145 0.930 . S
H144 C133 0.930 . S
H145 C143 0.930 . S
H146 C161 0.930 . S
H147 C168 0.930 . S
H148 C142 0.929 . S
H149 C141 0.930 . S
H150 C164 0.929 . S
H151 C131 0.931 . S
H152 C137 0.931 . S
H153 C138 0.931 . S
H154 C159 0.931 . S
H155 C134 0.929 . S
H156 C167 0.930 . S
N157 Eu128 2.600 . S
N157 C158 1.365 1_556 S
N157 C161 1.319 . S
C158 N157 1.365 1_554 S
C158 C160 1.405 . S
C158 C166 1.448 . S
C159 H154 0.931 . S
C159 C161 1.397 . S
C159 C162 1.367 . S
C160 C158 1.405 . S
C160 C162 1.403 1_554 S
C160 C193 1.439 . S
C161 H146 0.930 . S
C161 N157 1.319 . S
C161 C159 1.397 . S
C162 C159 1.367 . S
C162 C160 1.403 1_556 S
C162 H169 0.929 1_556 S
N163 Eu128 2.562 1_554 S
N163 C164 1.325 . S
N163 C166 1.351 . S
C164 H150 0.929 . S
C164 N163 1.325 . S
C164 C168 1.416 . S
C165 C166 1.430 . S
C165 C167 1.404 . S
C165 C194 1.387 . S
C166 C158 1.448 . S
C166 N163 1.351 . S
C166 C165 1.430 . S
C167 H156 0.930 . S
C167 C165 1.404 . S
C167 C168 1.366 . S
C168 H147 0.930 . S
C168 C164 1.416 . S
C168 C167 1.366 . S
H169 C162 0.929 1_554 S
H170 C193 0.931 . S
H171 C194 0.931 . S
O172 Eu128 2.462 . S
O172 C192 1.252 . S
O173 Eu128 2.373 1_554 S
O173 C184 1.249 . S
O174 Eu139 2.335 . S
O174 C184 1.264 . S
O175 Eu128 2.432 . S
O175 C192 1.268 . S
O176 Eu128 2.291 1_554 S
O176 C191 1.255 . S
O177 Eu139 2.372 . S
O177 C191 1.257 . S
O178 Eu139 2.462 . S
O178 C203 1.252 . S
O179 Eu139 2.373 . S
O179 C195 1.249 1_554 S
O180 Eu128 2.335 . S
O180 C195 1.264 . S
O181 Eu139 2.432 . S
O181 C203 1.268 . S
O182 Eu139 2.291 . S
O182 C202 1.255 . S
O183 Eu128 2.372 . S
O183 C202 1.257 1_556 S
C184 O173 1.249 . S
C184 O174 1.264 . S
C185 C188 1.382 . S
C185 C190 1.390 . S
C185 C192 1.506 . S
C186 C187 1.398 . S
C186 C190 1.392 . S
C187 C186 1.398 . S
C187 C189 1.372 . S
C187 H204 0.931 . S
C188 C185 1.382 . S
C188 C189 1.390 . S
C188 H205 0.931 . S
C189 C187 1.372 . S
C189 C188 1.390 . S
C189 H206 0.929 . S
C190 C185 1.390 . S
C190 C186 1.392 . S
C190 H207 0.930 . S
C191 O176 1.255 . S
C191 O177 1.257 . S
C192 Eu128 2.787 . S
C192 O172 1.252 . S
C192 O175 1.268 . S
C192 C185 1.506 . S
C193 C160 1.439 . S
C193 H170 0.931 . S
C193 C194 1.374 . S
C194 C165 1.387 . S
C194 H171 0.931 . S
C194 C193 1.374 . S
C195 O179 1.249 1_556 S
C195 O180 1.264 . S
C196 C199 1.382 . S
C196 C200 1.390 . S
C196 C203 1.506 . S
C197 C198 1.398 . S
C197 C200 1.392 . S
C198 C197 1.398 . S
C198 C201 1.372 . S
C198 H208 0.931 . S
C199 C196 1.382 . S
C199 C201 1.390 . S
C199 H209 0.931 . S
C200 C196 1.390 . S
C200 C197 1.392 . S
C200 H210 0.930 . S
C201 C198 1.372 . S
C201 C199 1.390 . S
C201 H211 0.929 . S
C202 O182 1.255 . S
C202 O183 1.257 1_554 S
C203 Eu139 2.787 . S
C203 O178 1.252 . S
C203 O181 1.268 . S
C203 C196 1.506 . S
H204 C187 0.931 . S
H205 C188 0.931 . S
H206 C189 0.929 . S
H207 C190 0.930 . S
H208 C198 0.931 . S
H209 C199 0.931 . S
H210 C200 0.930 . S
H211 C201 0.929 . S
C212 C213 1.369 . S
C212 C214 1.419 . S
C212 H216 0.930 . S
C213 C212 1.369 . S
C213 C222 1.429 . S
C214 C212 1.419 . S
C214 C215 1.363 . S
C214 H217 0.929 . S
C215 C214 1.363 . S
C215 C221 1.428 . S
H216 C212 0.930 . S
H217 C214 0.929 . S
S218 N219 1.613 . S
S218 N220 1.610 . S
N219 S218 1.613 . S
N219 C222 1.350 . S
N220 S218 1.610 . S
N220 C221 1.351 . S
C221 C215 1.428 . S
C221 N220 1.351 . S
C221 C222 1.434 . S
C222 C213 1.429 . S
C222 N219 1.350 . S
C222 C221 1.434 . S
C223 C224 1.369 . S
C223 C225 1.419 . S
C223 H227 0.930 . S
C224 C223 1.369 . S
C224 C233 1.429 . S
C225 C223 1.419 . S
C225 C226 1.363 . S
C225 H228 0.929 . S
C226 C225 1.363 . S
C226 C232 1.431 . S
H227 C223 0.930 . S
H228 C225 0.929 . S
S229 N230 1.613 . S
S229 N231 1.610 . S
N230 S229 1.613 . S
N230 C233 1.350 1_556 S
N231 S229 1.610 . S
N231 C232 1.345 1_556 S
C232 C226 1.431 . S
C232 N231 1.345 1_554 S
C232 C233 1.438 . S
C233 C224 1.429 . S
C233 N230 1.350 1_554 S
C233 C232 1.438 . S
C234 C235 1.369 . S
C234 C236 1.419 . S
C234 H238 0.930 . S
C235 C234 1.369 . S
C235 C244 1.429 . S
C236 C234 1.419 . S
C236 C237 1.363 . S
C236 H239 0.929 . S
C237 C236 1.363 . S
C237 C243 1.428 . S
H238 C234 0.930 . S
H239 C236 0.929 . S
S240 N241 1.613 . S
S240 N242 1.610 . S
N241 S240 1.613 . S
N241 C244 1.350 . S
N242 S240 1.610 . S
N242 C243 1.351 . S
C243 C237 1.428 . S
C243 N242 1.351 . S
C243 C244 1.434 . S
C244 C235 1.429 . S
C244 N241 1.350 . S
C244 C243 1.434 . S
C245 C246 1.369 . S
C245 C247 1.419 . S
C245 H249 0.930 . S
C246 C245 1.369 . S
C246 C255 1.429 . S
C247 C245 1.419 . S
C247 C248 1.363 . S
C247 H250 0.929 . S
C248 C247 1.363 . S
C248 C254 1.428 . S
H249 C245 0.930 . S
H250 C247 0.929 . S
S251 N252 1.613 . S
S251 N253 1.610 . S
N252 S251 1.613 . S
N252 C255 1.350 . S
N253 S251 1.610 . S
N253 C254 1.351 . S
C254 C248 1.428 . S
C254 N253 1.351 . S
C254 C255 1.434 . S
C255 C246 1.429 . S
C255 N252 1.350 . S
C255 C254 1.434 . S
C256 C257 1.369 . S
C256 C258 1.419 . S
C256 H260 0.930 . S
C257 C256 1.369 . S
C257 C266 1.429 . S
C258 C256 1.419 . S
C258 C259 1.363 . S
C258 H261 0.929 . S
C259 C258 1.363 . S
C259 C265 1.428 . S
H260 C256 0.930 . S
H261 C258 0.929 . S
S262 N263 1.613 . S
S262 N264 1.610 . S
N263 S262 1.613 . S
N263 C266 1.350 . S
N264 S262 1.610 . S
N264 C265 1.351 . S
C265 C259 1.428 . S
C265 N264 1.351 . S
C265 C266 1.434 . S
C266 C257 1.429 . S
C266 N263 1.350 . S
C266 C265 1.434 . S
C267 C268 1.369 . S
C267 C269 1.419 . S
C267 H271 0.930 . S
C268 C267 1.369 . S
C268 C277 1.429 . S
C269 C267 1.419 . S
C269 C270 1.363 . S
C269 H272 0.929 . S
C270 C269 1.363 . S
C270 C276 1.428 . S
H271 C267 0.930 . S
H272 C269 0.929 . S
S273 N274 1.613 . S
S273 N275 1.610 . S
N274 S273 1.613 . S
N274 C277 1.350 . S
N275 S273 1.610 . S
N275 C276 1.351 . S
C276 C270 1.428 . S
C276 N275 1.351 . S
C276 C277 1.434 . S
C277 C268 1.429 . S
C277 N274 1.350 . S
C277 C276 1.434 . S
C278 C279 1.369 . S
C278 C280 1.419 . S
C278 H282 0.930 . S
C279 C278 1.369 . S
C279 C288 1.429 . S
C280 C278 1.419 . S
C280 C281 1.363 . S
C280 H283 0.929 . S
C281 C280 1.363 . S
C281 C287 1.428 . S
H282 C278 0.930 . S
H283 C280 0.929 . S
S284 N285 1.613 . S
S284 N286 1.610 . S
N285 S284 1.613 . S
N285 C288 1.350 . S
N286 S284 1.610 . S
N286 C287 1.351 . S
C287 C281 1.428 . S
C287 N286 1.351 . S
C287 C288 1.434 . S
C288 C279 1.429 . S
C288 N285 1.350 . S
C288 C287 1.434 . S
C289 C290 1.369 . S
C289 C291 1.419 . S
C289 H293 0.930 . S
C290 C289 1.369 . S
C290 C299 1.429 . S
C291 C289 1.419 . S
C291 C292 1.363 . S
C291 H294 0.929 . S
C292 C291 1.363 . S
C292 C298 1.428 . S
H293 C289 0.930 . S
H294 C291 0.929 . S
S295 N296 1.613 . S
S295 N297 1.610 . S
N296 S295 1.613 . S
N296 C299 1.350 . S
N297 S295 1.610 . S
N297 C298 1.351 . S
C298 C292 1.428 . S
C298 N297 1.351 . S
C298 C299 1.434 . S
C299 C290 1.429 . S
C299 N296 1.350 . S
C299 C298 1.434 . S
C300 C301 1.369 . S
C300 C302 1.419 . S
C300 H304 0.930 . S
C301 C300 1.369 . S
C301 C310 1.429 . S
C302 C300 1.419 . S
C302 C303 1.363 . S
C302 H305 0.929 . S
C303 C302 1.363 . S
C303 C309 1.428 . S
H304 C300 0.930 . S
H305 C302 0.929 . S
S306 N307 1.613 . S
S306 N308 1.610 . S
N307 S306 1.613 . S
N307 C310 1.350 . S
N308 S306 1.610 . S
N308 C309 1.351 . S
C309 C303 1.428 . S
C309 N308 1.351 . S
C309 C310 1.434 . S
C310 C301 1.429 . S
C310 N307 1.350 . S
C310 C309 1.434 . S
C311 C312 1.369 . S
C311 C313 1.419 . S
C311 H315 0.930 1_556 S
C312 C311 1.369 . S
C312 C321 1.429 . S
C313 C311 1.419 . S
C313 C314 1.363 . S
C313 H316 0.929 1_545 S
C314 C313 1.363 . S
C314 C320 1.428 . S
H315 C311 0.930 1_554 S
H316 C313 0.929 1_565 S
S317 N318 1.613 . S
S317 N319 1.610 . S
N318 S317 1.613 . S
N318 C321 1.350 . S
N319 S317 1.610 . S
N319 C320 1.351 . S
C320 C314 1.428 . S
C320 N319 1.351 . S
C320 C321 1.434 . S
C321 C312 1.429 . S
C321 N318 1.350 . S
C321 C320 1.434 . S
C322 C323 1.369 . S
C322 C324 1.419 . S
C322 H326 0.930 . S
C323 C322 1.369 . S
C323 C332 1.429 . S
C324 C322 1.419 . S
C324 C325 1.363 . S
C324 H327 0.929 . S
C325 C324 1.363 . S
C325 C331 1.428 . S
H326 C322 0.930 . S
H327 C324 0.929 . S
S328 N329 1.613 . S
S328 N330 1.610 . S
N329 S328 1.613 . S
N329 C332 1.350 . S
N330 S328 1.610 . S
N330 C331 1.351 . S
C331 C325 1.428 . S
C331 N330 1.351 . S
C331 C332 1.434 . S
C332 C323 1.429 . S
C332 N329 1.350 . S
C332 C331 1.434 . S
C333 C334 1.369 . S
C333 C335 1.419 . S
C333 H337 0.930 . S
C334 C333 1.369 . S
C334 C343 1.429 . S
C335 C333 1.419 . S
C335 C336 1.363 . S
C335 H338 0.929 . S
C336 C335 1.363 . S
C336 C342 1.428 . S
H337 C333 0.930 . S
H338 C335 0.929 . S
S339 N340 1.613 . S
S339 N341 1.610 . S
N340 S339 1.613 . S
N340 C343 1.350 . S
N341 S339 1.610 . S
N341 C342 1.351 . S
C342 C336 1.428 . S
C342 N341 1.351 . S
C342 C343 1.434 . S
C343 C334 1.429 . S
C343 N340 1.350 . S
C343 C342 1.434 . S
C215 C107 1.613 . S
C213 C41 1.609 . S
C224 C8 1.628 . S
C226 C202 1.631 . S
C235 C19 1.729 . S
C237 C118 1.782 . S
C246 C30 1.590 . S
C248 C191 1.603 . S
C259 C102 1.438 . S
C257 C5 1.444 . S
C270 C195 1.794 . S
C268 C18 1.751 . S
C279 C29 1.592 . S
C281 C111 1.712 . S
C290 C40 1.590 . S
C292 C186 1.508 . S
C303 C197 1.398 . S
C301 C16 1.324 . S
C314 C113 1.346 . S
C312 C27 1.288 1_556 S
C325 C184 1.544 . S
C323 C38 1.272 . S
C334 C7 1.492 . S
C336 C100 1.525 . S
