# Generated by pormake.
# Topology zzz, (3,6)-cn, num edge types: 1
# Building blocks:
#     Node 0, Type 0, BuildingBlock: OLANEW_clean_sbu_2, # of connection points: 3
#     Node 1, Type 0, BuildingBlock: OLANEW_clean_sbu_2, # of connection points: 3
#     Node 2, Type 0, BuildingBlock: OLANEW_clean_sbu_2, # of connection points: 3
#     Node 3, Type 0, BuildingBlock: OLANEW_clean_sbu_2, # of connection points: 3
#     Node 4, Type 0, BuildingBlock: OLANEW_clean_sbu_2, # of connection points: 3
#     Node 5, Type 0, BuildingBlock: OLANEW_clean_sbu_2, # of connection points: 3
#     Node 6, Type 0, BuildingBlock: OLANEW_clean_sbu_2, # of connection points: 3
#     Node 7, Type 0, BuildingBlock: OLANEW_clean_sbu_2, # of connection points: 3
#     Node 8, Type 1, BuildingBlock: PAMTUU_clean_sbu_0, # of connection points: 6
#     Node 9, Type 1, BuildingBlock: PAMTUU_clean_sbu_0, # of connection points: 6
#     Node 10, Type 1, BuildingBlock: PAMTUU_clean_sbu_0, # of connection points: 6
#     Node 11, Type 1, BuildingBlock: PAMTUU_clean_sbu_0, # of connection points: 6
#     Edge 12, Type (0, 1), BuildingBlock: UVAHIK_clean_linker_0, # of connection points: 2
#     Edge 13, Type (0, 1), BuildingBlock: UVAHIK_clean_linker_0, # of connection points: 2
#     Edge 14, Type (0, 1), BuildingBlock: UVAHIK_clean_linker_0, # of connection points: 2
#     Edge 15, Type (0, 1), BuildingBlock: UVAHIK_clean_linker_0, # of connection points: 2
#     Edge 16, Type (0, 1), BuildingBlock: UVAHIK_clean_linker_0, # of connection points: 2
#     Edge 17, Type (0, 1), BuildingBlock: UVAHIK_clean_linker_0, # of connection points: 2
#     Edge 18, Type (0, 1), BuildingBlock: UVAHIK_clean_linker_0, # of connection points: 2
#     Edge 19, Type (0, 1), BuildingBlock: UVAHIK_clean_linker_0, # of connection points: 2
#     Edge 20, Type (0, 1), BuildingBlock: UVAHIK_clean_linker_0, # of connection points: 2
#     Edge 21, Type (0, 1), BuildingBlock: UVAHIK_clean_linker_0, # of connection points: 2
#     Edge 22, Type (0, 1), BuildingBlock: UVAHIK_clean_linker_0, # of connection points: 2
#     Edge 23, Type (0, 1), BuildingBlock: UVAHIK_clean_linker_0, # of connection points: 2
#     Edge 24, Type (0, 1), BuildingBlock: UVAHIK_clean_linker_0, # of connection points: 2
#     Edge 25, Type (0, 1), BuildingBlock: UVAHIK_clean_linker_0, # of connection points: 2
#     Edge 26, Type (0, 1), BuildingBlock: UVAHIK_clean_linker_0, # of connection points: 2
#     Edge 27, Type (0, 1), BuildingBlock: UVAHIK_clean_linker_0, # of connection points: 2
#     Edge 28, Type (0, 1), BuildingBlock: UVAHIK_clean_linker_0, # of connection points: 2
#     Edge 29, Type (0, 1), BuildingBlock: UVAHIK_clean_linker_0, # of connection points: 2
#     Edge 30, Type (0, 1), BuildingBlock: UVAHIK_clean_linker_0, # of connection points: 2
#     Edge 31, Type (0, 1), BuildingBlock: UVAHIK_clean_linker_0, # of connection points: 2
#     Edge 32, Type (0, 1), BuildingBlock: UVAHIK_clean_linker_0, # of connection points: 2
#     Edge 33, Type (0, 1), BuildingBlock: UVAHIK_clean_linker_0, # of connection points: 2
#     Edge 34, Type (0, 1), BuildingBlock: UVAHIK_clean_linker_0, # of connection points: 2
#     Edge 35, Type (0, 1), BuildingBlock: UVAHIK_clean_linker_0, # of connection points: 2
# Relax obj value: 0.181
# Max RMSD: 0.207
# Mean RMSD: 0.130
data_MOF--net-zzz--node1-OLANEW_clean_sbu_2--node2-PAMTUU_clean_sbu_0--edge1-UVAHIK_clean_linker_0
_symmetry_space_group_name_H-M    P1
_symmetry_Int_Tables_number       1
_symmetry_cell_setting            triclinic
loop_
_symmetry_equiv_pos_as_xyz
'x, y, z'
_cell_length_a     70.247478
_cell_length_b     72.0393
_cell_length_c     21.740172
_cell_angle_alpha  98.615721
_cell_angle_beta   89.956747
_cell_angle_gamma 91.442066
loop_
_atom_site_label
_atom_site_type_symbol
_atom_site_fract_x
_atom_site_fract_y
_atom_site_fract_z
_atom_type_partial_charge
O0 O 0.74974 0.5455 0.27023 0.0
Cd1 Cd 0.71921 0.55761 0.30835 0.0
O2 O 0.75036 0.52623 0.33931 0.0
Cd3 Cd 0.76612 0.50766 0.38998 0.0
O4 O 0.79221 0.49998 0.4324 0.0
C5 C 0.80664 0.51039 0.42495 0.0
O6 O 0.80466 0.52432 0.39293 0.0
C7 C 0.75804 0.53279 0.29385 0.0
C8 C 0.69075 0.54207 0.22657 0.0
O9 O 0.7007 0.55642 0.21611 0.0
O10 O 0.69402 0.5352 0.2765 0.0
O11 O 0.91152 0.75166 0.10532 0.0
Cd12 Cd 0.89587 0.7258 0.14815 0.0
O13 O 0.92733 0.75564 0.19321 0.0
Cd14 Cd 0.94866 0.76955 0.25859 0.0
O15 O 0.96391 0.79055 0.32409 0.0
C16 C 0.97453 0.80272 0.30335 0.0
O17 O 0.97723 0.80146 0.24313 0.0
C18 C 0.92381 0.76089 0.14115 0.0
C19 C 0.91502 0.69236 0.11744 0.0
O20 O 0.90041 0.69591 0.08626 0.0
O21 O 0.92058 0.70463 0.16316 0.0
O22 O 0.77285 0.95779 0.27701 0.0
Cd23 Cd 0.80212 0.94821 0.32187 0.0
O24 O 0.76909 0.97887 0.35964 0.0
Cd25 Cd 0.751 0.99805 0.41928 0.0
O26 O 0.72421 0.00623 0.46437 0.0
C27 C 0.70972 0.99648 0.44294 0.0
O28 O 0.71197 0.98287 0.39624 0.0
C29 C 0.76322 0.97087 0.30668 0.0
C30 C 0.83304 0.95647 0.25013 0.0
O31 O 0.82367 0.94086 0.23749 0.0
O32 O 0.82791 0.9681 0.29736 0.0
O33 O 0.59814 0.72856 0.87377 0.0
Cd34 Cd 0.6166 0.75809 0.88821 0.0
O35 O 0.59116 0.73104 0.97305 0.0
Cd36 Cd 0.57759 0.72129 0.05355 0.0
O37 O 0.56965 0.70244 0.11961 0.0
C38 C 0.55659 0.68997 0.106 0.0
O39 O 0.54714 0.6894 0.0536 0.0
C40 C 0.59026 0.72178 0.9184 0.0
C41 C 0.59462 0.78989 0.89232 0.0
O42 O 0.59949 0.78041 0.84029 0.0
O43 O 0.59992 0.78419 0.94256 0.0
O44 O 0.27383 0.55059 0.2238 0.0
Cd45 Cd 0.30411 0.55023 0.169 0.0
O46 O 0.2755 0.5199 0.20983 0.0
Cd47 Cd 0.26137 0.49242 0.2065 0.0
O48 O 0.23517 0.47752 0.17363 0.0
C49 C 0.23365 0.47252 0.11527 0.0
O50 O 0.24847 0.47484 0.08001 0.0
C51 C 0.2667 0.5347 0.23117 0.0
C52 C 0.33299 0.54318 0.24894 0.0
O53 O 0.32939 0.56002 0.24103 0.0
O54 O 0.32316 0.52969 0.21816 0.0
O55 O 0.04928 0.24122 0.26413 0.0
Cd56 Cd 0.0625 0.26323 0.19923 0.0
O57 O 0.07516 0.24407 0.32195 0.0
Cd58 Cd 0.09157 0.25211 0.24471 0.0
O59 O 0.09553 0.22855 0.17087 0.0
C60 C 0.10037 0.21372 0.19129 0.0
O61 O 0.10429 0.21477 0.25084 0.0
C62 C 0.05802 0.23817 0.31275 0.0
C63 C 0.06151 0.29868 0.27054 0.0
O64 O 0.04827 0.29303 0.23115 0.0
O65 O 0.07552 0.28787 0.27444 0.0
O66 O 0.24727 0.95176 0.1918 0.0
Cd67 Cd 0.21435 0.94457 0.16006 0.0
O68 O 0.23954 0.98093 0.22528 0.0
Cd69 Cd 0.2501 0.00952 0.2572 0.0
O70 O 0.27808 0.0198 0.23289 0.0
C71 C 0.28143 0.01623 0.17496 0.0
O72 O 0.26765 0.00884 0.13754 0.0
C73 C 0.25195 0.96822 0.21778 0.0
C74 C 0.19026 0.95939 0.25561 0.0
O75 O 0.19745 0.94317 0.25456 0.0
O76 O 0.19425 0.96854 0.21084 0.0
O77 O 0.41309 0.26599 0.65603 0.0
Cd78 Cd 0.39268 0.23774 0.6415 0.0
O79 O 0.40418 0.27114 0.56347 0.0
Cd80 Cd 0.40623 0.28769 0.48717 0.0
O81 O 0.41209 0.30864 0.42647 0.0
C82 C 0.42811 0.31736 0.42999 0.0
O83 O 0.44093 0.31325 0.46946 0.0
C84 C 0.41361 0.27624 0.61332 0.0
C85 C 0.41097 0.20621 0.66974 0.0
O86 O 0.41093 0.21011 0.61412 0.0
O87 O 0.40247 0.21731 0.71201 0.0
Tb88 Tb 0.00977 0.01481 0.76143 0.0
Tb89 Tb 0.03565 0.99111 0.84926 0.0
C90 C 0.99269 0.99709 0.87199 0.0
C91 C 0.99373 0.05169 0.67265 0.0
C92 C 0.00024 0.08526 0.62292 0.0
C93 C 0.98912 0.07047 0.59025 0.0
C94 C 0.98588 0.05384 0.61502 0.0
C95 C 0.0049 0.06635 0.70529 0.0
C96 C 0.00804 0.083 0.68085 0.0
C97 C 0.99027 0.03411 0.69813 0.0
O98 O 0.03002 0.03502 0.8092 0.0
O99 O 0.03623 0.02036 0.89358 0.0
O100 O 0.05656 0.00248 0.79087 0.0
O101 O 0.03662 0.00926 0.71294 0.0
O102 O 0.04017 0.98528 0.93986 0.0
O103 O 0.0562 0.97136 0.86248 0.0
O104 O 0.02814 0.9717 0.76616 0.0
O105 O 0.00152 0.98554 0.73318 0.0
O106 O 0.99392 0.01232 0.84593 0.0
O107 O 0.00598 0.98462 0.86387 0.0
C108 C 0.03655 0.03539 0.86584 0.0
O109 O 0.00015 0.0198 0.67378 0.0
O110 O 0.98964 0.03562 0.75858 0.0
C111 C 0.05367 0.00648 0.73457 0.0
C112 C 0.04444 0.95309 0.93573 0.0
C113 C 0.02872 0.91967 0.96959 0.0
C114 C 0.04324 0.9298 0.0058 0.0
C115 C 0.05107 0.94639 0.98889 0.0
C116 C 0.03004 0.94296 0.89947 0.0
C117 C 0.02233 0.92639 0.91598 0.0
C118 C 0.05115 0.97131 0.92025 0.0
C119 C 0.0127 0.97113 0.73181 0.0
H120 H 0.98315 0.0716 0.5451 0.0
H121 H 0.97731 0.04262 0.58902 0.0
H122 H 0.01114 0.06498 0.74987 0.0
H123 H 0.01644 0.09417 0.70772 0.0
H124 H 0.04848 0.92492 0.04725 0.0
H125 H 0.06201 0.95416 0.01782 0.0
H126 H 0.02442 0.94813 0.85905 0.0
H127 H 0.01093 0.91915 0.88777 0.0
Tb128 Tb 0.48867 0.98989 0.76461 0.0
Tb129 Tb 0.50925 0.01044 0.89509 0.0
C130 C 0.50978 0.96697 0.85461 0.0
C131 C 0.45799 0.97756 0.62194 0.0
C132 C 0.42854 0.98301 0.53892 0.0
C133 C 0.43807 0.96588 0.53276 0.0
C134 C 0.45266 0.96322 0.57386 0.0
C135 C 0.44861 0.99471 0.6286 0.0
C136 C 0.43397 0.99741 0.58737 0.0
C137 C 0.47344 0.97429 0.66408 0.0
O138 O 0.4656 0.0002 0.82569 0.0
O139 O 0.48094 0.00102 0.91939 0.0
O140 O 0.49158 0.0316 0.86458 0.0
O141 O 0.49015 0.01988 0.7602 0.0
O142 O 0.51497 0.01002 0.98957 0.0
O143 O 0.52578 0.03261 0.94361 0.0
O144 O 0.52896 0.01326 0.81976 0.0
O145 O 0.51911 0.98757 0.75108 0.0
O146 O 0.49474 0.96783 0.8194 0.0
O147 O 0.51967 0.98206 0.87801 0.0
C148 C 0.46526 0.00094 0.88641 0.0
O149 O 0.48804 0.98592 0.66707 0.0
O150 O 0.46839 0.97072 0.71891 0.0
C151 C 0.48832 0.03372 0.80655 0.0
C152 C 0.54555 0.02192 0.01732 0.0
C153 C 0.58158 0.01507 0.06499 0.0
C154 C 0.56887 0.02702 0.10084 0.0
C155 C 0.55097 0.03038 0.07717 0.0
C156 C 0.55825 0.01022 0.981 0.0
C157 C 0.57611 0.00683 0.00459 0.0
C158 C 0.52644 0.02465 0.99359 0.0
C159 C 0.53189 0.00069 0.77064 0.0
H160 H 0.43403 0.95437 0.49683 0.0
H161 H 0.45974 0.94988 0.56825 0.0
H162 H 0.45261 0.00596 0.66554 0.0
H163 H 0.42702 0.01081 0.59313 0.0
H164 H 0.57258 0.03343 0.14773 0.0
H165 H 0.54127 0.03937 0.10587 0.0
H166 H 0.55427 0.00357 0.93459 0.0
H167 H 0.58566 0.99779 0.97545 0.0
Tb168 Tb 0.49063 0.49819 0.81251 0.0
Tb169 Tb 0.51845 0.49678 0.68864 0.0
C170 C 0.47635 0.50767 0.68485 0.0
C171 C 0.46728 0.48459 0.95206 0.0
C172 C 0.46262 0.45891 0.037 0.0
C173 C 0.44854 0.47207 0.03085 0.0
C174 C 0.45087 0.48481 0.9887 0.0
C175 C 0.48153 0.47171 0.9586 0.0
C176 C 0.47925 0.45901 0.00094 0.0
C177 C 0.4689 0.49702 0.90459 0.0
O178 O 0.49818 0.46918 0.78563 0.0
O179 O 0.50295 0.46998 0.68189 0.0
O180 O 0.53534 0.48529 0.75671 0.0
O181 O 0.51962 0.49759 0.84624 0.0
O182 O 0.52038 0.49055 0.59128 0.0
O183 O 0.545 0.50044 0.64718 0.0
O184 O 0.52295 0.52452 0.74187 0.0
O185 O 0.49608 0.52752 0.80387 0.0
O186 O 0.47281 0.4981 0.73051 0.0
O187 O 0.49374 0.51261 0.67183 0.0
C188 C 0.49891 0.46069 0.72803 0.0
O189 O 0.48431 0.50754 0.90638 0.0
O190 O 0.46483 0.48912 0.84815 0.0
C191 C 0.53467 0.49012 0.8174 0.0
C192 C 0.54105 0.51199 0.55242 0.0
C193 C 0.54453 0.54043 0.4768 0.0
C194 C 0.54642 0.52144 0.45108 0.0
C195 C 0.54471 0.50733 0.48868 0.0
C196 C 0.53925 0.53091 0.57825 0.0
C197 C 0.54104 0.545 0.5409 0.0
C198 C 0.53782 0.49714 0.59115 0.0
C199 C 0.51129 0.53463 0.77977 0.0
H200 H 0.43567 0.47246 0.05846 0.0
H201 H 0.43972 0.49463 0.98398 0.0
H202 H 0.49422 0.47125 0.93012 0.0
H203 H 0.49023 0.44891 0.00409 0.0
H204 H 0.54925 0.51751 0.40193 0.0
H205 H 0.54598 0.49278 0.4679 0.0
H206 H 0.53617 0.53477 0.62722 0.0
H207 H 0.53921 0.55945 0.56197 0.0
Tb208 Tb 0.02668 0.50533 0.75745 0.0
Tb209 Tb 0.00603 0.47728 0.84567 0.0
C210 C 0.00495 0.52069 0.87847 0.0
C211 C 0.05969 0.5261 0.64978 0.0
C212 C 0.09161 0.52538 0.57082 0.0
C213 C 0.08324 0.5425 0.59482 0.0
C214 C 0.06742 0.54282 0.63385 0.0
C215 C 0.06794 0.50896 0.62632 0.0
C216 C 0.08376 0.5086 0.58702 0.0
C217 C 0.04324 0.52689 0.69162 0.0
O218 O 0.04928 0.48994 0.7928 0.0
O219 O 0.03452 0.48445 0.88251 0.0
O220 O 0.02243 0.45886 0.77846 0.0
O221 O 0.02411 0.47767 0.70151 0.0
O222 O 0.00085 0.47199 0.93661 0.0
O223 O 0.98885 0.45377 0.85764 0.0
O224 O 0.98628 0.47972 0.77058 0.0
O225 O 0.9963 0.50828 0.74589 0.0
O226 O 0.02085 0.52184 0.84752 0.0
O227 O 0.99483 0.50502 0.87287 0.0
C228 C 0.05 0.48566 0.84926 0.0
O229 O 0.02873 0.51588 0.67275 0.0
O230 O 0.04709 0.52669 0.75013 0.0
C231 C 0.02526 0.46118 0.72023 0.0
C232 C 0.96944 0.46149 0.94554 0.0
C233 C 0.93476 0.47082 0.00636 0.0
C234 C 0.94707 0.4582 0.0287 0.0
C235 C 0.96433 0.45363 0.99858 0.0
C236 C 0.95696 0.47365 0.92213 0.0
C237 C 0.93977 0.47822 0.9521 0.0
C238 C 0.98842 0.4586 0.91791 0.0
C239 C 0.98345 0.49464 0.74399 0.0
H240 H 0.08911 0.55571 0.58434 0.0
H241 H 0.06128 0.55619 0.65197 0.0
H242 H 0.06216 0.49589 0.6384 0.0
H243 H 0.08973 0.49517 0.56893 0.0
H244 H 0.94367 0.45238 0.07064 0.0
H245 H 0.97391 0.44438 0.01763 0.0
H246 H 0.96072 0.47998 0.88144 0.0
H247 H 0.93049 0.48774 0.93311 0.0
C248 C 0.17688 0.95923 0.36211 0.0
C249 C 0.17777 0.9673 0.30717 0.0
C250 C 0.16497 0.96654 0.41075 0.0
C251 C 0.12093 0.99143 0.44118 0.0
H252 H 0.13805 0.99964 0.61289 0.0
C253 C 0.06876 0.01548 0.63877 0.0
C254 C 0.07003 0.00664 0.69192 0.0
C255 C 0.0833 0.01381 0.5946 0.0
C256 C 0.13299 0.99727 0.56527 0.0
H257 H 0.16701 0.98944 0.26024 0.0
H258 H 0.14584 0.00197 0.345 0.0
H259 H 0.1608 0.99031 0.52968 0.0
H260 H 0.0878 0.98963 0.74158 0.0
H261 H 0.11284 0.98615 0.66376 0.0
H262 H 0.09302 0.99744 0.47616 0.0
C263 C 0.15447 0.99005 0.35034 0.0
C264 C 0.14604 0.99201 0.51769 0.0
C265 C 0.1666 0.98291 0.30199 0.0
C266 C 0.08646 0.9967 0.70125 0.0
C267 C 0.10088 0.99479 0.65662 0.0
C268 C 0.10783 0.99644 0.48871 0.0
C269 C 0.15353 0.98191 0.40511 0.0
C270 C 0.14008 0.98884 0.45528 0.0
C271 C 0.09931 0.003 0.60207 0.0
C272 C 0.11363 0.99922 0.55148 0.0
H273 H 0.18538 0.94724 0.36759 0.0
H274 H 0.16436 0.95989 0.45224 0.0
H275 H 0.11593 0.98886 0.39346 0.0
H276 H 0.05636 0.02344 0.6307 0.0
H277 H 0.08181 0.02072 0.55401 0.0
C278 C 0.42176 0.18597 0.7465 0.0
C279 C 0.42026 0.18921 0.68456 0.0
C280 C 0.43006 0.16967 0.76041 0.0
C281 C 0.461 0.13063 0.69446 0.0
H282 H 0.4378 0.10552 0.82255 0.0
C283 C 0.47938 0.05526 0.7313 0.0
C284 C 0.4817 0.05205 0.79305 0.0
C285 C 0.47267 0.07239 0.71863 0.0
C286 C 0.44456 0.11248 0.78713 0.0
H287 H 0.42638 0.17791 0.58863 0.0
H288 H 0.44049 0.14929 0.61273 0.0
H289 H 0.42462 0.13465 0.79927 0.0
H290 H 0.47888 0.06442 0.88992 0.0
H291 H 0.46714 0.09427 0.86764 0.0
H292 H 0.48074 0.10819 0.68173 0.0
C293 C 0.43558 0.1595 0.65073 0.0
C294 C 0.43704 0.1292 0.77384 0.0
C295 C 0.42739 0.17587 0.63686 0.0
C296 C 0.47727 0.0664 0.84181 0.0
C297 C 0.47044 0.08348 0.82911 0.0
C298 C 0.46845 0.11384 0.70752 0.0
C299 C 0.43693 0.15615 0.71266 0.0
C300 C 0.44516 0.13849 0.72732 0.0
C301 C 0.468 0.08663 0.7674 0.0
C302 C 0.4603 0.10458 0.75397 0.0
H303 H 0.41651 0.19603 0.78437 0.0
H304 H 0.43116 0.1677 0.80869 0.0
H305 H 0.4678 0.13756 0.65903 0.0
H306 H 0.48264 0.04451 0.6926 0.0
H307 H 0.47076 0.07435 0.6706 0.0
C308 C 0.36175 0.55317 0.31441 0.0
C309 C 0.34773 0.53946 0.29353 0.0
C310 C 0.37543 0.54979 0.35772 0.0
C311 C 0.39657 0.51119 0.42973 0.0
H312 H 0.41491 0.55255 0.55206 0.0
C313 C 0.44353 0.50157 0.64071 0.0
C314 C 0.46063 0.51223 0.64518 0.0
C315 C 0.42921 0.50508 0.59967 0.0
C316 C 0.40991 0.54091 0.51803 0.0
H317 H 0.33686 0.51152 0.30194 0.0
H318 H 0.36018 0.50587 0.37926 0.0
H319 H 0.39087 0.55811 0.4765 0.0
H320 H 0.47596 0.53528 0.61194 0.0
H321 H 0.45068 0.5417 0.54142 0.0
H322 H 0.41532 0.49396 0.47297 0.0
C323 C 0.36108 0.51903 0.36092 0.0
C324 C 0.39625 0.54408 0.47439 0.0
C325 C 0.34762 0.5223 0.31679 0.0
C326 C 0.46294 0.52681 0.60928 0.0
C327 C 0.44848 0.53054 0.56919 0.0
C328 C 0.40997 0.50798 0.4741 0.0
C329 C 0.37518 0.53273 0.38202 0.0
C330 C 0.38949 0.52929 0.42928 0.0
C331 C 0.43162 0.51954 0.56343 0.0
C332 C 0.41684 0.52284 0.51828 0.0
H333 H 0.36226 0.56649 0.29691 0.0
H334 H 0.38628 0.56052 0.3717 0.0
H335 H 0.39203 0.49952 0.39514 0.0
H336 H 0.44141 0.4902 0.66763 0.0
H337 H 0.41627 0.49649 0.59613 0.0
C338 C 0.04746 0.33036 0.3003 0.0
C339 C 0.06009 0.31659 0.31308 0.0
C340 C 0.04513 0.34668 0.34307 0.0
C341 C 0.04632 0.36333 0.50774 0.0
H342 H 0.05093 0.41342 0.46357 0.0
C343 C 0.03851 0.4291 0.69228 0.0
C344 C 0.03001 0.44483 0.67392 0.0
C345 C 0.0432 0.41377 0.64802 0.0
C346 C 0.04927 0.39954 0.47659 0.0
H347 H 0.08033 0.30919 0.38017 0.0
H348 H 0.07584 0.33751 0.45551 0.0
H349 H 0.05707 0.38623 0.38542 0.0
H350 H 0.01944 0.45676 0.59516 0.0
H351 H 0.02673 0.42978 0.51843 0.0
H352 H 0.0377 0.37632 0.59783 0.0
C353 C 0.06793 0.33571 0.41216 0.0
C354 C 0.05292 0.38401 0.43183 0.0
C355 C 0.07056 0.31959 0.36892 0.0
C356 C 0.02614 0.44489 0.61061 0.0
C357 C 0.03048 0.42943 0.56652 0.0
C358 C 0.0423 0.37882 0.55219 0.0
C359 C 0.05509 0.3493 0.39979 0.0
C360 C 0.05152 0.3658 0.44713 0.0
C361 C 0.03915 0.41367 0.5845 0.0
C362 C 0.04372 0.39716 0.53729 0.0
H363 H 0.03923 0.32843 0.25761 0.0
H364 H 0.03508 0.35696 0.33274 0.0
H365 H 0.04493 0.34937 0.52034 0.0
H366 H 0.04183 0.42877 0.74075 0.0
H367 H 0.0502 0.4021 0.66369 0.0
C368 C 0.86111 0.97675 0.22962 0.0
C369 C 0.84917 0.96098 0.21085 0.0
C370 C 0.87633 0.98099 0.19229 0.0
C371 C 0.90689 0.95943 0.06353 0.0
H372 H 0.92047 0.01124 0.05107 0.0
C373 C 0.97638 0.97912 0.94726 0.0
C374 C 0.97607 0.99363 0.9107 0.0
C375 C 0.96072 0.97556 0.98356 0.0
C376 C 0.91675 0.99669 0.0535 0.0
H377 H 0.84362 0.93747 0.13781 0.0
H378 H 0.86984 0.9451 0.07205 0.0
H379 H 0.89312 0.00422 0.11341 0.0
H380 H 0.95908 0.01579 0.88354 0.0
H381 H 0.93148 0.00927 0.94591 0.0
H382 H 0.93008 0.95183 0.00211 0.0
C383 C 0.86777 0.95396 0.11625 0.0
C384 C 0.90122 0.99267 0.08997 0.0
C385 C 0.85267 0.94963 0.15382 0.0
C386 C 0.95977 0.00456 0.91141 0.0
C387 C 0.944 0.00088 0.94741 0.0
C388 C 0.9223 0.96343 0.02675 0.0
C389 C 0.87984 0.96964 0.13512 0.0
C390 C 0.89616 0.97399 0.09565 0.0
C391 C 0.94428 0.98628 0.98376 0.0
C392 C 0.92751 0.98211 0.02161 0.0
H393 H 0.85881 0.98573 0.27346 0.0
H394 H 0.88551 0.99301 0.20874 0.0
H395 H 0.90357 0.94489 0.06738 0.0
H396 H 0.98879 0.97054 0.94827 0.0
H397 H 0.96161 0.96447 0.01195 0.0
C398 C 0.57394 0.81091 0.84111 0.0
C399 C 0.58373 0.80726 0.89417 0.0
C400 C 0.56438 0.82773 0.84191 0.0
C401 C 0.56614 0.87643 0.91283 0.0
H402 H 0.51401 0.87787 0.85569 0.0
C403 C 0.52884 0.94686 0.91464 0.0
C404 C 0.51646 0.9484 0.86509 0.0
C405 C 0.53582 0.9294 0.92293 0.0
C406 C 0.52866 0.87777 0.87099 0.0
H407 H 0.59108 0.81825 0.98981 0.0
H408 H 0.57474 0.84789 0.99056 0.0
H409 H 0.5285 0.84767 0.86021 0.0
H410 H 0.50166 0.93289 0.78533 0.0
H411 H 0.51439 0.90263 0.79806 0.0
H412 H 0.56681 0.90634 0.92095 0.0
C413 C 0.57435 0.83763 0.94867 0.0
C414 C 0.53688 0.86045 0.87392 0.0
C415 C 0.58362 0.82066 0.94827 0.0
C416 C 0.51105 0.93213 0.82432 0.0
C417 C 0.51829 0.91472 0.83193 0.0
C418 C 0.55805 0.89373 0.90888 0.0
C419 C 0.56473 0.84134 0.89541 0.0
C420 C 0.55571 0.85964 0.89469 0.0
C421 C 0.53087 0.91311 0.88117 0.0
C422 C 0.53921 0.89466 0.88766 0.0
H423 H 0.57374 0.80083 0.79881 0.0
H424 H 0.55716 0.83033 0.80014 0.0
H425 H 0.58077 0.87615 0.92831 0.0
H426 H 0.53314 0.95915 0.94715 0.0
H427 H 0.54512 0.92872 0.96218 0.0
C428 C 0.66081 0.52294 0.20092 0.0
C429 C 0.67609 0.53362 0.18177 0.0
C430 C 0.64666 0.51546 0.15852 0.0
C431 C 0.62704 0.52128 0.00373 0.0
H432 H 0.59921 0.47515 0.02088 0.0
C433 C 0.57007 0.48988 0.82702 0.0
C434 C 0.55203 0.48883 0.85445 0.0
C435 C 0.58645 0.49213 0.86402 0.0
C436 C 0.60697 0.488 0.01555 0.0
H437 H 0.68906 0.54416 0.103 0.0
H438 H 0.66501 0.5304 0.02845 0.0
H439 H 0.62589 0.48558 0.09079 0.0
H440 H 0.53705 0.48782 0.94122 0.0
H441 H 0.56581 0.49131 0.00567 0.0
H442 H 0.60826 0.52345 0.92784 0.0
C443 C 0.66339 0.5284 0.07655 0.0
C444 C 0.62214 0.49409 0.05584 0.0
C445 C 0.67727 0.53622 0.11921 0.0
C446 C 0.55078 0.4887 0.91892 0.0
C447 C 0.5672 0.4906 0.95574 0.0
C448 C 0.61218 0.51499 0.96284 0.0
C449 C 0.64771 0.51816 0.09575 0.0
C450 C 0.63223 0.51097 0.05096 0.0
C451 C 0.58509 0.49298 0.9288 0.0
C452 C 0.60189 0.49843 0.96882 0.0
H453 H 0.65954 0.52078 0.24901 0.0
H454 H 0.63469 0.50795 0.17546 0.0
H455 H 0.63407 0.53455 0.99922 0.0
H456 H 0.57147 0.49009 0.7775 0.0
H457 H 0.60014 0.49387 0.84231 0.0
C458 C 0.94427 0.67331 0.11875 0.0
C459 C 0.92517 0.67462 0.101 0.0
C460 C 0.95399 0.65663 0.10173 0.0
C461 C 0.94766 0.60625 0.06361 0.0
H462 H 0.99267 0.60726 0.96072 0.0
C463 C 0.97769 0.53868 0.92832 0.0
C464 C 0.99723 0.53779 0.91496 0.0
C465 C 0.96994 0.5553 0.95801 0.0
C466 C 0.9804 0.60669 0.99061 0.0
H467 H 0.90114 0.65948 0.0529 0.0
H468 H 0.91803 0.63013 0.02482 0.0
H469 H 0.97726 0.63653 0.00082 0.0
H470 H 0.02415 0.55331 0.92472 0.0
H471 H 0.01081 0.58211 0.97923 0.0
H472 H 0.95086 0.57658 0.05506 0.0
C473 C 0.92547 0.64209 0.05122 0.0
C474 C 0.97153 0.62349 0.01316 0.0
C475 C 0.91587 0.65887 0.06698 0.0
C476 C 0.009 0.55365 0.93395 0.0
C477 C 0.00129 0.5702 0.96478 0.0
C478 C 0.95674 0.58948 0.04219 0.0
C479 C 0.94463 0.64089 0.06803 0.0
C480 C 0.9549 0.62334 0.0488 0.0
C481 C 0.98158 0.57136 0.97623 0.0
C482 C 0.973 0.58941 0.00422 0.0
H483 H 0.95179 0.68526 0.14484 0.0
H484 H 0.96878 0.65597 0.11517 0.0
H485 H 0.93494 0.60587 0.09164 0.0
H486 H 0.9682 0.52674 0.91381 0.0
H487 H 0.95467 0.55564 0.96469 0.0
C488 C 0.03004 0.2198 0.34592 0.0
C489 C 0.04901 0.2263 0.35515 0.0
C490 C 0.02229 0.20679 0.38126 0.0
C491 C 0.0307 0.1841 0.52167 0.0
H492 H 0.00219 0.14236 0.42836 0.0
C493 C 0.02187 0.11204 0.60342 0.0
C494 C 0.0039 0.1029 0.59652 0.0
C495 C 0.0254 0.12855 0.57849 0.0
C496 C 0.00988 0.15405 0.45529 0.0
H497 H 0.07447 0.2248 0.4105 0.0
H498 H 0.06112 0.20193 0.47109 0.0
H499 H 0.01162 0.16915 0.37796 0.0
H500 H 0.97546 0.10421 0.5587 0.0
H501 H 0.98181 0.13288 0.51399 0.0
H502 H 0.02952 0.16857 0.59831 0.0
C503 C 0.05209 0.20705 0.4373 0.0
C504 C 0.01525 0.16945 0.42651 0.0
C505 C 0.05979 0.22012 0.40224 0.0
C506 C 0.98954 0.1107 0.56404 0.0
C507 C 0.99314 0.12716 0.53866 0.0
C508 C 0.02545 0.16864 0.55029 0.0
C509 C 0.03337 0.19994 0.4264 0.0
C510 C 0.026 0.18453 0.45904 0.0
C511 C 0.01111 0.13624 0.54566 0.0
C512 C 0.01526 0.15332 0.51707 0.0
H513 H 0.02131 0.22439 0.31029 0.0
H514 H 0.00772 0.20186 0.37243 0.0
H515 H 0.03866 0.19563 0.54843 0.0
H516 H 0.03337 0.10625 0.62707 0.0
H517 H 0.03949 0.13505 0.58365 0.0
C518 C 0.28722 0.96551 0.20377 0.0
C519 C 0.27165 0.97253 0.23968 0.0
C520 C 0.30583 0.96925 0.22609 0.0
C521 C 0.3343 -0.0003 0.34801 0.0
H522 H 0.36756 0.95716 0.33433 0.0
C523 C 0.39589 0.99429 0.5187 0.0
C524 C 0.41263 0.98544 0.49595 0.0
C525 C 0.38029 0.99508 0.47935 0.0
C526 C 0.35862 0.9693 0.33766 0.0
H527 H 0.26316 0.98837 0.32753 0.0
H528 H 0.29547 0.99478 0.36677 0.0
H529 H 0.33731 0.95415 0.27876 0.0
H530 H 0.42646 0.97147 0.41306 0.0
H531 H 0.39917 0.97272 0.34458 0.0
H532 H 0.35537 0.01462 0.40879 0.0
C533 C 0.29348 0.98693 0.32061 0.0
C534 C 0.34126 0.96758 0.30569 0.0
C535 C 0.27496 0.98323 0.29825 0.0
C536 C 0.41364 0.97804 0.43239 0.0
C537 C 0.39803 0.97879 0.39309 0.0
C538 C 0.35163 0.0014 0.38014 0.0
C539 C 0.30916 0.97989 0.28504 0.0
C540 C 0.32868 0.9826 0.31176 0.0
C541 C 0.38106 0.98703 0.41636 0.0
C542 C 0.36378 0.98607 0.37649 0.0
H543 H 0.28499 0.95718 0.15845 0.0
H544 H 0.31761 0.96373 0.19738 0.0
H545 H 0.32509 0.01166 0.35268 0.0
H546 H 0.39453 -6e-05 0.5675 0.0
H547 H 0.36734 0.00131 0.49895 0.0
C548 C 0.44284 0.29519 0.65007 0.0
C549 C 0.4248 0.29402 0.62192 0.0
C550 C 0.45335 0.31215 0.65815 0.0
C551 C 0.45601 0.35883 0.60455 0.0
H552 H 0.4832 0.37406 0.75971 0.0
C553 C 0.49618 0.43035 0.65458 0.0
C554 C 0.49401 0.44038 0.71468 0.0
C555 C 0.49033 0.41147 0.64131 0.0
C556 C 0.47562 0.37007 0.71621 0.0
H557 H 0.40306 0.30978 0.58356 0.0
H558 H 0.42119 0.33935 0.59799 0.0
H559 H 0.46749 0.34324 0.74007 0.0
H560 H 0.48431 0.43832 0.80832 0.0
H561 H 0.47371 0.40569 0.7849 0.0
H562 H 0.46327 0.38599 0.58199 0.0
C563 C 0.42763 0.3271 0.61176 0.0
C564 C 0.46681 0.35227 0.70458 0.0
C565 C 0.41723 0.31015 0.60335 0.0
C566 C 0.48627 0.43101 0.76154 0.0
C567 C 0.4803 0.4122 0.74817 0.0
C568 C 0.46469 0.37667 0.61635 0.0
C569 C 0.44586 0.32831 0.63898 0.0
C570 C 0.45661 0.34656 0.64908 0.0
C571 C 0.48204 0.40224 0.68773 0.0
C572 C 0.47434 0.38264 0.6728 0.0
H573 H 0.44891 0.28293 0.66509 0.0
H574 H 0.46738 0.31256 0.67897 0.0
H575 H 0.44856 0.35475 0.56079 0.0
H576 H 0.50222 0.43711 0.61753 0.0
H577 H 0.49218 0.40415 0.59451 0.0
C578 C 0.24469 0.5197 0.30055 0.0
C579 C 0.24809 0.53341 0.26203 0.0
C580 C 0.22713 0.51841 0.32997 0.0
C581 C 0.18474 0.54602 0.38026 0.0
H582 H 0.16252 0.4972 0.39708 0.0
C583 C 0.11016 0.53745 0.48546 0.0
C584 C 0.10863 0.52519 0.52997 0.0
C585 C 0.12654 0.53797 0.44922 0.0
C586 C 0.16862 0.51093 0.39306 0.0
H587 H 0.23602 0.5568 0.22495 0.0
H588 H 0.20516 0.55446 0.27574 0.0
H589 H 0.19222 0.49918 0.33986 0.0
H590 H 0.12315 0.5037 0.57064 0.0
H591 H 0.15164 0.50447 0.5068 0.0
H592 H 0.1611 0.55774 0.4334 0.0
C593 C 0.21609 0.54474 0.28355 0.0
C594 C 0.18565 0.51208 0.36039 0.0
C595 C 0.23372 0.54605 0.2543 0.0
C596 C 0.12373 0.51314 0.53627 0.0
C597 C 0.14007 0.51359 0.49976 0.0
C598 C 0.16766 0.54486 0.41261 0.0
C599 C 0.21258 0.53088 0.32173 0.0
C600 C 0.19402 0.52964 0.35407 0.0
C601 C 0.14174 0.52616 0.45631 0.0
C602 C 0.15949 0.52731 0.4198 0.0
H603 H 0.25576 0.51021 0.30913 0.0
H604 H 0.22512 0.50789 0.36026 0.0
H605 H 0.19091 0.55978 0.37717 0.0
H606 H 0.09867 0.54667 0.47849 0.0
H607 H 0.12729 0.54759 0.41543 0.0
C608 C 0.93979 0.77728 0.06083 0.0
C609 C 0.93384 0.77741 0.12254 0.0
C610 C 0.94995 0.79268 0.04386 0.0
C611 C 0.98003 0.8333 0.11135 0.0
H612 H 0.97039 0.85138 0.95539 0.0
C613 C 0.01423 0.90219 0.05052 0.0
C614 C 0.01959 0.90256 0.98842 0.0
C615 C 0.00419 0.88668 0.06712 0.0
C616 C 0.97345 0.84635 0.99876 0.0
H617 H 0.9324 0.79423 0.21366 0.0
H618 H 0.94992 0.82122 0.184 0.0
H619 H 0.95141 0.82507 0.98306 0.0
H620 H 0.01938 0.8866 0.89557 0.0
H621 H 0.0021 0.85947 0.92457 0.0
H622 H 0.00212 0.85449 0.12701 0.0
C623 C 0.94741 0.80896 0.14925 0.0
C624 C 0.96253 0.8313 0.01464 0.0
C625 C 0.93745 0.7935 0.16631 0.0
C626 C 0.01519 0.88686 0.94365 0.0
C627 C 0.00522 0.87134 0.96025 0.0
C628 C 0.99099 0.84832 0.09541 0.0
C629 C 0.95411 0.80859 0.08817 0.0
C630 C 0.96566 0.82462 0.07117 0.0
C631 C -0.00065 0.87116 0.02201 0.0
C632 C 0.98784 0.85504 0.0389 0.0
H633 H 0.93703 0.76507 0.02611 0.0
H634 H 0.95492 0.79194 0.99641 0.0
H635 H 0.98301 0.82827 0.15477 0.0
H636 H 0.01721 0.91417 0.08593 0.0
H637 H -0.00029 0.88712 0.11498 0.0
C638 C 0.73322 0.96191 0.2469 0.0
C639 C 0.74488 0.97585 0.28121 0.0
C640 C 0.7157 0.96647 0.22355 0.0
C641 C 0.67873 0.00223 0.24592 0.0
H642 H 0.66321 0.98015 0.07925 0.0
C643 C 0.6115 0.02517 0.12576 0.0
C644 C 0.60033 0.0109 0.09073 0.0
C645 C 0.6292 0.02117 0.14943 0.0
C646 C 0.66723 0.98628 0.12614 0.0
H647 H 0.74796 0.00566 0.31456 0.0
H648 H 0.71722 0.01364 0.2744 0.0
H649 H 0.69403 0.97266 0.11923 0.0
H650 H 0.59879 0.98115 0.05463 0.0
H651 H 0.62959 0.97419 0.09586 0.0
H652 H 0.65186 0.01579 0.25288 0.0
C653 C 0.7214 0.9991 0.26695 0.0
C654 C 0.6849 0.98199 0.14902 0.0
C655 C 0.73894 0.99453 0.29022 0.0
C656 C 0.6072 0.99254 0.08039 0.0
C657 C 0.62486 0.98854 0.10405 0.0
C658 C 0.66102 0.00651 0.22304 0.0
C659 C 0.70954 0.9851 0.23362 0.0
C660 C 0.69083 0.98988 0.20919 0.0
C661 C 0.63612 0.00282 0.13864 0.0
C662 C 0.65504 0.99853 0.16292 0.0
H663 H 0.73751 0.94741 0.23905 0.0
H664 H 0.70683 0.95534 0.19844 0.0
H665 H 0.68279 0.00831 0.29283 0.0
H666 H 0.60672 0.0395 0.13395 0.0
H667 H 0.63762 0.03253 0.17523 0.0
C668 C 0.58076 0.69071 0.94964 0.0
C669 C 0.58035 0.70324 0.90601 0.0
C670 C 0.57163 0.67308 0.93701 0.0
C671 C 0.55883 0.63651 0.81196 0.0
H672 H 0.52042 0.6202 0.92182 0.0
C673 C 0.52039 0.56517 0.74694 0.0
C674 C 0.51563 0.55486 0.79474 0.0
C675 C 0.52643 0.58393 0.76081 0.0
C676 C 0.53131 0.62436 0.89103 0.0
H677 H 0.57085 0.70683 0.81378 0.0
H678 H 0.55531 0.67574 0.79105 0.0
H679 H 0.53526 0.65146 0.94657 0.0
H680 H 0.51304 0.55587 0.89427 0.0
H681 H 0.52459 0.58839 0.91926 0.0
H682 H 0.55592 0.60935 0.75808 0.0
C683 C 0.5623 0.67982 0.83561 0.0
C684 C 0.53969 0.64232 0.90512 0.0
C685 C 0.57118 0.69755 0.84862 0.0
C686 C 0.51652 0.56368 0.85669 0.0
C687 C 0.52307 0.58235 0.87081 0.0
C688 C 0.55081 0.61843 0.79859 0.0
C689 C 0.56235 0.6675 0.87988 0.0
C690 C 0.55342 0.64855 0.86543 0.0
C691 C 0.52843 0.59266 0.82301 0.0
C692 C 0.53682 0.61209 0.83762 0.0
H693 H 0.58864 0.69421 0.99267 0.0
H694 H 0.57224 0.6636 0.9712 0.0
H695 H 0.5696 0.64094 0.78116 0.0
H696 H 0.5195 0.55868 0.69873 0.0
H697 H 0.52974 0.59147 0.7225 0.0
C698 C 0.78161 0.50737 0.26583 0.0
C699 C 0.77676 0.52631 0.26961 0.0
C700 C 0.79911 0.50123 0.24082 0.0
C701 C 0.83645 0.51376 0.1344 0.0
H702 H 0.86684 0.47845 0.20751 0.0
C703 C 0.91198 0.49582 0.04796 0.0
C704 C 0.91708 0.47687 0.04041 0.0
C705 C 0.89517 0.50162 0.07836 0.0
C706 C 0.85841 0.48816 0.18622 0.0
H707 H 0.78623 0.55362 0.24971 0.0
H708 H 0.81681 0.54296 0.20623 0.0
H709 H 0.83694 0.48918 0.25675 0.0
H710 H 0.90862 0.44919 0.05981 0.0
H711 H 0.87912 0.45934 0.11295 0.0
H712 H 0.85776 0.51276 0.06386 0.0
C713 C 0.80711 0.53282 0.22241 0.0
C714 C 0.8413 0.49431 0.21442 0.0
C715 C 0.78964 0.53895 0.24747 0.0
C716 C 0.90514 0.46391 0.06522 0.0
C717 C 0.88827 0.46973 0.0957 0.0
C718 C 0.8535 0.50763 0.10629 0.0
C719 C 0.81199 0.51387 0.2184 0.0
C720 C 0.83018 0.50724 0.1889 0.0
C721 C 0.88301 0.48863 0.10204 0.0
C722 C 0.86474 0.49483 0.13196 0.0
H723 H 0.77167 0.49719 0.28051 0.0
H724 H 0.80229 0.48648 0.23737 0.0
H725 H 0.82803 0.52342 0.11282 0.0
H726 H 0.92108 0.50625 0.0307 0.0
H727 H 0.89176 0.51635 0.08362 0.0
C728 C 0.10276 0.17881 0.17706 0.0
C729 C 0.09861 0.19513 0.15191 0.0
C730 C 0.09852 0.16108 0.14381 0.0
C731 C 0.08624 0.1353 0.98844 0.0
H732 H 0.05896 0.10162 0.08308 0.0
C733 C 0.04458 0.06963 0.87056 0.0
C734 C 0.04488 0.05326 0.89856 0.0
C735 C 0.05256 0.08649 0.90067 0.0
C736 C 0.06682 0.11069 0.05611 0.0
H737 H 0.08773 0.20561 0.07066 0.0
H738 H 0.08031 0.17457 0.01252 0.0
H739 H 0.07123 0.13174 0.13553 0.0
H740 H 0.05404 0.04178 0.9801 0.0
H741 H 0.06823 0.07119 0.03233 0.0
H742 H 0.08174 0.11426 0.90889 0.0
C743 C 0.08688 0.17553 0.05798 0.0
C744 C 0.07385 0.12798 0.08619 0.0
C745 C 0.09109 0.19331 0.09135 0.0
C746 C 0.05344 0.05415 0.95736 0.0
C747 C 0.06152 0.07103 0.98741 0.0
C748 C 0.07928 0.11795 0.95835 0.0
C749 C 0.09008 0.15925 0.0846 0.0
C750 C 0.08353 0.14053 0.05265 0.0
C751 C 0.06115 0.08741 0.95943 0.0
C752 C 0.06934 0.1055 0.99175 0.0
H753 H 0.1087 0.17969 0.2234 0.0
H754 H 0.10148 0.14878 0.16506 0.0
H755 H 0.09381 0.1446 0.96151 0.0
H756 H 0.03812 0.0695 0.82531 0.0
H757 H 0.05173 0.09889 0.8782 0.0
C758 C 0.31681 0.01975 0.19005 0.0
C759 C 0.30087 0.01809 0.15037 0.0
C760 C 0.33523 0.0195 0.16543 0.0
C761 C 0.36217 0.02588 0.02339 0.0
H762 H 0.39855 0.99301 0.08284 0.0
C763 C 0.42973 0.00332 0.88564 0.0
C764 C 0.44676 0.00281 0.91918 0.0
C765 C 0.41238 0.00599 0.91671 0.0
C766 C 0.38865 0.00244 0.06626 0.0
H767 H 0.29169 0.01539 0.05416 0.0
H768 H 0.32369 0.0151 0.01139 0.0
H769 H 0.36761 0.9973 0.13349 0.0
H770 H 0.45883 0.00449 0.01184 0.0
H771 H 0.42856 0.00927 0.06592 0.0
H772 H 0.38307 0.0309 0.95582 0.0
C773 C 0.32204 0.01667 0.06143 0.0
C774 C 0.37095 0.00492 0.09536 0.0
C775 C 0.30369 0.01674 0.08594 0.0
C776 C 0.44599 0.00476 0.98448 0.0
C777 C 0.42862 0.00744 0.01555 0.0
C778 C 0.37985 0.02342 0.99439 0.0
C779 C 0.33802 0.01782 0.10076 0.0
C780 C 0.35741 0.01646 0.07364 0.0
C781 C 0.41164 0.00823 0.98204 0.0
C782 C 0.3932 0.01147 0.0149 0.0
H783 H 0.31507 0.02067 0.23991 0.0
H784 H 0.34728 0.02052 0.19692 0.0
H785 H 0.35216 0.0351 0.00625 0.0
H786 H 0.42977 0.00179 0.83531 0.0
H787 H 0.39951 0.0062 0.88946 0.0
C788 C 0.41849 0.33638 0.34824 0.0
C789 C 0.43223 0.33196 0.39031 0.0
C790 C 0.42236 0.3501 0.3106 0.0
C791 C 0.45415 0.39098 0.29647 0.0
H792 H 0.43628 0.38261 0.12558 0.0
C793 C 0.47446 0.44014 0.11715 0.0
C794 C 0.45962 0.44467 0.07911 0.0
C795 C 0.47164 0.42644 0.15577 0.0
C796 C 0.44122 0.38522 0.17336 0.0
H797 H 0.4608 0.33861 0.42616 0.0
H798 H 0.46767 0.36238 0.35974 0.0
H799 H 0.43053 0.35853 0.19148 0.0
H800 H 0.43026 0.43827 0.05132 0.0
H801 H 0.42529 0.41452 0.11902 0.0
H802 H 0.46492 0.41768 0.27794 0.0
C803 C 0.4538 0.35537 0.35637 0.0
C804 C 0.4379 0.37144 0.21118 0.0
C805 C 0.44991 0.34165 0.39415 0.0
C806 C 0.44191 0.43524 0.08057 0.0
C807 C 0.43913 0.42149 0.11883 0.0
C808 C 0.45753 0.40475 0.25848 0.0
C809 C 0.44009 0.35972 0.314 0.0
C810 C 0.44418 0.3742 0.27337 0.0
C811 C 0.45397 0.41689 0.15671 0.0
C812 C 0.45096 0.40208 0.19667 0.0
H813 H 0.40468 0.32926 0.34436 0.0
H814 H 0.41135 0.35333 0.27929 0.0
H815 H 0.45898 0.39367 0.34435 0.0
H816 H 0.48823 0.44727 0.11731 0.0
H817 H 0.48338 0.42311 0.18416 0.0
C818 C 0.21286 0.46409 0.02154 0.0
C819 C 0.21476 0.46755 0.08661 0.0
C820 C 0.19486 0.46263 0.99389 0.0
C821 C 0.14326 0.45686 0.02181 0.0
H822 H 0.13866 0.48921 0.89545 0.0
C823 C 0.07053 0.47981 0.93834 0.0
C824 C 0.06863 0.4816 0.87517 0.0
C825 C 0.08823 0.47611 0.96259 0.0
C826 C 0.1397 0.47985 0.92982 0.0
H827 H 0.19924 0.47082 0.17378 0.0
H828 H 0.16778 0.46828 0.12533 0.0
H829 H 0.16971 0.48491 0.93945 0.0
H830 H 0.0837 0.4804 0.78753 0.0
H831 H 0.11439 0.4736 0.82944 0.0
H832 H 0.11315 0.45189 0.01229 0.0
C833 C 0.18023 0.4667 0.09576 0.0
C834 C 0.15753 0.47738 0.95507 0.0
C835 C 0.19826 0.46822 0.12348 0.0
C836 C 0.08471 0.47933 0.83658 0.0
C837 C 0.10234 0.47549 0.86069 0.0
C838 C 0.12538 0.45923 0.99619 0.0
C839 C 0.17838 0.46452 0.03071 0.0
C840 C 0.15951 0.46596 0.00156 0.0
C841 C 0.10437 0.474 0.92409 0.0
C842 C 0.12338 0.47086 0.95015 0.0
H843 H 0.22528 0.46332 0.99177 0.0
H844 H 0.19383 0.4606 0.9436 0.0
H845 H 0.1444 0.44789 0.05734 0.0
H846 H 0.05841 0.4815 0.96932 0.0
H847 H 0.08933 0.47531 0.0118 0.0
C848 C 0.98435 0.8366 0.3232 0.0
C849 C 0.98144 0.81944 0.34562 0.0
C850 C 0.98864 0.85299 0.36431 0.0
C851 C 0.00968 0.87215 0.51115 0.0
H852 H 0.97198 0.91092 0.52222 0.0
C853 C 0.01418 0.93636 0.70313 0.0
C854 C 0.00812 0.95368 0.68923 0.0
C855 C 0.01081 0.91991 0.66143 0.0
C856 C 0.98287 0.90046 0.5191 0.0
H857 H 0.98159 0.80574 0.42785 0.0
H858 H 0.98984 0.83441 0.49958 0.0
H859 H 0.96781 0.8825 0.44662 0.0
H860 H 0.99391 0.96749 0.62089 0.0
H861 H 0.98884 0.93898 0.54653 0.0
H862 H 0.02523 0.89017 0.58146 0.0
C863 C 0.98848 0.83512 0.45035 0.0
C864 C 0.98037 0.88415 0.47601 0.0
C865 C 0.98374 0.8188 0.40945 0.0
C866 C 0.99853 0.95426 0.63302 0.0
C867 C 0.99556 0.93786 0.59055 0.0
C868 C 0.01243 0.88864 0.55331 0.0
C869 C 0.99055 0.85237 0.42818 0.0
C870 C 0.99369 0.86985 0.47208 0.0
C871 C 0.00174 0.92045 0.60403 0.0
C872 C -0.00103 0.90298 0.5583 0.0
H873 H 0.98253 0.83752 0.27429 0.0
H874 H 0.99024 0.86619 0.3464 0.0
H875 H 0.02016 0.86128 0.50848 0.0
H876 H 0.02149 0.93549 0.7464 0.0
H877 H 0.01534 0.90678 0.67445 0.0
C878 C 0.68873 0.01204 0.52775 0.0
C879 C 0.69089 0.99929 0.47271 0.0
C880 C 0.67121 0.01342 0.55844 0.0
C881 C 0.62786 0.98529 0.57591 0.0
H882 H 0.60674 0.03257 0.65076 0.0
C883 C 0.5527 0.98915 0.68035 0.0
C884 C 0.55008 0.00121 0.73661 0.0
C885 C 0.56979 0.98961 0.64782 0.0
C886 C 0.61258 0.01925 0.63069 0.0
H887 H 0.67614 0.97871 0.40495 0.0
H888 H 0.64563 0.98121 0.45829 0.0
H889 H 0.63664 0.03257 0.59315 0.0
H890 H 0.5634 0.02322 0.80294 0.0
H891 H 0.59338 0.02383 0.74643 0.0
H892 H 0.60402 0.97192 0.61372 0.0
C893 C 0.65755 0.98987 0.47836 0.0
C894 C 0.62966 0.01926 0.59763 0.0
C895 C 0.67502 0.9885 0.4477 0.0
C896 C 0.56493 0.01378 0.75959 0.0
C897 C 0.58208 0.01421 0.72706 0.0
C898 C 0.61086 0.98528 0.60902 0.0
C899 C 0.65555 0.00207 0.53465 0.0
C900 C 0.63742 0.00227 0.56964 0.0
C901 C 0.5847 0.00209 0.67088 0.0
C902 C 0.60296 0.00224 0.63656 0.0
H903 H 0.70069 0.02058 0.54809 0.0
H904 H 0.67012 0.02289 0.60189 0.0
H905 H 0.63369 0.97196 0.55597 0.0
H906 H 0.54151 0.97938 0.66105 0.0
H907 H 0.57123 0.9803 0.60418 0.0
C908 C 0.56245 0.67657 0.20394 0.0
C909 C 0.55326 0.6753 0.14599 0.0
C910 C 0.56032 0.66213 0.23992 0.0
C911 C 0.54899 0.61164 0.22635 0.0
H912 H 0.54306 0.62242 0.40538 0.0
C913 C 0.53642 0.55322 0.37902 0.0
C914 C 0.5457 0.55547 0.43701 0.0
C915 C 0.53677 0.56776 0.34299 0.0
C916 C 0.54493 0.61917 0.35551 0.0
H917 H 0.53439 0.658 0.08081 0.0
H918 H 0.53064 0.63282 0.14385 0.0
H919 H 0.54412 0.64815 0.34423 0.0
H920 H 0.56314 0.5745 0.50175 0.0
H921 H 0.56395 0.59976 0.4387 0.0
H922 H 0.55006 0.58268 0.23763 0.0
C923 C 0.53959 0.64494 0.16117 0.0
C924 C 0.54549 0.63392 0.32048 0.0
C925 C 0.54163 0.65943 0.1253 0.0
C926 C 0.5556 0.57244 0.4577 0.0
C927 C 0.55602 0.58694 0.42163 0.0
C928 C 0.5485 0.59688 0.26141 0.0
C929 C 0.54905 0.64606 0.21863 0.0
C930 C 0.54764 0.63033 0.25556 0.0
C931 C 0.54648 0.58484 0.36406 0.0
C932 C 0.54659 0.60047 0.32647 0.0
H933 H 0.57152 0.6886 0.22119 0.0
H934 H 0.56794 0.66334 0.28368 0.0
H935 H 0.55093 0.60844 0.17649 0.0
H936 H 0.52845 0.5404 0.3622 0.0
H937 H 0.52908 0.56575 0.29925 0.0
C938 C 0.82725 0.49325 0.49072 0.0
C939 C 0.82511 0.50761 0.45422 0.0
C940 C 0.84452 0.49132 0.52074 0.0
C941 C 0.88726 0.5186 0.57989 0.0
H942 H 0.9091 0.46986 0.58326 0.0
C943 C 0.96254 0.51065 0.67604 0.0
C944 C 0.9652 0.49614 0.71151 0.0
C945 C 0.94541 0.51184 0.64446 0.0
C946 C 0.90306 0.48355 0.58338 0.0
H947 H 0.83958 0.53084 0.41911 0.0
H948 H 0.86966 0.52741 0.4713 0.0
H949 H 0.87929 0.47202 0.52743 0.0
H950 H 0.95184 0.47166 0.74245 0.0
H951 H 0.92189 0.47392 0.6881 0.0
H952 H 0.91088 0.53016 0.63616 0.0
C953 C 0.85792 0.51782 0.47741 0.0
C954 C 0.88602 0.48478 0.55132 0.0
C955 C 0.8407 0.51972 0.44728 0.0
C956 C 0.95031 0.48294 0.71514 0.0
C957 C 0.93317 0.48417 0.68372 0.0
C958 C 0.90425 0.51737 0.61209 0.0
C959 C 0.85995 0.50374 0.51498 0.0
C960 C 0.87798 0.50233 0.54908 0.0
C961 C 0.93055 0.4986 0.64787 0.0
C962 C 0.91238 0.49985 0.61408 0.0
H963 H 0.8155 0.48368 0.4969 0.0
H964 H 0.84563 0.4804 0.54972 0.0
H965 H 0.88123 0.53229 0.57987 0.0
H966 H 0.97375 0.52099 0.67202 0.0
H967 H 0.94394 0.52298 0.61657 0.0
loop_
_geom_bond_atom_site_label_1
_geom_bond_atom_site_label_2
_geom_bond_distance
_geom_bond_site_symmetry_2
_ccdc_geom_bond_type
O0 Cd1 2.300 . S
O0 C7 1.275 . S
Cd1 O0 2.300 . S
Cd1 O9 2.381 . S
Cd1 O10 2.378 . S
O2 Cd3 2.385 . S
O2 C7 1.255 . S
Cd3 O2 2.385 . S
Cd3 O4 2.317 . S
O4 Cd3 2.317 . S
O4 C5 1.232 . S
C5 O4 1.232 . S
C5 O6 1.218 . S
O6 C5 1.218 . S
C7 O0 1.275 . S
C7 O2 1.255 . S
C8 O9 1.258 . S
C8 O10 1.256 . S
O9 Cd1 2.381 . S
O9 C8 1.258 . S
O10 Cd1 2.378 . S
O10 C8 1.256 . S
O11 Cd12 2.300 . S
O11 C18 1.275 . S
Cd12 O11 2.300 . S
Cd12 O20 2.381 . S
Cd12 O21 2.378 . S
O13 Cd14 2.385 1_655 S
O13 C18 1.255 . S
Cd14 O13 2.385 1_455 S
Cd14 O15 2.317 1_455 S
O15 Cd14 2.317 1_655 S
O15 C16 1.232 . S
C16 O15 1.232 . S
C16 O17 1.218 . S
O17 C16 1.218 . S
C18 O11 1.275 . S
C18 O13 1.255 . S
C19 O20 1.258 . S
C19 O21 1.256 . S
O20 Cd12 2.381 . S
O20 C19 1.258 . S
O21 Cd12 2.378 . S
O21 C19 1.256 . S
O22 Cd23 2.300 1_565 S
O22 C29 1.275 1_565 S
Cd23 O22 2.300 1_545 S
Cd23 O31 2.381 1_545 S
Cd23 O32 2.378 . S
O24 Cd25 2.385 . S
O24 C29 1.255 . S
Cd25 O24 2.385 . S
Cd25 O26 2.317 . S
O26 Cd25 2.317 . S
O26 C27 1.232 . S
C27 O26 1.232 . S
C27 O28 1.218 . S
O28 C27 1.218 . S
C29 O22 1.275 1_545 S
C29 O24 1.255 . S
C30 O31 1.258 1_545 S
C30 O32 1.256 . S
O31 Cd23 2.381 1_565 S
O31 C30 1.258 1_565 S
O32 Cd23 2.378 . S
O32 C30 1.256 . S
O33 Cd34 2.300 . S
O33 C40 1.275 . S
Cd34 O33 2.300 . S
Cd34 O42 2.381 . S
Cd34 O43 2.378 . S
O35 Cd36 2.385 1_556 S
O35 C40 1.255 . S
Cd36 O35 2.385 1_554 S
Cd36 O37 2.317 . S
O37 Cd36 2.317 . S
O37 C38 1.232 . S
C38 O37 1.232 . S
C38 O39 1.218 . S
O39 C38 1.218 . S
C40 O33 1.275 . S
C40 O35 1.255 . S
C41 O42 1.258 . S
C41 O43 1.256 . S
O42 Cd34 2.381 . S
O42 C41 1.258 . S
O43 Cd34 2.378 . S
O43 C41 1.256 . S
O44 Cd45 2.300 . S
O44 C51 1.275 . S
Cd45 O44 2.300 . S
Cd45 O53 2.381 . S
Cd45 O54 2.378 . S
O46 Cd47 2.385 . S
O46 C51 1.255 . S
Cd47 O46 2.385 . S
Cd47 O48 2.317 . S
O48 Cd47 2.317 . S
O48 C49 1.232 . S
C49 O48 1.232 . S
C49 O50 1.218 . S
O50 C49 1.218 . S
C51 O44 1.275 . S
C51 O46 1.255 . S
C52 O53 1.258 . S
C52 O54 1.256 . S
O53 Cd45 2.381 . S
O53 C52 1.258 . S
O54 Cd45 2.378 . S
O54 C52 1.256 . S
O55 Cd56 2.300 . S
O55 C62 1.275 . S
Cd56 O55 2.300 . S
Cd56 O64 2.381 . S
Cd56 O65 2.378 . S
O57 Cd58 2.385 . S
O57 C62 1.255 . S
Cd58 O57 2.385 . S
Cd58 O59 2.317 . S
O59 Cd58 2.317 . S
O59 C60 1.232 . S
C60 O59 1.232 . S
C60 O61 1.218 . S
O61 C60 1.218 . S
C62 O55 1.275 . S
C62 O57 1.255 . S
C63 O64 1.258 . S
C63 O65 1.256 . S
O64 Cd56 2.381 . S
O64 C63 1.258 . S
O65 Cd56 2.378 . S
O65 C63 1.256 . S
O66 Cd67 2.300 1_565 S
O66 C73 1.275 1_565 S
Cd67 O66 2.300 1_545 S
Cd67 O75 2.381 1_545 S
Cd67 O76 2.378 . S
O68 Cd69 2.385 . S
O68 C73 1.255 . S
Cd69 O68 2.385 . S
Cd69 O70 2.317 . S
O70 Cd69 2.317 . S
O70 C71 1.232 . S
C71 O70 1.232 . S
C71 O72 1.218 . S
O72 C71 1.218 . S
C73 O66 1.275 1_545 S
C73 O68 1.255 . S
C74 O75 1.258 1_545 S
C74 O76 1.256 . S
O75 Cd67 2.381 1_565 S
O75 C74 1.258 1_565 S
O76 Cd67 2.378 . S
O76 C74 1.256 . S
O77 Cd78 2.300 . S
O77 C84 1.275 . S
Cd78 O77 2.300 . S
Cd78 O86 2.381 . S
Cd78 O87 2.378 . S
O79 Cd80 2.385 . S
O79 C84 1.255 . S
Cd80 O79 2.385 . S
Cd80 O81 2.317 . S
O81 Cd80 2.317 . S
O81 C82 1.232 . S
C82 O81 1.232 . S
C82 O83 1.218 . S
O83 C82 1.218 . S
C84 O77 1.275 . S
C84 O79 1.255 . S
C85 O86 1.258 . S
C85 O87 1.256 . S
O86 Cd78 2.381 . S
O86 C85 1.258 . S
O87 Cd78 2.378 . S
O87 C85 1.256 . S
Tb88 C97 2.764 . S
Tb88 O98 2.325 1_655 S
Tb88 O101 2.303 1_655 S
Tb88 O105 2.322 1_545 S
Tb88 O106 2.349 . S
Tb88 O109 2.415 1_655 S
Tb88 O110 2.399 . S
Tb89 O99 2.322 1_565 S
Tb89 O100 2.349 . S
Tb89 O102 2.415 . S
Tb89 O103 2.399 . S
Tb89 O104 2.325 . S
Tb89 O107 2.303 1_455 S
Tb89 C118 2.764 . S
C90 O106 1.261 . S
C90 O107 1.257 1_545 S
C91 C94 1.358 . S
C91 C95 1.332 1_655 S
C91 C97 1.504 . S
C92 C93 1.373 . S
C92 C96 1.308 1_655 S
C93 C92 1.373 . S
C93 C94 1.429 . S
C93 H120 0.932 . S
C94 C91 1.358 . S
C94 C93 1.429 . S
C94 H121 0.930 . S
C95 C91 1.332 1_455 S
C95 C96 1.394 . S
C95 H122 0.932 . S
C96 C92 1.308 1_455 S
C96 C95 1.394 . S
C96 H123 0.929 . S
C97 Tb88 2.764 . S
C97 C91 1.504 . S
C97 O109 1.239 1_655 S
C97 O110 1.263 . S
O98 Tb88 2.325 1_455 S
O98 C108 1.236 . S
O99 Tb89 2.322 1_545 S
O99 C108 1.257 . S
O100 Tb89 2.349 . S
O100 C111 1.261 . S
O101 Tb88 2.303 1_455 S
O101 C111 1.257 1_545 S
O102 Tb89 2.415 . S
O102 C118 1.239 . S
O103 Tb89 2.399 . S
O103 C118 1.263 . S
O104 Tb89 2.325 . S
O104 C119 1.199 1_455 S
O105 Tb88 2.322 1_565 S
O105 C119 1.279 . S
O106 Tb88 2.349 . S
O106 C90 1.261 . S
O107 Tb89 2.303 1_655 S
O107 C90 1.257 1_565 S
C108 O98 1.236 . S
C108 O99 1.257 . S
O109 Tb88 2.415 1_455 S
O109 C97 1.239 1_455 S
O110 Tb88 2.399 . S
O110 C97 1.263 . S
C111 O100 1.261 . S
C111 O101 1.257 1_565 S
C112 C115 1.358 . S
C112 C116 1.332 . S
C112 C118 1.504 . S
C113 C114 1.373 . S
C113 C117 1.308 . S
C114 C113 1.373 . S
C114 C115 1.429 . S
C114 H124 0.932 . S
C115 C112 1.358 . S
C115 C114 1.429 . S
C115 H125 0.930 . S
C116 C112 1.332 . S
C116 C117 1.394 . S
C116 H126 0.932 1_455 S
C117 C113 1.308 . S
C117 C116 1.394 . S
C117 H127 0.929 1_455 S
C118 Tb89 2.764 . S
C118 O102 1.239 . S
C118 O103 1.263 . S
C118 C112 1.504 . S
C119 O104 1.199 1_655 S
C119 O105 1.279 . S
H120 C93 0.932 . S
H121 C94 0.930 . S
H122 C95 0.932 . S
H123 C96 0.929 . S
H124 C114 0.932 . S
H125 C115 0.930 . S
H126 C116 0.932 1_655 S
H127 C117 0.929 1_655 S
Tb128 C137 2.764 . S
Tb128 O138 2.325 . S
Tb128 O141 2.303 1_565 S
Tb128 O145 2.322 . S
Tb128 O146 2.349 . S
Tb128 O149 2.415 1_565 S
Tb128 O150 2.399 . S
Tb129 O139 2.322 . S
Tb129 O140 2.349 . S
Tb129 O142 2.415 1_545 S
Tb129 O143 2.399 . S
Tb129 O144 2.325 . S
Tb129 O147 2.303 1_545 S
Tb129 C158 2.764 . S
C130 O146 1.261 . S
C130 O147 1.257 . S
C131 C134 1.358 . S
C131 C135 1.332 1_565 S
C131 C137 1.504 . S
C132 C133 1.373 . S
C132 C136 1.308 1_565 S
C133 C132 1.373 . S
C133 C134 1.429 . S
C133 H160 0.932 . S
C134 C131 1.358 . S
C134 C133 1.429 . S
C134 H161 0.930 . S
C135 C131 1.332 1_545 S
C135 C136 1.394 . S
C135 H162 0.932 . S
C136 C132 1.308 1_545 S
C136 C135 1.394 . S
C136 H163 0.929 . S
C137 Tb128 2.764 . S
C137 C131 1.504 . S
C137 O149 1.239 1_565 S
C137 O150 1.263 . S
O138 Tb128 2.325 . S
O138 C148 1.236 1_565 S
O139 Tb129 2.322 . S
O139 C148 1.257 . S
O140 Tb129 2.349 . S
O140 C151 1.261 . S
O141 Tb128 2.303 1_545 S
O141 C151 1.257 . S
O142 Tb129 2.415 1_565 S
O142 C158 1.239 1_565 S
O143 Tb129 2.399 . S
O143 C158 1.263 . S
O144 Tb129 2.325 . S
O144 C159 1.236 1_545 S
O145 Tb128 2.322 . S
O145 C159 1.257 . S
O146 Tb128 2.349 . S
O146 C130 1.261 . S
O147 Tb129 2.303 1_565 S
O147 C130 1.257 . S
C148 O138 1.236 1_545 S
C148 O139 1.257 . S
O149 Tb128 2.415 1_545 S
O149 C137 1.239 1_545 S
O150 Tb128 2.399 . S
O150 C137 1.263 . S
C151 O140 1.261 . S
C151 O141 1.257 . S
C152 C155 1.358 . S
C152 C156 1.332 1_545 S
C152 C158 1.504 . S
C153 C154 1.373 . S
C153 C157 1.261 1_544 S
C154 C153 1.373 . S
C154 C155 1.429 1_554 S
C154 H164 0.932 . S
C155 C152 1.358 . S
C155 C154 1.429 1_556 S
C155 H165 0.930 . S
C156 C152 1.332 1_565 S
C156 C157 1.393 . S
C156 H166 0.932 . S
C157 C153 1.261 1_566 S
C157 C156 1.393 . S
C157 H167 0.981 . S
C158 Tb129 2.764 . S
C158 O142 1.239 1_545 S
C158 O143 1.263 . S
C158 C152 1.504 . S
C159 O144 1.236 1_565 S
C159 O145 1.257 . S
H160 C133 0.932 . S
H161 C134 0.930 . S
H162 C135 0.932 . S
H163 C136 0.929 . S
H164 C154 0.932 . S
H165 C155 0.930 . S
H166 C156 0.932 . S
H167 C157 0.981 . S
Tb168 C177 2.764 . S
Tb168 O178 2.325 . S
Tb168 O181 2.303 . S
Tb168 O185 2.322 . S
Tb168 O186 2.349 . S
Tb168 O189 2.415 . S
Tb168 O190 2.399 . S
Tb169 O179 2.322 . S
Tb169 O180 2.349 . S
Tb169 O182 2.415 . S
Tb169 O183 2.399 . S
Tb169 O184 2.325 . S
Tb169 O187 2.303 . S
Tb169 C198 2.764 . S
C170 O186 1.261 . S
C170 O187 1.257 . S
C171 C174 1.358 . S
C171 C175 1.332 . S
C171 C177 1.504 . S
C172 C173 1.373 . S
C172 C176 1.308 . S
C173 C172 1.373 . S
C173 C174 1.429 1_554 S
C173 H200 0.932 . S
C174 C171 1.358 . S
C174 C173 1.429 1_556 S
C174 H201 0.930 . S
C175 C171 1.332 . S
C175 C176 1.394 1_556 S
C175 H202 0.932 . S
C176 C172 1.308 . S
C176 C175 1.394 1_554 S
C176 H203 0.929 . S
C177 Tb168 2.764 . S
C177 C171 1.504 . S
C177 O189 1.239 . S
C177 O190 1.263 . S
O178 Tb168 2.325 . S
O178 C188 1.236 . S
O179 Tb169 2.322 . S
O179 C188 1.257 . S
O180 Tb169 2.349 . S
O180 C191 1.261 . S
O181 Tb168 2.303 . S
O181 C191 1.257 . S
O182 Tb169 2.415 . S
O182 C198 1.239 . S
O183 Tb169 2.399 . S
O183 C198 1.263 . S
O184 Tb169 2.325 . S
O184 C199 1.236 . S
O185 Tb168 2.322 . S
O185 C199 1.257 . S
O186 Tb168 2.349 . S
O186 C170 1.261 . S
O187 Tb169 2.303 . S
O187 C170 1.257 . S
C188 O178 1.236 . S
C188 O179 1.257 . S
O189 Tb168 2.415 . S
O189 C177 1.239 . S
O190 Tb168 2.399 . S
O190 C177 1.263 . S
C191 O180 1.261 . S
C191 O181 1.257 . S
C192 C195 1.358 . S
C192 C196 1.332 . S
C192 C198 1.504 . S
C193 C194 1.373 . S
C193 C197 1.308 . S
C194 C193 1.373 . S
C194 C195 1.429 . S
C194 H204 0.932 . S
C195 C192 1.358 . S
C195 C194 1.429 . S
C195 H205 0.930 . S
C196 C192 1.332 . S
C196 C197 1.394 . S
C196 H206 0.932 . S
C197 C193 1.308 . S
C197 C196 1.394 . S
C197 H207 0.929 . S
C198 Tb169 2.764 . S
C198 O182 1.239 . S
C198 O183 1.263 . S
C198 C192 1.504 . S
C199 O184 1.236 . S
C199 O185 1.257 . S
H200 C173 0.932 . S
H201 C174 0.930 . S
H202 C175 0.932 . S
H203 C176 0.929 . S
H204 C194 0.932 . S
H205 C195 0.930 . S
H206 C196 0.932 . S
H207 C197 0.929 . S
Tb208 C217 2.764 . S
Tb208 O218 2.325 . S
Tb208 O221 2.303 . S
Tb208 O225 2.322 1_455 S
Tb208 O226 2.349 . S
Tb208 O229 2.415 . S
Tb208 O230 2.399 . S
Tb209 O219 2.322 1_655 S
Tb209 O220 2.349 1_655 S
Tb209 O222 2.415 . S
Tb209 O223 2.399 . S
Tb209 O224 2.325 . S
Tb209 O227 2.303 1_655 S
Tb209 C238 2.764 . S
C210 O226 1.261 . S
C210 O227 1.257 . S
C211 C214 1.358 . S
C211 C215 1.332 . S
C211 C217 1.504 . S
C212 C213 1.373 . S
C212 C216 1.308 . S
C213 C212 1.373 . S
C213 C214 1.429 . S
C213 H240 0.932 . S
C214 C211 1.358 . S
C214 C213 1.429 . S
C214 H241 0.930 . S
C215 C211 1.332 . S
C215 C216 1.394 . S
C215 H242 0.932 . S
C216 C212 1.308 . S
C216 C215 1.394 . S
C216 H243 0.929 . S
C217 Tb208 2.764 . S
C217 C211 1.504 . S
C217 O229 1.239 . S
C217 O230 1.263 . S
O218 Tb208 2.325 . S
O218 C228 1.236 . S
O219 Tb209 2.322 1_455 S
O219 C228 1.257 . S
O220 Tb209 2.349 1_455 S
O220 C231 1.261 . S
O221 Tb208 2.303 . S
O221 C231 1.257 . S
O222 Tb209 2.415 . S
O222 C238 1.239 . S
O223 Tb209 2.399 . S
O223 C238 1.263 . S
O224 Tb209 2.325 . S
O224 C239 1.236 . S
O225 Tb208 2.322 1_655 S
O225 C239 1.257 . S
O226 Tb208 2.349 . S
O226 C210 1.261 . S
O227 Tb209 2.303 1_455 S
O227 C210 1.257 . S
C228 O218 1.236 . S
C228 O219 1.257 . S
O229 Tb208 2.415 . S
O229 C217 1.239 . S
O230 Tb208 2.399 . S
O230 C217 1.263 . S
C231 O220 1.261 . S
C231 O221 1.257 . S
C232 C235 1.358 . S
C232 C236 1.332 . S
C232 C238 1.504 . S
C233 C234 1.373 . S
C233 C237 1.308 . S
C234 C233 1.373 . S
C234 C235 1.429 . S
C234 H244 0.932 . S
C235 C232 1.358 . S
C235 C234 1.429 . S
C235 H245 0.930 . S
C236 C232 1.332 . S
C236 C237 1.394 . S
C236 H246 0.932 . S
C237 C233 1.308 . S
C237 C236 1.394 . S
C237 H247 0.929 . S
C238 Tb209 2.764 . S
C238 O222 1.239 . S
C238 O223 1.263 . S
C238 C232 1.504 . S
C239 O224 1.236 . S
C239 O225 1.257 . S
H240 C213 0.932 . S
H241 C214 0.930 . S
H242 C215 0.932 . S
H243 C216 0.929 . S
H244 C234 0.932 . S
H245 C235 0.930 . S
H246 C236 0.932 . S
H247 C237 0.929 . S
C248 C249 1.346 1_565 S
C248 C250 1.327 . S
C248 H273 0.950 . S
C249 C248 1.346 1_545 S
C249 C265 1.351 . S
C250 C248 1.327 . S
C250 C269 1.421 1_565 S
C250 H274 0.950 . S
C251 C268 1.574 . S
C251 C270 1.380 . S
C251 H275 0.949 . S
H252 C256 0.949 . S
C253 C254 1.378 . S
C253 C255 1.327 . S
C253 H276 0.950 . S
C254 C253 1.378 . S
C254 C266 1.323 1_545 S
C255 C253 1.327 . S
C255 C271 1.448 . S
C255 H277 0.950 . S
C256 H252 0.949 . S
C256 C264 1.574 . S
C256 C272 1.350 1_565 S
H257 C265 0.950 . S
H258 C263 0.950 . S
H259 C264 0.949 . S
H260 C266 0.950 . S
H261 C267 0.950 . S
H262 C268 0.949 . S
C263 H258 0.950 . S
C263 C265 1.327 . S
C263 C269 1.437 . S
C264 C256 1.574 . S
C264 H259 0.949 . S
C264 C270 1.355 1_565 S
C265 C249 1.351 . S
C265 H257 0.950 . S
C265 C263 1.327 . S
C266 C254 1.323 1_565 S
C266 H260 0.950 . S
C266 C267 1.327 . S
C267 H261 0.950 . S
C267 C266 1.327 . S
C267 C271 1.407 1_565 S
C268 C251 1.574 . S
C268 H262 0.949 . S
C268 C272 1.388 . S
C269 C250 1.421 1_545 S
C269 C263 1.437 . S
C269 C270 1.523 . S
C270 C251 1.380 . S
C270 C264 1.355 1_545 S
C270 C269 1.523 . S
C271 C255 1.448 . S
C271 C267 1.407 1_545 S
C271 C272 1.523 . S
C272 C256 1.350 1_545 S
C272 C268 1.388 . S
C272 C271 1.523 . S
H273 C248 0.950 . S
H274 C250 0.950 . S
H275 C251 0.949 . S
H276 C253 0.950 . S
H277 C255 0.950 . S
C278 C279 1.349 . S
C278 C280 1.327 . S
C278 H303 0.950 . S
C279 C278 1.349 . S
C279 C295 1.349 . S
C280 C278 1.327 . S
C280 C299 1.429 . S
C280 H304 0.950 . S
C281 C298 1.574 . S
C281 C300 1.368 . S
C281 H305 0.949 . S
H282 C286 0.949 . S
C283 C284 1.349 . S
C283 C285 1.327 . S
C283 H306 0.950 . S
C284 C283 1.349 . S
C284 C296 1.349 . S
C285 C283 1.327 . S
C285 C301 1.429 . S
C285 H307 0.950 . S
C286 H282 0.949 . S
C286 C294 1.574 . S
C286 C302 1.368 . S
H287 C295 0.950 . S
H288 C293 0.950 . S
H289 C294 0.949 . S
H290 C296 0.950 . S
H291 C297 0.950 . S
H292 C298 0.949 . S
C293 H288 0.950 . S
C293 C295 1.327 . S
C293 C299 1.429 . S
C294 C286 1.574 . S
C294 H289 0.949 . S
C294 C300 1.368 . S
C295 C279 1.349 . S
C295 H287 0.950 . S
C295 C293 1.327 . S
C296 C284 1.349 . S
C296 H290 0.950 . S
C296 C297 1.327 . S
C297 H291 0.950 . S
C297 C296 1.327 . S
C297 C301 1.429 . S
C298 C281 1.574 . S
C298 H292 0.949 . S
C298 C302 1.368 . S
C299 C280 1.429 . S
C299 C293 1.429 . S
C299 C300 1.523 . S
C300 C281 1.368 . S
C300 C294 1.368 . S
C300 C299 1.523 . S
C301 C285 1.429 . S
C301 C297 1.429 . S
C301 C302 1.523 . S
C302 C286 1.368 . S
C302 C298 1.368 . S
C302 C301 1.523 . S
H303 C278 0.950 . S
H304 C280 0.950 . S
H305 C281 0.949 . S
H306 C283 0.950 . S
H307 C285 0.950 . S
C308 C309 1.349 . S
C308 C310 1.327 . S
C308 H333 0.950 . S
C309 C308 1.349 . S
C309 C325 1.349 . S
C310 C308 1.327 . S
C310 C329 1.429 . S
C310 H334 0.950 . S
C311 C328 1.574 . S
C311 C330 1.368 . S
C311 H335 0.949 . S
H312 C316 0.949 . S
C313 C314 1.349 . S
C313 C315 1.327 . S
C313 H336 0.950 . S
C314 C313 1.349 . S
C314 C326 1.349 . S
C315 C313 1.327 . S
C315 C331 1.429 . S
C315 H337 0.950 . S
C316 H312 0.949 . S
C316 C324 1.574 . S
C316 C332 1.368 . S
H317 C325 0.950 . S
H318 C323 0.950 . S
H319 C324 0.949 . S
H320 C326 0.950 . S
H321 C327 0.950 . S
H322 C328 0.949 . S
C323 H318 0.950 . S
C323 C325 1.327 . S
C323 C329 1.429 . S
C324 C316 1.574 . S
C324 H319 0.949 . S
C324 C330 1.368 . S
C325 C309 1.349 . S
C325 H317 0.950 . S
C325 C323 1.327 . S
C326 C314 1.349 . S
C326 H320 0.950 . S
C326 C327 1.327 . S
C327 H321 0.950 . S
C327 C326 1.327 . S
C327 C331 1.429 . S
C328 C311 1.574 . S
C328 H322 0.949 . S
C328 C332 1.368 . S
C329 C310 1.429 . S
C329 C323 1.429 . S
C329 C330 1.523 . S
C330 C311 1.368 . S
C330 C324 1.368 . S
C330 C329 1.523 . S
C331 C315 1.429 . S
C331 C327 1.429 . S
C331 C332 1.523 . S
C332 C316 1.368 . S
C332 C328 1.368 . S
C332 C331 1.523 . S
H333 C308 0.950 . S
H334 C310 0.950 . S
H335 C311 0.949 . S
H336 C313 0.950 . S
H337 C315 0.950 . S
C338 C339 1.349 . S
C338 C340 1.327 . S
C338 H363 0.950 . S
C339 C338 1.349 . S
C339 C355 1.349 . S
C340 C338 1.327 . S
C340 C359 1.429 . S
C340 H364 0.950 . S
C341 C358 1.574 . S
C341 C360 1.368 . S
C341 H365 0.949 . S
H342 C346 0.949 . S
C343 C344 1.349 . S
C343 C345 1.327 . S
C343 H366 0.950 . S
C344 C343 1.349 . S
C344 C356 1.349 . S
C345 C343 1.327 . S
C345 C361 1.429 . S
C345 H367 0.950 . S
C346 H342 0.949 . S
C346 C354 1.574 . S
C346 C362 1.368 . S
H347 C355 0.950 . S
H348 C353 0.950 . S
H349 C354 0.949 . S
H350 C356 0.950 . S
H351 C357 0.950 . S
H352 C358 0.949 . S
C353 H348 0.950 . S
C353 C355 1.327 . S
C353 C359 1.429 . S
C354 C346 1.574 . S
C354 H349 0.949 . S
C354 C360 1.368 . S
C355 C339 1.349 . S
C355 H347 0.950 . S
C355 C353 1.327 . S
C356 C344 1.349 . S
C356 H350 0.950 . S
C356 C357 1.327 . S
C357 H351 0.950 . S
C357 C356 1.327 . S
C357 C361 1.429 . S
C358 C341 1.574 . S
C358 H352 0.949 . S
C358 C362 1.368 . S
C359 C340 1.429 . S
C359 C353 1.429 . S
C359 C360 1.523 . S
C360 C341 1.368 . S
C360 C354 1.368 . S
C360 C359 1.523 . S
C361 C345 1.429 . S
C361 C357 1.429 . S
C361 C362 1.523 . S
C362 C346 1.368 . S
C362 C358 1.368 . S
C362 C361 1.523 . S
H363 C338 0.950 . S
H364 C340 0.950 . S
H365 C341 0.949 . S
H366 C343 0.950 . S
H367 C345 0.950 . S
C368 C369 1.346 . S
C368 C370 1.327 . S
C368 H393 0.950 . S
C369 C368 1.346 . S
C369 C385 1.351 1_545 S
C370 C368 1.327 . S
C370 C389 1.430 1_545 S
C370 H394 0.950 . S
C371 C388 1.574 . S
C371 C390 1.370 . S
C371 H395 0.949 . S
H372 C376 0.949 . S
C373 C374 1.367 . S
C373 C375 1.327 . S
C373 H396 0.950 . S
C374 C373 1.367 . S
C374 C386 1.334 1_565 S
C375 C373 1.327 . S
C375 C391 1.438 . S
C375 H397 0.950 . S
C376 H372 0.949 . S
C376 C384 1.574 . S
C376 C392 1.361 1_545 S
H377 C385 0.950 . S
H378 C383 0.950 . S
H379 C384 0.949 . S
H380 C386 0.950 . S
H381 C387 0.950 1_554 S
H382 C388 0.949 1_556 S
C383 H378 0.950 . S
C383 C385 1.327 . S
C383 C389 1.427 . S
C384 C376 1.574 . S
C384 H379 0.949 . S
C384 C390 1.366 1_545 S
C385 C369 1.351 1_565 S
C385 H377 0.950 . S
C385 C383 1.327 . S
C386 C374 1.334 1_545 S
C386 H380 0.950 . S
C386 C387 1.327 . S
C387 H381 0.950 1_556 S
C387 C386 1.327 . S
C387 C391 1.418 1_545 S
C388 C371 1.574 . S
C388 H382 0.949 1_554 S
C388 C392 1.377 . S
C389 C370 1.430 1_565 S
C389 C383 1.427 . S
C389 C390 1.523 . S
C390 C371 1.370 . S
C390 C384 1.366 1_565 S
C390 C389 1.523 . S
C391 C375 1.438 . S
C391 C387 1.418 1_565 S
C391 C392 1.523 1_556 S
C392 C376 1.361 1_565 S
C392 C388 1.377 . S
C392 C391 1.523 1_554 S
H393 C368 0.950 . S
H394 C370 0.950 . S
H395 C371 0.949 . S
H396 C373 0.950 . S
H397 C375 0.950 . S
C398 C399 1.349 . S
C398 C400 1.327 . S
C398 H423 0.950 . S
C399 C398 1.349 . S
C399 C415 1.349 . S
C400 C398 1.327 . S
C400 C419 1.429 . S
C400 H424 0.950 . S
C401 C418 1.574 . S
C401 C420 1.368 . S
C401 H425 0.949 . S
H402 C406 0.949 . S
C403 C404 1.349 . S
C403 C405 1.327 . S
C403 H426 0.950 . S
C404 C403 1.349 . S
C404 C416 1.349 . S
C405 C403 1.327 . S
C405 C421 1.429 . S
C405 H427 0.950 . S
C406 H402 0.949 . S
C406 C414 1.574 . S
C406 C422 1.368 . S
H407 C415 0.950 1_554 S
H408 C413 0.950 . S
H409 C414 0.949 . S
H410 C416 0.950 . S
H411 C417 0.950 . S
H412 C418 0.949 . S
C413 H408 0.950 . S
C413 C415 1.327 . S
C413 C419 1.429 . S
C414 C406 1.574 . S
C414 H409 0.949 . S
C414 C420 1.368 . S
C415 C399 1.349 . S
C415 H407 0.950 1_556 S
C415 C413 1.327 . S
C416 C404 1.349 . S
C416 H410 0.950 . S
C416 C417 1.327 . S
C417 H411 0.950 . S
C417 C416 1.327 . S
C417 C421 1.429 . S
C418 C401 1.574 . S
C418 H412 0.949 . S
C418 C422 1.368 . S
C419 C400 1.429 . S
C419 C413 1.429 . S
C419 C420 1.523 . S
C420 C401 1.368 . S
C420 C414 1.368 . S
C420 C419 1.523 . S
C421 C405 1.429 . S
C421 C417 1.429 . S
C421 C422 1.523 . S
C422 C406 1.368 . S
C422 C418 1.368 . S
C422 C421 1.523 . S
H423 C398 0.950 . S
H424 C400 0.950 . S
H425 C401 0.949 . S
H426 C403 0.950 . S
H427 C405 0.950 . S
C428 C429 1.349 . S
C428 C430 1.327 . S
C428 H453 0.950 . S
C429 C428 1.349 . S
C429 C445 1.349 . S
C430 C428 1.327 . S
C430 C449 1.429 . S
C430 H454 0.950 . S
C431 C448 1.574 . S
C431 C450 1.368 . S
C431 H455 0.949 . S
H432 C436 0.949 . S
C433 C434 1.349 . S
C433 C435 1.327 . S
C433 H456 0.950 . S
C434 C433 1.349 . S
C434 C446 1.349 . S
C435 C433 1.327 . S
C435 C451 1.429 . S
C435 H457 0.950 . S
C436 H432 0.949 . S
C436 C444 1.574 . S
C436 C452 1.368 . S
H437 C445 0.950 . S
H438 C443 0.950 . S
H439 C444 0.949 . S
H440 C446 0.950 . S
H441 C447 0.950 . S
H442 C448 0.949 . S
C443 H438 0.950 . S
C443 C445 1.327 . S
C443 C449 1.429 . S
C444 C436 1.574 . S
C444 H439 0.949 . S
C444 C450 1.368 . S
C445 C429 1.349 . S
C445 H437 0.950 . S
C445 C443 1.327 . S
C446 C434 1.349 . S
C446 H440 0.950 . S
C446 C447 1.327 . S
C447 H441 0.950 . S
C447 C446 1.327 . S
C447 C451 1.429 . S
C448 C431 1.574 . S
C448 H442 0.949 . S
C448 C452 1.368 . S
C449 C430 1.429 . S
C449 C443 1.429 . S
C449 C450 1.523 . S
C450 C431 1.368 . S
C450 C444 1.368 . S
C450 C449 1.523 . S
C451 C435 1.429 . S
C451 C447 1.429 . S
C451 C452 1.523 1_556 S
C452 C436 1.368 . S
C452 C448 1.368 . S
C452 C451 1.523 1_554 S
H453 C428 0.950 . S
H454 C430 0.950 . S
H455 C431 0.949 . S
H456 C433 0.950 . S
H457 C435 0.950 . S
C458 C459 1.349 . S
C458 C460 1.327 . S
C458 H483 0.950 . S
C459 C458 1.349 . S
C459 C475 1.349 . S
C460 C458 1.327 . S
C460 C479 1.429 . S
C460 H484 0.950 . S
C461 C478 1.574 . S
C461 C480 1.368 . S
C461 H485 0.949 . S
H462 C466 0.949 . S
C463 C464 1.349 1_655 S
C463 C465 1.327 . S
C463 H486 0.950 . S
C464 C463 1.349 1_455 S
C464 C476 1.349 . S
C465 C463 1.327 . S
C465 C481 1.429 . S
C465 H487 0.950 . S
C466 H462 0.949 . S
C466 C474 1.574 1_456 S
C466 C482 1.368 1_455 S
H467 C475 0.950 . S
H468 C473 0.950 . S
H469 C474 0.949 1_455 S
H470 C476 0.950 . S
H471 C477 0.950 . S
H472 C478 0.949 . S
C473 H468 0.950 . S
C473 C475 1.327 . S
C473 C479 1.429 . S
C474 C466 1.574 1_654 S
C474 H469 0.949 1_655 S
C474 C480 1.368 . S
C475 C459 1.349 . S
C475 H467 0.950 . S
C475 C473 1.327 . S
C476 C464 1.349 . S
C476 H470 0.950 . S
C476 C477 1.327 . S
C477 H471 0.950 . S
C477 C476 1.327 . S
C477 C481 1.429 1_455 S
C478 C461 1.574 . S
C478 H472 0.949 . S
C478 C482 1.368 1_554 S
C479 C460 1.429 . S
C479 C473 1.429 . S
C479 C480 1.523 . S
C480 C461 1.368 . S
C480 C474 1.368 . S
C480 C479 1.523 . S
C481 C465 1.429 . S
C481 C477 1.429 1_655 S
C481 C482 1.523 . S
C482 C466 1.368 1_655 S
C482 C478 1.368 1_556 S
C482 C481 1.523 . S
H483 C458 0.950 . S
H484 C460 0.950 . S
H485 C461 0.949 . S
H486 C463 0.950 . S
H487 C465 0.950 . S
C488 C489 1.349 . S
C488 C490 1.327 . S
C488 H513 0.950 . S
C489 C488 1.349 . S
C489 C505 1.349 . S
C490 C488 1.327 . S
C490 C509 1.429 . S
C490 H514 0.950 . S
C491 C508 1.574 . S
C491 C510 1.368 . S
C491 H515 0.949 . S
H492 C496 0.949 . S
C493 C494 1.349 1_455 S
C493 C495 1.327 . S
C493 H516 0.950 . S
C494 C493 1.349 1_655 S
C494 C506 1.349 . S
C495 C493 1.327 . S
C495 C511 1.429 . S
C495 H517 0.950 . S
C496 H492 0.949 . S
C496 C504 1.574 . S
C496 C512 1.368 . S
H497 C505 0.950 . S
H498 C503 0.950 . S
H499 C504 0.949 . S
H500 C506 0.950 . S
H501 C507 0.949 . S
H502 C508 0.949 . S
C503 H498 0.950 . S
C503 C505 1.327 . S
C503 C509 1.429 . S
C504 C496 1.574 . S
C504 H499 0.949 . S
C504 C510 1.368 . S
C505 C489 1.349 . S
C505 H497 0.950 . S
C505 C503 1.327 . S
C506 C494 1.349 . S
C506 H500 0.950 . S
C506 C507 1.327 . S
C507 H501 0.949 . S
C507 C506 1.327 . S
C507 C511 1.429 1_655 S
C508 C491 1.574 . S
C508 H502 0.949 . S
C508 C512 1.368 . S
C509 C490 1.429 . S
C509 C503 1.429 . S
C509 C510 1.523 . S
C510 C491 1.368 . S
C510 C504 1.368 . S
C510 C509 1.523 . S
C511 C495 1.429 . S
C511 C507 1.429 1_455 S
C511 C512 1.523 . S
C512 C496 1.368 . S
C512 C508 1.368 . S
C512 C511 1.523 . S
H513 C488 0.950 . S
H514 C490 0.950 . S
H515 C491 0.949 . S
H516 C493 0.950 . S
H517 C495 0.950 . S
C518 C519 1.299 1_565 S
C518 C520 1.327 . S
C518 H543 0.950 . S
C519 C518 1.299 1_545 S
C519 C535 1.388 . S
C520 C518 1.327 . S
C520 C539 1.429 . S
C520 H544 0.950 . S
C521 C538 1.574 . S
C521 C540 1.368 1_545 S
C521 H545 0.949 . S
H522 C526 0.949 . S
C523 C524 1.364 . S
C523 C525 1.323 1_565 S
C523 H546 0.939 1_565 S
C524 C523 1.364 . S
C524 C536 1.349 . S
C525 C523 1.323 1_545 S
C525 C541 1.429 1_545 S
C525 H547 0.950 . S
C526 H522 0.949 . S
C526 C534 1.574 . S
C526 C542 1.368 . S
H527 C535 0.950 . S
H528 C533 0.950 . S
H529 C534 0.949 . S
H530 C536 0.950 . S
H531 C537 0.950 . S
H532 C538 0.949 . S
C533 H528 0.950 . S
C533 C535 1.327 . S
C533 C539 1.429 1_545 S
C534 C526 1.574 . S
C534 H529 0.949 . S
C534 C540 1.368 . S
C535 C519 1.388 . S
C535 H527 0.950 . S
C535 C533 1.327 . S
C536 C524 1.349 . S
C536 H530 0.950 . S
C536 C537 1.327 . S
C537 H531 0.950 . S
C537 C536 1.327 . S
C537 C541 1.429 . S
C538 C521 1.574 . S
C538 H532 0.949 . S
C538 C542 1.368 1_545 S
C539 C520 1.429 . S
C539 C533 1.429 1_565 S
C539 C540 1.523 . S
C540 C521 1.368 1_565 S
C540 C534 1.368 . S
C540 C539 1.523 . S
C541 C525 1.429 1_565 S
C541 C537 1.429 . S
C541 C542 1.523 . S
C542 C526 1.368 . S
C542 C538 1.368 1_565 S
C542 C541 1.523 . S
H543 C518 0.950 . S
H544 C520 0.950 . S
H545 C521 0.949 . S
H546 C523 0.939 1_545 S
H547 C525 0.950 . S
C548 C549 1.349 . S
C548 C550 1.327 . S
C548 H573 0.950 . S
C549 C548 1.349 . S
C549 C565 1.349 . S
C550 C548 1.327 . S
C550 C569 1.429 . S
C550 H574 0.950 . S
C551 C568 1.574 . S
C551 C570 1.368 . S
C551 H575 0.949 . S
H552 C556 0.949 . S
C553 C554 1.349 . S
C553 C555 1.327 . S
C553 H576 0.950 . S
C554 C553 1.349 . S
C554 C566 1.349 . S
C555 C553 1.327 . S
C555 C571 1.429 . S
C555 H577 0.950 . S
C556 H552 0.949 . S
C556 C564 1.574 . S
C556 C572 1.368 . S
H557 C565 0.950 . S
H558 C563 0.950 . S
H559 C564 0.949 . S
H560 C566 0.950 . S
H561 C567 0.950 . S
H562 C568 0.949 . S
C563 H558 0.950 . S
C563 C565 1.327 . S
C563 C569 1.429 . S
C564 C556 1.574 . S
C564 H559 0.949 . S
C564 C570 1.368 . S
C565 C549 1.349 . S
C565 H557 0.950 . S
C565 C563 1.327 . S
C566 C554 1.349 . S
C566 H560 0.950 . S
C566 C567 1.327 . S
C567 H561 0.950 . S
C567 C566 1.327 . S
C567 C571 1.429 . S
C568 C551 1.574 . S
C568 H562 0.949 . S
C568 C572 1.368 . S
C569 C550 1.429 . S
C569 C563 1.429 . S
C569 C570 1.523 . S
C570 C551 1.368 . S
C570 C564 1.368 . S
C570 C569 1.523 . S
C571 C555 1.429 . S
C571 C567 1.429 . S
C571 C572 1.523 . S
C572 C556 1.368 . S
C572 C568 1.368 . S
C572 C571 1.523 . S
H573 C548 0.950 . S
H574 C550 0.950 . S
H575 C551 0.949 . S
H576 C553 0.950 . S
H577 C555 0.950 . S
C578 C579 1.349 . S
C578 C580 1.327 . S
C578 H603 0.950 . S
C579 C578 1.349 . S
C579 C595 1.349 . S
C580 C578 1.327 . S
C580 C599 1.429 . S
C580 H604 0.950 . S
C581 C598 1.574 . S
C581 C600 1.368 . S
C581 H605 0.949 . S
H582 C586 0.949 . S
C583 C584 1.349 . S
C583 C585 1.327 . S
C583 H606 0.950 . S
C584 C583 1.349 . S
C584 C596 1.349 . S
C585 C583 1.327 . S
C585 C601 1.429 . S
C585 H607 0.950 . S
C586 H582 0.949 . S
C586 C594 1.574 . S
C586 C602 1.368 . S
H587 C595 0.950 . S
H588 C593 0.950 . S
H589 C594 0.949 . S
H590 C596 0.950 . S
H591 C597 0.950 . S
H592 C598 0.949 . S
C593 H588 0.950 . S
C593 C595 1.327 . S
C593 C599 1.429 . S
C594 C586 1.574 . S
C594 H589 0.949 . S
C594 C600 1.368 . S
C595 C579 1.349 . S
C595 H587 0.950 . S
C595 C593 1.327 . S
C596 C584 1.349 . S
C596 H590 0.950 . S
C596 C597 1.327 . S
C597 H591 0.950 . S
C597 C596 1.327 . S
C597 C601 1.429 . S
C598 C581 1.574 . S
C598 H592 0.949 . S
C598 C602 1.368 . S
C599 C580 1.429 . S
C599 C593 1.429 . S
C599 C600 1.523 . S
C600 C581 1.368 . S
C600 C594 1.368 . S
C600 C599 1.523 . S
C601 C585 1.429 . S
C601 C597 1.429 . S
C601 C602 1.523 . S
C602 C586 1.368 . S
C602 C598 1.368 . S
C602 C601 1.523 . S
H603 C578 0.950 . S
H604 C580 0.950 . S
H605 C581 0.949 . S
H606 C583 0.950 . S
H607 C585 0.950 . S
C608 C609 1.349 . S
C608 C610 1.327 . S
C608 H633 0.950 . S
C609 C608 1.349 . S
C609 C625 1.349 . S
C610 C608 1.327 . S
C610 C629 1.429 . S
C610 H634 0.950 . S
C611 C628 1.574 . S
C611 C630 1.368 1_455 S
C611 H635 0.949 . S
H612 C616 0.949 1_556 S
C613 C614 1.349 1_554 S
C613 C615 1.327 . S
C613 H636 0.950 . S
C614 C613 1.349 1_556 S
C614 C626 1.349 . S
C615 C613 1.327 . S
C615 C631 1.429 . S
C615 H637 0.950 . S
C616 H612 0.949 1_554 S
C616 C624 1.574 . S
C616 C632 1.368 1_655 S
H617 C625 0.950 . S
H618 C623 0.950 . S
H619 C624 0.949 . S
H620 C626 0.950 . S
H621 C627 0.936 1_655 S
H622 C628 0.949 . S
C623 H618 0.950 . S
C623 C625 1.327 . S
C623 C629 1.429 . S
C624 C616 1.574 . S
C624 H619 0.949 . S
C624 C630 1.368 . S
C625 C609 1.349 . S
C625 H617 0.950 . S
C625 C623 1.327 . S
C626 C614 1.349 . S
C626 H620 0.950 . S
C626 C627 1.327 . S
C627 H621 0.936 1_455 S
C627 C626 1.327 . S
C627 C631 1.429 1_556 S
C628 C611 1.574 . S
C628 H622 0.949 . S
C628 C632 1.368 . S
C629 C610 1.429 . S
C629 C623 1.429 . S
C629 C630 1.523 . S
C630 C611 1.368 1_655 S
C630 C624 1.368 . S
C630 C629 1.523 . S
C631 C615 1.429 . S
C631 C627 1.429 1_554 S
C631 C632 1.523 . S
C632 C616 1.368 1_455 S
C632 C628 1.368 . S
C632 C631 1.523 . S
H633 C608 0.950 . S
H634 C610 0.950 . S
H635 C611 0.949 . S
H636 C613 0.950 . S
H637 C615 0.950 . S
C638 C639 1.373 . S
C638 C640 1.327 . S
C638 H663 0.950 . S
C639 C638 1.373 . S
C639 C655 1.316 1_565 S
C640 C638 1.327 . S
C640 C659 1.429 1_565 S
C640 H664 0.950 . S
C641 C658 1.574 . S
C641 C660 1.368 . S
C641 H665 0.949 . S
H642 C646 0.949 . S
C643 C644 1.349 . S
C643 C645 1.327 . S
C643 H666 0.950 1_554 S
C644 C643 1.349 . S
C644 C656 1.349 . S
C645 C643 1.327 . S
C645 C661 1.429 . S
C645 H667 0.950 . S
C646 H642 0.949 . S
C646 C654 1.574 . S
C646 C662 1.368 1_565 S
H647 C655 0.950 . S
H648 C653 0.950 . S
H649 C654 0.949 . S
H650 C656 0.950 1_565 S
H651 C657 0.950 1_565 S
H652 C658 0.949 . S
C653 H648 0.950 . S
C653 C655 1.327 . S
C653 C659 1.429 . S
C654 C646 1.574 . S
C654 H649 0.949 . S
C654 C660 1.368 1_565 S
C655 C639 1.316 1_545 S
C655 H647 0.950 . S
C655 C653 1.327 . S
C656 C644 1.349 . S
C656 H650 0.950 1_545 S
C656 C657 1.327 . S
C657 H651 0.950 1_545 S
C657 C656 1.327 . S
C657 C661 1.429 . S
C658 C641 1.574 . S
C658 H652 0.949 . S
C658 C662 1.368 . S
C659 C640 1.429 1_545 S
C659 C653 1.429 . S
C659 C660 1.523 . S
C660 C641 1.368 . S
C660 C654 1.368 1_545 S
C660 C659 1.523 . S
C661 C645 1.429 . S
C661 C657 1.429 . S
C661 C662 1.523 . S
C662 C646 1.368 1_545 S
C662 C658 1.368 . S
C662 C661 1.523 . S
H663 C638 0.950 . S
H664 C640 0.950 . S
H665 C641 0.949 . S
H666 C643 0.950 1_556 S
H667 C645 0.950 . S
C668 C669 1.349 . S
C668 C670 1.327 . S
C668 H693 0.950 . S
C669 C668 1.349 . S
C669 C685 1.349 . S
C670 C668 1.327 . S
C670 C689 1.429 . S
C670 H694 0.950 . S
C671 C688 1.574 . S
C671 C690 1.368 . S
C671 H695 0.949 . S
H672 C676 0.949 . S
C673 C674 1.349 . S
C673 C675 1.327 . S
C673 H696 0.950 . S
C674 C673 1.349 . S
C674 C686 1.349 . S
C675 C673 1.327 . S
C675 C691 1.429 . S
C675 H697 0.950 . S
C676 H672 0.949 . S
C676 C684 1.574 . S
C676 C692 1.368 . S
H677 C685 0.950 . S
H678 C683 0.950 . S
H679 C684 0.949 . S
H680 C686 0.950 . S
H681 C687 0.950 . S
H682 C688 0.949 . S
C683 H678 0.950 . S
C683 C685 1.327 . S
C683 C689 1.429 . S
C684 C676 1.574 . S
C684 H679 0.949 . S
C684 C690 1.368 . S
C685 C669 1.349 . S
C685 H677 0.950 . S
C685 C683 1.327 . S
C686 C674 1.349 . S
C686 H680 0.950 . S
C686 C687 1.327 . S
C687 H681 0.950 . S
C687 C686 1.327 . S
C687 C691 1.429 . S
C688 C671 1.574 . S
C688 H682 0.949 . S
C688 C692 1.368 . S
C689 C670 1.429 . S
C689 C683 1.429 . S
C689 C690 1.523 . S
C690 C671 1.368 . S
C690 C684 1.368 . S
C690 C689 1.523 . S
C691 C675 1.429 . S
C691 C687 1.429 . S
C691 C692 1.523 . S
C692 C676 1.368 . S
C692 C688 1.368 . S
C692 C691 1.523 . S
H693 C668 0.950 . S
H694 C670 0.950 . S
H695 C671 0.949 . S
H696 C673 0.950 . S
H697 C675 0.950 . S
C698 C699 1.349 . S
C698 C700 1.327 . S
C698 H723 0.950 . S
C699 C698 1.349 . S
C699 C715 1.349 . S
C700 C698 1.327 . S
C700 C719 1.429 . S
C700 H724 0.950 . S
C701 C718 1.574 . S
C701 C720 1.368 . S
C701 H725 0.949 . S
H702 C706 0.949 . S
C703 C704 1.349 1_554 S
C703 C705 1.327 . S
C703 H726 0.950 . S
C704 C703 1.349 1_556 S
C704 C716 1.349 . S
C705 C703 1.327 . S
C705 C721 1.429 . S
C705 H727 0.950 . S
C706 H702 0.949 . S
C706 C714 1.574 . S
C706 C722 1.368 . S
H707 C715 0.950 . S
H708 C713 0.950 . S
H709 C714 0.949 . S
H710 C716 0.950 . S
H711 C717 0.950 . S
H712 C718 0.949 . S
C713 H708 0.950 . S
C713 C715 1.327 . S
C713 C719 1.429 . S
C714 C706 1.574 . S
C714 H709 0.949 . S
C714 C720 1.368 . S
C715 C699 1.349 . S
C715 H707 0.950 . S
C715 C713 1.327 . S
C716 C704 1.349 . S
C716 H710 0.950 . S
C716 C717 1.327 1_556 S
C717 H711 0.950 . S
C717 C716 1.327 1_554 S
C717 C721 1.429 . S
C718 C701 1.574 . S
C718 H712 0.949 . S
C718 C722 1.368 . S
C719 C700 1.429 . S
C719 C713 1.429 . S
C719 C720 1.523 . S
C720 C701 1.368 . S
C720 C714 1.368 . S
C720 C719 1.523 . S
C721 C705 1.429 . S
C721 C717 1.429 . S
C721 C722 1.523 . S
C722 C706 1.368 . S
C722 C718 1.368 . S
C722 C721 1.523 . S
H723 C698 0.950 . S
H724 C700 0.950 . S
H725 C701 0.949 . S
H726 C703 0.950 . S
H727 C705 0.950 . S
C728 C729 1.349 . S
C728 C730 1.327 . S
C728 H753 0.950 . S
C729 C728 1.349 . S
C729 C745 1.349 . S
C730 C728 1.327 . S
C730 C749 1.429 . S
C730 H754 0.950 . S
C731 C748 1.574 . S
C731 C750 1.368 . S
C731 H755 0.949 . S
H732 C736 0.949 1_554 S
C733 C734 1.349 . S
C733 C735 1.327 . S
C733 H756 0.950 . S
C734 C733 1.349 . S
C734 C746 1.349 . S
C735 C733 1.327 . S
C735 C751 1.429 . S
C735 H757 0.950 . S
C736 H732 0.949 1_556 S
C736 C744 1.574 1_556 S
C736 C752 1.368 . S
H737 C745 0.950 1_556 S
H738 C743 0.950 . S
H739 C744 0.949 . S
H740 C746 0.950 . S
H741 C747 0.950 . S
H742 C748 0.949 . S
C743 H738 0.950 . S
C743 C745 1.327 1_556 S
C743 C749 1.429 1_556 S
C744 C736 1.574 1_554 S
C744 H739 0.949 . S
C744 C750 1.368 1_554 S
C745 C729 1.349 . S
C745 H737 0.950 1_554 S
C745 C743 1.327 1_554 S
C746 C734 1.349 . S
C746 H740 0.950 . S
C746 C747 1.327 . S
C747 H741 0.950 . S
C747 C746 1.327 . S
C747 C751 1.429 . S
C748 C731 1.574 . S
C748 H742 0.949 . S
C748 C752 1.368 . S
C749 C730 1.429 . S
C749 C743 1.429 1_554 S
C749 C750 1.523 1_554 S
C750 C731 1.368 . S
C750 C744 1.368 1_556 S
C750 C749 1.523 1_556 S
C751 C735 1.429 . S
C751 C747 1.429 . S
C751 C752 1.523 . S
C752 C736 1.368 . S
C752 C748 1.368 . S
C752 C751 1.523 . S
H753 C728 0.950 . S
H754 C730 0.950 . S
H755 C731 0.949 . S
H756 C733 0.950 . S
H757 C735 0.950 . S
C758 C759 1.372 . S
C758 C760 1.327 . S
C758 H783 0.950 . S
C759 C758 1.372 . S
C759 C775 1.328 1_544 S
C760 C758 1.327 . S
C760 C779 1.429 1_554 S
C760 H784 0.950 . S
C761 C778 1.574 . S
C761 C780 1.368 1_565 S
C761 H785 0.949 . S
H762 C766 0.949 . S
C763 C764 1.349 1_565 S
C763 C765 1.327 . S
C763 H786 0.950 . S
C764 C763 1.349 1_545 S
C764 C776 1.349 . S
C765 C763 1.327 . S
C765 C781 1.429 1_565 S
C765 H787 0.950 . S
C766 H762 0.949 . S
C766 C774 1.576 . S
C766 C782 1.368 . S
H767 C775 0.950 . S
H768 C773 0.950 . S
H769 C774 0.944 1_554 S
H770 C776 0.950 . S
H771 C777 0.950 . S
H772 C778 0.949 . S
C773 H768 0.950 . S
C773 C775 1.327 . S
C773 C779 1.429 1_565 S
C774 C766 1.576 . S
C774 H769 0.944 1_556 S
C774 C780 1.371 . S
C775 C759 1.328 1_566 S
C775 H767 0.950 . S
C775 C773 1.327 . S
C776 C764 1.349 . S
C776 H770 0.950 . S
C776 C777 1.327 . S
C777 H771 0.950 . S
C777 C776 1.327 . S
C777 C781 1.429 . S
C778 C761 1.574 . S
C778 H772 0.949 . S
C778 C782 1.368 1_565 S
C779 C760 1.429 1_556 S
C779 C773 1.429 1_545 S
C779 C780 1.523 . S
C780 C761 1.368 1_545 S
C780 C774 1.371 . S
C780 C779 1.523 . S
C781 C765 1.429 1_545 S
C781 C777 1.429 . S
C781 C782 1.523 . S
C782 C766 1.368 . S
C782 C778 1.368 1_545 S
C782 C781 1.523 . S
H783 C758 0.950 . S
H784 C760 0.950 . S
H785 C761 0.949 . S
H786 C763 0.950 . S
H787 C765 0.950 . S
C788 C789 1.349 . S
C788 C790 1.327 . S
C788 H813 0.950 . S
C789 C788 1.349 . S
C789 C805 1.349 . S
C790 C788 1.327 . S
C790 C809 1.429 . S
C790 H814 0.950 . S
C791 C808 1.574 . S
C791 C810 1.368 . S
C791 H815 0.949 . S
H792 C796 0.949 . S
C793 C794 1.349 . S
C793 C795 1.327 . S
C793 H816 0.950 . S
C794 C793 1.349 . S
C794 C806 1.349 . S
C795 C793 1.327 . S
C795 C811 1.429 . S
C795 H817 0.950 . S
C796 H792 0.949 . S
C796 C804 1.574 . S
C796 C812 1.368 . S
H797 C805 0.950 . S
H798 C803 0.950 . S
H799 C804 0.949 . S
H800 C806 0.950 . S
H801 C807 0.950 . S
H802 C808 0.949 . S
C803 H798 0.950 . S
C803 C805 1.327 . S
C803 C809 1.429 . S
C804 C796 1.574 . S
C804 H799 0.949 . S
C804 C810 1.368 . S
C805 C789 1.349 . S
C805 H797 0.950 . S
C805 C803 1.327 . S
C806 C794 1.349 . S
C806 H800 0.950 . S
C806 C807 1.327 . S
C807 H801 0.950 . S
C807 C806 1.327 . S
C807 C811 1.429 . S
C808 C791 1.574 . S
C808 H802 0.949 . S
C808 C812 1.368 . S
C809 C790 1.429 . S
C809 C803 1.429 . S
C809 C810 1.523 . S
C810 C791 1.368 . S
C810 C804 1.368 . S
C810 C809 1.523 . S
C811 C795 1.429 . S
C811 C807 1.429 . S
C811 C812 1.523 . S
C812 C796 1.368 . S
C812 C808 1.368 . S
C812 C811 1.523 . S
H813 C788 0.950 . S
H814 C790 0.950 . S
H815 C791 0.949 . S
H816 C793 0.950 . S
H817 C795 0.950 . S
C818 C819 1.349 1_556 S
C818 C820 1.327 . S
C818 H843 0.950 . S
C819 C818 1.349 1_554 S
C819 C835 1.349 . S
C820 C818 1.327 . S
C820 C839 1.429 . S
C820 H844 0.950 . S
C821 C838 1.574 1_554 S
C821 C840 1.368 1_554 S
C821 H845 0.949 . S
H822 C826 0.949 . S
C823 C824 1.349 . S
C823 C825 1.327 . S
C823 H846 0.950 . S
C824 C823 1.349 . S
C824 C836 1.349 . S
C825 C823 1.327 . S
C825 C841 1.429 . S
C825 H847 0.950 . S
C826 H822 0.949 . S
C826 C834 1.574 . S
C826 C842 1.368 . S
H827 C835 0.950 . S
H828 C833 0.950 . S
H829 C834 0.949 . S
H830 C836 0.950 . S
H831 C837 0.950 . S
H832 C838 0.949 1_554 S
C833 H828 0.950 . S
C833 C835 1.327 . S
C833 C839 1.429 1_554 S
C834 C826 1.574 . S
C834 H829 0.949 . S
C834 C840 1.368 . S
C835 C819 1.349 . S
C835 H827 0.950 . S
C835 C833 1.327 . S
C836 C824 1.349 . S
C836 H830 0.950 . S
C836 C837 1.327 . S
C837 H831 0.950 . S
C837 C836 1.327 . S
C837 C841 1.429 . S
C838 C821 1.574 1_556 S
C838 H832 0.949 1_556 S
C838 C842 1.368 . S
C839 C820 1.429 . S
C839 C833 1.429 1_556 S
C839 C840 1.523 . S
C840 C821 1.368 1_556 S
C840 C834 1.368 . S
C840 C839 1.523 . S
C841 C825 1.429 . S
C841 C837 1.429 . S
C841 C842 1.523 . S
C842 C826 1.368 . S
C842 C838 1.368 . S
C842 C841 1.523 . S
H843 C818 0.950 . S
H844 C820 0.950 . S
H845 C821 0.949 . S
H846 C823 0.950 . S
H847 C825 0.950 . S
C848 C849 1.349 . S
C848 C850 1.327 . S
C848 H873 0.950 . S
C849 C848 1.349 . S
C849 C865 1.349 . S
C850 C848 1.327 . S
C850 C869 1.429 . S
C850 H874 0.950 . S
C851 C868 1.574 . S
C851 C870 1.368 . S
C851 H875 0.949 1_655 S
H852 C856 0.949 . S
C853 C854 1.349 1_455 S
C853 C855 1.327 . S
C853 H876 0.950 . S
C854 C853 1.349 1_655 S
C854 C866 1.349 . S
C855 C853 1.327 . S
C855 C871 1.429 1_455 S
C855 H877 0.950 . S
C856 H852 0.949 . S
C856 C864 1.574 . S
C856 C872 1.368 . S
H857 C865 0.950 . S
H858 C863 0.976 . S
H859 C864 0.949 . S
H860 C866 0.950 . S
H861 C867 0.950 . S
H862 C868 0.949 1_455 S
C863 H858 0.976 . S
C863 C865 1.327 . S
C863 C869 1.429 . S
C864 C856 1.574 . S
C864 H859 0.949 . S
C864 C870 1.368 . S
C865 C849 1.349 . S
C865 H857 0.950 . S
C865 C863 1.327 . S
C866 C854 1.349 . S
C866 H860 0.950 . S
C866 C867 1.327 . S
C867 H861 0.950 . S
C867 C866 1.327 . S
C867 C871 1.429 . S
C868 C851 1.574 . S
C868 H862 0.949 1_655 S
C868 C872 1.368 . S
C869 C850 1.429 . S
C869 C863 1.429 . S
C869 C870 1.523 . S
C870 C851 1.368 . S
C870 C864 1.368 . S
C870 C869 1.523 . S
C871 C855 1.429 1_655 S
C871 C867 1.429 . S
C871 C872 1.523 . S
C872 C856 1.368 . S
C872 C868 1.368 . S
C872 C871 1.523 . S
H873 C848 0.950 . S
H874 C850 0.950 . S
H875 C851 0.949 1_455 S
H876 C853 0.950 . S
H877 C855 0.950 . S
C878 C879 1.332 1_545 S
C878 C880 1.327 . S
C878 H903 0.950 . S
C879 C878 1.332 1_565 S
C879 C895 1.367 . S
C880 C878 1.327 . S
C880 C899 1.429 1_545 S
C880 H904 0.950 . S
C881 C898 1.574 . S
C881 C900 1.368 . S
C881 H905 0.949 . S
H882 C886 0.949 . S
C883 C884 1.349 . S
C883 C885 1.327 . S
C883 H906 0.950 . S
C884 C883 1.349 . S
C884 C896 1.349 1_565 S
C885 C883 1.327 . S
C885 C901 1.429 . S
C885 H907 0.950 . S
C886 H882 0.949 . S
C886 C894 1.574 . S
C886 C902 1.368 1_545 S
H887 C895 0.950 . S
H888 C893 0.950 . S
H889 C894 0.949 . S
H890 C896 0.950 . S
H891 C897 0.950 . S
H892 C898 0.949 . S
C893 H888 0.950 . S
C893 C895 1.327 . S
C893 C899 1.429 . S
C894 C886 1.574 . S
C894 H889 0.949 . S
C894 C900 1.368 1_545 S
C895 C879 1.367 . S
C895 H887 0.950 . S
C895 C893 1.327 . S
C896 C884 1.349 1_545 S
C896 H890 0.950 . S
C896 C897 1.327 . S
C897 H891 0.950 . S
C897 C896 1.327 . S
C897 C901 1.429 1_545 S
C898 C881 1.574 . S
C898 H892 0.949 . S
C898 C902 1.368 . S
C899 C880 1.429 1_565 S
C899 C893 1.429 . S
C899 C900 1.523 . S
C900 C881 1.368 . S
C900 C894 1.368 1_565 S
C900 C899 1.523 . S
C901 C885 1.429 . S
C901 C897 1.429 1_565 S
C901 C902 1.523 . S
C902 C886 1.368 1_565 S
C902 C898 1.368 . S
C902 C901 1.523 . S
H903 C878 0.950 . S
H904 C880 0.950 . S
H905 C881 0.949 . S
H906 C883 0.950 . S
H907 C885 0.950 . S
C908 C909 1.349 . S
C908 C910 1.327 . S
C908 H933 0.950 . S
C909 C908 1.349 . S
C909 C925 1.349 . S
C910 C908 1.327 . S
C910 C929 1.429 . S
C910 H934 0.950 . S
C911 C928 1.574 . S
C911 C930 1.368 . S
C911 H935 0.949 . S
H912 C916 0.949 . S
C913 C914 1.349 . S
C913 C915 1.327 . S
C913 H936 0.950 . S
C914 C913 1.349 . S
C914 C926 1.349 . S
C915 C913 1.327 . S
C915 C931 1.429 . S
C915 H937 0.950 . S
C916 H912 0.949 . S
C916 C924 1.574 . S
C916 C932 1.368 . S
H917 C925 0.950 . S
H918 C923 0.950 . S
H919 C924 0.949 . S
H920 C926 0.950 . S
H921 C927 0.950 . S
H922 C928 0.949 . S
C923 H918 0.950 . S
C923 C925 1.327 . S
C923 C929 1.429 . S
C924 C916 1.574 . S
C924 H919 0.949 . S
C924 C930 1.368 . S
C925 C909 1.349 . S
C925 H917 0.950 . S
C925 C923 1.327 . S
C926 C914 1.349 . S
C926 H920 0.950 . S
C926 C927 1.327 . S
C927 H921 0.950 . S
C927 C926 1.327 . S
C927 C931 1.429 . S
C928 C911 1.574 . S
C928 H922 0.949 . S
C928 C932 1.368 . S
C929 C910 1.429 . S
C929 C923 1.429 . S
C929 C930 1.523 . S
C930 C911 1.368 . S
C930 C924 1.368 . S
C930 C929 1.523 . S
C931 C915 1.429 . S
C931 C927 1.429 . S
C931 C932 1.523 . S
C932 C916 1.368 . S
C932 C928 1.368 . S
C932 C931 1.523 . S
H933 C908 0.950 . S
H934 C910 0.950 . S
H935 C911 0.949 . S
H936 C913 0.950 . S
H937 C915 0.950 . S
C938 C939 1.349 . S
C938 C940 1.327 . S
C938 H963 0.950 . S
C939 C938 1.349 . S
C939 C955 1.349 . S
C940 C938 1.327 . S
C940 C959 1.429 . S
C940 H964 0.950 . S
C941 C958 1.574 . S
C941 C960 1.368 . S
C941 H965 0.949 . S
H942 C946 0.949 . S
C943 C944 1.349 . S
C943 C945 1.327 . S
C943 H966 0.950 . S
C944 C943 1.349 . S
C944 C956 1.349 . S
C945 C943 1.327 . S
C945 C961 1.429 . S
C945 H967 0.950 . S
C946 H942 0.949 . S
C946 C954 1.574 . S
C946 C962 1.368 . S
H947 C955 0.950 . S
H948 C953 0.950 . S
H949 C954 0.949 . S
H950 C956 0.950 . S
H951 C957 0.950 . S
H952 C958 0.949 . S
C953 H948 0.950 . S
C953 C955 1.327 . S
C953 C959 1.429 . S
C954 C946 1.574 . S
C954 H949 0.949 . S
C954 C960 1.368 . S
C955 C939 1.349 . S
C955 H947 0.950 . S
C955 C953 1.327 . S
C956 C944 1.349 . S
C956 H950 0.950 . S
C956 C957 1.327 . S
C957 H951 0.950 . S
C957 C956 1.327 . S
C957 C961 1.429 . S
C958 C941 1.574 . S
C958 H952 0.949 . S
C958 C962 1.368 . S
C959 C940 1.429 . S
C959 C953 1.429 . S
C959 C960 1.523 . S
C960 C941 1.368 . S
C960 C954 1.368 . S
C960 C959 1.523 . S
C961 C945 1.429 . S
C961 C957 1.429 . S
C961 C962 1.523 . S
C962 C946 1.368 . S
C962 C958 1.368 . S
C962 C961 1.523 . S
H963 C938 0.950 . S
H964 C940 0.950 . S
H965 C941 0.949 . S
H966 C943 0.950 . S
H967 C945 0.950 . S
C249 C74 1.691 . S
C254 C111 1.743 1_545 S
C284 C151 1.637 . S
C279 C85 1.648 . S
C314 C170 1.778 . S
C309 C52 1.722 . S
C344 C231 1.313 . S
C339 C63 1.290 . S
C374 C90 1.746 1_565 S
C369 C30 1.691 . S
C399 C41 1.622 . S
C404 C130 1.643 . S
C429 C8 1.717 . S
C434 C191 1.777 . S
C459 C19 1.266 . S
C464 C210 1.312 . S
C494 C92 0.722 . S
C489 C62 0.713 . S
C524 C132 0.292 . S
C519 C73 0.337 . S
C554 C188 0.703 . S
C549 C84 0.699 . S
C579 C51 0.331 . S
C584 C212 0.343 . S
C609 C18 0.726 . S
C614 C113 0.728 . S
C644 C153 0.292 . S
C639 C29 0.338 1_565 S
C674 C199 0.703 . S
C669 C40 0.709 . S
C699 C7 0.411 . S
C704 C233 0.343 . S
C729 C60 1.279 . S
C734 C108 1.560 . S
C759 C71 1.743 . S
C764 C148 2.173 . S
C794 C172 1.440 . S
C789 C82 1.213 . S
C824 C228 2.173 . S
C819 C49 1.729 . S
C849 C16 1.190 . S
C854 C119 1.585 . S
C884 C159 2.174 . S
C879 C27 1.743 1_565 S
C914 C193 1.441 . S
C909 C38 1.212 . S
C939 C5 1.764 . S
C944 C239 2.173 . S
