# Generated by pormake.
# Topology zzz, (3,6)-cn, num edge types: 1
# Building blocks:
#     Node 0, Type 0, BuildingBlock: WUSLED_clean_sbu_0, # of connection points: 3
#     Node 1, Type 0, BuildingBlock: WUSLED_clean_sbu_0, # of connection points: 3
#     Node 2, Type 0, BuildingBlock: WUSLED_clean_sbu_0, # of connection points: 3
#     Node 3, Type 0, BuildingBlock: WUSLED_clean_sbu_0, # of connection points: 3
#     Node 4, Type 0, BuildingBlock: WUSLED_clean_sbu_0, # of connection points: 3
#     Node 5, Type 0, BuildingBlock: WUSLED_clean_sbu_0, # of connection points: 3
#     Node 6, Type 0, BuildingBlock: WUSLED_clean_sbu_0, # of connection points: 3
#     Node 7, Type 0, BuildingBlock: WUSLED_clean_sbu_0, # of connection points: 3
#     Node 8, Type 1, BuildingBlock: BETDEL_clean_sbu_0, # of connection points: 6
#     Node 9, Type 1, BuildingBlock: BETDEL_clean_sbu_0, # of connection points: 6
#     Node 10, Type 1, BuildingBlock: BETDEL_clean_sbu_0, # of connection points: 6
#     Node 11, Type 1, BuildingBlock: BETDEL_clean_sbu_0, # of connection points: 6
#     Edge 12, Type (0, 1), BuildingBlock: UVAHIK_clean_linker_0, # of connection points: 2
#     Edge 13, Type (0, 1), BuildingBlock: UVAHIK_clean_linker_0, # of connection points: 2
#     Edge 14, Type (0, 1), BuildingBlock: UVAHIK_clean_linker_0, # of connection points: 2
#     Edge 15, Type (0, 1), BuildingBlock: UVAHIK_clean_linker_0, # of connection points: 2
#     Edge 16, Type (0, 1), BuildingBlock: UVAHIK_clean_linker_0, # of connection points: 2
#     Edge 17, Type (0, 1), BuildingBlock: UVAHIK_clean_linker_0, # of connection points: 2
#     Edge 18, Type (0, 1), BuildingBlock: UVAHIK_clean_linker_0, # of connection points: 2
#     Edge 19, Type (0, 1), BuildingBlock: UVAHIK_clean_linker_0, # of connection points: 2
#     Edge 20, Type (0, 1), BuildingBlock: UVAHIK_clean_linker_0, # of connection points: 2
#     Edge 21, Type (0, 1), BuildingBlock: UVAHIK_clean_linker_0, # of connection points: 2
#     Edge 22, Type (0, 1), BuildingBlock: UVAHIK_clean_linker_0, # of connection points: 2
#     Edge 23, Type (0, 1), BuildingBlock: UVAHIK_clean_linker_0, # of connection points: 2
#     Edge 24, Type (0, 1), BuildingBlock: UVAHIK_clean_linker_0, # of connection points: 2
#     Edge 25, Type (0, 1), BuildingBlock: UVAHIK_clean_linker_0, # of connection points: 2
#     Edge 26, Type (0, 1), BuildingBlock: UVAHIK_clean_linker_0, # of connection points: 2
#     Edge 27, Type (0, 1), BuildingBlock: UVAHIK_clean_linker_0, # of connection points: 2
#     Edge 28, Type (0, 1), BuildingBlock: UVAHIK_clean_linker_0, # of connection points: 2
#     Edge 29, Type (0, 1), BuildingBlock: UVAHIK_clean_linker_0, # of connection points: 2
#     Edge 30, Type (0, 1), BuildingBlock: UVAHIK_clean_linker_0, # of connection points: 2
#     Edge 31, Type (0, 1), BuildingBlock: UVAHIK_clean_linker_0, # of connection points: 2
#     Edge 32, Type (0, 1), BuildingBlock: UVAHIK_clean_linker_0, # of connection points: 2
#     Edge 33, Type (0, 1), BuildingBlock: UVAHIK_clean_linker_0, # of connection points: 2
#     Edge 34, Type (0, 1), BuildingBlock: UVAHIK_clean_linker_0, # of connection points: 2
#     Edge 35, Type (0, 1), BuildingBlock: UVAHIK_clean_linker_0, # of connection points: 2
# Relax obj value: 0.306
# Max RMSD: 0.219
# Mean RMSD: 0.201
data_MOF--net-zzz--node1-WUSLED_clean_sbu_0--node2-BETDEL_clean_sbu_0--edge1-UVAHIK_clean_linker_0
_symmetry_space_group_name_H-M    P1
_symmetry_Int_Tables_number       1
_symmetry_cell_setting            triclinic
loop_
_symmetry_equiv_pos_as_xyz
'x, y, z'
_cell_length_a     74.759882
_cell_length_b     72.772484
_cell_length_c     26.10194
_cell_angle_alpha  90.525208
_cell_angle_beta   90.059383
_cell_angle_gamma 95.719251
loop_
_atom_site_label
_atom_site_type_symbol
_atom_site_fract_x
_atom_site_fract_y
_atom_site_fract_z
_atom_type_partial_charge
C0 C 0.77943 0.44062 0.20825 0.0
C1 C 0.796 0.43778 0.18585 0.0
C2 C 0.81149 0.44703 0.26573 0.0
C3 C 0.81191 0.44088 0.21445 0.0
C4 C 0.79475 0.44928 0.28826 0.0
C5 C 0.77889 0.44611 0.25975 0.0
U6 U 0.75416 0.43526 0.08025 0.0
O7 O 0.72651 0.42318 0.06257 0.0
O8 O 0.73402 0.45307 0.05364 0.0
C9 C 0.72117 0.43939 0.05164 0.0
C10 C 0.76287 0.43974 0.1775 0.0
C11 C 0.70656 0.44057 0.0144 0.0
C12 C 0.67627 0.44881 1.00042 0.0
C13 C 0.69034 0.4459 0.03344 0.0
C14 C 0.69416 0.44042 0.92812 0.0
C15 C 0.67806 0.4464 0.94733 0.0
C16 C 0.70843 0.43764 0.96151 0.0
C17 C 0.7855 0.42671 0.96278 0.0
C18 C 0.78899 0.43911 0.87691 0.0
C19 C 0.80918 0.41757 0.90752 0.0
C20 C 0.79976 0.41603 0.95359 0.0
C21 C 0.8045 0.42988 0.86968 0.0
C22 C 0.77958 0.4376 0.9233 0.0
C23 C 0.77988 0.42896 0.0162 0.0
O24 O 0.76218 0.45344 0.14551 0.0
O25 O 0.75712 0.42361 0.15724 0.0
O26 O 0.76928 0.41558 0.03712 0.0
O27 O 0.77642 0.4456 0.03059 0.0
H28 H 0.79668 0.43373 0.14591 0.0
H29 H 0.82458 0.43919 0.19581 0.0
H30 H 0.79393 0.45375 0.32781 0.0
H31 H 0.76621 0.44845 0.27755 0.0
H32 H 0.66399 0.45312 0.0165 0.0
H33 H 0.68865 0.44821 0.07417 0.0
H34 H 0.69591 0.43849 0.88731 0.0
H35 H 0.72091 0.43357 0.94611 0.0
H36 H 0.78487 0.44848 0.84816 0.0
H37 H 0.82114 0.4104 0.90375 0.0
H38 H 0.80461 0.40764 0.98374 0.0
H39 H 0.76853 0.44592 0.92959 0.0
C40 C 0.93637 0.77938 0.1973 0.0
C41 C 0.93776 0.79673 0.17378 0.0
C42 C 0.94188 0.81214 0.25698 0.0
C43 C 0.94054 0.81291 0.20322 0.0
C44 C 0.94002 0.79466 0.2804 0.0
C45 C 0.93735 0.77844 0.25078 0.0
U46 U 0.931 0.758 0.06631 0.0
O47 O 0.94624 0.7371 0.029 0.0
O48 O 0.91635 0.73254 0.03451 0.0
C49 C 0.93142 0.7264 0.0189 0.0
C50 C 0.93488 0.76242 0.16565 0.0
C51 C 0.93167 0.70857 0.99222 0.0
C52 C 0.94328 0.67862 0.98509 0.0
C53 C 0.94096 0.69463 0.01343 0.0
C54 C 0.92688 0.6903 0.91425 0.0
C55 C 0.93668 0.67659 0.93477 0.0
C56 C 0.92423 0.70611 0.94301 0.0
C57 C 0.92627 0.79491 0.96177 0.0
C58 C 0.93089 0.79313 0.86981 0.0
C59 C 0.92127 0.82091 0.90853 0.0
C60 C 0.92116 0.81274 0.95643 0.0
C61 C 0.92652 0.8114 0.86475 0.0
C62 C 0.93072 0.78488 0.91819 0.0
C63 C 0.92812 0.78808 0.01385 0.0
O64 O 0.91917 0.75805 0.1437 0.0
O65 O 0.94843 0.76113 0.13427 0.0
O66 O 0.94363 0.78211 0.02542 0.0
O67 O 0.91419 0.77793 0.03261 0.0
H68 H 0.9371 0.79774 0.13244 0.0
H69 H 0.94219 0.826 0.18354 0.0
H70 H 0.94068 0.79346 0.32165 0.0
H71 H 0.93629 0.76517 0.2696 0.0
H72 H 0.95102 0.66829 1.0014 0.0
H73 H 0.94688 0.69639 0.05128 0.0
H74 H 0.92177 0.68902 0.87539 0.0
H75 H 0.91715 0.71682 0.9259 0.0
H76 H 0.93505 0.78552 0.83677 0.0
H77 H 0.91835 0.83517 0.90649 0.0
H78 H 0.91784 0.8207 0.9898 0.0
H79 H 0.93467 0.77103 0.92183 0.0
C80 C 0.74347 0.02084 0.22057 0.0
C81 C 0.72799 0.0284 0.20329 0.0
C82 C 0.71233 0.01982 0.28257 0.0
C83 C 0.71267 0.02799 0.23396 0.0
C84 C 0.72783 0.0122 0.29991 0.0
C85 C 0.74329 0.01273 0.26914 0.0
U86 U 0.75636 0.01845 0.08551 0.0
O87 O 0.77788 0.03128 0.03616 0.0
O88 O 0.77253 1.00088 0.03893 0.0
C89 C 0.78184 0.01521 0.01827 0.0
C90 C 0.75877 0.01977 0.18515 0.0
C91 C 0.8003 0.01327 1.00134 0.0
C92 C 0.83277 0.02023 0.00601 0.0
C93 C 0.81562 0.02143 0.02707 0.0
C94 C 0.81922 1.00286 0.93384 0.0
C95 C 0.83473 1.01092 0.959 0.0
C96 C 0.80228 1.00397 0.95487 0.0
C97 C 0.7153 0.01657 0.99888 0.0
C98 C 0.71643 1.00957 0.90785 0.0
C99 C 0.68788 0.0127 0.94965 0.0
C100 C 0.69667 0.01647 0.99601 0.0
C101 C 0.69762 1.00894 0.90536 0.0
C102 C 0.72526 0.01324 0.95469 0.0
C103 C 0.72379 0.0187 0.04913 0.0
O104 O 0.75831 1.00418 0.15911 0.0
O105 O 0.76261 0.03443 0.15643 0.0
O106 O 0.73459 0.03387 0.0568 0.0
O107 O 0.73026 1.00376 0.06584 0.0
H108 H 0.72758 0.03431 0.16542 0.0
H109 H 0.70088 0.03363 0.21893 0.0
H110 H 0.728 1.00583 0.33722 0.0
H111 H 0.75495 1.00652 0.28285 0.0
H112 H 0.84445 0.02658 0.02637 0.0
H113 H 0.81432 0.02885 0.06282 0.0
H114 H 0.82008 0.99607 0.89695 0.0
H115 H 0.79057 0.9979 0.93396 0.0
H116 H 0.72418 1.00699 0.87395 0.0
H117 H 0.67341 0.01289 0.94834 0.0
H118 H 0.68886 0.01904 0.02983 0.0
H119 H 0.73973 0.01321 0.95668 0.0
C120 C 0.60312 0.74649 0.23442 0.0
C121 C 0.60151 0.72961 0.20754 0.0
C122 C 0.59742 0.71269 0.28782 0.0
C123 C 0.59866 0.7129 0.23392 0.0
C124 C 0.59974 0.72969 0.31453 0.0
C125 C 0.60249 0.7464 0.28806 0.0
U126 U 0.60789 0.77382 0.11036 0.0
O127 O 0.59088 0.79485 0.08467 0.0
O128 O 0.61998 0.80215 0.09356 0.0
C129 C 0.60439 0.80778 0.08098 0.0
C130 C 0.60389 0.76417 0.20687 0.0
C131 C 0.60374 0.82088 0.03824 0.0
C132 C 0.60306 0.85294 0.01304 0.0
C133 C 0.6065 0.83981 0.04963 0.0
C134 C 0.59487 0.82839 0.95171 0.0
C135 C 0.59679 0.84745 0.96383 0.0
C136 C 0.59823 0.81522 0.98864 0.0
C137 C 0.61548 0.73991 0.99401 0.0
C138 C 0.60356 0.73523 0.90788 0.0
C139 C 0.6216 0.71284 0.94477 0.0
C140 C 0.62414 0.72381 0.98872 0.0
C141 C 0.6104 0.71787 0.90495 0.0
C142 C 0.6059 0.7461 0.95241 0.0
C143 C 0.61348 0.74714 0.04615 0.0
O144 O 0.61951 0.77032 0.18716 0.0
O145 O 0.59041 0.7656 0.1754 0.0
O146 O 0.59739 0.75118 0.05965 0.0
O147 O 0.62672 0.75802 0.06671 0.0
H148 H 0.60188 0.72939 0.16604 0.0
H149 H 0.59673 0.7002 0.21181 0.0
H150 H 0.59923 0.73015 0.35597 0.0
H151 H 0.6037 0.75928 0.30949 0.0
H152 H 0.60449 0.86736 0.02434 0.0
H153 H 0.61055 0.84448 0.08785 0.0
H154 H 0.5904 0.82361 0.91398 0.0
H155 H 0.59597 0.80066 0.97898 0.0
H156 H 0.59529 0.7398 0.87735 0.0
H157 H 0.62704 0.6996 0.94449 0.0
H158 H 0.63152 0.71879 0.02059 0.0
H159 H 0.59917 0.75857 0.95571 0.0
C160 C 0.24553 0.57351 0.95179 0.0
C161 C 0.23054 0.58196 0.96907 0.0
C162 C 0.21274 0.56874 0.89668 0.0
C163 C 0.21433 0.57968 0.94163 0.0
C164 C 0.22795 0.56059 0.87924 0.0
C165 C 0.24415 0.56298 0.9065 0.0
U166 U 0.27081 0.57858 0.07939 0.0
O167 O 0.29221 0.56208 0.10488 0.0
O168 O 0.29766 0.59235 0.09927 0.0
C169 C 0.30413 0.57656 0.10884 0.0
C170 C 0.2623 0.57448 0.98191 0.0
C171 C 0.31884 0.57591 0.14625 0.0
C172 C 0.34842 0.5661 0.16272 0.0
C173 C 0.33413 0.56795 0.1295 0.0
C174 C 0.33269 0.58071 0.23051 0.0
C175 C 0.34783 0.57215 0.21386 0.0
C176 C 0.31821 0.58252 0.19691 0.0
C177 C 0.23713 0.58585 0.19369 0.0
C178 C 0.23282 0.57659 0.28243 0.0
C179 C 0.21309 0.59704 0.24372 0.0
C180 C 0.2227 0.59662 0.19817 0.0
C181 C 0.21771 0.58667 0.28603 0.0
C182 C 0.24248 0.57617 0.23644 0.0
C183 C 0.24421 0.58315 0.14198 0.0
O184 O 0.26783 0.59054 0.00292 0.0
O185 O 0.26351 0.56057 0.01295 0.0
O186 O 0.2492 0.56684 0.12986 0.0
O187 O 0.25399 0.59705 0.12075 0.0
H188 H 0.23127 0.59008 0.00415 0.0
H189 H 0.20302 0.5864 0.95588 0.0
H190 H 0.22722 0.55184 0.84538 0.0
H191 H 0.25552 0.55621 0.89281 0.0
H192 H 0.35996 0.55977 0.14835 0.0
H193 H 0.33495 0.56292 0.09043 0.0
H194 H 0.33184 0.58548 0.26977 0.0
H195 H 0.30653 0.58876 0.21055 0.0
H196 H 0.23671 0.56849 0.31444 0.0
H197 H 0.20129 0.60455 0.2445 0.0
H198 H 0.21817 0.60393 0.16533 0.0
H199 H 0.25355 0.56768 0.23364 0.0
C200 C 0.09492 0.24701 0.96786 0.0
C201 C 0.10057 0.23039 0.98581 0.0
C202 C 0.08875 0.21404 0.90901 0.0
C203 C 0.09759 0.21412 0.9567 0.0
C204 C 0.0836 0.23088 0.89049 0.0
C205 C 0.08662 0.24719 0.91972 0.0
U206 U 0.10216 0.26533 0.10057 0.0
O207 O 0.11577 0.29064 0.1365 0.0
O208 O 0.08676 0.28274 0.14982 0.0
C209 C 0.10108 0.29403 0.16109 0.0
C210 C 0.09608 0.26348 1.00175 0.0
C211 C 0.09889 0.31266 0.18086 0.0
C212 C 0.09001 0.34377 0.17293 0.0
C213 C 0.09317 0.32675 0.15045 0.0
C214 C 0.09837 0.33259 0.25581 0.0
C215 C 0.0924 0.34683 0.22615 0.0
C216 C 0.10165 0.31581 0.23337 0.0
C217 C 0.1105 0.22755 0.19644 0.0
C218 C 0.10469 0.2293 0.28777 0.0
C219 C 0.11386 0.20118 0.24991 0.0
C220 C 0.11511 0.20956 0.20217 0.0
C221 C 0.10794 0.21068 0.29297 0.0
C222 C 0.10592 0.23769 0.23967 0.0
C223 C 0.1082 0.23433 0.1445 0.0
O224 O 0.08315 0.26322 0.03589 0.0
O225 O 0.11206 0.26862 0.02129 0.0
O226 O 0.12115 0.24605 0.12671 0.0
O227 O 0.09204 0.2389 0.13426 0.0
H228 H 0.10691 0.22988 0.02306 0.0
H229 H 0.10205 0.20155 0.97192 0.0
H230 H 0.07661 0.23137 0.85426 0.0
H231 H 0.08198 0.25981 0.90539 0.0
H232 H 0.0856 0.35445 0.14871 0.0
H233 H 0.09092 0.32452 0.10977 0.0
H234 H 0.09996 0.33408 0.29691 0.0
H235 H 0.1059 0.305 0.25754 0.0
H236 H 0.10025 0.23703 0.32022 0.0
H237 H 0.11613 0.18674 0.25191 0.0
H238 H 0.11856 0.20154 0.16906 0.0
H239 H 0.10234 0.25167 0.23572 0.0
C240 C 0.28335 0.01784 0.93926 0.0
C241 C 0.30023 0.02564 0.95658 0.0
C242 C 0.31419 0.0168 0.87706 0.0
C243 C 0.31544 0.02517 0.92586 0.0
C244 C 0.29724 1.00899 0.85963 0.0
C245 C 0.28192 1.00952 0.89054 0.0
U246 U 0.26936 0.02219 0.07377 0.0
O247 O 0.2477 0.03426 0.11521 0.0
O248 O 0.25159 1.0048 0.12518 0.0
C249 C 0.24258 0.01869 0.13867 0.0
C250 C 0.26791 0.01708 0.97456 0.0
C251 C 0.22363 0.01483 0.15375 0.0
C252 C 0.19221 0.02089 0.15044 0.0
C253 C 0.20954 0.0227 0.12919 0.0
C254 C 0.20295 1.00317 0.22017 0.0
C255 C 0.18878 1.01128 0.19662 0.0
C256 C 0.22009 1.00488 0.19889 0.0
C257 C 0.30765 0.0316 0.16758 0.0
C258 C 0.30582 0.02059 0.25504 0.0
C259 C 0.3324 0.03944 0.22604 0.0
C260 C 0.32458 0.04085 0.17789 0.0
C261 C 0.32342 0.02857 0.26417 0.0
C262 C 0.29792 0.0222 0.20705 0.0
C263 C 0.30119 0.02995 0.11462 0.0
O264 O 0.26731 1.00336 0.0071 0.0
O265 O 0.26515 0.03293 0.99652 0.0
O266 O 0.29131 0.04279 0.09913 0.0
O267 O 0.29472 0.01318 0.10104 0.0
H268 H 0.30173 0.0318 0.99448 0.0
H269 H 0.3283 0.03098 0.94096 0.0
H270 H 0.29583 1.0025 0.82214 0.0
H271 H 0.26905 1.00322 0.87678 0.0
H272 H 0.18158 0.02721 0.13116 0.0
H273 H 0.21203 0.03063 0.09457 0.0
H274 H 0.20102 0.9961 0.25638 0.0
H275 H 0.23085 0.99906 0.21909 0.0
H276 H 0.29867 0.01212 0.28385 0.0
H277 H 0.34609 0.04551 0.23188 0.0
H278 H 0.33222 0.04818 0.14782 0.0
H279 H 0.28471 0.01509 0.19976 0.0
C280 C 0.41797 0.27689 0.92861 0.0
C281 C 0.4146 0.29377 0.95136 0.0
C282 C 0.42543 0.31036 0.87444 0.0
C283 C 0.4182 0.31037 0.92436 0.0
C284 C 0.42811 0.29328 0.85145 0.0
C285 C 0.42443 0.27679 0.87824 0.0
U286 U 0.41285 0.24721 0.05187 0.0
O287 O 0.39995 0.21885 0.06444 0.0
O288 O 0.42929 0.22464 0.06803 0.0
C289 C 0.4154 0.2123 0.07371 0.0
C290 C 0.41645 0.25938 0.95729 0.0
C291 C 0.41645 0.19966 0.11744 0.0
C292 C 0.41714 0.16795 0.14574 0.0
C293 C 0.41308 0.18061 0.10847 0.0
C294 C 0.42707 0.19323 0.20312 0.0
C295 C 0.42466 0.17403 0.19318 0.0
C296 C 0.42307 0.20591 0.16557 0.0
C297 C 0.40754 0.28348 0.16854 0.0
C298 C 0.41273 0.29157 0.25802 0.0
C299 C 0.40498 0.31472 0.1979 0.0
C300 C 0.40358 0.30148 0.15879 0.0
C301 C 0.41011 0.3101 0.24782 0.0
C302 C 0.41167 0.27841 0.21846 0.0
C303 C 0.40931 0.2708 0.12554 0.0
O304 O 0.43004 0.25714 0.98767 0.0
O305 O 0.40079 0.25377 0.97768 0.0
O306 O 0.39528 0.26235 0.10166 0.0
O307 O 0.42514 0.26652 0.11032 0.0
H308 H 0.4097 0.29417 0.99037 0.0
H309 H 0.41605 0.32325 0.94335 0.0
H310 H 0.43335 0.29268 0.81287 0.0
H311 H 0.42713 0.26392 0.85998 0.0
H312 H 0.41523 0.15338 0.13612 0.0
H313 H 0.40812 0.17548 0.07147 0.0
H314 H 0.43245 0.1985 0.23948 0.0
H315 H 0.42579 0.22057 0.17342 0.0
H316 H 0.41625 0.28735 0.29606 0.0
H317 H 0.40314 0.3288 0.18788 0.0
H318 H 0.40046 0.30559 0.12025 0.0
H319 H 0.41467 0.26446 0.22647 0.0
Dy320 Dy 0.01818 1.00086 0.62949 0.0
C321 C 0.00891 0.05431 0.46938 0.0
C322 C 0.01037 0.97572 0.70415 0.0
Dy323 Dy 0.00717 0.02641 0.53794 0.0
O324 O 0.02621 0.97942 0.68396 0.0
O325 O 0.99928 0.98658 0.68558 0.0
O326 O 0.04515 0.99451 0.59748 0.0
O327 O 0.02874 1.01081 0.55808 0.0
C328 C 0.04344 1.00391 0.55581 0.0
C329 C 0.98203 0.01638 0.6073 0.0
O330 O 1.00109 0.99888 0.49958 0.0
O331 O 1.00239 0.98157 0.57423 0.0
O332 O 0.99933 0.05354 0.51091 0.0
O333 O 0.01664 0.03917 0.46385 0.0
O334 O 0.97819 0.01918 0.55945 0.0
O335 O 0.99855 0.02042 0.61546 0.0
O336 O 0.02801 0.02798 0.66483 0.0
O337 O 0.02507 0.04531 0.59047 0.0
C338 C 0.99875 0.98301 0.52465 0.0
C339 C 0.0303 0.04374 0.63905 0.0
Dy340 Dy 0.50346 0.99731 0.54971 0.0
C341 C 0.54663 0.04811 0.66814 0.0
C342 C 0.47797 0.97683 0.49349 0.0
Dy343 Dy 0.52201 0.0272 0.60994 0.0
O344 O 0.47831 0.97801 0.54312 0.0
O345 O 0.49228 0.98595 0.47513 0.0
O346 O 0.52929 0.98655 0.52689 0.0
O347 O 0.52835 0.01523 0.53611 0.0
C348 C 0.53852 1.00265 0.52753 0.0
C349 C 0.48692 0.02203 0.63182 0.0
O350 O 0.51393 0.04508 0.54665 0.0
O351 O 0.4926 0.02252 0.5166 0.0
O352 O 0.53246 0.03842 0.68536 0.0
O353 O 0.54672 0.04706 0.61845 0.0
O354 O 0.49629 0.03804 0.63233 0.0
O355 O 0.49702 1.00935 0.6235 0.0
O356 O 0.51165 0.97945 0.61275 0.0
O357 O 0.53307 1.00197 0.64262 0.0
C358 C 0.50007 0.0398 0.51662 0.0
C359 C 0.52556 0.98469 0.6426 0.0
Dy360 Dy 0.51234 0.5237 0.63275 0.0
C361 C 0.4956 0.47729 0.45912 0.0
C362 C 0.52453 0.54902 0.70554 0.0
Dy363 Dy 0.51351 0.49875 0.5316 0.0
O364 O 0.5082 0.54703 0.68765 0.0
O365 O 0.53366 0.53656 0.6856 0.0
O366 O 0.48298 0.52608 0.61675 0.0
O367 O 0.50084 0.52295 0.5563 0.0
C368 C 0.48457 0.52392 0.56736 0.0
C369 C 0.53939 0.49151 0.59844 0.0
O370 O 0.52746 0.52505 0.49944 0.0
O371 O 0.529 0.54168 0.57701 0.0
O372 O 0.51311 0.48038 0.46138 0.0
O373 O 0.4883 0.4869 0.49405 0.0
O374 O 0.53736 0.48339 0.55381 0.0
O375 O 0.52781 0.50285 0.60222 0.0
O376 O 0.50271 0.49631 0.66651 0.0
O377 O 0.49569 0.48198 0.58769 0.0
C378 C 0.53256 0.54017 0.52721 0.0
C379 C 0.49518 0.48222 0.63861 0.0
Dy380 Dy 1.004 0.4986 0.62499 0.0
C381 C 0.04623 0.5297 0.45756 0.0
C382 C 0.9793 0.48388 0.69344 0.0
Dy383 Dy 0.02068 0.5215 0.52968 0.0
O384 O 0.98632 0.47477 0.65687 0.0
O385 O 0.9867 0.50081 0.69453 0.0
O386 O 0.02334 0.47746 0.60835 0.0
O387 O 0.01337 0.49269 0.54842 0.0
C388 C 0.02408 0.48101 0.55949 0.0
C389 C 1.00616 0.54373 0.59791 0.0
O390 O 0.99436 0.511 0.49395 0.0
O391 O 0.9808 0.50066 0.57067 0.0
O392 O 0.03263 0.53923 0.46586 0.0
O393 O 0.04499 0.51516 0.48627 0.0
O394 O 0.01356 0.54974 0.55533 0.0
O395 O 0.00718 0.52663 0.59968 0.0
O396 O 0.02879 0.51195 0.66319 0.0
O397 O 0.0432 0.52129 0.58709 0.0
C398 C 0.98009 0.50423 0.52078 0.0
C399 C 0.04324 0.51878 0.63746 0.0
C400 C 0.16117 0.02601 0.22482 0.0
C401 C 0.17094 1.01044 0.22245 0.0
C402 C 0.14583 0.02593 0.25571 0.0
C403 C 0.12854 1.00519 0.3738 0.0
H404 H 0.08206 0.02036 0.33623 0.0
C405 C 0.06881 0.99216 0.50892 0.0
C406 C 0.0566 1.00549 0.51363 0.0
C407 C 0.08179 0.99347 0.4705 0.0
C408 C 0.09504 0.01633 0.34752 0.0
H409 H 0.17127 0.98209 0.24731 0.0
H410 H 0.14492 0.98219 0.3019 0.0
H411 H 0.10623 0.02135 0.27244 0.0
H412 H 0.04844 0.03078 0.48237 0.0
H413 H 0.07144 0.03337 0.41515 0.0
H414 H 0.11785 1.00056 0.44876 0.0
C415 C 0.14925 0.9945 0.2804 0.0
C416 C 0.10882 0.01684 0.31093 0.0
C417 C 0.16438 0.99449 0.24923 0.0
C418 C 0.05751 0.02016 0.47887 0.0
C419 C 0.0707 0.02162 0.44049 0.0
C420 C 0.11494 1.00489 0.41033 0.0
C421 C 0.1401 1.01037 0.28508 0.0
C422 C 0.12559 1.01091 0.32358 0.0
C423 C 0.08316 1.00837 0.43626 0.0
C424 C 0.09787 1.01007 0.39753 0.0
H425 H 0.16588 0.03857 0.20498 0.0
H426 H 0.139 0.03835 0.2587 0.0
H427 H 0.14148 1.00096 0.38494 0.0
H428 H 0.06829 0.98061 0.53495 0.0
H429 H 0.09079 0.98273 0.46772 0.0
C430 C 0.44707 0.16486 0.25836 0.0
C431 C 0.43112 0.16047 0.23018 0.0
C432 C 0.45395 0.15179 0.28995 0.0
C433 C 0.44214 0.10645 0.35409 0.0
H434 H 0.49394 0.10618 0.36025 0.0
C435 C 0.47666 0.0482 0.45395 0.0
C436 C 0.49215 0.05347 0.48345 0.0
C437 C 0.46899 0.06101 0.42317 0.0
C438 C 0.47945 0.10616 0.35947 0.0
H439 H 0.40967 0.13873 0.21506 0.0
H440 H 0.42195 0.11581 0.26868 0.0
H441 H 0.48088 0.12869 0.30715 0.0
H442 H 0.51165 0.0765 0.50338 0.0
H443 H 0.49826 0.09883 0.44984 0.0
H444 H 0.4408 0.08369 0.40603 0.0
C445 C 0.42906 0.1295 0.26686 0.0
C446 C 0.47192 0.11915 0.329 0.0
C447 C 0.4221 0.14264 0.23548 0.0
C448 C 0.49978 0.0719 0.48115 0.0
C449 C 0.49213 0.08471 0.45018 0.0
C450 C 0.4497 0.09338 0.38439 0.0
C451 C 0.44522 0.1338 0.29415 0.0
C452 C 0.45315 0.11962 0.32612 0.0
C453 C 0.47661 0.07945 0.4208 0.0
C454 C 0.46847 0.09314 0.38779 0.0
H455 H 0.4546 0.17829 0.25502 0.0
H456 H 0.46622 0.15582 0.31101 0.0
H457 H 0.42766 0.10644 0.35346 0.0
H458 H 0.47039 0.03413 0.45458 0.0
H459 H 0.45718 0.05638 0.40068 0.0
C460 C 0.37051 0.58226 0.28314 0.0
C461 C 0.36268 0.56856 0.24947 0.0
C462 C 0.38488 0.57868 0.31511 0.0
C463 C 0.41892 0.54463 0.33454 0.0
H464 H 0.4212 0.5649 0.47237 0.0
C465 C 0.47541 0.53002 0.47712 0.0
C466 C 0.47089 0.52822 0.52924 0.0
C467 C 0.46307 0.53571 0.44161 0.0
C468 C 0.42068 0.55893 0.4342 0.0
H469 H 0.36355 0.54025 0.22391 0.0
H470 H 0.38797 0.53384 0.28005 0.0
H471 H 0.39838 0.57359 0.41343 0.0
H472 H 0.44971 0.53047 0.58471 0.0
H473 H 0.42796 0.53982 0.52279 0.0
H474 H 0.44065 0.52927 0.35605 0.0
C475 C 0.38359 0.54757 0.28096 0.0
C476 C 0.40772 0.56419 0.39994 0.0
C477 C 0.36943 0.55121 0.24886 0.0
C478 C 0.4536 0.53178 0.54485 0.0
C479 C 0.44121 0.53736 0.50931 0.0
C480 C 0.43175 0.53922 0.36896 0.0
C481 C 0.3916 0.56123 0.31456 0.0
C482 C 0.40643 0.55689 0.34981 0.0
C483 C 0.44581 0.53964 0.45723 0.0
C484 C 0.43267 0.54607 0.4196 0.0
H485 H 0.36576 0.59585 0.28408 0.0
H486 H 0.39081 0.58966 0.33984 0.0
H487 H 0.41871 0.539 0.29599 0.0
H488 H 0.48867 0.52745 0.46389 0.0
H489 H 0.46727 0.53745 0.40212 0.0
C490 C 0.09749 0.37126 0.29526 0.0
C491 C 0.08782 0.36423 0.25183 0.0
C492 C 0.09181 0.38596 0.32374 0.0
C493 C 0.05083 0.41009 0.34708 0.0
H494 H 0.0839 0.443 0.42817 0.0
C495 C 0.02776 0.47011 0.46937 0.0
C496 C 0.0332 0.47023 0.52095 0.0
C497 C 0.03531 0.45879 0.43342 0.0
C498 C 0.07453 0.43387 0.40576 0.0
H499 H 0.06507 0.36815 0.20285 0.0
H500 H 0.0558 0.39443 0.25059 0.0
H501 H 0.09564 0.42114 0.3686 0.0
H502 H 0.05125 0.45924 0.57503 0.0
H503 H 0.06484 0.43976 0.51176 0.0
H504 H 0.02976 0.42319 0.38381 0.0
C505 C 0.06741 0.38807 0.26397 0.0
C506 C 0.08122 0.42125 0.37172 0.0
C507 C 0.07294 0.37313 0.2359 0.0
C508 C 0.04679 0.45934 0.53554 0.0
C509 C 0.05459 0.44827 0.49934 0.0
C510 C 0.04418 0.42294 0.38042 0.0
C511 C 0.07646 0.39438 0.30915 0.0
C512 C 0.06946 0.40895 0.34239 0.0
C513 C 0.0487 0.44764 0.4481 0.0
C514 C 0.05593 0.43479 0.41062 0.0
H515 H 0.1093 0.36513 0.30818 0.0
H516 H 0.09914 0.3902 0.35833 0.0
H517 H 0.04126 0.40069 0.32623 0.0
H518 H 0.01731 0.47838 0.45703 0.0
H519 H 0.03061 0.45867 0.39414 0.0
C520 C 0.86545 0.02551 0.93343 0.0
C521 C 0.8526 1.01001 0.93437 0.0
C522 C 0.88102 0.0253 0.90358 0.0
C523 C 0.89522 1.00504 0.78535 0.0
H524 H 0.94419 0.01947 0.82888 0.0
C525 C 0.95354 1.00112 0.6434 0.0
C526 C 0.96854 0.01413 0.64826 0.0
C527 C 0.94045 0.99952 0.68178 0.0
C528 C 0.9306 0.01569 0.81564 0.0
H529 H 0.84686 0.98162 0.90822 0.0
H530 H 0.87363 0.98153 0.85524 0.0
H531 H 0.91975 0.01947 0.89081 0.0
H532 H 0.98186 0.03572 0.69627 0.0
H533 H 0.95849 0.03403 0.76134 0.0
H534 H 0.90551 1.00216 0.71001 0.0
C535 C 0.87157 0.99387 0.8771 0.0
C536 C 0.91662 0.01558 0.8514 0.0
C537 C 0.85621 0.99398 0.90731 0.0
C538 C 0.97038 0.02547 0.69202 0.0
C539 C 0.95701 0.02435 0.72956 0.0
C540 C 0.90906 1.00554 0.74942 0.0
C541 C 0.88388 1.00966 0.87388 0.0
C542 C 0.89884 1.0101 0.83659 0.0
C543 C 0.94175 1.01141 0.72497 0.0
C544 C 0.92702 1.01074 0.76394 0.0
H545 H 0.86307 0.03811 0.95358 0.0
H546 H 0.89033 0.03767 0.90164 0.0
H547 H 0.88156 1.00102 0.77279 0.0
H548 H 0.95204 0.99207 0.61014 0.0
H549 H 0.92929 0.98895 0.6773 0.0
C550 C 0.57593 0.85749 0.89568 0.0
C551 C 0.59121 0.86148 0.92692 0.0
C552 C 0.56988 0.87096 0.86378 0.0
C553 C 0.57217 0.92178 0.84651 0.0
H554 H 0.55201 0.90804 0.71309 0.0
C555 C 0.54916 0.97591 0.7043 0.0
C556 C 0.53348 0.9709 0.67536 0.0
C557 C 0.55683 0.96288 0.73439 0.0
C558 C 0.55739 0.91212 0.75048 0.0
H559 H 0.61236 0.88292 0.94745 0.0
H560 H 0.60176 0.90638 0.89201 0.0
H561 H 0.5645 0.8849 0.76534 0.0
H562 H 0.51353 0.94819 0.65617 0.0
H563 H 0.52669 0.92561 0.70908 0.0
H564 H 0.56496 0.94902 0.83166 0.0
C565 C 0.5943 0.89284 0.89279 0.0
C566 C 0.5646 0.8988 0.78052 0.0
C567 C 0.6004 0.87934 0.92462 0.0
C568 C 0.52563 0.95255 0.67766 0.0
C569 C 0.53329 0.93954 0.70783 0.0
C570 C 0.56494 0.93512 0.81642 0.0
C571 C 0.57887 0.88889 0.86212 0.0
C572 C 0.57194 0.90337 0.82919 0.0
C573 C 0.54905 0.94447 0.73647 0.0
C574 C 0.55728 0.93044 0.76813 0.0
H575 H 0.56823 0.84409 0.89699 0.0
H576 H 0.55778 0.86744 0.84147 0.0
H577 H 0.5775 0.92582 0.88399 0.0
H578 H 0.55565 0.9899 0.70346 0.0
H579 H 0.56907 0.9672 0.75534 0.0
C580 C 0.65513 0.46731 0.9205 0.0
C581 C 0.66329 0.4509 0.91278 0.0
C582 C 0.64091 0.47155 0.88943 0.0
C583 C 0.60536 0.45087 0.80232 0.0
H584 H 0.60631 0.50058 0.74945 0.0
C585 C 0.55915 0.46962 0.63694 0.0
C586 C 0.55236 0.48693 0.63812 0.0
C587 C 0.5716 0.46508 0.67364 0.0
C588 C 0.60563 0.48671 0.76448 0.0
H589 H 0.66277 0.42598 0.86659 0.0
H590 H 0.63782 0.4334 0.81192 0.0
H591 H 0.63004 0.49283 0.807 0.0
H592 H 0.5537 0.51312 0.67782 0.0
H593 H 0.57511 0.50529 0.74266 0.0
H594 H 0.58092 0.44475 0.75984 0.0
C595 C 0.64246 0.44296 0.84229 0.0
C596 C 0.6193 0.48225 0.79741 0.0
C597 C 0.65686 0.43879 0.87317 0.0
C598 C 0.5583 0.4996 0.67674 0.0
C599 C 0.57082 0.49514 0.71343 0.0
C600 C 0.59162 0.45535 0.76955 0.0
C601 C 0.63437 0.45943 0.84995 0.0
C602 C 0.61944 0.46423 0.81629 0.0
C603 C 0.5777 0.47782 0.71224 0.0
C604 C 0.59169 0.47329 0.74969 0.0
H605 H 0.65985 0.47698 0.95052 0.0
H606 H 0.6349 0.48426 0.89667 0.0
H607 H 0.60489 0.43695 0.81696 0.0
H608 H 0.55482 0.45954 0.60753 0.0
H609 H 0.57676 0.45172 0.67095 0.0
C610 C 0.95266 0.6656 0.85882 0.0
C611 C 0.94181 0.66139 0.90168 0.0
C612 C 0.95812 0.65154 0.82763 0.0
C613 C 0.96334 0.60137 0.82336 0.0
H614 H 0.96789 0.61101 0.67788 0.0
C615 C 0.98564 0.54807 0.67273 0.0
C616 C 0.99794 0.55547 0.63591 0.0
C617 C 0.97751 0.55974 0.70676 0.0
C618 C 0.96681 0.60812 0.71845 0.0
H619 H 0.92811 0.63933 0.94606 0.0
H620 H 0.93709 0.6145 0.89015 0.0
H621 H 0.95564 0.63347 0.73366 0.0
H622 H 0.0116 0.58078 0.60617 0.0
H623 H 0.9977 0.60105 0.66539 0.0
H624 H 0.97457 0.57588 0.80751 0.0
C625 C 0.94172 0.62868 0.88122 0.0
C626 C 0.9598 0.62104 0.75055 0.0
C627 C 0.93648 0.64284 0.91302 0.0
C628 C 1.00209 0.57468 0.63399 0.0
C629 C 0.99404 0.5863 0.66778 0.0
C630 C 0.97029 0.58832 0.79099 0.0
C631 C 0.95259 0.63288 0.83799 0.0
C632 C 0.95839 0.61809 0.80363 0.0
C633 C 0.98148 0.57903 0.7042 0.0
C634 C 0.97251 0.59179 0.73834 0.0
H635 H 0.9572 0.67983 0.84995 0.0
H636 H 0.9669 0.65535 0.79569 0.0
H637 H 0.96249 0.59864 0.86403 0.0
H638 H 0.98191 0.53337 0.6742 0.0
H639 H 0.96777 0.55372 0.73407 0.0
C640 C 0.11095 0.18472 0.35374 0.0
C641 C 0.10201 0.19999 0.33917 0.0
C642 C 0.10192 0.17049 0.3819 0.0
C643 C 0.06355 0.15128 0.45312 0.0
H644 H 0.05435 0.11725 0.33845 0.0
C645 C 0.01051 0.0885 0.46535 0.0
C646 C 0.01584 0.07183 0.44599 0.0
C647 C 0.02059 0.1052 0.45467 0.0
C648 C 0.05694 0.1264 0.37114 0.0
H649 H 0.07781 0.21377 0.3506 0.0
H650 H 0.06241 0.18914 0.40115 0.0
H651 H 0.07543 0.14465 0.32872 0.0
H652 H 0.03505 0.05954 0.39766 0.0
H653 H 0.05267 0.08852 0.37911 0.0
H654 H 0.04535 0.13279 0.49608 0.0
C655 C 0.07621 0.18808 0.38979 0.0
C656 C 0.06902 0.14206 0.36554 0.0
C657 C 0.08511 0.2022 0.36082 0.0
C658 C 0.03056 0.07222 0.41268 0.0
C659 C 0.04069 0.08888 0.40222 0.0
C660 C 0.05165 0.13535 0.45914 0.0
C661 C 0.08408 0.17163 0.39706 0.0
C662 C 0.07241 0.15456 0.40638 0.0
C663 C 0.03617 0.10548 0.42447 0.0
C664 C 0.04821 0.12275 0.41806 0.0
H665 H 0.12418 0.18287 0.33889 0.0
H666 H 0.10821 0.15787 0.38746 0.0
H667 H 0.0659 0.16094 0.4848 0.0
H668 H 0.99923 0.08854 0.49137 0.0
H669 H 0.01652 0.1178 0.47142 0.0
C670 C 0.33477 1.0033 0.31354 0.0
C671 C 0.33389 0.02235 0.30745 0.0
C672 C 0.34859 0.99696 0.34199 0.0
C673 C 0.38401 1.0044 0.43313 0.0
H674 H 0.41342 0.98262 0.33079 0.0
C675 C 0.44517 0.96821 0.49092 0.0
C676 C 0.46103 0.97431 0.46494 0.0
C677 C 0.42861 0.97226 0.47192 0.0
C678 C 0.40537 0.98865 0.35973 0.0
H679 H 0.34536 0.04965 0.33086 0.0
H680 H 0.36955 0.03839 0.38199 0.0
H681 H 0.38538 0.99452 0.30526 0.0
H682 H 0.47206 0.98768 0.39632 0.0
H683 H 0.44314 0.99468 0.36305 0.0
H684 H 0.40408 0.99868 0.48766 0.0
C685 C 0.35959 0.02851 0.36415 0.0
C686 C 0.38936 0.99536 0.34522 0.0
C687 C 0.34584 0.03491 0.335 0.0
C688 C 0.46 0.98271 0.41695 0.0
C689 C 0.44345 0.98684 0.39808 0.0
C690 C 0.4 0.99752 0.44783 0.0
C691 C 0.36154 1.00956 0.36529 0.0
C692 C 0.37854 1.00308 0.38186 0.0
C693 C 0.42773 0.9824 0.42666 0.0
C694 C 0.41072 0.98945 0.41125 0.0
H695 H 0.32587 0.99332 0.29226 0.0
H696 H 0.34998 0.98228 0.34258 0.0
H697 H 0.37584 1.0105 0.46167 0.0
H698 H 0.44567 0.96171 0.528 0.0
H699 H 0.4166 0.96828 0.49393 0.0
C700 C 0.42946 0.32399 0.32007 0.0
C701 C 0.41485 0.32499 0.2865 0.0
C702 C 0.43638 0.33947 0.34839 0.0
C703 C 0.42937 0.38927 0.37507 0.0
H704 H 0.48127 0.39382 0.3871 0.0
C705 C 0.46766 0.45645 0.44927 0.0
C706 C 0.48555 0.46117 0.43443 0.0
C707 C 0.4587 0.43948 0.43548 0.0
C708 C 0.46681 0.39298 0.38305 0.0
H709 H 0.39472 0.34255 0.26174 0.0
H710 H 0.4076 0.36971 0.3067 0.0
H711 H 0.46561 0.36475 0.35998 0.0
H712 H 0.50791 0.45218 0.39157 0.0
H713 H 0.49172 0.42301 0.36323 0.0
H714 H 0.43064 0.41791 0.39268 0.0
C715 C 0.41368 0.35702 0.31248 0.0
C716 C 0.45767 0.37601 0.36876 0.0
C717 C 0.40641 0.3414 0.28555 0.0
C718 C 0.49405 0.44894 0.40309 0.0
C719 C 0.48483 0.43205 0.38782 0.0
C720 C 0.43853 0.40636 0.3874 0.0
C721 C 0.42923 0.35651 0.34276 0.0
C722 C 0.4388 0.37394 0.36391 0.0
C723 C 0.46711 0.42691 0.40478 0.0
C724 C 0.45741 0.40855 0.39139 0.0
H725 H 0.43636 0.31163 0.3223 0.0
H726 H 0.44787 0.33819 0.3729 0.0
H727 H 0.41485 0.38828 0.37338 0.0
H728 H 0.4608 0.46547 0.47412 0.0
H729 H 0.44535 0.43608 0.45077 0.0
C730 C 0.196 0.59932 0.34702 0.0
C731 C 0.20508 0.58439 0.32991 0.0
C732 C 0.1804 0.59623 0.37633 0.0
C733 C 0.14985 0.56011 0.44137 0.0
H734 H 0.11291 0.58216 0.36544 0.0
C735 C 0.07765 0.5261 0.4327 0.0
C736 C 0.06356 0.53741 0.43645 0.0
C737 C 0.0953 0.53387 0.42637 0.0
C738 C 0.12301 0.57611 0.38777 0.0
H739 H 0.20615 0.5548 0.33554 0.0
H740 H 0.17909 0.54944 0.38678 0.0
H741 H 0.14431 0.59308 0.35225 0.0
H742 H 0.05668 0.56562 0.43429 0.0
H743 H 0.08759 0.57927 0.42287 0.0
H744 H 0.12846 0.54275 0.47574 0.0
C745 C 0.18393 0.56354 0.37749 0.0
C746 C 0.14105 0.58244 0.38044 0.0
C747 C 0.19951 0.56662 0.34805 0.0
C748 C 0.06727 0.55657 0.4307 0.0
C749 C 0.085 0.56438 0.42463 0.0
C750 C 0.13178 0.55382 0.44887 0.0
C751 C 0.17363 0.57817 0.3892 0.0
C752 C 0.1547 0.5741 0.40587 0.0
C753 C 0.09925 0.55314 0.42393 0.0
C754 C 0.11821 0.56132 0.42076 0.0
H755 H 0.20023 0.61325 0.33463 0.0
H756 H 0.17296 0.60783 0.38589 0.0
H757 H 0.16006 0.55359 0.46201 0.0
H758 H 0.07513 0.51128 0.43726 0.0
H759 H 0.10591 0.52478 0.42447 0.0
C760 C 0.94712 0.82177 0.79328 0.0
C761 C 0.93025 0.82195 0.81697 0.0
C762 C 0.95399 0.83675 0.76371 0.0
C763 C 0.95421 0.88315 0.79065 0.0
H764 H 0.98198 0.89476 0.66781 0.0
C765 C 0.9871 0.95598 0.75025 0.0
C766 C 1.00384 0.95783 0.72583 0.0
C767 C 0.97802 0.93855 0.75745 0.0
C768 C 0.97444 0.89157 0.70257 0.0
H769 H 0.90594 0.83588 0.81997 0.0
H770 H 0.91822 0.86226 0.76976 0.0
H771 H 0.964 0.86468 0.67471 0.0
H772 H 0.02467 0.94308 0.69141 0.0
H773 H 0.0089 0.91242 0.70501 0.0
H774 H 0.9651 0.90933 0.82002 0.0
C775 C 0.92613 0.85069 0.7743 0.0
C776 C 0.96403 0.87453 0.70608 0.0
C777 C 0.91918 0.83565 0.80327 0.0
C778 C 0.01191 0.94195 0.71136 0.0
C779 C 1.00273 0.92446 0.71815 0.0
C780 C 0.96474 0.89993 0.78753 0.0
C781 C 0.94407 0.85196 0.75795 0.0
C782 C 0.95375 0.87032 0.75008 0.0
C783 C 0.98549 0.92265 0.74004 0.0
C784 C 0.97493 0.90439 0.74348 0.0
H785 H 0.95592 0.81134 0.80275 0.0
H786 H 0.96786 0.83747 0.7512 0.0
H787 H 0.94681 0.87992 0.82565 0.0
H788 H 0.98053 0.96807 0.7609 0.0
H789 H 0.96471 0.93764 0.77412 0.0
C790 C 0.69201 0.01743 0.81509 0.0
C791 C 0.68776 1.00578 0.85673 0.0
C792 C 0.67898 0.0197 0.77798 0.0
C793 C 0.63013 1.00714 0.74782 0.0
H794 H 0.62985 0.06048 0.7487 0.0
C795 C 0.56479 0.04047 0.74228 0.0
C796 C 0.56331 0.05089 0.69771 0.0
C797 C 0.58156 0.03596 0.75815 0.0
C798 C 0.62984 0.04559 0.74799 0.0
H799 H 0.66828 0.98477 0.88749 0.0
H800 H 0.64538 0.98916 0.82458 0.0
H801 H 0.65746 0.04702 0.76863 0.0
H802 H 0.57802 0.06716 0.63961 0.0
H803 H 0.60755 0.06002 0.66916 0.0
H804 H 0.60205 1.00596 0.73028 0.0
C805 C 0.65852 0.99665 0.81973 0.0
C806 C 0.6457 0.03781 0.75848 0.0
C807 C 0.6716 0.9942 0.85622 0.0
C808 C 0.5789 0.05907 0.674 0.0
C809 C 0.59572 0.05485 0.69054 0.0
C810 C 0.6142 0.01496 0.73818 0.0
C811 C 0.66156 1.0106 0.78295 0.0
C812 C 0.64595 0.01847 0.75979 0.0
C813 C 0.59699 0.0423 0.73051 0.0
C814 C 0.61392 0.03421 0.7394 0.0
H815 H 0.70454 0.02629 0.81428 0.0
H816 H 0.68192 0.03002 0.74874 0.0
H817 H 0.6299 0.99224 0.74783 0.0
H818 H 0.55294 0.03401 0.76135 0.0
H819 H 0.58237 0.02652 0.78977 0.0
C820 C 0.61364 0.6896 0.85013 0.0
C821 C 0.60325 0.70365 0.8667 0.0
C822 C 0.60551 0.67372 0.82564 0.0
C823 C 0.56153 0.6468 0.82586 0.0
H824 H 0.58153 0.61725 0.72015 0.0
C825 C 0.52302 0.58067 0.74179 0.0
C826 C 0.533 0.56578 0.7311 0.0
C827 C 0.53173 0.59773 0.75705 0.0
C828 C 0.57589 0.62529 0.75009 0.0
H829 H 0.57635 0.71258 0.86567 0.0
H830 H 0.56253 0.68548 0.82124 0.0
H831 H 0.59685 0.64751 0.74305 0.0
H832 H 0.55979 0.55674 0.72955 0.0
H833 H 0.57495 0.58641 0.75701 0.0
H834 H 0.54076 0.62462 0.8336 0.0
C835 C 0.57686 0.68647 0.82869 0.0
C836 C 0.58462 0.64262 0.763 0.0
C837 C 0.58491 0.70222 0.85349 0.0
C838 C 0.55174 0.56799 0.73785 0.0
C839 C 0.56045 0.58504 0.75288 0.0
C840 C 0.55285 0.62953 0.81304 0.0
C841 C 0.58686 0.67167 0.81688 0.0
C842 C 0.57749 0.65358 0.80098 0.0
C843 C 0.55058 0.60019 0.76172 0.0
C844 C 0.55991 0.61856 0.7751 0.0
H845 H 0.62788 0.69039 0.85862 0.0
H846 H 0.61362 0.66259 0.81668 0.0
H847 H 0.55593 0.65468 0.85623 0.0
H848 H 0.50858 0.57937 0.73631 0.0
H849 H 0.52375 0.60918 0.7633 0.0
C850 C 0.8284 0.42286 0.80663 0.0
C851 C 0.81771 0.43564 0.82893 0.0
C852 C 0.8442 0.42898 0.78066 0.0
C853 C 0.87835 0.46711 0.79511 0.0
H854 H 0.90119 0.44598 0.6784 0.0
C855 C 0.95126 0.49123 0.73674 0.0
C856 C 0.96164 0.478 0.71584 0.0
C857 C 0.93303 0.48666 0.74686 0.0
C858 C 0.89506 0.45185 0.71151 0.0
H859 H 0.81427 0.46484 0.83635 0.0
H860 H 0.84157 0.47538 0.79041 0.0
H861 H 0.86929 0.43722 0.69498 0.0
H862 H 0.96152 0.44945 0.69159 0.0
H863 H 0.92992 0.44116 0.71171 0.0
H864 H 0.90405 0.48105 0.81343 0.0
C865 C 0.83787 0.46066 0.79381 0.0
C866 C 0.87677 0.44696 0.7206 0.0
C867 C 0.8221 0.45457 0.81967 0.0
C868 C 0.95379 0.45987 0.70796 0.0
C869 C 0.93561 0.45524 0.71863 0.0
C870 C 0.89662 0.47181 0.78647 0.0
C871 C 0.84955 0.44797 0.77663 0.0
C872 C 0.8683 0.45446 0.76274 0.0
C873 C 0.92489 0.4687 0.73688 0.0
C874 C 0.90527 0.4641 0.74492 0.0
H875 H 0.82523 0.40818 0.81238 0.0
H876 H 0.85293 0.41889 0.76759 0.0
H877 H 0.87226 0.47283 0.82855 0.0
H878 H 0.95692 0.5054 0.74243 0.0
H879 H 0.92519 0.49745 0.76044 0.0
C880 C 0.07866 0.17991 0.90611 0.0
C881 C 0.08424 0.19634 0.88 0.0
C882 C 0.07394 0.1634 0.87923 0.0
C883 C 0.05851 0.1453 0.75225 0.0
H884 H 0.07269 0.09902 0.80325 0.0
C885 C 0.0432 0.07699 0.63823 0.0
C886 C 0.03829 0.06075 0.66588 0.0
C887 C 0.0497 0.09335 0.66349 0.0
C888 C 0.06839 0.11176 0.78872 0.0
H889 H 0.08949 0.20799 0.80467 0.0
H890 H 0.08111 0.17921 0.75778 0.0
H891 H 0.08229 0.12775 0.8485 0.0
H892 H 0.03644 0.04913 0.74211 0.0
H893 H 0.04739 0.0777 0.78623 0.0
H894 H 0.04433 0.12937 0.69305 0.0
C895 C 0.08022 0.1792 0.79919 0.0
C896 C 0.07396 0.12828 0.81468 0.0
C897 C 0.08502 0.19572 0.82612 0.0
C898 C 0.04024 0.06129 0.71947 0.0
C899 C 0.04661 0.07772 0.74481 0.0
C900 C 0.05284 0.12878 0.72646 0.0
C901 C 0.07457 0.16283 0.8254 0.0
C902 C 0.06905 0.14527 0.79689 0.0
C903 C 0.05134 0.09404 0.71723 0.0
C904 C 0.05765 0.11173 0.74436 0.0
H905 H 0.07752 0.17985 0.94746 0.0
H906 H 0.06937 0.15116 0.90068 0.0
H907 H 0.05425 0.15808 0.73785 0.0
H908 H 0.04196 0.07712 0.59688 0.0
H909 H 0.05349 0.10547 0.64071 0.0
C910 C 0.33433 0.99971 0.82 0.0
C911 C 0.33072 0.01604 0.84556 0.0
C912 C 0.35075 0.99866 0.79463 0.0
C913 C 0.39735 0.02171 0.79404 0.0
H914 H 0.40189 0.99634 0.66408 0.0
C915 C 0.46041 0.03459 0.67147 0.0
C916 C 0.4684 0.01926 0.65238 0.0
C917 C 0.44339 0.03243 0.69369 0.0
C918 C 0.40082 1.00327 0.70068 0.0
H919 H 0.34105 0.04438 0.86175 0.0
H920 H 0.36938 0.0427 0.81724 0.0
H921 H 0.37228 0.99621 0.70462 0.0
H922 H 0.46449 0.98966 0.63985 0.0
H923 H 0.43428 0.98589 0.67832 0.0
H924 H 0.42571 0.02915 0.78967 0.0
C925 C 0.35985 0.03047 0.81798 0.0
C926 C 0.38388 1.00321 0.72393 0.0
C927 C 0.34355 0.03148 0.84338 0.0
C928 C 0.45869 1.0017 0.65449 0.0
C929 C 0.44142 0.99956 0.67632 0.0
C930 C 0.41415 0.02187 0.77074 0.0
C931 C 0.36387 0.01395 0.79419 0.0
C932 C 0.3819 0.01277 0.77046 0.0
C933 C 0.43377 0.01491 0.697 0.0
C934 C 0.41606 0.01298 0.72337 0.0
H935 H 0.32477 0.98752 0.82124 0.0
H936 H 0.35339 0.9857 0.77689 0.0
H937 H 0.39648 0.02873 0.83058 0.0
H938 H 0.46745 0.04833 0.67007 0.0
H939 H 0.43775 0.04455 0.70849 0.0
C940 C 0.44767 0.32999 0.82082 0.0
C941 C 0.43124 0.328 0.84746 0.0
C942 C 0.45366 0.34662 0.79698 0.0
C943 C 0.43903 0.39041 0.74778 0.0
H944 H 0.48937 0.40816 0.76497 0.0
C945 C 0.47407 0.4531 0.63686 0.0
C946 C 0.48626 0.46555 0.66426 0.0
C947 C 0.46656 0.43668 0.65922 0.0
C948 C 0.47525 0.40349 0.76005 0.0
H949 H 0.408 0.34197 0.86852 0.0
H950 H 0.41851 0.37111 0.82694 0.0
H951 H 0.4777 0.37888 0.80274 0.0
H952 H 0.50002 0.4704 0.73692 0.0
H953 H 0.48703 0.44165 0.7759 0.0
H954 H 0.43665 0.41514 0.70509 0.0
C955 C 0.42675 0.35971 0.82452 0.0
C956 C 0.46858 0.38657 0.78125 0.0
C957 C 0.4208 0.34306 0.84878 0.0
C958 C 0.49059 0.46123 0.71487 0.0
C959 C 0.48326 0.44465 0.73702 0.0
C960 C 0.44576 0.4073 0.72613 0.0
C961 C 0.44339 0.36179 0.79888 0.0
C962 C 0.45038 0.3798 0.77558 0.0
C963 C 0.47123 0.4321 0.70938 0.0
C964 C 0.46395 0.41412 0.73226 0.0
H965 H 0.45617 0.31879 0.81931 0.0
H966 H 0.46641 0.3476 0.77705 0.0
H967 H 0.42499 0.38557 0.74223 0.0
H968 H 0.47041 0.45595 0.59776 0.0
H969 H 0.45748 0.42731 0.63662 0.0
C970 C 0.19434 0.56353 0.81561 0.0
C971 C 0.19513 0.56511 0.8694 0.0
C972 C 0.17789 0.55908 0.79044 0.0
C973 C 0.13157 0.53746 0.81367 0.0
H974 H 0.12096 0.55999 0.68464 0.0
C975 C 0.06117 0.52542 0.71868 0.0
C976 C 0.06047 0.52384 0.66501 0.0
C977 C 0.0775 0.53075 0.74374 0.0
C978 C 0.12376 0.55339 0.72038 0.0
H979 H 0.179 0.56336 0.93858 0.0
H980 H 0.15041 0.55621 0.89475 0.0
H981 H 0.14955 0.56892 0.72731 0.0
H982 H 0.07659 0.52632 0.59572 0.0
H983 H 0.10488 0.53512 0.63922 0.0
H984 H 0.10587 0.52183 0.80665 0.0
C985 C 0.16255 0.55809 0.872 0.0
C986 C 0.14019 0.55854 0.74489 0.0
C987 C 0.17897 0.56248 0.89715 0.0
C988 C 0.07652 0.52753 0.63712 0.0
C989 C 0.09281 0.53272 0.6621 0.0
C990 C 0.11516 0.53229 0.78915 0.0
C991 C 0.16179 0.55612 0.81837 0.0
C992 C 0.14431 0.55067 0.79196 0.0
C993 C 0.09355 0.53451 0.71574 0.0
C994 C 0.111 0.54018 0.74217 0.0
H995 H 0.20645 0.56568 0.79281 0.0
H996 H 0.17788 0.55756 0.74912 0.0
H997 H 0.13439 0.53083 0.84935 0.0
H998 H 0.04907 0.52281 0.74133 0.0
H999 H 0.07748 0.53221 0.78505 0.0
C1000 C 0.93902 0.84598 0.27364 0.0
C1001 C 0.9459 0.82945 0.28799 0.0
C1002 C 0.94382 0.86247 0.3005 0.0
C1003 C 0.97902 0.88405 0.38973 0.0
H1004 H 0.94634 0.92198 0.40338 0.0
C1005 C 0.99458 0.94852 0.5184 0.0
C1006 C 0.99199 0.96575 0.49701 0.0
C1007 C 0.98845 0.93208 0.4932 0.0
C1008 C 0.95565 0.91156 0.39948 0.0
H1009 H 0.96302 0.81747 0.34315 0.0
H1010 H 0.97065 0.84588 0.39127 0.0
H1011 H 0.93611 0.89265 0.36148 0.0
H1012 H 0.98063 0.97911 0.43246 0.0
H1013 H 0.9696 0.95018 0.38858 0.0
H1014 H 0.99838 0.90285 0.4289 0.0
C1015 C 0.96192 0.84626 0.35826 0.0
C1016 C 0.94982 0.89473 0.37534 0.0
C1017 C 0.95727 0.82981 0.33106 0.0
C1018 C 0.98291 0.96609 0.44986 0.0
C1019 C 0.97651 0.94955 0.42493 0.0
C1020 C 0.98474 0.90075 0.41442 0.0
C1021 C 0.95552 0.86292 0.3429 0.0
C1022 C 0.96145 0.88073 0.36992 0.0
C1023 C 0.97935 0.93237 0.4462 0.0
C1024 C 0.97316 0.91472 0.41944 0.0
H1025 H 0.92997 0.84624 0.2413 0.0
H1026 H 0.93869 0.87496 0.28704 0.0
H1027 H 0.98855 0.87388 0.38544 0.0
H1028 H 1.00155 0.94767 0.55458 0.0
H1029 H 0.99071 0.91908 0.51081 0.0
C1030 C 0.68904 1.00265 0.33888 0.0
C1031 C 0.69563 0.01899 0.31403 0.0
C1032 C 0.67268 1.00159 0.36542 0.0
C1033 C 0.63053 0.02492 0.37552 0.0
H1034 H 0.62302 0.99532 0.49776 0.0
C1035 C 0.56507 0.02338 0.49563 0.0
C1036 C 0.55732 1.00572 0.5092 0.0
C1037 C 0.58248 0.02576 0.47501 0.0
C1038 C 0.62488 1.00359 0.46353 0.0
H1039 H 0.69051 0.04726 0.29936 0.0
H1040 H 0.66231 0.0456 0.34638 0.0
H1041 H 0.65234 0.99797 0.45603 0.0
H1042 H 0.56192 0.97685 0.51373 0.0
H1043 H 0.59223 0.981 0.47834 0.0
H1044 H 0.60307 0.03059 0.38336 0.0
C1045 C 0.66944 0.03338 0.34428 0.0
C1046 C 0.64169 1.00505 0.4394 0.0
C1047 C 0.6857 0.03437 0.31745 0.0
C1048 C 0.56751 0.99062 0.50337 0.0
C1049 C 0.58493 0.99302 0.48337 0.0
C1050 C 0.61378 0.02357 0.39991 0.0
C1051 C 0.66255 0.01691 0.36816 0.0
C1052 C 0.64475 0.01565 0.39482 0.0
C1053 C 0.59256 1.01057 0.46827 0.0
C1054 C 0.6107 0.01279 0.44401 0.0
H1055 H 0.69625 0.99047 0.33645 0.0
H1056 H 0.66775 0.98858 0.38259 0.0
H1057 H 0.63216 0.03291 0.34077 0.0
H1058 H 0.55756 0.03529 0.4999 0.0
H1059 H 0.58804 0.0395 0.46427 0.0
C1060 C 0.58145 0.69426 0.35871 0.0
C1061 C 0.59282 0.69494 0.31566 0.0
C1062 C 0.57618 0.6775 0.38286 0.0
C1063 C 0.58616 0.62806 0.39076 0.0
H1064 H 0.53743 0.62122 0.44277 0.0
C1065 C 0.54963 0.55687 0.45455 0.0
C1066 C 0.54078 0.55723 0.50202 0.0
C1067 C 0.55691 0.5734 0.43179 0.0
C1068 C 0.5511 0.62294 0.42861 0.0
H1069 H 0.60809 0.67831 0.26584 0.0
H1070 H 0.59833 0.64908 0.3064 0.0
H1071 H 0.54851 0.65052 0.40466 0.0
H1072 H 0.53249 0.5754 0.56226 0.0
H1073 H 0.54479 0.60384 0.52237 0.0
H1074 H 0.5884 0.60011 0.41391 0.0
C1075 C 0.59367 0.66156 0.32214 0.0
C1076 C 0.55755 0.63983 0.40704 0.0
C1077 C 0.59908 0.67837 0.29828 0.0
C1078 C 0.53933 0.57447 0.52589 0.0
C1079 C 0.54628 0.59087 0.50288 0.0
C1080 C 0.57959 0.61103 0.41179 0.0
C1081 C 0.58193 0.66081 0.3644 0.0
C1082 C 0.57521 0.64272 0.38795 0.0
C1083 C 0.55511 0.59059 0.45555 0.0
C1084 C 0.56202 0.60832 0.43118 0.0
H1085 H 0.57617 0.70662 0.37312 0.0
H1086 H 0.56746 0.67765 0.41591 0.0
H1087 H 0.59991 0.62977 0.37735 0.0
H1088 H 0.55097 0.54386 0.43518 0.0
H1089 H 0.56361 0.57279 0.39514 0.0
C1090 C 0.84287 0.44109 0.29167 0.0
C1091 C 0.82846 0.45207 0.29475 0.0
C1092 C 0.85904 0.44634 0.31751 0.0
C1093 C 0.87906 0.47779 0.4207 0.0
H1094 H 0.92387 0.46992 0.3532 0.0
C1095 C 0.94752 0.49214 0.52312 0.0
C1096 C 0.96254 0.49939 0.4946 0.0
C1097 C 0.93119 0.48647 0.49905 0.0
C1098 C 0.9115 0.47242 0.37239 0.0
H1099 H 0.81981 0.47724 0.32723 0.0
H1100 H 0.84793 0.48651 0.37154 0.0
H1101 H 0.89543 0.45962 0.31155 0.0
H1102 H 0.97193 0.50655 0.41811 0.0
H1103 H 0.94323 0.49699 0.37608 0.0
H1104 H 0.8951 0.49113 0.48071 0.0
C1105 C 0.8467 0.47361 0.3502 0.0
C1106 C 0.89514 0.46623 0.34884 0.0
C1107 C 0.83054 0.46831 0.32467 0.0
C1108 C 0.96067 0.50106 0.4413 0.0
C1109 C 0.94424 0.49541 0.41715 0.0
C1110 C 0.89541 0.48406 0.44409 0.0
C1111 C 0.86123 0.46277 0.34676 0.0
C1112 C 0.87868 0.46886 0.37259 0.0
C1113 C 0.9293 0.48794 0.44572 0.0
C1114 C 0.91187 0.48148 0.42027 0.0
H1115 H 0.84163 0.42838 0.26948 0.0
H1116 H 0.86978 0.43745 0.31471 0.0
H1117 H 0.86671 0.47987 0.44056 0.0
H1118 H 0.94836 0.49054 0.56424 0.0
H1119 H 0.92014 0.48054 0.52234 0.0
loop_
_geom_bond_atom_site_label_1
_geom_bond_atom_site_label_2
_geom_bond_distance
_geom_bond_site_symmetry_2
_ccdc_geom_bond_type
C0 C1 1.264 . S
C0 C5 1.479 . S
C0 C10 1.465 . S
C1 C0 1.264 . S
C1 C3 1.339 . S
C1 H28 0.931 . S
C2 C3 1.395 . S
C2 C4 1.320 . S
C3 C1 1.339 . S
C3 C2 1.395 . S
C3 H29 0.929 . S
C4 C2 1.320 . S
C4 C5 1.405 . S
C4 H30 0.930 . S
C5 C0 1.479 . S
C5 C4 1.405 . S
C5 H31 0.931 . S
U6 O7 2.454 . S
U6 O8 2.458 1_554 S
U6 C9 2.984 1_554 S
U6 C10 2.847 . S
U6 C23 2.882 1_554 S
U6 O24 2.441 . S
U6 O25 2.420 . S
U6 O26 2.455 1_554 S
U6 O27 2.449 1_554 S
O7 U6 2.454 . S
O7 C9 1.353 1_554 S
O8 U6 2.458 1_556 S
O8 C9 1.286 . S
C9 U6 2.984 1_556 S
C9 O7 1.353 1_556 S
C9 O8 1.286 . S
C9 C11 1.363 . S
C10 C0 1.465 . S
C10 U6 2.847 . S
C10 O24 1.249 . S
C10 O25 1.202 . S
C11 C9 1.363 . S
C11 C13 1.408 1_556 S
C11 C16 1.342 . S
C12 C13 1.310 . S
C12 C15 1.461 1_554 S
C12 H32 0.932 . S
C13 C11 1.408 1_554 S
C13 C12 1.310 . S
C13 H33 0.930 . S
C14 C15 1.474 . S
C14 C16 1.285 . S
C14 H34 0.929 . S
C15 C12 1.461 1_556 S
C15 C14 1.474 . S
C16 C11 1.342 . S
C16 C14 1.285 . S
C16 H35 0.930 . S
C17 C20 1.424 . S
C17 C22 1.245 . S
C17 C23 1.428 . S
C18 C21 1.260 . S
C18 C22 1.477 . S
C18 H36 0.932 . S
C19 C20 1.384 . S
C19 C21 1.479 . S
C19 H37 0.929 . S
C20 C17 1.424 . S
C20 C19 1.384 . S
C20 H38 0.928 . S
C21 C18 1.260 . S
C21 C19 1.479 . S
C22 C17 1.245 . S
C22 C18 1.477 . S
C22 H39 0.932 . S
C23 U6 2.882 1_556 S
C23 C17 1.428 . S
C23 O26 1.301 . S
C23 O27 1.282 . S
O24 U6 2.441 . S
O24 C10 1.249 . S
O25 U6 2.420 . S
O25 C10 1.202 . S
O26 U6 2.455 1_556 S
O26 C23 1.301 . S
O27 U6 2.449 1_556 S
O27 C23 1.282 . S
H28 C1 0.931 . S
H29 C3 0.929 . S
H30 C4 0.930 . S
H31 C5 0.931 . S
H32 C12 0.932 . S
H33 C13 0.930 . S
H34 C14 0.929 . S
H35 C16 0.930 . S
H36 C18 0.932 . S
H37 C19 0.929 . S
H38 C20 0.928 . S
H39 C22 0.932 . S
C40 C41 1.264 . S
C40 C45 1.479 . S
C40 C50 1.465 . S
C41 C40 1.264 . S
C41 C43 1.339 . S
C41 H68 0.931 . S
C42 C43 1.395 . S
C42 C44 1.320 . S
C43 C41 1.339 . S
C43 C42 1.395 . S
C43 H69 0.929 . S
C44 C42 1.320 . S
C44 C45 1.405 . S
C44 H70 0.930 . S
C45 C40 1.479 . S
C45 C44 1.405 . S
C45 H71 0.931 . S
U46 O47 2.454 . S
U46 O48 2.458 1_554 S
U46 C49 2.984 1_554 S
U46 C50 2.847 . S
U46 C63 2.882 1_554 S
U46 O64 2.441 . S
U46 O65 2.420 . S
U46 O66 2.455 1_554 S
U46 O67 2.449 1_554 S
O47 U46 2.454 . S
O47 C49 1.353 1_554 S
O48 U46 2.458 1_556 S
O48 C49 1.286 . S
C49 U46 2.984 1_556 S
C49 O47 1.353 1_556 S
C49 O48 1.286 . S
C49 C51 1.363 . S
C50 C40 1.465 . S
C50 U46 2.847 . S
C50 O64 1.249 . S
C50 O65 1.202 . S
C51 C49 1.363 . S
C51 C53 1.408 1_556 S
C51 C56 1.342 . S
C52 C53 1.310 1_556 S
C52 C55 1.461 . S
C52 H72 0.932 1_556 S
C53 C51 1.408 1_554 S
C53 C52 1.310 1_554 S
C53 H73 0.930 . S
C54 C55 1.474 . S
C54 C56 1.285 . S
C54 H74 0.929 . S
C55 C52 1.461 . S
C55 C54 1.474 . S
C56 C51 1.342 . S
C56 C54 1.285 . S
C56 H75 0.930 . S
C57 C60 1.424 . S
C57 C62 1.245 . S
C57 C63 1.428 . S
C58 C61 1.260 . S
C58 C62 1.477 . S
C58 H76 0.932 . S
C59 C60 1.384 . S
C59 C61 1.479 . S
C59 H77 0.929 . S
C60 C57 1.424 . S
C60 C59 1.384 . S
C60 H78 0.928 . S
C61 C58 1.260 . S
C61 C59 1.479 . S
C62 C57 1.245 . S
C62 C58 1.477 . S
C62 H79 0.932 . S
C63 U46 2.882 1_556 S
C63 C57 1.428 . S
C63 O66 1.301 . S
C63 O67 1.282 . S
O64 U46 2.441 . S
O64 C50 1.249 . S
O65 U46 2.420 . S
O65 C50 1.202 . S
O66 U46 2.455 1_556 S
O66 C63 1.301 . S
O67 U46 2.449 1_556 S
O67 C63 1.282 . S
H68 C41 0.931 . S
H69 C43 0.929 . S
H70 C44 0.930 . S
H71 C45 0.931 . S
H72 C52 0.932 1_554 S
H73 C53 0.930 . S
H74 C54 0.929 . S
H75 C56 0.930 . S
H76 C58 0.932 . S
H77 C59 0.929 . S
H78 C60 0.928 . S
H79 C62 0.932 . S
C80 C81 1.264 . S
C80 C85 1.479 . S
C80 C90 1.465 . S
C81 C80 1.264 . S
C81 C83 1.339 . S
C81 H108 0.931 . S
C82 C83 1.395 . S
C82 C84 1.320 . S
C83 C81 1.339 . S
C83 C82 1.395 . S
C83 H109 0.929 . S
C84 C82 1.320 . S
C84 C85 1.405 . S
C84 H110 0.917 1_545 S
C85 C80 1.479 . S
C85 C84 1.405 . S
C85 H111 0.931 . S
U86 O87 2.454 . S
U86 O88 2.458 1_554 S
U86 C89 2.984 . S
U86 C90 2.847 . S
U86 C103 2.882 1_554 S
U86 O104 2.441 . S
U86 O105 2.420 . S
U86 O106 2.455 1_554 S
U86 O107 2.449 . S
O87 U86 2.454 . S
O87 C89 1.353 . S
O88 U86 2.458 1_556 S
O88 C89 1.286 1_556 S
C89 U86 2.984 . S
C89 O87 1.353 . S
C89 O88 1.286 1_554 S
C89 C91 1.361 1_554 S
C90 C80 1.465 . S
C90 U86 2.847 . S
C90 O104 1.249 . S
C90 O105 1.202 . S
C91 C89 1.361 1_556 S
C91 C93 1.400 1_556 S
C91 C96 1.352 . S
C92 C93 1.310 . S
C92 C95 1.461 1_554 S
C92 H112 0.942 . S
C93 C91 1.400 1_554 S
C93 C92 1.310 . S
C93 H113 0.930 . S
C94 C95 1.475 1_565 S
C94 C96 1.284 1_565 S
C94 H114 0.930 . S
C95 C92 1.461 1_556 S
C95 C94 1.475 1_545 S
C96 C91 1.352 . S
C96 C94 1.284 1_545 S
C96 H115 0.929 . S
C97 C100 1.424 . S
C97 C102 1.245 . S
C97 C103 1.428 . S
C98 C101 1.260 . S
C98 C102 1.477 . S
C98 H116 0.932 . S
C99 C100 1.384 . S
C99 C101 1.479 . S
C99 H117 0.929 . S
C100 C97 1.424 . S
C100 C99 1.384 . S
C100 H118 0.928 . S
C101 C98 1.260 . S
C101 C99 1.479 . S
C102 C97 1.245 . S
C102 C98 1.477 . S
C102 H119 0.932 . S
C103 U86 2.882 1_556 S
C103 C97 1.428 . S
C103 O106 1.301 . S
C103 O107 1.282 1_556 S
O104 U86 2.441 . S
O104 C90 1.249 . S
O105 U86 2.420 . S
O105 C90 1.202 . S
O106 U86 2.455 1_556 S
O106 C103 1.301 . S
O107 U86 2.449 . S
O107 C103 1.282 1_554 S
H108 C81 0.931 . S
H109 C83 0.929 . S
H110 C84 0.917 1_565 S
H111 C85 0.931 . S
H112 C92 0.942 . S
H113 C93 0.930 . S
H114 C94 0.930 . S
H115 C96 0.929 . S
H116 C98 0.932 . S
H117 C99 0.929 . S
H118 C100 0.928 . S
H119 C102 0.932 . S
C120 C121 1.264 . S
C120 C125 1.479 . S
C120 C130 1.465 . S
C121 C120 1.264 . S
C121 C123 1.339 . S
C121 H148 0.931 . S
C122 C123 1.395 . S
C122 C124 1.320 . S
C123 C121 1.339 . S
C123 C122 1.395 . S
C123 H149 0.929 . S
C124 C122 1.320 . S
C124 C125 1.405 . S
C124 H150 0.930 . S
C125 C120 1.479 . S
C125 C124 1.405 . S
C125 H151 0.931 . S
U126 O127 2.454 . S
U126 O128 2.458 . S
U126 C129 2.984 . S
U126 C130 2.847 . S
U126 C143 2.882 1_554 S
U126 O144 2.441 . S
U126 O145 2.420 . S
U126 O146 2.455 1_554 S
U126 O147 2.449 . S
O127 U126 2.454 . S
O127 C129 1.353 . S
O128 U126 2.458 . S
O128 C129 1.286 . S
C129 U126 2.984 . S
C129 O127 1.353 . S
C129 O128 1.286 . S
C129 C131 1.363 . S
C130 C120 1.465 . S
C130 U126 2.847 . S
C130 O144 1.249 . S
C130 O145 1.202 . S
C131 C129 1.363 . S
C131 C133 1.408 . S
C131 C136 1.342 1_554 S
C132 C133 1.310 . S
C132 C135 1.461 . S
C132 H152 0.932 . S
C133 C131 1.408 . S
C133 C132 1.310 . S
C133 H153 0.930 . S
C134 C135 1.474 1_556 S
C134 C136 1.285 . S
C134 H154 0.929 . S
C135 C132 1.461 . S
C135 C134 1.474 1_554 S
C136 C131 1.342 1_556 S
C136 C134 1.285 . S
C136 H155 0.930 . S
C137 C140 1.424 . S
C137 C142 1.245 . S
C137 C143 1.428 . S
C138 C141 1.260 . S
C138 C142 1.477 . S
C138 H156 0.932 . S
C139 C140 1.384 . S
C139 C141 1.479 . S
C139 H157 0.929 . S
C140 C137 1.424 . S
C140 C139 1.384 . S
C140 H158 0.930 . S
C141 C138 1.260 . S
C141 C139 1.479 . S
C142 C137 1.245 . S
C142 C138 1.477 . S
C142 H159 0.932 . S
C143 U126 2.882 1_556 S
C143 C137 1.428 . S
C143 O146 1.301 . S
C143 O147 1.282 1_556 S
O144 U126 2.441 . S
O144 C130 1.249 . S
O145 U126 2.420 . S
O145 C130 1.202 . S
O146 U126 2.455 1_556 S
O146 C143 1.301 . S
O147 U126 2.449 . S
O147 C143 1.282 1_554 S
H148 C121 0.931 . S
H149 C123 0.929 . S
H150 C124 0.930 . S
H151 C125 0.931 . S
H152 C132 0.932 . S
H153 C133 0.930 . S
H154 C134 0.929 . S
H155 C136 0.930 . S
H156 C138 0.932 . S
H157 C139 0.929 . S
H158 C140 0.930 . S
H159 C142 0.932 . S
C160 C161 1.264 . S
C160 C165 1.479 . S
C160 C170 1.465 1_556 S
C161 C160 1.264 . S
C161 C163 1.339 . S
C161 H188 0.931 . S
C162 C163 1.395 . S
C162 C164 1.320 . S
C163 C161 1.339 . S
C163 C162 1.395 . S
C163 H189 0.929 . S
C164 C162 1.320 . S
C164 C165 1.405 . S
C164 H190 0.930 . S
C165 C160 1.479 . S
C165 C164 1.405 . S
C165 H191 0.931 . S
U166 O167 2.454 . S
U166 O168 2.458 . S
U166 C169 2.984 . S
U166 C170 2.847 . S
U166 C183 2.882 . S
U166 O184 2.441 . S
U166 O185 2.420 . S
U166 O186 2.455 . S
U166 O187 2.449 . S
O167 U166 2.454 . S
O167 C169 1.353 . S
O168 U166 2.458 . S
O168 C169 1.286 . S
C169 U166 2.984 . S
C169 O167 1.353 . S
C169 O168 1.286 . S
C169 C171 1.363 . S
C170 C160 1.465 1_554 S
C170 U166 2.847 . S
C170 O184 1.249 . S
C170 O185 1.202 . S
C171 C169 1.363 . S
C171 C173 1.408 . S
C171 C176 1.342 . S
C172 C173 1.310 . S
C172 C175 1.461 . S
C172 H192 0.932 . S
C173 C171 1.408 . S
C173 C172 1.310 . S
C173 H193 0.930 . S
C174 C175 1.474 . S
C174 C176 1.285 . S
C174 H194 0.929 . S
C175 C172 1.461 . S
C175 C174 1.474 . S
C176 C171 1.342 . S
C176 C174 1.285 . S
C176 H195 0.930 . S
C177 C180 1.424 . S
C177 C182 1.245 . S
C177 C183 1.428 . S
C178 C181 1.260 . S
C178 C182 1.477 . S
C178 H196 0.932 . S
C179 C180 1.384 . S
C179 C181 1.479 . S
C179 H197 0.929 . S
C180 C177 1.424 . S
C180 C179 1.384 . S
C180 H198 0.928 . S
C181 C178 1.260 . S
C181 C179 1.479 . S
C182 C177 1.245 . S
C182 C178 1.477 . S
C182 H199 0.932 . S
C183 U166 2.882 . S
C183 C177 1.428 . S
C183 O186 1.301 . S
C183 O187 1.282 . S
O184 U166 2.441 . S
O184 C170 1.249 . S
O185 U166 2.420 . S
O185 C170 1.202 . S
O186 U166 2.455 . S
O186 C183 1.301 . S
O187 U166 2.449 . S
O187 C183 1.282 . S
H188 C161 0.931 . S
H189 C163 0.929 . S
H190 C164 0.930 . S
H191 C165 0.931 . S
H192 C172 0.932 . S
H193 C173 0.930 . S
H194 C174 0.929 . S
H195 C176 0.930 . S
H196 C178 0.932 . S
H197 C179 0.929 . S
H198 C180 0.928 . S
H199 C182 0.932 . S
C200 C201 1.264 . S
C200 C205 1.479 . S
C200 C210 1.465 1_556 S
C201 C200 1.264 . S
C201 C203 1.339 . S
C201 H228 0.931 1_556 S
C202 C203 1.395 . S
C202 C204 1.320 . S
C203 C201 1.339 . S
C203 C202 1.395 . S
C203 H229 0.929 . S
C204 C202 1.320 . S
C204 C205 1.405 . S
C204 H230 0.930 . S
C205 C200 1.479 . S
C205 C204 1.405 . S
C205 H231 0.931 . S
U206 O207 2.454 . S
U206 O208 2.458 . S
U206 C209 2.984 . S
U206 C210 2.847 . S
U206 C223 2.882 . S
U206 O224 2.441 . S
U206 O225 2.420 . S
U206 O226 2.455 . S
U206 O227 2.449 . S
O207 U206 2.454 . S
O207 C209 1.353 . S
O208 U206 2.458 . S
O208 C209 1.286 . S
C209 U206 2.984 . S
C209 O207 1.353 . S
C209 O208 1.286 . S
C209 C211 1.363 . S
C210 C200 1.465 1_554 S
C210 U206 2.847 . S
C210 O224 1.249 . S
C210 O225 1.202 . S
C211 C209 1.363 . S
C211 C213 1.408 . S
C211 C216 1.342 . S
C212 C213 1.310 . S
C212 C215 1.461 . S
C212 H232 0.932 . S
C213 C211 1.408 . S
C213 C212 1.310 . S
C213 H233 0.930 . S
C214 C215 1.474 . S
C214 C216 1.285 . S
C214 H234 0.929 . S
C215 C212 1.461 . S
C215 C214 1.474 . S
C216 C211 1.342 . S
C216 C214 1.285 . S
C216 H235 0.930 . S
C217 C220 1.424 . S
C217 C222 1.245 . S
C217 C223 1.428 . S
C218 C221 1.260 . S
C218 C222 1.477 . S
C218 H236 0.932 . S
C219 C220 1.384 . S
C219 C221 1.479 . S
C219 H237 0.929 . S
C220 C217 1.424 . S
C220 C219 1.384 . S
C220 H238 0.928 . S
C221 C218 1.260 . S
C221 C219 1.479 . S
C222 C217 1.245 . S
C222 C218 1.477 . S
C222 H239 0.932 . S
C223 U206 2.882 . S
C223 C217 1.428 . S
C223 O226 1.301 . S
C223 O227 1.282 . S
O224 U206 2.441 . S
O224 C210 1.249 . S
O225 U206 2.420 . S
O225 C210 1.202 . S
O226 U206 2.455 . S
O226 C223 1.301 . S
O227 U206 2.449 . S
O227 C223 1.282 . S
H228 C201 0.931 1_554 S
H229 C203 0.929 . S
H230 C204 0.930 . S
H231 C205 0.931 . S
H232 C212 0.932 . S
H233 C213 0.930 . S
H234 C214 0.929 . S
H235 C216 0.930 . S
H236 C218 0.932 . S
H237 C219 0.929 . S
H238 C220 0.928 . S
H239 C222 0.932 . S
C240 C241 1.264 . S
C240 C245 1.479 . S
C240 C250 1.465 1_556 S
C241 C240 1.264 . S
C241 C243 1.339 . S
C241 H268 0.931 . S
C242 C243 1.395 . S
C242 C244 1.320 . S
C243 C241 1.339 . S
C243 C242 1.395 . S
C243 H269 0.929 . S
C244 C242 1.320 . S
C244 C245 1.405 . S
C244 H270 0.926 1_545 S
C245 C240 1.479 . S
C245 C244 1.405 . S
C245 H271 0.931 . S
U246 O247 2.454 . S
U246 O248 2.458 . S
U246 C249 2.984 . S
U246 C250 2.847 . S
U246 C263 2.882 . S
U246 O264 2.441 . S
U246 O265 2.420 . S
U246 O266 2.455 . S
U246 O267 2.449 . S
O247 U246 2.454 . S
O247 C249 1.353 . S
O248 U246 2.458 . S
O248 C249 1.286 . S
C249 U246 2.984 . S
C249 O247 1.353 . S
C249 O248 1.286 . S
C249 C251 1.363 . S
C250 C240 1.465 1_554 S
C250 U246 2.847 . S
C250 O264 1.249 . S
C250 O265 1.202 . S
C251 C249 1.363 . S
C251 C253 1.408 . S
C251 C256 1.342 . S
C252 C253 1.310 . S
C252 C255 1.462 . S
C252 H272 0.932 . S
C253 C251 1.408 . S
C253 C252 1.310 . S
C253 H273 0.930 . S
C254 C255 1.473 1_565 S
C254 C256 1.285 1_565 S
C254 H274 0.929 . S
C255 C252 1.462 . S
C255 C254 1.473 1_545 S
C256 C251 1.342 . S
C256 C254 1.285 1_545 S
C256 H275 0.938 . S
C257 C260 1.424 . S
C257 C262 1.245 . S
C257 C263 1.428 . S
C258 C261 1.260 . S
C258 C262 1.477 . S
C258 H276 0.932 . S
C259 C260 1.384 . S
C259 C261 1.479 . S
C259 H277 0.929 . S
C260 C257 1.424 . S
C260 C259 1.384 . S
C260 H278 0.928 . S
C261 C258 1.260 . S
C261 C259 1.479 . S
C262 C257 1.245 . S
C262 C258 1.477 . S
C262 H279 0.932 . S
C263 U246 2.882 . S
C263 C257 1.428 . S
C263 O266 1.301 . S
C263 O267 1.282 . S
O264 U246 2.441 . S
O264 C250 1.249 . S
O265 U246 2.420 . S
O265 C250 1.202 . S
O266 U246 2.455 . S
O266 C263 1.301 . S
O267 U246 2.449 . S
O267 C263 1.282 . S
H268 C241 0.931 . S
H269 C243 0.929 . S
H270 C244 0.926 1_565 S
H271 C245 0.931 . S
H272 C252 0.932 . S
H273 C253 0.930 . S
H274 C254 0.929 . S
H275 C256 0.938 . S
H276 C258 0.932 . S
H277 C259 0.929 . S
H278 C260 0.928 . S
H279 C262 0.932 . S
C280 C281 1.264 . S
C280 C285 1.479 . S
C280 C290 1.465 . S
C281 C280 1.264 . S
C281 C283 1.339 . S
C281 H308 0.931 . S
C282 C283 1.395 . S
C282 C284 1.320 . S
C283 C281 1.339 . S
C283 C282 1.395 . S
C283 H309 0.929 . S
C284 C282 1.320 . S
C284 C285 1.405 . S
C284 H310 0.930 . S
C285 C280 1.479 . S
C285 C284 1.405 . S
C285 H311 0.931 . S
U286 O287 2.454 . S
U286 O288 2.458 . S
U286 C289 2.984 . S
U286 C290 2.847 1_554 S
U286 C303 2.882 . S
U286 O304 2.441 1_554 S
U286 O305 2.420 . S
U286 O306 2.455 . S
U286 O307 2.449 . S
O287 U286 2.454 . S
O287 C289 1.353 . S
O288 U286 2.458 . S
O288 C289 1.286 . S
C289 U286 2.984 . S
C289 O287 1.353 . S
C289 O288 1.286 . S
C289 C291 1.363 . S
C290 C280 1.465 . S
C290 U286 2.847 1_556 S
C290 O304 1.249 . S
C290 O305 1.202 1_556 S
C291 C289 1.363 . S
C291 C293 1.408 . S
C291 C296 1.342 . S
C292 C293 1.310 . S
C292 C295 1.461 . S
C292 H312 0.932 . S
C293 C291 1.408 . S
C293 C292 1.310 . S
C293 H313 0.930 . S
C294 C295 1.474 . S
C294 C296 1.285 . S
C294 H314 0.929 . S
C295 C292 1.461 . S
C295 C294 1.474 . S
C296 C291 1.342 . S
C296 C294 1.285 . S
C296 H315 0.930 . S
C297 C300 1.424 . S
C297 C302 1.245 . S
C297 C303 1.428 . S
C298 C301 1.260 . S
C298 C302 1.477 . S
C298 H316 0.932 . S
C299 C300 1.384 . S
C299 C301 1.479 . S
C299 H317 0.929 . S
C300 C297 1.424 . S
C300 C299 1.384 . S
C300 H318 0.928 . S
C301 C298 1.260 . S
C301 C299 1.479 . S
C302 C297 1.245 . S
C302 C298 1.477 . S
C302 H319 0.932 . S
C303 U286 2.882 . S
C303 C297 1.428 . S
C303 O306 1.301 . S
C303 O307 1.282 . S
O304 U286 2.441 1_556 S
O304 C290 1.249 . S
O305 U286 2.420 . S
O305 C290 1.202 1_554 S
O306 U286 2.455 . S
O306 C303 1.301 . S
O307 U286 2.449 . S
O307 C303 1.282 . S
H308 C281 0.931 . S
H309 C283 0.929 . S
H310 C284 0.930 . S
H311 C285 0.931 . S
H312 C292 0.932 . S
H313 C293 0.930 . S
H314 C294 0.929 . S
H315 C296 0.930 . S
H316 C298 0.932 . S
H317 C299 0.929 . S
H318 C300 0.928 . S
H319 C302 0.932 . S
Dy320 O324 2.398 . S
Dy320 O325 2.491 1_455 S
Dy320 O326 2.403 . S
Dy320 O327 2.664 1_565 S
Dy320 O331 2.326 . S
Dy320 O335 2.310 1_455 S
Dy320 O336 2.351 1_565 S
C321 O332 1.185 1_455 S
C321 O333 1.355 . S
C322 O324 1.185 . S
C322 O325 1.355 1_455 S
Dy323 O327 2.343 . S
Dy323 O330 2.344 1_445 S
Dy323 O332 2.388 1_455 S
Dy323 O333 2.516 . S
Dy323 O334 2.369 1_455 S
Dy323 O335 2.653 1_445 S
Dy323 O337 2.335 . S
O324 Dy320 2.398 . S
O324 C322 1.185 . S
O325 Dy320 2.491 1_655 S
O325 C322 1.355 1_655 S
O326 Dy320 2.403 . S
O326 C328 1.254 . S
O327 Dy320 2.664 1_545 S
O327 Dy323 2.343 . S
O327 C328 1.268 1_545 S
C328 O326 1.254 . S
C328 O327 1.268 1_565 S
C329 O334 1.254 . S
C329 O335 1.268 1_545 S
O330 Dy323 2.344 1_665 S
O330 C338 1.249 . S
O331 Dy320 2.326 . S
O331 C338 1.267 1_455 S
O332 C321 1.185 1_655 S
O332 Dy323 2.388 1_655 S
O333 C321 1.355 . S
O333 Dy323 2.516 . S
O334 Dy323 2.369 1_655 S
O334 C329 1.254 . S
O335 Dy320 2.310 1_655 S
O335 Dy323 2.653 1_665 S
O335 C329 1.268 1_565 S
O336 Dy320 2.351 1_545 S
O336 C339 1.249 . S
O337 Dy323 2.335 . S
O337 C339 1.267 . S
C338 O330 1.249 . S
C338 O331 1.267 1_655 S
C339 O336 1.249 . S
C339 O337 1.267 . S
Dy340 O344 2.398 . S
Dy340 O345 2.491 . S
Dy340 O346 2.403 . S
Dy340 O347 2.683 . S
Dy340 O351 2.326 1_565 S
Dy340 O355 2.310 1_565 S
Dy340 O356 2.351 . S
C341 O352 1.185 . S
C341 O353 1.355 . S
C342 O344 1.185 . S
C342 O345 1.355 . S
Dy343 O347 2.278 1_545 S
Dy343 O350 2.351 . S
Dy343 O352 2.398 . S
Dy343 O353 2.491 . S
Dy343 O354 2.403 . S
Dy343 O355 2.664 . S
Dy343 O357 2.326 1_545 S
O344 Dy340 2.398 . S
O344 C342 1.185 . S
O345 Dy340 2.491 . S
O345 C342 1.355 . S
O346 Dy340 2.403 . S
O346 C348 1.254 . S
O347 Dy340 2.683 . S
O347 Dy343 2.278 1_565 S
O347 C348 1.286 . S
C348 O346 1.254 . S
C348 O347 1.286 . S
C349 O354 1.254 . S
C349 O355 1.268 . S
O350 Dy343 2.351 . S
O350 C358 1.249 . S
O351 Dy340 2.326 1_545 S
O351 C358 1.267 . S
O352 C341 1.185 . S
O352 Dy343 2.398 . S
O353 C341 1.355 . S
O353 Dy343 2.491 . S
O354 Dy343 2.403 . S
O354 C349 1.254 . S
O355 Dy340 2.310 1_545 S
O355 Dy343 2.664 . S
O355 C349 1.268 . S
O356 Dy340 2.351 . S
O356 C359 1.249 . S
O357 Dy343 2.326 1_565 S
O357 C359 1.267 . S
C358 O350 1.249 . S
C358 O351 1.267 . S
C359 O356 1.249 . S
C359 O357 1.267 . S
Dy360 O364 2.398 . S
Dy360 O365 2.491 . S
Dy360 O366 2.403 . S
Dy360 O367 2.664 . S
Dy360 O371 2.326 . S
Dy360 O375 2.310 . S
Dy360 O376 2.351 . S
C361 O372 1.185 . S
C361 O373 1.355 . S
C362 O364 1.185 . S
C362 O365 1.355 . S
Dy363 O367 2.310 . S
Dy363 O370 2.351 . S
Dy363 O372 2.398 . S
Dy363 O373 2.491 . S
Dy363 O374 2.403 . S
Dy363 O375 2.664 . S
Dy363 O377 2.326 . S
O364 Dy360 2.398 . S
O364 C362 1.185 . S
O365 Dy360 2.491 . S
O365 C362 1.355 . S
O366 Dy360 2.403 . S
O366 C368 1.254 . S
O367 Dy360 2.664 . S
O367 Dy363 2.310 . S
O367 C368 1.268 . S
C368 O366 1.254 . S
C368 O367 1.268 . S
C369 O374 1.254 . S
C369 O375 1.268 . S
O370 Dy363 2.351 . S
O370 C378 1.249 . S
O371 Dy360 2.326 . S
O371 C378 1.267 . S
O372 C361 1.185 . S
O372 Dy363 2.398 . S
O373 C361 1.355 . S
O373 Dy363 2.491 . S
O374 Dy363 2.403 . S
O374 C369 1.254 . S
O375 Dy360 2.310 . S
O375 Dy363 2.664 . S
O375 C369 1.268 . S
O376 Dy360 2.351 . S
O376 C379 1.249 . S
O377 Dy363 2.326 . S
O377 C379 1.267 . S
C378 O370 1.249 . S
C378 O371 1.267 . S
C379 O376 1.249 . S
C379 O377 1.267 . S
Dy380 O384 2.398 . S
Dy380 O385 2.491 . S
Dy380 O386 2.403 1_655 S
Dy380 O387 2.664 1_655 S
Dy380 O391 2.326 . S
Dy380 O395 2.310 . S
Dy380 O396 2.351 1_655 S
C381 O392 1.185 . S
C381 O393 1.355 . S
C382 O384 1.185 . S
C382 O385 1.355 . S
Dy383 O387 2.310 . S
Dy383 O390 2.351 1_455 S
Dy383 O392 2.398 . S
Dy383 O393 2.491 . S
Dy383 O394 2.403 . S
Dy383 O395 2.664 1_455 S
Dy383 O397 2.326 . S
O384 Dy380 2.398 . S
O384 C382 1.185 . S
O385 Dy380 2.491 . S
O385 C382 1.355 . S
O386 Dy380 2.403 1_455 S
O386 C388 1.254 . S
O387 Dy380 2.664 1_455 S
O387 Dy383 2.310 . S
O387 C388 1.268 . S
C388 O386 1.254 . S
C388 O387 1.268 . S
C389 O394 1.225 1_655 S
C389 O395 1.270 . S
O390 Dy383 2.351 1_655 S
O390 C398 1.249 . S
O391 Dy380 2.326 . S
O391 C398 1.267 . S
O392 C381 1.185 . S
O392 Dy383 2.398 . S
O393 C381 1.355 . S
O393 Dy383 2.491 . S
O394 Dy383 2.403 . S
O394 C389 1.225 1_455 S
O395 Dy380 2.310 . S
O395 Dy383 2.664 1_655 S
O395 C389 1.270 . S
O396 Dy380 2.351 1_455 S
O396 C399 1.249 . S
O397 Dy383 2.326 . S
O397 C399 1.267 . S
C398 O390 1.249 . S
C398 O391 1.267 . S
C399 O396 1.249 . S
C399 O397 1.267 . S
C400 C401 1.346 1_545 S
C400 C402 1.327 . S
C400 H425 0.950 . S
C401 C400 1.346 1_565 S
C401 C417 1.352 . S
C402 C400 1.327 . S
C402 C421 1.389 1_545 S
C402 H426 0.950 . S
C403 C420 1.574 . S
C403 C422 1.368 . S
C403 H427 0.949 . S
H404 C408 0.949 . S
C405 C406 1.349 . S
C405 C407 1.327 . S
C405 H428 0.950 . S
C406 C405 1.349 . S
C406 C418 1.349 1_565 S
C407 C405 1.327 . S
C407 C423 1.429 . S
C407 H429 0.950 . S
C408 H404 0.949 . S
C408 C416 1.574 . S
C408 C424 1.368 1_545 S
H409 C417 0.950 . S
H410 C415 0.950 . S
H411 C416 0.949 . S
H412 C418 0.950 . S
H413 C419 0.950 . S
H414 C420 0.949 . S
C415 H410 0.950 . S
C415 C417 1.327 . S
C415 C421 1.473 . S
C416 C408 1.574 . S
C416 H411 0.949 . S
C416 C422 1.368 1_545 S
C417 C401 1.352 . S
C417 H409 0.950 . S
C417 C415 1.327 . S
C418 C406 1.349 1_545 S
C418 H412 0.950 . S
C418 C419 1.327 . S
C419 H413 0.950 . S
C419 C418 1.327 . S
C419 C423 1.429 1_545 S
C420 C403 1.574 . S
C420 H414 0.949 . S
C420 C424 1.368 . S
C421 C402 1.389 1_565 S
C421 C415 1.473 . S
C421 C422 1.521 . S
C422 C403 1.368 . S
C422 C416 1.368 1_565 S
C422 C421 1.521 . S
C423 C407 1.429 . S
C423 C419 1.429 1_565 S
C423 C424 1.523 . S
C424 C408 1.368 1_565 S
C424 C420 1.368 . S
C424 C423 1.523 . S
H425 C400 0.950 . S
H426 C402 0.950 . S
H427 C403 0.949 . S
H428 C405 0.950 . S
H429 C407 0.950 . S
C430 C431 1.349 . S
C430 C432 1.327 . S
C430 H455 0.950 . S
C431 C430 1.349 . S
C431 C447 1.349 . S
C432 C430 1.327 . S
C432 C451 1.429 . S
C432 H456 0.950 . S
C433 C450 1.574 . S
C433 C452 1.368 . S
C433 H457 0.949 . S
H434 C438 0.949 . S
C435 C436 1.349 . S
C435 C437 1.327 . S
C435 H458 0.950 . S
C436 C435 1.349 . S
C436 C448 1.349 . S
C437 C435 1.327 . S
C437 C453 1.429 . S
C437 H459 0.950 . S
C438 H434 0.949 . S
C438 C446 1.574 . S
C438 C454 1.368 . S
H439 C447 0.950 . S
H440 C445 0.950 . S
H441 C446 0.949 . S
H442 C448 0.950 . S
H443 C449 0.950 . S
H444 C450 0.949 . S
C445 H440 0.950 . S
C445 C447 1.327 . S
C445 C451 1.429 . S
C446 C438 1.574 . S
C446 H441 0.949 . S
C446 C452 1.368 . S
C447 C431 1.349 . S
C447 H439 0.950 . S
C447 C445 1.327 . S
C448 C436 1.349 . S
C448 H442 0.950 . S
C448 C449 1.327 . S
C449 H443 0.950 . S
C449 C448 1.327 . S
C449 C453 1.429 . S
C450 C433 1.574 . S
C450 H444 0.949 . S
C450 C454 1.368 . S
C451 C432 1.429 . S
C451 C445 1.429 . S
C451 C452 1.523 . S
C452 C433 1.368 . S
C452 C446 1.368 . S
C452 C451 1.523 . S
C453 C437 1.429 . S
C453 C449 1.429 . S
C453 C454 1.523 . S
C454 C438 1.368 . S
C454 C450 1.368 . S
C454 C453 1.523 . S
H455 C430 0.950 . S
H456 C432 0.950 . S
H457 C433 0.949 . S
H458 C435 0.950 . S
H459 C437 0.950 . S
C460 C461 1.349 . S
C460 C462 1.327 . S
C460 H485 0.950 . S
C461 C460 1.349 . S
C461 C477 1.349 . S
C462 C460 1.327 . S
C462 C481 1.429 . S
C462 H486 0.950 . S
C463 C480 1.574 . S
C463 C482 1.368 . S
C463 H487 0.949 . S
H464 C468 0.949 . S
C465 C466 1.349 . S
C465 C467 1.327 . S
C465 H488 0.950 . S
C466 C465 1.349 . S
C466 C478 1.349 . S
C467 C465 1.327 . S
C467 C483 1.429 . S
C467 H489 0.950 . S
C468 H464 0.949 . S
C468 C476 1.574 . S
C468 C484 1.368 . S
H469 C477 0.950 . S
H470 C475 0.950 . S
H471 C476 0.949 . S
H472 C478 0.950 . S
H473 C479 0.950 . S
H474 C480 0.949 . S
C475 H470 0.950 . S
C475 C477 1.327 . S
C475 C481 1.429 . S
C476 C468 1.574 . S
C476 H471 0.949 . S
C476 C482 1.368 . S
C477 C461 1.349 . S
C477 H469 0.950 . S
C477 C475 1.327 . S
C478 C466 1.349 . S
C478 H472 0.950 . S
C478 C479 1.327 . S
C479 H473 0.950 . S
C479 C478 1.327 . S
C479 C483 1.429 . S
C480 C463 1.574 . S
C480 H474 0.949 . S
C480 C484 1.368 . S
C481 C462 1.429 . S
C481 C475 1.429 . S
C481 C482 1.523 . S
C482 C463 1.368 . S
C482 C476 1.368 . S
C482 C481 1.523 . S
C483 C467 1.429 . S
C483 C479 1.429 . S
C483 C484 1.523 . S
C484 C468 1.368 . S
C484 C480 1.368 . S
C484 C483 1.523 . S
H485 C460 0.950 . S
H486 C462 0.950 . S
H487 C463 0.949 . S
H488 C465 0.950 . S
H489 C467 0.950 . S
C490 C491 1.349 . S
C490 C492 1.327 . S
C490 H515 0.950 . S
C491 C490 1.349 . S
C491 C507 1.349 . S
C492 C490 1.327 . S
C492 C511 1.429 . S
C492 H516 0.950 . S
C493 C510 1.574 . S
C493 C512 1.368 . S
C493 H517 0.949 . S
H494 C498 0.949 . S
C495 C496 1.349 . S
C495 C497 1.327 . S
C495 H518 0.950 . S
C496 C495 1.349 . S
C496 C508 1.349 . S
C497 C495 1.327 . S
C497 C513 1.429 . S
C497 H519 0.950 . S
C498 H494 0.949 . S
C498 C506 1.574 . S
C498 C514 1.368 . S
H499 C507 0.950 . S
H500 C505 0.950 . S
H501 C506 0.949 . S
H502 C508 0.950 . S
H503 C509 0.950 . S
H504 C510 0.949 . S
C505 H500 0.950 . S
C505 C507 1.327 . S
C505 C511 1.429 . S
C506 C498 1.574 . S
C506 H501 0.949 . S
C506 C512 1.368 . S
C507 C491 1.349 . S
C507 H499 0.950 . S
C507 C505 1.327 . S
C508 C496 1.349 . S
C508 H502 0.950 . S
C508 C509 1.327 . S
C509 H503 0.950 . S
C509 C508 1.327 . S
C509 C513 1.429 . S
C510 C493 1.574 . S
C510 H504 0.949 . S
C510 C514 1.368 . S
C511 C492 1.429 . S
C511 C505 1.429 . S
C511 C512 1.523 . S
C512 C493 1.368 . S
C512 C506 1.368 . S
C512 C511 1.523 . S
C513 C497 1.429 . S
C513 C509 1.429 . S
C513 C514 1.523 . S
C514 C498 1.368 . S
C514 C510 1.368 . S
C514 C513 1.523 . S
H515 C490 0.950 . S
H516 C492 0.950 . S
H517 C493 0.949 . S
H518 C495 0.950 . S
H519 C497 0.950 . S
C520 C521 1.361 . S
C520 C522 1.327 . S
C520 H545 0.950 . S
C521 C520 1.361 . S
C521 C537 1.336 1_545 S
C522 C520 1.327 . S
C522 C541 1.429 . S
C522 H546 0.950 . S
C523 C540 1.574 . S
C523 C542 1.368 1_565 S
C523 H547 0.949 . S
H524 C528 0.949 . S
C525 C526 1.349 1_565 S
C525 C527 1.327 . S
C525 H548 0.950 . S
C526 C525 1.349 1_545 S
C526 C538 1.349 . S
C527 C525 1.327 . S
C527 C543 1.429 1_565 S
C527 H549 0.950 . S
C528 H524 0.949 . S
C528 C536 1.574 . S
C528 C544 1.368 . S
H529 C537 0.950 . S
H530 C535 0.950 . S
H531 C536 0.949 . S
H532 C538 0.950 . S
H533 C539 0.950 . S
H534 C540 0.949 . S
C535 H530 0.950 . S
C535 C537 1.327 . S
C535 C541 1.429 1_565 S
C536 C528 1.574 . S
C536 H531 0.949 . S
C536 C542 1.368 . S
C537 C521 1.336 1_565 S
C537 H529 0.950 . S
C537 C535 1.327 . S
C538 C526 1.349 . S
C538 H532 0.950 . S
C538 C539 1.327 . S
C539 H533 0.950 . S
C539 C538 1.327 . S
C539 C543 1.429 . S
C540 C523 1.574 . S
C540 H534 0.949 . S
C540 C544 1.368 1_565 S
C541 C522 1.429 . S
C541 C535 1.429 1_545 S
C541 C542 1.523 . S
C542 C523 1.368 1_545 S
C542 C536 1.368 . S
C542 C541 1.523 . S
C543 C527 1.429 1_545 S
C543 C539 1.429 . S
C543 C544 1.523 . S
C544 C528 1.368 . S
C544 C540 1.368 1_545 S
C544 C543 1.523 . S
H545 C520 0.950 . S
H546 C522 0.950 . S
H547 C523 0.949 . S
H548 C525 0.950 . S
H549 C527 0.950 . S
C550 C551 1.349 . S
C550 C552 1.327 . S
C550 H575 0.950 . S
C551 C550 1.349 . S
C551 C567 1.349 . S
C552 C550 1.327 . S
C552 C571 1.429 . S
C552 H576 0.950 . S
C553 C570 1.574 . S
C553 C572 1.368 . S
C553 H577 0.949 . S
H554 C558 0.949 . S
C555 C556 1.349 . S
C555 C557 1.327 . S
C555 H578 0.950 . S
C556 C555 1.349 . S
C556 C568 1.349 . S
C557 C555 1.327 . S
C557 C573 1.429 . S
C557 H579 0.950 . S
C558 H554 0.949 . S
C558 C566 1.574 . S
C558 C574 1.368 . S
H559 C567 0.950 . S
H560 C565 0.950 . S
H561 C566 0.949 . S
H562 C568 0.950 . S
H563 C569 0.950 . S
H564 C570 0.949 . S
C565 H560 0.950 . S
C565 C567 1.327 . S
C565 C571 1.429 . S
C566 C558 1.574 . S
C566 H561 0.949 . S
C566 C572 1.368 . S
C567 C551 1.349 . S
C567 H559 0.950 . S
C567 C565 1.327 . S
C568 C556 1.349 . S
C568 H562 0.950 . S
C568 C569 1.327 . S
C569 H563 0.950 . S
C569 C568 1.327 . S
C569 C573 1.429 . S
C570 C553 1.574 . S
C570 H564 0.949 . S
C570 C574 1.368 . S
C571 C552 1.429 . S
C571 C565 1.429 . S
C571 C572 1.523 . S
C572 C553 1.368 . S
C572 C566 1.368 . S
C572 C571 1.523 . S
C573 C557 1.429 . S
C573 C569 1.429 . S
C573 C574 1.523 . S
C574 C558 1.368 . S
C574 C570 1.368 . S
C574 C573 1.523 . S
H575 C550 0.950 . S
H576 C552 0.950 . S
H577 C553 0.949 . S
H578 C555 0.950 . S
H579 C557 0.950 . S
C580 C581 1.349 . S
C580 C582 1.327 . S
C580 H605 0.950 . S
C581 C580 1.349 . S
C581 C597 1.349 . S
C582 C580 1.327 . S
C582 C601 1.429 . S
C582 H606 0.950 . S
C583 C600 1.574 . S
C583 C602 1.368 . S
C583 H607 0.949 . S
H584 C588 0.949 . S
C585 C586 1.349 . S
C585 C587 1.327 . S
C585 H608 0.950 . S
C586 C585 1.349 . S
C586 C598 1.349 . S
C587 C585 1.327 . S
C587 C603 1.429 . S
C587 H609 0.950 . S
C588 H584 0.949 . S
C588 C596 1.574 . S
C588 C604 1.368 . S
H589 C597 0.950 . S
H590 C595 0.950 . S
H591 C596 0.949 . S
H592 C598 0.950 . S
H593 C599 0.950 . S
H594 C600 0.949 . S
C595 H590 0.950 . S
C595 C597 1.327 . S
C595 C601 1.429 . S
C596 C588 1.574 . S
C596 H591 0.949 . S
C596 C602 1.368 . S
C597 C581 1.349 . S
C597 H589 0.950 . S
C597 C595 1.327 . S
C598 C586 1.349 . S
C598 H592 0.950 . S
C598 C599 1.327 . S
C599 H593 0.950 . S
C599 C598 1.327 . S
C599 C603 1.429 . S
C600 C583 1.574 . S
C600 H594 0.949 . S
C600 C604 1.368 . S
C601 C582 1.429 . S
C601 C595 1.429 . S
C601 C602 1.523 . S
C602 C583 1.368 . S
C602 C596 1.368 . S
C602 C601 1.523 . S
C603 C587 1.429 . S
C603 C599 1.429 . S
C603 C604 1.523 . S
C604 C588 1.368 . S
C604 C600 1.368 . S
C604 C603 1.523 . S
H605 C580 0.950 . S
H606 C582 0.950 . S
H607 C583 0.949 . S
H608 C585 0.950 . S
H609 C587 0.950 . S
C610 C611 1.349 . S
C610 C612 1.327 . S
C610 H635 0.950 . S
C611 C610 1.349 . S
C611 C627 1.349 . S
C612 C610 1.327 . S
C612 C631 1.429 . S
C612 H636 0.950 . S
C613 C630 1.574 . S
C613 C632 1.368 . S
C613 H637 0.949 . S
H614 C618 0.949 . S
C615 C616 1.349 . S
C615 C617 1.327 . S
C615 H638 0.950 . S
C616 C615 1.349 . S
C616 C628 1.349 . S
C617 C615 1.327 . S
C617 C633 1.429 . S
C617 H639 0.950 . S
C618 H614 0.949 . S
C618 C626 1.574 . S
C618 C634 1.368 . S
H619 C627 0.950 . S
H620 C625 0.950 . S
H621 C626 0.949 . S
H622 C628 0.921 1_455 S
H623 C629 0.950 . S
H624 C630 0.949 . S
C625 H620 0.950 . S
C625 C627 1.327 . S
C625 C631 1.429 . S
C626 C618 1.574 . S
C626 H621 0.949 . S
C626 C632 1.368 . S
C627 C611 1.349 . S
C627 H619 0.950 . S
C627 C625 1.327 . S
C628 C616 1.349 . S
C628 H622 0.921 1_655 S
C628 C629 1.327 . S
C629 H623 0.950 . S
C629 C628 1.327 . S
C629 C633 1.429 . S
C630 C613 1.574 . S
C630 H624 0.949 . S
C630 C634 1.368 . S
C631 C612 1.429 . S
C631 C625 1.429 . S
C631 C632 1.523 . S
C632 C613 1.368 . S
C632 C626 1.368 . S
C632 C631 1.523 . S
C633 C617 1.429 . S
C633 C629 1.429 . S
C633 C634 1.523 . S
C634 C618 1.368 . S
C634 C630 1.368 . S
C634 C633 1.523 . S
H635 C610 0.950 . S
H636 C612 0.950 . S
H637 C613 0.949 . S
H638 C615 0.950 . S
H639 C617 0.950 . S
C640 C641 1.349 . S
C640 C642 1.327 . S
C640 H665 0.950 . S
C641 C640 1.349 . S
C641 C657 1.349 . S
C642 C640 1.327 . S
C642 C661 1.429 . S
C642 H666 0.950 . S
C643 C660 1.574 . S
C643 C662 1.368 . S
C643 H667 0.949 . S
H644 C648 0.949 . S
C645 C646 1.349 . S
C645 C647 1.327 . S
C645 H668 0.950 . S
C646 C645 1.349 . S
C646 C658 1.349 . S
C647 C645 1.327 . S
C647 C663 1.429 . S
C647 H669 0.950 . S
C648 H644 0.949 . S
C648 C656 1.574 . S
C648 C664 1.368 . S
H649 C657 0.950 . S
H650 C655 0.950 . S
H651 C656 0.949 . S
H652 C658 0.950 . S
H653 C659 0.950 . S
H654 C660 0.949 . S
C655 H650 0.950 . S
C655 C657 1.327 . S
C655 C661 1.429 . S
C656 C648 1.574 . S
C656 H651 0.949 . S
C656 C662 1.368 . S
C657 C641 1.349 . S
C657 H649 0.950 . S
C657 C655 1.327 . S
C658 C646 1.349 . S
C658 H652 0.950 . S
C658 C659 1.327 . S
C659 H653 0.950 . S
C659 C658 1.327 . S
C659 C663 1.429 . S
C660 C643 1.574 . S
C660 H654 0.949 . S
C660 C664 1.368 . S
C661 C642 1.429 . S
C661 C655 1.429 . S
C661 C662 1.523 . S
C662 C643 1.368 . S
C662 C656 1.368 . S
C662 C661 1.523 . S
C663 C647 1.429 . S
C663 C659 1.429 . S
C663 C664 1.523 . S
C664 C648 1.368 . S
C664 C660 1.368 . S
C664 C663 1.523 . S
H665 C640 0.950 . S
H666 C642 0.950 . S
H667 C643 0.949 . S
H668 C645 0.950 . S
H669 C647 0.950 . S
C670 C671 1.345 . S
C670 C672 1.317 1_545 S
C670 H695 0.948 . S
C671 C670 1.345 . S
C671 C687 1.347 . S
C672 C670 1.317 1_565 S
C672 C691 1.433 . S
C672 H696 0.956 . S
C673 C690 1.574 . S
C673 C692 1.368 . S
C673 H697 0.949 . S
H674 C678 0.949 . S
C675 C676 1.349 . S
C675 C677 1.327 . S
C675 H698 0.950 . S
C676 C675 1.349 . S
C676 C688 1.349 . S
C677 C675 1.327 . S
C677 C693 1.429 . S
C677 H699 0.950 . S
C678 H674 0.949 . S
C678 C686 1.574 . S
C678 C694 1.368 . S
H679 C687 0.947 . S
H680 C685 0.948 . S
H681 C686 0.949 . S
H682 C688 0.950 . S
H683 C689 0.950 . S
H684 C690 0.949 . S
C685 H680 0.948 . S
C685 C687 1.317 1_565 S
C685 C691 1.433 . S
C686 C678 1.574 . S
C686 H681 0.949 . S
C686 C692 1.368 . S
C687 C671 1.347 . S
C687 H679 0.947 . S
C687 C685 1.317 1_545 S
C688 C676 1.349 . S
C688 H682 0.950 . S
C688 C689 1.327 . S
C689 H683 0.950 . S
C689 C688 1.327 . S
C689 C693 1.429 . S
C690 C673 1.574 . S
C690 H684 0.949 . S
C690 C694 1.368 . S
C691 C672 1.433 . S
C691 C685 1.433 . S
C691 C692 1.523 . S
C692 C673 1.368 . S
C692 C686 1.368 . S
C692 C691 1.523 . S
C693 C677 1.429 . S
C693 C689 1.429 . S
C693 C694 1.523 . S
C694 C678 1.368 . S
C694 C690 1.368 . S
C694 C693 1.523 . S
H695 C670 0.948 . S
H696 C672 0.956 . S
H697 C673 0.949 . S
H698 C675 0.950 . S
H699 C677 0.950 . S
C700 C701 1.349 . S
C700 C702 1.327 . S
C700 H725 0.950 . S
C701 C700 1.349 . S
C701 C717 1.349 . S
C702 C700 1.327 . S
C702 C721 1.429 . S
C702 H726 0.950 . S
C703 C720 1.574 . S
C703 C722 1.368 . S
C703 H727 0.949 . S
H704 C708 0.949 . S
C705 C706 1.349 . S
C705 C707 1.327 . S
C705 H728 0.950 . S
C706 C705 1.349 . S
C706 C718 1.349 . S
C707 C705 1.327 . S
C707 C723 1.429 . S
C707 H729 0.950 . S
C708 H704 0.949 . S
C708 C716 1.574 . S
C708 C724 1.368 . S
H709 C717 0.950 . S
H710 C715 0.950 . S
H711 C716 0.949 . S
H712 C718 0.950 . S
H713 C719 0.950 . S
H714 C720 0.949 . S
C715 H710 0.950 . S
C715 C717 1.327 . S
C715 C721 1.429 . S
C716 C708 1.574 . S
C716 H711 0.949 . S
C716 C722 1.368 . S
C717 C701 1.349 . S
C717 H709 0.950 . S
C717 C715 1.327 . S
C718 C706 1.349 . S
C718 H712 0.950 . S
C718 C719 1.327 . S
C719 H713 0.950 . S
C719 C718 1.327 . S
C719 C723 1.429 . S
C720 C703 1.574 . S
C720 H714 0.949 . S
C720 C724 1.368 . S
C721 C702 1.429 . S
C721 C715 1.429 . S
C721 C722 1.523 . S
C722 C703 1.368 . S
C722 C716 1.368 . S
C722 C721 1.523 . S
C723 C707 1.429 . S
C723 C719 1.429 . S
C723 C724 1.523 . S
C724 C708 1.368 . S
C724 C720 1.368 . S
C724 C723 1.523 . S
H725 C700 0.950 . S
H726 C702 0.950 . S
H727 C703 0.949 . S
H728 C705 0.950 . S
H729 C707 0.950 . S
C730 C731 1.349 . S
C730 C732 1.327 . S
C730 H755 0.950 . S
C731 C730 1.349 . S
C731 C747 1.349 . S
C732 C730 1.327 . S
C732 C751 1.429 . S
C732 H756 0.950 . S
C733 C750 1.574 . S
C733 C752 1.368 . S
C733 H757 0.949 . S
H734 C738 0.949 . S
C735 C736 1.349 . S
C735 C737 1.327 . S
C735 H758 0.950 . S
C736 C735 1.349 . S
C736 C748 1.349 . S
C737 C735 1.327 . S
C737 C753 1.429 . S
C737 H759 0.950 . S
C738 H734 0.949 . S
C738 C746 1.574 . S
C738 C754 1.368 . S
H739 C747 0.950 . S
H740 C745 0.950 . S
H741 C746 0.949 . S
H742 C748 0.950 . S
H743 C749 0.950 . S
H744 C750 0.949 . S
C745 H740 0.950 . S
C745 C747 1.327 . S
C745 C751 1.429 . S
C746 C738 1.574 . S
C746 H741 0.949 . S
C746 C752 1.368 . S
C747 C731 1.349 . S
C747 H739 0.950 . S
C747 C745 1.327 . S
C748 C736 1.349 . S
C748 H742 0.950 . S
C748 C749 1.327 . S
C749 H743 0.950 . S
C749 C748 1.327 . S
C749 C753 1.429 . S
C750 C733 1.574 . S
C750 H744 0.949 . S
C750 C754 1.368 . S
C751 C732 1.429 . S
C751 C745 1.429 . S
C751 C752 1.523 . S
C752 C733 1.368 . S
C752 C746 1.368 . S
C752 C751 1.523 . S
C753 C737 1.429 . S
C753 C749 1.429 . S
C753 C754 1.523 . S
C754 C738 1.368 . S
C754 C750 1.368 . S
C754 C753 1.523 . S
H755 C730 0.950 . S
H756 C732 0.950 . S
H757 C733 0.949 . S
H758 C735 0.950 . S
H759 C737 0.950 . S
C760 C761 1.349 . S
C760 C762 1.327 . S
C760 H785 0.950 . S
C761 C760 1.349 . S
C761 C777 1.349 . S
C762 C760 1.327 . S
C762 C781 1.429 . S
C762 H786 0.950 . S
C763 C780 1.574 . S
C763 C782 1.368 . S
C763 H787 0.949 . S
H764 C768 0.949 . S
C765 C766 1.332 1_655 S
C765 C767 1.327 . S
C765 H788 0.950 . S
C766 C765 1.332 1_455 S
C766 C778 1.353 1_455 S
C767 C765 1.327 . S
C767 C783 1.429 . S
C767 H789 0.950 . S
C768 H764 0.949 . S
C768 C776 1.574 . S
C768 C784 1.368 . S
H769 C777 0.950 . S
H770 C775 0.950 . S
H771 C776 0.949 . S
H772 C778 0.924 1_455 S
H773 C779 0.950 . S
H774 C780 0.949 . S
C775 H770 0.950 . S
C775 C777 1.327 . S
C775 C781 1.429 . S
C776 C768 1.574 . S
C776 H771 0.949 . S
C776 C782 1.368 . S
C777 C761 1.349 . S
C777 H769 0.950 . S
C777 C775 1.327 . S
C778 C766 1.353 1_655 S
C778 H772 0.924 1_655 S
C778 C779 1.354 . S
C779 H773 0.950 . S
C779 C778 1.354 . S
C779 C783 1.429 . S
C780 C763 1.574 . S
C780 H774 0.949 . S
C780 C784 1.368 . S
C781 C762 1.429 . S
C781 C775 1.429 . S
C781 C782 1.523 . S
C782 C763 1.368 . S
C782 C776 1.368 . S
C782 C781 1.523 . S
C783 C767 1.429 . S
C783 C779 1.429 . S
C783 C784 1.523 . S
C784 C768 1.368 . S
C784 C780 1.368 . S
C784 C783 1.523 . S
H785 C760 0.950 . S
H786 C762 0.950 . S
H787 C763 0.949 . S
H788 C765 0.950 . S
H789 C767 0.950 . S
C790 C791 1.307 1_545 S
C790 C792 1.327 . S
C790 H815 0.950 . S
C791 C790 1.307 1_565 S
C791 C807 1.382 . S
C792 C790 1.327 . S
C792 C811 1.429 . S
C792 H816 0.950 . S
C793 C810 1.574 . S
C793 C812 1.368 1_565 S
C793 H817 0.949 . S
H794 C798 0.949 . S
C795 C796 1.349 1_565 S
C795 C797 1.327 . S
C795 H818 0.950 . S
C796 C795 1.349 1_545 S
C796 C808 1.349 . S
C797 C795 1.327 . S
C797 C813 1.429 1_565 S
C797 H819 0.950 . S
C798 H794 0.949 . S
C798 C806 1.574 . S
C798 C814 1.368 . S
H799 C807 0.950 . S
H800 C805 0.950 . S
H801 C806 0.949 . S
H802 C808 0.950 . S
H803 C809 0.950 . S
H804 C810 0.949 . S
C805 H800 0.950 . S
C805 C807 1.327 . S
C805 C811 1.429 1_565 S
C806 C798 1.574 . S
C806 H801 0.949 . S
C806 C812 1.368 . S
C807 C791 1.382 . S
C807 H799 0.950 . S
C807 C805 1.327 . S
C808 C796 1.349 . S
C808 H802 0.950 . S
C808 C809 1.327 . S
C809 H803 0.950 . S
C809 C808 1.327 . S
C809 C813 1.429 . S
C810 C793 1.574 . S
C810 H804 0.949 . S
C810 C814 1.368 1_565 S
C811 C792 1.429 . S
C811 C805 1.429 1_545 S
C811 C812 1.523 . S
C812 C793 1.368 1_545 S
C812 C806 1.368 . S
C812 C811 1.523 . S
C813 C797 1.429 1_545 S
C813 C809 1.429 . S
C813 C814 1.523 . S
C814 C798 1.368 . S
C814 C810 1.368 1_545 S
C814 C813 1.523 . S
H815 C790 0.950 . S
H816 C792 0.950 . S
H817 C793 0.949 . S
H818 C795 0.950 . S
H819 C797 0.950 . S
C820 C821 1.349 . S
C820 C822 1.327 . S
C820 H845 0.950 . S
C821 C820 1.349 . S
C821 C837 1.349 . S
C822 C820 1.327 . S
C822 C841 1.429 . S
C822 H846 0.950 . S
C823 C840 1.574 . S
C823 C842 1.368 . S
C823 H847 0.949 . S
H824 C828 0.949 . S
C825 C826 1.349 . S
C825 C827 1.327 . S
C825 H848 0.950 . S
C826 C825 1.349 . S
C826 C838 1.349 . S
C827 C825 1.327 . S
C827 C843 1.429 . S
C827 H849 0.950 . S
C828 H824 0.949 . S
C828 C836 1.574 . S
C828 C844 1.368 . S
H829 C837 0.950 . S
H830 C835 0.950 . S
H831 C836 0.949 . S
H832 C838 0.950 . S
H833 C839 0.950 . S
H834 C840 0.949 . S
C835 H830 0.950 . S
C835 C837 1.327 . S
C835 C841 1.429 . S
C836 C828 1.574 . S
C836 H831 0.949 . S
C836 C842 1.368 . S
C837 C821 1.349 . S
C837 H829 0.950 . S
C837 C835 1.327 . S
C838 C826 1.349 . S
C838 H832 0.950 . S
C838 C839 1.327 . S
C839 H833 0.950 . S
C839 C838 1.327 . S
C839 C843 1.429 . S
C840 C823 1.574 . S
C840 H834 0.949 . S
C840 C844 1.368 . S
C841 C822 1.429 . S
C841 C835 1.429 . S
C841 C842 1.523 . S
C842 C823 1.368 . S
C842 C836 1.368 . S
C842 C841 1.523 . S
C843 C827 1.429 . S
C843 C839 1.429 . S
C843 C844 1.523 . S
C844 C828 1.368 . S
C844 C840 1.368 . S
C844 C843 1.523 . S
H845 C820 0.950 . S
H846 C822 0.950 . S
H847 C823 0.949 . S
H848 C825 0.950 . S
H849 C827 0.950 . S
C850 C851 1.349 . S
C850 C852 1.327 . S
C850 H875 0.950 . S
C851 C850 1.349 . S
C851 C867 1.349 . S
C852 C850 1.327 . S
C852 C871 1.429 . S
C852 H876 0.950 . S
C853 C870 1.574 . S
C853 C872 1.368 . S
C853 H877 0.949 . S
H854 C858 0.949 . S
C855 C856 1.349 . S
C855 C857 1.327 . S
C855 H878 0.950 . S
C856 C855 1.349 . S
C856 C868 1.349 . S
C857 C855 1.327 . S
C857 C873 1.429 . S
C857 H879 0.950 . S
C858 H854 0.949 . S
C858 C866 1.574 . S
C858 C874 1.368 . S
H859 C867 0.950 . S
H860 C865 0.950 . S
H861 C866 0.949 . S
H862 C868 0.950 . S
H863 C869 0.950 . S
H864 C870 0.949 . S
C865 H860 0.950 . S
C865 C867 1.327 . S
C865 C871 1.429 . S
C866 C858 1.574 . S
C866 H861 0.949 . S
C866 C872 1.368 . S
C867 C851 1.349 . S
C867 H859 0.950 . S
C867 C865 1.327 . S
C868 C856 1.349 . S
C868 H862 0.950 . S
C868 C869 1.327 . S
C869 H863 0.950 . S
C869 C868 1.327 . S
C869 C873 1.429 . S
C870 C853 1.574 . S
C870 H864 0.949 . S
C870 C874 1.368 . S
C871 C852 1.429 . S
C871 C865 1.429 . S
C871 C872 1.523 . S
C872 C853 1.368 . S
C872 C866 1.368 . S
C872 C871 1.523 . S
C873 C857 1.429 . S
C873 C869 1.429 . S
C873 C874 1.523 . S
C874 C858 1.368 . S
C874 C870 1.368 . S
C874 C873 1.523 . S
H875 C850 0.950 . S
H876 C852 0.950 . S
H877 C853 0.949 . S
H878 C855 0.950 . S
H879 C857 0.950 . S
C880 C881 1.349 . S
C880 C882 1.327 . S
C880 H905 0.950 . S
C881 C880 1.349 . S
C881 C897 1.349 . S
C882 C880 1.327 . S
C882 C901 1.429 . S
C882 H906 0.950 . S
C883 C900 1.574 . S
C883 C902 1.368 . S
C883 H907 0.949 . S
H884 C888 0.949 . S
C885 C886 1.349 . S
C885 C887 1.327 . S
C885 H908 0.950 . S
C886 C885 1.349 . S
C886 C898 1.349 . S
C887 C885 1.327 . S
C887 C903 1.429 . S
C887 H909 0.950 . S
C888 H884 0.949 . S
C888 C896 1.574 . S
C888 C904 1.368 . S
H889 C897 0.950 . S
H890 C895 0.950 . S
H891 C896 0.949 . S
H892 C898 0.950 . S
H893 C899 0.950 . S
H894 C900 0.949 . S
C895 H890 0.950 . S
C895 C897 1.327 . S
C895 C901 1.429 . S
C896 C888 1.574 . S
C896 H891 0.949 . S
C896 C902 1.368 . S
C897 C881 1.349 . S
C897 H889 0.950 . S
C897 C895 1.327 . S
C898 C886 1.349 . S
C898 H892 0.950 . S
C898 C899 1.327 . S
C899 H893 0.950 . S
C899 C898 1.327 . S
C899 C903 1.429 . S
C900 C883 1.574 . S
C900 H894 0.949 . S
C900 C904 1.368 . S
C901 C882 1.429 . S
C901 C895 1.429 . S
C901 C902 1.523 . S
C902 C883 1.368 . S
C902 C896 1.368 . S
C902 C901 1.523 . S
C903 C887 1.429 . S
C903 C899 1.429 . S
C903 C904 1.523 . S
C904 C888 1.368 . S
C904 C900 1.368 . S
C904 C903 1.523 . S
H905 C880 0.950 . S
H906 C882 0.950 . S
H907 C883 0.949 . S
H908 C885 0.950 . S
H909 C887 0.950 . S
C910 C911 1.333 1_565 S
C910 C912 1.327 . S
C910 H935 0.950 . S
C911 C910 1.333 1_545 S
C911 C927 1.363 . S
C912 C910 1.327 . S
C912 C931 1.429 1_565 S
C912 H936 0.950 . S
C913 C930 1.574 . S
C913 C932 1.368 . S
C913 H937 0.949 . S
H914 C918 0.949 . S
C915 C916 1.349 . S
C915 C917 1.327 . S
C915 H938 0.950 . S
C916 C915 1.349 . S
C916 C928 1.349 1_545 S
C917 C915 1.327 . S
C917 C933 1.429 . S
C917 H939 0.950 . S
C918 H914 0.949 . S
C918 C926 1.574 . S
C918 C934 1.368 1_565 S
H919 C927 0.950 . S
H920 C925 0.950 . S
H921 C926 0.949 . S
H922 C928 0.950 . S
H923 C929 0.950 . S
H924 C930 0.949 . S
C925 H920 0.950 . S
C925 C927 1.327 . S
C925 C931 1.429 . S
C926 C918 1.574 . S
C926 H921 0.949 . S
C926 C932 1.368 1_565 S
C927 C911 1.363 . S
C927 H919 0.950 . S
C927 C925 1.327 . S
C928 C916 1.349 1_565 S
C928 H922 0.950 . S
C928 C929 1.327 . S
C929 H923 0.950 . S
C929 C928 1.327 . S
C929 C933 1.429 1_565 S
C930 C913 1.574 . S
C930 H924 0.949 . S
C930 C934 1.368 . S
C931 C912 1.429 1_545 S
C931 C925 1.429 . S
C931 C932 1.523 . S
C932 C913 1.368 . S
C932 C926 1.368 1_545 S
C932 C931 1.523 . S
C933 C917 1.429 . S
C933 C929 1.429 1_545 S
C933 C934 1.523 . S
C934 C918 1.368 1_545 S
C934 C930 1.368 . S
C934 C933 1.523 . S
H935 C910 0.950 . S
H936 C912 0.950 . S
H937 C913 0.949 . S
H938 C915 0.950 . S
H939 C917 0.950 . S
C940 C941 1.349 . S
C940 C942 1.327 . S
C940 H965 0.950 . S
C941 C940 1.349 . S
C941 C957 1.349 . S
C942 C940 1.327 . S
C942 C961 1.429 . S
C942 H966 0.950 . S
C943 C960 1.574 . S
C943 C962 1.368 . S
C943 H967 0.949 . S
H944 C948 0.949 . S
C945 C946 1.349 . S
C945 C947 1.327 . S
C945 H968 0.950 . S
C946 C945 1.349 . S
C946 C958 1.349 . S
C947 C945 1.327 . S
C947 C963 1.429 . S
C947 H969 0.950 . S
C948 H944 0.949 . S
C948 C956 1.574 . S
C948 C964 1.368 . S
H949 C957 0.950 . S
H950 C955 0.950 . S
H951 C956 0.949 . S
H952 C958 0.950 . S
H953 C959 0.950 . S
H954 C960 0.949 . S
C955 H950 0.950 . S
C955 C957 1.327 . S
C955 C961 1.429 . S
C956 C948 1.574 . S
C956 H951 0.949 . S
C956 C962 1.368 . S
C957 C941 1.349 . S
C957 H949 0.950 . S
C957 C955 1.327 . S
C958 C946 1.349 . S
C958 H952 0.950 . S
C958 C959 1.327 . S
C959 H953 0.950 . S
C959 C958 1.327 . S
C959 C963 1.429 . S
C960 C943 1.574 . S
C960 H954 0.949 . S
C960 C964 1.368 . S
C961 C942 1.429 . S
C961 C955 1.429 . S
C961 C962 1.523 . S
C962 C943 1.368 . S
C962 C956 1.368 . S
C962 C961 1.523 . S
C963 C947 1.429 . S
C963 C959 1.429 . S
C963 C964 1.523 . S
C964 C948 1.368 . S
C964 C960 1.368 . S
C964 C963 1.523 . S
H965 C940 0.950 . S
H966 C942 0.950 . S
H967 C943 0.949 . S
H968 C945 0.950 . S
H969 C947 0.950 . S
C970 C971 1.349 . S
C970 C972 1.327 . S
C970 H995 0.950 . S
C971 C970 1.349 . S
C971 C987 1.349 . S
C972 C970 1.327 . S
C972 C991 1.429 . S
C972 H996 0.950 . S
C973 C990 1.574 . S
C973 C992 1.368 . S
C973 H997 0.949 . S
H974 C978 0.949 . S
C975 C976 1.349 . S
C975 C977 1.327 . S
C975 H998 0.950 . S
C976 C975 1.349 . S
C976 C988 1.349 . S
C977 C975 1.327 . S
C977 C993 1.429 . S
C977 H999 0.950 . S
C978 H974 0.949 . S
C978 C986 1.574 . S
C978 C994 1.368 . S
H979 C987 0.950 . S
H980 C985 0.950 . S
H981 C986 0.949 . S
H982 C988 0.950 . S
H983 C989 0.950 . S
H984 C990 0.949 . S
C985 H980 0.950 . S
C985 C987 1.327 . S
C985 C991 1.429 . S
C986 C978 1.574 . S
C986 H981 0.949 . S
C986 C992 1.368 . S
C987 C971 1.349 . S
C987 H979 0.950 . S
C987 C985 1.327 . S
C988 C976 1.349 . S
C988 H982 0.950 . S
C988 C989 1.327 . S
C989 H983 0.950 . S
C989 C988 1.327 . S
C989 C993 1.429 . S
C990 C973 1.574 . S
C990 H984 0.949 . S
C990 C994 1.368 . S
C991 C972 1.429 . S
C991 C985 1.429 . S
C991 C992 1.523 . S
C992 C973 1.368 . S
C992 C986 1.368 . S
C992 C991 1.523 . S
C993 C977 1.429 . S
C993 C989 1.429 . S
C993 C994 1.523 . S
C994 C978 1.368 . S
C994 C990 1.368 . S
C994 C993 1.523 . S
H995 C970 0.950 . S
H996 C972 0.950 . S
H997 C973 0.949 . S
H998 C975 0.950 . S
H999 C977 0.950 . S
C1000 C1001 1.349 . S
C1000 C1002 1.327 . S
C1000 H1025 0.950 . S
C1001 C1000 1.349 . S
C1001 C1017 1.349 . S
C1002 C1000 1.327 . S
C1002 C1021 1.429 . S
C1002 H1026 0.950 . S
C1003 C1020 1.574 . S
C1003 C1022 1.368 . S
C1003 H1027 0.949 . S
H1004 C1008 0.949 . S
C1005 C1006 1.349 . S
C1005 C1007 1.327 . S
C1005 H1028 0.950 . S
C1006 C1005 1.349 . S
C1006 C1018 1.349 . S
C1007 C1005 1.327 . S
C1007 C1023 1.429 . S
C1007 H1029 0.950 . S
C1008 H1004 0.949 . S
C1008 C1016 1.574 . S
C1008 C1024 1.368 . S
H1009 C1017 0.950 . S
H1010 C1015 0.950 . S
H1011 C1016 0.949 . S
H1012 C1018 0.950 . S
H1013 C1019 0.950 . S
H1014 C1020 0.949 . S
C1015 H1010 0.950 . S
C1015 C1017 1.327 . S
C1015 C1021 1.429 . S
C1016 C1008 1.574 . S
C1016 H1011 0.949 . S
C1016 C1022 1.368 . S
C1017 C1001 1.349 . S
C1017 H1009 0.950 . S
C1017 C1015 1.327 . S
C1018 C1006 1.349 . S
C1018 H1012 0.950 . S
C1018 C1019 1.327 . S
C1019 H1013 0.950 . S
C1019 C1018 1.327 . S
C1019 C1023 1.429 . S
C1020 C1003 1.574 . S
C1020 H1014 0.949 . S
C1020 C1024 1.368 . S
C1021 C1002 1.429 . S
C1021 C1015 1.429 . S
C1021 C1022 1.523 . S
C1022 C1003 1.368 . S
C1022 C1016 1.368 . S
C1022 C1021 1.523 . S
C1023 C1007 1.429 . S
C1023 C1019 1.429 . S
C1023 C1024 1.523 . S
C1024 C1008 1.368 . S
C1024 C1020 1.368 . S
C1024 C1023 1.523 . S
H1025 C1000 0.950 . S
H1026 C1002 0.950 . S
H1027 C1003 0.949 . S
H1028 C1005 0.950 . S
H1029 C1007 0.950 . S
C1030 C1031 1.354 . S
C1030 C1032 1.327 . S
C1030 H1055 0.950 . S
C1031 C1030 1.354 . S
C1031 C1047 1.343 1_565 S
C1032 C1030 1.327 . S
C1032 C1051 1.474 . S
C1032 H1056 0.950 . S
C1033 C1050 1.574 . S
C1033 C1052 1.368 1_545 S
C1033 H1057 0.949 . S
H1034 C1038 0.949 . S
C1035 C1036 1.349 1_545 S
C1035 C1037 1.327 . S
C1035 H1058 0.950 . S
C1036 C1035 1.349 1_565 S
C1036 C1048 1.349 . S
C1037 C1035 1.327 . S
C1037 C1053 1.429 1_545 S
C1037 H1059 0.950 . S
C1038 H1034 0.949 . S
C1038 C1046 1.574 . S
C1038 C1054 1.368 . S
H1039 C1047 0.950 . S
H1040 C1045 0.950 . S
H1041 C1046 0.949 . S
H1042 C1048 0.950 . S
H1043 C1049 0.950 . S
H1044 C1050 0.949 . S
C1045 H1040 0.950 . S
C1045 C1047 1.327 . S
C1045 C1051 1.389 1_545 S
C1046 C1038 1.574 . S
C1046 H1041 0.949 . S
C1046 C1052 1.368 . S
C1047 C1031 1.343 1_545 S
C1047 H1039 0.950 . S
C1047 C1045 1.327 . S
C1048 C1036 1.349 . S
C1048 H1042 0.950 . S
C1048 C1049 1.327 . S
C1049 H1043 0.950 . S
C1049 C1048 1.327 . S
C1049 C1053 1.429 . S
C1050 C1033 1.574 . S
C1050 H1044 0.949 . S
C1050 C1054 1.368 1_545 S
C1051 C1032 1.474 . S
C1051 C1045 1.389 1_565 S
C1051 C1052 1.519 . S
C1052 C1033 1.368 1_565 S
C1052 C1046 1.368 . S
C1052 C1051 1.519 . S
C1053 C1037 1.429 1_565 S
C1053 C1049 1.429 . S
C1053 C1054 1.523 . S
C1054 C1038 1.368 . S
C1054 C1050 1.368 1_565 S
C1054 C1053 1.523 . S
H1055 C1030 0.950 . S
H1056 C1032 0.950 . S
H1057 C1033 0.949 . S
H1058 C1035 0.950 . S
H1059 C1037 0.950 . S
C1060 C1061 1.349 . S
C1060 C1062 1.327 . S
C1060 H1085 0.950 . S
C1061 C1060 1.349 . S
C1061 C1077 1.349 . S
C1062 C1060 1.327 . S
C1062 C1081 1.429 . S
C1062 H1086 0.950 . S
C1063 C1080 1.574 . S
C1063 C1082 1.368 . S
C1063 H1087 0.949 . S
H1064 C1068 0.949 . S
C1065 C1066 1.349 . S
C1065 C1067 1.327 . S
C1065 H1088 0.950 . S
C1066 C1065 1.349 . S
C1066 C1078 1.349 . S
C1067 C1065 1.327 . S
C1067 C1083 1.429 . S
C1067 H1089 0.950 . S
C1068 H1064 0.949 . S
C1068 C1076 1.574 . S
C1068 C1084 1.368 . S
H1069 C1077 0.950 . S
H1070 C1075 0.950 . S
H1071 C1076 0.949 . S
H1072 C1078 0.950 . S
H1073 C1079 0.950 . S
H1074 C1080 0.949 . S
C1075 H1070 0.950 . S
C1075 C1077 1.327 . S
C1075 C1081 1.429 . S
C1076 C1068 1.574 . S
C1076 H1071 0.949 . S
C1076 C1082 1.368 . S
C1077 C1061 1.349 . S
C1077 H1069 0.950 . S
C1077 C1075 1.327 . S
C1078 C1066 1.349 . S
C1078 H1072 0.950 . S
C1078 C1079 1.327 . S
C1079 H1073 0.950 . S
C1079 C1078 1.327 . S
C1079 C1083 1.429 . S
C1080 C1063 1.574 . S
C1080 H1074 0.949 . S
C1080 C1084 1.368 . S
C1081 C1062 1.429 . S
C1081 C1075 1.429 . S
C1081 C1082 1.523 . S
C1082 C1063 1.368 . S
C1082 C1076 1.368 . S
C1082 C1081 1.523 . S
C1083 C1067 1.429 . S
C1083 C1079 1.429 . S
C1083 C1084 1.523 . S
C1084 C1068 1.368 . S
C1084 C1080 1.368 . S
C1084 C1083 1.523 . S
H1085 C1060 0.950 . S
H1086 C1062 0.950 . S
H1087 C1063 0.949 . S
H1088 C1065 0.950 . S
H1089 C1067 0.950 . S
C1090 C1091 1.349 . S
C1090 C1092 1.327 . S
C1090 H1115 0.950 . S
C1091 C1090 1.349 . S
C1091 C1107 1.349 . S
C1092 C1090 1.327 . S
C1092 C1111 1.429 . S
C1092 H1116 0.950 . S
C1093 C1110 1.574 . S
C1093 C1112 1.368 . S
C1093 H1117 0.949 . S
H1094 C1098 0.949 . S
C1095 C1096 1.349 . S
C1095 C1097 1.327 . S
C1095 H1118 0.950 . S
C1096 C1095 1.349 . S
C1096 C1108 1.349 . S
C1097 C1095 1.327 . S
C1097 C1113 1.429 . S
C1097 H1119 0.950 . S
C1098 H1094 0.949 . S
C1098 C1106 1.574 . S
C1098 C1114 1.368 . S
H1099 C1107 0.950 . S
H1100 C1105 0.950 . S
H1101 C1106 0.949 . S
H1102 C1108 0.950 . S
H1103 C1109 0.950 . S
H1104 C1110 0.949 . S
C1105 H1100 0.950 . S
C1105 C1107 1.327 . S
C1105 C1111 1.429 . S
C1106 C1098 1.574 . S
C1106 H1101 0.949 . S
C1106 C1112 1.368 . S
C1107 C1091 1.349 . S
C1107 H1099 0.950 . S
C1107 C1105 1.327 . S
C1108 C1096 1.349 . S
C1108 H1102 0.950 . S
C1108 C1109 1.327 . S
C1109 H1103 0.950 . S
C1109 C1108 1.327 . S
C1109 C1113 1.429 . S
C1110 C1093 1.574 . S
C1110 H1104 0.949 . S
C1110 C1114 1.368 . S
C1111 C1092 1.429 . S
C1111 C1105 1.429 . S
C1111 C1112 1.523 . S
C1112 C1093 1.368 . S
C1112 C1106 1.368 . S
C1112 C1111 1.523 . S
C1113 C1097 1.429 . S
C1113 C1109 1.429 . S
C1113 C1114 1.523 . S
C1114 C1098 1.368 . S
C1114 C1110 1.368 . S
C1114 C1113 1.523 . S
H1115 C1090 0.950 . S
H1116 C1092 0.950 . S
H1117 C1093 0.949 . S
H1118 C1095 0.950 . S
H1119 C1097 0.950 . S
C401 C255 1.645 1_565 S
C406 C328 1.694 . S
C436 C358 2.534 . S
C431 C295 2.436 . S
C466 C368 1.796 . S
C461 C175 1.738 . S
C496 C388 1.680 . S
C491 C215 1.593 . S
C526 C329 1.694 . S
C521 C95 1.644 . S
C551 C135 2.429 1_556 S
C556 C359 2.537 . S
C581 C15 1.745 . S
C586 C369 1.796 . S
C611 C55 1.584 . S
C616 C389 1.706 . S
C646 C321 0.553 . S
C641 C221 0.566 . S
C676 C342 0.451 . S
C671 C261 0.583 . S
C706 C361 0.951 . S
C701 C301 0.940 . S
C731 C181 0.504 . S
C736 C381 0.322 . S
C761 C61 0.641 . S
C766 C322 0.562 . S
C796 C341 0.451 . S
C791 C101 0.583 1_565 S
C826 C362 0.951 . S
C821 C141 0.891 . S
C851 C21 0.384 . S
C856 C382 0.321 . S
C881 C202 2.467 . S
C886 C339 2.566 . S
C911 C242 1.747 . S
C916 C349 1.876 . S
C946 C379 2.794 . S
C941 C282 2.666 . S
C976 C399 2.619 . S
C971 C162 2.439 . S
C1001 C42 2.380 . S
C1006 C338 2.575 . S
C1036 C348 1.876 . S
C1031 C82 1.747 1_565 S
C1066 C378 2.794 . S
C1061 C122 2.557 . S
C1091 C2 2.527 . S
C1096 C398 2.619 . S
