# Generated by pormake.
# Topology tsx, (6,3)-cn, num edge types: 1
# Building blocks:
#     Node 0, Type 0, BuildingBlock: CIFDUS_clean_sbu_1, # of connection points: 6
#     Node 1, Type 0, BuildingBlock: CIFDUS_clean_sbu_1, # of connection points: 6
#     Node 2, Type 1, BuildingBlock: WUSLED_clean_sbu_0, # of connection points: 3
#     Node 3, Type 1, BuildingBlock: WUSLED_clean_sbu_0, # of connection points: 3
#     Node 4, Type 1, BuildingBlock: WUSLED_clean_sbu_0, # of connection points: 3
#     Node 5, Type 1, BuildingBlock: WUSLED_clean_sbu_0, # of connection points: 3
#     Edge 6, Type (0, 1), BuildingBlock: FUNLAD_clean_linker_0, # of connection points: 2
#     Edge 7, Type (0, 1), BuildingBlock: FUNLAD_clean_linker_0, # of connection points: 2
#     Edge 8, Type (0, 1), BuildingBlock: FUNLAD_clean_linker_0, # of connection points: 2
#     Edge 9, Type (0, 1), BuildingBlock: FUNLAD_clean_linker_0, # of connection points: 2
#     Edge 10, Type (0, 1), BuildingBlock: FUNLAD_clean_linker_0, # of connection points: 2
#     Edge 11, Type (0, 1), BuildingBlock: FUNLAD_clean_linker_0, # of connection points: 2
#     Edge 12, Type (0, 1), BuildingBlock: FUNLAD_clean_linker_0, # of connection points: 2
#     Edge 13, Type (0, 1), BuildingBlock: FUNLAD_clean_linker_0, # of connection points: 2
#     Edge 14, Type (0, 1), BuildingBlock: FUNLAD_clean_linker_0, # of connection points: 2
#     Edge 15, Type (0, 1), BuildingBlock: FUNLAD_clean_linker_0, # of connection points: 2
#     Edge 16, Type (0, 1), BuildingBlock: FUNLAD_clean_linker_0, # of connection points: 2
#     Edge 17, Type (0, 1), BuildingBlock: FUNLAD_clean_linker_0, # of connection points: 2
# Relax obj value: 0.120
# Max RMSD: 0.152
# Mean RMSD: 0.113
data_MOF--net-tsx--node1-CIFDUS_clean_sbu_1--node2-WUSLED_clean_sbu_0--edge1-FUNLAD_clean_linker_0
_symmetry_space_group_name_H-M    P1
_symmetry_Int_Tables_number       1
_symmetry_cell_setting            triclinic
loop_
_symmetry_equiv_pos_as_xyz
'x, y, z'
_cell_length_a     26.68981
_cell_length_b     32.343087
_cell_length_c     53.069652
_cell_angle_alpha  97.251172
_cell_angle_beta   91.020597
_cell_angle_gamma 90.69538
loop_
_atom_site_label
_atom_site_type_symbol
_atom_site_fract_x
_atom_site_fract_y
_atom_site_fract_z
_atom_type_partial_charge
O0 O 0.01693 0.09424 0.0213 0.0
Mn1 Mn 0.05948 0.03942 0.01552 0.0
O2 O 0.94032 0.07803 1.00461 0.0
Mn3 Mn 0.95891 0.02728 0.98801 0.0
O4 O 0.10275 0.98434 0.00896 0.0
O5 O 0.12133 0.07701 0.02298 0.0
Mn6 Mn 0.16199 0.05021 0.04181 0.0
O7 O 0.05287 0.03251 0.05429 0.0
O8 O 0.18113 1.0024 0.02236 0.0
O9 O 0.06674 0.04656 0.97659 0.0
O10 O 0.99212 0.02841 0.95813 0.0
O11 O 0.19537 0.09856 0.0386 0.0
O12 O 0.1303 0.04269 0.07155 0.0
C13 C 0.95989 0.97471 1.00719 0.0
C14 C 0.97117 0.10361 0.01684 0.0
C15 C 0.1498 0.97637 0.01101 0.0
C16 C 0.1562 0.10587 0.02519 0.0
C17 C 0.08382 0.03448 0.07331 0.0
C18 C 0.03778 0.03927 0.95679 0.0
O19 O 0.99672 1.00202 0.0089 0.0
O20 O 0.92254 0.9813 0.99236 0.0
O21 O 0.51664 0.59026 0.5189 0.0
Mn22 Mn 0.5603 0.5356 0.51445 0.0
O23 O 0.4472 0.57489 0.49523 0.0
Mn24 Mn 0.46968 0.52384 0.48164 0.0
O25 O 0.60393 0.48037 0.51003 0.0
O26 O 0.62071 0.57462 0.52447 0.0
Mn27 Mn 0.65866 0.54604 0.5436 0.0
O28 O 0.54775 0.52937 0.55296 0.0
O29 O 0.68084 0.4991 0.5246 0.0
O30 O 0.57636 0.54227 0.47611 0.0
O31 O 0.50744 0.52214 0.45326 0.0
O32 O 0.69324 0.59432 0.54325 0.0
O33 O 0.62375 0.5376 0.57223 0.0
C34 C 0.45864 0.47167 0.49932 0.0
C35 C 0.47321 0.59975 0.51066 0.0
C36 C 0.65062 0.47217 0.51331 0.0
C37 C 0.65558 0.60348 0.52934 0.0
C38 C 0.57678 0.53087 0.57274 0.0
C39 C 0.55293 0.53338 0.4547 0.0
O40 O 0.49801 0.49639 0.5052 0.0
O41 O 0.4273 0.4813 0.48211 0.0
C42 C 0.9782 0.09065 0.47587 0.0
C43 C 0.95467 0.10886 0.45621 0.0
C44 C 0.9083 0.15513 0.48708 0.0
C45 C 0.92005 0.14074 0.46175 0.0
C46 C 0.93224 0.13678 0.50672 0.0
C47 C 0.96682 0.10483 0.50114 0.0
U48 U 0.05351 0.02263 0.4275 0.0
O49 O 0.13035 0.99915 0.42842 0.0
O50 O 0.06676 0.95492 0.42264 0.0
C51 C 0.11552 0.95988 0.42579 0.0
C52 C 0.01413 0.05667 0.47004 0.0
C53 C 0.14092 0.9323 0.44195 0.0
C54 C 0.1889 0.92079 0.47983 0.0
C55 C 0.15949 0.94673 0.46647 0.0
C56 C 0.17956 0.86534 0.4448 0.0
C57 C 0.20007 0.88001 0.46892 0.0
C58 C 0.15039 0.89123 0.4315 0.0
C59 C 0.03685 0.04581 0.35796 0.0
C60 C 0.06976 1.00537 0.32025 0.0
C61 C 0.02102 0.06702 0.31632 0.0
C62 C 0.01573 0.07345 0.34263 0.0
C63 C 0.0476 0.03268 0.30472 0.0
C64 C 0.0643 0.01183 0.34671 0.0
C65 C 0.02798 0.05276 0.38543 0.0
O66 O 0.99559 0.02296 0.45649 0.0
O67 O 0.05806 0.06798 0.46216 0.0
O68 O 0.06616 0.06722 0.40004 0.0
O69 O 1.0022 0.02349 0.39472 0.0
H70 H 0.96316 0.09842 0.43656 0.0
H71 H 0.90312 0.15456 0.44617 0.0
H72 H 0.92386 0.14677 0.52642 0.0
H73 H 0.98456 0.09109 0.51656 0.0
H74 H 0.20361 0.93286 0.4985 0.0
H75 H 0.15246 0.97831 0.47498 0.0
H76 H 0.18786 0.83441 0.43564 0.0
H77 H 0.13664 0.87956 0.41257 0.0
H78 H 0.09034 0.97856 0.31192 0.0
H79 H 1.00442 0.08915 0.30505 0.0
H80 H 0.99464 0.09996 0.35103 0.0
H81 H 0.08089 0.99014 0.35831 0.0
C82 C 0.94079 1.00146 0.55823 0.0
C83 C 0.92404 0.979 0.57747 0.0
C84 C 0.87993 0.9292 0.54609 0.0
C85 C 0.89395 0.94331 0.57148 0.0
C86 C 0.89562 0.95252 0.52691 0.0
C87 C 0.92598 0.9883 0.53295 0.0
U88 U 0.01439 0.07487 0.6073 0.0
O89 O 0.09161 0.09911 0.60738 0.0
O90 O 0.02873 0.1427 0.61066 0.0
C91 C 0.07755 0.13817 0.60938 0.0
C92 C 0.97499 0.03764 0.56445 0.0
C93 C 0.10567 0.1659 0.5946 0.0
C94 C 0.14196 0.18364 0.55548 0.0
C95 C 0.1101 0.15831 0.56806 0.0
C96 C 0.16396 0.22426 0.59578 0.0
C97 C 0.17011 0.21621 0.56942 0.0
C98 C 0.132 0.19947 0.60818 0.0
C99 C 1.00159 0.05466 0.67743 0.0
C100 C 0.03785 0.09641 0.71496 0.0
C101 C 0.98943 0.03395 0.71928 0.0
C102 C 0.98195 0.02689 0.69301 0.0
C103 C 0.01691 0.06898 0.73064 0.0
C104 C 0.03001 0.08941 0.68847 0.0
C105 C 0.99071 0.04651 0.64991 0.0
O106 O 0.95535 0.07061 0.57746 0.0
O107 O 0.01945 0.02882 0.57322 0.0
O108 O 0.02764 0.03169 0.63559 0.0
O109 O 0.96471 0.07489 0.63997 0.0
H110 H 0.93483 0.98878 0.59712 0.0
H111 H 0.8818 0.92657 0.58678 0.0
H112 H 0.88568 0.94245 0.5072 0.0
H113 H 0.93857 1.00529 0.51784 0.0
H114 H 0.14606 0.17684 0.53511 0.0
H115 H 0.09006 0.1324 0.55726 0.0
H116 H 0.18461 0.24948 0.60691 0.0
H117 H 0.12898 0.20583 0.62864 0.0
H118 H 0.05909 0.12369 0.72322 0.0
H119 H 0.97353 0.0119 0.7308 0.0
H120 H 0.96024 0.99979 0.68484 0.0
H121 H 0.04556 0.1112 0.67668 0.0
C122 C 0.47709 0.5919 0.97291 0.0
C123 C 0.46476 0.61538 0.95325 0.0
C124 C 0.40777 0.65761 0.98092 0.0
C125 C 0.43055 0.64787 0.9572 0.0
C126 C 0.42027 0.63386 1.00059 0.0
C127 C 0.45467 0.60134 0.9966 0.0
U128 U 0.55351 0.52025 0.92713 0.0
O129 O 0.63059 0.49767 0.92926 0.0
O130 O 0.56754 0.4528 0.92435 0.0
C131 C 0.6163 0.45833 0.92715 0.0
C132 C 0.51256 0.55721 0.96853 0.0
C133 C 0.64291 0.43175 0.94337 0.0
C134 C 0.67594 0.41639 0.98418 0.0
C135 C 0.64612 0.4409 0.96995 0.0
C136 C 0.69838 0.37337 0.94539 0.0
C137 C 0.70326 0.38298 0.97188 0.0
C138 C 0.66844 0.39744 0.93134 0.0
C139 C 0.54043 0.53944 0.85655 0.0
C140 C 0.57988 0.50077 0.81998 0.0
C141 C 0.52587 0.55867 0.81432 0.0
C142 C 0.51777 0.56501 0.84041 0.0
C143 C 0.55707 0.52657 0.80369 0.0
C144 C 0.57169 0.50722 0.84627 0.0
C145 C 0.52997 0.54736 0.88385 0.0
O146 O 0.49407 0.52294 0.95555 0.0
O147 O 0.55717 0.56735 0.96092 0.0
O148 O 0.56709 0.56306 0.89878 0.0
O149 O 0.50405 0.51842 0.89338 0.0
H150 H 0.48143 0.60839 0.93475 0.0
H151 H 0.42135 0.66491 0.94148 0.0
H152 H 0.40395 0.6407 0.01916 0.0
H153 H 0.46378 0.58359 0.01203 0.0
H154 H 0.67901 0.42434 1.0046 0.0
H155 H 0.6266 0.46735 0.97956 0.0
H156 H 0.71828 0.34739 0.93548 0.0
H157 H 0.66622 0.38981 0.91086 0.0
H158 H 0.60436 0.47593 0.81247 0.0
H159 H 0.50684 0.5786 0.80241 0.0
H160 H 0.49335 0.58989 0.84799 0.0
H161 H 0.58957 0.48716 0.85851 0.0
C162 C 0.43873 0.50058 0.05818 0.0
C163 C 0.43319 0.47127 0.07537 0.0
C164 C 0.37524 0.42987 0.04596 0.0
C165 C 0.40197 0.4362 0.06927 0.0
C166 C 0.37976 0.45994 0.02911 0.0
C167 C 0.41139 0.49489 0.03514 0.0
U168 U 0.51409 0.57495 0.10613 0.0
O169 O 0.59193 0.598 0.1058 0.0
O170 O 0.5299 0.64248 0.10872 0.0
C171 C 0.57865 0.63727 0.10791 0.0
C172 C 0.47363 0.53653 0.06392 0.0
C173 C 0.60863 0.6657 0.09441 0.0
C174 C 0.64382 0.68889 0.05646 0.0
C175 C 0.61186 0.66198 0.06784 0.0
C176 C 0.66877 0.72313 0.0981 0.0
C177 C 0.67299 0.71971 0.07154 0.0
C178 C 0.63693 0.69662 0.1093 0.0
C179 C 0.50162 0.55839 0.17664 0.0
C180 C 0.5572 0.58598 0.21183 0.0
C181 C 0.48212 0.54719 0.21977 0.0
C182 C 0.46991 0.54236 0.19387 0.0
C183 C 0.52645 0.5682 0.22901 0.0
C184 C 0.54496 0.58097 0.18577 0.0
C185 C 0.48963 0.54898 0.1493 0.0
O186 O 0.45466 0.57028 0.0764 0.0
O187 O 0.51818 0.52774 0.07261 0.0
O188 O 0.52582 0.53269 0.13496 0.0
O189 O 0.46429 0.57729 0.13896 0.0
H190 H 0.45353 0.47521 0.09339 0.0
H191 H 0.39884 0.41391 0.0828 0.0
H192 H 0.36001 0.45583 0.01095 0.0
H193 H 0.41505 0.51716 0.02164 0.0
H194 H 0.64575 0.68551 0.03595 0.0
H195 H 0.59027 0.63817 0.05601 0.0
H196 H 0.69126 0.74556 0.11046 0.0
H197 H 0.63525 0.69974 0.12985 0.0
H198 H 0.59161 0.60229 0.2184 0.0
H199 H 0.4572 0.53383 0.23256 0.0
H200 H 0.43615 0.52512 0.18721 0.0
H201 H 0.56984 0.59375 0.17271 0.0
C202 C 0.19416 0.15396 0.9986 0.0
C203 C 0.1546 0.1455 0.01435 0.0
C204 C 0.21024 0.19492 0.99741 0.0
C205 C 0.18723 0.22835 0.01216 0.0
C206 C 0.14376 0.2202 0.02544 0.0
C207 C 0.12777 0.17896 0.02671 0.0
C208 C 0.21097 0.2708 0.01604 0.0
C209 C 0.26131 0.27584 0.01809 0.0
C210 C 0.28834 0.31637 0.02533 0.0
C211 C 0.33674 0.31553 0.03609 0.0
C212 C 0.3644 0.35229 0.04294 0.0
C213 C 0.34475 0.39105 0.03888 0.0
H214 H 0.23162 0.357 0.01254 0.0
C215 C 0.29649 0.39207 0.0278 0.0
C216 C 0.26838 0.35513 0.02122 0.0
H217 H 0.28033 0.42148 0.02443 0.0
H218 H 0.21593 0.12867 0.98919 0.0
H219 H 0.24276 0.20012 0.98624 0.0
H220 H 0.12488 0.24542 0.03668 0.0
H221 H 0.09792 0.17325 0.03946 0.0
H222 H 0.18691 0.29752 0.02021 0.0
H223 H 0.28436 0.24819 0.01633 0.0
H224 H 0.35332 0.28619 0.03932 0.0
H225 H 0.40169 0.35026 0.05104 0.0
C226 C 0.15528 0.89831 0.00849 0.0
C227 C 0.17083 0.93602 1.00034 0.0
C228 C 0.18512 0.86258 1.00393 0.0
C229 C 0.23089 0.86422 0.99106 0.0
C230 C 0.24425 0.90149 0.98173 0.0
C231 C 0.21485 0.93681 0.98637 0.0
C232 C 0.26795 0.82967 0.98796 0.0
C233 C 0.2609 0.79071 0.99403 0.0
C234 C 0.3 0.75754 0.99082 0.0
C235 C 0.29257 0.72076 1.00196 0.0
C236 C 0.32762 0.68862 0.9991 0.0
C237 C 0.37113 0.6923 0.98492 0.0
H238 H 0.35143 0.78801 0.96713 0.0
C239 C 0.37883 0.72915 0.97394 0.0
C240 C 0.34379 0.76112 0.97665 0.0
H241 H 0.41215 0.7334 0.96314 0.0
H242 H 0.12207 0.8972 0.01984 0.0
H243 H 0.17317 0.83471 0.01155 0.0
H244 H 0.27891 0.90396 0.97165 0.0
H245 H 0.22805 0.96564 0.98017 0.0
H246 H 0.30383 0.8379 0.98066 0.0
H247 H 0.22551 0.78249 1.00193 0.0
H248 H 0.25929 0.71671 0.01284 0.0
H249 H 0.32002 0.6605 0.00758 0.0
C250 C 0.94838 0.89955 0.0078 0.0
C251 C 0.95553 0.93914 0.02172 0.0
C252 C 0.91931 0.86903 0.01738 0.0
C253 C 0.89626 0.87776 0.04108 0.0
C254 C 0.90835 0.91567 0.05618 0.0
C255 C 0.93761 0.94619 0.04655 0.0
C256 C 0.85705 0.84984 0.04997 0.0
C257 C 0.82994 0.82124 0.03438 0.0
C258 C 0.78776 0.79648 0.04327 0.0
C259 C 0.77686 0.75634 0.03079 0.0
C260 C 0.73851 0.73181 0.03929 0.0
C261 C 0.70957 0.74721 0.06024 0.0
H262 H 0.76282 0.84422 0.07264 0.0
C263 C 0.71854 0.78848 0.07161 0.0
C264 C 0.75722 0.8127 0.06335 0.0
H265 H 0.69593 0.80208 0.08718 0.0
H266 H 0.9611 0.89361 0.98841 0.0
H267 H 0.913 0.83967 1.00551 0.0
H268 H 0.89186 0.92309 0.07468 0.0
H269 H 0.9414 0.97681 0.05742 0.0
H270 H 0.84817 0.85491 0.07001 0.0
H271 H 0.83845 0.81533 0.01436 0.0
H272 H 0.79911 0.74339 0.0149 0.0
H273 H 0.73289 0.70028 0.03001 0.0
C274 C 0.90467 0.15339 0.03148 0.0
C275 C 0.95365 0.14671 0.02284 0.0
C276 C 0.88133 0.19148 0.03009 0.0
C277 C 0.90649 0.22387 0.01979 0.0
C278 C 0.95684 0.21794 0.01279 0.0
C279 C 0.98031 0.1798 0.0144 0.0
C280 C 0.88031 0.26177 0.01311 0.0
C281 C 0.83306 0.27232 0.01992 0.0
C282 C 0.80297 0.30491 0.00914 0.0
C283 C 0.75464 0.31352 0.01853 0.0
C284 C 0.7227 0.34022 1.00719 0.0
C285 C 0.73831 0.35862 0.98604 0.0
H286 H 0.85549 0.3196 0.98034 0.0
C287 C 0.7871 0.3514 0.97721 0.0
C288 C 0.81907 0.32496 0.98855 0.0
H289 H 0.80025 0.36561 0.96107 0.0
H290 H 0.8832 0.12811 0.03782 0.0
H291 H 0.84264 0.19389 0.03561 0.0
H292 H 0.97727 0.24206 1.00468 0.0
H293 H 0.01768 0.17511 1.00703 0.0
H294 H 0.90059 0.28031 1.00094 0.0
H295 H 0.81407 0.25534 0.03337 0.0
H296 H 0.74088 0.29853 0.03424 0.0
H297 H 0.68516 0.34509 0.0143 0.0
C298 C 0.65838 0.67815 0.54438 0.0
C299 C 0.65257 0.64683 0.52362 0.0
C300 C 0.67774 0.71732 0.54116 0.0
C301 C 0.69188 0.72623 0.51703 0.0
C302 C 0.68072 0.69663 0.4958 0.0
C303 C 0.66165 0.65687 0.49909 0.0
C304 C 0.722 0.76466 0.51447 0.0
C305 C 0.75954 0.7769 0.53132 0.0
C306 C 0.79185 0.81507 0.532 0.0
C307 C 0.83402 0.8184 0.54839 0.0
C308 C 0.86299 0.8549 0.55229 0.0
C309 C 0.85071 0.88944 0.53995 0.0
H310 H 0.74812 0.84787 0.50606 0.0
C311 C 0.80979 0.88578 0.52261 0.0
C312 C 0.78045 0.84898 0.51872 0.0
H313 H 0.79935 0.91187 0.51279 0.0
H314 H 0.65239 0.67104 0.56353 0.0
H315 H 0.68446 0.73981 0.55785 0.0
H316 H 0.69058 0.70298 0.47694 0.0
H317 H 0.65848 0.63304 0.48284 0.0
H318 H 0.71507 0.78115 0.4982 0.0
H319 H 0.76776 0.75705 0.54592 0.0
H320 H 0.84414 0.79284 0.55877 0.0
H321 H 0.8949 0.85619 0.56529 0.0
C322 C 0.72278 0.42368 0.5101 0.0
C323 C 0.67114 0.4297 0.50617 0.0
C324 C 0.74342 0.38419 0.5061 0.0
C325 C 0.71325 0.34898 0.49809 0.0
C326 C 0.66196 0.35478 0.49302 0.0
C327 C 0.64092 0.39479 0.49722 0.0
C328 C 0.73577 0.30665 0.49398 0.0
C329 C 0.77598 0.29667 0.5078 0.0
C330 C 0.80636 0.25808 0.50279 0.0
C331 C 0.84906 0.25459 0.51827 0.0
C332 C 0.8815 0.22105 0.51343 0.0
C333 C 0.87216 0.18977 0.49295 0.0
H334 H 0.76388 0.2273 0.47018 0.0
C335 C 0.82877 0.19256 0.47778 0.0
C336 C 0.79625 0.22628 0.48259 0.0
H337 H 0.81992 0.16866 0.4621 0.0
H338 H 0.7478 0.44959 0.51663 0.0
H339 H 0.78342 0.38159 0.5091 0.0
H340 H 0.638 0.32826 0.48632 0.0
H341 H 0.60112 0.39822 0.4939 0.0
H342 H 0.71926 0.28419 0.47919 0.0
H343 H 0.78897 0.31912 0.52361 0.0
H344 H 0.85817 0.27854 0.53392 0.0
H345 H 0.91476 0.22034 0.52536 0.0
C346 C 0.42508 0.39996 0.49453 0.0
C347 C 0.44661 0.43352 0.51074 0.0
C348 C 0.39697 0.36917 0.50417 0.0
C349 C 0.38953 0.3711 0.53041 0.0
C350 C 0.41494 0.40249 0.54685 0.0
C351 C 0.44307 0.43376 0.53709 0.0
C352 C 0.3549 0.34127 0.5409 0.0
C353 C 0.31455 0.32339 0.52775 0.0
C354 C 0.27859 0.29425 0.53797 0.0
C355 C 0.23018 0.28832 0.52697 0.0
C356 C 0.19511 0.26189 0.5365 0.0
C357 C 0.20786 0.24093 0.55726 0.0
H358 H 0.32912 0.2738 0.56636 0.0
C359 C 0.25674 0.24558 0.5676 0.0
C360 C 0.29178 0.27167 0.55802 0.0
H361 H 0.26781 0.22907 0.5833 0.0
H362 H 0.4272 0.39903 0.47408 0.0
H363 H 0.37998 0.34461 0.4909 0.0
H364 H 0.41062 0.40423 0.56721 0.0
H365 H 0.45856 0.45958 0.54998 0.0
H366 H 0.36122 0.33619 0.56052 0.0
H367 H 0.30575 0.33196 0.50906 0.0
H368 H 0.21909 0.30485 0.51128 0.0
H369 H 0.15767 0.25887 0.52819 0.0
C370 C 0.46507 0.67617 0.50915 0.0
C371 C 0.44984 0.63996 0.51911 0.0
C372 C 0.43232 0.70987 0.50917 0.0
C373 C 0.3838 0.70769 0.5192 0.0
C374 C 0.37063 0.67259 0.53086 0.0
C375 C 0.40315 0.63914 0.53076 0.0
C376 C 0.34359 0.73799 0.51513 0.0
C377 C 0.35128 0.77574 0.50756 0.0
C378 C 0.30953 0.80234 0.50023 0.0
C379 C 0.31706 0.84565 0.50199 0.0
C380 C 0.28052 0.8711 0.49295 0.0
C381 C 0.23579 0.85371 0.48156 0.0
H382 H 0.25714 0.75174 0.48726 0.0
C383 C 0.22765 0.81046 0.48041 0.0
C384 C 0.26404 0.78506 0.48958 0.0
H385 H 0.19353 0.79604 0.47188 0.0
H386 H 0.50031 0.67697 0.49938 0.0
H387 H 0.44393 0.73596 0.49967 0.0
H388 H 0.33369 0.66982 0.53869 0.0
H389 H 0.39013 0.61113 0.53802 0.0
H390 H 0.30533 0.728 0.51804 0.0
H391 H 0.38918 0.7879 0.50663 0.0
H392 H 0.35181 0.8598 0.50992 0.0
H393 H 0.28837 0.90419 0.49386 0.0
C394 C 0.09919 1.00509 0.11369 0.0
C395 C 0.06681 0.02588 0.09853 0.0
C396 C 0.08771 1.00099 0.13879 0.0
C397 C 0.0439 0.01853 0.14965 0.0
C398 C 1.01002 0.03727 0.13401 0.0
C399 C 0.02126 0.04081 0.1086 0.0
C400 C 0.03295 0.01838 0.17716 0.0
C401 C 0.06904 0.01508 0.19502 0.0
C402 C 0.06089 0.01736 0.22296 0.0
C403 C 0.10181 0.00975 0.23875 0.0
C404 C 0.09737 0.01378 0.26517 0.0
C405 C 0.05182 0.02576 0.27655 0.0
H406 H 0.98224 0.03476 0.22327 0.0
C407 C 0.01052 0.03248 0.2608 0.0
C408 C 0.01489 0.0284 0.23437 0.0
H409 H 0.97463 0.04114 0.26894 0.0
H410 H 0.13407 0.99238 0.1062 0.0
H411 H 0.11368 0.9843 0.14951 0.0
H412 H 0.97556 0.05046 0.14171 0.0
H413 H 0.99557 0.05686 0.09728 0.0
H414 H 0.99435 0.02309 0.18265 0.0
H415 H 0.10766 0.01178 0.18918 0.0
H416 H 0.13779 1.00122 0.23063 0.0
H417 H 0.13006 0.00867 0.27671 0.0
C418 C 0.03132 0.02139 0.91004 0.0
C419 C 0.05534 0.04476 0.93105 0.0
C420 C 0.03873 0.03086 0.88553 0.0
C421 C 0.0702 0.06424 0.8812 0.0
C422 C 0.09747 0.08571 0.90189 0.0
C423 C 0.08993 0.07616 0.92674 0.0
C424 C 0.07355 0.07661 0.85513 0.0
C425 C 0.03215 0.07565 0.84001 0.0
C426 C 0.03034 0.08009 0.81235 0.0
C427 C 0.98342 0.07473 0.79986 0.0
C428 C 0.97919 0.0729 0.77353 0.0
C429 C 0.02178 0.07666 0.75883 0.0
H430 H 0.1098 0.09052 0.8066 0.0
C431 C 0.06858 0.08457 0.77125 0.0
C432 C 0.07296 0.08604 0.79781 0.0
H433 H 0.10203 0.08769 0.76035 0.0
H434 H 1.00514 0.99646 0.91263 0.0
H435 H 0.01878 0.01244 0.86996 0.0
H436 H 0.1227 0.11108 0.89897 0.0
H437 H 0.10895 0.09471 0.94257 0.0
H438 H 0.10975 0.08593 0.84862 0.0
H439 H 0.99643 0.06895 0.84831 0.0
H440 H 0.94978 0.07036 0.81041 0.0
H441 H 0.9425 0.06747 0.76457 0.0
C442 C 0.56821 0.4906 0.60923 0.0
C443 C 0.55669 0.52629 0.59787 0.0
C444 C 0.56327 0.4904 0.63545 0.0
C445 C 0.54754 0.5264 0.65093 0.0
C446 C 0.5337 0.56132 0.63915 0.0
C447 C 0.53841 0.56135 0.61293 0.0
C448 C 0.54675 0.52997 0.67929 0.0
C449 C 0.56727 0.50249 0.69355 0.0
C450 C 0.56767 0.50906 0.72187 0.0
C451 C 0.56636 0.47445 0.73544 0.0
C452 C 0.56446 0.47988 0.76204 0.0
C453 C 0.56441 0.52013 0.77567 0.0
H454 H 0.57371 0.57662 0.72591 0.0
C455 C 0.56864 0.55464 0.76209 0.0
C456 C 0.57023 0.54922 0.73557 0.0
H457 H 0.57038 0.58605 0.77197 0.0
H458 H 0.58354 0.46354 0.59799 0.0
H459 H 0.57334 0.4624 0.64336 0.0
H460 H 0.52142 0.58951 0.65045 0.0
H461 H 0.53093 0.58971 0.6047 0.0
H462 H 0.52926 0.55757 0.68894 0.0
H463 H 0.5835 0.47391 0.68459 0.0
H464 H 0.56529 0.44313 0.72539 0.0
H465 H 0.56126 0.45258 0.77184 0.0
C466 C 0.58135 0.57442 0.4209 0.0
C467 C 0.57715 0.5359 0.43029 0.0
C468 C 0.58471 0.57608 0.39466 0.0
C469 C 0.58393 0.53903 0.37743 0.0
C470 C 0.58374 0.50069 0.38731 0.0
C471 C 0.58017 0.49914 0.41336 0.0
C472 C 0.57842 0.5379 0.34925 0.0
C473 C 0.57808 0.57145 0.3364 0.0
C474 C 0.56682 0.56926 0.30845 0.0
C475 C 0.57152 0.60576 0.29667 0.0
C476 C 0.55924 0.60562 0.27084 0.0
C477 C 0.54148 0.56898 0.25621 0.0
H478 H 0.54449 0.50347 0.30119 0.0
C479 C 0.53733 0.53244 0.2678 0.0
C480 C 0.54962 0.53248 0.29347 0.0
H481 H 0.52444 0.50352 0.25695 0.0
H482 H 0.57762 0.60317 0.43358 0.0
H483 H 0.58477 0.60639 0.38814 0.0
H484 H 0.58314 0.47157 0.37471 0.0
H485 H 0.5756 0.46906 0.4201 0.0
H486 H 0.57281 0.50715 0.33888 0.0
H487 H 0.58576 0.60213 0.34657 0.0
H488 H 0.58429 0.63468 0.30757 0.0
H489 H 0.56258 0.63436 0.26246 0.0
loop_
_geom_bond_atom_site_label_1
_geom_bond_atom_site_label_2
_geom_bond_distance
_geom_bond_site_symmetry_2
_ccdc_geom_bond_type
O0 Mn1 2.163 . S
O0 C14 1.244 1_455 S
Mn1 O0 2.163 . S
Mn1 O4 2.161 1_545 S
Mn1 O5 2.221 . S
Mn1 O7 2.163 . S
Mn1 O9 2.160 1_554 S
Mn1 O19 2.221 1_444 S
O2 Mn3 2.087 . S
O2 C14 1.256 1_556 S
Mn3 O2 2.087 . S
Mn3 O10 2.089 . S
Mn3 O19 2.290 1_545 S
Mn3 O20 2.251 1_546 S
O4 Mn1 2.161 1_565 S
O4 C15 1.263 . S
O5 Mn1 2.221 . S
O5 Mn6 2.290 . S
O5 C16 1.278 . S
Mn6 O5 2.290 . S
Mn6 O8 2.089 1_545 S
Mn6 O11 2.251 . S
Mn6 O12 2.087 . S
O7 Mn1 2.163 . S
O7 C17 1.244 . S
O8 Mn6 2.089 1_565 S
O8 C15 1.256 . S
O9 Mn1 2.160 1_556 S
O9 C18 1.239 . S
O10 Mn3 2.089 . S
O10 C18 1.256 1_655 S
O11 Mn6 2.251 . S
O11 C16 1.241 . S
O12 Mn6 2.087 . S
O12 C17 1.256 . S
C13 O19 1.278 1_554 S
C13 O20 1.241 . S
C14 O0 1.244 1_655 S
C14 O2 1.256 1_554 S
C15 O4 1.263 . S
C15 O8 1.256 . S
C16 O5 1.278 . S
C16 O11 1.241 . S
C17 O7 1.244 . S
C17 O12 1.256 . S
C18 O9 1.239 . S
C18 O10 1.256 1_455 S
O19 Mn1 2.221 1_666 S
O19 Mn3 2.290 1_565 S
O19 C13 1.278 1_556 S
O20 Mn3 2.251 1_564 S
O20 C13 1.241 . S
O21 Mn22 2.163 . S
O21 C35 1.244 . S
Mn22 O21 2.163 . S
Mn22 O25 2.160 . S
Mn22 O26 2.221 . S
Mn22 O28 2.163 . S
Mn22 O30 2.160 . S
Mn22 O40 2.221 . S
O23 Mn24 2.087 . S
O23 C35 1.256 . S
Mn24 O23 2.087 . S
Mn24 O31 2.089 . S
Mn24 O40 2.290 . S
Mn24 O41 2.251 . S
O25 Mn22 2.160 . S
O25 C36 1.239 . S
O26 Mn22 2.221 . S
O26 Mn27 2.290 . S
O26 C37 1.278 . S
Mn27 O26 2.290 . S
Mn27 O29 2.089 . S
Mn27 O32 2.251 . S
Mn27 O33 2.087 . S
O28 Mn22 2.163 . S
O28 C38 1.244 . S
O29 Mn27 2.089 . S
O29 C36 1.256 . S
O30 Mn22 2.160 . S
O30 C39 1.239 . S
O31 Mn24 2.089 . S
O31 C39 1.256 . S
O32 Mn27 2.251 . S
O32 C37 1.241 . S
O33 Mn27 2.087 . S
O33 C38 1.256 . S
C34 O40 1.278 . S
C34 O41 1.241 . S
C35 O21 1.244 . S
C35 O23 1.256 . S
C36 O25 1.239 . S
C36 O29 1.256 . S
C37 O26 1.278 . S
C37 O32 1.241 . S
C38 O28 1.244 . S
C38 O33 1.256 . S
C39 O30 1.239 . S
C39 O31 1.256 . S
O40 Mn22 2.221 . S
O40 Mn24 2.290 . S
O40 C34 1.278 . S
O41 Mn24 2.251 . S
O41 C34 1.241 . S
C42 C43 1.264 . S
C42 C47 1.479 . S
C42 C52 1.465 1_655 S
C43 C42 1.264 . S
C43 C45 1.339 . S
C43 H70 0.931 . S
C44 C45 1.395 . S
C44 C46 1.320 . S
C45 C43 1.339 . S
C45 C44 1.395 . S
C45 H71 0.929 . S
C46 C44 1.320 . S
C46 C47 1.405 . S
C46 H72 0.930 . S
C47 C42 1.479 . S
C47 C46 1.405 . S
C47 H73 0.931 . S
U48 O49 2.454 1_545 S
U48 O50 2.458 1_545 S
U48 C51 2.984 1_545 S
U48 C52 2.847 . S
U48 C65 2.882 . S
U48 O66 2.441 . S
U48 O67 2.420 . S
U48 O68 2.455 1_545 S
U48 O69 2.449 . S
O49 U48 2.454 1_565 S
O49 C51 1.353 . S
O50 U48 2.458 1_565 S
O50 C51 1.286 . S
C51 U48 2.984 1_565 S
C51 O49 1.353 . S
C51 O50 1.286 . S
C51 C53 1.363 . S
C52 C42 1.465 1_455 S
C52 U48 2.847 . S
C52 O66 1.249 . S
C52 O67 1.202 . S
C53 C51 1.363 . S
C53 C55 1.408 . S
C53 C58 1.342 . S
C54 C55 1.310 . S
C54 C57 1.461 . S
C54 H74 0.932 . S
C55 C53 1.408 . S
C55 C54 1.310 . S
C55 H75 0.930 . S
C56 C57 1.474 . S
C56 C58 1.285 . S
C56 H76 0.929 . S
C57 C54 1.461 . S
C57 C56 1.474 . S
C58 C53 1.342 . S
C58 C56 1.285 . S
C58 H77 0.930 . S
C59 C62 1.424 . S
C59 C64 1.245 1_545 S
C59 C65 1.428 . S
C60 C63 1.260 1_565 S
C60 C64 1.477 . S
C60 H78 0.932 . S
C61 C62 1.384 . S
C61 C63 1.479 . S
C61 H79 0.929 . S
C62 C59 1.424 . S
C62 C61 1.384 . S
C62 H80 0.928 . S
C63 C60 1.260 1_545 S
C63 C61 1.479 . S
C64 C59 1.245 1_565 S
C64 C60 1.477 . S
C64 H81 0.932 . S
C65 U48 2.882 . S
C65 C59 1.428 . S
C65 O68 1.301 1_545 S
C65 O69 1.282 . S
O66 U48 2.441 . S
O66 C52 1.249 . S
O67 U48 2.420 . S
O67 C52 1.202 . S
O68 U48 2.455 1_565 S
O68 C65 1.301 1_565 S
O69 U48 2.449 . S
O69 C65 1.282 . S
H70 C43 0.931 . S
H71 C45 0.929 . S
H72 C46 0.930 . S
H73 C47 0.931 . S
H74 C54 0.932 . S
H75 C55 0.930 . S
H76 C56 0.929 . S
H77 C58 0.930 . S
H78 C60 0.932 . S
H79 C61 0.929 . S
H80 C62 0.928 . S
H81 C64 0.932 . S
C82 C83 1.264 . S
C82 C87 1.479 . S
C82 C92 1.465 1_565 S
C83 C82 1.264 . S
C83 C85 1.339 . S
C83 H110 0.931 . S
C84 C85 1.395 . S
C84 C86 1.320 . S
C85 C83 1.339 . S
C85 C84 1.395 . S
C85 H111 0.929 . S
C86 C84 1.320 . S
C86 C87 1.405 . S
C86 H112 0.930 . S
C87 C82 1.479 . S
C87 C86 1.405 . S
C87 H113 0.931 . S
U88 O89 2.454 . S
U88 O90 2.458 . S
U88 C91 2.984 . S
U88 C92 2.847 1_455 S
U88 C105 2.882 . S
U88 O106 2.441 1_455 S
U88 O107 2.415 1_445 S
U88 O108 2.455 . S
U88 O109 2.449 . S
O89 U88 2.454 . S
O89 C91 1.353 . S
O90 U88 2.458 . S
O90 C91 1.286 . S
C91 U88 2.984 . S
C91 O89 1.353 . S
C91 O90 1.286 . S
C91 C93 1.363 . S
C92 C82 1.465 1_545 S
C92 U88 2.847 1_655 S
C92 O106 1.249 . S
C92 O107 1.201 1_545 S
C93 C91 1.363 . S
C93 C95 1.408 . S
C93 C98 1.342 . S
C94 C95 1.310 . S
C94 C97 1.461 . S
C94 H114 0.932 . S
C95 C93 1.408 . S
C95 C94 1.310 . S
C95 H115 0.930 . S
C96 C97 1.474 . S
C96 C98 1.285 . S
C96 H116 0.929 . S
C97 C94 1.461 . S
C97 C96 1.474 . S
C98 C93 1.342 . S
C98 C96 1.285 . S
C98 H117 0.930 . S
C99 C102 1.424 1_455 S
C99 C104 1.245 . S
C99 C105 1.428 . S
C100 C103 1.260 . S
C100 C104 1.477 . S
C100 H118 0.932 . S
C101 C102 1.384 . S
C101 C103 1.479 1_655 S
C101 H119 0.929 . S
C102 C99 1.424 1_655 S
C102 C101 1.384 . S
C102 H120 0.928 . S
C103 C100 1.260 . S
C103 C101 1.479 1_455 S
C104 C99 1.245 . S
C104 C100 1.477 . S
C104 H121 0.932 . S
C105 U88 2.882 . S
C105 C99 1.428 . S
C105 O108 1.301 . S
C105 O109 1.282 . S
O106 U88 2.441 1_655 S
O106 C92 1.249 . S
O107 U88 2.415 1_665 S
O107 C92 1.201 1_565 S
O108 U88 2.455 . S
O108 C105 1.301 . S
O109 U88 2.449 . S
O109 C105 1.282 . S
H110 C83 0.931 . S
H111 C85 0.929 . S
H112 C86 0.930 . S
H113 C87 0.931 . S
H114 C94 0.932 . S
H115 C95 0.930 . S
H116 C96 0.929 . S
H117 C98 0.930 . S
H118 C100 0.932 . S
H119 C101 0.929 . S
H120 C102 0.928 . S
H121 C104 0.932 . S
C122 C123 1.264 . S
C122 C127 1.479 . S
C122 C132 1.465 . S
C123 C122 1.264 . S
C123 C125 1.339 . S
C123 H150 0.931 . S
C124 C125 1.395 . S
C124 C126 1.320 1_556 S
C125 C123 1.339 . S
C125 C124 1.395 . S
C125 H151 0.929 . S
C126 C124 1.320 1_554 S
C126 C127 1.405 1_554 S
C126 H152 0.930 . S
C127 C122 1.479 . S
C127 C126 1.405 1_556 S
C127 H153 0.934 . S
U128 O129 2.454 . S
U128 O130 2.458 . S
U128 C131 2.984 . S
U128 C132 2.847 . S
U128 C145 2.882 . S
U128 O146 2.441 . S
U128 O147 2.420 . S
U128 O148 2.455 . S
U128 O149 2.449 . S
O129 U128 2.454 . S
O129 C131 1.353 . S
O130 U128 2.458 . S
O130 C131 1.286 . S
C131 U128 2.984 . S
C131 O129 1.353 . S
C131 O130 1.286 . S
C131 C133 1.363 . S
C132 C122 1.465 . S
C132 U128 2.847 . S
C132 O146 1.249 . S
C132 O147 1.202 . S
C133 C131 1.363 . S
C133 C135 1.408 . S
C133 C138 1.342 . S
C134 C135 1.310 . S
C134 C137 1.461 . S
C134 H154 0.932 1_556 S
C135 C133 1.408 . S
C135 C134 1.310 . S
C135 H155 0.930 . S
C136 C137 1.474 . S
C136 C138 1.285 . S
C136 H156 0.929 . S
C137 C134 1.461 . S
C137 C136 1.474 . S
C138 C133 1.342 . S
C138 C136 1.285 . S
C138 H157 0.930 . S
C139 C142 1.424 . S
C139 C144 1.245 . S
C139 C145 1.428 . S
C140 C143 1.260 . S
C140 C144 1.477 . S
C140 H158 0.932 . S
C141 C142 1.384 . S
C141 C143 1.479 . S
C141 H159 0.929 . S
C142 C139 1.424 . S
C142 C141 1.384 . S
C142 H160 0.928 . S
C143 C140 1.260 . S
C143 C141 1.479 . S
C144 C139 1.245 . S
C144 C140 1.477 . S
C144 H161 0.932 . S
C145 U128 2.882 . S
C145 C139 1.428 . S
C145 O148 1.301 . S
C145 O149 1.282 . S
O146 U128 2.441 . S
O146 C132 1.249 . S
O147 U128 2.420 . S
O147 C132 1.202 . S
O148 U128 2.455 . S
O148 C145 1.301 . S
O149 U128 2.449 . S
O149 C145 1.282 . S
H150 C123 0.931 . S
H151 C125 0.929 . S
H152 C126 0.930 . S
H153 C127 0.934 . S
H154 C134 0.932 1_554 S
H155 C135 0.930 . S
H156 C136 0.929 . S
H157 C138 0.930 . S
H158 C140 0.932 . S
H159 C141 0.929 . S
H160 C142 0.928 . S
H161 C144 0.932 . S
C162 C163 1.264 . S
C162 C167 1.479 . S
C162 C172 1.465 . S
C163 C162 1.264 . S
C163 C165 1.339 . S
C163 H190 0.931 . S
C164 C165 1.395 . S
C164 C166 1.320 . S
C165 C163 1.339 . S
C165 C164 1.395 . S
C165 H191 0.929 . S
C166 C164 1.320 . S
C166 C167 1.405 . S
C166 H192 0.930 . S
C167 C162 1.479 . S
C167 C166 1.405 . S
C167 H193 0.931 . S
U168 O169 2.454 . S
U168 O170 2.458 . S
U168 C171 2.984 . S
U168 C172 2.847 . S
U168 C185 2.882 . S
U168 O186 2.441 . S
U168 O187 2.420 . S
U168 O188 2.455 . S
U168 O189 2.449 . S
O169 U168 2.454 . S
O169 C171 1.353 . S
O170 U168 2.458 . S
O170 C171 1.286 . S
C171 U168 2.984 . S
C171 O169 1.353 . S
C171 O170 1.286 . S
C171 C173 1.363 . S
C172 C162 1.465 . S
C172 U168 2.847 . S
C172 O186 1.249 . S
C172 O187 1.202 . S
C173 C171 1.363 . S
C173 C175 1.408 . S
C173 C178 1.342 . S
C174 C175 1.310 . S
C174 C177 1.461 . S
C174 H194 0.932 . S
C175 C173 1.408 . S
C175 C174 1.310 . S
C175 H195 0.930 . S
C176 C177 1.474 . S
C176 C178 1.285 . S
C176 H196 0.929 . S
C177 C174 1.461 . S
C177 C176 1.474 . S
C178 C173 1.342 . S
C178 C176 1.285 . S
C178 H197 0.930 . S
C179 C182 1.424 . S
C179 C184 1.245 . S
C179 C185 1.428 . S
C180 C183 1.260 . S
C180 C184 1.477 . S
C180 H198 0.932 . S
C181 C182 1.384 . S
C181 C183 1.479 . S
C181 H199 0.929 . S
C182 C179 1.424 . S
C182 C181 1.384 . S
C182 H200 0.928 . S
C183 C180 1.260 . S
C183 C181 1.479 . S
C184 C179 1.245 . S
C184 C180 1.477 . S
C184 H201 0.932 . S
C185 U168 2.882 . S
C185 C179 1.428 . S
C185 O188 1.301 . S
C185 O189 1.282 . S
O186 U168 2.441 . S
O186 C172 1.249 . S
O187 U168 2.420 . S
O187 C172 1.202 . S
O188 U168 2.455 . S
O188 C185 1.301 . S
O189 U168 2.449 . S
O189 C185 1.282 . S
H190 C163 0.931 . S
H191 C165 0.929 . S
H192 C166 0.930 . S
H193 C167 0.931 . S
H194 C174 0.932 . S
H195 C175 0.930 . S
H196 C176 0.929 . S
H197 C178 0.930 . S
H198 C180 0.932 . S
H199 C181 0.929 . S
H200 C182 0.928 . S
H201 C184 0.932 . S
C202 C203 1.386 . S
C202 C204 1.383 . S
C202 H218 0.951 . S
C203 C202 1.386 . S
C203 C207 1.383 . S
C204 C202 1.383 . S
C204 C205 1.402 . S
C204 H219 0.951 . S
C205 C204 1.402 . S
C205 C206 1.375 . S
C205 C208 1.481 . S
C206 C205 1.375 . S
C206 C207 1.367 . S
C206 H220 0.955 . S
C207 C203 1.383 . S
C207 C206 1.367 . S
C207 H221 0.950 . S
C208 C205 1.481 . S
C208 C209 1.297 . S
C208 H222 0.950 . S
C209 C208 1.297 . S
C209 C210 1.479 . S
C209 H223 0.950 . S
C210 C209 1.479 . S
C210 C211 1.375 . S
C210 C216 1.404 . S
C211 C210 1.375 . S
C211 C212 1.369 . S
C211 H224 0.950 . S
C212 C211 1.369 . S
C212 C213 1.392 . S
C212 H225 0.951 . S
C213 C212 1.392 . S
C213 C215 1.384 . S
H214 C216 0.947 . S
C215 C213 1.384 . S
C215 C216 1.385 . S
C215 H217 0.950 . S
C216 C210 1.404 . S
C216 H214 0.947 . S
C216 C215 1.385 . S
H217 C215 0.950 . S
H218 C202 0.951 . S
H219 C204 0.951 . S
H220 C206 0.955 . S
H221 C207 0.950 . S
H222 C208 0.950 . S
H223 C209 0.950 . S
H224 C211 0.950 . S
H225 C212 0.951 . S
C226 C227 1.386 . S
C226 C228 1.383 . S
C226 H242 0.951 . S
C227 C226 1.386 . S
C227 C231 1.383 1_554 S
C228 C226 1.383 . S
C228 C229 1.402 1_554 S
C228 H243 0.951 . S
C229 C228 1.402 1_556 S
C229 C230 1.375 . S
C229 C232 1.481 . S
C230 C229 1.375 . S
C230 C231 1.367 . S
C230 H244 0.951 . S
C231 C227 1.383 1_556 S
C231 C230 1.367 . S
C231 H245 0.950 . S
C232 C229 1.481 . S
C232 C233 1.297 . S
C232 H246 0.950 . S
C233 C232 1.297 . S
C233 C234 1.479 . S
C233 H247 0.950 . S
C234 C233 1.479 . S
C234 C235 1.375 . S
C234 C240 1.404 . S
C235 C234 1.375 . S
C235 C236 1.369 . S
C235 H248 0.943 1_556 S
C236 C235 1.369 . S
C236 C237 1.392 . S
C236 H249 0.951 1_556 S
C237 C236 1.392 . S
C237 C239 1.384 . S
H238 C240 0.949 . S
C239 C237 1.384 . S
C239 C240 1.385 . S
C239 H241 0.950 . S
C240 C234 1.404 . S
C240 H238 0.949 . S
C240 C239 1.385 . S
H241 C239 0.950 . S
H242 C226 0.951 . S
H243 C228 0.951 . S
H244 C230 0.951 . S
H245 C231 0.950 . S
H246 C232 0.950 . S
H247 C233 0.950 . S
H248 C235 0.943 1_554 S
H249 C236 0.951 1_554 S
C250 C251 1.386 . S
C250 C252 1.383 . S
C250 H266 0.951 1_554 S
C251 C250 1.386 . S
C251 C255 1.383 . S
C252 C250 1.383 . S
C252 C253 1.402 . S
C252 H267 0.951 1_554 S
C253 C252 1.402 . S
C253 C254 1.375 . S
C253 C256 1.481 . S
C254 C253 1.375 . S
C254 C255 1.367 . S
C254 H268 0.951 . S
C255 C251 1.383 . S
C255 C254 1.367 . S
C255 H269 0.950 . S
C256 C253 1.481 . S
C256 C257 1.297 . S
C256 H270 0.950 . S
C257 C256 1.297 . S
C257 C258 1.479 . S
C257 H271 0.950 . S
C258 C257 1.479 . S
C258 C259 1.375 . S
C258 C264 1.404 . S
C259 C258 1.375 . S
C259 C260 1.369 . S
C259 H272 0.950 1_554 S
C260 C259 1.369 . S
C260 C261 1.392 . S
C260 H273 0.956 . S
C261 C260 1.392 . S
C261 C263 1.384 . S
H262 C264 0.949 . S
C263 C261 1.384 . S
C263 C264 1.385 . S
C263 H265 0.950 . S
C264 C258 1.404 . S
C264 H262 0.949 . S
C264 C263 1.385 . S
H265 C263 0.950 . S
H266 C250 0.951 1_556 S
H267 C252 0.951 1_556 S
H268 C254 0.951 . S
H269 C255 0.950 . S
H270 C256 0.950 . S
H271 C257 0.950 . S
H272 C259 0.950 1_556 S
H273 C260 0.956 . S
C274 C275 1.386 . S
C274 C276 1.383 . S
C274 H290 0.951 . S
C275 C274 1.386 . S
C275 C279 1.383 1_554 S
C276 C274 1.383 . S
C276 C277 1.402 1_554 S
C276 H291 0.951 . S
C277 C276 1.402 1_556 S
C277 C278 1.375 . S
C277 C280 1.481 . S
C278 C277 1.375 . S
C278 C279 1.367 . S
C278 H292 0.951 . S
C279 C275 1.383 1_556 S
C279 C278 1.367 . S
C279 H293 0.950 . S
C280 C277 1.481 . S
C280 C281 1.297 1_556 S
C280 H294 0.950 . S
C281 C280 1.297 1_554 S
C281 C282 1.487 . S
C281 H295 0.950 . S
C282 C281 1.487 . S
C282 C283 1.390 . S
C282 C288 1.382 1_554 S
C283 C282 1.390 . S
C283 C284 1.369 . S
C283 H296 0.950 . S
C284 C283 1.369 . S
C284 C285 1.392 1_554 S
C284 H297 0.951 . S
C285 C284 1.392 1_556 S
C285 C287 1.384 . S
H286 C288 0.949 . S
C287 C285 1.384 . S
C287 C288 1.385 . S
C287 H289 0.950 . S
C288 C282 1.382 1_556 S
C288 H286 0.949 . S
C288 C287 1.385 . S
H289 C287 0.950 . S
H290 C274 0.951 . S
H291 C276 0.951 . S
H292 C278 0.951 . S
H293 C279 0.950 . S
H294 C280 0.950 . S
H295 C281 0.950 . S
H296 C283 0.950 . S
H297 C284 0.951 . S
C298 C299 1.386 . S
C298 C300 1.383 . S
C298 H314 0.951 . S
C299 C298 1.386 . S
C299 C303 1.383 . S
C300 C298 1.383 . S
C300 C301 1.402 . S
C300 H315 0.951 . S
C301 C300 1.402 . S
C301 C302 1.375 . S
C301 C304 1.481 . S
C302 C301 1.375 . S
C302 C303 1.367 . S
C302 H316 0.951 . S
C303 C299 1.383 . S
C303 C302 1.367 . S
C303 H317 0.950 . S
C304 C301 1.481 . S
C304 C305 1.297 . S
C304 H318 0.950 . S
C305 C304 1.297 . S
C305 C306 1.479 . S
C305 H319 0.950 . S
C306 C305 1.479 . S
C306 C307 1.375 . S
C306 C312 1.404 . S
C307 C306 1.375 . S
C307 C308 1.369 . S
C307 H320 0.950 . S
C308 C307 1.369 . S
C308 C309 1.392 . S
C308 H321 0.951 . S
C309 C308 1.392 . S
C309 C311 1.384 . S
H310 C312 0.949 . S
C311 C309 1.384 . S
C311 C312 1.385 . S
C311 H313 0.950 . S
C312 C306 1.404 . S
C312 H310 0.949 . S
C312 C311 1.385 . S
H313 C311 0.950 . S
H314 C298 0.951 . S
H315 C300 0.951 . S
H316 C302 0.951 . S
H317 C303 0.950 . S
H318 C304 0.950 . S
H319 C305 0.950 . S
H320 C307 0.950 . S
H321 C308 0.951 . S
C322 C323 1.386 . S
C322 C324 1.383 . S
C322 H338 0.951 . S
C323 C322 1.386 . S
C323 C327 1.383 . S
C324 C322 1.383 . S
C324 C325 1.402 . S
C324 H339 0.951 . S
C325 C324 1.402 . S
C325 C326 1.375 . S
C325 C328 1.481 . S
C326 C325 1.375 . S
C326 C327 1.367 . S
C326 H340 0.951 . S
C327 C323 1.383 . S
C327 C326 1.367 . S
C327 H341 0.950 . S
C328 C325 1.481 . S
C328 C329 1.297 . S
C328 H342 0.950 . S
C329 C328 1.297 . S
C329 C330 1.479 . S
C329 H343 0.950 . S
C330 C329 1.479 . S
C330 C331 1.375 . S
C330 C336 1.404 . S
C331 C330 1.375 . S
C331 C332 1.369 . S
C331 H344 0.950 . S
C332 C331 1.369 . S
C332 C333 1.392 . S
C332 H345 0.951 . S
C333 C332 1.392 . S
C333 C335 1.384 . S
H334 C336 0.949 . S
C335 C333 1.384 . S
C335 C336 1.385 . S
C335 H337 0.950 . S
C336 C330 1.404 . S
C336 H334 0.949 . S
C336 C335 1.385 . S
H337 C335 0.950 . S
H338 C322 0.951 . S
H339 C324 0.951 . S
H340 C326 0.951 . S
H341 C327 0.950 . S
H342 C328 0.950 . S
H343 C329 0.950 . S
H344 C331 0.950 . S
H345 C332 0.951 . S
C346 C347 1.386 . S
C346 C348 1.383 . S
C346 H362 0.951 . S
C347 C346 1.386 . S
C347 C351 1.383 . S
C348 C346 1.383 . S
C348 C349 1.402 . S
C348 H363 0.951 . S
C349 C348 1.402 . S
C349 C350 1.375 . S
C349 C352 1.481 . S
C350 C349 1.375 . S
C350 C351 1.367 . S
C350 H364 0.951 . S
C351 C347 1.383 . S
C351 C350 1.367 . S
C351 H365 0.950 . S
C352 C349 1.481 . S
C352 C353 1.297 . S
C352 H366 0.950 . S
C353 C352 1.297 . S
C353 C354 1.479 . S
C353 H367 0.950 . S
C354 C353 1.479 . S
C354 C355 1.375 . S
C354 C360 1.404 . S
C355 C354 1.375 . S
C355 C356 1.369 . S
C355 H368 0.950 . S
C356 C355 1.369 . S
C356 C357 1.392 . S
C356 H369 0.951 . S
C357 C356 1.392 . S
C357 C359 1.384 . S
H358 C360 0.949 . S
C359 C357 1.384 . S
C359 C360 1.385 . S
C359 H361 0.950 . S
C360 C354 1.404 . S
C360 H358 0.949 . S
C360 C359 1.385 . S
H361 C359 0.950 . S
H362 C346 0.951 . S
H363 C348 0.951 . S
H364 C350 0.951 . S
H365 C351 0.950 . S
H366 C352 0.950 . S
H367 C353 0.950 . S
H368 C355 0.950 . S
H369 C356 0.951 . S
C370 C371 1.386 . S
C370 C372 1.383 . S
C370 H386 0.951 . S
C371 C370 1.386 . S
C371 C375 1.383 . S
C372 C370 1.383 . S
C372 C373 1.402 . S
C372 H387 0.951 . S
C373 C372 1.402 . S
C373 C374 1.375 . S
C373 C376 1.481 . S
C374 C373 1.375 . S
C374 C375 1.367 . S
C374 H388 0.951 . S
C375 C371 1.383 . S
C375 C374 1.367 . S
C375 H389 0.950 . S
C376 C373 1.481 . S
C376 C377 1.297 . S
C376 H390 0.950 . S
C377 C376 1.297 . S
C377 C378 1.479 . S
C377 H391 0.950 . S
C378 C377 1.479 . S
C378 C379 1.375 . S
C378 C384 1.404 . S
C379 C378 1.375 . S
C379 C380 1.369 . S
C379 H392 0.950 . S
C380 C379 1.369 . S
C380 C381 1.392 . S
C380 H393 0.951 . S
C381 C380 1.392 . S
C381 C383 1.384 . S
H382 C384 0.949 . S
C383 C381 1.384 . S
C383 C384 1.385 . S
C383 H385 0.950 . S
C384 C378 1.404 . S
C384 H382 0.949 . S
C384 C383 1.385 . S
H385 C383 0.950 . S
H386 C370 0.951 . S
H387 C372 0.951 . S
H388 C374 0.951 . S
H389 C375 0.950 . S
H390 C376 0.950 . S
H391 C377 0.950 . S
H392 C379 0.950 . S
H393 C380 0.951 . S
C394 C395 1.386 . S
C394 C396 1.383 . S
C394 H410 0.944 1_545 S
C395 C394 1.386 . S
C395 C399 1.383 . S
C396 C394 1.383 . S
C396 C397 1.402 . S
C396 H411 0.951 . S
C397 C396 1.402 . S
C397 C398 1.375 . S
C397 C400 1.481 . S
C398 C397 1.375 . S
C398 C399 1.367 . S
C398 H412 0.951 1_455 S
C399 C395 1.383 . S
C399 C398 1.367 . S
C399 H413 0.950 1_455 S
C400 C397 1.481 . S
C400 C401 1.297 . S
C400 H414 0.950 . S
C401 C400 1.297 . S
C401 C402 1.479 . S
C401 H415 0.950 . S
C402 C401 1.479 . S
C402 C403 1.374 . S
C402 C408 1.404 . S
C403 C402 1.374 . S
C403 C404 1.370 1_545 S
C403 H416 0.951 1_545 S
C404 C403 1.370 1_565 S
C404 C405 1.392 1_565 S
C404 H417 0.951 . S
C405 C404 1.392 1_545 S
C405 C407 1.384 . S
H406 C408 0.949 1_655 S
C407 C405 1.384 . S
C407 C408 1.385 . S
C407 H409 0.950 1_455 S
C408 C402 1.404 . S
C408 H406 0.949 1_455 S
C408 C407 1.385 . S
H409 C407 0.950 1_655 S
H410 C394 0.944 1_565 S
H411 C396 0.951 . S
H412 C398 0.951 1_655 S
H413 C399 0.950 1_655 S
H414 C400 0.950 . S
H415 C401 0.950 . S
H416 C403 0.951 1_565 S
H417 C404 0.951 . S
C418 C419 1.386 . S
C418 C420 1.383 . S
C418 H434 0.951 1_455 S
C419 C418 1.386 . S
C419 C423 1.383 . S
C420 C418 1.383 . S
C420 C421 1.402 . S
C420 H435 0.951 1_455 S
C421 C420 1.402 . S
C421 C422 1.375 . S
C421 C424 1.481 . S
C422 C421 1.375 . S
C422 C423 1.367 . S
C422 H436 0.951 . S
C423 C419 1.383 . S
C423 C422 1.367 . S
C423 H437 0.950 . S
C424 C421 1.481 . S
C424 C425 1.297 . S
C424 H438 0.950 . S
C425 C424 1.297 . S
C425 C426 1.479 . S
C425 H439 0.950 1_455 S
C426 C425 1.479 . S
C426 C427 1.375 1_455 S
C426 C432 1.404 . S
C427 C426 1.375 1_655 S
C427 C428 1.369 . S
C427 H440 0.950 . S
C428 C427 1.369 . S
C428 C429 1.392 1_655 S
C428 H441 0.951 . S
C429 C428 1.392 1_455 S
C429 C431 1.384 . S
H430 C432 0.949 . S
C431 C429 1.384 . S
C431 C432 1.385 . S
C431 H433 0.950 . S
C432 C426 1.404 . S
C432 H430 0.949 . S
C432 C431 1.385 . S
H433 C431 0.950 . S
H434 C418 0.951 1_655 S
H435 C420 0.951 1_655 S
H436 C422 0.951 . S
H437 C423 0.950 . S
H438 C424 0.950 . S
H439 C425 0.950 1_655 S
H440 C427 0.950 . S
H441 C428 0.951 . S
C442 C443 1.386 . S
C442 C444 1.383 . S
C442 H458 0.951 . S
C443 C442 1.386 . S
C443 C447 1.383 . S
C444 C442 1.383 . S
C444 C445 1.402 . S
C444 H459 0.951 . S
C445 C444 1.402 . S
C445 C446 1.375 . S
C445 C448 1.481 . S
C446 C445 1.375 . S
C446 C447 1.367 . S
C446 H460 0.951 . S
C447 C443 1.383 . S
C447 C446 1.367 . S
C447 H461 0.950 . S
C448 C445 1.481 . S
C448 C449 1.297 . S
C448 H462 0.950 . S
C449 C448 1.297 . S
C449 C450 1.479 . S
C449 H463 0.950 . S
C450 C449 1.479 . S
C450 C451 1.375 . S
C450 C456 1.404 . S
C451 C450 1.375 . S
C451 C452 1.369 . S
C451 H464 0.950 . S
C452 C451 1.369 . S
C452 C453 1.392 . S
C452 H465 0.951 . S
C453 C452 1.392 . S
C453 C455 1.384 . S
H454 C456 0.949 . S
C455 C453 1.384 . S
C455 C456 1.385 . S
C455 H457 0.950 . S
C456 C450 1.404 . S
C456 H454 0.949 . S
C456 C455 1.385 . S
H457 C455 0.950 . S
H458 C442 0.951 . S
H459 C444 0.951 . S
H460 C446 0.951 . S
H461 C447 0.950 . S
H462 C448 0.950 . S
H463 C449 0.950 . S
H464 C451 0.950 . S
H465 C452 0.951 . S
C466 C467 1.386 . S
C466 C468 1.383 . S
C466 H482 0.951 . S
C467 C466 1.386 . S
C467 C471 1.383 . S
C468 C466 1.383 . S
C468 C469 1.402 . S
C468 H483 0.951 . S
C469 C468 1.402 . S
C469 C470 1.375 . S
C469 C472 1.481 . S
C470 C469 1.375 . S
C470 C471 1.367 . S
C470 H484 0.951 . S
C471 C467 1.383 . S
C471 C470 1.367 . S
C471 H485 0.950 . S
C472 C469 1.481 . S
C472 C473 1.297 . S
C472 H486 0.950 . S
C473 C472 1.297 . S
C473 C474 1.479 . S
C473 H487 0.950 . S
C474 C473 1.479 . S
C474 C475 1.375 . S
C474 C480 1.404 . S
C475 C474 1.375 . S
C475 C476 1.369 . S
C475 H488 0.950 . S
C476 C475 1.369 . S
C476 C477 1.392 . S
C476 H489 0.951 . S
C477 C476 1.392 . S
C477 C479 1.384 . S
H478 C480 0.949 . S
C479 C477 1.384 . S
C479 C480 1.385 . S
C479 H481 0.950 . S
C480 C474 1.404 . S
C480 H478 0.949 . S
C480 C479 1.385 . S
H481 C479 0.950 . S
H482 C466 0.951 . S
H483 C468 0.951 . S
H484 C470 0.951 . S
H485 C471 0.950 . S
H486 C472 0.950 . S
H487 C473 0.950 . S
H488 C475 0.950 . S
H489 C476 0.951 . S
C213 C164 1.471 . S
C203 C16 1.390 . S
C227 C15 1.546 . S
C237 C124 1.513 . S
C251 C13 1.342 . S
C261 C177 1.446 . S
C275 C14 1.354 . S
C285 C137 1.370 . S
C299 C37 1.376 . S
C309 C84 1.441 . S
C323 C36 1.560 . S
C333 C44 1.564 . S
C357 C97 1.490 . S
C347 C34 1.344 . S
C381 C57 1.316 . S
C371 C35 1.294 . S
C395 C17 1.518 . S
C405 C63 1.507 . S
C419 C18 1.385 . S
C429 C103 1.431 . S
C453 C143 1.525 . S
C443 C38 1.495 . S
C467 C39 1.377 . S
C477 C183 1.354 . S
