# Generated by pormake.
# Topology gar, (4,6)-cn, num edge types: 1
# Building blocks:
#     Node 0, Type 0, BuildingBlock: GALJAG_clean_sbu_0, # of connection points: 4
#     Node 1, Type 0, BuildingBlock: GALJAG_clean_sbu_0, # of connection points: 4
#     Node 2, Type 0, BuildingBlock: GALJAG_clean_sbu_0, # of connection points: 4
#     Node 3, Type 0, BuildingBlock: GALJAG_clean_sbu_0, # of connection points: 4
#     Node 4, Type 0, BuildingBlock: GALJAG_clean_sbu_0, # of connection points: 4
#     Node 5, Type 0, BuildingBlock: GALJAG_clean_sbu_0, # of connection points: 4
#     Node 6, Type 0, BuildingBlock: GALJAG_clean_sbu_0, # of connection points: 4
#     Node 7, Type 0, BuildingBlock: GALJAG_clean_sbu_0, # of connection points: 4
#     Node 8, Type 0, BuildingBlock: GALJAG_clean_sbu_0, # of connection points: 4
#     Node 9, Type 0, BuildingBlock: GALJAG_clean_sbu_0, # of connection points: 4
#     Node 10, Type 0, BuildingBlock: GALJAG_clean_sbu_0, # of connection points: 4
#     Node 11, Type 0, BuildingBlock: GALJAG_clean_sbu_0, # of connection points: 4
#     Node 12, Type 0, BuildingBlock: GALJAG_clean_sbu_0, # of connection points: 4
#     Node 13, Type 0, BuildingBlock: GALJAG_clean_sbu_0, # of connection points: 4
#     Node 14, Type 0, BuildingBlock: GALJAG_clean_sbu_0, # of connection points: 4
#     Node 15, Type 0, BuildingBlock: GALJAG_clean_sbu_0, # of connection points: 4
#     Node 16, Type 0, BuildingBlock: GALJAG_clean_sbu_0, # of connection points: 4
#     Node 17, Type 0, BuildingBlock: GALJAG_clean_sbu_0, # of connection points: 4
#     Node 18, Type 0, BuildingBlock: GALJAG_clean_sbu_0, # of connection points: 4
#     Node 19, Type 0, BuildingBlock: GALJAG_clean_sbu_0, # of connection points: 4
#     Node 20, Type 0, BuildingBlock: GALJAG_clean_sbu_0, # of connection points: 4
#     Node 21, Type 0, BuildingBlock: GALJAG_clean_sbu_0, # of connection points: 4
#     Node 22, Type 0, BuildingBlock: GALJAG_clean_sbu_0, # of connection points: 4
#     Node 23, Type 0, BuildingBlock: GALJAG_clean_sbu_0, # of connection points: 4
#     Node 24, Type 1, BuildingBlock: KUMBUR_clean_sbu_0, # of connection points: 6
#     Node 25, Type 1, BuildingBlock: KUMBUR_clean_sbu_0, # of connection points: 6
#     Node 26, Type 1, BuildingBlock: KUMBUR_clean_sbu_0, # of connection points: 6
#     Node 27, Type 1, BuildingBlock: KUMBUR_clean_sbu_0, # of connection points: 6
#     Node 28, Type 1, BuildingBlock: KUMBUR_clean_sbu_0, # of connection points: 6
#     Node 29, Type 1, BuildingBlock: KUMBUR_clean_sbu_0, # of connection points: 6
#     Node 30, Type 1, BuildingBlock: KUMBUR_clean_sbu_0, # of connection points: 6
#     Node 31, Type 1, BuildingBlock: KUMBUR_clean_sbu_0, # of connection points: 6
#     Node 32, Type 1, BuildingBlock: KUMBUR_clean_sbu_0, # of connection points: 6
#     Node 33, Type 1, BuildingBlock: KUMBUR_clean_sbu_0, # of connection points: 6
#     Node 34, Type 1, BuildingBlock: KUMBUR_clean_sbu_0, # of connection points: 6
#     Node 35, Type 1, BuildingBlock: KUMBUR_clean_sbu_0, # of connection points: 6
#     Node 36, Type 1, BuildingBlock: KUMBUR_clean_sbu_0, # of connection points: 6
#     Node 37, Type 1, BuildingBlock: KUMBUR_clean_sbu_0, # of connection points: 6
#     Node 38, Type 1, BuildingBlock: KUMBUR_clean_sbu_0, # of connection points: 6
#     Node 39, Type 1, BuildingBlock: KUMBUR_clean_sbu_0, # of connection points: 6
#     Edge 40, Type (0, 1), BuildingBlock: ZUJKAS_clean_linker_0, # of connection points: 2
#     Edge 41, Type (0, 1), BuildingBlock: ZUJKAS_clean_linker_0, # of connection points: 2
#     Edge 42, Type (0, 1), BuildingBlock: ZUJKAS_clean_linker_0, # of connection points: 2
#     Edge 43, Type (0, 1), BuildingBlock: ZUJKAS_clean_linker_0, # of connection points: 2
#     Edge 44, Type (0, 1), BuildingBlock: ZUJKAS_clean_linker_0, # of connection points: 2
#     Edge 45, Type (0, 1), BuildingBlock: ZUJKAS_clean_linker_0, # of connection points: 2
#     Edge 46, Type (0, 1), BuildingBlock: ZUJKAS_clean_linker_0, # of connection points: 2
#     Edge 47, Type (0, 1), BuildingBlock: ZUJKAS_clean_linker_0, # of connection points: 2
#     Edge 48, Type (0, 1), BuildingBlock: ZUJKAS_clean_linker_0, # of connection points: 2
#     Edge 49, Type (0, 1), BuildingBlock: ZUJKAS_clean_linker_0, # of connection points: 2
#     Edge 50, Type (0, 1), BuildingBlock: ZUJKAS_clean_linker_0, # of connection points: 2
#     Edge 51, Type (0, 1), BuildingBlock: ZUJKAS_clean_linker_0, # of connection points: 2
#     Edge 52, Type (0, 1), BuildingBlock: ZUJKAS_clean_linker_0, # of connection points: 2
#     Edge 53, Type (0, 1), BuildingBlock: ZUJKAS_clean_linker_0, # of connection points: 2
#     Edge 54, Type (0, 1), BuildingBlock: ZUJKAS_clean_linker_0, # of connection points: 2
#     Edge 55, Type (0, 1), BuildingBlock: ZUJKAS_clean_linker_0, # of connection points: 2
#     Edge 56, Type (0, 1), BuildingBlock: ZUJKAS_clean_linker_0, # of connection points: 2
#     Edge 57, Type (0, 1), BuildingBlock: ZUJKAS_clean_linker_0, # of connection points: 2
#     Edge 58, Type (0, 1), BuildingBlock: ZUJKAS_clean_linker_0, # of connection points: 2
#     Edge 59, Type (0, 1), BuildingBlock: ZUJKAS_clean_linker_0, # of connection points: 2
#     Edge 60, Type (0, 1), BuildingBlock: ZUJKAS_clean_linker_0, # of connection points: 2
#     Edge 61, Type (0, 1), BuildingBlock: ZUJKAS_clean_linker_0, # of connection points: 2
#     Edge 62, Type (0, 1), BuildingBlock: ZUJKAS_clean_linker_0, # of connection points: 2
#     Edge 63, Type (0, 1), BuildingBlock: ZUJKAS_clean_linker_0, # of connection points: 2
#     Edge 64, Type (0, 1), BuildingBlock: ZUJKAS_clean_linker_0, # of connection points: 2
#     Edge 65, Type (0, 1), BuildingBlock: ZUJKAS_clean_linker_0, # of connection points: 2
#     Edge 66, Type (0, 1), BuildingBlock: ZUJKAS_clean_linker_0, # of connection points: 2
#     Edge 67, Type (0, 1), BuildingBlock: ZUJKAS_clean_linker_0, # of connection points: 2
#     Edge 68, Type (0, 1), BuildingBlock: ZUJKAS_clean_linker_0, # of connection points: 2
#     Edge 69, Type (0, 1), BuildingBlock: ZUJKAS_clean_linker_0, # of connection points: 2
#     Edge 70, Type (0, 1), BuildingBlock: ZUJKAS_clean_linker_0, # of connection points: 2
#     Edge 71, Type (0, 1), BuildingBlock: ZUJKAS_clean_linker_0, # of connection points: 2
#     Edge 72, Type (0, 1), BuildingBlock: ZUJKAS_clean_linker_0, # of connection points: 2
#     Edge 73, Type (0, 1), BuildingBlock: ZUJKAS_clean_linker_0, # of connection points: 2
#     Edge 74, Type (0, 1), BuildingBlock: ZUJKAS_clean_linker_0, # of connection points: 2
#     Edge 75, Type (0, 1), BuildingBlock: ZUJKAS_clean_linker_0, # of connection points: 2
#     Edge 76, Type (0, 1), BuildingBlock: ZUJKAS_clean_linker_0, # of connection points: 2
#     Edge 77, Type (0, 1), BuildingBlock: ZUJKAS_clean_linker_0, # of connection points: 2
#     Edge 78, Type (0, 1), BuildingBlock: ZUJKAS_clean_linker_0, # of connection points: 2
#     Edge 79, Type (0, 1), BuildingBlock: ZUJKAS_clean_linker_0, # of connection points: 2
#     Edge 80, Type (0, 1), BuildingBlock: ZUJKAS_clean_linker_0, # of connection points: 2
#     Edge 81, Type (0, 1), BuildingBlock: ZUJKAS_clean_linker_0, # of connection points: 2
#     Edge 82, Type (0, 1), BuildingBlock: ZUJKAS_clean_linker_0, # of connection points: 2
#     Edge 83, Type (0, 1), BuildingBlock: ZUJKAS_clean_linker_0, # of connection points: 2
#     Edge 84, Type (0, 1), BuildingBlock: ZUJKAS_clean_linker_0, # of connection points: 2
#     Edge 85, Type (0, 1), BuildingBlock: ZUJKAS_clean_linker_0, # of connection points: 2
#     Edge 86, Type (0, 1), BuildingBlock: ZUJKAS_clean_linker_0, # of connection points: 2
#     Edge 87, Type (0, 1), BuildingBlock: ZUJKAS_clean_linker_0, # of connection points: 2
#     Edge 88, Type (0, 1), BuildingBlock: ZUJKAS_clean_linker_0, # of connection points: 2
#     Edge 89, Type (0, 1), BuildingBlock: ZUJKAS_clean_linker_0, # of connection points: 2
#     Edge 90, Type (0, 1), BuildingBlock: ZUJKAS_clean_linker_0, # of connection points: 2
#     Edge 91, Type (0, 1), BuildingBlock: ZUJKAS_clean_linker_0, # of connection points: 2
#     Edge 92, Type (0, 1), BuildingBlock: ZUJKAS_clean_linker_0, # of connection points: 2
#     Edge 93, Type (0, 1), BuildingBlock: ZUJKAS_clean_linker_0, # of connection points: 2
#     Edge 94, Type (0, 1), BuildingBlock: ZUJKAS_clean_linker_0, # of connection points: 2
#     Edge 95, Type (0, 1), BuildingBlock: ZUJKAS_clean_linker_0, # of connection points: 2
#     Edge 96, Type (0, 1), BuildingBlock: ZUJKAS_clean_linker_0, # of connection points: 2
#     Edge 97, Type (0, 1), BuildingBlock: ZUJKAS_clean_linker_0, # of connection points: 2
#     Edge 98, Type (0, 1), BuildingBlock: ZUJKAS_clean_linker_0, # of connection points: 2
#     Edge 99, Type (0, 1), BuildingBlock: ZUJKAS_clean_linker_0, # of connection points: 2
#     Edge 100, Type (0, 1), BuildingBlock: ZUJKAS_clean_linker_0, # of connection points: 2
#     Edge 101, Type (0, 1), BuildingBlock: ZUJKAS_clean_linker_0, # of connection points: 2
#     Edge 102, Type (0, 1), BuildingBlock: ZUJKAS_clean_linker_0, # of connection points: 2
#     Edge 103, Type (0, 1), BuildingBlock: ZUJKAS_clean_linker_0, # of connection points: 2
#     Edge 104, Type (0, 1), BuildingBlock: ZUJKAS_clean_linker_0, # of connection points: 2
#     Edge 105, Type (0, 1), BuildingBlock: ZUJKAS_clean_linker_0, # of connection points: 2
#     Edge 106, Type (0, 1), BuildingBlock: ZUJKAS_clean_linker_0, # of connection points: 2
#     Edge 107, Type (0, 1), BuildingBlock: ZUJKAS_clean_linker_0, # of connection points: 2
#     Edge 108, Type (0, 1), BuildingBlock: ZUJKAS_clean_linker_0, # of connection points: 2
#     Edge 109, Type (0, 1), BuildingBlock: ZUJKAS_clean_linker_0, # of connection points: 2
#     Edge 110, Type (0, 1), BuildingBlock: ZUJKAS_clean_linker_0, # of connection points: 2
#     Edge 111, Type (0, 1), BuildingBlock: ZUJKAS_clean_linker_0, # of connection points: 2
#     Edge 112, Type (0, 1), BuildingBlock: ZUJKAS_clean_linker_0, # of connection points: 2
#     Edge 113, Type (0, 1), BuildingBlock: ZUJKAS_clean_linker_0, # of connection points: 2
#     Edge 114, Type (0, 1), BuildingBlock: ZUJKAS_clean_linker_0, # of connection points: 2
#     Edge 115, Type (0, 1), BuildingBlock: ZUJKAS_clean_linker_0, # of connection points: 2
#     Edge 116, Type (0, 1), BuildingBlock: ZUJKAS_clean_linker_0, # of connection points: 2
#     Edge 117, Type (0, 1), BuildingBlock: ZUJKAS_clean_linker_0, # of connection points: 2
#     Edge 118, Type (0, 1), BuildingBlock: ZUJKAS_clean_linker_0, # of connection points: 2
#     Edge 119, Type (0, 1), BuildingBlock: ZUJKAS_clean_linker_0, # of connection points: 2
#     Edge 120, Type (0, 1), BuildingBlock: ZUJKAS_clean_linker_0, # of connection points: 2
#     Edge 121, Type (0, 1), BuildingBlock: ZUJKAS_clean_linker_0, # of connection points: 2
#     Edge 122, Type (0, 1), BuildingBlock: ZUJKAS_clean_linker_0, # of connection points: 2
#     Edge 123, Type (0, 1), BuildingBlock: ZUJKAS_clean_linker_0, # of connection points: 2
#     Edge 124, Type (0, 1), BuildingBlock: ZUJKAS_clean_linker_0, # of connection points: 2
#     Edge 125, Type (0, 1), BuildingBlock: ZUJKAS_clean_linker_0, # of connection points: 2
#     Edge 126, Type (0, 1), BuildingBlock: ZUJKAS_clean_linker_0, # of connection points: 2
#     Edge 127, Type (0, 1), BuildingBlock: ZUJKAS_clean_linker_0, # of connection points: 2
#     Edge 128, Type (0, 1), BuildingBlock: ZUJKAS_clean_linker_0, # of connection points: 2
#     Edge 129, Type (0, 1), BuildingBlock: ZUJKAS_clean_linker_0, # of connection points: 2
#     Edge 130, Type (0, 1), BuildingBlock: ZUJKAS_clean_linker_0, # of connection points: 2
#     Edge 131, Type (0, 1), BuildingBlock: ZUJKAS_clean_linker_0, # of connection points: 2
#     Edge 132, Type (0, 1), BuildingBlock: ZUJKAS_clean_linker_0, # of connection points: 2
#     Edge 133, Type (0, 1), BuildingBlock: ZUJKAS_clean_linker_0, # of connection points: 2
#     Edge 134, Type (0, 1), BuildingBlock: ZUJKAS_clean_linker_0, # of connection points: 2
#     Edge 135, Type (0, 1), BuildingBlock: ZUJKAS_clean_linker_0, # of connection points: 2
# Relax obj value: 0.129
# Max RMSD: 0.309
# Mean RMSD: 0.166
data_MOF--net-gar--node1-GALJAG_clean_sbu_0--node2-KUMBUR_clean_sbu_0--edge1-ZUJKAS_clean_linker_0
_symmetry_space_group_name_H-M    P1
_symmetry_Int_Tables_number       1
_symmetry_cell_setting            triclinic
loop_
_symmetry_equiv_pos_as_xyz
'x, y, z'
_cell_length_a     77.151022
_cell_length_b     72.370637
_cell_length_c     72.292059
_cell_angle_alpha  99.834884
_cell_angle_beta   93.01047
_cell_angle_gamma 101.6766
loop_
_atom_site_label
_atom_site_type_symbol
_atom_site_fract_x
_atom_site_fract_y
_atom_site_fract_z
_atom_type_partial_charge
In0 In 0.08731 0.30624 0.38525 0.0
O1 O 0.10544 0.29462 0.36421 0.0
O2 O 0.11689 0.31874 0.38544 0.0
C3 C 0.05731 0.29744 0.36157 0.0
C4 C 0.08335 0.28165 0.4098 0.0
C5 C 0.08777 0.34326 0.39944 0.0
O6 O 0.07249 0.30318 0.35636 0.0
O7 O 0.05732 0.29537 0.37853 0.0
O8 O 0.09322 0.3323 0.40915 0.0
O9 O 0.08229 0.33559 0.38261 0.0
C10 C 0.11913 0.30717 0.37111 0.0
O11 O 0.08077 0.29847 0.41363 0.0
O12 O 0.08805 0.27708 0.39346 0.0
In13 In 0.01063 0.78014 0.66973 0.0
O14 O 0.00767 0.78763 0.64065 0.0
O15 O 0.01744 0.81073 0.6635 0.0
C16 C 0.00678 0.74437 0.64973 0.0
C17 C 0.04232 0.78825 0.69042 0.0
C18 C 0.98168 0.77765 0.68949 0.0
O19 O 0.9962 0.75503 0.64697 0.0
O20 O 0.01917 0.75175 0.66252 0.0
O21 O 0.99176 0.76594 0.68883 0.0
O22 O 0.98654 0.79123 0.68075 0.0
C23 C 0.01341 0.80544 0.64596 0.0
O24 O 0.02799 0.78904 0.69793 0.0
O25 O 0.0406 0.78416 0.67267 0.0
In26 In 0.58934 0.80483 0.8888 0.0
O27 O 0.60426 0.79509 0.86369 0.0
O28 O 0.61945 0.80872 0.88946 0.0
C29 C 0.55691 0.79963 0.8704 0.0
C30 C 0.58441 0.77969 0.91273 0.0
C31 C 0.59456 0.84309 0.9003 0.0
O32 O 0.5702 0.79608 0.8621 0.0
O33 O 0.55989 0.80514 0.88801 0.0
O34 O 0.59596 0.83178 0.91148 0.0
O35 O 0.59087 0.83515 0.88323 0.0
C36 C 0.61947 0.80129 0.87239 0.0
O37 O 0.58927 0.79757 0.91815 0.0
O38 O 0.58223 0.77426 0.89506 0.0
In39 In 0.51254 0.28186 0.16456 0.0
O40 O 0.50068 0.25903 0.1388 0.0
O41 O 0.51519 0.25072 0.16062 0.0
C42 C 0.51847 0.30646 0.14029 0.0
C43 C 0.48328 0.28449 0.18309 0.0
C44 C 0.54367 0.28615 0.1854 0.0
O45 O 0.50896 0.28975 0.13579 0.0
O46 O 0.52479 0.31109 0.15733 0.0
O47 O 0.52984 0.2894 0.19277 0.0
O48 O 0.54184 0.28148 0.16768 0.0
C49 C 0.50658 0.24583 0.14462 0.0
O50 O 0.48975 0.26974 0.18072 0.0
O51 O 0.49183 0.29832 0.17654 0.0
In52 In 0.08081 0.81297 0.12733 0.0
O53 O 0.08498 0.78927 0.10255 0.0
O54 O 0.06962 0.78032 0.12401 0.0
C55 C 0.0799 0.84481 0.11011 0.0
C56 C 0.05098 0.81158 0.14661 0.0
C57 C 0.11304 0.81504 0.14739 0.0
O58 O 0.07443 0.82761 0.10176 0.0
O59 O 0.08651 0.846 0.12672 0.0
O60 O 0.09956 0.81897 0.15503 0.0
O61 O 0.11061 0.8109 0.12963 0.0
C62 C 0.07627 0.77527 0.10889 0.0
O63 O 0.06658 0.81689 0.15467 0.0
O64 O 0.05041 0.8071 0.12889 0.0
In65 In 0.51911 0.7684 0.42442 0.0
O66 O 0.53422 0.7607 0.39839 0.0
O67 O 0.54954 0.7772 0.42301 0.0
C68 C 0.48679 0.76514 0.40396 0.0
C69 C 0.5205 0.7366 0.44127 0.0
C70 C 0.52268 0.80586 0.44336 0.0
O71 O 0.50172 0.76996 0.39785 0.0
O72 O 0.4879 0.76122 0.4203 0.0
O73 O 0.51797 0.79152 0.45124 0.0
O74 O 0.52577 0.80127 0.42645 0.0
C75 C 0.54948 0.76929 0.40601 0.0
O76 O 0.52225 0.75345 0.45058 0.0
O77 O 0.51757 0.73572 0.42376 0.0
In78 In 0.58216 0.31471 0.62948 0.0
O79 O 0.58258 0.28998 0.60396 0.0
O80 O 0.57516 0.28224 0.62976 0.0
C81 C 0.58177 0.34571 0.61096 0.0
C82 C 0.55225 0.31402 0.64873 0.0
C83 C 0.61494 0.31824 0.64881 0.0
O84 O 0.57433 0.32855 0.60395 0.0
O85 O 0.59002 0.34724 0.62688 0.0
O86 O 0.60183 0.32316 0.65653 0.0
O87 O 0.61186 0.31242 0.63119 0.0
C88 C 0.57786 0.27646 0.6129 0.0
O89 O 0.56782 0.31917 0.65682 0.0
O90 O 0.55175 0.30948 0.63105 0.0
In91 In 0.01953 0.26887 0.92487 0.0
O92 O 0.02197 0.25338 0.95074 0.0
O93 O 0.01725 0.23598 0.92379 0.0
C94 C 0.02386 0.30678 0.94266 0.0
C95 C 0.04989 0.27033 0.90639 0.0
C96 C 0.98674 0.26565 0.90555 0.0
O97 O 0.02062 0.29294 0.95147 0.0
O98 O 0.02515 0.30149 0.92535 0.0
O99 O 1.001 0.26593 0.89776 0.0
O100 O 0.98869 0.2661 0.9231 0.0
C101 C 0.01996 0.23658 0.94127 0.0
O102 O 0.03446 0.26335 0.89833 0.0
O103 O 0.05012 0.27639 0.92388 0.0
In104 In 0.41985 0.04046 0.29348 0.0
O105 O 0.44342 0.05534 0.27983 0.0
O106 O 0.42663 0.03016 0.26375 0.0
C107 C 0.44169 0.04532 0.32508 0.0
C108 C 0.39833 0.06413 0.28683 0.0
C109 C 0.39927 0.00628 0.29565 0.0
O110 O 0.4433 0.03451 0.30994 0.0
O111 O 0.42894 0.05379 0.32439 0.0
O112 O 0.39757 0.0217 0.30583 0.0
O113 O 0.41141 0.00817 0.28465 0.0
C114 C 0.44021 0.0434 0.26452 0.0
O115 O 0.39478 0.04642 0.28014 0.0
O116 O 0.41278 0.07006 0.29715 0.0
In117 In 0.29271 0.1858 0.51392 0.0
O118 O 0.30064 0.21364 0.53654 0.0
O119 O 0.28587 0.1887 0.54455 0.0
C120 C 0.29592 0.20172 0.48213 0.0
C121 C 0.32091 0.16872 0.51667 0.0
C122 C 0.25928 0.16343 0.50826 0.0
O123 O 0.2901 0.20955 0.49678 0.0
O124 O 0.30044 0.18624 0.48367 0.0
O125 O 0.2729 0.15704 0.51178 0.0
O126 O 0.26251 0.18104 0.50737 0.0
C127 C 0.29327 0.2062 0.54953 0.0
O128 O 0.30602 0.16008 0.50817 0.0
O129 O 0.32172 0.18612 0.52376 0.0
In130 In 0.17154 0.01382 0.7716 0.0
O131 O 0.14537 0.0114 0.75031 0.0
O132 O 0.16935 0.01423 0.73816 0.0
C133 C 0.15407 0.01576 0.80651 0.0
C134 C 0.1898 0.98153 0.7702 0.0
C135 C 0.19138 0.05216 0.77461 0.0
O136 O 0.1469 0.00612 0.79066 0.0
O137 O 0.16985 0.02409 0.80491 0.0
O138 O 0.19843 0.03785 0.77502 0.0
O139 O 0.17462 0.04728 0.77302 0.0
C140 C 0.15281 0.01324 0.73529 0.0
O141 O 0.1971 0.99918 0.77499 0.0
O142 O 0.17333 0.97984 0.7658 0.0
In143 In 0.30803 0.935 0.02289 0.0
O144 O 0.29328 0.91379 0.03944 0.0
O145 O 0.31953 0.92856 0.0502 0.0
C146 C 0.30017 0.90902 0.99053 0.0
C147 C 0.28509 0.95821 0.03076 0.0
C148 C 0.34135 0.95305 0.01828 0.0
O149 O 0.30248 0.90455 0.00642 0.0
O150 O 0.30144 0.92675 0.99087 0.0
O151 O 0.32863 0.96161 0.01946 0.0
O152 O 0.33725 0.93561 0.01956 0.0
C153 C 0.30595 0.91613 0.05195 0.0
O154 O 0.29901 0.95949 0.04128 0.0
O155 O 0.28281 0.94532 0.01616 0.0
In156 In 0.30598 0.39508 0.03888 0.0
O157 O 0.29879 0.36933 0.05437 0.0
O158 O 0.30786 0.39698 0.071 0.0
C159 C 0.30559 0.3757 1.00289 0.0
C160 C 0.27793 0.41281 0.03801 0.0
C161 C 0.34016 0.41531 0.04224 0.0
O162 O 0.30327 0.36719 0.01674 0.0
O163 O 0.30786 0.39371 0.0072 0.0
O164 O 0.32691 0.42286 0.04085 0.0
O165 O 0.33626 0.39748 0.04211 0.0
C166 C 0.30254 0.37929 0.07076 0.0
O167 O 0.29315 0.42109 0.04583 0.0
O168 O 0.27663 0.39537 0.03081 0.0
In169 In 0.79703 0.13352 0.02702 0.0
O170 O 0.80613 0.10498 0.02512 0.0
O171 O 0.82424 0.12875 0.0189 0.0
C172 C 0.76302 0.11386 0.01915 0.0
C173 C 0.80527 0.15413 0.06235 0.0
C174 C 0.79437 0.16016 0.00584 0.0
O175 O 0.77097 0.11731 0.03546 0.0
O176 O 0.77247 0.1195 0.00665 0.0
O177 O 0.78909 0.16093 0.02212 0.0
O178 O 0.80105 0.14586 1.00015 0.0
C179 C 0.82131 0.11131 0.02026 0.0
O180 O 0.813 0.15896 0.04844 0.0
O181 O 0.79402 0.13843 0.0586 0.0
In182 In 0.1885 0.5218 0.24673 0.0
O183 O 0.21153 0.5061 0.24379 0.0
O184 O 0.18929 0.49402 0.25711 0.0
C185 C 0.21207 0.55583 0.25291 0.0
C186 C 0.16962 0.50881 0.21285 0.0
C187 C 0.16514 0.53261 0.27054 0.0
O188 O 0.20884 0.54596 0.2656 0.0
O189 O 0.2038 0.54829 0.23704 0.0
O190 O 0.16567 0.53655 0.25421 0.0
O191 O 0.17644 0.5233 0.27485 0.0
C192 C 0.20441 0.4928 0.25194 0.0
O193 O 0.18487 0.51968 0.21487 0.0
O194 O 0.16417 0.50398 0.22783 0.0
In195 In 0.80661 0.89384 0.53662 0.0
O196 O 0.79677 0.86816 0.55148 0.0
O197 O 0.8106 0.89426 0.56842 0.0
C198 C 0.80602 0.87414 0.50077 0.0
C199 C 0.77875 0.91187 0.53659 0.0
C200 C 0.84047 0.91486 0.53943 0.0
O201 O 0.8071 0.86639 0.51507 0.0
O202 O 0.80514 0.89157 0.50459 0.0
O203 O 0.82696 0.92208 0.53842 0.0
O204 O 0.83697 0.89699 0.53909 0.0
C205 C 0.80284 0.87707 0.56784 0.0
O206 O 0.79394 0.91984 0.54471 0.0
O207 O 0.77739 0.89458 0.52881 0.0
In208 In 0.92803 0.06604 0.27514 0.0
O209 O 0.95196 0.07543 0.25571 0.0
O210 O 0.93065 0.05419 0.24233 0.0
C211 C 0.94699 0.06662 0.31131 0.0
C212 C 0.90946 0.09808 0.27634 0.0
C213 C 0.90824 0.02775 0.27247 0.0
O214 O 0.95433 0.06859 0.29626 0.0
O215 O 0.93043 0.06554 0.30857 0.0
O216 O 0.90113 0.04197 0.27167 0.0
O217 O 0.925 0.0327 0.27424 0.0
C218 C 0.94564 0.06421 0.24032 0.0
O219 O 0.90232 0.08041 0.27122 0.0
O220 O 0.92586 0.09986 0.28117 0.0
In221 In 0.29032 0.63564 0.53238 0.0
O222 O 0.30354 0.61277 0.542 0.0
O223 O 0.30848 0.61968 0.51519 0.0
C224 C 0.25584 0.62183 0.5366 0.0
C225 C 0.30348 0.66416 0.56203 0.0
C226 C 0.28824 0.65179 0.50179 0.0
O227 O 0.26507 0.61181 0.5271 0.0
O228 O 0.26415 0.63843 0.54428 0.0
O229 O 0.30243 0.65476 0.51245 0.0
O230 O 0.27532 0.64011 0.50619 0.0
C231 C 0.31132 0.60974 0.52724 0.0
O232 O 0.30104 0.66701 0.54551 0.0
O233 O 0.29988 0.64674 0.56362 0.0
In234 In 0.4291 0.56853 0.77576 0.0
O235 O 0.40357 0.58298 0.77104 0.0
O236 O 0.42681 0.60232 0.78232 0.0
C237 C 0.40926 0.5303 0.77316 0.0
C238 C 0.44683 0.56668 0.74097 0.0
C239 C 0.44785 0.56891 0.81204 0.0
O240 O 0.40216 0.54459 0.7727 0.0
O241 O 0.42602 0.53515 0.77453 0.0
O242 O 0.45531 0.57113 0.7971 0.0
O243 O 0.43128 0.56768 0.80913 0.0
C244 C 0.41057 0.6006 0.77679 0.0
O245 O 0.45313 0.57785 0.7564 0.0
O246 O 0.4318 0.55669 0.74292 0.0
In247 In 0.69428 0.03087 0.74652 0.0
O248 O 0.71704 0.01479 0.74279 0.0
O249 O 0.69551 1.00357 0.75756 0.0
C250 C 0.71804 0.06392 0.74694 0.0
C251 C 0.6705 0.01531 0.71633 0.0
C252 C 0.67548 0.04496 0.77383 0.0
O253 O 0.71794 0.0545 0.76012 0.0
O254 O 0.70652 0.05632 0.73326 0.0
O255 O 0.6853 0.03342 0.77622 0.0
O256 O 0.67541 0.04962 0.75781 0.0
C257 C 0.71027 1.00191 0.75164 0.0
O258 O 0.66697 0.01463 0.73303 0.0
O259 O 0.68632 0.02336 0.71469 0.0
In260 In 0.79325 0.68305 0.01188 0.0
O261 O 0.80521 0.6563 0.00837 0.0
O262 O 0.82322 0.68323 0.01566 0.0
C263 C 0.75915 0.66281 0.00924 0.0
C264 C 0.79473 0.70332 0.04769 0.0
C265 C 0.79572 0.69773 0.97939 0.0
O266 O 0.77238 0.65502 0.00886 0.0
O267 O 0.76307 0.68086 0.01091 0.0
O268 O 0.80188 0.70766 0.99535 0.0
O269 O 0.78858 0.68057 0.97984 0.0
C270 C 0.82117 0.66518 0.01221 0.0
O271 O 0.79309 0.71074 0.03327 0.0
O272 O 0.79585 0.68597 0.04402 0.0
In273 In 0.91857 0.55234 0.79512 0.0
O274 O 0.8985 0.56063 0.77571 0.0
O275 O 0.90933 0.58087 0.80049 0.0
C276 C 0.89646 0.51781 0.79413 0.0
C277 C 0.9415 0.55093 0.76848 0.0
C278 C 0.93981 0.56203 0.82797 0.0
O279 O 0.89602 0.53241 0.80627 0.0
O280 O 0.90794 0.52066 0.7826 0.0
O281 O 0.9457 0.5613 0.81203 0.0
O282 O 0.9231 0.55817 0.82749 0.0
C283 C 0.89918 0.57698 0.78545 0.0
O284 O 0.93655 0.53716 0.77701 0.0
O285 O 0.93504 0.56551 0.7736 0.0
In286 In 0.80305 0.43328 0.52467 0.0
O287 O 0.78656 0.40756 0.53468 0.0
O288 O 0.80926 0.42394 0.55232 0.0
C289 C 0.80196 0.40745 0.49278 0.0
C290 C 0.7816 0.45853 0.53056 0.0
C291 C 0.83528 0.45589 0.52428 0.0
O292 O 0.81585 0.41422 0.5038 0.0
O293 O 0.78847 0.41371 0.4978 0.0
O294 O 0.82219 0.45597 0.51307 0.0
O295 O 0.83197 0.44471 0.53588 0.0
C296 C 0.79637 0.40967 0.54973 0.0
O297 O 0.79163 0.4556 0.54357 0.0
O298 O 0.78226 0.44861 0.51458 0.0
In299 In 0.67026 0.51139 0.27186 0.0
O300 O 0.69601 0.49684 0.27468 0.0
O301 O 0.67209 0.47745 0.26642 0.0
C302 C 0.69004 0.5497 0.27459 0.0
C303 C 0.65127 0.51085 0.23567 0.0
C304 C 0.65295 0.51331 0.30693 0.0
O305 O 0.69714 0.5356 0.27605 0.0
O306 O 0.67331 0.5446 0.27211 0.0
O307 O 0.64643 0.50221 0.29153 0.0
O308 O 0.66798 0.52317 0.30482 0.0
C309 C 0.68865 0.47916 0.27032 0.0
O310 O 0.64403 0.50962 0.2509 0.0
O311 O 0.6677 0.51116 0.23827 0.0
Tb312 Tb 0.03024 0.0264 0.01237 0.0
C313 C 0.07407 0.09428 0.06266 0.0
C314 C 0.07684 0.11867 0.0433 0.0
C315 C 0.07729 0.12777 0.0773 0.0
C316 C 0.07435 0.09924 0.04513 0.0
C317 C 0.07623 0.10854 0.07904 0.0
C318 C 0.07761 0.13284 0.05943 0.0
C319 C 0.07925 0.08429 0.09741 0.0
N320 N 0.07359 0.07564 0.06368 0.0
C321 C 0.07727 0.07072 0.08073 0.0
C322 C 0.07832 0.10321 0.0966 0.0
Tb323 Tb 0.07033 0.0544 0.03553 0.0
N324 N 0.07398 0.08517 0.03003 0.0
C325 C 0.07756 0.08978 0.01284 0.0
C326 C 0.07949 0.12334 0.02552 0.0
C327 C 0.08031 0.10885 0.01033 0.0
H328 H 0.07825 0.05621 0.08155 0.0
H329 H 0.08309 0.11228 0.99667 0.0
H330 H 0.07926 0.14782 0.0583 0.0
H331 H 0.08157 0.08016 0.11088 0.0
H332 H 0.07809 0.07879 1.0009 0.0
H333 H 0.96653 0.01668 0.04105 0.0
H334 H 0.08159 0.1381 0.02351 0.0
H335 H 0.05346 0.99482 0.99452 0.0
H336 H 0.99261 0.03458 0.02834 0.0
H337 H 0.0524 0.96026 0.99253 0.0
H338 H 0.07871 0.13893 0.0897 0.0
H339 H 0.96519 0.98302 0.04462 0.0
H340 H 0.97867 0.95387 0.03897 0.0
H341 H 0.08005 0.11373 0.10952 0.0
H342 H 1.00191 0.93838 0.02537 0.0
N343 N 0.00632 0.01164 0.02584 0.0
C344 C 0.99221 0.01997 0.03009 0.0
C345 C 0.97672 0.99088 0.03923 0.0
C346 C 0.99053 0.98197 0.0334 0.0
C347 C 0.97742 0.00987 0.03723 0.0
C348 C 0.00518 0.99281 0.0264 0.0
H349 H 0.02924 0.94054 0.00758 0.0
N350 N 0.03126 0.99484 0.01082 0.0
C351 C 0.04269 0.9668 0.99996 0.0
C352 C 0.01812 0.9841 0.01861 0.0
C353 C 0.04324 0.98641 1.00111 0.0
C354 C 0.02965 0.95573 0.00855 0.0
C355 C 0.01699 0.96429 0.01781 0.0
O356 O 0.02062 0.00935 0.98578 0.0
O357 O 0.04841 0.05419 0.01553 0.0
O358 O 0.04903 0.05789 0.05563 0.0
O359 O 0.02599 0.03166 0.04333 0.0
O360 O 0.02226 0.05399 0.01904 0.0
O361 O 0.01047 0.03422 0.99603 0.0
O362 O 0.09169 0.04286 0.04464 0.0
O363 O 0.05547 0.02499 0.02576 0.0
O364 O 0.04943 0.02669 0.98997 0.0
O365 O 0.07579 0.04597 0.00522 0.0
O366 O 0.06722 0.03233 0.05298 0.0
O367 O 0.09637 0.06664 0.03042 0.0
C368 C 0.03738 0.06513 0.0184 0.0
C369 C 0.98966 0.00699 0.97971 0.0
C370 C 0.95764 1.00507 0.98031 0.0
C371 C 0.9752 0.01592 0.98274 0.0
C372 C 0.95467 0.98504 0.97452 0.0
C373 C 0.98634 0.98696 0.97381 0.0
C374 C 0.96894 0.97611 0.97125 0.0
C375 C 0.03365 0.046 0.05746 0.0
C376 C 0.00808 0.01855 0.98353 0.0
C377 C 1.00296 0.95359 0.02572 0.0
C378 C 0.98974 0.96242 0.03349 0.0
C379 C 0.05773 0.01843 0.04091 0.0
C380 C 0.1191 0.06485 0.05269 0.0
C381 C 0.13339 0.0557 0.05348 0.0
C382 C 0.14874 0.06425 0.06575 0.0
C383 C 0.14949 0.08209 0.07745 0.0
C384 C 0.12012 0.08275 0.06431 0.0
C385 C 0.13521 0.09123 0.07673 0.0
C386 C 0.06645 0.03517 0.98962 0.0
C387 C 0.10362 0.05558 0.03917 0.0
H388 H 0.97765 0.03133 0.98754 0.0
H389 H 0.94131 0.9763 0.97231 0.0
H390 H 0.99716 0.97962 0.97137 0.0
H391 H 0.96652 0.96068 0.96677 0.0
H392 H 0.13272 0.04212 0.0441 0.0
H393 H 0.16108 0.08896 0.08714 0.0
H394 H 0.10943 0.09027 0.06366 0.0
H395 H 0.13591 0.10501 0.0857 0.0
Tb396 Tb 0.30668 0.77552 0.25599 0.0
C397 C 0.26779 0.82783 0.30745 0.0
C398 C 0.28997 0.856 0.32178 0.0
C399 C 0.25914 0.85832 0.31692 0.0
C400 C 0.28522 0.83636 0.31344 0.0
C401 C 0.25441 0.83854 0.30957 0.0
C402 C 0.27691 0.86705 0.32301 0.0
C403 C 0.23265 0.809 0.299 0.0
N404 N 0.2638 0.80867 0.30075 0.0
C405 C 0.2464 0.79901 0.29724 0.0
C406 C 0.23668 0.8289 0.30492 0.0
Tb407 Tb 0.28718 0.79342 0.29816 0.0
N408 N 0.29733 0.8251 0.31219 0.0
C409 C 0.31425 0.83239 0.32052 0.0
C410 C 0.30754 0.86375 0.32922 0.0
C411 C 0.31966 0.8518 0.32886 0.0
H412 H 0.24307 0.78365 0.29255 0.0
H413 H 0.33321 0.85754 0.33491 0.0
H414 H 0.28033 0.8822 0.32917 0.0
H415 H 0.21895 0.80133 0.29575 0.0
H416 H 0.32389 0.8235 0.32034 0.0
H417 H 0.25832 0.71428 0.21778 0.0
H418 H 0.31176 0.87878 0.33569 0.0
H419 H 0.35051 0.78269 0.26302 0.0
H420 H 0.26868 0.74735 0.23469 0.0
H421 H 0.37354 0.76348 0.25944 0.0
H422 H 0.24909 0.86686 0.31848 0.0
H423 H 0.27896 0.69215 0.21418 0.0
H424 H 0.30979 0.68675 0.22007 0.0
H425 H 0.226 0.83659 0.30636 0.0
H426 H 0.34109 0.69996 0.23205 0.0
N427 N 0.29509 0.74428 0.24158 0.0
C428 C 0.27797 0.73803 0.23354 0.0
C429 C 0.28362 0.70671 0.22188 0.0
C430 C 0.30124 0.71326 0.22962 0.0
C431 C 0.27195 0.71916 0.22384 0.0
C432 C 0.30663 0.73238 0.23938 0.0
H433 H 0.36504 0.72862 0.24667 0.0
N434 N 0.32898 0.75876 0.2534 0.0
C435 C 0.3597 0.75662 0.25559 0.0
C436 C 0.32419 0.73984 0.24577 0.0
C437 C 0.34659 0.76746 0.25757 0.0
C438 C 0.35484 0.73694 0.24847 0.0
C439 C 0.33695 0.72838 0.24302 0.0
O440 O 0.32353 0.78965 0.23848 0.0
O441 O 0.30266 0.79993 0.2754 0.0
O442 O 0.27337 0.80185 0.27453 0.0
O443 O 0.2792 0.77966 0.24942 0.0
O444 O 0.32698 0.802 0.26505 0.0
O445 O 0.29612 0.77638 0.22887 0.0
O446 O 0.27166 0.77753 0.31544 0.0
O447 O 0.29149 0.76905 0.27876 0.0
O448 O 0.32023 0.76746 0.28007 0.0
O449 O 0.31513 0.79071 0.30456 0.0
O450 O 0.26724 0.76651 0.28883 0.0
O451 O 0.29782 0.79442 0.32577 0.0
C452 C 0.31749 0.81108 0.27571 0.0
C453 C 0.31647 0.77832 0.20582 0.0
C454 C 0.3183 0.78205 0.1731 0.0
C455 C 0.31345 0.78801 0.19124 0.0
C456 C 0.32631 0.76613 0.16971 0.0
C457 C 0.32438 0.76239 0.2023 0.0
C458 C 0.32925 0.75633 0.18428 0.0
C459 C 0.26988 0.79232 0.25686 0.0
C460 C 0.31126 0.78542 0.22444 0.0
C461 C 0.33153 0.70904 0.23421 0.0
C462 C 0.31371 0.70153 0.22739 0.0
C463 C 0.27683 0.75757 0.27815 0.0
C464 C 0.27684 0.78974 0.34799 0.0
C465 C 0.27861 0.77928 0.36225 0.0
C466 C 0.27169 0.7839 0.37959 0.0
C467 C 0.26297 0.79926 0.38257 0.0
C468 C 0.26832 0.80523 0.35113 0.0
C469 C 0.26143 0.80997 0.36841 0.0
C470 C 0.3243 0.77783 0.29736 0.0
C471 C 0.28347 0.78355 0.32986 0.0
H472 H 0.30762 0.80053 0.19419 0.0
H473 H 0.33016 0.76122 0.15584 0.0
H474 H 0.32688 0.75477 0.2134 0.0
H475 H 0.33538 0.74405 0.1816 0.0
H476 H 0.28499 0.76715 0.35965 0.0
H477 H 0.25748 0.80303 0.39584 0.0
H478 H 0.26683 0.81348 0.34028 0.0
H479 H 0.25478 0.82186 0.37077 0.0
Tb480 Tb 0.57392 0.04334 0.52405 0.0
C481 C 0.50878 1.00249 0.55166 0.0
C482 C 0.49773 0.97779 0.5242 0.0
C483 C 0.49163 0.97149 0.55545 0.0
C484 C 0.50732 0.99638 0.53239 0.0
C485 C 0.50038 0.9904 0.56338 0.0
C486 C 0.49035 0.96517 0.53588 0.0
C487 C 0.50765 0.01743 0.5893 0.0
N488 N 0.51704 0.02095 0.55869 0.0
C489 C 0.51574 0.02886 0.57705 0.0
C490 C 0.50026 0.998 0.58252 0.0
Tb491 Tb 0.52962 0.0385 0.53745 0.0
N492 N 0.51444 0.00908 0.52161 0.0
C493 C 0.51148 1.00448 0.50241 0.0
C494 C 0.49543 0.97266 0.50453 0.0
C495 C 0.50207 0.98619 0.4936 0.0
H496 H 0.52149 0.04388 0.58233 0.0
H497 H 0.50005 0.98252 0.47837 0.0
H498 H 0.48313 0.95074 0.52988 0.0
H499 H 0.50713 0.02359 0.60393 0.0
H500 H 0.51648 0.01477 0.49382 0.0
H501 H 0.61182 0.09842 0.58069 0.0
H502 H 0.48819 0.9585 0.49767 0.0
H503 H 0.57717 0.04155 0.47709 0.0
H504 H 0.5963 0.06617 0.56625 0.0
H505 H 0.58364 0.0644 0.45575 0.0
H506 H 0.48529 0.96187 0.56425 0.0
H507 H 0.61646 0.12422 0.56202 0.0
H508 H 0.61365 0.13406 0.53066 0.0
H509 H 0.4939 0.9892 0.592 0.0
H510 H 0.60509 0.12499 0.49663 0.0
N511 N 0.59019 0.07307 0.53925 0.0
C512 C 0.59735 0.077 0.55766 0.0
C513 C 0.60914 0.10999 0.55549 0.0
C514 C 0.60299 0.10573 0.53642 0.0
C515 C 0.60657 0.09546 0.56606 0.0
C516 C 0.59361 0.08688 0.52856 0.0
H517 H 0.59404 0.09904 0.46853 0.0
N518 N 0.58164 0.06305 0.50225 0.0
C519 C 0.58491 0.06958 0.47082 0.0
C520 C 0.5889 0.08176 0.50944 0.0
C521 C 0.58103 0.05668 0.48312 0.0
C522 C 0.59073 0.08909 0.47808 0.0
C523 C 0.59347 0.09532 0.49759 0.0
O524 O 0.58835 0.02876 0.50471 0.0
O525 O 0.54775 0.02386 0.52151 0.0
O526 O 0.54442 0.02755 0.55847 0.0
O527 O 0.57355 0.04111 0.55378 0.0
O528 O 0.56966 0.0133 0.52713 0.0
O529 O 0.59845 0.03847 0.53386 0.0
O530 O 0.51428 0.05728 0.55046 0.0
O531 O 0.55404 0.05895 0.53514 0.0
O532 O 0.55507 0.038 0.4989 0.0
O533 O 0.53247 0.05074 0.51188 0.0
O534 O 0.54197 0.06257 0.5598 0.0
O535 O 0.50612 0.04097 0.5227 0.0
C536 C 0.55272 0.00872 0.52433 0.0
C537 C 0.61963 0.03427 0.51194 0.0
C538 C 0.64869 0.02567 0.50965 0.0
C539 C 0.63113 0.022 0.51486 0.0
C540 C 0.65452 0.04193 0.50154 0.0
C541 C 0.6258 0.05048 0.50401 0.0
C542 C 0.64317 0.05423 0.49881 0.0
C543 C 0.56173 0.03193 0.56349 0.0
C544 C 0.60133 0.02977 0.51737 0.0
C545 C 0.60166 0.11437 0.50549 0.0
C546 C 0.60653 0.11954 0.52487 0.0
C547 C 0.55479 0.0702 0.55093 0.0
C548 C 0.48343 0.04972 0.5409 0.0
C549 C 0.47303 0.06326 0.53853 0.0
C550 C 0.45524 0.06035 0.54319 0.0
C551 C 0.44806 0.04366 0.55008 0.0
C552 C 0.4758 0.03311 0.54756 0.0
C553 C 0.45825 0.03015 0.55217 0.0
C554 C 0.54135 0.04615 0.49735 0.0
C555 C 0.50213 0.05311 0.53636 0.0
H556 H 0.62632 0.00945 0.52096 0.0
H557 H 0.66798 0.04532 0.49756 0.0
H558 H 0.61725 0.0602 0.50184 0.0
H559 H 0.64787 0.06677 0.49269 0.0
H560 H 0.47882 0.07609 0.53331 0.0
H561 H 0.4344 0.04087 0.55357 0.0
H562 H 0.48331 0.02238 0.54915 0.0
H563 H 0.4525 0.01728 0.55731 0.0
Tb564 Tb 0.27859 0.29718 0.7719 0.0
C565 C 0.33512 0.26477 0.81053 0.0
C566 C 0.34521 0.28817 0.83903 0.0
C567 C 0.34602 0.25471 0.83853 0.0
C568 C 0.33774 0.28331 0.82015 0.0
C569 C 0.33981 0.25032 0.81934 0.0
C570 C 0.3487 0.27365 0.84839 0.0
C571 C 0.33434 0.22918 0.78899 0.0
N572 N 0.32955 0.26134 0.79196 0.0
C573 C 0.32989 0.24405 0.78092 0.0
C574 C 0.33898 0.23221 0.80837 0.0
Tb575 Tb 0.32187 0.28624 0.77986 0.0
N576 N 0.33461 0.29688 0.81038 0.0
C577 C 0.34045 0.31591 0.81823 0.0
C578 C 0.34977 0.30754 0.84759 0.0
C579 C 0.34776 0.32149 0.83699 0.0
H580 H 0.32616 0.24147 0.76595 0.0
H581 H 0.35174 0.33656 0.84328 0.0
H582 H 0.35418 0.27704 0.86298 0.0
H583 H 0.33411 0.21539 0.78026 0.0
H584 H 0.33898 0.327 0.81046 0.0
H585 H 0.24875 0.24736 0.70815 0.0
H586 H 0.35548 0.3119 0.86209 0.0
H587 H 0.27441 0.34196 0.78618 0.0
H588 H 0.26145 0.25662 0.74099 0.0
H589 H 0.26655 0.36822 0.77212 0.0
H590 H 0.34947 0.24376 0.84566 0.0
H591 H 0.24505 0.27224 0.6896 0.0
H592 H 0.24638 0.30717 0.68903 0.0
H593 H 0.34251 0.22071 0.81457 0.0
H594 H 0.25113 0.34035 0.70662 0.0
N595 N 0.26579 0.28679 0.74138 0.0
C596 C 0.25998 0.26781 0.73334 0.0
C597 C 0.25073 0.27647 0.70412 0.0
C598 C 0.25528 0.29579 0.71284 0.0
C599 C 0.25272 0.2624 0.71457 0.0
C600 C 0.26269 0.30048 0.73175 0.0
H601 H 0.25813 0.36318 0.73783 0.0
N602 N 0.27096 0.32225 0.76005 0.0
C603 C 0.26627 0.35447 0.76329 0.0
C604 C 0.26537 0.31897 0.74149 0.0
C605 C 0.27068 0.3395 0.77122 0.0
C606 C 0.26162 0.3516 0.74393 0.0
C607 C 0.26073 0.33354 0.73283 0.0
O608 O 0.26135 0.30597 0.79182 0.0
O609 O 0.29892 0.29405 0.79239 0.0
O610 O 0.30224 0.26128 0.78619 0.0
O611 O 0.27592 0.26569 0.77177 0.0
O612 O 0.28695 0.31693 0.79858 0.0
O613 O 0.25396 0.2787 0.77342 0.0
O614 O 0.33936 0.27721 0.76033 0.0
O615 O 0.30153 0.28931 0.75945 0.0
O616 O 0.29814 0.32194 0.76519 0.0
O617 O 0.32451 0.3177 0.77966 0.0
O618 O 0.31365 0.26661 0.75306 0.0
O619 O 0.34633 0.30487 0.7781 0.0
C620 C 0.29838 0.30842 0.80494 0.0
C621 C 0.23054 0.29361 0.78359 0.0
C622 C 0.20033 0.29212 0.79364 0.0
C623 C 0.21798 0.28972 0.79681 0.0
C624 C 0.19577 0.29886 0.77727 0.0
C625 C 0.2254 0.30011 0.7674 0.0
C626 C 0.20818 0.30279 0.76434 0.0
C627 C 0.2852 0.25476 0.77949 0.0
C628 C 0.24889 0.29065 0.78651 0.0
C629 C 0.25454 0.32932 0.71363 0.0
C630 C 0.25183 0.31043 0.70363 0.0
C631 C 0.30212 0.27506 0.7468 0.0
C632 C 0.37006 0.29006 0.7689 0.0
C633 C 0.38241 0.29231 0.75518 0.0
C634 C 0.39996 0.28969 0.75857 0.0
C635 C 0.40482 0.28506 0.77599 0.0
C636 C 0.37543 0.28538 0.78601 0.0
C637 C 0.39267 0.28292 0.78951 0.0
C638 C 0.3152 0.32851 0.77179 0.0
C639 C 0.35167 0.2927 0.76545 0.0
H640 H 0.22182 0.28452 0.80927 0.0
H641 H 0.18255 0.30127 0.7745 0.0
H642 H 0.23468 0.30304 0.75706 0.0
H643 H 0.2044 0.30792 0.75183 0.0
H644 H 0.37831 0.29584 0.74189 0.0
H645 H 0.41818 0.28334 0.77935 0.0
H646 H 0.36632 0.28374 0.79676 0.0
H647 H 0.39668 0.27942 0.80284 0.0
Tb648 Tb 0.04515 0.06089 0.53535 0.0
C649 C 0.07193 0.00871 0.47309 0.0
C650 C 0.04882 1.00151 0.44743 0.0
C651 C 0.0793 1.0012 0.44075 0.0
C652 C 0.05441 0.00681 0.46686 0.0
C653 C 0.08457 1.00556 0.46017 0.0
C654 C 0.06143 0.99917 0.43438 0.0
C655 C 0.10631 0.00972 0.48662 0.0
N656 N 0.0764 0.01276 0.49195 0.0
C657 C 0.09326 0.01266 0.49886 0.0
C658 C 0.10201 0.00638 0.46718 0.0
Tb659 Tb 0.05421 0.01807 0.51098 0.0
N660 N 0.04267 0.00894 0.47995 0.0
C661 C 0.02482 1.00436 0.47448 0.0
C662 C 0.03067 0.99806 0.44176 0.0
C663 C 0.0186 0.99918 0.45538 0.0
H664 H 0.09695 0.01527 0.51381 0.0
H665 H 0.00448 0.99615 0.4512 0.0
H666 H 0.05742 0.99529 0.4194 0.0
H667 H 0.11968 0.01006 0.49221 0.0
H668 H 0.01518 1.00517 0.48466 0.0
H669 H 0.09546 0.08367 0.59455 0.0
H670 H 0.02582 0.99401 0.42698 0.0
H671 H 1.00223 0.06272 0.53304 0.0
H672 H 0.08441 0.07428 0.56118 0.0
H673 H 0.9796 0.06748 0.55496 0.0
H674 H 0.08884 0.99889 0.43059 0.0
H675 H 0.07437 0.08561 0.61905 0.0
H676 H 0.04283 0.08356 0.62706 0.0
H677 H 0.11212 1.00405 0.45773 0.0
H678 H 0.01122 0.0793 0.61626 0.0
N679 N 0.05699 0.0701 0.56626 0.0
C680 C 0.07488 0.07497 0.5715 0.0
C681 C 0.06938 0.08134 0.60433 0.0
C682 C 0.05116 0.07748 0.59889 0.0
C683 C 0.0813 0.08035 0.59054 0.0
C684 C 0.04537 0.07203 0.57951 0.0
H685 H 0.98756 0.07364 0.58938 0.0
N686 N 0.02308 0.06572 0.55468 0.0
C687 C 0.99309 0.06811 0.56039 0.0
C688 C 0.02775 0.06982 0.5735 0.0
C689 C 0.00606 0.06546 0.54797 0.0
C690 C 0.99762 0.07153 0.57979 0.0
C691 C 0.01519 0.07271 0.58659 0.0
O692 O 0.03582 0.08348 0.52612 0.0
O693 O 0.04491 0.04385 0.50691 0.0
O694 O 0.07365 0.04099 0.50285 0.0
O695 O 0.07315 0.06426 0.529 0.0
O696 O 0.02412 0.05635 0.51207 0.0
O697 O 0.06282 0.08764 0.538 0.0
O698 O 0.06289 0.99596 0.52178 0.0
O699 O 0.05444 0.03516 0.53942 0.0
O700 O 0.02591 0.03769 0.54343 0.0
O701 O 0.02618 0.01485 0.51693 0.0
O702 O 0.07535 0.02294 0.53424 0.0
O703 O 0.03682 0.991 0.50728 0.0
C704 C 0.03047 0.04632 0.49879 0.0
C705 C 0.05032 0.11505 0.54014 0.0
C706 C 0.05216 0.14845 0.53717 0.0
C707 C 0.05231 0.12938 0.52916 0.0
C708 C 0.05004 0.15299 0.55651 0.0
C709 C 0.04808 0.1197 0.55937 0.0
C710 C 0.04795 0.13865 0.56749 0.0
C711 C 0.08083 0.05743 0.51414 0.0
C712 C 0.05095 0.09555 0.53096 0.0
C713 C 0.02068 0.07718 0.60596 0.0
C714 C 0.03866 0.07958 0.61211 0.0
C715 C 0.06896 0.03291 0.54754 0.0
C716 C 0.04979 0.96409 0.50766 0.0
C717 C 0.04767 0.95036 0.51929 0.0
C718 C 0.04922 0.93144 0.51249 0.0
C719 C 0.05277 0.92641 0.49362 0.0
C720 C 0.05345 0.95899 0.48892 0.0
C721 C 0.0549 0.94016 0.48195 0.0
C722 C 0.0186 0.02141 0.53194 0.0
C723 C 0.04818 0.98355 0.51583 0.0
H724 H 0.0543 0.12569 0.51436 0.0
H725 H 0.0498 0.16755 0.56307 0.0
H726 H 0.04654 0.10879 0.56804 0.0
H727 H 0.04625 0.14224 0.58235 0.0
H728 H 0.04456 0.95442 0.53368 0.0
H729 H 0.05412 0.91197 0.48797 0.0
H730 H 0.05516 0.96948 0.47977 0.0
H731 H 0.05773 0.9362 0.46747 0.0
Tb732 Tb 0.31991 0.80678 0.77023 0.0
C733 C 0.2705 0.74728 0.80349 0.0
C734 C 0.2789 0.71743 0.79123 0.0
C735 C 0.26572 0.72114 0.82106 0.0
C736 C 0.27792 0.73642 0.78985 0.0
C737 C 0.26395 0.73966 0.81908 0.0
C738 C 0.27319 0.71004 0.80715 0.0
C739 C 0.25298 0.76846 0.82864 0.0
N740 N 0.26892 0.76503 0.80095 0.0
C741 C 0.25967 0.77538 0.81294 0.0
C742 C 0.25534 0.75063 0.83188 0.0
Tb743 Tb 0.28036 0.77514 0.77474 0.0
N744 N 0.28295 0.74398 0.77456 0.0
C745 C 0.28771 0.73258 0.75938 0.0
C746 C 0.28491 0.7062 0.77624 0.0
C747 C 0.28903 0.71372 0.7601 0.0
H748 H 0.25768 0.78918 0.81077 0.0
H749 H 0.2933 0.70502 0.74822 0.0
H750 H 0.27401 0.69556 0.80855 0.0
H751 H 0.24603 0.77691 0.83825 0.0
H752 H 0.29099 0.73802 0.74674 0.0
H753 H 0.30692 0.87694 0.79642 0.0
H754 H 0.2859 0.69157 0.77675 0.0
H755 H 0.34312 0.79292 0.7346 0.0
H756 H 0.30943 0.84403 0.79811 0.0
H757 H 0.35483 0.80511 0.70711 0.0
H758 H 0.26091 0.71509 0.83302 0.0
H759 H 0.31406 0.89017 0.76771 0.0
H760 H 0.32588 0.88603 0.73587 0.0
H761 H 0.2501 0.74529 0.84402 0.0
H762 H 0.33919 0.86651 0.71159 0.0
N763 N 0.31726 0.8379 0.77022 0.0
C764 C 0.31257 0.84938 0.78539 0.0
C765 C 0.31511 0.87557 0.76831 0.0
C766 C 0.32111 0.86429 0.75335 0.0
C767 C 0.31114 0.86819 0.78455 0.0
C768 C 0.32219 0.84536 0.75485 0.0
H769 H 0.35041 0.83649 0.70096 0.0
N770 N 0.33152 0.8169 0.74408 0.0
C771 C 0.34771 0.8135 0.71657 0.0
C772 C 0.32974 0.83452 0.74134 0.0
C773 C 0.34097 0.80663 0.73228 0.0
C774 C 0.34514 0.83119 0.71311 0.0
C775 C 0.33631 0.84209 0.72573 0.0
O776 O 0.3464 0.80396 0.77411 0.0
O777 O 0.30935 0.77793 0.77661 0.0
O778 O 0.29433 0.78263 0.80278 0.0
O779 O 0.31157 0.81156 0.79892 0.0
O780 O 0.32906 0.78024 0.75943 0.0
O781 O 0.33686 0.82584 0.79216 0.0
O782 O 0.25401 0.77841 0.77096 0.0
O783 O 0.29092 0.80394 0.76831 0.0
O784 O 0.30608 0.79916 0.74213 0.0
O785 O 0.28859 0.77036 0.74598 0.0
O786 O 0.27134 0.80174 0.78567 0.0
O787 O 0.26301 0.75589 0.75323 0.0
C788 C 0.31951 0.76796 0.76763 0.0
C789 C 0.36718 0.83255 0.78608 0.0
C790 C 0.39961 0.84005 0.78906 0.0
C791 C 0.38337 0.82758 0.79033 0.0
C792 C 0.39942 0.85767 0.78343 0.0
C793 C 0.3672 0.85017 0.78045 0.0
C794 C 0.38328 0.86264 0.77911 0.0
C795 C 0.30433 0.79969 0.80977 0.0
C796 C 0.35063 0.81888 0.78756 0.0
C797 C 0.33438 0.86051 0.72357 0.0
C798 C 0.32678 0.8716 0.73738 0.0
C799 C 0.28085 0.81397 0.77737 0.0
C800 C 0.23284 0.74987 0.76018 0.0
C801 C 0.21676 0.75584 0.75815 0.0
C802 C 0.20054 0.74377 0.76027 0.0
C803 C 0.20062 0.72553 0.76447 0.0
C804 C 0.23271 0.73165 0.76448 0.0
C805 C 0.21664 0.71957 0.76663 0.0
C806 C 0.29608 0.7821 0.73514 0.0
C807 C 0.24941 0.76315 0.75793 0.0
H808 H 0.38327 0.81407 0.79494 0.0
H809 H 0.41173 0.86752 0.78222 0.0
H810 H 0.35488 0.85435 0.77717 0.0
H811 H 0.38324 0.87621 0.77474 0.0
H812 H 0.21689 0.76984 0.75463 0.0
H813 H 0.18833 0.71596 0.76626 0.0
H814 H 0.24493 0.72671 0.76613 0.0
H815 H 0.21659 0.70553 0.76995 0.0
Tb816 Tb 0.55952 0.04482 0.03128 0.0
C817 C 0.50463 0.07019 0.9815 0.0
C818 C 0.48046 0.04259 0.97157 0.0
C819 C 0.47471 0.07475 0.97496 0.0
C820 C 0.49854 0.05058 0.97745 0.0
C821 C 0.49289 0.08257 0.97999 0.0
C822 C 0.4685 0.05478 0.97074 0.0
C823 C 0.51819 0.10928 0.98701 0.0
N824 N 0.52228 0.0771 0.98613 0.0
C825 C 0.5293 0.09638 0.98818 0.0
C826 C 0.49987 0.10236 0.9831 0.0
Tb827 Tb 0.53939 0.05494 0.98822 0.0
N828 N 0.51055 0.03936 0.97836 0.0
C829 C 0.50546 0.01992 0.97226 0.0
C830 C 0.47505 0.02265 0.96624 0.0
C831 C 0.48766 0.01129 0.96636 0.0
H832 H 0.54342 0.10187 0.99131 0.0
H833 H 0.48367 0.99586 0.96199 0.0
H834 H 0.45453 0.04891 0.96645 0.0
H835 H 0.52376 0.12454 0.98911 0.0
H836 H 0.51495 0.01085 0.97232 0.0
H837 H 0.61547 0.10434 0.05476 0.0
H838 H 0.46127 0.01592 0.96168 0.0
H839 H 0.55556 0.99834 0.03106 0.0
H840 H 0.58408 0.08908 0.04533 0.0
H841 H 0.57523 0.97593 0.03432 0.0
H842 H 0.46544 0.08401 0.97386 0.0
H843 H 0.63795 0.08442 0.05548 0.0
H844 H 0.64476 0.05149 0.05176 0.0
H845 H 0.4913 0.11238 0.98211 0.0
H846 H 0.63378 0.0164 0.04617 0.0
N847 N 0.58851 0.06056 0.04016 0.0
C848 C 0.59362 0.08008 0.04556 0.0
C849 C 0.62414 0.07759 0.05126 0.0
C850 C 0.61873 0.05761 0.04669 0.0
C851 C 0.61148 0.08886 0.05094 0.0
C852 C 0.60059 0.04947 0.0413 0.0
H853 H 0.60779 0.98807 0.04 0.0
N854 N 0.57676 0.02296 0.03435 0.0
C855 C 0.58084 0.99108 0.03538 0.0
C856 C 0.59448 0.0299 0.03826 0.0
C857 C 0.56972 1.00386 0.03359 0.0
C858 C 0.59921 0.99797 0.03853 0.0
C859 C 0.60624 0.01766 0.04033 0.0
O860 O 0.54758 0.03193 0.05276 0.0
O861 O 0.536 0.04283 0.01322 0.0
O862 O 0.53022 0.07166 0.0122 0.0
O863 O 0.55359 0.0738 0.03482 0.0
O864 O 0.53606 0.021 0.02754 0.0
O865 O 0.56006 0.06206 0.05788 0.0
O866 O 0.55177 0.06882 0.96763 0.0
O867 O 0.56299 0.05636 0.00596 0.0
O868 O 0.5675 0.02652 0.00753 0.0
O869 O 0.54521 0.02594 0.98402 0.0
O870 O 0.56306 0.07865 0.99238 0.0
O871 O 0.53865 0.03879 0.96103 0.0
C872 C 0.52663 0.02738 0.01598 0.0
C873 C 0.56028 0.04594 0.08353 0.0
C874 C 0.55684 0.04379 0.11645 0.0
C875 C 0.54964 0.04509 0.09858 0.0
C876 C 0.57492 0.0433 0.11906 0.0
C877 C 0.57828 0.04536 0.0863 0.0
C878 C 0.58554 0.04402 0.10401 0.0
C879 C 0.53953 0.07965 0.02851 0.0
C880 C 0.55227 0.0477 0.06524 0.0
C881 C 0.62448 0.02556 0.0447 0.0
C882 C 0.63073 0.04552 0.04789 0.0
C883 C 0.57263 0.0717 1.00331 0.0
C884 C 0.53997 0.05644 0.93632 0.0
C885 C 0.5513 0.05719 0.92191 0.0
C886 C 0.54545 0.06021 0.90416 0.0
C887 C 0.52801 0.06275 0.90112 0.0
C888 C 0.52256 0.05885 0.93313 0.0
C889 C 0.51663 0.06203 0.91557 0.0
C890 C 0.55855 0.01922 0.99084 0.0
C891 C 0.54703 0.05353 0.95455 0.0
H892 H 0.53579 0.04581 0.09642 0.0
H893 H 0.58078 0.04219 0.13266 0.0
H894 H 0.58671 0.04605 0.0749 0.0
H895 H 0.59943 0.04358 0.10608 0.0
H896 H 0.56486 0.05567 0.92465 0.0
H897 H 0.52311 0.06504 0.88756 0.0
H898 H 0.51362 0.05834 0.94413 0.0
H899 H 0.50319 0.06391 0.91313 0.0
Tb900 Tb 0.31336 0.30406 0.28484 0.0
C901 C 0.24412 0.26741 0.23811 0.0
C902 C 0.22184 0.27363 0.25923 0.0
C903 C 0.21556 0.27164 0.22561 0.0
C904 C 0.23918 0.27094 0.25622 0.0
C905 C 0.23211 0.26699 0.22254 0.0
C906 C 0.21039 0.27487 0.24395 0.0
C907 C 0.25211 0.25376 0.20222 0.0
N908 N 0.25993 0.26227 0.2357 0.0
C909 C 0.26341 0.25412 0.2181 0.0
C910 C 0.23661 0.26072 0.2044 0.0
Tb911 Tb 0.27813 0.26485 0.26266 0.0
N912 N 0.25055 0.26937 0.27061 0.0
C913 C 0.24447 0.26814 0.28792 0.0
C914 C 0.21609 0.27364 0.27722 0.0
C915 C 0.22727 0.27026 0.29144 0.0
H916 H 0.2751 0.24827 0.21609 0.0
H917 H 0.22263 0.26912 0.30512 0.0
H918 H 0.19718 0.27733 0.24606 0.0
H919 H 0.25531 0.24798 0.18831 0.0
H920 H 0.25255 0.26546 0.2993 0.0
H921 H 0.33919 0.3685 0.25816 0.0
H922 H 0.20279 0.27535 0.28006 0.0
H923 H 0.33305 0.26674 0.29168 0.0
H924 H 0.31672 0.34564 0.27072 0.0
H925 H 0.3628 0.26087 0.29273 0.0
H926 H 0.20628 0.27169 0.21384 0.0
H927 H 0.36926 0.3622 0.25434 0.0
H928 H 0.39106 0.34156 0.25888 0.0
H929 H 0.22776 0.26018 0.19209 0.0
H930 H 0.39771 0.31307 0.26957 0.0
N931 N 0.33331 0.32563 0.27237 0.0
C932 C 0.32961 0.3424 0.26848 0.0
C933 C 0.35931 0.35192 0.25949 0.0
C934 C 0.3634 0.33544 0.26468 0.0
C935 C 0.34237 0.35551 0.26159 0.0
C936 C 0.34995 0.32245 0.27123 0.0
H937 H 0.38751 0.28356 0.28314 0.0
N938 N 0.34012 0.29411 0.28299 0.0
C939 C 0.36044 0.27385 0.28848 0.0
C940 C 0.35359 0.30638 0.2771 0.0
C941 C 0.34339 0.27766 0.28824 0.0
C942 C 0.37432 0.28659 0.2829 0.0
C943 C 0.37094 0.30286 0.2767 0.0
O944 O 0.30973 0.30789 0.31381 0.0
O945 O 0.28509 0.29175 0.28234 0.0
O946 O 0.28117 0.28542 0.24309 0.0
O947 O 0.3064 0.30927 0.25627 0.0
O948 O 0.29266 0.32022 0.2816 0.0
O949 O 0.32682 0.32958 0.30309 0.0
O950 O 0.28752 0.24012 0.26609 0.0
O951 O 0.30641 0.27624 0.26755 0.0
O952 O 0.31086 0.28085 0.30114 0.0
O953 O 0.28138 0.2658 0.29325 0.0
O954 O 0.29706 0.25928 0.24177 0.0
O955 O 0.25991 0.23831 0.25904 0.0
C956 C 0.27906 0.30654 0.2813 0.0
C957 C 0.31035 0.33933 0.32829 0.0
C958 C 0.29262 0.36375 0.32911 0.0
C959 C 0.30262 0.35176 0.31925 0.0
C960 C 0.29082 0.3635 0.34833 0.0
C961 C 0.30845 0.3393 0.34746 0.0
C962 C 0.2988 0.35142 0.35744 0.0
C963 C 0.29346 0.30112 0.24261 0.0
C964 C 0.31907 0.32517 0.31766 0.0
C965 C 0.38436 0.31562 0.27005 0.0
C966 C 0.38057 0.3318 0.26392 0.0
C967 C 0.31106 0.2696 0.25168 0.0
C968 C 0.27206 0.21192 0.24597 0.0
C969 C 0.28399 0.20012 0.2485 0.0
C970 C 0.28456 0.1841 0.23469 0.0
C971 C 0.27283 0.17985 0.21825 0.0
C972 C 0.26038 0.20745 0.22947 0.0
C973 C 0.26083 0.1915 0.2157 0.0
C974 C 0.2963 0.26902 0.30431 0.0
C975 C 0.2722 0.22872 0.26077 0.0
H976 H 0.30391 0.3517 0.30441 0.0
H977 H 0.28335 0.37274 0.35634 0.0
H978 H 0.3142 0.32967 0.35462 0.0
H979 H 0.29734 0.35129 0.37223 0.0
H980 H 0.29271 0.20334 0.26143 0.0
H981 H 0.27304 0.16765 0.20733 0.0
H982 H 0.25092 0.2162 0.22718 0.0
H983 H 0.25185 0.18816 0.20299 0.0
Tb984 Tb 0.54421 0.56054 0.03657 0.0
C985 C 0.57205 0.51146 0.97313 0.0
C986 C 0.54885 0.50424 0.94755 0.0
C987 C 0.5795 0.50538 0.9407 0.0
C988 C 0.55443 0.50909 0.967 0.0
C989 C 0.5848 0.50928 0.9601 0.0
C990 C 0.56153 0.50286 0.93442 0.0
C991 C 0.60672 0.51338 0.98638 0.0
N992 N 0.57655 0.51503 0.99198 0.0
C993 C 0.59357 0.51535 0.99873 0.0
C994 C 0.60237 0.51056 0.96698 0.0
Tb995 Tb 0.55416 0.5187 0.01119 0.0
N996 N 0.54262 0.51029 0.98016 0.0
C997 C 0.52477 0.50522 0.97469 0.0
C998 C 0.53066 0.50026 0.94192 0.0
C999 C 0.51856 0.50045 0.95558 0.0
H1000 H 0.59726 0.5176 0.01366 0.0
H1001 H 0.50443 0.49701 0.95142 0.0
H1002 H 0.55753 0.49934 0.91943 0.0
H1003 H 0.62021 0.51408 0.99185 0.0
H1004 H 0.51512 0.50532 0.98492 0.0
H1005 H 0.59358 0.58231 0.09664 0.0
H1006 H 0.52582 0.49653 0.92714 0.0
H1007 H 0.50104 0.56152 0.03378 0.0
H1008 H 0.58308 0.57385 0.0631 0.0
H1009 H 0.47798 0.56515 0.05539 0.0
H1010 H 0.58911 0.50381 0.93045 0.0
H1011 H 0.57204 0.58296 0.12076 0.0
H1012 H 0.54027 0.58027 0.12824 0.0
H1013 H 0.61257 0.50898 0.95744 0.0
H1014 H 0.50875 0.57579 0.11699 0.0
N1015 N 0.55554 0.56902 0.06767 0.0
C1016 C 0.57336 0.57404 0.07325 0.0
C1017 C 0.56728 0.57918 0.10595 0.0
C1018 C 0.54912 0.57524 0.1002 0.0
C1019 C 0.57947 0.57889 0.09239 0.0
C1020 C 0.54365 0.57032 0.08073 0.0
H1021 H 0.48544 0.57047 0.08984 0.0
N1022 N 0.52169 0.5643 0.0556 0.0
C1023 C 0.49146 0.56591 0.06096 0.0
C1024 C 0.52607 0.56796 0.07447 0.0
C1025 C 0.50468 0.56388 0.04872 0.0
C1026 C 0.4957 0.56885 0.08039 0.0
C1027 C 0.51324 0.57019 0.08739 0.0
O1028 O 0.53477 0.58298 0.02727 0.0
O1029 O 0.54443 0.54436 0.00781 0.0
O1030 O 0.57304 0.54249 1.00374 0.0
O1031 O 0.57234 0.56472 0.03063 0.0
O1032 O 0.52327 0.55611 0.01317 0.0
O1033 O 0.56125 0.58784 0.04082 0.0
O1034 O 0.56375 0.49645 0.0207 0.0
O1035 O 0.55396 0.53487 0.03995 0.0
O1036 O 0.52536 0.53676 0.0441 0.0
O1037 O 0.52606 0.51441 0.01731 0.0
O1038 O 0.57516 0.52321 0.03455 0.0
O1039 O 0.53744 0.4912 0.00662 0.0
C1040 C 0.52991 0.54665 0.99971 0.0
C1041 C 0.54765 0.61451 0.04267 0.0
C1042 C 0.54762 0.64764 0.04002 0.0
C1043 C 0.54925 0.62905 0.03199 0.0
C1044 C 0.54451 0.65153 0.05914 0.0
C1045 C 0.54443 0.61847 0.06168 0.0
C1046 C 0.54289 0.63697 0.06987 0.0
C1047 C 0.58012 0.5586 0.01558 0.0
C1048 C 0.54943 0.59548 0.03328 0.0
C1049 C 0.51842 0.57417 0.10683 0.0
C1050 C 0.53636 0.5767 0.11323 0.0
C1051 C 0.56851 0.53263 0.04804 0.0
C1052 C 0.55164 0.46495 0.0048 0.0
C1053 C 0.5512 0.45057 0.01555 0.0
C1054 C 0.55331 0.43221 0.00739 0.0
C1055 C 0.55578 0.42838 0.98809 0.0
C1056 C 0.55425 0.46107 0.9856 0.0
C1057 C 0.55631 0.4428 0.97731 0.0
C1058 C 0.51831 0.52057 0.03237 0.0
C1059 C 0.54932 0.48373 0.01431 0.0
H1060 H 0.55205 0.62588 0.01737 0.0
H1061 H 0.54315 0.66571 0.06573 0.0
H1062 H 0.54315 0.60737 0.07014 0.0
H1063 H 0.54041 0.64003 0.08456 0.0
H1064 H 0.54889 0.45366 0.03033 0.0
H1065 H 0.55746 0.41435 0.98142 0.0
H1066 H 0.55463 0.47204 0.97709 0.0
H1067 H 0.5583 0.43979 0.96248 0.0
Tb1068 Tb 0.81811 0.30331 0.26797 0.0
C1069 C 0.77183 0.24795 0.30869 0.0
C1070 C 0.77919 0.21729 0.2975 0.0
C1071 C 0.76848 0.22365 0.32847 0.0
C1072 C 0.7781 0.23596 0.295 0.0
C1073 C 0.76662 0.24184 0.32546 0.0
C1074 C 0.77476 0.21138 0.3145 0.0
C1075 C 0.75678 0.27145 0.33432 0.0
N1076 N 0.77012 0.26534 0.30516 0.0
C1077 C 0.76211 0.27684 0.31746 0.0
C1078 C 0.75924 0.25398 0.33846 0.0
Tb1079 Tb 0.77941 0.27296 0.27711 0.0
N1080 N 0.78195 0.24211 0.2787 0.0
C1081 C 0.78561 0.22958 0.26373 0.0
C1082 C 0.78404 0.20489 0.28261 0.0
C1083 C 0.78697 0.21097 0.26553 0.0
H1084 H 0.76006 0.29043 0.31467 0.0
H1085 H 0.79036 0.20137 0.25375 0.0
H1086 H 0.77568 0.19717 0.31675 0.0
H1087 H 0.7508 0.28081 0.34413 0.0
H1088 H 0.788 0.23391 0.25041 0.0
H1089 H 0.80623 0.37461 0.29078 0.0
H1090 H 0.78506 0.19046 0.28396 0.0
H1091 H 0.84021 0.28755 0.23213 0.0
H1092 H 0.80952 0.3424 0.29453 0.0
H1093 H 0.84979 0.29727 0.20277 0.0
H1094 H 0.76469 0.21875 0.34132 0.0
H1095 H 0.81052 0.38503 0.26019 0.0
H1096 H 0.81975 0.37817 0.22732 0.0
H1097 H 0.75507 0.24982 0.35151 0.0
H1098 H 0.83185 0.35708 0.20329 0.0
N1099 N 0.81491 0.3339 0.26605 0.0
C1100 C 0.81141 0.34654 0.28103 0.0
C1101 C 0.81189 0.37074 0.26171 0.0
C1102 C 0.81681 0.35834 0.24685 0.0
C1103 C 0.80955 0.36495 0.27901 0.0
C1104 C 0.81839 0.33988 0.24959 0.0
H1105 H 0.84356 0.32709 0.19423 0.0
N1106 N 0.82786 0.31124 0.24022 0.0
C1107 C 0.84277 0.30604 0.21198 0.0
C1108 C 0.82524 0.32815 0.23619 0.0
C1109 C 0.83722 0.30054 0.22873 0.0
C1110 C 0.83918 0.32284 0.20717 0.0
C1111 C 0.83063 0.33434 0.21951 0.0
O1112 O 0.84436 0.29961 0.27159 0.0
O1113 O 0.80824 0.2754 0.27665 0.0
O1114 O 0.79565 0.28185 0.30384 0.0
O1115 O 0.81177 0.31018 0.29733 0.0
O1116 O 0.82658 0.27623 0.25779 0.0
O1117 O 0.8367 0.32434 0.28689 0.0
O1118 O 0.75293 0.27618 0.27508 0.0
O1119 O 0.78921 0.30081 0.26827 0.0
O1120 O 0.80299 0.29315 0.24057 0.0
O1121 O 0.78545 0.2658 0.24775 0.0
O1122 O 0.77106 0.30012 0.28731 0.0
O1123 O 0.76087 0.25287 0.25735 0.0
C1124 C 0.8177 0.26476 0.26731 0.0
C1125 C 0.86627 0.32796 0.27828 0.0
C1126 C 0.89856 0.33361 0.27822 0.0
C1127 C 0.88247 0.32324 0.28298 0.0
C1128 C 0.89815 0.34895 0.26869 0.0
C1129 C 0.86612 0.34337 0.26888 0.0
C1130 C 0.88202 0.35378 0.2641 0.0
C1131 C 0.80569 0.29916 0.30941 0.0
C1132 C 0.8498 0.31605 0.28278 0.0
C1133 C 0.82799 0.35216 0.21611 0.0
C1134 C 0.82108 0.36415 0.22978 0.0
C1135 C 0.77978 0.31148 0.2776 0.0
C1136 C 0.73127 0.2477 0.26608 0.0
C1137 C 0.7151 0.2532 0.26315 0.0
C1138 C 0.69898 0.24142 0.26598 0.0
C1139 C 0.69925 0.22396 0.27191 0.0
C1140 C 0.73137 0.23029 0.27213 0.0
C1141 C 0.71539 0.21852 0.27506 0.0
C1142 C 0.79248 0.27601 0.23543 0.0
C1143 C 0.74766 0.26053 0.26264 0.0
H1144 H 0.88248 0.31152 0.29053 0.0
H1145 H 0.91027 0.3571 0.26463 0.0
H1146 H 0.8538 0.34736 0.26523 0.0
H1147 H 0.88183 0.36559 0.25676 0.0
H1148 H 0.71505 0.26656 0.25826 0.0
H1149 H 0.68701 0.21461 0.27421 0.0
H1150 H 0.74369 0.22574 0.27448 0.0
H1151 H 0.71551 0.20509 0.2797 0.0
Tb1152 Tb 0.05123 0.54074 0.52882 0.0
C1153 C 0.9999 0.57437 0.48253 0.0
C1154 C 0.97604 0.5477 0.46854 0.0
C1155 C 0.97042 0.57992 0.47558 0.0
C1156 C 0.99385 0.55502 0.47594 0.0
C1157 C 0.98839 0.58716 0.48212 0.0
C1158 C 0.96425 0.5602 0.46877 0.0
C1159 C 0.01361 0.61334 0.49306 0.0
N1160 N 0.01738 0.58074 0.48843 0.0
C1161 C 0.02451 0.60005 0.49303 0.0
C1162 C 0.99543 0.60686 0.48778 0.0
Tb1163 Tb 0.03418 0.55794 0.48828 0.0
N1164 N 0.00572 0.54351 0.47586 0.0
C1165 C 1.00079 0.52459 0.46743 0.0
C1166 C 0.97076 0.52818 0.46067 0.0
C1167 C 0.98324 0.51661 0.45996 0.0
H1168 H 0.03853 0.60523 0.49724 0.0
H1169 H 0.97937 0.50153 0.45366 0.0
H1170 H 0.95046 0.55483 0.46332 0.0
H1171 H 0.01925 0.62856 0.49715 0.0
H1172 H 0.01021 0.5154 0.46678 0.0
H1173 H 0.10472 0.59613 0.56761 0.0
H1174 H 0.95721 0.52202 0.45475 0.0
H1175 H 0.04757 0.49357 0.51734 0.0
H1176 H 0.07442 0.58269 0.55263 0.0
H1177 H 0.06722 0.47053 0.51625 0.0
H1178 H 0.96131 0.58948 0.47528 0.0
H1179 H 0.12708 0.57589 0.56614 0.0
H1180 H 0.13457 0.54378 0.55541 0.0
H1181 H 0.98703 0.61718 0.48771 0.0
H1182 H 0.12443 0.50957 0.54111 0.0
N1183 N 0.07942 0.55505 0.54219 0.0
C1184 C 0.08395 0.57361 0.55174 0.0
C1185 C 0.1138 0.56994 0.55933 0.0
C1186 C 0.10898 0.55082 0.55005 0.0
C1187 C 0.10118 0.58135 0.5603 0.0
C1188 C 0.09142 0.54367 0.54177 0.0
H1189 H 0.09925 0.48204 0.52664 0.0
N1190 N 0.06835 0.51811 0.52757 0.0
C1191 C 0.07261 0.48569 0.52124 0.0
C1192 C 0.08573 0.52451 0.53398 0.0
C1193 C 0.0615 0.49882 0.52194 0.0
C1194 C 0.0907 0.49225 0.52704 0.0
C1195 C 0.09741 0.51184 0.53388 0.0
O1196 O 0.03869 0.52282 0.5464 0.0
O1197 O 0.02878 0.54156 0.51031 0.0
O1198 O 0.02386 0.57161 0.51325 0.0
O1199 O 0.04498 0.56939 0.53675 0.0
O1200 O 0.02807 0.51682 0.52008 0.0
O1201 O 0.04887 0.55309 0.55682 0.0
O1202 O 0.04758 0.5749 0.47039 0.0
O1203 O 0.05634 0.55744 0.50718 0.0
O1204 O 0.06239 0.52859 0.50375 0.0
O1205 O 0.04035 0.52919 0.48067 0.0
O1206 O 0.05772 0.58172 0.49645 0.0
O1207 O 0.0355 0.54498 0.46022 0.0
C1208 C 0.0192 0.52523 0.50995 0.0
C1209 C 0.0492 0.53242 0.57858 0.0
C1210 C 0.04764 0.53218 0.61214 0.0
C1211 C 0.04089 0.5362 0.59516 0.0
C1212 C 0.06299 0.52452 0.61232 0.0
C1213 C 0.06442 0.52466 0.57899 0.0
C1214 C 0.07132 0.52082 0.59581 0.0
C1215 C 0.03179 0.57676 0.53061 0.0
C1216 C 0.04167 0.53665 0.56109 0.0
C1217 C 0.11519 0.51903 0.54118 0.0
C1218 C 0.12096 0.5385 0.54933 0.0
C1219 C 0.06615 0.57355 0.50727 0.0
C1220 C 0.03731 0.56569 0.43822 0.0
C1221 C 0.04799 0.56523 0.42318 0.0
C1222 C 0.04228 0.56959 0.40596 0.0
C1223 C 0.02558 0.57435 0.40398 0.0
C1224 C 0.02073 0.57056 0.4361 0.0
C1225 C 0.0149 0.57486 0.41902 0.0
C1226 C 0.05402 0.52252 0.48668 0.0
C1227 C 0.04387 0.56095 0.45585 0.0
H1228 H 0.02893 0.54188 0.59471 0.0
H1229 H 0.06859 0.52145 0.62523 0.0
H1230 H 0.07091 0.52143 0.56637 0.0
H1231 H 0.08311 0.51488 0.59604 0.0
H1232 H 0.06068 0.56115 0.42483 0.0
H1233 H 0.02086 0.57784 0.3909 0.0
H1234 H 0.01231 0.57102 0.44753 0.0
H1235 H 1.00208 0.57861 0.41744 0.0
Tb1236 Tb 0.7775 0.79435 0.27007 0.0
C1237 C 0.83373 0.76181 0.30883 0.0
C1238 C 0.8439 0.78524 0.3373 0.0
C1239 C 0.84446 0.75173 0.3369 0.0
C1240 C 0.8365 0.78038 0.31839 0.0
C1241 C 0.83829 0.74733 0.3177 0.0
C1242 C 0.84725 0.7707 0.34672 0.0
C1243 C 0.83279 0.72613 0.28738 0.0
N1244 N 0.82821 0.75837 0.29025 0.0
C1245 C 0.82848 0.74103 0.27925 0.0
C1246 C 0.83737 0.72917 0.30677 0.0
Tb1247 Tb 0.82071 0.78332 0.27808 0.0
N1248 N 0.83349 0.79396 0.30857 0.0
C1249 C 0.8394 0.81298 0.3164 0.0
C1250 C 0.84855 0.80462 0.34582 0.0
C1251 C 0.84666 0.81857 0.33517 0.0
H1252 H 0.82481 0.73844 0.26427 0.0
H1253 H 0.85071 0.83365 0.34143 0.0
H1254 H 0.85269 0.7741 0.36132 0.0
H1255 H 0.8325 0.7123 0.27869 0.0
H1256 H 0.83801 0.82407 0.30857 0.0
H1257 H 0.74786 0.7445 0.20628 0.0
H1258 H 0.85422 0.80898 0.36033 0.0
H1259 H 0.77311 0.83907 0.28434 0.0
H1260 H 0.76042 0.75379 0.2392 0.0
H1261 H 0.76528 0.86531 0.27023 0.0
H1262 H 0.84781 0.74077 0.34407 0.0
H1263 H 0.74426 0.76938 0.18769 0.0
H1264 H 0.74557 0.80431 0.18709 0.0
H1265 H 0.84079 0.71766 0.31302 0.0
H1266 H 0.75022 0.83749 0.20467 0.0
N1267 N 0.76479 0.78395 0.23952 0.0
C1268 C 0.75899 0.76496 0.2315 0.0
C1269 C 0.74987 0.77361 0.20222 0.0
C1270 C 0.75439 0.79294 0.21095 0.0
C1271 C 0.75181 0.75955 0.2127 0.0
C1272 C 0.76173 0.79763 0.22987 0.0
H1273 H 0.75706 0.8603 0.23591 0.0
N1274 N 0.76989 0.81941 0.2582 0.0
C1275 C 0.7651 0.85158 0.26141 0.0
C1276 C 0.76437 0.81613 0.23962 0.0
C1277 C 0.7695 0.83662 0.26936 0.0
C1278 C 0.76055 0.84873 0.24203 0.0
C1279 C 0.75974 0.83068 0.23092 0.0
O1280 O 0.76066 0.8029 0.29056 0.0
O1281 O 0.79783 0.79127 0.29056 0.0
O1282 O 0.80105 0.75857 0.2847 0.0
O1283 O 0.77474 0.76287 0.27018 0.0
O1284 O 0.78602 0.8143 0.29657 0.0
O1285 O 0.7524 0.77644 0.27105 0.0
O1286 O 0.83803 0.77429 0.25837 0.0
O1287 O 0.80037 0.78631 0.2576 0.0
O1288 O 0.79704 0.81913 0.26337 0.0
O1289 O 0.82343 0.81478 0.27774 0.0
O1290 O 0.81236 0.76346 0.25148 0.0
O1291 O 0.84537 0.80173 0.27647 0.0
C1292 C 0.79741 0.80577 0.30299 0.0
C1293 C 0.72973 0.79205 0.28241 0.0
C1294 C 0.70061 0.79373 0.29424 0.0
C1295 C 0.71758 0.78923 0.29625 0.0
C1296 C 0.69605 0.80079 0.2781 0.0
C1297 C 0.72463 0.79899 0.26648 0.0
C1298 C 0.70792 0.80331 0.26436 0.0
C1299 C 0.78401 0.75201 0.27803 0.0
C1300 C 0.74778 0.7881 0.28474 0.0
C1301 C 0.75362 0.82646 0.21171 0.0
C1302 C 0.75097 0.80758 0.2017 0.0
C1303 C 0.80088 0.7719 0.2451 0.0
C1304 C 0.86881 0.78668 0.26677 0.0
C1305 C 0.88164 0.79092 0.2539 0.0
C1306 C 0.89924 0.78844 0.25727 0.0
C1307 C 0.90348 0.78128 0.27348 0.0
C1308 C 0.87366 0.77982 0.28284 0.0
C1309 C 0.89082 0.77705 0.28609 0.0
C1310 C 0.81412 0.82564 0.26992 0.0
C1311 C 0.8505 0.78963 0.26359 0.0
H1312 H 0.72143 0.78389 0.30862 0.0
H1313 H 0.68311 0.80415 0.27594 0.0
H1314 H 0.73355 0.80106 0.25563 0.0
H1315 H 0.70413 0.80866 0.25199 0.0
H1316 H 0.87802 0.79643 0.24156 0.0
H1317 H 0.91663 0.77874 0.27638 0.0
H1318 H 0.86419 0.77664 0.29293 0.0
H1319 H 0.89436 0.77161 0.29849 0.0
Tb1320 Tb 0.80978 0.28491 0.75934 0.0
C1321 C 0.77001 0.33566 0.8113 0.0
C1322 C 0.7919 0.36362 0.82666 0.0
C1323 C 0.76107 0.36585 0.82151 0.0
C1324 C 0.78738 0.3442 0.81761 0.0
C1325 C 0.75653 0.3462 0.81357 0.0
C1326 C 0.77875 0.37455 0.82809 0.0
C1327 C 0.73499 0.31668 0.80208 0.0
N1328 N 0.76619 0.31658 0.80419 0.0
C1329 C 0.74884 0.30683 0.80028 0.0
C1330 C 0.73886 0.33651 0.8085 0.0
Tb1331 Tb 0.78973 0.30158 0.80157 0.0
N1332 N 0.79959 0.33305 0.81619 0.0
C1333 C 0.81638 0.34019 0.82489 0.0
C1334 C 0.8093 0.37121 0.83472 0.0
C1335 C 0.8215 0.35933 0.83409 0.0
H1336 H 0.74564 0.29152 0.79521 0.0
H1337 H 0.83489 0.36487 0.84071 0.0
H1338 H 0.78201 0.38956 0.83479 0.0
H1339 H 0.72134 0.30896 0.79849 0.0
H1340 H 0.82607 0.33134 0.82455 0.0
H1341 H 0.76252 0.2233 0.71984 0.0
H1342 H 0.81328 0.38602 0.84193 0.0
H1343 H 0.85365 0.29274 0.76683 0.0
H1344 H 0.77241 0.25648 0.73662 0.0
H1345 H 0.87702 0.27397 0.76346 0.0
H1346 H 0.75095 0.37427 0.82322 0.0
H1347 H 0.78338 0.20139 0.71714 0.0
H1348 H 0.81418 0.19631 0.72398 0.0
H1349 H 0.72811 0.34409 0.81 0.0
H1350 H 0.84539 0.21005 0.73614 0.0
N1351 N 0.79878 0.25376 0.7442 0.0
C1352 C 0.78181 0.2473 0.73577 0.0
C1353 C 0.78783 0.21599 0.72477 0.0
C1354 C 0.80534 0.2228 0.73275 0.0
C1355 C 0.77606 0.22835 0.72617 0.0
C1356 C 0.8105 0.24204 0.74227 0.0
H1357 H 0.869 0.23908 0.7507 0.0
N1358 N 0.83242 0.2686 0.75679 0.0
C1359 C 0.86325 0.26693 0.75941 0.0
C1360 C 0.82794 0.2497 0.74899 0.0
C1361 C 0.84995 0.27752 0.76125 0.0
C1362 C 0.85867 0.24723 0.75226 0.0
C1363 C 0.84087 0.23844 0.74658 0.0
O1364 O 0.8267 0.29894 0.7418 0.0
O1365 O 0.8055 0.30901 0.77921 0.0
O1366 O 0.77602 0.31025 0.77799 0.0
O1367 O 0.78216 0.28845 0.75276 0.0
O1368 O 0.82984 0.31151 0.769 0.0
O1369 O 0.79905 0.28664 0.73256 0.0
O1370 O 0.7739 0.28573 0.81873 0.0
O1371 O 0.79426 0.27771 0.78171 0.0
O1372 O 0.82299 0.27616 0.78316 0.0
O1373 O 0.81762 0.29878 0.80807 0.0
O1374 O 0.77003 0.27454 0.79194 0.0
O1375 O 0.80042 0.30164 0.82892 0.0
C1376 C 0.82033 0.32033 0.77987 0.0
C1377 C 0.81906 0.28669 0.70924 0.0
C1378 C 0.81642 0.28525 0.67527 0.0
C1379 C 0.81231 0.29255 0.6934 0.0
C1380 C 0.82733 0.27179 0.67316 0.0
C1381 C 0.82993 0.27323 0.70696 0.0
C1382 C 0.83397 0.26577 0.68895 0.0
C1383 C 0.77266 0.30087 0.76026 0.0
C1384 C 0.81436 0.29486 0.72782 0.0
C1385 C 0.83569 0.219 0.73798 0.0
C1386 C 0.81794 0.21119 0.73104 0.0
C1387 C 0.77971 0.26601 0.78103 0.0
C1388 C 0.77965 0.29745 0.8514 0.0
C1389 C 0.77966 0.28586 0.86501 0.0
C1390 C 0.77398 0.29136 0.88289 0.0
C1391 C 0.76832 0.30878 0.88699 0.0
C1392 C 0.77388 0.31474 0.85562 0.0
C1393 C 0.76824 0.32035 0.87336 0.0
C1394 C 0.82681 0.286 0.80069 0.0
C1395 C 0.78588 0.29112 0.83305 0.0
H1396 H 0.80418 0.30322 0.69529 0.0
H1397 H 0.83069 0.26593 0.65933 0.0
H1398 H 0.83538 0.26859 0.71899 0.0
H1399 H 0.84236 0.2554 0.68725 0.0
H1400 H 0.7844 0.27264 0.86174 0.0
H1401 H 0.76379 0.31332 0.90061 0.0
H1402 H 0.77378 0.32387 0.84531 0.0
H1403 H 0.7638 0.33371 0.87656 0.0
Tb1404 Tb 0.81485 0.80391 0.78227 0.0
C1405 C 0.73885 0.7648 0.76524 0.0
C1406 C 0.72639 0.73908 0.78121 0.0
C1407 C 0.70777 0.75978 0.77185 0.0
C1408 C 0.74091 0.74972 0.77374 0.0
C1409 C 0.72216 0.76995 0.76406 0.0
C1410 C 0.70989 0.7444 0.78049 0.0
C1411 C 0.7347 0.79392 0.74641 0.0
N1412 N 0.75303 0.77399 0.75755 0.0
C1413 C 0.75091 0.78822 0.74779 0.0
C1414 C 0.72029 0.78487 0.75471 0.0
Tb1415 Tb 0.77921 0.76305 0.76042 0.0
N1416 N 0.75689 0.74473 0.77369 0.0
C1417 C 0.75871 0.7281 0.77955 0.0
C1418 C 0.72868 0.72297 0.78852 0.0
C1419 C 0.74487 0.71731 0.78744 0.0
H1420 H 0.76162 0.79598 0.74145 0.0
H1421 H 0.74667 0.70452 0.7925 0.0
H1422 H 0.69862 0.73649 0.78623 0.0
H1423 H 0.73338 0.80543 0.73901 0.0
H1424 H 0.7711 0.72333 0.77843 0.0
H1425 H 0.84803 0.8589 0.7459 0.0
H1426 H 0.71788 0.71447 0.79441 0.0
H1427 H 0.83316 0.77361 0.80512 0.0
H1428 H 0.82426 0.84311 0.76299 0.0
H1429 H 0.86085 0.76319 0.80705 0.0
H1430 H 0.6949 0.76359 0.77113 0.0
H1431 H 0.87537 0.84628 0.74205 0.0
H1432 H 0.89367 0.82335 0.75011 0.0
H1433 H 0.70774 0.78932 0.75358 0.0
H1434 H 0.89744 0.79791 0.76756 0.0
N1435 N 0.83713 0.82055 0.76739 0.0
C1436 C 0.83594 0.83714 0.76102 0.0
C1437 C 0.86482 0.83909 0.7493 0.0
C1438 C 0.86679 0.82338 0.75745 0.0
C1439 C 0.84945 0.84625 0.75145 0.0
C1440 C 0.85261 0.8145 0.76672 0.0
H1441 H 0.88552 0.77592 0.78927 0.0
N1442 N 0.84088 0.79271 0.78578 0.0
C1443 C 0.85929 0.7736 0.79831 0.0
C1444 C 0.85467 0.80027 0.77649 0.0
C1445 C 0.84332 0.7798 0.79707 0.0
C1446 C 0.87315 0.78074 0.78822 0.0
C1447 C 0.87103 0.79433 0.77722 0.0
O1448 O 0.81839 0.81139 0.81199 0.0
O1449 O 0.78715 0.79041 0.7789 0.0
O1450 O 0.78566 0.78209 0.73992 0.0
O1451 O 0.80902 0.80784 0.75326 0.0
O1452 O 0.79301 0.81934 0.78102 0.0
O1453 O 0.82213 0.83299 0.79489 0.0
O1454 O 0.77511 0.75664 0.73068 0.0
O1455 O 0.80705 0.7764 0.76379 0.0
O1456 O 0.80813 0.78476 0.80265 0.0
O1457 O 0.78399 0.7596 0.78985 0.0
O1458 O 0.80059 0.74758 0.76347 0.0
O1459 O 0.77413 0.73427 0.74674 0.0
C1460 C 0.78015 0.80471 0.78015 0.0
C1461 C 0.80761 0.83958 0.82234 0.0
C1462 C 0.7885 0.86289 0.82427 0.0
C1463 C 0.80165 0.85457 0.81563 0.0
C1464 C 0.78158 0.8564 0.84018 0.0
C1465 C 0.80068 0.83347 0.83839 0.0
C1466 C 0.78776 0.84188 0.84725 0.0
C1467 C 0.79721 0.7982 0.73917 0.0
C1468 C 0.82003 0.8296 0.81175 0.0
C1469 C 0.88488 0.80241 0.76728 0.0
C1470 C 0.88272 0.81687 0.75733 0.0
C1471 C 0.81363 0.76189 0.76379 0.0
C1472 C 0.78798 0.73052 0.71837 0.0
C1473 C 0.79787 0.71835 0.72514 0.0
C1474 C 0.8103 0.71074 0.71438 0.0
C1475 C 0.81301 0.71578 0.69665 0.0
C1476 C 0.79069 0.73511 0.70051 0.0
C1477 C 0.80324 0.72788 0.68981 0.0
C1478 C 0.79621 0.769 0.80372 0.0
C1479 C 0.77513 0.73859 0.73009 0.0
H1480 H 0.80669 0.85927 0.80311 0.0
H1481 H 0.77148 0.86262 0.8472 0.0
H1482 H 0.80503 0.822 0.84391 0.0
H1483 H 0.78238 0.83698 0.85951 0.0
H1484 H 0.79605 0.71492 0.739 0.0
H1485 H 0.82235 0.71006 0.68789 0.0
H1486 H 0.78315 0.74428 0.69485 0.0
H1487 H 0.8053 0.73155 0.67607 0.0
Tb1488 Tb 0.53104 0.52413 0.51281 0.0
C1489 C 0.57492 0.5969 0.56217 0.0
C1490 C 0.57878 0.62062 0.54212 0.0
C1491 C 0.57861 0.63072 0.5759 0.0
C1492 C 0.57565 0.60129 0.54446 0.0
C1493 C 0.57704 0.61159 0.57821 0.0
C1494 C 0.57951 0.63524 0.55784 0.0
C1495 C 0.57883 0.58782 0.59751 0.0
N1496 N 0.57409 0.57838 0.56373 0.0
C1497 C 0.5769 0.57382 0.58115 0.0
C1498 C 0.57854 0.60673 0.59605 0.0
Tb1499 Tb 0.5703 0.55606 0.53618 0.0
N1500 N 0.5753 0.58675 0.52979 0.0
C1501 C 0.57989 0.59093 0.51268 0.0
C1502 C 0.58216 0.62474 0.52429 0.0
C1503 C 0.58318 0.60984 0.50964 0.0
H1504 H 0.57704 0.55924 0.58254 0.0
H1505 H 0.58655 0.61285 0.49597 0.0
H1506 H 0.58161 0.65014 0.55628 0.0
H1507 H 0.58052 0.58398 0.61122 0.0
H1508 H 0.58067 0.57981 0.50101 0.0
H1509 H 0.51508 0.46641 0.55186 0.0
H1510 H 0.58475 0.63939 0.5219 0.0
H1511 H 0.52404 0.5217 0.46651 0.0
H1512 H 0.52065 0.49969 0.54734 0.0
H1513 H 0.52061 0.49742 0.43751 0.0
H1514 H 0.58001 0.64219 0.58802 0.0
H1515 H 0.51696 0.44031 0.52546 0.0
H1516 H 0.52027 0.4302 0.49108 0.0
H1517 H 0.58019 0.61758 0.60873 0.0
H1518 H 0.52171 0.43874 0.45957 0.0
N1519 N 0.52624 0.49325 0.5186 0.0
C1520 C 0.52157 0.48873 0.53556 0.0
C1521 C 0.51955 0.45506 0.5234 0.0
C1522 C 0.52297 0.45954 0.50572 0.0
C1523 C 0.51841 0.4697 0.53827 0.0
C1524 C 0.52599 0.47896 0.50372 0.0
H1525 H 0.52121 0.46374 0.43938 0.0
N1526 N 0.52719 0.50224 0.48492 0.0
C1527 C 0.52238 0.49335 0.4511 0.0
C1528 C 0.52655 0.48366 0.48614 0.0
C1529 C 0.52429 0.50709 0.46765 0.0
C1530 C 0.52284 0.47439 0.4522 0.0
C1531 C 0.52448 0.46923 0.46989 0.0
O1532 O 0.50807 0.52851 0.49862 0.0
O1533 O 0.54484 0.55413 0.52131 0.0
O1534 O 0.54895 0.56023 0.55551 0.0
O1535 O 0.52779 0.53222 0.54399 0.0
O1536 O 0.53122 0.54608 0.49533 0.0
O1537 O 0.50709 0.52009 0.52568 0.0
O1538 O 0.59277 0.55075 0.55048 0.0
O1539 O 0.55651 0.52602 0.52769 0.0
O1540 O 0.55229 0.52005 0.49334 0.0
O1541 O 0.57368 0.54779 0.50506 0.0
O1542 O 0.56973 0.53428 0.55392 0.0
O1543 O 0.59472 0.56071 0.5242 0.0
C1544 C 0.54071 0.56053 0.50667 0.0
C1545 C 0.48095 0.51015 0.50516 0.0
C1546 C 0.44859 0.50417 0.50291 0.0
C1547 C 0.46527 0.5165 0.50864 0.0
C1548 C 0.44785 0.4853 0.49351 0.0
C1549 C 0.48003 0.49126 0.4959 0.0
C1550 C 0.46352 0.47891 0.49009 0.0
C1551 C 0.53432 0.54751 0.55763 0.0
C1552 C 0.49798 0.52357 0.51155 0.0
C1553 C 0.52308 0.45002 0.47185 0.0
C1554 C 0.52228 0.44516 0.48978 0.0
C1555 C 0.56041 0.51975 0.54249 0.0
C1556 C 0.62029 0.56946 0.54569 0.0
C1557 C 0.6359 0.56251 0.54409 0.0
C1558 C 0.65245 0.57436 0.55135 0.0
C1559 C 0.65317 0.59335 0.56035 0.0
C1560 C 0.62119 0.5885 0.5545 0.0
C1561 C 0.63759 0.60037 0.56182 0.0
C1562 C 0.567 0.53267 0.4913 0.0
C1563 C 0.60333 0.55638 0.53819 0.0
H1564 H 0.46609 0.53121 0.5156 0.0
H1565 H 0.43519 0.47547 0.48899 0.0
H1566 H 0.49198 0.48607 0.49315 0.0
H1567 H 0.46287 0.46434 0.48293 0.0
H1568 H 0.6351 0.54771 0.53744 0.0
H1569 H 0.66576 0.60279 0.56604 0.0
H1570 H 0.60933 0.59416 0.55577 0.0
H1571 H 0.63823 0.61505 0.56866 0.0
Tb1572 Tb 0.07278 0.54688 0.01894 0.0
C1573 C 0.01184 0.50205 0.05547 0.0
C1574 C 0.99828 0.47444 0.03166 0.0
C1575 C 0.99754 0.47236 0.06483 0.0
C1576 C 0.00787 0.49361 0.03679 0.0
C1577 C 0.00647 0.49169 0.06977 0.0
C1578 C 0.99345 0.46373 0.04578 0.0
C1579 C 0.01805 0.52069 0.09261 0.0
N1580 N 0.02038 0.52076 0.05959 0.0
C1581 C 0.02303 0.53037 0.0779 0.0
C1582 C 0.00989 0.50121 0.08856 0.0
Tb1583 Tb 0.02875 0.53521 0.03459 0.0
N1584 N 0.01269 0.50451 0.02366 0.0
C1585 C 0.00713 0.49742 0.00504 0.0
C1586 C 0.99346 0.4668 0.01255 0.0
C1587 C 0.9977 0.47844 0.99921 0.0
H1588 H 0.02943 0.54537 0.08128 0.0
H1589 H 0.99378 0.47279 0.9844 0.0
H1590 H 0.98623 0.44893 0.04213 0.0
H1591 H 0.02053 0.52827 0.10708 0.0
H1592 H 0.01035 0.50606 0.99446 0.0
H1593 H 0.10746 0.60898 0.06974 0.0
H1594 H 0.98616 0.45212 0.008 0.0
H1595 H 0.07306 0.53704 0.97237 0.0
H1596 H 0.09125 0.5756 0.05931 0.0
H1597 H 0.08199 0.55451 0.9468 0.0
H1598 H 0.99342 0.46408 0.0756 0.0
H1599 H 0.11467 0.63013 0.04647 0.0
H1600 H 0.11454 0.63376 0.01244 0.0
H1601 H 0.00601 0.49377 0.09997 0.0
H1602 H 0.10772 0.61887 0.97887 0.0
N1603 N 0.08867 0.57759 0.03022 0.0
C1604 C 0.09428 0.58447 0.04886 0.0
C1605 C 0.10752 0.61541 0.04175 0.0
C1606 C 0.10274 0.60797 0.02259 0.0
C1607 C 0.10352 0.6035 0.05491 0.0
C1608 C 0.09335 0.58874 0.01725 0.0
H1609 H 0.09581 0.58919 0.95423 0.0
N1610 N 0.08135 0.56165 0.9942 0.0
C1611 C 0.08415 0.56201 0.9613 0.0
C1612 C 0.08958 0.58045 0.99851 0.0
C1613 C 0.07915 0.55214 0.97587 0.0
C1614 C 0.0919 0.5816 0.96554 0.0
C1615 C 0.09496 0.59101 0.98437 0.0
O1616 O 0.08856 0.52856 0.00624 0.0
O1617 O 0.05022 0.52443 0.02162 0.0
O1618 O 0.04646 0.52345 0.05175 0.0
O1619 O 0.07312 0.54406 0.04883 0.0
O1620 O 0.06294 0.52047 0.99788 0.0
O1621 O 0.09622 0.54503 0.03416 0.0
O1622 O 0.01264 0.55311 0.04737 0.0
O1623 O 0.05127 0.55764 0.03183 0.0
O1624 O 0.05502 0.55806 1.00128 0.0
O1625 O 0.02825 0.53776 0.00462 0.0
O1626 O 0.03866 0.56169 0.05558 0.0
O1627 O 0.00561 0.53736 0.01905 0.0
C1628 C 0.05028 0.5125 0.00662 0.0
C1629 C 0.11922 0.53692 0.01612 0.0
C1630 C 0.14764 0.52687 0.01389 0.0
C1631 C 0.12995 0.5238 0.01878 0.0
C1632 C 0.15443 0.54341 0.00655 0.0
C1633 C 0.12633 0.55331 0.00885 0.0
C1634 C 0.14386 0.55652 0.00414 0.0
C1635 C 0.06338 0.53127 0.05732 0.0
C1636 C 0.10055 0.53304 0.02054 0.0
C1637 C 0.10361 0.61043 0.98952 0.0
C1638 C 0.10748 0.61891 0.00863 0.0
C1639 C 0.05129 0.56961 0.04679 0.0
C1640 C 0.98211 0.54473 0.03663 0.0
C1641 C 0.97105 0.55717 0.03275 0.0
C1642 C 0.95296 0.55337 0.03628 0.0
C1643 C 0.94625 0.53697 0.04388 0.0
C1644 C 0.97505 0.52848 0.04411 0.0
C1645 C 0.95722 0.52466 0.04773 0.0
C1646 C 0.03817 0.54996 0.99565 0.0
C1647 C 1.00094 0.54894 0.0328 0.0
H1648 H 0.12442 0.51105 0.02427 0.0
H1649 H 0.16801 0.54631 1.00285 0.0
H1650 H 0.11834 0.56356 0.00676 0.0
H1651 H 0.14926 0.56922 0.99854 0.0
H1652 H 0.97651 0.56961 0.02676 0.0
H1653 H 0.93254 0.53374 0.04712 0.0
H1654 H 0.9833 0.51878 0.0472 0.0
H1655 H 0.95188 0.51213 0.05361 0.0
H1656 H 0.0204 0.20007 0.92287 0.0
H1657 H 0.02354 0.17187 0.93631 0.0
H1658 H 0.02605 0.20491 0.99227 0.0
H1659 H 0.02301 0.23324 0.97887 0.0
H1660 H 0.05137 0.1668 0.96071 0.0
H1661 H 0.98833 0.15646 0.99486 0.0
H1662 H 0.99241 0.17133 0.9772 0.0
H1663 H 1.00215 0.18017 1.001 0.0
C1664 C 0.0215 0.20138 0.93806 0.0
C1665 C 0.02133 0.2191 0.9497 0.0
C1666 C 0.02335 0.18514 0.94577 0.0
C1667 C 0.02483 0.1859 0.96542 0.0
C1668 C 0.02462 0.20359 0.97709 0.0
H1669 H 0.03213 0.09952 0.03724 0.0
H1670 H 0.03004 0.12859 0.02471 0.0
C1671 C 0.02295 0.21992 0.96938 0.0
C1672 C 0.0271 0.16841 0.97354 0.0
H1673 H 0.00813 0.13677 1.00096 0.0
C1674 C 0.04185 0.16022 0.96946 0.0
C1675 C 0.01487 0.15968 0.98515 0.0
C1676 C 0.99845 0.1672 0.98974 0.0
C1677 C 0.04488 0.14406 0.97681 0.0
C1678 C 0.03252 0.13506 0.98822 0.0
C1679 C 0.01774 0.14333 0.9923 0.0
C1680 C 0.03459 0.11725 0.99608 0.0
C1681 C 0.06183 0.13742 0.97287 0.0
C1682 C 0.03774 0.10068 0.98445 0.0
C1683 C 0.03929 0.08411 0.99178 0.0
C1684 C 0.03764 0.08343 0.01099 0.0
C1685 C 0.03396 0.09968 0.02251 0.0
C1686 C 0.03264 0.11635 0.01525 0.0
H1687 H 0.07213 0.14898 0.96912 0.0
H1688 H 0.06727 0.13273 0.98532 0.0
H1689 H 0.05914 0.12521 0.96079 0.0
H1690 H 0.03857 0.10028 0.96951 0.0
H1691 H 0.04146 0.07163 0.98231 0.0
H1692 H 0.14114 0.79988 0.13462 0.0
H1693 H 0.16753 0.79634 0.15295 0.0
H1694 H 0.1499 0.82516 0.20342 0.0
H1695 H 0.12314 0.82794 0.18526 0.0
H1696 H 0.19512 0.81919 0.17244 0.0
H1697 H 0.15906 0.78011 0.22305 0.0
H1698 H 0.14776 0.78494 0.20254 0.0
H1699 H 0.15359 0.80309 0.22361 0.0
C1700 C 0.14286 0.80546 0.14964 0.0
C1701 C 0.12984 0.81409 0.15841 0.0
C1702 C 0.15804 0.80342 0.16018 0.0
C1703 C 0.16076 0.80999 0.17984 0.0
C1704 C 0.14804 0.81926 0.18848 0.0
H1705 H 0.24904 0.81898 0.26523 0.0
H1706 H 0.22301 0.82296 0.2467 0.0
C1707 C 0.13274 0.82106 0.17799 0.0
C1708 C 0.17691 0.80736 0.19114 0.0
H1709 H 0.19029 0.79142 0.23058 0.0
C1710 C 0.19394 0.81298 0.18506 0.0
C1711 C 0.17572 0.79914 0.20769 0.0
C1712 C 0.15804 0.79129 0.21449 0.0
C1713 C 0.20953 0.811 0.1951 0.0
C1714 C 0.20829 0.8032 0.21179 0.0
C1715 C 0.19135 0.79755 0.21789 0.0
C1716 C 0.2244 0.80074 0.22305 0.0
C1717 C 0.22733 0.81755 0.18796 0.0
C1718 C 0.23402 0.78685 0.21613 0.0
C1719 C 0.24879 0.78423 0.22693 0.0
C1720 C 0.25445 0.79549 0.245 0.0
C1721 C 0.24496 0.80966 0.25169 0.0
C1722 C 0.23006 0.81208 0.24099 0.0
H1723 H 0.22641 0.82597 0.17658 0.0
H1724 H 0.23692 0.82647 0.19966 0.0
H1725 H 0.2327 0.80482 0.1823 0.0
H1726 H 0.22996 0.77781 0.2024 0.0
H1727 H 0.25567 0.77323 0.22113 0.0
H1728 H 0.51911 0.82074 0.4806 0.0
H1729 H 0.52157 0.85461 0.49522 0.0
H1730 H 0.53226 0.87146 0.44189 0.0
H1731 H 0.52985 0.83787 0.42731 0.0
H1732 H 0.55045 0.88668 0.49801 0.0
H1733 H 0.49204 0.89852 0.45745 0.0
H1734 H 0.49563 0.87481 0.45853 0.0
H1735 H 0.50747 0.88877 0.44302 0.0
C1736 C 0.52194 0.83165 0.47198 0.0
C1737 C 0.52421 0.82643 0.45271 0.0
C1738 C 0.52335 0.85107 0.48037 0.0
C1739 C 0.52681 0.86577 0.46966 0.0
C1740 C 0.52921 0.86053 0.45047 0.0
H1741 H 0.54605 0.99099 0.48741 0.0
H1742 H 0.53877 0.95627 0.47497 0.0
C1743 C 0.52794 0.84121 0.44215 0.0
C1744 C 0.52842 0.88657 0.47851 0.0
H1745 H 0.51157 0.92641 0.47512 0.0
C1746 C 0.54182 0.89529 0.49312 0.0
C1747 C 0.51728 0.89804 0.47215 0.0
C1748 C 0.50218 0.88956 0.45705 0.0
C1749 C 0.54477 0.91507 0.50104 0.0
C1750 C 0.53369 0.92661 0.49462 0.0
C1751 C 0.52012 0.91779 0.48016 0.0
C1752 C 0.53637 0.94788 0.50223 0.0
C1753 C 0.56029 0.92355 0.51567 0.0
C1754 C 0.53687 0.95507 0.52169 0.0
C1755 C 0.54105 0.97497 0.52879 0.0
C1756 C 0.54415 0.98826 0.5166 0.0
C1757 C 0.54308 0.98114 0.49711 0.0
C1758 C 0.53905 0.96123 0.49001 0.0
H1759 H 0.57029 0.9144 0.51508 0.0
H1760 H 0.56698 0.93813 0.51382 0.0
H1761 H 0.55544 0.92466 0.52991 0.0
H1762 H 0.53445 0.9453 0.53151 0.0
H1763 H 0.54229 0.98 0.5439 0.0
H1764 H 0.51748 0.30491 0.63392 0.0
H1765 H 0.49063 0.30216 0.65079 0.0
H1766 H 0.52298 0.31683 0.70382 0.0
H1767 H 0.54988 0.32005 0.68701 0.0
H1768 H 0.47789 0.27848 0.67346 0.0
H1769 H 0.48965 0.3526 0.71404 0.0
H1770 H 0.50265 0.34585 0.69499 0.0
H1771 H 0.5077 0.34119 0.71813 0.0
C1772 C 0.5189 0.30774 0.64919 0.0
C1773 C 0.5359 0.31283 0.65908 0.0
C1774 C 0.50349 0.30612 0.65885 0.0
C1775 C 0.50462 0.30959 0.67867 0.0
C1776 C 0.52161 0.31457 0.68858 0.0
H1777 H 0.42402 0.26722 0.7493 0.0
H1778 H 0.44824 0.27235 0.72918 0.0
C1779 C 0.53704 0.31628 0.67892 0.0
C1780 C 0.48806 0.30721 0.68889 0.0
H1781 H 0.46686 0.32949 0.72377 0.0
C1782 C 0.47547 0.28973 0.68436 0.0
C1783 C 0.48455 0.32191 0.70293 0.0
C1784 C 0.49675 0.34151 0.70769 0.0
C1785 C 0.4599 0.28635 0.69379 0.0
C1786 C 0.45687 0.30067 0.70853 0.0
C1787 C 0.46916 0.31838 0.71265 0.0
C1788 C 0.44147 0.29728 0.7203 0.0
C1789 C 0.44676 0.26747 0.68766 0.0
C1790 C 0.42953 0.30972 0.72244 0.0
C1791 C 0.41563 0.30693 0.73424 0.0
C1792 C 0.41348 0.29176 0.74439 0.0
C1793 C 0.42529 0.27919 0.74192 0.0
C1794 C 0.43911 0.28198 0.73018 0.0
H1795 H 0.44786 0.26107 0.67277 0.0
H1796 H 0.44959 0.2572 0.69658 0.0
H1797 H 0.43289 0.2692 0.68912 0.0
H1798 H 0.43105 0.32172 0.71508 0.0
H1799 H 0.40696 0.31702 0.7359 0.0
H1800 H 1.00361 0.79712 0.60824 0.0
H1801 H 0.00997 0.81827 0.5853 0.0
H1802 H 0.03584 0.86472 0.62992 0.0
H1803 H 0.02955 0.8436 0.65303 0.0
H1804 H 1.00047 0.85486 0.5845 0.0
H1805 H 0.07348 0.8598 0.59094 0.0
H1806 H 0.05799 0.84135 0.59914 0.0
H1807 H 0.06368 0.86531 0.61268 0.0
C1808 C 0.01057 0.81187 0.6132 0.0
C1809 C 0.01616 0.8187 0.63243 0.0
C1810 C 0.01419 0.82391 0.60007 0.0
C1811 C 0.02358 0.84293 0.6059 0.0
C1812 C 0.0288 0.84997 0.62513 0.0
H1813 H 0.06218 0.93679 0.54936 0.0
H1814 H 0.05577 0.91467 0.57131 0.0
C1815 C 0.02511 0.83794 0.63832 0.0
C1816 C 0.02798 0.85532 0.59176 0.0
H1817 H 0.06272 0.87907 0.57164 0.0
C1818 C 0.01406 0.86013 0.58161 0.0
C1819 C 0.04573 0.8621 0.58806 0.0
C1820 C 0.06112 0.8568 0.59814 0.0
C1821 C 0.01744 0.87194 0.56812 0.0
C1822 C 0.03521 0.87871 0.56438 0.0
C1823 C 0.04912 0.8738 0.57448 0.0
C1824 C 0.0397 0.89157 0.55061 0.0
C1825 C 1.002 0.87751 0.55842 0.0
C1826 C 0.03319 0.88575 0.53154 0.0
C1827 C 0.0367 0.89847 0.51895 0.0
C1828 C 0.04686 0.91719 0.52523 0.0
C1829 C 0.054 0.92262 0.54416 0.0
C1830 C 0.05045 0.90995 0.55671 0.0
H1831 H 0.98994 0.87518 0.5662 0.0
H1832 H 0.00537 0.89282 0.55695 0.0
H1833 H 0.99873 0.86858 0.5441 0.0
H1834 H 0.02521 0.87147 0.52645 0.0
H1835 H 0.03099 0.89385 0.50448 0.0
H1836 H 0.5272 0.80824 0.88535 0.0
H1837 H 0.50017 0.81167 0.86836 0.0
H1838 H 0.52087 0.79426 0.81539 0.0
H1839 H 0.54813 0.79102 0.83233 0.0
H1840 H 0.50888 0.82791 0.8173 0.0
H1841 H 0.45819 0.77198 0.83936 0.0
H1842 H 0.47184 0.78777 0.85893 0.0
H1843 H 0.48169 0.77251 0.84222 0.0
C1844 C 0.52588 0.80481 0.87009 0.0
C1845 C 0.53976 0.79933 0.86016 0.0
C1846 C 0.51039 0.80669 0.8604 0.0
C1847 C 0.50843 0.803 0.84062 0.0
C1848 C 0.52209 0.79707 0.83066 0.0
H1849 H 0.40851 0.8052 0.77924 0.0
H1850 H 0.43554 0.79569 0.78971 0.0
C1851 C 0.53761 0.79518 0.84036 0.0
C1852 C 0.49273 0.80678 0.83044 0.0
H1853 H 0.44739 0.79621 0.82624 0.0
C1854 C 0.49543 0.82081 0.81906 0.0
C1855 C 0.47522 0.79736 0.83259 0.0
C1856 C 0.47153 0.78143 0.84379 0.0
C1857 C 0.48104 0.82621 0.81032 0.0
C1858 C 0.46354 0.81756 0.81334 0.0
C1859 C 0.46084 0.80299 0.82412 0.0
C1860 C 0.44781 0.82373 0.80591 0.0
C1861 C 0.48473 0.84115 0.79798 0.0
C1862 C 0.44578 0.84268 0.81151 0.0
C1863 C 0.43035 0.84815 0.80557 0.0
C1864 C 0.4166 0.83471 0.79409 0.0
C1865 C 0.4188 0.81582 0.78826 0.0
C1866 C 0.43425 0.81038 0.79416 0.0
H1867 H 0.49807 0.84207 0.79266 0.0
H1868 H 0.47457 0.83796 0.78576 0.0
H1869 H 0.48439 0.85541 0.80635 0.0
H1870 H 0.45591 0.85309 0.82093 0.0
H1871 H 0.42893 0.86271 0.81053 0.0
H1872 H 0.51772 0.2152 0.15453 0.0
H1873 H 0.51915 0.18521 0.13372 0.0
H1874 H 0.49376 0.20337 0.0875 0.0
H1875 H 0.49226 0.23347 0.10821 0.0
H1876 H 0.49125 0.15549 0.10778 0.0
H1877 H 0.54501 0.19669 0.07298 0.0
H1878 H 0.53861 0.20622 0.09573 0.0
H1879 H 0.5247 0.20521 0.07474 0.0
C1880 C 0.51216 0.21267 0.14002 0.0
C1881 C 0.50506 0.22672 0.13291 0.0
C1882 C 0.51295 0.19554 0.1282 0.0
C1883 C 0.50672 0.19228 0.10912 0.0
C1884 C 0.49872 0.20578 0.1022 0.0
H1885 H 0.50817 0.09119 0.02445 0.0
H1886 H 0.49905 0.11817 0.04372 0.0
C1887 C 0.49787 0.22291 0.11403 0.0
C1888 C 0.51014 0.17561 0.09619 0.0
H1889 H 0.53702 0.16329 0.0623 0.0
C1890 C 0.50112 0.15713 0.0977 0.0
C1891 C 0.52319 0.17795 0.08327 0.0
C1892 C 0.53357 0.19754 0.08156 0.0
C1893 C 0.50491 0.1408 0.08658 0.0
C1894 C 0.51803 0.14318 0.07376 0.0
C1895 C 0.52693 0.16165 0.07215 0.0
C1896 C 0.52327 0.12665 0.06238 0.0
C1897 C 0.49529 0.12112 0.0889 0.0
C1898 C 0.53997 0.12274 0.06647 0.0
C1899 C 0.54527 0.1074 0.0555 0.0
C1900 C 0.53399 0.09589 0.04013 0.0
C1901 C 0.51724 0.0999 0.03608 0.0
C1902 C 0.51193 0.11519 0.04713 0.0
H1903 H 0.48715 0.12172 0.10113 0.0
H1904 H 0.48638 0.11415 0.07597 0.0
H1905 H 0.50496 0.11196 0.09076 0.0
H1906 H 0.54889 0.13156 0.07818 0.0
H1907 H 0.55824 0.10469 0.05898 0.0
H1908 H 0.12738 0.2838 0.34053 0.0
H1909 H 0.15555 0.28738 0.32596 0.0
H1910 H 0.17742 0.33823 0.36752 0.0
H1911 H 0.14931 0.33479 0.38216 0.0
H1912 H 0.18386 0.34101 0.32818 0.0
H1913 H 0.20195 0.2776 0.35165 0.0
H1914 H 0.18012 0.27333 0.33963 0.0
H1915 H 0.18525 0.28923 0.36209 0.0
C1916 C 0.13821 0.2957 0.34659 0.0
C1917 C 0.13621 0.30892 0.36256 0.0
C1918 C 0.15425 0.29774 0.33825 0.0
C1919 C 0.16852 0.31303 0.34574 0.0
C1920 C 0.16652 0.32637 0.36154 0.0
H1921 H 0.2752 0.30743 0.31819 0.0
H1922 H 0.24997 0.3138 0.33526 0.0
C1923 C 0.15051 0.3243 0.36994 0.0
C1924 C 0.18575 0.31469 0.33745 0.0
H1925 H 0.22007 0.29208 0.33069 0.0
C1926 C 0.19184 0.33032 0.32863 0.0
C1927 C 0.19623 0.30098 0.3385 0.0
C1928 C 0.1907 0.28441 0.34861 0.0
C1929 C 0.208 0.33227 0.32025 0.0
C1930 C 0.21814 0.31803 0.32054 0.0
C1931 C 0.21222 0.3028 0.33001 0.0
C1932 C 0.23471 0.31806 0.31088 0.0
C1933 C 0.21409 0.34974 0.31157 0.0
C1934 C 0.23498 0.31915 0.29163 0.0
C1935 C 0.24968 0.31596 0.28197 0.0
C1936 C 0.26393 0.31094 0.29128 0.0
C1937 C 0.26409 0.31081 0.31065 0.0
C1938 C 0.2497 0.31449 0.3204 0.0
H1939 H 0.20912 0.36221 0.31879 0.0
H1940 H 0.22878 0.35381 0.31217 0.0
H1941 H 0.20863 0.34662 0.29659 0.0
H1942 H 0.2235 0.32143 0.28379 0.0
H1943 H 0.24954 0.31645 0.26706 0.0
H1944 H 0.97695 0.08682 0.23069 0.0
H1945 H 0.99103 0.08425 0.20084 0.0
H1946 H 0.9502 0.03459 0.17718 0.0
H1947 H 0.93581 0.03769 0.20661 0.0
H1948 H 0.00738 0.06288 0.18005 0.0
H1949 H 0.9476 0.05728 0.13267 0.0
H1950 H 0.94741 0.06277 0.15789 0.0
H1951 H 0.94447 0.0382 0.1458 0.0
C1952 C 0.97077 0.07541 0.21912 0.0
C1953 C 0.95483 0.06265 0.22159 0.0
C1954 C 0.979 0.07386 0.20173 0.0
C1955 C 0.97183 0.05947 0.18567 0.0
C1956 C 0.95611 0.04646 0.1884 0.0
H1957 H 0.00533 0.02148 0.06976 0.0
H1958 H 0.99123 0.02505 0.09945 0.0
C1959 C 0.94781 0.04812 0.20568 0.0
C1960 C 0.98086 0.05786 0.16663 0.0
H1961 H 0.97263 0.04935 0.11787 0.0
C1962 C 0.99958 0.06008 0.16657 0.0
C1963 C 0.97138 0.05422 0.14831 0.0
C1964 C 0.95165 0.05319 0.14612 0.0
C1965 C 0.0086 0.05834 0.14962 0.0
C1966 C 0.99907 0.05441 0.13137 0.0
C1967 C 0.98039 0.05222 0.13139 0.0
C1968 C 0.00804 0.05243 0.11238 0.0
C1969 C 0.02844 0.06018 0.15157 0.0
C1970 C 0.02237 0.06657 0.1085 0.0
C1971 C 0.03043 0.06463 0.09105 0.0
C1972 C 0.02474 0.04841 0.07636 0.0
C1973 C 0.01032 0.03436 0.08019 0.0
C1974 C 1.00214 0.03638 0.09754 0.0
H1975 H 0.03312 0.05745 0.16544 0.0
H1976 H 0.03267 0.05003 0.14027 0.0
H1977 H 0.03508 0.075 0.15046 0.0
H1978 H 0.02728 0.07948 0.11891 0.0
H1979 H 0.04109 0.07614 0.08902 0.0
H1980 H 0.31411 0.6773 0.48951 0.0
H1981 H 0.31003 0.69884 0.4677 0.0
H1982 H 0.254 0.67333 0.4589 0.0
H1983 H 0.25792 0.65162 0.48059 0.0
H1984 H 0.28805 0.68636 0.42594 0.0
H1985 H 0.26458 0.73594 0.48223 0.0
H1986 H 0.27954 0.721 0.48779 0.0
H1987 H 0.25675 0.71034 0.47987 0.0
C1988 C 0.30098 0.67606 0.48269 0.0
C1989 C 0.28631 0.66285 0.48678 0.0
C1990 C 0.29868 0.68836 0.47029 0.0
C1991 C 0.28172 0.68768 0.46193 0.0
C1992 C 0.26717 0.67402 0.46536 0.0
H1993 H 0.24521 0.76701 0.39874 0.0
H1994 H 0.24702 0.74342 0.41908 0.0
C1995 C 0.26945 0.66163 0.47767 0.0
C1996 C 0.27912 0.70192 0.45036 0.0
H1997 H 0.26694 0.74493 0.45254 0.0
C1998 C 0.28339 0.69915 0.43166 0.0
C1999 C 0.27288 0.7184 0.45797 0.0
C2000 C 0.26817 0.72178 0.47808 0.0
C2001 C 0.28168 0.71265 0.42028 0.0
C2002 C 0.27601 0.72952 0.42806 0.0
C2003 C 0.27139 0.73205 0.44669 0.0
C2004 C 0.27515 0.74485 0.41714 0.0
C2005 C 0.28575 0.70859 0.39997 0.0
C2006 C 0.2905 0.75398 0.41004 0.0
C2007 C 0.28949 0.76733 0.39846 0.0
C2008 C 0.27314 0.77198 0.39402 0.0
C2009 C 0.25797 0.76371 0.40205 0.0
C2010 C 0.25897 0.7502 0.41355 0.0
H2011 H 0.28476 0.69301 0.39484 0.0
H2012 H 0.27658 0.71373 0.39067 0.0
H2013 H 0.29954 0.71616 0.39872 0.0
H2014 H 0.30321 0.75045 0.41313 0.0
H2015 H 0.30141 0.77373 0.39262 0.0
H2016 H 0.6738 0.01922 0.67972 0.0
H2017 H 0.64977 0.01396 0.6547 0.0
H2018 H 0.61179 0.99255 0.69183 0.0
H2019 H 0.63573 0.99804 0.71705 0.0
H2020 H 0.62307 0.98149 0.63712 0.0
H2021 H 0.5947 0.03917 0.67799 0.0
H2022 H 0.61658 0.0357 0.68432 0.0
H2023 H 0.59725 0.01947 0.68927 0.0
C2024 C 0.66038 0.0131 0.68246 0.0
C2025 C 0.65661 0.00926 0.70038 0.0
C2026 C 0.64667 0.01009 0.66817 0.0
C2027 C 0.62899 1.00319 0.67156 0.0
C2028 C 0.62531 0.99821 0.68906 0.0
H2029 H 0.54341 0.01219 0.58856 0.0
H2030 H 0.55615 1.00125 0.61554 0.0
C2031 C 0.63902 1.00127 0.7034 0.0
C2032 C 0.61449 1.00268 0.65713 0.0
H2033 H 0.58274 0.02704 0.64682 0.0
C2034 C 0.61398 0.99114 0.63935 0.0
C2035 C 0.60257 0.01522 0.66013 0.0
C2036 C 0.60277 0.02821 0.67889 0.0
C2037 C 0.6026 0.99264 0.62417 0.0
C2038 C 0.59164 0.00615 0.62686 0.0
C2039 C 0.59115 0.01666 0.64492 0.0
C2040 C 0.58341 0.01219 0.61064 0.0
C2041 C 0.60303 0.98052 0.60511 0.0
C2042 C 0.59453 0.02221 0.59933 0.0
C2043 C 0.58737 0.02874 0.58428 0.0
C2044 C 0.56884 0.02547 0.58016 0.0
C2045 C 0.55766 0.01533 0.59153 0.0
C2046 C 0.56491 0.00891 0.60683 0.0
H2047 H 0.60791 0.96732 0.60638 0.0
H2048 H 0.58964 0.97637 0.59726 0.0
H2049 H 0.61219 0.98893 0.59674 0.0
H2050 H 0.60885 0.02508 0.60222 0.0
H2051 H 0.59652 0.03617 0.57578 0.0
H2052 H 0.30025 0.33683 0.98926 0.0
H2053 H 0.30146 0.32079 0.95663 0.0
H2054 H 0.31284 0.37583 0.93942 0.0
H2055 H 0.31177 0.39186 0.97179 0.0
H2056 H 0.28123 0.32179 0.92338 0.0
H2057 H 0.35245 0.35097 0.9182 0.0
H2058 H 0.34283 0.35179 0.94049 0.0
H2059 H 0.34068 0.3694 0.92618 0.0
C2060 C 0.30306 0.3455 0.97851 0.0
C2061 C 0.306 0.36565 0.98318 0.0
C2062 C 0.30375 0.33631 0.95986 0.0
C2063 C 0.30758 0.34709 0.94557 0.0
C2064 C 0.31028 0.36718 0.95021 0.0
H2065 H 0.30671 0.34219 0.82868 0.0
H2066 H 0.31014 0.34838 0.86307 0.0
C2067 C 0.30953 0.37634 0.96876 0.0
C2068 C 0.30831 0.33756 0.92567 0.0
H2069 H 0.33441 0.33842 0.88887 0.0
C2070 C 0.29295 0.32512 0.91591 0.0
C2071 C 0.32365 0.34176 0.91591 0.0
C2072 C 0.3409 0.35406 0.92577 0.0
C2073 C 0.29218 0.31783 0.89643 0.0
C2074 C 0.30723 0.3229 0.88648 0.0
C2075 C 0.32285 0.33454 0.89646 0.0
C2076 C 0.30634 0.31848 0.86548 0.0
C2077 C 0.27494 0.30567 0.8864 0.0
C2078 C 0.30338 0.29954 0.85523 0.0
C2079 C 0.30151 0.29596 0.83538 0.0
C2080 C 0.30274 0.3113 0.82557 0.0
C2081 C 0.30595 0.33013 0.83589 0.0
C2082 C 0.30791 0.33369 0.85556 0.0
H2083 H 0.26386 0.30514 0.89563 0.0
H2084 H 0.27122 0.31132 0.87374 0.0
H2085 H 0.27663 0.29079 0.88159 0.0
H2086 H 0.30228 0.28757 0.86257 0.0
H2087 H 0.29867 0.28129 0.82775 0.0
H2088 H 0.93318 0.0601 0.34535 0.0
H2089 H 0.94818 0.05624 0.37488 0.0
H2090 H 0.99814 0.06409 0.35036 0.0
H2091 H 0.98317 0.06823 0.32096 0.0
H2092 H 0.96495 0.03199 0.38685 0.0
H2093 H 0.01684 0.09861 0.39853 0.0
H2094 H 0.99861 0.09401 0.38056 0.0
H2095 H 0.01764 0.08349 0.37634 0.0
C2096 C 0.94742 0.06123 0.34616 0.0
C2097 C 0.95668 0.06478 0.33022 0.0
C2098 C 0.95615 0.05891 0.36335 0.0
C2099 C 0.97478 0.06017 0.36586 0.0
C2100 C 0.98401 0.06355 0.34982 0.0
H2101 H 0.04872 0.04893 0.46518 0.0
H2102 H 0.03621 0.05147 0.43359 0.0
C2103 C 0.97526 0.06581 0.3326 0.0
C2104 C 0.98415 0.05744 0.38476 0.0
H2105 H 0.01987 0.07652 0.41863 0.0
C2106 C 0.97692 0.04194 0.39365 0.0
C2107 C 1.00007 0.06992 0.39442 0.0
C2108 C 0.00868 0.08754 0.38712 0.0
C2109 C 0.98482 0.03854 0.41089 0.0
C2110 C 1.00058 0.05116 0.42069 0.0
C2111 C 0.00796 0.06655 0.41173 0.0
C2112 C 0.00887 0.04906 0.44034 0.0
C2113 C 0.97629 0.0208 0.41808 0.0
C2114 C 0.99833 0.04691 0.45559 0.0
C2115 C 0.00553 0.04535 0.47367 0.0
C2116 C 0.02379 0.04577 0.47795 0.0
C2117 C 0.03457 0.04803 0.46282 0.0
C2118 C 0.0273 0.04969 0.44453 0.0
H2119 H 0.96892 0.00944 0.40641 0.0
H2120 H 0.9863 0.01485 0.42542 0.0
H2121 H 0.96658 0.02449 0.42811 0.0
H2122 H 0.98433 0.04692 0.45376 0.0
H2123 H 0.99657 0.04407 0.48465 0.0
H2124 H 0.30665 0.70227 0.56184 0.0
H2125 H 0.30869 0.72801 0.58914 0.0
H2126 H 0.31164 0.68787 0.62633 0.0
H2127 H 0.30947 0.66196 0.59909 0.0
H2128 H 0.28201 0.72468 0.61606 0.0
H2129 H 0.35086 0.73689 0.64942 0.0
H2130 H 0.34471 0.72625 0.62485 0.0
H2131 H 0.33964 0.71209 0.64277 0.0
C2132 C 0.30814 0.699 0.57584 0.0
C2133 C 0.30781 0.68009 0.57837 0.0
C2134 C 0.30929 0.71372 0.59138 0.0
C2135 C 0.31042 0.70982 0.60967 0.0
C2136 C 0.31103 0.69118 0.61228 0.0
H2137 H 0.2808 0.74592 0.71644 0.0
H2138 H 0.284 0.73177 0.68409 0.0
C2139 C 0.30973 0.6764 0.59673 0.0
C2140 C 0.30882 0.72455 0.62596 0.0
H2141 H 0.32959 0.74867 0.6686 0.0
C2142 C 0.29252 0.73024 0.6274 0.0
C2143 C 0.32259 0.7318 0.64061 0.0
C2144 C 0.34051 0.72661 0.63935 0.0
C2145 C 0.28928 0.74215 0.6437 0.0
C2146 C 0.30271 0.74849 0.65877 0.0
C2147 C 0.31935 0.74372 0.65692 0.0
C2148 C 0.29902 0.75801 0.67737 0.0
C2149 C 0.27134 0.74727 0.6451 0.0
C2150 C 0.30599 0.77761 0.68401 0.0
C2151 C 0.30397 0.78588 0.7025 0.0
C2152 C 0.29547 0.7745 0.71473 0.0
C2153 C 0.2877 0.75509 0.70758 0.0
C2154 C 0.28948 0.74693 0.68907 0.0
H2155 H 0.2636 0.74427 0.63112 0.0
H2156 H 0.26366 0.7387 0.65447 0.0
H2157 H 0.27287 0.76269 0.65139 0.0
H2158 H 0.31327 0.78637 0.67503 0.0
H2159 H 0.30952 0.80101 0.70735 0.0
H2160 H 0.66938 0.03231 0.80676 0.0
H2161 H 0.64743 0.0399 0.82839 0.0
H2162 H 0.63356 0.07955 0.79482 0.0
H2163 H 0.65519 0.07164 0.77282 0.0
H2164 H 0.64292 0.07357 0.84995 0.0
H2165 H 0.58607 0.04305 0.79532 0.0
H2166 H 0.60824 0.03951 0.79185 0.0
H2167 H 0.60264 0.06201 0.78964 0.0
C2168 C 0.66176 0.04277 0.80408 0.0
C2169 C 0.66382 0.05123 0.78802 0.0
C2170 C 0.64924 0.04709 0.81644 0.0
C2171 C 0.63864 0.05998 0.81297 0.0
C2172 C 0.64132 0.06921 0.79748 0.0
H2173 H 0.5509 0.08539 0.87955 0.0
H2174 H 0.57337 0.08763 0.85669 0.0
C2175 C 0.65375 0.06477 0.78501 0.0
C2176 C 0.62437 0.06306 0.82526 0.0
H2177 H 0.57922 0.05512 0.82576 0.0
C2178 C 0.62901 0.06972 0.84463 0.0
C2179 C 0.60621 0.05802 0.81825 0.0
C2180 C 0.60041 0.0501 0.79766 0.0
C2181 C 0.61595 0.07098 0.85727 0.0
C2182 C 0.59785 0.06535 0.85032 0.0
C2183 C 0.59317 0.05947 0.83092 0.0
C2184 C 0.58369 0.06364 0.86323 0.0
C2185 C 0.62154 0.07785 0.87803 0.0
C2186 C 0.58183 0.04904 0.8739 0.0
C2187 C 0.56898 0.04758 0.8867 0.0
C2188 C 0.55779 0.06076 0.88914 0.0
C2189 C 0.55927 0.07498 0.87791 0.0
C2190 C 0.57213 0.07637 0.86497 0.0
H2191 H 0.63566 0.08568 0.88063 0.0
H2192 H 0.61304 0.08741 0.8845 0.0
H2193 H 0.61998 0.06528 0.88518 0.0
H2194 H 0.59046 0.03888 0.87244 0.0
H2195 H 0.56791 0.03621 0.89485 0.0
H2196 H 0.29261 0.34142 0.07422 0.0
H2197 H 0.29043 0.32828 0.10338 0.0
H2198 H 0.30721 0.38547 0.13617 0.0
H2199 H 0.30926 0.39865 0.10719 0.0
H2200 H 0.31683 0.33118 0.1326 0.0
H2201 H 0.26225 0.3644 0.15989 0.0
H2202 H 0.26768 0.36318 0.13578 0.0
H2203 H 0.2808 0.38122 0.15422 0.0
C2204 C 0.29574 0.35119 0.08764 0.0
C2205 C 0.30101 0.37111 0.08833 0.0
C2206 C 0.29452 0.34366 0.10432 0.0
C2207 C 0.29838 0.35588 0.12205 0.0
C2208 C 0.30378 0.37574 0.12273 0.0
H2209 H 0.30134 0.33909 0.23923 0.0
H2210 H 0.30294 0.35232 0.21012 0.0
C2211 C 0.30504 0.38326 0.1061 0.0
C2212 C 0.29722 0.34788 0.13982 0.0
H2213 H 0.27691 0.34941 0.18089 0.0
C2214 C 0.30802 0.33508 0.1431 0.0
C2215 C 0.2858 0.35302 0.15364 0.0
C2216 C 0.27334 0.36607 0.15069 0.0
C2217 C 0.30796 0.3276 0.15987 0.0
C2218 C 0.29651 0.3327 0.17366 0.0
C2219 C 0.28572 0.3455 0.17039 0.0
C2220 C 0.29537 0.3247 0.19143 0.0
C2221 C 0.32053 0.31466 0.16285 0.0
C2222 C 0.29036 0.3048 0.19074 0.0
C2223 C 0.28956 0.29726 0.20736 0.0
C2224 C 0.29351 0.30939 0.22511 0.0
C2225 C 0.29833 0.32933 0.22582 0.0
C2226 C 0.29915 0.33691 0.20916 0.0
H2227 H 0.33173 0.31655 0.15381 0.0
H2228 H 0.32607 0.31745 0.1778 0.0
H2229 H 0.31322 0.29947 0.15913 0.0
H2230 H 0.28713 0.29504 0.17731 0.0
H2231 H 0.28639 0.28187 0.20624 0.0
H2232 H 0.2876 0.98728 0.06095 0.0
H2233 H 0.2659 0.00713 0.069 0.0
H2234 H 0.23186 0.97659 0.01937 0.0
H2235 H 0.25361 0.9569 0.01107 0.0
H2236 H 0.23593 0.0163 0.0244 0.0
H2237 H 0.21821 0.98931 0.08994 0.0
H2238 H 0.24151 0.99862 0.089 0.0
H2239 H 0.23036 0.97737 0.07272 0.0
C2240 C 0.2755 0.98482 0.05175 0.0
C2241 C 0.27224 0.9705 0.03542 0.0
C2242 C 0.26308 0.99608 0.05643 0.0
C2243 C 0.24718 0.9931 0.04493 0.0
C2244 C 0.24404 0.97903 0.02846 0.0
H2245 H 0.14821 0.02621 0.06463 0.0
H2246 H 0.17314 0.01014 0.06074 0.0
C2247 C 0.25645 0.9678 0.02375 0.0
C2248 C 0.2338 1.00472 0.0499 0.0
H2249 H 0.20524 0.01453 0.0829 0.0
C2250 C 0.22926 0.01599 0.03722 0.0
C2251 C 0.22504 1.0041 0.06656 0.0
C2252 C 0.22887 0.99158 0.08029 0.0
C2253 C 0.21607 0.02661 0.04067 0.0
C2254 C 0.20744 0.02617 0.05743 0.0
C2255 C 0.21204 0.01497 0.07017 0.0
C2256 C 0.1928 0.03626 0.06135 0.0
C2257 C 0.21107 0.03769 0.02607 0.0
C2258 C 0.19572 0.05632 0.0635 0.0
C2259 C 0.18148 0.06553 0.06558 0.0
C2260 C 0.16411 0.05481 0.06561 0.0
C2261 C 0.1614 0.03481 0.06433 0.0
C2262 C 0.17562 0.02563 0.06223 0.0
H2263 H 0.21615 0.03317 0.01229 0.0
H2264 H 0.19641 0.0358 0.02389 0.0
H2265 H 0.21685 0.05321 0.03101 0.0
H2266 H 0.20895 0.06479 0.06316 0.0
H2267 H 0.18399 0.08094 0.06645 0.0
H2268 H 0.74782 0.62395 0.00532 0.0
H2269 H 0.71728 0.60557 1.00392 0.0
H2270 H 0.69805 0.65802 0.00944 0.0
H2271 H 0.72856 0.67648 0.01059 0.0
H2272 H 0.69369 0.60788 0.03071 0.0
H2273 H 0.666 0.62428 0.96456 0.0
H2274 H 0.68959 0.62897 0.97122 0.0
H2275 H 0.67646 0.64529 0.98148 0.0
C2276 C 0.73708 0.63157 0.0061 0.0
C2277 C 0.74061 0.65167 0.00801 0.0
C2278 C 0.71963 0.62103 0.0053 0.0
C2279 C 0.70532 0.63036 0.00629 0.0
C2280 C 0.70881 0.65045 0.00822 0.0
H2281 H 0.60105 0.58896 0.03992 0.0
H2282 H 0.63119 0.60566 0.03677 0.0
C2283 C 0.72627 0.661 0.009 0.0
C2284 C 0.68687 0.61914 0.00625 0.0
H2285 H 0.64508 0.6094 0.98363 0.0
C2286 C 0.6831 0.60813 0.02034 0.0
C2287 C 0.67307 0.61923 0.99257 0.0
C2288 C 0.67647 0.62992 0.97648 0.0
C2289 C 0.66586 0.59766 0.02144 0.0
C2290 C 0.65191 0.59843 0.00826 0.0
C2291 C 0.65574 0.60898 0.99383 0.0
C2292 C 0.63322 0.58872 0.00958 0.0
C2293 C 0.66275 0.58575 0.03665 0.0
C2294 C 0.62403 0.57406 0.99501 0.0
C2295 C 0.60664 0.56447 0.99671 0.0
C2296 C 0.59812 0.5694 0.01302 0.0
C2297 C 0.60719 0.58456 0.02726 0.0
C2298 C 0.62452 0.5941 0.02554 0.0
H2299 H 0.67529 0.58251 0.04219 0.0
H2300 H 0.65723 0.59383 0.04855 0.0
H2301 H 0.65308 0.572 0.03131 0.0
H2302 H 0.63042 0.56981 0.98247 0.0
H2303 H 0.59994 0.55315 0.98531 0.0
H2304 H 0.67554 0.43886 0.2616 0.0
H2305 H 0.69116 0.41235 0.26175 0.0
H2306 H 0.74057 0.45336 0.27808 0.0
H2307 H 0.72493 0.47973 0.27832 0.0
H2308 H 0.71445 0.39604 0.24442 0.0
H2309 H 0.74911 0.42237 0.31543 0.0
H2310 H 0.73231 0.43349 0.30664 0.0
H2311 H 0.75483 0.43954 0.3004 0.0
C2312 C 0.68975 0.44243 0.26536 0.0
C2313 C 0.69856 0.46212 0.2701 0.0
C2314 C 0.6989 0.42692 0.2654 0.0
C2315 C 0.71751 0.42994 0.27037 0.0
C2316 C 0.72633 0.44968 0.27477 0.0
H2317 H 0.77629 0.32975 0.24518 0.0
H2318 H 0.7625 0.35736 0.24259 0.0
C2319 C 0.71719 0.46515 0.27471 0.0
C2320 C 0.72747 0.41282 0.27076 0.0
H2321 H 0.75853 0.39659 0.29686 0.0
C2322 C 0.72408 0.39641 0.25602 0.0
C2323 C 0.74015 0.41208 0.28573 0.0
C2324 C 0.74421 0.42768 0.30303 0.0
C2325 C 0.73268 0.38035 0.25567 0.0
C2326 C 0.74576 0.3799 0.27038 0.0
C2327 C 0.74895 0.3962 0.28521 0.0
C2328 C 0.75536 0.36262 0.27143 0.0
C2329 C 0.72701 0.36356 0.23959 0.0
C2330 C 0.7573 0.35572 0.28848 0.0
C2331 C 0.76552 0.33994 0.28999 0.0
C2332 C 0.77281 0.32985 0.27471 0.0
C2333 C 0.77124 0.33677 0.25756 0.0
C2334 C 0.76289 0.35272 0.25602 0.0
H2335 H 0.71371 0.36326 0.23272 0.0
H2336 H 0.73667 0.3648 0.22879 0.0
H2337 H 0.72656 0.34974 0.24445 0.0
H2338 H 0.75201 0.36233 0.30089 0.0
H2339 H 0.76603 0.33543 0.30351 0.0
H2340 H 0.86535 0.45673 0.54612 0.0
H2341 H 0.89576 0.47211 0.54205 0.0
H2342 H 0.87667 0.49478 0.49534 0.0
H2343 H 0.84611 0.47915 0.49916 0.0
H2344 H 0.90417 0.47629 0.48721 0.0
H2345 H 0.9213 0.52841 0.55446 0.0
H2346 H 0.91258 0.50441 0.55787 0.0
H2347 H 0.89867 0.51666 0.54588 0.0
C2348 C 0.86759 0.46521 0.53515 0.0
C2349 C 0.85337 0.46677 0.52297 0.0
C2350 C 0.88496 0.47407 0.53291 0.0
C2351 C 0.88842 0.48478 0.51856 0.0
C2352 C 0.87423 0.48665 0.50657 0.0
H2353 H 0.99608 0.54935 0.51633 0.0
H2354 H 0.96386 0.54049 0.5153 0.0
C2355 C 0.85681 0.47777 0.5088 0.0
C2356 C 0.90696 0.49286 0.51535 0.0
H2357 H 0.94571 0.52121 0.53753 0.0
C2358 C 0.91323 0.48634 0.49809 0.0
C2359 C 0.91866 0.50611 0.52949 0.0
C2360 C 0.91243 0.51446 0.54789 0.0
C2361 C 0.93111 0.49213 0.49484 0.0
C2362 C 0.94306 0.50452 0.5094 0.0
C2363 C 0.9366 0.5116 0.5264 0.0
C2364 C 0.96242 0.50991 0.5077 0.0
C2365 C 0.9369 0.48478 0.47587 0.0
C2366 C 0.97239 0.49572 0.50364 0.0
C2367 C 0.99085 0.50086 0.50368 0.0
C2368 C 0.99964 0.52024 0.50789 0.0
C2369 C 0.98969 0.53438 0.51223 0.0
C2370 C 0.97123 0.52929 0.51187 0.0
H2371 H 0.9258 0.48187 0.46462 0.0
H2372 H 0.9482 0.49509 0.47203 0.0
H2373 H 0.94109 0.47105 0.4763 0.0
H2374 H 0.96599 0.48064 0.50102 0.0
H2375 H 0.99832 0.48967 0.5008 0.0
H2376 H 0.40488 0.10335 0.29548 0.0
H2377 H 0.38574 0.12427 0.28653 0.0
H2378 H 0.34657 0.0745 0.25891 0.0
H2379 H 0.36553 0.05356 0.26774 0.0
H2380 H 0.37218 0.12425 0.24766 0.0
H2381 H 0.31885 0.1073 0.29481 0.0
H2382 H 0.34085 0.10294 0.29893 0.0
H2383 H 0.32514 0.0869 0.28116 0.0
C2384 C 0.39213 0.0969 0.28764 0.0
C2385 C 0.38666 0.07686 0.28233 0.0
C2386 C 0.38126 0.10883 0.28251 0.0
C2387 C 0.36473 0.10086 0.27223 0.0
C2388 C 0.3592 0.08087 0.26706 0.0
H2389 H 0.27813 0.14486 0.22802 0.0
H2390 H 0.29834 0.12462 0.23571 0.0
C2391 C 0.37007 0.06896 0.27206 0.0
C2392 C 0.35343 0.11337 0.2663 0.0
H2393 H 0.31324 0.12539 0.27164 0.0
C2394 C 0.35934 0.12464 0.25296 0.0
C2395 C 0.33667 0.11365 0.27319 0.0
C2396 C 0.32999 0.10218 0.28793 0.0
C2397 C 0.3487 0.13597 0.24601 0.0
C2398 C 0.33192 0.13626 0.2529 0.0
C2399 C 0.32608 0.12504 0.26632 0.0
C2400 C 0.32032 0.14842 0.24675 0.0
C2401 C 0.35533 0.14715 0.23104 0.0
C2402 C 0.32606 0.16845 0.25029 0.0
C2403 C 0.31463 0.18001 0.24577 0.0
C2404 C 0.29716 0.17174 0.23783 0.0
C2405 C 0.29156 0.15163 0.23394 0.0
C2406 C 0.30304 0.14008 0.23843 0.0
H2407 H 0.36585 0.14128 0.22362 0.0
H2408 H 0.34432 0.14706 0.22047 0.0
H2409 H 0.3611 0.16228 0.23775 0.0
H2410 H 0.33924 0.17519 0.25699 0.0
H2411 H 0.31938 0.19546 0.24876 0.0
H2412 H 0.35243 0.1822 0.53882 0.0
H2413 H 0.37658 0.16538 0.54262 0.0
H2414 H 0.34779 0.11665 0.50197 0.0
H2415 H 0.32342 0.13313 0.49862 0.0
H2416 H 0.36003 0.10501 0.53141 0.0
H2417 H 0.41528 0.15615 0.50971 0.0
H2418 H 0.4047 0.16723 0.52879 0.0
H2419 H 0.39237 0.15786 0.50614 0.0
C2420 C 0.35133 0.16796 0.53059 0.0
C2421 C 0.33601 0.15902 0.5184 0.0
C2422 C 0.36523 0.15839 0.53266 0.0
C2423 C 0.36424 0.13982 0.52234 0.0
C2424 C 0.34897 0.13097 0.51006 0.0
H2425 H 0.45063 0.07726 0.51253 0.0
H2426 H 0.42906 0.09704 0.50736 0.0
C2427 C 0.33502 0.14043 0.50814 0.0
C2428 C 0.37858 0.12911 0.52503 0.0
H2429 H 0.42335 0.13164 0.52453 0.0
C2430 C 0.37385 0.11084 0.5298 0.0
C2431 C 0.39664 0.13649 0.52268 0.0
C2432 C 0.40255 0.15542 0.51636 0.0
C2433 C 0.38659 0.09993 0.53255 0.0
C2434 C 0.40476 0.10767 0.53108 0.0
C2435 C 0.40949 0.12578 0.52594 0.0
C2436 C 0.41893 0.09708 0.53473 0.0
C2437 C 0.38034 0.07999 0.53664 0.0
C2438 C 0.42094 0.09109 0.55206 0.0
C2439 C 0.43313 0.07972 0.55497 0.0
C2440 C 0.44386 0.07431 0.54074 0.0
C2441 C 0.44259 0.08122 0.52378 0.0
C2442 C 0.43022 0.09247 0.52079 0.0
H2443 H 0.36609 0.07412 0.53168 0.0
H2444 H 0.38825 0.06995 0.52982 0.0
H2445 H 0.38183 0.08057 0.55208 0.0
H2446 H 0.41282 0.09493 0.56327 0.0
H2447 H 0.43401 0.07493 0.56832 0.0
H2448 H 0.72614 0.56628 0.28421 0.0
H2449 H 0.74187 0.59976 0.28571 0.0
H2450 H 0.69297 0.61375 0.26711 0.0
H2451 H 0.67721 0.5807 0.26642 0.0
H2452 H 0.75042 0.62332 0.26325 0.0
H2453 H 0.70615 0.65775 0.30836 0.0
H2454 H 0.70416 0.63212 0.30393 0.0
H2455 H 0.69391 0.64349 0.28724 0.0
C2456 C 0.71865 0.5765 0.2806 0.0
C2457 C 0.70016 0.57042 0.27541 0.0
C2458 C 0.72775 0.59587 0.28142 0.0
C2459 C 0.71883 0.61012 0.27706 0.0
C2460 C 0.70043 0.60381 0.27137 0.0
H2461 H 0.74981 0.73226 0.26386 0.0
H2462 H 0.73505 0.69893 0.26393 0.0
C2463 C 0.69132 0.58456 0.27078 0.0
C2464 C 0.72869 0.63116 0.27799 0.0
H2465 H 0.72612 0.67845 0.29286 0.0
C2466 C 0.74505 0.63526 0.26993 0.0
C2467 C 0.7222 0.64737 0.28669 0.0
C2468 C 0.70576 0.64499 0.29721 0.0
C2469 C 0.75448 0.65439 0.26984 0.0
C2470 C 0.74775 0.67051 0.27815 0.0
C2471 C 0.73149 0.66647 0.2863 0.0
C2472 C 0.75717 0.69147 0.27838 0.0
C2473 C 0.77147 0.65715 0.26027 0.0
C2474 C 0.77469 0.69929 0.2868 0.0
C2475 C 0.78322 0.7187 0.28698 0.0
C2476 C 0.77475 0.73122 0.27857 0.0
C2477 C 0.75711 0.72342 0.27041 0.0
C2478 C 0.74852 0.7041 0.27043 0.0
H2479 H 0.77264 0.64387 0.25059 0.0
H2480 H 0.77232 0.66896 0.25214 0.0
H2481 H 0.78296 0.66103 0.27113 0.0
H2482 H 0.7818 0.69042 0.29354 0.0
H2483 H 0.79649 0.72392 0.2939 0.0
H2484 H 0.89517 0.48501 0.76878 0.0
H2485 H 0.87719 0.45308 0.76863 0.0
H2486 H 0.85355 0.47539 0.81805 0.0
H2487 H 0.87174 0.5075 0.81842 0.0
H2488 H 0.8658 0.44293 0.82139 0.0
H2489 H 0.82446 0.43089 0.75386 0.0
H2490 H 0.84769 0.43819 0.75114 0.0
H2491 H 0.83668 0.45441 0.76539 0.0
C2492 C 0.88602 0.48318 0.77951 0.0
C2493 C 0.88485 0.49875 0.7936 0.0
C2494 C 0.87563 0.46495 0.77932 0.0
C2495 C 0.86379 0.46192 0.79312 0.0
C2496 C 0.86249 0.47747 0.80716 0.0
H2497 H 0.79789 0.34513 0.77821 0.0
H2498 H 0.80614 0.38038 0.78449 0.0
C2499 C 0.87288 0.49577 0.80736 0.0
C2500 C 0.85388 0.44222 0.79361 0.0
H2501 H 0.82732 0.40257 0.76605 0.0
C2502 C 0.85713 0.43418 0.80943 0.0
C2503 C 0.84234 0.43091 0.77814 0.0
C2504 C 0.83743 0.43911 0.76126 0.0
C2505 C 0.85001 0.41481 0.80976 0.0
C2506 C 0.83957 0.40307 0.79369 0.0
C2507 C 0.83545 0.41144 0.77832 0.0
C2508 C 0.83405 0.38187 0.79182 0.0
C2509 C 0.85403 0.40718 0.82728 0.0
C2510 C 0.84694 0.37097 0.79375 0.0
C2511 C 0.84219 0.35096 0.79047 0.0
C2512 C 0.82447 0.34141 0.78515 0.0
C2513 C 0.81154 0.3522 0.78293 0.0
C2514 C 0.81628 0.3723 0.78637 0.0
H2515 H 0.85601 0.41863 0.84004 0.0
H2516 H 0.84321 0.39525 0.8292 0.0
H2517 H 0.86651 0.40184 0.82613 0.0
H2518 H 0.86082 0.3779 0.79721 0.0
H2519 H 0.85245 0.34289 0.79179 0.0
H2520 H 0.06528 0.84589 0.0746 0.0
H2521 H 0.06122 0.87396 0.06133 0.0
H2522 H 0.08516 0.91116 0.11326 0.0
H2523 H 0.08952 0.88321 0.12639 0.0
H2524 H 0.04243 0.90088 0.07031 0.0
H2525 H 0.11297 0.93846 0.07712 0.0
H2526 H 0.10624 0.91402 0.08056 0.0
H2527 H 0.10552 0.93371 0.09926 0.0
C2528 C 0.06986 0.86005 0.08316 0.0
C2529 C 0.07793 0.86209 0.10159 0.0
C2530 C 0.06746 0.87622 0.07554 0.0
C2531 C 0.07312 0.89506 0.086 0.0
C2532 C 0.08104 0.89706 0.10449 0.0
H2533 H 0.03668 0.99811 0.063 0.0
H2534 H 0.03972 0.9681 0.07301 0.0
C2535 C 0.08346 0.88092 0.1121 0.0
C2536 C 0.07037 0.91242 0.0778 0.0
H2537 H 0.09175 0.95659 0.07002 0.0
C2538 C 0.05329 0.913 0.07024 0.0
C2539 C 0.08441 0.92838 0.07721 0.0
C2540 C 0.10334 0.92859 0.08379 0.0
C2541 C 0.04986 0.9289 0.06266 0.0
C2542 C 0.06376 0.94519 0.06278 0.0
C2543 C 0.08091 0.94442 0.06996 0.0
C2544 C 0.06092 0.96307 0.05558 0.0
C2545 C 0.03134 0.9278 0.05414 0.0
C2546 C 0.07185 0.97091 0.04254 0.0
C2547 C 0.07006 0.9882 0.03679 0.0
C2548 C 0.05707 0.99814 0.04362 0.0
C2549 C 0.04624 0.99043 0.05674 0.0
C2550 C 0.04802 0.97315 0.0625 0.0
H2551 H 0.02389 0.91269 0.04974 0.0
H2552 H 0.02392 0.93515 0.06477 0.0
H2553 H 0.03167 0.93491 0.0417 0.0
H2554 H 0.08208 0.96382 0.03702 0.0
H2555 H 0.07919 0.99413 0.02736 0.0
H2556 H 0.95381 0.2652 0.91897 0.0
H2557 H 0.92627 0.26781 0.90191 0.0
H2558 H 0.95317 0.27022 0.85135 0.0
H2559 H 0.98067 0.26769 0.86831 0.0
H2560 H 0.93341 0.29828 0.85803 0.0
H2561 H 0.89179 0.22753 0.86303 0.0
H2562 H 0.9018 0.24184 0.88525 0.0
H2563 H 0.91564 0.23315 0.86803 0.0
C2564 C 0.95382 0.26608 0.90417 0.0
C2565 C 0.96953 0.2661 0.89505 0.0
C2566 C 0.93799 0.26751 0.89436 0.0
C2567 C 0.93741 0.26901 0.87516 0.0
C2568 C 0.9531 0.26903 0.86608 0.0
H2569 H 0.84491 0.25666 0.79434 0.0
H2570 H 0.87134 0.25285 0.81237 0.0
C2571 C 0.96887 0.2675 0.87583 0.0
C2572 C 0.92074 0.27117 0.86465 0.0
H2573 H 0.87722 0.24913 0.85042 0.0
C2574 C 0.92114 0.28751 0.85642 0.0
C2575 C 0.90464 0.25709 0.86223 0.0
C2576 C 0.90338 0.23882 0.86994 0.0
C2577 C 0.90604 0.29026 0.84616 0.0
C2578 C 0.88985 0.27638 0.84407 0.0
C2579 C 0.88949 0.25991 0.85208 0.0
C2580 C 0.87333 0.27857 0.83332 0.0
C2581 C 0.90768 0.30787 0.83727 0.0
C2582 C 0.86523 0.29412 0.8391 0.0
C2583 C 0.85005 0.29637 0.82875 0.0
C2584 C 0.84252 0.28315 0.81225 0.0
C2585 C 0.85042 0.26735 0.80674 0.0
C2586 C 0.86554 0.26507 0.81715 0.0
H2587 H 0.92178 0.31462 0.83623 0.0
H2588 H 0.90054 0.30427 0.82295 0.0
H2589 H 0.90164 0.31859 0.84605 0.0
H2590 H 0.87066 0.30459 0.85168 0.0
H2591 H 0.84438 0.30865 0.83359 0.0
H2592 H 0.579 0.259 0.57588 0.0
H2593 H 0.57528 0.22451 0.56312 0.0
H2594 H 0.56947 0.21213 0.61899 0.0
H2595 H 0.57253 0.24624 0.63156 0.0
H2596 H 0.59323 0.19792 0.56807 0.0
H2597 H 0.52703 0.17487 0.59233 0.0
H2598 H 0.53703 0.19983 0.59337 0.0
H2599 H 0.54272 0.18752 0.61174 0.0
C2600 C 0.57679 0.2489 0.58541 0.0
C2601 C 0.57586 0.25551 0.60476 0.0
C2602 C 0.57469 0.2291 0.5781 0.0
C2603 C 0.57161 0.21536 0.58992 0.0
C2604 C 0.57117 0.2221 0.60931 0.0
H2605 H 0.5644 0.09347 0.58491 0.0
H2606 H 0.56903 0.12851 0.59277 0.0
C2607 C 0.57308 0.24178 0.61656 0.0
C2608 C 0.56924 0.19413 0.58222 0.0
H2609 H 0.54297 0.15002 0.58331 0.0
C2610 C 0.58209 0.18752 0.57123 0.0
C2611 C 0.55467 0.18025 0.58608 0.0
C2612 C 0.53949 0.18599 0.59634 0.0
C2613 C 0.58114 0.1677 0.56476 0.0
C2614 C 0.567 0.15388 0.56932 0.0
C2615 C 0.55395 0.16047 0.57991 0.0
C2616 C 0.56573 0.13254 0.56395 0.0
C2617 C 0.59566 0.16159 0.55368 0.0
C2618 C 0.56245 0.12283 0.54504 0.0
C2619 C 0.55972 0.10262 0.54049 0.0
C2620 C 0.56053 0.09166 0.55475 0.0
C2621 C 0.56407 0.10146 0.57356 0.0
C2622 C 0.56665 0.12155 0.57809 0.0
H2623 H 0.60693 0.1738 0.55338 0.0
H2624 H 0.60075 0.15049 0.55985 0.0
H2625 H 0.59019 0.15518 0.53896 0.0
H2626 H 0.56133 0.13082 0.53381 0.0
H2627 H 0.55642 0.09552 0.52592 0.0
H2628 H 0.55292 0.75088 0.37038 0.0
H2629 H 0.57948 0.75348 0.35305 0.0
H2630 H 0.60951 0.79365 0.40043 0.0
H2631 H 0.5831 0.79063 0.41801 0.0
H2632 H 0.59832 0.78264 0.34103 0.0
H2633 H 0.64347 0.75904 0.38964 0.0
H2634 H 0.62 0.75626 0.39218 0.0
H2635 H 0.63502 0.77896 0.40106 0.0
C2636 C 0.56522 0.76011 0.3772 0.0
C2637 C 0.56584 0.77045 0.39567 0.0
C2638 C 0.58045 0.76162 0.36724 0.0
C2639 C 0.59675 0.77352 0.37543 0.0
C2640 C 0.59735 0.78393 0.39387 0.0
H2641 H 0.68127 0.8193 0.30957 0.0
H2642 H 0.65692 0.81412 0.32966 0.0
C2643 C 0.58215 0.78231 0.4039 0.0
C2644 C 0.61275 0.77573 0.3643 0.0
H2645 H 0.65694 0.77417 0.36543 0.0
C2646 C 0.61108 0.78066 0.34639 0.0
C2647 C 0.62948 0.7729 0.37098 0.0
C2648 C 0.63209 0.7663 0.38942 0.0
C2649 C 0.62555 0.78321 0.33528 0.0
C2650 C 0.6425 0.78133 0.34234 0.0
C2651 C 0.6441 0.77592 0.36004 0.0
C2652 C 0.65859 0.78501 0.33155 0.0
C2653 C 0.62238 0.78755 0.31584 0.0
C2654 C 0.66853 0.77084 0.32672 0.0
C2655 C 0.68277 0.77391 0.31537 0.0
C2656 C 0.68734 0.7912 0.30856 0.0
C2657 C 0.67793 0.80568 0.31425 0.0
C2658 C 0.66388 0.80268 0.32567 0.0
H2659 H 0.60816 0.78264 0.31036 0.0
H2660 H 0.62606 0.8033 0.31651 0.0
H2661 H 0.63049 0.7806 0.30569 0.0
H2662 H 0.66491 0.75713 0.33119 0.0
H2663 H 0.68968 0.76244 0.31124 0.0
H2664 H 0.08747 0.24447 0.40492 0.0
H2665 H 0.08201 0.22241 0.42729 0.0
H2666 H 0.06792 0.26694 0.4676 0.0
H2667 H 0.07317 0.28894 0.44534 0.0
H2668 H 0.09773 0.22627 0.46453 0.0
H2669 H 0.02491 0.22168 0.46283 0.0
H2670 H 0.03818 0.2311 0.44534 0.0
H2671 H 0.03817 0.24571 0.46809 0.0
C2672 C 0.08321 0.24953 0.41855 0.0
C2673 C 0.08064 0.26838 0.42333 0.0
C2674 C 0.08012 0.23695 0.43131 0.0
C2675 C 0.07431 0.24298 0.44897 0.0
C2676 C 0.07207 0.26189 0.4539 0.0
H2677 H 0.07307 0.1848 0.54551 0.0
H2678 H 0.07838 0.20844 0.52471 0.0
C2679 C 0.07517 0.27446 0.44119 0.0
C2680 C 0.07062 0.22953 0.46231 0.0
H2681 H 0.03763 0.20728 0.48573 0.0
C2682 C 0.0846 0.22209 0.46917 0.0
C2683 C 0.05343 0.22399 0.46818 0.0
C2684 C 0.03775 0.23087 0.46063 0.0
C2685 C 0.08188 0.20937 0.48192 0.0
C2686 C 0.06478 0.20419 0.48813 0.0
C2687 C 0.05077 0.21148 0.48112 0.0
C2688 C 0.06096 0.19047 0.50119 0.0
C2689 C 0.09723 0.20127 0.48834 0.0
C2690 C 0.04894 0.17286 0.49509 0.0
C2691 C 0.04577 0.15944 0.50695 0.0
C2692 C 0.05451 0.16341 0.52522 0.0
C2693 C 0.06609 0.18135 0.53155 0.0
C2694 C 0.06929 0.19477 0.51962 0.0
H2695 H 0.10829 0.20329 0.47914 0.0
H2696 H 0.10241 0.20871 0.50289 0.0
H2697 H 0.09287 0.18571 0.4885 0.0
H2698 H 0.04226 0.16933 0.48097 0.0
H2699 H 0.03656 0.14588 0.50178 0.0
H2700 H 0.57379 0.27741 0.17192 0.0
H2701 H 0.59976 0.27282 0.18982 0.0
H2702 H 0.57717 0.2895 0.24181 0.0
H2703 H 0.55078 0.29369 0.22386 0.0
H2704 H 0.62432 0.29671 0.21621 0.0
H2705 H 0.58626 0.23695 0.24658 0.0
H2706 H 0.57676 0.24631 0.22778 0.0
H2707 H 0.579 0.25921 0.25164 0.0
C2708 C 0.57438 0.28027 0.18717 0.0
C2709 C 0.56019 0.28577 0.19649 0.0
C2710 C 0.58924 0.27764 0.19738 0.0
C2711 C 0.59025 0.28047 0.21713 0.0
C2712 C 0.57647 0.28682 0.22656 0.0
H2713 H 0.6909 0.27641 0.27734 0.0
H2714 H 0.66404 0.28691 0.26797 0.0
C2715 C 0.56149 0.28936 0.21631 0.0
C2716 C 0.60561 0.27619 0.22753 0.0
H2717 H 0.61714 0.24572 0.2549 0.0
C2718 C 0.62277 0.28569 0.22483 0.0
C2719 C 0.60351 0.26161 0.23854 0.0
C2720 C 0.58542 0.25028 0.24123 0.0
C2721 C 0.63792 0.28071 0.23244 0.0
C2722 C 0.63584 0.26617 0.24349 0.0
C2723 C 0.61868 0.25695 0.24655 0.0
C2724 C 0.65128 0.25945 0.2509 0.0
C2725 C 0.65596 0.29048 0.22781 0.0
C2726 C 0.65262 0.24028 0.24519 0.0
C2727 C 0.66784 0.23419 0.25072 0.0
C2728 C 0.682 0.2472 0.262 0.0
C2729 C 0.68029 0.26617 0.26838 0.0
C2730 C 0.665 0.27219 0.263 0.0
H2731 H 0.65499 0.29773 0.21555 0.0
H2732 H 0.66247 0.30154 0.24011 0.0
H2733 H 0.66461 0.28001 0.22465 0.0
H2734 H 0.64214 0.23018 0.23591 0.0
H2735 H 0.66884 0.21953 0.24553 0.0
H2736 H 0.58532 0.86866 0.88 0.0
H2737 H 0.58202 0.90137 0.89236 0.0
H2738 H 0.60179 0.89648 0.94781 0.0
H2739 H 0.60497 0.86372 0.93567 0.0
H2740 H 0.5602 0.90499 0.93145 0.0
H2741 H 0.62617 0.95304 0.92976 0.0
H2742 H 0.61811 0.93165 0.91205 0.0
H2743 H 0.62504 0.92952 0.93548 0.0
C2744 C 0.58933 0.87471 0.89474 0.0
C2745 C 0.59528 0.86365 0.90694 0.0
C2746 C 0.58745 0.89335 0.90173 0.0
C2747 C 0.59174 0.90119 0.92091 0.0
C2748 C 0.59857 0.89059 0.93292 0.0
H2749 H 0.58661 1.00292 0.99812 0.0
H2750 H 0.59419 0.97466 0.97976 0.0
C2751 C 0.60032 0.87192 0.92598 0.0
C2752 C 0.587 0.91937 0.92896 0.0
H2753 H 0.60412 0.96708 0.94452 0.0
C2754 C 0.56969 0.91865 0.93417 0.0
C2755 C 0.59956 0.93692 0.93257 0.0
C2756 C 0.6183 0.93804 0.92718 0.0
C2757 C 0.56466 0.9351 0.94348 0.0
C2758 C 0.57723 0.9528 0.94714 0.0
C2759 C 0.59451 0.95352 0.94159 0.0
C2760 C 0.57295 0.97045 0.95767 0.0
C2761 C 0.54622 0.93314 0.95002 0.0
C2762 C 0.55868 0.97767 0.95117 0.0
C2763 C 0.55397 0.99354 0.96193 0.0
C2764 C 0.56367 1.00265 0.97922 0.0
C2765 C 0.57848 0.99591 0.98521 0.0
C2766 C 0.583 0.97989 0.97459 0.0
H2767 H 0.54005 0.91799 0.95052 0.0
H2768 H 0.54644 0.94196 0.96423 0.0
H2769 H 0.53762 0.93816 0.94002 0.0
H2770 H 0.55106 0.97092 0.93787 0.0
H2771 H 0.54268 0.99855 0.95671 0.0
H2772 H 0.95607 0.79884 0.68985 0.0
H2773 H 0.92685 0.79176 0.70199 0.0
H2774 H 0.93957 0.74207 0.7204 0.0
H2775 H 0.96882 0.74912 0.70849 0.0
H2776 H 0.90048 0.75684 0.69047 0.0
H2777 H 0.92157 0.7709 0.76727 0.0
H2778 H 0.93606 0.77951 0.75034 0.0
H2779 H 0.9323 0.75473 0.75266 0.0
C2780 C 0.95273 0.78657 0.69673 0.0
C2781 C 0.96475 0.77458 0.6983 0.0
C2782 C 0.93603 0.7825 0.70356 0.0
C2783 C 0.93113 0.76647 0.71218 0.0
C2784 C 0.9432 0.75465 0.71403 0.0
H2785 H 0.83348 0.73538 0.76753 0.0
H2786 H 0.86094 0.73198 0.75272 0.0
C2787 C 0.95988 0.75869 0.70719 0.0
C2788 C 0.91316 0.76181 0.71867 0.0
H2789 H 0.8911 0.75911 0.75808 0.0
C2790 C 0.8984 0.75734 0.70526 0.0
C2791 C 0.91053 0.76208 0.73791 0.0
C2792 C 0.92592 0.76719 0.75294 0.0
C2793 C 0.88101 0.75367 0.71065 0.0
C2794 C 0.87838 0.75486 0.73 0.0
C2795 C 0.89314 0.75835 0.74328 0.0
C2796 C 0.86069 0.75489 0.73702 0.0
C2797 C 0.86568 0.74863 0.69556 0.0
C2798 C 0.85137 0.76865 0.73288 0.0
C2799 C 0.83584 0.77057 0.74128 0.0
C2800 C 0.82963 0.75915 0.7544 0.0
C2801 C 0.83837 0.74469 0.75784 0.0
C2802 C 0.85396 0.74272 0.74937 0.0
H2803 H 0.86935 0.7409 0.6822 0.0
H2804 H 0.85375 0.73959 0.69993 0.0
H2805 H 0.86218 0.76205 0.69262 0.0
H2806 H 0.85648 0.77849 0.72375 0.0
H2807 H 0.82904 0.78144 0.73795 0.0
H2808 H 0.11943 0.99928 0.8141 0.0
H2809 H 0.10518 1.00255 0.84386 0.0
H2810 H 0.15362 0.03907 0.87223 0.0
H2811 H 0.16766 0.03612 0.84253 0.0
H2812 H 0.10793 0.99341 0.87727 0.0
H2813 H 0.12275 0.07247 0.89389 0.0
H2814 H 0.12676 0.05959 0.87147 0.0
H2815 H 0.14264 0.0634 0.89169 0.0
C2816 C 0.12713 0.00814 0.8266 0.0
C2817 C 0.14494 0.01749 0.82528 0.0
C2818 C 0.11884 0.01002 0.84394 0.0
C2819 C 0.12778 0.02153 0.86104 0.0
C2820 C 0.14571 0.03059 0.85971 0.0
H2821 H 0.10099 0.05111 0.98152 0.0
H2822 H 0.11495 0.0475 0.95169 0.0
C2823 C 0.15397 0.0287 0.84241 0.0
C2824 C 0.11862 0.02367 0.87996 0.0
H2825 H 0.11194 0.05654 0.91845 0.0
C2826 C 0.10883 0.00735 0.88606 0.0
C2827 C 0.11933 0.04164 0.89224 0.0
C2828 C 0.12827 0.06029 0.88694 0.0
C2829 C 0.10053 0.00832 0.90348 0.0
C2830 C 0.10126 0.02628 0.91578 0.0
C2831 C 0.11104 0.0426 0.90966 0.0
C2832 C 0.09223 0.02846 0.93478 0.0
C2833 C 0.09156 0.98968 0.90878 0.0
C2834 C 0.07433 0.01944 0.93631 0.0
C2835 C 0.0662 0.0215 0.9537 0.0
C2836 C 0.07537 0.03284 0.97072 0.0
C2837 C 0.09317 0.0421 0.96916 0.0
C2838 C 0.1013 0.04005 0.95176 0.0
H2839 H 0.09699 0.97746 0.90176 0.0
H2840 H 0.09314 0.99035 0.92425 0.0
H2841 H 0.07717 0.98664 0.90412 0.0
H2842 H 0.06632 0.01089 0.92388 0.0
H2843 H 0.0525 0.01415 0.95371 0.0
H2844 H 0.77156 0.37609 0.5453 0.0
H2845 H 0.76915 0.35173 0.56534 0.0
H2846 H 0.81325 0.38728 0.6027 0.0
H2847 H 0.81565 0.41169 0.5829 0.0
H2848 H 0.79589 0.33254 0.57339 0.0
H2849 H 0.77609 0.37168 0.6388 0.0
H2850 H 0.77408 0.37919 0.61635 0.0
H2851 H 0.79515 0.38525 0.63029 0.0
C2852 C 0.78055 0.37882 0.55795 0.0
C2853 C 0.79377 0.39578 0.56259 0.0
C2854 C 0.77918 0.3649 0.56933 0.0
C2855 C 0.79088 0.36783 0.58558 0.0
C2856 C 0.80386 0.38492 0.59041 0.0
H2857 H 0.83553 0.2971 0.64717 0.0
H2858 H 0.82634 0.31407 0.62318 0.0
C2859 C 0.80527 0.3988 0.57904 0.0
C2860 C 0.79047 0.35259 0.59689 0.0
H2861 H 0.78899 0.34468 0.64196 0.0
C2862 C 0.79408 0.33502 0.58832 0.0
C2863 C 0.78784 0.35578 0.61626 0.0
C2864 C 0.78289 0.37393 0.62594 0.0
C2865 C 0.79615 0.32095 0.59892 0.0
C2866 C 0.79481 0.32474 0.61857 0.0
C2867 C 0.79018 0.34186 0.6269 0.0
C2868 C 0.79941 0.31194 0.63107 0.0
C2869 C 0.8 0.30231 0.58903 0.0
C2870 C 0.7873 0.30503 0.64339 0.0
C2871 C 0.79256 0.29543 0.65717 0.0
C2872 C 0.81005 0.29267 0.65891 0.0
C2873 C 0.82191 0.2988 0.64599 0.0
C2874 C 0.81665 0.30846 0.63225 0.0
H2875 H 0.79486 0.29905 0.57392 0.0
H2876 H 0.8146 0.3035 0.5897 0.0
H2877 H 0.79404 0.29014 0.5958 0.0
H2878 H 0.77395 0.30763 0.64273 0.0
H2879 H 0.7831 0.29068 0.66684 0.0
H2880 H 0.44075 0.06715 0.35969 0.0
H2881 H 0.46024 0.0697 0.38833 0.0
H2882 H 0.48888 0.03073 0.35786 0.0
H2883 H 0.46967 0.02829 0.3292 0.0
H2884 H 0.46415 0.03924 0.40596 0.0
H2885 H 0.52889 0.07475 0.38485 0.0
H2886 H 0.5079 0.07441 0.37234 0.0
H2887 H 0.51763 0.05366 0.36847 0.0
C2888 C 0.45132 0.05929 0.35908 0.0
C2889 C 0.45371 0.04754 0.34224 0.0
C2890 C 0.46243 0.06077 0.37541 0.0
C2891 C 0.47615 0.05063 0.37511 0.0
C2892 C 0.47863 0.039 0.35828 0.0
H2893 H 0.54602 0.02706 0.4624 0.0
H2894 H 0.53121 0.02899 0.43209 0.0
C2895 C 0.46755 0.03752 0.34196 0.0
C2896 C 0.48708 0.05113 0.39268 0.0
H2897 H 0.52973 0.06206 0.41314 0.0
C2898 C 0.47847 0.04436 0.40759 0.0
C2899 C 0.50577 0.05767 0.39465 0.0
C2900 C 0.51561 0.06569 0.3793 0.0
C2901 C 0.48807 0.04372 0.42437 0.0
C2902 C 0.50674 0.0503 0.42637 0.0
C2903 C 0.5154 0.05701 0.41147 0.0
C2904 C 0.5173 0.05067 0.4441 0.0
C2905 C 0.4782 0.03571 0.43974 0.0
C2906 C 0.51478 0.06268 0.46065 0.0
C2907 C 0.52318 0.06163 0.47785 0.0
C2908 C 0.53436 0.04865 0.47878 0.0
C2909 C 0.53759 0.03729 0.46206 0.0
C2910 C 0.52911 0.03833 0.44479 0.0
H2911 H 0.46468 0.02719 0.43436 0.0
H2912 H 0.48564 0.02647 0.44626 0.0
H2913 H 0.47677 0.04775 0.45091 0.0
H2914 H 0.50592 0.0725 0.46031 0.0
H2915 H 0.5206 0.07072 0.49049 0.0
H2916 H 0.79952 0.69011 0.08031 0.0
H2917 H 0.79941 0.70678 0.11267 0.0
H2918 H 0.79042 0.75692 0.09221 0.0
H2919 H 0.79042 0.7402 0.0596 0.0
H2920 H 0.82204 0.74143 0.13134 0.0
H2921 H 0.7511 0.74717 0.12845 0.0
H2922 H 0.75933 0.73088 0.11101 0.0
H2923 H 0.764 0.75611 0.11059 0.0
C2924 C 0.79749 0.70468 0.08264 0.0
C2925 C 0.79495 0.7138 0.06733 0.0
C2926 C 0.79744 0.7142 0.10119 0.0
C2927 C 0.7947 0.73304 0.10493 0.0
C2928 C 0.79227 0.74229 0.08969 0.0
H2929 H 0.80084 0.79899 0.22219 0.0
H2930 H 0.7986 0.79264 0.18733 0.0
C2931 C 0.79238 0.73276 0.07107 0.0
C2932 C 0.79485 0.74288 0.12486 0.0
H2933 H 0.7682 0.75903 0.15763 0.0
C2934 C 0.81033 0.74553 0.13699 0.0
C2935 C 0.77958 0.74827 0.1323 0.0
C2936 C 0.76248 0.7454 0.12002 0.0
C2937 C 0.81079 0.75284 0.15636 0.0
C2938 C 0.79536 0.75751 0.16391 0.0
C2939 C 0.78005 0.75559 0.15175 0.0
C2940 C 0.7944 0.76177 0.18465 0.0
C2941 C 0.82762 0.75487 0.16885 0.0
C2942 C 0.79237 0.74656 0.19456 0.0
C2943 C 0.7936 0.75013 0.21421 0.0
C2944 C 0.79662 0.76899 0.22446 0.0
C2945 C 0.7981 0.78431 0.2146 0.0
C2946 C 0.7969 0.78069 0.19475 0.0
H2947 H 0.83924 0.75396 0.16056 0.0
H2948 H 0.83047 0.76877 0.17891 0.0
H2949 H 0.82586 0.7432 0.1772 0.0
H2950 H 0.79048 0.73189 0.18706 0.0
H2951 H 0.79263 0.7381 0.22148 0.0
H2952 H 0.11684 0.01288 0.72556 0.0
H2953 H 0.10212 0.01637 0.69564 0.0
H2954 H 0.15222 0.02216 0.67138 0.0
H2955 H 0.16678 0.01831 0.70104 0.0
H2956 H 0.10207 0.04225 0.67395 0.0
H2957 H 0.12543 0.9849 0.62837 0.0
H2958 H 0.12863 0.98837 0.65368 0.0
H2959 H 0.14371 1.00278 0.64087 0.0
C2960 C 0.12481 0.01469 0.71385 0.0
C2961 C 0.14327 0.01498 0.71626 0.0
C2962 C 0.11626 0.01681 0.69644 0.0
C2963 C 0.12555 0.01919 0.68024 0.0
C2964 C 0.14407 0.01975 0.68282 0.0
H2965 H 0.10275 0.03444 0.56169 0.0
H2966 H 0.11485 0.0316 0.59269 0.0
C2967 C 0.15261 0.01765 0.70019 0.0
C2968 C 0.11614 0.02131 0.66111 0.0
H2969 H 0.11249 0.00573 0.61267 0.0
C2970 C 0.10438 0.03406 0.66065 0.0
C2971 C 0.11855 0.0109 0.64307 0.0
C2972 C 0.1296 0.99583 0.64146 0.0
C2973 C 0.0959 0.03706 0.64347 0.0
C2974 C 0.09854 0.02682 0.62542 0.0
C2975 C 0.11012 0.01393 0.62595 0.0
C2976 C 0.09025 0.02959 0.60598 0.0
C2977 C 0.08467 0.05193 0.64492 0.0
C2978 C 0.07194 0.02966 0.60184 0.0
C2979 C 0.06479 0.03144 0.58354 0.0
C2980 C 0.07558 0.03332 0.56838 0.0
C2981 C 0.09375 0.0333 0.57265 0.0
C2982 C 0.10082 0.03151 0.59072 0.0
H2983 H 0.08797 0.06233 0.65847 0.0
H2984 H 0.08644 0.06001 0.63317 0.0
H2985 H 0.07047 0.04469 0.64425 0.0
H2986 H 0.06287 0.02774 0.61259 0.0
H2987 H 0.0507 0.03083 0.58119 0.0
H2988 H 0.77305 0.38648 0.46958 0.0
H2989 H 0.77298 0.364 0.44008 0.0
H2990 H 0.83029 0.37539 0.4467 0.0
H2991 H 0.83039 0.39724 0.47643 0.0
H2992 H 0.78621 0.37158 0.40884 0.0
H2993 H 0.81929 0.31804 0.4333 0.0
H2994 H 0.81119 0.33564 0.4494 0.0
H2995 H 0.83257 0.34185 0.4405 0.0
C2996 C 0.7856 0.38398 0.46482 0.0
C2997 C 0.80172 0.39354 0.47528 0.0
C2998 C 0.78555 0.37113 0.44801 0.0
C2999 C 0.80161 0.36772 0.44136 0.0
C3000 C 0.81771 0.3773 0.45183 0.0
H3001 H 0.82026 0.33637 0.32576 0.0
H3002 H 0.81943 0.35162 0.35835 0.0
C3003 C 0.81776 0.38995 0.46872 0.0
C3004 C 0.80168 0.35542 0.42276 0.0
H3005 H 0.81906 0.31889 0.40006 0.0
C3006 C 0.7932 0.3599 0.40698 0.0
C3007 C 0.81055 0.33997 0.42033 0.0
C3008 C 0.81874 0.33346 0.43683 0.0
C3009 C 0.79394 0.34987 0.38877 0.0
C3010 C 0.80391 0.33537 0.38623 0.0
C3011 C 0.81175 0.33029 0.40204 0.0
C3012 C 0.80645 0.32557 0.3672 0.0
C3013 C 0.78397 0.35489 0.37245 0.0
C3014 C 0.80057 0.30562 0.36173 0.0
C3015 C 0.80134 0.29675 0.34313 0.0
C3016 C 0.80775 0.30774 0.32968 0.0
C3017 C 0.81483 0.3275 0.33561 0.0
C3018 C 0.81426 0.3363 0.35422 0.0
H3019 H 0.77292 0.36177 0.37715 0.0
H3020 H 0.7932 0.36522 0.36589 0.0
H3021 H 0.77841 0.34194 0.36153 0.0
H3022 H 0.7948 0.29702 0.37166 0.0
H3023 H 0.79638 0.28139 0.33918 0.0
H3024 H 0.43472 0.02074 0.22964 0.0
H3025 H 0.45485 0.02111 0.2046 0.0
H3026 H 0.49231 0.06803 0.2396 0.0
H3027 H 0.47207 0.06803 0.26457 0.0
H3028 H 0.48762 0.0731 0.20282 0.0
H3029 H 0.50022 1.00065 0.20509 0.0
H3030 H 0.47711 1.00096 0.20139 0.0
H3031 H 0.48957 0.0134 0.22325 0.0
C3032 C 0.44723 0.03117 0.23197 0.0
C3033 C 0.45191 0.04428 0.24908 0.0
C3034 C 0.45875 0.03128 0.21771 0.0
C3035 C 0.47521 0.04432 0.22043 0.0
C3036 C 0.47971 0.05776 0.23731 0.0
H3037 H 0.56467 0.06407 0.15246 0.0
H3038 H 0.54517 0.0643 0.17818 0.0
C3039 C 0.46814 0.05774 0.25153 0.0
C3040 C 0.48774 0.04398 0.20565 0.0
H3041 H 0.51121 0.01526 0.17974 0.0
C3042 C 0.49288 0.06052 0.19785 0.0
C3043 C 0.49458 0.02753 0.19926 0.0
C3044 C 0.49024 0.00969 0.20779 0.0
C3045 C 0.50441 0.06089 0.18349 0.0
C3046 C 0.51106 0.04437 0.17697 0.0
C3047 C 0.50601 0.02788 0.18481 0.0
C3048 C 0.52306 0.04382 0.16175 0.0
C3049 C 0.50911 0.07877 0.17509 0.0
C3050 C 0.51716 0.03187 0.14424 0.0
C3051 C 0.52824 0.03165 0.1296 0.0
C3052 C 0.54547 0.04328 0.1323 0.0
C3053 C 0.5515 0.05488 0.15003 0.0
C3054 C 0.54035 0.05516 0.16465 0.0
H3055 H 0.50027 0.08887 0.17915 0.0
H3056 H 0.52299 0.08628 0.18014 0.0
H3057 H 0.50826 0.07503 0.15946 0.0
H3058 H 0.50387 0.02292 0.14184 0.0
H3059 H 0.52334 0.02239 0.11615 0.0
H3060 H 0.81051 0.73425 0.97444 0.0
H3061 H 0.81072 0.74693 0.945 0.0
H3062 H 0.78278 0.69143 0.91466 0.0
H3063 H 0.7824 0.67875 0.94394 0.0
H3064 H 0.82496 0.73488 0.91086 0.0
H3065 H 0.75201 0.72726 0.8994 0.0
H3066 H 0.76291 0.72595 0.92172 0.0
H3067 H 0.75867 0.70558 0.90271 0.0
C3068 C 0.8044 0.72476 0.96149 0.0
C3069 C 0.79635 0.70551 0.96158 0.0
C3070 C 0.80454 0.73202 0.94467 0.0
C3071 C 0.7965 0.72024 0.92761 0.0
C3072 C 0.78873 0.70094 0.92765 0.0
H3073 H 0.78102 0.73331 0.81091 0.0
H3074 H 0.78143 0.7221 0.84084 0.0
C3075 C 0.78862 0.69367 0.94442 0.0
C3076 C 0.79641 0.72798 0.90974 0.0
H3077 H 0.76882 0.73489 0.87411 0.0
C3078 C 0.81269 0.73501 0.90289 0.0
C3079 C 0.78041 0.7281 0.89926 0.0
C3080 C 0.7625 0.72149 0.90619 0.0
C3081 C 0.8134 0.74167 0.88567 0.0
C3082 C 0.79738 0.74174 0.87515 0.0
C3083 C 0.78111 0.73483 0.88209 0.0
C3084 C 0.79716 0.74877 0.85686 0.0
C3085 C 0.83132 0.74801 0.87864 0.0
C3086 C 0.80565 0.7676 0.85576 0.0
C3087 C 0.80538 0.77407 0.83856 0.0
C3088 C 0.79639 0.76198 0.82201 0.0
C3089 C 0.78777 0.74319 0.82324 0.0
C3090 C 0.7881 0.73669 0.84043 0.0
H3091 H 0.8417 0.74206 0.88537 0.0
H3092 H 0.83084 0.74353 0.86311 0.0
H3093 H 0.83537 0.7639 0.88215 0.0
H3094 H 0.81239 0.7774 0.86826 0.0
H3095 H 0.81213 0.78866 0.83833 0.0
H3096 H 0.85325 0.12125 0.0062 0.0
H3097 H 0.87507 0.10135 0.99913 0.0
H3098 H 0.84123 0.05449 0.01812 0.0
H3099 H 0.81922 0.07431 0.02519 0.0
H3100 H 0.8794 0.0645 0.03291 0.0
H3101 H 0.86836 0.0537 0.95485 0.0
H3102 H 0.87134 0.07806 0.9672 0.0
H3103 H 0.85212 0.06055 0.97026 0.0
C3104 C 0.85043 0.1067 0.00886 0.0
C3105 C 0.83452 0.0993 0.0162 0.0
C3106 C 0.86287 0.09535 0.00474 0.0
C3107 C 0.85963 0.07642 0.00793 0.0
C3108 C 0.84388 0.06904 0.01549 0.0
H3109 H 0.92804 0.99291 0.99809 0.0
H3110 H 0.90348 0.00908 0.00461 0.0
C3111 C 0.83135 0.08036 0.01949 0.0
C3112 C 0.87291 0.06452 1.00361 0.0
H3113 H 0.89327 0.04379 0.96732 0.0
C3114 C 0.88237 0.05979 0.01858 0.0
C3115 C 0.87671 0.05852 0.9849 0.0
C3116 C 0.86654 0.0628 0.96832 0.0
C3117 C 0.89601 0.04971 0.01537 0.0
C3118 C 0.89995 0.04384 0.99664 0.0
C3119 C 0.89024 0.04831 0.98166 0.0
C3120 C 0.91451 0.03364 0.99228 0.0
C3121 C 0.90651 0.04608 0.0321 0.0
C3122 C 0.92855 0.04174 0.98262 0.0
C3123 C 0.94243 0.03238 0.97857 0.0
C3124 C 0.94255 0.01469 0.98409 0.0
C3125 C 0.9283 0.00644 0.99351 0.0
C3126 C 0.91436 0.01579 0.99748 0.0
H3127 H 0.90491 0.05567 0.04535 0.0
H3128 H 0.90171 0.03103 0.0339 0.0
H3129 H 0.92087 0.04819 0.02995 0.0
H3130 H 0.92885 0.05543 0.97834 0.0
H3131 H 0.95303 0.03898 0.97101 0.0
H3132 H 0.37095 0.40195 0.04301 0.0
H3133 H 0.40141 0.42032 0.04338 0.0
H3134 H 0.38176 0.47217 0.04442 0.0
H3135 H 0.35131 0.45385 0.04371 0.0
H3136 H 0.4052 0.46831 0.01819 0.0
H3137 H 0.43359 0.45681 0.08626 0.0
H3138 H 0.42341 0.43488 0.07046 0.0
H3139 H 0.40998 0.45136 0.0796 0.0
C3140 C 0.37314 0.41729 0.04348 0.0
C3141 C 0.35871 0.42645 0.04336 0.0
C3142 C 0.39058 0.42781 0.04382 0.0
C3143 C 0.39395 0.44771 0.04422 0.0
C3144 C 0.37954 0.45686 0.04421 0.0
H3145 H 0.49843 0.52639 0.06253 0.0
H3146 H 0.46821 0.50932 0.06578 0.0
C3147 C 0.36212 0.44637 0.04382 0.0
C3148 C 0.41234 0.45886 0.04366 0.0
H3149 H 0.45423 0.47053 0.0663 0.0
C3150 C 0.41588 0.46886 0.02877 0.0
C3151 C 0.42627 0.45983 0.05759 0.0
C3152 C 0.42313 0.45031 0.07449 0.0
C3153 C 0.43298 0.47942 0.02721 0.0
C3154 C 0.44707 0.47972 0.0407 0.0
C3155 C 0.44347 0.47012 0.05585 0.0
C3156 C 0.46564 0.48973 0.0391 0.0
C3157 C 0.43576 0.49034 0.01121 0.0
C3158 C 0.47441 0.48413 0.02325 0.0
C3159 C 0.49157 0.49395 0.02127 0.0
C3160 C 0.50045 0.50958 0.03516 0.0
C3161 C 0.49188 0.51472 0.05137 0.0
C3162 C 0.47464 0.50489 0.05332 0.0
H3163 H 0.42307 0.49307 0.00543 0.0
H3164 H 0.4453 0.5043 0.01583 0.0
H3165 H 0.44124 0.48174 0.99964 0.0
H3166 H 0.46791 0.47219 0.01231 0.0
H3167 H 0.49777 0.48937 0.00869 0.0
H3168 H 0.4229 0.64074 0.78863 0.0
H3169 H 0.40726 0.6672 0.78848 0.0
H3170 H 0.35959 0.62647 0.76401 0.0
H3171 H 0.37511 0.6001 0.7646 0.0
H3172 H 0.39333 0.68494 0.76623 0.0
H3173 H 0.33428 0.6552 0.79982 0.0
H3174 H 0.35323 0.64415 0.79842 0.0
H3175 H 0.33667 0.63934 0.77864 0.0
C3176 C 0.40902 0.63721 0.78333 0.0
C3177 C 0.40062 0.61759 0.7768 0.0
C3178 C 0.39987 0.65269 0.78318 0.0
C3179 C 0.38158 0.64973 0.77665 0.0
C3180 C 0.37329 0.63007 0.76988 0.0
H3181 H 0.336 0.74624 0.7425 0.0
H3182 H 0.34981 0.71919 0.74492 0.0
C3183 C 0.38243 0.61461 0.77003 0.0
C3184 C 0.37166 0.6669 0.77646 0.0
H3185 H 0.33238 0.6822 0.78563 0.0
C3186 C 0.37999 0.68404 0.77056 0.0
C3187 C 0.35415 0.66704 0.78233 0.0
C3188 C 0.34411 0.65056 0.79035 0.0
C3189 C 0.37172 0.70016 0.76992 0.0
C3190 C 0.35393 0.69995 0.77497 0.0
C3191 C 0.34574 0.68306 0.78136 0.0
C3192 C 0.34388 0.71677 0.77343 0.0
C3193 C 0.3827 0.71771 0.76429 0.0
C3194 C 0.33444 0.72502 0.78807 0.0
C3195 C 0.32604 0.74096 0.78658 0.0
C3196 C 0.32627 0.74937 0.77015 0.0
C3197 C 0.33524 0.74068 0.7555 0.0
C3198 C 0.34355 0.72497 0.75698 0.0
H3199 H 0.39715 0.71861 0.76733 0.0
H3200 H 0.38013 0.71683 0.74889 0.0
H3201 H 0.37939 0.7311 0.77177 0.0
H3202 H 0.3339 0.71946 0.80106 0.0
H3203 H 0.31964 0.74687 0.79849 0.0
H3204 H 0.23311 0.64341 0.55131 0.0
H3205 H 0.20073 0.63492 0.5479 0.0
H3206 H 0.20223 0.57797 0.5191 0.0
H3207 H 0.23478 0.58663 0.52193 0.0
H3208 H 0.18085 0.59422 0.49979 0.0
H3209 H 0.16471 0.6032 0.57407 0.0
H3210 H 0.17891 0.62433 0.56913 0.0
H3211 H 0.18685 0.60241 0.56758 0.0
C3212 C 0.22656 0.62896 0.54456 0.0
C3213 C 0.23645 0.61566 0.53687 0.0
C3214 C 0.20803 0.62409 0.54273 0.0
C3215 C 0.19905 0.60573 0.53349 0.0
C3216 C 0.20892 0.5922 0.52636 0.0
H3217 H 0.08973 0.55056 0.49909 0.0
H3218 H 0.12191 0.55914 0.50545 0.0
C3219 C 0.22748 0.59713 0.52802 0.0
C3220 C 0.17945 0.60126 0.52979 0.0
H3221 H 0.14095 0.60173 0.55085 0.0
C3222 C 0.17211 0.59557 0.51099 0.0
C3223 C 0.16808 0.60332 0.54439 0.0
C3224 C 0.17503 0.60847 0.56493 0.0
C3225 C 0.15372 0.59195 0.50637 0.0
C3226 C 0.14238 0.59397 0.52097 0.0
C3227 C 0.14969 0.6 0.53973 0.0
C3228 C 0.12283 0.58896 0.51712 0.0
C3229 C 0.14661 0.58637 0.48588 0.0
C3230 C 0.11264 0.60282 0.52187 0.0
C3231 C 0.09411 0.59778 0.51859 0.0
C3232 C 0.08558 0.57874 0.51101 0.0
C3233 C 0.09585 0.56508 0.50579 0.0
C3234 C 0.1143 0.57008 0.50906 0.0
H3235 H 0.15697 0.59083 0.47646 0.0
H3236 H 0.14211 0.57053 0.48219 0.0
H3237 H 0.13511 0.59289 0.4831 0.0
H3238 H 0.11903 0.61748 0.52807 0.0
H3239 H 0.08642 0.60862 0.5223 0.0
H3240 H 0.69643 0.97119 0.76726 0.0
H3241 H 0.71176 0.94737 0.77667 0.0
H3242 H 0.75959 0.97439 0.75514 0.0
H3243 H 0.7443 0.99837 0.74559 0.0
H3244 H 0.73127 0.92165 0.75353 0.0
H3245 H 0.77279 0.97424 0.81261 0.0
H3246 H 0.75269 0.97856 0.80184 0.0
H3247 H 0.77244 0.98068 0.78964 0.0
C3248 C 0.71017 0.97199 0.76437 0.0
C3249 C 0.71921 0.98669 0.75579 0.0
C3250 C 0.71888 0.95836 0.76973 0.0
C3251 C 0.73681 0.95929 0.76675 0.0
C3252 C 0.74578 0.97359 0.75769 0.0
H3253 H 0.80737 0.89357 0.81114 0.0
H3254 H 0.7956 0.91656 0.79561 0.0
C3255 C 0.73702 0.9872 0.7522 0.0
C3256 C 0.74614 0.94562 0.77385 0.0
H3257 H 0.77586 0.94223 0.80911 0.0
C3258 C 0.74113 0.92611 0.76558 0.0
C3259 C 0.75901 0.95158 0.78952 0.0
C3260 C 0.76456 0.97237 0.79907 0.0
C3261 C 0.74855 0.91231 0.77273 0.0
C3262 C 0.76093 0.91818 0.78887 0.0
C3263 C 0.7663 0.93777 0.7968 0.0
C3264 C 0.76804 0.90417 0.79814 0.0
C3265 C 0.74312 0.89161 0.76286 0.0
C3266 C 0.75647 0.88983 0.80502 0.0
C3267 C 0.76316 0.87663 0.81376 0.0
C3268 C 0.78153 0.87764 0.816 0.0
C3269 C 0.79312 0.89229 0.80946 0.0
C3270 C 0.78643 0.90546 0.80064 0.0
H3271 H 0.73817 0.89041 0.7479 0.0
H3272 H 0.75438 0.88422 0.76332 0.0
H3273 H 0.73219 0.88403 0.76999 0.0
H3274 H 0.74225 0.88882 0.80364 0.0
H3275 H 0.75395 0.86538 0.81839 0.0
H3276 H 0.77771 0.94767 0.5554 0.0
H3277 H 0.7545 0.96577 0.55223 0.0
H3278 H 0.724 0.9184 0.51123 0.0
H3279 H 0.74695 0.9 0.51482 0.0
H3280 H 0.74344 0.97835 0.52267 0.0
H3281 H 0.68591 0.93001 0.54409 0.0
H3282 H 0.70838 0.92692 0.54774 0.0
H3283 H 0.69599 0.91814 0.52505 0.0
C3284 C 0.76594 0.941 0.5459 0.0
C3285 C 0.76414 0.92234 0.53544 0.0
C3286 C 0.75268 0.95139 0.54406 0.0
C3287 C 0.7373 0.94342 0.53168 0.0
C3288 C 0.73545 0.92474 0.52126 0.0
H3289 H 0.67126 0.01216 0.48532 0.0
H3290 H 0.69227 0.99205 0.49072 0.0
C3291 C 0.74866 0.91425 0.52323 0.0
C3292 C 0.72377 0.95511 0.52896 0.0
H3293 H 0.67942 0.95514 0.52915 0.0
C3294 C 0.72946 0.97327 0.5242 0.0
C3295 C 0.70551 0.94872 0.53119 0.0
C3296 C 0.69859 0.92997 0.53749 0.0
C3297 C 0.71748 0.98502 0.52134 0.0
C3298 C 0.69911 0.97827 0.52272 0.0
C3299 C 0.69344 0.96026 0.52782 0.0
C3300 C 0.68567 0.98976 0.51909 0.0
C3301 C 0.72475 1.00476 0.51726 0.0
C3302 C 0.67433 0.99456 0.53289 0.0
C3303 C 0.66211 0.0059 0.52974 0.0
C3304 C 0.66098 0.01273 0.51271 0.0
C3305 C 0.67202 0.00748 0.49874 0.0
C3306 C 0.6841 0.99601 0.50183 0.0
H3307 H 0.73905 0.0099 0.52232 0.0
H3308 H 0.72349 1.00419 0.5018 0.0
H3309 H 0.71734 0.01538 0.52398 0.0
H3310 H 0.67517 0.98984 0.54629 0.0
H3311 H 0.65387 0.00973 0.54083 0.0
H3312 H 0.37287 0.51436 0.76565 0.0
H3313 H 0.3569 0.48106 0.76498 0.0
H3314 H 0.40638 0.46565 0.77882 0.0
H3315 H 0.42233 0.49873 0.7793 0.0
H3316 H 0.35995 0.44486 0.74295 0.0
H3317 H 0.37566 0.44471 0.81851 0.0
H3318 H 0.37843 0.46662 0.80915 0.0
H3319 H 0.39467 0.45196 0.80606 0.0
C3320 C 0.38041 0.50394 0.76857 0.0
C3321 C 0.39908 0.50965 0.77259 0.0
C3322 C 0.37119 0.48469 0.76816 0.0
C3323 C 0.38015 0.47037 0.7721 0.0
C3324 C 0.3988 0.47609 0.77602 0.0
H3325 H 0.34953 0.34826 0.78545 0.0
H3326 H 0.36437 0.38134 0.78476 0.0
C3327 C 0.40803 0.49522 0.77619 0.0
C3328 C 0.3702 0.44963 0.77196 0.0
H3329 H 0.36193 0.41486 0.79949 0.0
C3330 C 0.36035 0.43841 0.7554 0.0
C3331 C 0.37057 0.44063 0.78798 0.0
C3332 C 0.38025 0.45158 0.80651 0.0
C3333 C 0.3515 0.41883 0.75426 0.0
C3334 C 0.35167 0.40982 0.77037 0.0
C3335 C 0.36149 0.42118 0.78697 0.0
C3336 C 0.34218 0.38883 0.77036 0.0
C3337 C 0.34273 0.40783 0.73535 0.0
C3338 C 0.32439 0.38108 0.76265 0.0
C3339 C 0.31586 0.36174 0.76276 0.0
C3340 C 0.32446 0.34925 0.77102 0.0
C3341 C 0.34217 0.35705 0.77891 0.0
C3342 C 0.35077 0.3763 0.77859 0.0
H3343 H 0.34878 0.41416 0.72362 0.0
H3344 H 0.34374 0.39255 0.73329 0.0
H3345 H 0.32848 0.40852 0.73439 0.0
H3346 H 0.31685 0.39005 0.75668 0.0
H3347 H 0.30241 0.35661 0.7563 0.0
H3348 H 0.22883 0.57642 0.28662 0.0
H3349 H 0.24451 0.61021 0.2933 0.0
H3350 H 0.23601 0.61325 0.23455 0.0
H3351 H 0.22053 0.57952 0.22773 0.0
H3352 H 0.27073 0.63217 0.25209 0.0
H3353 H 0.2163 0.65315 0.2929 0.0
H3354 H 0.22645 0.63508 0.30042 0.0
H3355 H 0.21373 0.62993 0.27793 0.0
C3356 C 0.23053 0.58423 0.2751 0.0
C3357 C 0.22333 0.5754 0.25668 0.0
C3358 C 0.2394 0.60353 0.27895 0.0
C3359 C 0.24116 0.61425 0.26446 0.0
C3360 C 0.23474 0.6052 0.24594 0.0
H3361 H 0.246 0.73265 0.26522 0.0
H3362 H 0.2395 0.69771 0.26221 0.0
C3363 C 0.22587 0.58596 0.24207 0.0
C3364 C 0.24871 0.63516 0.26854 0.0
H3365 H 0.23961 0.67791 0.2886 0.0
C3366 C 0.26405 0.64225 0.26018 0.0
C3367 C 0.23991 0.64816 0.2791 0.0
C3368 C 0.22311 0.6413 0.28804 0.0
C3369 C 0.27051 0.66206 0.2615 0.0
C3370 C 0.2614 0.67515 0.2716 0.0
C3371 C 0.24648 0.66795 0.28065 0.0
C3372 C 0.26614 0.69623 0.272 0.0
C3373 C 0.28651 0.66859 0.25133 0.0
C3374 C 0.28335 0.70712 0.2782 0.0
C3375 C 0.28716 0.72707 0.27937 0.0
C3376 C 0.27376 0.73647 0.27468 0.0
C3377 C 0.25658 0.72564 0.26865 0.0
C3378 C 0.25288 0.70572 0.26704 0.0
H3379 H 0.28875 0.657 0.24008 0.0
H3380 H 0.28493 0.68098 0.24489 0.0
H3381 H 0.29852 0.67303 0.26152 0.0
H3382 H 0.2937 0.70033 0.28269 0.0
H3383 H 0.30038 0.73516 0.28466 0.0
H3384 H 0.52145 0.70017 0.42317 0.0
H3385 H 0.52545 0.67237 0.43681 0.0
H3386 H 0.52804 0.70573 0.49263 0.0
H3387 H 0.52412 0.7337 0.47901 0.0
H3388 H 0.55414 0.66873 0.46091 0.0
H3389 H 0.49181 0.65629 0.49627 0.0
H3390 H 0.49491 0.67096 0.47834 0.0
H3391 H 0.50518 0.68028 0.50186 0.0
C3392 C 0.52274 0.70164 0.43837 0.0
C3393 C 0.52235 0.71936 0.4499 0.0
C3394 C 0.52507 0.68563 0.44621 0.0
C3395 C 0.52685 0.68658 0.46587 0.0
C3396 C 0.52639 0.70425 0.47745 0.0
H3397 H 0.53698 0.59383 0.53134 0.0
H3398 H 0.53484 0.6251 0.52296 0.0
C3399 C 0.52423 0.72037 0.4696 0.0
C3400 C 0.52986 0.66935 0.47403 0.0
H3401 H 0.5119 0.63646 0.50077 0.0
C3402 C 0.54485 0.66173 0.46962 0.0
C3403 C 0.51802 0.66011 0.4857 0.0
C3404 C 0.50149 0.66717 0.49077 0.0
C3405 C 0.54831 0.64545 0.4764 0.0
C3406 C 0.53615 0.6357 0.48752 0.0
C3407 C 0.52132 0.6436 0.49228 0.0
C3408 C 0.53808 0.61684 0.49329 0.0
C3409 C 0.56536 0.63925 0.47186 0.0
C3410 C 0.54041 0.60136 0.47966 0.0
C3411 C 0.54192 0.58371 0.48451 0.0
C3412 C 0.54112 0.5806 0.50321 0.0
C3413 C 0.53833 0.59583 0.51694 0.0
C3414 C 0.53689 0.61371 0.51205 0.0
H3415 H 0.57573 0.65149 0.46947 0.0
H3416 H 0.57059 0.63308 0.48342 0.0
H3417 H 0.56288 0.62827 0.45874 0.0
H3418 H 0.54066 0.6027 0.46499 0.0
H3419 H 0.5435 0.57221 0.4734 0.0
H3420 H 0.62606 0.33375 0.68605 0.0
H3421 H 0.65331 0.33217 0.70419 0.0
H3422 H 0.66928 0.29948 0.65487 0.0
H3423 H 0.64244 0.30174 0.63656 0.0
H3424 H 0.66525 0.30417 0.71437 0.0
H3425 H 0.71493 0.33648 0.67027 0.0
H3426 H 0.69172 0.3369 0.66671 0.0
H3427 H 0.69973 0.3159 0.65691 0.0
C3428 C 0.6355 0.32647 0.67898 0.0
C3429 C 0.63204 0.31809 0.65971 0.0
C3430 C 0.65113 0.32549 0.68943 0.0
C3431 C 0.66381 0.31602 0.681 0.0
C3432 C 0.66024 0.30746 0.66177 0.0
H3433 H 0.75874 0.2817 0.72451 0.0
H3434 H 0.73283 0.2857 0.70575 0.0
C3435 C 0.64471 0.30865 0.65126 0.0
C3436 C 0.68027 0.31445 0.69251 0.0
H3437 H 0.72567 0.32041 0.69326 0.0
C3438 C 0.67843 0.30792 0.70974 0.0
C3439 C 0.69771 0.31929 0.68675 0.0
C3440 C 0.70119 0.32772 0.66926 0.0
C3441 C 0.69322 0.30577 0.72098 0.0
C3442 C 0.71053 0.31028 0.71503 0.0
C3443 C 0.71245 0.31682 0.69786 0.0
C3444 C 0.72675 0.30826 0.72644 0.0
C3445 C 0.69016 0.29829 0.73904 0.0
C3446 C 0.73241 0.31986 0.74428 0.0
C3447 C 0.74742 0.31776 0.75501 0.0
C3448 C 0.75713 0.3038 0.74839 0.0
C3449 C 0.75163 0.29248 0.73031 0.0
C3450 C 0.73674 0.29476 0.71949 0.0
H3451 H 0.67592 0.2919 0.73985 0.0
H3452 H 0.69809 0.2873 0.7404 0.0
H3453 H 0.69453 0.3103 0.7512 0.0
H3454 H 0.72525 0.33068 0.74989 0.0
H3455 H 0.75143 0.32717 0.76852 0.0
H3456 H 0.02356 0.32311 0.98022 0.0
H3457 H 0.02598 0.35724 0.99388 0.0
H3458 H 0.03062 0.37156 0.93864 0.0
H3459 H 0.02823 0.33774 0.92501 0.0
H3460 H 0.05339 0.39027 0.99306 0.0
H3461 H 0.99019 0.39683 0.95754 0.0
H3462 H 0.99536 0.37388 0.95913 0.0
H3463 H 0.00452 0.38701 0.94163 0.0
C3464 C 0.02508 0.33353 0.97099 0.0
C3465 C 0.02561 0.32753 0.95145 0.0
C3466 C 0.02648 0.3531 0.97883 0.0
C3467 C 0.02821 0.36713 0.96732 0.0
C3468 C 0.02895 0.36113 0.94787 0.0
H3469 H 0.04277 0.48917 0.97263 0.0
H3470 H 0.03657 0.4541 0.96512 0.0
C3471 C 0.02768 0.34169 0.94008 0.0
C3472 C 0.02946 0.38804 0.97543 0.0
H3473 H 0.01023 0.42613 0.97149 0.0
C3474 C 0.04383 0.39806 0.98852 0.0
C3475 C 0.01702 0.39837 0.96962 0.0
C3476 C 1.0008 0.38847 0.95635 0.0
C3477 C 0.04655 0.4181 0.99517 0.0
C3478 C 0.03434 0.42854 0.98895 0.0
C3479 C 0.01967 0.41835 0.97631 0.0
C3480 C 0.0372 0.45012 0.99412 0.0
C3481 C 0.06298 0.42804 0.0081 0.0
C3482 C 0.03928 0.45996 0.013 0.0
C3483 C 0.04288 0.48022 0.01735 0.0
C3484 C 0.04414 0.49112 1.00289 0.0
C3485 C 0.04166 0.48123 0.9841 0.0
C3486 C 0.03811 0.46111 0.97978 0.0
H3487 H 0.07304 0.41899 0.00794 0.0
H3488 H 0.06917 0.44186 0.00408 0.0
H3489 H 0.05927 0.43114 0.02275 0.0
H3490 H 0.03829 0.45199 0.02442 0.0
H3491 H 0.04508 0.48733 0.03197 0.0
H3492 H 0.01613 0.79894 0.13223 0.0
H3493 H 0.98944 0.79647 0.14944 0.0
H3494 H 0.02216 0.81846 0.20186 0.0
H3495 H 0.04888 0.8211 0.18473 0.0
H3496 H 0.97931 0.77532 0.17717 0.0
H3497 H 0.98619 0.85282 0.20548 0.0
H3498 H 0.99877 0.84413 0.18679 0.0
H3499 H 0.00557 0.84392 0.21092 0.0
C3500 C 0.01766 0.80337 0.14742 0.0
C3501 C 0.0347 0.81033 0.15706 0.0
C3502 C 1.00235 0.80191 0.15726 0.0
C3503 C 1.00366 0.80755 0.17698 0.0
C3504 C 0.02068 0.8144 0.18664 0.0
H3505 H 0.93417 0.80641 0.26684 0.0
H3506 H 0.9582 0.81091 0.24634 0.0
C3507 C 0.036 0.8158 0.17682 0.0
C3508 C 0.9873 0.80576 0.18747 0.0
H3509 H 0.96471 0.83123 0.21838 0.0
C3510 C 0.97603 0.78759 0.18604 0.0
C3511 C 0.98292 0.82172 0.19907 0.0
C3512 C 0.99389 0.84178 0.20056 0.0
C3513 C 0.96098 0.78482 0.19636 0.0
C3514 C 0.95674 0.80075 0.2082 0.0
C3515 C 0.96785 0.81898 0.20935 0.0
C3516 C 0.94154 0.79866 0.22038 0.0
C3517 C 0.95017 0.76471 0.19505 0.0
C3518 C 0.92388 0.79073 0.21273 0.0
C3519 C 0.90999 0.78799 0.22454 0.0
C3520 C 0.91342 0.79315 0.24429 0.0
C3521 C 0.931 0.80185 0.25177 0.0
C3522 C 0.94481 0.80457 0.24001 0.0
H3523 H 0.95755 0.75369 0.18915 0.0
H3524 H 0.94629 0.76211 0.20912 0.0
H3525 H 0.93786 0.76278 0.18563 0.0
H3526 H 0.92085 0.78647 0.19763 0.0
H3527 H 0.89667 0.78128 0.21824 0.0
H3528 H 0.50615 0.29887 0.10324 0.0
H3529 H 0.51357 0.319 0.07966 0.0
H3530 H 0.54699 0.36268 0.12207 0.0
H3531 H 0.53977 0.34248 0.14579 0.0
H3532 H 0.50811 0.35612 0.07961 0.0
H3533 H 0.57971 0.35415 0.07959 0.0
H3534 H 0.56401 0.33752 0.08977 0.0
H3535 H 0.57253 0.36158 0.1024 0.0
C3536 C 0.51508 0.31277 0.10757 0.0
C3537 C 0.52243 0.3191 0.12636 0.0
C3538 C 0.51931 0.32422 0.09407 0.0
C3539 C 0.53104 0.34216 0.09906 0.0
C3540 C 0.53819 0.34869 0.11787 0.0
H3541 H 0.56906 0.43589 0.0429 0.0
H3542 H 0.56398 0.41277 0.06407 0.0
C3543 C 0.53395 0.33722 0.13142 0.0
C3544 C 0.53537 0.35419 0.08462 0.0
H3545 H 0.56961 0.37552 0.06215 0.0
C3546 C 0.52153 0.36028 0.07568 0.0
C3547 C 0.55289 0.35952 0.07955 0.0
C3548 C 0.56815 0.35274 0.08818 0.0
C3549 C 0.52479 0.37201 0.06214 0.0
C3550 C 0.54234 0.37745 0.05714 0.0
C3551 C 0.55617 0.37123 0.06596 0.0
C3552 C 0.54669 0.3905 0.04356 0.0
C3553 C 0.50953 0.379 0.05377 0.0
C3554 C 0.53914 0.38538 0.02481 0.0
C3555 C 0.54192 0.39864 0.01269 0.0
C3556 C 0.55234 0.41719 0.01916 0.0
C3557 C 0.5607 0.42183 0.03762 0.0
C3558 C 0.5579 0.40861 0.0497 0.0
H3559 H 0.49786 0.37714 0.06217 0.0
H3560 H 0.51359 0.3944 0.0528 0.0
H3561 H 0.50532 0.37066 0.03932 0.0
H3562 H 0.53073 0.37131 0.01971 0.0
H3563 H 0.5353 0.39466 0.99856 0.0
H3564 H 0.05413 0.30782 0.32722 0.0
H3565 H 0.02696 0.31147 0.31057 0.0
H3566 H 0.99601 0.28795 0.35237 0.0
H3567 H 0.02319 0.2847 0.36939 0.0
H3568 H 0.995 0.28756 0.29501 0.0
H3569 H 0.98524 0.34124 0.35605 0.0
H3570 H 0.00547 0.33247 0.35411 0.0
H3571 H 0.98621 0.31829 0.36181 0.0
C3572 C 0.04151 0.30312 0.3327 0.0
C3573 C 0.04078 0.2962 0.34973 0.0
C3574 C 0.026 0.30523 0.32317 0.0
C3575 C 0.00955 0.30041 0.33049 0.0
C3576 C 0.00865 0.29219 0.34675 0.0
H3577 H 0.90539 0.29772 0.27713 0.0
H3578 H 0.93265 0.28958 0.28872 0.0
C3579 C 0.02416 0.29022 0.35637 0.0
C3580 C 0.99358 0.30519 0.32184 0.0
H3581 H 0.9623 0.33193 0.33115 0.0
C3582 C 0.98783 0.29726 0.30287 0.0
C3583 C 0.98451 0.3182 0.33203 0.0
C3584 C 0.99074 0.32821 0.35206 0.0
C3585 C 0.97303 0.30175 0.2939 0.0
C3586 C 0.96357 0.3142 0.30433 0.0
C3587 C 0.96949 0.3223 0.32321 0.0
C3588 C 0.94741 0.31901 0.2961 0.0
C3589 C 0.9679 0.29343 0.27328 0.0
C3590 C 0.94652 0.33829 0.29667 0.0
C3591 C 0.93082 0.34303 0.29045 0.0
C3592 C 0.91565 0.32856 0.28355 0.0
C3593 C 0.91674 0.30924 0.28259 0.0
C3594 C 0.93241 0.30453 0.28894 0.0
H3595 H 0.97929 0.2892 0.26615 0.0
H3596 H 0.95717 0.28037 0.27192 0.0
H3597 H 0.96294 0.30382 0.26586 0.0
H3598 H 0.95792 0.34971 0.30226 0.0
H3599 H 0.9304 0.35804 0.29162 0.0
H3600 H 0.02853 0.71971 0.6531 0.0
H3601 H 0.02765 0.68879 0.63288 0.0
H3602 H 0.98083 0.69434 0.60081 0.0
H3603 H 0.98177 0.72555 0.62087 0.0
H3604 H 1.0009 0.6547 0.62412 0.0
H3605 H 0.01675 0.68798 0.56131 0.0
H3606 H 0.01918 0.70197 0.58484 0.0
H3607 H 0.9975 0.693 0.57244 0.0
C3608 C 0.01798 0.71431 0.64181 0.0
C3609 C 0.00532 0.72509 0.6384 0.0
C3610 C 0.01747 0.69663 0.63033 0.0
C3611 C 0.00432 0.68946 0.61525 0.0
C3612 C 0.99124 0.69983 0.61223 0.0
H3613 H 1.00216 0.59124 0.52563 0.0
H3614 H 0.99308 0.6172 0.54639 0.0
C3615 C 0.99176 0.71758 0.62371 0.0
C3616 C 0.005 0.67158 0.60227 0.0
H3617 H 0.01405 0.65463 0.55765 0.0
C3618 C 1.00361 0.6546 0.60953 0.0
C3619 C 0.00852 0.67159 0.58328 0.0
C3620 C 0.01072 0.6896 0.57496 0.0
C3621 C 0.00602 0.63764 0.59834 0.0
C3622 C 0.01016 0.63785 0.57956 0.0
C3623 C 0.01088 0.65461 0.5721 0.0
C3624 C 0.01492 0.62124 0.56772 0.0
C3625 C 0.0043 0.61971 0.60672 0.0
C3626 C 0.03026 0.61503 0.57287 0.0
C3627 C 0.03564 0.60035 0.56094 0.0
C3628 C 0.02581 0.59176 0.54361 0.0
C3629 C 0.01023 0.59779 0.5387 0.0
C3630 C 0.00492 0.61251 0.5506 0.0
H3631 H 0.99634 0.62041 0.61909 0.0
H3632 H 0.99801 0.60675 0.59611 0.0
H3633 H 0.01773 0.61811 0.6115 0.0
H3634 H 0.03833 0.62187 0.58589 0.0
H3635 H 0.04768 0.59605 0.56516 0.0
H3636 H 0.62282 0.79049 0.83493 0.0
H3637 H 0.65035 0.79229 0.81935 0.0
H3638 H 0.68094 0.81352 0.8732 0.0
H3639 H 0.65346 0.81219 0.88883 0.0
H3640 H 0.69298 0.83435 0.84652 0.0
H3641 H 0.68451 0.75639 0.81894 0.0
H3642 H 0.66614 0.76612 0.81184 0.0
H3643 H 0.67104 0.76574 0.83637 0.0
C3644 C 0.63542 0.79537 0.84346 0.0
C3645 C 0.63602 0.80109 0.8631 0.0
C3646 C 0.65112 0.79635 0.83454 0.0
C3647 C 0.66767 0.80283 0.84515 0.0
C3648 C 0.66829 0.80846 0.86477 0.0
H3649 H 0.76654 0.78347 0.80563 0.0
H3650 H 0.74027 0.78505 0.82213 0.0
C3651 C 0.6526 0.80761 0.87368 0.0
C3652 C 0.68437 0.80401 0.83579 0.0
H3653 H 0.70814 0.77707 0.80853 0.0
C3654 C 0.69631 0.82185 0.8381 0.0
C3655 C 0.68879 0.78763 0.82513 0.0
C3656 C 0.67704 0.76785 0.82305 0.0
C3657 C 0.71253 0.82377 0.8299 0.0
C3658 C 0.71668 0.8075 0.81866 0.0
C3659 C 0.70477 0.78966 0.81661 0.0
C3660 C 0.73362 0.80815 0.80963 0.0
C3661 C 0.72527 0.84302 0.834 0.0
C3662 C 0.73901 0.82089 0.7973 0.0
C3663 C 0.75442 0.82016 0.78797 0.0
C3664 C 0.76421 0.80621 0.79029 0.0
C3665 C 0.75904 0.79394 0.80302 0.0
C3666 C 0.74398 0.7949 0.81257 0.0
H3667 H 0.72264 0.85209 0.84713 0.0
H3668 H 0.73923 0.84134 0.83546 0.0
H3669 H 0.72359 0.85071 0.82222 0.0
H3670 H 0.73112 0.83105 0.79451 0.0
H3671 H 0.75834 0.83001 0.77845 0.0
H3672 H 0.43688 0.54061 0.70685 0.0
H3673 H 0.45148 0.53777 0.67743 0.0
H3674 H 0.49234 0.5871 0.70195 0.0
H3675 H 0.47811 0.58938 0.73159 0.0
H3676 H 0.45835 0.55453 0.65012 0.0
H3677 H 0.52619 0.55858 0.68074 0.0
H3678 H 0.50758 0.55671 0.69484 0.0
H3679 H 0.51844 0.57971 0.68999 0.0
C3680 C 0.44908 0.55084 0.70618 0.0
C3681 C 0.45611 0.56516 0.72228 0.0
C3682 C 0.45758 0.54923 0.68899 0.0
C3683 C 0.47371 0.56182 0.6867 0.0
C3684 C 0.4805 0.57643 0.70273 0.0
H3685 H 0.5413 0.57763 0.58927 0.0
H3686 H 0.52734 0.58069 0.61912 0.0
C3687 C 0.47209 0.57793 0.71999 0.0
C3688 C 0.48287 0.55988 0.66772 0.0
H3689 H 0.5234 0.56145 0.64852 0.0
C3690 C 0.4726 0.55594 0.65006 0.0
C3691 C 0.50162 0.56156 0.66655 0.0
C3692 C 0.51408 0.56417 0.68401 0.0
C3693 C 0.48012 0.55414 0.6322 0.0
C3694 C 0.49884 0.55602 0.63107 0.0
C3695 C 0.50915 0.56001 0.64868 0.0
C3696 C 0.50784 0.55389 0.61208 0.0
C3697 C 0.46774 0.55079 0.61455 0.0
C3698 C 0.5023 0.53772 0.59729 0.0
C3699 C 0.51063 0.5358 0.58001 0.0
C3700 C 0.52508 0.54991 0.57635 0.0
C3701 C 0.53059 0.56611 0.59112 0.0
C3702 C 0.52238 0.56794 0.60849 0.0
H3703 H 0.45515 0.55546 0.61754 0.0
H3704 H 0.47403 0.55855 0.60381 0.0
H3705 H 0.46432 0.53521 0.60852 0.0
H3706 H 0.49156 0.52619 0.59913 0.0
H3707 H 0.50569 0.52298 0.56947 0.0
H3708 H 0.77932 0.19108 0.01497 0.0
H3709 H 0.77529 0.21466 0.99548 0.0
H3710 H 0.80075 0.18556 0.95114 0.0
H3711 H 0.80493 0.16192 0.97059 0.0
H3712 H 0.81278 0.22683 0.96015 0.0
H3713 H 0.73921 0.20322 0.94796 0.0
H3714 H 0.74828 0.20822 0.97216 0.0
H3715 H 0.75313 0.18845 0.95615 0.0
C3716 C 0.78408 0.1897 1.00107 0.0
C3717 C 0.79237 0.17462 0.99424 0.0
C3718 C 0.7817 0.20313 0.98995 0.0
C3719 C 0.78753 0.20166 0.97183 0.0
C3720 C 0.7961 0.18684 0.96509 0.0
H3721 H 0.76293 0.25243 0.87767 0.0
H3722 H 0.76604 0.23161 0.9004 0.0
C3723 C 0.79846 0.17336 0.97618 0.0
C3724 C 0.7847 0.2156 0.95987 0.0
H3725 H 0.75242 0.23071 0.9361 0.0
C3726 C 0.79961 0.22776 0.95492 0.0
C3727 C 0.76748 0.21659 0.95302 0.0
C3728 C 0.75107 0.20335 0.95743 0.0
C3729 C 0.79774 0.24094 0.9432 0.0
C3730 C 0.7805 0.24207 0.93649 0.0
C3731 C 0.7656 0.22991 0.94146 0.0
C3732 C 0.77773 0.25494 0.92331 0.0
C3733 C 0.81421 0.25318 0.93767 0.0
C3734 C 0.78291 0.27495 0.92886 0.0
C3735 C 0.78123 0.28689 0.91588 0.0
C3736 C 0.77433 0.27896 0.89717 0.0
C3737 C 0.76856 0.25893 0.8919 0.0
C3738 C 0.77022 0.24703 0.90488 0.0
H3739 H 0.82635 0.24786 0.94093 0.0
H3740 H 0.81292 0.25357 0.92238 0.0
H3741 H 0.81598 0.2681 0.94555 0.0
H3742 H 0.78849 0.2813 0.94314 0.0
H3743 H 0.78584 0.30226 0.92031 0.0
H3744 H 0.13606 0.48654 0.20547 0.0
H3745 H 0.11566 0.48282 0.17732 0.0
H3746 H 0.15669 0.51764 0.15218 0.0
H3747 H 0.1772 0.52104 0.18001 0.0
H3748 H 0.10453 0.51212 0.16574 0.0
H3749 H 0.13648 0.47544 0.10801 0.0
H3750 H 0.14288 0.47597 0.13252 0.0
H3751 H 0.15178 0.49591 0.12143 0.0
C3752 C 0.14085 0.49299 0.19373 0.0
C3753 C 0.15821 0.5041 0.19492 0.0
C3754 C 0.12918 0.49088 0.17768 0.0
C3755 C 0.1347 0.49976 0.16255 0.0
C3756 C 0.15225 0.51025 0.16346 0.0
H3757 H 0.097 0.54593 0.07405 0.0
H3758 H 0.11209 0.53523 0.09934 0.0
C3759 C 0.16394 0.5123 0.17944 0.0
C3760 C 0.12171 0.50004 0.14681 0.0
H3761 H 0.11625 0.49468 0.09889 0.0
C3762 C 0.10684 0.50787 0.1511 0.0
C3763 C 0.12471 0.49444 0.12773 0.0
C3764 C 0.13974 0.48478 0.12216 0.0
C3765 C 0.09557 0.51142 0.13686 0.0
C3766 C 0.09927 0.50694 0.1179 0.0
C3767 C 0.11356 0.49819 0.11351 0.0
C3768 C 0.08966 0.51309 0.10265 0.0
C3769 C 0.0804 0.52095 0.14218 0.0
C3770 C 0.07199 0.50416 0.09621 0.0
C3771 C 0.06325 0.5102 0.08163 0.0
C3772 C 0.07208 0.52532 0.07336 0.0
C3773 C 0.08976 0.53426 0.08004 0.0
C3774 C 0.09846 0.52815 0.09448 0.0
H3775 H 0.08024 0.525 0.15769 0.0
H3776 H 0.0813 0.53405 0.1359 0.0
H3777 H 0.06761 0.51102 0.13644 0.0
H3778 H 0.06505 0.4924 0.10231 0.0
H3779 H 0.04972 0.50285 0.07667 0.0
H3780 H 0.80933 0.83695 0.48851 0.0
H3781 H 0.80894 0.82037 0.45578 0.0
H3782 H 0.80204 0.87152 0.43592 0.0
H3783 H 0.80233 0.88806 0.46839 0.0
H3784 H 0.77813 0.83759 0.41736 0.0
H3785 H 0.84816 0.82863 0.41903 0.0
H3786 H 0.83515 0.82022 0.43705 0.0
H3787 H 0.84075 0.84544 0.43668 0.0
C3788 C 0.80778 0.84466 0.47715 0.0
C3789 C 0.80588 0.86385 0.48108 0.0
C3790 C 0.80767 0.8352 0.45845 0.0
C3791 C 0.80566 0.84476 0.44336 0.0
C3792 C 0.80367 0.86386 0.4473 0.0
H3793 H 0.80569 0.83963 0.32653 0.0
H3794 H 0.8082 0.84592 0.36096 0.0
C3795 C 0.80385 0.87331 0.46591 0.0
C3796 C 0.80504 0.83493 0.42336 0.0
H3797 H 0.83061 0.8176 0.39002 0.0
C3798 C 0.78953 0.83298 0.41147 0.0
C3799 C 0.81992 0.82885 0.41563 0.0
C3800 C 0.83702 0.83095 0.42765 0.0
C3801 C 0.78867 0.8257 0.39206 0.0
C3802 C 0.80374 0.82037 0.38421 0.0
C3803 C 0.81905 0.82158 0.39612 0.0
C3804 C 0.80437 0.81606 0.36343 0.0
C3805 C 0.77182 0.82437 0.37988 0.0
C3806 C 0.80178 0.79712 0.35336 0.0
C3807 C 0.80036 0.79346 0.33351 0.0
C3808 C 0.80172 0.80875 0.32361 0.0
C3809 C 0.8048 0.82762 0.33383 0.0
C3810 C 0.80623 0.83124 0.35348 0.0
H3811 H 0.76035 0.8254 0.38838 0.0
H3812 H 0.77376 0.8363 0.37185 0.0
H3813 H 0.76858 0.81065 0.36953 0.0
H3814 H 0.80022 0.7852 0.36081 0.0
H3815 H 0.79758 0.77876 0.32595 0.0
H3816 H 0.43372 0.56171 0.84576 0.0
H3817 H 0.44847 0.55765 0.87534 0.0
H3818 H 0.49879 0.56655 0.85158 0.0
H3819 H 0.48405 0.57088 0.82213 0.0
H3820 H 0.4654 0.5335 0.88729 0.0
H3821 H 0.51674 0.6006 0.9002 0.0
H3822 H 0.49869 0.59601 0.88202 0.0
H3823 H 0.51791 0.58578 0.87794 0.0
C3824 C 0.44798 0.56304 0.84674 0.0
C3825 C 0.4574 0.56693 0.83099 0.0
C3826 C 0.45658 0.56059 0.86397 0.0
C3827 C 0.47523 0.56207 0.86673 0.0
C3828 C 0.48462 0.56581 0.85087 0.0
H3829 H 0.54852 0.55055 0.9665 0.0
H3830 H 0.53624 0.55348 0.93496 0.0
C3831 C 0.47601 0.56819 0.83361 0.0
C3832 C 0.48445 0.55921 0.88567 0.0
H3833 H 0.51974 0.57829 0.92006 0.0
C3834 C 0.47724 0.54351 0.89431 0.0
C3835 C 0.5002 0.57176 0.89562 0.0
C3836 C 0.50878 0.58958 0.88861 0.0
C3837 C 0.48501 0.53998 0.91156 0.0
C3838 C 0.50059 0.55267 0.92166 0.0
C3839 C 0.50795 0.56826 0.91295 0.0
C3840 C 0.50875 0.55038 0.94132 0.0
C3841 C 0.47654 0.52202 0.91842 0.0
C3842 C 0.49806 0.54773 0.95638 0.0
C3843 C 0.50512 0.54594 0.97444 0.0
C3844 C 0.52341 0.54661 0.97891 0.0
C3845 C 0.53435 0.54943 0.964 0.0
C3846 C 0.52721 0.55131 0.94573 0.0
H3847 H 0.46939 0.51072 0.90657 0.0
H3848 H 0.48655 0.5161 0.92579 0.0
H3849 H 0.46665 0.52542 0.92835 0.0
H3850 H 0.48402 0.5475 0.95441 0.0
H3851 H 0.49603 0.54424 0.98525 0.0
H3852 H 0.82443 0.191 0.07189 0.0
H3853 H 0.82417 0.21385 0.10105 0.0
H3854 H 0.79 0.16957 0.12331 0.0
H3855 H 0.7902 0.14666 0.09427 0.0
H3856 H 0.79218 0.22353 0.11475 0.0
H3857 H 0.82944 0.19437 0.1666 0.0
H3858 H 0.83093 0.1885 0.1415 0.0
H3859 H 0.81214 0.17677 0.15196 0.0
C3860 C 0.81716 0.18603 0.08316 0.0
C3861 C 0.80735 0.16704 0.08085 0.0
C3862 C 0.81696 0.19912 0.09974 0.0
C3863 C 0.80715 0.19334 0.11431 0.0
C3864 C 0.79785 0.17422 0.1123 0.0
H3865 H 0.77608 0.23892 0.22059 0.0
H3866 H 0.77934 0.22067 0.18998 0.0
C3867 C 0.79796 0.16116 0.09571 0.0
C3868 C 0.80555 0.2075 0.13113 0.0
H3869 H 0.81254 0.21697 0.17906 0.0
C3870 C 0.7968 0.2223 0.12883 0.0
C3871 C 0.81161 0.20578 0.14939 0.0
C3872 C 0.8217 0.19061 0.15257 0.0
C3873 C 0.79324 0.23495 0.14447 0.0
C3874 C 0.79886 0.23286 0.16277 0.0
C3875 C 0.80812 0.21844 0.16499 0.0
C3876 C 0.79474 0.24486 0.18 0.0
C3877 C 0.7829 0.24992 0.14132 0.0
C3878 C 0.80165 0.26475 0.18423 0.0
C3879 C 0.79964 0.27536 0.20178 0.0
C3880 C 0.79117 0.26613 0.21553 0.0
C3881 C 0.78313 0.24648 0.21062 0.0
C3882 C 0.78498 0.23597 0.19308 0.0
H3883 H 0.77612 0.24681 0.12684 0.0
H3884 H 0.77279 0.25086 0.15162 0.0
H3885 H 0.79215 0.26414 0.14332 0.0
H3886 H 0.80924 0.27192 0.17433 0.0
H3887 H 0.80532 0.29059 0.20483 0.0
H3888 H 0.13881 0.55143 0.26384 0.0
H3889 H 0.11667 0.55962 0.28508 0.0
H3890 H 0.14002 0.53453 0.32753 0.0
H3891 H 0.16202 0.52608 0.30633 0.0
H3892 H 0.1031 0.52238 0.32095 0.0
H3893 H 0.12424 0.60194 0.33249 0.0
H3894 H 0.12005 0.58999 0.30826 0.0
H3895 H 0.13819 0.58619 0.32271 0.0
C3896 C 0.13928 0.54777 0.27775 0.0
C3897 C 0.15214 0.53814 0.28346 0.0
C3898 C 0.12669 0.55254 0.28988 0.0
C3899 C 0.12687 0.54787 0.30792 0.0
C3900 C 0.13972 0.5383 0.31366 0.0
H3901 H 0.07806 0.58333 0.40738 0.0
H3902 H 0.09743 0.57865 0.38209 0.0
C3903 C 0.15228 0.53351 0.30155 0.0
C3904 C 0.11331 0.5523 0.3207 0.0
H3905 H 0.09835 0.5892 0.34619 0.0
C3906 C 0.10198 0.53698 0.32641 0.0
C3907 C 0.11203 0.57137 0.32784 0.0
C3908 C 0.12435 0.58837 0.32267 0.0
C3909 C 0.08948 0.54021 0.3393 0.0
C3910 C 0.08811 0.55927 0.34638 0.0
C3911 C 0.09934 0.57461 0.34054 0.0
C3912 C 0.07605 0.56357 0.36097 0.0
C3913 C 0.0783 0.52324 0.34576 0.0
C3914 C 0.05758 0.55708 0.3573 0.0
C3915 C 0.04647 0.5596 0.37177 0.0
C3916 C 0.0537 0.56869 0.39011 0.0
C3917 C 0.07214 0.57596 0.39347 0.0
C3918 C 0.08321 0.57344 0.37902 0.0
H3919 H 0.08354 0.51 0.34195 0.0
H3920 H 0.07767 0.52623 0.36127 0.0
H3921 H 0.06456 0.52043 0.33895 0.0
H3922 H 0.0518 0.54968 0.34336 0.0
H3923 H 0.03232 0.5538 0.36877 0.0
H3924 H 0.78805 0.83976 0.57032 0.0
H3925 H 0.78582 0.82547 0.59883 0.0
H3926 H 0.81211 0.87998 0.63256 0.0
H3927 H 0.81426 0.89433 0.60427 0.0
H3928 H 0.81293 0.82261 0.6251 0.0
H3929 H 0.76772 0.8654 0.65988 0.0
H3930 H 0.77127 0.86397 0.63524 0.0
H3931 H 0.78726 0.87975 0.65299 0.0
C3932 C 0.79327 0.84871 0.58383 0.0
C3933 C 0.80124 0.86823 0.58501 0.0
C3934 C 0.79201 0.84052 0.60012 0.0
C3935 C 0.79854 0.8517 0.61793 0.0
C3936 C 0.80663 0.87113 0.61908 0.0
H3937 H 0.80886 0.83522 0.73363 0.0
H3938 H 0.8093 0.8471 0.70402 0.0
C3939 C 0.80793 0.8793 0.60284 0.0
C3940 C 0.7973 0.84305 0.6353 0.0
H3941 H 0.78143 0.84754 0.6788 0.0
C3942 C 0.80591 0.82794 0.63677 0.0
C3943 C 0.78816 0.84999 0.65059 0.0
C3944 C 0.77793 0.86555 0.64959 0.0
C3945 C 0.80611 0.82003 0.65329 0.0
C3946 C 0.79716 0.82716 0.66868 0.0
C3947 C 0.78835 0.84209 0.66708 0.0
C3948 C 0.79707 0.81963 0.68669 0.0
C3949 C 0.81641 0.80454 0.65433 0.0
C3950 C 0.78982 0.80025 0.68702 0.0
C3951 C 0.78978 0.79336 0.70402 0.0
C3952 C 0.79699 0.80566 0.72114 0.0
C3953 C 0.80383 0.82514 0.72078 0.0
C3954 C 0.80387 0.83203 0.7038 0.0
H3955 H 0.82612 0.80415 0.64353 0.0
H3956 H 0.82367 0.80668 0.66847 0.0
H3957 H 0.80703 0.79037 0.65181 0.0
H3958 H 0.78407 0.79044 0.67412 0.0
H3959 H 0.78418 0.77834 0.7037 0.0
H3960 H 0.77961 0.48297 0.5632 0.0
H3961 H 0.76044 0.50616 0.56843 0.0
H3962 H 0.73839 0.48878 0.51049 0.0
H3963 H 0.75775 0.46583 0.50506 0.0
H3964 H 0.74723 0.52861 0.52264 0.0
H3965 H 0.70701 0.49238 0.57303 0.0
H3966 H 0.73057 0.49838 0.5793 0.0
H3967 H 0.72155 0.48087 0.55853 0.0
C3968 C 0.77066 0.48408 0.55159 0.0
C3969 C 0.77007 0.47252 0.53375 0.0
C3970 C 0.75968 0.49727 0.55462 0.0
C3971 C 0.74783 0.49896 0.53992 0.0
C3972 C 0.74742 0.48763 0.52203 0.0
H3973 H 0.66228 0.5533 0.52029 0.0
H3974 H 0.68742 0.53744 0.51842 0.0
C3975 C 0.75843 0.4745 0.51897 0.0
C3976 C 0.73578 0.51248 0.5431 0.0
H3977 H 0.7006 0.52146 0.56719 0.0
C3978 C 0.73708 0.52712 0.53244 0.0
C3979 C 0.72261 0.5105 0.55595 0.0
C3980 C 0.72018 0.49461 0.56726 0.0
C3981 C 0.7254 0.53973 0.53413 0.0
C3982 C 0.71198 0.53746 0.54663 0.0
C3983 C 0.71099 0.52318 0.55768 0.0
C3984 C 0.69792 0.54867 0.54741 0.0
C3985 C 0.72744 0.55532 0.52247 0.0
C3986 C 0.69549 0.56018 0.56437 0.0
C3987 C 0.68107 0.56919 0.56549 0.0
C3988 C 0.66875 0.56659 0.54974 0.0
C3989 C 0.6715 0.55543 0.53268 0.0
C3990 C 0.68594 0.54653 0.53154 0.0
H3991 H 0.74108 0.55865 0.5179 0.0
H3992 H 0.71797 0.55045 0.50964 0.0
H3993 H 0.72448 0.56868 0.53046 0.0
H3994 H 0.70454 0.56184 0.57681 0.0
H3995 H 0.67917 0.57757 0.57886 0.0
H3996 H 0.22791 0.17487 0.50358 0.0
H3997 H 0.19773 0.15558 0.50241 0.0
H3998 H 0.21907 0.10569 0.50684 0.0
H3999 H 0.24928 0.12498 0.50841 0.0
H4000 H 0.17902 0.12305 0.47821 0.0
H4001 H 0.18812 0.10841 0.5506 0.0
H4002 H 0.20379 0.12612 0.5417 0.0
H4003 H 0.20401 0.10104 0.53526 0.0
C4004 C 0.22617 0.15977 0.50425 0.0
C4005 C 0.24099 0.15149 0.50626 0.0
C4006 C 0.20891 0.14875 0.50354 0.0
C4007 C 0.20611 0.12925 0.50486 0.0
C4008 C 0.22088 0.1208 0.50621 0.0
H4009 H 0.10148 0.0495 0.48503 0.0
H4010 H 0.13185 0.06609 0.48178 0.0
C4011 C 0.23815 0.13182 0.50701 0.0
C4012 C 0.18777 0.11795 0.50529 0.0
H4013 H 0.16107 0.0926 0.5327 0.0
C4014 C 0.17508 0.11635 0.4901 0.0
C4015 C 0.18258 0.1094 0.52092 0.0
C4016 C 0.19526 0.11144 0.53813 0.0
C4017 C 0.15738 0.10645 0.49011 0.0
C4018 C 0.15229 0.09764 0.50561 0.0
C4019 C 0.165 0.09921 0.52076 0.0
C4020 C 0.13367 0.08763 0.50701 0.0
C4021 C 0.14418 0.10603 0.47381 0.0
C4022 C 0.12463 0.09398 0.52237 0.0
C4023 C 0.10743 0.08435 0.52443 0.0
C4024 C 0.09881 0.06802 0.5112 0.0
C4025 C 0.10776 0.06184 0.49561 0.0
C4026 C 0.12508 0.07146 0.49362 0.0
H4027 H 0.14907 0.11728 0.46548 0.0
H4028 H 0.14192 0.09186 0.46428 0.0
H4029 H 0.13123 0.10809 0.47884 0.0
H4030 H 0.13094 0.10642 0.53287 0.0
H4031 H 0.10101 0.08967 0.53657 0.0
H4032 H 0.17708 0.94125 0.7598 0.0
H4033 H 0.19279 0.9148 0.76001 0.0
H4034 H 0.24148 0.95591 0.77994 0.0
H4035 H 0.22576 0.98219 0.78002 0.0
H4036 H 0.21759 0.89977 0.74339 0.0
H4037 H 0.24745 0.9231 0.81667 0.0
H4038 H 0.23107 0.93436 0.80724 0.0
H4039 H 0.25406 0.94121 0.80283 0.0
C4040 C 0.19114 0.94484 0.76435 0.0
C4041 C 0.19973 0.96452 0.77003 0.0
C4042 C 0.20034 0.92938 0.76443 0.0
C4043 C 0.21876 0.93245 0.77041 0.0
C4044 C 0.22736 0.95219 0.77578 0.0
H4045 H 0.28024 0.83456 0.74628 0.0
H4046 H 0.26653 0.86225 0.74382 0.0
C4047 C 0.21819 0.96761 0.77565 0.0
C4048 C 0.22876 0.91541 0.77086 0.0
H4049 H 0.25815 0.89821 0.79817 0.0
C4050 C 0.22644 0.89967 0.7555 0.0
C4051 C 0.24045 0.91409 0.78646 0.0
C4052 C 0.24331 0.92895 0.80431 0.0
C4053 C 0.23518 0.88371 0.75517 0.0
C4054 C 0.24726 0.88269 0.77057 0.0
C4055 C 0.24936 0.8983 0.78601 0.0
C4056 C 0.25685 0.86543 0.77164 0.0
C4057 C 0.23075 0.86764 0.7383 0.0
C4058 C 0.25732 0.85738 0.78817 0.0
C4059 C 0.26546 0.84153 0.78962 0.0
C4060 C 0.27411 0.83255 0.77484 0.0
C4061 C 0.27407 0.84068 0.75826 0.0
C4062 C 0.26578 0.85668 0.75677 0.0
H4063 H 0.21792 0.86751 0.73048 0.0
H4064 H 0.24129 0.86964 0.72851 0.0
H4065 H 0.22994 0.85347 0.74252 0.0
H4066 H 0.25091 0.8631 0.80016 0.0
H4067 H 0.26478 0.83606 0.80267 0.0
H4068 H 0.35455 0.99129 0.01916 0.0
H4069 H 0.38535 0.00687 0.01597 0.0
H4070 H 0.40003 0.95183 0.00864 0.0
H4071 H 0.36944 0.93622 0.01182 0.0
H4072 H 0.4158 1.00462 0.03976 0.0
H4073 H 0.42077 0.9763 0.96439 0.0
H4074 H 0.39974 0.97658 0.97421 0.0
H4075 H 0.41161 0.95826 0.97754 0.0
C4076 C 0.36433 0.98253 0.01671 0.0
C4077 C 0.35963 0.96256 0.01574 0.0
C4078 C 0.38187 0.99142 0.01489 0.0
C4079 C 0.39484 0.98043 0.0118 0.0
C4080 C 0.39012 0.9605 0.01066 0.0
H4081 H 0.5067 0.99136 0.00888 0.0
H4082 H 0.47422 0.98153 0.00744 0.0
C4083 C 0.37267 0.95163 0.01261 0.0
C4084 C 0.41361 0.98976 0.01102 0.0
H4085 H 0.44816 0.98976 0.98345 0.0
C4086 C 0.42286 1.00166 0.02739 0.0
C4087 C 0.4227 0.98577 0.99484 0.0
C4088 C 0.41318 0.97367 0.97667 0.0
C4089 C 0.44124 0.00893 0.02832 0.0
C4090 C 0.45045 1.00445 0.0123 0.0
C4091 C 0.44105 0.99309 0.99571 0.0
C4092 C 0.46997 0.01057 0.01277 0.0
C4093 C 0.45076 0.02057 0.0467 0.0
C4094 C 0.47825 0.0301 0.0162 0.0
C4095 C 0.49673 0.03568 0.01711 0.0
C4096 C 0.50714 0.0218 0.01407 0.0
C4097 C 0.49886 1.00228 0.01085 0.0
C4098 C 0.48039 0.99669 0.01 0.0
H4099 H 0.44251 0.01899 0.05871 0.0
H4100 H 0.46345 0.01623 0.04984 0.0
H4101 H 0.4539 0.03598 0.04563 0.0
H4102 H 0.47044 0.04103 0.0182 0.0
H4103 H 0.50281 0.0508 0.02035 0.0
H4104 H 0.89214 0.60952 0.80624 0.0
H4105 H 0.87678 0.63257 0.79491 0.0
H4106 H 0.87104 0.5994 0.73849 0.0
H4107 H 0.88547 0.57595 0.74988 0.0
H4108 H 0.88453 0.65554 0.77069 0.0
H4109 H 0.82123 0.60464 0.74346 0.0
H4110 H 0.83815 0.59827 0.75775 0.0
H4111 H 0.83954 0.59681 0.73274 0.0
C4112 C 0.88738 0.60708 0.79147 0.0
C4113 C 0.88974 0.59084 0.77898 0.0
C4114 C 0.87868 0.62027 0.785 0.0
C4115 C 0.8724 0.61751 0.76591 0.0
C4116 C 0.8752 0.60152 0.75338 0.0
H4117 H 0.84497 0.70743 0.71044 0.0
H4118 H 0.86043 0.68513 0.72273 0.0
C4119 C 0.88354 0.58817 0.7599 0.0
C4120 C 0.86323 0.63148 0.75894 0.0
H4121 H 0.82618 0.63462 0.73283 0.0
C4122 C 0.87168 0.65102 0.76256 0.0
C4123 C 0.84633 0.62564 0.74859 0.0
C4124 C 0.83572 0.60523 0.7456 0.0
C4125 C 0.86383 0.66481 0.75588 0.0
C4126 C 0.8474 0.65876 0.74463 0.0
C4127 C 0.83889 0.63926 0.74122 0.0
C4128 C 0.83827 0.67238 0.73692 0.0
C4129 C 0.87303 0.6857 0.76139 0.0
C4130 C 0.82044 0.67211 0.74006 0.0
C4131 C 0.81138 0.68425 0.73243 0.0
C4132 C 0.82 0.69732 0.72175 0.0
C4133 C 0.83786 0.69751 0.71849 0.0
C4134 C 0.84684 0.68501 0.72583 0.0
H4135 H 0.88213 0.68835 0.77444 0.0
H4136 H 0.88114 0.68992 0.74995 0.0
H4137 H 0.86329 0.69508 0.76369 0.0
H4138 H 0.81346 0.66241 0.74842 0.0
H4139 H 0.79751 0.68322 0.73482 0.0
H4140 H 0.85656 0.68085 0.02262 0.0
H4141 H 0.8808 0.66376 0.02516 0.0
H4142 H 0.84361 0.60966 0.00701 0.0
H4143 H 0.81946 0.62656 0.00432 0.0
H4144 H 0.88406 0.63651 0.04776 0.0
H4145 H 0.88322 0.60479 0.97226 0.0
H4146 H 0.87238 0.62424 0.98019 0.0
H4147 H 0.86184 0.59993 0.98125 0.0
C4148 C 0.85359 0.66532 0.01901 0.0
C4149 C 0.83608 0.65508 0.01317 0.0
C4150 C 0.86745 0.65557 0.0205 0.0
C4151 C 0.86411 0.63542 0.016 0.0
C4152 C 0.84663 0.6252 0.01017 0.0
H4153 H 0.91828 0.54329 0.02112 0.0
H4154 H 0.89803 0.56433 0.01636 0.0
C4155 C 0.83279 0.63491 0.00874 0.0
C4156 C 0.87867 0.62494 0.01808 0.0
H4157 H 0.89938 0.59188 0.99414 0.0
C4158 C 0.88757 0.62693 0.036 0.0
C4159 C 0.88326 0.61241 1.00274 0.0
C4160 C 0.87481 0.61031 0.98299 0.0
C4161 C 0.90039 0.61617 0.03915 0.0
C4162 C 0.9047 0.60332 0.02387 0.0
C4163 C 0.89608 0.60168 0.00587 0.0
C4164 C 0.91744 0.59075 0.02642 0.0
C4165 C 0.90865 0.61808 0.05896 0.0
C4166 C 0.93527 0.59853 0.03333 0.0
C4167 C 0.94691 0.58648 0.03623 0.0
C4168 C 0.94099 0.56636 0.0322 0.0
C4169 C 0.92325 0.55868 0.02475 0.0
C4170 C 0.91166 0.57071 0.02187 0.0
H4171 H 0.90093 0.62495 0.06963 0.0
H4172 H 0.90965 0.60383 0.06212 0.0
H4173 H 0.92227 0.62715 0.0604 0.0
H4174 H 0.94018 0.61394 0.03658 0.0
H4175 H 0.96044 0.59293 0.04203 0.0
H4176 H 0.17858 0.08405 0.76879 0.0
H4177 H 0.19475 0.11709 0.7697 0.0
H4178 H 0.24378 0.10116 0.78459 0.0
H4179 H 0.22767 0.0679 0.78282 0.0
H4180 H 0.21189 0.14528 0.79371 0.0
H4181 H 0.26286 0.12945 0.74627 0.0
H4182 H 0.24428 0.11109 0.74949 0.0
H4183 H 0.26368 0.11796 0.76626 0.0
C4184 C 0.19285 0.08746 0.77212 0.0
C4185 C 0.20164 0.07285 0.77556 0.0
C4186 C 0.20222 0.10663 0.7727 0.0
C4187 C 0.22089 0.11225 0.77679 0.0
C4188 C 0.22962 0.09768 0.78066 0.0
H4189 H 0.29779 0.22614 0.79443 0.0
H4190 H 0.28288 0.19259 0.79374 0.0
C4191 C 0.22026 0.07842 0.77985 0.0
C4192 C 0.23086 0.13321 0.77744 0.0
H4193 H 0.26763 0.16151 0.76328 0.0
C4194 C 0.22401 0.14861 0.78687 0.0
C4195 C 0.24687 0.13836 0.76866 0.0
C4196 C 0.25476 0.12337 0.75694 0.0
C4197 C 0.2325 0.16828 0.78798 0.0
C4198 C 0.24853 0.17336 0.77938 0.0
C4199 C 0.25549 0.15805 0.77006 0.0
C4200 C 0.25798 0.19431 0.77964 0.0
C4201 C 0.2243 0.18355 0.7988 0.0
C4202 C 0.24944 0.20709 0.77182 0.0
C4203 C 0.25815 0.22638 0.77191 0.0
C4204 C 0.27588 0.23395 0.77987 0.0
C4205 C 0.28438 0.22116 0.78783 0.0
C4206 C 0.27572 0.20176 0.78752 0.0
H4207 H 0.21499 0.17766 0.80863 0.0
H4208 H 0.23469 0.19545 0.80701 0.0
H4209 H 0.2167 0.18957 0.78873 0.0
H4210 H 0.23595 0.20209 0.76534 0.0
H4211 H 0.25087 0.23538 0.76558 0.0
H4212 H 0.37049 0.9985 0.31592 0.0
H4213 H 0.35083 0.96709 0.3153 0.0
H4214 H 0.38241 0.94047 0.27565 0.0
H4215 H 0.40184 0.97163 0.27598 0.0
H4216 H 0.34542 0.92988 0.26539 0.0
H4217 H 0.36285 0.92271 0.33926 0.0
H4218 H 0.35559 0.94407 0.33577 0.0
H4219 H 0.37639 0.94002 0.32783 0.0
C4220 C 0.37325 0.98591 0.30716 0.0
C4221 C 0.3877 0.98747 0.29602 0.0
C4222 C 0.36205 0.96801 0.30686 0.0
C4223 C 0.36526 0.95149 0.29551 0.0
C4224 C 0.37971 0.95308 0.28447 0.0
H4225 H 0.34942 0.83364 0.28822 0.0
H4226 H 0.35751 0.86875 0.29439 0.0
C4227 C 0.39082 0.97088 0.28472 0.0
C4228 C 0.35368 0.93238 0.29477 0.0
H4229 H 0.34437 0.89607 0.31963 0.0
C4230 C 0.34489 0.92254 0.27731 0.0
C4231 C 0.35307 0.92298 0.3104 0.0
C4232 C 0.36253 0.93286 0.32939 0.0
C4233 C 0.33639 0.90312 0.27473 0.0
C4234 C 0.33648 0.89346 0.29014 0.0
C4235 C 0.34433 0.90361 0.30789 0.0
C4236 C 0.33089 0.87235 0.28747 0.0
C4237 C 0.32845 0.89279 0.25526 0.0
C4238 C 0.31324 0.86282 0.28157 0.0
C4239 C 0.30864 0.84275 0.27794 0.0
C4240 C 0.3216 0.83208 0.28058 0.0
C4241 C 0.3392 0.84165 0.28642 0.0
C4242 C 0.34378 0.86163 0.29001 0.0
H4243 H 0.33184 0.90171 0.24435 0.0
H4244 H 0.33316 0.87924 0.25136 0.0
H4245 H 0.31376 0.88903 0.25513 0.0
H4246 H 0.3031 0.87087 0.27962 0.0
H4247 H 0.29507 0.8356 0.27295 0.0
H4248 H 0.55991 0.34663 0.57976 0.0
H4249 H 0.55607 0.37445 0.56593 0.0
H4250 H 0.59575 0.41139 0.60754 0.0
H4251 H 0.5995 0.38365 0.62154 0.0
H4252 H 0.54548 0.40834 0.58327 0.0
H4253 H 0.61207 0.42715 0.55763 0.0
H4254 H 0.60352 0.40403 0.56372 0.0
H4255 H 0.61219 0.42456 0.58193 0.0
C4256 C 0.56797 0.36063 0.58591 0.0
C4257 C 0.58011 0.36269 0.6018 0.0
C4258 C 0.56571 0.37664 0.57797 0.0
C4259 C 0.57573 0.39525 0.58541 0.0
C4260 C 0.588 0.39731 0.60118 0.0
H4261 H 0.5556 0.50777 0.57548 0.0
H4262 H 0.55856 0.4774 0.58437 0.0
C4263 C 0.5901 0.38134 0.60928 0.0
C4264 C 0.57281 0.41249 0.5772 0.0
H4265 H 0.59348 0.44951 0.55652 0.0
C4266 C 0.556 0.41726 0.57738 0.0
C4267 C 0.58636 0.42425 0.56922 0.0
C4268 C 0.60453 0.41973 0.56791 0.0
C4269 C 0.55256 0.43347 0.57045 0.0
C4270 C 0.5662 0.44555 0.56288 0.0
C4271 C 0.5829 0.44048 0.56222 0.0
C4272 C 0.56365 0.46398 0.5567 0.0
C4273 C 0.53413 0.43738 0.57106 0.0
C4274 C 0.56571 0.46717 0.53807 0.0
C4275 C 0.56386 0.48478 0.53283 0.0
C4276 C 0.55999 0.49974 0.54614 0.0
C4277 C 0.55816 0.4965 0.56471 0.0
C4278 C 0.55981 0.47899 0.56984 0.0
H4279 H 0.52426 0.42482 0.57364 0.0
H4280 H 0.53413 0.44969 0.58256 0.0
H4281 H 0.52988 0.44115 0.55759 0.0
H4282 H 0.56884 0.45605 0.52757 0.0
H4283 H 0.5659 0.48687 0.51856 0.0
H4284 H 0.45238 0.74924 0.41029 0.0
H4285 H 0.42459 0.7496 0.39223 0.0
H4286 H 0.45457 0.78274 0.35579 0.0
H4287 H 0.48221 0.7815 0.37311 0.0
H4288 H 0.40776 0.77523 0.38626 0.0
H4289 H 0.42432 0.74448 0.31598 0.0
H4290 H 0.43806 0.74511 0.3371 0.0
H4291 H 0.44052 0.76581 0.32587 0.0
C4292 C 0.45304 0.75639 0.39827 0.0
C4293 C 0.46964 0.7651 0.39306 0.0
C4294 C 0.43708 0.75666 0.38792 0.0
C4295 C 0.43721 0.76579 0.37214 0.0
C4296 C 0.45383 0.7749 0.3673 0.0
H4297 H 0.3441 0.80314 0.32748 0.0
H4298 H 0.37078 0.80001 0.34532 0.0
C4299 C 0.46975 0.77433 0.3774 0.0
C4300 C 0.42008 0.76633 0.36118 0.0
H4301 H 0.39995 0.76037 0.31644 0.0
C4302 C 0.40607 0.7718 0.37098 0.0
C4303 C 0.41737 0.76152 0.34117 0.0
C4304 C 0.43079 0.75369 0.32945 0.0
C4305 C 0.3899 0.77302 0.36155 0.0
C4306 C 0.38766 0.76942 0.34151 0.0
C4307 C 0.4015 0.7635 0.33172 0.0
C4308 C 0.37115 0.77147 0.33042 0.0
C4309 C 0.37523 0.77764 0.37334 0.0
C4310 C 0.36251 0.75694 0.3153 0.0
C4311 C 0.34738 0.75895 0.30467 0.0
C4312 C 0.34027 0.77551 0.30887 0.0
C4313 C 0.34892 0.79004 0.32393 0.0
C4314 C 0.36422 0.78818 0.33434 0.0
H4315 H 0.37648 0.77326 0.38727 0.0
H4316 H 0.37614 0.79338 0.37599 0.0
H4317 H 0.36192 0.77036 0.36619 0.0
H4318 H 0.36742 0.7439 0.31172 0.0
H4319 H 0.34116 0.74741 0.29322 0.0
H4320 H 0.05474 0.7437 0.118 0.0
H4321 H 0.05238 0.70973 0.10459 0.0
H4322 H 0.09131 0.7255 0.06629 0.0
H4323 H 0.09366 0.75965 0.07962 0.0
H4324 H 0.04317 0.68944 0.06601 0.0
H4325 H 0.11111 0.68618 0.09297 0.0
H4326 H 0.10043 0.70535 0.10235 0.0
H4327 H 0.10949 0.70495 0.07996 0.0
C4328 C 0.06278 0.74001 0.10667 0.0
C4329 C 0.07442 0.75455 0.09995 0.0
C4330 C 0.0614 0.72049 0.09898 0.0
C4331 C 0.07178 0.71485 0.0845 0.0
C4332 C 0.08329 0.72934 0.07759 0.0
H4333 H 0.05481 0.5945 0.02123 0.0
H4334 H 0.06088 0.62989 0.02858 0.0
C4335 C 0.08455 0.74892 0.08517 0.0
C4336 C 0.07048 0.69385 0.07684 0.0
H4337 H 0.09346 0.6577 0.07496 0.0
C4338 C 0.05424 0.68257 0.06781 0.0
C4339 C 0.08483 0.68468 0.07926 0.0
C4340 C 0.10245 0.69579 0.08927 0.0
C4341 C 0.05195 0.66258 0.06131 0.0
C4342 C 0.06625 0.65339 0.06385 0.0
C4343 C 0.08253 0.66467 0.07278 0.0
C4344 C 0.06401 0.63193 0.05886 0.0
C4345 C 0.03402 0.65123 0.0523 0.0
C4346 C 0.06415 0.62116 0.07327 0.0
C4347 C 0.06066 0.60102 0.06908 0.0
C4348 C 0.05735 0.591 0.05033 0.0
C4349 C 0.05767 0.60174 0.03579 0.0
C4350 C 0.06098 0.622 0.04002 0.0
H4351 H 0.02367 0.65993 0.0536 0.0
H4352 H 0.03498 0.64609 0.0371 0.0
H4353 H 0.02974 0.63843 0.05884 0.0
H4354 H 0.0664 0.62834 0.08789 0.0
H4355 H 0.06027 0.59318 0.08061 0.0
H4356 H 0.08466 0.28566 0.9204 0.0
H4357 H 0.1112 0.28909 0.90287 0.0
H4358 H 0.0787 0.26151 0.85139 0.0
H4359 H 0.05219 0.25828 0.86874 0.0
H4360 H 0.12665 0.26233 0.8808 0.0
H4361 H 0.10512 0.31089 0.83716 0.0
H4362 H 0.09436 0.30546 0.85774 0.0
H4363 H 0.0891 0.28882 0.83568 0.0
C4364 C 0.08317 0.28032 0.90534 0.0
C4365 C 0.06622 0.2718 0.89599 0.0
C4366 C 0.09838 0.28227 0.89532 0.0
C4367 C 0.09702 0.27588 0.87568 0.0
C4368 C 0.08015 0.26697 0.86643 0.0
H4369 H 0.16557 0.27335 0.78481 0.0
H4370 H 0.14179 0.26936 0.80569 0.0
C4371 C 0.06496 0.26502 0.87642 0.0
C4372 C 0.11313 0.27855 0.86482 0.0
H4373 H 0.12995 0.29794 0.82781 0.0
C4374 C 0.12743 0.27024 0.8693 0.0
C4375 C 0.1143 0.28896 0.84985 0.0
C4376 C 0.09999 0.29921 0.84491 0.0
C4377 C 0.14245 0.27145 0.85883 0.0
C4378 C 0.14342 0.28151 0.84358 0.0
C4379 C 0.12927 0.29012 0.83938 0.0
C4380 C 0.15857 0.2828 0.83131 0.0
C4381 C 0.15688 0.26137 0.86377 0.0
C4382 C 0.17619 0.29149 0.83864 0.0
C4383 C 0.18996 0.29382 0.82661 0.0
C4384 C 0.18639 0.28771 0.80695 0.0
C4385 C 0.16884 0.27853 0.79981 0.0
C4386 C 0.15517 0.27618 0.81177 0.0
H4387 H 0.15224 0.25053 0.87261 0.0
H4388 H 0.1617 0.25414 0.85085 0.0
H4389 H 0.16827 0.27211 0.87183 0.0
H4390 H 0.17921 0.29705 0.85359 0.0
H4391 H 0.20323 0.30112 0.83262 0.0
H4392 H 0.5699 0.74115 0.90489 0.0
H4393 H 0.56287 0.71969 0.92755 0.0
H4394 H 0.58444 0.76672 0.97338 0.0
H4395 H 0.5911 0.78829 0.95091 0.0
H4396 H 0.58467 0.70981 0.9535 0.0
H4397 H 0.53588 0.74653 0.9897 0.0
H4398 H 0.54376 0.75157 0.96764 0.0
H4399 H 0.55714 0.76208 0.98947 0.0
C4400 C 0.57313 0.74689 0.9198 0.0
C4401 C 0.58094 0.7664 0.92615 0.0
C4402 C 0.5691 0.73464 0.93272 0.0
C4403 C 0.57279 0.74171 0.95217 0.0
C4404 C 0.58102 0.76108 0.95848 0.0
H4405 H 0.56598 0.68509 0.04957 0.0
H4406 H 0.57167 0.70873 0.02874 0.0
C4407 C 0.58495 0.77334 0.94561 0.0
C4408 C 0.56841 0.72872 0.96583 0.0
H4409 H 0.54482 0.72214 1.00379 0.0
C4410 C 0.5759 0.71247 0.96444 0.0
C4411 C 0.55697 0.73224 0.98012 0.0
C4412 C 0.54783 0.74895 0.98176 0.0
C4413 C 0.57241 0.69974 0.97705 0.0
C4414 C 0.56104 0.7033 0.99133 0.0
C4415 C 0.55361 0.71957 0.99285 0.0
C4416 C 0.55632 0.68983 0.00438 0.0
C4417 C 0.58097 0.6826 0.97515 0.0
C4418 C 0.54536 0.67171 0.99765 0.0
C4419 C 0.54197 0.65832 0.00949 0.0
C4420 C 0.54954 0.66276 0.02827 0.0
C4421 C 0.55989 0.68127 0.03521 0.0
C4422 C 0.56323 0.69473 0.02333 0.0
H4423 H 0.59191 0.68382 0.96574 0.0
H4424 H 0.58632 0.68087 0.98917 0.0
H4425 H 0.57082 0.66941 0.96915 0.0
H4426 H 0.53972 0.66781 0.98312 0.0
H4427 H 0.53364 0.64432 1.00383 0.0
H4428 H 0.04916 0.79318 0.72876 0.0
H4429 H 0.07664 0.79079 0.74602 0.0
H4430 H 0.10099 0.78275 0.6937 0.0
H4431 H 0.07393 0.78557 0.67656 0.0
H4432 H 0.09108 0.75968 0.74197 0.0
H4433 H 0.14045 0.82063 0.72681 0.0
H4434 H 0.11683 0.81882 0.72274 0.0
H4435 H 0.12855 0.80641 0.70546 0.0
C4436 C 0.06055 0.79139 0.72104 0.0
C4437 C 0.05942 0.78961 0.70132 0.0
C4438 C 0.0762 0.78995 0.73089 0.0
C4439 C 0.09097 0.78685 0.72119 0.0
C4440 C 0.08997 0.78565 0.70157 0.0
H4441 H 0.16973 0.72345 0.73991 0.0
H4442 H 0.14273 0.73489 0.73342 0.0
C4443 C 0.07442 0.78714 0.69176 0.0
C4444 C 0.1068 0.78292 0.73108 0.0
H4445 H 0.15213 0.79407 0.73483 0.0
C4446 C 0.10442 0.76743 0.74072 0.0
C4447 C 0.12421 0.79319 0.72972 0.0
C4448 C 0.12765 0.81081 0.72079 0.0
C4449 C 0.11901 0.76127 0.74809 0.0
C4450 C 0.13641 0.77056 0.74534 0.0
C4451 C 0.13879 0.78674 0.73668 0.0
C4452 C 0.15229 0.76322 0.75045 0.0
C4453 C 0.11559 0.74476 0.75859 0.0
C4454 C 0.16679 0.77541 0.76192 0.0
C4455 C 0.18231 0.76895 0.76547 0.0
C4456 C 0.18363 0.75018 0.7576 0.0
C4457 C 0.16899 0.73788 0.74641 0.0
C4458 C 0.15353 0.74439 0.74275 0.0
H4459 H 0.10273 0.74373 0.76499 0.0
H4460 H 0.11488 0.73112 0.74857 0.0
H4461 H 0.12636 0.74623 0.7699 0.0
H4462 H 0.16617 0.79001 0.76794 0.0
H4463 H 0.19334 0.7787 0.77428 0.0
H4464 H 0.07683 0.3692 0.38091 0.0
H4465 H 0.07367 0.40158 0.39437 0.0
H4466 H 0.09394 0.39484 0.44901 0.0
H4467 H 0.09703 0.36232 0.43568 0.0
H4468 H 0.06143 0.40686 0.44849 0.0
H4469 H 0.11157 0.45148 0.41286 0.0
H4470 H 0.09652 0.4322 0.39731 0.0
H4471 H 0.11178 0.42683 0.41422 0.0
C4472 C 0.08082 0.3747 0.39574 0.0
C4473 C 0.08715 0.36326 0.40727 0.0
C4474 C 0.07911 0.39323 0.40337 0.0
C4475 C 0.08377 0.40063 0.4226 0.0
C4476 C 0.09038 0.38937 0.43409 0.0
H4477 H 0.08588 0.51204 0.48903 0.0
H4478 H 0.09346 0.48292 0.47213 0.0
C4479 C 0.09213 0.37084 0.42647 0.0
C4480 C 0.08045 0.41952 0.431 0.0
H4481 H 0.09134 0.46737 0.42962 0.0
C4482 C 0.068 0.4201 0.44443 0.0
C4483 C 0.08915 0.43672 0.42568 0.0
C4484 C 0.10313 0.43689 0.41185 0.0
C4485 C 0.0638 0.43747 0.45251 0.0
C4486 C 0.07214 0.45457 0.44684 0.0
C4487 C 0.08481 0.4541 0.43366 0.0
C4488 C 0.06828 0.47317 0.45517 0.0
C4489 C 0.05062 0.43751 0.46722 0.0
C4490 C 0.05179 0.47744 0.45077 0.0
C4491 C 0.04739 0.49406 0.46039 0.0
C4492 C 0.0594 0.50647 0.47463 0.0
C4493 C 0.07626 0.50259 0.47829 0.0
C4494 C 0.08067 0.48605 0.46861 0.0
H4495 H 0.04739 0.42355 0.47207 0.0
H4496 H 0.0559 0.44905 0.47961 0.0
H4497 H 0.03813 0.44044 0.46121 0.0
H4498 H 0.04214 0.46761 0.44032 0.0
H4499 H 0.03433 0.49671 0.45727 0.0
H4500 H 0.46456 0.31307 0.18647 0.0
H4501 H 0.43541 0.31229 0.19878 0.0
H4502 H 0.43465 0.25577 0.21074 0.0
H4503 H 0.46369 0.25649 0.19869 0.0
H4504 H 0.40354 0.28474 0.1852 0.0
H4505 H 0.42262 0.28532 0.26032 0.0
H4506 H 0.43874 0.29204 0.2441 0.0
H4507 H 0.42986 0.26712 0.24436 0.0
C4508 C 0.45826 0.30061 0.19197 0.0
C4509 C 0.46641 0.28488 0.19171 0.0
C4510 C 0.44162 0.30016 0.19891 0.0
C4511 C 0.43301 0.28407 0.20585 0.0
C4512 C 0.44123 0.26846 0.20576 0.0
H4513 H 0.33355 0.24567 0.25146 0.0
H4514 H 0.36271 0.24889 0.23888 0.0
C4515 C 0.45779 0.26888 0.19881 0.0
C4516 C 0.41509 0.28308 0.21246 0.0
H4517 H 0.39173 0.27617 0.25025 0.0
C4518 C 0.40093 0.28319 0.19951 0.0
C4519 C 0.41178 0.28087 0.23108 0.0
C4520 C 0.42658 0.2815 0.24583 0.0
C4521 C 0.38338 0.28059 0.20457 0.0
C4522 C 0.38005 0.27818 0.22317 0.0
C4523 C 0.39428 0.27817 0.23608 0.0
C4524 C 0.36196 0.2757 0.2297 0.0
C4525 C 0.36859 0.2797 0.18971 0.0
C4526 C 0.35179 0.28957 0.22857 0.0
C4527 C 0.33514 0.28763 0.2356 0.0
C4528 C 0.32875 0.27227 0.24467 0.0
C4529 C 0.33858 0.25804 0.24519 0.0
C4530 C 0.35516 0.25984 0.23795 0.0
H4531 H 0.37258 0.27574 0.17527 0.0
H4532 H 0.35644 0.26915 0.19147 0.0
H4533 H 0.36525 0.29404 0.19093 0.0
H4534 H 0.35685 0.3021 0.22255 0.0
H4535 H 0.32754 0.29834 0.23414 0.0
H4536 H 0.66331 0.53942 0.34096 0.0
H4537 H 0.64919 0.54218 0.37075 0.0
H4538 H 0.6074 0.49377 0.34639 0.0
H4539 H 0.62152 0.49103 0.31658 0.0
H4540 H 0.61826 0.54987 0.38261 0.0
H4541 H 0.61725 0.47645 0.3948 0.0
H4542 H 0.62955 0.4862 0.37685 0.0
H4543 H 0.60594 0.47687 0.3726 0.0
C4544 C 0.65114 0.52922 0.34181 0.0
C4545 C 0.6439 0.51487 0.32578 0.0
C4546 C 0.64289 0.53086 0.35915 0.0
C4547 C 0.62703 0.51805 0.36176 0.0
C4548 C 0.61973 0.50377 0.34567 0.0
H4549 H 0.55979 0.50274 0.45947 0.0
H4550 H 0.57331 0.49998 0.42941 0.0
C4551 C 0.62788 0.50225 0.32824 0.0
C4552 C 0.61819 0.51993 0.38087 0.0
H4553 H 0.60155 0.4949 0.41526 0.0
C4554 C 0.61475 0.53773 0.38965 0.0
C4555 C 0.61314 0.50444 0.39078 0.0
C4556 C 0.61678 0.48495 0.38343 0.0
C4557 C 0.60638 0.54031 0.40697 0.0
C4558 C 0.60152 0.52488 0.41707 0.0
C4559 C 0.60498 0.50706 0.40824 0.0
C4560 C 0.59286 0.52679 0.43635 0.0
C4561 C 0.60216 0.55966 0.41371 0.0
C4562 C 0.5989 0.54253 0.45154 0.0
C4563 C 0.59075 0.54431 0.46894 0.0
C4564 C 0.57616 0.53033 0.47252 0.0
C4565 C 0.5705 0.51426 0.45763 0.0
C4566 C 0.57855 0.51256 0.44015 0.0
H4567 H 0.60072 0.56733 0.40184 0.0
H4568 H 0.5897 0.55834 0.42085 0.0
H4569 H 0.61326 0.56865 0.42376 0.0
H4570 H 0.61024 0.55359 0.45018 0.0
H4571 H 0.59605 0.55685 0.47971 0.0
H4572 H 0.27952 0.88618 0.05574 0.0
H4573 H 0.28048 0.86304 0.07659 0.0
H4574 H 0.33266 0.89442 0.10059 0.0
H4575 H 0.33184 0.91769 0.07977 0.0
H4576 H 0.30813 0.84093 0.07676 0.0
H4577 H 0.30349 0.88497 0.14664 0.0
H4578 H 0.29636 0.89113 0.12471 0.0
H4579 H 0.3196 0.89568 0.13232 0.0
C4580 C 0.29108 0.88835 0.06568 0.0
C4581 C 0.30561 0.90372 0.06616 0.0
C4582 C 0.29162 0.87509 0.0775 0.0
C4583 C 0.3066 0.87711 0.0901 0.0
C4584 C 0.3209 0.89278 0.09107 0.0
H4585 H 0.34152 0.79391 0.14803 0.0
H4586 H 0.33812 0.81582 0.12636 0.0
C4587 C 0.32042 0.90602 0.07917 0.0
C4588 C 0.30769 0.8622 0.10142 0.0
H4589 H 0.30965 0.8542 0.14652 0.0
C4590 C 0.30842 0.84377 0.09201 0.0
C4591 C 0.30796 0.86603 0.12126 0.0
C4592 C 0.30668 0.88547 0.1319 0.0
C4593 C 0.30963 0.82903 0.10201 0.0
C4594 C 0.31021 0.83295 0.12187 0.0
C4595 C 0.30928 0.85133 0.13126 0.0
C4596 C 0.3116 0.81816 0.13328 0.0
C4597 C 0.31007 0.80934 0.09132 0.0
C4598 C 0.29773 0.81212 0.14407 0.0
C4599 C 0.29959 0.7996 0.15634 0.0
C4600 C 0.31545 0.79306 0.15815 0.0
C4601 C 0.32909 0.79855 0.14676 0.0
C4602 C 0.32719 0.81108 0.13444 0.0
H4603 H 0.30592 0.80767 0.07607 0.0
H4604 H 0.32382 0.80699 0.09274 0.0
H4605 H 0.30128 0.79804 0.09719 0.0
H4606 H 0.28559 0.81743 0.14329 0.0
H4607 H 0.28877 0.79539 0.16476 0.0
H4608 H 0.93037 0.56314 0.86402 0.0
H4609 H 0.95003 0.56604 0.89258 0.0
H4610 H 0.9955 0.57203 0.86012 0.0
H4611 H 0.97597 0.56902 0.83152 0.0
H4612 H 0.99335 0.54323 0.8815 0.0
H4613 H 0.98578 0.61155 0.92513 0.0
H4614 H 0.96505 0.59539 0.916 0.0
H4615 H 0.97967 0.60548 0.90001 0.0
C4616 C 0.94458 0.56539 0.86304 0.0
C4617 C 0.95163 0.5658 0.84555 0.0
C4618 C 0.9558 0.56717 0.87937 0.0
C4619 C 0.97423 0.56946 0.87847 0.0
C4620 C 0.98133 0.57039 0.86111 0.0
H4621 H 0.05107 0.5783 0.97593 0.0
H4622 H 0.03725 0.58453 0.94688 0.0
C4623 C 0.97014 0.56866 0.8448 0.0
C4624 C 0.98588 0.56894 0.89523 0.0
H4625 H 0.99869 0.59045 0.9411 0.0
C4626 C 0.99472 0.55371 0.89444 0.0
C4627 C 0.98775 0.58272 0.91204 0.0
C4628 C 0.9792 0.59982 0.91336 0.0
C4629 C 0.00474 0.55141 0.91029 0.0
C4630 C 0.00587 0.56461 0.92734 0.0
C4631 C 0.9977 0.58032 0.92797 0.0
C4632 C 0.01424 0.56133 0.94497 0.0
C4633 C 0.01376 0.53462 0.90887 0.0
C4634 C 0.00575 0.54638 0.95347 0.0
C4635 C 0.01353 0.54279 0.96994 0.0
C4636 C 0.03004 0.55406 0.97823 0.0
C4637 C 0.03847 0.56921 0.96977 0.0
C4638 C 0.03057 0.57286 0.95326 0.0
H4639 H 0.01479 0.5282 0.89397 0.0
H4640 H 0.02729 0.5391 0.91638 0.0
H4641 H 0.00593 0.52338 0.91561 0.0
H4642 H 0.99306 0.53744 0.9473 0.0
H4643 H 0.00661 0.53107 0.97608 0.0
H4644 H 0.27738 0.19262 0.57877 0.0
H4645 H 0.27725 0.2096 0.61095 0.0
H4646 H 0.3086 0.26095 0.59696 0.0
H4647 H 0.30896 0.24385 0.56457 0.0
H4648 H 0.32136 0.25341 0.63037 0.0
H4649 H 0.24905 0.24898 0.63102 0.0
H4650 H 0.25401 0.22581 0.62362 0.0
H4651 H 0.25948 0.24403 0.60947 0.0
C4652 C 0.28418 0.20756 0.58246 0.0
C4653 C 0.29313 0.21688 0.56903 0.0
C4654 C 0.28396 0.21733 0.60088 0.0
C4655 C 0.29258 0.23672 0.60637 0.0
C4656 C 0.30169 0.24606 0.59305 0.0
H4657 H 0.30214 0.30244 0.72428 0.0
H4658 H 0.29909 0.29647 0.68942 0.0
C4659 C 0.30189 0.23627 0.57453 0.0
C4660 C 0.29277 0.24674 0.62629 0.0
H4661 H 0.26571 0.25492 0.6615 0.0
C4662 C 0.30919 0.25413 0.63705 0.0
C4663 C 0.27691 0.24785 0.63509 0.0
C4664 C 0.25888 0.24143 0.62414 0.0
C4665 C 0.31012 0.26143 0.65651 0.0
C4666 C 0.29426 0.26141 0.66547 0.0
C4667 C 0.27786 0.25492 0.6546 0.0
C4668 C 0.29454 0.26554 0.68636 0.0
C4669 C 0.32801 0.26819 0.66769 0.0
C4670 C 0.29271 0.25019 0.69607 0.0
C4671 C 0.29447 0.25356 0.71573 0.0
C4672 C 0.29774 0.27234 0.7262 0.0
C4673 C 0.29919 0.28781 0.71654 0.0
C4674 C 0.29756 0.28441 0.69669 0.0
H4675 H 0.33916 0.268 0.65858 0.0
H4676 H 0.32924 0.28301 0.67563 0.0
H4677 H 0.32922 0.25882 0.67816 0.0
H4678 H 0.29046 0.23556 0.68839 0.0
H4679 H 0.29357 0.24141 0.72284 0.0
H4680 H 0.66469 0.51445 0.20077 0.0
H4681 H 0.64989 0.51854 0.17123 0.0
H4682 H 0.60065 0.51557 0.19701 0.0
H4683 H 0.61554 0.51185 0.22662 0.0
H4684 H 0.62575 0.49954 0.1449 0.0
H4685 H 0.59597 0.56005 0.17439 0.0
H4686 H 0.61172 0.5516 0.18832 0.0
H4687 H 0.58866 0.53939 0.18484 0.0
C4688 C 0.65069 0.51469 0.20033 0.0
C4689 C 0.64165 0.51278 0.21674 0.0
C4690 C 0.64205 0.51708 0.1831 0.0
C4691 C 0.62381 0.51794 0.18113 0.0
C4692 C 0.61471 0.51572 0.1975 0.0
H4693 H 0.55013 0.52911 0.08151 0.0
H4694 H 0.56252 0.52568 0.11283 0.0
C4695 C 0.62335 0.51331 0.21473 0.0
C4696 C 0.61454 0.52061 0.16212 0.0
H4697 H 0.58662 0.54571 0.14243 0.0
C4698 C 0.61731 0.5098 0.14464 0.0
C4699 C 0.60311 0.53379 0.16072 0.0
C4700 C 0.59979 0.54701 0.17802 0.0
C4701 C 0.60922 0.51141 0.12675 0.0
C4702 C 0.59796 0.52471 0.12532 0.0
C4703 C 0.59502 0.53543 0.14278 0.0
C4704 C 0.58983 0.52797 0.10603 0.0
C4705 C 0.61252 0.49812 0.10947 0.0
C4706 C 0.60052 0.53121 0.09108 0.0
C4707 C 0.5934 0.5333 0.07316 0.0
C4708 C 0.5751 0.53267 0.06881 0.0
C4709 C 0.56427 0.53 0.08385 0.0
C4710 C 0.57149 0.5279 0.10201 0.0
H4711 H 0.61574 0.48481 0.1131 0.0
H4712 H 0.6008 0.494 0.09888 0.0
H4713 H 0.62406 0.50543 0.10299 0.0
H4714 H 0.61468 0.53213 0.09318 0.0
H4715 H 0.60247 0.53529 0.06237 0.0
H4716 H 0.29398 0.91452 0.95449 0.0
H4717 H 0.29273 0.89114 0.92531 0.0
H4718 H 0.29979 0.84803 0.95777 0.0
H4719 H 0.30094 0.87119 0.98695 0.0
H4720 H 0.32483 0.85532 0.92923 0.0
H4721 H 0.25383 0.8414 0.90175 0.0
H4722 H 0.26448 0.86625 0.90969 0.0
H4723 H 0.26136 0.85037 0.92637 0.0
C4724 C 0.29498 0.89998 0.95539 0.0
C4725 C 0.29759 0.89467 0.97295 0.0
C4726 C 0.2942 0.88665 0.93875 0.0
C4727 C 0.29605 0.86789 0.93949 0.0
C4728 C 0.29824 0.86243 0.95699 0.0
H4729 H 0.29152 0.78047 0.83758 0.0
H4730 H 0.2896 0.79456 0.87056 0.0
C4731 C 0.29889 0.87568 0.9736 0.0
C4732 C 0.2972 0.85449 0.922 0.0
H4733 H 0.27391 0.83091 0.88039 0.0
C4734 C 0.31366 0.84974 0.91865 0.0
C4735 C 0.28254 0.84716 0.90838 0.0
C4736 C 0.26448 0.85138 0.9117 0.0
C4737 C 0.31604 0.83856 0.90152 0.0
C4738 C 0.3016 0.83203 0.88754 0.0
C4739 C 0.28493 0.83599 0.89123 0.0
C4740 C 0.30401 0.82289 0.86831 0.0
C4741 C 0.33406 0.83424 0.8982 0.0
C4742 C 0.31293 0.83416 0.85637 0.0
C4743 C 0.31369 0.82633 0.83753 0.0
C4744 C 0.30551 0.80705 0.83027 0.0
C4745 C 0.29744 0.7955 0.84258 0.0
C4746 C 0.29646 0.80345 0.86143 0.0
H4747 H 0.3427 0.8368 0.91158 0.0
H4748 H 0.33272 0.81911 0.89102 0.0
H4749 H 0.34071 0.84366 0.88889 0.0
H4750 H 0.31878 0.84922 0.8615 0.0
H4751 H 0.32022 0.83562 0.82856 0.0
H4752 H 0.95252 0.57788 0.74699 0.0
H4753 H 0.9715 0.57544 0.72096 0.0
H4754 H 0.97695 0.51945 0.73009 0.0
H4755 H 0.95778 0.52164 0.75593 0.0
H4756 H 0.00644 0.57008 0.7204 0.0
H4757 H 0.95914 0.50975 0.67423 0.0
H4758 H 0.95273 0.52374 0.69485 0.0
H4759 H 0.96454 0.50513 0.69723 0.0
C4760 C 0.95779 0.56506 0.74346 0.0
C4761 C 0.95358 0.54988 0.75338 0.0
C4762 C 0.96862 0.56371 0.72862 0.0
C4763 C 0.97536 0.54714 0.72343 0.0
C4764 C 0.97156 0.53219 0.73364 0.0
H4765 H 0.04036 0.50839 0.63755 0.0
H4766 H 0.02377 0.51304 0.66529 0.0
C4767 C 0.9607 0.5335 0.74844 0.0
C4768 C 0.9863 0.54545 0.70729 0.0
H4769 H 0.98804 0.51821 0.66424 0.0
C4770 C 1.00241 0.55881 0.70808 0.0
C4771 C 0.98092 0.53076 0.69122 0.0
C4772 C 0.96331 0.51663 0.68918 0.0
C4773 C 0.01352 0.55759 0.69335 0.0
C4774 C 0.00822 0.54275 0.67741 0.0
C4775 C 0.99207 0.52949 0.67658 0.0
C4776 C 0.0192 0.54068 0.66135 0.0
C4777 C 0.03097 0.57191 0.69509 0.0
C4778 C 0.02209 0.55472 0.65001 0.0
C4779 C 0.03161 0.55214 0.63419 0.0
C4780 C 0.03833 0.53544 0.62945 0.0
C4781 C 0.03556 0.52152 0.64099 0.0
C4782 C 0.02601 0.52409 0.65676 0.0
H4783 H 0.03487 0.57964 0.70984 0.0
H4784 H 0.04173 0.5647 0.69013 0.0
H4785 H 0.02973 0.58269 0.68615 0.0
H4786 H 0.0167 0.5675 0.65318 0.0
H4787 H 0.03364 0.56318 0.62563 0.0
H4788 H 0.31086 0.18887 0.4503 0.0
H4789 H 0.31131 0.20072 0.42056 0.0
H4790 H 0.28238 0.24322 0.44341 0.0
H4791 H 0.28238 0.23177 0.47342 0.0
H4792 H 0.28503 0.20153 0.39578 0.0
H4793 H 0.32172 0.2763 0.42231 0.0
H4794 H 0.3201 0.25791 0.43651 0.0
H4795 H 0.30207 0.26994 0.43405 0.0
C4796 C 0.30476 0.20088 0.44908 0.0
C4797 C 0.2967 0.20947 0.46432 0.0
C4798 C 0.30497 0.20762 0.43201 0.0
C4799 C 0.29712 0.2231 0.4297 0.0
C4800 C 0.28896 0.23162 0.44489 0.0
H4801 H 0.268 0.24876 0.3193 0.0
H4802 H 0.26793 0.23765 0.34938 0.0
C4803 C 0.28887 0.22498 0.46205 0.0
C4804 C 0.29702 0.22981 0.41122 0.0
H4805 H 0.30835 0.26939 0.39081 0.0
C4806 C 0.29018 0.21637 0.39471 0.0
C4807 C 0.30396 0.24912 0.40967 0.0
C4808 C 0.31254 0.26412 0.42654 0.0
C4809 C 0.28994 0.22167 0.37685 0.0
C4810 C 0.29629 0.24112 0.37538 0.0
C4811 C 0.30329 0.25452 0.39186 0.0
C4812 C 0.29622 0.24781 0.35689 0.0
C4813 C 0.28329 0.20623 0.35969 0.0
C4814 C 0.31202 0.25772 0.35114 0.0
C4815 C 0.31206 0.26438 0.33404 0.0
C4816 C 0.29626 0.26132 0.32219 0.0
C4817 C 0.28044 0.25134 0.32794 0.0
C4818 C 0.2804 0.24482 0.34515 0.0
H4819 H 0.28398 0.19178 0.36253 0.0
H4820 H 0.26918 0.20607 0.35564 0.0
H4821 H 0.29108 0.20891 0.34757 0.0
H4822 H 0.32441 0.26028 0.3599 0.0
H4823 H 0.32451 0.27199 0.33015 0.0
H4824 H 0.33002 0.60222 0.497 0.0
H4825 H 0.35109 0.58108 0.49292 0.0
H4826 H 0.34098 0.56566 0.54701 0.0
H4827 H 0.31973 0.58676 0.55118 0.0
H4828 H 0.38178 0.58535 0.51779 0.0
H4829 H 0.33719 0.51335 0.51101 0.0
H4830 H 0.32913 0.53436 0.50745 0.0
H4831 H 0.33462 0.53095 0.5309 0.0
C4832 C 0.33214 0.59418 0.50795 0.0
C4833 C 0.32327 0.59615 0.52443 0.0
C4834 C 0.34416 0.58211 0.50559 0.0
C4835 C 0.34743 0.57169 0.51957 0.0
C4836 C 0.33839 0.57335 0.53592 0.0
H4837 H 0.44128 0.52584 0.53514 0.0
H4838 H 0.41585 0.54104 0.53964 0.0
C4839 C 0.32636 0.58548 0.53832 0.0
C4840 C 0.36127 0.56022 0.51757 0.0
H4841 H 0.36825 0.51461 0.51325 0.0
C4842 C 0.37883 0.56989 0.51678 0.0
C4843 C 0.3573 0.54005 0.51612 0.0
C4844 C 0.33853 0.52897 0.51625 0.0
C4845 C 0.39261 0.55993 0.51474 0.0
C4846 C 0.38872 0.53982 0.51368 0.0
C4847 C 0.37114 0.53007 0.51424 0.0
C4848 C 0.40288 0.52879 0.51172 0.0
C4849 C 0.4112 0.57098 0.51348 0.0
C4850 C 0.40361 0.51635 0.49477 0.0
C4851 C 0.41816 0.5077 0.49211 0.0
C4852 C 0.43216 0.51137 0.50641 0.0
C4853 C 0.43087 0.52306 0.52373 0.0
C4854 C 0.41635 0.53168 0.52636 0.0
H4855 H 0.4113 0.58558 0.51055 0.0
H4856 H 0.41922 0.57254 0.52707 0.0
H4857 H 0.41774 0.56318 0.50225 0.0
H4858 H 0.3933 0.51397 0.48333 0.0
H4859 H 0.41883 0.49884 0.4786 0.0
H4860 H 0.8509 0.95358 0.54126 0.0
H4861 H 0.88115 0.97253 0.54217 0.0
H4862 H 0.90189 0.92134 0.54087 0.0
H4863 H 0.87165 0.9023 0.54025 0.0
H4864 H 0.92151 0.9528 0.56681 0.0
H4865 H 0.91053 0.97236 0.4968 0.0
H4866 H 0.89505 0.97861 0.51321 0.0
H4867 H 0.89522 0.95377 0.50497 0.0
C4868 C 0.8619 0.94635 0.5412 0.0
C4869 C 0.85886 0.9264 0.54055 0.0
C4870 C 0.87919 0.9572 0.54164 0.0
C4871 C 0.89379 0.94833 0.54128 0.0
C4872 C 0.89083 0.92849 0.54108 0.0
H4873 H 0.9981 0.98995 0.50873 0.0
H4874 H 0.9683 0.97288 0.51242 0.0
C4875 C 0.87353 0.91762 0.54068 0.0
C4876 C 0.91211 0.95966 0.54078 0.0
H4877 H 0.938 0.98716 0.5144 0.0
C4878 C 0.92513 0.96034 0.55537 0.0
C4879 C 0.91687 0.96934 0.52575 0.0
C4880 C 0.90376 0.96839 0.50919 0.0
C4881 C 0.94275 0.97048 0.55536 0.0
C4882 C 0.94742 0.9804 0.54047 0.0
C4883 C 0.93439 0.9797 0.5259 0.0
C4884 C 0.96594 0.99067 0.53903 0.0
C4885 C 0.95633 0.97001 0.57097 0.0
C4886 C 0.97469 0.0064 0.55283 0.0
C4887 C 0.99193 0.01625 0.55081 0.0
C4888 C 1.00065 0.01069 0.53483 0.0
C4889 C 0.99186 0.99479 0.52119 0.0
C4890 C 0.97474 0.98497 0.52324 0.0
H4891 H 0.95163 0.95831 0.57884 0.0
H4892 H 0.96907 0.96807 0.56529 0.0
H4893 H 0.95894 0.98386 0.58108 0.0
H4894 H 0.9681 0.01125 0.56503 0.0
H4895 H 0.99835 0.02825 0.56171 0.0
H4896 H 0.92221 0.13831 0.28641 0.0
H4897 H 0.90653 0.16475 0.28637 0.0
H4898 H 0.85792 0.12375 0.26574 0.0
H4899 H 0.87351 0.09741 0.26615 0.0
H4900 H 0.89114 0.18138 0.26388 0.0
H4901 H 0.83503 0.15426 0.30288 0.0
H4902 H 0.85383 0.14304 0.30059 0.0
H4903 H 0.83611 0.13745 0.2819 0.0
C4904 C 0.90812 0.13472 0.28197 0.0
C4905 C 0.89949 0.11505 0.27645 0.0
C4906 C 0.89895 0.15019 0.2819 0.0
C4907 C 0.88041 0.14715 0.27647 0.0
C4908 C 0.87186 0.12743 0.27072 0.0
H4909 H 0.83191 0.24129 0.24151 0.0
H4910 H 0.84593 0.21441 0.24404 0.0
C4911 C 0.88103 0.11198 0.27077 0.0
C4912 C 0.87046 0.16429 0.27636 0.0
H4913 H 0.83204 0.18043 0.28781 0.0
C4914 C 0.87822 0.18088 0.26921 0.0
C4915 C 0.8535 0.16494 0.28349 0.0
C4916 C 0.84419 0.14909 0.29283 0.0
C4917 C 0.86986 0.19693 0.26855 0.0
C4918 C 0.85257 0.1972 0.27491 0.0
C4919 C 0.84499 0.18088 0.28255 0.0
C4920 C 0.8424 0.21391 0.27344 0.0
C4921 C 0.8802 0.21389 0.2614 0.0
C4922 C 0.83423 0.22318 0.28865 0.0
C4923 C 0.82572 0.23903 0.28712 0.0
C4924 C 0.82456 0.24632 0.27012 0.0
C4925 C 0.83225 0.23661 0.25495 0.0
C4926 C 0.84068 0.221 0.25647 0.0
H4927 H 0.89474 0.21474 0.26333 0.0
H4928 H 0.87648 0.21226 0.24608 0.0
H4929 H 0.87739 0.2276 0.26873 0.0
H4930 H 0.8348 0.2185 0.30207 0.0
H4931 H 0.82037 0.24578 0.29942 0.0
H4932 H 0.74169 0.11475 0.98826 0.0
H4933 H 0.70922 0.10691 0.98439 0.0
H4934 H 0.70817 0.08766 0.0377 0.0
H4935 H 0.74068 0.09627 0.04202 0.0
H4936 H 0.6843 0.07553 0.98205 0.0
H4937 H 0.67803 0.12679 0.0464 0.0
H4938 H 0.69909 0.12593 0.03697 0.0
H4939 H 0.68983 0.10897 0.05129 0.0
C4940 C 0.73454 0.10865 0.99906 0.0
C4941 C 0.74368 0.10628 0.01553 0.0
C4942 C 0.71598 0.10422 0.99686 0.0
C4943 C 0.70624 0.09719 0.01099 0.0
C4944 C 0.71539 0.09367 0.0269 0.0
H4945 H 0.59403 0.04574 0.99779 0.0
H4946 H 0.62624 0.05234 0.99913 0.0
C4947 C 0.73395 0.09839 0.02926 0.0
C4948 C 0.68657 0.09398 0.0092 0.0
H4949 H 0.65135 0.10578 0.03157 0.0
C4950 C 0.6771 0.0822 0.99285 0.0
C4951 C 0.67718 0.10304 0.02309 0.0
C4952 C 0.68656 0.11705 0.04032 0.0
C4953 C 0.6585 0.07893 0.99016 0.0
C4954 C 0.64908 0.0872 0.0045 0.0
C4955 C 0.65856 0.09927 0.02068 0.0
C4956 C 0.62939 0.08323 1.00325 0.0
C4957 C 0.64923 0.06697 0.97181 0.0
C4958 C 0.62036 0.09838 0.00561 0.0
C4959 C 0.60183 0.09459 0.0055 0.0
C4960 C 0.59213 0.07562 1.00336 0.0
C4961 C 0.60114 0.0605 1.00028 0.0
C4962 C 0.6196 0.06427 1.0006 0.0
H4963 H 0.65821 0.06738 0.96029 0.0
H4964 H 0.64514 0.0518 0.97351 0.0
H4965 H 0.63722 0.07198 0.96749 0.0
H4966 H 0.62765 0.11314 0.00764 0.0
H4967 H 0.59511 0.10646 0.00749 0.0
H4968 H 0.1923 0.46485 0.2718 0.0
H4969 H 0.20815 0.44164 0.28157 0.0
H4970 H 0.25246 0.46303 0.25147 0.0
H4971 H 0.2368 0.48668 0.24197 0.0
H4972 H 0.22187 0.4126 0.26166 0.0
H4973 H 0.2754 0.46905 0.30481 0.0
H4974 H 0.25516 0.47424 0.29541 0.0
H4975 H 0.27258 0.4709 0.28043 0.0
C4976 C 0.20538 0.46455 0.26716 0.0
C4977 C 0.2134 0.47769 0.25628 0.0
C4978 C 0.2144 0.45126 0.27272 0.0
C4979 C 0.23159 0.45085 0.26752 0.0
C4980 C 0.23935 0.4634 0.25597 0.0
H4981 H 0.30624 0.38544 0.30365 0.0
H4982 H 0.29142 0.40545 0.28694 0.0
C4983 C 0.23036 0.47681 0.25047 0.0
C4984 C 0.24149 0.4377 0.27481 0.0
H4985 H 0.27784 0.43693 0.30347 0.0
C4986 C 0.23415 0.41789 0.27073 0.0
C4987 C 0.25748 0.44468 0.28669 0.0
C4988 C 0.26558 0.46588 0.29226 0.0
C4989 C 0.24235 0.40487 0.2783 0.0
C4990 C 0.25816 0.41191 0.2904 0.0
C4991 C 0.26572 0.43164 0.29415 0.0
C4992 C 0.26679 0.39916 0.29991 0.0
C4993 C 0.23403 0.3837 0.27329 0.0
C4994 C 0.25788 0.38917 0.31285 0.0
C4995 C 0.26626 0.37768 0.32235 0.0
C4996 C 0.28377 0.3761 0.31918 0.0
C4997 C 0.29268 0.38621 0.30625 0.0
C4998 C 0.28427 0.39769 0.29675 0.0
H4999 H 0.22504 0.38022 0.26007 0.0
H5000 H 0.24434 0.37498 0.27162 0.0
H5001 H 0.22602 0.37947 0.2848 0.0
H5002 H 0.24449 0.39043 0.31574 0.0
H5003 H 0.25899 0.3699 0.33207 0.0
H5004 H 0.24586 0.40024 0.01672 0.0
H5005 H 0.22267 0.41838 0.0129 0.0
H5006 H 0.25331 0.4665 0.05295 0.0
H5007 H 0.27669 0.4487 0.05634 0.0
H5008 H 0.20148 0.43435 0.03647 0.0
H5009 H 0.2455 0.49183 0.00886 0.0
H5010 H 0.25201 0.46986 0.01179 0.0
H5011 H 0.25382 0.48914 0.03166 0.0
C5012 C 0.24762 0.41467 0.02473 0.0
C5013 C 0.26321 0.42309 0.03668 0.0
C5014 C 0.23434 0.42503 0.02256 0.0
C5015 C 0.23637 0.44401 0.0323 0.0
C5016 C 0.25161 0.45212 0.04483 0.0
H5017 H 0.1526 0.5101 0.04455 0.0
H5018 H 0.17329 0.48928 0.04907 0.0
C5019 C 0.26494 0.44186 0.04686 0.0
C5020 C 0.22271 0.45542 0.02921 0.0
H5021 H 0.21734 0.49758 0.01683 0.0
C5022 C 0.20493 0.44814 0.0321 0.0
C5023 C 0.22708 0.4733 0.02319 0.0
C5024 C 0.2456 0.48141 0.0185 0.0
C5025 C 0.19153 0.45835 0.02943 0.0
C5026 C 0.19607 0.47659 0.02416 0.0
C5027 C 0.21381 0.48371 0.02105 0.0
C5028 C 0.18269 0.48842 0.02129 0.0
C5029 C 0.1726 0.44923 0.03187 0.0
C5030 C 0.1812 0.49524 0.00432 0.0
C5031 C 0.1696 0.50737 1.00185 0.0
C5032 C 0.15911 0.51297 0.01624 0.0
C5033 C 0.16032 0.50586 0.0331 0.0
C5034 C 0.17211 0.49387 0.03566 0.0
H5035 H 0.1706 0.43337 0.03022 0.0
H5036 H 0.16941 0.45482 0.04626 0.0
H5037 H 0.16312 0.45261 0.02152 0.0
H5038 H 0.18915 0.49129 0.99299 0.0
H5039 H 0.16887 0.51244 0.98863 0.0
H5040 H 0.87192 0.01166 0.26434 0.0
H5041 H 0.85597 0.97831 0.26348 0.0
H5042 H 0.90532 0.96312 0.27825 0.0
H5043 H 0.92125 0.99624 0.27894 0.0
H5044 H 0.85901 0.94231 0.24177 0.0
H5045 H 0.87433 0.94179 0.31729 0.0
H5046 H 0.87736 0.96375 0.30802 0.0
H5047 H 0.8935 0.94895 0.30504 0.0
C5048 C 0.87944 1.00127 0.26743 0.0
C5049 C 0.89807 0.00707 0.27178 0.0
C5050 C 0.87023 0.982 0.26691 0.0
C5051 C 0.87915 0.96772 0.27106 0.0
C5052 C 0.89776 0.97352 0.2753 0.0
H5053 H 0.84847 0.84532 0.2836 0.0
H5054 H 0.86332 0.87846 0.28312 0.0
C5055 C 0.90699 0.99268 0.27559 0.0
C5056 C 0.86919 0.94694 0.2708 0.0
H5057 H 0.86082 0.91194 0.29808 0.0
C5058 C 0.85938 0.93579 0.25417 0.0
C5059 C 0.86949 0.93783 0.28675 0.0
C5060 C 0.87909 0.94868 0.30536 0.0
C5061 C 0.85052 0.91619 0.25291 0.0
C5062 C 0.85065 0.90707 0.26896 0.0
C5063 C 0.86042 0.91835 0.28561 0.0
C5064 C 0.84114 0.88605 0.26881 0.0
C5065 C 0.84177 0.90529 0.23395 0.0
C5066 C 0.82336 0.87834 0.26108 0.0
C5067 C 0.81481 0.85897 0.26108 0.0
C5068 C 0.8234 0.8464 0.26924 0.0
C5069 C 0.84111 0.85417 0.27714 0.0
C5070 C 0.84973 0.87344 0.27694 0.0
H5071 H 0.84784 0.91171 0.22228 0.0
H5072 H 0.84279 0.89001 0.23181 0.0
H5073 H 0.82752 0.90597 0.233 0.0
H5074 H 0.81582 0.88736 0.25517 0.0
H5075 H 0.80135 0.85389 0.25463 0.0
H5076 H 0.71686 0.0891 0.72304 0.0
H5077 H 0.73228 0.12279 0.72806 0.0
H5078 H 0.76003 0.11632 0.77915 0.0
H5079 H 0.74434 0.08267 0.77442 0.0
H5080 H 0.74323 0.14591 0.78479 0.0
H5081 H 0.78236 0.15095 0.72307 0.0
H5082 H 0.7594 0.13975 0.71651 0.0
H5083 H 0.7731 0.12827 0.72972 0.0
C5084 C 0.72654 0.09473 0.73512 0.0
C5085 C 0.72936 0.08328 0.74838 0.0
C5086 C 0.73543 0.11397 0.73791 0.0
C5087 C 0.74747 0.12202 0.75387 0.0
C5088 C 0.75086 0.11037 0.7667 0.0
H5089 H 0.80364 0.243 0.78359 0.0
H5090 H 0.79745 0.20778 0.77695 0.0
C5091 C 0.7419 0.09115 0.76397 0.0
C5092 C 0.75488 0.143 0.75827 0.0
H5093 H 0.77736 0.18063 0.74024 0.0
C5094 C 0.75088 0.15346 0.77513 0.0
C5095 C 0.76495 0.15285 0.74573 0.0
C5096 C 0.77036 0.14235 0.72783 0.0
C5097 C 0.75603 0.17353 0.77941 0.0
C5098 C 0.76529 0.18339 0.76644 0.0
C5099 C 0.77 0.17298 0.74998 0.0
C5100 C 0.76935 0.20457 0.76943 0.0
C5101 C 0.75133 0.18416 0.79763 0.0
C5102 C 0.75561 0.2143 0.76725 0.0
C5103 C 0.75916 0.23433 0.77079 0.0
C5104 C 0.77653 0.24493 0.77631 0.0
C5105 C 0.79025 0.23518 0.77872 0.0
C5106 C 0.78672 0.2151 0.77506 0.0
H5107 H 0.74707 0.17439 0.80763 0.0
H5108 H 0.76285 0.19553 0.80452 0.0
H5109 H 0.74027 0.19122 0.7946 0.0
H5110 H 0.74211 0.20635 0.76296 0.0
H5111 H 0.74833 0.24158 0.76917 0.0
loop_
_geom_bond_atom_site_label_1
_geom_bond_atom_site_label_2
_geom_bond_distance
_geom_bond_site_symmetry_2
_ccdc_geom_bond_type
In0 O1 2.294 . S
In0 O2 2.326 . S
In0 O6 2.266 . S
In0 O7 2.326 . S
In0 O8 2.266 . S
In0 O9 2.326 . S
In0 O11 2.294 . S
In0 O12 2.326 . S
O1 In0 2.294 . S
O1 C10 1.240 . S
O2 In0 2.326 . S
O2 C10 1.252 . S
C3 O6 1.252 . S
C3 O7 1.260 . S
C4 O11 1.240 . S
C4 O12 1.252 . S
C5 O8 1.252 . S
C5 O9 1.260 . S
O6 In0 2.266 . S
O6 C3 1.252 . S
O7 In0 2.326 . S
O7 C3 1.260 . S
O8 In0 2.266 . S
O8 C5 1.252 . S
O9 In0 2.326 . S
O9 C5 1.260 . S
C10 O1 1.240 . S
C10 O2 1.252 . S
O11 In0 2.294 . S
O11 C4 1.240 . S
O12 In0 2.326 . S
O12 C4 1.252 . S
In13 O14 2.295 . S
In13 O15 2.326 . S
In13 O19 2.266 1_455 S
In13 O20 2.326 1_455 S
In13 O21 2.260 1_455 S
In13 O22 2.316 1_455 S
In13 O24 2.300 . S
In13 O25 2.336 . S
O14 In13 2.295 . S
O14 C23 1.240 . S
O15 In13 2.326 . S
O15 C23 1.252 . S
C16 O19 1.252 . S
C16 O20 1.260 . S
C17 O24 1.240 . S
C17 O25 1.252 . S
C18 O21 1.252 . S
C18 O22 1.260 . S
O19 In13 2.266 1_655 S
O19 C16 1.252 . S
O20 In13 2.326 1_655 S
O20 C16 1.260 . S
O21 In13 2.260 1_655 S
O21 C18 1.252 . S
O22 In13 2.316 1_655 S
O22 C18 1.260 . S
C23 O14 1.240 . S
C23 O15 1.252 . S
O24 In13 2.300 . S
O24 C17 1.240 . S
O25 In13 2.336 . S
O25 C17 1.252 . S
In26 O27 2.294 . S
In26 O28 2.326 . S
In26 O32 2.266 . S
In26 O33 2.326 . S
In26 O34 2.266 . S
In26 O35 2.326 . S
In26 O37 2.294 . S
In26 O38 2.326 . S
O27 In26 2.294 . S
O27 C36 1.240 . S
O28 In26 2.326 . S
O28 C36 1.252 . S
C29 O32 1.252 . S
C29 O33 1.260 . S
C30 O37 1.240 . S
C30 O38 1.252 . S
C31 O34 1.252 . S
C31 O35 1.260 . S
O32 In26 2.266 . S
O32 C29 1.252 . S
O33 In26 2.326 . S
O33 C29 1.260 . S
O34 In26 2.266 . S
O34 C31 1.252 . S
O35 In26 2.326 . S
O35 C31 1.260 . S
C36 O27 1.240 . S
C36 O28 1.252 . S
O37 In26 2.294 . S
O37 C30 1.240 . S
O38 In26 2.326 . S
O38 C30 1.252 . S
In39 O40 2.294 . S
In39 O41 2.326 . S
In39 O45 2.266 . S
In39 O46 2.326 . S
In39 O47 2.266 . S
In39 O48 2.326 . S
In39 O50 2.294 . S
In39 O51 2.326 . S
O40 In39 2.294 . S
O40 C49 1.240 . S
O41 In39 2.326 . S
O41 C49 1.252 . S
C42 O45 1.252 . S
C42 O46 1.260 . S
C43 O50 1.240 . S
C43 O51 1.252 . S
C44 O47 1.252 . S
C44 O48 1.260 . S
O45 In39 2.266 . S
O45 C42 1.252 . S
O46 In39 2.326 . S
O46 C42 1.260 . S
O47 In39 2.266 . S
O47 C44 1.252 . S
O48 In39 2.326 . S
O48 C44 1.260 . S
C49 O40 1.240 . S
C49 O41 1.252 . S
O50 In39 2.294 . S
O50 C43 1.240 . S
O51 In39 2.326 . S
O51 C43 1.252 . S
In52 O53 2.294 . S
In52 O54 2.326 . S
In52 O58 2.266 . S
In52 O59 2.326 . S
In52 O60 2.266 . S
In52 O61 2.326 . S
In52 O63 2.294 . S
In52 O64 2.326 . S
O53 In52 2.294 . S
O53 C62 1.240 . S
O54 In52 2.326 . S
O54 C62 1.252 . S
C55 O58 1.252 . S
C55 O59 1.260 . S
C56 O63 1.240 . S
C56 O64 1.252 . S
C57 O60 1.252 . S
C57 O61 1.260 . S
O58 In52 2.266 . S
O58 C55 1.252 . S
O59 In52 2.326 . S
O59 C55 1.260 . S
O60 In52 2.266 . S
O60 C57 1.252 . S
O61 In52 2.326 . S
O61 C57 1.260 . S
C62 O53 1.240 . S
C62 O54 1.252 . S
O63 In52 2.294 . S
O63 C56 1.240 . S
O64 In52 2.326 . S
O64 C56 1.252 . S
In65 O66 2.294 . S
In65 O67 2.326 . S
In65 O71 2.266 . S
In65 O72 2.326 . S
In65 O73 2.266 . S
In65 O74 2.326 . S
In65 O76 2.294 . S
In65 O77 2.326 . S
O66 In65 2.294 . S
O66 C75 1.240 . S
O67 In65 2.326 . S
O67 C75 1.252 . S
C68 O71 1.252 . S
C68 O72 1.260 . S
C69 O76 1.240 . S
C69 O77 1.252 . S
C70 O73 1.252 . S
C70 O74 1.260 . S
O71 In65 2.266 . S
O71 C68 1.252 . S
O72 In65 2.326 . S
O72 C68 1.260 . S
O73 In65 2.266 . S
O73 C70 1.252 . S
O74 In65 2.326 . S
O74 C70 1.260 . S
C75 O66 1.240 . S
C75 O67 1.252 . S
O76 In65 2.294 . S
O76 C69 1.240 . S
O77 In65 2.326 . S
O77 C69 1.252 . S
In78 O79 2.294 . S
In78 O80 2.326 . S
In78 O84 2.266 . S
In78 O85 2.326 . S
In78 O86 2.266 . S
In78 O87 2.326 . S
In78 O89 2.294 . S
In78 O90 2.326 . S
O79 In78 2.294 . S
O79 C88 1.240 . S
O80 In78 2.326 . S
O80 C88 1.252 . S
C81 O84 1.252 . S
C81 O85 1.260 . S
C82 O89 1.240 . S
C82 O90 1.252 . S
C83 O86 1.252 . S
C83 O87 1.260 . S
O84 In78 2.266 . S
O84 C81 1.252 . S
O85 In78 2.326 . S
O85 C81 1.260 . S
O86 In78 2.266 . S
O86 C83 1.252 . S
O87 In78 2.326 . S
O87 C83 1.260 . S
C88 O79 1.240 . S
C88 O80 1.252 . S
O89 In78 2.294 . S
O89 C82 1.240 . S
O90 In78 2.326 . S
O90 C82 1.252 . S
In91 O92 2.294 . S
In91 O93 2.326 . S
In91 O97 2.266 . S
In91 O98 2.326 . S
In91 O99 2.266 1_455 S
In91 O100 2.326 1_455 S
In91 O102 2.294 . S
In91 O103 2.326 . S
O92 In91 2.294 . S
O92 C101 1.240 . S
O93 In91 2.326 . S
O93 C101 1.252 . S
C94 O97 1.252 . S
C94 O98 1.260 . S
C95 O102 1.240 . S
C95 O103 1.252 . S
C96 O99 1.252 . S
C96 O100 1.260 . S
O97 In91 2.266 . S
O97 C94 1.252 . S
O98 In91 2.326 . S
O98 C94 1.260 . S
O99 In91 2.266 1_655 S
O99 C96 1.252 . S
O100 In91 2.326 1_655 S
O100 C96 1.260 . S
C101 O92 1.240 . S
C101 O93 1.252 . S
O102 In91 2.294 . S
O102 C95 1.240 . S
O103 In91 2.326 . S
O103 C95 1.252 . S
In104 O105 2.294 . S
In104 O106 2.326 . S
In104 O110 2.266 . S
In104 O111 2.326 . S
In104 O112 2.266 . S
In104 O113 2.326 1_545 S
In104 O115 2.294 . S
In104 O116 2.326 . S
O105 In104 2.294 . S
O105 C114 1.240 . S
O106 In104 2.326 . S
O106 C114 1.252 . S
C107 O110 1.252 . S
C107 O111 1.260 . S
C108 O115 1.240 . S
C108 O116 1.252 . S
C109 O112 1.252 1_565 S
C109 O113 1.260 . S
O110 In104 2.266 . S
O110 C107 1.252 . S
O111 In104 2.326 . S
O111 C107 1.260 . S
O112 In104 2.266 . S
O112 C109 1.252 1_545 S
O113 In104 2.326 1_565 S
O113 C109 1.260 . S
C114 O105 1.240 . S
C114 O106 1.252 . S
O115 In104 2.294 . S
O115 C108 1.240 . S
O116 In104 2.326 . S
O116 C108 1.252 . S
In117 O118 2.294 . S
In117 O119 2.326 . S
In117 O123 2.266 . S
In117 O124 2.326 . S
In117 O125 2.266 . S
In117 O126 2.326 . S
In117 O128 2.294 . S
In117 O129 2.326 . S
O118 In117 2.294 . S
O118 C127 1.240 . S
O119 In117 2.326 . S
O119 C127 1.252 . S
C120 O123 1.252 . S
C120 O124 1.260 . S
C121 O128 1.240 . S
C121 O129 1.252 . S
C122 O125 1.252 . S
C122 O126 1.260 . S
O123 In117 2.266 . S
O123 C120 1.252 . S
O124 In117 2.326 . S
O124 C120 1.260 . S
O125 In117 2.266 . S
O125 C122 1.252 . S
O126 In117 2.326 . S
O126 C122 1.260 . S
C127 O118 1.240 . S
C127 O119 1.252 . S
O128 In117 2.294 . S
O128 C121 1.240 . S
O129 In117 2.326 . S
O129 C121 1.252 . S
In130 O131 2.294 1_545 S
In130 O132 2.326 1_545 S
In130 O136 2.266 . S
In130 O137 2.326 . S
In130 O138 2.264 . S
In130 O139 2.322 . S
In130 O141 2.296 1_545 S
In130 O142 2.330 1_545 S
O131 In130 2.294 1_565 S
O131 C140 1.240 . S
O132 In130 2.326 1_565 S
O132 C140 1.252 . S
C133 O136 1.252 . S
C133 O137 1.260 . S
C134 O141 1.240 . S
C134 O142 1.252 . S
C135 O138 1.252 . S
C135 O139 1.260 . S
O136 In130 2.266 . S
O136 C133 1.252 . S
O137 In130 2.326 . S
O137 C133 1.260 . S
O138 In130 2.264 . S
O138 C135 1.252 . S
O139 In130 2.322 . S
O139 C135 1.260 . S
C140 O131 1.240 . S
C140 O132 1.252 . S
O141 In130 2.296 1_565 S
O141 C134 1.240 . S
O142 In130 2.330 1_565 S
O142 C134 1.252 . S
In143 O144 2.294 . S
In143 O145 2.326 . S
In143 O149 2.266 1_554 S
In143 O150 2.326 1_554 S
In143 O151 2.266 . S
In143 O152 2.326 . S
In143 O154 2.294 . S
In143 O155 2.326 . S
O144 In143 2.294 . S
O144 C153 1.240 . S
O145 In143 2.326 . S
O145 C153 1.252 . S
C146 O149 1.252 . S
C146 O150 1.260 . S
C147 O154 1.240 . S
C147 O155 1.252 . S
C148 O151 1.252 . S
C148 O152 1.260 . S
O149 In143 2.266 1_556 S
O149 C146 1.252 . S
O150 In143 2.326 1_556 S
O150 C146 1.260 . S
O151 In143 2.266 . S
O151 C148 1.252 . S
O152 In143 2.326 . S
O152 C148 1.260 . S
C153 O144 1.240 . S
C153 O145 1.252 . S
O154 In143 2.294 . S
O154 C147 1.240 . S
O155 In143 2.326 . S
O155 C147 1.252 . S
In156 O157 2.294 . S
In156 O158 2.326 . S
In156 O162 2.266 . S
In156 O163 2.326 . S
In156 O164 2.266 . S
In156 O165 2.326 . S
In156 O167 2.294 . S
In156 O168 2.326 . S
O157 In156 2.294 . S
O157 C166 1.240 . S
O158 In156 2.326 . S
O158 C166 1.252 . S
C159 O162 1.252 . S
C159 O163 1.260 . S
C160 O167 1.240 . S
C160 O168 1.252 . S
C161 O164 1.252 . S
C161 O165 1.260 . S
O162 In156 2.266 . S
O162 C159 1.252 . S
O163 In156 2.326 . S
O163 C159 1.260 . S
O164 In156 2.266 . S
O164 C161 1.252 . S
O165 In156 2.326 . S
O165 C161 1.260 . S
C166 O157 1.240 . S
C166 O158 1.252 . S
O167 In156 2.294 . S
O167 C160 1.240 . S
O168 In156 2.326 . S
O168 C160 1.252 . S
In169 O170 2.294 . S
In169 O171 2.326 . S
In169 O175 2.266 . S
In169 O176 2.326 . S
In169 O177 2.266 . S
In169 O178 2.326 1_554 S
In169 O180 2.294 . S
In169 O181 2.326 . S
O170 In169 2.294 . S
O170 C179 1.240 . S
O171 In169 2.326 . S
O171 C179 1.252 . S
C172 O175 1.252 . S
C172 O176 1.260 . S
C173 O180 1.240 . S
C173 O181 1.252 . S
C174 O177 1.252 1_556 S
C174 O178 1.260 . S
O175 In169 2.266 . S
O175 C172 1.252 . S
O176 In169 2.326 . S
O176 C172 1.260 . S
O177 In169 2.266 . S
O177 C174 1.252 1_554 S
O178 In169 2.326 1_556 S
O178 C174 1.260 . S
C179 O170 1.240 . S
C179 O171 1.252 . S
O180 In169 2.294 . S
O180 C173 1.240 . S
O181 In169 2.326 . S
O181 C173 1.252 . S
In182 O183 2.294 . S
In182 O184 2.326 . S
In182 O188 2.266 . S
In182 O189 2.326 . S
In182 O190 2.266 . S
In182 O191 2.326 . S
In182 O193 2.294 . S
In182 O194 2.326 . S
O183 In182 2.294 . S
O183 C192 1.240 . S
O184 In182 2.326 . S
O184 C192 1.252 . S
C185 O188 1.252 . S
C185 O189 1.260 . S
C186 O193 1.240 . S
C186 O194 1.252 . S
C187 O190 1.252 . S
C187 O191 1.260 . S
O188 In182 2.266 . S
O188 C185 1.252 . S
O189 In182 2.326 . S
O189 C185 1.260 . S
O190 In182 2.266 . S
O190 C187 1.252 . S
O191 In182 2.326 . S
O191 C187 1.260 . S
C192 O183 1.240 . S
C192 O184 1.252 . S
O193 In182 2.294 . S
O193 C186 1.240 . S
O194 In182 2.326 . S
O194 C186 1.252 . S
In195 O196 2.294 . S
In195 O197 2.326 . S
In195 O201 2.266 . S
In195 O202 2.326 . S
In195 O203 2.266 . S
In195 O204 2.326 . S
In195 O206 2.294 . S
In195 O207 2.326 . S
O196 In195 2.294 . S
O196 C205 1.240 . S
O197 In195 2.326 . S
O197 C205 1.252 . S
C198 O201 1.252 . S
C198 O202 1.260 . S
C199 O206 1.240 . S
C199 O207 1.252 . S
C200 O203 1.252 . S
C200 O204 1.260 . S
O201 In195 2.266 . S
O201 C198 1.252 . S
O202 In195 2.326 . S
O202 C198 1.260 . S
O203 In195 2.266 . S
O203 C200 1.252 . S
O204 In195 2.326 . S
O204 C200 1.260 . S
C205 O196 1.240 . S
C205 O197 1.252 . S
O206 In195 2.294 . S
O206 C199 1.240 . S
O207 In195 2.326 . S
O207 C199 1.252 . S
In208 O209 2.294 . S
In208 O210 2.326 . S
In208 O214 2.266 . S
In208 O215 2.326 . S
In208 O216 2.266 . S
In208 O217 2.326 . S
In208 O219 2.294 . S
In208 O220 2.326 . S
O209 In208 2.294 . S
O209 C218 1.240 . S
O210 In208 2.326 . S
O210 C218 1.252 . S
C211 O214 1.252 . S
C211 O215 1.260 . S
C212 O219 1.240 . S
C212 O220 1.252 . S
C213 O216 1.252 . S
C213 O217 1.260 . S
O214 In208 2.266 . S
O214 C211 1.252 . S
O215 In208 2.326 . S
O215 C211 1.260 . S
O216 In208 2.266 . S
O216 C213 1.252 . S
O217 In208 2.326 . S
O217 C213 1.260 . S
C218 O209 1.240 . S
C218 O210 1.252 . S
O219 In208 2.294 . S
O219 C212 1.240 . S
O220 In208 2.326 . S
O220 C212 1.252 . S
In221 O222 2.294 . S
In221 O223 2.326 . S
In221 O227 2.266 . S
In221 O228 2.326 . S
In221 O229 2.266 . S
In221 O230 2.326 . S
In221 O232 2.294 . S
In221 O233 2.326 . S
O222 In221 2.294 . S
O222 C231 1.240 . S
O223 In221 2.326 . S
O223 C231 1.252 . S
C224 O227 1.252 . S
C224 O228 1.260 . S
C225 O232 1.240 . S
C225 O233 1.252 . S
C226 O229 1.252 . S
C226 O230 1.260 . S
O227 In221 2.266 . S
O227 C224 1.252 . S
O228 In221 2.326 . S
O228 C224 1.260 . S
O229 In221 2.266 . S
O229 C226 1.252 . S
O230 In221 2.326 . S
O230 C226 1.260 . S
C231 O222 1.240 . S
C231 O223 1.252 . S
O232 In221 2.294 . S
O232 C225 1.240 . S
O233 In221 2.326 . S
O233 C225 1.252 . S
In234 O235 2.294 . S
In234 O236 2.326 . S
In234 O240 2.266 . S
In234 O241 2.326 . S
In234 O242 2.266 . S
In234 O243 2.326 . S
In234 O245 2.294 . S
In234 O246 2.326 . S
O235 In234 2.294 . S
O235 C244 1.240 . S
O236 In234 2.326 . S
O236 C244 1.252 . S
C237 O240 1.252 . S
C237 O241 1.260 . S
C238 O245 1.240 . S
C238 O246 1.252 . S
C239 O242 1.252 . S
C239 O243 1.260 . S
O240 In234 2.266 . S
O240 C237 1.252 . S
O241 In234 2.326 . S
O241 C237 1.260 . S
O242 In234 2.266 . S
O242 C239 1.252 . S
O243 In234 2.326 . S
O243 C239 1.260 . S
C244 O235 1.240 . S
C244 O236 1.252 . S
O245 In234 2.294 . S
O245 C238 1.240 . S
O246 In234 2.326 . S
O246 C238 1.252 . S
In247 O248 2.294 . S
In247 O249 2.326 . S
In247 O253 2.266 . S
In247 O254 2.326 . S
In247 O255 2.266 . S
In247 O256 2.326 . S
In247 O258 2.294 . S
In247 O259 2.326 . S
O248 In247 2.294 . S
O248 C257 1.240 . S
O249 In247 2.326 . S
O249 C257 1.252 . S
C250 O253 1.252 . S
C250 O254 1.260 . S
C251 O258 1.240 . S
C251 O259 1.252 . S
C252 O255 1.252 . S
C252 O256 1.260 . S
O253 In247 2.266 . S
O253 C250 1.252 . S
O254 In247 2.326 . S
O254 C250 1.260 . S
O255 In247 2.266 . S
O255 C252 1.252 . S
O256 In247 2.326 . S
O256 C252 1.260 . S
C257 O248 1.240 . S
C257 O249 1.252 . S
O258 In247 2.294 . S
O258 C251 1.240 . S
O259 In247 2.326 . S
O259 C251 1.252 . S
In260 O261 2.294 . S
In260 O262 2.326 . S
In260 O266 2.266 1_554 S
In260 O267 2.325 1_554 S
In260 O268 2.264 1_554 S
In260 O269 2.322 1_554 S
In260 O271 2.296 . S
In260 O272 2.330 . S
O261 In260 2.294 . S
O261 C270 1.240 . S
O262 In260 2.326 . S
O262 C270 1.252 . S
C263 O266 1.252 . S
C263 O267 1.260 . S
C264 O271 1.240 . S
C264 O272 1.252 . S
C265 O268 1.252 . S
C265 O269 1.260 . S
O266 In260 2.266 1_556 S
O266 C263 1.252 . S
O267 In260 2.325 1_556 S
O267 C263 1.260 . S
O268 In260 2.264 1_556 S
O268 C265 1.252 . S
O269 In260 2.322 1_556 S
O269 C265 1.260 . S
C270 O261 1.240 . S
C270 O262 1.252 . S
O271 In260 2.296 . S
O271 C264 1.240 . S
O272 In260 2.330 . S
O272 C264 1.252 . S
In273 O274 2.294 . S
In273 O275 2.326 . S
In273 O279 2.266 . S
In273 O280 2.326 . S
In273 O281 2.266 . S
In273 O282 2.326 . S
In273 O284 2.294 . S
In273 O285 2.326 . S
O274 In273 2.294 . S
O274 C283 1.240 . S
O275 In273 2.326 . S
O275 C283 1.252 . S
C276 O279 1.252 . S
C276 O280 1.260 . S
C277 O284 1.240 . S
C277 O285 1.252 . S
C278 O281 1.252 . S
C278 O282 1.260 . S
O279 In273 2.266 . S
O279 C276 1.252 . S
O280 In273 2.326 . S
O280 C276 1.260 . S
O281 In273 2.266 . S
O281 C278 1.252 . S
O282 In273 2.326 . S
O282 C278 1.260 . S
C283 O274 1.240 . S
C283 O275 1.252 . S
O284 In273 2.294 . S
O284 C277 1.240 . S
O285 In273 2.326 . S
O285 C277 1.252 . S
In286 O287 2.294 . S
In286 O288 2.326 . S
In286 O292 2.266 . S
In286 O293 2.326 . S
In286 O294 2.266 . S
In286 O295 2.326 . S
In286 O297 2.294 . S
In286 O298 2.326 . S
O287 In286 2.294 . S
O287 C296 1.240 . S
O288 In286 2.326 . S
O288 C296 1.252 . S
C289 O292 1.252 . S
C289 O293 1.260 . S
C290 O297 1.240 . S
C290 O298 1.252 . S
C291 O294 1.252 . S
C291 O295 1.260 . S
O292 In286 2.266 . S
O292 C289 1.252 . S
O293 In286 2.326 . S
O293 C289 1.260 . S
O294 In286 2.266 . S
O294 C291 1.252 . S
O295 In286 2.326 . S
O295 C291 1.260 . S
C296 O287 1.240 . S
C296 O288 1.252 . S
O297 In286 2.294 . S
O297 C290 1.240 . S
O298 In286 2.326 . S
O298 C290 1.252 . S
In299 O300 2.294 . S
In299 O301 2.326 . S
In299 O305 2.266 . S
In299 O306 2.326 . S
In299 O307 2.266 . S
In299 O308 2.326 . S
In299 O310 2.294 . S
In299 O311 2.326 . S
O300 In299 2.294 . S
O300 C309 1.240 . S
O301 In299 2.326 . S
O301 C309 1.252 . S
C302 O305 1.252 . S
C302 O306 1.260 . S
C303 O310 1.240 . S
C303 O311 1.252 . S
C304 O307 1.252 . S
C304 O308 1.260 . S
O305 In299 2.266 . S
O305 C302 1.252 . S
O306 In299 2.326 . S
O306 C302 1.260 . S
O307 In299 2.266 . S
O307 C304 1.252 . S
O308 In299 2.326 . S
O308 C304 1.260 . S
C309 O300 1.240 . S
C309 O301 1.252 . S
O310 In299 2.294 . S
O310 C303 1.240 . S
O311 In299 2.326 . S
O311 C303 1.252 . S
Tb312 N343 2.660 . S
Tb312 N350 2.600 1_554 S
Tb312 O356 2.546 1_554 S
Tb312 O357 2.610 . S
Tb312 O359 2.320 . S
Tb312 O360 2.552 . S
Tb312 O361 2.413 . S
Tb312 O363 2.362 . S
Tb312 O364 2.421 1_554 S
Tb312 C376 2.833 1_455 S
C313 C316 1.432 . S
C313 C317 1.414 . S
C313 N320 1.359 . S
C314 C316 1.417 . S
C314 C318 1.432 . S
C314 C326 1.410 . S
C315 C317 1.444 . S
C315 C318 1.317 . S
C315 H338 0.929 . S
C316 C313 1.432 . S
C316 C314 1.417 . S
C316 N324 1.360 . S
C317 C313 1.414 . S
C317 C315 1.444 . S
C317 C322 1.385 . S
C318 C314 1.432 . S
C318 C315 1.317 . S
C318 H330 0.930 . S
C319 C321 1.392 . S
C319 C322 1.370 . S
C319 H331 0.931 . S
N320 C313 1.359 . S
N320 C321 1.327 . S
N320 Tb323 2.600 . S
C321 C319 1.392 . S
C321 N320 1.327 . S
C321 H328 0.930 . S
C322 C317 1.385 . S
C322 C319 1.370 . S
C322 H341 0.930 . S
Tb323 N320 2.600 . S
Tb323 N324 2.660 . S
Tb323 O357 2.362 . S
Tb323 O358 2.421 . S
Tb323 O362 2.546 . S
Tb323 O363 2.610 . S
Tb323 O365 2.320 . S
Tb323 O366 2.552 . S
Tb323 O367 2.413 . S
Tb323 C387 2.833 . S
N324 C316 1.360 . S
N324 Tb323 2.660 . S
N324 C325 1.305 . S
C325 N324 1.305 . S
C325 C327 1.407 . S
C325 H332 0.930 . S
C326 C314 1.410 . S
C326 C327 1.345 . S
C326 H334 0.930 . S
C327 C325 1.407 . S
C327 C326 1.345 . S
C327 H329 0.930 1_554 S
H328 C321 0.930 . S
H329 C327 0.930 1_556 S
H330 C318 0.930 . S
H331 C319 0.931 . S
H332 C325 0.930 . S
H333 C347 0.930 . S
H334 C326 0.930 . S
H335 C353 0.930 . S
H336 C344 0.930 . S
H337 C351 0.931 . S
H338 C315 0.929 . S
H339 C345 0.921 1_655 S
H340 C378 0.930 . S
H341 C322 0.930 . S
H342 C377 0.929 . S
N343 Tb312 2.660 . S
N343 C344 1.305 . S
N343 C348 1.360 1_545 S
C344 H336 0.930 . S
C344 N343 1.305 . S
C344 C347 1.407 1_545 S
C345 H339 0.921 1_455 S
C345 C346 1.410 . S
C345 C347 1.345 . S
C346 C345 1.410 . S
C346 C348 1.417 . S
C346 C378 1.432 1_455 S
C347 H333 0.930 . S
C347 C344 1.407 1_565 S
C347 C345 1.345 . S
C348 N343 1.360 1_565 S
C348 C346 1.417 . S
C348 C352 1.432 . S
H349 C354 0.930 1_655 S
N350 Tb312 2.600 1_556 S
N350 C352 1.359 1_546 S
N350 C353 1.327 . S
C351 H337 0.931 . S
C351 C353 1.392 1_565 S
C351 C354 1.370 . S
C352 C348 1.432 . S
C352 N350 1.359 1_564 S
C352 C355 1.414 1_554 S
C353 H335 0.930 . S
C353 N350 1.327 . S
C353 C351 1.392 1_545 S
C354 H349 0.930 1_455 S
C354 C351 1.370 . S
C354 C355 1.385 . S
C355 C352 1.414 1_556 S
C355 C354 1.385 . S
C355 C377 1.444 1_455 S
O356 Tb312 2.546 1_556 S
O356 C376 1.251 1_456 S
O357 Tb312 2.610 . S
O357 Tb323 2.362 . S
O357 C368 1.283 . S
O358 Tb323 2.421 . S
O358 C375 1.262 . S
O359 Tb312 2.320 . S
O359 C375 1.260 . S
O360 Tb312 2.552 . S
O360 C368 1.243 . S
O361 Tb312 2.413 . S
O361 C376 1.256 1_455 S
O362 Tb323 2.546 . S
O362 C387 1.251 . S
O363 Tb312 2.362 . S
O363 Tb323 2.610 . S
O363 C379 1.283 . S
O364 Tb312 2.421 1_556 S
O364 C386 1.262 . S
O365 Tb323 2.320 . S
O365 C386 1.260 1_554 S
O366 Tb323 2.552 . S
O366 C379 1.243 . S
O367 Tb323 2.413 . S
O367 C387 1.256 . S
C368 O357 1.283 . S
C368 O360 1.243 . S
C369 C371 1.382 . S
C369 C373 1.393 1_554 S
C369 C376 1.500 . S
C370 C371 1.400 . S
C370 C372 1.334 1_554 S
C371 C369 1.382 . S
C371 C370 1.400 . S
C371 H388 0.930 . S
C372 C370 1.334 1_556 S
C372 C374 1.432 . S
C372 H389 0.944 . S
C373 C369 1.393 1_556 S
C373 C374 1.401 . S
C373 H390 0.930 . S
C374 C372 1.432 . S
C374 C373 1.401 . S
C374 H391 0.930 . S
C375 O358 1.262 . S
C375 O359 1.260 . S
C376 Tb312 2.833 1_655 S
C376 O356 1.251 1_654 S
C376 O361 1.256 1_655 S
C376 C369 1.500 . S
C377 H342 0.929 . S
C377 C355 1.444 1_655 S
C377 C378 1.317 1_556 S
C378 H340 0.930 . S
C378 C346 1.432 1_655 S
C378 C377 1.317 1_554 S
C379 O363 1.283 . S
C379 O366 1.243 . S
C380 C381 1.382 . S
C380 C384 1.393 . S
C380 C387 1.500 . S
C381 C380 1.382 . S
C381 C382 1.400 . S
C381 H392 0.930 . S
C382 C381 1.400 . S
C382 C383 1.384 . S
C383 C382 1.384 . S
C383 C385 1.392 . S
C383 H393 0.931 . S
C384 C380 1.393 . S
C384 C385 1.401 . S
C384 H394 0.930 . S
C385 C383 1.392 . S
C385 C384 1.401 . S
C385 H395 0.930 . S
C386 O364 1.262 . S
C386 O365 1.260 1_556 S
C387 Tb323 2.833 . S
C387 O362 1.251 . S
C387 O367 1.256 . S
C387 C380 1.500 . S
H388 C371 0.930 . S
H389 C372 0.944 . S
H390 C373 0.930 . S
H391 C374 0.930 . S
H392 C381 0.930 . S
H393 C383 0.931 . S
H394 C384 0.930 . S
H395 C385 0.930 . S
Tb396 N427 2.660 . S
Tb396 N434 2.600 . S
Tb396 O440 2.546 . S
Tb396 O441 2.610 . S
Tb396 O443 2.320 . S
Tb396 O444 2.552 . S
Tb396 O445 2.413 . S
Tb396 O447 2.362 . S
Tb396 O448 2.421 . S
Tb396 C460 2.833 . S
C397 C400 1.432 . S
C397 C401 1.414 . S
C397 N404 1.359 . S
C398 C400 1.417 . S
C398 C402 1.432 . S
C398 C410 1.410 . S
C399 C401 1.444 . S
C399 C402 1.317 . S
C399 H422 0.929 . S
C400 C397 1.432 . S
C400 C398 1.417 . S
C400 N408 1.360 . S
C401 C397 1.414 . S
C401 C399 1.444 . S
C401 C406 1.385 . S
C402 C398 1.432 . S
C402 C399 1.317 . S
C402 H414 0.930 . S
C403 C405 1.392 . S
C403 C406 1.370 . S
C403 H415 0.931 . S
N404 C397 1.359 . S
N404 C405 1.327 . S
N404 Tb407 2.600 . S
C405 C403 1.392 . S
C405 N404 1.327 . S
C405 H412 0.930 . S
C406 C401 1.385 . S
C406 C403 1.370 . S
C406 H425 0.930 . S
Tb407 N404 2.600 . S
Tb407 N408 2.660 . S
Tb407 O441 2.362 . S
Tb407 O442 2.421 . S
Tb407 O446 2.546 . S
Tb407 O447 2.610 . S
Tb407 O449 2.320 . S
Tb407 O450 2.552 . S
Tb407 O451 2.413 . S
Tb407 C471 2.833 . S
N408 C400 1.360 . S
N408 Tb407 2.660 . S
N408 C409 1.305 . S
C409 N408 1.305 . S
C409 C411 1.407 . S
C409 H416 0.930 . S
C410 C398 1.410 . S
C410 C411 1.345 . S
C410 H418 0.930 . S
C411 C409 1.407 . S
C411 C410 1.345 . S
C411 H413 0.930 . S
H412 C405 0.930 . S
H413 C411 0.930 . S
H414 C402 0.930 . S
H415 C403 0.931 . S
H416 C409 0.930 . S
H417 C431 0.930 . S
H418 C410 0.930 . S
H419 C437 0.930 . S
H420 C428 0.930 . S
H421 C435 0.931 . S
H422 C399 0.929 . S
H423 C429 0.930 . S
H424 C462 0.930 . S
H425 C406 0.930 . S
H426 C461 0.929 . S
N427 Tb396 2.660 . S
N427 C428 1.305 . S
N427 C432 1.360 . S
C428 H420 0.930 . S
C428 N427 1.305 . S
C428 C431 1.407 . S
C429 H423 0.930 . S
C429 C430 1.410 . S
C429 C431 1.345 . S
C430 C429 1.410 . S
C430 C432 1.417 . S
C430 C462 1.432 . S
C431 H417 0.930 . S
C431 C428 1.407 . S
C431 C429 1.345 . S
C432 N427 1.360 . S
C432 C430 1.417 . S
C432 C436 1.432 . S
H433 C438 0.930 . S
N434 Tb396 2.600 . S
N434 C436 1.359 . S
N434 C437 1.327 . S
C435 H421 0.931 . S
C435 C437 1.392 . S
C435 C438 1.370 . S
C436 C432 1.432 . S
C436 N434 1.359 . S
C436 C439 1.414 . S
C437 H419 0.930 . S
C437 N434 1.327 . S
C437 C435 1.392 . S
C438 H433 0.930 . S
C438 C435 1.370 . S
C438 C439 1.385 . S
C439 C436 1.414 . S
C439 C438 1.385 . S
C439 C461 1.444 . S
O440 Tb396 2.546 . S
O440 C460 1.251 . S
O441 Tb396 2.610 . S
O441 Tb407 2.362 . S
O441 C452 1.283 . S
O442 Tb407 2.421 . S
O442 C459 1.262 . S
O443 Tb396 2.320 . S
O443 C459 1.260 . S
O444 Tb396 2.552 . S
O444 C452 1.243 . S
O445 Tb396 2.413 . S
O445 C460 1.256 . S
O446 Tb407 2.546 . S
O446 C471 1.251 . S
O447 Tb396 2.362 . S
O447 Tb407 2.610 . S
O447 C463 1.283 . S
O448 Tb396 2.421 . S
O448 C470 1.262 . S
O449 Tb407 2.320 . S
O449 C470 1.260 . S
O450 Tb407 2.552 . S
O450 C463 1.243 . S
O451 Tb407 2.413 . S
O451 C471 1.256 . S
C452 O441 1.283 . S
C452 O444 1.243 . S
C453 C455 1.382 . S
C453 C457 1.393 . S
C453 C460 1.500 . S
C454 C455 1.400 . S
C454 C456 1.384 . S
C455 C453 1.382 . S
C455 C454 1.400 . S
C455 H472 0.930 . S
C456 C454 1.384 . S
C456 C458 1.392 . S
C456 H473 0.931 . S
C457 C453 1.393 . S
C457 C458 1.401 . S
C457 H474 0.930 . S
C458 C456 1.392 . S
C458 C457 1.401 . S
C458 H475 0.930 . S
C459 O442 1.262 . S
C459 O443 1.260 . S
C460 Tb396 2.833 . S
C460 O440 1.251 . S
C460 O445 1.256 . S
C460 C453 1.500 . S
C461 H426 0.929 . S
C461 C439 1.444 . S
C461 C462 1.317 . S
C462 H424 0.930 . S
C462 C430 1.432 . S
C462 C461 1.317 . S
C463 O447 1.283 . S
C463 O450 1.243 . S
C464 C465 1.382 . S
C464 C468 1.393 . S
C464 C471 1.500 . S
C465 C464 1.382 . S
C465 C466 1.400 . S
C465 H476 0.930 . S
C466 C465 1.400 . S
C466 C467 1.384 . S
C467 C466 1.384 . S
C467 C469 1.392 . S
C467 H477 0.931 . S
C468 C464 1.393 . S
C468 C469 1.401 . S
C468 H478 0.930 . S
C469 C467 1.392 . S
C469 C468 1.401 . S
C469 H479 0.930 . S
C470 O448 1.262 . S
C470 O449 1.260 . S
C471 Tb407 2.833 . S
C471 O446 1.251 . S
C471 O451 1.256 . S
C471 C464 1.500 . S
H472 C455 0.930 . S
H473 C456 0.931 . S
H474 C457 0.930 . S
H475 C458 0.930 . S
H476 C465 0.930 . S
H477 C467 0.931 . S
H478 C468 0.930 . S
H479 C469 0.930 . S
Tb480 N511 2.660 . S
Tb480 N518 2.600 . S
Tb480 O524 2.546 . S
Tb480 O525 2.610 . S
Tb480 O527 2.320 . S
Tb480 O528 2.552 1_545 S
Tb480 O529 2.413 . S
Tb480 O531 2.362 . S
Tb480 O532 2.421 . S
Tb480 C544 2.833 . S
C481 C484 1.432 . S
C481 C485 1.414 . S
C481 N488 1.343 1_565 S
C482 C484 1.417 . S
C482 C486 1.432 . S
C482 C494 1.410 . S
C483 C485 1.444 . S
C483 C486 1.317 . S
C483 H506 0.929 . S
C484 C481 1.432 . S
C484 C482 1.417 . S
C484 N492 1.360 . S
C485 C481 1.414 . S
C485 C483 1.444 . S
C485 C490 1.385 . S
C486 C482 1.432 . S
C486 C483 1.317 . S
C486 H498 0.930 . S
C487 C489 1.392 1_565 S
C487 C490 1.370 . S
C487 H499 0.927 1_565 S
N488 C481 1.343 1_545 S
N488 C489 1.329 . S
N488 Tb491 2.616 . S
C489 C487 1.392 1_545 S
C489 N488 1.329 . S
C489 H496 0.930 . S
C490 C485 1.385 . S
C490 C487 1.370 . S
C490 H509 0.930 . S
Tb491 N488 2.616 . S
Tb491 N492 2.660 1_545 S
Tb491 O525 2.362 . S
Tb491 O526 2.421 . S
Tb491 O530 2.546 . S
Tb491 O531 2.610 . S
Tb491 O533 2.320 . S
Tb491 O534 2.552 . S
Tb491 O535 2.413 . S
Tb491 C555 2.833 . S
N492 C484 1.360 . S
N492 Tb491 2.660 1_565 S
N492 C493 1.305 . S
C493 N492 1.305 . S
C493 C495 1.407 . S
C493 H500 0.930 . S
C494 C482 1.410 . S
C494 C495 1.345 . S
C494 H502 0.930 . S
C495 C493 1.407 . S
C495 C494 1.345 . S
C495 H497 0.930 . S
H496 C489 0.930 . S
H497 C495 0.930 . S
H498 C486 0.930 . S
H499 C487 0.927 1_545 S
H500 C493 0.930 . S
H501 C515 0.930 . S
H502 C494 0.930 . S
H503 C521 0.930 . S
H504 C512 0.930 . S
H505 C519 0.931 . S
H506 C483 0.929 . S
H507 C513 0.930 . S
H508 C546 0.930 . S
H509 C490 0.930 . S
H510 C545 0.929 . S
N511 Tb480 2.660 . S
N511 C512 1.305 . S
N511 C516 1.360 . S
C512 H504 0.930 . S
C512 N511 1.305 . S
C512 C515 1.407 . S
C513 H507 0.930 . S
C513 C514 1.410 . S
C513 C515 1.345 . S
C514 C513 1.410 . S
C514 C516 1.417 . S
C514 C546 1.432 . S
C515 H501 0.930 . S
C515 C512 1.407 . S
C515 C513 1.345 . S
C516 N511 1.360 . S
C516 C514 1.417 . S
C516 C520 1.432 . S
H517 C522 0.930 . S
N518 Tb480 2.600 . S
N518 C520 1.359 . S
N518 C521 1.327 . S
C519 H505 0.931 . S
C519 C521 1.392 . S
C519 C522 1.370 . S
C520 C516 1.432 . S
C520 N518 1.359 . S
C520 C523 1.414 . S
C521 H503 0.930 . S
C521 N518 1.327 . S
C521 C519 1.392 . S
C522 H517 0.930 . S
C522 C519 1.370 . S
C522 C523 1.385 . S
C523 C520 1.414 . S
C523 C522 1.385 . S
C523 C545 1.444 . S
O524 Tb480 2.546 . S
O524 C544 1.251 . S
O525 Tb480 2.610 . S
O525 Tb491 2.362 . S
O525 C536 1.283 1_545 S
O526 Tb491 2.421 . S
O526 C543 1.262 . S
O527 Tb480 2.320 . S
O527 C543 1.260 . S
O528 Tb480 2.552 1_565 S
O528 C536 1.243 . S
O529 Tb480 2.413 . S
O529 C544 1.256 . S
O530 Tb491 2.546 . S
O530 C555 1.251 . S
O531 Tb480 2.362 . S
O531 Tb491 2.610 . S
O531 C547 1.283 . S
O532 Tb480 2.421 . S
O532 C554 1.262 . S
O533 Tb491 2.320 . S
O533 C554 1.260 . S
O534 Tb491 2.552 . S
O534 C547 1.243 . S
O535 Tb491 2.413 . S
O535 C555 1.256 . S
C536 O525 1.283 1_565 S
C536 O528 1.243 . S
C537 C539 1.382 1_545 S
C537 C541 1.393 . S
C537 C544 1.500 . S
C538 C539 1.400 . S
C538 C540 1.384 . S
C539 C537 1.382 1_565 S
C539 C538 1.400 . S
C539 H556 0.930 . S
C540 C538 1.384 . S
C540 C542 1.392 . S
C540 H557 0.931 . S
C541 C537 1.393 . S
C541 C542 1.401 1_545 S
C541 H558 0.930 . S
C542 C540 1.392 . S
C542 C541 1.401 1_565 S
C542 H559 0.930 . S
C543 O526 1.262 . S
C543 O527 1.260 . S
C544 Tb480 2.833 . S
C544 O524 1.251 . S
C544 O529 1.256 . S
C544 C537 1.500 . S
C545 H510 0.929 . S
C545 C523 1.444 . S
C545 C546 1.317 . S
C546 H508 0.930 . S
C546 C514 1.432 . S
C546 C545 1.317 . S
C547 O531 1.283 . S
C547 O534 1.243 . S
C548 C549 1.382 . S
C548 C552 1.393 . S
C548 C555 1.500 . S
C549 C548 1.382 . S
C549 C550 1.400 . S
C549 H560 0.930 . S
C550 C549 1.400 . S
C550 C551 1.384 . S
C551 C550 1.384 . S
C551 C553 1.392 . S
C551 H561 0.931 . S
C552 C548 1.393 . S
C552 C553 1.401 . S
C552 H562 0.930 . S
C553 C551 1.392 . S
C553 C552 1.401 . S
C553 H563 0.930 . S
C554 O532 1.262 . S
C554 O533 1.260 . S
C555 Tb491 2.833 . S
C555 O530 1.251 . S
C555 O535 1.256 . S
C555 C548 1.500 . S
H556 C539 0.930 . S
H557 C540 0.931 . S
H558 C541 0.930 . S
H559 C542 0.930 . S
H560 C549 0.930 . S
H561 C551 0.931 . S
H562 C552 0.930 . S
H563 C553 0.930 . S
Tb564 N595 2.660 . S
Tb564 N602 2.600 . S
Tb564 O608 2.546 . S
Tb564 O609 2.610 . S
Tb564 O611 2.320 . S
Tb564 O612 2.552 . S
Tb564 O613 2.413 . S
Tb564 O615 2.362 . S
Tb564 O616 2.421 . S
Tb564 C628 2.833 . S
C565 C568 1.432 . S
C565 C569 1.414 . S
C565 N572 1.359 . S
C566 C568 1.417 . S
C566 C570 1.432 . S
C566 C578 1.410 . S
C567 C569 1.444 . S
C567 C570 1.317 . S
C567 H590 0.929 . S
C568 C565 1.432 . S
C568 C566 1.417 . S
C568 N576 1.360 . S
C569 C565 1.414 . S
C569 C567 1.444 . S
C569 C574 1.385 . S
C570 C566 1.432 . S
C570 C567 1.317 . S
C570 H582 0.930 . S
C571 C573 1.392 . S
C571 C574 1.370 . S
C571 H583 0.931 . S
N572 C565 1.359 . S
N572 C573 1.327 . S
N572 Tb575 2.600 . S
C573 C571 1.392 . S
C573 N572 1.327 . S
C573 H580 0.930 . S
C574 C569 1.385 . S
C574 C571 1.370 . S
C574 H593 0.930 . S
Tb575 N572 2.600 . S
Tb575 N576 2.660 . S
Tb575 O609 2.362 . S
Tb575 O610 2.421 . S
Tb575 O614 2.546 . S
Tb575 O615 2.610 . S
Tb575 O617 2.320 . S
Tb575 O618 2.552 . S
Tb575 O619 2.413 . S
Tb575 C639 2.833 . S
N576 C568 1.360 . S
N576 Tb575 2.660 . S
N576 C577 1.305 . S
C577 N576 1.305 . S
C577 C579 1.407 . S
C577 H584 0.930 . S
C578 C566 1.410 . S
C578 C579 1.345 . S
C578 H586 0.930 . S
C579 C577 1.407 . S
C579 C578 1.345 . S
C579 H581 0.930 . S
H580 C573 0.930 . S
H581 C579 0.930 . S
H582 C570 0.930 . S
H583 C571 0.931 . S
H584 C577 0.930 . S
H585 C599 0.930 . S
H586 C578 0.930 . S
H587 C605 0.930 . S
H588 C596 0.930 . S
H589 C603 0.931 . S
H590 C567 0.929 . S
H591 C597 0.930 . S
H592 C630 0.930 . S
H593 C574 0.930 . S
H594 C629 0.929 . S
N595 Tb564 2.660 . S
N595 C596 1.305 . S
N595 C600 1.360 . S
C596 H588 0.930 . S
C596 N595 1.305 . S
C596 C599 1.407 . S
C597 H591 0.930 . S
C597 C598 1.410 . S
C597 C599 1.345 . S
C598 C597 1.410 . S
C598 C600 1.417 . S
C598 C630 1.432 . S
C599 H585 0.930 . S
C599 C596 1.407 . S
C599 C597 1.345 . S
C600 N595 1.360 . S
C600 C598 1.417 . S
C600 C604 1.432 . S
H601 C606 0.930 . S
N602 Tb564 2.600 . S
N602 C604 1.359 . S
N602 C605 1.327 . S
C603 H589 0.931 . S
C603 C605 1.392 . S
C603 C606 1.370 . S
C604 C600 1.432 . S
C604 N602 1.359 . S
C604 C607 1.414 . S
C605 H587 0.930 . S
C605 N602 1.327 . S
C605 C603 1.392 . S
C606 H601 0.930 . S
C606 C603 1.370 . S
C606 C607 1.385 . S
C607 C604 1.414 . S
C607 C606 1.385 . S
C607 C629 1.444 . S
O608 Tb564 2.546 . S
O608 C628 1.251 . S
O609 Tb564 2.610 . S
O609 Tb575 2.362 . S
O609 C620 1.283 . S
O610 Tb575 2.421 . S
O610 C627 1.262 . S
O611 Tb564 2.320 . S
O611 C627 1.260 . S
O612 Tb564 2.552 . S
O612 C620 1.243 . S
O613 Tb564 2.413 . S
O613 C628 1.256 . S
O614 Tb575 2.546 . S
O614 C639 1.251 . S
O615 Tb564 2.362 . S
O615 Tb575 2.610 . S
O615 C631 1.283 . S
O616 Tb564 2.421 . S
O616 C638 1.262 . S
O617 Tb575 2.320 . S
O617 C638 1.260 . S
O618 Tb575 2.552 . S
O618 C631 1.243 . S
O619 Tb575 2.413 . S
O619 C639 1.256 . S
C620 O609 1.283 . S
C620 O612 1.243 . S
C621 C623 1.382 . S
C621 C625 1.393 . S
C621 C628 1.500 . S
C622 C623 1.400 . S
C622 C624 1.384 . S
C623 C621 1.382 . S
C623 C622 1.400 . S
C623 H640 0.930 . S
C624 C622 1.384 . S
C624 C626 1.392 . S
C624 H641 0.931 . S
C625 C621 1.393 . S
C625 C626 1.401 . S
C625 H642 0.930 . S
C626 C624 1.392 . S
C626 C625 1.401 . S
C626 H643 0.930 . S
C627 O610 1.262 . S
C627 O611 1.260 . S
C628 Tb564 2.833 . S
C628 O608 1.251 . S
C628 O613 1.256 . S
C628 C621 1.500 . S
C629 H594 0.929 . S
C629 C607 1.444 . S
C629 C630 1.317 . S
C630 H592 0.930 . S
C630 C598 1.432 . S
C630 C629 1.317 . S
C631 O615 1.283 . S
C631 O618 1.243 . S
C632 C633 1.382 . S
C632 C636 1.393 . S
C632 C639 1.500 . S
C633 C632 1.382 . S
C633 C634 1.400 . S
C633 H644 0.930 . S
C634 C633 1.400 . S
C634 C635 1.384 . S
C635 C634 1.384 . S
C635 C637 1.392 . S
C635 H645 0.931 . S
C636 C632 1.393 . S
C636 C637 1.401 . S
C636 H646 0.930 . S
C637 C635 1.392 . S
C637 C636 1.401 . S
C637 H647 0.930 . S
C638 O616 1.262 . S
C638 O617 1.260 . S
C639 Tb575 2.833 . S
C639 O614 1.251 . S
C639 O619 1.256 . S
C639 C632 1.500 . S
H640 C623 0.930 . S
H641 C624 0.931 . S
H642 C625 0.930 . S
H643 C626 0.930 . S
H644 C633 0.930 . S
H645 C635 0.931 . S
H646 C636 0.930 . S
H647 C637 0.930 . S
Tb648 N679 2.660 . S
Tb648 N686 2.600 . S
Tb648 O692 2.546 . S
Tb648 O693 2.610 . S
Tb648 O695 2.320 . S
Tb648 O696 2.552 . S
Tb648 O697 2.413 . S
Tb648 O699 2.362 . S
Tb648 O700 2.421 . S
Tb648 C712 2.833 . S
C649 C652 1.432 . S
C649 C653 1.414 . S
C649 N656 1.359 . S
C650 C652 1.417 . S
C650 C654 1.432 . S
C650 C662 1.410 . S
C651 C653 1.444 . S
C651 C654 1.317 . S
C651 H674 0.929 . S
C652 C649 1.432 . S
C652 C650 1.417 . S
C652 N660 1.360 . S
C653 C649 1.414 . S
C653 C651 1.444 . S
C653 C658 1.385 . S
C654 C650 1.432 . S
C654 C651 1.317 . S
C654 H666 0.930 . S
C655 C657 1.392 . S
C655 C658 1.370 . S
C655 H667 0.931 . S
N656 C649 1.359 . S
N656 C657 1.327 . S
N656 Tb659 2.602 1_565 S
C657 C655 1.392 . S
C657 N656 1.327 . S
C657 H664 0.930 . S
C658 C653 1.385 . S
C658 C655 1.370 . S
C658 H677 0.930 . S
Tb659 N656 2.602 1_545 S
Tb659 N660 2.661 1_545 S
Tb659 O693 2.357 . S
Tb659 O694 2.418 . S
Tb659 O698 2.550 1_545 S
Tb659 O699 2.606 . S
Tb659 O701 2.322 1_545 S
Tb659 O702 2.553 . S
Tb659 O703 2.419 1_545 S
Tb659 C723 2.839 1_545 S
N660 C652 1.360 . S
N660 Tb659 2.661 1_565 S
N660 C661 1.305 . S
C661 N660 1.305 . S
C661 C663 1.407 . S
C661 H668 0.930 . S
C662 C650 1.410 . S
C662 C663 1.345 . S
C662 H670 0.930 . S
C663 C661 1.407 . S
C663 C662 1.345 . S
C663 H665 0.930 1_455 S
H664 C657 0.930 . S
H665 C663 0.930 1_655 S
H666 C654 0.930 . S
H667 C655 0.931 . S
H668 C661 0.930 . S
H669 C683 0.930 . S
H670 C662 0.930 . S
H671 C689 0.930 . S
H672 C680 0.930 . S
H673 C687 0.931 1_655 S
H674 C651 0.929 . S
H675 C681 0.930 . S
H676 C714 0.930 . S
H677 C658 0.930 . S
H678 C713 0.929 . S
N679 Tb648 2.660 . S
N679 C680 1.305 . S
N679 C684 1.360 . S
C680 H672 0.930 . S
C680 N679 1.305 . S
C680 C683 1.407 . S
C681 H675 0.930 . S
C681 C682 1.410 . S
C681 C683 1.345 . S
C682 C681 1.410 . S
C682 C684 1.417 . S
C682 C714 1.432 . S
C683 H669 0.930 . S
C683 C680 1.407 . S
C683 C681 1.345 . S
C684 N679 1.360 . S
C684 C682 1.417 . S
C684 C688 1.432 . S
H685 C690 0.930 . S
N686 Tb648 2.600 . S
N686 C688 1.359 . S
N686 C689 1.327 . S
C687 H673 0.931 1_455 S
C687 C689 1.392 . S
C687 C690 1.370 . S
C688 C684 1.432 . S
C688 N686 1.359 . S
C688 C691 1.414 . S
C689 H671 0.930 . S
C689 N686 1.327 . S
C689 C687 1.392 . S
C690 H685 0.930 . S
C690 C687 1.370 . S
C690 C691 1.385 . S
C691 C688 1.414 . S
C691 C690 1.385 . S
C691 C713 1.444 . S
O692 Tb648 2.546 . S
O692 C712 1.251 . S
O693 Tb648 2.610 . S
O693 Tb659 2.357 . S
O693 C704 1.283 . S
O694 Tb659 2.418 . S
O694 C711 1.262 . S
O695 Tb648 2.320 . S
O695 C711 1.260 . S
O696 Tb648 2.552 . S
O696 C704 1.243 . S
O697 Tb648 2.413 . S
O697 C712 1.256 . S
O698 Tb659 2.550 1_565 S
O698 C723 1.251 . S
O699 Tb648 2.362 . S
O699 Tb659 2.606 . S
O699 C715 1.283 . S
O700 Tb648 2.421 . S
O700 C722 1.262 . S
O701 Tb659 2.322 1_565 S
O701 C722 1.246 1_565 S
O702 Tb659 2.553 . S
O702 C715 1.243 . S
O703 Tb659 2.419 1_565 S
O703 C723 1.256 . S
C704 O693 1.283 . S
C704 O696 1.243 . S
C705 C707 1.382 . S
C705 C709 1.393 . S
C705 C712 1.500 . S
C706 C707 1.400 . S
C706 C708 1.384 . S
C707 C705 1.382 . S
C707 C706 1.400 . S
C707 H724 0.930 . S
C708 C706 1.384 . S
C708 C710 1.392 . S
C708 H725 0.931 . S
C709 C705 1.393 . S
C709 C710 1.401 . S
C709 H726 0.930 . S
C710 C708 1.392 . S
C710 C709 1.401 . S
C710 H727 0.930 . S
C711 O694 1.262 . S
C711 O695 1.260 . S
C712 Tb648 2.833 . S
C712 O692 1.251 . S
C712 O697 1.256 . S
C712 C705 1.500 . S
C713 H678 0.929 . S
C713 C691 1.444 . S
C713 C714 1.317 . S
C714 H676 0.930 . S
C714 C682 1.432 . S
C714 C713 1.317 . S
C715 O699 1.283 . S
C715 O702 1.243 . S
C716 C717 1.382 . S
C716 C720 1.393 . S
C716 C723 1.500 . S
C717 C716 1.382 . S
C717 C718 1.400 . S
C717 H728 0.930 . S
C718 C717 1.400 . S
C718 C719 1.384 . S
C719 C718 1.384 . S
C719 C721 1.392 . S
C719 H729 0.931 . S
C720 C716 1.393 . S
C720 C721 1.401 . S
C720 H730 0.930 . S
C721 C719 1.392 . S
C721 C720 1.401 . S
C721 H731 0.930 . S
C722 O700 1.262 . S
C722 O701 1.246 1_545 S
C723 Tb659 2.839 1_565 S
C723 O698 1.251 . S
C723 O703 1.256 . S
C723 C716 1.500 . S
H724 C707 0.930 . S
H725 C708 0.931 . S
H726 C709 0.930 . S
H727 C710 0.930 . S
H728 C717 0.930 . S
H729 C719 0.931 . S
H730 C720 0.930 . S
H731 C721 0.930 . S
Tb732 N763 2.660 . S
Tb732 N770 2.600 . S
Tb732 O776 2.546 . S
Tb732 O777 2.610 . S
Tb732 O779 2.320 . S
Tb732 O780 2.552 . S
Tb732 O781 2.413 . S
Tb732 O783 2.362 . S
Tb732 O784 2.421 . S
Tb732 C796 2.833 . S
C733 C736 1.432 . S
C733 C737 1.414 . S
C733 N740 1.359 . S
C734 C736 1.417 . S
C734 C738 1.432 . S
C734 C746 1.410 . S
C735 C737 1.444 . S
C735 C738 1.317 . S
C735 H758 0.929 . S
C736 C733 1.432 . S
C736 C734 1.417 . S
C736 N744 1.360 . S
C737 C733 1.414 . S
C737 C735 1.444 . S
C737 C742 1.385 . S
C738 C734 1.432 . S
C738 C735 1.317 . S
C738 H750 0.930 . S
C739 C741 1.392 . S
C739 C742 1.370 . S
C739 H751 0.931 . S
N740 C733 1.359 . S
N740 C741 1.327 . S
N740 Tb743 2.600 . S
C741 C739 1.392 . S
C741 N740 1.327 . S
C741 H748 0.930 . S
C742 C737 1.385 . S
C742 C739 1.370 . S
C742 H761 0.930 . S
Tb743 N740 2.600 . S
Tb743 N744 2.660 . S
Tb743 O777 2.362 . S
Tb743 O778 2.421 . S
Tb743 O782 2.546 . S
Tb743 O783 2.610 . S
Tb743 O785 2.320 . S
Tb743 O786 2.552 . S
Tb743 O787 2.413 . S
Tb743 C807 2.833 . S
N744 C736 1.360 . S
N744 Tb743 2.660 . S
N744 C745 1.305 . S
C745 N744 1.305 . S
C745 C747 1.407 . S
C745 H752 0.930 . S
C746 C734 1.410 . S
C746 C747 1.345 . S
C746 H754 0.930 . S
C747 C745 1.407 . S
C747 C746 1.345 . S
C747 H749 0.930 . S
H748 C741 0.930 . S
H749 C747 0.930 . S
H750 C738 0.930 . S
H751 C739 0.931 . S
H752 C745 0.930 . S
H753 C767 0.930 . S
H754 C746 0.930 . S
H755 C773 0.930 . S
H756 C764 0.930 . S
H757 C771 0.931 . S
H758 C735 0.929 . S
H759 C765 0.930 . S
H760 C798 0.930 . S
H761 C742 0.930 . S
H762 C797 0.929 . S
N763 Tb732 2.660 . S
N763 C764 1.305 . S
N763 C768 1.360 . S
C764 H756 0.930 . S
C764 N763 1.305 . S
C764 C767 1.407 . S
C765 H759 0.930 . S
C765 C766 1.410 . S
C765 C767 1.345 . S
C766 C765 1.410 . S
C766 C768 1.417 . S
C766 C798 1.432 . S
C767 H753 0.930 . S
C767 C764 1.407 . S
C767 C765 1.345 . S
C768 N763 1.360 . S
C768 C766 1.417 . S
C768 C772 1.432 . S
H769 C774 0.930 . S
N770 Tb732 2.600 . S
N770 C772 1.359 . S
N770 C773 1.327 . S
C771 H757 0.931 . S
C771 C773 1.392 . S
C771 C774 1.370 . S
C772 C768 1.432 . S
C772 N770 1.359 . S
C772 C775 1.414 . S
C773 H755 0.930 . S
C773 N770 1.327 . S
C773 C771 1.392 . S
C774 H769 0.930 . S
C774 C771 1.370 . S
C774 C775 1.385 . S
C775 C772 1.414 . S
C775 C774 1.385 . S
C775 C797 1.444 . S
O776 Tb732 2.546 . S
O776 C796 1.251 . S
O777 Tb732 2.610 . S
O777 Tb743 2.362 . S
O777 C788 1.283 . S
O778 Tb743 2.421 . S
O778 C795 1.262 . S
O779 Tb732 2.320 . S
O779 C795 1.260 . S
O780 Tb732 2.552 . S
O780 C788 1.243 . S
O781 Tb732 2.413 . S
O781 C796 1.256 . S
O782 Tb743 2.546 . S
O782 C807 1.251 . S
O783 Tb732 2.362 . S
O783 Tb743 2.610 . S
O783 C799 1.283 . S
O784 Tb732 2.421 . S
O784 C806 1.262 . S
O785 Tb743 2.320 . S
O785 C806 1.260 . S
O786 Tb743 2.552 . S
O786 C799 1.243 . S
O787 Tb743 2.413 . S
O787 C807 1.256 . S
C788 O777 1.283 . S
C788 O780 1.243 . S
C789 C791 1.382 . S
C789 C793 1.393 . S
C789 C796 1.500 . S
C790 C791 1.400 . S
C790 C792 1.384 . S
C791 C789 1.382 . S
C791 C790 1.400 . S
C791 H808 0.930 . S
C792 C790 1.384 . S
C792 C794 1.392 . S
C792 H809 0.931 . S
C793 C789 1.393 . S
C793 C794 1.401 . S
C793 H810 0.930 . S
C794 C792 1.392 . S
C794 C793 1.401 . S
C794 H811 0.930 . S
C795 O778 1.262 . S
C795 O779 1.260 . S
C796 Tb732 2.833 . S
C796 O776 1.251 . S
C796 O781 1.256 . S
C796 C789 1.500 . S
C797 H762 0.929 . S
C797 C775 1.444 . S
C797 C798 1.317 . S
C798 H760 0.930 . S
C798 C766 1.432 . S
C798 C797 1.317 . S
C799 O783 1.283 . S
C799 O786 1.243 . S
C800 C801 1.382 . S
C800 C804 1.393 . S
C800 C807 1.500 . S
C801 C800 1.382 . S
C801 C802 1.400 . S
C801 H812 0.930 . S
C802 C801 1.400 . S
C802 C803 1.384 . S
C803 C802 1.384 . S
C803 C805 1.392 . S
C803 H813 0.931 . S
C804 C800 1.393 . S
C804 C805 1.401 . S
C804 H814 0.930 . S
C805 C803 1.392 . S
C805 C804 1.401 . S
C805 H815 0.930 . S
C806 O784 1.262 . S
C806 O785 1.260 . S
C807 Tb743 2.833 . S
C807 O782 1.251 . S
C807 O787 1.256 . S
C807 C800 1.500 . S
H808 C791 0.930 . S
H809 C792 0.931 . S
H810 C793 0.930 . S
H811 C794 0.930 . S
H812 C801 0.930 . S
H813 C803 0.931 . S
H814 C804 0.930 . S
H815 C805 0.930 . S
Tb816 N847 2.660 . S
Tb816 N854 2.600 . S
Tb816 O860 2.546 . S
Tb816 O861 2.610 . S
Tb816 O863 2.320 . S
Tb816 O864 2.552 . S
Tb816 O865 2.413 . S
Tb816 O867 2.362 . S
Tb816 O868 2.421 . S
Tb816 C880 2.833 . S
C817 C820 1.432 . S
C817 C821 1.414 . S
C817 N824 1.359 . S
C818 C820 1.417 . S
C818 C822 1.432 . S
C818 C830 1.410 . S
C819 C821 1.444 . S
C819 C822 1.317 . S
C819 H842 0.929 . S
C820 C817 1.432 . S
C820 C818 1.417 . S
C820 N828 1.360 . S
C821 C817 1.414 . S
C821 C819 1.444 . S
C821 C826 1.385 . S
C822 C818 1.432 . S
C822 C819 1.317 . S
C822 H834 0.930 . S
C823 C825 1.392 . S
C823 C826 1.370 . S
C823 H835 0.931 . S
N824 C817 1.359 . S
N824 C825 1.327 . S
N824 Tb827 2.600 . S
C825 C823 1.392 . S
C825 N824 1.327 . S
C825 H832 0.930 . S
C826 C821 1.385 . S
C826 C823 1.370 . S
C826 H845 0.930 . S
Tb827 N824 2.600 . S
Tb827 N828 2.660 . S
Tb827 O861 2.362 1_556 S
Tb827 O862 2.421 1_556 S
Tb827 O866 2.546 . S
Tb827 O867 2.610 1_556 S
Tb827 O869 2.320 . S
Tb827 O870 2.552 . S
Tb827 O871 2.413 . S
Tb827 C891 2.833 . S
N828 C820 1.360 . S
N828 Tb827 2.660 . S
N828 C829 1.305 . S
C829 N828 1.305 . S
C829 C831 1.407 1_545 S
C829 H836 0.930 . S
C830 C818 1.410 . S
C830 C831 1.345 1_545 S
C830 H838 0.930 1_545 S
C831 C829 1.407 1_565 S
C831 C830 1.345 1_565 S
C831 H833 0.930 . S
H832 C825 0.930 . S
H833 C831 0.930 . S
H834 C822 0.930 . S
H835 C823 0.931 . S
H836 C829 0.930 . S
H837 C851 0.930 . S
H838 C830 0.930 1_565 S
H839 C857 0.930 1_565 S
H840 C848 0.930 . S
H841 C855 0.931 . S
H842 C819 0.929 . S
H843 C849 0.930 . S
H844 C882 0.930 . S
H845 C826 0.930 . S
H846 C881 0.929 . S
N847 Tb816 2.660 . S
N847 C848 1.305 . S
N847 C852 1.360 . S
C848 H840 0.930 . S
C848 N847 1.305 . S
C848 C851 1.407 . S
C849 H843 0.930 . S
C849 C850 1.410 . S
C849 C851 1.345 . S
C850 C849 1.410 . S
C850 C852 1.417 . S
C850 C882 1.432 . S
C851 H837 0.930 . S
C851 C848 1.407 . S
C851 C849 1.345 . S
C852 N847 1.360 . S
C852 C850 1.417 . S
C852 C856 1.432 . S
H853 C858 0.899 1_565 S
N854 Tb816 2.600 . S
N854 C856 1.359 . S
N854 C857 1.327 . S
C855 H841 0.931 . S
C855 C857 1.392 1_565 S
C855 C858 1.370 1_565 S
C856 C852 1.432 . S
C856 N854 1.359 . S
C856 C859 1.414 . S
C857 H839 0.930 1_545 S
C857 N854 1.327 . S
C857 C855 1.392 1_545 S
C858 H853 0.899 1_545 S
C858 C855 1.370 1_545 S
C858 C859 1.385 . S
C859 C856 1.414 . S
C859 C858 1.385 . S
C859 C881 1.444 . S
O860 Tb816 2.546 . S
O860 C880 1.251 . S
O861 Tb816 2.610 . S
O861 Tb827 2.362 1_554 S
O861 C872 1.283 . S
O862 Tb827 2.421 1_554 S
O862 C879 1.262 . S
O863 Tb816 2.320 . S
O863 C879 1.260 . S
O864 Tb816 2.552 . S
O864 C872 1.243 . S
O865 Tb816 2.413 . S
O865 C880 1.256 . S
O866 Tb827 2.546 . S
O866 C891 1.251 . S
O867 Tb816 2.362 . S
O867 Tb827 2.610 1_554 S
O867 C883 1.283 . S
O868 Tb816 2.421 . S
O868 C890 1.262 1_554 S
O869 Tb827 2.320 . S
O869 C890 1.260 . S
O870 Tb827 2.552 . S
O870 C883 1.243 1_556 S
O871 Tb827 2.413 . S
O871 C891 1.256 . S
C872 O861 1.283 . S
C872 O864 1.243 . S
C873 C875 1.382 . S
C873 C877 1.393 . S
C873 C880 1.500 . S
C874 C875 1.400 . S
C874 C876 1.384 . S
C875 C873 1.382 . S
C875 C874 1.400 . S
C875 H892 0.930 . S
C876 C874 1.384 . S
C876 C878 1.392 . S
C876 H893 0.931 . S
C877 C873 1.393 . S
C877 C878 1.401 . S
C877 H894 0.930 1_545 S
C878 C876 1.392 . S
C878 C877 1.401 . S
C878 H895 0.930 1_545 S
C879 O862 1.262 . S
C879 O863 1.260 . S
C880 Tb816 2.833 . S
C880 O860 1.251 . S
C880 O865 1.256 . S
C880 C873 1.500 . S
C881 H846 0.929 . S
C881 C859 1.444 . S
C881 C882 1.317 . S
C882 H844 0.930 . S
C882 C850 1.432 . S
C882 C881 1.317 . S
C883 O867 1.283 . S
C883 O870 1.243 1_554 S
C884 C885 1.382 . S
C884 C888 1.393 . S
C884 C891 1.500 . S
C885 C884 1.382 . S
C885 C886 1.400 . S
C885 H896 0.930 . S
C886 C885 1.400 . S
C886 C887 1.384 . S
C887 C886 1.384 . S
C887 C889 1.392 . S
C887 H897 0.931 . S
C888 C884 1.393 . S
C888 C889 1.401 . S
C888 H898 0.930 . S
C889 C887 1.392 . S
C889 C888 1.401 . S
C889 H899 0.930 . S
C890 O868 1.262 1_556 S
C890 O869 1.260 . S
C891 Tb827 2.833 . S
C891 O866 1.251 . S
C891 O871 1.256 . S
C891 C884 1.500 . S
H892 C875 0.930 . S
H893 C876 0.931 . S
H894 C877 0.930 1_565 S
H895 C878 0.930 1_565 S
H896 C885 0.930 . S
H897 C887 0.931 . S
H898 C888 0.930 . S
H899 C889 0.930 . S
Tb900 N931 2.660 . S
Tb900 N938 2.600 . S
Tb900 O944 2.546 . S
Tb900 O945 2.610 . S
Tb900 O947 2.320 . S
Tb900 O948 2.552 . S
Tb900 O949 2.413 . S
Tb900 O951 2.362 . S
Tb900 O952 2.421 . S
Tb900 C964 2.833 . S
C901 C904 1.432 . S
C901 C905 1.414 . S
C901 N908 1.359 . S
C902 C904 1.417 . S
C902 C906 1.432 . S
C902 C914 1.410 . S
C903 C905 1.444 . S
C903 C906 1.317 . S
C903 H926 0.929 . S
C904 C901 1.432 . S
C904 C902 1.417 . S
C904 N912 1.360 . S
C905 C901 1.414 . S
C905 C903 1.444 . S
C905 C910 1.385 . S
C906 C902 1.432 . S
C906 C903 1.317 . S
C906 H918 0.930 . S
C907 C909 1.392 . S
C907 C910 1.370 . S
C907 H919 0.931 . S
N908 C901 1.359 . S
N908 C909 1.327 . S
N908 Tb911 2.600 . S
C909 C907 1.392 . S
C909 N908 1.327 . S
C909 H916 0.930 . S
C910 C905 1.385 . S
C910 C907 1.370 . S
C910 H929 0.930 . S
Tb911 N908 2.600 . S
Tb911 N912 2.660 . S
Tb911 O945 2.362 . S
Tb911 O946 2.421 . S
Tb911 O950 2.546 . S
Tb911 O951 2.610 . S
Tb911 O953 2.320 . S
Tb911 O954 2.552 . S
Tb911 O955 2.413 . S
Tb911 C975 2.833 . S
N912 C904 1.360 . S
N912 Tb911 2.660 . S
N912 C913 1.305 . S
C913 N912 1.305 . S
C913 C915 1.407 . S
C913 H920 0.930 . S
C914 C902 1.410 . S
C914 C915 1.345 . S
C914 H922 0.930 . S
C915 C913 1.407 . S
C915 C914 1.345 . S
C915 H917 0.930 . S
H916 C909 0.930 . S
H917 C915 0.930 . S
H918 C906 0.930 . S
H919 C907 0.931 . S
H920 C913 0.930 . S
H921 C935 0.930 . S
H922 C914 0.930 . S
H923 C941 0.930 . S
H924 C932 0.930 . S
H925 C939 0.931 . S
H926 C903 0.929 . S
H927 C933 0.930 . S
H928 C966 0.930 . S
H929 C910 0.930 . S
H930 C965 0.929 . S
N931 Tb900 2.660 . S
N931 C932 1.305 . S
N931 C936 1.360 . S
C932 H924 0.930 . S
C932 N931 1.305 . S
C932 C935 1.407 . S
C933 H927 0.930 . S
C933 C934 1.410 . S
C933 C935 1.345 . S
C934 C933 1.410 . S
C934 C936 1.417 . S
C934 C966 1.432 . S
C935 H921 0.930 . S
C935 C932 1.407 . S
C935 C933 1.345 . S
C936 N931 1.360 . S
C936 C934 1.417 . S
C936 C940 1.432 . S
H937 C942 0.930 . S
N938 Tb900 2.600 . S
N938 C940 1.359 . S
N938 C941 1.327 . S
C939 H925 0.931 . S
C939 C941 1.392 . S
C939 C942 1.370 . S
C940 C936 1.432 . S
C940 N938 1.359 . S
C940 C943 1.414 . S
C941 H923 0.930 . S
C941 N938 1.327 . S
C941 C939 1.392 . S
C942 H937 0.930 . S
C942 C939 1.370 . S
C942 C943 1.385 . S
C943 C940 1.414 . S
C943 C942 1.385 . S
C943 C965 1.444 . S
O944 Tb900 2.546 . S
O944 C964 1.251 . S
O945 Tb900 2.610 . S
O945 Tb911 2.362 . S
O945 C956 1.283 . S
O946 Tb911 2.421 . S
O946 C963 1.262 . S
O947 Tb900 2.320 . S
O947 C963 1.260 . S
O948 Tb900 2.552 . S
O948 C956 1.243 . S
O949 Tb900 2.413 . S
O949 C964 1.256 . S
O950 Tb911 2.546 . S
O950 C975 1.251 . S
O951 Tb900 2.362 . S
O951 Tb911 2.610 . S
O951 C967 1.283 . S
O952 Tb900 2.421 . S
O952 C974 1.262 . S
O953 Tb911 2.320 . S
O953 C974 1.260 . S
O954 Tb911 2.552 . S
O954 C967 1.243 . S
O955 Tb911 2.413 . S
O955 C975 1.256 . S
C956 O945 1.283 . S
C956 O948 1.243 . S
C957 C959 1.382 . S
C957 C961 1.393 . S
C957 C964 1.500 . S
C958 C959 1.400 . S
C958 C960 1.384 . S
C959 C957 1.382 . S
C959 C958 1.400 . S
C959 H976 0.930 . S
C960 C958 1.384 . S
C960 C962 1.392 . S
C960 H977 0.931 . S
C961 C957 1.393 . S
C961 C962 1.401 . S
C961 H978 0.930 . S
C962 C960 1.392 . S
C962 C961 1.401 . S
C962 H979 0.930 . S
C963 O946 1.262 . S
C963 O947 1.260 . S
C964 Tb900 2.833 . S
C964 O944 1.251 . S
C964 O949 1.256 . S
C964 C957 1.500 . S
C965 H930 0.929 . S
C965 C943 1.444 . S
C965 C966 1.317 . S
C966 H928 0.930 . S
C966 C934 1.432 . S
C966 C965 1.317 . S
C967 O951 1.283 . S
C967 O954 1.243 . S
C968 C969 1.382 . S
C968 C972 1.393 . S
C968 C975 1.500 . S
C969 C968 1.382 . S
C969 C970 1.400 . S
C969 H980 0.930 . S
C970 C969 1.400 . S
C970 C971 1.384 . S
C971 C970 1.384 . S
C971 C973 1.392 . S
C971 H981 0.931 . S
C972 C968 1.393 . S
C972 C973 1.401 . S
C972 H982 0.930 . S
C973 C971 1.392 . S
C973 C972 1.401 . S
C973 H983 0.930 . S
C974 O952 1.262 . S
C974 O953 1.260 . S
C975 Tb911 2.833 . S
C975 O950 1.251 . S
C975 O955 1.256 . S
C975 C968 1.500 . S
H976 C959 0.930 . S
H977 C960 0.931 . S
H978 C961 0.930 . S
H979 C962 0.930 . S
H980 C969 0.930 . S
H981 C971 0.931 . S
H982 C972 0.930 . S
H983 C973 0.930 . S
Tb984 N1015 2.660 . S
Tb984 N1022 2.600 . S
Tb984 O1028 2.546 . S
Tb984 O1029 2.610 1_554 S
Tb984 O1031 2.320 . S
Tb984 O1032 2.552 1_554 S
Tb984 O1033 2.413 . S
Tb984 O1035 2.362 . S
Tb984 O1036 2.421 . S
Tb984 C1048 2.833 . S
C985 C988 1.432 . S
C985 C989 1.414 . S
C985 N992 1.359 . S
C986 C988 1.417 . S
C986 C990 1.432 . S
C986 C998 1.410 . S
C987 C989 1.444 . S
C987 C990 1.317 . S
C987 H1010 0.929 . S
C988 C985 1.432 . S
C988 C986 1.417 . S
C988 N996 1.360 . S
C989 C985 1.414 . S
C989 C987 1.444 . S
C989 C994 1.385 . S
C990 C986 1.432 . S
C990 C987 1.317 . S
C990 H1002 0.930 . S
C991 C993 1.392 . S
C991 C994 1.370 . S
C991 H1003 0.931 . S
N992 C985 1.359 . S
N992 C993 1.327 . S
N992 Tb995 2.600 1_556 S
C993 C991 1.392 . S
C993 N992 1.327 . S
C993 H1000 0.930 . S
C994 C989 1.385 . S
C994 C991 1.370 . S
C994 H1013 0.930 . S
Tb995 N992 2.600 1_554 S
Tb995 N996 2.660 1_554 S
Tb995 O1029 2.362 1_554 S
Tb995 O1030 2.421 . S
Tb995 O1034 2.546 . S
Tb995 O1035 2.610 . S
Tb995 O1037 2.320 . S
Tb995 O1038 2.552 . S
Tb995 O1039 2.413 . S
Tb995 C1059 2.833 . S
N996 C988 1.360 . S
N996 Tb995 2.660 1_556 S
N996 C997 1.305 . S
C997 N996 1.305 . S
C997 C999 1.407 . S
C997 H1004 0.930 . S
C998 C986 1.410 . S
C998 C999 1.345 . S
C998 H1006 0.930 . S
C999 C997 1.407 . S
C999 C998 1.345 . S
C999 H1001 0.930 . S
H1000 C993 0.930 . S
H1001 C999 0.930 . S
H1002 C990 0.930 . S
H1003 C991 0.931 . S
H1004 C997 0.930 . S
H1005 C1019 0.930 . S
H1006 C998 0.930 . S
H1007 C1025 0.930 . S
H1008 C1016 0.930 . S
H1009 C1023 0.931 . S
H1010 C987 0.929 . S
H1011 C1017 0.930 . S
H1012 C1050 0.930 . S
H1013 C994 0.930 . S
H1014 C1049 0.929 . S
N1015 Tb984 2.660 . S
N1015 C1016 1.305 . S
N1015 C1020 1.360 . S
C1016 H1008 0.930 . S
C1016 N1015 1.305 . S
C1016 C1019 1.407 . S
C1017 H1011 0.930 . S
C1017 C1018 1.410 . S
C1017 C1019 1.345 . S
C1018 C1017 1.410 . S
C1018 C1020 1.417 . S
C1018 C1050 1.432 . S
C1019 H1005 0.930 . S
C1019 C1016 1.407 . S
C1019 C1017 1.345 . S
C1020 N1015 1.360 . S
C1020 C1018 1.417 . S
C1020 C1024 1.432 . S
H1021 C1026 0.930 . S
N1022 Tb984 2.600 . S
N1022 C1024 1.359 . S
N1022 C1025 1.327 . S
C1023 H1009 0.931 . S
C1023 C1025 1.392 . S
C1023 C1026 1.370 . S
C1024 C1020 1.432 . S
C1024 N1022 1.359 . S
C1024 C1027 1.414 . S
C1025 H1007 0.930 . S
C1025 N1022 1.327 . S
C1025 C1023 1.392 . S
C1026 H1021 0.930 . S
C1026 C1023 1.370 . S
C1026 C1027 1.385 . S
C1027 C1024 1.414 . S
C1027 C1026 1.385 . S
C1027 C1049 1.444 . S
O1028 Tb984 2.546 . S
O1028 C1048 1.251 . S
O1029 Tb984 2.610 1_556 S
O1029 Tb995 2.362 1_556 S
O1029 C1040 1.283 . S
O1030 Tb995 2.421 . S
O1030 C1047 1.262 . S
O1031 Tb984 2.320 . S
O1031 C1047 1.260 . S
O1032 Tb984 2.552 1_556 S
O1032 C1040 1.243 . S
O1033 Tb984 2.413 . S
O1033 C1048 1.256 . S
O1034 Tb995 2.546 . S
O1034 C1059 1.251 . S
O1035 Tb984 2.362 . S
O1035 Tb995 2.610 . S
O1035 C1051 1.283 . S
O1036 Tb984 2.421 . S
O1036 C1058 1.262 . S
O1037 Tb995 2.320 . S
O1037 C1058 1.260 . S
O1038 Tb995 2.552 . S
O1038 C1051 1.243 . S
O1039 Tb995 2.413 . S
O1039 C1059 1.256 . S
C1040 O1029 1.283 . S
C1040 O1032 1.243 . S
C1041 C1043 1.382 1_554 S
C1041 C1045 1.393 . S
C1041 C1048 1.500 . S
C1042 C1043 1.400 . S
C1042 C1044 1.384 . S
C1043 C1041 1.382 1_556 S
C1043 C1042 1.400 . S
C1043 H1060 0.930 . S
C1044 C1042 1.384 . S
C1044 C1046 1.392 1_556 S
C1044 H1061 0.931 . S
C1045 C1041 1.393 . S
C1045 C1046 1.401 . S
C1045 H1062 0.930 . S
C1046 C1044 1.392 1_554 S
C1046 C1045 1.401 . S
C1046 H1063 0.930 . S
C1047 O1030 1.262 . S
C1047 O1031 1.260 . S
C1048 Tb984 2.833 . S
C1048 O1028 1.251 . S
C1048 O1033 1.256 . S
C1048 C1041 1.500 . S
C1049 H1014 0.929 . S
C1049 C1027 1.444 . S
C1049 C1050 1.317 . S
C1050 H1012 0.930 . S
C1050 C1018 1.432 . S
C1050 C1049 1.317 . S
C1051 O1035 1.283 . S
C1051 O1038 1.243 . S
C1052 C1053 1.382 . S
C1052 C1056 1.393 . S
C1052 C1059 1.500 . S
C1053 C1052 1.382 . S
C1053 C1054 1.400 . S
C1053 H1064 0.930 . S
C1054 C1053 1.400 . S
C1054 C1055 1.384 . S
C1055 C1054 1.384 . S
C1055 C1057 1.392 . S
C1055 H1065 0.931 . S
C1056 C1052 1.393 . S
C1056 C1057 1.401 . S
C1056 H1066 0.930 . S
C1057 C1055 1.392 . S
C1057 C1056 1.401 . S
C1057 H1067 0.930 . S
C1058 O1036 1.262 . S
C1058 O1037 1.260 . S
C1059 Tb995 2.833 . S
C1059 O1034 1.251 . S
C1059 O1039 1.256 . S
C1059 C1052 1.500 . S
H1060 C1043 0.930 . S
H1061 C1044 0.931 . S
H1062 C1045 0.930 . S
H1063 C1046 0.930 . S
H1064 C1053 0.930 . S
H1065 C1055 0.931 . S
H1066 C1056 0.930 . S
H1067 C1057 0.930 . S
Tb1068 N1099 2.660 . S
Tb1068 N1106 2.600 . S
Tb1068 O1112 2.546 . S
Tb1068 O1113 2.610 . S
Tb1068 O1115 2.320 . S
Tb1068 O1116 2.552 . S
Tb1068 O1117 2.413 . S
Tb1068 O1119 2.362 . S
Tb1068 O1120 2.421 . S
Tb1068 C1132 2.833 . S
C1069 C1072 1.432 . S
C1069 C1073 1.414 . S
C1069 N1076 1.359 . S
C1070 C1072 1.417 . S
C1070 C1074 1.432 . S
C1070 C1082 1.410 . S
C1071 C1073 1.444 . S
C1071 C1074 1.317 . S
C1071 H1094 0.929 . S
C1072 C1069 1.432 . S
C1072 C1070 1.417 . S
C1072 N1080 1.360 . S
C1073 C1069 1.414 . S
C1073 C1071 1.444 . S
C1073 C1078 1.385 . S
C1074 C1070 1.432 . S
C1074 C1071 1.317 . S
C1074 H1086 0.930 . S
C1075 C1077 1.392 . S
C1075 C1078 1.370 . S
C1075 H1087 0.931 . S
N1076 C1069 1.359 . S
N1076 C1077 1.327 . S
N1076 Tb1079 2.600 . S
C1077 C1075 1.392 . S
C1077 N1076 1.327 . S
C1077 H1084 0.930 . S
C1078 C1073 1.385 . S
C1078 C1075 1.370 . S
C1078 H1097 0.930 . S
Tb1079 N1076 2.600 . S
Tb1079 N1080 2.660 . S
Tb1079 O1113 2.362 . S
Tb1079 O1114 2.421 . S
Tb1079 O1118 2.546 . S
Tb1079 O1119 2.610 . S
Tb1079 O1121 2.320 . S
Tb1079 O1122 2.552 . S
Tb1079 O1123 2.413 . S
Tb1079 C1143 2.833 . S
N1080 C1072 1.360 . S
N1080 Tb1079 2.660 . S
N1080 C1081 1.305 . S
C1081 N1080 1.305 . S
C1081 C1083 1.407 . S
C1081 H1088 0.930 . S
C1082 C1070 1.410 . S
C1082 C1083 1.345 . S
C1082 H1090 0.930 . S
C1083 C1081 1.407 . S
C1083 C1082 1.345 . S
C1083 H1085 0.930 . S
H1084 C1077 0.930 . S
H1085 C1083 0.930 . S
H1086 C1074 0.930 . S
H1087 C1075 0.931 . S
H1088 C1081 0.930 . S
H1089 C1103 0.930 . S
H1090 C1082 0.930 . S
H1091 C1109 0.930 . S
H1092 C1100 0.930 . S
H1093 C1107 0.931 . S
H1094 C1071 0.929 . S
H1095 C1101 0.930 . S
H1096 C1134 0.930 . S
H1097 C1078 0.930 . S
H1098 C1133 0.929 . S
N1099 Tb1068 2.660 . S
N1099 C1100 1.305 . S
N1099 C1104 1.360 . S
C1100 H1092 0.930 . S
C1100 N1099 1.305 . S
C1100 C1103 1.407 . S
C1101 H1095 0.930 . S
C1101 C1102 1.410 . S
C1101 C1103 1.345 . S
C1102 C1101 1.410 . S
C1102 C1104 1.417 . S
C1102 C1134 1.432 . S
C1103 H1089 0.930 . S
C1103 C1100 1.407 . S
C1103 C1101 1.345 . S
C1104 N1099 1.360 . S
C1104 C1102 1.417 . S
C1104 C1108 1.432 . S
H1105 C1110 0.930 . S
N1106 Tb1068 2.600 . S
N1106 C1108 1.359 . S
N1106 C1109 1.327 . S
C1107 H1093 0.931 . S
C1107 C1109 1.392 . S
C1107 C1110 1.370 . S
C1108 C1104 1.432 . S
C1108 N1106 1.359 . S
C1108 C1111 1.414 . S
C1109 H1091 0.930 . S
C1109 N1106 1.327 . S
C1109 C1107 1.392 . S
C1110 H1105 0.930 . S
C1110 C1107 1.370 . S
C1110 C1111 1.385 . S
C1111 C1108 1.414 . S
C1111 C1110 1.385 . S
C1111 C1133 1.444 . S
O1112 Tb1068 2.546 . S
O1112 C1132 1.251 . S
O1113 Tb1068 2.610 . S
O1113 Tb1079 2.362 . S
O1113 C1124 1.283 . S
O1114 Tb1079 2.421 . S
O1114 C1131 1.262 . S
O1115 Tb1068 2.320 . S
O1115 C1131 1.260 . S
O1116 Tb1068 2.552 . S
O1116 C1124 1.243 . S
O1117 Tb1068 2.413 . S
O1117 C1132 1.256 . S
O1118 Tb1079 2.546 . S
O1118 C1143 1.251 . S
O1119 Tb1068 2.362 . S
O1119 Tb1079 2.610 . S
O1119 C1135 1.283 . S
O1120 Tb1068 2.421 . S
O1120 C1142 1.262 . S
O1121 Tb1079 2.320 . S
O1121 C1142 1.260 . S
O1122 Tb1079 2.552 . S
O1122 C1135 1.243 . S
O1123 Tb1079 2.413 . S
O1123 C1143 1.256 . S
C1124 O1113 1.283 . S
C1124 O1116 1.243 . S
C1125 C1127 1.382 . S
C1125 C1129 1.393 . S
C1125 C1132 1.500 . S
C1126 C1127 1.400 . S
C1126 C1128 1.384 . S
C1127 C1125 1.382 . S
C1127 C1126 1.400 . S
C1127 H1144 0.930 . S
C1128 C1126 1.384 . S
C1128 C1130 1.392 . S
C1128 H1145 0.931 . S
C1129 C1125 1.393 . S
C1129 C1130 1.401 . S
C1129 H1146 0.930 . S
C1130 C1128 1.392 . S
C1130 C1129 1.401 . S
C1130 H1147 0.930 . S
C1131 O1114 1.262 . S
C1131 O1115 1.260 . S
C1132 Tb1068 2.833 . S
C1132 O1112 1.251 . S
C1132 O1117 1.256 . S
C1132 C1125 1.500 . S
C1133 H1098 0.929 . S
C1133 C1111 1.444 . S
C1133 C1134 1.317 . S
C1134 H1096 0.930 . S
C1134 C1102 1.432 . S
C1134 C1133 1.317 . S
C1135 O1119 1.283 . S
C1135 O1122 1.243 . S
C1136 C1137 1.382 . S
C1136 C1140 1.393 . S
C1136 C1143 1.500 . S
C1137 C1136 1.382 . S
C1137 C1138 1.400 . S
C1137 H1148 0.930 . S
C1138 C1137 1.400 . S
C1138 C1139 1.384 . S
C1139 C1138 1.384 . S
C1139 C1141 1.392 . S
C1139 H1149 0.931 . S
C1140 C1136 1.393 . S
C1140 C1141 1.401 . S
C1140 H1150 0.930 . S
C1141 C1139 1.392 . S
C1141 C1140 1.401 . S
C1141 H1151 0.930 . S
C1142 O1120 1.262 . S
C1142 O1121 1.260 . S
C1143 Tb1079 2.833 . S
C1143 O1118 1.251 . S
C1143 O1123 1.256 . S
C1143 C1136 1.500 . S
H1144 C1127 0.930 . S
H1145 C1128 0.931 . S
H1146 C1129 0.930 . S
H1147 C1130 0.930 . S
H1148 C1137 0.930 . S
H1149 C1139 0.931 . S
H1150 C1140 0.930 . S
H1151 C1141 0.930 . S
Tb1152 N1183 2.660 . S
Tb1152 N1190 2.600 . S
Tb1152 O1196 2.546 . S
Tb1152 O1197 2.610 . S
Tb1152 O1199 2.320 . S
Tb1152 O1200 2.552 . S
Tb1152 O1201 2.413 . S
Tb1152 O1203 2.362 . S
Tb1152 O1204 2.421 . S
Tb1152 C1216 2.833 . S
C1153 C1156 1.432 . S
C1153 C1157 1.414 . S
C1153 N1160 1.359 1_655 S
C1154 C1156 1.417 . S
C1154 C1158 1.432 . S
C1154 C1166 1.410 . S
C1155 C1157 1.444 . S
C1155 C1158 1.317 . S
C1155 H1178 0.929 . S
C1156 C1153 1.432 . S
C1156 C1154 1.417 . S
C1156 N1164 1.360 1_655 S
C1157 C1153 1.414 . S
C1157 C1155 1.444 . S
C1157 C1162 1.385 . S
C1158 C1154 1.432 . S
C1158 C1155 1.317 . S
C1158 H1170 0.930 . S
C1159 C1161 1.392 1_655 S
C1159 C1162 1.370 . S
C1159 H1171 0.931 . S
N1160 C1153 1.359 1_455 S
N1160 C1161 1.327 . S
N1160 Tb1163 2.600 . S
C1161 C1159 1.392 1_455 S
C1161 N1160 1.327 . S
C1161 H1168 0.930 . S
C1162 C1157 1.385 . S
C1162 C1159 1.370 . S
C1162 H1181 0.930 . S
Tb1163 N1160 2.600 . S
Tb1163 N1164 2.660 . S
Tb1163 O1197 2.362 . S
Tb1163 O1198 2.421 . S
Tb1163 O1202 2.546 . S
Tb1163 O1203 2.610 . S
Tb1163 O1205 2.320 . S
Tb1163 O1206 2.552 . S
Tb1163 O1207 2.413 . S
Tb1163 C1227 2.833 . S
N1164 C1156 1.360 1_455 S
N1164 Tb1163 2.660 . S
N1164 C1165 1.300 . S
C1165 N1164 1.300 . S
C1165 C1167 1.363 1_455 S
C1165 H1172 0.986 . S
C1166 C1154 1.410 . S
C1166 C1167 1.345 . S
C1166 H1174 0.930 . S
C1167 C1165 1.363 1_655 S
C1167 C1166 1.345 . S
C1167 H1169 0.930 . S
H1168 C1161 0.930 . S
H1169 C1167 0.930 . S
H1170 C1158 0.930 . S
H1171 C1159 0.931 . S
H1172 C1165 0.986 . S
H1173 C1187 0.930 . S
H1174 C1166 0.930 . S
H1175 C1193 0.930 . S
H1176 C1184 0.930 . S
H1177 C1191 0.931 . S
H1178 C1155 0.929 . S
H1179 C1185 0.930 . S
H1180 C1218 0.930 . S
H1181 C1162 0.930 . S
H1182 C1217 0.929 . S
N1183 Tb1152 2.660 . S
N1183 C1184 1.305 . S
N1183 C1188 1.360 . S
C1184 H1176 0.930 . S
C1184 N1183 1.305 . S
C1184 C1187 1.407 . S
C1185 H1179 0.930 . S
C1185 C1186 1.410 . S
C1185 C1187 1.345 . S
C1186 C1185 1.410 . S
C1186 C1188 1.417 . S
C1186 C1218 1.432 . S
C1187 H1173 0.930 . S
C1187 C1184 1.407 . S
C1187 C1185 1.345 . S
C1188 N1183 1.360 . S
C1188 C1186 1.417 . S
C1188 C1192 1.432 . S
H1189 C1194 0.930 . S
N1190 Tb1152 2.600 . S
N1190 C1192 1.359 . S
N1190 C1193 1.327 . S
C1191 H1177 0.931 . S
C1191 C1193 1.392 . S
C1191 C1194 1.370 . S
C1192 C1188 1.432 . S
C1192 N1190 1.359 . S
C1192 C1195 1.414 . S
C1193 H1175 0.930 . S
C1193 N1190 1.327 . S
C1193 C1191 1.392 . S
C1194 H1189 0.930 . S
C1194 C1191 1.370 . S
C1194 C1195 1.385 . S
C1195 C1192 1.414 . S
C1195 C1194 1.385 . S
C1195 C1217 1.444 . S
O1196 Tb1152 2.546 . S
O1196 C1216 1.251 . S
O1197 Tb1152 2.610 . S
O1197 Tb1163 2.362 . S
O1197 C1208 1.283 . S
O1198 Tb1163 2.421 . S
O1198 C1215 1.262 . S
O1199 Tb1152 2.320 . S
O1199 C1215 1.260 . S
O1200 Tb1152 2.552 . S
O1200 C1208 1.243 . S
O1201 Tb1152 2.413 . S
O1201 C1216 1.256 . S
O1202 Tb1163 2.546 . S
O1202 C1227 1.251 . S
O1203 Tb1152 2.362 . S
O1203 Tb1163 2.610 . S
O1203 C1219 1.283 . S
O1204 Tb1152 2.421 . S
O1204 C1226 1.262 . S
O1205 Tb1163 2.320 . S
O1205 C1226 1.260 . S
O1206 Tb1163 2.552 . S
O1206 C1219 1.243 . S
O1207 Tb1163 2.413 . S
O1207 C1227 1.256 . S
C1208 O1197 1.283 . S
C1208 O1200 1.243 . S
C1209 C1211 1.382 . S
C1209 C1213 1.393 . S
C1209 C1216 1.500 . S
C1210 C1211 1.400 1_655 S
C1210 C1212 1.393 . S
C1211 C1209 1.382 . S
C1211 C1210 1.400 1_455 S
C1211 H1228 0.930 . S
C1212 C1210 1.393 . S
C1212 C1214 1.371 1_655 S
C1212 H1229 0.944 . S
C1213 C1209 1.393 . S
C1213 C1214 1.401 . S
C1213 H1230 0.930 . S
C1214 C1212 1.371 1_455 S
C1214 C1213 1.401 . S
C1214 H1231 0.930 . S
C1215 O1198 1.262 . S
C1215 O1199 1.260 . S
C1216 Tb1152 2.833 . S
C1216 O1196 1.251 . S
C1216 O1201 1.256 . S
C1216 C1209 1.500 . S
C1217 H1182 0.929 . S
C1217 C1195 1.444 . S
C1217 C1218 1.317 . S
C1218 H1180 0.930 . S
C1218 C1186 1.432 . S
C1218 C1217 1.317 . S
C1219 O1203 1.283 . S
C1219 O1206 1.243 . S
C1220 C1221 1.382 . S
C1220 C1224 1.393 . S
C1220 C1227 1.500 . S
C1221 C1220 1.382 . S
C1221 C1222 1.400 . S
C1221 H1232 0.930 . S
C1222 C1221 1.400 . S
C1222 C1223 1.384 . S
C1223 C1222 1.384 . S
C1223 C1225 1.392 . S
C1223 H1233 0.931 . S
C1224 C1220 1.393 . S
C1224 C1225 1.401 . S
C1224 H1234 0.930 . S
C1225 C1223 1.392 . S
C1225 C1224 1.401 . S
C1225 H1235 0.930 . S
C1226 O1204 1.262 . S
C1226 O1205 1.260 . S
C1227 Tb1163 2.833 . S
C1227 O1202 1.251 . S
C1227 O1207 1.256 . S
C1227 C1220 1.500 . S
H1228 C1211 0.930 . S
H1229 C1212 0.944 . S
H1230 C1213 0.930 . S
H1231 C1214 0.930 . S
H1232 C1221 0.930 . S
H1233 C1223 0.931 . S
H1234 C1224 0.930 . S
H1235 C1225 0.930 . S
Tb1236 N1267 2.660 . S
Tb1236 N1274 2.600 . S
Tb1236 O1280 2.546 . S
Tb1236 O1281 2.610 . S
Tb1236 O1283 2.320 . S
Tb1236 O1284 2.552 . S
Tb1236 O1285 2.413 . S
Tb1236 O1287 2.362 . S
Tb1236 O1288 2.421 . S
Tb1236 C1300 2.833 . S
C1237 C1240 1.432 . S
C1237 C1241 1.414 . S
C1237 N1244 1.359 . S
C1238 C1240 1.417 . S
C1238 C1242 1.432 . S
C1238 C1250 1.410 . S
C1239 C1241 1.444 . S
C1239 C1242 1.317 . S
C1239 H1262 0.929 . S
C1240 C1237 1.432 . S
C1240 C1238 1.417 . S
C1240 N1248 1.360 . S
C1241 C1237 1.414 . S
C1241 C1239 1.444 . S
C1241 C1246 1.385 . S
C1242 C1238 1.432 . S
C1242 C1239 1.317 . S
C1242 H1254 0.930 . S
C1243 C1245 1.392 . S
C1243 C1246 1.370 . S
C1243 H1255 0.931 . S
N1244 C1237 1.359 . S
N1244 C1245 1.327 . S
N1244 Tb1247 2.600 . S
C1245 C1243 1.392 . S
C1245 N1244 1.327 . S
C1245 H1252 0.930 . S
C1246 C1241 1.385 . S
C1246 C1243 1.370 . S
C1246 H1265 0.930 . S
Tb1247 N1244 2.600 . S
Tb1247 N1248 2.660 . S
Tb1247 O1281 2.362 . S
Tb1247 O1282 2.421 . S
Tb1247 O1286 2.546 . S
Tb1247 O1287 2.610 . S
Tb1247 O1289 2.320 . S
Tb1247 O1290 2.552 . S
Tb1247 O1291 2.413 . S
Tb1247 C1311 2.833 . S
N1248 C1240 1.360 . S
N1248 Tb1247 2.660 . S
N1248 C1249 1.305 . S
C1249 N1248 1.305 . S
C1249 C1251 1.407 . S
C1249 H1256 0.930 . S
C1250 C1238 1.410 . S
C1250 C1251 1.345 . S
C1250 H1258 0.930 . S
C1251 C1249 1.407 . S
C1251 C1250 1.345 . S
C1251 H1253 0.930 . S
H1252 C1245 0.930 . S
H1253 C1251 0.930 . S
H1254 C1242 0.930 . S
H1255 C1243 0.931 . S
H1256 C1249 0.930 . S
H1257 C1271 0.930 . S
H1258 C1250 0.930 . S
H1259 C1277 0.930 . S
H1260 C1268 0.930 . S
H1261 C1275 0.931 . S
H1262 C1239 0.929 . S
H1263 C1269 0.930 . S
H1264 C1302 0.930 . S
H1265 C1246 0.930 . S
H1266 C1301 0.929 . S
N1267 Tb1236 2.660 . S
N1267 C1268 1.305 . S
N1267 C1272 1.360 . S
C1268 H1260 0.930 . S
C1268 N1267 1.305 . S
C1268 C1271 1.407 . S
C1269 H1263 0.930 . S
C1269 C1270 1.410 . S
C1269 C1271 1.345 . S
C1270 C1269 1.410 . S
C1270 C1272 1.417 . S
C1270 C1302 1.432 . S
C1271 H1257 0.930 . S
C1271 C1268 1.407 . S
C1271 C1269 1.345 . S
C1272 N1267 1.360 . S
C1272 C1270 1.417 . S
C1272 C1276 1.432 . S
H1273 C1278 0.930 . S
N1274 Tb1236 2.600 . S
N1274 C1276 1.359 . S
N1274 C1277 1.327 . S
C1275 H1261 0.931 . S
C1275 C1277 1.392 . S
C1275 C1278 1.370 . S
C1276 C1272 1.432 . S
C1276 N1274 1.359 . S
C1276 C1279 1.414 . S
C1277 H1259 0.930 . S
C1277 N1274 1.327 . S
C1277 C1275 1.392 . S
C1278 H1273 0.930 . S
C1278 C1275 1.370 . S
C1278 C1279 1.385 . S
C1279 C1276 1.414 . S
C1279 C1278 1.385 . S
C1279 C1301 1.444 . S
O1280 Tb1236 2.546 . S
O1280 C1300 1.251 . S
O1281 Tb1236 2.610 . S
O1281 Tb1247 2.362 . S
O1281 C1292 1.283 . S
O1282 Tb1247 2.421 . S
O1282 C1299 1.262 . S
O1283 Tb1236 2.320 . S
O1283 C1299 1.260 . S
O1284 Tb1236 2.552 . S
O1284 C1292 1.243 . S
O1285 Tb1236 2.413 . S
O1285 C1300 1.256 . S
O1286 Tb1247 2.546 . S
O1286 C1311 1.251 . S
O1287 Tb1236 2.362 . S
O1287 Tb1247 2.610 . S
O1287 C1303 1.283 . S
O1288 Tb1236 2.421 . S
O1288 C1310 1.262 . S
O1289 Tb1247 2.320 . S
O1289 C1310 1.260 . S
O1290 Tb1247 2.552 . S
O1290 C1303 1.243 . S
O1291 Tb1247 2.413 . S
O1291 C1311 1.256 . S
C1292 O1281 1.283 . S
C1292 O1284 1.243 . S
C1293 C1295 1.382 . S
C1293 C1297 1.393 . S
C1293 C1300 1.500 . S
C1294 C1295 1.400 . S
C1294 C1296 1.384 . S
C1295 C1293 1.382 . S
C1295 C1294 1.400 . S
C1295 H1312 0.930 . S
C1296 C1294 1.384 . S
C1296 C1298 1.392 . S
C1296 H1313 0.931 . S
C1297 C1293 1.393 . S
C1297 C1298 1.401 . S
C1297 H1314 0.930 . S
C1298 C1296 1.392 . S
C1298 C1297 1.401 . S
C1298 H1315 0.930 . S
C1299 O1282 1.262 . S
C1299 O1283 1.260 . S
C1300 Tb1236 2.833 . S
C1300 O1280 1.251 . S
C1300 O1285 1.256 . S
C1300 C1293 1.500 . S
C1301 H1266 0.929 . S
C1301 C1279 1.444 . S
C1301 C1302 1.317 . S
C1302 H1264 0.930 . S
C1302 C1270 1.432 . S
C1302 C1301 1.317 . S
C1303 O1287 1.283 . S
C1303 O1290 1.243 . S
C1304 C1305 1.382 . S
C1304 C1308 1.393 . S
C1304 C1311 1.500 . S
C1305 C1304 1.382 . S
C1305 C1306 1.400 . S
C1305 H1316 0.930 . S
C1306 C1305 1.400 . S
C1306 C1307 1.384 . S
C1307 C1306 1.384 . S
C1307 C1309 1.392 . S
C1307 H1317 0.931 . S
C1308 C1304 1.393 . S
C1308 C1309 1.401 . S
C1308 H1318 0.930 . S
C1309 C1307 1.392 . S
C1309 C1308 1.401 . S
C1309 H1319 0.930 . S
C1310 O1288 1.262 . S
C1310 O1289 1.260 . S
C1311 Tb1247 2.833 . S
C1311 O1286 1.251 . S
C1311 O1291 1.256 . S
C1311 C1304 1.500 . S
H1312 C1295 0.930 . S
H1313 C1296 0.931 . S
H1314 C1297 0.930 . S
H1315 C1298 0.930 . S
H1316 C1305 0.930 . S
H1317 C1307 0.931 . S
H1318 C1308 0.930 . S
H1319 C1309 0.930 . S
Tb1320 N1351 2.660 . S
Tb1320 N1358 2.600 . S
Tb1320 O1364 2.546 . S
Tb1320 O1365 2.610 . S
Tb1320 O1367 2.320 . S
Tb1320 O1368 2.552 . S
Tb1320 O1369 2.413 . S
Tb1320 O1371 2.362 . S
Tb1320 O1372 2.421 . S
Tb1320 C1384 2.833 . S
C1321 C1324 1.432 . S
C1321 C1325 1.414 . S
C1321 N1328 1.359 . S
C1322 C1324 1.417 . S
C1322 C1326 1.432 . S
C1322 C1334 1.410 . S
C1323 C1325 1.444 . S
C1323 C1326 1.317 . S
C1323 H1346 0.929 . S
C1324 C1321 1.432 . S
C1324 C1322 1.417 . S
C1324 N1332 1.360 . S
C1325 C1321 1.414 . S
C1325 C1323 1.444 . S
C1325 C1330 1.385 . S
C1326 C1322 1.432 . S
C1326 C1323 1.317 . S
C1326 H1338 0.930 . S
C1327 C1329 1.392 . S
C1327 C1330 1.370 . S
C1327 H1339 0.931 . S
N1328 C1321 1.359 . S
N1328 C1329 1.327 . S
N1328 Tb1331 2.600 . S
C1329 C1327 1.392 . S
C1329 N1328 1.327 . S
C1329 H1336 0.930 . S
C1330 C1325 1.385 . S
C1330 C1327 1.370 . S
C1330 H1349 0.930 . S
Tb1331 N1328 2.600 . S
Tb1331 N1332 2.660 . S
Tb1331 O1365 2.362 . S
Tb1331 O1366 2.421 . S
Tb1331 O1370 2.546 . S
Tb1331 O1371 2.610 . S
Tb1331 O1373 2.320 . S
Tb1331 O1374 2.552 . S
Tb1331 O1375 2.413 . S
Tb1331 C1395 2.833 . S
N1332 C1324 1.360 . S
N1332 Tb1331 2.660 . S
N1332 C1333 1.305 . S
C1333 N1332 1.305 . S
C1333 C1335 1.407 . S
C1333 H1340 0.930 . S
C1334 C1322 1.410 . S
C1334 C1335 1.345 . S
C1334 H1342 0.930 . S
C1335 C1333 1.407 . S
C1335 C1334 1.345 . S
C1335 H1337 0.930 . S
H1336 C1329 0.930 . S
H1337 C1335 0.930 . S
H1338 C1326 0.930 . S
H1339 C1327 0.931 . S
H1340 C1333 0.930 . S
H1341 C1355 0.930 . S
H1342 C1334 0.930 . S
H1343 C1361 0.930 . S
H1344 C1352 0.930 . S
H1345 C1359 0.931 . S
H1346 C1323 0.929 . S
H1347 C1353 0.930 . S
H1348 C1386 0.930 . S
H1349 C1330 0.930 . S
H1350 C1385 0.929 . S
N1351 Tb1320 2.660 . S
N1351 C1352 1.305 . S
N1351 C1356 1.360 . S
C1352 H1344 0.930 . S
C1352 N1351 1.305 . S
C1352 C1355 1.407 . S
C1353 H1347 0.930 . S
C1353 C1354 1.410 . S
C1353 C1355 1.345 . S
C1354 C1353 1.410 . S
C1354 C1356 1.417 . S
C1354 C1386 1.432 . S
C1355 H1341 0.930 . S
C1355 C1352 1.407 . S
C1355 C1353 1.345 . S
C1356 N1351 1.360 . S
C1356 C1354 1.417 . S
C1356 C1360 1.432 . S
H1357 C1362 0.930 . S
N1358 Tb1320 2.600 . S
N1358 C1360 1.359 . S
N1358 C1361 1.327 . S
C1359 H1345 0.931 . S
C1359 C1361 1.392 . S
C1359 C1362 1.370 . S
C1360 C1356 1.432 . S
C1360 N1358 1.359 . S
C1360 C1363 1.414 . S
C1361 H1343 0.930 . S
C1361 N1358 1.327 . S
C1361 C1359 1.392 . S
C1362 H1357 0.930 . S
C1362 C1359 1.370 . S
C1362 C1363 1.385 . S
C1363 C1360 1.414 . S
C1363 C1362 1.385 . S
C1363 C1385 1.444 . S
O1364 Tb1320 2.546 . S
O1364 C1384 1.251 . S
O1365 Tb1320 2.610 . S
O1365 Tb1331 2.362 . S
O1365 C1376 1.283 . S
O1366 Tb1331 2.421 . S
O1366 C1383 1.262 . S
O1367 Tb1320 2.320 . S
O1367 C1383 1.260 . S
O1368 Tb1320 2.552 . S
O1368 C1376 1.243 . S
O1369 Tb1320 2.413 . S
O1369 C1384 1.256 . S
O1370 Tb1331 2.546 . S
O1370 C1395 1.251 . S
O1371 Tb1320 2.362 . S
O1371 Tb1331 2.610 . S
O1371 C1387 1.283 . S
O1372 Tb1320 2.421 . S
O1372 C1394 1.262 . S
O1373 Tb1331 2.320 . S
O1373 C1394 1.260 . S
O1374 Tb1331 2.552 . S
O1374 C1387 1.243 . S
O1375 Tb1331 2.413 . S
O1375 C1395 1.256 . S
C1376 O1365 1.283 . S
C1376 O1368 1.243 . S
C1377 C1379 1.382 . S
C1377 C1381 1.393 . S
C1377 C1384 1.500 . S
C1378 C1379 1.400 . S
C1378 C1380 1.384 . S
C1379 C1377 1.382 . S
C1379 C1378 1.400 . S
C1379 H1396 0.930 . S
C1380 C1378 1.384 . S
C1380 C1382 1.392 . S
C1380 H1397 0.931 . S
C1381 C1377 1.393 . S
C1381 C1382 1.401 . S
C1381 H1398 0.930 . S
C1382 C1380 1.392 . S
C1382 C1381 1.401 . S
C1382 H1399 0.930 . S
C1383 O1366 1.262 . S
C1383 O1367 1.260 . S
C1384 Tb1320 2.833 . S
C1384 O1364 1.251 . S
C1384 O1369 1.256 . S
C1384 C1377 1.500 . S
C1385 H1350 0.929 . S
C1385 C1363 1.444 . S
C1385 C1386 1.317 . S
C1386 H1348 0.930 . S
C1386 C1354 1.432 . S
C1386 C1385 1.317 . S
C1387 O1371 1.283 . S
C1387 O1374 1.243 . S
C1388 C1389 1.382 . S
C1388 C1392 1.393 . S
C1388 C1395 1.500 . S
C1389 C1388 1.382 . S
C1389 C1390 1.400 . S
C1389 H1400 0.930 . S
C1390 C1389 1.400 . S
C1390 C1391 1.384 . S
C1391 C1390 1.384 . S
C1391 C1393 1.392 . S
C1391 H1401 0.931 . S
C1392 C1388 1.393 . S
C1392 C1393 1.401 . S
C1392 H1402 0.930 . S
C1393 C1391 1.392 . S
C1393 C1392 1.401 . S
C1393 H1403 0.930 . S
C1394 O1372 1.262 . S
C1394 O1373 1.260 . S
C1395 Tb1331 2.833 . S
C1395 O1370 1.251 . S
C1395 O1375 1.256 . S
C1395 C1388 1.500 . S
H1396 C1379 0.930 . S
H1397 C1380 0.931 . S
H1398 C1381 0.930 . S
H1399 C1382 0.930 . S
H1400 C1389 0.930 . S
H1401 C1391 0.931 . S
H1402 C1392 0.930 . S
H1403 C1393 0.930 . S
Tb1404 N1435 2.660 . S
Tb1404 N1442 2.600 . S
Tb1404 O1448 2.546 . S
Tb1404 O1449 2.610 . S
Tb1404 O1451 2.320 . S
Tb1404 O1452 2.552 . S
Tb1404 O1453 2.413 . S
Tb1404 O1455 2.362 . S
Tb1404 O1456 2.421 . S
Tb1404 C1468 2.833 . S
C1405 C1408 1.432 . S
C1405 C1409 1.414 . S
C1405 N1412 1.359 . S
C1406 C1408 1.417 . S
C1406 C1410 1.432 . S
C1406 C1418 1.410 . S
C1407 C1409 1.444 . S
C1407 C1410 1.317 . S
C1407 H1430 0.929 . S
C1408 C1405 1.432 . S
C1408 C1406 1.417 . S
C1408 N1416 1.360 . S
C1409 C1405 1.414 . S
C1409 C1407 1.444 . S
C1409 C1414 1.385 . S
C1410 C1406 1.432 . S
C1410 C1407 1.317 . S
C1410 H1422 0.930 . S
C1411 C1413 1.392 . S
C1411 C1414 1.370 . S
C1411 H1423 0.931 . S
N1412 C1405 1.359 . S
N1412 C1413 1.327 . S
N1412 Tb1415 2.600 . S
C1413 C1411 1.392 . S
C1413 N1412 1.327 . S
C1413 H1420 0.930 . S
C1414 C1409 1.385 . S
C1414 C1411 1.370 . S
C1414 H1433 0.930 . S
Tb1415 N1412 2.600 . S
Tb1415 N1416 2.660 . S
Tb1415 O1449 2.362 . S
Tb1415 O1450 2.421 . S
Tb1415 O1454 2.546 . S
Tb1415 O1455 2.610 . S
Tb1415 O1457 2.320 . S
Tb1415 O1458 2.552 . S
Tb1415 O1459 2.413 . S
Tb1415 C1479 2.833 . S
N1416 C1408 1.360 . S
N1416 Tb1415 2.660 . S
N1416 C1417 1.305 . S
C1417 N1416 1.305 . S
C1417 C1419 1.407 . S
C1417 H1424 0.930 . S
C1418 C1406 1.410 . S
C1418 C1419 1.345 . S
C1418 H1426 0.930 . S
C1419 C1417 1.407 . S
C1419 C1418 1.345 . S
C1419 H1421 0.930 . S
H1420 C1413 0.930 . S
H1421 C1419 0.930 . S
H1422 C1410 0.930 . S
H1423 C1411 0.931 . S
H1424 C1417 0.930 . S
H1425 C1439 0.930 . S
H1426 C1418 0.930 . S
H1427 C1445 0.930 . S
H1428 C1436 0.930 . S
H1429 C1443 0.931 . S
H1430 C1407 0.929 . S
H1431 C1437 0.930 . S
H1432 C1470 0.930 . S
H1433 C1414 0.930 . S
H1434 C1469 0.929 . S
N1435 Tb1404 2.660 . S
N1435 C1436 1.305 . S
N1435 C1440 1.360 . S
C1436 H1428 0.930 . S
C1436 N1435 1.305 . S
C1436 C1439 1.407 . S
C1437 H1431 0.930 . S
C1437 C1438 1.410 . S
C1437 C1439 1.345 . S
C1438 C1437 1.410 . S
C1438 C1440 1.417 . S
C1438 C1470 1.432 . S
C1439 H1425 0.930 . S
C1439 C1436 1.407 . S
C1439 C1437 1.345 . S
C1440 N1435 1.360 . S
C1440 C1438 1.417 . S
C1440 C1444 1.432 . S
H1441 C1446 0.930 . S
N1442 Tb1404 2.600 . S
N1442 C1444 1.359 . S
N1442 C1445 1.327 . S
C1443 H1429 0.931 . S
C1443 C1445 1.392 . S
C1443 C1446 1.370 . S
C1444 C1440 1.432 . S
C1444 N1442 1.359 . S
C1444 C1447 1.414 . S
C1445 H1427 0.930 . S
C1445 N1442 1.327 . S
C1445 C1443 1.392 . S
C1446 H1441 0.930 . S
C1446 C1443 1.370 . S
C1446 C1447 1.385 . S
C1447 C1444 1.414 . S
C1447 C1446 1.385 . S
C1447 C1469 1.444 . S
O1448 Tb1404 2.546 . S
O1448 C1468 1.251 . S
O1449 Tb1404 2.610 . S
O1449 Tb1415 2.362 . S
O1449 C1460 1.283 . S
O1450 Tb1415 2.421 . S
O1450 C1467 1.262 . S
O1451 Tb1404 2.320 . S
O1451 C1467 1.260 . S
O1452 Tb1404 2.552 . S
O1452 C1460 1.243 . S
O1453 Tb1404 2.413 . S
O1453 C1468 1.256 . S
O1454 Tb1415 2.546 . S
O1454 C1479 1.251 . S
O1455 Tb1404 2.362 . S
O1455 Tb1415 2.610 . S
O1455 C1471 1.283 . S
O1456 Tb1404 2.421 . S
O1456 C1478 1.262 . S
O1457 Tb1415 2.320 . S
O1457 C1478 1.260 . S
O1458 Tb1415 2.552 . S
O1458 C1471 1.243 . S
O1459 Tb1415 2.413 . S
O1459 C1479 1.256 . S
C1460 O1449 1.283 . S
C1460 O1452 1.243 . S
C1461 C1463 1.382 . S
C1461 C1465 1.393 . S
C1461 C1468 1.500 . S
C1462 C1463 1.400 . S
C1462 C1464 1.384 . S
C1463 C1461 1.382 . S
C1463 C1462 1.400 . S
C1463 H1480 0.930 . S
C1464 C1462 1.384 . S
C1464 C1466 1.392 . S
C1464 H1481 0.931 . S
C1465 C1461 1.393 . S
C1465 C1466 1.401 . S
C1465 H1482 0.930 . S
C1466 C1464 1.392 . S
C1466 C1465 1.401 . S
C1466 H1483 0.930 . S
C1467 O1450 1.262 . S
C1467 O1451 1.260 . S
C1468 Tb1404 2.833 . S
C1468 O1448 1.251 . S
C1468 O1453 1.256 . S
C1468 C1461 1.500 . S
C1469 H1434 0.929 . S
C1469 C1447 1.444 . S
C1469 C1470 1.317 . S
C1470 H1432 0.930 . S
C1470 C1438 1.432 . S
C1470 C1469 1.317 . S
C1471 O1455 1.283 . S
C1471 O1458 1.243 . S
C1472 C1473 1.382 . S
C1472 C1476 1.393 . S
C1472 C1479 1.500 . S
C1473 C1472 1.382 . S
C1473 C1474 1.400 . S
C1473 H1484 0.930 . S
C1474 C1473 1.400 . S
C1474 C1475 1.384 . S
C1475 C1474 1.384 . S
C1475 C1477 1.392 . S
C1475 H1485 0.931 . S
C1476 C1472 1.393 . S
C1476 C1477 1.401 . S
C1476 H1486 0.930 . S
C1477 C1475 1.392 . S
C1477 C1476 1.401 . S
C1477 H1487 0.930 . S
C1478 O1456 1.262 . S
C1478 O1457 1.260 . S
C1479 Tb1415 2.833 . S
C1479 O1454 1.251 . S
C1479 O1459 1.256 . S
C1479 C1472 1.500 . S
H1480 C1463 0.930 . S
H1481 C1464 0.931 . S
H1482 C1465 0.930 . S
H1483 C1466 0.930 . S
H1484 C1473 0.930 . S
H1485 C1475 0.931 . S
H1486 C1476 0.930 . S
H1487 C1477 0.930 . S
Tb1488 N1519 2.660 . S
Tb1488 N1526 2.600 . S
Tb1488 O1532 2.546 . S
Tb1488 O1533 2.610 . S
Tb1488 O1535 2.320 . S
Tb1488 O1536 2.552 . S
Tb1488 O1537 2.413 . S
Tb1488 O1539 2.362 . S
Tb1488 O1540 2.421 . S
Tb1488 C1552 2.833 . S
C1489 C1492 1.432 . S
C1489 C1493 1.414 . S
C1489 N1496 1.359 . S
C1490 C1492 1.417 . S
C1490 C1494 1.432 . S
C1490 C1502 1.410 . S
C1491 C1493 1.444 . S
C1491 C1494 1.317 . S
C1491 H1514 0.929 . S
C1492 C1489 1.432 . S
C1492 C1490 1.417 . S
C1492 N1500 1.360 . S
C1493 C1489 1.414 . S
C1493 C1491 1.444 . S
C1493 C1498 1.385 . S
C1494 C1490 1.432 . S
C1494 C1491 1.317 . S
C1494 H1506 0.930 . S
C1495 C1497 1.392 . S
C1495 C1498 1.370 . S
C1495 H1507 0.931 . S
N1496 C1489 1.359 . S
N1496 C1497 1.327 . S
N1496 Tb1499 2.600 . S
C1497 C1495 1.392 . S
C1497 N1496 1.327 . S
C1497 H1504 0.930 . S
C1498 C1493 1.385 . S
C1498 C1495 1.370 . S
C1498 H1517 0.930 . S
Tb1499 N1496 2.600 . S
Tb1499 N1500 2.660 . S
Tb1499 O1533 2.362 . S
Tb1499 O1534 2.421 . S
Tb1499 O1538 2.546 . S
Tb1499 O1539 2.610 . S
Tb1499 O1541 2.320 . S
Tb1499 O1542 2.552 . S
Tb1499 O1543 2.413 . S
Tb1499 C1563 2.833 . S
N1500 C1492 1.360 . S
N1500 Tb1499 2.660 . S
N1500 C1501 1.305 . S
C1501 N1500 1.305 . S
C1501 C1503 1.407 . S
C1501 H1508 0.930 . S
C1502 C1490 1.410 . S
C1502 C1503 1.345 . S
C1502 H1510 0.930 . S
C1503 C1501 1.407 . S
C1503 C1502 1.345 . S
C1503 H1505 0.930 . S
H1504 C1497 0.930 . S
H1505 C1503 0.930 . S
H1506 C1494 0.930 . S
H1507 C1495 0.931 . S
H1508 C1501 0.930 . S
H1509 C1523 0.930 . S
H1510 C1502 0.930 . S
H1511 C1529 0.930 . S
H1512 C1520 0.930 . S
H1513 C1527 0.931 . S
H1514 C1491 0.929 . S
H1515 C1521 0.930 . S
H1516 C1554 0.930 . S
H1517 C1498 0.930 . S
H1518 C1553 0.929 . S
N1519 Tb1488 2.660 . S
N1519 C1520 1.305 . S
N1519 C1524 1.360 . S
C1520 H1512 0.930 . S
C1520 N1519 1.305 . S
C1520 C1523 1.407 . S
C1521 H1515 0.930 . S
C1521 C1522 1.410 . S
C1521 C1523 1.345 . S
C1522 C1521 1.410 . S
C1522 C1524 1.417 . S
C1522 C1554 1.432 . S
C1523 H1509 0.930 . S
C1523 C1520 1.407 . S
C1523 C1521 1.345 . S
C1524 N1519 1.360 . S
C1524 C1522 1.417 . S
C1524 C1528 1.432 . S
H1525 C1530 0.930 . S
N1526 Tb1488 2.600 . S
N1526 C1528 1.359 . S
N1526 C1529 1.327 . S
C1527 H1513 0.931 . S
C1527 C1529 1.392 . S
C1527 C1530 1.370 . S
C1528 C1524 1.432 . S
C1528 N1526 1.359 . S
C1528 C1531 1.414 . S
C1529 H1511 0.930 . S
C1529 N1526 1.327 . S
C1529 C1527 1.392 . S
C1530 H1525 0.930 . S
C1530 C1527 1.370 . S
C1530 C1531 1.385 . S
C1531 C1528 1.414 . S
C1531 C1530 1.385 . S
C1531 C1553 1.444 . S
O1532 Tb1488 2.546 . S
O1532 C1552 1.251 . S
O1533 Tb1488 2.610 . S
O1533 Tb1499 2.362 . S
O1533 C1544 1.283 . S
O1534 Tb1499 2.421 . S
O1534 C1551 1.262 . S
O1535 Tb1488 2.320 . S
O1535 C1551 1.260 . S
O1536 Tb1488 2.552 . S
O1536 C1544 1.243 . S
O1537 Tb1488 2.413 . S
O1537 C1552 1.256 . S
O1538 Tb1499 2.546 . S
O1538 C1563 1.251 . S
O1539 Tb1488 2.362 . S
O1539 Tb1499 2.610 . S
O1539 C1555 1.283 . S
O1540 Tb1488 2.421 . S
O1540 C1562 1.262 . S
O1541 Tb1499 2.320 . S
O1541 C1562 1.260 . S
O1542 Tb1499 2.552 . S
O1542 C1555 1.243 . S
O1543 Tb1499 2.413 . S
O1543 C1563 1.256 . S
C1544 O1533 1.283 . S
C1544 O1536 1.243 . S
C1545 C1547 1.382 . S
C1545 C1549 1.393 . S
C1545 C1552 1.500 . S
C1546 C1547 1.400 . S
C1546 C1548 1.384 . S
C1547 C1545 1.382 . S
C1547 C1546 1.400 . S
C1547 H1564 0.930 . S
C1548 C1546 1.384 . S
C1548 C1550 1.392 . S
C1548 H1565 0.931 . S
C1549 C1545 1.393 . S
C1549 C1550 1.401 . S
C1549 H1566 0.930 . S
C1550 C1548 1.392 . S
C1550 C1549 1.401 . S
C1550 H1567 0.930 . S
C1551 O1534 1.262 . S
C1551 O1535 1.260 . S
C1552 Tb1488 2.833 . S
C1552 O1532 1.251 . S
C1552 O1537 1.256 . S
C1552 C1545 1.500 . S
C1553 H1518 0.929 . S
C1553 C1531 1.444 . S
C1553 C1554 1.317 . S
C1554 H1516 0.930 . S
C1554 C1522 1.432 . S
C1554 C1553 1.317 . S
C1555 O1539 1.283 . S
C1555 O1542 1.243 . S
C1556 C1557 1.382 . S
C1556 C1560 1.393 . S
C1556 C1563 1.500 . S
C1557 C1556 1.382 . S
C1557 C1558 1.400 . S
C1557 H1568 0.930 . S
C1558 C1557 1.400 . S
C1558 C1559 1.384 . S
C1559 C1558 1.384 . S
C1559 C1561 1.392 . S
C1559 H1569 0.931 . S
C1560 C1556 1.393 . S
C1560 C1561 1.401 . S
C1560 H1570 0.930 . S
C1561 C1559 1.392 . S
C1561 C1560 1.401 . S
C1561 H1571 0.930 . S
C1562 O1540 1.262 . S
C1562 O1541 1.260 . S
C1563 Tb1499 2.833 . S
C1563 O1538 1.251 . S
C1563 O1543 1.256 . S
C1563 C1556 1.500 . S
H1564 C1547 0.930 . S
H1565 C1548 0.931 . S
H1566 C1549 0.930 . S
H1567 C1550 0.930 . S
H1568 C1557 0.930 . S
H1569 C1559 0.931 . S
H1570 C1560 0.930 . S
H1571 C1561 0.930 . S
Tb1572 N1603 2.660 . S
Tb1572 N1610 2.600 1_554 S
Tb1572 O1616 2.546 1_554 S
Tb1572 O1617 2.610 . S
Tb1572 O1619 2.320 . S
Tb1572 O1620 2.552 . S
Tb1572 O1621 2.413 . S
Tb1572 O1623 2.362 . S
Tb1572 O1624 2.421 1_554 S
Tb1572 C1636 2.833 . S
C1573 C1576 1.432 . S
C1573 C1577 1.414 . S
C1573 N1580 1.359 . S
C1574 C1576 1.417 . S
C1574 C1578 1.432 . S
C1574 C1586 1.410 . S
C1575 C1577 1.444 . S
C1575 C1578 1.317 . S
C1575 H1598 0.929 . S
C1576 C1573 1.432 . S
C1576 C1574 1.417 . S
C1576 N1584 1.360 . S
C1577 C1573 1.414 . S
C1577 C1575 1.444 . S
C1577 C1582 1.385 . S
C1578 C1574 1.432 . S
C1578 C1575 1.317 . S
C1578 H1590 0.930 . S
C1579 C1581 1.392 1_655 S
C1579 C1582 1.370 . S
C1579 H1591 0.931 . S
N1580 C1573 1.359 . S
N1580 C1581 1.327 1_655 S
N1580 Tb1583 2.600 1_655 S
C1581 C1579 1.392 1_455 S
C1581 N1580 1.327 1_455 S
C1581 H1588 0.930 . S
C1582 C1577 1.385 . S
C1582 C1579 1.370 . S
C1582 H1601 0.930 . S
Tb1583 N1580 2.600 1_455 S
Tb1583 N1584 2.660 1_455 S
Tb1583 O1617 2.362 . S
Tb1583 O1618 2.421 . S
Tb1583 O1622 2.546 1_455 S
Tb1583 O1623 2.610 . S
Tb1583 O1625 2.320 . S
Tb1583 O1626 2.552 . S
Tb1583 O1627 2.413 1_455 S
Tb1583 C1647 2.833 1_455 S
N1584 C1576 1.360 . S
N1584 Tb1583 2.660 1_655 S
N1584 C1585 1.305 . S
C1585 N1584 1.305 . S
C1585 C1587 1.407 1_554 S
C1585 H1592 0.905 1_554 S
C1586 C1574 1.410 . S
C1586 C1587 1.345 1_554 S
C1586 H1594 0.930 . S
C1587 C1585 1.407 1_556 S
C1587 C1586 1.345 1_556 S
C1587 H1589 0.930 . S
H1588 C1581 0.930 . S
H1589 C1587 0.930 . S
H1590 C1578 0.930 . S
H1591 C1579 0.931 . S
H1592 C1585 0.905 1_556 S
H1593 C1607 0.930 . S
H1594 C1586 0.930 . S
H1595 C1613 0.930 . S
H1596 C1604 0.930 . S
H1597 C1611 0.931 . S
H1598 C1575 0.929 . S
H1599 C1605 0.930 . S
H1600 C1638 0.930 . S
H1601 C1582 0.930 . S
H1602 C1637 0.929 1_556 S
N1603 Tb1572 2.660 . S
N1603 C1604 1.305 . S
N1603 C1608 1.360 . S
C1604 H1596 0.930 . S
C1604 N1603 1.305 . S
C1604 C1607 1.407 . S
C1605 H1599 0.930 . S
C1605 C1606 1.410 . S
C1605 C1607 1.345 . S
C1606 C1605 1.410 . S
C1606 C1608 1.417 . S
C1606 C1638 1.432 . S
C1607 H1593 0.930 . S
C1607 C1604 1.407 . S
C1607 C1605 1.345 . S
C1608 N1603 1.360 . S
C1608 C1606 1.417 . S
C1608 C1612 1.432 . S
H1609 C1614 0.930 . S
N1610 Tb1572 2.600 1_556 S
N1610 C1612 1.359 1_556 S
N1610 C1613 1.327 . S
C1611 H1597 0.931 . S
C1611 C1613 1.392 . S
C1611 C1614 1.370 . S
C1612 C1608 1.432 . S
C1612 N1610 1.359 1_554 S
C1612 C1615 1.414 1_554 S
C1613 H1595 0.930 . S
C1613 N1610 1.327 . S
C1613 C1611 1.392 . S
C1614 H1609 0.930 . S
C1614 C1611 1.370 . S
C1614 C1615 1.385 . S
C1615 C1612 1.414 1_556 S
C1615 C1614 1.385 . S
C1615 C1637 1.444 1_556 S
O1616 Tb1572 2.546 1_556 S
O1616 C1636 1.251 1_556 S
O1617 Tb1572 2.610 . S
O1617 Tb1583 2.362 . S
O1617 C1628 1.283 . S
O1618 Tb1583 2.421 . S
O1618 C1635 1.262 . S
O1619 Tb1572 2.320 . S
O1619 C1635 1.260 . S
O1620 Tb1572 2.552 . S
O1620 C1628 1.243 . S
O1621 Tb1572 2.413 . S
O1621 C1636 1.256 . S
O1622 Tb1583 2.546 1_655 S
O1622 C1647 1.251 . S
O1623 Tb1572 2.362 . S
O1623 Tb1583 2.610 . S
O1623 C1639 1.283 . S
O1624 Tb1572 2.421 1_556 S
O1624 C1646 1.262 . S
O1625 Tb1583 2.320 . S
O1625 C1646 1.260 1_554 S
O1626 Tb1583 2.552 . S
O1626 C1639 1.243 . S
O1627 Tb1583 2.413 1_655 S
O1627 C1647 1.256 . S
C1628 O1617 1.283 . S
C1628 O1620 1.243 . S
C1629 C1631 1.382 . S
C1629 C1633 1.393 1_554 S
C1629 C1636 1.500 . S
C1630 C1631 1.400 . S
C1630 C1632 1.384 1_554 S
C1631 C1629 1.382 . S
C1631 C1630 1.400 . S
C1631 H1648 0.930 . S
C1632 C1630 1.384 1_556 S
C1632 C1634 1.392 . S
C1632 H1649 0.931 . S
C1633 C1629 1.393 1_556 S
C1633 C1634 1.401 . S
C1633 H1650 0.930 . S
C1634 C1632 1.392 . S
C1634 C1633 1.401 . S
C1634 H1651 0.930 . S
C1635 O1618 1.262 . S
C1635 O1619 1.260 . S
C1636 Tb1572 2.833 . S
C1636 O1616 1.251 1_554 S
C1636 O1621 1.256 . S
C1636 C1629 1.500 . S
C1637 H1602 0.929 1_554 S
C1637 C1615 1.444 1_554 S
C1637 C1638 1.317 . S
C1638 H1600 0.930 . S
C1638 C1606 1.432 . S
C1638 C1637 1.317 . S
C1639 O1623 1.283 . S
C1639 O1626 1.243 . S
C1640 C1641 1.382 . S
C1640 C1644 1.393 . S
C1640 C1647 1.500 . S
C1641 C1640 1.382 . S
C1641 C1642 1.400 . S
C1641 H1652 0.930 . S
C1642 C1641 1.400 . S
C1642 C1643 1.384 . S
C1643 C1642 1.384 . S
C1643 C1645 1.392 . S
C1643 H1653 0.931 . S
C1644 C1640 1.393 . S
C1644 C1645 1.401 . S
C1644 H1654 0.930 . S
C1645 C1643 1.392 . S
C1645 C1644 1.401 . S
C1645 H1655 0.930 . S
C1646 O1624 1.262 . S
C1646 O1625 1.260 1_556 S
C1647 Tb1583 2.833 1_655 S
C1647 O1622 1.251 . S
C1647 O1627 1.256 . S
C1647 C1640 1.500 . S
H1648 C1631 0.930 . S
H1649 C1632 0.931 . S
H1650 C1633 0.930 . S
H1651 C1634 0.930 . S
H1652 C1641 0.930 . S
H1653 C1643 0.931 . S
H1654 C1644 0.930 . S
H1655 C1645 0.930 . S
H1656 C1664 0.929 . S
H1657 C1666 0.930 . S
H1658 C1668 0.930 . S
H1659 C1671 0.929 . S
H1660 C1674 0.930 . S
H1661 C1676 0.960 . S
H1662 C1676 0.960 . S
H1663 C1676 0.960 . S
C1664 H1656 0.929 . S
C1664 C1665 1.377 . S
C1664 C1666 1.384 . S
C1665 C1664 1.377 . S
C1665 C1671 1.390 . S
C1666 H1657 0.930 . S
C1666 C1664 1.384 . S
C1666 C1667 1.372 . S
C1667 C1666 1.372 . S
C1667 C1668 1.400 . S
C1667 C1672 1.490 . S
C1668 H1658 0.930 . S
C1668 C1667 1.400 . S
C1668 C1671 1.386 . S
H1669 C1685 0.930 . S
H1670 C1686 0.931 . S
C1671 H1659 0.929 . S
C1671 C1665 1.390 . S
C1671 C1668 1.386 . S
C1672 C1667 1.490 . S
C1672 C1674 1.395 . S
C1672 C1675 1.344 1_556 S
H1673 C1679 0.930 . S
C1674 H1660 0.930 . S
C1674 C1672 1.395 . S
C1674 C1677 1.403 . S
C1675 C1672 1.344 1_554 S
C1675 C1676 1.555 . S
C1675 C1679 1.429 . S
C1676 H1661 0.960 . S
C1676 H1662 0.960 . S
C1676 H1663 0.960 . S
C1676 C1675 1.555 . S
C1677 C1674 1.403 . S
C1677 C1678 1.392 . S
C1677 C1681 1.495 . S
C1678 C1677 1.392 . S
C1678 C1679 1.385 1_556 S
C1678 C1680 1.478 1_556 S
C1679 H1673 0.930 . S
C1679 C1675 1.429 . S
C1679 C1678 1.385 1_554 S
C1680 C1678 1.478 1_554 S
C1680 C1682 1.383 . S
C1680 C1686 1.383 . S
C1681 C1677 1.495 . S
C1681 H1687 0.959 . S
C1681 H1688 0.961 . S
C1681 H1689 0.960 . S
C1682 C1680 1.383 . S
C1682 C1683 1.411 . S
C1682 H1690 0.912 1_554 S
C1683 C1682 1.411 . S
C1683 C1684 1.383 . S
C1683 H1691 0.929 . S
C1684 C1683 1.383 . S
C1684 C1685 1.377 . S
C1685 H1669 0.930 . S
C1685 C1684 1.377 . S
C1685 C1686 1.379 . S
C1686 H1670 0.931 . S
C1686 C1680 1.383 . S
C1686 C1685 1.379 . S
H1687 C1681 0.959 . S
H1688 C1681 0.961 . S
H1689 C1681 0.960 . S
H1690 C1682 0.912 1_556 S
H1691 C1683 0.929 . S
H1692 C1700 0.929 . S
H1693 C1702 0.930 . S
H1694 C1704 0.930 . S
H1695 C1707 0.929 . S
H1696 C1710 0.930 . S
H1697 C1712 0.960 . S
H1698 C1712 0.960 . S
H1699 C1712 0.960 . S
C1700 H1692 0.929 . S
C1700 C1701 1.377 . S
C1700 C1702 1.384 . S
C1701 C1700 1.377 . S
C1701 C1707 1.390 . S
C1702 H1693 0.930 . S
C1702 C1700 1.384 . S
C1702 C1703 1.372 . S
C1703 C1702 1.372 . S
C1703 C1704 1.400 . S
C1703 C1708 1.490 . S
C1704 H1694 0.930 . S
C1704 C1703 1.400 . S
C1704 C1707 1.386 . S
H1705 C1721 0.930 . S
H1706 C1722 0.931 . S
C1707 H1695 0.929 . S
C1707 C1701 1.390 . S
C1707 C1704 1.386 . S
C1708 C1703 1.490 . S
C1708 C1710 1.395 . S
C1708 C1711 1.403 . S
H1709 C1715 0.930 . S
C1710 H1696 0.930 . S
C1710 C1708 1.395 . S
C1710 C1713 1.403 . S
C1711 C1708 1.403 . S
C1711 C1712 1.524 . S
C1711 C1715 1.400 . S
C1712 H1697 0.960 . S
C1712 H1698 0.960 . S
C1712 H1699 0.960 . S
C1712 C1711 1.524 . S
C1713 C1710 1.403 . S
C1713 C1714 1.392 . S
C1713 C1717 1.495 . S
C1714 C1713 1.392 . S
C1714 C1715 1.385 . S
C1714 C1716 1.478 . S
C1715 H1709 0.930 . S
C1715 C1711 1.400 . S
C1715 C1714 1.385 . S
C1716 C1714 1.478 . S
C1716 C1718 1.381 . S
C1716 C1722 1.383 . S
C1717 C1713 1.495 . S
C1717 H1723 0.959 . S
C1717 H1724 0.961 . S
C1717 H1725 0.960 . S
C1718 C1716 1.381 . S
C1718 C1719 1.394 . S
C1718 H1726 0.930 . S
C1719 C1718 1.394 . S
C1719 C1720 1.383 . S
C1719 H1727 0.929 . S
C1720 C1719 1.383 . S
C1720 C1721 1.377 . S
C1721 H1705 0.930 . S
C1721 C1720 1.377 . S
C1721 C1722 1.379 . S
C1722 H1706 0.931 . S
C1722 C1716 1.383 . S
C1722 C1721 1.379 . S
H1723 C1717 0.959 . S
H1724 C1717 0.961 . S
H1725 C1717 0.960 . S
H1726 C1718 0.930 . S
H1727 C1719 0.929 . S
H1728 C1736 0.929 . S
H1729 C1738 0.930 . S
H1730 C1740 0.930 . S
H1731 C1743 0.929 . S
H1732 C1746 0.930 . S
H1733 C1748 0.960 . S
H1734 C1748 0.960 . S
H1735 C1748 0.960 . S
C1736 H1728 0.929 . S
C1736 C1737 1.377 . S
C1736 C1738 1.384 . S
C1737 C1736 1.377 . S
C1737 C1743 1.390 . S
C1738 H1729 0.930 . S
C1738 C1736 1.384 . S
C1738 C1739 1.372 . S
C1739 C1738 1.372 . S
C1739 C1740 1.400 . S
C1739 C1744 1.490 . S
C1740 H1730 0.930 . S
C1740 C1739 1.400 . S
C1740 C1743 1.386 . S
H1741 C1757 0.930 . S
H1742 C1758 0.931 . S
C1743 H1731 0.929 . S
C1743 C1737 1.390 . S
C1743 C1740 1.386 . S
C1744 C1739 1.490 . S
C1744 C1746 1.395 . S
C1744 C1747 1.403 . S
H1745 C1751 0.930 . S
C1746 H1732 0.930 . S
C1746 C1744 1.395 . S
C1746 C1749 1.403 . S
C1747 C1744 1.403 . S
C1747 C1748 1.524 . S
C1747 C1751 1.400 . S
C1748 H1733 0.960 . S
C1748 H1734 0.960 . S
C1748 H1735 0.960 . S
C1748 C1747 1.524 . S
C1749 C1746 1.403 . S
C1749 C1750 1.392 . S
C1749 C1753 1.495 . S
C1750 C1749 1.392 . S
C1750 C1751 1.385 . S
C1750 C1752 1.478 . S
C1751 H1745 0.930 . S
C1751 C1747 1.400 . S
C1751 C1750 1.385 . S
C1752 C1750 1.478 . S
C1752 C1754 1.381 . S
C1752 C1758 1.383 . S
C1753 C1749 1.495 . S
C1753 H1759 0.959 . S
C1753 H1760 0.961 . S
C1753 H1761 0.960 . S
C1754 C1752 1.381 . S
C1754 C1755 1.394 . S
C1754 H1762 0.930 . S
C1755 C1754 1.394 . S
C1755 C1756 1.383 . S
C1755 H1763 0.929 . S
C1756 C1755 1.383 . S
C1756 C1757 1.377 . S
C1757 H1741 0.930 . S
C1757 C1756 1.377 . S
C1757 C1758 1.379 . S
C1758 H1742 0.931 . S
C1758 C1752 1.383 . S
C1758 C1757 1.379 . S
H1759 C1753 0.959 . S
H1760 C1753 0.961 . S
H1761 C1753 0.960 . S
H1762 C1754 0.930 . S
H1763 C1755 0.929 . S
H1764 C1772 0.929 . S
H1765 C1774 0.930 . S
H1766 C1776 0.930 . S
H1767 C1779 0.929 . S
H1768 C1782 0.930 . S
H1769 C1784 0.960 . S
H1770 C1784 0.960 . S
H1771 C1784 0.960 . S
C1772 H1764 0.929 . S
C1772 C1773 1.377 . S
C1772 C1774 1.384 . S
C1773 C1772 1.377 . S
C1773 C1779 1.390 . S
C1774 H1765 0.930 . S
C1774 C1772 1.384 . S
C1774 C1775 1.372 . S
C1775 C1774 1.372 . S
C1775 C1776 1.400 . S
C1775 C1780 1.490 . S
C1776 H1766 0.930 . S
C1776 C1775 1.400 . S
C1776 C1779 1.386 . S
H1777 C1793 0.930 . S
H1778 C1794 0.931 . S
C1779 H1767 0.929 . S
C1779 C1773 1.390 . S
C1779 C1776 1.386 . S
C1780 C1775 1.490 . S
C1780 C1782 1.395 . S
C1780 C1783 1.403 . S
H1781 C1787 0.930 . S
C1782 H1768 0.930 . S
C1782 C1780 1.395 . S
C1782 C1785 1.403 . S
C1783 C1780 1.403 . S
C1783 C1784 1.524 . S
C1783 C1787 1.400 . S
C1784 H1769 0.960 . S
C1784 H1770 0.960 . S
C1784 H1771 0.960 . S
C1784 C1783 1.524 . S
C1785 C1782 1.403 . S
C1785 C1786 1.392 . S
C1785 C1789 1.495 . S
C1786 C1785 1.392 . S
C1786 C1787 1.385 . S
C1786 C1788 1.478 . S
C1787 H1781 0.930 . S
C1787 C1783 1.400 . S
C1787 C1786 1.385 . S
C1788 C1786 1.478 . S
C1788 C1790 1.381 . S
C1788 C1794 1.383 . S
C1789 C1785 1.495 . S
C1789 H1795 0.959 . S
C1789 H1796 0.961 . S
C1789 H1797 0.960 . S
C1790 C1788 1.381 . S
C1790 C1791 1.394 . S
C1790 H1798 0.930 . S
C1791 C1790 1.394 . S
C1791 C1792 1.383 . S
C1791 H1799 0.929 . S
C1792 C1791 1.383 . S
C1792 C1793 1.377 . S
C1793 H1777 0.930 . S
C1793 C1792 1.377 . S
C1793 C1794 1.379 . S
C1794 H1778 0.931 . S
C1794 C1788 1.383 . S
C1794 C1793 1.379 . S
H1795 C1789 0.959 . S
H1796 C1789 0.961 . S
H1797 C1789 0.960 . S
H1798 C1790 0.930 . S
H1799 C1791 0.929 . S
H1800 C1808 0.929 . S
H1801 C1810 0.930 . S
H1802 C1812 0.930 . S
H1803 C1815 0.929 . S
H1804 C1818 0.930 1_655 S
H1805 C1820 0.960 . S
H1806 C1820 0.960 . S
H1807 C1820 0.960 . S
C1808 H1800 0.929 . S
C1808 C1809 1.377 . S
C1808 C1810 1.384 . S
C1809 C1808 1.377 . S
C1809 C1815 1.390 . S
C1810 H1801 0.930 . S
C1810 C1808 1.384 . S
C1810 C1811 1.372 . S
C1811 C1810 1.372 . S
C1811 C1812 1.400 . S
C1811 C1816 1.490 . S
C1812 H1802 0.930 . S
C1812 C1811 1.400 . S
C1812 C1815 1.386 . S
H1813 C1829 0.930 . S
H1814 C1830 0.931 . S
C1815 H1803 0.929 . S
C1815 C1809 1.390 . S
C1815 C1812 1.386 . S
C1816 C1811 1.490 . S
C1816 C1818 1.395 . S
C1816 C1819 1.403 . S
H1817 C1823 0.930 . S
C1818 H1804 0.930 1_455 S
C1818 C1816 1.395 . S
C1818 C1821 1.403 . S
C1819 C1816 1.403 . S
C1819 C1820 1.524 . S
C1819 C1823 1.400 . S
C1820 H1805 0.960 . S
C1820 H1806 0.960 . S
C1820 H1807 0.960 . S
C1820 C1819 1.524 . S
C1821 C1818 1.403 . S
C1821 C1822 1.392 . S
C1821 C1825 1.495 1_455 S
C1822 C1821 1.392 . S
C1822 C1823 1.385 . S
C1822 C1824 1.478 . S
C1823 H1817 0.930 . S
C1823 C1819 1.400 . S
C1823 C1822 1.385 . S
C1824 C1822 1.478 . S
C1824 C1826 1.381 . S
C1824 C1830 1.383 . S
C1825 C1821 1.495 1_655 S
C1825 H1831 0.959 . S
C1825 H1832 0.961 . S
C1825 H1833 0.960 . S
C1826 C1824 1.381 . S
C1826 C1827 1.394 . S
C1826 H1834 0.930 . S
C1827 C1826 1.394 . S
C1827 C1828 1.383 . S
C1827 H1835 0.929 . S
C1828 C1827 1.383 . S
C1828 C1829 1.377 . S
C1829 H1813 0.930 . S
C1829 C1828 1.377 . S
C1829 C1830 1.379 . S
C1830 H1814 0.931 . S
C1830 C1824 1.383 . S
C1830 C1829 1.379 . S
H1831 C1825 0.959 . S
H1832 C1825 0.961 . S
H1833 C1825 0.960 . S
H1834 C1826 0.930 . S
H1835 C1827 0.929 . S
H1836 C1844 0.929 . S
H1837 C1846 0.930 . S
H1838 C1848 0.930 . S
H1839 C1851 0.929 . S
H1840 C1854 0.930 . S
H1841 C1856 0.960 . S
H1842 C1856 0.960 . S
H1843 C1856 0.960 . S
C1844 H1836 0.929 . S
C1844 C1845 1.377 . S
C1844 C1846 1.384 . S
C1845 C1844 1.377 . S
C1845 C1851 1.390 . S
C1846 H1837 0.930 . S
C1846 C1844 1.384 . S
C1846 C1847 1.372 . S
C1847 C1846 1.372 . S
C1847 C1848 1.400 . S
C1847 C1852 1.490 . S
C1848 H1838 0.930 . S
C1848 C1847 1.400 . S
C1848 C1851 1.386 . S
H1849 C1865 0.930 . S
H1850 C1866 0.931 . S
C1851 H1839 0.929 . S
C1851 C1845 1.390 . S
C1851 C1848 1.386 . S
C1852 C1847 1.490 . S
C1852 C1854 1.395 . S
C1852 C1855 1.403 . S
H1853 C1859 0.930 . S
C1854 H1840 0.930 . S
C1854 C1852 1.395 . S
C1854 C1857 1.403 . S
C1855 C1852 1.403 . S
C1855 C1856 1.524 . S
C1855 C1859 1.400 . S
C1856 H1841 0.960 . S
C1856 H1842 0.960 . S
C1856 H1843 0.960 . S
C1856 C1855 1.524 . S
C1857 C1854 1.403 . S
C1857 C1858 1.392 . S
C1857 C1861 1.495 . S
C1858 C1857 1.392 . S
C1858 C1859 1.385 . S
C1858 C1860 1.478 . S
C1859 H1853 0.930 . S
C1859 C1855 1.400 . S
C1859 C1858 1.385 . S
C1860 C1858 1.478 . S
C1860 C1862 1.381 . S
C1860 C1866 1.383 . S
C1861 C1857 1.495 . S
C1861 H1867 0.959 . S
C1861 H1868 0.961 . S
C1861 H1869 0.960 . S
C1862 C1860 1.381 . S
C1862 C1863 1.394 . S
C1862 H1870 0.930 . S
C1863 C1862 1.394 . S
C1863 C1864 1.383 . S
C1863 H1871 0.929 . S
C1864 C1863 1.383 . S
C1864 C1865 1.377 . S
C1865 H1849 0.930 . S
C1865 C1864 1.377 . S
C1865 C1866 1.379 . S
C1866 H1850 0.931 . S
C1866 C1860 1.383 . S
C1866 C1865 1.379 . S
H1867 C1861 0.959 . S
H1868 C1861 0.961 . S
H1869 C1861 0.960 . S
H1870 C1862 0.930 . S
H1871 C1863 0.929 . S
H1872 C1880 0.929 . S
H1873 C1882 0.930 . S
H1874 C1884 0.930 . S
H1875 C1887 0.929 . S
H1876 C1890 0.930 . S
H1877 C1892 0.960 . S
H1878 C1892 0.960 . S
H1879 C1892 0.960 . S
C1880 H1872 0.929 . S
C1880 C1881 1.377 . S
C1880 C1882 1.384 . S
C1881 C1880 1.377 . S
C1881 C1887 1.390 . S
C1882 H1873 0.930 . S
C1882 C1880 1.384 . S
C1882 C1883 1.372 . S
C1883 C1882 1.372 . S
C1883 C1884 1.400 . S
C1883 C1888 1.490 . S
C1884 H1874 0.930 . S
C1884 C1883 1.400 . S
C1884 C1887 1.386 . S
H1885 C1901 0.930 . S
H1886 C1902 0.931 . S
C1887 H1875 0.929 . S
C1887 C1881 1.390 . S
C1887 C1884 1.386 . S
C1888 C1883 1.490 . S
C1888 C1890 1.395 . S
C1888 C1891 1.403 . S
H1889 C1895 0.930 . S
C1890 H1876 0.930 . S
C1890 C1888 1.395 . S
C1890 C1893 1.403 . S
C1891 C1888 1.403 . S
C1891 C1892 1.524 . S
C1891 C1895 1.400 . S
C1892 H1877 0.960 . S
C1892 H1878 0.960 . S
C1892 H1879 0.960 . S
C1892 C1891 1.524 . S
C1893 C1890 1.403 . S
C1893 C1894 1.392 . S
C1893 C1897 1.495 . S
C1894 C1893 1.392 . S
C1894 C1895 1.385 . S
C1894 C1896 1.478 . S
C1895 H1889 0.930 . S
C1895 C1891 1.400 . S
C1895 C1894 1.385 . S
C1896 C1894 1.478 . S
C1896 C1898 1.381 . S
C1896 C1902 1.383 . S
C1897 C1893 1.495 . S
C1897 H1903 0.959 . S
C1897 H1904 0.961 . S
C1897 H1905 0.960 . S
C1898 C1896 1.381 . S
C1898 C1899 1.394 . S
C1898 H1906 0.930 . S
C1899 C1898 1.394 . S
C1899 C1900 1.383 . S
C1899 H1907 0.929 . S
C1900 C1899 1.383 . S
C1900 C1901 1.377 . S
C1901 H1885 0.930 . S
C1901 C1900 1.377 . S
C1901 C1902 1.379 . S
C1902 H1886 0.931 . S
C1902 C1896 1.383 . S
C1902 C1901 1.379 . S
H1903 C1897 0.959 . S
H1904 C1897 0.961 . S
H1905 C1897 0.960 . S
H1906 C1898 0.930 . S
H1907 C1899 0.929 . S
H1908 C1916 0.929 . S
H1909 C1918 0.930 . S
H1910 C1920 0.930 . S
H1911 C1923 0.929 . S
H1912 C1926 0.930 . S
H1913 C1928 0.960 . S
H1914 C1928 0.960 . S
H1915 C1928 0.960 . S
C1916 H1908 0.929 . S
C1916 C1917 1.377 . S
C1916 C1918 1.384 . S
C1917 C1916 1.377 . S
C1917 C1923 1.390 . S
C1918 H1909 0.930 . S
C1918 C1916 1.384 . S
C1918 C1919 1.372 . S
C1919 C1918 1.372 . S
C1919 C1920 1.400 . S
C1919 C1924 1.490 . S
C1920 H1910 0.930 . S
C1920 C1919 1.400 . S
C1920 C1923 1.386 . S
H1921 C1937 0.930 . S
H1922 C1938 0.931 . S
C1923 H1911 0.929 . S
C1923 C1917 1.390 . S
C1923 C1920 1.386 . S
C1924 C1919 1.490 . S
C1924 C1926 1.395 . S
C1924 C1927 1.403 . S
H1925 C1931 0.930 . S
C1926 H1912 0.930 . S
C1926 C1924 1.395 . S
C1926 C1929 1.403 . S
C1927 C1924 1.403 . S
C1927 C1928 1.524 . S
C1927 C1931 1.400 . S
C1928 H1913 0.960 . S
C1928 H1914 0.960 . S
C1928 H1915 0.960 . S
C1928 C1927 1.524 . S
C1929 C1926 1.403 . S
C1929 C1930 1.392 . S
C1929 C1933 1.495 . S
C1930 C1929 1.392 . S
C1930 C1931 1.385 . S
C1930 C1932 1.478 . S
C1931 H1925 0.930 . S
C1931 C1927 1.400 . S
C1931 C1930 1.385 . S
C1932 C1930 1.478 . S
C1932 C1934 1.381 . S
C1932 C1938 1.383 . S
C1933 C1929 1.495 . S
C1933 H1939 0.959 . S
C1933 H1940 0.961 . S
C1933 H1941 0.960 . S
C1934 C1932 1.381 . S
C1934 C1935 1.394 . S
C1934 H1942 0.930 . S
C1935 C1934 1.394 . S
C1935 C1936 1.383 . S
C1935 H1943 0.929 . S
C1936 C1935 1.383 . S
C1936 C1937 1.377 . S
C1937 H1921 0.930 . S
C1937 C1936 1.377 . S
C1937 C1938 1.379 . S
C1938 H1922 0.931 . S
C1938 C1932 1.383 . S
C1938 C1937 1.379 . S
H1939 C1933 0.959 . S
H1940 C1933 0.961 . S
H1941 C1933 0.960 . S
H1942 C1934 0.930 . S
H1943 C1935 0.929 . S
H1944 C1952 0.929 . S
H1945 C1954 0.930 . S
H1946 C1956 0.930 . S
H1947 C1959 0.929 . S
H1948 C1962 0.930 . S
H1949 C1964 0.960 . S
H1950 C1964 0.960 . S
H1951 C1964 0.960 . S
C1952 H1944 0.929 . S
C1952 C1953 1.377 . S
C1952 C1954 1.384 . S
C1953 C1952 1.377 . S
C1953 C1959 1.390 . S
C1954 H1945 0.930 . S
C1954 C1952 1.384 . S
C1954 C1955 1.372 . S
C1955 C1954 1.372 . S
C1955 C1956 1.400 . S
C1955 C1960 1.490 . S
C1956 H1946 0.930 . S
C1956 C1955 1.400 . S
C1956 C1959 1.386 . S
H1957 C1973 0.930 . S
H1958 C1974 0.931 . S
C1959 H1947 0.929 . S
C1959 C1953 1.390 . S
C1959 C1956 1.386 . S
C1960 C1955 1.490 . S
C1960 C1962 1.395 1_655 S
C1960 C1963 1.403 . S
H1961 C1967 0.930 . S
C1962 H1948 0.930 . S
C1962 C1960 1.395 1_455 S
C1962 C1965 1.403 . S
C1963 C1960 1.403 . S
C1963 C1964 1.524 . S
C1963 C1967 1.400 . S
C1964 H1949 0.960 . S
C1964 H1950 0.960 . S
C1964 H1951 0.960 . S
C1964 C1963 1.524 . S
C1965 C1962 1.403 . S
C1965 C1966 1.392 . S
C1965 C1969 1.495 . S
C1966 C1965 1.392 . S
C1966 C1967 1.385 1_455 S
C1966 C1968 1.478 . S
C1967 H1961 0.930 . S
C1967 C1963 1.400 . S
C1967 C1966 1.385 1_655 S
C1968 C1966 1.478 . S
C1968 C1970 1.381 . S
C1968 C1974 1.383 . S
C1969 C1965 1.495 . S
C1969 H1975 0.959 . S
C1969 H1976 0.961 . S
C1969 H1977 0.960 . S
C1970 C1968 1.381 . S
C1970 C1971 1.394 . S
C1970 H1978 0.930 . S
C1971 C1970 1.394 . S
C1971 C1972 1.383 . S
C1971 H1979 0.929 . S
C1972 C1971 1.383 . S
C1972 C1973 1.377 . S
C1973 H1957 0.930 . S
C1973 C1972 1.377 . S
C1973 C1974 1.379 . S
C1974 H1958 0.931 . S
C1974 C1968 1.383 . S
C1974 C1973 1.379 . S
H1975 C1969 0.959 . S
H1976 C1969 0.961 . S
H1977 C1969 0.960 . S
H1978 C1970 0.930 . S
H1979 C1971 0.929 . S
H1980 C1988 0.929 . S
H1981 C1990 0.930 . S
H1982 C1992 0.930 . S
H1983 C1995 0.929 . S
H1984 C1998 0.930 . S
H1985 C2000 0.960 . S
H1986 C2000 0.960 . S
H1987 C2000 0.960 . S
C1988 H1980 0.929 . S
C1988 C1989 1.377 . S
C1988 C1990 1.384 . S
C1989 C1988 1.377 . S
C1989 C1995 1.390 . S
C1990 H1981 0.930 . S
C1990 C1988 1.384 . S
C1990 C1991 1.372 . S
C1991 C1990 1.372 . S
C1991 C1992 1.400 . S
C1991 C1996 1.490 . S
C1992 H1982 0.930 . S
C1992 C1991 1.400 . S
C1992 C1995 1.386 . S
H1993 C2009 0.930 . S
H1994 C2010 0.931 . S
C1995 H1983 0.929 . S
C1995 C1989 1.390 . S
C1995 C1992 1.386 . S
C1996 C1991 1.490 . S
C1996 C1998 1.395 . S
C1996 C1999 1.403 . S
H1997 C2003 0.930 . S
C1998 H1984 0.930 . S
C1998 C1996 1.395 . S
C1998 C2001 1.403 . S
C1999 C1996 1.403 . S
C1999 C2000 1.524 . S
C1999 C2003 1.400 . S
C2000 H1985 0.960 . S
C2000 H1986 0.960 . S
C2000 H1987 0.960 . S
C2000 C1999 1.524 . S
C2001 C1998 1.403 . S
C2001 C2002 1.392 . S
C2001 C2005 1.495 . S
C2002 C2001 1.392 . S
C2002 C2003 1.385 . S
C2002 C2004 1.478 . S
C2003 H1997 0.930 . S
C2003 C1999 1.400 . S
C2003 C2002 1.385 . S
C2004 C2002 1.478 . S
C2004 C2006 1.381 . S
C2004 C2010 1.383 . S
C2005 C2001 1.495 . S
C2005 H2011 0.959 . S
C2005 H2012 0.961 . S
C2005 H2013 0.960 . S
C2006 C2004 1.381 . S
C2006 C2007 1.394 . S
C2006 H2014 0.930 . S
C2007 C2006 1.394 . S
C2007 C2008 1.383 . S
C2007 H2015 0.929 . S
C2008 C2007 1.383 . S
C2008 C2009 1.377 . S
C2009 H1993 0.930 . S
C2009 C2008 1.377 . S
C2009 C2010 1.379 . S
C2010 H1994 0.931 . S
C2010 C2004 1.383 . S
C2010 C2009 1.379 . S
H2011 C2005 0.959 . S
H2012 C2005 0.961 . S
H2013 C2005 0.960 . S
H2014 C2006 0.930 . S
H2015 C2007 0.929 . S
H2016 C2024 0.929 . S
H2017 C2026 0.930 . S
H2018 C2028 0.930 . S
H2019 C2031 0.929 . S
H2020 C2034 0.930 . S
H2021 C2036 0.960 . S
H2022 C2036 0.960 . S
H2023 C2036 0.960 . S
C2024 H2016 0.929 . S
C2024 C2025 1.377 . S
C2024 C2026 1.384 . S
C2025 C2024 1.377 . S
C2025 C2031 1.390 . S
C2026 H2017 0.930 . S
C2026 C2024 1.384 . S
C2026 C2027 1.372 . S
C2027 C2026 1.372 . S
C2027 C2028 1.400 . S
C2027 C2032 1.490 . S
C2028 H2018 0.930 . S
C2028 C2027 1.400 . S
C2028 C2031 1.386 . S
H2029 C2045 0.930 1_565 S
H2030 C2046 0.931 1_565 S
C2031 H2019 0.929 . S
C2031 C2025 1.390 . S
C2031 C2028 1.386 . S
C2032 C2027 1.490 . S
C2032 C2034 1.395 . S
C2032 C2035 1.403 . S
H2033 C2039 0.930 . S
C2034 H2020 0.930 . S
C2034 C2032 1.395 . S
C2034 C2037 1.403 . S
C2035 C2032 1.403 . S
C2035 C2036 1.524 . S
C2035 C2039 1.400 . S
C2036 H2021 0.960 . S
C2036 H2022 0.960 . S
C2036 H2023 0.960 . S
C2036 C2035 1.524 . S
C2037 C2034 1.403 . S
C2037 C2038 1.392 . S
C2037 C2041 1.495 . S
C2038 C2037 1.392 . S
C2038 C2039 1.385 . S
C2038 C2040 1.478 . S
C2039 H2033 0.930 . S
C2039 C2035 1.400 . S
C2039 C2038 1.385 . S
C2040 C2038 1.478 . S
C2040 C2042 1.381 . S
C2040 C2046 1.383 . S
C2041 C2037 1.495 . S
C2041 H2047 0.959 . S
C2041 H2048 0.961 1_545 S
C2041 H2049 0.960 . S
C2042 C2040 1.381 . S
C2042 C2043 1.394 . S
C2042 H2050 0.930 . S
C2043 C2042 1.394 . S
C2043 C2044 1.383 . S
C2043 H2051 0.929 . S
C2044 C2043 1.383 . S
C2044 C2045 1.377 . S
C2045 H2029 0.930 1_545 S
C2045 C2044 1.377 . S
C2045 C2046 1.379 . S
C2046 H2030 0.931 1_545 S
C2046 C2040 1.383 . S
C2046 C2045 1.379 . S
H2047 C2041 0.959 . S
H2048 C2041 0.961 1_565 S
H2049 C2041 0.960 . S
H2050 C2042 0.930 . S
H2051 C2043 0.929 . S
H2052 C2060 0.929 . S
H2053 C2062 0.930 . S
H2054 C2064 0.930 . S
H2055 C2067 0.929 . S
H2056 C2070 0.930 . S
H2057 C2072 0.960 . S
H2058 C2072 0.960 . S
H2059 C2072 0.960 . S
C2060 H2052 0.929 . S
C2060 C2061 1.377 . S
C2060 C2062 1.384 . S
C2061 C2060 1.377 . S
C2061 C2067 1.390 . S
C2062 H2053 0.930 . S
C2062 C2060 1.384 . S
C2062 C2063 1.372 . S
C2063 C2062 1.372 . S
C2063 C2064 1.400 . S
C2063 C2068 1.490 . S
C2064 H2054 0.930 . S
C2064 C2063 1.400 . S
C2064 C2067 1.386 . S
H2065 C2081 0.930 . S
H2066 C2082 0.931 . S
C2067 H2055 0.929 . S
C2067 C2061 1.390 . S
C2067 C2064 1.386 . S
C2068 C2063 1.490 . S
C2068 C2070 1.395 . S
C2068 C2071 1.403 . S
H2069 C2075 0.930 . S
C2070 H2056 0.930 . S
C2070 C2068 1.395 . S
C2070 C2073 1.403 . S
C2071 C2068 1.403 . S
C2071 C2072 1.524 . S
C2071 C2075 1.400 . S
C2072 H2057 0.960 . S
C2072 H2058 0.960 . S
C2072 H2059 0.960 . S
C2072 C2071 1.524 . S
C2073 C2070 1.403 . S
C2073 C2074 1.392 . S
C2073 C2077 1.495 . S
C2074 C2073 1.392 . S
C2074 C2075 1.385 . S
C2074 C2076 1.478 . S
C2075 H2069 0.930 . S
C2075 C2071 1.400 . S
C2075 C2074 1.385 . S
C2076 C2074 1.478 . S
C2076 C2078 1.381 . S
C2076 C2082 1.383 . S
C2077 C2073 1.495 . S
C2077 H2083 0.959 . S
C2077 H2084 0.961 . S
C2077 H2085 0.960 . S
C2078 C2076 1.381 . S
C2078 C2079 1.394 . S
C2078 H2086 0.930 . S
C2079 C2078 1.394 . S
C2079 C2080 1.383 . S
C2079 H2087 0.929 . S
C2080 C2079 1.383 . S
C2080 C2081 1.377 . S
C2081 H2065 0.930 . S
C2081 C2080 1.377 . S
C2081 C2082 1.379 . S
C2082 H2066 0.931 . S
C2082 C2076 1.383 . S
C2082 C2081 1.379 . S
H2083 C2077 0.959 . S
H2084 C2077 0.961 . S
H2085 C2077 0.960 . S
H2086 C2078 0.930 . S
H2087 C2079 0.929 . S
H2088 C2096 0.929 . S
H2089 C2098 0.930 . S
H2090 C2100 0.930 1_455 S
H2091 C2103 0.929 . S
H2092 C2106 0.930 . S
H2093 C2108 0.960 . S
H2094 C2108 0.960 1_655 S
H2095 C2108 0.960 . S
C2096 H2088 0.929 . S
C2096 C2097 1.377 . S
C2096 C2098 1.384 . S
C2097 C2096 1.377 . S
C2097 C2103 1.390 . S
C2098 H2089 0.930 . S
C2098 C2096 1.384 . S
C2098 C2099 1.372 . S
C2099 C2098 1.372 . S
C2099 C2100 1.400 . S
C2099 C2104 1.490 . S
C2100 H2090 0.930 1_655 S
C2100 C2099 1.400 . S
C2100 C2103 1.386 . S
H2101 C2117 0.930 . S
H2102 C2118 0.931 . S
C2103 H2091 0.929 . S
C2103 C2097 1.390 . S
C2103 C2100 1.386 . S
C2104 C2099 1.490 . S
C2104 C2106 1.395 . S
C2104 C2107 1.403 1_655 S
H2105 C2111 0.930 . S
C2106 H2092 0.930 . S
C2106 C2104 1.395 . S
C2106 C2109 1.403 . S
C2107 C2104 1.403 1_455 S
C2107 C2108 1.524 . S
C2107 C2111 1.400 . S
C2108 H2093 0.960 . S
C2108 H2094 0.960 1_455 S
C2108 H2095 0.960 . S
C2108 C2107 1.524 . S
C2109 C2106 1.403 . S
C2109 C2110 1.392 1_655 S
C2109 C2113 1.495 . S
C2110 C2109 1.392 1_455 S
C2110 C2111 1.385 . S
C2110 C2112 1.478 . S
C2111 H2105 0.930 . S
C2111 C2107 1.400 . S
C2111 C2110 1.385 . S
C2112 C2110 1.478 . S
C2112 C2114 1.381 . S
C2112 C2118 1.383 . S
C2113 C2109 1.495 . S
C2113 H2119 0.963 . S
C2113 H2120 0.961 1_655 S
C2113 H2121 0.960 . S
C2114 C2112 1.381 . S
C2114 C2115 1.394 . S
C2114 H2122 0.930 1_455 S
C2115 C2114 1.394 . S
C2115 C2116 1.383 . S
C2115 H2123 0.929 . S
C2116 C2115 1.383 . S
C2116 C2117 1.377 . S
C2117 H2101 0.930 . S
C2117 C2116 1.377 . S
C2117 C2118 1.379 . S
C2118 H2102 0.931 . S
C2118 C2112 1.383 . S
C2118 C2117 1.379 . S
H2119 C2113 0.963 . S
H2120 C2113 0.961 1_455 S
H2121 C2113 0.960 . S
H2122 C2114 0.930 1_655 S
H2123 C2115 0.929 . S
H2124 C2132 0.929 . S
H2125 C2134 0.930 . S
H2126 C2136 0.930 . S
H2127 C2139 0.929 . S
H2128 C2142 0.930 . S
H2129 C2144 0.960 . S
H2130 C2144 0.960 . S
H2131 C2144 0.960 . S
C2132 H2124 0.929 . S
C2132 C2133 1.377 . S
C2132 C2134 1.384 . S
C2133 C2132 1.377 . S
C2133 C2139 1.390 . S
C2134 H2125 0.930 . S
C2134 C2132 1.384 . S
C2134 C2135 1.372 . S
C2135 C2134 1.372 . S
C2135 C2136 1.400 . S
C2135 C2140 1.490 . S
C2136 H2126 0.930 . S
C2136 C2135 1.400 . S
C2136 C2139 1.386 . S
H2137 C2153 0.930 . S
H2138 C2154 0.931 . S
C2139 H2127 0.929 . S
C2139 C2133 1.390 . S
C2139 C2136 1.386 . S
C2140 C2135 1.490 . S
C2140 C2142 1.395 . S
C2140 C2143 1.403 . S
H2141 C2147 0.930 . S
C2142 H2128 0.930 . S
C2142 C2140 1.395 . S
C2142 C2145 1.403 . S
C2143 C2140 1.403 . S
C2143 C2144 1.524 . S
C2143 C2147 1.400 . S
C2144 H2129 0.960 . S
C2144 H2130 0.960 . S
C2144 H2131 0.960 . S
C2144 C2143 1.524 . S
C2145 C2142 1.403 . S
C2145 C2146 1.392 . S
C2145 C2149 1.495 . S
C2146 C2145 1.392 . S
C2146 C2147 1.385 . S
C2146 C2148 1.478 . S
C2147 H2141 0.930 . S
C2147 C2143 1.400 . S
C2147 C2146 1.385 . S
C2148 C2146 1.478 . S
C2148 C2150 1.381 . S
C2148 C2154 1.383 . S
C2149 C2145 1.495 . S
C2149 H2155 0.959 . S
C2149 H2156 0.961 . S
C2149 H2157 0.960 . S
C2150 C2148 1.381 . S
C2150 C2151 1.394 . S
C2150 H2158 0.930 . S
C2151 C2150 1.394 . S
C2151 C2152 1.383 . S
C2151 H2159 0.929 . S
C2152 C2151 1.383 . S
C2152 C2153 1.377 . S
C2153 H2137 0.930 . S
C2153 C2152 1.377 . S
C2153 C2154 1.379 . S
C2154 H2138 0.931 . S
C2154 C2148 1.383 . S
C2154 C2153 1.379 . S
H2155 C2149 0.959 . S
H2156 C2149 0.961 . S
H2157 C2149 0.960 . S
H2158 C2150 0.930 . S
H2159 C2151 0.929 . S
H2160 C2168 0.929 . S
H2161 C2170 0.930 . S
H2162 C2172 0.930 . S
H2163 C2175 0.929 . S
H2164 C2178 0.930 . S
H2165 C2180 0.960 . S
H2166 C2180 0.960 . S
H2167 C2180 0.960 . S
C2168 H2160 0.929 . S
C2168 C2169 1.377 . S
C2168 C2170 1.384 . S
C2169 C2168 1.377 . S
C2169 C2175 1.390 . S
C2170 H2161 0.930 . S
C2170 C2168 1.384 . S
C2170 C2171 1.372 . S
C2171 C2170 1.372 . S
C2171 C2172 1.400 . S
C2171 C2176 1.490 . S
C2172 H2162 0.930 . S
C2172 C2171 1.400 . S
C2172 C2175 1.386 . S
H2173 C2189 0.930 . S
H2174 C2190 0.931 . S
C2175 H2163 0.929 . S
C2175 C2169 1.390 . S
C2175 C2172 1.386 . S
C2176 C2171 1.490 . S
C2176 C2178 1.395 . S
C2176 C2179 1.403 . S
H2177 C2183 0.930 . S
C2178 H2164 0.930 . S
C2178 C2176 1.395 . S
C2178 C2181 1.403 . S
C2179 C2176 1.403 . S
C2179 C2180 1.524 . S
C2179 C2183 1.400 . S
C2180 H2165 0.960 . S
C2180 H2166 0.960 . S
C2180 H2167 0.960 . S
C2180 C2179 1.524 . S
C2181 C2178 1.403 . S
C2181 C2182 1.392 . S
C2181 C2185 1.495 . S
C2182 C2181 1.392 . S
C2182 C2183 1.385 . S
C2182 C2184 1.478 . S
C2183 H2177 0.930 . S
C2183 C2179 1.400 . S
C2183 C2182 1.385 . S
C2184 C2182 1.478 . S
C2184 C2186 1.381 . S
C2184 C2190 1.383 . S
C2185 C2181 1.495 . S
C2185 H2191 0.959 . S
C2185 H2192 0.961 . S
C2185 H2193 0.960 . S
C2186 C2184 1.381 . S
C2186 C2187 1.394 . S
C2186 H2194 0.930 . S
C2187 C2186 1.394 . S
C2187 C2188 1.383 . S
C2187 H2195 0.929 . S
C2188 C2187 1.383 . S
C2188 C2189 1.377 . S
C2189 H2173 0.930 . S
C2189 C2188 1.377 . S
C2189 C2190 1.379 . S
C2190 H2174 0.931 . S
C2190 C2184 1.383 . S
C2190 C2189 1.379 . S
H2191 C2185 0.959 . S
H2192 C2185 0.961 . S
H2193 C2185 0.960 . S
H2194 C2186 0.930 . S
H2195 C2187 0.929 . S
H2196 C2204 0.929 . S
H2197 C2206 0.930 . S
H2198 C2208 0.930 . S
H2199 C2211 0.929 . S
H2200 C2214 0.930 . S
H2201 C2216 0.960 . S
H2202 C2216 0.960 . S
H2203 C2216 0.960 . S
C2204 H2196 0.929 . S
C2204 C2205 1.377 . S
C2204 C2206 1.384 . S
C2205 C2204 1.377 . S
C2205 C2211 1.390 . S
C2206 H2197 0.930 . S
C2206 C2204 1.384 . S
C2206 C2207 1.372 . S
C2207 C2206 1.372 . S
C2207 C2208 1.400 . S
C2207 C2212 1.490 . S
C2208 H2198 0.930 . S
C2208 C2207 1.400 . S
C2208 C2211 1.386 . S
H2209 C2225 0.930 . S
H2210 C2226 0.931 . S
C2211 H2199 0.929 . S
C2211 C2205 1.390 . S
C2211 C2208 1.386 . S
C2212 C2207 1.490 . S
C2212 C2214 1.395 . S
C2212 C2215 1.403 . S
H2213 C2219 0.930 . S
C2214 H2200 0.930 . S
C2214 C2212 1.395 . S
C2214 C2217 1.403 . S
C2215 C2212 1.403 . S
C2215 C2216 1.524 . S
C2215 C2219 1.400 . S
C2216 H2201 0.960 . S
C2216 H2202 0.960 . S
C2216 H2203 0.960 . S
C2216 C2215 1.524 . S
C2217 C2214 1.403 . S
C2217 C2218 1.392 . S
C2217 C2221 1.495 . S
C2218 C2217 1.392 . S
C2218 C2219 1.385 . S
C2218 C2220 1.478 . S
C2219 H2213 0.930 . S
C2219 C2215 1.400 . S
C2219 C2218 1.385 . S
C2220 C2218 1.478 . S
C2220 C2222 1.381 . S
C2220 C2226 1.383 . S
C2221 C2217 1.495 . S
C2221 H2227 0.959 . S
C2221 H2228 0.961 . S
C2221 H2229 0.960 . S
C2222 C2220 1.381 . S
C2222 C2223 1.394 . S
C2222 H2230 0.930 . S
C2223 C2222 1.394 . S
C2223 C2224 1.383 . S
C2223 H2231 0.929 . S
C2224 C2223 1.383 . S
C2224 C2225 1.377 . S
C2225 H2209 0.930 . S
C2225 C2224 1.377 . S
C2225 C2226 1.379 . S
C2226 H2210 0.931 . S
C2226 C2220 1.383 . S
C2226 C2225 1.379 . S
H2227 C2221 0.959 . S
H2228 C2221 0.961 . S
H2229 C2221 0.960 . S
H2230 C2222 0.930 . S
H2231 C2223 0.929 . S
H2232 C2240 0.929 . S
H2233 C2242 0.930 . S
H2234 C2244 0.930 . S
H2235 C2247 0.929 . S
H2236 C2250 0.930 . S
H2237 C2252 0.960 . S
H2238 C2252 0.960 . S
H2239 C2252 0.960 . S
C2240 H2232 0.929 . S
C2240 C2241 1.377 . S
C2240 C2242 1.384 . S
C2241 C2240 1.377 . S
C2241 C2247 1.390 . S
C2242 H2233 0.930 . S
C2242 C2240 1.384 . S
C2242 C2243 1.372 . S
C2243 C2242 1.372 . S
C2243 C2244 1.400 . S
C2243 C2248 1.490 . S
C2244 H2234 0.930 . S
C2244 C2243 1.400 . S
C2244 C2247 1.386 . S
H2245 C2261 0.930 1_565 S
H2246 C2262 0.931 . S
C2247 H2235 0.929 . S
C2247 C2241 1.390 . S
C2247 C2244 1.386 . S
C2248 C2243 1.490 . S
C2248 C2250 1.395 . S
C2248 C2251 1.403 . S
H2249 C2255 0.930 . S
C2250 H2236 0.930 . S
C2250 C2248 1.395 . S
C2250 C2253 1.412 . S
C2251 C2248 1.403 . S
C2251 C2252 1.524 . S
C2251 C2255 1.400 . S
C2252 H2237 0.960 . S
C2252 H2238 0.960 . S
C2252 H2239 0.960 . S
C2252 C2251 1.524 . S
C2253 C2250 1.412 . S
C2253 C2254 1.395 . S
C2253 C2257 1.484 1_565 S
C2254 C2253 1.395 . S
C2254 C2255 1.385 . S
C2254 C2256 1.478 1_565 S
C2255 H2249 0.930 . S
C2255 C2251 1.400 . S
C2255 C2254 1.385 . S
C2256 C2254 1.478 1_545 S
C2256 C2258 1.381 . S
C2256 C2262 1.383 1_545 S
C2257 C2253 1.484 1_545 S
C2257 H2263 0.959 . S
C2257 H2264 0.967 . S
C2257 H2265 0.960 . S
C2258 C2256 1.381 . S
C2258 C2259 1.394 . S
C2258 H2266 0.930 . S
C2259 C2258 1.394 . S
C2259 C2260 1.383 . S
C2259 H2267 0.929 . S
C2260 C2259 1.383 . S
C2260 C2261 1.377 . S
C2261 H2245 0.930 1_545 S
C2261 C2260 1.377 . S
C2261 C2262 1.379 1_545 S
C2262 H2246 0.931 . S
C2262 C2256 1.383 1_565 S
C2262 C2261 1.379 1_565 S
H2263 C2257 0.959 . S
H2264 C2257 0.967 . S
H2265 C2257 0.960 . S
H2266 C2258 0.930 . S
H2267 C2259 0.929 . S
H2268 C2276 0.929 . S
H2269 C2278 0.930 . S
H2270 C2280 0.930 . S
H2271 C2283 0.929 . S
H2272 C2286 0.930 . S
H2273 C2288 0.960 . S
H2274 C2288 0.960 . S
H2275 C2288 0.960 . S
C2276 H2268 0.929 . S
C2276 C2277 1.377 . S
C2276 C2278 1.384 . S
C2277 C2276 1.377 . S
C2277 C2283 1.390 1_556 S
C2278 H2269 0.930 . S
C2278 C2276 1.384 . S
C2278 C2279 1.372 . S
C2279 C2278 1.372 . S
C2279 C2280 1.400 1_556 S
C2279 C2284 1.490 . S
C2280 H2270 0.930 . S
C2280 C2279 1.400 1_554 S
C2280 C2283 1.386 . S
H2281 C2297 0.930 . S
H2282 C2298 0.931 . S
C2283 H2271 0.929 . S
C2283 C2277 1.390 1_554 S
C2283 C2280 1.386 . S
C2284 C2279 1.490 . S
C2284 C2286 1.395 . S
C2284 C2287 1.403 1_556 S
H2285 C2291 0.930 . S
C2286 H2272 0.930 . S
C2286 C2284 1.395 . S
C2286 C2289 1.403 . S
C2287 C2284 1.403 1_554 S
C2287 C2288 1.524 . S
C2287 C2291 1.400 . S
C2288 H2273 0.960 . S
C2288 H2274 0.960 . S
C2288 H2275 0.960 . S
C2288 C2287 1.524 . S
C2289 C2286 1.403 . S
C2289 C2290 1.392 . S
C2289 C2293 1.495 . S
C2290 C2289 1.392 . S
C2290 C2291 1.385 1_556 S
C2290 C2292 1.478 . S
C2291 H2285 0.930 . S
C2291 C2287 1.400 . S
C2291 C2290 1.385 1_554 S
C2292 C2290 1.478 . S
C2292 C2294 1.381 . S
C2292 C2298 1.383 1_556 S
C2293 C2289 1.495 . S
C2293 H2299 0.959 . S
C2293 H2300 0.961 . S
C2293 H2301 0.960 . S
C2294 C2292 1.381 . S
C2294 C2295 1.394 . S
C2294 H2302 0.930 . S
C2295 C2294 1.394 . S
C2295 C2296 1.383 . S
C2295 H2303 0.929 . S
C2296 C2295 1.383 . S
C2296 C2297 1.377 1_556 S
C2297 H2281 0.930 . S
C2297 C2296 1.377 1_554 S
C2297 C2298 1.379 . S
C2298 H2282 0.931 . S
C2298 C2292 1.383 1_554 S
C2298 C2297 1.379 . S
H2299 C2293 0.959 . S
H2300 C2293 0.961 . S
H2301 C2293 0.960 . S
H2302 C2294 0.930 . S
H2303 C2295 0.929 . S
H2304 C2312 0.929 . S
H2305 C2314 0.930 . S
H2306 C2316 0.930 . S
H2307 C2319 0.929 . S
H2308 C2322 0.930 . S
H2309 C2324 0.960 . S
H2310 C2324 0.960 . S
H2311 C2324 0.960 . S
C2312 H2304 0.929 . S
C2312 C2313 1.377 . S
C2312 C2314 1.384 . S
C2313 C2312 1.377 . S
C2313 C2319 1.390 . S
C2314 H2305 0.930 . S
C2314 C2312 1.384 . S
C2314 C2315 1.372 . S
C2315 C2314 1.372 . S
C2315 C2316 1.400 . S
C2315 C2320 1.490 . S
C2316 H2306 0.930 . S
C2316 C2315 1.400 . S
C2316 C2319 1.386 . S
H2317 C2333 0.930 . S
H2318 C2334 0.931 . S
C2319 H2307 0.929 . S
C2319 C2313 1.390 . S
C2319 C2316 1.386 . S
C2320 C2315 1.490 . S
C2320 C2322 1.395 . S
C2320 C2323 1.403 . S
H2321 C2327 0.930 . S
C2322 H2308 0.930 . S
C2322 C2320 1.395 . S
C2322 C2325 1.403 . S
C2323 C2320 1.403 . S
C2323 C2324 1.524 . S
C2323 C2327 1.400 . S
C2324 H2309 0.960 . S
C2324 H2310 0.960 . S
C2324 H2311 0.960 . S
C2324 C2323 1.524 . S
C2325 C2322 1.403 . S
C2325 C2326 1.392 . S
C2325 C2329 1.495 . S
C2326 C2325 1.392 . S
C2326 C2327 1.385 . S
C2326 C2328 1.478 . S
C2327 H2321 0.930 . S
C2327 C2323 1.400 . S
C2327 C2326 1.385 . S
C2328 C2326 1.478 . S
C2328 C2330 1.381 . S
C2328 C2334 1.383 . S
C2329 C2325 1.495 . S
C2329 H2335 0.959 . S
C2329 H2336 0.961 . S
C2329 H2337 0.960 . S
C2330 C2328 1.381 . S
C2330 C2331 1.394 . S
C2330 H2338 0.930 . S
C2331 C2330 1.394 . S
C2331 C2332 1.383 . S
C2331 H2339 0.929 . S
C2332 C2331 1.383 . S
C2332 C2333 1.377 . S
C2333 H2317 0.930 . S
C2333 C2332 1.377 . S
C2333 C2334 1.379 . S
C2334 H2318 0.931 . S
C2334 C2328 1.383 . S
C2334 C2333 1.379 . S
H2335 C2329 0.959 . S
H2336 C2329 0.961 . S
H2337 C2329 0.960 . S
H2338 C2330 0.930 . S
H2339 C2331 0.929 . S
H2340 C2348 0.929 . S
H2341 C2350 0.930 . S
H2342 C2352 0.930 . S
H2343 C2355 0.929 . S
H2344 C2358 0.930 . S
H2345 C2360 0.960 . S
H2346 C2360 0.960 . S
H2347 C2360 0.960 . S
C2348 H2340 0.929 . S
C2348 C2349 1.377 . S
C2348 C2350 1.384 . S
C2349 C2348 1.377 . S
C2349 C2355 1.390 . S
C2350 H2341 0.930 . S
C2350 C2348 1.384 . S
C2350 C2351 1.372 . S
C2351 C2350 1.372 . S
C2351 C2352 1.400 . S
C2351 C2356 1.490 . S
C2352 H2342 0.930 . S
C2352 C2351 1.400 . S
C2352 C2355 1.386 . S
H2353 C2369 0.930 . S
H2354 C2370 0.931 . S
C2355 H2343 0.929 . S
C2355 C2349 1.390 . S
C2355 C2352 1.386 . S
C2356 C2351 1.490 . S
C2356 C2358 1.395 . S
C2356 C2359 1.403 . S
H2357 C2363 0.930 . S
C2358 H2344 0.930 . S
C2358 C2356 1.395 . S
C2358 C2361 1.403 . S
C2359 C2356 1.403 . S
C2359 C2360 1.524 . S
C2359 C2363 1.400 . S
C2360 H2345 0.960 . S
C2360 H2346 0.960 . S
C2360 H2347 0.960 . S
C2360 C2359 1.524 . S
C2361 C2358 1.403 . S
C2361 C2362 1.392 . S
C2361 C2365 1.495 . S
C2362 C2361 1.392 . S
C2362 C2363 1.385 . S
C2362 C2364 1.478 . S
C2363 H2357 0.930 . S
C2363 C2359 1.400 . S
C2363 C2362 1.385 . S
C2364 C2362 1.478 . S
C2364 C2366 1.381 . S
C2364 C2370 1.383 . S
C2365 C2361 1.495 . S
C2365 H2371 0.959 . S
C2365 H2372 0.961 . S
C2365 H2373 0.960 . S
C2366 C2364 1.381 . S
C2366 C2367 1.394 . S
C2366 H2374 0.930 . S
C2367 C2366 1.394 . S
C2367 C2368 1.374 1_655 S
C2367 H2375 0.929 1_655 S
C2368 C2367 1.374 1_455 S
C2368 C2369 1.353 1_455 S
C2369 H2353 0.930 . S
C2369 C2368 1.353 1_655 S
C2369 C2370 1.379 . S
C2370 H2354 0.931 . S
C2370 C2364 1.383 . S
C2370 C2369 1.379 . S
H2371 C2365 0.959 . S
H2372 C2365 0.961 . S
H2373 C2365 0.960 . S
H2374 C2366 0.930 . S
H2375 C2367 0.929 1_455 S
H2376 C2384 0.929 . S
H2377 C2386 0.930 . S
H2378 C2388 0.930 . S
H2379 C2391 0.929 . S
H2380 C2394 0.930 . S
H2381 C2396 0.960 . S
H2382 C2396 0.960 . S
H2383 C2396 0.960 . S
C2384 H2376 0.929 . S
C2384 C2385 1.377 . S
C2384 C2386 1.384 . S
C2385 C2384 1.377 . S
C2385 C2391 1.390 . S
C2386 H2377 0.930 . S
C2386 C2384 1.384 . S
C2386 C2387 1.372 . S
C2387 C2386 1.372 . S
C2387 C2388 1.400 . S
C2387 C2392 1.490 . S
C2388 H2378 0.930 . S
C2388 C2387 1.400 . S
C2388 C2391 1.386 . S
H2389 C2405 0.930 . S
H2390 C2406 0.931 . S
C2391 H2379 0.929 . S
C2391 C2385 1.390 . S
C2391 C2388 1.386 . S
C2392 C2387 1.490 . S
C2392 C2394 1.395 . S
C2392 C2395 1.403 . S
H2393 C2399 0.930 . S
C2394 H2380 0.930 . S
C2394 C2392 1.395 . S
C2394 C2397 1.403 . S
C2395 C2392 1.403 . S
C2395 C2396 1.524 . S
C2395 C2399 1.400 . S
C2396 H2381 0.960 . S
C2396 H2382 0.960 . S
C2396 H2383 0.960 . S
C2396 C2395 1.524 . S
C2397 C2394 1.403 . S
C2397 C2398 1.392 . S
C2397 C2401 1.495 . S
C2398 C2397 1.392 . S
C2398 C2399 1.385 . S
C2398 C2400 1.478 . S
C2399 H2393 0.930 . S
C2399 C2395 1.400 . S
C2399 C2398 1.385 . S
C2400 C2398 1.478 . S
C2400 C2402 1.381 . S
C2400 C2406 1.383 . S
C2401 C2397 1.495 . S
C2401 H2407 0.959 . S
C2401 H2408 0.961 . S
C2401 H2409 0.960 . S
C2402 C2400 1.381 . S
C2402 C2403 1.394 . S
C2402 H2410 0.930 . S
C2403 C2402 1.394 . S
C2403 C2404 1.383 . S
C2403 H2411 0.929 . S
C2404 C2403 1.383 . S
C2404 C2405 1.377 . S
C2405 H2389 0.930 . S
C2405 C2404 1.377 . S
C2405 C2406 1.379 . S
C2406 H2390 0.931 . S
C2406 C2400 1.383 . S
C2406 C2405 1.379 . S
H2407 C2401 0.959 . S
H2408 C2401 0.961 . S
H2409 C2401 0.960 . S
H2410 C2402 0.930 . S
H2411 C2403 0.929 . S
H2412 C2420 0.929 . S
H2413 C2422 0.930 . S
H2414 C2424 0.930 . S
H2415 C2427 0.929 . S
H2416 C2430 0.930 . S
H2417 C2432 0.960 . S
H2418 C2432 0.960 . S
H2419 C2432 0.960 . S
C2420 H2412 0.929 . S
C2420 C2421 1.377 . S
C2420 C2422 1.384 . S
C2421 C2420 1.377 . S
C2421 C2427 1.390 . S
C2422 H2413 0.930 . S
C2422 C2420 1.384 . S
C2422 C2423 1.372 . S
C2423 C2422 1.372 . S
C2423 C2424 1.400 . S
C2423 C2428 1.490 . S
C2424 H2414 0.930 . S
C2424 C2423 1.400 . S
C2424 C2427 1.386 . S
H2425 C2441 0.930 . S
H2426 C2442 0.931 . S
C2427 H2415 0.929 . S
C2427 C2421 1.390 . S
C2427 C2424 1.386 . S
C2428 C2423 1.490 . S
C2428 C2430 1.395 . S
C2428 C2431 1.403 . S
H2429 C2435 0.930 . S
C2430 H2416 0.930 . S
C2430 C2428 1.395 . S
C2430 C2433 1.403 . S
C2431 C2428 1.403 . S
C2431 C2432 1.524 . S
C2431 C2435 1.400 . S
C2432 H2417 0.960 . S
C2432 H2418 0.960 . S
C2432 H2419 0.960 . S
C2432 C2431 1.524 . S
C2433 C2430 1.403 . S
C2433 C2434 1.392 . S
C2433 C2437 1.495 . S
C2434 C2433 1.392 . S
C2434 C2435 1.385 . S
C2434 C2436 1.478 . S
C2435 H2429 0.930 . S
C2435 C2431 1.400 . S
C2435 C2434 1.385 . S
C2436 C2434 1.478 . S
C2436 C2438 1.381 . S
C2436 C2442 1.383 . S
C2437 C2433 1.495 . S
C2437 H2443 0.959 . S
C2437 H2444 0.961 . S
C2437 H2445 0.960 . S
C2438 C2436 1.381 . S
C2438 C2439 1.394 . S
C2438 H2446 0.930 . S
C2439 C2438 1.394 . S
C2439 C2440 1.383 . S
C2439 H2447 0.929 . S
C2440 C2439 1.383 . S
C2440 C2441 1.377 . S
C2441 H2425 0.930 . S
C2441 C2440 1.377 . S
C2441 C2442 1.379 . S
C2442 H2426 0.931 . S
C2442 C2436 1.383 . S
C2442 C2441 1.379 . S
H2443 C2437 0.959 . S
H2444 C2437 0.961 . S
H2445 C2437 0.960 . S
H2446 C2438 0.930 . S
H2447 C2439 0.929 . S
H2448 C2456 0.929 . S
H2449 C2458 0.930 . S
H2450 C2460 0.930 . S
H2451 C2463 0.929 . S
H2452 C2466 0.930 . S
H2453 C2468 0.960 . S
H2454 C2468 0.960 . S
H2455 C2468 0.960 . S
C2456 H2448 0.929 . S
C2456 C2457 1.377 . S
C2456 C2458 1.384 . S
C2457 C2456 1.377 . S
C2457 C2463 1.390 . S
C2458 H2449 0.930 . S
C2458 C2456 1.384 . S
C2458 C2459 1.372 . S
C2459 C2458 1.372 . S
C2459 C2460 1.400 . S
C2459 C2464 1.490 . S
C2460 H2450 0.930 . S
C2460 C2459 1.400 . S
C2460 C2463 1.386 . S
H2461 C2477 0.930 . S
H2462 C2478 0.931 . S
C2463 H2451 0.929 . S
C2463 C2457 1.390 . S
C2463 C2460 1.386 . S
C2464 C2459 1.490 . S
C2464 C2466 1.395 . S
C2464 C2467 1.403 . S
H2465 C2471 0.930 . S
C2466 H2452 0.930 . S
C2466 C2464 1.395 . S
C2466 C2469 1.403 . S
C2467 C2464 1.403 . S
C2467 C2468 1.524 . S
C2467 C2471 1.400 . S
C2468 H2453 0.960 . S
C2468 H2454 0.960 . S
C2468 H2455 0.960 . S
C2468 C2467 1.524 . S
C2469 C2466 1.403 . S
C2469 C2470 1.392 . S
C2469 C2473 1.495 . S
C2470 C2469 1.392 . S
C2470 C2471 1.385 . S
C2470 C2472 1.478 . S
C2471 H2465 0.930 . S
C2471 C2467 1.400 . S
C2471 C2470 1.385 . S
C2472 C2470 1.478 . S
C2472 C2474 1.381 . S
C2472 C2478 1.383 . S
C2473 C2469 1.495 . S
C2473 H2479 0.959 . S
C2473 H2480 0.961 . S
C2473 H2481 0.960 . S
C2474 C2472 1.381 . S
C2474 C2475 1.394 . S
C2474 H2482 0.930 . S
C2475 C2474 1.394 . S
C2475 C2476 1.383 . S
C2475 H2483 0.929 . S
C2476 C2475 1.383 . S
C2476 C2477 1.377 . S
C2477 H2461 0.930 . S
C2477 C2476 1.377 . S
C2477 C2478 1.379 . S
C2478 H2462 0.931 . S
C2478 C2472 1.383 . S
C2478 C2477 1.379 . S
H2479 C2473 0.959 . S
H2480 C2473 0.961 . S
H2481 C2473 0.960 . S
H2482 C2474 0.930 . S
H2483 C2475 0.929 . S
H2484 C2492 0.929 . S
H2485 C2494 0.930 . S
H2486 C2496 0.930 . S
H2487 C2499 0.929 . S
H2488 C2502 0.930 . S
H2489 C2504 0.960 . S
H2490 C2504 0.960 . S
H2491 C2504 0.960 . S
C2492 H2484 0.929 . S
C2492 C2493 1.377 . S
C2492 C2494 1.384 . S
C2493 C2492 1.377 . S
C2493 C2499 1.390 . S
C2494 H2485 0.930 . S
C2494 C2492 1.384 . S
C2494 C2495 1.372 . S
C2495 C2494 1.372 . S
C2495 C2496 1.400 . S
C2495 C2500 1.490 . S
C2496 H2486 0.930 . S
C2496 C2495 1.400 . S
C2496 C2499 1.386 . S
H2497 C2513 0.930 . S
H2498 C2514 0.931 . S
C2499 H2487 0.929 . S
C2499 C2493 1.390 . S
C2499 C2496 1.386 . S
C2500 C2495 1.490 . S
C2500 C2502 1.395 . S
C2500 C2503 1.403 . S
H2501 C2507 0.930 . S
C2502 H2488 0.930 . S
C2502 C2500 1.395 . S
C2502 C2505 1.403 . S
C2503 C2500 1.403 . S
C2503 C2504 1.524 . S
C2503 C2507 1.400 . S
C2504 H2489 0.960 . S
C2504 H2490 0.960 . S
C2504 H2491 0.960 . S
C2504 C2503 1.524 . S
C2505 C2502 1.403 . S
C2505 C2506 1.392 . S
C2505 C2509 1.495 . S
C2506 C2505 1.392 . S
C2506 C2507 1.385 . S
C2506 C2508 1.478 . S
C2507 H2501 0.930 . S
C2507 C2503 1.400 . S
C2507 C2506 1.385 . S
C2508 C2506 1.478 . S
C2508 C2510 1.381 . S
C2508 C2514 1.383 . S
C2509 C2505 1.495 . S
C2509 H2515 0.959 . S
C2509 H2516 0.961 . S
C2509 H2517 0.960 . S
C2510 C2508 1.381 . S
C2510 C2511 1.394 . S
C2510 H2518 0.930 . S
C2511 C2510 1.394 . S
C2511 C2512 1.383 . S
C2511 H2519 0.929 . S
C2512 C2511 1.383 . S
C2512 C2513 1.377 . S
C2513 H2497 0.930 . S
C2513 C2512 1.377 . S
C2513 C2514 1.379 . S
C2514 H2498 0.931 . S
C2514 C2508 1.383 . S
C2514 C2513 1.379 . S
H2515 C2509 0.959 . S
H2516 C2509 0.961 . S
H2517 C2509 0.960 . S
H2518 C2510 0.930 . S
H2519 C2511 0.929 . S
H2520 C2528 0.929 . S
H2521 C2530 0.930 . S
H2522 C2532 0.930 . S
H2523 C2535 0.929 . S
H2524 C2538 0.930 . S
H2525 C2540 0.960 . S
H2526 C2540 0.960 . S
H2527 C2540 0.960 . S
C2528 H2520 0.929 . S
C2528 C2529 1.377 . S
C2528 C2530 1.384 . S
C2529 C2528 1.377 . S
C2529 C2535 1.390 . S
C2530 H2521 0.930 . S
C2530 C2528 1.384 . S
C2530 C2531 1.372 . S
C2531 C2530 1.372 . S
C2531 C2532 1.400 . S
C2531 C2536 1.490 . S
C2532 H2522 0.930 . S
C2532 C2531 1.400 . S
C2532 C2535 1.386 . S
H2533 C2549 0.930 . S
H2534 C2550 0.931 . S
C2535 H2523 0.929 . S
C2535 C2529 1.390 . S
C2535 C2532 1.386 . S
C2536 C2531 1.490 . S
C2536 C2538 1.395 . S
C2536 C2539 1.403 . S
H2537 C2543 0.930 . S
C2538 H2524 0.930 . S
C2538 C2536 1.395 . S
C2538 C2541 1.403 . S
C2539 C2536 1.403 . S
C2539 C2540 1.524 . S
C2539 C2543 1.400 . S
C2540 H2525 0.960 . S
C2540 H2526 0.960 . S
C2540 H2527 0.960 . S
C2540 C2539 1.524 . S
C2541 C2538 1.403 . S
C2541 C2542 1.392 . S
C2541 C2545 1.495 . S
C2542 C2541 1.392 . S
C2542 C2543 1.385 . S
C2542 C2544 1.478 . S
C2543 H2537 0.930 . S
C2543 C2539 1.400 . S
C2543 C2542 1.385 . S
C2544 C2542 1.478 . S
C2544 C2546 1.381 . S
C2544 C2550 1.383 . S
C2545 C2541 1.495 . S
C2545 H2551 0.959 . S
C2545 H2552 0.961 . S
C2545 H2553 0.960 . S
C2546 C2544 1.381 . S
C2546 C2547 1.394 . S
C2546 H2554 0.930 . S
C2547 C2546 1.394 . S
C2547 C2548 1.383 . S
C2547 H2555 0.929 . S
C2548 C2547 1.383 . S
C2548 C2549 1.377 . S
C2549 H2533 0.930 . S
C2549 C2548 1.377 . S
C2549 C2550 1.379 . S
C2550 H2534 0.931 . S
C2550 C2544 1.383 . S
C2550 C2549 1.379 . S
H2551 C2545 0.959 . S
H2552 C2545 0.961 . S
H2553 C2545 0.960 . S
H2554 C2546 0.930 . S
H2555 C2547 0.929 . S
H2556 C2564 0.929 . S
H2557 C2566 0.930 . S
H2558 C2568 0.930 . S
H2559 C2571 0.929 . S
H2560 C2574 0.930 . S
H2561 C2576 0.960 . S
H2562 C2576 0.960 . S
H2563 C2576 0.960 . S
C2564 H2556 0.929 . S
C2564 C2565 1.377 . S
C2564 C2566 1.384 . S
C2565 C2564 1.377 . S
C2565 C2571 1.390 . S
C2566 H2557 0.930 . S
C2566 C2564 1.384 . S
C2566 C2567 1.372 . S
C2567 C2566 1.372 . S
C2567 C2568 1.400 . S
C2567 C2572 1.490 . S
C2568 H2558 0.930 . S
C2568 C2567 1.400 . S
C2568 C2571 1.386 . S
H2569 C2585 0.930 . S
H2570 C2586 0.931 . S
C2571 H2559 0.929 . S
C2571 C2565 1.390 . S
C2571 C2568 1.386 . S
C2572 C2567 1.490 . S
C2572 C2574 1.395 . S
C2572 C2575 1.403 . S
H2573 C2579 0.930 . S
C2574 H2560 0.930 . S
C2574 C2572 1.395 . S
C2574 C2577 1.403 . S
C2575 C2572 1.403 . S
C2575 C2576 1.524 . S
C2575 C2579 1.400 . S
C2576 H2561 0.960 . S
C2576 H2562 0.960 . S
C2576 H2563 0.960 . S
C2576 C2575 1.524 . S
C2577 C2574 1.403 . S
C2577 C2578 1.392 . S
C2577 C2581 1.495 . S
C2578 C2577 1.392 . S
C2578 C2579 1.385 . S
C2578 C2580 1.478 . S
C2579 H2573 0.930 . S
C2579 C2575 1.400 . S
C2579 C2578 1.385 . S
C2580 C2578 1.478 . S
C2580 C2582 1.381 . S
C2580 C2586 1.383 . S
C2581 C2577 1.495 . S
C2581 H2587 0.959 . S
C2581 H2588 0.961 . S
C2581 H2589 0.960 . S
C2582 C2580 1.381 . S
C2582 C2583 1.394 . S
C2582 H2590 0.930 . S
C2583 C2582 1.394 . S
C2583 C2584 1.383 . S
C2583 H2591 0.929 . S
C2584 C2583 1.383 . S
C2584 C2585 1.377 . S
C2585 H2569 0.930 . S
C2585 C2584 1.377 . S
C2585 C2586 1.379 . S
C2586 H2570 0.931 . S
C2586 C2580 1.383 . S
C2586 C2585 1.379 . S
H2587 C2581 0.959 . S
H2588 C2581 0.961 . S
H2589 C2581 0.960 . S
H2590 C2582 0.930 . S
H2591 C2583 0.929 . S
H2592 C2600 0.929 . S
H2593 C2602 0.930 . S
H2594 C2604 0.930 . S
H2595 C2607 0.929 . S
H2596 C2610 0.930 . S
H2597 C2612 0.960 . S
H2598 C2612 0.960 . S
H2599 C2612 0.960 . S
C2600 H2592 0.929 . S
C2600 C2601 1.377 . S
C2600 C2602 1.384 . S
C2601 C2600 1.377 . S
C2601 C2607 1.390 . S
C2602 H2593 0.930 . S
C2602 C2600 1.384 . S
C2602 C2603 1.372 . S
C2603 C2602 1.372 . S
C2603 C2604 1.400 . S
C2603 C2608 1.490 . S
C2604 H2594 0.930 . S
C2604 C2603 1.400 . S
C2604 C2607 1.386 . S
H2605 C2621 0.930 . S
H2606 C2622 0.931 . S
C2607 H2595 0.929 . S
C2607 C2601 1.390 . S
C2607 C2604 1.386 . S
C2608 C2603 1.490 . S
C2608 C2610 1.395 . S
C2608 C2611 1.403 . S
H2609 C2615 0.930 . S
C2610 H2596 0.930 . S
C2610 C2608 1.395 . S
C2610 C2613 1.403 . S
C2611 C2608 1.403 . S
C2611 C2612 1.524 . S
C2611 C2615 1.400 . S
C2612 H2597 0.960 . S
C2612 H2598 0.960 . S
C2612 H2599 0.960 . S
C2612 C2611 1.524 . S
C2613 C2610 1.403 . S
C2613 C2614 1.392 . S
C2613 C2617 1.495 . S
C2614 C2613 1.392 . S
C2614 C2615 1.385 . S
C2614 C2616 1.478 . S
C2615 H2609 0.930 . S
C2615 C2611 1.400 . S
C2615 C2614 1.385 . S
C2616 C2614 1.478 . S
C2616 C2618 1.381 . S
C2616 C2622 1.383 . S
C2617 C2613 1.495 . S
C2617 H2623 0.959 . S
C2617 H2624 0.961 . S
C2617 H2625 0.960 . S
C2618 C2616 1.381 . S
C2618 C2619 1.394 . S
C2618 H2626 0.930 . S
C2619 C2618 1.394 . S
C2619 C2620 1.383 . S
C2619 H2627 0.929 . S
C2620 C2619 1.383 . S
C2620 C2621 1.377 . S
C2621 H2605 0.930 . S
C2621 C2620 1.377 . S
C2621 C2622 1.379 . S
C2622 H2606 0.931 . S
C2622 C2616 1.383 . S
C2622 C2621 1.379 . S
H2623 C2617 0.959 . S
H2624 C2617 0.961 . S
H2625 C2617 0.960 . S
H2626 C2618 0.930 . S
H2627 C2619 0.929 . S
H2628 C2636 0.929 . S
H2629 C2638 0.930 . S
H2630 C2640 0.930 . S
H2631 C2643 0.929 . S
H2632 C2646 0.930 . S
H2633 C2648 0.960 . S
H2634 C2648 0.960 . S
H2635 C2648 0.960 . S
C2636 H2628 0.929 . S
C2636 C2637 1.377 . S
C2636 C2638 1.384 . S
C2637 C2636 1.377 . S
C2637 C2643 1.390 . S
C2638 H2629 0.930 . S
C2638 C2636 1.384 . S
C2638 C2639 1.372 . S
C2639 C2638 1.372 . S
C2639 C2640 1.400 . S
C2639 C2644 1.490 . S
C2640 H2630 0.930 . S
C2640 C2639 1.400 . S
C2640 C2643 1.386 . S
H2641 C2657 0.930 . S
H2642 C2658 0.931 . S
C2643 H2631 0.929 . S
C2643 C2637 1.390 . S
C2643 C2640 1.386 . S
C2644 C2639 1.490 . S
C2644 C2646 1.395 . S
C2644 C2647 1.403 . S
H2645 C2651 0.930 . S
C2646 H2632 0.930 . S
C2646 C2644 1.395 . S
C2646 C2649 1.403 . S
C2647 C2644 1.403 . S
C2647 C2648 1.524 . S
C2647 C2651 1.400 . S
C2648 H2633 0.960 . S
C2648 H2634 0.960 . S
C2648 H2635 0.960 . S
C2648 C2647 1.524 . S
C2649 C2646 1.403 . S
C2649 C2650 1.392 . S
C2649 C2653 1.495 . S
C2650 C2649 1.392 . S
C2650 C2651 1.385 . S
C2650 C2652 1.478 . S
C2651 H2645 0.930 . S
C2651 C2647 1.400 . S
C2651 C2650 1.385 . S
C2652 C2650 1.478 . S
C2652 C2654 1.381 . S
C2652 C2658 1.383 . S
C2653 C2649 1.495 . S
C2653 H2659 0.959 . S
C2653 H2660 0.961 . S
C2653 H2661 0.960 . S
C2654 C2652 1.381 . S
C2654 C2655 1.394 . S
C2654 H2662 0.930 . S
C2655 C2654 1.394 . S
C2655 C2656 1.383 . S
C2655 H2663 0.929 . S
C2656 C2655 1.383 . S
C2656 C2657 1.377 . S
C2657 H2641 0.930 . S
C2657 C2656 1.377 . S
C2657 C2658 1.379 . S
C2658 H2642 0.931 . S
C2658 C2652 1.383 . S
C2658 C2657 1.379 . S
H2659 C2653 0.959 . S
H2660 C2653 0.961 . S
H2661 C2653 0.960 . S
H2662 C2654 0.930 . S
H2663 C2655 0.929 . S
H2664 C2672 0.929 . S
H2665 C2674 0.930 . S
H2666 C2676 0.930 . S
H2667 C2679 0.929 . S
H2668 C2682 0.930 . S
H2669 C2684 0.960 . S
H2670 C2684 0.960 . S
H2671 C2684 0.960 . S
C2672 H2664 0.929 . S
C2672 C2673 1.377 . S
C2672 C2674 1.384 . S
C2673 C2672 1.377 . S
C2673 C2679 1.390 . S
C2674 H2665 0.930 . S
C2674 C2672 1.384 . S
C2674 C2675 1.372 . S
C2675 C2674 1.372 . S
C2675 C2676 1.400 . S
C2675 C2680 1.490 . S
C2676 H2666 0.930 . S
C2676 C2675 1.400 . S
C2676 C2679 1.386 . S
H2677 C2693 0.930 . S
H2678 C2694 0.931 . S
C2679 H2667 0.929 . S
C2679 C2673 1.390 . S
C2679 C2676 1.386 . S
C2680 C2675 1.490 . S
C2680 C2682 1.395 . S
C2680 C2683 1.403 . S
H2681 C2687 0.930 . S
C2682 H2668 0.930 . S
C2682 C2680 1.395 . S
C2682 C2685 1.403 . S
C2683 C2680 1.403 . S
C2683 C2684 1.524 . S
C2683 C2687 1.400 . S
C2684 H2669 0.960 . S
C2684 H2670 0.960 . S
C2684 H2671 0.960 . S
C2684 C2683 1.524 . S
C2685 C2682 1.403 . S
C2685 C2686 1.392 . S
C2685 C2689 1.495 . S
C2686 C2685 1.392 . S
C2686 C2687 1.385 . S
C2686 C2688 1.478 . S
C2687 H2681 0.930 . S
C2687 C2683 1.400 . S
C2687 C2686 1.385 . S
C2688 C2686 1.478 . S
C2688 C2690 1.381 . S
C2688 C2694 1.383 . S
C2689 C2685 1.495 . S
C2689 H2695 0.959 . S
C2689 H2696 0.961 . S
C2689 H2697 0.960 . S
C2690 C2688 1.381 . S
C2690 C2691 1.394 . S
C2690 H2698 0.930 . S
C2691 C2690 1.394 . S
C2691 C2692 1.383 . S
C2691 H2699 0.929 . S
C2692 C2691 1.383 . S
C2692 C2693 1.377 . S
C2693 H2677 0.930 . S
C2693 C2692 1.377 . S
C2693 C2694 1.379 . S
C2694 H2678 0.931 . S
C2694 C2688 1.383 . S
C2694 C2693 1.379 . S
H2695 C2689 0.959 . S
H2696 C2689 0.961 . S
H2697 C2689 0.960 . S
H2698 C2690 0.930 . S
H2699 C2691 0.929 . S
H2700 C2708 0.929 . S
H2701 C2710 0.930 . S
H2702 C2712 0.930 . S
H2703 C2715 0.929 . S
H2704 C2718 0.930 . S
H2705 C2720 0.960 . S
H2706 C2720 0.960 . S
H2707 C2720 0.960 . S
C2708 H2700 0.929 . S
C2708 C2709 1.377 . S
C2708 C2710 1.384 . S
C2709 C2708 1.377 . S
C2709 C2715 1.390 . S
C2710 H2701 0.930 . S
C2710 C2708 1.384 . S
C2710 C2711 1.372 . S
C2711 C2710 1.372 . S
C2711 C2712 1.400 . S
C2711 C2716 1.490 . S
C2712 H2702 0.930 . S
C2712 C2711 1.400 . S
C2712 C2715 1.386 . S
H2713 C2729 0.930 . S
H2714 C2730 0.931 . S
C2715 H2703 0.929 . S
C2715 C2709 1.390 . S
C2715 C2712 1.386 . S
C2716 C2711 1.490 . S
C2716 C2718 1.395 . S
C2716 C2719 1.403 . S
H2717 C2723 0.930 . S
C2718 H2704 0.930 . S
C2718 C2716 1.395 . S
C2718 C2721 1.403 . S
C2719 C2716 1.403 . S
C2719 C2720 1.524 . S
C2719 C2723 1.400 . S
C2720 H2705 0.960 . S
C2720 H2706 0.960 . S
C2720 H2707 0.960 . S
C2720 C2719 1.524 . S
C2721 C2718 1.403 . S
C2721 C2722 1.392 . S
C2721 C2725 1.495 . S
C2722 C2721 1.392 . S
C2722 C2723 1.385 . S
C2722 C2724 1.478 . S
C2723 H2717 0.930 . S
C2723 C2719 1.400 . S
C2723 C2722 1.385 . S
C2724 C2722 1.478 . S
C2724 C2726 1.381 . S
C2724 C2730 1.383 . S
C2725 C2721 1.495 . S
C2725 H2731 0.959 . S
C2725 H2732 0.961 . S
C2725 H2733 0.960 . S
C2726 C2724 1.381 . S
C2726 C2727 1.394 . S
C2726 H2734 0.930 . S
C2727 C2726 1.394 . S
C2727 C2728 1.383 . S
C2727 H2735 0.929 . S
C2728 C2727 1.383 . S
C2728 C2729 1.377 . S
C2729 H2713 0.930 . S
C2729 C2728 1.377 . S
C2729 C2730 1.379 . S
C2730 H2714 0.931 . S
C2730 C2724 1.383 . S
C2730 C2729 1.379 . S
H2731 C2725 0.959 . S
H2732 C2725 0.961 . S
H2733 C2725 0.960 . S
H2734 C2726 0.930 . S
H2735 C2727 0.929 . S
H2736 C2744 0.929 . S
H2737 C2746 0.930 . S
H2738 C2748 0.930 . S
H2739 C2751 0.929 . S
H2740 C2754 0.930 . S
H2741 C2756 0.960 . S
H2742 C2756 0.960 . S
H2743 C2756 0.960 . S
C2744 H2736 0.929 . S
C2744 C2745 1.377 . S
C2744 C2746 1.384 . S
C2745 C2744 1.377 . S
C2745 C2751 1.390 . S
C2746 H2737 0.930 . S
C2746 C2744 1.384 . S
C2746 C2747 1.372 . S
C2747 C2746 1.372 . S
C2747 C2748 1.400 . S
C2747 C2752 1.490 . S
C2748 H2738 0.930 . S
C2748 C2747 1.400 . S
C2748 C2751 1.386 . S
H2749 C2765 0.930 . S
H2750 C2766 0.931 . S
C2751 H2739 0.929 . S
C2751 C2745 1.390 . S
C2751 C2748 1.386 . S
C2752 C2747 1.490 . S
C2752 C2754 1.395 . S
C2752 C2755 1.403 . S
H2753 C2759 0.930 . S
C2754 H2740 0.930 . S
C2754 C2752 1.395 . S
C2754 C2757 1.403 . S
C2755 C2752 1.403 . S
C2755 C2756 1.524 . S
C2755 C2759 1.400 . S
C2756 H2741 0.960 . S
C2756 H2742 0.960 . S
C2756 H2743 0.960 . S
C2756 C2755 1.524 . S
C2757 C2754 1.403 . S
C2757 C2758 1.392 . S
C2757 C2761 1.495 . S
C2758 C2757 1.392 . S
C2758 C2759 1.385 . S
C2758 C2760 1.478 . S
C2759 H2753 0.930 . S
C2759 C2755 1.400 . S
C2759 C2758 1.385 . S
C2760 C2758 1.478 . S
C2760 C2762 1.381 . S
C2760 C2766 1.383 . S
C2761 C2757 1.495 . S
C2761 H2767 0.959 . S
C2761 H2768 0.961 . S
C2761 H2769 0.960 . S
C2762 C2760 1.381 . S
C2762 C2763 1.394 1_565 S
C2762 H2770 0.930 . S
C2763 C2762 1.394 1_545 S
C2763 C2764 1.383 . S
C2763 H2771 0.929 . S
C2764 C2763 1.383 . S
C2764 C2765 1.377 1_545 S
C2765 H2749 0.930 . S
C2765 C2764 1.377 1_565 S
C2765 C2766 1.379 . S
C2766 H2750 0.931 . S
C2766 C2760 1.383 . S
C2766 C2765 1.379 . S
H2767 C2761 0.959 . S
H2768 C2761 0.961 . S
H2769 C2761 0.960 . S
H2770 C2762 0.930 . S
H2771 C2763 0.929 . S
H2772 C2780 0.929 . S
H2773 C2782 0.930 . S
H2774 C2784 0.930 . S
H2775 C2787 0.929 . S
H2776 C2790 0.930 . S
H2777 C2792 0.960 . S
H2778 C2792 0.960 . S
H2779 C2792 0.960 . S
C2780 H2772 0.929 . S
C2780 C2781 1.377 . S
C2780 C2782 1.384 . S
C2781 C2780 1.377 . S
C2781 C2787 1.390 . S
C2782 H2773 0.930 . S
C2782 C2780 1.384 . S
C2782 C2783 1.372 . S
C2783 C2782 1.372 . S
C2783 C2784 1.400 . S
C2783 C2788 1.490 . S
C2784 H2774 0.930 . S
C2784 C2783 1.400 . S
C2784 C2787 1.386 . S
H2785 C2801 0.930 . S
H2786 C2802 0.931 . S
C2787 H2775 0.929 . S
C2787 C2781 1.390 . S
C2787 C2784 1.386 . S
C2788 C2783 1.490 . S
C2788 C2790 1.395 . S
C2788 C2791 1.403 . S
H2789 C2795 0.930 . S
C2790 H2776 0.930 . S
C2790 C2788 1.395 . S
C2790 C2793 1.403 . S
C2791 C2788 1.403 . S
C2791 C2792 1.524 . S
C2791 C2795 1.400 . S
C2792 H2777 0.960 . S
C2792 H2778 0.960 . S
C2792 H2779 0.960 . S
C2792 C2791 1.524 . S
C2793 C2790 1.403 . S
C2793 C2794 1.392 . S
C2793 C2797 1.495 . S
C2794 C2793 1.392 . S
C2794 C2795 1.385 . S
C2794 C2796 1.478 . S
C2795 H2789 0.930 . S
C2795 C2791 1.400 . S
C2795 C2794 1.385 . S
C2796 C2794 1.478 . S
C2796 C2798 1.381 . S
C2796 C2802 1.383 . S
C2797 C2793 1.495 . S
C2797 H2803 0.959 . S
C2797 H2804 0.961 . S
C2797 H2805 0.960 . S
C2798 C2796 1.381 . S
C2798 C2799 1.394 . S
C2798 H2806 0.930 . S
C2799 C2798 1.394 . S
C2799 C2800 1.383 . S
C2799 H2807 0.929 . S
C2800 C2799 1.383 . S
C2800 C2801 1.377 . S
C2801 H2785 0.930 . S
C2801 C2800 1.377 . S
C2801 C2802 1.379 . S
C2802 H2786 0.931 . S
C2802 C2796 1.383 . S
C2802 C2801 1.379 . S
H2803 C2797 0.959 . S
H2804 C2797 0.961 . S
H2805 C2797 0.960 . S
H2806 C2798 0.930 . S
H2807 C2799 0.929 . S
H2808 C2816 0.916 1_565 S
H2809 C2818 0.930 1_565 S
H2810 C2820 0.930 . S
H2811 C2823 0.929 . S
H2812 C2826 0.930 . S
H2813 C2828 0.960 . S
H2814 C2828 0.960 . S
H2815 C2828 0.960 . S
C2816 H2808 0.916 1_545 S
C2816 C2817 1.393 . S
C2816 C2818 1.387 . S
C2817 C2816 1.393 . S
C2817 C2823 1.390 . S
C2818 H2809 0.930 1_545 S
C2818 C2816 1.387 . S
C2818 C2819 1.372 . S
C2819 C2818 1.372 . S
C2819 C2820 1.400 . S
C2819 C2824 1.490 . S
C2820 H2810 0.930 . S
C2820 C2819 1.400 . S
C2820 C2823 1.386 . S
H2821 C2837 0.930 . S
H2822 C2838 0.931 . S
C2823 H2811 0.929 . S
C2823 C2817 1.390 . S
C2823 C2820 1.386 . S
C2824 C2819 1.490 . S
C2824 C2826 1.395 1_545 S
C2824 C2827 1.403 . S
H2825 C2831 0.930 . S
C2826 H2812 0.930 . S
C2826 C2824 1.395 1_565 S
C2826 C2829 1.403 . S
C2827 C2824 1.403 . S
C2827 C2828 1.524 . S
C2827 C2831 1.400 . S
C2828 H2813 0.960 . S
C2828 H2814 0.960 . S
C2828 H2815 0.960 . S
C2828 C2827 1.524 . S
C2829 C2826 1.403 . S
C2829 C2830 1.392 1_565 S
C2829 C2833 1.495 . S
C2830 C2829 1.392 1_545 S
C2830 C2831 1.385 . S
C2830 C2832 1.478 . S
C2831 H2825 0.930 . S
C2831 C2827 1.400 . S
C2831 C2830 1.385 . S
C2832 C2830 1.478 . S
C2832 C2834 1.381 . S
C2832 C2838 1.383 . S
C2833 C2829 1.495 . S
C2833 H2839 0.959 . S
C2833 H2840 0.961 . S
C2833 H2841 0.960 . S
C2834 C2832 1.381 . S
C2834 C2835 1.394 . S
C2834 H2842 0.930 . S
C2835 C2834 1.394 . S
C2835 C2836 1.383 . S
C2835 H2843 0.929 . S
C2836 C2835 1.383 . S
C2836 C2837 1.377 . S
C2837 H2821 0.930 . S
C2837 C2836 1.377 . S
C2837 C2838 1.379 . S
C2838 H2822 0.931 . S
C2838 C2832 1.383 . S
C2838 C2837 1.379 . S
H2839 C2833 0.959 . S
H2840 C2833 0.961 . S
H2841 C2833 0.960 . S
H2842 C2834 0.930 . S
H2843 C2835 0.929 . S
H2844 C2852 0.929 . S
H2845 C2854 0.930 . S
H2846 C2856 0.930 . S
H2847 C2859 0.929 . S
H2848 C2862 0.930 . S
H2849 C2864 0.960 . S
H2850 C2864 0.960 . S
H2851 C2864 0.960 . S
C2852 H2844 0.929 . S
C2852 C2853 1.377 . S
C2852 C2854 1.384 . S
C2853 C2852 1.377 . S
C2853 C2859 1.390 . S
C2854 H2845 0.930 . S
C2854 C2852 1.384 . S
C2854 C2855 1.372 . S
C2855 C2854 1.372 . S
C2855 C2856 1.400 . S
C2855 C2860 1.490 . S
C2856 H2846 0.930 . S
C2856 C2855 1.400 . S
C2856 C2859 1.386 . S
H2857 C2873 0.930 . S
H2858 C2874 0.931 . S
C2859 H2847 0.929 . S
C2859 C2853 1.390 . S
C2859 C2856 1.386 . S
C2860 C2855 1.490 . S
C2860 C2862 1.395 . S
C2860 C2863 1.403 . S
H2861 C2867 0.930 . S
C2862 H2848 0.930 . S
C2862 C2860 1.395 . S
C2862 C2865 1.403 . S
C2863 C2860 1.403 . S
C2863 C2864 1.524 . S
C2863 C2867 1.400 . S
C2864 H2849 0.960 . S
C2864 H2850 0.960 . S
C2864 H2851 0.960 . S
C2864 C2863 1.524 . S
C2865 C2862 1.403 . S
C2865 C2866 1.392 . S
C2865 C2869 1.495 . S
C2866 C2865 1.392 . S
C2866 C2867 1.385 . S
C2866 C2868 1.478 . S
C2867 H2861 0.930 . S
C2867 C2863 1.400 . S
C2867 C2866 1.385 . S
C2868 C2866 1.478 . S
C2868 C2870 1.381 . S
C2868 C2874 1.383 . S
C2869 C2865 1.495 . S
C2869 H2875 0.959 . S
C2869 H2876 0.961 . S
C2869 H2877 0.960 . S
C2870 C2868 1.381 . S
C2870 C2871 1.394 . S
C2870 H2878 0.930 . S
C2871 C2870 1.394 . S
C2871 C2872 1.383 . S
C2871 H2879 0.929 . S
C2872 C2871 1.383 . S
C2872 C2873 1.377 . S
C2873 H2857 0.930 . S
C2873 C2872 1.377 . S
C2873 C2874 1.379 . S
C2874 H2858 0.931 . S
C2874 C2868 1.383 . S
C2874 C2873 1.379 . S
H2875 C2869 0.959 . S
H2876 C2869 0.961 . S
H2877 C2869 0.960 . S
H2878 C2870 0.930 . S
H2879 C2871 0.929 . S
H2880 C2888 0.929 . S
H2881 C2890 0.930 . S
H2882 C2892 0.930 . S
H2883 C2895 0.929 . S
H2884 C2898 0.930 . S
H2885 C2900 0.960 . S
H2886 C2900 0.960 . S
H2887 C2900 0.960 . S
C2888 H2880 0.929 . S
C2888 C2889 1.377 . S
C2888 C2890 1.384 . S
C2889 C2888 1.377 . S
C2889 C2895 1.390 . S
C2890 H2881 0.930 . S
C2890 C2888 1.384 . S
C2890 C2891 1.372 . S
C2891 C2890 1.372 . S
C2891 C2892 1.400 . S
C2891 C2896 1.490 . S
C2892 H2882 0.930 . S
C2892 C2891 1.400 . S
C2892 C2895 1.386 . S
H2893 C2909 0.930 . S
H2894 C2910 0.931 . S
C2895 H2883 0.929 . S
C2895 C2889 1.390 . S
C2895 C2892 1.386 . S
C2896 C2891 1.490 . S
C2896 C2898 1.395 . S
C2896 C2899 1.403 . S
H2897 C2903 0.930 . S
C2898 H2884 0.930 . S
C2898 C2896 1.395 . S
C2898 C2901 1.403 . S
C2899 C2896 1.403 . S
C2899 C2900 1.524 . S
C2899 C2903 1.400 . S
C2900 H2885 0.960 . S
C2900 H2886 0.960 . S
C2900 H2887 0.960 . S
C2900 C2899 1.524 . S
C2901 C2898 1.403 . S
C2901 C2902 1.392 . S
C2901 C2905 1.495 . S
C2902 C2901 1.392 . S
C2902 C2903 1.385 . S
C2902 C2904 1.478 . S
C2903 H2897 0.930 . S
C2903 C2899 1.400 . S
C2903 C2902 1.385 . S
C2904 C2902 1.478 . S
C2904 C2906 1.381 . S
C2904 C2910 1.383 . S
C2905 C2901 1.495 . S
C2905 H2911 0.959 . S
C2905 H2912 0.961 . S
C2905 H2913 0.960 . S
C2906 C2904 1.381 . S
C2906 C2907 1.394 . S
C2906 H2914 0.930 . S
C2907 C2906 1.394 . S
C2907 C2908 1.383 . S
C2907 H2915 0.929 . S
C2908 C2907 1.383 . S
C2908 C2909 1.377 . S
C2909 H2893 0.930 . S
C2909 C2908 1.377 . S
C2909 C2910 1.379 . S
C2910 H2894 0.931 . S
C2910 C2904 1.383 . S
C2910 C2909 1.379 . S
H2911 C2905 0.959 . S
H2912 C2905 0.961 . S
H2913 C2905 0.960 . S
H2914 C2906 0.930 . S
H2915 C2907 0.929 . S
H2916 C2924 0.929 . S
H2917 C2926 0.930 . S
H2918 C2928 0.930 . S
H2919 C2931 0.929 . S
H2920 C2934 0.930 . S
H2921 C2936 0.960 . S
H2922 C2936 0.960 . S
H2923 C2936 0.960 . S
C2924 H2916 0.929 . S
C2924 C2925 1.377 . S
C2924 C2926 1.384 . S
C2925 C2924 1.377 . S
C2925 C2931 1.390 . S
C2926 H2917 0.930 . S
C2926 C2924 1.384 . S
C2926 C2927 1.372 . S
C2927 C2926 1.372 . S
C2927 C2928 1.400 . S
C2927 C2932 1.490 . S
C2928 H2918 0.930 . S
C2928 C2927 1.400 . S
C2928 C2931 1.386 . S
H2929 C2945 0.930 . S
H2930 C2946 0.931 . S
C2931 H2919 0.929 . S
C2931 C2925 1.390 . S
C2931 C2928 1.386 . S
C2932 C2927 1.490 . S
C2932 C2934 1.395 . S
C2932 C2935 1.403 . S
H2933 C2939 0.930 . S
C2934 H2920 0.930 . S
C2934 C2932 1.395 . S
C2934 C2937 1.403 . S
C2935 C2932 1.403 . S
C2935 C2936 1.524 . S
C2935 C2939 1.400 . S
C2936 H2921 0.960 . S
C2936 H2922 0.960 . S
C2936 H2923 0.960 . S
C2936 C2935 1.524 . S
C2937 C2934 1.403 . S
C2937 C2938 1.392 . S
C2937 C2941 1.495 . S
C2938 C2937 1.392 . S
C2938 C2939 1.385 . S
C2938 C2940 1.478 . S
C2939 H2933 0.930 . S
C2939 C2935 1.400 . S
C2939 C2938 1.385 . S
C2940 C2938 1.478 . S
C2940 C2942 1.381 . S
C2940 C2946 1.383 . S
C2941 C2937 1.495 . S
C2941 H2947 0.959 . S
C2941 H2948 0.961 . S
C2941 H2949 0.960 . S
C2942 C2940 1.381 . S
C2942 C2943 1.394 . S
C2942 H2950 0.930 . S
C2943 C2942 1.394 . S
C2943 C2944 1.383 . S
C2943 H2951 0.929 . S
C2944 C2943 1.383 . S
C2944 C2945 1.377 . S
C2945 H2929 0.930 . S
C2945 C2944 1.377 . S
C2945 C2946 1.379 . S
C2946 H2930 0.931 . S
C2946 C2940 1.383 . S
C2946 C2945 1.379 . S
H2947 C2941 0.959 . S
H2948 C2941 0.961 . S
H2949 C2941 0.960 . S
H2950 C2942 0.930 . S
H2951 C2943 0.929 . S
H2952 C2960 0.929 . S
H2953 C2962 0.930 . S
H2954 C2964 0.921 1_545 S
H2955 C2967 0.929 . S
H2956 C2970 0.930 . S
H2957 C2972 0.960 . S
H2958 C2972 0.960 . S
H2959 C2972 0.960 . S
C2960 H2952 0.929 . S
C2960 C2961 1.377 . S
C2960 C2962 1.384 . S
C2961 C2960 1.377 . S
C2961 C2967 1.390 . S
C2962 H2953 0.930 . S
C2962 C2960 1.384 . S
C2962 C2963 1.372 . S
C2963 C2962 1.372 . S
C2963 C2964 1.393 . S
C2963 C2968 1.490 1_565 S
C2964 H2954 0.921 1_565 S
C2964 C2963 1.393 . S
C2964 C2967 1.404 . S
H2965 C2981 0.930 . S
H2966 C2982 0.931 . S
C2967 H2955 0.929 . S
C2967 C2961 1.390 . S
C2967 C2964 1.404 . S
C2968 C2963 1.490 1_545 S
C2968 C2970 1.395 . S
C2968 C2971 1.403 1_545 S
H2969 C2975 0.930 . S
C2970 H2956 0.930 . S
C2970 C2968 1.395 . S
C2970 C2973 1.403 . S
C2971 C2968 1.403 1_565 S
C2971 C2972 1.524 . S
C2971 C2975 1.400 . S
C2972 H2957 0.960 . S
C2972 H2958 0.960 . S
C2972 H2959 0.960 . S
C2972 C2971 1.524 . S
C2973 C2970 1.403 . S
C2973 C2974 1.392 . S
C2973 C2977 1.495 . S
C2974 C2973 1.392 . S
C2974 C2975 1.385 1_545 S
C2974 C2976 1.478 . S
C2975 H2969 0.930 . S
C2975 C2971 1.400 . S
C2975 C2974 1.385 1_565 S
C2976 C2974 1.478 . S
C2976 C2978 1.381 . S
C2976 C2982 1.383 . S
C2977 C2973 1.495 . S
C2977 H2983 0.959 . S
C2977 H2984 0.961 . S
C2977 H2985 0.960 . S
C2978 C2976 1.381 . S
C2978 C2979 1.394 . S
C2978 H2986 0.930 . S
C2979 C2978 1.394 . S
C2979 C2980 1.383 . S
C2979 H2987 0.929 . S
C2980 C2979 1.383 . S
C2980 C2981 1.377 . S
C2981 H2965 0.930 . S
C2981 C2980 1.377 . S
C2981 C2982 1.379 . S
C2982 H2966 0.931 . S
C2982 C2976 1.383 . S
C2982 C2981 1.379 . S
H2983 C2977 0.959 . S
H2984 C2977 0.961 . S
H2985 C2977 0.960 . S
H2986 C2978 0.930 . S
H2987 C2979 0.929 . S
H2988 C2996 0.929 . S
H2989 C2998 0.930 . S
H2990 C3000 0.930 . S
H2991 C3003 0.929 . S
H2992 C3006 0.930 . S
H2993 C3008 0.960 . S
H2994 C3008 0.960 . S
H2995 C3008 0.960 . S
C2996 H2988 0.929 . S
C2996 C2997 1.377 . S
C2996 C2998 1.384 . S
C2997 C2996 1.377 . S
C2997 C3003 1.390 . S
C2998 H2989 0.930 . S
C2998 C2996 1.384 . S
C2998 C2999 1.372 . S
C2999 C2998 1.372 . S
C2999 C3000 1.400 . S
C2999 C3004 1.490 . S
C3000 H2990 0.930 . S
C3000 C2999 1.400 . S
C3000 C3003 1.386 . S
H3001 C3017 0.930 . S
H3002 C3018 0.931 . S
C3003 H2991 0.929 . S
C3003 C2997 1.390 . S
C3003 C3000 1.386 . S
C3004 C2999 1.490 . S
C3004 C3006 1.395 . S
C3004 C3007 1.403 . S
H3005 C3011 0.930 . S
C3006 H2992 0.930 . S
C3006 C3004 1.395 . S
C3006 C3009 1.403 . S
C3007 C3004 1.403 . S
C3007 C3008 1.524 . S
C3007 C3011 1.400 . S
C3008 H2993 0.960 . S
C3008 H2994 0.960 . S
C3008 H2995 0.960 . S
C3008 C3007 1.524 . S
C3009 C3006 1.403 . S
C3009 C3010 1.392 . S
C3009 C3013 1.495 . S
C3010 C3009 1.392 . S
C3010 C3011 1.385 . S
C3010 C3012 1.478 . S
C3011 H3005 0.930 . S
C3011 C3007 1.400 . S
C3011 C3010 1.385 . S
C3012 C3010 1.478 . S
C3012 C3014 1.381 . S
C3012 C3018 1.383 . S
C3013 C3009 1.495 . S
C3013 H3019 0.959 . S
C3013 H3020 0.961 . S
C3013 H3021 0.960 . S
C3014 C3012 1.381 . S
C3014 C3015 1.394 . S
C3014 H3022 0.930 . S
C3015 C3014 1.394 . S
C3015 C3016 1.383 . S
C3015 H3023 0.929 . S
C3016 C3015 1.383 . S
C3016 C3017 1.377 . S
C3017 H3001 0.930 . S
C3017 C3016 1.377 . S
C3017 C3018 1.379 . S
C3018 H3002 0.931 . S
C3018 C3012 1.383 . S
C3018 C3017 1.379 . S
H3019 C3013 0.959 . S
H3020 C3013 0.961 . S
H3021 C3013 0.960 . S
H3022 C3014 0.930 . S
H3023 C3015 0.929 . S
H3024 C3032 0.929 . S
H3025 C3034 0.930 . S
H3026 C3036 0.930 . S
H3027 C3039 0.929 . S
H3028 C3042 0.930 . S
H3029 C3044 0.960 . S
H3030 C3044 0.960 . S
H3031 C3044 0.960 . S
C3032 H3024 0.929 . S
C3032 C3033 1.377 . S
C3032 C3034 1.384 . S
C3033 C3032 1.377 . S
C3033 C3039 1.390 . S
C3034 H3025 0.930 . S
C3034 C3032 1.384 . S
C3034 C3035 1.372 . S
C3035 C3034 1.372 . S
C3035 C3036 1.400 . S
C3035 C3040 1.490 . S
C3036 H3026 0.930 . S
C3036 C3035 1.400 . S
C3036 C3039 1.386 . S
H3037 C3053 0.930 . S
H3038 C3054 0.931 . S
C3039 H3027 0.929 . S
C3039 C3033 1.390 . S
C3039 C3036 1.386 . S
C3040 C3035 1.490 . S
C3040 C3042 1.395 . S
C3040 C3043 1.403 . S
H3041 C3047 0.930 . S
C3042 H3028 0.930 . S
C3042 C3040 1.395 . S
C3042 C3045 1.403 . S
C3043 C3040 1.403 . S
C3043 C3044 1.524 1_545 S
C3043 C3047 1.400 . S
C3044 H3029 0.960 . S
C3044 H3030 0.960 . S
C3044 H3031 0.960 . S
C3044 C3043 1.524 1_565 S
C3045 C3042 1.403 . S
C3045 C3046 1.392 . S
C3045 C3049 1.495 . S
C3046 C3045 1.392 . S
C3046 C3047 1.385 . S
C3046 C3048 1.478 . S
C3047 H3041 0.930 . S
C3047 C3043 1.400 . S
C3047 C3046 1.385 . S
C3048 C3046 1.478 . S
C3048 C3050 1.381 . S
C3048 C3054 1.383 . S
C3049 C3045 1.495 . S
C3049 H3055 0.959 . S
C3049 H3056 0.961 . S
C3049 H3057 0.960 . S
C3050 C3048 1.381 . S
C3050 C3051 1.394 . S
C3050 H3058 0.930 . S
C3051 C3050 1.394 . S
C3051 C3052 1.383 . S
C3051 H3059 0.929 . S
C3052 C3051 1.383 . S
C3052 C3053 1.377 . S
C3053 H3037 0.930 . S
C3053 C3052 1.377 . S
C3053 C3054 1.379 . S
C3054 H3038 0.931 . S
C3054 C3048 1.383 . S
C3054 C3053 1.379 . S
H3055 C3049 0.959 . S
H3056 C3049 0.961 . S
H3057 C3049 0.960 . S
H3058 C3050 0.930 . S
H3059 C3051 0.929 . S
H3060 C3068 0.929 . S
H3061 C3070 0.930 . S
H3062 C3072 0.930 . S
H3063 C3075 0.929 . S
H3064 C3078 0.930 . S
H3065 C3080 0.960 . S
H3066 C3080 0.960 . S
H3067 C3080 0.960 . S
C3068 H3060 0.929 . S
C3068 C3069 1.377 . S
C3068 C3070 1.384 . S
C3069 C3068 1.377 . S
C3069 C3075 1.390 . S
C3070 H3061 0.930 . S
C3070 C3068 1.384 . S
C3070 C3071 1.372 . S
C3071 C3070 1.372 . S
C3071 C3072 1.400 . S
C3071 C3076 1.490 . S
C3072 H3062 0.930 . S
C3072 C3071 1.400 . S
C3072 C3075 1.386 . S
H3073 C3089 0.930 . S
H3074 C3090 0.931 . S
C3075 H3063 0.929 . S
C3075 C3069 1.390 . S
C3075 C3072 1.386 . S
C3076 C3071 1.490 . S
C3076 C3078 1.395 . S
C3076 C3079 1.403 . S
H3077 C3083 0.930 . S
C3078 H3064 0.930 . S
C3078 C3076 1.395 . S
C3078 C3081 1.403 . S
C3079 C3076 1.403 . S
C3079 C3080 1.524 . S
C3079 C3083 1.400 . S
C3080 H3065 0.960 . S
C3080 H3066 0.960 . S
C3080 H3067 0.960 . S
C3080 C3079 1.524 . S
C3081 C3078 1.403 . S
C3081 C3082 1.392 . S
C3081 C3085 1.495 . S
C3082 C3081 1.392 . S
C3082 C3083 1.385 . S
C3082 C3084 1.478 . S
C3083 H3077 0.930 . S
C3083 C3079 1.400 . S
C3083 C3082 1.385 . S
C3084 C3082 1.478 . S
C3084 C3086 1.381 . S
C3084 C3090 1.383 . S
C3085 C3081 1.495 . S
C3085 H3091 0.959 . S
C3085 H3092 0.961 . S
C3085 H3093 0.960 . S
C3086 C3084 1.381 . S
C3086 C3087 1.394 . S
C3086 H3094 0.930 . S
C3087 C3086 1.394 . S
C3087 C3088 1.383 . S
C3087 H3095 0.929 . S
C3088 C3087 1.383 . S
C3088 C3089 1.377 . S
C3089 H3073 0.930 . S
C3089 C3088 1.377 . S
C3089 C3090 1.379 . S
C3090 H3074 0.931 . S
C3090 C3084 1.383 . S
C3090 C3089 1.379 . S
H3091 C3085 0.959 . S
H3092 C3085 0.961 . S
H3093 C3085 0.960 . S
H3094 C3086 0.930 . S
H3095 C3087 0.929 . S
H3096 C3104 0.929 . S
H3097 C3106 0.930 . S
H3098 C3108 0.930 . S
H3099 C3111 0.929 . S
H3100 C3114 0.930 . S
H3101 C3116 0.960 . S
H3102 C3116 0.960 1_554 S
H3103 C3116 0.960 . S
C3104 H3096 0.929 . S
C3104 C3105 1.377 . S
C3104 C3106 1.384 . S
C3105 C3104 1.377 . S
C3105 C3111 1.390 . S
C3106 H3097 0.930 . S
C3106 C3104 1.384 . S
C3106 C3107 1.372 . S
C3107 C3106 1.372 . S
C3107 C3108 1.400 . S
C3107 C3112 1.490 . S
C3108 H3098 0.930 . S
C3108 C3107 1.400 . S
C3108 C3111 1.386 . S
H3109 C3125 0.930 . S
H3110 C3126 0.931 . S
C3111 H3099 0.929 . S
C3111 C3105 1.390 . S
C3111 C3108 1.386 . S
C3112 C3107 1.490 . S
C3112 C3114 1.395 . S
C3112 C3115 1.403 . S
H3113 C3119 0.930 . S
C3114 H3100 0.930 . S
C3114 C3112 1.395 . S
C3114 C3117 1.403 . S
C3115 C3112 1.403 . S
C3115 C3116 1.524 1_554 S
C3115 C3119 1.400 . S
C3116 H3101 0.960 . S
C3116 H3102 0.960 1_556 S
C3116 H3103 0.960 . S
C3116 C3115 1.524 1_556 S
C3117 C3114 1.403 . S
C3117 C3118 1.392 . S
C3117 C3121 1.495 . S
C3118 C3117 1.392 . S
C3118 C3119 1.385 . S
C3118 C3120 1.478 . S
C3119 H3113 0.930 . S
C3119 C3115 1.400 . S
C3119 C3118 1.385 . S
C3120 C3118 1.478 . S
C3120 C3122 1.381 . S
C3120 C3126 1.383 . S
C3121 C3117 1.495 . S
C3121 H3127 0.959 . S
C3121 H3128 0.961 . S
C3121 H3129 0.960 . S
C3122 C3120 1.381 . S
C3122 C3123 1.394 . S
C3122 H3130 0.930 . S
C3123 C3122 1.394 . S
C3123 C3124 1.383 . S
C3123 H3131 0.929 . S
C3124 C3123 1.383 . S
C3124 C3125 1.377 . S
C3125 H3109 0.930 . S
C3125 C3124 1.377 . S
C3125 C3126 1.379 . S
C3126 H3110 0.931 . S
C3126 C3120 1.383 . S
C3126 C3125 1.379 . S
H3127 C3121 0.959 . S
H3128 C3121 0.961 . S
H3129 C3121 0.960 . S
H3130 C3122 0.930 . S
H3131 C3123 0.929 . S
H3132 C3140 0.929 . S
H3133 C3142 0.930 . S
H3134 C3144 0.930 . S
H3135 C3147 0.929 . S
H3136 C3150 0.930 . S
H3137 C3152 0.960 . S
H3138 C3152 0.960 . S
H3139 C3152 0.960 . S
C3140 H3132 0.929 . S
C3140 C3141 1.377 . S
C3140 C3142 1.384 . S
C3141 C3140 1.377 . S
C3141 C3147 1.390 . S
C3142 H3133 0.930 . S
C3142 C3140 1.384 . S
C3142 C3143 1.372 . S
C3143 C3142 1.372 . S
C3143 C3144 1.400 . S
C3143 C3148 1.490 . S
C3144 H3134 0.930 . S
C3144 C3143 1.400 . S
C3144 C3147 1.386 . S
H3145 C3161 0.962 . S
H3146 C3162 0.931 . S
C3147 H3135 0.929 . S
C3147 C3141 1.390 . S
C3147 C3144 1.386 . S
C3148 C3143 1.490 . S
C3148 C3150 1.395 . S
C3148 C3151 1.403 . S
H3149 C3155 0.930 . S
C3150 H3136 0.930 . S
C3150 C3148 1.395 . S
C3150 C3153 1.403 . S
C3151 C3148 1.403 . S
C3151 C3152 1.524 . S
C3151 C3155 1.400 . S
C3152 H3137 0.960 . S
C3152 H3138 0.960 . S
C3152 H3139 0.960 . S
C3152 C3151 1.524 . S
C3153 C3150 1.403 . S
C3153 C3154 1.392 . S
C3153 C3157 1.495 . S
C3154 C3153 1.392 . S
C3154 C3155 1.385 . S
C3154 C3156 1.478 . S
C3155 H3149 0.930 . S
C3155 C3151 1.400 . S
C3155 C3154 1.385 . S
C3156 C3154 1.478 . S
C3156 C3158 1.381 . S
C3156 C3162 1.383 . S
C3157 C3153 1.495 . S
C3157 H3163 0.959 . S
C3157 H3164 0.961 . S
C3157 H3165 0.960 . S
C3158 C3156 1.381 . S
C3158 C3159 1.394 . S
C3158 H3166 0.930 . S
C3159 C3158 1.394 . S
C3159 C3160 1.383 . S
C3159 H3167 0.929 . S
C3160 C3159 1.383 . S
C3160 C3161 1.377 . S
C3161 H3145 0.962 . S
C3161 C3160 1.377 . S
C3161 C3162 1.379 . S
C3162 H3146 0.931 . S
C3162 C3156 1.383 . S
C3162 C3161 1.379 . S
H3163 C3157 0.959 . S
H3164 C3157 0.961 . S
H3165 C3157 0.960 . S
H3166 C3158 0.930 . S
H3167 C3159 0.929 . S
H3168 C3176 0.929 . S
H3169 C3178 0.930 . S
H3170 C3180 0.930 . S
H3171 C3183 0.929 . S
H3172 C3186 0.930 . S
H3173 C3188 0.960 . S
H3174 C3188 0.960 . S
H3175 C3188 0.960 . S
C3176 H3168 0.929 . S
C3176 C3177 1.377 . S
C3176 C3178 1.384 . S
C3177 C3176 1.377 . S
C3177 C3183 1.390 . S
C3178 H3169 0.930 . S
C3178 C3176 1.384 . S
C3178 C3179 1.372 . S
C3179 C3178 1.372 . S
C3179 C3180 1.400 . S
C3179 C3184 1.490 . S
C3180 H3170 0.930 . S
C3180 C3179 1.400 . S
C3180 C3183 1.386 . S
H3181 C3197 0.930 . S
H3182 C3198 0.931 . S
C3183 H3171 0.929 . S
C3183 C3177 1.390 . S
C3183 C3180 1.386 . S
C3184 C3179 1.490 . S
C3184 C3186 1.395 . S
C3184 C3187 1.403 . S
H3185 C3191 0.930 . S
C3186 H3172 0.930 . S
C3186 C3184 1.395 . S
C3186 C3189 1.403 . S
C3187 C3184 1.403 . S
C3187 C3188 1.524 . S
C3187 C3191 1.400 . S
C3188 H3173 0.960 . S
C3188 H3174 0.960 . S
C3188 H3175 0.960 . S
C3188 C3187 1.524 . S
C3189 C3186 1.403 . S
C3189 C3190 1.392 . S
C3189 C3193 1.495 . S
C3190 C3189 1.392 . S
C3190 C3191 1.385 . S
C3190 C3192 1.478 . S
C3191 H3185 0.930 . S
C3191 C3187 1.400 . S
C3191 C3190 1.385 . S
C3192 C3190 1.478 . S
C3192 C3194 1.381 . S
C3192 C3198 1.383 . S
C3193 C3189 1.495 . S
C3193 H3199 0.959 . S
C3193 H3200 0.961 . S
C3193 H3201 0.960 . S
C3194 C3192 1.381 . S
C3194 C3195 1.394 . S
C3194 H3202 0.930 . S
C3195 C3194 1.394 . S
C3195 C3196 1.383 . S
C3195 H3203 0.929 . S
C3196 C3195 1.383 . S
C3196 C3197 1.377 . S
C3197 H3181 0.930 . S
C3197 C3196 1.377 . S
C3197 C3198 1.379 . S
C3198 H3182 0.931 . S
C3198 C3192 1.383 . S
C3198 C3197 1.379 . S
H3199 C3193 0.959 . S
H3200 C3193 0.961 . S
H3201 C3193 0.960 . S
H3202 C3194 0.930 . S
H3203 C3195 0.929 . S
H3204 C3212 0.929 . S
H3205 C3214 0.930 . S
H3206 C3216 0.930 . S
H3207 C3219 0.929 . S
H3208 C3222 0.930 . S
H3209 C3224 0.960 . S
H3210 C3224 0.960 . S
H3211 C3224 0.960 . S
C3212 H3204 0.929 . S
C3212 C3213 1.377 . S
C3212 C3214 1.384 . S
C3213 C3212 1.377 . S
C3213 C3219 1.390 . S
C3214 H3205 0.930 . S
C3214 C3212 1.384 . S
C3214 C3215 1.372 . S
C3215 C3214 1.372 . S
C3215 C3216 1.400 . S
C3215 C3220 1.490 . S
C3216 H3206 0.930 . S
C3216 C3215 1.400 . S
C3216 C3219 1.386 . S
H3217 C3233 0.930 . S
H3218 C3234 0.931 . S
C3219 H3207 0.929 . S
C3219 C3213 1.390 . S
C3219 C3216 1.386 . S
C3220 C3215 1.490 . S
C3220 C3222 1.395 . S
C3220 C3223 1.403 . S
H3221 C3227 0.930 . S
C3222 H3208 0.930 . S
C3222 C3220 1.395 . S
C3222 C3225 1.403 . S
C3223 C3220 1.403 . S
C3223 C3224 1.524 . S
C3223 C3227 1.400 . S
C3224 H3209 0.960 . S
C3224 H3210 0.960 . S
C3224 H3211 0.960 . S
C3224 C3223 1.524 . S
C3225 C3222 1.403 . S
C3225 C3226 1.392 . S
C3225 C3229 1.495 . S
C3226 C3225 1.392 . S
C3226 C3227 1.385 . S
C3226 C3228 1.478 . S
C3227 H3221 0.930 . S
C3227 C3223 1.400 . S
C3227 C3226 1.385 . S
C3228 C3226 1.478 . S
C3228 C3230 1.381 . S
C3228 C3234 1.383 . S
C3229 C3225 1.495 . S
C3229 H3235 0.959 . S
C3229 H3236 0.961 . S
C3229 H3237 0.960 . S
C3230 C3228 1.381 . S
C3230 C3231 1.394 . S
C3230 H3238 0.930 . S
C3231 C3230 1.394 . S
C3231 C3232 1.383 . S
C3231 H3239 0.929 . S
C3232 C3231 1.383 . S
C3232 C3233 1.377 . S
C3233 H3217 0.930 . S
C3233 C3232 1.377 . S
C3233 C3234 1.379 . S
C3234 H3218 0.931 . S
C3234 C3228 1.383 . S
C3234 C3233 1.379 . S
H3235 C3229 0.959 . S
H3236 C3229 0.961 . S
H3237 C3229 0.960 . S
H3238 C3230 0.930 . S
H3239 C3231 0.929 . S
H3240 C3248 0.929 . S
H3241 C3250 0.930 . S
H3242 C3252 0.930 . S
H3243 C3255 0.929 . S
H3244 C3258 0.930 . S
H3245 C3260 0.960 . S
H3246 C3260 0.960 . S
H3247 C3260 0.960 . S
C3248 H3240 0.929 . S
C3248 C3249 1.417 . S
C3248 C3250 1.384 . S
C3249 C3248 1.417 . S
C3249 C3255 1.399 1_565 S
C3250 H3241 0.930 . S
C3250 C3248 1.384 . S
C3250 C3251 1.372 . S
C3251 C3250 1.372 . S
C3251 C3252 1.400 . S
C3251 C3256 1.490 . S
C3252 H3242 0.930 . S
C3252 C3251 1.400 . S
C3252 C3255 1.385 1_565 S
H3253 C3269 0.930 . S
H3254 C3270 0.931 . S
C3255 H3243 0.929 . S
C3255 C3249 1.399 1_545 S
C3255 C3252 1.385 1_545 S
C3256 C3251 1.490 . S
C3256 C3258 1.395 . S
C3256 C3259 1.403 . S
H3257 C3263 0.930 . S
C3258 H3244 0.930 . S
C3258 C3256 1.395 . S
C3258 C3261 1.403 . S
C3259 C3256 1.403 . S
C3259 C3260 1.524 . S
C3259 C3263 1.400 . S
C3260 H3245 0.960 . S
C3260 H3246 0.960 . S
C3260 H3247 0.960 . S
C3260 C3259 1.524 . S
C3261 C3258 1.403 . S
C3261 C3262 1.392 . S
C3261 C3265 1.495 . S
C3262 C3261 1.392 . S
C3262 C3263 1.385 . S
C3262 C3264 1.478 . S
C3263 H3257 0.930 . S
C3263 C3259 1.400 . S
C3263 C3262 1.385 . S
C3264 C3262 1.478 . S
C3264 C3266 1.381 . S
C3264 C3270 1.383 . S
C3265 C3261 1.495 . S
C3265 H3271 0.959 . S
C3265 H3272 0.961 . S
C3265 H3273 0.960 . S
C3266 C3264 1.381 . S
C3266 C3267 1.394 . S
C3266 H3274 0.930 . S
C3267 C3266 1.394 . S
C3267 C3268 1.383 . S
C3267 H3275 0.929 . S
C3268 C3267 1.383 . S
C3268 C3269 1.377 . S
C3269 H3253 0.930 . S
C3269 C3268 1.377 . S
C3269 C3270 1.379 . S
C3270 H3254 0.931 . S
C3270 C3264 1.383 . S
C3270 C3269 1.379 . S
H3271 C3265 0.959 . S
H3272 C3265 0.961 . S
H3273 C3265 0.960 . S
H3274 C3266 0.930 . S
H3275 C3267 0.929 . S
H3276 C3284 0.929 . S
H3277 C3286 0.930 . S
H3278 C3288 0.930 . S
H3279 C3291 0.929 . S
H3280 C3294 0.930 . S
H3281 C3296 0.960 . S
H3282 C3296 0.960 . S
H3283 C3296 0.960 . S
C3284 H3276 0.929 . S
C3284 C3285 1.377 . S
C3284 C3286 1.384 . S
C3285 C3284 1.377 . S
C3285 C3291 1.390 . S
C3286 H3277 0.930 . S
C3286 C3284 1.384 . S
C3286 C3287 1.372 . S
C3287 C3286 1.372 . S
C3287 C3288 1.400 . S
C3287 C3292 1.490 . S
C3288 H3278 0.930 . S
C3288 C3287 1.400 . S
C3288 C3291 1.386 . S
H3289 C3305 0.930 . S
H3290 C3306 0.931 . S
C3291 H3279 0.929 . S
C3291 C3285 1.390 . S
C3291 C3288 1.386 . S
C3292 C3287 1.490 . S
C3292 C3294 1.395 . S
C3292 C3295 1.403 . S
H3293 C3299 0.930 . S
C3294 H3280 0.930 . S
C3294 C3292 1.395 . S
C3294 C3297 1.403 . S
C3295 C3292 1.403 . S
C3295 C3296 1.524 . S
C3295 C3299 1.400 . S
C3296 H3281 0.960 . S
C3296 H3282 0.960 . S
C3296 H3283 0.960 . S
C3296 C3295 1.524 . S
C3297 C3294 1.403 . S
C3297 C3298 1.392 . S
C3297 C3301 1.495 . S
C3298 C3297 1.392 . S
C3298 C3299 1.385 . S
C3298 C3300 1.478 . S
C3299 H3293 0.930 . S
C3299 C3295 1.400 . S
C3299 C3298 1.385 . S
C3300 C3298 1.478 . S
C3300 C3302 1.381 . S
C3300 C3306 1.383 . S
C3301 C3297 1.495 . S
C3301 H3307 0.959 . S
C3301 H3308 0.961 . S
C3301 H3309 0.960 . S
C3302 C3300 1.381 . S
C3302 C3303 1.394 . S
C3302 H3310 0.930 . S
C3303 C3302 1.394 . S
C3303 C3304 1.383 . S
C3303 H3311 0.929 . S
C3304 C3303 1.383 . S
C3304 C3305 1.377 . S
C3305 H3289 0.930 . S
C3305 C3304 1.377 . S
C3305 C3306 1.379 . S
C3306 H3290 0.931 . S
C3306 C3300 1.383 . S
C3306 C3305 1.379 . S
H3307 C3301 0.959 . S
H3308 C3301 0.961 . S
H3309 C3301 0.960 . S
H3310 C3302 0.930 . S
H3311 C3303 0.929 . S
H3312 C3320 0.929 . S
H3313 C3322 0.930 . S
H3314 C3324 0.930 . S
H3315 C3327 0.929 . S
H3316 C3330 0.930 . S
H3317 C3332 0.960 . S
H3318 C3332 0.960 . S
H3319 C3332 0.960 . S
C3320 H3312 0.929 . S
C3320 C3321 1.377 . S
C3320 C3322 1.384 . S
C3321 C3320 1.377 . S
C3321 C3327 1.390 . S
C3322 H3313 0.930 . S
C3322 C3320 1.384 . S
C3322 C3323 1.372 . S
C3323 C3322 1.372 . S
C3323 C3324 1.400 . S
C3323 C3328 1.490 . S
C3324 H3314 0.930 . S
C3324 C3323 1.400 . S
C3324 C3327 1.386 . S
H3325 C3341 0.930 . S
H3326 C3342 0.931 . S
C3327 H3315 0.929 . S
C3327 C3321 1.390 . S
C3327 C3324 1.386 . S
C3328 C3323 1.490 . S
C3328 C3330 1.395 . S
C3328 C3331 1.403 . S
H3329 C3335 0.930 . S
C3330 H3316 0.930 . S
C3330 C3328 1.395 . S
C3330 C3333 1.403 . S
C3331 C3328 1.403 . S
C3331 C3332 1.524 . S
C3331 C3335 1.400 . S
C3332 H3317 0.960 . S
C3332 H3318 0.960 . S
C3332 H3319 0.960 . S
C3332 C3331 1.524 . S
C3333 C3330 1.403 . S
C3333 C3334 1.392 . S
C3333 C3337 1.495 . S
C3334 C3333 1.392 . S
C3334 C3335 1.385 . S
C3334 C3336 1.478 . S
C3335 H3329 0.930 . S
C3335 C3331 1.400 . S
C3335 C3334 1.385 . S
C3336 C3334 1.478 . S
C3336 C3338 1.381 . S
C3336 C3342 1.383 . S
C3337 C3333 1.495 . S
C3337 H3343 0.959 . S
C3337 H3344 0.961 . S
C3337 H3345 0.960 . S
C3338 C3336 1.381 . S
C3338 C3339 1.394 . S
C3338 H3346 0.930 . S
C3339 C3338 1.394 . S
C3339 C3340 1.383 . S
C3339 H3347 0.929 . S
C3340 C3339 1.383 . S
C3340 C3341 1.377 . S
C3341 H3325 0.930 . S
C3341 C3340 1.377 . S
C3341 C3342 1.379 . S
C3342 H3326 0.931 . S
C3342 C3336 1.383 . S
C3342 C3341 1.379 . S
H3343 C3337 0.959 . S
H3344 C3337 0.961 . S
H3345 C3337 0.960 . S
H3346 C3338 0.930 . S
H3347 C3339 0.929 . S
H3348 C3356 0.929 . S
H3349 C3358 0.930 . S
H3350 C3360 0.930 . S
H3351 C3363 0.929 . S
H3352 C3366 0.930 . S
H3353 C3368 0.960 . S
H3354 C3368 0.960 . S
H3355 C3368 0.960 . S
C3356 H3348 0.929 . S
C3356 C3357 1.377 . S
C3356 C3358 1.384 . S
C3357 C3356 1.377 . S
C3357 C3363 1.390 . S
C3358 H3349 0.930 . S
C3358 C3356 1.384 . S
C3358 C3359 1.372 . S
C3359 C3358 1.372 . S
C3359 C3360 1.400 . S
C3359 C3364 1.490 . S
C3360 H3350 0.930 . S
C3360 C3359 1.400 . S
C3360 C3363 1.386 . S
H3361 C3377 0.930 . S
H3362 C3378 0.931 . S
C3363 H3351 0.929 . S
C3363 C3357 1.390 . S
C3363 C3360 1.386 . S
C3364 C3359 1.490 . S
C3364 C3366 1.395 . S
C3364 C3367 1.403 . S
H3365 C3371 0.930 . S
C3366 H3352 0.930 . S
C3366 C3364 1.395 . S
C3366 C3369 1.403 . S
C3367 C3364 1.403 . S
C3367 C3368 1.524 . S
C3367 C3371 1.400 . S
C3368 H3353 0.960 . S
C3368 H3354 0.960 . S
C3368 H3355 0.960 . S
C3368 C3367 1.524 . S
C3369 C3366 1.403 . S
C3369 C3370 1.392 . S
C3369 C3373 1.495 . S
C3370 C3369 1.392 . S
C3370 C3371 1.385 . S
C3370 C3372 1.478 . S
C3371 H3365 0.930 . S
C3371 C3367 1.400 . S
C3371 C3370 1.385 . S
C3372 C3370 1.478 . S
C3372 C3374 1.381 . S
C3372 C3378 1.383 . S
C3373 C3369 1.495 . S
C3373 H3379 0.959 . S
C3373 H3380 0.961 . S
C3373 H3381 0.960 . S
C3374 C3372 1.381 . S
C3374 C3375 1.394 . S
C3374 H3382 0.930 . S
C3375 C3374 1.394 . S
C3375 C3376 1.383 . S
C3375 H3383 0.929 . S
C3376 C3375 1.383 . S
C3376 C3377 1.377 . S
C3377 H3361 0.930 . S
C3377 C3376 1.377 . S
C3377 C3378 1.379 . S
C3378 H3362 0.931 . S
C3378 C3372 1.383 . S
C3378 C3377 1.379 . S
H3379 C3373 0.959 . S
H3380 C3373 0.961 . S
H3381 C3373 0.960 . S
H3382 C3374 0.930 . S
H3383 C3375 0.929 . S
H3384 C3392 0.929 . S
H3385 C3394 0.930 . S
H3386 C3396 0.930 . S
H3387 C3399 0.929 . S
H3388 C3402 0.930 . S
H3389 C3404 0.960 . S
H3390 C3404 0.960 . S
H3391 C3404 0.960 . S
C3392 H3384 0.929 . S
C3392 C3393 1.377 . S
C3392 C3394 1.384 . S
C3393 C3392 1.377 . S
C3393 C3399 1.390 . S
C3394 H3385 0.930 . S
C3394 C3392 1.384 . S
C3394 C3395 1.372 . S
C3395 C3394 1.372 . S
C3395 C3396 1.400 . S
C3395 C3400 1.490 . S
C3396 H3386 0.930 . S
C3396 C3395 1.400 . S
C3396 C3399 1.386 . S
H3397 C3413 0.930 . S
H3398 C3414 0.931 . S
C3399 H3387 0.929 . S
C3399 C3393 1.390 . S
C3399 C3396 1.386 . S
C3400 C3395 1.490 . S
C3400 C3402 1.395 . S
C3400 C3403 1.403 . S
H3401 C3407 0.930 . S
C3402 H3388 0.930 . S
C3402 C3400 1.395 . S
C3402 C3405 1.403 . S
C3403 C3400 1.403 . S
C3403 C3404 1.524 . S
C3403 C3407 1.400 . S
C3404 H3389 0.960 . S
C3404 H3390 0.960 . S
C3404 H3391 0.960 . S
C3404 C3403 1.524 . S
C3405 C3402 1.403 . S
C3405 C3406 1.392 . S
C3405 C3409 1.495 . S
C3406 C3405 1.392 . S
C3406 C3407 1.385 . S
C3406 C3408 1.478 . S
C3407 H3401 0.930 . S
C3407 C3403 1.400 . S
C3407 C3406 1.385 . S
C3408 C3406 1.478 . S
C3408 C3410 1.381 . S
C3408 C3414 1.383 . S
C3409 C3405 1.495 . S
C3409 H3415 0.959 . S
C3409 H3416 0.961 . S
C3409 H3417 0.960 . S
C3410 C3408 1.381 . S
C3410 C3411 1.394 . S
C3410 H3418 0.930 . S
C3411 C3410 1.394 . S
C3411 C3412 1.383 . S
C3411 H3419 0.929 . S
C3412 C3411 1.383 . S
C3412 C3413 1.377 . S
C3413 H3397 0.930 . S
C3413 C3412 1.377 . S
C3413 C3414 1.379 . S
C3414 H3398 0.931 . S
C3414 C3408 1.383 . S
C3414 C3413 1.379 . S
H3415 C3409 0.959 . S
H3416 C3409 0.961 . S
H3417 C3409 0.960 . S
H3418 C3410 0.930 . S
H3419 C3411 0.929 . S
H3420 C3428 0.929 . S
H3421 C3430 0.930 . S
H3422 C3432 0.930 . S
H3423 C3435 0.929 . S
H3424 C3438 0.930 . S
H3425 C3440 0.960 . S
H3426 C3440 0.960 . S
H3427 C3440 0.960 . S
C3428 H3420 0.929 . S
C3428 C3429 1.377 . S
C3428 C3430 1.384 . S
C3429 C3428 1.377 . S
C3429 C3435 1.390 . S
C3430 H3421 0.930 . S
C3430 C3428 1.384 . S
C3430 C3431 1.372 . S
C3431 C3430 1.372 . S
C3431 C3432 1.400 . S
C3431 C3436 1.490 . S
C3432 H3422 0.930 . S
C3432 C3431 1.400 . S
C3432 C3435 1.386 . S
H3433 C3449 0.930 . S
H3434 C3450 0.931 . S
C3435 H3423 0.929 . S
C3435 C3429 1.390 . S
C3435 C3432 1.386 . S
C3436 C3431 1.490 . S
C3436 C3438 1.395 . S
C3436 C3439 1.403 . S
H3437 C3443 0.930 . S
C3438 H3424 0.930 . S
C3438 C3436 1.395 . S
C3438 C3441 1.403 . S
C3439 C3436 1.403 . S
C3439 C3440 1.524 . S
C3439 C3443 1.400 . S
C3440 H3425 0.960 . S
C3440 H3426 0.960 . S
C3440 H3427 0.960 . S
C3440 C3439 1.524 . S
C3441 C3438 1.403 . S
C3441 C3442 1.392 . S
C3441 C3445 1.495 . S
C3442 C3441 1.392 . S
C3442 C3443 1.385 . S
C3442 C3444 1.478 . S
C3443 H3437 0.930 . S
C3443 C3439 1.400 . S
C3443 C3442 1.385 . S
C3444 C3442 1.478 . S
C3444 C3446 1.381 . S
C3444 C3450 1.383 . S
C3445 C3441 1.495 . S
C3445 H3451 0.959 . S
C3445 H3452 0.961 . S
C3445 H3453 0.960 . S
C3446 C3444 1.381 . S
C3446 C3447 1.394 . S
C3446 H3454 0.930 . S
C3447 C3446 1.394 . S
C3447 C3448 1.383 . S
C3447 H3455 0.929 . S
C3448 C3447 1.383 . S
C3448 C3449 1.377 . S
C3449 H3433 0.930 . S
C3449 C3448 1.377 . S
C3449 C3450 1.379 . S
C3450 H3434 0.931 . S
C3450 C3444 1.383 . S
C3450 C3449 1.379 . S
H3451 C3445 0.959 . S
H3452 C3445 0.961 . S
H3453 C3445 0.960 . S
H3454 C3446 0.930 . S
H3455 C3447 0.929 . S
H3456 C3464 0.929 . S
H3457 C3466 0.949 . S
H3458 C3468 0.930 . S
H3459 C3471 0.929 . S
H3460 C3474 0.930 . S
H3461 C3476 0.960 . S
H3462 C3476 0.960 . S
H3463 C3476 0.960 1_455 S
C3464 H3456 0.929 . S
C3464 C3465 1.377 . S
C3464 C3466 1.384 . S
C3465 C3464 1.377 . S
C3465 C3471 1.390 . S
C3466 H3457 0.949 . S
C3466 C3464 1.384 . S
C3466 C3467 1.372 . S
C3467 C3466 1.372 . S
C3467 C3468 1.400 . S
C3467 C3472 1.490 . S
C3468 H3458 0.930 . S
C3468 C3467 1.400 . S
C3468 C3471 1.386 . S
H3469 C3485 0.907 1_556 S
H3470 C3486 0.929 1_556 S
C3471 H3459 0.929 . S
C3471 C3465 1.390 . S
C3471 C3468 1.386 . S
C3472 C3467 1.490 . S
C3472 C3474 1.395 1_556 S
C3472 C3475 1.403 . S
H3473 C3479 0.930 . S
C3474 H3460 0.930 . S
C3474 C3472 1.395 1_554 S
C3474 C3477 1.403 . S
C3475 C3472 1.403 . S
C3475 C3476 1.524 1_455 S
C3475 C3479 1.400 . S
C3476 H3461 0.960 . S
C3476 H3462 0.960 . S
C3476 H3463 0.960 1_655 S
C3476 C3475 1.524 1_655 S
C3477 C3474 1.403 . S
C3477 C3478 1.392 . S
C3477 C3481 1.495 . S
C3478 C3477 1.392 . S
C3478 C3479 1.385 1_554 S
C3478 C3480 1.478 . S
C3479 H3473 0.930 . S
C3479 C3475 1.400 . S
C3479 C3478 1.385 1_556 S
C3480 C3478 1.478 . S
C3480 C3482 1.381 . S
C3480 C3486 1.384 . S
C3481 C3477 1.495 . S
C3481 H3487 0.959 . S
C3481 H3488 0.961 . S
C3481 H3489 0.960 . S
C3482 C3480 1.381 . S
C3482 C3483 1.394 . S
C3482 H3490 0.930 . S
C3483 C3482 1.394 . S
C3483 C3484 1.383 . S
C3483 H3491 0.929 . S
C3484 C3483 1.383 . S
C3484 C3485 1.377 . S
C3485 H3469 0.907 1_554 S
C3485 C3484 1.377 . S
C3485 C3486 1.380 . S
C3486 H3470 0.929 1_554 S
C3486 C3480 1.384 . S
C3486 C3485 1.380 . S
H3487 C3481 0.959 . S
H3488 C3481 0.961 . S
H3489 C3481 0.960 . S
H3490 C3482 0.930 . S
H3491 C3483 0.929 . S
H3492 C3500 0.929 . S
H3493 C3502 0.930 . S
H3494 C3504 0.930 . S
H3495 C3507 0.929 . S
H3496 C3510 0.930 . S
H3497 C3512 0.960 . S
H3498 C3512 0.960 . S
H3499 C3512 0.960 1_455 S
C3500 H3492 0.929 . S
C3500 C3501 1.377 . S
C3500 C3502 1.384 1_455 S
C3501 C3500 1.377 . S
C3501 C3507 1.390 . S
C3502 H3493 0.930 . S
C3502 C3500 1.384 1_655 S
C3502 C3503 1.372 . S
C3503 C3502 1.372 . S
C3503 C3504 1.400 1_655 S
C3503 C3508 1.490 . S
C3504 H3494 0.930 . S
C3504 C3503 1.400 1_455 S
C3504 C3507 1.386 . S
H3505 C3521 0.930 . S
H3506 C3522 0.931 . S
C3507 H3495 0.929 . S
C3507 C3501 1.390 . S
C3507 C3504 1.386 . S
C3508 C3503 1.490 . S
C3508 C3510 1.395 . S
C3508 C3511 1.403 . S
H3509 C3515 0.930 . S
C3510 H3496 0.930 . S
C3510 C3508 1.395 . S
C3510 C3513 1.403 . S
C3511 C3508 1.403 . S
C3511 C3512 1.524 . S
C3511 C3515 1.400 . S
C3512 H3497 0.960 . S
C3512 H3498 0.960 . S
C3512 H3499 0.960 1_655 S
C3512 C3511 1.524 . S
C3513 C3510 1.403 . S
C3513 C3514 1.392 . S
C3513 C3517 1.495 . S
C3514 C3513 1.392 . S
C3514 C3515 1.385 . S
C3514 C3516 1.478 . S
C3515 H3509 0.930 . S
C3515 C3511 1.400 . S
C3515 C3514 1.385 . S
C3516 C3514 1.478 . S
C3516 C3518 1.381 . S
C3516 C3522 1.383 . S
C3517 C3513 1.495 . S
C3517 H3523 0.959 . S
C3517 H3524 0.961 . S
C3517 H3525 0.960 . S
C3518 C3516 1.381 . S
C3518 C3519 1.394 . S
C3518 H3526 0.930 . S
C3519 C3518 1.394 . S
C3519 C3520 1.383 . S
C3519 H3527 0.929 . S
C3520 C3519 1.383 . S
C3520 C3521 1.377 . S
C3521 H3505 0.930 . S
C3521 C3520 1.377 . S
C3521 C3522 1.379 . S
C3522 H3506 0.931 . S
C3522 C3516 1.383 . S
C3522 C3521 1.379 . S
H3523 C3517 0.959 . S
H3524 C3517 0.961 . S
H3525 C3517 0.960 . S
H3526 C3518 0.930 . S
H3527 C3519 0.929 . S
H3528 C3536 0.929 . S
H3529 C3538 0.930 . S
H3530 C3540 0.930 . S
H3531 C3543 0.929 . S
H3532 C3546 0.930 . S
H3533 C3548 0.960 . S
H3534 C3548 0.960 . S
H3535 C3548 0.960 . S
C3536 H3528 0.929 . S
C3536 C3537 1.377 . S
C3536 C3538 1.384 . S
C3537 C3536 1.377 . S
C3537 C3543 1.390 . S
C3538 H3529 0.930 . S
C3538 C3536 1.384 . S
C3538 C3539 1.372 . S
C3539 C3538 1.372 . S
C3539 C3540 1.400 . S
C3539 C3544 1.490 . S
C3540 H3530 0.930 . S
C3540 C3539 1.400 . S
C3540 C3543 1.386 . S
H3541 C3557 0.930 . S
H3542 C3558 0.931 . S
C3543 H3531 0.929 . S
C3543 C3537 1.390 . S
C3543 C3540 1.386 . S
C3544 C3539 1.490 . S
C3544 C3546 1.395 . S
C3544 C3547 1.403 . S
H3545 C3551 0.930 . S
C3546 H3532 0.930 . S
C3546 C3544 1.395 . S
C3546 C3549 1.403 . S
C3547 C3544 1.403 . S
C3547 C3548 1.524 . S
C3547 C3551 1.400 . S
C3548 H3533 0.960 . S
C3548 H3534 0.960 . S
C3548 H3535 0.960 . S
C3548 C3547 1.524 . S
C3549 C3546 1.403 . S
C3549 C3550 1.392 . S
C3549 C3553 1.495 . S
C3550 C3549 1.392 . S
C3550 C3551 1.385 . S
C3550 C3552 1.478 . S
C3551 H3545 0.930 . S
C3551 C3547 1.400 . S
C3551 C3550 1.385 . S
C3552 C3550 1.478 . S
C3552 C3554 1.381 . S
C3552 C3558 1.383 . S
C3553 C3549 1.495 . S
C3553 H3559 0.959 . S
C3553 H3560 0.961 . S
C3553 H3561 0.960 . S
C3554 C3552 1.381 . S
C3554 C3555 1.394 . S
C3554 H3562 0.930 . S
C3555 C3554 1.394 . S
C3555 C3556 1.383 . S
C3555 H3563 0.929 . S
C3556 C3555 1.383 . S
C3556 C3557 1.377 . S
C3557 H3541 0.930 . S
C3557 C3556 1.377 . S
C3557 C3558 1.379 . S
C3558 H3542 0.931 . S
C3558 C3552 1.383 . S
C3558 C3557 1.379 . S
H3559 C3553 0.959 . S
H3560 C3553 0.961 . S
H3561 C3553 0.960 . S
H3562 C3554 0.930 . S
H3563 C3555 0.929 . S
H3564 C3572 0.929 . S
H3565 C3574 0.930 . S
H3566 C3576 0.930 . S
H3567 C3579 0.929 . S
H3568 C3582 0.876 1_455 S
H3569 C3584 0.960 . S
H3570 C3584 0.944 1_455 S
H3571 C3584 0.960 . S
C3572 H3564 0.929 . S
C3572 C3573 1.377 . S
C3572 C3574 1.384 . S
C3573 C3572 1.377 . S
C3573 C3579 1.390 . S
C3574 H3565 0.930 . S
C3574 C3572 1.384 . S
C3574 C3575 1.372 . S
C3575 C3574 1.372 . S
C3575 C3576 1.400 . S
C3575 C3580 1.490 . S
C3576 H3566 0.930 . S
C3576 C3575 1.400 . S
C3576 C3579 1.386 . S
H3577 C3593 0.930 . S
H3578 C3594 0.931 . S
C3579 H3567 0.929 . S
C3579 C3573 1.390 . S
C3579 C3576 1.386 . S
C3580 C3575 1.490 . S
C3580 C3582 1.393 1_455 S
C3580 C3583 1.403 1_455 S
H3581 C3587 0.930 . S
C3582 H3568 0.876 1_655 S
C3582 C3580 1.393 1_655 S
C3582 C3585 1.460 . S
C3583 C3580 1.403 1_655 S
C3583 C3584 1.524 . S
C3583 C3587 1.400 . S
C3584 H3569 0.960 . S
C3584 H3570 0.944 1_655 S
C3584 H3571 0.960 . S
C3584 C3583 1.524 . S
C3585 C3582 1.460 . S
C3585 C3586 1.392 . S
C3585 C3589 1.495 . S
C3586 C3585 1.392 . S
C3586 C3587 1.385 . S
C3586 C3588 1.478 . S
C3587 H3581 0.930 . S
C3587 C3583 1.400 . S
C3587 C3586 1.385 . S
C3588 C3586 1.478 . S
C3588 C3590 1.381 . S
C3588 C3594 1.383 . S
C3589 C3585 1.495 . S
C3589 H3595 0.959 . S
C3589 H3596 0.961 . S
C3589 H3597 0.960 . S
C3590 C3588 1.381 . S
C3590 C3591 1.394 . S
C3590 H3598 0.930 . S
C3591 C3590 1.394 . S
C3591 C3592 1.383 . S
C3591 H3599 0.929 . S
C3592 C3591 1.383 . S
C3592 C3593 1.377 . S
C3593 H3577 0.930 . S
C3593 C3592 1.377 . S
C3593 C3594 1.379 . S
C3594 H3578 0.931 . S
C3594 C3588 1.383 . S
C3594 C3593 1.379 . S
H3595 C3589 0.959 . S
H3596 C3589 0.961 . S
H3597 C3589 0.960 . S
H3598 C3590 0.930 . S
H3599 C3591 0.929 . S
H3600 C3608 0.929 . S
H3601 C3610 0.930 . S
H3602 C3612 0.921 1_455 S
H3603 C3615 0.929 . S
H3604 C3618 0.930 . S
H3605 C3620 0.960 . S
H3606 C3620 0.960 . S
H3607 C3620 0.960 . S
C3608 H3600 0.929 . S
C3608 C3609 1.377 . S
C3608 C3610 1.384 . S
C3609 C3608 1.377 . S
C3609 C3615 1.390 . S
C3610 H3601 0.930 . S
C3610 C3608 1.384 . S
C3610 C3611 1.372 . S
C3611 C3610 1.372 . S
C3611 C3612 1.398 . S
C3611 C3616 1.475 1_655 S
C3612 H3602 0.921 1_655 S
C3612 C3611 1.398 . S
C3612 C3615 1.397 . S
H3613 C3629 0.930 . S
H3614 C3630 0.931 . S
C3615 H3603 0.929 . S
C3615 C3609 1.390 . S
C3615 C3612 1.397 . S
C3616 C3611 1.475 1_455 S
C3616 C3618 1.372 1_455 S
C3616 C3619 1.440 . S
H3617 C3623 0.930 . S
C3618 H3604 0.930 . S
C3618 C3616 1.372 1_655 S
C3618 C3621 1.403 . S
C3619 C3616 1.440 . S
C3619 C3620 1.524 . S
C3619 C3623 1.400 . S
C3620 H3605 0.960 . S
C3620 H3606 0.960 . S
C3620 H3607 0.960 . S
C3620 C3619 1.524 . S
C3621 C3618 1.403 . S
C3621 C3622 1.392 1_655 S
C3621 C3625 1.495 . S
C3622 C3621 1.392 1_455 S
C3622 C3623 1.385 . S
C3622 C3624 1.478 . S
C3623 H3617 0.930 . S
C3623 C3619 1.400 . S
C3623 C3622 1.385 . S
C3624 C3622 1.478 . S
C3624 C3626 1.381 . S
C3624 C3630 1.383 . S
C3625 C3621 1.495 . S
C3625 H3631 0.959 . S
C3625 H3632 0.961 . S
C3625 H3633 0.960 . S
C3626 C3624 1.381 . S
C3626 C3627 1.394 . S
C3626 H3634 0.930 . S
C3627 C3626 1.394 . S
C3627 C3628 1.383 . S
C3627 H3635 0.929 . S
C3628 C3627 1.383 . S
C3628 C3629 1.377 . S
C3629 H3613 0.930 . S
C3629 C3628 1.377 . S
C3629 C3630 1.379 . S
C3630 H3614 0.931 . S
C3630 C3624 1.383 . S
C3630 C3629 1.379 . S
H3631 C3625 0.959 . S
H3632 C3625 0.961 . S
H3633 C3625 0.960 . S
H3634 C3626 0.930 . S
H3635 C3627 0.929 . S
H3636 C3644 0.929 . S
H3637 C3646 0.930 . S
H3638 C3648 0.930 . S
H3639 C3651 0.929 . S
H3640 C3654 0.930 . S
H3641 C3656 0.960 . S
H3642 C3656 0.960 . S
H3643 C3656 0.960 . S
C3644 H3636 0.929 . S
C3644 C3645 1.377 . S
C3644 C3646 1.384 . S
C3645 C3644 1.377 . S
C3645 C3651 1.390 . S
C3646 H3637 0.930 . S
C3646 C3644 1.384 . S
C3646 C3647 1.372 . S
C3647 C3646 1.372 . S
C3647 C3648 1.400 . S
C3647 C3652 1.490 . S
C3648 H3638 0.930 . S
C3648 C3647 1.400 . S
C3648 C3651 1.386 . S
H3649 C3665 0.930 . S
H3650 C3666 0.931 . S
C3651 H3639 0.929 . S
C3651 C3645 1.390 . S
C3651 C3648 1.386 . S
C3652 C3647 1.490 . S
C3652 C3654 1.395 . S
C3652 C3655 1.403 . S
H3653 C3659 0.930 . S
C3654 H3640 0.930 . S
C3654 C3652 1.395 . S
C3654 C3657 1.403 . S
C3655 C3652 1.403 . S
C3655 C3656 1.524 . S
C3655 C3659 1.400 . S
C3656 H3641 0.960 . S
C3656 H3642 0.960 . S
C3656 H3643 0.960 . S
C3656 C3655 1.524 . S
C3657 C3654 1.403 . S
C3657 C3658 1.392 . S
C3657 C3661 1.495 . S
C3658 C3657 1.392 . S
C3658 C3659 1.385 . S
C3658 C3660 1.478 . S
C3659 H3653 0.930 . S
C3659 C3655 1.400 . S
C3659 C3658 1.385 . S
C3660 C3658 1.478 . S
C3660 C3662 1.381 . S
C3660 C3666 1.383 . S
C3661 C3657 1.495 . S
C3661 H3667 0.959 . S
C3661 H3668 0.961 . S
C3661 H3669 0.960 . S
C3662 C3660 1.381 . S
C3662 C3663 1.394 . S
C3662 H3670 0.930 . S
C3663 C3662 1.394 . S
C3663 C3664 1.383 . S
C3663 H3671 0.929 . S
C3664 C3663 1.383 . S
C3664 C3665 1.377 . S
C3665 H3649 0.930 . S
C3665 C3664 1.377 . S
C3665 C3666 1.379 . S
C3666 H3650 0.931 . S
C3666 C3660 1.383 . S
C3666 C3665 1.379 . S
H3667 C3661 0.959 . S
H3668 C3661 0.961 . S
H3669 C3661 0.960 . S
H3670 C3662 0.930 . S
H3671 C3663 0.929 . S
H3672 C3680 0.929 . S
H3673 C3682 0.930 . S
H3674 C3684 0.930 . S
H3675 C3687 0.929 . S
H3676 C3690 0.930 . S
H3677 C3692 0.960 . S
H3678 C3692 0.960 . S
H3679 C3692 0.960 . S
C3680 H3672 0.929 . S
C3680 C3681 1.377 . S
C3680 C3682 1.384 . S
C3681 C3680 1.377 . S
C3681 C3687 1.390 . S
C3682 H3673 0.930 . S
C3682 C3680 1.384 . S
C3682 C3683 1.372 . S
C3683 C3682 1.372 . S
C3683 C3684 1.400 . S
C3683 C3688 1.490 . S
C3684 H3674 0.930 . S
C3684 C3683 1.400 . S
C3684 C3687 1.386 . S
H3685 C3701 0.930 . S
H3686 C3702 0.931 . S
C3687 H3675 0.929 . S
C3687 C3681 1.390 . S
C3687 C3684 1.386 . S
C3688 C3683 1.490 . S
C3688 C3690 1.395 . S
C3688 C3691 1.403 . S
H3689 C3695 0.930 . S
C3690 H3676 0.930 . S
C3690 C3688 1.395 . S
C3690 C3693 1.403 . S
C3691 C3688 1.403 . S
C3691 C3692 1.524 . S
C3691 C3695 1.400 . S
C3692 H3677 0.960 . S
C3692 H3678 0.960 . S
C3692 H3679 0.960 . S
C3692 C3691 1.524 . S
C3693 C3690 1.403 . S
C3693 C3694 1.392 . S
C3693 C3697 1.495 . S
C3694 C3693 1.392 . S
C3694 C3695 1.385 . S
C3694 C3696 1.478 . S
C3695 H3689 0.930 . S
C3695 C3691 1.400 . S
C3695 C3694 1.385 . S
C3696 C3694 1.478 . S
C3696 C3698 1.381 . S
C3696 C3702 1.383 . S
C3697 C3693 1.495 . S
C3697 H3703 0.959 . S
C3697 H3704 0.961 . S
C3697 H3705 0.960 . S
C3698 C3696 1.381 . S
C3698 C3699 1.394 . S
C3698 H3706 0.930 . S
C3699 C3698 1.394 . S
C3699 C3700 1.383 . S
C3699 H3707 0.929 . S
C3700 C3699 1.383 . S
C3700 C3701 1.377 . S
C3701 H3685 0.930 . S
C3701 C3700 1.377 . S
C3701 C3702 1.379 . S
C3702 H3686 0.931 . S
C3702 C3696 1.383 . S
C3702 C3701 1.379 . S
H3703 C3697 0.959 . S
H3704 C3697 0.961 . S
H3705 C3697 0.960 . S
H3706 C3698 0.930 . S
H3707 C3699 0.929 . S
H3708 C3716 0.929 . S
H3709 C3718 0.930 . S
H3710 C3720 0.930 . S
H3711 C3723 0.929 . S
H3712 C3726 0.930 . S
H3713 C3728 0.960 . S
H3714 C3728 0.960 . S
H3715 C3728 0.960 . S
C3716 H3708 0.929 . S
C3716 C3717 1.377 . S
C3716 C3718 1.384 . S
C3717 C3716 1.377 . S
C3717 C3723 1.390 . S
C3718 H3709 0.930 . S
C3718 C3716 1.384 . S
C3718 C3719 1.372 . S
C3719 C3718 1.372 . S
C3719 C3720 1.400 . S
C3719 C3724 1.490 . S
C3720 H3710 0.930 . S
C3720 C3719 1.400 . S
C3720 C3723 1.386 . S
H3721 C3737 0.930 . S
H3722 C3738 0.931 . S
C3723 H3711 0.929 . S
C3723 C3717 1.390 . S
C3723 C3720 1.386 . S
C3724 C3719 1.490 . S
C3724 C3726 1.395 . S
C3724 C3727 1.403 . S
H3725 C3731 0.930 . S
C3726 H3712 0.930 . S
C3726 C3724 1.395 . S
C3726 C3729 1.403 . S
C3727 C3724 1.403 . S
C3727 C3728 1.524 . S
C3727 C3731 1.400 . S
C3728 H3713 0.960 . S
C3728 H3714 0.960 . S
C3728 H3715 0.960 . S
C3728 C3727 1.524 . S
C3729 C3726 1.403 . S
C3729 C3730 1.392 . S
C3729 C3733 1.495 . S
C3730 C3729 1.392 . S
C3730 C3731 1.385 . S
C3730 C3732 1.478 . S
C3731 H3725 0.930 . S
C3731 C3727 1.400 . S
C3731 C3730 1.385 . S
C3732 C3730 1.478 . S
C3732 C3734 1.381 . S
C3732 C3738 1.383 . S
C3733 C3729 1.495 . S
C3733 H3739 0.959 . S
C3733 H3740 0.961 . S
C3733 H3741 0.960 . S
C3734 C3732 1.381 . S
C3734 C3735 1.394 . S
C3734 H3742 0.930 . S
C3735 C3734 1.394 . S
C3735 C3736 1.383 . S
C3735 H3743 0.929 . S
C3736 C3735 1.383 . S
C3736 C3737 1.377 . S
C3737 H3721 0.930 . S
C3737 C3736 1.377 . S
C3737 C3738 1.379 . S
C3738 H3722 0.931 . S
C3738 C3732 1.383 . S
C3738 C3737 1.379 . S
H3739 C3733 0.959 . S
H3740 C3733 0.961 . S
H3741 C3733 0.960 . S
H3742 C3734 0.930 . S
H3743 C3735 0.929 . S
H3744 C3752 0.929 . S
H3745 C3754 0.930 . S
H3746 C3756 0.930 . S
H3747 C3759 0.929 . S
H3748 C3762 0.930 . S
H3749 C3764 0.960 . S
H3750 C3764 0.960 . S
H3751 C3764 0.960 . S
C3752 H3744 0.929 . S
C3752 C3753 1.377 . S
C3752 C3754 1.384 . S
C3753 C3752 1.377 . S
C3753 C3759 1.390 . S
C3754 H3745 0.930 . S
C3754 C3752 1.384 . S
C3754 C3755 1.372 . S
C3755 C3754 1.372 . S
C3755 C3756 1.400 . S
C3755 C3760 1.490 . S
C3756 H3746 0.930 . S
C3756 C3755 1.400 . S
C3756 C3759 1.386 . S
H3757 C3773 0.930 . S
H3758 C3774 0.931 . S
C3759 H3747 0.929 . S
C3759 C3753 1.390 . S
C3759 C3756 1.386 . S
C3760 C3755 1.490 . S
C3760 C3762 1.395 . S
C3760 C3763 1.403 . S
H3761 C3767 0.930 . S
C3762 H3748 0.930 . S
C3762 C3760 1.395 . S
C3762 C3765 1.403 . S
C3763 C3760 1.403 . S
C3763 C3764 1.524 . S
C3763 C3767 1.400 . S
C3764 H3749 0.960 . S
C3764 H3750 0.960 . S
C3764 H3751 0.960 . S
C3764 C3763 1.524 . S
C3765 C3762 1.403 . S
C3765 C3766 1.392 . S
C3765 C3769 1.495 . S
C3766 C3765 1.392 . S
C3766 C3767 1.385 . S
C3766 C3768 1.478 . S
C3767 H3761 0.930 . S
C3767 C3763 1.400 . S
C3767 C3766 1.385 . S
C3768 C3766 1.478 . S
C3768 C3770 1.381 . S
C3768 C3774 1.383 . S
C3769 C3765 1.495 . S
C3769 H3775 0.959 . S
C3769 H3776 0.961 . S
C3769 H3777 0.960 . S
C3770 C3768 1.381 . S
C3770 C3771 1.394 . S
C3770 H3778 0.930 . S
C3771 C3770 1.394 . S
C3771 C3772 1.383 . S
C3771 H3779 0.929 . S
C3772 C3771 1.383 . S
C3772 C3773 1.377 . S
C3773 H3757 0.930 . S
C3773 C3772 1.377 . S
C3773 C3774 1.379 . S
C3774 H3758 0.931 . S
C3774 C3768 1.383 . S
C3774 C3773 1.379 . S
H3775 C3769 0.959 . S
H3776 C3769 0.961 . S
H3777 C3769 0.960 . S
H3778 C3770 0.930 . S
H3779 C3771 0.929 . S
H3780 C3788 0.929 . S
H3781 C3790 0.930 . S
H3782 C3792 0.930 . S
H3783 C3795 0.929 . S
H3784 C3798 0.930 . S
H3785 C3800 0.960 . S
H3786 C3800 0.960 . S
H3787 C3800 0.960 . S
C3788 H3780 0.929 . S
C3788 C3789 1.377 . S
C3788 C3790 1.384 . S
C3789 C3788 1.377 . S
C3789 C3795 1.390 . S
C3790 H3781 0.930 . S
C3790 C3788 1.384 . S
C3790 C3791 1.372 . S
C3791 C3790 1.372 . S
C3791 C3792 1.400 . S
C3791 C3796 1.490 . S
C3792 H3782 0.930 . S
C3792 C3791 1.400 . S
C3792 C3795 1.386 . S
H3793 C3809 0.930 . S
H3794 C3810 0.931 . S
C3795 H3783 0.929 . S
C3795 C3789 1.390 . S
C3795 C3792 1.386 . S
C3796 C3791 1.490 . S
C3796 C3798 1.395 . S
C3796 C3799 1.403 . S
H3797 C3803 0.930 . S
C3798 H3784 0.930 . S
C3798 C3796 1.395 . S
C3798 C3801 1.403 . S
C3799 C3796 1.403 . S
C3799 C3800 1.524 . S
C3799 C3803 1.400 . S
C3800 H3785 0.960 . S
C3800 H3786 0.960 . S
C3800 H3787 0.960 . S
C3800 C3799 1.524 . S
C3801 C3798 1.403 . S
C3801 C3802 1.392 . S
C3801 C3805 1.495 . S
C3802 C3801 1.392 . S
C3802 C3803 1.385 . S
C3802 C3804 1.478 . S
C3803 H3797 0.930 . S
C3803 C3799 1.400 . S
C3803 C3802 1.385 . S
C3804 C3802 1.478 . S
C3804 C3806 1.381 . S
C3804 C3810 1.383 . S
C3805 C3801 1.495 . S
C3805 H3811 0.959 . S
C3805 H3812 0.961 . S
C3805 H3813 0.960 . S
C3806 C3804 1.381 . S
C3806 C3807 1.394 . S
C3806 H3814 0.930 . S
C3807 C3806 1.394 . S
C3807 C3808 1.383 . S
C3807 H3815 0.929 . S
C3808 C3807 1.383 . S
C3808 C3809 1.377 . S
C3809 H3793 0.930 . S
C3809 C3808 1.377 . S
C3809 C3810 1.379 . S
C3810 H3794 0.931 . S
C3810 C3804 1.383 . S
C3810 C3809 1.379 . S
H3811 C3805 0.959 . S
H3812 C3805 0.961 . S
H3813 C3805 0.960 . S
H3814 C3806 0.930 . S
H3815 C3807 0.929 . S
H3816 C3824 0.929 . S
H3817 C3826 0.930 . S
H3818 C3828 0.930 . S
H3819 C3831 0.929 . S
H3820 C3834 0.930 . S
H3821 C3836 0.960 . S
H3822 C3836 0.960 . S
H3823 C3836 0.960 . S
C3824 H3816 0.929 . S
C3824 C3825 1.377 . S
C3824 C3826 1.384 . S
C3825 C3824 1.377 . S
C3825 C3831 1.390 . S
C3826 H3817 0.930 . S
C3826 C3824 1.384 . S
C3826 C3827 1.372 . S
C3827 C3826 1.372 . S
C3827 C3828 1.400 . S
C3827 C3832 1.490 . S
C3828 H3818 0.930 . S
C3828 C3827 1.400 . S
C3828 C3831 1.386 . S
H3829 C3845 0.930 . S
H3830 C3846 0.931 . S
C3831 H3819 0.929 . S
C3831 C3825 1.390 . S
C3831 C3828 1.386 . S
C3832 C3827 1.490 . S
C3832 C3834 1.395 . S
C3832 C3835 1.403 . S
H3833 C3839 0.930 . S
C3834 H3820 0.930 . S
C3834 C3832 1.395 . S
C3834 C3837 1.403 . S
C3835 C3832 1.403 . S
C3835 C3836 1.524 . S
C3835 C3839 1.400 . S
C3836 H3821 0.960 . S
C3836 H3822 0.960 . S
C3836 H3823 0.960 . S
C3836 C3835 1.524 . S
C3837 C3834 1.403 . S
C3837 C3838 1.392 . S
C3837 C3841 1.495 . S
C3838 C3837 1.392 . S
C3838 C3839 1.385 . S
C3838 C3840 1.478 . S
C3839 H3833 0.930 . S
C3839 C3835 1.400 . S
C3839 C3838 1.385 . S
C3840 C3838 1.478 . S
C3840 C3842 1.381 . S
C3840 C3846 1.383 . S
C3841 C3837 1.495 . S
C3841 H3847 0.959 . S
C3841 H3848 0.961 . S
C3841 H3849 0.960 . S
C3842 C3840 1.381 . S
C3842 C3843 1.394 . S
C3842 H3850 0.930 . S
C3843 C3842 1.394 . S
C3843 C3844 1.383 . S
C3843 H3851 0.929 . S
C3844 C3843 1.383 . S
C3844 C3845 1.377 . S
C3845 H3829 0.930 . S
C3845 C3844 1.377 . S
C3845 C3846 1.379 . S
C3846 H3830 0.931 . S
C3846 C3840 1.383 . S
C3846 C3845 1.379 . S
H3847 C3841 0.959 . S
H3848 C3841 0.961 . S
H3849 C3841 0.960 . S
H3850 C3842 0.930 . S
H3851 C3843 0.929 . S
H3852 C3860 0.929 . S
H3853 C3862 0.930 . S
H3854 C3864 0.930 . S
H3855 C3867 0.929 . S
H3856 C3870 0.930 . S
H3857 C3872 0.960 . S
H3858 C3872 0.960 . S
H3859 C3872 0.960 . S
C3860 H3852 0.929 . S
C3860 C3861 1.377 . S
C3860 C3862 1.384 . S
C3861 C3860 1.377 . S
C3861 C3867 1.390 . S
C3862 H3853 0.930 . S
C3862 C3860 1.384 . S
C3862 C3863 1.372 . S
C3863 C3862 1.372 . S
C3863 C3864 1.400 . S
C3863 C3868 1.490 . S
C3864 H3854 0.930 . S
C3864 C3863 1.400 . S
C3864 C3867 1.386 . S
H3865 C3881 0.930 . S
H3866 C3882 0.931 . S
C3867 H3855 0.929 . S
C3867 C3861 1.390 . S
C3867 C3864 1.386 . S
C3868 C3863 1.490 . S
C3868 C3870 1.395 . S
C3868 C3871 1.403 . S
H3869 C3875 0.930 . S
C3870 H3856 0.930 . S
C3870 C3868 1.395 . S
C3870 C3873 1.403 . S
C3871 C3868 1.403 . S
C3871 C3872 1.524 . S
C3871 C3875 1.400 . S
C3872 H3857 0.960 . S
C3872 H3858 0.960 . S
C3872 H3859 0.960 . S
C3872 C3871 1.524 . S
C3873 C3870 1.403 . S
C3873 C3874 1.392 . S
C3873 C3877 1.495 . S
C3874 C3873 1.392 . S
C3874 C3875 1.385 . S
C3874 C3876 1.478 . S
C3875 H3869 0.930 . S
C3875 C3871 1.400 . S
C3875 C3874 1.385 . S
C3876 C3874 1.478 . S
C3876 C3878 1.381 . S
C3876 C3882 1.383 . S
C3877 C3873 1.495 . S
C3877 H3883 0.959 . S
C3877 H3884 0.961 . S
C3877 H3885 0.960 . S
C3878 C3876 1.381 . S
C3878 C3879 1.394 . S
C3878 H3886 0.930 . S
C3879 C3878 1.394 . S
C3879 C3880 1.383 . S
C3879 H3887 0.929 . S
C3880 C3879 1.383 . S
C3880 C3881 1.377 . S
C3881 H3865 0.930 . S
C3881 C3880 1.377 . S
C3881 C3882 1.379 . S
C3882 H3866 0.931 . S
C3882 C3876 1.383 . S
C3882 C3881 1.379 . S
H3883 C3877 0.959 . S
H3884 C3877 0.961 . S
H3885 C3877 0.960 . S
H3886 C3878 0.930 . S
H3887 C3879 0.929 . S
H3888 C3896 0.929 . S
H3889 C3898 0.930 . S
H3890 C3900 0.930 . S
H3891 C3903 0.929 . S
H3892 C3906 0.930 . S
H3893 C3908 0.960 . S
H3894 C3908 0.960 . S
H3895 C3908 0.960 . S
C3896 H3888 0.929 . S
C3896 C3897 1.377 . S
C3896 C3898 1.384 . S
C3897 C3896 1.377 . S
C3897 C3903 1.390 . S
C3898 H3889 0.930 . S
C3898 C3896 1.384 . S
C3898 C3899 1.372 . S
C3899 C3898 1.372 . S
C3899 C3900 1.400 . S
C3899 C3904 1.490 . S
C3900 H3890 0.930 . S
C3900 C3899 1.400 . S
C3900 C3903 1.386 . S
H3901 C3917 0.930 . S
H3902 C3918 0.931 . S
C3903 H3891 0.929 . S
C3903 C3897 1.390 . S
C3903 C3900 1.386 . S
C3904 C3899 1.490 . S
C3904 C3906 1.395 . S
C3904 C3907 1.403 . S
H3905 C3911 0.930 . S
C3906 H3892 0.930 . S
C3906 C3904 1.395 . S
C3906 C3909 1.403 . S
C3907 C3904 1.403 . S
C3907 C3908 1.524 . S
C3907 C3911 1.400 . S
C3908 H3893 0.960 . S
C3908 H3894 0.960 . S
C3908 H3895 0.960 . S
C3908 C3907 1.524 . S
C3909 C3906 1.403 . S
C3909 C3910 1.392 . S
C3909 C3913 1.495 . S
C3910 C3909 1.392 . S
C3910 C3911 1.385 . S
C3910 C3912 1.478 . S
C3911 H3905 0.930 . S
C3911 C3907 1.400 . S
C3911 C3910 1.385 . S
C3912 C3910 1.478 . S
C3912 C3914 1.381 . S
C3912 C3918 1.383 . S
C3913 C3909 1.495 . S
C3913 H3919 0.959 . S
C3913 H3920 0.961 . S
C3913 H3921 0.960 . S
C3914 C3912 1.381 . S
C3914 C3915 1.394 . S
C3914 H3922 0.930 . S
C3915 C3914 1.394 . S
C3915 C3916 1.383 . S
C3915 H3923 0.929 . S
C3916 C3915 1.383 . S
C3916 C3917 1.377 . S
C3917 H3901 0.930 . S
C3917 C3916 1.377 . S
C3917 C3918 1.379 . S
C3918 H3902 0.931 . S
C3918 C3912 1.383 . S
C3918 C3917 1.379 . S
H3919 C3913 0.959 . S
H3920 C3913 0.961 . S
H3921 C3913 0.960 . S
H3922 C3914 0.930 . S
H3923 C3915 0.929 . S
H3924 C3932 0.929 . S
H3925 C3934 0.930 . S
H3926 C3936 0.930 . S
H3927 C3939 0.929 . S
H3928 C3942 0.930 . S
H3929 C3944 0.960 . S
H3930 C3944 0.960 . S
H3931 C3944 0.960 . S
C3932 H3924 0.929 . S
C3932 C3933 1.377 . S
C3932 C3934 1.384 . S
C3933 C3932 1.377 . S
C3933 C3939 1.390 . S
C3934 H3925 0.930 . S
C3934 C3932 1.384 . S
C3934 C3935 1.372 . S
C3935 C3934 1.372 . S
C3935 C3936 1.400 . S
C3935 C3940 1.490 . S
C3936 H3926 0.930 . S
C3936 C3935 1.400 . S
C3936 C3939 1.386 . S
H3937 C3953 0.930 . S
H3938 C3954 0.931 . S
C3939 H3927 0.929 . S
C3939 C3933 1.390 . S
C3939 C3936 1.386 . S
C3940 C3935 1.490 . S
C3940 C3942 1.395 . S
C3940 C3943 1.403 . S
H3941 C3947 0.930 . S
C3942 H3928 0.930 . S
C3942 C3940 1.395 . S
C3942 C3945 1.403 . S
C3943 C3940 1.403 . S
C3943 C3944 1.524 . S
C3943 C3947 1.400 . S
C3944 H3929 0.960 . S
C3944 H3930 0.960 . S
C3944 H3931 0.960 . S
C3944 C3943 1.524 . S
C3945 C3942 1.403 . S
C3945 C3946 1.392 . S
C3945 C3949 1.495 . S
C3946 C3945 1.392 . S
C3946 C3947 1.385 . S
C3946 C3948 1.478 . S
C3947 H3941 0.930 . S
C3947 C3943 1.400 . S
C3947 C3946 1.385 . S
C3948 C3946 1.478 . S
C3948 C3950 1.381 . S
C3948 C3954 1.383 . S
C3949 C3945 1.495 . S
C3949 H3955 0.959 . S
C3949 H3956 0.961 . S
C3949 H3957 0.960 . S
C3950 C3948 1.381 . S
C3950 C3951 1.394 . S
C3950 H3958 0.930 . S
C3951 C3950 1.394 . S
C3951 C3952 1.383 . S
C3951 H3959 0.929 . S
C3952 C3951 1.383 . S
C3952 C3953 1.377 . S
C3953 H3937 0.930 . S
C3953 C3952 1.377 . S
C3953 C3954 1.379 . S
C3954 H3938 0.931 . S
C3954 C3948 1.383 . S
C3954 C3953 1.379 . S
H3955 C3949 0.959 . S
H3956 C3949 0.961 . S
H3957 C3949 0.960 . S
H3958 C3950 0.930 . S
H3959 C3951 0.929 . S
H3960 C3968 0.929 . S
H3961 C3970 0.930 . S
H3962 C3972 0.930 . S
H3963 C3975 0.929 . S
H3964 C3978 0.930 . S
H3965 C3980 0.960 . S
H3966 C3980 0.960 . S
H3967 C3980 0.960 . S
C3968 H3960 0.929 . S
C3968 C3969 1.377 . S
C3968 C3970 1.384 . S
C3969 C3968 1.377 . S
C3969 C3975 1.390 . S
C3970 H3961 0.930 . S
C3970 C3968 1.384 . S
C3970 C3971 1.372 . S
C3971 C3970 1.372 . S
C3971 C3972 1.400 . S
C3971 C3976 1.490 . S
C3972 H3962 0.930 . S
C3972 C3971 1.400 . S
C3972 C3975 1.386 . S
H3973 C3989 0.930 . S
H3974 C3990 0.931 . S
C3975 H3963 0.929 . S
C3975 C3969 1.390 . S
C3975 C3972 1.386 . S
C3976 C3971 1.490 . S
C3976 C3978 1.395 . S
C3976 C3979 1.403 . S
H3977 C3983 0.930 . S
C3978 H3964 0.930 . S
C3978 C3976 1.395 . S
C3978 C3981 1.403 . S
C3979 C3976 1.403 . S
C3979 C3980 1.524 . S
C3979 C3983 1.400 . S
C3980 H3965 0.960 . S
C3980 H3966 0.960 . S
C3980 H3967 0.960 . S
C3980 C3979 1.524 . S
C3981 C3978 1.403 . S
C3981 C3982 1.392 . S
C3981 C3985 1.495 . S
C3982 C3981 1.392 . S
C3982 C3983 1.385 . S
C3982 C3984 1.478 . S
C3983 H3977 0.930 . S
C3983 C3979 1.400 . S
C3983 C3982 1.385 . S
C3984 C3982 1.478 . S
C3984 C3986 1.381 . S
C3984 C3990 1.383 . S
C3985 C3981 1.495 . S
C3985 H3991 0.959 . S
C3985 H3992 0.961 . S
C3985 H3993 0.960 . S
C3986 C3984 1.381 . S
C3986 C3987 1.394 . S
C3986 H3994 0.930 . S
C3987 C3986 1.394 . S
C3987 C3988 1.383 . S
C3987 H3995 0.929 . S
C3988 C3987 1.383 . S
C3988 C3989 1.377 . S
C3989 H3973 0.930 . S
C3989 C3988 1.377 . S
C3989 C3990 1.379 . S
C3990 H3974 0.931 . S
C3990 C3984 1.383 . S
C3990 C3989 1.379 . S
H3991 C3985 0.959 . S
H3992 C3985 0.961 . S
H3993 C3985 0.960 . S
H3994 C3986 0.930 . S
H3995 C3987 0.929 . S
H3996 C4004 0.929 . S
H3997 C4006 0.930 . S
H3998 C4008 0.930 . S
H3999 C4011 0.929 . S
H4000 C4014 0.930 . S
H4001 C4016 0.960 . S
H4002 C4016 0.960 . S
H4003 C4016 0.960 . S
C4004 H3996 0.929 . S
C4004 C4005 1.377 . S
C4004 C4006 1.384 . S
C4005 C4004 1.377 . S
C4005 C4011 1.390 . S
C4006 H3997 0.930 . S
C4006 C4004 1.384 . S
C4006 C4007 1.372 . S
C4007 C4006 1.372 . S
C4007 C4008 1.400 . S
C4007 C4012 1.490 . S
C4008 H3998 0.930 . S
C4008 C4007 1.400 . S
C4008 C4011 1.386 . S
H4009 C4025 0.930 . S
H4010 C4026 0.931 . S
C4011 H3999 0.929 . S
C4011 C4005 1.390 . S
C4011 C4008 1.386 . S
C4012 C4007 1.490 . S
C4012 C4014 1.395 . S
C4012 C4015 1.403 . S
H4013 C4019 0.930 . S
C4014 H4000 0.930 . S
C4014 C4012 1.395 . S
C4014 C4017 1.403 . S
C4015 C4012 1.403 . S
C4015 C4016 1.524 . S
C4015 C4019 1.400 . S
C4016 H4001 0.960 . S
C4016 H4002 0.960 . S
C4016 H4003 0.960 . S
C4016 C4015 1.524 . S
C4017 C4014 1.403 . S
C4017 C4018 1.392 . S
C4017 C4021 1.495 . S
C4018 C4017 1.392 . S
C4018 C4019 1.385 . S
C4018 C4020 1.478 . S
C4019 H4013 0.930 . S
C4019 C4015 1.400 . S
C4019 C4018 1.385 . S
C4020 C4018 1.478 . S
C4020 C4022 1.381 . S
C4020 C4026 1.383 . S
C4021 C4017 1.495 . S
C4021 H4027 0.959 . S
C4021 H4028 0.961 . S
C4021 H4029 0.960 . S
C4022 C4020 1.381 . S
C4022 C4023 1.394 . S
C4022 H4030 0.930 . S
C4023 C4022 1.394 . S
C4023 C4024 1.383 . S
C4023 H4031 0.929 . S
C4024 C4023 1.383 . S
C4024 C4025 1.377 . S
C4025 H4009 0.930 . S
C4025 C4024 1.377 . S
C4025 C4026 1.379 . S
C4026 H4010 0.931 . S
C4026 C4020 1.383 . S
C4026 C4025 1.379 . S
H4027 C4021 0.959 . S
H4028 C4021 0.961 . S
H4029 C4021 0.960 . S
H4030 C4022 0.930 . S
H4031 C4023 0.929 . S
H4032 C4040 0.929 . S
H4033 C4042 0.930 . S
H4034 C4044 0.930 . S
H4035 C4047 0.929 . S
H4036 C4050 0.930 . S
H4037 C4052 0.960 . S
H4038 C4052 0.960 . S
H4039 C4052 0.960 . S
C4040 H4032 0.929 . S
C4040 C4041 1.377 . S
C4040 C4042 1.384 . S
C4041 C4040 1.377 . S
C4041 C4047 1.390 . S
C4042 H4033 0.930 . S
C4042 C4040 1.384 . S
C4042 C4043 1.372 . S
C4043 C4042 1.372 . S
C4043 C4044 1.400 . S
C4043 C4048 1.490 . S
C4044 H4034 0.930 . S
C4044 C4043 1.400 . S
C4044 C4047 1.386 . S
H4045 C4061 0.930 . S
H4046 C4062 0.931 . S
C4047 H4035 0.929 . S
C4047 C4041 1.390 . S
C4047 C4044 1.386 . S
C4048 C4043 1.490 . S
C4048 C4050 1.395 . S
C4048 C4051 1.403 . S
H4049 C4055 0.930 . S
C4050 H4036 0.930 . S
C4050 C4048 1.395 . S
C4050 C4053 1.403 . S
C4051 C4048 1.403 . S
C4051 C4052 1.524 . S
C4051 C4055 1.400 . S
C4052 H4037 0.960 . S
C4052 H4038 0.960 . S
C4052 H4039 0.960 . S
C4052 C4051 1.524 . S
C4053 C4050 1.403 . S
C4053 C4054 1.392 . S
C4053 C4057 1.495 . S
C4054 C4053 1.392 . S
C4054 C4055 1.385 . S
C4054 C4056 1.478 . S
C4055 H4049 0.930 . S
C4055 C4051 1.400 . S
C4055 C4054 1.385 . S
C4056 C4054 1.478 . S
C4056 C4058 1.381 . S
C4056 C4062 1.383 . S
C4057 C4053 1.495 . S
C4057 H4063 0.959 . S
C4057 H4064 0.961 . S
C4057 H4065 0.960 . S
C4058 C4056 1.381 . S
C4058 C4059 1.394 . S
C4058 H4066 0.930 . S
C4059 C4058 1.394 . S
C4059 C4060 1.383 . S
C4059 H4067 0.929 . S
C4060 C4059 1.383 . S
C4060 C4061 1.377 . S
C4061 H4045 0.930 . S
C4061 C4060 1.377 . S
C4061 C4062 1.379 . S
C4062 H4046 0.931 . S
C4062 C4056 1.383 . S
C4062 C4061 1.379 . S
H4063 C4057 0.959 . S
H4064 C4057 0.961 . S
H4065 C4057 0.960 . S
H4066 C4058 0.930 . S
H4067 C4059 0.929 . S
H4068 C4076 0.929 . S
H4069 C4078 0.930 . S
H4070 C4080 0.930 1_556 S
H4071 C4083 0.927 . S
H4072 C4086 0.930 . S
H4073 C4088 0.960 . S
H4074 C4088 0.960 . S
H4075 C4088 0.960 . S
C4076 H4068 0.929 . S
C4076 C4077 1.377 . S
C4076 C4078 1.384 . S
C4077 C4076 1.377 . S
C4077 C4083 1.390 . S
C4078 H4069 0.930 . S
C4078 C4076 1.384 . S
C4078 C4079 1.372 . S
C4079 C4078 1.372 . S
C4079 C4080 1.400 . S
C4079 C4084 1.490 . S
C4080 H4070 0.930 1_554 S
C4080 C4079 1.400 . S
C4080 C4083 1.386 . S
H4081 C4097 0.930 1_556 S
H4082 C4098 0.932 1_565 S
C4083 H4071 0.927 . S
C4083 C4077 1.390 . S
C4083 C4080 1.386 . S
C4084 C4079 1.490 . S
C4084 C4086 1.395 . S
C4084 C4087 1.403 1_554 S
H4085 C4091 0.930 . S
C4086 H4072 0.930 . S
C4086 C4084 1.395 . S
C4086 C4089 1.403 . S
C4087 C4084 1.403 1_556 S
C4087 C4088 1.524 . S
C4087 C4091 1.400 . S
C4088 H4073 0.960 . S
C4088 H4074 0.960 . S
C4088 H4075 0.960 . S
C4088 C4087 1.524 . S
C4089 C4086 1.403 . S
C4089 C4090 1.392 1_565 S
C4089 C4093 1.495 1_565 S
C4090 C4089 1.392 1_545 S
C4090 C4091 1.385 1_544 S
C4090 C4092 1.478 . S
C4091 H4085 0.930 . S
C4091 C4087 1.400 . S
C4091 C4090 1.385 1_566 S
C4092 C4090 1.478 . S
C4092 C4094 1.381 . S
C4092 C4098 1.383 . S
C4093 C4089 1.495 1_545 S
C4093 H4099 0.959 . S
C4093 H4100 0.961 . S
C4093 H4101 0.960 . S
C4094 C4092 1.381 . S
C4094 C4095 1.394 . S
C4094 H4102 0.930 . S
C4095 C4094 1.394 . S
C4095 C4096 1.383 . S
C4095 H4103 0.929 . S
C4096 C4095 1.383 . S
C4096 C4097 1.377 . S
C4097 H4081 0.930 1_554 S
C4097 C4096 1.377 . S
C4097 C4098 1.379 . S
C4098 H4082 0.932 1_545 S
C4098 C4092 1.383 . S
C4098 C4097 1.379 . S
H4099 C4093 0.959 . S
H4100 C4093 0.961 . S
H4101 C4093 0.960 . S
H4102 C4094 0.930 . S
H4103 C4095 0.929 . S
H4104 C4112 0.929 . S
H4105 C4114 0.930 . S
H4106 C4116 0.930 . S
H4107 C4119 0.929 . S
H4108 C4122 0.930 . S
H4109 C4124 0.960 . S
H4110 C4124 0.960 . S
H4111 C4124 0.960 . S
C4112 H4104 0.929 . S
C4112 C4113 1.377 . S
C4112 C4114 1.384 . S
C4113 C4112 1.377 . S
C4113 C4119 1.390 . S
C4114 H4105 0.930 . S
C4114 C4112 1.384 . S
C4114 C4115 1.372 . S
C4115 C4114 1.372 . S
C4115 C4116 1.400 . S
C4115 C4120 1.490 . S
C4116 H4106 0.930 . S
C4116 C4115 1.400 . S
C4116 C4119 1.386 . S
H4117 C4133 0.930 . S
H4118 C4134 0.931 . S
C4119 H4107 0.929 . S
C4119 C4113 1.390 . S
C4119 C4116 1.386 . S
C4120 C4115 1.490 . S
C4120 C4122 1.395 . S
C4120 C4123 1.403 . S
H4121 C4127 0.930 . S
C4122 H4108 0.930 . S
C4122 C4120 1.395 . S
C4122 C4125 1.403 . S
C4123 C4120 1.403 . S
C4123 C4124 1.524 . S
C4123 C4127 1.400 . S
C4124 H4109 0.960 . S
C4124 H4110 0.960 . S
C4124 H4111 0.960 . S
C4124 C4123 1.524 . S
C4125 C4122 1.403 . S
C4125 C4126 1.392 . S
C4125 C4129 1.495 . S
C4126 C4125 1.392 . S
C4126 C4127 1.385 . S
C4126 C4128 1.478 . S
C4127 H4121 0.930 . S
C4127 C4123 1.400 . S
C4127 C4126 1.385 . S
C4128 C4126 1.478 . S
C4128 C4130 1.381 . S
C4128 C4134 1.383 . S
C4129 C4125 1.495 . S
C4129 H4135 0.959 . S
C4129 H4136 0.961 . S
C4129 H4137 0.960 . S
C4130 C4128 1.381 . S
C4130 C4131 1.394 . S
C4130 H4138 0.930 . S
C4131 C4130 1.394 . S
C4131 C4132 1.383 . S
C4131 H4139 0.929 . S
C4132 C4131 1.383 . S
C4132 C4133 1.377 . S
C4133 H4117 0.930 . S
C4133 C4132 1.377 . S
C4133 C4134 1.379 . S
C4134 H4118 0.931 . S
C4134 C4128 1.383 . S
C4134 C4133 1.379 . S
H4135 C4129 0.959 . S
H4136 C4129 0.961 . S
H4137 C4129 0.960 . S
H4138 C4130 0.930 . S
H4139 C4131 0.929 . S
H4140 C4148 0.929 . S
H4141 C4150 0.930 . S
H4142 C4152 0.930 . S
H4143 C4155 0.929 . S
H4144 C4158 0.930 . S
H4145 C4160 0.960 . S
H4146 C4160 0.960 . S
H4147 C4160 0.960 . S
C4148 H4140 0.929 . S
C4148 C4149 1.377 . S
C4148 C4150 1.384 . S
C4149 C4148 1.377 . S
C4149 C4155 1.390 . S
C4150 H4141 0.930 . S
C4150 C4148 1.384 . S
C4150 C4151 1.372 . S
C4151 C4150 1.372 . S
C4151 C4152 1.400 . S
C4151 C4156 1.490 . S
C4152 H4142 0.930 . S
C4152 C4151 1.400 . S
C4152 C4155 1.386 . S
H4153 C4169 0.930 . S
H4154 C4170 0.931 . S
C4155 H4143 0.929 . S
C4155 C4149 1.390 . S
C4155 C4152 1.386 . S
C4156 C4151 1.490 . S
C4156 C4158 1.395 . S
C4156 C4159 1.403 . S
H4157 C4163 0.930 . S
C4158 H4144 0.930 . S
C4158 C4156 1.395 . S
C4158 C4161 1.403 . S
C4159 C4156 1.403 . S
C4159 C4160 1.524 1_554 S
C4159 C4163 1.400 . S
C4160 H4145 0.960 . S
C4160 H4146 0.960 . S
C4160 H4147 0.960 . S
C4160 C4159 1.524 1_556 S
C4161 C4158 1.403 . S
C4161 C4162 1.392 . S
C4161 C4165 1.495 . S
C4162 C4161 1.392 . S
C4162 C4163 1.385 . S
C4162 C4164 1.478 . S
C4163 H4157 0.930 . S
C4163 C4159 1.400 . S
C4163 C4162 1.385 . S
C4164 C4162 1.478 . S
C4164 C4166 1.381 . S
C4164 C4170 1.383 . S
C4165 C4161 1.495 . S
C4165 H4171 0.959 . S
C4165 H4172 0.961 . S
C4165 H4173 0.960 . S
C4166 C4164 1.381 . S
C4166 C4167 1.394 . S
C4166 H4174 0.930 . S
C4167 C4166 1.394 . S
C4167 C4168 1.383 . S
C4167 H4175 0.929 . S
C4168 C4167 1.383 . S
C4168 C4169 1.377 . S
C4169 H4153 0.930 . S
C4169 C4168 1.377 . S
C4169 C4170 1.379 . S
C4170 H4154 0.931 . S
C4170 C4164 1.383 . S
C4170 C4169 1.379 . S
H4171 C4165 0.959 . S
H4172 C4165 0.961 . S
H4173 C4165 0.960 . S
H4174 C4166 0.930 . S
H4175 C4167 0.929 . S
H4176 C4184 0.929 . S
H4177 C4186 0.930 . S
H4178 C4188 0.930 . S
H4179 C4191 0.929 . S
H4180 C4194 0.930 . S
H4181 C4196 0.960 . S
H4182 C4196 0.960 . S
H4183 C4196 0.960 . S
C4184 H4176 0.929 . S
C4184 C4185 1.377 . S
C4184 C4186 1.384 . S
C4185 C4184 1.377 . S
C4185 C4191 1.390 . S
C4186 H4177 0.930 . S
C4186 C4184 1.384 . S
C4186 C4187 1.372 . S
C4187 C4186 1.372 . S
C4187 C4188 1.400 . S
C4187 C4192 1.490 . S
C4188 H4178 0.930 . S
C4188 C4187 1.400 . S
C4188 C4191 1.386 . S
H4189 C4205 0.930 . S
H4190 C4206 0.931 . S
C4191 H4179 0.929 . S
C4191 C4185 1.390 . S
C4191 C4188 1.386 . S
C4192 C4187 1.490 . S
C4192 C4194 1.395 . S
C4192 C4195 1.403 . S
H4193 C4199 0.930 . S
C4194 H4180 0.930 . S
C4194 C4192 1.395 . S
C4194 C4197 1.403 . S
C4195 C4192 1.403 . S
C4195 C4196 1.524 . S
C4195 C4199 1.400 . S
C4196 H4181 0.960 . S
C4196 H4182 0.960 . S
C4196 H4183 0.960 . S
C4196 C4195 1.524 . S
C4197 C4194 1.403 . S
C4197 C4198 1.392 . S
C4197 C4201 1.495 . S
C4198 C4197 1.392 . S
C4198 C4199 1.385 . S
C4198 C4200 1.478 . S
C4199 H4193 0.930 . S
C4199 C4195 1.400 . S
C4199 C4198 1.385 . S
C4200 C4198 1.478 . S
C4200 C4202 1.381 . S
C4200 C4206 1.383 . S
C4201 C4197 1.495 . S
C4201 H4207 0.959 . S
C4201 H4208 0.961 . S
C4201 H4209 0.960 . S
C4202 C4200 1.381 . S
C4202 C4203 1.394 . S
C4202 H4210 0.930 . S
C4203 C4202 1.394 . S
C4203 C4204 1.383 . S
C4203 H4211 0.929 . S
C4204 C4203 1.383 . S
C4204 C4205 1.377 . S
C4205 H4189 0.930 . S
C4205 C4204 1.377 . S
C4205 C4206 1.379 . S
C4206 H4190 0.931 . S
C4206 C4200 1.383 . S
C4206 C4205 1.379 . S
H4207 C4201 0.959 . S
H4208 C4201 0.961 . S
H4209 C4201 0.960 . S
H4210 C4202 0.930 . S
H4211 C4203 0.929 . S
H4212 C4220 0.929 . S
H4213 C4222 0.930 . S
H4214 C4224 0.930 . S
H4215 C4227 0.929 . S
H4216 C4230 0.930 . S
H4217 C4232 0.960 . S
H4218 C4232 0.960 . S
H4219 C4232 0.960 . S
C4220 H4212 0.929 . S
C4220 C4221 1.377 . S
C4220 C4222 1.384 . S
C4221 C4220 1.377 . S
C4221 C4227 1.390 . S
C4222 H4213 0.930 . S
C4222 C4220 1.384 . S
C4222 C4223 1.372 . S
C4223 C4222 1.372 . S
C4223 C4224 1.400 . S
C4223 C4228 1.490 . S
C4224 H4214 0.930 . S
C4224 C4223 1.400 . S
C4224 C4227 1.386 . S
H4225 C4241 0.930 . S
H4226 C4242 0.931 . S
C4227 H4215 0.929 . S
C4227 C4221 1.390 . S
C4227 C4224 1.386 . S
C4228 C4223 1.490 . S
C4228 C4230 1.395 . S
C4228 C4231 1.403 . S
H4229 C4235 0.930 . S
C4230 H4216 0.930 . S
C4230 C4228 1.395 . S
C4230 C4233 1.403 . S
C4231 C4228 1.403 . S
C4231 C4232 1.524 . S
C4231 C4235 1.400 . S
C4232 H4217 0.960 . S
C4232 H4218 0.960 . S
C4232 H4219 0.960 . S
C4232 C4231 1.524 . S
C4233 C4230 1.403 . S
C4233 C4234 1.392 . S
C4233 C4237 1.495 . S
C4234 C4233 1.392 . S
C4234 C4235 1.385 . S
C4234 C4236 1.478 . S
C4235 H4229 0.930 . S
C4235 C4231 1.400 . S
C4235 C4234 1.385 . S
C4236 C4234 1.478 . S
C4236 C4238 1.381 . S
C4236 C4242 1.383 . S
C4237 C4233 1.495 . S
C4237 H4243 0.959 . S
C4237 H4244 0.961 . S
C4237 H4245 0.960 . S
C4238 C4236 1.381 . S
C4238 C4239 1.394 . S
C4238 H4246 0.930 . S
C4239 C4238 1.394 . S
C4239 C4240 1.383 . S
C4239 H4247 0.929 . S
C4240 C4239 1.383 . S
C4240 C4241 1.377 . S
C4241 H4225 0.930 . S
C4241 C4240 1.377 . S
C4241 C4242 1.379 . S
C4242 H4226 0.931 . S
C4242 C4236 1.383 . S
C4242 C4241 1.379 . S
H4243 C4237 0.959 . S
H4244 C4237 0.961 . S
H4245 C4237 0.960 . S
H4246 C4238 0.930 . S
H4247 C4239 0.929 . S
H4248 C4256 0.929 . S
H4249 C4258 0.930 . S
H4250 C4260 0.930 . S
H4251 C4263 0.929 . S
H4252 C4266 0.930 . S
H4253 C4268 0.960 . S
H4254 C4268 0.960 . S
H4255 C4268 0.960 . S
C4256 H4248 0.929 . S
C4256 C4257 1.377 . S
C4256 C4258 1.384 . S
C4257 C4256 1.377 . S
C4257 C4263 1.390 . S
C4258 H4249 0.930 . S
C4258 C4256 1.384 . S
C4258 C4259 1.372 . S
C4259 C4258 1.372 . S
C4259 C4260 1.400 . S
C4259 C4264 1.490 . S
C4260 H4250 0.930 . S
C4260 C4259 1.400 . S
C4260 C4263 1.386 . S
H4261 C4277 0.930 . S
H4262 C4278 0.931 . S
C4263 H4251 0.929 . S
C4263 C4257 1.390 . S
C4263 C4260 1.386 . S
C4264 C4259 1.490 . S
C4264 C4266 1.395 . S
C4264 C4267 1.403 . S
H4265 C4271 0.930 . S
C4266 H4252 0.930 . S
C4266 C4264 1.395 . S
C4266 C4269 1.403 . S
C4267 C4264 1.403 . S
C4267 C4268 1.524 . S
C4267 C4271 1.400 . S
C4268 H4253 0.960 . S
C4268 H4254 0.960 . S
C4268 H4255 0.960 . S
C4268 C4267 1.524 . S
C4269 C4266 1.403 . S
C4269 C4270 1.392 . S
C4269 C4273 1.495 . S
C4270 C4269 1.392 . S
C4270 C4271 1.385 . S
C4270 C4272 1.478 . S
C4271 H4265 0.930 . S
C4271 C4267 1.400 . S
C4271 C4270 1.385 . S
C4272 C4270 1.478 . S
C4272 C4274 1.381 . S
C4272 C4278 1.383 . S
C4273 C4269 1.495 . S
C4273 H4279 0.959 . S
C4273 H4280 0.961 . S
C4273 H4281 0.960 . S
C4274 C4272 1.381 . S
C4274 C4275 1.394 . S
C4274 H4282 0.930 . S
C4275 C4274 1.394 . S
C4275 C4276 1.383 . S
C4275 H4283 0.929 . S
C4276 C4275 1.383 . S
C4276 C4277 1.377 . S
C4277 H4261 0.930 . S
C4277 C4276 1.377 . S
C4277 C4278 1.379 . S
C4278 H4262 0.931 . S
C4278 C4272 1.383 . S
C4278 C4277 1.379 . S
H4279 C4273 0.959 . S
H4280 C4273 0.961 . S
H4281 C4273 0.960 . S
H4282 C4274 0.930 . S
H4283 C4275 0.929 . S
H4284 C4292 0.929 . S
H4285 C4294 0.930 . S
H4286 C4296 0.930 . S
H4287 C4299 0.929 . S
H4288 C4302 0.930 . S
H4289 C4304 0.960 . S
H4290 C4304 0.960 . S
H4291 C4304 0.960 . S
C4292 H4284 0.929 . S
C4292 C4293 1.377 . S
C4292 C4294 1.384 . S
C4293 C4292 1.377 . S
C4293 C4299 1.390 . S
C4294 H4285 0.930 . S
C4294 C4292 1.384 . S
C4294 C4295 1.372 . S
C4295 C4294 1.372 . S
C4295 C4296 1.400 . S
C4295 C4300 1.490 . S
C4296 H4286 0.930 . S
C4296 C4295 1.400 . S
C4296 C4299 1.386 . S
H4297 C4313 0.930 . S
H4298 C4314 0.931 . S
C4299 H4287 0.929 . S
C4299 C4293 1.390 . S
C4299 C4296 1.386 . S
C4300 C4295 1.490 . S
C4300 C4302 1.395 . S
C4300 C4303 1.403 . S
H4301 C4307 0.930 . S
C4302 H4288 0.930 . S
C4302 C4300 1.395 . S
C4302 C4305 1.403 . S
C4303 C4300 1.403 . S
C4303 C4304 1.524 . S
C4303 C4307 1.400 . S
C4304 H4289 0.960 . S
C4304 H4290 0.960 . S
C4304 H4291 0.960 . S
C4304 C4303 1.524 . S
C4305 C4302 1.403 . S
C4305 C4306 1.392 . S
C4305 C4309 1.495 . S
C4306 C4305 1.392 . S
C4306 C4307 1.385 . S
C4306 C4308 1.478 . S
C4307 H4301 0.930 . S
C4307 C4303 1.400 . S
C4307 C4306 1.385 . S
C4308 C4306 1.478 . S
C4308 C4310 1.381 . S
C4308 C4314 1.383 . S
C4309 C4305 1.495 . S
C4309 H4315 0.959 . S
C4309 H4316 0.961 . S
C4309 H4317 0.960 . S
C4310 C4308 1.381 . S
C4310 C4311 1.394 . S
C4310 H4318 0.930 . S
C4311 C4310 1.394 . S
C4311 C4312 1.383 . S
C4311 H4319 0.929 . S
C4312 C4311 1.383 . S
C4312 C4313 1.377 . S
C4313 H4297 0.930 . S
C4313 C4312 1.377 . S
C4313 C4314 1.379 . S
C4314 H4298 0.931 . S
C4314 C4308 1.383 . S
C4314 C4313 1.379 . S
H4315 C4309 0.959 . S
H4316 C4309 0.961 . S
H4317 C4309 0.960 . S
H4318 C4310 0.930 . S
H4319 C4311 0.929 . S
H4320 C4328 0.929 . S
H4321 C4330 0.930 . S
H4322 C4332 0.930 . S
H4323 C4335 0.929 . S
H4324 C4338 0.930 . S
H4325 C4340 0.960 . S
H4326 C4340 0.960 . S
H4327 C4340 0.960 . S
C4328 H4320 0.929 . S
C4328 C4329 1.377 . S
C4328 C4330 1.384 . S
C4329 C4328 1.377 . S
C4329 C4335 1.390 . S
C4330 H4321 0.930 . S
C4330 C4328 1.384 . S
C4330 C4331 1.372 . S
C4331 C4330 1.372 . S
C4331 C4332 1.400 . S
C4331 C4336 1.490 . S
C4332 H4322 0.930 . S
C4332 C4331 1.400 . S
C4332 C4335 1.386 . S
H4333 C4349 0.930 . S
H4334 C4350 0.931 . S
C4335 H4323 0.929 . S
C4335 C4329 1.390 . S
C4335 C4332 1.386 . S
C4336 C4331 1.490 . S
C4336 C4338 1.395 . S
C4336 C4339 1.403 . S
H4337 C4343 0.930 . S
C4338 H4324 0.930 . S
C4338 C4336 1.395 . S
C4338 C4341 1.403 . S
C4339 C4336 1.403 . S
C4339 C4340 1.524 . S
C4339 C4343 1.400 . S
C4340 H4325 0.960 . S
C4340 H4326 0.960 . S
C4340 H4327 0.960 . S
C4340 C4339 1.524 . S
C4341 C4338 1.403 . S
C4341 C4342 1.392 . S
C4341 C4345 1.495 . S
C4342 C4341 1.392 . S
C4342 C4343 1.385 . S
C4342 C4344 1.478 . S
C4343 H4337 0.930 . S
C4343 C4339 1.400 . S
C4343 C4342 1.385 . S
C4344 C4342 1.478 . S
C4344 C4346 1.381 . S
C4344 C4350 1.383 . S
C4345 C4341 1.495 . S
C4345 H4351 0.959 . S
C4345 H4352 0.961 . S
C4345 H4353 0.960 . S
C4346 C4344 1.381 . S
C4346 C4347 1.394 . S
C4346 H4354 0.930 . S
C4347 C4346 1.394 . S
C4347 C4348 1.383 . S
C4347 H4355 0.929 . S
C4348 C4347 1.383 . S
C4348 C4349 1.377 . S
C4349 H4333 0.930 . S
C4349 C4348 1.377 . S
C4349 C4350 1.379 . S
C4350 H4334 0.931 . S
C4350 C4344 1.383 . S
C4350 C4349 1.379 . S
H4351 C4345 0.959 . S
H4352 C4345 0.961 . S
H4353 C4345 0.960 . S
H4354 C4346 0.930 . S
H4355 C4347 0.929 . S
H4356 C4364 0.929 . S
H4357 C4366 0.930 . S
H4358 C4368 0.930 . S
H4359 C4371 0.929 . S
H4360 C4374 0.930 . S
H4361 C4376 0.960 . S
H4362 C4376 0.960 . S
H4363 C4376 0.960 . S
C4364 H4356 0.929 . S
C4364 C4365 1.377 . S
C4364 C4366 1.384 . S
C4365 C4364 1.377 . S
C4365 C4371 1.390 . S
C4366 H4357 0.930 . S
C4366 C4364 1.384 . S
C4366 C4367 1.372 . S
C4367 C4366 1.372 . S
C4367 C4368 1.400 . S
C4367 C4372 1.490 . S
C4368 H4358 0.930 . S
C4368 C4367 1.400 . S
C4368 C4371 1.386 . S
H4369 C4385 0.930 . S
H4370 C4386 0.931 . S
C4371 H4359 0.929 . S
C4371 C4365 1.390 . S
C4371 C4368 1.386 . S
C4372 C4367 1.490 . S
C4372 C4374 1.395 . S
C4372 C4375 1.403 . S
H4373 C4379 0.930 . S
C4374 H4360 0.930 . S
C4374 C4372 1.395 . S
C4374 C4377 1.403 . S
C4375 C4372 1.403 . S
C4375 C4376 1.524 . S
C4375 C4379 1.400 . S
C4376 H4361 0.960 . S
C4376 H4362 0.960 . S
C4376 H4363 0.960 . S
C4376 C4375 1.524 . S
C4377 C4374 1.403 . S
C4377 C4378 1.392 . S
C4377 C4381 1.495 . S
C4378 C4377 1.392 . S
C4378 C4379 1.385 . S
C4378 C4380 1.478 . S
C4379 H4373 0.930 . S
C4379 C4375 1.400 . S
C4379 C4378 1.385 . S
C4380 C4378 1.478 . S
C4380 C4382 1.381 . S
C4380 C4386 1.383 . S
C4381 C4377 1.495 . S
C4381 H4387 0.959 . S
C4381 H4388 0.961 . S
C4381 H4389 0.960 . S
C4382 C4380 1.381 . S
C4382 C4383 1.394 . S
C4382 H4390 0.930 . S
C4383 C4382 1.394 . S
C4383 C4384 1.383 . S
C4383 H4391 0.929 . S
C4384 C4383 1.383 . S
C4384 C4385 1.377 . S
C4385 H4369 0.930 . S
C4385 C4384 1.377 . S
C4385 C4386 1.379 . S
C4386 H4370 0.931 . S
C4386 C4380 1.383 . S
C4386 C4385 1.379 . S
H4387 C4381 0.959 . S
H4388 C4381 0.961 . S
H4389 C4381 0.960 . S
H4390 C4382 0.930 . S
H4391 C4383 0.929 . S
H4392 C4400 0.929 . S
H4393 C4402 0.930 . S
H4394 C4404 0.930 . S
H4395 C4407 0.929 . S
H4396 C4410 0.930 . S
H4397 C4412 0.960 . S
H4398 C4412 0.960 . S
H4399 C4412 0.960 . S
C4400 H4392 0.929 . S
C4400 C4401 1.377 . S
C4400 C4402 1.384 . S
C4401 C4400 1.377 . S
C4401 C4407 1.390 . S
C4402 H4393 0.930 . S
C4402 C4400 1.384 . S
C4402 C4403 1.372 . S
C4403 C4402 1.372 . S
C4403 C4404 1.400 . S
C4403 C4408 1.490 . S
C4404 H4394 0.930 . S
C4404 C4403 1.400 . S
C4404 C4407 1.386 . S
H4405 C4421 0.881 1_554 S
H4406 C4422 0.931 . S
C4407 H4395 0.929 . S
C4407 C4401 1.390 . S
C4407 C4404 1.386 . S
C4408 C4403 1.490 . S
C4408 C4410 1.395 . S
C4408 C4411 1.403 . S
H4409 C4415 0.930 . S
C4410 H4396 0.930 . S
C4410 C4408 1.395 . S
C4410 C4413 1.403 . S
C4411 C4408 1.403 . S
C4411 C4412 1.524 . S
C4411 C4415 1.400 . S
C4412 H4397 0.960 . S
C4412 H4398 0.960 . S
C4412 H4399 0.960 . S
C4412 C4411 1.524 . S
C4413 C4410 1.403 . S
C4413 C4414 1.392 . S
C4413 C4417 1.495 . S
C4414 C4413 1.392 . S
C4414 C4415 1.385 . S
C4414 C4416 1.478 . S
C4415 H4409 0.930 . S
C4415 C4411 1.400 . S
C4415 C4414 1.385 . S
C4416 C4414 1.478 . S
C4416 C4418 1.381 . S
C4416 C4422 1.383 . S
C4417 C4413 1.495 . S
C4417 H4423 0.959 . S
C4417 H4424 0.961 . S
C4417 H4425 0.960 . S
C4418 C4416 1.381 . S
C4418 C4419 1.394 . S
C4418 H4426 0.930 . S
C4419 C4418 1.394 . S
C4419 C4420 1.383 . S
C4419 H4427 0.929 . S
C4420 C4419 1.383 . S
C4420 C4421 1.377 . S
C4421 H4405 0.881 1_556 S
C4421 C4420 1.377 . S
C4421 C4422 1.379 . S
C4422 H4406 0.931 . S
C4422 C4416 1.383 . S
C4422 C4421 1.379 . S
H4423 C4417 0.959 . S
H4424 C4417 0.961 . S
H4425 C4417 0.960 . S
H4426 C4418 0.930 . S
H4427 C4419 0.929 . S
H4428 C4436 0.929 . S
H4429 C4438 0.930 . S
H4430 C4440 0.930 . S
H4431 C4443 0.929 . S
H4432 C4446 0.930 . S
H4433 C4448 0.960 . S
H4434 C4448 0.960 . S
H4435 C4448 0.960 . S
C4436 H4428 0.929 . S
C4436 C4437 1.377 . S
C4436 C4438 1.384 . S
C4437 C4436 1.377 . S
C4437 C4443 1.390 . S
C4438 H4429 0.930 . S
C4438 C4436 1.384 . S
C4438 C4439 1.372 . S
C4439 C4438 1.372 . S
C4439 C4440 1.400 . S
C4439 C4444 1.490 . S
C4440 H4430 0.930 . S
C4440 C4439 1.400 . S
C4440 C4443 1.386 . S
H4441 C4457 0.930 . S
H4442 C4458 0.931 . S
C4443 H4431 0.929 . S
C4443 C4437 1.390 . S
C4443 C4440 1.386 . S
C4444 C4439 1.490 . S
C4444 C4446 1.395 . S
C4444 C4447 1.403 . S
H4445 C4451 0.930 . S
C4446 H4432 0.930 . S
C4446 C4444 1.395 . S
C4446 C4449 1.403 . S
C4447 C4444 1.403 . S
C4447 C4448 1.524 . S
C4447 C4451 1.400 . S
C4448 H4433 0.960 . S
C4448 H4434 0.960 . S
C4448 H4435 0.960 . S
C4448 C4447 1.524 . S
C4449 C4446 1.403 . S
C4449 C4450 1.392 . S
C4449 C4453 1.495 . S
C4450 C4449 1.392 . S
C4450 C4451 1.385 . S
C4450 C4452 1.478 . S
C4451 H4445 0.930 . S
C4451 C4447 1.400 . S
C4451 C4450 1.385 . S
C4452 C4450 1.478 . S
C4452 C4454 1.381 . S
C4452 C4458 1.383 . S
C4453 C4449 1.495 . S
C4453 H4459 0.959 . S
C4453 H4460 0.961 . S
C4453 H4461 0.960 . S
C4454 C4452 1.381 . S
C4454 C4455 1.394 . S
C4454 H4462 0.930 . S
C4455 C4454 1.394 . S
C4455 C4456 1.383 . S
C4455 H4463 0.929 . S
C4456 C4455 1.383 . S
C4456 C4457 1.377 . S
C4457 H4441 0.930 . S
C4457 C4456 1.377 . S
C4457 C4458 1.379 . S
C4458 H4442 0.931 . S
C4458 C4452 1.383 . S
C4458 C4457 1.379 . S
H4459 C4453 0.959 . S
H4460 C4453 0.961 . S
H4461 C4453 0.960 . S
H4462 C4454 0.930 . S
H4463 C4455 0.929 . S
H4464 C4472 0.929 . S
H4465 C4474 0.930 . S
H4466 C4476 0.930 . S
H4467 C4479 0.929 . S
H4468 C4482 0.930 . S
H4469 C4484 0.960 . S
H4470 C4484 0.960 . S
H4471 C4484 0.960 . S
C4472 H4464 0.929 . S
C4472 C4473 1.377 . S
C4472 C4474 1.384 . S
C4473 C4472 1.377 . S
C4473 C4479 1.390 . S
C4474 H4465 0.930 . S
C4474 C4472 1.384 . S
C4474 C4475 1.372 . S
C4475 C4474 1.372 . S
C4475 C4476 1.400 . S
C4475 C4480 1.490 . S
C4476 H4466 0.930 . S
C4476 C4475 1.400 . S
C4476 C4479 1.386 . S
H4477 C4493 0.930 . S
H4478 C4494 0.931 . S
C4479 H4467 0.929 . S
C4479 C4473 1.390 . S
C4479 C4476 1.386 . S
C4480 C4475 1.490 . S
C4480 C4482 1.395 . S
C4480 C4483 1.403 . S
H4481 C4487 0.930 . S
C4482 H4468 0.930 . S
C4482 C4480 1.395 . S
C4482 C4485 1.403 . S
C4483 C4480 1.403 . S
C4483 C4484 1.524 . S
C4483 C4487 1.400 . S
C4484 H4469 0.960 . S
C4484 H4470 0.960 . S
C4484 H4471 0.960 . S
C4484 C4483 1.524 . S
C4485 C4482 1.403 . S
C4485 C4486 1.392 . S
C4485 C4489 1.495 . S
C4486 C4485 1.392 . S
C4486 C4487 1.385 . S
C4486 C4488 1.478 . S
C4487 H4481 0.930 . S
C4487 C4483 1.400 . S
C4487 C4486 1.385 . S
C4488 C4486 1.478 . S
C4488 C4490 1.381 . S
C4488 C4494 1.383 . S
C4489 C4485 1.495 . S
C4489 H4495 0.959 . S
C4489 H4496 0.961 . S
C4489 H4497 0.960 . S
C4490 C4488 1.381 . S
C4490 C4491 1.394 . S
C4490 H4498 0.930 . S
C4491 C4490 1.394 . S
C4491 C4492 1.383 . S
C4491 H4499 0.929 . S
C4492 C4491 1.383 . S
C4492 C4493 1.377 . S
C4493 H4477 0.930 . S
C4493 C4492 1.377 . S
C4493 C4494 1.379 . S
C4494 H4478 0.931 . S
C4494 C4488 1.383 . S
C4494 C4493 1.379 . S
H4495 C4489 0.959 . S
H4496 C4489 0.961 . S
H4497 C4489 0.960 . S
H4498 C4490 0.930 . S
H4499 C4491 0.929 . S
H4500 C4508 0.929 . S
H4501 C4510 0.930 . S
H4502 C4512 0.930 . S
H4503 C4515 0.929 . S
H4504 C4518 0.930 . S
H4505 C4520 0.960 . S
H4506 C4520 0.960 . S
H4507 C4520 0.960 . S
C4508 H4500 0.929 . S
C4508 C4509 1.377 . S
C4508 C4510 1.384 . S
C4509 C4508 1.377 . S
C4509 C4515 1.390 . S
C4510 H4501 0.930 . S
C4510 C4508 1.384 . S
C4510 C4511 1.372 . S
C4511 C4510 1.372 . S
C4511 C4512 1.400 . S
C4511 C4516 1.490 . S
C4512 H4502 0.930 . S
C4512 C4511 1.400 . S
C4512 C4515 1.386 . S
H4513 C4529 0.930 . S
H4514 C4530 0.931 . S
C4515 H4503 0.929 . S
C4515 C4509 1.390 . S
C4515 C4512 1.386 . S
C4516 C4511 1.490 . S
C4516 C4518 1.395 . S
C4516 C4519 1.403 . S
H4517 C4523 0.930 . S
C4518 H4504 0.930 . S
C4518 C4516 1.395 . S
C4518 C4521 1.403 . S
C4519 C4516 1.403 . S
C4519 C4520 1.524 . S
C4519 C4523 1.400 . S
C4520 H4505 0.960 . S
C4520 H4506 0.960 . S
C4520 H4507 0.960 . S
C4520 C4519 1.524 . S
C4521 C4518 1.403 . S
C4521 C4522 1.392 . S
C4521 C4525 1.495 . S
C4522 C4521 1.392 . S
C4522 C4523 1.385 . S
C4522 C4524 1.478 . S
C4523 H4517 0.930 . S
C4523 C4519 1.400 . S
C4523 C4522 1.385 . S
C4524 C4522 1.478 . S
C4524 C4526 1.381 . S
C4524 C4530 1.383 . S
C4525 C4521 1.495 . S
C4525 H4531 0.959 . S
C4525 H4532 0.961 . S
C4525 H4533 0.960 . S
C4526 C4524 1.381 . S
C4526 C4527 1.394 . S
C4526 H4534 0.930 . S
C4527 C4526 1.394 . S
C4527 C4528 1.383 . S
C4527 H4535 0.929 . S
C4528 C4527 1.383 . S
C4528 C4529 1.377 . S
C4529 H4513 0.930 . S
C4529 C4528 1.377 . S
C4529 C4530 1.379 . S
C4530 H4514 0.931 . S
C4530 C4524 1.383 . S
C4530 C4529 1.379 . S
H4531 C4525 0.959 . S
H4532 C4525 0.961 . S
H4533 C4525 0.960 . S
H4534 C4526 0.930 . S
H4535 C4527 0.929 . S
H4536 C4544 0.929 . S
H4537 C4546 0.930 . S
H4538 C4548 0.930 . S
H4539 C4551 0.929 . S
H4540 C4554 0.930 . S
H4541 C4556 0.960 . S
H4542 C4556 0.960 . S
H4543 C4556 0.960 . S
C4544 H4536 0.929 . S
C4544 C4545 1.377 . S
C4544 C4546 1.384 . S
C4545 C4544 1.377 . S
C4545 C4551 1.390 . S
C4546 H4537 0.930 . S
C4546 C4544 1.384 . S
C4546 C4547 1.372 . S
C4547 C4546 1.372 . S
C4547 C4548 1.400 . S
C4547 C4552 1.490 . S
C4548 H4538 0.930 . S
C4548 C4547 1.400 . S
C4548 C4551 1.386 . S
H4549 C4565 0.930 . S
H4550 C4566 0.931 . S
C4551 H4539 0.929 . S
C4551 C4545 1.390 . S
C4551 C4548 1.386 . S
C4552 C4547 1.490 . S
C4552 C4554 1.395 . S
C4552 C4555 1.403 . S
H4553 C4559 0.930 . S
C4554 H4540 0.930 . S
C4554 C4552 1.395 . S
C4554 C4557 1.403 . S
C4555 C4552 1.403 . S
C4555 C4556 1.524 . S
C4555 C4559 1.400 . S
C4556 H4541 0.960 . S
C4556 H4542 0.960 . S
C4556 H4543 0.960 . S
C4556 C4555 1.524 . S
C4557 C4554 1.403 . S
C4557 C4558 1.392 . S
C4557 C4561 1.495 . S
C4558 C4557 1.392 . S
C4558 C4559 1.385 . S
C4558 C4560 1.478 . S
C4559 H4553 0.930 . S
C4559 C4555 1.400 . S
C4559 C4558 1.385 . S
C4560 C4558 1.478 . S
C4560 C4562 1.381 . S
C4560 C4566 1.383 . S
C4561 C4557 1.495 . S
C4561 H4567 0.959 . S
C4561 H4568 0.961 . S
C4561 H4569 0.960 . S
C4562 C4560 1.381 . S
C4562 C4563 1.394 . S
C4562 H4570 0.930 . S
C4563 C4562 1.394 . S
C4563 C4564 1.383 . S
C4563 H4571 0.929 . S
C4564 C4563 1.383 . S
C4564 C4565 1.377 . S
C4565 H4549 0.930 . S
C4565 C4564 1.377 . S
C4565 C4566 1.379 . S
C4566 H4550 0.931 . S
C4566 C4560 1.383 . S
C4566 C4565 1.379 . S
H4567 C4561 0.959 . S
H4568 C4561 0.961 . S
H4569 C4561 0.960 . S
H4570 C4562 0.930 . S
H4571 C4563 0.929 . S
H4572 C4580 0.929 . S
H4573 C4582 0.930 . S
H4574 C4584 0.930 . S
H4575 C4587 0.929 . S
H4576 C4590 0.930 . S
H4577 C4592 0.960 . S
H4578 C4592 0.960 . S
H4579 C4592 0.960 . S
C4580 H4572 0.929 . S
C4580 C4581 1.377 . S
C4580 C4582 1.384 . S
C4581 C4580 1.377 . S
C4581 C4587 1.390 . S
C4582 H4573 0.930 . S
C4582 C4580 1.384 . S
C4582 C4583 1.372 . S
C4583 C4582 1.372 . S
C4583 C4584 1.400 . S
C4583 C4588 1.490 . S
C4584 H4574 0.930 . S
C4584 C4583 1.400 . S
C4584 C4587 1.386 . S
H4585 C4601 0.930 . S
H4586 C4602 0.931 . S
C4587 H4575 0.929 . S
C4587 C4581 1.390 . S
C4587 C4584 1.386 . S
C4588 C4583 1.490 . S
C4588 C4590 1.395 . S
C4588 C4591 1.403 . S
H4589 C4595 0.930 . S
C4590 H4576 0.930 . S
C4590 C4588 1.395 . S
C4590 C4593 1.403 . S
C4591 C4588 1.403 . S
C4591 C4592 1.524 . S
C4591 C4595 1.400 . S
C4592 H4577 0.960 . S
C4592 H4578 0.960 . S
C4592 H4579 0.960 . S
C4592 C4591 1.524 . S
C4593 C4590 1.403 . S
C4593 C4594 1.392 . S
C4593 C4597 1.495 . S
C4594 C4593 1.392 . S
C4594 C4595 1.385 . S
C4594 C4596 1.478 . S
C4595 H4589 0.930 . S
C4595 C4591 1.400 . S
C4595 C4594 1.385 . S
C4596 C4594 1.478 . S
C4596 C4598 1.381 . S
C4596 C4602 1.383 . S
C4597 C4593 1.495 . S
C4597 H4603 0.959 . S
C4597 H4604 0.961 . S
C4597 H4605 0.960 . S
C4598 C4596 1.381 . S
C4598 C4599 1.394 . S
C4598 H4606 0.930 . S
C4599 C4598 1.394 . S
C4599 C4600 1.383 . S
C4599 H4607 0.929 . S
C4600 C4599 1.383 . S
C4600 C4601 1.377 . S
C4601 H4585 0.930 . S
C4601 C4600 1.377 . S
C4601 C4602 1.379 . S
C4602 H4586 0.931 . S
C4602 C4596 1.383 . S
C4602 C4601 1.379 . S
H4603 C4597 0.959 . S
H4604 C4597 0.961 . S
H4605 C4597 0.960 . S
H4606 C4598 0.930 . S
H4607 C4599 0.929 . S
H4608 C4616 0.929 . S
H4609 C4618 0.930 . S
H4610 C4620 0.930 . S
H4611 C4623 0.929 . S
H4612 C4626 0.930 . S
H4613 C4628 0.960 . S
H4614 C4628 0.960 . S
H4615 C4628 0.960 . S
C4616 H4608 0.929 . S
C4616 C4617 1.377 . S
C4616 C4618 1.384 . S
C4617 C4616 1.377 . S
C4617 C4623 1.390 . S
C4618 H4609 0.930 . S
C4618 C4616 1.384 . S
C4618 C4619 1.372 . S
C4619 C4618 1.372 . S
C4619 C4620 1.400 . S
C4619 C4624 1.490 . S
C4620 H4610 0.930 . S
C4620 C4619 1.400 . S
C4620 C4623 1.386 . S
H4621 C4637 0.930 . S
H4622 C4638 0.931 . S
C4623 H4611 0.929 . S
C4623 C4617 1.390 . S
C4623 C4620 1.386 . S
C4624 C4619 1.490 . S
C4624 C4626 1.395 . S
C4624 C4627 1.403 . S
H4625 C4631 0.930 . S
C4626 H4612 0.930 . S
C4626 C4624 1.395 . S
C4626 C4629 1.403 . S
C4627 C4624 1.403 . S
C4627 C4628 1.524 . S
C4627 C4631 1.400 . S
C4628 H4613 0.960 . S
C4628 H4614 0.960 . S
C4628 H4615 0.960 . S
C4628 C4627 1.524 . S
C4629 C4626 1.403 . S
C4629 C4630 1.392 . S
C4629 C4633 1.495 . S
C4630 C4629 1.392 . S
C4630 C4631 1.385 . S
C4630 C4632 1.478 . S
C4631 H4625 0.930 . S
C4631 C4627 1.400 . S
C4631 C4630 1.385 . S
C4632 C4630 1.478 . S
C4632 C4634 1.381 . S
C4632 C4638 1.383 1_655 S
C4633 C4629 1.495 . S
C4633 H4639 0.959 . S
C4633 H4640 0.961 1_655 S
C4633 H4641 0.960 . S
C4634 C4632 1.381 . S
C4634 C4635 1.394 . S
C4634 H4642 0.930 . S
C4635 C4634 1.394 . S
C4635 C4636 1.383 1_655 S
C4635 H4643 0.929 . S
C4636 C4635 1.383 1_455 S
C4636 C4637 1.377 . S
C4637 H4621 0.930 . S
C4637 C4636 1.377 . S
C4637 C4638 1.379 . S
C4638 H4622 0.931 . S
C4638 C4632 1.383 1_455 S
C4638 C4637 1.379 . S
H4639 C4633 0.959 . S
H4640 C4633 0.961 1_455 S
H4641 C4633 0.960 . S
H4642 C4634 0.930 . S
H4643 C4635 0.929 . S
H4644 C4652 0.929 . S
H4645 C4654 0.930 . S
H4646 C4656 0.930 . S
H4647 C4659 0.929 . S
H4648 C4662 0.930 . S
H4649 C4664 0.960 . S
H4650 C4664 0.960 . S
H4651 C4664 0.960 . S
C4652 H4644 0.929 . S
C4652 C4653 1.377 . S
C4652 C4654 1.384 . S
C4653 C4652 1.377 . S
C4653 C4659 1.390 . S
C4654 H4645 0.930 . S
C4654 C4652 1.384 . S
C4654 C4655 1.372 . S
C4655 C4654 1.372 . S
C4655 C4656 1.400 . S
C4655 C4660 1.490 . S
C4656 H4646 0.930 . S
C4656 C4655 1.400 . S
C4656 C4659 1.386 . S
H4657 C4673 0.930 . S
H4658 C4674 0.931 . S
C4659 H4647 0.929 . S
C4659 C4653 1.390 . S
C4659 C4656 1.386 . S
C4660 C4655 1.490 . S
C4660 C4662 1.395 . S
C4660 C4663 1.403 . S
H4661 C4667 0.930 . S
C4662 H4648 0.930 . S
C4662 C4660 1.395 . S
C4662 C4665 1.403 . S
C4663 C4660 1.403 . S
C4663 C4664 1.524 . S
C4663 C4667 1.400 . S
C4664 H4649 0.960 . S
C4664 H4650 0.960 . S
C4664 H4651 0.960 . S
C4664 C4663 1.524 . S
C4665 C4662 1.403 . S
C4665 C4666 1.392 . S
C4665 C4669 1.495 . S
C4666 C4665 1.392 . S
C4666 C4667 1.385 . S
C4666 C4668 1.478 . S
C4667 H4661 0.930 . S
C4667 C4663 1.400 . S
C4667 C4666 1.385 . S
C4668 C4666 1.478 . S
C4668 C4670 1.381 . S
C4668 C4674 1.383 . S
C4669 C4665 1.495 . S
C4669 H4675 0.959 . S
C4669 H4676 0.961 . S
C4669 H4677 0.960 . S
C4670 C4668 1.381 . S
C4670 C4671 1.394 . S
C4670 H4678 0.930 . S
C4671 C4670 1.394 . S
C4671 C4672 1.383 . S
C4671 H4679 0.929 . S
C4672 C4671 1.383 . S
C4672 C4673 1.377 . S
C4673 H4657 0.930 . S
C4673 C4672 1.377 . S
C4673 C4674 1.379 . S
C4674 H4658 0.931 . S
C4674 C4668 1.383 . S
C4674 C4673 1.379 . S
H4675 C4669 0.959 . S
H4676 C4669 0.961 . S
H4677 C4669 0.960 . S
H4678 C4670 0.930 . S
H4679 C4671 0.929 . S
H4680 C4688 0.929 . S
H4681 C4690 0.930 . S
H4682 C4692 0.930 . S
H4683 C4695 0.929 . S
H4684 C4698 0.930 . S
H4685 C4700 0.960 . S
H4686 C4700 0.960 . S
H4687 C4700 0.960 . S
C4688 H4680 0.929 . S
C4688 C4689 1.377 . S
C4688 C4690 1.384 . S
C4689 C4688 1.377 . S
C4689 C4695 1.390 . S
C4690 H4681 0.930 . S
C4690 C4688 1.384 . S
C4690 C4691 1.372 . S
C4691 C4690 1.372 . S
C4691 C4692 1.400 . S
C4691 C4696 1.490 . S
C4692 H4682 0.930 . S
C4692 C4691 1.400 . S
C4692 C4695 1.386 . S
H4693 C4709 0.930 . S
H4694 C4710 0.931 . S
C4695 H4683 0.929 . S
C4695 C4689 1.390 . S
C4695 C4692 1.386 . S
C4696 C4691 1.490 . S
C4696 C4698 1.395 . S
C4696 C4699 1.403 . S
H4697 C4703 0.930 . S
C4698 H4684 0.930 . S
C4698 C4696 1.395 . S
C4698 C4701 1.403 . S
C4699 C4696 1.403 . S
C4699 C4700 1.524 . S
C4699 C4703 1.400 . S
C4700 H4685 0.960 . S
C4700 H4686 0.960 . S
C4700 H4687 0.960 . S
C4700 C4699 1.524 . S
C4701 C4698 1.403 . S
C4701 C4702 1.392 . S
C4701 C4705 1.495 . S
C4702 C4701 1.392 . S
C4702 C4703 1.385 . S
C4702 C4704 1.478 . S
C4703 H4697 0.930 . S
C4703 C4699 1.400 . S
C4703 C4702 1.385 . S
C4704 C4702 1.478 . S
C4704 C4706 1.381 . S
C4704 C4710 1.383 . S
C4705 C4701 1.495 . S
C4705 H4711 0.959 . S
C4705 H4712 0.961 . S
C4705 H4713 0.960 . S
C4706 C4704 1.381 . S
C4706 C4707 1.394 . S
C4706 H4714 0.930 . S
C4707 C4706 1.394 . S
C4707 C4708 1.383 . S
C4707 H4715 0.929 . S
C4708 C4707 1.383 . S
C4708 C4709 1.377 . S
C4709 H4693 0.930 . S
C4709 C4708 1.377 . S
C4709 C4710 1.379 . S
C4710 H4694 0.931 . S
C4710 C4704 1.383 . S
C4710 C4709 1.379 . S
H4711 C4705 0.959 . S
H4712 C4705 0.961 . S
H4713 C4705 0.960 . S
H4714 C4706 0.930 . S
H4715 C4707 0.929 . S
H4716 C4724 0.929 . S
H4717 C4726 0.930 . S
H4718 C4728 0.930 . S
H4719 C4731 0.929 . S
H4720 C4734 0.930 . S
H4721 C4736 0.960 . S
H4722 C4736 0.960 . S
H4723 C4736 0.960 . S
C4724 H4716 0.929 . S
C4724 C4725 1.377 . S
C4724 C4726 1.384 . S
C4725 C4724 1.377 . S
C4725 C4731 1.390 . S
C4726 H4717 0.930 . S
C4726 C4724 1.384 . S
C4726 C4727 1.372 . S
C4727 C4726 1.372 . S
C4727 C4728 1.400 . S
C4727 C4732 1.490 . S
C4728 H4718 0.930 . S
C4728 C4727 1.400 . S
C4728 C4731 1.386 . S
H4729 C4745 0.930 . S
H4730 C4746 0.931 . S
C4731 H4719 0.929 . S
C4731 C4725 1.390 . S
C4731 C4728 1.386 . S
C4732 C4727 1.490 . S
C4732 C4734 1.395 . S
C4732 C4735 1.403 . S
H4733 C4739 0.930 . S
C4734 H4720 0.930 . S
C4734 C4732 1.395 . S
C4734 C4737 1.403 . S
C4735 C4732 1.403 . S
C4735 C4736 1.524 . S
C4735 C4739 1.400 . S
C4736 H4721 0.960 . S
C4736 H4722 0.960 . S
C4736 H4723 0.960 . S
C4736 C4735 1.524 . S
C4737 C4734 1.403 . S
C4737 C4738 1.392 . S
C4737 C4741 1.495 . S
C4738 C4737 1.392 . S
C4738 C4739 1.385 . S
C4738 C4740 1.478 . S
C4739 H4733 0.930 . S
C4739 C4735 1.400 . S
C4739 C4738 1.385 . S
C4740 C4738 1.478 . S
C4740 C4742 1.381 . S
C4740 C4746 1.383 . S
C4741 C4737 1.495 . S
C4741 H4747 0.959 . S
C4741 H4748 0.961 . S
C4741 H4749 0.960 . S
C4742 C4740 1.381 . S
C4742 C4743 1.394 . S
C4742 H4750 0.930 . S
C4743 C4742 1.394 . S
C4743 C4744 1.383 . S
C4743 H4751 0.929 . S
C4744 C4743 1.383 . S
C4744 C4745 1.377 . S
C4745 H4729 0.930 . S
C4745 C4744 1.377 . S
C4745 C4746 1.379 . S
C4746 H4730 0.931 . S
C4746 C4740 1.383 . S
C4746 C4745 1.379 . S
H4747 C4741 0.959 . S
H4748 C4741 0.961 . S
H4749 C4741 0.960 . S
H4750 C4742 0.930 . S
H4751 C4743 0.929 . S
H4752 C4760 0.929 . S
H4753 C4762 0.930 . S
H4754 C4764 0.930 . S
H4755 C4767 0.929 . S
H4756 C4770 0.930 . S
H4757 C4772 0.960 . S
H4758 C4772 0.960 . S
H4759 C4772 0.960 . S
C4760 H4752 0.929 . S
C4760 C4761 1.377 . S
C4760 C4762 1.384 . S
C4761 C4760 1.377 . S
C4761 C4767 1.390 . S
C4762 H4753 0.930 . S
C4762 C4760 1.384 . S
C4762 C4763 1.372 . S
C4763 C4762 1.372 . S
C4763 C4764 1.400 . S
C4763 C4768 1.490 . S
C4764 H4754 0.930 . S
C4764 C4763 1.400 . S
C4764 C4767 1.386 . S
H4765 C4781 0.930 . S
H4766 C4782 0.931 . S
C4767 H4755 0.929 . S
C4767 C4761 1.390 . S
C4767 C4764 1.386 . S
C4768 C4763 1.490 . S
C4768 C4770 1.395 . S
C4768 C4771 1.403 . S
H4769 C4775 0.930 . S
C4770 H4756 0.930 . S
C4770 C4768 1.395 . S
C4770 C4773 1.403 . S
C4771 C4768 1.403 . S
C4771 C4772 1.524 . S
C4771 C4775 1.400 . S
C4772 H4757 0.960 . S
C4772 H4758 0.960 . S
C4772 H4759 0.960 . S
C4772 C4771 1.524 . S
C4773 C4770 1.403 . S
C4773 C4774 1.392 . S
C4773 C4777 1.495 . S
C4774 C4773 1.392 . S
C4774 C4775 1.385 . S
C4774 C4776 1.478 . S
C4775 H4769 0.930 . S
C4775 C4771 1.400 . S
C4775 C4774 1.385 . S
C4776 C4774 1.478 . S
C4776 C4778 1.381 . S
C4776 C4782 1.383 . S
C4777 C4773 1.495 . S
C4777 H4783 0.959 . S
C4777 H4784 0.961 1_655 S
C4777 H4785 0.960 . S
C4778 C4776 1.381 . S
C4778 C4779 1.394 . S
C4778 H4786 0.930 . S
C4779 C4778 1.394 . S
C4779 C4780 1.383 . S
C4779 H4787 0.929 . S
C4780 C4779 1.383 . S
C4780 C4781 1.377 . S
C4781 H4765 0.930 . S
C4781 C4780 1.377 . S
C4781 C4782 1.379 . S
C4782 H4766 0.931 . S
C4782 C4776 1.383 . S
C4782 C4781 1.379 . S
H4783 C4777 0.959 . S
H4784 C4777 0.961 1_455 S
H4785 C4777 0.960 . S
H4786 C4778 0.930 . S
H4787 C4779 0.929 . S
H4788 C4796 0.929 . S
H4789 C4798 0.930 . S
H4790 C4800 0.930 . S
H4791 C4803 0.929 . S
H4792 C4806 0.930 . S
H4793 C4808 0.960 . S
H4794 C4808 0.960 . S
H4795 C4808 0.960 . S
C4796 H4788 0.929 . S
C4796 C4797 1.377 . S
C4796 C4798 1.384 . S
C4797 C4796 1.377 . S
C4797 C4803 1.390 . S
C4798 H4789 0.930 . S
C4798 C4796 1.384 . S
C4798 C4799 1.372 . S
C4799 C4798 1.372 . S
C4799 C4800 1.400 . S
C4799 C4804 1.490 . S
C4800 H4790 0.930 . S
C4800 C4799 1.400 . S
C4800 C4803 1.386 . S
H4801 C4817 0.930 . S
H4802 C4818 0.931 . S
C4803 H4791 0.929 . S
C4803 C4797 1.390 . S
C4803 C4800 1.386 . S
C4804 C4799 1.490 . S
C4804 C4806 1.395 . S
C4804 C4807 1.403 . S
H4805 C4811 0.930 . S
C4806 H4792 0.930 . S
C4806 C4804 1.395 . S
C4806 C4809 1.403 . S
C4807 C4804 1.403 . S
C4807 C4808 1.524 . S
C4807 C4811 1.400 . S
C4808 H4793 0.960 . S
C4808 H4794 0.960 . S
C4808 H4795 0.960 . S
C4808 C4807 1.524 . S
C4809 C4806 1.403 . S
C4809 C4810 1.392 . S
C4809 C4813 1.495 . S
C4810 C4809 1.392 . S
C4810 C4811 1.385 . S
C4810 C4812 1.478 . S
C4811 H4805 0.930 . S
C4811 C4807 1.400 . S
C4811 C4810 1.385 . S
C4812 C4810 1.478 . S
C4812 C4814 1.381 . S
C4812 C4818 1.383 . S
C4813 C4809 1.495 . S
C4813 H4819 0.959 . S
C4813 H4820 0.961 . S
C4813 H4821 0.960 . S
C4814 C4812 1.381 . S
C4814 C4815 1.394 . S
C4814 H4822 0.930 . S
C4815 C4814 1.394 . S
C4815 C4816 1.383 . S
C4815 H4823 0.929 . S
C4816 C4815 1.383 . S
C4816 C4817 1.377 . S
C4817 H4801 0.930 . S
C4817 C4816 1.377 . S
C4817 C4818 1.379 . S
C4818 H4802 0.931 . S
C4818 C4812 1.383 . S
C4818 C4817 1.379 . S
H4819 C4813 0.959 . S
H4820 C4813 0.961 . S
H4821 C4813 0.960 . S
H4822 C4814 0.930 . S
H4823 C4815 0.929 . S
H4824 C4832 0.929 . S
H4825 C4834 0.930 . S
H4826 C4836 0.930 . S
H4827 C4839 0.929 . S
H4828 C4842 0.930 . S
H4829 C4844 0.960 . S
H4830 C4844 0.960 . S
H4831 C4844 0.960 . S
C4832 H4824 0.929 . S
C4832 C4833 1.377 . S
C4832 C4834 1.384 . S
C4833 C4832 1.377 . S
C4833 C4839 1.390 . S
C4834 H4825 0.930 . S
C4834 C4832 1.384 . S
C4834 C4835 1.372 . S
C4835 C4834 1.372 . S
C4835 C4836 1.400 . S
C4835 C4840 1.490 . S
C4836 H4826 0.930 . S
C4836 C4835 1.400 . S
C4836 C4839 1.386 . S
H4837 C4853 0.930 . S
H4838 C4854 0.931 . S
C4839 H4827 0.929 . S
C4839 C4833 1.390 . S
C4839 C4836 1.386 . S
C4840 C4835 1.490 . S
C4840 C4842 1.395 . S
C4840 C4843 1.403 . S
H4841 C4847 0.930 . S
C4842 H4828 0.930 . S
C4842 C4840 1.395 . S
C4842 C4845 1.403 . S
C4843 C4840 1.403 . S
C4843 C4844 1.524 . S
C4843 C4847 1.400 . S
C4844 H4829 0.960 . S
C4844 H4830 0.960 . S
C4844 H4831 0.960 . S
C4844 C4843 1.524 . S
C4845 C4842 1.403 . S
C4845 C4846 1.392 . S
C4845 C4849 1.495 . S
C4846 C4845 1.392 . S
C4846 C4847 1.385 . S
C4846 C4848 1.478 . S
C4847 H4841 0.930 . S
C4847 C4843 1.400 . S
C4847 C4846 1.385 . S
C4848 C4846 1.478 . S
C4848 C4850 1.381 . S
C4848 C4854 1.383 . S
C4849 C4845 1.495 . S
C4849 H4855 0.959 . S
C4849 H4856 0.961 . S
C4849 H4857 0.960 . S
C4850 C4848 1.381 . S
C4850 C4851 1.394 . S
C4850 H4858 0.930 . S
C4851 C4850 1.394 . S
C4851 C4852 1.383 . S
C4851 H4859 0.929 . S
C4852 C4851 1.383 . S
C4852 C4853 1.377 . S
C4853 H4837 0.930 . S
C4853 C4852 1.377 . S
C4853 C4854 1.379 . S
C4854 H4838 0.931 . S
C4854 C4848 1.383 . S
C4854 C4853 1.379 . S
H4855 C4849 0.959 . S
H4856 C4849 0.961 . S
H4857 C4849 0.960 . S
H4858 C4850 0.930 . S
H4859 C4851 0.929 . S
H4860 C4868 0.929 . S
H4861 C4870 0.930 . S
H4862 C4872 0.930 . S
H4863 C4875 0.929 . S
H4864 C4878 0.930 . S
H4865 C4880 0.960 . S
H4866 C4880 0.960 . S
H4867 C4880 0.960 . S
C4868 H4860 0.929 . S
C4868 C4869 1.377 . S
C4868 C4870 1.384 . S
C4869 C4868 1.377 . S
C4869 C4875 1.390 . S
C4870 H4861 0.930 . S
C4870 C4868 1.384 . S
C4870 C4871 1.372 . S
C4871 C4870 1.372 . S
C4871 C4872 1.400 . S
C4871 C4876 1.490 . S
C4872 H4862 0.930 . S
C4872 C4871 1.400 . S
C4872 C4875 1.386 . S
H4873 C4889 0.930 1_455 S
H4874 C4890 0.931 . S
C4875 H4863 0.929 . S
C4875 C4869 1.390 . S
C4875 C4872 1.386 . S
C4876 C4871 1.490 . S
C4876 C4878 1.395 . S
C4876 C4879 1.403 . S
H4877 C4883 0.930 . S
C4878 H4864 0.930 . S
C4878 C4876 1.395 . S
C4878 C4881 1.403 . S
C4879 C4876 1.403 . S
C4879 C4880 1.524 . S
C4879 C4883 1.400 . S
C4880 H4865 0.960 . S
C4880 H4866 0.960 . S
C4880 H4867 0.960 . S
C4880 C4879 1.524 . S
C4881 C4878 1.403 . S
C4881 C4882 1.392 . S
C4881 C4885 1.495 . S
C4882 C4881 1.392 . S
C4882 C4883 1.385 . S
C4882 C4884 1.478 . S
C4883 H4877 0.930 . S
C4883 C4879 1.400 . S
C4883 C4882 1.385 . S
C4884 C4882 1.478 . S
C4884 C4886 1.381 . S
C4884 C4890 1.383 . S
C4885 C4881 1.495 . S
C4885 H4891 0.959 . S
C4885 H4892 0.961 . S
C4885 H4893 0.936 1_565 S
C4886 C4884 1.381 . S
C4886 C4887 1.394 1_565 S
C4886 H4894 0.930 . S
C4887 C4886 1.394 1_545 S
C4887 C4888 1.383 1_545 S
C4887 H4895 0.929 . S
C4888 C4887 1.383 1_565 S
C4888 C4889 1.377 . S
C4889 H4873 0.930 1_655 S
C4889 C4888 1.377 . S
C4889 C4890 1.379 . S
C4890 H4874 0.931 . S
C4890 C4884 1.383 . S
C4890 C4889 1.379 . S
H4891 C4885 0.959 . S
H4892 C4885 0.961 . S
H4893 C4885 0.936 1_545 S
H4894 C4886 0.930 . S
H4895 C4887 0.929 . S
H4896 C4904 0.929 . S
H4897 C4906 0.930 . S
H4898 C4908 0.930 . S
H4899 C4911 0.929 . S
H4900 C4914 0.930 . S
H4901 C4916 0.960 . S
H4902 C4916 0.960 . S
H4903 C4916 0.960 . S
C4904 H4896 0.929 . S
C4904 C4905 1.377 . S
C4904 C4906 1.384 . S
C4905 C4904 1.377 . S
C4905 C4911 1.390 . S
C4906 H4897 0.930 . S
C4906 C4904 1.384 . S
C4906 C4907 1.372 . S
C4907 C4906 1.372 . S
C4907 C4908 1.400 . S
C4907 C4912 1.490 . S
C4908 H4898 0.930 . S
C4908 C4907 1.400 . S
C4908 C4911 1.386 . S
H4909 C4925 0.930 . S
H4910 C4926 0.931 . S
C4911 H4899 0.929 . S
C4911 C4905 1.390 . S
C4911 C4908 1.386 . S
C4912 C4907 1.490 . S
C4912 C4914 1.395 . S
C4912 C4915 1.403 . S
H4913 C4919 0.930 . S
C4914 H4900 0.930 . S
C4914 C4912 1.395 . S
C4914 C4917 1.403 . S
C4915 C4912 1.403 . S
C4915 C4916 1.524 . S
C4915 C4919 1.400 . S
C4916 H4901 0.960 . S
C4916 H4902 0.960 . S
C4916 H4903 0.960 . S
C4916 C4915 1.524 . S
C4917 C4914 1.403 . S
C4917 C4918 1.392 . S
C4917 C4921 1.495 . S
C4918 C4917 1.392 . S
C4918 C4919 1.385 . S
C4918 C4920 1.478 . S
C4919 H4913 0.930 . S
C4919 C4915 1.400 . S
C4919 C4918 1.385 . S
C4920 C4918 1.478 . S
C4920 C4922 1.381 . S
C4920 C4926 1.383 . S
C4921 C4917 1.495 . S
C4921 H4927 0.959 . S
C4921 H4928 0.961 . S
C4921 H4929 0.960 . S
C4922 C4920 1.381 . S
C4922 C4923 1.394 . S
C4922 H4930 0.930 . S
C4923 C4922 1.394 . S
C4923 C4924 1.383 . S
C4923 H4931 0.929 . S
C4924 C4923 1.383 . S
C4924 C4925 1.377 . S
C4925 H4909 0.930 . S
C4925 C4924 1.377 . S
C4925 C4926 1.379 . S
C4926 H4910 0.931 . S
C4926 C4920 1.383 . S
C4926 C4925 1.379 . S
H4927 C4921 0.959 . S
H4928 C4921 0.961 . S
H4929 C4921 0.960 . S
H4930 C4922 0.930 . S
H4931 C4923 0.929 . S
H4932 C4940 0.929 1_556 S
H4933 C4942 0.930 . S
H4934 C4944 0.930 . S
H4935 C4947 0.929 . S
H4936 C4950 0.930 . S
H4937 C4952 0.960 . S
H4938 C4952 0.960 . S
H4939 C4952 0.960 . S
C4940 H4932 0.929 1_554 S
C4940 C4941 1.377 . S
C4940 C4942 1.384 1_554 S
C4941 C4940 1.377 . S
C4941 C4947 1.390 . S
C4942 H4933 0.930 . S
C4942 C4940 1.384 1_556 S
C4942 C4943 1.372 1_556 S
C4943 C4942 1.372 1_554 S
C4943 C4944 1.400 . S
C4943 C4948 1.490 . S
C4944 H4934 0.930 . S
C4944 C4943 1.400 . S
C4944 C4947 1.386 . S
H4945 C4961 0.930 . S
H4946 C4962 0.931 . S
C4947 H4935 0.929 . S
C4947 C4941 1.390 . S
C4947 C4944 1.386 . S
C4948 C4943 1.490 . S
C4948 C4950 1.395 1_554 S
C4948 C4951 1.403 . S
H4949 C4955 0.930 . S
C4950 H4936 0.930 . S
C4950 C4948 1.395 1_556 S
C4950 C4953 1.403 . S
C4951 C4948 1.403 . S
C4951 C4952 1.524 . S
C4951 C4955 1.400 . S
C4952 H4937 0.960 . S
C4952 H4938 0.960 . S
C4952 H4939 0.960 . S
C4952 C4951 1.524 . S
C4953 C4950 1.403 . S
C4953 C4954 1.392 1_556 S
C4953 C4957 1.495 . S
C4954 C4953 1.392 1_554 S
C4954 C4955 1.385 . S
C4954 C4956 1.478 . S
C4955 H4949 0.930 . S
C4955 C4951 1.400 . S
C4955 C4954 1.385 . S
C4956 C4954 1.478 . S
C4956 C4958 1.381 1_554 S
C4956 C4962 1.383 . S
C4957 C4953 1.495 . S
C4957 H4963 0.959 . S
C4957 H4964 0.961 . S
C4957 H4965 0.960 . S
C4958 C4956 1.381 1_556 S
C4958 C4959 1.394 . S
C4958 H4966 0.930 . S
C4959 C4958 1.394 . S
C4959 C4960 1.383 1_556 S
C4959 H4967 0.929 . S
C4960 C4959 1.383 1_554 S
C4960 C4961 1.377 . S
C4961 H4945 0.930 . S
C4961 C4960 1.377 . S
C4961 C4962 1.379 . S
C4962 H4946 0.931 . S
C4962 C4956 1.383 . S
C4962 C4961 1.379 . S
H4963 C4957 0.959 . S
H4964 C4957 0.961 . S
H4965 C4957 0.960 . S
H4966 C4958 0.930 . S
H4967 C4959 0.929 . S
H4968 C4976 0.929 . S
H4969 C4978 0.930 . S
H4970 C4980 0.930 . S
H4971 C4983 0.929 . S
H4972 C4986 0.930 . S
H4973 C4988 0.960 . S
H4974 C4988 0.960 . S
H4975 C4988 0.960 . S
C4976 H4968 0.929 . S
C4976 C4977 1.377 . S
C4976 C4978 1.384 . S
C4977 C4976 1.377 . S
C4977 C4983 1.390 . S
C4978 H4969 0.930 . S
C4978 C4976 1.384 . S
C4978 C4979 1.372 . S
C4979 C4978 1.372 . S
C4979 C4980 1.400 . S
C4979 C4984 1.490 . S
C4980 H4970 0.930 . S
C4980 C4979 1.400 . S
C4980 C4983 1.386 . S
H4981 C4997 0.930 . S
H4982 C4998 0.931 . S
C4983 H4971 0.929 . S
C4983 C4977 1.390 . S
C4983 C4980 1.386 . S
C4984 C4979 1.490 . S
C4984 C4986 1.395 . S
C4984 C4987 1.403 . S
H4985 C4991 0.930 . S
C4986 H4972 0.930 . S
C4986 C4984 1.395 . S
C4986 C4989 1.403 . S
C4987 C4984 1.403 . S
C4987 C4988 1.524 . S
C4987 C4991 1.400 . S
C4988 H4973 0.960 . S
C4988 H4974 0.960 . S
C4988 H4975 0.960 . S
C4988 C4987 1.524 . S
C4989 C4986 1.403 . S
C4989 C4990 1.392 . S
C4989 C4993 1.495 . S
C4990 C4989 1.392 . S
C4990 C4991 1.385 . S
C4990 C4992 1.478 . S
C4991 H4985 0.930 . S
C4991 C4987 1.400 . S
C4991 C4990 1.385 . S
C4992 C4990 1.478 . S
C4992 C4994 1.381 . S
C4992 C4998 1.383 . S
C4993 C4989 1.495 . S
C4993 H4999 0.959 . S
C4993 H5000 0.961 . S
C4993 H5001 0.960 . S
C4994 C4992 1.381 . S
C4994 C4995 1.394 . S
C4994 H5002 0.930 . S
C4995 C4994 1.394 . S
C4995 C4996 1.383 . S
C4995 H5003 0.929 . S
C4996 C4995 1.383 . S
C4996 C4997 1.377 . S
C4997 H4981 0.930 . S
C4997 C4996 1.377 . S
C4997 C4998 1.379 . S
C4998 H4982 0.931 . S
C4998 C4992 1.383 . S
C4998 C4997 1.379 . S
H4999 C4993 0.959 . S
H5000 C4993 0.961 . S
H5001 C4993 0.960 . S
H5002 C4994 0.930 . S
H5003 C4995 0.929 . S
H5004 C5012 0.929 . S
H5005 C5014 0.930 . S
H5006 C5016 0.930 . S
H5007 C5019 0.929 . S
H5008 C5022 0.930 . S
H5009 C5024 0.960 . S
H5010 C5024 0.960 . S
H5011 C5024 0.960 . S
C5012 H5004 0.929 . S
C5012 C5013 1.377 . S
C5012 C5014 1.384 . S
C5013 C5012 1.377 . S
C5013 C5019 1.390 . S
C5014 H5005 0.930 . S
C5014 C5012 1.384 . S
C5014 C5015 1.372 . S
C5015 C5014 1.372 . S
C5015 C5016 1.400 . S
C5015 C5020 1.490 . S
C5016 H5006 0.930 . S
C5016 C5015 1.400 . S
C5016 C5019 1.386 . S
H5017 C5033 0.930 . S
H5018 C5034 0.931 . S
C5019 H5007 0.929 . S
C5019 C5013 1.390 . S
C5019 C5016 1.386 . S
C5020 C5015 1.490 . S
C5020 C5022 1.395 . S
C5020 C5023 1.403 . S
H5021 C5027 0.930 . S
C5022 H5008 0.930 . S
C5022 C5020 1.395 . S
C5022 C5025 1.403 . S
C5023 C5020 1.403 . S
C5023 C5024 1.524 . S
C5023 C5027 1.400 . S
C5024 H5009 0.960 . S
C5024 H5010 0.960 . S
C5024 H5011 0.960 . S
C5024 C5023 1.524 . S
C5025 C5022 1.403 . S
C5025 C5026 1.392 . S
C5025 C5029 1.495 . S
C5026 C5025 1.392 . S
C5026 C5027 1.385 . S
C5026 C5028 1.478 . S
C5027 H5021 0.930 . S
C5027 C5023 1.400 . S
C5027 C5026 1.385 . S
C5028 C5026 1.478 . S
C5028 C5030 1.381 . S
C5028 C5034 1.383 . S
C5029 C5025 1.495 . S
C5029 H5035 0.959 . S
C5029 H5036 0.961 . S
C5029 H5037 0.960 . S
C5030 C5028 1.381 . S
C5030 C5031 1.394 . S
C5030 H5038 0.930 . S
C5031 C5030 1.394 . S
C5031 C5032 1.383 . S
C5031 H5039 0.929 1_554 S
C5032 C5031 1.383 . S
C5032 C5033 1.377 . S
C5033 H5017 0.930 . S
C5033 C5032 1.377 . S
C5033 C5034 1.379 . S
C5034 H5018 0.931 . S
C5034 C5028 1.383 . S
C5034 C5033 1.379 . S
H5035 C5029 0.959 . S
H5036 C5029 0.961 . S
H5037 C5029 0.960 . S
H5038 C5030 0.930 . S
H5039 C5031 0.929 1_556 S
H5040 C5048 0.929 . S
H5041 C5050 0.930 . S
H5042 C5052 0.930 . S
H5043 C5055 0.929 . S
H5044 C5058 0.930 . S
H5045 C5060 0.960 . S
H5046 C5060 0.960 . S
H5047 C5060 0.960 . S
C5048 H5040 0.929 . S
C5048 C5049 1.377 . S
C5048 C5050 1.384 . S
C5049 C5048 1.377 . S
C5049 C5055 1.390 . S
C5050 H5041 0.930 . S
C5050 C5048 1.384 . S
C5050 C5051 1.372 . S
C5051 C5050 1.372 . S
C5051 C5052 1.400 . S
C5051 C5056 1.490 . S
C5052 H5042 0.930 . S
C5052 C5051 1.400 . S
C5052 C5055 1.386 . S
H5053 C5069 0.930 . S
H5054 C5070 0.931 . S
C5055 H5043 0.929 . S
C5055 C5049 1.390 . S
C5055 C5052 1.386 . S
C5056 C5051 1.490 . S
C5056 C5058 1.395 . S
C5056 C5059 1.403 . S
H5057 C5063 0.930 . S
C5058 H5044 0.930 . S
C5058 C5056 1.395 . S
C5058 C5061 1.403 . S
C5059 C5056 1.403 . S
C5059 C5060 1.524 . S
C5059 C5063 1.400 . S
C5060 H5045 0.960 . S
C5060 H5046 0.960 . S
C5060 H5047 0.960 . S
C5060 C5059 1.524 . S
C5061 C5058 1.403 . S
C5061 C5062 1.392 . S
C5061 C5065 1.495 . S
C5062 C5061 1.392 . S
C5062 C5063 1.385 . S
C5062 C5064 1.478 . S
C5063 H5057 0.930 . S
C5063 C5059 1.400 . S
C5063 C5062 1.385 . S
C5064 C5062 1.478 . S
C5064 C5066 1.381 . S
C5064 C5070 1.383 . S
C5065 C5061 1.495 . S
C5065 H5071 0.959 . S
C5065 H5072 0.961 . S
C5065 H5073 0.960 . S
C5066 C5064 1.381 . S
C5066 C5067 1.394 . S
C5066 H5074 0.930 . S
C5067 C5066 1.394 . S
C5067 C5068 1.383 . S
C5067 H5075 0.929 . S
C5068 C5067 1.383 . S
C5068 C5069 1.377 . S
C5069 H5053 0.930 . S
C5069 C5068 1.377 . S
C5069 C5070 1.379 . S
C5070 H5054 0.931 . S
C5070 C5064 1.383 . S
C5070 C5069 1.379 . S
H5071 C5065 0.959 . S
H5072 C5065 0.961 . S
H5073 C5065 0.960 . S
H5074 C5066 0.930 . S
H5075 C5067 0.929 . S
H5076 C5084 0.929 . S
H5077 C5086 0.930 . S
H5078 C5088 0.930 . S
H5079 C5091 0.929 . S
H5080 C5094 0.930 . S
H5081 C5096 0.960 . S
H5082 C5096 0.960 . S
H5083 C5096 0.960 . S
C5084 H5076 0.929 . S
C5084 C5085 1.377 . S
C5084 C5086 1.384 . S
C5085 C5084 1.377 . S
C5085 C5091 1.390 . S
C5086 H5077 0.930 . S
C5086 C5084 1.384 . S
C5086 C5087 1.372 . S
C5087 C5086 1.372 . S
C5087 C5088 1.400 . S
C5087 C5092 1.490 . S
C5088 H5078 0.930 . S
C5088 C5087 1.400 . S
C5088 C5091 1.386 . S
H5089 C5105 0.930 . S
H5090 C5106 0.931 . S
C5091 H5079 0.929 . S
C5091 C5085 1.390 . S
C5091 C5088 1.386 . S
C5092 C5087 1.490 . S
C5092 C5094 1.395 . S
C5092 C5095 1.403 . S
H5093 C5099 0.930 . S
C5094 H5080 0.930 . S
C5094 C5092 1.395 . S
C5094 C5097 1.403 . S
C5095 C5092 1.403 . S
C5095 C5096 1.524 . S
C5095 C5099 1.400 . S
C5096 H5081 0.960 . S
C5096 H5082 0.960 . S
C5096 H5083 0.960 . S
C5096 C5095 1.524 . S
C5097 C5094 1.403 . S
C5097 C5098 1.392 . S
C5097 C5101 1.495 . S
C5098 C5097 1.392 . S
C5098 C5099 1.385 . S
C5098 C5100 1.478 . S
C5099 H5093 0.930 . S
C5099 C5095 1.400 . S
C5099 C5098 1.385 . S
C5100 C5098 1.478 . S
C5100 C5102 1.381 . S
C5100 C5106 1.383 . S
C5101 C5097 1.495 . S
C5101 H5107 0.959 . S
C5101 H5108 0.961 . S
C5101 H5109 0.960 . S
C5102 C5100 1.381 . S
C5102 C5103 1.394 . S
C5102 H5110 0.930 . S
C5103 C5102 1.394 . S
C5103 C5104 1.383 . S
C5103 H5111 0.929 . S
C5104 C5103 1.383 . S
C5104 C5105 1.377 . S
C5105 H5089 0.930 . S
C5105 C5104 1.377 . S
C5105 C5106 1.379 . S
C5106 H5090 0.931 . S
C5106 C5100 1.383 . S
C5106 C5105 1.379 . S
H5107 C5101 0.959 . S
H5108 C5101 0.961 . S
H5109 C5101 0.960 . S
H5110 C5102 0.930 . S
H5111 C5103 0.929 . S
C1665 C101 1.494 . S
C1684 C368 1.329 . S
C1701 C57 2.133 . S
C1720 C459 2.090 . S
C1737 C70 1.223 . S
C1756 C536 1.121 . S
C1792 C634 1.563 . S
C1773 C82 1.657 . S
C1809 C23 1.611 . S
C1828 C718 1.581 . S
C1864 C790 0.735 . S
C1845 C29 0.815 . S
C1900 C879 0.613 . S
C1881 C49 0.547 . S
C1917 C10 1.286 . S
C1936 C956 1.156 . S
C1972 C375 1.819 . S
C1953 C218 1.922 . S
C1989 C226 0.544 . S
C2008 C466 0.655 . S
C2044 C543 1.175 . S
C2025 C251 1.206 . S
C2080 C620 1.292 . S
C2061 C159 1.436 1_556 S
C2097 C211 1.963 . S
C2116 C704 1.797 . S
C2152 C806 1.074 . S
C2133 C225 1.097 . S
C2188 C886 0.759 . S
C2169 C252 0.679 . S
C2224 C963 1.222 . S
C2205 C166 1.370 . S
C2260 C382 1.443 . S
C2241 C147 1.524 . S
C2277 C263 1.917 . S
C2296 C1047 1.850 1_556 S
C2332 C1135 2.068 . S
C2313 C309 2.268 . S
C2368 C1208 0.526 . S
C2349 C291 0.142 . S
C2385 C108 0.802 . S
C2404 C970 0.765 . S
C2421 C121 1.452 . S
C2440 C550 1.383 . S
C2457 C302 2.245 . S
C2476 C1299 2.137 . S
C2512 C1376 0.556 . S
C2493 C276 0.545 . S
C2548 C379 1.711 1_565 S
C2529 C55 1.792 . S
C2584 C1394 2.357 . S
C2565 C96 2.431 . S
C2601 C88 1.680 . S
C2620 C547 1.619 . S
C2637 C75 1.947 . S
C2656 C1294 1.760 . S
C2692 C706 1.665 . S
C2673 C4 1.750 . S
C2709 C44 1.148 . S
C2728 C1138 1.099 . S
C2764 C890 1.009 . S
C2745 C31 1.021 . S
C2800 C1471 1.380 . S
C2781 C18 1.524 . S
C2836 C386 2.186 . S
C2817 C133 2.271 . S
C2872 C1378 0.725 . S
C2853 C296 0.801 . S
C2889 C107 1.446 . S
C2908 C554 1.379 . S
C2925 C264 1.854 . S
C2944 C1303 1.727 . S
C2961 C140 2.249 . S
C2980 C715 2.131 . S
C3016 C1131 1.206 . S
C2997 C289 1.327 . S
C3033 C114 0.986 . S
C3052 C874 0.945 . S
C3069 C265 1.734 . S
C3088 C1478 1.649 . S
C3105 C179 1.694 . S
C3124 C370 1.565 . S
C3141 C161 2.235 . S
C3160 C1058 2.152 . S
C3177 C244 2.576 . S
C3196 C788 2.392 . S
C3213 C224 0.707 . S
C3232 C1219 0.712 . S
C3268 C1462 0.855 . S
C3249 C257 0.753 1_565 S
C3285 C199 1.622 . S
C3304 C538 1.489 . S
C3340 C638 2.460 . S
C3321 C237 2.567 . S
C3376 C463 0.974 . S
C3357 C185 0.973 . S
C3393 C69 1.494 . S
C3412 C1544 1.309 . S
C3448 C1383 2.090 . S
C3429 C83 2.138 . S
C3465 C94 1.224 . S
C3484 C1628 1.133 . S
C3501 C56 1.660 . S
C3520 C1306 1.518 . S
C3537 C42 1.627 . S
C3556 C1054 1.572 . S
C3592 C1126 0.740 . S
C3573 C3 0.815 . S
C3628 C1215 0.619 . S
C3609 C16 0.556 . S
C3664 C1460 1.109 . S
C3645 C36 1.284 . S
C3700 C1551 1.819 . S
C3681 C238 1.920 . S
C3717 C174 0.552 . S
C3736 C1390 0.583 . S
C3772 C1635 1.201 . S
C3753 C186 1.213 . S
C3808 C1292 1.278 . S
C3789 C198 1.436 . S
C3844 C1040 1.784 . S
C3825 C239 1.966 . S
C3861 C173 1.101 . S
C3880 C1142 1.056 . S
C3916 C1222 0.703 . S
C3897 C187 0.686 . S
C3933 C205 1.371 . S
C3952 C1467 1.249 . S
C3988 C1558 1.412 . S
C3969 C290 1.523 . S
C4005 C122 1.917 . S
C4024 C711 1.868 . S
C4060 C799 2.070 . S
C4041 C134 2.281 . S
C4096 C872 0.530 . S
C4077 C148 0.128 . S
C4132 C1474 0.796 . S
C4113 C283 0.795 . S
C4149 C270 1.452 . S
C4168 C1642 1.389 . S
C4204 C627 2.168 . S
C4185 C135 2.236 . S
C4240 C452 0.712 . S
C4221 C109 0.551 . S
C4257 C81 1.790 . S
C4276 C1555 1.689 . S
C4312 C470 2.375 . S
C4293 C68 2.429 . S
C4329 C62 1.678 . S
C4348 C1639 1.582 . S
C4365 C95 1.945 . S
C4384 C622 1.804 . S
C4401 C30 1.749 . S
C4420 C1042 1.679 . S
C4456 C802 0.977 . S
C4437 C17 1.142 . S
C4473 C5 1.019 . S
C4492 C1226 0.983 . S
C4509 C43 1.518 . S
C4528 C967 1.382 . S
C4564 C1562 2.153 . S
C4545 C304 2.271 . S
C4581 C153 0.798 . S
C4600 C454 0.711 . S
C4636 C1646 1.372 . S
C4617 C278 1.447 . S
C4653 C127 1.853 . S
C4672 C631 1.722 . S
C4689 C303 2.239 . S
C4708 C1051 2.084 . S
C4744 C795 1.265 . S
C4725 C146 1.326 . S
C4761 C277 0.982 . S
C4780 C1210 0.903 . S
C4816 C974 1.647 . S
C4797 C120 1.730 . S
C4852 C1546 1.574 . S
C4833 C231 1.693 . S
C4888 C722 2.158 1_665 S
C4869 C200 2.233 . S
C4905 C212 2.581 . S
C4924 C1124 2.397 . S
C4960 C883 0.714 . S
C4941 C172 0.706 . S
C4977 C192 0.800 . S
C4996 C958 0.854 . S
C5013 C160 1.618 . S
C5032 C1630 1.541 . S
C5068 C1310 2.482 . S
C5049 C213 2.569 1_565 S
C5104 C1387 0.933 . S
C5085 C250 0.973 . S
