# Generated by pormake.
# Topology gar, (4,6)-cn, num edge types: 1
# Building blocks:
#     Node 0, Type 0, BuildingBlock: TATPOV_clean_sbu_0, # of connection points: 4
#     Node 1, Type 0, BuildingBlock: TATPOV_clean_sbu_0, # of connection points: 4
#     Node 2, Type 0, BuildingBlock: TATPOV_clean_sbu_0, # of connection points: 4
#     Node 3, Type 0, BuildingBlock: TATPOV_clean_sbu_0, # of connection points: 4
#     Node 4, Type 0, BuildingBlock: TATPOV_clean_sbu_0, # of connection points: 4
#     Node 5, Type 0, BuildingBlock: TATPOV_clean_sbu_0, # of connection points: 4
#     Node 6, Type 0, BuildingBlock: TATPOV_clean_sbu_0, # of connection points: 4
#     Node 7, Type 0, BuildingBlock: TATPOV_clean_sbu_0, # of connection points: 4
#     Node 8, Type 0, BuildingBlock: TATPOV_clean_sbu_0, # of connection points: 4
#     Node 9, Type 0, BuildingBlock: TATPOV_clean_sbu_0, # of connection points: 4
#     Node 10, Type 0, BuildingBlock: TATPOV_clean_sbu_0, # of connection points: 4
#     Node 11, Type 0, BuildingBlock: TATPOV_clean_sbu_0, # of connection points: 4
#     Node 12, Type 0, BuildingBlock: TATPOV_clean_sbu_0, # of connection points: 4
#     Node 13, Type 0, BuildingBlock: TATPOV_clean_sbu_0, # of connection points: 4
#     Node 14, Type 0, BuildingBlock: TATPOV_clean_sbu_0, # of connection points: 4
#     Node 15, Type 0, BuildingBlock: TATPOV_clean_sbu_0, # of connection points: 4
#     Node 16, Type 0, BuildingBlock: TATPOV_clean_sbu_0, # of connection points: 4
#     Node 17, Type 0, BuildingBlock: TATPOV_clean_sbu_0, # of connection points: 4
#     Node 18, Type 0, BuildingBlock: TATPOV_clean_sbu_0, # of connection points: 4
#     Node 19, Type 0, BuildingBlock: TATPOV_clean_sbu_0, # of connection points: 4
#     Node 20, Type 0, BuildingBlock: TATPOV_clean_sbu_0, # of connection points: 4
#     Node 21, Type 0, BuildingBlock: TATPOV_clean_sbu_0, # of connection points: 4
#     Node 22, Type 0, BuildingBlock: TATPOV_clean_sbu_0, # of connection points: 4
#     Node 23, Type 0, BuildingBlock: TATPOV_clean_sbu_0, # of connection points: 4
#     Node 24, Type 1, BuildingBlock: BETDAH_clean_sbu_0, # of connection points: 6
#     Node 25, Type 1, BuildingBlock: BETDAH_clean_sbu_0, # of connection points: 6
#     Node 26, Type 1, BuildingBlock: BETDAH_clean_sbu_0, # of connection points: 6
#     Node 27, Type 1, BuildingBlock: BETDAH_clean_sbu_0, # of connection points: 6
#     Node 28, Type 1, BuildingBlock: BETDAH_clean_sbu_0, # of connection points: 6
#     Node 29, Type 1, BuildingBlock: BETDAH_clean_sbu_0, # of connection points: 6
#     Node 30, Type 1, BuildingBlock: BETDAH_clean_sbu_0, # of connection points: 6
#     Node 31, Type 1, BuildingBlock: BETDAH_clean_sbu_0, # of connection points: 6
#     Node 32, Type 1, BuildingBlock: BETDAH_clean_sbu_0, # of connection points: 6
#     Node 33, Type 1, BuildingBlock: BETDAH_clean_sbu_0, # of connection points: 6
#     Node 34, Type 1, BuildingBlock: BETDAH_clean_sbu_0, # of connection points: 6
#     Node 35, Type 1, BuildingBlock: BETDAH_clean_sbu_0, # of connection points: 6
#     Node 36, Type 1, BuildingBlock: BETDAH_clean_sbu_0, # of connection points: 6
#     Node 37, Type 1, BuildingBlock: BETDAH_clean_sbu_0, # of connection points: 6
#     Node 38, Type 1, BuildingBlock: BETDAH_clean_sbu_0, # of connection points: 6
#     Node 39, Type 1, BuildingBlock: BETDAH_clean_sbu_0, # of connection points: 6
#     Edge 40, Type (0, 1), BuildingBlock: MIFKUJ_clean_linker_0, # of connection points: 2
#     Edge 41, Type (0, 1), BuildingBlock: MIFKUJ_clean_linker_0, # of connection points: 2
#     Edge 42, Type (0, 1), BuildingBlock: MIFKUJ_clean_linker_0, # of connection points: 2
#     Edge 43, Type (0, 1), BuildingBlock: MIFKUJ_clean_linker_0, # of connection points: 2
#     Edge 44, Type (0, 1), BuildingBlock: MIFKUJ_clean_linker_0, # of connection points: 2
#     Edge 45, Type (0, 1), BuildingBlock: MIFKUJ_clean_linker_0, # of connection points: 2
#     Edge 46, Type (0, 1), BuildingBlock: MIFKUJ_clean_linker_0, # of connection points: 2
#     Edge 47, Type (0, 1), BuildingBlock: MIFKUJ_clean_linker_0, # of connection points: 2
#     Edge 48, Type (0, 1), BuildingBlock: MIFKUJ_clean_linker_0, # of connection points: 2
#     Edge 49, Type (0, 1), BuildingBlock: MIFKUJ_clean_linker_0, # of connection points: 2
#     Edge 50, Type (0, 1), BuildingBlock: MIFKUJ_clean_linker_0, # of connection points: 2
#     Edge 51, Type (0, 1), BuildingBlock: MIFKUJ_clean_linker_0, # of connection points: 2
#     Edge 52, Type (0, 1), BuildingBlock: MIFKUJ_clean_linker_0, # of connection points: 2
#     Edge 53, Type (0, 1), BuildingBlock: MIFKUJ_clean_linker_0, # of connection points: 2
#     Edge 54, Type (0, 1), BuildingBlock: MIFKUJ_clean_linker_0, # of connection points: 2
#     Edge 55, Type (0, 1), BuildingBlock: MIFKUJ_clean_linker_0, # of connection points: 2
#     Edge 56, Type (0, 1), BuildingBlock: MIFKUJ_clean_linker_0, # of connection points: 2
#     Edge 57, Type (0, 1), BuildingBlock: MIFKUJ_clean_linker_0, # of connection points: 2
#     Edge 58, Type (0, 1), BuildingBlock: MIFKUJ_clean_linker_0, # of connection points: 2
#     Edge 59, Type (0, 1), BuildingBlock: MIFKUJ_clean_linker_0, # of connection points: 2
#     Edge 60, Type (0, 1), BuildingBlock: MIFKUJ_clean_linker_0, # of connection points: 2
#     Edge 61, Type (0, 1), BuildingBlock: MIFKUJ_clean_linker_0, # of connection points: 2
#     Edge 62, Type (0, 1), BuildingBlock: MIFKUJ_clean_linker_0, # of connection points: 2
#     Edge 63, Type (0, 1), BuildingBlock: MIFKUJ_clean_linker_0, # of connection points: 2
#     Edge 64, Type (0, 1), BuildingBlock: MIFKUJ_clean_linker_0, # of connection points: 2
#     Edge 65, Type (0, 1), BuildingBlock: MIFKUJ_clean_linker_0, # of connection points: 2
#     Edge 66, Type (0, 1), BuildingBlock: MIFKUJ_clean_linker_0, # of connection points: 2
#     Edge 67, Type (0, 1), BuildingBlock: MIFKUJ_clean_linker_0, # of connection points: 2
#     Edge 68, Type (0, 1), BuildingBlock: MIFKUJ_clean_linker_0, # of connection points: 2
#     Edge 69, Type (0, 1), BuildingBlock: MIFKUJ_clean_linker_0, # of connection points: 2
#     Edge 70, Type (0, 1), BuildingBlock: MIFKUJ_clean_linker_0, # of connection points: 2
#     Edge 71, Type (0, 1), BuildingBlock: MIFKUJ_clean_linker_0, # of connection points: 2
#     Edge 72, Type (0, 1), BuildingBlock: MIFKUJ_clean_linker_0, # of connection points: 2
#     Edge 73, Type (0, 1), BuildingBlock: MIFKUJ_clean_linker_0, # of connection points: 2
#     Edge 74, Type (0, 1), BuildingBlock: MIFKUJ_clean_linker_0, # of connection points: 2
#     Edge 75, Type (0, 1), BuildingBlock: MIFKUJ_clean_linker_0, # of connection points: 2
#     Edge 76, Type (0, 1), BuildingBlock: MIFKUJ_clean_linker_0, # of connection points: 2
#     Edge 77, Type (0, 1), BuildingBlock: MIFKUJ_clean_linker_0, # of connection points: 2
#     Edge 78, Type (0, 1), BuildingBlock: MIFKUJ_clean_linker_0, # of connection points: 2
#     Edge 79, Type (0, 1), BuildingBlock: MIFKUJ_clean_linker_0, # of connection points: 2
#     Edge 80, Type (0, 1), BuildingBlock: MIFKUJ_clean_linker_0, # of connection points: 2
#     Edge 81, Type (0, 1), BuildingBlock: MIFKUJ_clean_linker_0, # of connection points: 2
#     Edge 82, Type (0, 1), BuildingBlock: MIFKUJ_clean_linker_0, # of connection points: 2
#     Edge 83, Type (0, 1), BuildingBlock: MIFKUJ_clean_linker_0, # of connection points: 2
#     Edge 84, Type (0, 1), BuildingBlock: MIFKUJ_clean_linker_0, # of connection points: 2
#     Edge 85, Type (0, 1), BuildingBlock: MIFKUJ_clean_linker_0, # of connection points: 2
#     Edge 86, Type (0, 1), BuildingBlock: MIFKUJ_clean_linker_0, # of connection points: 2
#     Edge 87, Type (0, 1), BuildingBlock: MIFKUJ_clean_linker_0, # of connection points: 2
#     Edge 88, Type (0, 1), BuildingBlock: MIFKUJ_clean_linker_0, # of connection points: 2
#     Edge 89, Type (0, 1), BuildingBlock: MIFKUJ_clean_linker_0, # of connection points: 2
#     Edge 90, Type (0, 1), BuildingBlock: MIFKUJ_clean_linker_0, # of connection points: 2
#     Edge 91, Type (0, 1), BuildingBlock: MIFKUJ_clean_linker_0, # of connection points: 2
#     Edge 92, Type (0, 1), BuildingBlock: MIFKUJ_clean_linker_0, # of connection points: 2
#     Edge 93, Type (0, 1), BuildingBlock: MIFKUJ_clean_linker_0, # of connection points: 2
#     Edge 94, Type (0, 1), BuildingBlock: MIFKUJ_clean_linker_0, # of connection points: 2
#     Edge 95, Type (0, 1), BuildingBlock: MIFKUJ_clean_linker_0, # of connection points: 2
#     Edge 96, Type (0, 1), BuildingBlock: MIFKUJ_clean_linker_0, # of connection points: 2
#     Edge 97, Type (0, 1), BuildingBlock: MIFKUJ_clean_linker_0, # of connection points: 2
#     Edge 98, Type (0, 1), BuildingBlock: MIFKUJ_clean_linker_0, # of connection points: 2
#     Edge 99, Type (0, 1), BuildingBlock: MIFKUJ_clean_linker_0, # of connection points: 2
#     Edge 100, Type (0, 1), BuildingBlock: MIFKUJ_clean_linker_0, # of connection points: 2
#     Edge 101, Type (0, 1), BuildingBlock: MIFKUJ_clean_linker_0, # of connection points: 2
#     Edge 102, Type (0, 1), BuildingBlock: MIFKUJ_clean_linker_0, # of connection points: 2
#     Edge 103, Type (0, 1), BuildingBlock: MIFKUJ_clean_linker_0, # of connection points: 2
#     Edge 104, Type (0, 1), BuildingBlock: MIFKUJ_clean_linker_0, # of connection points: 2
#     Edge 105, Type (0, 1), BuildingBlock: MIFKUJ_clean_linker_0, # of connection points: 2
#     Edge 106, Type (0, 1), BuildingBlock: MIFKUJ_clean_linker_0, # of connection points: 2
#     Edge 107, Type (0, 1), BuildingBlock: MIFKUJ_clean_linker_0, # of connection points: 2
#     Edge 108, Type (0, 1), BuildingBlock: MIFKUJ_clean_linker_0, # of connection points: 2
#     Edge 109, Type (0, 1), BuildingBlock: MIFKUJ_clean_linker_0, # of connection points: 2
#     Edge 110, Type (0, 1), BuildingBlock: MIFKUJ_clean_linker_0, # of connection points: 2
#     Edge 111, Type (0, 1), BuildingBlock: MIFKUJ_clean_linker_0, # of connection points: 2
#     Edge 112, Type (0, 1), BuildingBlock: MIFKUJ_clean_linker_0, # of connection points: 2
#     Edge 113, Type (0, 1), BuildingBlock: MIFKUJ_clean_linker_0, # of connection points: 2
#     Edge 114, Type (0, 1), BuildingBlock: MIFKUJ_clean_linker_0, # of connection points: 2
#     Edge 115, Type (0, 1), BuildingBlock: MIFKUJ_clean_linker_0, # of connection points: 2
#     Edge 116, Type (0, 1), BuildingBlock: MIFKUJ_clean_linker_0, # of connection points: 2
#     Edge 117, Type (0, 1), BuildingBlock: MIFKUJ_clean_linker_0, # of connection points: 2
#     Edge 118, Type (0, 1), BuildingBlock: MIFKUJ_clean_linker_0, # of connection points: 2
#     Edge 119, Type (0, 1), BuildingBlock: MIFKUJ_clean_linker_0, # of connection points: 2
#     Edge 120, Type (0, 1), BuildingBlock: MIFKUJ_clean_linker_0, # of connection points: 2
#     Edge 121, Type (0, 1), BuildingBlock: MIFKUJ_clean_linker_0, # of connection points: 2
#     Edge 122, Type (0, 1), BuildingBlock: MIFKUJ_clean_linker_0, # of connection points: 2
#     Edge 123, Type (0, 1), BuildingBlock: MIFKUJ_clean_linker_0, # of connection points: 2
#     Edge 124, Type (0, 1), BuildingBlock: MIFKUJ_clean_linker_0, # of connection points: 2
#     Edge 125, Type (0, 1), BuildingBlock: MIFKUJ_clean_linker_0, # of connection points: 2
#     Edge 126, Type (0, 1), BuildingBlock: MIFKUJ_clean_linker_0, # of connection points: 2
#     Edge 127, Type (0, 1), BuildingBlock: MIFKUJ_clean_linker_0, # of connection points: 2
#     Edge 128, Type (0, 1), BuildingBlock: MIFKUJ_clean_linker_0, # of connection points: 2
#     Edge 129, Type (0, 1), BuildingBlock: MIFKUJ_clean_linker_0, # of connection points: 2
#     Edge 130, Type (0, 1), BuildingBlock: MIFKUJ_clean_linker_0, # of connection points: 2
#     Edge 131, Type (0, 1), BuildingBlock: MIFKUJ_clean_linker_0, # of connection points: 2
#     Edge 132, Type (0, 1), BuildingBlock: MIFKUJ_clean_linker_0, # of connection points: 2
#     Edge 133, Type (0, 1), BuildingBlock: MIFKUJ_clean_linker_0, # of connection points: 2
#     Edge 134, Type (0, 1), BuildingBlock: MIFKUJ_clean_linker_0, # of connection points: 2
#     Edge 135, Type (0, 1), BuildingBlock: MIFKUJ_clean_linker_0, # of connection points: 2
# Relax obj value: 0.177
# Max RMSD: 0.291
# Mean RMSD: 0.171
data_MOF--net-gar--node1-TATPOV_clean_sbu_0--node2-BETDAH_clean_sbu_0--edge1-MIFKUJ_clean_linker_0
_symmetry_space_group_name_H-M    P1
_symmetry_Int_Tables_number       1
_symmetry_cell_setting            triclinic
loop_
_symmetry_equiv_pos_as_xyz
'x, y, z'
_cell_length_a     77.979868
_cell_length_b     73.20258
_cell_length_c     73.465093
_cell_angle_alpha  99.037538
_cell_angle_beta   95.634978
_cell_angle_gamma 104.98279
loop_
_atom_site_label
_atom_site_type_symbol
_atom_site_fract_x
_atom_site_fract_y
_atom_site_fract_z
_atom_type_partial_charge
Zn0 Zn 0.0657 0.31519 0.4155 0.0
Zn1 Zn 0.08992 0.31968 0.3945 0.0
O2 O 0.0946 0.34702 0.40992 0.0
O3 O 0.07376 0.34194 0.42808 0.0
O4 O 0.10976 0.32128 0.37875 0.0
O5 O 0.07245 0.29585 0.42752 0.0
O6 O 0.09062 0.29597 0.40639 0.0
C7 C 0.0863 0.35338 0.42247 0.0
C8 C 0.05092 0.30928 0.37792 0.0
O9 O 0.06741 0.31428 0.37621 0.0
O10 O 0.04617 0.30756 0.39368 0.0
C11 C 0.10671 0.31819 0.36105 0.0
O12 O 0.09029 0.31494 0.35261 0.0
C13 C 0.08345 0.28879 0.41946 0.0
Zn14 Zn 0.98482 0.71759 0.66248 0.0
Zn15 Zn 0.99249 0.75061 0.64637 0.0
O16 O 0.97157 0.753 0.65932 0.0
O17 O 0.96623 0.7279 0.67344 0.0
O18 O 1.0002 0.77447 0.63617 0.0
O19 O 0.01006 0.72699 0.67634 0.0
O20 O 0.01452 0.75275 0.66346 0.0
C21 C 0.9629 0.74305 0.66983 0.0
C22 C 0.98266 0.71103 0.62234 0.0
O23 O 0.98794 0.72922 0.62439 0.0
O24 O 0.97978 0.70284 0.63614 0.0
C25 C 0.9923 0.77712 0.62132 0.0
O26 O 0.97776 0.764 0.61248 0.0
C27 C 0.02004 0.74295 0.67428 0.0
Zn28 Zn 0.56845 0.82262 0.90569 0.0
Zn29 Zn 0.59356 0.8206 0.89108 0.0
O30 O 0.59912 0.84789 0.90648 0.0
O31 O 0.58399 0.83938 0.92862 0.0
O32 O 0.61388 0.81877 0.87761 0.0
O33 O 0.56045 0.79416 0.90325 0.0
O34 O 0.58936 0.79769 0.90437 0.0
C35 C 0.59441 0.85237 0.9223 0.0
C36 C 0.56243 0.82602 0.86965 0.0
O37 O 0.57381 0.81639 0.86945 0.0
O38 O 0.55982 0.83452 0.88504 0.0
C39 C 0.62352 0.83233 0.87118 0.0
O40 O 0.62189 0.84986 0.87533 0.0
C41 C 0.5737 0.78739 0.90523 0.0
Zn42 Zn 0.48671 0.22366 0.15892 0.0
Zn43 Zn 0.49208 0.25565 0.14677 0.0
O44 O 0.46867 0.25343 0.15668 0.0
O45 O 0.47057 0.23277 0.17516 0.0
O46 O 0.49686 0.27941 0.13615 0.0
O47 O 0.5134 0.2323 0.16731 0.0
O48 O 0.51324 0.26224 0.16674 0.0
C49 C 0.46332 0.24485 0.16966 0.0
C50 C 0.48531 0.21717 0.12134 0.0
O51 O 0.49354 0.23496 0.12567 0.0
O52 O 0.47716 0.20868 0.13301 0.0
C53 C 0.49312 0.27923 0.11893 0.0
O54 O 0.48439 0.26296 0.10767 0.0
C55 C 0.52108 0.2502 0.17142 0.0
Zn56 Zn 0.09882 0.81232 0.10085 0.0
Zn57 Zn 0.07164 0.80595 0.11986 0.0
O58 O 0.07016 0.82963 0.10736 0.0
O59 O 0.09292 0.83438 0.09152 0.0
O60 O 0.04881 0.80105 0.13227 0.0
O61 O 0.08958 0.7856 0.08555 0.0
O62 O 0.06666 0.78051 0.10114 0.0
C63 C 0.07929 0.83894 0.09651 0.0
C64 C 0.111 0.81312 0.13893 0.0
O65 O 0.09414 0.80877 0.13995 0.0
O66 O 0.11645 0.81653 0.12381 0.0
C67 C 0.04727 0.79895 0.14897 0.0
O68 O 0.06172 0.80041 0.16055 0.0
C69 C 0.07519 0.77457 0.08862 0.0
Zn70 Zn 0.48292 0.75636 0.42746 0.0
Zn71 Zn 0.50705 0.76158 0.40588 0.0
O72 O 0.51347 0.78776 0.4243 0.0
O73 O 0.49292 0.7827 0.44281 0.0
O74 O 0.5279 0.765 0.39005 0.0
O75 O 0.48829 0.73404 0.43646 0.0
O76 O 0.50937 0.73779 0.41849 0.0
C77 C 0.50628 0.79384 0.43802 0.0
C78 C 0.46667 0.75657 0.3913 0.0
O79 O 0.48294 0.75952 0.38802 0.0
O80 O 0.46305 0.75334 0.40711 0.0
C81 C 0.54357 0.77571 0.39725 0.0
O82 O 0.54607 0.78464 0.41467 0.0
C83 C 0.50121 0.72892 0.43027 0.0
Zn84 Zn 0.59738 0.31138 0.59836 0.0
Zn85 Zn 0.57222 0.30627 0.62019 0.0
O86 O 0.57011 0.33057 0.6088 0.0
O87 O 0.59031 0.33329 0.58971 0.0
O88 O 0.55161 0.30155 0.63582 0.0
O89 O 0.58641 0.28486 0.58309 0.0
O90 O 0.56512 0.28085 0.60084 0.0
C91 C 0.57784 0.33886 0.5965 0.0
C92 C 0.61238 0.31199 0.63574 0.0
O93 O 0.59586 0.30837 0.63813 0.0
O94 O 0.61669 0.31508 0.62009 0.0
C95 C 0.5362 0.30234 0.62897 0.0
O96 O 0.53425 0.30684 0.61241 0.0
C97 C 0.57217 0.27447 0.58714 0.0
Zn98 Zn 0.98874 0.25988 0.93216 0.0
Zn99 Zn 0.01092 0.26072 0.90736 0.0
O100 O 0.01827 0.28781 0.92381 0.0
O101 O 1.00177 0.28601 0.94649 0.0
O102 O 0.03235 0.26265 0.89288 0.0
O103 O 0.99301 0.23701 0.94111 0.0
O104 O 0.01199 0.23753 0.92078 0.0
C105 C 0.01395 0.29553 0.9388 0.0
C106 C 0.97196 0.25878 0.89448 0.0
O107 O 0.98721 0.25837 0.88958 0.0
O108 O 0.96955 0.25875 0.91128 0.0
C109 C 0.03702 0.27427 0.88188 0.0
O110 O 0.02665 0.28503 0.87768 0.0
C111 C 0.00453 0.23019 0.93371 0.0
Zn112 Zn 0.45236 0.02197 0.27187 0.0
Zn113 Zn 0.43135 0.04361 0.27659 0.0
O114 O 0.44399 0.04561 0.30285 0.0
O115 O 0.4528 0.01911 0.2978 0.0
O116 O 0.41752 0.06249 0.2774 0.0
O117 O 0.46978 0.04621 0.26776 0.0
O118 O 0.44461 0.04828 0.25476 0.0
C119 C 0.45021 0.03286 0.30884 0.0
C120 C 0.41573 0.00397 0.25703 0.0
O121 O 0.41345 0.01785 0.26832 0.0
O122 O 0.4313 0.00401 0.25339 0.0
C123 C 0.40095 0.05831 0.27881 0.0
O124 O 0.39295 0.04158 0.28277 0.0
C125 C 0.46075 0.04861 0.25365 0.0
Zn126 Zn 0.266 0.20971 0.49743 0.0
Zn127 Zn 0.28532 0.18629 0.49588 0.0
O128 O 0.28842 0.1989 0.47173 0.0
O129 O 0.27149 0.21869 0.47408 0.0
O130 O 0.30519 0.17253 0.49668 0.0
O131 O 0.27803 0.22619 0.52177 0.0
O132 O 0.29222 0.20397 0.5224 0.0
C133 C 0.282 0.21142 0.46528 0.0
C134 C 0.24519 0.17021 0.49605 0.0
O135 O 0.26013 0.16628 0.49449 0.0
O136 O 0.24456 0.18748 0.49743 0.0
C137 C 0.30441 0.15666 0.50206 0.0
O138 O 0.28927 0.14697 0.50657 0.0
C139 C 0.28866 0.21905 0.53046 0.0
Zn140 Zn 0.14003 0.02888 0.77137 0.0
Zn141 Zn 0.15939 0.00571 0.77034 0.0
O142 O 0.14526 0.00524 0.79693 0.0
O143 O 0.1302 0.02659 0.79536 0.0
O144 O 0.17276 0.98081 0.7675 0.0
O145 O 0.12382 0.0192 0.74693 0.0
O146 O 0.14292 1.0022 0.74183 0.0
C147 C 0.1348 0.01481 0.80431 0.0
C148 C 0.17672 0.05068 0.77173 0.0
O149 O 0.17964 0.03412 0.7725 0.0
O150 O 0.16078 0.05188 0.77103 0.0
C151 C 0.18589 0.97769 0.77787 0.0
O152 O 0.19342 0.99085 0.79281 0.0
C153 C 0.12976 0.00846 0.73548 0.0
Zn154 Zn 0.30997 0.86514 0.0077 0.0
Zn155 Zn 0.28457 0.89779 0.0122 0.0
O156 O 0.28009 0.89414 0.98378 0.0
O157 O 0.29671 0.87554 0.98943 0.0
O158 O 0.2691 0.91315 0.02306 0.0
O159 O 0.29429 0.85162 0.02556 0.0
O160 O 0.28 0.87181 0.01936 0.0
C161 C 0.28831 0.88211 0.97779 0.0
C162 C 0.32592 0.90951 0.02045 0.0
O163 O 0.31048 0.91248 0.01957 0.0
O164 O 0.32803 0.89264 0.0165 0.0
C165 C 0.27178 0.93015 0.0199 0.0
O166 O 0.28461 0.93665 0.01028 0.0
C167 C 0.28892 0.86601 0.03155 0.0
Zn168 Zn 0.31238 0.35998 0.02753 0.0
Zn169 Zn 0.29429 0.38475 0.03029 0.0
O170 O 0.28738 0.36758 0.00379 0.0
O171 O 0.29822 0.34277 0.00415 0.0
O172 O 0.2754 0.40017 0.03035 0.0
O173 O 0.30898 0.35261 0.05192 0.0
O174 O 0.29081 0.37113 0.05383 0.0
C175 C 0.28909 0.35158 0.99562 0.0
C176 C 0.33414 0.39898 0.02799 0.0
O177 O 0.31995 0.40382 0.03143 0.0
O178 O 0.33381 0.38136 0.02545 0.0
C179 C 0.26793 0.40301 0.01517 0.0
O180 O 0.27349 0.39735 0.99951 0.0
C181 C 0.29806 0.35932 0.06056 0.0
Zn182 Zn 0.75947 0.15702 0.02657 0.0
Zn183 Zn 0.78497 0.14662 0.02414 0.0
O184 O 0.78351 0.1581 1.0006 0.0
O185 O 0.75432 0.15035 0.99874 0.0
O186 O 0.80618 0.13663 0.02328 0.0
O187 O 0.7728 0.18366 0.0387 0.0
O188 O 0.7891 0.16609 0.04886 0.0
C189 C 0.76816 0.15488 0.99104 0.0
C190 C 0.75075 0.12214 0.03109 0.0
O191 O 0.76298 0.12298 0.02079 0.0
O192 O 0.75179 0.13715 0.04271 0.0
C193 C 0.80536 0.1242 0.00887 0.0
O194 O 0.79081 0.11867 0.99644 0.0
C195 C 0.78402 0.18139 0.05111 0.0
Zn196 Zn 0.12643 0.54538 0.25338 0.0
Zn197 Zn 0.14694 0.52409 0.24634 0.0
O198 O 0.13904 0.52178 0.27131 0.0
O199 O 0.11229 0.52521 0.26612 0.0
O200 O 0.16378 0.50828 0.2445 0.0
O201 O 0.12246 0.54253 0.22575 0.0
O202 O 0.12934 0.51501 0.22287 0.0
C203 C 0.12425 0.52196 0.277 0.0
C204 C 0.1627 0.56556 0.25892 0.0
O205 O 0.16277 0.55082 0.24727 0.0
O206 O 0.14909 0.56565 0.26702 0.0
C207 C 0.17741 0.51417 0.25703 0.0
O208 O 0.17916 0.52976 0.2695 0.0
C209 C 0.12316 0.5271 0.21577 0.0
Zn210 Zn 0.81421 0.86242 0.52898 0.0
Zn211 Zn 0.79463 0.88575 0.52963 0.0
O212 O 0.78876 0.86888 0.50308 0.0
O213 O 0.8025 0.84626 0.50421 0.0
O214 O 0.77477 0.89962 0.52892 0.0
O215 O 0.8088 0.85372 0.55241 0.0
O216 O 0.79045 0.87209 0.55299 0.0
C217 C 0.79229 0.85371 0.49529 0.0
C218 C 0.83519 0.90187 0.53102 0.0
O219 O 0.82013 0.90579 0.5317 0.0
O220 O 0.83575 0.88459 0.52981 0.0
C221 C 0.77214 0.90967 0.51679 0.0
O222 O 0.7835 0.91281 0.50479 0.0
C223 C 0.79735 0.8603 0.5602 0.0
Zn224 Zn 0.94273 0.0388 0.25372 0.0
Zn225 Zn 0.92276 0.06231 0.25472 0.0
O226 O 0.93887 0.06678 0.28332 0.0
O227 O 0.95758 0.04905 0.27901 0.0
O228 O 0.90775 0.08569 0.25492 0.0
O229 O 0.95384 0.0429 0.2305 0.0
O230 O 0.93717 0.06274 0.22845 0.0
C231 C 0.95174 0.06032 0.29002 0.0
C232 C 0.90586 0.01691 0.25282 0.0
O233 O 0.90316 0.03369 0.25291 0.0
O234 O 0.92167 0.01539 0.25285 0.0
C235 C 0.90843 0.10056 0.26767 0.0
O236 O 0.91914 0.10294 0.28333 0.0
C237 C 0.94858 0.0543 0.22149 0.0
Zn238 Zn 0.2465 0.67228 0.51641 0.0
Zn239 Zn 0.28855 0.65019 0.5207 0.0
O240 O 0.29279 0.66311 0.49778 0.0
O241 O 0.26935 0.66808 0.50789 0.0
O242 O 0.30993 0.64125 0.5263 0.0
O243 O 0.26008 0.68256 0.54267 0.0
O244 O 0.28314 0.6687 0.54337 0.0
C245 C 0.27968 0.67004 0.4957 0.0
C246 C 0.25415 0.63159 0.51009 0.0
O247 O 0.26763 0.62537 0.51276 0.0
O248 O 0.25712 0.64966 0.51356 0.0
C249 C 0.31043 0.62929 0.51197 0.0
O250 O 0.29795 0.62568 0.49746 0.0
C251 C 0.27407 0.67952 0.55097 0.0
Zn252 Zn 0.44452 0.54144 0.75478 0.0
Zn253 Zn 0.4226 0.56186 0.75485 0.0
O254 O 0.43814 0.5657 0.78353 0.0
O255 O 0.45939 0.5512 0.78005 0.0
O256 O 0.40995 0.58729 0.7564 0.0
O257 O 0.45594 0.54521 0.73187 0.0
O258 O 0.43697 0.56236 0.72843 0.0
C259 C 0.45179 0.56079 0.79075 0.0
C260 C 0.40756 0.51688 0.75306 0.0
O261 O 0.40318 0.53281 0.75279 0.0
O262 O 0.42398 0.51745 0.75344 0.0
C263 C 0.39473 0.58974 0.76066 0.0
O264 O 0.38338 0.57493 0.76496 0.0
C265 C 0.44937 0.55514 0.72204 0.0
Zn266 Zn 0.63583 0.05325 0.74202 0.0
Zn267 Zn 0.65112 0.02494 0.7468 0.0
O268 O 0.64024 0.02715 0.77054 0.0
O269 O 0.64502 0.05779 0.76972 0.0
O270 O 0.66443 0.00578 0.7486 0.0
O271 O 0.61552 0.03206 0.72684 0.0
O272 O 0.63552 0.01602 0.7227 0.0
C273 C 0.64281 0.04435 0.77889 0.0
C274 C 0.66847 0.06155 0.73489 0.0
O275 O 0.66889 0.04968 0.74566 0.0
O276 O 0.65382 0.06122 0.72576 0.0
C277 C 0.6814 0.0104 0.75028 0.0
O278 O 0.69045 0.0283 0.7507 0.0
C279 C 0.62128 0.01981 0.71687 0.0
Zn280 Zn 0.76495 0.70875 0.9972 0.0
Zn281 Zn 0.78392 0.6848 0.99578 0.0
O282 O 0.78744 0.6978 0.97207 0.0
O283 O 0.76936 0.71645 0.97307 0.0
O284 O 0.80372 0.67098 0.99634 0.0
O285 O 0.77797 0.72554 0.02133 0.0
O286 O 0.79024 0.7018 0.02234 0.0
C287 C 0.78035 0.70944 0.96486 0.0
C288 C 0.74384 0.66918 0.9957 0.0
O289 O 0.75863 0.66496 0.9939 0.0
O290 O 0.74357 0.68661 0.99766 0.0
C291 C 0.80367 0.65629 0.00363 0.0
O292 O 0.78936 0.64799 0.01051 0.0
C293 C 0.78754 0.71742 0.03024 0.0
Zn294 Zn 0.95224 0.51772 0.76917 0.0
Zn295 Zn 0.93108 0.53901 0.77539 0.0
O296 O 0.94249 0.53945 0.80164 0.0
O297 O 0.95681 0.51738 0.7957 0.0
O298 O 0.91562 0.5571 0.77773 0.0
O299 O 0.96918 0.53651 0.75814 0.0
O300 O 0.94568 0.54742 0.75525 0.0
C301 C 0.95157 0.5287 0.8072 0.0
C302 C 0.91631 0.49786 0.75523 0.0
O303 O 0.91415 0.51295 0.76469 0.0
O304 O 0.93193 0.49658 0.75329 0.0
C305 C 0.89867 0.55079 0.7737 0.0
O306 O 0.89095 0.53219 0.76975 0.0
C307 C 0.96039 0.54589 0.75 0.0
Zn308 Zn 0.81277 0.3948 0.51283 0.0
Zn309 Zn 0.79196 0.41257 0.51064 0.0
O310 O 0.7894 0.39802 0.48399 0.0
O311 O 0.81677 0.39496 0.48665 0.0
O312 O 0.77286 0.42549 0.5115 0.0
O313 O 0.79617 0.37215 0.52002 0.0
O314 O 0.78706 0.3969 0.53084 0.0
C315 C 0.8025 0.39435 0.47658 0.0
C316 C 0.82832 0.4323 0.52976 0.0
O317 O 0.81536 0.43388 0.51877 0.0
O318 O 0.82857 0.41582 0.53274 0.0
C319 C 0.77495 0.44295 0.51018 0.0
O320 O 0.79011 0.45303 0.50605 0.0
C321 C 0.78854 0.38024 0.53196 0.0
Zn322 Zn 0.64088 0.52923 0.27368 0.0
Zn323 Zn 0.65986 0.50575 0.27 0.0
O324 O 0.64622 0.50462 0.29692 0.0
O325 O 0.63003 0.52518 0.2968 0.0
O326 O 0.67356 0.48108 0.26636 0.0
O327 O 0.62593 0.52175 0.24845 0.0
O328 O 0.64272 0.5024 0.24202 0.0
C329 C 0.6354 0.51327 0.30493 0.0
C330 C 0.67726 0.55156 0.27453 0.0
O331 O 0.6799 0.53458 0.27207 0.0
O332 O 0.66161 0.55279 0.27633 0.0
C333 C 0.68413 0.47568 0.27802 0.0
O334 O 0.68827 0.48584 0.29504 0.0
C335 C 0.63051 0.51028 0.2364 0.0
Ho336 Ho 0.02432 0.0232 0.00203 0.0
Ho337 Ho 0.06175 0.04507 0.02514 0.0
C338 C 0.03958 0.06957 0.00546 0.0
C339 C 0.99017 0.0109 0.99167 0.0
C340 C 0.97597 0.02079 0.99131 0.0
C341 C 0.97202 0.03043 0.00777 0.0
C342 C 0.95963 0.04112 0.00694 0.0
C343 C 0.95108 0.04249 0.98965 0.0
C344 C 0.95501 0.03277 0.97322 0.0
C345 C 0.96725 0.02192 0.97407 0.0
C346 C 0.05018 0.02208 0.9786 0.0
C347 C 0.04622 0.99863 0.02148 0.0
C348 C 0.09606 0.05785 0.03464 0.0
C349 C 0.11048 0.04858 0.03297 0.0
C350 C 0.10658 0.02931 0.02388 0.0
C351 C 0.11985 0.01969 0.02421 0.0
C352 C 0.13723 0.02934 0.03336 0.0
C353 C 0.14125 0.04878 0.04199 0.0
C354 C 0.12788 0.05831 0.04193 0.0
C355 C 0.0363 0.04571 0.04913 0.0
O356 O 0.02584 0.05396 1.00057 0.0
O357 O 0.05509 0.06983 0.01462 0.0
O358 O 1.0017 0.01548 0.98026 0.0
O359 O 0.99782 0.00979 0.00799 0.0
O360 O 0.03324 0.01331 0.97432 0.0
O361 O 0.05243 0.02988 0.99587 0.0
O362 O 0.06041 0.01388 0.0248 0.0
O363 O 0.03028 0.999 0.01396 0.0
O364 O 0.08502 0.05129 0.04588 0.0
O365 O 0.08777 0.05993 0.01904 0.0
O366 O 0.05343 0.05355 0.05327 0.0
O367 O 0.03356 0.03817 0.03168 0.0
H368 H 0.97858 0.02988 0.02128 0.0
H369 H 0.95662 0.04812 0.01987 0.0
H370 H 0.94882 0.03372 0.95968 0.0
H371 H 0.9702 0.01473 0.96118 0.0
H372 H 0.0932 0.02161 0.01685 0.0
H373 H 0.11655 0.00473 0.01735 0.0
H374 H 0.1546 0.05642 0.04919 0.0
H375 H 0.13101 0.07311 0.04918 0.0
Ho376 Ho 0.29225 0.78625 0.24836 0.0
Ho377 Ho 0.28338 0.79454 0.29154 0.0
C378 C 0.29924 0.82963 0.27143 0.0
C379 C 0.29049 0.7837 0.21303 0.0
C380 C 0.29951 0.7977 0.20238 0.0
C381 C 0.28933 0.80213 0.18782 0.0
C382 C 0.29677 0.81767 0.1796 0.0
C383 C 0.31451 0.82902 0.18585 0.0
C384 C 0.32494 0.82416 0.19998 0.0
C385 C 0.31743 0.80869 0.20833 0.0
C386 C 0.32157 0.7911 0.27446 0.0
C387 C 0.27677 0.75103 0.26897 0.0
C388 C 0.28287 0.79817 0.32665 0.0
C389 C 0.27121 0.78571 0.33689 0.0
C390 C 0.27925 0.77674 0.34938 0.0
C391 C 0.26885 0.76147 0.35598 0.0
C392 C 0.25021 0.75527 0.35068 0.0
C393 C 0.24188 0.76481 0.33903 0.0
C394 C 0.25239 0.77987 0.33194 0.0
C395 C 0.25439 0.78876 0.26469 0.0
O396 O 0.29631 0.81803 0.25498 0.0
O397 O 0.2978 0.82379 0.28751 0.0
O398 O 0.30068 0.77572 0.22255 0.0
O399 O 0.27879 0.78931 0.22247 0.0
O400 O 0.32163 0.78797 0.25657 0.0
O401 O 0.30605 0.79225 0.27689 0.0
O402 O 0.27941 0.76283 0.28528 0.0
O403 O 0.27881 0.75676 0.25285 0.0
O404 O 0.27538 0.808 0.31644 0.0
O405 O 0.29363 0.7899 0.31809 0.0
O406 O 0.25356 0.79165 0.2824 0.0
O407 O 0.27021 0.78866 0.26321 0.0
H408 H 0.27543 0.79399 0.18325 0.0
H409 H 0.28858 0.8209 0.16843 0.0
H410 H 0.33866 0.83268 0.20495 0.0
H411 H 0.32545 0.80576 0.21984 0.0
H412 H 0.29371 0.78078 0.35314 0.0
H413 H 0.27539 0.75406 0.36486 0.0
H414 H 0.22747 0.76014 0.33491 0.0
H415 H 0.24588 0.78635 0.32203 0.0
Ho416 Ho 0.55963 0.03711 0.51505 0.0
Ho417 Ho 0.51757 0.03124 0.51431 0.0
C418 C 0.5314 0.99378 0.5082 0.0
C419 C 0.59197 0.03391 0.52121 0.0
C420 C 0.60201 0.01939 0.51662 0.0
C421 C 0.60415 0.00692 0.52888 0.0
C422 C 0.61513 0.99466 0.52568 0.0
C423 C 0.62438 0.99456 0.51015 0.0
C424 C 0.62172 0.00657 0.49754 0.0
C425 C 0.61077 0.01887 0.50077 0.0
C426 C 0.54018 0.03402 0.48209 0.0
C427 C 0.54594 0.07465 0.52164 0.0
C428 C 0.48508 0.0335 0.50702 0.0
C429 C 0.47427 0.04723 0.51148 0.0
C430 C 0.47525 0.06291 0.50235 0.0
C431 C 0.46367 0.07455 0.50525 0.0
C432 C 0.45077 0.07082 0.51733 0.0
C433 C 0.45024 0.05551 0.52692 0.0
C434 C 0.46176 0.04384 0.52397 0.0
C435 C 0.53651 0.03368 0.54732 0.0
O436 O 0.54784 0.00529 0.51418 0.0
O437 O 0.51741 1.00052 0.50473 0.0
O438 O 0.58649 0.04173 0.50769 0.0
O439 O 0.58014 0.03027 0.53257 0.0
O440 O 0.55683 0.04417 0.48622 0.0
O441 O 0.53553 0.02515 0.49477 0.0
O442 O 0.52934 0.06324 0.51632 0.0
O443 O 0.56009 0.06797 0.52436 0.0
O444 O 0.49029 0.0255 0.52052 0.0
O445 O 0.4974 0.03802 0.4963 0.0
O446 O 0.51977 0.02384 0.54284 0.0
O447 O 0.54161 0.04284 0.53488 0.0
H448 H 0.59776 0.00702 0.54133 0.0
H449 H 0.61696 0.98586 0.53586 0.0
H450 H 0.62833 0.00671 0.48525 0.0
H451 H 0.60952 0.0283 0.49104 0.0
H452 H 0.48465 0.06593 0.49257 0.0
H453 H 0.46441 0.08606 0.49748 0.0
H454 H 0.44074 0.05237 0.53658 0.0
H455 H 0.46061 0.03186 0.53119 0.0
Ho456 Ho 0.27253 0.28518 0.7623 0.0
Ho457 Ho 0.3106 0.28005 0.76646 0.0
C458 C 0.29646 0.29456 0.80302 0.0
C459 C 0.23861 0.2781 0.76508 0.0
C460 C 0.22661 0.28348 0.77832 0.0
C461 C 0.22392 0.27467 0.79394 0.0
C462 C 0.21095 0.27781 0.80503 0.0
C463 C 0.20023 0.28982 0.80084 0.0
C464 C 0.20344 0.29923 0.78566 0.0
C465 C 0.21638 0.29603 0.77451 0.0
C466 C 0.29671 0.32086 0.76358 0.0
C467 C 0.28793 0.27331 0.72508 0.0
C468 C 0.34338 0.27937 0.76355 0.0
C469 C 0.35551 0.27812 0.74927 0.0
C470 C 0.36371 0.29428 0.74192 0.0
C471 C 0.37655 0.29335 0.72998 0.0
C472 C 0.38156 0.27626 0.72508 0.0
C473 C 0.37296 0.25997 0.73207 0.0
C474 C 0.36018 0.26092 0.74405 0.0
C475 C 0.28387 0.24892 0.77099 0.0
O476 O 0.28034 0.28881 0.79311 0.0
O477 O 0.3112 0.29522 0.79547 0.0
O478 O 0.24678 0.29101 0.75595 0.0
O479 O 0.24882 0.26772 0.77041 0.0
O480 O 0.27939 0.31733 0.76199 0.0
O481 O 0.30011 0.3049 0.7646 0.0
O482 O 0.30348 0.27579 0.73547 0.0
O483 O 0.27334 0.27511 0.73209 0.0
O484 O 0.33024 0.26403 0.76329 0.0
O485 O 0.33861 0.29526 0.76744 0.0
O486 O 0.29954 0.25556 0.78119 0.0
O487 O 0.28313 0.25949 0.75885 0.0
H488 H 0.23141 0.26477 0.79729 0.0
H489 H 0.20879 0.27009 0.81641 0.0
H490 H 0.19569 0.30884 0.78214 0.0
H491 H 0.21803 0.30299 0.76257 0.0
H492 H 0.36059 0.30784 0.74575 0.0
H493 H 0.383 0.3063 0.72513 0.0
H494 H 0.37622 0.24647 0.72843 0.0
H495 H 0.35421 0.24824 0.74956 0.0
Ho496 Ho 0.04003 0.05295 0.52007 0.0
Ho497 Ho 0.04123 0.01203 0.50299 0.0
C498 C 0.02788 0.03815 0.47531 0.0
C499 C 0.04494 0.08891 0.53226 0.0
C500 C 0.04321 0.10312 0.5207 0.0
C501 C 0.04937 0.10191 0.50333 0.0
C502 C 0.04609 0.11384 0.49127 0.0
C503 C 0.03644 0.12715 0.49621 0.0
C504 C 0.03007 0.12822 0.51351 0.0
C505 C 0.03341 0.11623 0.52566 0.0
C506 C 0.00857 0.02532 0.51499 0.0
C507 C 0.05545 0.02774 0.54796 0.0
C508 C 0.03356 0.97514 0.49413 0.0
C509 C 0.03309 0.96029 0.50565 0.0
C510 C 0.01883 0.9547 0.51572 0.0
C511 C 0.01928 0.94171 0.52763 0.0
C512 C 0.03395 0.93402 0.52961 0.0
C513 C 0.04816 0.93952 0.51952 0.0
C514 C 0.04769 0.95245 0.50757 0.0
C515 C 0.07213 0.03815 0.49903 0.0
O516 O 0.03536 0.05338 0.48886 0.0
O517 O 0.02668 0.02038 0.47823 0.0
O518 O 0.0299 0.07605 0.53268 0.0
O519 O 0.05825 0.08134 0.52994 0.0
O520 O 0.01025 0.04268 0.51221 0.0
O521 O 0.02378 0.02351 0.52092 0.0
O522 O 0.05269 0.01353 0.53329 0.0
O523 O 0.05122 0.044 0.54634 0.0
O524 O 0.0495 0.98659 0.49421 0.0
O525 O 0.02123 0.98435 0.49521 0.0
O526 O 0.06837 0.0198 0.4929 0.0
O527 O 0.0589 0.04118 0.50622 0.0
H528 H 0.05664 0.09162 0.49894 0.0
H529 H 0.05153 0.11293 0.47825 0.0
H530 H 0.02251 0.1383 0.51762 0.0
H531 H 0.02815 0.117 0.53879 0.0
H532 H 0.00737 0.96043 0.51454 0.0
H533 H 0.00817 0.9377 0.53534 0.0
H534 H 0.05948 0.93353 0.52058 0.0
H535 H 0.05885 0.95645 0.49993 0.0
Ho536 Ho 0.31151 0.80241 0.76892 0.0
Ho537 Ho 0.27683 0.77061 0.76561 0.0
C538 C 0.31334 0.75663 0.76901 0.0
C539 C 0.34275 0.82545 0.78105 0.0
C540 C 0.36044 0.82202 0.78315 0.0
C541 C 0.36357 0.80782 0.79283 0.0
C542 C 0.38018 0.80405 0.79399 0.0
C543 C 0.39384 0.81432 0.7854 0.0
C544 C 0.39062 0.82832 0.77551 0.0
C545 C 0.37402 0.83218 0.77444 0.0
C546 C 0.29679 0.78472 0.7343 0.0
C547 C 0.27487 0.81624 0.76524 0.0
C548 C 0.2458 0.74699 0.75347 0.0
C549 C 0.22797 0.74984 0.75096 0.0
C550 C 0.21723 0.74251 0.7336 0.0
C551 C 0.2016 0.74783 0.7297 0.0
C552 C 0.1965 0.76035 0.74322 0.0
C553 C 0.20684 0.76712 0.76084 0.0
C554 C 0.22264 0.76203 0.76466 0.0
C555 C 0.29145 0.78935 0.80016 0.0
O556 O 0.3221 0.77552 0.77204 0.0
O557 O 0.29552 0.75115 0.76513 0.0
O558 O 0.33506 0.82297 0.76383 0.0
O559 O 0.33177 0.818 0.79205 0.0
O560 O 0.30528 0.80296 0.73852 0.0
O561 O 0.29775 0.77694 0.74827 0.0
O562 O 0.26625 0.79728 0.76145 0.0
O563 O 0.29265 0.82186 0.77003 0.0
O564 O 0.25361 0.74962 0.77068 0.0
O565 O 0.25647 0.75507 0.74253 0.0
O566 O 0.28288 0.77112 0.79657 0.0
O567 O 0.29039 0.79628 0.78577 0.0
H568 H 0.35325 0.79958 0.79952 0.0
H569 H 0.38245 0.79343 0.80198 0.0
H570 H 0.40096 0.83633 0.76868 0.0
H571 H 0.37173 0.84299 0.76671 0.0
H572 H 0.22133 0.73331 0.72283 0.0
H573 H 0.19359 0.74234 0.71607 0.0
H574 H 0.20302 0.77683 0.77137 0.0
H575 H 0.23094 0.76817 0.77805 0.0
Ho576 Ho 0.53603 0.03872 0.02021 0.0
Ho577 Ho 0.52237 0.03349 0.97884 0.0
C578 C 0.49424 0.01671 0.003 0.0
C579 C 0.54131 0.04542 0.05601 0.0
C580 C 0.53224 0.03511 0.06935 0.0
C581 C 0.52999 0.04547 0.08618 0.0
C582 C 0.51923 0.03608 0.09782 0.0
C583 C 0.51057 0.01624 0.09267 0.0
C584 C 0.51357 0.00571 0.07624 0.0
C585 C 0.52424 0.01513 0.06455 0.0
C586 C 0.54054 0.00773 0.9986 0.0
C587 C 0.56411 0.05524 0.9953 0.0
C588 C 0.51904 0.02939 0.94344 0.0
C589 C 0.53167 0.04116 0.93337 0.0
C590 C 0.54666 0.03527 0.9287 0.0
C591 C 0.56132 0.04835 0.92441 0.0
C592 C 0.5611 0.06743 0.92411 0.0
C593 C 0.54566 0.07303 0.92742 0.0
C594 C 0.53105 0.06001 0.93212 0.0
C595 C 0.51885 0.06476 1.00102 0.0
O596 O 0.50575 0.02716 0.01774 0.0
O597 O 0.49873 0.0138 0.98624 0.0
O598 O 0.5504 0.03622 0.04585 0.0
O599 O 0.53149 0.05357 0.04633 0.0
O600 O 0.55194 0.0179 0.01283 0.0
O601 O 0.52692 0.01379 0.99708 0.0
O602 O 0.5525 0.04472 0.98075 0.0
O603 O 0.55964 0.05825 0.01211 0.0
O604 O 0.50981 0.03864 0.95338 0.0
O605 O 0.52558 0.01801 0.95247 0.0
O606 O 0.50682 0.05473 0.98719 0.0
O607 O 0.53216 0.05824 0.00184 0.0
H608 H 0.53601 0.0609 0.08997 0.0
H609 H 0.51722 0.04441 0.11058 0.0
H610 H 0.50687 0.99047 0.07195 0.0
H611 H 0.52566 0.00696 0.05142 0.0
H612 H 0.54754 0.02085 0.92941 0.0
H613 H 0.57291 0.04352 0.92138 0.0
H614 H 0.5451 0.08757 0.92688 0.0
H615 H 0.51966 0.06501 0.93564 0.0
Ho616 Ho 0.29371 0.30275 0.26651 0.0
Ho617 Ho 0.27298 0.25827 0.25198 0.0
C618 C 0.25139 0.28624 0.26911 0.0
C619 C 0.30548 0.33853 0.26511 0.0
C620 C 0.29865 0.35513 0.26997 0.0
C621 C 0.29785 0.36686 0.25679 0.0
C622 C 0.28817 0.38034 0.25907 0.0
C623 C 0.27938 0.38235 0.27468 0.0
C624 C 0.28094 0.37137 0.28844 0.0
C625 C 0.29041 0.35763 0.286 0.0
C626 C 0.29154 0.28339 0.2952 0.0
C627 C 0.31661 0.27412 0.25514 0.0
C628 C 0.26401 0.2213 0.24482 0.0
C629 C 0.27511 0.20796 0.24379 0.0
C630 C 0.29266 0.21375 0.2535 0.0
C631 C 0.30372 0.20161 0.25142 0.0
C632 C 0.29722 0.18341 0.23992 0.0
C633 C 0.27968 0.17755 0.23026 0.0
C634 C 0.26873 0.18989 0.23204 0.0
C635 C 0.27293 0.28224 0.22762 0.0
O636 O 0.26491 0.30136 0.2685 0.0
O637 O 0.25175 0.26813 0.26503 0.0
O638 O 0.31108 0.33106 0.27886 0.0
O639 O 0.29546 0.32562 0.25114 0.0
O640 O 0.29878 0.30185 0.29728 0.0
O641 O 0.28583 0.27698 0.27816 0.0
O642 O 0.30201 0.2594 0.2523 0.0
O643 O 0.31676 0.29225 0.25989 0.0
O644 O 0.26529 0.23171 0.23182 0.0
O645 O 0.26449 0.23131 0.26141 0.0
O646 O 0.25925 0.26786 0.22821 0.0
O647 O 0.28584 0.28264 0.23958 0.0
H648 H 0.304 0.36489 0.24429 0.0
H649 H 0.28714 0.38887 0.24844 0.0
H650 H 0.27412 0.37276 0.30052 0.0
H651 H 0.29061 0.34843 0.29618 0.0
H652 H 0.2978 0.22757 0.26277 0.0
H653 H 0.31715 0.20618 0.25919 0.0
H654 H 0.2745 0.16345 0.2214 0.0
H655 H 0.25531 0.18534 0.22428 0.0
Ho656 Ho 0.54038 0.55341 0.02134 0.0
Ho657 Ho 0.54024 0.50986 0.00207 0.0
C658 C 0.52653 0.53751 0.9759 0.0
C659 C 0.54828 0.59012 0.03191 0.0
C660 C 0.54822 0.60557 0.02131 0.0
C661 C 0.56097 0.61036 0.00935 0.0
C662 C 0.55967 0.6236 0.99802 0.0
C663 C 0.54569 0.63233 0.99852 0.0
C664 C 0.533 0.62782 0.0105 0.0
C665 C 0.53433 0.61459 0.02194 0.0
C666 C 0.50867 0.52671 0.02204 0.0
C667 C 0.55429 0.52585 0.04762 0.0
C668 C 0.53283 0.4732 0.99171 0.0
C669 C 0.53434 0.45871 0.00293 0.0
C670 C 0.53126 0.46135 0.02154 0.0
C671 C 0.5345 0.44865 0.03282 0.0
C672 C 0.54103 0.43322 0.02571 0.0
C673 C 0.54432 0.43078 0.00713 0.0
C674 C 0.54099 0.44346 0.99582 0.0
C675 C 0.57171 0.53678 1.0012 0.0
O676 O 0.5325 0.55256 0.99011 0.0
O677 O 0.52691 0.5197 0.9777 0.0
O678 O 0.53243 0.57858 0.03207 0.0
O679 O 0.56051 0.58091 0.02951 0.0
O680 O 0.51203 0.545 0.02839 0.0
O681 O 0.52274 0.52421 0.01624 0.0
O682 O 0.54937 0.51103 0.03313 0.0
O683 O 0.5528 0.54337 0.0461 0.0
O684 O 0.5482 0.48494 0.99033 0.0
O685 O 0.52056 0.48206 0.99502 0.0
O686 O 0.56859 0.51854 0.99481 0.0
O687 O 0.55761 0.53901 0.00705 0.0
H688 H 0.57189 0.60386 0.00859 0.0
H689 H 0.56959 0.62702 0.98881 0.0
H690 H 0.52225 0.63468 0.01116 0.0
H691 H 0.52435 0.61117 0.03108 0.0
H692 H 0.52649 0.47331 0.02744 0.0
H693 H 0.5316 0.45074 0.04699 0.0
H694 H 0.54956 0.41913 1.00137 0.0
H695 H 0.5439 0.44157 0.98163 0.0
Ho696 Ho 0.81144 0.30207 0.26831 0.0
Ho697 Ho 0.77713 0.2698 0.26278 0.0
C698 C 0.81377 0.25625 0.26593 0.0
C699 C 0.84239 0.32544 0.28184 0.0
C700 C 0.86068 0.32357 0.2824 0.0
C701 C 0.8704 0.32421 0.29969 0.0
C702 C 0.88678 0.31993 0.30053 0.0
C703 C 0.89375 0.3152 0.28411 0.0
C704 C 0.88444 0.3153 0.26684 0.0
C705 C 0.86789 0.31933 0.26596 0.0
C706 C 0.79728 0.2876 0.2328 0.0
C707 C 0.77457 0.31513 0.26391 0.0
C708 C 0.74601 0.24578 0.25219 0.0
C709 C 0.72869 0.24907 0.2471 0.0
C710 C 0.72739 0.2632 0.23654 0.0
C711 C 0.71123 0.26759 0.23321 0.0
C712 C 0.69627 0.25806 0.24055 0.0
C713 C 0.69755 0.24403 0.2512 0.0
C714 C 0.71372 0.23951 0.25442 0.0
C715 C 0.79158 0.28612 0.29803 0.0
O716 O 0.82222 0.2752 0.27052 0.0
O717 O 0.79606 0.25058 0.26093 0.0
O718 O 0.8339 0.32541 0.26553 0.0
O719 O 0.83239 0.31469 0.2916 0.0
O720 O 0.80671 0.30535 0.23859 0.0
O721 O 0.7979 0.27808 0.24556 0.0
O722 O 0.76656 0.29622 0.25783 0.0
O723 O 0.79193 0.32077 0.27095 0.0
O724 O 0.75281 0.25215 0.26972 0.0
O725 O 0.75776 0.24996 0.24086 0.0
O726 O 0.78419 0.26773 0.29291 0.0
O727 O 0.79013 0.29441 0.2846 0.0
H728 H 0.86507 0.32745 0.31251 0.0
H729 H 0.89399 0.32025 0.31402 0.0
H730 H 0.88973 0.31176 0.25406 0.0
H731 H 0.86061 0.31862 0.25242 0.0
H732 H 0.7389 0.27106 0.23108 0.0
H733 H 0.71044 0.27854 0.22505 0.0
H734 H 0.68601 0.23643 0.25679 0.0
H735 H 0.71464 0.22881 0.26284 0.0
Ho736 Ho 0.03736 0.54181 0.52164 0.0
Ho737 Ho 0.0301 0.53653 0.47981 0.0
C738 C 0.99729 0.52271 0.49935 0.0
C739 C 0.03485 0.54527 0.55631 0.0
C740 C 0.02169 0.53246 0.56502 0.0
C741 C 0.00591 0.53714 0.56869 0.0
C742 C 0.9928 0.52459 0.57577 0.0
C743 C 0.99501 0.50682 0.57901 0.0
C744 C 0.0105 0.50178 0.5746 0.0
C745 C 0.0238 0.51455 0.56785 0.0
C746 C 0.04178 0.50911 0.50243 0.0
C747 C 0.07014 0.55804 0.50353 0.0
C748 C 0.03242 0.53138 0.44503 0.0
C749 C 0.04401 0.5445 0.43535 0.0
C750 C 0.05453 0.53738 0.42324 0.0
C751 C 0.06673 0.55002 0.4152 0.0
C752 C 0.06854 0.56987 0.41924 0.0
C753 C 0.05828 0.57712 0.43155 0.0
C754 C 0.0461 0.56449 0.43966 0.0
C755 C 0.02593 0.56922 0.4986 0.0
O756 O 0.00735 0.53393 0.5145 0.0
O757 O 0.00408 0.51776 0.48425 0.0
O758 O 0.04664 0.53775 0.54893 0.0
O759 O 0.02829 0.55537 0.54567 0.0
O760 O 0.05243 0.51947 0.5171 0.0
O761 O 0.02935 0.51648 0.49888 0.0
O762 O 0.06051 0.54737 0.48774 0.0
O763 O 0.06296 0.56157 0.51863 0.0
O764 O 0.01958 0.53747 0.45184 0.0
O765 O 0.04094 0.52378 0.45667 0.0
O766 O 0.01556 0.55955 0.48347 0.0
O767 O 0.0381 0.56164 0.50232 0.0
H768 H 0.00365 0.55053 0.56606 0.0
H769 H 0.9813 0.52931 0.57941 0.0
H770 H 0.01256 0.48817 0.57682 0.0
H771 H 0.03567 0.51029 0.56476 0.0
H772 H 0.05343 0.52212 0.42017 0.0
H773 H 0.0747 0.54431 0.4057 0.0
H774 H 0.05954 0.59241 0.43466 0.0
H775 H 0.03845 0.57038 0.4494 0.0
Ho776 Ho 0.7726 0.78804 0.2621 0.0
Ho777 Ho 0.81033 0.78235 0.26461 0.0
C778 C 0.7946 0.7899 0.30218 0.0
C779 C 0.74087 0.79159 0.26657 0.0
C780 C 0.72756 0.79019 0.27985 0.0
C781 C 0.71822 0.77249 0.28396 0.0
C782 C 0.70439 0.77153 0.29498 0.0
C783 C 0.69952 0.78823 0.30212 0.0
C784 C 0.70924 0.80596 0.29837 0.0
C785 C 0.72301 0.8069 0.28736 0.0
C786 C 0.7995 0.8192 0.25766 0.0
C787 C 0.78544 0.77394 0.22459 0.0
C788 C 0.84435 0.78938 0.2624 0.0
C789 C 0.85701 0.78396 0.25006 0.0
C790 C 0.86369 0.79589 0.23761 0.0
C791 C 0.87688 0.79227 0.22715 0.0
C792 C 0.8838 0.77662 0.22879 0.0
C793 C 0.87714 0.76455 0.24114 0.0
C794 C 0.86385 0.76816 0.25166 0.0
C795 C 0.78603 0.74666 0.26272 0.0
O796 O 0.77876 0.78537 0.29182 0.0
O797 O 0.80964 0.7922 0.29486 0.0
O798 O 0.75561 0.80571 0.27138 0.0
O799 O 0.74366 0.77576 0.25795 0.0
O800 O 0.78378 0.81277 0.24765 0.0
O801 O 0.80033 0.80837 0.26952 0.0
O802 O 0.80182 0.77962 0.23397 0.0
O803 O 0.771 0.77324 0.23273 0.0
O804 O 0.83608 0.77692 0.27191 0.0
O805 O 0.83402 0.7991 0.25589 0.0
O806 O 0.80326 0.74987 0.26334 0.0
O807 O 0.78272 0.76278 0.2626 0.0
H808 H 0.72135 0.75932 0.2784 0.0
H809 H 0.6974 0.75766 0.29778 0.0
H810 H 0.7058 0.81909 0.30337 0.0
H811 H 0.7298 0.82072 0.28427 0.0
H812 H 0.85908 0.80844 0.23631 0.0
H813 H 0.8822 0.80217 0.21824 0.0
H814 H 0.88235 0.75245 0.24276 0.0
H815 H 0.85922 0.75882 0.26129 0.0
Ho816 Ho 0.79752 0.28536 0.75349 0.0
Ho817 Ho 0.78455 0.29435 0.79124 0.0
C818 C 0.80331 0.32901 0.77461 0.0
C819 C 0.81081 0.28653 0.72296 0.0
C820 C 0.81843 0.30252 0.71382 0.0
C821 C 0.80943 0.31641 0.71128 0.0
C822 C 0.8173 0.33188 0.70317 0.0
C823 C 0.83442 0.33388 0.69772 0.0
C824 C 0.8438 0.32055 0.70139 0.0
C825 C 0.83579 0.3049 0.70921 0.0
C826 C 0.81746 0.27956 0.7831 0.0
C827 C 0.77266 0.25137 0.76726 0.0
C828 C 0.78002 0.2974 0.82544 0.0
C829 C 0.76559 0.28707 0.83434 0.0
C830 C 0.75559 0.26819 0.82607 0.0
C831 C 0.74549 0.25647 0.83662 0.0
C832 C 0.74536 0.2637 0.8554 0.0
C833 C 0.753 0.28341 0.86265 0.0
C834 C 0.76327 0.29506 0.85216 0.0
C835 C 0.7579 0.29278 0.76326 0.0
O836 O 0.80034 0.31706 0.75848 0.0
O837 O 0.80138 0.32321 0.79042 0.0
O838 O 0.82021 0.28711 0.73884 0.0
O839 O 0.79345 0.28192 0.72342 0.0
O840 O 0.81228 0.2678 0.76726 0.0
O841 O 0.81109 0.29386 0.78289 0.0
O842 O 0.77652 0.26239 0.78397 0.0
O843 O 0.77751 0.25739 0.75203 0.0
O844 O 0.77574 0.30888 0.81493 0.0
O845 O 0.78972 0.28685 0.81793 0.0
O846 O 0.75653 0.29577 0.78079 0.0
O847 O 0.77317 0.29049 0.76188 0.0
H848 H 0.79623 0.31518 0.71527 0.0
H849 H 0.80951 0.34166 0.70032 0.0
H850 H 0.85709 0.32184 0.69763 0.0
H851 H 0.84315 0.2946 0.71163 0.0
H852 H 0.75701 0.26195 0.81213 0.0
H853 H 0.73986 0.24125 0.83089 0.0
H854 H 0.75308 0.2891 0.87721 0.0
H855 H 0.77067 0.30973 0.85855 0.0
Ho856 Ho 0.79358 0.79885 0.76737 0.0
Ho857 Ho 0.77513 0.75817 0.75108 0.0
C858 C 0.75054 0.78305 0.76484 0.0
C859 C 0.80375 0.83564 0.778 0.0
C860 C 0.79367 0.8497 0.7813 0.0
C861 C 0.77678 0.84657 0.77085 0.0
C862 C 0.76683 0.85958 0.77458 0.0
C863 C 0.77365 0.87587 0.78881 0.0
C864 C 0.79039 0.87874 0.79953 0.0
C865 C 0.80034 0.86567 0.79579 0.0
C866 C 0.79512 0.77462 0.7913 0.0
C867 C 0.8183 0.77508 0.75355 0.0
C868 C 0.76694 0.72116 0.74204 0.0
C869 C 0.77876 0.70856 0.74168 0.0
C870 C 0.7957 0.71508 0.75261 0.0
C871 C 0.80764 0.70395 0.75153 0.0
C872 C 0.80257 0.68556 0.74018 0.0
C873 C 0.78554 0.679 0.72917 0.0
C874 C 0.77378 0.69056 0.72977 0.0
C875 C 0.7743 0.78227 0.72688 0.0
O876 O 0.76447 0.79786 0.76502 0.0
O877 O 0.75154 0.76522 0.76155 0.0
O878 O 0.8022 0.82371 0.78958 0.0
O879 O 0.80236 0.82712 0.76066 0.0
O880 O 0.80839 0.78887 0.78978 0.0
O881 O 0.7815 0.77394 0.78009 0.0
O882 O 0.8046 0.75996 0.7531 0.0
O883 O 0.81681 0.79263 0.7563 0.0
O884 O 0.76893 0.73242 0.72982 0.0
O885 O 0.76605 0.73025 0.75858 0.0
O886 O 0.76084 0.76794 0.72801 0.0
O887 O 0.78762 0.78288 0.73843 0.0
H888 H 0.77134 0.83418 0.75971 0.0
H889 H 0.75411 0.85723 0.76589 0.0
H890 H 0.79584 0.8912 0.81061 0.0
H891 H 0.81324 0.86801 0.80416 0.0
H892 H 0.79973 0.72873 0.76219 0.0
H893 H 0.82075 0.70969 0.75989 0.0
H894 H 0.78109 0.66479 0.72047 0.0
H895 H 0.76077 0.68538 0.72115 0.0
Ho896 Ho 0.5236 0.52363 0.50176 0.0
Ho897 Ho 0.56044 0.54586 0.52426 0.0
C898 C 0.53811 0.56977 0.50414 0.0
C899 C 0.48969 0.51037 0.49047 0.0
C900 C 0.47525 0.51983 0.49046 0.0
C901 C 0.4713 0.52903 0.50713 0.0
C902 C 0.45948 0.54037 0.50664 0.0
C903 C 0.45155 0.54282 0.4895 0.0
C904 C 0.45525 0.53328 0.47286 0.0
C905 C 0.46689 0.52177 0.47336 0.0
C906 C 0.54905 0.52173 0.47793 0.0
C907 C 0.54538 0.49996 0.52272 0.0
C908 C 0.59456 0.55965 0.53439 0.0
C909 C 0.6091 0.55058 0.53395 0.0
C910 C 0.60567 0.53136 0.52488 0.0
C911 C 0.61899 0.52192 0.52624 0.0
C912 C 0.63588 0.53172 0.53648 0.0
C913 C 0.63938 0.55102 0.54529 0.0
C914 C 0.62596 0.56038 0.54414 0.0
C915 C 0.53533 0.54735 0.5485 0.0
O916 O 0.52399 0.55453 0.5014 0.0
O917 O 0.55412 0.56954 0.51154 0.0
O918 O 0.50142 0.51627 0.47965 0.0
O919 O 0.49714 0.50851 0.5066 0.0
O920 O 0.53213 0.51291 0.47423 0.0
O921 O 0.55172 0.53008 0.49507 0.0
O922 O 0.55963 0.51504 0.52543 0.0
O923 O 0.52944 0.50012 0.51508 0.0
O924 O 0.58335 0.55369 0.54567 0.0
O925 O 0.5865 0.56058 0.51822 0.0
O926 O 0.55237 0.55564 0.55214 0.0
O927 O 0.53228 0.53921 0.53122 0.0
H928 H 0.47759 0.52781 0.52052 0.0
H929 H 0.45654 0.54717 0.5197 0.0
H930 H 0.44945 0.53502 0.45945 0.0
H931 H 0.46989 0.51493 0.46033 0.0
H932 H 0.59265 0.52361 0.517 0.0
H933 H 0.61618 0.50709 0.51917 0.0
H934 H 0.65239 0.55874 0.55324 0.0
H935 H 0.62865 0.57512 0.55143 0.0
Ho936 Ho 0.05796 0.53619 0.01361 0.0
Ho937 Ho 0.01592 0.52993 0.01426 0.0
C938 C 0.02963 0.4929 0.00599 0.0
C939 C 0.09069 0.53398 0.01958 0.0
C940 C 0.10122 0.5197 0.01653 0.0
C941 C 0.1018 0.5067 0.02866 0.0
C942 C 0.11328 0.4948 0.02691 0.0
C943 C 0.12454 0.49558 0.01302 0.0
C944 C 0.12356 0.50817 1.00055 0.0
C945 C 0.11212 0.52011 0.00234 0.0
C946 C 0.03862 0.53644 0.98194 0.0
C947 C 0.04369 0.57327 0.02087 0.0
C948 C 0.98274 0.53079 0.01167 0.0
C949 C 0.97216 0.54497 0.01424 0.0
C950 C 0.97235 0.55863 0.0027 0.0
C951 C 0.96109 0.57077 0.00462 0.0
C952 C 0.94937 0.56953 0.0181 0.0
C953 C 0.94966 0.55625 0.02997 0.0
C954 C 0.96084 0.5441 0.02801 0.0
C955 C 0.0364 0.53052 0.04577 0.0
O956 O 0.04621 0.5042 0.01166 0.0
O957 O 0.0156 0.49967 0.00321 0.0
O958 O 0.08424 0.53955 0.00493 0.0
O959 O 0.07953 0.53186 0.03179 0.0
O960 O 0.05556 0.54547 0.98598 0.0
O961 O 0.03352 0.52595 0.99345 0.0
O962 O 0.02715 0.5618 0.01531 0.0
O963 O 0.0579 0.56668 0.02367 0.0
O964 O 0.99172 0.52851 0.02673 0.0
O965 O 0.99158 0.53026 0.99742 0.0
O966 O 0.02021 0.51924 0.04103 0.0
O967 O 0.04042 0.54099 0.03408 0.0
H968 H 0.09369 0.50599 0.03982 0.0
H969 H 0.11347 0.48511 0.0366 0.0
H970 H 0.13214 0.50935 0.98982 0.0
H971 H 0.11219 0.5301 0.99289 0.0
H972 H 0.98091 0.55968 0.99193 0.0
H973 H 0.96115 0.58069 0.99512 0.0
H974 H 0.94111 0.55509 0.04074 0.0
H975 H 0.96041 0.53374 0.03711 0.0
H976 H 0.01612 0.20091 0.91527 0.0
H977 H 0.02345 0.1743 0.92821 0.0
H978 H 0.0131 0.19827 0.98209 0.0
H979 H 0.00519 0.22433 0.96923 0.0
H980 H 0.04734 0.1854 0.97996 0.0
H981 H 0.98266 0.16544 0.96457 0.0
H982 H 0.95402 0.15878 0.94385 0.0
H983 H 0.96982 0.11767 0.90551 0.0
H984 H 0.99869 0.12431 0.92593 0.0
H985 H 0.04599 0.10585 0.02605 0.0
H986 H 0.04111 0.13428 0.01496 0.0
H987 H 0.02567 0.10111 0.95887 0.0
H988 H 0.02894 0.07251 0.97035 0.0
H989 H 0.0045 0.12016 0.9629 0.0
H990 H 0.06954 0.13939 0.97888 0.0
H991 H 0.09822 0.14657 0.99972 0.0
H992 H 0.08273 0.18914 0.03658 0.0
H993 H 0.05389 0.18208 0.01605 0.0
C994 C 0.01548 0.20049 0.92987 0.0
C995 C 0.00993 0.21456 0.9412 0.0
C996 C 0.01966 0.18534 0.93723 0.0
C997 C 0.01879 0.1844 0.95609 0.0
C998 C 0.01386 0.19879 0.96753 0.0
C999 C 0.00925 0.21358 0.96011 0.0
C1000 C 0.02231 0.16801 0.96384 0.0
C1001 C 0.03802 0.17109 0.97632 0.0
C1002 C 0.01015 0.14945 0.95899 0.0
C1003 C 0.99292 0.14559 0.94662 0.0
C1004 C 0.98012 0.15517 0.95161 0.0
C1005 C 0.96382 0.15135 0.93995 0.0
C1006 C 0.96013 0.13787 0.92333 0.0
C1007 C 0.97272 0.12815 0.91836 0.0
C1008 C 0.98905 0.13193 0.92997 0.0
C1009 C 0.04156 0.10478 0.01138 0.0
C1010 C 0.03773 0.0871 0.99902 0.0
C1011 C 0.03895 0.12107 0.00496 0.0
C1012 C 0.0333 0.12011 0.98592 0.0
C1013 C 0.02992 0.10238 0.97361 0.0
C1014 C 0.03184 0.08602 0.98014 0.0
C1015 C 0.03005 0.1371 0.9787 0.0
C1016 C 0.01415 0.13428 0.96643 0.0
C1017 C 0.04217 0.15587 0.98369 0.0
C1018 C 0.0595 0.16008 0.99601 0.0
C1019 C 0.07221 0.1502 0.99148 0.0
C1020 C 0.0885 0.15426 0.00323 0.0
C1021 C 0.09228 0.16827 0.01948 0.0
C1022 C 0.07979 0.17828 0.024 0.0
C1023 C 0.06348 0.17427 0.01231 0.0
H1024 H 0.10489 0.17138 0.02856 0.0
H1025 H 0.94749 0.13492 0.91434 0.0
H1026 H 0.14661 0.83187 0.14524 0.0
H1027 H 0.17007 0.82643 0.16638 0.0
H1028 H 0.13013 0.78595 0.18777 0.0
H1029 H 0.10636 0.79179 0.16679 0.0
H1030 H 0.1555 0.80634 0.2152 0.0
H1031 H 0.15617 0.77135 0.15456 0.0
H1032 H 0.15744 0.76676 0.12079 0.0
H1033 H 0.20923 0.8082 0.13063 0.0
H1034 H 0.20816 0.81324 0.16445 0.0
H1035 H 0.21916 0.76972 0.26162 0.0
H1036 H 0.19421 0.7719 0.23989 0.0
H1037 H 0.23153 0.81061 0.21399 0.0
H1038 H 0.25653 0.80768 0.23529 0.0
H1039 H 0.20648 0.78924 0.18829 0.0
H1040 H 0.20492 0.82556 0.24874 0.0
H1041 H 0.20349 0.83027 0.2825 0.0
H1042 H 0.15319 0.78633 0.27279 0.0
H1043 H 0.15444 0.78122 0.23899 0.0
C1044 C 0.14273 0.82202 0.15465 0.0
C1045 C 0.12456 0.81223 0.15427 0.0
C1046 C 0.15624 0.81875 0.16662 0.0
C1047 C 0.15203 0.80531 0.17834 0.0
C1048 C 0.13381 0.79625 0.17875 0.0
C1049 C 0.12019 0.79969 0.16684 0.0
C1050 C 0.16669 0.80074 0.18998 0.0
C1051 C 0.16649 0.8023 0.20923 0.0
C1052 C 0.18133 0.79583 0.18238 0.0
C1053 C 0.18201 0.79279 0.16204 0.0
C1054 C 0.16777 0.77958 0.14951 0.0
C1055 C 0.16847 0.77689 0.13036 0.0
C1056 C 0.18339 0.78721 0.12356 0.0
C1057 C 0.19767 0.80023 0.13591 0.0
C1058 C 0.19704 0.803 0.15508 0.0
C1059 C 0.22202 0.77839 0.25103 0.0
C1060 C 0.23979 0.78825 0.24992 0.0
C1061 C 0.20773 0.77984 0.23872 0.0
C1062 C 0.21078 0.79185 0.22548 0.0
C1063 C 0.22867 0.80125 0.22401 0.0
C1064 C 0.24302 0.79944 0.23608 0.0
C1065 C 0.19542 0.79505 0.21359 0.0
C1066 C 0.19547 0.79322 0.19426 0.0
C1067 C 0.18064 0.79973 0.22111 0.0
C1068 C 0.17986 0.80289 0.24139 0.0
C1069 C 0.19362 0.81684 0.25383 0.0
C1070 C 0.19283 0.81958 0.27296 0.0
C1071 C 0.17828 0.80857 0.27979 0.0
C1072 C 0.16446 0.79483 0.26749 0.0
C1073 C 0.16519 0.79202 0.24835 0.0
H1074 H 0.1777 0.81072 0.29461 0.0
H1075 H 0.1839 0.7851 0.10873 0.0
H1076 H 0.48663 0.81303 0.45774 0.0
H1077 H 0.49372 0.84748 0.46963 0.0
H1078 H 0.54527 0.85598 0.45063 0.0
H1079 H 0.53804 0.8212 0.43798 0.0
H1080 H 0.5403 0.87548 0.49213 0.0
H1081 H 0.52538 0.87005 0.42596 0.0
H1082 H 0.50744 0.85573 0.39508 0.0
H1083 H 0.4611 0.86827 0.41526 0.0
H1084 H 0.47871 0.88234 0.44641 0.0
H1085 H 0.55828 0.97654 0.50544 0.0
H1086 H 0.55572 0.94295 0.49378 0.0
H1087 H 0.49796 0.92996 0.48693 0.0
H1088 H 0.5004 0.96407 0.49791 0.0
H1089 H 0.50823 0.91276 0.45744 0.0
H1090 H 0.52305 0.91789 0.52374 0.0
H1091 H 0.54105 0.93272 0.55455 0.0
H1092 H 0.58772 0.92121 0.53422 0.0
H1093 H 0.57002 0.90647 0.50324 0.0
C1094 C 0.4996 0.82211 0.45626 0.0
C1095 C 0.51181 0.8144 0.44693 0.0
C1096 C 0.50357 0.8418 0.46301 0.0
C1097 C 0.51993 0.85413 0.46089 0.0
C1098 C 0.53255 0.84654 0.45231 0.0
C1099 C 0.52841 0.82676 0.44513 0.0
C1100 C 0.5232 0.87502 0.46713 0.0
C1101 C 0.53362 0.88381 0.48443 0.0
C1102 C 0.51401 0.88554 0.45724 0.0
C1103 C 0.50331 0.87699 0.43859 0.0
C1104 C 0.5113 0.86951 0.42389 0.0
C1105 C 0.50121 0.8615 0.40632 0.0
C1106 C 0.48312 0.86102 0.40322 0.0
C1107 C 0.4751 0.8686 0.41769 0.0
C1108 C 0.48514 0.8766 0.43531 0.0
C1109 C 0.54497 0.96659 0.50166 0.0
C1110 C 0.5295 0.97299 0.50274 0.0
C1111 C 0.54356 0.94731 0.49503 0.0
C1112 C 0.52667 0.93386 0.48979 0.0
C1113 C 0.51115 0.94011 0.49097 0.0
C1114 C 0.51255 0.95956 0.49735 0.0
C1115 C 0.5253 0.91338 0.48261 0.0
C1116 C 0.51509 0.90458 0.46515 0.0
C1117 C 0.53471 0.90286 0.49238 0.0
C1118 C 0.54523 0.91117 0.51116 0.0
C1119 C 0.53716 0.91856 0.52584 0.0
C1120 C 0.54731 0.92695 0.54333 0.0
C1121 C 0.56552 0.92792 0.54633 0.0
C1122 C 0.57361 0.92043 0.53188 0.0
C1123 C 0.56351 0.91202 0.51437 0.0
H1124 H 0.57337 0.93447 0.55986 0.0
H1125 H 0.47533 0.85484 0.3896 0.0
H1126 H 0.50477 0.31158 0.62236 0.0
H1127 H 0.47862 0.30451 0.63856 0.0
H1128 H 0.50524 0.27578 0.67435 0.0
H1129 H 0.53178 0.28311 0.65832 0.0
H1130 H 0.46718 0.2555 0.65935 0.0
H1131 H 0.50427 0.31653 0.69307 0.0
H1132 H 0.52306 0.34999 0.69685 0.0
H1133 H 0.47837 0.36616 0.67201 0.0
H1134 H 0.45938 0.33268 0.6678 0.0
H1135 H 0.40774 0.25749 0.72867 0.0
H1136 H 0.43304 0.25872 0.71129 0.0
H1137 H 0.41451 0.29546 0.67825 0.0
H1138 H 0.38893 0.29396 0.69525 0.0
H1139 H 0.44942 0.3105 0.69284 0.0
H1140 H 0.412 0.24934 0.65955 0.0
H1141 H 0.39335 0.21577 0.65542 0.0
H1142 H 0.43831 0.19947 0.67943 0.0
H1143 H 0.45718 0.23303 0.68398 0.0
C1144 C 0.50513 0.30375 0.63367 0.0
C1145 C 0.52045 0.29803 0.63912 0.0
C1146 C 0.49012 0.29969 0.6429 0.0
C1147 C 0.48995 0.28962 0.65766 0.0
C1148 C 0.50506 0.28352 0.66295 0.0
C1149 C 0.52026 0.28786 0.65389 0.0
C1150 C 0.47421 0.28631 0.66793 0.0
C1151 C 0.46341 0.26747 0.66695 0.0
C1152 C 0.4691 0.30194 0.6775 0.0
C1153 C 0.48047 0.32206 0.67994 0.0
C1154 C 0.4985 0.32718 0.68824 0.0
C1155 C 0.50918 0.34615 0.6905 0.0
C1156 C 0.50193 0.36018 0.68463 0.0
C1157 C 0.48397 0.35527 0.67652 0.0
C1158 C 0.47324 0.3363 0.67421 0.0
C1159 C 0.40877 0.2655 0.71744 0.0
C1160 C 0.39625 0.27574 0.7135 0.0
C1161 C 0.42332 0.26621 0.70752 0.0
C1162 C 0.42572 0.27718 0.69343 0.0
C1163 C 0.41302 0.28698 0.68913 0.0
C1164 C 0.39843 0.2862 0.69896 0.0
C1165 C 0.44212 0.27966 0.68413 0.0
C1166 C 0.45312 0.29844 0.68532 0.0
C1167 C 0.44735 0.26392 0.67481 0.0
C1168 C 0.43596 0.24377 0.67232 0.0
C1169 C 0.41787 0.23865 0.66415 0.0
C1170 C 0.40727 0.21961 0.66169 0.0
C1171 C 0.41463 0.20551 0.66721 0.0
C1172 C 0.43262 0.21042 0.67519 0.0
C1173 C 0.44327 0.22945 0.67771 0.0
H1174 H 0.40641 0.19077 0.66526 0.0
H1175 H 0.51021 0.37488 0.6864 0.0
H1176 H 0.97827 0.78871 0.59108 0.0
H1177 H 0.99211 0.81637 0.57763 0.0
H1178 H 0.03838 0.83151 0.62013 0.0
H1179 H 0.02442 0.80415 0.63399 0.0
H1180 H 0.02959 0.86274 0.61469 0.0
H1181 H 0.04133 0.81116 0.57626 0.0
H1182 H 0.03556 0.77877 0.55715 0.0
H1183 H 0.99796 0.79161 0.51784 0.0
H1184 H 0.00326 0.82397 0.53687 0.0
H1185 H 0.0613 0.93205 0.55501 0.0
H1186 H 0.06119 0.90632 0.57293 0.0
H1187 H 0.00641 0.8775 0.54811 0.0
H1188 H 0.00651 0.9028 0.53014 0.0
H1189 H 0.02989 0.85372 0.54636 0.0
H1190 H 0.01424 0.90241 0.5923 0.0
H1191 H 0.02147 0.93458 0.6122 0.0
H1192 H 0.07094 0.92717 0.63671 0.0
H1193 H 0.06377 0.89471 0.61716 0.0
C1194 C 0.99135 0.79794 0.5976 0.0
C1195 C 1.00027 0.79421 0.61352 0.0
C1196 C 0.99931 0.81366 0.58983 0.0
C1197 C 0.01644 0.82572 0.59767 0.0
C1198 C 0.02522 0.82229 0.61381 0.0
C1199 C 0.0172 0.80665 0.62168 0.0
C1200 C 0.02487 0.84206 0.58902 0.0
C1201 C 0.03006 0.86073 0.59982 0.0
C1202 C 0.02587 0.83943 0.56971 0.0
C1203 C 0.02265 0.82 0.55807 0.0
C1204 C 0.03174 0.80704 0.56361 0.0
C1205 C 0.02856 0.78868 0.55278 0.0
C1206 C 0.01639 0.78313 0.5363 0.0
C1207 C 0.00739 0.79594 0.5306 0.0
C1208 C 0.0105 0.81431 0.5414 0.0
C1209 C 0.04927 0.92018 0.55345 0.0
C1210 C 0.03388 0.91935 0.54126 0.0
C1211 C 0.04922 0.90562 0.56369 0.0
C1212 C 0.03381 0.89009 0.56172 0.0
C1213 C 0.01844 0.88938 0.54971 0.0
C1214 C 0.01845 0.9039 0.5396 0.0
C1215 C 0.03333 0.87419 0.57183 0.0
C1216 C 0.02986 0.8556 0.56131 0.0
C1217 C 0.03434 0.8769 0.59139 0.0
C1218 C 0.03857 0.89629 0.60317 0.0
C1219 C 0.02669 0.9077 0.60188 0.0
C1220 C 0.03078 0.92598 0.61311 0.0
C1221 C 0.04677 0.93305 0.62557 0.0
C1222 C 0.0586 0.92173 0.627 0.0
C1223 C 0.05449 0.90335 0.61592 0.0
H1224 H 0.04993 0.94726 0.63417 0.0
H1225 H 0.01394 0.7689 0.52794 0.0
H1226 H 0.54911 0.79484 0.84172 0.0
H1227 H 0.521 0.78838 0.82067 0.0
H1228 H 0.51901 0.8466 0.83961 0.0
H1229 H 0.54671 0.85283 0.86102 0.0
H1230 H 0.49114 0.81964 0.8474 0.0
H1231 H 0.5229 0.83029 0.79455 0.0
H1232 H 0.54386 0.82391 0.77294 0.0
H1233 H 0.51226 0.76492 0.75669 0.0
H1234 H 0.49124 0.7709 0.77841 0.0
H1235 H 0.42541 0.84215 0.79447 0.0
H1236 H 0.45494 0.83805 0.80317 0.0
H1237 H 0.43253 0.77635 0.79207 0.0
H1238 H 0.40268 0.78028 0.78304 0.0
H1239 H 0.47042 0.79661 0.77961 0.0
H1240 H 0.43727 0.78686 0.83084 0.0
H1241 H 0.41661 0.79349 0.8527 0.0
H1242 H 0.45132 0.85071 0.87255 0.0
H1243 H 0.47202 0.84454 0.85054 0.0
C1244 C 0.54303 0.80646 0.84077 0.0
C1245 C 0.54975 0.82425 0.85306 0.0
C1246 C 0.527 0.80274 0.82879 0.0
C1247 C 0.51792 0.81696 0.82887 0.0
C1248 C 0.52582 0.83543 0.83956 0.0
C1249 C 0.54161 0.83901 0.85169 0.0
C1250 C 0.49902 0.81192 0.82054 0.0
C1251 C 0.48663 0.81468 0.83256 0.0
C1252 C 0.4931 0.80448 0.80138 0.0
C1253 C 0.50563 0.80099 0.78823 0.0
C1254 C 0.52051 0.81592 0.78648 0.0
C1255 C 0.53238 0.81239 0.77419 0.0
C1256 C 0.52943 0.79401 0.76349 0.0
C1257 C 0.51455 0.77914 0.76501 0.0
C1258 C 0.50265 0.7826 0.77728 0.0
C1259 C 0.42681 0.82769 0.79335 0.0
C1260 C 0.41184 0.81152 0.78813 0.0
C1261 C 0.44362 0.82539 0.79839 0.0
C1262 C 0.44567 0.80694 0.79826 0.0
C1263 C 0.43101 0.79065 0.79213 0.0
C1264 C 0.41407 0.79294 0.78716 0.0
C1265 C 0.46293 0.80529 0.80638 0.0
C1266 C 0.47495 0.80117 0.79447 0.0
C1267 C 0.4686 0.81143 0.82571 0.0
C1268 C 0.4561 0.81528 0.83888 0.0
C1269 C 0.44039 0.80094 0.83969 0.0
C1270 C 0.42869 0.8046 0.85215 0.0
C1271 C 0.43262 0.82253 0.86397 0.0
C1272 C 0.44827 0.83683 0.86337 0.0
C1273 C 0.46 0.83325 0.8509 0.0
H1274 H 0.42357 0.82532 0.87363 0.0
H1275 H 0.53864 0.7913 0.75399 0.0
H1276 H 0.51851 0.21632 0.11632 0.0
H1277 H 0.52667 0.19087 0.09665 0.0
H1278 H 0.47111 0.16622 0.07201 0.0
H1279 H 0.46277 0.19081 0.09321 0.0
H1280 H 0.48344 0.14056 0.08376 0.0
H1281 H 0.50882 0.19065 0.04864 0.0
H1282 H 0.52883 0.22233 0.04684 0.0
H1283 H 0.57432 0.20599 0.06948 0.0
H1284 H 0.55457 0.17431 0.07157 0.0
H1285 H 0.48833 0.07516 0.00525 0.0
H1286 H 0.4848 0.10126 0.02849 0.0
H1287 H 0.54051 0.11416 0.05203 0.0
H1288 H 0.54414 0.08814 0.02873 0.0
H1289 H 0.53191 0.14556 0.04435 0.0
H1290 H 0.51016 0.09703 0.07819 0.0
H1291 H 0.4929 0.0672 0.08692 0.0
H1292 H 0.44372 0.0808 0.07162 0.0
H1293 H 0.46067 0.11064 0.06266 0.0
C1294 C 0.50817 0.20579 0.10623 0.0
C1295 C 0.49009 0.20542 0.10593 0.0
C1296 C 0.51284 0.1913 0.09495 0.0
C1297 C 0.49954 0.17679 0.08264 0.0
C1298 C 0.48157 0.17731 0.08143 0.0
C1299 C 0.47681 0.19137 0.09331 0.0
C1300 C 0.50391 0.15985 0.07271 0.0
C1301 C 0.49376 0.14164 0.07477 0.0
C1302 C 0.51834 0.16136 0.06225 0.0
C1303 C 0.53021 0.18016 0.06032 0.0
C1304 C 0.52309 0.19384 0.05324 0.0
C1305 C 0.53438 0.21179 0.05218 0.0
C1306 C 0.55282 0.21617 0.05806 0.0
C1307 C 0.56003 0.20257 0.06492 0.0
C1308 C 0.54881 0.18461 0.066 0.0
C1309 C 0.49976 0.08352 0.01546 0.0
C1310 C 0.51651 0.0799 0.0152 0.0
C1311 C 0.4977 0.09823 0.02881 0.0
C1312 C 0.51239 0.10943 0.04198 0.0
C1313 C 0.52906 0.10556 0.04196 0.0
C1314 C 0.5311 0.0908 0.02867 0.0
C1315 C 0.51062 0.12634 0.05447 0.0
C1316 C 0.52146 0.14451 0.05317 0.0
C1317 C 0.49705 0.12483 0.06594 0.0
C1318 C 0.4867 0.10607 0.0697 0.0
C1319 C 0.49566 0.09354 0.07643 0.0
C1320 C 0.48593 0.07671 0.08157 0.0
C1321 C 0.46724 0.07226 0.08004 0.0
C1322 C 0.45821 0.08437 0.07297 0.0
C1323 C 0.46786 0.10125 0.06787 0.0
H1324 H 0.45975 0.05934 0.08424 0.0
H1325 H 0.56153 0.2301 0.05729 0.0
H1326 H 0.10322 0.30406 0.32389 0.0
H1327 H 0.12684 0.2987 0.30597 0.0
H1328 H 0.16625 0.32256 0.35512 0.0
H1329 H 0.1427 0.32781 0.3733 0.0
H1330 H 0.17533 0.33657 0.32157 0.0
H1331 H 0.15355 0.27713 0.34403 0.0
H1332 H 0.13058 0.24839 0.34812 0.0
H1333 H 0.11771 0.22984 0.28877 0.0
H1334 H 0.14045 0.25864 0.28433 0.0
H1335 H 0.25137 0.30983 0.30087 0.0
H1336 H 0.22533 0.31485 0.31455 0.0
H1337 H 0.19022 0.27638 0.26696 0.0
H1338 H 0.21648 0.27008 0.25405 0.0
H1339 H 0.17687 0.27006 0.29644 0.0
H1340 H 0.20025 0.32819 0.27356 0.0
H1341 H 0.22446 0.35602 0.26966 0.0
H1342 H 0.23432 0.37681 0.32877 0.0
H1343 H 0.21034 0.34903 0.33307 0.0
C1344 C 0.11692 0.30831 0.33088 0.0
C1345 C 0.12113 0.31633 0.35001 0.0
C1346 C 0.13034 0.30515 0.32063 0.0
C1347 C 0.14813 0.31014 0.32933 0.0
C1348 C 0.15251 0.31864 0.34827 0.0
C1349 C 0.13907 0.32159 0.35859 0.0
C1350 C 0.16224 0.30632 0.31873 0.0
C1351 C 0.17576 0.32206 0.3161 0.0
C1352 C 0.16233 0.28737 0.31119 0.0
C1353 C 0.1485 0.27019 0.31385 0.0
C1354 C 0.14566 0.26705 0.33185 0.0
C1355 C 0.13273 0.25072 0.33423 0.0
C1356 C 0.12264 0.23734 0.31871 0.0
C1357 C 0.1255 0.24024 0.30078 0.0
C1358 C 0.13841 0.25657 0.29832 0.0
C1359 C 0.23806 0.30261 0.29333 0.0
C1360 C 0.2357 0.28992 0.27636 0.0
C1361 C 0.22322 0.30553 0.30105 0.0
C1362 C 0.20586 0.29653 0.29144 0.0
C1363 C 0.20352 0.28364 0.27448 0.0
C1364 C 0.21841 0.28014 0.26709 0.0
C1365 C 0.19022 0.30034 0.29943 0.0
C1366 C 0.17633 0.28461 0.30154 0.0
C1367 C 0.18967 0.31933 0.30631 0.0
C1368 C 0.20352 0.33651 0.30363 0.0
C1369 C 0.2076 0.33869 0.28572 0.0
C1370 C 0.22132 0.3544 0.28345 0.0
C1371 C 0.23094 0.36808 0.29898 0.0
C1372 C 0.22686 0.36615 0.31678 0.0
C1373 C 0.21317 0.35047 0.31914 0.0
H1374 H 0.24141 0.3803 0.29725 0.0
H1375 H 0.11265 0.22469 0.32059 0.0
H1376 H 0.93413 0.06262 0.18738 0.0
H1377 H 0.94663 0.06193 0.15766 0.0
H1378 H 0.99329 0.0498 0.1837 0.0
H1379 H 0.98107 0.0506 0.21295 0.0
H1380 H 0.00531 0.07217 0.16193 0.0
H1381 H 0.95585 0.01484 0.1506 0.0
H1382 H 0.92422 0.99611 0.14809 0.0
H1383 H 0.90917 0.02649 0.10649 0.0
H1384 H 0.94071 0.04557 0.10892 0.0
H1385 H 0.04496 0.04114 0.08453 0.0
H1386 H 0.02913 0.04303 0.11135 0.0
H1387 H 0.98448 0.05113 0.07735 0.0
H1388 H 1.00033 0.04827 0.04984 0.0
H1389 H 0.97025 0.0332 0.10222 0.0
H1390 H 0.02023 0.08971 0.11274 0.0
H1391 H 0.05189 0.10857 0.11568 0.0
H1392 H 0.06604 0.08028 0.15949 0.0
H1393 H 0.0345 0.06109 0.15666 0.0
C1394 C 0.94718 0.06011 0.18692 0.0
C1395 C 0.9564 0.05679 0.20314 0.0
C1396 C 0.95435 0.05943 0.16962 0.0
C1397 C 0.97113 0.05549 0.16769 0.0
C1398 C 0.98045 0.05284 0.18411 0.0
C1399 C 0.97328 0.05332 0.20115 0.0
C1400 C 0.97922 0.05406 0.14911 0.0
C1401 C 0.99752 0.06342 0.14901 0.0
C1402 C 0.96951 0.04318 0.13157 0.0
C1403 C 0.95058 0.03178 0.1301 0.0
C1404 C 0.94577 0.01763 0.14102 0.0
C1405 C 0.92786 0.00693 0.1396 0.0
C1406 C 0.91468 0.01015 0.12719 0.0
C1407 C 0.91939 0.02404 0.11613 0.0
C1408 C 0.93728 0.03479 0.11752 0.0
C1409 C 0.03164 0.04307 0.08249 0.0
C1410 C 0.02414 0.04432 0.06452 0.0
C1411 C 0.02254 0.04452 0.09822 0.0
C1412 C 0.00551 0.04804 0.09728 0.0
C1413 C 0.99758 0.04864 0.07912 0.0
C1414 C 0.00667 0.04683 0.06311 0.0
C1415 C 0.99644 0.05111 0.11511 0.0
C1416 C 0.97802 0.04204 0.11511 0.0
C1417 C 0.00605 0.06232 0.13264 0.0
C1418 C 0.02502 0.07385 0.13436 0.0
C1419 C 0.03011 0.08743 0.12292 0.0
C1420 C 0.04803 0.09819 0.12458 0.0
C1421 C 0.06097 0.09559 0.13773 0.0
C1422 C 0.05601 0.08227 0.14929 0.0
C1423 C 0.03811 0.07146 0.14768 0.0
H1424 H 0.07484 0.10393 0.13899 0.0
H1425 H 0.90082 1.00185 0.1261 0.0
H1426 H 0.25317 0.68699 0.48988 0.0
H1427 H 0.24167 0.69429 0.46073 0.0
H1428 H 0.28251 0.67517 0.434 0.0
H1429 H 0.29412 0.66758 0.46331 0.0
H1430 H 0.28 0.71077 0.42889 0.0
H1431 H 0.24048 0.64773 0.42397 0.0
H1432 H 0.21909 0.62192 0.43473 0.0
H1433 H 0.18186 0.65601 0.43865 0.0
H1434 H 0.20315 0.6822 0.42824 0.0
H1435 H 0.2507 0.71842 0.34105 0.0
H1436 H 0.2477 0.69625 0.3629 0.0
H1437 H 0.22539 0.73345 0.39906 0.0
H1438 H 0.22874 0.75591 0.37736 0.0
H1439 H 0.21695 0.68513 0.39734 0.0
H1440 H 0.26034 0.75048 0.41425 0.0
H1441 H 0.28341 0.77854 0.40891 0.0
H1442 H 0.3133 0.74113 0.38572 0.0
H1443 H 0.29027 0.71284 0.39082 0.0
C1444 C 0.25973 0.68431 0.47782 0.0
C1445 C 0.27449 0.67666 0.47877 0.0
C1446 C 0.253 0.68828 0.46116 0.0
C1447 C 0.26096 0.68471 0.44523 0.0
C1448 C 0.27606 0.67765 0.4462 0.0
C1449 C 0.28279 0.67357 0.46292 0.0
C1450 C 0.25448 0.69017 0.42805 0.0
C1451 C 0.26633 0.70484 0.42177 0.0
C1452 C 0.23642 0.68283 0.4193 0.0
C1453 C 0.22349 0.66701 0.42542 0.0
C1454 C 0.22779 0.64981 0.42726 0.0
C1455 C 0.21567 0.63509 0.43329 0.0
C1456 C 0.19914 0.63733 0.4374 0.0
C1457 C 0.19467 0.65429 0.43546 0.0
C1458 C 0.20676 0.66908 0.42948 0.0
C1459 C 0.24408 0.72119 0.35308 0.0
C1460 C 0.2401 0.7388 0.3578 0.0
C1461 C 0.24239 0.70857 0.36552 0.0
C1462 C 0.23657 0.71349 0.38256 0.0
C1463 C 0.22982 0.7295 0.38585 0.0
C1464 C 0.23167 0.74226 0.37346 0.0
C1465 C 0.24254 0.70567 0.3984 0.0
C1466 C 0.23066 0.69071 0.40438 0.0
C1467 C 0.26052 0.7129 0.40725 0.0
C1468 C 0.27341 0.72957 0.40249 0.0
C1469 C 0.27165 0.74823 0.40766 0.0
C1470 C 0.28481 0.76418 0.40487 0.0
C1471 C 0.29983 0.76162 0.39701 0.0
C1472 C 0.30165 0.74309 0.39179 0.0
C1473 C 0.28853 0.7271 0.39459 0.0
H1474 H 0.31002 0.77398 0.39487 0.0
H1475 H 0.18977 0.62591 0.44205 0.0
H1476 H 0.58775 0.00834 0.69781 0.0
H1477 H 0.57962 0.00886 0.66486 0.0
H1478 H 0.63565 0.02647 0.65861 0.0
H1479 H 0.64385 0.0254 0.69141 0.0
H1480 H 0.61205 0.05092 0.64807 0.0
H1481 H 0.61741 0.98665 0.63576 0.0
H1482 H 0.61304 0.95429 0.64336 0.0
H1483 H 0.55589 0.94451 0.63384 0.0
H1484 H 0.55993 0.97695 0.62645 0.0
H1485 H 0.57155 0.05341 0.55772 0.0
H1486 H 0.59221 0.04865 0.58253 0.0
H1487 H 0.54798 0.00908 0.59965 0.0
H1488 H 0.52781 0.01206 0.57345 0.0
H1489 H 0.57436 0.99519 0.60097 0.0
H1490 H 0.56774 0.05952 0.62079 0.0
H1491 H 0.57007 0.09326 0.61842 0.0
H1492 H 0.62681 0.10425 0.61766 0.0
H1493 H 0.62474 0.07043 0.61972 0.0
C1494 C 0.59821 0.01169 0.68919 0.0
C1495 C 0.61623 0.01643 0.69681 0.0
C1496 C 0.59366 0.01211 0.67055 0.0
C1497 C 0.60712 0.01767 0.65957 0.0
C1498 C 0.6252 0.02202 0.667 0.0
C1499 C 0.62977 0.02118 0.68557 0.0
C1500 C 0.60192 0.02005 0.64066 0.0
C1501 C 0.60424 0.0388 0.63742 0.0
C1502 C 0.59155 0.00415 0.62724 0.0
C1503 C 0.58898 0.98419 0.63049 0.0
C1504 C 0.60391 0.97757 0.63525 0.0
C1505 C 0.60149 0.95924 0.63956 0.0
C1506 C 0.5842 0.94734 0.63907 0.0
C1507 C 0.56928 0.95372 0.63416 0.0
C1508 C 0.57162 0.97207 0.62985 0.0
C1509 C 0.56639 0.04341 0.5666 0.0
C1510 C 0.54832 0.03267 0.56351 0.0
C1511 C 0.57812 0.04092 0.58089 0.0
C1512 C 0.57161 0.02858 0.59297 0.0
C1513 C 0.55332 0.01848 0.59031 0.0
C1514 C 0.54178 0.02034 0.57553 0.0
C1515 C 0.58358 0.02622 0.60863 0.0
C1516 C 0.58264 0.00741 0.6112 0.0
C1517 C 0.59488 0.04217 0.62165 0.0
C1518 C 0.59605 0.06242 0.6202 0.0
C1519 C 0.58068 0.0691 0.61995 0.0
C1520 C 0.58196 0.08824 0.61868 0.0
C1521 C 0.59859 0.1009 0.61789 0.0
C1522 C 0.61394 0.09442 0.61826 0.0
C1523 C 0.61272 0.07527 0.61947 0.0
H1524 H 0.59962 0.11577 0.61713 0.0
H1525 H 0.58236 0.93318 0.6425 0.0
H1526 H 0.29337 0.37457 0.9701 0.0
H1527 H 0.29365 0.36461 0.93698 0.0
H1528 H 0.27404 0.30499 0.94194 0.0
H1529 H 0.2754 0.31505 0.97557 0.0
H1530 H 0.29913 0.30667 0.92411 0.0
H1531 H 0.24894 0.33203 0.91623 0.0
H1532 H 0.23141 0.35559 0.92072 0.0
H1533 H 0.27044 0.39595 0.89866 0.0
H1534 H 0.28832 0.37271 0.89425 0.0
H1535 H 0.27536 0.27484 0.8244 0.0
H1536 H 0.2742 0.28447 0.85761 0.0
H1537 H 0.31773 0.33552 0.86031 0.0
H1538 H 0.31935 0.32553 0.82702 0.0
H1539 H 0.28077 0.33802 0.8733 0.0
H1540 H 0.33007 0.3093 0.88125 0.0
H1541 H 0.34423 0.28292 0.87509 0.0
H1542 H 0.30148 0.24516 0.89525 0.0
H1543 H 0.28692 0.27126 0.90128 0.0
C1544 C 0.28859 0.35936 0.96399 0.0
C1545 C 0.28424 0.34555 0.9753 0.0
C1546 C 0.2887 0.35364 0.94498 0.0
C1547 C 0.28369 0.33399 0.93673 0.0
C1548 C 0.2781 0.32023 0.9479 0.0
C1549 C 0.27866 0.32595 0.96707 0.0
C1550 C 0.28601 0.32779 0.91702 0.0
C1551 C 0.29478 0.31338 0.91304 0.0
C1552 C 0.28075 0.33668 0.90242 0.0
C1553 C 0.27004 0.35069 0.90506 0.0
C1554 C 0.25384 0.34598 0.91246 0.0
C1555 C 0.24384 0.35927 0.91497 0.0
C1556 C 0.24983 0.37727 0.91002 0.0
C1557 C 0.26582 0.382 0.90251 0.0
C1558 C 0.27589 0.36877 0.89997 0.0
C1559 C 0.28487 0.28795 0.83218 0.0
C1560 C 0.29746 0.29949 0.82331 0.0
C1561 C 0.28419 0.29341 0.85107 0.0
C1562 C 0.29584 0.31068 0.86127 0.0
C1563 C 0.30867 0.32211 0.85256 0.0
C1564 C 0.30966 0.31638 0.83368 0.0
C1565 C 0.29377 0.31714 0.88076 0.0
C1566 C 0.28502 0.33147 0.88457 0.0
C1567 C 0.29853 0.30782 0.89506 0.0
C1568 C 0.30733 0.29217 0.89155 0.0
C1569 C 0.3236 0.29532 0.8842 0.0
C1570 C 0.33172 0.28043 0.88078 0.0
C1571 C 0.32374 0.26236 0.88474 0.0
C1572 C 0.30764 0.25916 0.89218 0.0
C1573 C 0.29946 0.274 0.89562 0.0
H1574 H 0.33005 0.25085 0.88208 0.0
H1575 H 0.24206 0.38754 0.91198 0.0
H1576 H 0.98689 0.06826 0.3054 0.0
H1577 H 0.99942 0.06646 0.33663 0.0
H1578 H 0.94661 0.05533 0.35277 0.0
H1579 H 0.93414 0.05813 0.32145 0.0
H1580 H 0.96816 0.07344 0.38269 0.0
H1581 H 0.97083 0.01855 0.33962 0.0
H1582 H 0.9784 1.00096 0.31146 0.0
H1583 H 0.03447 0.02831 0.33012 0.0
H1584 H 0.02722 0.04627 0.35828 0.0
H1585 H 0.99242 0.02807 0.45909 0.0
H1586 H 0.97962 0.03364 0.4291 0.0
H1587 H 0.03278 0.05997 0.41828 0.0
H1588 H 0.04553 0.05508 0.44863 0.0
H1589 H 0.01074 0.03375 0.38615 0.0
H1590 H 0.00686 0.08723 0.43078 0.0
H1591 H 0.99798 0.10264 0.45929 0.0
H1592 H 0.94247 0.07553 0.43772 0.0
H1593 H 0.95097 0.05946 0.40931 0.0
C1594 C 0.97791 0.06597 0.31569 0.0
C1595 C 0.95941 0.06371 0.31061 0.0
C1596 C 0.98512 0.06453 0.3337 0.0
C1597 C 0.97412 0.06001 0.34748 0.0
C1598 C 0.95569 0.05866 0.34275 0.0
C1599 C 0.94848 0.06047 0.3247 0.0
C1600 C 0.98182 0.05625 0.3663 0.0
C1601 C 0.97726 0.06452 0.38323 0.0
C1602 C 0.99403 0.04479 0.36777 0.0
C1603 C 0.99847 0.03389 0.35097 0.0
C1604 C 0.98477 0.02089 0.33766 0.0
C1605 C 0.989 0.01085 0.3217 0.0
C1606 C 0.0069 0.01356 0.31898 0.0
C1607 C 0.02061 0.02626 0.33224 0.0
C1608 C 0.01645 0.03636 0.34821 0.0
C1609 C 1.00142 0.03507 0.45034 0.0
C1610 C 0.0201 0.0411 0.45649 0.0
C1611 C 0.99404 0.03831 0.43308 0.0
C1612 C 0.00505 0.04734 0.42101 0.0
C1613 C 0.02377 0.053 0.42701 0.0
C1614 C 0.03112 0.05022 0.44452 0.0
C1615 C 0.99711 0.05099 0.40237 0.0
C1616 C 1.00163 0.04267 0.38551 0.0
C1617 C 0.98469 0.06213 0.40099 0.0
C1618 C 0.97956 0.07196 0.41798 0.0
C1619 C 0.99276 0.08439 0.43218 0.0
C1620 C 0.9878 0.09327 0.44831 0.0
C1621 C 0.9697 0.09007 0.4503 0.0
C1622 C 0.95649 0.07798 0.43617 0.0
C1623 C 0.96137 0.06895 0.42005 0.0
H1624 H 0.96589 0.09699 0.46279 0.0
H1625 H 0.01016 0.00579 0.30661 0.0
H1626 H 0.27486 0.66267 0.58117 0.0
H1627 H 0.27876 0.67911 0.61386 0.0
H1628 H 0.28926 0.73402 0.59624 0.0
H1629 H 0.28491 0.71763 0.56371 0.0
H1630 H 0.31278 0.7321 0.6285 0.0
H1631 H 0.24983 0.71538 0.60196 0.0
H1632 H 0.22064 0.69303 0.58708 0.0
H1633 H 0.21908 0.66321 0.63303 0.0
H1634 H 0.24848 0.68514 0.648 0.0
H1635 H 0.2996 0.79795 0.70176 0.0
H1636 H 0.29503 0.77824 0.67052 0.0
H1637 H 0.27832 0.72663 0.69327 0.0
H1638 H 0.28285 0.74611 0.72437 0.0
H1639 H 0.2583 0.72438 0.6596 0.0
H1640 H 0.31976 0.74025 0.68679 0.0
H1641 H 0.34907 0.76164 0.70255 0.0
H1642 H 0.35378 0.79137 0.65654 0.0
H1643 H 0.32433 0.77033 0.64063 0.0
C1644 C 0.27845 0.67826 0.58448 0.0
C1645 C 0.27978 0.68908 0.57028 0.0
C1646 C 0.28052 0.68756 0.60297 0.0
C1647 C 0.28417 0.70766 0.60722 0.0
C1648 C 0.28647 0.71848 0.59307 0.0
C1649 C 0.28405 0.70919 0.57463 0.0
C1650 C 0.28465 0.7176 0.62625 0.0
C1651 C 0.30089 0.73052 0.63531 0.0
C1652 C 0.26913 0.71502 0.6351 0.0
C1653 C 0.25152 0.70172 0.62596 0.0
C1654 C 0.2434 0.7039 0.60877 0.0
C1655 C 0.22678 0.69134 0.60035 0.0
C1656 C 0.21803 0.67668 0.60908 0.0
C1657 C 0.22589 0.67455 0.62626 0.0
C1658 C 0.24255 0.68702 0.63471 0.0
C1659 C 0.29464 0.78243 0.69999 0.0
C1660 C 0.29167 0.77349 0.71536 0.0
C1661 C 0.29209 0.77123 0.68224 0.0
C1662 C 0.28659 0.75106 0.6798 0.0
C1663 C 0.28258 0.74219 0.69498 0.0
C1664 C 0.28518 0.75334 0.71269 0.0
C1665 C 0.28637 0.73918 0.66169 0.0
C1666 C 0.27023 0.72585 0.65285 0.0
C1667 C 0.30202 0.74117 0.65311 0.0
C1668 C 0.31975 0.75384 0.66261 0.0
C1669 C 0.32697 0.75146 0.68011 0.0
C1670 C 0.34362 0.7635 0.68905 0.0
C1671 C 0.35326 0.77789 0.68057 0.0
C1672 C 0.34628 0.78024 0.6631 0.0
C1673 C 0.32962 0.76825 0.65411 0.0
H1674 H 0.36616 0.7872 0.68751 0.0
H1675 H 0.20516 0.66699 0.60254 0.0
H1676 H 0.62299 0.06731 0.78902 0.0
H1677 H 0.61814 0.07933 0.81999 0.0
H1678 H 0.64861 0.04443 0.84267 0.0
H1679 H 0.65378 0.03212 0.81086 0.0
H1680 H 0.61422 0.04161 0.85331 0.0
H1681 H 0.66731 0.09293 0.85236 0.0
H1682 H 0.68622 0.11681 0.83714 0.0
H1683 H 0.64408 0.14426 0.83113 0.0
H1684 H 0.62489 0.1205 0.84624 0.0
H1685 H 0.59641 0.07399 0.93713 0.0
H1686 H 0.61985 0.08081 0.91754 0.0
H1687 H 0.5841 0.0971 0.87865 0.0
H1688 H 0.56034 0.08955 0.89777 0.0
H1689 H 0.62732 0.11141 0.87978 0.0
H1690 H 0.57274 0.05751 0.86627 0.0
H1691 H 0.54854 0.0314 0.87306 0.0
H1692 H 0.5877 0.00767 0.89841 0.0
H1693 H 0.61212 0.0339 0.89201 0.0
C1694 C 0.62879 0.06223 0.80058 0.0
C1695 C 0.63888 0.04901 0.79772 0.0
C1696 C 0.62619 0.0693 0.81826 0.0
C1697 C 0.63367 0.06335 0.83354 0.0
C1698 C 0.64321 0.04949 0.83088 0.0
C1699 C 0.64591 0.04231 0.81287 0.0
C1700 C 0.62936 0.07028 0.85182 0.0
C1701 C 0.61769 0.05679 0.8596 0.0
C1702 C 0.63299 0.09024 0.85904 0.0
C1703 C 0.6447 0.10497 0.85051 0.0
C1704 C 0.66208 0.10407 0.8478 0.0
C1705 C 0.67285 0.11758 0.83919 0.0
C1706 C 0.66636 0.13205 0.83318 0.0
C1707 C 0.64911 0.13308 0.83584 0.0
C1708 C 0.63832 0.11965 0.84452 0.0
C1709 C 0.59389 0.08003 0.92492 0.0
C1710 C 0.57647 0.08045 0.91841 0.0
C1711 C 0.60733 0.0841 0.91386 0.0
C1712 C 0.60337 0.08891 0.89654 0.0
C1713 C 0.58722 0.0933 0.89201 0.0
C1714 C 0.57363 0.08893 0.90293 0.0
C1715 C 0.61257 0.08262 0.88139 0.0
C1716 C 0.62468 0.0962 0.87405 0.0
C1717 C 0.60877 0.06274 0.87388 0.0
C1718 C 0.59422 0.04793 0.87915 0.0
C1719 C 0.57617 0.04697 0.87366 0.0
C1720 C 0.56242 0.03205 0.87728 0.0
C1721 C 0.56657 0.01787 0.88615 0.0
C1722 C 0.58449 0.01867 0.89154 0.0
C1723 C 0.59829 0.0336 0.888 0.0
H1724 H 0.55592 0.0063 0.8889 0.0
H1725 H 0.67469 0.14245 0.82645 0.0
H1726 H 0.31915 0.34536 0.08299 0.0
H1727 H 0.31294 0.33296 0.11111 0.0
H1728 H 0.26189 0.34583 0.10674 0.0
H1729 H 0.26842 0.35907 0.07856 0.0
H1730 H 0.27634 0.35442 0.14158 0.0
H1731 H 0.26588 0.29822 0.09489 0.0
H1732 H 0.27193 0.27629 0.06878 0.0
H1733 H 0.31831 0.27208 0.1027 0.0
H1734 H 0.31268 0.29417 0.12896 0.0
H1735 H 0.24616 0.28714 0.20374 0.0
H1736 H 0.24911 0.30179 0.17589 0.0
H1737 H 0.30664 0.3143 0.18744 0.0
H1738 H 0.30383 0.3002 0.21558 0.0
H1739 H 0.28594 0.29124 0.14831 0.0
H1740 H 0.29888 0.35312 0.19177 0.0
H1741 H 0.29273 0.37572 0.21719 0.0
H1742 H 0.23953 0.36649 0.18874 0.0
H1743 H 0.24563 0.34424 0.16282 0.0
C1744 C 0.30657 0.34562 0.08796 0.0
C1745 C 0.2942 0.35309 0.0784 0.0
C1746 C 0.30297 0.33834 0.10403 0.0
C1747 C 0.2867 0.33786 0.11084 0.0
C1748 C 0.27448 0.34583 0.10168 0.0
C1749 C 0.27822 0.35344 0.0856 0.0
C1750 C 0.28288 0.32939 0.12773 0.0
C1751 C 0.27811 0.34042 0.14281 0.0
C1752 C 0.28541 0.31121 0.12966 0.0
C1753 C 0.28892 0.29798 0.11386 0.0
C1754 C 0.27745 0.29274 0.09674 0.0
C1755 C 0.28079 0.28025 0.08192 0.0
C1756 C 0.29551 0.27283 0.08407 0.0
C1757 C 0.30691 0.27785 0.10106 0.0
C1758 C 0.30364 0.29033 0.11592 0.0
C1759 C 0.25943 0.29326 0.20046 0.0
C1760 C 0.27475 0.29256 0.21181 0.0
C1761 C 0.2611 0.30161 0.18458 0.0
C1762 C 0.27808 0.30908 0.17962 0.0
C1763 C 0.29342 0.30863 0.19106 0.0
C1764 C 0.29179 0.30064 0.20715 0.0
C1765 C 0.27976 0.31645 0.16198 0.0
C1766 C 0.28403 0.30512 0.14682 0.0
C1767 C 0.27658 0.33416 0.15986 0.0
C1768 C 0.27263 0.34692 0.17555 0.0
C1769 C 0.28583 0.3558 0.19105 0.0
C1770 C 0.28237 0.36859 0.20551 0.0
C1771 C 0.26567 0.37236 0.20474 0.0
C1772 C 0.25244 0.36349 0.18937 0.0
C1773 C 0.25592 0.3509 0.17474 0.0
H1774 H 0.26302 0.38226 0.21597 0.0
H1775 H 0.29807 0.26316 0.07258 0.0
H1776 H 0.271 0.96486 0.01121 0.0
H1777 H 0.24887 0.98233 0.01769 0.0
H1778 H 0.22308 0.93939 0.04785 0.0
H1779 H 0.24494 0.92157 0.04106 0.0
H1780 H 0.19955 0.94569 0.02294 0.0
H1781 H 0.24703 0.98554 0.07024 0.0
H1782 H 0.27765 0.00587 0.08304 0.0
H1783 H 0.27228 0.04563 0.04712 0.0
H1784 H 0.24174 0.0254 0.03389 0.0
H1785 H 0.13594 0.99641 0.04656 0.0
H1786 H 0.15941 0.97977 0.04822 0.0
H1787 H 0.19279 0.0223 0.02246 0.0
H1788 H 0.16974 0.03946 0.02183 0.0
H1789 H 0.21235 0.0154 0.04868 0.0
H1790 H 0.16692 0.97447 0.99881 0.0
H1791 H 0.13677 0.95393 0.98448 0.0
H1792 H 0.13874 0.91623 0.02343 0.0
H1793 H 0.1688 0.93669 0.03814 0.0
C1794 C 0.26077 0.95926 0.01943 0.0
C1795 C 0.25963 0.94177 0.02552 0.0
C1796 C 0.24819 0.96933 0.02322 0.0
C1797 C 0.23443 0.96223 0.03338 0.0
C1798 C 0.23362 0.94511 0.04 0.0
C1799 C 0.24612 0.93496 0.03611 0.0
C1800 C 0.22003 0.97177 0.0357 0.0
C1801 C 0.20229 0.96087 0.02889 0.0
C1802 C 0.22372 0.99166 0.04302 0.0
C1803 C 0.24212 0.00385 0.05098 0.0
C1804 C 0.25243 0.99853 0.06496 0.0
C1805 C 0.26977 0.01006 0.07231 0.0
C1806 C 0.27692 0.02701 0.06587 0.0
C1807 C 0.26673 0.03249 0.05209 0.0
C1808 C 0.2494 0.02101 0.04467 0.0
C1809 C 0.14833 1.00211 0.04128 0.0
C1810 C 0.15115 0.01911 0.03403 0.0
C1811 C 0.16167 0.99259 0.04213 0.0
C1812 C 0.17776 0.9996 0.03518 0.0
C1813 C 0.18051 0.01663 0.02794 0.0
C1814 C 0.16737 0.02639 0.02752 0.0
C1815 C 0.19189 0.98943 0.0355 0.0
C1816 C 0.20957 1.00019 0.04287 0.0
C1817 C 0.18819 0.96944 0.02847 0.0
C1818 C 0.17002 0.95725 0.01971 0.0
C1819 C 0.16086 0.9619 0.00442 0.0
C1820 C 0.14379 0.95025 0.99621 0.0
C1821 C 0.13582 0.93382 0.00308 0.0
C1822 C 0.14491 0.92898 0.01815 0.0
C1823 C 0.16196 0.9406 0.02642 0.0
H1824 H 0.12262 0.92481 0.99669 0.0
H1825 H 0.29034 0.03591 0.07159 0.0
H1826 H 0.73767 0.62993 0.99502 0.0
H1827 H 0.70905 0.60676 0.99708 0.0
H1828 H 0.68287 0.65209 0.99932 0.0
H1829 H 0.71098 0.67501 0.99747 0.0
H1830 H 0.67282 0.63145 0.02475 0.0
H1831 H 0.67783 0.61825 0.95942 0.0
H1832 H 0.69255 0.60959 0.93242 0.0
H1833 H 0.69214 0.55554 0.94843 0.0
H1834 H 0.67762 0.56401 0.97568 0.0
H1835 H 0.57993 0.57609 0.00391 0.0
H1836 H 0.60968 0.59857 0.00444 0.0
H1837 H 0.63309 0.55101 1.00108 0.0
H1838 H 0.60361 0.52895 1.00067 0.0
H1839 H 0.64529 0.57219 0.97722 0.0
H1840 H 0.63894 0.58506 0.04203 0.0
H1841 H 0.62448 0.59414 0.0691 0.0
H1842 H 0.62746 0.64917 0.05415 0.0
H1843 H 0.64173 0.6403 0.02683 0.0
C1844 C 0.72578 0.63489 0.99586 0.0
C1845 C 0.72672 0.65438 0.99606 0.0
C1846 C 0.70942 0.62164 0.99703 0.0
C1847 C 0.69372 0.62765 0.99834 0.0
C1848 C 0.69472 0.64705 0.99846 0.0
C1849 C 0.71092 0.66018 0.9973 0.0
C1850 C 0.6761 0.61401 0.99955 0.0
C1851 C 0.66674 0.61857 0.01425 0.0
C1852 C 0.66821 0.59701 0.9861 0.0
C1853 C 0.67683 0.59185 0.96968 0.0
C1854 C 0.681 0.60458 0.95725 0.0
C1855 C 0.68929 0.5997 0.9419 0.0
C1856 C 0.69332 0.58205 0.93874 0.0
C1857 C 0.68903 0.56922 0.95091 0.0
C1858 C 0.68077 0.57405 0.96631 0.0
C1859 C 0.59155 0.57071 0.00385 0.0
C1860 C 0.5895 0.55095 0.00267 0.0
C1861 C 0.60854 0.58344 0.00398 0.0
C1862 C 0.62379 0.57656 0.00296 0.0
C1863 C 0.62165 0.55676 0.00186 0.0
C1864 C 0.60475 0.54415 0.00168 0.0
C1865 C 0.64191 0.58965 0.00239 0.0
C1866 C 0.65137 0.58501 0.98779 0.0
C1867 C 0.64986 0.60661 0.01592 0.0
C1868 C 0.64121 0.61193 0.03227 0.0
C1869 C 0.63637 0.59903 0.04442 0.0
C1870 C 0.62823 0.60415 0.05983 0.0
C1871 C 0.625 0.6222 0.06331 0.0
C1872 C 0.62994 0.63518 0.05141 0.0
C1873 C 0.63806 0.63011 0.03597 0.0
H1874 H 0.61872 0.62614 0.07525 0.0
H1875 H 0.69974 0.57829 0.92684 0.0
H1876 H 0.70962 0.46597 0.30034 0.0
H1877 H 0.72289 0.43934 0.29593 0.0
H1878 H 0.69154 0.41786 0.24163 0.0
H1879 H 0.67776 0.44492 0.24616 0.0
H1880 H 0.69378 0.38676 0.25568 0.0
H1881 H 0.74012 0.44074 0.24984 0.0
H1882 H 0.76041 0.47374 0.25798 0.0
H1883 H 0.7822 0.46152 0.30922 0.0
H1884 H 0.76187 0.42849 0.30147 0.0
H1885 H 0.74405 0.31535 0.23986 0.0
H1886 H 0.72892 0.34068 0.23883 0.0
H1887 H 0.76479 0.37529 0.28758 0.0
H1888 H 0.78095 0.35079 0.28726 0.0
H1889 H 0.75938 0.39996 0.27307 0.0
H1890 H 0.70915 0.34419 0.27739 0.0
H1891 H 0.68884 0.31144 0.26575 0.0
H1892 H 0.67477 0.32728 0.21363 0.0
H1893 H 0.69512 0.35999 0.22486 0.0
C1894 C 0.70537 0.4558 0.28727 0.0
C1895 C 0.69236 0.45838 0.27366 0.0
C1896 C 0.71328 0.44026 0.28468 0.0
C1897 C 0.70889 0.42604 0.26823 0.0
C1898 C 0.69564 0.42826 0.25456 0.0
C1899 C 0.68769 0.44406 0.25713 0.0
C1900 C 0.71819 0.40935 0.26574 0.0
C1901 C 0.70818 0.38984 0.25943 0.0
C1902 C 0.73709 0.41241 0.27042 0.0
C1903 C 0.74936 0.43221 0.27516 0.0
C1904 C 0.74916 0.44514 0.26291 0.0
C1905 C 0.76067 0.46383 0.26744 0.0
C1906 C 0.77255 0.46974 0.28413 0.0
C1907 C 0.77297 0.45693 0.2963 0.0
C1908 C 0.76147 0.43821 0.29184 0.0
C1909 C 0.74877 0.32833 0.25044 0.0
C1910 C 0.764 0.3305 0.26368 0.0
C1911 C 0.73973 0.34307 0.25009 0.0
C1912 C 0.74476 0.36059 0.26353 0.0
C1913 C 0.76001 0.36251 0.27679 0.0
C1914 C 0.76941 0.34813 0.27672 0.0
C1915 C 0.73496 0.37699 0.26383 0.0
C1916 C 0.74494 0.39664 0.26964 0.0
C1917 C 0.71606 0.374 0.25844 0.0
C1918 C 0.70374 0.35444 0.25191 0.0
C1919 C 0.70174 0.34064 0.26345 0.0
C1920 C 0.69025 0.32211 0.25691 0.0
C1921 C 0.68058 0.31733 0.23896 0.0
C1922 C 0.68231 0.33103 0.22752 0.0
C1923 C 0.6938 0.34955 0.23395 0.0
H1924 H 0.67173 0.30305 0.23389 0.0
H1925 H 0.78146 0.48422 0.28762 0.0
H1926 H 0.86094 0.42941 0.54241 0.0
H1927 H 0.88907 0.45156 0.54093 0.0
H1928 H 0.86222 0.4941 0.52922 0.0
H1929 H 0.8332 0.47059 0.52849 0.0
H1930 H 0.88194 0.48955 0.50463 0.0
H1931 H 0.89614 0.5014 0.57138 0.0
H1932 H 0.89386 0.48879 0.60054 0.0
H1933 H 0.9261 0.45148 0.58356 0.0
H1934 H 0.92867 0.46392 0.55435 0.0
H1935 H 0.97485 0.54457 0.50455 0.0
H1936 H 0.94436 0.53421 0.51218 0.0
H1937 H 0.94736 0.47552 0.50496 0.0
H1938 H 0.97774 0.48582 0.49667 0.0
H1939 H 0.94023 0.49617 0.54264 0.0
H1940 H 0.9209 0.47836 0.47578 0.0
H1941 H 0.91927 0.4848 0.4438 0.0
H1942 H 0.89564 0.53059 0.46025 0.0
H1943 H 0.89736 0.52454 0.49243 0.0
C1944 C 0.8609 0.44365 0.54009 0.0
C1945 C 0.84485 0.44815 0.53522 0.0
C1946 C 0.8772 0.45656 0.53956 0.0
C1947 C 0.87793 0.47478 0.53539 0.0
C1948 C 0.86196 0.48013 0.53251 0.0
C1949 C 0.84544 0.46677 0.53221 0.0
C1950 C 0.89492 0.48641 0.53089 0.0
C1951 C 0.89465 0.49163 0.51329 0.0
C1952 C 0.91158 0.48873 0.54193 0.0
C1953 C 0.91253 0.48356 0.56066 0.0
C1954 C 0.90297 0.49073 0.57401 0.0
C1955 C 0.90155 0.48354 0.59048 0.0
C1956 C 0.90963 0.46919 0.59373 0.0
C1957 C 0.91972 0.46249 0.5809 0.0
C1958 C 0.92133 0.46976 0.56447 0.0
C1959 C 0.96868 0.5294 0.50401 0.0
C1960 C 0.97823 0.51585 0.49989 0.0
C1961 C 0.95144 0.52356 0.50843 0.0
C1962 C 0.94389 0.50422 0.50915 0.0
C1963 C 0.95317 0.49052 0.50437 0.0
C1964 C 0.9703 0.49631 0.49951 0.0
C1965 C 0.92692 0.49861 0.5164 0.0
C1966 C 0.92742 0.49475 0.53446 0.0
C1967 C 0.91051 0.49752 0.50582 0.0
C1968 C 0.9095 0.50119 0.48654 0.0
C1969 C 0.91555 0.48994 0.47262 0.0
C1970 C 0.91456 0.49348 0.45445 0.0
C1971 C 0.90742 0.50815 0.45001 0.0
C1972 C 0.90121 0.51926 0.46372 0.0
C1973 C 0.90218 0.51578 0.48192 0.0
H1974 H 0.90666 0.51087 0.43593 0.0
H1975 H 0.90793 0.46318 0.60614 0.0
H1976 H 0.36655 0.05792 0.28379 0.0
H1977 H 0.34909 0.07789 0.27151 0.0
H1978 H 0.39392 0.105 0.24569 0.0
H1979 H 0.41156 0.08594 0.25851 0.0
H1980 H 0.38208 0.13058 0.26327 0.0
H1981 H 0.3553 0.07226 0.21993 0.0
H1982 H 0.34048 0.03755 0.20942 0.0
H1983 H 0.29518 0.04351 0.23622 0.0
H1984 H 0.30985 0.07821 0.24715 0.0
H1985 H 0.32978 0.18749 0.228 0.0
H1986 H 0.34846 0.1652 0.22877 0.0
H1987 H 0.30831 0.12793 0.25324 0.0
H1988 H 0.28931 0.14944 0.25119 0.0
H1989 H 0.31978 0.10687 0.2301 0.0
H1990 H 0.35175 0.16421 0.27925 0.0
H1991 H 0.37044 0.19725 0.29283 0.0
H1992 H 0.40756 0.19206 0.25416 0.0
H1993 H 0.38918 0.15899 0.24049 0.0
C1994 C 0.37263 0.06823 0.27557 0.0
C1995 C 0.39042 0.07056 0.27229 0.0
C1996 C 0.36261 0.0794 0.26836 0.0
C1997 C 0.37017 0.09267 0.25745 0.0
C1998 C 0.38786 0.09482 0.25405 0.0
C1999 C 0.39794 0.08399 0.26151 0.0
C2000 C 0.36028 0.10556 0.25089 0.0
C2001 C 0.36855 0.12538 0.25569 0.0
C2002 C 0.34267 0.09871 0.24109 0.0
C2003 C 0.33375 0.07784 0.23447 0.0
C2004 C 0.34224 0.06615 0.2237 0.0
C2005 C 0.33385 0.04648 0.21765 0.0
C2006 C 0.31691 0.03833 0.22218 0.0
C2007 C 0.30831 0.04985 0.23273 0.0
C2008 C 0.31664 0.06953 0.23884 0.0
C2009 C 0.32499 0.17435 0.23328 0.0
C2010 C 0.30819 0.16992 0.23942 0.0
C2011 C 0.33568 0.16177 0.23391 0.0
C2012 C 0.32991 0.14503 0.24134 0.0
C2013 C 0.31301 0.14067 0.24732 0.0
C2014 C 0.30217 0.15292 0.2462 0.0
C2015 C 0.3413 0.13197 0.24332 0.0
C2016 C 0.33339 0.11205 0.23746 0.0
C2017 C 0.35935 0.1387 0.25203 0.0
C2018 C 0.36899 0.15929 0.25872 0.0
C2019 C 0.36373 0.17027 0.27346 0.0
C2020 C 0.37435 0.18892 0.28126 0.0
C2021 C 0.39021 0.19669 0.27439 0.0
C2022 C 0.39531 0.186 0.25948 0.0
C2023 C 0.38481 0.16733 0.25172 0.0
H2024 H 0.39865 0.21095 0.28066 0.0
H2025 H 0.31044 0.02309 0.21748 0.0
H2026 H 0.33965 0.17685 0.5031 0.0
H2027 H 0.36638 0.16569 0.50849 0.0
H2028 H 0.33284 0.10945 0.51119 0.0
H2029 H 0.30618 0.12078 0.50659 0.0
H2030 H 0.35986 0.11912 0.53773 0.0
H2031 H 0.35517 0.12249 0.47124 0.0
H2032 H 0.35458 0.1394 0.44474 0.0
H2033 H 0.40578 0.17893 0.46861 0.0
H2034 H 0.40657 0.16238 0.49533 0.0
H2035 H 0.41505 0.05763 0.5203 0.0
H2036 H 0.39266 0.07545 0.52112 0.0
H2037 H 0.43321 0.12742 0.51873 0.0
H2038 H 0.45582 0.10965 0.51804 0.0
H2039 H 0.40552 0.12424 0.49496 0.0
H2040 H 0.4133 0.12143 0.55867 0.0
H2041 H 0.41589 0.10797 0.5872 0.0
H2042 H 0.36178 0.07178 0.57191 0.0
H2043 H 0.35895 0.08482 0.54313 0.0
C2044 C 0.33796 0.16207 0.50472 0.0
C2045 C 0.32071 0.14969 0.50431 0.0
C2046 C 0.3533 0.15565 0.50774 0.0
C2047 C 0.35174 0.13658 0.50999 0.0
C2048 C 0.3345 0.12423 0.50952 0.0
C2049 C 0.31921 0.13071 0.50679 0.0
C2050 C 0.3679 0.12936 0.5131 0.0
C2051 C 0.3697 0.12002 0.52821 0.0
C2052 C 0.38141 0.13142 0.50138 0.0
C2053 C 0.38082 0.14134 0.48535 0.0
C2054 C 0.36623 0.13487 0.47088 0.0
C2055 C 0.36588 0.14437 0.45582 0.0
C2056 C 0.38011 0.16026 0.45502 0.0
C2057 C 0.39475 0.16665 0.46926 0.0
C2058 C 0.39516 0.15721 0.48435 0.0
C2059 C 0.41936 0.07293 0.52036 0.0
C2060 C 0.43734 0.08214 0.51912 0.0
C2061 C 0.40647 0.08315 0.52083 0.0
C2062 C 0.41118 0.10289 0.52018 0.0
C2063 C 0.42917 0.11221 0.51923 0.0
C2064 C 0.4421 0.10199 0.51875 0.0
C2065 C 0.39708 0.11334 0.51917 0.0
C2066 C 0.39572 0.12336 0.50453 0.0
C2067 C 0.38421 0.11228 0.53159 0.0
C2068 C 0.38598 0.10398 0.54863 0.0
C2069 C 0.40202 0.11044 0.56127 0.0
C2070 C 0.40352 0.10292 0.57752 0.0
C2071 C 0.38902 0.089 0.58134 0.0
C2072 C 0.37301 0.08255 0.56892 0.0
C2073 C 0.37144 0.09001 0.55263 0.0
H2074 H 0.39019 0.08323 0.59396 0.0
H2075 H 0.37981 0.16759 0.44335 0.0
H2076 H 0.67852 0.58697 0.29364 0.0
H2077 H 0.69651 0.61866 0.29092 0.0
H2078 H 0.72554 0.59243 0.25259 0.0
H2079 H 0.70736 0.56013 0.25548 0.0
H2080 H 0.74838 0.62424 0.27448 0.0
H2081 H 0.69069 0.61367 0.2385 0.0
H2082 H 0.65766 0.60562 0.23284 0.0
H2083 H 0.6588 0.65298 0.27607 0.0
H2084 H 0.69183 0.66117 0.28216 0.0
H2085 H 0.7899 0.71193 0.24722 0.0
H2086 H 0.77199 0.67949 0.24796 0.0
H2087 H 0.73615 0.7031 0.27922 0.0
H2088 H 0.75358 0.73589 0.27718 0.0
H2089 H 0.71654 0.67197 0.26027 0.0
H2090 H 0.77322 0.68188 0.29786 0.0
H2091 H 0.8062 0.69004 0.30503 0.0
H2092 H 0.80694 0.64429 0.26094 0.0
H2093 H 0.77398 0.63599 0.25338 0.0
C2094 C 0.68887 0.58773 0.28474 0.0
C2095 C 0.6913 0.57057 0.27485 0.0
C2096 C 0.69914 0.60614 0.28303 0.0
C2097 C 0.7123 0.60849 0.2711 0.0
C2098 C 0.71546 0.5914 0.26181 0.0
C2099 C 0.7051 0.57276 0.26359 0.0
C2100 C 0.72242 0.62869 0.26849 0.0
C2101 C 0.74132 0.63449 0.27106 0.0
C2102 C 0.7136 0.64277 0.26461 0.0
C2103 C 0.69374 0.63794 0.26088 0.0
C2104 C 0.68389 0.6223 0.24688 0.0
C2105 C 0.66517 0.61772 0.24358 0.0
C2106 C 0.65614 0.62876 0.25411 0.0
C2107 C 0.66581 0.64443 0.26793 0.0
C2108 C 0.68454 0.64906 0.27129 0.0
C2109 C 0.77808 0.71031 0.25411 0.0
C2110 C 0.77336 0.72682 0.26212 0.0
C2111 C 0.76787 0.6915 0.25482 0.0
C2112 C 0.7528 0.68818 0.26435 0.0
C2113 C 0.74768 0.70473 0.2719 0.0
C2114 C 0.7577 0.72368 0.27071 0.0
C2115 C 0.74262 0.66767 0.26633 0.0
C2116 C 0.72367 0.66177 0.26366 0.0
C2117 C 0.7514 0.65356 0.27036 0.0
C2118 C 0.77117 0.65843 0.27496 0.0
C2119 C 0.78044 0.67362 0.28964 0.0
C2120 C 0.79912 0.67827 0.29378 0.0
C2121 C 0.80866 0.66772 0.28342 0.0
C2122 C 0.79953 0.65246 0.26894 0.0
C2123 C 0.78086 0.64776 0.26474 0.0
H2124 H 0.82312 0.67134 0.28664 0.0
H2125 H 0.64164 0.62519 0.25154 0.0
H2126 H 0.91668 0.46052 0.74966 0.0
H2127 H 0.8913 0.43315 0.74987 0.0
H2128 H 0.85559 0.46938 0.74831 0.0
H2129 H 0.88114 0.49707 0.74869 0.0
H2130 H 0.85334 0.45199 0.7778 0.0
H2131 H 0.85248 0.43027 0.71101 0.0
H2132 H 0.86652 0.4219 0.68355 0.0
H2133 H 0.88487 0.37998 0.70877 0.0
H2134 H 0.87091 0.38815 0.73649 0.0
H2135 H 0.78874 0.34757 0.75132 0.0
H2136 H 0.80101 0.381 0.74803 0.0
H2137 H 0.84263 0.38894 0.79426 0.0
H2138 H 0.8298 0.35587 0.79821 0.0
H2139 H 0.83706 0.38574 0.74049 0.0
H2140 H 0.85357 0.42361 0.81039 0.0
H2141 H 0.84123 0.42921 0.83982 0.0
H2142 H 0.7943 0.43695 0.80983 0.0
H2143 H 0.80624 0.43091 0.78019 0.0
C2144 C 0.90335 0.46252 0.74867 0.0
C2145 C 0.90084 0.4809 0.74951 0.0
C2146 C 0.88884 0.44686 0.74876 0.0
C2147 C 0.87161 0.44932 0.74913 0.0
C2148 C 0.86884 0.46731 0.74814 0.0
C2149 C 0.88341 0.48305 0.74833 0.0
C2150 C 0.85715 0.43384 0.75313 0.0
C2151 C 0.84946 0.4376 0.76937 0.0
C2152 C 0.85257 0.41498 0.74255 0.0
C2153 C 0.86076 0.40992 0.72582 0.0
C2154 C 0.8596 0.41935 0.71073 0.0
C2155 C 0.86757 0.41464 0.69512 0.0
C2156 C 0.87675 0.40053 0.69443 0.0
C2157 C 0.87786 0.39098 0.70934 0.0
C2158 C 0.86985 0.39559 0.72497 0.0
C2159 C 0.80011 0.35678 0.76115 0.0
C2160 C 0.80865 0.34946 0.77478 0.0
C2161 C 0.80691 0.3758 0.75945 0.0
C2162 C 0.82248 0.38735 0.7711 0.0
C2163 C 0.83022 0.3804 0.78562 0.0
C2164 C 0.82312 0.36149 0.78764 0.0
C2165 C 0.8332 0.40401 0.76485 0.0
C2166 C 0.84043 0.40034 0.74843 0.0
C2167 C 0.83772 0.42271 0.7755 0.0
C2168 C 0.83072 0.42678 0.79319 0.0
C2169 C 0.84062 0.4265 0.81013 0.0
C2170 C 0.83367 0.42967 0.82681 0.0
C2171 C 0.81698 0.43342 0.8267 0.0
C2172 C 0.80719 0.43398 0.80989 0.0
C2173 C 0.814 0.4306 0.79315 0.0
H2174 H 0.81164 0.43592 0.83963 0.0
H2175 H 0.88289 0.39684 0.68233 0.0
H2176 H 0.09959 0.86532 0.07941 0.0
H2177 H 0.09134 0.89082 0.06614 0.0
H2178 H 0.03895 0.87413 0.0829 0.0
H2179 H 0.04715 0.84829 0.09643 0.0
H2180 H 0.03993 0.88192 0.04445 0.0
H2181 H 0.06614 0.91157 0.10803 0.0
H2182 H 0.0895 0.91931 0.13545 0.0
H2183 H 0.12869 0.94742 0.10422 0.0
H2184 H 0.10561 0.93959 0.07654 0.0
H2185 H 0.01974 0.96805 0.02689 0.0
H2186 H 0.02329 0.93979 0.03891 0.0
H2187 H 0.08064 0.95994 0.0403 0.0
H2188 H 0.07722 0.98864 0.0291 0.0
H2189 H 0.0749 0.94948 0.07072 0.0
H2190 H 0.05129 0.91996 0.00727 0.0
H2191 H 0.02994 0.91127 0.97816 0.0
H2192 H 0.98827 0.8822 0.00617 0.0
H2193 H 0.00932 0.89096 0.03555 0.0
C2194 C 0.08629 0.86699 0.08036 0.0
C2195 C 0.07407 0.8548 0.08913 0.0
C2196 C 0.0816 0.8816 0.07271 0.0
C2197 C 0.06458 0.8844 0.07359 0.0
C2198 C 0.05217 0.87216 0.08208 0.0
C2199 C 0.05692 0.85754 0.08994 0.0
C2200 C 0.06027 0.90065 0.06614 0.0
C2201 C 0.04729 0.89675 0.05034 0.0
C2202 C 0.07034 0.91989 0.07348 0.0
C2203 C 0.08417 0.92488 0.09019 0.0
C2204 C 0.07976 0.9193 0.10699 0.0
C2205 C 0.09295 0.92371 0.12257 0.0
C2206 C 0.11057 0.93382 0.12157 0.0
C2207 C 0.11503 0.93958 0.10498 0.0
C2208 C 0.1019 0.93519 0.08935 0.0
C2209 C 0.0331 0.96636 0.02957 0.0
C2210 C 0.04821 0.98062 0.02707 0.0
C2211 C 0.0351 0.9501 0.03637 0.0
C2212 C 0.05223 0.94754 0.04038 0.0
C2213 C 0.06728 0.96157 0.0374 0.0
C2214 C 0.06531 0.97797 0.03093 0.0
C2215 C 0.05467 0.93091 0.04871 0.0
C2216 C 0.06735 0.93472 0.06477 0.0
C2217 C 0.04455 0.9116 0.04132 0.0
C2218 C 0.03185 0.90631 0.02367 0.0
C2219 C 0.03754 0.91186 0.00727 0.0
C2220 C 0.02549 0.9069 0.99071 0.0
C2221 C 0.00774 0.89624 0.99033 0.0
C2222 C 1.00202 0.89049 0.0065 0.0
C2223 C 0.014 0.89544 0.02311 0.0
H2224 H 0.99844 0.89241 0.97749 0.0
H2225 H 0.12076 0.93721 0.13365 0.0
H2226 H 0.9512 0.28185 0.9039 0.0
H2227 H 0.92663 0.28772 0.88495 0.0
H2228 H 0.93478 0.2495 0.83761 0.0
H2229 H 0.96046 0.2444 0.85662 0.0
H2230 H 0.92611 0.27837 0.8262 0.0
H2231 H 0.89977 0.23614 0.86638 0.0
H2232 H 0.89507 0.22581 0.89633 0.0
H2233 H 0.87961 0.27686 0.91571 0.0
H2234 H 0.88442 0.2876 0.88596 0.0
H2235 H 0.83873 0.25605 0.77637 0.0
H2236 H 0.86615 0.25574 0.79499 0.0
H2237 H 0.86094 0.302 0.83635 0.0
H2238 H 0.83327 0.3027 0.81731 0.0
H2239 H 0.86829 0.2709 0.85109 0.0
H2240 H 0.89253 0.31207 0.81043 0.0
H2241 H 0.897 0.32267 0.78059 0.0
H2242 H 0.91605 0.27387 0.76204 0.0
H2243 H 0.91142 0.26279 0.79167 0.0
C2244 C 0.9478 0.27463 0.88944 0.0
C2245 C 0.95757 0.26234 0.88185 0.0
C2246 C 0.93361 0.27793 0.8786 0.0
C2247 C 0.92827 0.26853 0.85996 0.0
C2248 C 0.93843 0.25676 0.85204 0.0
C2249 C 0.95308 0.2538 0.86288 0.0
C2250 C 0.91205 0.27105 0.849 0.0
C2251 C 0.91341 0.27642 0.83154 0.0
C2252 C 0.89551 0.26921 0.85614 0.0
C2253 C 0.8926 0.26273 0.87401 0.0
C2254 C 0.89548 0.24521 0.87708 0.0
C2255 C 0.89277 0.23928 0.89401 0.0
C2256 C 0.88708 0.25069 0.90793 0.0
C2257 C 0.88403 0.26804 0.90493 0.0
C2258 C 0.88672 0.27404 0.88803 0.0
C2259 C 0.84334 0.26624 0.78941 0.0
C2260 C 0.83376 0.27943 0.79536 0.0
C2261 C 0.85916 0.26611 0.79999 0.0
C2262 C 0.86579 0.27899 0.81695 0.0
C2263 C 0.85614 0.29201 0.8232 0.0
C2264 C 0.84034 0.29239 0.81238 0.0
C2265 C 0.88236 0.27801 0.82831 0.0
C2266 C 0.88103 0.27289 0.8458 0.0
C2267 C 0.89886 0.28003 0.82117 0.0
C2268 C 0.90144 0.28649 0.80322 0.0
C2269 C 0.89748 0.30347 0.79992 0.0
C2270 C 0.90009 0.3096 0.78305 0.0
C2271 C 0.90676 0.29893 0.76941 0.0
C2272 C 0.91085 0.28211 0.77261 0.0
C2273 C 0.90825 0.2759 0.78945 0.0
H2274 H 0.90879 0.30371 0.75637 0.0
H2275 H 0.885 0.24607 0.92103 0.0
H2276 H 0.58296 0.25749 0.55625 0.0
H2277 H 0.57462 0.22339 0.54249 0.0
H2278 H 0.53645 0.21161 0.58084 0.0
H2279 H 0.54501 0.24586 0.595 0.0
H2280 H 0.55784 0.18973 0.58237 0.0
H2281 H 0.52261 0.20391 0.53352 0.0
H2282 H 0.51413 0.22013 0.50852 0.0
H2283 H 0.5544 0.20501 0.47824 0.0
H2284 H 0.56332 0.18892 0.50319 0.0
H2285 H 0.522 0.09098 0.53673 0.0
H2286 H 0.52467 0.12521 0.54608 0.0
H2287 H 0.57655 0.1395 0.5278 0.0
H2288 H 0.57423 0.10494 0.51885 0.0
H2289 H 0.5461 0.15911 0.51546 0.0
H2290 H 0.58147 0.14621 0.56773 0.0
H2291 H 0.58652 0.12834 0.59249 0.0
H2292 H 0.54135 0.13998 0.61617 0.0
H2293 H 0.53576 0.15756 0.59118 0.0
C2294 C 0.57255 0.24774 0.56158 0.0
C2295 C 0.56482 0.25437 0.5769 0.0
C2296 C 0.56768 0.22821 0.55356 0.0
C2297 C 0.55489 0.21492 0.5606 0.0
C2298 C 0.54639 0.22163 0.57521 0.0
C2299 C 0.55127 0.24121 0.58327 0.0
C2300 C 0.55215 0.19399 0.55425 0.0
C2301 C 0.55495 0.18303 0.56773 0.0
C2302 C 0.54868 0.18523 0.53515 0.0
C2303 C 0.54378 0.1954 0.52035 0.0
C2304 C 0.52982 0.20425 0.52165 0.0
C2305 C 0.52489 0.21337 0.50745 0.0
C2306 C 0.53376 0.21365 0.49183 0.0
C2307 C 0.54757 0.20481 0.49037 0.0
C2308 C 0.55256 0.19568 0.50453 0.0
C2309 C 0.53397 0.10139 0.53463 0.0
C2310 C 0.54791 0.09539 0.527 0.0
C2311 C 0.53546 0.12089 0.54 0.0
C2312 C 0.55075 0.13473 0.53755 0.0
C2313 C 0.56464 0.12889 0.52972 0.0
C2314 C 0.56335 0.10926 0.52472 0.0
C2315 C 0.55216 0.1553 0.54355 0.0
C2316 C 0.54899 0.16602 0.53004 0.0
C2317 C 0.55491 0.16378 0.56261 0.0
C2318 C 0.55807 0.15297 0.57745 0.0
C2319 C 0.57246 0.14472 0.57805 0.0
C2320 C 0.57545 0.13469 0.59218 0.0
C2321 C 0.56426 0.13301 0.60593 0.0
C2322 C 0.55 0.14128 0.60551 0.0
C2323 C 0.5469 0.15126 0.59135 0.0
H2324 H 0.56669 0.1254 0.61696 0.0
H2325 H 0.52989 0.22067 0.48083 0.0
H2326 H 0.57636 0.80229 0.4068 0.0
H2327 H 0.60262 0.80521 0.39074 0.0
H2328 H 0.57285 0.75706 0.34785 0.0
H2329 H 0.54635 0.75403 0.36393 0.0
H2330 H 0.60653 0.7541 0.36093 0.0
H2331 H 0.58235 0.80324 0.3399 0.0
H2332 H 0.5718 0.8324 0.34431 0.0
H2333 H 0.62306 0.86524 0.37519 0.0
H2334 H 0.63384 0.83621 0.37118 0.0
H2335 H 0.66706 0.7606 0.29532 0.0
H2336 H 0.64119 0.75936 0.31174 0.0
H2337 H 0.67035 0.81223 0.34919 0.0
H2338 H 0.69635 0.8136 0.33275 0.0
H2339 H 0.63761 0.81362 0.33997 0.0
H2340 H 0.66264 0.76838 0.36339 0.0
H2341 H 0.67552 0.74091 0.36254 0.0
H2342 H 0.62591 0.70276 0.33247 0.0
H2343 H 0.61281 0.73008 0.33291 0.0
C2344 C 0.57529 0.79235 0.39388 0.0
C2345 C 0.55916 0.7779 0.38667 0.0
C2346 C 0.59036 0.79412 0.38465 0.0
C2347 C 0.58976 0.78147 0.36797 0.0
C2348 C 0.57367 0.76705 0.36067 0.0
C2349 C 0.55848 0.76537 0.36984 0.0
C2350 C 0.60608 0.7829 0.35854 0.0
C2351 C 0.61312 0.767 0.35605 0.0
C2352 C 0.61532 0.80006 0.35301 0.0
C2353 C 0.60883 0.81751 0.35539 0.0
C2354 C 0.59132 0.81664 0.34776 0.0
C2355 C 0.58531 0.83316 0.35017 0.0
C2356 C 0.59674 0.85065 0.36007 0.0
C2357 C 0.61422 0.85168 0.36755 0.0
C2358 C 0.62028 0.8352 0.3652 0.0
C2359 C 0.66812 0.77184 0.30721 0.0
C2360 C 0.68393 0.78713 0.31272 0.0
C2361 C 0.65324 0.77114 0.3166 0.0
C2362 C 0.65377 0.78558 0.33192 0.0
C2363 C 0.66951 0.80091 0.33743 0.0
C2364 C 0.6844 0.80167 0.32798 0.0
C2365 C 0.63786 0.78465 0.342 0.0
C2366 C 0.63097 0.80066 0.34474 0.0
C2367 C 0.62906 0.76781 0.3483 0.0
C2368 C 0.63681 0.7513 0.34801 0.0
C2369 C 0.65453 0.75416 0.35646 0.0
C2370 C 0.66186 0.73861 0.35608 0.0
C2371 C 0.65156 0.72011 0.34741 0.0
C2372 C 0.63388 0.71711 0.33916 0.0
C2373 C 0.62649 0.73262 0.33948 0.0
H2374 H 0.65726 0.70808 0.34713 0.0
H2375 H 0.59206 0.86342 0.36191 0.0
H2376 H 0.08817 0.27925 0.45294 0.0
H2377 H 0.07887 0.24671 0.45917 0.0
H2378 H 0.06987 0.22347 0.40018 0.0
H2379 H 0.07919 0.25637 0.39387 0.0
H2380 H 0.03969 0.211 0.42011 0.0
H2381 H 0.10165 0.2129 0.4235 0.0
H2382 H 0.13386 0.22973 0.43238 0.0
H2383 H 0.12733 0.23649 0.49019 0.0
H2384 H 0.09502 0.21991 0.48165 0.0
H2385 H 0.02915 0.1205 0.45805 0.0
H2386 H 0.03452 0.14495 0.43845 0.0
H2387 H 0.04611 0.18966 0.48738 0.0
H2388 H 0.04096 0.16552 0.50706 0.0
H2389 H 0.07533 0.18575 0.46464 0.0
H2390 H 0.0139 0.18868 0.46181 0.0
H2391 H 0.98107 0.17566 0.45413 0.0
H2392 H 0.98585 0.16183 0.3962 0.0
H2393 H 0.0188 0.1744 0.40359 0.0
C2394 C 0.08499 0.26716 0.44138 0.0
C2395 C 0.08463 0.27012 0.42301 0.0
C2396 C 0.07948 0.24864 0.4449 0.0
C2397 C 0.07365 0.23282 0.43009 0.0
C2398 C 0.07434 0.2356 0.41171 0.0
C2399 C 0.08 0.25427 0.40817 0.0
C2400 C 0.06602 0.21369 0.43434 0.0
C2401 C 0.0475 0.20498 0.42935 0.0
C2402 C 0.07629 0.20628 0.44662 0.0
C2403 C 0.09593 0.21505 0.45192 0.0
C2404 C 0.1071 0.2179 0.43811 0.0
C2405 C 0.12536 0.22745 0.44308 0.0
C2406 C 0.13264 0.23415 0.46184 0.0
C2407 C 0.12168 0.23122 0.47567 0.0
C2408 C 0.1034 0.22168 0.47077 0.0
C2409 C 0.0323 0.13554 0.46458 0.0
C2410 C 0.03487 0.14113 0.48412 0.0
C2411 C 0.03525 0.14942 0.45335 0.0
C2412 C 0.04079 0.16895 0.4616 0.0
C2413 C 0.04177 0.17455 0.48088 0.0
C2414 C 0.03874 0.16073 0.49208 0.0
C2415 C 0.0489 0.18342 0.45093 0.0
C2416 C 0.06757 0.19119 0.45479 0.0
C2417 C 0.0387 0.18991 0.43771 0.0
C2418 C 0.01888 0.18216 0.4333 0.0
C2419 C 0.00801 0.18257 0.44747 0.0
C2420 C 0.98935 0.17534 0.44316 0.0
C2421 C 0.98138 0.16783 0.4247 0.0
C2422 C 0.99205 0.16758 0.4105 0.0
C2423 C 0.01072 0.17475 0.41475 0.0
H2424 H 0.96694 0.16228 0.42139 0.0
H2425 H 0.14677 0.24163 0.46565 0.0
H2426 H 0.53629 0.2759 0.20344 0.0
H2427 H 0.56764 0.2834 0.21826 0.0
H2428 H 0.57896 0.24761 0.17089 0.0
H2429 H 0.54765 0.23936 0.15678 0.0
H2430 H 0.5867 0.23606 0.20136 0.0
H2431 H 0.59676 0.29679 0.18119 0.0
H2432 H 0.59236 0.32845 0.17841 0.0
H2433 H 0.60546 0.34709 0.23774 0.0
H2434 H 0.60967 0.31541 0.2409 0.0
H2435 H 0.67969 0.2575 0.20645 0.0
H2436 H 0.64986 0.26155 0.19867 0.0
H2437 H 0.64445 0.27158 0.25702 0.0
H2438 H 0.67441 0.26735 0.26495 0.0
H2439 H 0.63331 0.2977 0.22695 0.0
H2440 H 0.62409 0.23378 0.24417 0.0
H2441 H 0.63086 0.20252 0.24277 0.0
H2442 H 0.61802 0.19072 0.18313 0.0
H2443 H 0.61149 0.22208 0.18419 0.0
C2444 C 0.54567 0.26991 0.19626 0.0
C2445 C 0.53984 0.25678 0.17936 0.0
C2446 C 0.56348 0.2743 0.20457 0.0
C2447 C 0.57546 0.26592 0.19567 0.0
C2448 C 0.56979 0.25401 0.17803 0.0
C2449 C 0.55201 0.24924 0.17005 0.0
C2450 C 0.5931 0.26709 0.20553 0.0
C2451 C 0.59685 0.2496 0.20692 0.0
C2452 C 0.60614 0.28474 0.21317 0.0
C2453 C 0.60323 0.30362 0.21131 0.0
C2454 C 0.59845 0.30754 0.19367 0.0
C2455 C 0.59606 0.32552 0.19202 0.0
C2456 C 0.59855 0.33974 0.2079 0.0
C2457 C 0.60348 0.33604 0.22546 0.0
C2458 C 0.60586 0.31808 0.22719 0.0
C2459 C 0.67223 0.26088 0.2176 0.0
C2460 C 0.67908 0.26206 0.23624 0.0
C2461 C 0.65533 0.26319 0.21317 0.0
C2462 C 0.64525 0.26685 0.22735 0.0
C2463 C 0.65227 0.26881 0.24604 0.0
C2464 C 0.66917 0.26626 0.25049 0.0
C2465 C 0.62673 0.26676 0.22217 0.0
C2466 C 0.62286 0.28433 0.22173 0.0
C2467 C 0.61363 0.24921 0.21486 0.0
C2468 C 0.61748 0.23033 0.21426 0.0
C2469 C 0.6229 0.22461 0.23076 0.0
C2470 C 0.62665 0.20685 0.23002 0.0
C2471 C 0.62491 0.19466 0.21287 0.0
C2472 C 0.61938 0.20018 0.19641 0.0
C2473 C 0.61565 0.21793 0.19707 0.0
H2474 H 0.6278 0.18092 0.21233 0.0
H2475 H 0.59672 0.35367 0.20659 0.0
H2476 H 0.57642 0.86516 0.94911 0.0
H2477 H 0.56883 0.89551 0.95329 0.0
H2478 H 0.60433 0.91575 0.91483 0.0
H2479 H 0.6116 0.88476 0.90976 0.0
H2480 H 0.60358 0.93893 0.95729 0.0
H2481 H 0.57116 0.91235 0.89499 0.0
H2482 H 0.5512 0.88738 0.86989 0.0
H2483 H 0.5091 0.88003 0.90393 0.0
H2484 H 0.52882 0.90505 0.92923 0.0
H2485 H 0.56975 0.0166 0.98141 0.0
H2486 H 0.58057 0.99452 0.9601 0.0
H2487 H 0.53375 0.94841 0.96246 0.0
H2488 H 0.5223 0.97107 0.9827 0.0
H2489 H 0.54367 0.94196 0.93042 0.0
H2490 H 0.57396 0.95981 0.99359 0.0
H2491 H 0.59173 0.98159 0.02209 0.0
H2492 H 0.63544 1.00009 0.99183 0.0
H2493 H 0.61779 0.97847 0.96311 0.0
C2494 C 0.58295 0.87609 0.94174 0.0
C2495 C 0.59454 0.87246 0.92897 0.0
C2496 C 0.57835 0.8933 0.94395 0.0
C2497 C 0.58559 0.90738 0.93386 0.0
C2498 C 0.59832 0.90466 0.9223 0.0
C2499 C 0.60266 0.88715 0.91971 0.0
C2500 C 0.58036 0.92531 0.93672 0.0
C2501 C 0.59079 0.94004 0.951 0.0
C2502 C 0.56327 0.92599 0.92899 0.0
C2503 C 0.55157 0.91044 0.91408 0.0
C2504 C 0.55774 0.90524 0.89722 0.0
C2505 C 0.54642 0.89112 0.88292 0.0
C2506 C 0.52893 0.88199 0.88535 0.0
C2507 C 0.52267 0.88706 0.90207 0.0
C2508 C 0.5339 0.90126 0.91637 0.0
C2509 C 0.5616 1.00187 0.97694 0.0
C2510 C 0.54541 0.99527 0.98375 0.0
C2511 C 0.56778 0.98928 0.96483 0.0
C2512 C 0.55824 0.96972 0.9602 0.0
C2513 C 0.54137 0.96345 0.96596 0.0
C2514 C 0.53488 0.97628 0.97756 0.0
C2515 C 0.56672 0.95546 0.9514 0.0
C2516 C 0.55681 0.94135 0.93622 0.0
C2517 C 0.58397 0.95481 0.9589 0.0
C2518 C 0.59444 0.96791 0.97613 0.0
C2519 C 0.58728 0.9687 0.99298 0.0
C2520 C 0.59734 0.98096 0.00918 0.0
C2521 C 0.61465 0.99234 0.00874 0.0
C2522 C 0.62198 0.99139 0.99212 0.0
C2523 C 0.61196 0.97916 0.97589 0.0
H2524 H 0.62243 1.0018 0.0213 0.0
H2525 H 0.5202 0.87107 0.87426 0.0
H2526 H 0.96942 0.76172 0.70509 0.0
H2527 H 0.94755 0.77138 0.72347 0.0
H2528 H 0.90647 0.74901 0.67534 0.0
H2529 H 0.92856 0.73992 0.65685 0.0
H2530 H 0.90447 0.78245 0.6933 0.0
H2531 H 0.90947 0.72225 0.70889 0.0
H2532 H 0.9244 0.69939 0.72011 0.0
H2533 H 0.94351 0.73815 0.77273 0.0
H2534 H 0.92874 0.76127 0.76175 0.0
H2535 H 0.82403 0.74604 0.72966 0.0
H2536 H 0.85278 0.7451 0.71935 0.0
H2537 H 0.8797 0.79695 0.75939 0.0
H2538 H 0.85088 0.79846 0.76925 0.0
H2539 H 0.89206 0.75438 0.74954 0.0
H2540 H 0.88076 0.81275 0.73109 0.0
H2541 H 0.86123 0.8301 0.71717 0.0
H2542 H 0.85063 0.78926 0.66586 0.0
H2543 H 0.86927 0.77109 0.67974 0.0
C2544 C 0.95574 0.75923 0.69852 0.0
C2545 C 0.95035 0.7503 0.6798 0.0
C2546 C 0.94335 0.76458 0.70895 0.0
C2547 C 0.9255 0.76065 0.70072 0.0
C2548 C 0.92027 0.75214 0.6818 0.0
C2549 C 0.93274 0.74699 0.67131 0.0
C2550 C 0.91207 0.76493 0.71189 0.0
C2551 C 0.90181 0.77642 0.70566 0.0
C2552 C 0.90886 0.75713 0.72806 0.0
C2553 C 0.91828 0.7436 0.73441 0.0
C2554 C 0.91706 0.72599 0.72277 0.0
C2555 C 0.92542 0.71296 0.72911 0.0
C2556 C 0.93498 0.71736 0.74709 0.0
C2557 C 0.93616 0.73479 0.75878 0.0
C2558 C 0.92779 0.74785 0.75252 0.0
C2559 C 0.83615 0.75699 0.73645 0.0
C2560 C 0.83548 0.77242 0.75 0.0
C2561 C 0.85241 0.7565 0.73054 0.0
C2562 C 0.86797 0.7712 0.73849 0.0
C2563 C 0.86758 0.78576 0.75305 0.0
C2564 C 0.85127 0.78655 0.75863 0.0
C2565 C 0.88442 0.7716 0.73075 0.0
C2566 C 0.89519 0.76094 0.73756 0.0
C2567 C 0.88775 0.77966 0.71479 0.0
C2568 C 0.8761 0.79031 0.70663 0.0
C2569 C 0.87387 0.80717 0.717 0.0
C2570 C 0.86296 0.81717 0.70909 0.0
C2571 C 0.85447 0.81064 0.69069 0.0
C2572 C 0.85693 0.79412 0.68017 0.0
C2573 C 0.86762 0.78393 0.68808 0.0
H2574 H 0.84612 0.81844 0.68453 0.0
H2575 H 0.94142 0.70724 0.75199 0.0
H2576 H 0.11939 0.03993 0.82365 0.0
H2577 H 0.10708 0.04 0.85266 0.0
H2578 H 0.121 0.98793 0.85879 0.0
H2579 H 0.13361 0.9877 0.82902 0.0
H2580 H 0.0863 0.98724 0.86953 0.0
H2581 H 0.14519 0.03361 0.88601 0.0
H2582 H 0.16856 0.06211 0.88205 0.0
H2583 H 0.13226 0.09694 0.89006 0.0
H2584 H 0.10863 0.06859 0.89386 0.0
H2585 H 0.0612 0.9918 0.96111 0.0
H2586 H 0.07664 0.98963 0.93375 0.0
H2587 H 0.0815 0.04951 0.93308 0.0
H2588 H 0.06704 0.05181 0.96132 0.0
H2589 H 0.10752 0.04548 0.91931 0.0
H2590 H 0.04884 0.004 0.90047 0.0
H2591 H 0.02169 0.9777 0.90046 0.0
H2592 H 0.05193 0.9364 0.89269 0.0
H2593 H 0.07934 0.9625 0.89287 0.0
C2594 C 0.12005 0.02832 0.83094 0.0
C2595 C 0.12787 0.01383 0.82335 0.0
C2596 C 0.1129 0.02849 0.84795 0.0
C2597 C 0.11303 0.01418 0.8587 0.0
C2598 C 0.12059 0.99938 0.8512 0.0
C2599 C 0.12799 0.99928 0.83401 0.0
C2600 C 0.10539 0.01512 0.8775 0.0
C2601 C 0.0913 0.99985 0.88054 0.0
C2602 C 0.11078 0.03186 0.89194 0.0
C2603 C 0.12513 0.04896 0.89014 0.0
C2604 C 0.14219 0.04734 0.88688 0.0
C2605 C 0.15548 0.06346 0.88466 0.0
C2606 C 0.15189 0.08132 0.88578 0.0
C2607 C 0.13503 0.0831 0.8892 0.0
C2608 C 0.1217 0.06702 0.89142 0.0
C2609 C 0.06607 0.00473 0.95555 0.0
C2610 C 0.06328 0.02218 0.96426 0.0
C2611 C 0.07463 0.00337 0.93931 0.0
C2612 C 0.08017 0.01919 0.93021 0.0
C2613 C 0.07767 0.0368 0.93921 0.0
C2614 C 0.06943 0.03824 0.95574 0.0
C2615 C 0.08841 0.01744 0.91167 0.0
C2616 C 0.10255 0.03268 0.90854 0.0
C2617 C 0.08254 1.00096 0.89682 0.0
C2618 C 0.06619 0.98524 0.89694 0.0
C2619 C 0.04974 0.98933 0.89892 0.0
C2620 C 0.03429 0.97445 0.89885 0.0
C2621 C 0.0351 0.9554 0.89664 0.0
C2622 C 0.05134 0.95118 0.89445 0.0
C2623 C 0.06683 0.966 0.89453 0.0
H2624 H 0.02313 0.9439 0.89657 0.0
H2625 H 0.16218 0.09378 0.88403 0.0
H2626 H 0.79582 0.34821 0.54126 0.0
H2627 H 0.80737 0.34574 0.57248 0.0
H2628 H 0.79367 0.39723 0.59537 0.0
H2629 H 0.78222 0.40003 0.56411 0.0
H2630 H 0.83028 0.39805 0.60633 0.0
H2631 H 0.77048 0.35796 0.60504 0.0
H2632 H 0.74358 0.33256 0.58875 0.0
H2633 H 0.77408 0.2913 0.58471 0.0
H2634 H 0.80123 0.31653 0.60082 0.0
H2635 H 0.83135 0.37069 0.69919 0.0
H2636 H 0.8294 0.38567 0.67187 0.0
H2637 H 0.84975 0.3429 0.64081 0.0
H2638 H 0.85114 0.32746 0.66747 0.0
H2639 H 0.80995 0.34065 0.63502 0.0
H2640 H 0.86977 0.38075 0.63724 0.0
H2641 H 0.89719 0.40665 0.6511 0.0
H2642 H 0.86729 0.44841 0.65257 0.0
H2643 H 0.83958 0.42271 0.63901 0.0
C2644 C 0.79466 0.35864 0.55295 0.0
C2645 C 0.78841 0.37448 0.5502 0.0
C2646 C 0.80147 0.35735 0.57074 0.0
C2647 C 0.80168 0.37159 0.586 0.0
C2648 C 0.79388 0.38637 0.58359 0.0
C2649 C 0.78706 0.3877 0.56577 0.0
C2650 C 0.81032 0.37093 0.60442 0.0
C2651 C 0.82573 0.38574 0.61291 0.0
C2652 C 0.80442 0.35465 0.61253 0.0
C2653 C 0.78786 0.33911 0.60417 0.0
C2654 C 0.77142 0.34344 0.60075 0.0
C2655 C 0.75614 0.3291 0.59151 0.0
C2656 C 0.75712 0.31032 0.58571 0.0
C2657 C 0.77334 0.30584 0.58927 0.0
C2658 C 0.78867 0.32014 0.59852 0.0
C2659 C 0.83603 0.3649 0.68674 0.0
C2660 C 0.84066 0.34743 0.68524 0.0
C2661 C 0.83516 0.37364 0.67127 0.0
C2662 C 0.83916 0.36509 0.6544 0.0
C2663 C 0.84667 0.34965 0.65383 0.0
C2664 C 0.84744 0.34083 0.66919 0.0
C2665 C 0.83014 0.36767 0.63696 0.0
C2666 C 0.81449 0.35314 0.62867 0.0
C2667 C 0.83586 0.38425 0.62919 0.0
C2668 C 0.85251 0.39973 0.63739 0.0
C2669 C 0.86897 0.39541 0.64072 0.0
C2670 C 0.88459 0.41008 0.64844 0.0
C2671 C 0.88394 0.42913 0.65285 0.0
C2672 C 0.86775 0.43362 0.64921 0.0
C2673 C 0.85207 0.41901 0.64153 0.0
H2674 H 0.89598 0.44043 0.65911 0.0
H2675 H 0.7453 0.29926 0.57845 0.0
H2676 H 0.48305 0.03448 0.32397 0.0
H2677 H 0.49218 0.03064 0.35543 0.0
H2678 H 0.43907 0.02886 0.36873 0.0
H2679 H 0.43003 0.03337 0.33698 0.0
H2680 H 0.46462 0.05054 0.39614 0.0
H2681 H 0.45123 0.98696 0.36258 0.0
H2682 H 0.45019 0.96012 0.33719 0.0
H2683 H 0.50759 0.97282 0.34716 0.0
H2684 H 0.50904 0.99989 0.37241 0.0
H2685 H 0.50615 0.01136 0.47255 0.0
H2686 H 0.48529 0.00958 0.44491 0.0
H2687 H 0.52649 0.05033 0.42528 0.0
H2688 H 0.54732 0.05303 0.45354 0.0
H2689 H 0.49878 0.00295 0.40378 0.0
H2690 H 0.50859 0.07413 0.42905 0.0
H2691 H 0.50849 0.09976 0.4552 0.0
H2692 H 0.45503 0.06919 0.46129 0.0
H2693 H 0.45505 0.04315 0.43546 0.0
C2694 C 0.47348 0.03364 0.33377 0.0
C2695 C 0.45599 0.03437 0.32845 0.0
C2696 C 0.47855 0.0311 0.35154 0.0
C2697 C 0.46606 0.02877 0.36404 0.0
C2698 C 0.44873 0.03033 0.35904 0.0
C2699 C 0.44368 0.03315 0.34116 0.0
C2700 C 0.47188 0.0258 0.38262 0.0
C2701 C 0.47164 0.03978 0.3979 0.0
C2702 C 0.48094 0.01166 0.38484 0.0
C2703 C 0.48022 0.99551 0.36942 0.0
C2704 C 0.46365 0.98413 0.35928 0.0
C2705 C 0.46299 0.96885 0.34492 0.0
C2706 C 0.47881 0.96477 0.34057 0.0
C2707 C 0.49534 0.97597 0.35056 0.0
C2708 C 0.49608 0.99126 0.36493 0.0
C2709 C 0.51068 0.02021 0.46251 0.0
C2710 C 0.52816 0.03264 0.4652 0.0
C2711 C 0.49878 0.01912 0.44681 0.0
C2712 C 0.50441 0.03015 0.43354 0.0
C2713 C 0.52199 0.04212 0.43582 0.0
C2714 C 0.53382 0.04354 0.45176 0.0
C2715 C 0.49222 0.02825 0.41665 0.0
C2716 C 0.49123 0.01324 0.40194 0.0
C2717 C 0.48184 0.04117 0.41498 0.0
C2718 C 0.48194 0.05661 0.43061 0.0
C2719 C 0.49694 0.07276 0.43618 0.0
C2720 C 0.49688 0.08738 0.45089 0.0
C2721 C 0.48179 0.08608 0.45994 0.0
C2722 C 0.46673 0.07015 0.45431 0.0
C2723 C 0.46678 0.05544 0.43968 0.0
H2724 H 0.48174 0.09746 0.47128 0.0
H2725 H 0.47826 0.95292 0.32946 0.0
H2726 H 0.78874 0.6955 0.0567 0.0
H2727 H 0.78962 0.70574 0.09028 0.0
H2728 H 0.798 0.7646 0.0832 0.0
H2729 H 0.79642 0.75437 0.04948 0.0
H2730 H 0.81981 0.75483 0.11704 0.0
H2731 H 0.76082 0.74937 0.08481 0.0
H2732 H 0.73336 0.73259 0.06261 0.0
H2733 H 0.72303 0.68608 0.09274 0.0
H2734 H 0.75066 0.70245 0.11493 0.0
H2735 H 0.79992 0.79718 0.20179 0.0
H2736 H 0.80074 0.78829 0.16845 0.0
H2737 H 0.76961 0.73025 0.16885 0.0
H2738 H 0.7677 0.73969 0.20203 0.0
H2739 H 0.75996 0.73889 0.13793 0.0
H2740 H 0.81845 0.74635 0.17222 0.0
H2741 H 0.84582 0.7642 0.19428 0.0
H2742 H 0.85749 0.80724 0.16028 0.0
H2743 H 0.8301 0.78987 0.13821 0.0
C2744 C 0.79129 0.7107 0.06237 0.0
C2745 C 0.79253 0.72418 0.05054 0.0
C2746 C 0.79166 0.71648 0.0815 0.0
C2747 C 0.79373 0.73587 0.08908 0.0
C2748 C 0.79638 0.74958 0.07752 0.0
C2749 C 0.79551 0.74373 0.05833 0.0
C2750 C 0.79156 0.74156 0.10872 0.0
C2751 C 0.80676 0.7515 0.12168 0.0
C2752 C 0.77453 0.73687 0.11464 0.0
C2753 C 0.75795 0.72697 0.10133 0.0
C2754 C 0.75283 0.73544 0.08654 0.0
C2755 C 0.73721 0.72603 0.074 0.0
C2756 C 0.7265 0.70823 0.07621 0.0
C2757 C 0.73137 0.69983 0.09101 0.0
C2758 C 0.74702 0.70917 0.10357 0.0
C2759 C 0.79297 0.78265 0.19458 0.0
C2760 C 0.78374 0.76907 0.20426 0.0
C2761 C 0.79362 0.77749 0.17562 0.0
C2762 C 0.7858 0.75839 0.16622 0.0
C2763 C 0.7759 0.74502 0.1758 0.0
C2764 C 0.77476 0.75038 0.19469 0.0
C2765 C 0.78829 0.75229 0.14659 0.0
C2766 C 0.77311 0.74216 0.13351 0.0
C2767 C 0.80541 0.7568 0.14058 0.0
C2768 C 0.82215 0.76688 0.15364 0.0
C2769 C 0.82683 0.75965 0.16949 0.0
C2770 C 0.84233 0.7697 0.18201 0.0
C2771 C 0.8533 0.78687 0.17869 0.0
C2772 C 0.84893 0.79396 0.16282 0.0
C2773 C 0.83344 0.78402 0.15031 0.0
H2774 H 0.86523 0.79473 0.18834 0.0
H2775 H 0.71439 0.70098 0.0665 0.0
H2776 H 0.14554 0.00268 0.70279 0.0
H2777 H 0.13371 0.00431 0.67085 0.0
H2778 H 0.08466 0.01103 0.68951 0.0
H2779 H 0.09623 0.00913 0.721 0.0
H2780 H 0.07493 0.99125 0.65658 0.0
H2781 H 0.12077 0.04981 0.68075 0.0
H2782 H 0.15102 0.07045 0.69456 0.0
H2783 H 0.17275 0.04799 0.64729 0.0
H2784 H 0.14264 0.02698 0.63332 0.0
H2785 H 0.04903 0.04141 0.58348 0.0
H2786 H 0.06161 0.03635 0.61382 0.0
H2787 H 0.09366 0.00401 0.58623 0.0
H2788 H 0.08047 0.00821 0.55585 0.0
H2789 H 0.11221 0.03623 0.62262 0.0
H2790 H 0.06414 0.97819 0.59843 0.0
H2791 H 0.03284 0.96127 0.58469 0.0
H2792 H 0.01435 0.986 0.6333 0.0
H2793 H 0.04557 0.00353 0.64711 0.0
C2794 C 0.13207 0.00402 0.70005 0.0
C2795 C 0.12196 0.00559 0.71489 0.0
C2796 C 0.1253 0.00529 0.68164 0.0
C2797 C 0.10816 0.0082 0.67726 0.0
C2798 C 0.09785 0.00886 0.69195 0.0
C2799 C 0.10459 0.00772 0.71023 0.0
C2800 C 0.10103 0.01112 0.65785 0.0
C2801 C 0.08322 1.00121 0.64938 0.0
C2802 C 0.11138 0.02405 0.64778 0.0
C2803 C 0.12949 0.03663 0.65611 0.0
C2804 C 0.13202 0.04915 0.67337 0.0
C2805 C 0.14914 0.06093 0.68122 0.0
C2806 C 0.16381 0.06048 0.67184 0.0
C2807 C 0.16138 0.04828 0.65456 0.0
C2808 C 0.14429 0.03643 0.64667 0.0
C2809 C 0.05876 0.03321 0.5838 0.0
C2810 C 0.06356 0.02521 0.5669 0.0
C2811 C 0.06602 0.03031 0.6013 0.0
C2812 C 0.07882 0.01982 0.60271 0.0
C2813 C 0.08394 0.01222 0.58587 0.0
C2814 C 0.07626 0.01458 0.56835 0.0
C2815 C 0.08636 0.01626 0.62151 0.0
C2816 C 0.10411 0.02615 0.62986 0.0
C2817 C 0.0759 0.00355 0.63159 0.0
C2818 C 0.05719 0.99242 0.62368 0.0
C2819 C 0.0534 0.98021 0.6061 0.0
C2820 C 0.03567 0.97054 0.59828 0.0
C2821 C 0.0216 0.97272 0.60804 0.0
C2822 C 0.02526 0.98443 0.62571 0.0
C2823 C 0.04298 0.99426 0.63353 0.0
H2824 H 0.00788 0.96517 0.60199 0.0
H2825 H 0.17705 0.06963 0.67793 0.0
H2826 H 0.82426 0.40688 0.45217 0.0
H2827 H 0.8249 0.38894 0.42115 0.0
H2828 H 0.77835 0.34453 0.42724 0.0
H2829 H 0.77722 0.36282 0.4579 0.0
H2830 H 0.81716 0.33699 0.41763 0.0
H2831 H 0.76559 0.36238 0.4012 0.0
H2832 H 0.75291 0.38997 0.40137 0.0
H2833 H 0.79493 0.4174 0.37279 0.0
H2834 H 0.80805 0.3901 0.37283 0.0
H2835 H 0.78726 0.27267 0.33046 0.0
H2836 H 0.7927 0.29251 0.36175 0.0
H2837 H 0.815 0.34325 0.33936 0.0
H2838 H 0.80817 0.32396 0.30829 0.0
H2839 H 0.79119 0.34956 0.35802 0.0
H2840 H 0.84092 0.32505 0.36901 0.0
H2841 H 0.85729 0.30043 0.36916 0.0
H2842 H 0.82499 0.27505 0.40769 0.0
H2843 H 0.80819 0.29934 0.40753 0.0
C2844 C 0.81388 0.39359 0.44652 0.0
C2845 C 0.80049 0.38624 0.45695 0.0
C2846 C 0.81439 0.38333 0.42907 0.0
C2847 C 0.80179 0.36548 0.4223 0.0
C2848 C 0.78815 0.35833 0.4325 0.0
C2849 C 0.78734 0.36885 0.44972 0.0
C2850 C 0.8029 0.35416 0.40451 0.0
C2851 C 0.81139 0.33947 0.40451 0.0
C2852 C 0.79606 0.35825 0.38767 0.0
C2853 C 0.7879 0.37435 0.38722 0.0
C2854 C 0.77221 0.37439 0.39512 0.0
C2855 C 0.76493 0.38995 0.39516 0.0
C2856 C 0.77314 0.40546 0.38715 0.0
C2857 C 0.7886 0.4054 0.37902 0.0
C2858 C 0.79596 0.38989 0.37901 0.0
C2859 C 0.79362 0.28799 0.33239 0.0
C2860 C 0.79744 0.2968 0.31709 0.0
C2861 C 0.79683 0.29929 0.3502 0.0
C2862 C 0.80433 0.31934 0.35281 0.0
C2863 C 0.80917 0.32784 0.33762 0.0
C2864 C 0.80546 0.31672 0.31989 0.0
C2865 C 0.80519 0.3318 0.37083 0.0
C2866 C 0.79713 0.3469 0.37098 0.0
C2867 C 0.81294 0.3284 0.38773 0.0
C2868 C 0.82318 0.31393 0.38813 0.0
C2869 C 0.83722 0.31414 0.37742 0.0
C2870 C 0.84658 0.30025 0.37752 0.0
C2871 C 0.84216 0.28616 0.38839 0.0
C2872 C 0.82839 0.28597 0.39925 0.0
C2873 C 0.81895 0.29981 0.39918 0.0
H2874 H 0.84941 0.2754 0.38843 0.0
H2875 H 0.76749 0.4175 0.38719 0.0
H2876 H 0.44907 0.05401 0.21923 0.0
H2877 H 0.44878 0.03337 0.18941 0.0
H2878 H 0.47558 0.99911 0.21824 0.0
H2879 H 0.47701 0.02018 0.24755 0.0
H2880 H 0.49209 0.00954 0.19239 0.0
H2881 H 0.4312 0.98007 0.19542 0.0
H2882 H 0.3999 0.97794 0.20003 0.0
H2883 H 0.39326 0.00568 0.15353 0.0
H2884 H 0.42459 0.0083 0.14882 0.0
H2885 H 0.507 0.98202 0.10441 0.0
H2886 H 0.48827 0.97035 0.12741 0.0
H2887 H 0.46503 0.01786 0.12757 0.0
H2888 H 0.4838 0.02971 0.10513 0.0
H2889 H 0.44255 0.9856 0.13929 0.0
H2890 H 0.50434 0.02992 0.15119 0.0
H2891 H 0.53646 0.03809 0.14779 0.0
H2892 H 0.5411 0.98718 0.16767 0.0
H2893 H 0.50887 0.97858 0.17084 0.0
C2894 C 0.45527 0.04234 0.21902 0.0
C2895 C 0.46353 0.03908 0.23557 0.0
C2896 C 0.4546 0.03023 0.20215 0.0
C2897 C 0.46173 0.01442 0.20176 0.0
C2898 C 0.46986 0.01113 0.2183 0.0
C2899 C 0.47102 0.02349 0.23498 0.0
C2900 C 0.46358 0.00339 0.18391 0.0
C2901 C 0.48106 0.00349 0.18102 0.0
C2902 C 0.44924 0.99588 0.16902 0.0
C2903 C 0.43032 0.99438 0.17177 0.0
C2904 C 0.42312 0.98583 0.18623 0.0
C2905 C 0.40535 0.98452 0.18886 0.0
C2906 C 0.3946 0.99165 0.17707 0.0
C2907 C 0.40159 1.00012 0.16263 0.0
C2908 C 0.41935 1.00149 0.15995 0.0
C2909 C 0.49743 0.98953 0.10893 0.0
C2910 C 0.4972 0.00706 0.1036 0.0
C2911 C 0.48656 0.98269 0.12176 0.0
C2912 C 0.47546 0.99338 0.1292 0.0
C2913 C 0.47347 0.00939 0.1219 0.0
C2914 C 0.48452 0.01639 0.10943 0.0
C2915 C 0.47102 0.9925 0.148 0.0
C2916 C 0.4532 0.99037 0.15109 0.0
C2917 C 0.48503 0.99863 0.16323 0.0
C2918 C 0.50422 0.00341 0.16086 0.0
C2919 C 0.51219 0.02036 0.15459 0.0
C2920 C 0.5304 0.02509 0.15275 0.0
C2921 C 0.5408 0.01311 0.15742 0.0
C2922 C 0.533 0.99638 0.16395 0.0
C2923 C 0.51476 0.99154 0.16572 0.0
H2924 H 0.55492 0.01682 0.15607 0.0
H2925 H 0.38084 0.99062 0.17911 0.0
H2926 H 0.75667 0.71579 0.93899 0.0
H2927 H 0.76173 0.72526 0.90914 0.0
H2928 H 0.81683 0.72421 0.91926 0.0
H2929 H 0.81167 0.71407 0.94927 0.0
H2930 H 0.80684 0.76055 0.90721 0.0
H2931 H 0.79715 0.69172 0.88975 0.0
H2932 H 0.78082 0.65784 0.88888 0.0
H2933 H 0.73322 0.66648 0.86122 0.0
H2934 H 0.74921 0.70052 0.86218 0.0
H2935 H 0.82325 0.77678 0.81718 0.0
H2936 H 0.82253 0.76469 0.84632 0.0
H2937 H 0.76507 0.74103 0.83289 0.0
H2938 H 0.76583 0.75275 0.80339 0.0
H2939 H 0.77843 0.71661 0.8472 0.0
H2940 H 0.78519 0.78377 0.86485 0.0
H2941 H 0.79833 0.81868 0.8673 0.0
H2942 H 0.84774 0.81505 0.89586 0.0
H2943 H 0.83498 0.78004 0.89334 0.0
C2944 C 0.76987 0.71747 0.93486 0.0
C2945 C 0.78379 0.71419 0.94646 0.0
C2946 C 0.77272 0.72287 0.9178 0.0
C2947 C 0.78963 0.72546 0.91205 0.0
C2948 C 0.80367 0.72227 0.92353 0.0
C2949 C 0.8007 0.71639 0.94055 0.0
C2950 C 0.79228 0.73159 0.89398 0.0
C2951 C 0.80106 0.75089 0.89401 0.0
C2952 C 0.78394 0.71916 0.87693 0.0
C2953 C 0.77433 0.69869 0.87619 0.0
C2954 C 0.78316 0.68644 0.88363 0.0
C2955 C 0.77397 0.6672 0.88309 0.0
C2956 C 0.75598 0.66002 0.87504 0.0
C2957 C 0.74715 0.67206 0.86746 0.0
C2958 C 0.75628 0.69132 0.86799 0.0
C2959 C 0.81047 0.76886 0.82037 0.0
C2960 C 0.79458 0.76575 0.80805 0.0
C2961 C 0.81006 0.76209 0.83712 0.0
C2962 C 0.79371 0.75226 0.84205 0.0
C2963 C 0.77786 0.74864 0.82947 0.0
C2964 C 0.77829 0.75532 0.81261 0.0
C2965 C 0.79319 0.74568 0.86023 0.0
C2966 C 0.78458 0.72631 0.86029 0.0
C2967 C 0.80137 0.75821 0.87741 0.0
C2968 C 0.80921 0.77922 0.87868 0.0
C2969 C 0.79893 0.79037 0.87147 0.0
C2970 C 0.80629 0.81019 0.87291 0.0
C2971 C 0.82388 0.81906 0.88167 0.0
C2972 C 0.83413 0.80814 0.88904 0.0
C2973 C 0.82684 0.78831 0.88761 0.0
H2974 H 0.82955 0.83441 0.8828 0.0
H2975 H 0.74889 0.64512 0.87463 0.0
H2976 H 0.83872 0.13607 0.02938 0.0
H2977 H 0.86437 0.1237 0.02377 0.0
H2978 H 0.83248 0.08304 0.97581 0.0
H2979 H 0.80672 0.09525 0.9813 0.0
H2980 H 0.85114 0.06678 0.99946 0.0
H2981 H 0.86247 0.12134 0.96914 0.0
H2982 H 0.86606 0.15546 0.96744 0.0
H2983 H 0.91088 0.17249 0.01133 0.0
H2984 H 0.90738 0.13845 0.0135 0.0
H2985 H 0.91949 0.03275 0.96601 0.0
H2986 H 0.89602 0.04914 0.96646 0.0
H2987 H 0.92806 0.09268 0.01234 0.0
H2988 H 0.95217 0.07699 0.01127 0.0
H2989 H 0.90933 0.10797 0.9888 0.0
H2990 H 0.89723 0.05443 0.02069 0.0
H2991 H 0.89325 0.02063 0.02399 0.0
H2992 H 0.84965 1.00214 0.97871 0.0
H2993 H 0.85355 0.03582 0.97497 0.0
C2994 C 0.83716 0.12449 0.01764 0.0
C2995 C 0.82074 0.11661 0.00575 0.0
C2996 C 0.85184 0.11754 0.01441 0.0
C2997 C 0.85028 0.10266 0.99927 0.0
C2998 C 0.83388 0.09462 0.98751 0.0
C2999 C 0.81922 0.10161 0.99066 0.0
C3000 C 0.86563 0.09505 0.99602 0.0
C3001 C 0.86378 0.07568 0.99681 0.0
C3002 C 0.88219 0.10691 0.99311 0.0
C3003 C 0.88456 0.12736 0.99159 0.0
C3004 C 0.87302 0.13236 0.97851 0.0
C3005 C 0.87505 0.15169 0.97745 0.0
C3006 C 0.88866 0.16614 0.9893 0.0
C3007 C 0.90033 0.16128 0.00218 0.0
C3008 C 0.89834 0.14197 0.00331 0.0
C3009 C 0.9218 0.04609 0.97587 0.0
C3010 C 0.93759 0.05342 0.9888 0.0
C3011 C 0.9083 0.05534 0.9762 0.0
C3012 C 0.9102 0.07182 0.98971 0.0
C3013 C 0.92633 0.07985 0.00192 0.0
C3014 C 0.93996 0.07073 1.00145 0.0
C3015 C 0.89478 0.07964 0.99212 0.0
C3016 C 0.89665 0.09905 0.99128 0.0
C3017 C 0.87822 0.06786 0.99515 0.0
C3018 C 0.87579 0.04761 0.99744 0.0
C3019 C 0.88688 0.04314 0.01135 0.0
C3020 C 0.88463 0.02401 0.01331 0.0
C3021 C 0.87123 0.00924 0.00154 0.0
C3022 C 0.86003 0.01358 0.9878 0.0
C3023 C 0.86225 0.03269 0.98576 0.0
H3024 H 0.8695 0.99444 0.00308 0.0
H3025 H 0.89019 0.1811 0.98848 0.0
H3026 H 0.36306 0.39118 0.01425 0.0
H3027 H 0.3915 0.41324 0.01191 0.0
H3028 H 0.37312 0.46132 0.03529 0.0
H3029 H 0.34397 0.439 0.03741 0.0
H3030 H 0.39232 0.46865 0.0058 0.0
H3031 H 0.40148 0.44448 0.06236 0.0
H3032 H 0.40008 0.41898 0.08094 0.0
H3033 H 0.43318 0.39468 0.04657 0.0
H3034 H 0.43458 0.4199 0.02764 0.0
H3035 H 0.47804 0.53583 0.0277 0.0
H3036 H 0.44827 0.51466 0.02717 0.0
H3037 H 0.46796 0.46517 0.01251 0.0
H3038 H 0.49829 0.48662 0.01449 0.0
H3039 H 0.44755 0.45851 0.03707 0.0
H3040 H 0.4392 0.4814 0.98055 0.0
H3041 H 0.44007 0.50512 0.96001 0.0
H3042 H 0.40534 0.52997 0.99145 0.0
H3043 H 0.40445 0.50656 0.01235 0.0
C3044 C 0.36491 0.40643 0.01898 0.0
C3045 C 0.35118 0.41324 0.02631 0.0
C3046 C 0.38131 0.41907 0.01762 0.0
C3047 C 0.38469 0.43895 0.02379 0.0
C3048 C 0.37088 0.44601 0.03057 0.0
C3049 C 0.35425 0.43325 0.03183 0.0
C3050 C 0.40282 0.45202 0.02336 0.0
C3051 C 0.40439 0.46668 0.0129 0.0
C3052 C 0.41868 0.44899 0.03199 0.0
C3053 C 0.41804 0.434 0.04353 0.0
C3054 C 0.40839 0.43364 0.05872 0.0
C3055 C 0.4076 0.41924 0.06931 0.0
C3056 C 0.41651 0.4052 0.06492 0.0
C3057 C 0.42627 0.40556 0.04995 0.0
C3058 C 0.42709 0.41991 0.0393 0.0
C3059 C 0.47608 0.52043 0.02422 0.0
C3060 C 0.49058 0.51294 0.02059 0.0
C3061 C 0.4589 0.50828 0.02372 0.0
C3062 C 0.45554 0.4882 0.01925 0.0
C3063 C 0.47003 0.48061 0.01571 0.0
C3064 C 0.48739 0.49286 0.0165 0.0
C3065 C 0.4372 0.4753 0.01949 0.0
C3066 C 0.43555 0.4606 0.02994 0.0
C3067 C 0.42131 0.47815 0.0106 0.0
C3068 C 0.42191 0.49233 0.99813 0.0
C3069 C 0.43187 0.49202 0.98319 0.0
C3070 C 0.43234 0.50539 0.97146 0.0
C3071 C 0.4228 0.51907 0.97445 0.0
C3072 C 0.41274 0.51938 0.98916 0.0
C3073 C 0.41223 0.50606 1.00094 0.0
H3074 H 0.42318 0.5294 0.96535 0.0
H3075 H 0.41587 0.39406 0.07313 0.0
H3076 H 0.41425 0.62878 0.75999 0.0
H3077 H 0.40301 0.65762 0.76163 0.0
H3078 H 0.34991 0.62269 0.76384 0.0
H3079 H 0.36089 0.59435 0.76224 0.0
H3080 H 0.34489 0.6458 0.7429 0.0
H3081 H 0.38125 0.65853 0.8027 0.0
H3082 H 0.40867 0.66497 0.82527 0.0
H3083 H 0.4334 0.71433 0.80268 0.0
H3084 H 0.40622 0.70801 0.77978 0.0
H3085 H 0.29936 0.71725 0.76696 0.0
H3086 H 0.31412 0.69165 0.76604 0.0
H3087 H 0.3653 0.73308 0.76907 0.0
H3088 H 0.35043 0.75911 0.77087 0.0
H3089 H 0.37302 0.70798 0.786 0.0
H3090 H 0.3378 0.69575 0.72621 0.0
H3091 H 0.31064 0.69027 0.70351 0.0
H3092 H 0.28466 0.64063 0.72505 0.0
H3093 H 0.31159 0.64596 0.74804 0.0
C3094 C 0.40015 0.62712 0.76076 0.0
C3095 C 0.38873 0.60856 0.7609 0.0
C3096 C 0.39362 0.64392 0.76188 0.0
C3097 C 0.37528 0.64308 0.76306 0.0
C3098 C 0.36401 0.6245 0.76295 0.0
C3099 C 0.37049 0.60794 0.76204 0.0
C3100 C 0.36741 0.66083 0.76397 0.0
C3101 C 0.35113 0.65923 0.75259 0.0
C3102 C 0.37526 0.67917 0.77598 0.0
C3103 C 0.3918 0.6826 0.78932 0.0
C3104 C 0.39262 0.6706 0.80237 0.0
C3105 C 0.4081 0.67427 0.81527 0.0
C3106 C 0.4228 0.69 0.81536 0.0
C3107 C 0.42204 0.70211 0.80255 0.0
C3108 C 0.4066 0.69848 0.7896 0.0
C3109 C 0.31379 0.72117 0.76745 0.0
C3110 C 0.32336 0.74079 0.76889 0.0
C3111 C 0.3224 0.70615 0.76667 0.0
C3112 C 0.34119 0.70957 0.76682 0.0
C3113 C 0.35089 0.72929 0.7687 0.0
C3114 C 0.34224 0.74445 0.76971 0.0
C3115 C 0.35039 0.6928 0.76509 0.0
C3116 C 0.36686 0.69456 0.77628 0.0
C3117 C 0.34285 0.67462 0.75274 0.0
C3118 C 0.32665 0.67136 0.73895 0.0
C3119 C 0.32625 0.68373 0.72617 0.0
C3120 C 0.31091 0.68065 0.71325 0.0
C3121 C 0.29592 0.66514 0.71286 0.0
C3122 C 0.29627 0.65265 0.72538 0.0
C3123 C 0.31158 0.65569 0.73835 0.0
H3124 H 0.28405 0.66277 0.70285 0.0
H3125 H 0.43475 0.69284 0.82539 0.0
H3126 H 0.2258 0.64147 0.49498 0.0
H3127 H 0.1944 0.62319 0.49135 0.0
H3128 H 0.2099 0.57522 0.50827 0.0
H3129 H 0.24164 0.5936 0.51211 0.0
H3130 H 0.17372 0.57197 0.47575 0.0
H3131 H 0.20367 0.59193 0.54134 0.0
H3132 H 0.22515 0.6154 0.56653 0.0
H3133 H 0.19826 0.65836 0.55812 0.0
H3134 H 0.17684 0.63521 0.53258 0.0
H3135 H 0.09257 0.53688 0.51 0.0
H3136 H 0.1252 0.54673 0.51177 0.0
H3137 H 0.12358 0.60382 0.50497 0.0
H3138 H 0.09061 0.59364 0.50242 0.0
H3139 H 0.15328 0.59909 0.53346 0.0
H3140 H 0.12547 0.58226 0.46841 0.0
H3141 H 0.10053 0.56006 0.44571 0.0
H3142 H 0.1216 0.51275 0.45352 0.0
H3143 H 0.14632 0.53456 0.47688 0.0
C3144 C 0.22255 0.62688 0.49756 0.0
C3145 C 0.23594 0.61905 0.50437 0.0
C3146 C 0.20469 0.61642 0.49523 0.0
C3147 C 0.20009 0.59807 0.49972 0.0
C3148 C 0.21343 0.5894 0.5047 0.0
C3149 C 0.23143 0.59991 0.50702 0.0
C3150 C 0.18173 0.59024 0.50298 0.0
C3151 C 0.16929 0.57745 0.48852 0.0
C3152 C 0.17606 0.59803 0.51945 0.0
C3153 C 0.18883 0.61192 0.53489 0.0
C3154 C 0.20248 0.60644 0.54471 0.0
C3155 C 0.21461 0.61968 0.55908 0.0
C3156 C 0.21312 0.63839 0.56386 0.0
C3157 C 0.19943 0.64388 0.55435 0.0
C3158 C 0.1873 0.63071 0.53992 0.0
C3159 C 0.0992 0.55138 0.5085 0.0
C3160 C 0.08941 0.56434 0.50509 0.0
C3161 C 0.11773 0.55709 0.51 0.0
C3162 C 0.1265 0.5759 0.50844 0.0
C3163 C 0.1168 0.58926 0.50625 0.0
C3164 C 0.09817 0.58344 0.50452 0.0
C3165 C 0.14544 0.58068 0.50644 0.0
C3166 C 0.15785 0.59315 0.52096 0.0
C3167 C 0.15103 0.57271 0.49006 0.0
C3168 C 0.13769 0.56 0.4744 0.0
C3169 C 0.12478 0.5671 0.46527 0.0
C3170 C 0.11057 0.55456 0.45247 0.0
C3171 C 0.10931 0.53493 0.44844 0.0
C3172 C 0.12246 0.52789 0.45692 0.0
C3173 C 0.13659 0.54033 0.46993 0.0
H3174 H 0.09829 0.52522 0.43854 0.0
H3175 H 0.22254 0.64861 0.57497 0.0
H3176 H 0.7175 0.01559 0.75585 0.0
H3177 H 0.73298 0.99206 0.76328 0.0
H3178 H 0.68207 0.94937 0.75862 0.0
H3179 H 0.66643 0.9727 0.75121 0.0
H3180 H 0.70492 0.95459 0.79198 0.0
H3181 H 0.70583 0.94393 0.7261 0.0
H3182 H 0.71146 0.95355 0.69606 0.0
H3183 H 0.76767 0.97657 0.71682 0.0
H3184 H 0.76233 0.96733 0.7471 0.0
H3185 H 0.73777 0.87104 0.78916 0.0
H3186 H 0.72175 0.89521 0.78544 0.0
H3187 H 0.77224 0.93829 0.78904 0.0
H3188 H 0.78828 0.91424 0.79225 0.0
H3189 H 0.74925 0.93292 0.75643 0.0
H3190 H 0.74802 0.94059 0.82202 0.0
H3191 H 0.74161 0.93095 0.85182 0.0
H3192 H 0.68511 0.91369 0.83187 0.0
H3193 H 0.69116 0.92278 0.80176 0.0
C3194 C 0.70962 1.00114 0.7562 0.0
C3195 C 0.6908 0.99597 0.75311 0.0
C3196 C 0.71846 0.98777 0.76039 0.0
C3197 C 0.70855 0.96916 0.76145 0.0
C3198 C 0.68981 0.96378 0.75787 0.0
C3199 C 0.68096 0.9771 0.75364 0.0
C3200 C 0.71774 0.95561 0.76736 0.0
C3201 C 0.71443 0.94953 0.78414 0.0
C3202 C 0.73037 0.94966 0.75718 0.0
C3203 C 0.73365 0.95511 0.73894 0.0
C3204 C 0.71937 0.95119 0.72432 0.0
C3205 C 0.72251 0.95655 0.70724 0.0
C3206 C 0.7399 0.96571 0.70455 0.0
C3207 C 0.7542 0.96949 0.71893 0.0
C3208 C 0.75113 0.96418 0.73605 0.0
C3209 C 0.74541 0.88578 0.78955 0.0
C3210 C 0.7642 0.89083 0.79085 0.0
C3211 C 0.73629 0.89952 0.78756 0.0
C3212 C 0.74593 0.91838 0.78695 0.0
C3213 C 0.7647 0.92374 0.78952 0.0
C3214 C 0.77381 0.91005 0.79151 0.0
C3215 C 0.7365 0.93184 0.78118 0.0
C3216 C 0.73974 0.9379 0.76433 0.0
C3217 C 0.72371 0.93765 0.79129 0.0
C3218 C 0.72009 0.93203 0.80942 0.0
C3219 C 0.73424 0.93444 0.82383 0.0
C3220 C 0.73066 0.92914 0.84084 0.0
C3221 C 0.71297 0.92162 0.84372 0.0
C3222 C 0.69881 0.91949 0.82963 0.0
C3223 C 0.70232 0.92472 0.81258 0.0
H3224 H 0.71023 0.91753 0.85689 0.0
H3225 H 0.7423 0.96985 0.69131 0.0
H3226 H 0.74021 0.89634 0.52984 0.0
H3227 H 0.71337 0.90795 0.5265 0.0
H3228 H 0.7407 0.95109 0.49753 0.0
H3229 H 0.76732 0.93931 0.50036 0.0
H3230 H 0.72399 0.96511 0.52793 0.0
H3231 H 0.71081 0.91584 0.47306 0.0
H3232 H 0.70554 0.88316 0.45476 0.0
H3233 H 0.66133 0.86214 0.48354 0.0
H3234 H 0.66654 0.89465 0.50229 0.0
H3235 H 0.65681 0.00473 0.4974 0.0
H3236 H 0.67971 0.98759 0.49632 0.0
H3237 H 0.64587 0.94164 0.51756 0.0
H3238 H 0.62238 0.95835 0.5179 0.0
H3239 H 0.66488 0.92756 0.4917 0.0
H3240 H 0.67808 0.97585 0.54699 0.0
H3241 H 0.68228 0.00852 0.5649 0.0
H3242 H 0.7259 0.03076 0.53581 0.0
H3243 H 0.72177 0.99824 0.51752 0.0
C3244 C 0.7405 0.90831 0.52277 0.0
C3245 C 0.75598 0.91696 0.51545 0.0
C3246 C 0.7251 0.91483 0.52075 0.0
C3247 C 0.72498 0.93033 0.51167 0.0
C3248 C 0.74045 0.93907 0.50452 0.0
C3249 C 0.75568 0.93233 0.50619 0.0
C3250 C 0.70912 0.93814 0.51037 0.0
C3251 C 0.71114 0.95693 0.51985 0.0
C3252 C 0.69215 0.92731 0.50025 0.0
C3253 C 0.68927 0.90764 0.48932 0.0
C3254 C 0.70014 0.9042 0.47571 0.0
C3255 C 0.69712 0.88572 0.4652 0.0
C3256 C 0.68316 0.87056 0.46804 0.0
C3257 C 0.67218 0.87387 0.4814 0.0
C3258 C 0.67517 0.89233 0.49198 0.0
C3259 C 0.65394 0.99077 0.50143 0.0
C3260 C 0.63768 0.98309 0.5079 0.0
C3261 C 0.6672 0.98104 0.50097 0.0
C3262 C 0.66471 0.96347 0.50721 0.0
C3263 C 0.64819 0.95523 0.5128 0.0
C3264 C 0.63483 0.96494 0.51318 0.0
C3265 C 0.67988 0.95459 0.5091 0.0
C3266 C 0.67773 0.93565 0.49984 0.0
C3267 C 0.69674 0.96517 0.51956 0.0
C3268 C 0.69953 0.98465 0.5308 0.0
C3269 C 0.68851 0.98773 0.54436 0.0
C3270 C 0.69088 0.00621 0.55457 0.0
C3271 C 0.70433 0.02171 0.55147 0.0
C3272 C 0.71548 0.01874 0.53819 0.0
C3273 C 0.71315 1.00029 0.52791 0.0
H3274 H 0.70613 0.03602 0.55938 0.0
H3275 H 0.68082 0.85627 0.45986 0.0
H3276 H 0.36945 0.5044 0.75137 0.0
H3277 H 0.35071 0.47197 0.75299 0.0
H3278 H 0.39814 0.45235 0.75901 0.0
H3279 H 0.41641 0.48375 0.75676 0.0
H3280 H 0.37616 0.4245 0.73932 0.0
H3281 H 0.37068 0.46264 0.79626 0.0
H3282 H 0.36362 0.48912 0.81653 0.0
H3283 H 0.30873 0.46928 0.79025 0.0
H3284 H 0.31553 0.44281 0.76965 0.0
H3285 H 0.33462 0.33409 0.76728 0.0
H3286 H 0.35325 0.36669 0.76627 0.0
H3287 H 0.30546 0.38517 0.75711 0.0
H3288 H 0.28715 0.3532 0.75874 0.0
H3289 H 0.3277 0.41347 0.77848 0.0
H3290 H 0.33535 0.37405 0.72155 0.0
H3291 H 0.34424 0.34721 0.70396 0.0
H3292 H 0.39775 0.36963 0.73377 0.0
H3293 H 0.38912 0.39647 0.75167 0.0
C3294 C 0.37589 0.49318 0.75296 0.0
C3295 C 0.39472 0.49724 0.75382 0.0
C3296 C 0.36509 0.47444 0.75406 0.0
C3297 C 0.37271 0.45908 0.75632 0.0
C3298 C 0.39146 0.46332 0.75713 0.0
C3299 C 0.40208 0.48173 0.75589 0.0
C3300 C 0.3617 0.43867 0.75777 0.0
C3301 C 0.3657 0.42231 0.7481 0.0
C3302 C 0.34778 0.43498 0.76902 0.0
C3303 C 0.34366 0.45091 0.78127 0.0
C3304 C 0.35714 0.46402 0.79471 0.0
C3305 C 0.35318 0.47901 0.80627 0.0
C3306 C 0.33576 0.48092 0.80463 0.0
C3307 C 0.32224 0.46781 0.79146 0.0
C3308 C 0.32613 0.45281 0.77984 0.0
C3309 C 0.32809 0.34509 0.76506 0.0
C3310 C 0.30918 0.34063 0.76304 0.0
C3311 C 0.33881 0.36392 0.76432 0.0
C3312 C 0.33106 0.37896 0.76128 0.0
C3313 C 0.31219 0.37435 0.75948 0.0
C3314 C 0.30158 0.35575 0.76034 0.0
C3315 C 0.34211 0.39937 0.75995 0.0
C3316 C 0.33813 0.41572 0.76966 0.0
C3317 C 0.35632 0.40307 0.74905 0.0
C3318 C 0.36154 0.38714 0.73805 0.0
C3319 C 0.34899 0.3732 0.72438 0.0
C3320 C 0.35398 0.35799 0.71437 0.0
C3321 C 0.37153 0.35668 0.71778 0.0
C3322 C 0.38416 0.37063 0.73116 0.0
C3323 C 0.37922 0.38585 0.74123 0.0
H3324 H 0.37536 0.34488 0.71005 0.0
H3325 H 0.33271 0.49252 0.81361 0.0
H3326 H 0.1854 0.57662 0.23459 0.0
H3327 H 0.20905 0.60668 0.23855 0.0
H3328 H 0.19867 0.62291 0.29466 0.0
H3329 H 0.17412 0.59325 0.29026 0.0
H3330 H 0.2001 0.65089 0.27831 0.0
H3331 H 0.23868 0.61019 0.28367 0.0
H3332 H 0.25048 0.58235 0.27501 0.0
H3333 H 0.26211 0.60024 0.22356 0.0
H3334 H 0.25018 0.62806 0.2318 0.0
H3335 H 0.27215 0.7337 0.29903 0.0
H3336 H 0.2573 0.70008 0.29878 0.0
H3337 H 0.2516 0.68771 0.23878 0.0
H3338 H 0.26648 0.72148 0.23873 0.0
H3339 H 0.26043 0.65806 0.25911 0.0
H3340 H 0.2178 0.6962 0.25313 0.0
H3341 H 0.20785 0.72511 0.26311 0.0
H3342 H 0.20587 0.71213 0.31802 0.0
H3343 H 0.21593 0.6832 0.30836 0.0
C3344 C 0.18832 0.58652 0.24784 0.0
C3345 C 0.17796 0.5828 0.2621 0.0
C3346 C 0.20196 0.60361 0.25016 0.0
C3347 C 0.20585 0.61691 0.26702 0.0
C3348 C 0.19589 0.61282 0.28154 0.0
C3349 C 0.1819 0.59595 0.27903 0.0
C3350 C 0.21901 0.63587 0.26877 0.0
C3351 C 0.21342 0.65234 0.27449 0.0
C3352 C 0.23625 0.63787 0.26334 0.0
C3353 C 0.2434 0.62113 0.25831 0.0
C3354 C 0.24363 0.60811 0.27045 0.0
C3355 C 0.25037 0.59235 0.26563 0.0
C3356 C 0.25701 0.58951 0.24873 0.0
C3357 C 0.25696 0.60245 0.23664 0.0
C3358 C 0.25023 0.61823 0.24139 0.0
C3359 C 0.26804 0.72384 0.28574 0.0
C3360 C 0.27019 0.73031 0.26885 0.0
C3361 C 0.25966 0.70464 0.28569 0.0
C3362 C 0.25333 0.69167 0.26878 0.0
C3363 C 0.25652 0.69767 0.25194 0.0
C3364 C 0.26489 0.71695 0.25195 0.0
C3365 C 0.24138 0.6726 0.26865 0.0
C3366 C 0.24717 0.65631 0.26315 0.0
C3367 C 0.22439 0.67068 0.27444 0.0
C3368 C 0.21768 0.68762 0.28006 0.0
C3369 C 0.21525 0.69954 0.26733 0.0
C3370 C 0.20959 0.71591 0.27293 0.0
C3371 C 0.20623 0.72045 0.29119 0.0
C3372 C 0.20844 0.70857 0.30387 0.0
C3373 C 0.21408 0.69216 0.29833 0.0
H3374 H 0.20191 0.73317 0.29552 0.0
H3375 H 0.26222 0.5773 0.24503 0.0
H3376 H 0.52812 0.71237 0.4208 0.0
H3377 H 0.53709 0.68677 0.43397 0.0
H3378 H 0.49611 0.6845 0.4696 0.0
H3379 H 0.48727 0.70988 0.45682 0.0
H3380 H 0.52597 0.683 0.48892 0.0
H3381 H 0.49028 0.65039 0.43005 0.0
H3382 H 0.48179 0.64444 0.39596 0.0
H3383 H 0.53294 0.63507 0.38821 0.0
H3384 H 0.5418 0.64119 0.42229 0.0
H3385 H 0.50849 0.58336 0.50273 0.0
H3386 H 0.50516 0.61228 0.49134 0.0
H3387 H 0.55951 0.62455 0.47928 0.0
H3388 H 0.56318 0.59616 0.4913 0.0
H3389 H 0.52581 0.6219 0.4485 0.0
H3390 H 0.56029 0.65311 0.5088 0.0
H3391 H 0.56708 0.6583 0.543 0.0
H3392 H 0.51618 0.66947 0.54815 0.0
H3393 H 0.50894 0.66396 0.51391 0.0
C3394 C 0.52102 0.70638 0.43141 0.0
C3395 C 0.50689 0.71317 0.4376 0.0
C3396 C 0.52614 0.69173 0.43893 0.0
C3397 C 0.51722 0.68359 0.45276 0.0
C3398 C 0.50327 0.69053 0.45904 0.0
C3399 C 0.49815 0.70503 0.45155 0.0
C3400 C 0.52198 0.66761 0.46059 0.0
C3401 C 0.52587 0.66964 0.48004 0.0
C3402 C 0.52205 0.65018 0.44912 0.0
C3403 C 0.51677 0.64647 0.42867 0.0
C3404 C 0.49976 0.64721 0.42106 0.0
C3405 C 0.49487 0.64378 0.40175 0.0
C3406 C 0.50684 0.63945 0.38992 0.0
C3407 C 0.5237 0.63847 0.39739 0.0
C3408 C 0.52866 0.64191 0.41669 0.0
C3409 C 0.51977 0.59233 0.49781 0.0
C3410 C 0.53612 0.58755 0.49798 0.0
C3411 C 0.51787 0.60883 0.49135 0.0
C3412 C 0.53212 0.62055 0.48453 0.0
C3413 C 0.5484 0.61575 0.48458 0.0
C3414 C 0.55048 0.59957 0.49151 0.0
C3415 C 0.52973 0.63737 0.4767 0.0
C3416 C 0.52615 0.6354 0.4573 0.0
C3417 C 0.52977 0.65477 0.48822 0.0
C3418 C 0.53396 0.65782 0.50878 0.0
C3419 C 0.55042 0.65637 0.5172 0.0
C3420 C 0.55439 0.65945 0.5366 0.0
C3421 C 0.54204 0.66414 0.54775 0.0
C3422 C 0.52571 0.66578 0.5395 0.0
C3423 C 0.52167 0.66268 0.5201 0.0
H3424 H 0.54515 0.66656 0.56277 0.0
H3425 H 0.50303 0.63679 0.37497 0.0
H3426 H 0.60879 0.29366 0.66582 0.0
H3427 H 0.63284 0.28851 0.68682 0.0
H3428 H 0.67238 0.32263 0.65943 0.0
H3429 H 0.64852 0.32723 0.63815 0.0
H3430 H 0.68172 0.29194 0.66409 0.0
H3431 H 0.66171 0.33886 0.70514 0.0
H3432 H 0.63883 0.35028 0.72087 0.0
H3433 H 0.62753 0.30047 0.74651 0.0
H3434 H 0.65022 0.28868 0.73079 0.0
H3435 H 0.76035 0.30506 0.72974 0.0
H3436 H 0.7355 0.30743 0.70777 0.0
H3437 H 0.69756 0.27943 0.74075 0.0
H3438 H 0.72235 0.27849 0.76323 0.0
H3439 H 0.68655 0.30586 0.73289 0.0
H3440 H 0.70552 0.25831 0.69357 0.0
H3441 H 0.72656 0.24424 0.67712 0.0
H3442 H 0.73787 0.2912 0.64762 0.0
H3443 H 0.71703 0.30565 0.66403 0.0
C3444 C 0.62261 0.30033 0.66449 0.0
C3445 C 0.62666 0.31096 0.65033 0.0
C3446 C 0.63641 0.29736 0.67652 0.0
C3447 C 0.6546 0.30529 0.67491 0.0
C3448 C 0.65857 0.31625 0.66102 0.0
C3449 C 0.64484 0.31899 0.64889 0.0
C3450 C 0.66957 0.30201 0.68732 0.0
C3451 C 0.68288 0.29519 0.67916 0.0
C3452 C 0.67091 0.30553 0.70699 0.0
C3453 C 0.65756 0.31284 0.71671 0.0
C3454 C 0.6543 0.33033 0.71409 0.0
C3455 C 0.64137 0.33686 0.723 0.0
C3456 C 0.63171 0.32609 0.73465 0.0
C3457 C 0.63501 0.3088 0.73748 0.0
C3458 C 0.64792 0.3022 0.7286 0.0
C3459 C 0.74667 0.29917 0.73206 0.0
C3460 C 0.74327 0.29156 0.74816 0.0
C3461 C 0.73238 0.30043 0.71944 0.0
C3462 C 0.71437 0.29347 0.72232 0.0
C3463 C 0.71115 0.28513 0.7381 0.0
C3464 C 0.72537 0.28444 0.75093 0.0
C3465 C 0.6989 0.29577 0.70973 0.0
C3466 C 0.68547 0.30247 0.71784 0.0
C3467 C 0.69728 0.29176 0.68999 0.0
C3468 C 0.70986 0.28315 0.68017 0.0
C3469 C 0.7126 0.2657 0.68367 0.0
C3470 C 0.72446 0.25765 0.67434 0.0
C3471 C 0.73359 0.26685 0.66138 0.0
C3472 C 0.73082 0.2841 0.65768 0.0
C3473 C 0.71897 0.29222 0.66698 0.0
H3474 H 0.74277 0.26059 0.65417 0.0
H3475 H 0.62168 0.33116 0.74151 0.0
H3476 H 0.99675 0.31881 0.92579 0.0
H3477 H 1.00138 0.35299 0.9377 0.0
H3478 H 0.04704 0.35336 0.97632 0.0
H3479 H 0.04176 0.3186 0.96478 0.0
H3480 H 0.02632 0.37055 0.99362 0.0
H3481 H 0.05157 0.37635 0.93765 0.0
H3482 H 0.05331 0.36938 0.90405 0.0
H3483 H 0.00631 0.38808 0.89191 0.0
H3484 H 0.00414 0.39492 0.92543 0.0
H3485 H 0.05232 0.4732 0.01779 0.0
H3486 H 0.05047 0.43939 0.00708 0.0
H3487 H 1.00013 0.4317 0.97253 0.0
H3488 H 1.0019 0.46567 0.98313 0.0
H3489 H 0.02542 0.41908 0.95363 0.0
H3490 H 1.00003 0.41183 0.01023 0.0
H3491 H 0.9994 0.41945 0.04403 0.0
H3492 H 0.04867 0.40453 0.05499 0.0
H3493 H 0.04969 0.39702 0.02124 0.0
C3494 C 0.008 0.32636 0.93654 0.0
C3495 C 0.01911 0.31643 0.94426 0.0
C3496 C 0.01069 0.34586 0.9433 0.0
C3497 C 0.02477 0.35584 0.95767 0.0
C3498 C 0.03618 0.34594 0.96513 0.0
C3499 C 0.03329 0.32624 0.95851 0.0
C3500 C 0.02654 0.3762 0.96568 0.0
C3501 C 0.0265 0.38126 0.98491 0.0
C3502 C 0.02635 0.39005 0.95426 0.0
C3503 C 0.02763 0.38602 0.93407 0.0
C3504 C 0.04153 0.37885 0.92781 0.0
C3505 C 0.04261 0.37494 0.90878 0.0
C3506 C 0.02991 0.37825 0.89585 0.0
C3507 C 0.01613 0.38552 0.90194 0.0
C3508 C 0.01499 0.38944 0.92096 0.0
C3509 C 0.04074 0.46427 0.00807 0.0
C3510 C 0.02729 0.47205 1.00121 0.0
C3511 C 0.03967 0.44495 0.00205 0.0
C3512 C 0.02515 0.43313 0.98909 0.0
C3513 C 0.01142 0.44069 0.98259 0.0
C3514 C 0.0124 0.46002 0.98872 0.0
C3515 C 0.02496 0.41323 0.98142 0.0
C3516 C 0.02535 0.40833 0.96228 0.0
C3517 C 0.02568 0.39962 0.99294 0.0
C3518 C 0.02501 0.40401 0.01322 0.0
C3519 C 0.01079 0.4103 0.01985 0.0
C3520 C 0.01035 0.41457 0.039 0.0
C3521 C 0.024 0.41251 0.05165 0.0
C3522 C 0.0381 0.40612 0.04518 0.0
C3523 C 0.03861 0.40183 0.02604 0.0
H3524 H 0.02364 0.41583 0.06647 0.0
H3525 H 0.03076 0.37521 0.88112 0.0
H3526 H 0.01411 0.7908 0.12784 0.0
H3527 H 0.98465 0.78318 0.13826 0.0
H3528 H 0.01011 0.78979 0.19466 0.0
H3529 H 0.03952 0.7969 0.18428 0.0
H3530 H 0.9819 0.75876 0.18655 0.0
H3531 H 0.99255 0.82554 0.17692 0.0
H3532 H 0.99797 0.85059 0.15759 0.0
H3533 H 0.94985 0.81946 0.12007 0.0
H3534 H 0.94428 0.79414 0.13906 0.0
H3535 H 0.91657 0.77387 0.2428 0.0
H3536 H 0.94239 0.77381 0.22639 0.0
H3537 H 0.91025 0.77285 0.17474 0.0
H3538 H 0.88465 0.77356 0.19136 0.0
H3539 H 0.93964 0.79767 0.17637 0.0
H3540 H 0.92598 0.73322 0.18421 0.0
H3541 H 0.91859 0.7054 0.19993 0.0
H3542 H 0.96922 0.72734 0.23572 0.0
H3543 H 0.97682 0.75546 0.2204 0.0
C3544 C 0.01346 0.79067 0.14247 0.0
C3545 C 0.02927 0.79457 0.15523 0.0
C3546 C 0.99655 0.78636 0.14843 0.0
C3547 C 0.99506 0.78613 0.16733 0.0
C3548 C 0.01083 0.78986 0.18002 0.0
C3549 C 0.02769 0.79401 0.17406 0.0
C3550 C 0.97722 0.78208 0.17409 0.0
C3551 C 0.97274 0.76741 0.1845 0.0
C3552 C 0.96472 0.79259 0.17059 0.0
C3553 C 0.96811 0.80788 0.1593 0.0
C3554 C 0.9832 0.824 0.16448 0.0
C3555 C 0.98628 0.83824 0.1536 0.0
C3556 C 0.97429 0.83659 0.13759 0.0
C3557 C 0.95915 0.82071 0.13246 0.0
C3558 C 0.95602 0.80642 0.14328 0.0
C3559 C 0.91497 0.77329 0.22789 0.0
C3560 C 0.89863 0.77382 0.21837 0.0
C3561 C 0.92973 0.7732 0.21846 0.0
C3562 C 0.92838 0.77318 0.19919 0.0
C3563 C 0.91179 0.77299 0.18958 0.0
C3564 C 0.89713 0.77337 0.19907 0.0
C3565 C 0.94453 0.77474 0.18942 0.0
C3566 C 0.94868 0.78888 0.17838 0.0
C3567 C 0.95645 0.76333 0.19185 0.0
C3568 C 0.95191 0.74655 0.20125 0.0
C3569 C 0.93548 0.73221 0.19555 0.0
C3570 C 0.93126 0.71636 0.20436 0.0
C3571 C 0.94341 0.71462 0.21884 0.0
C3572 C 0.95981 0.72872 0.22451 0.0
C3573 C 0.96409 0.74461 0.21575 0.0
H3574 H 0.94013 0.70233 0.22563 0.0
H3575 H 0.9767 0.84764 0.12919 0.0
H3576 H 0.51309 0.31434 0.13854 0.0
H3577 H 0.52736 0.34258 0.1261 0.0
H3578 H 0.50445 0.31196 0.07032 0.0
H3579 H 0.4903 0.28347 0.08258 0.0
H3580 H 0.54063 0.33113 0.07359 0.0
H3581 H 0.48605 0.34423 0.09286 0.0
H3582 H 0.46593 0.34855 0.11609 0.0
H3583 H 0.50827 0.39445 0.15013 0.0
H3584 H 0.5287 0.39021 0.12719 0.0
H3585 H 0.53124 0.3943 0.01504 0.0
H3586 H 0.53063 0.37058 0.03482 0.0
H3587 H 0.55437 0.41598 0.08252 0.0
H3588 H 0.55513 0.44001 0.06262 0.0
H3589 H 0.52462 0.39252 0.08904 0.0
H3590 H 0.57749 0.38409 0.06764 0.0
H3591 H 0.59847 0.38031 0.04527 0.0
H3592 H 0.56158 0.32681 0.01663 0.0
H3593 H 0.54025 0.33038 0.03868 0.0
C3594 C 0.51098 0.31362 0.12362 0.0
C3595 C 0.50052 0.2967 0.11151 0.0
C3596 C 0.51918 0.32976 0.11657 0.0
C3597 C 0.51691 0.32927 0.09734 0.0
C3598 C 0.50639 0.31249 0.08522 0.0
C3599 C 0.49821 0.29631 0.09225 0.0
C3600 C 0.52527 0.34633 0.08975 0.0
C3601 C 0.53713 0.34457 0.07686 0.0
C3602 C 0.52132 0.36406 0.09482 0.0
C3603 C 0.50894 0.36677 0.10843 0.0
C3604 C 0.49109 0.35516 0.10536 0.0
C3605 C 0.47963 0.3576 0.11846 0.0
C3606 C 0.48584 0.37173 0.1346 0.0
C3607 C 0.50349 0.38349 0.13764 0.0
C3608 C 0.51501 0.38108 0.12459 0.0
C3609 C 0.53686 0.39926 0.02961 0.0
C3610 C 0.54316 0.41899 0.0373 0.0
C3611 C 0.53653 0.38567 0.04092 0.0
C3612 C 0.54263 0.39154 0.06009 0.0
C3613 C 0.54966 0.41121 0.06772 0.0
C3614 C 0.54999 0.42487 0.05638 0.0
C3615 C 0.53944 0.37711 0.0722 0.0
C3616 C 0.52856 0.37931 0.08603 0.0
C3617 C 0.54447 0.35986 0.06814 0.0
C3618 C 0.55724 0.35754 0.05482 0.0
C3619 C 0.5738 0.37157 0.05651 0.0
C3620 C 0.58576 0.36946 0.04389 0.0
C3621 C 0.58136 0.35333 0.02953 0.0
C3622 C 0.56498 0.33928 0.02778 0.0
C3623 C 0.55296 0.34132 0.04036 0.0
H3624 H 0.59064 0.35172 0.01978 0.0
H3625 H 0.47695 0.37359 0.14474 0.0
H3626 H 0.01561 0.29024 0.37396 0.0
H3627 H 0.99238 0.28893 0.34862 0.0
H3628 H 0.03212 0.32203 0.32071 0.0
H3629 H 0.05564 0.32321 0.34594 0.0
H3630 H 0.99993 0.33611 0.33018 0.0
H3631 H 0.01584 0.28179 0.29784 0.0
H3632 H 0.0241 0.25136 0.29693 0.0
H3633 H 0.9734 0.22475 0.31289 0.0
H3634 H 0.96493 0.2551 0.3141 0.0
H3635 H 0.9232 0.33152 0.26932 0.0
H3636 H 0.95334 0.32763 0.27613 0.0
H3637 H 0.93277 0.28461 0.3085 0.0
H3638 H 0.9027 0.28844 0.30171 0.0
H3639 H 0.95985 0.27671 0.28949 0.0
H3640 H 0.94695 0.32767 0.33045 0.0
H3641 H 0.9376 0.35718 0.33912 0.0
H3642 H 0.98077 0.3891 0.31472 0.0
H3643 H 0.9902 0.35964 0.30563 0.0
C3644 C 0.01945 0.29696 0.36229 0.0
C3645 C 0.03735 0.3068 0.36184 0.0
C3646 C 0.00623 0.29613 0.34785 0.0
C3647 C 0.01074 0.30525 0.33289 0.0
C3648 C 0.0286 0.31479 0.33215 0.0
C3649 C 0.04192 0.31538 0.3465 0.0
C3650 C 0.99628 0.30612 0.3191 0.0
C3651 C 0.9915 0.32337 0.32065 0.0
C3652 C 0.98507 0.2892 0.3075 0.0
C3653 C 0.98975 0.27069 0.30601 0.0
C3654 C 0.00646 0.26944 0.30115 0.0
C3655 C 0.01118 0.25222 0.3006 0.0
C3656 C 0.99927 0.23613 0.30483 0.0
C3657 C 0.98259 0.23721 0.30956 0.0
C3658 C 0.9778 0.2544 0.31012 0.0
C3659 C 0.9251 0.32086 0.27742 0.0
C3660 C 0.9109 0.31045 0.28526 0.0
C3661 C 0.94222 0.31866 0.28127 0.0
C3662 C 0.94514 0.30596 0.29289 0.0
C3663 C 0.93066 0.29441 0.29945 0.0
C3664 C 0.91361 0.29673 0.29573 0.0
C3665 C 0.96344 0.30673 0.30059 0.0
C3666 C 0.96877 0.28974 0.29815 0.0
C3667 C 0.97489 0.32376 0.31198 0.0
C3668 C 0.96904 0.34139 0.31701 0.0
C3669 C 0.95428 0.34092 0.32668 0.0
C3670 C 0.94901 0.35764 0.33174 0.0
C3671 C 0.95853 0.37499 0.32738 0.0
C3672 C 0.97336 0.37564 0.318 0.0
C3673 C 0.97866 0.35893 0.31287 0.0
H3674 H 0.95446 0.38794 0.33135 0.0
H3675 H 0.00298 0.22283 0.30445 0.0
H3676 H 0.00888 0.71931 0.60136 0.0
H3677 H 0.01716 0.69604 0.57911 0.0
H3678 H 0.968 0.65318 0.58169 0.0
H3679 H 0.96046 0.67617 0.60534 0.0
H3680 H 0.99491 0.64027 0.58898 0.0
H3681 H 0.97906 0.67458 0.54075 0.0
H3682 H 0.98101 0.70387 0.52745 0.0
H3683 H 0.0379 0.71343 0.52916 0.0
H3684 H 0.0363 0.68431 0.54262 0.0
H3685 H 0.9938 0.57603 0.50206 0.0
H3686 H 0.98791 0.6009 0.52512 0.0
H3687 H 0.04438 0.62187 0.54656 0.0
H3688 H 0.05023 0.59633 0.52425 0.0
H3689 H 0.01778 0.64664 0.52898 0.0
H3690 H 0.03475 0.61393 0.57648 0.0
H3691 H 0.03531 0.58749 0.59334 0.0
H3692 H 0.97881 0.57676 0.59541 0.0
H3693 H 0.97782 0.60284 0.5781 0.0
C3694 C 0.99953 0.70513 0.59662 0.0
C3695 C 0.98406 0.69936 0.60491 0.0
C3696 C 0.00426 0.69185 0.58388 0.0
C3697 C 0.99314 0.67292 0.57868 0.0
C3698 C 0.97678 0.66773 0.58564 0.0
C3699 C 0.97239 0.68083 0.59894 0.0
C3700 C 0.99958 0.65794 0.56803 0.0
C3701 C 0.99957 0.6415 0.57566 0.0
C3702 C 0.00673 0.66016 0.5513 0.0
C3703 C 0.00756 0.67735 0.54277 0.0
C3704 C 0.99198 0.68297 0.53832 0.0
C3705 C 0.99303 0.69953 0.53076 0.0
C3706 C 0.00958 0.71052 0.5275 0.0
C3707 C 0.0251 0.70491 0.5317 0.0
C3708 C 0.02412 0.68836 0.53925 0.0
C3709 C 0.00486 0.58584 0.51185 0.0
C3710 C 0.0224 0.58448 0.51154 0.0
C3711 C 1.0015 0.59981 0.52503 0.0
C3712 C 0.01572 0.61273 0.53762 0.0
C3713 C 0.03329 0.6116 0.53717 0.0
C3714 C 0.03659 0.59724 0.52437 0.0
C3715 C 0.01223 0.6288 0.54955 0.0
C3716 C 0.01297 0.64546 0.54224 0.0
C3717 C 0.00593 0.62688 0.56665 0.0
C3718 C 0.00615 0.61012 0.57564 0.0
C3719 C 0.02235 0.60563 0.58008 0.0
C3720 C 0.02278 0.59083 0.58991 0.0
C3721 C 0.00713 0.58055 0.59556 0.0
C3722 C 0.99094 0.5848 0.5911 0.0
C3723 C 0.99043 0.59955 0.58123 0.0
H3724 H 0.00752 0.5692 0.60329 0.0
H3725 H 0.01036 0.72337 0.5217 0.0
H3726 H 0.65477 0.85466 0.86312 0.0
H3727 H 0.6727 0.84508 0.83962 0.0
H3728 H 0.63309 0.78981 0.82259 0.0
H3729 H 0.61582 0.7989 0.84654 0.0
H3730 H 0.6642 0.78471 0.8276 0.0
H3731 H 0.6397 0.8282 0.79679 0.0
H3732 H 0.63398 0.85901 0.79267 0.0
H3733 H 0.69065 0.88558 0.7981 0.0
H3734 H 0.69674 0.85538 0.80315 0.0
H3735 H 0.71692 0.75786 0.75996 0.0
H3736 H 0.69045 0.76437 0.77208 0.0
H3737 H 0.72124 0.82319 0.79458 0.0
H3738 H 0.74712 0.81709 0.78196 0.0
H3739 H 0.68968 0.82287 0.78165 0.0
H3740 H 0.71497 0.78509 0.8205 0.0
H3741 H 0.72365 0.75622 0.8265 0.0
H3742 H 0.66934 0.72148 0.80817 0.0
H3743 H 0.66042 0.75014 0.80187 0.0
C3744 C 0.64997 0.84053 0.85427 0.0
C3745 C 0.63414 0.82741 0.85674 0.0
C3746 C 0.66007 0.83513 0.84077 0.0
C3747 C 0.65409 0.81679 0.82922 0.0
C3748 C 0.63797 0.80399 0.83138 0.0
C3749 C 0.62817 0.80917 0.8451 0.0
C3750 C 0.66522 0.8102 0.81593 0.0
C3751 C 0.66951 0.79293 0.81733 0.0
C3752 C 0.67245 0.82109 0.8028 0.0
C3753 C 0.66866 0.83951 0.80051 0.0
C3754 C 0.65094 0.84072 0.79744 0.0
C3755 C 0.64764 0.85813 0.79498 0.0
C3756 C 0.66194 0.87434 0.79531 0.0
C3757 C 0.67957 0.87318 0.79812 0.0
C3758 C 0.68295 0.85592 0.80083 0.0
C3759 C 0.71785 0.77223 0.76723 0.0
C3760 C 0.73403 0.78697 0.77008 0.0
C3761 C 0.7028 0.77589 0.77419 0.0
C3762 C 0.704 0.79417 0.78444 0.0
C3763 C 0.71998 0.809 0.78663 0.0
C3764 C 0.73481 0.80547 0.77941 0.0
C3765 C 0.68922 0.79801 0.794 0.0
C3766 C 0.68408 0.81459 0.79176 0.0
C3767 C 0.68168 0.78687 0.80679 0.0
C3768 C 0.68709 0.76967 0.81049 0.0
C3769 C 0.70493 0.77126 0.81762 0.0
C3770 C 0.70988 0.75495 0.8211 0.0
C3771 C 0.69706 0.73702 0.81766 0.0
C3772 C 0.67926 0.73537 0.81078 0.0
C3773 C 0.67425 0.75163 0.80726 0.0
H3774 H 0.70092 0.72441 0.82037 0.0
H3775 H 0.65937 0.88778 0.79329 0.0
H3776 H 0.4816 0.55107 0.713 0.0
H3777 H 0.4935 0.55017 0.68369 0.0
H3778 H 0.44674 0.56231 0.65795 0.0
H3779 H 0.43437 0.56293 0.68782 0.0
H3780 H 0.45591 0.53552 0.63301 0.0
H3781 H 0.49146 0.59672 0.66969 0.0
H3782 H 0.51119 0.61849 0.69714 0.0
H3783 H 0.55013 0.58668 0.69113 0.0
H3784 H 0.53055 0.56458 0.66379 0.0
H3785 H 0.49826 0.54564 0.54877 0.0
H3786 H 0.4823 0.54821 0.57606 0.0
H3787 H 0.53003 0.54943 0.61177 0.0
H3788 H 0.54587 0.54787 0.58497 0.0
H3789 H 0.51869 0.57153 0.6311 0.0
H3790 H 0.48458 0.50886 0.59811 0.0
H3791 H 0.46611 0.48484 0.57133 0.0
H3792 H 0.42622 0.51576 0.57113 0.0
H3793 H 0.44456 0.54008 0.59782 0.0
C3794 C 0.47369 0.55381 0.7013 0.0
C3795 C 0.45683 0.55728 0.70345 0.0
C3796 C 0.48073 0.55335 0.68422 0.0
C3797 C 0.47147 0.55641 0.66798 0.0
C3798 C 0.45455 0.55993 0.66992 0.0
C3799 C 0.44744 0.5605 0.68727 0.0
C3800 C 0.47955 0.55566 0.64942 0.0
C3801 C 0.46957 0.5437 0.63266 0.0
C3802 C 0.49768 0.5656 0.64833 0.0
C3803 C 0.50946 0.57891 0.66477 0.0
C3804 C 0.50417 0.5943 0.6743 0.0
C3805 C 0.51534 0.60671 0.68983 0.0
C3806 C 0.53188 0.60395 0.6959 0.0
C3807 C 0.53731 0.5888 0.68643 0.0
C3808 C 0.52619 0.57634 0.6709 0.0
C3809 C 0.50526 0.5461 0.56237 0.0
C3810 C 0.52354 0.54627 0.5642 0.0
C3811 C 0.49603 0.54758 0.57829 0.0
C3812 C 0.50452 0.5489 0.59677 0.0
C3813 C 0.52268 0.54869 0.59826 0.0
C3814 C 0.53186 0.54758 0.58257 0.0
C3815 C 0.49523 0.55104 0.61458 0.0
C3816 C 0.50501 0.56329 0.63129 0.0
C3817 C 0.47713 0.54099 0.61571 0.0
C3818 C 0.46602 0.52638 0.59981 0.0
C3819 C 0.47191 0.51058 0.59228 0.0
C3820 C 0.46147 0.49691 0.57713 0.0
C3821 C 0.44503 0.49881 0.56949 0.0
C3822 C 0.43897 0.51434 0.57704 0.0
C3823 C 0.44938 0.52805 0.59219 0.0
H3824 H 0.43696 0.48822 0.55775 0.0
H3825 H 0.54051 0.61358 0.70792 0.0
H3826 H 0.7374 0.14456 0.96674 0.0
H3827 H 0.73164 0.1589 0.94002 0.0
H3828 H 0.78803 0.18859 0.94565 0.0
H3829 H 0.79384 0.17483 0.97313 0.0
H3830 H 0.76778 0.21269 0.94861 0.0
H3831 H 0.76473 0.15359 0.90673 0.0
H3832 H 0.75378 0.11856 0.89496 0.0
H3833 H 0.69985 0.12268 0.88483 0.0
H3834 H 0.71043 0.15769 0.89687 0.0
H3835 H 0.77354 0.25933 0.87543 0.0
H3836 H 0.77431 0.23664 0.89604 0.0
H3837 H 0.71653 0.21492 0.88477 0.0
H3838 H 0.71585 0.2375 0.86308 0.0
H3839 H 0.73324 0.18625 0.88534 0.0
H3840 H 0.73559 0.24469 0.92576 0.0
H3841 H 0.74567 0.27972 0.9377 0.0
H3842 H 0.79955 0.27669 0.95133 0.0
H3843 H 0.78986 0.24168 0.93924 0.0
C3844 C 0.74869 0.15375 0.96202 0.0
C3845 C 0.76601 0.15902 0.97222 0.0
C3846 C 0.74537 0.16177 0.94661 0.0
C3847 C 0.7594 0.17482 0.94095 0.0
C3848 C 0.77704 0.17854 0.94994 0.0
C3849 C 0.78036 0.17066 0.96555 0.0
C3850 C 0.75521 0.18698 0.92802 0.0
C3851 C 0.76051 0.20692 0.93465 0.0
C3852 C 0.74468 0.17927 0.91034 0.0
C3853 C 0.73837 0.15825 0.90284 0.0
C3854 C 0.75052 0.14701 0.90213 0.0
C3855 C 0.74438 0.12715 0.8954 0.0
C3856 C 0.72613 0.11839 0.88921 0.0
C3857 C 0.71398 0.12948 0.88967 0.0
C3858 C 0.72005 0.14933 0.89642 0.0
C3859 C 0.76098 0.24986 0.87754 0.0
C3860 C 0.74458 0.2504 0.86833 0.0
C3861 C 0.76143 0.23693 0.88924 0.0
C3862 C 0.74544 0.22461 0.89232 0.0
C3863 C 0.72895 0.22463 0.88271 0.0
C3864 C 0.72853 0.2375 0.87056 0.0
C3865 C 0.74653 0.21189 0.90569 0.0
C3866 C 0.74045 0.19193 0.89933 0.0
C3867 C 0.75615 0.2195 0.92379 0.0
C3868 C 0.76198 0.24053 0.93154 0.0
C3869 C 0.7496 0.25149 0.93125 0.0
C3870 C 0.75525 0.27135 0.93804 0.0
C3871 C 0.77324 0.28043 0.94526 0.0
C3872 C 0.78562 0.26964 0.94575 0.0
C3873 C 0.78004 0.24978 0.93897 0.0
H3874 H 0.77759 0.29581 0.95048 0.0
H3875 H 0.72141 0.10301 0.88401 0.0
H3876 H 0.1007 0.49777 0.19015 0.0
H3877 H 0.09373 0.49803 0.15694 0.0
H3878 H 0.13386 0.55282 0.16379 0.0
H3879 H 0.14003 0.55298 0.19705 0.0
H3880 H 0.10338 0.55529 0.14966 0.0
H3881 H 0.13815 0.51214 0.13548 0.0
H3882 H 0.14922 0.48388 0.13803 0.0
H3883 H 0.0966 0.44625 0.11648 0.0
H3884 H 0.08514 0.47429 0.11407 0.0
H3885 H 0.06853 0.55616 0.05836 0.0
H3886 H 0.09101 0.55463 0.0831 0.0
H3887 H 0.05546 0.50222 0.0928 0.0
H3888 H 0.03322 0.50308 0.06716 0.0
H3889 H 0.0909 0.50155 0.09544 0.0
H3890 H 0.05591 0.54529 0.11743 0.0
H3891 H 0.04442 0.57352 0.11612 0.0
H3892 H 0.09835 0.61022 0.12375 0.0
H3893 H 0.11015 0.58214 0.12488 0.0
C3894 C 0.10816 0.50959 0.18434 0.0
C3895 C 0.12056 0.52548 0.19579 0.0
C3896 C 0.10439 0.50968 0.16545 0.0
C3897 C 0.11345 0.5254 0.15799 0.0
C3898 C 0.12679 0.54061 0.16936 0.0
C3899 C 0.1302 0.54074 0.18824 0.0
C3900 C 0.10694 0.52742 0.13924 0.0
C3901 C 0.10116 0.54378 0.13766 0.0
C3902 C 0.10387 0.5123 0.12376 0.0
C3903 C 0.11078 0.49533 0.12462 0.0
C3904 C 0.12892 0.49784 0.13133 0.0
C3905 C 0.13527 0.48186 0.13276 0.0
C3906 C 0.12362 0.46328 0.12743 0.0
C3907 C 0.10562 0.46065 0.12059 0.0
C3908 C 0.09919 0.47658 0.11914 0.0
C3909 C 0.06563 0.54418 0.06563 0.0
C3910 C 0.0493 0.52968 0.06101 0.0
C3911 C 0.07846 0.54332 0.07964 0.0
C3912 C 0.07474 0.52837 0.08965 0.0
C3913 C 0.05849 0.51375 0.08498 0.0
C3914 C 0.04576 0.51439 0.07063 0.0
C3915 C 0.08693 0.52902 0.10626 0.0
C3916 C 0.09374 0.51324 0.10736 0.0
C3917 C 0.09101 0.54471 0.12136 0.0
C3918 C 0.08389 0.56161 0.12104 0.0
C3919 C 0.0653 0.55937 0.11873 0.0
C3920 C 0.05874 0.57534 0.11803 0.0
C3921 C 0.07064 0.59364 0.11979 0.0
C3922 C 0.08914 0.59603 0.12235 0.0
C3923 C 0.09578 0.5801 0.12304 0.0
H3924 H 0.06554 0.60599 0.11922 0.0
H3925 H 0.12855 0.45092 0.12859 0.0
H3926 H 0.81305 0.86975 0.47213 0.0
H3927 H 0.81198 0.85788 0.43904 0.0
H3928 H 0.76361 0.81304 0.43957 0.0
H3929 H 0.76545 0.82442 0.47329 0.0
H3930 H 0.78436 0.79805 0.42151 0.0
H3931 H 0.76456 0.85361 0.41717 0.0
H3932 H 0.7647 0.88771 0.42442 0.0
H3933 H 0.81602 0.90468 0.4059 0.0
H3934 H 0.8163 0.8707 0.39876 0.0
H3935 H 0.76787 0.77596 0.32163 0.0
H3936 H 0.76679 0.78564 0.35475 0.0
H3937 H 0.82098 0.82236 0.36192 0.0
H3938 H 0.82222 0.81263 0.32864 0.0
H3939 H 0.79536 0.84075 0.37519 0.0
H3940 H 0.81395 0.78343 0.3801 0.0
H3941 H 0.81154 0.7488 0.37168 0.0
H3942 H 0.75884 0.73474 0.38756 0.0
H3943 H 0.76086 0.7693 0.39587 0.0
C3944 C 0.80198 0.85762 0.46503 0.0
C3945 C 0.78914 0.84815 0.47497 0.0
C3946 C 0.80132 0.85087 0.44611 0.0
C3947 C 0.78749 0.83478 0.43661 0.0
C3948 C 0.77435 0.82554 0.44654 0.0
C3949 C 0.77526 0.8321 0.46569 0.0
C3950 C 0.78765 0.82701 0.41669 0.0
C3951 C 0.78642 0.80737 0.41133 0.0
C3952 C 0.79064 0.83914 0.40338 0.0
C3953 C 0.7905 0.85961 0.40755 0.0
C3954 C 0.77593 0.86462 0.41475 0.0
C3955 C 0.77593 0.88393 0.41883 0.0
C3956 C 0.79038 0.89835 0.41565 0.0
C3957 C 0.80484 0.8935 0.40835 0.0
C3958 C 0.80491 0.87421 0.40426 0.0
C3959 C 0.77968 0.78587 0.33031 0.0
C3960 C 0.79512 0.79362 0.32257 0.0
C3961 C 0.77904 0.79132 0.34922 0.0
C3962 C 0.79379 0.8047 0.36072 0.0
C3963 C 0.80947 0.812 0.3532 0.0
C3964 C 0.8102 0.80635 0.33426 0.0
C3965 C 0.79232 0.81202 0.38027 0.0
C3966 C 0.79324 0.83153 0.38545 0.0
C3967 C 0.78865 0.79971 0.39326 0.0
C3968 C 0.78751 0.77894 0.38847 0.0
C3969 C 0.8018 0.77295 0.38167 0.0
C3970 C 0.80051 0.75333 0.37695 0.0
C3971 C 0.78503 0.73958 0.37905 0.0
C3972 C 0.77082 0.74541 0.38593 0.0
C3973 C 0.77204 0.76501 0.39068 0.0
H3974 H 0.78405 0.7244 0.37537 0.0
H3975 H 0.79035 0.91329 0.41883 0.0
H3976 H 0.43344 0.54363 0.81658 0.0
H3977 H 0.44559 0.54002 0.84736 0.0
H3978 H 0.49652 0.57863 0.84295 0.0
H3979 H 0.48461 0.5808 0.81146 0.0
H3980 H 0.50574 0.55576 0.85877 0.0
H3981 H 0.46152 0.58709 0.87608 0.0
H3982 H 0.43165 0.59275 0.87552 0.0
H3983 H 0.41013 0.53729 0.88938 0.0
H3984 H 0.43985 0.53124 0.88984 0.0
H3985 H 0.53388 0.57074 0.96072 0.0
H3986 H 0.5216 0.57562 0.93023 0.0
H3987 H 0.489 0.51676 0.91769 0.0
H3988 H 0.50174 0.51155 0.94778 0.0
H3989 H 0.47103 0.55043 0.91161 0.0
H3990 H 0.51807 0.52145 0.89493 0.0
H3991 H 0.54919 0.51922 0.8971 0.0
H3992 H 0.56685 0.57573 0.88423 0.0
H3993 H 0.53584 0.57841 0.88227 0.0
C3994 C 0.44705 0.55192 0.82242 0.0
C3995 C 0.4577 0.56318 0.81155 0.0
C3996 C 0.45415 0.54983 0.84029 0.0
C3997 C 0.47216 0.55935 0.84843 0.0
C3998 C 0.48265 0.57097 0.8376 0.0
C3999 C 0.47568 0.57257 0.81951 0.0
C4000 C 0.48027 0.55656 0.86753 0.0
C4001 C 0.49803 0.55496 0.87025 0.0
C4002 C 0.47071 0.5551 0.88312 0.0
C4003 C 0.45284 0.55864 0.88281 0.0
C4004 C 0.45038 0.57606 0.87889 0.0
C4005 C 0.43349 0.57935 0.87861 0.0
C4006 C 0.41899 0.56537 0.88236 0.0
C4007 C 0.42137 0.54809 0.88645 0.0
C4008 C 0.43823 0.54474 0.88675 0.0
C4009 C 0.52414 0.55875 0.9515 0.0
C4010 C 0.51895 0.54069 0.95703 0.0
C4011 C 0.51709 0.56158 0.93391 0.0
C4012 C 0.50421 0.54663 0.92131 0.0
C4013 C 0.49885 0.52866 0.9269 0.0
C4014 C 0.50625 0.52567 0.94424 0.0
C4015 C 0.49623 0.54975 0.90255 0.0
C4016 C 0.47859 0.55138 0.9 0.0
C4017 C 0.50603 0.55175 0.88733 0.0
C4018 C 0.52468 0.55023 0.88871 0.0
C4019 C 0.52862 0.5335 0.89281 0.0
C4020 C 0.54623 0.53213 0.89393 0.0
C4021 C 0.56 0.54735 0.89087 0.0
C4022 C 0.55618 0.56397 0.88664 0.0
C4023 C 0.53859 0.56542 0.88551 0.0
H4024 H 0.57362 0.54625 0.89172 0.0
H4025 H 0.40592 0.56793 0.88213 0.0
H4026 H 0.75614 0.18108 0.06921 0.0
H4027 H 0.75608 0.1982 0.10043 0.0
H4028 H 0.81349 0.22259 0.1061 0.0
H4029 H 0.81362 0.20447 0.07488 0.0
H4030 H 0.80337 0.21005 0.13664 0.0
H4031 H 0.78141 0.24831 0.09518 0.0
H4032 H 0.7603 0.25232 0.0698 0.0
H4033 H 0.71619 0.23257 0.09917 0.0
H4034 H 0.73702 0.22828 0.12463 0.0
H4035 H 0.82109 0.28863 0.20863 0.0
H4036 H 0.81601 0.26901 0.17732 0.0
H4037 H 0.76021 0.24584 0.18234 0.0
H4038 H 0.76528 0.26581 0.21359 0.0
H4039 H 0.76587 0.25509 0.14736 0.0
H4040 H 0.78374 0.21617 0.18726 0.0
H4041 H 0.80159 0.20838 0.21301 0.0
H4042 H 0.84903 0.22558 0.18757 0.0
H4043 H 0.83144 0.23308 0.16164 0.0
C4044 C 0.76873 0.19017 0.07717 0.0
C4045 C 0.78488 0.19185 0.06983 0.0
C4046 C 0.76865 0.19998 0.09489 0.0
C4047 C 0.78468 0.21205 0.10528 0.0
C4048 C 0.80096 0.21345 0.0981 0.0
C4049 C 0.80108 0.20322 0.0804 0.0
C4050 C 0.78449 0.22284 0.12386 0.0
C4051 C 0.79538 0.22012 0.13892 0.0
C4052 C 0.77317 0.23502 0.12695 0.0
C4053 C 0.76075 0.23787 0.11173 0.0
C4054 C 0.7672 0.24476 0.09618 0.0
C4055 C 0.75529 0.24709 0.08179 0.0
C4056 C 0.73691 0.24267 0.08286 0.0
C4057 C 0.73042 0.23598 0.09835 0.0
C4058 C 0.74227 0.23363 0.11277 0.0
C4059 C 0.80771 0.27961 0.20283 0.0
C4060 C 0.79356 0.27836 0.21331 0.0
C4061 C 0.80486 0.26835 0.18513 0.0
C4062 C 0.78783 0.25582 0.17783 0.0
C4063 C 0.77345 0.25533 0.18794 0.0
C4064 C 0.77636 0.26653 0.20572 0.0
C4065 C 0.78539 0.24292 0.15981 0.0
C4066 C 0.77386 0.24503 0.14498 0.0
C4067 C 0.79566 0.22972 0.15695 0.0
C4068 C 0.80633 0.22534 0.17262 0.0
C4069 C 0.79802 0.21838 0.18727 0.0
C4070 C 0.8081 0.21395 0.2019 0.0
C4071 C 0.82652 0.21659 0.2021 0.0
C4072 C 0.83482 0.22349 0.18754 0.0
C4073 C 0.82479 0.22774 0.1728 0.0
H4074 H 0.83432 0.21326 0.21349 0.0
H4075 H 0.72772 0.24447 0.0717 0.0
H4076 H 0.09625 0.5245 0.2957 0.0
H4077 H 0.09862 0.54879 0.32338 0.0
H4078 H 0.15631 0.5614 0.33035 0.0
H4079 H 0.15413 0.5367 0.30319 0.0
H4080 H 0.14339 0.56246 0.36264 0.0
H4081 H 0.13793 0.59261 0.31071 0.0
H4082 H 0.12539 0.59357 0.27884 0.0
H4083 H 0.07329 0.58786 0.2955 0.0
H4084 H 0.08543 0.58665 0.3274 0.0
H4085 H 0.10182 0.59454 0.43216 0.0
H4086 H 0.1241 0.60679 0.41236 0.0
H4087 H 0.08336 0.58335 0.36395 0.0
H4088 H 0.06136 0.57256 0.38372 0.0
H4089 H 0.10759 0.60829 0.35433 0.0
H4090 H 0.11303 0.55013 0.3873 0.0
H4091 H 0.12231 0.53729 0.41453 0.0
H4092 H 0.16711 0.58775 0.43215 0.0
H4093 H 0.15843 0.60047 0.40445 0.0
C4094 C 0.10939 0.53189 0.30355 0.0
C4095 C 0.12497 0.52905 0.29698 0.0
C4096 C 0.11077 0.54609 0.31903 0.0
C4097 C 0.12771 0.5576 0.32803 0.0
C4098 C 0.14317 0.55307 0.32307 0.0
C4099 C 0.14182 0.53868 0.30773 0.0
C4100 C 0.12895 0.57394 0.34302 0.0
C4101 C 0.13605 0.57297 0.36087 0.0
C4102 C 0.11988 0.58795 0.34048 0.0
C4103 C 0.11268 0.58977 0.32155 0.0
C4104 C 0.12382 0.59167 0.30761 0.0
C4105 C 0.11676 0.5922 0.28951 0.0
C4106 C 0.09857 0.59084 0.28516 0.0
C4107 C 0.08741 0.58902 0.29891 0.0
C4108 C 0.09439 0.58851 0.31704 0.0
C4109 C 0.09765 0.593 0.41736 0.0
C4110 C 0.08017 0.58243 0.40919 0.0
C4111 C 0.11035 0.59979 0.40605 0.0
C4112 C 0.10569 0.5953 0.38656 0.0
C4113 C 0.08753 0.587 0.37888 0.0
C4114 C 0.07488 0.58063 0.39014 0.0
C4115 C 0.11925 0.59425 0.37393 0.0
C4116 C 0.11585 0.59868 0.35621 0.0
C4117 C 0.13091 0.58255 0.37644 0.0
C4118 C 0.13491 0.57637 0.39414 0.0
C4119 C 0.1247 0.55857 0.39716 0.0
C4120 C 0.12993 0.55127 0.41258 0.0
C4121 C 0.1452 0.56179 0.42518 0.0
C4122 C 0.15524 0.57968 0.42241 0.0
C4123 C 0.15023 0.5869 0.40682 0.0
H4124 H 0.14939 0.556 0.43698 0.0
H4125 H 0.09312 0.59117 0.27113 0.0
H4126 H 0.76447 0.85118 0.57271 0.0
H4127 H 0.75782 0.83738 0.60057 0.0
H4128 H 0.81418 0.84326 0.61568 0.0
H4129 H 0.82059 0.85597 0.58766 0.0
H4130 H 0.79632 0.80943 0.61843 0.0
H4131 H 0.78827 0.87362 0.63844 0.0
H4132 H 0.77354 0.89924 0.63521 0.0
H4133 H 0.72226 0.85998 0.63625 0.0
H4134 H 0.73668 0.8341 0.63931 0.0
H4135 H 0.80461 0.80062 0.71389 0.0
H4136 H 0.80632 0.81319 0.68484 0.0
H4137 H 0.74852 0.79688 0.67333 0.0
H4138 H 0.74676 0.78402 0.70216 0.0
H4139 H 0.76323 0.83297 0.66704 0.0
H4140 H 0.77024 0.77086 0.65205 0.0
H4141 H 0.78183 0.74264 0.65206 0.0
H4142 H 0.83148 0.77381 0.6373 0.0
H4143 H 0.82076 0.80276 0.63856 0.0
C4144 C 0.77539 0.84975 0.58219 0.0
C4145 C 0.79303 0.85461 0.57805 0.0
C4146 C 0.77162 0.84189 0.59812 0.0
C4147 C 0.78552 0.8393 0.61039 0.0
C4148 C 0.80317 0.8449 0.60646 0.0
C4149 C 0.80685 0.85228 0.59046 0.0
C4150 C 0.78203 0.83009 0.62693 0.0
C4151 C 0.7894 0.81484 0.62926 0.0
C4152 C 0.77205 0.83629 0.64054 0.0
C4153 C 0.76351 0.85193 0.63893 0.0
C4154 C 0.77385 0.87046 0.63789 0.0
C4155 C 0.76556 0.88502 0.6361 0.0
C4156 C 0.74697 0.88123 0.63547 0.0
C4157 C 0.73664 0.86289 0.63671 0.0
C4158 C 0.74486 0.84829 0.63849 0.0
C4159 C 0.79228 0.79986 0.70522 0.0
C4160 C 0.77553 0.79136 0.71026 0.0
C4161 C 0.79327 0.80693 0.68858 0.0
C4162 C 0.77753 0.80584 0.67683 0.0
C4163 C 0.76082 0.79785 0.68215 0.0
C4164 C 0.75983 0.79052 0.69861 0.0
C4165 C 0.77848 0.8131 0.65904 0.0
C4166 C 0.77041 0.82773 0.65637 0.0
C4167 C 0.78765 0.80613 0.64498 0.0
C4168 C 0.79476 0.7892 0.64575 0.0
C4169 C 0.78385 0.77197 0.6494 0.0
C4170 C 0.79029 0.75582 0.64919 0.0
C4171 C 0.80748 0.75652 0.64493 0.0
C4172 C 0.81829 0.77341 0.64094 0.0
C4173 C 0.81209 0.78975 0.64155 0.0
H4174 H 0.81236 0.74392 0.64455 0.0
H4175 H 0.74058 0.89251 0.63407 0.0
H4176 H 0.77146 0.47795 0.50454 0.0
H4177 H 0.74815 0.49282 0.51397 0.0
H4178 H 0.7247 0.44384 0.53827 0.0
H4179 H 0.74739 0.4287 0.52841 0.0
H4180 H 0.70022 0.45203 0.51747 0.0
H4181 H 0.74818 0.48777 0.56549 0.0
H4182 H 0.77868 0.50794 0.57894 0.0
H4183 H 0.77057 0.55302 0.55105 0.0
H4184 H 0.74012 0.53301 0.53719 0.0
H4185 H 0.63523 0.49842 0.54888 0.0
H4186 H 0.65922 0.4823 0.54958 0.0
H4187 H 0.69179 0.52698 0.5255 0.0
H4188 H 0.66831 0.54344 0.52573 0.0
H4189 H 0.71148 0.519 0.55154 0.0
H4190 H 0.66353 0.4805 0.50133 0.0
H4191 H 0.63372 0.45865 0.48764 0.0
H4192 H 0.64274 0.41702 0.51986 0.0
H4193 H 0.67209 0.43891 0.53439 0.0
C4194 C 0.76131 0.47041 0.51189 0.0
C4195 C 0.76111 0.45214 0.51558 0.0
C4196 C 0.74815 0.47897 0.51742 0.0
C4197 C 0.73489 0.46948 0.52701 0.0
C4198 C 0.73484 0.45136 0.53089 0.0
C4199 C 0.74778 0.44272 0.52516 0.0
C4200 C 0.72027 0.47776 0.53185 0.0
C4201 C 0.70263 0.46657 0.52522 0.0
C4202 C 0.72356 0.49673 0.54185 0.0
C4203 C 0.74189 0.50881 0.55019 0.0
C4204 C 0.75294 0.50192 0.5621 0.0
C4205 C 0.77022 0.51334 0.56982 0.0
C4206 C 0.77657 0.53174 0.56583 0.0
C4207 C 0.76564 0.53876 0.55413 0.0
C4208 C 0.74836 0.52739 0.54635 0.0
C4209 C 0.64762 0.50473 0.54389 0.0
C4210 C 0.65013 0.52207 0.53727 0.0
C4211 C 0.66122 0.49555 0.54422 0.0
C4212 C 0.67718 0.50336 0.53739 0.0
C4213 C 0.67962 0.52077 0.53093 0.0
C4214 C 0.66625 0.53013 0.531 0.0
C4215 C 0.69142 0.49352 0.5365 0.0
C4216 C 0.70904 0.50437 0.54401 0.0
C4217 C 0.68809 0.47416 0.52736 0.0
C4218 C 0.66991 0.46154 0.51922 0.0
C4219 C 0.65898 0.46686 0.5058 0.0
C4220 C 0.64212 0.45445 0.4979 0.0
C4221 C 0.63619 0.43653 0.50304 0.0
C4222 C 0.64711 0.431 0.51611 0.0
C4223 C 0.66383 0.44344 0.52424 0.0
H4224 H 0.62321 0.42687 0.4968 0.0
H4225 H 0.78995 0.54056 0.57183 0.0
H4226 H 0.23718 0.13031 0.487 0.0
H4227 H 0.2085 0.10678 0.48835 0.0
H4228 H 0.1868 0.1532 0.50912 0.0
H4229 H 0.21494 0.17645 0.50784 0.0
H4230 H 0.17785 0.12434 0.52815 0.0
H4231 H 0.17647 0.13148 0.46393 0.0
H4232 H 0.1877 0.13072 0.43367 0.0
H4233 H 0.18395 0.07062 0.42968 0.0
H4234 H 0.17293 0.0711 0.46008 0.0
H4235 H 0.08325 0.07769 0.51129 0.0
H4236 H 0.11322 0.09947 0.51185 0.0
H4237 H 0.13096 0.05132 0.48727 0.0
H4238 H 0.10119 0.02977 0.48656 0.0
H4239 H 0.14277 0.08011 0.47081 0.0
H4240 H 0.14252 0.07249 0.53445 0.0
H4241 H 0.13189 0.07348 0.56501 0.0
H4242 H 0.13908 0.13437 0.5706 0.0
H4243 H 0.14949 0.1337 0.53993 0.0
C4244 C 0.22629 0.13543 0.4919 0.0
C4245 C 0.22837 0.1553 0.49712 0.0
C4246 C 0.2099 0.122 0.49264 0.0
C4247 C 0.1954 0.12821 0.49875 0.0
C4248 C 0.1977 0.14798 0.50438 0.0
C4249 C 0.21387 0.16131 0.5035 0.0
C4250 C 0.17756 0.11445 0.4989 0.0
C4251 C 0.17012 0.11475 0.51558 0.0
C4252 C 0.16753 0.10171 0.48262 0.0
C4253 C 0.17409 0.10138 0.46436 0.0
C4254 C 0.17819 0.11815 0.45667 0.0
C4255 C 0.18449 0.11776 0.43948 0.0
C4256 C 0.18659 0.10065 0.42979 0.0
C4257 C 0.18235 0.08387 0.43723 0.0
C4258 C 0.17608 0.08419 0.45443 0.0
C4259 C 0.09355 0.07181 0.50608 0.0
C4260 C 0.08983 0.05199 0.499 0.0
C4261 C 0.11074 0.08424 0.50645 0.0
C4262 C 0.12454 0.07706 0.4998 0.0
C4263 C 0.12065 0.0573 0.49249 0.0
C4264 C 0.10357 0.04496 0.49211 0.0
C4265 C 0.14295 0.08996 0.50008 0.0
C4266 C 0.1505 0.08957 0.48345 0.0
C4267 C 0.15307 0.1026 0.51644 0.0
C4268 C 0.14658 0.10299 0.53478 0.0
C4269 C 0.14165 0.08606 0.5421 0.0
C4270 C 0.13571 0.08657 0.55947 0.0
C4271 C 0.13476 0.10396 0.56972 0.0
C4272 C 0.13978 0.12089 0.56263 0.0
C4273 C 0.14571 0.12046 0.54525 0.0
H4274 H 0.13018 0.10433 0.58317 0.0
H4275 H 0.19147 0.10037 0.41648 0.0
H4276 H 0.21498 0.97117 0.79758 0.0
H4277 H 0.22794 0.94428 0.79389 0.0
H4278 H 0.18813 0.91538 0.74628 0.0
H4279 H 0.17467 0.94272 0.75015 0.0
H4280 H 0.1943 0.8877 0.76436 0.0
H4281 H 0.23572 0.93771 0.74384 0.0
H4282 H 0.25547 0.97039 0.74538 0.0
H4283 H 0.2866 0.96596 0.79523 0.0
H4284 H 0.26691 0.93332 0.7941 0.0
H4285 H 0.24155 0.81475 0.74541 0.0
H4286 H 0.22648 0.84012 0.74463 0.0
H4287 H 0.2688 0.8789 0.78572 0.0
H4288 H 0.2846 0.85399 0.7851 0.0
H4289 H 0.26032 0.90127 0.76835 0.0
H4290 H 0.21539 0.85318 0.79125 0.0
H4291 H 0.19668 0.81974 0.78858 0.0
H4292 H 0.17394 0.82001 0.73299 0.0
H4293 H 0.19205 0.8536 0.73559 0.0
C4294 C 0.20876 0.95928 0.78614 0.0
C4295 C 0.19351 0.95988 0.77417 0.0
C4296 C 0.21648 0.94358 0.78395 0.0
C4297 C 0.20965 0.92723 0.76952 0.0
C4298 C 0.19416 0.92748 0.75759 0.0
C4299 C 0.18636 0.9434 0.75977 0.0
C4300 C 0.21881 0.91044 0.76726 0.0
C4301 C 0.20874 0.8909 0.76506 0.0
C4302 C 0.23781 0.91361 0.76828 0.0
C4303 C 0.24975 0.93315 0.76897 0.0
C4304 C 0.24672 0.94376 0.75519 0.0
C4305 C 0.25791 0.96226 0.75598 0.0
C4306 C 0.27225 0.97026 0.77042 0.0
C4307 C 0.27547 0.95975 0.78406 0.0
C4308 C 0.26432 0.94124 0.78334 0.0
C4309 C 0.24772 0.82864 0.75436 0.0
C4310 C 0.26458 0.83181 0.76531 0.0
C4311 C 0.23877 0.84344 0.75419 0.0
C4312 C 0.24569 0.86212 0.76561 0.0
C4313 C 0.26258 0.86513 0.7766 0.0
C4314 C 0.27177 0.85055 0.77632 0.0
C4315 C 0.23593 0.87848 0.766 0.0
C4316 C 0.24589 0.89802 0.76781 0.0
C4317 C 0.21688 0.87532 0.76465 0.0
C4318 C 0.205 0.8558 0.76362 0.0
C4319 C 0.20621 0.84613 0.77857 0.0
C4320 C 0.19572 0.82719 0.77707 0.0
C4321 C 0.18411 0.8178 0.76066 0.0
C4322 C 0.18285 0.82734 0.74574 0.0
C4323 C 0.19305 0.8464 0.74729 0.0
H4324 H 0.17598 0.80321 0.7596 0.0
H4325 H 0.28089 0.9846 0.77101 0.0
H4326 H 0.32665 0.94606 0.01652 0.0
H4327 H 0.35312 0.97217 0.01546 0.0
H4328 H 0.38722 0.93727 0.03031 0.0
H4329 H 0.36081 0.91089 0.03112 0.0
H4330 H 0.40032 0.97787 0.04718 0.0
H4331 H 0.37511 0.93398 0.98717 0.0
H4332 H 0.35164 0.91814 0.9602 0.0
H4333 H 0.34905 0.97338 0.94931 0.0
H4334 H 0.37232 0.98954 0.97641 0.0
H4335 H 0.47645 0.98163 0.00846 0.0
H4336 H 0.44422 0.97019 0.01007 0.0
H4337 H 0.43762 0.02503 1.00122 0.0
H4338 H 0.46996 0.03655 0.99982 0.0
H4339 H 0.40804 0.98395 0.9818 0.0
H4340 H 0.43738 0.02774 0.03869 0.0
H4341 H 0.46801 0.03996 0.05579 0.0
H4342 H 0.46445 0.98494 0.07081 0.0
H4343 H 0.43432 0.97173 0.05214 0.0
C4344 C 0.33979 0.9441 0.02005 0.0
C4345 C 0.34172 0.92635 0.02368 0.0
C4346 C 0.35484 0.95903 0.01941 0.0
C4347 C 0.37196 0.95647 0.02267 0.0
C4348 C 0.37401 0.93941 0.0278 0.0
C4349 C 0.35896 0.92435 0.02816 0.0
C4350 C 0.38766 0.97034 0.0185 0.0
C4351 C 0.40182 0.97958 0.03297 0.0
C4352 C 0.38953 0.97269 0.99994 0.0
C4353 C 0.37517 0.96295 0.98403 0.0
C4354 C 0.36933 0.94274 0.9792 0.0
C4355 C 0.35612 0.93371 0.96385 0.0
C4356 C 0.34879 0.94475 0.95311 0.0
C4357 C 0.35468 0.96485 0.95769 0.0
C4358 C 0.36785 0.97395 0.97305 0.0
C4359 C 0.46803 0.99113 0.00687 0.0
C4360 C 0.47538 0.00999 0.00456 0.0
C4361 C 0.44972 0.98455 0.00743 0.0
C4362 C 0.43871 0.99679 0.00558 0.0
C4363 C 0.44596 0.0154 0.0024 0.0
C4364 C 0.46434 0.02203 0.00199 0.0
C4365 C 0.42052 0.99102 0.01037 0.0
C4366 C 0.40604 0.9832 0.9961 0.0
C4367 C 0.41821 0.99016 0.02906 0.0
C4368 C 0.43364 0.99879 0.04406 0.0
C4369 C 0.44297 0.01833 0.04596 0.0
C4370 C 0.4603 0.02538 0.05571 0.0
C4371 C 0.46804 0.01333 0.0645 0.0
C4372 C 0.45836 0.99424 0.06394 0.0
C4373 C 0.44118 0.9869 0.05363 0.0
H4374 H 0.48165 0.01885 0.07141 0.0
H4375 H 0.33861 0.93772 0.9412 0.0
H4376 H 0.90156 0.58648 0.79337 0.0
H4377 H 0.88467 0.60889 0.78522 0.0
H4378 H 0.8566 0.56747 0.73605 0.0
H4379 H 0.87281 0.54477 0.7445 0.0
H4380 H 0.87512 0.61003 0.73321 0.0
H4381 H 0.83236 0.56796 0.76215 0.0
H4382 H 0.82206 0.55046 0.78689 0.0
H4383 H 0.83455 0.60395 0.82587 0.0
H4384 H 0.84532 0.62174 0.80144 0.0
H4385 H 0.80805 0.659 0.71195 0.0
H4386 H 0.82528 0.63575 0.71506 0.0
H4387 H 0.84187 0.66091 0.77338 0.0
H4388 H 0.82382 0.68296 0.77084 0.0
H4389 H 0.82764 0.62386 0.76885 0.0
H4390 H 0.8713 0.66628 0.74073 0.0
H4391 H 0.88284 0.68412 0.71661 0.0
H4392 H 0.86933 0.6312 0.67666 0.0
H4393 H 0.85756 0.61308 0.7005 0.0
C4394 C 0.89164 0.58218 0.78096 0.0
C4395 C 0.88822 0.56396 0.76965 0.0
C4396 C 0.88212 0.59491 0.77631 0.0
C4397 C 0.86953 0.58966 0.76007 0.0
C4398 C 0.8663 0.5716 0.74863 0.0
C4399 C 0.87541 0.55868 0.75356 0.0
C4400 C 0.85961 0.60306 0.75512 0.0
C4401 C 0.86456 0.61299 0.74078 0.0
C4402 C 0.84609 0.60683 0.76524 0.0
C4403 C 0.83993 0.59615 0.78004 0.0
C4404 C 0.8332 0.57597 0.77607 0.0
C4405 C 0.82721 0.566 0.79002 0.0
C4406 C 0.82773 0.57608 0.80796 0.0
C4407 C 0.83422 0.59615 0.81198 0.0
C4408 C 0.84028 0.60618 0.79809 0.0
C4409 C 0.81535 0.65953 0.72543 0.0
C4410 C 0.81447 0.67282 0.74115 0.0
C4411 C 0.8254 0.64645 0.72711 0.0
C4412 C 0.83485 0.64671 0.74445 0.0
C4413 C 0.83464 0.66051 0.75988 0.0
C4414 C 0.82443 0.67327 0.75832 0.0
C4415 C 0.84349 0.63153 0.74728 0.0
C4416 C 0.83816 0.62102 0.76117 0.0
C4417 C 0.85674 0.62739 0.73679 0.0
C4418 C 0.86334 0.63836 0.72234 0.0
C4419 C 0.87059 0.65848 0.72675 0.0
C4420 C 0.87723 0.66864 0.71314 0.0
C4421 C 0.87676 0.65881 0.6951 0.0
C4422 C 0.86965 0.6388 0.69062 0.0
C4423 C 0.86301 0.62859 0.70418 0.0
H4424 H 0.88194 0.66669 0.6846 0.0
H4425 H 0.82303 0.56834 0.81873 0.0
H4426 H 0.83819 0.67503 0.99986 0.0
H4427 H 0.86512 0.66405 0.00455 0.0
H4428 H 0.83296 0.61061 0.01577 0.0
H4429 H 0.80619 0.62185 0.01187 0.0
H4430 H 0.86194 0.62279 0.03987 0.0
H4431 H 0.85098 0.61733 0.97198 0.0
H4432 H 0.84778 0.63024 0.94313 0.0
H4433 H 0.90009 0.67034 0.95962 0.0
H4434 H 0.90351 0.6578 0.98864 0.0
H4435 H 0.91445 0.55833 0.02443 0.0
H4436 H 0.89255 0.57675 0.02488 0.0
H4437 H 0.93222 0.6257 0.01439 0.0
H4438 H 0.95436 0.60729 0.01402 0.0
H4439 H 0.90272 0.62058 0.99239 0.0
H4440 H 0.91645 0.62581 0.05714 0.0
H4441 H 0.92172 0.61627 0.08745 0.0
H4442 H 0.86722 0.58098 0.07951 0.0
H4443 H 0.86168 0.59009 0.049 0.0
C4444 C 0.83684 0.66088 0.0032 0.0
C4445 C 0.81997 0.64928 0.0054 0.0
C4446 C 0.85228 0.65456 0.00582 0.0
C4447 C 0.85116 0.63632 0.01027 0.0
C4448 C 0.83429 0.62474 0.01237 0.0
C4449 C 0.81892 0.63115 0.01005 0.0
C4450 C 0.86742 0.62922 0.01306 0.0
C4451 C 0.87071 0.62208 0.02935 0.0
C4452 C 0.87958 0.62925 0.99992 0.0
C4453 C 0.8774 0.63678 0.98253 0.0
C4454 C 0.86173 0.629 0.9695 0.0
C4455 C 0.85989 0.63623 0.95311 0.0
C4456 C 0.8737 0.65114 0.94957 0.0
C4457 C 0.88939 0.65882 0.96239 0.0
C4458 C 0.89129 0.65165 0.97879 0.0
C4459 C 0.9187 0.57314 0.02258 0.0
C4460 C 0.93627 0.58128 0.01923 0.0
C4461 C 0.90609 0.5837 0.02286 0.0
C4462 C 0.9107 0.60276 0.01989 0.0
C4463 C 0.92828 0.61103 0.01672 0.0
C4464 C 0.94093 0.60044 0.01643 0.0
C4465 C 0.89678 0.61342 0.01884 0.0
C4466 C 0.89401 0.62133 0.00296 0.0
C4467 C 0.88533 0.61448 0.03256 0.0
C4468 C 0.8887 0.60851 0.05068 0.0
C4469 C 0.90564 0.61584 0.06174 0.0
C4470 C 0.90866 0.61055 0.07899 0.0
C4471 C 0.89482 0.59799 0.08538 0.0
C4472 C 0.87793 0.59069 0.07453 0.0
C4473 C 0.87484 0.59593 0.05726 0.0
H4474 H 0.89718 0.59395 0.09876 0.0
H4475 H 0.87225 0.6567 0.93688 0.0
H4476 H 0.17531 0.07236 0.74525 0.0
H4477 H 0.19333 0.10485 0.74464 0.0
H4478 H 0.22725 0.10442 0.79442 0.0
H4479 H 0.20888 0.07151 0.79507 0.0
H4480 H 0.21891 0.13869 0.79732 0.0
H4481 H 0.24153 0.10237 0.74923 0.0
H4482 H 0.23832 0.07861 0.72041 0.0
H4483 H 0.21152 0.1111 0.68972 0.0
H4484 H 0.21442 0.13497 0.7184 0.0
H4485 H 0.28554 0.22579 0.79658 0.0
H4486 H 0.26822 0.19268 0.79589 0.0
H4487 H 0.23745 0.19224 0.74374 0.0
H4488 H 0.25511 0.22568 0.74433 0.0
H4489 H 0.24373 0.15833 0.74151 0.0
H4490 H 0.21972 0.19376 0.78645 0.0
H4491 H 0.21931 0.21752 0.81405 0.0
H4492 H 0.24423 0.18721 0.84927 0.0
H4493 H 0.24505 0.1634 0.82181 0.0
C4494 C 0.18692 0.07889 0.75584 0.0
C4495 C 0.19077 0.0688 0.76993 0.0
C4496 C 0.1973 0.09771 0.7555 0.0
C4497 C 0.21205 0.10754 0.76934 0.0
C4498 C 0.21612 0.09744 0.78341 0.0
C4499 C 0.20572 0.07837 0.78365 0.0
C4500 C 0.22257 0.12838 0.76932 0.0
C4501 C 0.22465 0.1428 0.7852 0.0
C4502 C 0.22945 0.13446 0.75331 0.0
C4503 C 0.22809 0.12038 0.73599 0.0
C4504 C 0.2349 0.10441 0.73635 0.0
C4505 C 0.23314 0.09093 0.72004 0.0
C4506 C 0.22469 0.09332 0.70326 0.0
C4507 C 0.21806 0.10926 0.70273 0.0
C4508 C 0.21979 0.12279 0.719 0.0
C4509 C 0.27501 0.2188 0.78496 0.0
C4510 C 0.27185 0.22877 0.77056 0.0
C4511 C 0.26494 0.19966 0.78461 0.0
C4512 C 0.25111 0.18948 0.76987 0.0
C4513 C 0.2479 0.1994 0.75538 0.0
C4514 C 0.25799 0.21872 0.75577 0.0
C4515 C 0.24041 0.16863 0.76967 0.0
C4516 C 0.23818 0.15422 0.75372 0.0
C4517 C 0.233 0.16262 0.78546 0.0
C4518 C 0.23263 0.17691 0.80204 0.0
C4519 C 0.22527 0.19225 0.80006 0.0
C4520 C 0.22493 0.20571 0.81568 0.0
C4521 C 0.23179 0.20391 0.8334 0.0
C4522 C 0.23896 0.18861 0.83553 0.0
C4523 C 0.23935 0.17511 0.81994 0.0
H4524 H 0.23151 0.21434 0.84549 0.0
H4525 H 0.2233 0.08284 0.69065 0.0
H4526 H 0.41831 0.97339 0.27086 0.0
H4527 H 0.39423 0.94498 0.27144 0.0
H4528 H 0.3579 0.96494 0.23638 0.0
H4529 H 0.38204 0.99464 0.23728 0.0
H4530 H 0.34227 0.9522 0.26362 0.0
H4531 H 0.37503 0.92527 0.21941 0.0
H4532 H 0.4025 0.92033 0.20795 0.0
H4533 H 0.41393 0.8952 0.25514 0.0
H4534 H 0.38665 0.90015 0.26697 0.0
H4535 H 0.2898 0.84876 0.24523 0.0
H4536 H 0.3051 0.88164 0.24232 0.0
H4537 H 0.33874 0.88926 0.29472 0.0
H4538 H 0.32322 0.85654 0.29799 0.0
H4539 H 0.35238 0.88737 0.25432 0.0
H4540 H 0.32338 0.91864 0.30063 0.0
H4541 H 0.29658 0.92366 0.31356 0.0
H4542 H 0.27828 0.93954 0.26285 0.0
H4543 H 0.30493 0.9344 0.24956 0.0
C4544 C 0.40529 0.97144 0.26288 0.0
C4545 C 0.40195 0.98571 0.25361 0.0
C4546 C 0.39155 0.95521 0.26317 0.0
C4547 C 0.37442 0.95253 0.25343 0.0
C4548 C 0.37111 0.96667 0.24378 0.0
C4549 C 0.38483 0.98342 0.2441 0.0
C4550 C 0.35997 0.93537 0.2545 0.0
C4551 C 0.3443 0.93795 0.26115 0.0
C4552 C 0.36276 0.91683 0.25159 0.0
C4553 C 0.37878 0.91308 0.24405 0.0
C4554 C 0.38339 0.91867 0.22732 0.0
C4555 C 0.39894 0.91589 0.22078 0.0
C4556 C 0.40995 0.90745 0.23081 0.0
C4557 C 0.40538 0.90169 0.24736 0.0
C4558 C 0.38984 0.90441 0.25395 0.0
C4559 C 0.30008 0.85771 0.25639 0.0
C4560 C 0.30562 0.85023 0.27169 0.0
C4561 C 0.30863 0.87644 0.25479 0.0
C4562 C 0.32286 0.88764 0.26836 0.0
C4563 C 0.32755 0.88072 0.28431 0.0
C4564 C 0.31876 0.8621 0.28611 0.0
C4565 C 0.33521 0.90446 0.26389 0.0
C4566 C 0.35032 0.90162 0.25641 0.0
C4567 C 0.33189 0.92261 0.26605 0.0
C4568 C 0.31601 0.92595 0.27405 0.0
C4569 C 0.31356 0.92304 0.29219 0.0
C4570 C 0.29843 0.92595 0.2996 0.0
C4571 C 0.28571 0.93186 0.28901 0.0
C4572 C 0.28813 0.93494 0.27102 0.0
C4573 C 0.30326 0.93206 0.26355 0.0
H4574 H 0.27399 0.9341 0.29476 0.0
H4575 H 0.42202 0.90539 0.22576 0.0
H4576 H 0.57849 0.3457 0.56145 0.0
H4577 H 0.57038 0.37141 0.54849 0.0
H4578 H 0.55614 0.39311 0.60127 0.0
H4579 H 0.5633 0.36636 0.61409 0.0
H4580 H 0.53344 0.39667 0.57333 0.0
H4581 H 0.5997 0.41494 0.58588 0.0
H4582 H 0.62868 0.4078 0.58274 0.0
H4583 H 0.6151 0.39539 0.52314 0.0
H4584 H 0.5864 0.403 0.52596 0.0
H4585 H 0.53726 0.49018 0.55542 0.0
H4586 H 0.54077 0.46186 0.56761 0.0
H4587 H 0.56013 0.44206 0.51715 0.0
H4588 H 0.55738 0.47098 0.50545 0.0
H4589 H 0.5799 0.43723 0.54391 0.0
H4590 H 0.51648 0.42061 0.52876 0.0
H4591 H 0.48594 0.4244 0.52834 0.0
H4592 H 0.49087 0.42902 0.58773 0.0
H4593 H 0.52155 0.42551 0.58854 0.0
C4594 C 0.5736 0.35591 0.57034 0.0
C4595 C 0.57185 0.3542 0.58892 0.0
C4596 C 0.56907 0.37073 0.56292 0.0
C4597 C 0.56331 0.38474 0.57406 0.0
C4598 C 0.56081 0.38266 0.59244 0.0
C4599 C 0.56493 0.36741 0.59978 0.0
C4600 C 0.56026 0.40163 0.56649 0.0
C4601 C 0.54369 0.40576 0.56718 0.0
C4602 C 0.5733 0.41308 0.55771 0.0
C4603 C 0.59096 0.40949 0.55613 0.0
C4604 C 0.60302 0.41084 0.57213 0.0
C4605 C 0.61942 0.40679 0.5704 0.0
C4606 C 0.62381 0.40128 0.55275 0.0
C4607 C 0.61185 0.39991 0.5368 0.0
C4608 C 0.59558 0.40422 0.53845 0.0
C4609 C 0.54223 0.4797 0.547 0.0
C4610 C 0.54709 0.48261 0.52958 0.0
C4611 C 0.54407 0.46341 0.55386 0.0
C4612 C 0.55043 0.44951 0.54322 0.0
C4613 C 0.55517 0.45248 0.52567 0.0
C4614 C 0.55359 0.46894 0.51895 0.0
C4615 C 0.55305 0.43245 0.55077 0.0
C4616 C 0.56958 0.42829 0.55011 0.0
C4617 C 0.53977 0.42073 0.55912 0.0
C4618 C 0.52139 0.42301 0.55873 0.0
C4619 C 0.51111 0.42261 0.54175 0.0
C4620 C 0.49376 0.42467 0.54144 0.0
C4621 C 0.48649 0.42701 0.558 0.0
C4622 C 0.49654 0.42724 0.57491 0.0
C4623 C 0.5139 0.4252 0.5753 0.0
H4624 H 0.47305 0.42859 0.55773 0.0
H4625 H 0.63645 0.39801 0.55143 0.0
H4626 H 0.43283 0.75601 0.39783 0.0
H4627 H 0.4094 0.76332 0.37871 0.0
H4628 H 0.44277 0.77053 0.33545 0.0
H4629 H 0.46711 0.76407 0.35526 0.0
H4630 H 0.42596 0.79794 0.33923 0.0
H4631 H 0.40531 0.72874 0.33334 0.0
H4632 H 0.39791 0.6986 0.34564 0.0
H4633 H 0.35892 0.71767 0.37518 0.0
H4634 H 0.36623 0.74801 0.36323 0.0
H4635 H 0.35584 0.79476 0.26858 0.0
H4636 H 0.3805 0.79007 0.28865 0.0
H4637 H 0.34676 0.78097 0.33139 0.0
H4638 H 0.32177 0.78492 0.31081 0.0
H4639 H 0.36382 0.75483 0.32821 0.0
H4640 H 0.38314 0.82297 0.33512 0.0
H4641 H 0.39053 0.85441 0.32522 0.0
H4642 H 0.4316 0.8391 0.29639 0.0
H4643 H 0.42429 0.80745 0.3059 0.0
C4644 C 0.43531 0.75891 0.38417 0.0
C4645 C 0.45196 0.75914 0.37807 0.0
C4646 C 0.42171 0.76305 0.37314 0.0
C4647 C 0.42396 0.76703 0.35533 0.0
C4648 C 0.44056 0.76733 0.34907 0.0
C4649 C 0.45444 0.76347 0.36034 0.0
C4650 C 0.40902 0.77119 0.34363 0.0
C4651 C 0.41245 0.78831 0.33652 0.0
C4652 C 0.39112 0.75913 0.34068 0.0
C4653 C 0.38639 0.74067 0.34747 0.0
C4654 C 0.39519 0.72652 0.3425 0.0
C4655 C 0.39102 0.70941 0.34941 0.0
C4656 C 0.37798 0.70624 0.36121 0.0
C4657 C 0.36902 0.72014 0.36605 0.0
C4658 C 0.37315 0.73728 0.35918 0.0
C4659 C 0.35369 0.79205 0.28238 0.0
C4660 C 0.33679 0.79058 0.28819 0.0
C4661 C 0.36791 0.78946 0.29393 0.0
C4662 C 0.36577 0.78546 0.31179 0.0
C4663 C 0.34893 0.78419 0.31777 0.0
C4664 C 0.33462 0.78673 0.30609 0.0
C4665 C 0.38076 0.78152 0.32362 0.0
C4666 C 0.37733 0.76445 0.33081 0.0
C4667 C 0.3986 0.79375 0.32684 0.0
C4668 C 0.40304 0.81276 0.32107 0.0
C4669 C 0.39365 0.82624 0.32654 0.0
C4670 C 0.39784 0.84411 0.32102 0.0
C4671 C 0.41149 0.84873 0.31013 0.0
C4672 C 0.42101 0.8355 0.30479 0.0
C4673 C 0.41686 0.8176 0.31026 0.0
H4674 H 0.41471 0.86257 0.30587 0.0
H4675 H 0.37479 0.693 0.36658 0.0
H4676 H 0.04311 0.74757 0.08774 0.0
H4677 H 0.03505 0.71329 0.07375 0.0
H4678 H 0.08652 0.72143 0.05437 0.0
H4679 H 0.09427 0.75562 0.06748 0.0
H4680 H 0.06277 0.69758 0.02913 0.0
H4681 H 0.07659 0.70412 0.09599 0.0
H4682 H 0.07303 0.71347 0.12886 0.0
H4683 H 0.01854 0.67785 0.11779 0.0
H4684 H 0.0217 0.66851 0.08479 0.0
H4685 H 0.07444 0.60291 0.02496 0.0
H4686 H 0.07752 0.63745 0.03427 0.0
H4687 H 0.0209 0.62491 0.03771 0.0
H4688 H 0.01759 0.59062 0.02815 0.0
H4689 H 0.04469 0.65005 0.06987 0.0
H4690 H 0.03188 0.64199 0.00346 0.0
H4691 H 0.0362 0.63153 0.97108 0.0
H4692 H 0.08982 0.66931 0.98199 0.0
H4693 H 0.08592 0.67975 0.01456 0.0
C4694 C 0.05258 0.74206 0.08027 0.0
C4695 C 0.06936 0.75428 0.07881 0.0
C4696 C 0.04802 0.72246 0.0724 0.0
C4697 C 0.06034 0.7147 0.06334 0.0
C4698 C 0.0768 0.72704 0.06131 0.0
C4699 C 0.08123 0.74662 0.06886 0.0
C4700 C 0.05656 0.6937 0.0565 0.0
C4701 C 0.05896 0.68725 0.03813 0.0
C4702 C 0.05122 0.68009 0.06808 0.0
C4703 C 0.04931 0.68582 0.08788 0.0
C4704 C 0.0638 0.69842 0.10054 0.0
C4705 C 0.06186 0.7037 0.11919 0.0
C4706 C 0.04555 0.69631 0.12539 0.0
C4707 C 0.03115 0.6836 0.11296 0.0
C4708 C 0.03301 0.67832 0.09428 0.0
C4709 C 0.06266 0.60755 0.0276 0.0
C4710 C 0.04579 0.5941 0.02577 0.0
C4711 C 0.06443 0.62722 0.03287 0.0
C4712 C 0.0494 0.63357 0.03661 0.0
C4713 C 0.0326 0.62019 0.03485 0.0
C4714 C 0.03076 0.60063 0.02929 0.0
C4715 C 0.05123 0.6542 0.04277 0.0
C4716 C 0.04842 0.66048 0.06094 0.0
C4717 C 0.05631 0.66763 0.0311 0.0
C4718 C 0.05867 0.6615 0.0115 0.0
C4719 C 0.04465 0.64793 0.99901 0.0
C4720 C 0.04701 0.64203 0.98061 0.0
C4721 C 0.06329 0.64972 0.97449 0.0
C4722 C 0.07723 0.66335 0.98676 0.0
C4723 C 0.07495 0.66927 0.00518 0.0
H4724 H 0.06509 0.64514 0.96024 0.0
H4725 H 0.04409 0.7004 0.13984 0.0
H4726 H 0.06732 0.26691 0.89766 0.0
H4727 H 0.09663 0.27207 0.88659 0.0
H4728 H 0.0758 0.29201 0.83927 0.0
H4729 H 0.04668 0.28752 0.85054 0.0
H4730 H 0.0946 0.25949 0.83337 0.0
H4731 H 0.10054 0.3241 0.86672 0.0
H4732 H 0.10117 0.3484 0.8943 0.0
H4733 H 0.14405 0.33283 0.92358 0.0
H4734 H 0.14345 0.30815 0.89628 0.0
H4735 H 0.16683 0.29155 0.787 0.0
H4736 H 0.14104 0.29112 0.80327 0.0
H4737 H 0.1724 0.29001 0.85457 0.0
H4738 H 0.19867 0.29119 0.83848 0.0
H4739 H 0.14943 0.31231 0.86103 0.0
H4740 H 0.14491 0.24898 0.83054 0.0
H4741 H 0.14556 0.22338 0.80467 0.0
H4742 H 0.10122 0.23401 0.77271 0.0
H4743 H 0.10049 0.2599 0.79831 0.0
C4744 C 0.06898 0.27239 0.88489 0.0
C4745 C 0.05462 0.2767 0.87491 0.0
C4746 C 0.08577 0.27547 0.87867 0.0
C4747 C 0.08842 0.28255 0.86218 0.0
C4748 C 0.07407 0.28665 0.8521 0.0
C4749 C 0.05743 0.28403 0.85853 0.0
C4750 C 0.1058 0.28467 0.8548 0.0
C4751 C 0.10652 0.27117 0.83929 0.0
C4752 C 0.12158 0.29942 0.86303 0.0
C4753 C 0.12173 0.31403 0.87955 0.0
C4754 C 0.10991 0.32563 0.87914 0.0
C4755 C 0.11032 0.33953 0.8947 0.0
C4756 C 0.12259 0.3421 0.91072 0.0
C4757 C 0.13451 0.33078 0.91119 0.0
C4758 C 0.13414 0.31683 0.89567 0.0
C4759 C 0.16848 0.29167 0.80183 0.0
C4760 C 0.18494 0.2913 0.81133 0.0
C4761 C 0.15359 0.29122 0.81111 0.0
C4762 C 0.15462 0.29019 0.8301 0.0
C4763 C 0.1712 0.29069 0.83989 0.0
C4764 C 0.18618 0.29117 0.8306 0.0
C4765 C 0.13807 0.28741 0.83924 0.0
C4766 C 0.13752 0.30062 0.85512 0.0
C4767 C 0.12249 0.27212 0.83166 0.0
C4768 C 0.12275 0.25648 0.81627 0.0
C4769 C 0.13538 0.24595 0.81794 0.0
C4770 C 0.13575 0.23138 0.80334 0.0
C4771 C 0.12346 0.2271 0.78704 0.0
C4772 C 0.11074 0.23736 0.78534 0.0
C4773 C 0.11033 0.25197 0.7999 0.0
H4774 H 0.12377 0.21581 0.77574 0.0
H4775 H 0.1229 0.3529 0.92273 0.0
H4776 H 0.59582 0.77448 0.92769 0.0
H4777 H 0.58842 0.74363 0.93806 0.0
H4778 H 0.53776 0.72582 0.90147 0.0
H4779 H 0.54472 0.7571 0.89195 0.0
H4780 H 0.53216 0.72017 0.93393 0.0
H4781 H 0.57287 0.70436 0.89404 0.0
H4782 H 0.60104 0.70958 0.88048 0.0
H4783 H 0.63056 0.71249 0.93387 0.0
H4784 H 0.60262 0.70758 0.94782 0.0
H4785 H 0.51935 0.63146 0.9708 0.0
H4786 H 0.52087 0.65438 0.94937 0.0
H4787 H 0.57236 0.68854 0.97982 0.0
H4788 H 0.57104 0.66555 1.00069 0.0
H4789 H 0.57348 0.68006 0.94326 0.0
H4790 H 0.53303 0.7011 0.98345 0.0
H4791 H 0.5049 0.69756 0.99699 0.0
H4792 H 0.47476 0.68523 0.94221 0.0
H4793 H 0.50268 0.68835 0.92833 0.0
C4794 C 0.58329 0.76378 0.92164 0.0
C4795 C 0.57076 0.76802 0.9092 0.0
C4796 C 0.57911 0.74615 0.92744 0.0
C4797 C 0.56261 0.73236 0.92034 0.0
C4798 C 0.55053 0.73628 0.90711 0.0
C4799 C 0.55451 0.75407 0.9017 0.0
C4800 C 0.55723 0.71478 0.9282 0.0
C4801 C 0.54099 0.71108 0.93556 0.0
C4802 C 0.56881 0.70307 0.9304 0.0
C4803 C 0.58562 0.70562 0.92198 0.0
C4804 C 0.58537 0.70617 0.90291 0.0
C4805 C 0.60131 0.70909 0.89515 0.0
C4806 C 0.61758 0.71137 0.90631 0.0
C4807 C 0.61794 0.7107 0.92524 0.0
C4808 C 0.60205 0.70781 0.93307 0.0
C4809 C 0.5308 0.64406 0.97293 0.0
C4810 C 0.54515 0.64691 0.98714 0.0
C4811 C 0.53166 0.65705 0.96077 0.0
C4812 C 0.54678 0.673 0.96302 0.0
C4813 C 0.56069 0.67617 0.97778 0.0
C4814 C 0.55992 0.66316 0.98969 0.0
C4815 C 0.54892 0.68615 0.94971 0.0
C4816 C 0.56447 0.68887 0.94117 0.0
C4817 C 0.53669 0.69692 0.94641 0.0
C4818 C 0.51992 0.69463 0.95484 0.0
C4819 C 0.52038 0.69737 0.97428 0.0
C4820 C 0.50448 0.69549 0.98202 0.0
C4821 C 0.48804 0.69109 0.97047 0.0
C4822 C 0.48748 0.68856 0.95115 0.0
C4823 C 0.50334 0.69036 0.94334 0.0
H4824 H 0.47576 0.6897 0.97649 0.0
H4825 H 0.6299 0.71365 0.90028 0.0
H4826 H 0.0476 0.76735 0.6631 0.0
H4827 H 0.07907 0.77722 0.677 0.0
H4828 H 0.06572 0.74469 0.72028 0.0
H4829 H 0.03406 0.73434 0.70623 0.0
H4830 H 0.09206 0.78453 0.73121 0.0
H4831 H 0.07838 0.72274 0.68947 0.0
H4832 H 0.06635 0.70021 0.6596 0.0
H4833 H 0.10295 0.73699 0.63187 0.0
H4834 H 0.11493 0.75998 0.66155 0.0
H4835 H 0.16787 0.75621 0.76172 0.0
H4836 H 0.13926 0.76209 0.75179 0.0
H4837 H 0.1605 0.78383 0.70484 0.0
H4838 H 0.18907 0.77758 0.71461 0.0
H4839 H 0.13109 0.75409 0.69469 0.0
H4840 H 0.14182 0.81773 0.73494 0.0
H4841 H 0.15368 0.84102 0.76452 0.0
H4842 H 0.1238 0.80071 0.79441 0.0
H4843 H 0.11165 0.77734 0.76494 0.0
C4844 C 0.05132 0.7625 0.67572 0.0
C4845 C 0.03855 0.74995 0.68358 0.0
C4846 C 0.06922 0.76819 0.68361 0.0
C4847 C 0.07445 0.7616 0.69953 0.0
C4848 C 0.06168 0.74987 0.70798 0.0
C4849 C 0.04376 0.74387 0.6999 0.0
C4850 C 0.09348 0.76544 0.70625 0.0
C4851 C 0.10065 0.77788 0.72332 0.0
C4852 C 0.10454 0.75705 0.69556 0.0
C4853 C 0.09733 0.74325 0.67768 0.0
C4854 C 0.08369 0.72617 0.67697 0.0
C4855 C 0.07691 0.71328 0.66008 0.0
C4856 C 0.08382 0.71721 0.64383 0.0
C4857 C 0.09756 0.734 0.64445 0.0
C4858 C 0.10434 0.74697 0.66131 0.0
C4859 C 0.16649 0.76269 0.74957 0.0
C4860 C 0.18037 0.76634 0.73877 0.0
C4861 C 0.15029 0.76624 0.74402 0.0
C4862 C 0.14796 0.7737 0.72778 0.0
C4863 C 0.16219 0.77825 0.71751 0.0
C4864 C 0.17835 0.77457 0.72298 0.0
C4865 C 0.12984 0.77319 0.7198 0.0
C4866 C 0.12269 0.76119 0.70243 0.0
C4867 C 0.11883 0.78197 0.73017 0.0
C4868 C 0.1261 0.79578 0.74787 0.0
C4869 C 0.13792 0.81384 0.74787 0.0
C4870 C 0.14459 0.82708 0.76457 0.0
C4871 C 0.13959 0.8223 0.78135 0.0
C4872 C 0.12772 0.80437 0.78142 0.0
C4873 C 0.12087 0.79117 0.76472 0.0
H4874 H 0.14486 0.83251 0.79427 0.0
H4875 H 0.07858 0.7072 0.63077 0.0
H4876 H 0.06824 0.36969 0.44671 0.0
H4877 H 0.06363 0.40123 0.4488 0.0
H4878 H 0.10267 0.41615 0.41201 0.0
H4879 H 0.10681 0.38356 0.4088 0.0
H4880 H 0.10331 0.44131 0.45217 0.0
H4881 H 0.06848 0.41638 0.39166 0.0
H4882 H 0.04715 0.39186 0.36714 0.0
H4883 H 0.00588 0.38864 0.40209 0.0
H4884 H 0.02697 0.41294 0.4269 0.0
H4885 H 0.0717 0.51833 0.48633 0.0
H4886 H 0.08172 0.49781 0.46289 0.0
H4887 H 0.03502 0.45094 0.4637 0.0
H4888 H 0.02424 0.47235 0.48617 0.0
H4889 H 0.0434 0.44815 0.43037 0.0
H4890 H 0.07559 0.45801 0.49184 0.0
H4891 H 0.09383 0.47711 0.52132 0.0
H4892 H 0.13628 0.50089 0.49145 0.0
H4893 H 0.11827 0.48174 0.4618 0.0
C4894 C 0.07605 0.37958 0.43909 0.0
C4895 C 0.08777 0.37401 0.4274 0.0
C4896 C 0.07316 0.39751 0.44012 0.0
C4897 C 0.08232 0.41053 0.42999 0.0
C4898 C 0.09514 0.40586 0.41943 0.0
C4899 C 0.09771 0.38748 0.41793 0.0
C4900 C 0.07917 0.42952 0.43246 0.0
C4901 C 0.09059 0.44338 0.44686 0.0
C4902 C 0.06213 0.4314 0.426 0.0
C4903 C 0.04937 0.41657 0.41115 0.0
C4904 C 0.0549 0.41036 0.39417 0.0
C4905 C 0.04282 0.39651 0.3802 0.0
C4906 C 0.02517 0.38871 0.38305 0.0
C4907 C 0.01954 0.39473 0.39988 0.0
C4908 C 0.03155 0.40859 0.41388 0.0
C4909 C 0.06353 0.50377 0.48138 0.0
C4910 C 0.04748 0.49668 0.48824 0.0
C4911 C 0.0692 0.49206 0.46792 0.0
C4912 C 0.05933 0.47276 0.46189 0.0
C4913 C 0.04284 0.46584 0.46819 0.0
C4914 C 0.03681 0.47789 0.48115 0.0
C4915 C 0.06715 0.45929 0.4508 0.0
C4916 C 0.05655 0.4467 0.435 0.0
C4917 C 0.08446 0.45771 0.45674 0.0
C4918 C 0.09543 0.4689 0.47458 0.0
C4919 C 0.08876 0.46743 0.49156 0.0
C4920 C 0.09908 0.47819 0.5083 0.0
C4921 C 0.11615 0.49033 0.50824 0.0
C4922 C 0.12301 0.49157 0.49146 0.0
C4923 C 0.11277 0.48076 0.4747 0.0
H4924 H 0.1241 0.4987 0.52121 0.0
H4925 H 0.01585 0.37801 0.37221 0.0
H4926 H 0.42864 0.23789 0.15543 0.0
H4927 H 0.40483 0.2448 0.17237 0.0
H4928 H 0.44374 0.27076 0.22185 0.0
H4929 H 0.46724 0.26254 0.20517 0.0
H4930 H 0.41569 0.24937 0.23094 0.0
H4931 H 0.42616 0.29807 0.1938 0.0
H4932 H 0.43023 0.31098 0.16498 0.0
H4933 H 0.37641 0.27866 0.14089 0.0
H4934 H 0.3721 0.2653 0.16943 0.0
H4935 H 0.35071 0.29508 0.26928 0.0
H4936 H 0.37782 0.29225 0.25607 0.0
H4937 H 0.34609 0.24325 0.21506 0.0
H4938 H 0.3191 0.24552 0.22844 0.0
H4939 H 0.37221 0.2805 0.2041 0.0
H4940 H 0.36469 0.22905 0.24104 0.0
H4941 H 0.35898 0.22104 0.27161 0.0
H4942 H 0.40847 0.26264 0.29756 0.0
H4943 H 0.41398 0.2716 0.26717 0.0
C4944 C 0.43194 0.24511 0.1699 0.0
C4945 C 0.44943 0.24984 0.1792 0.0
C4946 C 0.41849 0.24915 0.1795 0.0
C4947 C 0.42269 0.25863 0.19821 0.0
C4948 C 0.44032 0.26348 0.2074 0.0
C4949 C 0.45364 0.2589 0.19794 0.0
C4950 C 0.40853 0.26296 0.20832 0.0
C4951 C 0.40639 0.25645 0.22518 0.0
C4952 C 0.39644 0.27224 0.20079 0.0
C4953 C 0.39885 0.28061 0.18374 0.0
C4954 C 0.41521 0.29365 0.18233 0.0
C4955 C 0.41757 0.30105 0.16604 0.0
C4956 C 0.40359 0.29563 0.15111 0.0
C4957 C 0.38722 0.28285 0.15246 0.0
C4958 C 0.38481 0.27538 0.16871 0.0
C4959 C 0.34966 0.28349 0.2577 0.0
C4960 C 0.33301 0.27045 0.24985 0.0
C4961 C 0.36499 0.28203 0.25014 0.0
C4962 C 0.36358 0.26777 0.23457 0.0
C4963 C 0.34711 0.25442 0.22703 0.0
C4964 C 0.33187 0.25557 0.23483 0.0
C4965 C 0.37938 0.2665 0.22614 0.0
C4966 C 0.38177 0.27365 0.20977 0.0
C4967 C 0.39182 0.25811 0.23418 0.0
C4968 C 0.38963 0.25115 0.25192 0.0
C4969 C 0.3743 0.23656 0.25328 0.0
C4970 C 0.37102 0.23198 0.27059 0.0
C4971 C 0.38327 0.24148 0.28657 0.0
C4972 C 0.39892 0.25541 0.2852 0.0
C4973 C 0.4021 0.2603 0.26794 0.0
H4974 H 0.38074 0.23785 0.29996 0.0
H4975 H 0.40545 0.30135 0.1385 0.0
H4976 H 0.61835 0.48122 0.32056 0.0
H4977 H 0.60517 0.48181 0.34987 0.0
H4978 H 0.62516 0.54365 0.36242 0.0
H4979 H 0.63817 0.54301 0.33352 0.0
H4980 H 0.62845 0.53355 0.39394 0.0
H4981 H 0.57831 0.51571 0.34533 0.0
H4982 H 0.55776 0.49626 0.31732 0.0
H4983 H 0.54642 0.44734 0.34421 0.0
H4984 H 0.56711 0.46643 0.37231 0.0
H4985 H 0.57651 0.55104 0.46876 0.0
H4986 H 0.59146 0.54973 0.44083 0.0
H4987 H 0.56463 0.48903 0.42456 0.0
H4988 H 0.54884 0.49085 0.45157 0.0
H4989 H 0.56522 0.49838 0.39475 0.0
H4990 H 0.61654 0.51656 0.44348 0.0
H4991 H 0.63609 0.53707 0.4717 0.0
H4992 H 0.6447 0.58585 0.44453 0.0
H4993 H 0.62506 0.56566 0.41623 0.0
C4994 C 0.62037 0.49491 0.32976 0.0
C4995 C 0.62992 0.51203 0.32443 0.0
C4996 C 0.61246 0.49533 0.34661 0.0
C4997 C 0.61371 0.51287 0.35895 0.0
C4998 C 0.62371 0.52978 0.35374 0.0
C4999 C 0.63136 0.52938 0.33697 0.0
C5000 C 0.60477 0.51401 0.377 0.0
C5001 C 0.61455 0.52585 0.3939 0.0
C5002 C 0.5866 0.50405 0.37784 0.0
C5003 C 0.57446 0.49243 0.36083 0.0
C5004 C 0.5716 0.50074 0.3452 0.0
C5005 C 0.55988 0.4898 0.32932 0.0
C5006 C 0.55084 0.47056 0.32896 0.0
C5007 C 0.55348 0.46223 0.34449 0.0
C5008 C 0.5652 0.47311 0.36039 0.0
C5009 C 0.57414 0.53729 0.45952 0.0
C5010 C 0.56165 0.52094 0.46313 0.0
C5011 C 0.58284 0.53644 0.44323 0.0
C5012 C 0.57993 0.51907 0.42996 0.0
C5013 C 0.56758 0.50278 0.43393 0.0
C5014 C 0.55859 0.50376 0.44983 0.0
C5015 C 0.589 0.51764 0.41192 0.0
C5016 C 0.5792 0.50587 0.39494 0.0
C5017 C 0.60717 0.52763 0.411 0.0
C5018 C 0.61924 0.53964 0.42782 0.0
C5019 C 0.62259 0.53167 0.44356 0.0
C5020 C 0.63366 0.54324 0.45956 0.0
C5021 C 0.6416 0.56276 0.45991 0.0
C5022 C 0.63853 0.57073 0.44424 0.0
C5023 C 0.62745 0.55923 0.42822 0.0
H5024 H 0.65015 0.5717 0.47232 0.0
H5025 H 0.54176 0.46212 0.31667 0.0
H5026 H 0.27924 0.88848 0.05963 0.0
H5027 H 0.29644 0.89984 0.09098 0.0
H5028 H 0.34272 0.88721 0.07014 0.0
H5029 H 0.32497 0.87282 0.0403 0.0
H5030 H 0.3274 0.8619 0.08877 0.0
H5031 H 0.34709 0.93038 0.09958 0.0
H5032 H 0.34419 0.96315 0.09973 0.0
H5033 H 0.30529 0.95445 0.13734 0.0
H5034 H 0.30775 0.92154 0.13722 0.0
H5035 H 0.34668 0.83836 0.1729 0.0
H5036 H 0.3551 0.86078 0.15172 0.0
H5037 H 0.30715 0.87888 0.15779 0.0
H5038 H 0.29905 0.85705 0.17937 0.0
H5039 H 0.33255 0.90705 0.14814 0.0
H5040 H 0.30465 0.83833 0.12837 0.0
H5041 H 0.3019 0.80362 0.12529 0.0
H5042 H 0.35078 0.81132 0.10138 0.0
H5043 H 0.35397 0.84618 0.10467 0.0
C5044 C 0.2933 0.88891 0.06165 0.0
C5045 C 0.30072 0.87983 0.04744 0.0
C5046 C 0.30323 0.89568 0.07951 0.0
C5047 C 0.32081 0.89406 0.08291 0.0
C5048 C 0.32918 0.88851 0.06783 0.0
C5049 C 0.31895 0.88038 0.05057 0.0
C5050 C 0.32746 0.89068 0.10127 0.0
C5051 C 0.32927 0.87216 0.1017 0.0
C5052 C 0.32905 0.90364 0.11814 0.0
C5053 C 0.32757 0.92345 0.11834 0.0
C5054 C 0.33782 0.9354 0.10779 0.0
C5055 C 0.33628 0.95402 0.10789 0.0
C5056 C 0.32456 0.96087 0.11853 0.0
C5057 C 0.31438 0.94913 0.12912 0.0
C5058 C 0.31588 0.93051 0.12907 0.0
C5059 C 0.33838 0.84774 0.17032 0.0
C5060 C 0.32195 0.84563 0.17721 0.0
C5061 C 0.34321 0.86056 0.15828 0.0
C5062 C 0.33151 0.8711 0.1529 0.0
C5063 C 0.31631 0.87079 0.1617 0.0
C5064 C 0.31155 0.85811 0.17378 0.0
C5065 C 0.3324 0.87842 0.13534 0.0
C5066 C 0.33168 0.89737 0.13508 0.0
C5067 C 0.33125 0.8657 0.11837 0.0
C5068 C 0.32978 0.84491 0.11718 0.0
C5069 C 0.31496 0.83267 0.12275 0.0
C5070 C 0.31329 0.81296 0.1209 0.0
C5071 C 0.32622 0.80528 0.11324 0.0
C5072 C 0.34084 0.81731 0.10742 0.0
C5073 C 0.34262 0.83704 0.10933 0.0
H5074 H 0.32485 0.79001 0.11174 0.0
H5075 H 0.32337 0.97529 0.11858 0.0
H5076 H 0.93352 0.53945 0.83527 0.0
H5077 H 0.93959 0.53678 0.86807 0.0
H5078 H 0.98403 0.51423 0.85569 0.0
H5079 H 0.97786 0.5164 0.82329 0.0
H5080 H 0.96616 0.4957 0.87935 0.0
H5081 H 0.98955 0.56262 0.87066 0.0
H5082 H 0.98555 0.59274 0.86222 0.0
H5083 H 0.95009 0.59608 0.90305 0.0
H5084 H 0.95372 0.56581 0.91153 0.0
H5085 H 0.0416 0.52269 0.94652 0.0
H5086 H 0.01964 0.51906 0.91899 0.0
H5087 H 0.98774 0.54606 0.95341 0.0
H5088 H 0.01075 0.55152 0.98033 0.0
H5089 H 0.9888 0.55849 0.92307 0.0
H5090 H 0.97685 0.49495 0.93759 0.0
H5091 H 0.98537 0.46642 0.94488 0.0
H5092 H 0.00345 0.45737 0.89171 0.0
H5093 H 0.99534 0.48599 0.88422 0.0
C5094 C 0.94457 0.53398 0.83969 0.0
C5095 C 0.9554 0.52836 0.82695 0.0
C5096 C 0.94786 0.53224 0.85825 0.0
C5097 C 0.96217 0.52523 0.86414 0.0
C5098 C 0.97274 0.51938 0.85131 0.0
C5099 C 0.96936 0.52089 0.83287 0.0
C5100 C 0.96793 0.52596 0.88387 0.0
C5101 C 0.97091 0.50931 0.88912 0.0
C5102 C 0.97374 0.5437 0.89654 0.0
C5103 C 0.97168 0.56188 0.89152 0.0
C5104 C 0.98081 0.56974 0.87774 0.0
C5105 C 0.97862 0.58682 0.87295 0.0
C5106 C 0.96752 0.59628 0.88204 0.0
C5107 C 0.95863 0.5887 0.89598 0.0
C5108 C 0.96073 0.57159 0.90076 0.0
C5109 C 0.03 0.52807 0.94797 0.0
C5110 C 0.02722 0.5367 0.96535 0.0
C5111 C 0.01735 0.52568 0.93245 0.0
C5112 C 1.00167 0.53144 0.93444 0.0
C5113 C 0.99949 0.54101 0.95174 0.0
C5114 C 0.0124 0.54388 0.96709 0.0
C5115 C 0.98803 0.52842 0.91822 0.0
C5116 C 0.98342 0.54462 0.91377 0.0
C5117 C 0.98117 0.51032 0.90612 0.0
C5118 C 0.98544 0.49264 0.91035 0.0
C5119 C 0.98264 0.48688 0.92746 0.0
C5120 C 0.98743 0.47071 0.93163 0.0
C5121 C 0.99493 0.46008 0.91876 0.0
C5122 C 0.9976 0.46558 0.90166 0.0
C5123 C 0.99287 0.48176 0.89742 0.0
H5124 H 0.99867 0.4476 0.92205 0.0
H5125 H 0.96584 0.60951 0.87833 0.0
H5126 H 0.28898 0.2541 0.54973 0.0
H5127 H 0.29162 0.26382 0.58338 0.0
H5128 H 0.30339 0.21079 0.5908 0.0
H5129 H 0.30056 0.20083 0.55693 0.0
H5130 H 0.2765 0.21583 0.60879 0.0
H5131 H 0.33499 0.25402 0.60599 0.0
H5132 H 0.35895 0.27736 0.59535 0.0
H5133 H 0.33389 0.3221 0.61105 0.0
H5134 H 0.30962 0.29895 0.62154 0.0
H5135 H 0.30201 0.24641 0.7081 0.0
H5136 H 0.30284 0.23735 0.67475 0.0
H5137 H 0.27362 0.27786 0.6633 0.0
H5138 H 0.27217 0.28652 0.69683 0.0
H5139 H 0.31003 0.27898 0.64808 0.0
H5140 H 0.25071 0.23854 0.65011 0.0
H5141 H 0.2288 0.21455 0.66245 0.0
H5142 H 0.25819 0.17318 0.64958 0.0
H5143 H 0.28046 0.19704 0.63743 0.0
C5144 C 0.29258 0.24469 0.55852 0.0
C5145 C 0.29446 0.22664 0.55065 0.0
C5146 C 0.29414 0.25031 0.57779 0.0
C5147 C 0.29768 0.23803 0.58964 0.0
C5148 C 0.30061 0.22047 0.5819 0.0
C5149 C 0.29914 0.21487 0.56255 0.0
C5150 C 0.29645 0.24275 0.6098 0.0
C5151 C 0.28407 0.22953 0.61742 0.0
C5152 C 0.30602 0.26077 0.62102 0.0
C5153 C 0.32037 0.27468 0.61436 0.0
C5154 C 0.33447 0.26878 0.60697 0.0
C5155 C 0.34813 0.28199 0.60102 0.0
C5156 C 0.34791 0.30119 0.60248 0.0
C5157 C 0.33403 0.30721 0.6099 0.0
C5158 C 0.32032 0.29405 0.61586 0.0
C5159 C 0.29559 0.25322 0.69843 0.0
C5160 C 0.28702 0.26713 0.7049 0.0
C5161 C 0.29607 0.24803 0.67945 0.0
C5162 C 0.28833 0.25698 0.66668 0.0
C5163 C 0.27963 0.27081 0.67304 0.0
C5164 C 0.27873 0.27566 0.69208 0.0
C5165 C 0.28999 0.2522 0.64677 0.0
C5166 C 0.30249 0.26535 0.63931 0.0
C5167 C 0.28074 0.23403 0.63578 0.0
C5168 C 0.26737 0.21965 0.64306 0.0
C5169 C 0.25262 0.2244 0.6501 0.0
C5170 C 0.2401 0.21081 0.65702 0.0
C5171 C 0.24213 0.19237 0.65686 0.0
C5172 C 0.25666 0.18748 0.64973 0.0
C5173 C 0.26922 0.20102 0.64281 0.0
H5174 H 0.23243 0.18186 0.66221 0.0
H5175 H 0.35852 0.3114 0.59789 0.0
H5176 H 0.63621 0.48925 0.20248 0.0
H5177 H 0.62333 0.48916 0.17038 0.0
H5178 H 0.59402 0.52825 0.19183 0.0
H5179 H 0.60583 0.52752 0.22327 0.0
H5180 H 0.57337 0.50859 0.1651 0.0
H5181 H 0.63638 0.53913 0.16803 0.0
H5182 H 0.66878 0.54186 0.17237 0.0
H5183 H 0.66025 0.49287 0.1284 0.0
H5184 H 0.62776 0.48971 0.12397 0.0
H5185 H 0.55766 0.5482 0.08278 0.0
H5186 H 0.56992 0.54331 0.11315 0.0
H5187 H 0.58122 0.49191 0.08644 0.0
H5188 H 0.5685 0.49643 0.05602 0.0
H5189 H 0.61043 0.51544 0.11423 0.0
H5190 H 0.54704 0.48782 0.11026 0.0
H5191 H 0.5152 0.48746 0.10575 0.0
H5192 H 0.52542 0.53429 0.15227 0.0
H5193 H 0.55741 0.53515 0.15687 0.0
C5194 C 0.62687 0.49764 0.20039 0.0
C5195 C 0.62227 0.50833 0.21602 0.0
C5196 C 0.61957 0.49784 0.18179 0.0
C5197 C 0.60765 0.50904 0.17798 0.0
C5198 C 0.60295 0.51935 0.19368 0.0
C5199 C 0.60995 0.51894 0.21203 0.0
C5200 C 0.59992 0.51033 0.15813 0.0
C5201 C 0.58176 0.51034 0.15422 0.0
C5202 C 0.61018 0.51224 0.14313 0.0
C5203 C 0.62964 0.51403 0.14584 0.0
C5204 C 0.64141 0.52885 0.15939 0.0
C5205 C 0.65978 0.53049 0.16185 0.0
C5206 C 0.66656 0.5175 0.15072 0.0
C5207 C 0.65498 0.50288 0.13706 0.0
C5208 C 0.63658 0.50116 0.13456 0.0
C5209 C 0.5627 0.53578 0.08324 0.0
C5210 C 0.56191 0.52274 0.06656 0.0
C5211 C 0.56976 0.53297 0.10081 0.0
C5212 C 0.57668 0.51718 0.10253 0.0
C5213 C 0.57614 0.50428 0.08587 0.0
C5214 C 0.56871 0.50686 0.06831 0.0
C5215 C 0.5842 0.51408 0.12159 0.0
C5216 C 0.6022 0.51371 0.12525 0.0
C5217 C 0.57391 0.5122 0.13648 0.0
C5218 C 0.55467 0.51167 0.1338 0.0
C5219 C 0.54253 0.49815 0.11943 0.0
C5220 C 0.52445 0.49784 0.11688 0.0
C5221 C 0.5183 0.51087 0.12869 0.0
C5222 C 0.53021 0.52422 0.14311 0.0
C5223 C 0.54832 0.52462 0.14571 0.0
H5224 H 0.50429 0.5106 0.1267 0.0
H5225 H 0.68079 0.5188 0.15263 0.0
H5226 H 0.29176 0.84836 0.9616 0.0
H5227 H 0.30086 0.84033 0.93154 0.0
H5228 H 0.30067 0.89647 0.92031 0.0
H5229 H 0.29129 0.90466 0.95097 0.0
H5230 H 0.2832 0.86867 0.89223 0.0
H5231 H 0.34125 0.88494 0.92594 0.0
H5232 H 0.36576 0.88706 0.95077 0.0
H5233 H 0.35586 0.82561 0.93858 0.0
H5234 H 0.33115 0.82305 0.91385 0.0
H5235 H 0.30458 0.82797 0.80741 0.0
H5236 H 0.31107 0.84944 0.83749 0.0
H5237 H 0.29794 0.80054 0.86469 0.0
H5238 H 0.29145 0.77862 0.83426 0.0
H5239 H 0.3292 0.83348 0.88314 0.0
H5240 H 0.26622 0.81842 0.85542 0.0
H5241 H 0.24225 0.81662 0.83009 0.0
H5242 H 0.26273 0.87728 0.83147 0.0
H5243 H 0.28696 0.87937 0.85669 0.0
C5244 C 0.29348 0.85897 0.95267 0.0
C5245 C 0.29055 0.87699 0.95835 0.0
C5246 C 0.29908 0.85452 0.93568 0.0
C5247 C 0.30204 0.86805 0.92401 0.0
C5248 C 0.29874 0.886 0.92937 0.0
C5249 C 0.29305 0.89051 0.94659 0.0
C5250 C 0.30619 0.86195 0.90532 0.0
C5251 C 0.29366 0.86157 0.89016 0.0
C5252 C 0.31973 0.85246 0.90272 0.0
C5253 C 0.33428 0.85382 0.918 0.0
C5254 C 0.34418 0.87185 0.92864 0.0
C5255 C 0.35815 0.87314 0.94268 0.0
C5256 C 0.36237 0.85649 0.94624 0.0
C5257 C 0.3526 0.83851 0.93579 0.0
C5258 C 0.33863 0.83714 0.92172 0.0
C5259 C 0.30344 0.82169 0.81978 0.0
C5260 C 0.29742 0.80164 0.8186 0.0
C5261 C 0.30717 0.83401 0.83691 0.0
C5262 C 0.30485 0.82649 0.8531 0.0
C5263 C 0.29983 0.80647 0.85218 0.0
C5264 C 0.29606 0.79403 0.83491 0.0
C5265 C 0.3057 0.83954 0.87064 0.0
C5266 C 0.31918 0.84118 0.88531 0.0
C5267 C 0.29312 0.85028 0.87284 0.0
C5268 C 0.27854 0.84899 0.85772 0.0
C5269 C 0.26571 0.83133 0.85019 0.0
C5270 C 0.25205 0.83027 0.83589 0.0
C5271 C 0.25101 0.84681 0.82911 0.0
C5272 C 0.26358 0.86447 0.83669 0.0
C5273 C 0.27727 0.8656 0.85099 0.0
H5274 H 0.24045 0.84596 0.81803 0.0
H5275 H 0.37321 0.85752 0.95709 0.0
H5276 H 0.98975 0.54408 0.73337 0.0
H5277 H 0.98816 0.53005 0.70059 0.0
H5278 H 0.93375 0.5331 0.68963 0.0
H5279 H 0.93517 0.5474 0.72225 0.0
H5280 H 0.94561 0.49216 0.67888 0.0
H5281 H 0.95185 0.55952 0.66864 0.0
H5282 H 0.96686 0.59404 0.68062 0.0
H5283 H 0.01834 0.58327 0.67896 0.0
H5284 H 0.00356 0.54869 0.66702 0.0
H5285 H 0.95854 0.50048 0.57716 0.0
H5286 H 0.9437 0.49869 0.60473 0.0
H5287 H 0.9885 0.4852 0.63314 0.0
H5288 H 0.00405 0.48842 0.60649 0.0
H5289 H 0.97561 0.5291 0.63407 0.0
H5290 H 0.97144 0.4636 0.65276 0.0
H5291 H 0.95971 0.42849 0.64128 0.0
H5292 H 0.9074 0.43499 0.6258 0.0
H5293 H 0.91868 0.47001 0.63826 0.0
C5294 C 0.97769 0.54247 0.72386 0.0
C5295 C 0.9625 0.54649 0.73046 0.0
C5296 C 0.97666 0.53404 0.70532 0.0
C5297 C 0.96055 0.52981 0.69321 0.0
C5298 C 0.94604 0.53573 0.69915 0.0
C5299 C 0.94709 0.54434 0.71766 0.0
C5300 C 0.95944 0.52022 0.67398 0.0
C5301 C 0.95181 0.50019 0.66889 0.0
C5302 C 0.96781 0.53075 0.6613 0.0
C5303 C 0.97664 0.55167 0.66679 0.0
C5304 C 0.96636 0.5646 0.67067 0.0
C5305 C 0.97482 0.58414 0.67751 0.0
C5306 C 0.99354 0.59085 0.6805 0.0
C5307 C 0.00384 0.57807 0.67654 0.0
C5308 C 0.99544 0.55852 0.66965 0.0
C5309 C 0.96489 0.49624 0.58897 0.0
C5310 C 0.98284 0.49566 0.59005 0.0
C5311 C 0.9562 0.49484 0.60456 0.0
C5312 C 0.96509 0.4919 0.62085 0.0
C5313 C 0.98139 0.48727 0.62054 0.0
C5314 C 0.99032 0.48921 0.60518 0.0
C5315 C 0.96159 0.50102 0.63873 0.0
C5316 C 0.96873 0.52107 0.64373 0.0
C5317 C 0.95307 0.49042 0.6513 0.0
C5318 C 0.94586 0.46929 0.64623 0.0
C5319 C 0.95737 0.45744 0.64719 0.0
C5320 C 0.95079 0.43757 0.64063 0.0
C5321 C 0.93277 0.42948 0.63294 0.0
C5322 C 0.92127 0.44122 0.63204 0.0
C5323 C 0.92771 0.46104 0.63897 0.0
H5324 H 0.92773 0.41414 0.62763 0.0
H5325 H 1.00007 0.60596 0.68593 0.0
H5326 H 0.29647 0.19386 0.43667 0.0
H5327 H 0.29933 0.20281 0.40591 0.0
H5328 H 0.27939 0.25162 0.42297 0.0
H5329 H 0.27635 0.24279 0.45319 0.0
H5330 H 0.26178 0.23277 0.39077 0.0
H5331 H 0.32336 0.25679 0.41796 0.0
H5332 H 0.35261 0.25574 0.4332 0.0
H5333 H 0.35604 0.214 0.38661 0.0
H5334 H 0.32665 0.2146 0.3712 0.0
H5335 H 0.29148 0.29814 0.33113 0.0
H5336 H 0.29066 0.28189 0.35778 0.0
H5337 H 0.28844 0.22869 0.32156 0.0
H5338 H 0.28883 0.24495 0.2945 0.0
H5339 H 0.31651 0.24482 0.36019 0.0
H5340 H 0.25359 0.22535 0.33259 0.0
H5341 H 0.22632 0.23228 0.31894 0.0
H5342 H 0.22768 0.27176 0.36926 0.0
H5343 H 0.25516 0.26533 0.38308 0.0
C5344 C 0.29292 0.20661 0.43389 0.0
C5345 C 0.28599 0.21745 0.44736 0.0
C5346 C 0.29455 0.21173 0.41631 0.0
C5347 C 0.28941 0.22783 0.41201 0.0
C5348 C 0.28321 0.239 0.42576 0.0
C5349 C 0.28153 0.23391 0.44314 0.0
C5350 C 0.28959 0.23286 0.39309 0.0
C5351 C 0.27378 0.23533 0.38414 0.0
C5352 C 0.30516 0.23612 0.38422 0.0
C5353 C 0.32268 0.2355 0.39356 0.0
C5354 C 0.33025 0.24721 0.41106 0.0
C5355 C 0.34687 0.24674 0.41971 0.0
C5356 C 0.35614 0.23475 0.41092 0.0
C5357 C 0.34881 0.22323 0.39343 0.0
C5358 C 0.33217 0.22363 0.38474 0.0
C5359 C 0.29071 0.28294 0.32879 0.0
C5360 C 0.29004 0.27274 0.31074 0.0
C5361 C 0.29032 0.27371 0.34404 0.0
C5362 C 0.28958 0.25414 0.34165 0.0
C5363 C 0.28907 0.24384 0.32366 0.0
C5364 C 0.28909 0.25305 0.30823 0.0
C5365 C 0.28876 0.24467 0.35813 0.0
C5366 C 0.30444 0.24164 0.36668 0.0
C5367 C 0.27324 0.24138 0.36694 0.0
C5368 C 0.2565 0.24496 0.3588 0.0
C5369 C 0.24815 0.23562 0.34068 0.0
C5370 C 0.23265 0.23945 0.33293 0.0
C5371 C 0.22529 0.25249 0.34322 0.0
C5372 C 0.2334 0.26168 0.36131 0.0
C5373 C 0.24893 0.25793 0.36911 0.0
H5374 H 0.2133 0.25544 0.33718 0.0
H5375 H 0.36903 0.23442 0.41762 0.0
H5376 H 0.31213 0.60029 0.48504 0.0
H5377 H 0.33708 0.5865 0.48153 0.0
H5378 H 0.3664 0.62327 0.53286 0.0
H5379 H 0.3414 0.63749 0.53642 0.0
H5380 H 0.38564 0.62433 0.50289 0.0
H5381 H 0.34915 0.57596 0.53176 0.0
H5382 H 0.32126 0.55222 0.53502 0.0
H5383 H 0.3198 0.52084 0.48008 0.0
H5384 H 0.34756 0.5445 0.47642 0.0
H5385 H 0.45431 0.57725 0.51204 0.0
H5386 H 0.43116 0.5941 0.51425 0.0
H5387 H 0.39778 0.55284 0.46742 0.0
H5388 H 0.4203 0.53526 0.46587 0.0
H5389 H 0.38061 0.55456 0.49558 0.0
H5390 H 0.41513 0.60053 0.46497 0.0
H5391 H 0.44131 0.62429 0.45821 0.0
H5392 H 0.4451 0.66005 0.51153 0.0
H5393 H 0.41909 0.63636 0.51875 0.0
C5394 C 0.32382 0.60538 0.49569 0.0
C5395 C 0.32494 0.62004 0.51096 0.0
C5396 C 0.33798 0.59739 0.4937 0.0
C5397 C 0.3534 0.60383 0.50702 0.0
C5398 C 0.35448 0.61817 0.52251 0.0
C5399 C 0.34025 0.6262 0.52454 0.0
C5400 C 0.36876 0.59627 0.50403 0.0
C5401 C 0.38478 0.60914 0.50164 0.0
C5402 C 0.36708 0.57634 0.50154 0.0
C5403 C 0.35038 0.56208 0.50378 0.0
C5404 C 0.34282 0.56407 0.52033 0.0
C5405 C 0.32704 0.55061 0.52226 0.0
C5406 C 0.31875 0.53505 0.50776 0.0
C5407 C 0.32623 0.53289 0.49131 0.0
C5408 C 0.342 0.54631 0.48931 0.0
C5409 C 0.44206 0.57183 0.50218 0.0
C5410 C 0.43895 0.55474 0.48902 0.0
C5411 C 0.42899 0.58165 0.50325 0.0
C5412 C 0.41281 0.57467 0.49099 0.0
C5413 C 0.41022 0.55839 0.47702 0.0
C5414 C 0.42314 0.54843 0.4761 0.0
C5415 C 0.39767 0.58261 0.49436 0.0
C5416 C 0.38164 0.56979 0.49686 0.0
C5417 C 0.39924 0.60252 0.49651 0.0
C5418 C 0.41527 0.61653 0.4925 0.0
C5419 C 0.42168 0.61333 0.47537 0.0
C5420 C 0.43646 0.62683 0.47142 0.0
C5421 C 0.4449 0.64364 0.48445 0.0
C5422 C 0.43857 0.647 0.50146 0.0
C5423 C 0.42381 0.63354 0.50549 0.0
H5424 H 0.45631 0.6541 0.48135 0.0
H5425 H 0.30654 0.52464 0.50928 0.0
H5426 H 0.86879 0.89828 0.53812 0.0
H5427 H 0.89708 0.91998 0.53477 0.0
H5428 H 0.86969 0.96086 0.51992 0.0
H5429 H 0.84074 0.93867 0.52295 0.0
H5430 H 0.89502 0.95534 0.49648 0.0
H5431 H 0.89456 0.96964 0.56251 0.0
H5432 H 0.89082 0.96137 0.59343 0.0
H5433 H 0.93332 0.9341 0.59044 0.0
H5434 H 0.93715 0.94198 0.55939 0.0
H5435 H 0.97599 0.02953 0.50342 0.0
H5436 H 0.94645 0.00925 0.50566 0.0
H5437 H 0.9709 0.96964 0.52854 0.0
H5438 H 1.0008 0.99063 0.52708 0.0
H5439 H 0.94622 0.97546 0.54788 0.0
H5440 H 0.9468 0.9598 0.48242 0.0
H5441 H 0.95044 0.96599 0.45078 0.0
H5442 H 0.90803 0.99349 0.45156 0.0
H5443 H 0.90432 0.98773 0.48333 0.0
C5444 C 0.86863 0.91193 0.53427 0.0
C5445 C 0.85237 0.9167 0.53087 0.0
C5446 C 0.88495 0.9244 0.53241 0.0
C5447 C 0.88566 0.94219 0.52727 0.0
C5448 C 0.86951 0.94722 0.52397 0.0
C5449 C 0.85299 0.93463 0.52587 0.0
C5450 C 0.90338 0.95511 0.52521 0.0
C5451 C 0.90613 0.96009 0.50782 0.0
C5452 C 0.91812 0.96072 0.53976 0.0
C5453 C 0.91607 0.95631 0.55859 0.0
C5454 C 0.90305 0.9618 0.56841 0.0
C5455 C 0.90092 0.95719 0.58596 0.0
C5456 C 0.91181 0.94719 0.59388 0.0
C5457 C 0.9249 0.94185 0.58429 0.0
C5458 C 0.92708 0.94641 0.56673 0.0
C5459 C 0.97513 0.01642 0.50881 0.0
C5460 C 0.99078 0.01165 0.51502 0.0
C5461 C 0.95813 0.0047 0.50994 0.0
C5462 C 0.95624 0.98765 0.517 0.0
C5463 C 0.97189 0.98267 0.52297 0.0
C5464 C 0.989 0.99456 0.522 0.0
C5465 C 0.93801 0.97571 0.51908 0.0
C5466 C 0.93514 0.97086 0.53651 0.0
C5467 C 0.92325 0.97007 0.50447 0.0
C5468 C 0.92541 0.97351 0.48534 0.0
C5469 C 0.93835 0.96731 0.47591 0.0
C5470 C 0.94041 0.97071 0.45794 0.0
C5471 C 0.92951 0.98017 0.44919 0.0
C5472 C 0.91648 0.98619 0.45837 0.0
C5473 C 0.91439 0.98285 0.47635 0.0
H5474 H 0.93112 0.9828 0.43528 0.0
H5475 H 0.91012 0.94361 0.60746 0.0
H5476 H 0.90682 0.13059 0.29473 0.0
H5477 H 0.89162 0.15558 0.29387 0.0
H5478 H 0.87001 0.13174 0.23636 0.0
H5479 H 0.8857 0.10638 0.2371 0.0
H5480 H 0.87837 0.17032 0.2402 0.0
H5481 H 0.84423 0.12885 0.27691 0.0
H5482 H 0.84016 0.11113 0.30282 0.0
H5483 H 0.86318 0.16391 0.34234 0.0
H5484 H 0.86756 0.1819 0.31666 0.0
H5485 H 0.8039 0.21845 0.24632 0.0
H5486 H 0.81988 0.19349 0.24549 0.0
H5487 H 0.86289 0.23239 0.28544 0.0
H5488 H 0.84741 0.25789 0.28537 0.0
H5489 H 0.84338 0.18632 0.29016 0.0
H5490 H 0.87892 0.22797 0.2566 0.0
H5491 H 0.88799 0.24731 0.23284 0.0
H5492 H 0.86737 0.19692 0.18987 0.0
H5493 H 0.85745 0.1774 0.21336 0.0
C5494 C 0.89881 0.1303 0.28174 0.0
C5495 C 0.89776 0.11574 0.26603 0.0
C5496 C 0.8898 0.14489 0.28133 0.0
C5497 C 0.87894 0.14602 0.26519 0.0
C5498 C 0.87799 0.13168 0.24926 0.0
C5499 C 0.88704 0.11687 0.24968 0.0
C5500 C 0.86909 0.16215 0.26511 0.0
C5501 C 0.87046 0.1734 0.25102 0.0
C5502 C 0.85912 0.16746 0.27946 0.0
C5503 C 0.85634 0.15668 0.29487 0.0
C5504 C 0.8485 0.13665 0.29113 0.0
C5505 C 0.84613 0.12657 0.30577 0.0
C5506 C 0.85145 0.13638 0.32421 0.0
C5507 C 0.85909 0.15632 0.32805 0.0
C5508 C 0.86149 0.16647 0.31346 0.0
C5509 C 0.8169 0.22197 0.25478 0.0
C5510 C 0.82416 0.24074 0.26573 0.0
C5511 C 0.82613 0.20742 0.25434 0.0
C5512 C 0.84298 0.21054 0.26527 0.0
C5513 C 0.85012 0.22915 0.27658 0.0
C5514 C 0.84114 0.24395 0.27655 0.0
C5515 C 0.85262 0.19434 0.26519 0.0
C5516 C 0.85113 0.18307 0.27923 0.0
C5517 C 0.86284 0.18933 0.25106 0.0
C5518 C 0.86705 0.2013 0.23674 0.0
C5519 C 0.87577 0.22111 0.24206 0.0
C5520 C 0.88123 0.23208 0.22865 0.0
C5521 C 0.87834 0.22333 0.20988 0.0
C5522 C 0.86967 0.20366 0.20444 0.0
C5523 C 0.864 0.19266 0.21778 0.0
H5524 H 0.88275 0.23181 0.19953 0.0
H5525 H 0.84961 0.12854 0.33553 0.0
H5526 H 0.72816 0.13694 0.01297 0.0
H5527 H 0.69727 0.12199 0.99956 0.0
H5528 H 0.70001 0.06933 0.01755 0.0
H5529 H 0.73227 0.08409 0.02971 0.0
H5530 H 0.67594 0.06518 0.9818 0.0
H5531 H 0.68763 0.09838 0.04608 0.0
H5532 H 0.70285 0.12581 0.0715 0.0
H5533 H 0.68001 0.16322 0.04362 0.0
H5534 H 0.6649 0.13606 0.01786 0.0
H5535 H 0.58856 0.04002 0.00978 0.0
H5536 H 0.62083 0.04941 0.00875 0.0
H5537 H 0.61466 0.09305 0.97741 0.0
H5538 H 0.58188 0.08278 0.97745 0.0
H5539 H 0.64026 0.10176 0.01702 0.0
H5540 H 0.62599 0.068 0.9543 0.0
H5541 H 0.61029 0.04066 0.92915 0.0
H5542 H 0.63806 0.00463 0.9532 0.0
H5543 H 0.65309 0.03147 0.9792 0.0
C5544 C 0.72258 0.12188 0.01326 0.0
C5545 C 0.73259 0.11153 0.02211 0.0
C5546 C 0.70484 0.11341 0.00572 0.0
C5547 C 0.69641 0.09472 0.0078 0.0
C5548 C 0.70647 0.08382 0.01582 0.0
C5549 C 0.72469 0.09223 0.02289 0.0
C5550 C 0.67672 0.0883 0.00424 0.0
C5551 C 0.66806 0.07292 0.98962 0.0
C5552 C 0.66666 0.09897 0.01416 0.0
C5553 C 0.67522 0.1152 0.02999 0.0
C5554 C 0.68591 0.11247 0.04533 0.0
C5555 C 0.69453 0.12797 0.0598 0.0
C5556 C 0.69243 0.14626 0.05916 0.0
C5557 C 0.68163 0.14905 0.04409 0.0
C5558 C 0.67302 0.1336 0.02957 0.0
C5559 C 0.5941 0.05137 0.00238 0.0
C5560 C 0.58306 0.06076 0.99366 0.0
C5561 C 0.61241 0.05664 0.00176 0.0
C5562 C 0.61988 0.07173 0.99288 0.0
C5563 C 0.60889 0.0812 0.98411 0.0
C5564 C 0.59036 0.07544 0.98418 0.0
C5565 C 0.63943 0.07857 0.99466 0.0
C5566 C 0.64812 0.09405 0.00909 0.0
C5567 C 0.64937 0.06794 0.98462 0.0
C5568 C 0.64045 0.05171 0.96893 0.0
C5569 C 0.62846 0.05415 0.95449 0.0
C5570 C 0.61965 0.03871 0.94006 0.0
C5571 C 0.62302 0.02082 0.93966 0.0
C5572 C 0.63525 0.01839 0.95367 0.0
C5573 C 0.64388 0.03371 0.96831 0.0
H5574 H 0.61625 0.00889 0.92843 0.0
H5575 H 0.69913 0.15825 0.07035 0.0
H5576 H 0.20453 0.51944 0.28535 0.0
H5577 H 0.22267 0.49754 0.29015 0.0
H5578 H 0.19693 0.46091 0.23745 0.0
H5579 H 0.17845 0.48249 0.2327 0.0
H5580 H 0.19555 0.44133 0.26543 0.0
H5581 H 0.24064 0.48779 0.24314 0.0
H5582 H 0.25988 0.52027 0.24285 0.0
H5583 H 0.28378 0.52468 0.29914 0.0
H5584 H 0.26452 0.4923 0.29984 0.0
H5585 H 0.25145 0.38088 0.24924 0.0
H5586 H 0.23308 0.40334 0.24978 0.0
H5587 H 0.26244 0.43449 0.30338 0.0
H5588 H 0.28106 0.41204 0.30272 0.0
H5589 H 0.26191 0.45749 0.27846 0.0
H5590 H 0.21739 0.41124 0.30092 0.0
H5591 H 0.19661 0.37994 0.30249 0.0
H5592 H 0.17182 0.37513 0.24649 0.0
H5593 H 0.19208 0.40667 0.24477 0.0
C5594 C 0.20293 0.50688 0.27466 0.0
C5595 C 0.18997 0.50251 0.25876 0.0
C5596 C 0.21334 0.49445 0.2774 0.0
C5597 C 0.21107 0.4777 0.26414 0.0
C5598 C 0.19875 0.47378 0.24785 0.0
C5599 C 0.18825 0.48611 0.24516 0.0
C5600 C 0.22049 0.46344 0.26789 0.0
C5601 C 0.21008 0.44475 0.26805 0.0
C5602 C 0.23936 0.46828 0.27205 0.0
C5603 C 0.25101 0.4877 0.2716 0.0
C5604 C 0.2499 0.49575 0.2555 0.0
C5605 C 0.26083 0.51413 0.25525 0.0
C5606 C 0.27301 0.52455 0.27098 0.0
C5607 C 0.27432 0.51659 0.28698 0.0
C5608 C 0.26342 0.49822 0.2873 0.0
C5609 C 0.25384 0.39247 0.26116 0.0
C5610 C 0.26767 0.39505 0.27585 0.0
C5611 C 0.24323 0.40507 0.26159 0.0
C5612 C 0.24634 0.42037 0.27673 0.0
C5613 C 0.25983 0.42263 0.29168 0.0
C5614 C 0.27043 0.40994 0.29128 0.0
C5615 C 0.23697 0.43524 0.27568 0.0
C5616 C 0.24738 0.45408 0.27602 0.0
C5617 C 0.21808 0.43056 0.27199 0.0
C5618 C 0.20637 0.41123 0.27266 0.0
C5619 C 0.2076 0.40344 0.28889 0.0
C5620 C 0.19584 0.38571 0.28985 0.0
C5621 C 0.18305 0.37545 0.27454 0.0
C5622 C 0.1818 0.38304 0.25832 0.0
C5623 C 0.19332 0.40091 0.25739 0.0
H5624 H 0.17407 0.36167 0.27529 0.0
H5625 H 0.28145 0.53879 0.27077 0.0
H5626 H 0.25271 0.41759 0.04455 0.0
H5627 H 0.22713 0.43126 0.043 0.0
H5628 H 0.22221 0.42072 0.98301 0.0
H5629 H 0.24789 0.40762 0.98449 0.0
H5630 H 0.21831 0.45383 0.99319 0.0
H5631 H 0.19187 0.39307 0.00724 0.0
H5632 H 0.18734 0.36556 0.02349 0.0
H5633 H 0.18173 0.40166 0.0733 0.0
H5634 H 0.18648 0.42947 0.05741 0.0
H5635 H 0.13409 0.47627 0.98201 0.0
H5636 H 0.15689 0.45871 0.98088 0.0
H5637 H 0.16828 0.47159 0.04088 0.0
H5638 H 0.14546 0.48894 0.04211 0.0
H5639 H 0.16753 0.43542 0.02848 0.0
H5640 H 0.19518 0.49693 0.01037 0.0
H5641 H 0.19699 0.52106 0.99012 0.0
H5642 H 0.19683 0.47835 0.94274 0.0
H5643 H 0.19481 0.45394 0.96267 0.0
C5644 C 0.2462 0.41823 0.03104 0.0
C5645 C 0.25249 0.41155 0.01467 0.0
C5646 C 0.23144 0.42592 0.03014 0.0
C5647 C 0.22249 0.42691 0.01285 0.0
C5648 C 0.2288 0.42023 0.99654 0.0
C5649 C 0.24356 0.41269 0.99743 0.0
C5650 C 0.20696 0.43541 0.01169 0.0
C5651 C 0.20713 0.44958 1.00077 0.0
C5652 C 0.19219 0.42995 0.02142 0.0
C5653 C 0.18978 0.41342 0.03121 0.0
C5654 C 0.18989 0.3952 0.02173 0.0
C5655 C 0.18723 0.37954 0.03085 0.0
C5656 C 0.18431 0.38187 0.04943 0.0
C5657 C 0.18403 0.39988 0.05892 0.0
C5658 C 0.18671 0.4156 0.04986 0.0
C5659 C 0.14148 0.47542 0.99497 0.0
C5660 C 0.1379 0.48411 0.01216 0.0
C5661 C 0.15457 0.46538 0.9943 0.0
C5662 C 0.16461 0.46404 0.01079 0.0
C5663 C 0.16079 0.47238 0.02794 0.0
C5664 C 0.14764 0.48227 0.02863 0.0
C5665 C 0.17918 0.45414 0.0104 0.0
C5666 C 0.17877 0.43964 0.02097 0.0
C5667 C 0.19343 0.45885 0.99986 0.0
C5668 C 0.19468 0.4736 0.98798 0.0
C5669 C 0.19542 0.49268 0.99562 0.0
C5670 C 0.1965 0.5064 0.98419 0.0
C5671 C 0.19698 0.50123 0.96515 0.0
C5672 C 0.19643 0.48234 0.95748 0.0
C5673 C 0.19533 0.46856 0.96883 0.0
H5674 H 0.19782 0.51188 0.95633 0.0
H5675 H 0.18222 0.36972 0.05647 0.0
H5676 H 0.90219 1.0 0.28324 0.0
H5677 H 0.88439 0.96766 0.28515 0.0
H5678 H 0.86119 0.95895 0.22768 0.0
H5679 H 0.87876 0.99175 0.22602 0.0
H5680 H 0.83617 0.9413 0.24526 0.0
H5681 H 0.89785 0.93991 0.24535 0.0
H5682 H 0.93025 0.95056 0.25721 0.0
H5683 H 0.91932 0.93662 0.31031 0.0
H5684 H 0.88683 0.92609 0.29882 0.0
H5685 H 0.80088 0.84003 0.22982 0.0
H5686 H 0.81852 0.87278 0.22964 0.0
H5687 H 0.8434 0.87755 0.28587 0.0
H5688 H 0.82619 0.84405 0.28565 0.0
H5689 H 0.86755 0.89762 0.27023 0.0
H5690 H 0.80721 0.89951 0.27202 0.0
H5691 H 0.77446 0.88972 0.26225 0.0
H5692 H 0.78228 0.90394 0.20857 0.0
H5693 H 0.8151 0.91361 0.21796 0.0
C5694 C 0.89288 0.99145 0.27113 0.0
C5695 C 0.89163 0.99898 0.25465 0.0
C5696 C 0.88287 0.9726 0.27211 0.0
C5697 C 0.87149 0.96012 0.25645 0.0
C5698 C 0.86975 0.96789 0.24009 0.0
C5699 C 0.87972 0.98688 0.23916 0.0
C5700 C 0.86174 0.93913 0.25705 0.0
C5701 C 0.84321 0.93178 0.25048 0.0
C5702 C 0.87037 0.92634 0.26446 0.0
C5703 C 0.8899 0.93236 0.27126 0.0
C5704 C 0.90236 0.93919 0.25957 0.0
C5705 C 0.92073 0.94521 0.26623 0.0
C5706 C 0.92684 0.94431 0.28452 0.0
C5707 C 0.91457 0.93732 0.29616 0.0
C5708 C 0.89618 0.93131 0.28957 0.0
C5709 C 0.81018 0.84793 0.24218 0.0
C5710 C 0.81185 0.83912 0.25778 0.0
C5711 C 0.82024 0.86699 0.24216 0.0
C5712 C 0.83215 0.8785 0.25796 0.0
C5713 C 0.83433 0.86947 0.27342 0.0
C5714 C 0.82441 0.85014 0.27332 0.0
C5715 C 0.84198 0.89972 0.25822 0.0
C5716 C 0.8605 0.90712 0.26498 0.0
C5717 C 0.8333 0.9127 0.25127 0.0
C5718 C 0.8136 0.90714 0.24564 0.0
C5719 C 0.80194 0.90047 0.2581 0.0
C5720 C 0.78337 0.89494 0.25264 0.0
C5721 C 0.77629 0.89617 0.23479 0.0
C5722 C 0.78778 0.90299 0.22239 0.0
C5723 C 0.80637 0.90851 0.22778 0.0
H5724 H 0.76191 0.89187 0.23058 0.0
H5725 H 0.94107 0.949 0.28965 0.0
H5726 H 0.66138 0.08975 0.75721 0.0
H5727 H 0.68159 0.12162 0.7699 0.0
H5728 H 0.72261 0.10687 0.73985 0.0
H5729 H 0.70252 0.0742 0.72797 0.0
H5730 H 0.73533 0.13119 0.77603 0.0
H5731 H 0.69447 0.12568 0.71854 0.0
H5732 H 0.66418 0.11646 0.70037 0.0
H5733 H 0.64739 0.15366 0.74187 0.0
H5734 H 0.67754 0.16291 0.76037 0.0
H5735 H 0.77991 0.21928 0.75005 0.0
H5736 H 0.76349 0.1859 0.75084 0.0
H5737 H 0.72663 0.20665 0.7831 0.0
H5738 H 0.74298 0.2398 0.78245 0.0
H5739 H 0.71126 0.17975 0.75004 0.0
H5740 H 0.75148 0.18969 0.80503 0.0
H5741 H 0.7805 0.19942 0.82554 0.0
H5742 H 0.7972 0.15489 0.79285 0.0
H5743 H 0.7684 0.14517 0.77182 0.0
C5744 C 0.67483 0.09334 0.75356 0.0
C5745 C 0.68063 0.0802 0.7414 0.0
C5746 C 0.6863 0.11129 0.76092 0.0
C5747 C 0.7033 0.11634 0.75552 0.0
C5748 C 0.70943 0.1029 0.74405 0.0
C5749 C 0.69802 0.08461 0.73706 0.0
C5750 C 0.71342 0.13641 0.75937 0.0
C5751 C 0.7303 0.14189 0.77027 0.0
C5752 C 0.70618 0.15011 0.7523 0.0
C5753 C 0.68822 0.14491 0.74086 0.0
C5754 C 0.6843 0.13185 0.72379 0.0
C5755 C 0.66716 0.12661 0.71345 0.0
C5756 C 0.65386 0.13446 0.71997 0.0
C5757 C 0.6577 0.1476 0.73683 0.0
C5758 C 0.67481 0.15287 0.74723 0.0
C5759 C 0.76824 0.21653 0.75716 0.0
C5760 C 0.76246 0.23169 0.76612 0.0
C5761 C 0.75914 0.1977 0.75786 0.0
C5762 C 0.7442 0.1942 0.7673 0.0
C5763 C 0.73834 0.20936 0.77604 0.0
C5764 C 0.74755 0.2281 0.77556 0.0
C5765 C 0.73349 0.1746 0.76632 0.0
C5766 C 0.71638 0.16917 0.75594 0.0
C5767 C 0.74045 0.16112 0.77411 0.0
C5768 C 0.75786 0.16691 0.78664 0.0
C5769 C 0.76142 0.18214 0.80202 0.0
C5770 C 0.77783 0.18762 0.81379 0.0
C5771 C 0.79072 0.17784 0.81045 0.0
C5772 C 0.78721 0.1625 0.79538 0.0
C5773 C 0.77085 0.157 0.78352 0.0
H5774 H 0.80342 0.18209 0.81959 0.0
H5775 H 0.6406 0.13038 0.71195 0.0
loop_
_geom_bond_atom_site_label_1
_geom_bond_atom_site_label_2
_geom_bond_distance
_geom_bond_site_symmetry_2
_ccdc_geom_bond_type
Zn0 O3 2.031 . S
Zn0 O5 2.049 . S
Zn0 O10 2.067 . S
Zn1 O2 1.962 . S
Zn1 O4 1.986 . S
Zn1 O6 1.996 . S
Zn1 O9 1.943 . S
O2 Zn1 1.962 . S
O2 C7 1.254 . S
O3 Zn0 2.031 . S
O3 C7 1.269 . S
O4 Zn1 1.986 . S
O4 C11 1.262 . S
O5 Zn0 2.049 . S
O5 C13 1.260 . S
O6 Zn1 1.996 . S
O6 C13 1.257 . S
C7 O2 1.254 . S
C7 O3 1.269 . S
C8 O9 1.249 . S
C8 O10 1.270 . S
O9 Zn1 1.943 . S
O9 C8 1.249 . S
O10 Zn0 2.067 . S
O10 C8 1.270 . S
C11 O4 1.262 . S
C11 O12 1.232 . S
O12 C11 1.232 . S
C13 O5 1.260 . S
C13 O6 1.257 . S
Zn14 O17 2.031 1_455 S
Zn14 O19 2.049 . S
Zn14 O24 2.067 . S
Zn15 O16 1.948 1_455 S
Zn15 O18 1.992 . S
Zn15 O20 2.007 . S
Zn15 O23 1.946 1_455 S
O16 Zn15 1.948 1_655 S
O16 C21 1.254 . S
O17 Zn14 2.031 1_655 S
O17 C21 1.269 . S
O18 Zn15 1.992 . S
O18 C25 1.262 . S
O19 Zn14 2.049 . S
O19 C27 1.260 . S
O20 Zn15 2.007 . S
O20 C27 1.257 . S
C21 O16 1.254 . S
C21 O17 1.269 . S
C22 O23 1.249 . S
C22 O24 1.270 1_655 S
O23 Zn15 1.946 1_655 S
O23 C22 1.249 . S
O24 Zn14 2.067 . S
O24 C22 1.270 1_455 S
C25 O18 1.262 . S
C25 O26 1.232 1_455 S
O26 C25 1.232 1_655 S
C27 O19 1.260 . S
C27 O20 1.257 . S
Zn28 O31 2.031 . S
Zn28 O33 2.049 . S
Zn28 O38 2.067 . S
Zn29 O30 1.962 . S
Zn29 O32 1.986 . S
Zn29 O34 1.996 . S
Zn29 O37 1.943 . S
O30 Zn29 1.962 . S
O30 C35 1.254 . S
O31 Zn28 2.031 . S
O31 C35 1.269 . S
O32 Zn29 1.986 . S
O32 C39 1.262 . S
O33 Zn28 2.049 . S
O33 C41 1.260 . S
O34 Zn29 1.996 . S
O34 C41 1.257 . S
C35 O30 1.254 . S
C35 O31 1.269 . S
C36 O37 1.249 . S
C36 O38 1.270 . S
O37 Zn29 1.943 . S
O37 C36 1.249 . S
O38 Zn28 2.067 . S
O38 C36 1.270 . S
C39 O32 1.262 . S
C39 O40 1.232 . S
O40 C39 1.232 . S
C41 O33 1.260 . S
C41 O34 1.257 . S
Zn42 O45 2.031 . S
Zn42 O47 2.049 . S
Zn42 O52 2.067 . S
Zn43 O44 1.962 . S
Zn43 O46 1.986 . S
Zn43 O48 1.996 . S
Zn43 O51 1.943 . S
O44 Zn43 1.962 . S
O44 C49 1.254 . S
O45 Zn42 2.031 . S
O45 C49 1.269 . S
O46 Zn43 1.986 . S
O46 C53 1.262 . S
O47 Zn42 2.049 . S
O47 C55 1.260 . S
O48 Zn43 1.996 . S
O48 C55 1.257 . S
C49 O44 1.254 . S
C49 O45 1.269 . S
C50 O51 1.249 . S
C50 O52 1.270 . S
O51 Zn43 1.943 . S
O51 C50 1.249 . S
O52 Zn42 2.067 . S
O52 C50 1.270 . S
C53 O46 1.262 . S
C53 O54 1.232 . S
O54 C53 1.232 . S
C55 O47 1.260 . S
C55 O48 1.257 . S
Zn56 O59 2.031 . S
Zn56 O61 2.049 . S
Zn56 O66 2.067 . S
Zn57 O58 1.962 . S
Zn57 O60 1.986 . S
Zn57 O62 1.996 . S
Zn57 O65 1.943 . S
O58 Zn57 1.962 . S
O58 C63 1.254 . S
O59 Zn56 2.031 . S
O59 C63 1.269 . S
O60 Zn57 1.986 . S
O60 C67 1.262 . S
O61 Zn56 2.049 . S
O61 C69 1.260 . S
O62 Zn57 1.996 . S
O62 C69 1.257 . S
C63 O58 1.254 . S
C63 O59 1.269 . S
C64 O65 1.249 . S
C64 O66 1.270 . S
O65 Zn57 1.943 . S
O65 C64 1.249 . S
O66 Zn56 2.067 . S
O66 C64 1.270 . S
C67 O60 1.262 . S
C67 O68 1.232 . S
O68 C67 1.232 . S
C69 O61 1.260 . S
C69 O62 1.257 . S
Zn70 O73 2.031 . S
Zn70 O75 2.049 . S
Zn70 O80 2.067 . S
Zn71 O72 1.962 . S
Zn71 O74 1.986 . S
Zn71 O76 1.996 . S
Zn71 O79 1.943 . S
O72 Zn71 1.962 . S
O72 C77 1.254 . S
O73 Zn70 2.031 . S
O73 C77 1.269 . S
O74 Zn71 1.986 . S
O74 C81 1.262 . S
O75 Zn70 2.049 . S
O75 C83 1.260 . S
O76 Zn71 1.996 . S
O76 C83 1.257 . S
C77 O72 1.254 . S
C77 O73 1.269 . S
C78 O79 1.249 . S
C78 O80 1.270 . S
O79 Zn71 1.943 . S
O79 C78 1.249 . S
O80 Zn70 2.067 . S
O80 C78 1.270 . S
C81 O74 1.262 . S
C81 O82 1.232 . S
O82 C81 1.232 . S
C83 O75 1.260 . S
C83 O76 1.257 . S
Zn84 O87 2.031 . S
Zn84 O89 2.049 . S
Zn84 O94 2.067 . S
Zn85 O86 1.962 . S
Zn85 O88 1.986 . S
Zn85 O90 1.996 . S
Zn85 O93 1.943 . S
O86 Zn85 1.962 . S
O86 C91 1.254 . S
O87 Zn84 2.031 . S
O87 C91 1.269 . S
O88 Zn85 1.986 . S
O88 C95 1.262 . S
O89 Zn84 2.049 . S
O89 C97 1.260 . S
O90 Zn85 1.996 . S
O90 C97 1.257 . S
C91 O86 1.254 . S
C91 O87 1.269 . S
C92 O93 1.249 . S
C92 O94 1.270 . S
O93 Zn85 1.943 . S
O93 C92 1.249 . S
O94 Zn84 2.067 . S
O94 C92 1.270 . S
C95 O88 1.262 . S
C95 O96 1.232 . S
O96 C95 1.232 . S
C97 O89 1.260 . S
C97 O90 1.257 . S
Zn98 O101 2.031 . S
Zn98 O103 2.049 . S
Zn98 O108 2.067 . S
Zn99 O100 1.962 . S
Zn99 O102 1.986 . S
Zn99 O104 1.996 . S
Zn99 O107 1.936 1_455 S
O100 Zn99 1.962 . S
O100 C105 1.254 . S
O101 Zn98 2.031 . S
O101 C105 1.269 1_655 S
O102 Zn99 1.986 . S
O102 C109 1.262 . S
O103 Zn98 2.049 . S
O103 C111 1.260 1_655 S
O104 Zn99 1.996 . S
O104 C111 1.257 . S
C105 O100 1.254 . S
C105 O101 1.269 1_455 S
C106 O107 1.258 . S
C106 O108 1.270 . S
O107 Zn99 1.936 1_655 S
O107 C106 1.258 . S
O108 Zn98 2.067 . S
O108 C106 1.270 . S
C109 O102 1.262 . S
C109 O110 1.232 . S
O110 C109 1.232 . S
C111 O103 1.260 1_455 S
C111 O104 1.257 . S
Zn112 O115 2.031 . S
Zn112 O117 2.049 . S
Zn112 O122 2.067 . S
Zn113 O114 1.962 . S
Zn113 O116 1.986 . S
Zn113 O118 1.996 . S
Zn113 O121 1.943 1_545 S
O114 Zn113 1.962 . S
O114 C119 1.254 . S
O115 Zn112 2.031 . S
O115 C119 1.269 1_565 S
O116 Zn113 1.986 . S
O116 C123 1.262 . S
O117 Zn112 2.049 . S
O117 C125 1.260 1_565 S
O118 Zn113 1.996 . S
O118 C125 1.257 . S
C119 O114 1.254 . S
C119 O115 1.269 1_545 S
C120 O121 1.249 . S
C120 O122 1.270 . S
O121 Zn113 1.943 1_565 S
O121 C120 1.249 . S
O122 Zn112 2.067 . S
O122 C120 1.270 . S
C123 O116 1.262 . S
C123 O124 1.232 . S
O124 C123 1.232 . S
C125 O117 1.260 1_545 S
C125 O118 1.257 . S
Zn126 O129 2.031 . S
Zn126 O131 2.049 . S
Zn126 O136 2.067 . S
Zn127 O128 1.962 . S
Zn127 O130 1.986 . S
Zn127 O132 1.996 . S
Zn127 O135 1.943 . S
O128 Zn127 1.962 . S
O128 C133 1.254 . S
O129 Zn126 2.031 . S
O129 C133 1.269 . S
O130 Zn127 1.986 . S
O130 C137 1.262 . S
O131 Zn126 2.049 . S
O131 C139 1.260 . S
O132 Zn127 1.996 . S
O132 C139 1.257 . S
C133 O128 1.254 . S
C133 O129 1.269 . S
C134 O135 1.249 . S
C134 O136 1.270 . S
O135 Zn127 1.943 . S
O135 C134 1.249 . S
O136 Zn126 2.067 . S
O136 C134 1.270 . S
C137 O130 1.262 . S
C137 O138 1.232 . S
O138 C137 1.232 . S
C139 O131 1.260 . S
C139 O132 1.257 . S
Zn140 O143 2.031 . S
Zn140 O145 2.049 . S
Zn140 O150 2.067 . S
Zn141 O142 1.962 . S
Zn141 O144 1.986 . S
Zn141 O146 1.996 . S
Zn141 O149 1.943 1_565 S
O142 Zn141 1.962 . S
O142 C147 1.254 1_565 S
O143 Zn140 2.031 . S
O143 C147 1.269 . S
O144 Zn141 1.986 . S
O144 C151 1.262 . S
O145 Zn140 2.049 . S
O145 C153 1.260 1_545 S
O146 Zn141 1.996 . S
O146 C153 1.257 . S
C147 O142 1.254 1_545 S
C147 O143 1.269 . S
C148 O149 1.249 . S
C148 O150 1.270 . S
O149 Zn141 1.943 1_545 S
O149 C148 1.249 . S
O150 Zn140 2.067 . S
O150 C148 1.270 . S
C151 O144 1.262 . S
C151 O152 1.232 . S
O152 C151 1.232 . S
C153 O145 1.260 1_565 S
C153 O146 1.257 . S
Zn154 O157 2.031 1_554 S
Zn154 O159 2.049 . S
Zn154 O164 2.067 . S
Zn155 O156 1.962 1_554 S
Zn155 O158 1.986 . S
Zn155 O160 1.996 . S
Zn155 O163 1.943 . S
O156 Zn155 1.962 1_556 S
O156 C161 1.254 . S
O157 Zn154 2.031 1_556 S
O157 C161 1.269 . S
O158 Zn155 1.986 . S
O158 C165 1.262 . S
O159 Zn154 2.049 . S
O159 C167 1.260 . S
O160 Zn155 1.996 . S
O160 C167 1.257 . S
C161 O156 1.254 . S
C161 O157 1.269 . S
C162 O163 1.249 . S
C162 O164 1.270 . S
O163 Zn155 1.943 . S
O163 C162 1.249 . S
O164 Zn154 2.067 . S
O164 C162 1.270 . S
C165 O158 1.262 . S
C165 O166 1.217 1_554 S
O166 C165 1.217 1_556 S
C167 O159 1.260 . S
C167 O160 1.257 . S
Zn168 O171 2.031 1_554 S
Zn168 O173 2.049 . S
Zn168 O178 2.067 . S
Zn169 O170 1.962 1_554 S
Zn169 O172 1.986 . S
Zn169 O174 1.996 . S
Zn169 O177 1.943 . S
O170 Zn169 1.962 1_556 S
O170 C175 1.254 . S
O171 Zn168 2.031 1_556 S
O171 C175 1.269 . S
O172 Zn169 1.986 . S
O172 C179 1.262 . S
O173 Zn168 2.049 . S
O173 C181 1.260 . S
O174 Zn169 1.996 . S
O174 C181 1.257 . S
C175 O170 1.254 . S
C175 O171 1.269 . S
C176 O177 1.249 . S
C176 O178 1.270 . S
O177 Zn169 1.943 . S
O177 C176 1.249 . S
O178 Zn168 2.067 . S
O178 C176 1.270 . S
C179 O172 1.262 . S
C179 O180 1.274 . S
O180 C179 1.274 . S
C181 O173 1.260 . S
C181 O174 1.257 . S
Zn182 O185 2.031 1_554 S
Zn182 O187 2.049 . S
Zn182 O192 2.067 . S
Zn183 O184 1.962 1_554 S
Zn183 O186 1.986 . S
Zn183 O188 1.996 . S
Zn183 O191 1.943 . S
O184 Zn183 1.962 1_556 S
O184 C189 1.254 . S
O185 Zn182 2.031 1_556 S
O185 C189 1.269 . S
O186 Zn183 1.986 . S
O186 C193 1.262 . S
O187 Zn182 2.049 . S
O187 C195 1.260 . S
O188 Zn183 1.996 . S
O188 C195 1.257 . S
C189 O184 1.254 . S
C189 O185 1.269 . S
C190 O191 1.249 . S
C190 O192 1.270 . S
O191 Zn183 1.943 . S
O191 C190 1.249 . S
O192 Zn182 2.067 . S
O192 C190 1.270 . S
C193 O186 1.262 . S
C193 O194 1.232 1_554 S
O194 C193 1.232 1_556 S
C195 O187 1.260 . S
C195 O188 1.257 . S
Zn196 O199 2.031 . S
Zn196 O201 2.049 . S
Zn196 O206 2.067 . S
Zn197 O198 1.962 . S
Zn197 O200 1.986 . S
Zn197 O202 1.996 . S
Zn197 O205 1.943 . S
O198 Zn197 1.962 . S
O198 C203 1.254 . S
O199 Zn196 2.031 . S
O199 C203 1.269 . S
O200 Zn197 1.986 . S
O200 C207 1.262 . S
O201 Zn196 2.049 . S
O201 C209 1.260 . S
O202 Zn197 1.996 . S
O202 C209 1.257 . S
C203 O198 1.254 . S
C203 O199 1.269 . S
C204 O205 1.249 . S
C204 O206 1.270 . S
O205 Zn197 1.943 . S
O205 C204 1.249 . S
O206 Zn196 2.067 . S
O206 C204 1.270 . S
C207 O200 1.262 . S
C207 O208 1.232 . S
O208 C207 1.232 . S
C209 O201 1.260 . S
C209 O202 1.257 . S
Zn210 O213 2.031 . S
Zn210 O215 2.049 . S
Zn210 O220 2.067 . S
Zn211 O212 1.962 . S
Zn211 O214 1.986 . S
Zn211 O216 1.996 . S
Zn211 O219 1.943 . S
O212 Zn211 1.962 . S
O212 C217 1.254 . S
O213 Zn210 2.031 . S
O213 C217 1.269 . S
O214 Zn211 1.986 . S
O214 C221 1.262 . S
O215 Zn210 2.049 . S
O215 C223 1.260 . S
O216 Zn211 1.996 . S
O216 C223 1.257 . S
C217 O212 1.254 . S
C217 O213 1.269 . S
C218 O219 1.249 . S
C218 O220 1.270 . S
O219 Zn211 1.943 . S
O219 C218 1.249 . S
O220 Zn210 2.067 . S
O220 C218 1.270 . S
C221 O214 1.262 . S
C221 O222 1.232 . S
O222 C221 1.232 . S
C223 O215 1.260 . S
C223 O216 1.257 . S
Zn224 O227 2.031 . S
Zn224 O229 2.049 . S
Zn224 O234 2.067 . S
Zn225 O226 1.962 . S
Zn225 O228 1.986 . S
Zn225 O230 1.996 . S
Zn225 O233 1.943 . S
O226 Zn225 1.962 . S
O226 C231 1.254 . S
O227 Zn224 2.031 . S
O227 C231 1.269 . S
O228 Zn225 1.986 . S
O228 C235 1.262 . S
O229 Zn224 2.049 . S
O229 C237 1.260 . S
O230 Zn225 1.996 . S
O230 C237 1.257 . S
C231 O226 1.254 . S
C231 O227 1.269 . S
C232 O233 1.249 . S
C232 O234 1.270 . S
O233 Zn225 1.943 . S
O233 C232 1.249 . S
O234 Zn224 2.067 . S
O234 C232 1.270 . S
C235 O228 1.262 . S
C235 O236 1.232 . S
O236 C235 1.232 . S
C237 O229 1.260 . S
C237 O230 1.257 . S
Zn238 O241 2.031 . S
Zn238 O243 2.049 . S
Zn238 O248 2.067 . S
Zn239 O240 1.962 . S
Zn239 O242 1.986 . S
Zn239 O244 1.996 . S
Zn239 O247 1.943 . S
O240 Zn239 1.962 . S
O240 C245 1.254 . S
O241 Zn238 2.031 . S
O241 C245 1.269 . S
O242 Zn239 1.986 . S
O242 C249 1.262 . S
O243 Zn238 2.049 . S
O243 C251 1.260 . S
O244 Zn239 1.996 . S
O244 C251 1.257 . S
C245 O240 1.254 . S
C245 O241 1.269 . S
C246 O247 1.249 . S
C246 O248 1.270 . S
O247 Zn239 1.943 . S
O247 C246 1.249 . S
O248 Zn238 2.067 . S
O248 C246 1.270 . S
C249 O242 1.262 . S
C249 O250 1.232 . S
O250 C249 1.232 . S
C251 O243 1.260 . S
C251 O244 1.257 . S
Zn252 O255 2.031 . S
Zn252 O257 2.049 . S
Zn252 O262 2.067 . S
Zn253 O254 1.962 . S
Zn253 O256 1.986 . S
Zn253 O258 1.996 . S
Zn253 O261 1.943 . S
O254 Zn253 1.962 . S
O254 C259 1.254 . S
O255 Zn252 2.031 . S
O255 C259 1.269 . S
O256 Zn253 1.986 . S
O256 C263 1.262 . S
O257 Zn252 2.049 . S
O257 C265 1.260 . S
O258 Zn253 1.996 . S
O258 C265 1.257 . S
C259 O254 1.254 . S
C259 O255 1.269 . S
C260 O261 1.249 . S
C260 O262 1.270 . S
O261 Zn253 1.943 . S
O261 C260 1.249 . S
O262 Zn252 2.067 . S
O262 C260 1.270 . S
C263 O256 1.262 . S
C263 O264 1.232 . S
O264 C263 1.232 . S
C265 O257 1.260 . S
C265 O258 1.257 . S
Zn266 O269 2.031 . S
Zn266 O271 2.049 . S
Zn266 O276 2.067 . S
Zn267 O268 1.962 . S
Zn267 O270 1.986 . S
Zn267 O272 1.996 . S
Zn267 O275 1.943 . S
O268 Zn267 1.962 . S
O268 C273 1.254 . S
O269 Zn266 2.031 . S
O269 C273 1.269 . S
O270 Zn267 1.986 . S
O270 C277 1.262 . S
O271 Zn266 2.049 . S
O271 C279 1.260 . S
O272 Zn267 1.996 . S
O272 C279 1.257 . S
C273 O268 1.254 . S
C273 O269 1.269 . S
C274 O275 1.249 . S
C274 O276 1.270 . S
O275 Zn267 1.943 . S
O275 C274 1.249 . S
O276 Zn266 2.067 . S
O276 C274 1.270 . S
C277 O270 1.262 . S
C277 O278 1.232 . S
O278 C277 1.232 . S
C279 O271 1.260 . S
C279 O272 1.257 . S
Zn280 O283 2.031 1_554 S
Zn280 O285 2.049 . S
Zn280 O290 2.067 . S
Zn281 O282 1.962 1_554 S
Zn281 O284 1.986 . S
Zn281 O286 1.996 . S
Zn281 O289 1.943 . S
O282 Zn281 1.962 1_556 S
O282 C287 1.254 . S
O283 Zn280 2.031 1_556 S
O283 C287 1.269 . S
O284 Zn281 1.986 . S
O284 C291 1.262 . S
O285 Zn280 2.049 . S
O285 C293 1.260 . S
O286 Zn281 1.996 . S
O286 C293 1.257 . S
C287 O282 1.254 . S
C287 O283 1.269 . S
C288 O289 1.249 . S
C288 O290 1.270 . S
O289 Zn281 1.943 . S
O289 C288 1.249 . S
O290 Zn280 2.067 . S
O290 C288 1.270 . S
C291 O284 1.262 . S
C291 O292 1.232 1_554 S
O292 C291 1.232 1_556 S
C293 O285 1.260 . S
C293 O286 1.257 . S
Zn294 O297 2.031 . S
Zn294 O299 2.049 . S
Zn294 O304 2.067 . S
Zn295 O296 1.962 . S
Zn295 O298 1.986 . S
Zn295 O300 1.996 . S
Zn295 O303 1.943 . S
O296 Zn295 1.962 . S
O296 C301 1.254 . S
O297 Zn294 2.031 . S
O297 C301 1.269 . S
O298 Zn295 1.986 . S
O298 C305 1.262 . S
O299 Zn294 2.049 . S
O299 C307 1.260 . S
O300 Zn295 1.996 . S
O300 C307 1.257 . S
C301 O296 1.254 . S
C301 O297 1.269 . S
C302 O303 1.249 . S
C302 O304 1.270 . S
O303 Zn295 1.943 . S
O303 C302 1.249 . S
O304 Zn294 2.067 . S
O304 C302 1.270 . S
C305 O298 1.262 . S
C305 O306 1.232 . S
O306 C305 1.232 . S
C307 O299 1.260 . S
C307 O300 1.257 . S
Zn308 O311 2.031 . S
Zn308 O313 2.049 . S
Zn308 O318 2.067 . S
Zn309 O310 1.962 . S
Zn309 O312 1.986 . S
Zn309 O314 1.996 . S
Zn309 O317 1.943 . S
O310 Zn309 1.962 . S
O310 C315 1.254 . S
O311 Zn308 2.031 . S
O311 C315 1.269 . S
O312 Zn309 1.986 . S
O312 C319 1.262 . S
O313 Zn308 2.049 . S
O313 C321 1.260 . S
O314 Zn309 1.996 . S
O314 C321 1.257 . S
C315 O310 1.254 . S
C315 O311 1.269 . S
C316 O317 1.249 . S
C316 O318 1.270 . S
O317 Zn309 1.943 . S
O317 C316 1.249 . S
O318 Zn308 2.067 . S
O318 C316 1.270 . S
C319 O312 1.262 . S
C319 O320 1.232 . S
O320 C319 1.232 . S
C321 O313 1.260 . S
C321 O314 1.257 . S
Zn322 O325 2.031 . S
Zn322 O327 2.049 . S
Zn322 O332 2.067 . S
Zn323 O324 1.962 . S
Zn323 O326 1.986 . S
Zn323 O328 1.996 . S
Zn323 O331 1.943 . S
O324 Zn323 1.962 . S
O324 C329 1.254 . S
O325 Zn322 2.031 . S
O325 C329 1.269 . S
O326 Zn323 1.986 . S
O326 C333 1.262 . S
O327 Zn322 2.049 . S
O327 C335 1.260 . S
O328 Zn323 1.996 . S
O328 C335 1.257 . S
C329 O324 1.254 . S
C329 O325 1.269 . S
C330 O331 1.249 . S
C330 O332 1.270 . S
O331 Zn323 1.943 . S
O331 C330 1.249 . S
O332 Zn322 2.067 . S
O332 C330 1.270 . S
C333 O326 1.262 . S
C333 O334 1.232 . S
O334 C333 1.232 . S
C335 O327 1.260 . S
C335 O328 1.257 . S
Ho336 C339 2.811 1_454 S
Ho336 O356 2.322 1_554 S
Ho336 O358 2.378 1_454 S
Ho336 O359 2.524 1_455 S
Ho336 O360 2.381 1_554 S
Ho336 O361 2.669 1_554 S
Ho336 O363 2.346 1_545 S
Ho336 O367 2.305 . S
Ho337 C348 2.811 . S
Ho337 O357 2.346 . S
Ho337 O361 2.305 1_554 S
Ho337 O362 2.322 . S
Ho337 O364 2.378 . S
Ho337 O365 2.524 . S
Ho337 O366 2.381 . S
Ho337 O367 2.669 . S
C338 O356 1.259 1_554 S
C338 O357 1.268 . S
C339 Ho336 2.811 1_656 S
C339 C340 1.488 . S
C339 O358 1.215 . S
C339 O359 1.289 1_556 S
C340 C339 1.488 . S
C340 C341 1.348 1_556 S
C340 C345 1.413 . S
C341 C340 1.348 1_554 S
C341 C342 1.435 1_554 S
C341 H368 0.930 . S
C342 C341 1.435 1_556 S
C342 C343 1.409 . S
C342 H369 0.911 1_556 S
C343 C342 1.409 . S
C343 C344 1.321 . S
C344 C343 1.321 . S
C344 C345 1.403 . S
C344 H370 0.934 . S
C345 C340 1.413 . S
C345 C344 1.403 . S
C345 H371 0.930 . S
C346 O360 1.275 . S
C346 O361 1.256 . S
C347 O362 1.230 1_565 S
C347 O363 1.252 . S
C348 Ho337 2.811 . S
C348 C349 1.488 . S
C348 O364 1.215 . S
C348 O365 1.289 . S
C349 C348 1.488 . S
C349 C350 1.348 . S
C349 C354 1.413 . S
C350 C349 1.348 . S
C350 C351 1.466 . S
C350 H372 0.930 . S
C351 C350 1.466 . S
C351 C352 1.383 . S
C351 H373 0.906 1_545 S
C352 C351 1.383 . S
C352 C353 1.321 . S
C353 C352 1.321 . S
C353 C354 1.403 . S
C353 H374 0.934 . S
C354 C349 1.413 . S
C354 C353 1.403 . S
C354 H375 0.930 . S
C355 O366 1.275 . S
C355 O367 1.256 . S
O356 Ho336 2.322 1_556 S
O356 C338 1.259 1_556 S
O357 Ho337 2.346 . S
O357 C338 1.268 . S
O358 Ho336 2.378 1_656 S
O358 C339 1.215 . S
O359 Ho336 2.524 1_655 S
O359 C339 1.289 1_554 S
O360 Ho336 2.381 1_556 S
O360 C346 1.275 . S
O361 Ho336 2.669 1_556 S
O361 Ho337 2.305 1_556 S
O361 C346 1.256 . S
O362 Ho337 2.322 . S
O362 C347 1.230 1_545 S
O363 Ho336 2.346 1_565 S
O363 C347 1.252 . S
O364 Ho337 2.378 . S
O364 C348 1.215 . S
O365 Ho337 2.524 . S
O365 C348 1.289 . S
O366 Ho337 2.381 . S
O366 C355 1.275 . S
O367 Ho336 2.305 . S
O367 Ho337 2.669 . S
O367 C355 1.256 . S
H368 C341 0.930 . S
H369 C342 0.911 1_554 S
H370 C344 0.934 . S
H371 C345 0.930 . S
H372 C350 0.930 . S
H373 C351 0.906 1_565 S
H374 C353 0.934 . S
H375 C354 0.930 . S
Ho376 C379 2.811 . S
Ho376 O396 2.322 . S
Ho376 O398 2.378 . S
Ho376 O399 2.524 . S
Ho376 O400 2.381 . S
Ho376 O401 2.669 . S
Ho376 O403 2.346 . S
Ho376 O407 2.305 . S
Ho377 C388 2.811 . S
Ho377 O397 2.346 . S
Ho377 O401 2.305 . S
Ho377 O402 2.322 . S
Ho377 O404 2.378 . S
Ho377 O405 2.524 . S
Ho377 O406 2.381 . S
Ho377 O407 2.669 . S
C378 O396 1.259 . S
C378 O397 1.268 . S
C379 Ho376 2.811 . S
C379 C380 1.488 . S
C379 O398 1.215 . S
C379 O399 1.289 . S
C380 C379 1.488 . S
C380 C381 1.348 . S
C380 C385 1.413 . S
C381 C380 1.348 . S
C381 C382 1.442 . S
C381 H408 0.930 . S
C382 C381 1.442 . S
C382 C383 1.381 . S
C382 H409 0.931 . S
C383 C382 1.381 . S
C383 C384 1.321 . S
C384 C383 1.321 . S
C384 C385 1.403 . S
C384 H410 0.934 . S
C385 C380 1.413 . S
C385 C384 1.403 . S
C385 H411 0.930 . S
C386 O400 1.275 . S
C386 O401 1.256 . S
C387 O402 1.259 . S
C387 O403 1.268 . S
C388 Ho377 2.811 . S
C388 C389 1.488 . S
C388 O404 1.215 . S
C388 O405 1.289 . S
C389 C388 1.488 . S
C389 C390 1.348 . S
C389 C394 1.413 . S
C390 C389 1.348 . S
C390 C391 1.442 . S
C390 H412 0.930 . S
C391 C390 1.442 . S
C391 C392 1.381 . S
C391 H413 0.931 . S
C392 C391 1.381 . S
C392 C393 1.321 . S
C393 C392 1.321 . S
C393 C394 1.403 . S
C393 H414 0.934 . S
C394 C389 1.413 . S
C394 C393 1.403 . S
C394 H415 0.930 . S
C395 O406 1.275 . S
C395 O407 1.256 . S
O396 Ho376 2.322 . S
O396 C378 1.259 . S
O397 Ho377 2.346 . S
O397 C378 1.268 . S
O398 Ho376 2.378 . S
O398 C379 1.215 . S
O399 Ho376 2.524 . S
O399 C379 1.289 . S
O400 Ho376 2.381 . S
O400 C386 1.275 . S
O401 Ho376 2.669 . S
O401 Ho377 2.305 . S
O401 C386 1.256 . S
O402 Ho377 2.322 . S
O402 C387 1.259 . S
O403 Ho376 2.346 . S
O403 C387 1.268 . S
O404 Ho377 2.378 . S
O404 C388 1.215 . S
O405 Ho377 2.524 . S
O405 C388 1.289 . S
O406 Ho377 2.381 . S
O406 C395 1.275 . S
O407 Ho376 2.305 . S
O407 Ho377 2.669 . S
O407 C395 1.256 . S
H408 C381 0.930 . S
H409 C382 0.931 . S
H410 C384 0.934 . S
H411 C385 0.930 . S
H412 C390 0.930 . S
H413 C391 0.931 . S
H414 C393 0.934 . S
H415 C394 0.930 . S
Ho416 C419 2.811 . S
Ho416 O436 2.365 . S
Ho416 O438 2.378 . S
Ho416 O439 2.524 . S
Ho416 O440 2.381 . S
Ho416 O441 2.669 . S
Ho416 O443 2.346 . S
Ho416 O447 2.305 . S
Ho417 C428 2.811 . S
Ho417 O437 2.346 1_545 S
Ho417 O441 2.305 . S
Ho417 O442 2.322 . S
Ho417 O444 2.378 . S
Ho417 O445 2.524 . S
Ho417 O446 2.381 . S
Ho417 O447 2.669 . S
C418 O436 1.234 1_565 S
C418 O437 1.268 . S
C419 Ho416 2.811 . S
C419 C420 1.444 1_545 S
C419 O438 1.215 . S
C419 O439 1.289 . S
C420 C419 1.444 1_565 S
C420 C421 1.394 . S
C420 C425 1.416 . S
C421 C420 1.394 . S
C421 C422 1.442 . S
C421 H448 0.930 . S
C422 C421 1.442 . S
C422 C423 1.381 . S
C422 H449 0.931 . S
C423 C422 1.381 . S
C423 C424 1.321 . S
C424 C423 1.321 . S
C424 C425 1.403 . S
C424 H450 0.934 . S
C425 C420 1.416 . S
C425 C424 1.403 . S
C425 H451 0.930 1_565 S
C426 O440 1.275 . S
C426 O441 1.256 . S
C427 O442 1.259 . S
C427 O443 1.268 . S
C428 Ho417 2.811 . S
C428 C429 1.488 . S
C428 O444 1.215 . S
C428 O445 1.289 . S
C429 C428 1.488 . S
C429 C430 1.348 . S
C429 C434 1.413 . S
C430 C429 1.348 . S
C430 C431 1.442 . S
C430 H452 0.930 . S
C431 C430 1.442 . S
C431 C432 1.381 . S
C431 H453 0.931 . S
C432 C431 1.381 . S
C432 C433 1.321 . S
C433 C432 1.321 . S
C433 C434 1.403 . S
C433 H454 0.934 . S
C434 C429 1.413 . S
C434 C433 1.403 . S
C434 H455 0.930 . S
C435 O446 1.275 . S
C435 O447 1.256 . S
O436 Ho416 2.365 . S
O436 C418 1.234 1_545 S
O437 Ho417 2.346 1_565 S
O437 C418 1.268 . S
O438 Ho416 2.378 . S
O438 C419 1.215 . S
O439 Ho416 2.524 . S
O439 C419 1.289 . S
O440 Ho416 2.381 . S
O440 C426 1.275 . S
O441 Ho416 2.669 . S
O441 Ho417 2.305 . S
O441 C426 1.256 . S
O442 Ho417 2.322 . S
O442 C427 1.259 . S
O443 Ho416 2.346 . S
O443 C427 1.268 . S
O444 Ho417 2.378 . S
O444 C428 1.215 . S
O445 Ho417 2.524 . S
O445 C428 1.289 . S
O446 Ho417 2.381 . S
O446 C435 1.275 . S
O447 Ho416 2.305 . S
O447 Ho417 2.669 . S
O447 C435 1.256 . S
H448 C421 0.930 . S
H449 C422 0.931 . S
H450 C424 0.934 . S
H451 C425 0.930 1_545 S
H452 C430 0.930 . S
H453 C431 0.931 . S
H454 C433 0.934 . S
H455 C434 0.930 . S
Ho456 C459 2.811 . S
Ho456 O476 2.322 . S
Ho456 O478 2.378 . S
Ho456 O479 2.524 . S
Ho456 O480 2.381 . S
Ho456 O481 2.669 . S
Ho456 O483 2.346 . S
Ho456 O487 2.305 . S
Ho457 C468 2.811 . S
Ho457 O477 2.346 . S
Ho457 O481 2.305 . S
Ho457 O482 2.322 . S
Ho457 O484 2.378 . S
Ho457 O485 2.524 . S
Ho457 O486 2.381 . S
Ho457 O487 2.669 . S
C458 O476 1.259 . S
C458 O477 1.268 . S
C459 Ho456 2.811 . S
C459 C460 1.488 . S
C459 O478 1.215 . S
C459 O479 1.289 . S
C460 C459 1.488 . S
C460 C461 1.348 . S
C460 C465 1.413 . S
C461 C460 1.348 . S
C461 C462 1.442 . S
C461 H488 0.930 . S
C462 C461 1.442 . S
C462 C463 1.381 . S
C462 H489 0.931 . S
C463 C462 1.381 . S
C463 C464 1.321 . S
C464 C463 1.321 . S
C464 C465 1.403 . S
C464 H490 0.934 . S
C465 C460 1.413 . S
C465 C464 1.403 . S
C465 H491 0.930 . S
C466 O480 1.275 . S
C466 O481 1.256 . S
C467 O482 1.259 . S
C467 O483 1.268 . S
C468 Ho457 2.811 . S
C468 C469 1.488 . S
C468 O484 1.215 . S
C468 O485 1.289 . S
C469 C468 1.488 . S
C469 C470 1.348 . S
C469 C474 1.413 . S
C470 C469 1.348 . S
C470 C471 1.442 . S
C470 H492 0.930 . S
C471 C470 1.442 . S
C471 C472 1.381 . S
C471 H493 0.931 . S
C472 C471 1.381 . S
C472 C473 1.321 . S
C473 C472 1.321 . S
C473 C474 1.403 . S
C473 H494 0.934 . S
C474 C469 1.413 . S
C474 C473 1.403 . S
C474 H495 0.930 . S
C475 O486 1.275 . S
C475 O487 1.256 . S
O476 Ho456 2.322 . S
O476 C458 1.259 . S
O477 Ho457 2.346 . S
O477 C458 1.268 . S
O478 Ho456 2.378 . S
O478 C459 1.215 . S
O479 Ho456 2.524 . S
O479 C459 1.289 . S
O480 Ho456 2.381 . S
O480 C466 1.275 . S
O481 Ho456 2.669 . S
O481 Ho457 2.305 . S
O481 C466 1.256 . S
O482 Ho457 2.322 . S
O482 C467 1.259 . S
O483 Ho456 2.346 . S
O483 C467 1.268 . S
O484 Ho457 2.378 . S
O484 C468 1.215 . S
O485 Ho457 2.524 . S
O485 C468 1.289 . S
O486 Ho457 2.381 . S
O486 C475 1.275 . S
O487 Ho456 2.305 . S
O487 Ho457 2.669 . S
O487 C475 1.256 . S
H488 C461 0.930 . S
H489 C462 0.931 . S
H490 C464 0.934 . S
H491 C465 0.930 . S
H492 C470 0.930 . S
H493 C471 0.931 . S
H494 C473 0.934 . S
H495 C474 0.930 . S
Ho496 C499 2.811 . S
Ho496 O516 2.322 . S
Ho496 O518 2.378 . S
Ho496 O519 2.524 . S
Ho496 O520 2.381 . S
Ho496 O521 2.669 . S
Ho496 O523 2.346 . S
Ho496 O527 2.305 . S
Ho497 C508 2.811 1_545 S
Ho497 O517 2.346 . S
Ho497 O521 2.305 . S
Ho497 O522 2.322 . S
Ho497 O524 2.378 1_545 S
Ho497 O525 2.524 1_545 S
Ho497 O526 2.381 . S
Ho497 O527 2.669 . S
C498 O516 1.259 . S
C498 O517 1.268 . S
C499 Ho496 2.811 . S
C499 C500 1.488 . S
C499 O518 1.215 . S
C499 O519 1.289 . S
C500 C499 1.488 . S
C500 C501 1.348 . S
C500 C505 1.413 . S
C501 C500 1.348 . S
C501 C502 1.442 . S
C501 H528 0.930 . S
C502 C501 1.442 . S
C502 C503 1.381 . S
C502 H529 0.931 . S
C503 C502 1.381 . S
C503 C504 1.321 . S
C504 C503 1.321 . S
C504 C505 1.403 . S
C504 H530 0.934 . S
C505 C500 1.413 . S
C505 C504 1.403 . S
C505 H531 0.930 . S
C506 O520 1.275 . S
C506 O521 1.256 . S
C507 O522 1.259 . S
C507 O523 1.268 . S
C508 Ho497 2.811 1_565 S
C508 C509 1.488 . S
C508 O524 1.215 . S
C508 O525 1.289 . S
C509 C508 1.488 . S
C509 C510 1.348 . S
C509 C514 1.413 . S
C510 C509 1.348 . S
C510 C511 1.442 . S
C510 H532 0.930 . S
C511 C510 1.442 . S
C511 C512 1.381 . S
C511 H533 0.931 . S
C512 C511 1.381 . S
C512 C513 1.321 . S
C513 C512 1.321 . S
C513 C514 1.403 . S
C513 H534 0.934 . S
C514 C509 1.413 . S
C514 C513 1.403 . S
C514 H535 0.930 . S
C515 O526 1.275 . S
C515 O527 1.256 . S
O516 Ho496 2.322 . S
O516 C498 1.259 . S
O517 Ho497 2.346 . S
O517 C498 1.268 . S
O518 Ho496 2.378 . S
O518 C499 1.215 . S
O519 Ho496 2.524 . S
O519 C499 1.289 . S
O520 Ho496 2.381 . S
O520 C506 1.275 . S
O521 Ho496 2.669 . S
O521 Ho497 2.305 . S
O521 C506 1.256 . S
O522 Ho497 2.322 . S
O522 C507 1.259 . S
O523 Ho496 2.346 . S
O523 C507 1.268 . S
O524 Ho497 2.378 1_565 S
O524 C508 1.215 . S
O525 Ho497 2.524 1_565 S
O525 C508 1.289 . S
O526 Ho497 2.381 . S
O526 C515 1.275 . S
O527 Ho496 2.305 . S
O527 Ho497 2.669 . S
O527 C515 1.256 . S
H528 C501 0.930 . S
H529 C502 0.931 . S
H530 C504 0.934 . S
H531 C505 0.930 . S
H532 C510 0.930 . S
H533 C511 0.931 . S
H534 C513 0.934 . S
H535 C514 0.930 . S
Ho536 C539 2.811 . S
Ho536 O556 2.322 . S
Ho536 O558 2.378 . S
Ho536 O559 2.524 . S
Ho536 O560 2.381 . S
Ho536 O561 2.669 . S
Ho536 O563 2.346 . S
Ho536 O567 2.305 . S
Ho537 C548 2.811 . S
Ho537 O557 2.346 . S
Ho537 O561 2.305 . S
Ho537 O562 2.322 . S
Ho537 O564 2.378 . S
Ho537 O565 2.524 . S
Ho537 O566 2.381 . S
Ho537 O567 2.669 . S
C538 O556 1.259 . S
C538 O557 1.268 . S
C539 Ho536 2.811 . S
C539 C540 1.488 . S
C539 O558 1.215 . S
C539 O559 1.289 . S
C540 C539 1.488 . S
C540 C541 1.348 . S
C540 C545 1.413 . S
C541 C540 1.348 . S
C541 C542 1.442 . S
C541 H568 0.930 . S
C542 C541 1.442 . S
C542 C543 1.381 . S
C542 H569 0.931 . S
C543 C542 1.381 . S
C543 C544 1.321 . S
C544 C543 1.321 . S
C544 C545 1.403 . S
C544 H570 0.934 . S
C545 C540 1.413 . S
C545 C544 1.403 . S
C545 H571 0.930 . S
C546 O560 1.275 . S
C546 O561 1.256 . S
C547 O562 1.259 . S
C547 O563 1.268 . S
C548 Ho537 2.811 . S
C548 C549 1.488 . S
C548 O564 1.215 . S
C548 O565 1.289 . S
C549 C548 1.488 . S
C549 C550 1.348 . S
C549 C554 1.413 . S
C550 C549 1.348 . S
C550 C551 1.442 . S
C550 H572 0.930 . S
C551 C550 1.442 . S
C551 C552 1.381 . S
C551 H573 0.931 . S
C552 C551 1.381 . S
C552 C553 1.321 . S
C553 C552 1.321 . S
C553 C554 1.403 . S
C553 H574 0.934 . S
C554 C549 1.413 . S
C554 C553 1.403 . S
C554 H575 0.930 . S
C555 O566 1.275 . S
C555 O567 1.256 . S
O556 Ho536 2.322 . S
O556 C538 1.259 . S
O557 Ho537 2.346 . S
O557 C538 1.268 . S
O558 Ho536 2.378 . S
O558 C539 1.215 . S
O559 Ho536 2.524 . S
O559 C539 1.289 . S
O560 Ho536 2.381 . S
O560 C546 1.275 . S
O561 Ho536 2.669 . S
O561 Ho537 2.305 . S
O561 C546 1.256 . S
O562 Ho537 2.322 . S
O562 C547 1.259 . S
O563 Ho536 2.346 . S
O563 C547 1.268 . S
O564 Ho537 2.378 . S
O564 C548 1.215 . S
O565 Ho537 2.524 . S
O565 C548 1.289 . S
O566 Ho537 2.381 . S
O566 C555 1.275 . S
O567 Ho536 2.305 . S
O567 Ho537 2.669 . S
O567 C555 1.256 . S
H568 C541 0.930 . S
H569 C542 0.931 . S
H570 C544 0.934 . S
H571 C545 0.930 . S
H572 C550 0.930 . S
H573 C551 0.931 . S
H574 C553 0.934 . S
H575 C554 0.930 . S
Ho576 C579 2.811 . S
Ho576 O596 2.322 . S
Ho576 O598 2.378 . S
Ho576 O599 2.524 . S
Ho576 O600 2.381 . S
Ho576 O601 2.669 1_554 S
Ho576 O603 2.346 . S
Ho576 O607 2.305 . S
Ho577 C588 2.811 . S
Ho577 O597 2.346 . S
Ho577 O601 2.305 . S
Ho577 O602 2.322 . S
Ho577 O604 2.378 . S
Ho577 O605 2.524 . S
Ho577 O606 2.381 . S
Ho577 O607 2.669 1_556 S
C578 O596 1.259 . S
C578 O597 1.268 1_554 S
C579 Ho576 2.811 . S
C579 C580 1.488 . S
C579 O598 1.215 . S
C579 O599 1.289 . S
C580 C579 1.488 . S
C580 C581 1.348 . S
C580 C585 1.413 1_545 S
C581 C580 1.348 . S
C581 C582 1.442 . S
C581 H608 0.930 . S
C582 C581 1.442 . S
C582 C583 1.381 . S
C582 H609 0.931 . S
C583 C582 1.381 . S
C583 C584 1.321 1_545 S
C584 C583 1.321 1_565 S
C584 C585 1.403 . S
C584 H610 0.934 . S
C585 C580 1.413 1_565 S
C585 C584 1.403 . S
C585 H611 0.930 . S
C586 O600 1.275 1_556 S
C586 O601 1.256 . S
C587 O602 1.259 1_554 S
C587 O603 1.268 . S
C588 Ho577 2.811 . S
C588 C589 1.488 . S
C588 O604 1.215 . S
C588 O605 1.289 . S
C589 C588 1.488 . S
C589 C590 1.348 . S
C589 C594 1.413 . S
C590 C589 1.348 . S
C590 C591 1.442 . S
C590 H612 0.930 . S
C591 C590 1.442 . S
C591 C592 1.381 . S
C591 H613 0.931 . S
C592 C591 1.381 . S
C592 C593 1.321 . S
C593 C592 1.321 . S
C593 C594 1.403 . S
C593 H614 0.934 . S
C594 C589 1.413 . S
C594 C593 1.403 . S
C594 H615 0.930 . S
C595 O606 1.275 1_554 S
C595 O607 1.256 . S
O596 Ho576 2.322 . S
O596 C578 1.259 . S
O597 Ho577 2.346 . S
O597 C578 1.268 1_556 S
O598 Ho576 2.378 . S
O598 C579 1.215 . S
O599 Ho576 2.524 . S
O599 C579 1.289 . S
O600 Ho576 2.381 . S
O600 C586 1.275 1_554 S
O601 Ho576 2.669 1_556 S
O601 Ho577 2.305 . S
O601 C586 1.256 . S
O602 Ho577 2.322 . S
O602 C587 1.259 1_556 S
O603 Ho576 2.346 . S
O603 C587 1.268 . S
O604 Ho577 2.378 . S
O604 C588 1.215 . S
O605 Ho577 2.524 . S
O605 C588 1.289 . S
O606 Ho577 2.381 . S
O606 C595 1.275 1_556 S
O607 Ho576 2.305 . S
O607 Ho577 2.669 1_554 S
O607 C595 1.256 . S
H608 C581 0.930 . S
H609 C582 0.931 . S
H610 C584 0.934 . S
H611 C585 0.930 . S
H612 C590 0.930 . S
H613 C591 0.931 . S
H614 C593 0.934 . S
H615 C594 0.930 . S
Ho616 C619 2.811 . S
Ho616 O636 2.322 . S
Ho616 O638 2.378 . S
Ho616 O639 2.524 . S
Ho616 O640 2.381 . S
Ho616 O641 2.669 . S
Ho616 O643 2.346 . S
Ho616 O647 2.305 . S
Ho617 C628 2.811 . S
Ho617 O637 2.346 . S
Ho617 O641 2.305 . S
Ho617 O642 2.322 . S
Ho617 O644 2.378 . S
Ho617 O645 2.524 . S
Ho617 O646 2.381 . S
Ho617 O647 2.669 . S
C618 O636 1.259 . S
C618 O637 1.268 . S
C619 Ho616 2.811 . S
C619 C620 1.488 . S
C619 O638 1.215 . S
C619 O639 1.289 . S
C620 C619 1.488 . S
C620 C621 1.348 . S
C620 C625 1.413 . S
C621 C620 1.348 . S
C621 C622 1.442 . S
C621 H648 0.930 . S
C622 C621 1.442 . S
C622 C623 1.381 . S
C622 H649 0.931 . S
C623 C622 1.381 . S
C623 C624 1.321 . S
C624 C623 1.321 . S
C624 C625 1.403 . S
C624 H650 0.934 . S
C625 C620 1.413 . S
C625 C624 1.403 . S
C625 H651 0.930 . S
C626 O640 1.275 . S
C626 O641 1.256 . S
C627 O642 1.259 . S
C627 O643 1.268 . S
C628 Ho617 2.811 . S
C628 C629 1.488 . S
C628 O644 1.215 . S
C628 O645 1.289 . S
C629 C628 1.488 . S
C629 C630 1.348 . S
C629 C634 1.413 . S
C630 C629 1.348 . S
C630 C631 1.442 . S
C630 H652 0.930 . S
C631 C630 1.442 . S
C631 C632 1.381 . S
C631 H653 0.931 . S
C632 C631 1.381 . S
C632 C633 1.321 . S
C633 C632 1.321 . S
C633 C634 1.403 . S
C633 H654 0.934 . S
C634 C629 1.413 . S
C634 C633 1.403 . S
C634 H655 0.930 . S
C635 O646 1.275 . S
C635 O647 1.256 . S
O636 Ho616 2.322 . S
O636 C618 1.259 . S
O637 Ho617 2.346 . S
O637 C618 1.268 . S
O638 Ho616 2.378 . S
O638 C619 1.215 . S
O639 Ho616 2.524 . S
O639 C619 1.289 . S
O640 Ho616 2.381 . S
O640 C626 1.275 . S
O641 Ho616 2.669 . S
O641 Ho617 2.305 . S
O641 C626 1.256 . S
O642 Ho617 2.322 . S
O642 C627 1.259 . S
O643 Ho616 2.346 . S
O643 C627 1.268 . S
O644 Ho617 2.378 . S
O644 C628 1.215 . S
O645 Ho617 2.524 . S
O645 C628 1.289 . S
O646 Ho617 2.381 . S
O646 C635 1.275 . S
O647 Ho616 2.305 . S
O647 Ho617 2.669 . S
O647 C635 1.256 . S
H648 C621 0.930 . S
H649 C622 0.931 . S
H650 C624 0.934 . S
H651 C625 0.930 . S
H652 C630 0.930 . S
H653 C631 0.931 . S
H654 C633 0.934 . S
H655 C634 0.930 . S
Ho656 C659 2.811 1_554 S
Ho656 O676 2.322 1_554 S
Ho656 O678 2.378 . S
Ho656 O679 2.524 1_554 S
Ho656 O680 2.381 . S
Ho656 O681 2.669 . S
Ho656 O683 2.346 . S
Ho656 O687 2.305 . S
Ho657 C668 2.775 1_556 S
Ho657 O677 2.399 . S
Ho657 O681 2.282 1_556 S
Ho657 O682 2.266 1_556 S
Ho657 O684 2.358 1_556 S
Ho657 O685 2.479 1_556 S
Ho657 O686 2.393 . S
Ho657 O687 2.674 1_556 S
C658 O676 1.259 . S
C658 O677 1.268 . S
C659 Ho656 2.811 1_556 S
C659 C660 1.488 . S
C659 O678 1.215 1_556 S
C659 O679 1.289 . S
C660 C659 1.488 . S
C660 C661 1.348 . S
C660 C665 1.413 . S
C661 C660 1.348 . S
C661 C662 1.442 . S
C661 H688 0.930 . S
C662 C661 1.442 . S
C662 C663 1.381 . S
C662 H689 0.931 . S
C663 C662 1.381 . S
C663 C664 1.321 . S
C664 C663 1.321 . S
C664 C665 1.403 . S
C664 H690 0.934 . S
C665 C660 1.413 . S
C665 C664 1.403 . S
C665 H691 0.930 . S
C666 O680 1.275 . S
C666 O681 1.256 . S
C667 O682 1.259 . S
C667 O683 1.268 . S
C668 Ho657 2.775 1_554 S
C668 C669 1.488 . S
C668 O684 1.215 . S
C668 O685 1.289 . S
C669 C668 1.488 . S
C669 C670 1.348 . S
C669 C674 1.413 . S
C670 C669 1.348 . S
C670 C671 1.442 . S
C670 H692 0.930 . S
C671 C670 1.442 . S
C671 C672 1.381 . S
C671 H693 0.931 . S
C672 C671 1.381 . S
C672 C673 1.321 . S
C673 C672 1.321 . S
C673 C674 1.403 . S
C673 H694 0.934 . S
C674 C669 1.413 . S
C674 C673 1.403 . S
C674 H695 0.930 . S
C675 O686 1.275 1_554 S
C675 O687 1.256 . S
O676 Ho656 2.322 1_556 S
O676 C658 1.259 . S
O677 Ho657 2.399 . S
O677 C658 1.268 . S
O678 Ho656 2.378 . S
O678 C659 1.215 1_554 S
O679 Ho656 2.524 1_556 S
O679 C659 1.289 . S
O680 Ho656 2.381 . S
O680 C666 1.275 . S
O681 Ho656 2.669 . S
O681 Ho657 2.282 1_554 S
O681 C666 1.256 . S
O682 Ho657 2.266 1_554 S
O682 C667 1.259 . S
O683 Ho656 2.346 . S
O683 C667 1.268 . S
O684 Ho657 2.358 1_554 S
O684 C668 1.215 . S
O685 Ho657 2.479 1_554 S
O685 C668 1.289 . S
O686 Ho657 2.393 . S
O686 C675 1.275 1_556 S
O687 Ho656 2.305 . S
O687 Ho657 2.674 1_554 S
O687 C675 1.256 . S
H688 C661 0.930 . S
H689 C662 0.931 . S
H690 C664 0.934 . S
H691 C665 0.930 . S
H692 C670 0.930 . S
H693 C671 0.931 . S
H694 C673 0.934 . S
H695 C674 0.930 . S
Ho696 C699 2.811 . S
Ho696 O716 2.322 . S
Ho696 O718 2.378 . S
Ho696 O719 2.524 . S
Ho696 O720 2.381 . S
Ho696 O721 2.669 . S
Ho696 O723 2.346 . S
Ho696 O727 2.305 . S
Ho697 C708 2.811 . S
Ho697 O717 2.346 . S
Ho697 O721 2.305 . S
Ho697 O722 2.322 . S
Ho697 O724 2.378 . S
Ho697 O725 2.524 . S
Ho697 O726 2.381 . S
Ho697 O727 2.669 . S
C698 O716 1.259 . S
C698 O717 1.268 . S
C699 Ho696 2.811 . S
C699 C700 1.488 . S
C699 O718 1.215 . S
C699 O719 1.289 . S
C700 C699 1.488 . S
C700 C701 1.348 . S
C700 C705 1.413 . S
C701 C700 1.348 . S
C701 C702 1.442 . S
C701 H728 0.930 . S
C702 C701 1.442 . S
C702 C703 1.381 . S
C702 H729 0.931 . S
C703 C702 1.381 . S
C703 C704 1.321 . S
C704 C703 1.321 . S
C704 C705 1.403 . S
C704 H730 0.934 . S
C705 C700 1.413 . S
C705 C704 1.403 . S
C705 H731 0.930 . S
C706 O720 1.275 . S
C706 O721 1.256 . S
C707 O722 1.259 . S
C707 O723 1.268 . S
C708 Ho697 2.811 . S
C708 C709 1.488 . S
C708 O724 1.215 . S
C708 O725 1.289 . S
C709 C708 1.488 . S
C709 C710 1.348 . S
C709 C714 1.413 . S
C710 C709 1.348 . S
C710 C711 1.442 . S
C710 H732 0.930 . S
C711 C710 1.442 . S
C711 C712 1.381 . S
C711 H733 0.931 . S
C712 C711 1.381 . S
C712 C713 1.321 . S
C713 C712 1.321 . S
C713 C714 1.403 . S
C713 H734 0.934 . S
C714 C709 1.413 . S
C714 C713 1.403 . S
C714 H735 0.930 . S
C715 O726 1.275 . S
C715 O727 1.256 . S
O716 Ho696 2.322 . S
O716 C698 1.259 . S
O717 Ho697 2.346 . S
O717 C698 1.268 . S
O718 Ho696 2.378 . S
O718 C699 1.215 . S
O719 Ho696 2.524 . S
O719 C699 1.289 . S
O720 Ho696 2.381 . S
O720 C706 1.275 . S
O721 Ho696 2.669 . S
O721 Ho697 2.305 . S
O721 C706 1.256 . S
O722 Ho697 2.322 . S
O722 C707 1.259 . S
O723 Ho696 2.346 . S
O723 C707 1.268 . S
O724 Ho697 2.378 . S
O724 C708 1.215 . S
O725 Ho697 2.524 . S
O725 C708 1.289 . S
O726 Ho697 2.381 . S
O726 C715 1.275 . S
O727 Ho696 2.305 . S
O727 Ho697 2.669 . S
O727 C715 1.256 . S
H728 C701 0.930 . S
H729 C702 0.931 . S
H730 C704 0.934 . S
H731 C705 0.930 . S
H732 C710 0.930 . S
H733 C711 0.931 . S
H734 C713 0.934 . S
H735 C714 0.930 . S
Ho736 C739 2.811 . S
Ho736 O756 2.322 . S
Ho736 O758 2.378 . S
Ho736 O759 2.524 . S
Ho736 O760 2.381 . S
Ho736 O761 2.669 . S
Ho736 O763 2.346 . S
Ho736 O767 2.305 . S
Ho737 C748 2.811 . S
Ho737 O757 2.356 . S
Ho737 O761 2.305 . S
Ho737 O762 2.322 . S
Ho737 O764 2.378 . S
Ho737 O765 2.524 . S
Ho737 O766 2.381 . S
Ho737 O767 2.669 . S
C738 O756 1.259 1_655 S
C738 O757 1.266 1_655 S
C739 Ho736 2.811 . S
C739 C740 1.488 . S
C739 O758 1.215 . S
C739 O759 1.289 . S
C740 C739 1.488 . S
C740 C741 1.348 1_455 S
C740 C745 1.413 . S
C741 C740 1.348 1_655 S
C741 C742 1.442 . S
C741 H768 0.930 . S
C742 C741 1.442 . S
C742 C743 1.381 . S
C742 H769 0.931 . S
C743 C742 1.381 . S
C743 C744 1.321 . S
C744 C743 1.321 . S
C744 C745 1.403 1_655 S
C744 H770 0.934 1_655 S
C745 C740 1.413 . S
C745 C744 1.403 1_455 S
C745 H771 0.930 . S
C746 O760 1.275 . S
C746 O761 1.256 . S
C747 O762 1.259 . S
C747 O763 1.268 . S
C748 Ho737 2.811 . S
C748 C749 1.488 . S
C748 O764 1.215 . S
C748 O765 1.289 . S
C749 C748 1.488 . S
C749 C750 1.348 . S
C749 C754 1.413 . S
C750 C749 1.348 . S
C750 C751 1.442 . S
C750 H772 0.930 . S
C751 C750 1.442 . S
C751 C752 1.381 . S
C751 H773 0.931 . S
C752 C751 1.381 . S
C752 C753 1.321 . S
C753 C752 1.321 . S
C753 C754 1.403 . S
C753 H774 0.934 . S
C754 C749 1.413 . S
C754 C753 1.403 . S
C754 H775 0.930 . S
C755 O766 1.275 . S
C755 O767 1.256 . S
O756 Ho736 2.322 . S
O756 C738 1.259 1_455 S
O757 Ho737 2.356 . S
O757 C738 1.266 1_455 S
O758 Ho736 2.378 . S
O758 C739 1.215 . S
O759 Ho736 2.524 . S
O759 C739 1.289 . S
O760 Ho736 2.381 . S
O760 C746 1.275 . S
O761 Ho736 2.669 . S
O761 Ho737 2.305 . S
O761 C746 1.256 . S
O762 Ho737 2.322 . S
O762 C747 1.259 . S
O763 Ho736 2.346 . S
O763 C747 1.268 . S
O764 Ho737 2.378 . S
O764 C748 1.215 . S
O765 Ho737 2.524 . S
O765 C748 1.289 . S
O766 Ho737 2.381 . S
O766 C755 1.275 . S
O767 Ho736 2.305 . S
O767 Ho737 2.669 . S
O767 C755 1.256 . S
H768 C741 0.930 . S
H769 C742 0.931 . S
H770 C744 0.934 1_455 S
H771 C745 0.930 . S
H772 C750 0.930 . S
H773 C751 0.931 . S
H774 C753 0.934 . S
H775 C754 0.930 . S
Ho776 C779 2.811 . S
Ho776 O796 2.322 . S
Ho776 O798 2.378 . S
Ho776 O799 2.524 . S
Ho776 O800 2.381 . S
Ho776 O801 2.669 . S
Ho776 O803 2.346 . S
Ho776 O807 2.305 . S
Ho777 C788 2.811 . S
Ho777 O797 2.346 . S
Ho777 O801 2.305 . S
Ho777 O802 2.322 . S
Ho777 O804 2.378 . S
Ho777 O805 2.524 . S
Ho777 O806 2.381 . S
Ho777 O807 2.669 . S
C778 O796 1.259 . S
C778 O797 1.268 . S
C779 Ho776 2.811 . S
C779 C780 1.488 . S
C779 O798 1.215 . S
C779 O799 1.289 . S
C780 C779 1.488 . S
C780 C781 1.348 . S
C780 C785 1.413 . S
C781 C780 1.348 . S
C781 C782 1.442 . S
C781 H808 0.930 . S
C782 C781 1.442 . S
C782 C783 1.381 . S
C782 H809 0.931 . S
C783 C782 1.381 . S
C783 C784 1.321 . S
C784 C783 1.321 . S
C784 C785 1.403 . S
C784 H810 0.934 . S
C785 C780 1.413 . S
C785 C784 1.403 . S
C785 H811 0.930 . S
C786 O800 1.275 . S
C786 O801 1.256 . S
C787 O802 1.259 . S
C787 O803 1.268 . S
C788 Ho777 2.811 . S
C788 C789 1.488 . S
C788 O804 1.215 . S
C788 O805 1.289 . S
C789 C788 1.488 . S
C789 C790 1.348 . S
C789 C794 1.413 . S
C790 C789 1.348 . S
C790 C791 1.442 . S
C790 H812 0.930 . S
C791 C790 1.442 . S
C791 C792 1.381 . S
C791 H813 0.931 . S
C792 C791 1.381 . S
C792 C793 1.321 . S
C793 C792 1.321 . S
C793 C794 1.403 . S
C793 H814 0.934 . S
C794 C789 1.413 . S
C794 C793 1.403 . S
C794 H815 0.930 . S
C795 O806 1.275 . S
C795 O807 1.256 . S
O796 Ho776 2.322 . S
O796 C778 1.259 . S
O797 Ho777 2.346 . S
O797 C778 1.268 . S
O798 Ho776 2.378 . S
O798 C779 1.215 . S
O799 Ho776 2.524 . S
O799 C779 1.289 . S
O800 Ho776 2.381 . S
O800 C786 1.275 . S
O801 Ho776 2.669 . S
O801 Ho777 2.305 . S
O801 C786 1.256 . S
O802 Ho777 2.322 . S
O802 C787 1.259 . S
O803 Ho776 2.346 . S
O803 C787 1.268 . S
O804 Ho777 2.378 . S
O804 C788 1.215 . S
O805 Ho777 2.524 . S
O805 C788 1.289 . S
O806 Ho777 2.381 . S
O806 C795 1.275 . S
O807 Ho776 2.305 . S
O807 Ho777 2.669 . S
O807 C795 1.256 . S
H808 C781 0.930 . S
H809 C782 0.931 . S
H810 C784 0.934 . S
H811 C785 0.930 . S
H812 C790 0.930 . S
H813 C791 0.931 . S
H814 C793 0.934 . S
H815 C794 0.930 . S
Ho816 C819 2.811 . S
Ho816 O836 2.322 . S
Ho816 O838 2.378 . S
Ho816 O839 2.524 . S
Ho816 O840 2.381 . S
Ho816 O841 2.669 . S
Ho816 O843 2.346 . S
Ho816 O847 2.305 . S
Ho817 C828 2.811 . S
Ho817 O837 2.346 . S
Ho817 O841 2.305 . S
Ho817 O842 2.322 . S
Ho817 O844 2.378 . S
Ho817 O845 2.524 . S
Ho817 O846 2.381 . S
Ho817 O847 2.669 . S
C818 O836 1.259 . S
C818 O837 1.268 . S
C819 Ho816 2.811 . S
C819 C820 1.488 . S
C819 O838 1.215 . S
C819 O839 1.289 . S
C820 C819 1.488 . S
C820 C821 1.348 . S
C820 C825 1.413 . S
C821 C820 1.348 . S
C821 C822 1.442 . S
C821 H848 0.930 . S
C822 C821 1.442 . S
C822 C823 1.381 . S
C822 H849 0.931 . S
C823 C822 1.381 . S
C823 C824 1.321 . S
C824 C823 1.321 . S
C824 C825 1.403 . S
C824 H850 0.934 . S
C825 C820 1.413 . S
C825 C824 1.403 . S
C825 H851 0.930 . S
C826 O840 1.275 . S
C826 O841 1.256 . S
C827 O842 1.259 . S
C827 O843 1.268 . S
C828 Ho817 2.811 . S
C828 C829 1.488 . S
C828 O844 1.215 . S
C828 O845 1.289 . S
C829 C828 1.488 . S
C829 C830 1.348 . S
C829 C834 1.413 . S
C830 C829 1.348 . S
C830 C831 1.442 . S
C830 H852 0.930 . S
C831 C830 1.442 . S
C831 C832 1.381 . S
C831 H853 0.931 . S
C832 C831 1.381 . S
C832 C833 1.321 . S
C833 C832 1.321 . S
C833 C834 1.403 . S
C833 H854 0.934 . S
C834 C829 1.413 . S
C834 C833 1.403 . S
C834 H855 0.930 . S
C835 O846 1.275 . S
C835 O847 1.256 . S
O836 Ho816 2.322 . S
O836 C818 1.259 . S
O837 Ho817 2.346 . S
O837 C818 1.268 . S
O838 Ho816 2.378 . S
O838 C819 1.215 . S
O839 Ho816 2.524 . S
O839 C819 1.289 . S
O840 Ho816 2.381 . S
O840 C826 1.275 . S
O841 Ho816 2.669 . S
O841 Ho817 2.305 . S
O841 C826 1.256 . S
O842 Ho817 2.322 . S
O842 C827 1.259 . S
O843 Ho816 2.346 . S
O843 C827 1.268 . S
O844 Ho817 2.378 . S
O844 C828 1.215 . S
O845 Ho817 2.524 . S
O845 C828 1.289 . S
O846 Ho817 2.381 . S
O846 C835 1.275 . S
O847 Ho816 2.305 . S
O847 Ho817 2.669 . S
O847 C835 1.256 . S
H848 C821 0.930 . S
H849 C822 0.931 . S
H850 C824 0.934 . S
H851 C825 0.930 . S
H852 C830 0.930 . S
H853 C831 0.931 . S
H854 C833 0.934 . S
H855 C834 0.930 . S
Ho856 C859 2.811 . S
Ho856 O876 2.322 . S
Ho856 O878 2.378 . S
Ho856 O879 2.524 . S
Ho856 O880 2.381 . S
Ho856 O881 2.669 . S
Ho856 O883 2.346 . S
Ho856 O887 2.305 . S
Ho857 C868 2.811 . S
Ho857 O877 2.346 . S
Ho857 O881 2.305 . S
Ho857 O882 2.322 . S
Ho857 O884 2.378 . S
Ho857 O885 2.524 . S
Ho857 O886 2.381 . S
Ho857 O887 2.669 . S
C858 O876 1.259 . S
C858 O877 1.268 . S
C859 Ho856 2.811 . S
C859 C860 1.488 . S
C859 O878 1.215 . S
C859 O879 1.289 . S
C860 C859 1.488 . S
C860 C861 1.348 . S
C860 C865 1.413 . S
C861 C860 1.348 . S
C861 C862 1.442 . S
C861 H888 0.930 . S
C862 C861 1.442 . S
C862 C863 1.381 . S
C862 H889 0.931 . S
C863 C862 1.381 . S
C863 C864 1.321 . S
C864 C863 1.321 . S
C864 C865 1.403 . S
C864 H890 0.934 . S
C865 C860 1.413 . S
C865 C864 1.403 . S
C865 H891 0.930 . S
C866 O880 1.275 . S
C866 O881 1.256 . S
C867 O882 1.259 . S
C867 O883 1.268 . S
C868 Ho857 2.811 . S
C868 C869 1.488 . S
C868 O884 1.215 . S
C868 O885 1.289 . S
C869 C868 1.488 . S
C869 C870 1.348 . S
C869 C874 1.413 . S
C870 C869 1.348 . S
C870 C871 1.442 . S
C870 H892 0.930 . S
C871 C870 1.442 . S
C871 C872 1.381 . S
C871 H893 0.931 . S
C872 C871 1.381 . S
C872 C873 1.321 . S
C873 C872 1.321 . S
C873 C874 1.403 . S
C873 H894 0.934 . S
C874 C869 1.413 . S
C874 C873 1.403 . S
C874 H895 0.930 . S
C875 O886 1.275 . S
C875 O887 1.256 . S
O876 Ho856 2.322 . S
O876 C858 1.259 . S
O877 Ho857 2.346 . S
O877 C858 1.268 . S
O878 Ho856 2.378 . S
O878 C859 1.215 . S
O879 Ho856 2.524 . S
O879 C859 1.289 . S
O880 Ho856 2.381 . S
O880 C866 1.275 . S
O881 Ho856 2.669 . S
O881 Ho857 2.305 . S
O881 C866 1.256 . S
O882 Ho857 2.322 . S
O882 C867 1.259 . S
O883 Ho856 2.346 . S
O883 C867 1.268 . S
O884 Ho857 2.378 . S
O884 C868 1.215 . S
O885 Ho857 2.524 . S
O885 C868 1.289 . S
O886 Ho857 2.381 . S
O886 C875 1.275 . S
O887 Ho856 2.305 . S
O887 Ho857 2.669 . S
O887 C875 1.256 . S
H888 C861 0.930 . S
H889 C862 0.931 . S
H890 C864 0.934 . S
H891 C865 0.930 . S
H892 C870 0.930 . S
H893 C871 0.931 . S
H894 C873 0.934 . S
H895 C874 0.930 . S
Ho896 C899 2.811 . S
Ho896 O916 2.322 . S
Ho896 O918 2.378 . S
Ho896 O919 2.524 . S
Ho896 O920 2.381 . S
Ho896 O921 2.669 . S
Ho896 O923 2.346 . S
Ho896 O927 2.305 . S
Ho897 C908 2.811 . S
Ho897 O917 2.346 . S
Ho897 O921 2.305 . S
Ho897 O922 2.322 . S
Ho897 O924 2.378 . S
Ho897 O925 2.524 . S
Ho897 O926 2.381 . S
Ho897 O927 2.669 . S
C898 O916 1.259 . S
C898 O917 1.268 . S
C899 Ho896 2.811 . S
C899 C900 1.488 . S
C899 O918 1.215 . S
C899 O919 1.289 . S
C900 C899 1.488 . S
C900 C901 1.348 . S
C900 C905 1.413 . S
C901 C900 1.348 . S
C901 C902 1.442 . S
C901 H928 0.930 . S
C902 C901 1.442 . S
C902 C903 1.381 . S
C902 H929 0.931 . S
C903 C902 1.381 . S
C903 C904 1.321 . S
C904 C903 1.321 . S
C904 C905 1.403 . S
C904 H930 0.934 . S
C905 C900 1.413 . S
C905 C904 1.403 . S
C905 H931 0.930 . S
C906 O920 1.275 . S
C906 O921 1.256 . S
C907 O922 1.259 . S
C907 O923 1.268 . S
C908 Ho897 2.811 . S
C908 C909 1.488 . S
C908 O924 1.215 . S
C908 O925 1.289 . S
C909 C908 1.488 . S
C909 C910 1.348 . S
C909 C914 1.413 . S
C910 C909 1.348 . S
C910 C911 1.442 . S
C910 H932 0.930 . S
C911 C910 1.442 . S
C911 C912 1.381 . S
C911 H933 0.931 . S
C912 C911 1.381 . S
C912 C913 1.321 . S
C913 C912 1.321 . S
C913 C914 1.403 . S
C913 H934 0.934 . S
C914 C909 1.413 . S
C914 C913 1.403 . S
C914 H935 0.930 . S
C915 O926 1.275 . S
C915 O927 1.256 . S
O916 Ho896 2.322 . S
O916 C898 1.259 . S
O917 Ho897 2.346 . S
O917 C898 1.268 . S
O918 Ho896 2.378 . S
O918 C899 1.215 . S
O919 Ho896 2.524 . S
O919 C899 1.289 . S
O920 Ho896 2.381 . S
O920 C906 1.275 . S
O921 Ho896 2.669 . S
O921 Ho897 2.305 . S
O921 C906 1.256 . S
O922 Ho897 2.322 . S
O922 C907 1.259 . S
O923 Ho896 2.346 . S
O923 C907 1.268 . S
O924 Ho897 2.378 . S
O924 C908 1.215 . S
O925 Ho897 2.524 . S
O925 C908 1.289 . S
O926 Ho897 2.381 . S
O926 C915 1.275 . S
O927 Ho896 2.305 . S
O927 Ho897 2.669 . S
O927 C915 1.256 . S
H928 C901 0.930 . S
H929 C902 0.931 . S
H930 C904 0.934 . S
H931 C905 0.930 . S
H932 C910 0.930 . S
H933 C911 0.931 . S
H934 C913 0.934 . S
H935 C914 0.930 . S
Ho936 C939 2.806 1_554 S
Ho936 O956 2.322 1_554 S
Ho936 O958 2.378 1_554 S
Ho936 O959 2.524 . S
Ho936 O960 2.381 1_554 S
Ho936 O961 2.669 1_554 S
Ho936 O963 2.346 . S
Ho936 O967 2.305 . S
Ho937 C948 2.811 1_455 S
Ho937 O957 2.346 . S
Ho937 O961 2.305 1_554 S
Ho937 O962 2.322 . S
Ho937 O964 2.378 1_455 S
Ho937 O965 2.524 1_455 S
Ho937 O966 2.381 . S
Ho937 O967 2.669 . S
C938 O956 1.259 1_554 S
C938 O957 1.268 . S
C939 Ho936 2.806 1_556 S
C939 C940 1.496 . S
C939 O958 1.249 . S
C939 O959 1.248 1_556 S
C940 C939 1.496 . S
C940 C941 1.348 1_556 S
C940 C945 1.413 . S
C941 C940 1.348 1_554 S
C941 C942 1.442 . S
C941 H968 0.930 . S
C942 C941 1.442 . S
C942 C943 1.381 1_554 S
C942 H969 0.931 . S
C943 C942 1.381 1_556 S
C943 C944 1.321 . S
C944 C943 1.321 . S
C944 C945 1.403 . S
C944 H970 0.934 . S
C945 C940 1.413 . S
C945 C944 1.403 . S
C945 H971 0.930 . S
C946 O960 1.275 . S
C946 O961 1.256 . S
C947 O962 1.259 . S
C947 O963 1.268 . S
C948 Ho937 2.811 1_655 S
C948 C949 1.488 . S
C948 O964 1.215 . S
C948 O965 1.289 . S
C949 C948 1.488 . S
C949 C950 1.348 . S
C949 C954 1.413 . S
C950 C949 1.348 . S
C950 C951 1.442 . S
C950 H972 0.930 . S
C951 C950 1.442 . S
C951 C952 1.381 . S
C951 H973 0.931 . S
C952 C951 1.381 . S
C952 C953 1.321 . S
C953 C952 1.321 . S
C953 C954 1.403 . S
C953 H974 0.934 . S
C954 C949 1.413 . S
C954 C953 1.403 . S
C954 H975 0.930 . S
C955 O966 1.275 . S
C955 O967 1.256 . S
O956 Ho936 2.322 1_556 S
O956 C938 1.259 1_556 S
O957 Ho937 2.346 . S
O957 C938 1.268 . S
O958 Ho936 2.378 1_556 S
O958 C939 1.249 . S
O959 Ho936 2.524 . S
O959 C939 1.248 1_554 S
O960 Ho936 2.381 1_556 S
O960 C946 1.275 . S
O961 Ho936 2.669 1_556 S
O961 Ho937 2.305 1_556 S
O961 C946 1.256 . S
O962 Ho937 2.322 . S
O962 C947 1.259 . S
O963 Ho936 2.346 . S
O963 C947 1.268 . S
O964 Ho937 2.378 1_655 S
O964 C948 1.215 . S
O965 Ho937 2.524 1_655 S
O965 C948 1.289 . S
O966 Ho937 2.381 . S
O966 C955 1.275 . S
O967 Ho936 2.305 . S
O967 Ho937 2.669 . S
O967 C955 1.256 . S
H968 C941 0.930 . S
H969 C942 0.931 . S
H970 C944 0.934 . S
H971 C945 0.930 . S
H972 C950 0.930 . S
H973 C951 0.931 . S
H974 C953 0.934 . S
H975 C954 0.930 . S
H976 C994 0.951 . S
H977 C996 0.951 . S
H978 C998 0.950 . S
H979 C999 0.950 . S
H980 C1001 0.950 . S
H981 C1004 0.950 . S
H982 C1005 0.950 . S
H983 C1007 0.950 . S
H984 C1008 0.950 . S
H985 C1009 0.951 . S
H986 C1011 0.951 . S
H987 C1013 0.950 . S
H988 C1014 0.950 . S
H989 C1016 0.950 . S
H990 C1019 0.950 . S
H991 C1020 0.950 . S
H992 C1022 0.950 . S
H993 C1023 0.950 . S
C994 H976 0.951 . S
C994 C995 1.366 . S
C994 C996 1.388 . S
C995 C994 1.366 . S
C995 C999 1.385 . S
C996 H977 0.951 . S
C996 C994 1.388 . S
C996 C997 1.366 . S
C997 C996 1.366 . S
C997 C998 1.414 . S
C997 C1000 1.499 . S
C998 H978 0.950 . S
C998 C997 1.414 . S
C998 C999 1.374 . S
C999 H979 0.950 . S
C999 C995 1.385 . S
C999 C998 1.374 . S
C1000 C997 1.499 . S
C1000 C1001 1.373 . S
C1000 C1002 1.389 . S
C1001 H980 0.950 . S
C1001 C1000 1.373 . S
C1001 C1017 1.377 . S
C1002 C1000 1.389 . S
C1002 C1003 1.524 1_455 S
C1002 C1016 1.377 . S
C1003 C1002 1.524 1_655 S
C1003 C1004 1.397 . S
C1003 C1008 1.363 . S
C1004 H981 0.950 . S
C1004 C1003 1.397 . S
C1004 C1005 1.334 . S
C1005 H982 0.950 . S
C1005 C1004 1.334 . S
C1005 C1006 1.287 . S
C1006 C1005 1.287 . S
C1006 C1007 1.524 . S
C1006 H1025 0.913 . S
C1007 H983 0.950 . S
C1007 C1006 1.524 . S
C1007 C1008 1.415 . S
C1008 H984 0.950 . S
C1008 C1003 1.363 . S
C1008 C1007 1.415 . S
C1009 H985 0.951 . S
C1009 C1010 1.366 . S
C1009 C1011 1.388 . S
C1010 C1009 1.366 . S
C1010 C1014 1.385 1_554 S
C1011 H986 0.951 . S
C1011 C1009 1.388 . S
C1011 C1012 1.366 1_554 S
C1012 C1011 1.366 1_556 S
C1012 C1013 1.414 . S
C1012 C1015 1.499 . S
C1013 H987 0.950 . S
C1013 C1012 1.414 . S
C1013 C1014 1.374 . S
C1014 H988 0.950 . S
C1014 C1010 1.385 1_556 S
C1014 C1013 1.374 . S
C1015 C1012 1.499 . S
C1015 C1016 1.373 . S
C1015 C1017 1.389 . S
C1016 H989 0.950 . S
C1016 C1002 1.377 . S
C1016 C1015 1.373 . S
C1017 C1001 1.377 . S
C1017 C1015 1.389 . S
C1017 C1018 1.526 1_556 S
C1018 C1017 1.526 1_554 S
C1018 C1019 1.397 1_554 S
C1018 C1023 1.361 . S
C1019 H990 0.950 . S
C1019 C1018 1.397 1_556 S
C1019 C1020 1.334 1_556 S
C1020 H991 0.950 . S
C1020 C1019 1.334 1_554 S
C1020 C1021 1.287 . S
C1021 C1020 1.287 . S
C1021 C1022 1.524 . S
C1021 H1024 0.999 . S
C1022 H992 0.950 . S
C1022 C1021 1.524 . S
C1022 C1023 1.415 . S
C1023 H993 0.950 . S
C1023 C1018 1.361 . S
C1023 C1022 1.415 . S
H1024 C1021 0.999 . S
H1025 C1006 0.913 . S
H1026 C1044 0.951 . S
H1027 C1046 0.951 . S
H1028 C1048 0.950 . S
H1029 C1049 0.950 . S
H1030 C1051 0.950 . S
H1031 C1054 0.950 . S
H1032 C1055 0.950 . S
H1033 C1057 0.950 . S
H1034 C1058 0.950 . S
H1035 C1059 0.951 . S
H1036 C1061 0.951 . S
H1037 C1063 0.950 . S
H1038 C1064 0.950 . S
H1039 C1066 0.950 . S
H1040 C1069 0.950 . S
H1041 C1070 0.950 . S
H1042 C1072 0.950 . S
H1043 C1073 0.950 . S
C1044 H1026 0.951 . S
C1044 C1045 1.366 . S
C1044 C1046 1.388 . S
C1045 C1044 1.366 . S
C1045 C1049 1.385 . S
C1046 H1027 0.951 . S
C1046 C1044 1.388 . S
C1046 C1047 1.366 . S
C1047 C1046 1.366 . S
C1047 C1048 1.414 . S
C1047 C1050 1.499 . S
C1048 H1028 0.950 . S
C1048 C1047 1.414 . S
C1048 C1049 1.374 . S
C1049 H1029 0.950 . S
C1049 C1045 1.385 . S
C1049 C1048 1.374 . S
C1050 C1047 1.499 . S
C1050 C1051 1.373 . S
C1050 C1052 1.389 . S
C1051 H1030 0.950 . S
C1051 C1050 1.373 . S
C1051 C1067 1.377 . S
C1052 C1050 1.389 . S
C1052 C1053 1.524 . S
C1052 C1066 1.377 . S
C1053 C1052 1.524 . S
C1053 C1054 1.397 . S
C1053 C1058 1.363 . S
C1054 H1031 0.950 . S
C1054 C1053 1.397 . S
C1054 C1055 1.334 . S
C1055 H1032 0.950 . S
C1055 C1054 1.334 . S
C1055 C1056 1.287 . S
C1056 C1055 1.287 . S
C1056 C1057 1.524 . S
C1056 H1075 0.913 . S
C1057 H1033 0.950 . S
C1057 C1056 1.524 . S
C1057 C1058 1.415 . S
C1058 H1034 0.950 . S
C1058 C1053 1.363 . S
C1058 C1057 1.415 . S
C1059 H1035 0.951 . S
C1059 C1060 1.366 . S
C1059 C1061 1.388 . S
C1060 C1059 1.366 . S
C1060 C1064 1.385 . S
C1061 H1036 0.951 . S
C1061 C1059 1.388 . S
C1061 C1062 1.366 . S
C1062 C1061 1.366 . S
C1062 C1063 1.414 . S
C1062 C1065 1.499 . S
C1063 H1037 0.950 . S
C1063 C1062 1.414 . S
C1063 C1064 1.374 . S
C1064 H1038 0.950 . S
C1064 C1060 1.385 . S
C1064 C1063 1.374 . S
C1065 C1062 1.499 . S
C1065 C1066 1.373 . S
C1065 C1067 1.389 . S
C1066 H1039 0.950 . S
C1066 C1052 1.377 . S
C1066 C1065 1.373 . S
C1067 C1051 1.377 . S
C1067 C1065 1.389 . S
C1067 C1068 1.524 . S
C1068 C1067 1.524 . S
C1068 C1069 1.397 . S
C1068 C1073 1.363 . S
C1069 H1040 0.950 . S
C1069 C1068 1.397 . S
C1069 C1070 1.334 . S
C1070 H1041 0.950 . S
C1070 C1069 1.334 . S
C1070 C1071 1.287 . S
C1071 C1070 1.287 . S
C1071 C1072 1.524 . S
C1071 H1074 0.999 . S
C1072 H1042 0.950 . S
C1072 C1071 1.524 . S
C1072 C1073 1.415 . S
C1073 H1043 0.950 . S
C1073 C1068 1.363 . S
C1073 C1072 1.415 . S
H1074 C1071 0.999 . S
H1075 C1056 0.913 . S
H1076 C1094 0.951 . S
H1077 C1096 0.951 . S
H1078 C1098 0.950 . S
H1079 C1099 0.950 . S
H1080 C1101 0.950 . S
H1081 C1104 0.950 . S
H1082 C1105 0.950 . S
H1083 C1107 0.950 . S
H1084 C1108 0.950 . S
H1085 C1109 0.951 . S
H1086 C1111 0.951 . S
H1087 C1113 0.950 . S
H1088 C1114 0.950 . S
H1089 C1116 0.950 . S
H1090 C1119 0.950 . S
H1091 C1120 0.950 . S
H1092 C1122 0.950 . S
H1093 C1123 0.950 . S
C1094 H1076 0.951 . S
C1094 C1095 1.366 . S
C1094 C1096 1.388 . S
C1095 C1094 1.366 . S
C1095 C1099 1.385 . S
C1096 H1077 0.951 . S
C1096 C1094 1.388 . S
C1096 C1097 1.366 . S
C1097 C1096 1.366 . S
C1097 C1098 1.414 . S
C1097 C1100 1.499 . S
C1098 H1078 0.950 . S
C1098 C1097 1.414 . S
C1098 C1099 1.374 . S
C1099 H1079 0.950 . S
C1099 C1095 1.385 . S
C1099 C1098 1.374 . S
C1100 C1097 1.499 . S
C1100 C1101 1.373 . S
C1100 C1102 1.389 . S
C1101 H1080 0.950 . S
C1101 C1100 1.373 . S
C1101 C1117 1.377 . S
C1102 C1100 1.389 . S
C1102 C1103 1.524 . S
C1102 C1116 1.377 . S
C1103 C1102 1.524 . S
C1103 C1104 1.397 . S
C1103 C1108 1.363 . S
C1104 H1081 0.950 . S
C1104 C1103 1.397 . S
C1104 C1105 1.334 . S
C1105 H1082 0.950 . S
C1105 C1104 1.334 . S
C1105 C1106 1.287 . S
C1106 C1105 1.287 . S
C1106 C1107 1.524 . S
C1106 H1125 0.913 . S
C1107 H1083 0.950 . S
C1107 C1106 1.524 . S
C1107 C1108 1.415 . S
C1108 H1084 0.950 . S
C1108 C1103 1.363 . S
C1108 C1107 1.415 . S
C1109 H1085 0.951 . S
C1109 C1110 1.366 . S
C1109 C1111 1.388 . S
C1110 C1109 1.366 . S
C1110 C1114 1.385 . S
C1111 H1086 0.951 . S
C1111 C1109 1.388 . S
C1111 C1112 1.366 . S
C1112 C1111 1.366 . S
C1112 C1113 1.414 . S
C1112 C1115 1.499 . S
C1113 H1087 0.950 . S
C1113 C1112 1.414 . S
C1113 C1114 1.374 . S
C1114 H1088 0.950 . S
C1114 C1110 1.385 . S
C1114 C1113 1.374 . S
C1115 C1112 1.499 . S
C1115 C1116 1.373 . S
C1115 C1117 1.389 . S
C1116 H1089 0.950 . S
C1116 C1102 1.377 . S
C1116 C1115 1.373 . S
C1117 C1101 1.377 . S
C1117 C1115 1.389 . S
C1117 C1118 1.524 . S
C1118 C1117 1.524 . S
C1118 C1119 1.397 . S
C1118 C1123 1.363 . S
C1119 H1090 0.950 . S
C1119 C1118 1.397 . S
C1119 C1120 1.334 . S
C1120 H1091 0.950 . S
C1120 C1119 1.334 . S
C1120 C1121 1.287 . S
C1121 C1120 1.287 . S
C1121 C1122 1.524 . S
C1121 H1124 0.999 . S
C1122 H1092 0.950 . S
C1122 C1121 1.524 . S
C1122 C1123 1.415 . S
C1123 H1093 0.950 . S
C1123 C1118 1.363 . S
C1123 C1122 1.415 . S
H1124 C1121 0.999 . S
H1125 C1106 0.913 . S
H1126 C1144 0.951 . S
H1127 C1146 0.951 . S
H1128 C1148 0.950 . S
H1129 C1149 0.950 . S
H1130 C1151 0.950 . S
H1131 C1154 0.950 . S
H1132 C1155 0.950 . S
H1133 C1157 0.950 . S
H1134 C1158 0.950 . S
H1135 C1159 0.951 . S
H1136 C1161 0.951 . S
H1137 C1163 0.950 . S
H1138 C1164 0.950 . S
H1139 C1166 0.950 . S
H1140 C1169 0.950 . S
H1141 C1170 0.950 . S
H1142 C1172 0.950 . S
H1143 C1173 0.950 . S
C1144 H1126 0.951 . S
C1144 C1145 1.366 . S
C1144 C1146 1.388 . S
C1145 C1144 1.366 . S
C1145 C1149 1.385 . S
C1146 H1127 0.951 . S
C1146 C1144 1.388 . S
C1146 C1147 1.366 . S
C1147 C1146 1.366 . S
C1147 C1148 1.414 . S
C1147 C1150 1.499 . S
C1148 H1128 0.950 . S
C1148 C1147 1.414 . S
C1148 C1149 1.374 . S
C1149 H1129 0.950 . S
C1149 C1145 1.385 . S
C1149 C1148 1.374 . S
C1150 C1147 1.499 . S
C1150 C1151 1.373 . S
C1150 C1152 1.389 . S
C1151 H1130 0.950 . S
C1151 C1150 1.373 . S
C1151 C1167 1.377 . S
C1152 C1150 1.389 . S
C1152 C1153 1.524 . S
C1152 C1166 1.377 . S
C1153 C1152 1.524 . S
C1153 C1154 1.397 . S
C1153 C1158 1.363 . S
C1154 H1131 0.950 . S
C1154 C1153 1.397 . S
C1154 C1155 1.334 . S
C1155 H1132 0.950 . S
C1155 C1154 1.334 . S
C1155 C1156 1.287 . S
C1156 C1155 1.287 . S
C1156 C1157 1.524 . S
C1156 H1175 0.913 . S
C1157 H1133 0.950 . S
C1157 C1156 1.524 . S
C1157 C1158 1.415 . S
C1158 H1134 0.950 . S
C1158 C1153 1.363 . S
C1158 C1157 1.415 . S
C1159 H1135 0.951 . S
C1159 C1160 1.366 . S
C1159 C1161 1.388 . S
C1160 C1159 1.366 . S
C1160 C1164 1.385 . S
C1161 H1136 0.951 . S
C1161 C1159 1.388 . S
C1161 C1162 1.366 . S
C1162 C1161 1.366 . S
C1162 C1163 1.414 . S
C1162 C1165 1.499 . S
C1163 H1137 0.950 . S
C1163 C1162 1.414 . S
C1163 C1164 1.374 . S
C1164 H1138 0.950 . S
C1164 C1160 1.385 . S
C1164 C1163 1.374 . S
C1165 C1162 1.499 . S
C1165 C1166 1.373 . S
C1165 C1167 1.389 . S
C1166 H1139 0.950 . S
C1166 C1152 1.377 . S
C1166 C1165 1.373 . S
C1167 C1151 1.377 . S
C1167 C1165 1.389 . S
C1167 C1168 1.524 . S
C1168 C1167 1.524 . S
C1168 C1169 1.397 . S
C1168 C1173 1.363 . S
C1169 H1140 0.950 . S
C1169 C1168 1.397 . S
C1169 C1170 1.334 . S
C1170 H1141 0.950 . S
C1170 C1169 1.334 . S
C1170 C1171 1.287 . S
C1171 C1170 1.287 . S
C1171 C1172 1.524 . S
C1171 H1174 0.999 . S
C1172 H1142 0.950 . S
C1172 C1171 1.524 . S
C1172 C1173 1.415 . S
C1173 H1143 0.950 . S
C1173 C1168 1.363 . S
C1173 C1172 1.415 . S
H1174 C1171 0.999 . S
H1175 C1156 0.913 . S
H1176 C1194 0.951 . S
H1177 C1196 0.918 1_655 S
H1178 C1198 0.950 . S
H1179 C1199 0.950 . S
H1180 C1201 0.950 . S
H1181 C1204 0.950 . S
H1182 C1205 0.950 . S
H1183 C1207 0.950 1_655 S
H1184 C1208 0.927 1_655 S
H1185 C1209 0.951 . S
H1186 C1211 0.951 . S
H1187 C1213 0.950 . S
H1188 C1214 0.950 . S
H1189 C1216 0.950 . S
H1190 C1219 0.950 . S
H1191 C1220 0.950 . S
H1192 C1222 0.950 . S
H1193 C1223 0.950 . S
C1194 H1176 0.951 . S
C1194 C1195 1.366 1_655 S
C1194 C1196 1.379 1_655 S
C1195 C1194 1.366 1_455 S
C1195 C1199 1.385 . S
C1196 H1177 0.918 1_455 S
C1196 C1194 1.379 1_455 S
C1196 C1197 1.410 . S
C1197 C1196 1.410 . S
C1197 C1198 1.414 . S
C1197 C1200 1.499 . S
C1198 H1178 0.950 . S
C1198 C1197 1.414 . S
C1198 C1199 1.374 . S
C1199 H1179 0.950 . S
C1199 C1195 1.385 . S
C1199 C1198 1.374 . S
C1200 C1197 1.499 . S
C1200 C1201 1.373 . S
C1200 C1202 1.389 . S
C1201 H1180 0.950 . S
C1201 C1200 1.373 . S
C1201 C1217 1.377 . S
C1202 C1200 1.389 . S
C1202 C1203 1.524 . S
C1202 C1216 1.377 . S
C1203 C1202 1.524 . S
C1203 C1204 1.397 . S
C1203 C1208 1.363 . S
C1204 H1181 0.950 . S
C1204 C1203 1.397 . S
C1204 C1205 1.334 . S
C1205 H1182 0.950 . S
C1205 C1204 1.334 . S
C1205 C1206 1.287 . S
C1206 C1205 1.287 . S
C1206 C1207 1.524 . S
C1206 H1225 0.913 . S
C1207 H1183 0.950 1_455 S
C1207 C1206 1.524 . S
C1207 C1208 1.415 . S
C1208 H1184 0.927 1_455 S
C1208 C1203 1.363 . S
C1208 C1207 1.415 . S
C1209 H1185 0.951 . S
C1209 C1210 1.366 . S
C1209 C1211 1.388 . S
C1210 C1209 1.366 . S
C1210 C1214 1.385 . S
C1211 H1186 0.951 . S
C1211 C1209 1.388 . S
C1211 C1212 1.366 . S
C1212 C1211 1.366 . S
C1212 C1213 1.414 . S
C1212 C1215 1.499 . S
C1213 H1187 0.950 . S
C1213 C1212 1.414 . S
C1213 C1214 1.374 . S
C1214 H1188 0.950 . S
C1214 C1210 1.385 . S
C1214 C1213 1.374 . S
C1215 C1212 1.499 . S
C1215 C1216 1.373 . S
C1215 C1217 1.389 . S
C1216 H1189 0.950 . S
C1216 C1202 1.377 . S
C1216 C1215 1.373 . S
C1217 C1201 1.377 . S
C1217 C1215 1.389 . S
C1217 C1218 1.524 . S
C1218 C1217 1.524 . S
C1218 C1219 1.397 . S
C1218 C1223 1.363 . S
C1219 H1190 0.950 . S
C1219 C1218 1.397 . S
C1219 C1220 1.334 . S
C1220 H1191 0.950 . S
C1220 C1219 1.334 . S
C1220 C1221 1.287 . S
C1221 C1220 1.287 . S
C1221 C1222 1.524 . S
C1221 H1224 0.999 . S
C1222 H1192 0.950 . S
C1222 C1221 1.524 . S
C1222 C1223 1.415 . S
C1223 H1193 0.950 . S
C1223 C1218 1.363 . S
C1223 C1222 1.415 . S
H1224 C1221 0.999 . S
H1225 C1206 0.913 . S
H1226 C1244 0.951 . S
H1227 C1246 0.951 . S
H1228 C1248 0.950 . S
H1229 C1249 0.950 . S
H1230 C1251 0.950 . S
H1231 C1254 0.950 . S
H1232 C1255 0.950 . S
H1233 C1257 0.950 . S
H1234 C1258 0.950 . S
H1235 C1259 0.951 . S
H1236 C1261 0.951 . S
H1237 C1263 0.950 . S
H1238 C1264 0.950 . S
H1239 C1266 0.950 . S
H1240 C1269 0.950 . S
H1241 C1270 0.950 . S
H1242 C1272 0.950 . S
H1243 C1273 0.950 . S
C1244 H1226 0.951 . S
C1244 C1245 1.366 . S
C1244 C1246 1.388 . S
C1245 C1244 1.366 . S
C1245 C1249 1.385 . S
C1246 H1227 0.951 . S
C1246 C1244 1.388 . S
C1246 C1247 1.366 . S
C1247 C1246 1.366 . S
C1247 C1248 1.414 . S
C1247 C1250 1.499 . S
C1248 H1228 0.950 . S
C1248 C1247 1.414 . S
C1248 C1249 1.374 . S
C1249 H1229 0.950 . S
C1249 C1245 1.385 . S
C1249 C1248 1.374 . S
C1250 C1247 1.499 . S
C1250 C1251 1.373 . S
C1250 C1252 1.389 . S
C1251 H1230 0.950 . S
C1251 C1250 1.373 . S
C1251 C1267 1.377 . S
C1252 C1250 1.389 . S
C1252 C1253 1.524 . S
C1252 C1266 1.377 . S
C1253 C1252 1.524 . S
C1253 C1254 1.397 . S
C1253 C1258 1.363 . S
C1254 H1231 0.950 . S
C1254 C1253 1.397 . S
C1254 C1255 1.334 . S
C1255 H1232 0.950 . S
C1255 C1254 1.334 . S
C1255 C1256 1.287 . S
C1256 C1255 1.287 . S
C1256 C1257 1.524 . S
C1256 H1275 0.913 . S
C1257 H1233 0.950 . S
C1257 C1256 1.524 . S
C1257 C1258 1.415 . S
C1258 H1234 0.950 . S
C1258 C1253 1.363 . S
C1258 C1257 1.415 . S
C1259 H1235 0.951 . S
C1259 C1260 1.366 . S
C1259 C1261 1.388 . S
C1260 C1259 1.366 . S
C1260 C1264 1.385 . S
C1261 H1236 0.951 . S
C1261 C1259 1.388 . S
C1261 C1262 1.366 . S
C1262 C1261 1.366 . S
C1262 C1263 1.414 . S
C1262 C1265 1.499 . S
C1263 H1237 0.950 . S
C1263 C1262 1.414 . S
C1263 C1264 1.374 . S
C1264 H1238 0.950 . S
C1264 C1260 1.385 . S
C1264 C1263 1.374 . S
C1265 C1262 1.499 . S
C1265 C1266 1.373 . S
C1265 C1267 1.389 . S
C1266 H1239 0.950 . S
C1266 C1252 1.377 . S
C1266 C1265 1.373 . S
C1267 C1251 1.377 . S
C1267 C1265 1.389 . S
C1267 C1268 1.524 . S
C1268 C1267 1.524 . S
C1268 C1269 1.397 . S
C1268 C1273 1.363 . S
C1269 H1240 0.950 . S
C1269 C1268 1.397 . S
C1269 C1270 1.334 . S
C1270 H1241 0.950 . S
C1270 C1269 1.334 . S
C1270 C1271 1.287 . S
C1271 C1270 1.287 . S
C1271 C1272 1.524 . S
C1271 H1274 0.999 . S
C1272 H1242 0.950 . S
C1272 C1271 1.524 . S
C1272 C1273 1.415 . S
C1273 H1243 0.950 . S
C1273 C1268 1.363 . S
C1273 C1272 1.415 . S
H1274 C1271 0.999 . S
H1275 C1256 0.913 . S
H1276 C1294 0.951 . S
H1277 C1296 0.951 . S
H1278 C1298 0.950 . S
H1279 C1299 0.950 . S
H1280 C1301 0.950 . S
H1281 C1304 0.950 . S
H1282 C1305 0.950 . S
H1283 C1307 0.950 . S
H1284 C1308 0.950 . S
H1285 C1309 0.951 . S
H1286 C1311 0.951 . S
H1287 C1313 0.950 . S
H1288 C1314 0.950 . S
H1289 C1316 0.950 . S
H1290 C1319 0.950 . S
H1291 C1320 0.950 . S
H1292 C1322 0.950 . S
H1293 C1323 0.950 . S
C1294 H1276 0.951 . S
C1294 C1295 1.366 . S
C1294 C1296 1.388 . S
C1295 C1294 1.366 . S
C1295 C1299 1.385 . S
C1296 H1277 0.951 . S
C1296 C1294 1.388 . S
C1296 C1297 1.366 . S
C1297 C1296 1.366 . S
C1297 C1298 1.414 . S
C1297 C1300 1.499 . S
C1298 H1278 0.950 . S
C1298 C1297 1.414 . S
C1298 C1299 1.374 . S
C1299 H1279 0.950 . S
C1299 C1295 1.385 . S
C1299 C1298 1.374 . S
C1300 C1297 1.499 . S
C1300 C1301 1.373 . S
C1300 C1302 1.389 . S
C1301 H1280 0.950 . S
C1301 C1300 1.373 . S
C1301 C1317 1.377 . S
C1302 C1300 1.389 . S
C1302 C1303 1.524 . S
C1302 C1316 1.377 . S
C1303 C1302 1.524 . S
C1303 C1304 1.397 . S
C1303 C1308 1.363 . S
C1304 H1281 0.950 . S
C1304 C1303 1.397 . S
C1304 C1305 1.334 . S
C1305 H1282 0.950 . S
C1305 C1304 1.334 . S
C1305 C1306 1.287 . S
C1306 C1305 1.287 . S
C1306 C1307 1.524 . S
C1306 H1325 0.913 . S
C1307 H1283 0.950 . S
C1307 C1306 1.524 . S
C1307 C1308 1.415 . S
C1308 H1284 0.950 . S
C1308 C1303 1.363 . S
C1308 C1307 1.415 . S
C1309 H1285 0.951 . S
C1309 C1310 1.366 . S
C1309 C1311 1.388 . S
C1310 C1309 1.366 . S
C1310 C1314 1.385 . S
C1311 H1286 0.951 . S
C1311 C1309 1.388 . S
C1311 C1312 1.366 . S
C1312 C1311 1.366 . S
C1312 C1313 1.414 . S
C1312 C1315 1.499 . S
C1313 H1287 0.950 . S
C1313 C1312 1.414 . S
C1313 C1314 1.374 . S
C1314 H1288 0.950 . S
C1314 C1310 1.385 . S
C1314 C1313 1.374 . S
C1315 C1312 1.499 . S
C1315 C1316 1.373 . S
C1315 C1317 1.389 . S
C1316 H1289 0.950 . S
C1316 C1302 1.377 . S
C1316 C1315 1.373 . S
C1317 C1301 1.377 . S
C1317 C1315 1.389 . S
C1317 C1318 1.524 . S
C1318 C1317 1.524 . S
C1318 C1319 1.397 . S
C1318 C1323 1.363 . S
C1319 H1290 0.950 . S
C1319 C1318 1.397 . S
C1319 C1320 1.334 . S
C1320 H1291 0.950 . S
C1320 C1319 1.334 . S
C1320 C1321 1.287 . S
C1321 C1320 1.287 . S
C1321 C1322 1.524 . S
C1321 H1324 0.999 . S
C1322 H1292 0.950 . S
C1322 C1321 1.524 . S
C1322 C1323 1.415 . S
C1323 H1293 0.950 . S
C1323 C1318 1.363 . S
C1323 C1322 1.415 . S
H1324 C1321 0.999 . S
H1325 C1306 0.913 . S
H1326 C1344 0.951 . S
H1327 C1346 0.951 . S
H1328 C1348 0.950 . S
H1329 C1349 0.950 . S
H1330 C1351 0.950 . S
H1331 C1354 0.950 . S
H1332 C1355 0.950 . S
H1333 C1357 0.950 . S
H1334 C1358 0.950 . S
H1335 C1359 0.951 . S
H1336 C1361 0.951 . S
H1337 C1363 0.950 . S
H1338 C1364 0.950 . S
H1339 C1366 0.950 . S
H1340 C1369 0.950 . S
H1341 C1370 0.950 . S
H1342 C1372 0.950 . S
H1343 C1373 0.950 . S
C1344 H1326 0.951 . S
C1344 C1345 1.366 . S
C1344 C1346 1.388 . S
C1345 C1344 1.366 . S
C1345 C1349 1.385 . S
C1346 H1327 0.951 . S
C1346 C1344 1.388 . S
C1346 C1347 1.366 . S
C1347 C1346 1.366 . S
C1347 C1348 1.414 . S
C1347 C1350 1.499 . S
C1348 H1328 0.950 . S
C1348 C1347 1.414 . S
C1348 C1349 1.374 . S
C1349 H1329 0.950 . S
C1349 C1345 1.385 . S
C1349 C1348 1.374 . S
C1350 C1347 1.499 . S
C1350 C1351 1.373 . S
C1350 C1352 1.389 . S
C1351 H1330 0.950 . S
C1351 C1350 1.373 . S
C1351 C1367 1.377 . S
C1352 C1350 1.389 . S
C1352 C1353 1.524 . S
C1352 C1366 1.377 . S
C1353 C1352 1.524 . S
C1353 C1354 1.397 . S
C1353 C1358 1.363 . S
C1354 H1331 0.950 . S
C1354 C1353 1.397 . S
C1354 C1355 1.334 . S
C1355 H1332 0.950 . S
C1355 C1354 1.334 . S
C1355 C1356 1.287 . S
C1356 C1355 1.287 . S
C1356 C1357 1.524 . S
C1356 H1375 0.913 . S
C1357 H1333 0.950 . S
C1357 C1356 1.524 . S
C1357 C1358 1.415 . S
C1358 H1334 0.950 . S
C1358 C1353 1.363 . S
C1358 C1357 1.415 . S
C1359 H1335 0.951 . S
C1359 C1360 1.366 . S
C1359 C1361 1.388 . S
C1360 C1359 1.366 . S
C1360 C1364 1.385 . S
C1361 H1336 0.951 . S
C1361 C1359 1.388 . S
C1361 C1362 1.366 . S
C1362 C1361 1.366 . S
C1362 C1363 1.414 . S
C1362 C1365 1.499 . S
C1363 H1337 0.950 . S
C1363 C1362 1.414 . S
C1363 C1364 1.374 . S
C1364 H1338 0.950 . S
C1364 C1360 1.385 . S
C1364 C1363 1.374 . S
C1365 C1362 1.499 . S
C1365 C1366 1.373 . S
C1365 C1367 1.389 . S
C1366 H1339 0.950 . S
C1366 C1352 1.377 . S
C1366 C1365 1.373 . S
C1367 C1351 1.377 . S
C1367 C1365 1.389 . S
C1367 C1368 1.524 . S
C1368 C1367 1.524 . S
C1368 C1369 1.397 . S
C1368 C1373 1.363 . S
C1369 H1340 0.950 . S
C1369 C1368 1.397 . S
C1369 C1370 1.334 . S
C1370 H1341 0.950 . S
C1370 C1369 1.334 . S
C1370 C1371 1.287 . S
C1371 C1370 1.287 . S
C1371 C1372 1.524 . S
C1371 H1374 0.999 . S
C1372 H1342 0.950 . S
C1372 C1371 1.524 . S
C1372 C1373 1.415 . S
C1373 H1343 0.950 . S
C1373 C1368 1.363 . S
C1373 C1372 1.415 . S
H1374 C1371 0.999 . S
H1375 C1356 0.913 . S
H1376 C1394 0.951 . S
H1377 C1396 0.951 . S
H1378 C1398 0.950 . S
H1379 C1399 0.950 . S
H1380 C1401 0.950 . S
H1381 C1404 0.950 . S
H1382 C1405 0.939 1_565 S
H1383 C1407 0.950 . S
H1384 C1408 0.950 . S
H1385 C1409 0.951 . S
H1386 C1411 0.951 . S
H1387 C1413 0.950 1_655 S
H1388 C1414 0.950 . S
H1389 C1416 0.950 . S
H1390 C1419 0.950 . S
H1391 C1420 0.950 . S
H1392 C1422 0.950 . S
H1393 C1423 0.950 . S
C1394 H1376 0.951 . S
C1394 C1395 1.366 . S
C1394 C1396 1.388 . S
C1395 C1394 1.366 . S
C1395 C1399 1.385 . S
C1396 H1377 0.951 . S
C1396 C1394 1.388 . S
C1396 C1397 1.366 . S
C1397 C1396 1.366 . S
C1397 C1398 1.414 . S
C1397 C1400 1.499 . S
C1398 H1378 0.950 . S
C1398 C1397 1.414 . S
C1398 C1399 1.374 . S
C1399 H1379 0.950 . S
C1399 C1395 1.385 . S
C1399 C1398 1.374 . S
C1400 C1397 1.499 . S
C1400 C1401 1.373 1_655 S
C1400 C1402 1.389 . S
C1401 H1380 0.950 . S
C1401 C1400 1.373 1_455 S
C1401 C1417 1.377 . S
C1402 C1400 1.389 . S
C1402 C1403 1.524 . S
C1402 C1416 1.377 . S
C1403 C1402 1.524 . S
C1403 C1404 1.397 . S
C1403 C1408 1.363 . S
C1404 H1381 0.950 . S
C1404 C1403 1.397 . S
C1404 C1405 1.334 . S
C1405 H1382 0.939 1_545 S
C1405 C1404 1.334 . S
C1405 C1406 1.287 . S
C1406 C1405 1.287 . S
C1406 C1407 1.524 . S
C1406 H1425 0.913 . S
C1407 H1383 0.950 . S
C1407 C1406 1.524 . S
C1407 C1408 1.415 . S
C1408 H1384 0.950 . S
C1408 C1403 1.363 . S
C1408 C1407 1.415 . S
C1409 H1385 0.951 . S
C1409 C1410 1.366 . S
C1409 C1411 1.388 . S
C1410 C1409 1.366 . S
C1410 C1414 1.385 . S
C1411 H1386 0.951 . S
C1411 C1409 1.388 . S
C1411 C1412 1.366 . S
C1412 C1411 1.366 . S
C1412 C1413 1.414 . S
C1412 C1415 1.499 . S
C1413 H1387 0.950 1_455 S
C1413 C1412 1.414 . S
C1413 C1414 1.374 . S
C1414 H1388 0.950 . S
C1414 C1410 1.385 . S
C1414 C1413 1.374 . S
C1415 C1412 1.499 . S
C1415 C1416 1.373 1_455 S
C1415 C1417 1.389 . S
C1416 H1389 0.950 . S
C1416 C1402 1.377 . S
C1416 C1415 1.373 1_655 S
C1417 C1401 1.377 . S
C1417 C1415 1.389 . S
C1417 C1418 1.524 . S
C1418 C1417 1.524 . S
C1418 C1419 1.397 . S
C1418 C1423 1.363 . S
C1419 H1390 0.950 . S
C1419 C1418 1.397 . S
C1419 C1420 1.334 . S
C1420 H1391 0.950 . S
C1420 C1419 1.334 . S
C1420 C1421 1.287 . S
C1421 C1420 1.287 . S
C1421 C1422 1.524 . S
C1421 H1424 0.999 . S
C1422 H1392 0.950 . S
C1422 C1421 1.524 . S
C1422 C1423 1.415 . S
C1423 H1393 0.950 . S
C1423 C1418 1.363 . S
C1423 C1422 1.415 . S
H1424 C1421 0.999 . S
H1425 C1406 0.913 . S
H1426 C1444 0.951 . S
H1427 C1446 0.951 . S
H1428 C1448 0.950 . S
H1429 C1449 0.950 . S
H1430 C1451 0.950 . S
H1431 C1454 0.950 . S
H1432 C1455 0.950 . S
H1433 C1457 0.950 . S
H1434 C1458 0.950 . S
H1435 C1459 0.951 . S
H1436 C1461 0.951 . S
H1437 C1463 0.950 . S
H1438 C1464 0.950 . S
H1439 C1466 0.950 . S
H1440 C1469 0.950 . S
H1441 C1470 0.950 . S
H1442 C1472 0.950 . S
H1443 C1473 0.950 . S
C1444 H1426 0.951 . S
C1444 C1445 1.366 . S
C1444 C1446 1.388 . S
C1445 C1444 1.366 . S
C1445 C1449 1.385 . S
C1446 H1427 0.951 . S
C1446 C1444 1.388 . S
C1446 C1447 1.366 . S
C1447 C1446 1.366 . S
C1447 C1448 1.414 . S
C1447 C1450 1.499 . S
C1448 H1428 0.950 . S
C1448 C1447 1.414 . S
C1448 C1449 1.374 . S
C1449 H1429 0.950 . S
C1449 C1445 1.385 . S
C1449 C1448 1.374 . S
C1450 C1447 1.499 . S
C1450 C1451 1.373 . S
C1450 C1452 1.389 . S
C1451 H1430 0.950 . S
C1451 C1450 1.373 . S
C1451 C1467 1.377 . S
C1452 C1450 1.389 . S
C1452 C1453 1.524 . S
C1452 C1466 1.377 . S
C1453 C1452 1.524 . S
C1453 C1454 1.397 . S
C1453 C1458 1.363 . S
C1454 H1431 0.950 . S
C1454 C1453 1.397 . S
C1454 C1455 1.334 . S
C1455 H1432 0.950 . S
C1455 C1454 1.334 . S
C1455 C1456 1.287 . S
C1456 C1455 1.287 . S
C1456 C1457 1.524 . S
C1456 H1475 0.913 . S
C1457 H1433 0.950 . S
C1457 C1456 1.524 . S
C1457 C1458 1.415 . S
C1458 H1434 0.950 . S
C1458 C1453 1.363 . S
C1458 C1457 1.415 . S
C1459 H1435 0.951 . S
C1459 C1460 1.366 . S
C1459 C1461 1.388 . S
C1460 C1459 1.366 . S
C1460 C1464 1.385 . S
C1461 H1436 0.951 . S
C1461 C1459 1.388 . S
C1461 C1462 1.366 . S
C1462 C1461 1.366 . S
C1462 C1463 1.414 . S
C1462 C1465 1.499 . S
C1463 H1437 0.950 . S
C1463 C1462 1.414 . S
C1463 C1464 1.374 . S
C1464 H1438 0.950 . S
C1464 C1460 1.385 . S
C1464 C1463 1.374 . S
C1465 C1462 1.499 . S
C1465 C1466 1.373 . S
C1465 C1467 1.389 . S
C1466 H1439 0.950 . S
C1466 C1452 1.377 . S
C1466 C1465 1.373 . S
C1467 C1451 1.377 . S
C1467 C1465 1.389 . S
C1467 C1468 1.524 . S
C1468 C1467 1.524 . S
C1468 C1469 1.397 . S
C1468 C1473 1.363 . S
C1469 H1440 0.950 . S
C1469 C1468 1.397 . S
C1469 C1470 1.334 . S
C1470 H1441 0.950 . S
C1470 C1469 1.334 . S
C1470 C1471 1.287 . S
C1471 C1470 1.287 . S
C1471 C1472 1.524 . S
C1471 H1474 0.999 . S
C1472 H1442 0.950 . S
C1472 C1471 1.524 . S
C1472 C1473 1.415 . S
C1473 H1443 0.950 . S
C1473 C1468 1.363 . S
C1473 C1472 1.415 . S
H1474 C1471 0.999 . S
H1475 C1456 0.913 . S
H1476 C1494 0.951 . S
H1477 C1496 0.951 . S
H1478 C1498 0.950 . S
H1479 C1499 0.950 . S
H1480 C1501 0.950 . S
H1481 C1504 0.950 1_545 S
H1482 C1505 0.950 . S
H1483 C1507 0.950 . S
H1484 C1508 0.950 . S
H1485 C1509 0.951 . S
H1486 C1511 0.951 . S
H1487 C1513 0.950 . S
H1488 C1514 0.950 . S
H1489 C1516 0.950 . S
H1490 C1519 0.950 . S
H1491 C1520 0.950 . S
H1492 C1522 0.950 . S
H1493 C1523 0.950 . S
C1494 H1476 0.951 . S
C1494 C1495 1.366 . S
C1494 C1496 1.388 . S
C1495 C1494 1.366 . S
C1495 C1499 1.385 . S
C1496 H1477 0.951 . S
C1496 C1494 1.388 . S
C1496 C1497 1.366 . S
C1497 C1496 1.366 . S
C1497 C1498 1.414 . S
C1497 C1500 1.499 . S
C1498 H1478 0.950 . S
C1498 C1497 1.414 . S
C1498 C1499 1.374 . S
C1499 H1479 0.950 . S
C1499 C1495 1.385 . S
C1499 C1498 1.374 . S
C1500 C1497 1.499 . S
C1500 C1501 1.373 . S
C1500 C1502 1.389 . S
C1501 H1480 0.950 . S
C1501 C1500 1.373 . S
C1501 C1517 1.377 . S
C1502 C1500 1.389 . S
C1502 C1503 1.524 . S
C1502 C1516 1.377 . S
C1503 C1502 1.524 . S
C1503 C1504 1.397 1_545 S
C1503 C1508 1.363 1_545 S
C1504 H1481 0.950 1_565 S
C1504 C1503 1.397 1_565 S
C1504 C1505 1.334 . S
C1505 H1482 0.950 . S
C1505 C1504 1.334 . S
C1505 C1506 1.287 . S
C1506 C1505 1.287 . S
C1506 C1507 1.524 . S
C1506 H1525 0.913 . S
C1507 H1483 0.950 . S
C1507 C1506 1.524 . S
C1507 C1508 1.415 . S
C1508 H1484 0.950 . S
C1508 C1503 1.363 1_565 S
C1508 C1507 1.415 . S
C1509 H1485 0.951 . S
C1509 C1510 1.366 . S
C1509 C1511 1.388 . S
C1510 C1509 1.366 . S
C1510 C1514 1.385 . S
C1511 H1486 0.951 . S
C1511 C1509 1.388 . S
C1511 C1512 1.366 . S
C1512 C1511 1.366 . S
C1512 C1513 1.414 . S
C1512 C1515 1.499 . S
C1513 H1487 0.950 . S
C1513 C1512 1.414 . S
C1513 C1514 1.374 . S
C1514 H1488 0.950 . S
C1514 C1510 1.385 . S
C1514 C1513 1.374 . S
C1515 C1512 1.499 . S
C1515 C1516 1.373 . S
C1515 C1517 1.389 . S
C1516 H1489 0.950 . S
C1516 C1502 1.377 . S
C1516 C1515 1.373 . S
C1517 C1501 1.377 . S
C1517 C1515 1.389 . S
C1517 C1518 1.524 . S
C1518 C1517 1.524 . S
C1518 C1519 1.397 . S
C1518 C1523 1.363 . S
C1519 H1490 0.950 . S
C1519 C1518 1.397 . S
C1519 C1520 1.334 . S
C1520 H1491 0.950 . S
C1520 C1519 1.334 . S
C1520 C1521 1.287 . S
C1521 C1520 1.287 . S
C1521 C1522 1.524 . S
C1521 H1524 0.999 . S
C1522 H1492 0.950 . S
C1522 C1521 1.524 . S
C1522 C1523 1.415 . S
C1523 H1493 0.950 . S
C1523 C1518 1.363 . S
C1523 C1522 1.415 . S
H1524 C1521 0.999 . S
H1525 C1506 0.913 . S
H1526 C1544 0.951 . S
H1527 C1546 0.951 . S
H1528 C1548 0.950 . S
H1529 C1549 0.950 . S
H1530 C1551 0.950 . S
H1531 C1554 0.950 . S
H1532 C1555 0.950 . S
H1533 C1557 0.950 . S
H1534 C1558 0.950 . S
H1535 C1559 0.951 . S
H1536 C1561 0.951 . S
H1537 C1563 0.950 . S
H1538 C1564 0.950 . S
H1539 C1566 0.950 . S
H1540 C1569 0.950 . S
H1541 C1570 0.950 . S
H1542 C1572 0.950 . S
H1543 C1573 0.950 . S
C1544 H1526 0.951 . S
C1544 C1545 1.366 . S
C1544 C1546 1.388 . S
C1545 C1544 1.366 . S
C1545 C1549 1.385 . S
C1546 H1527 0.951 . S
C1546 C1544 1.388 . S
C1546 C1547 1.366 . S
C1547 C1546 1.366 . S
C1547 C1548 1.414 . S
C1547 C1550 1.499 . S
C1548 H1528 0.950 . S
C1548 C1547 1.414 . S
C1548 C1549 1.374 . S
C1549 H1529 0.950 . S
C1549 C1545 1.385 . S
C1549 C1548 1.374 . S
C1550 C1547 1.499 . S
C1550 C1551 1.373 . S
C1550 C1552 1.389 . S
C1551 H1530 0.950 . S
C1551 C1550 1.373 . S
C1551 C1567 1.377 . S
C1552 C1550 1.389 . S
C1552 C1553 1.524 . S
C1552 C1566 1.377 . S
C1553 C1552 1.524 . S
C1553 C1554 1.397 . S
C1553 C1558 1.363 . S
C1554 H1531 0.950 . S
C1554 C1553 1.397 . S
C1554 C1555 1.334 . S
C1555 H1532 0.950 . S
C1555 C1554 1.334 . S
C1555 C1556 1.287 . S
C1556 C1555 1.287 . S
C1556 C1557 1.524 . S
C1556 H1575 0.913 . S
C1557 H1533 0.950 . S
C1557 C1556 1.524 . S
C1557 C1558 1.415 . S
C1558 H1534 0.950 . S
C1558 C1553 1.363 . S
C1558 C1557 1.415 . S
C1559 H1535 0.951 . S
C1559 C1560 1.366 . S
C1559 C1561 1.388 . S
C1560 C1559 1.366 . S
C1560 C1564 1.385 . S
C1561 H1536 0.951 . S
C1561 C1559 1.388 . S
C1561 C1562 1.366 . S
C1562 C1561 1.366 . S
C1562 C1563 1.414 . S
C1562 C1565 1.499 . S
C1563 H1537 0.950 . S
C1563 C1562 1.414 . S
C1563 C1564 1.374 . S
C1564 H1538 0.950 . S
C1564 C1560 1.385 . S
C1564 C1563 1.374 . S
C1565 C1562 1.499 . S
C1565 C1566 1.373 . S
C1565 C1567 1.389 . S
C1566 H1539 0.950 . S
C1566 C1552 1.377 . S
C1566 C1565 1.373 . S
C1567 C1551 1.377 . S
C1567 C1565 1.389 . S
C1567 C1568 1.524 . S
C1568 C1567 1.524 . S
C1568 C1569 1.397 . S
C1568 C1573 1.363 . S
C1569 H1540 0.950 . S
C1569 C1568 1.397 . S
C1569 C1570 1.334 . S
C1570 H1541 0.950 . S
C1570 C1569 1.334 . S
C1570 C1571 1.287 . S
C1571 C1570 1.287 . S
C1571 C1572 1.524 . S
C1571 H1574 0.999 . S
C1572 H1542 0.950 . S
C1572 C1571 1.524 . S
C1572 C1573 1.415 . S
C1573 H1543 0.950 . S
C1573 C1568 1.363 . S
C1573 C1572 1.415 . S
H1574 C1571 0.999 . S
H1575 C1556 0.913 . S
H1576 C1594 0.951 . S
H1577 C1596 0.919 1_455 S
H1578 C1598 0.950 . S
H1579 C1599 0.950 . S
H1580 C1601 0.950 . S
H1581 C1604 0.950 . S
H1582 C1605 0.950 . S
H1583 C1607 0.950 . S
H1584 C1608 0.950 . S
H1585 C1609 0.951 1_655 S
H1586 C1611 0.951 . S
H1587 C1613 0.950 . S
H1588 C1614 0.950 . S
H1589 C1616 0.950 . S
H1590 C1619 0.950 1_455 S
H1591 C1620 0.950 1_455 S
H1592 C1622 0.950 . S
H1593 C1623 0.950 . S
C1594 H1576 0.951 . S
C1594 C1595 1.366 . S
C1594 C1596 1.388 . S
C1595 C1594 1.366 . S
C1595 C1599 1.385 . S
C1596 H1577 0.919 1_655 S
C1596 C1594 1.388 . S
C1596 C1597 1.366 . S
C1597 C1596 1.366 . S
C1597 C1598 1.414 . S
C1597 C1600 1.499 . S
C1598 H1578 0.950 . S
C1598 C1597 1.414 . S
C1598 C1599 1.374 . S
C1599 H1579 0.950 . S
C1599 C1595 1.385 . S
C1599 C1598 1.374 . S
C1600 C1597 1.499 . S
C1600 C1601 1.373 . S
C1600 C1602 1.389 . S
C1601 H1580 0.950 . S
C1601 C1600 1.373 . S
C1601 C1617 1.377 . S
C1602 C1600 1.389 . S
C1602 C1603 1.524 1_655 S
C1602 C1616 1.377 1_655 S
C1603 C1602 1.524 1_455 S
C1603 C1604 1.397 1_455 S
C1603 C1608 1.363 . S
C1604 H1581 0.950 . S
C1604 C1603 1.397 1_655 S
C1604 C1605 1.334 . S
C1605 H1582 0.950 . S
C1605 C1604 1.334 . S
C1605 C1606 1.287 1_655 S
C1606 C1605 1.287 1_455 S
C1606 C1607 1.524 . S
C1606 H1625 0.913 . S
C1607 H1583 0.950 . S
C1607 C1606 1.524 . S
C1607 C1608 1.415 . S
C1608 H1584 0.950 . S
C1608 C1603 1.363 . S
C1608 C1607 1.415 . S
C1609 H1585 0.951 1_455 S
C1609 C1610 1.366 . S
C1609 C1611 1.388 1_455 S
C1610 C1609 1.366 . S
C1610 C1614 1.385 . S
C1611 H1586 0.951 . S
C1611 C1609 1.388 1_655 S
C1611 C1612 1.366 1_655 S
C1612 C1611 1.366 1_455 S
C1612 C1613 1.414 . S
C1612 C1615 1.499 . S
C1613 H1587 0.950 . S
C1613 C1612 1.414 . S
C1613 C1614 1.374 . S
C1614 H1588 0.950 . S
C1614 C1610 1.385 . S
C1614 C1613 1.374 . S
C1615 C1612 1.499 . S
C1615 C1616 1.373 . S
C1615 C1617 1.389 1_455 S
C1616 H1589 0.950 . S
C1616 C1602 1.377 1_455 S
C1616 C1615 1.373 . S
C1617 C1601 1.377 . S
C1617 C1615 1.389 1_655 S
C1617 C1618 1.524 . S
C1618 C1617 1.524 . S
C1618 C1619 1.397 . S
C1618 C1623 1.363 . S
C1619 H1590 0.950 1_655 S
C1619 C1618 1.397 . S
C1619 C1620 1.334 . S
C1620 H1591 0.950 1_655 S
C1620 C1619 1.334 . S
C1620 C1621 1.287 . S
C1621 C1620 1.287 . S
C1621 C1622 1.524 . S
C1621 H1624 0.999 . S
C1622 H1592 0.950 . S
C1622 C1621 1.524 . S
C1622 C1623 1.415 . S
C1623 H1593 0.950 . S
C1623 C1618 1.363 . S
C1623 C1622 1.415 . S
H1624 C1621 0.999 . S
H1625 C1606 0.913 . S
H1626 C1644 0.951 . S
H1627 C1646 0.951 . S
H1628 C1648 0.950 . S
H1629 C1649 0.950 . S
H1630 C1651 0.950 . S
H1631 C1654 0.950 . S
H1632 C1655 0.950 . S
H1633 C1657 0.950 . S
H1634 C1658 0.950 . S
H1635 C1659 0.951 . S
H1636 C1661 0.951 . S
H1637 C1663 0.950 . S
H1638 C1664 0.950 . S
H1639 C1666 0.950 . S
H1640 C1669 0.950 . S
H1641 C1670 0.950 . S
H1642 C1672 0.950 . S
H1643 C1673 0.950 . S
C1644 H1626 0.951 . S
C1644 C1645 1.366 . S
C1644 C1646 1.388 . S
C1645 C1644 1.366 . S
C1645 C1649 1.385 . S
C1646 H1627 0.951 . S
C1646 C1644 1.388 . S
C1646 C1647 1.366 . S
C1647 C1646 1.366 . S
C1647 C1648 1.414 . S
C1647 C1650 1.499 . S
C1648 H1628 0.950 . S
C1648 C1647 1.414 . S
C1648 C1649 1.374 . S
C1649 H1629 0.950 . S
C1649 C1645 1.385 . S
C1649 C1648 1.374 . S
C1650 C1647 1.499 . S
C1650 C1651 1.373 . S
C1650 C1652 1.389 . S
C1651 H1630 0.950 . S
C1651 C1650 1.373 . S
C1651 C1667 1.377 . S
C1652 C1650 1.389 . S
C1652 C1653 1.524 . S
C1652 C1666 1.377 . S
C1653 C1652 1.524 . S
C1653 C1654 1.397 . S
C1653 C1658 1.363 . S
C1654 H1631 0.950 . S
C1654 C1653 1.397 . S
C1654 C1655 1.334 . S
C1655 H1632 0.950 . S
C1655 C1654 1.334 . S
C1655 C1656 1.287 . S
C1656 C1655 1.287 . S
C1656 C1657 1.524 . S
C1656 H1675 0.913 . S
C1657 H1633 0.950 . S
C1657 C1656 1.524 . S
C1657 C1658 1.415 . S
C1658 H1634 0.950 . S
C1658 C1653 1.363 . S
C1658 C1657 1.415 . S
C1659 H1635 0.951 . S
C1659 C1660 1.366 . S
C1659 C1661 1.388 . S
C1660 C1659 1.366 . S
C1660 C1664 1.385 . S
C1661 H1636 0.951 . S
C1661 C1659 1.388 . S
C1661 C1662 1.366 . S
C1662 C1661 1.366 . S
C1662 C1663 1.414 . S
C1662 C1665 1.499 . S
C1663 H1637 0.950 . S
C1663 C1662 1.414 . S
C1663 C1664 1.374 . S
C1664 H1638 0.950 . S
C1664 C1660 1.385 . S
C1664 C1663 1.374 . S
C1665 C1662 1.499 . S
C1665 C1666 1.373 . S
C1665 C1667 1.389 . S
C1666 H1639 0.950 . S
C1666 C1652 1.377 . S
C1666 C1665 1.373 . S
C1667 C1651 1.377 . S
C1667 C1665 1.389 . S
C1667 C1668 1.524 . S
C1668 C1667 1.524 . S
C1668 C1669 1.397 . S
C1668 C1673 1.363 . S
C1669 H1640 0.950 . S
C1669 C1668 1.397 . S
C1669 C1670 1.334 . S
C1670 H1641 0.950 . S
C1670 C1669 1.334 . S
C1670 C1671 1.287 . S
C1671 C1670 1.287 . S
C1671 C1672 1.524 . S
C1671 H1674 0.999 . S
C1672 H1642 0.950 . S
C1672 C1671 1.524 . S
C1672 C1673 1.415 . S
C1673 H1643 0.950 . S
C1673 C1668 1.363 . S
C1673 C1672 1.415 . S
H1674 C1671 0.999 . S
H1675 C1656 0.913 . S
H1676 C1694 0.951 . S
H1677 C1696 0.951 . S
H1678 C1698 0.950 . S
H1679 C1699 0.950 . S
H1680 C1701 0.950 . S
H1681 C1704 0.950 . S
H1682 C1705 0.950 . S
H1683 C1707 0.950 . S
H1684 C1708 0.950 . S
H1685 C1709 0.951 . S
H1686 C1711 0.951 . S
H1687 C1713 0.950 . S
H1688 C1714 0.950 . S
H1689 C1716 0.950 . S
H1690 C1719 0.950 . S
H1691 C1720 0.950 . S
H1692 C1722 0.950 . S
H1693 C1723 0.950 . S
C1694 H1676 0.951 . S
C1694 C1695 1.366 . S
C1694 C1696 1.388 . S
C1695 C1694 1.366 . S
C1695 C1699 1.385 . S
C1696 H1677 0.951 . S
C1696 C1694 1.388 . S
C1696 C1697 1.366 . S
C1697 C1696 1.366 . S
C1697 C1698 1.414 . S
C1697 C1700 1.499 . S
C1698 H1678 0.950 . S
C1698 C1697 1.414 . S
C1698 C1699 1.374 . S
C1699 H1679 0.950 . S
C1699 C1695 1.385 . S
C1699 C1698 1.374 . S
C1700 C1697 1.499 . S
C1700 C1701 1.373 . S
C1700 C1702 1.389 . S
C1701 H1680 0.950 . S
C1701 C1700 1.373 . S
C1701 C1717 1.377 . S
C1702 C1700 1.389 . S
C1702 C1703 1.524 . S
C1702 C1716 1.377 . S
C1703 C1702 1.524 . S
C1703 C1704 1.397 . S
C1703 C1708 1.363 . S
C1704 H1681 0.950 . S
C1704 C1703 1.397 . S
C1704 C1705 1.334 . S
C1705 H1682 0.950 . S
C1705 C1704 1.334 . S
C1705 C1706 1.287 . S
C1706 C1705 1.287 . S
C1706 C1707 1.524 . S
C1706 H1725 0.913 . S
C1707 H1683 0.950 . S
C1707 C1706 1.524 . S
C1707 C1708 1.415 . S
C1708 H1684 0.950 . S
C1708 C1703 1.363 . S
C1708 C1707 1.415 . S
C1709 H1685 0.951 . S
C1709 C1710 1.366 . S
C1709 C1711 1.388 . S
C1710 C1709 1.366 . S
C1710 C1714 1.385 . S
C1711 H1686 0.951 . S
C1711 C1709 1.388 . S
C1711 C1712 1.366 . S
C1712 C1711 1.366 . S
C1712 C1713 1.414 . S
C1712 C1715 1.499 . S
C1713 H1687 0.950 . S
C1713 C1712 1.414 . S
C1713 C1714 1.374 . S
C1714 H1688 0.950 . S
C1714 C1710 1.385 . S
C1714 C1713 1.374 . S
C1715 C1712 1.499 . S
C1715 C1716 1.373 . S
C1715 C1717 1.389 . S
C1716 H1689 0.950 . S
C1716 C1702 1.377 . S
C1716 C1715 1.373 . S
C1717 C1701 1.377 . S
C1717 C1715 1.389 . S
C1717 C1718 1.524 . S
C1718 C1717 1.524 . S
C1718 C1719 1.397 . S
C1718 C1723 1.363 . S
C1719 H1690 0.950 . S
C1719 C1718 1.397 . S
C1719 C1720 1.334 . S
C1720 H1691 0.950 . S
C1720 C1719 1.334 . S
C1720 C1721 1.346 . S
C1721 C1720 1.346 . S
C1721 C1722 1.501 1_545 S
C1721 H1724 0.956 1_545 S
C1722 H1692 0.950 . S
C1722 C1721 1.501 1_565 S
C1722 C1723 1.415 1_565 S
C1723 H1693 0.950 . S
C1723 C1718 1.363 . S
C1723 C1722 1.415 1_545 S
H1724 C1721 0.956 1_565 S
H1725 C1706 0.913 . S
H1726 C1744 0.951 . S
H1727 C1746 0.951 . S
H1728 C1748 0.950 . S
H1729 C1749 0.950 . S
H1730 C1751 0.950 . S
H1731 C1754 0.950 . S
H1732 C1755 0.950 . S
H1733 C1757 0.950 . S
H1734 C1758 0.950 . S
H1735 C1759 0.951 . S
H1736 C1761 0.951 . S
H1737 C1763 0.950 . S
H1738 C1764 0.950 . S
H1739 C1766 0.950 . S
H1740 C1769 0.950 . S
H1741 C1770 0.950 . S
H1742 C1772 0.950 . S
H1743 C1773 0.950 . S
C1744 H1726 0.951 . S
C1744 C1745 1.366 . S
C1744 C1746 1.388 . S
C1745 C1744 1.366 . S
C1745 C1749 1.385 . S
C1746 H1727 0.951 . S
C1746 C1744 1.388 . S
C1746 C1747 1.366 . S
C1747 C1746 1.366 . S
C1747 C1748 1.414 . S
C1747 C1750 1.499 . S
C1748 H1728 0.950 . S
C1748 C1747 1.414 . S
C1748 C1749 1.374 . S
C1749 H1729 0.950 . S
C1749 C1745 1.385 . S
C1749 C1748 1.374 . S
C1750 C1747 1.499 . S
C1750 C1751 1.373 . S
C1750 C1752 1.389 . S
C1751 H1730 0.950 . S
C1751 C1750 1.373 . S
C1751 C1767 1.377 . S
C1752 C1750 1.389 . S
C1752 C1753 1.524 . S
C1752 C1766 1.377 . S
C1753 C1752 1.524 . S
C1753 C1754 1.397 . S
C1753 C1758 1.363 . S
C1754 H1731 0.950 . S
C1754 C1753 1.397 . S
C1754 C1755 1.334 . S
C1755 H1732 0.950 . S
C1755 C1754 1.334 . S
C1755 C1756 1.287 . S
C1756 C1755 1.287 . S
C1756 C1757 1.524 . S
C1756 H1775 0.913 . S
C1757 H1733 0.950 . S
C1757 C1756 1.524 . S
C1757 C1758 1.415 . S
C1758 H1734 0.950 . S
C1758 C1753 1.363 . S
C1758 C1757 1.415 . S
C1759 H1735 0.951 . S
C1759 C1760 1.366 . S
C1759 C1761 1.388 . S
C1760 C1759 1.366 . S
C1760 C1764 1.385 . S
C1761 H1736 0.951 . S
C1761 C1759 1.388 . S
C1761 C1762 1.366 . S
C1762 C1761 1.366 . S
C1762 C1763 1.414 . S
C1762 C1765 1.499 . S
C1763 H1737 0.950 . S
C1763 C1762 1.414 . S
C1763 C1764 1.374 . S
C1764 H1738 0.950 . S
C1764 C1760 1.385 . S
C1764 C1763 1.374 . S
C1765 C1762 1.499 . S
C1765 C1766 1.373 . S
C1765 C1767 1.389 . S
C1766 H1739 0.950 . S
C1766 C1752 1.377 . S
C1766 C1765 1.373 . S
C1767 C1751 1.377 . S
C1767 C1765 1.389 . S
C1767 C1768 1.524 . S
C1768 C1767 1.524 . S
C1768 C1769 1.397 . S
C1768 C1773 1.363 . S
C1769 H1740 0.950 . S
C1769 C1768 1.397 . S
C1769 C1770 1.334 . S
C1770 H1741 0.950 . S
C1770 C1769 1.334 . S
C1770 C1771 1.287 . S
C1771 C1770 1.287 . S
C1771 C1772 1.524 . S
C1771 H1774 0.999 . S
C1772 H1742 0.950 . S
C1772 C1771 1.524 . S
C1772 C1773 1.415 . S
C1773 H1743 0.950 . S
C1773 C1768 1.363 . S
C1773 C1772 1.415 . S
H1774 C1771 0.999 . S
H1775 C1756 0.913 . S
H1776 C1794 0.951 . S
H1777 C1796 0.951 . S
H1778 C1798 0.950 . S
H1779 C1799 0.950 . S
H1780 C1801 0.950 . S
H1781 C1804 0.950 . S
H1782 C1805 0.950 . S
H1783 C1807 0.950 . S
H1784 C1808 0.950 . S
H1785 C1809 0.951 . S
H1786 C1811 0.951 . S
H1787 C1813 0.950 . S
H1788 C1814 0.950 . S
H1789 C1816 0.950 1_545 S
H1790 C1819 0.950 . S
H1791 C1820 0.950 . S
H1792 C1822 0.950 . S
H1793 C1823 0.950 . S
C1794 H1776 0.951 . S
C1794 C1795 1.366 . S
C1794 C1796 1.388 . S
C1795 C1794 1.366 . S
C1795 C1799 1.385 . S
C1796 H1777 0.951 . S
C1796 C1794 1.388 . S
C1796 C1797 1.366 . S
C1797 C1796 1.366 . S
C1797 C1798 1.414 . S
C1797 C1800 1.499 . S
C1798 H1778 0.950 . S
C1798 C1797 1.414 . S
C1798 C1799 1.374 . S
C1799 H1779 0.950 . S
C1799 C1795 1.385 . S
C1799 C1798 1.374 . S
C1800 C1797 1.499 . S
C1800 C1801 1.373 . S
C1800 C1802 1.389 . S
C1801 H1780 0.950 . S
C1801 C1800 1.373 . S
C1801 C1817 1.377 . S
C1802 C1800 1.389 . S
C1802 C1803 1.524 1_565 S
C1802 C1816 1.377 . S
C1803 C1802 1.524 1_545 S
C1803 C1804 1.397 1_545 S
C1803 C1808 1.363 . S
C1804 H1781 0.950 . S
C1804 C1803 1.397 1_565 S
C1804 C1805 1.334 1_565 S
C1805 H1782 0.950 . S
C1805 C1804 1.334 1_545 S
C1805 C1806 1.287 . S
C1806 C1805 1.287 . S
C1806 C1807 1.524 . S
C1806 H1825 0.913 . S
C1807 H1783 0.950 . S
C1807 C1806 1.524 . S
C1807 C1808 1.415 . S
C1808 H1784 0.950 . S
C1808 C1803 1.363 . S
C1808 C1807 1.415 . S
C1809 H1785 0.951 . S
C1809 C1810 1.366 1_565 S
C1809 C1811 1.388 . S
C1810 C1809 1.366 1_545 S
C1810 C1814 1.385 . S
C1811 H1786 0.951 . S
C1811 C1809 1.388 . S
C1811 C1812 1.366 . S
C1812 C1811 1.366 . S
C1812 C1813 1.414 1_565 S
C1812 C1815 1.499 . S
C1813 H1787 0.950 . S
C1813 C1812 1.414 1_545 S
C1813 C1814 1.374 . S
C1814 H1788 0.950 . S
C1814 C1810 1.385 . S
C1814 C1813 1.374 . S
C1815 C1812 1.499 . S
C1815 C1816 1.373 . S
C1815 C1817 1.389 . S
C1816 H1789 0.950 1_565 S
C1816 C1802 1.377 . S
C1816 C1815 1.373 . S
C1817 C1801 1.377 . S
C1817 C1815 1.389 . S
C1817 C1818 1.524 . S
C1818 C1817 1.524 . S
C1818 C1819 1.397 . S
C1818 C1823 1.363 . S
C1819 H1790 0.950 . S
C1819 C1818 1.397 . S
C1819 C1820 1.334 1_554 S
C1820 H1791 0.950 . S
C1820 C1819 1.334 1_556 S
C1820 C1821 1.291 . S
C1821 C1820 1.291 . S
C1821 C1822 1.516 1_556 S
C1821 H1824 1.002 . S
C1822 H1792 0.950 . S
C1822 C1821 1.516 1_554 S
C1822 C1823 1.415 . S
C1823 H1793 0.950 . S
C1823 C1818 1.363 . S
C1823 C1822 1.415 . S
H1824 C1821 1.002 . S
H1825 C1806 0.913 . S
H1826 C1844 0.951 . S
H1827 C1846 0.951 . S
H1828 C1848 0.955 . S
H1829 C1849 0.946 . S
H1830 C1851 0.950 . S
H1831 C1854 0.950 . S
H1832 C1855 0.950 . S
H1833 C1857 0.950 . S
H1834 C1858 0.950 . S
H1835 C1859 0.951 . S
H1836 C1861 0.951 . S
H1837 C1863 0.947 1_556 S
H1838 C1864 0.956 1_556 S
H1839 C1866 0.950 . S
H1840 C1869 0.950 . S
H1841 C1870 0.950 . S
H1842 C1872 0.950 . S
H1843 C1873 0.950 . S
C1844 H1826 0.951 . S
C1844 C1845 1.362 . S
C1844 C1846 1.388 . S
C1845 C1844 1.362 . S
C1845 C1849 1.381 1_556 S
C1846 H1827 0.951 . S
C1846 C1844 1.388 . S
C1846 C1847 1.371 . S
C1847 C1846 1.371 . S
C1847 C1848 1.428 1_556 S
C1847 C1850 1.495 . S
C1848 H1828 0.955 . S
C1848 C1847 1.428 1_554 S
C1848 C1849 1.373 . S
C1849 H1829 0.946 . S
C1849 C1845 1.381 1_554 S
C1849 C1848 1.373 . S
C1850 C1847 1.495 . S
C1850 C1851 1.340 1_556 S
C1850 C1852 1.411 . S
C1851 H1830 0.950 . S
C1851 C1850 1.340 1_554 S
C1851 C1867 1.377 . S
C1852 C1850 1.411 . S
C1852 C1853 1.524 . S
C1852 C1866 1.377 . S
C1853 C1852 1.524 . S
C1853 C1854 1.397 . S
C1853 C1858 1.363 . S
C1854 H1831 0.950 . S
C1854 C1853 1.397 . S
C1854 C1855 1.334 . S
C1855 H1832 0.950 . S
C1855 C1854 1.334 . S
C1855 C1856 1.287 . S
C1856 C1855 1.287 . S
C1856 C1857 1.524 . S
C1856 H1875 0.913 . S
C1857 H1833 0.950 . S
C1857 C1856 1.524 . S
C1857 C1858 1.415 . S
C1858 H1834 0.950 . S
C1858 C1853 1.363 . S
C1858 C1857 1.415 . S
C1859 H1835 0.951 . S
C1859 C1860 1.366 . S
C1859 C1861 1.388 . S
C1860 C1859 1.366 . S
C1860 C1864 1.388 . S
C1861 H1836 0.951 . S
C1861 C1859 1.388 . S
C1861 C1862 1.366 . S
C1862 C1861 1.366 . S
C1862 C1863 1.410 . S
C1862 C1865 1.499 . S
C1863 H1837 0.947 1_554 S
C1863 C1862 1.410 . S
C1863 C1864 1.373 . S
C1864 H1838 0.956 1_554 S
C1864 C1860 1.388 . S
C1864 C1863 1.373 . S
C1865 C1862 1.499 . S
C1865 C1866 1.373 1_554 S
C1865 C1867 1.389 . S
C1866 H1839 0.950 . S
C1866 C1852 1.377 . S
C1866 C1865 1.373 1_556 S
C1867 C1851 1.377 . S
C1867 C1865 1.389 . S
C1867 C1868 1.524 . S
C1868 C1867 1.524 . S
C1868 C1869 1.397 . S
C1868 C1873 1.363 . S
C1869 H1840 0.950 . S
C1869 C1868 1.397 . S
C1869 C1870 1.334 . S
C1870 H1841 0.950 . S
C1870 C1869 1.334 . S
C1870 C1871 1.287 . S
C1871 C1870 1.287 . S
C1871 C1872 1.524 . S
C1871 H1874 0.999 . S
C1872 H1842 0.950 . S
C1872 C1871 1.524 . S
C1872 C1873 1.415 . S
C1873 H1843 0.950 . S
C1873 C1868 1.363 . S
C1873 C1872 1.415 . S
H1874 C1871 0.999 . S
H1875 C1856 0.913 . S
H1876 C1894 0.951 . S
H1877 C1896 0.951 . S
H1878 C1898 0.950 . S
H1879 C1899 0.950 . S
H1880 C1901 0.950 . S
H1881 C1904 0.950 . S
H1882 C1905 0.950 . S
H1883 C1907 0.950 . S
H1884 C1908 0.950 . S
H1885 C1909 0.951 . S
H1886 C1911 0.951 . S
H1887 C1913 0.950 . S
H1888 C1914 0.950 . S
H1889 C1916 0.950 . S
H1890 C1919 0.950 . S
H1891 C1920 0.950 . S
H1892 C1922 0.950 . S
H1893 C1923 0.950 . S
C1894 H1876 0.951 . S
C1894 C1895 1.366 . S
C1894 C1896 1.388 . S
C1895 C1894 1.366 . S
C1895 C1899 1.385 . S
C1896 H1877 0.951 . S
C1896 C1894 1.388 . S
C1896 C1897 1.366 . S
C1897 C1896 1.366 . S
C1897 C1898 1.414 . S
C1897 C1900 1.499 . S
C1898 H1878 0.950 . S
C1898 C1897 1.414 . S
C1898 C1899 1.374 . S
C1899 H1879 0.950 . S
C1899 C1895 1.385 . S
C1899 C1898 1.374 . S
C1900 C1897 1.499 . S
C1900 C1901 1.373 . S
C1900 C1902 1.389 . S
C1901 H1880 0.950 . S
C1901 C1900 1.373 . S
C1901 C1917 1.377 . S
C1902 C1900 1.389 . S
C1902 C1903 1.524 . S
C1902 C1916 1.377 . S
C1903 C1902 1.524 . S
C1903 C1904 1.397 . S
C1903 C1908 1.363 . S
C1904 H1881 0.950 . S
C1904 C1903 1.397 . S
C1904 C1905 1.334 . S
C1905 H1882 0.950 . S
C1905 C1904 1.334 . S
C1905 C1906 1.287 . S
C1906 C1905 1.287 . S
C1906 C1907 1.524 . S
C1906 H1925 0.913 . S
C1907 H1883 0.950 . S
C1907 C1906 1.524 . S
C1907 C1908 1.415 . S
C1908 H1884 0.950 . S
C1908 C1903 1.363 . S
C1908 C1907 1.415 . S
C1909 H1885 0.951 . S
C1909 C1910 1.366 . S
C1909 C1911 1.388 . S
C1910 C1909 1.366 . S
C1910 C1914 1.385 . S
C1911 H1886 0.951 . S
C1911 C1909 1.388 . S
C1911 C1912 1.366 . S
C1912 C1911 1.366 . S
C1912 C1913 1.414 . S
C1912 C1915 1.499 . S
C1913 H1887 0.950 . S
C1913 C1912 1.414 . S
C1913 C1914 1.374 . S
C1914 H1888 0.950 . S
C1914 C1910 1.385 . S
C1914 C1913 1.374 . S
C1915 C1912 1.499 . S
C1915 C1916 1.373 . S
C1915 C1917 1.389 . S
C1916 H1889 0.950 . S
C1916 C1902 1.377 . S
C1916 C1915 1.373 . S
C1917 C1901 1.377 . S
C1917 C1915 1.389 . S
C1917 C1918 1.524 . S
C1918 C1917 1.524 . S
C1918 C1919 1.397 . S
C1918 C1923 1.363 . S
C1919 H1890 0.950 . S
C1919 C1918 1.397 . S
C1919 C1920 1.334 . S
C1920 H1891 0.950 . S
C1920 C1919 1.334 . S
C1920 C1921 1.287 . S
C1921 C1920 1.287 . S
C1921 C1922 1.524 . S
C1921 H1924 0.999 . S
C1922 H1892 0.950 . S
C1922 C1921 1.524 . S
C1922 C1923 1.415 . S
C1923 H1893 0.950 . S
C1923 C1918 1.363 . S
C1923 C1922 1.415 . S
H1924 C1921 0.999 . S
H1925 C1906 0.913 . S
H1926 C1944 0.951 . S
H1927 C1946 0.951 . S
H1928 C1948 0.950 . S
H1929 C1949 0.950 . S
H1930 C1951 0.950 . S
H1931 C1954 0.950 . S
H1932 C1955 0.950 . S
H1933 C1957 0.950 . S
H1934 C1958 0.950 . S
H1935 C1959 0.951 . S
H1936 C1961 0.951 . S
H1937 C1963 0.950 . S
H1938 C1964 0.950 . S
H1939 C1966 0.950 . S
H1940 C1969 0.950 . S
H1941 C1970 0.950 . S
H1942 C1972 0.950 . S
H1943 C1973 0.950 . S
C1944 H1926 0.951 . S
C1944 C1945 1.366 . S
C1944 C1946 1.388 . S
C1945 C1944 1.366 . S
C1945 C1949 1.385 . S
C1946 H1927 0.951 . S
C1946 C1944 1.388 . S
C1946 C1947 1.366 . S
C1947 C1946 1.366 . S
C1947 C1948 1.414 . S
C1947 C1950 1.499 . S
C1948 H1928 0.950 . S
C1948 C1947 1.414 . S
C1948 C1949 1.374 . S
C1949 H1929 0.950 . S
C1949 C1945 1.385 . S
C1949 C1948 1.374 . S
C1950 C1947 1.499 . S
C1950 C1951 1.373 . S
C1950 C1952 1.389 . S
C1951 H1930 0.950 . S
C1951 C1950 1.373 . S
C1951 C1967 1.377 . S
C1952 C1950 1.389 . S
C1952 C1953 1.524 . S
C1952 C1966 1.377 . S
C1953 C1952 1.524 . S
C1953 C1954 1.397 . S
C1953 C1958 1.363 . S
C1954 H1931 0.950 . S
C1954 C1953 1.397 . S
C1954 C1955 1.334 . S
C1955 H1932 0.950 . S
C1955 C1954 1.334 . S
C1955 C1956 1.287 . S
C1956 C1955 1.287 . S
C1956 C1957 1.524 . S
C1956 H1975 0.913 . S
C1957 H1933 0.950 . S
C1957 C1956 1.524 . S
C1957 C1958 1.415 . S
C1958 H1934 0.950 . S
C1958 C1953 1.363 . S
C1958 C1957 1.415 . S
C1959 H1935 0.951 . S
C1959 C1960 1.366 . S
C1959 C1961 1.388 . S
C1960 C1959 1.366 . S
C1960 C1964 1.385 . S
C1961 H1936 0.951 . S
C1961 C1959 1.388 . S
C1961 C1962 1.366 . S
C1962 C1961 1.366 . S
C1962 C1963 1.414 . S
C1962 C1965 1.499 . S
C1963 H1937 0.950 . S
C1963 C1962 1.414 . S
C1963 C1964 1.374 . S
C1964 H1938 0.950 . S
C1964 C1960 1.385 . S
C1964 C1963 1.374 . S
C1965 C1962 1.499 . S
C1965 C1966 1.373 . S
C1965 C1967 1.389 . S
C1966 H1939 0.950 . S
C1966 C1952 1.377 . S
C1966 C1965 1.373 . S
C1967 C1951 1.377 . S
C1967 C1965 1.389 . S
C1967 C1968 1.524 . S
C1968 C1967 1.524 . S
C1968 C1969 1.397 . S
C1968 C1973 1.363 . S
C1969 H1940 0.950 . S
C1969 C1968 1.397 . S
C1969 C1970 1.334 . S
C1970 H1941 0.950 . S
C1970 C1969 1.334 . S
C1970 C1971 1.287 . S
C1971 C1970 1.287 . S
C1971 C1972 1.524 . S
C1971 H1974 0.999 . S
C1972 H1942 0.950 . S
C1972 C1971 1.524 . S
C1972 C1973 1.415 . S
C1973 H1943 0.950 . S
C1973 C1968 1.363 . S
C1973 C1972 1.415 . S
H1974 C1971 0.999 . S
H1975 C1956 0.913 . S
H1976 C1994 0.951 . S
H1977 C1996 0.951 . S
H1978 C1998 0.950 . S
H1979 C1999 0.950 . S
H1980 C2001 0.950 . S
H1981 C2004 0.950 . S
H1982 C2005 0.950 . S
H1983 C2007 0.950 . S
H1984 C2008 0.950 . S
H1985 C2009 0.951 . S
H1986 C2011 0.951 . S
H1987 C2013 0.950 . S
H1988 C2014 0.950 . S
H1989 C2016 0.950 . S
H1990 C2019 0.950 . S
H1991 C2020 0.950 . S
H1992 C2022 0.950 . S
H1993 C2023 0.950 . S
C1994 H1976 0.951 . S
C1994 C1995 1.366 . S
C1994 C1996 1.388 . S
C1995 C1994 1.366 . S
C1995 C1999 1.385 . S
C1996 H1977 0.951 . S
C1996 C1994 1.388 . S
C1996 C1997 1.366 . S
C1997 C1996 1.366 . S
C1997 C1998 1.414 . S
C1997 C2000 1.499 . S
C1998 H1978 0.950 . S
C1998 C1997 1.414 . S
C1998 C1999 1.374 . S
C1999 H1979 0.950 . S
C1999 C1995 1.385 . S
C1999 C1998 1.374 . S
C2000 C1997 1.499 . S
C2000 C2001 1.373 . S
C2000 C2002 1.389 . S
C2001 H1980 0.950 . S
C2001 C2000 1.373 . S
C2001 C2017 1.377 . S
C2002 C2000 1.389 . S
C2002 C2003 1.524 . S
C2002 C2016 1.377 . S
C2003 C2002 1.524 . S
C2003 C2004 1.397 . S
C2003 C2008 1.363 . S
C2004 H1981 0.950 . S
C2004 C2003 1.397 . S
C2004 C2005 1.334 . S
C2005 H1982 0.950 . S
C2005 C2004 1.334 . S
C2005 C2006 1.287 . S
C2006 C2005 1.287 . S
C2006 C2007 1.524 . S
C2006 H2025 0.913 . S
C2007 H1983 0.950 . S
C2007 C2006 1.524 . S
C2007 C2008 1.415 . S
C2008 H1984 0.950 . S
C2008 C2003 1.363 . S
C2008 C2007 1.415 . S
C2009 H1985 0.951 . S
C2009 C2010 1.366 . S
C2009 C2011 1.388 . S
C2010 C2009 1.366 . S
C2010 C2014 1.385 . S
C2011 H1986 0.951 . S
C2011 C2009 1.388 . S
C2011 C2012 1.366 . S
C2012 C2011 1.366 . S
C2012 C2013 1.414 . S
C2012 C2015 1.499 . S
C2013 H1987 0.950 . S
C2013 C2012 1.414 . S
C2013 C2014 1.374 . S
C2014 H1988 0.950 . S
C2014 C2010 1.385 . S
C2014 C2013 1.374 . S
C2015 C2012 1.499 . S
C2015 C2016 1.373 . S
C2015 C2017 1.389 . S
C2016 H1989 0.950 . S
C2016 C2002 1.377 . S
C2016 C2015 1.373 . S
C2017 C2001 1.377 . S
C2017 C2015 1.389 . S
C2017 C2018 1.524 . S
C2018 C2017 1.524 . S
C2018 C2019 1.397 . S
C2018 C2023 1.363 . S
C2019 H1990 0.950 . S
C2019 C2018 1.397 . S
C2019 C2020 1.334 . S
C2020 H1991 0.950 . S
C2020 C2019 1.334 . S
C2020 C2021 1.287 . S
C2021 C2020 1.287 . S
C2021 C2022 1.524 . S
C2021 H2024 0.999 . S
C2022 H1992 0.950 . S
C2022 C2021 1.524 . S
C2022 C2023 1.415 . S
C2023 H1993 0.950 . S
C2023 C2018 1.363 . S
C2023 C2022 1.415 . S
H2024 C2021 0.999 . S
H2025 C2006 0.913 . S
H2026 C2044 0.951 . S
H2027 C2046 0.951 . S
H2028 C2048 0.950 . S
H2029 C2049 0.950 . S
H2030 C2051 0.950 . S
H2031 C2054 0.950 . S
H2032 C2055 0.950 . S
H2033 C2057 0.950 . S
H2034 C2058 0.950 . S
H2035 C2059 0.951 . S
H2036 C2061 0.951 . S
H2037 C2063 0.950 . S
H2038 C2064 0.950 . S
H2039 C2066 0.950 . S
H2040 C2069 0.950 . S
H2041 C2070 0.950 . S
H2042 C2072 0.950 . S
H2043 C2073 0.950 . S
C2044 H2026 0.951 . S
C2044 C2045 1.366 . S
C2044 C2046 1.388 . S
C2045 C2044 1.366 . S
C2045 C2049 1.385 . S
C2046 H2027 0.951 . S
C2046 C2044 1.388 . S
C2046 C2047 1.366 . S
C2047 C2046 1.366 . S
C2047 C2048 1.414 . S
C2047 C2050 1.499 . S
C2048 H2028 0.950 . S
C2048 C2047 1.414 . S
C2048 C2049 1.374 . S
C2049 H2029 0.950 . S
C2049 C2045 1.385 . S
C2049 C2048 1.374 . S
C2050 C2047 1.499 . S
C2050 C2051 1.373 . S
C2050 C2052 1.389 . S
C2051 H2030 0.950 . S
C2051 C2050 1.373 . S
C2051 C2067 1.377 . S
C2052 C2050 1.389 . S
C2052 C2053 1.524 . S
C2052 C2066 1.377 . S
C2053 C2052 1.524 . S
C2053 C2054 1.397 . S
C2053 C2058 1.363 . S
C2054 H2031 0.950 . S
C2054 C2053 1.397 . S
C2054 C2055 1.334 . S
C2055 H2032 0.950 . S
C2055 C2054 1.334 . S
C2055 C2056 1.287 . S
C2056 C2055 1.287 . S
C2056 C2057 1.524 . S
C2056 H2075 0.913 . S
C2057 H2033 0.950 . S
C2057 C2056 1.524 . S
C2057 C2058 1.415 . S
C2058 H2034 0.950 . S
C2058 C2053 1.363 . S
C2058 C2057 1.415 . S
C2059 H2035 0.951 . S
C2059 C2060 1.366 . S
C2059 C2061 1.388 . S
C2060 C2059 1.366 . S
C2060 C2064 1.385 . S
C2061 H2036 0.951 . S
C2061 C2059 1.388 . S
C2061 C2062 1.366 . S
C2062 C2061 1.366 . S
C2062 C2063 1.414 . S
C2062 C2065 1.499 . S
C2063 H2037 0.950 . S
C2063 C2062 1.414 . S
C2063 C2064 1.374 . S
C2064 H2038 0.950 . S
C2064 C2060 1.385 . S
C2064 C2063 1.374 . S
C2065 C2062 1.499 . S
C2065 C2066 1.373 . S
C2065 C2067 1.389 . S
C2066 H2039 0.950 . S
C2066 C2052 1.377 . S
C2066 C2065 1.373 . S
C2067 C2051 1.377 . S
C2067 C2065 1.389 . S
C2067 C2068 1.524 . S
C2068 C2067 1.524 . S
C2068 C2069 1.397 . S
C2068 C2073 1.363 . S
C2069 H2040 0.950 . S
C2069 C2068 1.397 . S
C2069 C2070 1.334 . S
C2070 H2041 0.950 . S
C2070 C2069 1.334 . S
C2070 C2071 1.287 . S
C2071 C2070 1.287 . S
C2071 C2072 1.524 . S
C2071 H2074 0.999 . S
C2072 H2042 0.950 . S
C2072 C2071 1.524 . S
C2072 C2073 1.415 . S
C2073 H2043 0.950 . S
C2073 C2068 1.363 . S
C2073 C2072 1.415 . S
H2074 C2071 0.999 . S
H2075 C2056 0.913 . S
H2076 C2094 0.951 . S
H2077 C2096 0.951 . S
H2078 C2098 0.950 . S
H2079 C2099 0.950 . S
H2080 C2101 0.950 . S
H2081 C2104 0.950 . S
H2082 C2105 0.950 . S
H2083 C2107 0.950 . S
H2084 C2108 0.950 . S
H2085 C2109 0.951 . S
H2086 C2111 0.951 . S
H2087 C2113 0.950 . S
H2088 C2114 0.950 . S
H2089 C2116 0.950 . S
H2090 C2119 0.950 . S
H2091 C2120 0.950 . S
H2092 C2122 0.950 . S
H2093 C2123 0.950 . S
C2094 H2076 0.951 . S
C2094 C2095 1.366 . S
C2094 C2096 1.388 . S
C2095 C2094 1.366 . S
C2095 C2099 1.385 . S
C2096 H2077 0.951 . S
C2096 C2094 1.388 . S
C2096 C2097 1.366 . S
C2097 C2096 1.366 . S
C2097 C2098 1.414 . S
C2097 C2100 1.499 . S
C2098 H2078 0.950 . S
C2098 C2097 1.414 . S
C2098 C2099 1.374 . S
C2099 H2079 0.950 . S
C2099 C2095 1.385 . S
C2099 C2098 1.374 . S
C2100 C2097 1.499 . S
C2100 C2101 1.373 . S
C2100 C2102 1.389 . S
C2101 H2080 0.950 . S
C2101 C2100 1.373 . S
C2101 C2117 1.377 . S
C2102 C2100 1.389 . S
C2102 C2103 1.524 . S
C2102 C2116 1.377 . S
C2103 C2102 1.524 . S
C2103 C2104 1.397 . S
C2103 C2108 1.363 . S
C2104 H2081 0.950 . S
C2104 C2103 1.397 . S
C2104 C2105 1.334 . S
C2105 H2082 0.950 . S
C2105 C2104 1.334 . S
C2105 C2106 1.287 . S
C2106 C2105 1.287 . S
C2106 C2107 1.524 . S
C2106 H2125 0.913 . S
C2107 H2083 0.950 . S
C2107 C2106 1.524 . S
C2107 C2108 1.415 . S
C2108 H2084 0.950 . S
C2108 C2103 1.363 . S
C2108 C2107 1.415 . S
C2109 H2085 0.951 . S
C2109 C2110 1.366 . S
C2109 C2111 1.388 . S
C2110 C2109 1.366 . S
C2110 C2114 1.385 . S
C2111 H2086 0.951 . S
C2111 C2109 1.388 . S
C2111 C2112 1.366 . S
C2112 C2111 1.366 . S
C2112 C2113 1.414 . S
C2112 C2115 1.499 . S
C2113 H2087 0.950 . S
C2113 C2112 1.414 . S
C2113 C2114 1.374 . S
C2114 H2088 0.950 . S
C2114 C2110 1.385 . S
C2114 C2113 1.374 . S
C2115 C2112 1.499 . S
C2115 C2116 1.373 . S
C2115 C2117 1.389 . S
C2116 H2089 0.950 . S
C2116 C2102 1.377 . S
C2116 C2115 1.373 . S
C2117 C2101 1.377 . S
C2117 C2115 1.389 . S
C2117 C2118 1.524 . S
C2118 C2117 1.524 . S
C2118 C2119 1.397 . S
C2118 C2123 1.363 . S
C2119 H2090 0.950 . S
C2119 C2118 1.397 . S
C2119 C2120 1.334 . S
C2120 H2091 0.950 . S
C2120 C2119 1.334 . S
C2120 C2121 1.287 . S
C2121 C2120 1.287 . S
C2121 C2122 1.524 . S
C2121 H2124 0.999 . S
C2122 H2092 0.950 . S
C2122 C2121 1.524 . S
C2122 C2123 1.415 . S
C2123 H2093 0.950 . S
C2123 C2118 1.363 . S
C2123 C2122 1.415 . S
H2124 C2121 0.999 . S
H2125 C2106 0.913 . S
H2126 C2144 0.951 . S
H2127 C2146 0.951 . S
H2128 C2148 0.950 . S
H2129 C2149 0.950 . S
H2130 C2151 0.950 . S
H2131 C2154 0.950 . S
H2132 C2155 0.950 . S
H2133 C2157 0.950 . S
H2134 C2158 0.950 . S
H2135 C2159 0.951 . S
H2136 C2161 0.951 . S
H2137 C2163 0.950 . S
H2138 C2164 0.950 . S
H2139 C2166 0.950 . S
H2140 C2169 0.950 . S
H2141 C2170 0.950 . S
H2142 C2172 0.950 . S
H2143 C2173 0.950 . S
C2144 H2126 0.951 . S
C2144 C2145 1.366 . S
C2144 C2146 1.388 . S
C2145 C2144 1.366 . S
C2145 C2149 1.385 . S
C2146 H2127 0.951 . S
C2146 C2144 1.388 . S
C2146 C2147 1.366 . S
C2147 C2146 1.366 . S
C2147 C2148 1.414 . S
C2147 C2150 1.499 . S
C2148 H2128 0.950 . S
C2148 C2147 1.414 . S
C2148 C2149 1.374 . S
C2149 H2129 0.950 . S
C2149 C2145 1.385 . S
C2149 C2148 1.374 . S
C2150 C2147 1.499 . S
C2150 C2151 1.373 . S
C2150 C2152 1.389 . S
C2151 H2130 0.950 . S
C2151 C2150 1.373 . S
C2151 C2167 1.377 . S
C2152 C2150 1.389 . S
C2152 C2153 1.524 . S
C2152 C2166 1.377 . S
C2153 C2152 1.524 . S
C2153 C2154 1.397 . S
C2153 C2158 1.363 . S
C2154 H2131 0.950 . S
C2154 C2153 1.397 . S
C2154 C2155 1.334 . S
C2155 H2132 0.950 . S
C2155 C2154 1.334 . S
C2155 C2156 1.287 . S
C2156 C2155 1.287 . S
C2156 C2157 1.524 . S
C2156 H2175 0.913 . S
C2157 H2133 0.950 . S
C2157 C2156 1.524 . S
C2157 C2158 1.415 . S
C2158 H2134 0.950 . S
C2158 C2153 1.363 . S
C2158 C2157 1.415 . S
C2159 H2135 0.951 . S
C2159 C2160 1.366 . S
C2159 C2161 1.388 . S
C2160 C2159 1.366 . S
C2160 C2164 1.385 . S
C2161 H2136 0.951 . S
C2161 C2159 1.388 . S
C2161 C2162 1.366 . S
C2162 C2161 1.366 . S
C2162 C2163 1.414 . S
C2162 C2165 1.499 . S
C2163 H2137 0.950 . S
C2163 C2162 1.414 . S
C2163 C2164 1.374 . S
C2164 H2138 0.950 . S
C2164 C2160 1.385 . S
C2164 C2163 1.374 . S
C2165 C2162 1.499 . S
C2165 C2166 1.373 . S
C2165 C2167 1.389 . S
C2166 H2139 0.950 . S
C2166 C2152 1.377 . S
C2166 C2165 1.373 . S
C2167 C2151 1.377 . S
C2167 C2165 1.389 . S
C2167 C2168 1.524 . S
C2168 C2167 1.524 . S
C2168 C2169 1.397 . S
C2168 C2173 1.363 . S
C2169 H2140 0.950 . S
C2169 C2168 1.397 . S
C2169 C2170 1.334 . S
C2170 H2141 0.950 . S
C2170 C2169 1.334 . S
C2170 C2171 1.287 . S
C2171 C2170 1.287 . S
C2171 C2172 1.524 . S
C2171 H2174 0.999 . S
C2172 H2142 0.950 . S
C2172 C2171 1.524 . S
C2172 C2173 1.415 . S
C2173 H2143 0.950 . S
C2173 C2168 1.363 . S
C2173 C2172 1.415 . S
H2174 C2171 0.999 . S
H2175 C2156 0.913 . S
H2176 C2194 0.951 . S
H2177 C2196 0.951 . S
H2178 C2198 0.950 . S
H2179 C2199 0.950 . S
H2180 C2201 0.950 . S
H2181 C2204 0.950 . S
H2182 C2205 0.950 . S
H2183 C2207 0.950 . S
H2184 C2208 0.950 . S
H2185 C2209 0.951 . S
H2186 C2211 0.951 . S
H2187 C2213 0.950 . S
H2188 C2214 0.950 . S
H2189 C2216 0.950 . S
H2190 C2219 0.950 . S
H2191 C2220 0.950 . S
H2192 C2222 0.963 . S
H2193 C2223 0.950 . S
C2194 H2176 0.951 . S
C2194 C2195 1.366 . S
C2194 C2196 1.388 . S
C2195 C2194 1.366 . S
C2195 C2199 1.385 . S
C2196 H2177 0.951 . S
C2196 C2194 1.388 . S
C2196 C2197 1.366 . S
C2197 C2196 1.366 . S
C2197 C2198 1.414 . S
C2197 C2200 1.499 . S
C2198 H2178 0.950 . S
C2198 C2197 1.414 . S
C2198 C2199 1.374 . S
C2199 H2179 0.950 . S
C2199 C2195 1.385 . S
C2199 C2198 1.374 . S
C2200 C2197 1.499 . S
C2200 C2201 1.373 . S
C2200 C2202 1.389 . S
C2201 H2180 0.950 . S
C2201 C2200 1.373 . S
C2201 C2217 1.377 . S
C2202 C2200 1.389 . S
C2202 C2203 1.524 . S
C2202 C2216 1.377 . S
C2203 C2202 1.524 . S
C2203 C2204 1.397 . S
C2203 C2208 1.363 . S
C2204 H2181 0.950 . S
C2204 C2203 1.397 . S
C2204 C2205 1.334 . S
C2205 H2182 0.950 . S
C2205 C2204 1.334 . S
C2205 C2206 1.287 . S
C2206 C2205 1.287 . S
C2206 C2207 1.524 . S
C2206 H2225 0.913 . S
C2207 H2183 0.950 . S
C2207 C2206 1.524 . S
C2207 C2208 1.415 . S
C2208 H2184 0.950 . S
C2208 C2203 1.363 . S
C2208 C2207 1.415 . S
C2209 H2185 0.951 . S
C2209 C2210 1.366 . S
C2209 C2211 1.388 . S
C2210 C2209 1.366 . S
C2210 C2214 1.385 . S
C2211 H2186 0.951 . S
C2211 C2209 1.388 . S
C2211 C2212 1.366 . S
C2212 C2211 1.366 . S
C2212 C2213 1.414 . S
C2212 C2215 1.499 . S
C2213 H2187 0.950 . S
C2213 C2212 1.414 . S
C2213 C2214 1.374 . S
C2214 H2188 0.950 . S
C2214 C2210 1.385 . S
C2214 C2213 1.374 . S
C2215 C2212 1.499 . S
C2215 C2216 1.373 . S
C2215 C2217 1.389 . S
C2216 H2189 0.950 . S
C2216 C2202 1.377 . S
C2216 C2215 1.373 . S
C2217 C2201 1.377 . S
C2217 C2215 1.389 . S
C2217 C2218 1.524 . S
C2218 C2217 1.524 . S
C2218 C2219 1.397 . S
C2218 C2223 1.363 . S
C2219 H2190 0.950 . S
C2219 C2218 1.397 . S
C2219 C2220 1.334 1_554 S
C2220 H2191 0.950 . S
C2220 C2219 1.334 1_556 S
C2220 C2221 1.287 . S
C2221 C2220 1.287 . S
C2221 C2222 1.518 1_456 S
C2221 H2224 0.978 1_455 S
C2222 H2192 0.963 . S
C2222 C2221 1.518 1_654 S
C2222 C2223 1.407 1_655 S
C2223 H2193 0.950 . S
C2223 C2218 1.363 . S
C2223 C2222 1.407 1_455 S
H2224 C2221 0.978 1_655 S
H2225 C2206 0.913 . S
H2226 C2244 0.951 . S
H2227 C2246 0.951 . S
H2228 C2248 0.950 . S
H2229 C2249 0.950 . S
H2230 C2251 0.950 . S
H2231 C2254 0.950 . S
H2232 C2255 0.950 . S
H2233 C2257 0.950 . S
H2234 C2258 0.950 . S
H2235 C2259 0.951 . S
H2236 C2261 0.951 . S
H2237 C2263 0.950 . S
H2238 C2264 0.950 . S
H2239 C2266 0.950 . S
H2240 C2269 0.950 . S
H2241 C2270 0.950 . S
H2242 C2272 0.950 . S
H2243 C2273 0.950 . S
C2244 H2226 0.951 . S
C2244 C2245 1.366 . S
C2244 C2246 1.388 . S
C2245 C2244 1.366 . S
C2245 C2249 1.385 . S
C2246 H2227 0.951 . S
C2246 C2244 1.388 . S
C2246 C2247 1.366 . S
C2247 C2246 1.366 . S
C2247 C2248 1.414 . S
C2247 C2250 1.499 . S
C2248 H2228 0.950 . S
C2248 C2247 1.414 . S
C2248 C2249 1.374 . S
C2249 H2229 0.950 . S
C2249 C2245 1.385 . S
C2249 C2248 1.374 . S
C2250 C2247 1.499 . S
C2250 C2251 1.373 . S
C2250 C2252 1.389 . S
C2251 H2230 0.950 . S
C2251 C2250 1.373 . S
C2251 C2267 1.377 . S
C2252 C2250 1.389 . S
C2252 C2253 1.524 . S
C2252 C2266 1.377 . S
C2253 C2252 1.524 . S
C2253 C2254 1.397 . S
C2253 C2258 1.363 . S
C2254 H2231 0.950 . S
C2254 C2253 1.397 . S
C2254 C2255 1.334 . S
C2255 H2232 0.950 . S
C2255 C2254 1.334 . S
C2255 C2256 1.287 . S
C2256 C2255 1.287 . S
C2256 C2257 1.524 . S
C2256 H2275 0.913 . S
C2257 H2233 0.950 . S
C2257 C2256 1.524 . S
C2257 C2258 1.415 . S
C2258 H2234 0.950 . S
C2258 C2253 1.363 . S
C2258 C2257 1.415 . S
C2259 H2235 0.951 . S
C2259 C2260 1.366 . S
C2259 C2261 1.388 . S
C2260 C2259 1.366 . S
C2260 C2264 1.385 . S
C2261 H2236 0.951 . S
C2261 C2259 1.388 . S
C2261 C2262 1.366 . S
C2262 C2261 1.366 . S
C2262 C2263 1.414 . S
C2262 C2265 1.499 . S
C2263 H2237 0.950 . S
C2263 C2262 1.414 . S
C2263 C2264 1.374 . S
C2264 H2238 0.950 . S
C2264 C2260 1.385 . S
C2264 C2263 1.374 . S
C2265 C2262 1.499 . S
C2265 C2266 1.373 . S
C2265 C2267 1.389 . S
C2266 H2239 0.950 . S
C2266 C2252 1.377 . S
C2266 C2265 1.373 . S
C2267 C2251 1.377 . S
C2267 C2265 1.389 . S
C2267 C2268 1.524 . S
C2268 C2267 1.524 . S
C2268 C2269 1.397 . S
C2268 C2273 1.363 . S
C2269 H2240 0.950 . S
C2269 C2268 1.397 . S
C2269 C2270 1.334 . S
C2270 H2241 0.950 . S
C2270 C2269 1.334 . S
C2270 C2271 1.287 . S
C2271 C2270 1.287 . S
C2271 C2272 1.524 . S
C2271 H2274 0.999 . S
C2272 H2242 0.950 . S
C2272 C2271 1.524 . S
C2272 C2273 1.415 . S
C2273 H2243 0.950 . S
C2273 C2268 1.363 . S
C2273 C2272 1.415 . S
H2274 C2271 0.999 . S
H2275 C2256 0.913 . S
H2276 C2294 0.951 . S
H2277 C2296 0.951 . S
H2278 C2298 0.950 . S
H2279 C2299 0.950 . S
H2280 C2301 0.950 . S
H2281 C2304 0.950 . S
H2282 C2305 0.950 . S
H2283 C2307 0.950 . S
H2284 C2308 0.950 . S
H2285 C2309 0.951 . S
H2286 C2311 0.951 . S
H2287 C2313 0.950 . S
H2288 C2314 0.950 . S
H2289 C2316 0.950 . S
H2290 C2319 0.950 . S
H2291 C2320 0.950 . S
H2292 C2322 0.950 . S
H2293 C2323 0.950 . S
C2294 H2276 0.951 . S
C2294 C2295 1.366 . S
C2294 C2296 1.388 . S
C2295 C2294 1.366 . S
C2295 C2299 1.385 . S
C2296 H2277 0.951 . S
C2296 C2294 1.388 . S
C2296 C2297 1.366 . S
C2297 C2296 1.366 . S
C2297 C2298 1.414 . S
C2297 C2300 1.499 . S
C2298 H2278 0.950 . S
C2298 C2297 1.414 . S
C2298 C2299 1.374 . S
C2299 H2279 0.950 . S
C2299 C2295 1.385 . S
C2299 C2298 1.374 . S
C2300 C2297 1.499 . S
C2300 C2301 1.373 . S
C2300 C2302 1.389 . S
C2301 H2280 0.950 . S
C2301 C2300 1.373 . S
C2301 C2317 1.377 . S
C2302 C2300 1.389 . S
C2302 C2303 1.524 . S
C2302 C2316 1.377 . S
C2303 C2302 1.524 . S
C2303 C2304 1.397 . S
C2303 C2308 1.363 . S
C2304 H2281 0.950 . S
C2304 C2303 1.397 . S
C2304 C2305 1.334 . S
C2305 H2282 0.950 . S
C2305 C2304 1.334 . S
C2305 C2306 1.287 . S
C2306 C2305 1.287 . S
C2306 C2307 1.524 . S
C2306 H2325 0.913 . S
C2307 H2283 0.950 . S
C2307 C2306 1.524 . S
C2307 C2308 1.415 . S
C2308 H2284 0.950 . S
C2308 C2303 1.363 . S
C2308 C2307 1.415 . S
C2309 H2285 0.951 . S
C2309 C2310 1.366 . S
C2309 C2311 1.388 . S
C2310 C2309 1.366 . S
C2310 C2314 1.385 . S
C2311 H2286 0.951 . S
C2311 C2309 1.388 . S
C2311 C2312 1.366 . S
C2312 C2311 1.366 . S
C2312 C2313 1.414 . S
C2312 C2315 1.499 . S
C2313 H2287 0.950 . S
C2313 C2312 1.414 . S
C2313 C2314 1.374 . S
C2314 H2288 0.950 . S
C2314 C2310 1.385 . S
C2314 C2313 1.374 . S
C2315 C2312 1.499 . S
C2315 C2316 1.373 . S
C2315 C2317 1.389 . S
C2316 H2289 0.950 . S
C2316 C2302 1.377 . S
C2316 C2315 1.373 . S
C2317 C2301 1.377 . S
C2317 C2315 1.389 . S
C2317 C2318 1.524 . S
C2318 C2317 1.524 . S
C2318 C2319 1.397 . S
C2318 C2323 1.363 . S
C2319 H2290 0.950 . S
C2319 C2318 1.397 . S
C2319 C2320 1.334 . S
C2320 H2291 0.950 . S
C2320 C2319 1.334 . S
C2320 C2321 1.287 . S
C2321 C2320 1.287 . S
C2321 C2322 1.524 . S
C2321 H2324 0.999 . S
C2322 H2292 0.950 . S
C2322 C2321 1.524 . S
C2322 C2323 1.415 . S
C2323 H2293 0.950 . S
C2323 C2318 1.363 . S
C2323 C2322 1.415 . S
H2324 C2321 0.999 . S
H2325 C2306 0.913 . S
H2326 C2344 0.951 . S
H2327 C2346 0.951 . S
H2328 C2348 0.950 . S
H2329 C2349 0.950 . S
H2330 C2351 0.950 . S
H2331 C2354 0.950 . S
H2332 C2355 0.950 . S
H2333 C2357 0.950 . S
H2334 C2358 0.950 . S
H2335 C2359 0.951 . S
H2336 C2361 0.951 . S
H2337 C2363 0.950 . S
H2338 C2364 0.950 . S
H2339 C2366 0.950 . S
H2340 C2369 0.950 . S
H2341 C2370 0.950 . S
H2342 C2372 0.950 . S
H2343 C2373 0.950 . S
C2344 H2326 0.951 . S
C2344 C2345 1.366 . S
C2344 C2346 1.388 . S
C2345 C2344 1.366 . S
C2345 C2349 1.385 . S
C2346 H2327 0.951 . S
C2346 C2344 1.388 . S
C2346 C2347 1.366 . S
C2347 C2346 1.366 . S
C2347 C2348 1.414 . S
C2347 C2350 1.499 . S
C2348 H2328 0.950 . S
C2348 C2347 1.414 . S
C2348 C2349 1.374 . S
C2349 H2329 0.950 . S
C2349 C2345 1.385 . S
C2349 C2348 1.374 . S
C2350 C2347 1.499 . S
C2350 C2351 1.373 . S
C2350 C2352 1.389 . S
C2351 H2330 0.950 . S
C2351 C2350 1.373 . S
C2351 C2367 1.377 . S
C2352 C2350 1.389 . S
C2352 C2353 1.524 . S
C2352 C2366 1.377 . S
C2353 C2352 1.524 . S
C2353 C2354 1.397 . S
C2353 C2358 1.363 . S
C2354 H2331 0.950 . S
C2354 C2353 1.397 . S
C2354 C2355 1.334 . S
C2355 H2332 0.950 . S
C2355 C2354 1.334 . S
C2355 C2356 1.287 . S
C2356 C2355 1.287 . S
C2356 C2357 1.524 . S
C2356 H2375 0.913 . S
C2357 H2333 0.950 . S
C2357 C2356 1.524 . S
C2357 C2358 1.415 . S
C2358 H2334 0.950 . S
C2358 C2353 1.363 . S
C2358 C2357 1.415 . S
C2359 H2335 0.951 . S
C2359 C2360 1.366 . S
C2359 C2361 1.388 . S
C2360 C2359 1.366 . S
C2360 C2364 1.385 . S
C2361 H2336 0.951 . S
C2361 C2359 1.388 . S
C2361 C2362 1.366 . S
C2362 C2361 1.366 . S
C2362 C2363 1.414 . S
C2362 C2365 1.499 . S
C2363 H2337 0.950 . S
C2363 C2362 1.414 . S
C2363 C2364 1.374 . S
C2364 H2338 0.950 . S
C2364 C2360 1.385 . S
C2364 C2363 1.374 . S
C2365 C2362 1.499 . S
C2365 C2366 1.373 . S
C2365 C2367 1.389 . S
C2366 H2339 0.950 . S
C2366 C2352 1.377 . S
C2366 C2365 1.373 . S
C2367 C2351 1.377 . S
C2367 C2365 1.389 . S
C2367 C2368 1.524 . S
C2368 C2367 1.524 . S
C2368 C2369 1.397 . S
C2368 C2373 1.363 . S
C2369 H2340 0.950 . S
C2369 C2368 1.397 . S
C2369 C2370 1.334 . S
C2370 H2341 0.950 . S
C2370 C2369 1.334 . S
C2370 C2371 1.287 . S
C2371 C2370 1.287 . S
C2371 C2372 1.524 . S
C2371 H2374 0.999 . S
C2372 H2342 0.950 . S
C2372 C2371 1.524 . S
C2372 C2373 1.415 . S
C2373 H2343 0.950 . S
C2373 C2368 1.363 . S
C2373 C2372 1.415 . S
H2374 C2371 0.999 . S
H2375 C2356 0.913 . S
H2376 C2394 0.951 . S
H2377 C2396 0.951 . S
H2378 C2398 0.950 . S
H2379 C2399 0.950 . S
H2380 C2401 0.950 . S
H2381 C2404 0.950 . S
H2382 C2405 0.950 . S
H2383 C2407 0.950 . S
H2384 C2408 0.950 . S
H2385 C2409 0.951 . S
H2386 C2411 0.951 . S
H2387 C2413 0.950 . S
H2388 C2414 0.950 . S
H2389 C2416 0.950 . S
H2390 C2419 0.950 . S
H2391 C2420 0.950 . S
H2392 C2422 0.950 . S
H2393 C2423 0.950 . S
C2394 H2376 0.951 . S
C2394 C2395 1.366 . S
C2394 C2396 1.388 . S
C2395 C2394 1.366 . S
C2395 C2399 1.385 . S
C2396 H2377 0.951 . S
C2396 C2394 1.388 . S
C2396 C2397 1.366 . S
C2397 C2396 1.366 . S
C2397 C2398 1.414 . S
C2397 C2400 1.499 . S
C2398 H2378 0.950 . S
C2398 C2397 1.414 . S
C2398 C2399 1.374 . S
C2399 H2379 0.950 . S
C2399 C2395 1.385 . S
C2399 C2398 1.374 . S
C2400 C2397 1.499 . S
C2400 C2401 1.373 . S
C2400 C2402 1.389 . S
C2401 H2380 0.950 . S
C2401 C2400 1.373 . S
C2401 C2417 1.377 . S
C2402 C2400 1.389 . S
C2402 C2403 1.524 . S
C2402 C2416 1.377 . S
C2403 C2402 1.524 . S
C2403 C2404 1.397 . S
C2403 C2408 1.363 . S
C2404 H2381 0.950 . S
C2404 C2403 1.397 . S
C2404 C2405 1.334 . S
C2405 H2382 0.950 . S
C2405 C2404 1.334 . S
C2405 C2406 1.287 . S
C2406 C2405 1.287 . S
C2406 C2407 1.524 . S
C2406 H2425 0.913 . S
C2407 H2383 0.950 . S
C2407 C2406 1.524 . S
C2407 C2408 1.415 . S
C2408 H2384 0.950 . S
C2408 C2403 1.363 . S
C2408 C2407 1.415 . S
C2409 H2385 0.951 . S
C2409 C2410 1.366 . S
C2409 C2411 1.388 . S
C2410 C2409 1.366 . S
C2410 C2414 1.385 . S
C2411 H2386 0.951 . S
C2411 C2409 1.388 . S
C2411 C2412 1.366 . S
C2412 C2411 1.366 . S
C2412 C2413 1.414 . S
C2412 C2415 1.499 . S
C2413 H2387 0.950 . S
C2413 C2412 1.414 . S
C2413 C2414 1.374 . S
C2414 H2388 0.950 . S
C2414 C2410 1.385 . S
C2414 C2413 1.374 . S
C2415 C2412 1.499 . S
C2415 C2416 1.373 . S
C2415 C2417 1.389 . S
C2416 H2389 0.950 . S
C2416 C2402 1.377 . S
C2416 C2415 1.373 . S
C2417 C2401 1.377 . S
C2417 C2415 1.389 . S
C2417 C2418 1.524 . S
C2418 C2417 1.524 . S
C2418 C2419 1.397 . S
C2418 C2423 1.363 . S
C2419 H2390 0.950 . S
C2419 C2418 1.397 . S
C2419 C2420 1.334 1_455 S
C2420 H2391 0.950 . S
C2420 C2419 1.334 1_655 S
C2420 C2421 1.287 . S
C2421 C2420 1.287 . S
C2421 C2422 1.524 . S
C2421 H2424 0.999 . S
C2422 H2392 0.950 . S
C2422 C2421 1.524 . S
C2422 C2423 1.415 1_655 S
C2423 H2393 0.950 . S
C2423 C2418 1.363 . S
C2423 C2422 1.415 1_455 S
H2424 C2421 0.999 . S
H2425 C2406 0.913 . S
H2426 C2444 0.951 . S
H2427 C2446 0.951 . S
H2428 C2448 0.950 . S
H2429 C2449 0.950 . S
H2430 C2451 0.950 . S
H2431 C2454 0.950 . S
H2432 C2455 0.950 . S
H2433 C2457 0.950 . S
H2434 C2458 0.950 . S
H2435 C2459 0.951 . S
H2436 C2461 0.951 . S
H2437 C2463 0.950 . S
H2438 C2464 0.950 . S
H2439 C2466 0.950 . S
H2440 C2469 0.950 . S
H2441 C2470 0.950 . S
H2442 C2472 0.950 . S
H2443 C2473 0.950 . S
C2444 H2426 0.951 . S
C2444 C2445 1.366 . S
C2444 C2446 1.388 . S
C2445 C2444 1.366 . S
C2445 C2449 1.385 . S
C2446 H2427 0.951 . S
C2446 C2444 1.388 . S
C2446 C2447 1.366 . S
C2447 C2446 1.366 . S
C2447 C2448 1.414 . S
C2447 C2450 1.499 . S
C2448 H2428 0.950 . S
C2448 C2447 1.414 . S
C2448 C2449 1.374 . S
C2449 H2429 0.950 . S
C2449 C2445 1.385 . S
C2449 C2448 1.374 . S
C2450 C2447 1.499 . S
C2450 C2451 1.373 . S
C2450 C2452 1.389 . S
C2451 H2430 0.950 . S
C2451 C2450 1.373 . S
C2451 C2467 1.377 . S
C2452 C2450 1.389 . S
C2452 C2453 1.524 . S
C2452 C2466 1.377 . S
C2453 C2452 1.524 . S
C2453 C2454 1.397 . S
C2453 C2458 1.363 . S
C2454 H2431 0.950 . S
C2454 C2453 1.397 . S
C2454 C2455 1.334 . S
C2455 H2432 0.950 . S
C2455 C2454 1.334 . S
C2455 C2456 1.287 . S
C2456 C2455 1.287 . S
C2456 C2457 1.524 . S
C2456 H2475 0.913 . S
C2457 H2433 0.950 . S
C2457 C2456 1.524 . S
C2457 C2458 1.415 . S
C2458 H2434 0.950 . S
C2458 C2453 1.363 . S
C2458 C2457 1.415 . S
C2459 H2435 0.951 . S
C2459 C2460 1.366 . S
C2459 C2461 1.388 . S
C2460 C2459 1.366 . S
C2460 C2464 1.385 . S
C2461 H2436 0.951 . S
C2461 C2459 1.388 . S
C2461 C2462 1.366 . S
C2462 C2461 1.366 . S
C2462 C2463 1.414 . S
C2462 C2465 1.499 . S
C2463 H2437 0.950 . S
C2463 C2462 1.414 . S
C2463 C2464 1.374 . S
C2464 H2438 0.950 . S
C2464 C2460 1.385 . S
C2464 C2463 1.374 . S
C2465 C2462 1.499 . S
C2465 C2466 1.373 . S
C2465 C2467 1.389 . S
C2466 H2439 0.950 . S
C2466 C2452 1.377 . S
C2466 C2465 1.373 . S
C2467 C2451 1.377 . S
C2467 C2465 1.389 . S
C2467 C2468 1.524 . S
C2468 C2467 1.524 . S
C2468 C2469 1.397 . S
C2468 C2473 1.363 . S
C2469 H2440 0.950 . S
C2469 C2468 1.397 . S
C2469 C2470 1.334 . S
C2470 H2441 0.950 . S
C2470 C2469 1.334 . S
C2470 C2471 1.287 . S
C2471 C2470 1.287 . S
C2471 C2472 1.524 . S
C2471 H2474 0.999 . S
C2472 H2442 0.950 . S
C2472 C2471 1.524 . S
C2472 C2473 1.415 . S
C2473 H2443 0.950 . S
C2473 C2468 1.363 . S
C2473 C2472 1.415 . S
H2474 C2471 0.999 . S
H2475 C2456 0.913 . S
H2476 C2494 0.951 . S
H2477 C2496 0.951 . S
H2478 C2498 0.950 . S
H2479 C2499 0.950 . S
H2480 C2501 0.950 . S
H2481 C2504 0.950 . S
H2482 C2505 0.950 . S
H2483 C2507 0.950 . S
H2484 C2508 0.950 . S
H2485 C2509 0.951 1_545 S
H2486 C2511 0.951 . S
H2487 C2513 0.950 . S
H2488 C2514 0.950 . S
H2489 C2516 0.950 . S
H2490 C2519 0.950 . S
H2491 C2520 0.950 . S
H2492 C2522 0.950 . S
H2493 C2523 0.950 . S
C2494 H2476 0.951 . S
C2494 C2495 1.366 . S
C2494 C2496 1.388 . S
C2495 C2494 1.366 . S
C2495 C2499 1.385 . S
C2496 H2477 0.951 . S
C2496 C2494 1.388 . S
C2496 C2497 1.366 . S
C2497 C2496 1.366 . S
C2497 C2498 1.414 . S
C2497 C2500 1.499 . S
C2498 H2478 0.950 . S
C2498 C2497 1.414 . S
C2498 C2499 1.374 . S
C2499 H2479 0.950 . S
C2499 C2495 1.385 . S
C2499 C2498 1.374 . S
C2500 C2497 1.499 . S
C2500 C2501 1.373 . S
C2500 C2502 1.389 . S
C2501 H2480 0.950 . S
C2501 C2500 1.373 . S
C2501 C2517 1.377 . S
C2502 C2500 1.389 . S
C2502 C2503 1.524 . S
C2502 C2516 1.377 . S
C2503 C2502 1.524 . S
C2503 C2504 1.397 . S
C2503 C2508 1.363 . S
C2504 H2481 0.950 . S
C2504 C2503 1.397 . S
C2504 C2505 1.334 . S
C2505 H2482 0.950 . S
C2505 C2504 1.334 . S
C2505 C2506 1.287 . S
C2506 C2505 1.287 . S
C2506 C2507 1.524 . S
C2506 H2525 0.913 . S
C2507 H2483 0.950 . S
C2507 C2506 1.524 . S
C2507 C2508 1.415 . S
C2508 H2484 0.950 . S
C2508 C2503 1.363 . S
C2508 C2507 1.415 . S
C2509 H2485 0.951 1_565 S
C2509 C2510 1.366 . S
C2509 C2511 1.388 . S
C2510 C2509 1.366 . S
C2510 C2514 1.385 . S
C2511 H2486 0.951 . S
C2511 C2509 1.388 . S
C2511 C2512 1.366 . S
C2512 C2511 1.366 . S
C2512 C2513 1.414 . S
C2512 C2515 1.499 . S
C2513 H2487 0.950 . S
C2513 C2512 1.414 . S
C2513 C2514 1.374 . S
C2514 H2488 0.950 . S
C2514 C2510 1.385 . S
C2514 C2513 1.374 . S
C2515 C2512 1.499 . S
C2515 C2516 1.373 . S
C2515 C2517 1.389 . S
C2516 H2489 0.950 . S
C2516 C2502 1.377 . S
C2516 C2515 1.373 . S
C2517 C2501 1.377 . S
C2517 C2515 1.389 . S
C2517 C2518 1.524 . S
C2518 C2517 1.524 . S
C2518 C2519 1.397 . S
C2518 C2523 1.363 . S
C2519 H2490 0.950 . S
C2519 C2518 1.397 . S
C2519 C2520 1.334 1_556 S
C2520 H2491 0.950 . S
C2520 C2519 1.334 1_554 S
C2520 C2521 1.287 . S
C2521 C2520 1.287 . S
C2521 C2522 1.524 1_554 S
C2521 H2524 0.999 . S
C2522 H2492 0.950 . S
C2522 C2521 1.524 1_556 S
C2522 C2523 1.415 . S
C2523 H2493 0.950 . S
C2523 C2518 1.363 . S
C2523 C2522 1.415 . S
H2524 C2521 0.999 . S
H2525 C2506 0.913 . S
H2526 C2544 0.951 . S
H2527 C2546 0.951 . S
H2528 C2548 0.950 . S
H2529 C2549 0.950 . S
H2530 C2551 0.950 . S
H2531 C2554 0.950 . S
H2532 C2555 0.950 . S
H2533 C2557 0.950 . S
H2534 C2558 0.950 . S
H2535 C2559 0.951 . S
H2536 C2561 0.951 . S
H2537 C2563 0.950 . S
H2538 C2564 0.950 . S
H2539 C2566 0.950 . S
H2540 C2569 0.950 . S
H2541 C2570 0.950 . S
H2542 C2572 0.950 . S
H2543 C2573 0.950 . S
C2544 H2526 0.951 . S
C2544 C2545 1.366 . S
C2544 C2546 1.388 . S
C2545 C2544 1.366 . S
C2545 C2549 1.385 . S
C2546 H2527 0.951 . S
C2546 C2544 1.388 . S
C2546 C2547 1.366 . S
C2547 C2546 1.366 . S
C2547 C2548 1.414 . S
C2547 C2550 1.499 . S
C2548 H2528 0.950 . S
C2548 C2547 1.414 . S
C2548 C2549 1.374 . S
C2549 H2529 0.950 . S
C2549 C2545 1.385 . S
C2549 C2548 1.374 . S
C2550 C2547 1.499 . S
C2550 C2551 1.373 . S
C2550 C2552 1.389 . S
C2551 H2530 0.950 . S
C2551 C2550 1.373 . S
C2551 C2567 1.377 . S
C2552 C2550 1.389 . S
C2552 C2553 1.524 . S
C2552 C2566 1.377 . S
C2553 C2552 1.524 . S
C2553 C2554 1.397 . S
C2553 C2558 1.363 . S
C2554 H2531 0.950 . S
C2554 C2553 1.397 . S
C2554 C2555 1.334 . S
C2555 H2532 0.950 . S
C2555 C2554 1.334 . S
C2555 C2556 1.287 . S
C2556 C2555 1.287 . S
C2556 C2557 1.524 . S
C2556 H2575 0.913 . S
C2557 H2533 0.950 . S
C2557 C2556 1.524 . S
C2557 C2558 1.415 . S
C2558 H2534 0.950 . S
C2558 C2553 1.363 . S
C2558 C2557 1.415 . S
C2559 H2535 0.951 . S
C2559 C2560 1.366 . S
C2559 C2561 1.388 . S
C2560 C2559 1.366 . S
C2560 C2564 1.385 . S
C2561 H2536 0.951 . S
C2561 C2559 1.388 . S
C2561 C2562 1.366 . S
C2562 C2561 1.366 . S
C2562 C2563 1.414 . S
C2562 C2565 1.499 . S
C2563 H2537 0.950 . S
C2563 C2562 1.414 . S
C2563 C2564 1.374 . S
C2564 H2538 0.950 . S
C2564 C2560 1.385 . S
C2564 C2563 1.374 . S
C2565 C2562 1.499 . S
C2565 C2566 1.373 . S
C2565 C2567 1.389 . S
C2566 H2539 0.950 . S
C2566 C2552 1.377 . S
C2566 C2565 1.373 . S
C2567 C2551 1.377 . S
C2567 C2565 1.389 . S
C2567 C2568 1.524 . S
C2568 C2567 1.524 . S
C2568 C2569 1.397 . S
C2568 C2573 1.363 . S
C2569 H2540 0.950 . S
C2569 C2568 1.397 . S
C2569 C2570 1.334 . S
C2570 H2541 0.950 . S
C2570 C2569 1.334 . S
C2570 C2571 1.287 . S
C2571 C2570 1.287 . S
C2571 C2572 1.524 . S
C2571 H2574 0.999 . S
C2572 H2542 0.950 . S
C2572 C2571 1.524 . S
C2572 C2573 1.415 . S
C2573 H2543 0.950 . S
C2573 C2568 1.363 . S
C2573 C2572 1.415 . S
H2574 C2571 0.999 . S
H2575 C2556 0.913 . S
H2576 C2594 0.951 . S
H2577 C2596 0.951 . S
H2578 C2598 0.950 . S
H2579 C2599 0.950 . S
H2580 C2601 0.950 . S
H2581 C2604 0.950 . S
H2582 C2605 0.950 . S
H2583 C2607 0.950 . S
H2584 C2608 0.950 . S
H2585 C2609 0.951 1_565 S
H2586 C2611 0.951 1_565 S
H2587 C2613 0.950 . S
H2588 C2614 0.950 . S
H2589 C2616 0.950 . S
H2590 C2619 0.950 . S
H2591 C2620 0.950 . S
H2592 C2622 0.950 . S
H2593 C2623 0.950 . S
C2594 H2576 0.951 . S
C2594 C2595 1.366 . S
C2594 C2596 1.388 . S
C2595 C2594 1.366 . S
C2595 C2599 1.385 1_545 S
C2596 H2577 0.951 . S
C2596 C2594 1.388 . S
C2596 C2597 1.366 . S
C2597 C2596 1.366 . S
C2597 C2598 1.414 1_545 S
C2597 C2600 1.499 . S
C2598 H2578 0.950 . S
C2598 C2597 1.414 1_565 S
C2598 C2599 1.374 . S
C2599 H2579 0.950 . S
C2599 C2595 1.385 1_565 S
C2599 C2598 1.374 . S
C2600 C2597 1.499 . S
C2600 C2601 1.373 1_545 S
C2600 C2602 1.389 . S
C2601 H2580 0.950 . S
C2601 C2600 1.373 1_565 S
C2601 C2617 1.377 . S
C2602 C2600 1.389 . S
C2602 C2603 1.524 . S
C2602 C2616 1.377 . S
C2603 C2602 1.524 . S
C2603 C2604 1.397 . S
C2603 C2608 1.363 . S
C2604 H2581 0.950 . S
C2604 C2603 1.397 . S
C2604 C2605 1.334 . S
C2605 H2582 0.950 . S
C2605 C2604 1.334 . S
C2605 C2606 1.287 . S
C2606 C2605 1.287 . S
C2606 C2607 1.524 . S
C2606 H2625 0.913 . S
C2607 H2583 0.950 . S
C2607 C2606 1.524 . S
C2607 C2608 1.415 . S
C2608 H2584 0.950 . S
C2608 C2603 1.363 . S
C2608 C2607 1.415 . S
C2609 H2585 0.951 1_545 S
C2609 C2610 1.366 . S
C2609 C2611 1.388 . S
C2610 C2609 1.366 . S
C2610 C2614 1.385 . S
C2611 H2586 0.951 1_545 S
C2611 C2609 1.388 . S
C2611 C2612 1.366 . S
C2612 C2611 1.366 . S
C2612 C2613 1.414 . S
C2612 C2615 1.499 . S
C2613 H2587 0.950 . S
C2613 C2612 1.414 . S
C2613 C2614 1.374 . S
C2614 H2588 0.950 . S
C2614 C2610 1.385 . S
C2614 C2613 1.374 . S
C2615 C2612 1.499 . S
C2615 C2616 1.373 . S
C2615 C2617 1.389 1_545 S
C2616 H2589 0.950 . S
C2616 C2602 1.377 . S
C2616 C2615 1.373 . S
C2617 C2601 1.377 . S
C2617 C2615 1.389 1_565 S
C2617 C2618 1.524 . S
C2618 C2617 1.524 . S
C2618 C2619 1.397 . S
C2618 C2623 1.363 . S
C2619 H2590 0.950 . S
C2619 C2618 1.397 . S
C2619 C2620 1.334 . S
C2620 H2591 0.950 . S
C2620 C2619 1.334 . S
C2620 C2621 1.287 . S
C2621 C2620 1.287 . S
C2621 C2622 1.524 . S
C2621 H2624 0.999 . S
C2622 H2592 0.950 . S
C2622 C2621 1.524 . S
C2622 C2623 1.415 . S
C2623 H2593 0.950 . S
C2623 C2618 1.363 . S
C2623 C2622 1.415 . S
H2624 C2621 0.999 . S
H2625 C2606 0.913 . S
H2626 C2644 0.951 . S
H2627 C2646 0.951 . S
H2628 C2648 0.950 . S
H2629 C2649 0.950 . S
H2630 C2651 0.950 . S
H2631 C2654 0.950 . S
H2632 C2655 0.950 . S
H2633 C2657 0.950 . S
H2634 C2658 0.950 . S
H2635 C2659 0.951 . S
H2636 C2661 0.951 . S
H2637 C2663 0.950 . S
H2638 C2664 0.950 . S
H2639 C2666 0.950 . S
H2640 C2669 0.950 . S
H2641 C2670 0.950 . S
H2642 C2672 0.950 . S
H2643 C2673 0.950 . S
C2644 H2626 0.951 . S
C2644 C2645 1.366 . S
C2644 C2646 1.388 . S
C2645 C2644 1.366 . S
C2645 C2649 1.385 . S
C2646 H2627 0.951 . S
C2646 C2644 1.388 . S
C2646 C2647 1.366 . S
C2647 C2646 1.366 . S
C2647 C2648 1.414 . S
C2647 C2650 1.499 . S
C2648 H2628 0.950 . S
C2648 C2647 1.414 . S
C2648 C2649 1.374 . S
C2649 H2629 0.950 . S
C2649 C2645 1.385 . S
C2649 C2648 1.374 . S
C2650 C2647 1.499 . S
C2650 C2651 1.373 . S
C2650 C2652 1.389 . S
C2651 H2630 0.950 . S
C2651 C2650 1.373 . S
C2651 C2667 1.377 . S
C2652 C2650 1.389 . S
C2652 C2653 1.524 . S
C2652 C2666 1.377 . S
C2653 C2652 1.524 . S
C2653 C2654 1.397 . S
C2653 C2658 1.363 . S
C2654 H2631 0.950 . S
C2654 C2653 1.397 . S
C2654 C2655 1.334 . S
C2655 H2632 0.950 . S
C2655 C2654 1.334 . S
C2655 C2656 1.287 . S
C2656 C2655 1.287 . S
C2656 C2657 1.524 . S
C2656 H2675 0.913 . S
C2657 H2633 0.950 . S
C2657 C2656 1.524 . S
C2657 C2658 1.415 . S
C2658 H2634 0.950 . S
C2658 C2653 1.363 . S
C2658 C2657 1.415 . S
C2659 H2635 0.951 . S
C2659 C2660 1.366 . S
C2659 C2661 1.388 . S
C2660 C2659 1.366 . S
C2660 C2664 1.385 . S
C2661 H2636 0.951 . S
C2661 C2659 1.388 . S
C2661 C2662 1.366 . S
C2662 C2661 1.366 . S
C2662 C2663 1.414 . S
C2662 C2665 1.499 . S
C2663 H2637 0.950 . S
C2663 C2662 1.414 . S
C2663 C2664 1.374 . S
C2664 H2638 0.950 . S
C2664 C2660 1.385 . S
C2664 C2663 1.374 . S
C2665 C2662 1.499 . S
C2665 C2666 1.373 . S
C2665 C2667 1.389 . S
C2666 H2639 0.950 . S
C2666 C2652 1.377 . S
C2666 C2665 1.373 . S
C2667 C2651 1.377 . S
C2667 C2665 1.389 . S
C2667 C2668 1.524 . S
C2668 C2667 1.524 . S
C2668 C2669 1.397 . S
C2668 C2673 1.363 . S
C2669 H2640 0.950 . S
C2669 C2668 1.397 . S
C2669 C2670 1.334 . S
C2670 H2641 0.950 . S
C2670 C2669 1.334 . S
C2670 C2671 1.287 . S
C2671 C2670 1.287 . S
C2671 C2672 1.524 . S
C2671 H2674 0.999 . S
C2672 H2642 0.950 . S
C2672 C2671 1.524 . S
C2672 C2673 1.415 . S
C2673 H2643 0.950 . S
C2673 C2668 1.363 . S
C2673 C2672 1.415 . S
H2674 C2671 0.999 . S
H2675 C2656 0.913 . S
H2676 C2694 0.951 . S
H2677 C2696 0.951 . S
H2678 C2698 0.950 . S
H2679 C2699 0.950 . S
H2680 C2701 0.950 . S
H2681 C2704 0.950 . S
H2682 C2705 0.950 . S
H2683 C2707 0.950 . S
H2684 C2708 0.950 . S
H2685 C2709 0.951 . S
H2686 C2711 0.951 . S
H2687 C2713 0.950 . S
H2688 C2714 0.950 . S
H2689 C2716 0.950 . S
H2690 C2719 0.950 . S
H2691 C2720 0.950 . S
H2692 C2722 0.950 . S
H2693 C2723 0.950 . S
C2694 H2676 0.951 . S
C2694 C2695 1.366 . S
C2694 C2696 1.388 . S
C2695 C2694 1.366 . S
C2695 C2699 1.385 . S
C2696 H2677 0.951 . S
C2696 C2694 1.388 . S
C2696 C2697 1.366 . S
C2697 C2696 1.366 . S
C2697 C2698 1.414 . S
C2697 C2700 1.499 . S
C2698 H2678 0.950 . S
C2698 C2697 1.414 . S
C2698 C2699 1.374 . S
C2699 H2679 0.950 . S
C2699 C2695 1.385 . S
C2699 C2698 1.374 . S
C2700 C2697 1.499 . S
C2700 C2701 1.373 . S
C2700 C2702 1.389 . S
C2701 H2680 0.950 . S
C2701 C2700 1.373 . S
C2701 C2717 1.377 . S
C2702 C2700 1.389 . S
C2702 C2703 1.524 1_545 S
C2702 C2716 1.377 . S
C2703 C2702 1.524 1_565 S
C2703 C2704 1.397 . S
C2703 C2708 1.363 . S
C2704 H2681 0.950 . S
C2704 C2703 1.397 . S
C2704 C2705 1.334 . S
C2705 H2682 0.950 . S
C2705 C2704 1.334 . S
C2705 C2706 1.287 . S
C2706 C2705 1.287 . S
C2706 C2707 1.524 . S
C2706 H2725 0.913 . S
C2707 H2683 0.950 . S
C2707 C2706 1.524 . S
C2707 C2708 1.415 . S
C2708 H2684 0.950 . S
C2708 C2703 1.363 . S
C2708 C2707 1.415 . S
C2709 H2685 0.951 . S
C2709 C2710 1.366 . S
C2709 C2711 1.388 . S
C2710 C2709 1.366 . S
C2710 C2714 1.385 . S
C2711 H2686 0.951 . S
C2711 C2709 1.388 . S
C2711 C2712 1.366 . S
C2712 C2711 1.366 . S
C2712 C2713 1.414 . S
C2712 C2715 1.499 . S
C2713 H2687 0.950 . S
C2713 C2712 1.414 . S
C2713 C2714 1.374 . S
C2714 H2688 0.950 . S
C2714 C2710 1.385 . S
C2714 C2713 1.374 . S
C2715 C2712 1.499 . S
C2715 C2716 1.373 . S
C2715 C2717 1.389 . S
C2716 H2689 0.950 . S
C2716 C2702 1.377 . S
C2716 C2715 1.373 . S
C2717 C2701 1.377 . S
C2717 C2715 1.389 . S
C2717 C2718 1.524 . S
C2718 C2717 1.524 . S
C2718 C2719 1.397 . S
C2718 C2723 1.363 . S
C2719 H2690 0.950 . S
C2719 C2718 1.397 . S
C2719 C2720 1.334 . S
C2720 H2691 0.950 . S
C2720 C2719 1.334 . S
C2720 C2721 1.287 . S
C2721 C2720 1.287 . S
C2721 C2722 1.524 . S
C2721 H2724 0.999 . S
C2722 H2692 0.950 . S
C2722 C2721 1.524 . S
C2722 C2723 1.415 . S
C2723 H2693 0.950 . S
C2723 C2718 1.363 . S
C2723 C2722 1.415 . S
H2724 C2721 0.999 . S
H2725 C2706 0.913 . S
H2726 C2744 0.951 . S
H2727 C2746 0.951 . S
H2728 C2748 0.950 . S
H2729 C2749 0.950 . S
H2730 C2751 0.950 . S
H2731 C2754 0.950 . S
H2732 C2755 0.950 . S
H2733 C2757 0.950 . S
H2734 C2758 0.950 . S
H2735 C2759 0.951 . S
H2736 C2761 0.951 . S
H2737 C2763 0.950 . S
H2738 C2764 0.950 . S
H2739 C2766 0.950 . S
H2740 C2769 0.950 . S
H2741 C2770 0.950 . S
H2742 C2772 0.950 . S
H2743 C2773 0.950 . S
C2744 H2726 0.951 . S
C2744 C2745 1.366 . S
C2744 C2746 1.388 . S
C2745 C2744 1.366 . S
C2745 C2749 1.385 . S
C2746 H2727 0.951 . S
C2746 C2744 1.388 . S
C2746 C2747 1.366 . S
C2747 C2746 1.366 . S
C2747 C2748 1.414 . S
C2747 C2750 1.499 . S
C2748 H2728 0.950 . S
C2748 C2747 1.414 . S
C2748 C2749 1.374 . S
C2749 H2729 0.950 . S
C2749 C2745 1.385 . S
C2749 C2748 1.374 . S
C2750 C2747 1.499 . S
C2750 C2751 1.373 . S
C2750 C2752 1.389 . S
C2751 H2730 0.950 . S
C2751 C2750 1.373 . S
C2751 C2767 1.377 . S
C2752 C2750 1.389 . S
C2752 C2753 1.524 . S
C2752 C2766 1.377 . S
C2753 C2752 1.524 . S
C2753 C2754 1.397 . S
C2753 C2758 1.363 . S
C2754 H2731 0.950 . S
C2754 C2753 1.397 . S
C2754 C2755 1.334 . S
C2755 H2732 0.950 . S
C2755 C2754 1.334 . S
C2755 C2756 1.287 . S
C2756 C2755 1.287 . S
C2756 C2757 1.524 . S
C2756 H2775 0.913 . S
C2757 H2733 0.950 . S
C2757 C2756 1.524 . S
C2757 C2758 1.415 . S
C2758 H2734 0.950 . S
C2758 C2753 1.363 . S
C2758 C2757 1.415 . S
C2759 H2735 0.951 . S
C2759 C2760 1.366 . S
C2759 C2761 1.388 . S
C2760 C2759 1.366 . S
C2760 C2764 1.385 . S
C2761 H2736 0.951 . S
C2761 C2759 1.388 . S
C2761 C2762 1.366 . S
C2762 C2761 1.366 . S
C2762 C2763 1.414 . S
C2762 C2765 1.499 . S
C2763 H2737 0.950 . S
C2763 C2762 1.414 . S
C2763 C2764 1.374 . S
C2764 H2738 0.950 . S
C2764 C2760 1.385 . S
C2764 C2763 1.374 . S
C2765 C2762 1.499 . S
C2765 C2766 1.373 . S
C2765 C2767 1.389 . S
C2766 H2739 0.950 . S
C2766 C2752 1.377 . S
C2766 C2765 1.373 . S
C2767 C2751 1.377 . S
C2767 C2765 1.389 . S
C2767 C2768 1.524 . S
C2768 C2767 1.524 . S
C2768 C2769 1.397 . S
C2768 C2773 1.363 . S
C2769 H2740 0.950 . S
C2769 C2768 1.397 . S
C2769 C2770 1.334 . S
C2770 H2741 0.950 . S
C2770 C2769 1.334 . S
C2770 C2771 1.287 . S
C2771 C2770 1.287 . S
C2771 C2772 1.524 . S
C2771 H2774 0.999 . S
C2772 H2742 0.950 . S
C2772 C2771 1.524 . S
C2772 C2773 1.415 . S
C2773 H2743 0.950 . S
C2773 C2768 1.363 . S
C2773 C2772 1.415 . S
H2774 C2771 0.999 . S
H2775 C2756 0.913 . S
H2776 C2794 0.951 . S
H2777 C2796 0.951 . S
H2778 C2798 0.950 . S
H2779 C2799 0.951 . S
H2780 C2801 0.950 . S
H2781 C2804 0.950 . S
H2782 C2805 0.950 . S
H2783 C2807 0.950 . S
H2784 C2808 0.950 . S
H2785 C2809 0.951 . S
H2786 C2811 0.951 . S
H2787 C2813 0.950 . S
H2788 C2814 0.950 . S
H2789 C2816 0.950 . S
H2790 C2819 0.950 . S
H2791 C2820 0.950 . S
H2792 C2822 0.950 . S
H2793 C2823 0.950 . S
C2794 H2776 0.951 . S
C2794 C2795 1.366 . S
C2794 C2796 1.388 . S
C2795 C2794 1.366 . S
C2795 C2799 1.376 1_565 S
C2796 H2777 0.951 . S
C2796 C2794 1.388 . S
C2796 C2797 1.366 1_565 S
C2797 C2796 1.366 1_545 S
C2797 C2798 1.414 . S
C2797 C2800 1.499 . S
C2798 H2778 0.950 . S
C2798 C2797 1.414 . S
C2798 C2799 1.382 . S
C2799 H2779 0.951 . S
C2799 C2795 1.376 1_545 S
C2799 C2798 1.382 . S
C2800 C2797 1.499 . S
C2800 C2801 1.373 1_545 S
C2800 C2802 1.389 . S
C2801 H2780 0.950 . S
C2801 C2800 1.373 1_565 S
C2801 C2817 1.378 . S
C2802 C2800 1.389 . S
C2802 C2803 1.524 . S
C2802 C2816 1.377 . S
C2803 C2802 1.524 . S
C2803 C2804 1.397 . S
C2803 C2808 1.363 . S
C2804 H2781 0.950 . S
C2804 C2803 1.397 . S
C2804 C2805 1.334 . S
C2805 H2782 0.950 . S
C2805 C2804 1.334 . S
C2805 C2806 1.287 . S
C2806 C2805 1.287 . S
C2806 C2807 1.524 . S
C2806 H2825 0.913 . S
C2807 H2783 0.950 . S
C2807 C2806 1.524 . S
C2807 C2808 1.415 . S
C2808 H2784 0.950 . S
C2808 C2803 1.363 . S
C2808 C2807 1.415 . S
C2809 H2785 0.951 . S
C2809 C2810 1.366 . S
C2809 C2811 1.388 . S
C2810 C2809 1.366 . S
C2810 C2814 1.385 . S
C2811 H2786 0.951 . S
C2811 C2809 1.388 . S
C2811 C2812 1.366 . S
C2812 C2811 1.366 . S
C2812 C2813 1.414 . S
C2812 C2815 1.499 . S
C2813 H2787 0.950 . S
C2813 C2812 1.414 . S
C2813 C2814 1.374 . S
C2814 H2788 0.950 . S
C2814 C2810 1.385 . S
C2814 C2813 1.374 . S
C2815 C2812 1.499 . S
C2815 C2816 1.373 . S
C2815 C2817 1.386 1_545 S
C2816 H2789 0.950 . S
C2816 C2802 1.377 . S
C2816 C2815 1.373 . S
C2817 C2801 1.378 . S
C2817 C2815 1.386 1_565 S
C2817 C2818 1.526 . S
C2818 C2817 1.526 . S
C2818 C2819 1.397 . S
C2818 C2823 1.363 . S
C2819 H2790 0.950 . S
C2819 C2818 1.397 . S
C2819 C2820 1.334 . S
C2820 H2791 0.950 . S
C2820 C2819 1.334 . S
C2820 C2821 1.287 . S
C2821 C2820 1.287 . S
C2821 C2822 1.524 . S
C2821 H2824 0.999 . S
C2822 H2792 0.950 . S
C2822 C2821 1.524 . S
C2822 C2823 1.415 . S
C2823 H2793 0.950 . S
C2823 C2818 1.363 . S
C2823 C2822 1.415 . S
H2824 C2821 0.999 . S
H2825 C2806 0.913 . S
H2826 C2844 0.951 . S
H2827 C2846 0.951 . S
H2828 C2848 0.950 . S
H2829 C2849 0.950 . S
H2830 C2851 0.950 . S
H2831 C2854 0.950 . S
H2832 C2855 0.950 . S
H2833 C2857 0.950 . S
H2834 C2858 0.950 . S
H2835 C2859 0.951 . S
H2836 C2861 0.951 . S
H2837 C2863 0.950 . S
H2838 C2864 0.950 . S
H2839 C2866 0.950 . S
H2840 C2869 0.950 . S
H2841 C2870 0.950 . S
H2842 C2872 0.950 . S
H2843 C2873 0.950 . S
C2844 H2826 0.951 . S
C2844 C2845 1.366 . S
C2844 C2846 1.388 . S
C2845 C2844 1.366 . S
C2845 C2849 1.385 . S
C2846 H2827 0.951 . S
C2846 C2844 1.388 . S
C2846 C2847 1.366 . S
C2847 C2846 1.366 . S
C2847 C2848 1.414 . S
C2847 C2850 1.499 . S
C2848 H2828 0.950 . S
C2848 C2847 1.414 . S
C2848 C2849 1.374 . S
C2849 H2829 0.950 . S
C2849 C2845 1.385 . S
C2849 C2848 1.374 . S
C2850 C2847 1.499 . S
C2850 C2851 1.373 . S
C2850 C2852 1.389 . S
C2851 H2830 0.950 . S
C2851 C2850 1.373 . S
C2851 C2867 1.377 . S
C2852 C2850 1.389 . S
C2852 C2853 1.524 . S
C2852 C2866 1.377 . S
C2853 C2852 1.524 . S
C2853 C2854 1.397 . S
C2853 C2858 1.363 . S
C2854 H2831 0.950 . S
C2854 C2853 1.397 . S
C2854 C2855 1.334 . S
C2855 H2832 0.950 . S
C2855 C2854 1.334 . S
C2855 C2856 1.287 . S
C2856 C2855 1.287 . S
C2856 C2857 1.524 . S
C2856 H2875 0.913 . S
C2857 H2833 0.950 . S
C2857 C2856 1.524 . S
C2857 C2858 1.415 . S
C2858 H2834 0.950 . S
C2858 C2853 1.363 . S
C2858 C2857 1.415 . S
C2859 H2835 0.951 . S
C2859 C2860 1.366 . S
C2859 C2861 1.388 . S
C2860 C2859 1.366 . S
C2860 C2864 1.385 . S
C2861 H2836 0.951 . S
C2861 C2859 1.388 . S
C2861 C2862 1.366 . S
C2862 C2861 1.366 . S
C2862 C2863 1.414 . S
C2862 C2865 1.499 . S
C2863 H2837 0.950 . S
C2863 C2862 1.414 . S
C2863 C2864 1.374 . S
C2864 H2838 0.950 . S
C2864 C2860 1.385 . S
C2864 C2863 1.374 . S
C2865 C2862 1.499 . S
C2865 C2866 1.373 . S
C2865 C2867 1.389 . S
C2866 H2839 0.950 . S
C2866 C2852 1.377 . S
C2866 C2865 1.373 . S
C2867 C2851 1.377 . S
C2867 C2865 1.389 . S
C2867 C2868 1.524 . S
C2868 C2867 1.524 . S
C2868 C2869 1.397 . S
C2868 C2873 1.363 . S
C2869 H2840 0.950 . S
C2869 C2868 1.397 . S
C2869 C2870 1.334 . S
C2870 H2841 0.950 . S
C2870 C2869 1.334 . S
C2870 C2871 1.287 . S
C2871 C2870 1.287 . S
C2871 C2872 1.524 . S
C2871 H2874 0.999 . S
C2872 H2842 0.950 . S
C2872 C2871 1.524 . S
C2872 C2873 1.415 . S
C2873 H2843 0.950 . S
C2873 C2868 1.363 . S
C2873 C2872 1.415 . S
H2874 C2871 0.999 . S
H2875 C2856 0.913 . S
H2876 C2894 0.951 . S
H2877 C2896 0.951 . S
H2878 C2898 0.950 . S
H2879 C2899 0.950 . S
H2880 C2901 0.950 . S
H2881 C2904 0.950 . S
H2882 C2905 0.950 . S
H2883 C2907 0.950 . S
H2884 C2908 0.950 . S
H2885 C2909 0.951 . S
H2886 C2911 0.951 . S
H2887 C2913 0.950 . S
H2888 C2914 0.950 . S
H2889 C2916 0.950 . S
H2890 C2919 0.950 . S
H2891 C2920 0.950 . S
H2892 C2922 0.950 1_565 S
H2893 C2923 0.927 1_565 S
C2894 H2876 0.951 . S
C2894 C2895 1.366 . S
C2894 C2896 1.388 . S
C2895 C2894 1.366 . S
C2895 C2899 1.385 1_545 S
C2896 H2877 0.951 . S
C2896 C2894 1.388 . S
C2896 C2897 1.366 . S
C2897 C2896 1.366 . S
C2897 C2898 1.414 1_545 S
C2897 C2900 1.499 . S
C2898 H2878 0.950 . S
C2898 C2897 1.414 1_565 S
C2898 C2899 1.374 . S
C2899 H2879 0.950 . S
C2899 C2895 1.385 1_565 S
C2899 C2898 1.374 . S
C2900 C2897 1.499 . S
C2900 C2901 1.373 . S
C2900 C2902 1.389 . S
C2901 H2880 0.950 . S
C2901 C2900 1.373 . S
C2901 C2917 1.377 . S
C2902 C2900 1.389 . S
C2902 C2903 1.524 1_545 S
C2902 C2916 1.377 . S
C2903 C2902 1.524 1_565 S
C2903 C2904 1.397 . S
C2903 C2908 1.363 1_565 S
C2904 H2881 0.950 . S
C2904 C2903 1.397 . S
C2904 C2905 1.334 . S
C2905 H2882 0.950 . S
C2905 C2904 1.334 . S
C2905 C2906 1.287 . S
C2906 C2905 1.287 . S
C2906 C2907 1.524 1_565 S
C2906 H2925 0.913 . S
C2907 H2883 0.950 . S
C2907 C2906 1.524 1_545 S
C2907 C2908 1.415 . S
C2908 H2884 0.950 . S
C2908 C2903 1.363 1_545 S
C2908 C2907 1.415 . S
C2909 H2885 0.951 . S
C2909 C2910 1.405 . S
C2909 C2911 1.388 . S
C2910 C2909 1.405 . S
C2910 C2914 1.344 1_565 S
C2911 H2886 0.951 . S
C2911 C2909 1.388 . S
C2911 C2912 1.366 1_565 S
C2912 C2911 1.366 1_545 S
C2912 C2913 1.414 . S
C2912 C2915 1.499 . S
C2913 H2887 0.950 . S
C2913 C2912 1.414 . S
C2913 C2914 1.374 . S
C2914 H2888 0.950 . S
C2914 C2910 1.344 1_545 S
C2914 C2913 1.374 . S
C2915 C2912 1.499 . S
C2915 C2916 1.373 . S
C2915 C2917 1.389 . S
C2916 H2889 0.950 . S
C2916 C2902 1.377 . S
C2916 C2915 1.373 . S
C2917 C2901 1.377 . S
C2917 C2915 1.389 . S
C2917 C2918 1.524 . S
C2918 C2917 1.524 . S
C2918 C2919 1.397 . S
C2918 C2923 1.389 . S
C2919 H2890 0.950 . S
C2919 C2918 1.397 . S
C2919 C2920 1.334 . S
C2920 H2891 0.950 . S
C2920 C2919 1.334 . S
C2920 C2921 1.287 . S
C2921 C2920 1.287 . S
C2921 C2922 1.524 . S
C2921 H2924 0.999 . S
C2922 H2892 0.950 1_545 S
C2922 C2921 1.524 . S
C2922 C2923 1.413 . S
C2923 H2893 0.927 1_545 S
C2923 C2918 1.389 . S
C2923 C2922 1.413 . S
H2924 C2921 0.999 . S
H2925 C2906 0.913 . S
H2926 C2944 0.951 . S
H2927 C2946 0.951 . S
H2928 C2948 0.950 . S
H2929 C2949 0.950 . S
H2930 C2951 0.950 . S
H2931 C2954 0.950 . S
H2932 C2955 0.950 . S
H2933 C2957 0.950 . S
H2934 C2958 0.950 . S
H2935 C2959 0.951 . S
H2936 C2961 0.951 . S
H2937 C2963 0.950 . S
H2938 C2964 0.950 . S
H2939 C2966 0.950 . S
H2940 C2969 0.950 . S
H2941 C2970 0.950 . S
H2942 C2972 0.950 . S
H2943 C2973 0.950 . S
C2944 H2926 0.951 . S
C2944 C2945 1.366 . S
C2944 C2946 1.388 . S
C2945 C2944 1.366 . S
C2945 C2949 1.385 . S
C2946 H2927 0.951 . S
C2946 C2944 1.388 . S
C2946 C2947 1.366 . S
C2947 C2946 1.366 . S
C2947 C2948 1.414 . S
C2947 C2950 1.499 . S
C2948 H2928 0.950 . S
C2948 C2947 1.414 . S
C2948 C2949 1.374 . S
C2949 H2929 0.950 . S
C2949 C2945 1.385 . S
C2949 C2948 1.374 . S
C2950 C2947 1.499 . S
C2950 C2951 1.373 . S
C2950 C2952 1.389 . S
C2951 H2930 0.950 . S
C2951 C2950 1.373 . S
C2951 C2967 1.377 . S
C2952 C2950 1.389 . S
C2952 C2953 1.524 . S
C2952 C2966 1.377 . S
C2953 C2952 1.524 . S
C2953 C2954 1.397 . S
C2953 C2958 1.363 . S
C2954 H2931 0.950 . S
C2954 C2953 1.397 . S
C2954 C2955 1.334 . S
C2955 H2932 0.950 . S
C2955 C2954 1.334 . S
C2955 C2956 1.287 . S
C2956 C2955 1.287 . S
C2956 C2957 1.524 . S
C2956 H2975 0.913 . S
C2957 H2933 0.950 . S
C2957 C2956 1.524 . S
C2957 C2958 1.415 . S
C2958 H2934 0.950 . S
C2958 C2953 1.363 . S
C2958 C2957 1.415 . S
C2959 H2935 0.951 . S
C2959 C2960 1.366 . S
C2959 C2961 1.388 . S
C2960 C2959 1.366 . S
C2960 C2964 1.385 . S
C2961 H2936 0.951 . S
C2961 C2959 1.388 . S
C2961 C2962 1.366 . S
C2962 C2961 1.366 . S
C2962 C2963 1.414 . S
C2962 C2965 1.499 . S
C2963 H2937 0.950 . S
C2963 C2962 1.414 . S
C2963 C2964 1.374 . S
C2964 H2938 0.950 . S
C2964 C2960 1.385 . S
C2964 C2963 1.374 . S
C2965 C2962 1.499 . S
C2965 C2966 1.373 . S
C2965 C2967 1.389 . S
C2966 H2939 0.950 . S
C2966 C2952 1.377 . S
C2966 C2965 1.373 . S
C2967 C2951 1.377 . S
C2967 C2965 1.389 . S
C2967 C2968 1.524 . S
C2968 C2967 1.524 . S
C2968 C2969 1.397 . S
C2968 C2973 1.363 . S
C2969 H2940 0.950 . S
C2969 C2968 1.397 . S
C2969 C2970 1.334 . S
C2970 H2941 0.950 . S
C2970 C2969 1.334 . S
C2970 C2971 1.287 . S
C2971 C2970 1.287 . S
C2971 C2972 1.524 . S
C2971 H2974 0.999 . S
C2972 H2942 0.950 . S
C2972 C2971 1.524 . S
C2972 C2973 1.415 . S
C2973 H2943 0.950 . S
C2973 C2968 1.363 . S
C2973 C2972 1.415 . S
H2974 C2971 0.999 . S
H2975 C2956 0.913 . S
H2976 C2994 0.951 . S
H2977 C2996 0.951 . S
H2978 C2998 0.950 . S
H2979 C2999 0.950 . S
H2980 C3001 0.950 . S
H2981 C3004 0.950 . S
H2982 C3005 0.950 . S
H2983 C3007 0.950 . S
H2984 C3008 0.950 . S
H2985 C3009 0.951 . S
H2986 C3011 0.951 . S
H2987 C3013 0.915 1_554 S
H2988 C3014 0.950 1_554 S
H2989 C3016 0.950 . S
H2990 C3019 0.950 . S
H2991 C3020 0.950 . S
H2992 C3022 0.950 . S
H2993 C3023 0.950 . S
C2994 H2976 0.951 . S
C2994 C2995 1.366 . S
C2994 C2996 1.388 . S
C2995 C2994 1.366 . S
C2995 C2999 1.385 1_554 S
C2996 H2977 0.951 . S
C2996 C2994 1.388 . S
C2996 C2997 1.366 . S
C2997 C2996 1.366 . S
C2997 C2998 1.414 1_554 S
C2997 C3000 1.499 1_554 S
C2998 H2978 0.950 . S
C2998 C2997 1.414 1_556 S
C2998 C2999 1.374 . S
C2999 H2979 0.950 . S
C2999 C2995 1.385 1_556 S
C2999 C2998 1.374 . S
C3000 C2997 1.499 1_556 S
C3000 C3001 1.373 . S
C3000 C3002 1.389 . S
C3001 H2980 0.950 . S
C3001 C3000 1.373 . S
C3001 C3017 1.377 . S
C3002 C3000 1.389 . S
C3002 C3003 1.524 . S
C3002 C3016 1.377 . S
C3003 C3002 1.524 . S
C3003 C3004 1.397 . S
C3003 C3008 1.363 1_556 S
C3004 H2981 0.950 . S
C3004 C3003 1.397 . S
C3004 C3005 1.334 . S
C3005 H2982 0.950 . S
C3005 C3004 1.334 . S
C3005 C3006 1.287 . S
C3006 C3005 1.287 . S
C3006 C3007 1.524 1_556 S
C3006 H3025 0.913 . S
C3007 H2983 0.950 . S
C3007 C3006 1.524 1_554 S
C3007 C3008 1.415 . S
C3008 H2984 0.950 . S
C3008 C3003 1.363 1_554 S
C3008 C3007 1.415 . S
C3009 H2985 0.951 . S
C3009 C3010 1.366 . S
C3009 C3011 1.388 . S
C3010 C3009 1.366 . S
C3010 C3014 1.385 . S
C3011 H2986 0.951 . S
C3011 C3009 1.388 . S
C3011 C3012 1.366 . S
C3012 C3011 1.366 . S
C3012 C3013 1.437 . S
C3012 C3015 1.499 . S
C3013 H2987 0.915 1_556 S
C3013 C3012 1.437 . S
C3013 C3014 1.390 . S
C3014 H2988 0.950 1_556 S
C3014 C3010 1.385 . S
C3014 C3013 1.390 . S
C3015 C3012 1.499 . S
C3015 C3016 1.373 . S
C3015 C3017 1.389 . S
C3016 H2989 0.950 . S
C3016 C3002 1.377 . S
C3016 C3015 1.373 . S
C3017 C3001 1.377 . S
C3017 C3015 1.389 . S
C3017 C3018 1.524 . S
C3018 C3017 1.524 . S
C3018 C3019 1.397 1_556 S
C3018 C3023 1.363 . S
C3019 H2990 0.950 . S
C3019 C3018 1.397 1_554 S
C3019 C3020 1.334 . S
C3020 H2991 0.950 . S
C3020 C3019 1.334 . S
C3020 C3021 1.306 . S
C3021 C3020 1.306 . S
C3021 C3022 1.489 1_554 S
C3021 H3024 1.012 . S
C3022 H2992 0.950 . S
C3022 C3021 1.489 1_556 S
C3022 C3023 1.415 . S
C3023 H2993 0.950 . S
C3023 C3018 1.363 . S
C3023 C3022 1.415 . S
H3024 C3021 1.012 . S
H3025 C3006 0.913 . S
H3026 C3044 0.951 . S
H3027 C3046 0.951 . S
H3028 C3048 0.950 . S
H3029 C3049 0.950 . S
H3030 C3051 0.950 . S
H3031 C3054 0.950 . S
H3032 C3055 0.950 . S
H3033 C3057 0.950 . S
H3034 C3058 0.950 . S
H3035 C3059 0.951 . S
H3036 C3061 0.951 . S
H3037 C3063 0.950 . S
H3038 C3064 0.950 . S
H3039 C3066 0.950 . S
H3040 C3069 0.950 . S
H3041 C3070 0.950 . S
H3042 C3072 0.950 . S
H3043 C3073 0.950 1_554 S
C3044 H3026 0.951 . S
C3044 C3045 1.366 . S
C3044 C3046 1.388 . S
C3045 C3044 1.366 . S
C3045 C3049 1.385 . S
C3046 H3027 0.951 . S
C3046 C3044 1.388 . S
C3046 C3047 1.366 . S
C3047 C3046 1.366 . S
C3047 C3048 1.414 . S
C3047 C3050 1.499 . S
C3048 H3028 0.950 . S
C3048 C3047 1.414 . S
C3048 C3049 1.374 . S
C3049 H3029 0.950 . S
C3049 C3045 1.385 . S
C3049 C3048 1.374 . S
C3050 C3047 1.499 . S
C3050 C3051 1.373 . S
C3050 C3052 1.389 . S
C3051 H3030 0.950 . S
C3051 C3050 1.373 . S
C3051 C3067 1.377 . S
C3052 C3050 1.389 . S
C3052 C3053 1.524 . S
C3052 C3066 1.377 . S
C3053 C3052 1.524 . S
C3053 C3054 1.397 . S
C3053 C3058 1.363 . S
C3054 H3031 0.950 . S
C3054 C3053 1.397 . S
C3054 C3055 1.334 . S
C3055 H3032 0.950 . S
C3055 C3054 1.334 . S
C3055 C3056 1.287 . S
C3056 C3055 1.287 . S
C3056 C3057 1.524 . S
C3056 H3075 0.913 . S
C3057 H3033 0.950 . S
C3057 C3056 1.524 . S
C3057 C3058 1.415 . S
C3058 H3034 0.950 . S
C3058 C3053 1.363 . S
C3058 C3057 1.415 . S
C3059 H3035 0.951 . S
C3059 C3060 1.366 . S
C3059 C3061 1.388 . S
C3060 C3059 1.366 . S
C3060 C3064 1.385 . S
C3061 H3036 0.951 . S
C3061 C3059 1.388 . S
C3061 C3062 1.366 . S
C3062 C3061 1.366 . S
C3062 C3063 1.414 . S
C3062 C3065 1.499 . S
C3063 H3037 0.950 . S
C3063 C3062 1.414 . S
C3063 C3064 1.374 . S
C3064 H3038 0.950 . S
C3064 C3060 1.385 . S
C3064 C3063 1.374 . S
C3065 C3062 1.499 . S
C3065 C3066 1.373 . S
C3065 C3067 1.389 . S
C3066 H3039 0.950 . S
C3066 C3052 1.377 . S
C3066 C3065 1.373 . S
C3067 C3051 1.377 . S
C3067 C3065 1.389 . S
C3067 C3068 1.524 1_554 S
C3068 C3067 1.524 1_556 S
C3068 C3069 1.397 . S
C3068 C3073 1.363 . S
C3069 H3040 0.950 . S
C3069 C3068 1.397 . S
C3069 C3070 1.334 . S
C3070 H3041 0.950 . S
C3070 C3069 1.334 . S
C3070 C3071 1.287 . S
C3071 C3070 1.287 . S
C3071 C3072 1.524 . S
C3071 H3074 0.999 . S
C3072 H3042 0.950 . S
C3072 C3071 1.524 . S
C3072 C3073 1.415 . S
C3073 H3043 0.950 1_556 S
C3073 C3068 1.363 . S
C3073 C3072 1.415 . S
H3074 C3071 0.999 . S
H3075 C3056 0.913 . S
H3076 C3094 0.951 . S
H3077 C3096 0.951 . S
H3078 C3098 0.950 . S
H3079 C3099 0.950 . S
H3080 C3101 0.950 . S
H3081 C3104 0.950 . S
H3082 C3105 0.950 . S
H3083 C3107 0.950 . S
H3084 C3108 0.950 . S
H3085 C3109 0.951 . S
H3086 C3111 0.951 . S
H3087 C3113 0.950 . S
H3088 C3114 0.950 . S
H3089 C3116 0.950 . S
H3090 C3119 0.950 . S
H3091 C3120 0.950 . S
H3092 C3122 0.950 . S
H3093 C3123 0.950 . S
C3094 H3076 0.951 . S
C3094 C3095 1.366 . S
C3094 C3096 1.388 . S
C3095 C3094 1.366 . S
C3095 C3099 1.385 . S
C3096 H3077 0.951 . S
C3096 C3094 1.388 . S
C3096 C3097 1.366 . S
C3097 C3096 1.366 . S
C3097 C3098 1.414 . S
C3097 C3100 1.499 . S
C3098 H3078 0.950 . S
C3098 C3097 1.414 . S
C3098 C3099 1.374 . S
C3099 H3079 0.950 . S
C3099 C3095 1.385 . S
C3099 C3098 1.374 . S
C3100 C3097 1.499 . S
C3100 C3101 1.373 . S
C3100 C3102 1.389 . S
C3101 H3080 0.950 . S
C3101 C3100 1.373 . S
C3101 C3117 1.377 . S
C3102 C3100 1.389 . S
C3102 C3103 1.524 . S
C3102 C3116 1.377 . S
C3103 C3102 1.524 . S
C3103 C3104 1.397 . S
C3103 C3108 1.363 . S
C3104 H3081 0.950 . S
C3104 C3103 1.397 . S
C3104 C3105 1.334 . S
C3105 H3082 0.950 . S
C3105 C3104 1.334 . S
C3105 C3106 1.287 . S
C3106 C3105 1.287 . S
C3106 C3107 1.524 . S
C3106 H3125 0.913 . S
C3107 H3083 0.950 . S
C3107 C3106 1.524 . S
C3107 C3108 1.415 . S
C3108 H3084 0.950 . S
C3108 C3103 1.363 . S
C3108 C3107 1.415 . S
C3109 H3085 0.951 . S
C3109 C3110 1.366 . S
C3109 C3111 1.388 . S
C3110 C3109 1.366 . S
C3110 C3114 1.385 . S
C3111 H3086 0.951 . S
C3111 C3109 1.388 . S
C3111 C3112 1.366 . S
C3112 C3111 1.366 . S
C3112 C3113 1.414 . S
C3112 C3115 1.499 . S
C3113 H3087 0.950 . S
C3113 C3112 1.414 . S
C3113 C3114 1.374 . S
C3114 H3088 0.950 . S
C3114 C3110 1.385 . S
C3114 C3113 1.374 . S
C3115 C3112 1.499 . S
C3115 C3116 1.373 . S
C3115 C3117 1.389 . S
C3116 H3089 0.950 . S
C3116 C3102 1.377 . S
C3116 C3115 1.373 . S
C3117 C3101 1.377 . S
C3117 C3115 1.389 . S
C3117 C3118 1.524 . S
C3118 C3117 1.524 . S
C3118 C3119 1.397 . S
C3118 C3123 1.363 . S
C3119 H3090 0.950 . S
C3119 C3118 1.397 . S
C3119 C3120 1.334 . S
C3120 H3091 0.950 . S
C3120 C3119 1.334 . S
C3120 C3121 1.287 . S
C3121 C3120 1.287 . S
C3121 C3122 1.524 . S
C3121 H3124 0.999 . S
C3122 H3092 0.950 . S
C3122 C3121 1.524 . S
C3122 C3123 1.415 . S
C3123 H3093 0.950 . S
C3123 C3118 1.363 . S
C3123 C3122 1.415 . S
H3124 C3121 0.999 . S
H3125 C3106 0.913 . S
H3126 C3144 0.951 . S
H3127 C3146 0.951 . S
H3128 C3148 0.950 . S
H3129 C3149 0.950 . S
H3130 C3151 0.950 . S
H3131 C3154 0.950 . S
H3132 C3155 0.950 . S
H3133 C3157 0.950 . S
H3134 C3158 0.950 . S
H3135 C3159 0.951 . S
H3136 C3161 0.951 . S
H3137 C3163 0.950 . S
H3138 C3164 0.950 . S
H3139 C3166 0.950 . S
H3140 C3169 0.950 . S
H3141 C3170 0.950 . S
H3142 C3172 0.950 . S
H3143 C3173 0.950 . S
C3144 H3126 0.951 . S
C3144 C3145 1.366 . S
C3144 C3146 1.388 . S
C3145 C3144 1.366 . S
C3145 C3149 1.385 . S
C3146 H3127 0.951 . S
C3146 C3144 1.388 . S
C3146 C3147 1.366 . S
C3147 C3146 1.366 . S
C3147 C3148 1.414 . S
C3147 C3150 1.499 . S
C3148 H3128 0.950 . S
C3148 C3147 1.414 . S
C3148 C3149 1.374 . S
C3149 H3129 0.950 . S
C3149 C3145 1.385 . S
C3149 C3148 1.374 . S
C3150 C3147 1.499 . S
C3150 C3151 1.373 . S
C3150 C3152 1.389 . S
C3151 H3130 0.950 . S
C3151 C3150 1.373 . S
C3151 C3167 1.377 . S
C3152 C3150 1.389 . S
C3152 C3153 1.524 . S
C3152 C3166 1.377 . S
C3153 C3152 1.524 . S
C3153 C3154 1.397 . S
C3153 C3158 1.363 . S
C3154 H3131 0.950 . S
C3154 C3153 1.397 . S
C3154 C3155 1.334 . S
C3155 H3132 0.950 . S
C3155 C3154 1.334 . S
C3155 C3156 1.287 . S
C3156 C3155 1.287 . S
C3156 C3157 1.524 . S
C3156 H3175 0.913 . S
C3157 H3133 0.950 . S
C3157 C3156 1.524 . S
C3157 C3158 1.415 . S
C3158 H3134 0.950 . S
C3158 C3153 1.363 . S
C3158 C3157 1.415 . S
C3159 H3135 0.951 . S
C3159 C3160 1.366 . S
C3159 C3161 1.388 . S
C3160 C3159 1.366 . S
C3160 C3164 1.385 . S
C3161 H3136 0.951 . S
C3161 C3159 1.388 . S
C3161 C3162 1.366 . S
C3162 C3161 1.366 . S
C3162 C3163 1.414 . S
C3162 C3165 1.499 . S
C3163 H3137 0.950 . S
C3163 C3162 1.414 . S
C3163 C3164 1.374 . S
C3164 H3138 0.950 . S
C3164 C3160 1.385 . S
C3164 C3163 1.374 . S
C3165 C3162 1.499 . S
C3165 C3166 1.373 . S
C3165 C3167 1.389 . S
C3166 H3139 0.950 . S
C3166 C3152 1.377 . S
C3166 C3165 1.373 . S
C3167 C3151 1.377 . S
C3167 C3165 1.389 . S
C3167 C3168 1.524 . S
C3168 C3167 1.524 . S
C3168 C3169 1.397 . S
C3168 C3173 1.363 . S
C3169 H3140 0.950 . S
C3169 C3168 1.397 . S
C3169 C3170 1.334 . S
C3170 H3141 0.950 . S
C3170 C3169 1.334 . S
C3170 C3171 1.287 . S
C3171 C3170 1.287 . S
C3171 C3172 1.524 . S
C3171 H3174 0.999 . S
C3172 H3142 0.950 . S
C3172 C3171 1.524 . S
C3172 C3173 1.415 . S
C3173 H3143 0.950 . S
C3173 C3168 1.363 . S
C3173 C3172 1.415 . S
H3174 C3171 0.999 . S
H3175 C3156 0.913 . S
H3176 C3194 0.951 . S
H3177 C3196 0.951 . S
H3178 C3198 0.950 . S
H3179 C3199 0.950 . S
H3180 C3201 0.950 . S
H3181 C3204 0.950 . S
H3182 C3205 0.950 . S
H3183 C3207 0.950 . S
H3184 C3208 0.950 . S
H3185 C3209 0.951 . S
H3186 C3211 0.951 . S
H3187 C3213 0.950 . S
H3188 C3214 0.950 . S
H3189 C3216 0.950 . S
H3190 C3219 0.950 . S
H3191 C3220 0.950 . S
H3192 C3222 0.950 . S
H3193 C3223 0.950 . S
C3194 H3176 0.951 . S
C3194 C3195 1.366 . S
C3194 C3196 1.388 1_545 S
C3195 C3194 1.366 . S
C3195 C3199 1.385 1_545 S
C3196 H3177 0.951 . S
C3196 C3194 1.388 1_565 S
C3196 C3197 1.366 . S
C3197 C3196 1.366 . S
C3197 C3198 1.414 . S
C3197 C3200 1.499 . S
C3198 H3178 0.950 . S
C3198 C3197 1.414 . S
C3198 C3199 1.374 . S
C3199 H3179 0.950 . S
C3199 C3195 1.385 1_565 S
C3199 C3198 1.374 . S
C3200 C3197 1.499 . S
C3200 C3201 1.373 . S
C3200 C3202 1.389 . S
C3201 H3180 0.950 . S
C3201 C3200 1.373 . S
C3201 C3217 1.377 . S
C3202 C3200 1.389 . S
C3202 C3203 1.524 . S
C3202 C3216 1.377 . S
C3203 C3202 1.524 . S
C3203 C3204 1.397 . S
C3203 C3208 1.363 . S
C3204 H3181 0.950 . S
C3204 C3203 1.397 . S
C3204 C3205 1.334 . S
C3205 H3182 0.950 . S
C3205 C3204 1.334 . S
C3205 C3206 1.287 . S
C3206 C3205 1.287 . S
C3206 C3207 1.524 . S
C3206 H3225 0.913 . S
C3207 H3183 0.950 . S
C3207 C3206 1.524 . S
C3207 C3208 1.415 . S
C3208 H3184 0.950 . S
C3208 C3203 1.363 . S
C3208 C3207 1.415 . S
C3209 H3185 0.951 . S
C3209 C3210 1.366 . S
C3209 C3211 1.388 . S
C3210 C3209 1.366 . S
C3210 C3214 1.385 . S
C3211 H3186 0.951 . S
C3211 C3209 1.388 . S
C3211 C3212 1.366 . S
C3212 C3211 1.366 . S
C3212 C3213 1.414 . S
C3212 C3215 1.499 . S
C3213 H3187 0.950 . S
C3213 C3212 1.414 . S
C3213 C3214 1.374 . S
C3214 H3188 0.950 . S
C3214 C3210 1.385 . S
C3214 C3213 1.374 . S
C3215 C3212 1.499 . S
C3215 C3216 1.373 . S
C3215 C3217 1.389 . S
C3216 H3189 0.950 . S
C3216 C3202 1.377 . S
C3216 C3215 1.373 . S
C3217 C3201 1.377 . S
C3217 C3215 1.389 . S
C3217 C3218 1.524 . S
C3218 C3217 1.524 . S
C3218 C3219 1.397 . S
C3218 C3223 1.363 . S
C3219 H3190 0.950 . S
C3219 C3218 1.397 . S
C3219 C3220 1.334 . S
C3220 H3191 0.950 . S
C3220 C3219 1.334 . S
C3220 C3221 1.287 . S
C3221 C3220 1.287 . S
C3221 C3222 1.524 . S
C3221 H3224 0.999 . S
C3222 H3192 0.950 . S
C3222 C3221 1.524 . S
C3222 C3223 1.415 . S
C3223 H3193 0.950 . S
C3223 C3218 1.363 . S
C3223 C3222 1.415 . S
H3224 C3221 0.999 . S
H3225 C3206 0.913 . S
H3226 C3244 0.951 . S
H3227 C3246 0.951 . S
H3228 C3248 0.950 . S
H3229 C3249 0.950 . S
H3230 C3251 0.950 . S
H3231 C3254 0.950 . S
H3232 C3255 0.950 . S
H3233 C3257 0.950 . S
H3234 C3258 0.950 . S
H3235 C3259 0.951 . S
H3236 C3261 0.951 . S
H3237 C3263 0.950 . S
H3238 C3264 0.950 . S
H3239 C3266 0.950 . S
H3240 C3269 0.950 . S
H3241 C3270 0.950 . S
H3242 C3272 0.950 . S
H3243 C3273 0.950 . S
C3244 H3226 0.951 . S
C3244 C3245 1.366 . S
C3244 C3246 1.388 . S
C3245 C3244 1.366 . S
C3245 C3249 1.385 . S
C3246 H3227 0.951 . S
C3246 C3244 1.388 . S
C3246 C3247 1.366 . S
C3247 C3246 1.366 . S
C3247 C3248 1.414 . S
C3247 C3250 1.499 . S
C3248 H3228 0.950 . S
C3248 C3247 1.414 . S
C3248 C3249 1.374 . S
C3249 H3229 0.950 . S
C3249 C3245 1.385 . S
C3249 C3248 1.374 . S
C3250 C3247 1.499 . S
C3250 C3251 1.373 . S
C3250 C3252 1.389 . S
C3251 H3230 0.950 . S
C3251 C3250 1.373 . S
C3251 C3267 1.377 . S
C3252 C3250 1.389 . S
C3252 C3253 1.524 . S
C3252 C3266 1.377 . S
C3253 C3252 1.524 . S
C3253 C3254 1.397 . S
C3253 C3258 1.363 . S
C3254 H3231 0.950 . S
C3254 C3253 1.397 . S
C3254 C3255 1.334 . S
C3255 H3232 0.950 . S
C3255 C3254 1.334 . S
C3255 C3256 1.287 . S
C3256 C3255 1.287 . S
C3256 C3257 1.524 . S
C3256 H3275 0.913 . S
C3257 H3233 0.950 . S
C3257 C3256 1.524 . S
C3257 C3258 1.415 . S
C3258 H3234 0.950 . S
C3258 C3253 1.363 . S
C3258 C3257 1.415 . S
C3259 H3235 0.951 . S
C3259 C3260 1.366 . S
C3259 C3261 1.388 . S
C3260 C3259 1.366 . S
C3260 C3264 1.385 . S
C3261 H3236 0.951 . S
C3261 C3259 1.388 . S
C3261 C3262 1.366 . S
C3262 C3261 1.366 . S
C3262 C3263 1.414 . S
C3262 C3265 1.499 . S
C3263 H3237 0.950 . S
C3263 C3262 1.414 . S
C3263 C3264 1.374 . S
C3264 H3238 0.950 . S
C3264 C3260 1.385 . S
C3264 C3263 1.374 . S
C3265 C3262 1.499 . S
C3265 C3266 1.373 . S
C3265 C3267 1.389 . S
C3266 H3239 0.950 . S
C3266 C3252 1.377 . S
C3266 C3265 1.373 . S
C3267 C3251 1.377 . S
C3267 C3265 1.389 . S
C3267 C3268 1.524 . S
C3268 C3267 1.524 . S
C3268 C3269 1.397 . S
C3268 C3273 1.363 . S
C3269 H3240 0.950 . S
C3269 C3268 1.397 . S
C3269 C3270 1.334 . S
C3270 H3241 0.950 . S
C3270 C3269 1.334 . S
C3270 C3271 1.287 1_565 S
C3271 C3270 1.287 1_545 S
C3271 C3272 1.524 . S
C3271 H3274 0.999 . S
C3272 H3242 0.950 . S
C3272 C3271 1.524 . S
C3272 C3273 1.415 1_545 S
C3273 H3243 0.950 . S
C3273 C3268 1.363 . S
C3273 C3272 1.415 1_565 S
H3274 C3271 0.999 . S
H3275 C3256 0.913 . S
H3276 C3294 0.951 . S
H3277 C3296 0.951 . S
H3278 C3298 0.950 . S
H3279 C3299 0.950 . S
H3280 C3301 0.950 . S
H3281 C3304 0.950 . S
H3282 C3305 0.950 . S
H3283 C3307 0.950 . S
H3284 C3308 0.950 . S
H3285 C3309 0.951 . S
H3286 C3311 0.951 . S
H3287 C3313 0.950 . S
H3288 C3314 0.950 . S
H3289 C3316 0.950 . S
H3290 C3319 0.950 . S
H3291 C3320 0.950 . S
H3292 C3322 0.950 . S
H3293 C3323 0.950 . S
C3294 H3276 0.951 . S
C3294 C3295 1.366 . S
C3294 C3296 1.388 . S
C3295 C3294 1.366 . S
C3295 C3299 1.385 . S
C3296 H3277 0.951 . S
C3296 C3294 1.388 . S
C3296 C3297 1.366 . S
C3297 C3296 1.366 . S
C3297 C3298 1.414 . S
C3297 C3300 1.499 . S
C3298 H3278 0.950 . S
C3298 C3297 1.414 . S
C3298 C3299 1.374 . S
C3299 H3279 0.950 . S
C3299 C3295 1.385 . S
C3299 C3298 1.374 . S
C3300 C3297 1.499 . S
C3300 C3301 1.373 . S
C3300 C3302 1.389 . S
C3301 H3280 0.950 . S
C3301 C3300 1.373 . S
C3301 C3317 1.377 . S
C3302 C3300 1.389 . S
C3302 C3303 1.524 . S
C3302 C3316 1.377 . S
C3303 C3302 1.524 . S
C3303 C3304 1.397 . S
C3303 C3308 1.363 . S
C3304 H3281 0.950 . S
C3304 C3303 1.397 . S
C3304 C3305 1.334 . S
C3305 H3282 0.950 . S
C3305 C3304 1.334 . S
C3305 C3306 1.287 . S
C3306 C3305 1.287 . S
C3306 C3307 1.524 . S
C3306 H3325 0.913 . S
C3307 H3283 0.950 . S
C3307 C3306 1.524 . S
C3307 C3308 1.415 . S
C3308 H3284 0.950 . S
C3308 C3303 1.363 . S
C3308 C3307 1.415 . S
C3309 H3285 0.951 . S
C3309 C3310 1.366 . S
C3309 C3311 1.388 . S
C3310 C3309 1.366 . S
C3310 C3314 1.385 . S
C3311 H3286 0.951 . S
C3311 C3309 1.388 . S
C3311 C3312 1.366 . S
C3312 C3311 1.366 . S
C3312 C3313 1.414 . S
C3312 C3315 1.499 . S
C3313 H3287 0.950 . S
C3313 C3312 1.414 . S
C3313 C3314 1.374 . S
C3314 H3288 0.950 . S
C3314 C3310 1.385 . S
C3314 C3313 1.374 . S
C3315 C3312 1.499 . S
C3315 C3316 1.373 . S
C3315 C3317 1.389 . S
C3316 H3289 0.950 . S
C3316 C3302 1.377 . S
C3316 C3315 1.373 . S
C3317 C3301 1.377 . S
C3317 C3315 1.389 . S
C3317 C3318 1.524 . S
C3318 C3317 1.524 . S
C3318 C3319 1.397 . S
C3318 C3323 1.363 . S
C3319 H3290 0.950 . S
C3319 C3318 1.397 . S
C3319 C3320 1.334 . S
C3320 H3291 0.950 . S
C3320 C3319 1.334 . S
C3320 C3321 1.287 . S
C3321 C3320 1.287 . S
C3321 C3322 1.524 . S
C3321 H3324 0.999 . S
C3322 H3292 0.950 . S
C3322 C3321 1.524 . S
C3322 C3323 1.415 . S
C3323 H3293 0.950 . S
C3323 C3318 1.363 . S
C3323 C3322 1.415 . S
H3324 C3321 0.999 . S
H3325 C3306 0.913 . S
H3326 C3344 0.951 . S
H3327 C3346 0.951 . S
H3328 C3348 0.950 . S
H3329 C3349 0.950 . S
H3330 C3351 0.950 . S
H3331 C3354 0.950 . S
H3332 C3355 0.950 . S
H3333 C3357 0.950 . S
H3334 C3358 0.950 . S
H3335 C3359 0.951 . S
H3336 C3361 0.951 . S
H3337 C3363 0.950 . S
H3338 C3364 0.950 . S
H3339 C3366 0.950 . S
H3340 C3369 0.950 . S
H3341 C3370 0.950 . S
H3342 C3372 0.950 . S
H3343 C3373 0.950 . S
C3344 H3326 0.951 . S
C3344 C3345 1.366 . S
C3344 C3346 1.388 . S
C3345 C3344 1.366 . S
C3345 C3349 1.385 . S
C3346 H3327 0.951 . S
C3346 C3344 1.388 . S
C3346 C3347 1.366 . S
C3347 C3346 1.366 . S
C3347 C3348 1.414 . S
C3347 C3350 1.499 . S
C3348 H3328 0.950 . S
C3348 C3347 1.414 . S
C3348 C3349 1.374 . S
C3349 H3329 0.950 . S
C3349 C3345 1.385 . S
C3349 C3348 1.374 . S
C3350 C3347 1.499 . S
C3350 C3351 1.373 . S
C3350 C3352 1.389 . S
C3351 H3330 0.950 . S
C3351 C3350 1.373 . S
C3351 C3367 1.377 . S
C3352 C3350 1.389 . S
C3352 C3353 1.524 . S
C3352 C3366 1.377 . S
C3353 C3352 1.524 . S
C3353 C3354 1.397 . S
C3353 C3358 1.363 . S
C3354 H3331 0.950 . S
C3354 C3353 1.397 . S
C3354 C3355 1.334 . S
C3355 H3332 0.950 . S
C3355 C3354 1.334 . S
C3355 C3356 1.287 . S
C3356 C3355 1.287 . S
C3356 C3357 1.524 . S
C3356 H3375 0.913 . S
C3357 H3333 0.950 . S
C3357 C3356 1.524 . S
C3357 C3358 1.415 . S
C3358 H3334 0.950 . S
C3358 C3353 1.363 . S
C3358 C3357 1.415 . S
C3359 H3335 0.951 . S
C3359 C3360 1.366 . S
C3359 C3361 1.388 . S
C3360 C3359 1.366 . S
C3360 C3364 1.385 . S
C3361 H3336 0.951 . S
C3361 C3359 1.388 . S
C3361 C3362 1.366 . S
C3362 C3361 1.366 . S
C3362 C3363 1.414 . S
C3362 C3365 1.499 . S
C3363 H3337 0.950 . S
C3363 C3362 1.414 . S
C3363 C3364 1.374 . S
C3364 H3338 0.950 . S
C3364 C3360 1.385 . S
C3364 C3363 1.374 . S
C3365 C3362 1.499 . S
C3365 C3366 1.373 . S
C3365 C3367 1.389 . S
C3366 H3339 0.950 . S
C3366 C3352 1.377 . S
C3366 C3365 1.373 . S
C3367 C3351 1.377 . S
C3367 C3365 1.389 . S
C3367 C3368 1.524 . S
C3368 C3367 1.524 . S
C3368 C3369 1.397 . S
C3368 C3373 1.363 . S
C3369 H3340 0.950 . S
C3369 C3368 1.397 . S
C3369 C3370 1.334 . S
C3370 H3341 0.950 . S
C3370 C3369 1.334 . S
C3370 C3371 1.287 . S
C3371 C3370 1.287 . S
C3371 C3372 1.524 . S
C3371 H3374 0.999 . S
C3372 H3342 0.950 . S
C3372 C3371 1.524 . S
C3372 C3373 1.415 . S
C3373 H3343 0.950 . S
C3373 C3368 1.363 . S
C3373 C3372 1.415 . S
H3374 C3371 0.999 . S
H3375 C3356 0.913 . S
H3376 C3394 0.951 . S
H3377 C3396 0.951 . S
H3378 C3398 0.950 . S
H3379 C3399 0.950 . S
H3380 C3401 0.950 . S
H3381 C3404 0.950 . S
H3382 C3405 0.950 . S
H3383 C3407 0.950 . S
H3384 C3408 0.950 . S
H3385 C3409 0.951 . S
H3386 C3411 0.951 . S
H3387 C3413 0.950 . S
H3388 C3414 0.950 . S
H3389 C3416 0.950 . S
H3390 C3419 0.950 . S
H3391 C3420 0.950 . S
H3392 C3422 0.950 . S
H3393 C3423 0.950 . S
C3394 H3376 0.951 . S
C3394 C3395 1.366 . S
C3394 C3396 1.388 . S
C3395 C3394 1.366 . S
C3395 C3399 1.385 . S
C3396 H3377 0.951 . S
C3396 C3394 1.388 . S
C3396 C3397 1.366 . S
C3397 C3396 1.366 . S
C3397 C3398 1.414 . S
C3397 C3400 1.499 . S
C3398 H3378 0.950 . S
C3398 C3397 1.414 . S
C3398 C3399 1.374 . S
C3399 H3379 0.950 . S
C3399 C3395 1.385 . S
C3399 C3398 1.374 . S
C3400 C3397 1.499 . S
C3400 C3401 1.373 . S
C3400 C3402 1.389 . S
C3401 H3380 0.950 . S
C3401 C3400 1.373 . S
C3401 C3417 1.377 . S
C3402 C3400 1.389 . S
C3402 C3403 1.524 . S
C3402 C3416 1.377 . S
C3403 C3402 1.524 . S
C3403 C3404 1.397 . S
C3403 C3408 1.363 . S
C3404 H3381 0.950 . S
C3404 C3403 1.397 . S
C3404 C3405 1.334 . S
C3405 H3382 0.950 . S
C3405 C3404 1.334 . S
C3405 C3406 1.287 . S
C3406 C3405 1.287 . S
C3406 C3407 1.524 . S
C3406 H3425 0.913 . S
C3407 H3383 0.950 . S
C3407 C3406 1.524 . S
C3407 C3408 1.415 . S
C3408 H3384 0.950 . S
C3408 C3403 1.363 . S
C3408 C3407 1.415 . S
C3409 H3385 0.951 . S
C3409 C3410 1.366 . S
C3409 C3411 1.388 . S
C3410 C3409 1.366 . S
C3410 C3414 1.385 . S
C3411 H3386 0.951 . S
C3411 C3409 1.388 . S
C3411 C3412 1.366 . S
C3412 C3411 1.366 . S
C3412 C3413 1.414 . S
C3412 C3415 1.499 . S
C3413 H3387 0.950 . S
C3413 C3412 1.414 . S
C3413 C3414 1.374 . S
C3414 H3388 0.950 . S
C3414 C3410 1.385 . S
C3414 C3413 1.374 . S
C3415 C3412 1.499 . S
C3415 C3416 1.373 . S
C3415 C3417 1.389 . S
C3416 H3389 0.950 . S
C3416 C3402 1.377 . S
C3416 C3415 1.373 . S
C3417 C3401 1.377 . S
C3417 C3415 1.389 . S
C3417 C3418 1.524 . S
C3418 C3417 1.524 . S
C3418 C3419 1.397 . S
C3418 C3423 1.363 . S
C3419 H3390 0.950 . S
C3419 C3418 1.397 . S
C3419 C3420 1.334 . S
C3420 H3391 0.950 . S
C3420 C3419 1.334 . S
C3420 C3421 1.287 . S
C3421 C3420 1.287 . S
C3421 C3422 1.524 . S
C3421 H3424 0.999 . S
C3422 H3392 0.950 . S
C3422 C3421 1.524 . S
C3422 C3423 1.415 . S
C3423 H3393 0.950 . S
C3423 C3418 1.363 . S
C3423 C3422 1.415 . S
H3424 C3421 0.999 . S
H3425 C3406 0.913 . S
H3426 C3444 0.951 . S
H3427 C3446 0.951 . S
H3428 C3448 0.950 . S
H3429 C3449 0.950 . S
H3430 C3451 0.950 . S
H3431 C3454 0.950 . S
H3432 C3455 0.950 . S
H3433 C3457 0.950 . S
H3434 C3458 0.950 . S
H3435 C3459 0.951 . S
H3436 C3461 0.951 . S
H3437 C3463 0.950 . S
H3438 C3464 0.950 . S
H3439 C3466 0.950 . S
H3440 C3469 0.950 . S
H3441 C3470 0.950 . S
H3442 C3472 0.950 . S
H3443 C3473 0.950 . S
C3444 H3426 0.951 . S
C3444 C3445 1.366 . S
C3444 C3446 1.388 . S
C3445 C3444 1.366 . S
C3445 C3449 1.385 . S
C3446 H3427 0.951 . S
C3446 C3444 1.388 . S
C3446 C3447 1.366 . S
C3447 C3446 1.366 . S
C3447 C3448 1.414 . S
C3447 C3450 1.499 . S
C3448 H3428 0.950 . S
C3448 C3447 1.414 . S
C3448 C3449 1.374 . S
C3449 H3429 0.950 . S
C3449 C3445 1.385 . S
C3449 C3448 1.374 . S
C3450 C3447 1.499 . S
C3450 C3451 1.373 . S
C3450 C3452 1.389 . S
C3451 H3430 0.950 . S
C3451 C3450 1.373 . S
C3451 C3467 1.377 . S
C3452 C3450 1.389 . S
C3452 C3453 1.524 . S
C3452 C3466 1.377 . S
C3453 C3452 1.524 . S
C3453 C3454 1.397 . S
C3453 C3458 1.363 . S
C3454 H3431 0.950 . S
C3454 C3453 1.397 . S
C3454 C3455 1.334 . S
C3455 H3432 0.950 . S
C3455 C3454 1.334 . S
C3455 C3456 1.287 . S
C3456 C3455 1.287 . S
C3456 C3457 1.524 . S
C3456 H3475 0.913 . S
C3457 H3433 0.950 . S
C3457 C3456 1.524 . S
C3457 C3458 1.415 . S
C3458 H3434 0.950 . S
C3458 C3453 1.363 . S
C3458 C3457 1.415 . S
C3459 H3435 0.951 . S
C3459 C3460 1.366 . S
C3459 C3461 1.388 . S
C3460 C3459 1.366 . S
C3460 C3464 1.385 . S
C3461 H3436 0.951 . S
C3461 C3459 1.388 . S
C3461 C3462 1.366 . S
C3462 C3461 1.366 . S
C3462 C3463 1.414 . S
C3462 C3465 1.499 . S
C3463 H3437 0.950 . S
C3463 C3462 1.414 . S
C3463 C3464 1.374 . S
C3464 H3438 0.950 . S
C3464 C3460 1.385 . S
C3464 C3463 1.374 . S
C3465 C3462 1.499 . S
C3465 C3466 1.373 . S
C3465 C3467 1.389 . S
C3466 H3439 0.950 . S
C3466 C3452 1.377 . S
C3466 C3465 1.373 . S
C3467 C3451 1.377 . S
C3467 C3465 1.389 . S
C3467 C3468 1.524 . S
C3468 C3467 1.524 . S
C3468 C3469 1.397 . S
C3468 C3473 1.363 . S
C3469 H3440 0.950 . S
C3469 C3468 1.397 . S
C3469 C3470 1.334 . S
C3470 H3441 0.950 . S
C3470 C3469 1.334 . S
C3470 C3471 1.287 . S
C3471 C3470 1.287 . S
C3471 C3472 1.524 . S
C3471 H3474 0.999 . S
C3472 H3442 0.950 . S
C3472 C3471 1.524 . S
C3472 C3473 1.415 . S
C3473 H3443 0.950 . S
C3473 C3468 1.363 . S
C3473 C3472 1.415 . S
H3474 C3471 0.999 . S
H3475 C3456 0.913 . S
H3476 C3494 0.951 1_655 S
H3477 C3496 0.919 1_655 S
H3478 C3498 0.950 . S
H3479 C3499 0.950 . S
H3480 C3501 0.950 . S
H3481 C3504 0.950 . S
H3482 C3505 0.950 . S
H3483 C3507 0.950 . S
H3484 C3508 0.950 . S
H3485 C3509 0.951 . S
H3486 C3511 0.951 . S
H3487 C3513 0.950 . S
H3488 C3514 0.950 . S
H3489 C3516 0.950 . S
H3490 C3519 0.950 . S
H3491 C3520 0.950 . S
H3492 C3522 0.950 . S
H3493 C3523 0.950 . S
C3494 H3476 0.951 1_455 S
C3494 C3495 1.366 . S
C3494 C3496 1.388 . S
C3495 C3494 1.366 . S
C3495 C3499 1.385 . S
C3496 H3477 0.919 1_455 S
C3496 C3494 1.388 . S
C3496 C3497 1.366 . S
C3497 C3496 1.366 . S
C3497 C3498 1.414 . S
C3497 C3500 1.499 . S
C3498 H3478 0.950 . S
C3498 C3497 1.414 . S
C3498 C3499 1.374 . S
C3499 H3479 0.950 . S
C3499 C3495 1.385 . S
C3499 C3498 1.374 . S
C3500 C3497 1.499 . S
C3500 C3501 1.373 . S
C3500 C3502 1.389 . S
C3501 H3480 0.950 . S
C3501 C3500 1.373 . S
C3501 C3517 1.377 . S
C3502 C3500 1.389 . S
C3502 C3503 1.524 . S
C3502 C3516 1.377 . S
C3503 C3502 1.524 . S
C3503 C3504 1.397 . S
C3503 C3508 1.363 . S
C3504 H3481 0.950 . S
C3504 C3503 1.397 . S
C3504 C3505 1.334 . S
C3505 H3482 0.950 . S
C3505 C3504 1.334 . S
C3505 C3506 1.287 . S
C3506 C3505 1.287 . S
C3506 C3507 1.524 . S
C3506 H3525 0.913 . S
C3507 H3483 0.950 . S
C3507 C3506 1.524 . S
C3507 C3508 1.415 . S
C3508 H3484 0.950 . S
C3508 C3503 1.363 . S
C3508 C3507 1.415 . S
C3509 H3485 0.951 . S
C3509 C3510 1.366 . S
C3509 C3511 1.388 . S
C3510 C3509 1.366 . S
C3510 C3514 1.385 1_554 S
C3511 H3486 0.951 . S
C3511 C3509 1.388 . S
C3511 C3512 1.366 1_554 S
C3512 C3511 1.366 1_556 S
C3512 C3513 1.414 . S
C3512 C3515 1.499 . S
C3513 H3487 0.950 . S
C3513 C3512 1.414 . S
C3513 C3514 1.374 . S
C3514 H3488 0.950 . S
C3514 C3510 1.385 1_556 S
C3514 C3513 1.374 . S
C3515 C3512 1.499 . S
C3515 C3516 1.373 . S
C3515 C3517 1.389 . S
C3516 H3489 0.950 . S
C3516 C3502 1.377 . S
C3516 C3515 1.373 . S
C3517 C3501 1.377 . S
C3517 C3515 1.389 . S
C3517 C3518 1.524 1_556 S
C3518 C3517 1.524 1_554 S
C3518 C3519 1.397 . S
C3518 C3523 1.363 . S
C3519 H3490 0.950 . S
C3519 C3518 1.397 . S
C3519 C3520 1.334 . S
C3520 H3491 0.950 . S
C3520 C3519 1.334 . S
C3520 C3521 1.287 . S
C3521 C3520 1.287 . S
C3521 C3522 1.524 . S
C3521 H3524 0.999 . S
C3522 H3492 0.950 . S
C3522 C3521 1.524 . S
C3522 C3523 1.415 . S
C3523 H3493 0.950 . S
C3523 C3518 1.363 . S
C3523 C3522 1.415 . S
H3524 C3521 0.999 . S
H3525 C3506 0.913 . S
H3526 C3544 0.955 1_655 S
H3527 C3546 0.951 . S
H3528 C3548 0.950 . S
H3529 C3549 0.950 . S
H3530 C3551 0.950 . S
H3531 C3554 0.950 . S
H3532 C3555 0.950 . S
H3533 C3557 0.950 . S
H3534 C3558 0.950 . S
H3535 C3559 0.951 . S
H3536 C3561 0.951 . S
H3537 C3563 0.950 . S
H3538 C3564 0.950 . S
H3539 C3566 0.950 . S
H3540 C3569 0.950 . S
H3541 C3570 0.950 . S
H3542 C3572 0.950 . S
H3543 C3573 0.950 . S
C3544 H3526 0.955 1_455 S
C3544 C3545 1.426 . S
C3544 C3546 1.327 1_455 S
C3545 C3544 1.426 . S
C3545 C3549 1.385 . S
C3546 H3527 0.951 . S
C3546 C3544 1.327 1_655 S
C3546 C3547 1.366 . S
C3547 C3546 1.366 . S
C3547 C3548 1.414 1_655 S
C3547 C3550 1.499 . S
C3548 H3528 0.950 . S
C3548 C3547 1.414 1_455 S
C3548 C3549 1.374 . S
C3549 H3529 0.950 . S
C3549 C3545 1.385 . S
C3549 C3548 1.374 . S
C3550 C3547 1.499 . S
C3550 C3551 1.373 . S
C3550 C3552 1.389 . S
C3551 H3530 0.950 . S
C3551 C3550 1.373 . S
C3551 C3567 1.377 . S
C3552 C3550 1.389 . S
C3552 C3553 1.524 . S
C3552 C3566 1.377 . S
C3553 C3552 1.524 . S
C3553 C3554 1.397 . S
C3553 C3558 1.363 . S
C3554 H3531 0.950 . S
C3554 C3553 1.397 . S
C3554 C3555 1.334 . S
C3555 H3532 0.950 . S
C3555 C3554 1.334 . S
C3555 C3556 1.287 . S
C3556 C3555 1.287 . S
C3556 C3557 1.524 . S
C3556 H3575 0.913 . S
C3557 H3533 0.950 . S
C3557 C3556 1.524 . S
C3557 C3558 1.415 . S
C3558 H3534 0.950 . S
C3558 C3553 1.363 . S
C3558 C3557 1.415 . S
C3559 H3535 0.951 . S
C3559 C3560 1.366 . S
C3559 C3561 1.388 . S
C3560 C3559 1.366 . S
C3560 C3564 1.385 . S
C3561 H3536 0.951 . S
C3561 C3559 1.388 . S
C3561 C3562 1.366 . S
C3562 C3561 1.366 . S
C3562 C3563 1.414 . S
C3562 C3565 1.499 . S
C3563 H3537 0.950 . S
C3563 C3562 1.414 . S
C3563 C3564 1.374 . S
C3564 H3538 0.950 . S
C3564 C3560 1.385 . S
C3564 C3563 1.374 . S
C3565 C3562 1.499 . S
C3565 C3566 1.373 . S
C3565 C3567 1.389 . S
C3566 H3539 0.950 . S
C3566 C3552 1.377 . S
C3566 C3565 1.373 . S
C3567 C3551 1.377 . S
C3567 C3565 1.389 . S
C3567 C3568 1.524 . S
C3568 C3567 1.524 . S
C3568 C3569 1.397 . S
C3568 C3573 1.363 . S
C3569 H3540 0.950 . S
C3569 C3568 1.397 . S
C3569 C3570 1.334 . S
C3570 H3541 0.950 . S
C3570 C3569 1.334 . S
C3570 C3571 1.287 . S
C3571 C3570 1.287 . S
C3571 C3572 1.524 . S
C3571 H3574 0.999 . S
C3572 H3542 0.950 . S
C3572 C3571 1.524 . S
C3572 C3573 1.415 . S
C3573 H3543 0.950 . S
C3573 C3568 1.363 . S
C3573 C3572 1.415 . S
H3574 C3571 0.999 . S
H3575 C3556 0.913 . S
H3576 C3594 0.951 . S
H3577 C3596 0.951 . S
H3578 C3598 0.950 . S
H3579 C3599 0.950 . S
H3580 C3601 0.950 . S
H3581 C3604 0.950 . S
H3582 C3605 0.950 . S
H3583 C3607 0.950 . S
H3584 C3608 0.950 . S
H3585 C3609 0.951 . S
H3586 C3611 0.951 . S
H3587 C3613 0.950 . S
H3588 C3614 0.950 . S
H3589 C3616 0.950 . S
H3590 C3619 0.950 . S
H3591 C3620 0.950 . S
H3592 C3622 0.950 . S
H3593 C3623 0.950 . S
C3594 H3576 0.951 . S
C3594 C3595 1.366 . S
C3594 C3596 1.388 . S
C3595 C3594 1.366 . S
C3595 C3599 1.385 . S
C3596 H3577 0.951 . S
C3596 C3594 1.388 . S
C3596 C3597 1.366 . S
C3597 C3596 1.366 . S
C3597 C3598 1.414 . S
C3597 C3600 1.499 . S
C3598 H3578 0.950 . S
C3598 C3597 1.414 . S
C3598 C3599 1.374 . S
C3599 H3579 0.950 . S
C3599 C3595 1.385 . S
C3599 C3598 1.374 . S
C3600 C3597 1.499 . S
C3600 C3601 1.373 . S
C3600 C3602 1.389 . S
C3601 H3580 0.950 . S
C3601 C3600 1.373 . S
C3601 C3617 1.377 . S
C3602 C3600 1.389 . S
C3602 C3603 1.524 . S
C3602 C3616 1.377 . S
C3603 C3602 1.524 . S
C3603 C3604 1.397 . S
C3603 C3608 1.363 . S
C3604 H3581 0.950 . S
C3604 C3603 1.397 . S
C3604 C3605 1.334 . S
C3605 H3582 0.950 . S
C3605 C3604 1.334 . S
C3605 C3606 1.287 . S
C3606 C3605 1.287 . S
C3606 C3607 1.524 . S
C3606 H3625 0.913 . S
C3607 H3583 0.950 . S
C3607 C3606 1.524 . S
C3607 C3608 1.415 . S
C3608 H3584 0.950 . S
C3608 C3603 1.363 . S
C3608 C3607 1.415 . S
C3609 H3585 0.951 . S
C3609 C3610 1.366 . S
C3609 C3611 1.388 . S
C3610 C3609 1.366 . S
C3610 C3614 1.385 . S
C3611 H3586 0.951 . S
C3611 C3609 1.388 . S
C3611 C3612 1.366 . S
C3612 C3611 1.366 . S
C3612 C3613 1.414 . S
C3612 C3615 1.499 . S
C3613 H3587 0.950 . S
C3613 C3612 1.414 . S
C3613 C3614 1.374 . S
C3614 H3588 0.950 . S
C3614 C3610 1.385 . S
C3614 C3613 1.374 . S
C3615 C3612 1.499 . S
C3615 C3616 1.373 . S
C3615 C3617 1.389 . S
C3616 H3589 0.950 . S
C3616 C3602 1.377 . S
C3616 C3615 1.373 . S
C3617 C3601 1.377 . S
C3617 C3615 1.389 . S
C3617 C3618 1.524 . S
C3618 C3617 1.524 . S
C3618 C3619 1.397 . S
C3618 C3623 1.363 . S
C3619 H3590 0.950 . S
C3619 C3618 1.397 . S
C3619 C3620 1.334 . S
C3620 H3591 0.950 . S
C3620 C3619 1.334 . S
C3620 C3621 1.287 . S
C3621 C3620 1.287 . S
C3621 C3622 1.524 . S
C3621 H3624 0.999 . S
C3622 H3592 0.950 . S
C3622 C3621 1.524 . S
C3622 C3623 1.415 . S
C3623 H3593 0.950 . S
C3623 C3618 1.363 . S
C3623 C3622 1.415 . S
H3624 C3621 0.999 . S
H3625 C3606 0.913 . S
H3626 C3644 0.951 . S
H3627 C3646 0.951 . S
H3628 C3648 0.950 . S
H3629 C3649 0.950 . S
H3630 C3651 0.950 . S
H3631 C3654 0.950 . S
H3632 C3655 0.950 . S
H3633 C3657 0.950 . S
H3634 C3658 0.950 . S
H3635 C3659 0.951 . S
H3636 C3661 0.951 . S
H3637 C3663 0.950 . S
H3638 C3664 0.950 . S
H3639 C3666 0.950 . S
H3640 C3669 0.950 . S
H3641 C3670 0.950 . S
H3642 C3672 0.950 . S
H3643 C3673 0.950 . S
C3644 H3626 0.951 . S
C3644 C3645 1.366 . S
C3644 C3646 1.388 . S
C3645 C3644 1.366 . S
C3645 C3649 1.385 . S
C3646 H3627 0.951 . S
C3646 C3644 1.388 . S
C3646 C3647 1.366 . S
C3647 C3646 1.366 . S
C3647 C3648 1.414 . S
C3647 C3650 1.499 1_455 S
C3648 H3628 0.950 . S
C3648 C3647 1.414 . S
C3648 C3649 1.374 . S
C3649 H3629 0.950 . S
C3649 C3645 1.385 . S
C3649 C3648 1.374 . S
C3650 C3647 1.499 1_655 S
C3650 C3651 1.373 . S
C3650 C3652 1.389 . S
C3651 H3630 0.950 . S
C3651 C3650 1.373 . S
C3651 C3667 1.377 . S
C3652 C3650 1.389 . S
C3652 C3653 1.524 . S
C3652 C3666 1.377 . S
C3653 C3652 1.524 . S
C3653 C3654 1.397 1_655 S
C3653 C3658 1.363 . S
C3654 H3631 0.950 . S
C3654 C3653 1.397 1_455 S
C3654 C3655 1.334 . S
C3655 H3632 0.950 . S
C3655 C3654 1.334 . S
C3655 C3656 1.266 1_455 S
C3656 C3655 1.266 1_655 S
C3656 C3657 1.573 . S
C3656 H3675 0.882 1_655 S
C3657 H3633 0.950 . S
C3657 C3656 1.573 . S
C3657 C3658 1.415 . S
C3658 H3634 0.950 . S
C3658 C3653 1.363 . S
C3658 C3657 1.415 . S
C3659 H3635 0.951 . S
C3659 C3660 1.366 . S
C3659 C3661 1.388 . S
C3660 C3659 1.366 . S
C3660 C3664 1.385 . S
C3661 H3636 0.951 . S
C3661 C3659 1.388 . S
C3661 C3662 1.366 . S
C3662 C3661 1.366 . S
C3662 C3663 1.414 . S
C3662 C3665 1.499 . S
C3663 H3637 0.950 . S
C3663 C3662 1.414 . S
C3663 C3664 1.374 . S
C3664 H3638 0.950 . S
C3664 C3660 1.385 . S
C3664 C3663 1.374 . S
C3665 C3662 1.499 . S
C3665 C3666 1.373 . S
C3665 C3667 1.389 . S
C3666 H3639 0.950 . S
C3666 C3652 1.377 . S
C3666 C3665 1.373 . S
C3667 C3651 1.377 . S
C3667 C3665 1.389 . S
C3667 C3668 1.524 . S
C3668 C3667 1.524 . S
C3668 C3669 1.397 . S
C3668 C3673 1.363 . S
C3669 H3640 0.950 . S
C3669 C3668 1.397 . S
C3669 C3670 1.334 . S
C3670 H3641 0.950 . S
C3670 C3669 1.334 . S
C3670 C3671 1.287 . S
C3671 C3670 1.287 . S
C3671 C3672 1.524 . S
C3671 H3674 0.999 . S
C3672 H3642 0.950 . S
C3672 C3671 1.524 . S
C3672 C3673 1.415 . S
C3673 H3643 0.950 . S
C3673 C3668 1.363 . S
C3673 C3672 1.415 . S
H3674 C3671 0.999 . S
H3675 C3656 0.882 1_455 S
H3676 C3694 0.951 . S
H3677 C3696 0.951 . S
H3678 C3698 0.950 . S
H3679 C3699 0.950 . S
H3680 C3701 0.950 1_655 S
H3681 C3704 0.950 . S
H3682 C3705 0.950 . S
H3683 C3707 0.950 . S
H3684 C3708 0.950 . S
H3685 C3709 0.963 . S
H3686 C3711 0.951 1_655 S
H3687 C3713 0.950 . S
H3688 C3714 0.950 . S
H3689 C3716 0.950 . S
H3690 C3719 0.950 . S
H3691 C3720 0.950 . S
H3692 C3722 0.950 . S
H3693 C3723 0.950 . S
C3694 H3676 0.951 . S
C3694 C3695 1.366 1_455 S
C3694 C3696 1.388 . S
C3695 C3694 1.366 1_655 S
C3695 C3699 1.385 . S
C3696 H3677 0.951 . S
C3696 C3694 1.388 . S
C3696 C3697 1.366 1_455 S
C3697 C3696 1.366 1_655 S
C3697 C3698 1.412 . S
C3697 C3700 1.500 1_655 S
C3698 H3678 0.950 . S
C3698 C3697 1.412 . S
C3698 C3699 1.374 . S
C3699 H3679 0.950 . S
C3699 C3695 1.385 . S
C3699 C3698 1.374 . S
C3700 C3697 1.500 1_455 S
C3700 C3701 1.373 . S
C3700 C3702 1.389 . S
C3701 H3680 0.950 1_455 S
C3701 C3700 1.373 . S
C3701 C3717 1.377 . S
C3702 C3700 1.389 . S
C3702 C3703 1.524 . S
C3702 C3716 1.377 . S
C3703 C3702 1.524 . S
C3703 C3704 1.397 1_455 S
C3703 C3708 1.363 . S
C3704 H3681 0.950 . S
C3704 C3703 1.397 1_655 S
C3704 C3705 1.334 . S
C3705 H3682 0.950 . S
C3705 C3704 1.334 . S
C3705 C3706 1.287 1_655 S
C3706 C3705 1.287 1_455 S
C3706 C3707 1.524 . S
C3706 H3725 0.913 . S
C3707 H3683 0.950 . S
C3707 C3706 1.524 . S
C3707 C3708 1.415 . S
C3708 H3684 0.950 . S
C3708 C3703 1.363 . S
C3708 C3707 1.415 . S
C3709 H3685 0.963 . S
C3709 C3710 1.366 . S
C3709 C3711 1.388 . S
C3710 C3709 1.366 . S
C3710 C3714 1.385 . S
C3711 H3686 0.951 1_455 S
C3711 C3709 1.388 . S
C3711 C3712 1.366 . S
C3712 C3711 1.366 . S
C3712 C3713 1.414 . S
C3712 C3715 1.499 . S
C3713 H3687 0.950 . S
C3713 C3712 1.414 . S
C3713 C3714 1.374 . S
C3714 H3688 0.950 . S
C3714 C3710 1.385 . S
C3714 C3713 1.374 . S
C3715 C3712 1.499 . S
C3715 C3716 1.373 . S
C3715 C3717 1.389 . S
C3716 H3689 0.950 . S
C3716 C3702 1.377 . S
C3716 C3715 1.373 . S
C3717 C3701 1.377 . S
C3717 C3715 1.389 . S
C3717 C3718 1.524 . S
C3718 C3717 1.524 . S
C3718 C3719 1.397 . S
C3718 C3723 1.363 1_455 S
C3719 H3690 0.950 . S
C3719 C3718 1.397 . S
C3719 C3720 1.334 . S
C3720 H3691 0.950 . S
C3720 C3719 1.334 . S
C3720 C3721 1.287 . S
C3721 C3720 1.287 . S
C3721 C3722 1.524 1_455 S
C3721 H3724 0.999 . S
C3722 H3692 0.950 . S
C3722 C3721 1.524 1_655 S
C3722 C3723 1.415 . S
C3723 H3693 0.950 . S
C3723 C3718 1.363 1_655 S
C3723 C3722 1.415 . S
H3724 C3721 0.999 . S
H3725 C3706 0.913 . S
H3726 C3744 0.951 . S
H3727 C3746 0.951 . S
H3728 C3748 0.950 . S
H3729 C3749 0.950 . S
H3730 C3751 0.950 . S
H3731 C3754 0.950 . S
H3732 C3755 0.950 . S
H3733 C3757 0.950 . S
H3734 C3758 0.950 . S
H3735 C3759 0.951 . S
H3736 C3761 0.951 . S
H3737 C3763 0.950 . S
H3738 C3764 0.950 . S
H3739 C3766 0.950 . S
H3740 C3769 0.950 . S
H3741 C3770 0.950 . S
H3742 C3772 0.950 . S
H3743 C3773 0.950 . S
C3744 H3726 0.951 . S
C3744 C3745 1.366 . S
C3744 C3746 1.388 . S
C3745 C3744 1.366 . S
C3745 C3749 1.385 . S
C3746 H3727 0.951 . S
C3746 C3744 1.388 . S
C3746 C3747 1.366 . S
C3747 C3746 1.366 . S
C3747 C3748 1.414 . S
C3747 C3750 1.499 . S
C3748 H3728 0.950 . S
C3748 C3747 1.414 . S
C3748 C3749 1.374 . S
C3749 H3729 0.950 . S
C3749 C3745 1.385 . S
C3749 C3748 1.374 . S
C3750 C3747 1.499 . S
C3750 C3751 1.373 . S
C3750 C3752 1.389 . S
C3751 H3730 0.950 . S
C3751 C3750 1.373 . S
C3751 C3767 1.377 . S
C3752 C3750 1.389 . S
C3752 C3753 1.524 . S
C3752 C3766 1.377 . S
C3753 C3752 1.524 . S
C3753 C3754 1.397 . S
C3753 C3758 1.363 . S
C3754 H3731 0.950 . S
C3754 C3753 1.397 . S
C3754 C3755 1.334 . S
C3755 H3732 0.950 . S
C3755 C3754 1.334 . S
C3755 C3756 1.287 . S
C3756 C3755 1.287 . S
C3756 C3757 1.524 . S
C3756 H3775 0.913 . S
C3757 H3733 0.950 . S
C3757 C3756 1.524 . S
C3757 C3758 1.415 . S
C3758 H3734 0.950 . S
C3758 C3753 1.363 . S
C3758 C3757 1.415 . S
C3759 H3735 0.951 . S
C3759 C3760 1.366 . S
C3759 C3761 1.388 . S
C3760 C3759 1.366 . S
C3760 C3764 1.385 . S
C3761 H3736 0.951 . S
C3761 C3759 1.388 . S
C3761 C3762 1.366 . S
C3762 C3761 1.366 . S
C3762 C3763 1.414 . S
C3762 C3765 1.499 . S
C3763 H3737 0.950 . S
C3763 C3762 1.414 . S
C3763 C3764 1.374 . S
C3764 H3738 0.950 . S
C3764 C3760 1.385 . S
C3764 C3763 1.374 . S
C3765 C3762 1.499 . S
C3765 C3766 1.373 . S
C3765 C3767 1.389 . S
C3766 H3739 0.950 . S
C3766 C3752 1.377 . S
C3766 C3765 1.373 . S
C3767 C3751 1.377 . S
C3767 C3765 1.389 . S
C3767 C3768 1.524 . S
C3768 C3767 1.524 . S
C3768 C3769 1.397 . S
C3768 C3773 1.363 . S
C3769 H3740 0.950 . S
C3769 C3768 1.397 . S
C3769 C3770 1.334 . S
C3770 H3741 0.950 . S
C3770 C3769 1.334 . S
C3770 C3771 1.287 . S
C3771 C3770 1.287 . S
C3771 C3772 1.524 . S
C3771 H3774 0.999 . S
C3772 H3742 0.950 . S
C3772 C3771 1.524 . S
C3772 C3773 1.415 . S
C3773 H3743 0.950 . S
C3773 C3768 1.363 . S
C3773 C3772 1.415 . S
H3774 C3771 0.999 . S
H3775 C3756 0.913 . S
H3776 C3794 0.951 . S
H3777 C3796 0.951 . S
H3778 C3798 0.950 . S
H3779 C3799 0.950 . S
H3780 C3801 0.950 . S
H3781 C3804 0.950 . S
H3782 C3805 0.950 . S
H3783 C3807 0.950 . S
H3784 C3808 0.950 . S
H3785 C3809 0.951 . S
H3786 C3811 0.951 . S
H3787 C3813 0.950 . S
H3788 C3814 0.950 . S
H3789 C3816 0.950 . S
H3790 C3819 0.950 . S
H3791 C3820 0.950 . S
H3792 C3822 0.950 . S
H3793 C3823 0.950 . S
C3794 H3776 0.951 . S
C3794 C3795 1.366 . S
C3794 C3796 1.388 . S
C3795 C3794 1.366 . S
C3795 C3799 1.385 . S
C3796 H3777 0.951 . S
C3796 C3794 1.388 . S
C3796 C3797 1.366 . S
C3797 C3796 1.366 . S
C3797 C3798 1.414 . S
C3797 C3800 1.499 . S
C3798 H3778 0.950 . S
C3798 C3797 1.414 . S
C3798 C3799 1.374 . S
C3799 H3779 0.950 . S
C3799 C3795 1.385 . S
C3799 C3798 1.374 . S
C3800 C3797 1.499 . S
C3800 C3801 1.373 . S
C3800 C3802 1.389 . S
C3801 H3780 0.950 . S
C3801 C3800 1.373 . S
C3801 C3817 1.377 . S
C3802 C3800 1.389 . S
C3802 C3803 1.524 . S
C3802 C3816 1.377 . S
C3803 C3802 1.524 . S
C3803 C3804 1.397 . S
C3803 C3808 1.363 . S
C3804 H3781 0.950 . S
C3804 C3803 1.397 . S
C3804 C3805 1.334 . S
C3805 H3782 0.950 . S
C3805 C3804 1.334 . S
C3805 C3806 1.287 . S
C3806 C3805 1.287 . S
C3806 C3807 1.524 . S
C3806 H3825 0.913 . S
C3807 H3783 0.950 . S
C3807 C3806 1.524 . S
C3807 C3808 1.415 . S
C3808 H3784 0.950 . S
C3808 C3803 1.363 . S
C3808 C3807 1.415 . S
C3809 H3785 0.951 . S
C3809 C3810 1.366 . S
C3809 C3811 1.388 . S
C3810 C3809 1.366 . S
C3810 C3814 1.385 . S
C3811 H3786 0.951 . S
C3811 C3809 1.388 . S
C3811 C3812 1.366 . S
C3812 C3811 1.366 . S
C3812 C3813 1.414 . S
C3812 C3815 1.499 . S
C3813 H3787 0.950 . S
C3813 C3812 1.414 . S
C3813 C3814 1.374 . S
C3814 H3788 0.950 . S
C3814 C3810 1.385 . S
C3814 C3813 1.374 . S
C3815 C3812 1.499 . S
C3815 C3816 1.373 . S
C3815 C3817 1.389 . S
C3816 H3789 0.950 . S
C3816 C3802 1.377 . S
C3816 C3815 1.373 . S
C3817 C3801 1.377 . S
C3817 C3815 1.389 . S
C3817 C3818 1.524 . S
C3818 C3817 1.524 . S
C3818 C3819 1.397 . S
C3818 C3823 1.363 . S
C3819 H3790 0.950 . S
C3819 C3818 1.397 . S
C3819 C3820 1.334 . S
C3820 H3791 0.950 . S
C3820 C3819 1.334 . S
C3820 C3821 1.287 . S
C3821 C3820 1.287 . S
C3821 C3822 1.524 . S
C3821 H3824 0.999 . S
C3822 H3792 0.950 . S
C3822 C3821 1.524 . S
C3822 C3823 1.415 . S
C3823 H3793 0.950 . S
C3823 C3818 1.363 . S
C3823 C3822 1.415 . S
H3824 C3821 0.999 . S
H3825 C3806 0.913 . S
H3826 C3844 0.951 . S
H3827 C3846 0.951 . S
H3828 C3848 0.950 . S
H3829 C3849 0.950 . S
H3830 C3851 0.950 . S
H3831 C3854 0.950 . S
H3832 C3855 0.950 . S
H3833 C3857 0.950 . S
H3834 C3858 0.950 . S
H3835 C3859 0.951 . S
H3836 C3861 0.951 . S
H3837 C3863 0.950 . S
H3838 C3864 0.950 . S
H3839 C3866 0.950 . S
H3840 C3869 0.950 . S
H3841 C3870 0.950 . S
H3842 C3872 0.950 . S
H3843 C3873 0.950 . S
C3844 H3826 0.951 . S
C3844 C3845 1.366 . S
C3844 C3846 1.388 . S
C3845 C3844 1.366 . S
C3845 C3849 1.385 . S
C3846 H3827 0.951 . S
C3846 C3844 1.388 . S
C3846 C3847 1.366 . S
C3847 C3846 1.366 . S
C3847 C3848 1.414 . S
C3847 C3850 1.499 . S
C3848 H3828 0.950 . S
C3848 C3847 1.414 . S
C3848 C3849 1.374 . S
C3849 H3829 0.950 . S
C3849 C3845 1.385 . S
C3849 C3848 1.374 . S
C3850 C3847 1.499 . S
C3850 C3851 1.373 . S
C3850 C3852 1.389 . S
C3851 H3830 0.950 . S
C3851 C3850 1.373 . S
C3851 C3867 1.377 . S
C3852 C3850 1.389 . S
C3852 C3853 1.524 . S
C3852 C3866 1.377 . S
C3853 C3852 1.524 . S
C3853 C3854 1.397 . S
C3853 C3858 1.363 . S
C3854 H3831 0.950 . S
C3854 C3853 1.397 . S
C3854 C3855 1.334 . S
C3855 H3832 0.950 . S
C3855 C3854 1.334 . S
C3855 C3856 1.287 . S
C3856 C3855 1.287 . S
C3856 C3857 1.524 . S
C3856 H3875 0.913 . S
C3857 H3833 0.950 . S
C3857 C3856 1.524 . S
C3857 C3858 1.415 . S
C3858 H3834 0.950 . S
C3858 C3853 1.363 . S
C3858 C3857 1.415 . S
C3859 H3835 0.951 . S
C3859 C3860 1.366 . S
C3859 C3861 1.388 . S
C3860 C3859 1.366 . S
C3860 C3864 1.385 . S
C3861 H3836 0.951 . S
C3861 C3859 1.388 . S
C3861 C3862 1.366 . S
C3862 C3861 1.366 . S
C3862 C3863 1.414 . S
C3862 C3865 1.499 . S
C3863 H3837 0.950 . S
C3863 C3862 1.414 . S
C3863 C3864 1.374 . S
C3864 H3838 0.950 . S
C3864 C3860 1.385 . S
C3864 C3863 1.374 . S
C3865 C3862 1.499 . S
C3865 C3866 1.373 . S
C3865 C3867 1.389 . S
C3866 H3839 0.950 . S
C3866 C3852 1.377 . S
C3866 C3865 1.373 . S
C3867 C3851 1.377 . S
C3867 C3865 1.389 . S
C3867 C3868 1.524 . S
C3868 C3867 1.524 . S
C3868 C3869 1.397 . S
C3868 C3873 1.363 . S
C3869 H3840 0.950 . S
C3869 C3868 1.397 . S
C3869 C3870 1.334 . S
C3870 H3841 0.950 . S
C3870 C3869 1.334 . S
C3870 C3871 1.287 . S
C3871 C3870 1.287 . S
C3871 C3872 1.524 . S
C3871 H3874 0.999 . S
C3872 H3842 0.950 . S
C3872 C3871 1.524 . S
C3872 C3873 1.415 . S
C3873 H3843 0.950 . S
C3873 C3868 1.363 . S
C3873 C3872 1.415 . S
H3874 C3871 0.999 . S
H3875 C3856 0.913 . S
H3876 C3894 0.951 . S
H3877 C3896 0.951 . S
H3878 C3898 0.950 . S
H3879 C3899 0.950 . S
H3880 C3901 0.950 . S
H3881 C3904 0.950 . S
H3882 C3905 0.950 . S
H3883 C3907 0.950 . S
H3884 C3908 0.950 . S
H3885 C3909 0.951 . S
H3886 C3911 0.951 . S
H3887 C3913 0.950 . S
H3888 C3914 0.950 . S
H3889 C3916 0.950 . S
H3890 C3919 0.950 . S
H3891 C3920 0.950 . S
H3892 C3922 0.950 . S
H3893 C3923 0.950 . S
C3894 H3876 0.951 . S
C3894 C3895 1.366 . S
C3894 C3896 1.388 . S
C3895 C3894 1.366 . S
C3895 C3899 1.385 . S
C3896 H3877 0.951 . S
C3896 C3894 1.388 . S
C3896 C3897 1.366 . S
C3897 C3896 1.366 . S
C3897 C3898 1.414 . S
C3897 C3900 1.499 . S
C3898 H3878 0.950 . S
C3898 C3897 1.414 . S
C3898 C3899 1.374 . S
C3899 H3879 0.950 . S
C3899 C3895 1.385 . S
C3899 C3898 1.374 . S
C3900 C3897 1.499 . S
C3900 C3901 1.373 . S
C3900 C3902 1.389 . S
C3901 H3880 0.950 . S
C3901 C3900 1.373 . S
C3901 C3917 1.377 . S
C3902 C3900 1.389 . S
C3902 C3903 1.524 . S
C3902 C3916 1.377 . S
C3903 C3902 1.524 . S
C3903 C3904 1.397 . S
C3903 C3908 1.363 . S
C3904 H3881 0.950 . S
C3904 C3903 1.397 . S
C3904 C3905 1.334 . S
C3905 H3882 0.950 . S
C3905 C3904 1.334 . S
C3905 C3906 1.287 . S
C3906 C3905 1.287 . S
C3906 C3907 1.524 . S
C3906 H3925 0.913 . S
C3907 H3883 0.950 . S
C3907 C3906 1.524 . S
C3907 C3908 1.415 . S
C3908 H3884 0.950 . S
C3908 C3903 1.363 . S
C3908 C3907 1.415 . S
C3909 H3885 0.951 . S
C3909 C3910 1.366 . S
C3909 C3911 1.388 . S
C3910 C3909 1.366 . S
C3910 C3914 1.385 . S
C3911 H3886 0.951 . S
C3911 C3909 1.388 . S
C3911 C3912 1.366 . S
C3912 C3911 1.366 . S
C3912 C3913 1.414 . S
C3912 C3915 1.499 . S
C3913 H3887 0.950 . S
C3913 C3912 1.414 . S
C3913 C3914 1.374 . S
C3914 H3888 0.950 . S
C3914 C3910 1.385 . S
C3914 C3913 1.374 . S
C3915 C3912 1.499 . S
C3915 C3916 1.373 . S
C3915 C3917 1.389 . S
C3916 H3889 0.950 . S
C3916 C3902 1.377 . S
C3916 C3915 1.373 . S
C3917 C3901 1.377 . S
C3917 C3915 1.389 . S
C3917 C3918 1.524 . S
C3918 C3917 1.524 . S
C3918 C3919 1.397 . S
C3918 C3923 1.363 . S
C3919 H3890 0.950 . S
C3919 C3918 1.397 . S
C3919 C3920 1.334 . S
C3920 H3891 0.950 . S
C3920 C3919 1.334 . S
C3920 C3921 1.287 . S
C3921 C3920 1.287 . S
C3921 C3922 1.524 . S
C3921 H3924 0.999 . S
C3922 H3892 0.950 . S
C3922 C3921 1.524 . S
C3922 C3923 1.415 . S
C3923 H3893 0.950 . S
C3923 C3918 1.363 . S
C3923 C3922 1.415 . S
H3924 C3921 0.999 . S
H3925 C3906 0.913 . S
H3926 C3944 0.951 . S
H3927 C3946 0.951 . S
H3928 C3948 0.950 . S
H3929 C3949 0.950 . S
H3930 C3951 0.950 . S
H3931 C3954 0.950 . S
H3932 C3955 0.950 . S
H3933 C3957 0.950 . S
H3934 C3958 0.950 . S
H3935 C3959 0.951 . S
H3936 C3961 0.951 . S
H3937 C3963 0.950 . S
H3938 C3964 0.950 . S
H3939 C3966 0.950 . S
H3940 C3969 0.950 . S
H3941 C3970 0.950 . S
H3942 C3972 0.950 . S
H3943 C3973 0.950 . S
C3944 H3926 0.951 . S
C3944 C3945 1.366 . S
C3944 C3946 1.388 . S
C3945 C3944 1.366 . S
C3945 C3949 1.385 . S
C3946 H3927 0.951 . S
C3946 C3944 1.388 . S
C3946 C3947 1.366 . S
C3947 C3946 1.366 . S
C3947 C3948 1.414 . S
C3947 C3950 1.499 . S
C3948 H3928 0.950 . S
C3948 C3947 1.414 . S
C3948 C3949 1.374 . S
C3949 H3929 0.950 . S
C3949 C3945 1.385 . S
C3949 C3948 1.374 . S
C3950 C3947 1.499 . S
C3950 C3951 1.373 . S
C3950 C3952 1.389 . S
C3951 H3930 0.950 . S
C3951 C3950 1.373 . S
C3951 C3967 1.377 . S
C3952 C3950 1.389 . S
C3952 C3953 1.524 . S
C3952 C3966 1.377 . S
C3953 C3952 1.524 . S
C3953 C3954 1.397 . S
C3953 C3958 1.363 . S
C3954 H3931 0.950 . S
C3954 C3953 1.397 . S
C3954 C3955 1.334 . S
C3955 H3932 0.950 . S
C3955 C3954 1.334 . S
C3955 C3956 1.287 . S
C3956 C3955 1.287 . S
C3956 C3957 1.524 . S
C3956 H3975 0.913 . S
C3957 H3933 0.950 . S
C3957 C3956 1.524 . S
C3957 C3958 1.415 . S
C3958 H3934 0.950 . S
C3958 C3953 1.363 . S
C3958 C3957 1.415 . S
C3959 H3935 0.951 . S
C3959 C3960 1.366 . S
C3959 C3961 1.388 . S
C3960 C3959 1.366 . S
C3960 C3964 1.385 . S
C3961 H3936 0.951 . S
C3961 C3959 1.388 . S
C3961 C3962 1.366 . S
C3962 C3961 1.366 . S
C3962 C3963 1.414 . S
C3962 C3965 1.499 . S
C3963 H3937 0.950 . S
C3963 C3962 1.414 . S
C3963 C3964 1.374 . S
C3964 H3938 0.950 . S
C3964 C3960 1.385 . S
C3964 C3963 1.374 . S
C3965 C3962 1.499 . S
C3965 C3966 1.373 . S
C3965 C3967 1.389 . S
C3966 H3939 0.950 . S
C3966 C3952 1.377 . S
C3966 C3965 1.373 . S
C3967 C3951 1.377 . S
C3967 C3965 1.389 . S
C3967 C3968 1.524 . S
C3968 C3967 1.524 . S
C3968 C3969 1.397 . S
C3968 C3973 1.363 . S
C3969 H3940 0.950 . S
C3969 C3968 1.397 . S
C3969 C3970 1.334 . S
C3970 H3941 0.950 . S
C3970 C3969 1.334 . S
C3970 C3971 1.287 . S
C3971 C3970 1.287 . S
C3971 C3972 1.524 . S
C3971 H3974 0.999 . S
C3972 H3942 0.950 . S
C3972 C3971 1.524 . S
C3972 C3973 1.415 . S
C3973 H3943 0.950 . S
C3973 C3968 1.363 . S
C3973 C3972 1.415 . S
H3974 C3971 0.999 . S
H3975 C3956 0.913 . S
H3976 C3994 0.951 . S
H3977 C3996 0.951 . S
H3978 C3998 0.950 . S
H3979 C3999 0.950 . S
H3980 C4001 0.950 . S
H3981 C4004 0.950 . S
H3982 C4005 0.950 . S
H3983 C4007 0.950 . S
H3984 C4008 0.950 . S
H3985 C4009 0.951 . S
H3986 C4011 0.951 . S
H3987 C4013 0.950 . S
H3988 C4014 0.950 . S
H3989 C4016 0.950 . S
H3990 C4019 0.950 . S
H3991 C4020 0.950 . S
H3992 C4022 0.950 . S
H3993 C4023 0.950 . S
C3994 H3976 0.951 . S
C3994 C3995 1.366 . S
C3994 C3996 1.388 . S
C3995 C3994 1.366 . S
C3995 C3999 1.385 . S
C3996 H3977 0.951 . S
C3996 C3994 1.388 . S
C3996 C3997 1.366 . S
C3997 C3996 1.366 . S
C3997 C3998 1.414 . S
C3997 C4000 1.499 . S
C3998 H3978 0.950 . S
C3998 C3997 1.414 . S
C3998 C3999 1.374 . S
C3999 H3979 0.950 . S
C3999 C3995 1.385 . S
C3999 C3998 1.374 . S
C4000 C3997 1.499 . S
C4000 C4001 1.373 . S
C4000 C4002 1.389 . S
C4001 H3980 0.950 . S
C4001 C4000 1.373 . S
C4001 C4017 1.377 . S
C4002 C4000 1.389 . S
C4002 C4003 1.524 . S
C4002 C4016 1.377 . S
C4003 C4002 1.524 . S
C4003 C4004 1.397 . S
C4003 C4008 1.363 . S
C4004 H3981 0.950 . S
C4004 C4003 1.397 . S
C4004 C4005 1.334 . S
C4005 H3982 0.950 . S
C4005 C4004 1.334 . S
C4005 C4006 1.287 . S
C4006 C4005 1.287 . S
C4006 C4007 1.524 . S
C4006 H4025 0.913 . S
C4007 H3983 0.950 . S
C4007 C4006 1.524 . S
C4007 C4008 1.415 . S
C4008 H3984 0.950 . S
C4008 C4003 1.363 . S
C4008 C4007 1.415 . S
C4009 H3985 0.951 . S
C4009 C4010 1.366 . S
C4009 C4011 1.388 . S
C4010 C4009 1.366 . S
C4010 C4014 1.385 . S
C4011 H3986 0.951 . S
C4011 C4009 1.388 . S
C4011 C4012 1.366 . S
C4012 C4011 1.366 . S
C4012 C4013 1.414 . S
C4012 C4015 1.499 . S
C4013 H3987 0.950 . S
C4013 C4012 1.414 . S
C4013 C4014 1.374 . S
C4014 H3988 0.950 . S
C4014 C4010 1.385 . S
C4014 C4013 1.374 . S
C4015 C4012 1.499 . S
C4015 C4016 1.373 . S
C4015 C4017 1.389 . S
C4016 H3989 0.950 . S
C4016 C4002 1.377 . S
C4016 C4015 1.373 . S
C4017 C4001 1.377 . S
C4017 C4015 1.389 . S
C4017 C4018 1.524 . S
C4018 C4017 1.524 . S
C4018 C4019 1.397 . S
C4018 C4023 1.363 . S
C4019 H3990 0.950 . S
C4019 C4018 1.397 . S
C4019 C4020 1.334 . S
C4020 H3991 0.950 . S
C4020 C4019 1.334 . S
C4020 C4021 1.287 . S
C4021 C4020 1.287 . S
C4021 C4022 1.524 . S
C4021 H4024 0.999 . S
C4022 H3992 0.950 . S
C4022 C4021 1.524 . S
C4022 C4023 1.415 . S
C4023 H3993 0.950 . S
C4023 C4018 1.363 . S
C4023 C4022 1.415 . S
H4024 C4021 0.999 . S
H4025 C4006 0.913 . S
H4026 C4044 0.951 . S
H4027 C4046 0.951 . S
H4028 C4048 0.950 . S
H4029 C4049 0.950 . S
H4030 C4051 0.950 . S
H4031 C4054 0.950 . S
H4032 C4055 0.950 . S
H4033 C4057 0.950 . S
H4034 C4058 0.950 . S
H4035 C4059 0.951 . S
H4036 C4061 0.951 . S
H4037 C4063 0.950 . S
H4038 C4064 0.950 . S
H4039 C4066 0.950 . S
H4040 C4069 0.950 . S
H4041 C4070 0.950 . S
H4042 C4072 0.950 . S
H4043 C4073 0.950 . S
C4044 H4026 0.951 . S
C4044 C4045 1.366 . S
C4044 C4046 1.388 . S
C4045 C4044 1.366 . S
C4045 C4049 1.385 . S
C4046 H4027 0.951 . S
C4046 C4044 1.388 . S
C4046 C4047 1.366 . S
C4047 C4046 1.366 . S
C4047 C4048 1.414 . S
C4047 C4050 1.499 . S
C4048 H4028 0.950 . S
C4048 C4047 1.414 . S
C4048 C4049 1.374 . S
C4049 H4029 0.950 . S
C4049 C4045 1.385 . S
C4049 C4048 1.374 . S
C4050 C4047 1.499 . S
C4050 C4051 1.373 . S
C4050 C4052 1.389 . S
C4051 H4030 0.950 . S
C4051 C4050 1.373 . S
C4051 C4067 1.377 . S
C4052 C4050 1.389 . S
C4052 C4053 1.524 . S
C4052 C4066 1.377 . S
C4053 C4052 1.524 . S
C4053 C4054 1.397 . S
C4053 C4058 1.363 . S
C4054 H4031 0.950 . S
C4054 C4053 1.397 . S
C4054 C4055 1.334 . S
C4055 H4032 0.950 . S
C4055 C4054 1.334 . S
C4055 C4056 1.287 . S
C4056 C4055 1.287 . S
C4056 C4057 1.524 . S
C4056 H4075 0.913 . S
C4057 H4033 0.950 . S
C4057 C4056 1.524 . S
C4057 C4058 1.415 . S
C4058 H4034 0.950 . S
C4058 C4053 1.363 . S
C4058 C4057 1.415 . S
C4059 H4035 0.951 . S
C4059 C4060 1.366 . S
C4059 C4061 1.388 . S
C4060 C4059 1.366 . S
C4060 C4064 1.385 . S
C4061 H4036 0.951 . S
C4061 C4059 1.388 . S
C4061 C4062 1.366 . S
C4062 C4061 1.366 . S
C4062 C4063 1.414 . S
C4062 C4065 1.499 . S
C4063 H4037 0.950 . S
C4063 C4062 1.414 . S
C4063 C4064 1.374 . S
C4064 H4038 0.950 . S
C4064 C4060 1.385 . S
C4064 C4063 1.374 . S
C4065 C4062 1.499 . S
C4065 C4066 1.373 . S
C4065 C4067 1.389 . S
C4066 H4039 0.950 . S
C4066 C4052 1.377 . S
C4066 C4065 1.373 . S
C4067 C4051 1.377 . S
C4067 C4065 1.389 . S
C4067 C4068 1.524 . S
C4068 C4067 1.524 . S
C4068 C4069 1.397 . S
C4068 C4073 1.363 . S
C4069 H4040 0.950 . S
C4069 C4068 1.397 . S
C4069 C4070 1.334 . S
C4070 H4041 0.950 . S
C4070 C4069 1.334 . S
C4070 C4071 1.287 . S
C4071 C4070 1.287 . S
C4071 C4072 1.524 . S
C4071 H4074 0.999 . S
C4072 H4042 0.950 . S
C4072 C4071 1.524 . S
C4072 C4073 1.415 . S
C4073 H4043 0.950 . S
C4073 C4068 1.363 . S
C4073 C4072 1.415 . S
H4074 C4071 0.999 . S
H4075 C4056 0.913 . S
H4076 C4094 0.951 . S
H4077 C4096 0.951 . S
H4078 C4098 0.950 . S
H4079 C4099 0.950 . S
H4080 C4101 0.950 . S
H4081 C4104 0.950 . S
H4082 C4105 0.950 . S
H4083 C4107 0.950 . S
H4084 C4108 0.950 . S
H4085 C4109 0.951 . S
H4086 C4111 0.951 . S
H4087 C4113 0.950 . S
H4088 C4114 0.950 . S
H4089 C4116 0.950 . S
H4090 C4119 0.950 . S
H4091 C4120 0.950 . S
H4092 C4122 0.950 . S
H4093 C4123 0.950 . S
C4094 H4076 0.951 . S
C4094 C4095 1.366 . S
C4094 C4096 1.388 . S
C4095 C4094 1.366 . S
C4095 C4099 1.385 . S
C4096 H4077 0.951 . S
C4096 C4094 1.388 . S
C4096 C4097 1.366 . S
C4097 C4096 1.366 . S
C4097 C4098 1.414 . S
C4097 C4100 1.499 . S
C4098 H4078 0.950 . S
C4098 C4097 1.414 . S
C4098 C4099 1.374 . S
C4099 H4079 0.950 . S
C4099 C4095 1.385 . S
C4099 C4098 1.374 . S
C4100 C4097 1.499 . S
C4100 C4101 1.373 . S
C4100 C4102 1.389 . S
C4101 H4080 0.950 . S
C4101 C4100 1.373 . S
C4101 C4117 1.377 . S
C4102 C4100 1.389 . S
C4102 C4103 1.524 . S
C4102 C4116 1.377 . S
C4103 C4102 1.524 . S
C4103 C4104 1.397 . S
C4103 C4108 1.363 . S
C4104 H4081 0.950 . S
C4104 C4103 1.397 . S
C4104 C4105 1.334 . S
C4105 H4082 0.950 . S
C4105 C4104 1.334 . S
C4105 C4106 1.287 . S
C4106 C4105 1.287 . S
C4106 C4107 1.524 . S
C4106 H4125 0.913 . S
C4107 H4083 0.950 . S
C4107 C4106 1.524 . S
C4107 C4108 1.415 . S
C4108 H4084 0.950 . S
C4108 C4103 1.363 . S
C4108 C4107 1.415 . S
C4109 H4085 0.951 . S
C4109 C4110 1.366 . S
C4109 C4111 1.388 . S
C4110 C4109 1.366 . S
C4110 C4114 1.385 . S
C4111 H4086 0.951 . S
C4111 C4109 1.388 . S
C4111 C4112 1.366 . S
C4112 C4111 1.366 . S
C4112 C4113 1.414 . S
C4112 C4115 1.499 . S
C4113 H4087 0.950 . S
C4113 C4112 1.414 . S
C4113 C4114 1.374 . S
C4114 H4088 0.950 . S
C4114 C4110 1.385 . S
C4114 C4113 1.374 . S
C4115 C4112 1.499 . S
C4115 C4116 1.373 . S
C4115 C4117 1.389 . S
C4116 H4089 0.950 . S
C4116 C4102 1.377 . S
C4116 C4115 1.373 . S
C4117 C4101 1.377 . S
C4117 C4115 1.389 . S
C4117 C4118 1.524 . S
C4118 C4117 1.524 . S
C4118 C4119 1.397 . S
C4118 C4123 1.363 . S
C4119 H4090 0.950 . S
C4119 C4118 1.397 . S
C4119 C4120 1.334 . S
C4120 H4091 0.950 . S
C4120 C4119 1.334 . S
C4120 C4121 1.287 . S
C4121 C4120 1.287 . S
C4121 C4122 1.524 . S
C4121 H4124 0.999 . S
C4122 H4092 0.950 . S
C4122 C4121 1.524 . S
C4122 C4123 1.415 . S
C4123 H4093 0.950 . S
C4123 C4118 1.363 . S
C4123 C4122 1.415 . S
H4124 C4121 0.999 . S
H4125 C4106 0.913 . S
H4126 C4144 0.951 . S
H4127 C4146 0.951 . S
H4128 C4148 0.950 . S
H4129 C4149 0.950 . S
H4130 C4151 0.950 . S
H4131 C4154 0.950 . S
H4132 C4155 0.950 . S
H4133 C4157 0.950 . S
H4134 C4158 0.950 . S
H4135 C4159 0.951 . S
H4136 C4161 0.951 . S
H4137 C4163 0.950 . S
H4138 C4164 0.950 . S
H4139 C4166 0.950 . S
H4140 C4169 0.950 . S
H4141 C4170 0.950 . S
H4142 C4172 0.950 . S
H4143 C4173 0.950 . S
C4144 H4126 0.951 . S
C4144 C4145 1.366 . S
C4144 C4146 1.388 . S
C4145 C4144 1.366 . S
C4145 C4149 1.385 . S
C4146 H4127 0.951 . S
C4146 C4144 1.388 . S
C4146 C4147 1.366 . S
C4147 C4146 1.366 . S
C4147 C4148 1.414 . S
C4147 C4150 1.499 . S
C4148 H4128 0.950 . S
C4148 C4147 1.414 . S
C4148 C4149 1.374 . S
C4149 H4129 0.950 . S
C4149 C4145 1.385 . S
C4149 C4148 1.374 . S
C4150 C4147 1.499 . S
C4150 C4151 1.373 . S
C4150 C4152 1.389 . S
C4151 H4130 0.950 . S
C4151 C4150 1.373 . S
C4151 C4167 1.377 . S
C4152 C4150 1.389 . S
C4152 C4153 1.524 . S
C4152 C4166 1.377 . S
C4153 C4152 1.524 . S
C4153 C4154 1.397 . S
C4153 C4158 1.363 . S
C4154 H4131 0.950 . S
C4154 C4153 1.397 . S
C4154 C4155 1.334 . S
C4155 H4132 0.950 . S
C4155 C4154 1.334 . S
C4155 C4156 1.287 . S
C4156 C4155 1.287 . S
C4156 C4157 1.524 . S
C4156 H4175 0.913 . S
C4157 H4133 0.950 . S
C4157 C4156 1.524 . S
C4157 C4158 1.415 . S
C4158 H4134 0.950 . S
C4158 C4153 1.363 . S
C4158 C4157 1.415 . S
C4159 H4135 0.951 . S
C4159 C4160 1.366 . S
C4159 C4161 1.388 . S
C4160 C4159 1.366 . S
C4160 C4164 1.385 . S
C4161 H4136 0.951 . S
C4161 C4159 1.388 . S
C4161 C4162 1.366 . S
C4162 C4161 1.366 . S
C4162 C4163 1.414 . S
C4162 C4165 1.499 . S
C4163 H4137 0.950 . S
C4163 C4162 1.414 . S
C4163 C4164 1.374 . S
C4164 H4138 0.950 . S
C4164 C4160 1.385 . S
C4164 C4163 1.374 . S
C4165 C4162 1.499 . S
C4165 C4166 1.373 . S
C4165 C4167 1.389 . S
C4166 H4139 0.950 . S
C4166 C4152 1.377 . S
C4166 C4165 1.373 . S
C4167 C4151 1.377 . S
C4167 C4165 1.389 . S
C4167 C4168 1.524 . S
C4168 C4167 1.524 . S
C4168 C4169 1.397 . S
C4168 C4173 1.363 . S
C4169 H4140 0.950 . S
C4169 C4168 1.397 . S
C4169 C4170 1.334 . S
C4170 H4141 0.950 . S
C4170 C4169 1.334 . S
C4170 C4171 1.287 . S
C4171 C4170 1.287 . S
C4171 C4172 1.524 . S
C4171 H4174 0.999 . S
C4172 H4142 0.950 . S
C4172 C4171 1.524 . S
C4172 C4173 1.415 . S
C4173 H4143 0.950 . S
C4173 C4168 1.363 . S
C4173 C4172 1.415 . S
H4174 C4171 0.999 . S
H4175 C4156 0.913 . S
H4176 C4194 0.951 . S
H4177 C4196 0.951 . S
H4178 C4198 0.950 . S
H4179 C4199 0.950 . S
H4180 C4201 0.950 . S
H4181 C4204 0.950 . S
H4182 C4205 0.950 . S
H4183 C4207 0.950 . S
H4184 C4208 0.950 . S
H4185 C4209 0.951 . S
H4186 C4211 0.951 . S
H4187 C4213 0.950 . S
H4188 C4214 0.950 . S
H4189 C4216 0.950 . S
H4190 C4219 0.950 . S
H4191 C4220 0.950 . S
H4192 C4222 0.950 . S
H4193 C4223 0.950 . S
C4194 H4176 0.951 . S
C4194 C4195 1.366 . S
C4194 C4196 1.388 . S
C4195 C4194 1.366 . S
C4195 C4199 1.385 . S
C4196 H4177 0.951 . S
C4196 C4194 1.388 . S
C4196 C4197 1.366 . S
C4197 C4196 1.366 . S
C4197 C4198 1.414 . S
C4197 C4200 1.499 . S
C4198 H4178 0.950 . S
C4198 C4197 1.414 . S
C4198 C4199 1.374 . S
C4199 H4179 0.950 . S
C4199 C4195 1.385 . S
C4199 C4198 1.374 . S
C4200 C4197 1.499 . S
C4200 C4201 1.373 . S
C4200 C4202 1.389 . S
C4201 H4180 0.950 . S
C4201 C4200 1.373 . S
C4201 C4217 1.377 . S
C4202 C4200 1.389 . S
C4202 C4203 1.524 . S
C4202 C4216 1.377 . S
C4203 C4202 1.524 . S
C4203 C4204 1.397 . S
C4203 C4208 1.363 . S
C4204 H4181 0.950 . S
C4204 C4203 1.397 . S
C4204 C4205 1.334 . S
C4205 H4182 0.950 . S
C4205 C4204 1.334 . S
C4205 C4206 1.287 . S
C4206 C4205 1.287 . S
C4206 C4207 1.524 . S
C4206 H4225 0.913 . S
C4207 H4183 0.950 . S
C4207 C4206 1.524 . S
C4207 C4208 1.415 . S
C4208 H4184 0.950 . S
C4208 C4203 1.363 . S
C4208 C4207 1.415 . S
C4209 H4185 0.951 . S
C4209 C4210 1.366 . S
C4209 C4211 1.388 . S
C4210 C4209 1.366 . S
C4210 C4214 1.385 . S
C4211 H4186 0.951 . S
C4211 C4209 1.388 . S
C4211 C4212 1.366 . S
C4212 C4211 1.366 . S
C4212 C4213 1.414 . S
C4212 C4215 1.499 . S
C4213 H4187 0.950 . S
C4213 C4212 1.414 . S
C4213 C4214 1.374 . S
C4214 H4188 0.950 . S
C4214 C4210 1.385 . S
C4214 C4213 1.374 . S
C4215 C4212 1.499 . S
C4215 C4216 1.373 . S
C4215 C4217 1.389 . S
C4216 H4189 0.950 . S
C4216 C4202 1.377 . S
C4216 C4215 1.373 . S
C4217 C4201 1.377 . S
C4217 C4215 1.389 . S
C4217 C4218 1.524 . S
C4218 C4217 1.524 . S
C4218 C4219 1.397 . S
C4218 C4223 1.363 . S
C4219 H4190 0.950 . S
C4219 C4218 1.397 . S
C4219 C4220 1.334 . S
C4220 H4191 0.950 . S
C4220 C4219 1.334 . S
C4220 C4221 1.287 . S
C4221 C4220 1.287 . S
C4221 C4222 1.524 . S
C4221 H4224 0.999 . S
C4222 H4192 0.950 . S
C4222 C4221 1.524 . S
C4222 C4223 1.415 . S
C4223 H4193 0.950 . S
C4223 C4218 1.363 . S
C4223 C4222 1.415 . S
H4224 C4221 0.999 . S
H4225 C4206 0.913 . S
H4226 C4244 0.951 . S
H4227 C4246 0.951 . S
H4228 C4248 0.950 . S
H4229 C4249 0.950 . S
H4230 C4251 0.950 . S
H4231 C4254 0.950 . S
H4232 C4255 0.950 . S
H4233 C4257 0.950 . S
H4234 C4258 0.950 . S
H4235 C4259 0.951 . S
H4236 C4261 0.951 . S
H4237 C4263 0.950 . S
H4238 C4264 0.950 . S
H4239 C4266 0.950 . S
H4240 C4269 0.950 . S
H4241 C4270 0.950 . S
H4242 C4272 0.950 . S
H4243 C4273 0.950 . S
C4244 H4226 0.951 . S
C4244 C4245 1.366 . S
C4244 C4246 1.388 . S
C4245 C4244 1.366 . S
C4245 C4249 1.385 . S
C4246 H4227 0.951 . S
C4246 C4244 1.388 . S
C4246 C4247 1.366 . S
C4247 C4246 1.366 . S
C4247 C4248 1.414 . S
C4247 C4250 1.499 . S
C4248 H4228 0.950 . S
C4248 C4247 1.414 . S
C4248 C4249 1.374 . S
C4249 H4229 0.950 . S
C4249 C4245 1.385 . S
C4249 C4248 1.374 . S
C4250 C4247 1.499 . S
C4250 C4251 1.373 . S
C4250 C4252 1.389 . S
C4251 H4230 0.950 . S
C4251 C4250 1.373 . S
C4251 C4267 1.377 . S
C4252 C4250 1.389 . S
C4252 C4253 1.524 . S
C4252 C4266 1.377 . S
C4253 C4252 1.524 . S
C4253 C4254 1.397 . S
C4253 C4258 1.363 . S
C4254 H4231 0.950 . S
C4254 C4253 1.397 . S
C4254 C4255 1.334 . S
C4255 H4232 0.950 . S
C4255 C4254 1.334 . S
C4255 C4256 1.287 . S
C4256 C4255 1.287 . S
C4256 C4257 1.524 . S
C4256 H4275 0.913 . S
C4257 H4233 0.950 . S
C4257 C4256 1.524 . S
C4257 C4258 1.415 . S
C4258 H4234 0.950 . S
C4258 C4253 1.363 . S
C4258 C4257 1.415 . S
C4259 H4235 0.951 . S
C4259 C4260 1.366 . S
C4259 C4261 1.388 . S
C4260 C4259 1.366 . S
C4260 C4264 1.385 . S
C4261 H4236 0.951 . S
C4261 C4259 1.388 . S
C4261 C4262 1.366 . S
C4262 C4261 1.366 . S
C4262 C4263 1.414 . S
C4262 C4265 1.499 . S
C4263 H4237 0.950 . S
C4263 C4262 1.414 . S
C4263 C4264 1.374 . S
C4264 H4238 0.950 . S
C4264 C4260 1.385 . S
C4264 C4263 1.374 . S
C4265 C4262 1.499 . S
C4265 C4266 1.373 . S
C4265 C4267 1.389 . S
C4266 H4239 0.950 . S
C4266 C4252 1.377 . S
C4266 C4265 1.373 . S
C4267 C4251 1.377 . S
C4267 C4265 1.389 . S
C4267 C4268 1.524 . S
C4268 C4267 1.524 . S
C4268 C4269 1.397 . S
C4268 C4273 1.363 . S
C4269 H4240 0.950 . S
C4269 C4268 1.397 . S
C4269 C4270 1.334 . S
C4270 H4241 0.950 . S
C4270 C4269 1.334 . S
C4270 C4271 1.287 . S
C4271 C4270 1.287 . S
C4271 C4272 1.524 . S
C4271 H4274 0.999 . S
C4272 H4242 0.950 . S
C4272 C4271 1.524 . S
C4272 C4273 1.415 . S
C4273 H4243 0.950 . S
C4273 C4268 1.363 . S
C4273 C4272 1.415 . S
H4274 C4271 0.999 . S
H4275 C4256 0.913 . S
H4276 C4294 0.951 . S
H4277 C4296 0.951 . S
H4278 C4298 0.950 . S
H4279 C4299 0.950 . S
H4280 C4301 0.950 . S
H4281 C4304 0.950 . S
H4282 C4305 0.950 . S
H4283 C4307 0.950 . S
H4284 C4308 0.950 . S
H4285 C4309 0.951 . S
H4286 C4311 0.951 . S
H4287 C4313 0.950 . S
H4288 C4314 0.950 . S
H4289 C4316 0.950 . S
H4290 C4319 0.950 . S
H4291 C4320 0.950 . S
H4292 C4322 0.950 . S
H4293 C4323 0.950 . S
C4294 H4276 0.951 . S
C4294 C4295 1.366 . S
C4294 C4296 1.388 . S
C4295 C4294 1.366 . S
C4295 C4299 1.385 . S
C4296 H4277 0.951 . S
C4296 C4294 1.388 . S
C4296 C4297 1.366 . S
C4297 C4296 1.366 . S
C4297 C4298 1.414 . S
C4297 C4300 1.499 . S
C4298 H4278 0.950 . S
C4298 C4297 1.414 . S
C4298 C4299 1.374 . S
C4299 H4279 0.950 . S
C4299 C4295 1.385 . S
C4299 C4298 1.374 . S
C4300 C4297 1.499 . S
C4300 C4301 1.373 . S
C4300 C4302 1.389 . S
C4301 H4280 0.950 . S
C4301 C4300 1.373 . S
C4301 C4317 1.377 . S
C4302 C4300 1.389 . S
C4302 C4303 1.524 . S
C4302 C4316 1.377 . S
C4303 C4302 1.524 . S
C4303 C4304 1.397 . S
C4303 C4308 1.363 . S
C4304 H4281 0.950 . S
C4304 C4303 1.397 . S
C4304 C4305 1.334 . S
C4305 H4282 0.950 . S
C4305 C4304 1.334 . S
C4305 C4306 1.287 . S
C4306 C4305 1.287 . S
C4306 C4307 1.524 . S
C4306 H4325 0.913 . S
C4307 H4283 0.950 . S
C4307 C4306 1.524 . S
C4307 C4308 1.415 . S
C4308 H4284 0.950 . S
C4308 C4303 1.363 . S
C4308 C4307 1.415 . S
C4309 H4285 0.951 . S
C4309 C4310 1.366 . S
C4309 C4311 1.388 . S
C4310 C4309 1.366 . S
C4310 C4314 1.385 . S
C4311 H4286 0.951 . S
C4311 C4309 1.388 . S
C4311 C4312 1.366 . S
C4312 C4311 1.366 . S
C4312 C4313 1.414 . S
C4312 C4315 1.499 . S
C4313 H4287 0.950 . S
C4313 C4312 1.414 . S
C4313 C4314 1.374 . S
C4314 H4288 0.950 . S
C4314 C4310 1.385 . S
C4314 C4313 1.374 . S
C4315 C4312 1.499 . S
C4315 C4316 1.373 . S
C4315 C4317 1.389 . S
C4316 H4289 0.950 . S
C4316 C4302 1.377 . S
C4316 C4315 1.373 . S
C4317 C4301 1.377 . S
C4317 C4315 1.389 . S
C4317 C4318 1.524 . S
C4318 C4317 1.524 . S
C4318 C4319 1.397 . S
C4318 C4323 1.363 . S
C4319 H4290 0.950 . S
C4319 C4318 1.397 . S
C4319 C4320 1.334 . S
C4320 H4291 0.950 . S
C4320 C4319 1.334 . S
C4320 C4321 1.287 . S
C4321 C4320 1.287 . S
C4321 C4322 1.524 . S
C4321 H4324 0.999 . S
C4322 H4292 0.950 . S
C4322 C4321 1.524 . S
C4322 C4323 1.415 . S
C4323 H4293 0.950 . S
C4323 C4318 1.363 . S
C4323 C4322 1.415 . S
H4324 C4321 0.999 . S
H4325 C4306 0.913 . S
H4326 C4344 0.951 . S
H4327 C4346 0.951 . S
H4328 C4348 0.950 . S
H4329 C4349 0.950 . S
H4330 C4351 0.950 . S
H4331 C4354 0.950 . S
H4332 C4355 0.950 . S
H4333 C4357 0.950 . S
H4334 C4358 0.950 . S
H4335 C4359 0.962 . S
H4336 C4361 0.951 . S
H4337 C4363 0.950 1_556 S
H4338 C4364 0.955 . S
H4339 C4366 0.950 . S
H4340 C4369 0.950 . S
H4341 C4370 0.950 . S
H4342 C4372 0.950 . S
H4343 C4373 0.950 . S
C4344 H4326 0.951 . S
C4344 C4345 1.366 . S
C4344 C4346 1.388 . S
C4345 C4344 1.366 . S
C4345 C4349 1.385 . S
C4346 H4327 0.951 . S
C4346 C4344 1.388 . S
C4346 C4347 1.366 . S
C4347 C4346 1.366 . S
C4347 C4348 1.414 . S
C4347 C4350 1.499 . S
C4348 H4328 0.950 . S
C4348 C4347 1.414 . S
C4348 C4349 1.374 . S
C4349 H4329 0.950 . S
C4349 C4345 1.385 . S
C4349 C4348 1.374 . S
C4350 C4347 1.499 . S
C4350 C4351 1.373 . S
C4350 C4352 1.389 1_554 S
C4351 H4330 0.950 . S
C4351 C4350 1.373 . S
C4351 C4367 1.377 . S
C4352 C4350 1.389 1_556 S
C4352 C4353 1.524 . S
C4352 C4366 1.377 . S
C4353 C4352 1.524 . S
C4353 C4354 1.397 . S
C4353 C4358 1.363 . S
C4354 H4331 0.950 . S
C4354 C4353 1.397 . S
C4354 C4355 1.334 . S
C4355 H4332 0.950 . S
C4355 C4354 1.334 . S
C4355 C4356 1.287 . S
C4356 C4355 1.287 . S
C4356 C4357 1.524 . S
C4356 H4375 0.913 . S
C4357 H4333 0.950 . S
C4357 C4356 1.524 . S
C4357 C4358 1.415 . S
C4358 H4334 0.950 . S
C4358 C4353 1.363 . S
C4358 C4357 1.415 . S
C4359 H4335 0.962 . S
C4359 C4360 1.366 . S
C4359 C4361 1.388 1_545 S
C4360 C4359 1.366 . S
C4360 C4364 1.382 1_554 S
C4361 H4336 0.951 . S
C4361 C4359 1.388 1_565 S
C4361 C4362 1.366 1_565 S
C4362 C4361 1.366 1_545 S
C4362 C4363 1.414 . S
C4362 C4365 1.499 1_545 S
C4363 H4337 0.950 1_554 S
C4363 C4362 1.414 . S
C4363 C4364 1.372 1_554 S
C4364 H4338 0.955 . S
C4364 C4360 1.382 1_556 S
C4364 C4363 1.372 1_556 S
C4365 C4362 1.499 1_565 S
C4365 C4366 1.373 1_554 S
C4365 C4367 1.389 . S
C4366 H4339 0.950 . S
C4366 C4352 1.377 . S
C4366 C4365 1.373 1_556 S
C4367 C4351 1.377 . S
C4367 C4365 1.389 . S
C4367 C4368 1.524 . S
C4368 C4367 1.524 . S
C4368 C4369 1.397 1_565 S
C4368 C4373 1.363 . S
C4369 H4340 0.950 . S
C4369 C4368 1.397 1_545 S
C4369 C4370 1.334 . S
C4370 H4341 0.950 . S
C4370 C4369 1.334 . S
C4370 C4371 1.287 . S
C4371 C4370 1.287 . S
C4371 C4372 1.524 1_545 S
C4371 H4374 0.999 . S
C4372 H4342 0.950 . S
C4372 C4371 1.524 1_565 S
C4372 C4373 1.415 . S
C4373 H4343 0.950 . S
C4373 C4368 1.363 . S
C4373 C4372 1.415 . S
H4374 C4371 0.999 . S
H4375 C4356 0.913 . S
H4376 C4394 0.951 . S
H4377 C4396 0.951 . S
H4378 C4398 0.950 . S
H4379 C4399 0.950 . S
H4380 C4401 0.950 . S
H4381 C4404 0.950 . S
H4382 C4405 0.950 . S
H4383 C4407 0.950 . S
H4384 C4408 0.950 . S
H4385 C4409 0.951 . S
H4386 C4411 0.951 . S
H4387 C4413 0.950 . S
H4388 C4414 0.950 . S
H4389 C4416 0.950 . S
H4390 C4419 0.950 . S
H4391 C4420 0.950 . S
H4392 C4422 0.950 . S
H4393 C4423 0.950 . S
C4394 H4376 0.951 . S
C4394 C4395 1.366 . S
C4394 C4396 1.388 . S
C4395 C4394 1.366 . S
C4395 C4399 1.385 . S
C4396 H4377 0.951 . S
C4396 C4394 1.388 . S
C4396 C4397 1.366 . S
C4397 C4396 1.366 . S
C4397 C4398 1.414 . S
C4397 C4400 1.499 . S
C4398 H4378 0.950 . S
C4398 C4397 1.414 . S
C4398 C4399 1.374 . S
C4399 H4379 0.950 . S
C4399 C4395 1.385 . S
C4399 C4398 1.374 . S
C4400 C4397 1.499 . S
C4400 C4401 1.373 . S
C4400 C4402 1.389 . S
C4401 H4380 0.950 . S
C4401 C4400 1.373 . S
C4401 C4417 1.377 . S
C4402 C4400 1.389 . S
C4402 C4403 1.524 . S
C4402 C4416 1.377 . S
C4403 C4402 1.524 . S
C4403 C4404 1.397 . S
C4403 C4408 1.363 . S
C4404 H4381 0.950 . S
C4404 C4403 1.397 . S
C4404 C4405 1.334 . S
C4405 H4382 0.950 . S
C4405 C4404 1.334 . S
C4405 C4406 1.287 . S
C4406 C4405 1.287 . S
C4406 C4407 1.524 . S
C4406 H4425 0.913 . S
C4407 H4383 0.950 . S
C4407 C4406 1.524 . S
C4407 C4408 1.415 . S
C4408 H4384 0.950 . S
C4408 C4403 1.363 . S
C4408 C4407 1.415 . S
C4409 H4385 0.951 . S
C4409 C4410 1.366 . S
C4409 C4411 1.388 . S
C4410 C4409 1.366 . S
C4410 C4414 1.385 . S
C4411 H4386 0.951 . S
C4411 C4409 1.388 . S
C4411 C4412 1.366 . S
C4412 C4411 1.366 . S
C4412 C4413 1.414 . S
C4412 C4415 1.499 . S
C4413 H4387 0.950 . S
C4413 C4412 1.414 . S
C4413 C4414 1.374 . S
C4414 H4388 0.950 . S
C4414 C4410 1.385 . S
C4414 C4413 1.374 . S
C4415 C4412 1.499 . S
C4415 C4416 1.373 . S
C4415 C4417 1.389 . S
C4416 H4389 0.950 . S
C4416 C4402 1.377 . S
C4416 C4415 1.373 . S
C4417 C4401 1.377 . S
C4417 C4415 1.389 . S
C4417 C4418 1.524 . S
C4418 C4417 1.524 . S
C4418 C4419 1.397 . S
C4418 C4423 1.363 . S
C4419 H4390 0.950 . S
C4419 C4418 1.397 . S
C4419 C4420 1.334 . S
C4420 H4391 0.950 . S
C4420 C4419 1.334 . S
C4420 C4421 1.287 . S
C4421 C4420 1.287 . S
C4421 C4422 1.524 . S
C4421 H4424 0.999 . S
C4422 H4392 0.950 . S
C4422 C4421 1.524 . S
C4422 C4423 1.415 . S
C4423 H4393 0.950 . S
C4423 C4418 1.363 . S
C4423 C4422 1.415 . S
H4424 C4421 0.999 . S
H4425 C4406 0.913 . S
H4426 C4444 0.951 . S
H4427 C4446 0.951 . S
H4428 C4448 0.950 . S
H4429 C4449 0.950 . S
H4430 C4451 0.950 . S
H4431 C4454 0.950 . S
H4432 C4455 0.950 . S
H4433 C4457 0.950 . S
H4434 C4458 0.950 . S
H4435 C4459 0.951 . S
H4436 C4461 0.951 . S
H4437 C4463 0.950 . S
H4438 C4464 0.950 . S
H4439 C4466 0.950 . S
H4440 C4469 0.950 . S
H4441 C4470 0.950 . S
H4442 C4472 0.950 . S
H4443 C4473 0.950 . S
C4444 H4426 0.951 . S
C4444 C4445 1.366 . S
C4444 C4446 1.388 . S
C4445 C4444 1.366 . S
C4445 C4449 1.385 . S
C4446 H4427 0.951 . S
C4446 C4444 1.388 . S
C4446 C4447 1.366 . S
C4447 C4446 1.366 . S
C4447 C4448 1.414 . S
C4447 C4450 1.499 . S
C4448 H4428 0.950 . S
C4448 C4447 1.414 . S
C4448 C4449 1.374 . S
C4449 H4429 0.950 . S
C4449 C4445 1.385 . S
C4449 C4448 1.374 . S
C4450 C4447 1.499 . S
C4450 C4451 1.373 . S
C4450 C4452 1.389 . S
C4451 H4430 0.950 . S
C4451 C4450 1.373 . S
C4451 C4467 1.377 . S
C4452 C4450 1.389 . S
C4452 C4453 1.524 1_554 S
C4452 C4466 1.377 . S
C4453 C4452 1.524 1_556 S
C4453 C4454 1.397 . S
C4453 C4458 1.363 . S
C4454 H4431 0.950 . S
C4454 C4453 1.397 . S
C4454 C4455 1.334 . S
C4455 H4432 0.950 . S
C4455 C4454 1.334 . S
C4455 C4456 1.287 . S
C4456 C4455 1.287 . S
C4456 C4457 1.524 . S
C4456 H4475 0.913 . S
C4457 H4433 0.950 . S
C4457 C4456 1.524 . S
C4457 C4458 1.415 . S
C4458 H4434 0.950 . S
C4458 C4453 1.363 . S
C4458 C4457 1.415 . S
C4459 H4435 0.951 . S
C4459 C4460 1.366 . S
C4459 C4461 1.388 . S
C4460 C4459 1.366 . S
C4460 C4464 1.385 . S
C4461 H4436 0.951 . S
C4461 C4459 1.388 . S
C4461 C4462 1.366 . S
C4462 C4461 1.366 . S
C4462 C4463 1.414 . S
C4462 C4465 1.499 . S
C4463 H4437 0.950 . S
C4463 C4462 1.414 . S
C4463 C4464 1.374 . S
C4464 H4438 0.950 . S
C4464 C4460 1.385 . S
C4464 C4463 1.374 . S
C4465 C4462 1.499 . S
C4465 C4466 1.373 . S
C4465 C4467 1.389 . S
C4466 H4439 0.950 . S
C4466 C4452 1.377 . S
C4466 C4465 1.373 . S
C4467 C4451 1.377 . S
C4467 C4465 1.389 . S
C4467 C4468 1.524 . S
C4468 C4467 1.524 . S
C4468 C4469 1.397 . S
C4468 C4473 1.363 . S
C4469 H4440 0.950 . S
C4469 C4468 1.397 . S
C4469 C4470 1.334 . S
C4470 H4441 0.950 . S
C4470 C4469 1.334 . S
C4470 C4471 1.287 . S
C4471 C4470 1.287 . S
C4471 C4472 1.524 . S
C4471 H4474 0.999 . S
C4472 H4442 0.950 . S
C4472 C4471 1.524 . S
C4472 C4473 1.415 . S
C4473 H4443 0.950 . S
C4473 C4468 1.363 . S
C4473 C4472 1.415 . S
H4474 C4471 0.999 . S
H4475 C4456 0.913 . S
H4476 C4494 0.951 . S
H4477 C4496 0.951 . S
H4478 C4498 0.950 . S
H4479 C4499 0.950 . S
H4480 C4501 0.950 . S
H4481 C4504 0.950 . S
H4482 C4505 0.950 . S
H4483 C4507 0.950 . S
H4484 C4508 0.950 . S
H4485 C4509 0.951 . S
H4486 C4511 0.951 . S
H4487 C4513 0.950 . S
H4488 C4514 0.950 . S
H4489 C4516 0.950 . S
H4490 C4519 0.950 . S
H4491 C4520 0.950 . S
H4492 C4522 0.950 . S
H4493 C4523 0.950 . S
C4494 H4476 0.951 . S
C4494 C4495 1.366 . S
C4494 C4496 1.388 . S
C4495 C4494 1.366 . S
C4495 C4499 1.385 . S
C4496 H4477 0.951 . S
C4496 C4494 1.388 . S
C4496 C4497 1.366 . S
C4497 C4496 1.366 . S
C4497 C4498 1.414 . S
C4497 C4500 1.499 . S
C4498 H4478 0.950 . S
C4498 C4497 1.414 . S
C4498 C4499 1.374 . S
C4499 H4479 0.950 . S
C4499 C4495 1.385 . S
C4499 C4498 1.374 . S
C4500 C4497 1.499 . S
C4500 C4501 1.373 . S
C4500 C4502 1.389 . S
C4501 H4480 0.950 . S
C4501 C4500 1.373 . S
C4501 C4517 1.377 . S
C4502 C4500 1.389 . S
C4502 C4503 1.524 . S
C4502 C4516 1.377 . S
C4503 C4502 1.524 . S
C4503 C4504 1.397 . S
C4503 C4508 1.363 . S
C4504 H4481 0.950 . S
C4504 C4503 1.397 . S
C4504 C4505 1.334 . S
C4505 H4482 0.950 . S
C4505 C4504 1.334 . S
C4505 C4506 1.287 . S
C4506 C4505 1.287 . S
C4506 C4507 1.524 . S
C4506 H4525 0.913 . S
C4507 H4483 0.950 . S
C4507 C4506 1.524 . S
C4507 C4508 1.415 . S
C4508 H4484 0.950 . S
C4508 C4503 1.363 . S
C4508 C4507 1.415 . S
C4509 H4485 0.951 . S
C4509 C4510 1.366 . S
C4509 C4511 1.388 . S
C4510 C4509 1.366 . S
C4510 C4514 1.385 . S
C4511 H4486 0.951 . S
C4511 C4509 1.388 . S
C4511 C4512 1.366 . S
C4512 C4511 1.366 . S
C4512 C4513 1.414 . S
C4512 C4515 1.499 . S
C4513 H4487 0.950 . S
C4513 C4512 1.414 . S
C4513 C4514 1.374 . S
C4514 H4488 0.950 . S
C4514 C4510 1.385 . S
C4514 C4513 1.374 . S
C4515 C4512 1.499 . S
C4515 C4516 1.373 . S
C4515 C4517 1.389 . S
C4516 H4489 0.950 . S
C4516 C4502 1.377 . S
C4516 C4515 1.373 . S
C4517 C4501 1.377 . S
C4517 C4515 1.389 . S
C4517 C4518 1.524 . S
C4518 C4517 1.524 . S
C4518 C4519 1.397 . S
C4518 C4523 1.363 . S
C4519 H4490 0.950 . S
C4519 C4518 1.397 . S
C4519 C4520 1.334 . S
C4520 H4491 0.950 . S
C4520 C4519 1.334 . S
C4520 C4521 1.287 . S
C4521 C4520 1.287 . S
C4521 C4522 1.524 . S
C4521 H4524 0.999 . S
C4522 H4492 0.950 . S
C4522 C4521 1.524 . S
C4522 C4523 1.415 . S
C4523 H4493 0.950 . S
C4523 C4518 1.363 . S
C4523 C4522 1.415 . S
H4524 C4521 0.999 . S
H4525 C4506 0.913 . S
H4526 C4544 0.951 . S
H4527 C4546 0.951 . S
H4528 C4548 0.950 . S
H4529 C4549 0.950 . S
H4530 C4551 0.950 . S
H4531 C4554 0.950 . S
H4532 C4555 0.950 . S
H4533 C4557 0.950 . S
H4534 C4558 0.950 . S
H4535 C4559 0.951 . S
H4536 C4561 0.951 . S
H4537 C4563 0.950 . S
H4538 C4564 0.950 . S
H4539 C4566 0.950 . S
H4540 C4569 0.950 . S
H4541 C4570 0.950 . S
H4542 C4572 0.950 . S
H4543 C4573 0.950 . S
C4544 H4526 0.951 . S
C4544 C4545 1.366 . S
C4544 C4546 1.388 . S
C4545 C4544 1.366 . S
C4545 C4549 1.385 . S
C4546 H4527 0.951 . S
C4546 C4544 1.388 . S
C4546 C4547 1.366 . S
C4547 C4546 1.366 . S
C4547 C4548 1.414 . S
C4547 C4550 1.499 . S
C4548 H4528 0.950 . S
C4548 C4547 1.414 . S
C4548 C4549 1.374 . S
C4549 H4529 0.950 . S
C4549 C4545 1.385 . S
C4549 C4548 1.374 . S
C4550 C4547 1.499 . S
C4550 C4551 1.373 . S
C4550 C4552 1.389 . S
C4551 H4530 0.950 . S
C4551 C4550 1.373 . S
C4551 C4567 1.377 . S
C4552 C4550 1.389 . S
C4552 C4553 1.524 . S
C4552 C4566 1.377 . S
C4553 C4552 1.524 . S
C4553 C4554 1.397 . S
C4553 C4558 1.363 . S
C4554 H4531 0.950 . S
C4554 C4553 1.397 . S
C4554 C4555 1.334 . S
C4555 H4532 0.950 . S
C4555 C4554 1.334 . S
C4555 C4556 1.287 . S
C4556 C4555 1.287 . S
C4556 C4557 1.524 . S
C4556 H4575 0.913 . S
C4557 H4533 0.950 . S
C4557 C4556 1.524 . S
C4557 C4558 1.415 . S
C4558 H4534 0.950 . S
C4558 C4553 1.363 . S
C4558 C4557 1.415 . S
C4559 H4535 0.951 . S
C4559 C4560 1.366 . S
C4559 C4561 1.388 . S
C4560 C4559 1.366 . S
C4560 C4564 1.385 . S
C4561 H4536 0.951 . S
C4561 C4559 1.388 . S
C4561 C4562 1.366 . S
C4562 C4561 1.366 . S
C4562 C4563 1.414 . S
C4562 C4565 1.499 . S
C4563 H4537 0.950 . S
C4563 C4562 1.414 . S
C4563 C4564 1.374 . S
C4564 H4538 0.950 . S
C4564 C4560 1.385 . S
C4564 C4563 1.374 . S
C4565 C4562 1.499 . S
C4565 C4566 1.373 . S
C4565 C4567 1.389 . S
C4566 H4539 0.950 . S
C4566 C4552 1.377 . S
C4566 C4565 1.373 . S
C4567 C4551 1.377 . S
C4567 C4565 1.389 . S
C4567 C4568 1.524 . S
C4568 C4567 1.524 . S
C4568 C4569 1.397 . S
C4568 C4573 1.363 . S
C4569 H4540 0.950 . S
C4569 C4568 1.397 . S
C4569 C4570 1.334 . S
C4570 H4541 0.950 . S
C4570 C4569 1.334 . S
C4570 C4571 1.287 . S
C4571 C4570 1.287 . S
C4571 C4572 1.524 . S
C4571 H4574 0.999 . S
C4572 H4542 0.950 . S
C4572 C4571 1.524 . S
C4572 C4573 1.415 . S
C4573 H4543 0.950 . S
C4573 C4568 1.363 . S
C4573 C4572 1.415 . S
H4574 C4571 0.999 . S
H4575 C4556 0.913 . S
H4576 C4594 0.951 . S
H4577 C4596 0.951 . S
H4578 C4598 0.950 . S
H4579 C4599 0.950 . S
H4580 C4601 0.950 . S
H4581 C4604 0.950 . S
H4582 C4605 0.950 . S
H4583 C4607 0.950 . S
H4584 C4608 0.950 . S
H4585 C4609 0.951 . S
H4586 C4611 0.951 . S
H4587 C4613 0.950 . S
H4588 C4614 0.950 . S
H4589 C4616 0.950 . S
H4590 C4619 0.950 . S
H4591 C4620 0.950 . S
H4592 C4622 0.950 . S
H4593 C4623 0.950 . S
C4594 H4576 0.951 . S
C4594 C4595 1.366 . S
C4594 C4596 1.388 . S
C4595 C4594 1.366 . S
C4595 C4599 1.385 . S
C4596 H4577 0.951 . S
C4596 C4594 1.388 . S
C4596 C4597 1.366 . S
C4597 C4596 1.366 . S
C4597 C4598 1.414 . S
C4597 C4600 1.499 . S
C4598 H4578 0.950 . S
C4598 C4597 1.414 . S
C4598 C4599 1.374 . S
C4599 H4579 0.950 . S
C4599 C4595 1.385 . S
C4599 C4598 1.374 . S
C4600 C4597 1.499 . S
C4600 C4601 1.373 . S
C4600 C4602 1.389 . S
C4601 H4580 0.950 . S
C4601 C4600 1.373 . S
C4601 C4617 1.377 . S
C4602 C4600 1.389 . S
C4602 C4603 1.524 . S
C4602 C4616 1.377 . S
C4603 C4602 1.524 . S
C4603 C4604 1.397 . S
C4603 C4608 1.363 . S
C4604 H4581 0.950 . S
C4604 C4603 1.397 . S
C4604 C4605 1.334 . S
C4605 H4582 0.950 . S
C4605 C4604 1.334 . S
C4605 C4606 1.287 . S
C4606 C4605 1.287 . S
C4606 C4607 1.524 . S
C4606 H4625 0.913 . S
C4607 H4583 0.950 . S
C4607 C4606 1.524 . S
C4607 C4608 1.415 . S
C4608 H4584 0.950 . S
C4608 C4603 1.363 . S
C4608 C4607 1.415 . S
C4609 H4585 0.951 . S
C4609 C4610 1.366 . S
C4609 C4611 1.388 . S
C4610 C4609 1.366 . S
C4610 C4614 1.385 . S
C4611 H4586 0.951 . S
C4611 C4609 1.388 . S
C4611 C4612 1.366 . S
C4612 C4611 1.366 . S
C4612 C4613 1.414 . S
C4612 C4615 1.499 . S
C4613 H4587 0.950 . S
C4613 C4612 1.414 . S
C4613 C4614 1.374 . S
C4614 H4588 0.950 . S
C4614 C4610 1.385 . S
C4614 C4613 1.374 . S
C4615 C4612 1.499 . S
C4615 C4616 1.373 . S
C4615 C4617 1.389 . S
C4616 H4589 0.950 . S
C4616 C4602 1.377 . S
C4616 C4615 1.373 . S
C4617 C4601 1.377 . S
C4617 C4615 1.389 . S
C4617 C4618 1.524 . S
C4618 C4617 1.524 . S
C4618 C4619 1.397 . S
C4618 C4623 1.363 . S
C4619 H4590 0.950 . S
C4619 C4618 1.397 . S
C4619 C4620 1.334 . S
C4620 H4591 0.950 . S
C4620 C4619 1.334 . S
C4620 C4621 1.287 . S
C4621 C4620 1.287 . S
C4621 C4622 1.524 . S
C4621 H4624 0.999 . S
C4622 H4592 0.950 . S
C4622 C4621 1.524 . S
C4622 C4623 1.415 . S
C4623 H4593 0.950 . S
C4623 C4618 1.363 . S
C4623 C4622 1.415 . S
H4624 C4621 0.999 . S
H4625 C4606 0.913 . S
H4626 C4644 0.951 . S
H4627 C4646 0.951 . S
H4628 C4648 0.950 . S
H4629 C4649 0.950 . S
H4630 C4651 0.950 . S
H4631 C4654 0.950 . S
H4632 C4655 0.950 . S
H4633 C4657 0.950 . S
H4634 C4658 0.950 . S
H4635 C4659 0.951 . S
H4636 C4661 0.951 . S
H4637 C4663 0.950 . S
H4638 C4664 0.950 . S
H4639 C4666 0.950 . S
H4640 C4669 0.950 . S
H4641 C4670 0.950 . S
H4642 C4672 0.950 . S
H4643 C4673 0.950 . S
C4644 H4626 0.951 . S
C4644 C4645 1.366 . S
C4644 C4646 1.388 . S
C4645 C4644 1.366 . S
C4645 C4649 1.385 . S
C4646 H4627 0.951 . S
C4646 C4644 1.388 . S
C4646 C4647 1.366 . S
C4647 C4646 1.366 . S
C4647 C4648 1.414 . S
C4647 C4650 1.499 . S
C4648 H4628 0.950 . S
C4648 C4647 1.414 . S
C4648 C4649 1.374 . S
C4649 H4629 0.950 . S
C4649 C4645 1.385 . S
C4649 C4648 1.374 . S
C4650 C4647 1.499 . S
C4650 C4651 1.373 . S
C4650 C4652 1.389 . S
C4651 H4630 0.950 . S
C4651 C4650 1.373 . S
C4651 C4667 1.377 . S
C4652 C4650 1.389 . S
C4652 C4653 1.524 . S
C4652 C4666 1.377 . S
C4653 C4652 1.524 . S
C4653 C4654 1.397 . S
C4653 C4658 1.363 . S
C4654 H4631 0.950 . S
C4654 C4653 1.397 . S
C4654 C4655 1.334 . S
C4655 H4632 0.950 . S
C4655 C4654 1.334 . S
C4655 C4656 1.287 . S
C4656 C4655 1.287 . S
C4656 C4657 1.524 . S
C4656 H4675 0.913 . S
C4657 H4633 0.950 . S
C4657 C4656 1.524 . S
C4657 C4658 1.415 . S
C4658 H4634 0.950 . S
C4658 C4653 1.363 . S
C4658 C4657 1.415 . S
C4659 H4635 0.951 . S
C4659 C4660 1.366 . S
C4659 C4661 1.388 . S
C4660 C4659 1.366 . S
C4660 C4664 1.385 . S
C4661 H4636 0.951 . S
C4661 C4659 1.388 . S
C4661 C4662 1.366 . S
C4662 C4661 1.366 . S
C4662 C4663 1.414 . S
C4662 C4665 1.499 . S
C4663 H4637 0.950 . S
C4663 C4662 1.414 . S
C4663 C4664 1.374 . S
C4664 H4638 0.950 . S
C4664 C4660 1.385 . S
C4664 C4663 1.374 . S
C4665 C4662 1.499 . S
C4665 C4666 1.373 . S
C4665 C4667 1.389 . S
C4666 H4639 0.950 . S
C4666 C4652 1.377 . S
C4666 C4665 1.373 . S
C4667 C4651 1.377 . S
C4667 C4665 1.389 . S
C4667 C4668 1.524 . S
C4668 C4667 1.524 . S
C4668 C4669 1.397 . S
C4668 C4673 1.363 . S
C4669 H4640 0.950 . S
C4669 C4668 1.397 . S
C4669 C4670 1.334 . S
C4670 H4641 0.950 . S
C4670 C4669 1.334 . S
C4670 C4671 1.287 . S
C4671 C4670 1.287 . S
C4671 C4672 1.524 . S
C4671 H4674 0.999 . S
C4672 H4642 0.950 . S
C4672 C4671 1.524 . S
C4672 C4673 1.415 . S
C4673 H4643 0.950 . S
C4673 C4668 1.363 . S
C4673 C4672 1.415 . S
H4674 C4671 0.999 . S
H4675 C4656 0.913 . S
H4676 C4694 0.951 . S
H4677 C4696 0.951 . S
H4678 C4698 0.950 . S
H4679 C4699 0.950 . S
H4680 C4701 0.950 . S
H4681 C4704 0.950 . S
H4682 C4705 0.950 . S
H4683 C4707 0.950 . S
H4684 C4708 0.950 . S
H4685 C4709 0.951 . S
H4686 C4711 0.951 . S
H4687 C4713 0.950 . S
H4688 C4714 0.950 . S
H4689 C4716 0.950 . S
H4690 C4719 0.936 1_554 S
H4691 C4720 0.950 . S
H4692 C4722 0.950 . S
H4693 C4723 0.950 . S
C4694 H4676 0.951 . S
C4694 C4695 1.366 . S
C4694 C4696 1.388 . S
C4695 C4694 1.366 . S
C4695 C4699 1.385 . S
C4696 H4677 0.951 . S
C4696 C4694 1.388 . S
C4696 C4697 1.366 . S
C4697 C4696 1.366 . S
C4697 C4698 1.414 . S
C4697 C4700 1.499 . S
C4698 H4678 0.950 . S
C4698 C4697 1.414 . S
C4698 C4699 1.374 . S
C4699 H4679 0.950 . S
C4699 C4695 1.385 . S
C4699 C4698 1.374 . S
C4700 C4697 1.499 . S
C4700 C4701 1.373 . S
C4700 C4702 1.389 . S
C4701 H4680 0.950 . S
C4701 C4700 1.373 . S
C4701 C4717 1.377 . S
C4702 C4700 1.389 . S
C4702 C4703 1.524 . S
C4702 C4716 1.377 . S
C4703 C4702 1.524 . S
C4703 C4704 1.397 . S
C4703 C4708 1.363 . S
C4704 H4681 0.950 . S
C4704 C4703 1.397 . S
C4704 C4705 1.334 . S
C4705 H4682 0.950 . S
C4705 C4704 1.334 . S
C4705 C4706 1.287 . S
C4706 C4705 1.287 . S
C4706 C4707 1.524 . S
C4706 H4725 0.913 . S
C4707 H4683 0.950 . S
C4707 C4706 1.524 . S
C4707 C4708 1.415 . S
C4708 H4684 0.950 . S
C4708 C4703 1.363 . S
C4708 C4707 1.415 . S
C4709 H4685 0.951 . S
C4709 C4710 1.366 . S
C4709 C4711 1.388 . S
C4710 C4709 1.366 . S
C4710 C4714 1.385 . S
C4711 H4686 0.951 . S
C4711 C4709 1.388 . S
C4711 C4712 1.366 . S
C4712 C4711 1.366 . S
C4712 C4713 1.414 . S
C4712 C4715 1.499 . S
C4713 H4687 0.950 . S
C4713 C4712 1.414 . S
C4713 C4714 1.374 . S
C4714 H4688 0.950 . S
C4714 C4710 1.385 . S
C4714 C4713 1.374 . S
C4715 C4712 1.499 . S
C4715 C4716 1.373 . S
C4715 C4717 1.389 . S
C4716 H4689 0.950 . S
C4716 C4702 1.377 . S
C4716 C4715 1.373 . S
C4717 C4701 1.377 . S
C4717 C4715 1.389 . S
C4717 C4718 1.524 . S
C4718 C4717 1.524 . S
C4718 C4719 1.383 1_554 S
C4718 C4723 1.363 . S
C4719 H4690 0.936 1_556 S
C4719 C4718 1.383 1_556 S
C4719 C4720 1.361 . S
C4720 H4691 0.950 . S
C4720 C4719 1.361 . S
C4720 C4721 1.287 . S
C4721 C4720 1.287 . S
C4721 C4722 1.524 . S
C4721 H4724 0.999 . S
C4722 H4692 0.950 . S
C4722 C4721 1.524 . S
C4722 C4723 1.415 1_556 S
C4723 H4693 0.950 . S
C4723 C4718 1.363 . S
C4723 C4722 1.415 1_554 S
H4724 C4721 0.999 . S
H4725 C4706 0.913 . S
H4726 C4744 0.951 . S
H4727 C4746 0.951 . S
H4728 C4748 0.950 . S
H4729 C4749 0.950 . S
H4730 C4751 0.950 . S
H4731 C4754 0.950 . S
H4732 C4755 0.950 . S
H4733 C4757 0.950 . S
H4734 C4758 0.950 . S
H4735 C4759 0.951 . S
H4736 C4761 0.951 . S
H4737 C4763 0.950 . S
H4738 C4764 0.950 . S
H4739 C4766 0.950 . S
H4740 C4769 0.950 . S
H4741 C4770 0.950 . S
H4742 C4772 0.950 . S
H4743 C4773 0.950 . S
C4744 H4726 0.951 . S
C4744 C4745 1.366 . S
C4744 C4746 1.388 . S
C4745 C4744 1.366 . S
C4745 C4749 1.385 . S
C4746 H4727 0.951 . S
C4746 C4744 1.388 . S
C4746 C4747 1.366 . S
C4747 C4746 1.366 . S
C4747 C4748 1.414 . S
C4747 C4750 1.499 . S
C4748 H4728 0.950 . S
C4748 C4747 1.414 . S
C4748 C4749 1.374 . S
C4749 H4729 0.950 . S
C4749 C4745 1.385 . S
C4749 C4748 1.374 . S
C4750 C4747 1.499 . S
C4750 C4751 1.373 . S
C4750 C4752 1.389 . S
C4751 H4730 0.950 . S
C4751 C4750 1.373 . S
C4751 C4767 1.377 . S
C4752 C4750 1.389 . S
C4752 C4753 1.524 . S
C4752 C4766 1.377 . S
C4753 C4752 1.524 . S
C4753 C4754 1.397 . S
C4753 C4758 1.363 . S
C4754 H4731 0.950 . S
C4754 C4753 1.397 . S
C4754 C4755 1.334 . S
C4755 H4732 0.950 . S
C4755 C4754 1.334 . S
C4755 C4756 1.287 . S
C4756 C4755 1.287 . S
C4756 C4757 1.524 . S
C4756 H4775 0.913 . S
C4757 H4733 0.950 . S
C4757 C4756 1.524 . S
C4757 C4758 1.415 . S
C4758 H4734 0.950 . S
C4758 C4753 1.363 . S
C4758 C4757 1.415 . S
C4759 H4735 0.951 . S
C4759 C4760 1.366 . S
C4759 C4761 1.388 . S
C4760 C4759 1.366 . S
C4760 C4764 1.385 . S
C4761 H4736 0.951 . S
C4761 C4759 1.388 . S
C4761 C4762 1.366 . S
C4762 C4761 1.366 . S
C4762 C4763 1.414 . S
C4762 C4765 1.499 . S
C4763 H4737 0.950 . S
C4763 C4762 1.414 . S
C4763 C4764 1.374 . S
C4764 H4738 0.950 . S
C4764 C4760 1.385 . S
C4764 C4763 1.374 . S
C4765 C4762 1.499 . S
C4765 C4766 1.373 . S
C4765 C4767 1.389 . S
C4766 H4739 0.950 . S
C4766 C4752 1.377 . S
C4766 C4765 1.373 . S
C4767 C4751 1.377 . S
C4767 C4765 1.389 . S
C4767 C4768 1.524 . S
C4768 C4767 1.524 . S
C4768 C4769 1.397 . S
C4768 C4773 1.363 . S
C4769 H4740 0.950 . S
C4769 C4768 1.397 . S
C4769 C4770 1.334 . S
C4770 H4741 0.950 . S
C4770 C4769 1.334 . S
C4770 C4771 1.287 . S
C4771 C4770 1.287 . S
C4771 C4772 1.524 . S
C4771 H4774 0.999 . S
C4772 H4742 0.950 . S
C4772 C4771 1.524 . S
C4772 C4773 1.415 . S
C4773 H4743 0.950 . S
C4773 C4768 1.363 . S
C4773 C4772 1.415 . S
H4774 C4771 0.999 . S
H4775 C4756 0.913 . S
H4776 C4794 0.951 . S
H4777 C4796 0.951 . S
H4778 C4798 0.950 . S
H4779 C4799 0.950 . S
H4780 C4801 0.950 . S
H4781 C4804 0.950 . S
H4782 C4805 0.950 . S
H4783 C4807 0.950 . S
H4784 C4808 0.950 . S
H4785 C4809 0.951 . S
H4786 C4811 0.951 . S
H4787 C4813 0.950 . S
H4788 C4814 0.950 . S
H4789 C4816 0.950 . S
H4790 C4819 0.950 . S
H4791 C4820 0.950 . S
H4792 C4822 0.950 . S
H4793 C4823 0.950 . S
C4794 H4776 0.951 . S
C4794 C4795 1.366 . S
C4794 C4796 1.388 . S
C4795 C4794 1.366 . S
C4795 C4799 1.385 . S
C4796 H4777 0.951 . S
C4796 C4794 1.388 . S
C4796 C4797 1.366 . S
C4797 C4796 1.366 . S
C4797 C4798 1.414 . S
C4797 C4800 1.499 . S
C4798 H4778 0.950 . S
C4798 C4797 1.414 . S
C4798 C4799 1.374 . S
C4799 H4779 0.950 . S
C4799 C4795 1.385 . S
C4799 C4798 1.374 . S
C4800 C4797 1.499 . S
C4800 C4801 1.373 . S
C4800 C4802 1.389 . S
C4801 H4780 0.950 . S
C4801 C4800 1.373 . S
C4801 C4817 1.377 . S
C4802 C4800 1.389 . S
C4802 C4803 1.524 . S
C4802 C4816 1.377 . S
C4803 C4802 1.524 . S
C4803 C4804 1.397 . S
C4803 C4808 1.363 . S
C4804 H4781 0.950 . S
C4804 C4803 1.397 . S
C4804 C4805 1.334 . S
C4805 H4782 0.950 . S
C4805 C4804 1.334 . S
C4805 C4806 1.287 . S
C4806 C4805 1.287 . S
C4806 C4807 1.524 . S
C4806 H4825 0.913 . S
C4807 H4783 0.950 . S
C4807 C4806 1.524 . S
C4807 C4808 1.415 . S
C4808 H4784 0.950 . S
C4808 C4803 1.363 . S
C4808 C4807 1.415 . S
C4809 H4785 0.951 . S
C4809 C4810 1.366 . S
C4809 C4811 1.388 . S
C4810 C4809 1.366 . S
C4810 C4814 1.385 . S
C4811 H4786 0.951 . S
C4811 C4809 1.388 . S
C4811 C4812 1.366 . S
C4812 C4811 1.366 . S
C4812 C4813 1.414 . S
C4812 C4815 1.499 . S
C4813 H4787 0.950 . S
C4813 C4812 1.414 . S
C4813 C4814 1.374 . S
C4814 H4788 0.950 . S
C4814 C4810 1.385 . S
C4814 C4813 1.374 . S
C4815 C4812 1.499 . S
C4815 C4816 1.373 . S
C4815 C4817 1.389 . S
C4816 H4789 0.950 . S
C4816 C4802 1.377 . S
C4816 C4815 1.373 . S
C4817 C4801 1.377 . S
C4817 C4815 1.389 . S
C4817 C4818 1.524 . S
C4818 C4817 1.524 . S
C4818 C4819 1.397 . S
C4818 C4823 1.363 . S
C4819 H4790 0.950 . S
C4819 C4818 1.397 . S
C4819 C4820 1.334 . S
C4820 H4791 0.950 . S
C4820 C4819 1.334 . S
C4820 C4821 1.287 . S
C4821 C4820 1.287 . S
C4821 C4822 1.524 . S
C4821 H4824 0.999 . S
C4822 H4792 0.950 . S
C4822 C4821 1.524 . S
C4822 C4823 1.415 . S
C4823 H4793 0.950 . S
C4823 C4818 1.363 . S
C4823 C4822 1.415 . S
H4824 C4821 0.999 . S
H4825 C4806 0.913 . S
H4826 C4844 0.951 . S
H4827 C4846 0.951 . S
H4828 C4848 0.950 . S
H4829 C4849 0.950 . S
H4830 C4851 0.950 . S
H4831 C4854 0.950 . S
H4832 C4855 0.950 . S
H4833 C4857 0.950 . S
H4834 C4858 0.950 . S
H4835 C4859 0.951 . S
H4836 C4861 0.951 . S
H4837 C4863 0.950 . S
H4838 C4864 0.950 . S
H4839 C4866 0.950 . S
H4840 C4869 0.950 . S
H4841 C4870 0.950 . S
H4842 C4872 0.950 . S
H4843 C4873 0.950 . S
C4844 H4826 0.951 . S
C4844 C4845 1.366 . S
C4844 C4846 1.388 . S
C4845 C4844 1.366 . S
C4845 C4849 1.385 . S
C4846 H4827 0.951 . S
C4846 C4844 1.388 . S
C4846 C4847 1.366 . S
C4847 C4846 1.366 . S
C4847 C4848 1.414 . S
C4847 C4850 1.499 . S
C4848 H4828 0.950 . S
C4848 C4847 1.414 . S
C4848 C4849 1.374 . S
C4849 H4829 0.950 . S
C4849 C4845 1.385 . S
C4849 C4848 1.374 . S
C4850 C4847 1.499 . S
C4850 C4851 1.373 . S
C4850 C4852 1.389 . S
C4851 H4830 0.950 . S
C4851 C4850 1.373 . S
C4851 C4867 1.377 . S
C4852 C4850 1.389 . S
C4852 C4853 1.524 . S
C4852 C4866 1.377 . S
C4853 C4852 1.524 . S
C4853 C4854 1.397 . S
C4853 C4858 1.363 . S
C4854 H4831 0.950 . S
C4854 C4853 1.397 . S
C4854 C4855 1.334 . S
C4855 H4832 0.950 . S
C4855 C4854 1.334 . S
C4855 C4856 1.287 . S
C4856 C4855 1.287 . S
C4856 C4857 1.524 . S
C4856 H4875 0.913 . S
C4857 H4833 0.950 . S
C4857 C4856 1.524 . S
C4857 C4858 1.415 . S
C4858 H4834 0.950 . S
C4858 C4853 1.363 . S
C4858 C4857 1.415 . S
C4859 H4835 0.951 . S
C4859 C4860 1.366 . S
C4859 C4861 1.388 . S
C4860 C4859 1.366 . S
C4860 C4864 1.385 . S
C4861 H4836 0.951 . S
C4861 C4859 1.388 . S
C4861 C4862 1.366 . S
C4862 C4861 1.366 . S
C4862 C4863 1.414 . S
C4862 C4865 1.499 . S
C4863 H4837 0.950 . S
C4863 C4862 1.414 . S
C4863 C4864 1.374 . S
C4864 H4838 0.950 . S
C4864 C4860 1.385 . S
C4864 C4863 1.374 . S
C4865 C4862 1.499 . S
C4865 C4866 1.373 . S
C4865 C4867 1.389 . S
C4866 H4839 0.950 . S
C4866 C4852 1.377 . S
C4866 C4865 1.373 . S
C4867 C4851 1.377 . S
C4867 C4865 1.389 . S
C4867 C4868 1.524 . S
C4868 C4867 1.524 . S
C4868 C4869 1.397 . S
C4868 C4873 1.363 . S
C4869 H4840 0.950 . S
C4869 C4868 1.397 . S
C4869 C4870 1.334 . S
C4870 H4841 0.950 . S
C4870 C4869 1.334 . S
C4870 C4871 1.287 . S
C4871 C4870 1.287 . S
C4871 C4872 1.524 . S
C4871 H4874 0.999 . S
C4872 H4842 0.950 . S
C4872 C4871 1.524 . S
C4872 C4873 1.415 . S
C4873 H4843 0.950 . S
C4873 C4868 1.363 . S
C4873 C4872 1.415 . S
H4874 C4871 0.999 . S
H4875 C4856 0.913 . S
H4876 C4894 0.951 . S
H4877 C4896 0.951 . S
H4878 C4898 0.950 . S
H4879 C4899 0.950 . S
H4880 C4901 0.950 . S
H4881 C4904 0.950 . S
H4882 C4905 0.950 . S
H4883 C4907 0.950 1_655 S
H4884 C4908 0.950 . S
H4885 C4909 0.951 . S
H4886 C4911 0.951 . S
H4887 C4913 0.950 . S
H4888 C4914 0.950 . S
H4889 C4916 0.950 . S
H4890 C4919 0.950 . S
H4891 C4920 0.950 . S
H4892 C4922 0.950 . S
H4893 C4923 0.950 . S
C4894 H4876 0.951 . S
C4894 C4895 1.366 . S
C4894 C4896 1.388 . S
C4895 C4894 1.366 . S
C4895 C4899 1.385 . S
C4896 H4877 0.951 . S
C4896 C4894 1.388 . S
C4896 C4897 1.366 . S
C4897 C4896 1.366 . S
C4897 C4898 1.414 . S
C4897 C4900 1.499 . S
C4898 H4878 0.950 . S
C4898 C4897 1.414 . S
C4898 C4899 1.374 . S
C4899 H4879 0.950 . S
C4899 C4895 1.385 . S
C4899 C4898 1.374 . S
C4900 C4897 1.499 . S
C4900 C4901 1.373 . S
C4900 C4902 1.389 . S
C4901 H4880 0.950 . S
C4901 C4900 1.373 . S
C4901 C4917 1.377 . S
C4902 C4900 1.389 . S
C4902 C4903 1.524 . S
C4902 C4916 1.377 . S
C4903 C4902 1.524 . S
C4903 C4904 1.397 . S
C4903 C4908 1.363 . S
C4904 H4881 0.950 . S
C4904 C4903 1.397 . S
C4904 C4905 1.334 . S
C4905 H4882 0.950 . S
C4905 C4904 1.334 . S
C4905 C4906 1.287 . S
C4906 C4905 1.287 . S
C4906 C4907 1.524 . S
C4906 H4925 0.913 . S
C4907 H4883 0.950 1_455 S
C4907 C4906 1.524 . S
C4907 C4908 1.415 . S
C4908 H4884 0.950 . S
C4908 C4903 1.363 . S
C4908 C4907 1.415 . S
C4909 H4885 0.951 . S
C4909 C4910 1.366 . S
C4909 C4911 1.388 . S
C4910 C4909 1.366 . S
C4910 C4914 1.385 . S
C4911 H4886 0.951 . S
C4911 C4909 1.388 . S
C4911 C4912 1.366 . S
C4912 C4911 1.366 . S
C4912 C4913 1.414 . S
C4912 C4915 1.499 . S
C4913 H4887 0.950 . S
C4913 C4912 1.414 . S
C4913 C4914 1.374 . S
C4914 H4888 0.950 . S
C4914 C4910 1.385 . S
C4914 C4913 1.374 . S
C4915 C4912 1.499 . S
C4915 C4916 1.373 . S
C4915 C4917 1.389 . S
C4916 H4889 0.950 . S
C4916 C4902 1.377 . S
C4916 C4915 1.373 . S
C4917 C4901 1.377 . S
C4917 C4915 1.389 . S
C4917 C4918 1.524 . S
C4918 C4917 1.524 . S
C4918 C4919 1.397 . S
C4918 C4923 1.363 . S
C4919 H4890 0.950 . S
C4919 C4918 1.397 . S
C4919 C4920 1.334 . S
C4920 H4891 0.950 . S
C4920 C4919 1.334 . S
C4920 C4921 1.287 . S
C4921 C4920 1.287 . S
C4921 C4922 1.524 . S
C4921 H4924 0.999 . S
C4922 H4892 0.950 . S
C4922 C4921 1.524 . S
C4922 C4923 1.415 . S
C4923 H4893 0.950 . S
C4923 C4918 1.363 . S
C4923 C4922 1.415 . S
H4924 C4921 0.999 . S
H4925 C4906 0.913 . S
H4926 C4944 0.951 . S
H4927 C4946 0.951 . S
H4928 C4948 0.950 . S
H4929 C4949 0.950 . S
H4930 C4951 0.950 . S
H4931 C4954 0.950 . S
H4932 C4955 0.950 . S
H4933 C4957 0.950 . S
H4934 C4958 0.950 . S
H4935 C4959 0.951 . S
H4936 C4961 0.951 . S
H4937 C4963 0.950 . S
H4938 C4964 0.950 . S
H4939 C4966 0.950 . S
H4940 C4969 0.950 . S
H4941 C4970 0.950 . S
H4942 C4972 0.950 . S
H4943 C4973 0.950 . S
C4944 H4926 0.951 . S
C4944 C4945 1.366 . S
C4944 C4946 1.388 . S
C4945 C4944 1.366 . S
C4945 C4949 1.385 . S
C4946 H4927 0.951 . S
C4946 C4944 1.388 . S
C4946 C4947 1.366 . S
C4947 C4946 1.366 . S
C4947 C4948 1.414 . S
C4947 C4950 1.499 . S
C4948 H4928 0.950 . S
C4948 C4947 1.414 . S
C4948 C4949 1.374 . S
C4949 H4929 0.950 . S
C4949 C4945 1.385 . S
C4949 C4948 1.374 . S
C4950 C4947 1.499 . S
C4950 C4951 1.373 . S
C4950 C4952 1.389 . S
C4951 H4930 0.950 . S
C4951 C4950 1.373 . S
C4951 C4967 1.377 . S
C4952 C4950 1.389 . S
C4952 C4953 1.524 . S
C4952 C4966 1.377 . S
C4953 C4952 1.524 . S
C4953 C4954 1.397 . S
C4953 C4958 1.363 . S
C4954 H4931 0.950 . S
C4954 C4953 1.397 . S
C4954 C4955 1.334 . S
C4955 H4932 0.950 . S
C4955 C4954 1.334 . S
C4955 C4956 1.287 . S
C4956 C4955 1.287 . S
C4956 C4957 1.524 . S
C4956 H4975 0.913 . S
C4957 H4933 0.950 . S
C4957 C4956 1.524 . S
C4957 C4958 1.415 . S
C4958 H4934 0.950 . S
C4958 C4953 1.363 . S
C4958 C4957 1.415 . S
C4959 H4935 0.951 . S
C4959 C4960 1.366 . S
C4959 C4961 1.388 . S
C4960 C4959 1.366 . S
C4960 C4964 1.385 . S
C4961 H4936 0.951 . S
C4961 C4959 1.388 . S
C4961 C4962 1.366 . S
C4962 C4961 1.366 . S
C4962 C4963 1.414 . S
C4962 C4965 1.499 . S
C4963 H4937 0.950 . S
C4963 C4962 1.414 . S
C4963 C4964 1.374 . S
C4964 H4938 0.950 . S
C4964 C4960 1.385 . S
C4964 C4963 1.374 . S
C4965 C4962 1.499 . S
C4965 C4966 1.373 . S
C4965 C4967 1.389 . S
C4966 H4939 0.950 . S
C4966 C4952 1.377 . S
C4966 C4965 1.373 . S
C4967 C4951 1.377 . S
C4967 C4965 1.389 . S
C4967 C4968 1.524 . S
C4968 C4967 1.524 . S
C4968 C4969 1.397 . S
C4968 C4973 1.363 . S
C4969 H4940 0.950 . S
C4969 C4968 1.397 . S
C4969 C4970 1.334 . S
C4970 H4941 0.950 . S
C4970 C4969 1.334 . S
C4970 C4971 1.287 . S
C4971 C4970 1.287 . S
C4971 C4972 1.524 . S
C4971 H4974 0.999 . S
C4972 H4942 0.950 . S
C4972 C4971 1.524 . S
C4972 C4973 1.415 . S
C4973 H4943 0.950 . S
C4973 C4968 1.363 . S
C4973 C4972 1.415 . S
H4974 C4971 0.999 . S
H4975 C4956 0.913 . S
H4976 C4994 0.951 . S
H4977 C4996 0.951 . S
H4978 C4998 0.950 . S
H4979 C4999 0.950 . S
H4980 C5001 0.950 . S
H4981 C5004 0.950 . S
H4982 C5005 0.950 . S
H4983 C5007 0.950 . S
H4984 C5008 0.950 . S
H4985 C5009 0.951 . S
H4986 C5011 0.951 . S
H4987 C5013 0.950 . S
H4988 C5014 0.950 . S
H4989 C5016 0.950 . S
H4990 C5019 0.950 . S
H4991 C5020 0.950 . S
H4992 C5022 0.950 . S
H4993 C5023 0.950 . S
C4994 H4976 0.951 . S
C4994 C4995 1.366 . S
C4994 C4996 1.388 . S
C4995 C4994 1.366 . S
C4995 C4999 1.385 . S
C4996 H4977 0.951 . S
C4996 C4994 1.388 . S
C4996 C4997 1.366 . S
C4997 C4996 1.366 . S
C4997 C4998 1.414 . S
C4997 C5000 1.499 . S
C4998 H4978 0.950 . S
C4998 C4997 1.414 . S
C4998 C4999 1.374 . S
C4999 H4979 0.950 . S
C4999 C4995 1.385 . S
C4999 C4998 1.374 . S
C5000 C4997 1.499 . S
C5000 C5001 1.373 . S
C5000 C5002 1.389 . S
C5001 H4980 0.950 . S
C5001 C5000 1.373 . S
C5001 C5017 1.377 . S
C5002 C5000 1.389 . S
C5002 C5003 1.524 . S
C5002 C5016 1.377 . S
C5003 C5002 1.524 . S
C5003 C5004 1.397 . S
C5003 C5008 1.363 . S
C5004 H4981 0.950 . S
C5004 C5003 1.397 . S
C5004 C5005 1.334 . S
C5005 H4982 0.950 . S
C5005 C5004 1.334 . S
C5005 C5006 1.287 . S
C5006 C5005 1.287 . S
C5006 C5007 1.524 . S
C5006 H5025 0.913 . S
C5007 H4983 0.950 . S
C5007 C5006 1.524 . S
C5007 C5008 1.415 . S
C5008 H4984 0.950 . S
C5008 C5003 1.363 . S
C5008 C5007 1.415 . S
C5009 H4985 0.951 . S
C5009 C5010 1.366 . S
C5009 C5011 1.388 . S
C5010 C5009 1.366 . S
C5010 C5014 1.385 . S
C5011 H4986 0.951 . S
C5011 C5009 1.388 . S
C5011 C5012 1.366 . S
C5012 C5011 1.366 . S
C5012 C5013 1.414 . S
C5012 C5015 1.499 . S
C5013 H4987 0.950 . S
C5013 C5012 1.414 . S
C5013 C5014 1.374 . S
C5014 H4988 0.950 . S
C5014 C5010 1.385 . S
C5014 C5013 1.374 . S
C5015 C5012 1.499 . S
C5015 C5016 1.373 . S
C5015 C5017 1.389 . S
C5016 H4989 0.950 . S
C5016 C5002 1.377 . S
C5016 C5015 1.373 . S
C5017 C5001 1.377 . S
C5017 C5015 1.389 . S
C5017 C5018 1.524 . S
C5018 C5017 1.524 . S
C5018 C5019 1.397 . S
C5018 C5023 1.363 . S
C5019 H4990 0.950 . S
C5019 C5018 1.397 . S
C5019 C5020 1.334 . S
C5020 H4991 0.950 . S
C5020 C5019 1.334 . S
C5020 C5021 1.287 . S
C5021 C5020 1.287 . S
C5021 C5022 1.524 . S
C5021 H5024 0.999 . S
C5022 H4992 0.950 . S
C5022 C5021 1.524 . S
C5022 C5023 1.415 . S
C5023 H4993 0.950 . S
C5023 C5018 1.363 . S
C5023 C5022 1.415 . S
H5024 C5021 0.999 . S
H5025 C5006 0.913 . S
H5026 C5044 0.951 . S
H5027 C5046 0.951 . S
H5028 C5048 0.950 . S
H5029 C5049 0.950 . S
H5030 C5051 0.950 . S
H5031 C5054 0.950 . S
H5032 C5055 0.950 . S
H5033 C5057 0.950 . S
H5034 C5058 0.950 . S
H5035 C5059 0.951 . S
H5036 C5061 0.951 . S
H5037 C5063 0.950 . S
H5038 C5064 0.950 . S
H5039 C5066 0.950 . S
H5040 C5069 0.950 . S
H5041 C5070 0.950 . S
H5042 C5072 0.950 . S
H5043 C5073 0.950 . S
C5044 H5026 0.951 . S
C5044 C5045 1.366 . S
C5044 C5046 1.388 . S
C5045 C5044 1.366 . S
C5045 C5049 1.385 . S
C5046 H5027 0.951 . S
C5046 C5044 1.388 . S
C5046 C5047 1.366 . S
C5047 C5046 1.366 . S
C5047 C5048 1.414 . S
C5047 C5050 1.499 . S
C5048 H5028 0.950 . S
C5048 C5047 1.414 . S
C5048 C5049 1.374 . S
C5049 H5029 0.950 . S
C5049 C5045 1.385 . S
C5049 C5048 1.374 . S
C5050 C5047 1.499 . S
C5050 C5051 1.373 . S
C5050 C5052 1.389 . S
C5051 H5030 0.950 . S
C5051 C5050 1.373 . S
C5051 C5067 1.377 . S
C5052 C5050 1.389 . S
C5052 C5053 1.524 . S
C5052 C5066 1.377 . S
C5053 C5052 1.524 . S
C5053 C5054 1.397 . S
C5053 C5058 1.363 . S
C5054 H5031 0.950 . S
C5054 C5053 1.397 . S
C5054 C5055 1.334 . S
C5055 H5032 0.950 . S
C5055 C5054 1.334 . S
C5055 C5056 1.287 . S
C5056 C5055 1.287 . S
C5056 C5057 1.524 . S
C5056 H5075 0.913 . S
C5057 H5033 0.950 . S
C5057 C5056 1.524 . S
C5057 C5058 1.415 . S
C5058 H5034 0.950 . S
C5058 C5053 1.363 . S
C5058 C5057 1.415 . S
C5059 H5035 0.951 . S
C5059 C5060 1.366 . S
C5059 C5061 1.388 . S
C5060 C5059 1.366 . S
C5060 C5064 1.385 . S
C5061 H5036 0.951 . S
C5061 C5059 1.388 . S
C5061 C5062 1.366 . S
C5062 C5061 1.366 . S
C5062 C5063 1.414 . S
C5062 C5065 1.499 . S
C5063 H5037 0.950 . S
C5063 C5062 1.414 . S
C5063 C5064 1.374 . S
C5064 H5038 0.950 . S
C5064 C5060 1.385 . S
C5064 C5063 1.374 . S
C5065 C5062 1.499 . S
C5065 C5066 1.373 . S
C5065 C5067 1.389 . S
C5066 H5039 0.950 . S
C5066 C5052 1.377 . S
C5066 C5065 1.373 . S
C5067 C5051 1.377 . S
C5067 C5065 1.389 . S
C5067 C5068 1.524 . S
C5068 C5067 1.524 . S
C5068 C5069 1.397 . S
C5068 C5073 1.363 . S
C5069 H5040 0.950 . S
C5069 C5068 1.397 . S
C5069 C5070 1.334 . S
C5070 H5041 0.950 . S
C5070 C5069 1.334 . S
C5070 C5071 1.287 . S
C5071 C5070 1.287 . S
C5071 C5072 1.524 . S
C5071 H5074 0.999 . S
C5072 H5042 0.950 . S
C5072 C5071 1.524 . S
C5072 C5073 1.415 . S
C5073 H5043 0.950 . S
C5073 C5068 1.363 . S
C5073 C5072 1.415 . S
H5074 C5071 0.999 . S
H5075 C5056 0.913 . S
H5076 C5094 0.951 . S
H5077 C5096 0.951 . S
H5078 C5098 0.950 . S
H5079 C5099 0.950 . S
H5080 C5101 0.950 . S
H5081 C5104 0.950 . S
H5082 C5105 0.950 . S
H5083 C5107 0.950 . S
H5084 C5108 0.950 . S
H5085 C5109 0.951 . S
H5086 C5111 0.951 . S
H5087 C5113 0.950 . S
H5088 C5114 0.950 1_655 S
H5089 C5116 0.950 . S
H5090 C5119 0.950 . S
H5091 C5120 0.950 . S
H5092 C5122 0.950 . S
H5093 C5123 0.950 . S
C5094 H5076 0.951 . S
C5094 C5095 1.366 . S
C5094 C5096 1.388 . S
C5095 C5094 1.366 . S
C5095 C5099 1.385 . S
C5096 H5077 0.951 . S
C5096 C5094 1.388 . S
C5096 C5097 1.366 . S
C5097 C5096 1.366 . S
C5097 C5098 1.414 . S
C5097 C5100 1.499 . S
C5098 H5078 0.950 . S
C5098 C5097 1.414 . S
C5098 C5099 1.374 . S
C5099 H5079 0.950 . S
C5099 C5095 1.385 . S
C5099 C5098 1.374 . S
C5100 C5097 1.499 . S
C5100 C5101 1.373 . S
C5100 C5102 1.389 . S
C5101 H5080 0.950 . S
C5101 C5100 1.373 . S
C5101 C5117 1.377 . S
C5102 C5100 1.389 . S
C5102 C5103 1.524 . S
C5102 C5116 1.377 . S
C5103 C5102 1.524 . S
C5103 C5104 1.397 . S
C5103 C5108 1.363 . S
C5104 H5081 0.950 . S
C5104 C5103 1.397 . S
C5104 C5105 1.334 . S
C5105 H5082 0.950 . S
C5105 C5104 1.334 . S
C5105 C5106 1.287 . S
C5106 C5105 1.287 . S
C5106 C5107 1.524 . S
C5106 H5125 0.913 . S
C5107 H5083 0.950 . S
C5107 C5106 1.524 . S
C5107 C5108 1.415 . S
C5108 H5084 0.950 . S
C5108 C5103 1.363 . S
C5108 C5107 1.415 . S
C5109 H5085 0.951 . S
C5109 C5110 1.366 . S
C5109 C5111 1.388 . S
C5110 C5109 1.366 . S
C5110 C5114 1.385 . S
C5111 H5086 0.951 . S
C5111 C5109 1.388 . S
C5111 C5112 1.315 1_455 S
C5112 C5111 1.315 1_655 S
C5112 C5113 1.444 . S
C5112 C5115 1.521 . S
C5113 H5087 0.950 . S
C5113 C5112 1.444 . S
C5113 C5114 1.374 1_655 S
C5114 H5088 0.950 1_455 S
C5114 C5110 1.385 . S
C5114 C5113 1.374 1_455 S
C5115 C5112 1.521 . S
C5115 C5116 1.373 . S
C5115 C5117 1.389 . S
C5116 H5089 0.950 . S
C5116 C5102 1.377 . S
C5116 C5115 1.373 . S
C5117 C5101 1.377 . S
C5117 C5115 1.389 . S
C5117 C5118 1.524 . S
C5118 C5117 1.524 . S
C5118 C5119 1.397 . S
C5118 C5123 1.363 1_655 S
C5119 H5090 0.950 . S
C5119 C5118 1.397 . S
C5119 C5120 1.334 . S
C5120 H5091 0.950 . S
C5120 C5119 1.334 . S
C5120 C5121 1.287 . S
C5121 C5120 1.287 . S
C5121 C5122 1.524 1_655 S
C5121 H5124 0.999 . S
C5122 H5092 0.950 . S
C5122 C5121 1.524 1_455 S
C5122 C5123 1.415 . S
C5123 H5093 0.950 . S
C5123 C5118 1.363 1_455 S
C5123 C5122 1.415 . S
H5124 C5121 0.999 . S
H5125 C5106 0.913 . S
H5126 C5144 0.951 . S
H5127 C5146 0.951 . S
H5128 C5148 0.950 . S
H5129 C5149 0.950 . S
H5130 C5151 0.950 . S
H5131 C5154 0.950 . S
H5132 C5155 0.950 . S
H5133 C5157 0.950 . S
H5134 C5158 0.950 . S
H5135 C5159 0.951 . S
H5136 C5161 0.951 . S
H5137 C5163 0.950 . S
H5138 C5164 0.950 . S
H5139 C5166 0.950 . S
H5140 C5169 0.950 . S
H5141 C5170 0.950 . S
H5142 C5172 0.950 . S
H5143 C5173 0.950 . S
C5144 H5126 0.951 . S
C5144 C5145 1.366 . S
C5144 C5146 1.388 . S
C5145 C5144 1.366 . S
C5145 C5149 1.385 . S
C5146 H5127 0.951 . S
C5146 C5144 1.388 . S
C5146 C5147 1.366 . S
C5147 C5146 1.366 . S
C5147 C5148 1.414 . S
C5147 C5150 1.499 . S
C5148 H5128 0.950 . S
C5148 C5147 1.414 . S
C5148 C5149 1.374 . S
C5149 H5129 0.950 . S
C5149 C5145 1.385 . S
C5149 C5148 1.374 . S
C5150 C5147 1.499 . S
C5150 C5151 1.373 . S
C5150 C5152 1.389 . S
C5151 H5130 0.950 . S
C5151 C5150 1.373 . S
C5151 C5167 1.377 . S
C5152 C5150 1.389 . S
C5152 C5153 1.524 . S
C5152 C5166 1.377 . S
C5153 C5152 1.524 . S
C5153 C5154 1.397 . S
C5153 C5158 1.363 . S
C5154 H5131 0.950 . S
C5154 C5153 1.397 . S
C5154 C5155 1.334 . S
C5155 H5132 0.950 . S
C5155 C5154 1.334 . S
C5155 C5156 1.287 . S
C5156 C5155 1.287 . S
C5156 C5157 1.524 . S
C5156 H5175 0.913 . S
C5157 H5133 0.950 . S
C5157 C5156 1.524 . S
C5157 C5158 1.415 . S
C5158 H5134 0.950 . S
C5158 C5153 1.363 . S
C5158 C5157 1.415 . S
C5159 H5135 0.951 . S
C5159 C5160 1.366 . S
C5159 C5161 1.388 . S
C5160 C5159 1.366 . S
C5160 C5164 1.385 . S
C5161 H5136 0.951 . S
C5161 C5159 1.388 . S
C5161 C5162 1.366 . S
C5162 C5161 1.366 . S
C5162 C5163 1.414 . S
C5162 C5165 1.499 . S
C5163 H5137 0.950 . S
C5163 C5162 1.414 . S
C5163 C5164 1.374 . S
C5164 H5138 0.950 . S
C5164 C5160 1.385 . S
C5164 C5163 1.374 . S
C5165 C5162 1.499 . S
C5165 C5166 1.373 . S
C5165 C5167 1.389 . S
C5166 H5139 0.950 . S
C5166 C5152 1.377 . S
C5166 C5165 1.373 . S
C5167 C5151 1.377 . S
C5167 C5165 1.389 . S
C5167 C5168 1.524 . S
C5168 C5167 1.524 . S
C5168 C5169 1.397 . S
C5168 C5173 1.363 . S
C5169 H5140 0.950 . S
C5169 C5168 1.397 . S
C5169 C5170 1.334 . S
C5170 H5141 0.950 . S
C5170 C5169 1.334 . S
C5170 C5171 1.287 . S
C5171 C5170 1.287 . S
C5171 C5172 1.524 . S
C5171 H5174 0.999 . S
C5172 H5142 0.950 . S
C5172 C5171 1.524 . S
C5172 C5173 1.415 . S
C5173 H5143 0.950 . S
C5173 C5168 1.363 . S
C5173 C5172 1.415 . S
H5174 C5171 0.999 . S
H5175 C5156 0.913 . S
H5176 C5194 0.951 . S
H5177 C5196 0.951 . S
H5178 C5198 0.950 . S
H5179 C5199 0.950 . S
H5180 C5201 0.950 . S
H5181 C5204 0.950 . S
H5182 C5205 0.950 . S
H5183 C5207 0.950 . S
H5184 C5208 0.950 . S
H5185 C5209 0.951 . S
H5186 C5211 0.951 . S
H5187 C5213 0.950 . S
H5188 C5214 0.950 . S
H5189 C5216 0.950 . S
H5190 C5219 0.950 . S
H5191 C5220 0.950 . S
H5192 C5222 0.950 . S
H5193 C5223 0.950 . S
C5194 H5176 0.951 . S
C5194 C5195 1.366 . S
C5194 C5196 1.388 . S
C5195 C5194 1.366 . S
C5195 C5199 1.385 . S
C5196 H5177 0.951 . S
C5196 C5194 1.388 . S
C5196 C5197 1.366 . S
C5197 C5196 1.366 . S
C5197 C5198 1.414 . S
C5197 C5200 1.499 . S
C5198 H5178 0.950 . S
C5198 C5197 1.414 . S
C5198 C5199 1.374 . S
C5199 H5179 0.950 . S
C5199 C5195 1.385 . S
C5199 C5198 1.374 . S
C5200 C5197 1.499 . S
C5200 C5201 1.373 . S
C5200 C5202 1.389 . S
C5201 H5180 0.950 . S
C5201 C5200 1.373 . S
C5201 C5217 1.377 . S
C5202 C5200 1.389 . S
C5202 C5203 1.524 . S
C5202 C5216 1.377 . S
C5203 C5202 1.524 . S
C5203 C5204 1.397 . S
C5203 C5208 1.363 . S
C5204 H5181 0.950 . S
C5204 C5203 1.397 . S
C5204 C5205 1.334 . S
C5205 H5182 0.950 . S
C5205 C5204 1.334 . S
C5205 C5206 1.287 . S
C5206 C5205 1.287 . S
C5206 C5207 1.524 . S
C5206 H5225 0.913 . S
C5207 H5183 0.950 . S
C5207 C5206 1.524 . S
C5207 C5208 1.415 . S
C5208 H5184 0.950 . S
C5208 C5203 1.363 . S
C5208 C5207 1.415 . S
C5209 H5185 0.951 . S
C5209 C5210 1.366 . S
C5209 C5211 1.388 . S
C5210 C5209 1.366 . S
C5210 C5214 1.385 . S
C5211 H5186 0.951 . S
C5211 C5209 1.388 . S
C5211 C5212 1.366 . S
C5212 C5211 1.366 . S
C5212 C5213 1.414 . S
C5212 C5215 1.499 . S
C5213 H5187 0.950 . S
C5213 C5212 1.414 . S
C5213 C5214 1.374 . S
C5214 H5188 0.950 . S
C5214 C5210 1.385 . S
C5214 C5213 1.374 . S
C5215 C5212 1.499 . S
C5215 C5216 1.373 . S
C5215 C5217 1.389 . S
C5216 H5189 0.950 . S
C5216 C5202 1.377 . S
C5216 C5215 1.373 . S
C5217 C5201 1.377 . S
C5217 C5215 1.389 . S
C5217 C5218 1.524 . S
C5218 C5217 1.524 . S
C5218 C5219 1.397 . S
C5218 C5223 1.363 . S
C5219 H5190 0.950 . S
C5219 C5218 1.397 . S
C5219 C5220 1.334 . S
C5220 H5191 0.950 . S
C5220 C5219 1.334 . S
C5220 C5221 1.287 . S
C5221 C5220 1.287 . S
C5221 C5222 1.524 . S
C5221 H5224 0.999 . S
C5222 H5192 0.950 . S
C5222 C5221 1.524 . S
C5222 C5223 1.415 . S
C5223 H5193 0.950 . S
C5223 C5218 1.363 . S
C5223 C5222 1.415 . S
H5224 C5221 0.999 . S
H5225 C5206 0.913 . S
H5226 C5244 0.951 . S
H5227 C5246 0.951 . S
H5228 C5248 0.950 . S
H5229 C5249 0.950 . S
H5230 C5251 0.950 . S
H5231 C5254 0.950 . S
H5232 C5255 0.950 . S
H5233 C5257 0.950 . S
H5234 C5258 0.950 . S
H5235 C5259 0.951 . S
H5236 C5261 0.951 . S
H5237 C5263 0.950 . S
H5238 C5264 0.950 . S
H5239 C5266 0.950 . S
H5240 C5269 0.950 . S
H5241 C5270 0.950 . S
H5242 C5272 0.950 . S
H5243 C5273 0.950 . S
C5244 H5226 0.951 . S
C5244 C5245 1.366 . S
C5244 C5246 1.388 . S
C5245 C5244 1.366 . S
C5245 C5249 1.385 . S
C5246 H5227 0.951 . S
C5246 C5244 1.388 . S
C5246 C5247 1.366 . S
C5247 C5246 1.366 . S
C5247 C5248 1.414 . S
C5247 C5250 1.499 . S
C5248 H5228 0.950 . S
C5248 C5247 1.414 . S
C5248 C5249 1.374 . S
C5249 H5229 0.950 . S
C5249 C5245 1.385 . S
C5249 C5248 1.374 . S
C5250 C5247 1.499 . S
C5250 C5251 1.373 . S
C5250 C5252 1.389 . S
C5251 H5230 0.950 . S
C5251 C5250 1.373 . S
C5251 C5267 1.377 . S
C5252 C5250 1.389 . S
C5252 C5253 1.524 . S
C5252 C5266 1.377 . S
C5253 C5252 1.524 . S
C5253 C5254 1.397 . S
C5253 C5258 1.363 . S
C5254 H5231 0.950 . S
C5254 C5253 1.397 . S
C5254 C5255 1.334 . S
C5255 H5232 0.950 . S
C5255 C5254 1.334 . S
C5255 C5256 1.287 . S
C5256 C5255 1.287 . S
C5256 C5257 1.524 . S
C5256 H5275 0.913 . S
C5257 H5233 0.950 . S
C5257 C5256 1.524 . S
C5257 C5258 1.415 . S
C5258 H5234 0.950 . S
C5258 C5253 1.363 . S
C5258 C5257 1.415 . S
C5259 H5235 0.951 . S
C5259 C5260 1.366 . S
C5259 C5261 1.388 . S
C5260 C5259 1.366 . S
C5260 C5264 1.385 . S
C5261 H5236 0.951 . S
C5261 C5259 1.388 . S
C5261 C5262 1.366 . S
C5262 C5261 1.366 . S
C5262 C5263 1.414 . S
C5262 C5265 1.499 . S
C5263 H5237 0.950 . S
C5263 C5262 1.414 . S
C5263 C5264 1.374 . S
C5264 H5238 0.950 . S
C5264 C5260 1.385 . S
C5264 C5263 1.374 . S
C5265 C5262 1.499 . S
C5265 C5266 1.373 . S
C5265 C5267 1.389 . S
C5266 H5239 0.950 . S
C5266 C5252 1.377 . S
C5266 C5265 1.373 . S
C5267 C5251 1.377 . S
C5267 C5265 1.389 . S
C5267 C5268 1.524 . S
C5268 C5267 1.524 . S
C5268 C5269 1.397 . S
C5268 C5273 1.363 . S
C5269 H5240 0.950 . S
C5269 C5268 1.397 . S
C5269 C5270 1.334 . S
C5270 H5241 0.950 . S
C5270 C5269 1.334 . S
C5270 C5271 1.287 . S
C5271 C5270 1.287 . S
C5271 C5272 1.524 . S
C5271 H5274 0.999 . S
C5272 H5242 0.950 . S
C5272 C5271 1.524 . S
C5272 C5273 1.415 . S
C5273 H5243 0.950 . S
C5273 C5268 1.363 . S
C5273 C5272 1.415 . S
H5274 C5271 0.999 . S
H5275 C5256 0.913 . S
H5276 C5294 0.951 . S
H5277 C5296 0.951 . S
H5278 C5298 0.950 . S
H5279 C5299 0.950 . S
H5280 C5301 0.950 . S
H5281 C5304 0.950 . S
H5282 C5305 0.950 . S
H5283 C5307 0.950 1_455 S
H5284 C5308 0.950 . S
H5285 C5309 0.951 . S
H5286 C5311 0.951 . S
H5287 C5313 0.965 . S
H5288 C5314 0.950 1_455 S
H5289 C5316 0.950 . S
H5290 C5319 0.950 . S
H5291 C5320 0.950 . S
H5292 C5322 0.950 . S
H5293 C5323 0.950 . S
C5294 H5276 0.951 . S
C5294 C5295 1.366 . S
C5294 C5296 1.388 . S
C5295 C5294 1.366 . S
C5295 C5299 1.385 . S
C5296 H5277 0.951 . S
C5296 C5294 1.388 . S
C5296 C5297 1.366 . S
C5297 C5296 1.366 . S
C5297 C5298 1.414 . S
C5297 C5300 1.499 . S
C5298 H5278 0.950 . S
C5298 C5297 1.414 . S
C5298 C5299 1.374 . S
C5299 H5279 0.950 . S
C5299 C5295 1.385 . S
C5299 C5298 1.374 . S
C5300 C5297 1.499 . S
C5300 C5301 1.373 . S
C5300 C5302 1.389 . S
C5301 H5280 0.950 . S
C5301 C5300 1.373 . S
C5301 C5317 1.377 . S
C5302 C5300 1.389 . S
C5302 C5303 1.524 . S
C5302 C5316 1.377 . S
C5303 C5302 1.524 . S
C5303 C5304 1.397 . S
C5303 C5308 1.363 . S
C5304 H5281 0.950 . S
C5304 C5303 1.397 . S
C5304 C5305 1.334 . S
C5305 H5282 0.950 . S
C5305 C5304 1.334 . S
C5305 C5306 1.287 . S
C5306 C5305 1.287 . S
C5306 C5307 1.524 . S
C5306 H5325 0.913 . S
C5307 H5283 0.950 1_655 S
C5307 C5306 1.524 . S
C5307 C5308 1.415 . S
C5308 H5284 0.950 . S
C5308 C5303 1.363 . S
C5308 C5307 1.415 . S
C5309 H5285 0.951 . S
C5309 C5310 1.366 . S
C5309 C5311 1.388 . S
C5310 C5309 1.366 . S
C5310 C5314 1.385 . S
C5311 H5286 0.951 . S
C5311 C5309 1.388 . S
C5311 C5312 1.366 . S
C5312 C5311 1.366 . S
C5312 C5313 1.414 . S
C5312 C5315 1.499 . S
C5313 H5287 0.965 . S
C5313 C5312 1.414 . S
C5313 C5314 1.374 . S
C5314 H5288 0.950 1_655 S
C5314 C5310 1.385 . S
C5314 C5313 1.374 . S
C5315 C5312 1.499 . S
C5315 C5316 1.373 . S
C5315 C5317 1.389 . S
C5316 H5289 0.950 . S
C5316 C5302 1.377 . S
C5316 C5315 1.373 . S
C5317 C5301 1.377 . S
C5317 C5315 1.389 . S
C5317 C5318 1.524 . S
C5318 C5317 1.524 . S
C5318 C5319 1.397 . S
C5318 C5323 1.363 . S
C5319 H5290 0.950 . S
C5319 C5318 1.397 . S
C5319 C5320 1.334 . S
C5320 H5291 0.950 . S
C5320 C5319 1.334 . S
C5320 C5321 1.287 . S
C5321 C5320 1.287 . S
C5321 C5322 1.524 . S
C5321 H5324 0.999 . S
C5322 H5292 0.950 . S
C5322 C5321 1.524 . S
C5322 C5323 1.415 . S
C5323 H5293 0.950 . S
C5323 C5318 1.363 . S
C5323 C5322 1.415 . S
H5324 C5321 0.999 . S
H5325 C5306 0.913 . S
H5326 C5344 0.951 . S
H5327 C5346 0.951 . S
H5328 C5348 0.950 . S
H5329 C5349 0.950 . S
H5330 C5351 0.950 . S
H5331 C5354 0.950 . S
H5332 C5355 0.950 . S
H5333 C5357 0.950 . S
H5334 C5358 0.950 . S
H5335 C5359 0.951 . S
H5336 C5361 0.951 . S
H5337 C5363 0.950 . S
H5338 C5364 0.950 . S
H5339 C5366 0.950 . S
H5340 C5369 0.950 . S
H5341 C5370 0.950 . S
H5342 C5372 0.950 . S
H5343 C5373 0.950 . S
C5344 H5326 0.951 . S
C5344 C5345 1.366 . S
C5344 C5346 1.388 . S
C5345 C5344 1.366 . S
C5345 C5349 1.385 . S
C5346 H5327 0.951 . S
C5346 C5344 1.388 . S
C5346 C5347 1.366 . S
C5347 C5346 1.366 . S
C5347 C5348 1.414 . S
C5347 C5350 1.499 . S
C5348 H5328 0.950 . S
C5348 C5347 1.414 . S
C5348 C5349 1.374 . S
C5349 H5329 0.950 . S
C5349 C5345 1.385 . S
C5349 C5348 1.374 . S
C5350 C5347 1.499 . S
C5350 C5351 1.373 . S
C5350 C5352 1.389 . S
C5351 H5330 0.950 . S
C5351 C5350 1.373 . S
C5351 C5367 1.377 . S
C5352 C5350 1.389 . S
C5352 C5353 1.524 . S
C5352 C5366 1.377 . S
C5353 C5352 1.524 . S
C5353 C5354 1.397 . S
C5353 C5358 1.363 . S
C5354 H5331 0.950 . S
C5354 C5353 1.397 . S
C5354 C5355 1.334 . S
C5355 H5332 0.950 . S
C5355 C5354 1.334 . S
C5355 C5356 1.287 . S
C5356 C5355 1.287 . S
C5356 C5357 1.524 . S
C5356 H5375 0.913 . S
C5357 H5333 0.950 . S
C5357 C5356 1.524 . S
C5357 C5358 1.415 . S
C5358 H5334 0.950 . S
C5358 C5353 1.363 . S
C5358 C5357 1.415 . S
C5359 H5335 0.951 . S
C5359 C5360 1.366 . S
C5359 C5361 1.388 . S
C5360 C5359 1.366 . S
C5360 C5364 1.385 . S
C5361 H5336 0.951 . S
C5361 C5359 1.388 . S
C5361 C5362 1.366 . S
C5362 C5361 1.366 . S
C5362 C5363 1.414 . S
C5362 C5365 1.499 . S
C5363 H5337 0.950 . S
C5363 C5362 1.414 . S
C5363 C5364 1.374 . S
C5364 H5338 0.950 . S
C5364 C5360 1.385 . S
C5364 C5363 1.374 . S
C5365 C5362 1.499 . S
C5365 C5366 1.373 . S
C5365 C5367 1.389 . S
C5366 H5339 0.950 . S
C5366 C5352 1.377 . S
C5366 C5365 1.373 . S
C5367 C5351 1.377 . S
C5367 C5365 1.389 . S
C5367 C5368 1.524 . S
C5368 C5367 1.524 . S
C5368 C5369 1.397 . S
C5368 C5373 1.363 . S
C5369 H5340 0.950 . S
C5369 C5368 1.397 . S
C5369 C5370 1.334 . S
C5370 H5341 0.950 . S
C5370 C5369 1.334 . S
C5370 C5371 1.287 . S
C5371 C5370 1.287 . S
C5371 C5372 1.524 . S
C5371 H5374 0.999 . S
C5372 H5342 0.950 . S
C5372 C5371 1.524 . S
C5372 C5373 1.415 . S
C5373 H5343 0.950 . S
C5373 C5368 1.363 . S
C5373 C5372 1.415 . S
H5374 C5371 0.999 . S
H5375 C5356 0.913 . S
H5376 C5394 0.951 . S
H5377 C5396 0.951 . S
H5378 C5398 0.950 . S
H5379 C5399 0.950 . S
H5380 C5401 0.950 . S
H5381 C5404 0.950 . S
H5382 C5405 0.950 . S
H5383 C5407 0.950 . S
H5384 C5408 0.950 . S
H5385 C5409 0.951 . S
H5386 C5411 0.951 . S
H5387 C5413 0.950 . S
H5388 C5414 0.950 . S
H5389 C5416 0.950 . S
H5390 C5419 0.950 . S
H5391 C5420 0.950 . S
H5392 C5422 0.950 . S
H5393 C5423 0.950 . S
C5394 H5376 0.951 . S
C5394 C5395 1.366 . S
C5394 C5396 1.388 . S
C5395 C5394 1.366 . S
C5395 C5399 1.385 . S
C5396 H5377 0.951 . S
C5396 C5394 1.388 . S
C5396 C5397 1.366 . S
C5397 C5396 1.366 . S
C5397 C5398 1.414 . S
C5397 C5400 1.499 . S
C5398 H5378 0.950 . S
C5398 C5397 1.414 . S
C5398 C5399 1.374 . S
C5399 H5379 0.950 . S
C5399 C5395 1.385 . S
C5399 C5398 1.374 . S
C5400 C5397 1.499 . S
C5400 C5401 1.373 . S
C5400 C5402 1.389 . S
C5401 H5380 0.950 . S
C5401 C5400 1.373 . S
C5401 C5417 1.377 . S
C5402 C5400 1.389 . S
C5402 C5403 1.524 . S
C5402 C5416 1.377 . S
C5403 C5402 1.524 . S
C5403 C5404 1.397 . S
C5403 C5408 1.363 . S
C5404 H5381 0.950 . S
C5404 C5403 1.397 . S
C5404 C5405 1.334 . S
C5405 H5382 0.950 . S
C5405 C5404 1.334 . S
C5405 C5406 1.287 . S
C5406 C5405 1.287 . S
C5406 C5407 1.524 . S
C5406 H5425 0.913 . S
C5407 H5383 0.950 . S
C5407 C5406 1.524 . S
C5407 C5408 1.415 . S
C5408 H5384 0.950 . S
C5408 C5403 1.363 . S
C5408 C5407 1.415 . S
C5409 H5385 0.951 . S
C5409 C5410 1.366 . S
C5409 C5411 1.388 . S
C5410 C5409 1.366 . S
C5410 C5414 1.385 . S
C5411 H5386 0.951 . S
C5411 C5409 1.388 . S
C5411 C5412 1.366 . S
C5412 C5411 1.366 . S
C5412 C5413 1.414 . S
C5412 C5415 1.499 . S
C5413 H5387 0.950 . S
C5413 C5412 1.414 . S
C5413 C5414 1.374 . S
C5414 H5388 0.950 . S
C5414 C5410 1.385 . S
C5414 C5413 1.374 . S
C5415 C5412 1.499 . S
C5415 C5416 1.373 . S
C5415 C5417 1.389 . S
C5416 H5389 0.950 . S
C5416 C5402 1.377 . S
C5416 C5415 1.373 . S
C5417 C5401 1.377 . S
C5417 C5415 1.389 . S
C5417 C5418 1.524 . S
C5418 C5417 1.524 . S
C5418 C5419 1.397 . S
C5418 C5423 1.363 . S
C5419 H5390 0.950 . S
C5419 C5418 1.397 . S
C5419 C5420 1.334 . S
C5420 H5391 0.950 . S
C5420 C5419 1.334 . S
C5420 C5421 1.287 . S
C5421 C5420 1.287 . S
C5421 C5422 1.524 . S
C5421 H5424 0.999 . S
C5422 H5392 0.950 . S
C5422 C5421 1.524 . S
C5422 C5423 1.415 . S
C5423 H5393 0.950 . S
C5423 C5418 1.363 . S
C5423 C5422 1.415 . S
H5424 C5421 0.999 . S
H5425 C5406 0.913 . S
H5426 C5444 0.951 . S
H5427 C5446 0.951 . S
H5428 C5448 0.950 . S
H5429 C5449 0.950 . S
H5430 C5451 0.950 . S
H5431 C5454 0.950 . S
H5432 C5455 0.950 . S
H5433 C5457 0.950 . S
H5434 C5458 0.950 . S
H5435 C5459 0.951 . S
H5436 C5461 0.925 1_545 S
H5437 C5463 0.950 . S
H5438 C5464 0.950 . S
H5439 C5466 0.950 . S
H5440 C5469 0.950 . S
H5441 C5470 0.950 . S
H5442 C5472 0.950 . S
H5443 C5473 0.950 . S
C5444 H5426 0.951 . S
C5444 C5445 1.366 . S
C5444 C5446 1.388 . S
C5445 C5444 1.366 . S
C5445 C5449 1.385 . S
C5446 H5427 0.951 . S
C5446 C5444 1.388 . S
C5446 C5447 1.366 . S
C5447 C5446 1.366 . S
C5447 C5448 1.414 . S
C5447 C5450 1.499 . S
C5448 H5428 0.950 . S
C5448 C5447 1.414 . S
C5448 C5449 1.374 . S
C5449 H5429 0.950 . S
C5449 C5445 1.385 . S
C5449 C5448 1.374 . S
C5450 C5447 1.499 . S
C5450 C5451 1.373 . S
C5450 C5452 1.389 . S
C5451 H5430 0.950 . S
C5451 C5450 1.373 . S
C5451 C5467 1.377 . S
C5452 C5450 1.389 . S
C5452 C5453 1.524 . S
C5452 C5466 1.377 . S
C5453 C5452 1.524 . S
C5453 C5454 1.397 . S
C5453 C5458 1.363 . S
C5454 H5431 0.950 . S
C5454 C5453 1.397 . S
C5454 C5455 1.334 . S
C5455 H5432 0.950 . S
C5455 C5454 1.334 . S
C5455 C5456 1.287 . S
C5456 C5455 1.287 . S
C5456 C5457 1.524 . S
C5456 H5475 0.913 . S
C5457 H5433 0.950 . S
C5457 C5456 1.524 . S
C5457 C5458 1.415 . S
C5458 H5434 0.950 . S
C5458 C5453 1.363 . S
C5458 C5457 1.415 . S
C5459 H5435 0.951 . S
C5459 C5460 1.366 . S
C5459 C5461 1.388 1_545 S
C5460 C5459 1.366 . S
C5460 C5464 1.385 1_545 S
C5461 H5436 0.925 1_565 S
C5461 C5459 1.388 1_565 S
C5461 C5462 1.366 . S
C5462 C5461 1.366 . S
C5462 C5463 1.414 . S
C5462 C5465 1.499 . S
C5463 H5437 0.950 . S
C5463 C5462 1.414 . S
C5463 C5464 1.374 . S
C5464 H5438 0.950 . S
C5464 C5460 1.385 1_565 S
C5464 C5463 1.374 . S
C5465 C5462 1.499 . S
C5465 C5466 1.373 . S
C5465 C5467 1.389 . S
C5466 H5439 0.950 . S
C5466 C5452 1.377 . S
C5466 C5465 1.373 . S
C5467 C5451 1.377 . S
C5467 C5465 1.389 . S
C5467 C5468 1.524 . S
C5468 C5467 1.524 . S
C5468 C5469 1.397 . S
C5468 C5473 1.363 . S
C5469 H5440 0.950 . S
C5469 C5468 1.397 . S
C5469 C5470 1.334 . S
C5470 H5441 0.950 . S
C5470 C5469 1.334 . S
C5470 C5471 1.287 . S
C5471 C5470 1.287 . S
C5471 C5472 1.524 . S
C5471 H5474 0.999 . S
C5472 H5442 0.950 . S
C5472 C5471 1.524 . S
C5472 C5473 1.415 . S
C5473 H5443 0.950 . S
C5473 C5468 1.363 . S
C5473 C5472 1.415 . S
H5474 C5471 0.999 . S
H5475 C5456 0.913 . S
H5476 C5494 0.951 . S
H5477 C5496 0.951 . S
H5478 C5498 0.950 . S
H5479 C5499 0.950 . S
H5480 C5501 0.950 . S
H5481 C5504 0.950 . S
H5482 C5505 0.950 . S
H5483 C5507 0.950 . S
H5484 C5508 0.950 . S
H5485 C5509 0.951 . S
H5486 C5511 0.951 . S
H5487 C5513 0.950 . S
H5488 C5514 0.950 . S
H5489 C5516 0.950 . S
H5490 C5519 0.950 . S
H5491 C5520 0.950 . S
H5492 C5522 0.950 . S
H5493 C5523 0.950 . S
C5494 H5476 0.951 . S
C5494 C5495 1.366 . S
C5494 C5496 1.388 . S
C5495 C5494 1.366 . S
C5495 C5499 1.385 . S
C5496 H5477 0.951 . S
C5496 C5494 1.388 . S
C5496 C5497 1.366 . S
C5497 C5496 1.366 . S
C5497 C5498 1.414 . S
C5497 C5500 1.499 . S
C5498 H5478 0.950 . S
C5498 C5497 1.414 . S
C5498 C5499 1.374 . S
C5499 H5479 0.950 . S
C5499 C5495 1.385 . S
C5499 C5498 1.374 . S
C5500 C5497 1.499 . S
C5500 C5501 1.373 . S
C5500 C5502 1.389 . S
C5501 H5480 0.950 . S
C5501 C5500 1.373 . S
C5501 C5517 1.377 . S
C5502 C5500 1.389 . S
C5502 C5503 1.524 . S
C5502 C5516 1.377 . S
C5503 C5502 1.524 . S
C5503 C5504 1.397 . S
C5503 C5508 1.363 . S
C5504 H5481 0.950 . S
C5504 C5503 1.397 . S
C5504 C5505 1.334 . S
C5505 H5482 0.950 . S
C5505 C5504 1.334 . S
C5505 C5506 1.287 . S
C5506 C5505 1.287 . S
C5506 C5507 1.524 . S
C5506 H5525 0.913 . S
C5507 H5483 0.950 . S
C5507 C5506 1.524 . S
C5507 C5508 1.415 . S
C5508 H5484 0.950 . S
C5508 C5503 1.363 . S
C5508 C5507 1.415 . S
C5509 H5485 0.951 . S
C5509 C5510 1.366 . S
C5509 C5511 1.388 . S
C5510 C5509 1.366 . S
C5510 C5514 1.385 . S
C5511 H5486 0.951 . S
C5511 C5509 1.388 . S
C5511 C5512 1.366 . S
C5512 C5511 1.366 . S
C5512 C5513 1.414 . S
C5512 C5515 1.499 . S
C5513 H5487 0.950 . S
C5513 C5512 1.414 . S
C5513 C5514 1.374 . S
C5514 H5488 0.950 . S
C5514 C5510 1.385 . S
C5514 C5513 1.374 . S
C5515 C5512 1.499 . S
C5515 C5516 1.373 . S
C5515 C5517 1.389 . S
C5516 H5489 0.950 . S
C5516 C5502 1.377 . S
C5516 C5515 1.373 . S
C5517 C5501 1.377 . S
C5517 C5515 1.389 . S
C5517 C5518 1.524 . S
C5518 C5517 1.524 . S
C5518 C5519 1.397 . S
C5518 C5523 1.363 . S
C5519 H5490 0.950 . S
C5519 C5518 1.397 . S
C5519 C5520 1.334 . S
C5520 H5491 0.950 . S
C5520 C5519 1.334 . S
C5520 C5521 1.287 . S
C5521 C5520 1.287 . S
C5521 C5522 1.524 . S
C5521 H5524 0.999 . S
C5522 H5492 0.950 . S
C5522 C5521 1.524 . S
C5522 C5523 1.415 . S
C5523 H5493 0.950 . S
C5523 C5518 1.363 . S
C5523 C5522 1.415 . S
H5524 C5521 0.999 . S
H5525 C5506 0.913 . S
H5526 C5544 0.951 . S
H5527 C5546 0.951 . S
H5528 C5548 0.950 . S
H5529 C5549 0.950 . S
H5530 C5551 0.950 . S
H5531 C5554 0.950 . S
H5532 C5555 0.950 . S
H5533 C5557 0.950 . S
H5534 C5558 0.950 . S
H5535 C5559 0.951 . S
H5536 C5561 0.951 . S
H5537 C5563 0.950 . S
H5538 C5564 0.950 . S
H5539 C5566 0.950 . S
H5540 C5569 0.950 . S
H5541 C5570 0.950 . S
H5542 C5572 0.950 . S
H5543 C5573 0.950 . S
C5544 H5526 0.951 . S
C5544 C5545 1.366 . S
C5544 C5546 1.388 . S
C5545 C5544 1.366 . S
C5545 C5549 1.385 . S
C5546 H5527 0.951 . S
C5546 C5544 1.388 . S
C5546 C5547 1.366 . S
C5547 C5546 1.366 . S
C5547 C5548 1.414 . S
C5547 C5550 1.499 . S
C5548 H5528 0.950 . S
C5548 C5547 1.414 . S
C5548 C5549 1.374 . S
C5549 H5529 0.950 . S
C5549 C5545 1.385 . S
C5549 C5548 1.374 . S
C5550 C5547 1.499 . S
C5550 C5551 1.373 1_554 S
C5550 C5552 1.389 . S
C5551 H5530 0.950 . S
C5551 C5550 1.373 1_556 S
C5551 C5567 1.377 . S
C5552 C5550 1.389 . S
C5552 C5553 1.524 . S
C5552 C5566 1.377 . S
C5553 C5552 1.524 . S
C5553 C5554 1.397 . S
C5553 C5558 1.363 . S
C5554 H5531 0.950 . S
C5554 C5553 1.397 . S
C5554 C5555 1.334 . S
C5555 H5532 0.950 . S
C5555 C5554 1.334 . S
C5555 C5556 1.287 . S
C5556 C5555 1.287 . S
C5556 C5557 1.524 . S
C5556 H5575 0.913 . S
C5557 H5533 0.950 . S
C5557 C5556 1.524 . S
C5557 C5558 1.415 . S
C5558 H5534 0.950 . S
C5558 C5553 1.363 . S
C5558 C5557 1.415 . S
C5559 H5535 0.951 . S
C5559 C5560 1.366 . S
C5559 C5561 1.388 . S
C5560 C5559 1.366 . S
C5560 C5564 1.385 . S
C5561 H5536 0.951 . S
C5561 C5559 1.388 . S
C5561 C5562 1.366 . S
C5562 C5561 1.366 . S
C5562 C5563 1.414 . S
C5562 C5565 1.499 . S
C5563 H5537 0.950 . S
C5563 C5562 1.414 . S
C5563 C5564 1.374 . S
C5564 H5538 0.950 . S
C5564 C5560 1.385 . S
C5564 C5563 1.374 . S
C5565 C5562 1.499 . S
C5565 C5566 1.373 . S
C5565 C5567 1.389 1_554 S
C5566 H5539 0.950 . S
C5566 C5552 1.377 . S
C5566 C5565 1.373 . S
C5567 C5551 1.377 . S
C5567 C5565 1.389 1_556 S
C5567 C5568 1.524 . S
C5568 C5567 1.524 . S
C5568 C5569 1.397 . S
C5568 C5573 1.363 . S
C5569 H5540 0.950 . S
C5569 C5568 1.397 . S
C5569 C5570 1.334 . S
C5570 H5541 0.950 . S
C5570 C5569 1.334 . S
C5570 C5571 1.287 . S
C5571 C5570 1.287 . S
C5571 C5572 1.524 . S
C5571 H5574 0.999 . S
C5572 H5542 0.950 . S
C5572 C5571 1.524 . S
C5572 C5573 1.415 . S
C5573 H5543 0.950 . S
C5573 C5568 1.363 . S
C5573 C5572 1.415 . S
H5574 C5571 0.999 . S
H5575 C5556 0.913 . S
H5576 C5594 0.951 . S
H5577 C5596 0.951 . S
H5578 C5598 0.950 . S
H5579 C5599 0.950 . S
H5580 C5601 0.950 . S
H5581 C5604 0.950 . S
H5582 C5605 0.950 . S
H5583 C5607 0.950 . S
H5584 C5608 0.950 . S
H5585 C5609 0.951 . S
H5586 C5611 0.951 . S
H5587 C5613 0.950 . S
H5588 C5614 0.950 . S
H5589 C5616 0.950 . S
H5590 C5619 0.950 . S
H5591 C5620 0.950 . S
H5592 C5622 0.950 . S
H5593 C5623 0.950 . S
C5594 H5576 0.951 . S
C5594 C5595 1.366 . S
C5594 C5596 1.388 . S
C5595 C5594 1.366 . S
C5595 C5599 1.385 . S
C5596 H5577 0.951 . S
C5596 C5594 1.388 . S
C5596 C5597 1.366 . S
C5597 C5596 1.366 . S
C5597 C5598 1.414 . S
C5597 C5600 1.499 . S
C5598 H5578 0.950 . S
C5598 C5597 1.414 . S
C5598 C5599 1.374 . S
C5599 H5579 0.950 . S
C5599 C5595 1.385 . S
C5599 C5598 1.374 . S
C5600 C5597 1.499 . S
C5600 C5601 1.373 . S
C5600 C5602 1.389 . S
C5601 H5580 0.950 . S
C5601 C5600 1.373 . S
C5601 C5617 1.377 . S
C5602 C5600 1.389 . S
C5602 C5603 1.524 . S
C5602 C5616 1.377 . S
C5603 C5602 1.524 . S
C5603 C5604 1.397 . S
C5603 C5608 1.363 . S
C5604 H5581 0.950 . S
C5604 C5603 1.397 . S
C5604 C5605 1.334 . S
C5605 H5582 0.950 . S
C5605 C5604 1.334 . S
C5605 C5606 1.287 . S
C5606 C5605 1.287 . S
C5606 C5607 1.524 . S
C5606 H5625 0.913 . S
C5607 H5583 0.950 . S
C5607 C5606 1.524 . S
C5607 C5608 1.415 . S
C5608 H5584 0.950 . S
C5608 C5603 1.363 . S
C5608 C5607 1.415 . S
C5609 H5585 0.951 . S
C5609 C5610 1.366 . S
C5609 C5611 1.388 . S
C5610 C5609 1.366 . S
C5610 C5614 1.385 . S
C5611 H5586 0.951 . S
C5611 C5609 1.388 . S
C5611 C5612 1.366 . S
C5612 C5611 1.366 . S
C5612 C5613 1.414 . S
C5612 C5615 1.499 . S
C5613 H5587 0.950 . S
C5613 C5612 1.414 . S
C5613 C5614 1.374 . S
C5614 H5588 0.950 . S
C5614 C5610 1.385 . S
C5614 C5613 1.374 . S
C5615 C5612 1.499 . S
C5615 C5616 1.373 . S
C5615 C5617 1.389 . S
C5616 H5589 0.950 . S
C5616 C5602 1.377 . S
C5616 C5615 1.373 . S
C5617 C5601 1.377 . S
C5617 C5615 1.389 . S
C5617 C5618 1.524 . S
C5618 C5617 1.524 . S
C5618 C5619 1.397 . S
C5618 C5623 1.363 . S
C5619 H5590 0.950 . S
C5619 C5618 1.397 . S
C5619 C5620 1.334 . S
C5620 H5591 0.950 . S
C5620 C5619 1.334 . S
C5620 C5621 1.287 . S
C5621 C5620 1.287 . S
C5621 C5622 1.524 . S
C5621 H5624 0.999 . S
C5622 H5592 0.950 . S
C5622 C5621 1.524 . S
C5622 C5623 1.415 . S
C5623 H5593 0.950 . S
C5623 C5618 1.363 . S
C5623 C5622 1.415 . S
H5624 C5621 0.999 . S
H5625 C5606 0.913 . S
H5626 C5644 0.951 . S
H5627 C5646 0.951 . S
H5628 C5648 0.950 . S
H5629 C5649 0.950 . S
H5630 C5651 0.950 . S
H5631 C5654 0.950 . S
H5632 C5655 0.950 . S
H5633 C5657 0.950 . S
H5634 C5658 0.950 . S
H5635 C5659 0.951 . S
H5636 C5661 0.951 . S
H5637 C5663 0.950 . S
H5638 C5664 0.950 . S
H5639 C5666 0.950 . S
H5640 C5669 0.950 . S
H5641 C5670 0.950 . S
H5642 C5672 0.950 . S
H5643 C5673 0.950 . S
C5644 H5626 0.951 . S
C5644 C5645 1.366 . S
C5644 C5646 1.388 . S
C5645 C5644 1.366 . S
C5645 C5649 1.385 1_554 S
C5646 H5627 0.951 . S
C5646 C5644 1.388 . S
C5646 C5647 1.366 . S
C5647 C5646 1.366 . S
C5647 C5648 1.414 1_554 S
C5647 C5650 1.499 . S
C5648 H5628 0.950 . S
C5648 C5647 1.414 1_556 S
C5648 C5649 1.374 . S
C5649 H5629 0.950 . S
C5649 C5645 1.385 1_556 S
C5649 C5648 1.374 . S
C5650 C5647 1.499 . S
C5650 C5651 1.373 1_554 S
C5650 C5652 1.389 . S
C5651 H5630 0.950 . S
C5651 C5650 1.373 1_556 S
C5651 C5667 1.377 . S
C5652 C5650 1.389 . S
C5652 C5653 1.524 . S
C5652 C5666 1.377 . S
C5653 C5652 1.524 . S
C5653 C5654 1.397 . S
C5653 C5658 1.363 . S
C5654 H5631 0.950 . S
C5654 C5653 1.397 . S
C5654 C5655 1.334 . S
C5655 H5632 0.950 . S
C5655 C5654 1.334 . S
C5655 C5656 1.287 . S
C5656 C5655 1.287 . S
C5656 C5657 1.524 . S
C5656 H5675 0.913 . S
C5657 H5633 0.950 . S
C5657 C5656 1.524 . S
C5657 C5658 1.415 . S
C5658 H5634 0.950 . S
C5658 C5653 1.363 . S
C5658 C5657 1.415 . S
C5659 H5635 0.951 . S
C5659 C5660 1.366 . S
C5659 C5661 1.388 . S
C5660 C5659 1.366 . S
C5660 C5664 1.385 1_556 S
C5661 H5636 0.951 . S
C5661 C5659 1.388 . S
C5661 C5662 1.366 . S
C5662 C5661 1.366 . S
C5662 C5663 1.414 1_556 S
C5662 C5665 1.499 . S
C5663 H5637 0.950 . S
C5663 C5662 1.414 1_554 S
C5663 C5664 1.374 . S
C5664 H5638 0.950 . S
C5664 C5660 1.385 1_554 S
C5664 C5663 1.374 . S
C5665 C5662 1.499 . S
C5665 C5666 1.373 1_556 S
C5665 C5667 1.389 . S
C5666 H5639 0.950 . S
C5666 C5652 1.377 . S
C5666 C5665 1.373 1_554 S
C5667 C5651 1.377 . S
C5667 C5665 1.389 . S
C5667 C5668 1.524 . S
C5668 C5667 1.524 . S
C5668 C5669 1.397 . S
C5668 C5673 1.363 . S
C5669 H5640 0.950 . S
C5669 C5668 1.397 . S
C5669 C5670 1.334 . S
C5670 H5641 0.950 . S
C5670 C5669 1.334 . S
C5670 C5671 1.287 . S
C5671 C5670 1.287 . S
C5671 C5672 1.524 . S
C5671 H5674 0.999 . S
C5672 H5642 0.950 . S
C5672 C5671 1.524 . S
C5672 C5673 1.415 . S
C5673 H5643 0.950 . S
C5673 C5668 1.363 . S
C5673 C5672 1.415 . S
H5674 C5671 0.999 . S
H5675 C5656 0.913 . S
H5676 C5694 0.951 1_545 S
H5677 C5696 0.951 . S
H5678 C5698 0.950 . S
H5679 C5699 0.950 . S
H5680 C5701 0.950 . S
H5681 C5704 0.950 . S
H5682 C5705 0.950 . S
H5683 C5707 0.950 . S
H5684 C5708 0.950 . S
H5685 C5709 0.951 . S
H5686 C5711 0.951 . S
H5687 C5713 0.950 . S
H5688 C5714 0.950 . S
H5689 C5716 0.950 . S
H5690 C5719 0.950 . S
H5691 C5720 0.950 . S
H5692 C5722 0.950 . S
H5693 C5723 0.950 . S
C5694 H5676 0.951 1_565 S
C5694 C5695 1.355 1_565 S
C5694 C5696 1.388 . S
C5695 C5694 1.355 1_545 S
C5695 C5699 1.377 1_545 S
C5696 H5677 0.951 . S
C5696 C5694 1.388 . S
C5696 C5697 1.366 . S
C5697 C5696 1.366 . S
C5697 C5698 1.414 . S
C5697 C5700 1.499 . S
C5698 H5678 0.950 . S
C5698 C5697 1.414 . S
C5698 C5699 1.374 . S
C5699 H5679 0.950 . S
C5699 C5695 1.377 1_565 S
C5699 C5698 1.374 . S
C5700 C5697 1.499 . S
C5700 C5701 1.373 . S
C5700 C5702 1.389 . S
C5701 H5680 0.950 . S
C5701 C5700 1.373 . S
C5701 C5717 1.377 . S
C5702 C5700 1.389 . S
C5702 C5703 1.524 . S
C5702 C5716 1.377 . S
C5703 C5702 1.524 . S
C5703 C5704 1.397 . S
C5703 C5708 1.363 . S
C5704 H5681 0.950 . S
C5704 C5703 1.397 . S
C5704 C5705 1.334 . S
C5705 H5682 0.950 . S
C5705 C5704 1.334 . S
C5705 C5706 1.287 . S
C5706 C5705 1.287 . S
C5706 C5707 1.524 . S
C5706 H5725 0.913 . S
C5707 H5683 0.950 . S
C5707 C5706 1.524 . S
C5707 C5708 1.415 . S
C5708 H5684 0.950 . S
C5708 C5703 1.363 . S
C5708 C5707 1.415 . S
C5709 H5685 0.951 . S
C5709 C5710 1.366 . S
C5709 C5711 1.388 . S
C5710 C5709 1.366 . S
C5710 C5714 1.385 . S
C5711 H5686 0.951 . S
C5711 C5709 1.388 . S
C5711 C5712 1.366 . S
C5712 C5711 1.366 . S
C5712 C5713 1.414 . S
C5712 C5715 1.499 . S
C5713 H5687 0.950 . S
C5713 C5712 1.414 . S
C5713 C5714 1.374 . S
C5714 H5688 0.950 . S
C5714 C5710 1.385 . S
C5714 C5713 1.374 . S
C5715 C5712 1.499 . S
C5715 C5716 1.373 . S
C5715 C5717 1.389 . S
C5716 H5689 0.950 . S
C5716 C5702 1.377 . S
C5716 C5715 1.373 . S
C5717 C5701 1.377 . S
C5717 C5715 1.389 . S
C5717 C5718 1.524 . S
C5718 C5717 1.524 . S
C5718 C5719 1.397 . S
C5718 C5723 1.363 . S
C5719 H5690 0.950 . S
C5719 C5718 1.397 . S
C5719 C5720 1.334 . S
C5720 H5691 0.950 . S
C5720 C5719 1.334 . S
C5720 C5721 1.287 . S
C5721 C5720 1.287 . S
C5721 C5722 1.524 . S
C5721 H5724 0.999 . S
C5722 H5692 0.950 . S
C5722 C5721 1.524 . S
C5722 C5723 1.415 . S
C5723 H5693 0.950 . S
C5723 C5718 1.363 . S
C5723 C5722 1.415 . S
H5724 C5721 0.999 . S
H5725 C5706 0.913 . S
H5726 C5744 0.951 . S
H5727 C5746 0.951 . S
H5728 C5748 0.950 . S
H5729 C5749 0.950 . S
H5730 C5751 0.950 . S
H5731 C5754 0.950 . S
H5732 C5755 0.950 . S
H5733 C5757 0.950 . S
H5734 C5758 0.950 . S
H5735 C5759 0.951 . S
H5736 C5761 0.951 . S
H5737 C5763 0.950 . S
H5738 C5764 0.950 . S
H5739 C5766 0.950 . S
H5740 C5769 0.950 . S
H5741 C5770 0.950 . S
H5742 C5772 0.950 . S
H5743 C5773 0.950 . S
C5744 H5726 0.951 . S
C5744 C5745 1.366 . S
C5744 C5746 1.388 . S
C5745 C5744 1.366 . S
C5745 C5749 1.385 . S
C5746 H5727 0.951 . S
C5746 C5744 1.388 . S
C5746 C5747 1.366 . S
C5747 C5746 1.366 . S
C5747 C5748 1.414 . S
C5747 C5750 1.499 . S
C5748 H5728 0.950 . S
C5748 C5747 1.414 . S
C5748 C5749 1.374 . S
C5749 H5729 0.950 . S
C5749 C5745 1.385 . S
C5749 C5748 1.374 . S
C5750 C5747 1.499 . S
C5750 C5751 1.373 . S
C5750 C5752 1.389 . S
C5751 H5730 0.950 . S
C5751 C5750 1.373 . S
C5751 C5767 1.377 . S
C5752 C5750 1.389 . S
C5752 C5753 1.524 . S
C5752 C5766 1.377 . S
C5753 C5752 1.524 . S
C5753 C5754 1.397 . S
C5753 C5758 1.363 . S
C5754 H5731 0.950 . S
C5754 C5753 1.397 . S
C5754 C5755 1.334 . S
C5755 H5732 0.950 . S
C5755 C5754 1.334 . S
C5755 C5756 1.287 . S
C5756 C5755 1.287 . S
C5756 C5757 1.524 . S
C5756 H5775 0.913 . S
C5757 H5733 0.950 . S
C5757 C5756 1.524 . S
C5757 C5758 1.415 . S
C5758 H5734 0.950 . S
C5758 C5753 1.363 . S
C5758 C5757 1.415 . S
C5759 H5735 0.951 . S
C5759 C5760 1.366 . S
C5759 C5761 1.388 . S
C5760 C5759 1.366 . S
C5760 C5764 1.385 . S
C5761 H5736 0.951 . S
C5761 C5759 1.388 . S
C5761 C5762 1.366 . S
C5762 C5761 1.366 . S
C5762 C5763 1.414 . S
C5762 C5765 1.499 . S
C5763 H5737 0.950 . S
C5763 C5762 1.414 . S
C5763 C5764 1.374 . S
C5764 H5738 0.950 . S
C5764 C5760 1.385 . S
C5764 C5763 1.374 . S
C5765 C5762 1.499 . S
C5765 C5766 1.373 . S
C5765 C5767 1.389 . S
C5766 H5739 0.950 . S
C5766 C5752 1.377 . S
C5766 C5765 1.373 . S
C5767 C5751 1.377 . S
C5767 C5765 1.389 . S
C5767 C5768 1.524 . S
C5768 C5767 1.524 . S
C5768 C5769 1.397 . S
C5768 C5773 1.363 . S
C5769 H5740 0.950 . S
C5769 C5768 1.397 . S
C5769 C5770 1.334 . S
C5770 H5741 0.950 . S
C5770 C5769 1.334 . S
C5770 C5771 1.287 . S
C5771 C5770 1.287 . S
C5771 C5772 1.524 . S
C5771 H5774 0.999 . S
C5772 H5742 0.950 . S
C5772 C5771 1.524 . S
C5772 C5773 1.415 . S
C5773 H5743 0.950 . S
C5773 C5768 1.363 . S
C5773 C5772 1.415 . S
H5774 C5771 0.999 . S
H5775 C5756 0.913 . S
C995 C111 2.091 . S
C1010 C338 2.095 . S
C1045 C64 2.027 . S
C1060 C395 2.097 . S
C1095 C77 0.892 . S
C1110 C418 0.883 . S
C1160 C472 1.192 . S
C1145 C95 1.197 . S
C1195 C25 0.982 . S
C1210 C512 0.966 . S
C1260 C543 0.275 . S
C1245 C36 0.390 . S
C1310 C595 1.140 . S
C1295 C50 1.077 . S
C1345 C11 1.613 . S
C1360 C618 1.552 . S
C1410 C355 2.354 . S
C1395 C237 2.241 . S
C1445 C245 0.246 . S
C1460 C392 0.348 . S
C1510 C435 1.222 . S
C1495 C279 1.156 . S
C1560 C458 1.073 . S
C1545 C175 1.080 . S
C1595 C231 1.574 . S
C1610 C498 1.571 . S
C1660 C546 1.377 . S
C1645 C251 1.318 . S
C1710 C592 0.309 . S
C1695 C273 0.172 . S
C1760 C635 1.907 . S
C1745 C181 1.857 . S
C1810 C352 1.311 . S
C1795 C165 1.332 . S
C1845 C288 1.926 1_556 S
C1860 C675 1.985 . S
C1910 C707 2.523 . S
C1895 C333 2.574 . S
C1960 C738 0.429 . S
C1945 C316 0.472 . S
C1995 C123 1.195 . S
C2010 C632 1.164 . S
C2045 C137 1.392 . S
C2060 C432 1.369 . S
C2095 C330 2.223 . S
C2110 C795 2.286 . S
C2160 C818 0.427 . S
C2145 C302 0.385 . S
C2210 C347 2.283 . S
C2195 C63 2.264 . S
C2260 C826 2.145 . S
C2245 C106 2.138 . S
C2295 C97 0.998 . S
C2310 C427 1.021 . S
C2345 C81 1.277 . S
C2360 C783 1.281 . S
C2410 C503 1.100 . S
C2395 C13 1.035 . S
C2445 C55 0.482 . S
C2460 C712 0.270 . S
C2510 C586 1.180 1_565 S
C2495 C35 1.159 . S
C2560 C867 1.759 . S
C2545 C21 1.810 . S
C2610 C346 2.487 . S
C2595 C147 2.498 . S
C2660 C823 0.311 . S
C2645 C321 0.512 . S
C2695 C119 1.317 . S
C2710 C426 1.305 . S
C2745 C293 1.201 . S
C2760 C787 1.249 . S
C2795 C153 1.656 . S
C2810 C507 1.796 . S
C2860 C715 1.422 . S
C2845 C315 1.445 . S
C2895 C125 0.465 . S
C2910 C583 0.208 1_565 S
C2945 C287 2.060 . S
C2960 C866 2.033 . S
C2995 C193 1.374 . S
C3010 C343 1.377 . S
C3045 C176 2.004 . S
C3060 C666 2.026 . S
C3095 C263 2.528 . S
C3110 C538 2.473 . S
C3145 C246 0.700 . S
C3160 C747 0.684 . S
C3210 C863 1.225 . S
C3195 C277 1.225 . S
C3245 C221 1.404 . S
C3260 C423 1.407 . S
C3310 C466 2.355 . S
C3295 C260 2.327 . S
C3360 C387 0.560 . S
C3345 C204 0.572 . S
C3395 C83 2.091 . S
C3410 C898 2.094 . S
C3460 C835 2.097 . S
C3445 C92 2.026 . S
C3495 C105 0.892 . S
C3510 C938 0.884 . S
C3545 C67 1.197 . S
C3560 C792 1.192 . S
C3595 C53 0.982 . S
C3610 C672 0.964 . S
C3660 C703 0.275 . S
C3645 C8 0.392 . S
C3710 C755 1.140 . S
C3695 C22 1.077 . S
C3760 C858 1.553 . S
C3745 C39 1.612 . S
C3810 C915 2.354 . S
C3795 C265 2.241 . S
C3845 C189 0.245 . S
C3860 C832 0.346 . S
C3910 C955 1.222 . S
C3895 C209 1.155 . S
C3960 C778 1.073 . S
C3945 C217 1.081 . S
C4010 C658 1.570 . S
C3995 C259 1.573 . S
C4045 C195 1.318 . S
C4060 C706 1.377 . S
C4110 C752 0.309 . S
C4095 C203 0.173 . S
C4145 C223 1.856 . S
C4160 C875 1.907 . S
C4210 C912 1.311 . S
C4195 C319 1.332 . S
C4245 C134 1.925 . S
C4260 C515 1.985 . S
C4310 C547 2.524 . S
C4295 C151 2.581 . S
C4360 C578 0.429 . S
C4345 C162 0.471 . S
C4410 C872 1.163 . S
C4395 C305 1.195 . S
C4445 C291 1.392 . S
C4460 C952 1.369 . S
C4510 C475 2.284 . S
C4495 C148 2.216 . S
C4560 C378 0.426 . S
C4545 C120 0.386 . S
C4595 C91 2.264 . S
C4610 C907 2.231 . S
C4660 C386 2.145 . S
C4645 C78 2.138 . S
C4695 C69 0.998 . S
C4710 C947 1.019 . S
C4745 C109 1.277 . S
C4760 C463 1.281 . S
C4795 C41 1.035 . S
C4810 C663 1.101 . S
C4860 C552 0.270 . S
C4845 C27 0.484 . S
C4895 C7 1.159 . S
C4910 C746 1.180 . S
C4945 C49 1.807 . S
C4960 C627 1.759 . S
C5010 C906 2.486 . S
C4995 C329 2.499 . S
C5045 C167 0.512 . S
C5060 C383 0.313 . S
C5110 C946 1.305 . S
C5095 C301 1.317 . S
C5145 C139 1.200 . S
C5160 C467 1.250 . S
C5195 C335 1.655 . S
C5210 C667 1.798 . S
C5260 C555 1.422 . S
C5245 C161 1.445 . S
C5295 C307 0.464 . S
C5310 C743 0.250 . S
C5360 C626 2.033 . S
C5345 C133 2.060 . S
C5410 C903 1.377 . S
C5395 C249 1.373 . S
C5460 C506 2.026 1_655 S
C5445 C218 2.004 . S
C5495 C235 2.528 . S
C5510 C698 2.473 . S
C5560 C587 0.684 . S
C5545 C190 0.701 . S
C5595 C207 1.225 . S
C5610 C623 1.225 . S
C5645 C179 1.403 . S
C5660 C943 1.406 . S
C5710 C786 2.356 . S
C5695 C232 2.344 . S
C5760 C827 0.558 . S
C5745 C274 0.575 . S
