# Generated by pormake.
# Topology ssa, (4,4)-cn, num edge types: 1
# Building blocks:
#     Node 0, Type 0, BuildingBlock: NAWXER_clean_sbu_0, # of connection points: 4
#     Node 1, Type 0, BuildingBlock: NAWXER_clean_sbu_0, # of connection points: 4
#     Node 2, Type 0, BuildingBlock: NAWXER_clean_sbu_0, # of connection points: 4
#     Node 3, Type 0, BuildingBlock: NAWXER_clean_sbu_0, # of connection points: 4
#     Node 4, Type 0, BuildingBlock: NAWXER_clean_sbu_0, # of connection points: 4
#     Node 5, Type 0, BuildingBlock: NAWXER_clean_sbu_0, # of connection points: 4
#     Node 6, Type 1, BuildingBlock: NAWXER_clean_sbu_0, # of connection points: 4
#     Node 7, Type 1, BuildingBlock: NAWXER_clean_sbu_0, # of connection points: 4
#     Node 8, Type 1, BuildingBlock: NAWXER_clean_sbu_0, # of connection points: 4
#     Node 9, Type 1, BuildingBlock: NAWXER_clean_sbu_0, # of connection points: 4
#     Node 10, Type 1, BuildingBlock: NAWXER_clean_sbu_0, # of connection points: 4
#     Node 11, Type 1, BuildingBlock: NAWXER_clean_sbu_0, # of connection points: 4
#     Edge 12, Type (0, 1), BuildingBlock: CIFDUS_clean_linker_0, # of connection points: 2
#     Edge 13, Type (0, 1), BuildingBlock: CIFDUS_clean_linker_0, # of connection points: 2
#     Edge 14, Type (0, 1), BuildingBlock: CIFDUS_clean_linker_0, # of connection points: 2
#     Edge 15, Type (0, 1), BuildingBlock: CIFDUS_clean_linker_0, # of connection points: 2
#     Edge 16, Type (0, 1), BuildingBlock: CIFDUS_clean_linker_0, # of connection points: 2
#     Edge 17, Type (0, 1), BuildingBlock: CIFDUS_clean_linker_0, # of connection points: 2
#     Edge 18, Type (0, 1), BuildingBlock: CIFDUS_clean_linker_0, # of connection points: 2
#     Edge 19, Type (0, 1), BuildingBlock: CIFDUS_clean_linker_0, # of connection points: 2
#     Edge 20, Type (0, 1), BuildingBlock: CIFDUS_clean_linker_0, # of connection points: 2
#     Edge 21, Type (0, 1), BuildingBlock: CIFDUS_clean_linker_0, # of connection points: 2
#     Edge 22, Type (0, 1), BuildingBlock: CIFDUS_clean_linker_0, # of connection points: 2
#     Edge 23, Type (0, 1), BuildingBlock: CIFDUS_clean_linker_0, # of connection points: 2
#     Edge 24, Type (0, 1), BuildingBlock: CIFDUS_clean_linker_0, # of connection points: 2
#     Edge 25, Type (0, 1), BuildingBlock: CIFDUS_clean_linker_0, # of connection points: 2
#     Edge 26, Type (0, 1), BuildingBlock: CIFDUS_clean_linker_0, # of connection points: 2
#     Edge 27, Type (0, 1), BuildingBlock: CIFDUS_clean_linker_0, # of connection points: 2
#     Edge 28, Type (0, 1), BuildingBlock: CIFDUS_clean_linker_0, # of connection points: 2
#     Edge 29, Type (0, 1), BuildingBlock: CIFDUS_clean_linker_0, # of connection points: 2
#     Edge 30, Type (0, 1), BuildingBlock: CIFDUS_clean_linker_0, # of connection points: 2
#     Edge 31, Type (0, 1), BuildingBlock: CIFDUS_clean_linker_0, # of connection points: 2
#     Edge 32, Type (0, 1), BuildingBlock: CIFDUS_clean_linker_0, # of connection points: 2
#     Edge 33, Type (0, 1), BuildingBlock: CIFDUS_clean_linker_0, # of connection points: 2
#     Edge 34, Type (0, 1), BuildingBlock: CIFDUS_clean_linker_0, # of connection points: 2
#     Edge 35, Type (0, 1), BuildingBlock: CIFDUS_clean_linker_0, # of connection points: 2
# Relax obj value: 0.024
# Max RMSD: 0.040
# Mean RMSD: 0.033
data_MOF--net-ssa--node1-NAWXER_clean_sbu_0--node2-NAWXER_clean_sbu_0--edge1-CIFDUS_clean_linker_0
_symmetry_space_group_name_H-M    P1
_symmetry_Int_Tables_number       1
_symmetry_cell_setting            triclinic
loop_
_symmetry_equiv_pos_as_xyz
'x, y, z'
_cell_length_a     38.707616
_cell_length_b     38.593414
_cell_length_c     31.720408
_cell_angle_alpha  90.34915
_cell_angle_beta   89.919425
_cell_angle_gamma 120.40812
loop_
_atom_site_label
_atom_site_type_symbol
_atom_site_fract_x
_atom_site_fract_y
_atom_site_fract_z
_atom_type_partial_charge
C0 C 0.99289 0.54743 0.11194 0.0
C1 C 0.93656 0.43392 0.01392 0.0
O2 O 0.96311 0.51261 0.119 0.0
Zn3 Zn 0.9666 0.48837 0.06632 0.0
O4 O 0.01332 0.55396 0.07812 0.0
Zn5 Zn 0.01386 0.52256 0.02272 0.0
O6 O 0.0096 0.55631 0.98044 0.0
O7 O 0.9561 0.52347 0.02088 0.0
O8 O 0.96859 0.46436 0.9999 0.0
O9 O 0.9255 0.43404 0.05163 0.0
O10 O 0.01863 0.48428 0.07678 0.0
O11 O 0.06367 0.52179 0.02946 0.0
C12 C 0.97427 0.54781 0.99046 0.0
C13 C 0.05377 0.49883 0.06122 0.0
C14 C 0.4875 0.06427 0.50133 0.0
C15 C 0.54612 0.99405 0.42812 0.0
O16 O 0.48222 0.03308 0.52128 0.0
Zn17 Zn 0.49883 0.98727 0.51362 0.0
O18 O 0.50692 0.07407 0.46683 0.0
Zn19 Zn 0.51837 0.03102 0.466 0.0
O20 O 0.45868 0.97966 0.45785 0.0
O21 O 0.44731 0.93903 0.51164 0.0
O22 O 0.54861 0.02715 0.41868 0.0
O23 O 0.52866 0.97673 0.4625 0.0
O24 O 0.53225 0.99614 0.56248 0.0
O25 O 0.55718 0.04841 0.52018 0.0
C26 C 0.43554 0.94699 0.47759 0.0
C27 C 0.55869 0.0323 0.55483 0.0
C28 C 0.47319 0.44061 0.94418 0.0
C29 C 0.52001 0.57297 0.00934 0.0
O30 O 0.46602 0.46745 0.93111 0.0
Zn31 Zn 0.49472 0.50695 0.97606 0.0
O32 O 0.49287 0.44664 0.97851 0.0
Zn33 Zn 0.52169 0.49146 0.02601 0.0
O34 O 0.49065 0.46592 0.07646 0.0
O35 O 0.45813 0.48122 0.03011 0.0
O36 O 0.5302 0.55099 0.0299 0.0
O37 O 0.49904 0.55923 0.97594 0.0
O38 O 0.55557 0.52237 0.96594 0.0
O39 O 0.5759 0.50186 0.02063 0.0
C40 C 0.45955 0.46711 0.0661 0.0
C41 C 0.58278 0.51866 0.98477 0.0
C42 C 0.02557 0.51433 0.46024 0.0
C43 C 0.94993 0.39086 0.54256 0.0
O44 O 0.04232 0.51462 0.49511 0.0
Zn45 Zn 0.03091 0.47712 0.5487 0.0
O46 O 0.9914 0.48446 0.45089 0.0
Zn47 Zn 0.98614 0.45197 0.50017 0.0
O48 O 0.97451 0.4821 0.54933 0.0
O49 O 0.02505 0.50799 0.59426 0.0
O50 O 0.94075 0.39815 0.5065 0.0
O51 O 0.9824 0.41731 0.56061 0.0
O52 O 0.07715 0.47056 0.54613 0.0
O53 O 0.03559 0.44248 0.49239 0.0
C54 C 0.99086 0.50193 0.58313 0.0
C55 C 0.06831 0.45131 0.51134 0.0
C56 C 0.47508 0.93017 1.00393 0.0
C57 C 0.4408 0.02137 0.9361 0.0
O58 O 0.4838 0.96122 0.02652 0.0
Zn59 Zn 0.47764 0.01363 0.02317 0.0
O60 O 0.45824 0.925 0.96819 0.0
Zn61 Zn 0.4549 0.97314 0.97124 0.0
O62 O 0.51771 0.01905 0.96773 0.0
O63 O 0.53293 0.05644 0.02549 0.0
O64 O 0.43099 0.98602 0.92446 0.0
O65 O 0.45763 0.03447 0.97199 0.0
O66 O 0.44207 0.00546 0.07056 0.0
O67 O 0.41416 0.95707 0.02311 0.0
C68 C 0.5434 0.04877 0.99019 0.0
C69 C 0.41303 0.9715 0.05923 0.0
C70 C 0.59824 0.58066 0.56299 0.0
C71 C 0.46805 0.52313 0.49229 0.0
O72 O 0.56874 0.58441 0.57414 0.0
Zn73 Zn 0.53241 0.55332 0.52816 0.0
O74 O 0.5962 0.56242 0.52843 0.0
Zn75 Zn 0.55486 0.53185 0.47883 0.0
O76 O 0.57835 0.56487 0.42899 0.0
O77 O 0.55376 0.59046 0.47421 0.0
O78 O 0.49324 0.51649 0.47288 0.0
O79 O 0.47795 0.54319 0.52663 0.0
O80 O 0.52334 0.49408 0.53667 0.0
O81 O 0.55011 0.47971 0.48231 0.0
C82 C 0.56946 0.59148 0.4384 0.0
C83 C 0.5317 0.46996 0.51736 0.0
C84 C 0.31087 0.51357 0.32656 0.0
C85 C 0.21909 0.50595 0.21613 0.0
O86 O 0.28732 0.47744 0.31372 0.0
Zn87 Zn 0.23986 0.44687 0.26771 0.0
O88 O 0.30916 0.54235 0.30937 0.0
Zn89 Zn 0.26571 0.51002 0.27106 0.0
O90 O 0.21822 0.47629 0.31497 0.0
O91 O 0.19506 0.41168 0.30306 0.0
O92 O 0.24578 0.53661 0.23583 0.0
O93 O 0.21375 0.47114 0.22503 0.0
O94 O 0.26211 0.423 0.23081 0.0
O95 O 0.29257 0.48915 0.22618 0.0
C96 C 0.1942 0.43934 0.3241 0.0
C97 C 0.28871 0.45557 0.2143 0.0
C98 C 0.82323 0.24407 0.72602 0.0
C99 C 0.72936 0.16811 0.83935 0.0
O100 O 0.79771 0.25503 0.73375 0.0
Zn101 Zn 0.7505 0.24167 0.77686 0.0
O102 O 0.8239 0.21739 0.74876 0.0
Zn103 Zn 0.77804 0.20626 0.78436 0.0
O104 O 0.72946 0.1834 0.73949 0.0
O105 O 0.70641 0.22531 0.73788 0.0
O106 O 0.7568 0.16259 0.82458 0.0
O107 O 0.72455 0.19626 0.82459 0.0
O108 O 0.77091 0.29142 0.80826 0.0
O109 O 0.80194 0.25855 0.82455 0.0
C110 C 0.70492 0.19338 0.72466 0.0
C111 C 0.79688 0.28863 0.83011 0.0
C112 C 0.56437 0.83909 0.27662 0.0
C113 C 0.56812 0.75206 0.16464 0.0
O114 O 0.5948 0.84623 0.25471 0.0
Zn115 Zn 0.56875 0.79689 0.22001 0.0
O116 O 0.53071 0.80722 0.26946 0.0
Zn117 Zn 0.5056 0.75686 0.22803 0.0
O118 O 0.48664 0.71306 0.26705 0.0
O119 O 0.55273 0.74947 0.26446 0.0
O120 O 0.53335 0.73977 0.18038 0.0
O121 O 0.59833 0.78395 0.1789 0.0
O122 O 0.53069 0.80699 0.17942 0.0
O123 O 0.46757 0.76383 0.19519 0.0
C124 C 0.52072 0.71964 0.27932 0.0
C125 C 0.49319 0.79258 0.17271 0.0
C126 C 0.86303 0.59803 0.81641 0.0
C127 C 0.76743 0.587 0.70965 0.0
O128 O 0.83626 0.5617 0.80772 0.0
Zn129 Zn 0.78574 0.53009 0.76657 0.0
O130 O 0.86305 0.62713 0.7978 0.0
Zn131 Zn 0.81581 0.59354 0.76376 0.0
O132 O 0.7691 0.56624 0.81107 0.0
O133 O 0.74344 0.50065 0.8057 0.0
O134 O 0.79567 0.61897 0.7259 0.0
O135 O 0.76125 0.55278 0.72192 0.0
O136 O 0.80089 0.49953 0.73206 0.0
O137 O 0.83942 0.56502 0.72281 0.0
C138 C 0.74424 0.5305 0.8237 0.0
C139 C 0.8306 0.52886 0.7143 0.0
C140 C 0.25897 0.80114 0.21512 0.0
C141 C 0.18023 0.70122 0.32223 0.0
O142 O 0.23511 0.80974 0.23443 0.0
Zn143 Zn 0.19073 0.7836 0.28364 0.0
O144 O 0.25943 0.76954 0.22505 0.0
Zn145 Zn 0.22039 0.75129 0.26989 0.0
O146 O 0.16505 0.73123 0.23751 0.0
O147 O 0.14119 0.77075 0.25508 0.0
O148 O 0.2087 0.70349 0.30008 0.0
O149 O 0.1709 0.72869 0.31946 0.0
O150 O 0.21246 0.82571 0.32614 0.0
O151 O 0.24816 0.79612 0.31774 0.0
C152 C 0.13791 0.74075 0.23473 0.0
C153 C 0.2424 0.82236 0.33622 0.0
C154 C 0.42886 0.27137 0.77333 0.0
C155 C 0.43079 0.18145 0.66491 0.0
O156 O 0.46332 0.27506 0.76774 0.0
Zn157 Zn 0.49072 0.25034 0.72932 0.0
O158 O 0.39907 0.24571 0.75174 0.0
Zn159 Zn 0.42773 0.22445 0.71976 0.0
O160 O 0.44402 0.19477 0.76626 0.0
O161 O 0.51006 0.22766 0.77031 0.0
O162 O 0.39985 0.18156 0.67837 0.0
O163 O 0.46514 0.20514 0.68131 0.0
O164 O 0.52884 0.29622 0.69715 0.0
O165 O 0.46581 0.27475 0.68031 0.0
C166 C 0.47634 0.19907 0.78242 0.0
C167 C 0.50333 0.29925 0.67465 0.0
H168 H 0.13066 0.55403 0.08092 0.0
H169 H 0.04156 0.42889 0.09433 0.0
H170 H 0.08603 0.41929 0.14143 0.0
H171 H 0.14809 0.44767 0.18316 0.0
H172 H 0.23465 0.5743 0.17488 0.0
H173 H 0.19348 0.58223 0.12184 0.0
C174 C 0.12148 0.52452 0.09344 0.0
C175 C 0.08322 0.49204 0.08373 0.0
C176 C 0.14651 0.51968 0.12207 0.0
C177 C 0.07109 0.45419 0.10109 0.0
C178 C 0.09639 0.44878 0.12821 0.0
C179 C 0.15809 0.47695 0.16954 0.0
C180 C 0.19439 0.51034 0.18312 0.0
C181 C 0.13382 0.48149 0.13967 0.0
C182 C 0.20672 0.54812 0.16528 0.0
C183 C 0.18325 0.55268 0.1348 0.0
H184 H 0.58771 0.11115 0.57032 0.0
H185 H 0.59408 0.00887 0.61372 0.0
H186 H 0.64027 0.04997 0.67007 0.0
H187 H 0.67814 0.11483 0.70728 0.0
H188 H 0.66751 0.21563 0.66698 0.0
H189 H 0.62325 0.17514 0.60932 0.0
C190 C 0.59961 0.09802 0.59186 0.0
C191 C 0.58813 0.05726 0.58755 0.0
C192 C 0.62497 0.12144 0.62492 0.0
C193 C 0.60281 0.04027 0.61629 0.0
C194 C 0.62909 0.06372 0.64852 0.0
C195 C 0.66611 0.12793 0.68589 0.0
C196 C 0.67625 0.16826 0.69128 0.0
C197 C 0.64022 0.10429 0.65323 0.0
C198 C 0.66004 0.18465 0.66362 0.0
C199 C 0.63492 0.16157 0.63052 0.0
H200 H 0.58302 0.62219 0.05961 0.0
H201 H 0.47789 0.61154 1.0001 0.0
H202 H 0.48634 0.66964 0.04022 0.0
H203 H 0.51861 0.71771 0.0986 0.0
H204 H 0.62491 0.73029 0.15679 0.0
H205 H 0.62151 0.67752 0.11035 0.0
C206 C 0.56239 0.63307 0.05492 0.0
C207 C 0.52954 0.6123 0.02736 0.0
C208 C 0.56756 0.66661 0.078 0.0
C209 C 0.50336 0.62699 0.0211 0.0
C210 C 0.50805 0.66005 0.04424 0.0
C211 C 0.54151 0.70943 0.1004 0.0
C212 C 0.57179 0.72744 0.13114 0.0
C213 C 0.53929 0.67925 0.07367 0.0
C214 C 0.6015 0.7169 0.13315 0.0
C215 C 0.59931 0.68652 0.10688 0.0
H216 H 0.91087 0.46619 0.58669 0.0
H217 H 0.01869 0.56453 0.64011 0.0
H218 H 0.97826 0.58359 0.68363 0.0
H219 H 0.91166 0.57088 0.70724 0.0
H220 H 0.80495 0.46858 0.65719 0.0
H221 H 0.84559 0.45257 0.61102 0.0
C222 C 0.92563 0.49204 0.60761 0.0
C223 C 0.96767 0.51424 0.60994 0.0
C224 C 0.90233 0.50204 0.63295 0.0
C225 C 0.98633 0.54706 0.63782 0.0
C226 C 0.96324 0.55796 0.66255 0.0
C227 C 0.89749 0.5454 0.68581 0.0
C228 C 0.85549 0.52109 0.68509 0.0
C229 C 0.92116 0.53557 0.66041 0.0
C230 C 0.83726 0.48765 0.65804 0.0
C231 C 0.86044 0.4785 0.63175 0.0
H232 H 0.37355 0.89065 0.06205 0.0
H233 H 0.38276 0.99407 0.12556 0.0
H234 H 0.33395 0.95009 0.17834 0.0
H235 H 0.29064 0.88206 0.20783 0.0
H236 H 0.28812 0.78024 0.14766 0.0
H237 H 0.3327 0.82377 0.09236 0.0
C238 C 0.36458 0.9036 0.08718 0.0
C239 C 0.38134 0.94554 0.08957 0.0
C240 C 0.33801 0.87836 0.11822 0.0
C241 C 0.37004 0.96187 0.12286 0.0
C242 C 0.34226 0.93673 0.15307 0.0
C243 C 0.29969 0.86945 0.18242 0.0
C244 C 0.28586 0.8279 0.18167 0.0
C245 C 0.32633 0.89492 0.1513 0.0
C246 C 0.29836 0.81206 0.14899 0.0
C247 C 0.32375 0.83692 0.11729 0.0
H248 H 0.58177 0.44977 0.55401 0.0
H249 H 0.45731 0.40685 0.52806 0.0
H250 H 0.4376 0.3481 0.57253 0.0
H251 H 0.45557 0.31261 0.62326 0.0
H252 H 0.57989 0.35735 0.65356 0.0
H253 H 0.60004 0.41186 0.60293 0.0
C254 C 0.55047 0.42687 0.55742 0.0
C255 C 0.52089 0.43178 0.5375 0.0
C256 C 0.53943 0.39407 0.58428 0.0
C257 C 0.48036 0.40296 0.54279 0.0
C258 C 0.46917 0.36968 0.56839 0.0
C259 C 0.48714 0.33407 0.61869 0.0
C260 C 0.51615 0.33105 0.64246 0.0
C261 C 0.4984 0.36549 0.59007 0.0
C262 C 0.55691 0.35909 0.63588 0.0
C263 C 0.56846 0.39024 0.6069 0.0
H264 H 0.53386 0.91858 0.43439 0.0
H265 H 0.58794 0.02261 0.35397 0.0
H266 H 0.60312 0.98533 0.30155 0.0
H267 H 0.59532 0.92065 0.27571 0.0
H268 H 0.53635 0.8163 0.35514 0.0
H269 H 0.5293 0.85618 0.41083 0.0
C270 C 0.54947 0.93342 0.40569 0.0
C271 C 0.55959 0.97339 0.39821 0.0
C272 C 0.55718 0.91154 0.37531 0.0
C273 C 0.57967 0.99186 0.36061 0.0
C274 C 0.58831 0.9705 0.33054 0.0
C275 C 0.58178 0.90706 0.30561 0.0
C276 C 0.56661 0.86571 0.31155 0.0
C277 C 0.57647 0.93 0.33713 0.0
C278 C 0.54833 0.84812 0.35002 0.0
C279 C 0.54415 0.87086 0.38179 0.0
H280 H 0.6156 0.47285 0.96891 0.0
H281 H 0.63111 0.58997 0.94737 0.0
H282 H 0.68549 0.60553 0.8977 0.0
H283 H 0.72364 0.5831 0.85525 0.0
H284 H 0.70331 0.46326 0.87165 0.0
H285 H 0.65574 0.45128 0.92821 0.0
C286 C 0.63176 0.50211 0.95412 0.0
C287 C 0.62013 0.53055 0.96202 0.0
C288 C 0.66149 0.50997 0.92405 0.0
C289 C 0.64015 0.56794 0.9419 0.0
C290 C 0.67093 0.57667 0.91333 0.0
C291 C 0.70907 0.5545 0.87147 0.0
C292 C 0.71678 0.52405 0.85909 0.0
C293 C 0.68106 0.54749 0.90328 0.0
C294 C 0.69755 0.48707 0.88028 0.0
C295 C 0.67046 0.48023 0.91275 0.0
H296 H 0.10506 0.55459 0.44702 0.0
H297 H 0.9959 0.54892 0.40709 0.0
H298 H 0.03455 0.60757 0.36172 0.0
H299 H 0.09993 0.66133 0.33482 0.0
H300 H 0.20794 0.66235 0.37023 0.0
H301 H 0.16929 0.60465 0.41633 0.0
C302 C 0.08974 0.56625 0.42837 0.0
C303 C 0.0478 0.54793 0.43069 0.0
C304 C 0.11201 0.59917 0.40184 0.0
C305 C 0.02818 0.56265 0.40577 0.0
C306 C 0.05028 0.59622 0.38004 0.0
C307 C 0.11489 0.6489 0.3528 0.0
C308 C 0.15673 0.66627 0.34974 0.0
C309 C 0.09226 0.61492 0.37811 0.0
C310 C 0.1758 0.64951 0.37234 0.0
C311 C 0.15373 0.61659 0.39864 0.0
H312 H 0.49305 0.1006 0.93071 0.0
H313 H 0.38548 0.00513 0.87373 0.0
H314 H 0.38593 0.05249 0.82205 0.0
H315 H 0.4185 0.12082 0.79195 0.0
H316 H 0.52964 0.21401 0.84555 0.0
H317 H 0.52637 0.16771 0.89975 0.0
C318 C 0.46936 0.09026 0.90733 0.0
C319 C 0.43886 0.04964 0.90636 0.0
C320 C 0.47075 0.11719 0.87698 0.0
C321 C 0.40904 0.03637 0.87521 0.0
C322 C 0.40939 0.0634 0.84568 0.0
C323 C 0.44186 0.13096 0.81567 0.0
C324 C 0.47418 0.1708 0.81496 0.0
C325 C 0.44031 0.10383 0.84607 0.0
C326 C 0.50457 0.18346 0.84541 0.0
C327 C 0.50264 0.15705 0.87645 0.0
H328 H 0.44124 0.57305 0.47132 0.0
H329 H 0.41363 0.45029 0.46098 0.0
H330 H 0.36047 0.43586 0.41004 0.0
H331 H 0.32679 0.45988 0.36347 0.0
H332 H 0.35796 0.58419 0.36925 0.0
H333 H 0.40478 0.59639 0.42683 0.0
C334 C 0.42261 0.54289 0.45885 0.0
C335 C 0.4305 0.51246 0.47038 0.0
C336 C 0.39352 0.53542 0.428 0.0
C337 C 0.40738 0.47384 0.45299 0.0
C338 C 0.37738 0.46576 0.42357 0.0
C339 C 0.34369 0.48965 0.37737 0.0
C340 C 0.33905 0.52113 0.36177 0.0
C341 C 0.37102 0.49661 0.40993 0.0
C342 C 0.36121 0.55948 0.3803 0.0
C343 C 0.38793 0.56648 0.41333 0.0
H344 H 0.91045 0.44273 0.93864 0.0
H345 H 0.90301 0.35288 0.02407 0.0
H346 H 0.85954 0.29962 0.97404 0.0
H347 H 0.82405 0.27902 0.9055 0.0
H348 H 0.82603 0.369 0.82397 0.0
H349 H 0.87101 0.42197 0.87298 0.0
C350 C 0.89937 0.41143 0.94609 0.0
C351 C 0.91027 0.40151 0.98445 0.0
C352 C 0.87332 0.38117 0.91798 0.0
C353 C 0.8951 0.361 0.99449 0.0
C354 C 0.87031 0.33068 0.96594 0.0
C355 C 0.83433 0.31026 0.89862 0.0
C356 C 0.82207 0.32023 0.86108 0.0
C357 C 0.85927 0.34043 0.92754 0.0
C358 C 0.83502 0.36067 0.85272 0.0
C359 C 0.86084 0.39093 0.88063 0.0
H360 H 0.99859 0.59494 0.91956 0.0
H361 H 0.90025 0.5356 1.00721 0.0
H362 H 0.85912 0.55178 0.96345 0.0
H363 H 0.84765 0.57435 0.89611 0.0
H364 H 0.94403 0.63348 0.80719 0.0
H365 H 0.98963 0.62661 0.85579 0.0
C366 C 0.96841 0.58614 0.92935 0.0
C367 C 0.95236 0.56333 0.96621 0.0
C368 C 0.94452 0.59546 0.9038 0.0
C369 C 0.91329 0.55258 0.9787 0.0
C370 C 0.88962 0.56184 0.95372 0.0
C371 C 0.87901 0.58681 0.88809 0.0
C372 C 0.89281 0.60449 0.84863 0.0
C373 C 0.90446 0.58208 0.91566 0.0
C374 C 0.93319 0.62028 0.83792 0.0
C375 C 0.959 0.61588 0.86544 0.0
H376 H 0.38608 0.96395 0.43359 0.0
H377 H 0.39715 0.8655 0.48096 0.0
H378 H 0.33596 0.81753 0.44354 0.0
H379 H 0.28303 0.80431 0.39229 0.0
H380 H 0.26943 0.9021 0.3479 0.0
H381 H 0.32764 0.94979 0.38979 0.0
C382 C 0.37476 0.93194 0.43599 0.0
C383 C 0.3962 0.91814 0.45939 0.0
C384 C 0.33928 0.90459 0.41498 0.0
C385 C 0.38107 0.87669 0.46301 0.0
C386 C 0.34624 0.84932 0.44153 0.0
C387 C 0.29251 0.83602 0.39239 0.0
C388 C 0.27244 0.84991 0.36689 0.0
C389 C 0.32563 0.86302 0.41671 0.0
C390 C 0.28448 0.89085 0.36749 0.0
C391 C 0.31788 0.91809 0.39113 0.0
H392 H 0.42282 0.40931 0.87522 0.0
H393 H 0.501 0.38968 0.95615 0.0
H394 H 0.49128 0.33382 0.91234 0.0
H395 H 0.4655 0.29381 0.84827 0.0
H396 H 0.38544 0.30962 0.76722 0.0
H397 H 0.39038 0.36304 0.81399 0.0
C398 C 0.43735 0.39251 0.88341 0.0
C399 C 0.46294 0.40415 0.9188 0.0
C400 C 0.43136 0.35969 0.85805 0.0
C401 C 0.48121 0.38171 0.92917 0.0
C402 C 0.47579 0.34965 0.90405 0.0
C403 C 0.44865 0.30857 0.84119 0.0
C404 C 0.42541 0.29814 0.80437 0.0
C405 C 0.45162 0.3389 0.86807 0.0
C406 C 0.40338 0.31709 0.79563 0.0
C407 C 0.4065 0.34783 0.82217 0.0
H408 H 0.05367 0.39603 0.45048 0.0
H409 H 0.14958 0.49444 0.5193 0.0
H410 H 0.19809 0.49719 0.46808 0.0
H411 H 0.21145 0.47824 0.39845 0.0
H412 H 0.11622 0.37915 0.33002 0.0
H413 H 0.06893 0.36991 0.38646 0.0
C414 C 0.08534 0.4174 0.45481 0.0
C415 C 0.09802 0.44535 0.48825 0.0
C416 C 0.11291 0.41917 0.42492 0.0
C417 C 0.1391 0.47258 0.49387 0.0
C418 C 0.16678 0.47447 0.46431 0.0
C419 C 0.18039 0.45433 0.39625 0.0
C420 C 0.16689 0.42988 0.36002 0.0
C421 C 0.15374 0.44905 0.42886 0.0
C422 C 0.12699 0.39843 0.35763 0.0
C423 C 0.10005 0.39325 0.38979 0.0
H424 H 0.58735 0.02887 0.93961 0.0
H425 H 0.58868 0.12982 1.00029 0.0
H426 H 0.64884 0.1762 0.96091 0.0
H427 H 0.69648 0.18788 0.90354 0.0
H428 H 0.69764 0.08719 0.84554 0.0
H429 H 0.6414 0.04073 0.88991 0.0
C430 C 0.6013 0.06103 0.94469 0.0
C431 C 0.58348 0.07601 0.97244 0.0
C432 C 0.6361 0.08745 0.92225 0.0
C433 C 0.60196 0.11763 0.97919 0.0
C434 C 0.63617 0.14414 0.95646 0.0
C435 C 0.68479 0.15577 0.90121 0.0
C436 C 0.70075 0.14083 0.87112 0.0
C437 C 0.65282 0.12939 0.92709 0.0
C438 C 0.68582 0.0993 0.8686 0.0
C439 C 0.65352 0.07277 0.89374 0.0
H440 H 0.51173 0.60913 0.42857 0.0
H441 H 0.62334 0.63128 0.37457 0.0
H442 H 0.61825 0.67385 0.32034 0.0
H443 H 0.58147 0.70443 0.2889 0.0
H444 H 0.46704 0.67653 0.34057 0.0
H445 H 0.47373 0.63612 0.39542 0.0
C446 C 0.53523 0.62366 0.4052 0.0
C447 C 0.56837 0.61801 0.40594 0.0
C448 C 0.53133 0.64665 0.37373 0.0
C449 C 0.59787 0.63574 0.37474 0.0
C450 C 0.59486 0.65991 0.34384 0.0
C451 C 0.55803 0.68945 0.31222 0.0
C452 C 0.52394 0.69364 0.31102 0.0
C453 C 0.56167 0.66554 0.34309 0.0
C454 C 0.49347 0.67364 0.34087 0.0
C455 C 0.49733 0.65069 0.37226 0.0
H456 H 0.42583 0.04321 0.55583 0.0
H457 H 0.52175 0.14507 0.49218 0.0
H458 H 0.50962 0.1907 0.53494 0.0
H459 H 0.47749 0.20168 0.59636 0.0
H460 H 0.37986 0.10053 0.65855 0.0
H461 H 0.38641 0.05433 0.61008 0.0
C462 C 0.44355 0.07538 0.55086 0.0
C463 C 0.47497 0.09083 0.52131 0.0
C464 C 0.43624 0.10143 0.57542 0.0
C465 C 0.4974 0.13248 0.51471 0.0
C466 C 0.49065 0.15859 0.53933 0.0
C467 C 0.4571 0.16951 0.59857 0.0
C468 C 0.42844 0.15427 0.6309 0.0
C469 C 0.46101 0.14342 0.57061 0.0
C470 C 0.40195 0.11273 0.63362 0.0
C471 C 0.40596 0.08641 0.60617 0.0
H472 H 0.40335 0.48832 0.06151 0.0
H473 H 0.44188 0.42242 0.1387 0.0
H474 H 0.38907 0.40919 0.18998 0.0
H475 H 0.33446 0.4204 0.21475 0.0
H476 H 0.30199 0.49222 0.13944 0.0
H477 H 0.34967 0.49877 0.0851 0.0
C478 C 0.40001 0.4706 0.08926 0.0
C479 C 0.4264 0.45621 0.09619 0.0
C480 C 0.37064 0.46428 0.11892 0.0
C481 C 0.42192 0.43383 0.13267 0.0
C482 C 0.39177 0.4263 0.16195 0.0
C483 C 0.33758 0.4369 0.18606 0.0
C484 C 0.31476 0.45558 0.18062 0.0
C485 C 0.36628 0.44188 0.15568 0.0
C486 C 0.31934 0.4776 0.14396 0.0
C487 C 0.34658 0.48139 0.11303 0.0
H488 H 0.96643 0.35546 0.60724 0.0
H489 H 0.8689 0.34634 0.5328 0.0
H490 H 0.82061 0.29672 0.58165 0.0
H491 H 0.80653 0.26274 0.65012 0.0
H492 H 0.90327 0.26963 0.72382 0.0
H493 H 0.95161 0.31306 0.67044 0.0
C494 C 0.93458 0.342 0.60129 0.0
C495 C 0.92126 0.35493 0.56671 0.0
C496 C 0.90696 0.31345 0.62958 0.0
C497 C 0.87994 0.33691 0.5591 0.0
C498 C 0.85231 0.30875 0.58722 0.0
C499 C 0.83818 0.27322 0.65405 0.0
C500 C 0.85156 0.26355 0.69093 0.0
C501 C 0.86553 0.29786 0.62324 0.0
C502 C 0.89242 0.27673 0.6956 0.0
C503 C 0.91999 0.30174 0.66525 0.0
H504 H 0.42184 0.86808 0.04977 0.0
H505 H 0.54262 0.92589 1.00263 0.0
H506 H 0.55794 0.885 0.0493 0.0
H507 H 0.53911 0.83931 0.10903 0.0
H508 H 0.41917 0.78379 0.1593 0.0
H509 H 0.40105 0.8173 0.10576 0.0
C510 C 0.45105 0.87063 0.04896 0.0
C511 C 0.48099 0.8991 0.02262 0.0
C512 C 0.45987 0.84817 0.07695 0.0
C513 C 0.5191 0.90335 0.02221 0.0
C514 C 0.52789 0.88039 0.04918 0.0
C515 C 0.5089 0.83431 0.10819 0.0
C516 C 0.48069 0.80968 0.13852 0.0
C517 C 0.49889 0.85377 0.07764 0.0
C518 C 0.44149 0.80288 0.13649 0.0
C519 C 0.43114 0.82201 0.10591 0.0
H520 H 0.65143 0.55535 0.5582 0.0
H521 H 0.62183 0.63061 0.6327 0.0
H522 H 0.67521 0.64314 0.68293 0.0
H523 H 0.72704 0.62804 0.70834 0.0
H524 H 0.75017 0.54702 0.636 0.0
H525 H 0.70282 0.54163 0.58197 0.0
C526 C 0.65692 0.57505 0.58504 0.0
C527 C 0.63276 0.59219 0.59155 0.0
C528 C 0.6865 0.5809 0.61428 0.0
C529 C 0.64004 0.6171 0.62693 0.0
C530 C 0.67049 0.62418 0.65567 0.0
C531 C 0.72206 0.60986 0.68031 0.0
C532 C 0.74214 0.58818 0.67573 0.0
C533 C 0.69348 0.60564 0.65007 0.0
C534 C 0.73503 0.56399 0.63991 0.0
C535 C 0.70796 0.56085 0.60913 0.0
H536 H 0.02776 0.62624 0.09482 0.0
H537 H 0.98898 0.54257 0.19796 0.0
H538 H 0.02592 0.59826 0.24773 0.0
H539 H 0.07882 0.66884 0.25922 0.0
H540 H 0.11911 0.75173 0.15559 0.0
H541 H 0.07139 0.6984 0.10838 0.0
C542 C 0.02669 0.62034 0.12835 0.0
C543 C 0.00639 0.58048 0.14281 0.0
C544 C 0.04837 0.65234 0.15642 0.0
C545 C 0.00455 0.57306 0.18623 0.0
C546 C 0.02588 0.60485 0.21457 0.0
C547 C 0.07585 0.67538 0.22664 0.0
C548 C 0.10183 0.71387 0.21062 0.0
C549 C 0.04921 0.64435 0.19972 0.0
C550 C 0.09874 0.72232 0.1684 0.0
C551 C 0.07186 0.69176 0.14145 0.0
loop_
_geom_bond_atom_site_label_1
_geom_bond_atom_site_label_2
_geom_bond_distance
_geom_bond_site_symmetry_2
_ccdc_geom_bond_type
C0 O2 1.258 . S
C0 O4 1.258 . S
C1 O8 1.253 . S
C1 O9 1.258 . S
O2 C0 1.258 . S
O2 Zn3 2.025 1_455 S
Zn3 O2 2.025 1_655 S
Zn3 O7 2.035 1_554 S
Zn3 O9 2.035 1_554 S
Zn3 O10 2.014 1_655 S
O4 C0 1.258 . S
O4 Zn5 2.035 1_554 S
Zn5 O4 2.035 1_556 S
Zn5 O6 2.020 1_455 S
Zn5 O8 2.027 1_455 S
Zn5 O11 2.035 1_556 S
O6 Zn5 2.020 1_655 S
O6 C12 1.255 . S
O7 Zn3 2.035 1_556 S
O7 C12 1.258 . S
O8 C1 1.253 . S
O8 Zn5 2.027 1_655 S
O9 C1 1.258 . S
O9 Zn3 2.035 1_556 S
O10 Zn3 2.014 1_455 S
O10 C13 1.263 . S
O11 Zn5 2.035 1_554 S
O11 C13 1.258 . S
C12 O6 1.255 . S
C12 O7 1.258 . S
C13 O10 1.263 . S
C13 O11 1.258 . S
C14 O16 1.263 . S
C14 O18 1.258 . S
C15 O22 1.255 . S
C15 O23 1.258 . S
O16 C14 1.263 . S
O16 Zn17 2.014 1_545 S
Zn17 O16 2.014 1_565 S
Zn17 O21 2.035 . S
Zn17 O23 2.035 . S
Zn17 O24 2.025 1_565 S
O18 C14 1.258 . S
O18 Zn19 2.035 . S
Zn19 O18 2.035 . S
Zn19 O20 2.027 1_545 S
Zn19 O22 2.020 1_545 S
Zn19 O25 2.035 . S
O20 Zn19 2.027 1_565 S
O20 C26 1.253 . S
O21 Zn17 2.035 . S
O21 C26 1.258 . S
O22 C15 1.255 . S
O22 Zn19 2.020 1_565 S
O23 C15 1.258 . S
O23 Zn17 2.035 . S
O24 Zn17 2.025 1_545 S
O24 C27 1.258 . S
O25 Zn19 2.035 . S
O25 C27 1.258 . S
C26 O20 1.253 . S
C26 O21 1.258 . S
C27 O24 1.258 . S
C27 O25 1.258 . S
C28 O30 1.247 . S
C28 O32 1.258 . S
C29 O36 1.247 . S
C29 O37 1.258 . S
O30 C28 1.247 . S
O30 Zn31 2.028 . S
Zn31 O30 2.028 . S
Zn31 O35 2.035 1_556 S
Zn31 O37 2.035 1_556 S
Zn31 O38 2.028 . S
O32 C28 1.258 . S
O32 Zn33 2.035 1_556 S
Zn33 O32 2.035 1_554 S
Zn33 O34 2.028 . S
Zn33 O36 2.028 . S
Zn33 O39 2.035 1_554 S
O34 Zn33 2.028 . S
O34 C40 1.247 . S
O35 Zn31 2.035 1_554 S
O35 C40 1.258 . S
O36 C29 1.247 . S
O36 Zn33 2.028 . S
O37 C29 1.258 . S
O37 Zn31 2.035 1_554 S
O38 Zn31 2.028 . S
O38 C41 1.247 . S
O39 Zn33 2.035 1_556 S
O39 C41 1.258 . S
C40 O34 1.247 . S
C40 O35 1.258 . S
C41 O38 1.247 . S
C41 O39 1.258 . S
C42 O44 1.247 . S
C42 O46 1.271 . S
C43 O50 1.247 . S
C43 O51 1.265 . S
O44 C42 1.247 . S
O44 Zn45 2.028 . S
Zn45 O44 2.028 . S
Zn45 O49 2.026 1_455 S
Zn45 O51 2.033 1_455 S
Zn45 O52 2.028 . S
O46 C42 1.271 . S
O46 Zn47 2.032 1_455 S
Zn47 O46 2.032 1_655 S
Zn47 O48 2.028 . S
Zn47 O50 2.028 . S
Zn47 O53 2.019 1_655 S
O48 Zn47 2.028 . S
O48 C54 1.247 . S
O49 Zn45 2.026 1_655 S
O49 C54 1.268 . S
O50 C43 1.247 . S
O50 Zn47 2.028 . S
O51 C43 1.265 . S
O51 Zn45 2.033 1_655 S
O52 Zn45 2.028 . S
O52 C55 1.247 . S
O53 Zn47 2.019 1_455 S
O53 C55 1.276 . S
C54 O48 1.247 . S
C54 O49 1.268 . S
C55 O52 1.247 . S
C55 O53 1.276 . S
C56 O58 1.255 . S
C56 O60 1.258 . S
C57 O64 1.263 . S
C57 O65 1.258 . S
O58 C56 1.255 . S
O58 Zn59 2.020 1_565 S
Zn59 O58 2.020 1_545 S
Zn59 O63 2.035 1_554 S
Zn59 O65 2.035 1_554 S
Zn59 O66 2.027 1_545 S
O60 C56 1.258 . S
O60 Zn61 2.035 1_554 S
Zn61 O60 2.035 1_556 S
Zn61 O62 2.025 1_565 S
Zn61 O64 2.014 1_565 S
Zn61 O67 2.035 1_556 S
O62 Zn61 2.025 1_545 S
O62 C68 1.258 . S
O63 Zn59 2.035 1_556 S
O63 C68 1.258 . S
O64 C57 1.263 . S
O64 Zn61 2.014 1_545 S
O65 C57 1.258 . S
O65 Zn59 2.035 1_556 S
O66 Zn59 2.027 1_565 S
O66 C69 1.253 . S
O67 Zn61 2.035 1_554 S
O67 C69 1.258 . S
C68 O62 1.258 . S
C68 O63 1.258 . S
C69 O66 1.253 . S
C69 O67 1.258 . S
C70 O72 1.247 . S
C70 O74 1.258 . S
C71 O78 1.247 . S
C71 O79 1.258 . S
O72 C70 1.247 . S
O72 Zn73 2.028 . S
Zn73 O72 2.028 . S
Zn73 O77 2.035 . S
Zn73 O79 2.035 . S
Zn73 O80 2.028 . S
O74 C70 1.258 . S
O74 Zn75 2.035 . S
Zn75 O74 2.035 . S
Zn75 O76 2.028 . S
Zn75 O78 2.028 . S
Zn75 O81 2.035 . S
O76 Zn75 2.028 . S
O76 C82 1.247 . S
O77 Zn73 2.035 . S
O77 C82 1.258 . S
O78 C71 1.247 . S
O78 Zn75 2.028 . S
O79 C71 1.258 . S
O79 Zn73 2.035 . S
O80 Zn73 2.028 . S
O80 C83 1.247 . S
O81 Zn75 2.035 . S
O81 C83 1.258 . S
C82 O76 1.247 . S
C82 O77 1.258 . S
C83 O80 1.247 . S
C83 O81 1.258 . S
C84 O86 1.247 . S
C84 O88 1.258 . S
C85 O92 1.247 . S
C85 O93 1.258 . S
O86 C84 1.247 . S
O86 Zn87 2.028 . S
Zn87 O86 2.028 . S
Zn87 O91 2.035 . S
Zn87 O93 2.035 . S
Zn87 O94 2.028 . S
O88 C84 1.258 . S
O88 Zn89 2.035 . S
Zn89 O88 2.035 . S
Zn89 O90 2.028 . S
Zn89 O92 2.028 . S
Zn89 O95 2.035 . S
O90 Zn89 2.028 . S
O90 C96 1.247 . S
O91 Zn87 2.035 . S
O91 C96 1.258 . S
O92 C85 1.247 . S
O92 Zn89 2.028 . S
O93 C85 1.258 . S
O93 Zn87 2.035 . S
O94 Zn87 2.028 . S
O94 C97 1.247 . S
O95 Zn89 2.035 . S
O95 C97 1.258 . S
C96 O90 1.247 . S
C96 O91 1.258 . S
C97 O94 1.247 . S
C97 O95 1.258 . S
C98 O100 1.247 . S
C98 O102 1.258 . S
C99 O106 1.247 . S
C99 O107 1.258 . S
O100 C98 1.247 . S
O100 Zn101 2.028 . S
Zn101 O100 2.028 . S
Zn101 O105 2.035 . S
Zn101 O107 2.035 . S
Zn101 O108 2.028 . S
O102 C98 1.258 . S
O102 Zn103 2.035 . S
Zn103 O102 2.035 . S
Zn103 O104 2.028 . S
Zn103 O106 2.028 . S
Zn103 O109 2.035 . S
O104 Zn103 2.028 . S
O104 C110 1.247 . S
O105 Zn101 2.035 . S
O105 C110 1.258 . S
O106 C99 1.247 . S
O106 Zn103 2.028 . S
O107 C99 1.258 . S
O107 Zn101 2.035 . S
O108 Zn101 2.028 . S
O108 C111 1.247 . S
O109 Zn103 2.035 . S
O109 C111 1.258 . S
C110 O104 1.247 . S
C110 O105 1.258 . S
C111 O108 1.247 . S
C111 O109 1.258 . S
C112 O114 1.247 . S
C112 O116 1.258 . S
C113 O120 1.247 . S
C113 O121 1.258 . S
O114 C112 1.247 . S
O114 Zn115 2.028 . S
Zn115 O114 2.028 . S
Zn115 O119 2.035 . S
Zn115 O121 2.035 . S
Zn115 O122 2.028 . S
O116 C112 1.258 . S
O116 Zn117 2.035 . S
Zn117 O116 2.035 . S
Zn117 O118 2.028 . S
Zn117 O120 2.028 . S
Zn117 O123 2.035 . S
O118 Zn117 2.028 . S
O118 C124 1.247 . S
O119 Zn115 2.035 . S
O119 C124 1.258 . S
O120 C113 1.247 . S
O120 Zn117 2.028 . S
O121 C113 1.258 . S
O121 Zn115 2.035 . S
O122 Zn115 2.028 . S
O122 C125 1.247 . S
O123 Zn117 2.035 . S
O123 C125 1.258 . S
C124 O118 1.247 . S
C124 O119 1.258 . S
C125 O122 1.247 . S
C125 O123 1.258 . S
C126 O128 1.247 . S
C126 O130 1.258 . S
C127 O134 1.247 . S
C127 O135 1.258 . S
O128 C126 1.247 . S
O128 Zn129 2.028 . S
Zn129 O128 2.028 . S
Zn129 O133 2.035 . S
Zn129 O135 2.035 . S
Zn129 O136 2.028 . S
O130 C126 1.258 . S
O130 Zn131 2.035 . S
Zn131 O130 2.035 . S
Zn131 O132 2.028 . S
Zn131 O134 2.028 . S
Zn131 O137 2.035 . S
O132 Zn131 2.028 . S
O132 C138 1.247 . S
O133 Zn129 2.035 . S
O133 C138 1.258 . S
O134 C127 1.247 . S
O134 Zn131 2.028 . S
O135 C127 1.258 . S
O135 Zn129 2.035 . S
O136 Zn129 2.028 . S
O136 C139 1.247 . S
O137 Zn131 2.035 . S
O137 C139 1.258 . S
C138 O132 1.247 . S
C138 O133 1.258 . S
C139 O136 1.247 . S
C139 O137 1.258 . S
C140 O142 1.247 . S
C140 O144 1.258 . S
C141 O148 1.247 . S
C141 O149 1.258 . S
O142 C140 1.247 . S
O142 Zn143 2.028 . S
Zn143 O142 2.028 . S
Zn143 O147 2.035 . S
Zn143 O149 2.035 . S
Zn143 O150 2.028 . S
O144 C140 1.258 . S
O144 Zn145 2.035 . S
Zn145 O144 2.035 . S
Zn145 O146 2.028 . S
Zn145 O148 2.028 . S
Zn145 O151 2.035 . S
O146 Zn145 2.028 . S
O146 C152 1.247 . S
O147 Zn143 2.035 . S
O147 C152 1.258 . S
O148 C141 1.247 . S
O148 Zn145 2.028 . S
O149 C141 1.258 . S
O149 Zn143 2.035 . S
O150 Zn143 2.028 . S
O150 C153 1.247 . S
O151 Zn145 2.035 . S
O151 C153 1.258 . S
C152 O146 1.247 . S
C152 O147 1.258 . S
C153 O150 1.247 . S
C153 O151 1.258 . S
C154 O156 1.247 . S
C154 O158 1.258 . S
C155 O162 1.247 . S
C155 O163 1.258 . S
O156 C154 1.247 . S
O156 Zn157 2.028 . S
Zn157 O156 2.028 . S
Zn157 O161 2.035 . S
Zn157 O163 2.035 . S
Zn157 O164 2.028 . S
O158 C154 1.258 . S
O158 Zn159 2.035 . S
Zn159 O158 2.035 . S
Zn159 O160 2.028 . S
Zn159 O162 2.028 . S
Zn159 O165 2.035 . S
O160 Zn159 2.028 . S
O160 C166 1.247 . S
O161 Zn157 2.035 . S
O161 C166 1.258 . S
O162 C155 1.247 . S
O162 Zn159 2.028 . S
O163 C155 1.258 . S
O163 Zn157 2.035 . S
O164 Zn157 2.028 . S
O164 C167 1.247 . S
O165 Zn159 2.035 . S
O165 C167 1.258 . S
C166 O160 1.247 . S
C166 O161 1.258 . S
C167 O164 1.247 . S
C167 O165 1.258 . S
H168 C174 0.930 . S
H169 C177 0.930 . S
H170 C178 0.930 . S
H171 C179 0.930 . S
H172 C182 0.930 . S
H173 C183 0.930 . S
C174 H168 0.930 . S
C174 C175 1.355 . S
C174 C176 1.415 . S
C175 C174 1.355 . S
C175 C177 1.419 . S
C176 C174 1.415 . S
C176 C181 1.425 . S
C176 C183 1.409 . S
C177 H169 0.930 . S
C177 C175 1.419 . S
C177 C178 1.362 . S
C178 H170 0.930 . S
C178 C177 1.362 . S
C178 C181 1.409 . S
C179 H171 0.930 . S
C179 C180 1.355 . S
C179 C181 1.415 . S
C180 C179 1.355 . S
C180 C182 1.419 . S
C181 C176 1.425 . S
C181 C178 1.409 . S
C181 C179 1.415 . S
C182 H172 0.930 . S
C182 C180 1.419 . S
C182 C183 1.362 . S
C183 H173 0.930 . S
C183 C176 1.409 . S
C183 C182 1.362 . S
H184 C190 0.930 . S
H185 C193 0.930 . S
H186 C194 0.930 . S
H187 C195 0.930 . S
H188 C198 0.930 . S
H189 C199 0.930 . S
C190 H184 0.930 . S
C190 C191 1.355 . S
C190 C192 1.415 . S
C191 C190 1.355 . S
C191 C193 1.419 . S
C192 C190 1.415 . S
C192 C197 1.425 . S
C192 C199 1.409 . S
C193 H185 0.930 . S
C193 C191 1.419 . S
C193 C194 1.362 . S
C194 H186 0.930 . S
C194 C193 1.362 . S
C194 C197 1.409 . S
C195 H187 0.930 . S
C195 C196 1.355 . S
C195 C197 1.415 . S
C196 C195 1.355 . S
C196 C198 1.419 . S
C197 C192 1.425 . S
C197 C194 1.409 . S
C197 C195 1.415 . S
C198 H188 0.930 . S
C198 C196 1.419 . S
C198 C199 1.362 . S
C199 H189 0.930 . S
C199 C192 1.409 . S
C199 C198 1.362 . S
H200 C206 0.930 . S
H201 C209 0.930 . S
H202 C210 0.930 . S
H203 C211 0.930 . S
H204 C214 0.930 . S
H205 C215 0.930 . S
C206 H200 0.930 . S
C206 C207 1.355 . S
C206 C208 1.415 . S
C207 C206 1.355 . S
C207 C209 1.419 . S
C208 C206 1.415 . S
C208 C213 1.425 . S
C208 C215 1.409 . S
C209 H201 0.930 . S
C209 C207 1.419 . S
C209 C210 1.362 . S
C210 H202 0.930 . S
C210 C209 1.362 . S
C210 C213 1.409 . S
C211 H203 0.930 . S
C211 C212 1.355 . S
C211 C213 1.415 . S
C212 C211 1.355 . S
C212 C214 1.419 . S
C213 C208 1.425 . S
C213 C210 1.409 . S
C213 C211 1.415 . S
C214 H204 0.930 . S
C214 C212 1.419 . S
C214 C215 1.362 . S
C215 H205 0.930 . S
C215 C208 1.409 . S
C215 C214 1.362 . S
H216 C222 0.930 . S
H217 C225 0.930 1_455 S
H218 C226 0.930 . S
H219 C227 0.930 . S
H220 C230 0.930 . S
H221 C231 0.930 . S
C222 H216 0.930 . S
C222 C223 1.355 . S
C222 C224 1.415 . S
C223 C222 1.355 . S
C223 C225 1.419 . S
C224 C222 1.415 . S
C224 C229 1.425 . S
C224 C231 1.409 . S
C225 H217 0.930 1_655 S
C225 C223 1.419 . S
C225 C226 1.362 . S
C226 H218 0.930 . S
C226 C225 1.362 . S
C226 C229 1.409 . S
C227 H219 0.930 . S
C227 C228 1.355 . S
C227 C229 1.415 . S
C228 C227 1.355 . S
C228 C230 1.419 . S
C229 C224 1.425 . S
C229 C226 1.409 . S
C229 C227 1.415 . S
C230 H220 0.930 . S
C230 C228 1.419 . S
C230 C231 1.362 . S
C231 H221 0.930 . S
C231 C224 1.409 . S
C231 C230 1.362 . S
H232 C238 0.930 . S
H233 C241 0.935 . S
H234 C242 0.930 . S
H235 C243 0.930 . S
H236 C246 0.930 . S
H237 C247 0.930 . S
C238 H232 0.930 . S
C238 C239 1.355 . S
C238 C240 1.415 . S
C239 C238 1.355 . S
C239 C241 1.419 . S
C240 C238 1.415 . S
C240 C245 1.425 . S
C240 C247 1.409 . S
C241 H233 0.935 . S
C241 C239 1.419 . S
C241 C242 1.362 . S
C242 H234 0.930 . S
C242 C241 1.362 . S
C242 C245 1.409 . S
C243 H235 0.930 . S
C243 C244 1.355 . S
C243 C245 1.415 . S
C244 C243 1.355 . S
C244 C246 1.419 . S
C245 C240 1.425 . S
C245 C242 1.409 . S
C245 C243 1.415 . S
C246 H236 0.930 . S
C246 C244 1.419 . S
C246 C247 1.362 . S
C247 H237 0.930 . S
C247 C240 1.409 . S
C247 C246 1.362 . S
H248 C254 0.930 . S
H249 C257 0.930 . S
H250 C258 0.930 . S
H251 C259 0.930 . S
H252 C262 0.930 . S
H253 C263 0.930 . S
C254 H248 0.930 . S
C254 C255 1.355 . S
C254 C256 1.415 . S
C255 C254 1.355 . S
C255 C257 1.419 . S
C256 C254 1.415 . S
C256 C261 1.425 . S
C256 C263 1.409 . S
C257 H249 0.930 . S
C257 C255 1.419 . S
C257 C258 1.362 . S
C258 H250 0.930 . S
C258 C257 1.362 . S
C258 C261 1.409 . S
C259 H251 0.930 . S
C259 C260 1.355 . S
C259 C261 1.415 . S
C260 C259 1.355 . S
C260 C262 1.419 . S
C261 C256 1.425 . S
C261 C258 1.409 . S
C261 C259 1.415 . S
C262 H252 0.930 . S
C262 C260 1.419 . S
C262 C263 1.362 . S
C263 H253 0.930 . S
C263 C256 1.409 . S
C263 C262 1.362 . S
H264 C270 0.930 . S
H265 C273 0.930 1_545 S
H266 C274 0.930 . S
H267 C275 0.930 . S
H268 C278 0.930 . S
H269 C279 0.930 . S
C270 H264 0.930 . S
C270 C271 1.355 . S
C270 C272 1.415 . S
C271 C270 1.355 . S
C271 C273 1.419 . S
C272 C270 1.415 . S
C272 C277 1.425 . S
C272 C279 1.409 . S
C273 H265 0.930 1_565 S
C273 C271 1.419 . S
C273 C274 1.362 . S
C274 H266 0.930 . S
C274 C273 1.362 . S
C274 C277 1.409 . S
C275 H267 0.930 . S
C275 C276 1.355 . S
C275 C277 1.415 . S
C276 C275 1.355 . S
C276 C278 1.419 . S
C277 C272 1.425 . S
C277 C274 1.409 . S
C277 C275 1.415 . S
C278 H268 0.930 . S
C278 C276 1.419 . S
C278 C279 1.362 . S
C279 H269 0.930 . S
C279 C272 1.409 . S
C279 C278 1.362 . S
H280 C286 0.930 . S
H281 C289 0.930 . S
H282 C290 0.930 . S
H283 C291 0.930 . S
H284 C294 0.930 . S
H285 C295 0.930 . S
C286 H280 0.930 . S
C286 C287 1.355 . S
C286 C288 1.415 . S
C287 C286 1.355 . S
C287 C289 1.419 . S
C288 C286 1.415 . S
C288 C293 1.425 . S
C288 C295 1.409 . S
C289 H281 0.930 . S
C289 C287 1.419 . S
C289 C290 1.362 . S
C290 H282 0.930 . S
C290 C289 1.362 . S
C290 C293 1.409 . S
C291 H283 0.930 . S
C291 C292 1.355 . S
C291 C293 1.415 . S
C292 C291 1.355 . S
C292 C294 1.419 . S
C293 C288 1.425 . S
C293 C290 1.409 . S
C293 C291 1.415 . S
C294 H284 0.930 . S
C294 C292 1.419 . S
C294 C295 1.362 . S
C295 H285 0.930 . S
C295 C288 1.409 . S
C295 C294 1.362 . S
H296 C302 0.930 . S
H297 C305 0.930 . S
H298 C306 0.930 . S
H299 C307 0.930 . S
H300 C310 0.930 . S
H301 C311 0.930 . S
C302 H296 0.930 . S
C302 C303 1.355 . S
C302 C304 1.415 . S
C303 C302 1.355 . S
C303 C305 1.419 . S
C304 C302 1.415 . S
C304 C309 1.425 . S
C304 C311 1.409 . S
C305 H297 0.930 . S
C305 C303 1.419 . S
C305 C306 1.362 . S
C306 H298 0.930 . S
C306 C305 1.362 . S
C306 C309 1.409 . S
C307 H299 0.930 . S
C307 C308 1.355 . S
C307 C309 1.415 . S
C308 C307 1.355 . S
C308 C310 1.419 . S
C309 C304 1.425 . S
C309 C306 1.409 . S
C309 C307 1.415 . S
C310 H300 0.930 . S
C310 C308 1.419 . S
C310 C311 1.362 . S
C311 H301 0.930 . S
C311 C304 1.409 . S
C311 C310 1.362 . S
H312 C318 0.930 . S
H313 C321 0.930 1_565 S
H314 C322 0.930 . S
H315 C323 0.930 . S
H316 C326 0.930 . S
H317 C327 0.930 . S
C318 H312 0.930 . S
C318 C319 1.355 . S
C318 C320 1.415 . S
C319 C318 1.355 . S
C319 C321 1.419 . S
C320 C318 1.415 . S
C320 C325 1.425 . S
C320 C327 1.409 . S
C321 H313 0.930 1_545 S
C321 C319 1.419 . S
C321 C322 1.362 . S
C322 H314 0.930 . S
C322 C321 1.362 . S
C322 C325 1.409 . S
C323 H315 0.930 . S
C323 C324 1.355 . S
C323 C325 1.415 . S
C324 C323 1.355 . S
C324 C326 1.419 . S
C325 C320 1.425 . S
C325 C322 1.409 . S
C325 C323 1.415 . S
C326 H316 0.930 . S
C326 C324 1.419 . S
C326 C327 1.362 . S
C327 H317 0.930 . S
C327 C320 1.409 . S
C327 C326 1.362 . S
H328 C334 0.930 . S
H329 C337 0.930 . S
H330 C338 0.930 . S
H331 C339 0.930 . S
H332 C342 0.930 . S
H333 C343 0.930 . S
C334 H328 0.930 . S
C334 C335 1.355 . S
C334 C336 1.415 . S
C335 C334 1.355 . S
C335 C337 1.419 . S
C336 C334 1.415 . S
C336 C341 1.425 . S
C336 C343 1.409 . S
C337 H329 0.930 . S
C337 C335 1.419 . S
C337 C338 1.362 . S
C338 H330 0.930 . S
C338 C337 1.362 . S
C338 C341 1.409 . S
C339 H331 0.930 . S
C339 C340 1.355 . S
C339 C341 1.415 . S
C340 C339 1.355 . S
C340 C342 1.419 . S
C341 C336 1.425 . S
C341 C338 1.409 . S
C341 C339 1.415 . S
C342 H332 0.930 . S
C342 C340 1.419 . S
C342 C343 1.362 . S
C343 H333 0.930 . S
C343 C336 1.409 . S
C343 C342 1.362 . S
H344 C350 0.930 . S
H345 C353 0.930 . S
H346 C354 0.930 . S
H347 C355 0.930 . S
H348 C358 0.930 . S
H349 C359 0.930 . S
C350 H344 0.930 . S
C350 C351 1.355 . S
C350 C352 1.415 . S
C351 C350 1.355 . S
C351 C353 1.419 . S
C352 C350 1.415 . S
C352 C357 1.425 . S
C352 C359 1.409 . S
C353 H345 0.930 . S
C353 C351 1.419 . S
C353 C354 1.362 . S
C354 H346 0.930 . S
C354 C353 1.362 . S
C354 C357 1.409 . S
C355 H347 0.930 . S
C355 C356 1.355 . S
C355 C357 1.415 . S
C356 C355 1.355 . S
C356 C358 1.419 . S
C357 C352 1.425 . S
C357 C354 1.409 . S
C357 C355 1.415 . S
C358 H348 0.930 . S
C358 C356 1.419 . S
C358 C359 1.362 . S
C359 H349 0.930 . S
C359 C352 1.409 . S
C359 C358 1.362 . S
H360 C366 0.930 . S
H361 C369 0.930 . S
H362 C370 0.930 . S
H363 C371 0.930 . S
H364 C374 0.930 . S
H365 C375 0.930 . S
C366 H360 0.930 . S
C366 C367 1.355 . S
C366 C368 1.415 . S
C367 C366 1.355 . S
C367 C369 1.419 . S
C368 C366 1.415 . S
C368 C373 1.425 . S
C368 C375 1.409 . S
C369 H361 0.930 . S
C369 C367 1.419 . S
C369 C370 1.362 . S
C370 H362 0.930 . S
C370 C369 1.362 . S
C370 C373 1.409 . S
C371 H363 0.930 . S
C371 C372 1.355 . S
C371 C373 1.415 . S
C372 C371 1.355 . S
C372 C374 1.419 . S
C373 C368 1.425 . S
C373 C370 1.409 . S
C373 C371 1.415 . S
C374 H364 0.930 . S
C374 C372 1.419 . S
C374 C375 1.362 . S
C375 H365 0.930 . S
C375 C368 1.409 . S
C375 C374 1.362 . S
H376 C382 0.930 . S
H377 C385 0.930 . S
H378 C386 0.930 . S
H379 C387 0.930 . S
H380 C390 0.930 . S
H381 C391 0.930 . S
C382 H376 0.930 . S
C382 C383 1.355 . S
C382 C384 1.415 . S
C383 C382 1.355 . S
C383 C385 1.419 . S
C384 C382 1.415 . S
C384 C389 1.425 . S
C384 C391 1.409 . S
C385 H377 0.930 . S
C385 C383 1.419 . S
C385 C386 1.362 . S
C386 H378 0.930 . S
C386 C385 1.362 . S
C386 C389 1.409 . S
C387 H379 0.930 . S
C387 C388 1.355 . S
C387 C389 1.415 . S
C388 C387 1.355 . S
C388 C390 1.419 . S
C389 C384 1.425 . S
C389 C386 1.409 . S
C389 C387 1.415 . S
C390 H380 0.930 . S
C390 C388 1.419 . S
C390 C391 1.362 . S
C391 H381 0.930 . S
C391 C384 1.409 . S
C391 C390 1.362 . S
H392 C398 0.930 . S
H393 C401 0.930 . S
H394 C402 0.930 . S
H395 C403 0.930 . S
H396 C406 0.930 . S
H397 C407 0.930 . S
C398 H392 0.930 . S
C398 C399 1.355 . S
C398 C400 1.415 . S
C399 C398 1.355 . S
C399 C401 1.419 . S
C400 C398 1.415 . S
C400 C405 1.425 . S
C400 C407 1.409 . S
C401 H393 0.930 . S
C401 C399 1.419 . S
C401 C402 1.362 . S
C402 H394 0.930 . S
C402 C401 1.362 . S
C402 C405 1.409 . S
C403 H395 0.930 . S
C403 C404 1.355 . S
C403 C405 1.415 . S
C404 C403 1.355 . S
C404 C406 1.419 . S
C405 C400 1.425 . S
C405 C402 1.409 . S
C405 C403 1.415 . S
C406 H396 0.930 . S
C406 C404 1.419 . S
C406 C407 1.362 . S
C407 H397 0.930 . S
C407 C400 1.409 . S
C407 C406 1.362 . S
H408 C414 0.930 . S
H409 C417 0.930 . S
H410 C418 0.930 . S
H411 C419 0.930 . S
H412 C422 0.930 . S
H413 C423 0.930 . S
C414 H408 0.930 . S
C414 C415 1.355 . S
C414 C416 1.415 . S
C415 C414 1.355 . S
C415 C417 1.419 . S
C416 C414 1.415 . S
C416 C421 1.425 . S
C416 C423 1.409 . S
C417 H409 0.930 . S
C417 C415 1.419 . S
C417 C418 1.362 . S
C418 H410 0.930 . S
C418 C417 1.362 . S
C418 C421 1.409 . S
C419 H411 0.930 . S
C419 C420 1.355 . S
C419 C421 1.415 . S
C420 C419 1.355 . S
C420 C422 1.419 . S
C421 C416 1.425 . S
C421 C418 1.409 . S
C421 C419 1.415 . S
C422 H412 0.930 . S
C422 C420 1.419 . S
C422 C423 1.362 . S
C423 H413 0.930 . S
C423 C416 1.409 . S
C423 C422 1.362 . S
H424 C430 0.930 . S
H425 C433 0.930 . S
H426 C434 0.930 . S
H427 C435 0.930 . S
H428 C438 0.930 . S
H429 C439 0.930 . S
C430 H424 0.930 . S
C430 C431 1.355 . S
C430 C432 1.415 . S
C431 C430 1.355 . S
C431 C433 1.419 . S
C432 C430 1.415 . S
C432 C437 1.425 . S
C432 C439 1.409 . S
C433 H425 0.930 . S
C433 C431 1.419 . S
C433 C434 1.362 . S
C434 H426 0.930 . S
C434 C433 1.362 . S
C434 C437 1.409 . S
C435 H427 0.930 . S
C435 C436 1.355 . S
C435 C437 1.415 . S
C436 C435 1.355 . S
C436 C438 1.419 . S
C437 C432 1.425 . S
C437 C434 1.409 . S
C437 C435 1.415 . S
C438 H428 0.930 . S
C438 C436 1.419 . S
C438 C439 1.362 . S
C439 H429 0.930 . S
C439 C432 1.409 . S
C439 C438 1.362 . S
H440 C446 0.930 . S
H441 C449 0.930 . S
H442 C450 0.930 . S
H443 C451 0.930 . S
H444 C454 0.930 . S
H445 C455 0.930 . S
C446 H440 0.930 . S
C446 C447 1.355 . S
C446 C448 1.415 . S
C447 C446 1.355 . S
C447 C449 1.419 . S
C448 C446 1.415 . S
C448 C453 1.425 . S
C448 C455 1.409 . S
C449 H441 0.930 . S
C449 C447 1.419 . S
C449 C450 1.362 . S
C450 H442 0.930 . S
C450 C449 1.362 . S
C450 C453 1.409 . S
C451 H443 0.930 . S
C451 C452 1.355 . S
C451 C453 1.415 . S
C452 C451 1.355 . S
C452 C454 1.419 . S
C453 C448 1.425 . S
C453 C450 1.409 . S
C453 C451 1.415 . S
C454 H444 0.930 . S
C454 C452 1.419 . S
C454 C455 1.362 . S
C455 H445 0.930 . S
C455 C448 1.409 . S
C455 C454 1.362 . S
H456 C462 0.930 . S
H457 C465 0.930 . S
H458 C466 0.930 . S
H459 C467 0.930 . S
H460 C470 0.930 . S
H461 C471 0.930 . S
C462 H456 0.930 . S
C462 C463 1.355 . S
C462 C464 1.415 . S
C463 C462 1.355 . S
C463 C465 1.419 . S
C464 C462 1.415 . S
C464 C469 1.425 . S
C464 C471 1.409 . S
C465 H457 0.930 . S
C465 C463 1.419 . S
C465 C466 1.362 . S
C466 H458 0.930 . S
C466 C465 1.362 . S
C466 C469 1.409 . S
C467 H459 0.930 . S
C467 C468 1.355 . S
C467 C469 1.415 . S
C468 C467 1.355 . S
C468 C470 1.419 . S
C469 C464 1.425 . S
C469 C466 1.409 . S
C469 C467 1.415 . S
C470 H460 0.930 . S
C470 C468 1.419 . S
C470 C471 1.362 . S
C471 H461 0.930 . S
C471 C464 1.409 . S
C471 C470 1.362 . S
H472 C478 0.930 . S
H473 C481 0.930 . S
H474 C482 0.930 . S
H475 C483 0.930 . S
H476 C486 0.930 . S
H477 C487 0.930 . S
C478 H472 0.930 . S
C478 C479 1.355 . S
C478 C480 1.415 . S
C479 C478 1.355 . S
C479 C481 1.419 . S
C480 C478 1.415 . S
C480 C485 1.425 . S
C480 C487 1.409 . S
C481 H473 0.930 . S
C481 C479 1.419 . S
C481 C482 1.362 . S
C482 H474 0.930 . S
C482 C481 1.362 . S
C482 C485 1.409 . S
C483 H475 0.930 . S
C483 C484 1.355 . S
C483 C485 1.415 . S
C484 C483 1.355 . S
C484 C486 1.419 . S
C485 C480 1.425 . S
C485 C482 1.409 . S
C485 C483 1.415 . S
C486 H476 0.930 . S
C486 C484 1.419 . S
C486 C487 1.362 . S
C487 H477 0.930 . S
C487 C480 1.409 . S
C487 C486 1.362 . S
H488 C494 0.930 . S
H489 C497 0.930 . S
H490 C498 0.930 . S
H491 C499 0.930 . S
H492 C502 0.930 . S
H493 C503 0.930 . S
C494 H488 0.930 . S
C494 C495 1.355 . S
C494 C496 1.415 . S
C495 C494 1.355 . S
C495 C497 1.419 . S
C496 C494 1.415 . S
C496 C501 1.425 . S
C496 C503 1.409 . S
C497 H489 0.930 . S
C497 C495 1.419 . S
C497 C498 1.362 . S
C498 H490 0.930 . S
C498 C497 1.362 . S
C498 C501 1.409 . S
C499 H491 0.930 . S
C499 C500 1.355 . S
C499 C501 1.415 . S
C500 C499 1.355 . S
C500 C502 1.419 . S
C501 C496 1.425 . S
C501 C498 1.409 . S
C501 C499 1.415 . S
C502 H492 0.930 . S
C502 C500 1.419 . S
C502 C503 1.362 . S
C503 H493 0.930 . S
C503 C496 1.409 . S
C503 C502 1.362 . S
H504 C510 0.930 . S
H505 C513 0.930 . S
H506 C514 0.930 . S
H507 C515 0.930 . S
H508 C518 0.930 . S
H509 C519 0.930 . S
C510 H504 0.930 . S
C510 C511 1.355 . S
C510 C512 1.415 . S
C511 C510 1.355 . S
C511 C513 1.419 . S
C512 C510 1.415 . S
C512 C517 1.425 . S
C512 C519 1.409 . S
C513 H505 0.930 . S
C513 C511 1.419 . S
C513 C514 1.362 . S
C514 H506 0.930 . S
C514 C513 1.362 . S
C514 C517 1.409 . S
C515 H507 0.930 . S
C515 C516 1.355 . S
C515 C517 1.415 . S
C516 C515 1.355 . S
C516 C518 1.419 . S
C517 C512 1.425 . S
C517 C514 1.409 . S
C517 C515 1.415 . S
C518 H508 0.930 . S
C518 C516 1.419 . S
C518 C519 1.362 . S
C519 H509 0.930 . S
C519 C512 1.409 . S
C519 C518 1.362 . S
H520 C526 0.930 . S
H521 C529 0.930 . S
H522 C530 0.930 . S
H523 C531 0.930 . S
H524 C534 0.930 . S
H525 C535 0.930 . S
C526 H520 0.930 . S
C526 C527 1.355 . S
C526 C528 1.415 . S
C527 C526 1.355 . S
C527 C529 1.419 . S
C528 C526 1.415 . S
C528 C533 1.425 . S
C528 C535 1.409 . S
C529 H521 0.930 . S
C529 C527 1.419 . S
C529 C530 1.362 . S
C530 H522 0.930 . S
C530 C529 1.362 . S
C530 C533 1.409 . S
C531 H523 0.930 . S
C531 C532 1.355 . S
C531 C533 1.415 . S
C532 C531 1.355 . S
C532 C534 1.419 . S
C533 C528 1.425 . S
C533 C530 1.409 . S
C533 C531 1.415 . S
C534 H524 0.930 . S
C534 C532 1.419 . S
C534 C535 1.362 . S
C535 H525 0.930 . S
C535 C528 1.409 . S
C535 C534 1.362 . S
H536 C542 0.930 . S
H537 C545 0.930 . S
H538 C546 0.930 . S
H539 C547 0.930 . S
H540 C550 0.930 . S
H541 C551 0.930 . S
C542 H536 0.930 . S
C542 C543 1.355 . S
C542 C544 1.415 . S
C543 C542 1.355 . S
C543 C545 1.419 . S
C544 C542 1.415 . S
C544 C549 1.425 . S
C544 C551 1.409 . S
C545 H537 0.930 . S
C545 C543 1.419 . S
C545 C546 1.362 . S
C546 H538 0.930 . S
C546 C545 1.362 . S
C546 C549 1.409 . S
C547 H539 0.930 . S
C547 C548 1.355 . S
C547 C549 1.415 . S
C548 C547 1.355 . S
C548 C550 1.419 . S
C549 C544 1.425 . S
C549 C546 1.409 . S
C549 C547 1.415 . S
C550 H540 0.930 . S
C550 C548 1.419 . S
C550 C551 1.362 . S
C551 H541 0.930 . S
C551 C544 1.409 . S
C551 C550 1.362 . S
C175 C13 1.634 . S
C180 C85 1.587 . S
C191 C27 1.641 . S
C196 C110 1.600 . S
C212 C113 1.609 . S
C207 C29 1.638 . S
C228 C139 1.585 . S
C223 C54 1.638 . S
C244 C140 1.589 . S
C239 C69 1.634 . S
C260 C167 1.600 . S
C255 C83 1.637 . S
C271 C15 1.633 . S
C276 C112 1.589 . S
C287 C41 1.632 . S
C292 C138 1.590 . S
C308 C141 1.615 . S
C303 C42 1.649 . S
C324 C166 1.585 . S
C319 C57 1.632 . S
C335 C71 1.634 . S
C340 C84 1.587 . S
C356 C111 1.609 . S
C351 C1 1.642 . S
C372 C126 1.611 . S
C367 C12 1.646 . S
C383 C26 1.644 . S
C388 C153 1.620 . S
C404 C154 1.636 . S
C399 C28 1.655 . S
C415 C55 1.639 . S
C420 C96 1.604 . S
C431 C68 1.654 . S
C436 C99 1.639 . S
C447 C82 1.632 . S
C452 C124 1.584 . S
C463 C14 1.653 . S
C468 C155 1.628 . S
C484 C97 1.614 . S
C479 C40 1.644 . S
C495 C43 1.633 . S
C500 C98 1.588 . S
C511 C56 1.634 . S
C516 C125 1.596 . S
C527 C70 1.632 . S
C532 C127 1.585 . S
C543 C0 1.649 . S
C548 C152 1.616 . S
