# Generated by pormake.
# Topology wbl, (4,4)-cn, num edge types: 1
# Building blocks:
#     Node 0, Type 0, BuildingBlock: MUDLON_clean_sbu_0, # of connection points: 4
#     Node 1, Type 0, BuildingBlock: MUDLON_clean_sbu_0, # of connection points: 4
#     Node 2, Type 0, BuildingBlock: MUDLON_clean_sbu_0, # of connection points: 4
#     Node 3, Type 0, BuildingBlock: MUDLON_clean_sbu_0, # of connection points: 4
#     Node 4, Type 0, BuildingBlock: MUDLON_clean_sbu_0, # of connection points: 4
#     Node 5, Type 0, BuildingBlock: MUDLON_clean_sbu_0, # of connection points: 4
#     Node 6, Type 0, BuildingBlock: MUDLON_clean_sbu_0, # of connection points: 4
#     Node 7, Type 0, BuildingBlock: MUDLON_clean_sbu_0, # of connection points: 4
#     Node 8, Type 1, BuildingBlock: QUQFOY_clean_sbu_1, # of connection points: 4
#     Node 9, Type 1, BuildingBlock: QUQFOY_clean_sbu_1, # of connection points: 4
#     Node 10, Type 1, BuildingBlock: QUQFOY_clean_sbu_1, # of connection points: 4
#     Node 11, Type 1, BuildingBlock: QUQFOY_clean_sbu_1, # of connection points: 4
#     Node 12, Type 1, BuildingBlock: QUQFOY_clean_sbu_1, # of connection points: 4
#     Node 13, Type 1, BuildingBlock: QUQFOY_clean_sbu_1, # of connection points: 4
#     Node 14, Type 1, BuildingBlock: QUQFOY_clean_sbu_1, # of connection points: 4
#     Node 15, Type 1, BuildingBlock: QUQFOY_clean_sbu_1, # of connection points: 4
#     Edge 16, Type (0, 1), BuildingBlock: CIFDUS_clean_linker_0, # of connection points: 2
#     Edge 17, Type (0, 1), BuildingBlock: CIFDUS_clean_linker_0, # of connection points: 2
#     Edge 18, Type (0, 1), BuildingBlock: CIFDUS_clean_linker_0, # of connection points: 2
#     Edge 19, Type (0, 1), BuildingBlock: CIFDUS_clean_linker_0, # of connection points: 2
#     Edge 20, Type (0, 1), BuildingBlock: CIFDUS_clean_linker_0, # of connection points: 2
#     Edge 21, Type (0, 1), BuildingBlock: CIFDUS_clean_linker_0, # of connection points: 2
#     Edge 22, Type (0, 1), BuildingBlock: CIFDUS_clean_linker_0, # of connection points: 2
#     Edge 23, Type (0, 1), BuildingBlock: CIFDUS_clean_linker_0, # of connection points: 2
#     Edge 24, Type (0, 1), BuildingBlock: CIFDUS_clean_linker_0, # of connection points: 2
#     Edge 25, Type (0, 1), BuildingBlock: CIFDUS_clean_linker_0, # of connection points: 2
#     Edge 26, Type (0, 1), BuildingBlock: CIFDUS_clean_linker_0, # of connection points: 2
#     Edge 27, Type (0, 1), BuildingBlock: CIFDUS_clean_linker_0, # of connection points: 2
#     Edge 28, Type (0, 1), BuildingBlock: CIFDUS_clean_linker_0, # of connection points: 2
#     Edge 29, Type (0, 1), BuildingBlock: CIFDUS_clean_linker_0, # of connection points: 2
#     Edge 30, Type (0, 1), BuildingBlock: CIFDUS_clean_linker_0, # of connection points: 2
#     Edge 31, Type (0, 1), BuildingBlock: CIFDUS_clean_linker_0, # of connection points: 2
#     Edge 32, Type (0, 1), BuildingBlock: CIFDUS_clean_linker_0, # of connection points: 2
#     Edge 33, Type (0, 1), BuildingBlock: CIFDUS_clean_linker_0, # of connection points: 2
#     Edge 34, Type (0, 1), BuildingBlock: CIFDUS_clean_linker_0, # of connection points: 2
#     Edge 35, Type (0, 1), BuildingBlock: CIFDUS_clean_linker_0, # of connection points: 2
#     Edge 36, Type (0, 1), BuildingBlock: CIFDUS_clean_linker_0, # of connection points: 2
#     Edge 37, Type (0, 1), BuildingBlock: CIFDUS_clean_linker_0, # of connection points: 2
#     Edge 38, Type (0, 1), BuildingBlock: CIFDUS_clean_linker_0, # of connection points: 2
#     Edge 39, Type (0, 1), BuildingBlock: CIFDUS_clean_linker_0, # of connection points: 2
#     Edge 40, Type (0, 1), BuildingBlock: CIFDUS_clean_linker_0, # of connection points: 2
#     Edge 41, Type (0, 1), BuildingBlock: CIFDUS_clean_linker_0, # of connection points: 2
#     Edge 42, Type (0, 1), BuildingBlock: CIFDUS_clean_linker_0, # of connection points: 2
#     Edge 43, Type (0, 1), BuildingBlock: CIFDUS_clean_linker_0, # of connection points: 2
#     Edge 44, Type (0, 1), BuildingBlock: CIFDUS_clean_linker_0, # of connection points: 2
#     Edge 45, Type (0, 1), BuildingBlock: CIFDUS_clean_linker_0, # of connection points: 2
#     Edge 46, Type (0, 1), BuildingBlock: CIFDUS_clean_linker_0, # of connection points: 2
#     Edge 47, Type (0, 1), BuildingBlock: CIFDUS_clean_linker_0, # of connection points: 2
# Relax obj value: 0.235
# Max RMSD: 0.253
# Mean RMSD: 0.183
data_MOF--net-wbl--node1-MUDLON_clean_sbu_0--node2-QUQFOY_clean_sbu_1--edge1-CIFDUS_clean_linker_0
_symmetry_space_group_name_H-M    P1
_symmetry_Int_Tables_number       1
_symmetry_cell_setting            triclinic
loop_
_symmetry_equiv_pos_as_xyz
'x, y, z'
_cell_length_a     30.841064
_cell_length_b     30.713356
_cell_length_c     67.519927
_cell_angle_alpha  93.272042
_cell_angle_beta   92.974795
_cell_angle_gamma 90.827646
loop_
_atom_site_label
_atom_site_type_symbol
_atom_site_fract_x
_atom_site_fract_y
_atom_site_fract_z
_atom_type_partial_charge
Mg0 Mg 0.15524 0.20402 0.37434 0.0
C1 C 0.18891 0.14254 0.4031 0.0
O2 O 0.22497 0.1564 0.39582 0.0
C3 C 0.06577 0.17505 0.36022 0.0
O4 O 0.07981 0.14047 0.369 0.0
C5 C 0.20117 0.15035 0.34445 0.0
O6 O 0.16622 0.12671 0.34694 0.0
O7 O 0.20571 0.18728 0.35394 0.0
O8 O 0.15281 0.15398 0.39535 0.0
O9 O 0.16969 0.25722 0.39629 0.0
C10 C 0.13782 0.27759 0.40333 0.0
O11 O 0.10064 0.2764 0.39288 0.0
O12 O 0.0912 0.20786 0.35966 0.0
Mg13 Mg 0.04951 0.70391 0.61605 0.0
C14 C 0.1395 0.72623 0.63294 0.0
O15 O 0.12953 0.76451 0.62649 0.0
C16 C 0.0379 0.60949 0.60639 0.0
O17 O 0.05308 0.61071 0.62496 0.0
C18 C 0.08367 0.76101 0.58699 0.0
O19 O 0.10337 0.72394 0.58338 0.0
O20 O 0.05429 0.76217 0.59952 0.0
O21 O 0.11394 0.69389 0.62864 0.0
O22 O 0.01881 0.71171 0.64438 0.0
C23 C 0.99512 0.68271 0.65143 0.0
O24 O 0.97782 0.65131 0.63941 0.0
O25 O 0.03168 0.64506 0.59805 0.0
Mg26 Mg 0.59606 0.53694 0.86332 0.0
C27 C 0.62639 0.57638 0.90297 0.0
O28 O 0.64289 0.53733 0.90401 0.0
C29 C 0.66728 0.52049 0.83461 0.0
O30 O 0.64362 0.5466 0.82392 0.0
C31 C 0.56218 0.60512 0.83737 0.0
O32 O 0.59759 0.62478 0.84529 0.0
O33 O 0.55389 0.56613 0.84157 0.0
O34 O 0.61021 0.58753 0.88636 0.0
O35 O 0.56172 0.49159 0.88056 0.0
C36 C 0.58198 0.46003 0.88783 0.0
O37 O 0.61771 0.44709 0.87967 0.0
O38 O 0.65475 0.51066 0.85146 0.0
Mg39 Mg 0.63001 0.07573 0.11577 0.0
C40 C 0.67737 0.04966 0.1533 0.0
O41 O 0.64144 0.02674 0.15447 0.0
C42 C 0.59512 0.98466 0.10563 0.0
O43 O 0.58807 0.98802 0.12465 0.0
C44 C 0.68998 0.13083 0.09458 0.0
O45 O 0.7159 0.10192 0.10225 0.0
O46 O 0.64955 0.12824 0.09745 0.0
O47 O 0.68375 0.06825 0.13732 0.0
O48 O 0.5778 0.09048 0.13549 0.0
C49 C 0.5874 0.1148 0.15104 0.0
O50 O 0.62412 0.13724 0.15201 0.0
O51 O 0.61291 0.01646 0.0977 0.0
Mg52 Mg 0.06606 0.65976 0.94912 0.0
C53 C 0.11844 0.67838 0.91638 0.0
O54 O 0.12134 0.71343 0.92852 0.0
C55 C 0.98569 0.61418 0.96113 0.0
O56 O 0.97032 0.65154 0.95563 0.0
C57 C 0.14511 0.65163 0.97775 0.0
O58 O 0.13645 0.60975 0.97447 0.0
O59 O 0.11969 0.67903 0.97008 0.0
O60 O 0.09737 0.64541 0.92159 0.0
O61 O 0.02676 0.71755 0.9446 0.0
C62 C 0.01193 0.73189 0.92826 0.0
O63 O 0.99225 0.76955 0.92867 0.0
O64 O 0.02605 0.60721 0.95975 0.0
Mg65 Mg 0.57246 0.57627 0.20404 0.0
C66 C 0.48325 0.57459 0.18453 0.0
O67 O 0.48256 0.61428 0.19281 0.0
C68 C 0.59377 0.50338 0.23276 0.0
O69 O 0.55146 0.49874 0.23339 0.0
C70 C 0.53899 0.65424 0.229 0.0
O71 O 0.51 0.62572 0.23406 0.0
O72 O 0.56812 0.64202 0.21737 0.0
O73 O 0.51178 0.54868 0.19095 0.0
O74 O 0.60641 0.58053 0.17687 0.0
C75 C 0.63357 0.55153 0.17214 0.0
O76 O 0.64408 0.52217 0.18487 0.0
O77 O 0.60929 0.53299 0.22264 0.0
Mg78 Mg 0.65242 0.10955 0.4638 0.0
C79 C 0.64866 0.19261 0.44234 0.0
O80 O 0.6858 0.2006 0.45237 0.0
C81 C 0.5882 0.10307 0.49706 0.0
O82 O 0.59332 0.14565 0.49901 0.0
C83 C 0.71612 0.15945 0.49143 0.0
O84 O 0.67992 0.17898 0.49575 0.0
O85 O 0.7147 0.12808 0.4783 0.0
O86 O 0.62436 0.16188 0.44744 0.0
O87 O 0.65831 0.06361 0.4386 0.0
C88 C 0.62196 0.04648 0.43249 0.0
O89 O 0.58856 0.05249 0.44359 0.0
O90 O 0.60876 0.08152 0.48405 0.0
Mg91 Mg 0.20957 0.17924 0.72272 0.0
C92 C 0.25129 0.2099 0.68792 0.0
O93 O 0.21823 0.23618 0.68946 0.0
C94 C 0.21122 0.27529 0.73953 0.0
O95 O 0.24476 0.27939 0.72852 0.0
C96 C 0.25575 0.10406 0.74136 0.0
O97 O 0.28864 0.12238 0.73319 0.0
O98 O 0.21869 0.12161 0.73985 0.0
O99 O 0.26115 0.18662 0.70244 0.0
O100 O 0.15733 0.1667 0.70026 0.0
C101 C 0.12736 0.19414 0.69792 0.0
O102 O 0.12355 0.22588 0.71157 0.0
O103 O 0.19335 0.2379 0.74047 0.0
O104 O 0.50385 0.67911 0.00403 0.0
Cd105 Cd 0.46344 0.70301 0.02524 0.0
Cd106 Cd 0.51153 0.65438 0.04965 0.0
O107 O 0.53764 0.63326 0.02324 0.0
O108 O 0.40703 0.71897 0.01202 0.0
O109 O 0.41385 0.66478 0.03221 0.0
C110 C 0.38938 0.68717 0.02061 0.0
C111 C 0.49513 0.60467 0.07314 0.0
C112 C 0.53155 0.64936 0.0064 0.0
C113 C 0.51502 0.75214 0.05779 0.0
O114 O 0.52976 0.71529 0.06219 0.0
O115 O 0.48666 0.75493 0.0436 0.0
O116 O 0.46437 0.62288 0.06307 0.0
O117 O 0.53464 0.61322 0.06915 0.0
O118 O 0.48136 0.97029 0.31966 0.0
Cd119 Cd 0.44668 0.96814 0.29282 0.0
Cd120 Cd 0.52578 0.98579 0.28041 0.0
O121 O 0.54222 0.99916 0.31032 0.0
O122 O 0.38548 0.96507 0.3008 0.0
O123 O 0.41249 0.02204 0.28677 0.0
C124 C 0.38043 0.0039 0.29494 0.0
C125 C 0.53748 0.0358 0.25646 0.0
C126 C 0.51907 0.98635 0.32398 0.0
C127 C 0.48797 0.89735 0.26863 0.0
O128 O 0.52245 0.92078 0.27055 0.0
O129 O 0.45249 0.91223 0.27475 0.0
O130 O 0.56934 0.01597 0.26496 0.0
O131 O 0.4987 0.02835 0.262 0.0
O132 O 0.27866 0.02702 0.51364 0.0
Cd133 Cd 0.3013 0.01205 0.54146 0.0
Cd134 Cd 0.23308 0.05788 0.55202 0.0
O135 O 0.22936 0.07426 0.52274 0.0
O136 O 0.36159 0.99321 0.53676 0.0
O137 O 0.34661 0.05342 0.55444 0.0
C138 C 0.37502 0.02914 0.54605 0.0
C139 C 0.24369 0.1103 0.57817 0.0
C140 C 0.2505 0.05507 0.50924 0.0
C141 C 0.22985 0.96274 0.55895 0.0
O142 O 0.20817 0.99759 0.5581 0.0
O143 O 0.26949 0.96248 0.55453 0.0
O144 O 0.2063 0.1048 0.56875 0.0
O145 O 0.27538 0.08647 0.57246 0.0
O146 O 0.28064 0.75778 0.74352 0.0
Cd147 Cd 0.31019 0.78634 0.76928 0.0
Cd148 Cd 0.25559 0.72713 0.78491 0.0
O149 O 0.2279 0.72189 0.75674 0.0
O150 O 0.34006 0.83921 0.76036 0.0
O151 O 0.2846 0.84273 0.77982 0.0
C152 C 0.31249 0.86261 0.76972 0.0
C153 C 0.21343 0.72892 0.81252 0.0
C154 C 0.24607 0.73454 0.74159 0.0
C155 C 0.35165 0.71313 0.78956 0.0
O156 O 0.31354 0.69703 0.78948 0.0
O157 O 0.35783 0.75143 0.78391 0.0
O158 O 0.21657 0.69385 0.80132 0.0
O159 O 0.23255 0.76396 0.80738 0.0
O160 O 0.03306 0.25247 0.58317 0.0
Cd161 Cd 0.0078 0.28629 0.56002 0.0
Cd162 Cd 0.05418 0.22252 0.54021 0.0
O163 O 0.07784 0.20765 0.56833 0.0
O164 O 0.97739 0.33188 0.57581 0.0
O165 O 0.03014 0.34758 0.55638 0.0
C166 C 0.00278 0.36059 0.5692 0.0
C167 C 0.09797 0.24163 0.51488 0.0
C168 C 0.06158 0.22319 0.5841 0.0
C169 C 0.95789 0.22097 0.53243 0.0
O170 O 0.99274 0.19975 0.53073 0.0
O171 O 0.95814 0.25744 0.54232 0.0
O172 O 0.09528 0.20186 0.52002 0.0
O173 O 0.07749 0.27119 0.52492 0.0
O174 O 0.00343 0.53564 0.82886 0.0
Cd175 Cd 0.98259 0.50261 0.80276 0.0
Cd176 Cd 0.03988 0.55715 0.78791 0.0
O177 O 0.03833 0.58941 0.81601 0.0
O178 O 0.92926 0.47187 0.81042 0.0
O179 O 0.92813 0.52374 0.78902 0.0
C180 C 0.9071 0.49706 0.79927 0.0
C181 C 0.01538 0.59038 0.75917 0.0
C182 C 0.02307 0.57233 0.83099 0.0
C183 C 0.05955 0.46147 0.78456 0.0
O184 O 0.07508 0.49997 0.78369 0.0
O185 O 0.02155 0.45577 0.79051 0.0
O186 O 0.05373 0.59888 0.76721 0.0
O187 O 0.99059 0.56395 0.76784 0.0
O188 O 0.75751 0.4555 0.06393 0.0
Cd189 Cd 0.77023 0.41912 0.03849 0.0
Cd190 Cd 0.70587 0.46697 0.02347 0.0
O191 O 0.69345 0.47842 0.05321 0.0
O192 O 0.78985 0.36043 0.04681 0.0
O193 O 0.72594 0.37201 0.03181 0.0
C194 C 0.75164 0.34581 0.04072 0.0
C195 C 0.65557 0.44191 0.99819 0.0
C196 C 0.72185 0.47407 0.06731 0.0
C197 C 0.7965 0.48362 0.01041 0.0
O198 O 0.75862 0.49823 0.01282 0.0
O199 O 0.80785 0.4481 0.01791 0.0
O200 O 0.6544 0.48146 0.00573 0.0
O201 O 0.6831 0.41598 0.00609 0.0
O202 O 0.75312 0.19175 0.25963 0.0
Cd203 Cd 0.76016 0.24063 0.28188 0.0
Cd204 Cd 0.73907 0.17693 0.30446 0.0
O205 O 0.72225 0.14377 0.27769 0.0
O206 O 0.75463 0.29693 0.26876 0.0
O207 O 0.70691 0.27345 0.28928 0.0
C208 C 0.71871 0.30258 0.27748 0.0
C209 C 0.69156 0.18099 0.33015 0.0
C210 C 0.73456 0.1549 0.26101 0.0
C211 C 0.82993 0.21292 0.3101 0.0
O212 O 0.80424 0.1815 0.31311 0.0
O213 O 0.81742 0.24311 0.29914 0.0
O214 O 0.70992 0.14492 0.32503 0.0
O215 O 0.69901 0.21477 0.32023 0.0
H216 H 0.20388 0.06926 0.32654 0.0
H217 H 0.27756 0.18994 0.33546 0.0
H218 H 0.33791 0.15666 0.31832 0.0
H219 H 0.37229 0.09095 0.30362 0.0
H220 H 0.29958 0.96953 0.29719 0.0
H221 H 0.23611 0.00555 0.31022 0.0
C222 C 0.2329 0.08856 0.32458 0.0
C223 C 0.23623 0.13198 0.33243 0.0
C224 C 0.26774 0.06897 0.31512 0.0
C225 C 0.27417 0.15637 0.32968 0.0
C226 C 0.30873 0.13734 0.31988 0.0
C227 C 0.34219 0.07273 0.30466 0.0
C228 C 0.34049 0.0277 0.2994 0.0
C229 C 0.30624 0.09336 0.31289 0.0
C230 C 0.3016 0.00421 0.30114 0.0
C231 C 0.26538 0.02475 0.30867 0.0
H232 H 0.16388 0.77268 0.57365 0.0
H233 H 0.04695 0.84172 0.58672 0.0
H234 H 0.08199 0.91059 0.57931 0.0
H235 H 0.14671 0.95119 0.57004 0.0
H236 H 0.26425 0.88139 0.55852 0.0
H237 H 0.22811 0.81284 0.56469 0.0
C238 C 0.14576 0.80267 0.57463 0.0
C239 C 0.10271 0.80203 0.58055 0.0
C240 C 0.16644 0.84209 0.57091 0.0
C241 C 0.08005 0.84133 0.58208 0.0
C242 C 0.10014 0.88071 0.57794 0.0
C243 C 0.16448 0.92102 0.56894 0.0
C244 C 0.20822 0.92159 0.56384 0.0
C245 C 0.14351 0.88152 0.57256 0.0
C246 C 0.23067 0.88209 0.56249 0.0
C247 C 0.20998 0.84276 0.56592 0.0
H248 H 0.48214 0.5771 0.82343 0.0
H249 H 0.5692 0.68879 0.82578 0.0
H250 H 0.51238 0.73185 0.8101 0.0
H251 H 0.43622 0.73901 0.79781 0.0
H252 H 0.34949 0.62705 0.79678 0.0
H253 H 0.40798 0.58307 0.80984 0.0
C254 C 0.48893 0.61072 0.82033 0.0
C255 C 0.52974 0.62974 0.82588 0.0
C256 C 0.456 0.63545 0.8117 0.0
C257 C 0.53795 0.67337 0.82173 0.0
C258 C 0.50544 0.69807 0.81281 0.0
C259 C 0.43025 0.70493 0.80031 0.0
C260 C 0.38841 0.68657 0.79648 0.0
C261 C 0.46405 0.67968 0.80808 0.0
C262 C 0.38124 0.64227 0.79978 0.0
C263 C 0.4147 0.61694 0.80722 0.0
H264 H 0.58504 0.90359 0.11851 0.0
H265 H 0.57365 0.97657 0.06583 0.0
H266 H 0.54642 0.91119 0.04639 0.0
H267 H 0.52487 0.83334 0.04458 0.0
H268 H 0.54165 0.75956 0.09682 0.0
H269 H 0.56765 0.8252 0.11629 0.0
C270 C 0.57663 0.90513 0.10276 0.0
C271 C 0.58102 0.94481 0.09362 0.0
C272 C 0.56185 0.86733 0.09165 0.0
C273 C 0.57062 0.9463 0.07317 0.0
C274 C 0.5549 0.90901 0.06208 0.0
C275 C 0.53413 0.83179 0.06024 0.0
C276 C 0.53103 0.79189 0.06933 0.0
C277 C 0.55016 0.8694 0.0712 0.0
C278 C 0.54379 0.78998 0.08953 0.0
C279 C 0.55859 0.82746 0.10066 0.0
H280 H 0.20332 0.60422 0.99901 0.0
H281 H 0.1818 0.73309 0.97843 0.0
H282 H 0.25469 0.756 0.99079 0.0
H283 H 0.32649 0.73804 0.00512 0.0
H284 H 0.34805 0.61009 0.02656 0.0
H285 H 0.27323 0.58838 0.01632 0.0
C286 C 0.21442 0.63745 0.99742 0.0
C287 C 0.18719 0.6667 0.98761 0.0
C288 C 0.25652 0.65054 0.00461 0.0
C289 C 0.20198 0.70979 0.98587 0.0
C290 C 0.2438 0.72293 0.99287 0.0
C291 C 0.31471 0.70551 0.0077 0.0
C292 C 0.34292 0.67557 0.01638 0.0
C293 C 0.27164 0.69335 0.00188 0.0
C294 C 0.32701 0.63374 0.01987 0.0
C295 C 0.28426 0.62125 0.01395 0.0
H296 H 0.46958 0.69625 0.24375 0.0
H297 H 0.60243 0.71697 0.22889 0.0
H298 H 0.598 0.79423 0.2392 0.0
H299 H 0.55672 0.85575 0.25277 0.0
H300 H 0.42318 0.83535 0.26681 0.0
H301 H 0.42751 0.75834 0.25627 0.0
C302 C 0.49763 0.71763 0.24286 0.0
C303 C 0.53636 0.7008 0.2357 0.0
C304 C 0.49467 0.76218 0.24852 0.0
C305 C 0.57222 0.72908 0.23438 0.0
C306 C 0.56972 0.77329 0.24025 0.0
C307 C 0.52845 0.83456 0.25342 0.0
C308 C 0.48974 0.85144 0.26064 0.0
C309 C 0.53111 0.7902 0.24734 0.0
C310 C 0.45341 0.8234 0.2613 0.0
C311 C 0.45588 0.77923 0.25535 0.0
H312 H 0.53773 0.13852 0.52564 0.0
H313 H 0.56536 0.01673 0.49398 0.0
H314 H 0.50553 0.98112 0.50922 0.0
H315 H 0.44002 0.98672 0.528 0.0
H316 H 0.41033 0.10874 0.55884 0.0
H317 H 0.47693 0.14163 0.5479 0.0
C318 C 0.53102 0.10407 0.52226 0.0
C319 C 0.55555 0.0806 0.50839 0.0
C320 C 0.49615 0.08375 0.53093 0.0
C321 C 0.54674 0.0358 0.5044 0.0
C322 C 0.51248 0.01532 0.51312 0.0
C323 C 0.44854 0.02024 0.53272 0.0
C324 C 0.41988 0.04538 0.54398 0.0
C325 C 0.48618 0.03929 0.52591 0.0
C326 C 0.43167 0.08866 0.55009 0.0
C327 C 0.4696 0.10763 0.5437 0.0
H328 H 0.32844 0.05521 0.74359 0.0
H329 H 0.19481 0.05688 0.75966 0.0
H330 H 0.20194 0.98384 0.77195 0.0
H331 H 0.24447 0.91695 0.77554 0.0
H332 H 0.37691 0.91487 0.75786 0.0
H333 H 0.37202 0.99063 0.74906 0.0
C334 C 0.30093 0.03986 0.74995 0.0
C335 C 0.26106 0.06149 0.75053 0.0
C336 C 0.30503 0.9976 0.75669 0.0
C337 C 0.22585 0.04098 0.7589 0.0
C338 C 0.22988 0.99914 0.76593 0.0
C339 C 0.27247 0.93337 0.77011 0.0
C340 C 0.31097 0.91023 0.76732 0.0
C341 C 0.26908 0.97677 0.76456 0.0
C342 C 0.34684 0.93184 0.76008 0.0
C343 C 0.34405 0.97517 0.75498 0.0
H344 H 0.711 0.54801 0.80348 0.0
H345 H 0.71937 0.45968 0.851 0.0
H346 H 0.79277 0.44049 0.84241 0.0
H347 H 0.85675 0.45402 0.82367 0.0
H348 H 0.8504 0.54522 0.77732 0.0
H349 H 0.77374 0.55744 0.78297 0.0
C350 C 0.72867 0.52416 0.81181 0.0
C351 C 0.70987 0.50567 0.828 0.0
C352 C 0.77126 0.51385 0.80703 0.0
C353 C 0.73321 0.47475 0.8386 0.0
C354 C 0.7752 0.46372 0.83369 0.0
C355 C 0.83847 0.47603 0.81454 0.0
C356 C 0.85936 0.4989 0.80018 0.0
C357 C 0.79488 0.48383 0.81826 0.0
C358 C 0.83514 0.52731 0.78852 0.0
C359 C 0.79135 0.53447 0.79181 0.0
H360 H 0.64756 0.1853 0.06973 0.0
H361 H 0.77457 0.15726 0.09528 0.0
H362 H 0.80577 0.21882 0.07941 0.0
H363 H 0.79639 0.28372 0.06013 0.0
H364 H 0.66982 0.31126 0.03394 0.0
H365 H 0.63946 0.2466 0.04784 0.0
C366 C 0.68207 0.19259 0.07174 0.0
C367 C 0.70853 0.16696 0.08387 0.0
C368 C 0.70005 0.22794 0.06238 0.0
C369 C 0.75334 0.17649 0.08609 0.0
C370 C 0.7713 0.21176 0.07702 0.0
C371 C 0.76232 0.27521 0.05718 0.0
C372 C 0.73546 0.30257 0.04612 0.0
C373 C 0.74489 0.23809 0.06535 0.0
C374 C 0.69135 0.29088 0.04241 0.0
C375 C 0.67382 0.254 0.05047 0.0
H376 H 0.02606 0.24054 0.34089 0.0
H377 H 0.00378 0.11115 0.36059 0.0
H378 H 0.92892 0.11202 0.34728 0.0
H379 H 0.86981 0.14903 0.33 0.0
H380 H 0.89158 0.27794 0.30971 0.0
H381 H 0.9665 0.27771 0.32338 0.0
C382 C 0.00484 0.21253 0.34225 0.0
C383 C 0.0206 0.17586 0.35173 0.0
C384 C 0.96167 0.21314 0.33451 0.0
C385 C 0.99262 0.13982 0.35335 0.0
C386 C 0.94971 0.14026 0.34577 0.0
C387 C 0.89082 0.17721 0.32862 0.0
C388 C 0.87499 0.21346 0.31887 0.0
C389 C 0.93389 0.17673 0.33634 0.0
C390 C 0.90286 0.24956 0.31714 0.0
C391 C 0.94575 0.24946 0.32494 0.0
H392 H 0.00528 0.53727 0.62103 0.0
H393 H 0.05162 0.58713 0.5675 0.0
H394 H 0.04448 0.5141 0.55075 0.0
H395 H 0.02866 0.43488 0.55222 0.0
H396 H 0.97716 0.38773 0.6054 0.0
H397 H 0.98245 0.4608 0.62137 0.0
C398 C 0.01348 0.5321 0.60565 0.0
C399 C 0.02934 0.56708 0.59553 0.0
C400 C 0.00848 0.49051 0.5961 0.0
C401 C 0.03927 0.56044 0.57553 0.0
C402 C 0.0354 0.51874 0.56601 0.0
C403 C 0.01833 0.44083 0.56723 0.0
C404 C 0.00288 0.40596 0.57766 0.0
C405 C 0.02062 0.48333 0.57626 0.0
C406 C 0.98908 0.41406 0.59703 0.0
C407 C 0.99224 0.45581 0.60623 0.0
H408 H 0.79638 0.1256 0.48656 0.0
H409 H 0.72991 0.22926 0.5178 0.0
H410 H 0.79879 0.25719 0.53307 0.0
H411 H 0.87752 0.25282 0.53738 0.0
H412 H 0.94485 0.14913 0.50664 0.0
H413 H 0.87582 0.12059 0.49134 0.0
C414 C 0.79696 0.15425 0.49673 0.0
C415 C 0.75802 0.17533 0.50099 0.0
C416 C 0.83676 0.1702 0.50552 0.0
C417 C 0.75934 0.21236 0.51425 0.0
C418 C 0.79874 0.22843 0.52299 0.0
C419 C 0.87725 0.224 0.52731 0.0
C420 C 0.91636 0.20325 0.52312 0.0
C421 C 0.8376 0.20771 0.51868 0.0
C422 C 0.91523 0.16576 0.51013 0.0
C423 C 0.87578 0.14943 0.50137 0.0
H424 H 0.13716 0.27854 0.75968 0.0
H425 H 0.23943 0.36048 0.74004 0.0
H426 H 0.20258 0.42539 0.75281 0.0
H427 H 0.13925 0.45916 0.7682 0.0
H428 H 0.03691 0.37602 0.78709 0.0
H429 H 0.07589 0.31167 0.77597 0.0
C430 C 0.15171 0.31053 0.75833 0.0
C431 C 0.19103 0.31448 0.74886 0.0
C432 C 0.13011 0.34772 0.76547 0.0
C433 C 0.20919 0.35635 0.74725 0.0
C434 C 0.18806 0.39356 0.7545 0.0
C435 C 0.1256 0.42697 0.76998 0.0
C436 C 0.08499 0.42269 0.77841 0.0
C437 C 0.14816 0.3897 0.76342 0.0
C438 C 0.06792 0.38057 0.78059 0.0
C439 C 0.09022 0.34357 0.77424 0.0
H440 H 0.89848 0.61842 0.96255 0.0
H441 H 0.00678 0.53845 0.97915 0.0
H442 H 0.95777 0.48952 0.99525 0.0
H443 H 0.88399 0.4716 0.00596 0.0
H444 H 0.77722 0.55365 0.98903 0.0
H445 H 0.82583 0.59932 0.97176 0.0
C446 C 0.91153 0.59022 0.96961 0.0
C447 C 0.95634 0.58237 0.96974 0.0
C448 C 0.88335 0.56256 0.97889 0.0
C449 C 0.97243 0.54537 0.97884 0.0
C450 C 0.9444 0.51742 0.9881 0.0
C451 C 0.87137 0.49929 0.99839 0.0
C452 C 0.82692 0.5092 0.99901 0.0
C453 C 0.89977 0.52598 0.98843 0.0
C454 C 0.81121 0.54527 0.98903 0.0
C455 C 0.83902 0.57153 0.97908 0.0
H456 H 0.57353 0.43822 0.25689 0.0
H457 H 0.68111 0.49736 0.2292 0.0
H458 H 0.72947 0.44198 0.24156 0.0
H459 H 0.74062 0.37427 0.25836 0.0
H460 H 0.63405 0.3148 0.28648 0.0
H461 H 0.58615 0.37296 0.27599 0.0
C462 C 0.60761 0.4392 0.2537 0.0
C463 C 0.62345 0.47178 0.24197 0.0
C464 C 0.6355 0.4071 0.26087 0.0
C465 C 0.66786 0.47268 0.23812 0.0
C466 C 0.69564 0.44092 0.24515 0.0
C467 C 0.707 0.37418 0.26234 0.0
C468 C 0.69086 0.34005 0.27304 0.0
C469 C 0.67969 0.4076 0.25625 0.0
C470 C 0.64731 0.34068 0.27824 0.0
C471 C 0.61984 0.37385 0.27217 0.0
H472 H 0.25599 0.09914 0.41951 0.0
H473 H 0.12608 0.14166 0.43011 0.0
H474 H 0.13337 0.11808 0.46406 0.0
H475 H 0.17863 0.08959 0.49142 0.0
H476 H 0.3076 0.04491 0.48016 0.0
H477 H 0.29876 0.0653 0.44585 0.0
C478 C 0.22909 0.10268 0.42918 0.0
C479 C 0.19068 0.12213 0.42236 0.0
C480 C 0.2335 0.08914 0.44864 0.0
C481 C 0.1559 0.12635 0.43497 0.0
C482 C 0.16015 0.11321 0.45444 0.0
C483 C 0.20468 0.08425 0.48141 0.0
C484 C 0.2438 0.06614 0.48834 0.0
C485 C 0.19914 0.09535 0.46155 0.0
C486 C 0.27714 0.05881 0.47517 0.0
C487 C 0.27216 0.07048 0.45555 0.0
H488 H 0.13376 0.67624 0.66417 0.0
H489 H 0.21412 0.77423 0.64008 0.0
H490 H 0.25748 0.78248 0.67154 0.0
H491 H 0.26661 0.76792 0.70683 0.0
H492 H 0.1812 0.67484 0.73149 0.0
H493 H 0.14532 0.65883 0.69881 0.0
C494 C 0.16155 0.69849 0.66562 0.0
C495 C 0.17114 0.72437 0.64987 0.0
C496 C 0.1847 0.7046 0.68396 0.0
C497 C 0.20648 0.75384 0.65205 0.0
C498 C 0.23096 0.75878 0.67004 0.0
C499 C 0.24049 0.74376 0.70502 0.0
C500 C 0.22639 0.72285 0.72158 0.0
C501 C 0.21941 0.73536 0.68628 0.0
C502 C 0.19242 0.69169 0.71901 0.0
C503 C 0.17199 0.68238 0.70032 0.0
H504 H 0.63991 0.55301 0.94103 0.0
H505 H 0.58625 0.65501 0.90624 0.0
H506 H 0.55358 0.68763 0.93555 0.0
H507 H 0.53408 0.68297 0.97008 0.0
H508 H 0.5871 0.58063 0.00484 0.0
H509 H 0.62673 0.55295 0.97652 0.0
C510 C 0.62186 0.5829 0.93991 0.0
C511 C 0.61516 0.60121 0.92138 0.0
C512 C 0.60238 0.60105 0.95673 0.0
C513 C 0.59172 0.64002 0.92027 0.0
C514 C 0.57274 0.65856 0.937 0.0
C515 C 0.55425 0.65457 0.9715 0.0
C516 C 0.55695 0.63352 0.98948 0.0
C517 C 0.57668 0.63853 0.95514 0.0
C518 C 0.58394 0.59722 0.99112 0.0
C519 C 0.60658 0.58126 0.97492 0.0
H520 H 0.61658 0.13773 0.18888 0.0
H521 H 0.50905 0.07374 0.15491 0.0
H522 H 0.48026 0.04875 0.18546 0.0
H523 H 0.49123 0.03677 0.22125 0.0
H524 H 0.60261 0.09528 0.25425 0.0
H525 H 0.62343 0.13205 0.22485 0.0
C526 C 0.58623 0.11927 0.18814 0.0
C527 C 0.5651 0.10751 0.16957 0.0
C528 C 0.57073 0.10372 0.20566 0.0
C529 C 0.52605 0.08316 0.16898 0.0
C530 C 0.50967 0.06867 0.18645 0.0
C531 C 0.51955 0.0583 0.22204 0.0
C532 C 0.54547 0.06339 0.2398 0.0
C533 C 0.53256 0.07747 0.20479 0.0
C534 C 0.58239 0.0908 0.24066 0.0
C535 C 0.59438 0.1116 0.22385 0.0
H536 H 0.14747 0.74962 0.89905 0.0
H537 H 0.12287 0.61143 0.88796 0.0
H538 H 0.14674 0.61574 0.85411 0.0
H539 H 0.17726 0.65839 0.82827 0.0
H540 H 0.2021 0.79652 0.83972 0.0
H541 H 0.17472 0.79264 0.87287 0.0
C542 C 0.14762 0.7203 0.88931 0.0
C543 C 0.13409 0.6801 0.89612 0.0
C544 C 0.16106 0.7231 0.86992 0.0
C545 C 0.13372 0.64264 0.88316 0.0
C546 C 0.14716 0.64514 0.86379 0.0
C547 C 0.17629 0.68777 0.83792 0.0
C548 C 0.19194 0.72768 0.83156 0.0
C549 C 0.16118 0.68517 0.85708 0.0
C550 C 0.19036 0.7654 0.84426 0.0
C551 C 0.17491 0.76317 0.86325 0.0
H552 H 0.51799 0.525 0.15506 0.0
H553 H 0.41263 0.61195 0.16693 0.0
H554 H 0.40031 0.62109 0.13135 0.0
H555 H 0.43039 0.61747 0.09827 0.0
H556 H 0.54209 0.53834 0.08767 0.0
H557 H 0.54063 0.51233 0.12115 0.0
C558 C 0.49124 0.54465 0.14985 0.0
C559 C 0.46649 0.56815 0.16363 0.0
C560 C 0.48614 0.55182 0.12953 0.0
C561 C 0.43223 0.59374 0.1566 0.0
C562 C 0.42546 0.59927 0.13627 0.0
C563 C 0.4534 0.59337 0.1031 0.0
C564 C 0.48651 0.58005 0.09067 0.0
C565 C 0.45384 0.58049 0.12275 0.0
C566 C 0.51651 0.54922 0.0971 0.0
C567 C 0.51581 0.53454 0.11626 0.0
H568 H 0.55103 0.00234 0.41686 0.0
H569 H 0.67507 0.05311 0.40127 0.0
H570 H 0.65515 0.03692 0.36601 0.0
H571 H 0.59916 0.01508 0.33953 0.0
H572 H 0.47481 0.96611 0.35607 0.0
H573 H 0.49813 0.97541 0.39095 0.0
C574 C 0.57403 0.00933 0.40579 0.0
C575 C 0.61429 0.02917 0.41168 0.0
C576 C 0.56198 1.001 0.38564 0.0
C577 C 0.64388 0.03762 0.39715 0.0
C578 C 0.63235 0.02872 0.37696 0.0
C579 C 0.57729 0.00622 0.35077 0.0
C580 C 0.53508 0.9904 0.3451 0.0
C581 C 0.59091 0.01163 0.371 0.0
C582 C 0.50734 0.9787 0.3599 0.0
C583 C 0.52063 0.9839 0.37992 0.0
H584 H 0.21885 0.23647 0.65258 0.0
H585 H 0.31526 0.15261 0.67811 0.0
H586 H 0.32592 0.11807 0.64524 0.0
H587 H 0.29948 0.10412 0.6103 0.0
H588 H 0.19911 0.18455 0.58574 0.0
H589 H 0.19885 0.22845 0.61708 0.0
C590 C 0.24302 0.21138 0.65096 0.0
C591 C 0.26583 0.19682 0.66787 0.0
C592 C 0.24778 0.19058 0.63217 0.0
C593 C 0.29703 0.16429 0.66538 0.0
C594 C 0.30294 0.1443 0.64659 0.0
C595 C 0.27819 0.13179 0.61173 0.0
C596 C 0.24886 0.14077 0.59589 0.0
C597 C 0.27718 0.15595 0.63003 0.0
C598 C 0.22143 0.17665 0.59788 0.0
C599 C 0.22134 0.20177 0.61577 0.0
H600 H 0.61624 0.3941 0.90843 0.0
H601 H 0.53554 0.5072 0.91482 0.0
H602 H 0.54533 0.50696 0.95081 0.0
H603 H 0.58837 0.48339 0.97989 0.0
H604 H 0.67032 0.37138 0.97333 0.0
H605 H 0.64743 0.3617 0.93827 0.0
C606 C 0.59972 0.41787 0.91771 0.0
C607 C 0.57607 0.45112 0.90888 0.0
C608 C 0.60616 0.41815 0.93846 0.0
C609 C 0.55425 0.48131 0.92113 0.0
C610 C 0.56012 0.48149 0.94179 0.0
C611 C 0.60053 0.45639 0.97086 0.0
C612 C 0.63202 0.42905 0.97905 0.0
C613 C 0.58788 0.45149 0.95055 0.0
C614 C 0.64647 0.39333 0.96735 0.0
C615 C 0.63362 0.3879 0.94722 0.0
H616 H 0.66634 0.02449 0.19071 0.0
H617 H 0.74267 0.11116 0.15763 0.0
H618 H 0.7695 0.14973 0.18847 0.0
H619 H 0.7639 0.16469 0.22425 0.0
H620 H 0.68784 0.07813 0.25745 0.0
H621 H 0.66872 0.03346 0.22711 0.0
C622 C 0.68963 0.05116 0.19024 0.0
C623 C 0.70188 0.0653 0.17183 0.0
C624 C 0.70446 0.07371 0.20802 0.0
C625 C 0.7324 0.09971 0.17155 0.0
C626 C 0.74753 0.12206 0.18919 0.0
C627 C 0.74335 0.1359 0.2249 0.0
C628 C 0.72647 0.12543 0.24303 0.0
C629 C 0.73245 0.11039 0.20742 0.0
C630 C 0.7008 0.08736 0.24366 0.0
C631 C 0.68992 0.0617 0.22631 0.0
H632 H 0.1814 0.23538 0.43217 0.0
H633 H 0.09038 0.33855 0.42309 0.0
H634 H 0.07534 0.34146 0.45838 0.0
H635 H 0.07953 0.30671 0.49039 0.0
H636 H 0.16407 0.1976 0.49802 0.0
H637 H 0.19084 0.20546 0.46495 0.0
C638 C 0.15934 0.25951 0.43803 0.0
C639 C 0.13718 0.28696 0.42506 0.0
C640 C 0.14919 0.25936 0.45808 0.0
C641 C 0.10795 0.31728 0.43281 0.0
C642 C 0.09912 0.31869 0.45295 0.0
C643 C 0.10457 0.28536 0.48498 0.0
C644 C 0.11978 0.25162 0.49661 0.0
C645 C 0.11824 0.2887 0.46554 0.0
C646 C 0.15177 0.22375 0.48932 0.0
C647 C 0.16693 0.22809 0.47037 0.0
H648 H 0.94601 0.62901 0.67246 0.0
H649 H 0.0514 0.72364 0.67934 0.0
H650 H 0.06556 0.70505 0.71364 0.0
H651 H 0.05259 0.6571 0.74077 0.0
H652 H 0.94651 0.56337 0.73426 0.0
H653 H 0.92796 0.58666 0.70093 0.0
C654 C 0.97151 0.64617 0.68158 0.0
C655 C 0.99764 0.67751 0.67321 0.0
C656 C 0.97972 0.63518 0.70137 0.0
C657 C 0.03052 0.69952 0.68532 0.0
C658 C 0.03893 0.68867 0.70496 0.0
C659 C 0.02513 0.64208 0.73214 0.0
C660 C 0.00132 0.60818 0.73994 0.0
C661 C 0.01447 0.65577 0.71298 0.0
C662 C 0.96551 0.58943 0.72863 0.0
C663 C 0.95492 0.60266 0.70951 0.0
H664 H 0.61134 0.14599 0.41055 0.0
H665 H 0.6793 0.26721 0.42753 0.0
H666 H 0.69113 0.27861 0.39262 0.0
H667 H 0.69421 0.24707 0.35836 0.0
H668 H 0.63551 0.12072 0.34275 0.0
H669 H 0.60682 0.11885 0.37581 0.0
C670 C 0.62741 0.17568 0.40659 0.0
C671 C 0.64452 0.20575 0.42161 0.0
C672 C 0.63636 0.18063 0.38668 0.0
C673 C 0.66588 0.24365 0.41622 0.0
C674 C 0.67295 0.24996 0.39628 0.0
C675 C 0.67415 0.21972 0.36209 0.0
C676 C 0.66691 0.18408 0.34827 0.0
C677 C 0.66021 0.21762 0.38151 0.0
C678 C 0.64154 0.14842 0.35326 0.0
C679 C 0.62545 0.14721 0.37217 0.0
H680 H 0.14748 0.15271 0.66279 0.0
H681 H 0.05728 0.24313 0.68859 0.0
H682 H 0.02781 0.25823 0.65553 0.0
H683 H 0.03184 0.25076 0.61961 0.0
H684 H 0.12186 0.16113 0.59321 0.0
H685 H 0.14701 0.14042 0.62634 0.0
C686 C 0.12073 0.175 0.66122 0.0
C687 C 0.10466 0.19689 0.67818 0.0
C688 C 0.1044 0.18417 0.6421 0.0
C689 C 0.0703 0.22596 0.67582 0.0
C690 C 0.05357 0.23477 0.65691 0.0
C691 C 0.0569 0.22654 0.62099 0.0
C692 C 0.07555 0.20817 0.6039 0.0
C693 C 0.07116 0.21496 0.63998 0.0
C694 C 0.10746 0.17635 0.6061 0.0
C695 C 0.12173 0.1644 0.62504 0.0
H696 H 0.00295 0.64482 0.91932 0.0
H697 H 0.03226 0.76634 0.89369 0.0
H698 H 0.04099 0.72789 0.86139 0.0
H699 H 0.03886 0.6594 0.84026 0.0
H700 H 0.00981 0.53806 0.86646 0.0
H701 H 0.00353 0.5765 0.89869 0.0
C702 C 0.01147 0.66277 0.90669 0.0
C703 C 0.01755 0.70816 0.90892 0.0
C704 C 0.0167 0.64041 0.88824 0.0
C705 C 0.0277 0.73124 0.89233 0.0
C706 C 0.03279 0.70928 0.87388 0.0
C707 C 0.03161 0.64135 0.85306 0.0
C708 C 0.02464 0.59589 0.85085 0.0
C709 C 0.02733 0.66379 0.87163 0.0
C710 C 0.01513 0.57307 0.86764 0.0
C711 C 0.01134 0.59503 0.88612 0.0
H712 H 0.70134 0.50477 0.15934 0.0
H713 H 0.59809 0.58708 0.13887 0.0
H714 H 0.61693 0.5715 0.10448 0.0
H715 H 0.65985 0.53034 0.08007 0.0
H716 H 0.76408 0.44962 0.1011 0.0
H717 H 0.7476 0.46865 0.13534 0.0
C718 C 0.6832 0.51962 0.14737 0.0
C719 C 0.64826 0.54678 0.15164 0.0
C720 C 0.69409 0.51046 0.12768 0.0
C721 C 0.6253 0.56615 0.13599 0.0
C722 C 0.63584 0.557 0.1163 0.0
C723 C 0.67905 0.51712 0.09216 0.0
C724 C 0.71291 0.48832 0.08799 0.0
C725 C 0.66968 0.52852 0.11194 0.0
C726 C 0.73782 0.47185 0.10384 0.0
C727 C 0.72839 0.48263 0.12347 0.0
loop_
_geom_bond_atom_site_label_1
_geom_bond_atom_site_label_2
_geom_bond_distance
_geom_bond_site_symmetry_2
_ccdc_geom_bond_type
Mg0 O7 2.141 . S
Mg0 O8 2.048 . S
Mg0 O9 2.048 . S
Mg0 O12 2.141 . S
C1 O2 1.313 . S
C1 O8 1.195 . S
O2 C1 1.313 . S
C3 O4 1.245 . S
C3 O12 1.289 . S
O4 C3 1.245 . S
C5 O6 1.245 . S
C5 O7 1.289 . S
O6 C5 1.245 . S
O7 Mg0 2.141 . S
O7 C5 1.289 . S
O8 Mg0 2.048 . S
O8 C1 1.195 . S
O9 Mg0 2.048 . S
O9 C10 1.195 . S
C10 O9 1.195 . S
C10 O11 1.313 . S
O11 C10 1.313 . S
O12 Mg0 2.141 . S
O12 C3 1.289 . S
Mg13 O20 2.141 . S
Mg13 O21 2.048 . S
Mg13 O22 2.048 . S
Mg13 O25 2.141 . S
C14 O15 1.313 . S
C14 O21 1.195 . S
O15 C14 1.313 . S
C16 O17 1.245 . S
C16 O25 1.289 . S
O17 C16 1.245 . S
C18 O19 1.245 . S
C18 O20 1.289 . S
O19 C18 1.245 . S
O20 Mg13 2.141 . S
O20 C18 1.289 . S
O21 Mg13 2.048 . S
O21 C14 1.195 . S
O22 Mg13 2.048 . S
O22 C23 1.195 . S
C23 O22 1.195 . S
C23 O24 1.313 . S
O24 C23 1.313 . S
O25 Mg13 2.141 . S
O25 C16 1.289 . S
Mg26 O33 2.141 . S
Mg26 O34 2.048 . S
Mg26 O35 2.048 . S
Mg26 O38 2.141 . S
C27 O28 1.313 . S
C27 O34 1.195 . S
O28 C27 1.313 . S
C29 O30 1.245 . S
C29 O38 1.289 . S
O30 C29 1.245 . S
C31 O32 1.245 . S
C31 O33 1.289 . S
O32 C31 1.245 . S
O33 Mg26 2.141 . S
O33 C31 1.289 . S
O34 Mg26 2.048 . S
O34 C27 1.195 . S
O35 Mg26 2.048 . S
O35 C36 1.195 . S
C36 O35 1.195 . S
C36 O37 1.313 . S
O37 C36 1.313 . S
O38 Mg26 2.141 . S
O38 C29 1.289 . S
Mg39 O46 2.141 . S
Mg39 O47 2.048 . S
Mg39 O48 2.048 1_545 S
Mg39 O51 2.141 1_545 S
C40 O41 1.313 . S
C40 O47 1.195 . S
O41 C40 1.313 . S
C42 O43 1.245 . S
C42 O51 1.289 . S
O43 C42 1.245 . S
C44 O45 1.245 . S
C44 O46 1.289 . S
O45 C44 1.245 . S
O46 Mg39 2.141 . S
O46 C44 1.289 . S
O47 Mg39 2.048 . S
O47 C40 1.195 . S
O48 Mg39 2.048 1_565 S
O48 C49 1.195 . S
C49 O48 1.195 . S
C49 O50 1.313 . S
O50 C49 1.313 . S
O51 Mg39 2.141 1_565 S
O51 C42 1.289 . S
Mg52 O59 2.141 . S
Mg52 O60 2.048 . S
Mg52 O61 2.048 1_455 S
Mg52 O64 2.141 1_455 S
C53 O54 1.313 . S
C53 O60 1.195 . S
O54 C53 1.313 . S
C55 O56 1.245 . S
C55 O64 1.289 . S
O56 C55 1.245 . S
C57 O58 1.245 . S
C57 O59 1.289 . S
O58 C57 1.245 . S
O59 Mg52 2.141 . S
O59 C57 1.289 . S
O60 Mg52 2.048 . S
O60 C53 1.195 . S
O61 Mg52 2.048 1_655 S
O61 C62 1.195 . S
C62 O61 1.195 . S
C62 O63 1.313 . S
O63 C62 1.313 . S
O64 Mg52 2.141 1_655 S
O64 C55 1.289 . S
Mg65 O72 2.141 . S
Mg65 O73 2.048 . S
Mg65 O74 2.048 . S
Mg65 O77 2.141 . S
C66 O67 1.313 . S
C66 O73 1.195 . S
O67 C66 1.313 . S
C68 O69 1.245 . S
C68 O77 1.289 . S
O69 C68 1.245 . S
C70 O71 1.245 . S
C70 O72 1.289 . S
O71 C70 1.245 . S
O72 Mg65 2.141 . S
O72 C70 1.289 . S
O73 Mg65 2.048 . S
O73 C66 1.195 . S
O74 Mg65 2.048 . S
O74 C75 1.195 . S
C75 O74 1.195 . S
C75 O76 1.313 . S
O76 C75 1.313 . S
O77 Mg65 2.141 . S
O77 C68 1.289 . S
Mg78 O85 2.141 . S
Mg78 O86 2.048 . S
Mg78 O87 2.048 1_545 S
Mg78 O90 2.141 . S
C79 O80 1.313 . S
C79 O86 1.195 . S
O80 C79 1.313 . S
C81 O82 1.245 . S
C81 O90 1.289 . S
O82 C81 1.245 . S
C83 O84 1.245 . S
C83 O85 1.289 . S
O84 C83 1.245 . S
O85 Mg78 2.141 . S
O85 C83 1.289 . S
O86 Mg78 2.048 . S
O86 C79 1.195 . S
O87 Mg78 2.048 1_565 S
O87 C88 1.195 . S
C88 O87 1.195 . S
C88 O89 1.313 1_565 S
O89 C88 1.313 1_545 S
O90 Mg78 2.141 . S
O90 C81 1.289 . S
Mg91 O98 2.141 . S
Mg91 O99 2.048 . S
Mg91 O100 2.048 . S
Mg91 O103 2.141 . S
C92 O93 1.313 . S
C92 O99 1.195 . S
O93 C92 1.313 . S
C94 O95 1.245 . S
C94 O103 1.289 . S
O95 C94 1.245 . S
C96 O97 1.245 . S
C96 O98 1.289 . S
O97 C96 1.245 . S
O98 Mg91 2.141 . S
O98 C96 1.289 . S
O99 Mg91 2.048 . S
O99 C92 1.195 . S
O100 Mg91 2.048 . S
O100 C101 1.195 . S
C101 O100 1.195 . S
C101 O102 1.313 . S
O102 C101 1.313 . S
O103 Mg91 2.141 . S
O103 C94 1.289 . S
O104 Cd105 2.223 . S
O104 C112 1.315 . S
Cd105 O104 2.223 . S
Cd105 O108 2.297 . S
Cd105 O109 2.439 . S
Cd105 O115 2.240 . S
Cd106 O107 2.240 . S
Cd106 O114 2.223 . S
Cd106 O116 2.297 . S
Cd106 O117 2.439 . S
O107 Cd106 2.240 . S
O107 C112 1.279 . S
O108 Cd105 2.297 . S
O108 C110 1.247 . S
O109 Cd105 2.439 . S
O109 C110 1.208 . S
C110 O108 1.247 . S
C110 O109 1.208 . S
C111 O116 1.247 . S
C111 O117 1.208 . S
C112 O104 1.315 . S
C112 O107 1.279 . S
C113 O114 1.315 . S
C113 O115 1.279 . S
O114 Cd106 2.223 . S
O114 C113 1.315 . S
O115 Cd105 2.240 . S
O115 C113 1.279 . S
O116 Cd106 2.297 . S
O116 C111 1.247 . S
O117 Cd106 2.439 . S
O117 C111 1.208 . S
O118 Cd119 2.223 . S
O118 C126 1.315 . S
Cd119 O118 2.223 . S
Cd119 O122 2.297 . S
Cd119 O123 2.439 . S
Cd119 O129 2.240 . S
Cd120 O121 2.240 . S
Cd120 O128 2.223 . S
Cd120 O130 2.297 . S
Cd120 O131 2.439 . S
O121 Cd120 2.240 . S
O121 C126 1.279 . S
O122 Cd119 2.297 . S
O122 C124 1.247 . S
O123 Cd119 2.439 . S
O123 C124 1.208 . S
C124 O122 1.247 . S
C124 O123 1.208 . S
C125 O130 1.247 . S
C125 O131 1.208 . S
C126 O118 1.315 . S
C126 O121 1.279 . S
C127 O128 1.315 . S
C127 O129 1.279 . S
O128 Cd120 2.223 . S
O128 C127 1.315 . S
O129 Cd119 2.240 . S
O129 C127 1.279 . S
O130 Cd120 2.297 . S
O130 C125 1.247 . S
O131 Cd120 2.439 . S
O131 C125 1.208 . S
O132 Cd133 2.223 . S
O132 C140 1.315 . S
Cd133 O132 2.223 . S
Cd133 O136 2.297 . S
Cd133 O137 2.439 1_565 S
Cd133 O143 2.240 . S
Cd134 O135 2.240 . S
Cd134 O142 2.223 1_545 S
Cd134 O144 2.297 . S
Cd134 O145 2.439 . S
O135 Cd134 2.240 . S
O135 C140 1.279 1_545 S
O136 Cd133 2.297 . S
O136 C138 1.247 . S
O137 Cd133 2.439 1_545 S
O137 C138 1.208 1_545 S
C138 O136 1.247 . S
C138 O137 1.208 1_565 S
C139 O144 1.247 . S
C139 O145 1.208 . S
C140 O132 1.315 . S
C140 O135 1.279 1_565 S
C141 O142 1.315 . S
C141 O143 1.279 . S
O142 Cd134 2.223 1_565 S
O142 C141 1.315 . S
O143 Cd133 2.240 . S
O143 C141 1.279 . S
O144 Cd134 2.297 . S
O144 C139 1.247 . S
O145 Cd134 2.439 . S
O145 C139 1.208 . S
O146 Cd147 2.223 . S
O146 C154 1.315 . S
Cd147 O146 2.223 . S
Cd147 O150 2.297 . S
Cd147 O151 2.439 . S
Cd147 O157 2.240 . S
Cd148 O149 2.240 . S
Cd148 O156 2.223 . S
Cd148 O158 2.297 . S
Cd148 O159 2.439 . S
O149 Cd148 2.240 . S
O149 C154 1.279 . S
O150 Cd147 2.297 . S
O150 C152 1.251 . S
O151 Cd147 2.439 . S
O151 C152 1.220 . S
C152 O150 1.251 . S
C152 O151 1.220 . S
C153 O158 1.247 . S
C153 O159 1.208 . S
C154 O146 1.315 . S
C154 O149 1.279 . S
C155 O156 1.315 . S
C155 O157 1.279 . S
O156 Cd148 2.223 . S
O156 C155 1.315 . S
O157 Cd147 2.240 . S
O157 C155 1.279 . S
O158 Cd148 2.297 . S
O158 C153 1.247 . S
O159 Cd148 2.439 . S
O159 C153 1.208 . S
O160 Cd161 2.223 . S
O160 C168 1.298 1_655 S
Cd161 O160 2.223 . S
Cd161 O164 2.297 . S
Cd161 O165 2.439 1_655 S
Cd161 O171 2.240 . S
Cd162 O163 2.240 . S
Cd162 O170 2.223 1_455 S
Cd162 O172 2.297 . S
Cd162 O173 2.439 . S
O163 Cd162 2.240 . S
O163 C168 1.291 . S
O164 Cd161 2.297 . S
O164 C166 1.247 1_655 S
O165 Cd161 2.439 1_455 S
O165 C166 1.208 . S
C166 O164 1.247 1_455 S
C166 O165 1.208 . S
C167 O172 1.247 . S
C167 O173 1.208 . S
C168 O160 1.298 1_455 S
C168 O163 1.291 . S
C169 O170 1.315 . S
C169 O171 1.279 . S
O170 Cd162 2.223 1_655 S
O170 C169 1.315 . S
O171 Cd161 2.240 . S
O171 C169 1.279 . S
O172 Cd162 2.297 . S
O172 C167 1.247 . S
O173 Cd162 2.439 . S
O173 C167 1.208 . S
O174 Cd175 2.223 . S
O174 C182 1.315 . S
Cd175 O174 2.223 . S
Cd175 O178 2.297 . S
Cd175 O179 2.439 . S
Cd175 O185 2.240 . S
Cd176 O177 2.240 . S
Cd176 O184 2.223 . S
Cd176 O186 2.297 . S
Cd176 O187 2.439 . S
O177 Cd176 2.240 . S
O177 C182 1.279 . S
O178 Cd175 2.297 . S
O178 C180 1.247 . S
O179 Cd175 2.439 . S
O179 C180 1.208 . S
C180 O178 1.247 . S
C180 O179 1.208 . S
C181 O186 1.247 . S
C181 O187 1.208 . S
C182 O174 1.315 . S
C182 O177 1.279 . S
C183 O184 1.315 . S
C183 O185 1.279 . S
O184 Cd176 2.223 . S
O184 C183 1.315 . S
O185 Cd175 2.240 . S
O185 C183 1.279 . S
O186 Cd176 2.297 . S
O186 C181 1.247 . S
O187 Cd176 2.439 . S
O187 C181 1.208 . S
O188 Cd189 2.223 . S
O188 C196 1.315 . S
Cd189 O188 2.223 . S
Cd189 O192 2.297 . S
Cd189 O193 2.439 . S
Cd189 O199 2.240 . S
Cd190 O191 2.240 . S
Cd190 O198 2.223 . S
Cd190 O200 2.297 1_554 S
Cd190 O201 2.439 1_554 S
O191 Cd190 2.240 . S
O191 C196 1.279 . S
O192 Cd189 2.297 . S
O192 C194 1.247 . S
O193 Cd189 2.439 . S
O193 C194 1.208 . S
C194 O192 1.247 . S
C194 O193 1.208 . S
C195 O200 1.247 . S
C195 O201 1.208 . S
C196 O188 1.315 . S
C196 O191 1.279 . S
C197 O198 1.315 . S
C197 O199 1.279 . S
O198 Cd190 2.223 . S
O198 C197 1.315 . S
O199 Cd189 2.240 . S
O199 C197 1.279 . S
O200 Cd190 2.297 1_556 S
O200 C195 1.247 . S
O201 Cd190 2.439 1_556 S
O201 C195 1.208 . S
O202 Cd203 2.223 . S
O202 C210 1.315 . S
Cd203 O202 2.223 . S
Cd203 O206 2.297 . S
Cd203 O207 2.439 . S
Cd203 O213 2.240 . S
Cd204 O205 2.240 . S
Cd204 O212 2.223 . S
Cd204 O214 2.297 . S
Cd204 O215 2.439 . S
O205 Cd204 2.240 . S
O205 C210 1.279 . S
O206 Cd203 2.297 . S
O206 C208 1.247 . S
O207 Cd203 2.439 . S
O207 C208 1.208 . S
C208 O206 1.247 . S
C208 O207 1.208 . S
C209 O214 1.247 . S
C209 O215 1.208 . S
C210 O202 1.315 . S
C210 O205 1.279 . S
C211 O212 1.315 . S
C211 O213 1.279 . S
O212 Cd204 2.223 . S
O212 C211 1.315 . S
O213 Cd203 2.240 . S
O213 C211 1.279 . S
O214 Cd204 2.297 . S
O214 C209 1.247 . S
O215 Cd204 2.439 . S
O215 C209 1.208 . S
H216 C222 0.930 . S
H217 C225 0.930 . S
H218 C226 0.930 . S
H219 C227 0.930 . S
H220 C230 0.930 . S
H221 C231 0.930 . S
C222 H216 0.930 . S
C222 C223 1.355 . S
C222 C224 1.415 1_545 S
C223 C222 1.355 . S
C223 C225 1.419 . S
C224 C222 1.415 1_565 S
C224 C229 1.425 . S
C224 C231 1.409 . S
C225 H217 0.930 . S
C225 C223 1.419 . S
C225 C226 1.362 . S
C226 H218 0.930 . S
C226 C225 1.362 . S
C226 C229 1.409 1_545 S
C227 H219 0.930 . S
C227 C228 1.355 . S
C227 C229 1.415 . S
C228 C227 1.355 . S
C228 C230 1.419 . S
C229 C224 1.425 . S
C229 C226 1.409 1_565 S
C229 C227 1.415 . S
C230 H220 0.930 . S
C230 C228 1.419 . S
C230 C231 1.362 . S
C231 H221 0.930 . S
C231 C224 1.409 . S
C231 C230 1.362 . S
H232 C238 0.930 . S
H233 C241 0.930 . S
H234 C242 0.930 . S
H235 C243 0.930 . S
H236 C246 0.930 . S
H237 C247 0.930 . S
C238 H232 0.930 . S
C238 C239 1.355 . S
C238 C240 1.415 . S
C239 C238 1.355 . S
C239 C241 1.419 . S
C240 C238 1.415 . S
C240 C245 1.425 . S
C240 C247 1.409 . S
C241 H233 0.930 . S
C241 C239 1.419 . S
C241 C242 1.362 . S
C242 H234 0.930 . S
C242 C241 1.362 . S
C242 C245 1.409 . S
C243 H235 0.930 . S
C243 C244 1.355 . S
C243 C245 1.415 . S
C244 C243 1.355 . S
C244 C246 1.419 . S
C245 C240 1.425 . S
C245 C242 1.409 . S
C245 C243 1.415 . S
C246 H236 0.930 . S
C246 C244 1.419 . S
C246 C247 1.362 . S
C247 H237 0.930 . S
C247 C240 1.409 . S
C247 C246 1.362 . S
H248 C254 0.930 . S
H249 C257 0.930 . S
H250 C258 0.930 . S
H251 C259 0.930 . S
H252 C262 0.930 . S
H253 C263 0.930 . S
C254 H248 0.930 . S
C254 C255 1.355 . S
C254 C256 1.415 . S
C255 C254 1.355 . S
C255 C257 1.419 . S
C256 C254 1.415 . S
C256 C261 1.425 . S
C256 C263 1.409 . S
C257 H249 0.930 . S
C257 C255 1.419 . S
C257 C258 1.362 . S
C258 H250 0.930 . S
C258 C257 1.362 . S
C258 C261 1.409 . S
C259 H251 0.930 . S
C259 C260 1.355 . S
C259 C261 1.415 . S
C260 C259 1.355 . S
C260 C262 1.419 . S
C261 C256 1.425 . S
C261 C258 1.409 . S
C261 C259 1.415 . S
C262 H252 0.930 . S
C262 C260 1.419 . S
C262 C263 1.362 . S
C263 H253 0.930 . S
C263 C256 1.409 . S
C263 C262 1.362 . S
H264 C270 0.930 . S
H265 C273 0.930 . S
H266 C274 0.930 . S
H267 C275 0.930 . S
H268 C278 0.930 . S
H269 C279 0.930 . S
C270 H264 0.930 . S
C270 C271 1.355 . S
C270 C272 1.415 . S
C271 C270 1.355 . S
C271 C273 1.419 . S
C272 C270 1.415 . S
C272 C277 1.425 . S
C272 C279 1.409 . S
C273 H265 0.930 . S
C273 C271 1.419 . S
C273 C274 1.362 . S
C274 H266 0.930 . S
C274 C273 1.362 . S
C274 C277 1.409 . S
C275 H267 0.930 . S
C275 C276 1.355 . S
C275 C277 1.415 . S
C276 C275 1.355 . S
C276 C278 1.419 . S
C277 C272 1.425 . S
C277 C274 1.409 . S
C277 C275 1.415 . S
C278 H268 0.930 . S
C278 C276 1.419 . S
C278 C279 1.362 . S
C279 H269 0.930 . S
C279 C272 1.409 . S
C279 C278 1.362 . S
H280 C286 0.930 . S
H281 C289 0.930 . S
H282 C290 0.930 . S
H283 C291 0.930 . S
H284 C294 0.930 . S
H285 C295 0.930 . S
C286 H280 0.930 . S
C286 C287 1.355 1_554 S
C286 C288 1.415 . S
C287 C286 1.355 1_556 S
C287 C289 1.419 . S
C288 C286 1.415 . S
C288 C293 1.425 . S
C288 C295 1.409 . S
C289 H281 0.930 . S
C289 C287 1.419 . S
C289 C290 1.362 . S
C290 H282 0.930 . S
C290 C289 1.362 . S
C290 C293 1.409 1_556 S
C291 H283 0.930 . S
C291 C292 1.355 . S
C291 C293 1.415 . S
C292 C291 1.355 . S
C292 C294 1.419 . S
C293 C288 1.425 . S
C293 C290 1.409 1_554 S
C293 C291 1.415 . S
C294 H284 0.930 . S
C294 C292 1.419 . S
C294 C295 1.362 . S
C295 H285 0.930 . S
C295 C288 1.409 . S
C295 C294 1.362 . S
H296 C302 0.930 . S
H297 C305 0.930 . S
H298 C306 0.930 . S
H299 C307 0.930 . S
H300 C310 0.930 . S
H301 C311 0.930 . S
C302 H296 0.930 . S
C302 C303 1.355 . S
C302 C304 1.415 . S
C303 C302 1.355 . S
C303 C305 1.419 . S
C304 C302 1.415 . S
C304 C309 1.425 . S
C304 C311 1.409 . S
C305 H297 0.930 . S
C305 C303 1.419 . S
C305 C306 1.362 . S
C306 H298 0.930 . S
C306 C305 1.362 . S
C306 C309 1.409 . S
C307 H299 0.930 . S
C307 C308 1.355 . S
C307 C309 1.415 . S
C308 C307 1.355 . S
C308 C310 1.419 . S
C309 C304 1.425 . S
C309 C306 1.409 . S
C309 C307 1.415 . S
C310 H300 0.930 . S
C310 C308 1.419 . S
C310 C311 1.362 . S
C311 H301 0.930 . S
C311 C304 1.409 . S
C311 C310 1.362 . S
H312 C318 0.930 . S
H313 C321 0.930 . S
H314 C322 0.930 . S
H315 C323 0.930 . S
H316 C326 0.930 . S
H317 C327 0.930 . S
C318 H312 0.930 . S
C318 C319 1.355 . S
C318 C320 1.415 . S
C319 C318 1.355 . S
C319 C321 1.419 1_545 S
C320 C318 1.415 . S
C320 C325 1.425 1_545 S
C320 C327 1.409 . S
C321 H313 0.930 . S
C321 C319 1.419 1_565 S
C321 C322 1.362 . S
C322 H314 0.930 . S
C322 C321 1.362 . S
C322 C325 1.409 . S
C323 H315 0.930 . S
C323 C324 1.355 1_565 S
C323 C325 1.415 . S
C324 C323 1.355 1_545 S
C324 C326 1.419 . S
C325 C320 1.425 1_565 S
C325 C322 1.409 . S
C325 C323 1.415 . S
C326 H316 0.930 . S
C326 C324 1.419 . S
C326 C327 1.362 . S
C327 H317 0.930 . S
C327 C320 1.409 . S
C327 C326 1.362 . S
H328 C334 0.930 . S
H329 C337 0.930 . S
H330 C338 0.930 . S
H331 C339 0.930 . S
H332 C342 0.930 . S
H333 C343 0.930 . S
C334 H328 0.930 . S
C334 C335 1.355 . S
C334 C336 1.415 . S
C335 C334 1.355 . S
C335 C337 1.419 . S
C336 C334 1.415 . S
C336 C341 1.425 . S
C336 C343 1.409 . S
C337 H329 0.930 . S
C337 C335 1.419 . S
C337 C338 1.362 . S
C338 H330 0.930 . S
C338 C337 1.362 . S
C338 C341 1.409 . S
C339 H331 0.930 . S
C339 C340 1.355 . S
C339 C341 1.415 . S
C340 C339 1.355 . S
C340 C342 1.419 . S
C341 C336 1.425 . S
C341 C338 1.409 . S
C341 C339 1.415 . S
C342 H332 0.930 . S
C342 C340 1.419 . S
C342 C343 1.362 . S
C343 H333 0.930 . S
C343 C336 1.409 . S
C343 C342 1.362 . S
H344 C350 0.930 . S
H345 C353 0.930 . S
H346 C354 0.930 . S
H347 C355 0.930 . S
H348 C358 0.930 . S
H349 C359 0.930 . S
C350 H344 0.930 . S
C350 C351 1.355 . S
C350 C352 1.415 . S
C351 C350 1.355 . S
C351 C353 1.419 . S
C352 C350 1.415 . S
C352 C357 1.425 . S
C352 C359 1.409 . S
C353 H345 0.930 . S
C353 C351 1.419 . S
C353 C354 1.362 . S
C354 H346 0.930 . S
C354 C353 1.362 . S
C354 C357 1.409 . S
C355 H347 0.930 . S
C355 C356 1.355 . S
C355 C357 1.415 . S
C356 C355 1.355 . S
C356 C358 1.419 . S
C357 C352 1.425 . S
C357 C354 1.409 . S
C357 C355 1.415 . S
C358 H348 0.930 . S
C358 C356 1.419 . S
C358 C359 1.362 . S
C359 H349 0.930 . S
C359 C352 1.409 . S
C359 C358 1.362 . S
H360 C366 0.930 . S
H361 C369 0.930 . S
H362 C370 0.930 . S
H363 C371 0.930 . S
H364 C374 0.930 . S
H365 C375 0.930 . S
C366 H360 0.930 . S
C366 C367 1.355 . S
C366 C368 1.415 . S
C367 C366 1.355 . S
C367 C369 1.419 . S
C368 C366 1.415 . S
C368 C373 1.425 . S
C368 C375 1.409 . S
C369 H361 0.930 . S
C369 C367 1.419 . S
C369 C370 1.362 . S
C370 H362 0.930 . S
C370 C369 1.362 . S
C370 C373 1.409 . S
C371 H363 0.930 . S
C371 C372 1.355 . S
C371 C373 1.415 . S
C372 C371 1.355 . S
C372 C374 1.419 . S
C373 C368 1.425 . S
C373 C370 1.409 . S
C373 C371 1.415 . S
C374 H364 0.930 . S
C374 C372 1.419 . S
C374 C375 1.362 . S
C375 H365 0.930 . S
C375 C368 1.409 . S
C375 C374 1.362 . S
H376 C382 0.930 . S
H377 C385 0.930 . S
H378 C386 0.930 . S
H379 C387 0.930 . S
H380 C390 0.930 . S
H381 C391 0.931 . S
C382 H376 0.930 . S
C382 C383 1.355 . S
C382 C384 1.415 . S
C383 C382 1.355 . S
C383 C385 1.419 . S
C384 C382 1.415 . S
C384 C389 1.425 . S
C384 C391 1.409 . S
C385 H377 0.930 . S
C385 C383 1.419 . S
C385 C386 1.362 . S
C386 H378 0.930 . S
C386 C385 1.362 . S
C386 C389 1.409 . S
C387 H379 0.930 . S
C387 C388 1.355 1_455 S
C387 C389 1.415 . S
C388 C387 1.355 1_655 S
C388 C390 1.419 . S
C389 C384 1.425 . S
C389 C386 1.409 . S
C389 C387 1.415 . S
C390 H380 0.930 . S
C390 C388 1.419 . S
C390 C391 1.362 1_655 S
C391 H381 0.931 . S
C391 C384 1.409 . S
C391 C390 1.362 1_455 S
H392 C398 0.930 . S
H393 C401 0.930 . S
H394 C402 0.930 . S
H395 C403 0.930 . S
H396 C406 0.930 . S
H397 C407 0.930 . S
C398 H392 0.930 . S
C398 C399 1.355 . S
C398 C400 1.415 . S
C399 C398 1.355 . S
C399 C401 1.419 . S
C400 C398 1.415 . S
C400 C405 1.425 . S
C400 C407 1.409 . S
C401 H393 0.930 . S
C401 C399 1.419 . S
C401 C402 1.362 . S
C402 H394 0.930 . S
C402 C401 1.362 . S
C402 C405 1.409 . S
C403 H395 0.930 . S
C403 C404 1.355 . S
C403 C405 1.415 . S
C404 C403 1.355 . S
C404 C406 1.419 . S
C405 C400 1.425 . S
C405 C402 1.409 . S
C405 C403 1.415 . S
C406 H396 0.930 . S
C406 C404 1.419 . S
C406 C407 1.362 . S
C407 H397 0.930 . S
C407 C400 1.409 . S
C407 C406 1.362 . S
H408 C414 0.930 . S
H409 C417 0.930 . S
H410 C418 0.930 . S
H411 C419 0.930 . S
H412 C422 0.930 . S
H413 C423 0.930 . S
C414 H408 0.930 . S
C414 C415 1.355 . S
C414 C416 1.415 . S
C415 C414 1.355 . S
C415 C417 1.419 . S
C416 C414 1.415 . S
C416 C421 1.425 . S
C416 C423 1.409 . S
C417 H409 0.930 . S
C417 C415 1.419 . S
C417 C418 1.362 . S
C418 H410 0.930 . S
C418 C417 1.362 . S
C418 C421 1.409 . S
C419 H411 0.930 . S
C419 C420 1.355 . S
C419 C421 1.415 . S
C420 C419 1.355 . S
C420 C422 1.419 . S
C421 C416 1.425 . S
C421 C418 1.409 . S
C421 C419 1.415 . S
C422 H412 0.930 . S
C422 C420 1.419 . S
C422 C423 1.362 . S
C423 H413 0.930 . S
C423 C416 1.409 . S
C423 C422 1.362 . S
H424 C430 0.930 . S
H425 C433 0.930 . S
H426 C434 0.930 . S
H427 C435 0.930 . S
H428 C438 0.930 . S
H429 C439 0.930 . S
C430 H424 0.930 . S
C430 C431 1.355 . S
C430 C432 1.415 1_455 S
C431 C430 1.355 . S
C431 C433 1.419 . S
C432 C430 1.415 1_655 S
C432 C437 1.425 1_655 S
C432 C439 1.409 . S
C433 H425 0.930 . S
C433 C431 1.419 . S
C433 C434 1.362 . S
C434 H426 0.930 . S
C434 C433 1.362 . S
C434 C437 1.409 . S
C435 H427 0.930 . S
C435 C436 1.355 . S
C435 C437 1.415 1_655 S
C436 C435 1.355 . S
C436 C438 1.419 . S
C437 C432 1.425 1_455 S
C437 C434 1.409 . S
C437 C435 1.415 1_455 S
C438 H428 0.930 . S
C438 C436 1.419 . S
C438 C439 1.362 . S
C439 H429 0.930 . S
C439 C432 1.409 . S
C439 C438 1.362 . S
H440 C446 0.928 . S
H441 C449 0.930 . S
H442 C450 0.930 . S
H443 C451 0.930 . S
H444 C454 0.930 . S
H445 C455 0.930 . S
C446 H440 0.928 . S
C446 C447 1.357 1_554 S
C446 C448 1.414 . S
C447 C446 1.357 1_556 S
C447 C449 1.419 . S
C448 C446 1.414 . S
C448 C453 1.425 1_554 S
C448 C455 1.409 . S
C449 H441 0.930 . S
C449 C447 1.419 . S
C449 C450 1.362 . S
C450 H442 0.930 . S
C450 C449 1.362 . S
C450 C453 1.409 . S
C451 H443 0.930 . S
C451 C452 1.355 1_556 S
C451 C453 1.415 . S
C452 C451 1.355 1_554 S
C452 C454 1.419 . S
C453 C448 1.425 1_556 S
C453 C450 1.409 . S
C453 C451 1.415 . S
C454 H444 0.930 . S
C454 C452 1.419 . S
C454 C455 1.362 . S
C455 H445 0.930 . S
C455 C448 1.409 . S
C455 C454 1.362 . S
H456 C462 0.930 . S
H457 C465 0.930 . S
H458 C466 0.930 . S
H459 C467 0.930 . S
H460 C470 0.930 . S
H461 C471 0.930 . S
C462 H456 0.930 . S
C462 C463 1.355 . S
C462 C464 1.415 . S
C463 C462 1.355 . S
C463 C465 1.419 . S
C464 C462 1.415 . S
C464 C469 1.425 . S
C464 C471 1.409 . S
C465 H457 0.930 . S
C465 C463 1.419 . S
C465 C466 1.362 . S
C466 H458 0.930 . S
C466 C465 1.362 . S
C466 C469 1.409 . S
C467 H459 0.930 . S
C467 C468 1.355 . S
C467 C469 1.415 . S
C468 C467 1.355 . S
C468 C470 1.419 . S
C469 C464 1.425 . S
C469 C466 1.409 . S
C469 C467 1.415 . S
C470 H460 0.930 . S
C470 C468 1.419 . S
C470 C471 1.362 . S
C471 H461 0.930 . S
C471 C464 1.409 . S
C471 C470 1.362 . S
H472 C478 0.930 . S
H473 C481 0.930 . S
H474 C482 0.930 . S
H475 C483 0.930 . S
H476 C486 0.930 . S
H477 C487 0.930 . S
C478 H472 0.930 . S
C478 C479 1.355 . S
C478 C480 1.415 . S
C479 C478 1.355 . S
C479 C481 1.419 . S
C480 C478 1.415 . S
C480 C485 1.425 . S
C480 C487 1.409 1_545 S
C481 H473 0.930 . S
C481 C479 1.419 . S
C481 C482 1.362 . S
C482 H474 0.930 . S
C482 C481 1.362 . S
C482 C485 1.409 . S
C483 H475 0.930 . S
C483 C484 1.355 . S
C483 C485 1.415 . S
C484 C483 1.355 . S
C484 C486 1.419 1_545 S
C485 C480 1.425 . S
C485 C482 1.409 . S
C485 C483 1.415 . S
C486 H476 0.930 . S
C486 C484 1.419 1_565 S
C486 C487 1.362 . S
C487 H477 0.930 . S
C487 C480 1.409 1_565 S
C487 C486 1.362 . S
H488 C494 0.930 . S
H489 C497 0.930 . S
H490 C498 0.930 . S
H491 C499 0.930 . S
H492 C502 0.930 . S
H493 C503 0.930 . S
C494 H488 0.930 . S
C494 C495 1.355 . S
C494 C496 1.415 . S
C495 C494 1.355 . S
C495 C497 1.419 . S
C496 C494 1.415 . S
C496 C501 1.425 . S
C496 C503 1.409 . S
C497 H489 0.930 . S
C497 C495 1.419 . S
C497 C498 1.362 . S
C498 H490 0.930 . S
C498 C497 1.362 . S
C498 C501 1.409 . S
C499 H491 0.930 . S
C499 C500 1.355 . S
C499 C501 1.415 . S
C500 C499 1.355 . S
C500 C502 1.419 . S
C501 C496 1.425 . S
C501 C498 1.409 . S
C501 C499 1.415 . S
C502 H492 0.930 . S
C502 C500 1.419 . S
C502 C503 1.362 . S
C503 H493 0.930 . S
C503 C496 1.409 . S
C503 C502 1.362 . S
H504 C510 0.930 . S
H505 C513 0.930 . S
H506 C514 0.930 . S
H507 C515 0.930 . S
H508 C518 0.930 1_554 S
H509 C519 0.930 . S
C510 H504 0.930 . S
C510 C511 1.355 . S
C510 C512 1.415 . S
C511 C510 1.355 . S
C511 C513 1.419 . S
C512 C510 1.415 . S
C512 C517 1.425 . S
C512 C519 1.409 . S
C513 H505 0.930 . S
C513 C511 1.419 . S
C513 C514 1.362 . S
C514 H506 0.930 . S
C514 C513 1.362 . S
C514 C517 1.409 . S
C515 H507 0.930 . S
C515 C516 1.355 . S
C515 C517 1.415 . S
C516 C515 1.355 . S
C516 C518 1.419 . S
C517 C512 1.425 . S
C517 C514 1.409 . S
C517 C515 1.415 . S
C518 H508 0.930 1_556 S
C518 C516 1.419 . S
C518 C519 1.362 . S
C519 H509 0.930 . S
C519 C512 1.409 . S
C519 C518 1.362 . S
H520 C526 0.930 . S
H521 C529 0.930 . S
H522 C530 0.930 . S
H523 C531 0.930 . S
H524 C534 0.930 . S
H525 C535 0.930 . S
C526 H520 0.930 . S
C526 C527 1.355 . S
C526 C528 1.415 . S
C527 C526 1.355 . S
C527 C529 1.419 . S
C528 C526 1.415 . S
C528 C533 1.425 . S
C528 C535 1.409 . S
C529 H521 0.930 . S
C529 C527 1.419 . S
C529 C530 1.362 . S
C530 H522 0.930 . S
C530 C529 1.362 . S
C530 C533 1.409 . S
C531 H523 0.930 . S
C531 C532 1.355 . S
C531 C533 1.415 . S
C532 C531 1.355 . S
C532 C534 1.419 . S
C533 C528 1.425 . S
C533 C530 1.409 . S
C533 C531 1.415 . S
C534 H524 0.930 . S
C534 C532 1.419 . S
C534 C535 1.362 . S
C535 H525 0.930 . S
C535 C528 1.409 . S
C535 C534 1.362 . S
H536 C542 0.930 . S
H537 C545 0.930 . S
H538 C546 0.930 . S
H539 C547 0.930 . S
H540 C550 0.930 . S
H541 C551 0.930 . S
C542 H536 0.930 . S
C542 C543 1.355 . S
C542 C544 1.415 . S
C543 C542 1.355 . S
C543 C545 1.419 . S
C544 C542 1.415 . S
C544 C549 1.425 . S
C544 C551 1.409 . S
C545 H537 0.930 . S
C545 C543 1.419 . S
C545 C546 1.362 . S
C546 H538 0.930 . S
C546 C545 1.362 . S
C546 C549 1.409 . S
C547 H539 0.930 . S
C547 C548 1.355 . S
C547 C549 1.415 . S
C548 C547 1.355 . S
C548 C550 1.419 . S
C549 C544 1.425 . S
C549 C546 1.409 . S
C549 C547 1.415 . S
C550 H540 0.930 . S
C550 C548 1.419 . S
C550 C551 1.362 . S
C551 H541 0.930 . S
C551 C544 1.409 . S
C551 C550 1.362 . S
H552 C558 0.930 . S
H553 C561 0.930 . S
H554 C562 0.930 . S
H555 C563 0.930 . S
H556 C566 0.930 . S
H557 C567 0.930 . S
C558 H552 0.930 . S
C558 C559 1.355 . S
C558 C560 1.415 . S
C559 C558 1.355 . S
C559 C561 1.419 . S
C560 C558 1.415 . S
C560 C565 1.425 . S
C560 C567 1.409 . S
C561 H553 0.930 . S
C561 C559 1.419 . S
C561 C562 1.362 . S
C562 H554 0.930 . S
C562 C561 1.362 . S
C562 C565 1.409 . S
C563 H555 0.930 . S
C563 C564 1.355 . S
C563 C565 1.415 . S
C564 C563 1.355 . S
C564 C566 1.419 . S
C565 C560 1.425 . S
C565 C562 1.409 . S
C565 C563 1.415 . S
C566 H556 0.930 . S
C566 C564 1.419 . S
C566 C567 1.362 . S
C567 H557 0.930 . S
C567 C560 1.409 . S
C567 C566 1.362 . S
H568 C574 0.930 . S
H569 C577 0.930 . S
H570 C578 0.930 . S
H571 C579 0.930 . S
H572 C582 0.930 . S
H573 C583 0.930 . S
C574 H568 0.930 . S
C574 C575 1.355 . S
C574 C576 1.415 . S
C575 C574 1.355 . S
C575 C577 1.419 . S
C576 C574 1.415 . S
C576 C581 1.425 . S
C576 C583 1.409 . S
C577 H569 0.930 . S
C577 C575 1.419 . S
C577 C578 1.362 . S
C578 H570 0.930 . S
C578 C577 1.362 . S
C578 C581 1.409 . S
C579 H571 0.930 . S
C579 C580 1.355 . S
C579 C581 1.415 . S
C580 C579 1.355 . S
C580 C582 1.419 . S
C581 C576 1.425 . S
C581 C578 1.409 . S
C581 C579 1.415 . S
C582 H572 0.930 . S
C582 C580 1.419 . S
C582 C583 1.362 . S
C583 H573 0.930 . S
C583 C576 1.409 . S
C583 C582 1.362 . S
H584 C590 0.930 . S
H585 C593 0.930 . S
H586 C594 0.930 . S
H587 C595 0.930 . S
H588 C598 0.930 . S
H589 C599 0.930 . S
C590 H584 0.930 . S
C590 C591 1.355 . S
C590 C592 1.415 . S
C591 C590 1.355 . S
C591 C593 1.419 . S
C592 C590 1.415 . S
C592 C597 1.425 . S
C592 C599 1.409 . S
C593 H585 0.930 . S
C593 C591 1.419 . S
C593 C594 1.362 . S
C594 H586 0.930 . S
C594 C593 1.362 . S
C594 C597 1.409 . S
C595 H587 0.930 . S
C595 C596 1.355 . S
C595 C597 1.415 . S
C596 C595 1.355 . S
C596 C598 1.419 . S
C597 C592 1.425 . S
C597 C594 1.409 . S
C597 C595 1.415 . S
C598 H588 0.930 . S
C598 C596 1.419 . S
C598 C599 1.362 . S
C599 H589 0.930 . S
C599 C592 1.409 . S
C599 C598 1.362 . S
H600 C606 0.930 . S
H601 C609 0.930 . S
H602 C610 0.930 . S
H603 C611 0.930 . S
H604 C614 0.930 . S
H605 C615 0.930 . S
C606 H600 0.930 . S
C606 C607 1.355 . S
C606 C608 1.415 . S
C607 C606 1.355 . S
C607 C609 1.419 . S
C608 C606 1.415 . S
C608 C613 1.425 . S
C608 C615 1.409 . S
C609 H601 0.930 . S
C609 C607 1.419 . S
C609 C610 1.362 . S
C610 H602 0.930 . S
C610 C609 1.362 . S
C610 C613 1.409 . S
C611 H603 0.930 . S
C611 C612 1.355 . S
C611 C613 1.415 . S
C612 C611 1.355 . S
C612 C614 1.419 . S
C613 C608 1.425 . S
C613 C610 1.409 . S
C613 C611 1.415 . S
C614 H604 0.930 . S
C614 C612 1.419 . S
C614 C615 1.362 . S
C615 H605 0.930 . S
C615 C608 1.409 . S
C615 C614 1.362 . S
H616 C622 0.930 . S
H617 C625 0.930 . S
H618 C626 0.930 . S
H619 C627 0.930 . S
H620 C630 0.930 . S
H621 C631 0.930 . S
C622 H616 0.930 . S
C622 C623 1.355 . S
C622 C624 1.415 . S
C623 C622 1.355 . S
C623 C625 1.419 . S
C624 C622 1.415 . S
C624 C629 1.425 . S
C624 C631 1.409 . S
C625 H617 0.930 . S
C625 C623 1.419 . S
C625 C626 1.362 . S
C626 H618 0.930 . S
C626 C625 1.362 . S
C626 C629 1.409 . S
C627 H619 0.930 . S
C627 C628 1.355 . S
C627 C629 1.415 . S
C628 C627 1.355 . S
C628 C630 1.419 . S
C629 C624 1.425 . S
C629 C626 1.409 . S
C629 C627 1.415 . S
C630 H620 0.930 . S
C630 C628 1.419 . S
C630 C631 1.362 . S
C631 H621 0.930 . S
C631 C624 1.409 . S
C631 C630 1.362 . S
H632 C638 0.930 . S
H633 C641 0.930 . S
H634 C642 0.930 . S
H635 C643 0.930 . S
H636 C646 0.930 . S
H637 C647 0.930 . S
C638 H632 0.930 . S
C638 C639 1.355 . S
C638 C640 1.415 . S
C639 C638 1.355 . S
C639 C641 1.419 . S
C640 C638 1.415 . S
C640 C645 1.425 . S
C640 C647 1.409 . S
C641 H633 0.930 . S
C641 C639 1.419 . S
C641 C642 1.362 . S
C642 H634 0.930 . S
C642 C641 1.362 . S
C642 C645 1.409 . S
C643 H635 0.930 . S
C643 C644 1.355 . S
C643 C645 1.415 . S
C644 C643 1.355 . S
C644 C646 1.419 . S
C645 C640 1.425 . S
C645 C642 1.409 . S
C645 C643 1.415 . S
C646 H636 0.930 . S
C646 C644 1.419 . S
C646 C647 1.362 . S
C647 H637 0.930 . S
C647 C640 1.409 . S
C647 C646 1.362 . S
H648 C654 0.930 . S
H649 C657 0.930 . S
H650 C658 0.930 1_455 S
H651 C659 0.930 . S
H652 C662 0.930 . S
H653 C663 0.930 . S
C654 H648 0.930 . S
C654 C655 1.355 . S
C654 C656 1.415 . S
C655 C654 1.355 . S
C655 C657 1.419 1_655 S
C656 C654 1.415 . S
C656 C661 1.425 . S
C656 C663 1.409 . S
C657 H649 0.930 . S
C657 C655 1.419 1_455 S
C657 C658 1.362 1_455 S
C658 H650 0.930 1_655 S
C658 C657 1.362 1_655 S
C658 C661 1.409 . S
C659 H651 0.930 . S
C659 C660 1.355 . S
C659 C661 1.415 . S
C660 C659 1.355 . S
C660 C662 1.419 . S
C661 C656 1.425 . S
C661 C658 1.409 . S
C661 C659 1.415 . S
C662 H652 0.930 . S
C662 C660 1.419 . S
C662 C663 1.362 . S
C663 H653 0.930 . S
C663 C656 1.409 . S
C663 C662 1.362 . S
H664 C670 0.930 . S
H665 C673 0.930 . S
H666 C674 0.930 . S
H667 C675 0.930 . S
H668 C678 0.930 . S
H669 C679 0.930 . S
C670 H664 0.930 . S
C670 C671 1.355 . S
C670 C672 1.415 . S
C671 C670 1.355 . S
C671 C673 1.419 . S
C672 C670 1.415 . S
C672 C677 1.425 . S
C672 C679 1.409 . S
C673 H665 0.930 . S
C673 C671 1.419 . S
C673 C674 1.362 . S
C674 H666 0.930 . S
C674 C673 1.362 . S
C674 C677 1.409 . S
C675 H667 0.930 . S
C675 C676 1.355 . S
C675 C677 1.415 . S
C676 C675 1.355 . S
C676 C678 1.419 . S
C677 C672 1.425 . S
C677 C674 1.409 . S
C677 C675 1.415 . S
C678 H668 0.930 . S
C678 C676 1.419 . S
C678 C679 1.362 . S
C679 H669 0.930 . S
C679 C672 1.409 . S
C679 C678 1.362 . S
H680 C686 0.930 . S
H681 C689 0.930 . S
H682 C690 0.930 . S
H683 C691 0.930 1_655 S
H684 C694 0.930 . S
H685 C695 0.930 . S
C686 H680 0.930 . S
C686 C687 1.355 . S
C686 C688 1.415 . S
C687 C686 1.355 . S
C687 C689 1.419 . S
C688 C686 1.415 . S
C688 C693 1.425 . S
C688 C695 1.409 . S
C689 H681 0.930 . S
C689 C687 1.419 . S
C689 C690 1.362 . S
C690 H682 0.930 . S
C690 C689 1.362 . S
C690 C693 1.409 . S
C691 H683 0.930 1_455 S
C691 C692 1.355 . S
C691 C693 1.415 . S
C692 C691 1.355 . S
C692 C694 1.419 . S
C693 C688 1.425 . S
C693 C690 1.409 . S
C693 C691 1.415 . S
C694 H684 0.930 . S
C694 C692 1.419 . S
C694 C695 1.362 . S
C695 H685 0.930 . S
C695 C688 1.409 . S
C695 C694 1.362 . S
H696 C702 0.930 . S
H697 C705 0.930 . S
H698 C706 0.930 . S
H699 C707 0.930 . S
H700 C710 0.930 . S
H701 C711 0.930 . S
C702 H696 0.930 . S
C702 C703 1.355 . S
C702 C704 1.415 . S
C703 C702 1.355 . S
C703 C705 1.419 . S
C704 C702 1.415 . S
C704 C709 1.425 . S
C704 C711 1.409 . S
C705 H697 0.930 . S
C705 C703 1.419 . S
C705 C706 1.362 . S
C706 H698 0.930 . S
C706 C705 1.362 . S
C706 C709 1.409 . S
C707 H699 0.930 . S
C707 C708 1.355 . S
C707 C709 1.415 . S
C708 C707 1.355 . S
C708 C710 1.419 . S
C709 C704 1.425 . S
C709 C706 1.409 . S
C709 C707 1.415 . S
C710 H700 0.930 . S
C710 C708 1.419 . S
C710 C711 1.362 . S
C711 H701 0.930 . S
C711 C704 1.409 . S
C711 C710 1.362 . S
H712 C718 0.930 . S
H713 C721 0.930 . S
H714 C722 0.930 . S
H715 C723 0.930 . S
H716 C726 0.930 . S
H717 C727 0.930 . S
C718 H712 0.930 . S
C718 C719 1.355 . S
C718 C720 1.415 . S
C719 C718 1.355 . S
C719 C721 1.419 . S
C720 C718 1.415 . S
C720 C725 1.425 . S
C720 C727 1.409 . S
C721 H713 0.930 . S
C721 C719 1.419 . S
C721 C722 1.362 . S
C722 H714 0.930 . S
C722 C721 1.362 . S
C722 C725 1.409 . S
C723 H715 0.930 . S
C723 C724 1.355 . S
C723 C725 1.415 . S
C724 C723 1.355 . S
C724 C726 1.419 . S
C725 C720 1.425 . S
C725 C722 1.409 . S
C725 C723 1.415 . S
C726 H716 0.930 . S
C726 C724 1.419 . S
C726 C727 1.362 . S
C727 H717 0.930 . S
C727 C720 1.409 . S
C727 C726 1.362 . S
C228 C124 1.333 . S
C223 C5 1.362 . S
C244 C141 1.486 . S
C239 C18 1.486 . S
C260 C155 1.542 . S
C255 C31 1.595 . S
C271 C42 1.467 . S
C276 C113 1.352 . S
C287 C57 1.200 . S
C292 C110 1.223 . S
C303 C70 1.127 . S
C308 C127 1.115 . S
C324 C138 1.445 1_545 S
C319 C81 1.473 . S
C340 C152 1.278 1_545 S
C335 C96 1.292 . S
C351 C29 1.223 . S
C356 C180 1.300 . S
C372 C194 1.450 . S
C367 C44 1.530 . S
C383 C3 1.138 . S
C388 C211 1.042 . S
C404 C166 1.142 . S
C399 C16 1.181 . S
C415 C83 1.380 . S
C420 C169 1.339 . S
C431 C94 1.631 . S
C436 C183 1.612 . S
C452 C197 1.435 . S
C447 C55 1.511 . S
C463 C68 1.342 . S
C468 C208 1.365 . S
C484 C140 1.717 1_545 S
C479 C1 1.693 . S
C500 C154 1.857 . S
C495 C14 1.793 . S
C511 C27 1.745 . S
C516 C112 1.804 1_556 S
C527 C49 1.708 . S
C532 C125 1.564 . S
C543 C53 1.430 . S
C548 C153 1.358 . S
C564 C111 1.193 . S
C559 C66 1.368 . S
C580 C126 1.569 . S
C575 C88 1.613 . S
C596 C139 1.405 . S
C591 C92 1.537 . S
C612 C195 1.366 . S
C607 C36 1.531 . S
C628 C210 1.620 . S
C623 C40 1.642 . S
C639 C10 1.401 . S
C644 C167 1.231 . S
C660 C181 1.357 . S
C655 C23 1.417 1_655 S
C676 C209 1.573 . S
C671 C79 1.585 . S
C687 C101 1.827 . S
C692 C168 1.809 . S
C708 C182 1.836 . S
C703 C62 1.855 . S
C724 C196 1.712 . S
C719 C75 1.740 . S
