# Generated by pormake.
# Topology apo, (3,6)-cn, num edge types: 1
# Building blocks:
#     Node 0, Type 0, BuildingBlock: OLANEW_clean_sbu_2, # of connection points: 3
#     Node 1, Type 0, BuildingBlock: OLANEW_clean_sbu_2, # of connection points: 3
#     Node 2, Type 0, BuildingBlock: OLANEW_clean_sbu_2, # of connection points: 3
#     Node 3, Type 0, BuildingBlock: OLANEW_clean_sbu_2, # of connection points: 3
#     Node 4, Type 0, BuildingBlock: OLANEW_clean_sbu_2, # of connection points: 3
#     Node 5, Type 0, BuildingBlock: OLANEW_clean_sbu_2, # of connection points: 3
#     Node 6, Type 0, BuildingBlock: OLANEW_clean_sbu_2, # of connection points: 3
#     Node 7, Type 0, BuildingBlock: OLANEW_clean_sbu_2, # of connection points: 3
#     Node 8, Type 1, BuildingBlock: KUMBOL_clean_sbu_1, # of connection points: 6
#     Node 9, Type 1, BuildingBlock: KUMBOL_clean_sbu_1, # of connection points: 6
#     Node 10, Type 1, BuildingBlock: KUMBOL_clean_sbu_1, # of connection points: 6
#     Node 11, Type 1, BuildingBlock: KUMBOL_clean_sbu_1, # of connection points: 6
#     Edge 12, Type (0, 1), BuildingBlock: XUDNAN_clean_linker_2, # of connection points: 2
#     Edge 13, Type (0, 1), BuildingBlock: XUDNAN_clean_linker_2, # of connection points: 2
#     Edge 14, Type (0, 1), BuildingBlock: XUDNAN_clean_linker_2, # of connection points: 2
#     Edge 15, Type (0, 1), BuildingBlock: XUDNAN_clean_linker_2, # of connection points: 2
#     Edge 16, Type (0, 1), BuildingBlock: XUDNAN_clean_linker_2, # of connection points: 2
#     Edge 17, Type (0, 1), BuildingBlock: XUDNAN_clean_linker_2, # of connection points: 2
#     Edge 18, Type (0, 1), BuildingBlock: XUDNAN_clean_linker_2, # of connection points: 2
#     Edge 19, Type (0, 1), BuildingBlock: XUDNAN_clean_linker_2, # of connection points: 2
#     Edge 20, Type (0, 1), BuildingBlock: XUDNAN_clean_linker_2, # of connection points: 2
#     Edge 21, Type (0, 1), BuildingBlock: XUDNAN_clean_linker_2, # of connection points: 2
#     Edge 22, Type (0, 1), BuildingBlock: XUDNAN_clean_linker_2, # of connection points: 2
#     Edge 23, Type (0, 1), BuildingBlock: XUDNAN_clean_linker_2, # of connection points: 2
#     Edge 24, Type (0, 1), BuildingBlock: XUDNAN_clean_linker_2, # of connection points: 2
#     Edge 25, Type (0, 1), BuildingBlock: XUDNAN_clean_linker_2, # of connection points: 2
#     Edge 26, Type (0, 1), BuildingBlock: XUDNAN_clean_linker_2, # of connection points: 2
#     Edge 27, Type (0, 1), BuildingBlock: XUDNAN_clean_linker_2, # of connection points: 2
#     Edge 28, Type (0, 1), BuildingBlock: XUDNAN_clean_linker_2, # of connection points: 2
#     Edge 29, Type (0, 1), BuildingBlock: XUDNAN_clean_linker_2, # of connection points: 2
#     Edge 30, Type (0, 1), BuildingBlock: XUDNAN_clean_linker_2, # of connection points: 2
#     Edge 31, Type (0, 1), BuildingBlock: XUDNAN_clean_linker_2, # of connection points: 2
#     Edge 32, Type (0, 1), BuildingBlock: XUDNAN_clean_linker_2, # of connection points: 2
#     Edge 33, Type (0, 1), BuildingBlock: XUDNAN_clean_linker_2, # of connection points: 2
#     Edge 34, Type (0, 1), BuildingBlock: XUDNAN_clean_linker_2, # of connection points: 2
#     Edge 35, Type (0, 1), BuildingBlock: XUDNAN_clean_linker_2, # of connection points: 2
# Relax obj value: 0.030
# Max RMSD: 0.224
# Mean RMSD: 0.134
data_MOF--net-apo--node1-OLANEW_clean_sbu_2--node2-KUMBOL_clean_sbu_1--edge1-XUDNAN_clean_linker_2
_symmetry_space_group_name_H-M    P1
_symmetry_Int_Tables_number       1
_symmetry_cell_setting            triclinic
loop_
_symmetry_equiv_pos_as_xyz
'x, y, z'
_cell_length_a     28.791283
_cell_length_b     44.676294
_cell_length_c     55.979117
_cell_angle_alpha  88.71334
_cell_angle_beta   89.980301
_cell_angle_gamma 90.157603
loop_
_atom_site_label
_atom_site_type_symbol
_atom_site_fract_x
_atom_site_fract_y
_atom_site_fract_z
_atom_type_partial_charge
O0 O 0.32564 0.39597 0.35636 0.0
Cd1 Cd 0.30277 0.34902 0.37674 0.0
O2 O 0.306 0.42213 0.38768 0.0
Cd3 Cd 0.29773 0.38498 0.41342 0.0
O4 O 0.30926 0.36997 0.45043 0.0
C5 C 0.35102 0.36849 0.45774 0.0
O6 O 0.38476 0.37381 0.4424 0.0
C7 C 0.31989 0.42111 0.36615 0.0
C8 C 0.23984 0.31513 0.35031 0.0
O9 O 0.2257 0.33585 0.36399 0.0
O10 O 0.28369 0.31056 0.34898 0.0
O11 O 0.21809 0.18982 0.96028 0.0
Cd12 Cd 0.20954 0.2184 0.92248 0.0
O13 O 0.20387 0.15131 0.93811 0.0
Cd14 Cd 0.18586 0.10567 0.92789 0.0
O15 O 0.17178 0.06452 0.90872 0.0
C16 C 0.1398 0.06444 0.89306 0.0
O17 O 0.11532 0.08888 0.88934 0.0
C18 C 0.21091 0.16183 0.95875 0.0
C19 C 0.28828 0.2361 0.89649 0.0
O20 O 0.26801 0.25426 0.91049 0.0
O21 O 0.2726 0.20926 0.89557 0.0
O22 O 0.8555 0.12408 0.64449 0.0
Cd23 Cd 0.82075 0.16185 0.61759 0.0
O24 O 0.882 0.09462 0.61647 0.0
Cd25 Cd 0.86652 0.12335 0.5853 0.0
O26 O 0.87018 0.13675 0.54742 0.0
C27 C 0.87508 0.11577 0.53265 0.0
O28 O 0.87646 0.088 0.54086 0.0
C29 C 0.87551 0.10001 0.63844 0.0
C30 C 0.779 0.20917 0.64174 0.0
O31 O 0.75846 0.18385 0.63991 0.0
O32 O 0.81943 0.21218 0.63239 0.0
O33 O 0.73424 0.35384 0.05998 0.0
Cd34 Cd 0.76635 0.3599 0.10012 0.0
O35 O 0.68981 0.39384 0.06133 0.0
Cd36 Cd 0.70257 0.40561 0.09842 0.0
O37 O 0.68968 0.43346 0.12935 0.0
C38 C 0.71729 0.45454 0.13465 0.0
O39 O 0.75559 0.45832 0.12217 0.0
C40 C 0.7058 0.37184 0.04991 0.0
C41 C 0.81211 0.30867 0.11723 0.0
O42 O 0.77203 0.31556 0.12535 0.0
O43 O 0.83043 0.32573 0.10112 0.0
O44 O 0.71627 0.60501 0.63633 0.0
Cd45 Cd 0.76494 0.63729 0.61062 0.0
O46 O 0.74322 0.56358 0.62093 0.0
Cd47 Cd 0.76695 0.5861 0.58801 0.0
O48 O 0.74372 0.58809 0.55074 0.0
C49 C 0.76546 0.5981 0.53245 0.0
O50 O 0.80716 0.60961 0.53498 0.0
C51 C 0.71919 0.57659 0.63666 0.0
C52 C 0.79712 0.68828 0.63384 0.0
O53 O 0.75928 0.68874 0.62178 0.0
O54 O 0.81974 0.66363 0.63512 0.0
O55 O 0.82321 0.89537 0.14242 0.0
Cd56 Cd 0.77919 0.86089 0.11741 0.0
O57 O 0.81982 0.93279 0.11616 0.0
Cd58 Cd 0.78412 0.90973 0.08752 0.0
O59 O 0.77069 0.90993 0.04915 0.0
C60 C 0.77135 0.88683 0.03633 0.0
O61 O 0.77821 0.86044 0.04653 0.0
C62 C 0.83271 0.92235 0.13639 0.0
C63 C 0.7159 0.82471 0.14296 0.0
O64 O 0.75787 0.81616 0.13981 0.0
O65 O 0.70413 0.85039 0.13429 0.0
O66 O 0.21583 0.91475 0.36414 0.0
Cd67 Cd 0.24257 0.87022 0.38635 0.0
O68 O 0.21486 0.9415 0.39671 0.0
Cd69 Cd 0.22328 0.9054 0.42323 0.0
O70 O 0.2086 0.8884 0.45938 0.0
C71 C 0.16671 0.88973 0.46649 0.0
O72 O 0.1348 0.89962 0.45152 0.0
C73 C 0.21074 0.9398 0.37417 0.0
C74 C 0.2935 0.83245 0.35714 0.0
O75 O 0.25105 0.82651 0.36232 0.0
O76 O 0.31183 0.85599 0.36581 0.0
O77 O 0.29344 0.59312 0.85307 0.0
Cd78 Cd 0.24277 0.61978 0.88044 0.0
O79 O 0.3355 0.57132 0.88131 0.0
Cd80 Cd 0.30402 0.59435 0.91123 0.0
O81 O 0.29513 0.60817 0.94815 0.0
C82 C 0.32744 0.62338 0.95753 0.0
O83 O 0.36338 0.63131 0.94434 0.0
C84 C 0.32569 0.57516 0.85931 0.0
C85 C 0.20353 0.67176 0.86044 0.0
O86 O 0.23924 0.67303 0.87406 0.0
O87 O 0.18665 0.64593 0.85595 0.0
C88 C 0.9034 0.0831 0.23995 0.0
C89 C 0.91053 0.03421 0.25941 0.0
C90 C 0.92646 0.06376 0.25554 0.0
C91 C 0.87193 0.02398 0.24658 0.0
C92 C 0.86353 0.07326 0.22774 0.0
C93 C 0.84859 0.04343 0.23071 0.0
N94 N 0.91865 0.11188 0.23763 0.0
C95 C 0.89223 0.13265 0.2257 0.0
C96 C 0.83904 0.09395 0.21352 0.0
C97 C 0.8529 0.12393 0.21292 0.0
Gd98 Gd 0.09372 0.12383 0.21015 0.0
Gd99 Gd 0.98781 0.12342 0.25821 0.0
N100 N 0.96473 0.074 0.26699 0.0
C101 C 0.93401 0.01586 0.27602 0.0
C102 C 0.98661 0.05673 0.28395 0.0
C103 C 0.97192 0.02729 0.28853 0.0
H104 H 0.01576 0.06564 0.29368 0.0
H105 H 0.98988 0.01342 0.30164 0.0
H106 H 0.05364 0.17362 0.16836 0.0
H107 H 0.90057 0.15609 0.22643 0.0
H108 H 0.07036 0.22506 0.15461 0.0
H109 H 0.92289 0.99298 0.27948 0.0
H110 H 0.85956 0.00119 0.249 0.0
H111 H 0.18448 0.10161 0.24272 0.0
H112 H 0.80832 0.08729 0.20378 0.0
H113 H 0.83283 0.14045 0.20298 0.0
H114 H 0.21233 0.2495 0.1944 0.0
H115 H 0.81836 0.03539 0.22125 0.0
H116 H 0.2838 0.17301 0.24312 0.0
H117 H 0.26014 0.12176 0.25563 0.0
N118 N 0.1646 0.14168 0.22431 0.0
C119 C 0.17737 0.16957 0.21663 0.0
C120 C 0.19397 0.12428 0.23772 0.0
C121 C 0.2503 0.16443 0.23767 0.0
C122 C 0.23703 0.13551 0.24483 0.0
C123 C 0.2204 0.18187 0.22339 0.0
H124 H 0.26519 0.22086 0.22068 0.0
N125 N 0.10762 0.17228 0.19421 0.0
C126 C 0.14755 0.18558 0.20162 0.0
C127 C 0.13098 0.22924 0.17682 0.0
C128 C 0.16017 0.21449 0.19319 0.0
C129 C 0.08144 0.18556 0.17666 0.0
C130 C 0.09186 0.21448 0.16821 0.0
O131 O 0.01166 0.08187 0.23951 0.0
O132 O 0.02732 0.09932 0.20197 0.0
O133 O 0.12837 0.12292 0.17575 0.0
O134 O 0.1287 0.08349 0.19886 0.0
O135 O 0.0593 0.11285 0.27264 0.0
O136 O 0.09934 0.09064 0.24145 0.0
O137 O 0.10107 0.15141 0.24347 0.0
O138 O 0.02628 0.16651 0.24978 0.0
O139 O 0.99175 0.12915 0.29677 0.0
O140 O 0.93069 0.14331 0.27738 0.0
O141 O 0.02245 0.13764 0.19647 0.0
O142 O 0.98438 0.15873 0.22846 0.0
C143 C 0.01057 0.07856 0.21639 0.0
C144 C 0.09112 0.0945 0.26444 0.0
C145 C 0.12522 0.07656 0.15683 0.0
C146 C 0.13093 0.06816 0.11389 0.0
C147 C 0.08167 0.03616 0.13898 0.0
C148 C 0.09405 0.05238 0.15904 0.0
C149 C 0.09997 0.0439 0.11656 0.0
C150 C 0.14342 0.08435 0.13421 0.0
C151 C 0.13803 0.09457 0.17763 0.0
C152 C 0.20223 0.22728 0.20061 0.0
C153 C 0.23242 0.21093 0.21552 0.0
H154 H 0.13941 0.25146 0.16994 0.0
C155 C 0.0712 0.17033 0.25236 0.0
C156 C 0.99123 0.15594 0.20531 0.0
C157 C 0.91933 0.12269 0.31607 0.0
C158 C 0.89516 0.1139 0.35751 0.0
C159 C 0.85924 0.08604 0.32553 0.0
C160 C 0.88686 0.10122 0.30877 0.0
C161 C 0.86326 0.09229 0.34972 0.0
C162 C 0.92328 0.12905 0.34048 0.0
C163 C 0.94906 0.13838 0.29831 0.0
H164 H 0.05757 0.01761 0.1408 0.0
H165 H 0.07907 0.04609 0.17618 0.0
H166 H 0.08925 0.03123 0.10123 0.0
H167 H 0.16747 0.103 0.13246 0.0
H168 H 0.83431 0.06955 0.31971 0.0
H169 H 0.88246 0.09632 0.29011 0.0
H170 H 0.84068 0.08058 0.3623 0.0
H171 H 0.94837 0.14555 0.34618 0.0
C172 C 0.68285 0.36937 0.76151 0.0
C173 C 0.71525 0.41938 0.75838 0.0
C174 C 0.67753 0.39998 0.7631 0.0
C175 C 0.75766 0.40749 0.75063 0.0
C176 C 0.72599 0.35714 0.75505 0.0
C177 C 0.76302 0.3764 0.74895 0.0
N178 N 0.64667 0.35149 0.76793 0.0
C179 C 0.65197 0.32123 0.77003 0.0
C180 C 0.73103 0.32596 0.75582 0.0
C181 C 0.69413 0.30798 0.76384 0.0
Gd182 Gd 0.46784 0.36823 0.72727 0.0
Gd183 Gd 0.57599 0.37518 0.77555 0.0
N184 N 0.63622 0.41059 0.7708 0.0
C185 C 0.70962 0.45 0.76233 0.0
C186 C 0.63135 0.44017 0.77607 0.0
C187 C 0.66765 0.46038 0.77151 0.0
H188 H 0.59856 0.44835 0.78265 0.0
H189 H 0.66318 0.48393 0.77497 0.0
H190 H 0.52013 0.31428 0.69447 0.0
H191 H 0.62328 0.30734 0.77609 0.0
H192 H 0.52163 0.25948 0.6933 0.0
H193 H 0.73776 0.46566 0.75891 0.0
H194 H 0.7869 0.42206 0.74658 0.0
H195 H 0.37071 0.3858 0.75554 0.0
H196 H 0.76364 0.31563 0.75103 0.0
H197 H 0.69812 0.28395 0.76531 0.0
H198 H 0.40128 0.22813 0.7475 0.0
H199 H 0.79632 0.36747 0.74366 0.0
H200 H 0.30376 0.30447 0.77903 0.0
H201 H 0.30565 0.35985 0.77651 0.0
N202 N 0.40466 0.3454 0.74669 0.0
C203 C 0.40349 0.31504 0.74711 0.0
C204 C 0.36964 0.3616 0.7565 0.0
C205 C 0.33221 0.31574 0.76988 0.0
C206 C 0.33305 0.34701 0.76841 0.0
C207 C 0.36759 0.29934 0.75912 0.0
H208 H 0.34089 0.25544 0.76913 0.0
N209 N 0.47102 0.31574 0.72298 0.0
C210 C 0.43809 0.29975 0.73524 0.0
C211 C 0.46884 0.25356 0.72023 0.0
C212 C 0.43681 0.2682 0.73464 0.0
C213 C 0.49877 0.30167 0.70693 0.0
C214 C 0.49897 0.27044 0.70577 0.0
O215 O 0.57593 0.41106 0.74662 0.0
O216 O 0.51923 0.40458 0.71688 0.0
O217 O 0.44036 0.35955 0.69163 0.0
O218 O 0.41395 0.39688 0.71212 0.0
O219 O 0.52187 0.41202 0.77779 0.0
O220 O 0.46119 0.40894 0.74961 0.0
O221 O 0.46322 0.35899 0.76727 0.0
O222 O 0.53096 0.33458 0.77273 0.0
O223 O 0.54071 0.37753 0.80972 0.0
O224 O 0.61359 0.36608 0.80855 0.0
O225 O 0.54071 0.35938 0.71412 0.0
O226 O 0.56615 0.33884 0.74899 0.0
C227 C 0.55519 0.4184 0.72637 0.0
C228 C 0.48302 0.42165 0.7675 0.0
C229 C 0.3793 0.38998 0.67307 0.0
C230 C 0.35661 0.38844 0.63097 0.0
C231 C 0.31128 0.41714 0.65914 0.0
C232 C 0.34138 0.40869 0.67757 0.0
C233 C 0.31889 0.4073 0.63599 0.0
C234 C 0.38647 0.37963 0.64981 0.0
C235 C 0.4117 0.3819 0.69255 0.0
C236 C 0.40236 0.25238 0.7475 0.0
C237 C 0.36783 0.26792 0.75972 0.0
H238 H 0.46885 0.22938 0.71914 0.0
C239 C 0.48718 0.33776 0.77798 0.0
C240 C 0.57293 0.34516 0.72636 0.0
C241 C 0.58796 0.39332 0.84144 0.0
C242 C 0.61294 0.40168 0.88247 0.0
C243 C 0.59455 0.4439 0.85588 0.0
C244 C 0.58381 0.42432 0.83763 0.0
C245 C 0.60912 0.43276 0.87812 0.0
C246 C 0.60232 0.38207 0.86385 0.0
C247 C 0.57838 0.37254 0.82206 0.0
H248 H 0.28226 0.43171 0.66274 0.0
H249 H 0.33501 0.41686 0.69535 0.0
H250 H 0.29576 0.4151 0.62195 0.0
H251 H 0.4155 0.36496 0.64637 0.0
H252 H 0.59188 0.46783 0.85275 0.0
H253 H 0.57238 0.43337 0.82057 0.0
H254 H 0.618 0.44855 0.8918 0.0
H255 H 0.60476 0.35806 0.86678 0.0
C256 C 0.8457 0.84593 0.75001 0.0
C257 C 0.849 0.79205 0.75618 0.0
C258 C 0.86793 0.82079 0.75968 0.0
C259 C 0.80893 0.78888 0.74214 0.0
C260 C 0.80508 0.84286 0.73622 0.0
C261 C 0.787 0.8142 0.73223 0.0
N262 N 0.86486 0.87337 0.7534 0.0
C263 C 0.84488 0.89867 0.74404 0.0
C264 C 0.78439 0.86871 0.72645 0.0
C265 C 0.80433 0.89672 0.73042 0.0
Gd266 Gd 0.0514 0.87416 0.73599 0.0
Gd267 Gd 0.93318 0.87454 0.77587 0.0
N268 N 0.90725 0.82449 0.77292 0.0
C269 C 0.8703 0.76736 0.76731 0.0
C270 C 0.92525 0.80073 0.78559 0.0
C271 C 0.90802 0.7718 0.78244 0.0
H272 H 0.95185 0.80373 0.79882 0.0
H273 H 0.92325 0.75301 0.79211 0.0
H274 H 0.0425 0.93662 0.70038 0.0
H275 H 0.86054 0.9203 0.74702 0.0
H276 H 0.07311 0.98806 0.6993 0.0
H277 H 0.85679 0.74493 0.76509 0.0
H278 H 0.79431 0.76693 0.73905 0.0
H279 H 0.12569 0.83333 0.769 0.0
H280 H 0.75321 0.86726 0.7157 0.0
H281 H 0.78861 0.91679 0.7229 0.0
H282 H 0.19366 0.98651 0.75834 0.0
H283 H 0.75608 0.81136 0.72148 0.0
H284 H 0.2302 0.89205 0.79595 0.0
H285 H 0.19577 0.84136 0.79363 0.0
N286 N 0.11971 0.87908 0.75845 0.0
C287 C 0.13936 0.90681 0.75848 0.0
C288 C 0.14018 0.85553 0.77026 0.0
C289 C 0.19944 0.88863 0.78519 0.0
C290 C 0.18005 0.85999 0.78399 0.0
C291 C 0.17937 0.91243 0.77219 0.0
H292 H 0.22849 0.94632 0.7831 0.0
N293 N 0.08137 0.92315 0.73112 0.0
C294 C 0.11905 0.92959 0.7448 0.0
C295 C 0.12102 0.98003 0.72828 0.0
C296 C 0.13927 0.95841 0.74409 0.0
C297 C 0.06729 0.94308 0.71374 0.0
C298 C 0.08564 0.97208 0.7126 0.0
O299 O 0.93065 0.86599 0.73621 0.0
O300 O 0.99642 0.83907 0.72976 0.0
O301 O 0.06622 0.87471 0.69738 0.0
O302 O 0.10576 0.84623 0.72225 0.0
O303 O 0.99478 0.8485 0.79008 0.0
O304 O 0.03118 0.83182 0.75627 0.0
O305 O 0.05585 0.88805 0.77465 0.0
O306 O 0.98611 0.91066 0.78322 0.0
O307 O 0.91969 0.86703 0.81364 0.0
O308 O 0.87824 0.89896 0.79366 0.0
O309 O 0.9922 0.90523 0.72394 0.0
O310 O 0.95221 0.91864 0.75826 0.0
C311 C 0.95275 0.84481 0.72519 0.0
C312 C 0.02387 0.83049 0.77942 0.0
C313 C 0.12808 0.84339 0.68075 0.0
C314 C 0.14836 0.84092 0.6384 0.0
C315 C 0.18952 0.81022 0.66788 0.0
C316 C 0.16262 0.82207 0.68605 0.0
C317 C 0.18243 0.81943 0.64423 0.0
C318 C 0.12117 0.85282 0.65687 0.0
C319 C 0.09942 0.85517 0.7003 0.0
C320 C 0.17808 0.9644 0.75844 0.0
C321 C 0.19808 0.94147 0.77245 0.0
H322 H 0.13555 0.00242 0.72719 0.0
C323 C 0.03134 0.90817 0.78577 0.0
C324 C 0.96729 0.92438 0.73636 0.0
C325 C 0.84275 0.87339 0.8263 0.0
C326 C 0.79604 0.86975 0.86257 0.0
C327 C 0.77597 0.84016 0.82816 0.0
C328 C 0.81357 0.85243 0.81554 0.0
C329 C 0.76735 0.84858 0.85163 0.0
C330 C 0.83365 0.88217 0.84971 0.0
C331 C 0.88433 0.88504 0.81404 0.0
H332 H 0.21579 0.79366 0.67214 0.0
H333 H 0.16878 0.81437 0.70425 0.0
H334 H 0.20323 0.80934 0.63047 0.0
H335 H 0.09499 0.86952 0.65271 0.0
H336 H 0.75367 0.82391 0.81979 0.0
H337 H 0.82005 0.84533 0.79757 0.0
H338 H 0.73813 0.83875 0.86118 0.0
H339 H 0.85661 0.89805 0.85816 0.0
C340 C 0.59892 0.70014 0.28356 0.0
C341 C 0.55711 0.73646 0.30658 0.0
C342 C 0.56071 0.70768 0.29694 0.0
C343 C 0.59104 0.75816 0.30093 0.0
C344 C 0.63506 0.72096 0.2795 0.0
C345 C 0.63009 0.75039 0.28744 0.0
N346 N 0.60287 0.67142 0.27666 0.0
C347 C 0.64368 0.66118 0.26754 0.0
C348 C 0.67606 0.71107 0.26883 0.0
C349 C 0.68069 0.6809 0.26323 0.0
Gd350 Gd 0.44726 0.62285 0.22874 0.0
Gd351 Gd 0.53897 0.63971 0.28369 0.0
N352 N 0.52974 0.68581 0.30268 0.0
C353 C 0.5211 0.74194 0.3227 0.0
C354 C 0.4972 0.6902 0.32 0.0
C355 C 0.49174 0.71847 0.32989 0.0
H356 H 0.47472 0.67201 0.32579 0.0
H357 H 0.465 0.72213 0.34307 0.0
H358 H 0.46389 0.55548 0.20791 0.0
H359 H 0.64715 0.63789 0.26318 0.0
H360 H 0.4281 0.50498 0.21087 0.0
H361 H 0.51702 0.76374 0.3305 0.0
H362 H 0.58856 0.78055 0.30787 0.0
H363 H 0.36155 0.6712 0.24614 0.0
H364 H 0.70493 0.72626 0.2657 0.0
H365 H 0.71272 0.67281 0.25561 0.0
H366 H 0.29467 0.51894 0.26106 0.0
H367 H 0.65713 0.76689 0.28417 0.0
H368 H 0.25602 0.61945 0.28126 0.0
H369 H 0.28937 0.6686 0.2693 0.0
N370 N 0.37381 0.62406 0.24795 0.0
C371 C 0.35366 0.5969 0.25235 0.0
C372 C 0.34952 0.64959 0.25249 0.0
C373 C 0.28881 0.62045 0.27176 0.0
C374 C 0.30761 0.64822 0.26512 0.0
C375 C 0.31095 0.59432 0.26462 0.0
H376 H 0.25833 0.56348 0.27809 0.0
N377 N 0.41429 0.57513 0.23068 0.0
C378 C 0.37406 0.57174 0.24297 0.0
C379 C 0.37241 0.51921 0.2337 0.0
C380 C 0.35248 0.54349 0.24532 0.0
C381 C 0.43319 0.5519 0.21869 0.0
C382 C 0.41283 0.52348 0.22021 0.0
O383 O 0.55877 0.65617 0.24629 0.0
O384 O 0.48878 0.66591 0.22735 0.0
O385 O 0.46582 0.6196 0.1913 0.0
O386 O 0.39507 0.62917 0.20108 0.0
O387 O 0.46299 0.65256 0.28411 0.0
O388 O 0.44328 0.66792 0.24639 0.0
O389 O 0.46844 0.58766 0.25648 0.0
O390 O 0.46996 0.61703 0.28882 0.0
O391 O 0.56636 0.63783 0.31977 0.0
O392 O 0.56535 0.59783 0.29883 0.0
O393 O 0.51628 0.60004 0.22421 0.0
O394 O 0.56765 0.60817 0.25623 0.0
C395 C 0.53339 0.67112 0.23057 0.0
C396 C 0.44588 0.67284 0.26939 0.0
C397 C 0.42243 0.65017 0.16491 0.0
C398 C 0.39972 0.66579 0.12458 0.0
C399 C 0.43928 0.70064 0.1505 0.0
C400 C 0.44101 0.67873 0.16865 0.0
C401 C 0.41891 0.69424 0.12854 0.0
C402 C 0.40163 0.64383 0.14296 0.0
C403 C 0.42458 0.62676 0.18368 0.0
C404 C 0.31136 0.54056 0.25865 0.0
C405 C 0.29076 0.56592 0.2684 0.0
H406 H 0.35636 0.49727 0.2346 0.0
C407 C 0.46087 0.59121 0.27929 0.0
C408 C 0.55592 0.59606 0.23573 0.0
C409 C 0.62469 0.60255 0.32805 0.0
C410 C 0.67499 0.59458 0.36276 0.0
C411 C 0.70635 0.59152 0.3225 0.0
C412 C 0.66255 0.5977 0.31286 0.0
C413 C 0.71266 0.58997 0.34728 0.0
C414 C 0.63113 0.60106 0.35287 0.0
C415 C 0.57827 0.6099 0.31872 0.0
H416 H 0.45377 0.72263 0.15346 0.0
H417 H 0.45685 0.68402 0.18554 0.0
H418 H 0.4177 0.71162 0.11475 0.0
H419 H 0.38766 0.62163 0.14008 0.0
H420 H 0.7355 0.58777 0.31073 0.0
H421 H 0.6583 0.5987 0.29365 0.0
H422 H 0.74678 0.58465 0.35428 0.0
H423 H 0.60185 0.60533 0.36449 0.0
H424 H 0.18563 0.94451 0.32659 0.0
H425 H 0.20959 0.99715 0.38978 0.0
H426 H 0.18755 0.04283 0.3673 0.0
H427 H 0.22722 0.00076 0.28273 0.0
H428 H 0.18298 0.99208 0.26116 0.0
H429 H 0.20371 0.96337 0.28161 0.0
H430 H 0.11939 0.95333 0.29608 0.0
H431 H 0.09851 0.98192 0.27564 0.0
H432 H 0.08532 0.98394 0.30702 0.0
H433 H 0.15734 0.08203 0.3396 0.0
H434 H 0.12087 0.1128 0.30763 0.0
H435 H 0.11795 0.03592 0.2617 0.0
C436 C 0.18685 0.9657 0.33559 0.0
C437 C 0.19947 0.96719 0.35997 0.0
C438 C 0.20003 0.99535 0.37115 0.0
C439 C 0.18772 0.0215 0.35852 0.0
C440 C 0.17503 0.01923 0.33466 0.0
C441 C 0.17452 0.99214 0.32322 0.0
C442 C 0.15717 0.99592 0.29774 0.0
C443 C 0.19504 0.98753 0.27975 0.0
C444 C 0.11245 0.9777 0.29391 0.0
C445 C 0.14757 0.02927 0.29683 0.0
C446 C 0.15822 0.04222 0.31835 0.0
C447 C 0.14948 0.07229 0.32254 0.0
C448 C 0.12871 0.08954 0.30435 0.0
C449 C 0.1173 0.07673 0.28223 0.0
C450 C 0.1275 0.04635 0.27828 0.0
H451 H 0.39298 0.53245 0.86676 0.0
H452 H 0.31345 0.5775 0.81075 0.0
H453 H 0.35012 0.54551 0.7808 0.0
H454 H 0.49945 0.52147 0.83146 0.0
H455 H 0.51026 0.48508 0.84481 0.0
H456 H 0.48101 0.51325 0.8617 0.0
H457 H 0.41221 0.47671 0.86931 0.0
H458 H 0.44141 0.44854 0.85247 0.0
H459 H 0.38352 0.46005 0.84423 0.0
H460 H 0.38946 0.50591 0.75757 0.0
H461 H 0.43047 0.46191 0.7423 0.0
H462 H 0.48597 0.443 0.81311 0.0
C463 C 0.38378 0.53596 0.84816 0.0
C464 C 0.35034 0.55758 0.84112 0.0
C465 C 0.339 0.56118 0.8166 0.0
C466 C 0.35971 0.54314 0.79944 0.0
C467 C 0.39192 0.52175 0.80704 0.0
C468 C 0.40417 0.51818 0.83078 0.0
C469 C 0.43798 0.4925 0.83435 0.0
C470 C 0.48497 0.50377 0.84363 0.0
C471 C 0.41754 0.46801 0.85107 0.0
C472 C 0.44203 0.48178 0.80897 0.0
C473 C 0.41531 0.49908 0.7935 0.0
C474 C 0.41102 0.49247 0.76943 0.0
C475 C 0.43432 0.46737 0.76096 0.0
C476 C 0.46174 0.44923 0.77649 0.0
C477 C 0.46609 0.45684 0.80073 0.0
H478 H 0.73763 0.52021 0.65457 0.0
H479 H 0.63605 0.59169 0.65623 0.0
H480 H 0.58327 0.55901 0.67996 0.0
H481 H 0.66041 0.46004 0.6488 0.0
H482 H 0.69122 0.43452 0.66847 0.0
H483 H 0.72232 0.4638 0.65262 0.0
H484 H 0.7546 0.48356 0.6926 0.0
H485 H 0.72436 0.45378 0.70832 0.0
H486 H 0.71478 0.49215 0.71633 0.0
H487 H 0.53796 0.51665 0.69894 0.0
H488 H 0.50784 0.4697 0.71771 0.0
H489 H 0.64151 0.42755 0.70761 0.0
C490 C 0.70458 0.5291 0.66029 0.0
C491 C 0.6908 0.55843 0.65356 0.0
C492 C 0.64738 0.56936 0.66136 0.0
C493 C 0.61709 0.55092 0.67472 0.0
C494 C 0.63124 0.52187 0.68058 0.0
C495 C 0.67442 0.51125 0.67416 0.0
C496 C 0.68122 0.4792 0.68293 0.0
C497 C 0.68926 0.45816 0.66195 0.0
C498 C 0.7211 0.47707 0.70114 0.0
C499 C 0.63468 0.47325 0.69473 0.0
C500 C 0.60613 0.49805 0.6929 0.0
C501 C 0.56024 0.49728 0.70088 0.0
C502 C 0.54333 0.47059 0.71131 0.0
C503 C 0.57252 0.44539 0.71397 0.0
C504 C 0.61877 0.44674 0.70576 0.0
H505 H 0.85391 0.98186 0.12985 0.0
H506 H 0.87484 0.90629 0.1788 0.0
H507 H 0.92472 0.93783 0.20396 0.0
H508 H 0.96836 0.01159 0.13275 0.0
H509 H 0.95057 0.05024 0.13188 0.0
H510 H 0.9153 0.02231 0.11783 0.0
H511 H 0.84416 0.03789 0.14287 0.0
H512 H 0.87862 0.0662 0.15696 0.0
H513 H 0.84864 0.03836 0.17497 0.0
H514 H 0.97374 0.97728 0.22321 0.0
H515 H 0.01442 0.02275 0.23654 0.0
H516 H 0.961 0.07246 0.17514 0.0
C517 C 0.86878 0.97189 0.1459 0.0
C518 C 0.86051 0.94151 0.15231 0.0
C519 C 0.88059 0.92947 0.17353 0.0
C520 C 0.90908 0.94719 0.18789 0.0
C521 C 0.917 0.97689 0.18082 0.0
C522 C 0.89712 0.98923 0.16045 0.0
C523 C 0.91084 0.02181 0.15692 0.0
C524 C 0.93787 0.02677 0.13345 0.0
C525 C 0.86802 0.04227 0.158 0.0
C526 C 0.94191 0.02581 0.17838 0.0
C527 C 0.94504 0.99963 0.19194 0.0
C528 C 0.97145 0.99788 0.21275 0.0
C529 C 0.99438 0.02376 0.22017 0.0
C530 C 0.99051 0.05096 0.20687 0.0
C531 C 0.96471 0.05183 0.18549 0.0
H532 H 0.90852 0.04311 0.6317 0.0
H533 H 0.87533 0.10621 0.68706 0.0
H534 H 0.89748 0.06852 0.71787 0.0
H535 H 0.86376 0.97842 0.66193 0.0
H536 H 0.90849 0.95367 0.65164 0.0
H537 H 0.89247 0.98605 0.63381 0.0
H538 H 0.97817 0.00412 0.63367 0.0
H539 H 0.9944 0.97174 0.65151 0.0
H540 H 0.00796 0.00873 0.66168 0.0
H541 H 0.92143 0.02387 0.74263 0.0
H542 H 0.94465 0.97496 0.75986 0.0
H543 H 0.95999 0.9401 0.68852 0.0
C544 C 0.90627 0.04915 0.65029 0.0
C545 C 0.89028 0.07773 0.65694 0.0
C546 C 0.88748 0.08453 0.6815 0.0
C547 C 0.90007 0.06328 0.69914 0.0
C548 C 0.91532 0.03531 0.69195 0.0
C549 C 0.91848 0.02816 0.66813 0.0
C550 C 0.93455 0.99613 0.66526 0.0
C551 C 0.8976 0.97748 0.6524 0.0
C552 C 0.98156 0.99514 0.65226 0.0
C553 C 0.9394 0.98629 0.6912 0.0
C554 C 0.9285 0.00933 0.70627 0.0
C555 C 0.93009 0.00568 0.731 0.0
C556 C 0.94313 0.97774 0.7406 0.0
C557 C 0.95433 0.95371 0.72553 0.0
C558 C 0.95226 0.95813 0.70049 0.0
H559 H 0.63429 0.45843 0.1584 0.0
H560 H 0.76993 0.50053 0.15187 0.0
H561 H 0.74539 0.53945 0.17985 0.0
H562 H 0.56967 0.52428 0.15797 0.0
H563 H 0.52696 0.51126 0.17937 0.0
H564 H 0.55676 0.48487 0.16107 0.0
H565 H 0.58405 0.45561 0.19903 0.0
H566 H 0.55406 0.48192 0.21744 0.0
H567 H 0.61513 0.47506 0.22196 0.0
H568 H 0.70413 0.57572 0.20661 0.0
H569 H 0.6484 0.60698 0.2287 0.0
H570 H 0.54015 0.54146 0.2169 0.0
C571 C 0.6592 0.47549 0.16318 0.0
C572 C 0.70416 0.47631 0.15304 0.0
C573 C 0.73538 0.49934 0.15949 0.0
C574 C 0.7218 0.52152 0.17541 0.0
C575 C 0.67694 0.52033 0.18475 0.0
C576 C 0.64615 0.49784 0.1789 0.0
C577 C 0.59899 0.50265 0.19014 0.0
C578 C 0.56088 0.50597 0.17099 0.0
C579 C 0.58739 0.4773 0.20822 0.0
C580 C 0.60763 0.53183 0.20259 0.0
C581 C 0.65299 0.54144 0.19967 0.0
C582 C 0.66866 0.56825 0.20919 0.0
C583 C 0.63693 0.58579 0.22178 0.0
C584 C 0.59014 0.57657 0.22436 0.0
C585 C 0.57561 0.54914 0.21488 0.0
H586 H 0.37903 0.42983 0.32788 0.0
H587 H 0.28683 0.4766 0.37567 0.0
H588 H 0.3095 0.52474 0.35667 0.0
H589 H 0.47001 0.48373 0.32954 0.0
H590 H 0.48642 0.47998 0.29867 0.0
H591 H 0.46032 0.44886 0.31471 0.0
H592 H 0.39707 0.44566 0.28242 0.0
H593 H 0.42159 0.47723 0.26626 0.0
H594 H 0.36148 0.47777 0.27562 0.0
H595 H 0.34643 0.56777 0.33535 0.0
H596 H 0.39436 0.60359 0.31191 0.0
H597 H 0.46212 0.52985 0.27689 0.0
C598 C 0.36298 0.45017 0.33401 0.0
C599 C 0.33089 0.44946 0.35315 0.0
C600 C 0.31141 0.4766 0.36102 0.0
C601 C 0.32399 0.50406 0.35032 0.0
C602 C 0.35629 0.50407 0.33181 0.0
C603 C 0.3756 0.47791 0.32369 0.0
C604 C 0.41152 0.48448 0.30442 0.0
C605 C 0.45993 0.47362 0.31232 0.0
C606 C 0.39705 0.47049 0.28074 0.0
C607 C 0.40938 0.51841 0.30306 0.0
C608 C 0.37735 0.52916 0.31913 0.0
C609 C 0.37127 0.55967 0.32252 0.0
C610 C 0.39888 0.57982 0.30928 0.0
C611 C 0.43177 0.5694 0.29265 0.0
C612 C 0.43676 0.53831 0.28932 0.0
H613 H 0.07057 0.05598 0.86023 0.0
H614 H 0.18924 0.01204 0.89343 0.0
H615 H 0.17517 0.9675 0.86907 0.0
H616 H 0.99792 0.99107 0.85774 0.0
H617 H 0.9729 0.00127 0.8292 0.0
H618 H 0.99297 0.02996 0.84881 0.0
H619 H 0.04628 0.05138 0.81515 0.0
H620 H 0.02627 0.02272 0.79546 0.0
H621 H 0.08751 0.02709 0.80109 0.0
H622 H 0.14825 0.92777 0.84098 0.0
H623 H 0.10839 0.89512 0.81237 0.0
H624 H 0.00714 0.96487 0.79789 0.0
C625 C 0.09368 0.03703 0.86239 0.0
C626 C 0.13105 0.03753 0.87875 0.0
C627 C 0.16034 0.01218 0.88105 0.0
C628 C 0.15271 0.98681 0.86725 0.0
C629 C 0.11561 0.98711 0.85128 0.0
C630 C 0.08647 0.01151 0.84884 0.0
C631 C 0.0486 0.00595 0.83068 0.0
C632 C 1.00024 0.00712 0.84231 0.0
C633 C 0.05242 0.02811 0.80933 0.0
C634 C 0.06072 0.97449 0.82347 0.0
C635 C 0.09974 0.96411 0.83538 0.0
C636 C 0.11771 0.9357 0.83154 0.0
C637 C 0.09505 0.91739 0.81518 0.0
C638 C 0.05495 0.92759 0.80289 0.0
C639 C 0.03761 0.95647 0.80717 0.0
H640 H 0.1856 0.17909 0.00344 0.0
H641 H 0.22858 0.10151 0.96388 0.0
H642 H 0.21514 0.06929 0.99965 0.0
H643 H 0.23784 0.15544 0.06057 0.0
H644 H 0.19093 0.17048 0.0779 0.0
H645 H 0.20602 0.18754 0.04946 0.0
H646 H 0.1212 0.18083 0.035 0.0
H647 H 0.10592 0.1637 0.06334 0.0
H648 H 0.09514 0.14408 0.03609 0.0
H649 H 0.19254 0.04515 0.03914 0.0
H650 H 0.16482 0.03114 0.07968 0.0
H651 H 0.13824 0.12465 0.09375 0.0
C652 C 0.19281 0.15537 0.00238 0.0
C653 C 0.20719 0.14271 0.98067 0.0
C654 C 0.21605 0.11158 0.98002 0.0
C655 C 0.20905 0.09315 1.00036 0.0
C656 C 0.19368 0.10624 0.0213 0.0
C657 C 0.18606 0.13669 0.02252 0.0
C658 C 0.16832 0.14506 0.04697 0.0
C659 C 0.20285 0.16586 0.05946 0.0
C660 C 0.11976 0.15925 0.04524 0.0
C661 C 0.16647 0.1145 0.05922 0.0
C662 C 0.18139 0.09242 0.04414 0.0
C663 C 0.18112 0.06229 0.05116 0.0
C664 C 0.16506 0.05452 0.07415 0.0
C665 C 0.14949 0.07678 0.0899 0.0
C666 C 0.15061 0.10717 0.08228 0.0
H667 H 0.28916 0.36352 0.49506 0.0
H668 H 0.43663 0.36585 0.47887 0.0
H669 H 0.45436 0.36586 0.52196 0.0
H670 H 0.29233 0.41326 0.54136 0.0
H671 H 0.24947 0.39444 0.55979 0.0
H672 H 0.24817 0.39044 0.52791 0.0
H673 H 0.25208 0.33272 0.53321 0.0
H674 H 0.25304 0.33654 0.5652 0.0
H675 H 0.29841 0.3161 0.55058 0.0
H676 H 0.45592 0.37208 0.56633 0.0
H677 H 0.44114 0.38283 0.60862 0.0
H678 H 0.29278 0.37432 0.59628 0.0
C679 C 0.32521 0.3633 0.50056 0.0
C680 C 0.36149 0.36462 0.48355 0.0
C681 C 0.4082 0.36475 0.49153 0.0
C682 C 0.41866 0.3647 0.516 0.0
C683 C 0.38207 0.36422 0.53229 0.0
C684 C 0.33627 0.36319 0.52492 0.0
C685 C 0.3034 0.36489 0.54598 0.0
C686 C 0.27149 0.3924 0.54361 0.0
C687 C 0.27506 0.33583 0.54891 0.0
C688 C 0.33783 0.36819 0.5662 0.0
C689 C 0.38302 0.36741 0.55798 0.0
C690 C 0.42069 0.37208 0.57308 0.0
C691 C 0.41191 0.37803 0.59716 0.0
C692 C 0.36577 0.37929 0.60597 0.0
C693 C 0.32846 0.37372 0.59021 0.0
H694 H 0.64497 0.40609 0.02358 0.0
H695 H 0.73839 0.33037 0.01843 0.0
H696 H 0.72147 0.32774 0.97522 0.0
H697 H 0.55915 0.38051 0.98026 0.0
H698 H 0.54883 0.41787 0.96867 0.0
H699 H 0.56575 0.41216 0.99941 0.0
H700 H 0.63523 0.44847 0.99287 0.0
H701 H 0.61874 0.45412 0.9621 0.0
H702 H 0.67646 0.4414 0.96943 0.0
H703 H 0.69867 0.33609 0.93185 0.0
H704 H 0.67082 0.35398 0.89233 0.0
H705 H 0.59065 0.42314 0.92661 0.0
C706 C 0.66146 0.38865 0.0135 0.0
C707 C 0.693 0.3684 0.02446 0.0
C708 C 0.71398 0.34607 0.01049 0.0
C709 C 0.70459 0.3444 0.98593 0.0
C710 C 0.67393 0.36509 0.97565 0.0
C711 C 0.65244 0.38663 0.98907 0.0
C712 C 0.62234 0.40699 0.97368 0.0
C713 C 0.57097 0.4042 0.98094 0.0
C714 C 0.63923 0.43967 0.97458 0.0
C715 C 0.63088 0.3939 0.9494 0.0
C716 C 0.66055 0.36968 0.95086 0.0
C717 C 0.67491 0.35478 0.93055 0.0
C718 C 0.65869 0.36504 0.90817 0.0
C719 C 0.6284 0.38997 0.90627 0.0
C720 C 0.6141 0.40424 0.92732 0.0
H721 H 0.88012 0.07529 0.49681 0.0
H722 H 0.88141 0.17075 0.50969 0.0
H723 H 0.8907 0.18092 0.46631 0.0
H724 H 0.96508 0.07614 0.44941 0.0
H725 H 0.93558 0.04774 0.43274 0.0
H726 H 0.93037 0.04813 0.4648 0.0
H727 H 0.84064 0.04995 0.46107 0.0
H728 H 0.84559 0.04944 0.42903 0.0
H729 H 0.81409 0.07913 0.44303 0.0
H730 H 0.89886 0.18036 0.42106 0.0
H731 H 0.90104 0.16914 0.37796 0.0
H732 H 0.89474 0.07412 0.39544 0.0
C733 C 0.88251 0.09837 0.49058 0.0
C734 C 0.88014 0.12223 0.50668 0.0
C735 C 0.88313 0.15209 0.4977 0.0
C736 C 0.88856 0.15808 0.4731 0.0
C737 C 0.8909 0.13398 0.45774 0.0
C738 C 0.88778 0.10473 0.46617 0.0
C739 C 0.88989 0.08279 0.446 0.0
C740 C 0.93279 0.06251 0.44839 0.0
C741 C 0.84487 0.06425 0.44472 0.0
C742 C 0.89433 0.10424 0.42484 0.0
C743 C 0.89521 0.13367 0.43191 0.0
C744 C 0.89838 0.15738 0.41535 0.0
C745 C 0.89991 0.1508 0.39092 0.0
C746 C 0.89796 0.12077 0.38333 0.0
C747 C 0.89583 0.09731 0.40064 0.0
H748 H 0.76954 0.84237 0.00312 0.0
H749 H 0.76816 0.93903 0.0099 0.0
H750 H 0.7704 0.94508 0.96606 0.0
H751 H 0.84823 0.84001 0.95513 0.0
H752 H 0.81962 0.80979 0.94016 0.0
H753 H 0.81463 0.81282 0.97207 0.0
H754 H 0.72486 0.81314 0.96854 0.0
H755 H 0.72959 0.80996 0.9366 0.0
H756 H 0.69714 0.84033 0.94905 0.0
H757 H 0.77972 0.94087 0.92182 0.0
H758 H 0.79079 0.92631 0.87981 0.0
H759 H 0.78358 0.83264 0.90157 0.0
C760 C 0.76908 0.86481 0.99539 0.0
C761 C 0.76871 0.89021 0.00999 0.0
C762 C 0.76833 0.91919 0.99913 0.0
C763 C 0.76962 0.9229 0.97422 0.0
C764 C 0.77078 0.89742 0.96038 0.0
C765 C 0.77 0.86893 0.97053 0.0
C766 C 0.77278 0.84531 0.95158 0.0
C767 C 0.81641 0.82585 0.95494 0.0
C768 C 0.72844 0.82605 0.95144 0.0
C769 C 0.77621 0.865 0.92928 0.0
C770 C 0.77499 0.89499 0.93475 0.0
C771 C 0.78008 0.91746 0.91726 0.0
C772 C 0.78656 0.90902 0.89352 0.0
C773 C 0.78758 0.87842 0.88754 0.0
C774 C 0.78203 0.8562 0.90565 0.0
H775 H 0.80062 0.61755 0.48888 0.0
H776 H 0.68164 0.57295 0.52172 0.0
H777 H 0.64613 0.56739 0.48208 0.0
H778 H 0.73554 0.65833 0.44328 0.0
H779 H 0.77957 0.65426 0.42069 0.0
H780 H 0.79577 0.65512 0.45175 0.0
H781 H 0.83756 0.60418 0.44777 0.0
H782 H 0.82131 0.60311 0.41673 0.0
H783 H 0.80582 0.57251 0.43674 0.0
H784 H 0.62397 0.56548 0.43913 0.0
H785 H 0.61569 0.56846 0.39534 0.0
H786 H 0.74781 0.61531 0.38995 0.0
C787 C 0.76705 0.6067 0.48775 0.0
C788 C 0.74401 0.59567 0.50849 0.0
C789 C 0.70007 0.58161 0.50617 0.0
C790 C 0.67955 0.5783 0.4837 0.0
C791 C 0.70325 0.58923 0.46366 0.0
C792 C 0.74591 0.60326 0.46541 0.0
C793 C 0.76385 0.61296 0.44094 0.0
C794 C 0.76897 0.6472 0.43906 0.0
C795 C 0.80986 0.59724 0.43522 0.0
C796 C 0.72474 0.60197 0.42523 0.0
C797 C 0.69017 0.58838 0.43874 0.0
C798 C 0.65064 0.57627 0.42835 0.0
C799 C 0.64615 0.57823 0.40345 0.0
C800 C 0.68091 0.5923 0.38915 0.0
C801 C 0.72079 0.6042 0.40031 0.0
H802 H 0.39187 0.65484 0.98284 0.0
H803 H 0.26188 0.6061 0.99073 0.0
H804 H 0.26421 0.61365 0.0343 0.0
H805 H 0.44567 0.62543 0.03457 0.0
H806 H 0.47454 0.65978 0.04215 0.0
H807 H 0.46091 0.65246 0.01146 0.0
H808 H 0.41547 0.70241 0.00814 0.0
H809 H 0.42914 0.70995 0.03884 0.0
H810 H 0.36948 0.70962 0.0291 0.0
H811 H 0.28379 0.62346 0.07736 0.0
H812 H 0.31768 0.63648 0.1164 0.0
H813 H 0.4344 0.67891 0.08002 0.0
C814 C 0.36353 0.64607 0.99364 0.0
C815 C 0.32667 0.62989 0.98334 0.0
C816 C 0.29043 0.61865 0.99819 0.0
C817 C 0.29145 0.62281 0.02296 0.0
C818 C 0.32875 0.63843 0.03257 0.0
C819 C 0.36394 0.65008 0.01834 0.0
C820 C 0.40091 0.66511 0.03313 0.0
C821 C 0.44829 0.64977 0.03015 0.0
C822 C 0.4039 0.69877 0.02693 0.0
C823 C 0.38146 0.65967 0.05795 0.0
C824 C 0.33976 0.64431 0.05728 0.0
C825 C 0.31621 0.63572 0.07809 0.0
C826 C 0.33583 0.64304 0.10015 0.0
C827 C 0.37852 0.65882 0.1012 0.0
C828 C 0.40133 0.66731 0.07976 0.0
H829 H 0.22568 0.87639 0.50378 0.0
H830 H 0.07966 0.88646 0.48605 0.0
H831 H 0.05887 0.87607 0.52822 0.0
H832 H 0.21173 0.81614 0.54708 0.0
H833 H 0.25641 0.82985 0.56658 0.0
H834 H 0.25962 0.83766 0.53492 0.0
H835 H 0.26466 0.8945 0.54299 0.0
H836 H 0.26125 0.88686 0.57466 0.0
H837 H 0.22006 0.91185 0.56051 0.0
H838 H 0.05402 0.86459 0.57248 0.0
H839 H 0.06563 0.85166 0.61522 0.0
H840 H 0.21487 0.85106 0.60398 0.0
C841 C 0.1893 0.87623 0.50871 0.0
C842 C 0.1543 0.88217 0.49158 0.0
C843 C 0.10712 0.88195 0.49884 0.0
C844 C 0.09493 0.87611 0.52276 0.0
C845 C 0.13033 0.87064 0.53922 0.0
C846 C 0.17654 0.87061 0.53251 0.0
C847 C 0.20789 0.86429 0.55371 0.0
C848 C 0.23553 0.83526 0.55037 0.0
C849 C 0.24037 0.89097 0.55823 0.0
C850 C 0.17209 0.86065 0.57336 0.0
C851 C 0.12755 0.86441 0.56469 0.0
C852 C 0.08877 0.86171 0.57951 0.0
C853 C 0.09573 0.85459 0.6038 0.0
C854 C 0.14114 0.8503 0.61301 0.0
C855 C 0.17966 0.85378 0.5975 0.0
H856 H 0.25784 0.26428 0.32544 0.0
H857 H 0.14653 0.32476 0.34409 0.0
H858 H 0.09132 0.29464 0.32075 0.0
H859 H 0.22073 0.25069 0.26506 0.0
H860 H 0.23936 0.21228 0.26721 0.0
H861 H 0.2676 0.23992 0.28483 0.0
H862 H 0.24905 0.20596 0.32228 0.0
H863 H 0.21868 0.17969 0.30395 0.0
H864 H 0.18945 0.19634 0.32882 0.0
H865 H 0.04838 0.25783 0.29512 0.0
H866 H 0.02069 0.21689 0.26984 0.0
H867 H 0.16022 0.18031 0.26833 0.0
C868 C 0.22186 0.27123 0.32462 0.0
C869 C 0.20656 0.29697 0.33651 0.0
C870 C 0.15909 0.30514 0.33511 0.0
C871 C 0.12747 0.28818 0.32189 0.0
C872 C 0.14379 0.263 0.3103 0.0
C873 C 0.1898 0.25445 0.31168 0.0
C874 C 0.19854 0.22646 0.29766 0.0
C875 C 0.2336 0.23278 0.27747 0.0
C876 C 0.21489 0.20059 0.31417 0.0
C877 C 0.1503 0.2206 0.28799 0.0
C878 C 0.11919 0.24192 0.29552 0.0
C879 C 0.07245 0.24102 0.28911 0.0
C880 C 0.05705 0.21765 0.27474 0.0
C881 C 0.08827 0.19543 0.2669 0.0
C882 C 0.13553 0.19711 0.27367 0.0
H883 H 0.30833 0.29355 0.88177 0.0
H884 H 0.35303 0.20156 0.87441 0.0
H885 H 0.41206 0.21813 0.84483 0.0
H886 H 0.31369 0.31245 0.82183 0.0
H887 H 0.33531 0.35017 0.82459 0.0
H888 H 0.30114 0.33323 0.84821 0.0
H889 H 0.3652 0.34169 0.87929 0.0
H890 H 0.39956 0.3604 0.85652 0.0
H891 H 0.42356 0.32931 0.87343 0.0
H892 H 0.46484 0.24458 0.81529 0.0
H893 H 0.50421 0.27861 0.78616 0.0
H894 H 0.42041 0.35249 0.81033 0.0
C895 C 0.33127 0.27699 0.87435 0.0
C896 C 0.32652 0.24629 0.88059 0.0
C897 C 0.3563 0.2252 0.86999 0.0
C898 C 0.38997 0.23441 0.85322 0.0
C899 C 0.39313 0.26476 0.8471 0.0
C900 C 0.36455 0.28575 0.85732 0.0
C901 C 0.37259 0.31664 0.84631 0.0
C902 C 0.32807 0.32884 0.83451 0.0
C903 C 0.39135 0.33828 0.865 0.0
C904 C 0.4094 0.30962 0.82795 0.0
C905 C 0.42154 0.2797 0.82907 0.0
C906 C 0.45565 0.26804 0.81426 0.0
C907 C 0.47792 0.28749 0.79788 0.0
C908 C 0.46518 0.318 0.79611 0.0
C909 C 0.43049 0.32915 0.8113 0.0
H910 H 0.71409 0.20625 0.67751 0.0
H911 H 0.79203 0.26898 0.63279 0.0
H912 H 0.7501 0.31115 0.65085 0.0
H913 H 0.60555 0.24362 0.67686 0.0
H914 H 0.59332 0.23482 0.70785 0.0
H915 H 0.62998 0.21058 0.69098 0.0
H916 H 0.69308 0.21647 0.72347 0.0
H917 H 0.65751 0.24226 0.73964 0.0
H918 H 0.71504 0.25317 0.72998 0.0
H919 H 0.69376 0.34595 0.67095 0.0
H920 H 0.63247 0.37099 0.69434 0.0
H921 H 0.59681 0.28611 0.7286 0.0
C922 C 0.72245 0.22889 0.67163 0.0
C923 C 0.75604 0.2344 0.65365 0.0
C924 C 0.76648 0.2643 0.64659 0.0
C925 C 0.74278 0.28837 0.65671 0.0
C926 C 0.70951 0.28216 0.67425 0.0
C927 C 0.69994 0.25317 0.68194 0.0
C928 C 0.6632 0.25257 0.70133 0.0
C929 C 0.62048 0.23434 0.69377 0.0
C930 C 0.68341 0.24041 0.72502 0.0
C931 C 0.65221 0.28563 0.70266 0.0
C932 C 0.67924 0.30236 0.68687 0.0
C933 C 0.67301 0.33316 0.68368 0.0
C934 C 0.63813 0.34717 0.6969 0.0
C935 C 0.61064 0.33045 0.71333 0.0
C936 C 0.6181 0.2994 0.71641 0.0
H937 H 0.82832 0.29227 0.16374 0.0
H938 H 0.85303 0.26582 0.09084 0.0
H939 H 0.89691 0.22154 0.10568 0.0
H940 H 0.94227 0.27467 0.18399 0.0
H941 H 0.92432 0.26205 0.21339 0.0
H942 H 0.89031 0.2895 0.19721 0.0
H943 H 0.81749 0.25549 0.20172 0.0
H944 H 0.85147 0.22793 0.21787 0.0
H945 H 0.81978 0.2175 0.19157 0.0
H946 H 0.93702 0.17999 0.12857 0.0
H947 H 0.97971 0.14774 0.1573 0.0
H948 H 0.93776 0.20521 0.21498 0.0
C949 C 0.84239 0.2768 0.151 0.0
C950 C 0.83682 0.28192 0.12621 0.0
C951 C 0.85677 0.26194 0.10992 0.0
C952 C 0.8815 0.23675 0.11818 0.0
C953 C 0.88673 0.23235 0.14277 0.0
C954 C 0.86841 0.25207 0.15895 0.0
C955 C 0.88288 0.24378 0.18427 0.0
C956 C 0.91166 0.269 0.19536 0.0
C957 C 0.84036 0.2357 0.19977 0.0
C958 C 0.91236 0.21647 0.17977 0.0
C959 C 0.91319 0.20984 0.15579 0.0
C960 C 0.93708 0.18517 0.14736 0.0
C961 C 0.96138 0.16705 0.16383 0.0
C962 C 0.96285 0.1742 0.18836 0.0
C963 C 0.93758 0.19916 0.19635 0.0
H964 H 0.87184 0.6934 0.66419 0.0
H965 H 0.76151 0.74489 0.63017 0.0
H966 H 0.79085 0.79063 0.649 0.0
H967 H 0.86932 0.73259 0.71976 0.0
H968 H 0.93125 0.73127 0.72435 0.0
H969 H 0.90269 0.70217 0.70805 0.0
H970 H 0.95675 0.71188 0.67178 0.0
H971 H 0.98628 0.74075 0.68788 0.0
H972 H 0.96138 0.74916 0.65897 0.0
H973 H 0.8322 0.83083 0.67116 0.0
H974 H 0.88132 0.8625 0.69655 0.0
H975 H 0.96444 0.78512 0.71657 0.0
C976 C 0.85386 0.71429 0.66067 0.0
C977 C 0.81442 0.71555 0.64561 0.0
C978 C 0.79175 0.74333 0.64162 0.0
C979 C 0.80821 0.76947 0.6522 0.0
C980 C 0.84728 0.76747 0.66681 0.0
C981 C 0.86969 0.7406 0.67119 0.0
C982 C 0.91048 0.74457 0.68798 0.0
C983 C 0.90299 0.72659 0.71143 0.0
C984 C 0.95644 0.73609 0.67592 0.0
C985 C 0.90789 0.77793 0.69204 0.0
C986 C 0.87108 0.79068 0.67969 0.0
C987 C 0.86116 0.8211 0.68086 0.0
C988 C 0.88922 0.83889 0.69529 0.0
C989 C 0.9266 0.82621 0.70839 0.0
C990 C 0.93641 0.79542 0.70647 0.0
H991 H 0.72998 0.76889 0.16361 0.0
H992 H 0.62447 0.83686 0.15161 0.0
H993 H 0.56713 0.80491 0.17281 0.0
H994 H 0.65374 0.70501 0.15586 0.0
H995 H 0.68169 0.68255 0.17878 0.0
H996 H 0.71449 0.71051 0.16228 0.0
H997 H 0.73841 0.73579 0.20181 0.0
H998 H 0.70691 0.70704 0.21792 0.0
H999 H 0.6939 0.74599 0.22274 0.0
H1000 H 0.5207 0.76534 0.19394 0.0
H1001 H 0.48844 0.72151 0.21562 0.0
H1002 H 0.62424 0.67954 0.21595 0.0
C1003 C 0.69483 0.77708 0.16546 0.0
C1004 C 0.68178 0.80545 0.15595 0.0
C1005 C 0.63538 0.81527 0.15874 0.0
C1006 C 0.6025 0.79725 0.17073 0.0
C1007 C 0.61652 0.76947 0.17988 0.0
C1008 C 0.66151 0.75938 0.17743 0.0
C1009 C 0.66741 0.72863 0.18908 0.0
C1010 C 0.68008 0.7053 0.17038 0.0
C1011 C 0.70378 0.72944 0.20912 0.0
C1012 C 0.61885 0.72325 0.19886 0.0
C1013 C 0.58998 0.74697 0.19296 0.0
C1014 C 0.54304 0.74677 0.19887 0.0
C1015 C 0.52504 0.72171 0.21117 0.0
C1016 C 0.55393 0.69727 0.21775 0.0
C1017 C 0.60155 0.69815 0.21157 0.0
H1018 H 0.28495 0.77178 0.35232 0.0
H1019 H 0.36349 0.84912 0.32689 0.0
H1020 H 0.40869 0.81679 0.30021 0.0
H1021 H 0.38215 0.72239 0.3546 0.0
H1022 H 0.35056 0.68977 0.3453 0.0
H1023 H 0.32111 0.71881 0.36113 0.0
H1024 H 0.26117 0.72499 0.32703 0.0
H1025 H 0.2894 0.69539 0.31127 0.0
H1026 H 0.28116 0.73144 0.29681 0.0
H1027 H 0.44361 0.77637 0.27545 0.0
H1028 H 0.47246 0.7295 0.25794 0.0
H1029 H 0.37648 0.67799 0.30212 0.0
C1030 C 0.31141 0.78188 0.34096 0.0
C1031 C 0.3205 0.81294 0.3414 0.0
C1032 C 0.35602 0.82535 0.32673 0.0
C1033 C 0.38168 0.80721 0.31147 0.0
C1034 C 0.37187 0.77666 0.31142 0.0
C1035 C 0.33811 0.76397 0.32605 0.0
C1036 C 0.3366 0.73025 0.32369 0.0
C1037 C 0.34833 0.71437 0.34759 0.0
C1038 C 0.28927 0.71993 0.31412 0.0
C1039 C 0.37461 0.72602 0.3054 0.0
C1040 C 0.39393 0.75313 0.29821 0.0
C1041 C 0.42881 0.75502 0.28096 0.0
C1042 C 0.44472 0.72843 0.27098 0.0
C1043 C 0.42637 0.70051 0.27869 0.0
C1044 C 0.39091 0.69925 0.29605 0.0
H1045 H 0.15129 0.67875 0.81964 0.0
H1046 H 0.20573 0.72701 0.87999 0.0
H1047 H 0.16539 0.77275 0.86571 0.0
H1048 H 0.16365 0.74106 0.77674 0.0
H1049 H 0.11152 0.73173 0.76068 0.0
H1050 H 0.14438 0.70267 0.7757 0.0
H1051 H 0.0707 0.68627 0.79927 0.0
H1052 H 0.03775 0.7154 0.78441 0.0
H1053 H 0.03994 0.7134 0.81658 0.0
H1054 H 0.11466 0.8119 0.84673 0.0
H1055 H 0.06398 0.84403 0.82151 0.0
H1056 H 0.04812 0.77222 0.77131 0.0
C1057 C 0.15477 0.699 0.82978 0.0
C1058 C 0.18136 0.69937 0.851 0.0
C1059 C 0.18561 0.72631 0.86366 0.0
C1060 C 0.1627 0.75234 0.85575 0.0
C1061 C 0.13645 0.75119 0.83488 0.0
C1062 C 0.13301 0.72541 0.82181 0.0
C1063 C 0.10364 0.73055 0.7996 0.0
C1064 C 0.13253 0.72625 0.77683 0.0
C1065 C 0.06045 0.71019 0.80001 0.0
C1066 C 0.09048 0.76308 0.80248 0.0
C1067 C 0.10936 0.77441 0.82313 0.0
C1068 C 0.10016 0.80341 0.83038 0.0
C1069 C 0.07117 0.8214 0.81606 0.0
C1070 C 0.05259 0.81053 0.79451 0.0
C1071 C 0.06249 0.78106 0.78759 0.0
loop_
_geom_bond_atom_site_label_1
_geom_bond_atom_site_label_2
_geom_bond_distance
_geom_bond_site_symmetry_2
_ccdc_geom_bond_type
O0 Cd1 2.300 . S
O0 C7 1.275 . S
Cd1 O0 2.300 . S
Cd1 O9 2.381 . S
Cd1 O10 2.378 . S
O2 Cd3 2.385 . S
O2 C7 1.255 . S
Cd3 O2 2.385 . S
Cd3 O4 2.317 . S
O4 Cd3 2.317 . S
O4 C5 1.232 . S
C5 O4 1.232 . S
C5 O6 1.218 . S
O6 C5 1.218 . S
C7 O0 1.275 . S
C7 O2 1.255 . S
C8 O9 1.258 . S
C8 O10 1.256 . S
O9 Cd1 2.381 . S
O9 C8 1.258 . S
O10 Cd1 2.378 . S
O10 C8 1.256 . S
O11 Cd12 2.300 . S
O11 C18 1.275 . S
Cd12 O11 2.300 . S
Cd12 O20 2.381 . S
Cd12 O21 2.378 . S
O13 Cd14 2.385 . S
O13 C18 1.255 . S
Cd14 O13 2.385 . S
Cd14 O15 2.317 . S
O15 Cd14 2.317 . S
O15 C16 1.232 . S
C16 O15 1.232 . S
C16 O17 1.218 . S
O17 C16 1.218 . S
C18 O11 1.275 . S
C18 O13 1.255 . S
C19 O20 1.258 . S
C19 O21 1.256 . S
O20 Cd12 2.381 . S
O20 C19 1.258 . S
O21 Cd12 2.378 . S
O21 C19 1.256 . S
O22 Cd23 2.300 . S
O22 C29 1.275 . S
Cd23 O22 2.300 . S
Cd23 O31 2.381 . S
Cd23 O32 2.378 . S
O24 Cd25 2.385 . S
O24 C29 1.255 . S
Cd25 O24 2.385 . S
Cd25 O26 2.317 . S
O26 Cd25 2.317 . S
O26 C27 1.232 . S
C27 O26 1.232 . S
C27 O28 1.218 . S
O28 C27 1.218 . S
C29 O22 1.275 . S
C29 O24 1.255 . S
C30 O31 1.258 . S
C30 O32 1.256 . S
O31 Cd23 2.381 . S
O31 C30 1.258 . S
O32 Cd23 2.378 . S
O32 C30 1.256 . S
O33 Cd34 2.300 . S
O33 C40 1.275 . S
Cd34 O33 2.300 . S
Cd34 O42 2.381 . S
Cd34 O43 2.378 . S
O35 Cd36 2.385 . S
O35 C40 1.255 . S
Cd36 O35 2.385 . S
Cd36 O37 2.317 . S
O37 Cd36 2.317 . S
O37 C38 1.232 . S
C38 O37 1.232 . S
C38 O39 1.218 . S
O39 C38 1.218 . S
C40 O33 1.275 . S
C40 O35 1.255 . S
C41 O42 1.258 . S
C41 O43 1.256 . S
O42 Cd34 2.381 . S
O42 C41 1.258 . S
O43 Cd34 2.378 . S
O43 C41 1.256 . S
O44 Cd45 2.300 . S
O44 C51 1.275 . S
Cd45 O44 2.300 . S
Cd45 O53 2.381 . S
Cd45 O54 2.378 . S
O46 Cd47 2.385 . S
O46 C51 1.255 . S
Cd47 O46 2.385 . S
Cd47 O48 2.317 . S
O48 Cd47 2.317 . S
O48 C49 1.232 . S
C49 O48 1.232 . S
C49 O50 1.218 . S
O50 C49 1.218 . S
C51 O44 1.275 . S
C51 O46 1.255 . S
C52 O53 1.258 . S
C52 O54 1.256 . S
O53 Cd45 2.381 . S
O53 C52 1.258 . S
O54 Cd45 2.378 . S
O54 C52 1.256 . S
O55 Cd56 2.300 . S
O55 C62 1.275 . S
Cd56 O55 2.300 . S
Cd56 O64 2.381 . S
Cd56 O65 2.378 . S
O57 Cd58 2.385 . S
O57 C62 1.255 . S
Cd58 O57 2.385 . S
Cd58 O59 2.317 . S
O59 Cd58 2.317 . S
O59 C60 1.232 . S
C60 O59 1.232 . S
C60 O61 1.218 . S
O61 C60 1.218 . S
C62 O55 1.275 . S
C62 O57 1.255 . S
C63 O64 1.258 . S
C63 O65 1.256 . S
O64 Cd56 2.381 . S
O64 C63 1.258 . S
O65 Cd56 2.378 . S
O65 C63 1.256 . S
O66 Cd67 2.300 . S
O66 C73 1.275 . S
Cd67 O66 2.300 . S
Cd67 O75 2.381 . S
Cd67 O76 2.378 . S
O68 Cd69 2.385 . S
O68 C73 1.255 . S
Cd69 O68 2.385 . S
Cd69 O70 2.317 . S
O70 Cd69 2.317 . S
O70 C71 1.232 . S
C71 O70 1.232 . S
C71 O72 1.218 . S
O72 C71 1.218 . S
C73 O66 1.275 . S
C73 O68 1.255 . S
C74 O75 1.258 . S
C74 O76 1.256 . S
O75 Cd67 2.381 . S
O75 C74 1.258 . S
O76 Cd67 2.378 . S
O76 C74 1.256 . S
O77 Cd78 2.300 . S
O77 C84 1.275 . S
Cd78 O77 2.300 . S
Cd78 O86 2.381 . S
Cd78 O87 2.378 . S
O79 Cd80 2.385 . S
O79 C84 1.255 . S
Cd80 O79 2.385 . S
Cd80 O81 2.317 . S
O81 Cd80 2.317 . S
O81 C82 1.232 . S
C82 O81 1.232 . S
C82 O83 1.218 . S
O83 C82 1.218 . S
C84 O77 1.275 . S
C84 O79 1.255 . S
C85 O86 1.258 . S
C85 O87 1.256 . S
O86 Cd78 2.381 . S
O86 C85 1.258 . S
O87 Cd78 2.378 . S
O87 C85 1.256 . S
C88 C90 1.422 . S
C88 C92 1.415 . S
C88 N94 1.369 . S
C89 C90 1.421 . S
C89 C91 1.417 . S
C89 C101 1.422 . S
C90 C88 1.422 . S
C90 C89 1.421 . S
C90 N100 1.359 . S
C91 C89 1.417 . S
C91 C93 1.329 . S
C91 H110 0.930 . S
C92 C88 1.415 . S
C92 C93 1.437 . S
C92 C96 1.413 . S
C93 C91 1.329 . S
C93 C92 1.437 . S
C93 H115 0.929 . S
N94 C88 1.369 . S
N94 C95 1.338 . S
N94 Gd99 2.622 . S
C95 N94 1.338 . S
C95 C97 1.378 . S
C95 H107 0.929 . S
C96 C92 1.413 . S
C96 C97 1.348 . S
C96 H112 0.931 . S
C97 C95 1.378 . S
C97 C96 1.348 . S
C97 H113 0.930 . S
Gd98 N118 2.622 . S
Gd98 N125 2.570 . S
Gd98 O132 2.353 . S
Gd98 O133 2.468 . S
Gd98 O134 2.427 . S
Gd98 O136 2.388 . S
Gd98 O137 2.386 . S
Gd98 O141 2.307 . S
Gd98 C151 2.805 . S
Gd99 N94 2.622 . S
Gd99 N100 2.570 . S
Gd99 O131 2.386 . S
Gd99 O135 2.307 1_655 S
Gd99 O138 2.353 1_655 S
Gd99 O139 2.468 . S
Gd99 O140 2.427 . S
Gd99 O142 2.388 . S
Gd99 C163 2.805 . S
N100 C90 1.359 . S
N100 Gd99 2.570 . S
N100 C102 1.343 . S
C101 C89 1.422 . S
C101 C103 1.321 . S
C101 H109 0.931 1_545 S
C102 N100 1.343 . S
C102 C103 1.390 . S
C102 H104 0.931 . S
C103 C101 1.321 . S
C103 C102 1.390 . S
C103 H105 0.930 1_545 S
H104 C102 0.931 . S
H105 C103 0.930 1_565 S
H106 C129 0.931 . S
H107 C95 0.929 . S
H108 C130 0.930 . S
H109 C101 0.931 1_565 S
H110 C91 0.930 . S
H111 C120 0.929 . S
H112 C96 0.931 . S
H113 C97 0.930 . S
H114 C152 0.930 . S
H115 C93 0.929 . S
H116 C121 0.931 . S
H117 C122 0.930 . S
N118 Gd98 2.622 . S
N118 C119 1.369 . S
N118 C120 1.338 . S
C119 N118 1.369 . S
C119 C123 1.415 . S
C119 C126 1.422 . S
C120 H111 0.929 . S
C120 N118 1.338 . S
C120 C122 1.378 . S
C121 H116 0.931 . S
C121 C122 1.348 . S
C121 C123 1.413 . S
C122 H117 0.930 . S
C122 C120 1.378 . S
C122 C121 1.348 . S
C123 C119 1.415 . S
C123 C121 1.413 . S
C123 C153 1.437 . S
H124 C153 0.929 . S
N125 Gd98 2.570 . S
N125 C126 1.359 . S
N125 C129 1.343 . S
C126 C119 1.422 . S
C126 N125 1.359 . S
C126 C128 1.421 . S
C127 C128 1.422 . S
C127 C130 1.321 . S
C127 H154 0.931 . S
C128 C126 1.421 . S
C128 C127 1.422 . S
C128 C152 1.417 . S
C129 H106 0.931 . S
C129 N125 1.343 . S
C129 C130 1.390 . S
C130 H108 0.930 . S
C130 C127 1.321 . S
C130 C129 1.390 . S
O131 Gd99 2.386 . S
O131 C143 1.265 . S
O132 Gd98 2.353 . S
O132 C143 1.242 1_455 S
O133 Gd98 2.468 . S
O133 C151 1.263 . S
O134 Gd98 2.427 . S
O134 C151 1.252 . S
O135 Gd99 2.307 1_455 S
O135 C144 1.261 . S
O136 Gd98 2.388 . S
O136 C144 1.252 . S
O137 Gd98 2.386 . S
O137 C155 1.265 . S
O138 Gd99 2.353 1_455 S
O138 C155 1.242 . S
O139 Gd99 2.468 . S
O139 C163 1.263 . S
O140 Gd99 2.427 . S
O140 C163 1.252 . S
O141 Gd98 2.307 . S
O141 C156 1.261 1_455 S
O142 Gd99 2.388 . S
O142 C156 1.252 . S
C143 O131 1.265 . S
C143 O132 1.242 1_655 S
C144 O135 1.261 . S
C144 O136 1.252 . S
C145 C148 1.394 . S
C145 C150 1.370 . S
C145 C151 1.500 . S
C146 C149 1.383 . S
C146 C150 1.395 . S
C147 C148 1.396 . S
C147 C149 1.365 . S
C147 H164 0.929 . S
C148 C145 1.394 . S
C148 C147 1.396 . S
C148 H165 0.930 . S
C149 C146 1.383 . S
C149 C147 1.365 . S
C149 H166 0.931 . S
C150 C145 1.370 . S
C150 C146 1.395 . S
C150 H167 0.930 . S
C151 Gd98 2.805 . S
C151 O133 1.263 . S
C151 O134 1.252 . S
C151 C145 1.500 . S
C152 H114 0.930 . S
C152 C128 1.417 . S
C152 C153 1.329 . S
C153 C123 1.437 . S
C153 H124 0.929 . S
C153 C152 1.329 . S
H154 C127 0.931 . S
C155 O137 1.265 . S
C155 O138 1.242 . S
C156 O141 1.261 1_655 S
C156 O142 1.252 . S
C157 C160 1.394 . S
C157 C162 1.370 . S
C157 C163 1.500 . S
C158 C161 1.383 . S
C158 C162 1.395 . S
C159 C160 1.396 . S
C159 C161 1.365 . S
C159 H168 0.929 . S
C160 C157 1.394 . S
C160 C159 1.396 . S
C160 H169 0.930 . S
C161 C158 1.383 . S
C161 C159 1.365 . S
C161 H170 0.931 . S
C162 C157 1.370 . S
C162 C158 1.395 . S
C162 H171 0.930 . S
C163 Gd99 2.805 . S
C163 O139 1.263 . S
C163 O140 1.252 . S
C163 C157 1.500 . S
H164 C147 0.929 . S
H165 C148 0.930 . S
H166 C149 0.931 . S
H167 C150 0.930 . S
H168 C159 0.929 . S
H169 C160 0.930 . S
H170 C161 0.931 . S
H171 C162 0.930 . S
C172 C174 1.422 . S
C172 C176 1.415 . S
C172 N178 1.369 . S
C173 C174 1.421 . S
C173 C175 1.417 . S
C173 C185 1.422 . S
C174 C172 1.422 . S
C174 C173 1.421 . S
C174 N184 1.359 . S
C175 C173 1.417 . S
C175 C177 1.329 . S
C175 H194 0.930 . S
C176 C172 1.415 . S
C176 C177 1.437 . S
C176 C180 1.413 . S
C177 C175 1.329 . S
C177 C176 1.437 . S
C177 H199 0.929 . S
N178 C172 1.369 . S
N178 C179 1.338 . S
N178 Gd183 2.622 . S
C179 N178 1.338 . S
C179 C181 1.378 . S
C179 H191 0.929 . S
C180 C176 1.413 . S
C180 C181 1.348 . S
C180 H196 0.931 . S
C181 C179 1.378 . S
C181 C180 1.348 . S
C181 H197 0.930 . S
Gd182 N202 2.622 . S
Gd182 N209 2.570 . S
Gd182 O216 2.353 . S
Gd182 O217 2.468 . S
Gd182 O218 2.427 . S
Gd182 O220 2.388 . S
Gd182 O221 2.386 . S
Gd182 O225 2.307 . S
Gd182 C235 2.805 . S
Gd183 N178 2.622 . S
Gd183 N184 2.570 . S
Gd183 O215 2.386 . S
Gd183 O219 2.307 . S
Gd183 O222 2.353 . S
Gd183 O223 2.468 . S
Gd183 O224 2.427 . S
Gd183 O226 2.388 . S
Gd183 C247 2.805 . S
N184 C174 1.359 . S
N184 Gd183 2.570 . S
N184 C186 1.343 . S
C185 C173 1.422 . S
C185 C187 1.321 . S
C185 H193 0.931 . S
C186 N184 1.343 . S
C186 C187 1.390 . S
C186 H188 0.931 . S
C187 C185 1.321 . S
C187 C186 1.390 . S
C187 H189 0.930 . S
H188 C186 0.931 . S
H189 C187 0.930 . S
H190 C213 0.931 . S
H191 C179 0.929 . S
H192 C214 0.930 . S
H193 C185 0.931 . S
H194 C175 0.930 . S
H195 C204 0.929 . S
H196 C180 0.931 . S
H197 C181 0.930 . S
H198 C236 0.930 . S
H199 C177 0.929 . S
H200 C205 0.931 . S
H201 C206 0.930 . S
N202 Gd182 2.622 . S
N202 C203 1.369 . S
N202 C204 1.338 . S
C203 N202 1.369 . S
C203 C207 1.415 . S
C203 C210 1.422 . S
C204 H195 0.929 . S
C204 N202 1.338 . S
C204 C206 1.378 . S
C205 H200 0.931 . S
C205 C206 1.348 . S
C205 C207 1.413 . S
C206 H201 0.930 . S
C206 C204 1.378 . S
C206 C205 1.348 . S
C207 C203 1.415 . S
C207 C205 1.413 . S
C207 C237 1.437 . S
H208 C237 0.929 . S
N209 Gd182 2.570 . S
N209 C210 1.359 . S
N209 C213 1.343 . S
C210 C203 1.422 . S
C210 N209 1.359 . S
C210 C212 1.421 . S
C211 C212 1.422 . S
C211 C214 1.321 . S
C211 H238 0.931 . S
C212 C210 1.421 . S
C212 C211 1.422 . S
C212 C236 1.417 . S
C213 H190 0.931 . S
C213 N209 1.343 . S
C213 C214 1.390 . S
C214 H192 0.930 . S
C214 C211 1.321 . S
C214 C213 1.390 . S
O215 Gd183 2.386 . S
O215 C227 1.265 . S
O216 Gd182 2.353 . S
O216 C227 1.242 . S
O217 Gd182 2.468 . S
O217 C235 1.263 . S
O218 Gd182 2.427 . S
O218 C235 1.252 . S
O219 Gd183 2.307 . S
O219 C228 1.261 . S
O220 Gd182 2.388 . S
O220 C228 1.252 . S
O221 Gd182 2.386 . S
O221 C239 1.265 . S
O222 Gd183 2.353 . S
O222 C239 1.242 . S
O223 Gd183 2.468 . S
O223 C247 1.263 . S
O224 Gd183 2.427 . S
O224 C247 1.252 . S
O225 Gd182 2.307 . S
O225 C240 1.261 . S
O226 Gd183 2.388 . S
O226 C240 1.252 . S
C227 O215 1.265 . S
C227 O216 1.242 . S
C228 O219 1.261 . S
C228 O220 1.252 . S
C229 C232 1.394 . S
C229 C234 1.370 . S
C229 C235 1.500 . S
C230 C233 1.383 . S
C230 C234 1.395 . S
C231 C232 1.396 . S
C231 C233 1.365 . S
C231 H248 0.929 . S
C232 C229 1.394 . S
C232 C231 1.396 . S
C232 H249 0.930 . S
C233 C230 1.383 . S
C233 C231 1.365 . S
C233 H250 0.931 . S
C234 C229 1.370 . S
C234 C230 1.395 . S
C234 H251 0.930 . S
C235 Gd182 2.805 . S
C235 O217 1.263 . S
C235 O218 1.252 . S
C235 C229 1.500 . S
C236 H198 0.930 . S
C236 C212 1.417 . S
C236 C237 1.329 . S
C237 C207 1.437 . S
C237 H208 0.929 . S
C237 C236 1.329 . S
H238 C211 0.931 . S
C239 O221 1.265 . S
C239 O222 1.242 . S
C240 O225 1.261 . S
C240 O226 1.252 . S
C241 C244 1.394 . S
C241 C246 1.370 . S
C241 C247 1.500 . S
C242 C245 1.383 . S
C242 C246 1.395 . S
C243 C244 1.396 . S
C243 C245 1.365 . S
C243 H252 0.929 . S
C244 C241 1.394 . S
C244 C243 1.396 . S
C244 H253 0.930 . S
C245 C242 1.383 . S
C245 C243 1.365 . S
C245 H254 0.931 . S
C246 C241 1.370 . S
C246 C242 1.395 . S
C246 H255 0.930 . S
C247 Gd183 2.805 . S
C247 O223 1.263 . S
C247 O224 1.252 . S
C247 C241 1.500 . S
H248 C231 0.929 . S
H249 C232 0.930 . S
H250 C233 0.931 . S
H251 C234 0.930 . S
H252 C243 0.929 . S
H253 C244 0.930 . S
H254 C245 0.931 . S
H255 C246 0.930 . S
C256 C258 1.422 . S
C256 C260 1.415 . S
C256 N262 1.369 . S
C257 C258 1.421 . S
C257 C259 1.417 . S
C257 C269 1.422 . S
C258 C256 1.422 . S
C258 C257 1.421 . S
C258 N268 1.359 . S
C259 C257 1.417 . S
C259 C261 1.329 . S
C259 H278 0.930 . S
C260 C256 1.415 . S
C260 C261 1.437 . S
C260 C264 1.413 . S
C261 C259 1.329 . S
C261 C260 1.437 . S
C261 H283 0.929 . S
N262 C256 1.369 . S
N262 C263 1.338 . S
N262 Gd267 2.622 . S
C263 N262 1.338 . S
C263 C265 1.378 . S
C263 H275 0.929 . S
C264 C260 1.413 . S
C264 C265 1.348 . S
C264 H280 0.931 . S
C265 C263 1.378 . S
C265 C264 1.348 . S
C265 H281 0.930 . S
Gd266 N286 2.622 . S
Gd266 N293 2.570 . S
Gd266 O300 2.360 . S
Gd266 O301 2.468 . S
Gd266 O302 2.427 . S
Gd266 O304 2.388 . S
Gd266 O305 2.386 . S
Gd266 O309 2.307 . S
Gd266 C319 2.805 . S
Gd267 N262 2.622 . S
Gd267 N268 2.570 . S
Gd267 O299 2.386 . S
Gd267 O303 2.307 1_655 S
Gd267 O306 2.353 1_655 S
Gd267 O307 2.468 . S
Gd267 O308 2.427 . S
Gd267 O310 2.388 . S
Gd267 C331 2.805 . S
N268 C258 1.359 . S
N268 Gd267 2.570 . S
N268 C270 1.343 . S
C269 C257 1.422 . S
C269 C271 1.321 . S
C269 H277 0.931 . S
C270 N268 1.343 . S
C270 C271 1.390 . S
C270 H272 0.931 . S
C271 C269 1.321 . S
C271 C270 1.390 . S
C271 H273 0.930 . S
H272 C270 0.931 . S
H273 C271 0.930 . S
H274 C297 0.931 . S
H275 C263 0.929 . S
H276 C298 0.930 1_545 S
H277 C269 0.931 . S
H278 C259 0.930 . S
H279 C288 0.929 . S
H280 C264 0.931 . S
H281 C265 0.930 . S
H282 C320 0.930 . S
H283 C261 0.929 . S
H284 C289 0.931 . S
H285 C290 0.930 . S
N286 Gd266 2.622 . S
N286 C287 1.369 . S
N286 C288 1.338 . S
C287 N286 1.369 . S
C287 C291 1.415 . S
C287 C294 1.422 . S
C288 H279 0.929 . S
C288 N286 1.338 . S
C288 C290 1.378 . S
C289 H284 0.931 . S
C289 C290 1.348 . S
C289 C291 1.413 . S
C290 H285 0.930 . S
C290 C288 1.378 . S
C290 C289 1.348 . S
C291 C287 1.415 . S
C291 C289 1.413 . S
C291 C321 1.437 . S
H292 C321 0.929 . S
N293 Gd266 2.570 . S
N293 C294 1.359 . S
N293 C297 1.343 . S
C294 C287 1.422 . S
C294 N293 1.359 . S
C294 C296 1.421 . S
C295 C296 1.422 . S
C295 C298 1.321 . S
C295 H322 0.931 1_565 S
C296 C294 1.421 . S
C296 C295 1.422 . S
C296 C320 1.417 . S
C297 H274 0.931 . S
C297 N293 1.343 . S
C297 C298 1.390 . S
C298 H276 0.930 1_565 S
C298 C295 1.321 . S
C298 C297 1.390 . S
O299 Gd267 2.386 . S
O299 C311 1.265 . S
O300 Gd266 2.360 . S
O300 C311 1.233 1_455 S
O301 Gd266 2.468 . S
O301 C319 1.263 . S
O302 Gd266 2.427 . S
O302 C319 1.252 . S
O303 Gd267 2.307 1_455 S
O303 C312 1.261 . S
O304 Gd266 2.388 . S
O304 C312 1.252 . S
O305 Gd266 2.386 . S
O305 C323 1.265 . S
O306 Gd267 2.353 1_455 S
O306 C323 1.242 . S
O307 Gd267 2.468 . S
O307 C331 1.263 . S
O308 Gd267 2.427 . S
O308 C331 1.252 . S
O309 Gd266 2.307 . S
O309 C324 1.261 1_455 S
O310 Gd267 2.388 . S
O310 C324 1.252 . S
C311 O299 1.265 . S
C311 O300 1.233 1_655 S
C312 O303 1.261 . S
C312 O304 1.252 . S
C313 C316 1.394 . S
C313 C318 1.370 . S
C313 C319 1.500 . S
C314 C317 1.383 . S
C314 C318 1.395 . S
C315 C316 1.396 . S
C315 C317 1.365 . S
C315 H332 0.929 . S
C316 C313 1.394 . S
C316 C315 1.396 . S
C316 H333 0.930 . S
C317 C314 1.383 . S
C317 C315 1.365 . S
C317 H334 0.931 . S
C318 C313 1.370 . S
C318 C314 1.395 . S
C318 H335 0.930 . S
C319 Gd266 2.805 . S
C319 O301 1.263 . S
C319 O302 1.252 . S
C319 C313 1.500 . S
C320 H282 0.930 . S
C320 C296 1.417 . S
C320 C321 1.329 . S
C321 C291 1.437 . S
C321 H292 0.929 . S
C321 C320 1.329 . S
H322 C295 0.931 1_545 S
C323 O305 1.265 . S
C323 O306 1.242 . S
C324 O309 1.261 1_655 S
C324 O310 1.252 . S
C325 C328 1.394 . S
C325 C330 1.370 . S
C325 C331 1.500 . S
C326 C329 1.383 . S
C326 C330 1.395 . S
C327 C328 1.396 . S
C327 C329 1.365 . S
C327 H336 0.929 . S
C328 C325 1.394 . S
C328 C327 1.396 . S
C328 H337 0.930 . S
C329 C326 1.383 . S
C329 C327 1.365 . S
C329 H338 0.931 . S
C330 C325 1.370 . S
C330 C326 1.395 . S
C330 H339 0.930 . S
C331 Gd267 2.805 . S
C331 O307 1.263 . S
C331 O308 1.252 . S
C331 C325 1.500 . S
H332 C315 0.929 . S
H333 C316 0.930 . S
H334 C317 0.931 . S
H335 C318 0.930 . S
H336 C327 0.929 . S
H337 C328 0.930 . S
H338 C329 0.931 . S
H339 C330 0.930 . S
C340 C342 1.422 . S
C340 C344 1.415 . S
C340 N346 1.369 . S
C341 C342 1.421 . S
C341 C343 1.417 . S
C341 C353 1.422 . S
C342 C340 1.422 . S
C342 C341 1.421 . S
C342 N352 1.359 . S
C343 C341 1.417 . S
C343 C345 1.329 . S
C343 H362 0.930 . S
C344 C340 1.415 . S
C344 C345 1.437 . S
C344 C348 1.413 . S
C345 C343 1.329 . S
C345 C344 1.437 . S
C345 H367 0.929 . S
N346 C340 1.369 . S
N346 C347 1.338 . S
N346 Gd351 2.622 . S
C347 N346 1.338 . S
C347 C349 1.378 . S
C347 H359 0.929 . S
C348 C344 1.413 . S
C348 C349 1.348 . S
C348 H364 0.931 . S
C349 C347 1.378 . S
C349 C348 1.348 . S
C349 H365 0.930 . S
Gd350 N370 2.622 . S
Gd350 N377 2.570 . S
Gd350 O384 2.353 . S
Gd350 O385 2.468 . S
Gd350 O386 2.427 . S
Gd350 O388 2.388 . S
Gd350 O389 2.386 . S
Gd350 O393 2.307 . S
Gd350 C403 2.805 . S
Gd351 N346 2.622 . S
Gd351 N352 2.570 . S
Gd351 O383 2.386 . S
Gd351 O387 2.307 . S
Gd351 O390 2.353 . S
Gd351 O391 2.468 . S
Gd351 O392 2.427 . S
Gd351 O394 2.388 . S
Gd351 C415 2.805 . S
N352 C342 1.359 . S
N352 Gd351 2.570 . S
N352 C354 1.343 . S
C353 C341 1.422 . S
C353 C355 1.321 . S
C353 H361 0.931 . S
C354 N352 1.343 . S
C354 C355 1.390 . S
C354 H356 0.931 . S
C355 C353 1.321 . S
C355 C354 1.390 . S
C355 H357 0.930 . S
H356 C354 0.931 . S
H357 C355 0.930 . S
H358 C381 0.931 . S
H359 C347 0.929 . S
H360 C382 0.930 . S
H361 C353 0.931 . S
H362 C343 0.930 . S
H363 C372 0.929 . S
H364 C348 0.931 . S
H365 C349 0.930 . S
H366 C404 0.930 . S
H367 C345 0.929 . S
H368 C373 0.931 . S
H369 C374 0.930 . S
N370 Gd350 2.622 . S
N370 C371 1.369 . S
N370 C372 1.338 . S
C371 N370 1.369 . S
C371 C375 1.415 . S
C371 C378 1.422 . S
C372 H363 0.929 . S
C372 N370 1.338 . S
C372 C374 1.378 . S
C373 H368 0.931 . S
C373 C374 1.348 . S
C373 C375 1.413 . S
C374 H369 0.930 . S
C374 C372 1.378 . S
C374 C373 1.348 . S
C375 C371 1.415 . S
C375 C373 1.413 . S
C375 C405 1.437 . S
H376 C405 0.929 . S
N377 Gd350 2.570 . S
N377 C378 1.359 . S
N377 C381 1.343 . S
C378 C371 1.422 . S
C378 N377 1.359 . S
C378 C380 1.421 . S
C379 C380 1.422 . S
C379 C382 1.321 . S
C379 H406 0.931 . S
C380 C378 1.421 . S
C380 C379 1.422 . S
C380 C404 1.417 . S
C381 H358 0.931 . S
C381 N377 1.343 . S
C381 C382 1.390 . S
C382 H360 0.930 . S
C382 C379 1.321 . S
C382 C381 1.390 . S
O383 Gd351 2.386 . S
O383 C395 1.265 . S
O384 Gd350 2.353 . S
O384 C395 1.242 . S
O385 Gd350 2.468 . S
O385 C403 1.263 . S
O386 Gd350 2.427 . S
O386 C403 1.252 . S
O387 Gd351 2.307 . S
O387 C396 1.261 . S
O388 Gd350 2.388 . S
O388 C396 1.252 . S
O389 Gd350 2.386 . S
O389 C407 1.265 . S
O390 Gd351 2.353 . S
O390 C407 1.242 . S
O391 Gd351 2.468 . S
O391 C415 1.263 . S
O392 Gd351 2.427 . S
O392 C415 1.252 . S
O393 Gd350 2.307 . S
O393 C408 1.261 . S
O394 Gd351 2.388 . S
O394 C408 1.252 . S
C395 O383 1.265 . S
C395 O384 1.242 . S
C396 O387 1.261 . S
C396 O388 1.252 . S
C397 C400 1.394 . S
C397 C402 1.370 . S
C397 C403 1.500 . S
C398 C401 1.383 . S
C398 C402 1.395 . S
C399 C400 1.396 . S
C399 C401 1.365 . S
C399 H416 0.929 . S
C400 C397 1.394 . S
C400 C399 1.396 . S
C400 H417 0.930 . S
C401 C398 1.383 . S
C401 C399 1.365 . S
C401 H418 0.931 . S
C402 C397 1.370 . S
C402 C398 1.395 . S
C402 H419 0.930 . S
C403 Gd350 2.805 . S
C403 O385 1.263 . S
C403 O386 1.252 . S
C403 C397 1.500 . S
C404 H366 0.930 . S
C404 C380 1.417 . S
C404 C405 1.329 . S
C405 C375 1.437 . S
C405 H376 0.929 . S
C405 C404 1.329 . S
H406 C379 0.931 . S
C407 O389 1.265 . S
C407 O390 1.242 . S
C408 O393 1.261 . S
C408 O394 1.252 . S
C409 C412 1.394 . S
C409 C414 1.370 . S
C409 C415 1.500 . S
C410 C413 1.383 . S
C410 C414 1.395 . S
C411 C412 1.396 . S
C411 C413 1.365 . S
C411 H420 0.929 . S
C412 C409 1.394 . S
C412 C411 1.396 . S
C412 H421 0.930 . S
C413 C410 1.383 . S
C413 C411 1.365 . S
C413 H422 0.931 . S
C414 C409 1.370 . S
C414 C410 1.395 . S
C414 H423 0.930 . S
C415 Gd351 2.805 . S
C415 O391 1.263 . S
C415 O392 1.252 . S
C415 C409 1.500 . S
H416 C399 0.929 . S
H417 C400 0.930 . S
H418 C401 0.931 . S
H419 C402 0.930 . S
H420 C411 0.929 . S
H421 C412 0.930 . S
H422 C413 0.931 . S
H423 C414 0.930 . S
H424 C436 0.930 . S
H425 C438 0.930 . S
H426 C439 0.930 . S
H427 C443 0.959 . S
H428 C443 0.959 . S
H429 C443 0.961 . S
H430 C444 0.960 . S
H431 C444 0.961 . S
H432 C444 0.959 . S
H433 C447 0.929 . S
H434 C448 0.931 . S
H435 C450 0.930 . S
C436 H424 0.930 . S
C436 C437 1.399 . S
C436 C441 1.399 . S
C437 C436 1.399 . S
C437 C438 1.376 . S
C438 H425 0.930 . S
C438 C437 1.376 . S
C438 C439 1.388 . S
C439 H426 0.930 . S
C439 C438 1.388 . S
C439 C440 1.390 . S
C440 C439 1.390 . S
C440 C441 1.394 . S
C440 C446 1.460 1_565 S
C441 C436 1.399 . S
C441 C440 1.394 . S
C441 C442 1.516 . S
C442 C441 1.516 . S
C442 C443 1.502 . S
C442 C444 1.561 . S
C442 C445 1.526 . S
C443 H427 0.959 . S
C443 H428 0.959 . S
C443 H429 0.961 . S
C443 C442 1.502 . S
C444 H430 0.960 . S
C444 H431 0.961 . S
C444 H432 0.959 . S
C444 C442 1.561 . S
C445 C442 1.526 . S
C445 C446 1.394 1_565 S
C445 C450 1.390 1_565 S
C446 C440 1.460 1_545 S
C446 C445 1.394 1_545 S
C446 C447 1.405 . S
C447 H433 0.929 . S
C447 C446 1.405 . S
C447 C448 1.385 . S
C448 H434 0.931 . S
C448 C447 1.385 . S
C448 C449 1.389 . S
C449 C448 1.389 . S
C449 C450 1.387 . S
C450 H435 0.930 . S
C450 C445 1.390 1_545 S
C450 C449 1.387 . S
H451 C463 0.930 . S
H452 C465 0.930 . S
H453 C466 0.930 . S
H454 C470 0.959 . S
H455 C470 0.959 . S
H456 C470 0.961 . S
H457 C471 0.960 . S
H458 C471 0.961 . S
H459 C471 0.959 . S
H460 C474 0.929 . S
H461 C475 0.931 . S
H462 C477 0.930 . S
C463 H451 0.930 . S
C463 C464 1.399 . S
C463 C468 1.399 . S
C464 C463 1.399 . S
C464 C465 1.376 . S
C465 H452 0.930 . S
C465 C464 1.376 . S
C465 C466 1.388 . S
C466 H453 0.930 . S
C466 C465 1.388 . S
C466 C467 1.390 . S
C467 C466 1.390 . S
C467 C468 1.394 . S
C467 C473 1.465 . S
C468 C463 1.399 . S
C468 C467 1.394 . S
C468 C469 1.516 . S
C469 C468 1.516 . S
C469 C470 1.502 . S
C469 C471 1.561 . S
C469 C472 1.526 . S
C470 H454 0.959 . S
C470 H455 0.959 . S
C470 H456 0.961 . S
C470 C469 1.502 . S
C471 H457 0.960 . S
C471 H458 0.961 . S
C471 H459 0.959 . S
C471 C469 1.561 . S
C472 C469 1.526 . S
C472 C473 1.396 . S
C472 C477 1.390 . S
C473 C467 1.465 . S
C473 C472 1.396 . S
C473 C474 1.399 . S
C474 H460 0.929 . S
C474 C473 1.399 . S
C474 C475 1.385 . S
C475 H461 0.931 . S
C475 C474 1.385 . S
C475 C476 1.389 . S
C476 C475 1.389 . S
C476 C477 1.387 . S
C477 H462 0.930 . S
C477 C472 1.390 . S
C477 C476 1.387 . S
H478 C490 0.930 . S
H479 C492 0.930 . S
H480 C493 0.930 . S
H481 C497 0.959 . S
H482 C497 0.959 . S
H483 C497 0.961 . S
H484 C498 0.960 . S
H485 C498 0.961 . S
H486 C498 0.959 . S
H487 C501 0.929 . S
H488 C502 0.931 . S
H489 C504 0.930 . S
C490 H478 0.930 . S
C490 C491 1.399 . S
C490 C495 1.399 . S
C491 C490 1.399 . S
C491 C492 1.376 . S
C492 H479 0.930 . S
C492 C491 1.376 . S
C492 C493 1.388 . S
C493 H480 0.930 . S
C493 C492 1.388 . S
C493 C494 1.390 . S
C494 C493 1.390 . S
C494 C495 1.394 . S
C494 C500 1.465 . S
C495 C490 1.399 . S
C495 C494 1.394 . S
C495 C496 1.516 . S
C496 C495 1.516 . S
C496 C497 1.502 . S
C496 C498 1.561 . S
C496 C499 1.526 . S
C497 H481 0.959 . S
C497 H482 0.959 . S
C497 H483 0.961 . S
C497 C496 1.502 . S
C498 H484 0.960 . S
C498 H485 0.961 . S
C498 H486 0.959 . S
C498 C496 1.561 . S
C499 C496 1.526 . S
C499 C500 1.396 . S
C499 C504 1.390 . S
C500 C494 1.465 . S
C500 C499 1.396 . S
C500 C501 1.399 . S
C501 H487 0.929 . S
C501 C500 1.399 . S
C501 C502 1.385 . S
C502 H488 0.931 . S
C502 C501 1.385 . S
C502 C503 1.389 . S
C503 C502 1.389 . S
C503 C504 1.387 . S
C504 H489 0.930 . S
C504 C499 1.390 . S
C504 C503 1.387 . S
H505 C517 0.930 . S
H506 C519 0.930 . S
H507 C520 0.930 . S
H508 C524 0.959 . S
H509 C524 0.959 1_545 S
H510 C524 0.961 . S
H511 C525 0.960 . S
H512 C525 0.961 . S
H513 C525 0.959 . S
H514 C528 0.921 1_565 S
H515 C529 0.931 . S
H516 C531 0.930 . S
C517 H505 0.930 . S
C517 C518 1.399 . S
C517 C522 1.399 . S
C518 C517 1.399 . S
C518 C519 1.376 . S
C519 H506 0.930 . S
C519 C518 1.376 . S
C519 C520 1.388 . S
C520 H507 0.930 . S
C520 C519 1.388 . S
C520 C521 1.390 . S
C521 C520 1.390 . S
C521 C522 1.394 . S
C521 C527 1.465 . S
C522 C517 1.399 . S
C522 C521 1.394 . S
C522 C523 1.516 . S
C523 C522 1.516 . S
C523 C524 1.502 . S
C523 C525 1.561 1_565 S
C523 C526 1.526 1_565 S
C524 H508 0.959 . S
C524 H509 0.959 1_565 S
C524 H510 0.961 . S
C524 C523 1.502 . S
C525 H511 0.960 . S
C525 H512 0.961 . S
C525 H513 0.959 . S
C525 C523 1.561 1_545 S
C526 C523 1.526 1_545 S
C526 C527 1.396 1_545 S
C526 C531 1.390 . S
C527 C521 1.465 . S
C527 C526 1.396 1_565 S
C527 C528 1.394 1_565 S
C528 H514 0.921 1_545 S
C528 C527 1.394 1_545 S
C528 C529 1.398 . S
C529 H515 0.931 . S
C529 C528 1.398 . S
C529 C530 1.389 . S
C530 C529 1.389 . S
C530 C531 1.387 . S
C531 H516 0.930 . S
C531 C526 1.390 . S
C531 C530 1.387 . S
H532 C544 0.930 . S
H533 C546 0.930 . S
H534 C547 0.930 . S
H535 C551 0.959 . S
H536 C551 0.959 . S
H537 C551 0.961 . S
H538 C552 0.963 . S
H539 C552 0.952 1_565 S
H540 C552 0.964 . S
H541 C555 0.929 . S
H542 C556 0.931 . S
H543 C558 0.930 . S
C544 H532 0.930 . S
C544 C545 1.399 . S
C544 C549 1.399 . S
C545 C544 1.399 . S
C545 C546 1.376 . S
C546 H533 0.930 . S
C546 C545 1.376 . S
C546 C547 1.388 . S
C547 H534 0.930 . S
C547 C546 1.388 . S
C547 C548 1.390 . S
C548 C547 1.390 . S
C548 C549 1.394 . S
C548 C554 1.465 . S
C549 C544 1.399 . S
C549 C548 1.394 . S
C549 C550 1.511 1_545 S
C550 C549 1.511 1_565 S
C550 C551 1.506 . S
C550 C552 1.561 1_565 S
C550 C553 1.527 . S
C551 H535 0.959 . S
C551 H536 0.959 . S
C551 H537 0.961 . S
C551 C550 1.506 . S
C552 H538 0.963 . S
C552 H539 0.952 1_545 S
C552 H540 0.964 . S
C552 C550 1.561 1_545 S
C553 C550 1.527 . S
C553 C554 1.396 1_565 S
C553 C558 1.390 . S
C554 C548 1.465 . S
C554 C553 1.396 1_545 S
C554 C555 1.399 . S
C555 H541 0.929 . S
C555 C554 1.399 . S
C555 C556 1.385 1_545 S
C556 H542 0.931 . S
C556 C555 1.385 1_565 S
C556 C557 1.389 . S
C557 C556 1.389 . S
C557 C558 1.387 . S
C558 H543 0.930 . S
C558 C553 1.390 . S
C558 C557 1.387 . S
H559 C571 0.930 . S
H560 C573 0.930 . S
H561 C574 0.930 . S
H562 C578 0.959 . S
H563 C578 0.959 . S
H564 C578 0.961 . S
H565 C579 0.960 . S
H566 C579 0.961 . S
H567 C579 0.959 . S
H568 C582 0.929 . S
H569 C583 0.931 . S
H570 C585 0.930 . S
C571 H559 0.930 . S
C571 C572 1.399 . S
C571 C576 1.399 . S
C572 C571 1.399 . S
C572 C573 1.376 . S
C573 H560 0.930 . S
C573 C572 1.376 . S
C573 C574 1.388 . S
C574 H561 0.930 . S
C574 C573 1.388 . S
C574 C575 1.390 . S
C575 C574 1.390 . S
C575 C576 1.394 . S
C575 C581 1.465 . S
C576 C571 1.399 . S
C576 C575 1.394 . S
C576 C577 1.516 . S
C577 C576 1.516 . S
C577 C578 1.502 . S
C577 C579 1.561 . S
C577 C580 1.526 . S
C578 H562 0.959 . S
C578 H563 0.959 . S
C578 H564 0.961 . S
C578 C577 1.502 . S
C579 H565 0.960 . S
C579 H566 0.961 . S
C579 H567 0.959 . S
C579 C577 1.561 . S
C580 C577 1.526 . S
C580 C581 1.396 . S
C580 C585 1.390 . S
C581 C575 1.465 . S
C581 C580 1.396 . S
C581 C582 1.399 . S
C582 H568 0.929 . S
C582 C581 1.399 . S
C582 C583 1.385 . S
C583 H569 0.931 . S
C583 C582 1.385 . S
C583 C584 1.389 . S
C584 C583 1.389 . S
C584 C585 1.387 . S
C585 H570 0.930 . S
C585 C580 1.390 . S
C585 C584 1.387 . S
H586 C598 0.930 . S
H587 C600 0.930 . S
H588 C601 0.930 . S
H589 C605 0.959 . S
H590 C605 0.959 . S
H591 C605 0.961 . S
H592 C606 0.960 . S
H593 C606 0.961 . S
H594 C606 0.959 . S
H595 C609 0.929 . S
H596 C610 0.931 . S
H597 C612 0.930 . S
C598 H586 0.930 . S
C598 C599 1.399 . S
C598 C603 1.399 . S
C599 C598 1.399 . S
C599 C600 1.376 . S
C600 H587 0.930 . S
C600 C599 1.376 . S
C600 C601 1.388 . S
C601 H588 0.930 . S
C601 C600 1.388 . S
C601 C602 1.390 . S
C602 C601 1.390 . S
C602 C603 1.394 . S
C602 C608 1.465 . S
C603 C598 1.399 . S
C603 C602 1.394 . S
C603 C604 1.516 . S
C604 C603 1.516 . S
C604 C605 1.502 . S
C604 C606 1.561 . S
C604 C607 1.526 . S
C605 H589 0.959 . S
C605 H590 0.959 . S
C605 H591 0.961 . S
C605 C604 1.502 . S
C606 H592 0.960 . S
C606 H593 0.961 . S
C606 H594 0.959 . S
C606 C604 1.561 . S
C607 C604 1.526 . S
C607 C608 1.396 . S
C607 C612 1.390 . S
C608 C602 1.465 . S
C608 C607 1.396 . S
C608 C609 1.399 . S
C609 H595 0.929 . S
C609 C608 1.399 . S
C609 C610 1.385 . S
C610 H596 0.931 . S
C610 C609 1.385 . S
C610 C611 1.389 . S
C611 C610 1.389 . S
C611 C612 1.387 . S
C612 H597 0.930 . S
C612 C607 1.390 . S
C612 C611 1.387 . S
H613 C625 0.930 . S
H614 C627 0.930 . S
H615 C628 0.930 . S
H616 C632 0.959 . S
H617 C632 0.959 . S
H618 C632 0.961 . S
H619 C633 0.960 . S
H620 C633 0.961 . S
H621 C633 0.959 . S
H622 C636 0.929 . S
H623 C637 0.931 . S
H624 C639 0.929 1_545 S
C625 H613 0.930 . S
C625 C626 1.399 . S
C625 C630 1.399 . S
C626 C625 1.399 . S
C626 C627 1.376 . S
C627 H614 0.930 . S
C627 C626 1.376 . S
C627 C628 1.388 1_545 S
C628 H615 0.930 . S
C628 C627 1.388 1_565 S
C628 C629 1.390 1_565 S
C629 C628 1.390 1_545 S
C629 C630 1.394 . S
C629 C635 1.465 1_545 S
C630 C625 1.399 . S
C630 C629 1.394 . S
C630 C631 1.516 . S
C631 C630 1.516 . S
C631 C632 1.502 . S
C631 C633 1.561 . S
C631 C634 1.549 . S
C632 H616 0.959 . S
C632 H617 0.959 . S
C632 H618 0.961 . S
C632 C631 1.502 . S
C633 H619 0.960 . S
C633 H620 0.961 . S
C633 H621 0.959 . S
C633 C631 1.561 . S
C634 C631 1.549 . S
C634 C635 1.382 1_545 S
C634 C639 1.379 1_545 S
C635 C629 1.465 1_565 S
C635 C634 1.382 1_565 S
C635 C636 1.399 . S
C636 H622 0.929 . S
C636 C635 1.399 . S
C636 C637 1.385 . S
C637 H623 0.931 . S
C637 C636 1.385 . S
C637 C638 1.389 . S
C638 C637 1.389 . S
C638 C639 1.387 . S
C639 H624 0.929 1_565 S
C639 C634 1.379 1_565 S
C639 C638 1.387 . S
H640 C652 0.930 . S
H641 C654 0.930 . S
H642 C655 0.930 . S
H643 C659 0.959 . S
H644 C659 0.959 . S
H645 C659 0.961 . S
H646 C660 0.960 1_556 S
H647 C660 0.961 . S
H648 C660 0.959 . S
H649 C663 0.929 . S
H650 C664 0.931 . S
H651 C666 0.930 . S
C652 H640 0.930 . S
C652 C653 1.399 . S
C652 C657 1.399 1_556 S
C653 C652 1.399 . S
C653 C654 1.376 . S
C654 H641 0.930 . S
C654 C653 1.376 . S
C654 C655 1.388 1_556 S
C655 H642 0.930 . S
C655 C654 1.388 1_554 S
C655 C656 1.390 . S
C656 C655 1.390 . S
C656 C657 1.394 . S
C656 C662 1.465 . S
C657 C652 1.399 1_554 S
C657 C656 1.394 . S
C657 C658 1.516 . S
C658 C657 1.516 . S
C658 C659 1.502 . S
C658 C660 1.561 . S
C658 C661 1.526 . S
C659 H643 0.959 . S
C659 H644 0.959 . S
C659 H645 0.961 . S
C659 C658 1.502 . S
C660 H646 0.960 1_554 S
C660 H647 0.961 . S
C660 H648 0.959 . S
C660 C658 1.561 . S
C661 C658 1.526 . S
C661 C662 1.396 . S
C661 C666 1.390 . S
C662 C656 1.465 . S
C662 C661 1.396 . S
C662 C663 1.399 . S
C663 H649 0.929 . S
C663 C662 1.399 . S
C663 C664 1.385 . S
C664 H650 0.931 . S
C664 C663 1.385 . S
C664 C665 1.389 . S
C665 C664 1.389 . S
C665 C666 1.387 . S
C666 H651 0.930 . S
C666 C661 1.390 . S
C666 C665 1.387 . S
H667 C679 0.930 . S
H668 C681 0.930 . S
H669 C682 0.930 . S
H670 C686 0.959 . S
H671 C686 0.959 . S
H672 C686 0.961 . S
H673 C687 0.960 . S
H674 C687 0.961 . S
H675 C687 0.959 . S
H676 C690 0.929 . S
H677 C691 0.931 . S
H678 C693 0.930 . S
C679 H667 0.930 . S
C679 C680 1.399 . S
C679 C684 1.399 . S
C680 C679 1.399 . S
C680 C681 1.376 . S
C681 H668 0.930 . S
C681 C680 1.376 . S
C681 C682 1.388 . S
C682 H669 0.930 . S
C682 C681 1.388 . S
C682 C683 1.390 . S
C683 C682 1.390 . S
C683 C684 1.394 . S
C683 C689 1.465 . S
C684 C679 1.399 . S
C684 C683 1.394 . S
C684 C685 1.516 . S
C685 C684 1.516 . S
C685 C686 1.502 . S
C685 C687 1.561 . S
C685 C688 1.526 . S
C686 H670 0.959 . S
C686 H671 0.959 . S
C686 H672 0.961 . S
C686 C685 1.502 . S
C687 H673 0.960 . S
C687 H674 0.961 . S
C687 H675 0.959 . S
C687 C685 1.561 . S
C688 C685 1.526 . S
C688 C689 1.396 . S
C688 C693 1.390 . S
C689 C683 1.465 . S
C689 C688 1.396 . S
C689 C690 1.399 . S
C690 H676 0.929 . S
C690 C689 1.399 . S
C690 C691 1.385 . S
C691 H677 0.931 . S
C691 C690 1.385 . S
C691 C692 1.389 . S
C692 C691 1.389 . S
C692 C693 1.387 . S
C693 H678 0.930 . S
C693 C688 1.390 . S
C693 C692 1.387 . S
H694 C706 0.930 . S
H695 C708 0.930 . S
H696 C709 0.930 . S
H697 C713 0.959 . S
H698 C713 0.959 . S
H699 C713 0.961 1_554 S
H700 C714 0.960 . S
H701 C714 0.961 . S
H702 C714 0.959 . S
H703 C717 0.929 . S
H704 C718 0.931 . S
H705 C720 0.930 . S
C706 H694 0.930 . S
C706 C707 1.399 . S
C706 C711 1.399 1_554 S
C707 C706 1.399 . S
C707 C708 1.376 . S
C708 H695 0.930 . S
C708 C707 1.376 . S
C708 C709 1.388 1_554 S
C709 H696 0.930 . S
C709 C708 1.388 1_556 S
C709 C710 1.390 . S
C710 C709 1.390 . S
C710 C711 1.394 . S
C710 C716 1.465 . S
C711 C706 1.399 1_556 S
C711 C710 1.394 . S
C711 C712 1.516 . S
C712 C711 1.516 . S
C712 C713 1.502 . S
C712 C714 1.561 . S
C712 C715 1.526 . S
C713 H697 0.959 . S
C713 H698 0.959 . S
C713 H699 0.961 1_556 S
C713 C712 1.502 . S
C714 H700 0.960 . S
C714 H701 0.961 . S
C714 H702 0.959 . S
C714 C712 1.561 . S
C715 C712 1.526 . S
C715 C716 1.396 . S
C715 C720 1.390 . S
C716 C710 1.465 . S
C716 C715 1.396 . S
C716 C717 1.399 . S
C717 H703 0.929 . S
C717 C716 1.399 . S
C717 C718 1.385 . S
C718 H704 0.931 . S
C718 C717 1.385 . S
C718 C719 1.389 . S
C719 C718 1.389 . S
C719 C720 1.387 . S
C720 H705 0.930 . S
C720 C715 1.390 . S
C720 C719 1.387 . S
H721 C733 0.930 . S
H722 C735 0.930 . S
H723 C736 0.930 . S
H724 C740 0.959 . S
H725 C740 0.959 . S
H726 C740 0.961 . S
H727 C741 0.960 . S
H728 C741 0.961 . S
H729 C741 0.959 . S
H730 C744 0.929 . S
H731 C745 0.931 . S
H732 C747 0.930 . S
C733 H721 0.930 . S
C733 C734 1.399 . S
C733 C738 1.399 . S
C734 C733 1.399 . S
C734 C735 1.376 . S
C735 H722 0.930 . S
C735 C734 1.376 . S
C735 C736 1.388 . S
C736 H723 0.930 . S
C736 C735 1.388 . S
C736 C737 1.390 . S
C737 C736 1.390 . S
C737 C738 1.394 . S
C737 C743 1.465 . S
C738 C733 1.399 . S
C738 C737 1.394 . S
C738 C739 1.516 . S
C739 C738 1.516 . S
C739 C740 1.502 . S
C739 C741 1.561 . S
C739 C742 1.526 . S
C740 H724 0.959 . S
C740 H725 0.959 . S
C740 H726 0.961 . S
C740 C739 1.502 . S
C741 H727 0.960 . S
C741 H728 0.961 . S
C741 H729 0.959 . S
C741 C739 1.561 . S
C742 C739 1.526 . S
C742 C743 1.396 . S
C742 C747 1.390 . S
C743 C737 1.465 . S
C743 C742 1.396 . S
C743 C744 1.399 . S
C744 H730 0.929 . S
C744 C743 1.399 . S
C744 C745 1.385 . S
C745 H731 0.931 . S
C745 C744 1.385 . S
C745 C746 1.389 . S
C746 C745 1.389 . S
C746 C747 1.387 . S
C747 H732 0.930 . S
C747 C742 1.390 . S
C747 C746 1.387 . S
H748 C760 0.930 . S
H749 C762 0.930 . S
H750 C763 0.930 . S
H751 C767 0.959 . S
H752 C767 0.959 . S
H753 C767 0.961 . S
H754 C768 0.960 . S
H755 C768 0.961 . S
H756 C768 0.959 . S
H757 C771 0.929 . S
H758 C772 0.931 . S
H759 C774 0.930 . S
C760 H748 0.930 . S
C760 C761 1.399 . S
C760 C765 1.399 1_554 S
C761 C760 1.399 . S
C761 C762 1.376 . S
C762 H749 0.930 . S
C762 C761 1.376 . S
C762 C763 1.388 1_554 S
C763 H750 0.930 . S
C763 C762 1.388 1_556 S
C763 C764 1.390 . S
C764 C763 1.390 . S
C764 C765 1.394 . S
C764 C770 1.465 . S
C765 C760 1.399 1_556 S
C765 C764 1.394 . S
C765 C766 1.516 . S
C766 C765 1.516 . S
C766 C767 1.502 . S
C766 C768 1.561 . S
C766 C769 1.526 . S
C767 H751 0.959 . S
C767 H752 0.959 . S
C767 H753 0.961 . S
C767 C766 1.502 . S
C768 H754 0.960 . S
C768 H755 0.961 . S
C768 H756 0.959 . S
C768 C766 1.561 . S
C769 C766 1.526 . S
C769 C770 1.396 . S
C769 C774 1.390 . S
C770 C764 1.465 . S
C770 C769 1.396 . S
C770 C771 1.399 . S
C771 H757 0.929 . S
C771 C770 1.399 . S
C771 C772 1.385 . S
C772 H758 0.931 . S
C772 C771 1.385 . S
C772 C773 1.389 . S
C773 C772 1.389 . S
C773 C774 1.387 . S
C774 H759 0.930 . S
C774 C769 1.390 . S
C774 C773 1.387 . S
H775 C787 0.930 . S
H776 C789 0.930 . S
H777 C790 0.930 . S
H778 C794 0.959 . S
H779 C794 0.959 . S
H780 C794 0.961 . S
H781 C795 0.960 . S
H782 C795 0.961 . S
H783 C795 0.959 . S
H784 C798 0.929 . S
H785 C799 0.931 . S
H786 C801 0.930 . S
C787 H775 0.930 . S
C787 C788 1.399 . S
C787 C792 1.399 . S
C788 C787 1.399 . S
C788 C789 1.376 . S
C789 H776 0.930 . S
C789 C788 1.376 . S
C789 C790 1.388 . S
C790 H777 0.930 . S
C790 C789 1.388 . S
C790 C791 1.390 . S
C791 C790 1.390 . S
C791 C792 1.394 . S
C791 C797 1.465 . S
C792 C787 1.399 . S
C792 C791 1.394 . S
C792 C793 1.516 . S
C793 C792 1.516 . S
C793 C794 1.502 . S
C793 C795 1.561 . S
C793 C796 1.526 . S
C794 H778 0.959 . S
C794 H779 0.959 . S
C794 H780 0.961 . S
C794 C793 1.502 . S
C795 H781 0.960 . S
C795 H782 0.961 . S
C795 H783 0.959 . S
C795 C793 1.561 . S
C796 C793 1.526 . S
C796 C797 1.396 . S
C796 C801 1.390 . S
C797 C791 1.465 . S
C797 C796 1.396 . S
C797 C798 1.399 . S
C798 H784 0.929 . S
C798 C797 1.399 . S
C798 C799 1.385 . S
C799 H785 0.931 . S
C799 C798 1.385 . S
C799 C800 1.389 . S
C800 C799 1.389 . S
C800 C801 1.387 . S
C801 H786 0.930 . S
C801 C796 1.390 . S
C801 C800 1.387 . S
H802 C814 0.930 . S
H803 C816 0.930 . S
H804 C817 0.930 . S
H805 C821 0.959 . S
H806 C821 0.959 . S
H807 C821 0.961 . S
H808 C822 0.960 . S
H809 C822 0.961 . S
H810 C822 0.959 . S
H811 C825 0.929 . S
H812 C826 0.931 . S
H813 C828 0.930 . S
C814 H802 0.930 . S
C814 C815 1.399 . S
C814 C819 1.399 1_556 S
C815 C814 1.399 . S
C815 C816 1.376 . S
C816 H803 0.930 . S
C816 C815 1.376 . S
C816 C817 1.388 1_556 S
C817 H804 0.930 . S
C817 C816 1.388 1_554 S
C817 C818 1.390 . S
C818 C817 1.390 . S
C818 C819 1.394 . S
C818 C824 1.465 . S
C819 C814 1.399 1_554 S
C819 C818 1.394 . S
C819 C820 1.516 . S
C820 C819 1.516 . S
C820 C821 1.502 . S
C820 C822 1.561 . S
C820 C823 1.526 . S
C821 H805 0.959 . S
C821 H806 0.959 . S
C821 H807 0.961 . S
C821 C820 1.502 . S
C822 H808 0.960 . S
C822 H809 0.961 . S
C822 H810 0.959 . S
C822 C820 1.561 . S
C823 C820 1.526 . S
C823 C824 1.396 . S
C823 C828 1.390 . S
C824 C818 1.465 . S
C824 C823 1.396 . S
C824 C825 1.399 . S
C825 H811 0.929 . S
C825 C824 1.399 . S
C825 C826 1.385 . S
C826 H812 0.931 . S
C826 C825 1.385 . S
C826 C827 1.389 . S
C827 C826 1.389 . S
C827 C828 1.387 . S
C828 H813 0.930 . S
C828 C823 1.390 . S
C828 C827 1.387 . S
H829 C841 0.930 . S
H830 C843 0.930 . S
H831 C844 0.930 . S
H832 C848 0.959 . S
H833 C848 0.959 . S
H834 C848 0.961 . S
H835 C849 0.960 . S
H836 C849 0.961 . S
H837 C849 0.959 . S
H838 C852 0.929 . S
H839 C853 0.931 . S
H840 C855 0.930 . S
C841 H829 0.930 . S
C841 C842 1.399 . S
C841 C846 1.399 . S
C842 C841 1.399 . S
C842 C843 1.376 . S
C843 H830 0.930 . S
C843 C842 1.376 . S
C843 C844 1.388 . S
C844 H831 0.930 . S
C844 C843 1.388 . S
C844 C845 1.390 . S
C845 C844 1.390 . S
C845 C846 1.394 . S
C845 C851 1.465 . S
C846 C841 1.399 . S
C846 C845 1.394 . S
C846 C847 1.516 . S
C847 C846 1.516 . S
C847 C848 1.502 . S
C847 C849 1.561 . S
C847 C850 1.526 . S
C848 H832 0.959 . S
C848 H833 0.959 . S
C848 H834 0.961 . S
C848 C847 1.502 . S
C849 H835 0.960 . S
C849 H836 0.961 . S
C849 H837 0.959 . S
C849 C847 1.561 . S
C850 C847 1.526 . S
C850 C851 1.396 . S
C850 C855 1.390 . S
C851 C845 1.465 . S
C851 C850 1.396 . S
C851 C852 1.399 . S
C852 H838 0.929 . S
C852 C851 1.399 . S
C852 C853 1.385 . S
C853 H839 0.931 . S
C853 C852 1.385 . S
C853 C854 1.389 . S
C854 C853 1.389 . S
C854 C855 1.387 . S
C855 H840 0.930 . S
C855 C850 1.390 . S
C855 C854 1.387 . S
H856 C868 0.930 . S
H857 C870 0.930 . S
H858 C871 0.930 . S
H859 C875 0.959 . S
H860 C875 0.959 . S
H861 C875 0.961 . S
H862 C876 0.960 . S
H863 C876 0.961 . S
H864 C876 0.959 . S
H865 C879 0.929 . S
H866 C880 0.931 . S
H867 C882 0.930 . S
C868 H856 0.930 . S
C868 C869 1.399 . S
C868 C873 1.399 . S
C869 C868 1.399 . S
C869 C870 1.376 . S
C870 H857 0.930 . S
C870 C869 1.376 . S
C870 C871 1.388 . S
C871 H858 0.930 . S
C871 C870 1.388 . S
C871 C872 1.390 . S
C872 C871 1.390 . S
C872 C873 1.394 . S
C872 C878 1.465 . S
C873 C868 1.399 . S
C873 C872 1.394 . S
C873 C874 1.516 . S
C874 C873 1.516 . S
C874 C875 1.502 . S
C874 C876 1.561 . S
C874 C877 1.526 . S
C875 H859 0.959 . S
C875 H860 0.959 . S
C875 H861 0.961 . S
C875 C874 1.502 . S
C876 H862 0.960 . S
C876 H863 0.961 . S
C876 H864 0.959 . S
C876 C874 1.561 . S
C877 C874 1.526 . S
C877 C878 1.396 . S
C877 C882 1.390 . S
C878 C872 1.465 . S
C878 C877 1.396 . S
C878 C879 1.399 . S
C879 H865 0.929 . S
C879 C878 1.399 . S
C879 C880 1.385 . S
C880 H866 0.931 . S
C880 C879 1.385 . S
C880 C881 1.389 . S
C881 C880 1.389 . S
C881 C882 1.387 . S
C882 H867 0.930 . S
C882 C877 1.390 . S
C882 C881 1.387 . S
H883 C895 0.930 . S
H884 C897 0.930 . S
H885 C898 0.930 . S
H886 C902 0.959 . S
H887 C902 0.959 . S
H888 C902 0.961 . S
H889 C903 0.960 . S
H890 C903 0.961 . S
H891 C903 0.959 . S
H892 C906 0.929 . S
H893 C907 0.931 . S
H894 C909 0.930 . S
C895 H883 0.930 . S
C895 C896 1.399 . S
C895 C900 1.399 . S
C896 C895 1.399 . S
C896 C897 1.376 . S
C897 H884 0.930 . S
C897 C896 1.376 . S
C897 C898 1.388 . S
C898 H885 0.930 . S
C898 C897 1.388 . S
C898 C899 1.390 . S
C899 C898 1.390 . S
C899 C900 1.394 . S
C899 C905 1.465 . S
C900 C895 1.399 . S
C900 C899 1.394 . S
C900 C901 1.516 . S
C901 C900 1.516 . S
C901 C902 1.502 . S
C901 C903 1.561 . S
C901 C904 1.526 . S
C902 H886 0.959 . S
C902 H887 0.959 . S
C902 H888 0.961 . S
C902 C901 1.502 . S
C903 H889 0.960 . S
C903 H890 0.961 . S
C903 H891 0.959 . S
C903 C901 1.561 . S
C904 C901 1.526 . S
C904 C905 1.396 . S
C904 C909 1.390 . S
C905 C899 1.465 . S
C905 C904 1.396 . S
C905 C906 1.399 . S
C906 H892 0.929 . S
C906 C905 1.399 . S
C906 C907 1.385 . S
C907 H893 0.931 . S
C907 C906 1.385 . S
C907 C908 1.389 . S
C908 C907 1.389 . S
C908 C909 1.387 . S
C909 H894 0.930 . S
C909 C904 1.390 . S
C909 C908 1.387 . S
H910 C922 0.930 . S
H911 C924 0.930 . S
H912 C925 0.930 . S
H913 C929 0.959 . S
H914 C929 0.959 . S
H915 C929 0.961 . S
H916 C930 0.960 . S
H917 C930 0.961 . S
H918 C930 0.959 . S
H919 C933 0.929 . S
H920 C934 0.931 . S
H921 C936 0.930 . S
C922 H910 0.930 . S
C922 C923 1.399 . S
C922 C927 1.399 . S
C923 C922 1.399 . S
C923 C924 1.376 . S
C924 H911 0.930 . S
C924 C923 1.376 . S
C924 C925 1.388 . S
C925 H912 0.930 . S
C925 C924 1.388 . S
C925 C926 1.390 . S
C926 C925 1.390 . S
C926 C927 1.394 . S
C926 C932 1.465 . S
C927 C922 1.399 . S
C927 C926 1.394 . S
C927 C928 1.516 . S
C928 C927 1.516 . S
C928 C929 1.502 . S
C928 C930 1.561 . S
C928 C931 1.526 . S
C929 H913 0.959 . S
C929 H914 0.959 . S
C929 H915 0.961 . S
C929 C928 1.502 . S
C930 H916 0.960 . S
C930 H917 0.961 . S
C930 H918 0.959 . S
C930 C928 1.561 . S
C931 C928 1.526 . S
C931 C932 1.396 . S
C931 C936 1.390 . S
C932 C926 1.465 . S
C932 C931 1.396 . S
C932 C933 1.399 . S
C933 H919 0.929 . S
C933 C932 1.399 . S
C933 C934 1.385 . S
C934 H920 0.931 . S
C934 C933 1.385 . S
C934 C935 1.389 . S
C935 C934 1.389 . S
C935 C936 1.387 . S
C936 H921 0.930 . S
C936 C931 1.390 . S
C936 C935 1.387 . S
H937 C949 0.930 . S
H938 C951 0.930 . S
H939 C952 0.930 . S
H940 C956 0.959 . S
H941 C956 0.959 . S
H942 C956 0.961 . S
H943 C957 0.960 . S
H944 C957 0.961 . S
H945 C957 0.959 . S
H946 C960 0.929 . S
H947 C961 0.931 . S
H948 C963 0.930 . S
C949 H937 0.930 . S
C949 C950 1.399 . S
C949 C954 1.399 . S
C950 C949 1.399 . S
C950 C951 1.376 . S
C951 H938 0.930 . S
C951 C950 1.376 . S
C951 C952 1.388 . S
C952 H939 0.930 . S
C952 C951 1.388 . S
C952 C953 1.390 . S
C953 C952 1.390 . S
C953 C954 1.394 . S
C953 C959 1.465 . S
C954 C949 1.399 . S
C954 C953 1.394 . S
C954 C955 1.516 . S
C955 C954 1.516 . S
C955 C956 1.502 . S
C955 C957 1.561 . S
C955 C958 1.526 . S
C956 H940 0.959 . S
C956 H941 0.959 . S
C956 H942 0.961 . S
C956 C955 1.502 . S
C957 H943 0.960 . S
C957 H944 0.961 . S
C957 H945 0.959 . S
C957 C955 1.561 . S
C958 C955 1.526 . S
C958 C959 1.396 . S
C958 C963 1.390 . S
C959 C953 1.465 . S
C959 C958 1.396 . S
C959 C960 1.399 . S
C960 H946 0.929 . S
C960 C959 1.399 . S
C960 C961 1.385 . S
C961 H947 0.931 . S
C961 C960 1.385 . S
C961 C962 1.389 . S
C962 C961 1.389 . S
C962 C963 1.387 . S
C963 H948 0.930 . S
C963 C958 1.390 . S
C963 C962 1.387 . S
H964 C976 0.930 . S
H965 C978 0.930 . S
H966 C979 0.930 . S
H967 C983 0.959 . S
H968 C983 0.959 . S
H969 C983 0.961 . S
H970 C984 0.960 . S
H971 C984 0.961 . S
H972 C984 0.959 . S
H973 C987 0.929 . S
H974 C988 0.931 . S
H975 C990 0.930 . S
C976 H964 0.930 . S
C976 C977 1.399 . S
C976 C981 1.399 . S
C977 C976 1.399 . S
C977 C978 1.376 . S
C978 H965 0.930 . S
C978 C977 1.376 . S
C978 C979 1.388 . S
C979 H966 0.930 . S
C979 C978 1.388 . S
C979 C980 1.390 . S
C980 C979 1.390 . S
C980 C981 1.394 . S
C980 C986 1.465 . S
C981 C976 1.399 . S
C981 C980 1.394 . S
C981 C982 1.516 . S
C982 C981 1.516 . S
C982 C983 1.502 . S
C982 C984 1.561 . S
C982 C985 1.526 . S
C983 H967 0.959 . S
C983 H968 0.959 . S
C983 H969 0.961 . S
C983 C982 1.502 . S
C984 H970 0.960 . S
C984 H971 0.961 . S
C984 H972 0.959 . S
C984 C982 1.561 . S
C985 C982 1.526 . S
C985 C986 1.396 . S
C985 C990 1.390 . S
C986 C980 1.465 . S
C986 C985 1.396 . S
C986 C987 1.399 . S
C987 H973 0.929 . S
C987 C986 1.399 . S
C987 C988 1.385 . S
C988 H974 0.931 . S
C988 C987 1.385 . S
C988 C989 1.389 . S
C989 C988 1.389 . S
C989 C990 1.387 . S
C990 H975 0.930 . S
C990 C985 1.390 . S
C990 C989 1.387 . S
H991 C1003 0.930 . S
H992 C1005 0.930 . S
H993 C1006 0.930 . S
H994 C1010 0.959 . S
H995 C1010 0.959 . S
H996 C1010 0.961 . S
H997 C1011 0.960 . S
H998 C1011 0.961 . S
H999 C1011 0.959 . S
H1000 C1014 0.929 . S
H1001 C1015 0.931 . S
H1002 C1017 0.930 . S
C1003 H991 0.930 . S
C1003 C1004 1.399 . S
C1003 C1008 1.399 . S
C1004 C1003 1.399 . S
C1004 C1005 1.376 . S
C1005 H992 0.930 . S
C1005 C1004 1.376 . S
C1005 C1006 1.388 . S
C1006 H993 0.930 . S
C1006 C1005 1.388 . S
C1006 C1007 1.390 . S
C1007 C1006 1.390 . S
C1007 C1008 1.394 . S
C1007 C1013 1.465 . S
C1008 C1003 1.399 . S
C1008 C1007 1.394 . S
C1008 C1009 1.516 . S
C1009 C1008 1.516 . S
C1009 C1010 1.502 . S
C1009 C1011 1.561 . S
C1009 C1012 1.526 . S
C1010 H994 0.959 . S
C1010 H995 0.959 . S
C1010 H996 0.961 . S
C1010 C1009 1.502 . S
C1011 H997 0.960 . S
C1011 H998 0.961 . S
C1011 H999 0.959 . S
C1011 C1009 1.561 . S
C1012 C1009 1.526 . S
C1012 C1013 1.396 . S
C1012 C1017 1.390 . S
C1013 C1007 1.465 . S
C1013 C1012 1.396 . S
C1013 C1014 1.399 . S
C1014 H1000 0.929 . S
C1014 C1013 1.399 . S
C1014 C1015 1.385 . S
C1015 H1001 0.931 . S
C1015 C1014 1.385 . S
C1015 C1016 1.389 . S
C1016 C1015 1.389 . S
C1016 C1017 1.387 . S
C1017 H1002 0.930 . S
C1017 C1012 1.390 . S
C1017 C1016 1.387 . S
H1018 C1030 0.930 . S
H1019 C1032 0.930 . S
H1020 C1033 0.930 . S
H1021 C1037 0.959 . S
H1022 C1037 0.959 . S
H1023 C1037 0.961 . S
H1024 C1038 0.960 . S
H1025 C1038 0.961 . S
H1026 C1038 0.959 . S
H1027 C1041 0.929 . S
H1028 C1042 0.931 . S
H1029 C1044 0.930 . S
C1030 H1018 0.930 . S
C1030 C1031 1.399 . S
C1030 C1035 1.399 . S
C1031 C1030 1.399 . S
C1031 C1032 1.376 . S
C1032 H1019 0.930 . S
C1032 C1031 1.376 . S
C1032 C1033 1.388 . S
C1033 H1020 0.930 . S
C1033 C1032 1.388 . S
C1033 C1034 1.390 . S
C1034 C1033 1.390 . S
C1034 C1035 1.394 . S
C1034 C1040 1.465 . S
C1035 C1030 1.399 . S
C1035 C1034 1.394 . S
C1035 C1036 1.516 . S
C1036 C1035 1.516 . S
C1036 C1037 1.502 . S
C1036 C1038 1.561 . S
C1036 C1039 1.526 . S
C1037 H1021 0.959 . S
C1037 H1022 0.959 . S
C1037 H1023 0.961 . S
C1037 C1036 1.502 . S
C1038 H1024 0.960 . S
C1038 H1025 0.961 . S
C1038 H1026 0.959 . S
C1038 C1036 1.561 . S
C1039 C1036 1.526 . S
C1039 C1040 1.396 . S
C1039 C1044 1.390 . S
C1040 C1034 1.465 . S
C1040 C1039 1.396 . S
C1040 C1041 1.399 . S
C1041 H1027 0.929 . S
C1041 C1040 1.399 . S
C1041 C1042 1.385 . S
C1042 H1028 0.931 . S
C1042 C1041 1.385 . S
C1042 C1043 1.389 . S
C1043 C1042 1.389 . S
C1043 C1044 1.387 . S
C1044 H1029 0.930 . S
C1044 C1039 1.390 . S
C1044 C1043 1.387 . S
H1045 C1057 0.930 . S
H1046 C1059 0.930 . S
H1047 C1060 0.930 . S
H1048 C1064 0.959 . S
H1049 C1064 0.959 . S
H1050 C1064 0.961 . S
H1051 C1065 0.960 . S
H1052 C1065 0.961 . S
H1053 C1065 0.959 . S
H1054 C1068 0.929 . S
H1055 C1069 0.931 . S
H1056 C1071 0.930 . S
C1057 H1045 0.930 . S
C1057 C1058 1.399 . S
C1057 C1062 1.399 . S
C1058 C1057 1.399 . S
C1058 C1059 1.376 . S
C1059 H1046 0.930 . S
C1059 C1058 1.376 . S
C1059 C1060 1.388 . S
C1060 H1047 0.930 . S
C1060 C1059 1.388 . S
C1060 C1061 1.390 . S
C1061 C1060 1.390 . S
C1061 C1062 1.394 . S
C1061 C1067 1.465 . S
C1062 C1057 1.399 . S
C1062 C1061 1.394 . S
C1062 C1063 1.516 . S
C1063 C1062 1.516 . S
C1063 C1064 1.502 . S
C1063 C1065 1.561 . S
C1063 C1066 1.526 . S
C1064 H1048 0.959 . S
C1064 H1049 0.959 . S
C1064 H1050 0.961 . S
C1064 C1063 1.502 . S
C1065 H1051 0.960 . S
C1065 H1052 0.961 . S
C1065 H1053 0.959 . S
C1065 C1063 1.561 . S
C1066 C1063 1.526 . S
C1066 C1067 1.396 . S
C1066 C1071 1.390 . S
C1067 C1061 1.465 . S
C1067 C1066 1.396 . S
C1067 C1068 1.399 . S
C1068 H1054 0.929 . S
C1068 C1067 1.399 . S
C1068 C1069 1.385 . S
C1069 H1055 0.931 . S
C1069 C1068 1.385 . S
C1069 C1070 1.389 . S
C1070 C1069 1.389 . S
C1070 C1071 1.387 . S
C1071 H1056 0.930 . S
C1071 C1066 1.390 . S
C1071 C1070 1.387 . S
C437 C73 1.593 . S
C449 C144 1.642 . S
C476 C228 1.723 . S
C464 C84 1.705 . S
C503 C227 1.651 . S
C491 C51 1.592 . S
C518 C62 1.698 . S
C530 C143 1.756 . S
C557 C324 1.621 . S
C545 C29 1.546 . S
C584 C408 1.594 . S
C572 C38 1.415 . S
C599 C7 1.609 . S
C611 C407 1.634 . S
C626 C16 1.429 . S
C638 C323 1.566 . S
C665 C146 1.436 . S
C653 C18 1.652 . S
C692 C230 1.494 . S
C680 C5 1.385 . S
C719 C242 1.393 . S
C707 C40 1.637 . S
C746 C158 1.427 . S
C734 C27 1.439 . S
C773 C326 1.265 . S
C761 C60 1.285 . S
C788 C49 1.296 . S
C800 C410 1.306 . S
C827 C398 1.338 . S
C815 C82 1.289 . S
C842 C71 1.408 . S
C854 C314 1.368 . S
C881 C155 1.658 . S
C869 C8 1.647 . S
C908 C239 1.565 . S
C896 C19 1.544 . S
C923 C30 1.610 . S
C935 C240 1.620 . S
C962 C156 1.551 . S
C950 C41 1.554 . S
C989 C311 1.416 . S
C977 C52 1.423 . S
C1004 C63 1.544 . S
C1016 C395 1.547 . S
C1031 C74 1.406 . S
C1043 C396 1.352 . S
C1058 C85 1.534 . S
C1070 C312 1.532 . S
