# Generated by pormake.
# Topology pyr, (3,6)-cn, num edge types: 1
# Building blocks:
#     Node 0, Type 0, BuildingBlock: OLANEW_clean_sbu_2, # of connection points: 3
#     Node 1, Type 0, BuildingBlock: OLANEW_clean_sbu_2, # of connection points: 3
#     Node 2, Type 0, BuildingBlock: OLANEW_clean_sbu_2, # of connection points: 3
#     Node 3, Type 0, BuildingBlock: OLANEW_clean_sbu_2, # of connection points: 3
#     Node 4, Type 0, BuildingBlock: OLANEW_clean_sbu_2, # of connection points: 3
#     Node 5, Type 0, BuildingBlock: OLANEW_clean_sbu_2, # of connection points: 3
#     Node 6, Type 0, BuildingBlock: OLANEW_clean_sbu_2, # of connection points: 3
#     Node 7, Type 0, BuildingBlock: OLANEW_clean_sbu_2, # of connection points: 3
#     Node 8, Type 1, BuildingBlock: BETGAK_clean_sbu_0, # of connection points: 6
#     Node 9, Type 1, BuildingBlock: BETGAK_clean_sbu_0, # of connection points: 6
#     Node 10, Type 1, BuildingBlock: BETGAK_clean_sbu_0, # of connection points: 6
#     Node 11, Type 1, BuildingBlock: BETGAK_clean_sbu_0, # of connection points: 6
#     Edge 12, Type (0, 1), None
#     Edge 13, Type (0, 1), None
#     Edge 14, Type (0, 1), None
#     Edge 15, Type (0, 1), None
#     Edge 16, Type (0, 1), None
#     Edge 17, Type (0, 1), None
#     Edge 18, Type (0, 1), None
#     Edge 19, Type (0, 1), None
#     Edge 20, Type (0, 1), None
#     Edge 21, Type (0, 1), None
#     Edge 22, Type (0, 1), None
#     Edge 23, Type (0, 1), None
#     Edge 24, Type (0, 1), None
#     Edge 25, Type (0, 1), None
#     Edge 26, Type (0, 1), None
#     Edge 27, Type (0, 1), None
#     Edge 28, Type (0, 1), None
#     Edge 29, Type (0, 1), None
#     Edge 30, Type (0, 1), None
#     Edge 31, Type (0, 1), None
#     Edge 32, Type (0, 1), None
#     Edge 33, Type (0, 1), None
#     Edge 34, Type (0, 1), None
#     Edge 35, Type (0, 1), None
# Relax obj value: 0.359
# Max RMSD: 0.203
# Mean RMSD: 0.133
data_MOF--net-pyr--node1-OLANEW_clean_sbu_2--node2-BETGAK_clean_sbu_0--edge1-none
_symmetry_space_group_name_H-M    P1
_symmetry_Int_Tables_number       1
_symmetry_cell_setting            triclinic
loop_
_symmetry_equiv_pos_as_xyz
'x, y, z'
_cell_length_a     20.255174
_cell_length_b     21.686154
_cell_length_c     19.333831
_cell_angle_alpha  96.884776
_cell_angle_beta   86.034504
_cell_angle_gamma 105.74084
loop_
_atom_site_label
_atom_site_type_symbol
_atom_site_fract_x
_atom_site_fract_y
_atom_site_fract_z
_atom_type_partial_charge
O0 O 0.53296 0.33914 0.30244 0.0
Cd1 Cd 0.48139 0.43474 0.30586 0.0
O2 O 0.4401 0.28485 0.25102 0.0
Cd3 Cd 0.36236 0.19992 0.21225 0.0
O4 O 0.2975 0.13975 0.28473 0.0
C5 C 0.32256 0.15632 0.34467 0.0
O6 O 0.37925 0.20284 0.35171 0.0
C7 C 0.4963 0.28517 0.27682 0.0
C8 C 0.35335 0.44226 0.25635 0.0
O9 O 0.40765 0.44809 0.21655 0.0
O10 O 0.35742 0.42844 0.31836 0.0
O11 O 0.1622 0.99284 0.88317 0.0
Cd12 Cd 0.1083 0.91201 0.79234 0.0
O13 O 0.09657 0.9326 0.95772 0.0
Cd14 Cd 0.01547 0.9202 0.88399 0.0
O15 O 0.99653 0.9554 0.78785 0.0
C16 C 0.97304 1.00384 0.78591 0.0
O17 O 0.9515 1.03185 0.84375 0.0
C18 C 0.15284 0.9731 0.94325 0.0
C19 C 0.20487 0.84204 0.78167 0.0
O20 O 0.2076 0.88469 0.74024 0.0
O21 O 0.15247 0.828 0.82366 0.0
O22 O 0.8123 0.5569 0.99611 0.0
Cd23 Cd 0.69628 0.5291 0.92558 0.0
O24 O 0.81618 0.47999 1.06362 0.0
Cd25 Cd 0.72125 0.39455 1.06423 0.0
O26 O 0.63766 0.30428 0.08859 0.0
C27 C 0.64854 0.25511 0.11184 0.0
O28 O 0.71186 0.25482 0.12197 0.0
C29 C 0.84379 0.53437 1.03962 0.0
C30 C 0.6309 0.58262 0.82227 0.0
O31 O 0.61707 0.59091 0.888 0.0
O32 O 0.67714 0.55261 0.80453 0.0
O33 O 0.95965 0.91882 0.45022 0.0
Cd34 Cd 0.92515 0.81629 0.35875 0.0
O35 O 0.86274 0.90113 0.51562 0.0
Cd36 Cd 0.78781 0.81031 0.48883 0.0
O37 O 0.69597 0.78757 0.55821 0.0
C38 C 0.68847 0.74555 0.60058 0.0
O39 O 0.73342 0.71173 0.59921 0.0
C40 C 0.92205 0.93653 0.50135 0.0
C41 C 0.98739 0.72761 0.26851 0.0
O42 O 0.97981 0.77852 0.24601 0.0
O43 O 0.97094 0.72078 0.33304 0.0
O44 O 0.62274 0.79149 0.81595 0.0
Cd45 Cd 0.599 0.71552 0.90128 0.0
O46 O 0.66722 0.8535 0.90732 0.0
Cd47 Cd 0.72057 0.94197 0.96678 0.0
O48 O 0.69824 1.00486 1.05547 0.0
C49 C 0.63421 0.99295 0.0696 0.0
O50 O 0.59192 0.94711 1.03106 0.0
C51 C 0.65443 0.84664 0.84317 0.0
C52 C 0.72957 0.74215 0.9471 0.0
O53 O 0.71234 0.70889 0.88892 0.0
O54 O 0.68314 0.75883 0.98761 0.0
O55 O 1.01234 0.40424 0.38815 0.0
Cd56 Cd 0.06487 0.32964 0.43924 0.0
O57 O 0.95128 0.45263 0.33541 0.0
Cd58 Cd 1.00185 0.55047 0.37675 0.0
O59 O 0.90968 0.57186 0.42784 0.0
C60 C 0.85677 0.55463 0.39098 0.0
O61 O 0.8636 0.53338 0.32503 0.0
C62 C 0.96068 0.40101 0.35246 0.0
C63 C 0.98817 0.23328 0.51892 0.0
O64 O 0.01449 0.21799 0.45937 0.0
O65 O 0.99602 0.29307 0.53961 0.0
O66 O 0.49468 0.93208 0.35302 0.0
Cd67 Cd 0.44205 0.81899 0.39936 0.0
O68 O 0.42212 0.94437 0.27721 0.0
Cd69 Cd 0.3483 0.84611 0.26927 0.0
O70 O 0.26427 0.76137 0.22811 0.0
C71 C 0.2389 0.76771 0.17173 0.0
O72 O 0.26423 0.82146 0.14281 0.0
C73 C 0.47679 0.96674 0.31141 0.0
C74 C 0.47608 0.75029 0.50799 0.0
O75 O 0.49989 0.74381 0.44506 0.0
O76 O 0.44061 0.79149 0.52149 0.0
O77 O 0.1787 0.58056 0.89275 0.0
Cd78 Cd 0.21629 0.51934 0.78496 0.0
O79 O 0.08913 0.50514 0.929 0.0
Cd80 Cd 0.09087 0.41891 0.85126 0.0
O81 O 0.07128 0.32426 0.7821 0.0
C82 C 1.01235 0.2835 0.7821 0.0
O83 O 0.96281 0.29741 0.82317 0.0
C84 C 0.12794 0.56284 0.9358 0.0
C85 C 0.35012 0.55299 0.71987 0.0
O86 O 0.3081 0.58723 0.71655 0.0
O87 O 0.33111 0.50511 0.75623 0.0
La88 La 0.03955 0.11406 0.62639 0.0
La89 La 0.89577 0.10425 0.65645 0.0
C90 C 0.16545 0.1457 0.59527 0.0
C91 C 0.20516 0.13435 0.53215 0.0
C92 C 0.27655 0.15114 0.53392 0.0
C93 C 0.31539 0.15167 0.47183 0.0
C94 C 0.28281 0.13601 0.40773 0.0
C95 C 0.21119 0.11282 0.40658 0.0
C96 C 0.17237 0.11218 0.46885 0.0
C97 C 0.98386 1.03542 0.72171 0.0
C98 C 0.99718 0.22228 0.7349 0.0
C99 C 0.77114 1.06521 0.69429 0.0
C100 C 0.73157 1.0068 0.72474 0.0
C101 C 0.69358 1.01357 0.7874 0.0
C102 C 0.66718 0.96098 0.82556 0.0
C103 C 0.67755 0.90078 0.8009 0.0
C104 C 0.71294 0.89323 0.73685 0.0
C105 C 0.74017 0.94596 0.69907 0.0
C106 C 0.9501 0.18415 0.56318 0.0
C107 C 0.94309 0.99867 0.54755 0.0
O108 O 0.12475 0.18248 0.59026 0.0
O109 O 0.13536 0.09457 0.62615 0.0
O110 O 0.02907 1.02575 0.67447 0.0
O111 O 0.97302 0.08907 0.71654 0.0
O112 O 0.04646 0.20461 0.69571 0.0
O113 O 0.93332 0.18632 0.73301 0.0
O114 O 0.79349 1.05919 0.62933 0.0
O115 O 0.8186 0.10185 0.73437 0.0
O116 O 0.90224 0.19194 0.60824 0.0
O117 O 0.96215 0.13081 0.56738 0.0
O118 O 0.8997 1.00991 0.59947 0.0
O119 O 1.00213 1.0418 0.53882 0.0
H120 H 0.30216 0.16745 0.58279 0.0
H121 H 0.37077 0.16883 0.47387 0.0
H122 H 0.18504 0.10038 0.35779 0.0
H123 H 0.11691 0.09853 0.46726 0.0
H124 H 0.68724 1.0603 0.80851 0.0
H125 H 0.63973 0.96756 0.87483 0.0
H126 H 0.72271 0.84738 0.71794 0.0
H127 H 0.77044 0.93967 0.65164 0.0
La128 La 0.61915 0.13467 0.25677 0.0
La129 La 0.49153 0.10167 0.17617 0.0
C130 C 0.73063 0.17802 0.319 0.0
C131 C 0.79021 0.23416 0.325 0.0
C132 C 0.84492 0.23324 0.36519 0.0
C133 C 0.90264 0.28611 0.3712 0.0
C134 C 0.90644 0.34051 0.33698 0.0
C135 C 0.85218 0.34006 0.29475 0.0
C136 C 0.79448 0.28737 0.28898 0.0
C137 C 0.52551 1.02997 0.29542 0.0
C138 C 0.51772 0.22408 0.27487 0.0
C139 C 0.37083 1.0526 0.13616 0.0
C140 C 0.32044 1.02552 0.08211 0.0
C141 C 0.32777 1.05067 1.01766 0.0
C142 C 0.27302 1.03389 0.97289 0.0
C143 C 0.20992 0.99177 0.99181 0.0
C144 C 0.20359 0.96509 1.05547 0.0
C145 C 0.25842 0.98199 0.10025 0.0
C146 C 0.5912 0.19901 0.12966 0.0
C147 C 0.60672 1.03353 0.12322 0.0
O148 O 0.72458 0.14434 0.25802 0.0
O149 O 0.67159 0.18573 0.34521 0.0
O150 O 0.59072 1.04143 0.29958 0.0
O151 O 0.51329 1.08035 0.27719 0.0
O152 O 0.58329 0.22402 0.27336 0.0
O153 O 0.47109 0.16965 0.25975 0.0
O154 O 0.4039 0.11316 0.13571 0.0
O155 O 0.40863 1.01815 0.15611 0.0
O156 O 0.52644 0.19002 0.12028 0.0
O157 O 0.59735 0.15042 0.15545 0.0
O158 O 0.54101 1.03138 0.12175 0.0
O159 O 0.64923 1.07657 0.16553 0.0
H160 H 0.84256 0.19197 0.39275 0.0
H161 H 0.94287 0.2854 0.40457 0.0
H162 H 0.85322 0.38129 0.2677 0.0
H163 H 0.75287 0.28848 0.25725 0.0
H164 H 0.37492 0.08497 1.00296 0.0
H165 H 0.27998 1.05463 0.92378 0.0
H166 H 0.15611 0.93176 0.0711 0.0
H167 H 0.25149 0.96291 0.15035 0.0
La168 La 0.54078 0.59771 0.61689 0.0
La169 La 0.51026 0.70026 0.71875 0.0
C170 C 0.58524 0.53514 0.51406 0.0
C171 C 0.65451 0.53801 0.48402 0.0
C172 C 0.66323 0.51971 0.41279 0.0
C173 C 0.72908 0.52621 0.38245 0.0
C174 C 0.78745 0.55129 0.42292 0.0
C175 C 0.77843 0.56976 0.49443 0.0
C176 C 0.71246 0.56323 0.5247 0.0
C177 C 0.41778 0.56736 0.68193 0.0
C178 C 0.5945 0.6058 0.76844 0.0
C179 C 0.44589 0.75555 0.81028 0.0
C180 C 0.38444 0.7781 0.80354 0.0
C181 C 0.38013 0.81263 0.74767 0.0
C182 C 0.32076 0.83126 0.73923 0.0
C183 C 0.26413 0.8154 0.78608 0.0
C184 C 0.26781 0.77956 0.84111 0.0
C185 C 0.32757 0.76111 0.84974 0.0
C186 C 0.62913 0.73361 0.64972 0.0
C187 C 0.48934 0.71236 0.56362 0.0
O188 O 0.57097 0.51481 0.57571 0.0
O189 O 0.56441 0.58629 0.50951 0.0
O190 O 0.45356 0.52689 0.66266 0.0
O191 O 0.44806 0.6198 0.65922 0.0
O192 O 0.60539 0.5889 0.70111 0.0
O193 O 0.5542 0.64519 0.78726 0.0
O194 O 0.50187 0.78577 0.77753 0.0
O195 O 0.43604 0.69295 0.80109 0.0
O196 O 0.59269 0.77353 0.67115 0.0
O197 O 0.60215 0.68054 0.67261 0.0
O198 O 0.46652 0.724 0.62823 0.0
O199 O 0.52478 0.66863 0.54865 0.0
H200 H 0.61908 0.50082 0.38048 0.0
H201 H 0.73411 0.51121 0.3273 0.0
H202 H 0.82222 0.58899 0.52709 0.0
H203 H 0.70668 0.57822 0.57977 0.0
H204 H 0.42265 0.8254 0.7103 0.0
H205 H 0.3197 0.85896 0.69646 0.0
H206 H 0.22516 0.76696 0.87839 0.0
H207 H 0.32937 0.73355 0.89243 0.0
La208 La 0.05688 0.58656 0.13949 0.0
La209 La 0.04609 0.69617 1.05447 0.0
C210 C 0.10778 0.49534 0.15911 0.0
C211 C 0.17103 0.48443 0.18657 0.0
C212 C 0.17176 0.4655 0.25369 0.0
C213 C 0.23027 0.45113 0.27634 0.0
C214 C 0.2895 0.45471 0.23228 0.0
C215 C 0.28834 0.47324 0.16518 0.0
C216 C 0.23028 0.48763 0.14272 0.0
C217 C 0.01265 0.67693 0.22266 0.0
C218 C 0.17525 0.72225 0.14414 0.0
C219 C 1.00903 0.7843 1.00929 0.0
C220 C 0.9401 0.78803 0.99524 0.0
C221 C 0.92121 0.7815 0.92588 0.0
C222 C 0.85245 0.76817 0.91062 0.0
C223 C 0.8018 0.76256 0.96458 0.0
C224 C 0.82096 0.77503 1.03411 0.0
C225 C 0.88982 0.78727 1.04947 0.0
C226 C 0.10957 0.6118 0.98955 0.0
C227 C 0.91547 0.57132 1.06259 0.0
O228 O 0.06206 0.5139 0.20233 0.0
O229 O 0.11701 0.52433 0.10222 0.0
O230 O 0.01883 0.62356 0.24288 0.0
O231 O 0.02928 0.67438 0.15828 0.0
O232 O 0.15601 0.66107 0.15816 0.0
O233 O 0.13861 0.74686 0.10694 0.0
O234 O 0.03067 0.74025 0.96869 0.0
O235 O 0.02172 0.78456 0.07494 0.0
O236 O 0.12665 0.67292 0.982 0.0
O237 O 0.05757 0.60066 1.03116 0.0
O238 O 0.94131 0.63063 1.04404 0.0
O239 O 0.95169 0.54335 0.09888 0.0
H240 H 0.12694 0.46132 0.28859 0.0
H241 H 0.22904 0.43722 0.32847 0.0
H242 H 0.33262 0.47681 0.1296 0.0
H243 H 0.23187 0.50075 0.09019 0.0
H244 H 0.95918 0.78265 0.88335 0.0
H245 H 0.83877 0.76049 0.85645 0.0
H246 H 0.78259 0.77189 0.07639 0.0
H247 H 0.90292 0.79259 0.10363 0.0
loop_
_geom_bond_atom_site_label_1
_geom_bond_atom_site_label_2
_geom_bond_distance
_geom_bond_site_symmetry_2
_ccdc_geom_bond_type
O0 Cd1 2.300 . S
O0 C7 1.275 . S
Cd1 O0 2.300 . S
Cd1 O9 2.381 . S
Cd1 O10 2.378 . S
O2 Cd3 2.385 . S
O2 C7 1.255 . S
Cd3 O2 2.385 . S
Cd3 O4 2.317 . S
O4 Cd3 2.317 . S
O4 C5 1.232 . S
C5 O4 1.232 . S
C5 O6 1.218 . S
O6 C5 1.218 . S
C7 O0 1.275 . S
C7 O2 1.255 . S
C8 O9 1.258 . S
C8 O10 1.256 . S
O9 Cd1 2.381 . S
O9 C8 1.258 . S
O10 Cd1 2.378 . S
O10 C8 1.256 . S
O11 Cd12 2.300 . S
O11 C18 1.275 . S
Cd12 O11 2.300 . S
Cd12 O20 2.381 . S
Cd12 O21 2.378 . S
O13 Cd14 2.385 1_455 S
O13 C18 1.255 . S
Cd14 O13 2.385 1_655 S
Cd14 O15 2.317 1_655 S
O15 Cd14 2.317 1_455 S
O15 C16 1.232 . S
C16 O15 1.232 . S
C16 O17 1.218 1_455 S
O17 C16 1.218 1_655 S
C18 O11 1.275 . S
C18 O13 1.255 . S
C19 O20 1.258 . S
C19 O21 1.256 . S
O20 Cd12 2.381 . S
O20 C19 1.258 . S
O21 Cd12 2.378 . S
O21 C19 1.256 . S
O22 Cd23 2.300 . S
O22 C29 1.275 . S
Cd23 O22 2.300 . S
Cd23 O31 2.381 . S
Cd23 O32 2.378 . S
O24 Cd25 2.385 . S
O24 C29 1.255 . S
Cd25 O24 2.385 . S
Cd25 O26 2.317 . S
O26 Cd25 2.317 . S
O26 C27 1.232 . S
C27 O26 1.232 . S
C27 O28 1.218 . S
O28 C27 1.218 . S
C29 O22 1.275 . S
C29 O24 1.255 . S
C30 O31 1.258 . S
C30 O32 1.256 . S
O31 Cd23 2.381 . S
O31 C30 1.258 . S
O32 Cd23 2.378 . S
O32 C30 1.256 . S
O33 Cd34 2.300 . S
O33 C40 1.275 . S
Cd34 O33 2.300 . S
Cd34 O42 2.381 . S
Cd34 O43 2.378 . S
O35 Cd36 2.385 . S
O35 C40 1.255 . S
Cd36 O35 2.385 . S
Cd36 O37 2.317 . S
O37 Cd36 2.317 . S
O37 C38 1.232 . S
C38 O37 1.232 . S
C38 O39 1.218 . S
O39 C38 1.218 . S
C40 O33 1.275 . S
C40 O35 1.255 . S
C41 O42 1.258 . S
C41 O43 1.256 . S
O42 Cd34 2.381 . S
O42 C41 1.258 . S
O43 Cd34 2.378 . S
O43 C41 1.256 . S
O44 Cd45 2.300 . S
O44 C51 1.275 . S
Cd45 O44 2.300 . S
Cd45 O53 2.381 . S
Cd45 O54 2.378 . S
O46 Cd47 2.385 . S
O46 C51 1.255 . S
Cd47 O46 2.385 . S
Cd47 O48 2.317 . S
O48 Cd47 2.317 . S
O48 C49 1.232 . S
C49 O48 1.232 . S
C49 O50 1.218 . S
O50 C49 1.218 . S
C51 O44 1.275 . S
C51 O46 1.255 . S
C52 O53 1.258 . S
C52 O54 1.256 . S
O53 Cd45 2.381 . S
O53 C52 1.258 . S
O54 Cd45 2.378 . S
O54 C52 1.256 . S
O55 Cd56 2.300 . S
O55 C62 1.275 . S
Cd56 O55 2.300 . S
Cd56 O64 2.381 . S
Cd56 O65 2.378 1_655 S
O57 Cd58 2.385 . S
O57 C62 1.255 . S
Cd58 O57 2.385 . S
Cd58 O59 2.317 . S
O59 Cd58 2.317 . S
O59 C60 1.232 . S
C60 O59 1.232 . S
C60 O61 1.218 . S
O61 C60 1.218 . S
C62 O55 1.275 . S
C62 O57 1.255 . S
C63 O64 1.258 1_455 S
C63 O65 1.256 . S
O64 Cd56 2.381 . S
O64 C63 1.258 1_655 S
O65 Cd56 2.378 1_455 S
O65 C63 1.256 . S
O66 Cd67 2.300 . S
O66 C73 1.275 . S
Cd67 O66 2.300 . S
Cd67 O75 2.381 . S
Cd67 O76 2.378 . S
O68 Cd69 2.385 . S
O68 C73 1.255 . S
Cd69 O68 2.385 . S
Cd69 O70 2.317 . S
O70 Cd69 2.317 . S
O70 C71 1.232 . S
C71 O70 1.232 . S
C71 O72 1.218 . S
O72 C71 1.218 . S
C73 O66 1.275 . S
C73 O68 1.255 . S
C74 O75 1.258 . S
C74 O76 1.256 . S
O75 Cd67 2.381 . S
O75 C74 1.258 . S
O76 Cd67 2.378 . S
O76 C74 1.256 . S
O77 Cd78 2.300 . S
O77 C84 1.275 . S
Cd78 O77 2.300 . S
Cd78 O86 2.381 . S
Cd78 O87 2.378 . S
O79 Cd80 2.385 . S
O79 C84 1.255 . S
Cd80 O79 2.385 . S
Cd80 O81 2.317 . S
O81 Cd80 2.317 . S
O81 C82 1.232 . S
C82 O81 1.232 . S
C82 O83 1.218 . S
O83 C82 1.218 . S
C84 O77 1.275 . S
C84 O79 1.255 . S
C85 O86 1.258 . S
C85 O87 1.256 . S
O86 Cd78 2.381 . S
O86 C85 1.258 . S
O87 Cd78 2.378 . S
O87 C85 1.256 . S
La88 C90 2.928 . S
La88 O108 2.521 . S
La88 O109 2.628 . S
La88 O110 2.554 1_545 S
La88 O111 2.757 1_545 S
La88 O112 2.470 . S
La88 O117 2.482 1_455 S
La88 O119 2.503 1_445 S
La89 C99 2.928 1_545 S
La89 O111 2.482 1_645 S
La89 O113 2.503 1_655 S
La89 O114 2.521 1_545 S
La89 O115 2.628 1_545 S
La89 O116 2.554 . S
La89 O117 2.757 . S
La89 O118 2.470 1_545 S
C90 La88 2.928 . S
C90 C91 1.503 . S
C90 O108 1.261 . S
C90 O109 1.243 . S
C91 C90 1.503 . S
C91 C92 1.394 . S
C91 C96 1.373 . S
C92 C91 1.394 . S
C92 C93 1.380 . S
C92 H120 0.930 . S
C93 C92 1.380 . S
C93 C94 1.376 . S
C93 H121 0.930 . S
C94 C93 1.376 . S
C94 C95 1.370 . S
C95 C94 1.370 . S
C95 C96 1.396 . S
C95 H122 0.929 . S
C96 C91 1.373 . S
C96 C95 1.396 . S
C96 H123 0.929 . S
C97 O110 1.240 . S
C97 O111 1.289 . S
C98 O112 1.258 . S
C98 O113 1.256 . S
C99 La89 2.928 1_565 S
C99 C100 1.503 . S
C99 O114 1.261 . S
C99 O115 1.243 . S
C100 C99 1.503 . S
C100 C101 1.394 . S
C100 C105 1.373 . S
C101 C100 1.394 . S
C101 C102 1.380 . S
C101 H124 0.930 . S
C102 C101 1.380 . S
C102 C103 1.376 . S
C102 H125 0.930 . S
C103 C102 1.376 . S
C103 C104 1.370 . S
C104 C103 1.370 . S
C104 C105 1.396 . S
C104 H126 0.929 . S
C105 C100 1.373 . S
C105 C104 1.396 . S
C105 H127 0.929 . S
C106 O116 1.240 . S
C106 O117 1.289 . S
C107 O118 1.258 . S
C107 O119 1.256 . S
O108 La88 2.521 . S
O108 C90 1.261 . S
O109 La88 2.628 . S
O109 C90 1.243 . S
O110 La88 2.554 1_565 S
O110 C97 1.240 . S
O111 La88 2.757 1_565 S
O111 La89 2.482 1_465 S
O111 C97 1.289 . S
O112 La88 2.470 . S
O112 C98 1.258 . S
O113 La89 2.503 1_455 S
O113 C98 1.256 . S
O114 La89 2.521 1_565 S
O114 C99 1.261 . S
O115 La89 2.628 1_565 S
O115 C99 1.243 . S
O116 La89 2.554 . S
O116 C106 1.240 . S
O117 La88 2.482 1_655 S
O117 La89 2.757 . S
O117 C106 1.289 . S
O118 La89 2.470 1_565 S
O118 C107 1.258 . S
O119 La88 2.503 1_665 S
O119 C107 1.256 . S
H120 C92 0.930 . S
H121 C93 0.930 . S
H122 C95 0.929 . S
H123 C96 0.929 . S
H124 C101 0.930 . S
H125 C102 0.930 . S
H126 C104 0.929 . S
H127 C105 0.929 . S
La128 C130 2.928 . S
La128 O148 2.521 . S
La128 O149 2.628 . S
La128 O150 2.554 1_545 S
La128 O151 2.757 . S
La128 O152 2.470 . S
La128 O157 2.482 . S
La128 O159 2.503 . S
La129 C139 2.928 1_544 S
La129 O151 2.482 . S
La129 O153 2.503 . S
La129 O154 2.521 1_554 S
La129 O155 2.628 1_544 S
La129 O156 2.554 1_554 S
La129 O157 2.757 . S
La129 O158 2.470 1_554 S
C130 La128 2.928 . S
C130 C131 1.503 . S
C130 O148 1.261 . S
C130 O149 1.243 . S
C131 C130 1.503 . S
C131 C132 1.394 . S
C131 C136 1.373 . S
C132 C131 1.394 . S
C132 C133 1.380 . S
C132 H160 0.930 . S
C133 C132 1.380 . S
C133 C134 1.376 . S
C133 H161 0.930 . S
C134 C133 1.376 . S
C134 C135 1.370 . S
C135 C134 1.370 . S
C135 C136 1.396 . S
C135 H162 0.929 . S
C136 C131 1.373 . S
C136 C135 1.396 . S
C136 H163 0.929 . S
C137 O150 1.240 . S
C137 O151 1.289 1_565 S
C138 O152 1.258 . S
C138 O153 1.256 . S
C139 La129 2.928 1_566 S
C139 C140 1.503 . S
C139 O154 1.261 1_565 S
C139 O155 1.243 . S
C140 C139 1.503 . S
C140 C141 1.394 . S
C140 C145 1.373 . S
C141 C140 1.394 . S
C141 C142 1.380 . S
C141 H164 0.930 1_565 S
C142 C141 1.380 . S
C142 C143 1.376 . S
C142 H165 0.930 . S
C143 C142 1.376 . S
C143 C144 1.370 . S
C144 C143 1.370 . S
C144 C145 1.396 . S
C144 H166 0.929 . S
C145 C140 1.373 . S
C145 C144 1.396 . S
C145 H167 0.929 . S
C146 O156 1.240 1_554 S
C146 O157 1.289 . S
C147 O158 1.258 1_565 S
C147 O159 1.256 1_566 S
O148 La128 2.521 . S
O148 C130 1.261 . S
O149 La128 2.628 . S
O149 C130 1.243 . S
O150 La128 2.554 1_565 S
O150 C137 1.240 . S
O151 La128 2.757 . S
O151 La129 2.482 . S
O151 C137 1.289 1_545 S
O152 La128 2.470 . S
O152 C138 1.258 . S
O153 La129 2.503 . S
O153 C138 1.256 . S
O154 La129 2.521 1_556 S
O154 C139 1.261 1_545 S
O155 La129 2.628 1_566 S
O155 C139 1.243 . S
O156 La129 2.554 1_556 S
O156 C146 1.240 1_556 S
O157 La128 2.482 . S
O157 La129 2.757 . S
O157 C146 1.289 . S
O158 La129 2.470 1_556 S
O158 C147 1.258 1_545 S
O159 La128 2.503 . S
O159 C147 1.256 1_544 S
H160 C132 0.930 . S
H161 C133 0.930 . S
H162 C135 0.929 . S
H163 C136 0.929 . S
H164 C141 0.930 1_545 S
H165 C142 0.930 . S
H166 C144 0.929 . S
H167 C145 0.929 . S
La168 C170 2.928 . S
La168 O188 2.521 . S
La168 O189 2.628 . S
La168 O190 2.554 . S
La168 O191 2.757 . S
La168 O192 2.470 . S
La168 O197 2.482 . S
La168 O199 2.503 . S
La169 C179 2.928 . S
La169 O191 2.482 . S
La169 O193 2.503 . S
La169 O194 2.521 . S
La169 O195 2.628 . S
La169 O196 2.554 . S
La169 O197 2.757 . S
La169 O198 2.470 . S
C170 La168 2.928 . S
C170 C171 1.503 . S
C170 O188 1.261 . S
C170 O189 1.243 . S
C171 C170 1.503 . S
C171 C172 1.394 . S
C171 C176 1.373 . S
C172 C171 1.394 . S
C172 C173 1.380 . S
C172 H200 0.930 . S
C173 C172 1.380 . S
C173 C174 1.376 . S
C173 H201 0.930 . S
C174 C173 1.376 . S
C174 C175 1.370 . S
C175 C174 1.370 . S
C175 C176 1.396 . S
C175 H202 0.929 . S
C176 C171 1.373 . S
C176 C175 1.396 . S
C176 H203 0.929 . S
C177 O190 1.240 . S
C177 O191 1.289 . S
C178 O192 1.258 . S
C178 O193 1.256 . S
C179 La169 2.928 . S
C179 C180 1.503 . S
C179 O194 1.261 . S
C179 O195 1.243 . S
C180 C179 1.503 . S
C180 C181 1.394 . S
C180 C185 1.373 . S
C181 C180 1.394 . S
C181 C182 1.380 . S
C181 H204 0.930 . S
C182 C181 1.380 . S
C182 C183 1.376 . S
C182 H205 0.930 . S
C183 C182 1.376 . S
C183 C184 1.370 . S
C184 C183 1.370 . S
C184 C185 1.396 . S
C184 H206 0.929 . S
C185 C180 1.373 . S
C185 C184 1.396 . S
C185 H207 0.929 . S
C186 O196 1.240 . S
C186 O197 1.289 . S
C187 O198 1.258 . S
C187 O199 1.256 . S
O188 La168 2.521 . S
O188 C170 1.261 . S
O189 La168 2.628 . S
O189 C170 1.243 . S
O190 La168 2.554 . S
O190 C177 1.240 . S
O191 La168 2.757 . S
O191 La169 2.482 . S
O191 C177 1.289 . S
O192 La168 2.470 . S
O192 C178 1.258 . S
O193 La169 2.503 . S
O193 C178 1.256 . S
O194 La169 2.521 . S
O194 C179 1.261 . S
O195 La169 2.628 . S
O195 C179 1.243 . S
O196 La169 2.554 . S
O196 C186 1.240 . S
O197 La168 2.482 . S
O197 La169 2.757 . S
O197 C186 1.289 . S
O198 La169 2.470 . S
O198 C187 1.258 . S
O199 La168 2.503 . S
O199 C187 1.256 . S
H200 C172 0.930 . S
H201 C173 0.930 . S
H202 C175 0.929 . S
H203 C176 0.929 . S
H204 C181 0.930 . S
H205 C182 0.930 . S
H206 C184 0.929 . S
H207 C185 0.929 . S
La208 C210 2.928 . S
La208 O228 2.521 . S
La208 O229 2.628 . S
La208 O230 2.554 1_455 S
La208 O231 2.757 1_455 S
La208 O232 2.470 . S
La208 O237 2.482 1_554 S
La208 O239 2.503 1_455 S
La209 C219 2.928 1_455 S
La209 O231 2.482 1_456 S
La209 O233 2.503 1_556 S
La209 O234 2.521 1_455 S
La209 O235 2.628 1_455 S
La209 O236 2.554 . S
La209 O237 2.757 . S
La209 O238 2.470 1_455 S
C210 La208 2.928 . S
C210 C211 1.503 . S
C210 O228 1.261 . S
C210 O229 1.243 . S
C211 C210 1.503 . S
C211 C212 1.394 . S
C211 C216 1.373 . S
C212 C211 1.394 . S
C212 C213 1.380 . S
C212 H240 0.930 . S
C213 C212 1.380 . S
C213 C214 1.376 . S
C213 H241 0.930 . S
C214 C213 1.376 . S
C214 C215 1.370 . S
C215 C214 1.370 . S
C215 C216 1.396 . S
C215 H242 0.929 . S
C216 C211 1.373 . S
C216 C215 1.396 . S
C216 H243 0.929 . S
C217 O230 1.240 . S
C217 O231 1.289 . S
C218 O232 1.258 . S
C218 O233 1.256 . S
C219 La209 2.928 1_655 S
C219 C220 1.503 . S
C219 O234 1.261 . S
C219 O235 1.243 . S
C220 C219 1.503 . S
C220 C221 1.394 . S
C220 C225 1.373 . S
C221 C220 1.394 . S
C221 C222 1.380 . S
C221 H244 0.930 . S
C222 C221 1.380 . S
C222 C223 1.376 . S
C222 H245 0.930 . S
C223 C222 1.376 . S
C223 C224 1.370 . S
C224 C223 1.370 . S
C224 C225 1.396 . S
C224 H246 0.929 . S
C225 C220 1.373 . S
C225 C224 1.396 . S
C225 H247 0.929 . S
C226 O236 1.240 . S
C226 O237 1.289 . S
C227 O238 1.258 . S
C227 O239 1.256 1_556 S
O228 La208 2.521 . S
O228 C210 1.261 . S
O229 La208 2.628 . S
O229 C210 1.243 . S
O230 La208 2.554 1_655 S
O230 C217 1.240 . S
O231 La208 2.757 1_655 S
O231 La209 2.482 1_654 S
O231 C217 1.289 . S
O232 La208 2.470 . S
O232 C218 1.258 . S
O233 La209 2.503 1_554 S
O233 C218 1.256 . S
O234 La209 2.521 1_655 S
O234 C219 1.261 . S
O235 La209 2.628 1_655 S
O235 C219 1.243 . S
O236 La209 2.554 . S
O236 C226 1.240 . S
O237 La208 2.482 1_556 S
O237 La209 2.757 . S
O237 C226 1.289 . S
O238 La209 2.470 1_655 S
O238 C227 1.258 . S
O239 La208 2.503 1_655 S
O239 C227 1.256 1_554 S
H240 C212 0.930 . S
H241 C213 0.930 . S
H242 C215 0.929 . S
H243 C216 0.929 . S
H244 C221 0.930 . S
H245 C222 0.930 . S
H246 C224 0.929 . S
H247 C225 0.929 . S
C5 C94 1.503 . S
C18 C143 1.378 . S
C178 C30 3.410 . S
C41 C217 3.320 . S
C138 C7 3.148 . S
C97 C16 1.945 . S
C227 C29 2.570 . S
C186 C38 1.560 . S
C8 C214 1.999 . S
C146 C27 3.448 1_554 S
C40 C107 3.743 . S
C19 C183 2.620 . S
C103 C51 1.513 . S
C62 C134 2.602 . S
C74 C187 3.815 . S
C84 C226 3.537 . S
C49 C147 2.822 . S
C106 C63 1.893 1_655 S
C218 C71 2.201 . S
C177 C85 2.263 . S
C52 C223 2.646 . S
C137 C73 4.101 . S
C98 C82 2.993 . S
C60 C174 2.412 . S
