# Generated by pormake.
# Topology anh, (6,3)-cn, num edge types: 1
# Building blocks:
#     Node 0, Type 0, BuildingBlock: VOLQOD_clean_sbu_1, # of connection points: 6
#     Node 1, Type 0, BuildingBlock: VOLQOD_clean_sbu_1, # of connection points: 6
#     Node 2, Type 0, BuildingBlock: VOLQOD_clean_sbu_1, # of connection points: 6
#     Node 3, Type 1, BuildingBlock: WUSLED_clean_sbu_0, # of connection points: 3
#     Node 4, Type 1, BuildingBlock: WUSLED_clean_sbu_0, # of connection points: 3
#     Node 5, Type 1, BuildingBlock: WUSLED_clean_sbu_0, # of connection points: 3
#     Node 6, Type 1, BuildingBlock: WUSLED_clean_sbu_0, # of connection points: 3
#     Node 7, Type 1, BuildingBlock: WUSLED_clean_sbu_0, # of connection points: 3
#     Node 8, Type 1, BuildingBlock: WUSLED_clean_sbu_0, # of connection points: 3
#     Edge 9, Type (0, 1), BuildingBlock: UVAHIK_clean_linker_0, # of connection points: 2
#     Edge 10, Type (0, 1), BuildingBlock: UVAHIK_clean_linker_0, # of connection points: 2
#     Edge 11, Type (0, 1), BuildingBlock: UVAHIK_clean_linker_0, # of connection points: 2
#     Edge 12, Type (0, 1), BuildingBlock: UVAHIK_clean_linker_0, # of connection points: 2
#     Edge 13, Type (0, 1), BuildingBlock: UVAHIK_clean_linker_0, # of connection points: 2
#     Edge 14, Type (0, 1), BuildingBlock: UVAHIK_clean_linker_0, # of connection points: 2
#     Edge 15, Type (0, 1), BuildingBlock: UVAHIK_clean_linker_0, # of connection points: 2
#     Edge 16, Type (0, 1), BuildingBlock: UVAHIK_clean_linker_0, # of connection points: 2
#     Edge 17, Type (0, 1), BuildingBlock: UVAHIK_clean_linker_0, # of connection points: 2
#     Edge 18, Type (0, 1), BuildingBlock: UVAHIK_clean_linker_0, # of connection points: 2
#     Edge 19, Type (0, 1), BuildingBlock: UVAHIK_clean_linker_0, # of connection points: 2
#     Edge 20, Type (0, 1), BuildingBlock: UVAHIK_clean_linker_0, # of connection points: 2
#     Edge 21, Type (0, 1), BuildingBlock: UVAHIK_clean_linker_0, # of connection points: 2
#     Edge 22, Type (0, 1), BuildingBlock: UVAHIK_clean_linker_0, # of connection points: 2
#     Edge 23, Type (0, 1), BuildingBlock: UVAHIK_clean_linker_0, # of connection points: 2
#     Edge 24, Type (0, 1), BuildingBlock: UVAHIK_clean_linker_0, # of connection points: 2
#     Edge 25, Type (0, 1), BuildingBlock: UVAHIK_clean_linker_0, # of connection points: 2
#     Edge 26, Type (0, 1), BuildingBlock: UVAHIK_clean_linker_0, # of connection points: 2
# Relax obj value: 0.163
# Max RMSD: 0.228
# Mean RMSD: 0.110
data_MOF--net-anh--node1-VOLQOD_clean_sbu_1--node2-WUSLED_clean_sbu_0--edge1-UVAHIK_clean_linker_0
_symmetry_space_group_name_H-M    P1
_symmetry_Int_Tables_number       1
_symmetry_cell_setting            triclinic
loop_
_symmetry_equiv_pos_as_xyz
'x, y, z'
_cell_length_a     44.946229
_cell_length_b     44.893287
_cell_length_c     96.069483
_cell_angle_alpha  89.792598
_cell_angle_beta   90.019836
_cell_angle_gamma 120.15099
loop_
_atom_site_label
_atom_site_type_symbol
_atom_site_fract_x
_atom_site_fract_y
_atom_site_fract_z
_atom_type_partial_charge
O0 O 0.99314 0.52537 0.19844 0.0
Zn1 Zn 0.99368 0.53985 0.1785 0.0
O2 O 0.00014 0.50893 0.16611 0.0
Zn3 Zn 0.95941 0.4825 0.15479 0.0
Zn4 Zn 0.00917 0.47709 0.17697 0.0
Zn5 Zn 0.03839 0.53648 0.15369 0.0
O6 O 0.96956 0.49041 0.13422 0.0
O7 O 0.0234 0.53385 0.13374 0.0
O8 O 0.94887 0.53924 0.17445 0.0
O9 O 0.92493 0.49665 0.15908 0.0
O10 O 0.93611 0.43206 0.15919 0.0
O11 O 0.96899 0.42818 0.17548 0.0
O12 O 0.05239 0.4776 0.17015 0.0
O13 O 0.03401 0.58861 0.17713 0.0
O14 O 0.07061 0.51821 0.15384 0.0
O15 O 0.06528 0.58582 0.15986 0.0
C16 C 0.00334 0.5067 0.20443 0.0
C17 C 0.99572 0.51288 0.12748 0.0
C18 C 0.94215 0.41429 0.16788 0.0
C19 C 0.92376 0.51921 0.16666 0.0
C20 C 0.07377 0.49556 0.16062 0.0
C21 C 0.0606 0.6028 0.16935 0.0
O22 O 0.01292 0.48886 0.19744 0.0
O23 O 0.49138 0.02236 0.46962 0.0
Zn24 Zn 0.47725 0.01575 0.4899 0.0
O25 O 0.50722 0.00455 0.50092 0.0
Zn26 Zn 0.53283 0.04061 0.51441 0.0
Zn27 Zn 0.53987 0.00045 0.48874 0.0
Zn28 Zn 0.47931 0.96161 0.51104 0.0
O29 O 0.52682 0.02201 0.5339 0.0
O30 O 0.48349 0.96836 0.53189 0.0
O31 O 0.47738 0.05826 0.49736 0.0
O32 O 0.51488 0.07316 0.51469 0.0
O33 O 0.58316 0.06824 0.5096 0.0
O34 O 0.58812 0.0403 0.49156 0.0
O35 O 0.53899 0.95519 0.49186 0.0
O36 O 0.42834 0.97581 0.49027 0.0
O37 O 0.49534 0.92843 0.50665 0.0
O38 O 0.42963 0.93882 0.5053 0.0
C39 C 0.51074 0.01465 0.46268 0.0
C40 C 0.5049 0.9934 0.53937 0.0
C41 C 0.60132 0.06521 0.50015 0.0
C42 C 0.49365 0.0778 0.50758 0.0
C43 C 0.51898 0.9289 0.4992 0.0
C44 C 0.41328 0.94719 0.49681 0.0
O45 O 0.52891 0.00391 0.46869 0.0
O46 O 0.48237 0.49568 0.80238 0.0
Zn47 Zn 0.47375 0.48009 0.82251 0.0
O48 O 0.51233 0.51201 0.83429 0.0
Zn49 Zn 0.49711 0.53395 0.84767 0.0
Zn50 Zn 0.54888 0.54706 0.82256 0.0
Zn51 Zn 0.52986 0.48708 0.84483 0.0
O52 O 0.50809 0.52795 0.86746 0.0
O53 O 0.5221 0.48733 0.86547 0.0
O54 O 0.42865 0.47576 0.82898 0.0
O55 O 0.44596 0.51193 0.84687 0.0
O56 O 0.51709 0.58432 0.84331 0.0
O57 O 0.55262 0.59334 0.82568 0.0
O58 O 0.59512 0.55111 0.82659 0.0
O59 O 0.46947 0.43294 0.82284 0.0
O60 O 0.58089 0.51006 0.84252 0.0
O61 O 0.50905 0.43832 0.83809 0.0
C62 C 0.50957 0.51695 0.79582 0.0
C63 C 0.51566 0.50675 0.87297 0.0
C64 C 0.53851 0.60421 0.8342 0.0
C65 C 0.42216 0.48995 0.8391 0.0
C66 C 0.60335 0.53456 0.83508 0.0
C67 C 0.4854 0.42037 0.82937 0.0
O68 O 0.53752 0.53649 0.80224 0.0
C69 C 0.56628 0.06049 0.21741 0.0
C70 C 0.5909 0.08225 0.22711 0.0
C71 C 0.632 0.11215 0.20843 0.0
C72 C 0.62344 0.10783 0.22267 0.0
C73 C 0.60729 0.09001 0.19875 0.0
C74 C 0.57464 0.0644 0.20322 0.0
U75 U 0.50564 0.01616 0.24723 0.0
O76 O 0.45064 0.99811 0.2501 0.0
O77 O 0.46932 0.96142 0.2516 0.0
C78 C 0.44246 0.96568 0.25134 0.0
C79 C 0.53204 0.03384 0.22218 0.0
C80 C 0.41326 0.94067 0.24293 0.0
C81 C 0.3803 0.92347 0.22144 0.0
C82 C 0.40849 0.94786 0.22913 0.0
C83 C 0.36174 0.88447 0.24119 0.0
C84 C 0.3567 0.89144 0.22738 0.0
C85 C 0.38972 0.90888 0.24888 0.0
C86 C 0.53988 0.04742 0.28382 0.0
C87 C 0.50371 0.02609 0.30442 0.0
C88 C 0.56558 0.06169 0.3068 0.0
C89 C 0.56899 0.06409 0.29232 0.0
C90 C 0.53292 0.04258 0.31301 0.0
C91 C 0.50719 0.02838 0.28992 0.0
C92 C 0.54418 0.0495 0.26864 0.0
O93 O 0.53159 0.0086 0.22933 0.0
O94 O 0.51341 0.04562 0.2279 0.0
O95 O 0.52564 0.05976 0.26175 0.0
O96 O 0.54431 0.02307 0.26288 0.0
H97 H 0.58489 0.07943 0.23813 0.0
H98 H 0.642 0.12407 0.23041 0.0
H99 H 0.61296 0.09289 0.18771 0.0
H100 H 0.55589 0.04778 0.1956 0.0
H101 H 0.37726 0.92943 0.21078 0.0
H102 H 0.42655 0.97222 0.22432 0.0
H103 H 0.3438 0.86024 0.24613 0.0
H104 H 0.39297 0.90294 0.25952 0.0
H105 H 0.47827 0.0109 0.3089 0.0
H106 H 0.58851 0.07502 0.31313 0.0
H107 H 0.59441 0.07887 0.28776 0.0
H108 H 0.48444 0.01512 0.28347 0.0
C109 C 0.51936 0.56677 0.54784 0.0
C110 C 0.49529 0.5659 0.53831 0.0
C111 C 0.53081 0.62772 0.53434 0.0
C112 C 0.50085 0.59603 0.53167 0.0
C113 C 0.55523 0.62839 0.5437 0.0
C114 C 0.54954 0.59828 0.55041 0.0
U115 U 0.50681 0.51446 0.58101 0.0
O116 O 0.46918 0.4603 0.58575 0.0
O117 O 0.52451 0.47833 0.58644 0.0
C118 C 0.49307 0.4518 0.58708 0.0
C119 C 0.51226 0.5347 0.55503 0.0
C120 C 0.4872 0.42133 0.57925 0.0
C121 C 0.48994 0.3942 0.55782 0.0
C122 C 0.4945 0.42334 0.56496 0.0
C123 C 0.46998 0.36079 0.57914 0.0
C124 C 0.47801 0.36269 0.56489 0.0
C125 C 0.4746 0.38988 0.58625 0.0
C126 C 0.51366 0.5534 0.61666 0.0
C127 C 0.52386 0.53037 0.63791 0.0
C128 C 0.49829 0.56665 0.63911 0.0
C129 C 0.50009 0.56993 0.6246 0.0
C130 C 0.51023 0.54687 0.64597 0.0
C131 C 0.52535 0.53342 0.62342 0.0
C132 C 0.51473 0.55653 0.60138 0.0
O133 O 0.53787 0.53566 0.56205 0.0
O134 O 0.48268 0.51835 0.56166 0.0
O135 O 0.48517 0.5375 0.59505 0.0
O136 O 0.54063 0.55611 0.5952 0.0
H137 H 0.47186 0.54192 0.53614 0.0
H138 H 0.48122 0.59458 0.52471 0.0
H139 H 0.57882 0.65221 0.54585 0.0
H140 H 0.56869 0.59982 0.55767 0.0
H141 H 0.4966 0.39658 0.54689 0.0
H142 H 0.50418 0.44751 0.5594 0.0
H143 H 0.46017 0.33679 0.58484 0.0
H144 H 0.46861 0.38788 0.59726 0.0
H145 H 0.53377 0.51536 0.64281 0.0
H146 H 0.48711 0.57924 0.64492 0.0
H147 H 0.49064 0.5852 0.61956 0.0
H148 H 0.5357 0.52018 0.61749 0.0
C149 C 0.96375 0.5304 0.88079 0.0
C150 C 0.93172 0.51717 0.88741 0.0
C151 C 0.91383 0.545 0.8702 0.0
C152 C 0.90695 0.52417 0.88211 0.0
C153 C 0.94601 0.55822 0.8636 0.0
C154 C 0.97071 0.55092 0.86885 0.0
U155 U 0.0083 0.51744 0.91178 0.0
O156 O 0.02603 0.48058 0.91551 0.0
O157 O 0.06323 0.53614 0.91559 0.0
C158 C 0.05864 0.50481 0.91562 0.0
C159 C 0.99033 0.52383 0.88647 0.0
C160 C 0.08192 0.49938 0.9065 0.0
C161 C 0.09178 0.46908 0.88772 0.0
C162 C 0.06918 0.47418 0.89602 0.0
C163 C 0.14019 0.51477 0.90001 0.0
C164 C 0.12751 0.48932 0.88965 0.0
C165 C 0.1176 0.51963 0.9084 0.0
C166 C 0.97759 0.52218 0.94827 0.0
C167 C 0.00729 0.52039 0.96911 0.0
C168 C 0.95318 0.5197 0.97106 0.0
C169 C 0.95147 0.52112 0.95657 0.0
C170 C 0.98114 0.51939 0.97751 0.0
C171 C 0.00548 0.52168 0.9546 0.0
C172 C 0.97541 0.52386 0.93307 0.0
O173 O 0.01511 0.54962 0.89335 0.0
O174 O 0.97899 0.49389 0.8927 0.0
O175 O 0.96489 0.49461 0.92651 0.0
O176 O 0.00183 0.55014 0.92702 0.0
H177 H 0.92583 0.50144 0.89671 0.0
H178 H 0.88228 0.51299 0.88733 0.0
H179 H 0.95238 0.5747 0.85452 0.0
H180 H 0.99541 0.56158 0.86366 0.0
H181 H 0.08134 0.44946 0.87974 0.0
H182 H 0.04178 0.45829 0.89423 0.0
H183 H 0.1676 0.53047 0.90184 0.0
H184 H 0.128 0.53913 0.91643 0.0
H185 H 0.02894 0.51979 0.97375 0.0
H186 H 0.93285 0.51938 0.97723 0.0
H187 H 0.92979 0.52153 0.95183 0.0
H188 H 0.0258 0.52231 0.94831 0.0
C189 C 0.95425 0.44355 0.45113 0.0
C190 C 0.95033 0.41314 0.44529 0.0
C191 C 0.90397 0.37855 0.4616 0.0
C192 C 0.92559 0.381 0.45052 0.0
C193 C 0.90807 0.40915 0.46741 0.0
C194 C 0.93303 0.44128 0.46225 0.0
U195 U 0.99918 0.50361 0.42052 0.0
O196 O 0.01416 0.55798 0.4173 0.0
O197 O 0.0534 0.54254 0.41704 0.0
C198 C 0.04718 0.56822 0.41708 0.0
C199 C 0.9796 0.4777 0.44557 0.0
C200 C 0.06958 0.59816 0.42594 0.0
C201 C 0.08729 0.65636 0.4336 0.0
C202 C 0.06503 0.6269 0.42604 0.0
C203 C 0.11906 0.62886 0.4412 0.0
C204 C 0.11485 0.65787 0.44114 0.0
C205 C 0.0967 0.59935 0.43369 0.0
C206 C 0.97446 0.46945 0.38353 0.0
C207 C 0.01023 0.49477 0.36302 0.0
C208 C 0.94884 0.45639 0.36049 0.0
C209 C 0.94552 0.45236 0.37494 0.0
C210 C 0.98128 0.47747 0.35432 0.0
C211 C 0.00683 0.49094 0.37748 0.0
C212 C 0.97036 0.46461 0.39871 0.0
O213 O 0.0065 0.47973 0.43922 0.0
O214 O 0.96653 0.49421 0.43898 0.0
O215 O 0.95751 0.48161 0.405 0.0
O216 O 0.99635 0.46563 0.40543 0.0
H217 H 0.96626 0.41415 0.43663 0.0
H218 H 0.92355 0.35808 0.4459 0.0
H219 H 0.89153 0.40834 0.47577 0.0
H220 H 0.93548 0.46442 0.46684 0.0
H221 H 0.08299 0.67803 0.43347 0.0
H222 H 0.04448 0.62679 0.4201 0.0
H223 H 0.1403 0.62927 0.44669 0.0
H224 H 0.10115 0.57777 0.43378 0.0
H225 H 0.03566 0.51088 0.35866 0.0
H226 H 0.92589 0.44319 0.35416 0.0
H227 H 0.92029 0.43589 0.37943 0.0
H228 H 0.02953 0.50459 0.38392 0.0
C229 C 0.5141 0.95772 0.78603 0.0
C230 C 0.54364 0.95654 0.78213 0.0
C231 C 0.52728 0.90738 0.7975 0.0
C232 C 0.55022 0.93178 0.78785 0.0
C233 C 0.498 0.90897 0.80153 0.0
C234 C 0.49157 0.93396 0.79588 0.0
U235 U 0.49777 0.9967 0.75385 0.0
O236 O 0.46023 0.01343 0.74975 0.0
O237 O 0.51556 0.05049 0.74804 0.0
C238 C 0.48426 0.04578 0.74791 0.0
C239 C 0.50582 0.98266 0.7796 0.0
C240 C 0.47984 0.07142 0.75565 0.0
C241 C 0.47147 0.09409 0.7773 0.0
C242 C 0.47423 0.06854 0.77009 0.0
C243 C 0.47982 0.12543 0.7557 0.0
C244 C 0.47461 0.123 0.77019 0.0
C245 C 0.48238 0.09984 0.74851 0.0
C246 C 0.50246 0.96289 0.7183 0.0
C247 C 0.49977 0.99156 0.69727 0.0
C248 C 0.50151 0.93858 0.69568 0.0
C249 C 0.50267 0.93713 0.7102 0.0
C250 C 0.50025 0.96593 0.68905 0.0
C251 C 0.50079 0.99001 0.71178 0.0
C252 C 0.5043 0.96153 0.73352 0.0
O253 O 0.53052 0.00772 0.7723 0.0
O254 O 0.47554 0.96913 0.77356 0.0
O255 O 0.47514 0.95143 0.74012 0.0
O256 O 0.53053 0.98852 0.73922 0.0
H257 H 0.56157 0.97449 0.77455 0.0
H258 H 0.57333 0.93175 0.78468 0.0
H259 H 0.47951 0.89036 0.80878 0.0
H260 H 0.46861 0.93432 0.79903 0.0
H261 H 0.46777 0.09169 0.78848 0.0
H262 H 0.47243 0.0468 0.77578 0.0
H263 H 0.48192 0.14715 0.74991 0.0
H264 H 0.48671 0.10242 0.73736 0.0
H265 H 0.49835 0.01269 0.69248 0.0
H266 H 0.50225 0.91864 0.68963 0.0
H267 H 0.50397 0.91604 0.7151 0.0
H268 H 0.50042 0.01003 0.71792 0.0
C269 C 0.55301 0.50893 0.1203 0.0
C270 C 0.58533 0.53072 0.11426 0.0
C271 C 0.61343 0.51888 0.13338 0.0
C272 C 0.61531 0.53583 0.1208 0.0
C273 C 0.58106 0.49753 0.1395 0.0
C274 C 0.55111 0.4927 0.13302 0.0
U275 U 0.50213 0.49478 0.08699 0.0
O276 O 0.44834 0.45678 0.08212 0.0
O277 O 0.46618 0.51208 0.08079 0.0
C278 C 0.43978 0.48055 0.08033 0.0
C279 C 0.52108 0.50143 0.11313 0.0
C280 C 0.40923 0.47509 0.08798 0.0
C281 C 0.38048 0.47331 0.10964 0.0
C282 C 0.40934 0.47694 0.10256 0.0
C283 C 0.35111 0.46535 0.08761 0.0
C284 C 0.35122 0.46794 0.10221 0.0
C285 C 0.3799 0.46894 0.08057 0.0
C286 C 0.54254 0.50085 0.05188 0.0
C287 C 0.51057 0.49674 0.03091 0.0
C288 C 0.5669 0.50217 0.02919 0.0
C289 C 0.56938 0.50304 0.04372 0.0
C290 C 0.53754 0.49923 0.02262 0.0
C291 C 0.51304 0.49748 0.04541 0.0
C292 C 0.54542 0.50241 0.06711 0.0
O293 O 0.52245 0.52677 0.1057 0.0
O294 O 0.50513 0.47154 0.10676 0.0
O295 O 0.52617 0.47301 0.07361 0.0
O296 O 0.54426 0.52837 0.07283 0.0
H297 H 0.58738 0.54322 0.10435 0.0
H298 H 0.63986 0.55201 0.11574 0.0
H299 H 0.57891 0.48427 0.14922 0.0
H300 H 0.52639 0.47572 0.13781 0.0
H301 H 0.38145 0.4757 0.12086 0.0
H302 H 0.43192 0.48173 0.10842 0.0
H303 H 0.32878 0.46069 0.08161 0.0
H304 H 0.37941 0.46731 0.06931 0.0
H305 H 0.48743 0.49395 0.02618 0.0
H306 H 0.58823 0.50446 0.02309 0.0
H307 H 0.59234 0.50567 0.04857 0.0
H308 H 0.49197 0.49557 0.05159 0.0
C309 C 0.12285 0.50696 0.1451 0.0
C310 C 0.102 0.48927 0.15661 0.0
C311 C 0.14799 0.49995 0.14046 0.0
C312 C 0.20509 0.46841 0.15003 0.0
H313 H 0.20587 0.45463 0.11021 0.0
C314 C 0.30864 0.44792 0.12201 0.0
C315 C 0.32138 0.46644 0.1095 0.0
C316 C 0.28015 0.44642 0.12864 0.0
C317 C 0.20613 0.45857 0.12134 0.0
H318 H 0.09223 0.4511 0.17258 0.0
H319 H 0.13707 0.43916 0.16446 0.0
H320 H 0.15923 0.45978 0.12053 0.0
H321 H 0.31515 0.49905 0.09447 0.0
H322 H 0.26585 0.49654 0.10597 0.0
H323 H 0.25285 0.46847 0.15071 0.0
C324 C 0.13339 0.45828 0.15905 0.0
C325 C 0.17935 0.46137 0.12724 0.0
C326 C 0.10776 0.46508 0.16366 0.0
C327 C 0.30546 0.48386 0.1039 0.0
C328 C 0.27716 0.48239 0.1105 0.0
C329 C 0.23216 0.46579 0.14407 0.0
C330 C 0.15322 0.47524 0.14723 0.0
C331 C 0.17906 0.46728 0.14157 0.0
C332 C 0.26393 0.46341 0.12287 0.0
C333 C 0.23342 0.46186 0.12959 0.0
H334 H 0.11942 0.52592 0.13943 0.0
H335 H 0.16335 0.51384 0.13147 0.0
H336 H 0.20543 0.47303 0.1611 0.0
H337 H 0.32029 0.43409 0.12654 0.0
H338 H 0.27047 0.43149 0.13813 0.0
C339 C 0.65407 0.11828 0.50855 0.0
C340 C 0.63747 0.09309 0.49825 0.0
C341 C 0.68642 0.14709 0.50602 0.0
C342 C 0.76048 0.18435 0.4811 0.0
H343 H 0.77147 0.27103 0.49406 0.0
C344 C 0.85821 0.31682 0.4576 0.0
C345 C 0.87674 0.3443 0.46686 0.0
C346 C 0.83189 0.28503 0.46245 0.0
C347 C 0.76901 0.247 0.49052 0.0
H348 H 0.64252 0.07778 0.47739 0.0
H349 H 0.69831 0.12831 0.47283 0.0
H350 H 0.72074 0.21723 0.50085 0.0
H351 H 0.88258 0.35927 0.4886 0.0
H352 H 0.836 0.304 0.49697 0.0
H353 H 0.80828 0.21459 0.47029 0.0
C354 C 0.68679 0.12562 0.48299 0.0
C355 C 0.73996 0.21607 0.49446 0.0
C356 C 0.65462 0.09661 0.48558 0.0
C357 C 0.86847 0.33897 0.48112 0.0
C358 C 0.8419 0.30726 0.48594 0.0
C359 C 0.78937 0.21535 0.47704 0.0
C360 C 0.70277 0.15164 0.49306 0.0
C361 C 0.7351 0.18431 0.4897 0.0
C362 C 0.82321 0.28004 0.47665 0.0
C363 C 0.79376 0.24701 0.48161 0.0
H364 H 0.64172 0.11618 0.51848 0.0
H365 H 0.69828 0.16614 0.51415 0.0
H366 H 0.75795 0.16042 0.47742 0.0
H367 H 0.86338 0.32007 0.44653 0.0
H368 H 0.81759 0.26466 0.45502 0.0
C369 C 0.53237 0.65358 0.84277 0.0
C370 C 0.54485 0.63983 0.83274 0.0
C371 C 0.535 0.68564 0.84065 0.0
C372 C 0.57691 0.76458 0.81838 0.0
H373 H 0.49561 0.76963 0.8277 0.0
C374 C 0.54652 0.86409 0.7942 0.0
C375 C 0.5333 0.87976 0.80295 0.0
C376 C 0.55124 0.83744 0.79913 0.0
C377 C 0.5187 0.76883 0.82522 0.0
H378 H 0.57099 0.64963 0.81283 0.0
H379 H 0.57485 0.705 0.80899 0.0
H380 H 0.49848 0.71863 0.83411 0.0
H381 H 0.5155 0.88006 0.82392 0.0
H382 H 0.52308 0.83297 0.83243 0.0
H383 H 0.59647 0.8144 0.80903 0.0
C384 C 0.56356 0.69139 0.81863 0.0
C385 C 0.52044 0.73962 0.82892 0.0
C386 C 0.5612 0.65947 0.8208 0.0
C387 C 0.52519 0.86824 0.81682 0.0
C388 C 0.52965 0.84136 0.82172 0.0
C389 C 0.57504 0.79368 0.81457 0.0
C390 C 0.54991 0.7046 0.8284 0.0
C391 C 0.54939 0.73692 0.82541 0.0
C392 C 0.54258 0.82559 0.8129 0.0
C393 C 0.54574 0.79592 0.81781 0.0
H394 H 0.51991 0.63928 0.85215 0.0
H395 H 0.52485 0.69532 0.84854 0.0
H396 H 0.59986 0.76368 0.81572 0.0
H397 H 0.55243 0.87176 0.78339 0.0
H398 H 0.56072 0.82542 0.79202 0.0
C399 C 0.89281 0.55281 0.16752 0.0
C400 C 0.89203 0.52127 0.16628 0.0
C401 C 0.86275 0.55443 0.16543 0.0
C402 C 0.77771 0.50423 0.14825 0.0
H403 H 0.75511 0.56568 0.16784 0.0
C404 C 0.64503 0.49144 0.14356 0.0
C405 C 0.64491 0.52146 0.1395 0.0
C406 C 0.67537 0.49317 0.14806 0.0
C407 C 0.76129 0.54853 0.16228 0.0
H408 H 0.85907 0.46644 0.16298 0.0
H409 H 0.80679 0.4689 0.16001 0.0
H410 H 0.80798 0.5652 0.17373 0.0
H411 H 0.676 0.57699 0.13757 0.0
H412 H 0.72925 0.58001 0.14564 0.0
H413 H 0.73083 0.48705 0.13703 0.0
C414 C 0.83058 0.4927 0.16192 0.0
C415 C 0.79156 0.54832 0.1656 0.0
C416 C 0.86053 0.49122 0.16373 0.0
C417 C 0.67547 0.55344 0.14056 0.0
C418 C 0.7058 0.55521 0.14525 0.0
C419 C 0.74741 0.50412 0.14511 0.0
C420 C 0.83143 0.52442 0.16228 0.0
C421 C 0.79994 0.52586 0.1587 0.0
C422 C 0.70613 0.52497 0.14874 0.0
C423 C 0.73875 0.52602 0.15214 0.0
H424 H 0.91684 0.57636 0.16947 0.0
H425 H 0.86438 0.57931 0.16576 0.0
H426 H 0.78375 0.48738 0.14239 0.0
H427 H 0.62196 0.46642 0.14274 0.0
H428 H 0.67494 0.46951 0.15079 0.0
C429 C 0.35969 0.92816 0.48272 0.0
C430 C 0.37698 0.92169 0.49346 0.0
C431 C 0.32731 0.90231 0.47825 0.0
C432 C 0.25309 0.81646 0.48729 0.0
H433 H 0.24554 0.804 0.44727 0.0
C434 C 0.15432 0.68866 0.46124 0.0
C435 C 0.14007 0.69005 0.44839 0.0
C436 C 0.17988 0.71877 0.46751 0.0
C437 C 0.24683 0.80739 0.45845 0.0
H438 H 0.37278 0.88349 0.50848 0.0
H439 H 0.3165 0.83849 0.50064 0.0
H440 H 0.29552 0.85382 0.45708 0.0
H441 H 0.14111 0.72449 0.43223 0.0
H442 H 0.18485 0.77694 0.44335 0.0
H443 H 0.20457 0.7696 0.48864 0.0
C444 C 0.32789 0.86358 0.4957 0.0
C445 C 0.27555 0.83602 0.46408 0.0
C446 C 0.3603 0.88937 0.50014 0.0
C447 C 0.15124 0.72241 0.44219 0.0
C448 C 0.17668 0.7525 0.44848 0.0
C449 C 0.22424 0.78783 0.48165 0.0
C450 C 0.31144 0.86946 0.48446 0.0
C451 C 0.27927 0.84067 0.47857 0.0
C452 C 0.19174 0.75102 0.46111 0.0
C453 C 0.22099 0.7827 0.46716 0.0
H454 H 0.37165 0.95279 0.47739 0.0
H455 H 0.31503 0.90781 0.46972 0.0
H456 H 0.25503 0.81954 0.49849 0.0
H457 H 0.14599 0.66424 0.46641 0.0
H458 H 0.19108 0.71659 0.47717 0.0
C459 C 0.49642 0.37136 0.83281 0.0
C460 C 0.47831 0.38518 0.826 0.0
C461 C 0.4929 0.34003 0.82857 0.0
C462 C 0.43972 0.26168 0.80758 0.0
H463 H 0.52618 0.26327 0.8027 0.0
C464 C 0.4976 0.18567 0.77477 0.0
C465 C 0.47353 0.15112 0.77783 0.0
C466 C 0.49676 0.21234 0.78183 0.0
C467 C 0.50182 0.26242 0.80399 0.0
H468 H 0.44091 0.37585 0.80983 0.0
H469 H 0.43499 0.32127 0.80238 0.0
H470 H 0.52597 0.31249 0.81313 0.0
H471 H 0.42961 0.11744 0.79069 0.0
H472 H 0.42818 0.16427 0.80311 0.0
H473 H 0.41578 0.21184 0.79804 0.0
C474 C 0.45178 0.33464 0.81105 0.0
C475 C 0.50164 0.29047 0.81012 0.0
C476 C 0.45531 0.36604 0.81529 0.0
C477 C 0.44861 0.14382 0.78817 0.0
C478 C 0.44761 0.17059 0.79518 0.0
C479 C 0.43989 0.23347 0.8015 0.0
C480 C 0.47117 0.32171 0.81743 0.0
C481 C 0.47066 0.29063 0.81184 0.0
C482 C 0.47177 0.20514 0.7921 0.0
C483 C 0.47103 0.2338 0.79945 0.0
H484 H 0.51414 0.3852 0.84118 0.0
H485 H 0.50774 0.33045 0.83385 0.0
H486 H 0.41542 0.26094 0.80886 0.0
H487 H 0.51734 0.19212 0.76697 0.0
H488 H 0.51548 0.23869 0.77911 0.0
C489 C 0.49668 0.86694 0.50489 0.0
C490 C 0.52304 0.89814 0.49935 0.0
C491 C 0.5006 0.83812 0.50578 0.0
C492 C 0.56589 0.81345 0.50934 0.0
H493 H 0.48906 0.72196 0.50209 0.0
C494 C 0.54985 0.69071 0.53557 0.0
C495 C 0.53582 0.66007 0.52783 0.0
C496 C 0.55247 0.72055 0.52981 0.0
C497 C 0.51097 0.74731 0.50397 0.0
H498 H 0.57407 0.92331 0.49017 0.0
H499 H 0.58109 0.87266 0.49191 0.0
H500 H 0.4851 0.77238 0.49554 0.0
H501 H 0.51503 0.63737 0.50769 0.0
H502 H 0.51909 0.6894 0.49773 0.0
H503 H 0.5914 0.78829 0.5181 0.0
C504 C 0.55737 0.87075 0.49553 0.0
C505 C 0.50858 0.77618 0.50033 0.0
C506 C 0.55328 0.89964 0.49448 0.0
C507 C 0.52535 0.66031 0.51404 0.0
C508 C 0.52779 0.69014 0.50831 0.0
C509 C 0.5682 0.78454 0.51307 0.0
C510 C 0.53108 0.83975 0.50126 0.0
C511 C 0.53567 0.80952 0.50328 0.0
C512 C 0.54097 0.72045 0.5162 0.0
C513 C 0.54045 0.75115 0.51071 0.0
H514 H 0.47298 0.86479 0.50868 0.0
H515 H 0.48008 0.81477 0.51042 0.0
H516 H 0.58711 0.83882 0.5118 0.0
H517 H 0.55768 0.69139 0.54627 0.0
H518 H 0.56223 0.74333 0.53623 0.0
C519 C 0.65102 0.53936 0.84982 0.0
C520 C 0.63975 0.54432 0.83684 0.0
C521 C 0.68498 0.54736 0.85166 0.0
C522 C 0.75493 0.54726 0.8346 0.0
H523 H 0.80937 0.60357 0.86553 0.0
C524 C 0.88244 0.55419 0.85039 0.0
C525 C 0.88746 0.55283 0.86479 0.0
C526 C 0.85643 0.5599 0.84542 0.0
C527 C 0.79447 0.58758 0.8569 0.0
H528 H 0.65511 0.56166 0.81559 0.0
H529 H 0.71479 0.57449 0.81873 0.0
H530 H 0.75536 0.60105 0.85963 0.0
H531 H 0.86991 0.55798 0.88521 0.0
H532 H 0.82382 0.56613 0.87664 0.0
H533 H 0.79251 0.53172 0.83241 0.0
C534 C 0.69719 0.56495 0.82748 0.0
C535 C 0.76375 0.58645 0.85346 0.0
C536 C 0.66324 0.55771 0.82572 0.0
C537 C 0.86641 0.55817 0.87406 0.0
C538 C 0.84028 0.56351 0.86911 0.0
C539 C 0.78543 0.54791 0.83817 0.0
C540 C 0.70825 0.55984 0.84049 0.0
C541 C 0.74334 0.56564 0.84251 0.0
C542 C 0.83471 0.56417 0.85473 0.0
C543 C 0.80508 0.56732 0.84963 0.0
H544 H 0.63353 0.52928 0.8586 0.0
H545 H 0.69286 0.54292 0.86175 0.0
H546 H 0.73939 0.53079 0.82618 0.0
H547 H 0.89801 0.54999 0.84294 0.0
H548 H 0.8532 0.56065 0.83428 0.0
C549 C 0.08724 0.65572 0.18432 0.0
C550 C 0.08844 0.63848 0.17233 0.0
C551 C 0.1158 0.68703 0.18826 0.0
C552 C 0.20977 0.73327 0.18459 0.0
H553 H 0.20486 0.80707 0.20332 0.0
C554 C 0.30679 0.8743 0.21113 0.0
C555 C 0.32699 0.86513 0.21927 0.0
C556 C 0.27801 0.8491 0.20397 0.0
C557 C 0.20671 0.78686 0.19797 0.0
H558 H 0.11985 0.64199 0.15454 0.0
H559 H 0.16935 0.69668 0.16133 0.0
H560 H 0.15303 0.75988 0.19285 0.0
H561 H 0.33343 0.82253 0.22595 0.0
H562 H 0.28326 0.77866 0.21358 0.0
H563 H 0.26327 0.75998 0.18977 0.0
C564 C 0.1466 0.68562 0.16785 0.0
C565 C 0.17697 0.75968 0.19209 0.0
C566 C 0.1181 0.65433 0.16393 0.0
C567 C 0.31818 0.83037 0.21988 0.0
C568 C 0.28963 0.80528 0.21268 0.0
C569 C 0.23939 0.76031 0.1905 0.0
C570 C 0.14617 0.70183 0.18028 0.0
C571 C 0.17808 0.73234 0.18548 0.0
C572 C 0.26909 0.81429 0.2047 0.0
C573 C 0.23812 0.78714 0.19744 0.0
H574 H 0.06483 0.64431 0.19104 0.0
H575 H 0.11466 0.69871 0.19794 0.0
H576 H 0.21152 0.71247 0.17974 0.0
H577 H 0.31281 0.90086 0.21053 0.0
H578 H 0.26281 0.85686 0.19784 0.0
C579 C 0.49901 0.12145 0.52487 0.0
C580 C 0.48719 0.10575 0.51184 0.0
C581 C 0.49271 0.14723 0.52933 0.0
C582 C 0.47716 0.21511 0.51781 0.0
H583 H 0.44665 0.21015 0.55595 0.0
C584 C 0.4618 0.3236 0.54404 0.0
C585 C 0.47502 0.33211 0.55764 0.0
C586 C 0.45886 0.29448 0.53742 0.0
C587 C 0.4553 0.21201 0.5453 0.0
H588 H 0.45983 0.10529 0.49316 0.0
H589 H 0.44927 0.15128 0.50098 0.0
H590 H 0.44907 0.16157 0.54603 0.0
H591 H 0.49669 0.31744 0.57471 0.0
H592 H 0.49157 0.26698 0.56324 0.0
H593 H 0.4846 0.26619 0.51728 0.0
C594 C 0.46323 0.14314 0.50771 0.0
C595 C 0.45655 0.18414 0.53961 0.0
C596 C 0.46918 0.11683 0.50327 0.0
C597 C 0.48562 0.31118 0.56437 0.0
C598 C 0.48266 0.2822 0.55779 0.0
C599 C 0.47606 0.24319 0.52354 0.0
C600 C 0.47466 0.15828 0.52086 0.0
C601 C 0.46842 0.18577 0.52595 0.0
C602 C 0.46903 0.27333 0.54428 0.0
C603 C 0.46608 0.24228 0.53749 0.0
H604 H 0.51293 0.11363 0.53178 0.0
H605 H 0.5023 0.15881 0.53942 0.0
H606 H 0.48653 0.21703 0.50727 0.0
H607 H 0.4532 0.33909 0.53861 0.0
H608 H 0.44814 0.28823 0.52703 0.0
C609 C 0.36144 0.47038 0.83164 0.0
C610 C 0.3864 0.48097 0.84218 0.0
C611 C 0.32846 0.46469 0.83466 0.0
C612 C 0.26743 0.44609 0.86334 0.0
H613 H 0.23739 0.50109 0.84301 0.0
C614 C 0.14572 0.44985 0.87919 0.0
C615 C 0.15159 0.48339 0.88116 0.0
C616 C 0.16988 0.44451 0.87217 0.0
C617 C 0.24531 0.48535 0.84869 0.0
H618 H 0.39607 0.49241 0.86419 0.0
H619 H 0.33861 0.4818 0.86946 0.0
H620 H 0.28819 0.49913 0.83509 0.0
H621 H 0.18639 0.53745 0.87673 0.0
H622 H 0.22861 0.52814 0.86447 0.0
H623 H 0.22549 0.43329 0.87724 0.0
C624 C 0.34447 0.47816 0.85888 0.0
C625 C 0.27414 0.484 0.8441 0.0
C626 C 0.37744 0.48448 0.85583 0.0
C627 C 0.18139 0.51135 0.87548 0.0
C628 C 0.20535 0.50599 0.86834 0.0
C629 C 0.23841 0.44709 0.86783 0.0
C630 C 0.31981 0.46869 0.84832 0.0
C631 C 0.28603 0.46519 0.85163 0.0
C632 C 0.20015 0.47257 0.86684 0.0
C633 C 0.22766 0.46753 0.86079 0.0
H634 H 0.36773 0.46759 0.82102 0.0
H635 H 0.30982 0.45741 0.82634 0.0
H636 H 0.27604 0.43128 0.86929 0.0
H637 H 0.12305 0.42784 0.88351 0.0
H638 H 0.16517 0.41848 0.8711 0.0
C639 C 0.91843 0.35847 0.18111 0.0
C640 C 0.9155 0.37768 0.17015 0.0
C641 C 0.89094 0.3258 0.18448 0.0
C642 C 0.82084 0.27315 0.19588 0.0
H643 H 0.7574 0.20971 0.16852 0.0
C644 C 0.68135 0.17283 0.20985 0.0
C645 C 0.66642 0.14002 0.20376 0.0
C646 C 0.71373 0.1991 0.20559 0.0
C647 C 0.77504 0.22689 0.17631 0.0
H648 H 0.88199 0.3766 0.15362 0.0
H649 H 0.83421 0.32014 0.1596 0.0
H650 H 0.81171 0.25894 0.16089 0.0
H651 H 0.67402 0.10904 0.18847 0.0
H652 H 0.7307 0.15502 0.18101 0.0
H653 H 0.78426 0.24117 0.2113 0.0
C654 C 0.85776 0.33006 0.16554 0.0
C655 C 0.80604 0.25531 0.17192 0.0
C656 C 0.88518 0.36265 0.16217 0.0
C657 C 0.68464 0.13415 0.19326 0.0
C658 C 0.71712 0.16048 0.18899 0.0
C659 C 0.78992 0.24474 0.20026 0.0
C660 C 0.85994 0.3116 0.17696 0.0
C661 C 0.82901 0.27916 0.18164 0.0
C662 C 0.73208 0.19327 0.19514 0.0
C663 C 0.76631 0.22166 0.19052 0.0
H664 H 0.94146 0.36916 0.18743 0.0
H665 H 0.89368 0.31201 0.1932 0.0
H666 H 0.83772 0.29112 0.20365 0.0
H667 H 0.66775 0.17843 0.21778 0.0
H668 H 0.7241 0.22424 0.21033 0.0
C669 C 0.02349 0.53696 0.10433 0.0
C670 C 0.99415 0.51422 0.11208 0.0
C671 C 0.02222 0.53767 0.0898 0.0
C672 C 0.96191 0.51473 0.06037 0.0
H673 H 0.03706 0.51935 0.03881 0.0
C674 C 0.95351 0.49664 0.0008 0.0
C675 C 0.98302 0.51824 0.99293 0.0
C676 C 0.95506 0.49604 0.01532 0.0
C677 C 0.01605 0.51847 0.04467 0.0
H678 H 0.94038 0.47454 0.11058 0.0
H679 H 0.93826 0.47576 0.08525 0.0
H680 H 0.03937 0.51896 0.06417 0.0
H681 H 0.03731 0.55633 0.99416 0.0
H682 H 0.04002 0.55546 0.0195 0.0
H683 H 0.93864 0.51441 0.0409 0.0
C684 C 0.96217 0.49323 0.09043 0.0
C685 C 0.01737 0.51823 0.05921 0.0
C686 C 0.96345 0.49241 0.10496 0.0
C687 C 0.01421 0.53906 0.99991 0.0
C688 C 0.01576 0.53854 0.01444 0.0
C689 C 0.96063 0.51507 0.04584 0.0
C690 C 0.99157 0.51577 0.08268 0.0
C691 C 0.99029 0.5163 0.06722 0.0
C692 C 0.98617 0.51711 0.02233 0.0
C693 C 0.98764 0.51687 0.0378 0.0
H694 H 0.04756 0.55415 0.10946 0.0
H695 H 0.0452 0.55562 0.08414 0.0
H696 H 0.94087 0.51375 0.06625 0.0
H697 H 0.92921 0.47988 0.99573 0.0
H698 H 0.93193 0.47876 0.02105 0.0
C699 C 0.49015 0.02652 0.44012 0.0
C700 C 0.51234 0.01823 0.4473 0.0
C701 C 0.49173 0.0297 0.42561 0.0
C702 C 0.54975 0.04595 0.39586 0.0
H703 H 0.46598 0.00388 0.37399 0.0
C704 C 0.55243 0.03389 0.33635 0.0
C705 C 0.52953 0.03964 0.3284 0.0
C706 C 0.54972 0.03162 0.35084 0.0
C707 C 0.48961 0.01617 0.37995 0.0
H708 H 0.55361 0.00683 0.4448 0.0
H709 H 0.55627 0.01237 0.41957 0.0
H710 H 0.46247 0.9998 0.39935 0.0
H711 H 0.48584 0.0476 0.32944 0.0
H712 H 0.48126 0.04396 0.35479 0.0
H713 H 0.57695 0.06248 0.37655 0.0
C714 C 0.53784 0.01666 0.42516 0.0
C715 C 0.48758 0.0138 0.39448 0.0
C716 C 0.53615 0.01328 0.43964 0.0
C717 C 0.50364 0.04279 0.33527 0.0
C718 C 0.50101 0.04067 0.34979 0.0
C719 C 0.55178 0.04845 0.38137 0.0
C720 C 0.51568 0.02491 0.41798 0.0
C721 C 0.51765 0.02842 0.40258 0.0
C722 C 0.52413 0.0352 0.35776 0.0
C723 C 0.52176 0.03334 0.37321 0.0
H724 H 0.47149 0.03048 0.44569 0.0
H725 H 0.47451 0.03636 0.42037 0.0
H726 H 0.57337 0.058 0.40183 0.0
H727 H 0.57227 0.03073 0.33135 0.0
H728 H 0.5675 0.02668 0.35661 0.0
C729 C 0.53948 0.53778 0.77283 0.0
C730 C 0.50874 0.51932 0.78044 0.0
C731 C 0.53882 0.54041 0.75835 0.0
C732 C 0.4828 0.50053 0.72753 0.0
H733 H 0.54934 0.5859 0.70964 0.0
C734 C 0.5009 0.5122 0.66785 0.0
C735 C 0.50856 0.54347 0.66143 0.0
C736 C 0.5001 0.5092 0.68235 0.0
C737 C 0.53028 0.56199 0.71445 0.0
H738 H 0.45314 0.48925 0.77876 0.0
H739 H 0.45193 0.49457 0.75355 0.0
H740 H 0.54891 0.58111 0.73484 0.0
H741 H 0.52128 0.59615 0.66536 0.0
H742 H 0.51853 0.59054 0.69058 0.0
H743 H 0.46341 0.48183 0.70715 0.0
C744 C 0.47664 0.50641 0.75873 0.0
C745 C 0.53038 0.55905 0.72893 0.0
C746 C 0.47732 0.50351 0.77322 0.0
C747 C 0.51493 0.57154 0.66991 0.0
C748 C 0.51384 0.56847 0.68441 0.0
C749 C 0.48251 0.50357 0.71305 0.0
C750 C 0.50739 0.52494 0.7511 0.0
C751 C 0.50679 0.52821 0.73567 0.0
C752 C 0.50663 0.53732 0.69084 0.0
C753 C 0.50637 0.53428 0.7063 0.0
H754 H 0.56417 0.55006 0.77804 0.0
H755 H 0.56306 0.5543 0.75283 0.0
H756 H 0.46447 0.47626 0.73232 0.0
H757 H 0.49534 0.48985 0.66169 0.0
H758 H 0.49485 0.48493 0.68689 0.0
C759 C 0.48161 0.95772 0.56111 0.0
C760 C 0.50402 0.98952 0.55472 0.0
C761 C 0.48056 0.9544 0.57562 0.0
C762 C 0.50076 0.00549 0.60776 0.0
H763 H 0.49832 0.92624 0.62518 0.0
C764 C 0.52026 0.99957 0.66676 0.0
C765 C 0.49987 0.96798 0.67362 0.0
C766 C 0.52008 0.00159 0.65225 0.0
C767 C 0.49854 0.94832 0.62048 0.0
H768 H 0.54304 0.0427 0.55862 0.0
H769 H 0.54121 0.0368 0.58384 0.0
H770 H 0.49911 0.93069 0.59984 0.0
H771 H 0.46299 0.9138 0.67066 0.0
H772 H 0.46244 0.91735 0.64531 0.0
H773 H 0.50005 0.0231 0.62834 0.0
C774 C 0.52423 0.01454 0.57765 0.0
C775 C 0.49903 0.95087 0.60596 0.0
C776 C 0.52542 0.01783 0.56317 0.0
C777 C 0.4793 0.93843 0.66565 0.0
C778 C 0.47903 0.94047 0.65113 0.0
C779 C 0.50015 0.00289 0.62226 0.0
C780 C 0.50173 0.98283 0.58404 0.0
C781 C 0.50037 0.9796 0.59945 0.0
C782 C 0.49941 0.97209 0.64425 0.0
C783 C 0.49925 0.97438 0.6288 0.0
H784 H 0.46477 0.93538 0.55493 0.0
H785 H 0.46274 0.9297 0.58024 0.0
H786 H 0.5012 0.02766 0.60304 0.0
H787 H 0.53682 0.02269 0.67259 0.0
H788 H 0.53658 0.02623 0.64729 0.0
C789 C 0.52825 0.48375 0.89467 0.0
C790 C 0.51722 0.50484 0.88834 0.0
C791 C 0.5301 0.48228 0.90916 0.0
C792 C 0.4966 0.49867 0.94151 0.0
H793 H 0.57637 0.50176 0.95852 0.0
C794 C 0.52215 0.51814 0.00049 0.0
C795 C 0.53514 0.49917 0.0072 0.0
C796 C 0.51974 0.5181 0.986 0.0
C797 C 0.55371 0.50042 0.95394 0.0
H798 H 0.49934 0.54082 0.89236 0.0
H799 H 0.50266 0.53827 0.91761 0.0
H800 H 0.57233 0.50277 0.93322 0.0
H801 H 0.55547 0.465 0.00392 0.0
H802 H 0.55107 0.46473 0.97859 0.0
H803 H 0.47788 0.49622 0.9622 0.0
C804 C 0.50962 0.52267 0.91135 0.0
C805 C 0.55142 0.50103 0.93944 0.0
C806 C 0.50791 0.52427 0.89686 0.0
C807 C 0.54575 0.48022 0.99906 0.0
C808 C 0.54325 0.48009 0.98454 0.0
C809 C 0.49883 0.49795 0.95601 0.0
C810 C 0.5208 0.50172 0.91766 0.0
C811 C 0.52292 0.50034 0.93306 0.0
C812 C 0.53018 0.49902 0.97784 0.0
C813 C 0.5275 0.499 0.9624 0.0
H814 H 0.53559 0.46841 0.88844 0.0
H815 H 0.53846 0.4656 0.91372 0.0
H816 H 0.47405 0.49754 0.93692 0.0
H817 H 0.5143 0.53347 0.00645 0.0
H818 H 0.51016 0.53348 0.98118 0.0
C819 C 0.019 0.48912 0.22688 0.0
C820 C 0.00336 0.50521 0.21986 0.0
C821 C 0.01834 0.48717 0.24142 0.0
C822 C 0.00268 0.52509 0.27302 0.0
H823 H 0.98984 0.44161 0.29063 0.0
C824 C 0.00819 0.51305 0.33275 0.0
C825 C 0.9849 0.48121 0.3389 0.0
C826 C 0.01167 0.51644 0.31828 0.0
C827 C 0.99312 0.465 0.2859 0.0
H828 H 0.97469 0.53182 0.22267 0.0
H829 H 0.97279 0.52767 0.24792 0.0
H830 H 0.99299 0.44657 0.2654 0.0
H831 H 0.94727 0.42786 0.33453 0.0
H832 H 0.95232 0.4341 0.30937 0.0
H833 H 0.00141 0.54296 0.29349 0.0
C834 C 0.98628 0.51723 0.24224 0.0
C835 C 0.99546 0.46806 0.2714 0.0
C836 C 0.98719 0.51943 0.22773 0.0
C837 C 0.96513 0.45289 0.33019 0.0
C838 C 0.96842 0.45635 0.31573 0.0
C839 C 9e-05 0.52193 0.28751 0.0
C840 C 0.00178 0.50101 0.24929 0.0
C841 C 0.00016 0.49811 0.26476 0.0
C842 C 0.99178 0.48815 0.30957 0.0
C843 C 0.99516 0.49179 0.29414 0.0
H844 H 0.03188 0.47809 0.22115 0.0
H845 H 0.03105 0.47501 0.24648 0.0
H846 H 0.00677 0.54881 0.2683 0.0
H847 H 0.02356 0.53554 0.3391 0.0
H848 H 0.03021 0.54124 0.31394 0.0
loop_
_geom_bond_atom_site_label_1
_geom_bond_atom_site_label_2
_geom_bond_distance
_geom_bond_site_symmetry_2
_ccdc_geom_bond_type
O0 Zn1 1.953 . S
O0 C16 1.225 1_655 S
Zn1 O0 1.953 . S
Zn1 O2 1.949 1_655 S
Zn1 O8 1.919 . S
Zn1 O13 1.924 1_655 S
O2 Zn1 1.949 1_455 S
O2 Zn3 1.923 1_455 S
O2 Zn4 1.950 . S
O2 Zn5 1.945 . S
Zn3 O2 1.923 1_655 S
Zn3 O6 1.933 . S
Zn3 O9 1.941 . S
Zn3 O10 1.965 . S
Zn4 O2 1.950 . S
Zn4 O11 1.938 1_455 S
Zn4 O12 1.906 . S
Zn4 O22 1.953 . S
Zn5 O2 1.945 . S
Zn5 O7 1.932 . S
Zn5 O14 1.977 . S
Zn5 O15 1.910 . S
O6 Zn3 1.933 . S
O6 C17 1.226 1_655 S
O7 Zn5 1.932 . S
O7 C17 1.307 . S
O8 Zn1 1.919 . S
O8 C19 1.253 . S
O9 Zn3 1.941 . S
O9 C19 1.283 . S
O10 Zn3 1.965 . S
O10 C18 1.303 . S
O11 Zn4 1.938 1_655 S
O11 C18 1.247 . S
O12 Zn4 1.906 . S
O12 C20 1.304 . S
O13 Zn1 1.924 1_455 S
O13 C21 1.311 . S
O14 Zn5 1.977 . S
O14 C20 1.272 . S
O15 Zn5 1.910 . S
O15 C21 1.231 . S
C16 O0 1.225 1_455 S
C16 O22 1.298 . S
C17 O6 1.226 1_455 S
C17 O7 1.307 . S
C18 O10 1.303 . S
C18 O11 1.247 . S
C19 O8 1.253 . S
C19 O9 1.283 . S
C20 O12 1.304 . S
C20 O14 1.272 . S
C21 O13 1.311 . S
C21 O15 1.231 . S
O22 Zn4 1.953 . S
O22 C16 1.298 . S
O23 Zn24 1.953 . S
O23 C39 1.225 . S
Zn24 O23 1.953 . S
Zn24 O25 1.949 . S
Zn24 O31 1.919 . S
Zn24 O36 1.924 1_545 S
O25 Zn24 1.949 . S
O25 Zn26 1.923 . S
O25 Zn27 1.950 1_545 S
O25 Zn28 1.945 1_545 S
Zn26 O25 1.923 . S
Zn26 O29 1.933 . S
Zn26 O32 1.941 . S
Zn26 O33 1.965 . S
Zn27 O25 1.950 1_565 S
Zn27 O34 1.938 1_565 S
Zn27 O35 1.906 . S
Zn27 O45 1.953 . S
Zn28 O25 1.945 1_565 S
Zn28 O30 1.932 . S
Zn28 O37 1.977 . S
Zn28 O38 1.910 . S
O29 Zn26 1.933 . S
O29 C40 1.226 . S
O30 Zn28 1.932 . S
O30 C40 1.307 1_565 S
O31 Zn24 1.919 . S
O31 C42 1.253 . S
O32 Zn26 1.941 . S
O32 C42 1.283 . S
O33 Zn26 1.965 . S
O33 C41 1.303 . S
O34 Zn27 1.938 1_545 S
O34 C41 1.247 . S
O35 Zn27 1.906 . S
O35 C43 1.304 . S
O36 Zn24 1.924 1_565 S
O36 C44 1.311 . S
O37 Zn28 1.977 . S
O37 C43 1.272 . S
O38 Zn28 1.910 . S
O38 C44 1.231 . S
C39 O23 1.225 . S
C39 O45 1.298 1_545 S
C40 O29 1.226 . S
C40 O30 1.307 1_545 S
C41 O33 1.303 . S
C41 O34 1.247 . S
C42 O31 1.253 . S
C42 O32 1.283 . S
C43 O35 1.304 . S
C43 O37 1.272 . S
C44 O36 1.311 . S
C44 O38 1.231 . S
O45 Zn27 1.953 . S
O45 C39 1.298 1_565 S
O46 Zn47 1.953 . S
O46 C62 1.225 . S
Zn47 O46 1.953 . S
Zn47 O48 1.949 . S
Zn47 O54 1.919 . S
Zn47 O59 1.924 . S
O48 Zn47 1.949 . S
O48 Zn49 1.923 . S
O48 Zn50 1.950 . S
O48 Zn51 1.945 . S
Zn49 O48 1.923 . S
Zn49 O52 1.933 . S
Zn49 O55 1.941 . S
Zn49 O56 1.965 . S
Zn50 O48 1.950 . S
Zn50 O57 1.938 . S
Zn50 O58 1.906 . S
Zn50 O68 1.953 . S
Zn51 O48 1.945 . S
Zn51 O53 1.932 . S
Zn51 O60 1.977 . S
Zn51 O61 1.910 . S
O52 Zn49 1.933 . S
O52 C63 1.226 . S
O53 Zn51 1.932 . S
O53 C63 1.307 . S
O54 Zn47 1.919 . S
O54 C65 1.253 . S
O55 Zn49 1.941 . S
O55 C65 1.283 . S
O56 Zn49 1.965 . S
O56 C64 1.303 . S
O57 Zn50 1.938 . S
O57 C64 1.247 . S
O58 Zn50 1.906 . S
O58 C66 1.304 . S
O59 Zn47 1.924 . S
O59 C67 1.311 . S
O60 Zn51 1.977 . S
O60 C66 1.272 . S
O61 Zn51 1.910 . S
O61 C67 1.231 . S
C62 O46 1.225 . S
C62 O68 1.298 . S
C63 O52 1.226 . S
C63 O53 1.307 . S
C64 O56 1.303 . S
C64 O57 1.247 . S
C65 O54 1.253 . S
C65 O55 1.283 . S
C66 O58 1.304 . S
C66 O60 1.272 . S
C67 O59 1.311 . S
C67 O61 1.231 . S
O68 Zn50 1.953 . S
O68 C62 1.298 . S
C69 C70 1.264 . S
C69 C74 1.479 . S
C69 C79 1.465 . S
C70 C69 1.264 . S
C70 C72 1.339 . S
C70 H97 0.931 . S
C71 C72 1.395 . S
C71 C73 1.320 . S
C72 C70 1.339 . S
C72 C71 1.395 . S
C72 H98 0.929 . S
C73 C71 1.320 . S
C73 C74 1.405 . S
C73 H99 0.930 . S
C74 C69 1.479 . S
C74 C73 1.405 . S
C74 H100 0.931 . S
U75 O76 2.454 1_545 S
U75 O77 2.458 1_545 S
U75 C78 2.984 1_545 S
U75 C79 2.847 . S
U75 C92 2.882 . S
U75 O93 2.441 . S
U75 O94 2.420 . S
U75 O95 2.455 1_545 S
U75 O96 2.449 . S
O76 U75 2.454 1_565 S
O76 C78 1.353 . S
O77 U75 2.458 1_565 S
O77 C78 1.286 . S
C78 U75 2.984 1_565 S
C78 O76 1.353 . S
C78 O77 1.286 . S
C78 C80 1.363 . S
C79 C69 1.465 . S
C79 U75 2.847 . S
C79 O93 1.249 . S
C79 O94 1.202 . S
C80 C78 1.363 . S
C80 C82 1.408 . S
C80 C85 1.342 . S
C81 C82 1.310 . S
C81 C84 1.461 . S
C81 H101 0.932 . S
C82 C80 1.408 . S
C82 C81 1.310 . S
C82 H102 0.930 . S
C83 C84 1.474 . S
C83 C85 1.285 . S
C83 H103 0.929 . S
C84 C81 1.461 . S
C84 C83 1.474 . S
C85 C80 1.342 . S
C85 C83 1.285 . S
C85 H104 0.930 . S
C86 C89 1.424 . S
C86 C91 1.245 1_545 S
C86 C92 1.428 . S
C87 C90 1.260 1_565 S
C87 C91 1.477 . S
C87 H105 0.932 . S
C88 C89 1.384 . S
C88 C90 1.479 . S
C88 H106 0.929 . S
C89 C86 1.424 . S
C89 C88 1.384 . S
C89 H107 0.928 . S
C90 C87 1.260 1_545 S
C90 C88 1.479 . S
C91 C86 1.245 1_565 S
C91 C87 1.477 . S
C91 H108 0.932 . S
C92 U75 2.882 . S
C92 C86 1.428 . S
C92 O95 1.301 1_545 S
C92 O96 1.282 . S
O93 U75 2.441 . S
O93 C79 1.249 . S
O94 U75 2.420 . S
O94 C79 1.202 . S
O95 U75 2.455 1_565 S
O95 C92 1.301 1_565 S
O96 U75 2.449 . S
O96 C92 1.282 . S
H97 C70 0.931 . S
H98 C72 0.929 . S
H99 C73 0.930 . S
H100 C74 0.931 . S
H101 C81 0.932 . S
H102 C82 0.930 . S
H103 C83 0.929 . S
H104 C85 0.930 . S
H105 C87 0.932 . S
H106 C88 0.929 . S
H107 C89 0.928 . S
H108 C91 0.932 . S
C109 C110 1.264 . S
C109 C114 1.479 . S
C109 C119 1.465 . S
C110 C109 1.264 . S
C110 C112 1.339 . S
C110 H137 0.931 . S
C111 C112 1.395 . S
C111 C113 1.320 . S
C112 C110 1.339 . S
C112 C111 1.395 . S
C112 H138 0.929 . S
C113 C111 1.320 . S
C113 C114 1.405 . S
C113 H139 0.930 . S
C114 C109 1.479 . S
C114 C113 1.405 . S
C114 H140 0.931 . S
U115 O116 2.454 . S
U115 O117 2.458 . S
U115 C118 2.984 . S
U115 C119 2.847 . S
U115 C132 2.882 . S
U115 O133 2.441 . S
U115 O134 2.420 . S
U115 O135 2.455 . S
U115 O136 2.449 . S
O116 U115 2.454 . S
O116 C118 1.353 . S
O117 U115 2.458 . S
O117 C118 1.286 . S
C118 U115 2.984 . S
C118 O116 1.353 . S
C118 O117 1.286 . S
C118 C120 1.363 . S
C119 C109 1.465 . S
C119 U115 2.847 . S
C119 O133 1.249 . S
C119 O134 1.202 . S
C120 C118 1.363 . S
C120 C122 1.408 . S
C120 C125 1.342 . S
C121 C122 1.310 . S
C121 C124 1.461 . S
C121 H141 0.932 . S
C122 C120 1.408 . S
C122 C121 1.310 . S
C122 H142 0.930 . S
C123 C124 1.474 . S
C123 C125 1.285 . S
C123 H143 0.929 . S
C124 C121 1.461 . S
C124 C123 1.474 . S
C125 C120 1.342 . S
C125 C123 1.285 . S
C125 H144 0.930 . S
C126 C129 1.424 . S
C126 C131 1.245 . S
C126 C132 1.428 . S
C127 C130 1.260 . S
C127 C131 1.477 . S
C127 H145 0.932 . S
C128 C129 1.384 . S
C128 C130 1.479 . S
C128 H146 0.929 . S
C129 C126 1.424 . S
C129 C128 1.384 . S
C129 H147 0.928 . S
C130 C127 1.260 . S
C130 C128 1.479 . S
C131 C126 1.245 . S
C131 C127 1.477 . S
C131 H148 0.932 . S
C132 U115 2.882 . S
C132 C126 1.428 . S
C132 O135 1.301 . S
C132 O136 1.282 . S
O133 U115 2.441 . S
O133 C119 1.249 . S
O134 U115 2.420 . S
O134 C119 1.202 . S
O135 U115 2.455 . S
O135 C132 1.301 . S
O136 U115 2.449 . S
O136 C132 1.282 . S
H137 C110 0.931 . S
H138 C112 0.929 . S
H139 C113 0.930 . S
H140 C114 0.931 . S
H141 C121 0.932 . S
H142 C122 0.930 . S
H143 C123 0.929 . S
H144 C125 0.930 . S
H145 C127 0.932 . S
H146 C128 0.929 . S
H147 C129 0.928 . S
H148 C131 0.932 . S
C149 C150 1.264 . S
C149 C154 1.479 . S
C149 C159 1.465 . S
C150 C149 1.264 . S
C150 C152 1.339 . S
C150 H177 0.931 . S
C151 C152 1.395 . S
C151 C153 1.320 . S
C152 C150 1.339 . S
C152 C151 1.395 . S
C152 H178 0.929 . S
C153 C151 1.320 . S
C153 C154 1.405 . S
C153 H179 0.930 . S
C154 C149 1.479 . S
C154 C153 1.405 . S
C154 H180 0.931 . S
U155 O156 2.454 . S
U155 O157 2.458 . S
U155 C158 2.984 . S
U155 C159 2.847 1_455 S
U155 C172 2.882 . S
U155 O173 2.441 1_455 S
U155 O174 2.420 1_455 S
U155 O175 2.455 . S
U155 O176 2.449 1_455 S
O156 U155 2.454 . S
O156 C158 1.353 . S
O157 U155 2.458 . S
O157 C158 1.286 . S
C158 U155 2.984 . S
C158 O156 1.353 . S
C158 O157 1.286 . S
C158 C160 1.363 . S
C159 C149 1.465 . S
C159 U155 2.847 1_655 S
C159 O173 1.249 . S
C159 O174 1.202 . S
C160 C158 1.363 . S
C160 C162 1.408 . S
C160 C165 1.342 . S
C161 C162 1.310 . S
C161 C164 1.461 . S
C161 H181 0.932 . S
C162 C160 1.408 . S
C162 C161 1.310 . S
C162 H182 0.930 . S
C163 C164 1.474 . S
C163 C165 1.285 . S
C163 H183 0.929 . S
C164 C161 1.461 . S
C164 C163 1.474 . S
C165 C160 1.342 . S
C165 C163 1.285 . S
C165 H184 0.930 . S
C166 C169 1.424 1_455 S
C166 C171 1.245 . S
C166 C172 1.428 . S
C167 C170 1.260 . S
C167 C171 1.477 . S
C167 H185 0.932 . S
C168 C169 1.384 . S
C168 C170 1.479 1_655 S
C168 H186 0.929 . S
C169 C166 1.424 1_655 S
C169 C168 1.384 . S
C169 H187 0.928 . S
C170 C167 1.260 . S
C170 C168 1.479 1_455 S
C171 C166 1.245 . S
C171 C167 1.477 . S
C171 H188 0.932 . S
C172 U155 2.882 . S
C172 C166 1.428 . S
C172 O175 1.301 . S
C172 O176 1.282 1_455 S
O173 U155 2.441 1_655 S
O173 C159 1.249 . S
O174 U155 2.420 1_655 S
O174 C159 1.202 . S
O175 U155 2.455 . S
O175 C172 1.301 . S
O176 U155 2.449 1_655 S
O176 C172 1.282 1_655 S
H177 C150 0.931 . S
H178 C152 0.929 . S
H179 C153 0.930 . S
H180 C154 0.931 . S
H181 C161 0.932 . S
H182 C162 0.930 . S
H183 C163 0.929 . S
H184 C165 0.930 . S
H185 C167 0.932 . S
H186 C168 0.929 . S
H187 C169 0.928 . S
H188 C171 0.932 . S
C189 C190 1.264 . S
C189 C194 1.479 . S
C189 C199 1.465 . S
C190 C189 1.264 . S
C190 C192 1.339 . S
C190 H217 0.931 . S
C191 C192 1.395 . S
C191 C193 1.320 . S
C192 C190 1.339 . S
C192 C191 1.395 . S
C192 H218 0.929 . S
C193 C191 1.320 . S
C193 C194 1.405 . S
C193 H219 0.930 . S
C194 C189 1.479 . S
C194 C193 1.405 . S
C194 H220 0.931 . S
U195 O196 2.454 1_655 S
U195 O197 2.458 1_655 S
U195 C198 2.984 1_655 S
U195 C199 2.847 . S
U195 C212 2.882 . S
U195 O213 2.441 . S
U195 O214 2.420 . S
U195 O215 2.455 1_655 S
U195 O216 2.449 . S
O196 U195 2.454 1_455 S
O196 C198 1.353 . S
O197 U195 2.458 1_455 S
O197 C198 1.286 . S
C198 U195 2.984 1_455 S
C198 O196 1.353 . S
C198 O197 1.286 . S
C198 C200 1.363 . S
C199 C189 1.465 . S
C199 U195 2.847 . S
C199 O213 1.249 . S
C199 O214 1.202 . S
C200 C198 1.363 . S
C200 C202 1.408 . S
C200 C205 1.342 . S
C201 C202 1.310 . S
C201 C204 1.461 . S
C201 H221 0.932 . S
C202 C200 1.408 . S
C202 C201 1.310 . S
C202 H222 0.930 . S
C203 C204 1.474 . S
C203 C205 1.285 . S
C203 H223 0.929 . S
C204 C201 1.461 . S
C204 C203 1.474 . S
C205 C200 1.342 . S
C205 C203 1.285 . S
C205 H224 0.930 . S
C206 C209 1.424 . S
C206 C211 1.245 1_655 S
C206 C212 1.428 . S
C207 C210 1.260 1_455 S
C207 C211 1.477 . S
C207 H225 0.932 . S
C208 C209 1.384 . S
C208 C210 1.479 . S
C208 H226 0.929 . S
C209 C206 1.424 . S
C209 C208 1.384 . S
C209 H227 0.928 . S
C210 C207 1.260 1_655 S
C210 C208 1.479 . S
C211 C206 1.245 1_455 S
C211 C207 1.477 . S
C211 H228 0.932 . S
C212 U195 2.882 . S
C212 C206 1.428 . S
C212 O215 1.301 1_655 S
C212 O216 1.282 . S
O213 U195 2.441 . S
O213 C199 1.249 . S
O214 U195 2.420 . S
O214 C199 1.202 . S
O215 U195 2.455 1_455 S
O215 C212 1.301 1_455 S
O216 U195 2.449 . S
O216 C212 1.282 . S
H217 C190 0.931 . S
H218 C192 0.929 . S
H219 C193 0.930 . S
H220 C194 0.931 . S
H221 C201 0.932 . S
H222 C202 0.930 . S
H223 C203 0.929 . S
H224 C205 0.930 . S
H225 C207 0.932 . S
H226 C208 0.929 . S
H227 C209 0.928 . S
H228 C211 0.932 . S
C229 C230 1.264 . S
C229 C234 1.479 . S
C229 C239 1.465 . S
C230 C229 1.264 . S
C230 C232 1.339 . S
C230 H257 0.931 . S
C231 C232 1.395 . S
C231 C233 1.320 . S
C232 C230 1.339 . S
C232 C231 1.395 . S
C232 H258 0.929 . S
C233 C231 1.320 . S
C233 C234 1.405 . S
C233 H259 0.930 . S
C234 C229 1.479 . S
C234 C233 1.405 . S
C234 H260 0.931 . S
U235 O236 2.454 1_565 S
U235 O237 2.458 1_565 S
U235 C238 2.984 1_565 S
U235 C239 2.847 . S
U235 C252 2.882 . S
U235 O253 2.441 . S
U235 O254 2.420 . S
U235 O255 2.455 1_565 S
U235 O256 2.449 . S
O236 U235 2.454 1_545 S
O236 C238 1.353 . S
O237 U235 2.458 1_545 S
O237 C238 1.286 . S
C238 U235 2.984 1_545 S
C238 O236 1.353 . S
C238 O237 1.286 . S
C238 C240 1.363 . S
C239 C229 1.465 . S
C239 U235 2.847 . S
C239 O253 1.249 . S
C239 O254 1.202 . S
C240 C238 1.363 . S
C240 C242 1.408 . S
C240 C245 1.342 . S
C241 C242 1.310 . S
C241 C244 1.461 . S
C241 H261 0.932 . S
C242 C240 1.408 . S
C242 C241 1.310 . S
C242 H262 0.930 . S
C243 C244 1.474 . S
C243 C245 1.285 . S
C243 H263 0.929 . S
C244 C241 1.461 . S
C244 C243 1.474 . S
C245 C240 1.342 . S
C245 C243 1.285 . S
C245 H264 0.930 . S
C246 C249 1.424 . S
C246 C251 1.245 1_565 S
C246 C252 1.428 . S
C247 C250 1.260 1_545 S
C247 C251 1.477 . S
C247 H265 0.932 . S
C248 C249 1.384 . S
C248 C250 1.479 . S
C248 H266 0.929 . S
C249 C246 1.424 . S
C249 C248 1.384 . S
C249 H267 0.928 . S
C250 C247 1.260 1_565 S
C250 C248 1.479 . S
C251 C246 1.245 1_545 S
C251 C247 1.477 . S
C251 H268 0.932 . S
C252 U235 2.882 . S
C252 C246 1.428 . S
C252 O255 1.301 1_565 S
C252 O256 1.282 . S
O253 U235 2.441 . S
O253 C239 1.249 . S
O254 U235 2.420 . S
O254 C239 1.202 . S
O255 U235 2.455 1_545 S
O255 C252 1.301 1_545 S
O256 U235 2.449 . S
O256 C252 1.282 . S
H257 C230 0.931 . S
H258 C232 0.929 . S
H259 C233 0.930 . S
H260 C234 0.931 . S
H261 C241 0.932 . S
H262 C242 0.930 . S
H263 C243 0.929 . S
H264 C245 0.930 . S
H265 C247 0.932 . S
H266 C248 0.929 . S
H267 C249 0.928 . S
H268 C251 0.932 . S
C269 C270 1.264 . S
C269 C274 1.479 . S
C269 C279 1.465 . S
C270 C269 1.264 . S
C270 C272 1.339 . S
C270 H297 0.931 . S
C271 C272 1.395 . S
C271 C273 1.320 . S
C272 C270 1.339 . S
C272 C271 1.395 . S
C272 H298 0.929 . S
C273 C271 1.320 . S
C273 C274 1.405 . S
C273 H299 0.930 . S
C274 C269 1.479 . S
C274 C273 1.405 . S
C274 H300 0.931 . S
U275 O276 2.454 . S
U275 O277 2.458 . S
U275 C278 2.984 . S
U275 C279 2.847 . S
U275 C292 2.882 . S
U275 O293 2.441 . S
U275 O294 2.420 . S
U275 O295 2.455 . S
U275 O296 2.449 . S
O276 U275 2.454 . S
O276 C278 1.353 . S
O277 U275 2.458 . S
O277 C278 1.286 . S
C278 U275 2.984 . S
C278 O276 1.353 . S
C278 O277 1.286 . S
C278 C280 1.363 . S
C279 C269 1.465 . S
C279 U275 2.847 . S
C279 O293 1.249 . S
C279 O294 1.202 . S
C280 C278 1.363 . S
C280 C282 1.408 . S
C280 C285 1.342 . S
C281 C282 1.310 . S
C281 C284 1.461 . S
C281 H301 0.932 . S
C282 C280 1.408 . S
C282 C281 1.310 . S
C282 H302 0.930 . S
C283 C284 1.474 . S
C283 C285 1.285 . S
C283 H303 0.929 . S
C284 C281 1.461 . S
C284 C283 1.474 . S
C285 C280 1.342 . S
C285 C283 1.285 . S
C285 H304 0.930 . S
C286 C289 1.424 . S
C286 C291 1.245 . S
C286 C292 1.428 . S
C287 C290 1.260 . S
C287 C291 1.477 . S
C287 H305 0.932 . S
C288 C289 1.384 . S
C288 C290 1.479 . S
C288 H306 0.929 . S
C289 C286 1.424 . S
C289 C288 1.384 . S
C289 H307 0.928 . S
C290 C287 1.260 . S
C290 C288 1.479 . S
C291 C286 1.245 . S
C291 C287 1.477 . S
C291 H308 0.932 . S
C292 U275 2.882 . S
C292 C286 1.428 . S
C292 O295 1.301 . S
C292 O296 1.282 . S
O293 U275 2.441 . S
O293 C279 1.249 . S
O294 U275 2.420 . S
O294 C279 1.202 . S
O295 U275 2.455 . S
O295 C292 1.301 . S
O296 U275 2.449 . S
O296 C292 1.282 . S
H297 C270 0.931 . S
H298 C272 0.929 . S
H299 C273 0.930 . S
H300 C274 0.931 . S
H301 C281 0.932 . S
H302 C282 0.930 . S
H303 C283 0.929 . S
H304 C285 0.930 . S
H305 C287 0.932 . S
H306 C288 0.929 . S
H307 C289 0.928 . S
H308 C291 0.932 . S
C309 C310 1.349 . S
C309 C311 1.327 . S
C309 H334 0.950 . S
C310 C309 1.349 . S
C310 C326 1.349 . S
C311 C309 1.327 . S
C311 C330 1.429 . S
C311 H335 0.950 . S
C312 C329 1.574 . S
C312 C331 1.368 . S
C312 H336 0.949 . S
H313 C317 0.949 . S
C314 C315 1.349 . S
C314 C316 1.327 . S
C314 H337 0.950 . S
C315 C314 1.349 . S
C315 C327 1.349 . S
C316 C314 1.327 . S
C316 C332 1.429 . S
C316 H338 0.950 . S
C317 H313 0.949 . S
C317 C325 1.574 . S
C317 C333 1.368 . S
H318 C326 0.950 . S
H319 C324 0.950 . S
H320 C325 0.949 . S
H321 C327 0.950 . S
H322 C328 0.950 . S
H323 C329 0.949 . S
C324 H319 0.950 . S
C324 C326 1.327 . S
C324 C330 1.429 . S
C325 C317 1.574 . S
C325 H320 0.949 . S
C325 C331 1.368 . S
C326 C310 1.349 . S
C326 H318 0.950 . S
C326 C324 1.327 . S
C327 C315 1.349 . S
C327 H321 0.950 . S
C327 C328 1.327 . S
C328 H322 0.950 . S
C328 C327 1.327 . S
C328 C332 1.429 . S
C329 C312 1.574 . S
C329 H323 0.949 . S
C329 C333 1.368 . S
C330 C311 1.429 . S
C330 C324 1.429 . S
C330 C331 1.523 . S
C331 C312 1.368 . S
C331 C325 1.368 . S
C331 C330 1.523 . S
C332 C316 1.429 . S
C332 C328 1.429 . S
C332 C333 1.523 . S
C333 C317 1.368 . S
C333 C329 1.368 . S
C333 C332 1.523 . S
H334 C309 0.950 . S
H335 C311 0.950 . S
H336 C312 0.949 . S
H337 C314 0.950 . S
H338 C316 0.950 . S
C339 C340 1.349 . S
C339 C341 1.327 . S
C339 H364 0.950 . S
C340 C339 1.349 . S
C340 C356 1.349 . S
C341 C339 1.327 . S
C341 C360 1.429 . S
C341 H365 0.950 . S
C342 C359 1.574 . S
C342 C361 1.368 . S
C342 H366 0.949 . S
H343 C347 0.949 . S
C344 C345 1.349 . S
C344 C346 1.327 . S
C344 H367 0.950 . S
C345 C344 1.349 . S
C345 C357 1.349 . S
C346 C344 1.327 . S
C346 C362 1.429 . S
C346 H368 0.950 . S
C347 H343 0.949 . S
C347 C355 1.574 . S
C347 C363 1.368 . S
H348 C356 0.950 . S
H349 C354 0.950 . S
H350 C355 0.949 . S
H351 C357 0.950 . S
H352 C358 0.950 . S
H353 C359 0.949 . S
C354 H349 0.950 . S
C354 C356 1.327 . S
C354 C360 1.429 . S
C355 C347 1.574 . S
C355 H350 0.949 . S
C355 C361 1.368 . S
C356 C340 1.349 . S
C356 H348 0.950 . S
C356 C354 1.327 . S
C357 C345 1.349 . S
C357 H351 0.950 . S
C357 C358 1.327 . S
C358 H352 0.950 . S
C358 C357 1.327 . S
C358 C362 1.429 . S
C359 C342 1.574 . S
C359 H353 0.949 . S
C359 C363 1.368 . S
C360 C341 1.429 . S
C360 C354 1.429 . S
C360 C361 1.523 . S
C361 C342 1.368 . S
C361 C355 1.368 . S
C361 C360 1.523 . S
C362 C346 1.429 . S
C362 C358 1.429 . S
C362 C363 1.523 . S
C363 C347 1.368 . S
C363 C359 1.368 . S
C363 C362 1.523 . S
H364 C339 0.950 . S
H365 C341 0.950 . S
H366 C342 0.949 . S
H367 C344 0.950 . S
H368 C346 0.950 . S
C369 C370 1.349 . S
C369 C371 1.327 . S
C369 H394 0.950 . S
C370 C369 1.349 . S
C370 C386 1.349 . S
C371 C369 1.327 . S
C371 C390 1.429 . S
C371 H395 0.950 . S
C372 C389 1.574 . S
C372 C391 1.368 . S
C372 H396 0.949 . S
H373 C377 0.949 . S
C374 C375 1.349 . S
C374 C376 1.327 . S
C374 H397 0.950 . S
C375 C374 1.349 . S
C375 C387 1.349 . S
C376 C374 1.327 . S
C376 C392 1.429 . S
C376 H398 0.950 . S
C377 H373 0.949 . S
C377 C385 1.574 . S
C377 C393 1.368 . S
H378 C386 0.950 . S
H379 C384 0.950 . S
H380 C385 0.949 . S
H381 C387 0.950 . S
H382 C388 0.950 . S
H383 C389 0.949 . S
C384 H379 0.950 . S
C384 C386 1.327 . S
C384 C390 1.429 . S
C385 C377 1.574 . S
C385 H380 0.949 . S
C385 C391 1.368 . S
C386 C370 1.349 . S
C386 H378 0.950 . S
C386 C384 1.327 . S
C387 C375 1.349 . S
C387 H381 0.950 . S
C387 C388 1.327 . S
C388 H382 0.950 . S
C388 C387 1.327 . S
C388 C392 1.429 . S
C389 C372 1.574 . S
C389 H383 0.949 . S
C389 C393 1.368 . S
C390 C371 1.429 . S
C390 C384 1.429 . S
C390 C391 1.523 . S
C391 C372 1.368 . S
C391 C385 1.368 . S
C391 C390 1.523 . S
C392 C376 1.429 . S
C392 C388 1.429 . S
C392 C393 1.523 . S
C393 C377 1.368 . S
C393 C389 1.368 . S
C393 C392 1.523 . S
H394 C369 0.950 . S
H395 C371 0.950 . S
H396 C372 0.949 . S
H397 C374 0.950 . S
H398 C376 0.950 . S
C399 C400 1.349 . S
C399 C401 1.327 . S
C399 H424 0.950 . S
C400 C399 1.349 . S
C400 C416 1.349 . S
C401 C399 1.327 . S
C401 C420 1.429 . S
C401 H425 0.950 . S
C402 C419 1.574 . S
C402 C421 1.368 . S
C402 H426 0.949 . S
H403 C407 0.949 . S
C404 C405 1.349 . S
C404 C406 1.327 . S
C404 H427 0.950 . S
C405 C404 1.349 . S
C405 C417 1.349 . S
C406 C404 1.327 . S
C406 C422 1.429 . S
C406 H428 0.950 . S
C407 H403 0.949 . S
C407 C415 1.574 . S
C407 C423 1.368 . S
H408 C416 0.950 . S
H409 C414 0.950 . S
H410 C415 0.949 . S
H411 C417 0.950 . S
H412 C418 0.950 . S
H413 C419 0.949 . S
C414 H409 0.950 . S
C414 C416 1.327 . S
C414 C420 1.429 . S
C415 C407 1.574 . S
C415 H410 0.949 . S
C415 C421 1.368 . S
C416 C400 1.349 . S
C416 H408 0.950 . S
C416 C414 1.327 . S
C417 C405 1.349 . S
C417 H411 0.950 . S
C417 C418 1.327 . S
C418 H412 0.950 . S
C418 C417 1.327 . S
C418 C422 1.429 . S
C419 C402 1.574 . S
C419 H413 0.949 . S
C419 C423 1.368 . S
C420 C401 1.429 . S
C420 C414 1.429 . S
C420 C421 1.523 . S
C421 C402 1.368 . S
C421 C415 1.368 . S
C421 C420 1.523 . S
C422 C406 1.429 . S
C422 C418 1.429 . S
C422 C423 1.523 . S
C423 C407 1.368 . S
C423 C419 1.368 . S
C423 C422 1.523 . S
H424 C399 0.950 . S
H425 C401 0.950 . S
H426 C402 0.949 . S
H427 C404 0.950 . S
H428 C406 0.950 . S
C429 C430 1.349 . S
C429 C431 1.327 . S
C429 H454 0.950 . S
C430 C429 1.349 . S
C430 C446 1.349 . S
C431 C429 1.327 . S
C431 C450 1.429 . S
C431 H455 0.950 . S
C432 C449 1.574 . S
C432 C451 1.368 . S
C432 H456 0.949 . S
H433 C437 0.949 . S
C434 C435 1.349 . S
C434 C436 1.327 . S
C434 H457 0.950 . S
C435 C434 1.349 . S
C435 C447 1.349 . S
C436 C434 1.327 . S
C436 C452 1.429 . S
C436 H458 0.950 . S
C437 H433 0.949 . S
C437 C445 1.574 . S
C437 C453 1.368 . S
H438 C446 0.950 . S
H439 C444 0.950 . S
H440 C445 0.949 . S
H441 C447 0.950 . S
H442 C448 0.950 . S
H443 C449 0.949 . S
C444 H439 0.950 . S
C444 C446 1.327 . S
C444 C450 1.429 . S
C445 C437 1.574 . S
C445 H440 0.949 . S
C445 C451 1.368 . S
C446 C430 1.349 . S
C446 H438 0.950 . S
C446 C444 1.327 . S
C447 C435 1.349 . S
C447 H441 0.950 . S
C447 C448 1.327 . S
C448 H442 0.950 . S
C448 C447 1.327 . S
C448 C452 1.429 . S
C449 C432 1.574 . S
C449 H443 0.949 . S
C449 C453 1.368 . S
C450 C431 1.429 . S
C450 C444 1.429 . S
C450 C451 1.523 . S
C451 C432 1.368 . S
C451 C445 1.368 . S
C451 C450 1.523 . S
C452 C436 1.429 . S
C452 C448 1.429 . S
C452 C453 1.523 . S
C453 C437 1.368 . S
C453 C449 1.368 . S
C453 C452 1.523 . S
H454 C429 0.950 . S
H455 C431 0.950 . S
H456 C432 0.949 . S
H457 C434 0.950 . S
H458 C436 0.950 . S
C459 C460 1.349 . S
C459 C461 1.327 . S
C459 H484 0.950 . S
C460 C459 1.349 . S
C460 C476 1.349 . S
C461 C459 1.327 . S
C461 C480 1.429 . S
C461 H485 0.950 . S
C462 C479 1.574 . S
C462 C481 1.368 . S
C462 H486 0.949 . S
H463 C467 0.949 . S
C464 C465 1.349 . S
C464 C466 1.327 . S
C464 H487 0.950 . S
C465 C464 1.349 . S
C465 C477 1.349 . S
C466 C464 1.327 . S
C466 C482 1.429 . S
C466 H488 0.950 . S
C467 H463 0.949 . S
C467 C475 1.574 . S
C467 C483 1.368 . S
H468 C476 0.950 . S
H469 C474 0.950 . S
H470 C475 0.949 . S
H471 C477 0.950 . S
H472 C478 0.950 . S
H473 C479 0.949 . S
C474 H469 0.950 . S
C474 C476 1.327 . S
C474 C480 1.429 . S
C475 C467 1.574 . S
C475 H470 0.949 . S
C475 C481 1.368 . S
C476 C460 1.349 . S
C476 H468 0.950 . S
C476 C474 1.327 . S
C477 C465 1.349 . S
C477 H471 0.950 . S
C477 C478 1.327 . S
C478 H472 0.950 . S
C478 C477 1.327 . S
C478 C482 1.429 . S
C479 C462 1.574 . S
C479 H473 0.949 . S
C479 C483 1.368 . S
C480 C461 1.429 . S
C480 C474 1.429 . S
C480 C481 1.523 . S
C481 C462 1.368 . S
C481 C475 1.368 . S
C481 C480 1.523 . S
C482 C466 1.429 . S
C482 C478 1.429 . S
C482 C483 1.523 . S
C483 C467 1.368 . S
C483 C479 1.368 . S
C483 C482 1.523 . S
H484 C459 0.950 . S
H485 C461 0.950 . S
H486 C462 0.949 . S
H487 C464 0.950 . S
H488 C466 0.950 . S
C489 C490 1.349 . S
C489 C491 1.327 . S
C489 H514 0.950 . S
C490 C489 1.349 . S
C490 C506 1.349 . S
C491 C489 1.327 . S
C491 C510 1.429 . S
C491 H515 0.950 . S
C492 C509 1.574 . S
C492 C511 1.368 . S
C492 H516 0.949 . S
H493 C497 0.949 . S
C494 C495 1.349 . S
C494 C496 1.327 . S
C494 H517 0.950 . S
C495 C494 1.349 . S
C495 C507 1.349 . S
C496 C494 1.327 . S
C496 C512 1.429 . S
C496 H518 0.950 . S
C497 H493 0.949 . S
C497 C505 1.574 . S
C497 C513 1.368 . S
H498 C506 0.950 . S
H499 C504 0.950 . S
H500 C505 0.949 . S
H501 C507 0.950 . S
H502 C508 0.950 . S
H503 C509 0.949 . S
C504 H499 0.950 . S
C504 C506 1.327 . S
C504 C510 1.429 . S
C505 C497 1.574 . S
C505 H500 0.949 . S
C505 C511 1.368 . S
C506 C490 1.349 . S
C506 H498 0.950 . S
C506 C504 1.327 . S
C507 C495 1.349 . S
C507 H501 0.950 . S
C507 C508 1.327 . S
C508 H502 0.950 . S
C508 C507 1.327 . S
C508 C512 1.429 . S
C509 C492 1.574 . S
C509 H503 0.949 . S
C509 C513 1.368 . S
C510 C491 1.429 . S
C510 C504 1.429 . S
C510 C511 1.523 . S
C511 C492 1.368 . S
C511 C505 1.368 . S
C511 C510 1.523 . S
C512 C496 1.429 . S
C512 C508 1.429 . S
C512 C513 1.523 . S
C513 C497 1.368 . S
C513 C509 1.368 . S
C513 C512 1.523 . S
H514 C489 0.950 . S
H515 C491 0.950 . S
H516 C492 0.949 . S
H517 C494 0.950 . S
H518 C496 0.950 . S
C519 C520 1.349 . S
C519 C521 1.327 . S
C519 H544 0.950 . S
C520 C519 1.349 . S
C520 C536 1.349 . S
C521 C519 1.327 . S
C521 C540 1.429 . S
C521 H545 0.950 . S
C522 C539 1.574 . S
C522 C541 1.368 . S
C522 H546 0.949 . S
H523 C527 0.949 . S
C524 C525 1.349 . S
C524 C526 1.327 . S
C524 H547 0.950 . S
C525 C524 1.349 . S
C525 C537 1.349 . S
C526 C524 1.327 . S
C526 C542 1.429 . S
C526 H548 0.950 . S
C527 H523 0.949 . S
C527 C535 1.574 . S
C527 C543 1.368 . S
H528 C536 0.950 . S
H529 C534 0.950 . S
H530 C535 0.949 . S
H531 C537 0.950 . S
H532 C538 0.950 . S
H533 C539 0.949 . S
C534 H529 0.950 . S
C534 C536 1.327 . S
C534 C540 1.429 . S
C535 C527 1.574 . S
C535 H530 0.949 . S
C535 C541 1.368 . S
C536 C520 1.349 . S
C536 H528 0.950 . S
C536 C534 1.327 . S
C537 C525 1.349 . S
C537 H531 0.950 . S
C537 C538 1.327 . S
C538 H532 0.950 . S
C538 C537 1.327 . S
C538 C542 1.429 . S
C539 C522 1.574 . S
C539 H533 0.949 . S
C539 C543 1.368 . S
C540 C521 1.429 . S
C540 C534 1.429 . S
C540 C541 1.523 . S
C541 C522 1.368 . S
C541 C535 1.368 . S
C541 C540 1.523 . S
C542 C526 1.429 . S
C542 C538 1.429 . S
C542 C543 1.523 . S
C543 C527 1.368 . S
C543 C539 1.368 . S
C543 C542 1.523 . S
H544 C519 0.950 . S
H545 C521 0.950 . S
H546 C522 0.949 . S
H547 C524 0.950 . S
H548 C526 0.950 . S
C549 C550 1.349 . S
C549 C551 1.327 . S
C549 H574 0.950 . S
C550 C549 1.349 . S
C550 C566 1.349 . S
C551 C549 1.327 . S
C551 C570 1.429 . S
C551 H575 0.950 . S
C552 C569 1.574 . S
C552 C571 1.368 . S
C552 H576 0.949 . S
H553 C557 0.949 . S
C554 C555 1.349 . S
C554 C556 1.327 . S
C554 H577 0.950 . S
C555 C554 1.349 . S
C555 C567 1.349 . S
C556 C554 1.327 . S
C556 C572 1.429 . S
C556 H578 0.950 . S
C557 H553 0.949 . S
C557 C565 1.574 . S
C557 C573 1.368 . S
H558 C566 0.950 . S
H559 C564 0.950 . S
H560 C565 0.949 . S
H561 C567 0.950 . S
H562 C568 0.950 . S
H563 C569 0.949 . S
C564 H559 0.950 . S
C564 C566 1.327 . S
C564 C570 1.429 . S
C565 C557 1.574 . S
C565 H560 0.949 . S
C565 C571 1.368 . S
C566 C550 1.349 . S
C566 H558 0.950 . S
C566 C564 1.327 . S
C567 C555 1.349 . S
C567 H561 0.950 . S
C567 C568 1.327 . S
C568 H562 0.950 . S
C568 C567 1.327 . S
C568 C572 1.429 . S
C569 C552 1.574 . S
C569 H563 0.949 . S
C569 C573 1.368 . S
C570 C551 1.429 . S
C570 C564 1.429 . S
C570 C571 1.523 . S
C571 C552 1.368 . S
C571 C565 1.368 . S
C571 C570 1.523 . S
C572 C556 1.429 . S
C572 C568 1.429 . S
C572 C573 1.523 . S
C573 C557 1.368 . S
C573 C569 1.368 . S
C573 C572 1.523 . S
H574 C549 0.950 . S
H575 C551 0.950 . S
H576 C552 0.949 . S
H577 C554 0.950 . S
H578 C556 0.950 . S
C579 C580 1.349 . S
C579 C581 1.327 . S
C579 H604 0.950 . S
C580 C579 1.349 . S
C580 C596 1.349 . S
C581 C579 1.327 . S
C581 C600 1.429 . S
C581 H605 0.950 . S
C582 C599 1.574 . S
C582 C601 1.368 . S
C582 H606 0.949 . S
H583 C587 0.949 . S
C584 C585 1.349 . S
C584 C586 1.327 . S
C584 H607 0.950 . S
C585 C584 1.349 . S
C585 C597 1.349 . S
C586 C584 1.327 . S
C586 C602 1.429 . S
C586 H608 0.950 . S
C587 H583 0.949 . S
C587 C595 1.574 . S
C587 C603 1.368 . S
H588 C596 0.950 . S
H589 C594 0.950 . S
H590 C595 0.949 . S
H591 C597 0.950 . S
H592 C598 0.950 . S
H593 C599 0.949 . S
C594 H589 0.950 . S
C594 C596 1.327 . S
C594 C600 1.429 . S
C595 C587 1.574 . S
C595 H590 0.949 . S
C595 C601 1.368 . S
C596 C580 1.349 . S
C596 H588 0.950 . S
C596 C594 1.327 . S
C597 C585 1.349 . S
C597 H591 0.950 . S
C597 C598 1.327 . S
C598 H592 0.950 . S
C598 C597 1.327 . S
C598 C602 1.429 . S
C599 C582 1.574 . S
C599 H593 0.949 . S
C599 C603 1.368 . S
C600 C581 1.429 . S
C600 C594 1.429 . S
C600 C601 1.523 . S
C601 C582 1.368 . S
C601 C595 1.368 . S
C601 C600 1.523 . S
C602 C586 1.429 . S
C602 C598 1.429 . S
C602 C603 1.523 . S
C603 C587 1.368 . S
C603 C599 1.368 . S
C603 C602 1.523 . S
H604 C579 0.950 . S
H605 C581 0.950 . S
H606 C582 0.949 . S
H607 C584 0.950 . S
H608 C586 0.950 . S
C609 C610 1.349 . S
C609 C611 1.327 . S
C609 H634 0.950 . S
C610 C609 1.349 . S
C610 C626 1.349 . S
C611 C609 1.327 . S
C611 C630 1.429 . S
C611 H635 0.950 . S
C612 C629 1.574 . S
C612 C631 1.368 . S
C612 H636 0.949 . S
H613 C617 0.949 . S
C614 C615 1.349 . S
C614 C616 1.327 . S
C614 H637 0.950 . S
C615 C614 1.349 . S
C615 C627 1.349 . S
C616 C614 1.327 . S
C616 C632 1.429 . S
C616 H638 0.950 . S
C617 H613 0.949 . S
C617 C625 1.574 . S
C617 C633 1.368 . S
H618 C626 0.950 . S
H619 C624 0.950 . S
H620 C625 0.949 . S
H621 C627 0.950 . S
H622 C628 0.950 . S
H623 C629 0.949 . S
C624 H619 0.950 . S
C624 C626 1.327 . S
C624 C630 1.429 . S
C625 C617 1.574 . S
C625 H620 0.949 . S
C625 C631 1.368 . S
C626 C610 1.349 . S
C626 H618 0.950 . S
C626 C624 1.327 . S
C627 C615 1.349 . S
C627 H621 0.950 . S
C627 C628 1.327 . S
C628 H622 0.950 . S
C628 C627 1.327 . S
C628 C632 1.429 . S
C629 C612 1.574 . S
C629 H623 0.949 . S
C629 C633 1.368 . S
C630 C611 1.429 . S
C630 C624 1.429 . S
C630 C631 1.523 . S
C631 C612 1.368 . S
C631 C625 1.368 . S
C631 C630 1.523 . S
C632 C616 1.429 . S
C632 C628 1.429 . S
C632 C633 1.523 . S
C633 C617 1.368 . S
C633 C629 1.368 . S
C633 C632 1.523 . S
H634 C609 0.950 . S
H635 C611 0.950 . S
H636 C612 0.949 . S
H637 C614 0.950 . S
H638 C616 0.950 . S
C639 C640 1.349 . S
C639 C641 1.327 . S
C639 H664 0.950 . S
C640 C639 1.349 . S
C640 C656 1.349 . S
C641 C639 1.327 . S
C641 C660 1.429 . S
C641 H665 0.950 . S
C642 C659 1.574 . S
C642 C661 1.368 . S
C642 H666 0.949 . S
H643 C647 0.949 . S
C644 C645 1.349 . S
C644 C646 1.327 . S
C644 H667 0.950 . S
C645 C644 1.349 . S
C645 C657 1.349 . S
C646 C644 1.327 . S
C646 C662 1.429 . S
C646 H668 0.950 . S
C647 H643 0.949 . S
C647 C655 1.574 . S
C647 C663 1.368 . S
H648 C656 0.950 . S
H649 C654 0.950 . S
H650 C655 0.949 . S
H651 C657 0.950 . S
H652 C658 0.950 . S
H653 C659 0.949 . S
C654 H649 0.950 . S
C654 C656 1.327 . S
C654 C660 1.429 . S
C655 C647 1.574 . S
C655 H650 0.949 . S
C655 C661 1.368 . S
C656 C640 1.349 . S
C656 H648 0.950 . S
C656 C654 1.327 . S
C657 C645 1.349 . S
C657 H651 0.950 . S
C657 C658 1.327 . S
C658 H652 0.950 . S
C658 C657 1.327 . S
C658 C662 1.429 . S
C659 C642 1.574 . S
C659 H653 0.949 . S
C659 C663 1.368 . S
C660 C641 1.429 . S
C660 C654 1.429 . S
C660 C661 1.523 . S
C661 C642 1.368 . S
C661 C655 1.368 . S
C661 C660 1.523 . S
C662 C646 1.429 . S
C662 C658 1.429 . S
C662 C663 1.523 . S
C663 C647 1.368 . S
C663 C659 1.368 . S
C663 C662 1.523 . S
H664 C639 0.950 . S
H665 C641 0.950 . S
H666 C642 0.949 . S
H667 C644 0.950 . S
H668 C646 0.950 . S
C669 C670 1.349 . S
C669 C671 1.327 . S
C669 H694 0.950 . S
C670 C669 1.349 . S
C670 C686 1.349 1_455 S
C671 C669 1.327 . S
C671 C690 1.429 . S
C671 H695 0.950 . S
C672 C689 1.574 . S
C672 C691 1.368 1_655 S
C672 H696 0.949 . S
H673 C677 0.949 . S
C674 C675 1.349 1_654 S
C674 C676 1.327 . S
C674 H697 0.950 1_554 S
C675 C674 1.349 1_456 S
C675 C687 1.349 1_556 S
C676 C674 1.327 . S
C676 C692 1.429 1_655 S
C676 H698 0.950 . S
C677 H673 0.949 . S
C677 C685 1.574 . S
C677 C693 1.368 . S
H678 C686 0.950 . S
H679 C684 0.950 . S
H680 C685 0.949 . S
H681 C687 0.950 1_556 S
H682 C688 0.950 . S
H683 C689 0.949 . S
C684 H679 0.950 . S
C684 C686 1.327 . S
C684 C690 1.429 1_655 S
C685 C677 1.574 . S
C685 H680 0.949 . S
C685 C691 1.368 . S
C686 C670 1.349 1_655 S
C686 H678 0.950 . S
C686 C684 1.327 . S
C687 C675 1.349 1_554 S
C687 H681 0.950 1_554 S
C687 C688 1.327 . S
C688 H682 0.950 . S
C688 C687 1.327 . S
C688 C692 1.429 . S
C689 C672 1.574 . S
C689 H683 0.949 . S
C689 C693 1.368 1_655 S
C690 C671 1.429 . S
C690 C684 1.429 1_455 S
C690 C691 1.523 . S
C691 C672 1.368 1_455 S
C691 C685 1.368 . S
C691 C690 1.523 . S
C692 C676 1.429 1_455 S
C692 C688 1.429 . S
C692 C693 1.523 . S
C693 C677 1.368 . S
C693 C689 1.368 1_455 S
C693 C692 1.523 . S
H694 C669 0.950 . S
H695 C671 0.950 . S
H696 C672 0.949 . S
H697 C674 0.950 1_556 S
H698 C676 0.950 . S
C699 C700 1.349 1_565 S
C699 C701 1.327 . S
C699 H724 0.950 . S
C700 C699 1.349 1_545 S
C700 C716 1.349 . S
C701 C699 1.327 . S
C701 C720 1.429 1_565 S
C701 H725 0.950 . S
C702 C719 1.574 . S
C702 C721 1.368 . S
C702 H726 0.949 . S
H703 C707 0.949 . S
C704 C705 1.349 . S
C704 C706 1.327 . S
C704 H727 0.950 . S
C705 C704 1.349 . S
C705 C717 1.349 1_545 S
C706 C704 1.327 . S
C706 C722 1.429 . S
C706 H728 0.950 . S
C707 H703 0.949 . S
C707 C715 1.574 . S
C707 C723 1.368 1_565 S
H708 C716 0.950 . S
H709 C714 0.950 . S
H710 C715 0.949 . S
H711 C717 0.950 . S
H712 C718 0.950 . S
H713 C719 0.949 . S
C714 H709 0.950 . S
C714 C716 1.327 . S
C714 C720 1.429 . S
C715 C707 1.574 . S
C715 H710 0.949 . S
C715 C721 1.368 1_565 S
C716 C700 1.349 . S
C716 H708 0.950 . S
C716 C714 1.327 . S
C717 C705 1.349 1_565 S
C717 H711 0.950 . S
C717 C718 1.327 . S
C718 H712 0.950 . S
C718 C717 1.327 . S
C718 C722 1.429 1_565 S
C719 C702 1.574 . S
C719 H713 0.949 . S
C719 C723 1.368 . S
C720 C701 1.429 1_545 S
C720 C714 1.429 . S
C720 C721 1.523 . S
C721 C702 1.368 . S
C721 C715 1.368 1_545 S
C721 C720 1.523 . S
C722 C706 1.429 . S
C722 C718 1.429 1_545 S
C722 C723 1.523 . S
C723 C707 1.368 1_545 S
C723 C719 1.368 . S
C723 C722 1.523 . S
H724 C699 0.950 . S
H725 C701 0.950 . S
H726 C702 0.949 . S
H727 C704 0.950 . S
H728 C706 0.950 . S
C729 C730 1.349 . S
C729 C731 1.327 . S
C729 H754 0.950 . S
C730 C729 1.349 . S
C730 C746 1.349 . S
C731 C729 1.327 . S
C731 C750 1.429 . S
C731 H755 0.950 . S
C732 C749 1.574 . S
C732 C751 1.368 . S
C732 H756 0.949 . S
H733 C737 0.949 . S
C734 C735 1.349 . S
C734 C736 1.327 . S
C734 H757 0.950 . S
C735 C734 1.349 . S
C735 C747 1.349 . S
C736 C734 1.327 . S
C736 C752 1.429 . S
C736 H758 0.950 . S
C737 H733 0.949 . S
C737 C745 1.574 . S
C737 C753 1.368 . S
H738 C746 0.950 . S
H739 C744 0.950 . S
H740 C745 0.949 . S
H741 C747 0.950 . S
H742 C748 0.950 . S
H743 C749 0.949 . S
C744 H739 0.950 . S
C744 C746 1.327 . S
C744 C750 1.429 . S
C745 C737 1.574 . S
C745 H740 0.949 . S
C745 C751 1.368 . S
C746 C730 1.349 . S
C746 H738 0.950 . S
C746 C744 1.327 . S
C747 C735 1.349 . S
C747 H741 0.950 . S
C747 C748 1.327 . S
C748 H742 0.950 . S
C748 C747 1.327 . S
C748 C752 1.429 . S
C749 C732 1.574 . S
C749 H743 0.949 . S
C749 C753 1.368 . S
C750 C731 1.429 . S
C750 C744 1.429 . S
C750 C751 1.523 . S
C751 C732 1.368 . S
C751 C745 1.368 . S
C751 C750 1.523 . S
C752 C736 1.429 . S
C752 C748 1.429 . S
C752 C753 1.523 . S
C753 C737 1.368 . S
C753 C749 1.368 . S
C753 C752 1.523 . S
H754 C729 0.950 . S
H755 C731 0.950 . S
H756 C732 0.949 . S
H757 C734 0.950 . S
H758 C736 0.950 . S
C759 C760 1.349 1_565 S
C759 C761 1.327 . S
C759 H784 0.950 . S
C760 C759 1.349 1_545 S
C760 C776 1.349 . S
C761 C759 1.327 . S
C761 C780 1.429 1_565 S
C761 H785 0.950 . S
C762 C779 1.574 . S
C762 C781 1.368 . S
C762 H786 0.949 . S
H763 C767 0.949 . S
C764 C765 1.349 . S
C764 C766 1.327 . S
C764 H787 0.950 . S
C765 C764 1.349 . S
C765 C777 1.349 1_545 S
C766 C764 1.327 . S
C766 C782 1.429 . S
C766 H788 0.950 . S
C767 H763 0.949 . S
C767 C775 1.574 . S
C767 C783 1.368 1_565 S
H768 C776 0.950 . S
H769 C774 0.950 . S
H770 C775 0.949 . S
H771 C777 0.950 . S
H772 C778 0.950 . S
H773 C779 0.949 . S
C774 H769 0.950 . S
C774 C776 1.327 . S
C774 C780 1.429 . S
C775 C767 1.574 . S
C775 H770 0.949 . S
C775 C781 1.368 1_565 S
C776 C760 1.349 . S
C776 H768 0.950 . S
C776 C774 1.327 . S
C777 C765 1.349 1_565 S
C777 H771 0.950 . S
C777 C778 1.327 . S
C778 H772 0.950 . S
C778 C777 1.327 . S
C778 C782 1.429 1_565 S
C779 C762 1.574 . S
C779 H773 0.949 . S
C779 C783 1.368 . S
C780 C761 1.429 1_545 S
C780 C774 1.429 . S
C780 C781 1.523 . S
C781 C762 1.368 . S
C781 C775 1.368 1_545 S
C781 C780 1.523 . S
C782 C766 1.429 . S
C782 C778 1.429 1_545 S
C782 C783 1.523 . S
C783 C767 1.368 1_545 S
C783 C779 1.368 . S
C783 C782 1.523 . S
H784 C759 0.950 . S
H785 C761 0.950 . S
H786 C762 0.949 . S
H787 C764 0.950 . S
H788 C766 0.950 . S
C789 C790 1.349 . S
C789 C791 1.327 . S
C789 H814 0.950 . S
C790 C789 1.349 . S
C790 C806 1.349 . S
C791 C789 1.327 . S
C791 C810 1.429 . S
C791 H815 0.950 . S
C792 C809 1.574 . S
C792 C811 1.368 . S
C792 H816 0.949 . S
H793 C797 0.949 . S
C794 C795 1.349 1_556 S
C794 C796 1.327 . S
C794 H817 0.950 1_556 S
C795 C794 1.349 1_554 S
C795 C807 1.349 1_554 S
C796 C794 1.327 . S
C796 C812 1.429 . S
C796 H818 0.950 . S
C797 H793 0.949 . S
C797 C805 1.574 . S
C797 C813 1.368 . S
H798 C806 0.950 . S
H799 C804 0.950 . S
H800 C805 0.949 . S
H801 C807 0.951 1_554 S
H802 C808 0.950 . S
H803 C809 0.949 . S
C804 H799 0.950 . S
C804 C806 1.327 . S
C804 C810 1.429 . S
C805 C797 1.574 . S
C805 H800 0.949 . S
C805 C811 1.368 . S
C806 C790 1.349 . S
C806 H798 0.950 . S
C806 C804 1.327 . S
C807 C795 1.349 1_556 S
C807 H801 0.951 1_556 S
C807 C808 1.327 . S
C808 H802 0.950 . S
C808 C807 1.327 . S
C808 C812 1.429 . S
C809 C792 1.574 . S
C809 H803 0.949 . S
C809 C813 1.368 . S
C810 C791 1.429 . S
C810 C804 1.429 . S
C810 C811 1.523 . S
C811 C792 1.368 . S
C811 C805 1.368 . S
C811 C810 1.523 . S
C812 C796 1.429 . S
C812 C808 1.429 . S
C812 C813 1.523 . S
C813 C797 1.368 . S
C813 C809 1.368 . S
C813 C812 1.523 . S
H814 C789 0.950 . S
H815 C791 0.950 . S
H816 C792 0.949 . S
H817 C794 0.950 1_554 S
H818 C796 0.950 . S
C819 C820 1.349 . S
C819 C821 1.327 . S
C819 H844 0.950 . S
C820 C819 1.349 . S
C820 C836 1.352 . S
C821 C819 1.327 . S
C821 C840 1.429 . S
C821 H845 0.950 . S
C822 C839 1.574 . S
C822 C841 1.352 1_655 S
C822 H846 0.964 . S
H823 C827 0.949 . S
C824 C825 1.349 1_655 S
C824 C826 1.327 . S
C824 H847 0.950 . S
C825 C824 1.349 1_455 S
C825 C837 1.349 . S
C826 C824 1.327 . S
C826 C842 1.429 1_655 S
C826 H848 0.950 . S
C827 H823 0.949 . S
C827 C835 1.574 . S
C827 C843 1.368 . S
H828 C836 0.947 1_655 S
H829 C834 0.949 . S
H830 C835 0.949 . S
H831 C837 0.950 . S
H832 C838 0.950 . S
H833 C839 0.949 . S
C834 H829 0.949 . S
C834 C836 1.327 1_655 S
C834 C840 1.429 1_655 S
C835 C827 1.574 . S
C835 H830 0.949 . S
C835 C841 1.368 . S
C836 C820 1.352 . S
C836 H828 0.947 1_455 S
C836 C834 1.327 1_455 S
C837 C825 1.349 . S
C837 H831 0.950 . S
C837 C838 1.327 . S
C838 H832 0.950 . S
C838 C837 1.327 . S
C838 C842 1.429 . S
C839 C822 1.574 . S
C839 H833 0.949 . S
C839 C843 1.368 1_655 S
C840 C821 1.429 . S
C840 C834 1.429 1_455 S
C840 C841 1.523 . S
C841 C822 1.352 1_455 S
C841 C835 1.368 . S
C841 C840 1.523 . S
C842 C826 1.429 1_455 S
C842 C838 1.429 . S
C842 C843 1.523 . S
C843 C827 1.368 . S
C843 C839 1.368 1_455 S
C843 C842 1.523 . S
H844 C819 0.950 . S
H845 C821 0.950 . S
H846 C822 0.964 . S
H847 C824 0.950 . S
H848 C826 0.950 . S
C310 C20 1.060 . S
C315 C284 1.079 . S
C340 C41 1.106 . S
C345 C191 1.104 . S
C370 C64 1.130 . S
C375 C231 1.129 . S
C400 C19 1.099 . S
C405 C271 1.136 . S
C435 C204 1.110 . S
C430 C44 1.111 . S
C465 C244 1.101 . S
C460 C67 1.104 . S
C490 C43 1.041 . S
C495 C111 1.065 . S
C520 C66 1.044 . S
C525 C151 1.066 . S
C550 C21 1.110 . S
C555 C84 1.108 . S
C585 C124 1.127 . S
C580 C42 1.102 . S
C615 C164 1.137 . S
C610 C65 1.110 . S
C640 C18 1.108 . S
C645 C71 1.106 . S
C675 C170 1.437 . S
C670 C17 1.451 . S
C700 C39 1.446 . S
C705 C90 1.437 . S
C730 C62 1.467 . S
C735 C130 1.454 . S
C765 C250 1.423 1_545 S
C760 C40 1.430 . S
C795 C290 1.446 . S
C790 C63 1.453 . S
C820 C16 1.447 . S
C825 C210 1.437 1_455 S
