# Generated by pormake.
# Topology gar, (4,6)-cn, num edge types: 1
# Building blocks:
#     Node 0, Type 0, BuildingBlock: TATPOV_clean_sbu_0, # of connection points: 4
#     Node 1, Type 0, BuildingBlock: TATPOV_clean_sbu_0, # of connection points: 4
#     Node 2, Type 0, BuildingBlock: TATPOV_clean_sbu_0, # of connection points: 4
#     Node 3, Type 0, BuildingBlock: TATPOV_clean_sbu_0, # of connection points: 4
#     Node 4, Type 0, BuildingBlock: TATPOV_clean_sbu_0, # of connection points: 4
#     Node 5, Type 0, BuildingBlock: TATPOV_clean_sbu_0, # of connection points: 4
#     Node 6, Type 0, BuildingBlock: TATPOV_clean_sbu_0, # of connection points: 4
#     Node 7, Type 0, BuildingBlock: TATPOV_clean_sbu_0, # of connection points: 4
#     Node 8, Type 0, BuildingBlock: TATPOV_clean_sbu_0, # of connection points: 4
#     Node 9, Type 0, BuildingBlock: TATPOV_clean_sbu_0, # of connection points: 4
#     Node 10, Type 0, BuildingBlock: TATPOV_clean_sbu_0, # of connection points: 4
#     Node 11, Type 0, BuildingBlock: TATPOV_clean_sbu_0, # of connection points: 4
#     Node 12, Type 0, BuildingBlock: TATPOV_clean_sbu_0, # of connection points: 4
#     Node 13, Type 0, BuildingBlock: TATPOV_clean_sbu_0, # of connection points: 4
#     Node 14, Type 0, BuildingBlock: TATPOV_clean_sbu_0, # of connection points: 4
#     Node 15, Type 0, BuildingBlock: TATPOV_clean_sbu_0, # of connection points: 4
#     Node 16, Type 0, BuildingBlock: TATPOV_clean_sbu_0, # of connection points: 4
#     Node 17, Type 0, BuildingBlock: TATPOV_clean_sbu_0, # of connection points: 4
#     Node 18, Type 0, BuildingBlock: TATPOV_clean_sbu_0, # of connection points: 4
#     Node 19, Type 0, BuildingBlock: TATPOV_clean_sbu_0, # of connection points: 4
#     Node 20, Type 0, BuildingBlock: TATPOV_clean_sbu_0, # of connection points: 4
#     Node 21, Type 0, BuildingBlock: TATPOV_clean_sbu_0, # of connection points: 4
#     Node 22, Type 0, BuildingBlock: TATPOV_clean_sbu_0, # of connection points: 4
#     Node 23, Type 0, BuildingBlock: TATPOV_clean_sbu_0, # of connection points: 4
#     Node 24, Type 1, BuildingBlock: PAMTUU_clean_sbu_0, # of connection points: 6
#     Node 25, Type 1, BuildingBlock: PAMTUU_clean_sbu_0, # of connection points: 6
#     Node 26, Type 1, BuildingBlock: PAMTUU_clean_sbu_0, # of connection points: 6
#     Node 27, Type 1, BuildingBlock: PAMTUU_clean_sbu_0, # of connection points: 6
#     Node 28, Type 1, BuildingBlock: PAMTUU_clean_sbu_0, # of connection points: 6
#     Node 29, Type 1, BuildingBlock: PAMTUU_clean_sbu_0, # of connection points: 6
#     Node 30, Type 1, BuildingBlock: PAMTUU_clean_sbu_0, # of connection points: 6
#     Node 31, Type 1, BuildingBlock: PAMTUU_clean_sbu_0, # of connection points: 6
#     Node 32, Type 1, BuildingBlock: PAMTUU_clean_sbu_0, # of connection points: 6
#     Node 33, Type 1, BuildingBlock: PAMTUU_clean_sbu_0, # of connection points: 6
#     Node 34, Type 1, BuildingBlock: PAMTUU_clean_sbu_0, # of connection points: 6
#     Node 35, Type 1, BuildingBlock: PAMTUU_clean_sbu_0, # of connection points: 6
#     Node 36, Type 1, BuildingBlock: PAMTUU_clean_sbu_0, # of connection points: 6
#     Node 37, Type 1, BuildingBlock: PAMTUU_clean_sbu_0, # of connection points: 6
#     Node 38, Type 1, BuildingBlock: PAMTUU_clean_sbu_0, # of connection points: 6
#     Node 39, Type 1, BuildingBlock: PAMTUU_clean_sbu_0, # of connection points: 6
#     Edge 40, Type (0, 1), BuildingBlock: AJUNOK_clean_linker_0, # of connection points: 2
#     Edge 41, Type (0, 1), BuildingBlock: AJUNOK_clean_linker_0, # of connection points: 2
#     Edge 42, Type (0, 1), BuildingBlock: AJUNOK_clean_linker_0, # of connection points: 2
#     Edge 43, Type (0, 1), BuildingBlock: AJUNOK_clean_linker_0, # of connection points: 2
#     Edge 44, Type (0, 1), BuildingBlock: AJUNOK_clean_linker_0, # of connection points: 2
#     Edge 45, Type (0, 1), BuildingBlock: AJUNOK_clean_linker_0, # of connection points: 2
#     Edge 46, Type (0, 1), BuildingBlock: AJUNOK_clean_linker_0, # of connection points: 2
#     Edge 47, Type (0, 1), BuildingBlock: AJUNOK_clean_linker_0, # of connection points: 2
#     Edge 48, Type (0, 1), BuildingBlock: AJUNOK_clean_linker_0, # of connection points: 2
#     Edge 49, Type (0, 1), BuildingBlock: AJUNOK_clean_linker_0, # of connection points: 2
#     Edge 50, Type (0, 1), BuildingBlock: AJUNOK_clean_linker_0, # of connection points: 2
#     Edge 51, Type (0, 1), BuildingBlock: AJUNOK_clean_linker_0, # of connection points: 2
#     Edge 52, Type (0, 1), BuildingBlock: AJUNOK_clean_linker_0, # of connection points: 2
#     Edge 53, Type (0, 1), BuildingBlock: AJUNOK_clean_linker_0, # of connection points: 2
#     Edge 54, Type (0, 1), BuildingBlock: AJUNOK_clean_linker_0, # of connection points: 2
#     Edge 55, Type (0, 1), BuildingBlock: AJUNOK_clean_linker_0, # of connection points: 2
#     Edge 56, Type (0, 1), BuildingBlock: AJUNOK_clean_linker_0, # of connection points: 2
#     Edge 57, Type (0, 1), BuildingBlock: AJUNOK_clean_linker_0, # of connection points: 2
#     Edge 58, Type (0, 1), BuildingBlock: AJUNOK_clean_linker_0, # of connection points: 2
#     Edge 59, Type (0, 1), BuildingBlock: AJUNOK_clean_linker_0, # of connection points: 2
#     Edge 60, Type (0, 1), BuildingBlock: AJUNOK_clean_linker_0, # of connection points: 2
#     Edge 61, Type (0, 1), BuildingBlock: AJUNOK_clean_linker_0, # of connection points: 2
#     Edge 62, Type (0, 1), BuildingBlock: AJUNOK_clean_linker_0, # of connection points: 2
#     Edge 63, Type (0, 1), BuildingBlock: AJUNOK_clean_linker_0, # of connection points: 2
#     Edge 64, Type (0, 1), BuildingBlock: AJUNOK_clean_linker_0, # of connection points: 2
#     Edge 65, Type (0, 1), BuildingBlock: AJUNOK_clean_linker_0, # of connection points: 2
#     Edge 66, Type (0, 1), BuildingBlock: AJUNOK_clean_linker_0, # of connection points: 2
#     Edge 67, Type (0, 1), BuildingBlock: AJUNOK_clean_linker_0, # of connection points: 2
#     Edge 68, Type (0, 1), BuildingBlock: AJUNOK_clean_linker_0, # of connection points: 2
#     Edge 69, Type (0, 1), BuildingBlock: AJUNOK_clean_linker_0, # of connection points: 2
#     Edge 70, Type (0, 1), BuildingBlock: AJUNOK_clean_linker_0, # of connection points: 2
#     Edge 71, Type (0, 1), BuildingBlock: AJUNOK_clean_linker_0, # of connection points: 2
#     Edge 72, Type (0, 1), BuildingBlock: AJUNOK_clean_linker_0, # of connection points: 2
#     Edge 73, Type (0, 1), BuildingBlock: AJUNOK_clean_linker_0, # of connection points: 2
#     Edge 74, Type (0, 1), BuildingBlock: AJUNOK_clean_linker_0, # of connection points: 2
#     Edge 75, Type (0, 1), BuildingBlock: AJUNOK_clean_linker_0, # of connection points: 2
#     Edge 76, Type (0, 1), BuildingBlock: AJUNOK_clean_linker_0, # of connection points: 2
#     Edge 77, Type (0, 1), BuildingBlock: AJUNOK_clean_linker_0, # of connection points: 2
#     Edge 78, Type (0, 1), BuildingBlock: AJUNOK_clean_linker_0, # of connection points: 2
#     Edge 79, Type (0, 1), BuildingBlock: AJUNOK_clean_linker_0, # of connection points: 2
#     Edge 80, Type (0, 1), BuildingBlock: AJUNOK_clean_linker_0, # of connection points: 2
#     Edge 81, Type (0, 1), BuildingBlock: AJUNOK_clean_linker_0, # of connection points: 2
#     Edge 82, Type (0, 1), BuildingBlock: AJUNOK_clean_linker_0, # of connection points: 2
#     Edge 83, Type (0, 1), BuildingBlock: AJUNOK_clean_linker_0, # of connection points: 2
#     Edge 84, Type (0, 1), BuildingBlock: AJUNOK_clean_linker_0, # of connection points: 2
#     Edge 85, Type (0, 1), BuildingBlock: AJUNOK_clean_linker_0, # of connection points: 2
#     Edge 86, Type (0, 1), BuildingBlock: AJUNOK_clean_linker_0, # of connection points: 2
#     Edge 87, Type (0, 1), BuildingBlock: AJUNOK_clean_linker_0, # of connection points: 2
#     Edge 88, Type (0, 1), BuildingBlock: AJUNOK_clean_linker_0, # of connection points: 2
#     Edge 89, Type (0, 1), BuildingBlock: AJUNOK_clean_linker_0, # of connection points: 2
#     Edge 90, Type (0, 1), BuildingBlock: AJUNOK_clean_linker_0, # of connection points: 2
#     Edge 91, Type (0, 1), BuildingBlock: AJUNOK_clean_linker_0, # of connection points: 2
#     Edge 92, Type (0, 1), BuildingBlock: AJUNOK_clean_linker_0, # of connection points: 2
#     Edge 93, Type (0, 1), BuildingBlock: AJUNOK_clean_linker_0, # of connection points: 2
#     Edge 94, Type (0, 1), BuildingBlock: AJUNOK_clean_linker_0, # of connection points: 2
#     Edge 95, Type (0, 1), BuildingBlock: AJUNOK_clean_linker_0, # of connection points: 2
#     Edge 96, Type (0, 1), BuildingBlock: AJUNOK_clean_linker_0, # of connection points: 2
#     Edge 97, Type (0, 1), BuildingBlock: AJUNOK_clean_linker_0, # of connection points: 2
#     Edge 98, Type (0, 1), BuildingBlock: AJUNOK_clean_linker_0, # of connection points: 2
#     Edge 99, Type (0, 1), BuildingBlock: AJUNOK_clean_linker_0, # of connection points: 2
#     Edge 100, Type (0, 1), BuildingBlock: AJUNOK_clean_linker_0, # of connection points: 2
#     Edge 101, Type (0, 1), BuildingBlock: AJUNOK_clean_linker_0, # of connection points: 2
#     Edge 102, Type (0, 1), BuildingBlock: AJUNOK_clean_linker_0, # of connection points: 2
#     Edge 103, Type (0, 1), BuildingBlock: AJUNOK_clean_linker_0, # of connection points: 2
#     Edge 104, Type (0, 1), BuildingBlock: AJUNOK_clean_linker_0, # of connection points: 2
#     Edge 105, Type (0, 1), BuildingBlock: AJUNOK_clean_linker_0, # of connection points: 2
#     Edge 106, Type (0, 1), BuildingBlock: AJUNOK_clean_linker_0, # of connection points: 2
#     Edge 107, Type (0, 1), BuildingBlock: AJUNOK_clean_linker_0, # of connection points: 2
#     Edge 108, Type (0, 1), BuildingBlock: AJUNOK_clean_linker_0, # of connection points: 2
#     Edge 109, Type (0, 1), BuildingBlock: AJUNOK_clean_linker_0, # of connection points: 2
#     Edge 110, Type (0, 1), BuildingBlock: AJUNOK_clean_linker_0, # of connection points: 2
#     Edge 111, Type (0, 1), BuildingBlock: AJUNOK_clean_linker_0, # of connection points: 2
#     Edge 112, Type (0, 1), BuildingBlock: AJUNOK_clean_linker_0, # of connection points: 2
#     Edge 113, Type (0, 1), BuildingBlock: AJUNOK_clean_linker_0, # of connection points: 2
#     Edge 114, Type (0, 1), BuildingBlock: AJUNOK_clean_linker_0, # of connection points: 2
#     Edge 115, Type (0, 1), BuildingBlock: AJUNOK_clean_linker_0, # of connection points: 2
#     Edge 116, Type (0, 1), BuildingBlock: AJUNOK_clean_linker_0, # of connection points: 2
#     Edge 117, Type (0, 1), BuildingBlock: AJUNOK_clean_linker_0, # of connection points: 2
#     Edge 118, Type (0, 1), BuildingBlock: AJUNOK_clean_linker_0, # of connection points: 2
#     Edge 119, Type (0, 1), BuildingBlock: AJUNOK_clean_linker_0, # of connection points: 2
#     Edge 120, Type (0, 1), BuildingBlock: AJUNOK_clean_linker_0, # of connection points: 2
#     Edge 121, Type (0, 1), BuildingBlock: AJUNOK_clean_linker_0, # of connection points: 2
#     Edge 122, Type (0, 1), BuildingBlock: AJUNOK_clean_linker_0, # of connection points: 2
#     Edge 123, Type (0, 1), BuildingBlock: AJUNOK_clean_linker_0, # of connection points: 2
#     Edge 124, Type (0, 1), BuildingBlock: AJUNOK_clean_linker_0, # of connection points: 2
#     Edge 125, Type (0, 1), BuildingBlock: AJUNOK_clean_linker_0, # of connection points: 2
#     Edge 126, Type (0, 1), BuildingBlock: AJUNOK_clean_linker_0, # of connection points: 2
#     Edge 127, Type (0, 1), BuildingBlock: AJUNOK_clean_linker_0, # of connection points: 2
#     Edge 128, Type (0, 1), BuildingBlock: AJUNOK_clean_linker_0, # of connection points: 2
#     Edge 129, Type (0, 1), BuildingBlock: AJUNOK_clean_linker_0, # of connection points: 2
#     Edge 130, Type (0, 1), BuildingBlock: AJUNOK_clean_linker_0, # of connection points: 2
#     Edge 131, Type (0, 1), BuildingBlock: AJUNOK_clean_linker_0, # of connection points: 2
#     Edge 132, Type (0, 1), BuildingBlock: AJUNOK_clean_linker_0, # of connection points: 2
#     Edge 133, Type (0, 1), BuildingBlock: AJUNOK_clean_linker_0, # of connection points: 2
#     Edge 134, Type (0, 1), BuildingBlock: AJUNOK_clean_linker_0, # of connection points: 2
#     Edge 135, Type (0, 1), BuildingBlock: AJUNOK_clean_linker_0, # of connection points: 2
# Relax obj value: 0.254
# Max RMSD: 0.381
# Mean RMSD: 0.193
data_MOF--net-gar--node1-TATPOV_clean_sbu_0--node2-PAMTUU_clean_sbu_0--edge1-AJUNOK_clean_linker_0
_symmetry_space_group_name_H-M    P1
_symmetry_Int_Tables_number       1
_symmetry_cell_setting            triclinic
loop_
_symmetry_equiv_pos_as_xyz
'x, y, z'
_cell_length_a     45.825477
_cell_length_b     41.957071
_cell_length_c     45.377908
_cell_angle_alpha  94.311689
_cell_angle_beta   95.425413
_cell_angle_gamma 109.86945
loop_
_atom_site_label
_atom_site_type_symbol
_atom_site_fract_x
_atom_site_fract_y
_atom_site_fract_z
_atom_type_partial_charge
Zn0 Zn 0.04738 0.30482 0.44157 0.0
Zn1 Zn 0.0928 0.31565 0.40629 0.0
O2 O 0.10044 0.36715 0.4349 0.0
O3 O 0.06194 0.35382 0.46262 0.0
O4 O 0.14045 0.32325 0.38119 0.0
O5 O 0.05309 0.26453 0.462 0.0
O6 O 0.0894 0.26788 0.43305 0.0
C7 C 0.08501 0.37673 0.4546 0.0
C8 C 1.01508 0.3044 0.38371 0.0
O9 O 0.04411 0.31152 0.37735 0.0
O10 O 1.01017 0.29677 0.40975 0.0
C11 C 0.1528 0.30286 0.36707 0.0
O12 O 0.13563 0.27029 0.3634 0.0
C13 C 0.07322 0.25245 0.45354 0.0
Zn14 Zn 0.07185 0.77977 0.72214 0.0
Zn15 Zn 0.08424 0.83041 0.68732 0.0
O16 O 0.03918 0.82713 0.71274 0.0
O17 O 0.03146 0.78493 0.74012 0.0
O18 O 0.09177 0.88004 0.66209 0.0
O19 O 0.11888 0.79494 0.74314 0.0
O20 O 0.13247 0.83559 0.71397 0.0
C21 C 1.0222 0.80848 0.73139 0.0
C22 C 0.07299 0.75018 0.66095 0.0
O23 O 0.0794 0.78204 0.65594 0.0
O24 O 0.06628 0.74282 0.68674 0.0
C25 C 0.07719 0.88678 0.63825 0.0
O26 O 0.0538 0.86107 0.62362 0.0
C27 C 0.141 0.81808 0.73367 0.0
Zn28 Zn 0.54841 0.8037 0.94274 0.0
Zn29 Zn 0.59352 0.81686 0.90758 0.0
O30 O 0.5997 0.8682 0.93668 0.0
O31 O 0.56217 0.85145 0.96504 0.0
O32 O 0.64096 0.8244 0.8815 0.0
O33 O 0.5543 0.76416 0.96355 0.0
O34 O 0.59064 0.76922 0.93414 0.0
C35 C 0.58403 0.87591 0.95718 0.0
C36 C 0.51547 0.80312 0.8851 0.0
O37 O 0.54452 0.81119 0.87862 0.0
O38 O 0.51095 0.79533 0.91117 0.0
C39 C 0.65691 0.80421 0.87422 0.0
O40 O 0.64505 0.77278 0.88078 0.0
C41 C 0.57483 0.75313 0.95458 0.0
Zn42 Zn 0.57127 0.28333 0.22335 0.0
Zn43 Zn 0.58177 0.33157 0.18763 0.0
O44 O 0.53683 0.32965 0.21237 0.0
O45 O 0.53202 0.28969 0.24167 0.0
O46 O 0.59064 0.37937 0.16064 0.0
O47 O 0.61749 0.29758 0.24459 0.0
O48 O 0.6303 0.33698 0.21421 0.0
C49 C 0.52115 0.31171 0.23205 0.0
C50 C 0.56981 0.25122 0.16257 0.0
O51 O 0.57517 0.28259 0.15661 0.0
O52 O 0.56498 0.2451 0.18905 0.0
C53 C 0.57268 0.39493 0.14867 0.0
O54 O 0.54258 0.38163 0.15035 0.0
C55 C 0.63926 0.32026 0.2344 0.0
Zn56 Zn 0.1824 0.85415 0.11225 0.0
Zn57 Zn 0.14163 0.84158 0.14898 0.0
O58 O 0.13396 0.88278 0.12927 0.0
O59 O 0.17018 0.89589 0.09957 0.0
O60 O 0.1085 0.83148 0.17514 0.0
O61 O 0.16205 0.80383 0.09181 0.0
O62 O 0.12892 0.7944 0.12465 0.0
C63 C 0.14773 0.90189 0.11046 0.0
C64 C 0.20991 0.85466 0.17362 0.0
O65 O 0.18177 0.8493 0.17861 0.0
O66 O 0.21669 0.8593 0.1474 0.0
C67 C 0.10855 0.85335 0.19594 0.0
O68 O 0.13197 0.88261 0.201 0.0
C69 C 0.13987 0.78307 0.10309 0.0
Zn70 Zn 0.4897 0.77281 0.49554 0.0
Zn71 Zn 0.53356 0.78804 0.46129 0.0
O72 O 0.54395 0.83565 0.48546 0.0
O73 O 0.50786 0.82335 0.51551 0.0
O74 O 0.56826 0.79592 0.43577 0.0
O75 O 0.50243 0.73235 0.51033 0.0
O76 O 0.54096 0.74777 0.48332 0.0
C77 C 0.53042 0.84547 0.50581 0.0
C78 C 0.46429 0.77127 0.43384 0.0
O79 O 0.49322 0.77886 0.43059 0.0
O80 O 0.45605 0.76546 0.45943 0.0
C81 C 0.57059 0.81072 0.41226 0.0
O82 O 0.54904 0.82318 0.40318 0.0
C83 C 0.52647 0.72805 0.50145 0.0
Zn84 Zn 0.67746 0.35142 0.61834 0.0
Zn85 Zn 0.63633 0.33673 0.65493 0.0
O86 O 0.62874 0.37742 0.6348 0.0
O87 O 0.66389 0.39186 0.60424 0.0
O88 O 0.60287 0.32945 0.6807 0.0
O89 O 0.65738 0.30001 0.59943 0.0
O90 O 0.62311 0.28901 0.63119 0.0
C91 C 0.6413 0.39681 0.61568 0.0
C92 C 0.7057 0.35432 0.67965 0.0
O93 O 0.67704 0.34551 0.68406 0.0
O94 O 0.71269 0.36022 0.65367 0.0
C95 C 0.60186 0.31982 0.70648 0.0
O96 O 0.62548 0.31281 0.71942 0.0
C97 C 0.63505 0.27847 0.61 0.0
Zn98 Zn 0.99607 0.27854 0.99549 0.0
Zn99 Zn 0.03955 0.2941 0.96028 0.0
O100 O 0.05112 0.34057 0.98534 0.0
O101 O 1.01425 0.32974 0.01464 0.0
O102 O 0.07383 0.30232 0.93488 0.0
O103 O 1.00982 0.23825 0.00977 0.0
O104 O 0.04645 0.25338 0.98066 0.0
C105 C 0.03772 0.351 1.00537 0.0
C106 C 0.97083 0.27772 0.9337 0.0
O107 O 0.99971 0.28638 0.93024 0.0
O108 O 0.96275 0.27074 0.95914 0.0
C109 C 0.0742 0.31312 0.90951 0.0
O110 O 0.05053 0.32118 0.89819 0.0
C111 C 0.03309 0.23377 0.99931 0.0
Zn112 Zn 0.53557 0.02975 0.34199 0.0
Zn113 Zn 0.48985 0.07788 0.33814 0.0
O114 O 0.50716 0.10181 0.37968 0.0
O115 O 0.53061 0.06607 0.36996 0.0
O116 O 0.45983 0.09567 0.31733 0.0
O117 O 0.53655 0.03938 0.29887 0.0
O118 O 0.52634 0.08362 0.31606 0.0
C119 C 0.52758 0.08895 0.38768 0.0
C120 C 0.46766 0.99824 0.34287 0.0
O121 O 0.46609 0.02761 0.34013 0.0
O122 O 0.49358 0.99299 0.34485 0.0
C123 C 0.4312 0.08121 0.32032 0.0
O124 O 0.42352 0.05795 0.33878 0.0
C125 C 0.52544 0.06264 0.29422 0.0
Zn126 Zn 0.29918 0.28893 0.5435 0.0
Zn127 Zn 0.33298 0.25222 0.54533 0.0
O128 O 0.34318 0.27542 0.50445 0.0
O129 O 0.31463 0.30785 0.50312 0.0
O130 O 0.36143 0.22521 0.54636 0.0
O131 O 0.3126 0.30706 0.58984 0.0
O132 O 0.34118 0.27464 0.59129 0.0
C133 C 0.33285 0.29568 0.49045 0.0
C134 C 0.26266 0.21635 0.53682 0.0
O135 O 0.28965 0.2138 0.5393 0.0
O136 O 0.26041 0.24568 0.53714 0.0
C137 C 0.35511 0.2001 0.56158 0.0
O138 O 0.33131 0.19407 0.57698 0.0
C139 C 0.32969 0.29436 0.60533 0.0
Zn140 Zn 0.20014 0.13912 0.88574 0.0
Zn141 Zn 0.20565 0.08421 0.85725 0.0
O142 O 0.18894 0.06562 0.8938 0.0
O143 O 0.18316 0.11049 0.91749 0.0
O144 O 0.22176 0.05 0.84128 0.0
O145 O 0.17052 0.13511 0.84807 0.0
O146 O 0.17142 0.08579 0.82818 0.0
C147 C 0.18042 0.07936 0.91548 0.0
C148 C 0.25843 0.15549 0.86959 0.0
O149 O 0.24422 0.12549 0.85697 0.0
O150 O 0.24558 0.16853 0.88812 0.0
C151 C 0.2463 0.05181 0.85787 0.0
O152 O 0.25407 0.07147 0.88338 0.0
C153 C 0.16091 0.11012 0.82769 0.0
Zn154 Zn 0.38083 0.9333 0.99992 0.0
Zn155 Zn 0.34361 0.9576 0.01396 0.0
O156 O 0.3223 0.92496 0.97616 0.0
O157 O 0.34895 0.89058 0.97928 0.0
O158 O 0.31314 0.97894 0.02414 0.0
O159 O 0.39851 0.93479 0.04199 0.0
O160 O 0.35374 0.93805 0.05207 0.0
C161 C 0.32623 0.89747 0.9671 0.0
C162 C 0.4005 0.99959 0.98911 0.0
O163 O 0.38065 0.99835 0.00709 0.0
O164 O 0.40127 0.97198 0.97662 0.0
C165 C 0.3227 1.00332 0.045 0.0
O166 O 0.35111 1.01155 0.0591 0.0
C167 C 0.37953 0.93424 0.06055 0.0
Zn168 Zn 0.37782 0.35593 0.0572 0.0
Zn169 Zn 0.34137 0.38995 0.05503 0.0
O170 O 0.33052 0.36467 0.01012 0.0
O171 O 0.36401 0.33795 0.01078 0.0
O172 O 0.31056 0.41441 0.05363 0.0
O173 O 0.36254 0.33656 0.09759 0.0
O174 O 0.33566 0.37058 0.09831 0.0
C175 C 0.34397 0.34729 0.99579 0.0
C176 C 0.41171 0.4279 0.05961 0.0
O177 O 0.38404 0.42848 0.05622 0.0
O178 O 0.41608 0.40005 0.06284 0.0
C179 C 0.31761 0.44384 0.04493 0.0
O180 O 0.34542 0.45862 0.037 0.0
C181 C 0.34618 0.35012 0.11182 0.0
Zn182 Zn 0.78001 0.18187 0.10656 0.0
Zn183 Zn 0.82054 0.1627 0.09204 0.0
O184 O 0.80892 0.1832 0.05535 0.0
O185 O 0.76218 0.18144 0.06486 0.0
O186 O 0.85222 0.14422 0.07913 0.0
O187 O 0.80959 0.22553 0.1265 0.0
O188 O 0.84126 0.1965 0.12997 0.0
C189 C 0.78239 0.18532 0.04708 0.0
C190 C 0.7624 0.11646 0.11295 0.0
O191 O 0.78352 0.12046 0.096 0.0
O192 O 0.7627 0.14206 0.12964 0.0
C193 C 0.84277 0.11904 0.05893 0.0
O194 O 0.813 0.10614 0.04814 0.0
C195 C 0.83469 0.2228 0.13785 0.0
Zn196 Zn 0.14157 0.5686 0.22986 0.0
Zn197 Zn 0.18451 0.54264 0.25075 0.0
O198 O 0.15383 0.53527 0.2806 0.0
O199 O 0.11792 0.55565 0.26406 0.0
O200 O 0.21568 0.52583 0.26911 0.0
O201 O 0.13361 0.53236 0.19604 0.0
O202 O 0.17007 0.51243 0.21217 0.0
C203 C 0.12879 0.54117 0.28348 0.0
C204 C 0.2041 0.61783 0.24227 0.0
O205 O 0.21054 0.59185 0.24857 0.0
O206 O 0.17618 0.61501 0.23346 0.0
C207 C 0.2366 0.54349 0.28998 0.0
O208 O 0.237 0.57369 0.30049 0.0
C209 C 0.14765 0.51119 0.19311 0.0
Zn210 Zn 0.87819 0.8508 0.55697 0.0
Zn211 Zn 0.84378 0.88702 0.55591 0.0
O212 O 0.83429 0.86293 0.51036 0.0
O213 O 0.86219 0.82973 0.51198 0.0
O214 O 0.81493 0.9138 0.55703 0.0
O215 O 0.86608 0.83411 0.59905 0.0
O216 O 0.836 0.86482 0.59766 0.0
C217 C 0.84509 0.84242 0.49653 0.0
C218 C 0.91338 0.92309 0.55714 0.0
O219 O 0.88664 0.92577 0.55845 0.0
O220 O 0.91617 0.89405 0.55716 0.0
C221 C 0.79909 0.91903 0.53464 0.0
O222 O 0.80048 0.90565 0.50794 0.0
C223 C 0.84762 0.8457 0.61193 0.0
Zn224 Zn 0.94516 0.98284 0.20963 0.0
Zn225 Zn 0.94078 0.04022 0.22635 0.0
O226 O 0.96733 0.03477 0.26157 0.0
O227 O 0.95072 0.97872 0.2544 0.0
O228 O 0.9284 0.0786 0.23986 0.0
O229 O 0.98338 1.00906 0.19386 0.0
O230 O 0.96712 0.05265 0.1928 0.0
C231 C 0.96473 1.00645 0.27119 0.0
C232 C 0.88724 0.97605 0.20305 0.0
O233 O 0.89909 1.0018 0.22229 0.0
O234 O 0.90379 0.97283 0.18325 0.0
C235 C 0.91475 0.07255 0.26299 0.0
O236 O 0.91365 0.04505 0.27556 0.0
C237 C 0.98646 0.03828 0.18638 0.0
Zn238 Zn 0.27271 0.66842 0.60572 0.0
Zn239 Zn 0.32327 0.67007 0.59285 0.0
O240 O 0.31327 0.69971 0.56365 0.0
O241 O 0.26254 0.67351 0.5619 0.0
O242 O 0.36107 0.66221 0.58176 0.0
O243 O 0.29155 0.70956 0.63384 0.0
O244 O 0.33274 0.6937 0.63576 0.0
C245 C 0.28558 0.69315 0.55104 0.0
C246 C 0.27137 0.60704 0.59998 0.0
O247 O 0.29059 0.62215 0.58291 0.0
O248 O 0.27004 0.62449 0.62323 0.0
C249 C 0.35659 0.64573 0.55611 0.0
O250 O 0.33014 0.6399 0.53894 0.0
C251 C 0.31767 0.71118 0.64688 0.0
Zn252 Zn 0.43381 0.47045 0.70823 0.0
Zn253 Zn 0.4409 0.53294 0.72855 0.0
O254 O 0.47177 0.52502 0.75837 0.0
O255 O 0.45492 0.46893 0.74954 0.0
O256 O 0.43843 0.57675 0.74443 0.0
O257 O 0.46065 0.49097 0.67733 0.0
O258 O 0.45805 0.5414 0.69002 0.0
C259 C 0.47155 0.49635 0.76554 0.0
C260 C 0.37773 0.47217 0.72008 0.0
O261 O 0.39688 0.50108 0.73165 0.0
O262 O 0.38672 0.45438 0.70173 0.0
C263 C 0.43238 0.5776 0.7711 0.0
O264 O 0.43206 0.55199 0.78619 0.0
C265 C 0.46737 0.5221 0.67349 0.0
Zn266 Zn 0.67214 0.10297 0.72536 0.0
Zn267 Zn 0.70494 0.06462 0.74381 0.0
O268 O 0.68258 0.06978 0.77849 0.0
O269 O 0.65845 0.10501 0.76563 0.0
O270 O 0.733 0.04232 0.75965 0.0
O271 O 0.64766 0.06096 0.69854 0.0
O272 O 0.67627 0.02998 0.71119 0.0
C273 C 0.66552 0.0871 0.78432 0.0
C274 C 0.7364 0.13649 0.72562 0.0
O275 O 0.73651 0.10929 0.73604 0.0
O276 O 0.71071 0.13966 0.71645 0.0
C277 C 0.7501 0.05612 0.78404 0.0
O278 O 0.74804 0.08383 0.7977 0.0
C279 C 0.65247 0.03293 0.6968 0.0
Zn280 Zn 0.80288 0.77887 0.04357 0.0
Zn281 Zn 0.83452 0.73974 0.04578 0.0
O282 O 0.84161 0.75923 1.00276 0.0
O283 O 0.82012 0.79839 1.0038 0.0
O284 O 0.86585 0.71618 0.05035 0.0
O285 O 0.81573 0.79886 0.0896 0.0
O286 O 0.84023 0.76254 0.09136 0.0
C287 C 0.83438 0.78208 0.98959 0.0
C288 C 0.76587 0.70491 0.03799 0.0
O289 O 0.79245 0.70158 0.04114 0.0
O290 O 0.7639 0.73436 0.03773 0.0
C291 C 0.85914 0.6846 0.04239 0.0
O292 O 0.83097 0.6666 0.02904 0.0
C293 C 0.83051 0.78394 0.10534 0.0
Zn294 Zn 1.00977 0.5472 0.86554 0.0
Zn295 Zn 0.97905 0.58551 0.85311 0.0
O296 O 1.00443 0.61232 0.89044 0.0
O297 O 0.04141 0.59065 0.8872 0.0
O298 O 0.95004 0.60799 0.84057 0.0
O299 O 1.00611 0.5379 0.8212 0.0
O300 O 1.00165 0.58795 0.81753 0.0
C301 C 0.03185 0.61309 0.89878 0.0
C302 C 0.94924 0.51424 0.87127 0.0
O303 O 0.94896 0.53821 0.85602 0.0
O304 O 0.9749 0.51499 0.88495 0.0
C305 C 0.9222 0.59712 0.84666 0.0
O306 O 0.91461 0.5761 0.86699 0.0
C307 C 1.0053 0.56151 0.80581 0.0
Zn308 Zn 0.89159 0.43605 0.48775 0.0
Zn309 Zn 0.84651 0.45877 0.51525 0.0
O310 O 0.82194 0.42314 0.48001 0.0
O311 O 0.86221 0.45379 0.46258 0.0
O312 O 0.81783 0.48011 0.53056 0.0
O313 O 0.88627 0.41105 0.52559 0.0
O314 O 0.85669 0.43476 0.54803 0.0
C315 C 0.83628 0.43033 0.45773 0.0
C316 C 0.9139 0.50534 0.50307 0.0
O317 O 0.88655 0.49987 0.5104 0.0
O318 O 0.92312 0.48111 0.49522 0.0
C319 C 0.82105 0.51038 0.52565 0.0
O320 O 0.8416 0.52592 0.50839 0.0
C321 C 0.87288 0.41559 0.54798 0.0
Zn322 Zn 0.67787 0.62301 0.37227 0.0
Zn323 Zn 0.69534 0.56969 0.36395 0.0
O324 O 0.68216 0.56505 0.40522 0.0
O325 O 0.672 0.61252 0.41246 0.0
O326 O 0.7147 0.53495 0.35589 0.0
O327 O 0.64352 0.60174 0.33896 0.0
O328 O 0.6596 0.55848 0.33061 0.0
C329 C 0.67438 0.58583 0.42176 0.0
C330 C 0.73785 0.64332 0.35927 0.0
O331 O 0.73193 0.61151 0.35842 0.0
O332 O 0.71764 0.65627 0.36503 0.0
C333 C 0.7265 0.53793 0.33159 0.0
O334 O 0.72142 0.5595 0.31399 0.0
C335 C 0.64099 0.57412 0.32384 0.0
Tb336 Tb 0.12761 0.09705 0.06909 0.0
Tb337 Tb 0.05735 0.0435 0.04445 0.0
C338 C 0.07328 0.08619 0.10504 0.0
C339 C 0.21053 0.12581 0.08003 0.0
C340 C 0.25104 0.09058 0.06787 0.0
C341 C 0.24948 0.10193 0.09739 0.0
C342 C 0.22938 0.1195 0.10343 0.0
C343 C 0.21391 0.11662 0.05041 0.0
C344 C 0.23414 0.09934 0.04442 0.0
C345 C 0.18301 0.13427 0.08649 0.0
O346 O 0.13162 0.04642 0.07018 0.0
O347 O 0.08012 0.01428 0.0711 0.0
O348 O 0.08445 0.03043 0.0126 0.0
O349 O 0.12939 0.07801 0.02426 0.0
O350 O 1.01737 1.00767 0.05692 0.0
O351 O 1.01827 0.02143 0.01186 0.0
O352 O 0.05979 0.0908 0.02492 0.0
O353 O 0.10129 0.13003 0.05577 0.0
O354 O 0.10179 0.08649 0.10636 0.0
O355 O 0.05595 0.0804 0.07951 0.0
C356 C 0.11007 0.01779 0.075 0.0
O357 O 0.16642 0.13969 0.0637 0.0
O358 O 0.1654 0.11408 0.1033 0.0
C359 C 0.11238 0.04947 0.00785 0.0
C360 C 0.97441 0.01954 0.03496 0.0
C361 C 0.92995 0.05167 0.03668 0.0
C362 C 0.92671 0.0263 0.0133 0.0
C363 C 0.94904 1.01045 0.01232 0.0
C364 C 0.97675 0.04393 0.05888 0.0
C365 C 0.95474 0.05978 0.05975 0.0
C366 C 1.00074 1.00772 0.0319 0.0
C367 C 0.0767 0.12274 0.03536 0.0
H368 H 0.26234 0.09543 0.11585 0.0
H369 H 0.22686 0.12592 0.12641 0.0
H370 H 0.19955 0.1208 0.03179 0.0
H371 H 0.23557 0.09158 0.02144 0.0
H372 H 0.90749 0.01953 0.99544 0.0
H373 H 0.94708 0.99199 0.99354 0.0
H374 H 0.99604 0.05148 0.07667 0.0
H375 H 0.95724 0.07863 0.07841 0.0
Tb376 Tb 0.31074 0.81014 0.3296 0.0
Tb377 Tb 0.3581 0.81114 0.28047 0.0
C378 C 0.29745 0.83024 0.26553 0.0
C379 C 0.26936 0.78801 0.39393 0.0
C380 C 0.26659 0.75391 0.44469 0.0
C381 C 0.25905 0.78366 0.445 0.0
C382 C 0.26042 0.80066 0.41965 0.0
C383 C 0.27567 0.75749 0.39323 0.0
C384 C 0.27407 0.74038 0.41848 0.0
C385 C 0.27562 0.80857 0.3692 0.0
O386 O 0.30195 0.7574 0.31387 0.0
O387 O 0.31874 0.76431 0.26796 0.0
O388 O 0.37259 0.78313 0.31402 0.0
O389 O 0.3516 0.80187 0.35313 0.0
O390 O 0.36906 0.79535 0.23914 0.0
O391 O 0.40293 0.83601 0.26924 0.0
O392 O 0.37927 0.85197 0.31592 0.0
O393 O 0.33569 0.86306 0.32447 0.0
O394 O 0.28537 0.81499 0.28805 0.0
O395 O 0.3274 0.83759 0.2629 0.0
C396 C 0.30148 0.74585 0.28613 0.0
O397 O 0.3042 0.83006 0.3712 0.0
O398 O 0.26591 0.79183 0.34268 0.0
C399 C 0.37143 0.78838 0.34283 0.0
C400 C 0.39863 0.84381 0.21892 0.0
C401 C 0.39922 0.88429 0.17244 0.0
C402 C 0.40929 0.85621 0.16911 0.0
C403 C 0.40904 0.83612 0.19226 0.0
C404 C 0.389 0.87217 0.22251 0.0
C405 C 0.38925 0.89225 0.19938 0.0
C406 C 0.39542 0.82091 0.24212 0.0
C407 C 0.36592 0.87316 0.32472 0.0
H408 H 0.25327 0.79435 0.46517 0.0
H409 H 0.25579 0.82435 0.4205 0.0
H410 H 0.28308 0.74769 0.37361 0.0
H411 H 0.28029 0.71764 0.41805 0.0
H412 H 0.4163 0.84906 0.1482 0.0
H413 H 0.41612 0.81408 0.18906 0.0
H414 H 0.38064 0.87837 0.24295 0.0
H415 H 0.38121 0.91363 0.20235 0.0
Tb416 Tb 0.54336 0.05654 0.56473 0.0
Tb417 Tb 0.61623 0.06641 0.55467 0.0
C418 C 0.58494 0.03276 0.60667 0.0
C419 C 0.4706 0.07565 0.56876 0.0
C420 C 0.43379 0.11716 0.56535 0.0
C421 C 0.43905 0.10384 0.592 0.0
C422 C 0.45707 0.08302 0.5936 0.0
C423 C 0.46649 0.09013 0.54238 0.0
C424 C 0.44815 0.11072 0.54071 0.0
C425 C 0.48848 0.05254 0.57084 0.0
O426 O 0.57348 0.10771 0.58696 0.0
O427 O 0.61502 0.11788 0.56011 0.0
O428 O 0.59059 0.06455 0.51211 0.0
O429 O 0.55402 0.08552 0.52758 0.0
O430 O 0.6623 0.07913 0.57532 0.0
O431 O 0.65133 0.06869 0.5275 0.0
O432 O 0.59334 1.0112 0.54661 0.0
O433 O 0.54148 1.00761 0.54086 0.0
O434 O 0.55626 0.025 0.59463 0.0
O435 O 0.60723 0.05917 0.59986 0.0
C436 C 0.59833 0.12924 0.57732 0.0
O437 O 0.49668 0.04237 0.54602 0.0
O438 O 0.51093 0.06053 0.59313 0.0
C439 C 0.57071 0.08029 0.50728 0.0
C440 C 0.69079 0.05088 0.54942 0.0
C441 C 0.72476 1.00634 0.54583 0.0
C442 C 0.724 0.02735 0.52329 0.0
C443 C 0.70708 0.04933 0.52505 0.0
C444 C 0.69162 0.03002 0.57206 0.0
C445 C 0.70809 1.00759 0.57007 0.0
C446 C 0.67254 0.07372 0.55026 0.0
C447 C 0.5633 0.99349 0.53934 0.0
H448 H 0.42899 0.1093 0.61159 0.0
H449 H 0.46026 0.07246 0.61422 0.0
H450 H 0.47702 0.08524 0.52295 0.0
H451 H 0.44459 0.12094 0.51998 0.0
H452 H 0.73678 0.02706 0.50444 0.0
H453 H 0.70674 0.06521 0.50734 0.0
H454 H 0.67968 0.03103 0.59132 0.0
H455 H 0.70764 0.99117 0.58746 0.0
Tb456 Tb 0.37117 0.33403 0.80524 0.0
Tb457 Tb 0.29564 0.30132 0.79597 0.0
C458 C 0.33501 0.25862 0.8098 0.0
C459 C 0.45356 0.34716 0.79474 0.0
C460 C 0.4994 0.33265 0.76525 0.0
C461 C 0.48283 0.31003 0.78407 0.0
C462 C 0.46009 0.31723 0.79877 0.0
C463 C 0.46993 0.36954 0.77558 0.0
C464 C 0.49256 0.36222 0.76079 0.0
C465 C 0.43011 0.35549 0.81057 0.0
O466 O 0.35884 0.30985 0.75798 0.0
O467 O 0.30765 0.30661 0.75 0.0
O468 O 0.30295 0.35498 0.79804 0.0
O469 O 0.35511 0.37406 0.79163 0.0
O470 O 0.2573 0.26279 0.80841 0.0
O471 O 0.25087 0.29487 0.77521 0.0
O472 O 0.30895 0.31294 0.84522 0.0
O473 O 0.35994 0.34943 0.84917 0.0
O474 O 0.35717 0.28573 0.82301 0.0
O475 O 0.31573 0.26216 0.78838 0.0
C476 C 0.3336 0.30676 0.73931 0.0
O477 O 0.41306 0.36972 0.79587 0.0
O478 O 0.41344 0.33215 0.82546 0.0
C479 C 0.32803 0.37821 0.79148 0.0
C480 C 0.21429 0.28138 0.80989 0.0
C481 C 0.17107 0.29732 0.84287 0.0
C482 C 0.18463 0.31799 0.82136 0.0
C483 C 0.20589 0.31 0.80488 0.0
C484 C 0.2013 0.26123 0.83196 0.0
C485 C 0.1798 0.26905 0.84823 0.0
C486 C 0.23735 0.27314 0.79312 0.0
C487 C 0.33474 0.3339 0.86174 0.0
H488 H 0.48751 0.28683 0.78741 0.0
H489 H 0.4478 0.29942 0.81337 0.0
H490 H 0.46539 0.39282 0.77222 0.0
H491 H 0.50521 0.38003 0.74635 0.0
H492 H 0.17888 0.34042 0.81735 0.0
H493 H 0.21584 0.32641 0.78836 0.0
H494 H 0.20757 0.23923 0.83646 0.0
H495 H 0.16961 0.25266 0.86469 0.0
Tb496 Tb 0.08469 0.09381 0.57669 0.0
Tb497 Tb 0.08799 0.05269 0.51694 0.0
C498 C 1.0251 0.03685 0.54372 0.0
C499 C 0.08385 0.11766 0.65545 0.0
C500 C 0.09184 0.10838 0.71554 0.0
C501 C 0.07764 0.13157 0.70654 0.0
C502 C 0.07405 0.13652 0.67655 0.0
C503 C 0.09478 0.0919 0.66405 0.0
C504 C 0.099 0.08747 0.69392 0.0
C505 C 0.08595 0.12707 0.62526 0.0
O506 O 0.0961 0.04911 0.59344 0.0
O507 O 0.0863 0.0147 0.5495 0.0
O508 O 0.13621 0.07638 0.53794 0.0
O509 O 0.12664 0.12171 0.55851 0.0
O510 O 0.07498 1.00607 0.49 0.0
O511 O 0.1064 0.05196 0.47631 0.0
O512 O 0.08671 0.10241 0.50144 0.0
O513 O 0.07104 0.12393 0.5424 0.0
O514 O 0.0407 0.05175 0.56952 0.0
O515 O 0.03822 0.04211 0.51916 0.0
C516 C 0.09145 0.01847 0.57905 0.0
O517 O 0.11091 0.12572 0.61432 0.0
O518 O 0.06062 0.11346 0.60623 0.0
C519 C 0.14612 0.10871 0.54802 0.0
C520 C 0.06868 0.01426 0.43998 0.0
C521 C 0.03165 1.00805 0.38579 0.0
C522 C 0.06092 1.00413 0.38619 0.0
C523 C 0.07943 1.00732 0.41325 0.0
C524 C 0.03912 0.0174 0.43959 0.0
C525 C 1.02063 1.01409 0.41266 0.0
C526 C 0.08883 0.02031 0.46819 0.0
C527 C 0.078 0.12661 0.5146 0.0
H528 H 0.07116 0.14732 0.72283 0.0
H529 H 0.06518 0.15618 0.67008 0.0
H530 H 0.10221 0.07689 0.64797 0.0
H531 H 0.11012 0.06953 0.70018 0.0
H532 H 0.0698 0.99961 0.36558 0.0
H533 H 0.10231 1.00511 0.4133 0.0
H534 H 0.03055 0.02296 0.46008 0.0
H535 H 0.99793 0.01674 0.41277 0.0
Tb536 Tb 0.35301 0.85721 0.79197 0.0
Tb537 Tb 0.31413 0.77495 0.80776 0.0
C538 C 0.35174 0.80399 0.7528 0.0
C539 C 0.35939 0.94386 0.7954 0.0
C540 C 0.3265 0.98581 0.81196 0.0
C541 C 0.35904 0.99981 0.81177 0.0
C542 C 0.37555 0.97873 0.80352 0.0
C543 C 0.3269 0.93029 0.79512 0.0
C544 C 0.31056 0.95105 0.80318 0.0
C545 C 0.37566 0.9202 0.78983 0.0
O546 O 0.30095 0.84267 0.77365 0.0
O547 O 0.27443 0.7917 0.79188 0.0
O548 O 0.30779 0.80186 0.84631 0.0
O549 O 0.33038 0.85686 0.83295 0.0
O550 O 0.29266 0.7299 0.77912 0.0
O551 O 0.2992 0.72954 0.82726 0.0
O552 O 0.36479 0.78523 0.82619 0.0
O553 O 0.39124 0.83895 0.81209 0.0
O554 O 0.36464 0.83572 0.75073 0.0
O555 O 0.33998 0.80128 0.77729 0.0
C556 C 0.27386 0.81829 0.77762 0.0
O557 O 0.38121 0.90563 0.81305 0.0
O558 O 0.36317 0.89813 0.76631 0.0
C559 C 0.31525 0.83502 0.85086 0.0
C560 C 0.31006 0.68769 0.79753 0.0
C561 C 0.3534 0.65458 0.79301 0.0
C562 C 0.3434 0.66 0.82058 0.0
C563 C 0.32172 0.67625 0.8228 0.0
C564 C 0.31866 0.68032 0.7696 0.0
C565 C 0.34015 0.66384 0.76737 0.0
C566 C 0.29308 0.71145 0.80109 0.0
C567 C 0.3917 0.81106 0.82465 0.0
H568 H 0.37161 0.02674 0.81839 0.0
H569 H 0.40073 0.98936 0.80414 0.0
H570 H 0.31414 0.90336 0.7896 0.0
H571 H 0.28557 0.93961 0.80372 0.0
H572 H 0.35306 0.6526 0.84055 0.0
H573 H 0.31527 0.68131 0.84456 0.0
H574 H 0.30977 0.68843 0.74962 0.0
H575 H 0.34671 0.65871 0.74567 0.0
Tb576 Tb 0.56462 0.04725 0.07451 0.0
Tb577 Tb 0.59544 0.09341 0.02693 0.0
C578 C 0.6354 0.07544 0.07585 0.0
C579 C 0.51894 1.0131 0.13436 0.0
C580 C 0.48932 0.02803 0.1816 0.0
C581 C 0.51465 0.0166 0.18672 0.0
C582 C 0.52914 1.00893 0.16327 0.0
C583 C 0.49313 0.02382 0.12889 0.0
C584 C 0.47832 0.03136 0.15262 0.0
C585 C 0.53796 1.00966 0.11127 0.0
O586 O 0.57503 0.10002 0.09779 0.0
O587 O 0.58318 0.12994 0.05743 0.0
O588 O 0.54745 0.06481 0.00919 0.0
O589 O 0.53058 0.06644 0.05386 0.0
O590 O 0.63471 0.12048 0.00756 0.0
O591 O 0.58922 0.12326 0.99355 0.0
O592 O 0.5998 0.04317 0.01043 0.0
O593 O 0.5643 1.00915 0.03721 0.0
O594 O 0.61191 0.04801 0.07767 0.0
O595 O 0.63128 0.10106 0.06377 0.0
C596 C 0.57843 0.12892 0.08575 0.0
O597 O 0.52565 1.00731 0.08366 0.0
O598 O 0.56698 0.03053 0.11643 0.0
C599 C 0.52546 0.06559 0.02507 0.0
C600 C 0.62025 0.11973 0.95701 0.0
C601 C 0.62601 0.10026 0.89867 0.0
C602 C 0.62058 0.13072 0.90569 0.0
C603 C 0.61767 0.14046 0.93493 0.0
C604 C 0.62397 0.08842 0.94957 0.0
C605 C 0.62676 0.07867 0.92048 0.0
C606 C 0.61778 0.1298 0.98762 0.0
C607 C 0.58318 1.01199 0.01632 0.0
H608 H 0.52397 0.01477 0.20915 0.0
H609 H 0.54926 1.00118 0.16786 0.0
H610 H 0.48514 0.02746 0.10659 0.0
H611 H 0.45907 0.04055 0.14853 0.0
H612 H 0.62001 0.1476 0.88888 0.0
H613 H 0.61409 0.16433 0.94042 0.0
H614 H 0.62552 0.07192 0.96636 0.0
H615 H 0.6307 0.05499 0.91516 0.0
Tb616 Tb 0.32469 0.28048 0.29344 0.0
Tb617 Tb 0.35621 0.35701 0.31034 0.0
C618 C 0.3333 0.32956 0.24155 0.0
C619 C 0.3188 0.19235 0.27502 0.0
C620 C 0.34883 0.14449 0.27163 0.0
C621 C 0.31636 0.1341 0.26322 0.0
C622 C 0.30131 0.15808 0.26506 0.0
C623 C 0.35138 0.20272 0.28124 0.0
C624 C 0.36614 0.17905 0.27987 0.0
C625 C 0.30364 0.21636 0.28412 0.0
O626 O 0.3762 0.28897 0.2882 0.0
O627 O 0.39554 0.34649 0.28982 0.0
O628 O 0.36897 0.33399 0.34999 0.0
O629 O 0.32378 0.29011 0.34191 0.0
O630 O 0.38715 0.40497 0.3034 0.0
O631 O 0.36505 0.39822 0.3432 0.0
O632 O 0.30659 0.34775 0.32267 0.0
O633 O 0.28159 0.29368 0.29989 0.0
O634 O 0.3301 0.29905 0.24931 0.0
O635 O 0.33675 0.35467 0.26268 0.0
C636 C 0.39943 0.31701 0.28329 0.0
O637 O 0.31612 0.23371 0.30999 0.0
O638 O 0.29872 0.23581 0.26454 0.0
C639 C 0.34707 0.31037 0.36099 0.0
C640 C 0.3706 0.4486 0.3225 0.0
C641 C 0.33542 0.4907 0.31505 0.0
C642 C 0.3482 0.48827 0.34369 0.0
C643 C 0.3659 0.46733 0.34739 0.0
C644 C 0.35999 0.45344 0.29371 0.0
C645 C 0.34255 0.47448 0.29004 0.0
C646 C 0.38139 0.42013 0.32699 0.0
C647 C 0.27999 0.3207 0.31628 0.0
H648 H 0.30257 0.1074 0.25692 0.0
H649 H 0.27605 0.14962 0.26043 0.0
H650 H 0.36521 0.22862 0.28995 0.0
H651 H 0.39082 0.18737 0.28781 0.0
H652 H 0.34254 0.50039 0.36318 0.0
H653 H 0.37384 0.46372 0.36974 0.0
H654 H 0.36322 0.43926 0.27408 0.0
H655 H 0.3328 0.47626 0.26777 0.0
Tb656 Tb 0.58773 0.5973 0.07882 0.0
Tb657 Tb 0.58422 0.55269 0.01857 0.0
C658 C 0.52529 0.5412 0.05001 0.0
C659 C 0.5925 0.61989 0.15813 0.0
C660 C 0.59531 0.58858 0.21003 0.0
C661 C 0.56664 0.58059 0.19213 0.0
C662 C 0.56526 0.59593 0.16602 0.0
C663 C 0.62067 0.62927 0.17727 0.0
C664 C 0.62214 0.61348 0.20286 0.0
C665 C 0.59361 0.63099 0.12826 0.0
O666 O 0.5969 0.5514 0.09537 0.0
O667 O 0.58349 0.51578 0.05178 0.0
O668 O 0.63349 0.57277 0.03662 0.0
O669 O 0.63064 0.62066 0.06056 0.0
O670 O 0.56453 0.50624 0.99128 0.0
O671 O 0.60235 0.54764 0.97843 0.0
O672 O 0.5852 0.60273 1.00284 0.0
O673 O 0.57451 0.62811 0.04491 0.0
O674 O 0.54375 0.55544 0.07468 0.0
O675 O 0.53577 0.54632 0.02418 0.0
C676 C 0.5903 0.52021 0.0812 0.0
O677 O 0.61709 0.62798 0.11559 0.0
O678 O 0.56753 0.62029 0.1099 0.0
C679 C 0.64692 0.60437 0.04854 0.0
C680 C 0.56487 0.51237 0.94054 0.0
C681 C 0.53397 0.50362 0.88289 0.0
C682 C 0.56325 0.49986 0.88745 0.0
C683 C 0.57859 0.5041 0.91622 0.0
C684 C 0.53575 0.51657 0.93604 0.0
C685 C 0.52029 0.51209 0.90729 0.0
C686 C 0.58163 0.51739 0.97036 0.0
C687 C 0.57938 0.62878 0.01642 0.0
H688 H 0.54568 0.56187 0.19788 0.0
H689 H 0.54324 0.5881 0.15158 0.0
H690 H 0.64196 0.6476 0.17162 0.0
H691 H 0.64432 0.62046 0.21698 0.0
H692 H 0.57413 0.49351 0.86878 0.0
H693 H 0.60121 0.50111 0.91948 0.0
H694 H 0.52509 0.52347 0.95468 0.0
H695 H 0.49796 0.51574 0.90405 0.0
Tb696 Tb 0.84865 0.35593 0.2932 0.0
Tb697 Tb 0.81553 0.28027 0.30804 0.0
C698 C 0.84839 0.29636 0.2493 0.0
C699 C 0.86137 0.44526 0.29568 0.0
C700 C 0.82164 0.48115 0.30837 0.0
C701 C 0.82451 0.47198 0.27871 0.0
C702 C 0.84437 0.45429 0.27239 0.0
C703 C 0.86059 0.45727 0.3253 0.0
C704 C 0.8408 0.47504 0.33158 0.0
C705 C 0.87442 0.41823 0.28953 0.0
O706 O 0.79874 0.34743 0.27479 0.0
O707 O 0.77466 0.29565 0.29116 0.0
O708 O 0.81924 0.31039 0.34937 0.0
O709 O 0.82077 0.35839 0.32861 0.0
O710 O 0.78488 0.2315 0.29006 0.0
O711 O 0.80401 0.24177 0.33646 0.0
O712 O 0.8653 0.28912 0.3266 0.0
O713 O 0.88975 0.3412 0.31136 0.0
O714 O 0.84906 0.32767 0.25229 0.0
O715 O 0.83999 0.27613 0.26993 0.0
C716 C 0.77245 0.32211 0.27769 0.0
O717 O 0.88023 0.40346 0.31257 0.0
O718 O 0.86007 0.39597 0.26646 0.0
C719 C 0.81666 0.34029 0.35098 0.0
C720 C 0.80649 0.19394 0.30929 0.0
C721 C 0.83845 0.14996 0.29575 0.0
C722 C 0.808 0.1368 0.30363 0.0
C723 C 0.79191 0.15891 0.31035 0.0
C724 C 0.83701 0.20661 0.3019 0.0
C725 C 0.85288 0.18496 0.29529 0.0
C726 C 0.79068 0.21832 0.31407 0.0
C727 C 0.8917 0.31438 0.32436 0.0
H728 H 0.81004 0.47671 0.26047 0.0
H729 H 0.84467 0.44559 0.24936 0.0
H730 H 0.87367 0.45109 0.34379 0.0
H731 H 0.83951 0.48276 0.3546 0.0
H732 H 0.79661 0.10961 0.30393 0.0
H733 H 0.76824 0.14877 0.31584 0.0
H734 H 0.84859 0.23327 0.30059 0.0
H735 H 0.87644 0.1956 0.28952 0.0
Tb736 Tb 0.07545 0.54682 0.57502 0.0
Tb737 Tb 0.10382 0.59498 0.52723 0.0
C738 C 0.1459 0.57481 0.57127 0.0
C739 C 0.03337 0.51026 0.63469 0.0
C740 C 1.0071 0.52523 0.68403 0.0
C741 C 1.01783 0.49762 0.6828 0.0
C742 C 0.03105 0.49018 0.6581 0.0
C743 C 1.02057 0.53625 0.63494 0.0
C744 C 1.00742 0.54371 0.65967 0.0
C745 C 0.05287 0.50755 0.61218 0.0
O746 O 0.08185 0.59925 0.59787 0.0
O747 O 0.09738 0.63307 0.56056 0.0
O748 O 0.05385 0.57123 0.51396 0.0
O749 O 0.04082 0.56791 0.56052 0.0
O750 O 0.14042 0.61534 0.50211 0.0
O751 O 0.09917 0.6295 0.49766 0.0
O752 O 0.10594 0.54408 0.50946 0.0
O753 O 0.06887 0.51008 0.53461 0.0
O754 O 0.1224 0.54763 0.57368 0.0
O755 O 0.14137 0.60155 0.56188 0.0
C756 C 0.08855 0.62968 0.58746 0.0
O757 O 0.03958 0.5042 0.5848 0.0
O758 O 0.081 0.53064 0.61688 0.0
C759 C 0.03416 0.57175 0.53287 0.0
C760 C 0.11874 0.61651 0.45433 0.0
C761 C 0.11204 0.57884 0.39933 0.0
C762 C 0.08573 0.57535 0.4138 0.0
C763 C 0.08909 0.5939 0.44135 0.0
C764 C 0.14469 0.62138 0.43898 0.0
C765 C 0.14136 0.60257 0.41156 0.0
C766 C 0.12388 0.62897 0.48587 0.0
C767 C 0.08788 0.51295 0.51396 0.0
H768 H 1.01806 0.48347 0.7018 0.0
H769 H 0.04112 0.47024 0.65805 0.0
H770 H 1.0224 0.55194 0.61682 0.0
H771 H 0.99897 0.56484 0.66053 0.0
H772 H 0.06293 0.55745 0.40431 0.0
H773 H 0.06879 0.58924 0.45307 0.0
H774 H 0.16774 0.6383 0.44892 0.0
H775 H 0.16176 0.60609 0.40011 0.0
Tb776 Tb 0.87269 0.81517 0.30653 0.0
Tb777 Tb 0.80077 0.81199 0.2963 0.0
C778 C 0.81879 0.75031 0.30832 0.0
C779 C 0.95357 0.82099 0.2966 0.0
C780 C 1.00336 0.83086 0.26286 0.0
C781 C 0.99144 0.80045 0.27572 0.0
C782 C 0.96673 0.79559 0.29252 0.0
C783 C 0.96537 0.85143 0.28359 0.0
C784 C 0.99029 0.85639 0.26695 0.0
C785 C 0.92745 0.81485 0.31423 0.0
O786 O 0.8567 0.79616 0.25786 0.0
O787 O 0.81141 0.80861 0.2499 0.0
O788 O 0.82924 0.86479 0.29399 0.0
O789 O 0.87417 0.85735 0.2825 0.0
O790 O 0.75355 0.78081 0.29287 0.0
O791 O 0.76661 0.83457 0.28902 0.0
O792 O 0.81161 0.8159 0.34565 0.0
O793 O 0.86514 0.83662 0.35007 0.0
O794 O 0.84391 0.77132 0.32412 0.0
O795 O 0.80364 0.76163 0.28833 0.0
C796 C 0.83368 0.79942 0.23931 0.0
O797 O 0.91984 0.84117 0.32264 0.0
O798 O 0.90306 0.78766 0.30467 0.0
C799 C 0.85466 0.87387 0.28091 0.0
C800 C 0.72082 0.80887 0.31142 0.0
C801 C 0.67373 0.81226 0.34598 0.0
C802 C 0.69093 0.84081 0.33277 0.0
C803 C 0.7141 0.83906 0.31549 0.0
C804 C 0.70417 0.78058 0.32536 0.0
C805 C 0.68093 0.78233 0.34255 0.0
C806 C 0.74381 0.80647 0.29139 0.0
C807 C 0.83902 0.82887 0.36259 0.0
H808 H 1.00149 0.78063 0.27305 0.0
H809 H 0.95785 0.77195 0.30236 0.0
H810 H 0.95541 0.87132 0.28621 0.0
H811 H 0.99917 0.87997 0.25704 0.0
H812 H 0.6863 0.86444 0.3356 0.0
H813 H 0.72645 0.86123 0.30497 0.0
H814 H 0.70863 0.75685 0.32255 0.0
H815 H 0.66797 0.75994 0.3525 0.0
Tb816 Tb 0.81386 0.31076 0.82943 0.0
Tb817 Tb 0.86904 0.33808 0.78861 0.0
C818 C 0.80066 0.33971 0.76965 0.0
C819 C 0.76523 0.26784 0.88436 0.0
C820 C 0.76091 0.23 0.93297 0.0
C821 C 0.7408 0.2485 0.92775 0.0
C822 C 0.74314 0.26756 0.90364 0.0
C823 C 0.78392 0.2478 0.88831 0.0
C824 C 0.78187 0.22912 0.91253 0.0
C825 C 0.77107 0.29147 0.86197 0.0
O826 O 0.82002 0.26663 0.80655 0.0
O827 O 0.83592 0.29134 0.76503 0.0
O828 O 0.88777 0.30976 0.8192 0.0
O829 O 0.85445 0.30472 0.85511 0.0
O830 O 0.89916 0.33051 0.75892 0.0
O831 O 0.90195 0.38133 0.77585 0.0
O832 O 0.88123 0.36803 0.83151 0.0
O833 O 0.83206 0.36612 0.83455 0.0
O834 O 0.78978 0.3172 0.78807 0.0
O835 O 0.83115 0.35537 0.77024 0.0
C836 C 0.82302 0.26423 0.7781 0.0
O837 O 0.7961 0.31857 0.86909 0.0
O838 O 0.76914 0.27778 0.83478 0.0
C839 C 0.88024 0.30234 0.84586 0.0
C840 C 0.90842 0.37183 0.72551 0.0
C841 C 0.89963 0.38342 0.66588 0.0
C842 C 0.91674 0.36267 0.67405 0.0
C843 C 0.92123 0.35704 0.70379 0.0
C844 C 0.89179 0.39308 0.71726 0.0
C845 C 0.88784 0.39916 0.68775 0.0
C846 C 0.91047 0.36305 0.75613 0.0
C847 C 0.86208 0.3815 0.84184 0.0
H848 H 0.72418 0.24936 0.94299 0.0
H849 H 0.72859 0.28303 0.90072 0.0
H850 H 0.80103 0.24784 0.87338 0.0
H851 H 0.79791 0.21557 0.91606 0.0
H852 H 0.92591 0.3502 0.65737 0.0
H853 H 0.93394 0.3404 0.70972 0.0
H854 H 0.88157 0.40482 0.7335 0.0
H855 H 0.8754 0.41604 0.68188 0.0
Tb856 Tb 0.82338 0.778 0.78929 0.0
Tb857 Tb 0.8579 0.85328 0.81018 0.0
C858 C 0.83438 0.82795 0.74131 0.0
C859 C 0.80968 0.68865 0.76329 0.0
C860 C 0.83845 0.64119 0.77366 0.0
C861 C 0.80569 0.63097 0.77054 0.0
C862 C 0.79133 0.6549 0.76578 0.0
C863 C 0.84179 0.69748 0.76202 0.0
C864 C 0.85618 0.67394 0.76736 0.0
C865 C 0.79727 0.71562 0.76957 0.0
O866 O 0.87341 0.78648 0.7778 0.0
O867 O 0.90026 0.84022 0.80053 0.0
O868 O 0.86303 0.83373 0.85316 0.0
O869 O 0.8329 0.778 0.83888 0.0
O870 O 0.87153 0.90106 0.79474 0.0
O871 O 0.88013 0.89683 0.84142 0.0
O872 O 0.80725 0.84526 0.82013 0.0
O873 O 0.78245 0.78877 0.80549 0.0
O874 O 0.81208 0.80372 0.75111 0.0
O875 O 0.85778 0.84678 0.76109 0.0
C876 C 0.90068 0.81287 0.78383 0.0
O877 O 0.8022 0.72742 0.79755 0.0
O878 O 0.80427 0.74013 0.75275 0.0
C879 C 0.84814 0.80312 0.86034 0.0
C880 C 0.86162 0.93974 0.82706 0.0
C881 C 0.82884 0.98454 0.82499 0.0
C882 C 0.86044 0.99665 0.83712 0.0
C883 C 0.87692 0.97408 0.83821 0.0
C884 C 0.82948 0.92767 0.81691 0.0
C885 C 0.81315 0.94984 0.81608 0.0
C886 C 0.87907 0.91721 0.82145 0.0
C887 C 0.78117 0.8176 0.81837 0.0
H888 H 0.79154 0.6055 0.77445 0.0
H889 H 0.76642 0.64784 0.7667 0.0
H890 H 0.85622 0.72341 0.75994 0.0
H891 H 0.8815 0.68264 0.76961 0.0
H892 H 0.8727 0.02364 0.84377 0.0
H893 H 0.90178 0.98373 0.84588 0.0
H894 H 0.81747 0.90172 0.80706 0.0
H895 H 0.78883 0.94036 0.80628 0.0
Tb896 Tb 0.621 0.59456 0.58061 0.0
Tb897 Tb 0.54579 0.53193 0.54594 0.0
C898 C 0.56913 0.57982 0.6075 0.0
C899 C 0.70242 0.61366 0.58389 0.0
C900 C 0.74516 0.58157 0.57232 0.0
C901 C 0.75517 0.61282 0.59067 0.0
C902 C 0.73368 0.62877 0.59666 0.0
C903 C 0.69293 0.58287 0.56516 0.0
C904 C 0.71402 0.56701 0.55935 0.0
C905 C 0.67844 0.62763 0.59095 0.0
O906 O 0.61763 0.54177 0.59084 0.0
O907 O 0.57192 0.5007 0.56367 0.0
O908 O 0.5712 0.53671 0.50869 0.0
O909 O 0.61408 0.55614 0.54292 0.0
O910 O 0.50743 0.50459 0.56629 0.0
O911 O 0.50363 0.50627 0.51821 0.0
O912 O 0.54473 0.58318 0.53814 0.0
O913 O 0.59478 0.62316 0.55636 0.0
O914 O 0.5961 0.60139 0.61835 0.0
O915 O 0.57057 0.56752 0.58125 0.0
C916 C 0.59864 0.50943 0.58199 0.0
O917 O 0.66075 0.63033 0.5677 0.0
O918 O 0.66193 0.61294 0.6113 0.0
C919 C 0.6009 0.55471 0.51574 0.0
C920 C 0.46355 0.51458 0.54324 0.0
C921 C 0.42701 0.5563 0.54445 0.0
C922 C 0.42745 0.53745 0.51769 0.0
C923 C 0.44574 0.51681 0.51706 0.0
C924 C 0.46082 0.53121 0.57035 0.0
C925 C 0.44278 0.55191 0.57095 0.0
C926 C 0.48853 0.50008 0.54155 0.0
C927 C 0.56571 0.61495 0.54225 0.0
H928 H 0.77935 0.62451 0.60055 0.0
H929 H 0.7413 0.65246 0.61132 0.0
H930 H 0.66907 0.57077 0.55511 0.0
H931 H 0.706 0.54339 0.54451 0.0
H932 H 0.41508 0.54016 0.49702 0.0
H933 H 0.44732 0.50416 0.49588 0.0
H934 H 0.47379 0.52965 0.59096 0.0
H935 H 0.44185 0.5652 0.59207 0.0
Tb936 Tb 0.05492 0.5602 0.06533 0.0
Tb937 Tb 0.12376 0.57425 0.04216 0.0
C938 C 0.10754 0.54212 0.09931 0.0
C939 C 0.98382 0.57492 0.08064 0.0
C940 C 0.94542 0.61395 0.07166 0.0
C941 C 0.93442 0.58303 0.08413 0.0
C942 C 0.95351 0.56358 0.08852 0.0
C943 C 0.99526 0.60625 0.069 0.0
C944 C 0.97614 0.62558 0.06441 0.0
C945 C 1.00237 0.55269 0.08158 0.0
O946 O 0.08551 0.61202 0.08498 0.0
O947 O 0.12273 0.62524 0.05285 0.0
O948 O 0.0928 0.57843 1.00532 0.0
O949 O 0.05673 0.59216 0.03008 0.0
O950 O 0.17265 0.59571 0.05091 0.0
O951 O 0.1498 0.56677 0.00852 0.0
O952 O 0.10229 0.51889 0.03884 0.0
O953 O 0.05051 0.51316 0.03713 0.0
O954 O 0.07737 0.53266 0.09186 0.0
O955 O 0.12663 0.56832 0.08888 0.0
C956 C 0.1076 0.63476 0.07301 0.0
O957 O 1.00624 0.54093 0.05534 0.0
O958 O 0.02842 0.56394 0.09989 0.0
C959 C 0.07241 0.5937 0.00735 0.0
C960 C 0.19538 0.55949 0.02869 0.0
C961 C 0.23247 0.51862 0.03437 0.0
C962 C 0.24121 0.54693 0.01809 0.0
C963 C 0.22288 0.56736 0.01545 0.0
C964 C 0.18602 0.53078 0.04425 0.0
C965 C 0.20467 0.51074 0.04748 0.0
C966 C 0.17618 0.58086 0.02589 0.0
C967 C 0.07249 0.4998 0.03387 0.0
H968 H 0.91084 0.57362 0.08998 0.0
H969 H 0.94435 0.53931 0.09729 0.0
H970 H 1.01858 0.61515 0.0625 0.0
H971 H 0.98499 0.64894 0.0542 0.0
H972 H 0.26231 0.55332 0.00742 0.0
H973 H 0.23012 0.58923 1.00307 0.0
H974 H 0.16443 0.52409 0.05411 0.0
H975 H 0.19759 0.48955 0.06065 0.0
C976 C 1.02362 0.17374 0.01343 0.0
C977 C 0.0447 0.20577 0.00846 0.0
C978 C 0.03403 0.14697 0.02137 0.0
C979 C 0.06613 0.15118 0.0256 0.0
H980 H 0.99874 0.16907 0.01062 0.0
H981 H 1.01672 0.12292 0.0248 0.0
S982 S 0.13119 0.22998 0.01576 0.0
N983 N 0.09944 0.23967 0.00807 0.0
N984 N 0.11889 0.19034 0.0242 0.0
C985 C 0.08746 0.18318 0.02103 0.0
C986 C 0.07682 0.21008 0.01211 0.0
C987 C 0.22736 0.8486 0.22712 0.0
C988 C 0.23377 0.85151 0.19741 0.0
C989 C 0.24816 0.84232 0.24904 0.0
C990 C 0.27649 0.83882 0.24238 0.0
H991 H 0.20579 0.85057 0.23348 0.0
H992 H 0.24182 0.83993 0.27138 0.0
S993 S 0.30316 0.84071 0.16767 0.0
N994 N 0.27013 0.84833 0.16248 0.0
N995 N 0.30878 0.83677 0.20343 0.0
C996 C 0.28316 0.8416 0.21285 0.0
C997 C 0.262 0.84787 0.19052 0.0
C998 C 0.5651 0.90737 0.50628 0.0
C999 C 0.53903 0.88304 0.5159 0.0
C1000 C 0.57257 0.94277 0.5138 0.0
C1001 C 0.55395 0.95575 0.53068 0.0
H1002 H 0.57996 0.89907 0.49271 0.0
H1003 H 0.593 0.9602 0.50598 0.0
S1004 S 0.48376 0.90362 0.56247 0.0
N1005 N 0.4951 0.87516 0.54434 0.0
N1006 N 0.50878 0.9413 0.55768 0.0
C1007 C 0.52788 0.93189 0.54051 0.0
C1008 C 0.52057 0.89578 0.53337 0.0
C1009 C 0.54881 0.32345 0.70572 0.0
C1010 C 0.57483 0.31933 0.72197 0.0
C1011 C 0.52411 0.32683 0.71981 0.0
C1012 C 0.52438 0.326 0.75063 0.0
H1013 H 0.5477 0.32484 0.68191 0.0
H1014 H 0.50484 0.33061 0.70656 0.0
S1015 S 0.58602 0.31475 0.8034 0.0
N1016 N 0.59872 0.31357 0.7706 0.0
N1017 N 0.55198 0.32006 0.79712 0.0
C1018 C 0.54956 0.32079 0.76712 0.0
C1019 C 0.57487 0.3174 0.75277 0.0
C1020 C 0.07387 0.92239 0.59432 0.0
C1021 C 0.08464 0.92212 0.62485 0.0
C1022 C 0.07681 0.9528 0.58042 0.0
C1023 C 0.09038 0.98631 0.59569 0.0
H1024 H 0.06251 0.89829 0.5805 0.0
H1025 H 0.06752 0.9497 0.55712 0.0
S1026 S 0.12321 1.00251 0.67616 0.0
N1027 N 0.11043 0.9604 0.6698 0.0
N1028 N 0.11542 0.01657 0.64434 0.0
C1029 C 0.10155 0.98683 0.62631 0.0
C1030 C 0.09893 0.9555 0.64051 0.0
C1031 C 0.45496 0.78215 0.87057 0.0
C1032 C 0.48531 0.80347 0.86508 0.0
C1033 C 0.42593 0.7843 0.85736 0.0
C1034 C 0.42417 0.80862 0.83774 0.0
H1035 H 0.45342 0.76341 0.88607 0.0
H1036 H 0.4044 0.7669 0.86338 0.0
S1037 S 0.49571 0.87146 0.81457 0.0
N1038 N 0.5105 0.85017 0.83725 0.0
N1039 N 0.45725 0.85467 0.81316 0.0
C1040 C 0.45429 0.83008 0.83163 0.0
C1041 C 0.48406 0.82747 0.84487 0.0
C1042 C 0.56796 0.18897 0.15179 0.0
C1043 C 0.57117 0.22092 0.14094 0.0
C1044 C 0.57036 0.16033 0.1343 0.0
C1045 C 0.57616 0.16089 0.10421 0.0
H1046 H 0.56371 0.18579 0.17464 0.0
H1047 H 0.56763 0.13731 0.14476 0.0
S1048 S 0.5861 0.23719 0.06328 0.0
N1049 N 0.58041 0.25028 0.09681 0.0
N1050 N 0.58461 0.19736 0.06422 0.0
C1051 C 0.57923 0.19253 0.09273 0.0
C1052 C 0.57686 0.22196 0.11077 0.0
C1053 C 0.18993 0.28828 0.33133 0.0
C1054 C 0.18569 0.31205 0.35354 0.0
C1055 C 0.21908 0.29172 0.31959 0.0
C1056 C 0.24777 0.31942 0.32866 0.0
H1057 H 0.17004 0.26569 0.32271 0.0
H1058 H 0.219 0.27164 0.3031 0.0
S1059 S 0.25297 0.38944 0.3874 0.0
N1060 N 0.21567 0.365 0.38455 0.0
N1061 N 0.26907 0.37142 0.36315 0.0
C1062 C 0.24426 0.34368 0.35092 0.0
C1063 C 0.2142 0.34014 0.36296 0.0
C1064 C 1.01148 0.08188 0.1537 0.0
C1065 C 1.01226 0.05477 0.16972 0.0
C1066 C 0.03349 0.09447 0.13434 0.0
C1067 C 0.05709 0.08071 0.1311 0.0
H1068 H 0.99276 0.09206 0.15471 0.0
H1069 H 0.03098 0.1136 0.12054 0.0
S1070 S 0.07109 1.01173 0.16993 0.0
N1071 N 0.04018 0.01646 0.18286 0.0
N1072 N 0.08143 0.04036 0.14631 0.0
C1073 C 0.05956 0.05541 0.14852 0.0
C1074 C 0.03706 0.0423 0.16792 0.0
C1075 C 0.25731 0.6903 0.50086 0.0
C1076 C 0.28028 0.70913 0.52448 0.0
C1077 C 0.25265 0.70501 0.47496 0.0
C1078 C 0.27026 0.73915 0.47248 0.0
H1079 H 0.24342 0.66387 0.50214 0.0
H1080 H 0.23529 0.68969 0.4568 0.0
S1081 S 0.33224 0.79941 0.5286 0.0
N1082 N 0.32029 0.76357 0.54409 0.0
N1083 N 0.31104 0.79146 0.4956 0.0
C1084 C 0.29281 0.75836 0.49617 0.0
C1085 C 0.29797 0.74325 0.52219 0.0
C1086 C 0.63927 1.00085 0.64848 0.0
C1087 C 0.63012 1.00489 0.67666 0.0
C1088 C 0.62098 1.00454 0.62354 0.0
C1089 C 0.5934 1.01123 0.62684 0.0
H1090 H 0.66306 1.00238 0.64633 0.0
H1091 H 0.63037 1.00693 0.6025 0.0
S1092 S 0.55307 1.00518 0.69386 0.0
N1093 N 0.58677 1.00075 0.70483 0.0
N1094 N 0.55253 1.00885 0.65783 0.0
C1095 C 0.58032 1.00558 0.65333 0.0
C1096 C 0.59867 1.001 0.67849 0.0
C1097 C 0.36625 0.34525 0.94617 0.0
C1098 C 0.34012 0.34261 0.96151 0.0
C1099 C 0.36448 0.34357 0.91452 0.0
C1100 C 0.33621 0.33802 0.8959 0.0
H1101 H 0.38874 0.34943 0.95884 0.0
H1102 H 0.38554 0.34586 0.90451 0.0
S1103 S 0.2604 0.3291 0.92394 0.0
N1104 N 0.28486 0.33496 0.95473 0.0
N1105 N 0.28112 0.32977 0.89595 0.0
C1106 C 0.30975 0.33493 0.91086 0.0
C1107 C 0.3118 0.33779 0.94322 0.0
C1108 C 0.98914 0.97875 0.30779 0.0
C1109 C 0.97963 1.00623 0.30125 0.0
C1110 C 1.00589 0.97941 0.33535 0.0
C1111 C 1.01319 1.00731 0.3573 0.0
H1112 H 0.98442 0.95702 0.29124 0.0
H1113 H 1.01327 0.95803 0.33951 0.0
S1114 S 0.99262 0.085 0.35176 0.0
N1115 N 0.97788 0.06167 0.31933 0.0
N1116 N 1.00946 0.06278 0.37116 0.0
C1117 C 1.00325 0.0346 0.35135 0.0
C1118 C 0.98643 0.03409 0.32327 0.0
C1119 C 0.3058 0.73331 0.6941 0.0
C1120 C 0.32847 0.7314 0.67591 0.0
C1121 C 0.31398 0.75599 0.71993 0.0
C1122 C 0.34505 0.77715 0.72846 0.0
H1123 H 0.28131 0.71807 0.68772 0.0
H1124 H 0.29557 0.75852 0.73218 0.0
S1125 S 0.41337 0.78101 0.68953 0.0
N1126 N 0.38343 0.75147 0.66872 0.0
N1127 N 0.39887 0.79465 0.71788 0.0
C1128 C 0.3682 0.77485 0.7112 0.0
C1129 C 0.3599 0.75151 0.68482 0.0
C1130 C 0.62516 0.08953 0.81584 0.0
C1131 C 0.65469 0.08719 0.81338 0.0
C1132 C 0.6153 0.09243 0.84369 0.0
C1133 C 0.63484 0.09319 0.86961 0.0
H1134 H 0.60982 0.08957 0.79615 0.0
H1135 H 0.59263 0.0948 0.84506 0.0
S1136 S 0.71451 0.08872 0.87503 0.0
N1137 N 0.70328 0.08568 0.83895 0.0
N1138 N 0.68488 0.09184 0.89155 0.0
C1139 C 0.66413 0.09019 0.86745 0.0
C1140 C 0.67405 0.08696 0.83916 0.0
C1141 C 0.3254 0.36042 0.16215 0.0
C1142 C 0.34173 0.34414 0.14472 0.0
C1143 C 0.32287 0.35636 0.19309 0.0
C1144 C 0.33612 0.33533 0.20852 0.0
H1145 H 0.31461 0.37683 0.15188 0.0
H1146 H 0.31006 0.36953 0.20488 0.0
S1147 S 0.38366 0.28917 0.17503 0.0
N1148 N 0.37302 0.30762 0.14716 0.0
N1149 N 0.36783 0.29972 0.20368 0.0
C1150 C 0.35269 0.31931 0.19147 0.0
C1151 C 0.35559 0.32373 0.1603 0.0
C1152 C 0.31655 0.05487 0.07054 0.0
C1153 C 0.30339 0.02422 0.05138 0.0
C1154 C 0.29949 0.07628 0.07566 0.0
C1155 C 0.26877 0.06788 0.06169 0.0
H1156 H 0.34037 0.06275 0.0814 0.0
H1157 H 0.31058 0.09981 0.09036 0.0
S1158 S 0.22251 0.98922 0.01145 0.0
N1159 N 0.25699 0.98556 0.01971 0.0
N1160 N 0.22507 0.02606 0.0292 0.0
C1161 C 0.25507 0.03706 0.04284 0.0
C1162 C 0.27232 0.01511 0.03779 0.0
C1163 C 0.71809 0.6559 0.01508 0.0
C1164 C 0.73773 0.67556 0.04049 0.0
C1165 C 0.68948 0.63026 0.01782 0.0
C1166 C 0.67978 0.62402 0.04601 0.0
H1167 H 0.72435 0.66119 0.99306 0.0
H1168 H 0.67404 0.61683 0.9978 0.0
S1169 S 0.72393 0.6673 0.1191 0.0
N1170 N 0.74661 0.68572 0.09448 0.0
N1171 N 0.69261 0.6384 0.09958 0.0
C1172 C 0.69986 0.64271 0.07145 0.0
C1173 C 0.72897 0.6683 0.06869 0.0
C1174 C 0.77132 0.53595 0.30573 0.0
C1175 C 0.74961 0.52195 0.32539 0.0
C1176 C 0.79481 0.52283 0.30062 0.0
C1177 C 0.79735 0.49525 0.31495 0.0
H1178 H 0.7706 0.55765 0.29456 0.0
H1179 H 0.81128 0.53453 0.28555 0.0
S1180 S 0.74523 0.44799 0.36697 0.0
N1181 N 0.73151 0.47827 0.35852 0.0
N1182 N 0.77548 0.45309 0.34838 0.0
C1183 C 0.7756 0.48063 0.33433 0.0
C1184 C 0.75174 0.49411 0.33968 0.0
C1185 C 0.94928 0.55292 0.5369 0.0
C1186 C 0.93729 0.5394 0.50736 0.0
C1187 C 0.98154 0.56808 0.5448 0.0
C1188 C 1.0021 0.57001 0.52316 0.0
H1189 H 0.93454 0.54664 0.5545 0.0
H1190 H 0.99033 0.57433 0.56832 0.0
S1191 S 0.97978 0.55188 0.44147 0.0
N1192 N 0.94631 0.53914 0.45559 0.0
N1193 N 1.00734 0.56771 0.47024 0.0
C1194 C 0.98964 0.56356 0.493 0.0
C1195 C 0.95679 0.54844 0.48508 0.0
C1196 C 0.41525 0.11218 0.28094 0.0
C1197 C 0.40713 0.09137 0.30391 0.0
C1198 C 0.39441 0.12618 0.26771 0.0
C1199 C 0.36487 0.12013 0.27719 0.0
H1200 H 0.43838 0.11902 0.27402 0.0
H1201 H 0.40236 0.14403 0.2516 0.0
S1202 S 0.33089 0.06417 0.33387 0.0
N1203 N 0.36618 0.06217 0.33316 0.0
N1204 N 0.32736 0.08966 0.30885 0.0
C1205 C 0.35548 0.09721 0.29837 0.0
C1206 C 0.37661 0.08262 0.31169 0.0
C1207 C 0.40366 0.18903 0.55133 0.0
C1208 C 0.3743 0.17803 0.56186 0.0
C1209 C 0.42264 0.169 0.55207 0.0
C1210 C 0.41288 0.13726 0.56329 0.0
H1211 H 0.41233 0.21356 0.5429 0.0
H1212 H 0.44538 0.17874 0.5444 0.0
S1213 S 0.33665 0.09487 0.59011 0.0
N1214 N 0.33546 0.13205 0.58173 0.0
N1215 N 0.37102 0.09428 0.58261 0.0
C1216 C 0.38317 0.12539 0.57286 0.0
C1217 C 0.36391 0.1458 0.57228 0.0
C1218 C 0.79015 0.68681 0.36193 0.0
C1219 C 0.76353 0.66335 0.34487 0.0
C1220 C 0.81016 0.71335 0.34886 0.0
C1221 C 0.80321 0.71745 0.31874 0.0
H1222 H 0.79424 0.68608 0.38575 0.0
H1223 H 0.82946 0.73238 0.36315 0.0
S1224 S 0.738 0.65916 0.26443 0.0
N1225 N 0.73289 0.64263 0.29626 0.0
N1226 N 0.77006 0.69335 0.27159 0.0
C1227 C 0.77804 0.69225 0.30102 0.0
C1228 C 0.75815 0.66491 0.31423 0.0
C1229 C 0.92035 0.45766 0.88708 0.0
C1230 C 0.92108 0.48321 0.86853 0.0
C1231 C 0.89805 0.42487 0.88026 0.0
C1232 C 0.87561 0.41687 0.85502 0.0
H1233 H 0.93845 0.46225 0.9057 0.0
H1234 H 0.89997 0.40496 0.89339 0.0
S1235 S 0.86523 0.47487 0.80083 0.0
N1236 N 0.89532 0.49874 0.8251 0.0
N1237 N 0.85354 0.43686 0.81271 0.0
C1238 C 0.87414 0.44269 0.83785 0.0
C1239 C 0.8969 0.47607 0.84455 0.0
C1240 C 0.10659 0.9292 0.09769 0.0
C1241 C 0.13825 0.93159 0.1019 0.0
C1242 C 0.09765 0.9568 0.08901 0.0
C1243 C 0.11995 0.98851 0.08462 0.0
H1244 H 0.08843 0.90557 0.10062 0.0
H1245 H 0.07296 0.95312 0.0857 0.0
S1246 S 0.20621 1.00944 0.09687 0.0
N1247 N 0.19191 0.96918 0.10318 0.0
N1248 N 0.17569 0.02074 0.08778 0.0
C1249 C 0.15176 0.99137 0.08975 0.0
C1250 C 0.16071 0.96315 0.09811 0.0
C1251 C 0.95678 0.29883 0.88531 0.0
C1252 C 0.9472 0.28 0.90937 0.0
C1253 C 0.93501 0.3051 0.86448 0.0
C1254 C 0.90265 0.29303 0.86683 0.0
H1255 H 0.98142 0.3099 0.88307 0.0
H1256 H 0.94378 0.32056 0.84698 0.0
S1257 S 0.86503 0.23925 0.9236 0.0
N1258 N 0.90269 0.24697 0.93258 0.0
N1259 N 0.86216 0.25905 0.89397 0.0
C1260 C 0.89273 0.27317 0.8901 0.0
C1261 C 0.91483 0.26656 0.91113 0.0
C1262 C 0.59961 0.21698 0.61129 0.0
C1263 C 0.62483 0.2407 0.59989 0.0
C1264 C 0.59114 0.18132 0.60397 0.0
C1265 C 0.6076 0.16743 0.58504 0.0
H1266 H 0.58634 0.22596 0.62632 0.0
H1267 H 0.57162 0.16454 0.61347 0.0
S1268 S 0.67563 0.21823 0.54905 0.0
N1269 N 0.66603 0.24721 0.5684 0.0
N1270 N 0.65058 0.18106 0.55485 0.0
C1271 C 0.63279 0.19095 0.57335 0.0
C1272 C 0.64124 0.22718 0.58067 0.0
C1273 C 0.62103 0.80147 0.40688 0.0
C1274 C 0.59708 0.81269 0.39512 0.0
C1275 C 0.64583 0.80173 0.391 0.0
C1276 C 0.64777 0.81329 0.36275 0.0
H1277 H 0.62065 0.79221 0.42854 0.0
H1278 H 0.66369 0.79286 0.40096 0.0
S1279 S 0.59091 0.84429 0.32132 0.0
N1280 N 0.57687 0.8353 0.35309 0.0
N1281 N 0.62341 0.83537 0.32318 0.0
C1282 C 0.62415 0.82464 0.35067 0.0
C1283 C 0.59884 0.82443 0.36685 0.0
C1284 C 0.08959 0.19701 0.45714 0.0
C1285 C 0.07626 0.2207 0.46884 0.0
C1286 C 0.08979 0.16709 0.47128 0.0
C1287 C 0.07693 0.15844 0.49841 0.0
H1288 H 0.09965 0.20121 0.43651 0.0
H1289 H 0.10043 0.15058 0.46072 0.0
S1290 S 0.03975 0.21142 0.53962 0.0
N1291 N 0.05015 0.23205 0.51059 0.0
N1292 N 0.05083 0.17798 0.53607 0.0
C1293 C 0.06394 0.18211 0.51034 0.0
C1294 C 0.06352 0.21218 0.49603 0.0
C1295 C 0.68018 0.29774 0.26134 0.0
C1296 C 0.67422 0.32328 0.24509 0.0
C1297 C 0.71095 0.29764 0.27124 0.0
C1298 C 0.73909 0.32329 0.26619 0.0
H1299 H 0.6605 0.27675 0.26642 0.0
H1300 H 0.71252 0.27681 0.28322 0.0
S1301 S 0.73894 0.39743 0.2255 0.0
N1302 N 0.70121 0.37575 0.22482 0.0
N1303 N 0.75786 0.37604 0.24352 0.0
C1304 C 0.73375 0.34932 0.25017 0.0
C1305 C 0.70213 0.3492 0.23972 0.0
C1306 C 0.57191 0.91519 0.99712 0.0
C1307 C 0.58785 0.91238 0.97207 0.0
C1308 C 0.57083 0.94664 0.01051 0.0
C1309 C 0.58566 0.97863 1.0003 0.0
H1310 H 0.5594 0.89235 1.0067 0.0
H1311 H 0.55786 0.94559 0.02938 0.0
S1312 S 0.63131 0.9878 0.93554 0.0
N1313 N 0.61922 0.94628 0.93774 0.0
N1314 N 0.61775 1.00476 0.9628 0.0
C1315 C 0.60224 0.97666 0.97549 0.0
C1316 C 0.6032 0.94416 0.96159 0.0
C1317 C 0.96191 0.78368 0.73943 0.0
C1318 C 0.99102 0.81185 0.7429 0.0
C1319 C 0.93392 0.78415 0.75206 0.0
C1320 C 0.93212 0.81254 0.77046 0.0
H1321 H 0.96057 0.76035 0.72652 0.0
H1322 H 0.91325 0.76138 0.74738 0.0
S1323 S 1.00173 0.89293 0.7899 0.0
N1324 N 1.01528 0.86915 0.76828 0.0
N1325 N 0.9648 0.86999 0.79188 0.0
C1326 C 0.9613 0.84077 0.77459 0.0
C1327 C 0.98967 0.84044 0.76122 0.0
C1328 C 0.1748 0.05274 0.96191 0.0
C1329 C 0.16105 0.05802 0.93478 0.0
C1330 C 0.1569 0.0441 0.9852 0.0
C1331 C 0.12521 0.04106 0.98164 0.0
H1332 H 0.19988 0.05874 0.9661 0.0
H1333 H 0.16865 0.04381 0.00702 0.0
S1334 S 0.07797 0.04662 0.91287 0.0
N1335 N 0.11364 0.05466 0.90379 0.0
N1336 N 0.07988 0.03876 0.948 0.0
C1337 C 0.11047 0.04187 0.95345 0.0
C1338 C 0.12864 0.05056 0.92977 0.0
C1339 C 0.85552 0.38981 0.59344 0.0
C1340 C 0.87959 0.40262 0.57587 0.0
C1341 C 0.86216 0.38246 0.62228 0.0
C1342 C 0.89312 0.38822 0.63452 0.0
H1343 H 0.83155 0.38625 0.58508 0.0
H1344 H 0.84305 0.37298 0.63536 0.0
S1345 S 0.96456 0.42405 0.59836 0.0
N1346 N 0.93551 0.42189 0.57287 0.0
N1347 N 0.94806 0.40864 0.62753 0.0
C1348 C 0.91735 0.40076 0.61711 0.0
C1349 C 0.91055 0.40787 0.58761 0.0
C1350 C 0.56228 0.07437 0.42452 0.0
C1351 C 0.54335 0.09397 0.41812 0.0
C1352 C 0.57243 0.07163 0.45356 0.0
C1353 C 0.56439 0.08873 0.47735 0.0
H1354 H 0.56793 0.05918 0.40707 0.0
H1355 H 0.58515 0.05442 0.45722 0.0
S1356 S 0.52204 0.1498 0.47269 0.0
N1357 N 0.52123 0.13507 0.43769 0.0
N1358 N 0.54144 0.13073 0.49311 0.0
C1359 C 0.54826 0.11118 0.47146 0.0
C1360 C 0.53751 0.11369 0.44158 0.0
C1361 C 0.8197 0.80977 0.15483 0.0
C1362 C 0.83326 0.78855 0.13976 0.0
C1363 C 0.81959 0.81254 0.18635 0.0
C1364 C 0.8335 0.79477 0.20524 0.0
H1365 H 0.80859 0.82429 0.14211 0.0
H1366 H 0.80883 0.82944 0.19609 0.0
S1367 S 0.87075 0.73402 0.178 0.0
N1368 N 0.85981 0.74791 0.14722 0.0
N1369 N 0.86035 0.75397 0.20566 0.0
C1370 C 0.84712 0.77343 0.1906 0.0
C1371 C 0.84681 0.77013 0.15837 0.0
C1372 C 0.1194 0.07949 0.78601 0.0
C1373 C 0.13931 0.11046 0.80195 0.0
C1374 C 0.10187 0.07907 0.75902 0.0
C1375 C 0.10413 0.10958 0.74694 0.0
H1376 H 0.11811 0.0554 0.79397 0.0
H1377 H 0.08764 0.05465 0.74681 0.0
S1378 S 0.15305 0.19728 0.7803 0.0
N1379 N 0.15965 0.17233 0.80453 0.0
N1380 N 0.12764 0.17154 0.75311 0.0
C1381 C 0.1231 0.14077 0.76329 0.0
C1382 C 0.14053 0.14121 0.791 0.0
C1383 C 0.8009 0.38158 0.42134 0.0
C1384 C 0.83104 0.40488 0.43189 0.0
C1385 C 0.79591 0.35904 0.39537 0.0
C1386 C 0.82109 0.35917 0.38002 0.0
H1387 H 0.78108 0.38161 0.43258 0.0
H1388 H 0.77235 0.3423 0.38681 0.0
S1389 S 0.90462 0.41215 0.39955 0.0
N1390 N 0.88669 0.42459 0.42551 0.0
N1391 N 0.87678 0.38187 0.37741 0.0
C1392 C 0.85129 0.38094 0.39099 0.0
C1393 C 0.85645 0.40397 0.41685 0.0
C1394 C 0.50547 0.08239 0.2494 0.0
C1395 C 0.50227 0.05664 0.26811 0.0
C1396 C 0.49302 0.07379 0.2193 0.0
C1397 C 0.47771 0.03936 0.20785 0.0
H1398 H 0.52107 0.10824 0.25688 0.0
H1399 H 0.50047 0.09305 0.20426 0.0
S1400 S 0.45355 0.96518 0.25033 0.0
N1401 N 0.47542 0.99731 0.27513 0.0
N1402 N 0.45121 0.98177 0.21872 0.0
C1403 C 0.46799 0.0152 0.22784 0.0
C1404 C 0.48131 0.02354 0.25811 0.0
C1405 C 0.83883 0.76119 0.93531 0.0
C1406 C 0.84039 0.78805 0.95715 0.0
C1407 C 0.84142 0.76586 0.90453 0.0
C1408 C 0.84676 0.79798 0.8937 0.0
H1409 H 0.83454 0.73585 0.94184 0.0
H1410 H 0.83919 0.74397 0.88907 0.0
S1411 S 0.85356 0.87721 0.94134 0.0
N1412 N 0.84774 0.84818 0.96489 0.0
N1413 N 0.85373 0.85727 0.9086 0.0
C1414 C 0.84906 0.82512 0.91555 0.0
C1415 C 0.84561 0.82013 0.94658 0.0
C1416 C 0.85421 0.06719 0.04242 0.0
C1417 C 0.86457 0.10279 0.04948 0.0
C1418 C 0.87539 0.05076 0.03679 0.0
C1419 C 0.9074 0.06954 0.03782 0.0
H1420 H 0.82988 0.0518 0.04264 0.0
H1421 H 0.86691 0.02315 0.03301 0.0
S1422 S 0.94522 0.1637 0.05033 0.0
N1423 N 0.90809 0.15659 0.05396 0.0
N1424 N 0.94789 0.12573 0.04276 0.0
C1425 C 0.91766 0.10531 0.04291 0.0
C1426 C 0.89621 0.12196 0.04893 0.0
C1427 C 0.4642 0.46955 0.08041 0.0
C1428 C 0.43879 0.45899 0.05777 0.0
C1429 C 0.49141 0.49703 0.07797 0.0
C1430 C 0.4947 0.51444 0.05234 0.0
H1431 H 0.46318 0.45624 0.10006 0.0
H1432 H 0.51049 0.50378 0.09596 0.0
S1433 S 0.43466 0.4961 0.98651 0.0
N1434 N 0.41803 0.4681 0.00911 0.0
N1435 N 0.46983 0.51893 1.00387 0.0
C1436 C 0.46931 0.50414 0.02953 0.0
C1437 C 0.44117 0.47667 0.03243 0.0
C1438 C 0.39298 0.58977 0.79915 0.0
C1439 C 0.41705 0.60111 0.78125 0.0
C1440 C 0.37304 0.6079 0.80365 0.0
C1441 C 0.37691 0.63823 0.79081 0.0
H1442 H 0.38819 0.56567 0.80824 0.0
H1443 H 0.35359 0.59724 0.81607 0.0
S1444 S 0.4401 0.68202 0.74695 0.0
N1445 N 0.44609 0.64642 0.75361 0.0
N1446 N 0.40915 0.68146 0.76312 0.0
C1447 C 0.40241 0.65129 0.77487 0.0
C1448 C 0.42243 0.63252 0.76989 0.0
C1449 C 0.2289 0.58988 0.55885 0.0
C1450 C 0.2412 0.58241 0.58605 0.0
C1451 C 0.19744 0.58641 0.55375 0.0
C1452 C 0.17728 0.57329 0.57474 0.0
H1453 H 0.24424 0.60329 0.54355 0.0
H1454 H 0.18926 0.59571 0.53412 0.0
S1455 S 0.1958 0.53789 0.64333 0.0
N1456 N 0.2296 0.5534 0.63012 0.0
N1457 N 0.16956 0.54446 0.61935 0.0
C1458 C 0.18797 0.55957 0.59891 0.0
C1459 C 0.22023 0.56412 0.60458 0.0
C1460 C 0.7867 0.02606 0.77555 0.0
C1461 C 0.77301 0.04175 0.79579 0.0
C1462 C 0.8066 1.00944 0.78562 0.0
C1463 C 0.81315 1.00781 0.81617 0.0
H1464 H 0.78151 0.02605 0.75174 0.0
H1465 H 0.81593 0.99652 0.76939 0.0
S1466 S 0.78319 0.0444 0.87803 0.0
N1467 N 0.76768 0.05516 0.84768 0.0
N1468 N 0.80502 0.02285 0.86657 0.0
C1469 C 0.80041 0.02401 0.83672 0.0
C1470 C 0.78029 0.04133 0.82649 0.0
C1471 C 0.75933 0.94288 0.51422 0.0
C1472 C 0.77977 0.94071 0.53852 0.0
C1473 C 0.74135 0.96378 0.51692 0.0
C1474 C 0.7432 0.98346 0.54398 0.0
H1475 H 0.75714 0.92835 0.49285 0.0
H1476 H 0.7258 0.96446 0.49764 0.0
S1477 S 0.79365 0.98783 0.61422 0.0
N1478 N 0.80085 0.96031 0.59068 0.0
N1479 N 0.76758 1.00021 0.59539 0.0
C1480 C 0.76346 0.98157 0.56851 0.0
C1481 C 0.78164 0.96008 0.56586 0.0
C1482 C 0.33138 0.42136 0.72439 0.0
C1483 C 0.35123 0.45445 0.73614 0.0
C1484 C 0.31814 0.39707 0.74336 0.0
C1485 C 0.32468 0.40519 0.77447 0.0
H1486 H 0.32949 0.41286 0.70091 0.0
H1487 H 0.30671 0.37075 0.73378 0.0
S1488 S 0.36641 0.49034 0.81578 0.0
N1489 N 0.36907 0.49622 0.78042 0.0
N1490 N 0.34593 0.44952 0.81587 0.0
C1491 C 0.33987 0.43921 0.78613 0.0
C1492 C 0.35255 0.46429 0.76686 0.0
C1493 C 0.26012 0.65607 0.2484 0.0
C1494 C 0.22847 0.65174 0.25005 0.0
C1495 C 0.28399 0.68697 0.25964 0.0
C1496 C 0.27682 0.71378 0.27376 0.0
H1497 H 0.26646 0.6353 0.23875 0.0
H1498 H 0.30812 0.68956 0.25807 0.0
S1499 S 0.19807 0.71585 0.28314 0.0
N1500 N 0.19146 0.67749 0.26593 0.0
N1501 N 0.23642 0.73503 0.28777 0.0
C1502 C 0.24543 0.71003 0.27512 0.0
C1503 C 0.22117 0.67909 0.26305 0.0
C1504 C 0.56794 0.70428 0.52213 0.0
C1505 C 0.53661 0.69917 0.51112 0.0
C1506 C 0.57709 0.67731 0.53213 0.0
C1507 C 0.55555 0.64354 0.53103 0.0
H1508 H 0.58548 0.72952 0.5236 0.0
H1509 H 0.6014 0.6831 0.54075 0.0
S1510 S 0.47145 0.61597 0.49997 0.0
N1511 N 0.48467 0.65735 0.49765 0.0
N1512 N 0.50142 0.6069 0.51521 0.0
C1513 C 0.52434 0.63812 0.51895 0.0
C1514 C 0.51504 0.66571 0.50938 0.0
C1515 C 0.72201 0.33338 0.72703 0.0
C1516 C 0.73033 0.35393 0.70385 0.0
C1517 C 0.74482 0.3295 0.74815 0.0
C1518 C 0.77723 0.34626 0.74747 0.0
H1519 H 0.69762 0.31917 0.72837 0.0
H1520 H 0.73676 0.31267 0.76494 0.0
S1521 S 0.81134 0.4057 0.69299 0.0
N1522 N 0.77328 0.39289 0.68257 0.0
N1523 N 0.816 0.38611 0.72235 0.0
C1524 C 0.7858 0.36787 0.72502 0.0
C1525 C 0.76249 0.37155 0.70328 0.0
C1526 C 1.02532 0.40333 0.02251 0.0
C1527 C 0.04749 0.38856 0.01501 0.0
C1528 C 0.03331 0.43909 0.02813 0.0
C1529 C 0.06394 0.46177 0.02683 0.0
H1530 H 1.00131 0.3872 0.0232 0.0
H1531 H 1.01527 0.44896 0.03359 0.0
S1532 S 0.13124 0.43588 0.01003 0.0
N1533 N 0.10166 0.39948 0.00775 0.0
N1534 N 0.11683 0.46598 0.01856 0.0
C1535 C 0.08645 0.44709 0.02006 0.0
C1536 C 0.07821 0.41081 0.01408 0.0
C1537 C 0.08243 0.87019 0.23708 0.0
C1538 C 0.08164 0.84661 0.21301 0.0
C1539 C 0.05686 0.86502 0.253 0.0
C1540 C 0.02973 0.83606 0.24545 0.0
H1541 H 0.10291 0.89287 0.24372 0.0
H1542 H 0.05841 0.88362 0.27155 0.0
S1543 S 1.01496 0.76719 0.18383 0.0
N1544 N 0.05084 0.79333 0.1821 0.0
N1545 N 1.00282 0.78403 0.21213 0.0
C1546 C 0.02843 0.81232 0.22148 0.0
C1547 C 0.0544 0.81749 0.20522 0.0
C1548 C 0.5967 0.46113 0.14499 0.0
C1549 C 0.58322 0.42686 0.13098 0.0
C1550 C 0.59951 0.49067 0.12931 0.0
C1551 C 0.58896 0.4884 0.09832 0.0
H1552 H 0.6041 0.46532 0.16877 0.0
H1553 H 0.60959 0.51567 0.14194 0.0
S1554 S 0.55038 0.40505 0.05078 0.0
N1555 N 0.55821 0.39354 0.08376 0.0
N1556 N 0.5637 0.44716 0.05491 0.0
C1557 C 0.57563 0.45421 0.08418 0.0
C1558 C 0.57262 0.42437 0.10016 0.0
C1559 C 0.95491 0.28278 0.36712 0.0
C1560 C 0.98533 0.30556 0.36351 0.0
C1561 C 0.926 0.28557 0.35431 0.0
C1562 C 0.92436 0.31199 0.33705 0.0
H1563 H 0.95321 0.26236 0.38085 0.0
H1564 H 0.90439 0.26679 0.35874 0.0
S1565 S 0.99623 0.37998 0.32025 0.0
N1566 N 1.01081 0.35647 0.34054 0.0
N1567 N 0.95772 0.36201 0.31717 0.0
C1568 C 0.95457 0.33509 0.33295 0.0
C1569 C 0.98427 0.3319 0.3458 0.0
C1570 C 0.09766 0.72424 0.61895 0.0
C1571 C 0.07485 0.72046 0.63891 0.0
C1572 C 0.10193 0.69549 0.60268 0.0
C1573 C 0.08418 0.66077 0.60552 0.0
H1574 H 0.11313 0.74966 0.61647 0.0
H1575 H 0.11995 0.70067 0.58807 0.0
S1576 S 1.01861 0.63594 0.65142 0.0
N1577 N 0.03236 0.67795 0.65775 0.0
N1578 N 0.0406 0.62561 0.62838 0.0
C1579 C 0.06079 0.65686 0.62464 0.0
C1580 C 0.05619 0.68591 0.64082 0.0
C1581 C 0.69518 0.78385 0.84404 0.0
C1582 C 0.68835 0.8119 0.85812 0.0
C1583 C 0.72371 0.78643 0.83143 0.0
C1584 C 0.74947 0.81743 0.83152 0.0
H1585 H 0.67791 0.7585 0.8428 0.0
H1586 H 0.72564 0.76297 0.82172 0.0
S1587 S 0.74677 0.90055 0.8651 0.0
N1588 N 0.71242 0.87332 0.87055 0.0
N1589 N 0.76484 0.87806 0.84779 0.0
C1590 C 0.7433 0.84615 0.84531 0.0
C1591 C 0.71369 0.84351 0.85808 0.0
C1592 C 0.50775 0.51734 0.6428 0.0
C1593 C 0.491 0.53714 0.65403 0.0
C1594 C 0.53349 0.53182 0.6281 0.0
C1595 C 0.54305 0.56631 0.6239 0.0
H1596 H 0.50158 0.49064 0.64604 0.0
H1597 H 0.54612 0.51595 0.62007 0.0
S1598 S 0.50718 0.62914 0.64724 0.0
N1599 N 0.48572 0.59327 0.65899 0.0
N1600 N 0.53446 0.62009 0.6307 0.0
C1601 C 0.52671 0.5865 0.63439 0.0
C1602 C 0.50041 0.57191 0.64952 0.0
C1603 C 0.76922 0.22502 0.01582 0.0
C1604 C 0.77584 0.19501 0.01779 0.0
C1605 C 0.76341 0.23553 0.98815 0.0
C1606 C 0.7632 0.2158 0.96156 0.0
H1607 H 0.76946 0.24099 0.03583 0.0
H1608 H 0.76014 0.25988 0.98772 0.0
S1609 S 0.77528 0.13253 0.95556 0.0
N1610 N 0.78024 0.14453 0.99175 0.0
N1611 N 0.76711 0.16293 0.93925 0.0
C1612 C 0.76833 0.18473 0.96344 0.0
C1613 C 0.77521 0.17463 0.99173 0.0
C1614 C 0.11148 0.47811 0.15173 0.0
C1615 C 0.14311 0.49268 0.16369 0.0
C1616 C 0.09974 0.49357 0.12959 0.0
C1617 C 0.12019 0.52117 0.11738 0.0
H1618 H 0.09499 0.46088 0.16405 0.0
H1619 H 0.07461 0.4858 0.12403 0.0
S1620 S 0.20694 0.54997 0.12854 0.0
N1621 N 0.19552 0.52179 0.15243 0.0
N1622 N 0.17453 0.5516 0.11056 0.0
C1623 C 0.15259 0.52806 0.12336 0.0
C1624 C 0.16395 0.51169 0.14561 0.0
C1625 C 0.81511 0.8335 0.44321 0.0
C1626 C 0.84292 0.83844 0.46238 0.0
C1627 C 0.81391 0.83042 0.41144 0.0
C1628 C 0.84069 0.83329 0.39686 0.0
H1629 H 0.79388 0.83146 0.45281 0.0
H1630 H 0.79168 0.82592 0.39816 0.0
S1631 S 0.92026 0.85006 0.43678 0.0
N1632 N 0.89832 0.84807 0.46389 0.0
N1633 N 0.89648 0.84349 0.40547 0.0
C1634 C 0.8688 0.83939 0.416 0.0
C1635 C 0.8698 0.84168 0.44815 0.0
C1636 C 0.51866 0.51816 0.80292 0.0
C1637 C 0.48803 0.4953 0.79431 0.0
C1638 C 0.53371 0.52008 0.83157 0.0
C1639 C 0.5182 0.49978 0.85251 0.0
H1640 H 0.53088 0.5349 0.78753 0.0
H1641 H 0.55727 0.53822 0.83766 0.0
S1642 S 0.437 0.438 0.8414 0.0
N1643 N 0.4422 0.45304 0.80894 0.0
N1644 N 0.47048 0.45692 0.86316 0.0
C1645 C 0.48749 0.477 0.8442 0.0
C1646 C 0.47238 0.47465 0.81491 0.0
C1647 C 0.85649 0.23224 0.19086 0.0
C1648 C 0.85095 0.24604 0.16459 0.0
C1649 C 0.8582 0.25005 0.21867 0.0
C1650 C 0.85465 0.28218 0.22085 0.0
H1651 H 0.85601 0.20618 0.18998 0.0
H1652 H 0.86002 0.23745 0.23839 0.0
S1653 S 0.84652 0.33176 0.15808 0.0
N1654 N 0.84719 0.2954 0.14212 0.0
N1655 N 0.85062 0.32924 0.19426 0.0
C1656 C 0.85309 0.29787 0.1947 0.0
C1657 C 0.85128 0.27967 0.16651 0.0
C1658 C 0.09365 0.55287 0.3175 0.0
C1659 C 0.11661 0.5385 0.31231 0.0
C1660 C 0.09008 0.56318 0.34641 0.0
C1661 C 0.10909 0.55897 0.37072 0.0
H1662 H 0.08056 0.55939 0.29923 0.0
H1663 H 0.0745 0.5773 0.34958 0.0
S1664 S 0.16525 0.51318 0.36962 0.0
N1665 N 0.1532 0.51331 0.33417 0.0
N1666 N 0.14623 0.53295 0.38874 0.0
C1667 C 0.12869 0.54022 0.36615 0.0
C1668 C 0.13237 0.52965 0.33675 0.0
C1669 C 0.86695 0.83766 0.66495 0.0
C1670 C 0.84252 0.83989 0.64451 0.0
C1671 C 0.86403 0.83414 0.69565 0.0
C1672 C 0.83609 0.83135 0.70794 0.0
H1673 H 0.88909 0.83952 0.65732 0.0
H1674 H 0.88398 0.83324 0.70995 0.0
S1675 S 0.76447 0.83522 0.66485 0.0
N1676 N 0.78915 0.83956 0.63984 0.0
N1677 N 0.78319 0.83098 0.69645 0.0
C1678 C 0.81121 0.8329 0.68776 0.0
C1679 C 0.81454 0.8377 0.6566 0.0
C1680 C 0.81016 0.56361 0.53811 0.0
C1681 C 0.80278 0.52847 0.54 0.0
C1682 C 0.79253 0.58131 0.55046 0.0
C1683 C 0.76695 0.56437 0.56495 0.0
H1684 H 0.82933 0.57753 0.52654 0.0
H1685 H 0.79802 0.60799 0.54742 0.0
S1686 S 0.73929 0.47341 0.57822 0.0
N1687 N 0.76919 0.4779 0.55928 0.0
N1688 N 0.73605 0.51144 0.58243 0.0
C1689 C 0.76003 0.52966 0.56816 0.0
C1690 C 0.77797 0.5116 0.55568 0.0
C1691 C 0.20456 0.18951 0.52828 0.0
C1692 C 0.23369 0.18593 0.53581 0.0
C1693 C 0.17655 0.16362 0.5312 0.0
C1694 C 0.17625 0.13276 0.54153 0.0
H1695 H 0.20328 0.21303 0.52092 0.0
H1696 H 0.15485 0.1682 0.52592 0.0
S1697 S 0.24554 0.10899 0.56245 0.0
N1698 N 0.2603 0.14791 0.55272 0.0
N1699 N 0.20714 0.09899 0.55782 0.0
C1700 C 0.20488 0.1278 0.54765 0.0
C1701 C 0.23372 0.15444 0.54489 0.0
C1702 C 0.26032 0.01829 0.81792 0.0
C1703 C 0.26777 0.03595 0.84675 0.0
C1704 C 0.28045 1.00374 0.8062 0.0
C1705 C 0.30864 1.00621 0.82293 0.0
H1706 H 0.23871 0.01545 0.80423 0.0
H1707 H 0.27359 0.98975 0.78411 0.0
S1708 S 0.33936 0.04974 0.89932 0.0
N1709 N 0.30579 0.05572 0.89159 0.0
N1710 N 0.34335 0.02736 0.86946 0.0
C1711 C 0.31678 0.02419 0.85153 0.0
C1712 C 0.29632 0.03921 0.86352 0.0
C1713 C 0.4396 0.04905 0.01987 0.0
C1714 C 0.42902 0.02984 0.99174 0.0
C1715 C 0.47156 0.06387 0.02961 0.0
C1716 C 0.49364 0.06051 0.01124 0.0
H1717 H 0.42353 0.04865 0.03601 0.0
H1718 H 0.47878 0.07514 0.05259 0.0
S1719 S 0.47715 0.02511 0.93164 0.0
N1720 N 0.44233 0.01713 0.94277 0.0
N1721 N 0.50279 0.04572 0.96086 0.0
C1722 C 0.48328 0.04734 0.98122 0.0
C1723 C 0.45068 0.03199 0.97142 0.0
C1724 C 0.90414 0.61176 0.79823 0.0
C1725 C 0.89805 0.6034 0.82701 0.0
C1726 C 0.88282 0.62031 0.77951 0.0
C1727 C 0.85497 0.62147 0.78915 0.0
H1728 H 0.92591 0.61254 0.79026 0.0
H1729 H 0.88908 0.62819 0.75807 0.0
S1730 S 0.82652 0.59758 0.86123 0.0
N1731 N 0.86084 0.59264 0.86302 0.0
N1732 N 0.82105 0.61052 0.82836 0.0
C1733 C 0.84755 0.61074 0.81708 0.0
C1734 C 0.86913 0.60138 0.83596 0.0
C1735 C 0.87359 0.63237 0.04175 0.0
C1736 C 0.88212 0.66772 0.0496 0.0
C1737 C 0.8942 0.61529 0.04909 0.0
C1738 C 0.92417 0.63286 0.06456 0.0
H1739 H 0.85072 0.61757 0.02991 0.0
H1740 H 0.88669 0.5881 0.04234 0.0
S1741 S 0.95804 0.72531 0.09092 0.0
N1742 N 0.92284 0.71974 0.07403 0.0
N1743 N 0.9614 0.6873 0.088 0.0
C1744 C 0.93316 0.66816 0.07255 0.0
C1745 C 0.91218 0.68566 0.06508 0.0
C1746 C 0.28569 0.17203 0.82572 0.0
C1747 C 0.28525 0.1774 0.85666 0.0
C1748 C 0.30442 0.1976 0.81071 0.0
C1749 C 0.32393 0.22886 0.82629 0.0
H1750 H 0.26928 0.14932 0.81251 0.0
H1751 H 0.3019 0.19383 0.78658 0.0
S1752 S 0.33649 0.25195 0.9084 0.0
N1753 N 0.30918 0.21366 0.90294 0.0
N1754 N 0.34577 0.26146 0.87505 0.0
C1755 C 0.32664 0.23276 0.85771 0.0
C1756 C 0.30687 0.20703 0.87286 0.0
C1757 C 0.43745 0.94348 0.36008 0.0
C1758 C 0.43845 0.96928 0.34188 0.0
C1759 C 0.41162 0.91332 0.35655 0.0
C1760 C 0.38617 0.9081 0.33467 0.0
H1761 H 0.4573 0.94605 0.37628 0.0
H1762 H 0.41246 0.89298 0.36962 0.0
S1763 S 0.37698 0.96803 0.28188 0.0
N1764 N 0.41118 0.98846 0.30211 0.0
N1765 N 0.36277 0.93098 0.29516 0.0
C1766 C 0.38597 0.93432 0.31745 0.0
C1767 C 0.41221 0.96523 0.32114 0.0
C1768 C 0.65025 0.45514 0.59764 0.0
C1769 C 0.62988 0.42532 0.60735 0.0
C1770 C 0.64032 0.48243 0.59031 0.0
C1771 C 0.60921 0.48092 0.5915 0.0
H1772 H 0.67432 0.45767 0.59605 0.0
H1773 H 0.65705 0.50463 0.58302 0.0
S1774 S 0.54614 0.40898 0.61535 0.0
N1775 N 0.57686 0.39671 0.61816 0.0
N1776 N 0.55808 0.44689 0.60324 0.0
C1777 C 0.5885 0.45122 0.60091 0.0
C1778 C 0.59881 0.42385 0.60915 0.0
C1779 C 0.40928 0.76697 0.41411 0.0
C1780 C 0.44054 0.77272 0.40896 0.0
C1781 C 0.38712 0.77154 0.39261 0.0
C1782 C 0.39484 0.78153 0.36459 0.0
H1783 H 0.40188 0.75962 0.43533 0.0
H1784 H 0.3637 0.76737 0.39811 0.0
S1785 S 0.47341 0.80138 0.33966 0.0
N1786 N 0.47794 0.79004 0.37338 0.0
N1787 N 0.43636 0.79802 0.33312 0.0
C1788 C 0.42582 0.78703 0.35887 0.0
C1789 C 0.44856 0.78278 0.38091 0.0
C1790 C 0.14727 0.73182 0.07636 0.0
C1791 C 0.12949 0.74523 0.09398 0.0
C1792 C 0.14015 0.69639 0.07006 0.0
C1793 C 0.11486 0.67239 0.08102 0.0
H1794 H 0.16741 0.74882 0.06781 0.0
H1795 H 0.15492 0.68785 0.05654 0.0
S1796 S 0.05935 0.69374 0.1266 0.0
N1797 N 0.08432 0.73121 0.12125 0.0
N1798 N 0.07098 0.66502 0.10933 0.0
C1799 C 0.09644 0.68539 0.09818 0.0
C1800 C 0.1037 0.72156 0.10462 0.0
C1801 C 0.12667 0.30864 0.9066 0.0
C1802 C 0.09995 0.3131 0.89219 0.0
C1803 C 0.14997 0.30453 0.89058 0.0
C1804 C 0.14747 0.30473 0.85953 0.0
H1805 H 0.12941 0.30758 0.93044 0.0
H1806 H 0.1699 0.30069 0.90255 0.0
S1807 S 0.08288 0.31653 0.81113 0.0
N1808 N 0.07298 0.31869 0.84507 0.0
N1809 N 0.11671 0.31042 0.81488 0.0
C1810 C 0.12146 0.31025 0.84488 0.0
C1811 C 0.09771 0.31458 0.86123 0.0
C1812 C 0.57009 0.71607 0.99851 0.0
C1813 C 0.5789 0.72192 0.96949 0.0
C1814 C 0.57043 0.68687 0.01298 0.0
C1815 C 0.57903 0.66023 0.99959 0.0
H1816 H 0.56261 0.73456 0.01058 0.0
H1817 H 0.56348 0.68516 0.03512 0.0
S1818 S 0.60352 0.66071 0.92332 0.0
N1819 N 0.59641 0.69673 0.92795 0.0
N1820 N 0.59662 0.64253 0.95426 0.0
C1821 C 0.58787 0.66551 0.97044 0.0
C1822 C 0.58793 0.69574 0.9558 0.0
C1823 C 0.18173 0.79678 0.76282 0.0
C1824 C 0.17596 0.82099 0.74469 0.0
C1825 C 0.21238 0.79633 0.77276 0.0
C1826 C 0.24074 0.8202 0.76584 0.0
H1827 H 0.16196 0.77712 0.76943 0.0
H1828 H 0.21368 0.77657 0.7863 0.0
S1829 S 0.24117 0.88994 0.71913 0.0
N1830 N 0.20341 0.87005 0.72026 0.0
N1831 N 0.25985 0.86962 0.73894 0.0
C1832 C 0.23561 0.84485 0.74783 0.0
C1833 C 0.20407 0.84512 0.73739 0.0
C1834 C 0.1146 0.43635 0.4865 0.0
C1835 C 0.08918 0.41431 0.46583 0.0
C1836 C 0.11462 0.46827 0.50093 0.0
C1837 C 0.08908 0.48022 0.49608 0.0
H1838 H 0.13424 0.42834 0.49257 0.0
H1839 H 0.13455 0.4832 0.51696 0.0
S1840 S 1.01701 0.4335 0.44363 0.0
N1841 N 0.03799 0.40847 0.44115 0.0
N1842 N 0.03799 0.46662 0.4679 0.0
C1843 C 0.06388 0.45863 0.47524 0.0
C1844 C 0.06395 0.42651 0.46044 0.0
C1845 C 0.47841 0.34174 0.24279 0.0
C1846 C 0.48978 0.31394 0.24413 0.0
C1847 C 0.45041 0.34273 0.25537 0.0
C1848 C 0.43058 0.31586 0.27009 0.0
H1849 H 0.4915 0.36348 0.23221 0.0
H1850 H 0.44409 0.36514 0.25318 0.0
S1851 S 0.44857 0.23689 0.28058 0.0
N1852 N 0.47712 0.25862 0.26256 0.0
N1853 N 0.42648 0.26044 0.28476 0.0
C1854 C 0.44165 0.28805 0.27129 0.0
C1855 C 0.47019 0.28719 0.25895 0.0
C1856 C 0.64413 0.54288 0.45208 0.0
C1857 C 0.66228 0.57691 0.44964 0.0
C1858 C 0.62374 0.53535 0.47368 0.0
C1859 C 0.62125 0.56178 0.49291 0.0
H1860 H 0.64405 0.52235 0.43605 0.0
H1861 H 0.60947 0.50906 0.47496 0.0
S1862 S 0.66509 0.65425 0.49675 0.0
N1863 N 0.67867 0.63657 0.4701 0.0
N1864 N 0.63844 0.62234 0.50898 0.0
C1865 C 0.64016 0.59544 0.49153 0.0
C1866 C 0.66144 0.60304 0.47038 0.0
C1867 C 0.36298 0.91842 0.10983 0.0
C1868 C 0.38663 0.92699 0.09116 0.0
C1869 C 0.36801 0.9069 0.13731 0.0
C1870 C 0.39664 0.90316 0.14679 0.0
H1871 H 0.34002 0.91919 0.10271 0.0
H1872 H 0.34885 0.89932 0.15047 0.0
S1873 S 0.4681 0.92908 0.10937 0.0
N1874 N 0.44145 0.93632 0.08647 0.0
N1875 N 0.4504 0.91401 0.13803 0.0
C1876 C 0.42126 0.91439 0.12963 0.0
C1877 C 0.41635 0.92643 0.10179 0.0
C1878 C 0.02833 0.62638 0.95102 0.0
C1879 C 0.04747 0.62993 0.92815 0.0
C1880 C 0.03766 0.61721 0.97826 0.0
C1881 C 0.06663 0.61268 0.98319 0.0
H1882 H 1.00419 0.62473 0.94635 0.0
H1883 H 1.02084 0.61017 0.99402 0.0
S1884 S 0.13026 0.63601 0.93539 0.0
N1885 N 0.10002 0.64054 0.91564 0.0
N1886 N 0.11828 0.62421 0.96739 0.0
C1887 C 0.08842 0.62389 0.96304 0.0
C1888 C 0.07879 0.63313 0.93539 0.0
C1889 C 0.30885 0.30533 0.65431 0.0
C1890 C 0.3326 0.29891 0.63966 0.0
C1891 C 0.30931 0.30733 0.68585 0.0
C1892 C 0.33386 0.30365 0.70521 0.0
H1893 H 0.28906 0.30816 0.64117 0.0
H1894 H 0.29004 0.31204 0.69514 0.0
S1895 S 0.40263 0.28726 0.67911 0.0
N1896 N 0.38173 0.28884 0.64787 0.0
N1897 N 0.38317 0.2937 0.70645 0.0
C1898 C 0.35803 0.29762 0.69093 0.0
C1899 C 0.35723 0.29492 0.65863 0.0
C1900 C 0.59706 0.57883 0.29072 0.0
C1901 C 0.62085 0.56488 0.29513 0.0
C1902 C 0.58574 0.5828 0.26212 0.0
C1903 C 0.59783 0.57275 0.23731 0.0
H1904 H 0.58942 0.58987 0.30955 0.0
H1905 H 0.56994 0.59694 0.25968 0.0
S1906 S 0.65471 0.52785 0.23621 0.0
N1907 N 0.65188 0.5354 0.27189 0.0
N1908 N 0.63038 0.54309 0.21796 0.0
C1909 C 0.61847 0.55479 0.24104 0.0
C1910 C 0.62997 0.5506 0.27013 0.0
C1911 C 0.30846 0.84463 0.93258 0.0
C1912 C 0.31137 0.87901 0.93786 0.0
C1913 C 0.30702 0.82966 0.90376 0.0
C1914 C 0.30885 0.84878 0.87935 0.0
H1915 H 0.31019 0.83016 0.95106 0.0
H1916 H 0.30722 0.80386 0.90108 0.0
S1917 S 0.30958 0.9375 0.88094 0.0
N1918 N 0.31063 0.93009 0.91618 0.0
N1919 N 0.30801 0.90182 0.8617 0.0
C1920 C 0.3081 0.88194 0.88399 0.0
C1921 C 0.30918 0.89708 0.9134 0.0
C1922 C 1.02235 0.57811 0.7574 0.0
C1923 C 1.00225 0.55515 0.77371 0.0
C1924 C 1.02187 0.56948 0.727 0.0
C1925 C 1.00102 0.53799 0.71261 0.0
H1926 H 0.03963 0.60167 0.76847 0.0
H1927 H 0.03928 0.58631 0.71522 0.0
S1928 S 0.9394 0.47334 0.74477 0.0
N1929 N 0.95783 0.50277 0.77297 0.0
N1930 N 0.957 0.48656 0.71553 0.0
C1931 C 0.97895 0.51653 0.72821 0.0
C1932 C 0.97956 0.52516 0.75901 0.0
C1933 C 0.3139 0.30241 0.43701 0.0
C1934 C 0.33846 0.30151 0.45802 0.0
C1935 C 0.31713 0.30532 0.4063 0.0
C1936 C 0.34549 0.3088 0.39457 0.0
H1937 H 0.2914 0.2998 0.44418 0.0
H1938 H 0.29701 0.305 0.39151 0.0
S1939 S 0.41771 0.30892 0.43945 0.0
N1940 N 0.3925 0.30416 0.46399 0.0
N1941 N 0.39899 0.31162 0.40727 0.0
C1942 C 0.37053 0.30879 0.41536 0.0
C1943 C 0.36691 0.30459 0.44656 0.0
C1944 C 0.36299 0.59344 0.53305 0.0
C1945 C 0.37655 0.62595 0.54935 0.0
C1946 C 0.37979 0.57132 0.53088 0.0
C1947 C 0.41068 0.58109 0.54479 0.0
H1948 H 0.3387 0.58424 0.52325 0.0
H1949 H 0.36809 0.54591 0.51929 0.0
S1950 S 0.45838 0.66568 0.58563 0.0
N1951 N 0.42354 0.66831 0.57675 0.0
N1952 N 0.45553 0.62692 0.57215 0.0
C1953 C 0.42515 0.61435 0.55953 0.0
C1954 C 0.40797 0.63676 0.5619 0.0
C1955 C 0.94689 0.98537 0.56741 0.0
C1956 C 0.9406 0.95285 0.55212 0.0
C1957 C 0.97369 1.01304 0.56363 0.0
C1958 C 0.99438 1.00947 0.54357 0.0
H1959 H 0.9317 0.98914 0.58318 0.0
H1960 H 0.97858 0.03726 0.57692 0.0
S1961 S 0.98696 0.93019 0.49662 0.0
N1962 N 0.95647 0.91905 0.51527 0.0
N1963 N 1.00598 0.9711 0.50756 0.0
C1964 C 0.98747 0.97746 0.52721 0.0
C1965 C 0.9608 0.94916 0.53165 0.0
C1966 C 0.88807 0.11362 0.25283 0.0
C1967 C 0.89586 0.09253 0.27241 0.0
C1968 C 0.86827 0.13099 0.26013 0.0
C1969 C 0.85576 0.12797 0.28728 0.0
H1970 H 0.89695 0.11646 0.23152 0.0
H1971 H 0.86295 0.14725 0.24458 0.0
S1972 S 0.87015 0.07776 0.34696 0.0
N1973 N 0.89022 0.07036 0.32053 0.0
N1974 N 0.85311 0.10381 0.33428 0.0
C1975 C 0.86336 0.10726 0.30715 0.0
C1976 C 0.88351 0.0894 0.29974 0.0
C1977 C 0.7095 0.08189 0.12252 0.0
C1978 C 0.7313 0.09148 0.10207 0.0
C1979 C 0.67756 0.07396 0.11345 0.0
C1980 C 0.66701 0.07604 0.08391 0.0
H1981 H 0.71749 0.08416 0.14609 0.0
H1982 H 0.66152 0.06922 0.13004 0.0
S1983 S 0.71315 0.09236 0.02054 0.0
N1984 N 0.73896 0.09611 0.04975 0.0
N1985 N 0.679 0.0824 0.03331 0.0
C1986 C 0.68781 0.08156 0.06265 0.0
C1987 C 0.72008 0.08867 0.07157 0.0
C1988 C 0.25715 0.49633 0.29102 0.0
C1989 C 0.2615 0.53065 0.29987 0.0
C1990 C 0.28124 0.48373 0.29654 0.0
C1991 C 0.3105 0.50493 0.31118 0.0
H1992 H 0.23514 0.47907 0.27914 0.0
H1993 H 0.27705 0.45723 0.28899 0.0
S1994 S 0.33366 0.5958 0.34071 0.0
N1995 N 0.297 0.58527 0.32535 0.0
N1996 N 0.34253 0.56091 0.33595 0.0
C1997 C 0.315 0.53878 0.32138 0.0
C1998 C 0.29039 0.55184 0.31565 0.0
C1999 C 0.30615 0.49749 0.04757 0.0
C2000 C 0.295 0.4617 0.04376 0.0
C2001 C 0.2856 0.5155 0.0452 0.0
C2002 C 0.25315 0.4984 0.03836 0.0
H2003 H 0.331 0.51179 0.0525 0.0
H2004 H 0.29529 0.54311 0.04862 0.0
S2005 S 0.21216 0.40459 0.02567 0.0
N2006 N 0.24952 0.40952 0.03316 0.0
N2007 N 0.21076 0.44349 0.02749 0.0
C2008 C 0.24159 0.4625 0.03476 0.0
C2009 C 0.26257 0.44411 0.03771 0.0
C2010 C 0.85224 0.94824 0.23948 0.0
C2011 C 0.86864 0.94497 0.21527 0.0
C2012 C 0.84671 0.92457 0.26041 0.0
C2013 C 0.85813 0.89755 0.25808 0.0
H2014 H 0.8461 0.97079 0.24369 0.0
H2015 H 0.83523 0.92866 0.2794 0.0
S2016 S 0.89698 0.87395 0.19575 0.0
N2017 N 0.89049 0.90861 0.18719 0.0
N2018 N 0.88304 0.8664 0.22765 0.0
C2019 C 0.87208 0.89242 0.23258 0.0
C2020 C 0.87621 0.91535 0.21066 0.0
C2021 C 0.78578 0.16957 0.75797 0.0
C2022 C 0.76467 0.16727 0.73251 0.0
C2023 C 0.80624 0.20121 0.77176 0.0
C2024 C 0.80694 0.23136 0.76 0.0
H2025 H 0.78455 0.14723 0.76904 0.0
H2026 H 0.82036 0.20222 0.79261 0.0
S2027 S 0.76054 0.23872 0.69103 0.0
N2028 N 0.74855 0.19742 0.6941 0.0
N2029 N 0.78785 0.257 0.7196 0.0
C2030 C 0.78847 0.22921 0.73287 0.0
C2031 C 0.76715 0.19704 0.71915 0.0
loop_
_geom_bond_atom_site_label_1
_geom_bond_atom_site_label_2
_geom_bond_distance
_geom_bond_site_symmetry_2
_ccdc_geom_bond_type
Zn0 O3 2.031 . S
Zn0 O5 2.049 . S
Zn0 O10 2.067 1_455 S
Zn1 O2 1.962 . S
Zn1 O4 1.986 . S
Zn1 O6 1.996 . S
Zn1 O9 1.943 . S
O2 Zn1 1.962 . S
O2 C7 1.254 . S
O3 Zn0 2.031 . S
O3 C7 1.269 . S
O4 Zn1 1.986 . S
O4 C11 1.262 . S
O5 Zn0 2.049 . S
O5 C13 1.260 . S
O6 Zn1 1.996 . S
O6 C13 1.257 . S
C7 O2 1.254 . S
C7 O3 1.269 . S
C8 O9 1.249 . S
C8 O10 1.270 1_455 S
O9 Zn1 1.943 . S
O9 C8 1.249 . S
O10 Zn0 2.067 1_655 S
O10 C8 1.270 1_655 S
C11 O4 1.262 . S
C11 O12 1.232 . S
O12 C11 1.232 . S
C13 O5 1.260 . S
C13 O6 1.257 . S
Zn14 O17 2.031 . S
Zn14 O19 2.049 . S
Zn14 O24 2.067 . S
Zn15 O16 1.962 . S
Zn15 O18 1.986 . S
Zn15 O20 1.996 . S
Zn15 O23 1.943 . S
O16 Zn15 1.962 . S
O16 C21 1.254 . S
O17 Zn14 2.031 . S
O17 C21 1.269 . S
O18 Zn15 1.986 . S
O18 C25 1.262 . S
O19 Zn14 2.049 . S
O19 C27 1.260 . S
O20 Zn15 1.996 . S
O20 C27 1.257 . S
C21 O16 1.254 . S
C21 O17 1.269 . S
C22 O23 1.249 . S
C22 O24 1.270 . S
O23 Zn15 1.943 . S
O23 C22 1.249 . S
O24 Zn14 2.067 . S
O24 C22 1.270 . S
C25 O18 1.262 . S
C25 O26 1.232 . S
O26 C25 1.232 . S
C27 O19 1.260 . S
C27 O20 1.257 . S
Zn28 O31 2.031 . S
Zn28 O33 2.049 . S
Zn28 O38 2.067 . S
Zn29 O30 1.962 . S
Zn29 O32 1.986 . S
Zn29 O34 1.996 . S
Zn29 O37 1.943 . S
O30 Zn29 1.962 . S
O30 C35 1.254 . S
O31 Zn28 2.031 . S
O31 C35 1.269 . S
O32 Zn29 1.986 . S
O32 C39 1.262 . S
O33 Zn28 2.049 . S
O33 C41 1.260 . S
O34 Zn29 1.996 . S
O34 C41 1.257 . S
C35 O30 1.254 . S
C35 O31 1.269 . S
C36 O37 1.249 . S
C36 O38 1.270 . S
O37 Zn29 1.943 . S
O37 C36 1.249 . S
O38 Zn28 2.067 . S
O38 C36 1.270 . S
C39 O32 1.262 . S
C39 O40 1.232 . S
O40 C39 1.232 . S
C41 O33 1.260 . S
C41 O34 1.257 . S
Zn42 O45 2.031 . S
Zn42 O47 2.049 . S
Zn42 O52 2.067 . S
Zn43 O44 1.962 . S
Zn43 O46 1.986 . S
Zn43 O48 1.996 . S
Zn43 O51 1.943 . S
O44 Zn43 1.962 . S
O44 C49 1.254 . S
O45 Zn42 2.031 . S
O45 C49 1.269 . S
O46 Zn43 1.986 . S
O46 C53 1.262 . S
O47 Zn42 2.049 . S
O47 C55 1.260 . S
O48 Zn43 1.996 . S
O48 C55 1.257 . S
C49 O44 1.254 . S
C49 O45 1.269 . S
C50 O51 1.249 . S
C50 O52 1.270 . S
O51 Zn43 1.943 . S
O51 C50 1.249 . S
O52 Zn42 2.067 . S
O52 C50 1.270 . S
C53 O46 1.262 . S
C53 O54 1.232 . S
O54 C53 1.232 . S
C55 O47 1.260 . S
C55 O48 1.257 . S
Zn56 O59 2.031 . S
Zn56 O61 2.049 . S
Zn56 O66 2.067 . S
Zn57 O58 1.962 . S
Zn57 O60 1.986 . S
Zn57 O62 1.996 . S
Zn57 O65 1.943 . S
O58 Zn57 1.962 . S
O58 C63 1.254 . S
O59 Zn56 2.031 . S
O59 C63 1.269 . S
O60 Zn57 1.986 . S
O60 C67 1.262 . S
O61 Zn56 2.049 . S
O61 C69 1.260 . S
O62 Zn57 1.996 . S
O62 C69 1.257 . S
C63 O58 1.254 . S
C63 O59 1.269 . S
C64 O65 1.249 . S
C64 O66 1.270 . S
O65 Zn57 1.943 . S
O65 C64 1.249 . S
O66 Zn56 2.067 . S
O66 C64 1.270 . S
C67 O60 1.262 . S
C67 O68 1.232 . S
O68 C67 1.232 . S
C69 O61 1.260 . S
C69 O62 1.257 . S
Zn70 O73 2.031 . S
Zn70 O75 2.049 . S
Zn70 O80 2.067 . S
Zn71 O72 1.962 . S
Zn71 O74 1.986 . S
Zn71 O76 1.996 . S
Zn71 O79 1.943 . S
O72 Zn71 1.962 . S
O72 C77 1.254 . S
O73 Zn70 2.031 . S
O73 C77 1.269 . S
O74 Zn71 1.986 . S
O74 C81 1.262 . S
O75 Zn70 2.049 . S
O75 C83 1.260 . S
O76 Zn71 1.996 . S
O76 C83 1.257 . S
C77 O72 1.254 . S
C77 O73 1.269 . S
C78 O79 1.249 . S
C78 O80 1.270 . S
O79 Zn71 1.943 . S
O79 C78 1.249 . S
O80 Zn70 2.067 . S
O80 C78 1.270 . S
C81 O74 1.262 . S
C81 O82 1.232 . S
O82 C81 1.232 . S
C83 O75 1.260 . S
C83 O76 1.257 . S
Zn84 O87 2.031 . S
Zn84 O89 2.049 . S
Zn84 O94 2.067 . S
Zn85 O86 1.962 . S
Zn85 O88 1.986 . S
Zn85 O90 1.996 . S
Zn85 O93 1.943 . S
O86 Zn85 1.962 . S
O86 C91 1.254 . S
O87 Zn84 2.031 . S
O87 C91 1.269 . S
O88 Zn85 1.986 . S
O88 C95 1.262 . S
O89 Zn84 2.049 . S
O89 C97 1.260 . S
O90 Zn85 1.996 . S
O90 C97 1.257 . S
C91 O86 1.254 . S
C91 O87 1.269 . S
C92 O93 1.249 . S
C92 O94 1.270 . S
O93 Zn85 1.943 . S
O93 C92 1.249 . S
O94 Zn84 2.067 . S
O94 C92 1.270 . S
C95 O88 1.262 . S
C95 O96 1.232 . S
O96 C95 1.232 . S
C97 O89 1.260 . S
C97 O90 1.257 . S
Zn98 O101 2.031 . S
Zn98 O103 2.049 . S
Zn98 O108 2.067 . S
Zn99 O100 1.962 . S
Zn99 O102 1.986 . S
Zn99 O104 1.994 1_455 S
Zn99 O107 1.943 1_455 S
O100 Zn99 1.962 . S
O100 C105 1.254 . S
O101 Zn98 2.031 . S
O101 C105 1.269 1_655 S
O102 Zn99 1.986 . S
O102 C109 1.262 . S
O103 Zn98 2.049 . S
O103 C111 1.260 . S
O104 Zn99 1.994 1_655 S
O104 C111 1.263 . S
C105 O100 1.254 . S
C105 O101 1.269 1_455 S
C106 O107 1.249 . S
C106 O108 1.270 . S
O107 Zn99 1.943 1_655 S
O107 C106 1.249 . S
O108 Zn98 2.067 . S
O108 C106 1.270 . S
C109 O102 1.262 . S
C109 O110 1.232 . S
O110 C109 1.232 . S
C111 O103 1.260 . S
C111 O104 1.263 . S
Zn112 O115 2.031 1_565 S
Zn112 O117 2.049 1_565 S
Zn112 O122 2.067 . S
Zn113 O114 1.962 . S
Zn113 O116 1.986 . S
Zn113 O118 1.996 . S
Zn113 O121 1.943 . S
O114 Zn113 1.962 . S
O114 C119 1.254 . S
O115 Zn112 2.031 1_545 S
O115 C119 1.269 . S
O116 Zn113 1.986 . S
O116 C123 1.262 . S
O117 Zn112 2.049 1_545 S
O117 C125 1.260 . S
O118 Zn113 1.996 . S
O118 C125 1.257 . S
C119 O114 1.254 . S
C119 O115 1.269 . S
C120 O121 1.249 1_565 S
C120 O122 1.270 . S
O121 Zn113 1.943 . S
O121 C120 1.249 1_545 S
O122 Zn112 2.067 . S
O122 C120 1.270 . S
C123 O116 1.262 . S
C123 O124 1.232 . S
O124 C123 1.232 . S
C125 O117 1.260 . S
C125 O118 1.257 . S
Zn126 O129 2.031 . S
Zn126 O131 2.049 . S
Zn126 O136 2.067 . S
Zn127 O128 1.962 . S
Zn127 O130 1.986 . S
Zn127 O132 1.996 . S
Zn127 O135 1.943 . S
O128 Zn127 1.962 . S
O128 C133 1.254 . S
O129 Zn126 2.031 . S
O129 C133 1.269 . S
O130 Zn127 1.986 . S
O130 C137 1.262 . S
O131 Zn126 2.049 . S
O131 C139 1.260 . S
O132 Zn127 1.996 . S
O132 C139 1.257 . S
C133 O128 1.254 . S
C133 O129 1.269 . S
C134 O135 1.249 . S
C134 O136 1.270 . S
O135 Zn127 1.943 . S
O135 C134 1.249 . S
O136 Zn126 2.067 . S
O136 C134 1.270 . S
C137 O130 1.262 . S
C137 O138 1.232 . S
O138 C137 1.232 . S
C139 O131 1.260 . S
C139 O132 1.257 . S
Zn140 O143 2.031 . S
Zn140 O145 2.049 . S
Zn140 O150 2.067 . S
Zn141 O142 1.962 . S
Zn141 O144 1.986 . S
Zn141 O146 1.996 . S
Zn141 O149 1.943 . S
O142 Zn141 1.962 . S
O142 C147 1.254 . S
O143 Zn140 2.031 . S
O143 C147 1.269 . S
O144 Zn141 1.986 . S
O144 C151 1.262 . S
O145 Zn140 2.049 . S
O145 C153 1.260 . S
O146 Zn141 1.996 . S
O146 C153 1.257 . S
C147 O142 1.254 . S
C147 O143 1.269 . S
C148 O149 1.249 . S
C148 O150 1.270 . S
O149 Zn141 1.943 . S
O149 C148 1.249 . S
O150 Zn140 2.067 . S
O150 C148 1.270 . S
C151 O144 1.262 . S
C151 O152 1.232 . S
O152 C151 1.232 . S
C153 O145 1.260 . S
C153 O146 1.257 . S
Zn154 O157 2.031 1_554 S
Zn154 O159 2.049 . S
Zn154 O164 2.067 . S
Zn155 O156 1.962 . S
Zn155 O158 1.986 1_556 S
Zn155 O160 1.996 1_556 S
Zn155 O163 1.943 1_556 S
O156 Zn155 1.962 . S
O156 C161 1.254 . S
O157 Zn154 2.031 1_556 S
O157 C161 1.269 . S
O158 Zn155 1.986 1_554 S
O158 C165 1.262 1_554 S
O159 Zn154 2.049 . S
O159 C167 1.260 . S
O160 Zn155 1.996 1_554 S
O160 C167 1.257 . S
C161 O156 1.254 . S
C161 O157 1.269 . S
C162 O163 1.249 . S
C162 O164 1.270 . S
O163 Zn155 1.943 1_554 S
O163 C162 1.249 . S
O164 Zn154 2.067 . S
O164 C162 1.270 . S
C165 O158 1.262 1_556 S
C165 O166 1.232 . S
O166 C165 1.232 . S
C167 O159 1.260 . S
C167 O160 1.257 . S
Zn168 O171 2.031 . S
Zn168 O173 2.049 . S
Zn168 O178 2.067 . S
Zn169 O170 1.962 . S
Zn169 O172 1.986 . S
Zn169 O174 1.996 . S
Zn169 O177 1.943 . S
O170 Zn169 1.962 . S
O170 C175 1.254 1_554 S
O171 Zn168 2.031 . S
O171 C175 1.269 1_554 S
O172 Zn169 1.986 . S
O172 C179 1.262 . S
O173 Zn168 2.049 . S
O173 C181 1.260 . S
O174 Zn169 1.996 . S
O174 C181 1.257 . S
C175 O170 1.254 1_556 S
C175 O171 1.269 1_556 S
C176 O177 1.249 . S
C176 O178 1.270 . S
O177 Zn169 1.943 . S
O177 C176 1.249 . S
O178 Zn168 2.067 . S
O178 C176 1.270 . S
C179 O172 1.262 . S
C179 O180 1.232 . S
O180 C179 1.232 . S
C181 O173 1.260 . S
C181 O174 1.257 . S
Zn182 O185 2.031 . S
Zn182 O187 2.049 . S
Zn182 O192 2.067 . S
Zn183 O184 1.962 . S
Zn183 O186 1.986 . S
Zn183 O188 1.996 . S
Zn183 O191 1.943 . S
O184 Zn183 1.962 . S
O184 C189 1.254 . S
O185 Zn182 2.031 . S
O185 C189 1.269 . S
O186 Zn183 1.986 . S
O186 C193 1.262 . S
O187 Zn182 2.049 . S
O187 C195 1.260 . S
O188 Zn183 1.996 . S
O188 C195 1.257 . S
C189 O184 1.254 . S
C189 O185 1.269 . S
C190 O191 1.249 . S
C190 O192 1.270 . S
O191 Zn183 1.943 . S
O191 C190 1.249 . S
O192 Zn182 2.067 . S
O192 C190 1.270 . S
C193 O186 1.262 . S
C193 O194 1.232 . S
O194 C193 1.232 . S
C195 O187 1.260 . S
C195 O188 1.257 . S
Zn196 O199 2.031 . S
Zn196 O201 2.049 . S
Zn196 O206 2.067 . S
Zn197 O198 1.962 . S
Zn197 O200 1.986 . S
Zn197 O202 1.996 . S
Zn197 O205 1.943 . S
O198 Zn197 1.962 . S
O198 C203 1.254 . S
O199 Zn196 2.031 . S
O199 C203 1.269 . S
O200 Zn197 1.986 . S
O200 C207 1.262 . S
O201 Zn196 2.049 . S
O201 C209 1.260 . S
O202 Zn197 1.996 . S
O202 C209 1.257 . S
C203 O198 1.254 . S
C203 O199 1.269 . S
C204 O205 1.249 . S
C204 O206 1.270 . S
O205 Zn197 1.943 . S
O205 C204 1.249 . S
O206 Zn196 2.067 . S
O206 C204 1.270 . S
C207 O200 1.262 . S
C207 O208 1.232 . S
O208 C207 1.232 . S
C209 O201 1.260 . S
C209 O202 1.257 . S
Zn210 O213 2.031 . S
Zn210 O215 2.049 . S
Zn210 O220 2.067 . S
Zn211 O212 1.962 . S
Zn211 O214 1.986 . S
Zn211 O216 1.996 . S
Zn211 O219 1.943 . S
O212 Zn211 1.962 . S
O212 C217 1.254 . S
O213 Zn210 2.031 . S
O213 C217 1.269 . S
O214 Zn211 1.986 . S
O214 C221 1.262 . S
O215 Zn210 2.049 . S
O215 C223 1.260 . S
O216 Zn211 1.996 . S
O216 C223 1.257 . S
C217 O212 1.254 . S
C217 O213 1.269 . S
C218 O219 1.249 . S
C218 O220 1.270 . S
O219 Zn211 1.943 . S
O219 C218 1.249 . S
O220 Zn210 2.067 . S
O220 C218 1.270 . S
C221 O214 1.262 . S
C221 O222 1.232 . S
O222 C221 1.232 . S
C223 O215 1.260 . S
C223 O216 1.257 . S
Zn224 O227 2.031 . S
Zn224 O229 2.049 . S
Zn224 O234 2.067 . S
Zn225 O226 1.962 . S
Zn225 O228 1.986 . S
Zn225 O230 1.996 . S
Zn225 O233 1.943 1_545 S
O226 Zn225 1.962 . S
O226 C231 1.254 . S
O227 Zn224 2.031 . S
O227 C231 1.269 1_565 S
O228 Zn225 1.986 . S
O228 C235 1.262 . S
O229 Zn224 2.049 . S
O229 C237 1.260 . S
O230 Zn225 1.996 . S
O230 C237 1.257 1_545 S
C231 O226 1.254 . S
C231 O227 1.269 1_545 S
C232 O233 1.249 . S
C232 O234 1.270 . S
O233 Zn225 1.943 1_565 S
O233 C232 1.249 . S
O234 Zn224 2.067 . S
O234 C232 1.270 . S
C235 O228 1.262 . S
C235 O236 1.232 . S
O236 C235 1.232 . S
C237 O229 1.260 . S
C237 O230 1.257 1_565 S
Zn238 O241 2.031 . S
Zn238 O243 2.049 . S
Zn238 O248 2.067 . S
Zn239 O240 1.962 . S
Zn239 O242 1.986 . S
Zn239 O244 1.996 . S
Zn239 O247 1.943 . S
O240 Zn239 1.962 . S
O240 C245 1.254 . S
O241 Zn238 2.031 . S
O241 C245 1.269 . S
O242 Zn239 1.986 . S
O242 C249 1.262 . S
O243 Zn238 2.049 . S
O243 C251 1.260 . S
O244 Zn239 1.996 . S
O244 C251 1.257 . S
C245 O240 1.254 . S
C245 O241 1.269 . S
C246 O247 1.249 . S
C246 O248 1.270 . S
O247 Zn239 1.943 . S
O247 C246 1.249 . S
O248 Zn238 2.067 . S
O248 C246 1.270 . S
C249 O242 1.262 . S
C249 O250 1.232 . S
O250 C249 1.232 . S
C251 O243 1.260 . S
C251 O244 1.257 . S
Zn252 O255 2.031 . S
Zn252 O257 2.049 . S
Zn252 O262 2.067 . S
Zn253 O254 1.962 . S
Zn253 O256 1.986 . S
Zn253 O258 1.996 . S
Zn253 O261 1.943 . S
O254 Zn253 1.962 . S
O254 C259 1.254 . S
O255 Zn252 2.031 . S
O255 C259 1.269 . S
O256 Zn253 1.986 . S
O256 C263 1.262 . S
O257 Zn252 2.049 . S
O257 C265 1.260 . S
O258 Zn253 1.996 . S
O258 C265 1.257 . S
C259 O254 1.254 . S
C259 O255 1.269 . S
C260 O261 1.249 . S
C260 O262 1.270 . S
O261 Zn253 1.943 . S
O261 C260 1.249 . S
O262 Zn252 2.067 . S
O262 C260 1.270 . S
C263 O256 1.262 . S
C263 O264 1.232 . S
O264 C263 1.232 . S
C265 O257 1.260 . S
C265 O258 1.257 . S
Zn266 O269 2.031 . S
Zn266 O271 2.049 . S
Zn266 O276 2.067 . S
Zn267 O268 1.962 . S
Zn267 O270 1.986 . S
Zn267 O272 1.996 . S
Zn267 O275 1.943 . S
O268 Zn267 1.962 . S
O268 C273 1.254 . S
O269 Zn266 2.031 . S
O269 C273 1.269 . S
O270 Zn267 1.986 . S
O270 C277 1.262 . S
O271 Zn266 2.049 . S
O271 C279 1.260 . S
O272 Zn267 1.996 . S
O272 C279 1.257 . S
C273 O268 1.254 . S
C273 O269 1.269 . S
C274 O275 1.249 . S
C274 O276 1.270 . S
O275 Zn267 1.943 . S
O275 C274 1.249 . S
O276 Zn266 2.067 . S
O276 C274 1.270 . S
C277 O270 1.262 . S
C277 O278 1.232 . S
O278 C277 1.232 . S
C279 O271 1.260 . S
C279 O272 1.257 . S
Zn280 O283 2.031 . S
Zn280 O285 2.049 . S
Zn280 O290 2.067 . S
Zn281 O282 1.962 . S
Zn281 O284 1.986 . S
Zn281 O286 1.996 . S
Zn281 O289 1.943 . S
O282 Zn281 1.962 . S
O282 C287 1.254 1_554 S
O283 Zn280 2.031 . S
O283 C287 1.269 1_554 S
O284 Zn281 1.986 . S
O284 C291 1.262 . S
O285 Zn280 2.049 . S
O285 C293 1.260 . S
O286 Zn281 1.996 . S
O286 C293 1.257 . S
C287 O282 1.254 1_556 S
C287 O283 1.269 1_556 S
C288 O289 1.249 . S
C288 O290 1.270 . S
O289 Zn281 1.943 . S
O289 C288 1.249 . S
O290 Zn280 2.067 . S
O290 C288 1.270 . S
C291 O284 1.262 . S
C291 O292 1.232 . S
O292 C291 1.232 . S
C293 O285 1.260 . S
C293 O286 1.257 . S
Zn294 O297 2.031 . S
Zn294 O299 2.049 . S
Zn294 O304 2.067 . S
Zn295 O296 1.962 . S
Zn295 O298 1.986 . S
Zn295 O300 1.996 . S
Zn295 O303 1.943 . S
O296 Zn295 1.962 . S
O296 C301 1.254 . S
O297 Zn294 2.031 . S
O297 C301 1.269 . S
O298 Zn295 1.986 . S
O298 C305 1.262 . S
O299 Zn294 2.049 . S
O299 C307 1.260 . S
O300 Zn295 1.996 . S
O300 C307 1.257 . S
C301 O296 1.254 . S
C301 O297 1.269 . S
C302 O303 1.249 . S
C302 O304 1.270 . S
O303 Zn295 1.943 . S
O303 C302 1.249 . S
O304 Zn294 2.067 . S
O304 C302 1.270 . S
C305 O298 1.262 . S
C305 O306 1.232 . S
O306 C305 1.232 . S
C307 O299 1.260 . S
C307 O300 1.257 . S
Zn308 O311 2.031 . S
Zn308 O313 2.049 . S
Zn308 O318 2.067 . S
Zn309 O310 1.962 . S
Zn309 O312 1.986 . S
Zn309 O314 1.996 . S
Zn309 O317 1.943 . S
O310 Zn309 1.962 . S
O310 C315 1.254 . S
O311 Zn308 2.031 . S
O311 C315 1.269 . S
O312 Zn309 1.986 . S
O312 C319 1.262 . S
O313 Zn308 2.049 . S
O313 C321 1.260 . S
O314 Zn309 1.996 . S
O314 C321 1.257 . S
C315 O310 1.254 . S
C315 O311 1.269 . S
C316 O317 1.249 . S
C316 O318 1.270 . S
O317 Zn309 1.943 . S
O317 C316 1.249 . S
O318 Zn308 2.067 . S
O318 C316 1.270 . S
C319 O312 1.262 . S
C319 O320 1.232 . S
O320 C319 1.232 . S
C321 O313 1.260 . S
C321 O314 1.257 . S
Zn322 O325 2.031 . S
Zn322 O327 2.049 . S
Zn322 O332 2.067 . S
Zn323 O324 1.962 . S
Zn323 O326 1.986 . S
Zn323 O328 1.996 . S
Zn323 O331 1.943 . S
O324 Zn323 1.962 . S
O324 C329 1.254 . S
O325 Zn322 2.031 . S
O325 C329 1.269 . S
O326 Zn323 1.986 . S
O326 C333 1.262 . S
O327 Zn322 2.049 . S
O327 C335 1.260 . S
O328 Zn323 1.996 . S
O328 C335 1.257 . S
C329 O324 1.254 . S
C329 O325 1.269 . S
C330 O331 1.249 . S
C330 O332 1.270 . S
O331 Zn323 1.943 . S
O331 C330 1.249 . S
O332 Zn322 2.067 . S
O332 C330 1.270 . S
C333 O326 1.262 . S
C333 O334 1.232 . S
O334 C333 1.232 . S
C335 O327 1.260 . S
C335 O328 1.257 . S
Tb336 C345 2.764 . S
Tb336 O346 2.325 . S
Tb336 O349 2.303 . S
Tb336 O353 2.322 . S
Tb336 O354 2.349 . S
Tb336 O357 2.415 . S
Tb336 O358 2.399 . S
Tb337 O347 2.322 1_545 S
Tb337 O348 2.349 1_554 S
Tb337 O350 2.415 1_455 S
Tb337 O351 2.399 1_454 S
Tb337 O352 2.325 . S
Tb337 O355 2.303 . S
Tb337 C366 2.764 1_455 S
C338 O354 1.261 . S
C338 O355 1.257 . S
C339 C342 1.358 . S
C339 C343 1.332 . S
C339 C345 1.504 . S
C340 C341 1.373 . S
C340 C344 1.308 . S
C341 C340 1.373 . S
C341 C342 1.429 . S
C341 H368 0.932 . S
C342 C339 1.358 . S
C342 C341 1.429 . S
C342 H369 0.930 . S
C343 C339 1.332 . S
C343 C344 1.394 . S
C343 H370 0.932 . S
C344 C340 1.308 . S
C344 C343 1.394 . S
C344 H371 0.929 . S
C345 Tb336 2.764 . S
C345 C339 1.504 . S
C345 O357 1.239 . S
C345 O358 1.263 . S
O346 Tb336 2.325 . S
O346 C356 1.236 1_545 S
O347 Tb337 2.322 1_565 S
O347 C356 1.257 . S
O348 Tb337 2.349 1_556 S
O348 C359 1.261 . S
O349 Tb336 2.303 . S
O349 C359 1.257 1_554 S
O350 Tb337 2.415 1_655 S
O350 C366 1.239 . S
O351 Tb337 2.399 1_656 S
O351 C366 1.263 1_556 S
O352 Tb337 2.325 . S
O352 C367 1.236 . S
O353 Tb336 2.322 . S
O353 C367 1.257 . S
O354 Tb336 2.349 . S
O354 C338 1.261 . S
O355 Tb337 2.303 . S
O355 C338 1.257 . S
C356 O346 1.236 1_565 S
C356 O347 1.257 . S
O357 Tb336 2.415 . S
O357 C345 1.239 . S
O358 Tb336 2.399 . S
O358 C345 1.263 . S
C359 O348 1.261 . S
C359 O349 1.257 1_556 S
C360 C363 1.358 1_554 S
C360 C364 1.332 . S
C360 C366 1.504 . S
C361 C362 1.373 . S
C361 C365 1.308 1_556 S
C362 C361 1.373 . S
C362 C363 1.429 . S
C362 H372 0.932 . S
C363 C360 1.358 1_556 S
C363 C362 1.429 . S
C363 H373 0.930 . S
C364 C360 1.332 . S
C364 C365 1.394 . S
C364 H374 0.932 . S
C365 C361 1.308 1_554 S
C365 C364 1.394 . S
C365 H375 0.929 . S
C366 Tb337 2.764 1_655 S
C366 O350 1.239 . S
C366 O351 1.263 1_554 S
C366 C360 1.504 . S
C367 O352 1.236 . S
C367 O353 1.257 . S
H368 C341 0.932 . S
H369 C342 0.930 . S
H370 C343 0.932 . S
H371 C344 0.929 . S
H372 C362 0.932 . S
H373 C363 0.930 . S
H374 C364 0.932 . S
H375 C365 0.929 . S
Tb376 C385 2.764 . S
Tb376 O386 2.325 . S
Tb376 O389 2.303 . S
Tb376 O393 2.322 . S
Tb376 O394 2.349 . S
Tb376 O397 2.415 . S
Tb376 O398 2.399 . S
Tb377 O387 2.322 . S
Tb377 O388 2.349 . S
Tb377 O390 2.415 . S
Tb377 O391 2.399 . S
Tb377 O392 2.325 . S
Tb377 O395 2.303 . S
Tb377 C406 2.764 . S
C378 O394 1.261 . S
C378 O395 1.257 . S
C379 C382 1.358 . S
C379 C383 1.332 . S
C379 C385 1.504 . S
C380 C381 1.373 . S
C380 C384 1.308 . S
C381 C380 1.373 . S
C381 C382 1.429 . S
C381 H408 0.932 . S
C382 C379 1.358 . S
C382 C381 1.429 . S
C382 H409 0.930 . S
C383 C379 1.332 . S
C383 C384 1.394 . S
C383 H410 0.932 . S
C384 C380 1.308 . S
C384 C383 1.394 . S
C384 H411 0.929 . S
C385 Tb376 2.764 . S
C385 C379 1.504 . S
C385 O397 1.239 . S
C385 O398 1.263 . S
O386 Tb376 2.325 . S
O386 C396 1.236 . S
O387 Tb377 2.322 . S
O387 C396 1.257 . S
O388 Tb377 2.349 . S
O388 C399 1.261 . S
O389 Tb376 2.303 . S
O389 C399 1.257 . S
O390 Tb377 2.415 . S
O390 C406 1.239 . S
O391 Tb377 2.399 . S
O391 C406 1.263 . S
O392 Tb377 2.325 . S
O392 C407 1.236 . S
O393 Tb376 2.322 . S
O393 C407 1.257 . S
O394 Tb376 2.349 . S
O394 C378 1.261 . S
O395 Tb377 2.303 . S
O395 C378 1.257 . S
C396 O386 1.236 . S
C396 O387 1.257 . S
O397 Tb376 2.415 . S
O397 C385 1.239 . S
O398 Tb376 2.399 . S
O398 C385 1.263 . S
C399 O388 1.261 . S
C399 O389 1.257 . S
C400 C403 1.358 . S
C400 C404 1.332 . S
C400 C406 1.504 . S
C401 C402 1.373 . S
C401 C405 1.308 . S
C402 C401 1.373 . S
C402 C403 1.429 . S
C402 H412 0.932 . S
C403 C400 1.358 . S
C403 C402 1.429 . S
C403 H413 0.930 . S
C404 C400 1.332 . S
C404 C405 1.394 . S
C404 H414 0.932 . S
C405 C401 1.308 . S
C405 C404 1.394 . S
C405 H415 0.929 . S
C406 Tb377 2.764 . S
C406 O390 1.239 . S
C406 O391 1.263 . S
C406 C400 1.504 . S
C407 O392 1.236 . S
C407 O393 1.257 . S
H408 C381 0.932 . S
H409 C382 0.930 . S
H410 C383 0.932 . S
H411 C384 0.929 . S
H412 C402 0.932 . S
H413 C403 0.930 . S
H414 C404 0.932 . S
H415 C405 0.929 . S
Tb416 C425 2.764 . S
Tb416 O426 2.325 . S
Tb416 O429 2.303 . S
Tb416 O433 2.322 1_545 S
Tb416 O434 2.349 . S
Tb416 O437 2.415 . S
Tb416 O438 2.399 . S
Tb417 O427 2.322 . S
Tb417 O428 2.349 . S
Tb417 O430 2.415 . S
Tb417 O431 2.399 . S
Tb417 O432 2.325 1_545 S
Tb417 O435 2.303 . S
Tb417 C446 2.764 . S
C418 O434 1.261 . S
C418 O435 1.257 . S
C419 C422 1.358 . S
C419 C423 1.332 . S
C419 C425 1.504 . S
C420 C421 1.373 . S
C420 C424 1.308 . S
C421 C420 1.373 . S
C421 C422 1.429 . S
C421 H448 0.932 . S
C422 C419 1.358 . S
C422 C421 1.429 . S
C422 H449 0.930 . S
C423 C419 1.332 . S
C423 C424 1.394 . S
C423 H450 0.932 . S
C424 C420 1.308 . S
C424 C423 1.394 . S
C424 H451 0.929 . S
C425 Tb416 2.764 . S
C425 C419 1.504 . S
C425 O437 1.239 . S
C425 O438 1.263 . S
O426 Tb416 2.325 . S
O426 C436 1.236 . S
O427 Tb417 2.322 . S
O427 C436 1.257 . S
O428 Tb417 2.349 . S
O428 C439 1.261 . S
O429 Tb416 2.303 . S
O429 C439 1.257 . S
O430 Tb417 2.415 . S
O430 C446 1.239 . S
O431 Tb417 2.399 . S
O431 C446 1.263 . S
O432 Tb417 2.325 1_565 S
O432 C447 1.236 . S
O433 Tb416 2.322 1_565 S
O433 C447 1.257 . S
O434 Tb416 2.349 . S
O434 C418 1.261 . S
O435 Tb417 2.303 . S
O435 C418 1.257 . S
C436 O426 1.236 . S
C436 O427 1.257 . S
O437 Tb416 2.415 . S
O437 C425 1.239 . S
O438 Tb416 2.399 . S
O438 C425 1.263 . S
C439 O428 1.261 . S
C439 O429 1.257 . S
C440 C443 1.358 . S
C440 C444 1.332 1_545 S
C440 C446 1.504 . S
C441 C442 1.373 . S
C441 C445 1.308 . S
C442 C441 1.373 . S
C442 C443 1.429 1_565 S
C442 H452 0.932 . S
C443 C440 1.358 . S
C443 C442 1.429 1_545 S
C443 H453 0.930 . S
C444 C440 1.332 1_565 S
C444 C445 1.394 . S
C444 H454 0.932 . S
C445 C441 1.308 . S
C445 C444 1.394 . S
C445 H455 0.929 . S
C446 Tb417 2.764 . S
C446 O430 1.239 . S
C446 O431 1.263 . S
C446 C440 1.504 . S
C447 O432 1.236 . S
C447 O433 1.257 . S
H448 C421 0.932 . S
H449 C422 0.930 . S
H450 C423 0.932 . S
H451 C424 0.929 . S
H452 C442 0.932 . S
H453 C443 0.930 . S
H454 C444 0.932 . S
H455 C445 0.929 . S
Tb456 C465 2.764 . S
Tb456 O466 2.325 . S
Tb456 O469 2.303 . S
Tb456 O473 2.322 . S
Tb456 O474 2.349 . S
Tb456 O477 2.415 . S
Tb456 O478 2.399 . S
Tb457 O467 2.322 . S
Tb457 O468 2.349 . S
Tb457 O470 2.415 . S
Tb457 O471 2.399 . S
Tb457 O472 2.325 . S
Tb457 O475 2.303 . S
Tb457 C486 2.764 . S
C458 O474 1.261 . S
C458 O475 1.257 . S
C459 C462 1.358 . S
C459 C463 1.332 . S
C459 C465 1.504 . S
C460 C461 1.373 . S
C460 C464 1.308 . S
C461 C460 1.373 . S
C461 C462 1.429 . S
C461 H488 0.932 . S
C462 C459 1.358 . S
C462 C461 1.429 . S
C462 H489 0.930 . S
C463 C459 1.332 . S
C463 C464 1.394 . S
C463 H490 0.932 . S
C464 C460 1.308 . S
C464 C463 1.394 . S
C464 H491 0.929 . S
C465 Tb456 2.764 . S
C465 C459 1.504 . S
C465 O477 1.239 . S
C465 O478 1.263 . S
O466 Tb456 2.325 . S
O466 C476 1.236 . S
O467 Tb457 2.322 . S
O467 C476 1.257 . S
O468 Tb457 2.349 . S
O468 C479 1.261 . S
O469 Tb456 2.303 . S
O469 C479 1.257 . S
O470 Tb457 2.415 . S
O470 C486 1.239 . S
O471 Tb457 2.399 . S
O471 C486 1.263 . S
O472 Tb457 2.325 . S
O472 C487 1.236 . S
O473 Tb456 2.322 . S
O473 C487 1.257 . S
O474 Tb456 2.349 . S
O474 C458 1.261 . S
O475 Tb457 2.303 . S
O475 C458 1.257 . S
C476 O466 1.236 . S
C476 O467 1.257 . S
O477 Tb456 2.415 . S
O477 C465 1.239 . S
O478 Tb456 2.399 . S
O478 C465 1.263 . S
C479 O468 1.261 . S
C479 O469 1.257 . S
C480 C483 1.358 . S
C480 C484 1.332 . S
C480 C486 1.504 . S
C481 C482 1.373 . S
C481 C485 1.308 . S
C482 C481 1.373 . S
C482 C483 1.429 . S
C482 H492 0.932 . S
C483 C480 1.358 . S
C483 C482 1.429 . S
C483 H493 0.930 . S
C484 C480 1.332 . S
C484 C485 1.394 . S
C484 H494 0.932 . S
C485 C481 1.308 . S
C485 C484 1.394 . S
C485 H495 0.929 . S
C486 Tb457 2.764 . S
C486 O470 1.239 . S
C486 O471 1.263 . S
C486 C480 1.504 . S
C487 O472 1.236 . S
C487 O473 1.257 . S
H488 C461 0.932 . S
H489 C462 0.930 . S
H490 C463 0.932 . S
H491 C464 0.929 . S
H492 C482 0.932 . S
H493 C483 0.930 . S
H494 C484 0.932 . S
H495 C485 0.929 . S
Tb496 C505 2.764 . S
Tb496 O506 2.325 . S
Tb496 O509 2.303 . S
Tb496 O513 2.322 . S
Tb496 O514 2.349 . S
Tb496 O517 2.415 . S
Tb496 O518 2.399 . S
Tb497 O507 2.322 . S
Tb497 O508 2.349 . S
Tb497 O510 2.415 . S
Tb497 O511 2.399 . S
Tb497 O512 2.325 . S
Tb497 O515 2.303 . S
Tb497 C526 2.764 . S
C498 O514 1.261 1_655 S
C498 O515 1.257 1_655 S
C499 C502 1.358 . S
C499 C503 1.332 . S
C499 C505 1.504 . S
C500 C501 1.373 . S
C500 C504 1.308 . S
C501 C500 1.373 . S
C501 C502 1.429 . S
C501 H528 0.932 . S
C502 C499 1.358 . S
C502 C501 1.429 . S
C502 H529 0.930 . S
C503 C499 1.332 . S
C503 C504 1.394 . S
C503 H530 0.932 . S
C504 C500 1.308 . S
C504 C503 1.394 . S
C504 H531 0.929 . S
C505 Tb496 2.764 . S
C505 C499 1.504 . S
C505 O517 1.239 . S
C505 O518 1.263 . S
O506 Tb496 2.325 . S
O506 C516 1.236 . S
O507 Tb497 2.322 . S
O507 C516 1.257 . S
O508 Tb497 2.349 . S
O508 C519 1.261 . S
O509 Tb496 2.303 . S
O509 C519 1.257 . S
O510 Tb497 2.415 . S
O510 C526 1.239 . S
O511 Tb497 2.399 . S
O511 C526 1.263 . S
O512 Tb497 2.325 . S
O512 C527 1.236 . S
O513 Tb496 2.322 . S
O513 C527 1.257 . S
O514 Tb496 2.349 . S
O514 C498 1.261 1_455 S
O515 Tb497 2.303 . S
O515 C498 1.257 1_455 S
C516 O506 1.236 . S
C516 O507 1.257 . S
O517 Tb496 2.415 . S
O517 C505 1.239 . S
O518 Tb496 2.399 . S
O518 C505 1.263 . S
C519 O508 1.261 . S
C519 O509 1.257 . S
C520 C523 1.358 . S
C520 C524 1.332 1_455 S
C520 C526 1.504 . S
C521 C522 1.373 1_655 S
C521 C525 1.308 . S
C522 C521 1.373 1_455 S
C522 C523 1.429 . S
C522 H532 0.932 . S
C523 C520 1.358 . S
C523 C522 1.429 . S
C523 H533 0.930 . S
C524 C520 1.332 1_655 S
C524 C525 1.394 . S
C524 H534 0.932 . S
C525 C521 1.308 . S
C525 C524 1.394 . S
C525 H535 0.929 . S
C526 Tb497 2.764 . S
C526 O510 1.239 . S
C526 O511 1.263 . S
C526 C520 1.504 . S
C527 O512 1.236 . S
C527 O513 1.257 . S
H528 C501 0.932 . S
H529 C502 0.930 . S
H530 C503 0.932 . S
H531 C504 0.929 . S
H532 C522 0.932 . S
H533 C523 0.930 . S
H534 C524 0.932 . S
H535 C525 0.929 . S
Tb536 C545 2.764 . S
Tb536 O546 2.325 . S
Tb536 O549 2.303 . S
Tb536 O553 2.322 . S
Tb536 O554 2.349 . S
Tb536 O557 2.415 . S
Tb536 O558 2.399 . S
Tb537 O547 2.322 . S
Tb537 O548 2.349 . S
Tb537 O550 2.415 . S
Tb537 O551 2.399 . S
Tb537 O552 2.325 . S
Tb537 O555 2.303 . S
Tb537 C566 2.764 . S
C538 O554 1.261 . S
C538 O555 1.257 . S
C539 C542 1.358 . S
C539 C543 1.332 . S
C539 C545 1.504 . S
C540 C541 1.373 . S
C540 C544 1.308 . S
C541 C540 1.373 . S
C541 C542 1.429 . S
C541 H568 0.932 . S
C542 C539 1.358 . S
C542 C541 1.429 . S
C542 H569 0.930 . S
C543 C539 1.332 . S
C543 C544 1.394 . S
C543 H570 0.932 . S
C544 C540 1.308 . S
C544 C543 1.394 . S
C544 H571 0.929 . S
C545 Tb536 2.764 . S
C545 C539 1.504 . S
C545 O557 1.239 . S
C545 O558 1.263 . S
O546 Tb536 2.325 . S
O546 C556 1.236 . S
O547 Tb537 2.322 . S
O547 C556 1.257 . S
O548 Tb537 2.349 . S
O548 C559 1.261 . S
O549 Tb536 2.303 . S
O549 C559 1.257 . S
O550 Tb537 2.415 . S
O550 C566 1.239 . S
O551 Tb537 2.399 . S
O551 C566 1.263 . S
O552 Tb537 2.325 . S
O552 C567 1.236 . S
O553 Tb536 2.322 . S
O553 C567 1.257 . S
O554 Tb536 2.349 . S
O554 C538 1.261 . S
O555 Tb537 2.303 . S
O555 C538 1.257 . S
C556 O546 1.236 . S
C556 O547 1.257 . S
O557 Tb536 2.415 . S
O557 C545 1.239 . S
O558 Tb536 2.399 . S
O558 C545 1.263 . S
C559 O548 1.261 . S
C559 O549 1.257 . S
C560 C563 1.358 . S
C560 C564 1.332 . S
C560 C566 1.504 . S
C561 C562 1.373 . S
C561 C565 1.308 . S
C562 C561 1.373 . S
C562 C563 1.429 . S
C562 H572 0.932 . S
C563 C560 1.358 . S
C563 C562 1.429 . S
C563 H573 0.930 . S
C564 C560 1.332 . S
C564 C565 1.394 . S
C564 H574 0.932 . S
C565 C561 1.308 . S
C565 C564 1.394 . S
C565 H575 0.929 . S
C566 Tb537 2.764 . S
C566 O550 1.239 . S
C566 O551 1.263 . S
C566 C560 1.504 . S
C567 O552 1.236 . S
C567 O553 1.257 . S
H568 C541 0.932 . S
H569 C542 0.930 . S
H570 C543 0.932 . S
H571 C544 0.929 . S
H572 C562 0.932 . S
H573 C563 0.930 . S
H574 C564 0.932 . S
H575 C565 0.929 . S
Tb576 C585 2.764 . S
Tb576 O586 2.325 . S
Tb576 O589 2.303 . S
Tb576 O593 2.322 . S
Tb576 O594 2.349 . S
Tb576 O597 2.415 . S
Tb576 O598 2.399 . S
Tb577 O587 2.322 . S
Tb577 O588 2.349 1_554 S
Tb577 O590 2.415 1_554 S
Tb577 O591 2.399 1_554 S
Tb577 O592 2.325 1_554 S
Tb577 O595 2.303 . S
Tb577 C606 2.764 1_554 S
C578 O594 1.261 . S
C578 O595 1.257 . S
C579 C582 1.358 . S
C579 C583 1.332 . S
C579 C585 1.504 . S
C580 C581 1.373 . S
C580 C584 1.308 . S
C581 C580 1.373 . S
C581 C582 1.429 . S
C581 H608 0.932 . S
C582 C579 1.358 . S
C582 C581 1.429 . S
C582 H609 0.930 . S
C583 C579 1.332 . S
C583 C584 1.394 . S
C583 H610 0.932 . S
C584 C580 1.308 . S
C584 C583 1.394 . S
C584 H611 0.929 . S
C585 Tb576 2.764 . S
C585 C579 1.504 . S
C585 O597 1.239 . S
C585 O598 1.263 . S
O586 Tb576 2.325 . S
O586 C596 1.236 . S
O587 Tb577 2.322 . S
O587 C596 1.257 . S
O588 Tb577 2.349 1_556 S
O588 C599 1.261 1_556 S
O589 Tb576 2.303 . S
O589 C599 1.257 . S
O590 Tb577 2.415 1_556 S
O590 C606 1.239 . S
O591 Tb577 2.399 1_556 S
O591 C606 1.263 . S
O592 Tb577 2.325 1_556 S
O592 C607 1.236 1_556 S
O593 Tb576 2.322 . S
O593 C607 1.257 . S
O594 Tb576 2.349 . S
O594 C578 1.261 . S
O595 Tb577 2.303 . S
O595 C578 1.257 . S
C596 O586 1.236 . S
C596 O587 1.257 . S
O597 Tb576 2.415 . S
O597 C585 1.239 . S
O598 Tb576 2.399 . S
O598 C585 1.263 . S
C599 O588 1.261 1_554 S
C599 O589 1.257 . S
C600 C603 1.358 . S
C600 C604 1.332 . S
C600 C606 1.504 . S
C601 C602 1.373 . S
C601 C605 1.308 . S
C602 C601 1.373 . S
C602 C603 1.429 . S
C602 H612 0.932 . S
C603 C600 1.358 . S
C603 C602 1.429 . S
C603 H613 0.930 . S
C604 C600 1.332 . S
C604 C605 1.394 . S
C604 H614 0.932 . S
C605 C601 1.308 . S
C605 C604 1.394 . S
C605 H615 0.929 . S
C606 Tb577 2.764 1_556 S
C606 O590 1.239 . S
C606 O591 1.263 . S
C606 C600 1.504 . S
C607 O592 1.236 1_554 S
C607 O593 1.257 . S
H608 C581 0.932 . S
H609 C582 0.930 . S
H610 C583 0.932 . S
H611 C584 0.929 . S
H612 C602 0.932 . S
H613 C603 0.930 . S
H614 C604 0.932 . S
H615 C605 0.929 . S
Tb616 C625 2.764 . S
Tb616 O626 2.325 . S
Tb616 O629 2.303 . S
Tb616 O633 2.322 . S
Tb616 O634 2.349 . S
Tb616 O637 2.415 . S
Tb616 O638 2.399 . S
Tb617 O627 2.322 . S
Tb617 O628 2.349 . S
Tb617 O630 2.415 . S
Tb617 O631 2.399 . S
Tb617 O632 2.325 . S
Tb617 O635 2.303 . S
Tb617 C646 2.764 . S
C618 O634 1.261 . S
C618 O635 1.257 . S
C619 C622 1.358 . S
C619 C623 1.332 . S
C619 C625 1.504 . S
C620 C621 1.373 . S
C620 C624 1.308 . S
C621 C620 1.373 . S
C621 C622 1.429 . S
C621 H648 0.932 . S
C622 C619 1.358 . S
C622 C621 1.429 . S
C622 H649 0.930 . S
C623 C619 1.332 . S
C623 C624 1.394 . S
C623 H650 0.932 . S
C624 C620 1.308 . S
C624 C623 1.394 . S
C624 H651 0.929 . S
C625 Tb616 2.764 . S
C625 C619 1.504 . S
C625 O637 1.239 . S
C625 O638 1.263 . S
O626 Tb616 2.325 . S
O626 C636 1.236 . S
O627 Tb617 2.322 . S
O627 C636 1.257 . S
O628 Tb617 2.349 . S
O628 C639 1.261 . S
O629 Tb616 2.303 . S
O629 C639 1.257 . S
O630 Tb617 2.415 . S
O630 C646 1.239 . S
O631 Tb617 2.399 . S
O631 C646 1.263 . S
O632 Tb617 2.325 . S
O632 C647 1.236 . S
O633 Tb616 2.322 . S
O633 C647 1.257 . S
O634 Tb616 2.349 . S
O634 C618 1.261 . S
O635 Tb617 2.303 . S
O635 C618 1.257 . S
C636 O626 1.236 . S
C636 O627 1.257 . S
O637 Tb616 2.415 . S
O637 C625 1.239 . S
O638 Tb616 2.399 . S
O638 C625 1.263 . S
C639 O628 1.261 . S
C639 O629 1.257 . S
C640 C643 1.358 . S
C640 C644 1.332 . S
C640 C646 1.504 . S
C641 C642 1.373 . S
C641 C645 1.308 . S
C642 C641 1.373 . S
C642 C643 1.429 . S
C642 H652 0.932 . S
C643 C640 1.358 . S
C643 C642 1.429 . S
C643 H653 0.930 . S
C644 C640 1.332 . S
C644 C645 1.394 . S
C644 H654 0.932 . S
C645 C641 1.308 . S
C645 C644 1.394 . S
C645 H655 0.929 . S
C646 Tb617 2.764 . S
C646 O630 1.239 . S
C646 O631 1.263 . S
C646 C640 1.504 . S
C647 O632 1.236 . S
C647 O633 1.257 . S
H648 C621 0.932 . S
H649 C622 0.930 . S
H650 C623 0.932 . S
H651 C624 0.929 . S
H652 C642 0.932 . S
H653 C643 0.930 . S
H654 C644 0.932 . S
H655 C645 0.929 . S
Tb656 C665 2.764 . S
Tb656 O666 2.325 . S
Tb656 O669 2.303 . S
Tb656 O673 2.322 . S
Tb656 O674 2.349 . S
Tb656 O677 2.415 . S
Tb656 O678 2.399 . S
Tb657 O667 2.339 . S
Tb657 O668 2.349 . S
Tb657 O670 2.401 1_554 S
Tb657 O671 2.378 1_554 S
Tb657 O672 2.319 1_554 S
Tb657 O675 2.318 . S
Tb657 C686 2.745 1_554 S
C658 O674 1.261 . S
C658 O675 1.257 . S
C659 C662 1.358 . S
C659 C663 1.332 . S
C659 C665 1.504 . S
C660 C661 1.373 . S
C660 C664 1.308 . S
C661 C660 1.373 . S
C661 C662 1.429 . S
C661 H688 0.932 . S
C662 C659 1.358 . S
C662 C661 1.429 . S
C662 H689 0.930 . S
C663 C659 1.332 . S
C663 C664 1.394 . S
C663 H690 0.932 . S
C664 C660 1.308 . S
C664 C663 1.394 . S
C664 H691 0.929 . S
C665 Tb656 2.764 . S
C665 C659 1.504 . S
C665 O677 1.239 . S
C665 O678 1.263 . S
O666 Tb656 2.325 . S
O666 C676 1.236 . S
O667 Tb657 2.339 . S
O667 C676 1.257 . S
O668 Tb657 2.349 . S
O668 C679 1.261 . S
O669 Tb656 2.303 . S
O669 C679 1.257 . S
O670 Tb657 2.401 1_556 S
O670 C686 1.239 . S
O671 Tb657 2.378 1_556 S
O671 C686 1.263 . S
O672 Tb657 2.319 1_556 S
O672 C687 1.217 1_556 S
O673 Tb656 2.322 . S
O673 C687 1.257 . S
O674 Tb656 2.349 . S
O674 C658 1.261 . S
O675 Tb657 2.318 . S
O675 C658 1.257 . S
C676 O666 1.236 . S
C676 O667 1.257 . S
O677 Tb656 2.415 . S
O677 C665 1.239 . S
O678 Tb656 2.399 . S
O678 C665 1.263 . S
C679 O668 1.261 . S
C679 O669 1.257 . S
C680 C683 1.358 . S
C680 C684 1.332 . S
C680 C686 1.504 . S
C681 C682 1.373 . S
C681 C685 1.308 . S
C682 C681 1.373 . S
C682 C683 1.429 . S
C682 H692 0.932 . S
C683 C680 1.358 . S
C683 C682 1.429 . S
C683 H693 0.930 . S
C684 C680 1.332 . S
C684 C685 1.394 . S
C684 H694 0.932 . S
C685 C681 1.308 . S
C685 C684 1.394 . S
C685 H695 0.929 . S
C686 Tb657 2.745 1_556 S
C686 O670 1.239 . S
C686 O671 1.263 . S
C686 C680 1.504 . S
C687 O672 1.217 1_554 S
C687 O673 1.257 . S
H688 C661 0.932 . S
H689 C662 0.930 . S
H690 C663 0.932 . S
H691 C664 0.929 . S
H692 C682 0.932 . S
H693 C683 0.930 . S
H694 C684 0.932 . S
H695 C685 0.929 . S
Tb696 C705 2.764 . S
Tb696 O706 2.325 . S
Tb696 O709 2.303 . S
Tb696 O713 2.322 . S
Tb696 O714 2.349 . S
Tb696 O717 2.415 . S
Tb696 O718 2.399 . S
Tb697 O707 2.322 . S
Tb697 O708 2.349 . S
Tb697 O710 2.415 . S
Tb697 O711 2.399 . S
Tb697 O712 2.325 . S
Tb697 O715 2.303 . S
Tb697 C726 2.764 . S
C698 O714 1.261 . S
C698 O715 1.257 . S
C699 C702 1.358 . S
C699 C703 1.332 . S
C699 C705 1.504 . S
C700 C701 1.373 . S
C700 C704 1.308 . S
C701 C700 1.373 . S
C701 C702 1.429 . S
C701 H728 0.932 . S
C702 C699 1.358 . S
C702 C701 1.429 . S
C702 H729 0.930 . S
C703 C699 1.332 . S
C703 C704 1.394 . S
C703 H730 0.932 . S
C704 C700 1.308 . S
C704 C703 1.394 . S
C704 H731 0.929 . S
C705 Tb696 2.764 . S
C705 C699 1.504 . S
C705 O717 1.239 . S
C705 O718 1.263 . S
O706 Tb696 2.325 . S
O706 C716 1.236 . S
O707 Tb697 2.322 . S
O707 C716 1.257 . S
O708 Tb697 2.349 . S
O708 C719 1.261 . S
O709 Tb696 2.303 . S
O709 C719 1.257 . S
O710 Tb697 2.415 . S
O710 C726 1.239 . S
O711 Tb697 2.399 . S
O711 C726 1.263 . S
O712 Tb697 2.325 . S
O712 C727 1.236 . S
O713 Tb696 2.322 . S
O713 C727 1.257 . S
O714 Tb696 2.349 . S
O714 C698 1.261 . S
O715 Tb697 2.303 . S
O715 C698 1.257 . S
C716 O706 1.236 . S
C716 O707 1.257 . S
O717 Tb696 2.415 . S
O717 C705 1.239 . S
O718 Tb696 2.399 . S
O718 C705 1.263 . S
C719 O708 1.261 . S
C719 O709 1.257 . S
C720 C723 1.358 . S
C720 C724 1.332 . S
C720 C726 1.504 . S
C721 C722 1.373 . S
C721 C725 1.308 . S
C722 C721 1.373 . S
C722 C723 1.429 . S
C722 H732 0.932 . S
C723 C720 1.358 . S
C723 C722 1.429 . S
C723 H733 0.930 . S
C724 C720 1.332 . S
C724 C725 1.394 . S
C724 H734 0.932 . S
C725 C721 1.308 . S
C725 C724 1.394 . S
C725 H735 0.929 . S
C726 Tb697 2.764 . S
C726 O710 1.239 . S
C726 O711 1.263 . S
C726 C720 1.504 . S
C727 O712 1.236 . S
C727 O713 1.257 . S
H728 C701 0.932 . S
H729 C702 0.930 . S
H730 C703 0.932 . S
H731 C704 0.929 . S
H732 C722 0.932 . S
H733 C723 0.930 . S
H734 C724 0.932 . S
H735 C725 0.929 . S
Tb736 C745 2.764 . S
Tb736 O746 2.325 . S
Tb736 O749 2.303 . S
Tb736 O753 2.322 . S
Tb736 O754 2.349 . S
Tb736 O757 2.415 . S
Tb736 O758 2.399 . S
Tb737 O747 2.322 . S
Tb737 O748 2.349 . S
Tb737 O750 2.415 . S
Tb737 O751 2.399 . S
Tb737 O752 2.325 . S
Tb737 O755 2.303 . S
Tb737 C766 2.764 . S
C738 O754 1.261 . S
C738 O755 1.257 . S
C739 C742 1.358 . S
C739 C743 1.332 1_455 S
C739 C745 1.504 . S
C740 C741 1.373 . S
C740 C744 1.308 1_455 S
C741 C740 1.373 . S
C741 C742 1.429 . S
C741 H768 0.932 . S
C742 C739 1.358 . S
C742 C741 1.429 . S
C742 H769 0.930 . S
C743 C739 1.332 1_655 S
C743 C744 1.394 . S
C743 H770 0.932 . S
C744 C740 1.308 1_655 S
C744 C743 1.394 . S
C744 H771 0.929 . S
C745 Tb736 2.764 . S
C745 C739 1.504 . S
C745 O757 1.239 . S
C745 O758 1.263 . S
O746 Tb736 2.325 . S
O746 C756 1.236 . S
O747 Tb737 2.322 . S
O747 C756 1.257 . S
O748 Tb737 2.349 . S
O748 C759 1.261 1_455 S
O749 Tb736 2.303 . S
O749 C759 1.257 1_455 S
O750 Tb737 2.415 . S
O750 C766 1.239 . S
O751 Tb737 2.399 . S
O751 C766 1.263 . S
O752 Tb737 2.325 . S
O752 C767 1.236 . S
O753 Tb736 2.322 . S
O753 C767 1.257 . S
O754 Tb736 2.349 . S
O754 C738 1.261 . S
O755 Tb737 2.303 . S
O755 C738 1.257 . S
C756 O746 1.236 . S
C756 O747 1.257 . S
O757 Tb736 2.415 . S
O757 C745 1.239 . S
O758 Tb736 2.399 . S
O758 C745 1.263 . S
C759 O748 1.261 1_655 S
C759 O749 1.257 1_655 S
C760 C763 1.358 . S
C760 C764 1.332 . S
C760 C766 1.504 . S
C761 C762 1.373 . S
C761 C765 1.308 . S
C762 C761 1.373 . S
C762 C763 1.429 . S
C762 H772 0.932 . S
C763 C760 1.358 . S
C763 C762 1.429 . S
C763 H773 0.930 . S
C764 C760 1.332 . S
C764 C765 1.394 . S
C764 H774 0.932 . S
C765 C761 1.308 . S
C765 C764 1.394 . S
C765 H775 0.929 . S
C766 Tb737 2.764 . S
C766 O750 1.239 . S
C766 O751 1.263 . S
C766 C760 1.504 . S
C767 O752 1.236 . S
C767 O753 1.257 . S
H768 C741 0.932 . S
H769 C742 0.930 . S
H770 C743 0.932 . S
H771 C744 0.929 . S
H772 C762 0.932 . S
H773 C763 0.930 . S
H774 C764 0.932 . S
H775 C765 0.929 . S
Tb776 C785 2.764 . S
Tb776 O786 2.325 . S
Tb776 O789 2.303 . S
Tb776 O793 2.322 . S
Tb776 O794 2.349 . S
Tb776 O797 2.415 . S
Tb776 O798 2.399 . S
Tb777 O787 2.322 . S
Tb777 O788 2.349 . S
Tb777 O790 2.415 . S
Tb777 O791 2.399 . S
Tb777 O792 2.325 . S
Tb777 O795 2.303 . S
Tb777 C806 2.764 . S
C778 O794 1.261 . S
C778 O795 1.257 . S
C779 C782 1.358 . S
C779 C783 1.332 . S
C779 C785 1.504 . S
C780 C781 1.373 . S
C780 C784 1.308 . S
C781 C780 1.373 . S
C781 C782 1.429 . S
C781 H808 0.932 . S
C782 C779 1.358 . S
C782 C781 1.429 . S
C782 H809 0.930 . S
C783 C779 1.332 . S
C783 C784 1.394 . S
C783 H810 0.932 . S
C784 C780 1.308 . S
C784 C783 1.394 . S
C784 H811 0.929 . S
C785 Tb776 2.764 . S
C785 C779 1.504 . S
C785 O797 1.239 . S
C785 O798 1.263 . S
O786 Tb776 2.325 . S
O786 C796 1.236 . S
O787 Tb777 2.322 . S
O787 C796 1.257 . S
O788 Tb777 2.349 . S
O788 C799 1.261 . S
O789 Tb776 2.303 . S
O789 C799 1.257 . S
O790 Tb777 2.415 . S
O790 C806 1.239 . S
O791 Tb777 2.399 . S
O791 C806 1.263 . S
O792 Tb777 2.325 . S
O792 C807 1.236 . S
O793 Tb776 2.322 . S
O793 C807 1.257 . S
O794 Tb776 2.349 . S
O794 C778 1.261 . S
O795 Tb777 2.303 . S
O795 C778 1.257 . S
C796 O786 1.236 . S
C796 O787 1.257 . S
O797 Tb776 2.415 . S
O797 C785 1.239 . S
O798 Tb776 2.399 . S
O798 C785 1.263 . S
C799 O788 1.261 . S
C799 O789 1.257 . S
C800 C803 1.358 . S
C800 C804 1.332 . S
C800 C806 1.504 . S
C801 C802 1.373 . S
C801 C805 1.308 . S
C802 C801 1.373 . S
C802 C803 1.429 . S
C802 H812 0.932 . S
C803 C800 1.358 . S
C803 C802 1.429 . S
C803 H813 0.930 . S
C804 C800 1.332 . S
C804 C805 1.394 . S
C804 H814 0.932 . S
C805 C801 1.308 . S
C805 C804 1.394 . S
C805 H815 0.929 . S
C806 Tb777 2.764 . S
C806 O790 1.239 . S
C806 O791 1.263 . S
C806 C800 1.504 . S
C807 O792 1.236 . S
C807 O793 1.257 . S
H808 C781 0.932 . S
H809 C782 0.930 . S
H810 C783 0.932 . S
H811 C784 0.929 . S
H812 C802 0.932 . S
H813 C803 0.930 . S
H814 C804 0.932 . S
H815 C805 0.929 . S
Tb816 C825 2.764 . S
Tb816 O826 2.325 . S
Tb816 O829 2.303 . S
Tb816 O833 2.322 . S
Tb816 O834 2.349 . S
Tb816 O837 2.415 . S
Tb816 O838 2.399 . S
Tb817 O827 2.322 . S
Tb817 O828 2.349 . S
Tb817 O830 2.415 . S
Tb817 O831 2.399 . S
Tb817 O832 2.325 . S
Tb817 O835 2.303 . S
Tb817 C846 2.764 . S
C818 O834 1.261 . S
C818 O835 1.257 . S
C819 C822 1.358 . S
C819 C823 1.332 . S
C819 C825 1.504 . S
C820 C821 1.373 . S
C820 C824 1.308 . S
C821 C820 1.373 . S
C821 C822 1.429 . S
C821 H848 0.932 . S
C822 C819 1.358 . S
C822 C821 1.429 . S
C822 H849 0.930 . S
C823 C819 1.332 . S
C823 C824 1.394 . S
C823 H850 0.932 . S
C824 C820 1.308 . S
C824 C823 1.394 . S
C824 H851 0.929 . S
C825 Tb816 2.764 . S
C825 C819 1.504 . S
C825 O837 1.239 . S
C825 O838 1.263 . S
O826 Tb816 2.325 . S
O826 C836 1.236 . S
O827 Tb817 2.322 . S
O827 C836 1.257 . S
O828 Tb817 2.349 . S
O828 C839 1.261 . S
O829 Tb816 2.303 . S
O829 C839 1.257 . S
O830 Tb817 2.415 . S
O830 C846 1.239 . S
O831 Tb817 2.399 . S
O831 C846 1.263 . S
O832 Tb817 2.325 . S
O832 C847 1.236 . S
O833 Tb816 2.322 . S
O833 C847 1.257 . S
O834 Tb816 2.349 . S
O834 C818 1.261 . S
O835 Tb817 2.303 . S
O835 C818 1.257 . S
C836 O826 1.236 . S
C836 O827 1.257 . S
O837 Tb816 2.415 . S
O837 C825 1.239 . S
O838 Tb816 2.399 . S
O838 C825 1.263 . S
C839 O828 1.261 . S
C839 O829 1.257 . S
C840 C843 1.358 . S
C840 C844 1.332 . S
C840 C846 1.504 . S
C841 C842 1.373 . S
C841 C845 1.308 . S
C842 C841 1.373 . S
C842 C843 1.429 . S
C842 H852 0.932 . S
C843 C840 1.358 . S
C843 C842 1.429 . S
C843 H853 0.930 . S
C844 C840 1.332 . S
C844 C845 1.394 . S
C844 H854 0.932 . S
C845 C841 1.308 . S
C845 C844 1.394 . S
C845 H855 0.929 . S
C846 Tb817 2.764 . S
C846 O830 1.239 . S
C846 O831 1.263 . S
C846 C840 1.504 . S
C847 O832 1.236 . S
C847 O833 1.257 . S
H848 C821 0.932 . S
H849 C822 0.930 . S
H850 C823 0.932 . S
H851 C824 0.929 . S
H852 C842 0.932 . S
H853 C843 0.930 . S
H854 C844 0.932 . S
H855 C845 0.929 . S
Tb856 C865 2.764 . S
Tb856 O866 2.325 . S
Tb856 O869 2.303 . S
Tb856 O873 2.322 . S
Tb856 O874 2.349 . S
Tb856 O877 2.415 . S
Tb856 O878 2.399 . S
Tb857 O867 2.322 . S
Tb857 O868 2.349 . S
Tb857 O870 2.415 . S
Tb857 O871 2.399 . S
Tb857 O872 2.325 . S
Tb857 O875 2.303 . S
Tb857 C886 2.764 . S
C858 O874 1.261 . S
C858 O875 1.257 . S
C859 C862 1.358 . S
C859 C863 1.332 . S
C859 C865 1.504 . S
C860 C861 1.373 . S
C860 C864 1.308 . S
C861 C860 1.373 . S
C861 C862 1.429 . S
C861 H888 0.932 . S
C862 C859 1.358 . S
C862 C861 1.429 . S
C862 H889 0.930 . S
C863 C859 1.332 . S
C863 C864 1.394 . S
C863 H890 0.932 . S
C864 C860 1.308 . S
C864 C863 1.394 . S
C864 H891 0.929 . S
C865 Tb856 2.764 . S
C865 C859 1.504 . S
C865 O877 1.239 . S
C865 O878 1.263 . S
O866 Tb856 2.325 . S
O866 C876 1.236 . S
O867 Tb857 2.322 . S
O867 C876 1.257 . S
O868 Tb857 2.349 . S
O868 C879 1.261 . S
O869 Tb856 2.303 . S
O869 C879 1.257 . S
O870 Tb857 2.415 . S
O870 C886 1.239 . S
O871 Tb857 2.399 . S
O871 C886 1.263 . S
O872 Tb857 2.325 . S
O872 C887 1.236 . S
O873 Tb856 2.322 . S
O873 C887 1.257 . S
O874 Tb856 2.349 . S
O874 C858 1.261 . S
O875 Tb857 2.303 . S
O875 C858 1.257 . S
C876 O866 1.236 . S
C876 O867 1.257 . S
O877 Tb856 2.415 . S
O877 C865 1.239 . S
O878 Tb856 2.399 . S
O878 C865 1.263 . S
C879 O868 1.261 . S
C879 O869 1.257 . S
C880 C883 1.358 . S
C880 C884 1.332 . S
C880 C886 1.504 . S
C881 C882 1.373 . S
C881 C885 1.308 . S
C882 C881 1.373 . S
C882 C883 1.429 . S
C882 H892 0.932 . S
C883 C880 1.358 . S
C883 C882 1.429 . S
C883 H893 0.930 . S
C884 C880 1.332 . S
C884 C885 1.394 . S
C884 H894 0.932 . S
C885 C881 1.308 . S
C885 C884 1.394 . S
C885 H895 0.929 . S
C886 Tb857 2.764 . S
C886 O870 1.239 . S
C886 O871 1.263 . S
C886 C880 1.504 . S
C887 O872 1.236 . S
C887 O873 1.257 . S
H888 C861 0.932 . S
H889 C862 0.930 . S
H890 C863 0.932 . S
H891 C864 0.929 . S
H892 C882 0.932 . S
H893 C883 0.930 . S
H894 C884 0.932 . S
H895 C885 0.929 . S
Tb896 C905 2.764 . S
Tb896 O906 2.325 . S
Tb896 O909 2.303 . S
Tb896 O913 2.322 . S
Tb896 O914 2.349 . S
Tb896 O917 2.415 . S
Tb896 O918 2.399 . S
Tb897 O907 2.322 . S
Tb897 O908 2.349 . S
Tb897 O910 2.415 . S
Tb897 O911 2.399 . S
Tb897 O912 2.325 . S
Tb897 O915 2.303 . S
Tb897 C926 2.764 . S
C898 O914 1.261 . S
C898 O915 1.257 . S
C899 C902 1.358 . S
C899 C903 1.332 . S
C899 C905 1.504 . S
C900 C901 1.373 . S
C900 C904 1.308 . S
C901 C900 1.373 . S
C901 C902 1.429 . S
C901 H928 0.932 . S
C902 C899 1.358 . S
C902 C901 1.429 . S
C902 H929 0.930 . S
C903 C899 1.332 . S
C903 C904 1.394 . S
C903 H930 0.932 . S
C904 C900 1.308 . S
C904 C903 1.394 . S
C904 H931 0.929 . S
C905 Tb896 2.764 . S
C905 C899 1.504 . S
C905 O917 1.239 . S
C905 O918 1.263 . S
O906 Tb896 2.325 . S
O906 C916 1.236 . S
O907 Tb897 2.322 . S
O907 C916 1.257 . S
O908 Tb897 2.349 . S
O908 C919 1.261 . S
O909 Tb896 2.303 . S
O909 C919 1.257 . S
O910 Tb897 2.415 . S
O910 C926 1.239 . S
O911 Tb897 2.399 . S
O911 C926 1.263 . S
O912 Tb897 2.325 . S
O912 C927 1.236 . S
O913 Tb896 2.322 . S
O913 C927 1.257 . S
O914 Tb896 2.349 . S
O914 C898 1.261 . S
O915 Tb897 2.303 . S
O915 C898 1.257 . S
C916 O906 1.236 . S
C916 O907 1.257 . S
O917 Tb896 2.415 . S
O917 C905 1.239 . S
O918 Tb896 2.399 . S
O918 C905 1.263 . S
C919 O908 1.261 . S
C919 O909 1.257 . S
C920 C923 1.358 . S
C920 C924 1.332 . S
C920 C926 1.504 . S
C921 C922 1.373 . S
C921 C925 1.308 . S
C922 C921 1.373 . S
C922 C923 1.429 . S
C922 H932 0.932 . S
C923 C920 1.358 . S
C923 C922 1.429 . S
C923 H933 0.930 . S
C924 C920 1.332 . S
C924 C925 1.394 . S
C924 H934 0.932 . S
C925 C921 1.308 . S
C925 C924 1.394 . S
C925 H935 0.929 . S
C926 Tb897 2.764 . S
C926 O910 1.239 . S
C926 O911 1.263 . S
C926 C920 1.504 . S
C927 O912 1.236 . S
C927 O913 1.257 . S
H928 C901 0.932 . S
H929 C902 0.930 . S
H930 C903 0.932 . S
H931 C904 0.929 . S
H932 C922 0.932 . S
H933 C923 0.930 . S
H934 C924 0.932 . S
H935 C925 0.929 . S
Tb936 C945 2.764 1_455 S
Tb936 O946 2.325 . S
Tb936 O949 2.303 . S
Tb936 O953 2.322 . S
Tb936 O954 2.349 . S
Tb936 O957 2.415 1_455 S
Tb936 O958 2.399 1_455 S
Tb937 O947 2.322 . S
Tb937 O948 2.349 1_554 S
Tb937 O950 2.415 . S
Tb937 O951 2.399 . S
Tb937 O952 2.325 . S
Tb937 O955 2.303 . S
Tb937 C966 2.764 . S
C938 O954 1.261 . S
C938 O955 1.257 . S
C939 C942 1.358 . S
C939 C943 1.332 . S
C939 C945 1.504 . S
C940 C941 1.373 . S
C940 C944 1.308 . S
C941 C940 1.373 . S
C941 C942 1.429 . S
C941 H968 0.932 . S
C942 C939 1.358 . S
C942 C941 1.429 . S
C942 H969 0.930 . S
C943 C939 1.332 . S
C943 C944 1.394 . S
C943 H970 0.932 . S
C944 C940 1.308 . S
C944 C943 1.394 . S
C944 H971 0.929 . S
C945 Tb936 2.764 1_655 S
C945 C939 1.504 . S
C945 O957 1.239 . S
C945 O958 1.263 . S
O946 Tb936 2.325 . S
O946 C956 1.236 . S
O947 Tb937 2.322 . S
O947 C956 1.257 . S
O948 Tb937 2.349 1_556 S
O948 C959 1.261 . S
O949 Tb936 2.303 . S
O949 C959 1.257 1_554 S
O950 Tb937 2.415 . S
O950 C966 1.239 . S
O951 Tb937 2.399 . S
O951 C966 1.263 . S
O952 Tb937 2.325 . S
O952 C967 1.236 . S
O953 Tb936 2.322 . S
O953 C967 1.257 . S
O954 Tb936 2.349 . S
O954 C938 1.261 . S
O955 Tb937 2.303 . S
O955 C938 1.257 . S
C956 O946 1.236 . S
C956 O947 1.257 . S
O957 Tb936 2.415 1_655 S
O957 C945 1.239 . S
O958 Tb936 2.399 1_655 S
O958 C945 1.263 . S
C959 O948 1.261 . S
C959 O949 1.257 1_556 S
C960 C963 1.358 1_554 S
C960 C964 1.332 . S
C960 C966 1.504 . S
C961 C962 1.373 1_554 S
C961 C965 1.308 . S
C962 C961 1.373 1_556 S
C962 C963 1.429 . S
C962 H972 0.932 . S
C963 C960 1.358 1_556 S
C963 C962 1.429 . S
C963 H973 0.930 . S
C964 C960 1.332 . S
C964 C965 1.394 . S
C964 H974 0.932 . S
C965 C961 1.308 . S
C965 C964 1.394 . S
C965 H975 0.929 . S
C966 Tb937 2.764 . S
C966 O950 1.239 . S
C966 O951 1.263 . S
C966 C960 1.504 . S
C967 O952 1.236 . S
C967 O953 1.257 . S
H968 C941 0.932 . S
H969 C942 0.930 . S
H970 C943 0.932 . S
H971 C944 0.929 . S
H972 C962 0.932 . S
H973 C963 0.930 . S
H974 C964 0.932 . S
H975 C965 0.929 . S
C976 C977 1.369 1_654 S
C976 C978 1.419 1_655 S
C976 H980 0.930 . S
C977 C976 1.369 1_456 S
C977 C986 1.429 1_556 S
C978 C976 1.419 1_455 S
C978 C979 1.363 . S
C978 H981 0.929 1_455 S
C979 C978 1.363 . S
C979 C985 1.428 . S
H980 C976 0.930 . S
H981 C978 0.929 1_655 S
S982 N983 1.613 1_554 S
S982 N984 1.610 . S
N983 S982 1.613 1_556 S
N983 C986 1.350 1_556 S
N984 S982 1.610 . S
N984 C985 1.351 . S
C985 C979 1.428 . S
C985 N984 1.351 . S
C985 C986 1.434 . S
C986 C977 1.429 1_554 S
C986 N983 1.350 1_554 S
C986 C985 1.434 . S
C987 C988 1.369 . S
C987 C989 1.419 . S
C987 H991 0.930 . S
C988 C987 1.369 . S
C988 C997 1.429 . S
C989 C987 1.419 . S
C989 C990 1.363 . S
C989 H992 0.929 . S
C990 C989 1.363 . S
C990 C996 1.428 . S
H991 C987 0.930 . S
H992 C989 0.929 . S
S993 N994 1.613 . S
S993 N995 1.610 . S
N994 S993 1.613 . S
N994 C997 1.350 . S
N995 S993 1.610 . S
N995 C996 1.351 . S
C996 C990 1.428 . S
C996 N995 1.351 . S
C996 C997 1.434 . S
C997 C988 1.429 . S
C997 N994 1.350 . S
C997 C996 1.434 . S
C998 C999 1.369 . S
C998 C1000 1.419 . S
C998 H1002 0.930 . S
C999 C998 1.369 . S
C999 C1008 1.429 . S
C1000 C998 1.419 . S
C1000 C1001 1.363 . S
C1000 H1003 0.929 . S
C1001 C1000 1.363 . S
C1001 C1007 1.428 . S
H1002 C998 0.930 . S
H1003 C1000 0.929 . S
S1004 N1005 1.613 . S
S1004 N1006 1.610 . S
N1005 S1004 1.613 . S
N1005 C1008 1.350 . S
N1006 S1004 1.610 . S
N1006 C1007 1.351 . S
C1007 C1001 1.428 . S
C1007 N1006 1.351 . S
C1007 C1008 1.434 . S
C1008 C999 1.429 . S
C1008 N1005 1.350 . S
C1008 C1007 1.434 . S
C1009 C1010 1.369 . S
C1009 C1011 1.419 . S
C1009 H1013 0.930 . S
C1010 C1009 1.369 . S
C1010 C1019 1.429 . S
C1011 C1009 1.419 . S
C1011 C1012 1.363 . S
C1011 H1014 0.929 . S
C1012 C1011 1.363 . S
C1012 C1018 1.428 . S
H1013 C1009 0.930 . S
H1014 C1011 0.929 . S
S1015 N1016 1.613 . S
S1015 N1017 1.610 . S
N1016 S1015 1.613 . S
N1016 C1019 1.350 . S
N1017 S1015 1.610 . S
N1017 C1018 1.351 . S
C1018 C1012 1.428 . S
C1018 N1017 1.351 . S
C1018 C1019 1.434 . S
C1019 C1010 1.429 . S
C1019 N1016 1.350 . S
C1019 C1018 1.434 . S
C1020 C1021 1.369 . S
C1020 C1022 1.419 . S
C1020 H1024 0.930 . S
C1021 C1020 1.369 . S
C1021 C1030 1.429 . S
C1022 C1020 1.419 . S
C1022 C1023 1.363 . S
C1022 H1025 0.929 . S
C1023 C1022 1.363 . S
C1023 C1029 1.428 . S
H1024 C1020 0.930 . S
H1025 C1022 0.929 . S
S1026 N1027 1.613 . S
S1026 N1028 1.607 1_565 S
N1027 S1026 1.613 . S
N1027 C1030 1.350 . S
N1028 S1026 1.607 1_545 S
N1028 C1029 1.346 1_545 S
C1029 C1023 1.428 . S
C1029 N1028 1.346 1_565 S
C1029 C1030 1.434 . S
C1030 C1021 1.429 . S
C1030 N1027 1.350 . S
C1030 C1029 1.434 . S
C1031 C1032 1.369 . S
C1031 C1033 1.419 . S
C1031 H1035 0.930 . S
C1032 C1031 1.369 . S
C1032 C1041 1.429 . S
C1033 C1031 1.419 . S
C1033 C1034 1.363 . S
C1033 H1036 0.929 . S
C1034 C1033 1.363 . S
C1034 C1040 1.428 . S
H1035 C1031 0.930 . S
H1036 C1033 0.929 . S
S1037 N1038 1.613 . S
S1037 N1039 1.610 . S
N1038 S1037 1.613 . S
N1038 C1041 1.350 . S
N1039 S1037 1.610 . S
N1039 C1040 1.351 . S
C1040 C1034 1.428 . S
C1040 N1039 1.351 . S
C1040 C1041 1.434 . S
C1041 C1032 1.429 . S
C1041 N1038 1.350 . S
C1041 C1040 1.434 . S
C1042 C1043 1.369 . S
C1042 C1044 1.419 . S
C1042 H1046 0.930 . S
C1043 C1042 1.369 . S
C1043 C1052 1.429 . S
C1044 C1042 1.419 . S
C1044 C1045 1.363 . S
C1044 H1047 0.929 . S
C1045 C1044 1.363 . S
C1045 C1051 1.428 . S
H1046 C1042 0.930 . S
H1047 C1044 0.929 . S
S1048 N1049 1.613 . S
S1048 N1050 1.610 . S
N1049 S1048 1.613 . S
N1049 C1052 1.350 . S
N1050 S1048 1.610 . S
N1050 C1051 1.351 . S
C1051 C1045 1.428 . S
C1051 N1050 1.351 . S
C1051 C1052 1.434 . S
C1052 C1043 1.429 . S
C1052 N1049 1.350 . S
C1052 C1051 1.434 . S
C1053 C1054 1.369 . S
C1053 C1055 1.419 . S
C1053 H1057 0.930 . S
C1054 C1053 1.369 . S
C1054 C1063 1.429 . S
C1055 C1053 1.419 . S
C1055 C1056 1.363 . S
C1055 H1058 0.929 . S
C1056 C1055 1.363 . S
C1056 C1062 1.428 . S
H1057 C1053 0.930 . S
H1058 C1055 0.929 . S
S1059 N1060 1.613 . S
S1059 N1061 1.610 . S
N1060 S1059 1.613 . S
N1060 C1063 1.350 . S
N1061 S1059 1.610 . S
N1061 C1062 1.351 . S
C1062 C1056 1.428 . S
C1062 N1061 1.351 . S
C1062 C1063 1.434 . S
C1063 C1054 1.429 . S
C1063 N1060 1.350 . S
C1063 C1062 1.434 . S
C1064 C1065 1.369 . S
C1064 C1066 1.419 1_655 S
C1064 H1068 0.931 1_655 S
C1065 C1064 1.369 . S
C1065 C1074 1.429 . S
C1066 C1064 1.419 1_455 S
C1066 C1067 1.363 . S
C1066 H1069 0.929 . S
C1067 C1066 1.363 . S
C1067 C1073 1.428 1_455 S
H1068 C1064 0.931 1_455 S
H1069 C1066 0.929 . S
S1070 N1071 1.613 . S
S1070 N1072 1.610 1_565 S
N1071 S1070 1.613 . S
N1071 C1074 1.350 1_565 S
N1072 S1070 1.610 1_545 S
N1072 C1073 1.351 . S
C1073 C1067 1.428 1_655 S
C1073 N1072 1.351 . S
C1073 C1074 1.434 . S
C1074 C1065 1.429 . S
C1074 N1071 1.350 1_545 S
C1074 C1073 1.434 . S
C1075 C1076 1.369 . S
C1075 C1077 1.419 . S
C1075 H1079 0.930 . S
C1076 C1075 1.369 . S
C1076 C1085 1.429 . S
C1077 C1075 1.419 . S
C1077 C1078 1.363 . S
C1077 H1080 0.929 . S
C1078 C1077 1.363 . S
C1078 C1084 1.428 . S
H1079 C1075 0.930 . S
H1080 C1077 0.929 . S
S1081 N1082 1.613 . S
S1081 N1083 1.610 . S
N1082 S1081 1.613 . S
N1082 C1085 1.350 . S
N1083 S1081 1.610 . S
N1083 C1084 1.351 . S
C1084 C1078 1.428 . S
C1084 N1083 1.351 . S
C1084 C1085 1.434 . S
C1085 C1076 1.429 . S
C1085 N1082 1.350 . S
C1085 C1084 1.434 . S
C1086 C1087 1.369 . S
C1086 C1088 1.419 . S
C1086 H1090 0.930 . S
C1087 C1086 1.369 . S
C1087 C1096 1.429 . S
C1088 C1086 1.419 . S
C1088 C1089 1.363 . S
C1088 H1091 0.929 . S
C1089 C1088 1.363 . S
C1089 C1095 1.428 . S
H1090 C1086 0.930 . S
H1091 C1088 0.929 . S
S1092 N1093 1.613 . S
S1092 N1094 1.610 . S
N1093 S1092 1.613 . S
N1093 C1096 1.350 . S
N1094 S1092 1.610 . S
N1094 C1095 1.351 . S
C1095 C1089 1.428 . S
C1095 N1094 1.351 . S
C1095 C1096 1.434 . S
C1096 C1087 1.429 . S
C1096 N1093 1.350 . S
C1096 C1095 1.434 . S
C1097 C1098 1.369 . S
C1097 C1099 1.419 . S
C1097 H1101 0.930 . S
C1098 C1097 1.369 . S
C1098 C1107 1.429 . S
C1099 C1097 1.419 . S
C1099 C1100 1.363 . S
C1099 H1102 0.929 . S
C1100 C1099 1.363 . S
C1100 C1106 1.428 . S
H1101 C1097 0.930 . S
H1102 C1099 0.929 . S
S1103 N1104 1.613 . S
S1103 N1105 1.610 . S
N1104 S1103 1.613 . S
N1104 C1107 1.350 . S
N1105 S1103 1.610 . S
N1105 C1106 1.351 . S
C1106 C1100 1.428 . S
C1106 N1105 1.351 . S
C1106 C1107 1.434 . S
C1107 C1098 1.429 . S
C1107 N1104 1.350 . S
C1107 C1106 1.434 . S
C1108 C1109 1.369 1_565 S
C1108 C1110 1.419 . S
C1108 H1112 0.930 . S
C1109 C1108 1.369 1_545 S
C1109 C1118 1.429 . S
C1110 C1108 1.419 . S
C1110 C1111 1.363 1_565 S
C1110 H1113 0.929 1_655 S
C1111 C1110 1.363 1_545 S
C1111 C1117 1.428 . S
H1112 C1108 0.930 . S
H1113 C1110 0.929 1_455 S
S1114 N1115 1.613 . S
S1114 N1116 1.610 . S
N1115 S1114 1.613 . S
N1115 C1118 1.350 . S
N1116 S1114 1.610 . S
N1116 C1117 1.351 . S
C1117 C1111 1.428 . S
C1117 N1116 1.351 . S
C1117 C1118 1.434 . S
C1118 C1109 1.429 . S
C1118 N1115 1.350 . S
C1118 C1117 1.434 . S
C1119 C1120 1.369 . S
C1119 C1121 1.419 . S
C1119 H1123 0.930 . S
C1120 C1119 1.369 . S
C1120 C1129 1.429 . S
C1121 C1119 1.419 . S
C1121 C1122 1.363 . S
C1121 H1124 0.929 . S
C1122 C1121 1.363 . S
C1122 C1128 1.428 . S
H1123 C1119 0.930 . S
H1124 C1121 0.929 . S
S1125 N1126 1.613 . S
S1125 N1127 1.610 . S
N1126 S1125 1.613 . S
N1126 C1129 1.350 . S
N1127 S1125 1.610 . S
N1127 C1128 1.351 . S
C1128 C1122 1.428 . S
C1128 N1127 1.351 . S
C1128 C1129 1.434 . S
C1129 C1120 1.429 . S
C1129 N1126 1.350 . S
C1129 C1128 1.434 . S
C1130 C1131 1.369 . S
C1130 C1132 1.419 . S
C1130 H1134 0.930 . S
C1131 C1130 1.369 . S
C1131 C1140 1.429 . S
C1132 C1130 1.419 . S
C1132 C1133 1.363 . S
C1132 H1135 0.929 . S
C1133 C1132 1.363 . S
C1133 C1139 1.428 . S
H1134 C1130 0.930 . S
H1135 C1132 0.929 . S
S1136 N1137 1.613 . S
S1136 N1138 1.610 . S
N1137 S1136 1.613 . S
N1137 C1140 1.350 . S
N1138 S1136 1.610 . S
N1138 C1139 1.351 . S
C1139 C1133 1.428 . S
C1139 N1138 1.351 . S
C1139 C1140 1.434 . S
C1140 C1131 1.429 . S
C1140 N1137 1.350 . S
C1140 C1139 1.434 . S
C1141 C1142 1.369 . S
C1141 C1143 1.419 . S
C1141 H1145 0.930 . S
C1142 C1141 1.369 . S
C1142 C1151 1.429 . S
C1143 C1141 1.419 . S
C1143 C1144 1.363 . S
C1143 H1146 0.929 . S
C1144 C1143 1.363 . S
C1144 C1150 1.428 . S
H1145 C1141 0.930 . S
H1146 C1143 0.929 . S
S1147 N1148 1.613 . S
S1147 N1149 1.610 . S
N1148 S1147 1.613 . S
N1148 C1151 1.350 . S
N1149 S1147 1.610 . S
N1149 C1150 1.351 . S
C1150 C1144 1.428 . S
C1150 N1149 1.351 . S
C1150 C1151 1.434 . S
C1151 C1142 1.429 . S
C1151 N1148 1.350 . S
C1151 C1150 1.434 . S
C1152 C1153 1.369 . S
C1152 C1154 1.419 . S
C1152 H1156 0.930 . S
C1153 C1152 1.369 . S
C1153 C1162 1.429 . S
C1154 C1152 1.419 . S
C1154 C1155 1.363 . S
C1154 H1157 0.929 . S
C1155 C1154 1.363 . S
C1155 C1161 1.428 . S
H1156 C1152 0.930 . S
H1157 C1154 0.929 . S
S1158 N1159 1.613 . S
S1158 N1160 1.610 1_565 S
N1159 S1158 1.613 . S
N1159 C1162 1.350 1_565 S
N1160 S1158 1.610 1_545 S
N1160 C1161 1.351 . S
C1161 C1155 1.428 . S
C1161 N1160 1.351 . S
C1161 C1162 1.434 . S
C1162 C1153 1.429 . S
C1162 N1159 1.350 1_545 S
C1162 C1161 1.434 . S
C1163 C1164 1.369 . S
C1163 C1165 1.419 . S
C1163 H1167 0.930 1_554 S
C1164 C1163 1.369 . S
C1164 C1173 1.429 . S
C1165 C1163 1.419 . S
C1165 C1166 1.363 . S
C1165 H1168 0.929 1_554 S
C1166 C1165 1.363 . S
C1166 C1172 1.428 . S
H1167 C1163 0.930 1_556 S
H1168 C1165 0.929 1_556 S
S1169 N1170 1.613 . S
S1169 N1171 1.610 . S
N1170 S1169 1.613 . S
N1170 C1173 1.350 . S
N1171 S1169 1.610 . S
N1171 C1172 1.351 . S
C1172 C1166 1.428 . S
C1172 N1171 1.351 . S
C1172 C1173 1.434 . S
C1173 C1164 1.429 . S
C1173 N1170 1.350 . S
C1173 C1172 1.434 . S
C1174 C1175 1.369 . S
C1174 C1176 1.419 . S
C1174 H1178 0.930 . S
C1175 C1174 1.369 . S
C1175 C1184 1.429 . S
C1176 C1174 1.419 . S
C1176 C1177 1.363 . S
C1176 H1179 0.929 . S
C1177 C1176 1.363 . S
C1177 C1183 1.428 . S
H1178 C1174 0.930 . S
H1179 C1176 0.929 . S
S1180 N1181 1.613 . S
S1180 N1182 1.610 . S
N1181 S1180 1.613 . S
N1181 C1184 1.350 . S
N1182 S1180 1.610 . S
N1182 C1183 1.351 . S
C1183 C1177 1.428 . S
C1183 N1182 1.351 . S
C1183 C1184 1.434 . S
C1184 C1175 1.429 . S
C1184 N1181 1.350 . S
C1184 C1183 1.434 . S
C1185 C1186 1.369 . S
C1185 C1187 1.419 . S
C1185 H1189 0.930 . S
C1186 C1185 1.369 . S
C1186 C1195 1.429 . S
C1187 C1185 1.419 . S
C1187 C1188 1.363 . S
C1187 H1190 0.929 . S
C1188 C1187 1.363 . S
C1188 C1194 1.428 . S
H1189 C1185 0.930 . S
H1190 C1187 0.929 . S
S1191 N1192 1.613 . S
S1191 N1193 1.610 . S
N1192 S1191 1.613 . S
N1192 C1195 1.350 . S
N1193 S1191 1.610 . S
N1193 C1194 1.351 . S
C1194 C1188 1.428 . S
C1194 N1193 1.351 . S
C1194 C1195 1.434 . S
C1195 C1186 1.429 . S
C1195 N1192 1.350 . S
C1195 C1194 1.434 . S
C1196 C1197 1.369 . S
C1196 C1198 1.419 . S
C1196 H1200 0.930 . S
C1197 C1196 1.369 . S
C1197 C1206 1.429 . S
C1198 C1196 1.419 . S
C1198 C1199 1.363 . S
C1198 H1201 0.929 . S
C1199 C1198 1.363 . S
C1199 C1205 1.428 . S
H1200 C1196 0.930 . S
H1201 C1198 0.929 . S
S1202 N1203 1.613 . S
S1202 N1204 1.610 . S
N1203 S1202 1.613 . S
N1203 C1206 1.350 . S
N1204 S1202 1.610 . S
N1204 C1205 1.351 . S
C1205 C1199 1.428 . S
C1205 N1204 1.351 . S
C1205 C1206 1.434 . S
C1206 C1197 1.429 . S
C1206 N1203 1.350 . S
C1206 C1205 1.434 . S
C1207 C1208 1.369 . S
C1207 C1209 1.419 . S
C1207 H1211 0.930 . S
C1208 C1207 1.369 . S
C1208 C1217 1.429 . S
C1209 C1207 1.419 . S
C1209 C1210 1.363 . S
C1209 H1212 0.929 . S
C1210 C1209 1.363 . S
C1210 C1216 1.428 . S
H1211 C1207 0.930 . S
H1212 C1209 0.929 . S
S1213 N1214 1.613 . S
S1213 N1215 1.610 . S
N1214 S1213 1.613 . S
N1214 C1217 1.350 . S
N1215 S1213 1.610 . S
N1215 C1216 1.351 . S
C1216 C1210 1.428 . S
C1216 N1215 1.351 . S
C1216 C1217 1.434 . S
C1217 C1208 1.429 . S
C1217 N1214 1.350 . S
C1217 C1216 1.434 . S
C1218 C1219 1.369 . S
C1218 C1220 1.419 . S
C1218 H1222 0.930 . S
C1219 C1218 1.369 . S
C1219 C1228 1.429 . S
C1220 C1218 1.419 . S
C1220 C1221 1.363 . S
C1220 H1223 0.929 . S
C1221 C1220 1.363 . S
C1221 C1227 1.428 . S
H1222 C1218 0.930 . S
H1223 C1220 0.929 . S
S1224 N1225 1.613 . S
S1224 N1226 1.610 . S
N1225 S1224 1.613 . S
N1225 C1228 1.350 . S
N1226 S1224 1.610 . S
N1226 C1227 1.351 . S
C1227 C1221 1.428 . S
C1227 N1226 1.351 . S
C1227 C1228 1.434 . S
C1228 C1219 1.429 . S
C1228 N1225 1.350 . S
C1228 C1227 1.434 . S
C1229 C1230 1.369 . S
C1229 C1231 1.419 . S
C1229 H1233 0.930 . S
C1230 C1229 1.369 . S
C1230 C1239 1.429 . S
C1231 C1229 1.419 . S
C1231 C1232 1.363 . S
C1231 H1234 0.929 . S
C1232 C1231 1.363 . S
C1232 C1238 1.428 . S
H1233 C1229 0.930 . S
H1234 C1231 0.929 . S
S1235 N1236 1.613 . S
S1235 N1237 1.610 . S
N1236 S1235 1.613 . S
N1236 C1239 1.350 . S
N1237 S1235 1.610 . S
N1237 C1238 1.351 . S
C1238 C1232 1.428 . S
C1238 N1237 1.351 . S
C1238 C1239 1.434 . S
C1239 C1230 1.429 . S
C1239 N1236 1.350 . S
C1239 C1238 1.434 . S
C1240 C1241 1.369 . S
C1240 C1242 1.419 . S
C1240 H1244 0.930 . S
C1241 C1240 1.369 . S
C1241 C1250 1.429 . S
C1242 C1240 1.419 . S
C1242 C1243 1.363 . S
C1242 H1245 0.929 . S
C1243 C1242 1.363 . S
C1243 C1249 1.428 . S
H1244 C1240 0.930 . S
H1245 C1242 0.929 . S
S1246 N1247 1.613 1_545 S
S1246 N1248 1.610 . S
N1247 S1246 1.613 1_565 S
N1247 C1250 1.350 . S
N1248 S1246 1.610 . S
N1248 C1249 1.351 1_545 S
C1249 C1243 1.428 . S
C1249 N1248 1.351 1_565 S
C1249 C1250 1.434 . S
C1250 C1241 1.429 . S
C1250 N1247 1.350 . S
C1250 C1249 1.434 . S
C1251 C1252 1.369 . S
C1251 C1253 1.419 . S
C1251 H1255 0.930 . S
C1252 C1251 1.369 . S
C1252 C1261 1.429 . S
C1253 C1251 1.419 . S
C1253 C1254 1.363 . S
C1253 H1256 0.929 . S
C1254 C1253 1.363 . S
C1254 C1260 1.428 . S
H1255 C1251 0.930 . S
H1256 C1253 0.929 . S
S1257 N1258 1.613 . S
S1257 N1259 1.610 . S
N1258 S1257 1.613 . S
N1258 C1261 1.350 . S
N1259 S1257 1.610 . S
N1259 C1260 1.351 . S
C1260 C1254 1.428 . S
C1260 N1259 1.351 . S
C1260 C1261 1.434 . S
C1261 C1252 1.429 . S
C1261 N1258 1.350 . S
C1261 C1260 1.434 . S
C1262 C1263 1.369 . S
C1262 C1264 1.419 . S
C1262 H1266 0.930 . S
C1263 C1262 1.369 . S
C1263 C1272 1.429 . S
C1264 C1262 1.419 . S
C1264 C1265 1.363 . S
C1264 H1267 0.929 . S
C1265 C1264 1.363 . S
C1265 C1271 1.428 . S
H1266 C1262 0.930 . S
H1267 C1264 0.929 . S
S1268 N1269 1.613 . S
S1268 N1270 1.610 . S
N1269 S1268 1.613 . S
N1269 C1272 1.350 . S
N1270 S1268 1.610 . S
N1270 C1271 1.351 . S
C1271 C1265 1.428 . S
C1271 N1270 1.351 . S
C1271 C1272 1.434 . S
C1272 C1263 1.429 . S
C1272 N1269 1.350 . S
C1272 C1271 1.434 . S
C1273 C1274 1.369 . S
C1273 C1275 1.419 . S
C1273 H1277 0.930 . S
C1274 C1273 1.369 . S
C1274 C1283 1.429 . S
C1275 C1273 1.419 . S
C1275 C1276 1.363 . S
C1275 H1278 0.929 . S
C1276 C1275 1.363 . S
C1276 C1282 1.428 . S
H1277 C1273 0.930 . S
H1278 C1275 0.929 . S
S1279 N1280 1.613 . S
S1279 N1281 1.610 . S
N1280 S1279 1.613 . S
N1280 C1283 1.350 . S
N1281 S1279 1.610 . S
N1281 C1282 1.351 . S
C1282 C1276 1.428 . S
C1282 N1281 1.351 . S
C1282 C1283 1.434 . S
C1283 C1274 1.429 . S
C1283 N1280 1.350 . S
C1283 C1282 1.434 . S
C1284 C1285 1.369 . S
C1284 C1286 1.419 . S
C1284 H1288 0.930 . S
C1285 C1284 1.369 . S
C1285 C1294 1.429 . S
C1286 C1284 1.419 . S
C1286 C1287 1.363 . S
C1286 H1289 0.929 . S
C1287 C1286 1.363 . S
C1287 C1293 1.428 . S
H1288 C1284 0.930 . S
H1289 C1286 0.929 . S
S1290 N1291 1.613 1_655 S
S1290 N1292 1.610 1_655 S
N1291 S1290 1.613 1_455 S
N1291 C1294 1.350 . S
N1292 S1290 1.610 1_455 S
N1292 C1293 1.351 . S
C1293 C1287 1.428 . S
C1293 N1292 1.351 . S
C1293 C1294 1.434 . S
C1294 C1285 1.429 . S
C1294 N1291 1.350 . S
C1294 C1293 1.434 . S
C1295 C1296 1.369 . S
C1295 C1297 1.419 . S
C1295 H1299 0.930 . S
C1296 C1295 1.369 . S
C1296 C1305 1.429 . S
C1297 C1295 1.419 . S
C1297 C1298 1.363 . S
C1297 H1300 0.929 . S
C1298 C1297 1.363 . S
C1298 C1304 1.428 . S
H1299 C1295 0.930 . S
H1300 C1297 0.929 . S
S1301 N1302 1.613 . S
S1301 N1303 1.610 . S
N1302 S1301 1.613 . S
N1302 C1305 1.350 . S
N1303 S1301 1.610 . S
N1303 C1304 1.351 . S
C1304 C1298 1.428 . S
C1304 N1303 1.351 . S
C1304 C1305 1.434 . S
C1305 C1296 1.429 . S
C1305 N1302 1.350 . S
C1305 C1304 1.434 . S
C1306 C1307 1.369 . S
C1306 C1308 1.429 . S
C1306 H1310 0.930 . S
C1307 C1306 1.369 . S
C1307 C1316 1.429 . S
C1308 C1306 1.429 . S
C1308 C1309 1.376 . S
C1308 H1311 0.905 1_556 S
C1309 C1308 1.376 . S
C1309 C1315 1.428 . S
H1310 C1306 0.930 . S
H1311 C1308 0.905 1_554 S
S1312 N1313 1.613 . S
S1312 N1314 1.610 . S
N1313 S1312 1.613 . S
N1313 C1316 1.350 . S
N1314 S1312 1.610 . S
N1314 C1315 1.351 . S
C1315 C1309 1.428 . S
C1315 N1314 1.351 . S
C1315 C1316 1.434 . S
C1316 C1307 1.429 . S
C1316 N1313 1.350 . S
C1316 C1315 1.434 . S
C1317 C1318 1.369 . S
C1317 C1319 1.419 . S
C1317 H1321 0.930 . S
C1318 C1317 1.369 . S
C1318 C1327 1.429 . S
C1319 C1317 1.419 . S
C1319 C1320 1.363 . S
C1319 H1322 0.929 . S
C1320 C1319 1.363 . S
C1320 C1326 1.428 . S
H1321 C1317 0.930 . S
H1322 C1319 0.929 . S
S1323 N1324 1.613 . S
S1323 N1325 1.610 . S
N1324 S1323 1.613 . S
N1324 C1327 1.350 . S
N1325 S1323 1.610 . S
N1325 C1326 1.351 . S
C1326 C1320 1.428 . S
C1326 N1325 1.351 . S
C1326 C1327 1.434 . S
C1327 C1318 1.429 . S
C1327 N1324 1.350 . S
C1327 C1326 1.434 . S
C1328 C1329 1.369 . S
C1328 C1330 1.419 . S
C1328 H1332 0.930 . S
C1329 C1328 1.369 . S
C1329 C1338 1.429 . S
C1330 C1328 1.419 . S
C1330 C1331 1.363 . S
C1330 H1333 0.911 1_556 S
C1331 C1330 1.363 . S
C1331 C1337 1.428 . S
H1332 C1328 0.930 . S
H1333 C1330 0.911 1_554 S
S1334 N1335 1.613 . S
S1334 N1336 1.610 . S
N1335 S1334 1.613 . S
N1335 C1338 1.350 . S
N1336 S1334 1.610 . S
N1336 C1337 1.351 . S
C1337 C1331 1.428 . S
C1337 N1336 1.351 . S
C1337 C1338 1.434 . S
C1338 C1329 1.429 . S
C1338 N1335 1.350 . S
C1338 C1337 1.434 . S
C1339 C1340 1.369 . S
C1339 C1341 1.419 . S
C1339 H1343 0.930 . S
C1340 C1339 1.369 . S
C1340 C1349 1.429 . S
C1341 C1339 1.419 . S
C1341 C1342 1.363 . S
C1341 H1344 0.929 . S
C1342 C1341 1.363 . S
C1342 C1348 1.428 . S
H1343 C1339 0.930 . S
H1344 C1341 0.929 . S
S1345 N1346 1.613 . S
S1345 N1347 1.610 . S
N1346 S1345 1.613 . S
N1346 C1349 1.350 . S
N1347 S1345 1.610 . S
N1347 C1348 1.351 . S
C1348 C1342 1.428 . S
C1348 N1347 1.351 . S
C1348 C1349 1.434 . S
C1349 C1340 1.429 . S
C1349 N1346 1.350 . S
C1349 C1348 1.434 . S
C1350 C1351 1.369 . S
C1350 C1352 1.419 . S
C1350 H1354 0.930 1_545 S
C1351 C1350 1.369 . S
C1351 C1360 1.429 . S
C1352 C1350 1.419 . S
C1352 C1353 1.363 . S
C1352 H1355 0.929 . S
C1353 C1352 1.363 . S
C1353 C1359 1.428 . S
H1354 C1350 0.930 1_565 S
H1355 C1352 0.929 . S
S1356 N1357 1.613 . S
S1356 N1358 1.610 . S
N1357 S1356 1.613 . S
N1357 C1360 1.350 . S
N1358 S1356 1.610 . S
N1358 C1359 1.351 . S
C1359 C1353 1.428 . S
C1359 N1358 1.351 . S
C1359 C1360 1.434 . S
C1360 C1351 1.429 . S
C1360 N1357 1.350 . S
C1360 C1359 1.434 . S
C1361 C1362 1.369 . S
C1361 C1363 1.419 . S
C1361 H1365 0.930 . S
C1362 C1361 1.369 . S
C1362 C1371 1.429 . S
C1363 C1361 1.419 . S
C1363 C1364 1.363 . S
C1363 H1366 0.929 . S
C1364 C1363 1.363 . S
C1364 C1370 1.428 . S
H1365 C1361 0.930 . S
H1366 C1363 0.929 . S
S1367 N1368 1.613 . S
S1367 N1369 1.610 . S
N1368 S1367 1.613 . S
N1368 C1371 1.350 . S
N1369 S1367 1.610 . S
N1369 C1370 1.351 . S
C1370 C1364 1.428 . S
C1370 N1369 1.351 . S
C1370 C1371 1.434 . S
C1371 C1362 1.429 . S
C1371 N1368 1.350 . S
C1371 C1370 1.434 . S
C1372 C1373 1.369 . S
C1372 C1374 1.419 . S
C1372 H1376 0.930 . S
C1373 C1372 1.369 . S
C1373 C1382 1.429 . S
C1374 C1372 1.419 . S
C1374 C1375 1.363 . S
C1374 H1377 0.929 . S
C1375 C1374 1.363 . S
C1375 C1381 1.428 . S
H1376 C1372 0.930 . S
H1377 C1374 0.929 . S
S1378 N1379 1.613 . S
S1378 N1380 1.610 . S
N1379 S1378 1.613 . S
N1379 C1382 1.350 . S
N1380 S1378 1.610 . S
N1380 C1381 1.351 . S
C1381 C1375 1.428 . S
C1381 N1380 1.351 . S
C1381 C1382 1.434 . S
C1382 C1373 1.429 . S
C1382 N1379 1.350 . S
C1382 C1381 1.434 . S
C1383 C1384 1.369 . S
C1383 C1385 1.419 . S
C1383 H1387 0.930 . S
C1384 C1383 1.369 . S
C1384 C1393 1.429 . S
C1385 C1383 1.419 . S
C1385 C1386 1.363 . S
C1385 H1388 0.929 . S
C1386 C1385 1.363 . S
C1386 C1392 1.428 . S
H1387 C1383 0.930 . S
H1388 C1385 0.929 . S
S1389 N1390 1.613 . S
S1389 N1391 1.610 . S
N1390 S1389 1.613 . S
N1390 C1393 1.350 . S
N1391 S1389 1.610 . S
N1391 C1392 1.351 . S
C1392 C1386 1.428 . S
C1392 N1391 1.351 . S
C1392 C1393 1.434 . S
C1393 C1384 1.429 . S
C1393 N1390 1.350 . S
C1393 C1392 1.434 . S
C1394 C1395 1.369 . S
C1394 C1396 1.419 . S
C1394 H1398 0.930 . S
C1395 C1394 1.369 . S
C1395 C1404 1.429 . S
C1396 C1394 1.419 . S
C1396 C1397 1.363 . S
C1396 H1399 0.929 . S
C1397 C1396 1.363 . S
C1397 C1403 1.428 . S
H1398 C1394 0.930 . S
H1399 C1396 0.929 . S
S1400 N1401 1.613 . S
S1400 N1402 1.610 . S
N1401 S1400 1.613 . S
N1401 C1404 1.350 1_565 S
N1402 S1400 1.610 . S
N1402 C1403 1.351 1_565 S
C1403 C1397 1.428 . S
C1403 N1402 1.351 1_545 S
C1403 C1404 1.434 . S
C1404 C1395 1.429 . S
C1404 N1401 1.350 1_545 S
C1404 C1403 1.434 . S
C1405 C1406 1.369 . S
C1405 C1407 1.419 . S
C1405 H1409 0.930 . S
C1406 C1405 1.369 . S
C1406 C1415 1.429 . S
C1407 C1405 1.419 . S
C1407 C1408 1.363 . S
C1407 H1410 0.929 . S
C1408 C1407 1.363 . S
C1408 C1414 1.428 . S
H1409 C1405 0.930 . S
H1410 C1407 0.929 . S
S1411 N1412 1.613 . S
S1411 N1413 1.610 . S
N1412 S1411 1.613 . S
N1412 C1415 1.350 . S
N1413 S1411 1.610 . S
N1413 C1414 1.351 . S
C1414 C1408 1.428 . S
C1414 N1413 1.351 . S
C1414 C1415 1.434 . S
C1415 C1406 1.429 . S
C1415 N1412 1.350 . S
C1415 C1414 1.434 . S
C1416 C1417 1.369 . S
C1416 C1418 1.419 . S
C1416 H1420 0.930 . S
C1417 C1416 1.369 . S
C1417 C1426 1.429 . S
C1418 C1416 1.419 . S
C1418 C1419 1.363 . S
C1418 H1421 0.929 . S
C1419 C1418 1.363 . S
C1419 C1425 1.428 . S
H1420 C1416 0.930 . S
H1421 C1418 0.929 . S
S1422 N1423 1.613 . S
S1422 N1424 1.610 . S
N1423 S1422 1.613 . S
N1423 C1426 1.350 . S
N1424 S1422 1.610 . S
N1424 C1425 1.351 . S
C1425 C1419 1.428 . S
C1425 N1424 1.351 . S
C1425 C1426 1.434 . S
C1426 C1417 1.429 . S
C1426 N1423 1.350 . S
C1426 C1425 1.434 . S
C1427 C1428 1.369 . S
C1427 C1429 1.419 . S
C1427 H1431 0.930 . S
C1428 C1427 1.369 . S
C1428 C1437 1.429 . S
C1429 C1427 1.419 . S
C1429 C1430 1.363 . S
C1429 H1432 0.929 . S
C1430 C1429 1.363 . S
C1430 C1436 1.428 . S
H1431 C1427 0.930 . S
H1432 C1429 0.929 . S
S1433 N1434 1.613 . S
S1433 N1435 1.610 . S
N1434 S1433 1.613 . S
N1434 C1437 1.350 1_556 S
N1435 S1433 1.610 . S
N1435 C1436 1.351 1_556 S
C1436 C1430 1.428 . S
C1436 N1435 1.351 1_554 S
C1436 C1437 1.434 . S
C1437 C1428 1.429 . S
C1437 N1434 1.350 1_554 S
C1437 C1436 1.434 . S
C1438 C1439 1.369 . S
C1438 C1440 1.419 . S
C1438 H1442 0.930 . S
C1439 C1438 1.369 . S
C1439 C1448 1.429 . S
C1440 C1438 1.419 . S
C1440 C1441 1.363 . S
C1440 H1443 0.929 . S
C1441 C1440 1.363 . S
C1441 C1447 1.428 . S
H1442 C1438 0.930 . S
H1443 C1440 0.929 . S
S1444 N1445 1.613 . S
S1444 N1446 1.610 . S
N1445 S1444 1.613 . S
N1445 C1448 1.350 . S
N1446 S1444 1.610 . S
N1446 C1447 1.351 . S
C1447 C1441 1.428 . S
C1447 N1446 1.351 . S
C1447 C1448 1.434 . S
C1448 C1439 1.429 . S
C1448 N1445 1.350 . S
C1448 C1447 1.434 . S
C1449 C1450 1.369 . S
C1449 C1451 1.419 . S
C1449 H1453 0.930 . S
C1450 C1449 1.369 . S
C1450 C1459 1.429 . S
C1451 C1449 1.419 . S
C1451 C1452 1.363 . S
C1451 H1454 0.929 . S
C1452 C1451 1.363 . S
C1452 C1458 1.428 . S
H1453 C1449 0.930 . S
H1454 C1451 0.929 . S
S1455 N1456 1.613 . S
S1455 N1457 1.610 . S
N1456 S1455 1.613 . S
N1456 C1459 1.350 . S
N1457 S1455 1.610 . S
N1457 C1458 1.351 . S
C1458 C1452 1.428 . S
C1458 N1457 1.351 . S
C1458 C1459 1.434 . S
C1459 C1450 1.429 . S
C1459 N1456 1.350 . S
C1459 C1458 1.434 . S
C1460 C1461 1.369 1_565 S
C1460 C1462 1.419 . S
C1460 H1464 0.930 . S
C1461 C1460 1.369 1_545 S
C1461 C1470 1.429 . S
C1462 C1460 1.419 . S
C1462 C1463 1.363 . S
C1462 H1465 0.929 . S
C1463 C1462 1.363 . S
C1463 C1469 1.428 1_565 S
H1464 C1460 0.930 . S
H1465 C1462 0.929 . S
S1466 N1467 1.613 . S
S1466 N1468 1.610 . S
N1467 S1466 1.613 . S
N1467 C1470 1.350 . S
N1468 S1466 1.610 . S
N1468 C1469 1.351 . S
C1469 C1463 1.428 1_545 S
C1469 N1468 1.351 . S
C1469 C1470 1.434 . S
C1470 C1461 1.429 . S
C1470 N1467 1.350 . S
C1470 C1469 1.434 . S
C1471 C1472 1.369 . S
C1471 C1473 1.419 . S
C1471 H1475 0.930 . S
C1472 C1471 1.369 . S
C1472 C1481 1.429 . S
C1473 C1471 1.419 . S
C1473 C1474 1.363 . S
C1473 H1476 0.929 . S
C1474 C1473 1.363 . S
C1474 C1480 1.428 . S
H1475 C1471 0.930 . S
H1476 C1473 0.929 . S
S1477 N1478 1.613 1_545 S
S1477 N1479 1.610 . S
N1478 S1477 1.613 1_565 S
N1478 C1481 1.350 . S
N1479 S1477 1.610 . S
N1479 C1480 1.351 1_545 S
C1480 C1474 1.428 . S
C1480 N1479 1.351 1_565 S
C1480 C1481 1.434 . S
C1481 C1472 1.429 . S
C1481 N1478 1.350 . S
C1481 C1480 1.434 . S
C1482 C1483 1.369 . S
C1482 C1484 1.419 . S
C1482 H1486 0.930 . S
C1483 C1482 1.369 . S
C1483 C1492 1.429 . S
C1484 C1482 1.419 . S
C1484 C1485 1.363 . S
C1484 H1487 0.929 . S
C1485 C1484 1.363 . S
C1485 C1491 1.428 . S
H1486 C1482 0.930 . S
H1487 C1484 0.929 . S
S1488 N1489 1.613 . S
S1488 N1490 1.610 . S
N1489 S1488 1.613 . S
N1489 C1492 1.350 . S
N1490 S1488 1.610 . S
N1490 C1491 1.351 . S
C1491 C1485 1.428 . S
C1491 N1490 1.351 . S
C1491 C1492 1.434 . S
C1492 C1483 1.429 . S
C1492 N1489 1.350 . S
C1492 C1491 1.434 . S
C1493 C1494 1.369 . S
C1493 C1495 1.419 . S
C1493 H1497 0.930 . S
C1494 C1493 1.369 . S
C1494 C1503 1.429 . S
C1495 C1493 1.419 . S
C1495 C1496 1.363 . S
C1495 H1498 0.929 . S
C1496 C1495 1.363 . S
C1496 C1502 1.428 . S
H1497 C1493 0.930 . S
H1498 C1495 0.929 . S
S1499 N1500 1.613 . S
S1499 N1501 1.610 . S
N1500 S1499 1.613 . S
N1500 C1503 1.350 . S
N1501 S1499 1.610 . S
N1501 C1502 1.351 . S
C1502 C1496 1.428 . S
C1502 N1501 1.351 . S
C1502 C1503 1.434 . S
C1503 C1494 1.429 . S
C1503 N1500 1.350 . S
C1503 C1502 1.434 . S
C1504 C1505 1.369 . S
C1504 C1506 1.419 . S
C1504 H1508 0.930 . S
C1505 C1504 1.369 . S
C1505 C1514 1.429 . S
C1506 C1504 1.419 . S
C1506 C1507 1.363 . S
C1506 H1509 0.929 . S
C1507 C1506 1.363 . S
C1507 C1513 1.428 . S
H1508 C1504 0.930 . S
H1509 C1506 0.929 . S
S1510 N1511 1.613 . S
S1510 N1512 1.610 . S
N1511 S1510 1.613 . S
N1511 C1514 1.350 . S
N1512 S1510 1.610 . S
N1512 C1513 1.351 . S
C1513 C1507 1.428 . S
C1513 N1512 1.351 . S
C1513 C1514 1.434 . S
C1514 C1505 1.429 . S
C1514 N1511 1.350 . S
C1514 C1513 1.434 . S
C1515 C1516 1.369 . S
C1515 C1517 1.419 . S
C1515 H1519 0.930 . S
C1516 C1515 1.369 . S
C1516 C1525 1.429 . S
C1517 C1515 1.419 . S
C1517 C1518 1.363 . S
C1517 H1520 0.929 . S
C1518 C1517 1.363 . S
C1518 C1524 1.428 . S
H1519 C1515 0.930 . S
H1520 C1517 0.929 . S
S1521 N1522 1.613 . S
S1521 N1523 1.610 . S
N1522 S1521 1.613 . S
N1522 C1525 1.350 . S
N1523 S1521 1.610 . S
N1523 C1524 1.351 . S
C1524 C1518 1.428 . S
C1524 N1523 1.351 . S
C1524 C1525 1.434 . S
C1525 C1516 1.429 . S
C1525 N1522 1.350 . S
C1525 C1524 1.434 . S
C1526 C1527 1.369 1_655 S
C1526 C1528 1.419 1_656 S
C1526 H1530 0.930 . S
C1527 C1526 1.369 1_455 S
C1527 C1536 1.429 1_556 S
C1528 C1526 1.419 1_454 S
C1528 C1529 1.363 . S
C1528 H1531 0.929 1_455 S
C1529 C1528 1.363 . S
C1529 C1535 1.428 . S
H1530 C1526 0.930 . S
H1531 C1528 0.929 1_655 S
S1532 N1533 1.613 . S
S1532 N1534 1.610 . S
N1533 S1532 1.613 . S
N1533 C1536 1.350 . S
N1534 S1532 1.610 . S
N1534 C1535 1.351 . S
C1535 C1529 1.428 . S
C1535 N1534 1.351 . S
C1535 C1536 1.434 . S
C1536 C1527 1.429 1_554 S
C1536 N1533 1.350 . S
C1536 C1535 1.434 . S
C1537 C1538 1.369 . S
C1537 C1539 1.419 . S
C1537 H1541 0.930 . S
C1538 C1537 1.369 . S
C1538 C1547 1.429 . S
C1539 C1537 1.419 . S
C1539 C1540 1.363 1_455 S
C1539 H1542 0.929 . S
C1540 C1539 1.363 1_655 S
C1540 C1546 1.428 . S
H1541 C1537 0.930 . S
H1542 C1539 0.929 . S
S1543 N1544 1.613 1_655 S
S1543 N1545 1.610 . S
N1544 S1543 1.613 1_455 S
N1544 C1547 1.350 . S
N1545 S1543 1.610 . S
N1545 C1546 1.351 . S
C1546 C1540 1.428 . S
C1546 N1545 1.351 . S
C1546 C1547 1.434 1_655 S
C1547 C1538 1.429 . S
C1547 N1544 1.350 . S
C1547 C1546 1.434 1_455 S
C1548 C1549 1.369 . S
C1548 C1550 1.419 . S
C1548 H1552 0.930 . S
C1549 C1548 1.369 . S
C1549 C1558 1.429 . S
C1550 C1548 1.419 . S
C1550 C1551 1.363 . S
C1550 H1553 0.929 . S
C1551 C1550 1.363 . S
C1551 C1557 1.428 . S
H1552 C1548 0.930 . S
H1553 C1550 0.929 . S
S1554 N1555 1.613 . S
S1554 N1556 1.610 . S
N1555 S1554 1.613 . S
N1555 C1558 1.350 . S
N1556 S1554 1.610 . S
N1556 C1557 1.351 . S
C1557 C1551 1.428 . S
C1557 N1556 1.351 . S
C1557 C1558 1.434 . S
C1558 C1549 1.429 . S
C1558 N1555 1.350 . S
C1558 C1557 1.434 . S
C1559 C1560 1.369 . S
C1559 C1561 1.419 . S
C1559 H1563 0.930 . S
C1560 C1559 1.369 . S
C1560 C1569 1.429 . S
C1561 C1559 1.419 . S
C1561 C1562 1.363 . S
C1561 H1564 0.929 . S
C1562 C1561 1.363 . S
C1562 C1568 1.428 . S
H1563 C1559 0.930 . S
H1564 C1561 0.929 . S
S1565 N1566 1.613 . S
S1565 N1567 1.610 . S
N1566 S1565 1.613 . S
N1566 C1569 1.350 . S
N1567 S1565 1.610 . S
N1567 C1568 1.351 . S
C1568 C1562 1.428 . S
C1568 N1567 1.351 . S
C1568 C1569 1.434 . S
C1569 C1560 1.429 . S
C1569 N1566 1.350 . S
C1569 C1568 1.434 . S
C1570 C1571 1.369 . S
C1570 C1572 1.419 . S
C1570 H1574 0.930 . S
C1571 C1570 1.369 . S
C1571 C1580 1.429 . S
C1572 C1570 1.419 . S
C1572 C1573 1.363 . S
C1572 H1575 0.929 . S
C1573 C1572 1.363 . S
C1573 C1579 1.428 . S
H1574 C1570 0.930 . S
H1575 C1572 0.929 . S
S1576 N1577 1.613 . S
S1576 N1578 1.610 . S
N1577 S1576 1.613 . S
N1577 C1580 1.350 1_655 S
N1578 S1576 1.610 . S
N1578 C1579 1.351 1_655 S
C1579 C1573 1.428 . S
C1579 N1578 1.351 1_455 S
C1579 C1580 1.434 . S
C1580 C1571 1.429 . S
C1580 N1577 1.350 1_455 S
C1580 C1579 1.434 . S
C1581 C1582 1.369 . S
C1581 C1583 1.419 . S
C1581 H1585 0.930 . S
C1582 C1581 1.369 . S
C1582 C1591 1.429 . S
C1583 C1581 1.419 . S
C1583 C1584 1.363 . S
C1583 H1586 0.929 . S
C1584 C1583 1.363 . S
C1584 C1590 1.428 . S
H1585 C1581 0.930 . S
H1586 C1583 0.929 . S
S1587 N1588 1.613 . S
S1587 N1589 1.610 . S
N1588 S1587 1.613 . S
N1588 C1591 1.350 . S
N1589 S1587 1.610 . S
N1589 C1590 1.351 . S
C1590 C1584 1.428 . S
C1590 N1589 1.351 . S
C1590 C1591 1.434 . S
C1591 C1582 1.429 . S
C1591 N1588 1.350 . S
C1591 C1590 1.434 . S
C1592 C1593 1.369 . S
C1592 C1594 1.419 . S
C1592 H1596 0.930 . S
C1593 C1592 1.369 . S
C1593 C1602 1.429 . S
C1594 C1592 1.419 . S
C1594 C1595 1.363 . S
C1594 H1597 0.929 . S
C1595 C1594 1.363 . S
C1595 C1601 1.428 . S
H1596 C1592 0.930 . S
H1597 C1594 0.929 . S
S1598 N1599 1.613 . S
S1598 N1600 1.610 . S
N1599 S1598 1.613 . S
N1599 C1602 1.350 . S
N1600 S1598 1.610 . S
N1600 C1601 1.351 . S
C1601 C1595 1.428 . S
C1601 N1600 1.351 . S
C1601 C1602 1.434 . S
C1602 C1593 1.429 . S
C1602 N1599 1.350 . S
C1602 C1601 1.434 . S
C1603 C1604 1.369 . S
C1603 C1605 1.419 1_554 S
C1603 H1607 0.930 . S
C1604 C1603 1.369 . S
C1604 C1613 1.429 . S
C1605 C1603 1.419 1_556 S
C1605 C1606 1.363 . S
C1605 H1608 0.929 . S
C1606 C1605 1.363 . S
C1606 C1612 1.428 . S
H1607 C1603 0.930 . S
H1608 C1605 0.929 . S
S1609 N1610 1.613 1_556 S
S1609 N1611 1.610 . S
N1610 S1609 1.613 1_554 S
N1610 C1613 1.350 . S
N1611 S1609 1.610 . S
N1611 C1612 1.351 . S
C1612 C1606 1.428 . S
C1612 N1611 1.351 . S
C1612 C1613 1.434 1_556 S
C1613 C1604 1.429 . S
C1613 N1610 1.350 . S
C1613 C1612 1.434 1_554 S
C1614 C1615 1.369 . S
C1614 C1616 1.419 . S
C1614 H1618 0.930 . S
C1615 C1614 1.369 . S
C1615 C1624 1.429 . S
C1616 C1614 1.419 . S
C1616 C1617 1.363 . S
C1616 H1619 0.929 . S
C1617 C1616 1.363 . S
C1617 C1623 1.428 . S
H1618 C1614 0.930 . S
H1619 C1616 0.929 . S
S1620 N1621 1.613 . S
S1620 N1622 1.610 . S
N1621 S1620 1.613 . S
N1621 C1624 1.350 . S
N1622 S1620 1.610 . S
N1622 C1623 1.351 . S
C1623 C1617 1.428 . S
C1623 N1622 1.351 . S
C1623 C1624 1.434 . S
C1624 C1615 1.429 . S
C1624 N1621 1.350 . S
C1624 C1623 1.434 . S
C1625 C1626 1.369 . S
C1625 C1627 1.419 . S
C1625 H1629 0.930 . S
C1626 C1625 1.369 . S
C1626 C1635 1.429 . S
C1627 C1625 1.419 . S
C1627 C1628 1.363 . S
C1627 H1630 0.929 . S
C1628 C1627 1.363 . S
C1628 C1634 1.428 . S
H1629 C1625 0.930 . S
H1630 C1627 0.929 . S
S1631 N1632 1.613 . S
S1631 N1633 1.610 . S
N1632 S1631 1.613 . S
N1632 C1635 1.350 . S
N1633 S1631 1.610 . S
N1633 C1634 1.351 . S
C1634 C1628 1.428 . S
C1634 N1633 1.351 . S
C1634 C1635 1.434 . S
C1635 C1626 1.429 . S
C1635 N1632 1.350 . S
C1635 C1634 1.434 . S
C1636 C1637 1.369 . S
C1636 C1638 1.419 . S
C1636 H1640 0.930 . S
C1637 C1636 1.369 . S
C1637 C1646 1.429 . S
C1638 C1636 1.419 . S
C1638 C1639 1.363 . S
C1638 H1641 0.929 . S
C1639 C1638 1.363 . S
C1639 C1645 1.428 . S
H1640 C1636 0.930 . S
H1641 C1638 0.929 . S
S1642 N1643 1.613 . S
S1642 N1644 1.610 . S
N1643 S1642 1.613 . S
N1643 C1646 1.350 . S
N1644 S1642 1.610 . S
N1644 C1645 1.351 . S
C1645 C1639 1.428 . S
C1645 N1644 1.351 . S
C1645 C1646 1.434 . S
C1646 C1637 1.429 . S
C1646 N1643 1.350 . S
C1646 C1645 1.434 . S
C1647 C1648 1.369 . S
C1647 C1649 1.419 . S
C1647 H1651 0.930 . S
C1648 C1647 1.369 . S
C1648 C1657 1.429 . S
C1649 C1647 1.419 . S
C1649 C1650 1.363 . S
C1649 H1652 0.929 . S
C1650 C1649 1.363 . S
C1650 C1656 1.428 . S
H1651 C1647 0.930 . S
H1652 C1649 0.929 . S
S1653 N1654 1.613 . S
S1653 N1655 1.610 . S
N1654 S1653 1.613 . S
N1654 C1657 1.350 . S
N1655 S1653 1.610 . S
N1655 C1656 1.351 . S
C1656 C1650 1.428 . S
C1656 N1655 1.351 . S
C1656 C1657 1.434 . S
C1657 C1648 1.429 . S
C1657 N1654 1.350 . S
C1657 C1656 1.434 . S
C1658 C1659 1.369 . S
C1658 C1660 1.419 . S
C1658 H1662 0.930 . S
C1659 C1658 1.369 . S
C1659 C1668 1.429 . S
C1660 C1658 1.419 . S
C1660 C1661 1.363 . S
C1660 H1663 0.929 . S
C1661 C1660 1.363 . S
C1661 C1667 1.428 . S
H1662 C1658 0.930 . S
H1663 C1660 0.929 . S
S1664 N1665 1.613 . S
S1664 N1666 1.610 . S
N1665 S1664 1.613 . S
N1665 C1668 1.350 . S
N1666 S1664 1.610 . S
N1666 C1667 1.351 . S
C1667 C1661 1.428 . S
C1667 N1666 1.351 . S
C1667 C1668 1.434 . S
C1668 C1659 1.429 . S
C1668 N1665 1.350 . S
C1668 C1667 1.434 . S
C1669 C1670 1.369 . S
C1669 C1671 1.419 . S
C1669 H1673 0.930 . S
C1670 C1669 1.369 . S
C1670 C1679 1.429 . S
C1671 C1669 1.419 . S
C1671 C1672 1.363 . S
C1671 H1674 0.929 . S
C1672 C1671 1.363 . S
C1672 C1678 1.428 . S
H1673 C1669 0.930 . S
H1674 C1671 0.929 . S
S1675 N1676 1.613 . S
S1675 N1677 1.610 . S
N1676 S1675 1.613 . S
N1676 C1679 1.350 . S
N1677 S1675 1.610 . S
N1677 C1678 1.351 . S
C1678 C1672 1.428 . S
C1678 N1677 1.351 . S
C1678 C1679 1.434 . S
C1679 C1670 1.429 . S
C1679 N1676 1.350 . S
C1679 C1678 1.434 . S
C1680 C1681 1.369 . S
C1680 C1682 1.419 . S
C1680 H1684 0.930 . S
C1681 C1680 1.369 . S
C1681 C1690 1.429 . S
C1682 C1680 1.419 . S
C1682 C1683 1.363 . S
C1682 H1685 0.929 . S
C1683 C1682 1.363 . S
C1683 C1689 1.428 . S
H1684 C1680 0.930 . S
H1685 C1682 0.929 . S
S1686 N1687 1.613 . S
S1686 N1688 1.610 . S
N1687 S1686 1.613 . S
N1687 C1690 1.350 . S
N1688 S1686 1.610 . S
N1688 C1689 1.351 . S
C1689 C1683 1.428 . S
C1689 N1688 1.351 . S
C1689 C1690 1.434 . S
C1690 C1681 1.429 . S
C1690 N1687 1.350 . S
C1690 C1689 1.434 . S
C1691 C1692 1.369 . S
C1691 C1693 1.419 . S
C1691 H1695 0.930 . S
C1692 C1691 1.369 . S
C1692 C1701 1.429 . S
C1693 C1691 1.419 . S
C1693 C1694 1.363 . S
C1693 H1696 0.929 . S
C1694 C1693 1.363 . S
C1694 C1700 1.428 . S
H1695 C1691 0.930 . S
H1696 C1693 0.929 . S
S1697 N1698 1.613 . S
S1697 N1699 1.610 . S
N1698 S1697 1.613 . S
N1698 C1701 1.350 . S
N1699 S1697 1.610 . S
N1699 C1700 1.351 . S
C1700 C1694 1.428 . S
C1700 N1699 1.351 . S
C1700 C1701 1.434 . S
C1701 C1692 1.429 . S
C1701 N1698 1.350 . S
C1701 C1700 1.434 . S
C1702 C1703 1.369 . S
C1702 C1704 1.419 . S
C1702 H1706 0.930 . S
C1703 C1702 1.369 . S
C1703 C1712 1.429 . S
C1704 C1702 1.419 . S
C1704 C1705 1.363 . S
C1704 H1707 0.929 . S
C1705 C1704 1.363 . S
C1705 C1711 1.428 . S
H1706 C1702 0.930 . S
H1707 C1704 0.929 . S
S1708 N1709 1.613 . S
S1708 N1710 1.610 . S
N1709 S1708 1.613 . S
N1709 C1712 1.350 . S
N1710 S1708 1.610 . S
N1710 C1711 1.351 . S
C1711 C1705 1.428 . S
C1711 N1710 1.351 . S
C1711 C1712 1.434 . S
C1712 C1703 1.429 . S
C1712 N1709 1.350 . S
C1712 C1711 1.434 . S
C1713 C1714 1.369 1_545 S
C1713 C1715 1.419 . S
C1713 H1717 0.930 . S
C1714 C1713 1.369 1_565 S
C1714 C1723 1.429 1_564 S
C1715 C1713 1.419 . S
C1715 C1716 1.363 . S
C1715 H1718 0.929 . S
C1716 C1715 1.363 . S
C1716 C1722 1.428 1_554 S
H1717 C1713 0.930 . S
H1718 C1715 0.929 . S
S1719 N1720 1.613 1_545 S
S1719 N1721 1.610 . S
N1720 S1719 1.613 1_565 S
N1720 C1723 1.350 1_565 S
N1721 S1719 1.610 . S
N1721 C1722 1.351 . S
C1722 C1716 1.428 1_556 S
C1722 N1721 1.351 . S
C1722 C1723 1.434 . S
C1723 C1714 1.429 1_546 S
C1723 N1720 1.350 1_545 S
C1723 C1722 1.434 . S
C1724 C1725 1.369 . S
C1724 C1726 1.419 . S
C1724 H1728 0.930 . S
C1725 C1724 1.369 . S
C1725 C1734 1.429 . S
C1726 C1724 1.419 . S
C1726 C1727 1.363 . S
C1726 H1729 0.929 . S
C1727 C1726 1.363 . S
C1727 C1733 1.428 . S
H1728 C1724 0.930 . S
H1729 C1726 0.929 . S
S1730 N1731 1.613 . S
S1730 N1732 1.610 . S
N1731 S1730 1.613 . S
N1731 C1734 1.350 . S
N1732 S1730 1.610 . S
N1732 C1733 1.351 . S
C1733 C1727 1.428 . S
C1733 N1732 1.351 . S
C1733 C1734 1.434 . S
C1734 C1725 1.429 . S
C1734 N1731 1.350 . S
C1734 C1733 1.434 . S
C1735 C1736 1.369 . S
C1735 C1737 1.419 . S
C1735 H1739 0.930 . S
C1736 C1735 1.369 . S
C1736 C1745 1.429 . S
C1737 C1735 1.419 . S
C1737 C1738 1.363 . S
C1737 H1740 0.929 . S
C1738 C1737 1.363 . S
C1738 C1744 1.428 . S
H1739 C1735 0.930 . S
H1740 C1737 0.929 . S
S1741 N1742 1.613 . S
S1741 N1743 1.610 . S
N1742 S1741 1.613 . S
N1742 C1745 1.350 . S
N1743 S1741 1.610 . S
N1743 C1744 1.351 . S
C1744 C1738 1.428 . S
C1744 N1743 1.351 . S
C1744 C1745 1.434 . S
C1745 C1736 1.429 . S
C1745 N1742 1.350 . S
C1745 C1744 1.434 . S
C1746 C1747 1.369 . S
C1746 C1748 1.419 . S
C1746 H1750 0.930 . S
C1747 C1746 1.369 . S
C1747 C1756 1.429 . S
C1748 C1746 1.419 . S
C1748 C1749 1.363 . S
C1748 H1751 0.929 . S
C1749 C1748 1.363 . S
C1749 C1755 1.428 . S
H1750 C1746 0.930 . S
H1751 C1748 0.929 . S
S1752 N1753 1.613 . S
S1752 N1754 1.610 . S
N1753 S1752 1.613 . S
N1753 C1756 1.350 . S
N1754 S1752 1.610 . S
N1754 C1755 1.351 . S
C1755 C1749 1.428 . S
C1755 N1754 1.351 . S
C1755 C1756 1.434 . S
C1756 C1747 1.429 . S
C1756 N1753 1.350 . S
C1756 C1755 1.434 . S
C1757 C1758 1.369 . S
C1757 C1759 1.419 . S
C1757 H1761 0.930 . S
C1758 C1757 1.369 . S
C1758 C1767 1.429 . S
C1759 C1757 1.419 . S
C1759 C1760 1.363 . S
C1759 H1762 0.929 . S
C1760 C1759 1.363 . S
C1760 C1766 1.428 . S
H1761 C1757 0.930 . S
H1762 C1759 0.929 . S
S1763 N1764 1.613 . S
S1763 N1765 1.610 . S
N1764 S1763 1.613 . S
N1764 C1767 1.350 . S
N1765 S1763 1.610 . S
N1765 C1766 1.351 . S
C1766 C1760 1.428 . S
C1766 N1765 1.351 . S
C1766 C1767 1.434 . S
C1767 C1758 1.429 . S
C1767 N1764 1.350 . S
C1767 C1766 1.434 . S
C1768 C1769 1.369 . S
C1768 C1770 1.419 . S
C1768 H1772 0.930 . S
C1769 C1768 1.369 . S
C1769 C1778 1.429 . S
C1770 C1768 1.419 . S
C1770 C1771 1.363 . S
C1770 H1773 0.929 . S
C1771 C1770 1.363 . S
C1771 C1777 1.428 . S
H1772 C1768 0.930 . S
H1773 C1770 0.929 . S
S1774 N1775 1.613 . S
S1774 N1776 1.610 . S
N1775 S1774 1.613 . S
N1775 C1778 1.350 . S
N1776 S1774 1.610 . S
N1776 C1777 1.351 . S
C1777 C1771 1.428 . S
C1777 N1776 1.351 . S
C1777 C1778 1.434 . S
C1778 C1769 1.429 . S
C1778 N1775 1.350 . S
C1778 C1777 1.434 . S
C1779 C1780 1.369 . S
C1779 C1781 1.419 . S
C1779 H1783 0.930 . S
C1780 C1779 1.369 . S
C1780 C1789 1.429 . S
C1781 C1779 1.419 . S
C1781 C1782 1.363 . S
C1781 H1784 0.929 . S
C1782 C1781 1.363 . S
C1782 C1788 1.428 . S
H1783 C1779 0.930 . S
H1784 C1781 0.929 . S
S1785 N1786 1.613 . S
S1785 N1787 1.610 . S
N1786 S1785 1.613 . S
N1786 C1789 1.350 . S
N1787 S1785 1.610 . S
N1787 C1788 1.351 . S
C1788 C1782 1.428 . S
C1788 N1787 1.351 . S
C1788 C1789 1.434 . S
C1789 C1780 1.429 . S
C1789 N1786 1.350 . S
C1789 C1788 1.434 . S
C1790 C1791 1.369 . S
C1790 C1792 1.419 . S
C1790 H1794 0.930 . S
C1791 C1790 1.369 . S
C1791 C1800 1.429 . S
C1792 C1790 1.419 . S
C1792 C1793 1.363 . S
C1792 H1795 0.929 . S
C1793 C1792 1.363 . S
C1793 C1799 1.428 . S
H1794 C1790 0.930 . S
H1795 C1792 0.929 . S
S1796 N1797 1.613 . S
S1796 N1798 1.610 . S
N1797 S1796 1.613 . S
N1797 C1800 1.350 . S
N1798 S1796 1.610 . S
N1798 C1799 1.351 . S
C1799 C1793 1.428 . S
C1799 N1798 1.351 . S
C1799 C1800 1.434 . S
C1800 C1791 1.429 . S
C1800 N1797 1.350 . S
C1800 C1799 1.434 . S
C1801 C1802 1.369 . S
C1801 C1803 1.419 . S
C1801 H1805 0.930 . S
C1802 C1801 1.369 . S
C1802 C1811 1.429 . S
C1803 C1801 1.419 . S
C1803 C1804 1.363 . S
C1803 H1806 0.929 . S
C1804 C1803 1.363 . S
C1804 C1810 1.428 . S
H1805 C1801 0.930 . S
H1806 C1803 0.929 . S
S1807 N1808 1.613 . S
S1807 N1809 1.610 . S
N1808 S1807 1.613 . S
N1808 C1811 1.350 . S
N1809 S1807 1.610 . S
N1809 C1810 1.351 . S
C1810 C1804 1.428 . S
C1810 N1809 1.351 . S
C1810 C1811 1.434 . S
C1811 C1802 1.429 . S
C1811 N1808 1.350 . S
C1811 C1810 1.434 . S
C1812 C1813 1.369 . S
C1812 C1814 1.443 . S
C1812 H1816 0.930 . S
C1813 C1812 1.369 . S
C1813 C1822 1.429 . S
C1814 C1812 1.443 . S
C1814 C1815 1.376 . S
C1814 H1817 0.891 1_556 S
C1815 C1814 1.376 . S
C1815 C1821 1.428 . S
H1816 C1812 0.930 . S
H1817 C1814 0.891 1_554 S
S1818 N1819 1.613 . S
S1818 N1820 1.610 . S
N1819 S1818 1.613 . S
N1819 C1822 1.350 . S
N1820 S1818 1.610 . S
N1820 C1821 1.351 . S
C1821 C1815 1.428 . S
C1821 N1820 1.351 . S
C1821 C1822 1.434 . S
C1822 C1813 1.429 . S
C1822 N1819 1.350 . S
C1822 C1821 1.434 . S
C1823 C1824 1.369 . S
C1823 C1825 1.419 . S
C1823 H1827 0.930 . S
C1824 C1823 1.369 . S
C1824 C1833 1.429 . S
C1825 C1823 1.419 . S
C1825 C1826 1.363 . S
C1825 H1828 0.929 . S
C1826 C1825 1.363 . S
C1826 C1832 1.428 . S
H1827 C1823 0.930 . S
H1828 C1825 0.929 . S
S1829 N1830 1.613 . S
S1829 N1831 1.610 . S
N1830 S1829 1.613 . S
N1830 C1833 1.350 . S
N1831 S1829 1.610 . S
N1831 C1832 1.351 . S
C1832 C1826 1.428 . S
C1832 N1831 1.351 . S
C1832 C1833 1.434 . S
C1833 C1824 1.429 . S
C1833 N1830 1.350 . S
C1833 C1832 1.434 . S
C1834 C1835 1.369 . S
C1834 C1836 1.419 . S
C1834 H1838 0.930 . S
C1835 C1834 1.369 . S
C1835 C1844 1.429 . S
C1836 C1834 1.419 . S
C1836 C1837 1.363 . S
C1836 H1839 0.929 . S
C1837 C1836 1.363 . S
C1837 C1843 1.428 . S
H1838 C1834 0.930 . S
H1839 C1836 0.929 . S
S1840 N1841 1.613 1_655 S
S1840 N1842 1.610 1_655 S
N1841 S1840 1.613 1_455 S
N1841 C1844 1.350 . S
N1842 S1840 1.610 1_455 S
N1842 C1843 1.351 . S
C1843 C1837 1.428 . S
C1843 N1842 1.351 . S
C1843 C1844 1.434 . S
C1844 C1835 1.429 . S
C1844 N1841 1.350 . S
C1844 C1843 1.434 . S
C1845 C1846 1.369 . S
C1845 C1847 1.419 . S
C1845 H1849 0.930 . S
C1846 C1845 1.369 . S
C1846 C1855 1.429 . S
C1847 C1845 1.419 . S
C1847 C1848 1.363 . S
C1847 H1850 0.929 . S
C1848 C1847 1.363 . S
C1848 C1854 1.428 . S
H1849 C1845 0.930 . S
H1850 C1847 0.929 . S
S1851 N1852 1.613 . S
S1851 N1853 1.610 . S
N1852 S1851 1.613 . S
N1852 C1855 1.350 . S
N1853 S1851 1.610 . S
N1853 C1854 1.351 . S
C1854 C1848 1.428 . S
C1854 N1853 1.351 . S
C1854 C1855 1.434 . S
C1855 C1846 1.429 . S
C1855 N1852 1.350 . S
C1855 C1854 1.434 . S
C1856 C1857 1.369 . S
C1856 C1858 1.419 . S
C1856 H1860 0.930 . S
C1857 C1856 1.369 . S
C1857 C1866 1.429 . S
C1858 C1856 1.419 . S
C1858 C1859 1.363 . S
C1858 H1861 0.929 . S
C1859 C1858 1.363 . S
C1859 C1865 1.428 . S
H1860 C1856 0.930 . S
H1861 C1858 0.929 . S
S1862 N1863 1.613 . S
S1862 N1864 1.610 . S
N1863 S1862 1.613 . S
N1863 C1866 1.350 . S
N1864 S1862 1.610 . S
N1864 C1865 1.351 . S
C1865 C1859 1.428 . S
C1865 N1864 1.351 . S
C1865 C1866 1.434 . S
C1866 C1857 1.429 . S
C1866 N1863 1.350 . S
C1866 C1865 1.434 . S
C1867 C1868 1.369 . S
C1867 C1869 1.419 . S
C1867 H1871 0.930 . S
C1868 C1867 1.369 . S
C1868 C1877 1.429 . S
C1869 C1867 1.419 . S
C1869 C1870 1.363 . S
C1869 H1872 0.929 . S
C1870 C1869 1.363 . S
C1870 C1876 1.428 . S
H1871 C1867 0.930 . S
H1872 C1869 0.929 . S
S1873 N1874 1.613 . S
S1873 N1875 1.610 . S
N1874 S1873 1.613 . S
N1874 C1877 1.350 . S
N1875 S1873 1.610 . S
N1875 C1876 1.351 . S
C1876 C1870 1.428 . S
C1876 N1875 1.351 . S
C1876 C1877 1.434 . S
C1877 C1868 1.429 . S
C1877 N1874 1.350 . S
C1877 C1876 1.434 . S
C1878 C1879 1.369 . S
C1878 C1880 1.419 . S
C1878 H1882 0.930 . S
C1879 C1878 1.369 . S
C1879 C1888 1.429 1_655 S
C1880 C1878 1.419 . S
C1880 C1881 1.363 1_655 S
C1880 H1883 0.929 . S
C1881 C1880 1.363 1_455 S
C1881 C1887 1.428 . S
H1882 C1878 0.930 . S
H1883 C1880 0.929 . S
S1884 N1885 1.613 . S
S1884 N1886 1.610 . S
N1885 S1884 1.613 . S
N1885 C1888 1.350 . S
N1886 S1884 1.610 . S
N1886 C1887 1.351 . S
C1887 C1881 1.428 . S
C1887 N1886 1.351 . S
C1887 C1888 1.434 . S
C1888 C1879 1.429 1_455 S
C1888 N1885 1.350 . S
C1888 C1887 1.434 . S
C1889 C1890 1.369 . S
C1889 C1891 1.419 . S
C1889 H1893 0.930 . S
C1890 C1889 1.369 . S
C1890 C1899 1.429 . S
C1891 C1889 1.419 . S
C1891 C1892 1.363 . S
C1891 H1894 0.929 . S
C1892 C1891 1.363 . S
C1892 C1898 1.428 . S
H1893 C1889 0.930 . S
H1894 C1891 0.929 . S
S1895 N1896 1.613 . S
S1895 N1897 1.610 . S
N1896 S1895 1.613 . S
N1896 C1899 1.350 . S
N1897 S1895 1.610 . S
N1897 C1898 1.351 . S
C1898 C1892 1.428 . S
C1898 N1897 1.351 . S
C1898 C1899 1.434 . S
C1899 C1890 1.429 . S
C1899 N1896 1.350 . S
C1899 C1898 1.434 . S
C1900 C1901 1.369 . S
C1900 C1902 1.419 . S
C1900 H1904 0.930 . S
C1901 C1900 1.369 . S
C1901 C1910 1.429 . S
C1902 C1900 1.419 . S
C1902 C1903 1.363 . S
C1902 H1905 0.929 . S
C1903 C1902 1.363 . S
C1903 C1909 1.428 . S
H1904 C1900 0.930 . S
H1905 C1902 0.929 . S
S1906 N1907 1.613 . S
S1906 N1908 1.610 . S
N1907 S1906 1.613 . S
N1907 C1910 1.350 . S
N1908 S1906 1.610 . S
N1908 C1909 1.351 . S
C1909 C1903 1.428 . S
C1909 N1908 1.351 . S
C1909 C1910 1.434 . S
C1910 C1901 1.429 . S
C1910 N1907 1.350 . S
C1910 C1909 1.434 . S
C1911 C1912 1.369 . S
C1911 C1913 1.419 . S
C1911 H1915 0.930 . S
C1912 C1911 1.369 . S
C1912 C1921 1.429 . S
C1913 C1911 1.419 . S
C1913 C1914 1.363 . S
C1913 H1916 0.929 . S
C1914 C1913 1.363 . S
C1914 C1920 1.428 . S
H1915 C1911 0.930 . S
H1916 C1913 0.929 . S
S1917 N1918 1.613 . S
S1917 N1919 1.610 . S
N1918 S1917 1.613 . S
N1918 C1921 1.350 . S
N1919 S1917 1.610 . S
N1919 C1920 1.351 . S
C1920 C1914 1.428 . S
C1920 N1919 1.351 . S
C1920 C1921 1.434 . S
C1921 C1912 1.429 . S
C1921 N1918 1.350 . S
C1921 C1920 1.434 . S
C1922 C1923 1.369 1_455 S
C1922 C1924 1.419 . S
C1922 H1926 0.930 . S
C1923 C1922 1.369 1_655 S
C1923 C1932 1.429 . S
C1924 C1922 1.419 . S
C1924 C1925 1.368 . S
C1924 H1927 0.929 . S
C1925 C1924 1.368 . S
C1925 C1931 1.421 1_455 S
H1926 C1922 0.930 . S
H1927 C1924 0.929 . S
S1928 N1929 1.613 . S
S1928 N1930 1.610 . S
N1929 S1928 1.613 . S
N1929 C1932 1.350 . S
N1930 S1928 1.610 . S
N1930 C1931 1.351 . S
C1931 C1925 1.421 1_655 S
C1931 N1930 1.351 . S
C1931 C1932 1.434 . S
C1932 C1923 1.429 . S
C1932 N1929 1.350 . S
C1932 C1931 1.434 . S
C1933 C1934 1.369 . S
C1933 C1935 1.419 . S
C1933 H1937 0.930 . S
C1934 C1933 1.369 . S
C1934 C1943 1.429 . S
C1935 C1933 1.419 . S
C1935 C1936 1.363 . S
C1935 H1938 0.929 . S
C1936 C1935 1.363 . S
C1936 C1942 1.428 . S
H1937 C1933 0.930 . S
H1938 C1935 0.929 . S
S1939 N1940 1.613 . S
S1939 N1941 1.610 . S
N1940 S1939 1.613 . S
N1940 C1943 1.350 . S
N1941 S1939 1.610 . S
N1941 C1942 1.351 . S
C1942 C1936 1.428 . S
C1942 N1941 1.351 . S
C1942 C1943 1.434 . S
C1943 C1934 1.429 . S
C1943 N1940 1.350 . S
C1943 C1942 1.434 . S
C1944 C1945 1.369 . S
C1944 C1946 1.419 . S
C1944 H1948 0.930 . S
C1945 C1944 1.369 . S
C1945 C1954 1.429 . S
C1946 C1944 1.419 . S
C1946 C1947 1.363 . S
C1946 H1949 0.929 . S
C1947 C1946 1.363 . S
C1947 C1953 1.428 . S
H1948 C1944 0.930 . S
H1949 C1946 0.929 . S
S1950 N1951 1.613 . S
S1950 N1952 1.610 . S
N1951 S1950 1.613 . S
N1951 C1954 1.350 . S
N1952 S1950 1.610 . S
N1952 C1953 1.351 . S
C1953 C1947 1.428 . S
C1953 N1952 1.351 . S
C1953 C1954 1.434 . S
C1954 C1945 1.429 . S
C1954 N1951 1.350 . S
C1954 C1953 1.434 . S
C1955 C1956 1.369 . S
C1955 C1957 1.419 1_565 S
C1955 H1959 0.930 . S
C1956 C1955 1.369 . S
C1956 C1965 1.429 . S
C1957 C1955 1.419 1_545 S
C1957 C1958 1.363 1_545 S
C1957 H1960 0.929 . S
C1958 C1957 1.363 1_565 S
C1958 C1964 1.428 . S
H1959 C1955 0.930 . S
H1960 C1957 0.929 . S
S1961 N1962 1.613 . S
S1961 N1963 1.610 . S
N1962 S1961 1.613 . S
N1962 C1965 1.350 . S
N1963 S1961 1.610 . S
N1963 C1964 1.351 . S
C1964 C1958 1.428 . S
C1964 N1963 1.351 . S
C1964 C1965 1.434 . S
C1965 C1956 1.429 . S
C1965 N1962 1.350 . S
C1965 C1964 1.434 . S
C1966 C1967 1.369 . S
C1966 C1968 1.419 . S
C1966 H1970 0.930 . S
C1967 C1966 1.369 . S
C1967 C1976 1.429 . S
C1968 C1966 1.419 . S
C1968 C1969 1.363 . S
C1968 H1971 0.929 . S
C1969 C1968 1.363 . S
C1969 C1975 1.428 . S
H1970 C1966 0.930 . S
H1971 C1968 0.929 . S
S1972 N1973 1.613 . S
S1972 N1974 1.610 . S
N1973 S1972 1.613 . S
N1973 C1976 1.350 . S
N1974 S1972 1.610 . S
N1974 C1975 1.351 . S
C1975 C1969 1.428 . S
C1975 N1974 1.351 . S
C1975 C1976 1.434 . S
C1976 C1967 1.429 . S
C1976 N1973 1.350 . S
C1976 C1975 1.434 . S
C1977 C1978 1.369 . S
C1977 C1979 1.419 . S
C1977 H1981 0.930 . S
C1978 C1977 1.369 . S
C1978 C1987 1.429 . S
C1979 C1977 1.419 . S
C1979 C1980 1.363 . S
C1979 H1982 0.929 . S
C1980 C1979 1.363 . S
C1980 C1986 1.428 . S
H1981 C1977 0.930 . S
H1982 C1979 0.929 . S
S1983 N1984 1.613 . S
S1983 N1985 1.610 . S
N1984 S1983 1.613 . S
N1984 C1987 1.350 . S
N1985 S1983 1.610 . S
N1985 C1986 1.351 . S
C1986 C1980 1.428 . S
C1986 N1985 1.351 . S
C1986 C1987 1.434 . S
C1987 C1978 1.429 . S
C1987 N1984 1.350 . S
C1987 C1986 1.434 . S
C1988 C1989 1.369 . S
C1988 C1990 1.419 . S
C1988 H1992 0.930 . S
C1989 C1988 1.369 . S
C1989 C1998 1.429 . S
C1990 C1988 1.419 . S
C1990 C1991 1.363 . S
C1990 H1993 0.929 . S
C1991 C1990 1.363 . S
C1991 C1997 1.428 . S
H1992 C1988 0.930 . S
H1993 C1990 0.929 . S
S1994 N1995 1.613 . S
S1994 N1996 1.610 . S
N1995 S1994 1.613 . S
N1995 C1998 1.350 . S
N1996 S1994 1.610 . S
N1996 C1997 1.351 . S
C1997 C1991 1.428 . S
C1997 N1996 1.351 . S
C1997 C1998 1.434 . S
C1998 C1989 1.429 . S
C1998 N1995 1.350 . S
C1998 C1997 1.434 . S
C1999 C2000 1.369 . S
C1999 C2001 1.419 . S
C1999 H2003 0.930 . S
C2000 C1999 1.369 . S
C2000 C2009 1.429 . S
C2001 C1999 1.419 . S
C2001 C2002 1.363 . S
C2001 H2004 0.929 . S
C2002 C2001 1.363 . S
C2002 C2008 1.428 . S
H2003 C1999 0.930 . S
H2004 C2001 0.929 . S
S2005 N2006 1.613 1_556 S
S2005 N2007 1.610 . S
N2006 S2005 1.613 1_554 S
N2006 C2009 1.350 . S
N2007 S2005 1.610 . S
N2007 C2008 1.351 1_556 S
C2008 C2002 1.428 . S
C2008 N2007 1.351 1_554 S
C2008 C2009 1.434 . S
C2009 C2000 1.429 . S
C2009 N2006 1.350 . S
C2009 C2008 1.434 . S
C2010 C2011 1.369 . S
C2010 C2012 1.419 . S
C2010 H2014 0.930 . S
C2011 C2010 1.369 . S
C2011 C2020 1.429 . S
C2012 C2010 1.419 . S
C2012 C2013 1.363 . S
C2012 H2015 0.929 . S
C2013 C2012 1.363 . S
C2013 C2019 1.428 . S
H2014 C2010 0.930 . S
H2015 C2012 0.929 . S
S2016 N2017 1.613 . S
S2016 N2018 1.610 . S
N2017 S2016 1.613 . S
N2017 C2020 1.350 . S
N2018 S2016 1.610 . S
N2018 C2019 1.351 . S
C2019 C2013 1.428 . S
C2019 N2018 1.351 . S
C2019 C2020 1.434 . S
C2020 C2011 1.429 . S
C2020 N2017 1.350 . S
C2020 C2019 1.434 . S
C2021 C2022 1.369 . S
C2021 C2023 1.419 . S
C2021 H2025 0.930 . S
C2022 C2021 1.369 . S
C2022 C2031 1.429 . S
C2023 C2021 1.419 . S
C2023 C2024 1.363 . S
C2023 H2026 0.929 . S
C2024 C2023 1.363 . S
C2024 C2030 1.428 . S
H2025 C2021 0.930 . S
H2026 C2023 0.929 . S
S2027 N2028 1.613 . S
S2027 N2029 1.610 . S
N2028 S2027 1.613 . S
N2028 C2031 1.350 . S
N2029 S2027 1.610 . S
N2029 C2030 1.351 . S
C2030 C2024 1.428 . S
C2030 N2029 1.351 . S
C2030 C2031 1.434 . S
C2031 C2022 1.429 . S
C2031 N2028 1.350 . S
C2031 C2030 1.434 . S
C977 C111 2.406 1_455 S
C979 C367 2.367 . S
C988 C64 1.928 . S
C990 C378 2.038 . S
C999 C77 1.752 . S
C1001 C447 1.719 . S
C1012 C460 1.042 . S
C1010 C95 1.065 . S
C1021 C25 2.361 . S
C1023 C516 2.338 1_565 S
C1034 C567 2.321 . S
C1032 C36 2.343 . S
C1045 C596 2.395 . S
C1043 C50 2.308 . S
C1054 C11 2.528 . S
C1056 C647 2.457 . S
C1067 C338 1.499 . S
C1065 C237 1.410 1_545 S
C1076 C245 1.166 . S
C1078 C380 1.099 . S
C1089 C418 0.960 . S
C1087 C279 0.919 . S
C1100 C487 1.817 . S
C1098 C175 1.794 . S
C1109 C231 0.660 . S
C1111 C521 0.655 . S
C1122 C538 1.351 . S
C1120 C251 1.256 . S
C1133 C601 0.499 . S
C1131 C273 0.500 . S
C1144 C618 2.116 . S
C1142 C181 2.142 . S
C1155 C340 2.010 . S
C1153 C165 2.278 1_544 S
C1164 C288 1.639 . S
C1166 C679 1.634 . S
C1177 C700 1.796 . S
C1175 C333 2.021 . S
C1188 C759 0.602 . S
C1186 C316 0.658 . S
C1197 C123 1.382 . S
C1199 C620 1.261 . S
C1208 C137 1.517 . S
C1210 C420 1.427 . S
C1219 C330 1.026 . S
C1221 C778 1.219 . S
C1232 C847 0.998 . S
C1230 C302 0.985 . S
C1243 C356 2.469 . S
C1241 C63 2.473 . S
C1254 C839 2.043 . S
C1252 C106 2.045 . S
C1263 C97 1.743 . S
C1265 C436 1.790 . S
C1274 C81 1.096 . S
C1276 C801 1.091 . S
C1287 C527 2.485 . S
C1285 C13 2.409 . S
C1296 C55 2.125 . S
C1298 C716 2.292 . S
C1309 C607 2.361 1_566 S
C1307 C35 2.351 . S
C1320 C876 2.620 . S
C1318 C21 2.680 1_655 S
C1331 C359 1.561 . S
C1329 C147 1.536 . S
C1342 C841 1.116 . S
C1340 C321 1.075 . S
C1351 C119 1.014 . S
C1353 C439 1.003 . S
C1362 C293 1.879 . S
C1364 C796 1.960 . S
C1373 C153 0.723 . S
C1375 C500 0.735 . S
C1386 C719 1.401 . S
C1384 C315 1.397 . S
C1395 C125 0.555 . S
C1397 C580 0.539 . S
C1406 C287 2.294 . S
C1408 C879 2.223 . S
C1417 C193 2.112 . S
C1419 C361 2.018 1_554 S
C1428 C176 1.682 . S
C1430 C658 1.628 . S
C1439 C263 1.830 . S
C1441 C561 1.785 . S
C1450 C246 0.759 . S
C1452 C738 0.744 . S
C1463 C881 1.248 . S
C1461 C277 1.243 . S
C1472 C221 1.436 . S
C1474 C441 1.403 . S
C1485 C479 1.244 . S
C1483 C260 1.215 . S
C1496 C396 1.033 . S
C1494 C204 1.070 . S
C1505 C83 2.408 . S
C1507 C927 2.368 . S
C1518 C818 2.039 . S
C1516 C92 1.934 . S
C1527 C105 1.752 . S
C1529 C967 1.720 . S
C1538 C67 1.062 . S
C1540 C780 1.039 . S
C1549 C53 2.360 . S
C1551 C676 2.338 . S
C1562 C727 2.321 . S
C1560 C8 2.342 1_655 S
C1573 C756 2.396 . S
C1571 C22 2.308 . S
C1584 C887 2.459 . S
C1582 C39 2.529 . S
C1595 C898 1.505 . S
C1593 C265 1.407 . S
C1604 C189 1.166 . S
C1606 C820 1.099 . S
C1617 C938 0.959 . S
C1615 C209 0.921 . S
C1628 C807 1.819 . S
C1626 C217 1.789 . S
C1639 C681 0.656 . S
C1637 C259 0.658 . S
C1648 C195 1.246 . S
C1650 C698 1.348 . S
C1661 C761 0.501 . S
C1659 C203 0.499 . S
C1670 C223 2.147 . S
C1672 C858 2.120 . S
C1683 C900 2.011 . S
C1681 C319 2.275 . S
C1692 C134 1.642 . S
C1694 C519 1.634 . S
C1705 C540 1.800 1_545 S
C1703 C151 2.019 . S
C1716 C599 0.602 . S
C1714 C162 0.648 . S
C1727 C860 1.261 . S
C1725 C305 1.382 . S
C1736 C291 1.520 . S
C1738 C940 1.421 . S
C1749 C458 1.213 . S
C1747 C148 1.043 . S
C1760 C407 0.998 . S
C1758 C120 0.984 . S
C1769 C91 2.468 . S
C1771 C916 2.471 . S
C1782 C399 2.042 . S
C1780 C78 2.041 . S
C1791 C69 1.749 . S
C1793 C956 1.787 . S
C1802 C109 1.097 . S
C1804 C481 1.084 . S
C1813 C41 2.413 . S
C1815 C687 2.484 1_556 S
C1826 C556 2.292 . S
C1824 C27 2.122 . S
C1835 C7 2.350 . S
C1837 C767 2.360 . S
C1846 C49 2.681 . S
C1848 C636 2.619 . S
C1859 C919 1.560 . S
C1857 C329 1.542 . S
C1868 C167 1.076 . S
C1870 C401 1.115 . S
C1881 C959 0.998 . S
C1879 C301 1.012 . S
C1890 C139 1.887 . S
C1892 C476 1.959 . S
C1901 C335 0.748 . S
C1903 C660 0.725 . S
C1914 C559 1.404 . S
C1912 C161 1.393 . S
C1923 C307 0.561 . S
C1925 C740 0.542 . S
C1936 C639 2.226 . S
C1934 C133 2.293 . S
C1947 C921 2.013 . S
C1945 C249 2.118 . S
C1958 C498 1.624 1_565 S
C1956 C218 1.680 . S
C1967 C235 1.824 . S
C1969 C721 1.792 . S
C1980 C578 0.753 . S
C1978 C190 0.738 . S
C1989 C207 1.246 . S
C1991 C641 1.248 . S
C2000 C179 1.428 . S
C2002 C961 1.408 . S
C2013 C799 1.237 . S
C2011 C232 1.227 . S
C2024 C836 1.032 . S
C2022 C274 1.073 . S
