# Generated by pormake.
# Topology csq, (4,8)-cn, num edge types: 1
# Building blocks:
#     Node 0, Type 0, BuildingBlock: NAWXER_clean_sbu_0, # of connection points: 4
#     Node 1, Type 0, BuildingBlock: NAWXER_clean_sbu_0, # of connection points: 4
#     Node 2, Type 0, BuildingBlock: NAWXER_clean_sbu_0, # of connection points: 4
#     Node 3, Type 0, BuildingBlock: NAWXER_clean_sbu_0, # of connection points: 4
#     Node 4, Type 0, BuildingBlock: NAWXER_clean_sbu_0, # of connection points: 4
#     Node 5, Type 0, BuildingBlock: NAWXER_clean_sbu_0, # of connection points: 4
#     Node 6, Type 1, BuildingBlock: TAGTUT_clean_sbu_3, # of connection points: 8
#     Node 7, Type 1, BuildingBlock: TAGTUT_clean_sbu_3, # of connection points: 8
#     Node 8, Type 1, BuildingBlock: TAGTUT_clean_sbu_3, # of connection points: 8
#     Edge 9, Type (0, 1), BuildingBlock: UVAHIK_clean_linker_0, # of connection points: 2
#     Edge 10, Type (0, 1), BuildingBlock: UVAHIK_clean_linker_0, # of connection points: 2
#     Edge 11, Type (0, 1), BuildingBlock: UVAHIK_clean_linker_0, # of connection points: 2
#     Edge 12, Type (0, 1), BuildingBlock: UVAHIK_clean_linker_0, # of connection points: 2
#     Edge 13, Type (0, 1), BuildingBlock: UVAHIK_clean_linker_0, # of connection points: 2
#     Edge 14, Type (0, 1), BuildingBlock: UVAHIK_clean_linker_0, # of connection points: 2
#     Edge 15, Type (0, 1), BuildingBlock: UVAHIK_clean_linker_0, # of connection points: 2
#     Edge 16, Type (0, 1), BuildingBlock: UVAHIK_clean_linker_0, # of connection points: 2
#     Edge 17, Type (0, 1), BuildingBlock: UVAHIK_clean_linker_0, # of connection points: 2
#     Edge 18, Type (0, 1), BuildingBlock: UVAHIK_clean_linker_0, # of connection points: 2
#     Edge 19, Type (0, 1), BuildingBlock: UVAHIK_clean_linker_0, # of connection points: 2
#     Edge 20, Type (0, 1), BuildingBlock: UVAHIK_clean_linker_0, # of connection points: 2
#     Edge 21, Type (0, 1), BuildingBlock: UVAHIK_clean_linker_0, # of connection points: 2
#     Edge 22, Type (0, 1), BuildingBlock: UVAHIK_clean_linker_0, # of connection points: 2
#     Edge 23, Type (0, 1), BuildingBlock: UVAHIK_clean_linker_0, # of connection points: 2
#     Edge 24, Type (0, 1), BuildingBlock: UVAHIK_clean_linker_0, # of connection points: 2
#     Edge 25, Type (0, 1), BuildingBlock: UVAHIK_clean_linker_0, # of connection points: 2
#     Edge 26, Type (0, 1), BuildingBlock: UVAHIK_clean_linker_0, # of connection points: 2
#     Edge 27, Type (0, 1), BuildingBlock: UVAHIK_clean_linker_0, # of connection points: 2
#     Edge 28, Type (0, 1), BuildingBlock: UVAHIK_clean_linker_0, # of connection points: 2
#     Edge 29, Type (0, 1), BuildingBlock: UVAHIK_clean_linker_0, # of connection points: 2
#     Edge 30, Type (0, 1), BuildingBlock: UVAHIK_clean_linker_0, # of connection points: 2
#     Edge 31, Type (0, 1), BuildingBlock: UVAHIK_clean_linker_0, # of connection points: 2
#     Edge 32, Type (0, 1), BuildingBlock: UVAHIK_clean_linker_0, # of connection points: 2
# Relax obj value: 0.043
# Max RMSD: 0.120
# Mean RMSD: 0.079
data_MOF--net-csq--node1-NAWXER_clean_sbu_0--node2-TAGTUT_clean_sbu_3--edge1-UVAHIK_clean_linker_0
_symmetry_space_group_name_H-M    P1
_symmetry_Int_Tables_number       1
_symmetry_cell_setting            triclinic
loop_
_symmetry_equiv_pos_as_xyz
'x, y, z'
_cell_length_a     64.043607
_cell_length_b     63.160572
_cell_length_c     24.446367
_cell_angle_alpha  92.271188
_cell_angle_beta   92.404844
_cell_angle_gamma 119.83429
loop_
_atom_site_label
_atom_site_type_symbol
_atom_site_fract_x
_atom_site_fract_y
_atom_site_fract_z
_atom_type_partial_charge
C0 C 0.27305 0.48498 0.06755 0.0
C1 C 0.21299 0.48482 0.18424 0.0
O2 O 0.27029 0.50297 0.08172 0.0
Zn3 Zn 0.24261 0.485 0.1238 0.0
O4 O 0.25812 0.46357 0.082 0.0
Zn5 Zn 0.22704 0.44683 0.12997 0.0
O6 O 0.20152 0.42393 0.07847 0.0
O7 O 0.21419 0.46242 0.06203 0.0
O8 O 0.21027 0.46343 0.17506 0.0
O9 O 0.22987 0.50289 0.1628 0.0
O10 O 0.25843 0.47404 0.18834 0.0
O11 O 0.23811 0.4337 0.18636 0.0
C12 C 0.20003 0.43947 0.04967 0.0
C13 C 0.25522 0.45405 0.20729 0.0
C14 C 0.75082 0.20993 0.02464 0.0
C15 C 0.80633 0.26516 0.17365 0.0
O16 O 0.76978 0.2105 0.04454 0.0
Zn17 Zn 0.77949 0.23803 0.09711 0.0
O18 O 0.74551 0.22594 0.04223 0.0
Zn19 Zn 0.75905 0.25626 0.10214 0.0
O20 O 0.76679 0.28369 0.05755 0.0
O21 O 0.79027 0.26783 0.04589 0.0
O22 O 0.7893 0.26966 0.16143 0.0
O23 O 0.80761 0.24839 0.14621 0.0
O24 O 0.75017 0.22287 0.14972 0.0
O25 O 0.73176 0.24458 0.14715 0.0
C26 C 0.78415 0.28368 0.03419 0.0
C27 C 0.73323 0.22661 0.16455 0.0
C28 C 0.53207 0.77778 0.12013 0.0
C29 C 0.55739 0.74212 0.97569 0.0
O30 O 0.55332 0.78206 0.11269 0.0
Zn31 Zn 0.54505 0.7594 0.04973 0.0
O32 O 0.5143 0.76192 0.08787 0.0
Zn33 Zn 0.50854 0.73747 0.01752 0.0
O34 O 0.48879 0.70503 0.04414 0.0
O35 O 0.52537 0.72506 0.08531 0.0
O36 O 0.53458 0.73379 0.97244 0.0
O37 O 0.57064 0.75699 0.01544 0.0
O38 O 0.53312 0.7755 0.98847 0.0
O39 O 0.49506 0.74919 0.9618 0.0
C40 C 0.50429 0.70604 0.07996 0.0
C41 C 0.51396 0.76983 0.95817 0.0
C42 C 0.79924 0.52385 0.99686 0.0
C43 C 0.75718 0.52878 0.15486 0.0
O44 O 0.8036 0.54559 0.01021 0.0
Zn45 Zn 0.79394 0.56419 0.07069 0.0
O46 O 0.78471 0.50616 0.02369 0.0
Zn47 Zn 0.77809 0.52554 0.07609 0.0
O48 O 0.75747 0.53678 0.02717 0.0
O49 O 0.77763 0.57705 0.02649 0.0
O50 O 0.75679 0.50988 0.13357 0.0
O51 O 0.77037 0.5496 0.13557 0.0
O52 O 0.825 0.58642 0.1086 0.0
O53 O 0.81291 0.5474 0.11768 0.0
C54 C 0.75897 0.5566 0.01171 0.0
C55 C 0.82899 0.57003 0.12645 0.0
C56 C 0.21188 0.73898 0.1733 0.0
C57 C 0.25432 0.79292 0.02842 0.0
O58 O 0.20678 0.75597 0.16675 0.0
Zn59 Zn 0.21493 0.78506 0.11535 0.0
O60 O 0.22572 0.73653 0.141 0.0
Zn61 Zn 0.23268 0.76426 0.09733 0.0
O62 O 0.25126 0.79432 0.15639 0.0
O63 O 0.23055 0.81336 0.16839 0.0
O64 O 0.25602 0.77447 0.04151 0.0
O65 O 0.23978 0.79797 0.05255 0.0
O66 O 0.18407 0.77542 0.07587 0.0
O67 O 0.20027 0.75327 0.04905 0.0
C68 C 0.24919 0.81158 0.17992 0.0
C69 C 0.18353 0.75868 0.04412 0.0
C70 C 0.45509 0.25092 0.24281 0.0
C71 C 0.48008 0.21113 0.1057 0.0
O72 O 0.47798 0.26072 0.24086 0.0
Zn73 Zn 0.50368 0.25707 0.19525 0.0
O74 O 0.44101 0.23345 0.20817 0.0
Zn75 Zn 0.46619 0.23104 0.17093 0.0
O76 O 0.48245 0.22089 0.23491 0.0
O77 O 0.52048 0.24956 0.25379 0.0
O78 O 0.45843 0.20519 0.11453 0.0
O79 O 0.49762 0.22973 0.13275 0.0
O80 O 0.51929 0.28736 0.1566 0.0
O81 O 0.48154 0.26265 0.12558 0.0
C82 C 0.50261 0.22885 0.26297 0.0
C83 C 0.5015 0.28265 0.12309 0.0
C84 C 0.04387 0.48926 0.54485 0.0
C85 C 0.02285 0.44702 0.7314 0.0
C86 C 0.95738 0.45098 0.70738 0.0
Mg87 Mg 0.02799 0.52559 0.49272 0.0
Mg88 Mg 0.01709 0.56149 0.57384 0.0
O89 O 0.0082 0.52907 0.5505 0.0
Mg90 Mg 0.01253 0.50932 0.60684 0.0
O91 O 0.01719 0.4881 0.65875 0.0
Mg92 Mg 0.99782 0.45541 0.61591 0.0
Mg93 Mg 0.01061 0.48887 0.7323 0.0
C94 C 0.98083 0.53125 0.6635 0.0
O95 O 0.03921 0.5431 0.66408 0.0
O96 O 0.01322 0.54542 0.43775 0.0
O97 O 0.02924 0.52836 0.74766 0.0
O98 O 0.06129 0.5626 0.51783 0.0
O99 O 0.0067 0.56967 0.49659 0.0
O100 O 0.056 0.58477 0.58294 0.0
O101 O 0.98539 0.47481 0.55551 0.0
O102 O 0.99526 0.4874 0.47128 0.0
C103 C 0.98264 0.47071 0.50325 0.0
C104 C 0.00671 0.56141 0.44782 0.0
O105 O 0.98389 0.51282 0.65384 0.0
O106 O 0.01382 0.44055 0.68148 0.0
O107 O 0.99318 0.55175 0.64154 0.0
O108 O 0.96366 0.44335 0.66532 0.0
O109 O 0.02388 0.46537 0.75854 0.0
O110 O 0.97257 0.46982 0.73739 0.0
O111 O 0.04049 0.50729 0.55581 0.0
O112 O 0.03109 0.46858 0.56531 0.0
C113 C 0.06956 0.58157 0.55084 0.0
C114 C 0.03988 0.54617 0.71665 0.0
C115 C 0.49762 0.03726 0.53839 0.0
C116 C 0.55623 0.02221 0.42575 0.0
C117 C 0.51872 0.94898 0.48672 0.0
Mg118 Mg 0.47144 0.01305 0.64803 0.0
Mg119 Mg 0.49726 0.9942 0.73778 0.0
O120 O 0.48499 0.99123 0.66481 0.0
Mg121 Mg 0.5071 0.99885 0.60469 0.0
O122 O 0.5276 0.00711 0.54118 0.0
Mg123 Mg 0.50188 0.99225 0.47895 0.0
Mg124 Mg 0.55276 0.0002 0.53902 0.0
C125 C 0.51619 0.96151 0.67967 0.0
O126 O 0.54191 0.02295 0.66001 0.0
O127 O 0.44364 0.99134 0.71213 0.0
O128 O 0.56968 0.01649 0.62022 0.0
O129 O 0.49585 0.04252 0.71471 0.0
O130 O 0.46258 0.97866 0.771 0.0
O131 O 0.51751 0.03198 0.76871 0.0
O132 O 0.47425 0.97491 0.54438 0.0
O133 O 0.44834 0.98476 0.5795 0.0
C134 C 0.45352 0.97338 0.543 0.0
C135 C 0.44392 0.97971 0.75403 0.0
O136 O 0.51237 0.96666 0.63105 0.0
O137 O 0.53321 0.01325 0.42208 0.0
O138 O 0.51392 0.97184 0.72366 0.0
O139 O 0.50562 0.95753 0.46808 0.0
O140 O 0.56739 0.01934 0.46702 0.0
O141 O 0.53724 0.96184 0.51966 0.0
O142 O 0.50085 0.0307 0.58549 0.0
O143 O 0.49796 0.02612 0.49377 0.0
C144 C 0.5118 0.04765 0.7538 0.0
C145 C 0.56312 0.02545 0.65963 0.0
C146 C 0.52476 0.55221 0.66033 0.0
C147 C 0.46346 0.48691 0.79007 0.0
C148 C 0.49411 0.44377 0.73286 0.0
Mg149 Mg 0.5444 0.54237 0.54673 0.0
Mg150 Mg 0.50957 0.49299 0.46671 0.0
O151 O 0.5251 0.5056 0.53695 0.0
Mg152 Mg 0.50542 0.4981 0.60228 0.0
O153 O 0.48755 0.49254 0.67015 0.0
Mg154 Mg 0.51502 0.50487 0.72795 0.0
Mg155 Mg 0.46201 0.46069 0.67757 0.0
C156 C 0.48334 0.44516 0.53406 0.0
O157 O 0.47015 0.48881 0.5538 0.0
O158 O 0.56726 0.5393 0.47766 0.0
O159 O 0.44275 0.45714 0.59859 0.0
O160 O 0.52068 0.54824 0.48219 0.0
O161 O 0.54265 0.50382 0.42813 0.0
O162 O 0.49366 0.5137 0.43564 0.0
O163 O 0.53881 0.50651 0.6572 0.0
O164 O 0.567 0.53703 0.61329 0.0
C165 C 0.5608 0.52307 0.65321 0.0
C166 C 0.56339 0.52303 0.43896 0.0
O167 O 0.49192 0.45695 0.5813 0.0
O168 O 0.48646 0.50113 0.7897 0.0
O169 O 0.48645 0.45567 0.48872 0.0
O170 O 0.50816 0.46647 0.74671 0.0
O171 O 0.45094 0.47034 0.75161 0.0
O172 O 0.47554 0.43665 0.69975 0.0
O173 O 0.51908 0.53905 0.61514 0.0
O174 O 0.52294 0.54308 0.70693 0.0
C175 C 0.50296 0.53667 0.44631 0.0
C176 C 0.44858 0.47107 0.55825 0.0
C177 C 0.19868 0.51116 0.23067 0.0
C178 C 0.19617 0.48799 0.21892 0.0
C179 C 0.18233 0.51368 0.26282 0.0
C180 C 0.12074 0.47775 0.30936 0.0
H181 H 0.14297 0.52845 0.42773 0.0
C182 C 0.0622 0.47054 0.48579 0.0
C183 C 0.06156 0.49146 0.50499 0.0
C184 C 0.07852 0.47221 0.44785 0.0
C185 C 0.13646 0.51443 0.3943 0.0
H186 H 0.17463 0.44935 0.23228 0.0
H187 H 0.14645 0.45379 0.28824 0.0
H188 H 0.17193 0.52766 0.36662 0.0
H189 H 0.07784 0.53066 0.49961 0.0
H190 H 0.10655 0.53359 0.43308 0.0
H191 H 0.08543 0.46419 0.33746 0.0
C192 C 0.16078 0.46998 0.27207 0.0
C193 C 0.15303 0.51397 0.35932 0.0
C194 C 0.17708 0.46748 0.24024 0.0
C195 C 0.07781 0.51419 0.48551 0.0
C196 C 0.09433 0.51589 0.44764 0.0
C197 C 0.10425 0.47819 0.34423 0.0
C198 C 0.16309 0.49306 0.28351 0.0
C199 C 0.1454 0.49527 0.31727 0.0
C200 C 0.09472 0.49485 0.42817 0.0
C201 C 0.11198 0.49617 0.38787 0.0
H202 H 0.2132 0.52733 0.21487 0.0
H203 H 0.18452 0.53169 0.27077 0.0
H204 H 0.11419 0.46344 0.27654 0.0
H205 H 0.05 0.45272 0.49986 0.0
H206 H 0.07864 0.45572 0.43439 0.0
C207 C 0.71847 0.19119 0.22283 0.0
C208 C 0.71418 0.20809 0.19614 0.0
C209 C 0.69963 0.1709 0.24427 0.0
C210 C 0.63719 0.14383 0.28557 0.0
H211 H 0.63765 0.08316 0.25749 0.0
C212 C 0.5621 0.05168 0.35416 0.0
C213 C 0.57095 0.03907 0.38483 0.0
C214 C 0.57756 0.07103 0.32368 0.0
C215 C 0.63727 0.09995 0.26567 0.0
H216 H 0.68699 0.21769 0.17357 0.0
H217 H 0.65386 0.18197 0.21109 0.0
H218 H 0.66891 0.12074 0.2229 0.0
H219 H 0.6025 0.03577 0.40459 0.0
H220 H 0.62928 0.06919 0.35109 0.0
H221 H 0.60562 0.12293 0.329 0.0
C222 C 0.67189 0.18454 0.2155 0.0
C223 C 0.65524 0.12151 0.24613 0.0
C224 C 0.69086 0.20502 0.19416 0.0
C225 C 0.59514 0.04516 0.38154 0.0
C226 C 0.61048 0.06427 0.35069 0.0
C227 C 0.61912 0.12218 0.30505 0.0
C228 C 0.67598 0.16688 0.23925 0.0
C229 C 0.65575 0.14381 0.25692 0.0
C230 C 0.60204 0.07787 0.32273 0.0
C231 C 0.61928 0.10012 0.29623 0.0
H232 H 0.7363 0.19318 0.22558 0.0
H233 H 0.70353 0.15802 0.26376 0.0
H234 H 0.63711 0.16071 0.29467 0.0
H235 H 0.54357 0.04751 0.35604 0.0
H236 H 0.57052 0.08103 0.302 0.0
C237 C 0.51261 0.69082 0.16619 0.0
C238 C 0.4983 0.68605 0.11707 0.0
C239 C 0.50746 0.67242 0.20194 0.0
C240 C 0.4812 0.60687 0.20831 0.0
H241 H 0.4829 0.62163 0.36449 0.0
C242 C 0.47781 0.5398 0.36807 0.0
C243 C 0.49486 0.55089 0.4133 0.0
C244 C 0.47288 0.55407 0.33294 0.0
C245 C 0.48247 0.61719 0.32106 0.0
H246 H 0.46737 0.65804 0.06684 0.0
H247 H 0.45869 0.62546 0.12925 0.0
H248 H 0.48479 0.65085 0.29988 0.0
H249 H 0.51911 0.58562 0.4584 0.0
H250 H 0.51086 0.61022 0.39743 0.0
H251 H 0.48016 0.57378 0.22953 0.0
C252 C 0.47377 0.64366 0.13998 0.0
C253 C 0.48345 0.63391 0.28406 0.0
C254 C 0.47868 0.6623 0.10444 0.0
C255 C 0.50592 0.57637 0.42399 0.0
C256 C 0.50102 0.59055 0.38903 0.0
C257 C 0.48048 0.59019 0.24545 0.0
C258 C 0.48806 0.64863 0.18928 0.0
C259 C 0.48347 0.62924 0.2274 0.0
C260 C 0.4848 0.57971 0.34239 0.0
C261 C 0.48181 0.59547 0.30246 0.0
H262 H 0.52781 0.70891 0.17736 0.0
H263 H 0.51898 0.67674 0.23925 0.0
H264 H 0.4813 0.60284 0.16486 0.0
H265 H 0.46885 0.52021 0.35873 0.0
H266 H 0.46001 0.54504 0.2979 0.0
C267 C 0.85946 0.55823 0.15256 0.0
C268 C 0.85275 0.5763 0.15241 0.0
C269 C 0.88192 0.56357 0.1754 0.0
C270 C 0.92667 0.60054 0.2826 0.0
H271 H 0.96372 0.57498 0.21295 0.0
C272 C -0.00058 0.59315 0.40878 0.0
C273 C 0.99788 0.5702 0.40234 0.0
C274 C 0.98791 0.60022 0.37001 0.0
C275 C 0.95362 0.58225 0.23296 0.0
H276 H 0.86444 0.61425 0.17563 0.0
H277 H 0.90387 0.62342 0.21787 0.0
H278 H 0.93118 0.57613 0.15983 0.0
H279 H 0.98447 0.5373 0.34874 0.0
H280 H 0.96359 0.54917 0.28177 0.0
H281 H 0.94774 0.6051 0.35662 0.0
C282 C 0.89162 0.60522 0.19936 0.0
C283 C 0.93512 0.58304 0.20248 0.0
C284 C 0.86913 0.59997 0.17544 0.0
C285 C 0.98594 0.55509 0.35465 0.0
C286 C 0.97409 0.56201 0.31616 0.0
C287 C 0.94501 0.59955 0.31324 0.0
C288 C 0.89817 0.58702 0.19928 0.0
C289 C 0.92094 0.59137 0.22759 0.0
C290 C 0.97429 0.58432 0.32437 0.0
C291 C 0.95812 0.58957 0.28926 0.0
H292 H 0.84738 0.53988 0.13462 0.0
H293 H 0.88634 0.54908 0.17566 0.0
H294 H 0.91585 0.60682 0.30302 0.0
H295 H 0.00892 0.60539 0.44475 0.0
H296 H 0.98895 0.61777 0.3769 0.0
C297 C 0.2883 0.82513 0.23251 0.0
C298 C 0.26939 0.82956 0.21801 0.0
C299 C 0.30863 0.8425 0.26434 0.0
C300 C 0.33111 0.89483 0.36377 0.0
H301 H 0.39372 0.90743 0.32044 0.0
C302 C 0.41789 0.96657 0.4843 0.0
C303 C 0.43534 0.95988 0.49704 0.0
C304 C 0.39885 0.95261 0.44548 0.0
C305 C 0.37638 0.90397 0.33328 0.0
H306 H 0.25671 0.85549 0.22705 0.0
H307 H 0.29257 0.8861 0.28372 0.0
H308 H 0.35737 0.87956 0.26275 0.0
H309 H 0.44733 0.9341 0.47708 0.0
H310 H 0.41346 0.90911 0.40946 0.0
H311 H 0.34994 0.91872 0.43488 0.0
C312 C 0.29145 0.86904 0.26991 0.0
C313 C 0.35558 0.88809 0.30023 0.0
C314 C 0.27097 0.85156 0.23762 0.0
C315 C 0.43406 0.93959 0.46809 0.0
C316 C 0.41472 0.92537 0.42936 0.0
C317 C 0.35188 0.91064 0.39692 0.0
C318 C 0.31063 0.86477 0.28271 0.0
C319 C 0.33273 0.88316 0.31549 0.0
C320 C 0.3966 0.93144 0.41875 0.0
C321 C 0.37474 0.91525 0.38226 0.0
H322 H 0.28762 0.80828 0.21869 0.0
H323 H 0.32282 0.83844 0.27467 0.0
H324 H 0.31372 0.89111 0.37687 0.0
H325 H 0.4187 0.98246 0.5051 0.0
H326 H 0.38561 0.9582 0.43711 0.0
C327 C 0.46019 0.27059 0.33587 0.0
C328 C 0.44591 0.2602 0.28649 0.0
C329 C 0.45402 0.28279 0.37492 0.0
C330 C 0.42641 0.32039 0.37754 0.0
H331 H 0.44409 0.32707 0.53363 0.0
C332 C 0.44635 0.40719 0.49936 0.0
C333 C 0.46866 0.41836 0.53006 0.0
C334 C 0.43474 0.38233 0.48292 0.0
C335 C 0.43897 0.32539 0.4902 0.0
H336 H 0.41307 0.2529 0.24065 0.0
H337 H 0.40236 0.27483 0.30906 0.0
H338 H 0.43867 0.29145 0.478 0.0
H339 H 0.49552 0.41235 0.57164 0.0
H340 H 0.4758 0.36896 0.54115 0.0
H341 H 0.42828 0.35491 0.38834 0.0
C342 C 0.41836 0.27342 0.31737 0.0
C343 C 0.43576 0.30494 0.4584 0.0
C344 C 0.42441 0.26085 0.27835 0.0
C345 C 0.47825 0.40399 0.54811 0.0
C346 C 0.46685 0.37911 0.5307 0.0
C347 C 0.42969 0.34082 0.40919 0.0
C348 C 0.43352 0.28512 0.36536 0.0
C349 C 0.43049 0.30278 0.4013 0.0
C350 C 0.44555 0.36829 0.49561 0.0
C351 C 0.43699 0.3441 0.46551 0.0
H352 H 0.47673 0.2701 0.34352 0.0
H353 H 0.46627 0.29179 0.41096 0.0
H354 H 0.42264 0.31948 0.33363 0.0
H355 H 0.43855 0.41801 0.48553 0.0
H356 H 0.41803 0.37448 0.45735 0.0
C357 C 0.53365 0.81164 0.92339 0.0
C358 C 0.51442 0.78738 0.91898 0.0
C359 C 0.53476 0.82835 0.88629 0.0
C360 C 0.49713 0.8396 0.78522 0.0
H361 H 0.5598 0.89162 0.74978 0.0
C362 C 0.50772 0.91888 0.65632 0.0
C363 C 0.52134 0.94143 0.68693 0.0
C364 C 0.50839 0.89817 0.67259 0.0
C365 C 0.54218 0.87707 0.75891 0.0
H366 H 0.48131 0.76159 0.87167 0.0
H367 H 0.48348 0.79069 0.80586 0.0
H368 H 0.55713 0.85831 0.80182 0.0
H369 H 0.54771 0.96059 0.75541 0.0
H370 H 0.54961 0.92479 0.78244 0.0
H371 H 0.48233 0.85867 0.74238 0.0
C372 C 0.49752 0.79692 0.83875 0.0
C373 C 0.5406 0.85808 0.7892 0.0
C374 C 0.49628 0.7802 0.8764 0.0
C375 C 0.53707 0.9434 0.73112 0.0
C376 C 0.53817 0.92292 0.74652 0.0
C377 C 0.49871 0.85845 0.7542 0.0
C378 C 0.51684 0.82124 0.84315 0.0
C379 C 0.51813 0.83952 0.80444 0.0
C380 C 0.52318 0.89991 0.71876 0.0
C381 C 0.5213 0.87775 0.74219 0.0
H382 H 0.54785 0.81789 0.95595 0.0
H383 H 0.54957 0.84701 0.89215 0.0
H384 H 0.47953 0.82581 0.79639 0.0
H385 H 0.4953 0.91687 0.62235 0.0
H386 H 0.49674 0.88064 0.65039 0.0
C387 C 0.71651 0.53288 0.97177 0.0
C388 C 0.73843 0.55519 0.97867 0.0
C389 C 0.69681 0.53108 0.94112 0.0
C390 C 0.68136 0.55829 0.82968 0.0
H391 H 0.6167 0.52255 0.87948 0.0
C392 C 0.6007 0.55078 0.70265 0.0
C393 C 0.57948 0.52784 0.69696 0.0
C394 C 0.61927 0.55532 0.7413 0.0
C395 C 0.63461 0.53237 0.86481 0.0
H396 H 0.7568 0.59319 0.95915 0.0
H397 H 0.7222 0.58993 0.90463 0.0
H398 H 0.65115 0.52891 0.93932 0.0
H399 H 0.56066 0.49193 0.72863 0.0
H400 H 0.59358 0.49963 0.79565 0.0
H401 H 0.66498 0.5612 0.75469 0.0
C402 C 0.72043 0.57387 0.92318 0.0
C403 C 0.65431 0.53611 0.89912 0.0
C404 C 0.74018 0.57575 0.9544 0.0
C405 C 0.57685 0.50975 0.7321 0.0
C406 C 0.59566 0.51423 0.77058 0.0
C407 C 0.66169 0.55443 0.79527 0.0
C408 C 0.69857 0.55149 0.91632 0.0
C409 C 0.67785 0.54898 0.8817 0.0
C410 C 0.61725 0.53696 0.77486 0.0
C411 C 0.63807 0.54136 0.81233 0.0
H412 H 0.71448 0.51668 0.99012 0.0
H413 H 0.6803 0.51353 0.9359 0.0
H414 H 0.69926 0.56791 0.81486 0.0
H415 H 0.60307 0.5653 0.67694 0.0
H416 H 0.63534 0.57323 0.74454 0.0
C417 C 0.13978 0.73475 0.01184 0.0
C418 C 0.16412 0.74508 0.00083 0.0
C419 C 0.12179 0.71711 0.97429 0.0
C420 C 0.10967 0.68686 0.83365 0.0
H421 H 0.07449 0.6271 0.90754 0.0
C422 C 0.07147 0.59077 0.72319 0.0
C423 C 0.05093 0.57119 0.74269 0.0
C424 C 0.08186 0.61416 0.75004 0.0
C425 C 0.08362 0.64361 0.8859 0.0
H426 H 0.18882 0.74712 0.94065 0.0
H427 H 0.15759 0.71686 0.87495 0.0
H428 H 0.0972 0.66579 0.96128 0.0
H429 H 0.02403 0.56092 0.8025 0.0
H430 H 0.04144 0.60156 0.84773 0.0
H431 H 0.09644 0.66453 0.75814 0.0
C432 C 0.15221 0.72207 0.91224 0.0
C433 C 0.09664 0.66586 0.91693 0.0
C434 C 0.17011 0.73927 0.95 0.0
C435 C 0.04031 0.57557 0.78759 0.0
C436 C 0.05032 0.59891 0.81357 0.0
C437 C 0.09637 0.66456 0.80242 0.0
C438 C 0.12799 0.71 0.92501 0.0
C439 C 0.11033 0.68763 0.89128 0.0
C440 C 0.07158 0.61842 0.79614 0.0
C441 C 0.08367 0.64256 0.82826 0.0
H442 H 0.13481 0.73892 0.05096 0.0
H443 H 0.1032 0.70811 0.98495 0.0
H444 H 0.12004 0.70342 0.81284 0.0
H445 H 0.07989 0.58785 0.68841 0.0
H446 H 0.09836 0.62866 0.73569 0.0
C447 C 0.50984 0.2042 0.05701 0.0
C448 C 0.48563 0.19658 0.06615 0.0
C449 C 0.51567 0.19025 0.02205 0.0
C450 C 0.49085 0.14266 0.90836 0.0
H451 H 0.54423 0.13307 0.95353 0.0
C452 C 0.52482 0.0719 0.84427 0.0
C453 C 0.52032 0.07079 0.78721 0.0
C454 C 0.52519 0.09057 0.87785 0.0
C455 C 0.52931 0.13561 0.94036 0.0
H456 H 0.44852 0.16841 0.04498 0.0
H457 H 0.45874 0.14385 0.98366 0.0
H458 H 0.53356 0.15758 0.01348 0.0
H459 H 0.51584 0.08987 0.71993 0.0
H460 H 0.51719 0.12274 0.77829 0.0
H461 H 0.48608 0.12016 0.83609 0.0
C462 C 0.47318 0.1608 0.00351 0.0
C463 C 0.52328 0.14977 0.97448 0.0
C464 C 0.46732 0.17481 0.0387 0.0
C465 C 0.51898 0.0901 0.76392 0.0
C466 C 0.51952 0.10879 0.79735 0.0
C467 C 0.4969 0.12859 0.87425 0.0
C468 C 0.49746 0.1683 0.99522 0.0
C469 C 0.50391 0.15335 0.95893 0.0
C470 C 0.52127 0.10847 0.85474 0.0
C471 C 0.51616 0.12484 0.88987 0.0
H472 H 0.52445 0.22095 0.07719 0.0
H473 H 0.53449 0.19675 0.01579 0.0
H474 H 0.47599 0.14527 0.89498 0.0
H475 H 0.52585 0.05722 0.86332 0.0
H476 H 0.52665 0.08985 0.92195 0.0
C477 C 0.29668 0.46834 0.02275 0.0
C478 C 0.29457 0.48869 0.03953 0.0
C479 C 0.318 0.47146 0.00259 0.0
C480 C 0.37376 0.51494 0.94182 0.0
H481 H 0.39467 0.47011 0.98921 0.0
C482 C 0.45632 0.51355 0.85665 0.0
C483 C 0.45014 0.49014 0.8344 0.0
C484 C 0.44086 0.51653 0.89107 0.0
C485 C 0.38914 0.48284 0.97583 0.0
H486 H 0.31298 0.52836 0.04636 0.0
H487 H 0.35041 0.5338 0.01078 0.0
H488 H 0.36001 0.46946 0.02845 0.0
H489 H 0.42395 0.45146 0.83325 0.0
H490 H 0.3974 0.45655 0.89384 0.0
H491 H 0.40263 0.52784 0.88806 0.0
C492 C 0.33545 0.51543 0.01334 0.0
C493 C 0.36922 0.48239 0.99802 0.0
C494 C 0.31401 0.5123 0.03363 0.0
C495 C 0.42913 0.46972 0.84978 0.0
C496 C 0.41398 0.47263 0.8847 0.0
C497 C 0.3938 0.51544 0.91964 0.0
C498 C 0.33783 0.495 0.99875 0.0
C499 C 0.3608 0.49786 0.97997 0.0
C500 C 0.4193 0.49609 0.90456 0.0
C501 C 0.4012 0.49885 0.93522 0.0
H502 H 0.28202 0.44989 0.02628 0.0
H503 H 0.31901 0.45534 0.99033 0.0
H504 H 0.36771 0.52707 0.92705 0.0
H505 H 0.47234 0.5296 0.84504 0.0
H506 H 0.44542 0.5348 0.90605 0.0
C507 C 0.81807 0.30259 0.97299 0.0
C508 C 0.79731 0.30141 0.99308 0.0
C509 C 0.83049 0.31867 0.9334 0.0
C510 C 0.84069 0.37533 0.87339 0.0
H511 H 0.87154 0.35492 0.76699 0.0
C512 C 0.91549 0.41441 0.69627 0.0
C513 C 0.9326 0.43634 0.7255 0.0
C514 C 0.89377 0.39861 0.71879 0.0
C515 C 0.8627 0.36093 0.79537 0.0
H516 H 0.77336 0.31639 0.98733 0.0
H517 H 0.79507 0.3445 0.91723 0.0
H518 H 0.84321 0.32532 0.82518 0.0
H519 H 0.93927 0.45983 0.79916 0.0
H520 H 0.90215 0.43217 0.83887 0.0
H521 H 0.86014 0.41097 0.84319 0.0
C522 C 0.80179 0.33302 0.9327 0.0
C523 C 0.8467 0.34396 0.82955 0.0
C524 C 0.78933 0.3169 0.97276 0.0
C525 C 0.92668 0.44295 0.77568 0.0
C526 C 0.90514 0.4271 0.79835 0.0
C527 C 0.85655 0.39231 0.83872 0.0
C528 C 0.82245 0.33395 0.91231 0.0
C529 C 0.83623 0.35114 0.87042 0.0
C530 C 0.88879 0.40429 0.77122 0.0
C531 C 0.86845 0.38553 0.8006 0.0
H532 H 0.82489 0.29112 0.98802 0.0
H533 H 0.84668 0.31933 0.91989 0.0
H534 H 0.8329 0.3815 0.90428 0.0
H535 H 0.91929 0.40892 0.6571 0.0
H536 H 0.88133 0.38149 0.69598 0.0
C537 C 0.82831 0.54023 0.92404 0.0
C538 C 0.81301 0.52032 0.95374 0.0
C539 C 0.84378 0.53835 0.88829 0.0
C540 C 0.87514 0.50375 0.86352 0.0
H541 H 0.89232 0.54006 0.73281 0.0
C542 C 0.94452 0.50518 0.71509 0.0
C543 C 0.96139 0.52836 0.6987 0.0
C544 C 0.92519 0.50215 0.74498 0.0
C545 C 0.88778 0.52993 0.76935 0.0
H546 H 0.80123 0.4824 0.96733 0.0
H547 H 0.8281 0.47894 0.90376 0.0
H548 H 0.85902 0.53698 0.78318 0.0
H549 H 0.97128 0.56666 0.70188 0.0
H550 H 0.93743 0.56129 0.75353 0.0
H551 H 0.90403 0.49671 0.84919 0.0
C552 C 0.82835 0.49617 0.90902 0.0
C553 C 0.8687 0.52815 0.79824 0.0
C554 C 0.81281 0.49808 0.94505 0.0
C555 C 0.95862 0.54851 0.71359 0.0
C556 C 0.93917 0.54544 0.74297 0.0
C557 C 0.89413 0.50534 0.83421 0.0
C558 C 0.84431 0.51645 0.88092 0.0
C559 C 0.8625 0.51555 0.84644 0.0
C560 C 0.92212 0.52219 0.75846 0.0
C561 C 0.90097 0.51893 0.78756 0.0
H562 H 0.82897 0.55766 0.92965 0.0
H563 H 0.85602 0.55446 0.86811 0.0
H564 H 0.87105 0.49412 0.90075 0.0
H565 H 0.94579 0.48921 0.70342 0.0
H566 H 0.91222 0.48399 0.75602 0.0
C567 C 0.26785 0.8305 0.97761 0.0
C568 C 0.27014 0.81006 0.98913 0.0
C569 C 0.2844 0.84869 0.94673 0.0
C570 C 0.33026 0.86415 0.84838 0.0
H571 H 0.35987 0.9292 0.92186 0.0
C572 C 0.39927 0.95159 0.74887 0.0
C573 C 0.42137 0.96453 0.78048 0.0
C574 C 0.37885 0.93342 0.77175 0.0
C575 C 0.35163 0.91117 0.90076 0.0
H576 H 0.29087 0.79204 0.97429 0.0
H577 H 0.31987 0.824 0.91922 0.0
H578 H 0.32775 0.89454 0.96418 0.0
H579 H 0.43917 0.96976 0.86128 0.0
H580 H 0.4033 0.9387 0.90173 0.0
H581 H 0.35435 0.88093 0.78501 0.0
C582 C 0.30519 0.8258 0.93473 0.0
C583 C 0.33325 0.89138 0.92481 0.0
C584 C 0.28865 0.80757 0.96628 0.0
C585 C 0.42234 0.96007 0.83609 0.0
C586 C 0.40185 0.94233 0.8592 0.0
C587 C 0.34842 0.88407 0.82381 0.0
C588 C 0.30354 0.84682 0.92608 0.0
C589 C 0.32255 0.86766 0.89912 0.0
C590 C 0.38013 0.92836 0.82685 0.0
C591 C 0.35942 0.9077 0.85015 0.0
H592 H 0.25368 0.83297 0.99399 0.0
H593 H 0.28254 0.86454 0.93997 0.0
H594 H 0.3222 0.84605 0.82774 0.0
H595 H 0.39812 0.95448 0.70572 0.0
H596 H 0.36222 0.92295 0.74616 0.0
C597 C 0.52349 0.32284 0.07818 0.0
C598 C 0.50318 0.29944 0.0803 0.0
C599 C 0.52416 0.33833 0.03766 0.0
C600 C 0.48305 0.34731 0.94157 0.0
H601 H 0.54094 0.38811 0.8682 0.0
C602 C 0.48002 0.40085 0.75942 0.0
C603 C 0.49811 0.42561 0.76152 0.0
C604 C 0.48209 0.38478 0.79416 0.0
C605 C 0.52464 0.3769 0.88851 0.0
H606 H 0.46797 0.2738 0.04024 0.0
H607 H 0.46934 0.30031 0.97011 0.0
H608 H 0.54198 0.36228 0.93906 0.0
H609 H 0.5334 0.45239 0.79925 0.0
H610 H 0.53693 0.42443 0.85957 0.0
H611 H 0.46569 0.36186 0.89147 0.0
C612 C 0.48454 0.3071 0.00023 0.0
C613 C 0.52527 0.36217 0.92931 0.0
C614 C 0.48384 0.29178 0.04052 0.0
C615 C 0.51901 0.43348 0.79667 0.0
C616 C 0.52111 0.4174 0.83121 0.0
C617 C 0.4824 0.36191 0.90081 0.0
C618 C 0.50454 0.33069 0.99847 0.0
C619 C 0.50442 0.34708 0.9562 0.0
C620 C 0.50236 0.39303 0.83163 0.0
C621 C 0.50314 0.37685 0.87358 0.0
H622 H 0.53871 0.3293 0.10812 0.0
H623 H 0.53981 0.35644 0.03774 0.0
H624 H 0.46676 0.33638 0.96215 0.0
H625 H 0.46372 0.39411 0.73277 0.0
H626 H 0.46751 0.36598 0.79266 0.0
C627 C 0.18191 0.4482 0.96734 0.0
C628 C 0.1811 0.43141 0.00439 0.0
C629 C 0.16276 0.44158 0.92841 0.0
C630 C 0.09796 0.40252 0.91263 0.0
H631 H 0.10619 0.42782 0.76834 0.0
C632 C 0.04264 0.42138 0.72538 0.0
C633 C 0.03428 0.43423 0.75747 0.0
C634 C 0.05693 0.41283 0.74977 0.0
C635 C 0.10342 0.42012 0.80799 0.0
H636 H 0.16008 0.39414 0.02802 0.0
H637 H 0.12637 0.38267 0.96017 0.0
H638 H 0.14011 0.42833 0.81891 0.0
H639 H 0.0327 0.44646 0.84058 0.0
H640 H 0.05745 0.43151 0.88295 0.0
H641 H 0.0616 0.39541 0.9028 0.0
C642 C 0.14189 0.40094 0.9614 0.0
C643 C 0.12291 0.42063 0.83711 0.0
C644 C 0.16121 0.40749 7e-05 0.0
C645 C 0.03904 0.43682 0.81469 0.0
C646 C 0.05305 0.42804 0.83905 0.0
C647 C 0.07851 0.40214 0.88363 0.0
C648 C 0.14229 0.41808 0.92593 0.0
C649 C 0.12062 0.41271 0.89056 0.0
C650 C 0.06279 0.41666 0.8067 0.0
C651 C 0.08132 0.41181 0.83192 0.0
H652 H 0.19704 0.46672 0.96943 0.0
H653 H 0.16349 0.4553 0.9021 0.0
H654 H 0.09567 0.39637 0.95383 0.0
H655 H 0.03925 0.41908 0.68117 0.0
H656 H 0.0641 0.40397 0.72395 0.0
C657 C 0.71171 0.18879 0.96834 0.0
C658 C 0.73345 0.1898 0.98535 0.0
C659 C 0.69382 0.16869 0.93637 0.0
C660 C 0.68202 0.11834 0.83969 0.0
H661 H 0.61666 0.09072 0.88501 0.0
C662 C 0.6019 0.03795 0.71385 0.0
C663 C 0.58128 0.04019 0.70493 0.0
C664 C 0.62025 0.05345 0.7531 0.0
C665 C 0.63477 0.0983 0.87161 0.0
H666 H 0.75384 0.17086 0.98021 0.0
H667 H 0.72241 0.13563 0.92292 0.0
H668 H 0.65004 0.12365 0.94216 0.0
H669 H 0.56346 0.06003 0.731 0.0
H670 H 0.59558 0.08732 0.79891 0.0
H671 H 0.66673 0.0937 0.76809 0.0
C672 C 0.71934 0.15048 0.93511 0.0
C673 C 0.65386 0.11708 0.90439 0.0
C674 C 0.73728 0.17061 0.96775 0.0
C675 C 0.57899 0.05767 0.73735 0.0
C676 C 0.59743 0.0733 0.77636 0.0
C677 C 0.66287 0.09965 0.80659 0.0
C678 C 0.69727 0.14917 0.92021 0.0
C679 C 0.67758 0.12759 0.88819 0.0
C680 C 0.61846 0.07164 0.784 0.0
C681 C 0.63897 0.08974 0.82171 0.0
H682 H 0.70815 0.20328 0.98084 0.0
H683 H 0.67717 0.16836 0.92447 0.0
H684 H 0.70014 0.12626 0.82618 0.0
H685 H 0.60405 0.02444 0.68992 0.0
H686 H 0.63599 0.05138 0.75872 0.0
C687 C 0.57539 0.71761 0.94196 0.0
C688 C 0.56763 0.73436 0.9321 0.0
C689 C 0.57914 0.70536 0.89791 0.0
C690 C 0.58769 0.68143 0.79871 0.0
H691 H 0.53557 0.6601 0.6858 0.0
C692 C 0.55868 0.59482 0.66028 0.0
C693 C 0.53383 0.5785 0.66049 0.0
C694 C 0.56812 0.61961 0.67627 0.0
C695 C 0.55036 0.66597 0.71671 0.0
H696 H 0.55953 0.75316 0.87002 0.0
H697 H 0.56739 0.73292 0.79307 0.0
H698 H 0.54437 0.69385 0.75093 0.0
H699 H 0.49916 0.57483 0.67472 0.0
H700 H 0.51533 0.61783 0.70262 0.0
H701 H 0.59203 0.65189 0.76738 0.0
C702 C 0.56981 0.72844 0.83429 0.0
C703 C 0.55568 0.68563 0.75386 0.0
C704 C 0.56557 0.74026 0.87825 0.0
C705 C 0.51835 0.58733 0.67329 0.0
C706 C 0.5277 0.61201 0.68918 0.0
C707 C 0.58214 0.66152 0.7619 0.0
C708 C 0.57541 0.7099 0.84333 0.0
C709 C 0.57371 0.69294 0.79691 0.0
C710 C 0.55279 0.62829 0.69305 0.0
C711 C 0.56265 0.65286 0.7221 0.0
H712 H 0.57673 0.71261 0.98332 0.0
H713 H 0.58314 0.69105 0.90678 0.0
H714 H 0.6021 0.68692 0.83039 0.0
H715 H 0.5709 0.58813 0.65136 0.0
H716 H 0.58748 0.63169 0.67829 0.0
C717 C 0.52457 0.22136 0.34196 0.0
C718 C 0.50415 0.21333 0.30526 0.0
C719 C 0.52497 0.20607 0.38183 0.0
C720 C 0.48343 0.14962 0.45037 0.0
H721 H 0.5392 0.14133 0.47119 0.0
C722 C 0.47955 0.05945 0.49318 0.0
C723 C 0.49565 0.0594 0.53378 0.0
C724 C 0.48067 0.08132 0.48045 0.0
C725 C 0.52366 0.14381 0.4667 0.0
H726 H 0.46832 0.18274 0.28138 0.0
H727 H 0.46925 0.15642 0.34887 0.0
H728 H 0.54205 0.17473 0.41852 0.0
H729 H 0.52511 0.0819 0.59417 0.0
H730 H 0.52765 0.12059 0.57036 0.0
H731 H 0.46459 0.11761 0.49504 0.0
C732 C 0.48474 0.17463 0.34846 0.0
C733 C 0.52528 0.16295 0.43658 0.0
C734 C 0.48432 0.18976 0.30914 0.0
C735 C 0.51231 0.08149 0.56314 0.0
C736 C 0.51389 0.10356 0.54929 0.0
C737 C 0.48174 0.13036 0.47967 0.0
C738 C 0.50492 0.18254 0.38569 0.0
C739 C 0.50488 0.16549 0.42624 0.0
C740 C 0.49834 0.10366 0.50709 0.0
C741 C 0.5016 0.12681 0.48661 0.0
H742 H 0.54013 0.23942 0.34009 0.0
H743 H 0.54083 0.21272 0.40986 0.0
H744 H 0.46754 0.15143 0.44458 0.0
H745 H 0.46666 0.04265 0.4698 0.0
H746 H 0.4686 0.08091 0.44748 0.0
C747 C 0.27 0.43336 0.27096 0.0
C748 C 0.27309 0.45485 0.24875 0.0
C749 C 0.28843 0.43392 0.30487 0.0
C750 C 0.35388 0.46822 0.32939 0.0
H751 H 0.34334 0.43855 0.46878 0.0
C752 C 0.43226 0.48593 0.48359 0.0
C753 C 0.42934 0.46711 0.51673 0.0
C754 C 0.41316 0.48302 0.44832 0.0
C755 C 0.34655 0.44654 0.42947 0.0
H756 H 0.29758 0.49392 0.24637 0.0
H757 H 0.32963 0.49475 0.30514 0.0
H758 H 0.30934 0.43613 0.41426 0.0
H759 H 0.40464 0.42994 0.53651 0.0
H760 H 0.37156 0.42459 0.47387 0.0
H761 H 0.39094 0.47839 0.34383 0.0
C762 C 0.31305 0.4775 0.296 0.0
C763 C 0.32707 0.44524 0.39848 0.0
C764 C 0.2946 0.47701 0.2627 0.0
C765 C 0.40732 0.44492 0.51208 0.0
C766 C 0.38831 0.44191 0.4764 0.0
C767 C 0.3733 0.46929 0.36001 0.0
C768 C 0.31031 0.4559 0.31655 0.0
C769 C 0.33064 0.45635 0.34854 0.0
C770 C 0.39081 0.46111 0.44499 0.0
C771 C 0.36993 0.45871 0.41074 0.0
H772 H 0.25364 0.41601 0.26098 0.0
H773 H 0.28592 0.41701 0.32028 0.0
H774 H 0.357 0.47659 0.29049 0.0
H775 H 0.44899 0.50329 0.48641 0.0
H776 H 0.4157 0.4983 0.42521 0.0
C777 C 0.81968 0.29274 0.25923 0.0
C778 C 0.82491 0.2804 0.21773 0.0
C779 C 0.83785 0.30927 0.29768 0.0
C780 C 0.90015 0.3537 0.30416 0.0
H781 H 0.89723 0.35726 0.46215 0.0
C782 C 0.97358 0.43685 0.43419 0.0
C783 C 0.96649 0.44575 0.47892 0.0
C784 C 0.95791 0.41384 0.40831 0.0
C785 C 0.89823 0.35673 0.41807 0.0
H786 H 0.85294 0.27492 0.185 0.0
H787 H 0.88497 0.30459 0.25135 0.0
H788 H 0.86616 0.32141 0.4065 0.0
H789 H 0.938 0.43751 0.53326 0.0
H790 H 0.9098 0.39789 0.48589 0.0
H791 H 0.93087 0.38943 0.31407 0.0
C792 C 0.86671 0.30111 0.2544 0.0
C793 C 0.88055 0.33608 0.38641 0.0
C794 C 0.84842 0.28416 0.21662 0.0
C795 C 0.94376 0.43098 0.49861 0.0
C796 C 0.92773 0.40818 0.47164 0.0
C797 C 0.91745 0.37452 0.33547 0.0
C798 C 0.86162 0.31408 0.29461 0.0
C799 C 0.88135 0.33452 0.3292 0.0
C800 C 0.93444 0.39949 0.4254 0.0
C801 C 0.9167 0.37646 0.3929 0.0
H802 H 0.80166 0.29005 0.2612 0.0
H803 H 0.83356 0.31923 0.32807 0.0
H804 H 0.90086 0.35307 0.25994 0.0
H805 H 0.99129 0.44775 0.41911 0.0
H806 H 0.96417 0.40753 0.37429 0.0
C807 C 0.54605 0.80625 0.2052 0.0
C808 C 0.52764 0.79117 0.16498 0.0
C809 C 0.54182 0.81933 0.24655 0.0
C810 C 0.50425 0.84645 0.27275 0.0
H811 H 0.52678 0.85179 0.4251 0.0
C812 C 0.49357 0.90972 0.429 0.0
C813 C 0.51419 0.92485 0.46402 0.0
C814 C 0.49155 0.88926 0.39961 0.0
C815 C 0.52049 0.85061 0.38268 0.0
H816 H 0.49022 0.77768 0.1372 0.0
H817 H 0.48301 0.8007 0.20892 0.0
H818 H 0.53127 0.82461 0.35873 0.0
H819 H 0.54801 0.92927 0.49873 0.0
H820 H 0.54484 0.89424 0.44656 0.0
H821 H 0.49447 0.87314 0.29547 0.0
C822 C 0.50069 0.80241 0.20842 0.0
C823 C 0.52305 0.83502 0.34476 0.0
C824 C 0.50483 0.78918 0.16745 0.0
C825 C 0.53191 0.91809 0.47194 0.0
C826 C 0.53002 0.89782 0.44212 0.0
C827 C 0.50193 0.86221 0.31042 0.0
C828 C 0.51917 0.81775 0.24813 0.0
C829 C 0.51519 0.83301 0.28931 0.0
C830 C 0.51021 0.88363 0.40414 0.0
C831 C 0.51029 0.86476 0.36578 0.0
H832 H 0.56379 0.80811 0.20454 0.0
H833 H 0.55646 0.8312 0.27639 0.0
H834 H 0.4983 0.8455 0.23012 0.0
H835 H 0.47942 0.9142 0.42256 0.0
H836 H 0.47572 0.87835 0.37188 0.0
C837 C 0.71897 0.50447 0.20136 0.0
C838 C 0.74028 0.52675 0.19648 0.0
C839 C 0.70078 0.50372 0.23239 0.0
C840 C 0.68654 0.53691 0.33818 0.0
H841 H 0.62419 0.50711 0.25646 0.0
C842 C 0.60702 0.54596 0.41694 0.0
C843 C 0.58391 0.52513 0.40879 0.0
C844 C 0.62661 0.54669 0.39176 0.0
C845 C 0.64134 0.5152 0.28034 0.0
H846 H 0.76003 0.56532 0.22353 0.0
H847 H 0.72846 0.56386 0.27847 0.0
H848 H 0.65761 0.50564 0.21645 0.0
H849 H 0.56335 0.48884 0.36721 0.0
H850 H 0.59727 0.4899 0.32491 0.0
H851 H 0.6702 0.54616 0.40252 0.0
C852 C 0.72572 0.54706 0.25795 0.0
C853 C 0.6605 0.51433 0.25732 0.0
C854 C 0.74376 0.54788 0.22636 0.0
C855 C 0.5808 0.5053 0.37418 0.0
C856 C 0.60034 0.50595 0.34956 0.0
C857 C 0.66725 0.53752 0.36161 0.0
C858 C 0.70374 0.52515 0.25974 0.0
C859 C 0.68328 0.52516 0.28595 0.0
C860 C 0.62355 0.52656 0.35821 0.0
C861 C 0.64438 0.52665 0.33296 0.0
H862 H 0.71574 0.4879 0.17871 0.0
H863 H 0.68409 0.48653 0.23364 0.0
H864 H 0.70393 0.54539 0.36115 0.0
H865 H 0.61007 0.56157 0.44327 0.0
H866 H 0.64415 0.56304 0.39865 0.0
C867 C 0.18865 0.72823 0.25711 0.0
C868 C 0.20241 0.72351 0.22033 0.0
C869 C 0.18017 0.71458 0.30273 0.0
C870 C 0.16387 0.65513 0.35418 0.0
H871 H 0.16152 0.68633 0.49198 0.0
C872 C 0.11109 0.59587 0.52293 0.0
C873 C 0.09409 0.60163 0.54269 0.0
C874 C 0.13064 0.61298 0.49599 0.0
C875 C 0.16205 0.67733 0.45385 0.0
H876 H 0.21803 0.70061 0.20294 0.0
H877 H 0.2029 0.67644 0.28292 0.0
H878 H 0.18319 0.71141 0.4179 0.0
H879 H 0.0856 0.63056 0.55508 0.0
H880 H 0.11954 0.66042 0.50752 0.0
H881 H 0.14194 0.62108 0.38884 0.0
C882 C 0.19876 0.69083 0.2761 0.0
C883 C 0.17445 0.69169 0.41137 0.0
C884 C 0.20741 0.70465 0.23031 0.0
C885 C 0.09851 0.62568 0.54061 0.0
C886 C 0.11798 0.64277 0.51304 0.0
C887 C 0.15144 0.64079 0.39655 0.0
C888 C 0.18512 0.69575 0.31294 0.0
C889 C 0.17495 0.68072 0.36053 0.0
C890 C 0.13345 0.63613 0.48768 0.0
C891 C 0.14987 0.65167 0.4465 0.0
H892 H 0.1844 0.74259 0.25088 0.0
H893 H 0.16931 0.71854 0.32951 0.0
H894 H 0.16366 0.64609 0.31542 0.0
H895 H 0.10821 0.57749 0.52441 0.0
H896 H 0.14262 0.60749 0.47845 0.0
loop_
_geom_bond_atom_site_label_1
_geom_bond_atom_site_label_2
_geom_bond_distance
_geom_bond_site_symmetry_2
_ccdc_geom_bond_type
C0 O2 1.247 . S
C0 O4 1.258 . S
C1 O8 1.247 . S
C1 O9 1.258 . S
O2 C0 1.247 . S
O2 Zn3 2.028 . S
Zn3 O2 2.028 . S
Zn3 O7 2.035 . S
Zn3 O9 2.035 . S
Zn3 O10 2.028 . S
O4 C0 1.258 . S
O4 Zn5 2.035 . S
Zn5 O4 2.035 . S
Zn5 O6 2.028 . S
Zn5 O8 2.028 . S
Zn5 O11 2.035 . S
O6 Zn5 2.028 . S
O6 C12 1.247 . S
O7 Zn3 2.035 . S
O7 C12 1.258 . S
O8 C1 1.247 . S
O8 Zn5 2.028 . S
O9 C1 1.258 . S
O9 Zn3 2.035 . S
O10 Zn3 2.028 . S
O10 C13 1.247 . S
O11 Zn5 2.035 . S
O11 C13 1.258 . S
C12 O6 1.247 . S
C12 O7 1.258 . S
C13 O10 1.247 . S
C13 O11 1.258 . S
C14 O16 1.247 . S
C14 O18 1.258 . S
C15 O22 1.247 . S
C15 O23 1.258 . S
O16 C14 1.247 . S
O16 Zn17 2.028 . S
Zn17 O16 2.028 . S
Zn17 O21 2.035 . S
Zn17 O23 2.035 . S
Zn17 O24 2.028 . S
O18 C14 1.258 . S
O18 Zn19 2.035 . S
Zn19 O18 2.035 . S
Zn19 O20 2.028 . S
Zn19 O22 2.028 . S
Zn19 O25 2.035 . S
O20 Zn19 2.028 . S
O20 C26 1.247 . S
O21 Zn17 2.035 . S
O21 C26 1.258 . S
O22 C15 1.247 . S
O22 Zn19 2.028 . S
O23 C15 1.258 . S
O23 Zn17 2.035 . S
O24 Zn17 2.028 . S
O24 C27 1.247 . S
O25 Zn19 2.035 . S
O25 C27 1.258 . S
C26 O20 1.247 . S
C26 O21 1.258 . S
C27 O24 1.247 . S
C27 O25 1.258 . S
C28 O30 1.247 . S
C28 O32 1.258 . S
C29 O36 1.247 . S
C29 O37 1.258 . S
O30 C28 1.247 . S
O30 Zn31 2.028 . S
Zn31 O30 2.028 . S
Zn31 O35 2.035 . S
Zn31 O37 2.035 1_554 S
Zn31 O38 2.028 1_554 S
O32 C28 1.258 . S
O32 Zn33 2.035 . S
Zn33 O32 2.035 . S
Zn33 O34 2.028 . S
Zn33 O36 2.028 1_554 S
Zn33 O39 2.035 1_554 S
O34 Zn33 2.028 . S
O34 C40 1.247 . S
O35 Zn31 2.035 . S
O35 C40 1.258 . S
O36 C29 1.247 . S
O36 Zn33 2.028 1_556 S
O37 C29 1.258 . S
O37 Zn31 2.035 1_556 S
O38 Zn31 2.028 1_556 S
O38 C41 1.247 . S
O39 Zn33 2.035 1_556 S
O39 C41 1.258 . S
C40 O34 1.247 . S
C40 O35 1.258 . S
C41 O38 1.247 . S
C41 O39 1.258 . S
C42 O44 1.247 . S
C42 O46 1.258 . S
C43 O50 1.247 . S
C43 O51 1.258 . S
O44 C42 1.247 . S
O44 Zn45 2.028 1_556 S
Zn45 O44 2.028 1_554 S
Zn45 O49 2.035 1_554 S
Zn45 O51 2.035 . S
Zn45 O52 2.028 . S
O46 C42 1.258 . S
O46 Zn47 2.035 1_556 S
Zn47 O46 2.035 1_554 S
Zn47 O48 2.028 1_554 S
Zn47 O50 2.028 . S
Zn47 O53 2.035 . S
O48 Zn47 2.028 1_556 S
O48 C54 1.247 . S
O49 Zn45 2.035 1_556 S
O49 C54 1.258 . S
O50 C43 1.247 . S
O50 Zn47 2.028 . S
O51 C43 1.258 . S
O51 Zn45 2.035 . S
O52 Zn45 2.028 . S
O52 C55 1.247 . S
O53 Zn47 2.035 . S
O53 C55 1.258 . S
C54 O48 1.247 . S
C54 O49 1.258 . S
C55 O52 1.247 . S
C55 O53 1.258 . S
C56 O58 1.247 . S
C56 O60 1.258 . S
C57 O64 1.247 . S
C57 O65 1.258 . S
O58 C56 1.247 . S
O58 Zn59 2.028 . S
Zn59 O58 2.028 . S
Zn59 O63 2.035 . S
Zn59 O65 2.035 . S
Zn59 O66 2.028 . S
O60 C56 1.258 . S
O60 Zn61 2.035 . S
Zn61 O60 2.035 . S
Zn61 O62 2.028 . S
Zn61 O64 2.028 . S
Zn61 O67 2.035 . S
O62 Zn61 2.028 . S
O62 C68 1.247 . S
O63 Zn59 2.035 . S
O63 C68 1.258 . S
O64 C57 1.247 . S
O64 Zn61 2.028 . S
O65 C57 1.258 . S
O65 Zn59 2.035 . S
O66 Zn59 2.028 . S
O66 C69 1.247 . S
O67 Zn61 2.035 . S
O67 C69 1.258 . S
C68 O62 1.247 . S
C68 O63 1.258 . S
C69 O66 1.247 . S
C69 O67 1.258 . S
C70 O72 1.247 . S
C70 O74 1.258 . S
C71 O78 1.247 . S
C71 O79 1.258 . S
O72 C70 1.247 . S
O72 Zn73 2.028 . S
Zn73 O72 2.028 . S
Zn73 O77 2.035 . S
Zn73 O79 2.035 . S
Zn73 O80 2.028 . S
O74 C70 1.258 . S
O74 Zn75 2.035 . S
Zn75 O74 2.035 . S
Zn75 O76 2.028 . S
Zn75 O78 2.028 . S
Zn75 O81 2.035 . S
O76 Zn75 2.028 . S
O76 C82 1.247 . S
O77 Zn73 2.035 . S
O77 C82 1.258 . S
O78 C71 1.247 . S
O78 Zn75 2.028 . S
O79 C71 1.258 . S
O79 Zn73 2.035 . S
O80 Zn73 2.028 . S
O80 C83 1.247 . S
O81 Zn75 2.035 . S
O81 C83 1.258 . S
C82 O76 1.247 . S
C82 O77 1.258 . S
C83 O80 1.247 . S
C83 O81 1.258 . S
C84 O111 1.312 . S
C84 O112 1.208 . S
C85 O106 1.331 . S
C85 O109 1.244 . S
C86 O108 1.264 . S
C86 O110 1.273 . S
Mg87 O89 1.936 1_455 S
Mg87 O96 2.081 1_455 S
Mg87 O98 2.023 . S
Mg87 O102 2.031 1_455 S
Mg87 O111 2.291 . S
Mg88 O89 1.963 . S
Mg88 O99 1.942 . S
Mg88 O100 1.955 1_655 S
Mg88 O107 1.986 . S
O89 Mg87 1.936 1_655 S
O89 Mg88 1.963 . S
O89 Mg90 1.915 1_655 S
Mg90 O89 1.915 1_455 S
Mg90 O91 1.915 . S
Mg90 O95 2.013 . S
Mg90 O101 2.114 1_455 S
Mg90 O105 2.013 1_455 S
Mg90 O111 2.114 . S
O91 Mg90 1.915 . S
O91 Mg92 1.936 . S
O91 Mg93 1.963 . S
Mg92 O91 1.936 . S
Mg92 O101 2.291 1_455 S
Mg92 O106 2.081 . S
Mg92 O108 2.023 1_455 S
Mg92 O112 2.031 . S
Mg93 O91 1.963 . S
Mg93 O97 1.986 . S
Mg93 O109 1.942 . S
Mg93 O110 1.955 1_455 S
C94 O105 1.191 . S
C94 O107 1.307 . S
O95 Mg90 2.013 . S
O95 C114 1.191 . S
O96 Mg87 2.081 1_655 S
O96 C104 1.331 . S
O97 Mg93 1.986 . S
O97 C114 1.307 . S
O98 Mg87 2.023 . S
O98 C113 1.264 . S
O99 Mg88 1.942 . S
O99 C104 1.244 . S
O100 Mg88 1.955 1_455 S
O100 C113 1.273 . S
O101 Mg90 2.114 1_655 S
O101 Mg92 2.291 1_655 S
O101 C103 1.312 . S
O102 Mg87 2.031 1_655 S
O102 C103 1.208 . S
C103 O101 1.312 . S
C103 O102 1.208 . S
C104 O96 1.331 . S
C104 O99 1.244 . S
O105 Mg90 2.013 1_655 S
O105 C94 1.191 . S
O106 C85 1.331 . S
O106 Mg92 2.081 . S
O107 Mg88 1.986 . S
O107 C94 1.307 . S
O108 C86 1.264 . S
O108 Mg92 2.023 1_655 S
O109 C85 1.244 . S
O109 Mg93 1.942 . S
O110 C86 1.273 . S
O110 Mg93 1.955 1_655 S
O111 C84 1.312 . S
O111 Mg87 2.291 . S
O111 Mg90 2.114 . S
O112 C84 1.208 . S
O112 Mg92 2.031 . S
C113 O98 1.264 . S
C113 O100 1.273 . S
C114 O95 1.191 . S
C114 O97 1.307 . S
C115 O142 1.312 . S
C115 O143 1.208 . S
C116 O137 1.331 . S
C116 O140 1.244 . S
C117 O139 1.264 . S
C117 O141 1.273 . S
Mg118 O120 1.936 1_545 S
Mg118 O127 2.081 1_545 S
Mg118 O129 2.023 . S
Mg118 O133 2.031 1_545 S
Mg118 O142 2.291 . S
Mg119 O120 1.963 . S
Mg119 O130 1.942 . S
Mg119 O131 1.955 1_565 S
Mg119 O138 1.986 . S
O120 Mg118 1.936 1_565 S
O120 Mg119 1.963 . S
O120 Mg121 1.915 1_565 S
Mg121 O120 1.915 1_545 S
Mg121 O122 1.915 . S
Mg121 O126 2.013 . S
Mg121 O132 2.114 1_545 S
Mg121 O136 2.013 1_545 S
Mg121 O142 2.114 . S
O122 Mg121 1.915 . S
O122 Mg123 1.936 . S
O122 Mg124 1.963 . S
Mg123 O122 1.936 . S
Mg123 O132 2.291 1_545 S
Mg123 O137 2.081 . S
Mg123 O139 2.023 1_545 S
Mg123 O143 2.031 . S
Mg124 O122 1.963 . S
Mg124 O128 1.986 . S
Mg124 O140 1.942 . S
Mg124 O141 1.955 1_545 S
C125 O136 1.191 . S
C125 O138 1.307 . S
O126 Mg121 2.013 . S
O126 C145 1.191 . S
O127 Mg118 2.081 1_565 S
O127 C135 1.331 . S
O128 Mg124 1.986 . S
O128 C145 1.307 . S
O129 Mg118 2.023 . S
O129 C144 1.264 . S
O130 Mg119 1.942 . S
O130 C135 1.244 . S
O131 Mg119 1.955 1_545 S
O131 C144 1.273 . S
O132 Mg121 2.114 1_565 S
O132 Mg123 2.291 1_565 S
O132 C134 1.312 . S
O133 Mg118 2.031 1_565 S
O133 C134 1.208 . S
C134 O132 1.312 . S
C134 O133 1.208 . S
C135 O127 1.331 . S
C135 O130 1.244 . S
O136 Mg121 2.013 1_565 S
O136 C125 1.191 . S
O137 C116 1.331 . S
O137 Mg123 2.081 . S
O138 Mg119 1.986 . S
O138 C125 1.307 . S
O139 C117 1.264 . S
O139 Mg123 2.023 1_565 S
O140 C116 1.244 . S
O140 Mg124 1.942 . S
O141 C117 1.273 . S
O141 Mg124 1.955 1_565 S
O142 C115 1.312 . S
O142 Mg118 2.291 . S
O142 Mg121 2.114 . S
O143 C115 1.208 . S
O143 Mg123 2.031 . S
C144 O129 1.264 . S
C144 O131 1.273 . S
C145 O126 1.191 . S
C145 O128 1.307 . S
C146 O173 1.312 . S
C146 O174 1.208 . S
C147 O168 1.331 . S
C147 O171 1.244 . S
C148 O170 1.264 . S
C148 O172 1.273 . S
Mg149 O151 1.936 . S
Mg149 O158 2.081 . S
Mg149 O160 2.023 . S
Mg149 O164 2.031 . S
Mg149 O173 2.291 . S
Mg150 O151 1.963 . S
Mg150 O161 1.942 . S
Mg150 O162 1.955 . S
Mg150 O169 1.986 . S
O151 Mg149 1.936 . S
O151 Mg150 1.963 . S
O151 Mg152 1.915 . S
Mg152 O151 1.915 . S
Mg152 O153 1.915 . S
Mg152 O157 2.013 . S
Mg152 O163 2.114 . S
Mg152 O167 2.013 . S
Mg152 O173 2.114 . S
O153 Mg152 1.915 . S
O153 Mg154 1.936 . S
O153 Mg155 1.963 . S
Mg154 O153 1.936 . S
Mg154 O163 2.291 . S
Mg154 O168 2.081 . S
Mg154 O170 2.023 . S
Mg154 O174 2.031 . S
Mg155 O153 1.963 . S
Mg155 O159 1.986 . S
Mg155 O171 1.942 . S
Mg155 O172 1.955 . S
C156 O167 1.191 . S
C156 O169 1.307 . S
O157 Mg152 2.013 . S
O157 C176 1.191 . S
O158 Mg149 2.081 . S
O158 C166 1.331 . S
O159 Mg155 1.986 . S
O159 C176 1.307 . S
O160 Mg149 2.023 . S
O160 C175 1.264 . S
O161 Mg150 1.942 . S
O161 C166 1.244 . S
O162 Mg150 1.955 . S
O162 C175 1.273 . S
O163 Mg152 2.114 . S
O163 Mg154 2.291 . S
O163 C165 1.312 . S
O164 Mg149 2.031 . S
O164 C165 1.208 . S
C165 O163 1.312 . S
C165 O164 1.208 . S
C166 O158 1.331 . S
C166 O161 1.244 . S
O167 Mg152 2.013 . S
O167 C156 1.191 . S
O168 C147 1.331 . S
O168 Mg154 2.081 . S
O169 Mg150 1.986 . S
O169 C156 1.307 . S
O170 C148 1.264 . S
O170 Mg154 2.023 . S
O171 C147 1.244 . S
O171 Mg155 1.942 . S
O172 C148 1.273 . S
O172 Mg155 1.955 . S
O173 C146 1.312 . S
O173 Mg149 2.291 . S
O173 Mg152 2.114 . S
O174 C146 1.208 . S
O174 Mg154 2.031 . S
C175 O160 1.264 . S
C175 O162 1.273 . S
C176 O157 1.191 . S
C176 O159 1.307 . S
C177 C178 1.349 . S
C177 C179 1.327 . S
C177 H202 0.950 . S
C178 C177 1.349 . S
C178 C194 1.349 . S
C179 C177 1.327 . S
C179 C198 1.429 . S
C179 H203 0.950 . S
C180 C197 1.574 . S
C180 C199 1.368 . S
C180 H204 0.949 . S
H181 C185 0.949 . S
C182 C183 1.349 . S
C182 C184 1.327 . S
C182 H205 0.950 . S
C183 C182 1.349 . S
C183 C195 1.349 . S
C184 C182 1.327 . S
C184 C200 1.429 . S
C184 H206 0.950 . S
C185 H181 0.949 . S
C185 C193 1.574 . S
C185 C201 1.368 . S
H186 C194 0.950 . S
H187 C192 0.950 . S
H188 C193 0.949 . S
H189 C195 0.950 . S
H190 C196 0.950 . S
H191 C197 0.949 . S
C192 H187 0.950 . S
C192 C194 1.327 . S
C192 C198 1.429 . S
C193 C185 1.574 . S
C193 H188 0.949 . S
C193 C199 1.368 . S
C194 C178 1.349 . S
C194 H186 0.950 . S
C194 C192 1.327 . S
C195 C183 1.349 . S
C195 H189 0.950 . S
C195 C196 1.327 . S
C196 H190 0.950 . S
C196 C195 1.327 . S
C196 C200 1.429 . S
C197 C180 1.574 . S
C197 H191 0.949 . S
C197 C201 1.368 . S
C198 C179 1.429 . S
C198 C192 1.429 . S
C198 C199 1.523 . S
C199 C180 1.368 . S
C199 C193 1.368 . S
C199 C198 1.523 . S
C200 C184 1.429 . S
C200 C196 1.429 . S
C200 C201 1.523 . S
C201 C185 1.368 . S
C201 C197 1.368 . S
C201 C200 1.523 . S
H202 C177 0.950 . S
H203 C179 0.950 . S
H204 C180 0.949 . S
H205 C182 0.950 . S
H206 C184 0.950 . S
C207 C208 1.349 . S
C207 C209 1.327 . S
C207 H232 0.950 . S
C208 C207 1.349 . S
C208 C224 1.349 . S
C209 C207 1.327 . S
C209 C228 1.429 . S
C209 H233 0.950 . S
C210 C227 1.574 . S
C210 C229 1.368 . S
C210 H234 0.949 . S
H211 C215 0.949 . S
C212 C213 1.349 . S
C212 C214 1.327 . S
C212 H235 0.950 . S
C213 C212 1.349 . S
C213 C225 1.349 . S
C214 C212 1.327 . S
C214 C230 1.429 . S
C214 H236 0.950 . S
C215 H211 0.949 . S
C215 C223 1.574 . S
C215 C231 1.368 . S
H216 C224 0.950 . S
H217 C222 0.950 . S
H218 C223 0.949 . S
H219 C225 0.950 . S
H220 C226 0.950 . S
H221 C227 0.949 . S
C222 H217 0.950 . S
C222 C224 1.327 . S
C222 C228 1.429 . S
C223 C215 1.574 . S
C223 H218 0.949 . S
C223 C229 1.368 . S
C224 C208 1.349 . S
C224 H216 0.950 . S
C224 C222 1.327 . S
C225 C213 1.349 . S
C225 H219 0.950 . S
C225 C226 1.327 . S
C226 H220 0.950 . S
C226 C225 1.327 . S
C226 C230 1.429 . S
C227 C210 1.574 . S
C227 H221 0.949 . S
C227 C231 1.368 . S
C228 C209 1.429 . S
C228 C222 1.429 . S
C228 C229 1.523 . S
C229 C210 1.368 . S
C229 C223 1.368 . S
C229 C228 1.523 . S
C230 C214 1.429 . S
C230 C226 1.429 . S
C230 C231 1.523 . S
C231 C215 1.368 . S
C231 C227 1.368 . S
C231 C230 1.523 . S
H232 C207 0.950 . S
H233 C209 0.950 . S
H234 C210 0.949 . S
H235 C212 0.950 . S
H236 C214 0.950 . S
C237 C238 1.349 . S
C237 C239 1.327 . S
C237 H262 0.950 . S
C238 C237 1.349 . S
C238 C254 1.349 . S
C239 C237 1.327 . S
C239 C258 1.429 . S
C239 H263 0.950 . S
C240 C257 1.574 . S
C240 C259 1.368 . S
C240 H264 0.949 . S
H241 C245 0.949 . S
C242 C243 1.349 . S
C242 C244 1.327 . S
C242 H265 0.950 . S
C243 C242 1.349 . S
C243 C255 1.349 . S
C244 C242 1.327 . S
C244 C260 1.429 . S
C244 H266 0.950 . S
C245 H241 0.949 . S
C245 C253 1.574 . S
C245 C261 1.368 . S
H246 C254 0.950 . S
H247 C252 0.950 . S
H248 C253 0.949 . S
H249 C255 0.950 . S
H250 C256 0.950 . S
H251 C257 0.949 . S
C252 H247 0.950 . S
C252 C254 1.327 . S
C252 C258 1.429 . S
C253 C245 1.574 . S
C253 H248 0.949 . S
C253 C259 1.368 . S
C254 C238 1.349 . S
C254 H246 0.950 . S
C254 C252 1.327 . S
C255 C243 1.349 . S
C255 H249 0.950 . S
C255 C256 1.327 . S
C256 H250 0.950 . S
C256 C255 1.327 . S
C256 C260 1.429 . S
C257 C240 1.574 . S
C257 H251 0.949 . S
C257 C261 1.368 . S
C258 C239 1.429 . S
C258 C252 1.429 . S
C258 C259 1.523 . S
C259 C240 1.368 . S
C259 C253 1.368 . S
C259 C258 1.523 . S
C260 C244 1.429 . S
C260 C256 1.429 . S
C260 C261 1.523 . S
C261 C245 1.368 . S
C261 C257 1.368 . S
C261 C260 1.523 . S
H262 C237 0.950 . S
H263 C239 0.950 . S
H264 C240 0.949 . S
H265 C242 0.950 . S
H266 C244 0.950 . S
C267 C268 1.349 . S
C267 C269 1.327 . S
C267 H292 0.950 . S
C268 C267 1.349 . S
C268 C284 1.349 . S
C269 C267 1.327 . S
C269 C288 1.429 . S
C269 H293 0.950 . S
C270 C287 1.574 . S
C270 C289 1.368 . S
C270 H294 0.949 . S
H271 C275 0.949 . S
C272 C273 1.349 . S
C272 C274 1.327 . S
C272 H295 0.950 . S
C273 C272 1.349 . S
C273 C285 1.349 . S
C274 C272 1.327 . S
C274 C290 1.429 . S
C274 H296 0.950 . S
C275 H271 0.949 . S
C275 C283 1.574 . S
C275 C291 1.368 . S
H276 C284 0.950 . S
H277 C282 0.950 . S
H278 C283 0.949 . S
H279 C285 0.950 . S
H280 C286 0.950 . S
H281 C287 0.949 . S
C282 H277 0.950 . S
C282 C284 1.327 . S
C282 C288 1.429 . S
C283 C275 1.574 . S
C283 H278 0.949 . S
C283 C289 1.368 . S
C284 C268 1.349 . S
C284 H276 0.950 . S
C284 C282 1.327 . S
C285 C273 1.349 . S
C285 H279 0.950 . S
C285 C286 1.327 . S
C286 H280 0.950 . S
C286 C285 1.327 . S
C286 C290 1.429 . S
C287 C270 1.574 . S
C287 H281 0.949 . S
C287 C291 1.368 . S
C288 C269 1.429 . S
C288 C282 1.429 . S
C288 C289 1.523 . S
C289 C270 1.368 . S
C289 C283 1.368 . S
C289 C288 1.523 . S
C290 C274 1.429 . S
C290 C286 1.429 . S
C290 C291 1.523 . S
C291 C275 1.368 . S
C291 C287 1.368 . S
C291 C290 1.523 . S
H292 C267 0.950 . S
H293 C269 0.950 . S
H294 C270 0.949 . S
H295 C272 0.950 . S
H296 C274 0.950 . S
C297 C298 1.349 . S
C297 C299 1.327 . S
C297 H322 0.950 . S
C298 C297 1.349 . S
C298 C314 1.349 . S
C299 C297 1.327 . S
C299 C318 1.429 . S
C299 H323 0.950 . S
C300 C317 1.574 . S
C300 C319 1.368 . S
C300 H324 0.949 . S
H301 C305 0.949 . S
C302 C303 1.349 . S
C302 C304 1.327 . S
C302 H325 0.950 . S
C303 C302 1.349 . S
C303 C315 1.349 . S
C304 C302 1.327 . S
C304 C320 1.429 . S
C304 H326 0.950 . S
C305 H301 0.949 . S
C305 C313 1.574 . S
C305 C321 1.368 . S
H306 C314 0.950 . S
H307 C312 0.950 . S
H308 C313 0.949 . S
H309 C315 0.950 . S
H310 C316 0.950 . S
H311 C317 0.949 . S
C312 H307 0.950 . S
C312 C314 1.327 . S
C312 C318 1.429 . S
C313 C305 1.574 . S
C313 H308 0.949 . S
C313 C319 1.368 . S
C314 C298 1.349 . S
C314 H306 0.950 . S
C314 C312 1.327 . S
C315 C303 1.349 . S
C315 H309 0.950 . S
C315 C316 1.327 . S
C316 H310 0.950 . S
C316 C315 1.327 . S
C316 C320 1.429 . S
C317 C300 1.574 . S
C317 H311 0.949 . S
C317 C321 1.368 . S
C318 C299 1.429 . S
C318 C312 1.429 . S
C318 C319 1.523 . S
C319 C300 1.368 . S
C319 C313 1.368 . S
C319 C318 1.523 . S
C320 C304 1.429 . S
C320 C316 1.429 . S
C320 C321 1.523 . S
C321 C305 1.368 . S
C321 C317 1.368 . S
C321 C320 1.523 . S
H322 C297 0.950 . S
H323 C299 0.950 . S
H324 C300 0.949 . S
H325 C302 0.950 . S
H326 C304 0.950 . S
C327 C328 1.349 . S
C327 C329 1.327 . S
C327 H352 0.950 . S
C328 C327 1.349 . S
C328 C344 1.349 . S
C329 C327 1.327 . S
C329 C348 1.429 . S
C329 H353 0.950 . S
C330 C347 1.574 . S
C330 C349 1.368 . S
C330 H354 0.949 . S
H331 C335 0.949 . S
C332 C333 1.349 . S
C332 C334 1.327 . S
C332 H355 0.950 . S
C333 C332 1.349 . S
C333 C345 1.349 . S
C334 C332 1.327 . S
C334 C350 1.429 . S
C334 H356 0.950 . S
C335 H331 0.949 . S
C335 C343 1.574 . S
C335 C351 1.368 . S
H336 C344 0.950 . S
H337 C342 0.950 . S
H338 C343 0.949 . S
H339 C345 0.950 . S
H340 C346 0.950 . S
H341 C347 0.949 . S
C342 H337 0.950 . S
C342 C344 1.327 . S
C342 C348 1.429 . S
C343 C335 1.574 . S
C343 H338 0.949 . S
C343 C349 1.368 . S
C344 C328 1.349 . S
C344 H336 0.950 . S
C344 C342 1.327 . S
C345 C333 1.349 . S
C345 H339 0.950 . S
C345 C346 1.327 . S
C346 H340 0.950 . S
C346 C345 1.327 . S
C346 C350 1.429 . S
C347 C330 1.574 . S
C347 H341 0.949 . S
C347 C351 1.368 . S
C348 C329 1.429 . S
C348 C342 1.429 . S
C348 C349 1.523 . S
C349 C330 1.368 . S
C349 C343 1.368 . S
C349 C348 1.523 . S
C350 C334 1.429 . S
C350 C346 1.429 . S
C350 C351 1.523 . S
C351 C335 1.368 . S
C351 C347 1.368 . S
C351 C350 1.523 . S
H352 C327 0.950 . S
H353 C329 0.950 . S
H354 C330 0.949 . S
H355 C332 0.950 . S
H356 C334 0.950 . S
C357 C358 1.349 . S
C357 C359 1.327 . S
C357 H382 0.950 . S
C358 C357 1.349 . S
C358 C374 1.349 . S
C359 C357 1.327 . S
C359 C378 1.429 . S
C359 H383 0.950 . S
C360 C377 1.574 . S
C360 C379 1.368 . S
C360 H384 0.949 . S
H361 C365 0.949 . S
C362 C363 1.349 . S
C362 C364 1.327 . S
C362 H385 0.950 . S
C363 C362 1.349 . S
C363 C375 1.349 . S
C364 C362 1.327 . S
C364 C380 1.429 . S
C364 H386 0.950 . S
C365 H361 0.949 . S
C365 C373 1.574 . S
C365 C381 1.368 . S
H366 C374 0.950 . S
H367 C372 0.950 . S
H368 C373 0.949 . S
H369 C375 0.950 . S
H370 C376 0.950 . S
H371 C377 0.949 . S
C372 H367 0.950 . S
C372 C374 1.327 . S
C372 C378 1.429 . S
C373 C365 1.574 . S
C373 H368 0.949 . S
C373 C379 1.368 . S
C374 C358 1.349 . S
C374 H366 0.950 . S
C374 C372 1.327 . S
C375 C363 1.349 . S
C375 H369 0.950 . S
C375 C376 1.327 . S
C376 H370 0.950 . S
C376 C375 1.327 . S
C376 C380 1.429 . S
C377 C360 1.574 . S
C377 H371 0.949 . S
C377 C381 1.368 . S
C378 C359 1.429 . S
C378 C372 1.429 . S
C378 C379 1.523 . S
C379 C360 1.368 . S
C379 C373 1.368 . S
C379 C378 1.523 . S
C380 C364 1.429 . S
C380 C376 1.429 . S
C380 C381 1.523 . S
C381 C365 1.368 . S
C381 C377 1.368 . S
C381 C380 1.523 . S
H382 C357 0.950 . S
H383 C359 0.950 . S
H384 C360 0.949 . S
H385 C362 0.950 . S
H386 C364 0.950 . S
C387 C388 1.349 . S
C387 C389 1.327 . S
C387 H412 0.950 . S
C388 C387 1.349 . S
C388 C404 1.349 . S
C389 C387 1.327 . S
C389 C408 1.429 . S
C389 H413 0.950 . S
C390 C407 1.574 . S
C390 C409 1.368 . S
C390 H414 0.949 . S
H391 C395 0.949 . S
C392 C393 1.349 . S
C392 C394 1.327 . S
C392 H415 0.950 . S
C393 C392 1.349 . S
C393 C405 1.349 . S
C394 C392 1.327 . S
C394 C410 1.429 . S
C394 H416 0.950 . S
C395 H391 0.949 . S
C395 C403 1.574 . S
C395 C411 1.368 . S
H396 C404 0.950 . S
H397 C402 0.950 . S
H398 C403 0.949 . S
H399 C405 0.950 . S
H400 C406 0.950 . S
H401 C407 0.949 . S
C402 H397 0.950 . S
C402 C404 1.327 . S
C402 C408 1.429 . S
C403 C395 1.574 . S
C403 H398 0.949 . S
C403 C409 1.368 . S
C404 C388 1.349 . S
C404 H396 0.950 . S
C404 C402 1.327 . S
C405 C393 1.349 . S
C405 H399 0.950 . S
C405 C406 1.327 . S
C406 H400 0.950 . S
C406 C405 1.327 . S
C406 C410 1.429 . S
C407 C390 1.574 . S
C407 H401 0.949 . S
C407 C411 1.368 . S
C408 C389 1.429 . S
C408 C402 1.429 . S
C408 C409 1.523 . S
C409 C390 1.368 . S
C409 C403 1.368 . S
C409 C408 1.523 . S
C410 C394 1.429 . S
C410 C406 1.429 . S
C410 C411 1.523 . S
C411 C395 1.368 . S
C411 C407 1.368 . S
C411 C410 1.523 . S
H412 C387 0.950 . S
H413 C389 0.950 . S
H414 C390 0.949 . S
H415 C392 0.950 . S
H416 C394 0.950 . S
C417 C418 1.349 1_554 S
C417 C419 1.327 1_554 S
C417 H442 0.950 . S
C418 C417 1.349 1_556 S
C418 C434 1.349 . S
C419 C417 1.327 1_556 S
C419 C438 1.429 . S
C419 H443 0.950 . S
C420 C437 1.574 . S
C420 C439 1.368 . S
C420 H444 0.949 . S
H421 C425 0.949 . S
C422 C423 1.349 . S
C422 C424 1.327 . S
C422 H445 0.950 . S
C423 C422 1.349 . S
C423 C435 1.349 . S
C424 C422 1.327 . S
C424 C440 1.429 . S
C424 H446 0.950 . S
C425 H421 0.949 . S
C425 C433 1.574 . S
C425 C441 1.368 . S
H426 C434 0.950 . S
H427 C432 0.950 . S
H428 C433 0.949 . S
H429 C435 0.950 . S
H430 C436 0.950 . S
H431 C437 0.949 . S
C432 H427 0.950 . S
C432 C434 1.327 . S
C432 C438 1.429 . S
C433 C425 1.574 . S
C433 H428 0.949 . S
C433 C439 1.368 . S
C434 C418 1.349 . S
C434 H426 0.950 . S
C434 C432 1.327 . S
C435 C423 1.349 . S
C435 H429 0.950 . S
C435 C436 1.327 . S
C436 H430 0.950 . S
C436 C435 1.327 . S
C436 C440 1.429 . S
C437 C420 1.574 . S
C437 H431 0.949 . S
C437 C441 1.368 . S
C438 C419 1.429 . S
C438 C432 1.429 . S
C438 C439 1.523 . S
C439 C420 1.368 . S
C439 C433 1.368 . S
C439 C438 1.523 . S
C440 C424 1.429 . S
C440 C436 1.429 . S
C440 C441 1.523 . S
C441 C425 1.368 . S
C441 C437 1.368 . S
C441 C440 1.523 . S
H442 C417 0.950 . S
H443 C419 0.950 . S
H444 C420 0.949 . S
H445 C422 0.950 . S
H446 C424 0.950 . S
C447 C448 1.349 . S
C447 C449 1.327 1_554 S
C447 H472 0.950 . S
C448 C447 1.349 . S
C448 C464 1.349 . S
C449 C447 1.327 1_556 S
C449 C468 1.429 . S
C449 H473 0.950 . S
C450 C467 1.574 . S
C450 C469 1.368 . S
C450 H474 0.949 . S
H451 C455 0.949 . S
C452 C453 1.349 . S
C452 C454 1.327 . S
C452 H475 0.950 . S
C453 C452 1.349 . S
C453 C465 1.349 . S
C454 C452 1.327 . S
C454 C470 1.429 . S
C454 H476 0.950 . S
C455 H451 0.949 . S
C455 C463 1.574 . S
C455 C471 1.368 . S
H456 C464 0.950 . S
H457 C462 0.950 . S
H458 C463 0.949 . S
H459 C465 0.950 . S
H460 C466 0.950 . S
H461 C467 0.949 . S
C462 H457 0.950 . S
C462 C464 1.327 . S
C462 C468 1.429 1_554 S
C463 C455 1.574 . S
C463 H458 0.949 . S
C463 C469 1.368 . S
C464 C448 1.349 . S
C464 H456 0.950 . S
C464 C462 1.327 . S
C465 C453 1.349 . S
C465 H459 0.950 . S
C465 C466 1.327 . S
C466 H460 0.950 . S
C466 C465 1.327 . S
C466 C470 1.429 . S
C467 C450 1.574 . S
C467 H461 0.949 . S
C467 C471 1.368 . S
C468 C449 1.429 . S
C468 C462 1.429 1_556 S
C468 C469 1.523 . S
C469 C450 1.368 . S
C469 C463 1.368 . S
C469 C468 1.523 . S
C470 C454 1.429 . S
C470 C466 1.429 . S
C470 C471 1.523 . S
C471 C455 1.368 . S
C471 C467 1.368 . S
C471 C470 1.523 . S
H472 C447 0.950 . S
H473 C449 0.950 . S
H474 C450 0.949 . S
H475 C452 0.950 . S
H476 C454 0.950 . S
C477 C478 1.349 . S
C477 C479 1.327 1_554 S
C477 H502 0.950 . S
C478 C477 1.349 . S
C478 C494 1.349 . S
C479 C477 1.327 1_556 S
C479 C498 1.429 . S
C479 H503 0.950 . S
C480 C497 1.574 . S
C480 C499 1.368 . S
C480 H504 0.949 1_556 S
H481 C485 0.949 . S
C482 C483 1.349 . S
C482 C484 1.327 . S
C482 H505 0.950 . S
C483 C482 1.349 . S
C483 C495 1.349 . S
C484 C482 1.327 . S
C484 C500 1.429 . S
C484 H506 0.950 . S
C485 H481 0.949 . S
C485 C493 1.574 . S
C485 C501 1.368 . S
H486 C494 0.950 . S
H487 C492 0.950 . S
H488 C493 0.949 . S
H489 C495 0.950 . S
H490 C496 0.950 . S
H491 C497 0.949 . S
C492 H487 0.950 . S
C492 C494 1.327 . S
C492 C498 1.429 1_554 S
C493 C485 1.574 . S
C493 H488 0.949 . S
C493 C499 1.368 . S
C494 C478 1.349 . S
C494 H486 0.950 . S
C494 C492 1.327 . S
C495 C483 1.349 . S
C495 H489 0.950 . S
C495 C496 1.327 . S
C496 H490 0.950 . S
C496 C495 1.327 . S
C496 C500 1.429 . S
C497 C480 1.574 . S
C497 H491 0.949 . S
C497 C501 1.368 . S
C498 C479 1.429 . S
C498 C492 1.429 1_556 S
C498 C499 1.523 . S
C499 C480 1.368 . S
C499 C493 1.368 . S
C499 C498 1.523 . S
C500 C484 1.429 . S
C500 C496 1.429 . S
C500 C501 1.523 . S
C501 C485 1.368 . S
C501 C497 1.368 . S
C501 C500 1.523 . S
H502 C477 0.950 . S
H503 C479 0.950 . S
H504 C480 0.949 1_554 S
H505 C482 0.950 . S
H506 C484 0.950 . S
C507 C508 1.349 1_554 S
C507 C509 1.327 1_554 S
C507 H532 0.950 . S
C508 C507 1.349 1_556 S
C508 C524 1.349 . S
C509 C507 1.327 1_556 S
C509 C528 1.429 . S
C509 H533 0.950 . S
C510 C527 1.574 . S
C510 C529 1.368 . S
C510 H534 0.949 . S
H511 C515 0.949 . S
C512 C513 1.349 . S
C512 C514 1.327 . S
C512 H535 0.950 . S
C513 C512 1.349 . S
C513 C525 1.349 . S
C514 C512 1.327 . S
C514 C530 1.429 . S
C514 H536 0.950 . S
C515 H511 0.949 . S
C515 C523 1.574 . S
C515 C531 1.368 . S
H516 C524 0.950 . S
H517 C522 0.950 . S
H518 C523 0.949 . S
H519 C525 0.950 . S
H520 C526 0.950 . S
H521 C527 0.949 . S
C522 H517 0.950 . S
C522 C524 1.327 . S
C522 C528 1.429 . S
C523 C515 1.574 . S
C523 H518 0.949 . S
C523 C529 1.368 . S
C524 C508 1.349 . S
C524 H516 0.950 . S
C524 C522 1.327 . S
C525 C513 1.349 . S
C525 H519 0.950 . S
C525 C526 1.327 . S
C526 H520 0.950 . S
C526 C525 1.327 . S
C526 C530 1.429 . S
C527 C510 1.574 . S
C527 H521 0.949 . S
C527 C531 1.368 . S
C528 C509 1.429 . S
C528 C522 1.429 . S
C528 C529 1.523 . S
C529 C510 1.368 . S
C529 C523 1.368 . S
C529 C528 1.523 . S
C530 C514 1.429 . S
C530 C526 1.429 . S
C530 C531 1.523 . S
C531 C515 1.368 . S
C531 C527 1.368 . S
C531 C530 1.523 . S
H532 C507 0.950 . S
H533 C509 0.950 . S
H534 C510 0.949 . S
H535 C512 0.950 . S
H536 C514 0.950 . S
C537 C538 1.349 . S
C537 C539 1.327 . S
C537 H562 0.950 . S
C538 C537 1.349 . S
C538 C554 1.349 . S
C539 C537 1.327 . S
C539 C558 1.429 . S
C539 H563 0.950 . S
C540 C557 1.574 . S
C540 C559 1.368 . S
C540 H564 0.949 . S
H541 C545 0.949 . S
C542 C543 1.349 . S
C542 C544 1.327 . S
C542 H565 0.950 . S
C543 C542 1.349 . S
C543 C555 1.349 . S
C544 C542 1.327 . S
C544 C560 1.429 . S
C544 H566 0.950 . S
C545 H541 0.949 . S
C545 C553 1.574 . S
C545 C561 1.368 . S
H546 C554 0.950 . S
H547 C552 0.950 . S
H548 C553 0.949 . S
H549 C555 0.950 . S
H550 C556 0.950 . S
H551 C557 0.949 . S
C552 H547 0.950 . S
C552 C554 1.327 . S
C552 C558 1.429 . S
C553 C545 1.574 . S
C553 H548 0.949 . S
C553 C559 1.368 . S
C554 C538 1.349 . S
C554 H546 0.950 . S
C554 C552 1.327 . S
C555 C543 1.349 . S
C555 H549 0.950 . S
C555 C556 1.327 . S
C556 H550 0.950 . S
C556 C555 1.327 . S
C556 C560 1.429 . S
C557 C540 1.574 . S
C557 H551 0.949 . S
C557 C561 1.368 . S
C558 C539 1.429 . S
C558 C552 1.429 . S
C558 C559 1.523 . S
C559 C540 1.368 . S
C559 C553 1.368 . S
C559 C558 1.523 . S
C560 C544 1.429 . S
C560 C556 1.429 . S
C560 C561 1.523 . S
C561 C545 1.368 . S
C561 C557 1.368 . S
C561 C560 1.523 . S
H562 C537 0.950 . S
H563 C539 0.950 . S
H564 C540 0.949 . S
H565 C542 0.950 . S
H566 C544 0.950 . S
C567 C568 1.349 1_556 S
C567 C569 1.327 . S
C567 H592 0.950 . S
C568 C567 1.349 1_554 S
C568 C584 1.349 . S
C569 C567 1.327 . S
C569 C588 1.429 . S
C569 H593 0.950 . S
C570 C587 1.574 . S
C570 C589 1.368 . S
C570 H594 0.949 . S
H571 C575 0.949 . S
C572 C573 1.349 . S
C572 C574 1.327 . S
C572 H595 0.950 . S
C573 C572 1.349 . S
C573 C585 1.349 . S
C574 C572 1.327 . S
C574 C590 1.429 . S
C574 H596 0.950 . S
C575 H571 0.949 . S
C575 C583 1.574 . S
C575 C591 1.368 . S
H576 C584 0.950 . S
H577 C582 0.950 . S
H578 C583 0.949 . S
H579 C585 0.950 . S
H580 C586 0.950 . S
H581 C587 0.949 . S
C582 H577 0.950 . S
C582 C584 1.327 1_556 S
C582 C588 1.429 . S
C583 C575 1.574 . S
C583 H578 0.949 . S
C583 C589 1.368 . S
C584 C568 1.349 . S
C584 H576 0.950 . S
C584 C582 1.327 1_554 S
C585 C573 1.349 . S
C585 H579 0.950 . S
C585 C586 1.327 . S
C586 H580 0.950 . S
C586 C585 1.327 . S
C586 C590 1.429 . S
C587 C570 1.574 . S
C587 H581 0.949 . S
C587 C591 1.368 . S
C588 C569 1.429 . S
C588 C582 1.429 . S
C588 C589 1.523 . S
C589 C570 1.368 . S
C589 C583 1.368 . S
C589 C588 1.523 . S
C590 C574 1.429 . S
C590 C586 1.429 . S
C590 C591 1.523 . S
C591 C575 1.368 . S
C591 C587 1.368 . S
C591 C590 1.523 . S
H592 C567 0.950 . S
H593 C569 0.950 . S
H594 C570 0.949 . S
H595 C572 0.950 . S
H596 C574 0.950 . S
C597 C598 1.349 . S
C597 C599 1.327 . S
C597 H622 0.950 . S
C598 C597 1.349 . S
C598 C614 1.349 . S
C599 C597 1.327 . S
C599 C618 1.429 1_554 S
C599 H623 0.950 . S
C600 C617 1.574 . S
C600 C619 1.368 . S
C600 H624 0.949 . S
H601 C605 0.949 . S
C602 C603 1.349 . S
C602 C604 1.327 . S
C602 H625 0.950 . S
C603 C602 1.349 . S
C603 C615 1.349 . S
C604 C602 1.327 . S
C604 C620 1.429 . S
C604 H626 0.950 . S
C605 H601 0.949 . S
C605 C613 1.574 . S
C605 C621 1.368 . S
H606 C614 0.950 . S
H607 C612 0.950 . S
H608 C613 0.949 . S
H609 C615 0.950 . S
H610 C616 0.950 . S
H611 C617 0.949 . S
C612 H607 0.950 . S
C612 C614 1.327 1_556 S
C612 C618 1.429 . S
C613 C605 1.574 . S
C613 H608 0.949 . S
C613 C619 1.368 . S
C614 C598 1.349 . S
C614 H606 0.950 . S
C614 C612 1.327 1_554 S
C615 C603 1.349 . S
C615 H609 0.950 . S
C615 C616 1.327 . S
C616 H610 0.950 . S
C616 C615 1.327 . S
C616 C620 1.429 . S
C617 C600 1.574 . S
C617 H611 0.949 . S
C617 C621 1.368 . S
C618 C599 1.429 1_556 S
C618 C612 1.429 . S
C618 C619 1.523 . S
C619 C600 1.368 . S
C619 C613 1.368 . S
C619 C618 1.523 . S
C620 C604 1.429 . S
C620 C616 1.429 . S
C620 C621 1.523 . S
C621 C605 1.368 . S
C621 C617 1.368 . S
C621 C620 1.523 . S
H622 C597 0.950 . S
H623 C599 0.950 . S
H624 C600 0.949 . S
H625 C602 0.950 . S
H626 C604 0.950 . S
C627 C628 1.349 . S
C627 C629 1.327 . S
C627 H652 0.950 . S
C628 C627 1.349 . S
C628 C644 1.349 . S
C629 C627 1.327 . S
C629 C648 1.429 1_554 S
C629 H653 0.950 1_554 S
C630 C647 1.574 . S
C630 C649 1.368 . S
C630 H654 0.949 . S
H631 C635 0.949 . S
C632 C633 1.349 . S
C632 C634 1.327 . S
C632 H655 0.950 . S
C633 C632 1.349 . S
C633 C645 1.349 . S
C634 C632 1.327 . S
C634 C650 1.429 . S
C634 H656 0.950 . S
C635 H631 0.949 . S
C635 C643 1.574 . S
C635 C651 1.368 . S
H636 C644 0.950 . S
H637 C642 0.950 . S
H638 C643 0.949 . S
H639 C645 0.950 . S
H640 C646 0.950 . S
H641 C647 0.949 . S
C642 H637 0.950 . S
C642 C644 1.327 . S
C642 C648 1.429 1_554 S
C643 C635 1.574 . S
C643 H638 0.949 . S
C643 C649 1.368 . S
C644 C628 1.349 . S
C644 H636 0.950 . S
C644 C642 1.327 . S
C645 C633 1.349 . S
C645 H639 0.950 . S
C645 C646 1.327 . S
C646 H640 0.950 . S
C646 C645 1.327 . S
C646 C650 1.429 . S
C647 C630 1.574 . S
C647 H641 0.949 . S
C647 C651 1.368 . S
C648 C629 1.429 1_556 S
C648 C642 1.429 1_556 S
C648 C649 1.523 . S
C649 C630 1.368 . S
C649 C643 1.368 . S
C649 C648 1.523 . S
C650 C634 1.429 . S
C650 C646 1.429 . S
C650 C651 1.523 . S
C651 C635 1.368 . S
C651 C647 1.368 . S
C651 C650 1.523 . S
H652 C627 0.950 . S
H653 C629 0.950 1_556 S
H654 C630 0.949 . S
H655 C632 0.950 . S
H656 C634 0.950 . S
C657 C658 1.349 . S
C657 C659 1.327 . S
C657 H682 0.950 1_556 S
C658 C657 1.349 . S
C658 C674 1.349 . S
C659 C657 1.327 . S
C659 C678 1.429 . S
C659 H683 0.950 . S
C660 C677 1.574 . S
C660 C679 1.368 . S
C660 H684 0.949 . S
H661 C665 0.949 . S
C662 C663 1.349 . S
C662 C664 1.327 . S
C662 H685 0.950 . S
C663 C662 1.349 . S
C663 C675 1.349 . S
C664 C662 1.327 . S
C664 C680 1.429 . S
C664 H686 0.950 . S
C665 H661 0.949 . S
C665 C673 1.574 . S
C665 C681 1.368 . S
H666 C674 0.950 . S
H667 C672 0.950 . S
H668 C673 0.949 . S
H669 C675 0.950 . S
H670 C676 0.950 . S
H671 C677 0.949 . S
C672 H667 0.950 . S
C672 C674 1.327 . S
C672 C678 1.429 . S
C673 C665 1.574 . S
C673 H668 0.949 . S
C673 C679 1.368 . S
C674 C658 1.349 . S
C674 H666 0.950 . S
C674 C672 1.327 . S
C675 C663 1.349 . S
C675 H669 0.950 . S
C675 C676 1.327 . S
C676 H670 0.950 . S
C676 C675 1.327 . S
C676 C680 1.429 . S
C677 C660 1.574 . S
C677 H671 0.949 . S
C677 C681 1.368 . S
C678 C659 1.429 . S
C678 C672 1.429 . S
C678 C679 1.523 . S
C679 C660 1.368 . S
C679 C673 1.368 . S
C679 C678 1.523 . S
C680 C664 1.429 . S
C680 C676 1.429 . S
C680 C681 1.523 . S
C681 C665 1.368 . S
C681 C677 1.368 . S
C681 C680 1.523 . S
H682 C657 0.950 1_554 S
H683 C659 0.950 . S
H684 C660 0.949 . S
H685 C662 0.950 . S
H686 C664 0.950 . S
C687 C688 1.349 . S
C687 C689 1.327 . S
C687 H712 0.950 . S
C688 C687 1.349 . S
C688 C704 1.349 . S
C689 C687 1.327 . S
C689 C708 1.429 . S
C689 H713 0.950 . S
C690 C707 1.574 . S
C690 C709 1.368 . S
C690 H714 0.949 . S
H691 C695 0.949 . S
C692 C693 1.349 . S
C692 C694 1.327 . S
C692 H715 0.950 . S
C693 C692 1.349 . S
C693 C705 1.349 . S
C694 C692 1.327 . S
C694 C710 1.429 . S
C694 H716 0.950 . S
C695 H691 0.949 . S
C695 C703 1.574 . S
C695 C711 1.368 . S
H696 C704 0.950 . S
H697 C702 0.950 . S
H698 C703 0.949 . S
H699 C705 0.950 . S
H700 C706 0.950 . S
H701 C707 0.949 . S
C702 H697 0.950 . S
C702 C704 1.327 . S
C702 C708 1.429 . S
C703 C695 1.574 . S
C703 H698 0.949 . S
C703 C709 1.368 . S
C704 C688 1.349 . S
C704 H696 0.950 . S
C704 C702 1.327 . S
C705 C693 1.349 . S
C705 H699 0.950 . S
C705 C706 1.327 . S
C706 H700 0.950 . S
C706 C705 1.327 . S
C706 C710 1.429 . S
C707 C690 1.574 . S
C707 H701 0.949 . S
C707 C711 1.368 . S
C708 C689 1.429 . S
C708 C702 1.429 . S
C708 C709 1.523 . S
C709 C690 1.368 . S
C709 C703 1.368 . S
C709 C708 1.523 . S
C710 C694 1.429 . S
C710 C706 1.429 . S
C710 C711 1.523 . S
C711 C695 1.368 . S
C711 C707 1.368 . S
C711 C710 1.523 . S
H712 C687 0.950 . S
H713 C689 0.950 . S
H714 C690 0.949 . S
H715 C692 0.950 . S
H716 C694 0.950 . S
C717 C718 1.349 . S
C717 C719 1.327 . S
C717 H742 0.950 . S
C718 C717 1.349 . S
C718 C734 1.349 . S
C719 C717 1.327 . S
C719 C738 1.429 . S
C719 H743 0.950 . S
C720 C737 1.574 . S
C720 C739 1.368 . S
C720 H744 0.949 . S
H721 C725 0.949 . S
C722 C723 1.349 . S
C722 C724 1.327 . S
C722 H745 0.950 . S
C723 C722 1.349 . S
C723 C735 1.349 . S
C724 C722 1.327 . S
C724 C740 1.429 . S
C724 H746 0.950 . S
C725 H721 0.949 . S
C725 C733 1.574 . S
C725 C741 1.368 . S
H726 C734 0.950 . S
H727 C732 0.950 . S
H728 C733 0.949 . S
H729 C735 0.950 . S
H730 C736 0.950 . S
H731 C737 0.949 . S
C732 H727 0.950 . S
C732 C734 1.327 . S
C732 C738 1.429 . S
C733 C725 1.574 . S
C733 H728 0.949 . S
C733 C739 1.368 . S
C734 C718 1.349 . S
C734 H726 0.950 . S
C734 C732 1.327 . S
C735 C723 1.349 . S
C735 H729 0.950 . S
C735 C736 1.327 . S
C736 H730 0.950 . S
C736 C735 1.327 . S
C736 C740 1.429 . S
C737 C720 1.574 . S
C737 H731 0.949 . S
C737 C741 1.368 . S
C738 C719 1.429 . S
C738 C732 1.429 . S
C738 C739 1.523 . S
C739 C720 1.368 . S
C739 C733 1.368 . S
C739 C738 1.523 . S
C740 C724 1.429 . S
C740 C736 1.429 . S
C740 C741 1.523 . S
C741 C725 1.368 . S
C741 C737 1.368 . S
C741 C740 1.523 . S
H742 C717 0.950 . S
H743 C719 0.950 . S
H744 C720 0.949 . S
H745 C722 0.950 . S
H746 C724 0.950 . S
C747 C748 1.349 . S
C747 C749 1.327 . S
C747 H772 0.950 . S
C748 C747 1.349 . S
C748 C764 1.349 . S
C749 C747 1.327 . S
C749 C768 1.429 . S
C749 H773 0.950 . S
C750 C767 1.574 . S
C750 C769 1.368 . S
C750 H774 0.949 . S
H751 C755 0.949 . S
C752 C753 1.349 . S
C752 C754 1.327 . S
C752 H775 0.950 . S
C753 C752 1.349 . S
C753 C765 1.349 . S
C754 C752 1.327 . S
C754 C770 1.429 . S
C754 H776 0.950 . S
C755 H751 0.949 . S
C755 C763 1.574 . S
C755 C771 1.368 . S
H756 C764 0.950 . S
H757 C762 0.950 . S
H758 C763 0.949 . S
H759 C765 0.950 . S
H760 C766 0.950 . S
H761 C767 0.949 . S
C762 H757 0.950 . S
C762 C764 1.327 . S
C762 C768 1.429 . S
C763 C755 1.574 . S
C763 H758 0.949 . S
C763 C769 1.368 . S
C764 C748 1.349 . S
C764 H756 0.950 . S
C764 C762 1.327 . S
C765 C753 1.349 . S
C765 H759 0.950 . S
C765 C766 1.327 . S
C766 H760 0.950 . S
C766 C765 1.327 . S
C766 C770 1.429 . S
C767 C750 1.574 . S
C767 H761 0.949 . S
C767 C771 1.368 . S
C768 C749 1.429 . S
C768 C762 1.429 . S
C768 C769 1.523 . S
C769 C750 1.368 . S
C769 C763 1.368 . S
C769 C768 1.523 . S
C770 C754 1.429 . S
C770 C766 1.429 . S
C770 C771 1.523 . S
C771 C755 1.368 . S
C771 C767 1.368 . S
C771 C770 1.523 . S
H772 C747 0.950 . S
H773 C749 0.950 . S
H774 C750 0.949 . S
H775 C752 0.950 . S
H776 C754 0.950 . S
C777 C778 1.349 . S
C777 C779 1.327 . S
C777 H802 0.950 . S
C778 C777 1.349 . S
C778 C794 1.349 . S
C779 C777 1.327 . S
C779 C798 1.429 . S
C779 H803 0.950 . S
C780 C797 1.574 . S
C780 C799 1.368 . S
C780 H804 0.949 . S
H781 C785 0.949 . S
C782 C783 1.349 . S
C782 C784 1.327 . S
C782 H805 0.950 . S
C783 C782 1.349 . S
C783 C795 1.349 . S
C784 C782 1.327 . S
C784 C800 1.429 . S
C784 H806 0.950 . S
C785 H781 0.949 . S
C785 C793 1.574 . S
C785 C801 1.368 . S
H786 C794 0.950 . S
H787 C792 0.950 . S
H788 C793 0.949 . S
H789 C795 0.950 . S
H790 C796 0.950 . S
H791 C797 0.949 . S
C792 H787 0.950 . S
C792 C794 1.327 . S
C792 C798 1.429 . S
C793 C785 1.574 . S
C793 H788 0.949 . S
C793 C799 1.368 . S
C794 C778 1.349 . S
C794 H786 0.950 . S
C794 C792 1.327 . S
C795 C783 1.349 . S
C795 H789 0.950 . S
C795 C796 1.327 . S
C796 H790 0.950 . S
C796 C795 1.327 . S
C796 C800 1.429 . S
C797 C780 1.574 . S
C797 H791 0.949 . S
C797 C801 1.368 . S
C798 C779 1.429 . S
C798 C792 1.429 . S
C798 C799 1.523 . S
C799 C780 1.368 . S
C799 C793 1.368 . S
C799 C798 1.523 . S
C800 C784 1.429 . S
C800 C796 1.429 . S
C800 C801 1.523 . S
C801 C785 1.368 . S
C801 C797 1.368 . S
C801 C800 1.523 . S
H802 C777 0.950 . S
H803 C779 0.950 . S
H804 C780 0.949 . S
H805 C782 0.950 . S
H806 C784 0.950 . S
C807 C808 1.349 . S
C807 C809 1.327 . S
C807 H832 0.950 . S
C808 C807 1.349 . S
C808 C824 1.349 . S
C809 C807 1.327 . S
C809 C828 1.429 . S
C809 H833 0.950 . S
C810 C827 1.574 . S
C810 C829 1.368 . S
C810 H834 0.949 . S
H811 C815 0.949 . S
C812 C813 1.349 . S
C812 C814 1.327 . S
C812 H835 0.950 . S
C813 C812 1.349 . S
C813 C825 1.349 . S
C814 C812 1.327 . S
C814 C830 1.429 . S
C814 H836 0.950 . S
C815 H811 0.949 . S
C815 C823 1.574 . S
C815 C831 1.368 . S
H816 C824 0.950 . S
H817 C822 0.950 . S
H818 C823 0.949 . S
H819 C825 0.950 . S
H820 C826 0.950 . S
H821 C827 0.949 . S
C822 H817 0.950 . S
C822 C824 1.327 . S
C822 C828 1.429 . S
C823 C815 1.574 . S
C823 H818 0.949 . S
C823 C829 1.368 . S
C824 C808 1.349 . S
C824 H816 0.950 . S
C824 C822 1.327 . S
C825 C813 1.349 . S
C825 H819 0.950 . S
C825 C826 1.327 . S
C826 H820 0.950 . S
C826 C825 1.327 . S
C826 C830 1.429 . S
C827 C810 1.574 . S
C827 H821 0.949 . S
C827 C831 1.368 . S
C828 C809 1.429 . S
C828 C822 1.429 . S
C828 C829 1.523 . S
C829 C810 1.368 . S
C829 C823 1.368 . S
C829 C828 1.523 . S
C830 C814 1.429 . S
C830 C826 1.429 . S
C830 C831 1.523 . S
C831 C815 1.368 . S
C831 C827 1.368 . S
C831 C830 1.523 . S
H832 C807 0.950 . S
H833 C809 0.950 . S
H834 C810 0.949 . S
H835 C812 0.950 . S
H836 C814 0.950 . S
C837 C838 1.349 . S
C837 C839 1.327 . S
C837 H862 0.950 . S
C838 C837 1.349 . S
C838 C854 1.349 . S
C839 C837 1.327 . S
C839 C858 1.429 . S
C839 H863 0.950 . S
C840 C857 1.574 . S
C840 C859 1.368 . S
C840 H864 0.949 . S
H841 C845 0.949 . S
C842 C843 1.349 . S
C842 C844 1.327 . S
C842 H865 0.950 . S
C843 C842 1.349 . S
C843 C855 1.349 . S
C844 C842 1.327 . S
C844 C860 1.429 . S
C844 H866 0.950 . S
C845 H841 0.949 . S
C845 C853 1.574 . S
C845 C861 1.368 . S
H846 C854 0.950 . S
H847 C852 0.950 . S
H848 C853 0.949 . S
H849 C855 0.950 . S
H850 C856 0.950 . S
H851 C857 0.949 . S
C852 H847 0.950 . S
C852 C854 1.327 . S
C852 C858 1.429 . S
C853 C845 1.574 . S
C853 H848 0.949 . S
C853 C859 1.368 . S
C854 C838 1.349 . S
C854 H846 0.950 . S
C854 C852 1.327 . S
C855 C843 1.349 . S
C855 H849 0.950 . S
C855 C856 1.327 . S
C856 H850 0.950 . S
C856 C855 1.327 . S
C856 C860 1.429 . S
C857 C840 1.574 . S
C857 H851 0.949 . S
C857 C861 1.368 . S
C858 C839 1.429 . S
C858 C852 1.429 . S
C858 C859 1.523 . S
C859 C840 1.368 . S
C859 C853 1.368 . S
C859 C858 1.523 . S
C860 C844 1.429 . S
C860 C856 1.429 . S
C860 C861 1.523 . S
C861 C845 1.368 . S
C861 C857 1.368 . S
C861 C860 1.523 . S
H862 C837 0.950 . S
H863 C839 0.950 . S
H864 C840 0.949 . S
H865 C842 0.950 . S
H866 C844 0.950 . S
C867 C868 1.349 . S
C867 C869 1.327 . S
C867 H892 0.950 . S
C868 C867 1.349 . S
C868 C884 1.349 . S
C869 C867 1.327 . S
C869 C888 1.429 . S
C869 H893 0.950 . S
C870 C887 1.574 . S
C870 C889 1.368 . S
C870 H894 0.949 . S
H871 C875 0.949 . S
C872 C873 1.349 . S
C872 C874 1.327 . S
C872 H895 0.950 . S
C873 C872 1.349 . S
C873 C885 1.349 . S
C874 C872 1.327 . S
C874 C890 1.429 . S
C874 H896 0.950 . S
C875 H871 0.949 . S
C875 C883 1.574 . S
C875 C891 1.368 . S
H876 C884 0.950 . S
H877 C882 0.950 . S
H878 C883 0.949 . S
H879 C885 0.950 . S
H880 C886 0.950 . S
H881 C887 0.949 . S
C882 H877 0.950 . S
C882 C884 1.327 . S
C882 C888 1.429 . S
C883 C875 1.574 . S
C883 H878 0.949 . S
C883 C889 1.368 . S
C884 C868 1.349 . S
C884 H876 0.950 . S
C884 C882 1.327 . S
C885 C873 1.349 . S
C885 H879 0.950 . S
C885 C886 1.327 . S
C886 H880 0.950 . S
C886 C885 1.327 . S
C886 C890 1.429 . S
C887 C870 1.574 . S
C887 H881 0.949 . S
C887 C891 1.368 . S
C888 C869 1.429 . S
C888 C882 1.429 . S
C888 C889 1.523 . S
C889 C870 1.368 . S
C889 C883 1.368 . S
C889 C888 1.523 . S
C890 C874 1.429 . S
C890 C886 1.429 . S
C890 C891 1.523 . S
C891 C875 1.368 . S
C891 C887 1.368 . S
C891 C890 1.523 . S
H892 C867 0.950 . S
H893 C869 0.950 . S
H894 C870 0.949 . S
H895 C872 0.950 . S
H896 C874 0.950 . S
C178 C1 1.635 . S
C183 C84 1.562 . S
C208 C27 1.503 . S
C213 C116 1.477 . S
C243 C175 1.863 . S
C238 C40 1.905 . S
C273 C104 1.391 . S
C268 C55 1.418 . S
C298 C68 1.552 . S
C303 C134 1.480 . S
C333 C156 1.071 . S
C328 C70 1.091 . S
C363 C125 1.537 . S
C358 C41 1.578 . S
C388 C54 1.151 . S
C393 C165 1.110 . S
C423 C114 1.459 . S
C418 C69 1.499 1_556 S
C448 C71 1.484 . S
C453 C144 1.453 . S
C478 C0 1.832 . S
C483 C147 1.794 . S
C513 C86 1.540 . S
C508 C26 1.568 1_556 S
C543 C94 1.502 . S
C538 C42 1.541 . S
C573 C135 1.476 . S
C568 C57 1.507 . S
C603 C148 1.891 . S
C598 C83 1.935 . S
C633 C85 1.434 . S
C628 C12 1.465 . S
C663 C145 1.444 . S
C658 C14 1.482 1_556 S
C688 C29 1.117 . S
C693 C146 1.078 . S
C723 C115 1.491 . S
C718 C82 1.565 . S
C753 C176 1.080 . S
C748 C13 1.100 . S
C783 C103 1.445 . S
C778 C15 1.516 . S
C813 C117 1.509 . S
C808 C28 1.542 . S
C838 C43 1.851 . S
C843 C166 1.808 . S
C868 C56 1.594 . S
C873 C113 1.562 . S
